# Generated by pormake.
# Topology zzz, (3,6)-cn, num edge types: 1
# Building blocks:
#     Node 0, Type 0, BuildingBlock: OLANEW_clean_sbu_2, # of connection points: 3
#     Node 1, Type 0, BuildingBlock: OLANEW_clean_sbu_2, # of connection points: 3
#     Node 2, Type 0, BuildingBlock: OLANEW_clean_sbu_2, # of connection points: 3
#     Node 3, Type 0, BuildingBlock: OLANEW_clean_sbu_2, # of connection points: 3
#     Node 4, Type 0, BuildingBlock: OLANEW_clean_sbu_2, # of connection points: 3
#     Node 5, Type 0, BuildingBlock: OLANEW_clean_sbu_2, # of connection points: 3
#     Node 6, Type 0, BuildingBlock: OLANEW_clean_sbu_2, # of connection points: 3
#     Node 7, Type 0, BuildingBlock: OLANEW_clean_sbu_2, # of connection points: 3
#     Node 8, Type 1, BuildingBlock: MIFKUJ_clean_sbu_0, # of connection points: 6
#     Node 9, Type 1, BuildingBlock: MIFKUJ_clean_sbu_0, # of connection points: 6
#     Node 10, Type 1, BuildingBlock: MIFKUJ_clean_sbu_0, # of connection points: 6
#     Node 11, Type 1, BuildingBlock: MIFKUJ_clean_sbu_0, # of connection points: 6
#     Edge 12, Type (0, 1), BuildingBlock: MIFKUJ_clean_linker_0, # of connection points: 2
#     Edge 13, Type (0, 1), BuildingBlock: MIFKUJ_clean_linker_0, # of connection points: 2
#     Edge 14, Type (0, 1), BuildingBlock: MIFKUJ_clean_linker_0, # of connection points: 2
#     Edge 15, Type (0, 1), BuildingBlock: MIFKUJ_clean_linker_0, # of connection points: 2
#     Edge 16, Type (0, 1), BuildingBlock: MIFKUJ_clean_linker_0, # of connection points: 2
#     Edge 17, Type (0, 1), BuildingBlock: MIFKUJ_clean_linker_0, # of connection points: 2
#     Edge 18, Type (0, 1), BuildingBlock: MIFKUJ_clean_linker_0, # of connection points: 2
#     Edge 19, Type (0, 1), BuildingBlock: MIFKUJ_clean_linker_0, # of connection points: 2
#     Edge 20, Type (0, 1), BuildingBlock: MIFKUJ_clean_linker_0, # of connection points: 2
#     Edge 21, Type (0, 1), BuildingBlock: MIFKUJ_clean_linker_0, # of connection points: 2
#     Edge 22, Type (0, 1), BuildingBlock: MIFKUJ_clean_linker_0, # of connection points: 2
#     Edge 23, Type (0, 1), BuildingBlock: MIFKUJ_clean_linker_0, # of connection points: 2
#     Edge 24, Type (0, 1), BuildingBlock: MIFKUJ_clean_linker_0, # of connection points: 2
#     Edge 25, Type (0, 1), BuildingBlock: MIFKUJ_clean_linker_0, # of connection points: 2
#     Edge 26, Type (0, 1), BuildingBlock: MIFKUJ_clean_linker_0, # of connection points: 2
#     Edge 27, Type (0, 1), BuildingBlock: MIFKUJ_clean_linker_0, # of connection points: 2
#     Edge 28, Type (0, 1), BuildingBlock: MIFKUJ_clean_linker_0, # of connection points: 2
#     Edge 29, Type (0, 1), BuildingBlock: MIFKUJ_clean_linker_0, # of connection points: 2
#     Edge 30, Type (0, 1), BuildingBlock: MIFKUJ_clean_linker_0, # of connection points: 2
#     Edge 31, Type (0, 1), BuildingBlock: MIFKUJ_clean_linker_0, # of connection points: 2
#     Edge 32, Type (0, 1), BuildingBlock: MIFKUJ_clean_linker_0, # of connection points: 2
#     Edge 33, Type (0, 1), BuildingBlock: MIFKUJ_clean_linker_0, # of connection points: 2
#     Edge 34, Type (0, 1), BuildingBlock: MIFKUJ_clean_linker_0, # of connection points: 2
#     Edge 35, Type (0, 1), BuildingBlock: MIFKUJ_clean_linker_0, # of connection points: 2
# Relax obj value: 0.118
# Max RMSD: 0.125
# Mean RMSD: 0.094
data_MOF--net-zzz--node1-OLANEW_clean_sbu_2--node2-MIFKUJ_clean_sbu_0--edge1-MIFKUJ_clean_linker_0
_symmetry_space_group_name_H-M    P1
_symmetry_Int_Tables_number       1
_symmetry_cell_setting            triclinic
loop_
_symmetry_equiv_pos_as_xyz
'x, y, z'
_cell_length_a     67.792304
_cell_length_b     68.622915
_cell_length_c     22.449124
_cell_angle_alpha  89.874737
_cell_angle_beta   89.918176
_cell_angle_gamma 89.911872
loop_
_atom_site_label
_atom_site_type_symbol
_atom_site_fract_x
_atom_site_fract_y
_atom_site_fract_z
_atom_type_partial_charge
O0 O 0.75153 0.59981 0.97131 0.0
Cd1 Cd 0.71898 0.60819 0.00964 0.0
O2 O 0.75536 0.58133 0.05 0.0
Cd3 Cd 0.76993 0.56015 0.1084 0.0
O4 O 0.7889 0.54589 0.17381 0.0
C5 C 0.80559 0.53929 0.15763 0.0
O6 O 0.81054 0.5402 0.10114 0.0
C7 C 0.76213 0.58807 0.0012 0.0
C8 C 0.68995 0.58932 0.94392 0.0
O9 O 0.69555 0.60659 0.93026 0.0
O10 O 0.69797 0.58104 0.98905 0.0
O11 O 0.95615 0.78527 0.00712 0.0
Cd12 Cd 0.94061 0.7547 0.03552 0.0
O13 O 0.98476 0.77087 0.02066 0.0
Cd14 Cd 0.01636 0.77425 0.03552 0.0
O15 O 0.03159 0.79657 0.08638 0.0
C16 C 0.01953 0.80591 0.11896 0.0
O17 O 0.00102 0.80032 0.12065 0.0
C18 C 0.97487 0.78598 0.00683 0.0
C19 C 0.9541 0.72451 0.96359 0.0
O20 O 0.93832 0.73391 0.95053 0.0
O21 O 0.96343 0.72934 0.01091 0.0
O22 O 0.74279 0.94887 0.00604 0.0
Cd23 Cd 0.7761 0.94448 0.0451 0.0
O24 O 0.7372 0.96673 0.08524 0.0
Cd25 Cd 0.71611 0.98171 0.14302 0.0
O26 O 0.69056 0.99088 0.19512 0.0
C27 C 0.67374 0.98331 0.18572 0.0
O28 O 0.67195 0.97012 0.14375 0.0
C29 C 0.73116 0.95938 0.03665 0.0
C30 C 0.80529 0.95045 0.9596 0.0
O31 O 0.79889 0.93327 0.97097 0.0
O32 O 0.79777 0.96478 0.98832 0.0
O33 O 0.49751 0.72925 0.07962 0.0
Cd34 Cd 0.5032 0.75996 0.13143 0.0
O35 O 0.46738 0.73799 0.05527 0.0
Cd36 Cd 0.46625 0.75407 0.13885 0.0
O37 O 0.46498 0.73559 0.21797 0.0
C38 C 0.4809 0.72865 0.23912 0.0
O39 O 0.4978 0.73511 0.21857 0.0
C40 C 0.48203 0.7266 0.04882 0.0
C41 C 0.49926 0.79055 0.05076 0.0
O42 O 0.51564 0.78137 0.05621 0.0
O43 O 0.48482 0.78547 0.08419 0.0
O44 O 0.23104 0.46534 0.17685 0.0
Cd45 Cd 0.25931 0.46358 0.10981 0.0
O46 O 0.23592 0.43686 0.21965 0.0
Cd47 Cd 0.25324 0.42864 0.14205 0.0
O48 O 0.23541 0.43423 0.06353 0.0
C49 C 0.21979 0.42417 0.05847 0.0
O50 O 0.217 0.40943 0.09494 0.0
C51 C 0.22684 0.45309 0.21754 0.0
C52 C 0.29271 0.46908 0.17948 0.0
O53 O 0.28287 0.48363 0.15939 0.0
O54 O 0.28715 0.4519 0.16496 0.0
O55 O 0.9497 0.25269 0.25276 0.0
Cd56 Cd 0.94138 0.28545 0.21943 0.0
O57 O 0.9747 0.25153 0.19068 0.0
Cd58 Cd 0.9972 0.23502 0.14278 0.0
O59 O 0.00687 0.21031 0.08955 0.0
C60 C 0.99344 0.19777 0.08048 0.0
O61 O 0.97591 0.20073 0.10387 0.0
C62 C 0.96425 0.24348 0.23084 0.0
C63 C 0.95207 0.31279 0.3048 0.0
O64 O 0.93521 0.30438 0.30675 0.0
O65 O 0.96384 0.30831 0.26222 0.0
O66 O 0.27561 0.04694 0.18384 0.0
Cd67 Cd 0.24533 0.0528 0.1279 0.0
O68 O 0.27554 0.07611 0.22439 0.0
Cd69 Cd 0.25609 0.08617 0.15363 0.0
O70 O 0.26973 0.08174 0.06697 0.0
C71 C 0.28536 0.09143 0.05722 0.0
O72 O 0.29036 0.10511 0.09516 0.0
C73 C 0.28274 0.059 0.22099 0.0
C74 C 0.21329 0.04808 0.20454 0.0
O75 O 0.21963 0.03387 0.17283 0.0
O76 O 0.22188 0.06461 0.19914 0.0
O77 O 0.56421 0.25682 0.26493 0.0
Cd78 Cd 0.56992 0.22333 0.23362 0.0
O79 O 0.53869 0.25694 0.20521 0.0
Cd80 Cd 0.51577 0.27186 0.15455 0.0
O81 O 0.50627 0.2936 0.09005 0.0
C82 C 0.52039 0.30117 0.0609 0.0
O83 O 0.53845 0.2951 0.0715 0.0
C84 C 0.54957 0.26577 0.24252 0.0
C85 C 0.55667 0.19709 0.31939 0.0
O86 O 0.57465 0.20284 0.3187 0.0
O87 O 0.54498 0.20373 0.27936 0.0
Zn88 Zn 0.00147 0.02325 0.56433 0.0
Zn89 Zn 0.02134 0.98192 0.61521 0.0
C90 C 0.99534 0.03993 0.67725 0.0
O91 O 0.97708 0.03771 0.65898 0.0
C92 C 0.04039 0.96292 0.51617 0.0
O93 O 0.05635 0.96792 0.54553 0.0
O94 O 0.99353 0.04693 0.51765 0.0
O95 O 0.02475 0.01219 0.52172 0.0
O96 O 0.03961 0.00516 0.60565 0.0
C97 C 0.00667 0.05993 0.51036 0.0
O98 O 0.02438 0.05698 0.53233 0.0
O99 O 0.00931 0.03382 0.64443 0.0
C100 C 0.03191 0.94615 0.67548 0.0
O101 O 0.02854 0.93877 0.62258 0.0
O102 O 0.03086 0.96452 0.68255 0.0
O103 O 0.99219 0.98455 0.63308 0.0
O104 O 0.97785 0.00638 0.57465 0.0
O105 O 0.02357 0.96728 0.53757 0.0
C106 C 0.04044 0.01139 0.55231 0.0
C107 C 0.97675 0.99258 0.61218 0.0
Zn108 Zn 0.47757 0.0013 0.66239 0.0
Zn109 Zn 0.50923 0.00409 0.75522 0.0
C110 C 0.44486 0.00321 0.73931 0.0
O111 O 0.44131 0.98682 0.71113 0.0
C112 C 0.54147 0.00369 0.67708 0.0
O113 O 0.54637 0.01752 0.71464 0.0
O114 O 0.45908 0.00141 0.59229 0.0
O115 O 0.4988 0.02038 0.64137 0.0
O116 O 0.50118 0.0316 0.73274 0.0
C117 C 0.45185 0.01822 0.58222 0.0
O118 O 0.45778 0.03295 0.61496 0.0
O119 O 0.46079 0.01227 0.72835 0.0
C120 C 0.53461 0.98779 0.8395 0.0
O121 O 0.52756 0.97245 0.81197 0.0
O122 O 0.52837 0.00456 0.82424 0.0
O123 O 0.48861 0.98408 0.77606 0.0
O124 O 0.48543 0.97388 0.68404 0.0
O125 O 0.5255 0.99441 0.68572 0.0
C126 C 0.50261 0.03427 0.67681 0.0
C127 C 0.48592 0.97021 0.73953 0.0
Zn128 Zn 0.50241 0.48501 0.56675 0.0
Zn129 Zn 0.48323 0.5219 0.62183 0.0
C130 C 0.51226 0.46393 0.66877 0.0
O131 O 0.52951 0.46637 0.64305 0.0
C132 C 0.47448 0.54276 0.51875 0.0
O133 O 0.45697 0.53992 0.54236 0.0
O134 O 0.51349 0.46346 0.5162 0.0
O135 O 0.47676 0.49224 0.52773 0.0
O136 O 0.46124 0.50283 0.60764 0.0
C137 C 0.50194 0.44899 0.51102 0.0
O138 O 0.48451 0.44977 0.53664 0.0
O139 O 0.49714 0.47171 0.64514 0.0
C140 C 0.4852 0.559 0.66934 0.0
O141 O 0.50107 0.55783 0.63585 0.0
O142 O 0.47379 0.54431 0.6727 0.0
O143 O 0.50811 0.51334 0.66209 0.0
O144 O 0.5235 0.50524 0.57971 0.0
O145 O 0.48936 0.53483 0.54323 0.0
C146 C 0.46082 0.49511 0.55623 0.0
C147 C 0.52392 0.51233 0.6319 0.0
Zn148 Zn 0.03087 0.51095 0.65988 0.0
Zn149 Zn 0.97707 0.50973 0.68832 0.0
C150 C 0.05569 0.51054 0.75946 0.0
O151 O 0.05978 0.52769 0.73644 0.0
C152 C 0.94813 0.49619 0.60917 0.0
O153 O 0.94362 0.48618 0.65724 0.0
O154 O 0.05414 0.50994 0.60457 0.0
O155 O 0.01197 0.49152 0.62385 0.0
O156 O 0.99276 0.48528 0.70055 0.0
C157 C 0.06199 0.49314 0.60072 0.0
O158 O 0.05438 0.47872 0.63174 0.0
O159 O 0.04182 0.5006 0.73673 0.0
C160 C 0.94372 0.52701 0.7321 0.0
O161 O 0.94816 0.53698 0.68388 0.0
O162 O 0.95501 0.51308 0.74782 0.0
O163 O 0.99101 0.53523 0.68886 0.0
O164 O 0.02276 0.53902 0.66998 0.0
O165 O 0.96329 0.50705 0.60967 0.0
C166 C 0.00099 0.47979 0.6526 0.0
C167 C 0.00597 0.54607 0.68264 0.0
H168 H 0.19953 0.07396 0.28722 0.0
H169 H 0.17252 0.06926 0.3581 0.0
H170 H 0.16235 0.01174 0.28727 0.0
H171 H 0.18964 0.01614 0.21746 0.0
H172 H 0.13497 0.06415 0.34268 0.0
H173 H 0.14519 0.98147 0.39272 0.0
H174 H 0.17226 0.95759 0.40153 0.0
H175 H 0.21271 0.00356 0.44431 0.0
H176 H 0.18583 0.02768 0.4366 0.0
H177 H 0.04689 0.02117 0.43641 0.0
H178 H 0.07805 0.02921 0.38863 0.0
H179 H 0.10838 0.02164 0.55595 0.0
H180 H 0.07708 0.01302 0.60421 0.0
H181 H 0.12852 0.00502 0.46875 0.0
H182 H 0.09873 0.06698 0.49885 0.0
H183 H 0.07253 0.09192 0.49497 0.0
H184 H 0.07362 0.09027 0.30385 0.0
H185 H 0.0993 0.06494 0.30648 0.0
C186 C 0.19158 0.06028 0.28687 0.0
C187 C 0.19675 0.0454 0.2468 0.0
C188 C 0.17614 0.05762 0.32742 0.0
C189 C 0.16557 0.04005 0.32865 0.0
C190 C 0.17057 0.02526 0.28815 0.0
C191 C 0.18609 0.02785 0.24794 0.0
C192 C 0.14883 0.03741 0.37064 0.0
C193 C 0.13361 0.05128 0.37051 0.0
C194 C 0.14728 0.02085 0.40812 0.0
C195 C 0.1635 0.0064 0.41361 0.0
C196 C 0.15983 0.98648 0.40431 0.0
C197 C 0.17515 0.9729 0.40905 0.0
C198 C 0.1942 0.97906 0.42332 0.0
C199 C 0.19796 0.99881 0.43306 0.0
C200 C 0.18269 0.01245 0.42844 0.0
C201 C 0.06015 0.02124 0.46329 0.0
C202 C 0.05949 0.01652 0.52425 0.0
C203 C 0.07796 0.02596 0.43587 0.0
C204 C 0.0955 0.02637 0.4689 0.0
C205 C 0.09499 0.02151 0.52971 0.0
C206 C 0.07711 0.01664 0.55722 0.0
C207 C 0.11436 0.03142 0.43905 0.0
C208 C 0.12998 0.01801 0.44149 0.0
C209 C 0.11644 0.04861 0.40455 0.0
C210 C 0.1009 0.06392 0.40291 0.0
C211 C 0.09324 0.07179 0.45598 0.0
C212 C 0.07844 0.086 0.45399 0.0
C213 C 0.07132 0.09263 0.39918 0.0
C214 C 0.07901 0.08508 0.34629 0.0
C215 C 0.0937 0.07078 0.348 0.0
H216 H 0.0599 0.10367 0.39765 0.0
H217 H 0.20604 0.96853 0.42691 0.0
H218 H 0.51871 0.18583 0.34186 0.0
H219 H 0.50737 0.16166 0.41432 0.0
H220 H 0.56753 0.15172 0.46948 0.0
H221 H 0.57887 0.17626 0.39854 0.0
H222 H 0.51367 0.12482 0.41912 0.0
H223 H 0.57021 0.13713 0.61141 0.0
H224 H 0.58765 0.1645 0.65899 0.0
H225 H 0.54251 0.20403 0.60017 0.0
H226 H 0.52466 0.17688 0.55296 0.0
H227 H 0.52424 0.03937 0.57688 0.0
H228 H 0.53234 0.07 0.52752 0.0
H229 H 0.50388 0.10193 0.66911 0.0
H230 H 0.49633 0.07106 0.72021 0.0
H231 H 0.53606 0.12104 0.6293 0.0
H232 H 0.47907 0.09263 0.54295 0.0
H233 H 0.45991 0.06534 0.50161 0.0
H234 H 0.50017 0.06122 0.35445 0.0
H235 H 0.51993 0.08812 0.39573 0.0
C236 C 0.5295 0.17862 0.36984 0.0
C237 C 0.54969 0.18295 0.36449 0.0
C238 C 0.523 0.1648 0.41121 0.0
C239 C 0.53655 0.15501 0.44788 0.0
C240 C 0.55672 0.15939 0.44272 0.0
C241 C 0.56321 0.17333 0.4018 0.0
C242 C 0.52983 0.13932 0.48877 0.0
C243 C 0.51845 0.12412 0.46518 0.0
C244 C 0.53563 0.13857 0.54937 0.0
C245 C 0.54618 0.15496 0.57824 0.0
C246 C 0.56395 0.15164 0.60888 0.0
C247 C 0.57392 0.16712 0.63574 0.0
C248 C 0.56622 0.18599 0.63247 0.0
C249 C 0.5485 0.18942 0.60249 0.0
C250 C 0.53846 0.17399 0.5756 0.0
C251 C 0.5199 0.05293 0.59787 0.0
C252 C 0.5094 0.05293 0.65183 0.0
C253 C 0.5245 0.0704 0.56959 0.0
C254 C 0.51822 0.08819 0.59383 0.0
C255 C 0.50871 0.08832 0.64948 0.0
C256 C 0.5044 0.07075 0.67855 0.0
C257 C 0.52063 0.10636 0.55877 0.0
C258 C 0.53111 0.12197 0.58345 0.0
C259 C 0.51352 0.10779 0.49961 0.0
C260 C 0.50109 0.0923 0.47279 0.0
C261 C 0.48389 0.08586 0.50188 0.0
C262 C 0.47296 0.07041 0.47858 0.0
C263 C 0.47895 0.0614 0.42585 0.0
C264 C 0.49565 0.06809 0.39561 0.0
C265 C 0.50673 0.08345 0.41894 0.0
H266 H 0.47065 0.04923 0.40847 0.0
H267 H 0.57396 0.19796 0.65326 0.0
H268 H 0.32245 0.44357 0.20504 0.0
H269 H 0.34963 0.44817 0.27496 0.0
H270 H 0.32727 0.50536 0.31855 0.0
H271 H 0.30068 0.50117 0.2464 0.0
H272 H 0.36435 0.5077 0.31061 0.0
H273 H 0.32175 0.46393 0.41329 0.0
H274 H 0.30122 0.4347 0.42829 0.0
H275 H 0.3521 0.39813 0.40522 0.0
H276 H 0.3729 0.42714 0.38926 0.0
H277 H 0.42539 0.51345 0.57399 0.0
H278 H 0.39512 0.50931 0.51527 0.0
H279 H 0.42329 0.464 0.41299 0.0
H280 H 0.4537 0.46847 0.46982 0.0
H281 H 0.38183 0.45676 0.45866 0.0
H282 H 0.42324 0.50284 0.35003 0.0
H283 H 0.44211 0.53321 0.33624 0.0
H284 H 0.39056 0.56691 0.37845 0.0
H285 H 0.37147 0.53671 0.39359 0.0
C286 C 0.3234 0.45714 0.22942 0.0
C287 C 0.30947 0.47201 0.22033 0.0
C288 C 0.33883 0.4597 0.2698 0.0
C289 C 0.34029 0.47695 0.30315 0.0
C290 C 0.32647 0.49189 0.29355 0.0
C291 C 0.31128 0.4895 0.25227 0.0
C292 C 0.3565 0.47962 0.34689 0.0
C293 C 0.36787 0.49668 0.34366 0.0
C294 C 0.3613 0.46522 0.38989 0.0
C295 C 0.34886 0.44772 0.39958 0.0
C296 C 0.32854 0.44965 0.411 0.0
C297 C 0.31686 0.43312 0.41973 0.0
C298 C 0.32534 0.41457 0.41758 0.0
C299 C 0.34554 0.41251 0.40682 0.0
C300 C 0.35729 0.42899 0.39799 0.0
C301 C 0.42502 0.50247 0.53941 0.0
C302 C 0.44188 0.49133 0.52622 0.0
C303 C 0.4078 0.50018 0.50591 0.0
C304 C 0.40711 0.48641 0.45986 0.0
C305 C 0.42361 0.47469 0.44843 0.0
C306 C 0.44094 0.47729 0.48082 0.0
C307 C 0.38952 0.48467 0.42166 0.0
C308 C 0.37798 0.4678 0.42599 0.0
C309 C 0.38429 0.49941 0.38058 0.0
C310 C 0.396 0.51751 0.37369 0.0
C311 C 0.41601 0.51671 0.3573 0.0
C312 C 0.42672 0.5339 0.34894 0.0
C313 C 0.41752 0.55197 0.35631 0.0
C314 C 0.39765 0.5529 0.37267 0.0
C315 C 0.38689 0.53576 0.38119 0.0
H316 H 0.42576 0.56525 0.34917 0.0
H317 H 0.31627 0.40179 0.42435 0.0
H318 H 0.9841 0.33686 0.30362 0.0
H319 H 0.99228 0.36232 0.37508 0.0
H320 H 0.94113 0.34714 0.47996 0.0
H321 H 0.93253 0.32199 0.40756 0.0
H322 H 0.9424 0.38451 0.46563 0.0
H323 H 0.98913 0.33709 0.52816 0.0
H324 H 0.01565 0.3127 0.51783 0.0
H325 H 0.05467 0.35669 0.4498 0.0
H326 H 0.02831 0.38131 0.4589 0.0
H327 H 0.97193 0.45415 0.68679 0.0
H328 H 0.96298 0.42341 0.63843 0.0
H329 H 0.00887 0.4323 0.50788 0.0
H330 H 0.01797 0.46279 0.55588 0.0
H331 H 0.00911 0.39542 0.54939 0.0
H332 H 0.9597 0.44037 0.46871 0.0
H333 H 0.93175 0.46342 0.47026 0.0
H334 H 0.89784 0.42309 0.57485 0.0
H335 H 0.92547 0.39963 0.57284 0.0
C336 C 0.97468 0.33882 0.34214 0.0
C337 C 0.95763 0.32746 0.34983 0.0
C338 C 0.97946 0.3533 0.38327 0.0
C339 C 0.96747 0.35648 0.43343 0.0
C340 C 0.95062 0.34492 0.4417 0.0
C341 C 0.94572 0.33056 0.40026 0.0
C342 C 0.97177 0.37281 0.47467 0.0
C343 C 0.95688 0.38663 0.48508 0.0
C344 C 0.99073 0.37579 0.49935 0.0
C345 C 0.00667 0.36103 0.49384 0.0
C346 C 0.00332 0.34154 0.51058 0.0
C347 C 0.01833 0.32768 0.50501 0.0
C348 C 0.03682 0.33313 0.48307 0.0
C349 C 0.04034 0.35248 0.46677 0.0
C350 C 0.02537 0.3664 0.4722 0.0
C351 C 0.98013 0.44952 0.64787 0.0
C352 C 0.99562 0.46096 0.62506 0.0
C353 C 0.97493 0.43202 0.62012 0.0
C354 C 0.98517 0.42566 0.56929 0.0
C355 C 0.00078 0.43693 0.54705 0.0
C356 C 0.00591 0.4544 0.57448 0.0
C357 C 0.97986 0.40724 0.53893 0.0
C358 C 0.99455 0.39304 0.53075 0.0
C359 C 0.96071 0.40381 0.51658 0.0
C360 C 0.94469 0.41839 0.52125 0.0
C361 C 0.94637 0.43655 0.49268 0.0
C362 C 0.93055 0.44964 0.49339 0.0
C363 C 0.91308 0.44478 0.52299 0.0
C364 C 0.91139 0.42685 0.55205 0.0
C365 C 0.92708 0.41362 0.55093 0.0
H366 H 0.90076 0.45481 0.523 0.0
H367 H 0.04842 0.32238 0.4788 0.0
H368 H 0.83005 0.92325 0.91136 0.0
H369 H 0.85778 0.92894 0.84347 0.0
H370 H 0.84427 0.99036 0.84054 0.0
H371 H 0.81669 0.98487 0.90904 0.0
H372 H 0.85313 0.97328 0.72529 0.0
H373 H 0.87876 0.97647 0.92698 0.0
H374 H 0.88535 0.96386 0.02796 0.0
H375 H 0.91689 0.91529 0.95389 0.0
H376 H 0.91016 0.92741 0.85241 0.0
H377 H 0.94283 0.01402 0.61754 0.0
H378 H 0.91206 0.0052 0.66739 0.0
H379 H 0.9358 0.9482 0.70693 0.0
H380 H 0.96697 0.95738 0.66012 0.0
H381 H 0.9208 0.96196 0.80133 0.0
H382 H 0.89719 0.9571 0.60142 0.0
H383 H 0.89098 0.96787 0.49828 0.0
H384 H 0.85612 0.01569 0.56276 0.0
H385 H 0.86233 0.00535 0.66637 0.0
C386 C 0.83289 0.93795 0.89591 0.0
C387 C 0.82127 0.95364 0.91578 0.0
C388 C 0.84873 0.94116 0.85723 0.0
C389 C 0.85306 0.96007 0.83732 0.0
C390 C 0.84111 0.97566 0.85544 0.0
C391 C 0.82544 0.97251 0.89476 0.0
C392 C 0.87062 0.96375 0.7998 0.0
C393 C 0.86798 0.97088 0.74173 0.0
C394 C 0.88989 0.96009 0.82099 0.0
C395 C 0.89372 0.95271 0.88208 0.0
C396 C 0.88688 0.96297 0.9322 0.0
C397 C 0.89069 0.95593 0.98954 0.0
C398 C 0.90146 0.93874 0.99734 0.0
C399 C 0.90848 0.92856 0.9478 0.0
C400 C 0.90468 0.93551 0.89037 0.0
C401 C 0.94137 -0.00048 0.63614 0.0
C402 C 0.95731 0.98641 0.63515 0.0
C403 C 0.92371 0.99443 0.66438 0.0
C404 C 0.92148 0.97595 0.69065 0.0
C405 C 0.93717 0.96258 0.68741 0.0
C406 C 0.95496 0.96782 0.66044 0.0
C407 C 0.90352 0.97107 0.72571 0.0
C408 C 0.90604 0.96393 0.78387 0.0
C409 C 0.88417 0.97429 0.70396 0.0
C410 C 0.88037 0.98054 0.6417 0.0
C411 C 0.88832 0.96999 0.59363 0.0
C412 C 0.88478 0.97601 0.53507 0.0
C413 C 0.8732 0.99248 0.52398 0.0
C414 C 0.8651 0.00295 0.57142 0.0
C415 C 0.8686 0.997 0.63008 0.0
H416 H 0.87048 0.99712 0.47861 0.0
H417 H 0.90442 0.93334 0.04178 0.0
H418 H 0.46991 0.81775 0.04511 0.0
H419 H 0.46721 0.84513 0.97605 0.0
H420 H 0.5206 0.82656 0.88768 0.0
H421 H 0.5238 0.79958 0.95826 0.0
H422 H 0.52277 0.86283 0.90459 0.0
H423 H 0.47369 0.82254 0.82114 0.0
H424 H 0.44459 0.80107 0.81853 0.0
H425 H 0.40806 0.84788 0.88151 0.0
H426 H 0.437 0.86957 0.88535 0.0
H427 H 0.47982 0.93663 0.67581 0.0
H428 H 0.48191 0.90299 0.71294 0.0
H429 H 0.49345 0.92443 0.88986 0.0
H430 H 0.49096 0.95785 0.85393 0.0
H431 H 0.46069 0.88335 0.80564 0.0
H432 H 0.53317 0.89617 0.9425 0.0
H433 H 0.56433 0.91442 0.9337 0.0
H434 H 0.55644 0.9188 0.74443 0.0
H435 H 0.52555 0.90009 0.75178 0.0
C436 C 0.48101 0.81943 0.01072 0.0
C437 C 0.49712 0.80659 0.00727 0.0
C438 C 0.47935 0.835 0.97087 0.0
C439 C 0.49354 0.83779 0.92599 0.0
C440 C 0.50946 0.82473 0.92186 0.0
C441 C 0.51128 0.80933 0.96226 0.0
C442 C 0.49256 0.85515 0.88648 0.0
C443 C 0.50922 0.86721 0.88269 0.0
C444 C 0.47507 0.86061 0.85619 0.0
C445 C 0.45757 0.84765 0.85387 0.0
C446 C 0.45948 0.82822 0.83484 0.0
C447 C 0.44301 0.81601 0.83307 0.0
C448 C 0.42449 0.82309 0.84993 0.0
C449 C 0.42241 0.84241 0.86847 0.0
C450 C 0.43885 0.85468 0.87036 0.0
C451 C 0.48259 0.93415 0.72273 0.0
C452 C 0.4854 0.94992 0.7618 0.0
C453 C 0.48378 0.91497 0.74377 0.0
C454 C 0.48811 0.91132 0.80386 0.0
C455 C 0.49035 0.92699 0.84314 0.0
C456 C 0.48887 0.94609 0.82246 0.0
C457 C 0.49061 0.89122 0.82638 0.0
C458 C 0.47426 0.87873 0.82703 0.0
C459 C 0.50856 0.88507 0.85237 0.0
C460 C 0.52688 0.89686 0.84783 0.0
C461 C 0.53809 0.90097 0.89896 0.0
C462 C 0.55576 0.91134 0.89419 0.0
C463 C 0.56238 0.91773 0.83852 0.0
C464 C 0.5513 0.91384 0.78753 0.0
C465 C 0.53368 0.90337 0.79199 0.0
H466 H 0.57606 0.92576 0.83494 0.0
H467 H 0.41175 0.81362 0.84854 0.0
H468 H 0.67809 0.55137 0.95343 0.0
H469 H 0.65272 0.5348 0.89516 0.0
H470 H 0.64154 0.58799 0.79787 0.0
H471 H 0.66722 0.60446 0.85473 0.0
H472 H 0.61506 0.5404 0.88818 0.0
H473 H 0.6265 0.57883 0.65878 0.0
H474 H 0.65387 0.59194 0.59837 0.0
H475 H 0.69457 0.55385 0.68766 0.0
H476 H 0.66742 0.54031 0.74801 0.0
H477 H 0.52833 0.53751 0.72379 0.0
H478 H 0.55882 0.54751 0.772 0.0
H479 H 0.59226 0.51133 0.6514 0.0
H480 H 0.56162 0.50178 0.60119 0.0
H481 H 0.61077 0.54436 0.66782 0.0
H482 H 0.58281 0.49665 0.79692 0.0
H483 H 0.55629 0.48107 0.85533 0.0
H484 H 0.55157 0.53205 0.96502 0.0
H485 H 0.57785 0.54804 0.9068 0.0
C486 C 0.6703 0.5595 0.91938 0.0
C487 C 0.67468 0.57922 0.90861 0.0
C488 C 0.6558 0.55002 0.88614 0.0
C489 C 0.64539 0.56006 0.84159 0.0
C490 C 0.64967 0.57979 0.83105 0.0
C491 C 0.66427 0.58924 0.8639 0.0
C492 C 0.62943 0.55023 0.80789 0.0
C493 C 0.61421 0.54115 0.83998 0.0
C494 C 0.62852 0.55075 0.74488 0.0
C495 C 0.64492 0.55867 0.70826 0.0
C496 C 0.64127 0.57318 0.66532 0.0
C497 C 0.65675 0.5807 0.63113 0.0
C498 C 0.67595 0.57377 0.63928 0.0
C499 C 0.6797 0.55926 0.68153 0.0
C500 C 0.66428 0.55167 0.7158 0.0
C501 C 0.54217 0.53168 0.70742 0.0
C502 C 0.54261 0.51873 0.65906 0.0
C503 C 0.55959 0.53734 0.73523 0.0
C504 C 0.5778 0.52979 0.7163 0.0
C505 C 0.57836 0.51722 0.667 0.0
C506 C 0.56088 0.51178 0.6384 0.0
C507 C 0.59613 0.53518 0.74831 0.0
C508 C 0.61177 0.54339 0.71595 0.0
C509 C 0.59769 0.5334 0.81101 0.0
C510 C 0.58224 0.52359 0.84724 0.0
C511 C 0.57607 0.50456 0.83338 0.0
C512 C 0.56107 0.49566 0.86644 0.0
C513 C 0.55222 0.5056 0.91372 0.0
C514 C 0.55844 0.52439 0.92834 0.0
C515 C 0.57341 0.53336 0.8954 0.0
H516 H 0.54053 0.49877 0.93906 0.0
H517 H 0.68792 0.57962 0.61279 0.0
H518 H 0.98951 0.70549 0.96953 0.0
H519 H 0.00031 0.67756 0.91008 0.0
H520 H 0.94539 0.6789 0.81345 0.0
H521 H 0.93451 0.70688 0.87232 0.0
H522 H 0.9549 0.64252 0.8617 0.0
H523 H 0.98575 0.69274 0.74449 0.0
H524 H 0.007 0.72139 0.72816 0.0
H525 H 0.05716 0.68927 0.7918 0.0
H526 H 0.03614 0.6605 0.80934 0.0
H527 H 0.97371 0.56825 0.66048 0.0
H528 H 0.96692 0.60096 0.69753 0.0
H529 H 0.02539 0.60361 0.77286 0.0
H530 H 0.03249 0.57094 0.73385 0.0
H531 H 0.0147 0.63864 0.73452 0.0
H532 H 0.98548 0.58968 0.85712 0.0
H533 H 0.9651 0.56139 0.88544 0.0
H534 H 0.91317 0.5908 0.82275 0.0
H535 H 0.93328 0.61919 0.79313 0.0
C536 C 0.9798 0.69993 0.93529 0.0
C537 C 0.96111 0.70831 0.92578 0.0
C538 C 0.98604 0.68407 0.90116 0.0
C539 C 0.97368 0.67627 0.85723 0.0
C540 C 0.95515 0.68477 0.84707 0.0
C541 C 0.94897 0.70075 0.88073 0.0
C542 C 0.97941 0.65837 0.82489 0.0
C543 C 0.96776 0.64174 0.83295 0.0
C544 C 0.99665 0.65726 0.78951 0.0
C545 C 0.00933 0.67452 0.77877 0.0
C546 C 0.00128 0.69183 0.7555 0.0
C547 C 0.01329 0.70809 0.74592 0.0
C548 C 0.03341 0.70717 0.75908 0.0
C549 C 0.04157 0.68997 0.7817 0.0
C550 C 0.02962 0.67368 0.79141 0.0
C551 C 0.98525 0.57596 0.68397 0.0
C552 C 0.00354 0.56702 0.695 0.0
C553 C 0.98132 0.59461 0.70535 0.0
C554 C 0.99543 0.60449 0.7395 0.0
C555 C 0.01423 0.59617 0.74701 0.0
C556 C 0.0183 0.57755 0.72464 0.0
C557 C 0.98999 0.62278 0.77063 0.0
C558 C 0.00174 0.63944 0.76278 0.0
C559 C 0.97296 0.62389 0.8072 0.0
C560 C 0.96093 0.60651 0.82247 0.0
C561 C 0.96976 0.59003 0.84865 0.0
C562 C 0.95825 0.574 0.86508 0.0
C563 C 0.93787 0.57436 0.85605 0.0
C564 C 0.92897 0.5906 0.8298 0.0
C565 C 0.94041 0.60665 0.81317 0.0
H566 H 0.92896 0.56212 0.86989 0.0
H567 H 0.04269 0.71976 0.75163 0.0
H568 H 0.93785 0.2155 0.26194 0.0
H569 H 0.94482 0.18317 0.3031 0.0
H570 H 0.00729 0.1945 0.29038 0.0
H571 H 0.00034 0.22673 0.24847 0.0
H572 H -2e-05 0.15775 0.26112 0.0
H573 H 0.98215 0.19999 0.42242 0.0
H574 H 0.96131 0.22343 0.477 0.0
H575 H 0.91428 0.18163 0.48352 0.0
H576 H 0.93477 0.15802 0.42824 0.0
H577 H 0.03229 0.08874 0.47823 0.0
H578 H 0.02473 0.11916 0.42607 0.0
H579 H 0.96327 0.10319 0.41925 0.0
H580 H 0.97068 0.07267 0.47129 0.0
H581 H 0.96981 0.1416 0.45665 0.0
H582 H 0.99037 0.09823 0.30136 0.0
H583 H 0.01288 0.0753 0.25122 0.0
H584 H 0.0569 0.12 0.23764 0.0
H585 H 0.03485 0.1431 0.28919 0.0
C586 C 0.95306 0.21098 0.26742 0.0
C587 C 0.96856 0.22351 0.25152 0.0
C588 C 0.95703 0.19255 0.29105 0.0
C589 C 0.97659 0.18651 0.30063 0.0
C590 C 0.9921 0.19881 0.28319 0.0
C591 C 0.98812 0.21718 0.25895 0.0
C592 C 0.98083 0.1678 0.33141 0.0
C593 C 0.99356 0.15431 0.30417 0.0
C594 C 0.97225 0.16318 0.38726 0.0
C595 C 0.95992 0.17732 0.42066 0.0
C596 C 0.96731 0.19585 0.4351 0.0
C597 C 0.95557 0.20916 0.46622 0.0
C598 C 0.93646 0.20405 0.48357 0.0
C599 C 0.92907 0.18559 0.46997 0.0
C600 C 0.94075 0.17223 0.43878 0.0
C601 C 0.01717 0.09167 0.46551 0.0
C602 C 0.00209 0.07826 0.47858 0.0
C603 C 0.01289 0.10903 0.43565 0.0
C604 C 0.99347 0.11331 0.41847 0.0
C605 C 0.97835 0.1001 0.43211 0.0
C606 C 0.98263 0.08266 0.46159 0.0
C607 C 0.98892 0.13162 0.3864 0.0
C608 C 0.97616 0.14503 0.4135 0.0
C609 C 0.99772 0.13625 0.33095 0.0
C610 C 0.011 0.12237 0.29974 0.0
C611 C 0.00495 0.10312 0.28846 0.0
C612 C 0.01762 0.09008 0.25973 0.0
C613 C 0.03632 0.09618 0.24135 0.0
C614 C 0.0424 0.11531 0.25187 0.0
C615 C 0.02983 0.12837 0.28094 0.0
H616 H 0.04607 0.08609 0.21884 0.0
H617 H 0.9274 0.21437 0.50766 0.0
H618 H 0.30177 0.02386 0.22373 0.0
H619 H 0.33147 0.0153 0.27948 0.0
H620 H 0.33256 0.07284 0.35642 0.0
H621 H 0.30302 0.08164 0.30012 0.0
H622 H 0.36862 0.06187 0.31548 0.0
H623 H 0.3171 0.03393 0.43721 0.0
H624 H 0.28807 0.01326 0.45688 0.0
H625 H 0.32078 0.96255 0.40377 0.0
H626 H 0.34994 0.98296 0.38301 0.0
H627 H 0.43088 0.0514 0.56239 0.0
H628 H 0.40369 0.05631 0.49349 0.0
H629 H 0.40924 0.99689 0.43335 0.0
H630 H 0.43663 0.99174 0.50307 0.0
H631 H 0.37122 0.00642 0.45758 0.0
H632 H 0.42248 0.03348 0.33579 0.0
H633 H 0.45159 0.05368 0.31279 0.0
H634 H 0.41996 0.10508 0.36569 0.0
H635 H 0.39053 0.0852 0.38796 0.0
C636 C 0.30824 0.03467 0.25278 0.0
C637 C 0.29999 0.05344 0.25757 0.0
C638 C 0.3252 0.02973 0.28471 0.0
C639 C 0.33413 0.0434 0.32236 0.0
C640 C 0.32589 0.06209 0.32752 0.0
C641 C 0.30895 0.06706 0.29555 0.0
C642 C 0.35227 0.03838 0.35579 0.0
C643 C 0.36913 0.04986 0.34697 0.0
C644 C 0.35312 0.02229 0.39528 0.0
C645 C 0.33563 0.01 0.40794 0.0
C646 C 0.31805 0.01839 0.42926 0.0
C647 C 0.30158 0.00672 0.44069 0.0
C648 C 0.30256 0.98661 0.43141 0.0
C649 C 0.32003 0.97813 0.41084 0.0
C650 C 0.33654 0.98974 0.39928 0.0
C651 C 0.42656 0.0394 0.53402 0.0
C652 C 0.43603 0.0212 0.53789 0.0
C653 C 0.41102 0.04227 0.49444 0.0
C654 C 0.40463 0.02706 0.45762 0.0
C655 C 0.41404 0.00885 0.46118 0.0
C656 C 0.42967 0.00594 0.50091 0.0
C657 C 0.38745 0.03011 0.41795 0.0
C658 C 0.37077 0.01829 0.42557 0.0
C659 C 0.38676 0.04581 0.3771 0.0
C660 C 0.40437 0.05784 0.36389 0.0
C661 C 0.42177 0.04908 0.3427 0.0
C662 C 0.43829 0.06048 0.32958 0.0
C663 C 0.43768 0.08063 0.33818 0.0
C664 C 0.42044 0.08946 0.35917 0.0
C665 C 0.40378 0.07815 0.37165 0.0
H666 H 0.45055 0.0894 0.32843 0.0
H667 H 0.2898 0.9776 0.44029 0.0
H668 H 0.51375 0.28315 0.25824 0.0
H669 H 0.50715 0.31599 0.29466 0.0
H670 H 0.56974 0.32718 0.30313 0.0
H671 H 0.57634 0.29405 0.26799 0.0
H672 H 0.55424 0.33823 0.40059 0.0
H673 H 0.53722 0.35291 0.19593 0.0
H674 H 0.52053 0.35102 0.09861 0.0
H675 H 0.46407 0.35201 0.18549 0.0
H676 H 0.48044 0.35441 0.28328 0.0
H677 H 0.53874 0.43939 0.46933 0.0
H678 H 0.54845 0.4093 0.41814 0.0
H679 H 0.48852 0.38855 0.42895 0.0
H680 H 0.47872 0.41841 0.4798 0.0
H681 H 0.50463 0.38398 0.31776 0.0
H682 H 0.52208 0.37096 0.52191 0.0
H683 H 0.53887 0.3775 0.61714 0.0
H684 H 0.59515 0.37427 0.52967 0.0
H685 H 0.57866 0.368 0.43367 0.0
C686 C 0.52608 0.2928 0.26627 0.0
C687 C 0.54555 0.28617 0.25943 0.0
C688 C 0.5223 0.31162 0.28711 0.0
C689 C 0.53793 0.32428 0.30077 0.0
C690 C 0.55741 0.31775 0.2928 0.0
C691 C 0.56118 0.29883 0.2727 0.0
C692 C 0.53398 0.34361 0.32825 0.0
C693 C 0.54368 0.34838 0.38164 0.0
C694 C 0.51984 0.35674 0.30484 0.0
C695 C 0.51004 0.35364 0.24678 0.0
C696 C 0.52125 0.35245 0.19425 0.0
C697 C 0.51184 0.35139 0.139 0.0
C698 C 0.49125 0.35125 0.13588 0.0
C699 C 0.48002 0.35209 0.18799 0.0
C700 C 0.48934 0.35341 0.24327 0.0
C701 C 0.52765 0.42843 0.46058 0.0
C702 C 0.50798 0.43125 0.47861 0.0
C703 C 0.53323 0.41124 0.43167 0.0
C704 C 0.51921 0.39668 0.42022 0.0
C705 C 0.49955 0.39961 0.43746 0.0
C706 C 0.494 0.41667 0.46663 0.0
C707 C 0.52481 0.37841 0.38962 0.0
C708 C 0.51536 0.37386 0.33603 0.0
C709 C 0.5392 0.36555 0.41277 0.0
C710 C 0.54913 0.36924 0.47049 0.0
C711 C 0.53803 0.37182 0.52287 0.0
C712 C 0.54749 0.37544 0.57701 0.0
C713 C 0.56806 0.37636 0.57942 0.0
C714 C 0.57922 0.37359 0.52772 0.0
C715 C 0.56982 0.36999 0.47344 0.0
H716 H 0.57537 0.37916 0.62138 0.0
H717 H 0.48394 0.3507 0.09317 0.0
H718 H 0.20747 0.48765 0.23116 0.0
H719 H 0.18061 0.49511 0.2997 0.0
H720 H 0.18291 0.43639 0.36848 0.0
H721 H 0.21024 0.42892 0.30098 0.0
H722 H 0.14489 0.48022 0.30528 0.0
H723 H 0.16824 0.43623 0.51441 0.0
H724 H 0.19867 0.42548 0.56502 0.0
H725 H 0.23034 0.47352 0.48816 0.0
H726 H 0.20006 0.4847 0.4378 0.0
H727 H 0.08184 0.459 0.5855 0.0
H728 H 0.11041 0.45289 0.52199 0.0
H729 H 0.11005 0.513 0.46547 0.0
H730 H 0.08136 0.5193 0.52911 0.0
H731 H 0.14731 0.46903 0.52358 0.0
H732 H 0.12432 0.51358 0.31606 0.0
H733 H 0.09405 0.52462 0.26519 0.0
H734 H 0.06211 0.47625 0.33891 0.0
H735 H 0.09224 0.46475 0.38943 0.0
C736 C 0.20241 0.47634 0.26121 0.0
C737 C 0.21105 0.45769 0.26077 0.0
C738 C 0.187 0.48063 0.30023 0.0
C739 C 0.17983 0.46637 0.33945 0.0
C740 C 0.18842 0.44772 0.33926 0.0
C741 C 0.20399 0.44345 0.30052 0.0
C742 C 0.16293 0.47089 0.37903 0.0
C743 C 0.14553 0.47806 0.35315 0.0
C744 C 0.16364 0.46765 0.44128 0.0
C745 C 0.18192 0.46116 0.47179 0.0
C746 C 0.18169 0.44453 0.50846 0.0
C747 C 0.19891 0.43836 0.53709 0.0
C748 C 0.21644 0.44877 0.52963 0.0
C749 C 0.21677 0.46542 0.49369 0.0
C750 C 0.19958 0.47166 0.46502 0.0
C751 C 0.08782 0.47096 0.55964 0.0
C752 C 0.07933 0.48964 0.56227 0.0
C753 C 0.10419 0.46743 0.52351 0.0
C754 C 0.11224 0.48245 0.48884 0.0
C755 C 0.1039 0.50117 0.49151 0.0
C756 C 0.08755 0.50474 0.52794 0.0
C757 C 0.12936 0.47841 0.44978 0.0
C758 C 0.14676 0.47128 0.47575 0.0
C759 C 0.1287 0.48177 0.38764 0.0
C760 C 0.11048 0.48847 0.35719 0.0
C761 C 0.11084 0.50528 0.32132 0.0
C762 C 0.09371 0.51162 0.29252 0.0
C763 C 0.07615 0.50119 0.29903 0.0
C764 C 0.0757 0.48436 0.33415 0.0
C765 C 0.09279 0.47795 0.36296 0.0
H766 H 0.0629 0.50613 0.27673 0.0
H767 H 0.22976 0.44396 0.5518 0.0
H768 H 0.00538 0.79074 0.93036 0.0
H769 H 0.02039 0.82123 0.89815 0.0
H770 H 0.98322 0.85293 0.02108 0.0
H771 H 0.96694 0.82237 0.04905 0.0
H772 H 0.98181 0.87076 0.92749 0.0
H773 H 0.03872 0.84838 0.0327 0.0
H774 H 0.06534 0.82608 0.06459 0.0
H775 H 0.08537 0.8209 0.88417 0.0
H776 H 0.0591 0.84325 0.85089 0.0
H777 H 0.02482 0.95444 0.79308 0.0
H778 H 0.02083 0.93079 0.87431 0.0
H779 H 0.03785 0.88435 0.75559 0.0
H780 H 0.04181 0.90777 0.67454 0.0
H781 H 0.0521 0.87925 0.87213 0.0
H782 H 0.99058 0.89667 0.7693 0.0
H783 H 0.96493 0.92012 0.73824 0.0
H784 H 0.95404 0.9349 0.92112 0.0
H785 H 0.97987 0.91176 0.95321 0.0
C786 C 0.00059 0.80424 0.95081 0.0
C787 C 0.98502 0.80431 0.99189 0.0
C788 C 0.0094 0.8217 0.93313 0.0
C789 C 0.00336 0.83956 0.95801 0.0
C790 C 0.98821 0.83945 0.00097 0.0
C791 C 0.97888 0.82203 0.01693 0.0
C792 C 0.01104 0.85832 0.93362 0.0
C793 C 0.99732 0.87275 0.91724 0.0
C794 C 0.03124 0.86115 0.91934 0.0
C795 C 0.04688 0.84748 0.93929 0.0
C796 C 0.04873 0.84242 -0.00024 0.0
C797 C 0.06376 0.82979 0.01811 0.0
C798 C 0.07691 0.82201 0.97652 0.0
C799 C 0.07517 0.82693 0.91638 0.0
C800 C 0.06029 0.83966 0.89777 0.0
C801 C 0.02823 0.93926 0.78477 0.0
C802 C 0.03341 0.9329 0.72728 0.0
C803 C 0.02588 0.92578 0.83116 0.0
C804 C 0.02883 0.90582 0.82069 0.0
C805 C 0.0355 0.89969 0.76459 0.0
C806 C 0.03766 0.91308 0.71822 0.0
C807 C 0.02278 0.89093 0.86496 0.0
C808 C 0.03677 0.87734 0.88471 0.0
C809 C 0.0029 0.88892 0.88294 0.0
C810 C 0.98734 0.90272 0.86356 0.0
C811 C 0.98284 0.90505 0.80283 0.0
C812 C 0.96826 0.91826 0.78506 0.0
C813 C 0.95794 0.92903 0.8277 0.0
C814 C 0.9621 0.92658 0.88819 0.0
C815 C 0.97672 0.91344 0.90618 0.0
H816 H 0.94668 0.93922 0.81388 0.0
H817 H 0.0885 0.81222 0.99094 0.0
H818 H 0.70599 0.93264 0.9895 0.0
H819 H 0.67106 0.93741 0.9648 0.0
H820 H 0.67546 0.99792 0.01509 0.0
H821 H 0.71026 0.99314 0.03998 0.0
H822 H 0.64319 0.98139 0.06308 0.0
H823 H 0.67353 0.98447 0.86952 0.0
H824 H 0.69415 0.97289 0.78619 0.0
H825 H 0.6578 0.92201 0.76936 0.0
H826 H 0.63712 0.93317 0.85317 0.0
H827 H 0.55881 0.01619 0.88542 0.0
H828 H 0.59055 0.01098 0.93555 0.0
H829 H 0.5808 0.94896 0.93343 0.0
H830 H 0.54889 0.95403 0.88527 0.0
H831 H 0.61507 0.96557 0.86533 0.0
H832 H 0.58342 0.96352 0.0547 0.0
H833 H 0.56386 0.97389 0.14159 0.0
H834 H 0.60298 0.02216 0.16908 0.0
H835 H 0.62252 0.01238 0.08137 0.0
C836 C 0.69948 0.94696 0.99476 0.0
C837 C 0.71062 0.96245 0.01759 0.0
C838 C 0.67957 0.94968 0.98072 0.0
C839 C 0.67066 0.96803 0.98823 0.0
C840 C 0.68198 0.98361 0.00953 0.0
C841 C 0.70181 0.98086 0.02389 0.0
C842 C 0.64949 0.97098 0.97463 0.0
C843 C 0.63705 0.97821 0.01961 0.0
C844 C 0.64146 0.96631 0.91837 0.0
C845 C 0.65391 0.95955 0.86805 0.0
C846 C 0.67004 0.97073 0.8484 0.0
C847 C 0.68172 0.96426 0.80101 0.0
C848 C 0.67732 0.94669 0.77261 0.0
C849 C 0.66121 0.93559 0.79146 0.0
C850 C 0.6495 0.94199 0.83888 0.0
C851 C 0.56315 0.00149 0.89732 0.0
C852 C 0.55159 0.98545 0.88021 0.0
C853 C 0.58124 0.99856 0.92608 0.0
C854 C 0.58796 0.97958 0.93785 0.0
C855 C 0.5758 0.96369 0.92466 0.0
C856 C 0.55768 0.96661 0.89672 0.0
C857 C 0.6088 0.9761 0.95367 0.0
C858 C 0.6212 0.96879 0.90886 0.0
C859 C 0.61673 0.98075 0.01006 0.0
C860 C 0.60423 0.98742 0.06048 0.0
C861 C 0.58761 0.97661 0.07829 0.0
C862 C 0.57658 0.98232 0.128 0.0
C863 C 0.5821 0.99874 0.16064 0.0
C864 C 0.59864 0.00951 0.14355 0.0
C865 C 0.60968 0.00391 0.09376 0.0
H866 H 0.57363 0.00304 0.19936 0.0
H867 H 0.68638 0.94171 0.73591 0.0
H868 H 0.50142 0.69212 0.05887 0.0
H869 H 0.49922 0.66391 0.99336 0.0
H870 H 0.45824 0.69506 0.88078 0.0
H871 H 0.45953 0.72297 0.94857 0.0
H872 H 0.44689 0.65957 0.88789 0.0
H873 H 0.50928 0.68955 0.84563 0.0
H874 H 0.54196 0.70319 0.86964 0.0
H875 H 0.56034 0.64786 0.94022 0.0
H876 H 0.52769 0.63396 0.91722 0.0
H877 H 0.50109 0.5946 0.64898 0.0
H878 H 0.49722 0.62403 0.70808 0.0
H879 H 0.45764 0.59361 0.82687 0.0
H880 H 0.46083 0.56418 0.76589 0.0
H881 H 0.5088 0.6297 0.81327 0.0
H882 H 0.42904 0.62397 0.90083 0.0
H883 H 0.3959 0.61406 0.86717 0.0
H884 H 0.41192 0.62671 0.68621 0.0
H885 H 0.44533 0.63624 0.71852 0.0
C886 C 0.49197 0.69295 0.02008 0.0
C887 C 0.48081 0.70978 0.0083 0.0
C888 C 0.49076 0.67684 0.98254 0.0
C889 C 0.47891 0.67749 0.93127 0.0
C890 C 0.46752 0.69422 0.91995 0.0
C891 C 0.46834 0.71018 0.95845 0.0
C892 C 0.47866 0.66084 0.88911 0.0
C893 C 0.46043 0.65306 0.87144 0.0
C894 C 0.49628 0.6525 0.86677 0.0
C895 C 0.516 0.66076 0.88011 0.0
C896 C 0.52027 0.68033 0.86653 0.0
C897 C 0.53878 0.6881 0.87993 0.0
C898 C 0.5532 0.67641 0.90655 0.0
C899 C 0.54915 0.6569 0.91965 0.0
C900 C 0.53066 0.64906 0.90636 0.0
C901 C 0.49139 0.5942 0.68735 0.0
C902 C 0.48137 0.57704 0.70313 0.0
C903 C 0.48917 0.61107 0.7211 0.0
C904 C 0.47716 0.6111 0.77205 0.0
C905 C 0.46673 0.59409 0.7872 0.0
C906 C 0.46866 0.57723 0.7526 0.0
C907 C 0.47701 0.62844 0.81156 0.0
C908 C 0.49522 0.63624 0.82931 0.0
C909 C 0.45938 0.63716 0.83231 0.0
C910 C 0.43969 0.63064 0.81208 0.0
C911 C 0.42552 0.62448 0.85379 0.0
C912 C 0.40674 0.61886 0.83491 0.0
C913 C 0.40189 0.61957 0.77447 0.0
C914 C 0.41583 0.62585 0.7328 0.0
C915 C 0.43472 0.63127 0.75134 0.0
H916 H 0.38729 0.61536 0.75996 0.0
H917 H 0.56752 0.68246 0.91693 0.0
H918 H 0.79535 0.57782 0.06383 0.0
H919 H 0.82643 0.56556 0.0238 0.0
H920 H 0.80488 0.57474 0.84509 0.0
H921 H 0.77321 0.58557 0.88515 0.0
H922 H 0.82208 0.54216 0.84632 0.0
H923 H 0.84066 0.60525 0.91963 0.0
H924 H 0.84399 0.63155 0.99367 0.0
H925 H 0.87879 0.59399 0.10515 0.0
H926 H 0.87549 0.5674 0.03203 0.0
H927 H 0.9139 0.55047 0.69497 0.0
H928 H 0.88358 0.55862 0.74775 0.0
H929 H 0.90153 0.52266 0.89578 0.0
H930 H 0.93207 0.51401 0.84255 0.0
H931 H 0.88718 0.56582 0.91613 0.0
H932 H 0.87029 0.50367 0.83055 0.0
H933 H 0.86834 0.48013 0.74804 0.0
H934 H 0.83054 0.5191 0.65113 0.0
H935 H 0.83284 0.54323 0.73215 0.0
C936 C 0.797 0.57663 0.0161 0.0
C937 C 0.78155 0.58193 0.97771 0.0
C938 C 0.81498 0.57005 0.99314 0.0
C939 C 0.81809 0.56917 0.93132 0.0
C940 C 0.80284 0.57506 0.89296 0.0
C941 C 0.78478 0.58138 0.9159 0.0
C942 C 0.83701 0.56173 0.90637 0.0
C943 C 0.83626 0.54751 0.86142 0.0
C944 C 0.85565 0.56833 0.92667 0.0
C945 C 0.85766 0.58429 0.97065 0.0
C946 C 0.84891 0.60257 0.96013 0.0
C947 C 0.85081 0.61753 0.00189 0.0
C948 C 0.86155 0.61443 0.05416 0.0
C949 C 0.87046 0.59637 0.06469 0.0
C950 C 0.8686 0.58136 0.02308 0.0
C951 C 0.91148 0.54423 0.73873 0.0
C952 C 0.92541 0.53162 0.76476 0.0
C953 C 0.89412 0.5489 0.76868 0.0
C954 C 0.89042 0.54122 0.82538 0.0
C955 C 0.90424 0.52868 0.85189 0.0
C956 C 0.92158 0.52374 0.82146 0.0
C957 C 0.87202 0.54655 0.85638 0.0
C958 C 0.87291 0.56039 0.90201 0.0
C959 C 0.85353 0.53994 0.83587 0.0
C960 C 0.85192 0.52537 0.78726 0.0
C961 C 0.86178 0.50736 0.79133 0.0
C962 C 0.86062 0.49391 0.74479 0.0
C963 C 0.84943 0.49818 0.6942 0.0
C964 C 0.83931 0.51588 0.69018 0.0
C965 C 0.84056 0.52946 0.73638 0.0
H966 H 0.84853 0.48775 0.65822 0.0
H967 H 0.863 0.62603 0.08644 0.0
H968 H 0.96691 0.17008 0.04779 0.0
H969 H 0.97262 0.14139 0.98653 0.0
H970 H 0.03395 0.15697 0.96812 0.0
H971 H 0.02826 0.18613 0.02888 0.0
H972 H 0.01787 0.14522 0.86239 0.0
H973 H 0.02031 0.12206 0.06164 0.0
H974 H 0.00803 0.11946 0.16433 0.0
H975 H 0.95688 0.08868 0.10308 0.0
H976 H 0.9683 0.09206 0.99928 0.0
H977 H 0.0308 0.0549 0.71371 0.0
H978 H 0.0361 0.07898 0.79249 0.0
H979 H 0.97434 0.07639 0.83839 0.0
H980 H 0.96897 0.05229 0.76051 0.0
H981 H 0.99747 0.08015 0.93711 0.0
H982 H 0.99081 0.11012 0.74177 0.0
H983 H 0.0004 0.11493 0.6367 0.0
H984 H 0.05831 0.13271 0.69131 0.0
H985 H 0.04914 0.1277 0.79672 0.0
C986 C 0.98164 0.16745 0.03088 0.0
C987 C 0.99716 0.18034 0.0435 0.0
C988 C 0.98489 0.15099 0.99594 0.0
C989 C 0.00377 0.14689 0.97354 0.0
C990 C 0.01928 0.15985 0.98523 0.0
C991 C 0.01602 0.17644 0.02008 0.0
C992 C 0.00708 0.129 0.93795 0.0
C993 C 0.01386 0.13093 0.87917 0.0
C994 C 0.00162 0.11038 0.95975 0.0
C995 C 0.99514 0.10743 0.02243 0.0
C996 C 0.00639 0.11482 0.0699 0.0
C997 C 0.99955 0.11323 0.12841 0.0
C998 C 0.98174 0.10379 0.1404 0.0
C999 C 0.97069 0.09596 0.09376 0.0
C1000 C 0.9773 0.09779 0.03498 0.0
C1001 C 0.01844 0.05916 0.74144 0.0
C1002 C 0.9994 0.0519 0.73042 0.0
C1003 C 0.02149 0.07296 0.78627 0.0
C1004 C 0.00555 0.07967 0.82062 0.0
C1005 C 0.98684 0.07144 0.8123 0.0
C1006 C 0.98377 0.05773 0.76753 0.0
C1007 C 0.0077 0.0965 0.86126 0.0
C1008 C 0.00195 0.09438 0.92095 0.0
C1009 C 0.01397 0.11496 0.84026 0.0
C1010 C 0.01937 0.11831 0.77702 0.0
C1011 C 0.00563 0.11494 0.73132 0.0
C1012 C 0.01098 0.11771 0.67173 0.0
C1013 C 0.02997 0.12406 0.65733 0.0
C1014 C 0.04362 0.12774 0.70252 0.0
C1015 C 0.03835 0.12494 0.76219 0.0
H1016 H 0.03409 0.12617 0.61116 0.0
H1017 H 0.97646 0.10258 0.18576 0.0
H1018 H 0.28462 0.05754 0.99341 0.0
H1019 H 0.3116 0.0436 0.93502 0.0
H1020 H 0.34594 0.09566 0.96211 0.0
H1021 H 0.31906 0.10973 0.0209 0.0
H1022 H 0.34969 0.07924 0.84548 0.0
H1023 H 0.35367 0.06039 0.05221 0.0
H1024 H 0.34106 0.04669 0.14653 0.0
H1025 H 0.33115 0.99168 0.061 0.0
H1026 H 0.34338 0.00515 0.96589 0.0
H1027 H 0.44438 0.03981 0.78758 0.0
H1028 H 0.41704 0.05555 0.84011 0.0
H1029 H 0.38297 0.00269 0.82758 0.0
H1030 H 0.41023 0.98679 0.77546 0.0
H1031 H 0.3792 0.02002 0.93675 0.0
H1032 H 0.37507 0.03823 0.73074 0.0
H1033 H 0.38803 0.05123 0.63598 0.0
H1034 H 0.39796 0.10676 0.71838 0.0
H1035 H 0.38539 0.09397 0.81399 0.0
C1036 C 0.29771 0.06623 0.98585 0.0
C1037 C 0.2998 0.08467 0.01233 0.0
C1038 C 0.31314 0.0582 0.95267 0.0
C1039 C 0.33083 0.06851 0.94514 0.0
C1040 C 0.33241 0.08748 0.96769 0.0
C1041 C 0.31705 0.09546 0.00134 0.0
C1042 C 0.34823 0.05885 0.91841 0.0
C1043 C 0.3563 0.06642 0.86567 0.0
C1044 C 0.3566 0.04197 0.9445 0.0
C1045 C 0.34926 0.03384 0.00175 0.0
C1046 C 0.34863 0.04543 0.05336 0.0
C1047 C 0.34157 0.0377 0.107 0.0
C1048 C 0.33528 0.01834 0.1097 0.0
C1049 C 0.33602 0.00668 0.0588 0.0
C1050 C 0.34301 0.01435 0.00503 0.0
C1051 C 0.43118 0.03145 0.79672 0.0
C1052 C 0.4294 0.01209 0.777 0.0
C1053 C 0.41554 0.0405 0.82644 0.0
C1054 C 0.3979 0.03035 0.83689 0.0
C1055 C 0.39644 0.01078 0.81973 0.0
C1056 C 0.41202 0.00174 0.78983 0.0
C1057 C 0.38066 0.04033 0.86362 0.0
C1058 C 0.37261 0.03284 0.91647 0.0
C1059 C 0.37228 0.05722 0.83745 0.0
C1060 C 0.37947 0.06508 0.77971 0.0
C1061 C 0.38014 0.05318 0.72878 0.0
C1062 C 0.3874 0.06051 0.6749 0.0
C1063 C 0.39385 0.0798 0.67121 0.0
C1064 C 0.39298 0.09181 0.72134 0.0
C1065 C 0.38578 0.08453 0.77539 0.0
H1066 H 0.39949 0.08544 0.62947 0.0
H1067 H 0.3299 0.01234 0.15126 0.0
H1068 H 0.48499 0.31629 0.02376 0.0
H1069 H 0.47978 0.34551 0.96285 0.0
H1070 H 0.54274 0.35212 0.94332 0.0
H1071 H 0.54806 0.32322 0.00448 0.0
H1072 H 0.52565 0.38573 0.97646 0.0
H1073 H 0.51364 0.3355 0.82923 0.0
H1074 H 0.49686 0.30657 0.7887 0.0
H1075 H 0.44129 0.33659 0.79594 0.0
H1076 H 0.45773 0.36564 0.83724 0.0
H1077 H 0.54194 0.44651 0.73052 0.0
H1078 H 0.53916 0.42097 0.80538 0.0
H1079 H 0.47568 0.42494 0.79756 0.0
H1080 H 0.47836 0.45041 0.72126 0.0
H1081 H 0.48766 0.38802 0.78792 0.0
H1082 H 0.5007 0.43995 0.92207 0.0
H1083 H 0.51767 0.46889 0.9617 0.0
H1084 H 0.57129 0.43601 0.97915 0.0
H1085 H 0.55472 0.40692 0.93895 0.0
C1086 C 0.49771 0.32387 0.00591 0.0
C1087 C 0.51694 0.31754 0.01933 0.0
C1088 C 0.4947 0.34053 0.97106 0.0
C1089 C 0.51088 0.35102 0.94876 0.0
C1090 C 0.53005 0.34434 0.96054 0.0
C1091 C 0.53306 0.32773 0.99523 0.0
C1092 C 0.5081 0.36929 0.9145 0.0
C1093 C 0.51746 0.38623 0.93499 0.0
C1094 C 0.49674 0.3701 0.86176 0.0
C1095 C 0.48687 0.35264 0.83699 0.0
C1096 C 0.49782 0.33587 0.82267 0.0
C1097 C 0.48837 0.31947 0.79945 0.0
C1098 C 0.46801 0.31972 0.78994 0.0
C1099 C 0.45705 0.3364 0.80346 0.0
C1100 C 0.46643 0.35284 0.82673 0.0
C1101 C 0.52737 0.44218 0.74522 0.0
C1102 C 0.51036 0.45041 0.71973 0.0
C1103 C 0.5258 0.42763 0.78838 0.0
C1104 C 0.50721 0.42115 0.80746 0.0
C1105 C 0.49017 0.42977 0.78352 0.0
C1106 C 0.49173 0.44436 0.74015 0.0
C1107 C 0.50581 0.40432 0.84878 0.0
C1108 C 0.49559 0.38767 0.82985 0.0
C1109 C 0.51641 0.40377 0.903 0.0
C1110 C 0.52646 0.42126 0.92721 0.0
C1111 C 0.51614 0.43892 0.93396 0.0
C1112 C 0.52569 0.45535 0.95661 0.0
C1113 C 0.54555 0.45429 0.97291 0.0
C1114 C 0.5559 0.4368 0.96657 0.0
C1115 C 0.54643 0.42033 0.94396 0.0
H1116 H 0.55292 0.467 0.99057 0.0
H1117 H 0.46073 0.30701 0.77195 0.0
H1118 H 0.21509 0.46055 0.0112 0.0
H1119 H 0.18548 0.47382 0.96398 0.0
H1120 H 0.1575 0.41756 0.97548 0.0
H1121 H 0.18698 0.40417 0.02381 0.0
H1122 H 0.15267 0.43861 0.86257 0.0
H1123 H 0.14516 0.44687 0.07422 0.0
H1124 H 0.1553 0.45735 0.17466 0.0
H1125 H 0.15836 0.5167 0.1146 0.0
H1126 H 0.14862 0.50655 0.01349 0.0
H1127 H 0.05691 0.47247 0.79613 0.0
H1128 H 0.08339 0.45653 0.8519 0.0
H1129 H 0.11268 0.51183 0.87291 0.0
H1130 H 0.08623 0.52792 0.81768 0.0
H1131 H 0.11576 0.48962 0.97299 0.0
H1132 H 0.12646 0.48234 0.76275 0.0
H1133 H 0.11836 0.47313 0.65956 0.0
H1134 H 0.11096 0.41355 0.71397 0.0
H1135 H 0.11884 0.42246 0.81771 0.0
C1136 C 0.20279 0.45089 0.00274 0.0
C1137 C 0.20332 0.43131 0.02135 0.0
C1138 C 0.18586 0.45853 0.97615 0.0
C1139 C 0.1693 0.44669 0.96708 0.0
C1140 C 0.17015 0.4269 0.98249 0.0
C1141 C 0.18698 0.4193 0.00998 0.0
C1142 C 0.15087 0.45523 0.94355 0.0
C1143 C 0.14437 0.44951 0.88704 0.0
C1144 C 0.14042 0.46978 0.9752 0.0
C1145 C 0.14634 0.47591 0.03604 0.0
C1146 C 0.1482 0.46213 0.08222 0.0
C1147 C 0.15384 0.46802 0.13933 0.0
C1148 C 0.15749 0.48767 0.15095 0.0
C1149 C 0.15554 0.50148 0.10551 0.0
C1150 C 0.14995 0.49567 0.04829 0.0
C1151 C 0.06877 0.48132 0.81369 0.0
C1152 C 0.06958 0.50144 0.80198 0.0
C1153 C 0.08394 0.47216 0.84523 0.0
C1154 C 0.10015 0.48296 0.86555 0.0
C1155 C 0.10034 0.50322 0.85735 0.0
C1156 C 0.08522 0.51238 0.82568 0.0
C1157 C 0.11753 0.47305 0.89176 0.0
C1158 C 0.1239 0.47855 0.94874 0.0
C1159 C 0.12801 0.45846 0.86027 0.0
C1160 C 0.123 0.4531 0.79811 0.0
C1161 C 0.12291 0.46731 0.75282 0.0
C1162 C 0.1184 0.46213 0.6942 0.0
C1163 C 0.11409 0.44277 0.68025 0.0
C1164 C 0.11427 0.42855 0.72488 0.0
C1165 C 0.11877 0.43365 0.78358 0.0
H1166 H 0.11068 0.43876 0.63483 0.0
H1167 H 0.16177 0.49222 0.1952 0.0
H1168 H 0.99646 0.83678 0.14628 0.0
H1169 H 0.0056 0.86602 0.20105 0.0
H1170 H 0.06514 0.84445 0.21866 0.0
H1171 H 0.05586 0.81473 0.1646 0.0
H1172 H 0.05057 0.85757 0.32331 0.0
H1173 H 0.05626 0.88222 0.12685 0.0
H1174 H 0.0463 0.88784 0.02267 0.0
H1175 H 0.99551 0.91986 0.08184 0.0
H1176 H 0.00507 0.91433 0.18655 0.0
H1177 H 0.07341 0.94568 0.47009 0.0
H1178 H 0.07501 0.92204 0.38881 0.0
H1179 H 0.0125 0.92865 0.35953 0.0
H1180 H 0.01072 0.95226 0.44078 0.0
H1181 H 0.03493 0.92439 0.25225 0.0
H1182 H 0.02661 0.894 0.4466 0.0
H1183 H 0.03614 0.88786 0.55097 0.0
H1184 H 0.0923 0.86585 0.49302 0.0
H1185 H 0.08321 0.8722 0.38828 0.0
C1186 C 0.01151 0.83827 0.16176 0.0
C1187 C 0.02551 0.82359 0.15106 0.0
C1188 C 0.01677 0.85507 0.19246 0.0
C1189 C 0.03614 0.85755 0.213 0.0
C1190 C 0.05017 0.84287 0.20261 0.0
C1191 C 0.0449 0.826 0.17164 0.0
C1192 C 0.04112 0.87498 0.2486 0.0
C1193 C 0.04767 0.87222 0.30722 0.0
C1194 C 0.03702 0.89405 0.22774 0.0
C1195 C 0.03137 0.8978 0.16473 0.0
C1196 C 0.04292 0.8904 0.11774 0.0
C1197 C 0.03734 0.89356 0.05855 0.0
C1198 C 0.02026 0.90415 0.04566 0.0
C1199 C 0.00875 0.91166 0.09193 0.0
C1200 C 0.01428 0.90857 0.15124 0.0
C1201 C 0.06005 0.94235 0.44575 0.0
C1202 C 0.04187 0.9506 0.46243 0.0
C1203 C 0.06102 0.92889 0.39926 0.0
C1204 C 0.04385 0.92353 0.3686 0.0
C1205 C 0.02592 0.93265 0.38263 0.0
C1206 C 0.02491 0.94601 0.42937 0.0
C1207 C 0.04403 0.90685 0.327 0.0
C1208 C 0.03834 0.90977 0.26755 0.0
C1209 C 0.04898 0.88788 0.34687 0.0
C1210 C 0.05434 0.8838 0.40972 0.0
C1211 C 0.04105 0.888 0.45616 0.0
C1212 C 0.04636 0.88446 0.51536 0.0
C1213 C 0.06484 0.87652 0.52862 0.0
C1214 C 0.07801 0.87204 0.48268 0.0
C1215 C 0.07279 0.87561 0.4234 0.0
H1216 H 0.06892 0.87379 0.57448 0.0
H1217 H 0.01599 0.9066 -0.00017 0.0
H1218 H 0.6733 0.0083 0.28004 0.0
H1219 H 0.64759 0.01181 0.35524 0.0
H1220 H 0.61059 0.97171 0.25893 0.0
H1221 H 0.63624 0.96828 0.18255 0.0
H1222 H 0.58905 0.00187 0.31383 0.0
H1223 H 0.6373 0.95394 0.36694 0.0
H1224 H 0.67087 0.94098 0.38222 0.0
H1225 H 0.68188 0.98485 0.51412 0.0
H1226 H 0.64847 0.99826 0.49895 0.0
H1227 H 0.53297 0.98071 0.58047 0.0
H1228 H 0.55281 0.97673 0.48975 0.0
H1229 H 0.59678 0.01554 0.56127 0.0
H1230 H 0.57726 0.01947 0.65163 0.0
H1231 H 0.61288 0.98261 0.51457 0.0
H1232 H 0.56394 0.03076 0.45918 0.0
H1233 H 0.52977 0.04228 0.4456 0.0
H1234 H 0.51933 0.99674 0.31868 0.0
H1235 H 0.55334 0.98469 0.33238 0.0
C1236 C 0.65961 0.00043 0.2742 0.0
C1237 C 0.65702 0.98763 0.22608 0.0
C1238 C 0.64492 0.00247 0.31726 0.0
C1239 C 0.62742 0.99165 0.31335 0.0
C1240 C 0.6241 0.98002 0.26304 0.0
C1241 C 0.63882 0.978 0.21968 0.0
C1242 C 0.6137 0.99112 0.36476 0.0
C1243 C 0.59413 0.99743 0.35761 0.0
C1244 C 0.62037 0.98531 0.42182 0.0
C1245 C 0.64044 0.9772 0.43144 0.0
C1246 C 0.64693 0.96091 0.39889 0.0
C1247 C 0.66592 0.95347 0.40757 0.0
C1248 C 0.67851 0.96211 0.44902 0.0
C1249 C 0.67212 0.97818 0.48199 0.0
C1250 C 0.65315 0.98569 0.4734 0.0
C1251 C 0.54693 0.98828 0.57692 0.0
C1252 C 0.55358 0.00037 0.62325 0.0
C1253 C 0.55816 0.9861 0.52497 0.0
C1254 C 0.57618 0.99597 0.51868 0.0
C1255 C 0.58291 0.0078 0.56523 0.0
C1256 C 0.57171 0.01004 0.61686 0.0
C1257 C 0.58838 0.99391 0.46425 0.0
C1258 C 0.6077 0.98698 0.47079 0.0
C1259 C 0.58137 0.99904 0.40687 0.0
C1260 C 0.56111 0.00665 0.39742 0.0
C1261 C 0.55432 0.02311 0.4287 0.0
C1262 C 0.53498 0.02975 0.42095 0.0
C1263 C 0.52236 0.02019 0.3815 0.0
C1264 C 0.52911 0.00408 0.34937 0.0
C1265 C 0.54841 0.99734 0.35711 0.0
H1266 H 0.50736 0.02525 0.37576 0.0
H1267 H 0.69321 0.95633 0.45569 0.0
H1268 H 0.51224 0.70895 0.28625 0.0
H1269 H 0.51194 0.67658 0.33158 0.0
H1270 H 0.44847 0.67517 0.319 0.0
H1271 H 0.44858 0.70767 0.27438 0.0
H1272 H 0.46053 0.65892 0.42078 0.0
H1273 H 0.47587 0.65286 0.2146 0.0
H1274 H 0.49356 0.65974 0.12091 0.0
H1275 H 0.54754 0.63903 0.19854 0.0
H1276 H 0.53018 0.6322 0.29303 0.0
H1277 H 0.44593 0.55959 0.45146 0.0
H1278 H 0.44837 0.5901 0.3959 0.0
H1279 H 0.51078 0.59238 0.43191 0.0
H1280 H 0.50855 0.56154 0.48663 0.0
H1281 H 0.49964 0.60785 0.31746 0.0
H1282 H 0.4808 0.61382 0.52713 0.0
H1283 H 0.45955 0.60365 0.61099 0.0
H1284 H 0.40827 0.62299 0.51593 0.0
H1285 H 0.42912 0.63304 0.43109 0.0
C1286 C 0.49818 0.70192 0.29407 0.0
C1287 C 0.48044 0.7108 0.27609 0.0
C1288 C 0.49805 0.68337 0.31963 0.0
C1289 C 0.48022 0.67332 0.32734 0.0
C1290 C 0.4624 0.68264 0.31302 0.0
C1291 C 0.4625 0.70123 0.28757 0.0
C1292 C 0.48021 0.65278 0.34771 0.0
C1293 C 0.46899 0.64777 0.39794 0.0
C1294 C 0.49124 0.63819 0.31783 0.0
C1295 C 0.50177 0.64222 0.26111 0.0
C1296 C 0.49155 0.64992 0.21187 0.0
C1297 C 0.50151 0.65379 0.15858 0.0
C1298 C 0.52168 0.6499 0.15383 0.0
C1299 C 0.53192 0.64207 0.20232 0.0
C1300 C 0.52202 0.63817 0.25575 0.0
C1301 C 0.46029 0.56624 0.44593 0.0
C1302 C 0.47699 0.55832 0.47395 0.0
C1303 C 0.46165 0.58368 0.4143 0.0
C1304 C 0.47966 0.59364 0.411 0.0
C1305 C 0.49673 0.58492 0.43427 0.0
C1306 C 0.49542 0.56731 0.46553 0.0
C1307 C 0.48008 0.61413 0.39052 0.0
C1308 C 0.49136 0.6191 0.34043 0.0
C1309 C 0.46879 0.62864 0.41973 0.0
C1310 C 0.4565 0.62407 0.47265 0.0
C1311 C 0.465 0.61597 0.52421 0.0
C1312 C 0.45304 0.61019 0.57183 0.0
C1313 C 0.43262 0.61258 0.56862 0.0
C1314 C 0.4241 0.6211 0.51825 0.0
C1315 C 0.43598 0.62688 0.47043 0.0
H1316 H 0.42338 0.60772 0.60501 0.0
H1317 H 0.52937 0.65291 0.11252 0.0
H1318 H 0.84512 0.53365 0.14301 0.0
H1319 H 0.86915 0.52422 0.2186 0.0
H1320 H 0.82246 0.51918 0.34867 0.0
H1321 H 0.79841 0.52932 0.2736 0.0
H1322 H 0.8517 0.5378 0.39539 0.0
H1323 H 0.84616 0.47844 0.28557 0.0
H1324 H 0.84604 0.45745 0.19655 0.0
H1325 H 0.90635 0.47258 0.16075 0.0
H1326 H 0.90675 0.49387 0.24915 0.0
H1327 H 0.90883 0.48861 0.61322 0.0
H1328 H 0.88458 0.49399 0.53443 0.0
H1329 H 0.93092 0.51236 0.41511 0.0
H1330 H 0.95533 0.50734 0.49434 0.0
H1331 H 0.90187 0.48605 0.36435 0.0
H1332 H 0.90665 0.5451 0.47861 0.0
H1333 H 0.90629 0.56411 0.57159 0.0
H1334 H 0.84585 0.54832 0.60138 0.0
H1335 H 0.84607 0.52844 0.50991 0.0
C1336 C 0.83993 0.53034 0.18756 0.0
C1337 C 0.81987 0.53218 0.20235 0.0
C1338 C 0.85369 0.52488 0.23073 0.0
C1339 C 0.84761 0.52073 0.28923 0.0
C1340 C 0.82752 0.52231 0.30386 0.0
C1341 C 0.81378 0.52804 0.26089 0.0
C1342 C 0.86228 0.51551 0.33568 0.0
C1343 C 0.86244 0.52627 0.38887 0.0
C1344 C 0.87659 0.50071 0.32685 0.0
C1345 C 0.87642 0.4879 0.27369 0.0
C1346 C 0.85935 0.47741 0.25846 0.0
C1347 C 0.85924 0.46544 0.20816 0.0
C1348 C 0.87616 0.46372 0.17293 0.0
C1349 C 0.89324 0.47394 0.18804 0.0
C1350 C 0.89343 0.48595 0.23827 0.0
C1351 C 0.91391 0.49356 0.57 0.0
C1352 C 0.93396 0.49754 0.55973 0.0
C1353 C 0.90003 0.4967 0.5252 0.0
C1354 C 0.90601 0.50362 0.46925 0.0
C1355 C 0.92609 0.50695 0.4581 0.0
C1356 C 0.93997 0.50415 0.5033 0.0
C1357 C 0.89114 0.50832 0.42344 0.0
C1358 C 0.89101 0.4975 0.37059 0.0
C1359 C 0.87672 0.5229 0.43287 0.0
C1360 C 0.87647 0.53503 0.48767 0.0
C1361 C 0.89336 0.54541 0.50539 0.0
C1362 C 0.89319 0.55632 0.55792 0.0
C1363 C 0.8761 0.55727 0.59265 0.0
C1364 C 0.85913 0.54737 0.57478 0.0
C1365 C 0.85928 0.53624 0.52264 0.0
H1366 H 0.87598 0.56577 0.63321 0.0
H1367 H 0.87605 0.45445 0.13401 0.0
loop_
_geom_bond_atom_site_label_1
_geom_bond_atom_site_label_2
_geom_bond_distance
_geom_bond_site_symmetry_2
_ccdc_geom_bond_type
O0 Cd1 2.300 1_556 S
O0 C7 1.275 . S
Cd1 O0 2.300 1_554 S
Cd1 O9 2.381 1_554 S
Cd1 O10 2.378 . S
O2 Cd3 2.385 . S
O2 C7 1.255 1_554 S
Cd3 O2 2.385 . S
Cd3 O4 2.317 . S
O4 Cd3 2.317 . S
O4 C5 1.232 . S
C5 O4 1.232 . S
C5 O6 1.218 . S
O6 C5 1.218 . S
C7 O0 1.275 . S
C7 O2 1.255 1_556 S
C8 O9 1.258 . S
C8 O10 1.256 1_556 S
O9 Cd1 2.381 1_556 S
O9 C8 1.258 . S
O10 Cd1 2.378 . S
O10 C8 1.256 1_554 S
O11 Cd12 2.300 1_656 S
O11 C18 1.275 1_655 S
Cd12 O11 2.300 1_454 S
Cd12 O20 2.381 1_454 S
Cd12 O21 2.378 . S
O13 Cd14 2.385 . S
O13 C18 1.255 1_554 S
Cd14 O13 2.385 . S
Cd14 O15 2.317 . S
O15 Cd14 2.317 . S
O15 C16 1.232 . S
C16 O15 1.232 . S
C16 O17 1.218 . S
O17 C16 1.218 . S
C18 O11 1.275 1_455 S
C18 O13 1.255 1_556 S
C19 O20 1.258 1_455 S
C19 O21 1.256 1_556 S
O20 Cd12 2.381 1_656 S
O20 C19 1.258 1_655 S
O21 Cd12 2.378 . S
O21 C19 1.256 1_554 S
O22 Cd23 2.300 1_556 S
O22 C29 1.275 . S
Cd23 O22 2.300 1_554 S
Cd23 O31 2.381 1_554 S
Cd23 O32 2.378 . S
O24 Cd25 2.385 . S
O24 C29 1.255 1_554 S
Cd25 O24 2.385 . S
Cd25 O26 2.317 . S
O26 Cd25 2.317 . S
O26 C27 1.232 . S
C27 O26 1.232 . S
C27 O28 1.218 . S
O28 C27 1.218 . S
C29 O22 1.275 . S
C29 O24 1.255 1_556 S
C30 O31 1.258 . S
C30 O32 1.256 1_556 S
O31 Cd23 2.381 1_556 S
O31 C30 1.258 . S
O32 Cd23 2.378 . S
O32 C30 1.256 1_554 S
O33 Cd34 2.300 1_556 S
O33 C40 1.275 . S
Cd34 O33 2.300 1_554 S
Cd34 O42 2.381 1_554 S
Cd34 O43 2.378 . S
O35 Cd36 2.385 . S
O35 C40 1.255 1_554 S
Cd36 O35 2.385 . S
Cd36 O37 2.317 . S
O37 Cd36 2.317 . S
O37 C38 1.232 . S
C38 O37 1.232 . S
C38 O39 1.218 . S
O39 C38 1.218 . S
C40 O33 1.275 . S
C40 O35 1.255 1_556 S
C41 O42 1.258 . S
C41 O43 1.256 1_556 S
O42 Cd34 2.381 1_556 S
O42 C41 1.258 . S
O43 Cd34 2.378 . S
O43 C41 1.256 1_554 S
O44 Cd45 2.300 . S
O44 C51 1.275 . S
Cd45 O44 2.300 . S
Cd45 O53 2.381 . S
Cd45 O54 2.378 . S
O46 Cd47 2.385 . S
O46 C51 1.255 . S
Cd47 O46 2.385 . S
Cd47 O48 2.317 . S
O48 Cd47 2.317 . S
O48 C49 1.232 . S
C49 O48 1.232 . S
C49 O50 1.218 . S
O50 C49 1.218 . S
C51 O44 1.275 . S
C51 O46 1.255 . S
C52 O53 1.258 . S
C52 O54 1.256 . S
O53 Cd45 2.381 . S
O53 C52 1.258 . S
O54 Cd45 2.378 . S
O54 C52 1.256 . S
O55 Cd56 2.300 1_655 S
O55 C62 1.275 1_655 S
Cd56 O55 2.300 1_455 S
Cd56 O64 2.381 1_455 S
Cd56 O65 2.378 . S
O57 Cd58 2.385 . S
O57 C62 1.255 . S
Cd58 O57 2.385 . S
Cd58 O59 2.317 . S
O59 Cd58 2.317 . S
O59 C60 1.232 . S
C60 O59 1.232 . S
C60 O61 1.218 . S
O61 C60 1.218 . S
C62 O55 1.275 1_455 S
C62 O57 1.255 . S
C63 O64 1.258 1_455 S
C63 O65 1.256 . S
O64 Cd56 2.381 1_655 S
O64 C63 1.258 1_655 S
O65 Cd56 2.378 . S
O65 C63 1.256 . S
O66 Cd67 2.300 . S
O66 C73 1.275 . S
Cd67 O66 2.300 . S
Cd67 O75 2.381 . S
Cd67 O76 2.378 . S
O68 Cd69 2.385 . S
O68 C73 1.255 . S
Cd69 O68 2.385 . S
Cd69 O70 2.317 . S
O70 Cd69 2.317 . S
O70 C71 1.232 . S
C71 O70 1.232 . S
C71 O72 1.218 . S
O72 C71 1.218 . S
C73 O66 1.275 . S
C73 O68 1.255 . S
C74 O75 1.258 . S
C74 O76 1.256 . S
O75 Cd67 2.381 . S
O75 C74 1.258 . S
O76 Cd67 2.378 . S
O76 C74 1.256 . S
O77 Cd78 2.300 . S
O77 C84 1.275 . S
Cd78 O77 2.300 . S
Cd78 O86 2.381 . S
Cd78 O87 2.378 . S
O79 Cd80 2.385 . S
O79 C84 1.255 . S
Cd80 O79 2.385 . S
Cd80 O81 2.317 . S
O81 Cd80 2.317 . S
O81 C82 1.232 . S
C82 O81 1.232 . S
C82 O83 1.218 . S
O83 C82 1.218 . S
C84 O77 1.275 . S
C84 O79 1.255 . S
C85 O86 1.258 . S
C85 O87 1.256 . S
O86 Cd78 2.381 . S
O86 C85 1.258 . S
O87 Cd78 2.378 . S
O87 C85 1.256 . S
Zn88 O94 1.969 . S
Zn88 O95 1.965 1_655 S
Zn88 O99 2.024 1_655 S
Zn88 O104 1.969 . S
Zn89 O96 1.969 . S
Zn89 O102 1.969 . S
Zn89 O103 1.965 1_455 S
Zn89 O105 2.024 1_455 S
C90 O91 1.229 1_455 S
C90 O99 1.058 . S
O91 C90 1.229 1_655 S
C92 O93 1.229 1_655 S
C92 O105 1.058 . S
O93 C92 1.229 1_455 S
O94 Zn88 1.969 . S
O94 C97 1.267 . S
O95 Zn88 1.965 1_455 S
O95 C106 1.260 . S
O96 Zn89 1.969 . S
O96 C106 1.258 1_565 S
C97 O94 1.267 . S
C97 O98 1.228 1_655 S
O98 C97 1.228 1_455 S
O99 Zn88 2.024 1_455 S
O99 C90 1.058 . S
C100 O101 1.228 1_455 S
C100 O102 1.267 . S
O101 C100 1.228 1_655 S
O102 Zn89 1.969 . S
O102 C100 1.267 . S
O103 Zn89 1.965 1_655 S
O103 C107 1.260 1_565 S
O104 Zn88 1.969 . S
O104 C107 1.258 . S
O105 Zn89 2.024 1_655 S
O105 C92 1.058 . S
C106 O95 1.260 . S
C106 O96 1.258 1_545 S
C107 O103 1.260 1_545 S
C107 O104 1.258 . S
Zn108 O114 1.969 . S
Zn108 O115 1.965 . S
Zn108 O119 2.024 . S
Zn108 O124 1.969 1_545 S
Zn109 O116 1.969 . S
Zn109 O122 1.969 . S
Zn109 O123 1.965 1_545 S
Zn109 O125 2.024 1_545 S
C110 O111 1.229 . S
C110 O119 1.058 . S
O111 C110 1.229 . S
C112 O113 1.229 1_565 S
C112 O125 1.058 . S
O113 C112 1.229 1_545 S
O114 Zn108 1.969 . S
O114 C117 1.267 . S
O115 Zn108 1.965 . S
O115 C126 1.260 . S
O116 Zn109 1.969 . S
O116 C126 1.258 . S
C117 O114 1.267 . S
C117 O118 1.228 . S
O118 C117 1.228 . S
O119 Zn108 2.024 . S
O119 C110 1.058 . S
C120 O121 1.225 . S
C120 O122 1.270 1_565 S
O121 C120 1.225 . S
O122 Zn109 1.969 . S
O122 C120 1.270 1_545 S
O123 Zn109 1.965 1_565 S
O123 C127 1.260 . S
O124 Zn108 1.969 1_565 S
O124 C127 1.258 . S
O125 Zn109 2.024 1_565 S
O125 C112 1.058 . S
C126 O115 1.260 . S
C126 O116 1.258 . S
C127 O123 1.260 . S
C127 O124 1.258 . S
Zn128 O134 1.969 . S
Zn128 O135 1.965 . S
Zn128 O139 2.024 . S
Zn128 O144 1.969 . S
Zn129 O136 1.969 . S
Zn129 O142 1.969 . S
Zn129 O143 1.965 . S
Zn129 O145 2.024 . S
C130 O131 1.229 . S
C130 O139 1.058 . S
O131 C130 1.229 . S
C132 O133 1.229 . S
C132 O145 1.058 . S
O133 C132 1.229 . S
O134 Zn128 1.969 . S
O134 C137 1.267 . S
O135 Zn128 1.965 . S
O135 C146 1.260 . S
O136 Zn129 1.969 . S
O136 C146 1.258 . S
C137 O134 1.267 . S
C137 O138 1.228 . S
O138 C137 1.228 . S
O139 Zn128 2.024 . S
O139 C130 1.058 . S
C140 O141 1.228 . S
C140 O142 1.267 . S
O141 C140 1.228 . S
O142 Zn129 1.969 . S
O142 C140 1.267 . S
O143 Zn129 1.965 . S
O143 C147 1.260 . S
O144 Zn128 1.969 . S
O144 C147 1.258 . S
O145 Zn129 2.024 . S
O145 C132 1.058 . S
C146 O135 1.260 . S
C146 O136 1.258 . S
C147 O143 1.260 . S
C147 O144 1.258 . S
Zn148 O154 1.969 . S
Zn148 O155 1.965 . S
Zn148 O159 2.024 . S
Zn148 O164 1.969 . S
Zn149 O156 1.969 . S
Zn149 O162 1.969 . S
Zn149 O163 1.965 . S
Zn149 O165 2.024 . S
C150 O151 1.229 . S
C150 O159 1.058 . S
O151 C150 1.229 . S
C152 O153 1.229 . S
C152 O165 1.058 . S
O153 C152 1.229 . S
O154 Zn148 1.969 . S
O154 C157 1.267 . S
O155 Zn148 1.965 . S
O155 C166 1.260 1_455 S
O156 Zn149 1.969 . S
O156 C166 1.258 . S
C157 O154 1.267 . S
C157 O158 1.228 . S
O158 C157 1.228 . S
O159 Zn148 2.024 . S
O159 C150 1.058 . S
C160 O161 1.228 . S
C160 O162 1.267 . S
O161 C160 1.228 . S
O162 Zn149 1.969 . S
O162 C160 1.267 . S
O163 Zn149 1.965 . S
O163 C167 1.260 1_655 S
O164 Zn148 1.969 . S
O164 C167 1.258 . S
O165 Zn149 2.024 . S
O165 C152 1.058 . S
C166 O155 1.260 1_655 S
C166 O156 1.258 . S
C167 O163 1.260 1_455 S
C167 O164 1.258 . S
H168 C186 0.951 . S
H169 C188 0.951 . S
H170 C190 0.950 . S
H171 C191 0.950 . S
H172 C193 0.950 . S
H173 C196 0.950 . S
H174 C197 0.950 . S
H175 C199 0.950 . S
H176 C200 0.950 . S
H177 C201 0.951 . S
H178 C203 0.951 . S
H179 C205 0.950 . S
H180 C206 0.950 . S
H181 C208 0.950 . S
H182 C211 0.950 . S
H183 C212 0.950 . S
H184 C214 0.950 . S
H185 C215 0.950 . S
C186 H168 0.951 . S
C186 C187 1.366 . S
C186 C188 1.388 . S
C187 C186 1.366 . S
C187 C191 1.385 . S
C188 H169 0.951 . S
C188 C186 1.388 . S
C188 C189 1.366 . S
C189 C188 1.366 . S
C189 C190 1.414 . S
C189 C192 1.499 . S
C190 H170 0.950 . S
C190 C189 1.414 . S
C190 C191 1.374 . S
C191 H171 0.950 . S
C191 C187 1.385 . S
C191 C190 1.374 . S
C192 C189 1.499 . S
C192 C193 1.373 . S
C192 C194 1.389 . S
C193 H172 0.950 . S
C193 C192 1.373 . S
C193 C209 1.377 . S
C194 C192 1.389 . S
C194 C195 1.524 . S
C194 C208 1.377 . S
C195 C194 1.524 . S
C195 C196 1.397 . S
C195 C200 1.363 . S
C196 H173 0.950 . S
C196 C195 1.397 . S
C196 C197 1.334 1_545 S
C197 H174 0.950 . S
C197 C196 1.334 1_565 S
C197 C198 1.287 . S
C198 C197 1.287 . S
C198 C199 1.524 . S
C198 H217 0.913 . S
C199 H175 0.950 . S
C199 C198 1.524 . S
C199 C200 1.415 1_565 S
C200 H176 0.950 . S
C200 C195 1.363 . S
C200 C199 1.415 1_545 S
C201 H177 0.951 . S
C201 C202 1.366 . S
C201 C203 1.388 . S
C202 C201 1.366 . S
C202 C206 1.385 . S
C203 H178 0.951 . S
C203 C201 1.388 . S
C203 C204 1.366 . S
C204 C203 1.366 . S
C204 C205 1.414 . S
C204 C207 1.499 . S
C205 H179 0.950 . S
C205 C204 1.414 . S
C205 C206 1.374 . S
C206 H180 0.950 . S
C206 C202 1.385 . S
C206 C205 1.374 . S
C207 C204 1.499 . S
C207 C208 1.373 . S
C207 C209 1.389 . S
C208 H181 0.950 . S
C208 C194 1.377 . S
C208 C207 1.373 . S
C209 C193 1.377 . S
C209 C207 1.389 . S
C209 C210 1.524 . S
C210 C209 1.524 . S
C210 C211 1.397 . S
C210 C215 1.363 . S
C211 H182 0.950 . S
C211 C210 1.397 . S
C211 C212 1.334 . S
C212 H183 0.950 . S
C212 C211 1.334 . S
C212 C213 1.287 . S
C213 C212 1.287 . S
C213 C214 1.524 . S
C213 H216 0.999 . S
C214 H184 0.950 . S
C214 C213 1.524 . S
C214 C215 1.415 . S
C215 H185 0.950 . S
C215 C210 1.363 . S
C215 C214 1.415 . S
H216 C213 0.999 . S
H217 C198 0.913 . S
H218 C236 0.951 . S
H219 C238 0.951 . S
H220 C240 0.950 . S
H221 C241 0.950 . S
H222 C243 0.950 . S
H223 C246 0.950 . S
H224 C247 0.950 . S
H225 C249 0.950 . S
H226 C250 0.950 . S
H227 C251 0.951 . S
H228 C253 0.951 . S
H229 C255 0.950 . S
H230 C256 0.950 . S
H231 C258 0.950 . S
H232 C261 0.950 . S
H233 C262 0.950 . S
H234 C264 0.950 . S
H235 C265 0.950 . S
C236 H218 0.951 . S
C236 C237 1.366 . S
C236 C238 1.388 . S
C237 C236 1.366 . S
C237 C241 1.385 . S
C238 H219 0.951 . S
C238 C236 1.388 . S
C238 C239 1.366 . S
C239 C238 1.366 . S
C239 C240 1.414 . S
C239 C242 1.499 . S
C240 H220 0.950 . S
C240 C239 1.414 . S
C240 C241 1.374 . S
C241 H221 0.950 . S
C241 C237 1.385 . S
C241 C240 1.374 . S
C242 C239 1.499 . S
C242 C243 1.373 . S
C242 C244 1.389 . S
C243 H222 0.950 . S
C243 C242 1.373 . S
C243 C259 1.377 . S
C244 C242 1.389 . S
C244 C245 1.524 . S
C244 C258 1.377 . S
C245 C244 1.524 . S
C245 C246 1.397 . S
C245 C250 1.363 . S
C246 H223 0.950 . S
C246 C245 1.397 . S
C246 C247 1.334 . S
C247 H224 0.950 . S
C247 C246 1.334 . S
C247 C248 1.287 . S
C248 C247 1.287 . S
C248 C249 1.524 . S
C248 H267 0.913 . S
C249 H225 0.950 . S
C249 C248 1.524 . S
C249 C250 1.415 . S
C250 H226 0.950 . S
C250 C245 1.363 . S
C250 C249 1.415 . S
C251 H227 0.951 . S
C251 C252 1.366 . S
C251 C253 1.388 . S
C252 C251 1.366 . S
C252 C256 1.385 . S
C253 H228 0.951 . S
C253 C251 1.388 . S
C253 C254 1.366 . S
C254 C253 1.366 . S
C254 C255 1.414 . S
C254 C257 1.499 . S
C255 H229 0.950 . S
C255 C254 1.414 . S
C255 C256 1.374 . S
C256 H230 0.950 . S
C256 C252 1.385 . S
C256 C255 1.374 . S
C257 C254 1.499 . S
C257 C258 1.373 . S
C257 C259 1.389 . S
C258 H231 0.950 . S
C258 C244 1.377 . S
C258 C257 1.373 . S
C259 C243 1.377 . S
C259 C257 1.389 . S
C259 C260 1.524 . S
C260 C259 1.524 . S
C260 C261 1.397 . S
C260 C265 1.363 . S
C261 H232 0.950 . S
C261 C260 1.397 . S
C261 C262 1.334 . S
C262 H233 0.950 . S
C262 C261 1.334 . S
C262 C263 1.287 . S
C263 C262 1.287 . S
C263 C264 1.524 . S
C263 H266 0.999 . S
C264 H234 0.950 . S
C264 C263 1.524 . S
C264 C265 1.415 . S
C265 H235 0.950 . S
C265 C260 1.363 . S
C265 C264 1.415 . S
H266 C263 0.999 . S
H267 C248 0.913 . S
H268 C286 0.951 . S
H269 C288 0.951 . S
H270 C290 0.950 . S
H271 C291 0.950 . S
H272 C293 0.950 . S
H273 C296 0.950 . S
H274 C297 0.950 . S
H275 C299 0.950 . S
H276 C300 0.950 . S
H277 C301 0.951 . S
H278 C303 0.951 . S
H279 C305 0.950 . S
H280 C306 0.950 . S
H281 C308 0.950 . S
H282 C311 0.950 . S
H283 C312 0.950 . S
H284 C314 0.950 . S
H285 C315 0.950 . S
C286 H268 0.951 . S
C286 C287 1.366 . S
C286 C288 1.388 . S
C287 C286 1.366 . S
C287 C291 1.385 . S
C288 H269 0.951 . S
C288 C286 1.388 . S
C288 C289 1.366 . S
C289 C288 1.366 . S
C289 C290 1.414 . S
C289 C292 1.499 . S
C290 H270 0.950 . S
C290 C289 1.414 . S
C290 C291 1.374 . S
C291 H271 0.950 . S
C291 C287 1.385 . S
C291 C290 1.374 . S
C292 C289 1.499 . S
C292 C293 1.373 . S
C292 C294 1.389 . S
C293 H272 0.950 . S
C293 C292 1.373 . S
C293 C309 1.377 . S
C294 C292 1.389 . S
C294 C295 1.524 . S
C294 C308 1.377 . S
C295 C294 1.524 . S
C295 C296 1.397 . S
C295 C300 1.363 . S
C296 H273 0.950 . S
C296 C295 1.397 . S
C296 C297 1.334 . S
C297 H274 0.950 . S
C297 C296 1.334 . S
C297 C298 1.287 . S
C298 C297 1.287 . S
C298 C299 1.524 . S
C298 H317 0.913 . S
C299 H275 0.950 . S
C299 C298 1.524 . S
C299 C300 1.415 . S
C300 H276 0.950 . S
C300 C295 1.363 . S
C300 C299 1.415 . S
C301 H277 0.951 . S
C301 C302 1.366 . S
C301 C303 1.388 . S
C302 C301 1.366 . S
C302 C306 1.385 . S
C303 H278 0.951 . S
C303 C301 1.388 . S
C303 C304 1.366 . S
C304 C303 1.366 . S
C304 C305 1.414 . S
C304 C307 1.499 . S
C305 H279 0.950 . S
C305 C304 1.414 . S
C305 C306 1.374 . S
C306 H280 0.950 . S
C306 C302 1.385 . S
C306 C305 1.374 . S
C307 C304 1.499 . S
C307 C308 1.373 . S
C307 C309 1.389 . S
C308 H281 0.950 . S
C308 C294 1.377 . S
C308 C307 1.373 . S
C309 C293 1.377 . S
C309 C307 1.389 . S
C309 C310 1.524 . S
C310 C309 1.524 . S
C310 C311 1.397 . S
C310 C315 1.363 . S
C311 H282 0.950 . S
C311 C310 1.397 . S
C311 C312 1.334 . S
C312 H283 0.950 . S
C312 C311 1.334 . S
C312 C313 1.287 . S
C313 C312 1.287 . S
C313 C314 1.524 . S
C313 H316 0.999 . S
C314 H284 0.950 . S
C314 C313 1.524 . S
C314 C315 1.415 . S
C315 H285 0.950 . S
C315 C310 1.363 . S
C315 C314 1.415 . S
H316 C313 0.999 . S
H317 C298 0.913 . S
H318 C336 0.951 . S
H319 C338 0.951 . S
H320 C340 0.950 . S
H321 C341 0.950 . S
H322 C343 0.950 . S
H323 C346 0.950 . S
H324 C347 0.950 . S
H325 C349 0.950 . S
H326 C350 0.950 . S
H327 C351 0.951 . S
H328 C353 0.951 . S
H329 C355 0.950 . S
H330 C356 0.950 . S
H331 C358 0.950 . S
H332 C361 0.950 . S
H333 C362 0.950 . S
H334 C364 0.950 . S
H335 C365 0.950 . S
C336 H318 0.951 . S
C336 C337 1.368 1_455 S
C336 C338 1.388 . S
C337 C336 1.368 1_655 S
C337 C341 1.382 . S
C338 H319 0.951 . S
C338 C336 1.388 . S
C338 C339 1.376 . S
C339 C338 1.376 . S
C339 C340 1.403 1_455 S
C339 C342 1.498 1_455 S
C340 H320 0.950 . S
C340 C339 1.403 1_655 S
C340 C341 1.374 . S
C341 H321 0.950 . S
C341 C337 1.382 . S
C341 C340 1.374 . S
C342 C339 1.498 1_655 S
C342 C343 1.369 . S
C342 C344 1.393 1_655 S
C343 H322 0.950 . S
C343 C342 1.369 . S
C343 C359 1.377 . S
C344 C342 1.393 1_455 S
C344 C345 1.524 . S
C344 C358 1.377 . S
C345 C344 1.524 . S
C345 C346 1.397 . S
C345 C350 1.363 . S
C346 H323 0.950 . S
C346 C345 1.397 . S
C346 C347 1.334 . S
C347 H324 0.950 . S
C347 C346 1.334 . S
C347 C348 1.287 . S
C348 C347 1.287 . S
C348 C349 1.524 . S
C348 H367 0.913 . S
C349 H325 0.950 . S
C349 C348 1.524 . S
C349 C350 1.415 . S
C350 H326 0.950 . S
C350 C345 1.363 . S
C350 C349 1.415 . S
C351 H327 0.951 . S
C351 C352 1.366 . S
C351 C353 1.388 . S
C352 C351 1.366 . S
C352 C356 1.385 1_655 S
C353 H328 0.951 . S
C353 C351 1.388 . S
C353 C354 1.366 . S
C354 C353 1.366 . S
C354 C355 1.414 1_655 S
C354 C357 1.499 . S
C355 H329 0.950 . S
C355 C354 1.414 1_455 S
C355 C356 1.374 . S
C356 H330 0.950 . S
C356 C352 1.385 1_455 S
C356 C355 1.374 . S
C357 C354 1.499 . S
C357 C358 1.373 1_655 S
C357 C359 1.389 . S
C358 H331 0.950 . S
C358 C344 1.377 . S
C358 C357 1.373 1_455 S
C359 C343 1.377 . S
C359 C357 1.389 . S
C359 C360 1.524 . S
C360 C359 1.524 . S
C360 C361 1.397 . S
C360 C365 1.363 . S
C361 H332 0.950 . S
C361 C360 1.397 . S
C361 C362 1.334 . S
C362 H333 0.950 . S
C362 C361 1.334 . S
C362 C363 1.287 . S
C363 C362 1.287 . S
C363 C364 1.524 . S
C363 H366 0.999 . S
C364 H334 0.950 . S
C364 C363 1.524 . S
C364 C365 1.415 . S
C365 H335 0.950 . S
C365 C360 1.363 . S
C365 C364 1.415 . S
H366 C363 0.999 . S
H367 C348 0.913 . S
H368 C386 0.951 . S
H369 C388 0.951 . S
H370 C390 0.950 . S
H371 C391 0.950 . S
H372 C393 0.950 . S
H373 C396 0.950 . S
H374 C397 0.950 . S
H375 C399 0.950 . S
H376 C400 0.950 . S
H377 C401 0.951 . S
H378 C403 0.951 . S
H379 C405 0.950 . S
H380 C406 0.950 . S
H381 C408 0.950 . S
H382 C411 0.950 1_565 S
H383 C412 0.950 . S
H384 C414 0.950 . S
H385 C415 0.950 . S
C386 H368 0.951 . S
C386 C387 1.366 . S
C386 C388 1.388 . S
C387 C386 1.366 . S
C387 C391 1.385 . S
C388 H369 0.951 . S
C388 C386 1.388 . S
C388 C389 1.366 . S
C389 C388 1.366 . S
C389 C390 1.414 . S
C389 C392 1.499 . S
C390 H370 0.950 . S
C390 C389 1.414 . S
C390 C391 1.374 . S
C391 H371 0.950 . S
C391 C387 1.385 . S
C391 C390 1.374 . S
C392 C389 1.499 . S
C392 C393 1.373 . S
C392 C394 1.389 . S
C393 H372 0.950 . S
C393 C392 1.373 . S
C393 C409 1.377 . S
C394 C392 1.389 . S
C394 C395 1.524 . S
C394 C408 1.377 . S
C395 C394 1.524 . S
C395 C396 1.397 . S
C395 C400 1.363 . S
C396 H373 0.950 . S
C396 C395 1.397 . S
C396 C397 1.334 1_556 S
C397 H374 0.950 . S
C397 C396 1.334 1_554 S
C397 C398 1.287 . S
C398 C397 1.287 . S
C398 C399 1.524 1_554 S
C398 H417 0.913 . S
C399 H375 0.950 . S
C399 C398 1.524 1_556 S
C399 C400 1.415 . S
C400 H376 0.950 . S
C400 C395 1.363 . S
C400 C399 1.415 . S
C401 H377 0.951 . S
C401 C402 1.366 1_545 S
C401 C403 1.388 . S
C402 C401 1.366 1_565 S
C402 C406 1.385 . S
C403 H378 0.951 . S
C403 C401 1.388 . S
C403 C404 1.366 1_545 S
C404 C403 1.366 1_565 S
C404 C405 1.414 . S
C404 C407 1.499 . S
C405 H379 0.950 . S
C405 C404 1.414 . S
C405 C406 1.374 . S
C406 H380 0.950 . S
C406 C402 1.385 . S
C406 C405 1.374 . S
C407 C404 1.499 . S
C407 C408 1.373 . S
C407 C409 1.389 . S
C408 H381 0.950 . S
C408 C394 1.377 . S
C408 C407 1.373 . S
C409 C393 1.377 . S
C409 C407 1.389 . S
C409 C410 1.524 1_565 S
C410 C409 1.524 1_545 S
C410 C411 1.397 . S
C410 C415 1.363 . S
C411 H382 0.950 1_545 S
C411 C410 1.397 . S
C411 C412 1.334 . S
C412 H383 0.950 . S
C412 C411 1.334 . S
C412 C413 1.287 . S
C413 C412 1.287 . S
C413 C414 1.524 . S
C413 H416 0.999 . S
C414 H384 0.950 . S
C414 C413 1.524 . S
C414 C415 1.415 . S
C415 H385 0.950 . S
C415 C410 1.363 . S
C415 C414 1.415 . S
H416 C413 0.999 . S
H417 C398 0.913 . S
H418 C436 0.951 1_554 S
H419 C438 0.951 . S
H420 C440 0.950 . S
H421 C441 0.950 . S
H422 C443 0.950 . S
H423 C446 0.950 . S
H424 C447 0.950 . S
H425 C449 0.950 . S
H426 C450 0.950 . S
H427 C451 0.951 . S
H428 C453 0.951 . S
H429 C455 0.950 . S
H430 C456 0.950 . S
H431 C458 0.950 . S
H432 C461 0.950 . S
H433 C462 0.950 . S
H434 C464 0.950 . S
H435 C465 0.950 . S
C436 H418 0.951 1_556 S
C436 C437 1.366 . S
C436 C438 1.388 . S
C437 C436 1.366 . S
C437 C441 1.385 . S
C438 H419 0.951 . S
C438 C436 1.388 . S
C438 C439 1.366 . S
C439 C438 1.366 . S
C439 C440 1.414 . S
C439 C442 1.499 . S
C440 H420 0.950 . S
C440 C439 1.414 . S
C440 C441 1.374 . S
C441 H421 0.950 . S
C441 C437 1.385 . S
C441 C440 1.374 . S
C442 C439 1.499 . S
C442 C443 1.373 . S
C442 C444 1.389 . S
C443 H422 0.950 . S
C443 C442 1.373 . S
C443 C459 1.377 . S
C444 C442 1.389 . S
C444 C445 1.524 . S
C444 C458 1.377 . S
C445 C444 1.524 . S
C445 C446 1.397 . S
C445 C450 1.363 . S
C446 H423 0.950 . S
C446 C445 1.397 . S
C446 C447 1.334 . S
C447 H424 0.950 . S
C447 C446 1.334 . S
C447 C448 1.287 . S
C448 C447 1.287 . S
C448 C449 1.524 . S
C448 H467 0.913 . S
C449 H425 0.950 . S
C449 C448 1.524 . S
C449 C450 1.415 . S
C450 H426 0.950 . S
C450 C445 1.363 . S
C450 C449 1.415 . S
C451 H427 0.951 . S
C451 C452 1.366 . S
C451 C453 1.388 . S
C452 C451 1.366 . S
C452 C456 1.385 . S
C453 H428 0.951 . S
C453 C451 1.388 . S
C453 C454 1.366 . S
C454 C453 1.366 . S
C454 C455 1.414 . S
C454 C457 1.499 . S
C455 H429 0.950 . S
C455 C454 1.414 . S
C455 C456 1.374 . S
C456 H430 0.950 . S
C456 C452 1.385 . S
C456 C455 1.374 . S
C457 C454 1.499 . S
C457 C458 1.373 . S
C457 C459 1.389 . S
C458 H431 0.950 . S
C458 C444 1.377 . S
C458 C457 1.373 . S
C459 C443 1.377 . S
C459 C457 1.389 . S
C459 C460 1.524 . S
C460 C459 1.524 . S
C460 C461 1.397 . S
C460 C465 1.363 . S
C461 H432 0.950 . S
C461 C460 1.397 . S
C461 C462 1.334 . S
C462 H433 0.950 . S
C462 C461 1.334 . S
C462 C463 1.287 . S
C463 C462 1.287 . S
C463 C464 1.524 . S
C463 H466 0.999 . S
C464 H434 0.950 . S
C464 C463 1.524 . S
C464 C465 1.415 . S
C465 H435 0.950 . S
C465 C460 1.363 . S
C465 C464 1.415 . S
H466 C463 0.999 . S
H467 C448 0.913 . S
H468 C486 0.951 . S
H469 C488 0.951 . S
H470 C490 0.950 . S
H471 C491 0.950 . S
H472 C493 0.950 . S
H473 C496 0.950 . S
H474 C497 0.950 . S
H475 C499 0.950 . S
H476 C500 0.950 . S
H477 C501 0.951 . S
H478 C503 0.951 . S
H479 C505 0.950 . S
H480 C506 0.950 . S
H481 C508 0.950 . S
H482 C511 0.950 . S
H483 C512 0.950 . S
H484 C514 0.950 1_554 S
H485 C515 0.950 . S
C486 H468 0.951 . S
C486 C487 1.366 . S
C486 C488 1.388 . S
C487 C486 1.366 . S
C487 C491 1.385 . S
C488 H469 0.951 . S
C488 C486 1.388 . S
C488 C489 1.366 . S
C489 C488 1.366 . S
C489 C490 1.414 . S
C489 C492 1.499 . S
C490 H470 0.950 . S
C490 C489 1.414 . S
C490 C491 1.374 . S
C491 H471 0.950 . S
C491 C487 1.385 . S
C491 C490 1.374 . S
C492 C489 1.499 . S
C492 C493 1.373 . S
C492 C494 1.389 . S
C493 H472 0.950 . S
C493 C492 1.373 . S
C493 C509 1.377 . S
C494 C492 1.389 . S
C494 C495 1.524 . S
C494 C508 1.377 . S
C495 C494 1.524 . S
C495 C496 1.397 . S
C495 C500 1.363 . S
C496 H473 0.950 . S
C496 C495 1.397 . S
C496 C497 1.334 . S
C497 H474 0.950 . S
C497 C496 1.334 . S
C497 C498 1.287 . S
C498 C497 1.287 . S
C498 C499 1.524 . S
C498 H517 0.913 . S
C499 H475 0.950 . S
C499 C498 1.524 . S
C499 C500 1.415 . S
C500 H476 0.950 . S
C500 C495 1.363 . S
C500 C499 1.415 . S
C501 H477 0.951 . S
C501 C502 1.366 . S
C501 C503 1.388 . S
C502 C501 1.366 . S
C502 C506 1.385 . S
C503 H478 0.951 . S
C503 C501 1.388 . S
C503 C504 1.366 . S
C504 C503 1.366 . S
C504 C505 1.414 . S
C504 C507 1.499 . S
C505 H479 0.950 . S
C505 C504 1.414 . S
C505 C506 1.374 . S
C506 H480 0.950 . S
C506 C502 1.385 . S
C506 C505 1.374 . S
C507 C504 1.499 . S
C507 C508 1.373 . S
C507 C509 1.389 . S
C508 H481 0.950 . S
C508 C494 1.377 . S
C508 C507 1.373 . S
C509 C493 1.377 . S
C509 C507 1.389 . S
C509 C510 1.524 . S
C510 C509 1.524 . S
C510 C511 1.397 . S
C510 C515 1.363 . S
C511 H482 0.950 . S
C511 C510 1.397 . S
C511 C512 1.334 . S
C512 H483 0.950 . S
C512 C511 1.334 . S
C512 C513 1.287 . S
C513 C512 1.287 . S
C513 C514 1.524 . S
C513 H516 0.999 . S
C514 H484 0.950 1_556 S
C514 C513 1.524 . S
C514 C515 1.415 . S
C515 H485 0.950 . S
C515 C510 1.363 . S
C515 C514 1.415 . S
H516 C513 0.999 . S
H517 C498 0.913 . S
H518 C536 0.951 . S
H519 C538 0.951 . S
H520 C540 0.950 . S
H521 C541 0.950 . S
H522 C543 0.950 . S
H523 C546 0.950 . S
H524 C547 0.950 . S
H525 C549 0.950 . S
H526 C550 0.950 . S
H527 C551 0.951 . S
H528 C553 0.951 . S
H529 C555 0.950 . S
H530 C556 0.950 . S
H531 C558 0.950 . S
H532 C561 0.950 . S
H533 C562 0.950 . S
H534 C564 0.950 . S
H535 C565 0.950 . S
C536 H518 0.951 . S
C536 C537 1.370 1_455 S
C536 C538 1.388 . S
C537 C536 1.370 1_655 S
C537 C541 1.380 . S
C538 H519 0.951 . S
C538 C536 1.388 . S
C538 C539 1.394 . S
C539 C538 1.394 . S
C539 C540 1.385 1_455 S
C539 C542 1.498 . S
C540 H520 0.950 . S
C540 C539 1.385 1_655 S
C540 C541 1.374 . S
C541 H521 0.950 . S
C541 C537 1.380 . S
C541 C540 1.374 . S
C542 C539 1.498 . S
C542 C543 1.366 1_455 S
C542 C544 1.397 . S
C543 H522 0.950 . S
C543 C542 1.366 1_655 S
C543 C559 1.377 . S
C544 C542 1.397 . S
C544 C545 1.524 . S
C544 C558 1.377 . S
C545 C544 1.524 . S
C545 C546 1.397 . S
C545 C550 1.363 . S
C546 H523 0.950 . S
C546 C545 1.397 . S
C546 C547 1.334 . S
C547 H524 0.950 . S
C547 C546 1.334 . S
C547 C548 1.287 . S
C548 C547 1.287 . S
C548 C549 1.524 . S
C548 H567 0.913 . S
C549 H525 0.950 . S
C549 C548 1.524 . S
C549 C550 1.415 . S
C550 H526 0.950 . S
C550 C545 1.363 . S
C550 C549 1.415 . S
C551 H527 0.951 . S
C551 C552 1.366 1_655 S
C551 C553 1.388 . S
C552 C551 1.366 1_455 S
C552 C556 1.385 . S
C553 H528 0.951 . S
C553 C551 1.388 . S
C553 C554 1.366 1_655 S
C554 C553 1.366 1_455 S
C554 C555 1.414 . S
C554 C557 1.499 . S
C555 H529 0.950 . S
C555 C554 1.414 . S
C555 C556 1.374 . S
C556 H530 0.950 . S
C556 C552 1.385 . S
C556 C555 1.374 . S
C557 C554 1.499 . S
C557 C558 1.373 . S
C557 C559 1.389 1_455 S
C558 H531 0.950 . S
C558 C544 1.377 . S
C558 C557 1.373 . S
C559 C543 1.377 . S
C559 C557 1.389 1_655 S
C559 C560 1.524 . S
C560 C559 1.524 . S
C560 C561 1.397 . S
C560 C565 1.363 . S
C561 H532 0.950 . S
C561 C560 1.397 . S
C561 C562 1.334 . S
C562 H533 0.950 . S
C562 C561 1.334 . S
C562 C563 1.287 . S
C563 C562 1.287 . S
C563 C564 1.524 . S
C563 H566 0.999 . S
C564 H534 0.950 . S
C564 C563 1.524 . S
C564 C565 1.415 . S
C565 H535 0.950 . S
C565 C560 1.363 . S
C565 C564 1.415 . S
H566 C563 0.999 . S
H567 C548 0.913 . S
H568 C586 0.951 . S
H569 C588 0.951 . S
H570 C590 0.950 . S
H571 C591 0.950 . S
H572 C593 0.943 1_455 S
H573 C596 0.950 . S
H574 C597 0.950 . S
H575 C599 0.950 . S
H576 C600 0.950 . S
H577 C601 0.951 . S
H578 C603 0.951 . S
H579 C605 0.950 . S
H580 C606 0.950 . S
H581 C608 0.950 . S
H582 C611 0.950 . S
H583 C612 0.950 . S
H584 C614 0.950 . S
H585 C615 0.950 . S
C586 H568 0.951 . S
C586 C587 1.365 1_655 S
C586 C588 1.388 . S
C587 C586 1.365 1_455 S
C587 C591 1.386 . S
C588 H569 0.951 . S
C588 C586 1.388 . S
C588 C589 1.366 . S
C589 C588 1.366 . S
C589 C590 1.414 1_655 S
C589 C592 1.499 . S
C590 H570 0.950 . S
C590 C589 1.414 1_455 S
C590 C591 1.374 . S
C591 H571 0.950 . S
C591 C587 1.386 . S
C591 C590 1.374 . S
C592 C589 1.499 . S
C592 C593 1.377 . S
C592 C594 1.389 . S
C593 H572 0.943 1_655 S
C593 C592 1.377 . S
C593 C609 1.382 . S
C594 C592 1.389 . S
C594 C595 1.524 . S
C594 C608 1.377 . S
C595 C594 1.524 . S
C595 C596 1.397 1_655 S
C595 C600 1.363 . S
C596 H573 0.950 . S
C596 C595 1.397 1_455 S
C596 C597 1.334 . S
C597 H574 0.950 . S
C597 C596 1.334 . S
C597 C598 1.287 1_455 S
C598 C597 1.287 1_655 S
C598 C599 1.524 . S
C598 H617 0.913 . S
C599 H575 0.950 . S
C599 C598 1.524 . S
C599 C600 1.415 . S
C600 H576 0.950 . S
C600 C595 1.363 . S
C600 C599 1.415 . S
C601 H577 0.951 . S
C601 C602 1.366 1_455 S
C601 C603 1.388 . S
C602 C601 1.366 1_655 S
C602 C606 1.385 . S
C603 H578 0.951 . S
C603 C601 1.388 . S
C603 C604 1.366 1_455 S
C604 C603 1.366 1_655 S
C604 C605 1.414 . S
C604 C607 1.499 . S
C605 H579 0.950 . S
C605 C604 1.414 . S
C605 C606 1.374 . S
C606 H580 0.950 . S
C606 C602 1.385 . S
C606 C605 1.374 . S
C607 C604 1.499 . S
C607 C608 1.373 . S
C607 C609 1.389 . S
C608 H581 0.950 . S
C608 C594 1.377 . S
C608 C607 1.373 . S
C609 C593 1.382 . S
C609 C607 1.389 . S
C609 C610 1.524 . S
C610 C609 1.524 . S
C610 C611 1.397 . S
C610 C615 1.363 1_655 S
C611 H582 0.950 . S
C611 C610 1.397 . S
C611 C612 1.334 . S
C612 H583 0.950 . S
C612 C611 1.334 . S
C612 C613 1.287 . S
C613 C612 1.287 . S
C613 C614 1.524 1_655 S
C613 H616 0.999 . S
C614 H584 0.950 . S
C614 C613 1.524 1_455 S
C614 C615 1.415 . S
C615 H585 0.950 . S
C615 C610 1.363 1_455 S
C615 C614 1.415 . S
H616 C613 0.999 . S
H617 C598 0.913 . S
H618 C636 0.951 . S
H619 C638 0.951 . S
H620 C640 0.950 . S
H621 C641 0.950 . S
H622 C643 0.950 . S
H623 C646 0.950 . S
H624 C647 0.950 . S
H625 C649 0.950 . S
H626 C650 0.950 . S
H627 C651 0.951 . S
H628 C653 0.951 . S
H629 C655 0.950 . S
H630 C656 0.946 . S
H631 C658 0.950 . S
H632 C661 0.950 . S
H633 C662 0.950 . S
H634 C664 0.950 . S
H635 C665 0.950 . S
C636 H618 0.951 . S
C636 C637 1.366 . S
C636 C638 1.388 . S
C637 C636 1.366 . S
C637 C641 1.385 . S
C638 H619 0.951 . S
C638 C636 1.388 . S
C638 C639 1.366 . S
C639 C638 1.366 . S
C639 C640 1.414 . S
C639 C642 1.499 . S
C640 H620 0.950 . S
C640 C639 1.414 . S
C640 C641 1.374 . S
C641 H621 0.950 . S
C641 C637 1.385 . S
C641 C640 1.374 . S
C642 C639 1.499 . S
C642 C643 1.373 . S
C642 C644 1.389 . S
C643 H622 0.950 . S
C643 C642 1.373 . S
C643 C659 1.377 . S
C644 C642 1.389 . S
C644 C645 1.524 . S
C644 C658 1.377 . S
C645 C644 1.524 . S
C645 C646 1.397 . S
C645 C650 1.363 1_545 S
C646 H623 0.950 . S
C646 C645 1.397 . S
C646 C647 1.334 1_545 S
C647 H624 0.950 . S
C647 C646 1.334 1_565 S
C647 C648 1.287 . S
C648 C647 1.287 . S
C648 C649 1.524 . S
C648 H667 0.913 . S
C649 H625 0.950 . S
C649 C648 1.524 . S
C649 C650 1.415 . S
C650 H626 0.950 . S
C650 C645 1.363 1_565 S
C650 C649 1.415 . S
C651 H627 0.951 . S
C651 C652 1.366 . S
C651 C653 1.388 . S
C652 C651 1.366 . S
C652 C656 1.385 . S
C653 H628 0.951 . S
C653 C651 1.388 . S
C653 C654 1.366 . S
C654 C653 1.366 . S
C654 C655 1.414 . S
C654 C657 1.499 . S
C655 H629 0.950 . S
C655 C654 1.414 . S
C655 C656 1.374 . S
C656 H630 0.946 . S
C656 C652 1.385 . S
C656 C655 1.374 . S
C657 C654 1.499 . S
C657 C658 1.373 . S
C657 C659 1.389 . S
C658 H631 0.950 . S
C658 C644 1.377 . S
C658 C657 1.373 . S
C659 C643 1.377 . S
C659 C657 1.389 . S
C659 C660 1.524 . S
C660 C659 1.524 . S
C660 C661 1.397 . S
C660 C665 1.363 . S
C661 H632 0.950 . S
C661 C660 1.397 . S
C661 C662 1.334 . S
C662 H633 0.950 . S
C662 C661 1.334 . S
C662 C663 1.287 . S
C663 C662 1.287 . S
C663 C664 1.524 . S
C663 H666 0.999 . S
C664 H634 0.950 . S
C664 C663 1.524 . S
C664 C665 1.415 . S
C665 H635 0.950 . S
C665 C660 1.363 . S
C665 C664 1.415 . S
H666 C663 0.999 . S
H667 C648 0.913 . S
H668 C686 0.951 . S
H669 C688 0.951 . S
H670 C690 0.950 . S
H671 C691 0.950 . S
H672 C693 0.950 . S
H673 C696 0.950 . S
H674 C697 0.950 . S
H675 C699 0.950 . S
H676 C700 0.950 . S
H677 C701 0.951 . S
H678 C703 0.951 . S
H679 C705 0.950 . S
H680 C706 0.950 . S
H681 C708 0.950 . S
H682 C711 0.950 . S
H683 C712 0.950 . S
H684 C714 0.950 . S
H685 C715 0.950 . S
C686 H668 0.951 . S
C686 C687 1.366 . S
C686 C688 1.388 . S
C687 C686 1.366 . S
C687 C691 1.385 . S
C688 H669 0.951 . S
C688 C686 1.388 . S
C688 C689 1.366 . S
C689 C688 1.366 . S
C689 C690 1.414 . S
C689 C692 1.499 . S
C690 H670 0.950 . S
C690 C689 1.414 . S
C690 C691 1.374 . S
C691 H671 0.950 . S
C691 C687 1.385 . S
C691 C690 1.374 . S
C692 C689 1.499 . S
C692 C693 1.373 . S
C692 C694 1.389 . S
C693 H672 0.950 . S
C693 C692 1.373 . S
C693 C709 1.377 . S
C694 C692 1.389 . S
C694 C695 1.524 . S
C694 C708 1.377 . S
C695 C694 1.524 . S
C695 C696 1.397 . S
C695 C700 1.363 . S
C696 H673 0.950 . S
C696 C695 1.397 . S
C696 C697 1.334 . S
C697 H674 0.950 . S
C697 C696 1.334 . S
C697 C698 1.287 . S
C698 C697 1.287 . S
C698 C699 1.524 . S
C698 H717 0.913 . S
C699 H675 0.950 . S
C699 C698 1.524 . S
C699 C700 1.415 . S
C700 H676 0.950 . S
C700 C695 1.363 . S
C700 C699 1.415 . S
C701 H677 0.951 . S
C701 C702 1.366 . S
C701 C703 1.388 . S
C702 C701 1.366 . S
C702 C706 1.385 . S
C703 H678 0.951 . S
C703 C701 1.388 . S
C703 C704 1.366 . S
C704 C703 1.366 . S
C704 C705 1.414 . S
C704 C707 1.499 . S
C705 H679 0.950 . S
C705 C704 1.414 . S
C705 C706 1.374 . S
C706 H680 0.950 . S
C706 C702 1.385 . S
C706 C705 1.374 . S
C707 C704 1.499 . S
C707 C708 1.373 . S
C707 C709 1.389 . S
C708 H681 0.950 . S
C708 C694 1.377 . S
C708 C707 1.373 . S
C709 C693 1.377 . S
C709 C707 1.389 . S
C709 C710 1.524 . S
C710 C709 1.524 . S
C710 C711 1.397 . S
C710 C715 1.363 . S
C711 H682 0.950 . S
C711 C710 1.397 . S
C711 C712 1.334 . S
C712 H683 0.950 . S
C712 C711 1.334 . S
C712 C713 1.287 . S
C713 C712 1.287 . S
C713 C714 1.524 . S
C713 H716 0.999 . S
C714 H684 0.950 . S
C714 C713 1.524 . S
C714 C715 1.415 . S
C715 H685 0.950 . S
C715 C710 1.363 . S
C715 C714 1.415 . S
H716 C713 0.999 . S
H717 C698 0.913 . S
H718 C736 0.951 . S
H719 C738 0.951 . S
H720 C740 0.950 . S
H721 C741 0.950 . S
H722 C743 0.950 . S
H723 C746 0.950 . S
H724 C747 0.950 . S
H725 C749 0.950 . S
H726 C750 0.950 . S
H727 C751 0.951 . S
H728 C753 0.951 . S
H729 C755 0.950 . S
H730 C756 0.950 . S
H731 C758 0.950 . S
H732 C761 0.950 . S
H733 C762 0.950 . S
H734 C764 0.950 . S
H735 C765 0.950 . S
C736 H718 0.951 . S
C736 C737 1.366 . S
C736 C738 1.388 . S
C737 C736 1.366 . S
C737 C741 1.385 . S
C738 H719 0.951 . S
C738 C736 1.388 . S
C738 C739 1.366 . S
C739 C738 1.366 . S
C739 C740 1.414 . S
C739 C742 1.499 . S
C740 H720 0.950 . S
C740 C739 1.414 . S
C740 C741 1.374 . S
C741 H721 0.950 . S
C741 C737 1.385 . S
C741 C740 1.374 . S
C742 C739 1.499 . S
C742 C743 1.373 . S
C742 C744 1.389 . S
C743 H722 0.950 . S
C743 C742 1.373 . S
C743 C759 1.377 . S
C744 C742 1.389 . S
C744 C745 1.524 . S
C744 C758 1.377 . S
C745 C744 1.524 . S
C745 C746 1.397 . S
C745 C750 1.363 . S
C746 H723 0.950 . S
C746 C745 1.397 . S
C746 C747 1.334 . S
C747 H724 0.950 . S
C747 C746 1.334 . S
C747 C748 1.287 . S
C748 C747 1.287 . S
C748 C749 1.524 . S
C748 H767 0.913 . S
C749 H725 0.950 . S
C749 C748 1.524 . S
C749 C750 1.415 . S
C750 H726 0.950 . S
C750 C745 1.363 . S
C750 C749 1.415 . S
C751 H727 0.951 . S
C751 C752 1.366 . S
C751 C753 1.388 . S
C752 C751 1.366 . S
C752 C756 1.385 . S
C753 H728 0.951 . S
C753 C751 1.388 . S
C753 C754 1.366 . S
C754 C753 1.366 . S
C754 C755 1.414 . S
C754 C757 1.499 . S
C755 H729 0.950 . S
C755 C754 1.414 . S
C755 C756 1.374 . S
C756 H730 0.950 . S
C756 C752 1.385 . S
C756 C755 1.374 . S
C757 C754 1.499 . S
C757 C758 1.373 . S
C757 C759 1.389 . S
C758 H731 0.950 . S
C758 C744 1.377 . S
C758 C757 1.373 . S
C759 C743 1.377 . S
C759 C757 1.389 . S
C759 C760 1.524 . S
C760 C759 1.524 . S
C760 C761 1.397 . S
C760 C765 1.363 . S
C761 H732 0.950 . S
C761 C760 1.397 . S
C761 C762 1.334 . S
C762 H733 0.950 . S
C762 C761 1.334 . S
C762 C763 1.287 . S
C763 C762 1.287 . S
C763 C764 1.524 . S
C763 H766 0.999 . S
C764 H734 0.950 . S
C764 C763 1.524 . S
C764 C765 1.415 . S
C765 H735 0.950 . S
C765 C760 1.363 . S
C765 C764 1.415 . S
H766 C763 0.999 . S
H767 C748 0.913 . S
H768 C786 0.951 . S
H769 C788 0.951 . S
H770 C790 0.950 . S
H771 C791 0.950 1_554 S
H772 C793 0.950 . S
H773 C796 0.950 . S
H774 C797 0.950 . S
H775 C799 0.950 . S
H776 C800 0.950 . S
H777 C801 0.951 1_655 S
H778 C803 0.964 . S
H779 C805 0.950 . S
H780 C806 0.950 . S
H781 C808 0.950 . S
H782 C811 0.950 . S
H783 C812 0.950 . S
H784 C814 0.950 . S
H785 C815 0.950 . S
C786 H768 0.951 . S
C786 C787 1.364 1_455 S
C786 C788 1.388 . S
C787 C786 1.364 1_655 S
C787 C791 1.386 . S
C788 H769 0.951 . S
C788 C786 1.388 . S
C788 C789 1.366 . S
C789 C788 1.366 . S
C789 C790 1.414 1_455 S
C789 C792 1.499 . S
C790 H770 0.950 . S
C790 C789 1.414 1_655 S
C790 C791 1.374 . S
C791 H771 0.950 1_556 S
C791 C787 1.386 . S
C791 C790 1.374 . S
C792 C789 1.499 . S
C792 C793 1.373 1_455 S
C792 C794 1.389 . S
C793 H772 0.950 . S
C793 C792 1.373 1_655 S
C793 C809 1.377 . S
C794 C792 1.389 . S
C794 C795 1.524 . S
C794 C808 1.377 . S
C795 C794 1.524 . S
C795 C796 1.397 . S
C795 C800 1.363 . S
C796 H773 0.950 . S
C796 C795 1.397 . S
C796 C797 1.334 . S
C797 H774 0.950 . S
C797 C796 1.334 . S
C797 C798 1.287 . S
C798 C797 1.287 . S
C798 C799 1.524 . S
C798 H817 0.913 . S
C799 H775 0.950 . S
C799 C798 1.524 . S
C799 C800 1.415 . S
C800 H776 0.950 . S
C800 C795 1.363 . S
C800 C799 1.415 . S
C801 H777 0.951 1_455 S
C801 C802 1.366 . S
C801 C803 1.386 1_455 S
C802 C801 1.366 . S
C802 C806 1.385 . S
C803 H778 0.964 . S
C803 C801 1.386 1_655 S
C803 C804 1.356 1_655 S
C804 C803 1.356 1_455 S
C804 C805 1.414 . S
C804 C807 1.499 . S
C805 H779 0.950 . S
C805 C804 1.414 . S
C805 C806 1.374 . S
C806 H780 0.950 . S
C806 C802 1.385 . S
C806 C805 1.374 . S
C807 C804 1.499 . S
C807 C808 1.373 . S
C807 C809 1.389 1_455 S
C808 H781 0.950 . S
C808 C794 1.377 . S
C808 C807 1.373 . S
C809 C793 1.377 . S
C809 C807 1.389 1_655 S
C809 C810 1.524 . S
C810 C809 1.524 . S
C810 C811 1.397 . S
C810 C815 1.363 . S
C811 H782 0.950 . S
C811 C810 1.397 . S
C811 C812 1.334 . S
C812 H783 0.950 . S
C812 C811 1.334 . S
C812 C813 1.287 . S
C813 C812 1.287 . S
C813 C814 1.524 . S
C813 H816 0.999 . S
C814 H784 0.950 . S
C814 C813 1.524 . S
C814 C815 1.415 . S
C815 H785 0.950 . S
C815 C810 1.363 . S
C815 C814 1.415 . S
H816 C813 0.999 . S
H817 C798 0.913 . S
H818 C836 0.951 1_554 S
H819 C838 0.951 . S
H820 C840 0.950 . S
H821 C841 0.950 . S
H822 C843 0.950 1_545 S
H823 C846 0.950 . S
H824 C847 0.950 . S
H825 C849 0.950 . S
H826 C850 0.950 . S
H827 C851 0.951 . S
H828 C853 0.951 . S
H829 C855 0.950 . S
H830 C856 0.950 . S
H831 C858 0.950 . S
H832 C861 0.950 . S
H833 C862 0.950 . S
H834 C864 0.950 . S
H835 C865 0.950 . S
C836 H818 0.951 1_556 S
C836 C837 1.366 . S
C836 C838 1.388 . S
C837 C836 1.366 . S
C837 C841 1.385 . S
C838 H819 0.951 . S
C838 C836 1.388 . S
C838 C839 1.366 . S
C839 C838 1.366 . S
C839 C840 1.414 . S
C839 C842 1.499 . S
C840 H820 0.950 . S
C840 C839 1.414 . S
C840 C841 1.374 . S
C841 H821 0.950 . S
C841 C837 1.385 . S
C841 C840 1.374 . S
C842 C839 1.499 . S
C842 C843 1.373 . S
C842 C844 1.389 . S
C843 H822 0.950 1_565 S
C843 C842 1.373 . S
C843 C859 1.377 . S
C844 C842 1.389 . S
C844 C845 1.524 . S
C844 C858 1.377 . S
C845 C844 1.524 . S
C845 C846 1.397 . S
C845 C850 1.363 . S
C846 H823 0.950 . S
C846 C845 1.397 . S
C846 C847 1.334 . S
C847 H824 0.950 . S
C847 C846 1.334 . S
C847 C848 1.287 . S
C848 C847 1.287 . S
C848 C849 1.524 . S
C848 H867 0.913 . S
C849 H825 0.950 . S
C849 C848 1.524 . S
C849 C850 1.415 . S
C850 H826 0.950 . S
C850 C845 1.363 . S
C850 C849 1.415 . S
C851 H827 0.951 . S
C851 C852 1.366 . S
C851 C853 1.388 . S
C852 C851 1.366 . S
C852 C856 1.385 1_545 S
C853 H828 0.951 . S
C853 C851 1.388 . S
C853 C854 1.366 1_545 S
C854 C853 1.366 1_565 S
C854 C855 1.414 . S
C854 C857 1.499 . S
C855 H829 0.950 . S
C855 C854 1.414 . S
C855 C856 1.374 . S
C856 H830 0.950 . S
C856 C852 1.385 1_565 S
C856 C855 1.374 . S
C857 C854 1.499 . S
C857 C858 1.373 . S
C857 C859 1.389 . S
C858 H831 0.950 . S
C858 C844 1.377 . S
C858 C857 1.373 . S
C859 C843 1.377 . S
C859 C857 1.389 . S
C859 C860 1.524 1_565 S
C860 C859 1.524 1_545 S
C860 C861 1.397 . S
C860 C865 1.363 . S
C861 H832 0.950 . S
C861 C860 1.397 . S
C861 C862 1.334 . S
C862 H833 0.950 . S
C862 C861 1.334 . S
C862 C863 1.287 . S
C863 C862 1.287 . S
C863 C864 1.524 . S
C863 H866 0.999 . S
C864 H834 0.950 . S
C864 C863 1.524 . S
C864 C865 1.415 . S
C865 H835 0.950 . S
C865 C860 1.363 . S
C865 C864 1.415 . S
H866 C863 0.999 . S
H867 C848 0.913 . S
H868 C886 0.951 . S
H869 C888 0.951 . S
H870 C890 0.950 . S
H871 C891 0.950 . S
H872 C893 0.950 . S
H873 C896 0.950 . S
H874 C897 0.950 . S
H875 C899 0.950 . S
H876 C900 0.950 . S
H877 C901 0.951 . S
H878 C903 0.951 . S
H879 C905 0.950 . S
H880 C906 0.950 . S
H881 C908 0.950 . S
H882 C911 0.950 . S
H883 C912 0.950 . S
H884 C914 0.950 . S
H885 C915 0.950 . S
C886 H868 0.951 . S
C886 C887 1.366 1_554 S
C886 C888 1.388 1_554 S
C887 C886 1.366 1_556 S
C887 C891 1.385 . S
C888 H869 0.951 . S
C888 C886 1.388 1_556 S
C888 C889 1.366 . S
C889 C888 1.366 . S
C889 C890 1.414 . S
C889 C892 1.499 . S
C890 H870 0.950 . S
C890 C889 1.414 . S
C890 C891 1.374 . S
C891 H871 0.950 . S
C891 C887 1.385 . S
C891 C890 1.374 . S
C892 C889 1.499 . S
C892 C893 1.373 . S
C892 C894 1.389 . S
C893 H872 0.950 . S
C893 C892 1.373 . S
C893 C909 1.377 . S
C894 C892 1.389 . S
C894 C895 1.524 . S
C894 C908 1.377 . S
C895 C894 1.524 . S
C895 C896 1.397 . S
C895 C900 1.363 . S
C896 H873 0.950 . S
C896 C895 1.397 . S
C896 C897 1.334 . S
C897 H874 0.950 . S
C897 C896 1.334 . S
C897 C898 1.287 . S
C898 C897 1.287 . S
C898 C899 1.524 1_556 S
C898 H917 0.913 1_556 S
C899 H875 0.950 . S
C899 C898 1.524 1_554 S
C899 C900 1.415 1_554 S
C900 H876 0.950 . S
C900 C895 1.363 . S
C900 C899 1.415 1_556 S
C901 H877 0.951 . S
C901 C902 1.366 . S
C901 C903 1.388 . S
C902 C901 1.366 . S
C902 C906 1.385 . S
C903 H878 0.951 . S
C903 C901 1.388 . S
C903 C904 1.366 . S
C904 C903 1.366 . S
C904 C905 1.414 . S
C904 C907 1.499 . S
C905 H879 0.950 . S
C905 C904 1.414 . S
C905 C906 1.374 . S
C906 H880 0.950 . S
C906 C902 1.385 . S
C906 C905 1.374 . S
C907 C904 1.499 . S
C907 C908 1.373 . S
C907 C909 1.389 . S
C908 H881 0.950 . S
C908 C894 1.377 . S
C908 C907 1.373 . S
C909 C893 1.377 . S
C909 C907 1.389 . S
C909 C910 1.524 . S
C910 C909 1.524 . S
C910 C911 1.397 . S
C910 C915 1.363 . S
C911 H882 0.950 . S
C911 C910 1.397 . S
C911 C912 1.334 . S
C912 H883 0.950 . S
C912 C911 1.334 . S
C912 C913 1.287 . S
C913 C912 1.287 . S
C913 C914 1.524 . S
C913 H916 0.999 . S
C914 H884 0.950 . S
C914 C913 1.524 . S
C914 C915 1.415 . S
C915 H885 0.950 . S
C915 C910 1.363 . S
C915 C914 1.415 . S
H916 C913 0.999 . S
H917 C898 0.913 1_554 S
H918 C936 0.951 1_554 S
H919 C938 0.951 . S
H920 C940 0.950 . S
H921 C941 0.950 . S
H922 C943 0.950 . S
H923 C946 0.950 . S
H924 C947 0.950 . S
H925 C949 0.950 . S
H926 C950 0.950 . S
H927 C951 0.951 . S
H928 C953 0.951 . S
H929 C955 0.950 . S
H930 C956 0.950 . S
H931 C958 0.950 . S
H932 C961 0.950 . S
H933 C962 0.950 . S
H934 C964 0.950 . S
H935 C965 0.950 . S
C936 H918 0.951 1_556 S
C936 C937 1.366 . S
C936 C938 1.388 . S
C937 C936 1.366 . S
C937 C941 1.385 . S
C938 H919 0.951 . S
C938 C936 1.388 . S
C938 C939 1.366 . S
C939 C938 1.366 . S
C939 C940 1.414 . S
C939 C942 1.499 . S
C940 H920 0.950 . S
C940 C939 1.414 . S
C940 C941 1.374 . S
C941 H921 0.950 . S
C941 C937 1.385 . S
C941 C940 1.374 . S
C942 C939 1.499 . S
C942 C943 1.373 . S
C942 C944 1.389 . S
C943 H922 0.950 . S
C943 C942 1.373 . S
C943 C959 1.377 . S
C944 C942 1.389 . S
C944 C945 1.524 . S
C944 C958 1.377 . S
C945 C944 1.524 . S
C945 C946 1.397 . S
C945 C950 1.363 . S
C946 H923 0.950 . S
C946 C945 1.397 . S
C946 C947 1.334 . S
C947 H924 0.950 . S
C947 C946 1.334 . S
C947 C948 1.287 1_556 S
C948 C947 1.287 1_554 S
C948 C949 1.524 . S
C948 H967 0.913 . S
C949 H925 0.950 . S
C949 C948 1.524 . S
C949 C950 1.415 1_554 S
C950 H926 0.950 . S
C950 C945 1.363 . S
C950 C949 1.415 1_556 S
C951 H927 0.951 . S
C951 C952 1.366 . S
C951 C953 1.388 . S
C952 C951 1.366 . S
C952 C956 1.385 . S
C953 H928 0.951 . S
C953 C951 1.388 . S
C953 C954 1.366 . S
C954 C953 1.366 . S
C954 C955 1.414 . S
C954 C957 1.499 . S
C955 H929 0.950 . S
C955 C954 1.414 . S
C955 C956 1.374 . S
C956 H930 0.950 . S
C956 C952 1.385 . S
C956 C955 1.374 . S
C957 C954 1.499 . S
C957 C958 1.373 . S
C957 C959 1.389 . S
C958 H931 0.950 . S
C958 C944 1.377 . S
C958 C957 1.373 . S
C959 C943 1.377 . S
C959 C957 1.389 . S
C959 C960 1.524 . S
C960 C959 1.524 . S
C960 C961 1.397 . S
C960 C965 1.363 . S
C961 H932 0.950 . S
C961 C960 1.397 . S
C961 C962 1.334 . S
C962 H933 0.950 . S
C962 C961 1.334 . S
C962 C963 1.287 . S
C963 C962 1.287 . S
C963 C964 1.524 . S
C963 H966 0.999 . S
C964 H934 0.950 . S
C964 C963 1.524 . S
C964 C965 1.415 . S
C965 H935 0.950 . S
C965 C960 1.363 . S
C965 C964 1.415 . S
H966 C963 0.999 . S
H967 C948 0.913 . S
H968 C986 0.951 . S
H969 C988 0.951 . S
H970 C990 0.950 . S
H971 C991 0.950 . S
H972 C993 0.950 . S
H973 C996 0.950 . S
H974 C997 0.950 . S
H975 C999 0.950 . S
H976 C1000 0.950 . S
H977 C1001 0.951 . S
H978 C1003 0.951 . S
H979 C1005 0.950 . S
H980 C1006 0.950 . S
H981 C1008 0.950 . S
H982 C1011 0.950 . S
H983 C1012 0.950 . S
H984 C1014 0.950 . S
H985 C1015 0.950 . S
C986 H968 0.951 . S
C986 C987 1.349 1_655 S
C986 C988 1.388 . S
C987 C986 1.349 1_455 S
C987 C991 1.403 1_554 S
C988 H969 0.951 . S
C988 C986 1.388 . S
C988 C989 1.366 1_654 S
C989 C988 1.366 1_456 S
C989 C990 1.414 . S
C989 C992 1.499 . S
C990 H970 0.950 . S
C990 C989 1.414 . S
C990 C991 1.374 . S
C991 H971 0.950 . S
C991 C987 1.403 1_556 S
C991 C990 1.374 . S
C992 C989 1.499 . S
C992 C993 1.373 . S
C992 C994 1.389 . S
C993 H972 0.950 . S
C993 C992 1.373 . S
C993 C1009 1.377 . S
C994 C992 1.389 . S
C994 C995 1.524 1_556 S
C994 C1008 1.377 . S
C995 C994 1.524 1_554 S
C995 C996 1.397 . S
C995 C1000 1.363 1_455 S
C996 H973 0.950 . S
C996 C995 1.397 . S
C996 C997 1.334 . S
C997 H974 0.950 . S
C997 C996 1.334 . S
C997 C998 1.287 . S
C998 C997 1.287 . S
C998 C999 1.524 1_455 S
C998 H1017 0.913 . S
C999 H975 0.950 . S
C999 C998 1.524 1_655 S
C999 C1000 1.415 . S
C1000 H976 0.950 . S
C1000 C995 1.363 1_655 S
C1000 C999 1.415 . S
C1001 H977 0.951 . S
C1001 C1002 1.366 . S
C1001 C1003 1.388 . S
C1002 C1001 1.366 . S
C1002 C1006 1.385 1_455 S
C1003 H978 0.951 . S
C1003 C1001 1.388 . S
C1003 C1004 1.366 . S
C1004 C1003 1.366 . S
C1004 C1005 1.414 1_455 S
C1004 C1007 1.499 . S
C1005 H979 0.950 . S
C1005 C1004 1.414 1_655 S
C1005 C1006 1.374 . S
C1006 H980 0.950 . S
C1006 C1002 1.385 1_655 S
C1006 C1005 1.374 . S
C1007 C1004 1.499 . S
C1007 C1008 1.373 . S
C1007 C1009 1.389 . S
C1008 H981 0.950 . S
C1008 C994 1.377 . S
C1008 C1007 1.373 . S
C1009 C993 1.377 . S
C1009 C1007 1.389 . S
C1009 C1010 1.524 . S
C1010 C1009 1.524 . S
C1010 C1011 1.397 1_455 S
C1010 C1015 1.363 . S
C1011 H982 0.950 . S
C1011 C1010 1.397 1_655 S
C1011 C1012 1.334 . S
C1012 H983 0.950 . S
C1012 C1011 1.334 . S
C1012 C1013 1.287 . S
C1013 C1012 1.287 . S
C1013 C1014 1.524 1_655 S
C1013 H1016 0.999 . S
C1014 H984 0.950 . S
C1014 C1013 1.524 1_455 S
C1014 C1015 1.415 . S
C1015 H985 0.950 . S
C1015 C1010 1.363 . S
C1015 C1014 1.415 . S
H1016 C1013 0.999 . S
H1017 C998 0.913 . S
H1018 C1036 0.951 . S
H1019 C1038 0.951 . S
H1020 C1040 0.950 . S
H1021 C1041 0.950 . S
H1022 C1043 0.950 . S
H1023 C1046 0.950 . S
H1024 C1047 0.950 . S
H1025 C1049 0.950 . S
H1026 C1050 0.950 . S
H1027 C1051 0.951 . S
H1028 C1053 0.951 . S
H1029 C1055 0.950 . S
H1030 C1056 0.950 . S
H1031 C1058 0.950 . S
H1032 C1061 0.950 . S
H1033 C1062 0.950 . S
H1034 C1064 0.950 1_554 S
H1035 C1065 0.950 1_554 S
C1036 H1018 0.951 . S
C1036 C1037 1.366 1_556 S
C1036 C1038 1.388 . S
C1037 C1036 1.366 1_554 S
C1037 C1041 1.385 . S
C1038 H1019 0.951 . S
C1038 C1036 1.388 . S
C1038 C1039 1.366 . S
C1039 C1038 1.366 . S
C1039 C1040 1.414 1_556 S
C1039 C1042 1.499 . S
C1040 H1020 0.950 . S
C1040 C1039 1.414 1_554 S
C1040 C1041 1.374 . S
C1041 H1021 0.950 . S
C1041 C1037 1.385 . S
C1041 C1040 1.374 . S
C1042 C1039 1.499 . S
C1042 C1043 1.373 . S
C1042 C1044 1.389 . S
C1043 H1022 0.950 . S
C1043 C1042 1.373 . S
C1043 C1059 1.377 . S
C1044 C1042 1.389 . S
C1044 C1045 1.524 . S
C1044 C1058 1.377 . S
C1045 C1044 1.524 . S
C1045 C1046 1.397 . S
C1045 C1050 1.363 . S
C1046 H1023 0.950 . S
C1046 C1045 1.397 . S
C1046 C1047 1.334 1_545 S
C1047 H1024 0.950 . S
C1047 C1046 1.334 1_565 S
C1047 C1048 1.287 . S
C1048 C1047 1.287 . S
C1048 C1049 1.524 . S
C1048 H1067 0.913 . S
C1049 H1025 0.950 . S
C1049 C1048 1.524 . S
C1049 C1050 1.415 1_565 S
C1050 H1026 0.950 . S
C1050 C1045 1.363 . S
C1050 C1049 1.415 1_545 S
C1051 H1027 0.951 . S
C1051 C1052 1.366 . S
C1051 C1053 1.388 . S
C1052 C1051 1.366 . S
C1052 C1056 1.385 . S
C1053 H1028 0.951 . S
C1053 C1051 1.388 . S
C1053 C1054 1.366 . S
C1054 C1053 1.366 . S
C1054 C1055 1.414 . S
C1054 C1057 1.499 . S
C1055 H1029 0.950 . S
C1055 C1054 1.414 . S
C1055 C1056 1.374 . S
C1056 H1030 0.950 . S
C1056 C1052 1.385 . S
C1056 C1055 1.374 . S
C1057 C1054 1.499 . S
C1057 C1058 1.373 . S
C1057 C1059 1.389 . S
C1058 H1031 0.950 . S
C1058 C1044 1.377 . S
C1058 C1057 1.373 . S
C1059 C1043 1.377 . S
C1059 C1057 1.389 . S
C1059 C1060 1.524 . S
C1060 C1059 1.524 . S
C1060 C1061 1.397 . S
C1060 C1065 1.363 . S
C1061 H1032 0.950 . S
C1061 C1060 1.397 . S
C1061 C1062 1.334 . S
C1062 H1033 0.950 . S
C1062 C1061 1.334 . S
C1062 C1063 1.287 . S
C1063 C1062 1.287 . S
C1063 C1064 1.524 . S
C1063 H1066 0.999 . S
C1064 H1034 0.950 1_556 S
C1064 C1063 1.524 . S
C1064 C1065 1.415 . S
C1065 H1035 0.950 1_556 S
C1065 C1060 1.363 . S
C1065 C1064 1.415 . S
H1066 C1063 0.999 . S
H1067 C1048 0.913 . S
H1068 C1086 0.951 . S
H1069 C1088 0.951 . S
H1070 C1090 0.950 . S
H1071 C1091 0.950 . S
H1072 C1093 0.950 . S
H1073 C1096 0.950 . S
H1074 C1097 0.950 . S
H1075 C1099 0.950 . S
H1076 C1100 0.950 . S
H1077 C1101 0.951 . S
H1078 C1103 0.951 . S
H1079 C1105 0.950 . S
H1080 C1106 0.950 . S
H1081 C1108 0.950 . S
H1082 C1111 0.950 . S
H1083 C1112 0.950 1_554 S
H1084 C1114 0.950 . S
H1085 C1115 0.950 . S
C1086 H1068 0.951 . S
C1086 C1087 1.366 . S
C1086 C1088 1.388 1_554 S
C1087 C1086 1.366 . S
C1087 C1091 1.385 . S
C1088 H1069 0.951 . S
C1088 C1086 1.388 1_556 S
C1088 C1089 1.366 . S
C1089 C1088 1.366 . S
C1089 C1090 1.414 . S
C1089 C1092 1.499 . S
C1090 H1070 0.950 . S
C1090 C1089 1.414 . S
C1090 C1091 1.374 1_556 S
C1091 H1071 0.950 . S
C1091 C1087 1.385 . S
C1091 C1090 1.374 1_554 S
C1092 C1089 1.499 . S
C1092 C1093 1.373 . S
C1092 C1094 1.389 . S
C1093 H1072 0.950 . S
C1093 C1092 1.373 . S
C1093 C1109 1.377 . S
C1094 C1092 1.389 . S
C1094 C1095 1.524 . S
C1094 C1108 1.377 . S
C1095 C1094 1.524 . S
C1095 C1096 1.397 . S
C1095 C1100 1.363 . S
C1096 H1073 0.950 . S
C1096 C1095 1.397 . S
C1096 C1097 1.334 . S
C1097 H1074 0.950 . S
C1097 C1096 1.334 . S
C1097 C1098 1.287 . S
C1098 C1097 1.287 . S
C1098 C1099 1.524 . S
C1098 H1117 0.913 . S
C1099 H1075 0.950 . S
C1099 C1098 1.524 . S
C1099 C1100 1.415 . S
C1100 H1076 0.950 . S
C1100 C1095 1.363 . S
C1100 C1099 1.415 . S
C1101 H1077 0.951 . S
C1101 C1102 1.366 . S
C1101 C1103 1.388 . S
C1102 C1101 1.366 . S
C1102 C1106 1.385 . S
C1103 H1078 0.951 . S
C1103 C1101 1.388 . S
C1103 C1104 1.366 . S
C1104 C1103 1.366 . S
C1104 C1105 1.414 . S
C1104 C1107 1.499 . S
C1105 H1079 0.950 . S
C1105 C1104 1.414 . S
C1105 C1106 1.374 . S
C1106 H1080 0.950 . S
C1106 C1102 1.385 . S
C1106 C1105 1.374 . S
C1107 C1104 1.499 . S
C1107 C1108 1.373 . S
C1107 C1109 1.389 . S
C1108 H1081 0.950 . S
C1108 C1094 1.377 . S
C1108 C1107 1.373 . S
C1109 C1093 1.377 . S
C1109 C1107 1.389 . S
C1109 C1110 1.524 . S
C1110 C1109 1.524 . S
C1110 C1111 1.397 . S
C1110 C1115 1.363 . S
C1111 H1082 0.950 . S
C1111 C1110 1.397 . S
C1111 C1112 1.334 . S
C1112 H1083 0.950 1_556 S
C1112 C1111 1.334 . S
C1112 C1113 1.287 1_556 S
C1113 C1112 1.287 1_554 S
C1113 C1114 1.524 . S
C1113 H1116 0.999 . S
C1114 H1084 0.950 . S
C1114 C1113 1.524 . S
C1114 C1115 1.415 1_554 S
C1115 H1085 0.950 . S
C1115 C1110 1.363 . S
C1115 C1114 1.415 1_556 S
H1116 C1113 0.999 . S
H1117 C1098 0.913 . S
H1118 C1136 0.951 . S
H1119 C1138 0.951 . S
H1120 C1140 0.950 . S
H1121 C1141 0.950 . S
H1122 C1143 0.950 . S
H1123 C1146 0.950 1_554 S
H1124 C1147 0.950 1_554 S
H1125 C1149 0.950 . S
H1126 C1150 0.950 . S
H1127 C1151 0.951 . S
H1128 C1153 0.951 . S
H1129 C1155 0.950 . S
H1130 C1156 0.950 . S
H1131 C1158 0.950 . S
H1132 C1161 0.950 . S
H1133 C1162 0.950 . S
H1134 C1164 0.950 . S
H1135 C1165 0.950 . S
C1136 H1118 0.951 . S
C1136 C1137 1.366 1_556 S
C1136 C1138 1.388 . S
C1137 C1136 1.366 1_554 S
C1137 C1141 1.385 . S
C1138 H1119 0.951 . S
C1138 C1136 1.388 . S
C1138 C1139 1.366 . S
C1139 C1138 1.366 . S
C1139 C1140 1.414 1_556 S
C1139 C1142 1.499 . S
C1140 H1120 0.950 . S
C1140 C1139 1.414 1_554 S
C1140 C1141 1.374 . S
C1141 H1121 0.950 . S
C1141 C1137 1.385 . S
C1141 C1140 1.374 . S
C1142 C1139 1.499 . S
C1142 C1143 1.373 . S
C1142 C1144 1.389 . S
C1143 H1122 0.950 . S
C1143 C1142 1.373 . S
C1143 C1159 1.377 . S
C1144 C1142 1.389 . S
C1144 C1145 1.524 . S
C1144 C1158 1.377 . S
C1145 C1144 1.524 . S
C1145 C1146 1.397 . S
C1145 C1150 1.363 . S
C1146 H1123 0.950 1_556 S
C1146 C1145 1.397 . S
C1146 C1147 1.334 . S
C1147 H1124 0.950 1_556 S
C1147 C1146 1.334 . S
C1147 C1148 1.287 . S
C1148 C1147 1.287 . S
C1148 C1149 1.524 . S
C1148 H1167 0.913 . S
C1149 H1125 0.950 . S
C1149 C1148 1.524 . S
C1149 C1150 1.415 . S
C1150 H1126 0.950 . S
C1150 C1145 1.363 . S
C1150 C1149 1.415 . S
C1151 H1127 0.951 . S
C1151 C1152 1.366 . S
C1151 C1153 1.388 . S
C1152 C1151 1.366 . S
C1152 C1156 1.385 . S
C1153 H1128 0.951 . S
C1153 C1151 1.388 . S
C1153 C1154 1.366 . S
C1154 C1153 1.366 . S
C1154 C1155 1.414 . S
C1154 C1157 1.499 . S
C1155 H1129 0.950 . S
C1155 C1154 1.414 . S
C1155 C1156 1.374 . S
C1156 H1130 0.950 . S
C1156 C1152 1.385 . S
C1156 C1155 1.374 . S
C1157 C1154 1.499 . S
C1157 C1158 1.373 . S
C1157 C1159 1.389 . S
C1158 H1131 0.950 . S
C1158 C1144 1.377 . S
C1158 C1157 1.373 . S
C1159 C1143 1.377 . S
C1159 C1157 1.389 . S
C1159 C1160 1.524 . S
C1160 C1159 1.524 . S
C1160 C1161 1.397 . S
C1160 C1165 1.363 . S
C1161 H1132 0.950 . S
C1161 C1160 1.397 . S
C1161 C1162 1.334 . S
C1162 H1133 0.950 . S
C1162 C1161 1.334 . S
C1162 C1163 1.287 . S
C1163 C1162 1.287 . S
C1163 C1164 1.524 . S
C1163 H1166 0.999 . S
C1164 H1134 0.950 . S
C1164 C1163 1.524 . S
C1164 C1165 1.415 . S
C1165 H1135 0.950 . S
C1165 C1160 1.363 . S
C1165 C1164 1.415 . S
H1166 C1163 0.999 . S
H1167 C1148 0.913 . S
H1168 C1186 0.951 . S
H1169 C1188 0.951 . S
H1170 C1190 0.950 . S
H1171 C1191 0.950 . S
H1172 C1193 0.950 . S
H1173 C1196 0.950 . S
H1174 C1197 0.950 . S
H1175 C1199 0.950 . S
H1176 C1200 0.950 . S
H1177 C1201 0.951 . S
H1178 C1203 0.951 . S
H1179 C1205 0.950 . S
H1180 C1206 0.950 . S
H1181 C1208 0.950 . S
H1182 C1211 0.950 . S
H1183 C1212 0.950 . S
H1184 C1214 0.950 . S
H1185 C1215 0.950 . S
C1186 H1168 0.951 . S
C1186 C1187 1.386 . S
C1186 C1188 1.388 . S
C1187 C1186 1.386 . S
C1187 C1191 1.365 1_655 S
C1188 H1169 0.951 . S
C1188 C1186 1.388 . S
C1188 C1189 1.366 . S
C1189 C1188 1.366 . S
C1189 C1190 1.414 1_655 S
C1189 C1192 1.499 . S
C1190 H1170 0.950 . S
C1190 C1189 1.414 1_455 S
C1190 C1191 1.374 . S
C1191 H1171 0.950 . S
C1191 C1187 1.365 1_455 S
C1191 C1190 1.374 . S
C1192 C1189 1.499 . S
C1192 C1193 1.373 1_655 S
C1192 C1194 1.389 . S
C1193 H1172 0.950 . S
C1193 C1192 1.373 1_455 S
C1193 C1209 1.377 . S
C1194 C1192 1.389 . S
C1194 C1195 1.524 . S
C1194 C1208 1.377 . S
C1195 C1194 1.524 . S
C1195 C1196 1.397 . S
C1195 C1200 1.363 . S
C1196 H1173 0.950 . S
C1196 C1195 1.397 . S
C1196 C1197 1.334 . S
C1197 H1174 0.950 . S
C1197 C1196 1.334 . S
C1197 C1198 1.287 . S
C1198 C1197 1.287 . S
C1198 C1199 1.524 . S
C1198 H1217 0.913 . S
C1199 H1175 0.950 . S
C1199 C1198 1.524 . S
C1199 C1200 1.415 . S
C1200 H1176 0.950 . S
C1200 C1195 1.363 . S
C1200 C1199 1.415 . S
C1201 H1177 0.951 . S
C1201 C1202 1.366 1_455 S
C1201 C1203 1.388 . S
C1202 C1201 1.366 1_655 S
C1202 C1206 1.385 . S
C1203 H1178 0.951 . S
C1203 C1201 1.388 . S
C1203 C1204 1.366 1_455 S
C1204 C1203 1.366 1_655 S
C1204 C1205 1.414 . S
C1204 C1207 1.499 . S
C1205 H1179 0.950 . S
C1205 C1204 1.414 . S
C1205 C1206 1.374 . S
C1206 H1180 0.950 . S
C1206 C1202 1.385 . S
C1206 C1205 1.374 . S
C1207 C1204 1.499 . S
C1207 C1208 1.373 . S
C1207 C1209 1.389 1_655 S
C1208 H1181 0.950 . S
C1208 C1194 1.377 . S
C1208 C1207 1.373 . S
C1209 C1193 1.377 . S
C1209 C1207 1.389 1_455 S
C1209 C1210 1.524 . S
C1210 C1209 1.524 . S
C1210 C1211 1.397 . S
C1210 C1215 1.363 . S
C1211 H1182 0.950 . S
C1211 C1210 1.397 . S
C1211 C1212 1.334 . S
C1212 H1183 0.950 . S
C1212 C1211 1.334 . S
C1212 C1213 1.287 . S
C1213 C1212 1.287 . S
C1213 C1214 1.524 . S
C1213 H1216 0.999 . S
C1214 H1184 0.950 . S
C1214 C1213 1.524 . S
C1214 C1215 1.415 . S
C1215 H1185 0.950 . S
C1215 C1210 1.363 . S
C1215 C1214 1.415 . S
H1216 C1213 0.999 . S
H1217 C1198 0.913 . S
H1218 C1236 0.951 . S
H1219 C1238 0.951 . S
H1220 C1240 0.950 . S
H1221 C1241 0.950 . S
H1222 C1243 0.950 . S
H1223 C1246 0.950 . S
H1224 C1247 0.950 . S
H1225 C1249 0.950 . S
H1226 C1250 0.950 . S
H1227 C1251 0.951 . S
H1228 C1253 0.951 . S
H1229 C1255 0.950 . S
H1230 C1256 0.961 . S
H1231 C1258 0.950 . S
H1232 C1261 0.950 . S
H1233 C1262 0.950 . S
H1234 C1264 0.950 . S
H1235 C1265 0.950 . S
C1236 H1218 0.951 . S
C1236 C1237 1.366 . S
C1236 C1238 1.388 . S
C1237 C1236 1.366 . S
C1237 C1241 1.385 . S
C1238 H1219 0.951 . S
C1238 C1236 1.388 . S
C1238 C1239 1.366 . S
C1239 C1238 1.366 . S
C1239 C1240 1.414 . S
C1239 C1242 1.499 . S
C1240 H1220 0.950 . S
C1240 C1239 1.414 . S
C1240 C1241 1.374 . S
C1241 H1221 0.950 . S
C1241 C1237 1.385 . S
C1241 C1240 1.374 . S
C1242 C1239 1.499 . S
C1242 C1243 1.373 . S
C1242 C1244 1.389 . S
C1243 H1222 0.950 . S
C1243 C1242 1.373 . S
C1243 C1259 1.377 . S
C1244 C1242 1.389 . S
C1244 C1245 1.524 . S
C1244 C1258 1.377 . S
C1245 C1244 1.524 . S
C1245 C1246 1.397 . S
C1245 C1250 1.363 . S
C1246 H1223 0.950 . S
C1246 C1245 1.397 . S
C1246 C1247 1.334 . S
C1247 H1224 0.950 . S
C1247 C1246 1.334 . S
C1247 C1248 1.287 . S
C1248 C1247 1.287 . S
C1248 C1249 1.524 . S
C1248 H1267 0.913 . S
C1249 H1225 0.950 . S
C1249 C1248 1.524 . S
C1249 C1250 1.415 . S
C1250 H1226 0.950 . S
C1250 C1245 1.363 . S
C1250 C1249 1.415 . S
C1251 H1227 0.951 . S
C1251 C1252 1.366 . S
C1251 C1253 1.388 . S
C1252 C1251 1.366 . S
C1252 C1256 1.385 . S
C1253 H1228 0.951 . S
C1253 C1251 1.388 . S
C1253 C1254 1.366 . S
C1254 C1253 1.366 . S
C1254 C1255 1.414 . S
C1254 C1257 1.499 . S
C1255 H1229 0.950 . S
C1255 C1254 1.414 . S
C1255 C1256 1.374 . S
C1256 H1230 0.961 . S
C1256 C1252 1.385 . S
C1256 C1255 1.374 . S
C1257 C1254 1.499 . S
C1257 C1258 1.373 . S
C1257 C1259 1.389 . S
C1258 H1231 0.950 . S
C1258 C1244 1.377 . S
C1258 C1257 1.373 . S
C1259 C1243 1.377 . S
C1259 C1257 1.389 . S
C1259 C1260 1.524 . S
C1260 C1259 1.524 . S
C1260 C1261 1.397 1_565 S
C1260 C1265 1.363 . S
C1261 H1232 0.950 . S
C1261 C1260 1.397 1_545 S
C1261 C1262 1.334 . S
C1262 H1233 0.950 . S
C1262 C1261 1.334 . S
C1262 C1263 1.287 . S
C1263 C1262 1.287 . S
C1263 C1264 1.524 1_545 S
C1263 H1266 0.999 . S
C1264 H1234 0.950 . S
C1264 C1263 1.524 1_565 S
C1264 C1265 1.415 . S
C1265 H1235 0.950 . S
C1265 C1260 1.363 . S
C1265 C1264 1.415 . S
H1266 C1263 0.999 . S
H1267 C1248 0.913 . S
H1268 C1286 0.951 . S
H1269 C1288 0.951 . S
H1270 C1290 0.950 . S
H1271 C1291 0.950 . S
H1272 C1293 0.950 . S
H1273 C1296 0.950 . S
H1274 C1297 0.950 . S
H1275 C1299 0.950 . S
H1276 C1300 0.950 . S
H1277 C1301 0.951 . S
H1278 C1303 0.951 . S
H1279 C1305 0.950 . S
H1280 C1306 0.950 . S
H1281 C1308 0.950 . S
H1282 C1311 0.950 . S
H1283 C1312 0.950 . S
H1284 C1314 0.950 . S
H1285 C1315 0.950 . S
C1286 H1268 0.951 . S
C1286 C1287 1.366 . S
C1286 C1288 1.388 . S
C1287 C1286 1.366 . S
C1287 C1291 1.385 . S
C1288 H1269 0.951 . S
C1288 C1286 1.388 . S
C1288 C1289 1.366 . S
C1289 C1288 1.366 . S
C1289 C1290 1.414 . S
C1289 C1292 1.499 . S
C1290 H1270 0.950 . S
C1290 C1289 1.414 . S
C1290 C1291 1.374 . S
C1291 H1271 0.950 . S
C1291 C1287 1.385 . S
C1291 C1290 1.374 . S
C1292 C1289 1.499 . S
C1292 C1293 1.373 . S
C1292 C1294 1.389 . S
C1293 H1272 0.950 . S
C1293 C1292 1.373 . S
C1293 C1309 1.377 . S
C1294 C1292 1.389 . S
C1294 C1295 1.524 . S
C1294 C1308 1.377 . S
C1295 C1294 1.524 . S
C1295 C1296 1.397 . S
C1295 C1300 1.363 . S
C1296 H1273 0.950 . S
C1296 C1295 1.397 . S
C1296 C1297 1.334 . S
C1297 H1274 0.950 . S
C1297 C1296 1.334 . S
C1297 C1298 1.287 . S
C1298 C1297 1.287 . S
C1298 C1299 1.524 . S
C1298 H1317 0.913 . S
C1299 H1275 0.950 . S
C1299 C1298 1.524 . S
C1299 C1300 1.415 . S
C1300 H1276 0.950 . S
C1300 C1295 1.363 . S
C1300 C1299 1.415 . S
C1301 H1277 0.951 . S
C1301 C1302 1.366 . S
C1301 C1303 1.388 . S
C1302 C1301 1.366 . S
C1302 C1306 1.385 . S
C1303 H1278 0.951 . S
C1303 C1301 1.388 . S
C1303 C1304 1.366 . S
C1304 C1303 1.366 . S
C1304 C1305 1.414 . S
C1304 C1307 1.499 . S
C1305 H1279 0.950 . S
C1305 C1304 1.414 . S
C1305 C1306 1.374 . S
C1306 H1280 0.950 . S
C1306 C1302 1.385 . S
C1306 C1305 1.374 . S
C1307 C1304 1.499 . S
C1307 C1308 1.373 . S
C1307 C1309 1.389 . S
C1308 H1281 0.950 . S
C1308 C1294 1.377 . S
C1308 C1307 1.373 . S
C1309 C1293 1.377 . S
C1309 C1307 1.389 . S
C1309 C1310 1.524 . S
C1310 C1309 1.524 . S
C1310 C1311 1.397 . S
C1310 C1315 1.363 . S
C1311 H1282 0.950 . S
C1311 C1310 1.397 . S
C1311 C1312 1.334 . S
C1312 H1283 0.950 . S
C1312 C1311 1.334 . S
C1312 C1313 1.287 . S
C1313 C1312 1.287 . S
C1313 C1314 1.524 . S
C1313 H1316 0.999 . S
C1314 H1284 0.950 . S
C1314 C1313 1.524 . S
C1314 C1315 1.415 . S
C1315 H1285 0.950 . S
C1315 C1310 1.363 . S
C1315 C1314 1.415 . S
H1316 C1313 0.999 . S
H1317 C1298 0.913 . S
H1318 C1336 0.951 . S
H1319 C1338 0.951 . S
H1320 C1340 0.950 . S
H1321 C1341 0.950 . S
H1322 C1343 0.950 . S
H1323 C1346 0.950 . S
H1324 C1347 0.950 . S
H1325 C1349 0.950 . S
H1326 C1350 0.950 . S
H1327 C1351 0.951 . S
H1328 C1353 0.951 . S
H1329 C1355 0.950 . S
H1330 C1356 0.950 . S
H1331 C1358 0.950 . S
H1332 C1361 0.950 . S
H1333 C1362 0.950 . S
H1334 C1364 0.950 . S
H1335 C1365 0.950 . S
C1336 H1318 0.951 . S
C1336 C1337 1.366 . S
C1336 C1338 1.388 . S
C1337 C1336 1.366 . S
C1337 C1341 1.385 . S
C1338 H1319 0.951 . S
C1338 C1336 1.388 . S
C1338 C1339 1.366 . S
C1339 C1338 1.366 . S
C1339 C1340 1.414 . S
C1339 C1342 1.499 . S
C1340 H1320 0.950 . S
C1340 C1339 1.414 . S
C1340 C1341 1.374 . S
C1341 H1321 0.950 . S
C1341 C1337 1.385 . S
C1341 C1340 1.374 . S
C1342 C1339 1.499 . S
C1342 C1343 1.373 . S
C1342 C1344 1.389 . S
C1343 H1322 0.950 . S
C1343 C1342 1.373 . S
C1343 C1359 1.377 . S
C1344 C1342 1.389 . S
C1344 C1345 1.524 . S
C1344 C1358 1.377 . S
C1345 C1344 1.524 . S
C1345 C1346 1.397 . S
C1345 C1350 1.363 . S
C1346 H1323 0.950 . S
C1346 C1345 1.397 . S
C1346 C1347 1.334 . S
C1347 H1324 0.950 . S
C1347 C1346 1.334 . S
C1347 C1348 1.287 . S
C1348 C1347 1.287 . S
C1348 C1349 1.524 . S
C1348 H1367 0.913 . S
C1349 H1325 0.950 . S
C1349 C1348 1.524 . S
C1349 C1350 1.415 . S
C1350 H1326 0.950 . S
C1350 C1345 1.363 . S
C1350 C1349 1.415 . S
C1351 H1327 0.951 . S
C1351 C1352 1.366 . S
C1351 C1353 1.388 . S
C1352 C1351 1.366 . S
C1352 C1356 1.385 . S
C1353 H1328 0.951 . S
C1353 C1351 1.388 . S
C1353 C1354 1.366 . S
C1354 C1353 1.366 . S
C1354 C1355 1.414 . S
C1354 C1357 1.499 . S
C1355 H1329 0.950 . S
C1355 C1354 1.414 . S
C1355 C1356 1.374 . S
C1356 H1330 0.950 . S
C1356 C1352 1.385 . S
C1356 C1355 1.374 . S
C1357 C1354 1.499 . S
C1357 C1358 1.373 . S
C1357 C1359 1.389 . S
C1358 H1331 0.950 . S
C1358 C1344 1.377 . S
C1358 C1357 1.373 . S
C1359 C1343 1.377 . S
C1359 C1357 1.389 . S
C1359 C1360 1.524 . S
C1360 C1359 1.524 . S
C1360 C1361 1.397 . S
C1360 C1365 1.363 . S
C1361 H1332 0.950 . S
C1361 C1360 1.397 . S
C1361 C1362 1.334 . S
C1362 H1333 0.950 . S
C1362 C1361 1.334 . S
C1362 C1363 1.287 . S
C1363 C1362 1.287 . S
C1363 C1364 1.524 . S
C1363 H1366 0.999 . S
C1364 H1334 0.950 . S
C1364 C1363 1.524 . S
C1364 C1365 1.415 . S
C1365 H1335 0.950 . S
C1365 C1360 1.363 . S
C1365 C1364 1.415 . S
H1366 C1363 0.999 . S
H1367 C1348 0.913 . S
C187 C74 1.530 . S
C202 C106 1.507 . S
C252 C126 1.364 . S
C237 C85 1.376 . S
C302 C146 1.505 . S
C287 C52 1.523 . S
C352 C166 1.371 . S
C337 C63 1.385 1_655 S
C402 C107 1.513 1_565 S
C387 C30 1.495 . S
C437 C41 1.380 . S
C452 C127 1.364 . S
C487 C8 1.482 . S
C502 C147 1.505 . S
C537 C19 1.384 1_655 S
C552 C167 1.373 . S
C602 C97 0.721 . S
C587 C62 0.718 . S
C652 C117 0.766 . S
C637 C73 0.768 . S
C702 C137 0.740 . S
C687 C84 0.738 . S
C737 C51 0.742 . S
C752 C157 0.738 . S
C787 C18 0.719 1_655 S
C802 C100 0.718 . S
C852 C120 0.764 1_545 S
C837 C29 0.764 . S
C902 C140 0.739 . S
C887 C40 0.738 . S
C937 C7 0.742 . S
C952 C160 0.747 . S
C987 C60 1.278 . S
C1002 C90 1.451 . S
C1037 C71 1.402 . S
C1052 C110 1.514 . S
C1102 C130 1.426 . S
C1087 C82 1.231 . S
C1152 C150 1.538 . S
C1137 C49 1.422 . S
C1187 C16 1.278 1_655 S
C1202 C92 1.453 . S
C1252 C112 1.515 . S
C1237 C27 1.258 . S
C1302 C132 1.427 . S
C1287 C38 1.282 . S
C1337 C5 1.280 . S
C1352 C152 1.542 . S
