# Generated by pormake.
# Topology iac, (4,6)-cn, num edge types: 1
# Building blocks:
#     Node 0, Type 0, BuildingBlock: CEKHIL_clean_sbu_0, # of connection points: 4
#     Node 1, Type 0, BuildingBlock: CEKHIL_clean_sbu_0, # of connection points: 4
#     Node 2, Type 0, BuildingBlock: CEKHIL_clean_sbu_0, # of connection points: 4
#     Node 3, Type 0, BuildingBlock: CEKHIL_clean_sbu_0, # of connection points: 4
#     Node 4, Type 0, BuildingBlock: CEKHIL_clean_sbu_0, # of connection points: 4
#     Node 5, Type 0, BuildingBlock: CEKHIL_clean_sbu_0, # of connection points: 4
#     Node 6, Type 0, BuildingBlock: CEKHIL_clean_sbu_0, # of connection points: 4
#     Node 7, Type 0, BuildingBlock: CEKHIL_clean_sbu_0, # of connection points: 4
#     Node 8, Type 0, BuildingBlock: CEKHIL_clean_sbu_0, # of connection points: 4
#     Node 9, Type 0, BuildingBlock: CEKHIL_clean_sbu_0, # of connection points: 4
#     Node 10, Type 0, BuildingBlock: CEKHIL_clean_sbu_0, # of connection points: 4
#     Node 11, Type 0, BuildingBlock: CEKHIL_clean_sbu_0, # of connection points: 4
#     Node 12, Type 0, BuildingBlock: CEKHIL_clean_sbu_0, # of connection points: 4
#     Node 13, Type 0, BuildingBlock: CEKHIL_clean_sbu_0, # of connection points: 4
#     Node 14, Type 0, BuildingBlock: CEKHIL_clean_sbu_0, # of connection points: 4
#     Node 15, Type 0, BuildingBlock: CEKHIL_clean_sbu_0, # of connection points: 4
#     Node 16, Type 0, BuildingBlock: CEKHIL_clean_sbu_0, # of connection points: 4
#     Node 17, Type 0, BuildingBlock: CEKHIL_clean_sbu_0, # of connection points: 4
#     Node 18, Type 0, BuildingBlock: CEKHIL_clean_sbu_0, # of connection points: 4
#     Node 19, Type 0, BuildingBlock: CEKHIL_clean_sbu_0, # of connection points: 4
#     Node 20, Type 0, BuildingBlock: CEKHIL_clean_sbu_0, # of connection points: 4
#     Node 21, Type 0, BuildingBlock: CEKHIL_clean_sbu_0, # of connection points: 4
#     Node 22, Type 0, BuildingBlock: CEKHIL_clean_sbu_0, # of connection points: 4
#     Node 23, Type 0, BuildingBlock: CEKHIL_clean_sbu_0, # of connection points: 4
#     Node 24, Type 1, BuildingBlock: JUFBIX_clean_sbu_0, # of connection points: 6
#     Node 25, Type 1, BuildingBlock: JUFBIX_clean_sbu_0, # of connection points: 6
#     Node 26, Type 1, BuildingBlock: JUFBIX_clean_sbu_0, # of connection points: 6
#     Node 27, Type 1, BuildingBlock: JUFBIX_clean_sbu_0, # of connection points: 6
#     Node 28, Type 1, BuildingBlock: JUFBIX_clean_sbu_0, # of connection points: 6
#     Node 29, Type 1, BuildingBlock: JUFBIX_clean_sbu_0, # of connection points: 6
#     Node 30, Type 1, BuildingBlock: JUFBIX_clean_sbu_0, # of connection points: 6
#     Node 31, Type 1, BuildingBlock: JUFBIX_clean_sbu_0, # of connection points: 6
#     Node 32, Type 1, BuildingBlock: JUFBIX_clean_sbu_0, # of connection points: 6
#     Node 33, Type 1, BuildingBlock: JUFBIX_clean_sbu_0, # of connection points: 6
#     Node 34, Type 1, BuildingBlock: JUFBIX_clean_sbu_0, # of connection points: 6
#     Node 35, Type 1, BuildingBlock: JUFBIX_clean_sbu_0, # of connection points: 6
#     Node 36, Type 1, BuildingBlock: JUFBIX_clean_sbu_0, # of connection points: 6
#     Node 37, Type 1, BuildingBlock: JUFBIX_clean_sbu_0, # of connection points: 6
#     Node 38, Type 1, BuildingBlock: JUFBIX_clean_sbu_0, # of connection points: 6
#     Node 39, Type 1, BuildingBlock: JUFBIX_clean_sbu_0, # of connection points: 6
#     Edge 40, Type (0, 1), BuildingBlock: EZIPEK_clean_linker_0, # of connection points: 2
#     Edge 41, Type (0, 1), BuildingBlock: EZIPEK_clean_linker_0, # of connection points: 2
#     Edge 42, Type (0, 1), BuildingBlock: EZIPEK_clean_linker_0, # of connection points: 2
#     Edge 43, Type (0, 1), BuildingBlock: EZIPEK_clean_linker_0, # of connection points: 2
#     Edge 44, Type (0, 1), BuildingBlock: EZIPEK_clean_linker_0, # of connection points: 2
#     Edge 45, Type (0, 1), BuildingBlock: EZIPEK_clean_linker_0, # of connection points: 2
#     Edge 46, Type (0, 1), BuildingBlock: EZIPEK_clean_linker_0, # of connection points: 2
#     Edge 47, Type (0, 1), BuildingBlock: EZIPEK_clean_linker_0, # of connection points: 2
#     Edge 48, Type (0, 1), BuildingBlock: EZIPEK_clean_linker_0, # of connection points: 2
#     Edge 49, Type (0, 1), BuildingBlock: EZIPEK_clean_linker_0, # of connection points: 2
#     Edge 50, Type (0, 1), BuildingBlock: EZIPEK_clean_linker_0, # of connection points: 2
#     Edge 51, Type (0, 1), BuildingBlock: EZIPEK_clean_linker_0, # of connection points: 2
#     Edge 52, Type (0, 1), BuildingBlock: EZIPEK_clean_linker_0, # of connection points: 2
#     Edge 53, Type (0, 1), BuildingBlock: EZIPEK_clean_linker_0, # of connection points: 2
#     Edge 54, Type (0, 1), BuildingBlock: EZIPEK_clean_linker_0, # of connection points: 2
#     Edge 55, Type (0, 1), BuildingBlock: EZIPEK_clean_linker_0, # of connection points: 2
#     Edge 56, Type (0, 1), BuildingBlock: EZIPEK_clean_linker_0, # of connection points: 2
#     Edge 57, Type (0, 1), BuildingBlock: EZIPEK_clean_linker_0, # of connection points: 2
#     Edge 58, Type (0, 1), BuildingBlock: EZIPEK_clean_linker_0, # of connection points: 2
#     Edge 59, Type (0, 1), BuildingBlock: EZIPEK_clean_linker_0, # of connection points: 2
#     Edge 60, Type (0, 1), BuildingBlock: EZIPEK_clean_linker_0, # of connection points: 2
#     Edge 61, Type (0, 1), BuildingBlock: EZIPEK_clean_linker_0, # of connection points: 2
#     Edge 62, Type (0, 1), BuildingBlock: EZIPEK_clean_linker_0, # of connection points: 2
#     Edge 63, Type (0, 1), BuildingBlock: EZIPEK_clean_linker_0, # of connection points: 2
#     Edge 64, Type (0, 1), BuildingBlock: EZIPEK_clean_linker_0, # of connection points: 2
#     Edge 65, Type (0, 1), BuildingBlock: EZIPEK_clean_linker_0, # of connection points: 2
#     Edge 66, Type (0, 1), BuildingBlock: EZIPEK_clean_linker_0, # of connection points: 2
#     Edge 67, Type (0, 1), BuildingBlock: EZIPEK_clean_linker_0, # of connection points: 2
#     Edge 68, Type (0, 1), BuildingBlock: EZIPEK_clean_linker_0, # of connection points: 2
#     Edge 69, Type (0, 1), BuildingBlock: EZIPEK_clean_linker_0, # of connection points: 2
#     Edge 70, Type (0, 1), BuildingBlock: EZIPEK_clean_linker_0, # of connection points: 2
#     Edge 71, Type (0, 1), BuildingBlock: EZIPEK_clean_linker_0, # of connection points: 2
#     Edge 72, Type (0, 1), BuildingBlock: EZIPEK_clean_linker_0, # of connection points: 2
#     Edge 73, Type (0, 1), BuildingBlock: EZIPEK_clean_linker_0, # of connection points: 2
#     Edge 74, Type (0, 1), BuildingBlock: EZIPEK_clean_linker_0, # of connection points: 2
#     Edge 75, Type (0, 1), BuildingBlock: EZIPEK_clean_linker_0, # of connection points: 2
#     Edge 76, Type (0, 1), BuildingBlock: EZIPEK_clean_linker_0, # of connection points: 2
#     Edge 77, Type (0, 1), BuildingBlock: EZIPEK_clean_linker_0, # of connection points: 2
#     Edge 78, Type (0, 1), BuildingBlock: EZIPEK_clean_linker_0, # of connection points: 2
#     Edge 79, Type (0, 1), BuildingBlock: EZIPEK_clean_linker_0, # of connection points: 2
#     Edge 80, Type (0, 1), BuildingBlock: EZIPEK_clean_linker_0, # of connection points: 2
#     Edge 81, Type (0, 1), BuildingBlock: EZIPEK_clean_linker_0, # of connection points: 2
#     Edge 82, Type (0, 1), BuildingBlock: EZIPEK_clean_linker_0, # of connection points: 2
#     Edge 83, Type (0, 1), BuildingBlock: EZIPEK_clean_linker_0, # of connection points: 2
#     Edge 84, Type (0, 1), BuildingBlock: EZIPEK_clean_linker_0, # of connection points: 2
#     Edge 85, Type (0, 1), BuildingBlock: EZIPEK_clean_linker_0, # of connection points: 2
#     Edge 86, Type (0, 1), BuildingBlock: EZIPEK_clean_linker_0, # of connection points: 2
#     Edge 87, Type (0, 1), BuildingBlock: EZIPEK_clean_linker_0, # of connection points: 2
#     Edge 88, Type (0, 1), BuildingBlock: EZIPEK_clean_linker_0, # of connection points: 2
#     Edge 89, Type (0, 1), BuildingBlock: EZIPEK_clean_linker_0, # of connection points: 2
#     Edge 90, Type (0, 1), BuildingBlock: EZIPEK_clean_linker_0, # of connection points: 2
#     Edge 91, Type (0, 1), BuildingBlock: EZIPEK_clean_linker_0, # of connection points: 2
#     Edge 92, Type (0, 1), BuildingBlock: EZIPEK_clean_linker_0, # of connection points: 2
#     Edge 93, Type (0, 1), BuildingBlock: EZIPEK_clean_linker_0, # of connection points: 2
#     Edge 94, Type (0, 1), BuildingBlock: EZIPEK_clean_linker_0, # of connection points: 2
#     Edge 95, Type (0, 1), BuildingBlock: EZIPEK_clean_linker_0, # of connection points: 2
#     Edge 96, Type (0, 1), BuildingBlock: EZIPEK_clean_linker_0, # of connection points: 2
#     Edge 97, Type (0, 1), BuildingBlock: EZIPEK_clean_linker_0, # of connection points: 2
#     Edge 98, Type (0, 1), BuildingBlock: EZIPEK_clean_linker_0, # of connection points: 2
#     Edge 99, Type (0, 1), BuildingBlock: EZIPEK_clean_linker_0, # of connection points: 2
#     Edge 100, Type (0, 1), BuildingBlock: EZIPEK_clean_linker_0, # of connection points: 2
#     Edge 101, Type (0, 1), BuildingBlock: EZIPEK_clean_linker_0, # of connection points: 2
#     Edge 102, Type (0, 1), BuildingBlock: EZIPEK_clean_linker_0, # of connection points: 2
#     Edge 103, Type (0, 1), BuildingBlock: EZIPEK_clean_linker_0, # of connection points: 2
#     Edge 104, Type (0, 1), BuildingBlock: EZIPEK_clean_linker_0, # of connection points: 2
#     Edge 105, Type (0, 1), BuildingBlock: EZIPEK_clean_linker_0, # of connection points: 2
#     Edge 106, Type (0, 1), BuildingBlock: EZIPEK_clean_linker_0, # of connection points: 2
#     Edge 107, Type (0, 1), BuildingBlock: EZIPEK_clean_linker_0, # of connection points: 2
#     Edge 108, Type (0, 1), BuildingBlock: EZIPEK_clean_linker_0, # of connection points: 2
#     Edge 109, Type (0, 1), BuildingBlock: EZIPEK_clean_linker_0, # of connection points: 2
#     Edge 110, Type (0, 1), BuildingBlock: EZIPEK_clean_linker_0, # of connection points: 2
#     Edge 111, Type (0, 1), BuildingBlock: EZIPEK_clean_linker_0, # of connection points: 2
#     Edge 112, Type (0, 1), BuildingBlock: EZIPEK_clean_linker_0, # of connection points: 2
#     Edge 113, Type (0, 1), BuildingBlock: EZIPEK_clean_linker_0, # of connection points: 2
#     Edge 114, Type (0, 1), BuildingBlock: EZIPEK_clean_linker_0, # of connection points: 2
#     Edge 115, Type (0, 1), BuildingBlock: EZIPEK_clean_linker_0, # of connection points: 2
#     Edge 116, Type (0, 1), BuildingBlock: EZIPEK_clean_linker_0, # of connection points: 2
#     Edge 117, Type (0, 1), BuildingBlock: EZIPEK_clean_linker_0, # of connection points: 2
#     Edge 118, Type (0, 1), BuildingBlock: EZIPEK_clean_linker_0, # of connection points: 2
#     Edge 119, Type (0, 1), BuildingBlock: EZIPEK_clean_linker_0, # of connection points: 2
#     Edge 120, Type (0, 1), BuildingBlock: EZIPEK_clean_linker_0, # of connection points: 2
#     Edge 121, Type (0, 1), BuildingBlock: EZIPEK_clean_linker_0, # of connection points: 2
#     Edge 122, Type (0, 1), BuildingBlock: EZIPEK_clean_linker_0, # of connection points: 2
#     Edge 123, Type (0, 1), BuildingBlock: EZIPEK_clean_linker_0, # of connection points: 2
#     Edge 124, Type (0, 1), BuildingBlock: EZIPEK_clean_linker_0, # of connection points: 2
#     Edge 125, Type (0, 1), BuildingBlock: EZIPEK_clean_linker_0, # of connection points: 2
#     Edge 126, Type (0, 1), BuildingBlock: EZIPEK_clean_linker_0, # of connection points: 2
#     Edge 127, Type (0, 1), BuildingBlock: EZIPEK_clean_linker_0, # of connection points: 2
#     Edge 128, Type (0, 1), BuildingBlock: EZIPEK_clean_linker_0, # of connection points: 2
#     Edge 129, Type (0, 1), BuildingBlock: EZIPEK_clean_linker_0, # of connection points: 2
#     Edge 130, Type (0, 1), BuildingBlock: EZIPEK_clean_linker_0, # of connection points: 2
#     Edge 131, Type (0, 1), BuildingBlock: EZIPEK_clean_linker_0, # of connection points: 2
#     Edge 132, Type (0, 1), BuildingBlock: EZIPEK_clean_linker_0, # of connection points: 2
#     Edge 133, Type (0, 1), BuildingBlock: EZIPEK_clean_linker_0, # of connection points: 2
#     Edge 134, Type (0, 1), BuildingBlock: EZIPEK_clean_linker_0, # of connection points: 2
#     Edge 135, Type (0, 1), BuildingBlock: EZIPEK_clean_linker_0, # of connection points: 2
# Relax obj value: 0.255
# Max RMSD: 0.246
# Mean RMSD: 0.116
data_MOF--net-iac--node1-CEKHIL_clean_sbu_0--node2-JUFBIX_clean_sbu_0--edge1-EZIPEK_clean_linker_0
_symmetry_space_group_name_H-M    P1
_symmetry_Int_Tables_number       1
_symmetry_cell_setting            triclinic
loop_
_symmetry_equiv_pos_as_xyz
'x, y, z'
_cell_length_a     40.390345
_cell_length_b     40.965731
_cell_length_c     40.316694
_cell_angle_alpha  88.746357
_cell_angle_beta   87.824867
_cell_angle_gamma 88.465954
loop_
_atom_site_label
_atom_site_type_symbol
_atom_site_fract_x
_atom_site_fract_y
_atom_site_fract_z
_atom_type_partial_charge
Co0 Co 0.04196 0.30106 0.16065 0.0
O1 O 0.99369 0.30493 0.15341 0.0
O2 O 0.01465 0.28938 0.20033 0.0
C3 C 0.05387 0.35297 0.1354 0.0
O4 O 0.08822 0.2969 0.18398 0.0
Co5 Co 0.09584 0.29506 0.11286 0.0
O6 O 0.13003 0.30038 0.14678 0.0
C7 C 0.05642 0.2363 0.12034 0.0
C8 C 0.98805 0.29605 0.18424 0.0
C9 C 0.11984 0.29889 0.17692 0.0
O10 O 0.042 0.25192 0.14507 0.0
O11 O 0.07891 0.25024 0.10239 0.0
O12 O 0.04308 0.34916 0.16595 0.0
O13 O 0.05698 0.32533 0.11979 0.0
Co14 Co 0.07335 0.792 0.42652 0.0
O15 O 0.12083 0.79047 0.42971 0.0
O16 O 0.09301 0.78701 0.38321 0.0
C17 C 0.06212 0.83466 0.45912 0.0
O18 O 0.02623 0.79405 0.41223 0.0
Co19 Co 0.02419 0.78055 0.48677 0.0
O20 O 0.98879 0.78843 0.45444 0.0
C21 C 0.06175 0.72527 0.457 0.0
C22 C 0.12113 0.78774 0.39757 0.0
C23 C 0.9963 0.79289 0.42374 0.0
O24 O 0.07178 0.74336 0.4325 0.0
O25 O 0.04518 0.73595 0.48235 0.0
O26 O 0.07289 0.83938 0.42864 0.0
O27 O 0.06218 0.80472 0.46987 0.0
Co28 Co 0.53774 0.80097 0.66119 0.0
O29 O 0.48972 0.80469 0.65217 0.0
O30 O 0.50866 0.79015 0.7002 0.0
C31 C 0.55066 0.85268 0.63567 0.0
O32 O 0.58362 0.79697 0.68564 0.0
Co33 Co 0.59274 0.79442 0.61425 0.0
O34 O 0.62617 0.7987 0.64899 0.0
C35 C 0.55376 0.73542 0.62235 0.0
C36 C 0.48273 0.79648 0.68291 0.0
C37 C 0.61547 0.79794 0.67899 0.0
O38 O 0.53845 0.75149 0.64633 0.0
O39 O 0.5765 0.74922 0.6046 0.0
O40 O 0.53872 0.84925 0.66585 0.0
O41 O 0.55397 0.82483 0.62048 0.0
Co42 Co 0.56517 0.28388 0.92804 0.0
O43 O 0.61219 0.28717 0.93238 0.0
O44 O 0.5868 0.27629 0.88588 0.0
C45 C 0.54853 0.32849 0.95543 0.0
O46 O 0.51826 0.28048 0.91328 0.0
Co47 Co 0.51702 0.27252 0.98911 0.0
O48 O 0.48155 0.27806 0.95659 0.0
C49 C 0.56196 0.21979 0.96602 0.0
C50 C 0.6141 0.281 0.90083 0.0
C51 C 0.48846 0.28044 0.92557 0.0
O52 O 0.5686 0.23608 0.93921 0.0
O53 O 0.54467 0.23121 0.99055 0.0
O54 O 0.56027 0.33111 0.92505 0.0
O55 O 0.55152 0.29988 0.96942 0.0
Co56 Co 0.16403 0.01314 0.33011 0.0
O57 O 0.16442 0.96687 0.32223 0.0
O58 O 0.20721 0.9996 0.31404 0.0
C59 C 0.13719 0.01299 0.37954 0.0
O60 O 0.17441 0.06054 0.33566 0.0
Co61 Co 0.09943 0.056 0.33668 0.0
O62 O 0.12915 0.0932 0.342 0.0
C63 C 0.12402 0.03408 0.27082 0.0
C64 C 0.19517 0.97068 0.31232 0.0
C65 C 0.16046 0.08872 0.33977 0.0
O66 O 0.15067 0.02255 0.2834 0.0
O67 O 0.09922 0.04431 0.28877 0.0
O68 O 0.16862 1.00514 0.37765 0.0
O69 O 0.1226 0.01667 0.35179 0.0
Co70 Co 0.26614 0.91409 0.53872 0.0
O71 O 0.21843 0.91408 0.54157 0.0
O72 O 0.24985 0.95652 0.55116 0.0
C73 C 0.27488 0.88906 0.49059 0.0
O74 O 0.31492 0.92428 0.53652 0.0
Co75 Co 0.30915 0.84975 0.54065 0.0
O76 O 0.34722 0.87883 0.53265 0.0
C77 C 0.2718 0.87153 0.60009 0.0
C78 C 0.22057 0.94452 0.54961 0.0
C79 C 0.34336 0.90979 0.53238 0.0
O80 O 0.2672 0.89985 0.58657 0.0
O81 O 0.28487 0.84713 0.58476 0.0
O82 O 0.26566 0.9197 0.49073 0.0
O83 O 0.27355 0.87382 0.51901 0.0
Co84 Co 0.41525 0.07246 0.77763 0.0
O85 O 0.41172 0.11861 0.77008 0.0
O86 O 0.3716 0.08334 0.76304 0.0
C87 C 0.43944 0.07531 0.82653 0.0
O88 O 0.40939 0.02398 0.78448 0.0
Co89 Co 0.48351 0.03584 0.78472 0.0
O90 O 0.45634 0.99892 0.80142 0.0
C91 C 0.46159 0.06099 0.71963 0.0
C92 C 0.38134 0.11334 0.76275 0.0
C93 C 0.42544 0.99914 0.79623 0.0
O94 O 0.43206 0.06656 0.73114 0.0
O95 O 0.48594 0.05178 0.73732 0.0
O96 O 0.40745 0.07834 0.82491 0.0
O97 O 0.45536 0.0726 0.79833 0.0
Co98 Co 0.30242 0.16909 0.02813 0.0
O99 O 0.35083 0.17685 0.02574 0.0
O100 O 0.3298 0.12986 0.039 0.0
C101 C 0.29131 0.19588 0.97652 0.0
O102 O 0.25549 0.14658 0.02998 0.0
Co103 Co 0.24904 0.21858 0.03421 0.0
O104 O 0.21495 0.18444 0.03165 0.0
C105 C 0.28885 0.20956 0.09288 0.0
C106 C 0.35656 0.14633 0.03359 0.0
C107 C 0.22398 0.15449 0.03014 0.0
O108 O 0.2999 0.18282 0.07863 0.0
O109 O 0.27075 0.22984 0.07659 0.0
O110 O 0.30275 0.16599 0.97881 0.0
O111 O 0.28835 0.20977 0.00524 0.0
Co112 Co 0.76116 0.40352 0.04572 0.0
O113 O 0.71545 0.39125 0.04824 0.0
O114 O 0.73392 0.44155 0.0536 0.0
C115 C 0.77673 0.37506 1.00054 0.0
O116 O 0.80501 0.42626 0.04459 0.0
Co117 Co 0.81999 0.35323 0.05232 0.0
O118 O 0.84722 0.39035 0.036 0.0
C119 C 0.7788 0.37311 0.11115 0.0
C120 C 0.70912 0.42208 0.05339 0.0
C121 C 0.83572 0.41952 0.03825 0.0
O122 O 0.76394 0.39555 0.09442 0.0
O123 O 0.80016 0.35269 0.09878 0.0
O124 O 0.7616 0.40333 0.99726 0.0
O125 O 0.77917 0.36387 0.0305 0.0
Co126 Co 0.91625 0.57471 0.28547 0.0
O127 O 0.90703 0.62043 0.28043 0.0
O128 O 0.8766 0.5812 0.26078 0.0
C129 C 0.92665 0.57301 0.33927 0.0
O130 O 0.91775 0.52518 0.28794 0.0
Co131 Co 0.98699 0.55042 0.30539 0.0
O132 O 0.96511 0.50767 0.31066 0.0
C133 C 0.97599 0.57508 0.23798 0.0
C134 C 0.88093 0.61214 0.26517 0.0
C135 C 0.93648 0.50231 0.30016 0.0
O136 O 0.94445 0.57498 0.24338 0.0
O137 O 0.99712 0.56968 0.26041 0.0
O138 O 0.89612 0.57463 0.33029 0.0
O139 O 0.9488 0.57807 0.31599 0.0
Co140 Co 0.80306 0.6711 0.53217 0.0
O141 O 0.85145 0.67865 0.52939 0.0
O142 O 0.83022 0.63176 0.54287 0.0
C143 C 0.79161 0.69791 0.48086 0.0
O144 O 0.7562 0.64858 0.53419 0.0
Co145 Co 0.74992 0.72005 0.53993 0.0
O146 O 0.71567 0.68633 0.53592 0.0
C147 C 0.78948 0.71013 0.5982 0.0
C148 C 0.85702 0.64812 0.53737 0.0
C149 C 0.72471 0.65643 0.53405 0.0
O150 O 0.80167 0.68467 0.58253 0.0
O151 O 0.76922 0.72989 0.58403 0.0
O152 O 0.80286 0.66795 0.48309 0.0
O153 O 0.7888 0.71198 0.50958 0.0
Co154 Co 0.66678 0.51314 0.83034 0.0
O155 O 0.66955 0.46742 0.8209 0.0
O156 O 0.7105 0.50247 0.813 0.0
C157 C 0.64155 0.50786 0.8805 0.0
O158 O 0.67376 0.56118 0.83782 0.0
Co159 Co 0.59944 0.5507 0.84152 0.0
O160 O 0.62661 0.58783 0.85403 0.0
C161 C 0.62388 0.53444 0.77341 0.0
C162 C 0.70007 0.47284 0.81153 0.0
C163 C 0.65777 0.58682 0.84793 0.0
O164 O 0.65138 0.52341 0.78463 0.0
O165 O 0.59916 0.5426 0.7926 0.0
O166 O 0.67342 0.50339 0.87705 0.0
O167 O 0.62602 0.51247 0.85334 0.0
Co168 Co 0.04893 0.80604 0.91305 0.0
O169 O 0.09773 0.80754 0.91664 0.0
O170 O 0.07346 0.79196 0.87242 0.0
C171 C 0.04071 0.85948 0.93548 0.0
O172 O 1.00139 0.8024 0.89298 0.0
Co173 Co 0.99677 0.80751 0.96386 0.0
O174 O 0.96075 0.80804 0.93119 0.0
C175 C 0.03528 0.74589 0.96095 0.0
C176 C 0.10102 0.79806 0.8861 0.0
C177 C 0.9699 0.80373 0.90109 0.0
O178 O 0.04863 0.75797 0.93341 0.0
O179 O 0.01498 0.76326 0.97865 0.0
O180 O 0.04812 0.85427 0.90437 0.0
O181 O 0.03726 0.83238 0.95273 0.0
Co182 Co 1.00407 0.34213 0.65375 0.0
O183 O 0.9579 0.34368 0.64437 0.0
O184 O 0.98075 0.31546 0.68591 0.0
C185 C 1.01 0.39586 0.64875 0.0
O186 O 0.04938 0.33501 0.67215 0.0
Co187 Co 0.05905 0.3668 0.604 0.0
O188 O 0.08984 0.35771 0.64042 0.0
C189 C 0.03563 0.29872 0.60162 0.0
C190 C 0.95432 0.32541 0.6709 0.0
C191 C 0.07984 0.34149 0.66599 0.0
O192 O 0.01307 0.30388 0.62439 0.0
O193 O 0.05485 0.32062 0.58946 0.0
O194 O 0.99858 0.38335 0.67648 0.0
O195 O 0.0159 0.37628 0.62447 0.0
Co196 Co 0.55388 0.30649 0.41197 0.0
O197 O 0.60199 0.30791 0.41988 0.0
O198 O 0.58216 0.29403 0.37285 0.0
C199 C 0.54394 0.35949 0.43532 0.0
O200 O 0.50749 0.30352 0.38864 0.0
Co201 Co 0.49963 0.30575 0.45967 0.0
O202 O 0.46525 0.30575 0.42552 0.0
C203 C 0.53712 0.24383 0.45555 0.0
C204 C 0.60825 0.29958 0.38938 0.0
C205 C 0.47564 0.30339 0.39555 0.0
O206 O 0.55261 0.25754 0.43001 0.0
O207 O 0.51569 0.26031 0.4728 0.0
O208 O 0.55344 0.35489 0.40464 0.0
O209 O 0.53977 0.33203 0.45184 0.0
Co210 Co 0.51153 0.82367 0.14476 0.0
O211 O 0.46594 0.81967 0.13421 0.0
O212 O 0.48871 0.80065 0.18037 0.0
C213 C 0.51205 0.87665 0.13063 0.0
O214 O 0.55604 0.8238 0.16549 0.0
Co215 Co 0.56706 0.84604 0.09515 0.0
O216 O 0.5947 0.84974 0.13444 0.0
C217 C 0.54944 0.77588 0.10155 0.0
C218 C 0.46222 0.8068 0.16377 0.0
C219 C 0.58533 0.83448 0.16081 0.0
O220 O 0.52547 0.78199 0.1226 0.0
O221 O 0.56734 0.79774 0.08718 0.0
O222 O 0.50126 0.86735 0.15985 0.0
O223 O 0.52164 0.85403 0.11031 0.0
Co224 Co 0.89908 0.07642 0.7847 0.0
O225 O 0.89416 0.12221 0.77686 0.0
O226 O 0.86259 0.08473 0.75608 0.0
C227 C 0.90451 0.08131 0.83933 0.0
O228 O 0.89502 0.02784 0.78748 0.0
Co229 Co 0.96159 0.0435 0.81454 0.0
O230 O 0.94291 1.00225 0.79968 0.0
C231 C 0.96314 0.06675 0.74507 0.0
C232 C 0.86834 0.11534 0.76031 0.0
C233 C 0.91358 1.00213 0.78931 0.0
O234 O 0.93163 0.07239 0.74604 0.0
O235 O 0.97991 0.05875 0.77038 0.0
O236 O 0.87507 0.08134 0.82743 0.0
O237 O 0.92911 0.07904 0.81816 0.0
Co238 Co 0.82641 0.18016 0.50665 0.0
O239 O 0.8728 0.1875 0.51153 0.0
O240 O 0.84534 0.14554 0.53337 0.0
C241 C 0.82961 0.19002 0.45195 0.0
O242 O 0.77985 0.16347 0.50799 0.0
Co243 Co 0.77588 0.22988 0.47622 0.0
O244 O 0.74272 0.19523 0.48165 0.0
C245 C 0.79251 0.23145 0.54783 0.0
C246 C 0.8735 0.15941 0.52703 0.0
C247 C 0.75027 0.17013 0.49918 0.0
O248 O 0.81341 0.20723 0.54584 0.0
O249 O 0.77749 0.24437 0.52322 0.0
O250 O 0.83678 0.16103 0.46364 0.0
O251 O 0.82046 0.21187 0.47309 0.0
Co252 Co 0.68235 0.01663 0.32495 0.0
O253 O 0.68037 0.97058 0.32054 0.0
O254 O 0.72189 1.00152 0.30149 0.0
C255 C 0.66711 0.01422 0.37833 0.0
O256 O 0.69341 0.06438 0.32542 0.0
Co257 Co 0.62137 0.05946 0.34827 0.0
O258 O 0.65251 0.096 0.34689 0.0
C259 C 0.63096 0.04071 0.27764 0.0
C260 C 0.70988 0.97268 0.30699 0.0
C261 C 0.68159 0.09245 0.33407 0.0
O262 O 0.65845 0.02516 0.28286 0.0
O263 O 0.61226 0.05365 0.30036 0.0
O264 O 0.69807 0.00958 0.36961 0.0
O265 O 0.64648 0.01937 0.35511 0.0
Co266 Co 0.78798 0.92068 0.02783 0.0
O267 O 0.73946 0.91415 0.0279 0.0
O268 O 0.76169 0.95959 0.04177 0.0
C269 C 0.79563 0.89741 0.97431 0.0
O270 O 0.83493 0.94284 0.03026 0.0
Co271 Co 0.84279 0.87332 0.02459 0.0
O272 O 0.87719 0.90746 0.02344 0.0
C273 C 0.80407 0.87468 0.08777 0.0
C274 C 0.73476 0.94424 0.03685 0.0
C275 C 0.86674 0.93653 0.02828 0.0
O276 O 0.7898 0.90139 0.07638 0.0
O277 O 0.82465 0.85816 0.06953 0.0
O278 O 0.78766 0.92801 0.97873 0.0
O279 O 0.80068 0.88162 1.00211 0.0
Co280 Co 0.33611 0.67933 0.99405 0.0
O281 O 0.38265 0.68776 0.9952 0.0
O282 O 0.35724 0.6459 0.02034 0.0
C283 C 0.33394 0.68834 0.93931 0.0
O284 O 0.28989 0.66168 0.99856 0.0
Co285 Co 0.28345 0.73021 0.96841 0.0
O286 O 0.25057 0.69606 0.97903 0.0
C287 C 0.30453 0.73024 0.03834 0.0
C288 C 0.38454 0.6608 0.01265 0.0
C289 C 0.25953 0.66945 0.99337 0.0
O290 O 0.32552 0.70638 0.03407 0.0
O291 O 0.28771 0.74375 0.01531 0.0
O292 O 0.34336 0.65977 0.95042 0.0
O293 O 0.32688 0.7103 0.961 0.0
Co294 Co 0.16904 0.51575 0.81932 0.0
O295 O 0.16742 0.4697 0.8134 0.0
O296 O 0.21184 0.50009 0.8035 0.0
C297 C 0.14356 0.51338 0.86923 0.0
O298 O 0.18092 0.56307 0.82296 0.0
Co299 Co 0.10634 0.56057 0.83174 0.0
O300 O 0.13777 0.59668 0.8341 0.0
C301 C 0.12926 0.54285 0.76323 0.0
C302 C 0.19885 0.47141 0.80576 0.0
C303 C 0.16865 0.59181 0.82814 0.0
O304 O 0.15445 0.52595 0.77315 0.0
O305 O 0.107 0.55595 0.78246 0.0
O306 O 0.17525 0.50751 0.86631 0.0
O307 O 0.12811 0.51944 0.84235 0.0
Co308 Co 0.29105 0.4219 0.52351 0.0
O309 O 0.24237 0.41655 0.52405 0.0
O310 O 0.26521 0.4619 0.5351 0.0
C311 C 0.29904 0.39735 0.47067 0.0
O312 O 0.33868 0.44285 0.52476 0.0
Co313 Co 0.34302 0.37206 0.52363 0.0
O314 O 0.37812 0.40458 0.52863 0.0
C315 C 0.30382 0.37658 0.58537 0.0
C316 C 0.23771 0.44717 0.531 0.0
C317 C 0.36985 0.43471 0.52781 0.0
O318 O 0.29187 0.40406 0.57301 0.0
O319 O 0.32309 0.35812 0.56784 0.0
O320 O 0.29142 0.42808 0.47435 0.0
O321 O 0.30261 0.38181 0.49887 0.0
Co322 Co 0.39798 0.57958 0.28375 0.0
O323 O 0.39289 0.62515 0.27534 0.0
O324 O 0.35926 0.5876 0.258 0.0
C325 C 0.40799 0.5855 0.33712 0.0
O326 O 0.39475 0.5311 0.28794 0.0
Co327 Co 0.46303 0.54734 0.30919 0.0
O328 O 0.43954 0.50563 0.309 0.0
C329 C 0.45847 0.57034 0.23903 0.0
C330 C 0.36597 0.61824 0.26067 0.0
C331 C 0.41077 0.50544 0.29729 0.0
O332 O 0.427 0.57465 0.24296 0.0
O333 O 0.47691 0.56152 0.26296 0.0
O334 O 0.3775 0.58533 0.32796 0.0
O335 O 0.43083 0.58292 0.31408 0.0
Co336 Co 0.03778 0.05967 0.01092 0.0
C337 C 0.03532 0.10116 0.06901 0.0
Co338 Co 0.05032 0.0335 0.05615 0.0
C339 C 1.00315 0.07574 0.95225 0.0
C340 C 0.0258 0.11717 0.97218 0.0
N341 N 0.02544 0.0842 0.97426 0.0
N342 N 0.98797 0.10213 0.93845 0.0
C343 C 1.00208 0.12822 0.95108 0.0
H344 H 0.99558 0.05094 0.94903 0.0
H345 H 0.03949 0.13262 0.98773 0.0
C346 C 0.05302 0.99167 0.9991 0.0
N347 N 0.06193 0.01073 0.09369 0.0
C348 C 0.08178 0.02204 0.11656 0.0
C349 C 0.05042 0.98238 0.10668 0.0
N350 N 0.08258 1.00245 0.1436 0.0
C351 C 0.06293 0.97737 0.13781 0.0
C352 C 0.98239 0.02484 0.03978 0.0
O353 O 0.04579 0.01885 0.98409 0.0
O354 O 0.05922 0.99336 0.0299 0.0
O355 O 1.00351 0.01819 0.06208 0.0
O356 O 0.99123 0.04563 0.01735 0.0
O357 O 0.0417 0.07374 0.08347 0.0
H358 H 0.03265 0.96738 0.09516 0.0
H359 H 0.0934 0.04553 0.11469 0.0
O360 O 0.0298 0.09985 0.03816 0.0
O361 O 0.0839 0.07374 0.00373 0.0
O362 O 0.09692 0.04886 0.04974 0.0
C363 C 0.1054 0.06832 0.02579 0.0
H364 H 0.99444 0.15345 0.94678 0.0
H365 H 0.05656 0.95812 0.15555 0.0
Co366 Co 0.29869 0.80184 0.28896 0.0
C367 C 0.29887 0.73948 0.26858 0.0
Co368 Co 0.26734 0.79724 0.24623 0.0
C369 C 0.31011 0.82625 0.35138 0.0
C370 C 0.35236 0.79733 0.33532 0.0
N371 N 0.32227 0.80848 0.32594 0.0
N372 N 0.33091 0.8265 0.37633 0.0
C373 C 0.35776 0.80845 0.36678 0.0
H374 H 0.28591 0.83825 0.35211 0.0
H375 H 0.36881 0.78161 0.32065 0.0
C376 C 0.26926 0.86033 0.26569 0.0
N377 N 0.24394 0.79117 0.20877 0.0
C378 C 0.25536 0.77076 0.18515 0.0
C379 C 0.22064 0.81017 0.19405 0.0
N380 N 0.24177 0.77716 0.15599 0.0
C381 C 0.21949 0.80171 0.16111 0.0
C382 C 0.23221 0.79051 0.30481 0.0
O383 O 0.28764 0.84693 0.28713 0.0
O384 O 0.25675 0.84225 0.24464 0.0
O385 O 0.22888 0.79051 0.27361 0.0
O386 O 0.26061 0.79418 0.31626 0.0
O387 O 0.2787 0.75176 0.24813 0.0
H388 H 0.208 0.83095 0.20535 0.0
H389 H 0.27624 0.75408 0.1879 0.0
O390 O 0.31008 0.75718 0.29071 0.0
O391 O 0.33635 0.80918 0.2619 0.0
O392 O 0.306 0.80438 0.21849 0.0
C393 C 0.33408 0.80815 0.23067 0.0
H394 H 0.37899 0.80303 0.38174 0.0
H395 H 0.20603 0.81457 0.1419 0.0
Co396 Co 0.52876 0.041 0.52766 0.0
C397 C 0.54556 0.1068 0.51302 0.0
Co398 Co 0.57134 0.05336 0.55616 0.0
C399 C 0.4691 1.00797 0.52185 0.0
C400 C 0.48109 0.03403 0.47656 0.0
N401 N 0.49145 0.02814 0.50762 0.0
N402 N 0.44549 1.00064 0.50098 0.0
C403 C 0.45255 0.017 0.47237 0.0
H404 H 0.47038 0.99814 0.54693 0.0
H405 H 0.49392 0.04895 0.45799 0.0
C406 C 0.55432 0.9876 0.57082 0.0
N407 N 0.60935 0.06688 0.57484 0.0
C408 C 0.63194 0.0828 0.55579 0.0
C409 C 0.62137 0.06653 0.60567 0.0
N410 N 0.65739 0.09244 0.57286 0.0
C411 C 0.65129 0.08256 0.60453 0.0
C412 C 0.51399 0.06772 0.58988 0.0
O413 O 0.53288 0.99633 0.54951 0.0
O414 O 0.57513 0.00916 0.57821 0.0
O415 O 0.54522 0.06834 0.59206 0.0
O416 O 0.50223 0.05587 0.56418 0.0
O417 O 0.56724 0.09786 0.53396 0.0
H418 H 0.60892 0.05612 0.62749 0.0
H419 H 0.6295 0.08831 0.52966 0.0
O420 O 0.52469 0.08527 0.50606 0.0
O421 O 0.55531 0.02659 0.49092 0.0
O422 O 0.59759 0.03828 0.52041 0.0
C423 C 0.58632 0.02834 0.49386 0.0
H424 H 0.43866 0.01588 0.45 0.0
H425 H 0.66674 0.08727 0.62515 0.0
Co426 Co 0.3127 0.29838 0.78527 0.0
C427 C 0.29352 0.31367 0.72012 0.0
Co428 Co 0.26298 0.28111 0.77795 0.0
C429 C 0.37511 0.29345 0.81343 0.0
C430 C 0.36971 0.33924 0.7873 0.0
N431 N 0.35479 0.31054 0.79349 0.0
N432 N 0.40148 0.31056 0.82093 0.0
C433 C 0.3986 0.3394 0.8045 0.0
H434 H 0.36937 0.26996 0.82467 0.0
H435 H 0.35901 0.35956 0.77345 0.0
C436 C 0.28319 0.26538 0.84344 0.0
N437 N 0.22075 0.26925 0.7701 0.0
C438 C 0.19916 0.2889 0.75425 0.0
C439 C 0.20498 0.24084 0.77544 0.0
N440 N 0.17081 0.27408 0.74911 0.0
C441 C 0.17395 0.2437 0.76215 0.0
C442 C 0.30988 0.23443 0.76425 0.0
O443 O 0.30787 0.28147 0.83191 0.0
O444 O 0.25894 0.26266 0.82422 0.0
O445 O 0.2791 0.24059 0.76333 0.0
O446 O 0.32926 0.25652 0.77247 0.0
O447 O 0.26766 0.29921 0.73164 0.0
H448 H 0.21574 0.21921 0.78703 0.0
H449 H 0.20458 0.31324 0.74509 0.0
O450 O 0.31782 0.31504 0.73932 0.0
O451 O 0.29588 0.34048 0.79759 0.0
O452 O 0.24606 0.32219 0.79209 0.0
C453 C 0.26476 0.3456 0.79762 0.0
H454 H 0.41471 0.35984 0.80695 0.0
H455 H 0.15581 0.22484 0.76095 0.0
Co456 Co 0.03558 0.03187 0.55547 0.0
C457 C 0.03179 0.05795 0.61798 0.0
Co458 Co 0.06121 0.07808 0.55899 0.0
C459 C 0.03145 0.96658 0.5369 0.0
C460 C 0.98711 0.98089 0.56417 0.0
N461 N 0.01695 0.99173 0.5532 0.0
N462 N 0.012 0.94065 0.53696 0.0
C463 C 0.9839 0.94916 0.55396 0.0
H464 H 0.05547 0.96756 0.52408 0.0
H465 H 0.96865 0.99537 0.57782 0.0
C466 C 0.06316 0.053 0.49563 0.0
N467 N 0.08011 0.11822 0.55985 0.0
C468 C 0.06507 0.1452 0.5722 0.0
C469 C 0.10835 0.12869 0.54452 0.0
N470 N 0.0823 0.17199 0.56471 0.0
C471 C 0.10973 0.16211 0.54747 0.0
C472 C 0.10362 0.02641 0.56752 0.0
O473 O 0.04666 0.03045 0.50976 0.0
O474 O 0.07207 0.0762 0.51321 0.0
O475 O 0.10235 0.05736 0.56804 0.0
O476 O 0.07716 0.01096 0.56427 0.0
O477 O 0.04995 0.07995 0.6049 0.0
H478 H 0.12597 0.11332 0.53084 0.0
H479 H 0.04115 0.14559 0.58515 0.0
O480 O 0.02408 0.03373 0.60097 0.0
O481 O 0.99457 0.05252 0.5463 0.0
O482 O 0.02005 0.09883 0.54973 0.0
C483 C 0.99378 0.08346 0.54566 0.0
H484 H 0.96255 0.93394 0.55784 0.0
H485 H 0.1287 0.17795 0.53715 0.0
Co486 Co 0.2932 0.81679 0.79011 0.0
C487 C 0.23 0.79483 0.80994 0.0
Co488 Co 0.28228 0.77182 0.76462 0.0
C489 C 0.33306 0.86855 0.81072 0.0
C490 C 0.28131 0.88123 0.81484 0.0
N491 N 0.30276 0.85624 0.80784 0.0
N492 N 0.33136 0.90035 0.81812 0.0
C493 C 0.29895 0.90856 0.82101 0.0
H494 H 0.356 0.85553 0.80446 0.0
H495 H 0.25473 0.88043 0.81277 0.0
C496 C 0.34584 0.79328 0.74519 0.0
N497 N 0.27061 0.73172 0.74864 0.0
C498 C 0.26107 0.70764 0.76993 0.0
C499 C 0.26037 0.72242 0.71882 0.0
N500 N 0.24469 0.68436 0.75529 0.0
C501 C 0.24414 0.69309 0.72292 0.0
C502 C 0.26134 0.82533 0.72985 0.0
O503 O 0.33599 0.81596 0.76479 0.0
O504 O 0.32578 0.77021 0.74074 0.0
O505 O 0.26345 0.79437 0.72858 0.0
O506 O 0.27334 0.8392 0.75432 0.0
O507 O 0.23861 0.77335 0.78867 0.0
H508 H 0.26162 0.73736 0.69638 0.0
H509 H 0.26261 0.70862 0.79657 0.0
O510 O 0.25063 0.81704 0.81494 0.0
O511 O 0.31303 0.79473 0.82615 0.0
O512 O 0.30152 0.75009 0.80068 0.0
C513 C 0.31355 0.76388 0.82496 0.0
H514 H 0.28896 0.93311 0.82428 0.0
H515 H 0.23058 0.68082 0.70441 0.0
Co516 Co 0.54237 0.03494 0.01792 0.0
C517 C 0.60412 0.01413 0.04034 0.0
Co518 Co 0.55297 0.05966 0.06316 0.0
C519 C 0.51803 0.03377 0.95495 0.0
C520 C 0.52976 0.98469 0.97049 0.0
N521 N 0.5313 0.01615 0.97964 0.0
N522 N 0.5078 0.01494 0.93102 0.0
C523 C 0.51502 0.98387 0.94011 0.0
H524 H 0.51437 0.06006 0.95512 0.0
H525 H 0.5374 0.96384 0.98554 0.0
C526 C 0.49047 0.08028 0.04026 0.0
N527 N 0.56377 0.07841 0.10178 0.0
C528 C 0.57703 0.06196 0.12744 0.0
C529 C 0.56085 0.10976 0.11136 0.0
N530 N 0.58247 0.08163 0.15265 0.0
C531 C 0.5724 0.11182 0.14301 0.0
C532 C 0.57594 0.09248 0.00733 0.0
O533 O 0.49986 0.05995 0.01811 0.0
O534 O 0.51037 0.08465 0.06353 0.0
O535 O 0.57362 0.09354 0.03875 0.0
O536 O 0.56315 0.06886 0.99321 0.0
O537 O 0.59563 0.03446 0.06288 0.0
H538 H 0.5509 0.12967 0.09638 0.0
H539 H 0.58236 0.03591 0.12787 0.0
O540 O 0.5841 0.01015 0.01724 0.0
O541 O 0.52186 1.0012 0.04232 0.0
O542 O 0.53217 0.02594 0.08773 0.0
C543 C 0.51906 1.0025 0.07364 0.0
H544 H 0.50896 0.96247 0.92652 0.0
H545 H 0.57317 0.13348 0.15784 0.0
Co546 Co 0.29269 0.27219 0.29879 0.0
C547 C 0.35994 0.29068 0.30676 0.0
Co548 Co 0.30355 0.31752 0.27213 0.0
C549 C 0.25906 0.21287 0.31405 0.0
C550 C 0.29568 0.22182 0.3495 0.0
N551 N 0.283 0.23363 0.32096 0.0
N552 N 0.25613 0.18893 0.33716 0.0
C553 C 0.27916 0.1941 0.35952 0.0
H554 H 0.24332 0.21555 0.29304 0.0
H555 H 0.31486 0.23322 0.36283 0.0
C556 C 0.23614 0.29965 0.26514 0.0
N557 N 0.31295 0.35685 0.25108 0.0
C558 C 0.33924 0.37466 0.25778 0.0
C559 C 0.29311 0.37746 0.23357 0.0
N560 N 0.33604 0.40547 0.24676 0.0
C561 C 0.30723 0.40775 0.23124 0.0
C562 C 0.30861 0.26377 0.22847 0.0
O563 O 0.24565 0.27668 0.28484 0.0
O564 O 0.25693 0.32203 0.2586 0.0
O565 O 0.31297 0.29446 0.2303 0.0
O566 O 0.3023 0.24825 0.25598 0.0
O567 O 0.35039 0.31251 0.28595 0.0
H568 H 0.26865 0.37199 0.22561 0.0
H569 H 0.35893 0.36689 0.27367 0.0
O570 O 0.33954 0.26791 0.31345 0.0
O571 O 0.28299 0.29596 0.34061 0.0
O572 O 0.29419 0.3414 0.31415 0.0
C573 C 0.28768 0.32664 0.34181 0.0
H574 H 0.28297 0.17949 0.38181 0.0
H575 H 0.296 0.43016 0.22169 0.0
Co576 Co 0.52617 0.52129 0.04933 0.0
C577 C 0.52097 0.53938 0.11378 0.0
Co578 Co 0.56066 0.55968 0.06038 0.0
C579 C 0.51124 0.46272 0.01967 0.0
C580 C 0.46863 0.47963 0.04802 0.0
N581 N 0.49986 0.48758 0.03841 0.0
N582 N 0.48894 0.43939 0.01759 0.0
C583 C 0.46184 0.44957 0.03524 0.0
H584 H 0.53614 0.46084 0.00891 0.0
H585 H 0.45243 0.49398 0.06428 0.0
C586 C 0.56441 0.54432 0.99516 0.0
N587 N 0.58703 0.59363 0.07039 0.0
C588 C 0.57498 0.62149 0.0837 0.0
C589 C 0.6185 0.60003 0.06029 0.0
N590 N 0.59694 0.64538 0.08116 0.0
C591 C 0.62468 0.63223 0.06683 0.0
C592 C 0.58952 0.49894 0.06576 0.0
O593 O 0.54161 0.525 0.00437 0.0
O594 O 0.57698 0.56141 0.01688 0.0
O595 O 0.59494 0.52884 0.07058 0.0
O596 O 0.56094 0.4906 0.05787 0.0
O597 O 0.54371 0.55847 0.10405 0.0
H598 H 0.63476 0.58337 0.04652 0.0
H599 H 0.5495 0.62523 0.09243 0.0
O600 O 0.51085 0.51829 0.09417 0.0
O601 O 0.49176 0.55159 0.04052 0.0
O602 O 0.5266 0.59027 0.04943 0.0
C603 C 0.49797 0.58163 0.04231 0.0
H604 H 0.43963 0.43568 0.03975 0.0
H605 H 0.64655 0.64558 0.05922 0.0
Co606 Co 0.80649 0.31547 0.30294 0.0
C607 C 0.74216 0.29827 0.32259 0.0
Co608 Co 0.79158 0.27373 0.27422 0.0
C609 C 0.84988 0.36824 0.31451 0.0
C610 C 0.80568 0.3724 0.34512 0.0
N611 N 0.82175 0.35252 0.32311 0.0
N612 N 0.85156 0.397 0.32952 0.0
C613 C 0.82394 0.39996 0.34893 0.0
H614 H 0.86809 0.36029 0.2959 0.0
H615 H 0.78141 0.36826 0.3564 0.0
C616 C 0.85535 0.29072 0.25396 0.0
N617 N 0.77581 0.2367 0.2558 0.0
C618 C 0.76151 0.21406 0.27579 0.0
C619 C 0.77305 0.22546 0.22479 0.0
N620 N 0.74992 0.18932 0.25915 0.0
C621 C 0.75682 0.19593 0.2268 0.0
C622 C 0.77732 0.33117 0.2433 0.0
O623 O 0.84806 0.31186 0.276 0.0
O624 O 0.83361 0.2696 0.24862 0.0
O625 O 0.77482 0.30051 0.24044 0.0
O626 O 0.78812 0.34262 0.26967 0.0
O627 O 0.74882 0.27782 0.29977 0.0
H628 H 0.78158 0.23809 0.20236 0.0
H629 H 0.75886 0.21581 0.30249 0.0
O630 O 0.76466 0.31811 0.32914 0.0
O631 O 0.82532 0.2883 0.33604 0.0
O632 O 0.80976 0.24732 0.30769 0.0
C633 C 0.82492 0.25767 0.33196 0.0
H634 H 0.81683 0.42114 0.36341 0.0
H635 H 0.75015 0.18099 0.20641 0.0
Co636 Co 0.04157 0.53673 0.51778 0.0
C637 C 0.10758 0.5216 0.53112 0.0
Co638 Co 0.05835 0.56926 0.55594 0.0
C639 C 0.9964 0.52057 0.46911 0.0
C640 C 0.03804 0.48746 0.46671 0.0
N641 N 0.0239 0.5116 0.4852 0.0
N642 N 0.99375 0.50486 0.44067 0.0
C643 C 0.01964 0.48355 0.43891 0.0
H644 H 0.98079 0.54161 0.4749 0.0
H645 H 0.06196 0.47598 0.47094 0.0
C646 C 0.99188 0.58383 0.5429 0.0
N647 N 0.07578 0.59354 0.58859 0.0
C648 C 0.09626 0.5798 0.61075 0.0
C649 C 0.06524 0.62203 0.60207 0.0
N650 N 0.09764 0.59738 0.63821 0.0
C651 C 0.0785 0.62428 0.63301 0.0
C652 C 0.06608 0.59486 0.49315 0.0
O653 O 0.99894 0.56041 0.5235 0.0
O654 O 0.01492 0.59252 0.56135 0.0
O655 O 0.07116 0.60003 0.52344 0.0
O656 O 0.05475 0.56778 0.48479 0.0
O657 O 0.10151 0.54537 0.55056 0.0
H658 H 0.04633 0.63814 0.59197 0.0
H659 H 0.10595 0.55499 0.60932 0.0
O660 O 0.08431 0.51377 0.51263 0.0
O661 O 0.02835 0.50596 0.55075 0.0
O662 O 0.0451 0.53888 0.58857 0.0
C663 C 0.03276 0.51223 0.58093 0.0
H664 H 0.02689 0.46932 0.4174 0.0
H665 H 0.07173 0.64222 0.65155 0.0
Co666 Co 0.81558 0.79599 0.28709 0.0
C667 C 0.79557 0.81083 0.2222 0.0
Co668 Co 0.76507 0.78002 0.28108 0.0
C669 C 0.87843 0.79428 0.31603 0.0
C670 C 0.87248 0.83636 0.28414 0.0
N671 N 0.85788 0.80836 0.29418 0.0
N672 N 0.90467 0.81274 0.32071 0.0
C673 C 0.90144 0.83921 0.30068 0.0
H674 H 0.87318 0.77214 0.33017 0.0
H675 H 0.8616 0.85462 0.26779 0.0
C676 C 0.78595 0.76507 0.34646 0.0
N677 N 0.7222 0.76929 0.27419 0.0
C678 C 0.70217 0.78785 0.25529 0.0
C679 C 0.70361 0.74402 0.28505 0.0
N680 N 0.67211 0.77539 0.25359 0.0
C681 C 0.67242 0.74768 0.27215 0.0
C682 C 0.81097 0.73198 0.26714 0.0
O683 O 0.81121 0.77976 0.33404 0.0
O684 O 0.76118 0.76297 0.3278 0.0
O685 O 0.78015 0.73865 0.2675 0.0
O686 O 0.83122 0.75375 0.27441 0.0
O687 O 0.76969 0.79683 0.23421 0.0
H688 H 0.71232 0.72407 0.30073 0.0
H689 H 0.70951 0.80993 0.24223 0.0
O690 O 0.82014 0.81205 0.24098 0.0
O691 O 0.79985 0.83825 0.29905 0.0
O692 O 0.74929 0.82179 0.29416 0.0
C693 C 0.76897 0.84454 0.29911 0.0
H694 H 0.91762 0.85987 0.29982 0.0
H695 H 0.65215 0.73099 0.27511 0.0
Co696 Co 0.79688 0.29494 0.79841 0.0
C697 C 0.79718 0.23401 0.77213 0.0
Co698 Co 0.76451 0.29291 0.75622 0.0
C699 C 0.81143 0.31522 0.86174 0.0
C700 C 0.84919 0.28126 0.84482 0.0
N701 N 0.82168 0.29788 0.83527 0.0
N702 N 0.83082 0.30983 0.88754 0.0
C703 C 0.85481 0.2885 0.87745 0.0
H704 H 0.78887 0.3301 0.86291 0.0
H705 H 0.86314 0.26381 0.82973 0.0
C706 C 0.76802 0.3548 0.7794 0.0
N707 N 0.73966 0.29019 0.71948 0.0
C708 C 0.75018 0.27248 0.69343 0.0
C709 C 0.71391 0.30867 0.70853 0.0
N710 N 0.7331 0.27968 0.66645 0.0
C711 C 0.70995 0.30235 0.67537 0.0
C712 C 0.73099 0.28236 0.81524 0.0
O713 O 0.78636 0.34033 0.80022 0.0
O714 O 0.75388 0.3376 0.75869 0.0
O715 O 0.72709 0.28356 0.78415 0.0
O716 O 0.75958 0.28558 0.82638 0.0
O717 O 0.77633 0.24763 0.75323 0.0
H718 H 0.70086 0.32742 0.72273 0.0
H719 H 0.77225 0.25693 0.69303 0.0
O720 O 0.8082 0.24996 0.79575 0.0
O721 O 0.83354 0.30455 0.77098 0.0
O722 O 0.80176 0.30299 0.72816 0.0
C723 C 0.83001 0.30672 0.73989 0.0
H724 H 0.87395 0.27811 0.89284 0.0
H725 H 0.69341 0.31506 0.65867 0.0
Co726 Co 0.78777 0.77133 0.8034 0.0
C727 C 0.85408 0.79131 0.81299 0.0
Co728 Co 0.7983 0.81632 0.77632 0.0
C729 C 0.74788 0.72091 0.83372 0.0
C730 C 0.7994 0.70712 0.83014 0.0
N731 N 0.77804 0.73255 0.82527 0.0
N732 N 0.74964 0.68912 0.84278 0.0
C733 C 0.78192 0.68032 0.84087 0.0
H734 H 0.7248 0.7344 0.8305 0.0
H735 H 0.82562 0.70719 0.8237 0.0
C736 C 0.73213 0.79807 0.76672 0.0
N737 N 0.8095 0.8538 0.75333 0.0
C738 C 0.82456 0.8788 0.76688 0.0
C739 C 0.81469 0.85802 0.7202 0.0
N740 N 0.84048 0.89732 0.74388 0.0
C741 C 0.83439 0.88454 0.71436 0.0
C742 C 0.80683 0.75998 0.7348 0.0
O743 O 0.74145 0.77514 0.78671 0.0
O744 O 0.75265 0.8208 0.76063 0.0
O745 O 0.80913 0.79092 0.73573 0.0
O746 O 0.79976 0.74601 0.76269 0.0
O747 O 0.84468 0.81284 0.79172 0.0
H748 H 0.8073 0.84138 0.70156 0.0
H749 H 0.82698 0.88152 0.79327 0.0
O750 O 0.83387 0.76842 0.81988 0.0
O751 O 0.77601 0.79589 0.84433 0.0
O752 O 0.78735 0.84134 0.81775 0.0
C753 C 0.78062 0.82663 0.84551 0.0
H754 H 0.79174 0.65567 0.8443 0.0
H755 H 0.84503 0.89264 0.69063 0.0
Co756 Co 0.53946 0.55882 0.51365 0.0
C757 C 0.5369 0.59913 0.5724 0.0
Co758 Co 0.55417 0.53217 0.55781 0.0
C759 C 0.50392 0.57565 0.45572 0.0
C760 C 0.52666 0.61682 0.47618 0.0
N761 N 0.5258 0.58386 0.47819 0.0
N762 N 0.48993 0.60223 0.44117 0.0
C763 C 0.50396 0.62817 0.45416 0.0
H764 H 0.49616 0.55093 0.45222 0.0
H765 H 0.54042 0.63204 0.49189 0.0
C766 C 0.55641 0.49194 0.499 0.0
N767 N 0.56745 0.50893 0.5945 0.0
C768 C 0.58559 0.52127 0.61825 0.0
C769 C 0.55845 0.47923 0.60627 0.0
N770 N 0.58761 0.50103 0.6447 0.0
C771 C 0.57066 0.4744 0.63758 0.0
C772 C 0.48627 0.52176 0.54362 0.0
O773 O 0.54854 0.51953 0.48526 0.0
O774 O 0.56301 0.49272 0.52987 0.0
O775 O 0.5083 0.51581 0.56508 0.0
O776 O 0.49363 0.54246 0.52053 0.0
O777 O 0.5453 0.57186 0.58614 0.0
H778 H 0.54235 0.46312 0.5939 0.0
H779 H 0.59498 0.54577 0.61743 0.0
O780 O 0.53017 0.59788 0.54188 0.0
O781 O 0.58503 0.57492 0.50627 0.0
O782 O 0.60003 0.54843 0.55068 0.0
C783 C 0.60732 0.56905 0.52747 0.0
H784 H 0.49733 0.6535 0.44891 0.0
H785 H 0.56563 0.45418 0.65459 0.0
Co786 Co 0.02535 0.54682 0.04018 0.0
C787 C 0.04657 0.61151 0.02355 0.0
Co788 Co 0.07562 0.55396 0.05637 0.0
C789 C 0.96616 0.51365 0.02525 0.0
C790 C 0.95747 0.56461 0.034 0.0
N791 N 0.98184 0.54159 0.03034 0.0
N792 N 0.93303 0.51829 0.02661 0.0
C793 C 0.92736 0.55027 0.0318 0.0
H794 H 0.97845 0.4899 0.02362 0.0
H795 H 0.96117 0.58965 0.04066 0.0
C796 C 0.05409 0.48881 0.07233 0.0
N797 N 0.1189 0.56078 0.06586 0.0
C798 C 0.13981 0.5763 0.04454 0.0
C799 C 0.13564 0.55654 0.09406 0.0
N800 N 0.1686 0.58248 0.05817 0.0
C801 C 0.16644 0.57026 0.08942 0.0
C802 C 0.03077 0.56837 0.10512 0.0
O803 O 0.02864 0.50068 0.05778 0.0
O804 O 0.07862 0.50787 0.07442 0.0
O805 O 0.06158 0.5685 0.09829 0.0
O806 O 1.01091 0.56033 0.08327 0.0
O807 O 0.07227 0.60009 0.03793 0.0
H808 H 0.12545 0.54595 0.11691 0.0
H809 H 0.1333 0.58506 0.02008 0.0
O810 O 0.02224 0.59241 0.02255 0.0
O811 O 0.03994 0.53329 0.99715 0.0
O812 O 0.09001 0.5395 0.01484 0.0
C813 C 0.07116 0.53249 0.99191 0.0
H814 H 0.90319 0.5618 0.03615 0.0
H815 H 0.18491 0.57276 0.1079 0.0
C816 C 0.07223 0.17479 0.11632 0.0
C817 C 0.04817 0.20053 0.11198 0.0
C818 C 0.01305 0.15958 0.08499 0.0
C819 C 0.03869 0.13475 0.08617 0.0
N820 N 0.09552 0.12216 0.09927 0.0
N821 N 0.99613 0.21727 0.08927 0.0
C822 C 0.06885 0.1433 0.10121 0.0
C823 C 0.01861 0.19267 0.09571 0.0
N824 N 0.09844 0.18019 0.13576 0.0
N825 N 0.98273 0.15126 0.07445 0.0
H826 H 0.99878 0.241 0.09748 0.0
H827 H 0.97605 0.21479 0.07418 0.0
H828 H 0.97776 0.12775 0.06689 0.0
H829 H 0.96179 0.1666 0.07591 0.0
H830 H 0.11494 0.16182 0.14342 0.0
H831 H 0.10179 0.20252 0.14698 0.0
H832 H 0.11934 0.12834 0.1054 0.0
H833 H 0.09472 0.09936 0.08864 0.0
C834 C 0.16022 0.75927 0.35844 0.0
C835 C 0.15195 0.78736 0.37715 0.0
C836 C 0.19637 0.81745 0.34855 0.0
C837 C 0.20316 0.79 0.32809 0.0
N838 N 0.18829 0.73692 0.30957 0.0
N839 N 0.15896 0.8443 0.38836 0.0
C840 C 0.18411 0.7615 0.33183 0.0
C841 C 0.16942 0.81667 0.3721 0.0
N842 N 0.14575 0.73027 0.3668 0.0
N843 N 0.21533 0.84456 0.34502 0.0
H844 H 0.13984 0.84461 0.40645 0.0
H845 H 0.16777 0.86748 0.3827 0.0
H846 H 0.23226 0.84809 0.32526 0.0
H847 H 0.21514 0.8632 0.36216 0.0
H848 H 0.15302 0.70807 0.35638 0.0
H849 H 0.12843 0.72787 0.38652 0.0
H850 H 0.1729 0.71697 0.30903 0.0
H851 H 0.20533 0.73784 0.28961 0.0
C852 C 0.58143 0.8989 0.60194 0.0
C853 C 0.55172 0.88682 0.61771 0.0
C854 C 0.52503 0.94167 0.60542 0.0
C855 C 0.55392 0.95291 0.58749 0.0
N856 N 0.60826 0.93903 0.56475 0.0
N857 N 0.49304 0.89599 0.62765 0.0
C858 C 0.58174 0.93057 0.58484 0.0
C859 C 0.52302 0.90816 0.61757 0.0
N860 N 0.60999 0.88055 0.60428 0.0
N861 N 0.49964 0.96351 0.61226 0.0
H862 H 0.4901 0.87184 0.63563 0.0
H863 H 0.47062 0.90872 0.62481 0.0
H864 H 0.50016 0.98796 0.60454 0.0
H865 H 0.47957 0.95832 0.62831 0.0
H866 H 0.63329 0.88903 0.59704 0.0
H867 H 0.61069 0.85758 0.61593 0.0
H868 H 0.62773 0.92293 0.55842 0.0
H869 H 0.60947 0.96146 0.55208 0.0
C870 C 0.43729 0.31032 0.90537 0.0
C871 C 0.46164 0.2847 0.90179 0.0
C872 C 0.44652 0.27734 0.8443 0.0
C873 C 0.42221 0.30245 0.84804 0.0
N874 N 0.38742 0.33583 0.88411 0.0
N875 N 0.48202 0.23755 0.87176 0.0
C876 C 0.4154 0.31679 0.87924 0.0
C877 C 0.46393 0.26622 0.87237 0.0
N878 N 0.43599 0.3297 0.9326 0.0
N879 N 0.45326 0.26465 0.81367 0.0
H880 H 0.49371 0.22803 0.89262 0.0
H881 H 0.48246 0.22161 0.85197 0.0
H882 H 0.44056 0.27246 0.79275 0.0
H883 H 0.473 0.24844 0.80854 0.0
H884 H 0.42152 0.35109 0.9341 0.0
H885 H 0.45119 0.3264 0.95269 0.0
H886 H 0.37912 0.34395 0.90736 0.0
H887 H 0.3707 0.3409 0.86549 0.0
C888 C 0.05646 0.86375 0.5131 0.0
C889 C 0.04752 0.86139 0.47946 0.0
C890 C 0.01254 0.91091 0.4849 0.0
C891 C 0.01967 0.91163 0.51888 0.0
N892 N 0.04346 0.88694 0.56709 0.0
N893 N 0.01187 0.87931 0.43512 0.0
C894 C 0.03985 0.88718 0.53355 0.0
C895 C 0.02411 0.88402 0.46576 0.0
N896 N 0.08238 0.84529 0.52485 0.0
N897 N 0.99559 0.93662 0.4708 0.0
H898 H 0.01842 0.85939 0.42051 0.0
H899 H 0.99254 0.89339 0.42544 0.0
H900 H 0.98571 0.95606 0.48459 0.0
H901 H 0.99323 0.93977 0.44529 0.0
H902 H 0.09197 0.84826 0.54817 0.0
H903 H 0.09673 0.82929 0.51017 0.0
H904 H 0.05531 0.86801 0.58003 0.0
H905 H 0.03191 0.90449 0.5823 0.0
C906 C 0.42056 0.78231 0.6813 0.0
C907 C 0.44729 0.79587 0.69819 0.0
C908 C 0.40853 0.80334 0.74697 0.0
C909 C 0.38085 0.79364 0.72879 0.0
N910 N 0.36099 0.78119 0.67485 0.0
N911 N 0.46252 0.82786 0.74461 0.0
C912 C 0.38705 0.78512 0.69488 0.0
C913 C 0.44002 0.80878 0.73031 0.0
N914 N 0.42706 0.76543 0.65287 0.0
N915 N 0.40556 0.806 0.78067 0.0
H916 H 0.48483 0.83437 0.73276 0.0
H917 H 0.45717 0.84052 0.7664 0.0
H918 H 0.38399 0.80061 0.79443 0.0
H919 H 0.42574 0.80979 0.79536 0.0
H920 H 0.40918 0.75224 0.64136 0.0
H921 H 0.45095 0.76162 0.64279 0.0
H922 H 0.36394 0.77822 0.6493 0.0
H923 H 0.33636 0.7846 0.68295 0.0
C924 C 0.59842 0.17917 0.99476 0.0
C925 C 0.57577 0.18637 0.96936 0.0
C926 C 0.57433 0.12858 0.95661 0.0
C927 C 0.58772 0.12142 0.98788 0.0
N928 N 0.62498 0.13713 0.02919 0.0
N929 N 0.5438 0.16832 0.92393 0.0
C930 C 0.60422 0.146 0.00439 0.0
C931 C 0.56485 0.16128 0.94899 0.0
N932 N 0.61374 0.2041 0.00956 0.0
N933 N 0.57148 0.1044 0.93422 0.0
H934 H 0.53627 0.19204 0.91742 0.0
H935 H 0.53213 0.1504 0.91101 0.0
H936 H 0.58155 0.081 0.93825 0.0
H937 H 0.56352 0.10864 0.91018 0.0
H938 H 0.63054 0.20096 0.02833 0.0
H939 H 0.61059 0.22844 1.00184 0.0
H940 H 0.63663 0.15338 0.04407 0.0
H941 H 0.63138 0.11264 0.03398 0.0
C942 C 0.16297 0.26886 0.21276 0.0
C943 C 0.14591 0.29846 0.20397 0.0
C944 C 0.18329 0.3274 0.24106 0.0
C945 C 0.20327 0.2985 0.24633 0.0
N946 N 0.21382 0.24229 0.23067 0.0
N947 N 0.1423 0.35689 0.20795 0.0
C948 C 0.19321 0.26927 0.23082 0.0
C949 C 0.15679 0.32795 0.21777 0.0
N950 N 0.15026 0.23995 0.2037 0.0
N951 N 0.18876 0.35427 0.25936 0.0
H952 H 0.12228 0.35815 0.1923 0.0
H953 H 0.15141 0.37959 0.21352 0.0
H954 H 0.20671 0.3545 0.27727 0.0
H955 H 0.17337 0.37507 0.25935 0.0
H956 H 0.159 0.21727 0.21228 0.0
H957 H 0.12882 0.23878 0.19018 0.0
H958 H 0.20984 0.22171 0.2168 0.0
H959 H 0.23707 0.2417 0.24083 0.0
C960 C 0.09229 0.04966 0.22056 0.0
C961 C 0.1199 0.03294 0.23418 0.0
C962 C 0.12576 0.99918 0.18491 0.0
C963 C 0.09479 0.0118 0.17473 0.0
N964 N 0.04712 0.04762 0.18315 0.0
N965 N 0.17251 1.00658 0.21956 0.0
C966 C 0.07779 0.03693 0.19246 0.0
C967 C 0.13969 0.01174 0.21369 0.0
N968 N 0.08165 0.07898 0.2331 0.0
N969 N 0.14149 0.97493 0.16719 0.0
H970 H 0.18481 0.01994 0.23677 0.0
H971 H 0.18864 0.99291 0.20427 0.0
H972 H 0.1321 0.96617 0.14542 0.0
H973 H 0.16238 0.96205 0.17521 0.0
H974 H 0.06331 0.09372 0.22248 0.0
H975 H 0.09443 0.09052 0.25139 0.0
H976 H 0.03211 0.0636 0.19718 0.0
H977 H 0.03539 0.03819 0.16299 0.0
C978 C 0.28319 0.84033 0.45489 0.0
C979 C 0.29049 0.87336 0.46099 0.0
C980 C 0.32761 0.87438 0.41145 0.0
C981 C 0.32259 0.84077 0.40762 0.0
N982 N 0.3004 0.79013 0.4278 0.0
N983 N 0.32477 0.92027 0.44794 0.0
C984 C 0.30218 0.8232 0.43039 0.0
C985 C 0.31405 0.89013 0.44004 0.0
N986 N 0.25655 0.82605 0.47071 0.0
N987 N 0.34462 0.89133 0.38706 0.0
H988 H 0.31745 0.93242 0.46945 0.0
H989 H 0.34399 0.93195 0.43494 0.0
H990 H 0.3561 0.8799 0.36662 0.0
H991 H 0.34549 0.91672 0.38597 0.0
H992 H 0.2483 0.80307 0.46488 0.0
H993 H 0.24022 0.83851 0.48693 0.0
H994 H 0.28835 0.77533 0.44552 0.0
H995 H 0.31363 0.77722 0.40938 0.0
C996 C 0.45422 0.05115 0.6595 0.0
C997 C 0.46877 0.06885 0.68465 0.0
C998 C 0.50438 0.09676 0.64376 0.0
C999 C 0.49219 0.07652 0.61903 0.0
N1000 N 0.4432 0.05013 0.60116 0.0
N1001 N 0.4979 0.11652 0.69996 0.0
C1002 C 0.46304 0.05869 0.62603 0.0
C1003 C 0.49073 0.09438 0.67652 0.0
N1004 N 0.43324 0.02632 0.66743 0.0
N1005 N 0.52928 0.11776 0.63599 0.0
H1006 H 0.48762 0.11564 0.7241 0.0
H1007 H 0.51147 0.1374 0.69484 0.0
H1008 H 0.53688 0.12291 0.61158 0.0
H1009 H 0.5426 0.1296 0.65356 0.0
H1010 H 0.42507 0.01038 0.64984 0.0
H1011 H 0.42607 0.02006 0.69181 0.0
H1012 H 0.42077 0.03852 0.60558 0.0
H1013 H 0.44631 0.05934 0.57699 0.0
C1014 C 0.2602 0.2337 0.93422 0.0
C1015 C 0.289 0.21466 0.94277 0.0
C1016 C 0.31178 0.22611 0.88529 0.0
C1017 C 0.28451 0.24762 0.87772 0.0
N1018 N 0.23487 0.27534 0.8982 0.0
N1019 N 0.34577 0.20036 0.92743 0.0
C1020 C 0.25927 0.25222 0.90313 0.0
C1021 C 0.31568 0.21299 0.91848 0.0
N1022 N 0.23295 0.23323 0.95528 0.0
N1023 N 0.33354 0.2167 0.86032 0.0
H1024 H 0.35046 0.19206 0.95146 0.0
H1025 H 0.36708 0.20164 0.91211 0.0
H1026 H 0.33129 0.22458 0.83576 0.0
H1027 H 0.35158 0.19832 0.86326 0.0
H1028 H 0.20993 0.24319 0.94919 0.0
H1029 H 0.23263 0.22039 0.97785 0.0
H1030 H 0.21783 0.28273 0.91675 0.0
H1031 H 0.23344 0.28926 0.87631 0.0
C1032 C 0.12891 0.05045 0.42766 0.0
C1033 C 0.11929 0.0225 0.41055 0.0
C1034 C 0.06638 0.0224 0.44234 0.0
C1035 C 0.07726 0.04851 0.46124 0.0
N1036 N 0.10983 0.09698 0.45964 0.0
N1037 N 0.08118 0.97896 0.40433 0.0
C1038 C 0.10598 0.06544 0.45046 0.0
C1039 C 0.0885 1.00781 0.41849 0.0
N1040 N 0.15988 0.06265 0.42256 0.0
N1041 N 0.03407 0.01336 0.44551 0.0
H1042 H 0.09735 0.96709 0.38745 0.0
H1043 H 0.06079 0.96517 0.41166 0.0
H1044 H 0.01657 0.02625 0.46017 0.0
H1045 H 0.02365 0.99628 0.43057 0.0
H1046 H 0.16935 0.08028 0.43756 0.0
H1047 H 0.17735 0.05348 0.40535 0.0
H1048 H 0.12969 0.11117 0.45165 0.0
H1049 H 0.09063 0.11064 0.47105 0.0
C1050 C 0.23699 0.84142 0.64219 0.0
C1051 C 0.2603 0.86613 0.63478 0.0
C1052 C 0.26424 0.87579 0.69381 0.0
C1053 C 0.25031 0.84491 0.70056 0.0
N1054 N 0.21339 0.80388 0.68371 0.0
N1055 N 0.29609 0.9078 0.65383 0.0
C1056 C 0.23309 0.82962 0.67547 0.0
C1057 C 0.27342 0.88418 0.66061 0.0
N1058 N 0.21856 0.8298 0.61747 0.0
N1059 N 0.26774 0.8973 0.71873 0.0
H1060 H 0.3041 0.91446 0.62982 0.0
H1061 H 0.30889 0.91893 0.6723 0.0
H1062 H 0.25743 0.89326 0.74252 0.0
H1063 H 0.27616 0.92092 0.71456 0.0
H1064 H 0.19976 0.81313 0.62133 0.0
H1065 H 0.22036 0.83895 0.59312 0.0
H1066 H 0.20315 0.78889 0.66652 0.0
H1067 H 0.20721 0.79776 0.70842 0.0
C1068 C 0.43867 0.05488 0.88607 0.0
C1069 C 0.45645 0.067 0.85763 0.0
C1070 C 0.50807 0.04319 0.87769 0.0
C1071 C 0.48985 0.02769 0.90374 0.0
N1072 N 0.43858 0.01765 0.93381 0.0
N1073 N 0.50881 0.08637 0.83586 0.0
C1074 C 0.45526 0.03321 0.90822 0.0
C1075 C 0.49153 0.06519 0.85617 0.0
N1076 N 0.40722 0.06631 0.89337 0.0
N1077 N 0.54128 0.03654 0.87376 0.0
H1078 H 0.49697 0.10513 0.82252 0.0
H1079 H 0.53449 0.08808 0.83539 0.0
H1080 H 0.55383 0.02043 0.88963 0.0
H1081 H 0.55571 0.04473 0.85346 0.0
H1082 H 0.39339 0.05961 0.91461 0.0
H1083 H 0.39669 0.08621 0.88073 0.0
H1084 H 0.41289 0.01801 0.93695 0.0
H1085 H 0.45053 1.00221 0.95073 0.0
C1086 C 0.32426 0.21191 0.14728 0.0
C1087 C 0.29427 0.21812 0.12983 0.0
C1088 C 0.27681 0.25626 0.17482 0.0
C1089 C 0.30474 0.2479 0.19422 0.0
N1090 N 0.35303 0.2129 0.19974 0.0
N1091 N 0.23702 0.23586 0.13771 0.0
C1092 C 0.32766 0.22396 0.18077 0.0
C1093 C 0.26915 0.23714 0.14693 0.0
N1094 N 0.35017 0.19576 0.13173 0.0
N1095 N 0.25745 0.28311 0.18208 0.0
H1096 H 0.22948 0.21975 0.11995 0.0
H1097 H 0.21745 0.24726 0.151 0.0
H1098 H 0.26244 0.29889 0.20092 0.0
H1099 H 0.23854 0.29153 0.16691 0.0
H1100 H 0.37373 0.19372 0.14132 0.0
H1101 H 0.34878 0.1863 0.10814 0.0
H1102 H 0.36863 0.19323 0.19323 0.0
H1103 H 0.35689 0.22206 0.2232 0.0
C1104 C 0.16778 0.13847 0.00851 0.0
C1105 C 0.19627 0.12928 0.02676 0.0
C1106 C 0.16799 0.07637 0.03936 0.0
C1107 C 0.13751 0.08851 0.026 0.0
N1108 N 0.10822 0.13824 0.00958 0.0
N1109 N 0.21993 0.08932 0.06459 0.0
C1110 C 0.13744 0.1215 0.01371 0.0
C1111 C 0.19546 0.09805 0.0435 0.0
N1112 N 0.1695 0.16319 0.98531 0.0
N1113 N 0.17142 0.04395 0.04729 0.0
H1114 H 0.23964 0.1043 0.06901 0.0
H1115 H 0.2189 0.06861 0.08003 0.0
H1116 H 0.15298 0.0273 0.0434 0.0
H1117 H 0.19382 0.03312 0.05423 0.0
H1118 H 0.14995 0.1692 0.96993 0.0
H1119 H 0.19164 0.17445 0.97842 0.0
H1120 H 0.1071 0.16296 1.0028 0.0
H1121 H 0.08565 0.1292 0.01828 0.0
C1122 C 0.65358 0.43699 0.03238 0.0
C1123 C 0.67519 0.43518 0.05912 0.0
C1124 C 0.63604 0.46834 0.09296 0.0
C1125 C 0.61729 0.47467 0.06445 0.0
N1126 N 0.61012 0.46761 0.00562 0.0
N1127 N 0.68754 0.44757 0.11543 0.0
C1128 C 0.62615 0.45922 0.03392 0.0
C1129 C 0.66646 0.45026 0.08971 0.0
N1130 N 0.65955 0.41805 0.00517 0.0
N1131 N 0.6242 0.47886 0.12318 0.0
H1132 H 0.70865 0.43232 0.11479 0.0
H1133 H 0.68484 0.46122 0.13688 0.0
H1134 H 0.60157 0.49146 0.12619 0.0
H1135 H 0.63508 0.4727 0.14553 0.0
H1136 H 0.64245 0.41548 0.98676 0.0
H1137 H 0.68027 0.40256 1.00223 0.0
H1138 H 0.61844 0.46072 0.98196 0.0
H1139 H 0.59002 0.4838 0.00513 0.0
C1140 C 0.92605 0.44964 0.33342 0.0
C1141 C 0.92227 0.46908 0.30393 0.0
C1142 C 0.874 0.438 0.28999 0.0
C1143 C 0.8753 0.42154 0.32114 0.0
N1144 N 0.90104 0.41096 0.37297 0.0
N1145 N 0.90246 0.47171 0.24845 0.0
C1146 C 0.90108 0.42702 0.34291 0.0
C1147 C 0.89918 0.46006 0.2804 0.0
N1148 N 0.95409 0.45115 0.35123 0.0
N1149 N 0.84755 0.43385 0.27048 0.0
H1150 H 0.92215 0.48631 0.2405 0.0
H1151 H 0.88826 0.46405 0.2292 0.0
H1152 H 0.82812 0.41857 0.27739 0.0
H1153 H 0.84334 0.44755 0.24894 0.0
H1154 H 0.95892 0.43631 0.37183 0.0
H1155 H 0.97494 0.46382 0.34328 0.0
H1156 H 0.91643 0.4165 0.39207 0.0
H1157 H 0.88386 0.39319 0.37969 0.0
C1158 C 0.91943 0.64912 0.55078 0.0
C1159 C 0.89189 0.63221 0.53892 0.0
C1160 C 0.92862 0.58269 0.53548 0.0
C1161 C 0.95729 0.60066 0.54276 0.0
N1162 N 0.9791 0.65477 0.54769 0.0
N1163 N 0.87529 0.58455 0.51002 0.0
C1164 C 0.95245 0.63496 0.54777 0.0
C1165 C 0.89794 0.59947 0.52846 0.0
N1166 N 0.91432 0.67827 0.56618 0.0
N1167 N 0.92981 0.54934 0.53634 0.0
H1168 H 0.85391 0.59641 0.50174 0.0
H1169 H 0.87997 0.56191 0.49923 0.0
H1170 H 0.95052 0.53555 0.54321 0.0
H1171 H 0.90878 0.53542 0.5342 0.0
H1172 H 0.93311 0.69003 0.57787 0.0
H1173 H 0.89083 0.68871 0.57072 0.0
H1174 H 0.97666 0.68015 0.5482 0.0
H1175 H 1.00333 0.64645 0.5428 0.0
C1176 C 0.20625 0.11905 0.31138 0.0
C1177 C 0.18237 0.11708 0.33811 0.0
C1178 C 0.205 0.16577 0.36202 0.0
C1179 C 0.23163 0.16428 0.33821 0.0
N1180 N 0.26046 0.13738 0.29291 0.0
N1181 N 0.15989 0.13754 0.39031 0.0
C1182 C 0.23303 0.14029 0.31361 0.0
C1183 C 0.18176 0.1403 0.36379 0.0
N1184 N 0.20249 0.10167 0.28324 0.0
N1185 N 0.20133 0.1922 0.38203 0.0
H1186 H 0.14172 0.11999 0.39208 0.0
H1187 H 0.1611 0.15138 0.41157 0.0
H1188 H 0.21777 0.21142 0.3809 0.0
H1189 H 0.18056 0.19647 0.39758 0.0
H1190 H 0.21759 0.10445 0.26189 0.0
H1191 H 0.18203 0.08727 0.27982 0.0
H1192 H 0.26438 0.1182 0.27655 0.0
H1193 H 0.28073 0.15248 0.29435 0.0
C1194 C 0.3953 0.92492 0.49884 0.0
C1195 C 0.37237 0.93074 0.526 0.0
C1196 C 0.39575 0.98444 0.53322 0.0
C1197 C 0.41994 0.97762 0.508 0.0
N1198 N 0.44834 0.93846 0.4728 0.0
N1199 N 0.35798 0.96187 0.57497 0.0
C1200 C 0.42141 0.94696 0.49256 0.0
C1201 C 0.37475 0.95931 0.54501 0.0
N1202 N 0.39152 0.89956 0.47793 0.0
N1203 N 0.39241 0.01526 0.5453 0.0
H1204 H 0.34396 0.94299 0.58543 0.0
H1205 H 0.36113 0.98102 0.59105 0.0
H1206 H 0.40708 0.03435 0.53636 0.0
H1207 H 0.37314 0.02249 0.56167 0.0
H1208 H 0.40535 0.89698 0.45575 0.0
H1209 H 0.37272 0.88277 0.4806 0.0
H1210 H 0.45247 0.91501 0.46376 0.0
H1211 H 0.46814 0.95392 0.46812 0.0
C1212 C 0.82739 0.64079 0.27752 0.0
C1213 C 0.85606 0.63747 0.25656 0.0
C1214 C 0.84727 0.69306 0.23472 0.0
C1215 C 0.82317 0.69843 0.26064 0.0
N1216 N 0.79095 0.67786 0.30818 0.0
N1217 N 0.89209 0.65814 0.21274 0.0
C1218 C 0.81273 0.67226 0.28197 0.0
C1219 C 0.86535 0.66286 0.23402 0.0
N1220 N 0.81476 0.61405 0.29387 0.0
N1221 N 0.85245 0.7167 0.21076 0.0
H1222 H 0.9039 0.6353 0.2102 0.0
H1223 H 0.90295 0.67668 0.19839 0.0
H1224 H 0.83905 0.73884 0.2105 0.0
H1225 H 0.86785 0.71345 0.18975 0.0
H1226 H 0.79206 0.61442 0.30703 0.0
H1227 H 0.82521 0.59066 0.29145 0.0
H1228 H 0.78597 0.66064 0.32696 0.0
H1229 H 0.77974 0.70049 0.31301 0.0
C1230 C 0.74837 0.43481 0.82032 0.0
C1231 C 0.72226 0.4461 0.80008 0.0
C1232 C 0.73812 0.40536 0.75873 0.0
C1233 C 0.75966 0.39038 0.78179 0.0
N1234 N 0.79856 0.40146 0.8238 0.0
N1235 N 0.69169 0.44267 0.74999 0.0
C1236 C 0.76895 0.40824 0.80952 0.0
C1237 C 0.71718 0.43178 0.76904 0.0
N1238 N 0.7523 0.44819 0.85066 0.0
N1239 N 0.73962 0.39585 0.72642 0.0
H1240 H 0.67624 0.4625 0.7564 0.0
H1241 H 0.68446 0.43072 0.72902 0.0
H1242 H 0.75781 0.37937 0.71746 0.0
H1243 H 0.72626 0.40739 0.70774 0.0
H1244 H 0.76816 0.43822 0.86819 0.0
H1245 H 0.73787 0.46788 0.85944 0.0
H1246 H 0.80768 0.41506 0.8428 0.0
H1247 H 0.8163 0.38547 0.81327 0.0
C1248 C 0.07073 0.91488 0.94276 0.0
C1249 C 0.04393 0.89361 0.95157 0.0
C1250 C 0.02582 0.93473 0.99409 0.0
C1251 C 0.05008 0.95779 0.98244 0.0
N1252 N 0.09291 0.96983 0.94128 0.0
N1253 N 0.99192 0.88838 0.98202 0.0
C1254 C 0.07136 0.94791 0.95518 0.0
C1255 C 0.02049 0.90504 0.97631 0.0
N1256 N 0.09731 0.90282 0.92459 0.0
N1257 N 1.00771 0.94065 0.02267 0.0
H1258 H 0.98664 0.86736 0.96931 0.0
H1259 H 0.972 0.89731 0.99663 0.0
H1260 H 1.00978 0.96172 0.03615 0.0
H1261 H 0.99262 0.92339 0.0345 0.0
H1262 H 0.11889 0.91573 0.91976 0.0
H1263 H 0.09962 0.87839 0.91814 0.0
H1264 H 0.10636 0.9657 0.91914 0.0
H1265 H 0.09548 0.99315 0.95059 0.0
C1266 C 0.9114 0.34157 0.71344 0.0
C1267 C 0.92142 0.32123 0.68666 0.0
C1268 C 0.86942 0.29229 0.69226 0.0
C1269 C 0.85896 0.31378 0.71808 0.0
N1270 N 0.86524 0.36477 0.74556 0.0
N1271 N 0.90811 0.28189 0.64595 0.0
C1272 C 0.8785 0.34031 0.72624 0.0
C1273 C 0.89968 0.29822 0.67437 0.0
N1274 N 0.93341 0.36151 0.72732 0.0
N1275 N 0.85178 0.26518 0.68622 0.0
H1276 H 0.93079 0.2847 0.63308 0.0
H1277 H 0.89171 0.26745 0.63384 0.0
H1278 H 0.82997 0.25932 0.69927 0.0
H1279 H 0.86028 0.24685 0.6703 0.0
H1280 H 0.92813 0.37404 0.74919 0.0
H1281 H 0.95796 0.36327 0.71895 0.0
H1282 H 0.87744 0.38631 0.74972 0.0
H1283 H 0.84058 0.3652 0.75431 0.0
C1284 C 0.53674 0.18048 0.44842 0.0
C1285 C 0.54415 0.20817 0.46749 0.0
C1286 C 0.55055 0.17003 0.51622 0.0
C1287 C 0.54523 0.14183 0.4969 0.0
N1288 N 0.54114 0.12147 0.4415 0.0
N1289 N 0.56656 0.22685 0.51787 0.0
C1290 C 0.5405 0.1475 0.46211 0.0
C1291 C 0.55366 0.20201 0.5008 0.0
N1292 N 0.52488 0.18554 0.41743 0.0
N1293 N 0.55056 0.16693 0.54996 0.0
H1294 H 0.56975 0.25016 0.50746 0.0
H1295 H 0.57742 0.22342 0.54076 0.0
H1296 H 0.5465 0.14487 0.56237 0.0
H1297 H 0.55067 0.18674 0.56571 0.0
H1298 H 0.51518 0.16707 0.40366 0.0
H1299 H 0.52255 0.20875 0.40649 0.0
H1300 H 0.54133 0.12391 0.41573 0.0
H1301 H 0.54502 0.09747 0.44984 0.0
C1302 C 0.60664 0.83068 0.21814 0.0
C1303 C 0.61004 0.82207 0.18424 0.0
C1304 C 0.64973 0.77808 0.19823 0.0
C1305 C 0.64772 0.78795 0.23158 0.0
N1306 N 0.62824 0.82513 0.27347 0.0
N1307 N 0.63732 0.7898 0.14095 0.0
C1308 C 0.62716 0.81466 0.24161 0.0
C1309 C 0.63249 0.79654 0.17392 0.0
N1310 N 0.58349 0.85383 0.22787 0.0
N1311 N 0.66797 0.75061 0.19013 0.0
H1312 H 0.62394 0.801 0.12215 0.0
H1313 H 0.6561 0.77429 0.13167 0.0
H1314 H 0.68155 0.73715 0.20741 0.0
H1315 H 0.66773 0.73956 0.16715 0.0
H1316 H 0.57705 0.85859 0.25256 0.0
H1317 H 0.56952 0.86747 0.21103 0.0
H1318 H 0.6169 0.84672 0.28178 0.0
H1319 H 0.64209 0.81277 0.29137 0.0
C1320 C 0.06079 0.24439 0.61605 0.0
C1321 C 0.04403 0.26479 0.59267 0.0
C1322 C 0.05247 0.22312 0.55042 0.0
C1323 C 0.07171 0.20445 0.57287 0.0
N1324 N 0.09833 0.19805 0.62474 0.0
N1325 N 0.02546 0.27517 0.53722 0.0
C1326 C 0.07701 0.21535 0.60506 0.0
C1327 C 0.04032 0.25461 0.55965 0.0
N1328 N 0.06104 0.25251 0.64876 0.0
N1329 N 0.04513 0.21011 0.52075 0.0
H1330 H 0.01445 0.29755 0.54383 0.0
H1331 H 0.02523 0.27077 0.5119 0.0
H1332 H 0.05446 0.18734 0.51323 0.0
H1333 H 0.02836 0.22081 0.50453 0.0
H1334 H 0.06976 0.23688 0.66736 0.0
H1335 H 0.05037 0.27391 0.65812 0.0
H1336 H 0.10648 0.20641 0.64715 0.0
H1337 H 0.1102 0.17637 0.61719 0.0
C1338 C 0.65729 0.32882 0.36102 0.0
C1339 C 0.64308 0.29924 0.37332 0.0
C1340 C 0.69545 0.2699 0.35634 0.0
C1341 C 0.7083 0.29889 0.34094 0.0
N1342 N 0.69807 0.35495 0.32404 0.0
N1343 N 0.64753 0.24074 0.37901 0.0
C1344 C 0.68835 0.32812 0.34228 0.0
C1345 C 0.66186 0.26953 0.36975 0.0
N1346 N 0.64119 0.35788 0.36748 0.0
N1347 N 0.71596 0.24307 0.35984 0.0
H1348 H 0.62371 0.23965 0.38988 0.0
H1349 H 0.65824 0.21793 0.37387 0.0
H1350 H 0.74091 0.243 0.35221 0.0
H1351 H 0.70938 0.22212 0.37334 0.0
H1352 H 0.6518 0.38048 0.36277 0.0
H1353 H 0.61818 0.35944 0.38004 0.0
H1354 H 0.68307 0.37576 0.32083 0.0
H1355 H 0.7199 0.35539 0.30941 0.0
C1356 C 0.48789 0.91787 0.09168 0.0
C1357 C 0.50783 0.91063 0.11925 0.0
C1358 C 0.51619 0.96858 0.12599 0.0
C1359 C 0.50551 0.97442 0.09331 0.0
N1360 N 0.47262 0.9568 0.04856 0.0
N1361 N 0.54184 0.92917 0.16282 0.0
C1362 C 0.48841 0.94973 0.07729 0.0
C1363 C 0.5219 0.93601 0.13681 0.0
N1364 N 0.46752 0.89478 0.08027 0.0
N1365 N 0.51932 0.99376 0.14712 0.0
H1366 H 0.54726 0.90544 0.17113 0.0
H1367 H 0.55528 0.94697 0.17408 0.0
H1368 H 0.51081 0.01739 0.14141 0.0
H1369 H 0.52521 0.99018 0.17191 0.0
H1370 H 0.45023 0.89942 0.06215 0.0
H1371 H 0.46555 0.87156 0.09111 0.0
H1372 H 0.4643 0.93916 0.03288 0.0
H1373 H 0.46788 0.9807 0.04043 0.0
C1374 C 0.92071 0.82832 0.86952 0.0
C1375 C 0.94291 0.80132 0.87512 0.0
C1376 C 0.90995 0.7693 0.83623 0.0
C1377 C 0.88593 0.79534 0.83294 0.0
N1378 N 0.86766 0.84917 0.85051 0.0
N1379 N 0.9563 0.74464 0.866 0.0
C1380 C 0.89139 0.8248 0.8505 0.0
C1381 C 0.93694 0.77151 0.85881 0.0
N1382 N 0.92805 0.85788 0.88217 0.0
N1383 N 0.90771 0.74265 0.81674 0.0
H1384 H 0.97638 0.74549 0.88144 0.0
H1385 H 0.95125 0.72116 0.85861 0.0
H1386 H 0.88891 0.74035 0.79997 0.0
H1387 H 0.9259 0.72423 0.81493 0.0
H1388 H 0.91471 0.87946 0.8778 0.0
H1389 H 0.94933 0.86155 0.89534 0.0
H1390 H 0.8675 0.86931 0.86576 0.0
H1391 H 0.84619 0.84813 0.83738 0.0
C1392 C 0.92994 0.12296 0.87044 0.0
C1393 C 0.91103 0.09458 0.87172 0.0
C1394 C 0.9332 0.08067 0.92542 0.0
C1395 C 0.95958 0.10237 0.91801 0.0
N1396 N 0.98464 0.14154 0.87931 0.0
N1397 N 0.89181 0.04715 0.90175 0.0
C1398 C 0.9581 0.12358 0.88982 0.0
C1399 C 0.91123 0.07387 0.90001 0.0
N1400 N 0.92253 0.14764 0.84853 0.0
N1401 N 0.92886 0.06736 0.95653 0.0
H1402 H 0.87487 0.04267 0.88355 0.0
H1403 H 0.89355 0.02923 0.92039 0.0
H1404 H 0.94293 0.07427 0.97624 0.0
H1405 H 0.90895 0.05271 0.96345 0.0
H1406 H 0.9349 0.16969 0.84761 0.0
H1407 H 0.90153 0.147 0.83427 0.0
H1408 H 0.98497 0.15533 0.85726 0.0
H1409 H 1.00767 0.13946 0.89 0.0
C1410 C 0.75809 0.2235 0.59932 0.0
C1411 C 0.78094 0.24289 0.58052 0.0
C1412 C 0.76963 0.28863 0.61744 0.0
C1413 C 0.74467 0.27021 0.63415 0.0
N1414 N 0.71162 0.2227 0.63927 0.0
N1415 N 0.80721 0.29434 0.56949 0.0
C1416 C 0.73782 0.2384 0.62436 0.0
C1417 C 0.78633 0.27567 0.58893 0.0
N1418 N 0.75601 0.19086 0.59354 0.0
N1419 N 0.77836 0.31778 0.62994 0.0
H1420 H 0.82169 0.28479 0.54982 0.0
H1421 H 0.80916 0.31946 0.57194 0.0
H1422 H 0.76587 0.32838 0.65026 0.0
H1423 H 0.79907 0.33055 0.62146 0.0
H1424 H 0.74213 0.17495 0.60858 0.0
H1425 H 0.77 0.17889 0.57507 0.0
H1426 H 0.70295 0.20058 0.63135 0.0
H1427 H 0.69665 0.23351 0.65788 0.0
C1428 C 0.63597 0.98718 0.42454 0.0
C1429 C 0.65499 0.01387 0.41273 0.0
C1430 C 0.62867 0.04951 0.45338 0.0
C1431 C 0.60958 0.02291 0.46574 0.0
N1432 N 0.59985 0.96506 0.46845 0.0
N1433 N 0.67728 0.06662 0.42134 0.0
C1434 C 0.61472 0.99118 0.45302 0.0
C1435 C 0.65418 0.04368 0.42931 0.0
N1436 N 0.63754 0.95853 0.40775 0.0
N1437 N 0.62082 0.0807 0.46275 0.0
H1438 H 0.69625 0.06264 0.40348 0.0
H1439 H 0.67967 0.08784 0.43474 0.0
H1440 H 0.60085 0.08633 0.47876 0.0
H1441 H 0.63183 0.10127 0.45201 0.0
H1442 H 0.62143 0.93944 0.41258 0.0
H1443 H 0.6545 0.95444 0.38799 0.0
H1444 H 0.60518 0.94092 0.46217 0.0
H1445 H 0.58388 0.96736 0.48927 0.0
C1446 C 0.80841 0.87693 0.1515 0.0
C1447 C 0.79716 0.86107 0.12309 0.0
C1448 C 0.78619 0.81185 0.1591 0.0
C1449 C 0.79593 0.8282 0.18791 0.0
N1450 N 0.80936 0.87965 0.21166 0.0
N1451 N 0.76864 0.81563 0.10192 0.0
C1452 C 0.80512 0.86168 0.18406 0.0
C1453 C 0.78404 0.82919 0.12767 0.0
N1454 N 0.82353 0.90622 0.14734 0.0
N1455 N 0.78065 0.7791 0.16117 0.0
H1456 H 0.76625 0.82761 0.07899 0.0
H1457 H 0.75538 0.79419 0.10424 0.0
H1458 H 0.78273 0.76538 0.18311 0.0
H1459 H 0.77711 0.76486 0.14059 0.0
H1460 H 0.83628 0.91716 0.16594 0.0
H1461 H 0.82523 0.91859 0.1245 0.0
H1462 H 0.81221 0.90485 0.2109 0.0
H1463 H 0.80673 0.87013 0.23574 0.0
C1464 C 0.98371 0.09373 0.69235 0.0
C1465 C 0.98076 0.06533 0.71264 0.0
C1466 C 0.01665 0.03456 0.67387 0.0
C1467 C 0.01653 0.06175 0.65157 0.0
N1468 N 0.99305 0.11503 0.63672 0.0
N1469 N 0.98796 1.00681 0.71933 0.0
C1470 C 0.9984 0.09094 0.66002 0.0
C1471 C 0.99544 0.03518 0.7025 0.0
N1472 N 0.97293 0.12338 0.70405 0.0
N1473 N 0.03757 1.00837 0.66815 0.0
H1474 H 0.9716 1.00596 0.7399 0.0
H1475 H 0.99521 0.98379 0.7108 0.0
H1476 H 0.05387 1.00722 0.64761 0.0
H1477 H 0.04109 0.98941 0.68542 0.0
H1478 H 0.97771 0.14539 0.69155 0.0
H1479 H 0.96172 0.12624 0.72758 0.0
H1480 H 0.97711 0.13506 0.64086 0.0
H1481 H 1.00121 0.11332 0.61207 0.0
C1482 C 0.82172 0.1869 0.39086 0.0
C1483 C 0.83788 0.20017 0.41769 0.0
C1484 C 0.85843 0.24496 0.38243 0.0
C1485 C 0.83833 0.2341 0.35702 0.0
N1486 N 0.8205 0.18497 0.33122 0.0
N1487 N 0.88213 0.23298 0.43582 0.0
C1488 C 0.82617 0.20183 0.35916 0.0
C1489 C 0.8598 0.2264 0.41239 0.0
N1490 N 0.80099 0.1613 0.39573 0.0
N1491 N 0.876 0.27283 0.37799 0.0
H1492 H 0.88428 0.21884 0.45745 0.0
H1493 H 0.90059 0.25013 0.43255 0.0
H1494 H 0.8797 0.28403 0.35478 0.0
H1495 H 0.88699 0.28472 0.39712 0.0
H1496 H 0.78583 0.15333 0.37734 0.0
H1497 H 0.79741 0.14949 0.41871 0.0
H1498 H 0.81329 0.16072 0.33193 0.0
H1499 H 0.82814 0.19333 0.30762 0.0
C1500 C 0.6404 0.06831 0.22232 0.0
C1501 C 0.62117 0.04724 0.24338 0.0
C1502 C 0.57523 0.05235 0.2059 0.0
C1503 C 0.59522 0.07128 0.18384 0.0
N1504 N 0.64841 0.09222 0.16717 0.0
N1505 N 0.57333 0.0138 0.25226 0.0
C1506 C 0.62836 0.07771 0.19087 0.0
C1507 C 0.58947 0.03752 0.23418 0.0
N1508 N 0.66903 0.08095 0.23303 0.0
N1509 N 0.54229 0.04972 0.20032 0.0
H1510 H 0.58358 1.0021 0.27288 0.0
H1511 H 0.55146 1.0036 0.24502 0.0
H1512 H 0.53115 0.06112 0.18004 0.0
H1513 H 0.52558 0.0388 0.21716 0.0
H1514 H 0.68175 0.09938 0.22019 0.0
H1515 H 0.67884 0.07503 0.25598 0.0
H1516 H 0.67383 0.09449 0.16952 0.0
H1517 H 0.63999 0.0996 0.14396 0.0
C1518 C 0.81388 0.85406 0.93078 0.0
C1519 C 0.79148 0.8798 0.94089 0.0
C1520 C 0.7629 0.87232 0.88731 0.0
C1521 C 0.78305 0.84422 0.87918 0.0
N1522 N 0.82422 0.80507 0.89894 0.0
N1523 N 0.73895 0.90718 0.93058 0.0
C1524 C 0.80718 0.83404 0.90282 0.0
C1525 C 0.76457 0.88737 0.91947 0.0
N1526 N 0.84299 0.84968 0.94668 0.0
N1527 N 0.74144 0.88459 0.86454 0.0
H1528 H 0.73739 0.91664 0.95434 0.0
H1529 H 0.71724 0.91106 0.91776 0.0
H1530 H 0.73761 0.87322 0.84216 0.0
H1531 H 0.72912 0.90713 0.86697 0.0
H1532 H 0.86215 0.83411 0.93819 0.0
H1533 H 0.84966 0.86441 0.96596 0.0
H1534 H 0.83904 0.79467 0.91717 0.0
H1535 H 0.82168 0.79 0.87888 0.0
C1536 C 0.91158 0.97368 1.00263 0.0
C1537 C 0.89274 0.96326 0.03122 0.0
C1538 C 0.92879 0.99773 0.0649 0.0
C1539 C 0.95026 1.00491 0.03677 0.0
N1540 N 0.96388 0.99242 0.97925 0.0
N1541 N 0.88592 0.96341 0.09066 0.0
C1542 C 0.94181 0.99122 0.00569 0.0
C1543 C 0.90204 0.97493 0.06262 0.0
N1544 N 0.90043 0.96693 0.97201 0.0
N1545 N 0.93312 0.01362 0.09377 0.0
H1546 H 0.86591 0.94792 0.08985 0.0
H1547 H 0.89364 0.96742 0.11455 0.0
H1548 H 0.95149 0.03074 0.09615 0.0
H1549 H 0.91669 0.01227 0.11425 0.0
H1550 H 0.91062 0.97677 0.95 0.0
H1551 H 0.87883 0.9541 0.96881 0.0
H1552 H 0.96115 0.97969 0.95749 0.0
H1553 H 0.98694 1.00268 0.98025 0.0
C1554 C 0.43464 0.62864 0.99374 0.0
C1555 C 0.41672 0.64515 0.01962 0.0
C1556 C 0.45532 0.62349 0.06036 0.0
C1557 C 0.47249 0.60638 0.03447 0.0
N1558 N 0.48505 0.59956 0.97618 0.0
N1559 N 0.41275 0.66407 0.07575 0.0
C1560 C 0.4642 0.61117 1.001 0.0
C1561 C 0.42799 0.64442 0.05247 0.0
N1562 N 0.42252 0.62819 0.96258 0.0
N1563 N 0.46464 0.61893 0.09241 0.0
H1564 H 0.39265 0.67961 0.07043 0.0
H1565 H 0.42126 0.66691 0.09952 0.0
H1566 H 0.48567 0.60519 0.09866 0.0
H1567 H 0.45104 0.62758 0.11297 0.0
H1568 H 0.43206 0.61309 0.9439 0.0
H1569 H 0.40142 0.64136 0.9559 0.0
H1570 H 0.48219 0.60516 0.95112 0.0
H1571 H 0.50718 0.58687 0.9808 0.0
C1572 C 0.17622 0.65092 0.81037 0.0
C1573 C 0.19039 0.62006 0.81929 0.0
C1574 C 0.2411 0.63289 0.78694 0.0
C1575 C 0.22505 0.66113 0.7739 0.0
N1576 N 0.17819 0.69861 0.77353 0.0
N1577 N 0.24124 0.59059 0.82997 0.0
C1578 C 0.19278 0.67064 0.78579 0.0
C1579 C 0.22449 0.61368 0.81174 0.0
N1580 N 0.14868 0.66245 0.82751 0.0
N1581 N 0.27212 0.62432 0.77496 0.0
H1582 H 0.23003 0.57873 0.85049 0.0
H1583 H 0.26669 0.58614 0.82752 0.0
H1584 H 0.28469 0.63827 0.75678 0.0
H1585 H 0.28422 0.60236 0.78101 0.0
H1586 H 0.13761 0.6853 0.82332 0.0
H1587 H 0.13964 0.65095 0.8492 0.0
H1588 H 0.15355 0.70549 0.77849 0.0
H1589 H 0.19024 0.71416 0.7565 0.0
C1590 C 0.19951 0.49672 0.54682 0.0
C1591 C 0.20346 0.46508 0.53252 0.0
C1592 C 0.14269 0.46822 0.52427 0.0
C1593 C 0.1407 0.5022 0.53149 0.0
N1594 N 0.1726 0.54998 0.54165 0.0
N1595 N 0.17633 0.42537 0.49911 0.0
C1596 C 0.17069 0.51682 0.54037 0.0
C1597 C 0.1744 0.45212 0.51874 0.0
N1598 N 0.22204 0.50738 0.56824 0.0
N1599 N 0.11462 0.45036 0.52432 0.0
H1600 H 0.19835 0.41382 0.49138 0.0
H1601 H 0.15595 0.41727 0.48678 0.0
H1602 H 0.09132 0.45971 0.53167 0.0
H1603 H 0.11534 0.42507 0.52173 0.0
H1604 H 0.21876 0.52936 0.58068 0.0
H1605 H 0.24084 0.49238 0.5776 0.0
H1606 H 0.19476 0.5615 0.54573 0.0
H1607 H 0.15359 0.56592 0.53432 0.0
C1608 C 0.88342 0.97691 0.74439 0.0
C1609 C 0.90087 0.9727 0.77423 0.0
C1610 C 0.88828 0.915 0.77444 0.0
C1611 C 0.86377 0.9218 0.75077 0.0
N1612 N 0.83519 0.9612 0.71601 0.0
N1613 N 0.91816 0.9369 0.81928 0.0
C1614 C 0.86071 0.95323 0.73615 0.0
C1615 C 0.90334 0.94138 0.78961 0.0
N1616 N 0.88911 1.00304 0.72356 0.0
N1617 N 0.89739 0.88346 0.78189 0.0
H1618 H 0.9282 0.95576 0.83222 0.0
H1619 H 0.91777 0.91477 0.83242 0.0
H1620 H 0.88799 0.86379 0.76956 0.0
H1621 H 0.91691 0.87724 0.7972 0.0
H1622 H 0.87844 1.00572 0.70048 0.0
H1623 H 0.90774 0.01947 0.72745 0.0
H1624 H 0.83059 0.98501 0.70735 0.0
H1625 H 0.81676 0.94498 0.71077 0.0
C1626 C 0.70095 0.16603 0.53885 0.0
C1627 C 0.72388 0.15075 0.51589 0.0
C1628 C 0.70738 0.09696 0.53731 0.0
C1629 C 0.68307 0.11215 0.55833 0.0
N1630 N 0.6521 0.16022 0.57505 0.0
N1631 N 0.74498 0.10207 0.48918 0.0
C1632 C 0.67861 0.14646 0.55798 0.0
C1633 C 0.726 0.11623 0.514 0.0
N1634 N 0.70153 0.19892 0.54388 0.0
N1635 N 0.71231 0.06391 0.53981 0.0
H1636 H 0.75811 0.11574 0.4712 0.0
H1637 H 0.74538 0.07717 0.48452 0.0
H1638 H 0.69865 0.04951 0.55676 0.0
H1639 H 0.73144 0.0512 0.52729 0.0
H1640 H 0.68814 0.21039 0.56311 0.0
H1641 H 0.71747 0.21466 0.53104 0.0
H1642 H 0.64479 0.18468 0.57235 0.0
H1643 H 0.63594 0.14657 0.59025 0.0
C1644 C 0.21332 0.42116 0.7749 0.0
C1645 C 0.21906 0.44137 0.80182 0.0
C1646 C 0.25502 0.39897 0.82665 0.0
C1647 C 0.2504 0.37924 0.79886 0.0
N1648 N 0.23221 0.37544 0.74254 0.0
N1649 N 0.24889 0.45253 0.85097 0.0
C1650 C 0.23146 0.39139 0.7719 0.0
C1651 C 0.24128 0.43133 0.82684 0.0
N1652 N 0.19026 0.43026 0.75221 0.0
N1653 N 0.27084 0.38619 0.85357 0.0
H1654 H 0.23815 0.47585 0.85297 0.0
H1655 H 0.26759 0.44797 0.86766 0.0
H1656 H 0.28085 0.36246 0.85444 0.0
H1657 H 0.27184 0.39802 0.87608 0.0
H1658 H 0.18151 0.41438 0.7349 0.0
H1659 H 0.17828 0.45314 0.75185 0.0
H1660 H 0.22227 0.38506 0.72084 0.0
H1661 H 0.24591 0.35414 0.73878 0.0
C1662 C 0.35937 0.67377 0.23919 0.0
C1663 C 0.3435 0.64533 0.25064 0.0
C1664 C 0.29427 0.67851 0.26629 0.0
C1665 C 0.3137 0.70682 0.26258 0.0
N1666 N 0.36759 0.73008 0.25002 0.0
N1667 N 0.29407 0.61966 0.27329 0.0
C1668 C 0.34698 0.70421 0.25004 0.0
C1669 C 0.31008 0.64722 0.26297 0.0
N1670 N 0.38718 0.67137 0.219 0.0
N1671 N 0.26108 0.68147 0.27365 0.0
H1672 H 0.30322 0.5962 0.26854 0.0
H1673 H 0.27177 0.62008 0.28714 0.0
H1674 H 0.24929 0.70388 0.27829 0.0
H1675 H 0.24499 0.66205 0.2731 0.0
H1676 H 0.39836 0.69159 0.20763 0.0
H1677 H 0.39657 0.64884 0.21096 0.0
H1678 H 0.39288 0.72802 0.24403 0.0
H1679 H 0.36049 0.75283 0.25893 0.0
C1680 C 0.57173 0.67441 0.61865 0.0
C1681 C 0.54655 0.6992 0.61473 0.0
C1682 C 0.51248 0.65651 0.58915 0.0
C1683 C 0.53919 0.63277 0.58969 0.0
N1684 N 0.59686 0.6227 0.60117 0.0
N1685 N 0.49342 0.71362 0.59309 0.0
C1686 C 0.56933 0.64268 0.60379 0.0
C1687 C 0.51695 0.68997 0.59933 0.0
N1688 N 0.5981 0.68097 0.63744 0.0
N1689 N 0.48222 0.64682 0.5797 0.0
H1690 H 0.49542 0.73763 0.60072 0.0
H1691 H 0.4731 0.7101 0.57857 0.0
H1692 H 0.47799 0.62298 0.57263 0.0
H1693 H 0.46072 0.66132 0.58171 0.0
H1694 H 0.61549 0.66329 0.64478 0.0
H1695 H 0.60071 0.70347 0.64854 0.0
H1696 H 0.62053 0.62999 0.60656 0.0
H1697 H 0.59683 0.59978 0.59067 0.0
C1698 C 0.65688 0.25131 0.86625 0.0
C1699 C 0.64589 0.28049 0.88192 0.0
C1700 C 0.69295 0.30959 0.85703 0.0
C1701 C 0.70205 0.2813 0.8386 0.0
N1702 N 0.69176 0.22606 0.82327 0.0
N1703 N 0.65034 0.33846 0.88948 0.0
C1704 C 0.68371 0.25236 0.8425 0.0
C1705 C 0.66328 0.30985 0.87694 0.0
N1706 N 0.64229 0.22245 0.87498 0.0
N1707 N 0.71244 0.33641 0.85529 0.0
H1708 H 0.6287 0.33982 0.90435 0.0
H1709 H 0.65954 0.36135 0.88315 0.0
H1710 H 0.73272 0.33868 0.83885 0.0
H1711 H 0.70968 0.3558 0.87153 0.0
H1712 H 0.65114 0.19976 0.86696 0.0
H1713 H 0.62288 0.22082 0.89273 0.0
H1714 H 0.67715 0.2056 0.82209 0.0
H1715 H 0.71222 0.22555 0.80678 0.0
C1716 C 0.08207 0.39898 0.09905 0.0
C1717 C 0.05383 0.38726 0.11774 0.0
C1718 C 0.02723 0.44272 0.10903 0.0
C1719 C 0.05427 0.45364 0.08801 0.0
N1720 N 0.1051 0.43828 0.05855 0.0
N1721 N 0.99618 0.39723 0.13287 0.0
C1722 C 0.08107 0.43063 0.08196 0.0
C1723 C 0.02559 0.40904 0.12057 0.0
N1724 N 0.1106 0.38033 0.09847 0.0
N1725 N 1.00343 0.46487 0.11956 0.0
H1726 H 0.99327 0.3729 0.14024 0.0
H1727 H 0.97386 0.41054 0.1322 0.0
H1728 H 1.00359 0.4895 0.11261 0.0
H1729 H 0.98545 0.45954 0.13795 0.0
H1730 H 0.13321 0.38865 0.08885 0.0
H1731 H 0.11226 0.35741 0.11014 0.0
H1732 H 0.12331 0.42164 0.05015 0.0
H1733 H 0.10499 0.46031 0.04512 0.0
C1734 C 0.94443 0.82031 0.40261 0.0
C1735 C 0.97007 0.79601 0.39928 0.0
C1736 C 0.95346 0.78489 0.34294 0.0
C1737 C 0.92719 0.80789 0.34693 0.0
N1738 N 0.89266 0.84238 0.38203 0.0
N1739 N 0.994 0.74987 0.36949 0.0
C1740 C 0.92115 0.82408 0.37726 0.0
C1741 C 0.97313 0.7767 0.37033 0.0
N1742 N 0.94318 0.84086 0.42892 0.0
N1743 N 0.95984 0.77141 0.31259 0.0
H1744 H 1.00841 0.74252 0.38932 0.0
H1745 H 0.99475 0.73308 0.35044 0.0
H1746 H 0.94533 0.77687 0.29222 0.0
H1747 H 0.98084 0.75701 0.30689 0.0
H1748 H 0.92751 0.86143 0.43031 0.0
H1749 H 0.95946 0.83908 0.44831 0.0
H1750 H 0.88495 0.85185 0.40489 0.0
H1751 H 0.87526 0.84582 0.36372 0.0
C1752 C 0.53515 0.36141 0.00609 0.0
C1753 C 0.53012 0.35572 0.972 0.0
C1754 C 0.49314 0.40412 0.96947 0.0
C1755 C 0.4966 0.40815 0.00376 0.0
N1756 N 0.51488 0.38787 0.05635 0.0
N1757 N 0.49866 0.36816 0.92287 0.0
C1758 C 0.5153 0.38546 0.02262 0.0
C1759 C 0.50745 0.37603 0.95406 0.0
N1760 N 0.56073 0.34604 0.02197 0.0
N1761 N 0.47714 0.42795 0.95152 0.0
H1762 H 0.50667 0.3469 0.91108 0.0
H1763 H 0.48033 0.38081 0.90998 0.0
H1764 H 0.46524 0.44804 0.9627 0.0
H1765 H 0.47739 0.42887 0.92568 0.0
H1766 H 0.56738 0.35176 0.04583 0.0
H1767 H 0.5779 0.33032 0.0102 0.0
H1768 H 0.52558 0.37028 0.07193 0.0
H1769 H 0.50105 0.40598 0.06884 0.0
C1770 C 0.94849 0.30516 0.2346 0.0
C1771 C 0.95346 0.29505 0.20111 0.0
C1772 C 0.89283 0.28586 0.20057 0.0
C1773 C 0.88917 0.29101 0.23546 0.0
N1774 N 0.91766 0.29694 0.28651 0.0
N1775 N 0.92965 0.26896 0.15471 0.0
C1776 C 0.91822 0.29819 0.25265 0.0
C1777 C 0.92539 0.28352 0.18476 0.0
N1778 N 0.97188 0.32303 0.24904 0.0
N1779 N 0.86538 0.28476 0.18192 0.0
H1780 H 0.95282 0.26521 0.14298 0.0
H1781 H 0.91058 0.25739 0.14327 0.0
H1782 H 0.84135 0.28808 0.19183 0.0
H1783 H 0.86669 0.28428 0.15607 0.0
H1784 H 0.96802 0.33335 0.27233 0.0
H1785 H 0.99308 0.33121 0.23624 0.0
H1786 H 0.93887 0.29924 0.30014 0.0
H1787 H 0.8971 0.28934 0.30066 0.0
C1788 C 0.09692 0.67404 0.45997 0.0
C1789 C 0.06579 0.68968 0.4545 0.0
C1790 C 0.03801 0.63771 0.45893 0.0
C1791 C 0.06797 0.62272 0.4696 0.0
N1792 N 0.12716 0.62292 0.47159 0.0
N1793 N 1.00779 0.68626 0.44272 0.0
C1794 C 0.09801 0.63977 0.46682 0.0
C1795 C 0.03698 0.67132 0.45139 0.0
N1796 N 0.12473 0.69228 0.46059 0.0
N1797 N 1.00927 0.62124 0.45763 0.0
H1798 H 1.00556 0.7112 0.43734 0.0
H1799 H 0.98593 0.67355 0.44058 0.0
H1800 H 1.00706 0.5963 0.46239 0.0
H1801 H 1.00706 0.5963 0.46239 0.0
H1802 H 0.14796 0.6831 0.46685 0.0
H1803 H 0.12446 0.7173 0.45517 0.0
H1804 H 0.15048 0.63302 0.46901 0.0
H1805 H 0.12785 0.59771 0.47615 0.0
C1806 C 0.65105 0.82599 0.72188 0.0
C1807 C 0.6414 0.79698 0.70623 0.0
C1808 C 0.69037 0.76825 0.73079 0.0
C1809 C 0.69932 0.7969 0.74788 0.0
N1810 N 0.68273 0.8512 0.76446 0.0
N1811 N 0.64851 0.73886 0.70213 0.0
C1812 C 0.67802 0.82521 0.74468 0.0
C1813 C 0.66005 0.76769 0.71284 0.0
N1814 N 0.63505 0.85478 0.71416 0.0
N1815 N 0.71187 0.74195 0.72956 0.0
H1816 H 0.62678 0.73763 0.68908 0.0
H1817 H 0.65844 0.71609 0.709 0.0
H1818 H 0.73443 0.7411 0.74114 0.0
H1819 H 0.70891 0.72207 0.71439 0.0
H1820 H 0.64311 0.87748 0.72112 0.0
H1821 H 0.61477 0.85609 0.69886 0.0
H1822 H 0.66646 0.87129 0.76605 0.0
H1823 H 0.70119 0.85122 0.78187 0.0
C1824 C 0.58841 0.54579 0.72432 0.0
C1825 C 0.6189 0.53405 0.73683 0.0
C1826 C 0.63056 0.50388 0.68583 0.0
C1827 C 0.59774 0.51081 0.6765 0.0
N1828 N 0.54454 0.53738 0.68648 0.0
N1829 N 0.67523 0.51918 0.72015 0.0
C1830 C 0.57646 0.53172 0.69554 0.0
C1831 C 0.64208 0.51791 0.71499 0.0
N1832 N 0.57261 0.57235 0.73817 0.0
N1833 N 0.65041 0.48355 0.66692 0.0
H1834 H 0.68468 0.53408 0.73797 0.0
H1835 H 0.69347 0.50958 0.70394 0.0
H1836 H 0.64254 0.47367 0.64501 0.0
H1837 H 0.67348 0.47465 0.67418 0.0
H1838 H 0.55156 0.58367 0.72854 0.0
H1839 H 0.58339 0.58587 0.75636 0.0
H1840 H 0.52682 0.54967 0.7013 0.0
H1841 H 0.53501 0.52738 0.66539 0.0
C1842 C 0.81811 0.37162 0.95226 0.0
C1843 C 0.79233 0.35719 0.97223 0.0
C1844 C 0.79753 0.30751 0.93939 0.0
C1845 C 0.82317 0.32208 0.91991 0.0
N1846 N 0.86242 0.3641 0.91037 0.0
N1847 N 0.75935 0.31027 0.98712 0.0
C1848 C 0.83503 0.35287 0.92748 0.0
C1849 C 0.78287 0.32459 0.96672 0.0
N1850 N 0.82579 0.40347 0.95624 0.0
N1851 N 0.78611 0.27805 0.93025 0.0
H1852 H 0.74533 0.3229 0.00515 0.0
H1853 H 0.7543 0.28549 0.98703 0.0
H1854 H 0.7976 0.26455 0.91119 0.0
H1855 H 0.76477 0.2675 0.94038 0.0
H1856 H 0.84172 0.4165 0.94034 0.0
H1857 H 0.81439 0.4178 0.97435 0.0
H1858 H 0.87468 0.3851 0.91628 0.0
H1859 H 0.87466 0.35064 0.89172 0.0
C1860 C 1.00482 0.54516 0.1926 0.0
C1861 C 0.98885 0.57434 0.20353 0.0
C1862 C 0.99927 0.60008 0.14899 0.0
C1863 C 0.01844 0.57204 0.13958 0.0
N1864 N 0.04576 0.52093 0.15529 0.0
N1865 N 0.97409 0.6311 0.19447 0.0
C1866 C 0.02326 0.54556 0.16227 0.0
C1867 C 0.9868 0.60232 0.18236 0.0
N1868 N 1.00122 0.51662 0.21053 0.0
N1869 N 0.99306 0.62437 0.12611 0.0
H1870 H 0.96496 0.63335 0.2189 0.0
H1871 H 0.97474 0.65317 0.18117 0.0
H1872 H 1.00325 0.62412 0.10193 0.0
H1873 H 0.97641 0.64377 0.13052 0.0
H1874 H 1.00932 0.49396 0.20165 0.0
H1875 H 0.98702 0.51495 0.23264 0.0
H1876 H 0.05245 0.50294 0.17263 0.0
H1877 H 0.06022 0.52009 0.13348 0.0
C1878 C 0.81718 0.71435 0.42318 0.0
C1879 C 0.79015 0.71661 0.44703 0.0
C1880 C 0.76141 0.75372 0.40631 0.0
C1881 C 0.78688 0.7483 0.38126 0.0
N1882 N 0.83586 0.71657 0.3652 0.0
N1883 N 0.73421 0.73604 0.45853 0.0
C1884 C 0.81386 0.72675 0.38965 0.0
C1885 C 0.76169 0.73578 0.43776 0.0
N1886 N 0.84705 0.70178 0.43287 0.0
N1887 N 0.73743 0.77711 0.40071 0.0
H1888 H 0.73352 0.72378 0.48144 0.0
H1889 H 0.71138 0.74609 0.45194 0.0
H1890 H 0.73657 0.79084 0.37865 0.0
H1891 H 0.72025 0.785 0.41891 0.0
H1892 H 0.86858 0.70263 0.41783 0.0
H1893 H 0.85133 0.69408 0.45717 0.0
H1894 H 0.85372 0.69815 0.36888 0.0
H1895 H 0.83403 0.72378 0.34039 0.0
C1896 C 0.63652 0.53438 0.93611 0.0
C1897 C 0.62372 0.51316 0.91274 0.0
C1898 C 0.56817 0.51991 0.93864 0.0
C1899 C 0.5812 0.54108 0.96186 0.0
N1900 N 0.62322 0.58036 0.97092 0.0
N1901 N 0.57976 0.47861 0.89743 0.0
C1902 C 0.61407 0.55195 0.95715 0.0
C1903 C 0.5901 0.50395 0.9156 0.0
N1904 N 0.66985 0.53693 0.93947 0.0
N1905 N 0.53464 0.51709 0.9371 0.0
H1906 H 0.59597 0.46522 0.88182 0.0
H1907 H 0.55642 0.46855 0.90055 0.0
H1908 H 0.51805 0.53153 0.95126 0.0
H1909 H 0.52328 0.50395 0.91909 0.0
H1910 H 0.67983 0.55032 0.9582 0.0
H1911 H 0.68746 0.52226 0.9271 0.0
H1912 H 0.6467 0.59002 0.96734 0.0
H1913 H 0.6059 0.59672 0.9816 0.0
C1914 C 0.7983 0.38261 0.16708 0.0
C1915 C 0.77294 0.37206 0.14716 0.0
C1916 C 0.74371 0.34909 0.19586 0.0
C1917 C 0.77283 0.35239 0.21384 0.0
N1918 N 0.82895 0.37242 0.21632 0.0
N1919 N 0.71972 0.34805 0.14161 0.0
C1920 C 0.80014 0.37005 0.19986 0.0
C1921 C 0.74465 0.35673 0.16136 0.0
N1922 N 0.8208 0.40435 0.15436 0.0
N1923 N 0.71554 0.33834 0.21193 0.0
H1924 H 0.71939 0.35434 0.11641 0.0
H1925 H 0.70015 0.33354 0.14979 0.0
H1926 H 0.71451 0.33311 0.23741 0.0
H1927 H 0.6927 0.33753 0.20089 0.0
H1928 H 0.83808 0.41542 0.16869 0.0
H1929 H 0.81974 0.41393 0.1302 0.0
H1930 H 0.85086 0.38069 0.205 0.0
H1931 H 0.83209 0.36461 0.24066 0.0
C1932 C 0.96733 0.57062 0.38248 0.0
C1933 C 0.93746 0.55855 0.37112 0.0
C1934 C 0.94416 0.51013 0.40747 0.0
C1935 C 0.97657 0.51985 0.41368 0.0
N1936 N 0.02111 0.55721 0.40371 0.0
N1937 N 0.89607 0.51642 0.37375 0.0
C1938 C 0.98881 0.54945 0.39998 0.0
C1939 C 0.9251 0.52834 0.38413 0.0
N1940 N 0.97486 0.60262 0.37665 0.0
N1941 N 0.93157 0.48383 0.42456 0.0
H1942 H 0.87949 0.52966 0.35935 0.0
H1943 H 0.8884 0.49277 0.37911 0.0
H1944 H 0.94582 0.46943 0.44059 0.0
H1945 H 0.90684 0.47733 0.4243 0.0
H1946 H 0.99506 0.61363 0.38669 0.0
H1947 H 0.95868 0.61895 0.36473 0.0
H1948 H 0.03213 0.57719 0.39178 0.0
H1949 H 0.03773 0.54209 0.41638 0.0
C1950 C 0.7823 0.70395 0.66217 0.0
C1951 C 0.79895 0.71813 0.63384 0.0
C1952 C 0.82619 0.75545 0.67236 0.0
C1953 C 0.80869 0.74182 0.70089 0.0
N1954 N 0.78167 0.69275 0.72148 0.0
N1955 N 0.84179 0.75333 0.61306 0.0
C1956 C 0.79019 0.71302 0.6954 0.0
C1957 C 0.82234 0.74274 0.63941 0.0
N1958 N 0.75802 0.68213 0.65748 0.0
N1959 N 0.84749 0.78018 0.6768 0.0
H1960 H 0.83973 0.7445 0.58916 0.0
H1961 H 0.86156 0.76884 0.61494 0.0
H1962 H 0.85624 0.7856 0.69998 0.0
H1963 H 0.85682 0.79514 0.65767 0.0
H1964 H 0.7418 0.67417 0.6765 0.0
H1965 H 0.75248 0.67394 0.63405 0.0
H1966 H 0.77049 0.67042 0.71862 0.0
H1967 H 0.79015 0.69528 0.74524 0.0
C1968 C 0.69691 0.59936 0.54553 0.0
C1969 C 0.69716 0.6312 0.53006 0.0
C1970 C 0.63837 0.62311 0.51698 0.0
C1971 C 0.63909 0.58969 0.52786 0.0
N1972 N 0.67406 0.54477 0.54667 0.0
N1973 N 0.6696 0.66618 0.48994 0.0
C1974 C 0.66989 0.57746 0.54043 0.0
C1975 C 0.66841 0.64068 0.51228 0.0
N1976 N 0.72144 0.59019 0.56639 0.0
N1977 N 0.60886 0.63959 0.51377 0.0
H1978 H 0.69154 0.67787 0.4832 0.0
H1979 H 0.64981 0.67248 0.47497 0.0
H1980 H 0.58651 0.62991 0.52228 0.0
H1981 H 0.60731 0.66452 0.508 0.0
H1982 H 0.72073 0.56884 0.5809 0.0
H1983 H 0.74074 0.60534 0.57173 0.0
H1984 H 0.69671 0.53408 0.553 0.0
H1985 H 0.65604 0.52796 0.54183 0.0
C1986 C 0.18292 0.98917 0.53018 0.0
C1987 C 0.19091 0.96558 0.55494 0.0
C1988 C 0.14303 0.98349 0.58955 0.0
C1989 C 0.13581 1.00822 0.56545 0.0
N1990 N 0.15231 0.03831 0.5153 0.0
N1991 N 0.18215 0.94229 0.60982 0.0
C1992 C 0.15691 0.01233 0.53664 0.0
C1993 C 0.17193 0.96321 0.58511 0.0
N1994 N 0.19917 0.9884 0.49976 0.0
N1995 N 0.12209 0.97942 0.61663 0.0
H1996 H 0.20284 0.92665 0.60706 0.0
H1997 H 0.17154 0.94173 0.63374 0.0
H1998 H 0.10267 0.99585 0.62211 0.0
H1999 H 0.12322 0.95944 0.63298 0.0
H2000 H 0.19168 1.00212 0.47919 0.0
H2001 H 0.2185 0.97185 0.49404 0.0
H2002 H 0.16945 0.04481 0.49654 0.0
H2003 H 0.13282 0.05519 0.51767 0.0
C2004 C 0.39339 0.95425 0.77459 0.0
C2005 C 0.40677 0.96919 0.80223 0.0
C2006 C 0.37442 0.93401 0.84021 0.0
C2007 C 0.35778 0.92263 0.81273 0.0
N2008 N 0.34887 0.92291 0.75397 0.0
N2009 N 0.4106 0.97435 0.86142 0.0
C2010 C 0.36678 0.93277 0.77988 0.0
C2011 C 0.39784 0.95904 0.83516 0.0
N2012 N 0.40658 0.9604 0.7434 0.0
N2013 N 0.3677 0.92061 0.87096 0.0
H2014 H 0.42877 0.99185 0.85845 0.0
H2015 H 0.40232 0.97081 0.88596 0.0
H2016 H 0.35006 0.90264 0.87502 0.0
H2017 H 0.38093 0.92554 0.89185 0.0
H2018 H 0.39998 0.94807 0.72244 0.0
H2019 H 0.42657 0.97574 0.73899 0.0
H2020 H 0.35183 0.93225 0.72985 0.0
H2021 H 0.32919 0.90705 0.75695 0.0
C2022 C 0.419 0.14656 0.0478 0.0
C2023 C 0.39151 0.1304 0.03467 0.0
C2024 C 0.42792 0.08075 0.02944 0.0
C2025 C 0.45633 0.09779 0.03895 0.0
N2026 N 0.47893 0.15043 0.04921 0.0
N2027 N 0.37501 0.0844 0.00317 0.0
C2028 C 0.45183 0.13169 0.04595 0.0
C2029 C 0.39751 0.09816 0.02271 0.0
N2030 N 0.41395 0.17568 0.06326 0.0
N2031 N 0.42914 0.04748 0.02824 0.0
H2032 H 0.35376 0.09683 0.99532 0.0
H2033 H 0.37966 0.06235 0.99121 0.0
H2034 H 0.4497 0.03356 0.03529 0.0
H2035 H 0.40837 0.03368 0.02437 0.0
H2036 H 0.43219 0.18664 0.07646 0.0
H2037 H 0.39084 0.18734 0.06575 0.0
H2038 H 0.47739 0.17578 0.05087 0.0
H2039 H 0.50317 0.14126 0.04645 0.0
C2040 C 0.68388 0.6329 0.81697 0.0
C2041 C 0.67609 0.6174 0.84792 0.0
C2042 C 0.71161 0.65467 0.87603 0.0
C2043 C 0.72273 0.66698 0.84467 0.0
N2044 N 0.72184 0.66711 0.78497 0.0
N2045 N 0.68079 0.61327 0.90711 0.0
C2046 C 0.70918 0.65625 0.81501 0.0
C2047 C 0.68916 0.62849 0.87765 0.0
N2048 N 0.66683 0.62536 0.78959 0.0
N2049 N 0.72261 0.66835 0.90403 0.0
H2050 H 0.66284 0.59547 0.9089 0.0
H2051 H 0.69205 0.61744 0.92935 0.0
H2052 H 0.73929 0.68741 0.90304 0.0
H2053 H 0.71384 0.66248 0.92795 0.0
H2054 H 0.66902 0.638 0.76697 0.0
H2055 H 0.64813 0.60823 0.7903 0.0
H2056 H 0.71569 0.65762 0.76234 0.0
H2057 H 0.74042 0.68423 0.78264 0.0
C2058 C 0.88517 0.4466 0.05979 0.0
C2059 C 0.8593 0.44655 0.0368 0.0
C2060 C 0.88394 0.49254 0.00619 0.0
C2061 C 0.90867 0.49357 0.02984 0.0
N2062 N 0.92796 0.47786 0.08382 0.0
N2063 N 0.82838 0.47705 0.99532 0.0
C2064 C 0.90808 0.47225 0.05796 0.0
C2065 C 0.85682 0.47178 0.01213 0.0
N2066 N 0.88739 0.42272 0.08391 0.0
N2067 N 0.88682 0.51101 0.97768 0.0
H2068 H 0.80683 0.46425 1.00032 0.0
H2069 H 0.82478 0.49692 0.97917 0.0
H2070 H 0.90673 0.52631 0.97267 0.0
H2071 H 0.87129 0.50877 0.95784 0.0
H2072 H 0.90812 0.41908 0.09827 0.0
H2073 H 0.86909 0.40564 0.08885 0.0
H2074 H 0.9264 0.46514 0.10644 0.0
H2075 H 0.94377 0.49754 0.08405 0.0
C2076 C 0.33343 0.14692 0.78409 0.0
C2077 C 0.35796 0.14099 0.75873 0.0
C2078 C 0.34713 0.19489 0.73361 0.0
C2079 C 0.32291 0.20097 0.75927 0.0
N2080 N 0.28716 0.18023 0.8042 0.0
N2081 N 0.38382 0.15523 0.70586 0.0
C2082 C 0.31387 0.17603 0.78269 0.0
C2083 C 0.3634 0.16375 0.73228 0.0
N2084 N 0.33064 0.12615 0.81107 0.0
N2085 N 0.35484 0.21912 0.71097 0.0
H2086 H 0.39573 0.13235 0.70431 0.0
H2087 H 0.38695 0.16953 0.68439 0.0
H2088 H 0.34166 0.24136 0.70987 0.0
H2089 H 0.37486 0.21777 0.694 0.0
H2090 H 0.31679 0.13174 0.83261 0.0
H2091 H 0.34412 0.10424 0.81333 0.0
H2092 H 0.27704 0.16127 0.81855 0.0
H2093 H 0.27335 0.20188 0.80631 0.0
C2094 C 0.24624 0.93517 0.31308 0.0
C2095 C 0.21584 0.94384 0.29823 0.0
C2096 C 0.22967 0.90689 0.25251 0.0
C2097 C 0.25716 0.89474 0.27014 0.0
N2098 N 0.30052 0.90916 0.30594 0.0
N2099 N 0.17762 0.93751 0.25415 0.0
C2100 C 0.26827 0.91253 0.29709 0.0
C2101 C 0.20729 0.92971 0.26792 0.0
N2102 N 0.25314 0.94702 0.34344 0.0
N2103 N 0.22669 0.89872 0.22011 0.0
H2104 H 0.16097 0.95503 0.26376 0.0
H2105 H 0.16846 0.92509 0.23434 0.0
H2106 H 0.2453 0.88559 0.20714 0.0
H2107 H 0.20858 0.90865 0.2049 0.0
H2108 H 0.27314 0.93862 0.35711 0.0
H2109 H 0.23716 0.963 0.35649 0.0
H2110 H 0.31091 0.92324 0.32385 0.0
H2111 H 0.31796 0.8954 0.29207 0.0
C2112 C 0.52599 0.42061 0.44303 0.0
C2113 C 0.5471 0.39345 0.45176 0.0
C2114 C 0.57771 0.43227 0.48645 0.0
C2115 C 0.55429 0.45853 0.48081 0.0
N2116 N 0.50135 0.47339 0.4578 0.0
N2117 N 0.59207 0.37399 0.48511 0.0
C2118 C 0.52737 0.45155 0.45987 0.0
C2119 C 0.57244 0.39954 0.47463 0.0
N2120 N 0.50405 0.41696 0.41851 0.0
N2121 N 0.60644 0.43895 0.50149 0.0
H2122 H 0.59101 0.35062 0.47561 0.0
H2123 H 0.60789 0.37542 0.5048 0.0
H2124 H 0.61215 0.46235 0.50872 0.0
H2125 H 0.62624 0.4223 0.50344 0.0
H2126 H 0.49094 0.43646 0.40778 0.0
H2127 H 0.5008 0.39474 0.40707 0.0
H2128 H 0.4795 0.46849 0.44617 0.0
H2129 H 0.49952 0.49482 0.47112 0.0
C2130 C 0.40472 0.78545 0.1692 0.0
C2131 C 0.42906 0.80651 0.18024 0.0
C2132 C 0.38739 0.83408 0.21606 0.0
C2133 C 0.36463 0.80971 0.20942 0.0
N2134 N 0.35301 0.75912 0.18251 0.0
N2135 N 0.44461 0.84856 0.21779 0.0
C2136 C 0.37336 0.78476 0.18634 0.0
C2137 C 0.42077 0.8301 0.20478 0.0
N2138 N 0.41172 0.76573 0.14279 0.0
N2139 N 0.37679 0.86165 0.23228 0.0
H2140 H 0.46951 0.8472 0.21035 0.0
H2141 H 0.44015 0.86326 0.23833 0.0
H2142 H 0.35204 0.86593 0.23971 0.0
H2143 H 0.39159 0.8818 0.23493 0.0
H2144 H 0.39372 0.75279 0.13117 0.0
H2145 H 0.43513 0.76402 0.13101 0.0
H2146 H 0.35977 0.73865 0.1687 0.0
H2147 H 0.33084 0.75636 0.196 0.0
C2148 C 0.05736 0.70558 0.00548 0.0
C2149 C 0.04271 0.71071 0.974 0.0
C2150 C 0.03461 0.65037 0.97298 0.0
C2151 C 0.04566 0.64582 0.00626 0.0
N2152 N 0.06303 0.67174 0.05555 0.0
N2153 N 0.01377 0.68729 0.92971 0.0
C2154 C 0.05609 0.67418 0.02267 0.0
C2155 C 0.03055 0.6828 0.95829 0.0
N2156 N 0.07335 0.73084 0.01886 0.0
N2157 N 0.0292 0.6236 0.9545 0.0
H2158 H 0.0113 0.71001 0.91778 0.0
H2159 H 1.00037 0.66907 0.91914 0.0
H2160 H 0.03203 0.59971 0.96351 0.0
H2161 H 0.02504 0.62489 0.92917 0.0
H2162 H 0.08774 0.72826 0.03969 0.0
H2163 H 0.07498 0.75372 0.0071 0.0
H2164 H 0.06719 0.69183 0.07006 0.0
H2165 H 0.06139 0.65 0.06935 0.0
C2166 C 0.10178 0.32915 0.72213 0.0
C2167 C 0.10423 0.32489 0.68724 0.0
C2168 C 0.14948 0.28466 0.69387 0.0
C2169 C 0.14561 0.28755 0.72863 0.0
N2170 N 0.11665 0.30861 0.77676 0.0
N2171 N 0.12552 0.29336 0.64045 0.0
C2172 C 0.12112 0.30856 0.74301 0.0
C2173 C 0.12682 0.30129 0.67315 0.0
N2174 N 0.08188 0.3536 0.73508 0.0
N2175 N 0.1756 0.26672 0.68071 0.0
H2176 H 0.10906 0.30432 0.6241 0.0
H2177 H 0.13865 0.2736 0.63012 0.0
H2178 H 0.19185 0.25304 0.69535 0.0
H2179 H 0.18244 0.26713 0.65554 0.0
H2180 H 0.08134 0.36003 0.75992 0.0
H2181 H 0.06759 0.36932 0.72045 0.0
H2182 H 0.09733 0.32113 0.78919 0.0
H2183 H 0.13106 0.29386 0.79233 0.0
C2184 C 0.55874 0.72807 0.06472 0.0
C2185 C 0.56021 0.74163 0.09664 0.0
C2186 C 0.588 0.69184 0.11763 0.0
C2187 C 0.58819 0.67913 0.08541 0.0
N2188 N 0.57639 0.68455 0.02753 0.0
N2189 N 0.57954 0.73857 0.15278 0.0
C2190 C 0.57446 0.69721 0.05865 0.0
C2191 C 0.57561 0.72405 0.12301 0.0
N2192 N 0.54116 0.74421 0.04078 0.0
N2193 N 0.59889 0.67244 0.1432 0.0
H2194 H 0.57005 0.76174 0.15832 0.0
H2195 H 0.59408 0.72862 0.17142 0.0
H2196 H 0.60955 0.64925 0.13946 0.0
H2197 H 0.59579 0.67836 0.16811 0.0
H2198 H 0.53647 0.7346 0.01782 0.0
H2199 H 0.52894 0.76662 0.04481 0.0
H2200 H 0.56979 0.69744 0.00617 0.0
H2201 H 0.58662 0.66145 0.02265 0.0
C2202 C 0.14605 0.82522 0.84975 0.0
C2203 C 0.13408 0.79674 0.86664 0.0
C2204 C 0.18423 0.76598 0.84562 0.0
C2205 C 0.19612 0.79459 0.82835 0.0
N2206 N 0.18351 0.84896 0.80772 0.0
N2207 N 0.13957 0.73907 0.87757 0.0
C2208 C 0.17575 0.82358 0.82897 0.0
C2209 C 0.15258 0.76684 0.86352 0.0
N2210 N 0.12887 0.85416 0.85351 0.0
N2211 N 0.20363 0.73814 0.84582 0.0
H2212 H 0.11726 0.73911 0.89149 0.0
H2213 H 0.14967 0.71571 0.87441 0.0
H2214 H 0.22645 0.73623 0.83318 0.0
H2215 H 0.19852 0.71734 0.8601 0.0
H2216 H 0.13822 0.87671 0.84611 0.0
H2217 H 0.10575 0.85586 0.86579 0.0
H2218 H 0.16819 0.86947 0.80413 0.0
H2219 H 0.2037 0.8482 0.79084 0.0
C2220 C 0.98628 0.44922 0.63065 0.0
C2221 C 0.01325 0.43093 0.64347 0.0
C2222 C 0.05246 0.47073 0.62213 0.0
C2223 C 0.02581 0.4877 0.60686 0.0
N2224 N 0.96742 0.50058 0.6059 0.0
N2225 N 0.06868 0.42941 0.66273 0.0
C2226 C 0.99258 0.47941 0.61427 0.0
C2227 C 0.0453 0.44364 0.64317 0.0
N2228 N 0.95516 0.43688 0.63274 0.0
N2229 N 0.08451 0.479 0.61481 0.0
H2230 H 0.06308 0.40987 0.67878 0.0
H2231 H 0.09199 0.43899 0.66569 0.0
H2232 H 0.09087 0.49874 0.59942 0.0
H2233 H 0.10493 0.46504 0.62229 0.0
H2234 H 0.93512 0.44718 0.62039 0.0
H2235 H 0.94974 0.41545 0.6461 0.0
H2236 H 0.94261 0.49695 0.61257 0.0
H2237 H 0.97196 0.52351 0.59517 0.0
C2238 C 0.42537 0.32743 0.36497 0.0
C2239 C 0.44931 0.30148 0.36866 0.0
C2240 C 0.41589 0.26857 0.33065 0.0
C2241 C 0.39188 0.29466 0.32685 0.0
N2242 N 0.37644 0.3507 0.33943 0.0
N2243 N 0.46883 0.2482 0.35211 0.0
C2244 C 0.3977 0.32457 0.34354 0.0
C2245 C 0.44494 0.27238 0.35046 0.0
N2246 N 0.42843 0.35491 0.3832 0.0
N2247 N 0.41079 0.23979 0.31534 0.0
H2248 H 0.48938 0.24975 0.36683 0.0
H2249 H 0.46963 0.22741 0.33776 0.0
H2250 H 0.39188 0.23699 0.29882 0.0
H2251 H 0.42443 0.21831 0.31947 0.0
H2252 H 0.40972 0.3726 0.38668 0.0
H2253 H 0.44949 0.35954 0.39634 0.0
H2254 H 0.38187 0.37455 0.34524 0.0
H2255 H 0.35335 0.34902 0.32937 0.0
C2256 C 0.43902 0.62363 0.36805 0.0
C2257 C 0.41741 0.59716 0.36931 0.0
C2258 C 0.43551 0.58296 0.42462 0.0
C2259 C 0.46348 0.6029 0.41846 0.0
N2260 N 0.49416 0.6385 0.38037 0.0
N2261 N 0.39352 0.55157 0.39924 0.0
C2262 C 0.46565 0.6229 0.38943 0.0
C2263 C 0.41463 0.57704 0.39804 0.0
N2264 N 0.43516 0.64814 0.34496 0.0
N2265 N 0.42869 0.57043 0.45568 0.0
H2266 H 0.37736 0.54748 0.38026 0.0
H2267 H 0.3933 0.53392 0.41827 0.0
H2268 H 0.44228 0.57645 0.47607 0.0
H2269 H 0.40747 0.55733 0.46177 0.0
H2270 H 0.44941 0.66903 0.34427 0.0
H2271 H 0.4152 0.64893 0.32924 0.0
H2272 H 0.49726 0.6512 0.35782 0.0
H2273 H 0.51602 0.63539 0.39308 0.0
C2274 C 0.27307 0.71986 0.09119 0.0
C2275 C 0.29478 0.74021 0.07211 0.0
C2276 C 0.28228 0.78524 0.10965 0.0
C2277 C 0.25703 0.76642 0.12545 0.0
N2278 N 0.22642 0.71724 0.13086 0.0
N2279 N 0.32004 0.79222 0.06201 0.0
C2280 C 0.25196 0.73405 0.11607 0.0
C2281 C 0.2995 0.77291 0.08113 0.0
N2282 N 0.2726 0.68708 0.08555 0.0
N2283 N 0.29072 0.81417 0.12284 0.0
H2284 H 0.33479 0.7831 0.04232 0.0
H2285 H 0.32142 0.81736 0.06479 0.0
H2286 H 0.27845 0.82411 0.14362 0.0
H2287 H 0.31142 0.82716 0.11474 0.0
H2288 H 0.25946 0.67061 0.10061 0.0
H2289 H 0.28745 0.67567 0.06735 0.0
H2290 H 0.21911 0.6945 0.12324 0.0
H2291 H 0.2107 0.72745 0.14922 0.0
C2292 C 0.1021 0.49345 0.91171 0.0
C2293 C 0.1262 0.51657 0.90142 0.0
C2294 C 0.10803 0.55237 0.94592 0.0
C2295 C 0.08653 0.52786 0.95871 0.0
N2296 N 0.06596 0.47325 0.95658 0.0
N2297 N 0.15664 0.56498 0.91205 0.0
C2298 C 0.08408 0.49789 0.94228 0.0
C2299 C 0.1307 0.545 0.91963 0.0
N2300 N 0.09655 0.46734 0.89232 0.0
N2301 N 0.10581 0.58326 0.95799 0.0
H2302 H 0.17378 0.56079 0.89257 0.0
H2303 H 0.16304 0.58403 0.92707 0.0
H2304 H 0.08872 0.58996 0.9766 0.0
H2305 H 0.11828 0.60297 0.94719 0.0
H2306 H 0.07678 0.4518 0.89656 0.0
H2307 H 0.11075 0.46221 0.8708 0.0
H2308 H 0.06626 0.44961 0.94756 0.0
H2309 H 0.05232 0.47576 0.9789 0.0
C2310 C 0.30826 0.37934 0.64915 0.0
C2311 C 0.29584 0.36408 0.62092 0.0
C2312 C 0.28334 0.31535 0.65712 0.0
C2313 C 0.29412 0.33119 0.68583 0.0
N2314 N 0.30925 0.38226 0.70931 0.0
N2315 N 0.2645 0.32021 0.60047 0.0
C2316 C 0.30445 0.36432 0.68182 0.0
C2317 C 0.28119 0.33292 0.62583 0.0
N2318 N 0.32501 0.4077 0.64474 0.0
N2319 N 0.27688 0.28277 0.65903 0.0
H2320 H 0.26207 0.33244 0.57767 0.0
H2321 H 0.25024 0.29944 0.60314 0.0
H2322 H 0.27933 0.2687 0.68069 0.0
H2323 H 0.2724 0.26892 0.6384 0.0
H2324 H 0.33837 0.41799 0.66329 0.0
H2325 H 0.32748 0.41977 0.62176 0.0
H2326 H 0.31319 0.40729 0.70831 0.0
H2327 H 0.30586 0.37306 0.73345 0.0
C2328 C 0.45468 0.56784 0.17651 0.0
C2329 C 0.47404 0.57069 0.20486 0.0
C2330 C 0.52356 0.5524 0.17335 0.0
C2331 C 0.50383 0.54595 0.14601 0.0
N2332 N 0.44958 0.54667 0.12172 0.0
N2333 N 0.52814 0.58339 0.22309 0.0
C2334 C 0.46906 0.55314 0.14767 0.0
C2335 C 0.50897 0.56821 0.20121 0.0
N2336 N 0.42413 0.58293 0.1755 0.0
N2337 N 0.55604 0.54218 0.17327 0.0
H2338 H 0.51784 0.59843 0.24156 0.0
H2339 H 0.5538 0.58488 0.22006 0.0
H2340 H 0.56734 0.52927 0.15376 0.0
H2341 H 0.57063 0.54342 0.19395 0.0
H2342 H 0.40983 0.58422 0.15455 0.0
H2343 H 0.41536 0.59899 0.19359 0.0
H2344 H 0.42383 0.54606 0.12398 0.0
H2345 H 0.45858 0.54059 0.09818 0.0
C2346 C 0.35711 0.70495 0.88357 0.0
C2347 C 0.32944 0.69636 0.90426 0.0
C2348 C 0.29451 0.73572 0.87614 0.0
C2349 C 0.32117 0.74351 0.85396 0.0
N2350 N 0.37594 0.73009 0.83138 0.0
N2351 N 0.27051 0.69259 0.90985 0.0
C2352 C 0.35197 0.72623 0.85582 0.0
C2353 C 0.29761 0.70797 0.89677 0.0
N2354 N 0.38812 0.69402 0.89125 0.0
N2355 N 0.2669 0.75549 0.8787 0.0
H2356 H 0.27306 0.67083 0.9236 0.0
H2357 H 0.24638 0.69928 0.90365 0.0
H2358 H 0.2647 0.77746 0.86541 0.0
H2359 H 0.24811 0.7517 0.89674 0.0
H2360 H 0.40962 0.70243 0.8792 0.0
H2361 H 0.39211 0.67736 0.91068 0.0
H2362 H 0.39774 0.71592 0.83017 0.0
H2363 H 0.37284 0.74593 0.81107 0.0
C2364 C 0.14549 0.57778 0.71434 0.0
C2365 C 0.12677 0.55145 0.72792 0.0
C2366 C 0.08742 0.5578 0.68386 0.0
C2367 C 0.10662 0.58337 0.66956 0.0
N2368 N 0.15639 0.61407 0.66696 0.0
N2369 N 0.08538 0.51121 0.72196 0.0
C2370 C 0.13651 0.59222 0.68353 0.0
C2371 C 0.09953 0.53969 0.7113 0.0
N2372 N 0.17069 0.58998 0.73166 0.0
N2373 N 0.05696 0.55187 0.67198 0.0
H2374 H 0.09426 0.49751 0.74204 0.0
H2375 H 0.06732 0.49963 0.70908 0.0
H2376 H 0.04662 0.56583 0.65289 0.0
H2377 H 0.0406 0.53529 0.68301 0.0
H2378 H 0.18241 0.61166 0.72517 0.0
H2379 H 0.17895 0.57915 0.75358 0.0
H2380 H 0.18019 0.61923 0.67402 0.0
H2381 H 0.14972 0.62549 0.6447 0.0
C2382 C 0.26947 0.38688 0.41533 0.0
C2383 C 0.29601 0.37962 0.43726 0.0
C2384 C 0.31405 0.33487 0.39885 0.0
C2385 C 0.28966 0.34435 0.37527 0.0
N2386 N 0.24728 0.38369 0.36009 0.0
N2387 N 0.34794 0.3506 0.44429 0.0
C2388 C 0.26863 0.37185 0.38318 0.0
C2389 C 0.31934 0.35455 0.42744 0.0
N2390 N 0.24347 0.40649 0.42589 0.0
N2391 N 0.3326 0.30689 0.39421 0.0
H2392 H 0.35342 0.36499 0.46427 0.0
H2393 H 0.3678 0.33569 0.43623 0.0
H2394 H 0.33119 0.29254 0.37343 0.0
H2395 H 0.34771 0.29658 0.41224 0.0
H2396 H 0.22183 0.40985 0.41285 0.0
H2397 H 0.24166 0.41652 0.44937 0.0
H2398 H 0.23449 0.40601 0.36231 0.0
H2399 H 0.24402 0.37231 0.3376 0.0
C2400 C 0.43112 0.45027 0.51994 0.0
C2401 C 0.39803 0.45985 0.5301 0.0
C2402 C 0.42223 0.51293 0.54616 0.0
C2403 C 0.45538 0.50036 0.54145 0.0
N2404 N 0.48897 0.45137 0.53262 0.0
N2405 N 0.36438 0.50081 0.55921 0.0
C2406 C 0.45898 0.46729 0.5313 0.0
C2407 C 0.39414 0.4915 0.54478 0.0
N2408 N 0.43639 0.42597 0.49754 0.0
N2409 N 0.41733 0.54531 0.55245 0.0
H2410 H 0.34385 0.48602 0.56051 0.0
H2411 H 0.36109 0.52198 0.57295 0.0
H2412 H 0.43694 0.56101 0.55511 0.0
H2413 H 0.394 0.55683 0.55259 0.0
H2414 H 0.4599 0.41957 0.48781 0.0
H2415 H 0.41719 0.41572 0.48504 0.0
H2416 H 0.49209 0.42651 0.52795 0.0
H2417 H 0.5097 0.46189 0.54191 0.0
C2418 C 0.92869 0.13739 0.50534 0.0
C2419 C 0.90516 0.14136 0.53232 0.0
C2420 C 0.93768 0.103 0.56622 0.0
C2421 C 0.96265 0.10195 0.54051 0.0
N2422 N 0.98463 0.12181 0.48756 0.0
N2423 N 0.89059 0.13306 0.59039 0.0
C2424 C 0.9591 0.12053 0.51082 0.0
C2425 C 0.91054 0.12551 0.56333 0.0
N2426 N 0.92124 0.14744 0.47385 0.0
N2427 N 0.93976 0.0825 0.59331 0.0
H2428 H 0.87116 0.15031 0.58943 0.0
H2429 H 0.89534 0.12481 0.61441 0.0
H2430 H 0.95968 0.06626 0.59685 0.0
H2431 H 0.92059 0.07983 0.61109 0.0
H2432 H 0.93599 0.14164 0.45294 0.0
H2433 H 0.89884 0.15853 0.4677 0.0
H2434 H 0.98502 0.13849 0.46766 0.0
H2435 H 1.00643 0.10774 0.48917 0.0
C2436 C 0.73507 0.11707 0.3145 0.0
C2437 C 0.70074 0.12156 0.32247 0.0
C2438 C 0.69867 0.16969 0.28547 0.0
C2439 C 0.73202 0.16336 0.27525 0.0
N2440 N 0.78222 0.13123 0.2782 0.0
N2441 N 0.65566 0.16132 0.32789 0.0
C2442 C 0.75031 0.13704 0.28936 0.0
C2443 C 0.68394 0.1505 0.3115 0.0
N2444 N 0.75325 0.09509 0.33274 0.0
N2445 N 0.68132 0.19442 0.2702 0.0
H2446 H 0.64757 0.15138 0.35067 0.0
H2447 H 0.64328 0.18319 0.3221 0.0
H2448 H 0.69197 0.20901 0.25134 0.0
H2449 H 0.65593 0.19856 0.27401 0.0
H2450 H 0.77884 0.09189 0.33011 0.0
H2451 H 0.74286 0.08247 0.3532 0.0
H2452 H 0.79652 0.11091 0.28521 0.0
H2453 H 0.79366 0.14589 0.25988 0.0
C2454 C 0.67663 0.95447 0.06349 0.0
C2455 C 0.70084 0.96151 0.03786 0.0
C2456 C 0.66271 1.00468 0.01583 0.0
C2457 C 0.63765 0.99624 0.04007 0.0
N2458 N 0.61939 0.96039 0.08476 0.0
N2459 N 0.71449 0.98992 0.98642 0.0
C2460 C 0.64434 0.97041 0.06336 0.0
C2461 C 0.69315 0.98575 0.01323 0.0
N2462 N 0.68489 0.93323 0.08862 0.0
N2463 N 0.65793 0.0317 0.9959 0.0
H2464 H 0.73688 0.97683 0.98356 0.0
H2465 H 0.70884 1.0042 0.96562 0.0
H2466 H 0.63616 0.046 0.99686 0.0
H2467 H 0.67643 0.04164 0.98043 0.0
H2468 H 0.67012 0.92946 0.11001 0.0
H2469 H 0.70781 0.9209 0.08916 0.0
H2470 H 0.62105 0.93959 0.09996 0.0
H2471 H 0.59592 0.97168 0.08571 0.0
C2472 C 0.40269 0.46591 0.25345 0.0
C2473 C 0.3972 0.47481 0.28709 0.0
C2474 C 0.34931 0.44017 0.29283 0.0
C2475 C 0.3548 0.43118 0.25922 0.0
N2476 N 0.38873 0.43015 0.20916 0.0
N2477 N 0.37052 0.46676 0.3407 0.0
C2478 C 0.38217 0.44252 0.23998 0.0
C2479 C 0.37216 0.46058 0.30748 0.0
N2480 N 0.42664 0.48093 0.23416 0.0
N2481 N 0.32179 0.42956 0.31023 0.0
H2482 H 0.38745 0.48161 0.35167 0.0
H2483 H 0.35445 0.4553 0.35775 0.0
H2484 H 0.30433 0.41497 0.29981 0.0
H2485 H 0.31488 0.43686 0.3341 0.0
H2486 H 0.42914 0.47874 0.20851 0.0
H2487 H 0.44348 0.49676 0.24379 0.0
H2488 H 0.41026 0.43465 0.19498 0.0
H2489 H 0.3732 0.4137 0.19846 0.0
C2490 C 0.23593 0.61391 1.00096 0.0
C2491 C 0.23413 0.64771 0.00817 0.0
C2492 C 0.18822 0.63814 0.04838 0.0
C2493 C 0.19252 0.60418 0.04365 0.0
N2494 N 0.22122 0.55879 0.0182 0.0
N2495 N 0.2117 0.69159 0.04246 0.0
C2496 C 0.21672 0.59181 0.02073 0.0
C2497 C 0.21095 0.65985 0.03271 0.0
N2498 N 0.25505 0.60326 0.97444 0.0
N2499 N 0.16177 0.64961 0.06724 0.0
H2500 H 0.22825 0.70853 0.03248 0.0
H2501 H 0.19785 0.70059 0.06272 0.0
H2502 H 0.14531 0.63425 0.08007 0.0
H2503 H 0.15468 0.67421 0.06822 0.0
H2504 H 0.25517 0.57943 0.966 0.0
H2505 H 0.26866 0.61903 0.95888 0.0
H2506 H 0.24047 0.54778 0.00425 0.0
H2507 H 0.20693 0.5423 0.03226 0.0
C2508 C 0.72038 0.9218 0.27618 0.0
C2509 C 0.72961 0.94276 0.30127 0.0
C2510 C 0.76442 0.89943 0.32575 0.0
C2511 C 0.75628 0.87874 0.29971 0.0
N2512 N 0.73424 0.87388 0.24497 0.0
N2513 N 0.76499 0.95463 0.34615 0.0
C2514 C 0.7364 0.89091 0.27345 0.0
C2515 C 0.75337 0.93264 0.32469 0.0
N2516 N 0.69592 0.93124 0.25515 0.0
N2517 N 0.78092 0.88695 0.35238 0.0
H2518 H 0.75692 0.979 0.34656 0.0
H2519 H 0.78469 0.94951 0.36153 0.0
H2520 H 0.78861 0.86252 0.35449 0.0
H2521 H 0.78446 0.9 0.37377 0.0
H2522 H 0.6849 0.91521 0.23944 0.0
H2523 H 0.68522 0.95472 0.25479 0.0
H2524 H 0.72311 0.88319 0.22375 0.0
H2525 H 0.74694 0.852 0.24105 0.0
C2526 C 0.8115 0.14267 0.76089 0.0
C2527 C 0.8455 0.14216 0.75027 0.0
C2528 C 0.84665 0.20117 0.75112 0.0
C2529 C 0.81295 0.20231 0.76291 0.0
N2530 N 0.76074 0.175 0.7688 0.0
N2531 N 0.8894 0.1701 0.72112 0.0
C2532 C 0.7944 0.17334 0.76415 0.0
C2533 C 0.86072 0.17131 0.74016 0.0
N2534 N 0.79601 0.11439 0.76969 0.0
N2535 N 0.86598 0.22791 0.75187 0.0
H2536 H 0.89981 0.14794 0.71292 0.0
H2537 H 0.90043 0.19083 0.71069 0.0
H2538 H 0.85745 0.25029 0.76052 0.0
H2539 H 0.89146 0.22704 0.74663 0.0
H2540 H 0.77308 0.11385 0.78239 0.0
H2541 H 0.80619 0.09132 0.76496 0.0
H2542 H 0.74568 0.15496 0.76665 0.0
H2543 H 0.74759 0.19697 0.77191 0.0
loop_
_geom_bond_atom_site_label_1
_geom_bond_atom_site_label_2
_geom_bond_distance
_geom_bond_site_symmetry_2
_ccdc_geom_bond_type
Co0 O1 2.216 1_455 S
Co0 O2 2.091 1_455 S
Co0 O4 2.004 . S
Co0 O10 2.021 . S
Co0 O12 2.137 . S
Co0 O13 2.244 . S
O1 Co0 2.216 1_655 S
O1 C8 1.247 . S
O2 Co0 2.091 1_655 S
O2 C8 1.261 . S
C3 O12 1.247 . S
C3 O13 1.272 . S
O4 Co0 2.004 . S
O4 C9 1.259 . S
Co5 O6 2.061 . S
Co5 O11 2.052 . S
Co5 O13 2.135 . S
O6 Co5 2.061 . S
O6 C9 1.235 . S
C7 O10 1.238 . S
C7 O11 1.241 . S
C8 O1 1.247 . S
C8 O2 1.261 . S
C9 O4 1.259 . S
C9 O6 1.235 . S
O10 Co0 2.021 . S
O10 C7 1.238 . S
O11 Co5 2.052 . S
O11 C7 1.241 . S
O12 Co0 2.137 . S
O12 C3 1.247 . S
O13 Co0 2.244 . S
O13 C3 1.272 . S
O13 Co5 2.135 . S
Co14 O15 2.216 . S
Co14 O16 2.091 . S
Co14 O18 2.004 . S
Co14 O24 2.021 . S
Co14 O26 2.137 . S
Co14 O27 2.244 . S
O15 Co14 2.216 . S
O15 C22 1.247 . S
O16 Co14 2.091 . S
O16 C22 1.261 . S
C17 O26 1.247 . S
C17 O27 1.272 . S
O18 Co14 2.004 . S
O18 C23 1.259 . S
Co19 O20 2.061 1_455 S
Co19 O25 2.052 . S
Co19 O27 2.135 . S
O20 Co19 2.061 1_655 S
O20 C23 1.235 1_655 S
C21 O24 1.238 . S
C21 O25 1.241 . S
C22 O15 1.247 . S
C22 O16 1.261 . S
C23 O18 1.259 . S
C23 O20 1.235 1_455 S
O24 Co14 2.021 . S
O24 C21 1.238 . S
O25 Co19 2.052 . S
O25 C21 1.241 . S
O26 Co14 2.137 . S
O26 C17 1.247 . S
O27 Co14 2.244 . S
O27 C17 1.272 . S
O27 Co19 2.135 . S
Co28 O29 2.216 . S
Co28 O30 2.091 . S
Co28 O32 2.004 . S
Co28 O38 2.021 . S
Co28 O40 2.137 . S
Co28 O41 2.244 . S
O29 Co28 2.216 . S
O29 C36 1.247 . S
O30 Co28 2.091 . S
O30 C36 1.261 . S
C31 O40 1.247 . S
C31 O41 1.272 . S
O32 Co28 2.004 . S
O32 C37 1.259 . S
Co33 O34 2.061 . S
Co33 O39 2.052 . S
Co33 O41 2.135 . S
O34 Co33 2.061 . S
O34 C37 1.235 . S
C35 O38 1.238 . S
C35 O39 1.241 . S
C36 O29 1.247 . S
C36 O30 1.261 . S
C37 O32 1.259 . S
C37 O34 1.235 . S
O38 Co28 2.021 . S
O38 C35 1.238 . S
O39 Co33 2.052 . S
O39 C35 1.241 . S
O40 Co28 2.137 . S
O40 C31 1.247 . S
O41 Co28 2.244 . S
O41 C31 1.272 . S
O41 Co33 2.135 . S
Co42 O43 2.216 . S
Co42 O44 2.091 . S
Co42 O46 2.004 . S
Co42 O52 2.021 . S
Co42 O54 2.137 . S
Co42 O55 2.244 . S
O43 Co42 2.216 . S
O43 C50 1.247 . S
O44 Co42 2.091 . S
O44 C50 1.261 . S
C45 O54 1.247 . S
C45 O55 1.272 . S
O46 Co42 2.004 . S
O46 C51 1.259 . S
Co47 O48 2.061 . S
Co47 O53 2.052 . S
Co47 O55 2.135 . S
O48 Co47 2.061 . S
O48 C51 1.235 . S
C49 O52 1.238 . S
C49 O53 1.241 . S
C50 O43 1.247 . S
C50 O44 1.261 . S
C51 O46 1.259 . S
C51 O48 1.235 . S
O52 Co42 2.021 . S
O52 C49 1.238 . S
O53 Co47 2.052 . S
O53 C49 1.241 . S
O54 Co42 2.137 . S
O54 C45 1.247 . S
O55 Co42 2.244 . S
O55 C45 1.272 . S
O55 Co47 2.135 . S
Co56 O57 2.233 . S
Co56 O58 2.102 . S
Co56 O60 1.989 1_565 S
Co56 O66 2.020 1_565 S
Co56 O68 2.138 . S
Co56 O69 2.239 1_565 S
O57 Co56 2.233 . S
O57 C64 1.247 . S
O58 Co56 2.102 . S
O58 C64 1.261 . S
C59 O68 1.247 1_545 S
C59 O69 1.272 . S
O60 Co56 1.989 1_545 S
O60 C65 1.259 . S
Co61 O62 2.061 . S
Co61 O67 2.052 . S
Co61 O69 2.135 . S
O62 Co61 2.061 . S
O62 C65 1.235 . S
C63 O66 1.238 . S
C63 O67 1.241 . S
C64 O57 1.247 . S
C64 O58 1.261 . S
C65 O60 1.259 . S
C65 O62 1.235 . S
O66 Co56 2.020 1_545 S
O66 C63 1.238 . S
O67 Co61 2.052 . S
O67 C63 1.241 . S
O68 Co56 2.138 . S
O68 C59 1.247 1_565 S
O69 Co56 2.239 1_545 S
O69 C59 1.272 . S
O69 Co61 2.135 . S
Co70 O71 2.216 . S
Co70 O72 2.091 . S
Co70 O74 2.004 . S
Co70 O80 2.021 . S
Co70 O82 2.137 . S
Co70 O83 2.244 . S
O71 Co70 2.216 . S
O71 C78 1.247 . S
O72 Co70 2.091 . S
O72 C78 1.261 . S
C73 O82 1.247 . S
C73 O83 1.272 . S
O74 Co70 2.004 . S
O74 C79 1.259 . S
Co75 O76 2.061 . S
Co75 O81 2.052 . S
Co75 O83 2.135 . S
O76 Co75 2.061 . S
O76 C79 1.235 . S
C77 O80 1.238 . S
C77 O81 1.241 . S
C78 O71 1.247 . S
C78 O72 1.261 . S
C79 O74 1.259 . S
C79 O76 1.235 . S
O80 Co70 2.021 . S
O80 C77 1.238 . S
O81 Co75 2.052 . S
O81 C77 1.241 . S
O82 Co70 2.137 . S
O82 C73 1.247 . S
O83 Co70 2.244 . S
O83 C73 1.272 . S
O83 Co75 2.135 . S
Co84 O85 2.216 . S
Co84 O86 2.091 . S
Co84 O88 2.004 . S
Co84 O94 2.021 . S
Co84 O96 2.137 . S
Co84 O97 2.244 . S
O85 Co84 2.216 . S
O85 C92 1.247 . S
O86 Co84 2.091 . S
O86 C92 1.261 . S
C87 O96 1.247 . S
C87 O97 1.272 . S
O88 Co84 2.004 . S
O88 C93 1.259 . S
Co89 O90 2.061 . S
Co89 O95 2.052 . S
Co89 O97 2.135 . S
O90 Co89 2.061 . S
O90 C93 1.235 . S
C91 O94 1.238 . S
C91 O95 1.241 . S
C92 O85 1.247 . S
C92 O86 1.261 . S
C93 O88 1.259 . S
C93 O90 1.235 . S
O94 Co84 2.021 . S
O94 C91 1.238 . S
O95 Co89 2.052 . S
O95 C91 1.241 . S
O96 Co84 2.137 . S
O96 C87 1.247 . S
O97 Co84 2.244 . S
O97 C87 1.272 . S
O97 Co89 2.135 . S
Co98 O99 2.216 . S
Co98 O100 2.091 . S
Co98 O102 2.004 . S
Co98 O108 2.021 . S
Co98 O110 2.137 1_554 S
Co98 O111 2.244 . S
O99 Co98 2.216 . S
O99 C106 1.247 . S
O100 Co98 2.091 . S
O100 C106 1.261 . S
C101 O110 1.247 . S
C101 O111 1.272 1_556 S
O102 Co98 2.004 . S
O102 C107 1.259 . S
Co103 O104 2.061 . S
Co103 O109 2.052 . S
Co103 O111 2.135 . S
O104 Co103 2.061 . S
O104 C107 1.235 . S
C105 O108 1.238 . S
C105 O109 1.241 . S
C106 O99 1.247 . S
C106 O100 1.261 . S
C107 O102 1.259 . S
C107 O104 1.235 . S
O108 Co98 2.021 . S
O108 C105 1.238 . S
O109 Co103 2.052 . S
O109 C105 1.241 . S
O110 Co98 2.137 1_556 S
O110 C101 1.247 . S
O111 Co98 2.244 . S
O111 C101 1.272 1_554 S
O111 Co103 2.135 . S
Co112 O113 2.216 . S
Co112 O114 2.091 . S
Co112 O116 2.004 . S
Co112 O122 2.021 . S
Co112 O124 2.137 . S
Co112 O125 2.244 . S
O113 Co112 2.216 . S
O113 C120 1.247 . S
O114 Co112 2.091 . S
O114 C120 1.261 . S
C115 O124 1.247 . S
C115 O125 1.272 . S
O116 Co112 2.004 . S
O116 C121 1.259 . S
Co117 O118 2.061 . S
Co117 O123 2.052 . S
Co117 O125 2.135 . S
O118 Co117 2.061 . S
O118 C121 1.235 . S
C119 O122 1.238 . S
C119 O123 1.241 . S
C120 O113 1.247 . S
C120 O114 1.261 . S
C121 O116 1.259 . S
C121 O118 1.235 . S
O122 Co112 2.021 . S
O122 C119 1.238 . S
O123 Co117 2.052 . S
O123 C119 1.241 . S
O124 Co112 2.137 . S
O124 C115 1.247 . S
O125 Co112 2.244 . S
O125 C115 1.272 . S
O125 Co117 2.135 . S
Co126 O127 2.216 . S
Co126 O128 2.091 . S
Co126 O130 2.004 . S
Co126 O136 2.021 . S
Co126 O138 2.137 . S
Co126 O139 2.244 . S
O127 Co126 2.216 . S
O127 C134 1.247 . S
O128 Co126 2.091 . S
O128 C134 1.261 . S
C129 O138 1.247 . S
C129 O139 1.272 . S
O130 Co126 2.004 . S
O130 C135 1.259 . S
Co131 O132 2.061 . S
Co131 O137 2.052 . S
Co131 O139 2.135 . S
O132 Co131 2.061 . S
O132 C135 1.235 . S
C133 O136 1.238 . S
C133 O137 1.241 . S
C134 O127 1.247 . S
C134 O128 1.261 . S
C135 O130 1.259 . S
C135 O132 1.235 . S
O136 Co126 2.021 . S
O136 C133 1.238 . S
O137 Co131 2.052 . S
O137 C133 1.241 . S
O138 Co126 2.137 . S
O138 C129 1.247 . S
O139 Co126 2.244 . S
O139 C129 1.272 . S
O139 Co131 2.135 . S
Co140 O141 2.216 . S
Co140 O142 2.091 . S
Co140 O144 2.004 . S
Co140 O150 2.021 . S
Co140 O152 2.137 . S
Co140 O153 2.244 . S
O141 Co140 2.216 . S
O141 C148 1.247 . S
O142 Co140 2.091 . S
O142 C148 1.261 . S
C143 O152 1.247 . S
C143 O153 1.272 . S
O144 Co140 2.004 . S
O144 C149 1.259 . S
Co145 O146 2.061 . S
Co145 O151 2.052 . S
Co145 O153 2.135 . S
O146 Co145 2.061 . S
O146 C149 1.235 . S
C147 O150 1.238 . S
C147 O151 1.241 . S
C148 O141 1.247 . S
C148 O142 1.261 . S
C149 O144 1.259 . S
C149 O146 1.235 . S
O150 Co140 2.021 . S
O150 C147 1.238 . S
O151 Co145 2.052 . S
O151 C147 1.241 . S
O152 Co140 2.137 . S
O152 C143 1.247 . S
O153 Co140 2.244 . S
O153 C143 1.272 . S
O153 Co145 2.135 . S
Co154 O155 2.216 . S
Co154 O156 2.091 . S
Co154 O158 2.004 . S
Co154 O164 2.021 . S
Co154 O166 2.137 . S
Co154 O167 2.244 . S
O155 Co154 2.216 . S
O155 C162 1.247 . S
O156 Co154 2.091 . S
O156 C162 1.261 . S
C157 O166 1.247 . S
C157 O167 1.272 . S
O158 Co154 2.004 . S
O158 C163 1.259 . S
Co159 O160 2.061 . S
Co159 O165 2.052 . S
Co159 O167 2.135 . S
O160 Co159 2.061 . S
O160 C163 1.235 . S
C161 O164 1.238 . S
C161 O165 1.241 . S
C162 O155 1.247 . S
C162 O156 1.261 . S
C163 O158 1.259 . S
C163 O160 1.235 . S
O164 Co154 2.021 . S
O164 C161 1.238 . S
O165 Co159 2.052 . S
O165 C161 1.241 . S
O166 Co154 2.137 . S
O166 C157 1.247 . S
O167 Co154 2.244 . S
O167 C157 1.272 . S
O167 Co159 2.135 . S
Co168 O169 2.216 . S
Co168 O170 2.091 . S
Co168 O172 2.004 1_455 S
Co168 O178 2.021 . S
Co168 O180 2.137 . S
Co168 O181 2.244 . S
O169 Co168 2.216 . S
O169 C176 1.247 . S
O170 Co168 2.091 . S
O170 C176 1.261 . S
C171 O180 1.247 . S
C171 O181 1.272 . S
O172 Co168 2.004 1_655 S
O172 C177 1.259 . S
Co173 O174 2.061 . S
Co173 O179 2.052 1_655 S
Co173 O181 2.135 1_655 S
O174 Co173 2.061 . S
O174 C177 1.235 . S
C175 O178 1.238 . S
C175 O179 1.241 . S
C176 O169 1.247 . S
C176 O170 1.261 . S
C177 O172 1.259 . S
C177 O174 1.235 . S
O178 Co168 2.021 . S
O178 C175 1.238 . S
O179 Co173 2.052 1_455 S
O179 C175 1.241 . S
O180 Co168 2.137 . S
O180 C171 1.247 . S
O181 Co168 2.244 . S
O181 C171 1.272 . S
O181 Co173 2.135 1_455 S
Co182 O183 2.216 . S
Co182 O184 2.091 . S
Co182 O186 2.004 1_655 S
Co182 O192 2.021 . S
Co182 O194 2.137 . S
Co182 O195 2.244 1_655 S
O183 Co182 2.216 . S
O183 C190 1.247 . S
O184 Co182 2.091 . S
O184 C190 1.261 . S
C185 O194 1.236 1_455 S
C185 O195 1.280 . S
O186 Co182 2.004 1_455 S
O186 C191 1.259 . S
Co187 O188 2.061 . S
Co187 O193 2.052 . S
Co187 O195 2.135 . S
O188 Co187 2.061 . S
O188 C191 1.235 . S
C189 O192 1.238 1_455 S
C189 O193 1.241 . S
C190 O183 1.247 . S
C190 O184 1.261 . S
C191 O186 1.259 . S
C191 O188 1.235 . S
O192 Co182 2.021 . S
O192 C189 1.238 1_655 S
O193 Co187 2.052 . S
O193 C189 1.241 . S
O194 Co182 2.137 . S
O194 C185 1.236 1_655 S
O195 Co182 2.244 1_455 S
O195 C185 1.280 . S
O195 Co187 2.135 . S
Co196 O197 2.216 . S
Co196 O198 2.091 . S
Co196 O200 2.004 . S
Co196 O206 2.021 . S
Co196 O208 2.137 . S
Co196 O209 2.244 . S
O197 Co196 2.216 . S
O197 C204 1.247 . S
O198 Co196 2.091 . S
O198 C204 1.261 . S
C199 O208 1.247 . S
C199 O209 1.272 . S
O200 Co196 2.004 . S
O200 C205 1.259 . S
Co201 O202 2.061 . S
Co201 O207 2.052 . S
Co201 O209 2.135 . S
O202 Co201 2.061 . S
O202 C205 1.235 . S
C203 O206 1.238 . S
C203 O207 1.241 . S
C204 O197 1.247 . S
C204 O198 1.261 . S
C205 O200 1.259 . S
C205 O202 1.235 . S
O206 Co196 2.021 . S
O206 C203 1.238 . S
O207 Co201 2.052 . S
O207 C203 1.241 . S
O208 Co196 2.137 . S
O208 C199 1.247 . S
O209 Co196 2.244 . S
O209 C199 1.272 . S
O209 Co201 2.135 . S
Co210 O211 2.216 . S
Co210 O212 2.091 . S
Co210 O214 2.004 . S
Co210 O220 2.021 . S
Co210 O222 2.137 . S
Co210 O223 2.244 . S
O211 Co210 2.216 . S
O211 C218 1.247 . S
O212 Co210 2.091 . S
O212 C218 1.261 . S
C213 O222 1.247 . S
C213 O223 1.272 . S
O214 Co210 2.004 . S
O214 C219 1.259 . S
Co215 O216 2.061 . S
Co215 O221 2.052 . S
Co215 O223 2.135 . S
O216 Co215 2.061 . S
O216 C219 1.235 . S
C217 O220 1.238 . S
C217 O221 1.241 . S
C218 O211 1.247 . S
C218 O212 1.261 . S
C219 O214 1.259 . S
C219 O216 1.235 . S
O220 Co210 2.021 . S
O220 C217 1.238 . S
O221 Co215 2.052 . S
O221 C217 1.241 . S
O222 Co210 2.137 . S
O222 C213 1.247 . S
O223 Co210 2.244 . S
O223 C213 1.272 . S
O223 Co215 2.135 . S
Co224 O225 2.216 . S
Co224 O226 2.091 . S
Co224 O228 2.004 . S
Co224 O234 2.021 . S
Co224 O236 2.137 . S
Co224 O237 2.244 . S
O225 Co224 2.216 . S
O225 C232 1.247 . S
O226 Co224 2.091 . S
O226 C232 1.261 . S
C227 O236 1.247 . S
C227 O237 1.272 . S
O228 Co224 2.004 . S
O228 C233 1.259 . S
Co229 O230 2.061 . S
Co229 O235 2.052 . S
Co229 O237 2.135 . S
O230 Co229 2.061 . S
O230 C233 1.235 . S
C231 O234 1.238 . S
C231 O235 1.241 . S
C232 O225 1.247 . S
C232 O226 1.261 . S
C233 O228 1.259 . S
C233 O230 1.235 . S
O234 Co224 2.021 . S
O234 C231 1.238 . S
O235 Co229 2.052 . S
O235 C231 1.241 . S
O236 Co224 2.137 . S
O236 C227 1.247 . S
O237 Co224 2.244 . S
O237 C227 1.272 . S
O237 Co229 2.135 . S
Co238 O239 2.216 . S
Co238 O240 2.091 . S
Co238 O242 2.004 . S
Co238 O248 2.021 . S
Co238 O250 2.137 . S
Co238 O251 2.244 . S
O239 Co238 2.216 . S
O239 C246 1.247 . S
O240 Co238 2.091 . S
O240 C246 1.261 . S
C241 O250 1.247 . S
C241 O251 1.272 . S
O242 Co238 2.004 . S
O242 C247 1.259 . S
Co243 O244 2.061 . S
Co243 O249 2.052 . S
Co243 O251 2.135 . S
O244 Co243 2.061 . S
O244 C247 1.235 . S
C245 O248 1.238 . S
C245 O249 1.241 . S
C246 O239 1.247 . S
C246 O240 1.261 . S
C247 O242 1.259 . S
C247 O244 1.235 . S
O248 Co238 2.021 . S
O248 C245 1.238 . S
O249 Co243 2.052 . S
O249 C245 1.241 . S
O250 Co238 2.137 . S
O250 C241 1.247 . S
O251 Co238 2.244 . S
O251 C241 1.272 . S
O251 Co243 2.135 . S
Co252 O253 2.205 1_545 S
Co252 O254 2.084 1_545 S
Co252 O256 2.014 . S
Co252 O262 2.021 . S
Co252 O264 2.137 1_545 S
Co252 O265 2.247 . S
O253 Co252 2.205 1_565 S
O253 C260 1.247 . S
O254 Co252 2.084 1_565 S
O254 C260 1.261 . S
C255 O264 1.247 1_545 S
C255 O265 1.272 . S
O256 Co252 2.014 . S
O256 C261 1.259 . S
Co257 O258 2.061 . S
Co257 O263 2.052 . S
Co257 O265 2.135 . S
O258 Co257 2.061 . S
O258 C261 1.235 . S
C259 O262 1.238 . S
C259 O263 1.241 . S
C260 O253 1.247 . S
C260 O254 1.261 . S
C261 O256 1.259 . S
C261 O258 1.235 . S
O262 Co252 2.021 . S
O262 C259 1.238 . S
O263 Co257 2.052 . S
O263 C259 1.241 . S
O264 Co252 2.137 1_565 S
O264 C255 1.247 1_565 S
O265 Co252 2.247 . S
O265 C255 1.272 . S
O265 Co257 2.135 . S
Co266 O267 2.216 . S
Co266 O268 2.091 . S
Co266 O270 2.004 . S
Co266 O276 2.021 . S
Co266 O278 2.137 1_554 S
Co266 O279 2.244 . S
O267 Co266 2.216 . S
O267 C274 1.247 . S
O268 Co266 2.091 . S
O268 C274 1.261 . S
C269 O278 1.247 . S
C269 O279 1.272 1_556 S
O270 Co266 2.004 . S
O270 C275 1.259 . S
Co271 O272 2.061 . S
Co271 O277 2.052 . S
Co271 O279 2.135 . S
O272 Co271 2.061 . S
O272 C275 1.235 . S
C273 O276 1.238 . S
C273 O277 1.241 . S
C274 O267 1.247 . S
C274 O268 1.261 . S
C275 O270 1.259 . S
C275 O272 1.235 . S
O276 Co266 2.021 . S
O276 C273 1.238 . S
O277 Co271 2.052 . S
O277 C273 1.241 . S
O278 Co266 2.137 1_556 S
O278 C269 1.247 . S
O279 Co266 2.244 . S
O279 C269 1.272 1_554 S
O279 Co271 2.135 . S
Co280 O281 2.216 . S
Co280 O282 2.091 1_556 S
Co280 O284 2.004 . S
Co280 O290 2.021 1_556 S
Co280 O292 2.137 . S
Co280 O293 2.244 . S
O281 Co280 2.216 . S
O281 C288 1.247 . S
O282 Co280 2.091 1_554 S
O282 C288 1.261 1_554 S
C283 O292 1.247 . S
C283 O293 1.272 . S
O284 Co280 2.004 . S
O284 C289 1.259 1_556 S
Co285 O286 2.061 1_556 S
Co285 O291 2.050 1_556 S
Co285 O293 2.136 . S
O286 Co285 2.061 1_554 S
O286 C289 1.235 . S
C287 O290 1.238 . S
C287 O291 1.241 . S
C288 O281 1.247 . S
C288 O282 1.261 1_556 S
C289 O284 1.259 1_554 S
C289 O286 1.235 . S
O290 Co280 2.021 1_554 S
O290 C287 1.238 . S
O291 Co285 2.050 1_554 S
O291 C287 1.241 . S
O292 Co280 2.137 . S
O292 C283 1.247 . S
O293 Co280 2.244 . S
O293 C283 1.272 . S
O293 Co285 2.136 . S
Co294 O295 2.216 . S
Co294 O296 2.091 . S
Co294 O298 2.004 . S
Co294 O304 2.021 . S
Co294 O306 2.137 . S
Co294 O307 2.244 . S
O295 Co294 2.216 . S
O295 C302 1.247 . S
O296 Co294 2.091 . S
O296 C302 1.261 . S
C297 O306 1.247 . S
C297 O307 1.272 . S
O298 Co294 2.004 . S
O298 C303 1.259 . S
Co299 O300 2.061 . S
Co299 O305 2.052 . S
Co299 O307 2.135 . S
O300 Co299 2.061 . S
O300 C303 1.235 . S
C301 O304 1.238 . S
C301 O305 1.241 . S
C302 O295 1.247 . S
C302 O296 1.261 . S
C303 O298 1.259 . S
C303 O300 1.235 . S
O304 Co294 2.021 . S
O304 C301 1.238 . S
O305 Co299 2.052 . S
O305 C301 1.241 . S
O306 Co294 2.137 . S
O306 C297 1.247 . S
O307 Co294 2.244 . S
O307 C297 1.272 . S
O307 Co299 2.135 . S
Co308 O309 2.216 . S
Co308 O310 2.091 . S
Co308 O312 2.004 . S
Co308 O318 2.021 . S
Co308 O320 2.137 . S
Co308 O321 2.244 . S
O309 Co308 2.216 . S
O309 C316 1.247 . S
O310 Co308 2.091 . S
O310 C316 1.261 . S
C311 O320 1.247 . S
C311 O321 1.272 . S
O312 Co308 2.004 . S
O312 C317 1.259 . S
Co313 O314 2.061 . S
Co313 O319 2.052 . S
Co313 O321 2.135 . S
O314 Co313 2.061 . S
O314 C317 1.235 . S
C315 O318 1.238 . S
C315 O319 1.241 . S
C316 O309 1.247 . S
C316 O310 1.261 . S
C317 O312 1.259 . S
C317 O314 1.235 . S
O318 Co308 2.021 . S
O318 C315 1.238 . S
O319 Co313 2.052 . S
O319 C315 1.241 . S
O320 Co308 2.137 . S
O320 C311 1.247 . S
O321 Co308 2.244 . S
O321 C311 1.272 . S
O321 Co313 2.135 . S
Co322 O323 2.216 . S
Co322 O324 2.091 . S
Co322 O326 2.004 . S
Co322 O332 2.021 . S
Co322 O334 2.137 . S
Co322 O335 2.244 . S
O323 Co322 2.216 . S
O323 C330 1.247 . S
O324 Co322 2.091 . S
O324 C330 1.261 . S
C325 O334 1.247 . S
C325 O335 1.272 . S
O326 Co322 2.004 . S
O326 C331 1.259 . S
Co327 O328 2.061 . S
Co327 O333 2.052 . S
Co327 O335 2.135 . S
O328 Co327 2.061 . S
O328 C331 1.235 . S
C329 O332 1.238 . S
C329 O333 1.241 . S
C330 O323 1.247 . S
C330 O324 1.261 . S
C331 O326 1.259 . S
C331 O328 1.235 . S
O332 Co322 2.021 . S
O332 C329 1.238 . S
O333 Co327 2.052 . S
O333 C329 1.241 . S
O334 Co322 2.137 . S
O334 C325 1.247 . S
O335 Co322 2.244 . S
O335 C325 1.272 . S
O335 Co327 2.135 . S
Co336 N341 2.057 1_554 S
Co336 O353 2.021 1_554 S
Co336 O356 2.062 1_455 S
Co336 O360 2.117 . S
Co336 O361 2.020 . S
C337 O357 1.259 . S
C337 O360 1.258 . S
Co338 N347 2.057 . S
Co338 O354 2.117 1_545 S
Co338 O355 2.020 1_455 S
Co338 O357 2.021 . S
Co338 O362 2.062 . S
C339 N341 1.322 . S
C339 N342 1.338 1_455 S
C339 H344 0.934 . S
C340 N341 1.375 1_655 S
C340 C343 1.350 . S
C340 H345 0.932 . S
N341 Co336 2.057 1_556 S
N341 C339 1.322 . S
N341 C340 1.375 1_455 S
N342 C339 1.338 1_655 S
N342 C343 1.373 . S
C343 C340 1.350 . S
C343 N342 1.373 . S
C343 H364 0.931 . S
H344 C339 0.934 . S
H345 C340 0.932 . S
C346 O353 1.259 1_564 S
C346 O354 1.258 . S
N347 Co338 2.057 . S
N347 C348 1.316 . S
N347 C349 1.375 1_545 S
C348 N347 1.316 . S
C348 N350 1.347 1_545 S
C348 H359 0.931 . S
C349 N347 1.375 1_565 S
C349 C351 1.350 . S
C349 H358 0.930 . S
N350 C348 1.347 1_565 S
N350 C351 1.373 . S
C351 C349 1.350 . S
C351 N350 1.373 . S
C351 H365 0.931 . S
C352 O355 1.256 . S
C352 O356 1.255 . S
O353 Co336 2.021 1_556 S
O353 C346 1.259 1_546 S
O354 Co338 2.117 1_565 S
O354 C346 1.258 . S
O355 Co338 2.020 1_655 S
O355 C352 1.256 . S
O356 Co336 2.062 1_655 S
O356 C352 1.255 . S
O357 C337 1.259 . S
O357 Co338 2.021 . S
H358 C349 0.930 . S
H359 C348 0.931 . S
O360 Co336 2.117 . S
O360 C337 1.258 . S
O361 Co336 2.020 . S
O361 C363 1.256 . S
O362 Co338 2.062 . S
O362 C363 1.255 . S
C363 O361 1.256 . S
C363 O362 1.255 . S
H364 C343 0.931 . S
H365 C351 0.931 . S
Co366 N371 2.057 . S
Co366 O383 2.021 . S
Co366 O386 2.062 . S
Co366 O390 2.117 . S
Co366 O391 2.020 . S
C367 O387 1.259 . S
C367 O390 1.258 . S
Co368 N377 2.057 . S
Co368 O384 2.117 . S
Co368 O385 2.020 . S
Co368 O387 2.021 . S
Co368 O392 2.062 . S
C369 N371 1.316 . S
C369 N372 1.347 . S
C369 H374 0.931 . S
C370 N371 1.375 . S
C370 C373 1.350 . S
C370 H375 0.930 . S
N371 Co366 2.057 . S
N371 C369 1.316 . S
N371 C370 1.375 . S
N372 C369 1.347 . S
N372 C373 1.373 . S
C373 C370 1.350 . S
C373 N372 1.373 . S
C373 H394 0.931 . S
H374 C369 0.931 . S
H375 C370 0.930 . S
C376 O383 1.259 . S
C376 O384 1.258 . S
N377 Co368 2.057 . S
N377 C378 1.316 . S
N377 C379 1.375 . S
C378 N377 1.316 . S
C378 N380 1.347 . S
C378 H389 0.931 . S
C379 N377 1.375 . S
C379 C381 1.350 . S
C379 H388 0.930 . S
N380 C378 1.347 . S
N380 C381 1.373 . S
C381 C379 1.350 . S
C381 N380 1.373 . S
C381 H395 0.931 . S
C382 O385 1.256 . S
C382 O386 1.255 . S
O383 Co366 2.021 . S
O383 C376 1.259 . S
O384 Co368 2.117 . S
O384 C376 1.258 . S
O385 Co368 2.020 . S
O385 C382 1.256 . S
O386 Co366 2.062 . S
O386 C382 1.255 . S
O387 C367 1.259 . S
O387 Co368 2.021 . S
H388 C379 0.930 . S
H389 C378 0.931 . S
O390 Co366 2.117 . S
O390 C367 1.258 . S
O391 Co366 2.020 . S
O391 C393 1.256 . S
O392 Co368 2.062 . S
O392 C393 1.255 . S
C393 O391 1.256 . S
C393 O392 1.255 . S
H394 C373 0.931 . S
H395 C381 0.931 . S
Co396 N401 2.057 . S
Co396 O413 2.021 1_545 S
Co396 O416 2.062 . S
Co396 O420 2.117 . S
Co396 O421 2.020 . S
C397 O417 1.259 . S
C397 O420 1.258 . S
Co398 N407 2.057 . S
Co398 O414 2.117 . S
Co398 O415 2.020 . S
Co398 O417 2.021 . S
Co398 O422 2.062 . S
C399 N401 1.316 1_565 S
C399 N402 1.347 1_565 S
C399 H404 0.931 . S
C400 N401 1.375 . S
C400 C403 1.350 . S
C400 H405 0.930 . S
N401 Co396 2.057 . S
N401 C399 1.316 1_545 S
N401 C400 1.375 . S
N402 C399 1.347 1_545 S
N402 C403 1.373 . S
C403 C400 1.350 . S
C403 N402 1.373 . S
C403 H424 0.931 . S
H404 C399 0.931 . S
H405 C400 0.930 . S
C406 O413 1.259 . S
C406 O414 1.258 1_565 S
N407 Co398 2.057 . S
N407 C408 1.316 . S
N407 C409 1.375 . S
C408 N407 1.316 . S
C408 N410 1.347 . S
C408 H419 0.931 . S
C409 N407 1.375 . S
C409 C411 1.350 . S
C409 H418 0.930 . S
N410 C408 1.347 . S
N410 C411 1.373 . S
C411 C409 1.350 . S
C411 N410 1.373 . S
C411 H425 0.931 . S
C412 O415 1.256 . S
C412 O416 1.255 . S
O413 Co396 2.021 1_565 S
O413 C406 1.259 . S
O414 Co398 2.117 . S
O414 C406 1.258 1_545 S
O415 Co398 2.020 . S
O415 C412 1.256 . S
O416 Co396 2.062 . S
O416 C412 1.255 . S
O417 C397 1.259 . S
O417 Co398 2.021 . S
H418 C409 0.930 . S
H419 C408 0.931 . S
O420 Co396 2.117 . S
O420 C397 1.258 . S
O421 Co396 2.020 . S
O421 C423 1.256 . S
O422 Co398 2.062 . S
O422 C423 1.255 . S
C423 O421 1.256 . S
C423 O422 1.255 . S
H424 C403 0.931 . S
H425 C411 0.931 . S
Co426 N431 2.057 . S
Co426 O443 2.021 . S
Co426 O446 2.062 . S
Co426 O450 2.117 . S
Co426 O451 2.020 . S
C427 O447 1.259 . S
C427 O450 1.258 . S
Co428 N437 2.057 . S
Co428 O444 2.117 . S
Co428 O445 2.020 . S
Co428 O447 2.021 . S
Co428 O452 2.062 . S
C429 N431 1.316 . S
C429 N432 1.347 . S
C429 H434 0.931 . S
C430 N431 1.375 . S
C430 C433 1.350 . S
C430 H435 0.930 . S
N431 Co426 2.057 . S
N431 C429 1.316 . S
N431 C430 1.375 . S
N432 C429 1.347 . S
N432 C433 1.373 . S
C433 C430 1.350 . S
C433 N432 1.373 . S
C433 H454 0.931 . S
H434 C429 0.931 . S
H435 C430 0.930 . S
C436 O443 1.259 . S
C436 O444 1.258 . S
N437 Co428 2.057 . S
N437 C438 1.316 . S
N437 C439 1.375 . S
C438 N437 1.316 . S
C438 N440 1.347 . S
C438 H449 0.931 . S
C439 N437 1.375 . S
C439 C441 1.350 . S
C439 H448 0.930 . S
N440 C438 1.347 . S
N440 C441 1.373 . S
C441 C439 1.350 . S
C441 N440 1.373 . S
C441 H455 0.931 . S
C442 O445 1.256 . S
C442 O446 1.255 . S
O443 Co426 2.021 . S
O443 C436 1.259 . S
O444 Co428 2.117 . S
O444 C436 1.258 . S
O445 Co428 2.020 . S
O445 C442 1.256 . S
O446 Co426 2.062 . S
O446 C442 1.255 . S
O447 C427 1.259 . S
O447 Co428 2.021 . S
H448 C439 0.930 . S
H449 C438 0.931 . S
O450 Co426 2.117 . S
O450 C427 1.258 . S
O451 Co426 2.020 . S
O451 C453 1.256 . S
O452 Co428 2.062 . S
O452 C453 1.255 . S
C453 O451 1.256 . S
C453 O452 1.255 . S
H454 C433 0.931 . S
H455 C441 0.931 . S
Co456 N461 2.057 1_545 S
Co456 O473 2.021 . S
Co456 O476 2.062 1_545 S
Co456 O480 2.117 . S
Co456 O481 2.020 1_455 S
C457 O477 1.259 . S
C457 O480 1.258 . S
Co458 N467 2.057 . S
Co458 O474 2.117 . S
Co458 O475 2.020 . S
Co458 O477 2.021 . S
Co458 O482 2.062 1_455 S
C459 N461 1.316 . S
C459 N462 1.347 . S
C459 H464 0.931 . S
C460 N461 1.375 1_655 S
C460 C463 1.350 . S
C460 H465 0.930 . S
N461 Co456 2.057 1_565 S
N461 C459 1.316 . S
N461 C460 1.375 1_455 S
N462 C459 1.347 . S
N462 C463 1.373 1_455 S
C463 C460 1.350 . S
C463 N462 1.373 1_655 S
C463 H484 0.931 . S
H464 C459 0.931 . S
H465 C460 0.930 . S
C466 O473 1.259 . S
C466 O474 1.258 . S
N467 Co458 2.057 . S
N467 C468 1.316 . S
N467 C469 1.375 . S
C468 N467 1.316 . S
C468 N470 1.347 . S
C468 H479 0.931 . S
C469 N467 1.375 . S
C469 C471 1.350 . S
C469 H478 0.930 . S
N470 C468 1.347 . S
N470 C471 1.373 . S
C471 C469 1.350 . S
C471 N470 1.373 . S
C471 H485 0.931 . S
C472 O475 1.256 . S
C472 O476 1.255 1_545 S
O473 Co456 2.021 . S
O473 C466 1.259 . S
O474 Co458 2.117 . S
O474 C466 1.258 . S
O475 Co458 2.020 . S
O475 C472 1.256 . S
O476 Co456 2.062 1_565 S
O476 C472 1.255 1_565 S
O477 C457 1.259 . S
O477 Co458 2.021 . S
H478 C469 0.930 . S
H479 C468 0.931 . S
O480 Co456 2.117 . S
O480 C457 1.258 . S
O481 Co456 2.020 1_655 S
O481 C483 1.256 . S
O482 Co458 2.062 1_655 S
O482 C483 1.255 . S
C483 O481 1.256 . S
C483 O482 1.255 . S
H484 C463 0.931 . S
H485 C471 0.931 . S
Co486 N491 2.057 . S
Co486 O503 2.021 . S
Co486 O506 2.062 . S
Co486 O510 2.117 . S
Co486 O511 2.020 . S
C487 O507 1.259 . S
C487 O510 1.258 . S
Co488 N497 2.057 . S
Co488 O504 2.117 . S
Co488 O505 2.020 . S
Co488 O507 2.021 . S
Co488 O512 2.062 . S
C489 N491 1.316 . S
C489 N492 1.347 . S
C489 H494 0.931 . S
C490 N491 1.375 . S
C490 C493 1.350 . S
C490 H495 0.930 . S
N491 Co486 2.057 . S
N491 C489 1.316 . S
N491 C490 1.375 . S
N492 C489 1.347 . S
N492 C493 1.373 . S
C493 C490 1.350 . S
C493 N492 1.373 . S
C493 H514 0.931 . S
H494 C489 0.931 . S
H495 C490 0.930 . S
C496 O503 1.259 . S
C496 O504 1.258 . S
N497 Co488 2.057 . S
N497 C498 1.316 . S
N497 C499 1.375 . S
C498 N497 1.316 . S
C498 N500 1.347 . S
C498 H509 0.931 . S
C499 N497 1.375 . S
C499 C501 1.350 . S
C499 H508 0.930 . S
N500 C498 1.347 . S
N500 C501 1.373 . S
C501 C499 1.350 . S
C501 N500 1.373 . S
C501 H515 0.931 . S
C502 O505 1.256 . S
C502 O506 1.255 . S
O503 Co486 2.021 . S
O503 C496 1.259 . S
O504 Co488 2.117 . S
O504 C496 1.258 . S
O505 Co488 2.020 . S
O505 C502 1.256 . S
O506 Co486 2.062 . S
O506 C502 1.255 . S
O507 C487 1.259 . S
O507 Co488 2.021 . S
H508 C499 0.930 . S
H509 C498 0.931 . S
O510 Co486 2.117 . S
O510 C487 1.258 . S
O511 Co486 2.020 . S
O511 C513 1.256 . S
O512 Co488 2.062 . S
O512 C513 1.255 . S
C513 O511 1.256 . S
C513 O512 1.255 . S
H514 C493 0.931 . S
H515 C501 0.931 . S
Co516 N521 2.057 1_554 S
Co516 O533 2.021 . S
Co516 O536 2.062 1_554 S
Co516 O540 2.117 . S
Co516 O541 2.020 1_545 S
C517 O537 1.259 . S
C517 O540 1.258 . S
Co518 N527 2.057 . S
Co518 O534 2.117 . S
Co518 O535 2.020 . S
Co518 O537 2.021 . S
Co518 O542 2.077 . S
C519 N521 1.316 . S
C519 N522 1.347 . S
C519 H524 0.931 . S
C520 N521 1.375 . S
C520 C523 1.350 . S
C520 H525 0.930 1_545 S
N521 Co516 2.057 1_556 S
N521 C519 1.316 . S
N521 C520 1.375 . S
N522 C519 1.347 . S
N522 C523 1.373 . S
C523 C520 1.350 . S
C523 N522 1.373 . S
C523 H544 0.931 1_545 S
H524 C519 0.931 . S
H525 C520 0.930 1_565 S
C526 O533 1.259 . S
C526 O534 1.258 . S
N527 Co518 2.057 . S
N527 C528 1.316 . S
N527 C529 1.375 . S
C528 N527 1.316 . S
C528 N530 1.347 . S
C528 H539 0.931 . S
C529 N527 1.375 . S
C529 C531 1.350 . S
C529 H538 0.930 . S
N530 C528 1.347 . S
N530 C531 1.373 . S
C531 C529 1.350 . S
C531 N530 1.373 . S
C531 H545 0.931 . S
C532 O535 1.256 . S
C532 O536 1.255 1_554 S
O533 Co516 2.021 . S
O533 C526 1.259 . S
O534 Co518 2.117 . S
O534 C526 1.258 . S
O535 Co518 2.020 . S
O535 C532 1.256 . S
O536 Co516 2.062 1_556 S
O536 C532 1.255 1_556 S
O537 C517 1.259 . S
O537 Co518 2.021 . S
H538 C529 0.930 . S
H539 C528 0.931 . S
O540 Co516 2.117 . S
O540 C517 1.258 . S
O541 Co516 2.020 1_565 S
O541 C543 1.256 . S
O542 Co518 2.077 . S
O542 C543 1.244 1_545 S
C543 O541 1.256 . S
C543 O542 1.244 1_565 S
H544 C523 0.931 1_565 S
H545 C531 0.931 . S
Co546 N551 2.057 . S
Co546 O563 2.021 . S
Co546 O566 2.062 . S
Co546 O570 2.117 . S
Co546 O571 2.020 . S
C547 O567 1.259 . S
C547 O570 1.258 . S
Co548 N557 2.057 . S
Co548 O564 2.117 . S
Co548 O565 2.020 . S
Co548 O567 2.021 . S
Co548 O572 2.062 . S
C549 N551 1.316 . S
C549 N552 1.347 . S
C549 H554 0.931 . S
C550 N551 1.375 . S
C550 C553 1.350 . S
C550 H555 0.930 . S
N551 Co546 2.057 . S
N551 C549 1.316 . S
N551 C550 1.375 . S
N552 C549 1.347 . S
N552 C553 1.373 . S
C553 C550 1.350 . S
C553 N552 1.373 . S
C553 H574 0.931 . S
H554 C549 0.931 . S
H555 C550 0.930 . S
C556 O563 1.259 . S
C556 O564 1.258 . S
N557 Co548 2.057 . S
N557 C558 1.316 . S
N557 C559 1.375 . S
C558 N557 1.316 . S
C558 N560 1.347 . S
C558 H569 0.931 . S
C559 N557 1.375 . S
C559 C561 1.350 . S
C559 H568 0.930 . S
N560 C558 1.347 . S
N560 C561 1.373 . S
C561 C559 1.350 . S
C561 N560 1.373 . S
C561 H575 0.931 . S
C562 O565 1.256 . S
C562 O566 1.255 . S
O563 Co546 2.021 . S
O563 C556 1.259 . S
O564 Co548 2.117 . S
O564 C556 1.258 . S
O565 Co548 2.020 . S
O565 C562 1.256 . S
O566 Co546 2.062 . S
O566 C562 1.255 . S
O567 C547 1.259 . S
O567 Co548 2.021 . S
H568 C559 0.930 . S
H569 C558 0.931 . S
O570 Co546 2.117 . S
O570 C547 1.258 . S
O571 Co546 2.020 . S
O571 C573 1.256 . S
O572 Co548 2.062 . S
O572 C573 1.255 . S
C573 O571 1.256 . S
C573 O572 1.255 . S
H574 C553 0.931 . S
H575 C561 0.931 . S
Co576 N581 2.057 . S
Co576 O593 2.021 1_554 S
Co576 O596 2.062 . S
Co576 O600 2.117 . S
Co576 O601 2.020 . S
C577 O597 1.259 . S
C577 O600 1.258 . S
Co578 N587 2.057 . S
Co578 O594 2.118 . S
Co578 O595 2.020 . S
Co578 O597 2.021 . S
Co578 O602 2.062 . S
C579 N581 1.316 1_556 S
C579 N582 1.347 1_556 S
C579 H584 0.931 . S
C580 N581 1.375 . S
C580 C583 1.350 . S
C580 H585 0.930 . S
N581 Co576 2.057 . S
N581 C579 1.316 1_554 S
N581 C580 1.375 . S
N582 C579 1.347 1_554 S
N582 C583 1.373 . S
C583 C580 1.350 . S
C583 N582 1.373 . S
C583 H604 0.931 . S
H584 C579 0.931 . S
H585 C580 0.930 . S
C586 O593 1.259 . S
C586 O594 1.257 1_556 S
N587 Co578 2.057 . S
N587 C588 1.316 . S
N587 C589 1.375 . S
C588 N587 1.316 . S
C588 N590 1.347 . S
C588 H599 0.931 . S
C589 N587 1.375 . S
C589 C591 1.350 . S
C589 H598 0.930 . S
N590 C588 1.347 . S
N590 C591 1.373 . S
C591 C589 1.350 . S
C591 N590 1.373 . S
C591 H605 0.931 . S
C592 O595 1.256 . S
C592 O596 1.255 . S
O593 Co576 2.021 1_556 S
O593 C586 1.259 . S
O594 Co578 2.118 . S
O594 C586 1.257 1_554 S
O595 Co578 2.020 . S
O595 C592 1.256 . S
O596 Co576 2.062 . S
O596 C592 1.255 . S
O597 C577 1.259 . S
O597 Co578 2.021 . S
H598 C589 0.930 . S
H599 C588 0.931 . S
O600 Co576 2.117 . S
O600 C577 1.258 . S
O601 Co576 2.020 . S
O601 C603 1.256 . S
O602 Co578 2.062 . S
O602 C603 1.255 . S
C603 O601 1.256 . S
C603 O602 1.255 . S
H604 C583 0.931 . S
H605 C591 0.931 . S
Co606 N611 2.057 . S
Co606 O623 2.021 . S
Co606 O626 2.062 . S
Co606 O630 2.117 . S
Co606 O631 2.020 . S
C607 O627 1.259 . S
C607 O630 1.258 . S
Co608 N617 2.057 . S
Co608 O624 2.117 . S
Co608 O625 2.020 . S
Co608 O627 2.021 . S
Co608 O632 2.062 . S
C609 N611 1.316 . S
C609 N612 1.347 . S
C609 H614 0.931 . S
C610 N611 1.375 . S
C610 C613 1.350 . S
C610 H615 0.930 . S
N611 Co606 2.057 . S
N611 C609 1.316 . S
N611 C610 1.375 . S
N612 C609 1.347 . S
N612 C613 1.373 . S
C613 C610 1.350 . S
C613 N612 1.373 . S
C613 H634 0.931 . S
H614 C609 0.931 . S
H615 C610 0.930 . S
C616 O623 1.259 . S
C616 O624 1.258 . S
N617 Co608 2.057 . S
N617 C618 1.316 . S
N617 C619 1.375 . S
C618 N617 1.316 . S
C618 N620 1.347 . S
C618 H629 0.931 . S
C619 N617 1.375 . S
C619 C621 1.350 . S
C619 H628 0.930 . S
N620 C618 1.347 . S
N620 C621 1.373 . S
C621 C619 1.350 . S
C621 N620 1.373 . S
C621 H635 0.931 . S
C622 O625 1.256 . S
C622 O626 1.255 . S
O623 Co606 2.021 . S
O623 C616 1.259 . S
O624 Co608 2.117 . S
O624 C616 1.258 . S
O625 Co608 2.020 . S
O625 C622 1.256 . S
O626 Co606 2.062 . S
O626 C622 1.255 . S
O627 C607 1.259 . S
O627 Co608 2.021 . S
H628 C619 0.930 . S
H629 C618 0.931 . S
O630 Co606 2.117 . S
O630 C607 1.258 . S
O631 Co606 2.020 . S
O631 C633 1.256 . S
O632 Co608 2.062 . S
O632 C633 1.255 . S
C633 O631 1.256 . S
C633 O632 1.255 . S
H634 C613 0.931 . S
H635 C621 0.931 . S
Co636 N641 2.057 . S
Co636 O653 2.021 1_455 S
Co636 O656 2.062 . S
Co636 O660 2.117 . S
Co636 O661 2.020 . S
C637 O657 1.259 . S
C637 O660 1.258 . S
Co638 N647 2.057 . S
Co638 O654 2.117 1_455 S
Co638 O655 2.020 . S
Co638 O657 2.021 . S
Co638 O662 2.062 . S
C639 N641 1.316 1_655 S
C639 N642 1.347 . S
C639 H644 0.931 . S
C640 N641 1.375 . S
C640 C643 1.350 . S
C640 H645 0.930 . S
N641 Co636 2.057 . S
N641 C639 1.316 1_455 S
N641 C640 1.375 . S
N642 C639 1.347 . S
N642 C643 1.373 1_655 S
C643 C640 1.350 . S
C643 N642 1.373 1_455 S
C643 H664 0.931 . S
H644 C639 0.931 . S
H645 C640 0.930 . S
C646 O653 1.259 . S
C646 O654 1.258 . S
N647 Co638 2.057 . S
N647 C648 1.316 . S
N647 C649 1.375 . S
C648 N647 1.316 . S
C648 N650 1.347 . S
C648 H659 0.931 . S
C649 N647 1.375 . S
C649 C651 1.350 . S
C649 H658 0.930 . S
N650 C648 1.347 . S
N650 C651 1.373 . S
C651 C649 1.350 . S
C651 N650 1.373 . S
C651 H665 0.931 . S
C652 O655 1.256 . S
C652 O656 1.255 . S
O653 Co636 2.021 1_655 S
O653 C646 1.259 . S
O654 Co638 2.117 1_655 S
O654 C646 1.258 . S
O655 Co638 2.020 . S
O655 C652 1.256 . S
O656 Co636 2.062 . S
O656 C652 1.255 . S
O657 C637 1.259 . S
O657 Co638 2.021 . S
H658 C649 0.930 . S
H659 C648 0.931 . S
O660 Co636 2.117 . S
O660 C637 1.258 . S
O661 Co636 2.020 . S
O661 C663 1.256 . S
O662 Co638 2.062 . S
O662 C663 1.255 . S
C663 O661 1.256 . S
C663 O662 1.255 . S
H664 C643 0.931 . S
H665 C651 0.931 . S
Co666 N671 2.057 . S
Co666 O683 2.021 . S
Co666 O686 2.062 . S
Co666 O690 2.117 . S
Co666 O691 2.020 . S
C667 O687 1.259 . S
C667 O690 1.258 . S
Co668 N677 2.057 . S
Co668 O684 2.117 . S
Co668 O685 2.020 . S
Co668 O687 2.021 . S
Co668 O692 2.062 . S
C669 N671 1.316 . S
C669 N672 1.347 . S
C669 H674 0.931 . S
C670 N671 1.375 . S
C670 C673 1.350 . S
C670 H675 0.930 . S
N671 Co666 2.057 . S
N671 C669 1.316 . S
N671 C670 1.375 . S
N672 C669 1.347 . S
N672 C673 1.373 . S
C673 C670 1.350 . S
C673 N672 1.373 . S
C673 H694 0.931 . S
H674 C669 0.931 . S
H675 C670 0.930 . S
C676 O683 1.259 . S
C676 O684 1.258 . S
N677 Co668 2.057 . S
N677 C678 1.316 . S
N677 C679 1.375 . S
C678 N677 1.316 . S
C678 N680 1.347 . S
C678 H689 0.931 . S
C679 N677 1.375 . S
C679 C681 1.350 . S
C679 H688 0.930 . S
N680 C678 1.347 . S
N680 C681 1.373 . S
C681 C679 1.350 . S
C681 N680 1.373 . S
C681 H695 0.931 . S
C682 O685 1.256 . S
C682 O686 1.255 . S
O683 Co666 2.021 . S
O683 C676 1.259 . S
O684 Co668 2.117 . S
O684 C676 1.258 . S
O685 Co668 2.020 . S
O685 C682 1.256 . S
O686 Co666 2.062 . S
O686 C682 1.255 . S
O687 C667 1.259 . S
O687 Co668 2.021 . S
H688 C679 0.930 . S
H689 C678 0.931 . S
O690 Co666 2.117 . S
O690 C667 1.258 . S
O691 Co666 2.020 . S
O691 C693 1.256 . S
O692 Co668 2.062 . S
O692 C693 1.255 . S
C693 O691 1.256 . S
C693 O692 1.255 . S
H694 C673 0.931 . S
H695 C681 0.931 . S
Co696 N701 2.057 . S
Co696 O713 2.021 . S
Co696 O716 2.062 . S
Co696 O720 2.117 . S
Co696 O721 2.020 . S
C697 O717 1.259 . S
C697 O720 1.258 . S
Co698 N707 2.057 . S
Co698 O714 2.117 . S
Co698 O715 2.020 . S
Co698 O717 2.021 . S
Co698 O722 2.062 . S
C699 N701 1.316 . S
C699 N702 1.347 . S
C699 H704 0.931 . S
C700 N701 1.375 . S
C700 C703 1.350 . S
C700 H705 0.930 . S
N701 Co696 2.057 . S
N701 C699 1.316 . S
N701 C700 1.375 . S
N702 C699 1.347 . S
N702 C703 1.373 . S
C703 C700 1.350 . S
C703 N702 1.373 . S
C703 H724 0.931 . S
H704 C699 0.931 . S
H705 C700 0.930 . S
C706 O713 1.259 . S
C706 O714 1.258 . S
N707 Co698 2.057 . S
N707 C708 1.316 . S
N707 C709 1.375 . S
C708 N707 1.316 . S
C708 N710 1.347 . S
C708 H719 0.931 . S
C709 N707 1.375 . S
C709 C711 1.350 . S
C709 H718 0.930 . S
N710 C708 1.347 . S
N710 C711 1.373 . S
C711 C709 1.350 . S
C711 N710 1.373 . S
C711 H725 0.931 . S
C712 O715 1.256 . S
C712 O716 1.255 . S
O713 Co696 2.021 . S
O713 C706 1.259 . S
O714 Co698 2.117 . S
O714 C706 1.258 . S
O715 Co698 2.020 . S
O715 C712 1.256 . S
O716 Co696 2.062 . S
O716 C712 1.255 . S
O717 C697 1.259 . S
O717 Co698 2.021 . S
H718 C709 0.930 . S
H719 C708 0.931 . S
O720 Co696 2.117 . S
O720 C697 1.258 . S
O721 Co696 2.020 . S
O721 C723 1.256 . S
O722 Co698 2.062 . S
O722 C723 1.255 . S
C723 O721 1.256 . S
C723 O722 1.255 . S
H724 C703 0.931 . S
H725 C711 0.931 . S
Co726 N731 2.057 . S
Co726 O743 2.021 . S
Co726 O746 2.062 . S
Co726 O750 2.117 . S
Co726 O751 2.020 . S
C727 O747 1.259 . S
C727 O750 1.258 . S
Co728 N737 2.057 . S
Co728 O744 2.117 . S
Co728 O745 2.020 . S
Co728 O747 2.021 . S
Co728 O752 2.062 . S
C729 N731 1.316 . S
C729 N732 1.347 . S
C729 H734 0.931 . S
C730 N731 1.375 . S
C730 C733 1.350 . S
C730 H735 0.930 . S
N731 Co726 2.057 . S
N731 C729 1.316 . S
N731 C730 1.375 . S
N732 C729 1.347 . S
N732 C733 1.373 . S
C733 C730 1.350 . S
C733 N732 1.373 . S
C733 H754 0.931 . S
H734 C729 0.931 . S
H735 C730 0.930 . S
C736 O743 1.259 . S
C736 O744 1.258 . S
N737 Co728 2.057 . S
N737 C738 1.316 . S
N737 C739 1.375 . S
C738 N737 1.316 . S
C738 N740 1.347 . S
C738 H749 0.931 . S
C739 N737 1.375 . S
C739 C741 1.350 . S
C739 H748 0.930 . S
N740 C738 1.347 . S
N740 C741 1.373 . S
C741 C739 1.350 . S
C741 N740 1.373 . S
C741 H755 0.931 . S
C742 O745 1.256 . S
C742 O746 1.255 . S
O743 Co726 2.021 . S
O743 C736 1.259 . S
O744 Co728 2.117 . S
O744 C736 1.258 . S
O745 Co728 2.020 . S
O745 C742 1.256 . S
O746 Co726 2.062 . S
O746 C742 1.255 . S
O747 C727 1.259 . S
O747 Co728 2.021 . S
H748 C739 0.930 . S
H749 C738 0.931 . S
O750 Co726 2.117 . S
O750 C727 1.258 . S
O751 Co726 2.020 . S
O751 C753 1.256 . S
O752 Co728 2.062 . S
O752 C753 1.255 . S
C753 O751 1.256 . S
C753 O752 1.255 . S
H754 C733 0.931 . S
H755 C741 0.931 . S
Co756 N761 2.057 . S
Co756 O773 2.021 . S
Co756 O776 2.062 . S
Co756 O780 2.117 . S
Co756 O781 2.020 . S
C757 O777 1.259 . S
C757 O780 1.258 . S
Co758 N767 2.057 . S
Co758 O774 2.117 . S
Co758 O775 2.020 . S
Co758 O777 2.021 . S
Co758 O782 2.062 . S
C759 N761 1.316 . S
C759 N762 1.347 . S
C759 H764 0.931 . S
C760 N761 1.375 . S
C760 C763 1.350 . S
C760 H765 0.930 . S
N761 Co756 2.057 . S
N761 C759 1.316 . S
N761 C760 1.375 . S
N762 C759 1.347 . S
N762 C763 1.373 . S
C763 C760 1.350 . S
C763 N762 1.373 . S
C763 H784 0.931 . S
H764 C759 0.931 . S
H765 C760 0.930 . S
C766 O773 1.259 . S
C766 O774 1.258 . S
N767 Co758 2.057 . S
N767 C768 1.316 . S
N767 C769 1.375 . S
C768 N767 1.316 . S
C768 N770 1.347 . S
C768 H779 0.931 . S
C769 N767 1.375 . S
C769 C771 1.350 . S
C769 H778 0.930 . S
N770 C768 1.347 . S
N770 C771 1.373 . S
C771 C769 1.350 . S
C771 N770 1.373 . S
C771 H785 0.931 . S
C772 O775 1.256 . S
C772 O776 1.255 . S
O773 Co756 2.021 . S
O773 C766 1.259 . S
O774 Co758 2.117 . S
O774 C766 1.258 . S
O775 Co758 2.020 . S
O775 C772 1.256 . S
O776 Co756 2.062 . S
O776 C772 1.255 . S
O777 C757 1.259 . S
O777 Co758 2.021 . S
H778 C769 0.930 . S
H779 C768 0.931 . S
O780 Co756 2.117 . S
O780 C757 1.258 . S
O781 Co756 2.020 . S
O781 C783 1.256 . S
O782 Co758 2.062 . S
O782 C783 1.255 . S
C783 O781 1.256 . S
C783 O782 1.255 . S
H784 C763 0.931 . S
H785 C771 0.931 . S
Co786 N791 2.057 1_455 S
Co786 O803 2.021 . S
Co786 O806 2.062 1_455 S
Co786 O810 2.117 . S
Co786 O811 2.020 1_554 S
C787 O807 1.259 . S
C787 O810 1.258 . S
Co788 N797 2.057 . S
Co788 O804 2.117 . S
Co788 O805 2.020 . S
Co788 O807 2.021 . S
Co788 O812 2.062 1_554 S
C789 N791 1.316 . S
C789 N792 1.347 . S
C789 H794 0.931 . S
C790 N791 1.375 1_556 S
C790 C793 1.350 . S
C790 H795 0.930 . S
N791 Co786 2.057 1_655 S
N791 C789 1.316 . S
N791 C790 1.375 1_554 S
N792 C789 1.347 . S
N792 C793 1.373 1_554 S
C793 C790 1.350 . S
C793 N792 1.373 1_556 S
C793 H814 0.931 . S
H794 C789 0.931 . S
H795 C790 0.930 . S
C796 O803 1.259 . S
C796 O804 1.258 . S
N797 Co788 2.057 . S
N797 C798 1.316 . S
N797 C799 1.375 . S
C798 N797 1.316 . S
C798 N800 1.347 . S
C798 H809 0.931 . S
C799 N797 1.375 . S
C799 C801 1.350 . S
C799 H808 0.930 . S
N800 C798 1.347 . S
N800 C801 1.373 . S
C801 C799 1.350 . S
C801 N800 1.373 . S
C801 H815 0.931 . S
C802 O805 1.256 . S
C802 O806 1.255 1_455 S
O803 Co786 2.021 . S
O803 C796 1.259 . S
O804 Co788 2.117 . S
O804 C796 1.258 . S
O805 Co788 2.020 . S
O805 C802 1.256 . S
O806 Co786 2.062 1_655 S
O806 C802 1.255 1_655 S
O807 C787 1.259 . S
O807 Co788 2.021 . S
H808 C799 0.930 . S
H809 C798 0.931 . S
O810 Co786 2.117 . S
O810 C787 1.258 . S
O811 Co786 2.020 1_556 S
O811 C813 1.256 . S
O812 Co788 2.062 1_556 S
O812 C813 1.255 . S
C813 O811 1.256 . S
C813 O812 1.255 . S
H814 C793 0.931 . S
H815 C801 0.931 . S
C816 C817 1.363 . S
C816 C822 1.379 . S
C816 N824 1.356 . S
C817 C816 1.363 . S
C817 C823 1.363 . S
C818 C819 1.363 . S
C818 C823 1.379 . S
C818 N825 1.356 1_455 S
C819 C818 1.363 . S
C819 C822 1.363 . S
N820 C822 1.356 . S
N820 H832 0.984 . S
N820 H833 0.985 . S
N821 C823 1.356 . S
N821 H826 0.984 . S
N821 H827 0.985 1_455 S
C822 C816 1.379 . S
C822 C819 1.363 . S
C822 N820 1.356 . S
C823 C817 1.363 . S
C823 C818 1.379 . S
C823 N821 1.356 . S
N824 C816 1.356 . S
N824 H830 0.984 . S
N824 H831 0.984 . S
N825 C818 1.356 1_655 S
N825 H828 0.984 . S
N825 H829 0.985 . S
H826 N821 0.984 . S
H827 N821 0.985 1_655 S
H828 N825 0.984 . S
H829 N825 0.985 . S
H830 N824 0.984 . S
H831 N824 0.984 . S
H832 N820 0.984 . S
H833 N820 0.985 . S
C834 C835 1.363 . S
C834 C840 1.379 . S
C834 N842 1.356 . S
C835 C834 1.363 . S
C835 C841 1.363 . S
C836 C837 1.363 . S
C836 C841 1.379 . S
C836 N843 1.356 . S
C837 C836 1.363 . S
C837 C840 1.363 . S
N838 C840 1.356 . S
N838 H850 0.984 . S
N838 H851 0.985 . S
N839 C841 1.356 . S
N839 H844 0.984 . S
N839 H845 0.985 . S
C840 C834 1.379 . S
C840 C837 1.363 . S
C840 N838 1.356 . S
C841 C835 1.363 . S
C841 C836 1.379 . S
C841 N839 1.356 . S
N842 C834 1.356 . S
N842 H848 0.984 . S
N842 H849 0.984 . S
N843 C836 1.356 . S
N843 H846 0.984 . S
N843 H847 0.985 . S
H844 N839 0.984 . S
H845 N839 0.985 . S
H846 N843 0.984 . S
H847 N843 0.985 . S
H848 N842 0.984 . S
H849 N842 0.984 . S
H850 N838 0.984 . S
H851 N838 0.985 . S
C852 C853 1.363 . S
C852 C858 1.379 . S
C852 N860 1.356 . S
C853 C852 1.363 . S
C853 C859 1.363 . S
C854 C855 1.363 . S
C854 C859 1.379 . S
C854 N861 1.356 . S
C855 C854 1.363 . S
C855 C858 1.363 . S
N856 C858 1.356 . S
N856 H868 0.984 . S
N856 H869 0.985 . S
N857 C859 1.356 . S
N857 H862 0.984 . S
N857 H863 0.985 . S
C858 C852 1.379 . S
C858 C855 1.363 . S
C858 N856 1.356 . S
C859 C853 1.363 . S
C859 C854 1.379 . S
C859 N857 1.356 . S
N860 C852 1.356 . S
N860 H866 0.984 . S
N860 H867 0.984 . S
N861 C854 1.356 . S
N861 H864 0.984 . S
N861 H865 0.985 . S
H862 N857 0.984 . S
H863 N857 0.985 . S
H864 N861 0.984 . S
H865 N861 0.985 . S
H866 N860 0.984 . S
H867 N860 0.984 . S
H868 N856 0.984 . S
H869 N856 0.985 . S
C870 C871 1.363 . S
C870 C876 1.379 . S
C870 N878 1.356 . S
C871 C870 1.363 . S
C871 C877 1.363 . S
C872 C873 1.363 . S
C872 C877 1.379 . S
C872 N879 1.356 . S
C873 C872 1.363 . S
C873 C876 1.363 . S
N874 C876 1.356 . S
N874 H886 0.984 . S
N874 H887 0.985 . S
N875 C877 1.356 . S
N875 H880 0.984 . S
N875 H881 0.985 . S
C876 C870 1.379 . S
C876 C873 1.363 . S
C876 N874 1.356 . S
C877 C871 1.363 . S
C877 C872 1.379 . S
C877 N875 1.356 . S
N878 C870 1.356 . S
N878 H884 0.984 . S
N878 H885 0.984 . S
N879 C872 1.356 . S
N879 H882 0.984 . S
N879 H883 0.985 . S
H880 N875 0.984 . S
H881 N875 0.985 . S
H882 N879 0.984 . S
H883 N879 0.985 . S
H884 N878 0.984 . S
H885 N878 0.984 . S
H886 N874 0.984 . S
H887 N874 0.985 . S
C888 C889 1.363 . S
C888 C894 1.379 . S
C888 N896 1.356 . S
C889 C888 1.363 . S
C889 C895 1.363 . S
C890 C891 1.363 . S
C890 C895 1.379 . S
C890 N897 1.356 . S
C891 C890 1.363 . S
C891 C894 1.363 . S
N892 C894 1.363 . S
N892 H904 0.982 1_455 S
N892 H905 0.980 1_455 S
N893 C895 1.356 . S
N893 H898 0.984 . S
N893 H899 0.985 . S
C894 C888 1.379 . S
C894 C891 1.363 . S
C894 N892 1.363 . S
C895 C889 1.363 . S
C895 C890 1.379 . S
C895 N893 1.356 . S
N896 C888 1.356 . S
N896 H902 0.984 . S
N896 H903 0.984 . S
N897 C890 1.356 . S
N897 H900 0.984 . S
N897 H901 0.985 . S
H898 N893 0.984 . S
H899 N893 0.985 . S
H900 N897 0.984 . S
H901 N897 0.985 . S
H902 N896 0.984 . S
H903 N896 0.984 . S
H904 N892 0.982 1_655 S
H905 N892 0.980 1_655 S
C906 C907 1.363 . S
C906 C912 1.379 . S
C906 N914 1.356 . S
C907 C906 1.363 . S
C907 C913 1.363 . S
C908 C909 1.363 . S
C908 C913 1.379 . S
C908 N915 1.356 . S
C909 C908 1.363 . S
C909 C912 1.363 . S
N910 C912 1.356 . S
N910 H922 0.984 . S
N910 H923 0.985 . S
N911 C913 1.356 . S
N911 H916 0.984 . S
N911 H917 0.985 . S
C912 C906 1.379 . S
C912 C909 1.363 . S
C912 N910 1.356 . S
C913 C907 1.363 . S
C913 C908 1.379 . S
C913 N911 1.356 . S
N914 C906 1.356 . S
N914 H920 0.984 . S
N914 H921 0.984 . S
N915 C908 1.356 . S
N915 H918 0.984 . S
N915 H919 0.985 . S
H916 N911 0.984 . S
H917 N911 0.985 . S
H918 N915 0.984 . S
H919 N915 0.985 . S
H920 N914 0.984 . S
H921 N914 0.984 . S
H922 N910 0.984 . S
H923 N910 0.985 . S
C924 C925 1.363 . S
C924 C930 1.379 1_556 S
C924 N932 1.356 . S
C925 C924 1.363 . S
C925 C931 1.363 . S
C926 C927 1.363 . S
C926 C931 1.379 . S
C926 N933 1.356 . S
C927 C926 1.363 . S
C927 C930 1.363 1_556 S
N928 C930 1.356 . S
N928 H940 0.984 . S
N928 H941 0.985 . S
N929 C931 1.356 . S
N929 H934 0.984 . S
N929 H935 0.985 . S
C930 C924 1.379 1_554 S
C930 C927 1.363 1_554 S
C930 N928 1.356 . S
C931 C925 1.363 . S
C931 C926 1.379 . S
C931 N929 1.356 . S
N932 C924 1.356 . S
N932 H938 0.984 1_556 S
N932 H939 0.984 . S
N933 C926 1.356 . S
N933 H936 0.984 . S
N933 H937 0.985 . S
H934 N929 0.984 . S
H935 N929 0.985 . S
H936 N933 0.984 . S
H937 N933 0.985 . S
H938 N932 0.984 1_554 S
H939 N932 0.984 . S
H940 N928 0.984 . S
H941 N928 0.985 . S
C942 C943 1.363 . S
C942 C948 1.379 . S
C942 N950 1.356 . S
C943 C942 1.363 . S
C943 C949 1.363 . S
C944 C945 1.363 . S
C944 C949 1.379 . S
C944 N951 1.356 . S
C945 C944 1.363 . S
C945 C948 1.363 . S
N946 C948 1.356 . S
N946 H958 0.984 . S
N946 H959 0.985 . S
N947 C949 1.356 . S
N947 H952 0.984 . S
N947 H953 0.985 . S
C948 C942 1.379 . S
C948 C945 1.363 . S
C948 N946 1.356 . S
C949 C943 1.363 . S
C949 C944 1.379 . S
C949 N947 1.356 . S
N950 C942 1.356 . S
N950 H956 0.984 . S
N950 H957 0.984 . S
N951 C944 1.356 . S
N951 H954 0.984 . S
N951 H955 0.985 . S
H952 N947 0.984 . S
H953 N947 0.985 . S
H954 N951 0.984 . S
H955 N951 0.985 . S
H956 N950 0.984 . S
H957 N950 0.984 . S
H958 N946 0.984 . S
H959 N946 0.985 . S
C960 C961 1.363 . S
C960 C966 1.379 . S
C960 N968 1.356 . S
C961 C960 1.363 . S
C961 C967 1.363 1_545 S
C962 C963 1.363 1_565 S
C962 C967 1.379 . S
C962 N969 1.356 . S
C963 C962 1.363 1_545 S
C963 C966 1.363 . S
N964 C966 1.356 . S
N964 H976 0.984 . S
N964 H977 0.985 . S
N965 C967 1.356 . S
N965 H970 0.984 . S
N965 H971 0.985 . S
C966 C960 1.379 . S
C966 C963 1.363 . S
C966 N964 1.356 . S
C967 C961 1.363 1_565 S
C967 C962 1.379 . S
C967 N965 1.356 . S
N968 C960 1.356 . S
N968 H974 0.984 . S
N968 H975 0.984 . S
N969 C962 1.356 . S
N969 H972 0.984 . S
N969 H973 0.985 . S
H970 N965 0.984 . S
H971 N965 0.985 . S
H972 N969 0.984 . S
H973 N969 0.985 . S
H974 N968 0.984 . S
H975 N968 0.984 . S
H976 N964 0.984 . S
H977 N964 0.985 . S
C978 C979 1.363 . S
C978 C984 1.379 . S
C978 N986 1.356 . S
C979 C978 1.363 . S
C979 C985 1.363 . S
C980 C981 1.363 . S
C980 C985 1.379 . S
C980 N987 1.356 . S
C981 C980 1.363 . S
C981 C984 1.363 . S
N982 C984 1.356 . S
N982 H994 0.984 . S
N982 H995 0.985 . S
N983 C985 1.356 . S
N983 H988 0.984 . S
N983 H989 0.985 . S
C984 C978 1.379 . S
C984 C981 1.363 . S
C984 N982 1.356 . S
C985 C979 1.363 . S
C985 C980 1.379 . S
C985 N983 1.356 . S
N986 C978 1.356 . S
N986 H992 0.984 . S
N986 H993 0.984 . S
N987 C980 1.356 . S
N987 H990 0.984 . S
N987 H991 0.985 . S
H988 N983 0.984 . S
H989 N983 0.985 . S
H990 N987 0.984 . S
H991 N987 0.985 . S
H992 N986 0.984 . S
H993 N986 0.984 . S
H994 N982 0.984 . S
H995 N982 0.985 . S
C996 C997 1.363 . S
C996 C1002 1.379 . S
C996 N1004 1.356 . S
C997 C996 1.363 . S
C997 C1003 1.363 . S
C998 C999 1.363 . S
C998 C1003 1.379 . S
C998 N1005 1.356 . S
C999 C998 1.363 . S
C999 C1002 1.363 . S
N1000 C1002 1.356 . S
N1000 H1012 0.984 . S
N1000 H1013 0.985 . S
N1001 C1003 1.356 . S
N1001 H1006 0.984 . S
N1001 H1007 0.985 . S
C1002 C996 1.379 . S
C1002 C999 1.363 . S
C1002 N1000 1.356 . S
C1003 C997 1.363 . S
C1003 C998 1.379 . S
C1003 N1001 1.356 . S
N1004 C996 1.356 . S
N1004 H1010 0.984 . S
N1004 H1011 0.984 . S
N1005 C998 1.356 . S
N1005 H1008 0.984 . S
N1005 H1009 0.985 . S
H1006 N1001 0.984 . S
H1007 N1001 0.985 . S
H1008 N1005 0.984 . S
H1009 N1005 0.985 . S
H1010 N1004 0.984 . S
H1011 N1004 0.984 . S
H1012 N1000 0.984 . S
H1013 N1000 0.985 . S
C1014 C1015 1.363 . S
C1014 C1020 1.379 . S
C1014 N1022 1.356 . S
C1015 C1014 1.363 . S
C1015 C1021 1.363 . S
C1016 C1017 1.363 . S
C1016 C1021 1.379 . S
C1016 N1023 1.356 . S
C1017 C1016 1.363 . S
C1017 C1020 1.363 . S
N1018 C1020 1.356 . S
N1018 H1030 0.984 . S
N1018 H1031 0.985 . S
N1019 C1021 1.356 . S
N1019 H1024 0.984 . S
N1019 H1025 0.985 . S
C1020 C1014 1.379 . S
C1020 C1017 1.363 . S
C1020 N1018 1.356 . S
C1021 C1015 1.363 . S
C1021 C1016 1.379 . S
C1021 N1019 1.356 . S
N1022 C1014 1.356 . S
N1022 H1028 0.984 . S
N1022 H1029 0.984 . S
N1023 C1016 1.356 . S
N1023 H1026 0.984 . S
N1023 H1027 0.985 . S
H1024 N1019 0.984 . S
H1025 N1019 0.985 . S
H1026 N1023 0.984 . S
H1027 N1023 0.985 . S
H1028 N1022 0.984 . S
H1029 N1022 0.984 . S
H1030 N1018 0.984 . S
H1031 N1018 0.985 . S
C1032 C1033 1.363 . S
C1032 C1038 1.379 . S
C1032 N1040 1.356 . S
C1033 C1032 1.363 . S
C1033 C1039 1.363 1_545 S
C1034 C1035 1.363 . S
C1034 C1039 1.379 1_545 S
C1034 N1041 1.356 . S
C1035 C1034 1.363 . S
C1035 C1038 1.363 . S
N1036 C1038 1.356 . S
N1036 H1048 0.984 . S
N1036 H1049 0.985 . S
N1037 C1039 1.356 . S
N1037 H1042 0.984 . S
N1037 H1043 0.985 . S
C1038 C1032 1.379 . S
C1038 C1035 1.363 . S
C1038 N1036 1.356 . S
C1039 C1033 1.363 1_565 S
C1039 C1034 1.379 1_565 S
C1039 N1037 1.356 . S
N1040 C1032 1.356 . S
N1040 H1046 0.984 . S
N1040 H1047 0.984 . S
N1041 C1034 1.356 . S
N1041 H1044 0.984 . S
N1041 H1045 0.985 1_545 S
H1042 N1037 0.984 . S
H1043 N1037 0.985 . S
H1044 N1041 0.984 . S
H1045 N1041 0.985 1_565 S
H1046 N1040 0.984 . S
H1047 N1040 0.984 . S
H1048 N1036 0.984 . S
H1049 N1036 0.985 . S
C1050 C1051 1.363 . S
C1050 C1056 1.379 . S
C1050 N1058 1.356 . S
C1051 C1050 1.363 . S
C1051 C1057 1.363 . S
C1052 C1053 1.363 . S
C1052 C1057 1.379 . S
C1052 N1059 1.356 . S
C1053 C1052 1.363 . S
C1053 C1056 1.363 . S
N1054 C1056 1.356 . S
N1054 H1066 0.984 . S
N1054 H1067 0.985 . S
N1055 C1057 1.356 . S
N1055 H1060 0.984 . S
N1055 H1061 0.985 . S
C1056 C1050 1.379 . S
C1056 C1053 1.363 . S
C1056 N1054 1.356 . S
C1057 C1051 1.363 . S
C1057 C1052 1.379 . S
C1057 N1055 1.356 . S
N1058 C1050 1.356 . S
N1058 H1064 0.984 . S
N1058 H1065 0.984 . S
N1059 C1052 1.356 . S
N1059 H1062 0.984 . S
N1059 H1063 0.985 . S
H1060 N1055 0.984 . S
H1061 N1055 0.985 . S
H1062 N1059 0.984 . S
H1063 N1059 0.985 . S
H1064 N1058 0.984 . S
H1065 N1058 0.984 . S
H1066 N1054 0.984 . S
H1067 N1054 0.985 . S
C1068 C1069 1.363 . S
C1068 C1074 1.379 . S
C1068 N1076 1.356 . S
C1069 C1068 1.363 . S
C1069 C1075 1.363 . S
C1070 C1071 1.363 . S
C1070 C1075 1.379 . S
C1070 N1077 1.356 . S
C1071 C1070 1.363 . S
C1071 C1074 1.363 . S
N1072 C1074 1.356 1_565 S
N1072 H1084 0.984 . S
N1072 H1085 0.985 . S
N1073 C1075 1.356 . S
N1073 H1078 0.984 . S
N1073 H1079 0.985 . S
C1074 C1068 1.379 . S
C1074 C1071 1.363 . S
C1074 N1072 1.356 1_545 S
C1075 C1069 1.363 . S
C1075 C1070 1.379 . S
C1075 N1073 1.356 . S
N1076 C1068 1.356 . S
N1076 H1082 0.984 1_545 S
N1076 H1083 0.984 . S
N1077 C1070 1.356 . S
N1077 H1080 0.984 . S
N1077 H1081 0.985 . S
H1078 N1073 0.984 . S
H1079 N1073 0.985 . S
H1080 N1077 0.984 . S
H1081 N1077 0.985 . S
H1082 N1076 0.984 1_565 S
H1083 N1076 0.984 . S
H1084 N1072 0.984 . S
H1085 N1072 0.985 . S
C1086 C1087 1.363 . S
C1086 C1092 1.379 . S
C1086 N1094 1.356 . S
C1087 C1086 1.363 . S
C1087 C1093 1.363 . S
C1088 C1089 1.363 . S
C1088 C1093 1.379 . S
C1088 N1095 1.356 . S
C1089 C1088 1.363 . S
C1089 C1092 1.363 . S
N1090 C1092 1.356 . S
N1090 H1102 0.984 . S
N1090 H1103 0.985 . S
N1091 C1093 1.356 . S
N1091 H1096 0.984 . S
N1091 H1097 0.985 . S
C1092 C1086 1.379 . S
C1092 C1089 1.363 . S
C1092 N1090 1.356 . S
C1093 C1087 1.363 . S
C1093 C1088 1.379 . S
C1093 N1091 1.356 . S
N1094 C1086 1.356 . S
N1094 H1100 0.984 . S
N1094 H1101 0.984 . S
N1095 C1088 1.356 . S
N1095 H1098 0.984 . S
N1095 H1099 0.985 . S
H1096 N1091 0.984 . S
H1097 N1091 0.985 . S
H1098 N1095 0.984 . S
H1099 N1095 0.985 . S
H1100 N1094 0.984 . S
H1101 N1094 0.984 . S
H1102 N1090 0.984 . S
H1103 N1090 0.985 . S
C1104 C1105 1.363 . S
C1104 C1110 1.379 . S
C1104 N1112 1.356 . S
C1105 C1104 1.363 . S
C1105 C1111 1.363 . S
C1106 C1107 1.363 . S
C1106 C1111 1.379 . S
C1106 N1113 1.356 . S
C1107 C1106 1.363 . S
C1107 C1110 1.363 . S
N1108 C1110 1.354 1_556 S
N1108 H1120 0.986 . S
N1108 H1121 0.985 . S
N1109 C1111 1.356 . S
N1109 H1114 0.984 . S
N1109 H1115 0.985 . S
C1110 C1104 1.379 . S
C1110 C1107 1.363 . S
C1110 N1108 1.354 1_554 S
C1111 C1105 1.363 . S
C1111 C1106 1.379 . S
C1111 N1109 1.356 . S
N1112 C1104 1.356 . S
N1112 H1118 0.981 1_554 S
N1112 H1119 0.984 . S
N1113 C1106 1.356 . S
N1113 H1116 0.984 . S
N1113 H1117 0.985 . S
H1114 N1109 0.984 . S
H1115 N1109 0.985 . S
H1116 N1113 0.984 . S
H1117 N1113 0.985 . S
H1118 N1112 0.981 1_556 S
H1119 N1112 0.984 . S
H1120 N1108 0.986 . S
H1121 N1108 0.985 . S
C1122 C1123 1.363 . S
C1122 C1128 1.379 . S
C1122 N1130 1.356 . S
C1123 C1122 1.363 . S
C1123 C1129 1.363 . S
C1124 C1125 1.363 . S
C1124 C1129 1.379 . S
C1124 N1131 1.356 . S
C1125 C1124 1.363 . S
C1125 C1128 1.363 . S
N1126 C1128 1.356 . S
N1126 H1138 0.984 . S
N1126 H1139 0.985 . S
N1127 C1129 1.356 . S
N1127 H1132 0.984 . S
N1127 H1133 0.985 . S
C1128 C1122 1.379 . S
C1128 C1125 1.363 . S
C1128 N1126 1.356 . S
C1129 C1123 1.363 . S
C1129 C1124 1.379 . S
C1129 N1127 1.356 . S
N1130 C1122 1.356 . S
N1130 H1136 0.984 . S
N1130 H1137 0.984 . S
N1131 C1124 1.356 . S
N1131 H1134 0.984 . S
N1131 H1135 0.985 . S
H1132 N1127 0.984 . S
H1133 N1127 0.985 . S
H1134 N1131 0.984 . S
H1135 N1131 0.985 . S
H1136 N1130 0.984 . S
H1137 N1130 0.984 . S
H1138 N1126 0.984 . S
H1139 N1126 0.985 . S
C1140 C1141 1.363 . S
C1140 C1146 1.379 . S
C1140 N1148 1.356 . S
C1141 C1140 1.363 . S
C1141 C1147 1.363 . S
C1142 C1143 1.363 . S
C1142 C1147 1.379 . S
C1142 N1149 1.356 . S
C1143 C1142 1.363 . S
C1143 C1146 1.363 . S
N1144 C1146 1.356 . S
N1144 H1156 0.984 . S
N1144 H1157 0.985 . S
N1145 C1147 1.356 . S
N1145 H1150 0.984 . S
N1145 H1151 0.985 . S
C1146 C1140 1.379 . S
C1146 C1143 1.363 . S
C1146 N1144 1.356 . S
C1147 C1141 1.363 . S
C1147 C1142 1.379 . S
C1147 N1145 1.356 . S
N1148 C1140 1.356 . S
N1148 H1154 0.984 . S
N1148 H1155 0.984 . S
N1149 C1142 1.356 . S
N1149 H1152 0.984 . S
N1149 H1153 0.985 . S
H1150 N1145 0.984 . S
H1151 N1145 0.985 . S
H1152 N1149 0.984 . S
H1153 N1149 0.985 . S
H1154 N1148 0.984 . S
H1155 N1148 0.984 . S
H1156 N1144 0.984 . S
H1157 N1144 0.985 . S
C1158 C1159 1.363 . S
C1158 C1164 1.379 . S
C1158 N1166 1.356 . S
C1159 C1158 1.363 . S
C1159 C1165 1.363 . S
C1160 C1161 1.363 . S
C1160 C1165 1.379 . S
C1160 N1167 1.356 . S
C1161 C1160 1.363 . S
C1161 C1164 1.363 . S
N1162 C1164 1.356 . S
N1162 H1174 0.984 . S
N1162 H1175 0.985 . S
N1163 C1165 1.356 . S
N1163 H1168 0.984 . S
N1163 H1169 0.985 . S
C1164 C1158 1.379 . S
C1164 C1161 1.363 . S
C1164 N1162 1.356 . S
C1165 C1159 1.363 . S
C1165 C1160 1.379 . S
C1165 N1163 1.356 . S
N1166 C1158 1.356 . S
N1166 H1172 0.984 . S
N1166 H1173 0.984 . S
N1167 C1160 1.356 . S
N1167 H1170 0.984 . S
N1167 H1171 0.985 . S
H1168 N1163 0.984 . S
H1169 N1163 0.985 . S
H1170 N1167 0.984 . S
H1171 N1167 0.985 . S
H1172 N1166 0.984 . S
H1173 N1166 0.984 . S
H1174 N1162 0.984 . S
H1175 N1162 0.985 . S
C1176 C1177 1.363 . S
C1176 C1182 1.379 . S
C1176 N1184 1.356 . S
C1177 C1176 1.363 . S
C1177 C1183 1.363 . S
C1178 C1179 1.363 . S
C1178 C1183 1.379 . S
C1178 N1185 1.356 . S
C1179 C1178 1.363 . S
C1179 C1182 1.363 . S
N1180 C1182 1.356 . S
N1180 H1192 0.984 . S
N1180 H1193 0.985 . S
N1181 C1183 1.356 . S
N1181 H1186 0.984 . S
N1181 H1187 0.985 . S
C1182 C1176 1.379 . S
C1182 C1179 1.363 . S
C1182 N1180 1.356 . S
C1183 C1177 1.363 . S
C1183 C1178 1.379 . S
C1183 N1181 1.356 . S
N1184 C1176 1.356 . S
N1184 H1190 0.984 . S
N1184 H1191 0.984 . S
N1185 C1178 1.356 . S
N1185 H1188 0.984 . S
N1185 H1189 0.985 . S
H1186 N1181 0.984 . S
H1187 N1181 0.985 . S
H1188 N1185 0.984 . S
H1189 N1185 0.985 . S
H1190 N1184 0.984 . S
H1191 N1184 0.984 . S
H1192 N1180 0.984 . S
H1193 N1180 0.985 . S
C1194 C1195 1.363 . S
C1194 C1200 1.379 . S
C1194 N1202 1.356 . S
C1195 C1194 1.363 . S
C1195 C1201 1.363 . S
C1196 C1197 1.363 1_545 S
C1196 C1201 1.379 1_545 S
C1196 N1203 1.356 . S
C1197 C1196 1.363 1_565 S
C1197 C1200 1.363 . S
N1198 C1200 1.356 . S
N1198 H1210 0.984 . S
N1198 H1211 0.985 . S
N1199 C1201 1.356 . S
N1199 H1204 0.984 . S
N1199 H1205 0.985 1_565 S
C1200 C1194 1.379 . S
C1200 C1197 1.363 . S
C1200 N1198 1.356 . S
C1201 C1195 1.363 . S
C1201 C1196 1.379 1_565 S
C1201 N1199 1.356 . S
N1202 C1194 1.356 . S
N1202 H1208 0.984 . S
N1202 H1209 0.984 . S
N1203 C1196 1.356 . S
N1203 H1206 0.984 . S
N1203 H1207 0.985 . S
H1204 N1199 0.984 . S
H1205 N1199 0.985 1_545 S
H1206 N1203 0.984 . S
H1207 N1203 0.985 . S
H1208 N1202 0.984 . S
H1209 N1202 0.984 . S
H1210 N1198 0.984 . S
H1211 N1198 0.985 . S
C1212 C1213 1.363 . S
C1212 C1218 1.379 . S
C1212 N1220 1.356 . S
C1213 C1212 1.363 . S
C1213 C1219 1.363 . S
C1214 C1215 1.363 . S
C1214 C1219 1.379 . S
C1214 N1221 1.356 . S
C1215 C1214 1.363 . S
C1215 C1218 1.363 . S
N1216 C1218 1.356 . S
N1216 H1228 0.984 . S
N1216 H1229 0.985 . S
N1217 C1219 1.356 . S
N1217 H1222 0.984 . S
N1217 H1223 0.985 . S
C1218 C1212 1.379 . S
C1218 C1215 1.363 . S
C1218 N1216 1.356 . S
C1219 C1213 1.363 . S
C1219 C1214 1.379 . S
C1219 N1217 1.356 . S
N1220 C1212 1.356 . S
N1220 H1226 0.984 . S
N1220 H1227 0.984 . S
N1221 C1214 1.356 . S
N1221 H1224 0.984 . S
N1221 H1225 0.985 . S
H1222 N1217 0.984 . S
H1223 N1217 0.985 . S
H1224 N1221 0.984 . S
H1225 N1221 0.985 . S
H1226 N1220 0.984 . S
H1227 N1220 0.984 . S
H1228 N1216 0.984 . S
H1229 N1216 0.985 . S
C1230 C1231 1.363 . S
C1230 C1236 1.379 . S
C1230 N1238 1.356 . S
C1231 C1230 1.363 . S
C1231 C1237 1.363 . S
C1232 C1233 1.363 . S
C1232 C1237 1.379 . S
C1232 N1239 1.356 . S
C1233 C1232 1.363 . S
C1233 C1236 1.363 . S
N1234 C1236 1.356 . S
N1234 H1246 0.984 . S
N1234 H1247 0.985 . S
N1235 C1237 1.356 . S
N1235 H1240 0.984 . S
N1235 H1241 0.985 . S
C1236 C1230 1.379 . S
C1236 C1233 1.363 . S
C1236 N1234 1.356 . S
C1237 C1231 1.363 . S
C1237 C1232 1.379 . S
C1237 N1235 1.356 . S
N1238 C1230 1.356 . S
N1238 H1244 0.984 . S
N1238 H1245 0.984 . S
N1239 C1232 1.356 . S
N1239 H1242 0.984 . S
N1239 H1243 0.985 . S
H1240 N1235 0.984 . S
H1241 N1235 0.985 . S
H1242 N1239 0.984 . S
H1243 N1239 0.985 . S
H1244 N1238 0.984 . S
H1245 N1238 0.984 . S
H1246 N1234 0.984 . S
H1247 N1234 0.985 . S
C1248 C1249 1.363 . S
C1248 C1254 1.379 . S
C1248 N1256 1.356 . S
C1249 C1248 1.363 . S
C1249 C1255 1.363 . S
C1250 C1251 1.363 1_554 S
C1250 C1255 1.379 1_554 S
C1250 N1257 1.356 . S
C1251 C1250 1.363 1_556 S
C1251 C1254 1.363 . S
N1252 C1254 1.356 . S
N1252 H1264 0.984 . S
N1252 H1265 0.985 . S
N1253 C1255 1.366 1_554 S
N1253 H1258 0.984 1_554 S
N1253 H1259 0.975 1_455 S
C1254 C1248 1.379 . S
C1254 C1251 1.363 . S
C1254 N1252 1.356 . S
C1255 C1249 1.363 . S
C1255 C1250 1.379 1_556 S
C1255 N1253 1.366 1_556 S
N1256 C1248 1.356 . S
N1256 H1262 0.984 . S
N1256 H1263 0.984 . S
N1257 C1250 1.356 . S
N1257 H1260 0.984 . S
N1257 H1261 0.985 . S
H1258 N1253 0.984 1_556 S
H1259 N1253 0.975 1_655 S
H1260 N1257 0.984 . S
H1261 N1257 0.985 . S
H1262 N1256 0.984 . S
H1263 N1256 0.984 . S
H1264 N1252 0.984 . S
H1265 N1252 0.985 . S
C1266 C1267 1.363 . S
C1266 C1272 1.379 . S
C1266 N1274 1.356 . S
C1267 C1266 1.363 . S
C1267 C1273 1.363 . S
C1268 C1269 1.363 . S
C1268 C1273 1.379 . S
C1268 N1275 1.356 . S
C1269 C1268 1.363 . S
C1269 C1272 1.363 . S
N1270 C1272 1.356 . S
N1270 H1282 0.984 . S
N1270 H1283 0.985 . S
N1271 C1273 1.356 . S
N1271 H1276 0.984 . S
N1271 H1277 0.985 . S
C1272 C1266 1.379 . S
C1272 C1269 1.363 . S
C1272 N1270 1.356 . S
C1273 C1267 1.363 . S
C1273 C1268 1.379 . S
C1273 N1271 1.356 . S
N1274 C1266 1.356 . S
N1274 H1280 0.984 . S
N1274 H1281 0.984 . S
N1275 C1268 1.356 . S
N1275 H1278 0.984 . S
N1275 H1279 0.985 . S
H1276 N1271 0.984 . S
H1277 N1271 0.985 . S
H1278 N1275 0.984 . S
H1279 N1275 0.985 . S
H1280 N1274 0.984 . S
H1281 N1274 0.984 . S
H1282 N1270 0.984 . S
H1283 N1270 0.985 . S
C1284 C1285 1.363 . S
C1284 C1290 1.379 . S
C1284 N1292 1.356 . S
C1285 C1284 1.363 . S
C1285 C1291 1.363 . S
C1286 C1287 1.363 . S
C1286 C1291 1.379 . S
C1286 N1293 1.356 . S
C1287 C1286 1.363 . S
C1287 C1290 1.363 . S
N1288 C1290 1.356 . S
N1288 H1300 0.984 . S
N1288 H1301 0.985 . S
N1289 C1291 1.356 . S
N1289 H1294 0.984 . S
N1289 H1295 0.985 . S
C1290 C1284 1.379 . S
C1290 C1287 1.363 . S
C1290 N1288 1.356 . S
C1291 C1285 1.363 . S
C1291 C1286 1.379 . S
C1291 N1289 1.356 . S
N1292 C1284 1.356 . S
N1292 H1298 0.984 . S
N1292 H1299 0.984 . S
N1293 C1286 1.356 . S
N1293 H1296 0.984 . S
N1293 H1297 0.985 . S
H1294 N1289 0.984 . S
H1295 N1289 0.985 . S
H1296 N1293 0.984 . S
H1297 N1293 0.985 . S
H1298 N1292 0.984 . S
H1299 N1292 0.984 . S
H1300 N1288 0.984 . S
H1301 N1288 0.985 . S
C1302 C1303 1.363 . S
C1302 C1308 1.379 . S
C1302 N1310 1.356 . S
C1303 C1302 1.363 . S
C1303 C1309 1.363 . S
C1304 C1305 1.363 . S
C1304 C1309 1.379 . S
C1304 N1311 1.356 . S
C1305 C1304 1.363 . S
C1305 C1308 1.363 . S
N1306 C1308 1.356 . S
N1306 H1318 0.984 . S
N1306 H1319 0.985 . S
N1307 C1309 1.356 . S
N1307 H1312 0.984 . S
N1307 H1313 0.985 . S
C1308 C1302 1.379 . S
C1308 C1305 1.363 . S
C1308 N1306 1.356 . S
C1309 C1303 1.363 . S
C1309 C1304 1.379 . S
C1309 N1307 1.356 . S
N1310 C1302 1.356 . S
N1310 H1316 0.984 . S
N1310 H1317 0.984 . S
N1311 C1304 1.356 . S
N1311 H1314 0.984 . S
N1311 H1315 0.985 . S
H1312 N1307 0.984 . S
H1313 N1307 0.985 . S
H1314 N1311 0.984 . S
H1315 N1311 0.985 . S
H1316 N1310 0.984 . S
H1317 N1310 0.984 . S
H1318 N1306 0.984 . S
H1319 N1306 0.985 . S
C1320 C1321 1.363 . S
C1320 C1326 1.379 . S
C1320 N1328 1.356 . S
C1321 C1320 1.363 . S
C1321 C1327 1.363 . S
C1322 C1323 1.363 . S
C1322 C1327 1.379 . S
C1322 N1329 1.356 . S
C1323 C1322 1.363 . S
C1323 C1326 1.363 . S
N1324 C1326 1.356 . S
N1324 H1336 0.984 . S
N1324 H1337 0.985 . S
N1325 C1327 1.356 1_655 S
N1325 H1330 0.984 . S
N1325 H1331 0.985 . S
C1326 C1320 1.379 . S
C1326 C1323 1.363 . S
C1326 N1324 1.356 . S
C1327 C1321 1.363 . S
C1327 C1322 1.379 . S
C1327 N1325 1.356 1_455 S
N1328 C1320 1.356 . S
N1328 H1334 0.984 . S
N1328 H1335 0.984 . S
N1329 C1322 1.356 . S
N1329 H1332 0.984 . S
N1329 H1333 0.985 . S
H1330 N1325 0.984 . S
H1331 N1325 0.985 . S
H1332 N1329 0.984 . S
H1333 N1329 0.985 . S
H1334 N1328 0.984 . S
H1335 N1328 0.984 . S
H1336 N1324 0.984 . S
H1337 N1324 0.985 . S
C1338 C1339 1.363 . S
C1338 C1344 1.379 . S
C1338 N1346 1.356 . S
C1339 C1338 1.363 . S
C1339 C1345 1.363 . S
C1340 C1341 1.363 . S
C1340 C1345 1.379 . S
C1340 N1347 1.356 . S
C1341 C1340 1.363 . S
C1341 C1344 1.363 . S
N1342 C1344 1.356 . S
N1342 H1354 0.984 . S
N1342 H1355 0.985 . S
N1343 C1345 1.356 . S
N1343 H1348 0.984 . S
N1343 H1349 0.985 . S
C1344 C1338 1.379 . S
C1344 C1341 1.363 . S
C1344 N1342 1.356 . S
C1345 C1339 1.363 . S
C1345 C1340 1.379 . S
C1345 N1343 1.356 . S
N1346 C1338 1.356 . S
N1346 H1352 0.984 . S
N1346 H1353 0.984 . S
N1347 C1340 1.356 . S
N1347 H1350 0.984 . S
N1347 H1351 0.985 . S
H1348 N1343 0.984 . S
H1349 N1343 0.985 . S
H1350 N1347 0.984 . S
H1351 N1347 0.985 . S
H1352 N1346 0.984 . S
H1353 N1346 0.984 . S
H1354 N1342 0.984 . S
H1355 N1342 0.985 . S
C1356 C1357 1.363 . S
C1356 C1362 1.379 . S
C1356 N1364 1.356 . S
C1357 C1356 1.363 . S
C1357 C1363 1.363 . S
C1358 C1359 1.363 . S
C1358 C1363 1.379 . S
C1358 N1365 1.356 . S
C1359 C1358 1.363 . S
C1359 C1362 1.363 . S
N1360 C1362 1.356 . S
N1360 H1372 0.984 . S
N1360 H1373 0.985 . S
N1361 C1363 1.356 . S
N1361 H1366 0.984 . S
N1361 H1367 0.985 . S
C1362 C1356 1.379 . S
C1362 C1359 1.363 . S
C1362 N1360 1.356 . S
C1363 C1357 1.363 . S
C1363 C1358 1.379 . S
C1363 N1361 1.356 . S
N1364 C1356 1.356 . S
N1364 H1370 0.984 . S
N1364 H1371 0.984 . S
N1365 C1358 1.356 . S
N1365 H1368 0.967 1_565 S
N1365 H1369 0.985 . S
H1366 N1361 0.984 . S
H1367 N1361 0.985 . S
H1368 N1365 0.967 1_545 S
H1369 N1365 0.985 . S
H1370 N1364 0.984 . S
H1371 N1364 0.984 . S
H1372 N1360 0.984 . S
H1373 N1360 0.985 . S
C1374 C1375 1.363 . S
C1374 C1380 1.379 . S
C1374 N1382 1.356 . S
C1375 C1374 1.363 . S
C1375 C1381 1.363 . S
C1376 C1377 1.363 . S
C1376 C1381 1.379 . S
C1376 N1383 1.356 . S
C1377 C1376 1.363 . S
C1377 C1380 1.363 . S
N1378 C1380 1.356 . S
N1378 H1390 0.984 . S
N1378 H1391 0.985 . S
N1379 C1381 1.356 . S
N1379 H1384 0.984 . S
N1379 H1385 0.985 . S
C1380 C1374 1.379 . S
C1380 C1377 1.363 . S
C1380 N1378 1.356 . S
C1381 C1375 1.363 . S
C1381 C1376 1.379 . S
C1381 N1379 1.356 . S
N1382 C1374 1.356 . S
N1382 H1388 0.984 . S
N1382 H1389 0.984 . S
N1383 C1376 1.356 . S
N1383 H1386 0.984 . S
N1383 H1387 0.985 . S
H1384 N1379 0.984 . S
H1385 N1379 0.985 . S
H1386 N1383 0.984 . S
H1387 N1383 0.985 . S
H1388 N1382 0.984 . S
H1389 N1382 0.984 . S
H1390 N1378 0.984 . S
H1391 N1378 0.985 . S
C1392 C1393 1.363 . S
C1392 C1398 1.379 . S
C1392 N1400 1.356 . S
C1393 C1392 1.363 . S
C1393 C1399 1.363 . S
C1394 C1395 1.363 . S
C1394 C1399 1.379 . S
C1394 N1401 1.356 . S
C1395 C1394 1.363 . S
C1395 C1398 1.363 . S
N1396 C1398 1.356 1_455 S
N1396 H1408 0.984 . S
N1396 H1409 0.985 . S
N1397 C1399 1.356 . S
N1397 H1402 0.984 . S
N1397 H1403 0.985 . S
C1398 C1392 1.379 . S
C1398 C1395 1.363 . S
C1398 N1396 1.356 1_655 S
C1399 C1393 1.363 . S
C1399 C1394 1.379 . S
C1399 N1397 1.356 . S
N1400 C1392 1.356 . S
N1400 H1406 0.984 . S
N1400 H1407 0.984 . S
N1401 C1394 1.356 . S
N1401 H1404 0.984 . S
N1401 H1405 0.985 . S
H1402 N1397 0.984 . S
H1403 N1397 0.985 . S
H1404 N1401 0.984 . S
H1405 N1401 0.985 . S
H1406 N1400 0.984 . S
H1407 N1400 0.984 . S
H1408 N1396 0.984 . S
H1409 N1396 0.985 . S
C1410 C1411 1.363 . S
C1410 C1416 1.379 . S
C1410 N1418 1.356 . S
C1411 C1410 1.363 . S
C1411 C1417 1.363 . S
C1412 C1413 1.363 . S
C1412 C1417 1.379 . S
C1412 N1419 1.356 . S
C1413 C1412 1.363 . S
C1413 C1416 1.363 . S
N1414 C1416 1.356 . S
N1414 H1426 0.984 . S
N1414 H1427 0.985 . S
N1415 C1417 1.356 . S
N1415 H1420 0.984 . S
N1415 H1421 0.985 . S
C1416 C1410 1.379 . S
C1416 C1413 1.363 . S
C1416 N1414 1.356 . S
C1417 C1411 1.363 . S
C1417 C1412 1.379 . S
C1417 N1415 1.356 . S
N1418 C1410 1.356 . S
N1418 H1424 0.984 . S
N1418 H1425 0.984 . S
N1419 C1412 1.356 . S
N1419 H1422 0.984 . S
N1419 H1423 0.985 . S
H1420 N1415 0.984 . S
H1421 N1415 0.985 . S
H1422 N1419 0.984 . S
H1423 N1419 0.985 . S
H1424 N1418 0.984 . S
H1425 N1418 0.984 . S
H1426 N1414 0.984 . S
H1427 N1414 0.985 . S
C1428 C1429 1.363 1_565 S
C1428 C1434 1.379 . S
C1428 N1436 1.356 . S
C1429 C1428 1.363 1_545 S
C1429 C1435 1.363 . S
C1430 C1431 1.363 . S
C1430 C1435 1.379 . S
C1430 N1437 1.356 . S
C1431 C1430 1.363 . S
C1431 C1434 1.363 1_545 S
N1432 C1434 1.356 . S
N1432 H1444 0.984 . S
N1432 H1445 0.985 . S
N1433 C1435 1.356 . S
N1433 H1438 0.984 . S
N1433 H1439 0.985 . S
C1434 C1428 1.379 . S
C1434 C1431 1.363 1_565 S
C1434 N1432 1.356 . S
C1435 C1429 1.363 . S
C1435 C1430 1.379 . S
C1435 N1433 1.356 . S
N1436 C1428 1.356 . S
N1436 H1442 0.984 . S
N1436 H1443 0.984 . S
N1437 C1430 1.356 . S
N1437 H1440 0.984 . S
N1437 H1441 0.985 . S
H1438 N1433 0.984 . S
H1439 N1433 0.985 . S
H1440 N1437 0.984 . S
H1441 N1437 0.985 . S
H1442 N1436 0.984 . S
H1443 N1436 0.984 . S
H1444 N1432 0.984 . S
H1445 N1432 0.985 . S
C1446 C1447 1.363 . S
C1446 C1452 1.379 . S
C1446 N1454 1.356 . S
C1447 C1446 1.363 . S
C1447 C1453 1.363 . S
C1448 C1449 1.363 . S
C1448 C1453 1.379 . S
C1448 N1455 1.356 . S
C1449 C1448 1.363 . S
C1449 C1452 1.363 . S
N1450 C1452 1.356 . S
N1450 H1462 0.984 . S
N1450 H1463 0.985 . S
N1451 C1453 1.356 . S
N1451 H1456 0.984 . S
N1451 H1457 0.985 . S
C1452 C1446 1.379 . S
C1452 C1449 1.363 . S
C1452 N1450 1.356 . S
C1453 C1447 1.363 . S
C1453 C1448 1.379 . S
C1453 N1451 1.356 . S
N1454 C1446 1.356 . S
N1454 H1460 0.984 . S
N1454 H1461 0.984 . S
N1455 C1448 1.356 . S
N1455 H1458 0.984 . S
N1455 H1459 0.985 . S
H1456 N1451 0.984 . S
H1457 N1451 0.985 . S
H1458 N1455 0.984 . S
H1459 N1455 0.985 . S
H1460 N1454 0.984 . S
H1461 N1454 0.984 . S
H1462 N1450 0.984 . S
H1463 N1450 0.985 . S
C1464 C1465 1.363 . S
C1464 C1470 1.379 . S
C1464 N1472 1.356 . S
C1465 C1464 1.363 . S
C1465 C1471 1.363 . S
C1466 C1467 1.363 . S
C1466 C1471 1.379 . S
C1466 N1473 1.356 1_645 S
C1467 C1466 1.363 . S
C1467 C1470 1.363 . S
N1468 C1470 1.356 . S
N1468 H1480 0.984 . S
N1468 H1481 0.985 . S
N1469 C1471 1.356 . S
N1469 H1474 0.984 . S
N1469 H1475 0.985 . S
C1470 C1464 1.379 . S
C1470 C1467 1.363 . S
C1470 N1468 1.356 . S
C1471 C1465 1.363 . S
C1471 C1466 1.379 . S
C1471 N1469 1.356 . S
N1472 C1464 1.356 . S
N1472 H1478 0.984 . S
N1472 H1479 0.984 . S
N1473 C1466 1.356 1_465 S
N1473 H1476 0.984 . S
N1473 H1477 0.985 . S
H1474 N1469 0.984 . S
H1475 N1469 0.985 . S
H1476 N1473 0.984 . S
H1477 N1473 0.985 . S
H1478 N1472 0.984 . S
H1479 N1472 0.984 . S
H1480 N1468 0.984 . S
H1481 N1468 0.985 . S
C1482 C1483 1.363 . S
C1482 C1488 1.379 . S
C1482 N1490 1.356 . S
C1483 C1482 1.363 . S
C1483 C1489 1.363 . S
C1484 C1485 1.363 . S
C1484 C1489 1.379 . S
C1484 N1491 1.356 . S
C1485 C1484 1.363 . S
C1485 C1488 1.363 . S
N1486 C1488 1.356 . S
N1486 H1498 0.984 . S
N1486 H1499 0.985 . S
N1487 C1489 1.356 . S
N1487 H1492 0.984 . S
N1487 H1493 0.985 . S
C1488 C1482 1.379 . S
C1488 C1485 1.363 . S
C1488 N1486 1.356 . S
C1489 C1483 1.363 . S
C1489 C1484 1.379 . S
C1489 N1487 1.356 . S
N1490 C1482 1.356 . S
N1490 H1496 0.984 . S
N1490 H1497 0.984 . S
N1491 C1484 1.356 . S
N1491 H1494 0.984 . S
N1491 H1495 0.985 . S
H1492 N1487 0.984 . S
H1493 N1487 0.985 . S
H1494 N1491 0.984 . S
H1495 N1491 0.985 . S
H1496 N1490 0.984 . S
H1497 N1490 0.984 . S
H1498 N1486 0.984 . S
H1499 N1486 0.985 . S
C1500 C1501 1.363 . S
C1500 C1506 1.379 . S
C1500 N1508 1.346 1_545 S
C1501 C1500 1.363 . S
C1501 C1507 1.363 . S
C1502 C1503 1.363 . S
C1502 C1507 1.379 . S
C1502 N1509 1.356 . S
C1503 C1502 1.363 . S
C1503 C1506 1.363 . S
N1504 C1506 1.356 . S
N1504 H1516 0.984 . S
N1504 H1517 0.985 . S
N1505 C1507 1.356 . S
N1505 H1510 0.984 . S
N1505 H1511 0.985 . S
C1506 C1500 1.379 . S
C1506 C1503 1.363 . S
C1506 N1504 1.356 . S
C1507 C1501 1.363 . S
C1507 C1502 1.379 . S
C1507 N1505 1.356 . S
N1508 C1500 1.346 1_565 S
N1508 H1514 0.987 . S
N1508 H1515 0.993 . S
N1509 C1502 1.356 . S
N1509 H1512 0.984 . S
N1509 H1513 0.985 . S
H1510 N1505 0.984 . S
H1511 N1505 0.985 . S
H1512 N1509 0.984 . S
H1513 N1509 0.985 . S
H1514 N1508 0.987 . S
H1515 N1508 0.993 . S
H1516 N1504 0.984 . S
H1517 N1504 0.985 . S
C1518 C1519 1.363 . S
C1518 C1524 1.379 . S
C1518 N1526 1.356 . S
C1519 C1518 1.363 . S
C1519 C1525 1.363 . S
C1520 C1521 1.363 . S
C1520 C1525 1.379 . S
C1520 N1527 1.356 . S
C1521 C1520 1.363 . S
C1521 C1524 1.363 . S
N1522 C1524 1.356 . S
N1522 H1534 0.984 . S
N1522 H1535 0.985 . S
N1523 C1525 1.356 . S
N1523 H1528 0.984 . S
N1523 H1529 0.985 . S
C1524 C1518 1.379 . S
C1524 C1521 1.363 . S
C1524 N1522 1.356 . S
C1525 C1519 1.363 . S
C1525 C1520 1.379 . S
C1525 N1523 1.356 . S
N1526 C1518 1.356 . S
N1526 H1532 0.984 . S
N1526 H1533 0.984 . S
N1527 C1520 1.356 . S
N1527 H1530 0.984 . S
N1527 H1531 0.985 . S
H1528 N1523 0.984 . S
H1529 N1523 0.985 . S
H1530 N1527 0.984 . S
H1531 N1527 0.985 . S
H1532 N1526 0.984 . S
H1533 N1526 0.984 . S
H1534 N1522 0.984 . S
H1535 N1522 0.985 . S
C1536 C1537 1.363 . S
C1536 C1542 1.379 . S
C1536 N1544 1.356 1_554 S
C1537 C1536 1.363 . S
C1537 C1543 1.363 . S
C1538 C1539 1.365 . S
C1538 C1543 1.379 . S
C1538 N1545 1.356 1_565 S
C1539 C1538 1.365 . S
C1539 C1542 1.366 . S
N1540 C1542 1.355 1_546 S
N1540 H1552 0.984 1_545 S
N1540 H1553 0.986 1_556 S
N1541 C1543 1.356 . S
N1541 H1546 0.984 . S
N1541 H1547 0.985 . S
C1542 C1536 1.379 . S
C1542 C1539 1.366 . S
C1542 N1540 1.355 1_564 S
C1543 C1537 1.363 . S
C1543 C1538 1.379 . S
C1543 N1541 1.356 . S
N1544 C1536 1.356 1_556 S
N1544 H1550 0.984 . S
N1544 H1551 0.984 . S
N1545 C1538 1.356 1_545 S
N1545 H1548 0.984 . S
N1545 H1549 0.985 . S
H1546 N1541 0.984 . S
H1547 N1541 0.985 . S
H1548 N1545 0.984 . S
H1549 N1545 0.985 . S
H1550 N1544 0.984 . S
H1551 N1544 0.984 . S
H1552 N1540 0.984 1_565 S
H1553 N1540 0.986 1_554 S
C1554 C1555 1.363 1_556 S
C1554 C1560 1.379 . S
C1554 N1562 1.356 . S
C1555 C1554 1.363 1_554 S
C1555 C1561 1.363 . S
C1556 C1557 1.363 . S
C1556 C1561 1.379 . S
C1556 N1563 1.356 . S
C1557 C1556 1.363 . S
C1557 C1560 1.363 1_554 S
N1558 C1560 1.356 . S
N1558 H1570 0.984 . S
N1558 H1571 0.985 . S
N1559 C1561 1.356 . S
N1559 H1564 0.984 . S
N1559 H1565 0.985 . S
C1560 C1554 1.379 . S
C1560 C1557 1.363 1_556 S
C1560 N1558 1.356 . S
C1561 C1555 1.363 . S
C1561 C1556 1.379 . S
C1561 N1559 1.356 . S
N1562 C1554 1.356 . S
N1562 H1568 0.984 . S
N1562 H1569 0.984 . S
N1563 C1556 1.356 . S
N1563 H1566 0.984 . S
N1563 H1567 0.985 . S
H1564 N1559 0.984 . S
H1565 N1559 0.985 . S
H1566 N1563 0.984 . S
H1567 N1563 0.985 . S
H1568 N1562 0.984 . S
H1569 N1562 0.984 . S
H1570 N1558 0.984 . S
H1571 N1558 0.985 . S
C1572 C1573 1.363 . S
C1572 C1578 1.379 . S
C1572 N1580 1.356 . S
C1573 C1572 1.363 . S
C1573 C1579 1.363 . S
C1574 C1575 1.363 . S
C1574 C1579 1.379 . S
C1574 N1581 1.356 . S
C1575 C1574 1.363 . S
C1575 C1578 1.363 . S
N1576 C1578 1.356 . S
N1576 H1588 0.984 . S
N1576 H1589 0.985 . S
N1577 C1579 1.356 . S
N1577 H1582 0.984 . S
N1577 H1583 0.985 . S
C1578 C1572 1.379 . S
C1578 C1575 1.363 . S
C1578 N1576 1.356 . S
C1579 C1573 1.363 . S
C1579 C1574 1.379 . S
C1579 N1577 1.356 . S
N1580 C1572 1.356 . S
N1580 H1586 0.984 . S
N1580 H1587 0.984 . S
N1581 C1574 1.356 . S
N1581 H1584 0.984 . S
N1581 H1585 0.985 . S
H1582 N1577 0.984 . S
H1583 N1577 0.985 . S
H1584 N1581 0.984 . S
H1585 N1581 0.985 . S
H1586 N1580 0.984 . S
H1587 N1580 0.984 . S
H1588 N1576 0.984 . S
H1589 N1576 0.985 . S
C1590 C1591 1.363 . S
C1590 C1596 1.379 . S
C1590 N1598 1.356 . S
C1591 C1590 1.363 . S
C1591 C1597 1.363 . S
C1592 C1593 1.363 . S
C1592 C1597 1.379 . S
C1592 N1599 1.356 . S
C1593 C1592 1.363 . S
C1593 C1596 1.363 . S
N1594 C1596 1.356 . S
N1594 H1606 0.984 . S
N1594 H1607 0.985 . S
N1595 C1597 1.356 . S
N1595 H1600 0.984 . S
N1595 H1601 0.985 . S
C1596 C1590 1.379 . S
C1596 C1593 1.363 . S
C1596 N1594 1.356 . S
C1597 C1591 1.363 . S
C1597 C1592 1.379 . S
C1597 N1595 1.356 . S
N1598 C1590 1.356 . S
N1598 H1604 0.984 . S
N1598 H1605 0.984 . S
N1599 C1592 1.356 . S
N1599 H1602 0.984 . S
N1599 H1603 0.985 . S
H1600 N1595 0.984 . S
H1601 N1595 0.985 . S
H1602 N1599 0.984 . S
H1603 N1599 0.985 . S
H1604 N1598 0.984 . S
H1605 N1598 0.984 . S
H1606 N1594 0.984 . S
H1607 N1594 0.985 . S
C1608 C1609 1.363 . S
C1608 C1614 1.379 . S
C1608 N1616 1.356 1_565 S
C1609 C1608 1.363 . S
C1609 C1615 1.363 . S
C1610 C1611 1.363 . S
C1610 C1615 1.379 . S
C1610 N1617 1.356 . S
C1611 C1610 1.363 . S
C1611 C1614 1.363 . S
N1612 C1614 1.356 . S
N1612 H1624 0.984 . S
N1612 H1625 0.985 . S
N1613 C1615 1.356 . S
N1613 H1618 0.984 . S
N1613 H1619 0.985 . S
C1614 C1608 1.379 . S
C1614 C1611 1.363 . S
C1614 N1612 1.356 . S
C1615 C1609 1.363 . S
C1615 C1610 1.379 . S
C1615 N1613 1.356 . S
N1616 C1608 1.356 1_545 S
N1616 H1622 0.984 . S
N1616 H1623 0.984 . S
N1617 C1610 1.356 . S
N1617 H1620 0.984 . S
N1617 H1621 0.985 . S
H1618 N1613 0.984 . S
H1619 N1613 0.985 . S
H1620 N1617 0.984 . S
H1621 N1617 0.985 . S
H1622 N1616 0.984 . S
H1623 N1616 0.984 . S
H1624 N1612 0.984 . S
H1625 N1612 0.985 . S
C1626 C1627 1.363 . S
C1626 C1632 1.379 . S
C1626 N1634 1.356 . S
C1627 C1626 1.363 . S
C1627 C1633 1.363 . S
C1628 C1629 1.363 . S
C1628 C1633 1.379 . S
C1628 N1635 1.356 . S
C1629 C1628 1.363 . S
C1629 C1632 1.363 . S
N1630 C1632 1.356 . S
N1630 H1642 0.984 . S
N1630 H1643 0.985 . S
N1631 C1633 1.356 . S
N1631 H1636 0.984 . S
N1631 H1637 0.985 . S
C1632 C1626 1.379 . S
C1632 C1629 1.363 . S
C1632 N1630 1.356 . S
C1633 C1627 1.363 . S
C1633 C1628 1.379 . S
C1633 N1631 1.356 . S
N1634 C1626 1.356 . S
N1634 H1640 0.984 . S
N1634 H1641 0.984 . S
N1635 C1628 1.356 . S
N1635 H1638 0.984 . S
N1635 H1639 0.985 . S
H1636 N1631 0.984 . S
H1637 N1631 0.985 . S
H1638 N1635 0.984 . S
H1639 N1635 0.985 . S
H1640 N1634 0.984 . S
H1641 N1634 0.984 . S
H1642 N1630 0.984 . S
H1643 N1630 0.985 . S
C1644 C1645 1.363 . S
C1644 C1650 1.379 . S
C1644 N1652 1.356 . S
C1645 C1644 1.363 . S
C1645 C1651 1.363 . S
C1646 C1647 1.363 . S
C1646 C1651 1.379 . S
C1646 N1653 1.356 . S
C1647 C1646 1.363 . S
C1647 C1650 1.363 . S
N1648 C1650 1.356 . S
N1648 H1660 0.984 . S
N1648 H1661 0.985 . S
N1649 C1651 1.356 . S
N1649 H1654 0.984 . S
N1649 H1655 0.985 . S
C1650 C1644 1.379 . S
C1650 C1647 1.363 . S
C1650 N1648 1.356 . S
C1651 C1645 1.363 . S
C1651 C1646 1.379 . S
C1651 N1649 1.356 . S
N1652 C1644 1.356 . S
N1652 H1658 0.984 . S
N1652 H1659 0.984 . S
N1653 C1646 1.356 . S
N1653 H1656 0.984 . S
N1653 H1657 0.985 . S
H1654 N1649 0.984 . S
H1655 N1649 0.985 . S
H1656 N1653 0.984 . S
H1657 N1653 0.985 . S
H1658 N1652 0.984 . S
H1659 N1652 0.984 . S
H1660 N1648 0.984 . S
H1661 N1648 0.985 . S
C1662 C1663 1.363 . S
C1662 C1668 1.379 . S
C1662 N1670 1.356 . S
C1663 C1662 1.363 . S
C1663 C1669 1.363 . S
C1664 C1665 1.363 . S
C1664 C1669 1.379 . S
C1664 N1671 1.356 . S
C1665 C1664 1.363 . S
C1665 C1668 1.363 . S
N1666 C1668 1.356 . S
N1666 H1678 0.984 . S
N1666 H1679 0.985 . S
N1667 C1669 1.356 . S
N1667 H1672 0.984 . S
N1667 H1673 0.985 . S
C1668 C1662 1.379 . S
C1668 C1665 1.363 . S
C1668 N1666 1.356 . S
C1669 C1663 1.363 . S
C1669 C1664 1.379 . S
C1669 N1667 1.356 . S
N1670 C1662 1.356 . S
N1670 H1676 0.984 . S
N1670 H1677 0.984 . S
N1671 C1664 1.356 . S
N1671 H1674 0.984 . S
N1671 H1675 0.985 . S
H1672 N1667 0.984 . S
H1673 N1667 0.985 . S
H1674 N1671 0.984 . S
H1675 N1671 0.985 . S
H1676 N1670 0.984 . S
H1677 N1670 0.984 . S
H1678 N1666 0.984 . S
H1679 N1666 0.985 . S
C1680 C1681 1.363 . S
C1680 C1686 1.379 . S
C1680 N1688 1.356 . S
C1681 C1680 1.363 . S
C1681 C1687 1.363 . S
C1682 C1683 1.363 . S
C1682 C1687 1.379 . S
C1682 N1689 1.356 . S
C1683 C1682 1.363 . S
C1683 C1686 1.363 . S
N1684 C1686 1.356 . S
N1684 H1696 0.984 . S
N1684 H1697 0.985 . S
N1685 C1687 1.356 . S
N1685 H1690 0.984 . S
N1685 H1691 0.985 . S
C1686 C1680 1.379 . S
C1686 C1683 1.363 . S
C1686 N1684 1.356 . S
C1687 C1681 1.363 . S
C1687 C1682 1.379 . S
C1687 N1685 1.356 . S
N1688 C1680 1.356 . S
N1688 H1694 0.984 . S
N1688 H1695 0.984 . S
N1689 C1682 1.356 . S
N1689 H1692 0.984 . S
N1689 H1693 0.985 . S
H1690 N1685 0.984 . S
H1691 N1685 0.985 . S
H1692 N1689 0.984 . S
H1693 N1689 0.985 . S
H1694 N1688 0.984 . S
H1695 N1688 0.984 . S
H1696 N1684 0.984 . S
H1697 N1684 0.985 . S
C1698 C1699 1.363 . S
C1698 C1704 1.379 . S
C1698 N1706 1.356 . S
C1699 C1698 1.363 . S
C1699 C1705 1.363 . S
C1700 C1701 1.363 . S
C1700 C1705 1.379 . S
C1700 N1707 1.356 . S
C1701 C1700 1.363 . S
C1701 C1704 1.363 . S
N1702 C1704 1.356 . S
N1702 H1714 0.984 . S
N1702 H1715 0.985 . S
N1703 C1705 1.356 . S
N1703 H1708 0.984 . S
N1703 H1709 0.985 . S
C1704 C1698 1.379 . S
C1704 C1701 1.363 . S
C1704 N1702 1.356 . S
C1705 C1699 1.363 . S
C1705 C1700 1.379 . S
C1705 N1703 1.356 . S
N1706 C1698 1.356 . S
N1706 H1712 0.984 . S
N1706 H1713 0.984 . S
N1707 C1700 1.356 . S
N1707 H1710 0.984 . S
N1707 H1711 0.985 . S
H1708 N1703 0.984 . S
H1709 N1703 0.985 . S
H1710 N1707 0.984 . S
H1711 N1707 0.985 . S
H1712 N1706 0.984 . S
H1713 N1706 0.984 . S
H1714 N1702 0.984 . S
H1715 N1702 0.985 . S
C1716 C1717 1.363 . S
C1716 C1722 1.379 . S
C1716 N1724 1.356 . S
C1717 C1716 1.363 . S
C1717 C1723 1.363 . S
C1718 C1719 1.363 . S
C1718 C1723 1.379 . S
C1718 N1725 1.356 . S
C1719 C1718 1.363 . S
C1719 C1722 1.363 . S
N1720 C1722 1.356 . S
N1720 H1732 0.984 . S
N1720 H1733 0.985 . S
N1721 C1723 1.356 . S
N1721 H1726 0.984 . S
N1721 H1727 0.985 . S
C1722 C1716 1.379 . S
C1722 C1719 1.363 . S
C1722 N1720 1.356 . S
C1723 C1717 1.363 . S
C1723 C1718 1.379 . S
C1723 N1721 1.356 . S
N1724 C1716 1.356 . S
N1724 H1730 0.984 . S
N1724 H1731 0.984 . S
N1725 C1718 1.356 . S
N1725 H1728 0.984 . S
N1725 H1729 0.985 . S
H1726 N1721 0.984 . S
H1727 N1721 0.985 . S
H1728 N1725 0.984 . S
H1729 N1725 0.985 . S
H1730 N1724 0.984 . S
H1731 N1724 0.984 . S
H1732 N1720 0.984 . S
H1733 N1720 0.985 . S
C1734 C1735 1.363 . S
C1734 C1740 1.379 . S
C1734 N1742 1.356 . S
C1735 C1734 1.363 . S
C1735 C1741 1.363 . S
C1736 C1737 1.363 . S
C1736 C1741 1.379 . S
C1736 N1743 1.356 . S
C1737 C1736 1.363 . S
C1737 C1740 1.363 . S
N1738 C1740 1.356 . S
N1738 H1750 0.984 . S
N1738 H1751 0.985 . S
N1739 C1741 1.356 . S
N1739 H1744 0.984 1_655 S
N1739 H1745 0.985 . S
C1740 C1734 1.379 . S
C1740 C1737 1.363 . S
C1740 N1738 1.356 . S
C1741 C1735 1.363 . S
C1741 C1736 1.379 . S
C1741 N1739 1.356 . S
N1742 C1734 1.356 . S
N1742 H1748 0.984 . S
N1742 H1749 0.984 . S
N1743 C1736 1.356 . S
N1743 H1746 0.984 . S
N1743 H1747 0.985 . S
H1744 N1739 0.984 1_455 S
H1745 N1739 0.985 . S
H1746 N1743 0.984 . S
H1747 N1743 0.985 . S
H1748 N1742 0.984 . S
H1749 N1742 0.984 . S
H1750 N1738 0.984 . S
H1751 N1738 0.985 . S
C1752 C1753 1.363 . S
C1752 C1758 1.379 . S
C1752 N1760 1.356 . S
C1753 C1752 1.363 . S
C1753 C1759 1.363 . S
C1754 C1755 1.363 . S
C1754 C1759 1.379 . S
C1754 N1761 1.356 1_556 S
C1755 C1754 1.363 . S
C1755 C1758 1.363 . S
N1756 C1758 1.356 . S
N1756 H1768 0.984 . S
N1756 H1769 0.985 . S
N1757 C1759 1.356 . S
N1757 H1762 0.984 . S
N1757 H1763 0.985 . S
C1758 C1752 1.379 . S
C1758 C1755 1.363 . S
C1758 N1756 1.356 . S
C1759 C1753 1.363 . S
C1759 C1754 1.379 . S
C1759 N1757 1.356 . S
N1760 C1752 1.356 . S
N1760 H1766 0.984 . S
N1760 H1767 0.984 . S
N1761 C1754 1.356 1_554 S
N1761 H1764 0.984 . S
N1761 H1765 0.985 . S
H1762 N1757 0.984 . S
H1763 N1757 0.985 . S
H1764 N1761 0.984 . S
H1765 N1761 0.985 . S
H1766 N1760 0.984 . S
H1767 N1760 0.984 . S
H1768 N1756 0.984 . S
H1769 N1756 0.985 . S
C1770 C1771 1.363 . S
C1770 C1776 1.379 . S
C1770 N1778 1.356 . S
C1771 C1770 1.363 . S
C1771 C1777 1.363 . S
C1772 C1773 1.363 . S
C1772 C1777 1.379 . S
C1772 N1779 1.356 . S
C1773 C1772 1.363 . S
C1773 C1776 1.363 . S
N1774 C1776 1.356 . S
N1774 H1786 0.984 . S
N1774 H1787 0.985 . S
N1775 C1777 1.356 . S
N1775 H1780 0.984 . S
N1775 H1781 0.985 . S
C1776 C1770 1.379 . S
C1776 C1773 1.363 . S
C1776 N1774 1.356 . S
C1777 C1771 1.363 . S
C1777 C1772 1.379 . S
C1777 N1775 1.356 . S
N1778 C1770 1.356 . S
N1778 H1784 0.984 . S
N1778 H1785 0.984 . S
N1779 C1772 1.356 . S
N1779 H1782 0.984 . S
N1779 H1783 0.985 . S
H1780 N1775 0.984 . S
H1781 N1775 0.985 . S
H1782 N1779 0.984 . S
H1783 N1779 0.985 . S
H1784 N1778 0.984 . S
H1785 N1778 0.984 . S
H1786 N1774 0.984 . S
H1787 N1774 0.985 . S
C1788 C1789 1.363 . S
C1788 C1794 1.379 . S
C1788 N1796 1.356 . S
C1789 C1788 1.363 . S
C1789 C1795 1.363 . S
C1790 C1791 1.363 . S
C1790 C1795 1.379 . S
C1790 N1797 1.356 . S
C1791 C1790 1.363 . S
C1791 C1794 1.363 . S
N1792 C1794 1.356 . S
N1792 H1804 0.984 . S
N1792 H1805 0.985 . S
N1793 C1795 1.356 . S
N1793 H1798 0.984 . S
N1793 H1799 0.985 . S
C1794 C1788 1.379 . S
C1794 C1791 1.363 . S
C1794 N1792 1.356 . S
C1795 C1789 1.363 . S
C1795 C1790 1.379 . S
C1795 N1793 1.356 . S
N1796 C1788 1.356 . S
N1796 H1802 0.984 . S
N1796 H1803 0.984 . S
N1797 C1790 1.356 . S
N1797 H1800 0.984 . S
N1797 H1801 0.985 . S
H1798 N1793 0.984 . S
H1799 N1793 0.985 . S
H1800 N1797 0.984 . S
H1801 N1797 0.985 . S
H1802 N1796 0.984 . S
H1803 N1796 0.984 . S
H1804 N1792 0.984 . S
H1805 N1792 0.985 . S
C1806 C1807 1.363 . S
C1806 C1812 1.379 . S
C1806 N1814 1.356 . S
C1807 C1806 1.363 . S
C1807 C1813 1.363 . S
C1808 C1809 1.363 . S
C1808 C1813 1.379 . S
C1808 N1815 1.356 . S
C1809 C1808 1.363 . S
C1809 C1812 1.363 . S
N1810 C1812 1.356 . S
N1810 H1822 0.984 . S
N1810 H1823 0.985 . S
N1811 C1813 1.356 . S
N1811 H1816 0.984 . S
N1811 H1817 0.985 . S
C1812 C1806 1.379 . S
C1812 C1809 1.363 . S
C1812 N1810 1.356 . S
C1813 C1807 1.363 . S
C1813 C1808 1.379 . S
C1813 N1811 1.356 . S
N1814 C1806 1.356 . S
N1814 H1820 0.984 . S
N1814 H1821 0.984 . S
N1815 C1808 1.356 . S
N1815 H1818 0.984 . S
N1815 H1819 0.985 . S
H1816 N1811 0.984 . S
H1817 N1811 0.985 . S
H1818 N1815 0.984 . S
H1819 N1815 0.985 . S
H1820 N1814 0.984 . S
H1821 N1814 0.984 . S
H1822 N1810 0.984 . S
H1823 N1810 0.985 . S
C1824 C1825 1.363 . S
C1824 C1830 1.379 . S
C1824 N1832 1.356 . S
C1825 C1824 1.363 . S
C1825 C1831 1.363 . S
C1826 C1827 1.363 . S
C1826 C1831 1.379 . S
C1826 N1833 1.356 . S
C1827 C1826 1.363 . S
C1827 C1830 1.363 . S
N1828 C1830 1.356 . S
N1828 H1840 0.984 . S
N1828 H1841 0.985 . S
N1829 C1831 1.356 . S
N1829 H1834 0.984 . S
N1829 H1835 0.985 . S
C1830 C1824 1.379 . S
C1830 C1827 1.363 . S
C1830 N1828 1.356 . S
C1831 C1825 1.363 . S
C1831 C1826 1.379 . S
C1831 N1829 1.356 . S
N1832 C1824 1.356 . S
N1832 H1838 0.984 . S
N1832 H1839 0.984 . S
N1833 C1826 1.356 . S
N1833 H1836 0.984 . S
N1833 H1837 0.985 . S
H1834 N1829 0.984 . S
H1835 N1829 0.985 . S
H1836 N1833 0.984 . S
H1837 N1833 0.985 . S
H1838 N1832 0.984 . S
H1839 N1832 0.984 . S
H1840 N1828 0.984 . S
H1841 N1828 0.985 . S
C1842 C1843 1.363 . S
C1842 C1848 1.379 . S
C1842 N1850 1.356 1_556 S
C1843 C1842 1.363 . S
C1843 C1849 1.363 . S
C1844 C1845 1.363 . S
C1844 C1849 1.379 . S
C1844 N1851 1.356 . S
C1845 C1844 1.363 . S
C1845 C1848 1.363 . S
N1846 C1848 1.356 . S
N1846 H1858 0.984 . S
N1846 H1859 0.985 . S
N1847 C1849 1.356 . S
N1847 H1852 0.984 . S
N1847 H1853 0.985 . S
C1848 C1842 1.379 . S
C1848 C1845 1.363 . S
C1848 N1846 1.356 . S
C1849 C1843 1.363 . S
C1849 C1844 1.379 . S
C1849 N1847 1.356 . S
N1850 C1842 1.356 1_554 S
N1850 H1856 0.984 . S
N1850 H1857 0.984 . S
N1851 C1844 1.356 . S
N1851 H1854 0.984 . S
N1851 H1855 0.985 . S
H1852 N1847 0.984 . S
H1853 N1847 0.985 . S
H1854 N1851 0.984 . S
H1855 N1851 0.985 . S
H1856 N1850 0.984 . S
H1857 N1850 0.984 . S
H1858 N1846 0.984 . S
H1859 N1846 0.985 . S
C1860 C1861 1.363 . S
C1860 C1866 1.379 . S
C1860 N1868 1.356 . S
C1861 C1860 1.363 . S
C1861 C1867 1.363 . S
C1862 C1863 1.363 . S
C1862 C1867 1.379 . S
C1862 N1869 1.356 . S
C1863 C1862 1.363 . S
C1863 C1866 1.363 . S
N1864 C1866 1.356 1_455 S
N1864 H1876 0.984 . S
N1864 H1877 0.985 . S
N1865 C1867 1.356 . S
N1865 H1870 0.984 . S
N1865 H1871 0.985 . S
C1866 C1860 1.379 . S
C1866 C1863 1.363 . S
C1866 N1864 1.356 1_655 S
C1867 C1861 1.363 . S
C1867 C1862 1.379 . S
C1867 N1865 1.356 . S
N1868 C1860 1.356 . S
N1868 H1874 0.984 . S
N1868 H1875 0.984 . S
N1869 C1862 1.356 . S
N1869 H1872 0.984 . S
N1869 H1873 0.985 . S
H1870 N1865 0.984 . S
H1871 N1865 0.985 . S
H1872 N1869 0.984 . S
H1873 N1869 0.985 . S
H1874 N1868 0.984 . S
H1875 N1868 0.984 . S
H1876 N1864 0.984 . S
H1877 N1864 0.985 . S
C1878 C1879 1.363 . S
C1878 C1884 1.379 . S
C1878 N1886 1.356 . S
C1879 C1878 1.363 . S
C1879 C1885 1.363 . S
C1880 C1881 1.363 . S
C1880 C1885 1.379 . S
C1880 N1887 1.356 . S
C1881 C1880 1.363 . S
C1881 C1884 1.363 . S
N1882 C1884 1.356 . S
N1882 H1894 0.984 . S
N1882 H1895 0.985 . S
N1883 C1885 1.356 . S
N1883 H1888 0.984 . S
N1883 H1889 0.985 . S
C1884 C1878 1.379 . S
C1884 C1881 1.363 . S
C1884 N1882 1.356 . S
C1885 C1879 1.363 . S
C1885 C1880 1.379 . S
C1885 N1883 1.356 . S
N1886 C1878 1.356 . S
N1886 H1892 0.984 . S
N1886 H1893 0.984 . S
N1887 C1880 1.356 . S
N1887 H1890 0.984 . S
N1887 H1891 0.985 . S
H1888 N1883 0.984 . S
H1889 N1883 0.985 . S
H1890 N1887 0.984 . S
H1891 N1887 0.985 . S
H1892 N1886 0.984 . S
H1893 N1886 0.984 . S
H1894 N1882 0.984 . S
H1895 N1882 0.985 . S
C1896 C1897 1.363 . S
C1896 C1902 1.379 . S
C1896 N1904 1.356 . S
C1897 C1896 1.363 . S
C1897 C1903 1.363 . S
C1898 C1899 1.363 . S
C1898 C1903 1.379 . S
C1898 N1905 1.356 . S
C1899 C1898 1.363 . S
C1899 C1902 1.363 . S
N1900 C1902 1.356 . S
N1900 H1912 0.984 . S
N1900 H1913 0.985 . S
N1901 C1903 1.356 . S
N1901 H1906 0.984 . S
N1901 H1907 0.985 . S
C1902 C1896 1.379 . S
C1902 C1899 1.363 . S
C1902 N1900 1.356 . S
C1903 C1897 1.363 . S
C1903 C1898 1.379 . S
C1903 N1901 1.356 . S
N1904 C1896 1.356 . S
N1904 H1910 0.984 . S
N1904 H1911 0.984 . S
N1905 C1898 1.356 . S
N1905 H1908 0.984 . S
N1905 H1909 0.985 . S
H1906 N1901 0.984 . S
H1907 N1901 0.985 . S
H1908 N1905 0.984 . S
H1909 N1905 0.985 . S
H1910 N1904 0.984 . S
H1911 N1904 0.984 . S
H1912 N1900 0.984 . S
H1913 N1900 0.985 . S
C1914 C1915 1.363 . S
C1914 C1920 1.379 . S
C1914 N1922 1.356 . S
C1915 C1914 1.363 . S
C1915 C1921 1.363 . S
C1916 C1917 1.363 . S
C1916 C1921 1.379 . S
C1916 N1923 1.356 . S
C1917 C1916 1.363 . S
C1917 C1920 1.363 . S
N1918 C1920 1.356 . S
N1918 H1930 0.984 . S
N1918 H1931 0.985 . S
N1919 C1921 1.356 . S
N1919 H1924 0.984 . S
N1919 H1925 0.985 . S
C1920 C1914 1.379 . S
C1920 C1917 1.363 . S
C1920 N1918 1.356 . S
C1921 C1915 1.363 . S
C1921 C1916 1.379 . S
C1921 N1919 1.356 . S
N1922 C1914 1.356 . S
N1922 H1928 0.984 . S
N1922 H1929 0.984 . S
N1923 C1916 1.356 . S
N1923 H1926 0.984 . S
N1923 H1927 0.985 . S
H1924 N1919 0.984 . S
H1925 N1919 0.985 . S
H1926 N1923 0.984 . S
H1927 N1923 0.985 . S
H1928 N1922 0.984 . S
H1929 N1922 0.984 . S
H1930 N1918 0.984 . S
H1931 N1918 0.985 . S
C1932 C1933 1.363 . S
C1932 C1938 1.379 . S
C1932 N1940 1.356 . S
C1933 C1932 1.363 . S
C1933 C1939 1.363 . S
C1934 C1935 1.363 . S
C1934 C1939 1.379 . S
C1934 N1941 1.356 . S
C1935 C1934 1.363 . S
C1935 C1938 1.363 . S
N1936 C1938 1.352 1_455 S
N1936 H1948 0.986 . S
N1936 H1949 0.987 . S
N1937 C1939 1.356 . S
N1937 H1942 0.984 . S
N1937 H1943 0.985 . S
C1938 C1932 1.379 . S
C1938 C1935 1.363 . S
C1938 N1936 1.352 1_655 S
C1939 C1933 1.363 . S
C1939 C1934 1.379 . S
C1939 N1937 1.356 . S
N1940 C1932 1.356 . S
N1940 H1946 0.984 . S
N1940 H1947 0.984 . S
N1941 C1934 1.356 . S
N1941 H1944 0.984 . S
N1941 H1945 0.985 . S
H1942 N1937 0.984 . S
H1943 N1937 0.985 . S
H1944 N1941 0.984 . S
H1945 N1941 0.985 . S
H1946 N1940 0.984 . S
H1947 N1940 0.984 . S
H1948 N1936 0.986 . S
H1949 N1936 0.987 . S
C1950 C1951 1.363 . S
C1950 C1956 1.379 . S
C1950 N1958 1.356 . S
C1951 C1950 1.363 . S
C1951 C1957 1.363 . S
C1952 C1953 1.363 . S
C1952 C1957 1.379 . S
C1952 N1959 1.356 . S
C1953 C1952 1.363 . S
C1953 C1956 1.363 . S
N1954 C1956 1.356 . S
N1954 H1966 0.984 . S
N1954 H1967 0.985 . S
N1955 C1957 1.356 . S
N1955 H1960 0.984 . S
N1955 H1961 0.985 . S
C1956 C1950 1.379 . S
C1956 C1953 1.363 . S
C1956 N1954 1.356 . S
C1957 C1951 1.363 . S
C1957 C1952 1.379 . S
C1957 N1955 1.356 . S
N1958 C1950 1.356 . S
N1958 H1964 0.984 . S
N1958 H1965 0.984 . S
N1959 C1952 1.356 . S
N1959 H1962 0.984 . S
N1959 H1963 0.985 . S
H1960 N1955 0.984 . S
H1961 N1955 0.985 . S
H1962 N1959 0.984 . S
H1963 N1959 0.985 . S
H1964 N1958 0.984 . S
H1965 N1958 0.984 . S
H1966 N1954 0.984 . S
H1967 N1954 0.985 . S
C1968 C1969 1.363 . S
C1968 C1974 1.379 . S
C1968 N1976 1.356 . S
C1969 C1968 1.363 . S
C1969 C1975 1.363 . S
C1970 C1971 1.363 . S
C1970 C1975 1.379 . S
C1970 N1977 1.356 . S
C1971 C1970 1.363 . S
C1971 C1974 1.363 . S
N1972 C1974 1.356 . S
N1972 H1984 0.984 . S
N1972 H1985 0.985 . S
N1973 C1975 1.356 . S
N1973 H1978 0.984 . S
N1973 H1979 0.985 . S
C1974 C1968 1.379 . S
C1974 C1971 1.363 . S
C1974 N1972 1.356 . S
C1975 C1969 1.363 . S
C1975 C1970 1.379 . S
C1975 N1973 1.356 . S
N1976 C1968 1.356 . S
N1976 H1982 0.984 . S
N1976 H1983 0.984 . S
N1977 C1970 1.356 . S
N1977 H1980 0.984 . S
N1977 H1981 0.985 . S
H1978 N1973 0.984 . S
H1979 N1973 0.985 . S
H1980 N1977 0.984 . S
H1981 N1977 0.985 . S
H1982 N1976 0.984 . S
H1983 N1976 0.984 . S
H1984 N1972 0.984 . S
H1985 N1972 0.985 . S
C1986 C1987 1.363 . S
C1986 C1992 1.379 . S
C1986 N1994 1.356 . S
C1987 C1986 1.363 . S
C1987 C1993 1.363 . S
C1988 C1989 1.357 1_565 S
C1988 C1993 1.379 . S
C1988 N1995 1.356 . S
C1989 C1988 1.357 1_545 S
C1989 C1992 1.360 1_545 S
N1990 C1992 1.356 1_545 S
N1990 H2002 0.984 . S
N1990 H2003 0.985 . S
N1991 C1993 1.356 . S
N1991 H1996 0.984 . S
N1991 H1997 0.985 . S
C1992 C1986 1.379 . S
C1992 C1989 1.360 1_565 S
C1992 N1990 1.356 1_565 S
C1993 C1987 1.363 . S
C1993 C1988 1.379 . S
C1993 N1991 1.356 . S
N1994 C1986 1.356 . S
N1994 H2000 0.984 . S
N1994 H2001 0.984 . S
N1995 C1988 1.356 . S
N1995 H1998 0.984 1_565 S
N1995 H1999 0.985 . S
H1996 N1991 0.984 . S
H1997 N1991 0.985 . S
H1998 N1995 0.984 1_545 S
H1999 N1995 0.985 . S
H2000 N1994 0.984 . S
H2001 N1994 0.984 . S
H2002 N1990 0.984 . S
H2003 N1990 0.985 . S
C2004 C2005 1.363 . S
C2004 C2010 1.379 . S
C2004 N2012 1.356 . S
C2005 C2004 1.363 . S
C2005 C2011 1.363 . S
C2006 C2007 1.363 . S
C2006 C2011 1.379 . S
C2006 N2013 1.356 . S
C2007 C2006 1.363 . S
C2007 C2010 1.363 . S
N2008 C2010 1.356 . S
N2008 H2020 0.984 . S
N2008 H2021 0.985 . S
N2009 C2011 1.356 1_545 S
N2009 H2014 0.984 . S
N2009 H2015 0.985 . S
C2010 C2004 1.379 . S
C2010 C2007 1.363 . S
C2010 N2008 1.356 . S
C2011 C2005 1.363 . S
C2011 C2006 1.379 . S
C2011 N2009 1.356 1_565 S
N2012 C2004 1.356 . S
N2012 H2018 0.984 . S
N2012 H2019 0.984 . S
N2013 C2006 1.356 . S
N2013 H2016 0.984 . S
N2013 H2017 0.985 . S
H2014 N2009 0.984 . S
H2015 N2009 0.985 . S
H2016 N2013 0.984 . S
H2017 N2013 0.985 . S
H2018 N2012 0.984 . S
H2019 N2012 0.984 . S
H2020 N2008 0.984 . S
H2021 N2008 0.985 . S
C2022 C2023 1.363 . S
C2022 C2028 1.379 . S
C2022 N2030 1.356 . S
C2023 C2022 1.363 . S
C2023 C2029 1.363 . S
C2024 C2025 1.363 . S
C2024 C2029 1.379 . S
C2024 N2031 1.356 . S
C2025 C2024 1.363 . S
C2025 C2028 1.363 . S
N2026 C2028 1.356 . S
N2026 H2038 0.984 . S
N2026 H2039 0.985 . S
N2027 C2029 1.356 1_556 S
N2027 H2032 0.984 . S
N2027 H2033 0.985 . S
C2028 C2022 1.379 . S
C2028 C2025 1.363 . S
C2028 N2026 1.356 . S
C2029 C2023 1.363 . S
C2029 C2024 1.379 . S
C2029 N2027 1.356 1_554 S
N2030 C2022 1.356 . S
N2030 H2036 0.984 . S
N2030 H2037 0.984 . S
N2031 C2024 1.356 . S
N2031 H2034 0.984 . S
N2031 H2035 0.985 1_554 S
H2032 N2027 0.984 . S
H2033 N2027 0.985 . S
H2034 N2031 0.984 . S
H2035 N2031 0.985 1_556 S
H2036 N2030 0.984 . S
H2037 N2030 0.984 . S
H2038 N2026 0.984 . S
H2039 N2026 0.985 . S
C2040 C2041 1.363 . S
C2040 C2046 1.379 . S
C2040 N2048 1.356 . S
C2041 C2040 1.363 . S
C2041 C2047 1.363 . S
C2042 C2043 1.363 . S
C2042 C2047 1.379 . S
C2042 N2049 1.356 . S
C2043 C2042 1.363 . S
C2043 C2046 1.363 . S
N2044 C2046 1.356 . S
N2044 H2056 0.984 . S
N2044 H2057 0.985 . S
N2045 C2047 1.356 . S
N2045 H2050 0.984 . S
N2045 H2051 0.985 . S
C2046 C2040 1.379 . S
C2046 C2043 1.363 . S
C2046 N2044 1.356 . S
C2047 C2041 1.363 . S
C2047 C2042 1.379 . S
C2047 N2045 1.356 . S
N2048 C2040 1.356 . S
N2048 H2054 0.984 . S
N2048 H2055 0.984 . S
N2049 C2042 1.356 . S
N2049 H2052 0.984 . S
N2049 H2053 0.985 . S
H2050 N2045 0.984 . S
H2051 N2045 0.985 . S
H2052 N2049 0.984 . S
H2053 N2049 0.985 . S
H2054 N2048 0.984 . S
H2055 N2048 0.984 . S
H2056 N2044 0.984 . S
H2057 N2044 0.985 . S
C2058 C2059 1.363 . S
C2058 C2064 1.379 . S
C2058 N2066 1.356 . S
C2059 C2058 1.363 . S
C2059 C2065 1.363 . S
C2060 C2061 1.363 . S
C2060 C2065 1.379 . S
C2060 N2067 1.356 1_554 S
C2061 C2060 1.363 . S
C2061 C2064 1.363 . S
N2062 C2064 1.356 . S
N2062 H2074 0.984 . S
N2062 H2075 0.985 . S
N2063 C2065 1.356 . S
N2063 H2068 0.984 . S
N2063 H2069 0.985 . S
C2064 C2058 1.379 . S
C2064 C2061 1.363 . S
C2064 N2062 1.356 . S
C2065 C2059 1.363 . S
C2065 C2060 1.379 . S
C2065 N2063 1.356 . S
N2066 C2058 1.356 . S
N2066 H2072 0.984 . S
N2066 H2073 0.984 . S
N2067 C2060 1.356 1_556 S
N2067 H2070 0.984 . S
N2067 H2071 0.985 . S
H2068 N2063 0.984 . S
H2069 N2063 0.985 . S
H2070 N2067 0.984 . S
H2071 N2067 0.985 . S
H2072 N2066 0.984 . S
H2073 N2066 0.984 . S
H2074 N2062 0.984 . S
H2075 N2062 0.985 . S
C2076 C2077 1.363 . S
C2076 C2082 1.379 . S
C2076 N2084 1.356 . S
C2077 C2076 1.363 . S
C2077 C2083 1.363 . S
C2078 C2079 1.363 . S
C2078 C2083 1.379 . S
C2078 N2085 1.356 . S
C2079 C2078 1.363 . S
C2079 C2082 1.363 . S
N2080 C2082 1.356 . S
N2080 H2092 0.984 . S
N2080 H2093 0.985 . S
N2081 C2083 1.356 . S
N2081 H2086 0.984 . S
N2081 H2087 0.985 . S
C2082 C2076 1.379 . S
C2082 C2079 1.363 . S
C2082 N2080 1.356 . S
C2083 C2077 1.363 . S
C2083 C2078 1.379 . S
C2083 N2081 1.356 . S
N2084 C2076 1.356 . S
N2084 H2090 0.984 . S
N2084 H2091 0.984 . S
N2085 C2078 1.356 . S
N2085 H2088 0.984 . S
N2085 H2089 0.985 . S
H2086 N2081 0.984 . S
H2087 N2081 0.985 . S
H2088 N2085 0.984 . S
H2089 N2085 0.985 . S
H2090 N2084 0.984 . S
H2091 N2084 0.984 . S
H2092 N2080 0.984 . S
H2093 N2080 0.985 . S
C2094 C2095 1.363 . S
C2094 C2100 1.379 . S
C2094 N2102 1.356 . S
C2095 C2094 1.363 . S
C2095 C2101 1.363 . S
C2096 C2097 1.363 . S
C2096 C2101 1.379 . S
C2096 N2103 1.356 . S
C2097 C2096 1.363 . S
C2097 C2100 1.363 . S
N2098 C2100 1.356 . S
N2098 H2110 0.984 . S
N2098 H2111 0.985 . S
N2099 C2101 1.356 . S
N2099 H2104 0.984 . S
N2099 H2105 0.985 . S
C2100 C2094 1.379 . S
C2100 C2097 1.363 . S
C2100 N2098 1.356 . S
C2101 C2095 1.363 . S
C2101 C2096 1.379 . S
C2101 N2099 1.356 . S
N2102 C2094 1.356 . S
N2102 H2108 0.984 . S
N2102 H2109 0.984 . S
N2103 C2096 1.356 . S
N2103 H2106 0.984 . S
N2103 H2107 0.985 . S
H2104 N2099 0.984 . S
H2105 N2099 0.985 . S
H2106 N2103 0.984 . S
H2107 N2103 0.985 . S
H2108 N2102 0.984 . S
H2109 N2102 0.984 . S
H2110 N2098 0.984 . S
H2111 N2098 0.985 . S
C2112 C2113 1.363 . S
C2112 C2118 1.379 . S
C2112 N2120 1.356 . S
C2113 C2112 1.363 . S
C2113 C2119 1.363 . S
C2114 C2115 1.363 . S
C2114 C2119 1.379 . S
C2114 N2121 1.356 . S
C2115 C2114 1.363 . S
C2115 C2118 1.363 . S
N2116 C2118 1.356 . S
N2116 H2128 0.984 . S
N2116 H2129 0.985 . S
N2117 C2119 1.356 . S
N2117 H2122 0.984 . S
N2117 H2123 0.985 . S
C2118 C2112 1.379 . S
C2118 C2115 1.363 . S
C2118 N2116 1.356 . S
C2119 C2113 1.363 . S
C2119 C2114 1.379 . S
C2119 N2117 1.356 . S
N2120 C2112 1.356 . S
N2120 H2126 0.984 . S
N2120 H2127 0.984 . S
N2121 C2114 1.356 . S
N2121 H2124 0.984 . S
N2121 H2125 0.985 . S
H2122 N2117 0.984 . S
H2123 N2117 0.985 . S
H2124 N2121 0.984 . S
H2125 N2121 0.985 . S
H2126 N2120 0.984 . S
H2127 N2120 0.984 . S
H2128 N2116 0.984 . S
H2129 N2116 0.985 . S
C2130 C2131 1.363 . S
C2130 C2136 1.379 . S
C2130 N2138 1.356 . S
C2131 C2130 1.363 . S
C2131 C2137 1.363 . S
C2132 C2133 1.363 . S
C2132 C2137 1.379 . S
C2132 N2139 1.356 . S
C2133 C2132 1.363 . S
C2133 C2136 1.363 . S
N2134 C2136 1.356 . S
N2134 H2146 0.984 . S
N2134 H2147 0.985 . S
N2135 C2137 1.356 . S
N2135 H2140 0.984 . S
N2135 H2141 0.985 . S
C2136 C2130 1.379 . S
C2136 C2133 1.363 . S
C2136 N2134 1.356 . S
C2137 C2131 1.363 . S
C2137 C2132 1.379 . S
C2137 N2135 1.356 . S
N2138 C2130 1.356 . S
N2138 H2144 0.984 . S
N2138 H2145 0.984 . S
N2139 C2132 1.356 . S
N2139 H2142 0.984 . S
N2139 H2143 0.985 . S
H2140 N2135 0.984 . S
H2141 N2135 0.985 . S
H2142 N2139 0.984 . S
H2143 N2139 0.985 . S
H2144 N2138 0.984 . S
H2145 N2138 0.984 . S
H2146 N2134 0.984 . S
H2147 N2134 0.985 . S
C2148 C2149 1.363 . S
C2148 C2154 1.379 . S
C2148 N2156 1.356 . S
C2149 C2148 1.363 . S
C2149 C2155 1.363 . S
C2150 C2151 1.363 1_655 S
C2150 C2155 1.379 1_655 S
C2150 N2157 1.356 . S
C2151 C2150 1.363 1_455 S
C2151 C2154 1.363 . S
N2152 C2154 1.356 1_554 S
N2152 H2164 0.984 . S
N2152 H2165 0.985 . S
N2153 C2155 1.356 1_655 S
N2153 H2158 0.984 . S
N2153 H2159 0.985 . S
C2154 C2148 1.379 . S
C2154 C2151 1.363 . S
C2154 N2152 1.356 1_556 S
C2155 C2149 1.363 . S
C2155 C2150 1.379 1_455 S
C2155 N2153 1.356 1_455 S
N2156 C2148 1.356 . S
N2156 H2162 0.985 . S
N2156 H2163 0.984 . S
N2157 C2150 1.356 . S
N2157 H2160 0.984 . S
N2157 H2161 0.985 . S
H2158 N2153 0.984 . S
H2159 N2153 0.985 . S
H2160 N2157 0.984 . S
H2161 N2157 0.985 . S
H2162 N2156 0.985 . S
H2163 N2156 0.984 . S
H2164 N2152 0.984 . S
H2165 N2152 0.985 . S
C2166 C2167 1.363 . S
C2166 C2172 1.379 . S
C2166 N2174 1.356 . S
C2167 C2166 1.363 . S
C2167 C2173 1.363 . S
C2168 C2169 1.363 . S
C2168 C2173 1.379 . S
C2168 N2175 1.356 . S
C2169 C2168 1.363 . S
C2169 C2172 1.363 . S
N2170 C2172 1.356 . S
N2170 H2182 0.984 . S
N2170 H2183 0.985 . S
N2171 C2173 1.356 . S
N2171 H2176 0.984 . S
N2171 H2177 0.985 . S
C2172 C2166 1.379 . S
C2172 C2169 1.363 . S
C2172 N2170 1.356 . S
C2173 C2167 1.363 . S
C2173 C2168 1.379 . S
C2173 N2171 1.356 . S
N2174 C2166 1.356 . S
N2174 H2180 0.984 . S
N2174 H2181 0.984 . S
N2175 C2168 1.356 . S
N2175 H2178 0.984 . S
N2175 H2179 0.985 . S
H2176 N2171 0.984 . S
H2177 N2171 0.985 . S
H2178 N2175 0.984 . S
H2179 N2175 0.985 . S
H2180 N2174 0.984 . S
H2181 N2174 0.984 . S
H2182 N2170 0.984 . S
H2183 N2170 0.985 . S
C2184 C2185 1.363 . S
C2184 C2190 1.379 . S
C2184 N2192 1.356 . S
C2185 C2184 1.363 . S
C2185 C2191 1.363 . S
C2186 C2187 1.363 . S
C2186 C2191 1.379 . S
C2186 N2193 1.356 . S
C2187 C2186 1.363 . S
C2187 C2190 1.363 . S
N2188 C2190 1.356 . S
N2188 H2200 0.984 . S
N2188 H2201 0.985 . S
N2189 C2191 1.356 . S
N2189 H2194 0.984 . S
N2189 H2195 0.985 . S
C2190 C2184 1.379 . S
C2190 C2187 1.363 . S
C2190 N2188 1.356 . S
C2191 C2185 1.363 . S
C2191 C2186 1.379 . S
C2191 N2189 1.356 . S
N2192 C2184 1.356 . S
N2192 H2198 0.984 . S
N2192 H2199 0.984 . S
N2193 C2186 1.356 . S
N2193 H2196 0.984 . S
N2193 H2197 0.985 . S
H2194 N2189 0.984 . S
H2195 N2189 0.985 . S
H2196 N2193 0.984 . S
H2197 N2193 0.985 . S
H2198 N2192 0.984 . S
H2199 N2192 0.984 . S
H2200 N2188 0.984 . S
H2201 N2188 0.985 . S
C2202 C2203 1.363 . S
C2202 C2208 1.379 . S
C2202 N2210 1.356 . S
C2203 C2202 1.363 . S
C2203 C2209 1.363 . S
C2204 C2205 1.363 . S
C2204 C2209 1.379 . S
C2204 N2211 1.356 . S
C2205 C2204 1.363 . S
C2205 C2208 1.363 . S
N2206 C2208 1.356 . S
N2206 H2218 0.984 . S
N2206 H2219 0.985 . S
N2207 C2209 1.356 . S
N2207 H2212 0.984 . S
N2207 H2213 0.985 . S
C2208 C2202 1.379 . S
C2208 C2205 1.363 . S
C2208 N2206 1.356 . S
C2209 C2203 1.363 . S
C2209 C2204 1.379 . S
C2209 N2207 1.356 . S
N2210 C2202 1.356 . S
N2210 H2216 0.984 . S
N2210 H2217 0.984 . S
N2211 C2204 1.356 . S
N2211 H2214 0.984 . S
N2211 H2215 0.985 . S
H2212 N2207 0.984 . S
H2213 N2207 0.985 . S
H2214 N2211 0.984 . S
H2215 N2211 0.985 . S
H2216 N2210 0.984 . S
H2217 N2210 0.984 . S
H2218 N2206 0.984 . S
H2219 N2206 0.985 . S
C2220 C2221 1.363 1_655 S
C2220 C2226 1.379 . S
C2220 N2228 1.356 . S
C2221 C2220 1.363 1_455 S
C2221 C2227 1.363 . S
C2222 C2223 1.363 . S
C2222 C2227 1.379 . S
C2222 N2229 1.356 . S
C2223 C2222 1.363 . S
C2223 C2226 1.363 1_455 S
N2224 C2226 1.356 . S
N2224 H2236 0.984 . S
N2224 H2237 0.985 . S
N2225 C2227 1.356 . S
N2225 H2230 0.984 . S
N2225 H2231 0.985 . S
C2226 C2220 1.379 . S
C2226 C2223 1.363 1_655 S
C2226 N2224 1.356 . S
C2227 C2221 1.363 . S
C2227 C2222 1.379 . S
C2227 N2225 1.356 . S
N2228 C2220 1.356 . S
N2228 H2234 0.984 . S
N2228 H2235 0.984 . S
N2229 C2222 1.356 . S
N2229 H2232 0.984 . S
N2229 H2233 0.985 . S
H2230 N2225 0.984 . S
H2231 N2225 0.985 . S
H2232 N2229 0.984 . S
H2233 N2229 0.985 . S
H2234 N2228 0.984 . S
H2235 N2228 0.984 . S
H2236 N2224 0.984 . S
H2237 N2224 0.985 . S
C2238 C2239 1.363 . S
C2238 C2244 1.379 . S
C2238 N2246 1.356 . S
C2239 C2238 1.363 . S
C2239 C2245 1.363 . S
C2240 C2241 1.363 . S
C2240 C2245 1.379 . S
C2240 N2247 1.356 . S
C2241 C2240 1.363 . S
C2241 C2244 1.363 . S
N2242 C2244 1.356 . S
N2242 H2254 0.984 . S
N2242 H2255 0.985 . S
N2243 C2245 1.356 . S
N2243 H2248 0.984 . S
N2243 H2249 0.985 . S
C2244 C2238 1.379 . S
C2244 C2241 1.363 . S
C2244 N2242 1.356 . S
C2245 C2239 1.363 . S
C2245 C2240 1.379 . S
C2245 N2243 1.356 . S
N2246 C2238 1.356 . S
N2246 H2252 0.984 . S
N2246 H2253 0.984 . S
N2247 C2240 1.356 . S
N2247 H2250 0.984 . S
N2247 H2251 0.985 . S
H2248 N2243 0.984 . S
H2249 N2243 0.985 . S
H2250 N2247 0.984 . S
H2251 N2247 0.985 . S
H2252 N2246 0.984 . S
H2253 N2246 0.984 . S
H2254 N2242 0.984 . S
H2255 N2242 0.985 . S
C2256 C2257 1.363 . S
C2256 C2262 1.379 . S
C2256 N2264 1.356 . S
C2257 C2256 1.363 . S
C2257 C2263 1.363 . S
C2258 C2259 1.363 . S
C2258 C2263 1.379 . S
C2258 N2265 1.356 . S
C2259 C2258 1.363 . S
C2259 C2262 1.363 . S
N2260 C2262 1.356 . S
N2260 H2272 0.984 . S
N2260 H2273 0.985 . S
N2261 C2263 1.356 . S
N2261 H2266 0.984 . S
N2261 H2267 0.985 . S
C2262 C2256 1.379 . S
C2262 C2259 1.363 . S
C2262 N2260 1.356 . S
C2263 C2257 1.363 . S
C2263 C2258 1.379 . S
C2263 N2261 1.356 . S
N2264 C2256 1.356 . S
N2264 H2270 0.984 . S
N2264 H2271 0.984 . S
N2265 C2258 1.356 . S
N2265 H2268 0.984 . S
N2265 H2269 0.985 . S
H2266 N2261 0.984 . S
H2267 N2261 0.985 . S
H2268 N2265 0.984 . S
H2269 N2265 0.985 . S
H2270 N2264 0.984 . S
H2271 N2264 0.984 . S
H2272 N2260 0.984 . S
H2273 N2260 0.985 . S
C2274 C2275 1.363 . S
C2274 C2280 1.379 . S
C2274 N2282 1.356 . S
C2275 C2274 1.363 . S
C2275 C2281 1.363 . S
C2276 C2277 1.363 . S
C2276 C2281 1.379 . S
C2276 N2283 1.356 . S
C2277 C2276 1.363 . S
C2277 C2280 1.363 . S
N2278 C2280 1.356 . S
N2278 H2290 0.984 . S
N2278 H2291 0.985 . S
N2279 C2281 1.356 . S
N2279 H2284 0.984 . S
N2279 H2285 0.985 . S
C2280 C2274 1.379 . S
C2280 C2277 1.363 . S
C2280 N2278 1.356 . S
C2281 C2275 1.363 . S
C2281 C2276 1.379 . S
C2281 N2279 1.356 . S
N2282 C2274 1.356 . S
N2282 H2288 0.984 . S
N2282 H2289 0.984 . S
N2283 C2276 1.356 . S
N2283 H2286 0.984 . S
N2283 H2287 0.985 . S
H2284 N2279 0.984 . S
H2285 N2279 0.985 . S
H2286 N2283 0.984 . S
H2287 N2283 0.985 . S
H2288 N2282 0.984 . S
H2289 N2282 0.984 . S
H2290 N2278 0.984 . S
H2291 N2278 0.985 . S
C2292 C2293 1.363 . S
C2292 C2298 1.379 . S
C2292 N2300 1.356 . S
C2293 C2292 1.363 . S
C2293 C2299 1.363 . S
C2294 C2295 1.363 . S
C2294 C2299 1.379 . S
C2294 N2301 1.356 . S
C2295 C2294 1.363 . S
C2295 C2298 1.363 . S
N2296 C2298 1.356 . S
N2296 H2308 0.984 . S
N2296 H2309 0.985 . S
N2297 C2299 1.356 . S
N2297 H2302 0.984 . S
N2297 H2303 0.985 . S
C2298 C2292 1.379 . S
C2298 C2295 1.363 . S
C2298 N2296 1.356 . S
C2299 C2293 1.363 . S
C2299 C2294 1.379 . S
C2299 N2297 1.356 . S
N2300 C2292 1.356 . S
N2300 H2306 0.984 . S
N2300 H2307 0.984 . S
N2301 C2294 1.356 . S
N2301 H2304 0.984 . S
N2301 H2305 0.985 . S
H2302 N2297 0.984 . S
H2303 N2297 0.985 . S
H2304 N2301 0.984 . S
H2305 N2301 0.985 . S
H2306 N2300 0.984 . S
H2307 N2300 0.984 . S
H2308 N2296 0.984 . S
H2309 N2296 0.985 . S
C2310 C2311 1.363 . S
C2310 C2316 1.379 . S
C2310 N2318 1.356 . S
C2311 C2310 1.363 . S
C2311 C2317 1.363 . S
C2312 C2313 1.363 . S
C2312 C2317 1.379 . S
C2312 N2319 1.356 . S
C2313 C2312 1.363 . S
C2313 C2316 1.363 . S
N2314 C2316 1.356 . S
N2314 H2326 0.984 . S
N2314 H2327 0.985 . S
N2315 C2317 1.356 . S
N2315 H2320 0.984 . S
N2315 H2321 0.985 . S
C2316 C2310 1.379 . S
C2316 C2313 1.363 . S
C2316 N2314 1.356 . S
C2317 C2311 1.363 . S
C2317 C2312 1.379 . S
C2317 N2315 1.356 . S
N2318 C2310 1.356 . S
N2318 H2324 0.984 . S
N2318 H2325 0.984 . S
N2319 C2312 1.356 . S
N2319 H2322 0.984 . S
N2319 H2323 0.985 . S
H2320 N2315 0.984 . S
H2321 N2315 0.985 . S
H2322 N2319 0.984 . S
H2323 N2319 0.985 . S
H2324 N2318 0.984 . S
H2325 N2318 0.984 . S
H2326 N2314 0.984 . S
H2327 N2314 0.985 . S
C2328 C2329 1.363 . S
C2328 C2334 1.379 . S
C2328 N2336 1.356 . S
C2329 C2328 1.363 . S
C2329 C2335 1.363 . S
C2330 C2331 1.363 . S
C2330 C2335 1.379 . S
C2330 N2337 1.356 . S
C2331 C2330 1.363 . S
C2331 C2334 1.363 . S
N2332 C2334 1.356 . S
N2332 H2344 0.984 . S
N2332 H2345 0.985 . S
N2333 C2335 1.356 . S
N2333 H2338 0.984 . S
N2333 H2339 0.985 . S
C2334 C2328 1.379 . S
C2334 C2331 1.363 . S
C2334 N2332 1.356 . S
C2335 C2329 1.363 . S
C2335 C2330 1.379 . S
C2335 N2333 1.356 . S
N2336 C2328 1.356 . S
N2336 H2342 0.984 . S
N2336 H2343 0.984 . S
N2337 C2330 1.356 . S
N2337 H2340 0.984 . S
N2337 H2341 0.985 . S
H2338 N2333 0.984 . S
H2339 N2333 0.985 . S
H2340 N2337 0.984 . S
H2341 N2337 0.985 . S
H2342 N2336 0.984 . S
H2343 N2336 0.984 . S
H2344 N2332 0.984 . S
H2345 N2332 0.985 . S
C2346 C2347 1.363 . S
C2346 C2352 1.379 . S
C2346 N2354 1.356 . S
C2347 C2346 1.363 . S
C2347 C2353 1.363 . S
C2348 C2349 1.363 . S
C2348 C2353 1.379 . S
C2348 N2355 1.356 . S
C2349 C2348 1.363 . S
C2349 C2352 1.363 . S
N2350 C2352 1.356 . S
N2350 H2362 0.984 . S
N2350 H2363 0.985 . S
N2351 C2353 1.356 . S
N2351 H2356 0.984 . S
N2351 H2357 0.985 . S
C2352 C2346 1.379 . S
C2352 C2349 1.363 . S
C2352 N2350 1.356 . S
C2353 C2347 1.363 . S
C2353 C2348 1.379 . S
C2353 N2351 1.356 . S
N2354 C2346 1.356 . S
N2354 H2360 0.984 . S
N2354 H2361 0.984 . S
N2355 C2348 1.356 . S
N2355 H2358 0.984 . S
N2355 H2359 0.985 . S
H2356 N2351 0.984 . S
H2357 N2351 0.985 . S
H2358 N2355 0.984 . S
H2359 N2355 0.985 . S
H2360 N2354 0.984 . S
H2361 N2354 0.984 . S
H2362 N2350 0.984 . S
H2363 N2350 0.985 . S
C2364 C2365 1.363 . S
C2364 C2370 1.379 . S
C2364 N2372 1.356 . S
C2365 C2364 1.363 . S
C2365 C2371 1.363 . S
C2366 C2367 1.363 . S
C2366 C2371 1.379 . S
C2366 N2373 1.356 . S
C2367 C2366 1.363 . S
C2367 C2370 1.363 . S
N2368 C2370 1.356 . S
N2368 H2380 0.984 . S
N2368 H2381 0.985 . S
N2369 C2371 1.356 . S
N2369 H2374 0.984 . S
N2369 H2375 0.985 . S
C2370 C2364 1.379 . S
C2370 C2367 1.363 . S
C2370 N2368 1.356 . S
C2371 C2365 1.363 . S
C2371 C2366 1.379 . S
C2371 N2369 1.356 . S
N2372 C2364 1.356 . S
N2372 H2378 0.984 . S
N2372 H2379 0.984 . S
N2373 C2366 1.356 . S
N2373 H2376 0.984 . S
N2373 H2377 0.985 . S
H2374 N2369 0.984 . S
H2375 N2369 0.985 . S
H2376 N2373 0.984 . S
H2377 N2373 0.985 . S
H2378 N2372 0.984 . S
H2379 N2372 0.984 . S
H2380 N2368 0.984 . S
H2381 N2368 0.985 . S
C2382 C2383 1.363 . S
C2382 C2388 1.379 . S
C2382 N2390 1.356 . S
C2383 C2382 1.363 . S
C2383 C2389 1.363 . S
C2384 C2385 1.363 . S
C2384 C2389 1.379 . S
C2384 N2391 1.356 . S
C2385 C2384 1.363 . S
C2385 C2388 1.363 . S
N2386 C2388 1.356 . S
N2386 H2398 0.984 . S
N2386 H2399 0.985 . S
N2387 C2389 1.356 . S
N2387 H2392 0.984 . S
N2387 H2393 0.985 . S
C2388 C2382 1.379 . S
C2388 C2385 1.363 . S
C2388 N2386 1.356 . S
C2389 C2383 1.363 . S
C2389 C2384 1.379 . S
C2389 N2387 1.356 . S
N2390 C2382 1.356 . S
N2390 H2396 0.984 . S
N2390 H2397 0.984 . S
N2391 C2384 1.356 . S
N2391 H2394 0.984 . S
N2391 H2395 0.985 . S
H2392 N2387 0.984 . S
H2393 N2387 0.985 . S
H2394 N2391 0.984 . S
H2395 N2391 0.985 . S
H2396 N2390 0.984 . S
H2397 N2390 0.984 . S
H2398 N2386 0.984 . S
H2399 N2386 0.985 . S
C2400 C2401 1.363 . S
C2400 C2406 1.379 . S
C2400 N2408 1.356 . S
C2401 C2400 1.363 . S
C2401 C2407 1.363 . S
C2402 C2403 1.363 . S
C2402 C2407 1.379 . S
C2402 N2409 1.356 . S
C2403 C2402 1.363 . S
C2403 C2406 1.363 . S
N2404 C2406 1.356 . S
N2404 H2416 0.984 . S
N2404 H2417 0.985 . S
N2405 C2407 1.356 . S
N2405 H2410 0.984 . S
N2405 H2411 0.985 . S
C2406 C2400 1.379 . S
C2406 C2403 1.363 . S
C2406 N2404 1.356 . S
C2407 C2401 1.363 . S
C2407 C2402 1.379 . S
C2407 N2405 1.356 . S
N2408 C2400 1.356 . S
N2408 H2414 0.984 . S
N2408 H2415 0.984 . S
N2409 C2402 1.356 . S
N2409 H2412 0.984 . S
N2409 H2413 0.985 . S
H2410 N2405 0.984 . S
H2411 N2405 0.985 . S
H2412 N2409 0.984 . S
H2413 N2409 0.985 . S
H2414 N2408 0.984 . S
H2415 N2408 0.984 . S
H2416 N2404 0.984 . S
H2417 N2404 0.985 . S
C2418 C2419 1.363 . S
C2418 C2424 1.379 . S
C2418 N2426 1.356 . S
C2419 C2418 1.363 . S
C2419 C2425 1.363 . S
C2420 C2421 1.363 . S
C2420 C2425 1.379 . S
C2420 N2427 1.356 . S
C2421 C2420 1.363 . S
C2421 C2424 1.363 . S
N2422 C2424 1.356 . S
N2422 H2434 0.984 . S
N2422 H2435 0.985 . S
N2423 C2425 1.356 . S
N2423 H2428 0.984 . S
N2423 H2429 0.985 . S
C2424 C2418 1.379 . S
C2424 C2421 1.363 . S
C2424 N2422 1.356 . S
C2425 C2419 1.363 . S
C2425 C2420 1.379 . S
C2425 N2423 1.356 . S
N2426 C2418 1.356 . S
N2426 H2432 0.984 . S
N2426 H2433 0.984 . S
N2427 C2420 1.356 . S
N2427 H2430 0.984 . S
N2427 H2431 0.985 . S
H2428 N2423 0.984 . S
H2429 N2423 0.985 . S
H2430 N2427 0.984 . S
H2431 N2427 0.985 . S
H2432 N2426 0.984 . S
H2433 N2426 0.984 . S
H2434 N2422 0.984 . S
H2435 N2422 0.985 . S
C2436 C2437 1.363 . S
C2436 C2442 1.379 . S
C2436 N2444 1.356 . S
C2437 C2436 1.363 . S
C2437 C2443 1.363 . S
C2438 C2439 1.363 . S
C2438 C2443 1.379 . S
C2438 N2445 1.356 . S
C2439 C2438 1.363 . S
C2439 C2442 1.363 . S
N2440 C2442 1.356 . S
N2440 H2452 0.984 . S
N2440 H2453 0.985 . S
N2441 C2443 1.356 . S
N2441 H2446 0.984 . S
N2441 H2447 0.985 . S
C2442 C2436 1.379 . S
C2442 C2439 1.363 . S
C2442 N2440 1.356 . S
C2443 C2437 1.363 . S
C2443 C2438 1.379 . S
C2443 N2441 1.356 . S
N2444 C2436 1.356 . S
N2444 H2450 0.984 . S
N2444 H2451 0.984 . S
N2445 C2438 1.356 . S
N2445 H2448 0.984 . S
N2445 H2449 0.985 . S
H2446 N2441 0.984 . S
H2447 N2441 0.985 . S
H2448 N2445 0.984 . S
H2449 N2445 0.985 . S
H2450 N2444 0.984 . S
H2451 N2444 0.984 . S
H2452 N2440 0.984 . S
H2453 N2440 0.985 . S
C2454 C2455 1.363 . S
C2454 C2460 1.379 . S
C2454 N2462 1.356 . S
C2455 C2454 1.363 . S
C2455 C2461 1.387 . S
C2456 C2457 1.363 1_556 S
C2456 C2461 1.374 1_556 S
C2456 N2463 1.356 1_565 S
C2457 C2456 1.363 1_554 S
C2457 C2460 1.363 . S
N2458 C2460 1.356 . S
N2458 H2470 0.984 . S
N2458 H2471 0.985 1_565 S
N2459 C2461 1.343 1_556 S
N2459 H2464 0.984 . S
N2459 H2465 0.985 . S
C2460 C2454 1.379 . S
C2460 C2457 1.363 . S
C2460 N2458 1.356 . S
C2461 C2455 1.387 . S
C2461 C2456 1.374 1_554 S
C2461 N2459 1.343 1_554 S
N2462 C2454 1.356 . S
N2462 H2468 0.984 . S
N2462 H2469 0.984 . S
N2463 C2456 1.356 1_545 S
N2463 H2466 0.984 . S
N2463 H2467 0.985 . S
H2464 N2459 0.984 . S
H2465 N2459 0.985 . S
H2466 N2463 0.984 . S
H2467 N2463 0.985 . S
H2468 N2462 0.984 . S
H2469 N2462 0.984 . S
H2470 N2458 0.984 . S
H2471 N2458 0.985 1_545 S
C2472 C2473 1.363 . S
C2472 C2478 1.379 . S
C2472 N2480 1.356 . S
C2473 C2472 1.363 . S
C2473 C2479 1.363 . S
C2474 C2475 1.363 . S
C2474 C2479 1.379 . S
C2474 N2481 1.356 . S
C2475 C2474 1.363 . S
C2475 C2478 1.363 . S
N2476 C2478 1.356 . S
N2476 H2488 0.984 . S
N2476 H2489 0.985 . S
N2477 C2479 1.356 . S
N2477 H2482 0.984 . S
N2477 H2483 0.985 . S
C2478 C2472 1.379 . S
C2478 C2475 1.363 . S
C2478 N2476 1.356 . S
C2479 C2473 1.363 . S
C2479 C2474 1.379 . S
C2479 N2477 1.356 . S
N2480 C2472 1.356 . S
N2480 H2486 0.984 . S
N2480 H2487 0.984 . S
N2481 C2474 1.356 . S
N2481 H2484 0.984 . S
N2481 H2485 0.985 . S
H2482 N2477 0.984 . S
H2483 N2477 0.985 . S
H2484 N2481 0.984 . S
H2485 N2481 0.985 . S
H2486 N2480 0.984 . S
H2487 N2480 0.984 . S
H2488 N2476 0.984 . S
H2489 N2476 0.985 . S
C2490 C2491 1.363 1_556 S
C2490 C2496 1.379 1_556 S
C2490 N2498 1.356 . S
C2491 C2490 1.363 1_554 S
C2491 C2497 1.363 . S
C2492 C2493 1.363 . S
C2492 C2497 1.379 . S
C2492 N2499 1.356 . S
C2493 C2492 1.363 . S
C2493 C2496 1.363 . S
N2494 C2496 1.356 . S
N2494 H2506 0.984 1_554 S
N2494 H2507 0.985 . S
N2495 C2497 1.356 . S
N2495 H2500 0.984 . S
N2495 H2501 0.985 . S
C2496 C2490 1.379 1_554 S
C2496 C2493 1.363 . S
C2496 N2494 1.356 . S
C2497 C2491 1.363 . S
C2497 C2492 1.379 . S
C2497 N2495 1.356 . S
N2498 C2490 1.356 . S
N2498 H2504 0.984 . S
N2498 H2505 0.984 . S
N2499 C2492 1.356 . S
N2499 H2502 0.984 . S
N2499 H2503 0.985 . S
H2500 N2495 0.984 . S
H2501 N2495 0.985 . S
H2502 N2499 0.984 . S
H2503 N2499 0.985 . S
H2504 N2498 0.984 . S
H2505 N2498 0.984 . S
H2506 N2494 0.984 1_556 S
H2507 N2494 0.985 . S
C2508 C2509 1.363 . S
C2508 C2514 1.379 . S
C2508 N2516 1.356 . S
C2509 C2508 1.363 . S
C2509 C2515 1.363 . S
C2510 C2511 1.363 . S
C2510 C2515 1.379 . S
C2510 N2517 1.356 . S
C2511 C2510 1.363 . S
C2511 C2514 1.363 . S
N2512 C2514 1.356 . S
N2512 H2524 0.984 . S
N2512 H2525 0.985 . S
N2513 C2515 1.356 . S
N2513 H2518 0.984 . S
N2513 H2519 0.985 . S
C2514 C2508 1.379 . S
C2514 C2511 1.363 . S
C2514 N2512 1.356 . S
C2515 C2509 1.363 . S
C2515 C2510 1.379 . S
C2515 N2513 1.356 . S
N2516 C2508 1.356 . S
N2516 H2522 0.984 . S
N2516 H2523 0.984 . S
N2517 C2510 1.356 . S
N2517 H2520 0.984 . S
N2517 H2521 0.985 . S
H2518 N2513 0.984 . S
H2519 N2513 0.985 . S
H2520 N2517 0.984 . S
H2521 N2517 0.985 . S
H2522 N2516 0.984 . S
H2523 N2516 0.984 . S
H2524 N2512 0.984 . S
H2525 N2512 0.985 . S
C2526 C2527 1.363 . S
C2526 C2532 1.379 . S
C2526 N2534 1.356 . S
C2527 C2526 1.363 . S
C2527 C2533 1.363 . S
C2528 C2529 1.363 . S
C2528 C2533 1.379 . S
C2528 N2535 1.356 . S
C2529 C2528 1.363 . S
C2529 C2532 1.363 . S
N2530 C2532 1.356 . S
N2530 H2542 0.984 . S
N2530 H2543 0.985 . S
N2531 C2533 1.356 . S
N2531 H2536 0.984 . S
N2531 H2537 0.985 . S
C2532 C2526 1.379 . S
C2532 C2529 1.363 . S
C2532 N2530 1.356 . S
C2533 C2527 1.363 . S
C2533 C2528 1.379 . S
C2533 N2531 1.356 . S
N2534 C2526 1.356 . S
N2534 H2540 0.984 . S
N2534 H2541 0.984 . S
N2535 C2528 1.356 . S
N2535 H2538 0.984 . S
N2535 H2539 0.985 . S
H2536 N2531 0.984 . S
H2537 N2531 0.985 . S
H2538 N2535 0.984 . S
H2539 N2535 0.985 . S
H2540 N2534 0.984 . S
H2541 N2534 0.984 . S
H2542 N2530 0.984 . S
H2543 N2530 0.985 . S
C819 C337 1.916 . S
C817 C7 1.948 . S
C835 C22 1.110 . S
C837 C382 1.117 . S
C853 C31 1.831 . S
C855 C406 1.796 . S
C873 N432 1.263 . S
C871 C51 1.230 . S
C889 C17 1.315 . S
C891 N462 1.332 . S
C909 C496 1.648 . S
C907 C36 1.683 . S
C927 C532 1.303 1_556 S
C925 C49 1.259 . S
C943 C9 1.899 . S
C945 C556 1.858 . S
C961 C63 1.089 . S
C963 N350 1.105 1_545 S
C979 C73 1.315 . S
C981 N372 1.332 . S
C999 C412 1.163 . S
C997 C91 1.120 . S
C1017 C436 1.829 . S
C1015 C101 1.870 . S
C1033 C59 1.353 . S
C1035 C466 1.302 . S
C1053 C502 1.237 . S
C1051 C77 1.182 . S
C1071 N522 1.277 . S
C1069 C87 1.259 . S
C1089 C562 1.838 . S
C1087 C105 1.854 . S
C1107 C363 1.797 . S
C1105 C107 1.830 . S
C1125 C592 1.131 . S
C1123 C120 1.122 . S
C1141 C135 1.266 . S
C1143 N612 1.301 . S
C1161 C646 1.651 . S
C1159 C148 1.688 . S
C1177 C65 1.056 . S
C1179 N552 1.060 . S
C1197 N402 1.286 1_565 S
C1195 C79 1.252 . S
C1213 C134 1.157 . S
C1215 C682 1.164 . S
C1233 C706 1.155 . S
C1231 C162 1.198 . S
C1249 C171 1.915 . S
C1251 C346 1.884 1_556 S
C1269 C723 1.083 . S
C1267 C190 1.082 . S
C1285 C203 1.759 . S
C1287 C397 1.767 . S
C1303 C219 1.222 . S
C1305 N680 1.243 . S
C1323 N470 1.311 . S
C1321 C189 1.202 . S
C1341 C607 1.620 . S
C1339 C204 1.649 . S
C1359 C543 1.261 . S
C1357 C213 1.271 . S
C1377 C727 1.830 . S
C1375 C177 1.879 . S
C1395 N342 1.088 . S
C1393 C227 1.086 . S
C1411 C245 1.195 . S
C1413 N710 1.314 . S
C1431 C423 1.124 . S
C1429 C255 1.134 . S
C1447 C273 1.780 . S
C1449 C667 1.799 . S
C1465 C231 1.225 . S
C1467 C457 1.272 1_655 S
C1483 C241 1.206 . S
C1485 C633 1.197 . S
C1503 N530 1.264 . S
C1501 C259 1.156 . S
C1519 C269 1.832 . S
C1521 C753 1.808 . S
C1537 C275 1.809 . S
C1539 C352 1.766 1_565 S
C1555 C288 1.095 1_554 S
C1557 C603 1.096 . S
C1573 C303 1.260 . S
C1575 N500 1.282 . S
C1591 C316 1.652 . S
C1593 C637 1.621 . S
C1611 N740 1.044 . S
C1609 C233 1.042 1_565 S
C1629 N410 1.268 . S
C1627 C247 1.247 . S
C1647 C453 1.132 . S
C1645 C302 1.130 . S
C1665 C367 1.127 . S
C1663 C330 1.150 . S
C1681 C35 1.948 . S
C1683 C757 1.916 . S
C1701 C712 1.117 . S
C1699 C50 1.110 . S
C1719 C796 1.796 . S
C1717 C3 1.831 . S
C1735 C23 1.230 1_655 S
C1737 N672 1.263 . S
C1753 C45 1.315 . S
C1755 N582 1.332 1_556 S
C1773 C616 1.648 . S
C1771 C8 1.683 . S
C1791 C652 1.303 . S
C1789 C21 1.259 . S
C1809 C736 1.858 . S
C1807 C37 1.899 . S
C1827 N770 1.105 . S
C1825 C161 1.089 . S
C1843 C115 1.315 1_556 S
C1845 N702 1.332 . S
C1861 C133 1.120 . S
C1863 C802 1.163 1_655 S
C1881 C676 1.829 . S
C1879 C143 1.870 . S
C1899 C586 1.302 . S
C1897 C157 1.353 . S
C1915 C119 1.182 . S
C1917 C622 1.237 . S
C1935 N642 1.277 . S
C1933 C129 1.259 . S
C1951 C147 1.854 . S
C1953 C742 1.838 . S
C1971 C783 1.797 . S
C1969 C149 1.830 . S
C1989 C472 1.137 . S
C1987 C78 1.122 . S
C2007 N492 1.301 . S
C2005 C93 1.266 1_565 S
C2023 C106 1.688 . S
C2025 C526 1.651 . S
C2043 N732 1.060 . S
C2041 C163 1.056 . S
C2059 C121 1.252 . S
C2061 N792 1.286 . S
C2079 C442 1.164 . S
C2077 C92 1.157 . S
C2097 C376 1.155 . S
C2095 C64 1.198 . S
C2113 C199 1.915 . S
C2115 C766 1.884 . S
C2133 C393 1.083 . S
C2131 C218 1.082 . S
C2151 C787 1.767 1_556 S
C2149 C175 1.759 . S
C2167 C191 1.222 . S
C2169 N440 1.243 . S
C2185 C217 1.202 . S
C2187 N590 1.311 . S
C2203 C176 1.649 . S
C2205 C487 1.620 . S
C2221 C185 1.275 . S
C2223 C663 1.261 . S
C2239 C205 1.879 . S
C2241 C547 1.830 . S
C2259 N762 1.088 . S
C2257 C325 1.086 . S
C2275 C287 1.194 . S
C2277 N380 1.311 . S
C2295 C813 1.124 . S
C2293 C297 1.134 . S
C2311 C315 1.780 . S
C2313 C427 1.799 . S
C2329 C329 1.225 . S
C2331 C577 1.272 . S
C2349 C513 1.197 . S
C2347 C283 1.209 . S
C2365 C301 1.156 . S
C2367 N650 1.264 . S
C2385 C573 1.808 . S
C2383 C311 1.832 . S
C2403 C772 1.770 . S
C2401 C317 1.809 . S
C2421 C483 1.098 . S
C2419 C246 1.095 . S
C2437 C261 1.260 . S
C2439 N620 1.282 . S
C2457 C517 1.621 1_565 S
C2455 C274 1.652 . S
C2475 N560 1.044 . S
C2473 C331 1.042 . S
C2491 C289 1.248 . S
C2493 N800 1.267 . S
C2511 C693 1.132 . S
C2509 C260 1.130 . S
C2529 C697 1.127 . S
C2527 C232 1.150 . S
