# Generated by pormake.
# Topology zzz, (3,6)-cn, num edge types: 1
# Building blocks:
#     Node 0, Type 0, BuildingBlock: OLANEW_clean_sbu_2, # of connection points: 3
#     Node 1, Type 0, BuildingBlock: OLANEW_clean_sbu_2, # of connection points: 3
#     Node 2, Type 0, BuildingBlock: OLANEW_clean_sbu_2, # of connection points: 3
#     Node 3, Type 0, BuildingBlock: OLANEW_clean_sbu_2, # of connection points: 3
#     Node 4, Type 0, BuildingBlock: OLANEW_clean_sbu_2, # of connection points: 3
#     Node 5, Type 0, BuildingBlock: OLANEW_clean_sbu_2, # of connection points: 3
#     Node 6, Type 0, BuildingBlock: OLANEW_clean_sbu_2, # of connection points: 3
#     Node 7, Type 0, BuildingBlock: OLANEW_clean_sbu_2, # of connection points: 3
#     Node 8, Type 1, BuildingBlock: MIFKUJ_clean_sbu_0, # of connection points: 6
#     Node 9, Type 1, BuildingBlock: MIFKUJ_clean_sbu_0, # of connection points: 6
#     Node 10, Type 1, BuildingBlock: MIFKUJ_clean_sbu_0, # of connection points: 6
#     Node 11, Type 1, BuildingBlock: MIFKUJ_clean_sbu_0, # of connection points: 6
#     Edge 12, Type (0, 1), BuildingBlock: CIFDUS_clean_linker_0, # of connection points: 2
#     Edge 13, Type (0, 1), BuildingBlock: CIFDUS_clean_linker_0, # of connection points: 2
#     Edge 14, Type (0, 1), BuildingBlock: CIFDUS_clean_linker_0, # of connection points: 2
#     Edge 15, Type (0, 1), BuildingBlock: CIFDUS_clean_linker_0, # of connection points: 2
#     Edge 16, Type (0, 1), BuildingBlock: CIFDUS_clean_linker_0, # of connection points: 2
#     Edge 17, Type (0, 1), BuildingBlock: CIFDUS_clean_linker_0, # of connection points: 2
#     Edge 18, Type (0, 1), BuildingBlock: CIFDUS_clean_linker_0, # of connection points: 2
#     Edge 19, Type (0, 1), BuildingBlock: CIFDUS_clean_linker_0, # of connection points: 2
#     Edge 20, Type (0, 1), BuildingBlock: CIFDUS_clean_linker_0, # of connection points: 2
#     Edge 21, Type (0, 1), BuildingBlock: CIFDUS_clean_linker_0, # of connection points: 2
#     Edge 22, Type (0, 1), BuildingBlock: CIFDUS_clean_linker_0, # of connection points: 2
#     Edge 23, Type (0, 1), BuildingBlock: CIFDUS_clean_linker_0, # of connection points: 2
#     Edge 24, Type (0, 1), BuildingBlock: CIFDUS_clean_linker_0, # of connection points: 2
#     Edge 25, Type (0, 1), BuildingBlock: CIFDUS_clean_linker_0, # of connection points: 2
#     Edge 26, Type (0, 1), BuildingBlock: CIFDUS_clean_linker_0, # of connection points: 2
#     Edge 27, Type (0, 1), BuildingBlock: CIFDUS_clean_linker_0, # of connection points: 2
#     Edge 28, Type (0, 1), BuildingBlock: CIFDUS_clean_linker_0, # of connection points: 2
#     Edge 29, Type (0, 1), BuildingBlock: CIFDUS_clean_linker_0, # of connection points: 2
#     Edge 30, Type (0, 1), BuildingBlock: CIFDUS_clean_linker_0, # of connection points: 2
#     Edge 31, Type (0, 1), BuildingBlock: CIFDUS_clean_linker_0, # of connection points: 2
#     Edge 32, Type (0, 1), BuildingBlock: CIFDUS_clean_linker_0, # of connection points: 2
#     Edge 33, Type (0, 1), BuildingBlock: CIFDUS_clean_linker_0, # of connection points: 2
#     Edge 34, Type (0, 1), BuildingBlock: CIFDUS_clean_linker_0, # of connection points: 2
#     Edge 35, Type (0, 1), BuildingBlock: CIFDUS_clean_linker_0, # of connection points: 2
# Relax obj value: 0.119
# Max RMSD: 0.126
# Mean RMSD: 0.090
data_MOF--net-zzz--node1-OLANEW_clean_sbu_2--node2-MIFKUJ_clean_sbu_0--edge1-CIFDUS_clean_linker_0
_symmetry_space_group_name_H-M    P1
_symmetry_Int_Tables_number       1
_symmetry_cell_setting            triclinic
loop_
_symmetry_equiv_pos_as_xyz
'x, y, z'
_cell_length_a     46.796073
_cell_length_b     47.435114
_cell_length_c     15.789129
_cell_angle_alpha  89.939356
_cell_angle_beta   89.940243
_cell_angle_gamma 90.071976
loop_
_atom_site_label
_atom_site_type_symbol
_atom_site_fract_x
_atom_site_fract_y
_atom_site_fract_z
_atom_type_partial_charge
O0 O 0.76515 0.6236 0.89584 0.0
Cd1 Cd 0.71851 0.64133 0.93995 0.0
O2 O 0.77442 0.60611 0.02166 0.0
Cd3 Cd 0.80342 0.58725 0.1144 0.0
O4 O 0.83384 0.56891 0.20345 0.0
C5 C 0.85847 0.57973 0.21368 0.0
O6 O 0.86558 0.60211 0.16929 0.0
C7 C 0.78194 0.61053 0.94538 0.0
C8 C 0.67369 0.60667 0.88817 0.0
O9 O 0.68424 0.62527 0.83819 0.0
O10 O 0.68445 0.60433 0.96248 0.0
O11 O 0.11357 0.78382 0.81208 0.0
Cd12 Cd 0.13769 0.73925 0.84166 0.0
O13 O 0.13287 0.80128 0.92717 0.0
Cd14 Cd 0.13511 0.8345 0.02213 0.0
O15 O 0.12608 0.86658 0.11666 0.0
C16 C 0.10041 0.8745 0.12773 0.0
O17 O 0.08016 0.86347 0.08059 0.0
C18 C 0.1171 0.8044 0.8624 0.0
C19 C 0.10572 0.69251 0.79125 0.0
O20 O 0.10328 0.70259 0.86621 0.0
O21 O 0.12314 0.70467 0.74018 0.0
O22 O 0.73137 0.88741 0.88983 0.0
Cd23 Cd 0.77933 0.8717 0.92875 0.0
O24 O 0.72585 0.91004 0.00974 0.0
Cd25 Cd 0.70128 0.9326 0.10616 0.0
O26 O 0.6778 0.95398 0.20675 0.0
C27 C 0.6511 0.95019 0.21636 0.0
O28 O 0.63749 0.93343 0.16381 0.0
C29 C 0.71588 0.90227 0.93856 0.0
C30 C 0.82326 0.90673 0.87177 0.0
O31 O 0.8124 0.88788 0.82338 0.0
O32 O 0.81303 0.90933 0.94671 0.0
O33 O 0.38459 0.7235 0.8491 0.0
Cd34 Cd 0.36101 0.76766 0.88709 0.0
O35 O 0.37241 0.70768 0.97452 0.0
Cd36 Cd 0.37706 0.67571 0.07224 0.0
O37 O 0.3937 0.64413 0.15857 0.0
C38 C 0.4205 0.63996 0.16248 0.0
O39 O 0.43759 0.65474 0.11341 0.0
C40 C 0.38433 0.70369 0.90325 0.0
C41 C 0.39553 0.81501 0.86321 0.0
O42 O 0.39507 0.80213 0.93462 0.0
O43 O 0.3799 0.8053 0.8033 0.0
O44 O 0.2357 0.39885 0.36022 0.0
Cd45 Cd 0.27799 0.38521 0.28053 0.0
O46 O 0.22302 0.43314 0.2739 0.0
Cd47 Cd 0.24721 0.42135 0.16193 0.0
O48 O 0.21779 0.42791 0.05608 0.0
C49 C 0.20394 0.45093 0.06014 0.0
O50 O 0.21025 0.46888 0.12067 0.0
C51 C 0.21983 0.41979 0.343 0.0
C52 C 0.32552 0.4122 0.35003 0.0
O53 O 0.31585 0.38931 0.3823 0.0
O54 O 0.31299 0.42213 0.28431 0.0
O55 O 0.89299 0.24018 0.40768 0.0
Cd56 Cd 0.86948 0.28602 0.39906 0.0
O57 O 0.90673 0.24294 0.27451 0.0
Cd58 Cd 0.92587 0.22149 0.16561 0.0
O59 O 0.93554 0.1882 0.07431 0.0
C60 C 0.91573 0.17041 0.06089 0.0
O61 O 0.89136 0.17334 0.10137 0.0
C62 C 0.90611 0.22973 0.34457 0.0
C63 C 0.89771 0.3266 0.496 0.0
O64 O 0.87634 0.31305 0.5266 0.0
O65 O 0.90557 0.32092 0.42012 0.0
O66 O 0.26997 0.08114 0.29269 0.0
Cd67 Cd 0.22723 0.09196 0.21045 0.0
O68 O 0.28596 0.12448 0.27858 0.0
Cd69 Cd 0.26616 0.12712 0.15426 0.0
O70 O 0.29266 0.11294 0.04829 0.0
C71 C 0.30242 0.088 0.05429 0.0
O72 O 0.29383 0.07208 0.11754 0.0
C73 C 0.28732 0.10049 0.31417 0.0
C74 C 0.17845 0.07087 0.29116 0.0
O75 O 0.19031 0.05738 0.23025 0.0
O76 O 0.18953 0.09438 0.31381 0.0
O77 O 0.60852 0.26903 0.43877 0.0
Cd78 Cd 0.6327 0.22355 0.43192 0.0
O79 O 0.59511 0.26568 0.30563 0.0
Cd80 Cd 0.5762 0.2865 0.19548 0.0
O81 O 0.56697 0.31948 0.10289 0.0
C82 C 0.58785 0.33511 0.08151 0.0
O83 O 0.61309 0.33018 0.11475 0.0
C84 C 0.59542 0.27913 0.37518 0.0
C85 C 0.59671 0.17989 0.48374 0.0
O86 O 0.61294 0.19248 0.53704 0.0
O87 O 0.59761 0.18796 0.40626 0.0
Zn88 Zn 0.97976 0.03055 0.56238 0.0
Zn89 Zn 0.01398 0.98774 0.65489 0.0
C90 C 0.95693 0.0583 0.70478 0.0
O91 O 0.93358 0.05044 0.66507 0.0
C92 C 0.03966 0.96254 0.51687 0.0
O93 O 0.06097 0.96858 0.5679 0.0
O94 O 0.95743 0.05767 0.49071 0.0
O95 O 0.01951 0.02772 0.51497 0.0
O96 O 0.03887 0.0227 0.64106 0.0
C97 C 0.96969 0.07968 0.46258 0.0
O98 O 0.99743 0.08244 0.47222 0.0
O99 O 0.98102 0.05094 0.67476 0.0
C100 C 0.02024 0.93475 0.72552 0.0
O101 O 0.99567 0.93336 0.68555 0.0
O102 O 0.03343 0.95824 0.72716 0.0
O103 O 0.97374 0.99065 0.70126 0.0
O104 O 0.95617 0.99516 0.57357 0.0
O105 O 0.01439 0.96897 0.53965 0.0
C106 C 0.04082 0.03058 0.5641 0.0
C107 C 0.95352 0.98649 0.64921 0.0
Zn108 Zn 0.46374 0.01209 0.65316 0.0
Zn109 Zn 0.518 0.99645 0.75265 0.0
C110 C 0.42124 0.00943 0.78045 0.0
O111 O 0.41502 0.98659 0.73726 0.0
C112 C 0.55483 0.99631 0.60967 0.0
O113 O 0.56907 0.01315 0.66052 0.0
O114 O 0.43385 0.01912 0.5654 0.0
O115 O 0.49609 0.03851 0.62735 0.0
O116 O 0.51349 0.0388 0.75647 0.0
C117 C 0.42286 0.04359 0.56545 0.0
O118 O 0.4333 0.06282 0.61673 0.0
O119 O 0.44316 0.02381 0.76005 0.0
C120 C 0.5619 0.96171 0.8161 0.0
O121 O 0.54862 0.94412 0.76527 0.0
O122 O 0.55179 0.98637 0.82562 0.0
O123 O 0.48552 0.97041 0.78551 0.0
O124 O 0.47093 0.97033 0.6536 0.0
O125 O 0.53093 0.98645 0.63423 0.0
C126 C 0.51059 0.05065 0.68469 0.0
C127 C 0.47311 0.95792 0.72456 0.0
Zn128 Zn 0.5195 0.47708 0.59447 0.0
Zn129 Zn 0.48401 0.51875 0.68892 0.0
C130 C 0.54471 0.44988 0.73472 0.0
O131 O 0.56751 0.45758 0.69184 0.0
C132 C 0.45391 0.54073 0.55563 0.0
O133 O 0.43453 0.53318 0.61158 0.0
O134 O 0.54195 0.45037 0.52165 0.0
O135 O 0.47909 0.47781 0.55261 0.0
O136 O 0.46097 0.48235 0.68069 0.0
C137 C 0.53002 0.42841 0.49212 0.0
O138 O 0.50227 0.42531 0.50081 0.0
O139 O 0.52025 0.45731 0.70774 0.0
C140 C 0.47745 0.57206 0.75356 0.0
O141 O 0.50095 0.57315 0.70806 0.0
O142 O 0.46485 0.54838 0.76188 0.0
O143 O 0.52497 0.51776 0.72983 0.0
O144 O 0.54167 0.51343 0.60103 0.0
O145 O 0.48017 0.53665 0.57283 0.0
C146 C 0.45874 0.47363 0.6046 0.0
C147 C 0.54459 0.52245 0.67609 0.0
Zn148 Zn 0.03367 0.49979 0.65343 0.0
Zn149 Zn 0.97367 0.50834 0.74276 0.0
C150 C 0.07475 0.50791 0.78064 0.0
O151 O 0.07887 0.53027 0.73304 0.0
C152 C 0.93817 0.50584 0.60064 0.0
O153 O 0.92745 0.4861 0.64981 0.0
O154 O 0.06495 0.49559 0.56789 0.0
O155 O 0.00555 0.46958 0.62368 0.0
O156 O 0.9801 0.46619 0.74078 0.0
C157 C 0.0788 0.4727 0.57565 0.0
O158 O 0.07047 0.45423 0.63269 0.0
O159 O 0.05442 0.49109 0.76284 0.0
C160 C 0.93024 0.54201 0.80639 0.0
O161 O 0.94442 0.5593 0.75658 0.0
O162 O 0.93938 0.51695 0.81543 0.0
O163 O 0.00454 0.53513 0.7824 0.0
O164 O 0.02114 0.54028 0.65364 0.0
O165 O 0.96031 0.51906 0.62531 0.0
C166 C 0.98898 0.45557 0.67165 0.0
C167 C 0.01682 0.55035 0.72697 0.0
H168 H 0.15902 0.08267 0.44982 0.0
H169 H 0.13967 0.03404 0.22621 0.0
H170 H 0.0955 0.0172 0.29162 0.0
H171 H 0.06163 0.01753 0.41012 0.0
H172 H 0.08206 0.0631 0.63823 0.0
H173 H 0.12669 0.07992 0.57357 0.0
C174 C 0.1451 0.06839 0.41554 0.0
C175 C 0.15241 0.05987 0.33292 0.0
C176 C 0.11998 0.05834 0.45423 0.0
C177 C 0.13447 0.04096 0.28975 0.0
C178 C 0.10919 0.03138 0.327 0.0
C179 C 0.07589 0.03116 0.4456 0.0
C180 C 0.06852 0.03947 0.5282 0.0
C181 C 0.10161 0.04015 0.40878 0.0
C182 C 0.08736 0.05656 0.5744 0.0
C183 C 0.11277 0.06621 0.53736 0.0
H184 H 0.59218 0.15598 0.64049 0.0
H185 H 0.55843 0.15124 0.38641 0.0
H186 H 0.5279 0.1119 0.42779 0.0
H187 H 0.51188 0.078 0.534 0.0
H188 H 0.546 0.0815 0.78773 0.0
H189 H 0.57511 0.12238 0.7486 0.0
C190 C 0.57807 0.14641 0.59425 0.0
C191 C 0.5777 0.15652 0.51035 0.0
C192 C 0.56062 0.12361 0.61834 0.0
C193 C 0.55926 0.14386 0.4513 0.0
C194 C 0.54175 0.12135 0.4749 0.0
C195 C 0.52552 0.08775 0.58114 0.0
C196 C 0.52676 0.07662 0.66371 0.0
C197 C 0.54241 0.11094 0.55798 0.0
C198 C 0.54461 0.08961 0.72373 0.0
C199 C 0.56132 0.11295 0.70132 0.0
H200 H 0.34558 0.40804 0.51136 0.0
H201 H 0.36135 0.44916 0.27182 0.0
H202 H 0.40364 0.47213 0.3305 0.0
H203 H 0.43685 0.47944 0.44806 0.0
H204 H 0.42021 0.44085 0.69051 0.0
H205 H 0.3773 0.41809 0.63284 0.0
C206 C 0.35832 0.42201 0.47211 0.0
C207 C 0.35056 0.42666 0.38709 0.0
C208 C 0.38235 0.43557 0.50676 0.0
C209 C 0.36693 0.44519 0.33732 0.0
C210 C 0.39113 0.4583 0.37077 0.0
C211 C 0.42381 0.46602 0.48828 0.0
C212 C 0.43178 0.46144 0.57299 0.0
C213 C 0.39914 0.45346 0.45509 0.0
C214 C 0.41444 0.44459 0.62503 0.0
C215 C 0.39003 0.43152 0.59197 0.0
H216 H 0.94899 0.35036 0.46152 0.0
H217 H 0.87985 0.35219 0.64228 0.0
H218 H 0.90313 0.39094 0.71792 0.0
H219 H 0.94171 0.42654 0.72641 0.0
H220 H 0.01054 0.42381 0.54413 0.0
H221 H 0.98895 0.38303 0.47631 0.0
C222 C 0.93905 0.35912 0.51771 0.0
C223 C 0.91259 0.34862 0.54563 0.0
C224 C 0.95252 0.38128 0.56077 0.0
C225 C 0.90019 0.35997 0.61924 0.0
C226 C 0.91347 0.38216 0.66247 0.0
C227 C 0.9522 0.41672 0.67276 0.0
C228 C 0.97757 0.42843 0.64001 0.0
C229 C 0.93947 0.39329 0.63307 0.0
C230 C 0.99085 0.41545 0.57024 0.0
C231 C 0.97851 0.39212 0.53116 0.0
H232 H 0.84153 0.91499 0.71011 0.0
H233 H 0.85956 0.93787 0.9691 0.0
H234 H 0.90139 0.96466 0.92302 0.0
H235 H 0.93365 0.98046 0.80963 0.0
H236 H 0.91455 0.95936 0.55005 0.0
H237 H 0.87229 0.93307 0.59583 0.0
C238 C 0.85457 0.92591 0.75641 0.0
C239 C 0.84756 0.92428 0.84294 0.0
C240 C 0.87843 0.94154 0.7294 0.0
C241 C 0.86448 0.9388 0.9021 0.0
C242 C 0.88846 0.95406 0.87585 0.0
C243 C 0.92021 0.97011 0.76311 0.0
C244 C 0.92732 0.97164 0.67668 0.0
C245 C 0.89577 0.95537 0.78977 0.0
C246 C 0.90951 0.95849 0.61698 0.0
C247 C 0.88539 0.9434 0.64312 0.0
H248 H 0.40258 0.84467 0.71778 0.0
H249 H 0.42775 0.84319 0.98062 0.0
H250 H 0.45482 0.88683 0.96071 0.0
H251 H 0.47005 0.92631 0.86931 0.0
H252 H 0.44439 0.92718 0.60658 0.0
H253 H 0.41896 0.88289 0.62601 0.0
C254 C 0.41405 0.85381 0.77076 0.0
C255 C 0.41301 0.84073 0.85061 0.0
C256 C 0.42949 0.87887 0.75896 0.0
C257 C 0.42814 0.85283 0.91842 0.0
C258 C 0.44361 0.87782 0.90714 0.0
C259 C 0.45902 0.91673 0.81624 0.0
C260 C 0.45908 0.93019 0.73674 0.0
C261 C 0.44425 0.89116 0.82779 0.0
C262 C 0.44469 0.91741 0.66861 0.0
C263 C 0.43008 0.89204 0.67957 0.0
H264 H 0.65482 0.59729 0.72783 0.0
H265 H 0.63805 0.57592 0.98898 0.0
H266 H 0.59669 0.54793 0.94622 0.0
H267 H 0.5647 0.53036 0.83513 0.0
H268 H 0.58248 0.54991 0.57337 0.0
H269 H 0.62412 0.5777 0.61585 0.0
C270 C 0.64212 0.58647 0.77534 0.0
C271 C 0.64938 0.58883 0.86149 0.0
C272 C 0.61857 0.57012 0.75022 0.0
C273 C 0.63293 0.57444 0.92225 0.0
C274 C 0.60923 0.55848 0.89789 0.0
C275 C 0.5777 0.54071 0.78737 0.0
C276 C 0.57043 0.53827 0.70131 0.0
C277 C 0.60176 0.55632 0.81215 0.0
C278 C 0.58767 0.55146 0.64005 0.0
C279 C 0.61143 0.56741 0.66431 0.0
H280 H 0.06942 0.66076 0.887 0.0
H281 H 0.10541 0.66742 0.63583 0.0
H282 H 0.08003 0.62482 0.593 0.0
H283 H 0.04902 0.58487 0.62783 0.0
H284 H 0.01355 0.5775 0.87944 0.0
H285 H 0.03722 0.6213 0.9208 0.0
C286 C 0.07162 0.65297 0.82277 0.0
C287 C 0.08938 0.66725 0.76485 0.0
C288 C 0.05709 0.62832 0.79859 0.0
C289 C 0.09196 0.65684 0.68185 0.0
C290 C 0.07745 0.63246 0.65722 0.0
C291 C 0.04627 0.5929 0.69161 0.0
C292 C 0.02959 0.57784 0.75047 0.0
C293 C 0.06015 0.61792 0.71523 0.0
C294 C 0.02632 0.58861 0.83284 0.0
C295 C 0.03989 0.61364 0.85663 0.0
H296 H 0.88537 0.18177 0.4145 0.0
H297 H 0.95983 0.21713 0.29351 0.0
H298 H 0.98564 0.1728 0.31321 0.0
H299 H 0.9879 0.12506 0.37299 0.0
H300 H 0.91293 0.08904 0.49033 0.0
H301 H 0.88628 0.1323 0.46275 0.0
C302 C 0.90719 0.17958 0.39217 0.0
C303 C 0.9208 0.20248 0.35276 0.0
C304 C 0.92174 0.15395 0.40287 0.0
C305 C 0.94895 0.19956 0.32336 0.0
C306 C 0.96371 0.1743 0.33486 0.0
C307 C 0.96563 0.12657 0.39155 0.0
C308 C 0.95249 0.10399 0.43417 0.0
C309 C 0.95043 0.15148 0.3755 0.0
C310 C 0.92354 0.10611 0.45718 0.0
C311 C 0.90832 0.13092 0.44201 0.0
H312 H 0.31093 0.04951 0.34459 0.0
H313 H 0.31804 0.13756 0.40969 0.0
H314 H 0.36074 0.12762 0.49376 0.0
H315 H 0.39681 0.09418 0.5445 0.0
H316 H 0.39088 0.00649 0.47334 0.0
H317 H 0.34705 0.01612 0.39489 0.0
C318 C 0.32159 0.06645 0.3782 0.0
C319 C 0.31127 0.09417 0.37168 0.0
C320 C 0.34653 0.06073 0.42418 0.0
C321 C 0.32559 0.11602 0.41411 0.0
C322 C 0.35003 0.11038 0.46183 0.0
C323 C 0.38597 0.07717 0.51172 0.0
C324 C 0.39713 0.04968 0.51463 0.0
C325 C 0.36087 0.08287 0.46641 0.0
C326 C 0.38284 0.02788 0.47171 0.0
C327 C 0.3577 0.03333 0.42718 0.0
H328 H 0.61549 0.32728 0.44511 0.0
H329 H 0.54184 0.29138 0.32192 0.0
H330 H 0.51559 0.33549 0.3408 0.0
H331 H 0.51262 0.38311 0.40103 0.0
H332 H 0.58679 0.4196 0.52085 0.0
H333 H 0.61396 0.37668 0.49343 0.0
C334 C 0.59376 0.32931 0.42205 0.0
C335 C 0.58051 0.30632 0.38229 0.0
C336 C 0.57895 0.3548 0.43238 0.0
C337 C 0.55247 0.30903 0.35198 0.0
C338 C 0.53745 0.33416 0.36307 0.0
C339 C 0.53484 0.38179 0.42012 0.0
C340 C 0.54758 0.40439 0.46347 0.0
C341 C 0.55035 0.35705 0.40422 0.0
C342 C 0.57648 0.40251 0.48717 0.0
C343 C 0.59199 0.37789 0.47209 0.0
H344 H 0.18253 0.46307 0.32333 0.0
H345 H 0.20355 0.394 0.49056 0.0
H346 H 0.16176 0.40462 0.57753 0.0
H347 H 0.11841 0.43223 0.60261 0.0
H348 H 0.09745 0.50134 0.43581 0.0
H349 H 0.14023 0.49184 0.35162 0.0
C350 C 0.17814 0.45041 0.37911 0.0
C351 C 0.19609 0.42766 0.4001 0.0
C352 C 0.15401 0.45647 0.42837 0.0
C353 C 0.19009 0.4116 0.47284 0.0
C354 C 0.16614 0.41759 0.52244 0.0
C355 C 0.12314 0.44519 0.54769 0.0
C356 C 0.10466 0.46728 0.52489 0.0
C357 C 0.14778 0.43972 0.50008 0.0
C358 C 0.1113 0.48414 0.45439 0.0
C359 C 0.13574 0.47873 0.40632 0.0
H360 H 0.06311 0.81174 0.80646 0.0
H361 H 0.13857 0.85742 0.88163 0.0
H362 H 0.11465 0.9022 0.85217 0.0
H363 H 0.07294 0.92824 0.79783 0.0
H364 H 0.99746 0.88201 0.72353 0.0
H365 H 0.02061 0.83777 0.76021 0.0
C366 C 0.07422 0.83155 0.81656 0.0
C367 C 0.10238 0.83139 0.84681 0.0
C368 C 0.06034 0.85714 0.79951 0.0
C369 C 0.11662 0.8571 0.85998 0.0
C370 C 0.10303 0.88269 0.84257 0.0
C371 C 0.06146 0.90852 0.79058 0.0
C372 C 0.03358 0.90851 0.75734 0.0
C373 C 0.07494 0.88297 0.81163 0.0
C374 C 0.019 0.88272 0.74855 0.0
C375 C 0.03223 0.85732 0.76929 0.0
H376 H 0.6852 0.94983 0.97398 0.0
H377 H 0.68053 0.87023 0.84286 0.0
H378 H 0.63191 0.88094 0.79727 0.0
H379 H 0.59129 0.91318 0.79196 0.0
H380 H 0.59555 0.99294 0.9228 0.0
H381 H 0.64342 0.98138 0.97411 0.0
C382 C 0.67326 0.93448 0.93762 0.0
C383 C 0.68624 0.90901 0.91337 0.0
C384 C 0.64524 0.94076 0.91173 0.0
C385 C 0.67096 0.88997 0.86249 0.0
C386 C 0.64314 0.89602 0.83664 0.0
C387 C 0.60253 0.92799 0.8323 0.0
C388 C 0.58983 0.95391 0.85331 0.0
C389 C 0.63013 0.92139 0.86055 0.0
C390 C 0.60481 0.97283 0.90554 0.0
C391 C 0.63224 0.96628 0.93469 0.0
H392 H 0.43548 0.69592 0.82741 0.0
H393 H 0.36443 0.65093 0.93679 0.0
H394 H 0.38752 0.60588 0.90501 0.0
H395 H 0.42733 0.57927 0.84085 0.0
H396 H 0.49872 0.62498 0.73423 0.0
H397 H 0.47625 0.66952 0.77058 0.0
C398 C 0.42514 0.6762 0.84423 0.0
C399 C 0.39847 0.67662 0.88471 0.0
C400 C 0.43862 0.65046 0.8263 0.0
C401 C 0.38524 0.65103 0.90671 0.0
C402 C 0.39835 0.6253 0.88819 0.0
C403 C 0.43807 0.59897 0.82635 0.0
C404 C 0.46458 0.59868 0.78432 0.0
C405 C 0.42502 0.62473 0.84756 0.0
C406 C 0.47824 0.62445 0.76622 0.0
C407 C 0.46539 0.65004 0.78675 0.0
H408 H 0.81093 0.5624 0.98356 0.0
H409 H 0.81599 0.63863 0.83518 0.0
H410 H 0.86287 0.62458 0.7818 0.0
H411 H 0.90193 0.59062 0.77606 0.0
H412 H 0.89709 0.51381 0.92228 0.0
H413 H 0.85086 0.52852 0.97992 0.0
C414 C 0.82263 0.57621 0.9412 0.0
C415 C 0.81036 0.60179 0.91471 0.0
C416 C 0.84954 0.56794 0.91057 0.0
C417 C 0.82512 0.61889 0.85667 0.0
C418 C 0.85192 0.61093 0.82636 0.0
C419 C 0.89091 0.57712 0.82099 0.0
C420 C 0.90297 0.55117 0.84492 0.0
C421 C 0.86428 0.58549 0.85277 0.0
C422 C 0.88826 0.53389 0.90277 0.0
C423 C 0.86182 0.54226 0.93563 0.0
H424 H 0.96517 0.15267 0.98577 0.0
H425 H 0.87454 0.13589 0.99747 0.0
H426 H 0.87967 0.09879 0.89202 0.0
H427 H 0.9093 0.07242 0.79229 0.0
H428 H 1.00004 0.08828 0.78032 0.0
H429 H 0.99549 0.12412 0.89083 0.0
C430 C 0.94657 0.14085 0.96532 0.0
C431 C 0.91947 0.14725 -0.00097 0.0
C432 C 0.94968 0.11932 0.90479 0.0
C433 C 0.89564 0.1315 0.97253 0.0
C434 C 0.89853 0.11026 0.91212 0.0
C435 C 0.92815 0.08357 0.81416 0.0
C436 C 0.95493 0.07782 0.77764 0.0
C437 C 0.92537 0.10417 0.87729 0.0
C438 C 0.97916 0.09228 0.80737 0.0
C439 C 0.97655 0.11289 0.87028 0.0
H440 H 0.32162 0.03438 0.03734 0.0
H441 H 0.33468 0.11883 0.94284 0.0
H442 H 0.37438 0.10234 0.85517 0.0
H443 H 0.40516 0.06369 0.80421 0.0
H444 H 0.38974 0.97892 0.89173 0.0
H445 H 0.35151 0.9958 0.98456 0.0
C446 C 0.33309 0.0492 0.99744 0.0
C447 C 0.32518 0.0778 0.99671 0.0
C448 C 0.35571 0.03954 0.94678 0.0
C449 C 0.3402 0.09667 0.94425 0.0
C450 C 0.36303 0.08729 0.89449 0.0
C451 C 0.39369 0.04906 0.84477 0.0
C452 C 0.40044 0.02021 0.84251 0.0
C453 C 0.37104 0.05879 0.89547 0.0
C454 C 0.38499 0.00126 0.89328 0.0
C455 C 0.36308 0.01088 0.9459 0.0
H456 H 0.53793 0.35651 0.01952 0.0
H457 H 0.62959 0.36586 0.00448 0.0
H458 H 0.62416 0.40319 0.89962 0.0
H459 H 0.5937 0.43196 0.80845 0.0
H460 H 0.502 0.42323 0.82277 0.0
H461 H 0.50716 0.38716 0.93244 0.0
C462 C 0.5567 0.36674 0.99334 0.0
C463 C 0.58413 0.35823 0.01944 0.0
C464 C 0.55345 0.38838 0.93317 0.0
C465 C 0.60822 0.37192 0.9855 0.0
C466 C 0.60516 0.39329 0.92545 0.0
C467 C 0.57479 0.42235 0.8359 0.0
C468 C 0.54752 0.43019 0.80703 0.0
C469 C 0.57791 0.40154 0.89838 0.0
C470 C 0.52327 0.41759 0.84378 0.0
C471 C 0.5262 0.39687 0.90625 0.0
H472 H 0.17583 0.50038 0.04088 0.0
H473 H 0.17708 0.41442 0.95166 0.0
H474 H 0.13521 0.42377 0.86324 0.0
H475 H 0.09873 0.45682 0.8091 0.0
H476 H 0.1 0.5434 0.89153 0.0
H477 H 0.14006 0.53327 0.98629 0.0
C478 C 0.16699 0.48365 0.00209 0.0
C479 C 0.17959 0.45675 0.00289 0.0
C480 C 0.14312 0.48923 0.95107 0.0
C481 C 0.16791 0.43538 0.95186 0.0
C482 C 0.14386 0.44066 0.90166 0.0
C483 C 0.10751 0.47325 0.84916 0.0
C484 C 0.09627 0.50068 0.84488 0.0
C485 C 0.13126 0.4675 0.90086 0.0
C486 C 0.10824 0.52208 0.89483 0.0
C487 C 0.13119 0.51633 0.94847 0.0
H488 H 0.04747 0.88969 0.18354 0.0
H489 H 0.13745 0.90396 0.22715 0.0
H490 H 0.1262 0.93395 0.34782 0.0
H491 H 0.09129 0.9537 0.44567 0.0
H492 H 0.00125 0.93892 0.40632 0.0
H493 H 0.01209 0.91172 0.27845 0.0
C494 C 0.06461 0.89953 0.21904 0.0
C495 C 0.09328 0.89437 0.19672 0.0
C496 C 0.05801 0.91653 0.28921 0.0
C497 C 0.11522 0.90737 0.24327 0.0
C498 C 0.10882 0.92454 0.31235 0.0
C499 C 0.07396 0.9446 0.40915 0.0
C500 C 0.04552 0.94801 0.43602 0.0
C501 C 0.08035 0.92883 0.33669 0.0
C502 C 0.02334 0.93647 0.38716 0.0
C503 C 0.02954 0.92087 0.31422 0.0
H504 H 0.59611 0.94127 0.26685 0.0
H505 H 0.67218 0.98852 0.32897 0.0
H506 H 0.64844 0.00811 0.45315 0.0
H507 H 0.6071 0.01013 0.54781 0.0
H508 H 0.53131 0.96206 0.48881 0.0
H509 H 0.55391 0.94467 0.35939 0.0
C510 C 0.60744 0.956 0.30721 0.0
C511 C 0.63595 0.96326 0.28875 0.0
C512 C 0.59376 0.96699 0.37924 0.0
C513 C 0.65029 0.98241 0.34181 0.0
C514 C 0.63674 0.99365 0.41293 0.0
C515 C 0.5954 0.99599 0.50645 0.0
C516 C 0.5676 0.98731 0.52828 0.0
C517 C 0.60863 0.98581 0.43282 0.0
C518 C 0.55278 0.96901 0.47374 0.0
C519 C 0.5657 0.95902 0.39975 0.0
H520 H 0.39111 0.60233 0.25758 0.0
H521 H 0.47641 0.63305 0.20915 0.0
H522 H 0.49501 0.60323 0.32286 0.0
H523 H 0.48626 0.57106 0.44349 0.0
H524 H 0.40048 0.54117 0.49031 0.0
H525 H 0.38297 0.56785 0.3695 0.0
C526 C 0.41381 0.60241 0.27147 0.0
C527 C 0.43227 0.62014 0.22573 0.0
C528 C 0.42429 0.58541 0.33698 0.0
C529 C 0.46169 0.61969 0.24379 0.0
C530 C 0.47234 0.60269 0.30892 0.0
C531 C 0.46383 0.57016 0.42647 0.0
C532 C 0.44465 0.55451 0.47651 0.0
C533 C 0.45374 0.58584 0.35704 0.0
C534 C 0.41564 0.55342 0.45364 0.0
C535 C 0.40556 0.56864 0.38446 0.0
H536 H 0.85235 0.53126 0.30363 0.0
H537 H 0.90908 0.60214 0.2685 0.0
H538 H 0.93994 0.58461 0.38159 0.0
H539 H 0.94925 0.55057 0.49636 0.0
H540 H 0.89206 0.47993 0.53049 0.0
H541 H 0.86318 0.49588 0.4116 0.0
C542 C 0.87153 0.54284 0.32036 0.0
C543 C 0.87821 0.56813 0.27816 0.0
C544 C 0.88913 0.53271 0.38549 0.0
C545 C 0.90333 0.58267 0.30015 0.0
C546 C 0.921 0.57269 0.36494 0.0
C547 C 0.93065 0.53851 0.47719 0.0
C548 C 0.92273 0.51423 0.52284 0.0
C549 C 0.91389 0.54793 0.40889 0.0
C550 C 0.89857 0.49882 0.49699 0.0
C551 C 0.88197 0.50793 0.42898 0.0
loop_
_geom_bond_atom_site_label_1
_geom_bond_atom_site_label_2
_geom_bond_distance
_geom_bond_site_symmetry_2
_ccdc_geom_bond_type
O0 Cd1 2.300 . S
O0 C7 1.275 . S
Cd1 O0 2.300 . S
Cd1 O9 2.381 . S
Cd1 O10 2.378 1_556 S
O2 Cd3 2.380 1_556 S
O2 C7 1.259 . S
Cd3 O2 2.380 1_554 S
Cd3 O4 2.317 . S
O4 Cd3 2.317 . S
O4 C5 1.232 . S
C5 O4 1.232 . S
C5 O6 1.218 . S
O6 C5 1.218 . S
C7 O0 1.275 . S
C7 O2 1.259 . S
C8 O9 1.258 . S
C8 O10 1.256 1_556 S
O9 Cd1 2.381 . S
O9 C8 1.258 . S
O10 Cd1 2.378 1_554 S
O10 C8 1.256 1_554 S
O11 Cd12 2.300 1_656 S
O11 C18 1.275 1_655 S
Cd12 O11 2.300 1_454 S
Cd12 O20 2.381 1_454 S
Cd12 O21 2.378 . S
O13 Cd14 2.385 . S
O13 C18 1.255 1_554 S
Cd14 O13 2.385 . S
Cd14 O15 2.317 . S
O15 Cd14 2.317 . S
O15 C16 1.232 . S
C16 O15 1.232 . S
C16 O17 1.218 . S
O17 C16 1.218 . S
C18 O11 1.275 1_455 S
C18 O13 1.255 1_556 S
C19 O20 1.258 1_455 S
C19 O21 1.256 1_556 S
O20 Cd12 2.381 1_656 S
O20 C19 1.258 1_655 S
O21 Cd12 2.378 . S
O21 C19 1.256 1_554 S
O22 Cd23 2.300 . S
O22 C29 1.275 . S
Cd23 O22 2.300 . S
Cd23 O31 2.381 . S
Cd23 O32 2.378 1_556 S
O24 Cd25 2.385 1_565 S
O24 C29 1.255 1_554 S
Cd25 O24 2.385 1_545 S
Cd25 O26 2.317 1_545 S
O26 Cd25 2.317 1_565 S
O26 C27 1.232 . S
C27 O26 1.232 . S
C27 O28 1.218 . S
O28 C27 1.218 . S
C29 O22 1.275 . S
C29 O24 1.255 1_556 S
C30 O31 1.258 . S
C30 O32 1.256 1_556 S
O31 Cd23 2.381 . S
O31 C30 1.258 . S
O32 Cd23 2.378 1_554 S
O32 C30 1.256 1_554 S
O33 Cd34 2.300 1_556 S
O33 C40 1.275 . S
Cd34 O33 2.300 1_554 S
Cd34 O42 2.381 1_554 S
Cd34 O43 2.378 . S
O35 Cd36 2.385 . S
O35 C40 1.255 1_554 S
Cd36 O35 2.385 . S
Cd36 O37 2.317 . S
O37 Cd36 2.317 . S
O37 C38 1.232 . S
C38 O37 1.232 . S
C38 O39 1.218 . S
O39 C38 1.218 . S
C40 O33 1.275 . S
C40 O35 1.255 1_556 S
C41 O42 1.258 . S
C41 O43 1.256 1_556 S
O42 Cd34 2.381 1_556 S
O42 C41 1.258 . S
O43 Cd34 2.378 . S
O43 C41 1.256 1_554 S
O44 Cd45 2.300 . S
O44 C51 1.275 . S
Cd45 O44 2.300 . S
Cd45 O53 2.381 . S
Cd45 O54 2.378 . S
O46 Cd47 2.385 . S
O46 C51 1.255 . S
Cd47 O46 2.385 . S
Cd47 O48 2.317 . S
O48 Cd47 2.317 . S
O48 C49 1.232 . S
C49 O48 1.232 . S
C49 O50 1.218 . S
O50 C49 1.218 . S
C51 O44 1.275 . S
C51 O46 1.255 . S
C52 O53 1.258 . S
C52 O54 1.256 . S
O53 Cd45 2.381 . S
O53 C52 1.258 . S
O54 Cd45 2.378 . S
O54 C52 1.256 . S
O55 Cd56 2.300 1_655 S
O55 C62 1.275 1_655 S
Cd56 O55 2.300 1_455 S
Cd56 O64 2.381 1_455 S
Cd56 O65 2.378 . S
O57 Cd58 2.385 . S
O57 C62 1.255 . S
Cd58 O57 2.385 . S
Cd58 O59 2.317 . S
O59 Cd58 2.317 . S
O59 C60 1.232 . S
C60 O59 1.232 . S
C60 O61 1.218 . S
O61 C60 1.218 . S
C62 O55 1.275 1_455 S
C62 O57 1.255 . S
C63 O64 1.258 1_455 S
C63 O65 1.256 . S
O64 Cd56 2.381 1_655 S
O64 C63 1.258 1_655 S
O65 Cd56 2.378 . S
O65 C63 1.256 . S
O66 Cd67 2.300 . S
O66 C73 1.275 . S
Cd67 O66 2.300 . S
Cd67 O75 2.381 . S
Cd67 O76 2.378 . S
O68 Cd69 2.385 . S
O68 C73 1.255 . S
Cd69 O68 2.385 . S
Cd69 O70 2.317 . S
O70 Cd69 2.317 . S
O70 C71 1.232 . S
C71 O70 1.232 . S
C71 O72 1.218 . S
O72 C71 1.218 . S
C73 O66 1.275 . S
C73 O68 1.255 . S
C74 O75 1.258 . S
C74 O76 1.256 . S
O75 Cd67 2.381 . S
O75 C74 1.258 . S
O76 Cd67 2.378 . S
O76 C74 1.256 . S
O77 Cd78 2.300 . S
O77 C84 1.275 . S
Cd78 O77 2.300 . S
Cd78 O86 2.381 . S
Cd78 O87 2.378 . S
O79 Cd80 2.385 . S
O79 C84 1.255 . S
Cd80 O79 2.385 . S
Cd80 O81 2.317 . S
O81 Cd80 2.317 . S
O81 C82 1.232 . S
C82 O81 1.232 . S
C82 O83 1.218 . S
O83 C82 1.218 . S
C84 O77 1.275 . S
C84 O79 1.255 . S
C85 O86 1.258 . S
C85 O87 1.256 . S
O86 Cd78 2.381 . S
O86 C85 1.258 . S
O87 Cd78 2.378 . S
O87 C85 1.256 . S
Zn88 O94 1.969 . S
Zn88 O95 1.965 1_655 S
Zn88 O99 2.024 1_655 S
Zn88 O104 1.969 . S
Zn89 O96 1.969 . S
Zn89 O102 1.969 . S
Zn89 O103 1.965 1_455 S
Zn89 O105 2.024 1_455 S
C90 O91 1.229 1_455 S
C90 O99 1.058 . S
O91 C90 1.229 1_655 S
C92 O93 1.229 1_655 S
C92 O105 1.058 . S
O93 C92 1.229 1_455 S
O94 Zn88 1.969 . S
O94 C97 1.267 . S
O95 Zn88 1.965 1_455 S
O95 C106 1.260 . S
O96 Zn89 1.969 . S
O96 C106 1.258 1_565 S
C97 O94 1.267 . S
C97 O98 1.228 1_655 S
O98 C97 1.228 1_455 S
O99 Zn88 2.024 1_455 S
O99 C90 1.058 . S
C100 O101 1.228 1_455 S
C100 O102 1.267 . S
O101 C100 1.228 1_655 S
O102 Zn89 1.969 . S
O102 C100 1.267 . S
O103 Zn89 1.965 1_655 S
O103 C107 1.260 1_565 S
O104 Zn88 1.969 . S
O104 C107 1.258 . S
O105 Zn89 2.024 1_655 S
O105 C92 1.058 . S
C106 O95 1.260 . S
C106 O96 1.258 1_545 S
C107 O103 1.260 1_545 S
C107 O104 1.258 . S
Zn108 O114 1.969 1_545 S
Zn108 O115 1.965 . S
Zn108 O119 2.024 . S
Zn108 O124 1.969 1_545 S
Zn109 O116 1.979 . S
Zn109 O122 1.973 . S
Zn109 O123 1.960 1_545 S
Zn109 O125 2.017 1_545 S
C110 O111 1.229 . S
C110 O119 1.058 . S
O111 C110 1.229 . S
C112 O113 1.229 1_565 S
C112 O125 1.058 . S
O113 C112 1.229 1_545 S
O114 Zn108 1.969 1_565 S
O114 C117 1.267 1_565 S
O115 Zn108 1.965 . S
O115 C126 1.260 . S
O116 Zn109 1.979 . S
O116 C126 1.258 . S
C117 O114 1.267 1_545 S
C117 O118 1.228 . S
O118 C117 1.228 . S
O119 Zn108 2.024 . S
O119 C110 1.058 . S
C120 O121 1.228 . S
C120 O122 1.267 1_565 S
O121 C120 1.228 . S
O122 Zn109 1.973 . S
O122 C120 1.267 1_545 S
O123 Zn109 1.960 1_565 S
O123 C127 1.260 . S
O124 Zn108 1.969 1_565 S
O124 C127 1.258 . S
O125 Zn109 2.017 1_565 S
O125 C112 1.058 . S
C126 O115 1.260 . S
C126 O116 1.258 . S
C127 O123 1.260 . S
C127 O124 1.258 . S
Zn128 O134 1.969 . S
Zn128 O135 1.965 . S
Zn128 O139 2.024 . S
Zn128 O144 1.969 . S
Zn129 O136 1.969 . S
Zn129 O142 1.969 . S
Zn129 O143 1.965 . S
Zn129 O145 2.024 . S
C130 O131 1.229 . S
C130 O139 1.058 . S
O131 C130 1.229 . S
C132 O133 1.229 . S
C132 O145 1.058 . S
O133 C132 1.229 . S
O134 Zn128 1.969 . S
O134 C137 1.267 . S
O135 Zn128 1.965 . S
O135 C146 1.260 . S
O136 Zn129 1.969 . S
O136 C146 1.258 . S
C137 O134 1.267 . S
C137 O138 1.228 . S
O138 C137 1.228 . S
O139 Zn128 2.024 . S
O139 C130 1.058 . S
C140 O141 1.228 . S
C140 O142 1.267 . S
O141 C140 1.228 . S
O142 Zn129 1.969 . S
O142 C140 1.267 . S
O143 Zn129 1.965 . S
O143 C147 1.260 . S
O144 Zn128 1.969 . S
O144 C147 1.258 . S
O145 Zn129 2.024 . S
O145 C132 1.058 . S
C146 O135 1.260 . S
C146 O136 1.258 . S
C147 O143 1.260 . S
C147 O144 1.258 . S
Zn148 O154 1.969 . S
Zn148 O155 1.965 . S
Zn148 O159 2.024 . S
Zn148 O164 1.969 . S
Zn149 O156 1.969 . S
Zn149 O162 1.969 . S
Zn149 O163 1.965 . S
Zn149 O165 2.024 . S
C150 O151 1.229 . S
C150 O159 1.058 . S
O151 C150 1.229 . S
C152 O153 1.229 . S
C152 O165 1.058 . S
O153 C152 1.229 . S
O154 Zn148 1.969 . S
O154 C157 1.267 . S
O155 Zn148 1.965 . S
O155 C166 1.260 1_455 S
O156 Zn149 1.969 . S
O156 C166 1.258 . S
C157 O154 1.267 . S
C157 O158 1.228 . S
O158 C157 1.228 . S
O159 Zn148 2.024 . S
O159 C150 1.058 . S
C160 O161 1.228 . S
C160 O162 1.267 . S
O161 C160 1.228 . S
O162 Zn149 1.969 . S
O162 C160 1.267 . S
O163 Zn149 1.965 . S
O163 C167 1.260 1_655 S
O164 Zn148 1.969 . S
O164 C167 1.258 . S
O165 Zn149 2.024 . S
O165 C152 1.058 . S
C166 O155 1.260 1_655 S
C166 O156 1.258 . S
C167 O163 1.260 1_455 S
C167 O164 1.258 . S
H168 C174 0.930 . S
H169 C177 0.930 . S
H170 C178 0.930 . S
H171 C179 0.930 . S
H172 C182 0.930 . S
H173 C183 0.930 . S
C174 H168 0.930 . S
C174 C175 1.355 . S
C174 C176 1.415 . S
C175 C174 1.355 . S
C175 C177 1.419 . S
C176 C174 1.415 . S
C176 C181 1.425 . S
C176 C183 1.409 . S
C177 H169 0.930 . S
C177 C175 1.419 . S
C177 C178 1.362 . S
C178 H170 0.930 . S
C178 C177 1.362 . S
C178 C181 1.409 . S
C179 H171 0.930 . S
C179 C180 1.355 . S
C179 C181 1.415 . S
C180 C179 1.355 . S
C180 C182 1.419 . S
C181 C176 1.425 . S
C181 C178 1.409 . S
C181 C179 1.415 . S
C182 H172 0.930 . S
C182 C180 1.419 . S
C182 C183 1.362 . S
C183 H173 0.930 . S
C183 C176 1.409 . S
C183 C182 1.362 . S
H184 C190 0.930 . S
H185 C193 0.930 . S
H186 C194 0.930 . S
H187 C195 0.930 . S
H188 C198 0.930 . S
H189 C199 0.930 . S
C190 H184 0.930 . S
C190 C191 1.355 . S
C190 C192 1.415 . S
C191 C190 1.355 . S
C191 C193 1.419 . S
C192 C190 1.415 . S
C192 C197 1.425 . S
C192 C199 1.409 . S
C193 H185 0.930 . S
C193 C191 1.419 . S
C193 C194 1.362 . S
C194 H186 0.930 . S
C194 C193 1.362 . S
C194 C197 1.409 . S
C195 H187 0.930 . S
C195 C196 1.355 . S
C195 C197 1.415 . S
C196 C195 1.355 . S
C196 C198 1.419 . S
C197 C192 1.425 . S
C197 C194 1.409 . S
C197 C195 1.415 . S
C198 H188 0.930 . S
C198 C196 1.419 . S
C198 C199 1.362 . S
C199 H189 0.930 . S
C199 C192 1.409 . S
C199 C198 1.362 . S
H200 C206 0.930 . S
H201 C209 0.930 . S
H202 C210 0.930 . S
H203 C211 0.930 . S
H204 C214 0.930 . S
H205 C215 0.930 . S
C206 H200 0.930 . S
C206 C207 1.355 . S
C206 C208 1.415 . S
C207 C206 1.355 . S
C207 C209 1.419 . S
C208 C206 1.415 . S
C208 C213 1.425 . S
C208 C215 1.409 . S
C209 H201 0.930 . S
C209 C207 1.419 . S
C209 C210 1.362 . S
C210 H202 0.930 . S
C210 C209 1.362 . S
C210 C213 1.409 . S
C211 H203 0.930 . S
C211 C212 1.355 . S
C211 C213 1.415 . S
C212 C211 1.355 . S
C212 C214 1.419 . S
C213 C208 1.425 . S
C213 C210 1.409 . S
C213 C211 1.415 . S
C214 H204 0.930 . S
C214 C212 1.419 . S
C214 C215 1.362 . S
C215 H205 0.930 . S
C215 C208 1.409 . S
C215 C214 1.362 . S
H216 C222 0.930 . S
H217 C225 0.930 . S
H218 C226 0.930 . S
H219 C227 0.930 . S
H220 C230 0.930 . S
H221 C231 0.930 . S
C222 H216 0.930 . S
C222 C223 1.355 1_455 S
C222 C224 1.415 . S
C223 C222 1.355 1_655 S
C223 C225 1.419 . S
C224 C222 1.415 . S
C224 C229 1.425 1_455 S
C224 C231 1.409 . S
C225 H217 0.930 . S
C225 C223 1.419 . S
C225 C226 1.362 . S
C226 H218 0.930 . S
C226 C225 1.362 . S
C226 C229 1.409 . S
C227 H219 0.930 . S
C227 C228 1.378 . S
C227 C229 1.415 . S
C228 C227 1.378 . S
C228 C230 1.390 1_655 S
C229 C224 1.425 1_655 S
C229 C226 1.409 . S
C229 C227 1.415 . S
C230 H220 0.930 . S
C230 C228 1.390 1_455 S
C230 C231 1.362 . S
C231 H221 0.930 . S
C231 C224 1.409 . S
C231 C230 1.362 . S
H232 C238 0.930 . S
H233 C241 0.930 . S
H234 C242 0.930 . S
H235 C243 0.930 . S
H236 C246 0.930 . S
H237 C247 0.936 . S
C238 H232 0.930 . S
C238 C239 1.355 . S
C238 C240 1.415 . S
C239 C238 1.355 . S
C239 C241 1.419 . S
C240 C238 1.415 . S
C240 C245 1.425 . S
C240 C247 1.401 1_565 S
C241 H233 0.930 . S
C241 C239 1.419 . S
C241 C242 1.362 . S
C242 H234 0.930 . S
C242 C241 1.362 . S
C242 C245 1.409 . S
C243 H235 0.930 . S
C243 C244 1.355 . S
C243 C245 1.415 . S
C244 C243 1.355 . S
C244 C246 1.419 1_565 S
C245 C240 1.425 . S
C245 C242 1.409 . S
C245 C243 1.415 . S
C246 H236 0.930 . S
C246 C244 1.419 1_545 S
C246 C247 1.365 . S
C247 H237 0.936 . S
C247 C240 1.401 1_545 S
C247 C246 1.365 . S
H248 C254 0.930 . S
H249 C257 0.930 . S
H250 C258 0.930 . S
H251 C259 0.930 . S
H252 C262 0.930 . S
H253 C263 0.930 . S
C254 H248 0.930 . S
C254 C255 1.355 . S
C254 C256 1.415 . S
C255 C254 1.355 . S
C255 C257 1.419 . S
C256 C254 1.415 . S
C256 C261 1.425 . S
C256 C263 1.409 . S
C257 H249 0.930 . S
C257 C255 1.419 . S
C257 C258 1.362 . S
C258 H250 0.930 . S
C258 C257 1.362 . S
C258 C261 1.409 . S
C259 H251 0.930 . S
C259 C260 1.355 . S
C259 C261 1.415 . S
C260 C259 1.355 . S
C260 C262 1.419 . S
C261 C256 1.425 . S
C261 C258 1.409 . S
C261 C259 1.415 . S
C262 H252 0.930 . S
C262 C260 1.419 . S
C262 C263 1.362 . S
C263 H253 0.930 . S
C263 C256 1.409 . S
C263 C262 1.362 . S
H264 C270 0.930 . S
H265 C273 0.930 . S
H266 C274 0.930 . S
H267 C275 0.930 . S
H268 C278 0.930 . S
H269 C279 0.930 . S
C270 H264 0.930 . S
C270 C271 1.355 . S
C270 C272 1.415 . S
C271 C270 1.355 . S
C271 C273 1.419 . S
C272 C270 1.415 . S
C272 C277 1.425 . S
C272 C279 1.409 . S
C273 H265 0.930 . S
C273 C271 1.419 . S
C273 C274 1.362 . S
C274 H266 0.930 . S
C274 C273 1.362 . S
C274 C277 1.409 . S
C275 H267 0.930 . S
C275 C276 1.355 . S
C275 C277 1.415 . S
C276 C275 1.355 . S
C276 C278 1.419 . S
C277 C272 1.425 . S
C277 C274 1.409 . S
C277 C275 1.415 . S
C278 H268 0.930 . S
C278 C276 1.419 . S
C278 C279 1.362 . S
C279 H269 0.930 . S
C279 C272 1.409 . S
C279 C278 1.362 . S
H280 C286 0.930 . S
H281 C289 0.930 . S
H282 C290 0.930 . S
H283 C291 0.930 . S
H284 C294 0.930 . S
H285 C295 0.930 . S
C286 H280 0.930 . S
C286 C287 1.355 1_655 S
C286 C288 1.416 . S
C287 C286 1.355 1_455 S
C287 C289 1.419 . S
C288 C286 1.416 . S
C288 C293 1.420 1_655 S
C288 C295 1.415 . S
C289 H281 0.930 . S
C289 C287 1.419 . S
C289 C290 1.362 . S
C290 H282 0.930 . S
C290 C289 1.362 . S
C290 C293 1.409 . S
C291 H283 0.930 . S
C291 C292 1.355 . S
C291 C293 1.415 . S
C292 C291 1.355 . S
C292 C294 1.419 1_455 S
C293 C288 1.420 1_455 S
C293 C290 1.409 . S
C293 C291 1.415 . S
C294 H284 0.930 . S
C294 C292 1.419 1_655 S
C294 C295 1.362 . S
C295 H285 0.930 . S
C295 C288 1.415 . S
C295 C294 1.362 . S
H296 C302 0.930 . S
H297 C305 0.930 . S
H298 C306 0.930 . S
H299 C307 0.930 . S
H300 C310 0.930 . S
H301 C311 0.930 . S
C302 H296 0.930 . S
C302 C303 1.355 1_655 S
C302 C304 1.415 . S
C303 C302 1.355 1_455 S
C303 C305 1.419 . S
C304 C302 1.415 . S
C304 C309 1.425 1_655 S
C304 C311 1.409 . S
C305 H297 0.930 . S
C305 C303 1.419 . S
C305 C306 1.362 . S
C306 H298 0.930 . S
C306 C305 1.362 . S
C306 C309 1.409 . S
C307 H299 0.930 . S
C307 C308 1.355 1_455 S
C307 C309 1.415 . S
C308 C307 1.355 1_655 S
C308 C310 1.419 . S
C309 C304 1.425 1_455 S
C309 C306 1.409 . S
C309 C307 1.415 . S
C310 H300 0.930 . S
C310 C308 1.419 . S
C310 C311 1.362 . S
C311 H301 0.930 . S
C311 C304 1.409 . S
C311 C310 1.362 . S
H312 C318 0.930 . S
H313 C321 0.930 . S
H314 C322 0.930 . S
H315 C323 0.930 . S
H316 C326 0.930 . S
H317 C327 0.930 . S
C318 H312 0.930 . S
C318 C319 1.355 . S
C318 C320 1.415 . S
C319 C318 1.355 . S
C319 C321 1.419 . S
C320 C318 1.415 . S
C320 C325 1.425 . S
C320 C327 1.409 . S
C321 H313 0.930 . S
C321 C319 1.419 . S
C321 C322 1.362 . S
C322 H314 0.930 . S
C322 C321 1.362 . S
C322 C325 1.409 . S
C323 H315 0.930 . S
C323 C324 1.355 . S
C323 C325 1.415 . S
C324 C323 1.355 . S
C324 C326 1.419 . S
C325 C320 1.425 . S
C325 C322 1.409 . S
C325 C323 1.415 . S
C326 H316 0.930 . S
C326 C324 1.419 . S
C326 C327 1.362 . S
C327 H317 0.930 . S
C327 C320 1.409 . S
C327 C326 1.362 . S
H328 C334 0.930 . S
H329 C337 0.930 . S
H330 C338 0.930 . S
H331 C339 0.930 . S
H332 C342 0.930 . S
H333 C343 0.930 . S
C334 H328 0.930 . S
C334 C335 1.355 . S
C334 C336 1.415 . S
C335 C334 1.355 . S
C335 C337 1.419 . S
C336 C334 1.415 . S
C336 C341 1.425 . S
C336 C343 1.409 . S
C337 H329 0.930 . S
C337 C335 1.419 . S
C337 C338 1.362 . S
C338 H330 0.930 . S
C338 C337 1.362 . S
C338 C341 1.409 . S
C339 H331 0.930 . S
C339 C340 1.355 . S
C339 C341 1.415 . S
C340 C339 1.355 . S
C340 C342 1.419 . S
C341 C336 1.425 . S
C341 C338 1.409 . S
C341 C339 1.415 . S
C342 H332 0.930 . S
C342 C340 1.419 . S
C342 C343 1.362 . S
C343 H333 0.930 . S
C343 C336 1.409 . S
C343 C342 1.362 . S
H344 C350 0.930 . S
H345 C353 0.930 . S
H346 C354 0.930 . S
H347 C355 0.930 . S
H348 C358 0.930 . S
H349 C359 0.930 . S
C350 H344 0.930 . S
C350 C351 1.355 . S
C350 C352 1.415 . S
C351 C350 1.355 . S
C351 C353 1.419 . S
C352 C350 1.415 . S
C352 C357 1.425 . S
C352 C359 1.409 . S
C353 H345 0.930 . S
C353 C351 1.419 . S
C353 C354 1.362 . S
C354 H346 0.930 . S
C354 C353 1.362 . S
C354 C357 1.409 . S
C355 H347 0.930 . S
C355 C356 1.355 . S
C355 C357 1.415 . S
C356 C355 1.355 . S
C356 C358 1.419 . S
C357 C352 1.425 . S
C357 C354 1.409 . S
C357 C355 1.415 . S
C358 H348 0.930 . S
C358 C356 1.419 . S
C358 C359 1.362 . S
C359 H349 0.930 . S
C359 C352 1.409 . S
C359 C358 1.362 . S
H360 C366 0.930 . S
H361 C369 0.930 . S
H362 C370 0.930 . S
H363 C371 0.930 . S
H364 C374 0.930 . S
H365 C375 0.930 . S
C366 H360 0.930 . S
C366 C367 1.355 1_655 S
C366 C368 1.415 . S
C367 C366 1.355 1_455 S
C367 C369 1.419 . S
C368 C366 1.415 . S
C368 C373 1.425 1_655 S
C368 C375 1.409 . S
C369 H361 0.930 . S
C369 C367 1.419 . S
C369 C370 1.362 . S
C370 H362 0.930 . S
C370 C369 1.362 . S
C370 C373 1.409 . S
C371 H363 0.930 . S
C371 C372 1.355 . S
C371 C373 1.415 . S
C372 C371 1.355 . S
C372 C374 1.419 1_455 S
C373 C368 1.425 1_455 S
C373 C370 1.409 . S
C373 C371 1.415 . S
C374 H364 0.930 . S
C374 C372 1.419 1_655 S
C374 C375 1.362 . S
C375 H365 0.930 . S
C375 C368 1.409 . S
C375 C374 1.362 . S
H376 C382 0.930 1_554 S
H377 C385 0.930 . S
H378 C386 0.930 . S
H379 C387 0.930 . S
H380 C390 0.930 . S
H381 C391 0.930 . S
C382 H376 0.930 1_556 S
C382 C383 1.355 . S
C382 C384 1.415 . S
C383 C382 1.355 . S
C383 C385 1.419 . S
C384 C382 1.415 . S
C384 C389 1.425 . S
C384 C391 1.409 1_565 S
C385 H377 0.930 . S
C385 C383 1.419 . S
C385 C386 1.362 . S
C386 H378 0.930 . S
C386 C385 1.362 . S
C386 C389 1.409 . S
C387 H379 0.930 . S
C387 C388 1.355 . S
C387 C389 1.415 . S
C388 C387 1.355 . S
C388 C390 1.419 1_565 S
C389 C384 1.425 . S
C389 C386 1.409 . S
C389 C387 1.415 . S
C390 H380 0.930 . S
C390 C388 1.419 1_545 S
C390 C391 1.362 . S
C391 H381 0.930 . S
C391 C384 1.409 1_545 S
C391 C390 1.362 . S
H392 C398 0.930 . S
H393 C401 0.930 1_554 S
H394 C402 0.930 1_554 S
H395 C403 0.930 . S
H396 C406 0.930 . S
H397 C407 0.930 . S
C398 H392 0.930 . S
C398 C399 1.355 . S
C398 C400 1.415 . S
C399 C398 1.355 . S
C399 C401 1.419 . S
C400 C398 1.415 . S
C400 C405 1.425 . S
C400 C407 1.409 . S
C401 H393 0.930 1_556 S
C401 C399 1.419 . S
C401 C402 1.362 . S
C402 H394 0.930 1_556 S
C402 C401 1.362 . S
C402 C405 1.409 . S
C403 H395 0.930 . S
C403 C404 1.355 . S
C403 C405 1.415 . S
C404 C403 1.355 . S
C404 C406 1.419 . S
C405 C400 1.425 . S
C405 C402 1.409 . S
C405 C403 1.415 . S
C406 H396 0.930 . S
C406 C404 1.419 . S
C406 C407 1.362 . S
C407 H397 0.930 . S
C407 C400 1.409 . S
C407 C406 1.362 . S
H408 C414 0.930 . S
H409 C417 0.930 . S
H410 C418 0.930 . S
H411 C419 0.930 . S
H412 C422 0.930 . S
H413 C423 0.930 . S
C414 H408 0.930 . S
C414 C415 1.355 . S
C414 C416 1.415 . S
C415 C414 1.355 . S
C415 C417 1.419 . S
C416 C414 1.415 . S
C416 C421 1.425 . S
C416 C423 1.409 . S
C417 H409 0.930 . S
C417 C415 1.419 . S
C417 C418 1.362 . S
C418 H410 0.930 . S
C418 C417 1.362 . S
C418 C421 1.409 . S
C419 H411 0.930 . S
C419 C420 1.355 . S
C419 C421 1.415 . S
C420 C419 1.355 . S
C420 C422 1.419 . S
C421 C416 1.425 . S
C421 C418 1.409 . S
C421 C419 1.415 . S
C422 H412 0.930 . S
C422 C420 1.419 . S
C422 C423 1.362 . S
C423 H413 0.930 . S
C423 C416 1.409 . S
C423 C422 1.362 . S
H424 C430 0.930 . S
H425 C433 0.930 . S
H426 C434 0.930 1_554 S
H427 C435 0.930 . S
H428 C438 0.930 . S
H429 C439 0.930 . S
C430 H424 0.930 . S
C430 C431 1.355 1_455 S
C430 C432 1.415 . S
C431 C430 1.355 1_655 S
C431 C433 1.419 1_556 S
C432 C430 1.415 . S
C432 C437 1.425 1_455 S
C432 C439 1.409 . S
C433 H425 0.930 . S
C433 C431 1.419 1_554 S
C433 C434 1.362 1_554 S
C434 H426 0.930 1_556 S
C434 C433 1.362 1_556 S
C434 C437 1.409 . S
C435 H427 0.930 . S
C435 C436 1.355 1_655 S
C435 C437 1.415 . S
C436 C435 1.355 1_455 S
C436 C438 1.419 . S
C437 C432 1.425 1_655 S
C437 C434 1.409 . S
C437 C435 1.415 . S
C438 H428 0.930 . S
C438 C436 1.419 . S
C438 C439 1.362 . S
C439 H429 0.930 . S
C439 C432 1.409 . S
C439 C438 1.362 . S
H440 C446 0.930 . S
H441 C449 0.930 . S
H442 C450 0.930 . S
H443 C451 0.930 . S
H444 C454 0.930 1_565 S
H445 C455 0.930 1_565 S
C446 H440 0.930 . S
C446 C447 1.355 1_556 S
C446 C448 1.415 . S
C447 C446 1.355 1_554 S
C447 C449 1.419 . S
C448 C446 1.415 . S
C448 C453 1.425 . S
C448 C455 1.409 . S
C449 H441 0.930 . S
C449 C447 1.419 . S
C449 C450 1.362 1_554 S
C450 H442 0.930 . S
C450 C449 1.362 1_556 S
C450 C453 1.409 . S
C451 H443 0.930 . S
C451 C452 1.355 . S
C451 C453 1.415 . S
C452 C451 1.355 . S
C452 C454 1.419 . S
C453 C448 1.425 . S
C453 C450 1.409 . S
C453 C451 1.415 . S
C454 H444 0.930 1_545 S
C454 C452 1.419 . S
C454 C455 1.362 . S
C455 H445 0.930 1_545 S
C455 C448 1.409 . S
C455 C454 1.362 . S
H456 C462 0.930 . S
H457 C465 0.930 1_554 S
H458 C466 0.930 . S
H459 C467 0.930 . S
H460 C470 0.930 . S
H461 C471 0.930 . S
C462 H456 0.930 . S
C462 C463 1.355 . S
C462 C464 1.415 . S
C463 C462 1.355 . S
C463 C465 1.419 . S
C464 C462 1.415 . S
C464 C469 1.425 . S
C464 C471 1.409 . S
C465 H457 0.930 1_556 S
C465 C463 1.419 . S
C465 C466 1.362 . S
C466 H458 0.930 . S
C466 C465 1.362 . S
C466 C469 1.409 . S
C467 H459 0.930 . S
C467 C468 1.355 . S
C467 C469 1.415 . S
C468 C467 1.355 . S
C468 C470 1.419 . S
C469 C464 1.425 . S
C469 C466 1.409 . S
C469 C467 1.415 . S
C470 H460 0.930 . S
C470 C468 1.419 . S
C470 C471 1.362 . S
C471 H461 0.930 . S
C471 C464 1.409 . S
C471 C470 1.362 . S
H472 C478 0.930 . S
H473 C481 0.930 . S
H474 C482 0.930 . S
H475 C483 0.930 . S
H476 C486 0.930 . S
H477 C487 0.930 . S
C478 H472 0.930 . S
C478 C479 1.355 1_556 S
C478 C480 1.415 . S
C479 C478 1.355 1_554 S
C479 C481 1.419 . S
C480 C478 1.415 . S
C480 C485 1.425 . S
C480 C487 1.409 . S
C481 H473 0.930 . S
C481 C479 1.419 . S
C481 C482 1.362 . S
C482 H474 0.930 . S
C482 C481 1.362 . S
C482 C485 1.409 1_554 S
C483 H475 0.930 . S
C483 C484 1.355 . S
C483 C485 1.415 . S
C484 C483 1.355 . S
C484 C486 1.419 . S
C485 C480 1.425 . S
C485 C482 1.409 1_556 S
C485 C483 1.415 . S
C486 H476 0.930 . S
C486 C484 1.419 . S
C486 C487 1.362 . S
C487 H477 0.930 . S
C487 C480 1.409 . S
C487 C486 1.362 . S
H488 C494 0.930 . S
H489 C497 0.930 . S
H490 C498 0.930 . S
H491 C499 0.930 . S
H492 C502 0.930 . S
H493 C503 0.930 . S
C494 H488 0.930 . S
C494 C495 1.355 1_655 S
C494 C496 1.415 . S
C495 C494 1.355 1_455 S
C495 C497 1.419 . S
C496 C494 1.415 . S
C496 C501 1.425 1_655 S
C496 C503 1.409 . S
C497 H489 0.930 . S
C497 C495 1.419 . S
C497 C498 1.362 . S
C498 H490 0.930 . S
C498 C497 1.362 . S
C498 C501 1.409 . S
C499 H491 0.930 . S
C499 C500 1.355 1_455 S
C499 C501 1.415 . S
C500 C499 1.355 1_655 S
C500 C502 1.419 . S
C501 C496 1.425 1_455 S
C501 C498 1.409 . S
C501 C499 1.415 . S
C502 H492 0.930 . S
C502 C500 1.419 . S
C502 C503 1.362 . S
C503 H493 0.930 . S
C503 C496 1.409 . S
C503 C502 1.362 . S
H504 C510 0.930 . S
H505 C513 0.930 . S
H506 C514 0.930 . S
H507 C515 0.930 . S
H508 C518 0.930 . S
H509 C519 0.930 . S
C510 H504 0.930 . S
C510 C511 1.355 . S
C510 C512 1.415 . S
C511 C510 1.355 . S
C511 C513 1.419 . S
C512 C510 1.415 . S
C512 C517 1.425 . S
C512 C519 1.409 . S
C513 H505 0.930 . S
C513 C511 1.419 . S
C513 C514 1.362 . S
C514 H506 0.930 . S
C514 C513 1.362 . S
C514 C517 1.409 . S
C515 H507 0.930 . S
C515 C516 1.355 . S
C515 C517 1.415 . S
C516 C515 1.355 . S
C516 C518 1.419 . S
C517 C512 1.425 . S
C517 C514 1.409 . S
C517 C515 1.415 . S
C518 H508 0.930 . S
C518 C516 1.419 . S
C518 C519 1.362 . S
C519 H509 0.930 . S
C519 C512 1.409 . S
C519 C518 1.362 . S
H520 C526 0.930 . S
H521 C529 0.930 . S
H522 C530 0.930 . S
H523 C531 0.930 . S
H524 C534 0.930 . S
H525 C535 0.930 . S
C526 H520 0.930 . S
C526 C527 1.355 . S
C526 C528 1.415 . S
C527 C526 1.355 . S
C527 C529 1.419 . S
C528 C526 1.415 . S
C528 C533 1.425 . S
C528 C535 1.409 . S
C529 H521 0.930 . S
C529 C527 1.419 . S
C529 C530 1.362 . S
C530 H522 0.930 . S
C530 C529 1.362 . S
C530 C533 1.409 . S
C531 H523 0.930 . S
C531 C532 1.355 . S
C531 C533 1.415 . S
C532 C531 1.355 . S
C532 C534 1.419 . S
C533 C528 1.425 . S
C533 C530 1.409 . S
C533 C531 1.415 . S
C534 H524 0.930 . S
C534 C532 1.419 . S
C534 C535 1.362 . S
C535 H525 0.930 . S
C535 C528 1.409 . S
C535 C534 1.362 . S
H536 C542 0.930 . S
H537 C545 0.930 . S
H538 C546 0.930 . S
H539 C547 0.930 . S
H540 C550 0.930 . S
H541 C551 0.930 . S
C542 H536 0.930 . S
C542 C543 1.355 . S
C542 C544 1.415 . S
C543 C542 1.355 . S
C543 C545 1.419 . S
C544 C542 1.415 . S
C544 C549 1.425 . S
C544 C551 1.409 . S
C545 H537 0.930 . S
C545 C543 1.419 . S
C545 C546 1.362 . S
C546 H538 0.930 . S
C546 C545 1.362 . S
C546 C549 1.409 . S
C547 H539 0.930 . S
C547 C548 1.355 . S
C547 C549 1.415 . S
C548 C547 1.355 . S
C548 C550 1.419 . S
C549 C544 1.425 . S
C549 C546 1.409 . S
C549 C547 1.415 . S
C550 H540 0.930 . S
C550 C548 1.419 . S
C550 C551 1.362 . S
C551 H541 0.930 . S
C551 C544 1.409 . S
C551 C550 1.362 . S
C175 C74 1.594 . S
C180 C106 1.582 . S
C196 C126 1.435 . S
C191 C85 1.443 . S
C212 C146 1.577 . S
C207 C52 1.580 . S
C228 C166 1.398 . S
C223 C63 1.415 1_655 S
C244 C107 1.565 1_565 S
C239 C30 1.560 . S
C255 C41 1.431 . S
C260 C127 1.382 . S
C271 C8 1.549 . S
C276 C147 1.557 . S
C287 C19 1.396 . S
C292 C167 1.391 . S
C308 C97 1.013 . S
C303 C62 0.960 . S
C324 C117 0.977 . S
C319 C73 1.066 . S
C340 C137 0.951 . S
C335 C84 0.980 . S
C351 C51 1.033 . S
C356 C157 0.989 . S
C367 C18 0.931 . S
C372 C100 0.946 . S
C388 C120 1.067 . S
C383 C29 1.052 . S
C404 C140 0.893 . S
C399 C40 0.953 . S
C415 C7 1.042 . S
C420 C160 1.006 . S
C431 C60 1.319 1_656 S
C436 C90 1.475 . S
C447 C71 1.352 . S
C452 C110 1.470 . S
C468 C130 1.485 . S
C463 C82 1.316 1_556 S
C484 C150 1.486 . S
C479 C49 1.388 . S
C495 C16 1.289 . S
C500 C92 1.513 . S
C516 C112 1.565 . S
C511 C27 1.237 . S
C532 C132 1.412 . S
C527 C38 1.379 . S
C543 C5 1.336 . S
C548 C152 1.515 . S
