# Generated by pormake.
# Topology pts, (4,4)-cn, num edge types: 1
# Building blocks:
#     Node 0, Type 0, BuildingBlock: MUDLON_clean_sbu_0, # of connection points: 4
#     Node 1, Type 0, BuildingBlock: MUDLON_clean_sbu_0, # of connection points: 4
#     Node 2, Type 1, BuildingBlock: UXUYUI_clean_sbu_0, # of connection points: 4
#     Node 3, Type 1, BuildingBlock: UXUYUI_clean_sbu_0, # of connection points: 4
#     Edge 4, Type (0, 1), BuildingBlock: CIFDUS_clean_linker_0, # of connection points: 2
#     Edge 5, Type (0, 1), BuildingBlock: CIFDUS_clean_linker_0, # of connection points: 2
#     Edge 6, Type (0, 1), BuildingBlock: CIFDUS_clean_linker_0, # of connection points: 2
#     Edge 7, Type (0, 1), BuildingBlock: CIFDUS_clean_linker_0, # of connection points: 2
#     Edge 8, Type (0, 1), BuildingBlock: CIFDUS_clean_linker_0, # of connection points: 2
#     Edge 9, Type (0, 1), BuildingBlock: CIFDUS_clean_linker_0, # of connection points: 2
#     Edge 10, Type (0, 1), BuildingBlock: CIFDUS_clean_linker_0, # of connection points: 2
#     Edge 11, Type (0, 1), BuildingBlock: CIFDUS_clean_linker_0, # of connection points: 2
# Relax obj value: 0.040
# Max RMSD: 0.092
# Mean RMSD: 0.080
data_MOF--net-pts--node1-MUDLON_clean_sbu_0--node2-UXUYUI_clean_sbu_0--edge1-CIFDUS_clean_linker_0
_symmetry_space_group_name_H-M    P1
_symmetry_Int_Tables_number       1
_symmetry_cell_setting            triclinic
loop_
_symmetry_equiv_pos_as_xyz
'x, y, z'
_cell_length_a     25.607976
_cell_length_b     25.73161
_cell_length_c     43.332235
_cell_angle_alpha  89.9823
_cell_angle_beta   89.923002
_cell_angle_gamma 90.083041
loop_
_atom_site_label
_atom_site_type_symbol
_atom_site_fract_x
_atom_site_fract_y
_atom_site_fract_z
_atom_type_partial_charge
Mg0 Mg 0.49708 0.01106 0.03723 0.0
C1 C 0.43656 0.0414 0.98196 0.0
O2 O 0.46954 1.0069 0.97113 0.0
C3 C 0.57097 0.0119 0.08553 0.0
O4 O 0.56042 0.9637 0.07761 0.0
C5 C 0.40198 0.94892 0.05739 0.0
O6 O 0.38699 0.95817 0.02894 0.0
O7 O 0.44847 0.96015 0.06524 0.0
O8 O 0.44096 0.05568 1.00999 0.0
O9 O 0.55511 0.97939 1.00548 0.0
C10 C 0.5827 0.01655 0.99484 0.0
O11 O 0.57222 0.06397 1.00425 0.0
O12 O 0.54671 0.04822 0.07165 0.0
Mg13 Mg 1.00923 0.50363 0.53812 0.0
C14 C 0.99308 0.59982 0.57087 0.0
O15 O 0.0383 0.60318 0.55668 0.0
C16 C 1.00775 0.41711 0.49804 0.0
O17 O 0.05629 0.43003 0.50426 0.0
C18 C 1.00945 0.56887 0.48472 0.0
O19 O 0.96139 0.55252 0.48924 0.0
O20 O 0.04503 0.55217 0.50266 0.0
O21 O 0.96592 0.55878 0.56695 0.0
O22 O 0.05735 0.45772 0.56949 0.0
C23 C 0.0571 0.46694 0.59834 0.0
O24 O 0.03682 0.5107 0.60823 0.0
O25 O 0.97133 0.44357 0.51048 0.0
Li26 Li 0.01335 0.04452 0.30677 0.0
Li27 Li 1.00956 0.95165 0.30168 0.0
Li28 Li 0.05887 0.99825 0.2646 0.0
Li29 Li 0.9631 1.00112 0.26296 0.0
C30 C 0.11646 0.0206 0.31832 0.0
N31 N 0.20563 0.07417 0.33508 0.0
C32 C 0.14828 1.00178 0.34199 0.0
C33 C 0.13008 0.06657 0.30315 0.0
C34 C 0.19318 0.02944 0.35014 0.0
C35 C 0.17528 0.09311 0.31194 0.0
C36 C 0.92005 0.9713 0.32759 0.0
C37 C 0.85377 0.90625 0.33612 0.0
N38 N 0.8627 0.9091 0.36702 0.0
C39 C 0.92838 0.97389 0.35941 0.0
C40 C 0.88233 0.93746 0.31579 0.0
C41 C 0.89906 0.942 0.37897 0.0
C42 C 0.99154 0.14742 0.32865 0.0
N43 N 0.01306 0.10051 0.33552 0.0
C44 C 0.0362 0.12999 0.38594 0.0
C45 C 0.03435 0.09098 0.36365 0.0
C46 C 0.01531 0.17921 0.3794 0.0
C47 C 0.99207 0.18759 0.35047 0.0
H48 H 0.97426 0.1537 0.30619 0.0
H49 H 0.05009 0.05297 0.36876 0.0
C50 C 0.03106 0.88922 0.35372 0.0
N51 N 1.00672 0.88969 0.32587 0.0
C52 C 0.02926 0.84488 0.37231 0.0
C53 C 0.9778 0.80223 0.333 0.0
C54 C 0.98055 0.84739 0.31522 0.0
C55 C 1.0021 0.80064 0.36208 0.0
H56 H 0.05116 0.92366 0.3617 0.0
H57 H 0.96149 0.84891 0.29298 0.0
C58 C 0.02073 0.09558 0.23838 0.0
N59 N 0.03501 0.16672 0.19128 0.0
C60 C 1.00349 0.08427 0.20854 0.0
C61 C 0.04431 0.14358 0.24438 0.0
C62 C 0.01136 0.12057 0.18501 0.0
C63 C 0.05143 0.17889 0.22023 0.0
C64 C 0.0377 0.89663 0.24929 0.0
C65 C 0.08153 0.8832 0.26679 0.0
C66 C 0.02297 0.86519 0.22446 0.0
C67 C 0.10997 0.83879 0.25906 0.0
C68 C 0.05242 0.82105 0.21748 0.0
N69 N 0.09496 0.80888 0.23477 0.0
C70 C 0.16628 0.97854 0.24924 0.0
C71 C 0.11187 0.99961 0.20699 0.0
C72 C 0.20847 0.9699 0.22941 0.0
N73 N 0.11916 0.99369 0.23786 0.0
C74 C 0.15309 0.99185 0.18634 0.0
C75 C 0.2023 0.97654 0.19742 0.0
H76 H 0.17091 0.97126 0.2736 0.0
H77 H 0.07366 0.00891 0.19821 0.0
C78 C 0.8631 0.03844 0.24336 0.0
N79 N 0.90319 1.00537 0.23716 0.0
C80 C 0.81848 0.03852 0.22466 0.0
C81 C 0.85802 0.97132 0.19347 0.0
C82 C 0.90172 0.97275 0.21257 0.0
C83 C 0.81531 1.00388 0.19968 0.0
H84 H 0.86541 0.06401 0.26313 0.0
H85 H 0.93442 0.94751 0.20796 0.0
O86 O 0.07211 0.99406 0.31037 0.0
O87 O 0.94947 1.00094 0.308 0.0
O88 O 0.01251 0.06095 0.26189 0.0
O89 O 1.00912 0.94008 0.25634 0.0
H90 H 0.13839 0.96618 0.35395 0.0
H91 H 0.10636 0.08128 0.28461 0.0
H92 H 0.21813 0.01535 0.36844 0.0
H93 H 0.18629 0.1287 0.30033 0.0
H94 H 0.82464 0.87963 0.32733 0.0
H95 H 0.95764 0.99977 0.36884 0.0
H96 H 0.87564 0.93493 0.29117 0.0
H97 H 0.90532 0.94327 0.40364 0.0
H98 H 0.05387 0.12176 0.40811 0.0
H99 H 0.9758 0.22511 0.34453 0.0
H100 H 0.0478 0.84573 0.39475 0.0
H101 H 0.95686 0.7689 0.32406 0.0
H102 H 0.98474 0.0476 0.20349 0.0
H103 H 0.05675 0.15368 0.26747 0.0
H104 H 0.99862 0.11207 0.16176 0.0
H105 H 0.06983 0.21605 0.22454 0.0
H106 H 0.09362 0.90663 0.28617 0.0
H107 H 0.98912 0.87461 0.21069 0.0
H108 H 0.14397 0.82808 0.2724 0.0
H109 H 0.04141 0.79644 0.19832 0.0
H110 H 0.24515 0.95683 0.23906 0.0
H111 H 0.14629 0.99778 0.16194 0.0
H112 H 0.78622 0.06401 0.23026 0.0
H113 H 0.85743 0.94458 0.17417 0.0
Li114 Li 0.9549 0.02198 0.80123 0.0
Li115 Li 0.04903 0.01891 0.80324 0.0
Li116 Li 1.00353 0.0632 0.76014 0.0
Li117 Li 1.0014 0.96858 0.76336 0.0
C118 C 0.98217 0.10958 0.82742 0.0
N119 N 0.93357 0.16455 0.87402 0.0
C120 C 0.98537 0.09232 0.85794 0.0
C121 C 0.95483 0.15512 0.82062 0.0
C122 C 0.96034 0.12054 0.88116 0.0
C123 C 0.93042 0.1823 0.84451 0.0
C124 C 0.02713 0.91547 0.81649 0.0
C125 C 0.10523 0.86342 0.81301 0.0
N126 N 0.0818 0.82586 0.83026 0.0
C127 C 1.0038 0.87627 0.8341 0.0
C128 C 0.07825 0.90895 0.80577 0.0
C129 C 0.0321 0.8313 0.84085 0.0
C130 C 0.85523 0.05851 0.82279 0.0
N131 N 0.89471 0.02426 0.82775 0.0
C132 C 0.85268 0.99308 0.8736 0.0
C133 C 0.89401 0.99167 0.85249 0.0
C134 C 0.8119 0.02875 0.86933 0.0
C135 C 0.81334 0.06143 0.84336 0.0
H136 H 0.85654 0.08438 0.80328 0.0
H137 H 0.92621 0.96534 0.85623 0.0
C138 C 0.1503 0.05137 0.81647 0.0
N139 N 0.10929 0.02493 0.82875 0.0
C140 C 0.19607 0.05818 0.83344 0.0
C141 C 0.156 0.01189 0.87589 0.0
C142 C 0.11103 1.00554 0.85793 0.0
C143 C 0.19944 0.03812 0.86351 0.0
H144 H 0.14732 0.06729 0.79346 0.0
H145 H 0.07762 0.98501 0.8672 0.0
C146 C 0.908 0.04033 0.73653 0.0
N147 N 0.8413 0.09021 0.69612 0.0
C148 C 0.89099 0.01516 0.70976 0.0
C149 C 0.89144 0.09105 0.74254 0.0
C150 C 0.85717 0.04097 0.68968 0.0
C151 C 0.85763 0.11557 0.72189 0.0
C152 C 0.08374 0.01295 0.72877 0.0
C153 C 0.05095 1.00482 0.70346 0.0
C154 C 0.13732 0.01963 0.72404 0.0
C155 C 0.07228 1.00375 0.67379 0.0
C156 C 0.15717 0.01833 0.694 0.0
N157 N 0.12451 0.01049 0.6697 0.0
C158 C 0.0417 0.16147 0.7436 0.0
C159 C 0.99632 0.12023 0.70279 0.0
C160 C 0.05476 0.20322 0.72441 0.0
N161 N 0.01299 0.12105 0.73259 0.0
C162 C 1.00803 0.16132 0.68291 0.0
C163 C 0.03807 0.20349 0.6935 0.0
H164 H 0.05547 0.16068 0.76718 0.0
H165 H 0.97459 0.08738 0.69415 0.0
C166 C 0.95353 0.88602 0.7301 0.0
N167 N 1.00013 0.90615 0.73931 0.0
C168 C 0.95189 0.84611 0.70816 0.0
C169 C 0.04625 0.84602 0.70744 0.0
C170 C 0.04604 0.88576 0.72931 0.0
C171 C 0.99875 0.82693 0.69577 0.0
H172 H 0.91757 0.90257 0.73874 0.0
H173 H 0.08261 0.90202 0.73717 0.0
O174 O 1.00498 0.08155 0.80427 0.0
O175 O 0.99959 0.95957 0.80963 0.0
O176 O 0.94157 0.01585 0.75632 0.0
O177 O 0.06373 0.01402 0.75807 0.0
H178 H 1.00616 0.05698 0.86352 0.0
H179 H 0.95242 0.16926 0.79714 0.0
H180 H 0.96203 0.10736 0.90485 0.0
H181 H 0.9089 0.21748 0.83959 0.0
H182 H 0.1448 0.85793 0.80488 0.0
H183 H 0.96416 0.88041 0.8424 0.0
H184 H 0.09704 0.93853 0.79198 0.0
H185 H 0.0145 0.80067 0.85447 0.0
H186 H 0.85349 0.96771 0.89354 0.0
H187 H 0.78251 0.08927 0.83906 0.0
H188 H 0.22845 0.07913 0.82318 0.0
H189 H 0.15723 0.99546 0.89889 0.0
H190 H 0.90401 0.97628 0.70437 0.0
H191 H 0.9057 0.11179 0.76248 0.0
H192 H 0.84369 0.02192 0.6689 0.0
H193 H 0.84475 0.15491 0.72624 0.0
H194 H 1.00945 0.99929 0.70668 0.0
H195 H 0.16336 0.02559 0.74336 0.0
H196 H 0.04729 0.99752 0.65402 0.0
H197 H 0.19856 0.02348 0.69 0.0
H198 H 0.07864 0.23435 0.73355 0.0
H199 H 0.9935 0.15998 0.65948 0.0
H200 H 0.91447 0.83243 0.69982 0.0
H201 H 0.0833 0.83159 0.69896 0.0
H202 H 0.41004 0.96927 0.1187 0.0
H203 H 0.30344 0.90991 0.05015 0.0
H204 H 0.2328 0.90969 0.08822 0.0
H205 H 0.19984 0.93335 0.13966 0.0
H206 H 0.30554 0.99998 0.20647 0.0
H207 H 0.37798 0.98959 0.17054 0.0
C208 C 0.37164 0.95524 0.1122 0.0
C209 C 0.36207 0.93957 0.08158 0.0
C210 C 0.33081 0.95708 0.13385 0.0
C211 C 0.31187 0.92214 0.07355 0.0
C212 C 0.27138 0.92231 0.09526 0.0
C213 C 0.23862 0.94593 0.14636 0.0
C214 C 0.24685 0.96778 0.1758 0.0
C215 C 0.28008 0.9411 0.12524 0.0
C216 C 0.29783 0.98257 0.18419 0.0
C217 C 0.33938 0.97694 0.16355 0.0
H218 H 0.07565 0.36468 0.58573 0.0
H219 H 0.05715 0.4726 0.66122 0.0
H220 H 0.05287 0.4005 0.69766 0.0
H221 H 0.04376 0.30701 0.70732 0.0
H222 H 0.06308 0.19888 0.63198 0.0
H223 H 0.0767 0.27093 0.59632 0.0
C224 C 0.07179 0.37256 0.61021 0.0
C225 C 0.06613 0.42408 0.62061 0.0
C226 C 0.06825 0.33081 0.63107 0.0
C227 C 0.06125 0.43339 0.65248 0.0
C228 C 0.05847 0.39211 0.67337 0.0
C229 C 0.05201 0.29899 0.68325 0.0
C230 C 0.0514 0.24739 0.6724 0.0
C231 C 0.06024 0.34065 0.66281 0.0
C232 C 0.06179 0.23813 0.64095 0.0
C233 C 0.07007 0.27935 0.62052 0.0
H234 H 0.62296 0.93987 0.11827 0.0
H235 H 0.61293 0.10564 0.10457 0.0
H236 H 0.68638 0.1185 0.14022 0.0
H237 H 0.75668 0.08129 0.17325 0.0
H238 H 0.76533 0.91487 0.18459 0.0
H239 H 0.68917 0.90365 0.15172 0.0
C240 C 0.63648 0.97901 0.12307 0.0
C241 C 0.61258 0.02172 0.1086 0.0
C242 C 0.67879 0.98589 0.14305 0.0
C243 C 0.63064 0.07205 0.11537 0.0
C244 C 0.67272 0.07936 0.13568 0.0
C245 C 0.74144 0.04272 0.16869 0.0
C246 C 0.76694 0.9989 0.18106 0.0
C247 C 0.69757 0.03643 0.14938 0.0
C248 C 0.74695 0.9491 0.17493 0.0
C249 C 0.70328 0.94264 0.15624 0.0
H250 H 0.03671 0.69431 0.57602 0.0
H251 H 0.92016 0.5957 0.6179 0.0
H252 H 0.90939 0.65881 0.65998 0.0
H253 H 0.93903 0.7392 0.68687 0.0
H254 H 0.05776 0.83445 0.6441 0.0
H255 H 0.06225 0.77497 0.60059 0.0
C256 C 1.00855 0.6866 0.59419 0.0
C257 C 0.97959 0.64016 0.59394 0.0
C258 C 1.00361 0.72216 0.61843 0.0
C259 C 0.94287 0.63124 0.6175 0.0
C260 C 0.93704 0.66713 0.64167 0.0
C261 C 0.96553 0.74699 0.66788 0.0
C262 C 0.99876 0.79073 0.66904 0.0
C263 C 0.96811 0.71227 0.64273 0.0
C264 C 0.03277 0.80044 0.6442 0.0
C265 C 0.03509 0.76666 0.61917 0.0
H266 H 0.4256 0.03111 0.92038 0.0
H267 H 0.34201 0.07882 1.00205 0.0
H268 H 0.26087 0.08379 0.97228 0.0
H269 H 0.21252 0.06723 0.92373 0.0
H270 H 0.29756 0.01866 0.84271 0.0
H271 H 0.37922 0.02128 0.87154 0.0
C272 C 0.38978 0.04333 0.93162 0.0
C273 C 0.38979 0.05426 0.96341 0.0
C274 C 0.34337 0.0453 0.91452 0.0
C275 C 0.34314 0.07045 0.97756 0.0
C276 C 0.29664 0.0728 0.9606 0.0
C277 C 0.24901 0.05734 0.91246 0.0
C278 C 0.24894 0.04248 0.88117 0.0
C279 C 0.29606 0.05901 0.92922 0.0
C280 C 0.29657 0.03051 0.86669 0.0
C281 C 0.34328 0.03183 0.88318 0.0
H282 H 0.07799 0.34719 0.4781 0.0
H283 H 0.91567 0.38913 0.46925 0.0
H284 H 0.90339 0.31941 0.43116 0.0
H285 H 0.94015 0.2471 0.39968 0.0
H286 H 0.10275 0.20703 0.41025 0.0
H287 H 0.1136 0.27579 0.44831 0.0
C288 C 0.03976 0.34126 0.46793 0.0
C289 C 0.99785 0.37354 0.47641 0.0
C290 C 0.03317 0.30148 0.44625 0.0
C291 C 0.94856 0.36476 0.46317 0.0
C292 C 0.94163 0.32506 0.44131 0.0
C293 C 0.9779 0.25372 0.41029 0.0
C294 C 0.02059 0.22191 0.40223 0.0
C295 C 0.98384 0.29335 0.4325 0.0
C296 C 0.06921 0.23055 0.41631 0.0
C297 C 0.07549 0.26996 0.43801 0.0
H298 H 0.63817 0.09078 0.96546 0.0
H299 H 0.62141 0.92425 0.97208 0.0
H300 H 0.69132 0.91303 0.93387 0.0
H301 H 0.75713 0.95126 0.89839 0.0
H302 H 0.77176 0.11816 0.89268 0.0
H303 H 0.70234 0.12842 0.93065 0.0
C304 C 0.64968 0.05188 0.95867 0.0
C305 C 0.62462 0.0084 0.97171 0.0
C306 C 0.68943 0.04584 0.93673 0.0
C307 C 0.64005 0.95839 0.96241 0.0
C308 C 0.68003 0.95199 0.94058 0.0
C309 C 0.74522 0.98981 0.90561 0.0
C310 C 0.76942 0.03391 0.89254 0.0
C311 C 0.70505 0.99551 0.92759 0.0
C312 C 0.75327 0.08362 0.90195 0.0
C313 C 0.71377 0.08954 0.92381 0.0
H314 H 0.94028 0.60756 0.44384 0.0
H315 H 0.10074 0.62205 0.47295 0.0
H316 H 0.11328 0.69427 0.43673 0.0
H317 H 0.07709 0.75549 0.39824 0.0
H318 H 0.91538 0.74121 0.37132 0.0
H319 H 0.90513 0.66633 0.40515 0.0
C320 C 0.97821 0.6262 0.44223 0.0
C321 C 0.01947 0.60951 0.4612 0.0
C322 C 0.98485 0.66784 0.42177 0.0
C323 C 0.06833 0.63408 0.45861 0.0
C324 C 0.07543 0.6755 0.43799 0.0
C325 C 0.03959 0.73606 0.39988 0.0
C326 C 0.99711 0.75399 0.38215 0.0
C327 C 0.03371 0.69316 0.41974 0.0
C328 C 0.94896 0.72789 0.38426 0.0
C329 C 0.94293 0.68522 0.40378 0.0
loop_
_geom_bond_atom_site_label_1
_geom_bond_atom_site_label_2
_geom_bond_distance
_geom_bond_site_symmetry_2
_ccdc_geom_bond_type
Mg0 O7 2.141 . S
Mg0 O8 2.048 1_554 S
Mg0 O9 2.048 1_554 S
Mg0 O12 2.141 . S
C1 O2 1.313 . S
C1 O8 1.195 1_565 S
O2 C1 1.313 . S
C3 O4 1.245 . S
C3 O12 1.289 1_565 S
O4 C3 1.245 . S
C5 O6 1.245 . S
C5 O7 1.289 1_565 S
O6 C5 1.245 . S
O7 Mg0 2.141 . S
O7 C5 1.289 1_545 S
O8 Mg0 2.048 1_556 S
O8 C1 1.195 1_545 S
O9 Mg0 2.048 1_556 S
O9 C10 1.195 1_545 S
C10 O9 1.195 1_565 S
C10 O11 1.313 . S
O11 C10 1.313 . S
O12 Mg0 2.141 . S
O12 C3 1.289 1_545 S
Mg13 O20 2.141 . S
Mg13 O21 2.048 . S
Mg13 O22 2.048 . S
Mg13 O25 2.141 . S
C14 O15 1.313 . S
C14 O21 1.195 1_455 S
O15 C14 1.313 . S
C16 O17 1.245 . S
C16 O25 1.289 1_455 S
O17 C16 1.245 . S
C18 O19 1.245 . S
C18 O20 1.289 1_455 S
O19 C18 1.245 . S
O20 Mg13 2.141 . S
O20 C18 1.289 1_655 S
O21 Mg13 2.048 . S
O21 C14 1.195 1_655 S
O22 Mg13 2.048 . S
O22 C23 1.195 1_655 S
C23 O22 1.195 1_455 S
C23 O24 1.313 . S
O24 C23 1.313 . S
O25 Mg13 2.141 . S
O25 C16 1.289 1_655 S
Li26 N43 1.990 . S
Li26 O86 1.956 1_545 S
Li26 O87 1.970 1_455 S
Li26 O88 1.961 1_455 S
Li27 N51 1.990 . S
Li27 O86 1.970 1_655 S
Li27 O87 1.956 1_565 S
Li27 O89 1.961 1_655 S
Li28 N73 1.990 . S
Li28 O86 1.961 1_545 S
Li28 O88 1.956 1_455 S
Li28 O89 1.970 1_545 S
Li29 N79 1.990 . S
Li29 O87 1.961 1_565 S
Li29 O88 1.970 1_565 S
Li29 O89 1.956 1_655 S
C30 C32 1.348 1_545 S
C30 C33 1.356 . S
C30 O86 1.325 1_545 S
N31 C34 1.314 1_545 S
N31 C35 1.279 . S
C32 C30 1.348 1_565 S
C32 C34 1.353 . S
C32 H90 0.929 . S
C33 C30 1.356 . S
C33 C35 1.358 . S
C33 H91 0.930 . S
C34 N31 1.314 1_565 S
C34 C32 1.353 . S
C34 H92 0.930 . S
C35 N31 1.279 . S
C35 C33 1.358 . S
C35 H93 0.930 . S
C36 C39 1.348 . S
C36 C40 1.356 1_545 S
C36 O87 1.325 . S
C37 N38 1.279 . S
C37 C40 1.358 . S
C37 H94 0.930 . S
N38 C37 1.279 . S
N38 C41 1.314 1_565 S
C39 C36 1.348 . S
C39 C41 1.353 . S
C39 H95 0.929 . S
C40 C36 1.356 1_565 S
C40 C37 1.358 . S
C40 H96 0.930 . S
C41 N38 1.314 1_545 S
C41 C39 1.353 . S
C41 H97 0.930 . S
C42 N43 1.314 1_655 S
C42 C47 1.353 . S
C42 H48 0.930 . S
N43 Li26 1.990 . S
N43 C42 1.314 1_455 S
N43 C45 1.279 . S
C44 C45 1.358 . S
C44 C46 1.356 . S
C44 H98 0.930 . S
C45 N43 1.279 . S
C45 C44 1.358 . S
C45 H49 0.930 . S
C46 C44 1.356 . S
C46 C47 1.348 1_455 S
C47 C42 1.353 . S
C47 C46 1.348 1_655 S
C47 H99 0.929 . S
H48 C42 0.930 . S
H49 C45 0.930 . S
C50 N51 1.314 1_455 S
C50 C52 1.353 . S
C50 H56 0.930 . S
N51 Li27 1.990 . S
N51 C50 1.314 1_655 S
N51 C54 1.279 . S
C52 C50 1.353 . S
C52 C55 1.348 . S
C52 H100 0.929 . S
C53 C54 1.358 . S
C53 C55 1.356 1_655 S
C53 H101 0.930 . S
C54 N51 1.279 . S
C54 C53 1.358 . S
C54 H57 0.930 . S
C55 C52 1.348 . S
C55 C53 1.356 1_455 S
H56 C50 0.930 . S
H57 C54 0.930 . S
C58 C60 1.348 1_455 S
C58 C61 1.356 . S
C58 O88 1.325 1_455 S
N59 C62 1.314 1_455 S
N59 C63 1.279 . S
C60 C58 1.348 1_655 S
C60 C62 1.353 . S
C60 H102 0.929 . S
C61 C58 1.356 . S
C61 C63 1.358 . S
C61 H103 0.930 . S
C62 N59 1.314 1_655 S
C62 C60 1.353 . S
C62 H104 0.930 . S
C63 N59 1.279 . S
C63 C61 1.358 . S
C63 H105 0.930 . S
C64 C65 1.348 . S
C64 C66 1.356 1_455 S
C64 O89 1.325 . S
C65 C64 1.348 . S
C65 C67 1.353 . S
C65 H106 0.929 . S
C66 C64 1.356 1_655 S
C66 C68 1.358 . S
C66 H107 0.930 . S
C67 C65 1.353 . S
C67 N69 1.314 1_455 S
C67 H108 0.930 . S
C68 C66 1.358 . S
C68 N69 1.279 . S
C68 H109 0.930 . S
N69 C67 1.314 1_655 S
N69 C68 1.279 . S
C70 C72 1.353 . S
C70 N73 1.314 1_565 S
C70 H76 0.930 . S
C71 N73 1.279 . S
C71 C74 1.358 . S
C71 H77 0.930 . S
C72 C70 1.353 . S
C72 C75 1.348 1_565 S
C72 H110 0.929 . S
N73 Li28 1.990 . S
N73 C70 1.314 1_545 S
N73 C71 1.279 . S
C74 C71 1.358 . S
C74 C75 1.356 . S
C74 H111 0.930 . S
C75 C72 1.348 1_545 S
C75 C74 1.356 . S
H76 C70 0.930 . S
H77 C71 0.930 . S
C78 N79 1.314 1_545 S
C78 C80 1.353 . S
C78 H84 0.930 . S
N79 Li29 1.990 . S
N79 C78 1.314 1_565 S
N79 C82 1.279 . S
C80 C78 1.353 . S
C80 C83 1.348 . S
C80 H112 0.929 . S
C81 C82 1.358 . S
C81 C83 1.356 1_565 S
C81 H113 0.930 . S
C82 N79 1.279 . S
C82 C81 1.358 . S
C82 H85 0.930 . S
C83 C80 1.348 . S
C83 C81 1.356 1_545 S
H84 C78 0.930 . S
H85 C82 0.930 . S
O86 Li26 1.956 1_565 S
O86 Li27 1.970 1_455 S
O86 Li28 1.961 1_565 S
O86 C30 1.325 1_565 S
O87 Li26 1.970 1_655 S
O87 Li27 1.956 1_545 S
O87 Li29 1.961 1_545 S
O87 C36 1.325 . S
O88 Li26 1.961 1_655 S
O88 Li28 1.956 1_655 S
O88 Li29 1.970 1_545 S
O88 C58 1.325 1_655 S
O89 Li27 1.961 1_455 S
O89 Li28 1.970 1_565 S
O89 Li29 1.956 1_455 S
O89 C64 1.325 . S
H90 C32 0.929 . S
H91 C33 0.930 . S
H92 C34 0.930 . S
H93 C35 0.930 . S
H94 C37 0.930 . S
H95 C39 0.929 . S
H96 C40 0.930 . S
H97 C41 0.930 . S
H98 C44 0.930 . S
H99 C47 0.929 . S
H100 C52 0.929 . S
H101 C53 0.930 . S
H102 C60 0.929 . S
H103 C61 0.930 . S
H104 C62 0.930 . S
H105 C63 0.930 . S
H106 C65 0.929 . S
H107 C66 0.930 . S
H108 C67 0.930 . S
H109 C68 0.930 . S
H110 C72 0.929 . S
H111 C74 0.930 . S
H112 C80 0.929 . S
H113 C81 0.930 . S
Li114 N131 1.990 . S
Li114 O174 1.956 1_655 S
Li114 O175 1.970 1_545 S
Li114 O176 1.961 1_545 S
Li115 N139 1.990 . S
Li115 O174 1.970 1_565 S
Li115 O175 1.956 1_455 S
Li115 O177 1.961 1_565 S
Li116 N161 1.990 . S
Li116 O174 1.961 1_655 S
Li116 O176 1.956 1_545 S
Li116 O177 1.970 1_655 S
Li117 N167 1.990 . S
Li117 O175 1.961 1_455 S
Li117 O176 1.970 1_455 S
Li117 O177 1.956 1_565 S
C118 C120 1.348 . S
C118 C121 1.355 1_455 S
C118 O174 1.325 . S
N119 C122 1.314 1_655 S
N119 C123 1.279 . S
C120 C118 1.348 . S
C120 C122 1.353 . S
C120 H178 0.929 . S
C121 C118 1.355 1_655 S
C121 C123 1.358 . S
C121 H179 0.930 . S
C122 N119 1.314 1_455 S
C122 C120 1.353 . S
C122 H180 0.930 . S
C123 N119 1.279 . S
C123 C121 1.358 . S
C123 H181 0.930 . S
C124 C127 1.348 1_455 S
C124 C128 1.355 . S
C124 O175 1.325 1_455 S
C125 N126 1.279 . S
C125 C128 1.358 . S
C125 H182 0.930 . S
N126 C125 1.279 . S
N126 C129 1.314 1_455 S
C127 C124 1.348 1_655 S
C127 C129 1.353 . S
C127 H183 0.929 . S
C128 C124 1.355 . S
C128 C125 1.358 . S
C128 H184 0.930 . S
C129 N126 1.314 1_655 S
C129 C127 1.353 . S
C129 H185 0.930 . S
C130 N131 1.314 1_565 S
C130 C135 1.353 . S
C130 H136 0.930 . S
N131 Li114 1.990 . S
N131 C130 1.314 1_545 S
N131 C133 1.279 . S
C132 C133 1.358 . S
C132 C134 1.355 . S
C132 H186 0.930 . S
C133 N131 1.279 . S
C133 C132 1.358 . S
C133 H137 0.930 . S
C134 C132 1.355 . S
C134 C135 1.348 1_545 S
C135 C130 1.353 . S
C135 C134 1.348 1_565 S
C135 H187 0.929 . S
H136 C130 0.930 . S
H137 C133 0.930 . S
C138 N139 1.314 1_545 S
C138 C140 1.353 . S
C138 H144 0.930 . S
N139 Li115 1.990 . S
N139 C138 1.314 1_565 S
N139 C142 1.279 . S
C140 C138 1.353 . S
C140 C143 1.348 . S
C140 H188 0.929 . S
C141 C142 1.358 . S
C141 C143 1.355 1_565 S
C141 H189 0.930 . S
C142 N139 1.279 . S
C142 C141 1.358 . S
C142 H145 0.930 . S
C143 C140 1.348 . S
C143 C141 1.355 1_545 S
H144 C138 0.930 . S
H145 C142 0.930 . S
C146 C148 1.348 1_545 S
C146 C149 1.355 . S
C146 O176 1.325 1_545 S
N147 C150 1.314 1_545 S
N147 C151 1.279 . S
C148 C146 1.348 1_565 S
C148 C150 1.353 . S
C148 H190 0.929 . S
C149 C146 1.355 . S
C149 C151 1.358 . S
C149 H191 0.930 . S
C150 N147 1.314 1_565 S
C150 C148 1.353 . S
C150 H192 0.930 . S
C151 N147 1.279 . S
C151 C149 1.358 . S
C151 H193 0.930 . S
C152 C153 1.348 . S
C152 C154 1.355 1_545 S
C152 O177 1.325 . S
C153 C152 1.348 . S
C153 C155 1.353 . S
C153 H194 0.929 . S
C154 C152 1.355 1_565 S
C154 C156 1.358 . S
C154 H195 0.930 . S
C155 C153 1.353 . S
C155 N157 1.314 1_545 S
C155 H196 0.930 . S
C156 C154 1.358 . S
C156 N157 1.279 . S
C156 H197 0.930 . S
N157 C155 1.314 1_565 S
N157 C156 1.279 . S
C158 C160 1.353 . S
C158 N161 1.314 1_455 S
C158 H164 0.930 . S
C159 N161 1.279 . S
C159 C162 1.358 . S
C159 H165 0.930 . S
C160 C158 1.353 . S
C160 C163 1.348 . S
C160 H198 0.929 . S
N161 Li116 1.990 . S
N161 C158 1.314 1_655 S
N161 C159 1.279 . S
C162 C159 1.358 . S
C162 C163 1.355 1_655 S
C162 H199 0.930 . S
C163 C160 1.348 . S
C163 C162 1.355 1_455 S
H164 C158 0.930 . S
H165 C159 0.930 . S
C166 N167 1.314 1_655 S
C166 C168 1.353 . S
C166 H172 0.930 . S
N167 Li117 1.990 . S
N167 C166 1.314 1_455 S
N167 C170 1.279 . S
C168 C166 1.353 . S
C168 C171 1.348 1_655 S
C168 H200 0.929 . S
C169 C170 1.358 . S
C169 C171 1.355 . S
C169 H201 0.930 . S
C170 N167 1.279 . S
C170 C169 1.358 . S
C170 H173 0.930 . S
C171 C168 1.348 1_455 S
C171 C169 1.355 . S
H172 C166 0.930 . S
H173 C170 0.930 . S
O174 Li114 1.956 1_455 S
O174 Li115 1.970 1_545 S
O174 Li116 1.961 1_455 S
O174 C118 1.325 . S
O175 Li114 1.970 1_565 S
O175 Li115 1.956 1_655 S
O175 Li117 1.961 1_655 S
O175 C124 1.325 1_655 S
O176 Li114 1.961 1_565 S
O176 Li116 1.956 1_565 S
O176 Li117 1.970 1_655 S
O176 C146 1.325 1_565 S
O177 Li115 1.961 1_545 S
O177 Li116 1.970 1_455 S
O177 Li117 1.956 1_545 S
O177 C152 1.325 . S
H178 C120 0.929 . S
H179 C121 0.930 . S
H180 C122 0.930 . S
H181 C123 0.930 . S
H182 C125 0.930 . S
H183 C127 0.929 . S
H184 C128 0.930 . S
H185 C129 0.930 . S
H186 C132 0.930 . S
H187 C135 0.929 . S
H188 C140 0.929 . S
H189 C141 0.930 . S
H190 C148 0.929 . S
H191 C149 0.930 . S
H192 C150 0.930 . S
H193 C151 0.930 . S
H194 C153 0.929 . S
H195 C154 0.930 . S
H196 C155 0.930 . S
H197 C156 0.930 . S
H198 C160 0.929 . S
H199 C162 0.930 . S
H200 C168 0.929 . S
H201 C169 0.930 . S
H202 C208 0.930 . S
H203 C211 0.930 . S
H204 C212 0.930 . S
H205 C213 0.930 . S
H206 C216 0.930 . S
H207 C217 0.930 . S
C208 H202 0.930 . S
C208 C209 1.355 1_545 S
C208 C210 1.415 . S
C209 C208 1.355 1_565 S
C209 C211 1.419 . S
C210 C208 1.415 . S
C210 C215 1.425 1_545 S
C210 C217 1.409 . S
C211 H203 0.930 . S
C211 C209 1.419 . S
C211 C212 1.362 . S
C212 H204 0.930 . S
C212 C211 1.362 . S
C212 C215 1.409 . S
C213 H205 0.930 . S
C213 C214 1.355 1_565 S
C213 C215 1.415 . S
C214 C213 1.355 1_545 S
C214 C216 1.419 . S
C215 C210 1.425 1_565 S
C215 C212 1.409 . S
C215 C213 1.415 . S
C216 H206 0.930 . S
C216 C214 1.419 . S
C216 C217 1.362 . S
C217 H207 0.930 . S
C217 C210 1.409 . S
C217 C216 1.362 . S
H218 C224 0.930 . S
H219 C227 0.930 . S
H220 C228 0.930 . S
H221 C229 0.930 . S
H222 C232 0.930 . S
H223 C233 0.930 . S
C224 H218 0.930 . S
C224 C225 1.355 . S
C224 C226 1.415 . S
C225 C224 1.355 . S
C225 C227 1.419 1_655 S
C226 C224 1.415 . S
C226 C231 1.425 1_655 S
C226 C233 1.409 . S
C227 H219 0.930 . S
C227 C225 1.419 1_455 S
C227 C228 1.362 . S
C228 H220 0.930 . S
C228 C227 1.362 . S
C228 C231 1.409 . S
C229 H221 0.930 . S
C229 C230 1.355 . S
C229 C231 1.415 . S
C230 C229 1.355 . S
C230 C232 1.419 1_455 S
C231 C226 1.425 1_455 S
C231 C228 1.409 . S
C231 C229 1.415 . S
C232 H222 0.930 . S
C232 C230 1.419 1_655 S
C232 C233 1.362 . S
C233 H223 0.930 . S
C233 C226 1.409 . S
C233 C232 1.362 . S
H234 C240 0.930 . S
H235 C243 0.930 . S
H236 C244 0.930 . S
H237 C245 0.930 . S
H238 C248 0.930 . S
H239 C249 0.930 . S
C240 H234 0.930 . S
C240 C241 1.355 1_565 S
C240 C242 1.415 . S
C241 C240 1.355 1_545 S
C241 C243 1.419 . S
C242 C240 1.415 . S
C242 C247 1.425 1_565 S
C242 C249 1.409 . S
C243 H235 0.930 . S
C243 C241 1.419 . S
C243 C244 1.362 . S
C244 H236 0.930 . S
C244 C243 1.362 . S
C244 C247 1.409 . S
C245 H237 0.930 . S
C245 C246 1.355 1_545 S
C245 C247 1.415 . S
C246 C245 1.355 1_565 S
C246 C248 1.419 . S
C247 C242 1.425 1_545 S
C247 C244 1.409 . S
C247 C245 1.415 . S
C248 H238 0.930 . S
C248 C246 1.419 . S
C248 C249 1.362 . S
C249 H239 0.930 . S
C249 C242 1.409 . S
C249 C248 1.362 . S
H250 C256 0.930 . S
H251 C259 0.930 . S
H252 C260 0.930 . S
H253 C261 0.930 . S
H254 C264 0.930 . S
H255 C265 0.930 . S
C256 H250 0.930 . S
C256 C257 1.349 1_455 S
C256 C258 1.415 . S
C257 C256 1.349 1_655 S
C257 C259 1.426 . S
C258 C256 1.415 . S
C258 C263 1.425 1_455 S
C258 C265 1.409 . S
C259 H251 0.930 . S
C259 C257 1.426 . S
C259 C260 1.362 . S
C260 H252 0.930 . S
C260 C259 1.362 . S
C260 C263 1.409 . S
C261 H253 0.930 . S
C261 C262 1.356 . S
C261 C263 1.415 . S
C262 C261 1.356 . S
C262 C264 1.417 1_655 S
C263 C258 1.425 1_655 S
C263 C260 1.409 . S
C263 C261 1.415 . S
C264 H254 0.930 . S
C264 C262 1.417 1_455 S
C264 C265 1.362 . S
C265 H255 0.930 . S
C265 C258 1.409 . S
C265 C264 1.362 . S
H266 C272 0.930 . S
H267 C275 0.930 . S
H268 C276 0.930 . S
H269 C277 0.930 . S
H270 C280 0.930 . S
H271 C281 0.930 . S
C272 H266 0.930 . S
C272 C273 1.355 1_565 S
C272 C274 1.415 . S
C273 C272 1.355 1_545 S
C273 C275 1.419 . S
C274 C272 1.415 . S
C274 C279 1.425 1_565 S
C274 C281 1.409 . S
C275 H267 0.930 . S
C275 C273 1.419 . S
C275 C276 1.362 . S
C276 H268 0.930 . S
C276 C275 1.362 . S
C276 C279 1.409 . S
C277 H269 0.930 . S
C277 C278 1.355 1_545 S
C277 C279 1.415 . S
C278 C277 1.355 1_565 S
C278 C280 1.419 . S
C279 C274 1.425 1_545 S
C279 C276 1.409 . S
C279 C277 1.415 . S
C280 H270 0.930 . S
C280 C278 1.419 . S
C280 C281 1.362 . S
C281 H271 0.930 . S
C281 C274 1.409 . S
C281 C280 1.362 . S
H282 C288 0.930 . S
H283 C291 0.930 . S
H284 C292 0.930 . S
H285 C293 0.930 . S
H286 C296 0.930 . S
H287 C297 0.930 . S
C288 H282 0.930 . S
C288 C289 1.355 1_455 S
C288 C290 1.415 . S
C289 C288 1.355 1_655 S
C289 C291 1.419 . S
C290 C288 1.415 . S
C290 C295 1.425 1_455 S
C290 C297 1.409 . S
C291 H283 0.930 . S
C291 C289 1.419 . S
C291 C292 1.362 . S
C292 H284 0.930 . S
C292 C291 1.362 . S
C292 C295 1.409 . S
C293 H285 0.930 . S
C293 C294 1.355 1_655 S
C293 C295 1.415 . S
C294 C293 1.355 1_455 S
C294 C296 1.419 . S
C295 C290 1.425 1_655 S
C295 C292 1.409 . S
C295 C293 1.415 . S
C296 H286 0.930 . S
C296 C294 1.419 . S
C296 C297 1.362 . S
C297 H287 0.930 . S
C297 C290 1.409 . S
C297 C296 1.362 . S
H298 C304 0.930 . S
H299 C307 0.930 . S
H300 C308 0.930 . S
H301 C309 0.930 . S
H302 C312 0.930 . S
H303 C313 0.930 . S
C304 H298 0.930 . S
C304 C305 1.358 . S
C304 C306 1.415 . S
C305 C304 1.358 . S
C305 C307 1.416 1_565 S
C306 C304 1.415 . S
C306 C311 1.425 1_565 S
C306 C313 1.409 . S
C307 H299 0.930 . S
C307 C305 1.416 1_545 S
C307 C308 1.362 . S
C308 H300 0.930 . S
C308 C307 1.362 . S
C308 C311 1.409 . S
C309 H301 0.930 . S
C309 C310 1.355 1_545 S
C309 C311 1.415 . S
C310 C309 1.355 1_565 S
C310 C312 1.419 . S
C311 C306 1.425 1_545 S
C311 C308 1.409 . S
C311 C309 1.415 . S
C312 H302 0.930 . S
C312 C310 1.419 . S
C312 C313 1.362 . S
C313 H303 0.930 . S
C313 C306 1.409 . S
C313 C312 1.362 . S
H314 C320 0.930 . S
H315 C323 0.930 . S
H316 C324 0.930 . S
H317 C325 0.930 . S
H318 C328 0.930 . S
H319 C329 0.930 . S
C320 H314 0.930 . S
C320 C321 1.355 . S
C320 C322 1.415 . S
C321 C320 1.355 . S
C321 C323 1.419 1_655 S
C322 C320 1.415 . S
C322 C327 1.425 1_655 S
C322 C329 1.409 . S
C323 H315 0.930 . S
C323 C321 1.419 1_455 S
C323 C324 1.362 . S
C324 H316 0.930 . S
C324 C323 1.362 . S
C324 C327 1.409 . S
C325 H317 0.930 . S
C325 C326 1.355 . S
C325 C327 1.415 . S
C326 C325 1.355 . S
C326 C328 1.419 1_455 S
C327 C322 1.425 1_455 S
C327 C324 1.409 . S
C327 C325 1.415 . S
C328 H318 0.930 . S
C328 C326 1.419 1_655 S
C328 C329 1.362 . S
C329 H319 0.930 . S
C329 C322 1.409 . S
C329 C328 1.362 . S
C214 C75 1.419 . S
C209 C5 1.398 . S
C230 C163 1.469 . S
C225 C23 1.472 1_655 S
C246 C83 1.403 1_565 S
C241 C3 1.421 1_545 S
C262 C171 1.468 1_655 S
C257 C14 1.475 1_655 S
C278 C143 1.485 1_565 S
C273 C1 1.483 1_545 S
C294 C46 1.401 . S
C289 C16 1.415 1_655 S
C310 C134 1.487 1_565 S
C305 C10 1.481 . S
C321 C18 1.405 1_655 S
C326 C55 1.402 . S
