# Generated by pormake.
# Topology gar, (4,6)-cn, num edge types: 1
# Building blocks:
#     Node 0, Type 0, BuildingBlock: NAHDIM_clean_sbu_0, # of connection points: 4
#     Node 1, Type 0, BuildingBlock: NAHDIM_clean_sbu_0, # of connection points: 4
#     Node 2, Type 0, BuildingBlock: NAHDIM_clean_sbu_0, # of connection points: 4
#     Node 3, Type 0, BuildingBlock: NAHDIM_clean_sbu_0, # of connection points: 4
#     Node 4, Type 0, BuildingBlock: NAHDIM_clean_sbu_0, # of connection points: 4
#     Node 5, Type 0, BuildingBlock: NAHDIM_clean_sbu_0, # of connection points: 4
#     Node 6, Type 0, BuildingBlock: NAHDIM_clean_sbu_0, # of connection points: 4
#     Node 7, Type 0, BuildingBlock: NAHDIM_clean_sbu_0, # of connection points: 4
#     Node 8, Type 0, BuildingBlock: NAHDIM_clean_sbu_0, # of connection points: 4
#     Node 9, Type 0, BuildingBlock: NAHDIM_clean_sbu_0, # of connection points: 4
#     Node 10, Type 0, BuildingBlock: NAHDIM_clean_sbu_0, # of connection points: 4
#     Node 11, Type 0, BuildingBlock: NAHDIM_clean_sbu_0, # of connection points: 4
#     Node 12, Type 0, BuildingBlock: NAHDIM_clean_sbu_0, # of connection points: 4
#     Node 13, Type 0, BuildingBlock: NAHDIM_clean_sbu_0, # of connection points: 4
#     Node 14, Type 0, BuildingBlock: NAHDIM_clean_sbu_0, # of connection points: 4
#     Node 15, Type 0, BuildingBlock: NAHDIM_clean_sbu_0, # of connection points: 4
#     Node 16, Type 0, BuildingBlock: NAHDIM_clean_sbu_0, # of connection points: 4
#     Node 17, Type 0, BuildingBlock: NAHDIM_clean_sbu_0, # of connection points: 4
#     Node 18, Type 0, BuildingBlock: NAHDIM_clean_sbu_0, # of connection points: 4
#     Node 19, Type 0, BuildingBlock: NAHDIM_clean_sbu_0, # of connection points: 4
#     Node 20, Type 0, BuildingBlock: NAHDIM_clean_sbu_0, # of connection points: 4
#     Node 21, Type 0, BuildingBlock: NAHDIM_clean_sbu_0, # of connection points: 4
#     Node 22, Type 0, BuildingBlock: NAHDIM_clean_sbu_0, # of connection points: 4
#     Node 23, Type 0, BuildingBlock: NAHDIM_clean_sbu_0, # of connection points: 4
#     Node 24, Type 1, BuildingBlock: CUKXOW_clean_sbu_0, # of connection points: 6
#     Node 25, Type 1, BuildingBlock: CUKXOW_clean_sbu_0, # of connection points: 6
#     Node 26, Type 1, BuildingBlock: CUKXOW_clean_sbu_0, # of connection points: 6
#     Node 27, Type 1, BuildingBlock: CUKXOW_clean_sbu_0, # of connection points: 6
#     Node 28, Type 1, BuildingBlock: CUKXOW_clean_sbu_0, # of connection points: 6
#     Node 29, Type 1, BuildingBlock: CUKXOW_clean_sbu_0, # of connection points: 6
#     Node 30, Type 1, BuildingBlock: CUKXOW_clean_sbu_0, # of connection points: 6
#     Node 31, Type 1, BuildingBlock: CUKXOW_clean_sbu_0, # of connection points: 6
#     Node 32, Type 1, BuildingBlock: CUKXOW_clean_sbu_0, # of connection points: 6
#     Node 33, Type 1, BuildingBlock: CUKXOW_clean_sbu_0, # of connection points: 6
#     Node 34, Type 1, BuildingBlock: CUKXOW_clean_sbu_0, # of connection points: 6
#     Node 35, Type 1, BuildingBlock: CUKXOW_clean_sbu_0, # of connection points: 6
#     Node 36, Type 1, BuildingBlock: CUKXOW_clean_sbu_0, # of connection points: 6
#     Node 37, Type 1, BuildingBlock: CUKXOW_clean_sbu_0, # of connection points: 6
#     Node 38, Type 1, BuildingBlock: CUKXOW_clean_sbu_0, # of connection points: 6
#     Node 39, Type 1, BuildingBlock: CUKXOW_clean_sbu_0, # of connection points: 6
#     Edge 40, Type (0, 1), BuildingBlock: KIFKEQ_clean_linker_1, # of connection points: 2
#     Edge 41, Type (0, 1), BuildingBlock: KIFKEQ_clean_linker_1, # of connection points: 2
#     Edge 42, Type (0, 1), BuildingBlock: KIFKEQ_clean_linker_1, # of connection points: 2
#     Edge 43, Type (0, 1), BuildingBlock: KIFKEQ_clean_linker_1, # of connection points: 2
#     Edge 44, Type (0, 1), BuildingBlock: KIFKEQ_clean_linker_1, # of connection points: 2
#     Edge 45, Type (0, 1), BuildingBlock: KIFKEQ_clean_linker_1, # of connection points: 2
#     Edge 46, Type (0, 1), BuildingBlock: KIFKEQ_clean_linker_1, # of connection points: 2
#     Edge 47, Type (0, 1), BuildingBlock: KIFKEQ_clean_linker_1, # of connection points: 2
#     Edge 48, Type (0, 1), BuildingBlock: KIFKEQ_clean_linker_1, # of connection points: 2
#     Edge 49, Type (0, 1), BuildingBlock: KIFKEQ_clean_linker_1, # of connection points: 2
#     Edge 50, Type (0, 1), BuildingBlock: KIFKEQ_clean_linker_1, # of connection points: 2
#     Edge 51, Type (0, 1), BuildingBlock: KIFKEQ_clean_linker_1, # of connection points: 2
#     Edge 52, Type (0, 1), BuildingBlock: KIFKEQ_clean_linker_1, # of connection points: 2
#     Edge 53, Type (0, 1), BuildingBlock: KIFKEQ_clean_linker_1, # of connection points: 2
#     Edge 54, Type (0, 1), BuildingBlock: KIFKEQ_clean_linker_1, # of connection points: 2
#     Edge 55, Type (0, 1), BuildingBlock: KIFKEQ_clean_linker_1, # of connection points: 2
#     Edge 56, Type (0, 1), BuildingBlock: KIFKEQ_clean_linker_1, # of connection points: 2
#     Edge 57, Type (0, 1), BuildingBlock: KIFKEQ_clean_linker_1, # of connection points: 2
#     Edge 58, Type (0, 1), BuildingBlock: KIFKEQ_clean_linker_1, # of connection points: 2
#     Edge 59, Type (0, 1), BuildingBlock: KIFKEQ_clean_linker_1, # of connection points: 2
#     Edge 60, Type (0, 1), BuildingBlock: KIFKEQ_clean_linker_1, # of connection points: 2
#     Edge 61, Type (0, 1), BuildingBlock: KIFKEQ_clean_linker_1, # of connection points: 2
#     Edge 62, Type (0, 1), BuildingBlock: KIFKEQ_clean_linker_1, # of connection points: 2
#     Edge 63, Type (0, 1), BuildingBlock: KIFKEQ_clean_linker_1, # of connection points: 2
#     Edge 64, Type (0, 1), BuildingBlock: KIFKEQ_clean_linker_1, # of connection points: 2
#     Edge 65, Type (0, 1), BuildingBlock: KIFKEQ_clean_linker_1, # of connection points: 2
#     Edge 66, Type (0, 1), BuildingBlock: KIFKEQ_clean_linker_1, # of connection points: 2
#     Edge 67, Type (0, 1), BuildingBlock: KIFKEQ_clean_linker_1, # of connection points: 2
#     Edge 68, Type (0, 1), BuildingBlock: KIFKEQ_clean_linker_1, # of connection points: 2
#     Edge 69, Type (0, 1), BuildingBlock: KIFKEQ_clean_linker_1, # of connection points: 2
#     Edge 70, Type (0, 1), BuildingBlock: KIFKEQ_clean_linker_1, # of connection points: 2
#     Edge 71, Type (0, 1), BuildingBlock: KIFKEQ_clean_linker_1, # of connection points: 2
#     Edge 72, Type (0, 1), BuildingBlock: KIFKEQ_clean_linker_1, # of connection points: 2
#     Edge 73, Type (0, 1), BuildingBlock: KIFKEQ_clean_linker_1, # of connection points: 2
#     Edge 74, Type (0, 1), BuildingBlock: KIFKEQ_clean_linker_1, # of connection points: 2
#     Edge 75, Type (0, 1), BuildingBlock: KIFKEQ_clean_linker_1, # of connection points: 2
#     Edge 76, Type (0, 1), BuildingBlock: KIFKEQ_clean_linker_1, # of connection points: 2
#     Edge 77, Type (0, 1), BuildingBlock: KIFKEQ_clean_linker_1, # of connection points: 2
#     Edge 78, Type (0, 1), BuildingBlock: KIFKEQ_clean_linker_1, # of connection points: 2
#     Edge 79, Type (0, 1), BuildingBlock: KIFKEQ_clean_linker_1, # of connection points: 2
#     Edge 80, Type (0, 1), BuildingBlock: KIFKEQ_clean_linker_1, # of connection points: 2
#     Edge 81, Type (0, 1), BuildingBlock: KIFKEQ_clean_linker_1, # of connection points: 2
#     Edge 82, Type (0, 1), BuildingBlock: KIFKEQ_clean_linker_1, # of connection points: 2
#     Edge 83, Type (0, 1), BuildingBlock: KIFKEQ_clean_linker_1, # of connection points: 2
#     Edge 84, Type (0, 1), BuildingBlock: KIFKEQ_clean_linker_1, # of connection points: 2
#     Edge 85, Type (0, 1), BuildingBlock: KIFKEQ_clean_linker_1, # of connection points: 2
#     Edge 86, Type (0, 1), BuildingBlock: KIFKEQ_clean_linker_1, # of connection points: 2
#     Edge 87, Type (0, 1), BuildingBlock: KIFKEQ_clean_linker_1, # of connection points: 2
#     Edge 88, Type (0, 1), BuildingBlock: KIFKEQ_clean_linker_1, # of connection points: 2
#     Edge 89, Type (0, 1), BuildingBlock: KIFKEQ_clean_linker_1, # of connection points: 2
#     Edge 90, Type (0, 1), BuildingBlock: KIFKEQ_clean_linker_1, # of connection points: 2
#     Edge 91, Type (0, 1), BuildingBlock: KIFKEQ_clean_linker_1, # of connection points: 2
#     Edge 92, Type (0, 1), BuildingBlock: KIFKEQ_clean_linker_1, # of connection points: 2
#     Edge 93, Type (0, 1), BuildingBlock: KIFKEQ_clean_linker_1, # of connection points: 2
#     Edge 94, Type (0, 1), BuildingBlock: KIFKEQ_clean_linker_1, # of connection points: 2
#     Edge 95, Type (0, 1), BuildingBlock: KIFKEQ_clean_linker_1, # of connection points: 2
#     Edge 96, Type (0, 1), BuildingBlock: KIFKEQ_clean_linker_1, # of connection points: 2
#     Edge 97, Type (0, 1), BuildingBlock: KIFKEQ_clean_linker_1, # of connection points: 2
#     Edge 98, Type (0, 1), BuildingBlock: KIFKEQ_clean_linker_1, # of connection points: 2
#     Edge 99, Type (0, 1), BuildingBlock: KIFKEQ_clean_linker_1, # of connection points: 2
#     Edge 100, Type (0, 1), BuildingBlock: KIFKEQ_clean_linker_1, # of connection points: 2
#     Edge 101, Type (0, 1), BuildingBlock: KIFKEQ_clean_linker_1, # of connection points: 2
#     Edge 102, Type (0, 1), BuildingBlock: KIFKEQ_clean_linker_1, # of connection points: 2
#     Edge 103, Type (0, 1), BuildingBlock: KIFKEQ_clean_linker_1, # of connection points: 2
#     Edge 104, Type (0, 1), BuildingBlock: KIFKEQ_clean_linker_1, # of connection points: 2
#     Edge 105, Type (0, 1), BuildingBlock: KIFKEQ_clean_linker_1, # of connection points: 2
#     Edge 106, Type (0, 1), BuildingBlock: KIFKEQ_clean_linker_1, # of connection points: 2
#     Edge 107, Type (0, 1), BuildingBlock: KIFKEQ_clean_linker_1, # of connection points: 2
#     Edge 108, Type (0, 1), BuildingBlock: KIFKEQ_clean_linker_1, # of connection points: 2
#     Edge 109, Type (0, 1), BuildingBlock: KIFKEQ_clean_linker_1, # of connection points: 2
#     Edge 110, Type (0, 1), BuildingBlock: KIFKEQ_clean_linker_1, # of connection points: 2
#     Edge 111, Type (0, 1), BuildingBlock: KIFKEQ_clean_linker_1, # of connection points: 2
#     Edge 112, Type (0, 1), BuildingBlock: KIFKEQ_clean_linker_1, # of connection points: 2
#     Edge 113, Type (0, 1), BuildingBlock: KIFKEQ_clean_linker_1, # of connection points: 2
#     Edge 114, Type (0, 1), BuildingBlock: KIFKEQ_clean_linker_1, # of connection points: 2
#     Edge 115, Type (0, 1), BuildingBlock: KIFKEQ_clean_linker_1, # of connection points: 2
#     Edge 116, Type (0, 1), BuildingBlock: KIFKEQ_clean_linker_1, # of connection points: 2
#     Edge 117, Type (0, 1), BuildingBlock: KIFKEQ_clean_linker_1, # of connection points: 2
#     Edge 118, Type (0, 1), BuildingBlock: KIFKEQ_clean_linker_1, # of connection points: 2
#     Edge 119, Type (0, 1), BuildingBlock: KIFKEQ_clean_linker_1, # of connection points: 2
#     Edge 120, Type (0, 1), BuildingBlock: KIFKEQ_clean_linker_1, # of connection points: 2
#     Edge 121, Type (0, 1), BuildingBlock: KIFKEQ_clean_linker_1, # of connection points: 2
#     Edge 122, Type (0, 1), BuildingBlock: KIFKEQ_clean_linker_1, # of connection points: 2
#     Edge 123, Type (0, 1), BuildingBlock: KIFKEQ_clean_linker_1, # of connection points: 2
#     Edge 124, Type (0, 1), BuildingBlock: KIFKEQ_clean_linker_1, # of connection points: 2
#     Edge 125, Type (0, 1), BuildingBlock: KIFKEQ_clean_linker_1, # of connection points: 2
#     Edge 126, Type (0, 1), BuildingBlock: KIFKEQ_clean_linker_1, # of connection points: 2
#     Edge 127, Type (0, 1), BuildingBlock: KIFKEQ_clean_linker_1, # of connection points: 2
#     Edge 128, Type (0, 1), BuildingBlock: KIFKEQ_clean_linker_1, # of connection points: 2
#     Edge 129, Type (0, 1), BuildingBlock: KIFKEQ_clean_linker_1, # of connection points: 2
#     Edge 130, Type (0, 1), BuildingBlock: KIFKEQ_clean_linker_1, # of connection points: 2
#     Edge 131, Type (0, 1), BuildingBlock: KIFKEQ_clean_linker_1, # of connection points: 2
#     Edge 132, Type (0, 1), BuildingBlock: KIFKEQ_clean_linker_1, # of connection points: 2
#     Edge 133, Type (0, 1), BuildingBlock: KIFKEQ_clean_linker_1, # of connection points: 2
#     Edge 134, Type (0, 1), BuildingBlock: KIFKEQ_clean_linker_1, # of connection points: 2
#     Edge 135, Type (0, 1), BuildingBlock: KIFKEQ_clean_linker_1, # of connection points: 2
# Relax obj value: 0.121
# Max RMSD: 0.224
# Mean RMSD: 0.152
data_MOF--net-gar--node1-NAHDIM_clean_sbu_0--node2-CUKXOW_clean_sbu_0--edge1-KIFKEQ_clean_linker_1
_symmetry_space_group_name_H-M    P1
_symmetry_Int_Tables_number       1
_symmetry_cell_setting            triclinic
loop_
_symmetry_equiv_pos_as_xyz
'x, y, z'
_cell_length_a     57.162822
_cell_length_b     54.560887
_cell_length_c     53.653131
_cell_angle_alpha  93.79193
_cell_angle_beta   95.727883
_cell_angle_gamma 99.681512
loop_
_atom_site_label
_atom_site_type_symbol
_atom_site_fract_x
_atom_site_fract_y
_atom_site_fract_z
_atom_type_partial_charge
C0 C 0.0582 0.25456 0.38374 0.0
O1 O 0.05021 0.23351 0.3931 0.0
O2 O 0.02392 0.24419 0.43429 0.0
Zn3 Zn 0.02803 0.27536 0.41636 0.0
O4 O 0.03696 0.30589 0.44049 0.0
C5 C 0.98602 0.25926 0.38213 0.0
O6 O 0.99433 0.23822 0.381 0.0
O7 O 0.05181 0.27459 0.39165 0.0
C8 C 0.02538 0.30803 0.4593 0.0
O9 O 0.00856 0.28955 0.46319 0.0
C10 C 0.03655 0.24231 0.45468 0.0
O11 O 0.0529 0.2613 0.46443 0.0
O12 O 0.99733 0.27768 0.3966 0.0
C13 C 0.96025 0.77328 0.63706 0.0
O14 O 0.96197 0.75149 0.62612 0.0
O15 O 0.98965 0.76093 0.58381 0.0
Zn16 Zn 0.99627 0.79296 0.60587 0.0
O17 O 0.99427 0.82176 0.58532 0.0
C18 C 0.03295 0.77928 0.63838 0.0
O19 O 0.01701 0.75873 0.63707 0.0
O20 O 0.97268 0.79296 0.63079 0.0
C21 C 0.01161 0.83194 0.57439 0.0
O22 O 0.03167 0.82313 0.57622 0.0
C23 C 0.00639 0.75394 0.57286 0.0
O24 O 0.02756 0.76823 0.57575 0.0
O25 O 0.02835 0.79711 0.62574 0.0
C26 C 0.56297 0.78934 0.8894 0.0
O27 O 0.55866 0.81145 0.89673 0.0
O28 O 0.52396 0.74085 0.9399 0.0
Zn29 Zn 0.52645 0.77098 0.92053 0.0
O30 O 0.53276 0.80265 0.94327 0.0
C31 C 0.49256 0.76405 0.8755 0.0
O32 O 0.51098 0.76053 0.8638 0.0
O33 O 0.55201 0.77005 0.89796 0.0
C34 C 0.51523 0.80919 0.95314 0.0
O35 O 0.4942 0.79466 0.94876 0.0
C36 C 0.53035 0.74089 0.96324 0.0
O37 O 0.53953 0.76207 0.97645 0.0
O38 O 0.49524 0.76885 0.89922 0.0
C39 C 0.46698 0.28321 0.15769 0.0
O40 O 0.48401 0.27023 0.16251 0.0
O41 O 0.47912 0.2573 0.09035 0.0
Zn42 Zn 0.48807 0.28993 0.1115 0.0
O43 O 0.48816 0.3187 0.09021 0.0
C44 C 0.52867 0.27234 0.13548 0.0
O45 O 0.51588 0.25039 0.12756 0.0
O46 O 0.46491 0.29271 0.13675 0.0
C47 C 0.5071 0.32923 0.08203 0.0
O48 O 0.52707 0.32074 0.08719 0.0
C49 C 0.48666 0.25441 0.06905 0.0
O50 O 0.49934 0.27354 0.06014 0.0
O51 O 0.52054 0.29193 0.1304 0.0
C52 C 0.94867 0.76355 0.17593 0.0
O53 O 0.94558 0.76104 0.15123 0.0
O54 O 0.99643 0.73453 0.14497 0.0
Zn55 Zn 0.99784 0.76759 0.1658 0.0
O56 O 0.99566 0.79505 0.14224 0.0
C57 C 0.03762 0.76182 0.2032 0.0
O58 O 0.02318 0.74152 0.20751 0.0
O59 O 0.96984 0.7661 0.18703 0.0
C60 C 0.01423 0.80702 0.13446 0.0
O61 O 0.03512 0.80119 0.14157 0.0
C62 C 0.01547 0.73055 0.13616 0.0
O63 O 0.03473 0.74778 0.14083 0.0
O64 O 0.03026 0.77592 0.1873 0.0
C65 C 0.57916 0.79968 0.35904 0.0
O66 O 0.5821 0.80244 0.38373 0.0
O67 O 0.53053 0.76379 0.38937 0.0
Zn68 Zn 0.5292 0.79338 0.36796 0.0
O69 O 0.53079 0.82548 0.39068 0.0
C70 C 0.47989 0.77141 0.34614 0.0
O71 O 0.48187 0.75542 0.36316 0.0
O72 O 0.558 0.79615 0.34777 0.0
C73 C 0.51121 0.83062 0.39718 0.0
O74 O 0.49129 0.81516 0.38913 0.0
C75 C 0.52177 0.76179 0.41022 0.0
O76 O 0.51086 0.7794 0.41877 0.0
O77 O 0.4978 0.7883 0.34415 0.0
C78 C 0.44697 0.25179 0.68494 0.0
O79 O 0.44645 0.23063 0.67154 0.0
O80 O 0.49158 0.23426 0.64561 0.0
Zn81 Zn 0.49327 0.26833 0.6647 0.0
O82 O 0.49267 0.29635 0.64157 0.0
C83 C 0.5431 0.26881 0.67752 0.0
O84 O 0.53967 0.258 0.65452 0.0
O85 O 0.465 0.26917 0.68535 0.0
C86 C 0.4982 0.29737 0.61921 0.0
O87 O 0.50548 0.27827 0.60815 0.0
C88 C 0.47957 0.22537 0.62477 0.0
O89 O 0.46506 0.23846 0.61339 0.0
O90 O 0.52541 0.27568 0.68698 0.0
C91 C 0.0764 0.3051 0.85568 0.0
O92 O 0.07973 0.31134 0.88001 0.0
O93 O 0.02888 0.26833 0.8883 0.0
Zn94 Zn 0.02685 0.29676 0.86585 0.0
O95 O 0.02856 0.32914 0.88805 0.0
C96 C 0.97909 0.27115 0.84196 0.0
O97 O 0.98372 0.25241 0.85461 0.0
O98 O 0.05509 0.2988 0.84499 0.0
C99 C 0.00898 0.33487 0.8939 0.0
O100 O 0.98888 0.32001 0.8852 0.0
C101 C 0.01492 0.26291 0.90495 0.0
O102 O 0.99803 0.27605 0.90808 0.0
O103 O 0.99498 0.29073 0.84297 0.0
C104 C 0.38388 0.12453 0.25027 0.0
O105 O 0.40635 0.13288 0.24763 0.0
O106 O 0.41476 0.07269 0.21945 0.0
Zn107 Zn 0.3976 0.07403 0.25117 0.0
O108 O 0.41982 0.07638 0.2839 0.0
C109 C 0.38288 0.02094 0.24781 0.0
O110 O 0.40554 0.02179 0.24482 0.0
O111 O 0.3771 0.10128 0.25186 0.0
C112 C 0.4092 0.07157 0.30324 0.0
O113 O 0.38573 0.06719 0.30066 0.0
C114 C 0.43734 0.07565 0.21945 0.0
O115 O 0.45102 0.0812 0.24093 0.0
O116 O 0.37497 0.04126 0.2504 0.0
C117 C 0.31034 0.11499 0.49361 0.0
O118 O 0.31822 0.13523 0.48286 0.0
O119 O 0.26463 0.15578 0.51756 0.0
Zn120 Zn 0.26594 0.13283 0.4873 0.0
O121 O 0.27501 0.15368 0.45936 0.0
C122 C 0.2165 0.12558 0.47308 0.0
O123 O 0.22189 0.14984 0.47203 0.0
O124 O 0.28834 0.10964 0.49628 0.0
C125 C 0.28917 0.1745 0.46347 0.0
O126 O 0.29969 0.18169 0.48628 0.0
C127 C 0.28183 0.16204 0.53491 0.0
O128 O 0.30166 0.15317 0.5334 0.0
O129 O 0.23315 0.11343 0.47843 0.0
C130 C 0.17496 0.9572 0.80703 0.0
O131 O 0.16195 0.95556 0.8259 0.0
O132 O 0.13204 1.00077 0.76733 0.0
Zn133 Zn 0.15514 0.00251 0.79837 0.0
O134 O 0.13647 0.99835 0.82853 0.0
C135 C 0.16711 0.05573 0.80691 0.0
O136 O 0.14492 0.05264 0.81226 0.0
O137 O 0.17496 0.97555 0.79361 0.0
C138 C 0.11443 0.98857 0.82534 0.0
O139 O 0.10437 0.98041 0.80255 0.0
C140 C 0.13823 0.99632 0.74564 0.0
O141 O 0.16014 0.99274 0.74359 0.0
O142 O 0.17605 0.03658 0.80112 0.0
C143 C 0.17581 0.91874 0.03409 0.0
O144 O 0.16993 0.89697 0.04301 0.0
O145 O 0.2206 0.87934 0.05709 0.0
Zn146 Zn 0.22186 0.90142 0.02748 0.0
O147 O 0.21936 0.87973 0.99393 0.0
C148 C 0.26139 0.94488 0.02776 0.0
O149 O 0.24486 0.95725 0.01922 0.0
O150 O 0.19642 0.92432 0.02665 0.0
C151 C 0.23198 0.88786 0.9769 0.0
O152 O 0.24496 0.9103 0.9808 0.0
C153 C 0.23838 0.86835 0.06175 0.0
O154 O 0.2553 0.87085 0.04675 0.0
O155 O 0.2553 0.92234 0.03264 0.0
C156 C 0.22312 0.44947 0.0091 0.0
O157 O 0.23274 0.43722 0.99208 0.0
O158 O 0.24783 0.41196 0.07463 0.0
Zn159 Zn 0.25271 0.42601 0.04198 0.0
O160 O 0.24912 0.39714 0.01639 0.0
C161 C 0.30155 0.44784 0.06136 0.0
O162 O 0.29634 0.43799 0.08225 0.0
O163 O 0.22898 0.44752 0.03226 0.0
C164 C 0.26498 0.38344 0.01619 0.0
O165 O 0.28386 0.38848 0.033 0.0
C166 C 0.23108 0.3936 0.07532 0.0
O167 O 0.21594 0.38611 0.05512 0.0
O168 O 0.28564 0.44537 0.04265 0.0
C169 C 0.84451 0.14138 0.99547 0.0
O170 O 0.84597 0.158 0.97879 0.0
O171 O 0.80405 0.18233 0.04298 0.0
Zn172 Zn 0.80135 0.16206 0.00877 0.0
O173 O 0.80166 0.18476 0.97932 0.0
C174 C 0.7499 0.14811 1.0005 0.0
O175 O 0.75184 0.17163 0.99577 0.0
O176 O 0.82762 0.1401 0.00945 0.0
C177 C 0.79218 0.176 0.95729 0.0
O178 O 0.78346 0.15202 0.95346 0.0
C179 C 0.79534 0.20221 0.04609 0.0
O180 O 0.78578 0.2114 0.02628 0.0
O181 O 0.76884 0.13926 0.00592 0.0
C182 C 0.14375 0.4465 0.27128 0.0
O183 O 0.13375 0.45051 0.24915 0.0
O184 O 0.09869 0.48252 0.25427 0.0
Zn185 Zn 0.11975 0.48695 0.28788 0.0
O186 O 0.10121 0.48942 0.31845 0.0
C187 C 0.15667 0.52407 0.27209 0.0
O188 O 0.15825 0.50593 0.25532 0.0
O189 O 0.13998 0.45942 0.29065 0.0
C190 C 0.0787 0.48352 0.31863 0.0
O191 O 0.06539 0.47423 0.29766 0.0
C192 C 0.08924 0.50073 0.24697 0.0
O193 O 0.09167 0.52101 0.26233 0.0
O194 O 0.14188 0.52003 0.28819 0.0
C195 C 0.70623 0.93688 0.51734 0.0
O196 O 0.70312 0.91271 0.51145 0.0
O197 O 0.74 0.90625 0.56964 0.0
Zn198 Zn 0.7497 0.92741 0.54181 0.0
O199 O 0.75322 0.90532 0.51171 0.0
C200 C 0.79803 0.9441 0.56536 0.0
O201 O 0.79472 0.92258 0.57527 0.0
O202 O 0.72494 0.94761 0.5312 0.0
C203 C 0.76619 0.88858 0.51195 0.0
O204 O 0.77867 0.88526 0.53299 0.0
C205 C 0.72853 0.88411 0.56449 0.0
O206 O 0.72222 0.87559 0.54089 0.0
O207 O 0.78098 0.95024 0.55152 0.0
C208 C 0.85241 0.10483 0.2472 0.0
O209 O 0.87356 0.10855 0.2603 0.0
O210 O 0.88667 0.06145 0.20368 0.0
Zn211 Zn 0.86675 0.05869 0.23297 0.0
O212 O 0.88808 0.06369 0.26574 0.0
C213 C 0.85096 0.0051 0.22123 0.0
O214 O 0.86904 0.00705 0.20774 0.0
O215 O 0.84556 0.08474 0.23308 0.0
C216 C 0.90047 0.04755 0.27251 0.0
O217 O 0.89987 0.0274 0.25747 0.0
C218 C 0.90828 0.07268 0.20689 0.0
O219 O 0.91749 0.08283 0.22936 0.0
O220 O 0.84631 0.02464 0.23249 0.0
C221 C 0.34367 0.64549 0.50115 0.0
O222 O 0.35034 0.66954 0.49964 0.0
O223 O 0.30214 0.68047 0.53971 0.0
Zn224 Zn 0.29654 0.65947 0.50576 0.0
O225 O 0.29585 0.68072 0.47534 0.0
C226 C 0.24756 0.6443 0.51565 0.0
O227 O 0.25159 0.66676 0.52735 0.0
O228 O 0.32194 0.63718 0.50377 0.0
C229 C 0.27675 0.68797 0.46678 0.0
O230 O 0.25754 0.68244 0.47823 0.0
C231 C 0.29799 0.70262 0.54304 0.0
O232 O 0.29156 0.71405 0.52337 0.0
O233 O 0.26419 0.6367 0.50483 0.0
C234 C 0.35225 0.60424 0.74469 0.0
O235 O 0.37419 0.60875 0.75602 0.0
O236 O 0.38703 0.55501 0.711 0.0
Zn237 Zn 0.36391 0.55537 0.73713 0.0
O238 O 0.38395 0.56149 0.77048 0.0
C239 C 0.34774 0.50202 0.72552 0.0
O240 O 0.36591 0.50431 0.71215 0.0
O241 O 0.3439 0.58254 0.73409 0.0
C242 C 0.39872 0.547 0.77523 0.0
O243 O 0.40004 0.52885 0.75836 0.0
C244 C 0.39339 0.57209 0.69682 0.0
O245 O 0.3835 0.59215 0.69734 0.0
O246 O 0.34292 0.52141 0.73697 0.0
C247 C 0.63731 0.93345 0.78605 0.0
O248 O 0.61493 0.92351 0.78739 0.0
O249 O 0.60116 0.97798 0.74879 0.0
Zn250 Zn 0.621 0.98271 0.78321 0.0
O251 O 0.60082 0.98244 0.81307 0.0
C252 C 0.63815 0.03443 0.77387 0.0
O253 O 0.61683 0.03261 0.76151 0.0
O254 O 0.64283 0.95687 0.78469 0.0
C255 C 0.59427 0.00246 0.82114 0.0
O256 O 0.60013 0.02278 0.80972 0.0
C257 C 0.58115 0.985 0.74411 0.0
O258 O 0.57124 0.9944 0.76273 0.0
O259 O 0.64361 0.01587 0.78484 0.0
C260 C 0.81645 0.62919 0.99652 0.0
O261 O 0.82254 0.64933 0.98487 0.0
O262 O 0.76564 0.6637 0.0184 0.0
Zn263 Zn 0.76974 0.64169 0.98855 0.0
O264 O 0.77932 0.66366 0.96134 0.0
C265 C 0.72098 0.62524 0.96656 0.0
O266 O 0.72362 0.6474 0.95798 0.0
O267 O 0.79467 0.62191 0.99927 0.0
C268 C 0.772 0.6844 0.96118 0.0
O269 O 0.75809 0.69011 0.97792 0.0
C270 C 0.7835 0.67798 0.03063 0.0
O271 O 0.80497 0.67759 0.02411 0.0
O272 O 0.73866 0.61854 0.97883 0.0
C273 C 0.86796 0.60982 0.73521 0.0
O274 O 0.8683 0.59773 0.71328 0.0
O275 O 0.91408 0.57097 0.72262 0.0
Zn276 Zn 0.89682 0.5736 0.75415 0.0
O277 O 0.91906 0.57621 0.78688 0.0
C278 C 0.87449 0.5218 0.74225 0.0
O279 O 0.89276 0.52159 0.72925 0.0
O280 O 0.87917 0.60315 0.75462 0.0
C281 C 0.92947 0.55828 0.79311 0.0
O282 O 0.92716 0.53842 0.77721 0.0
C283 C 0.9365 0.57697 0.72193 0.0
O284 O 0.95013 0.58659 0.74261 0.0
O285 O 0.87226 0.54206 0.75417 0.0
C286 C 0.67218 0.41339 0.53697 0.0
O287 O 0.66569 0.39006 0.54173 0.0
O288 O 0.72259 0.37985 0.56284 0.0
Zn289 Zn 0.71915 0.39838 0.53077 0.0
O290 O 0.71408 0.37518 0.498 0.0
C291 C 0.76459 0.43174 0.54836 0.0
O292 O 0.75772 0.42935 0.57086 0.0
O293 O 0.69343 0.42061 0.5319 0.0
C294 C 0.73258 0.36773 0.49097 0.0
O295 O 0.75268 0.37345 0.50596 0.0
C296 C 0.71958 0.35623 0.56341 0.0
O297 O 0.71276 0.34206 0.54231 0.0
O298 O 0.75085 0.42098 0.52926 0.0
C299 C 0.66603 0.46067 0.29041 0.0
O300 O 0.64383 0.45584 0.27993 0.0
O301 O 0.6339 0.50231 0.26481 0.0
Zn302 Zn 0.65263 0.50796 0.29933 0.0
O303 O 0.62993 0.50459 0.32593 0.0
C304 C 0.66566 0.55892 0.2887 0.0
O305 O 0.64592 0.55252 0.27326 0.0
O306 O 0.67424 0.4822 0.30142 0.0
C307 C 0.61265 0.51657 0.32467 0.0
O308 O 0.61044 0.53126 0.30646 0.0
C309 C 0.61255 0.49077 0.25945 0.0
O310 O 0.60085 0.48081 0.27722 0.0
O311 O 0.67242 0.54289 0.30269 0.0
Tb312 Tb 0.01978 0.05972 0.00775 0.0
C313 C 0.02221 0.01323 0.97133 0.0
Tb314 Tb 0.00623 0.00669 0.02578 0.0
O315 O 0.05693 0.05473 0.00587 0.0
O316 O 0.03644 0.03569 0.03059 0.0
O317 O 0.01831 0.03655 0.97291 0.0
C318 C 0.00769 0.96234 0.04374 0.0
O319 O 0.02061 0.99888 0.99037 0.0
C320 C 0.96959 0.02868 0.01241 0.0
C321 C 0.00302 0.05295 0.06202 0.0
O322 O 0.99282 0.96633 0.02509 0.0
O323 O 0.02153 0.9832 0.05202 0.0
O324 O 0.96858 0.01052 0.027 0.0
O325 O 0.98946 0.03101 0.0035 0.0
O326 O 0.00693 0.02962 0.06055 0.0
O327 O 0.0048 0.06735 0.04298 0.0
C328 C 0.02038 0.10424 0.98952 0.0
O329 O 0.03267 0.10027 0.01015 0.0
O330 O 0.00795 0.08326 0.97934 0.0
C331 C 0.05611 0.03747 0.02144 0.0
Tb332 Tb 0.268 0.80457 0.2691 0.0
C333 C 0.31182 0.77404 0.26799 0.0
Tb334 Tb 0.25784 0.74819 0.25667 0.0
O335 O 0.25879 0.80097 0.30757 0.0
O336 O 0.27239 0.77295 0.2885 0.0
O337 O 0.30445 0.79599 0.26819 0.0
C338 C 0.24239 0.6997 0.26057 0.0
O339 O 0.2965 0.75255 0.26564 0.0
C340 C 0.26182 0.77524 0.2178 0.0
C341 C 0.21413 0.77799 0.26 0.0
O342 O 0.24463 0.71734 0.27848 0.0
O343 O 0.24899 0.70931 0.24032 0.0
O344 O 0.26705 0.75293 0.21811 0.0
O345 O 0.25288 0.77991 0.23765 0.0
O346 O 0.22188 0.75631 0.2607 0.0
O347 O 0.22911 0.79958 0.26027 0.0
C348 C 0.28468 0.85209 0.26235 0.0
O349 O 0.27481 0.84451 0.28196 0.0
O350 O 0.28487 0.833 0.24672 0.0
C351 C 0.26327 0.77836 0.30812 0.0
Tb352 Tb 0.52986 0.03039 0.51285 0.0
C353 C 0.52033 0.01195 0.56596 0.0
Tb354 Tb 0.47953 0.02362 0.52617 0.0
O355 O 0.54029 0.06414 0.53886 0.0
O356 O 0.50561 0.05447 0.52112 0.0
O357 O 0.53492 0.01299 0.54813 0.0
C358 C 0.43961 0.02915 0.54597 0.0
O359 O 0.49833 0.01676 0.56188 0.0
C360 C 0.48986 0.98552 0.49999 0.0
C361 C 0.48883 0.04258 0.47335 0.0
O362 O 0.46022 0.04348 0.55156 0.0
O363 O 0.44165 0.01142 0.52944 0.0
O364 O 0.4687 0.9913 0.49899 0.0
O365 O 0.50351 0.99931 0.51721 0.0
O366 O 0.47485 0.04224 0.49173 0.0
O367 O 0.51064 0.03695 0.47683 0.0
C368 C 0.5699 0.0242 0.49353 0.0
O369 O 0.56799 0.0418 0.51025 0.0
O370 O 0.5491 0.01037 0.48736 0.0
C371 C 0.51888 0.06926 0.53768 0.0
Tb372 Tb 0.26813 0.28701 0.79958 0.0
C373 C 0.2745 0.3277 0.76026 0.0
Tb374 Tb 0.25521 0.27073 0.74164 0.0
O375 O 0.30623 0.2947 0.79525 0.0
O376 O 0.28295 0.26831 0.7705 0.0
O377 O 0.27146 0.32319 0.78391 0.0
C378 C 0.25918 0.25526 0.6947 0.0
O379 O 0.27134 0.30985 0.7415 0.0
C380 C 0.21889 0.28475 0.76273 0.0
C381 C 0.24615 0.23054 0.78096 0.0
O382 O 0.27472 0.27195 0.70868 0.0
O383 O 0.24139 0.24741 0.70709 0.0
O384 O 0.21779 0.27803 0.73886 0.0
O385 O 0.2397 0.28384 0.77178 0.0
O386 O 0.25063 0.23471 0.75759 0.0
O387 O 0.24941 0.24858 0.79957 0.0
C388 C 0.26516 0.29912 0.84764 0.0
O389 O 0.27764 0.28304 0.83947 0.0
O390 O 0.25472 0.30843 0.82882 0.0
C391 C 0.3041 0.28025 0.77457 0.0
Tb392 Tb 0.99485 0.04055 0.49355 0.0
C393 C 0.96175 0.02437 0.53453 0.0
Tb394 Tb 0.01843 0.03494 0.54648 0.0
O395 O 0.98174 1.00025 0.48803 0.0
O396 O 0.01338 0.01469 0.5109 0.0
O397 O 0.96327 0.03531 0.51321 0.0
C398 C 0.03519 0.01928 0.58964 0.0
O399 O 0.98078 0.02006 0.54881 0.0
C400 C 0.0158 0.0807 0.53655 0.0
C401 C 0.05111 0.05301 0.50585 0.0
O402 O 0.02515 0.03878 0.58752 0.0
O403 O 0.03562 0.00848 0.56746 0.0
O404 O 0.0322 0.07491 0.55249 0.0
O405 O 1.00072 0.0614 0.52893 0.0
O406 O 0.04973 0.0407 0.52634 0.0
O407 O 0.03196 0.05807 0.49242 0.0
C408 C 0.98123 0.05281 0.44777 0.0
O409 O 0.99608 0.03791 0.45305 0.0
O410 O 0.97391 0.06103 0.4684 0.0
C411 C 0.99876 0.9951 0.50353 0.0
Tb412 Tb 0.28786 0.78247 0.77586 0.0
C413 C 0.25164 0.7938 0.81358 0.0
Tb414 Tb 0.23528 0.77935 0.75493 0.0
O415 O 0.29202 0.82238 0.78658 0.0
O416 O 0.26718 0.80563 0.75677 0.0
O417 O 0.2724 0.78643 0.81114 0.0
C418 C 0.19179 0.78718 0.73909 0.0
O419 O 0.23551 0.79437 0.79401 0.0
C420 C 0.2493 0.73642 0.76059 0.0
C421 C 0.27175 0.7693 0.71712 0.0
O422 O 0.21159 0.79921 0.73281 0.0
O423 O 0.19645 0.77081 0.75449 0.0
O424 O 0.23213 0.73941 0.74397 0.0
O425 O 0.25591 0.75647 0.77437 0.0
O426 O 0.25107 0.77674 0.71967 0.0
O427 O 0.28752 0.76789 0.73671 0.0
C428 C 0.33091 0.77276 0.79038 0.0
O429 O 0.32665 0.7899 0.77576 0.0
O430 O 0.311 0.76131 0.79696 0.0
C431 C 0.27432 0.82559 0.77069 0.0
Tb432 Tb 0.48326 0.02144 0.01487 0.0
C433 C 0.51936 0.98486 0.01952 0.0
Tb434 Tb 0.5369 0.04346 0.01992 0.0
O435 O 0.48577 0.00189 0.97838 0.0
O436 O 0.50853 0.03544 0.99051 0.0
O437 O 0.49781 0.98861 0.02413 0.0
C438 C 0.58287 0.05778 0.01309 0.0
O439 O 0.53645 0.00317 0.01482 0.0
C440 C 0.51629 0.04798 0.06127 0.0
C441 C 0.5004 0.07998 0.01532 0.0
O442 O 0.57527 0.04842 0.03307 0.0
O443 O 0.56461 0.05884 0.99705 0.0
O444 O 0.53509 0.06304 0.0564 0.0
O445 O 0.51156 0.02991 0.04454 0.0
O446 O 0.52218 0.07649 0.01129 0.0
O447 O 0.48341 0.06152 0.01978 0.0
C448 C 0.43672 0.00861 0.0199 0.0
O449 O 0.44542 0.01803 1.00048 0.0
O450 O 0.45424 0.00641 0.03646 0.0
C451 C 0.50419 0.01759 0.97362 0.0
Tb452 Tb 0.23927 0.27654 0.27467 0.0
C453 C 0.27692 0.28023 0.32187 0.0
Tb454 Tb 0.29129 0.29689 0.26899 0.0
O455 O 0.24806 0.23936 0.27889 0.0
O456 O 0.26697 0.26381 0.25665 0.0
O457 O 0.25406 0.2791 0.31368 0.0
C458 C 0.33763 0.2999 0.26428 0.0
O459 O 0.29433 0.28571 0.30743 0.0
C460 C 0.26501 0.33081 0.2778 0.0
C461 C 0.25332 0.29428 0.22246 0.0
O462 O 0.32319 0.27996 0.26827 0.0
O463 O 0.32602 0.31838 0.2633 0.0
O464 O 0.28367 0.33459 0.26566 0.0
O465 O 0.2636 0.30981 0.2866 0.0
O466 O 0.27592 0.29306 0.22993 0.0
O467 O 0.23622 0.29028 0.23746 0.0
C468 C 0.19288 0.27143 0.27987 0.0
O469 O 0.20821 0.292 0.28395 0.0
O470 O 0.20361 0.25354 0.27249 0.0
C471 C 0.26603 0.243 0.26575 0.0
Tb472 Tb 0.50253 0.53481 0.99032 0.0
C473 C 0.46897 0.51776 0.03018 0.0
Tb474 Tb 0.52534 0.52852 0.04335 0.0
O475 O 0.48916 0.49452 0.9841 0.0
O476 O 0.52042 0.50847 0.00768 0.0
O477 O 0.47099 0.53012 0.00983 0.0
C478 C 0.53923 0.51257 0.08735 0.0
O479 O 0.48769 0.51202 0.04385 0.0
C480 C 0.52245 0.57439 0.03416 0.0
C481 C 0.55873 0.54697 0.0034 0.0
O482 O 0.52561 0.52911 0.08411 0.0
O483 O 0.54519 0.50506 0.0658 0.0
O484 O 0.53866 0.56865 0.05036 0.0
O485 O 0.50771 0.55505 0.02602 0.0
O486 O 0.55719 0.53491 0.02406 0.0
O487 O 0.53973 0.55198 0.98968 0.0
C488 C 0.48808 0.54881 0.94556 0.0
O489 O 0.50293 0.53362 0.94964 0.0
O490 O 0.48134 0.55626 0.96675 0.0
C491 C 0.50581 0.48901 0.99987 0.0
Tb492 Tb 0.78449 0.28605 0.27841 0.0
C493 C 0.74635 0.29252 0.31602 0.0
Tb494 Tb 0.73036 0.27649 0.25772 0.0
O495 O 0.78585 0.32624 0.28661 0.0
O496 O 0.76016 0.30556 0.25962 0.0
O497 O 0.76802 0.28763 0.31333 0.0
C498 C 0.6866 0.28054 0.23855 0.0
O499 O 0.7296 0.29159 0.29668 0.0
C500 C 0.74884 0.2361 0.26418 0.0
C501 C 0.76847 0.26968 0.22008 0.0
O502 O 0.69147 0.26733 0.25706 0.0
O503 O 0.70629 0.29154 0.2311 0.0
O504 O 0.72925 0.23617 0.24972 0.0
O505 O 0.75474 0.25711 0.27642 0.0
O506 O 0.74665 0.27419 0.22268 0.0
O507 O 0.78527 0.27124 0.23945 0.0
C508 C 0.82812 0.28055 0.29645 0.0
O509 O 0.82331 0.29378 0.27794 0.0
O510 O 0.80848 0.27068 0.30481 0.0
C511 C 0.76627 0.32645 0.27215 0.0
Tb512 Tb 0.98071 0.51734 0.5191 0.0
C513 C 0.01656 0.4802 0.52327 0.0
Tb514 Tb 0.03426 0.53842 0.5224 0.0
O515 O 0.9814 0.49682 0.48271 0.0
O516 O 0.00539 0.52985 0.49347 0.0
O517 O 0.99512 0.48425 0.528 0.0
C518 C 0.08016 0.55199 0.51538 0.0
O519 O 0.03356 0.49821 0.5179 0.0
C520 C 0.0147 0.54455 0.56424 0.0
C521 C 0.9985 0.57536 0.51722 0.0
O522 O 0.07253 0.54059 0.53428 0.0
O523 O 0.06198 0.55552 0.50047 0.0
O524 O 0.03332 0.55928 0.55851 0.0
O525 O 0.00957 0.52608 0.54804 0.0
O526 O 0.01969 0.57096 0.5121 0.0
O527 O 0.9816 0.55768 0.52336 0.0
C528 C 0.93485 0.50481 0.52674 0.0
O529 O 0.94244 0.51453 0.50695 0.0
O530 O 0.95306 0.50223 0.54217 0.0
C531 C 1.00008 0.51155 0.47709 0.0
Tb532 Tb 0.77097 0.78994 0.29554 0.0
C533 C 0.77639 0.8325 0.25893 0.0
Tb534 Tb 0.758 0.77523 0.24064 0.0
O535 O 0.80884 0.79909 0.29057 0.0
O536 O 0.78638 0.77072 0.26729 0.0
O537 O 0.77419 0.82735 0.28254 0.0
C538 C 0.75969 0.76647 0.19157 0.0
O539 O 0.77204 0.81489 0.23998 0.0
C540 C 0.72171 0.7821 0.26507 0.0
C541 C 0.75343 0.73272 0.27656 0.0
O542 O 0.77728 0.77791 0.20748 0.0
O543 O 0.74111 0.76003 0.20324 0.0
O544 O 0.71996 0.7669 0.24509 0.0
O545 O 0.74262 0.79457 0.26877 0.0
O546 O 0.75792 0.73846 0.25369 0.0
O547 O 0.75565 0.75015 0.29555 0.0
C548 C 0.76939 0.79873 0.34472 0.0
O549 O 0.75116 0.79492 0.3277 0.0
O550 O 0.78861 0.79761 0.33409 0.0
C551 C 0.80717 0.78351 0.27086 0.0
Tb552 Tb 0.76643 0.30644 0.77075 0.0
C553 C 0.8077 0.2748 0.77507 0.0
Tb554 Tb 0.75285 0.24935 0.76539 0.0
O555 O 0.78113 0.30567 0.81007 0.0
O556 O 0.75307 0.27819 0.79367 0.0
O557 O 0.80176 0.29657 0.76982 0.0
C558 C 0.74164 0.20142 0.77419 0.0
O559 O 0.79151 0.2544 0.77618 0.0
C560 C 0.75095 0.27071 0.72293 0.0
C561 C 0.71145 0.28083 0.76069 0.0
O562 O 0.73837 0.22035 0.78844 0.0
O563 O 0.75175 0.20946 0.7549 0.0
O564 O 0.73814 0.24939 0.72621 0.0
O565 O 0.76586 0.27758 0.7422 0.0
O566 O 0.71756 0.25912 0.76576 0.0
O567 O 0.72755 0.3015 0.76028 0.0
C568 C 0.77685 0.35459 0.76216 0.0
O569 O 0.77726 0.33575 0.74631 0.0
O570 O 0.77017 0.34636 0.78298 0.0
C571 C 0.76773 0.28462 0.81313 0.0
Tb572 Tb 0.73426 0.7706 0.7668 0.0
C573 C 0.77697 0.77415 0.8086 0.0
Tb574 Tb 0.7846 0.78791 0.75342 0.0
O575 O 0.74032 0.73207 0.7679 0.0
O576 O 0.75808 0.75578 0.74441 0.0
O577 O 0.75432 0.77676 0.80398 0.0
C578 C 0.82931 0.7893 0.74289 0.0
O579 O 0.79181 0.77573 0.79106 0.0
C580 C 0.76167 0.8235 0.76774 0.0
C581 C 0.74199 0.78571 0.71179 0.0
O582 O 0.81594 0.77037 0.75056 0.0
O583 O 0.81761 0.80765 0.74139 0.0
O584 O 0.77809 0.82655 0.75262 0.0
O585 O 0.76087 0.80237 0.77588 0.0
O586 O 0.76478 0.78349 0.71618 0.0
O587 O 0.72709 0.78292 0.72927 0.0
C588 C 0.6898 0.76887 0.7784 0.0
O589 O 0.70202 0.78702 0.76829 0.0
O590 O 0.70243 0.75144 0.78146 0.0
C591 C 0.75695 0.73476 0.75304 0.0
Tb592 Tb 0.51999 0.55894 0.51571 0.0
C593 C 0.51419 0.51951 0.46754 0.0
Tb594 Tb 0.49854 0.50338 0.51943 0.0
O595 O 0.5545 0.55378 0.53534 0.0
O596 O 0.53186 0.52435 0.51429 0.0
O597 O 0.51587 0.54315 0.47649 0.0
C598 C 0.49728 0.45836 0.53666 0.0
O599 O 0.51035 0.50063 0.48198 0.0
C600 C 0.46746 0.53204 0.50605 0.0
C601 C 0.50275 0.54374 0.5674 0.0
O602 O 0.48265 0.46353 0.51832 0.0
O603 O 0.51234 0.47841 0.54499 0.0
O604 O 0.46341 0.5079 0.50077 0.0
O605 O 0.4866 0.53766 0.52046 0.0
O606 O 0.49949 0.5199 0.55827 0.0
O607 O 0.50936 0.56255 0.55354 0.0
C608 C 0.52286 0.60471 0.49966 0.0
O609 O 0.54061 0.59596 0.51079 0.0
O610 O 0.50378 0.58785 0.49794 0.0
C611 C 0.5507 0.52979 0.52919 0.0
Tb612 Tb 0.03773 0.53 0.01264 0.0
C613 C 0.02643 0.5165 0.06671 0.0
Tb614 Tb 0.98777 0.53085 0.02555 0.0
O615 O 0.05152 0.56232 0.03938 0.0
O616 O 0.01722 0.55814 0.02021 0.0
O617 O 0.04103 0.51464 0.04915 0.0
C618 C 0.94956 0.54338 0.04431 0.0
O619 O 0.00544 0.5237 0.0619 0.0
C620 C 0.99349 0.48972 1.00084 0.0
C621 C 0.99882 0.54368 0.9715 0.0
O622 O 0.97076 0.55678 0.04709 0.0
O623 O 0.94999 0.52263 0.03125 0.0
O624 O 0.97361 0.49833 0.99918 0.0
O625 O 0.00816 0.50274 0.0177 0.0
O626 O 0.98512 0.54707 0.98955 0.0
O627 O 0.01923 0.53525 0.97596 0.0
C628 C 0.07654 0.51992 0.99333 0.0
O629 O 0.05732 0.50392 0.99474 0.0
O630 O 0.07393 0.54163 0.00283 0.0
C631 C 0.03179 0.57116 0.03717 0.0
H632 H 0.05267 0.23815 0.91188 0.0
H633 H 0.98094 0.23803 0.93082 0.0
H634 H 0.05456 0.20081 0.93448 0.0
H635 H 0.98278 0.20057 0.95297 0.0
H636 H 0.98673 0.11559 0.95521 0.0
H637 H 0.98596 0.15517 0.93662 0.0
H638 H 0.05255 0.18715 0.9811 0.0
H639 H 0.05306 0.14746 1.00022 0.0
C640 C 0.03737 0.23022 0.92092 0.0
C641 C 0.01662 0.24099 0.91949 0.0
C642 C 0.03852 0.20897 0.93397 0.0
C643 C 0.0188 0.19783 0.9454 0.0
C644 C 0.99819 0.20874 0.94421 0.0
C645 C 0.99718 0.23022 0.93159 0.0
C646 C 1.00115 0.13111 0.96111 0.0
C647 C 0.01997 0.12853 0.9791 0.0
C648 C 1.00064 0.15376 0.95056 0.0
C649 C 0.01919 0.17418 0.95744 0.0
C650 C 0.03809 0.17163 0.97543 0.0
C651 C 0.03833 0.14904 0.98641 0.0
H652 H 0.07468 0.79663 0.1917 0.0
H653 H 0.05797 0.73816 0.24089 0.0
H654 H 0.11678 0.80189 0.20789 0.0
H655 H 0.09989 0.74393 0.25768 0.0
H656 H 0.17849 0.73719 0.2562 0.0
H657 H 0.13607 0.7351 0.24468 0.0
H658 H 0.14719 0.8152 0.24235 0.0
H659 H 0.19006 0.8172 0.25318 0.0
C660 C 0.07991 0.78516 0.20628 0.0
C661 C 0.0629 0.76683 0.21484 0.0
C662 C 0.10411 0.78827 0.21569 0.0
C663 C 0.11194 0.77322 0.23402 0.0
C664 C 0.09471 0.75553 0.24322 0.0
C665 C 0.07057 0.75232 0.23369 0.0
C666 C 0.17198 0.75445 0.25347 0.0
C667 C 0.18786 0.77737 0.25557 0.0
C668 C 0.14747 0.75326 0.24698 0.0
C669 C 0.138 0.77497 0.2425 0.0
C670 C 0.1538 0.79802 0.24527 0.0
C671 C 0.17841 0.79921 0.25171 0.0
H672 H 0.47279 0.84257 0.41796 0.0
H673 H 0.54752 0.8703 0.4136 0.0
H674 H 0.46986 0.88022 0.44311 0.0
H675 H 0.5444 0.90872 0.43867 0.0
H676 H 0.46271 0.95959 0.45978 0.0
H677 H 0.46991 0.92313 0.43531 0.0
H678 H 0.53717 0.92633 0.48104 0.0
H679 H 0.53 0.96357 0.50551 0.0
C680 C 0.48864 0.85676 0.4223 0.0
C681 C 0.51034 0.85347 0.41349 0.0
C682 C 0.48692 0.87848 0.43667 0.0
C683 C 0.50678 0.89774 0.44258 0.0
C684 C 0.52876 0.89424 0.43447 0.0
C685 C 0.53052 0.8723 0.42003 0.0
C686 C 0.47909 0.9526 0.46462 0.0
C687 C 0.49566 0.96425 0.48472 0.0
C688 C 0.48318 0.93159 0.45065 0.0
C689 C 0.50391 0.92146 0.45647 0.0
C690 C 0.52102 0.93365 0.47606 0.0
C691 C 0.5169 0.95489 0.49011 0.0
H692 H 0.40846 0.21715 0.6932 0.0
H693 H 0.43786 0.29571 0.70643 0.0
H694 H 0.37392 0.22387 0.71424 0.0
H695 H 0.40294 0.30268 0.72652 0.0
H696 H 0.35008 0.30403 0.78408 0.0
H697 H 0.38423 0.29685 0.76285 0.0
H698 H 0.33826 0.24036 0.71152 0.0
H699 H 0.30426 0.24671 0.73396 0.0
C700 C 0.40752 0.2359 0.70051 0.0
C701 C 0.42608 0.25585 0.69824 0.0
C702 C 0.38754 0.23982 0.71242 0.0
C703 C 0.38542 0.26385 0.7222 0.0
C704 C 0.40399 0.28381 0.71974 0.0
C705 C 0.42407 0.27984 0.70807 0.0
C706 C 0.34726 0.29007 0.76825 0.0
C707 C 0.32442 0.27607 0.76059 0.0
C708 C 0.36687 0.28607 0.75587 0.0
C709 C 0.36421 0.26809 0.73524 0.0
C710 C 0.34121 0.25415 0.72748 0.0
C711 C 0.32159 0.258 0.74012 0.0
H712 H 0.04479 0.8585 0.54852 0.0
H713 H 0.97358 0.85609 0.57006 0.0
H714 H 0.0417 0.8968 0.5283 0.0
H715 H 0.97079 0.89452 0.55052 0.0
H716 H 0.96473 0.95334 0.49645 0.0
H717 H 0.96792 0.9122 0.51047 0.0
H718 H 0.04104 0.93997 0.54166 0.0
H719 H 0.03806 0.98062 0.52653 0.0
C720 C 0.02848 0.86609 0.54888 0.0
C721 C 0.00948 0.85434 0.56097 0.0
C722 C 0.02676 0.88807 0.53741 0.0
C723 C 0.00602 0.8987 0.53787 0.0
C724 C 0.98686 0.88662 0.54951 0.0
C725 C 0.98855 0.86466 0.56088 0.0
C726 C 0.9815 0.95048 0.5061 0.0
C727 C 1.00101 0.97013 0.51092 0.0
C728 C 0.98331 0.92704 0.51425 0.0
C729 C 0.00467 0.9229 0.52736 0.0
C730 C 0.0244 0.94248 0.53146 0.0
C731 C 0.0226 0.96585 0.52319 0.0
H732 H 0.44996 0.76239 0.89445 0.0
H733 H 0.48163 0.76251 0.82455 0.0
H734 H 0.41092 0.76152 0.87138 0.0
H735 H 0.44233 0.76157 0.80143 0.0
H736 H 0.37389 0.79687 0.77959 0.0
H737 H 0.41342 0.79193 0.79839 0.0
H738 H 0.38077 0.73321 0.84059 0.0
H739 H 0.34129 0.73825 0.82189 0.0
C740 C 0.44857 0.76211 0.87415 0.0
C741 C 0.46886 0.76263 0.86131 0.0
C742 C 0.42618 0.7614 0.86094 0.0
C743 C 0.42365 0.76139 0.83464 0.0
C744 C 0.44387 0.76167 0.82172 0.0
C745 C 0.46629 0.76213 0.83495 0.0
C746 C 0.37525 0.78272 0.79265 0.0
C747 C 0.35468 0.76814 0.7996 0.0
C748 C 0.39782 0.7798 0.80327 0.0
C749 C 0.40007 0.76233 0.82107 0.0
C750 C 0.37947 0.74704 0.82717 0.0
C751 C 0.35694 0.74988 0.81646 0.0
H752 H 0.46418 0.2106 0.08413 0.0
H753 H 0.50339 0.24105 0.02505 0.0
H754 H 0.46477 0.1686 0.06633 0.0
H755 H 0.50355 0.19888 0.00693 0.0
H756 H 0.45813 0.09489 0.02293 0.0
H757 H 0.45126 0.13738 0.03108 0.0
H758 H 0.52451 0.16574 0.02042 0.0
H759 H 0.53131 0.12336 0.01176 0.0
C760 C 0.47252 0.20834 0.06705 0.0
C761 C 0.48399 0.22915 0.05617 0.0
C762 C 0.47273 0.18424 0.05675 0.0
C763 C 0.48435 0.18042 0.03531 0.0
C764 C 0.49475 0.20125 0.02368 0.0
C765 C 0.49455 0.22539 0.03399 0.0
C766 C 0.47269 0.11018 0.02193 0.0
C767 C 0.49536 0.1057 0.01697 0.0
C768 C 0.46875 0.13453 0.0267 0.0
C769 C 0.48738 0.1549 0.02663 0.0
C770 C 0.5097 0.15047 0.02038 0.0
C771 C 0.51364 0.12612 0.01557 0.0
H772 H 0.08644 0.2207 0.37226 0.0
H773 H 0.06587 0.28948 0.35025 0.0
H774 H 0.11545 0.22368 0.34175 0.0
H775 H 0.09395 0.29191 0.31892 0.0
H776 H 0.16043 0.22833 0.27856 0.0
H777 H 0.12372 0.22264 0.29899 0.0
H778 H 0.13574 0.30191 0.32087 0.0
H779 H 0.17155 0.30751 0.29972 0.0
C780 C 0.08785 0.23621 0.36057 0.0
C781 C 0.07428 0.2551 0.36391 0.0
C782 C 0.10429 0.23782 0.3429 0.0
C783 C 0.10718 0.25816 0.32799 0.0
C784 C 0.09258 0.2763 0.33047 0.0
C785 C 0.07648 0.2749 0.3484 0.0
C786 C 0.15476 0.24453 0.2872 0.0
C787 C 0.1688 0.2683 0.2878 0.0
C788 C 0.13391 0.24128 0.29909 0.0
C789 C 0.12692 0.26176 0.31186 0.0
C790 C 0.14034 0.28573 0.31101 0.0
C791 C 0.16099 0.28896 0.299 0.0
H792 H 0.89366 0.06281 0.15651 0.0
H793 H 0.95686 0.08431 0.20981 0.0
H794 H 0.91877 0.0625 0.12217 0.0
H795 H 0.98186 0.08367 0.17548 0.0
H796 H 0.01114 0.03941 0.10963 0.0
H797 H 0.98922 0.04767 0.1452 0.0
H798 H 0.94917 0.09292 0.10068 0.0
H799 H 0.97136 0.08496 0.0651 0.0
C800 C 0.91287 0.06759 0.16088 0.0
C801 C 0.92327 0.07349 0.18588 0.0
C802 C 0.92722 0.06759 0.14122 0.0
C803 C 0.95224 0.07311 0.14621 0.0
C804 C 0.96262 0.07929 0.17115 0.0
C805 C 0.94829 0.07969 0.19076 0.0
C806 C 0.99805 0.0516 0.10764 0.0
C807 C 0.99303 0.06164 0.08466 0.0
C808 C 0.98553 0.05634 0.12799 0.0
C809 C 0.96742 0.0708 0.12561 0.0
C810 C 0.96297 0.0816 0.10293 0.0
C811 C 0.97584 0.07725 0.0827 0.0
H812 H 0.23934 0.70808 0.44658 0.0
H813 H 0.31122 0.69922 0.43483 0.0
H814 H 0.23614 0.72948 0.40842 0.0
H815 H 0.3081 0.72111 0.39654 0.0
H816 H 0.2833 0.7369 0.31538 0.0
H817 H 0.28709 0.71543 0.35376 0.0
H818 H 0.25133 0.76837 0.39152 0.0
H819 H 0.24719 0.78949 0.35297 0.0
C820 C 0.25457 0.71081 0.43594 0.0
C821 C 0.27556 0.70187 0.44385 0.0
C822 C 0.25275 0.72325 0.41405 0.0
C823 C 0.27185 0.7271 0.39934 0.0
C824 C 0.29293 0.71825 0.40726 0.0
C825 C 0.2948 0.70585 0.42931 0.0
C826 C 0.27608 0.74381 0.33183 0.0
C827 C 0.2648 0.7648 0.33112 0.0
C828 C 0.27848 0.73167 0.35392 0.0
C829 C 0.26958 0.74017 0.37582 0.0
C830 C 0.25818 0.76111 0.37498 0.0
C831 C 0.25585 0.77329 0.35291 0.0
H832 H 0.543 0.00607 0.72735 0.0
H833 H 0.59601 0.96598 0.70091 0.0
H834 H 0.52822 0.01082 0.6842 0.0
H835 H 0.58065 0.96996 0.65754 0.0
H836 H 0.49353 0.99972 0.6043 0.0
H837 H 0.50717 0.99043 0.64645 0.0
H838 H 0.57976 1.0002 0.62767 0.0
H839 H 0.56593 0.00865 0.58514 0.0
C840 C 0.55127 0.99789 0.71231 0.0
C841 C 0.57075 0.98569 0.71767 0.0
C842 C 0.54269 1.00051 0.68745 0.0
C843 C 0.55321 0.99083 0.66719 0.0
C844 C 0.57233 0.97805 0.67258 0.0
C845 C 0.58102 0.97557 0.69749 0.0
C846 C 0.5124 0.99974 0.60907 0.0
C847 C 0.52863 0.00503 0.59128 0.0
C848 C 0.52027 0.99455 0.63338 0.0
C849 C 0.54465 0.99473 0.64071 0.0
C850 C 0.56082 0.99955 0.62272 0.0
C851 C 0.5529 0.00454 0.5983 0.0
H852 H 0.30126 0.36275 0.99906 0.0
H853 H 0.22508 0.36061 0.98635 0.0
H854 H 0.29951 0.33699 0.95976 0.0
H855 H 0.22316 0.33413 0.9476 0.0
H856 H 0.23815 0.33102 0.86503 0.0
H857 H 0.23649 0.34578 0.90832 0.0
H858 H 0.28566 0.29793 0.93341 0.0
H859 H 0.28771 0.28351 0.88952 0.0
C860 C 0.28406 0.35618 0.98821 0.0
C861 C 0.26339 0.36409 0.99537 0.0
C862 C 0.28303 0.34131 0.96577 0.0
C863 C 0.26125 0.33395 0.95036 0.0
C864 C 0.24029 0.34006 0.95877 0.0
C865 C 0.24137 0.35516 0.98097 0.0
C866 C 0.24846 0.3235 0.87979 0.0
C867 C 0.26321 0.30634 0.87405 0.0
C868 C 0.24732 0.33174 0.90464 0.0
C869 C 0.26084 0.3229 0.92433 0.0
C870 C 0.27516 0.30516 0.9186 0.0
C871 C 0.2763 0.29689 0.89359 0.0
H872 H 0.90709 0.0879 0.30719 0.0
H873 H 0.92549 0.01477 0.29449 0.0
H874 H 0.9289 0.09258 0.3492 0.0
H875 H 0.94669 0.01918 0.33656 0.0
H876 H 0.99903 0.03999 0.4049 0.0
H877 H 0.98164 0.04166 0.36187 0.0
H878 H 0.92501 0.07549 0.38954 0.0
H879 H 0.943 0.07448 0.43272 0.0
C880 C 0.91582 0.07284 0.31334 0.0
C881 C 0.91454 0.05093 0.29753 0.0
C882 C 0.9282 0.07549 0.33745 0.0
C883 C 0.93955 0.05628 0.34625 0.0
C884 C 0.93851 0.03453 0.33025 0.0
C885 C 0.92621 0.03192 0.30615 0.0
C886 C 0.98306 0.04812 0.40174 0.0
C887 C 0.97219 0.05692 0.42203 0.0
C888 C 0.973 0.04891 0.37711 0.0
C889 C 0.95173 0.05832 0.37226 0.0
C890 C 0.94149 0.06825 0.39261 0.0
C891 C 0.9517 0.06761 0.41732 0.0
H892 H 0.30707 0.68295 0.5881 0.0
H893 H 0.28629 0.74794 0.55654 0.0
H894 H 0.30171 0.69994 0.62995 0.0
H895 H 0.28128 0.76507 0.59841 0.0
H896 H 0.24608 0.77205 0.67161 0.0
H897 H 0.254 0.75692 0.63003 0.0
H898 H 0.31747 0.73286 0.66302 0.0
H899 H 0.30938 0.74758 0.70463 0.0
C900 C 0.30166 0.70101 0.59009 0.0
C901 C 0.29706 0.714 0.56886 0.0
C902 C 0.29865 0.71081 0.61415 0.0
C903 C 0.2909 0.73384 0.61762 0.0
C904 C 0.28688 0.74711 0.59644 0.0
C905 C 0.28995 0.73734 0.57241 0.0
C906 C 0.2618 0.76364 0.67003 0.0
C907 C 0.27709 0.76114 0.69157 0.0
C908 C 0.26642 0.75508 0.64611 0.0
C909 C 0.28642 0.74366 0.64308 0.0
C910 C 0.30178 0.7413 0.66462 0.0
C911 C 0.29722 0.74995 0.68852 0.0
H912 H 0.57436 0.04119 0.83884 0.0
H913 H 0.58323 0.96629 0.8538 0.0
H914 H 0.5529 0.04414 0.87539 0.0
H915 H 0.56216 0.9695 0.89112 0.0
H916 H 0.50229 0.97593 0.94194 0.0
H917 H 0.52386 0.97143 0.90525 0.0
H918 H 0.55879 0.04845 0.91981 0.0
H919 H 0.53626 0.05308 0.95558 0.0
C920 C 0.57184 0.02532 0.85001 0.0
C921 C 0.58063 0.0035 0.84333 0.0
C922 C 0.55963 0.02711 0.87119 0.0
C923 C 0.55592 0.00719 0.88652 0.0
C924 C 0.56447 0.98518 0.8797 0.0
C925 C 0.57665 0.98335 0.85834 0.0
C926 C 0.51456 0.99188 0.9372 0.0
C927 C 0.51775 0.01482 0.95175 0.0
C928 C 0.52712 0.98925 0.91629 0.0
C929 C 0.54314 0.00956 0.90939 0.0
C930 C 0.54641 0.03245 0.92422 0.0
C931 C 0.53377 0.03506 0.94502 0.0
H932 H 0.26355 0.40093 0.11695 0.0
H933 H 0.19941 0.35177 0.08262 0.0
H934 H 0.26709 0.37326 0.15025 0.0
H935 H 0.20309 0.32399 0.11629 0.0
H936 H 0.20997 0.30252 0.2015 0.0
H937 H 0.20257 0.32518 0.16462 0.0
H938 H 0.2761 0.32903 0.15056 0.0
H939 H 0.28368 0.30652 0.18732 0.0
C940 C 0.25006 0.38434 0.11662 0.0
C941 C 0.23129 0.37843 0.09705 0.0
C942 C 0.25224 0.3684 0.13557 0.0
C943 C 0.23562 0.34631 0.13547 0.0
C944 C 0.21619 0.34088 0.11662 0.0
C945 C 0.2141 0.35678 0.09744 0.0
C946 C 0.22445 0.3077 0.19024 0.0
C947 C 0.24752 0.30306 0.19756 0.0
C948 C 0.22016 0.32064 0.16914 0.0
C949 C 0.2389 0.3292 0.15516 0.0
C950 C 0.26149 0.323 0.1614 0.0
C951 C 0.26576 0.30999 0.18237 0.0
H952 H 0.18164 0.96557 0.01685 0.0
H953 H 0.13049 0.91212 0.04819 0.0
H954 H 0.15312 0.99423 0.0146 0.0
H955 H 0.10182 0.9405 0.04547 0.0
H956 H 0.06434 0.00782 0.05977 0.0
H957 H 0.09301 0.97918 0.0631 0.0
H958 H 0.11645 1.00004 0.99212 0.0
H959 H 0.08787 0.0285 0.989 0.0
C960 C 0.1643 0.95986 0.0232 0.0
C961 C 0.15846 0.93644 0.03269 0.0
C962 C 0.14782 0.97628 0.02177 0.0
C963 C 0.125 0.96979 0.0298 0.0
C964 C 0.11925 0.94639 0.03941 0.0
C965 C 0.13571 0.92998 0.04081 0.0
C966 C 0.07537 0.00593 0.04474 0.0
C967 C 0.07358 0.02016 0.02399 0.0
C968 C 0.09192 0.98959 0.04665 0.0
C969 C 0.10722 0.98718 0.02789 0.0
C970 C 0.10537 0.00159 0.00718 0.0
C971 C 0.08887 0.01789 0.00533 0.0
H972 H 0.67818 0.63842 0.95129 0.0
H973 H 0.70944 0.57822 0.98141 0.0
H974 H 0.63873 0.6169 0.95781 0.0
H975 H 0.66982 0.55634 0.98729 0.0
H976 H 0.60251 0.54721 0.02925 0.0
H977 H 0.64148 0.56329 0.01649 0.0
H978 H 0.60752 0.58135 0.94608 0.0
H979 H 0.56856 0.56591 0.95906 0.0
C980 C 0.67659 0.62031 0.95874 0.0
C981 C 0.69694 0.61018 0.96615 0.0
C982 C 0.65394 0.60792 0.96241 0.0
C983 C 0.65119 0.58506 0.97338 0.0
C984 C 0.67143 0.57419 0.9793 0.0
C985 C 0.69409 0.58664 0.97576 0.0
C986 C 0.60337 0.55447 0.01099 0.0
C987 C 0.58245 0.55549 0.99529 0.0
C988 C 0.62571 0.5635 0.00358 0.0
C989 C 0.62758 0.5736 0.98026 0.0
C990 C 0.60666 0.574 0.9643 0.0
C991 C 0.58433 0.56511 0.97175 0.0
H992 H 0.70899 0.45883 0.31743 0.0
H993 H 0.65799 0.41984 0.25698 0.0
H994 H 0.73378 0.42676 0.31281 0.0
H995 H 0.68307 0.38868 0.2515 0.0
H996 H 0.71792 0.32229 0.26644 0.0
H997 H 0.69446 0.3549 0.27106 0.0
H998 H 0.75945 0.40948 0.28704 0.0
H999 H 0.78286 0.37604 0.28301 0.0
C1000 C 0.70319 0.44351 0.30306 0.0
C1001 C 0.68144 0.44169 0.28777 0.0
C1002 C 0.71746 0.42523 0.30026 0.0
C1003 C 0.71039 0.40498 0.28187 0.0
C1004 C 0.68885 0.4036 0.26628 0.0
C1005 C 0.67447 0.42158 0.26934 0.0
C1006 C 0.72717 0.3412 0.27019 0.0
C1007 C 0.75213 0.34663 0.27358 0.0
C1008 C 0.71373 0.36006 0.27307 0.0
C1009 C 0.725 0.385 0.27912 0.0
C1010 C 0.75013 0.39048 0.28258 0.0
C1011 C 0.76355 0.3714 0.28006 0.0
H1012 H 0.78589 0.43581 0.50504 0.0
H1013 H 0.79823 0.45791 0.58475 0.0
H1014 H 0.82658 0.45521 0.50035 0.0
H1015 H 0.83883 0.47794 0.57994 0.0
H1016 H 0.91766 0.48192 0.56634 0.0
H1017 H 0.87611 0.46615 0.57175 0.0
H1018 H 0.85347 0.49418 0.50145 0.0
H1019 H 0.89519 0.50929 0.49581 0.0
C1020 C 0.79718 0.4451 0.52153 0.0
C1021 C 0.7888 0.4452 0.5453 0.0
C1022 C 0.82053 0.45637 0.51881 0.0
C1023 C 0.83608 0.46812 0.53977 0.0
C1024 C 0.82749 0.46873 0.56345 0.0
C1025 C 0.80414 0.45737 0.56619 0.0
C1026 C 0.90377 0.48479 0.55212 0.0
C1027 C 0.9096 0.49669 0.5306 0.0
C1028 C 0.87992 0.47591 0.55529 0.0
C1029 C 0.86137 0.47883 0.53702 0.0
C1030 C 0.86729 0.49126 0.51572 0.0
C1031 C 0.89116 0.50006 0.51253 0.0
H1032 H 0.33648 0.11346 0.25688 0.0
H1033 H 0.39194 0.17524 0.24709 0.0
H1034 H 0.30814 0.14195 0.25981 0.0
H1035 H 0.3636 0.20387 0.25046 0.0
H1036 H 0.29953 0.24382 0.23255 0.0
H1037 H 0.32816 0.2155 0.22843 0.0
H1038 H 0.29954 0.17471 0.28817 0.0
H1039 H 0.271 0.20297 0.29215 0.0
C1040 C 0.34267 0.13313 0.25539 0.0
C1041 C 0.36656 0.142 0.25178 0.0
C1042 C 0.32641 0.14953 0.25724 0.0
C1043 C 0.33354 0.17528 0.25549 0.0
C1044 C 0.35739 0.18414 0.25164 0.0
C1045 C 0.37369 0.16772 0.24985 0.0
C1046 C 0.29948 0.22884 0.24485 0.0
C1047 C 0.28314 0.22569 0.26278 0.0
C1048 C 0.31591 0.21264 0.24254 0.0
C1049 C 0.3162 0.19274 0.25795 0.0
C1050 C 0.29966 0.18957 0.27574 0.0
C1051 C 0.28333 0.20582 0.2781 0.0
H1052 H 0.35877 0.12728 0.50068 0.0
H1053 H 0.29999 0.07058 0.51444 0.0
H1054 H 0.38673 0.10456 0.52211 0.0
H1055 H 0.32822 0.04779 0.53604 0.0
H1056 H 0.39496 0.00513 0.52799 0.0
H1057 H 0.36021 0.02529 0.52095 0.0
H1058 H 0.39853 0.09154 0.56517 0.0
H1059 H 0.43339 0.07148 0.572 0.0
C1060 C 0.35182 0.10998 0.5083 0.0
C1061 C 0.32723 0.10063 0.50573 0.0
C1062 C 0.3678 0.09717 0.52092 0.0
C1063 C 0.35954 0.07466 0.53109 0.0
C1064 C 0.33496 0.0652 0.5285 0.0
C1065 C 0.3189 0.07818 0.51605 0.0
C1066 C 0.39558 0.0236 0.53708 0.0
C1067 C 0.41692 0.03704 0.54999 0.0
C1068 C 0.37569 0.03513 0.53308 0.0
C1069 C 0.37702 0.06017 0.54196 0.0
C1070 C 0.39731 0.07237 0.55771 0.0
C1071 C 0.41717 0.06083 0.56175 0.0
H1072 H 0.65997 0.59309 0.25505 0.0
H1073 H 0.70402 0.58177 0.32214 0.0
H1074 H 0.68378 0.63419 0.25377 0.0
H1075 H 0.72798 0.62341 0.32082 0.0
H1076 H 0.74101 0.71264 0.32009 0.0
H1077 H 0.72164 0.66979 0.32447 0.0
H1078 H 0.72644 0.65033 0.24609 0.0
H1079 H 0.74569 0.69278 0.24159 0.0
C1080 C 0.67472 0.59938 0.26959 0.0
C1081 C 0.68013 0.58411 0.28867 0.0
C1082 C 0.68846 0.6229 0.26874 0.0
C1083 C 0.70785 0.63188 0.28706 0.0
C1084 C 0.7131 0.6169 0.30647 0.0
C1085 C 0.69946 0.59309 0.30716 0.0
C1086 C 0.73827 0.69912 0.3039 0.0
C1087 C 0.74469 0.70625 0.28043 0.0
C1088 C 0.72725 0.67459 0.30645 0.0
C1089 C 0.72229 0.65688 0.28554 0.0
C1090 C 0.72973 0.66373 0.26243 0.0
C1091 C 0.74085 0.68807 0.25991 0.0
H1092 H 0.87533 0.47562 0.71998 0.0
H1093 H 0.83525 0.51487 0.76836 0.0
H1094 H 0.84889 0.43669 0.72407 0.0
H1095 H 0.80829 0.47574 0.772 0.0
H1096 H 0.78717 0.39496 0.79693 0.0
H1097 H 0.8086 0.43658 0.79115 0.0
H1098 H 0.80899 0.41456 0.71233 0.0
H1099 H 0.78826 0.37292 0.71836 0.0
C1100 C 0.86071 0.47601 0.7313 0.0
C1101 C 0.85746 0.49839 0.74388 0.0
C1102 C 0.84539 0.45365 0.7335 0.0
C1103 C 0.82634 0.45304 0.74828 0.0
C1104 C 0.8229 0.47549 0.76065 0.0
C1105 C 0.83828 0.49793 0.75845 0.0
C1106 C 0.79153 0.39923 0.77833 0.0
C1107 C 0.78628 0.38073 0.75815 0.0
C1108 C 0.80375 0.42307 0.77497 0.0
C1109 C 0.81084 0.42884 0.75133 0.0
C1110 C 0.80432 0.41061 0.7309 0.0
C1111 C 0.79227 0.3868 0.7343 0.0
H1112 H 0.97433 0.82576 0.11772 0.0
H1113 H 0.05066 0.83605 0.11521 0.0
H1114 H 0.97257 0.8622 0.09387 0.0
H1115 H 0.04881 0.87208 0.09114 0.0
H1116 H 0.04065 0.95287 0.07997 0.0
H1117 H 0.04174 0.9143 0.10004 0.0
H1118 H 0.97787 0.8789 0.05256 0.0
H1119 H 0.97667 0.91794 0.03259 0.0
C1120 C 0.99069 0.83563 0.1119 0.0
C1121 C 0.01267 0.8281 0.11859 0.0
C1122 C 0.98965 0.85643 0.0981 0.0
C1123 C 0.01058 0.87017 0.09075 0.0
C1124 C 0.03241 0.86217 0.09686 0.0
C1125 C 0.03345 0.84142 0.11059 0.0
C1126 C 0.02688 0.93683 0.07373 0.0
C1127 C 0.00855 0.93837 0.05476 0.0
C1128 C 0.02759 0.91465 0.08513 0.0
C1129 C 0.00993 0.89345 0.07788 0.0
C1130 C 0.99163 0.89495 0.05872 0.0
C1131 C 0.991 0.91721 0.04718 0.0
H1132 H 0.96392 0.30387 0.80976 0.0
H1133 H 0.93886 0.23703 0.84507 0.0
H1134 H 0.92335 0.30386 0.79067 0.0
H1135 H 0.89829 0.23758 0.82708 0.0
H1136 H 0.82871 0.23326 0.77842 0.0
H1137 H 0.87045 0.23157 0.79142 0.0
H1138 H 0.8864 0.31218 0.80063 0.0
H1139 H 0.845 0.31378 0.78657 0.0
C1140 C 0.94976 0.28915 0.81343 0.0
C1141 C 0.95471 0.27045 0.82895 0.0
C1142 C 0.92639 0.28923 0.80265 0.0
C1143 C 0.90727 0.27079 0.80734 0.0
C1144 C 0.91241 0.25188 0.82256 0.0
C1145 C 0.93578 0.25164 0.83307 0.0
C1146 C 0.84119 0.25062 0.78297 0.0
C1147 C 0.83342 0.27365 0.78141 0.0
C1148 C 0.86517 0.24968 0.79064 0.0
C1149 C 0.88202 0.27173 0.79732 0.0
C1150 C 0.87423 0.29475 0.79529 0.0
C1151 C 0.85033 0.29569 0.78732 0.0
H1152 H 0.46318 0.20448 0.57698 0.0
H1153 H 0.50482 0.1917 0.64505 0.0
H1154 H 0.472 0.1665 0.55624 0.0
H1155 H 0.51296 0.15333 0.62468 0.0
H1156 H 0.54647 0.1028 0.573 0.0
H1157 H 0.53601 0.13975 0.59409 0.0
H1158 H 0.46521 0.12218 0.55352 0.0
H1159 H 0.47625 0.08592 0.53154 0.0
C1160 C 0.47396 0.1934 0.58764 0.0
C1161 C 0.48338 0.20126 0.61266 0.0
C1162 C 0.47894 0.17149 0.57577 0.0
C1163 C 0.49336 0.15677 0.58866 0.0
C1164 C 0.50223 0.16436 0.61392 0.0
C1165 C 0.49739 0.18633 0.6257 0.0
C1166 C 0.52869 0.10688 0.5686 0.0
C1167 C 0.51214 0.09138 0.55076 0.0
C1168 C 0.52257 0.12796 0.58086 0.0
C1169 C 0.49967 0.13402 0.57571 0.0
C1170 C 0.48309 0.11837 0.55783 0.0
C1171 C 0.48931 0.09738 0.54541 0.0
H1172 H 0.57975 0.79051 0.30812 0.0
H1173 H 0.62644 0.80793 0.37771 0.0
H1174 H 0.61429 0.7879 0.28534 0.0
H1175 H 0.66087 0.80496 0.35501 0.0
H1176 H 0.7199 0.8188 0.30226 0.0
H1177 H 0.68564 0.82461 0.32467 0.0
H1178 H 0.64298 0.76026 0.28096 0.0
H1179 H 0.67708 0.75456 0.25875 0.0
C1180 C 0.59736 0.79387 0.31857 0.0
C1181 C 0.60022 0.79934 0.3448 0.0
C1182 C 0.61719 0.79222 0.30552 0.0
C1183 C 0.64044 0.79608 0.31832 0.0
C1184 C 0.64332 0.80211 0.34447 0.0
C1185 C 0.6235 0.80366 0.35752 0.0
C1186 C 0.70323 0.80584 0.29761 0.0
C1187 C 0.70124 0.78613 0.27887 0.0
C1188 C 0.68357 0.80915 0.31042 0.0
C1189 C 0.66143 0.79296 0.30459 0.0
C1190 C 0.65956 0.77335 0.28571 0.0
C1191 C 0.67918 0.76998 0.27306 0.0
H1192 H 0.01068 0.19727 0.43535 0.0
H1193 H 0.05359 0.23464 0.50233 0.0
H1194 H 0.00494 0.15845 0.45565 0.0
H1195 H 0.04713 0.19605 0.52301 0.0
H1196 H 0.05464 0.11722 0.54089 0.0
H1197 H 0.05907 0.15637 0.52125 0.0
H1198 H 0.98553 0.1378 0.48797 0.0
H1199 H 0.98146 0.09808 0.50718 0.0
C1200 C 0.01871 0.19724 0.45451 0.0
C1201 C 0.0327 0.21896 0.46723 0.0
C1202 C 0.01527 0.17502 0.46621 0.0
C1203 C 0.02558 0.17411 0.49095 0.0
C1204 C 0.03928 0.19598 0.50377 0.0
C1205 C 0.04291 0.21814 0.49198 0.0
C1206 C 0.03939 0.1216 0.52949 0.0
C1207 C 0.01771 0.10473 0.52546 0.0
C1208 C 0.04188 0.14409 0.51833 0.0
C1209 C 0.02263 0.15031 0.50311 0.0
C1210 C 1.00081 0.13344 0.49931 0.0
C1211 C 0.99841 0.11078 0.51034 0.0
H1212 H 0.54934 0.2343 0.15308 0.0
H1213 H 0.55941 0.31475 0.15463 0.0
H1214 H 0.58682 0.23755 0.18013 0.0
H1215 H 0.59668 0.31794 0.18196 0.0
H1216 H 0.67546 0.30936 0.20154 0.0
H1217 H 0.63659 0.30804 0.17778 0.0
H1218 H 0.60497 0.25214 0.22373 0.0
H1219 H 0.64412 0.25329 0.24738 0.0
C1220 C 0.55951 0.25266 0.15922 0.0
C1221 C 0.55148 0.27426 0.15162 0.0
C1222 C 0.58085 0.25452 0.17491 0.0
C1223 C 0.59461 0.278 0.18321 0.0
C1224 C 0.58653 0.29959 0.17567 0.0
C1225 C 0.56517 0.29775 0.16006 0.0
C1226 C 0.66014 0.29698 0.20671 0.0
C1227 C 0.66269 0.28134 0.22615 0.0
C1228 C 0.63789 0.29631 0.1932 0.0
C1229 C 0.61779 0.2799 0.19883 0.0
C1230 C 0.62024 0.26473 0.2188 0.0
C1231 C 0.64255 0.26551 0.23242 0.0
H1232 H 0.47997 0.83209 0.96914 0.0
H1233 H 0.55662 0.84172 0.96971 0.0
H1234 H 0.48384 0.87384 0.98951 0.0
H1235 H 0.56063 0.88339 0.99103 0.0
H1236 H 0.55186 0.96682 0.9928 0.0
H1237 H 0.55281 0.9233 0.98058 0.0
H1238 H 0.4966 0.90044 0.02684 0.0
H1239 H 0.49507 0.94405 0.03828 0.0
C1240 C 0.49771 0.84297 0.97404 0.0
C1241 C 0.51797 0.83367 0.96766 0.0
C1242 C 0.49997 0.8669 0.98593 0.0
C1243 C 0.52258 0.88204 0.99198 0.0
C1244 C 0.54293 0.87237 0.98635 0.0
C1245 C 0.54064 0.84846 0.97423 0.0
C1246 C 0.54009 0.9525 1.00081 0.0
C1247 C 0.52323 0.95883 0.0163 0.0
C1248 C 0.54066 0.92749 0.99384 0.0
C1249 C 0.52454 0.90832 0.00243 0.0
C1250 C 0.50886 0.91473 0.01938 0.0
C1251 C 0.50809 0.93972 0.02609 0.0
H1252 H 0.92435 0.73738 0.64828 0.0
H1253 H 0.95932 0.81353 0.6695 0.0
H1254 H 0.89547 0.74185 0.67799 0.0
H1255 H 0.93101 0.81774 0.6998 0.0
H1256 H 0.85558 0.82534 0.71979 0.0
H1257 H 0.8898 0.82124 0.69725 0.0
H1258 H 0.88891 0.74705 0.72144 0.0
H1259 H 0.85407 0.75096 0.74329 0.0
C1260 C 0.92607 0.75493 0.65956 0.0
C1261 C 0.94386 0.7752 0.65633 0.0
C1262 C 0.90965 0.75746 0.67674 0.0
C1263 C 0.91088 0.78022 0.69118 0.0
C1264 C 0.92931 0.80012 0.68864 0.0
C1265 C 0.94556 0.79768 0.67131 0.0
C1266 C 0.863 0.80836 0.72063 0.0
C1267 C 0.85221 0.78841 0.73306 0.0
C1268 C 0.88267 0.80602 0.70782 0.0
C1269 C 0.89197 0.78372 0.70739 0.0
C1270 C 0.88189 0.76428 0.72105 0.0
C1271 C 0.86211 0.76658 0.73373 0.0
H1272 H 0.12976 0.99616 0.87574 0.0
H1273 H 0.06583 0.97999 0.82292 0.0
H1274 H 0.10519 0.99799 0.91043 0.0
H1275 H 0.04143 0.98211 0.85757 0.0
H1276 H 0.01567 0.02838 0.92411 0.0
H1277 H 0.03692 0.01887 0.88837 0.0
H1278 H 0.07311 0.96971 0.93181 0.0
H1279 H 0.05159 0.97891 0.96752 0.0
C1280 C 0.1105 0.99282 0.87155 0.0
C1281 C 0.09975 0.98805 0.84658 0.0
C1282 C 0.09645 0.99371 0.89141 0.0
C1283 C 0.07143 0.99022 0.88663 0.0
C1284 C 0.06069 0.98498 0.86174 0.0
C1285 C 0.07468 0.98371 0.84194 0.0
C1286 C 0.02778 0.01513 0.92585 0.0
C1287 C 0.0319 0.00433 0.94856 0.0
C1288 C 0.0399 0.00967 0.9054 0.0
C1289 C 0.05673 0.99366 0.90741 0.0
C1290 C 0.06031 0.98222 0.92984 0.0
C1291 C 0.04782 0.98731 0.95016 0.0
H1292 H 0.71048 0.30677 0.57158 0.0
H1293 H 0.73981 0.37927 0.60967 0.0
H1294 H 0.71871 0.28736 0.61031 0.0
H1295 H 0.74796 0.3597 0.64869 0.0
H1296 H 0.78125 0.30933 0.70572 0.0
H1297 H 0.77372 0.33131 0.66801 0.0
H1298 H 0.70417 0.28474 0.65148 0.0
H1299 H 0.71157 0.2633 0.68909 0.0
C1300 C 0.71862 0.31863 0.58824 0.0
C1301 C 0.72435 0.34464 0.58742 0.0
C1302 C 0.72326 0.30747 0.61055 0.0
C1303 C 0.73392 0.32193 0.63275 0.0
C1304 C 0.73989 0.34796 0.63194 0.0
C1305 C 0.73505 0.35919 0.60959 0.0
C1306 C 0.7642 0.30421 0.69427 0.0
C1307 C 0.74692 0.28477 0.70055 0.0
C1308 C 0.75991 0.31669 0.67259 0.0
C1309 C 0.73836 0.30973 0.65655 0.0
C1310 C 0.7211 0.29038 0.66309 0.0
C1311 C 0.72533 0.27811 0.68473 0.0
H1312 H 0.45799 0.07947 0.31677 0.0
H1313 H 0.39044 0.05838 0.34605 0.0
H1314 H 0.479 0.07477 0.35785 0.0
H1315 H 0.41115 0.05301 0.38636 0.0
H1316 H 0.4512 0.06641 0.46282 0.0
H1317 H 0.43397 0.07575 0.4221 0.0
H1318 H 0.48779 0.04397 0.38639 0.0
H1319 H 0.50561 0.03533 0.42757 0.0
C1320 C 0.44763 0.07387 0.33192 0.0
C1321 C 0.42251 0.06946 0.32808 0.0
C1322 C 0.45966 0.07102 0.35543 0.0
C1323 C 0.44683 0.06368 0.37561 0.0
C1324 C 0.42173 0.05924 0.37158 0.0
C1325 C 0.40979 0.06217 0.34826 0.0
C1326 C 0.45951 0.06153 0.44635 0.0
C1327 C 0.47969 0.0499 0.4485 0.0
C1328 C 0.44952 0.06677 0.42288 0.0
C1329 C 0.45918 0.06026 0.40076 0.0
C1330 C 0.47991 0.0494 0.40297 0.0
C1331 C 0.49009 0.04435 0.42659 0.0
H1332 H 0.81658 0.69966 0.06921 0.0
H1333 H 0.7426 0.69445 0.03976 0.0
H1334 H 0.81002 0.725 0.10604 0.0
H1335 H 0.73623 0.72084 0.07596 0.0
H1336 H 0.72716 0.73422 0.15981 0.0
H1337 H 0.73281 0.71604 0.11875 0.0
H1338 H 0.80207 0.7635 0.12288 0.0
H1339 H 0.79673 0.78076 0.16467 0.0
C1340 C 0.79902 0.70432 0.07045 0.0
C1341 C 0.78002 0.69484 0.0519 0.0
C1342 C 0.79528 0.71904 0.09143 0.0
C1343 C 0.77254 0.72488 0.09403 0.0
C1344 C 0.75382 0.71626 0.07482 0.0
C1345 C 0.75747 0.7012 0.05406 0.0
C1346 C 0.74341 0.74099 0.15172 0.0
C1347 C 0.76161 0.75865 0.16534 0.0
C1348 C 0.74663 0.73071 0.12812 0.0
C1349 C 0.768 0.73817 0.11757 0.0
C1350 C 0.78562 0.75698 0.1307 0.0
C1351 C 0.78251 0.76701 0.15449 0.0
H1352 H 0.14625 0.98972 0.69648 0.0
H1353 H 0.09172 0.00279 0.74358 0.0
H1354 H 0.11901 0.9924 0.65922 0.0
H1355 H 0.06435 0.00497 0.70627 0.0
H1356 H 0.03801 0.04275 0.63635 0.0
H1357 H 0.06132 0.03441 0.67444 0.0
H1358 H 0.08212 0.97182 0.63399 0.0
H1359 H 0.05908 0.98055 0.59571 0.0
C1360 C 0.12837 0.99289 0.69888 0.0
C1361 C 0.12123 0.99626 0.72299 0.0
C1362 C 0.1127 0.99424 0.67751 0.0
C1363 C 0.08954 0.99897 0.6798 0.0
C1364 C 0.08219 0.00164 0.7039 0.0
C1365 C 0.09785 1.0003 0.72527 0.0
C1366 C 0.04733 0.02703 0.63572 0.0
C1367 C 0.04692 0.01237 0.61315 0.0
C1368 C 0.06059 0.02216 0.65755 0.0
C1369 C 0.07368 0.00252 0.6572 0.0
C1370 C 0.0725 0.9873 0.63475 0.0
C1371 C 0.05922 0.99218 0.61291 0.0
H1372 H 0.69447 0.35071 0.45444 0.0
H1373 H 0.77075 0.35528 0.46981 0.0
H1374 H 0.69564 0.33036 0.41254 0.0
H1375 H 0.7721 0.33609 0.42819 0.0
H1376 H 0.76862 0.28309 0.36084 0.0
H1377 H 0.76309 0.29871 0.40291 0.0
H1378 H 0.70793 0.33688 0.3718 0.0
H1379 H 0.7129 0.32023 0.32955 0.0
C1380 C 0.71145 0.34737 0.44894 0.0
C1381 C 0.73247 0.35454 0.46566 0.0
C1382 C 0.71218 0.33584 0.42482 0.0
C1383 C 0.73396 0.3313 0.4168 0.0
C1384 C 0.75487 0.33858 0.43366 0.0
C1385 C 0.75411 0.34984 0.45766 0.0
C1386 C 0.75515 0.29463 0.36295 0.0
C1387 C 0.7413 0.30047 0.34176 0.0
C1388 C 0.75206 0.3038 0.38716 0.0
C1389 C 0.73531 0.31952 0.39099 0.0
C1390 C 0.72088 0.32472 0.36978 0.0
C1391 C 0.72377 0.31521 0.34548 0.0
H1392 H 0.48446 0.08649 0.21201 0.0
H1393 H 0.41484 0.05575 0.17303 0.0
H1394 H 0.50257 0.07932 0.17354 0.0
H1395 H 0.43308 0.04859 0.13439 0.0
H1396 H 0.48092 0.01523 0.07915 0.0
H1397 H 0.46075 0.02204 0.11666 0.0
H1398 H 0.50354 0.09566 0.13173 0.0
H1399 H 0.52324 0.08899 0.09425 0.0
C1400 C 0.47298 0.07827 0.19523 0.0
C1401 C 0.44816 0.07181 0.19567 0.0
C1402 C 0.48337 0.07424 0.1731 0.0
C1403 C 0.46929 0.06341 0.15083 0.0
C1404 C 0.44446 0.05678 0.15126 0.0
C1405 C 0.434 0.06107 0.17337 0.0
C1406 C 0.48567 0.03298 0.09026 0.0
C1407 C 0.50351 0.05163 0.08362 0.0
C1408 C 0.47419 0.03688 0.11179 0.0
C1409 C 0.48059 0.05938 0.1273 0.0
C1410 C 0.49838 0.078 0.12046 0.0
C1411 C 0.50963 0.07419 0.0989 0.0
H1412 H 0.81021 0.68815 0.93397 0.0
H1413 H 0.74661 0.71876 0.9444 0.0
H1414 H 0.81851 0.71545 0.90045 0.0
H1415 H 0.75377 0.74464 0.91015 0.0
H1416 H 0.76979 0.79543 0.85362 0.0
H1417 H 0.77508 0.77823 0.89417 0.0
H1418 H 0.80469 0.71841 0.85897 0.0
H1419 H 0.80119 0.73707 0.81915 0.0
C1420 C 0.798 0.70069 0.92899 0.0
C1421 C 0.77772 0.70131 0.94159 0.0
C1422 C 0.80268 0.71628 0.90977 0.0
C1423 C 0.78684 0.73235 0.90243 0.0
C1424 C 0.7668 0.73313 0.91554 0.0
C1425 C 0.76247 0.71801 0.93506 0.0
C1426 C 0.77819 0.77911 0.85495 0.0
C1427 C 0.78502 0.76741 0.83352 0.0
C1428 C 0.78096 0.76902 0.87803 0.0
C1429 C 0.78962 0.74643 0.8798 0.0
C1430 C 0.7981 0.73587 0.85854 0.0
C1431 C 0.79605 0.74648 0.83564 0.0
H1432 H 0.84735 0.10453 0.02785 0.0
H1433 H 0.88262 0.13968 0.96858 0.0
H1434 H 0.8772 0.07736 0.03192 0.0
H1435 H 0.91208 0.1123 0.97229 0.0
H1436 H 0.97554 0.07828 0.00409 0.0
H1437 H 0.94551 0.10486 0.99958 0.0
H1438 H 0.89136 0.04276 0.01173 0.0
H1439 H 0.92185 0.01623 0.01586 0.0
C1440 C 0.86139 0.10643 0.0156 0.0
C1441 C 0.8625 0.12443 0.99792 0.0
C1442 C 0.87848 0.09069 0.01783 0.0
C1443 C 0.89722 0.09253 0.00247 0.0
C1444 C 0.89821 0.11049 0.98473 0.0
C1445 C 0.88115 0.12616 0.9825 0.0
C1446 C 0.95722 0.07008 0.00478 0.0
C1447 C 0.95111 0.04489 0.00922 0.0
C1448 C 0.93987 0.08542 0.00257 0.0
C1449 C 0.91576 0.07602 0.00497 0.0
C1450 C 0.90968 0.05081 0.00988 0.0
C1451 C 0.92715 0.03551 0.01208 0.0
H1452 H 0.31844 0.46572 0.01927 0.0
H1453 H 0.34017 0.45772 0.09742 0.0
H1454 H 0.35908 0.48393 0.01385 0.0
H1455 H 0.38104 0.47677 0.09211 0.0
H1456 H 0.45501 0.48198 0.06164 0.0
H1457 H 0.41447 0.46675 0.07105 0.0
H1458 H 0.38831 0.52082 0.02525 0.0
H1459 H 0.42856 0.53545 0.01525 0.0
C1460 C 0.33185 0.46814 0.03541 0.0
C1461 C 0.32608 0.46025 0.05879 0.0
C1462 C 0.35517 0.47875 0.03233 0.0
C1463 C 0.37328 0.48192 0.05258 0.0
C1464 C 0.3675 0.47434 0.07609 0.0
C1465 C 0.34409 0.46358 0.07916 0.0
C1466 C 0.4406 0.49071 0.05376 0.0
C1467 C 0.44488 0.5097 0.03749 0.0
C1468 C 0.41741 0.48209 0.05926 0.0
C1469 C 0.39816 0.49244 0.04872 0.0
C1470 C 0.40268 0.51209 0.03323 0.0
C1471 C 0.42576 0.52053 0.02756 0.0
H1472 H 0.30584 0.60113 0.72424 0.0
H1473 H 0.3642 0.65135 0.76809 0.0
H1474 H 0.28032 0.63248 0.72838 0.0
H1475 H 0.33881 0.68275 0.77188 0.0
H1476 H 0.27893 0.72148 0.79728 0.0
H1477 H 0.30406 0.68964 0.79292 0.0
H1478 H 0.27548 0.67341 0.71479 0.0
H1479 H 0.25057 0.70531 0.71926 0.0
C1480 C 0.31328 0.61891 0.73459 0.0
C1481 C 0.33705 0.62369 0.74587 0.0
C1482 C 0.29867 0.63691 0.73689 0.0
C1483 C 0.30749 0.66007 0.75058 0.0
C1484 C 0.33135 0.66496 0.76156 0.0
C1485 C 0.34596 0.647 0.75921 0.0
C1486 C 0.27824 0.7112 0.77918 0.0
C1487 C 0.26313 0.71602 0.75856 0.0
C1488 C 0.29257 0.69298 0.77665 0.0
C1489 C 0.29188 0.67908 0.75344 0.0
C1490 C 0.27627 0.68358 0.73297 0.0
C1491 C 0.26201 0.70184 0.73552 0.0
H1492 H 0.23489 0.59334 0.50748 0.0
H1493 H 0.20581 0.66066 0.52011 0.0
H1494 H 0.19458 0.56843 0.5058 0.0
H1495 H 0.16582 0.63592 0.51782 0.0
H1496 H 0.09654 0.58491 0.4827 0.0
H1497 H 0.13773 0.60559 0.48121 0.0
H1498 H 0.16175 0.56272 0.54035 0.0
H1499 H 0.12031 0.54233 0.5423 0.0
C1500 C 0.21991 0.60278 0.50972 0.0
C1501 C 0.22347 0.62892 0.51398 0.0
C1502 C 0.19696 0.58856 0.50885 0.0
C1503 C 0.1772 0.60034 0.51157 0.0
C1504 C 0.18077 0.62644 0.51548 0.0
C1505 C 0.20366 0.64056 0.51691 0.0
C1506 C 0.11063 0.57968 0.49519 0.0
C1507 C 0.10529 0.56217 0.51273 0.0
C1508 C 0.13414 0.59154 0.49435 0.0
C1509 C 0.1528 0.58575 0.51071 0.0
C1510 C 0.14764 0.56737 0.52746 0.0
C1511 C 0.124 0.55581 0.52863 0.0
H1512 H 0.6326 0.88292 0.78989 0.0
H1513 H 0.68438 0.94787 0.77966 0.0
H1514 H 0.66308 0.85677 0.78641 0.0
H1515 H 0.71479 0.92182 0.77647 0.0
H1516 H 0.7542 0.86327 0.74179 0.0
H1517 H 0.72431 0.88982 0.74707 0.0
H1518 H 0.70041 0.84835 0.80844 0.0
H1519 H 0.73042 0.82189 0.80312 0.0
C1520 C 0.65048 0.89166 0.78704 0.0
C1521 C 0.65596 0.91752 0.78498 0.0
C1522 C 0.668 0.87668 0.78517 0.0
C1523 C 0.69139 0.88717 0.78104 0.0
C1524 C 0.69689 0.91306 0.77928 0.0
C1525 C 0.67945 0.92803 0.78127 0.0
C1526 C 0.7427 0.86001 0.75655 0.0
C1527 C 0.74451 0.84044 0.77194 0.0
C1528 C 0.72559 0.87523 0.75961 0.0
C1529 C 0.70989 0.87121 0.77816 0.0
C1530 C 0.71198 0.85178 0.79377 0.0
C1531 C 0.72922 0.83668 0.79079 0.0
H1532 H 0.71201 0.9871 0.51363 0.0
H1533 H 0.6597 0.91928 0.49992 0.0
H1534 H 0.68155 0.01124 0.5001 0.0
H1535 H 0.629 0.94333 0.48773 0.0
H1536 H 0.57642 0.98706 0.45993 0.0
H1537 H 0.61205 0.96799 0.45932 0.0
H1538 H 0.64917 0.02415 0.51705 0.0
H1539 H 0.6141 0.04377 0.51647 0.0
C1540 C 0.69396 0.97738 0.50776 0.0
C1541 C 0.68811 0.95137 0.5081 0.0
C1542 C 0.67649 0.9912 0.50003 0.0
C1543 C 0.65272 0.97932 0.49293 0.0
C1544 C 0.64715 0.95315 0.49257 0.0
C1545 C 0.6647 0.93933 0.49986 0.0
C1546 C 0.59252 0.99573 0.4718 0.0
C1547 C 0.59253 0.01664 0.48846 0.0
C1548 C 0.61284 0.98467 0.4717 0.0
C1549 C 0.63333 0.99411 0.4886 0.0
C1550 C 0.63385 0.01636 0.50366 0.0
C1551 C 0.61368 0.02762 0.50344 0.0
H1552 H 0.35401 0.45717 0.70402 0.0
H1553 H 0.31173 0.48988 0.75513 0.0
H1554 H 0.33461 0.41568 0.71198 0.0
H1555 H 0.29193 0.4482 0.76275 0.0
H1556 H 0.28589 0.36986 0.79307 0.0
H1557 H 0.30168 0.41219 0.78369 0.0
H1558 H 0.29686 0.38717 0.70497 0.0
H1559 H 0.28154 0.34485 0.7143 0.0
C1560 C 0.34037 0.45553 0.71675 0.0
C1561 C 0.33448 0.47688 0.72897 0.0
C1562 C 0.32913 0.4317 0.72121 0.0
C1563 C 0.31171 0.42857 0.73803 0.0
C1564 C 0.30548 0.44994 0.74992 0.0
C1565 C 0.31671 0.47383 0.74541 0.0
C1566 C 0.28804 0.37338 0.77373 0.0
C1567 C 0.28257 0.35382 0.75449 0.0
C1568 C 0.29698 0.39772 0.76833 0.0
C1569 C 0.30067 0.40308 0.74358 0.0
C1570 C 0.29462 0.38364 0.72429 0.0
C1571 C 0.2857 0.35934 0.72967 0.0
H1572 H 0.15293 0.56711 0.29931 0.0
H1573 H 0.19262 0.53815 0.24313 0.0
H1574 H 0.17491 0.6089 0.29664 0.0
H1575 H 0.21522 0.57992 0.24104 0.0
H1576 H 0.2301 0.6622 0.2229 0.0
H1577 H 0.21047 0.61934 0.2262 0.0
H1578 H 0.21289 0.63489 0.30659 0.0
H1579 H 0.2317 0.67786 0.30301 0.0
C1580 C 0.16656 0.56961 0.2866 0.0
C1581 C 0.17098 0.54928 0.2714 0.0
C1582 C 0.1793 0.5936 0.28516 0.0
C1583 C 0.19691 0.59787 0.26863 0.0
C1584 C 0.20155 0.57743 0.2537 0.0
C1585 C 0.18869 0.55343 0.25502 0.0
C1586 C 0.22653 0.65633 0.24125 0.0
C1587 C 0.23227 0.6733 0.26267 0.0
C1588 C 0.2154 0.63174 0.2432 0.0
C1589 C 0.20994 0.62362 0.26666 0.0
C1590 C 0.21637 0.64057 0.28816 0.0
C1591 C 0.22731 0.66516 0.28616 0.0
H1592 H 0.54884 0.7254 0.40276 0.0
H1593 H 0.49809 0.74795 0.45019 0.0
H1594 H 0.55039 0.68849 0.42607 0.0
H1595 H 0.49963 0.71114 0.4733 0.0
H1596 H 0.48549 0.62636 0.48343 0.0
H1597 H 0.48634 0.66501 0.46287 0.0
H1598 H 0.56339 0.67646 0.47007 0.0
H1599 H 0.56251 0.63761 0.49096 0.0
C1600 C 0.53807 0.72253 0.41816 0.0
C1601 C 0.52326 0.73959 0.42452 0.0
C1602 C 0.53909 0.70149 0.43162 0.0
C1603 C 0.5251 0.69689 0.4515 0.0
C1604 C 0.51047 0.71406 0.45795 0.0
C1605 C 0.50966 0.73521 0.44474 0.0
C1606 C 0.50263 0.63724 0.48083 0.0
C1607 C 0.52394 0.62905 0.48882 0.0
C1608 C 0.50311 0.65942 0.46912 0.0
C1609 C 0.52493 0.67379 0.46483 0.0
C1610 C 0.54631 0.66568 0.47298 0.0
C1611 C 0.54583 0.64359 0.48507 0.0
H1612 H 0.57898 0.2439 0.66806 0.0
H1613 H 0.56182 0.30082 0.7195 0.0
H1614 H 0.61864 0.24839 0.69089 0.0
H1615 H 0.60216 0.30562 0.74226 0.0
H1616 H 0.68958 0.32073 0.74872 0.0
H1617 H 0.64799 0.31912 0.73092 0.0
H1618 H 0.63379 0.23965 0.73656 0.0
H1619 H 0.67476 0.24106 0.75451 0.0
C1620 C 0.58368 0.25745 0.68423 0.0
C1621 C 0.56715 0.27195 0.69198 0.0
C1622 C 0.60642 0.25995 0.69736 0.0
C1623 C 0.61348 0.27729 0.7184 0.0
C1624 C 0.59718 0.29214 0.72606 0.0
C1625 C 0.5741 0.2893 0.71313 0.0
C1626 C 0.67748 0.30299 0.74659 0.0
C1627 C 0.68569 0.28103 0.75298 0.0
C1628 C 0.65366 0.30211 0.73645 0.0
C1629 C 0.63774 0.27922 0.73217 0.0
C1630 C 0.64571 0.25751 0.73943 0.0
C1631 C 0.66927 0.25841 0.74982 0.0
H1632 H 0.04644 0.37181 0.91422 0.0
H1633 H 0.96989 0.34971 0.91081 0.0
H1634 H 0.0442 0.40991 0.94019 0.0
H1635 H 0.96776 0.3871 0.93684 0.0
H1636 H 0.96669 0.46775 0.9584 0.0
H1637 H 0.97206 0.43119 0.9326 0.0
H1638 H 0.03495 0.42538 0.98212 0.0
H1639 H 0.02958 0.46245 0.00795 0.0
C1640 C 0.0292 0.375 0.91907 0.0
C1641 C 0.00833 0.35778 0.91023 0.0
C1642 C 0.02792 0.39675 0.93404 0.0
C1643 C 0.00576 0.40172 0.94038 0.0
C1644 C 0.98507 0.3842 0.93189 0.0
C1645 C 0.98632 0.36261 0.91702 0.0
C1646 C 0.98168 0.45869 0.96378 0.0
C1647 C 0.99769 0.4679 0.98519 0.0
C1648 C 0.98473 0.43767 0.94904 0.0
C1649 C 0.00379 0.42513 0.95541 0.0
C1650 C 0.02018 0.43468 0.97658 0.0
C1651 C 0.0171 0.45585 0.99139 0.0
H1652 H 0.9483 0.77153 0.22705 0.0
H1653 H 0.90159 0.75812 0.1573 0.0
H1654 H 0.91403 0.77499 0.25004 0.0
H1655 H 0.8675 0.76201 0.18017 0.0
H1656 H 0.80787 0.7486 0.23176 0.0
H1657 H 0.84191 0.74232 0.20926 0.0
H1658 H 0.88648 0.8034 0.25609 0.0
H1659 H 0.85259 0.8094 0.27858 0.0
C1660 C 0.93074 0.76926 0.21661 0.0
C1661 C 0.92779 0.76461 0.19029 0.0
C1662 C 0.91107 0.7714 0.22978 0.0
C1663 C 0.88791 0.7689 0.217 0.0
C1664 C 0.88495 0.76379 0.19072 0.0
C1665 C 0.9046 0.7617 0.17757 0.0
C1666 C 0.82495 0.76066 0.23717 0.0
C1667 C 0.82755 0.77949 0.25693 0.0
C1668 C 0.84447 0.75714 0.22425 0.0
C1669 C 0.86707 0.77228 0.23088 0.0
C1670 C 0.86953 0.79109 0.2507 0.0
C1671 C 0.85004 0.79465 0.26351 0.0
H1672 H 0.47034 0.35471 0.07336 0.0
H1673 H 0.54294 0.35348 0.05793 0.0
H1674 H 0.4703 0.39229 0.05144 0.0
H1675 H 0.54264 0.39072 0.03527 0.0
H1676 H 0.54294 0.47395 0.02642 0.0
H1677 H 0.54304 0.43436 0.0449 0.0
H1678 H 0.47056 0.40823 0.01075 0.0
H1679 H 0.4702 0.44849 0.99341 0.0
C1680 C 0.4862 0.3623 0.06502 0.0
C1681 C 0.5067 0.35122 0.0675 0.0
C1682 C 0.48612 0.38376 0.05229 0.0
C1683 C 0.50647 0.39453 0.04161 0.0
C1684 C 0.5268 0.3831 0.04361 0.0
C1685 C 0.52693 0.3617 0.0565 0.0
C1686 C 0.52699 0.45979 0.02312 0.0
C1687 C 0.50641 0.46433 0.00901 0.0
C1688 C 0.52715 0.43697 0.03335 0.0
C1689 C 0.50676 0.41815 0.02939 0.0
C1690 C 0.48642 0.42249 0.01449 0.0
C1691 C 0.48625 0.44541 0.0044 0.0
H1692 H 0.95286 0.22207 0.35606 0.0
H1693 H 0.96917 0.30204 0.37342 0.0
H1694 H 0.91524 0.22633 0.33215 0.0
H1695 H 0.9317 0.30619 0.34956 0.0
H1696 H 0.87127 0.30544 0.28667 0.0
H1697 H 0.91081 0.29929 0.30469 0.0
H1698 H 0.87756 0.23985 0.34566 0.0
H1699 H 0.83826 0.24606 0.32781 0.0
C1700 C 0.94851 0.24052 0.35463 0.0
C1701 C 0.96383 0.26169 0.36677 0.0
C1702 C 0.92701 0.24294 0.341 0.0
C1703 C 0.92067 0.26658 0.33905 0.0
C1704 C 0.93631 0.28778 0.35057 0.0
C1705 C 0.95764 0.28536 0.3644 0.0
C1706 C 0.87254 0.29101 0.29941 0.0
C1707 C 0.85189 0.27637 0.30611 0.0
C1708 C 0.89504 0.28751 0.3097 0.0
C1709 C 0.89713 0.2691 0.32651 0.0
C1710 C 0.87643 0.254 0.33255 0.0
C1711 C 0.85398 0.2577 0.32253 0.0
H1712 H 0.04021 0.73003 0.55497 0.0
H1713 H 0.96432 0.72143 0.55997 0.0
H1714 H 0.03504 0.68731 0.53676 0.0
H1715 H 0.95895 0.67878 0.54078 0.0
H1716 H 0.96805 0.59585 0.54479 0.0
H1717 H 0.96759 0.64004 0.55377 0.0
H1718 H 0.01997 0.65804 0.50192 0.0
H1719 H 0.02109 0.61382 0.49377 0.0
C1720 C 0.02234 0.71916 0.55171 0.0
C1721 C 0.00272 0.72901 0.55914 0.0
C1722 C 0.01931 0.69467 0.54105 0.0
C1723 C 0.99656 0.67953 0.53734 0.0
C1724 C 0.97676 0.68979 0.54375 0.0
C1725 C 0.97983 0.71426 0.55463 0.0
C1726 C 0.97906 0.60923 0.5349 0.0
C1727 C 0.99481 0.60146 0.51881 0.0
C1728 C 0.97876 0.6346 0.53998 0.0
C1729 C 0.994 0.65265 0.52882 0.0
C1730 C 0.00845 0.64467 0.51131 0.0
C1731 C 0.00899 0.61934 0.50651 0.0
H1732 H 0.59729 0.82509 0.87491 0.0
H1733 H 0.56536 0.74719 0.86057 0.0
H1734 H 0.6255 0.81951 0.84461 0.0
H1735 H 0.59273 0.74181 0.82962 0.0
H1736 H 0.66621 0.73464 0.80552 0.0
H1737 H 0.6337 0.73981 0.83019 0.0
H1738 H 0.63085 0.81156 0.8013 0.0
H1739 H 0.66415 0.80663 0.77728 0.0
C1740 C 0.59614 0.80687 0.86507 0.0
C1741 C 0.57941 0.78651 0.87036 0.0
C1742 C 0.61214 0.8037 0.84754 0.0
C1743 C 0.61146 0.78016 0.83477 0.0
C1744 C 0.59409 0.76005 0.83949 0.0
C1745 C 0.57837 0.76315 0.85721 0.0
C1746 C 0.65833 0.7513 0.80412 0.0
C1747 C 0.66763 0.77025 0.78961 0.0
C1748 C 0.63963 0.75426 0.81818 0.0
C1749 C 0.62971 0.77617 0.81783 0.0
C1750 C 0.63834 0.79464 0.8023 0.0
C1751 C 0.65721 0.79172 0.78835 0.0
H1752 H 0.40556 0.59927 0.65747 0.0
H1753 H 0.42445 0.53923 0.69947 0.0
H1754 H 0.43588 0.59375 0.62972 0.0
H1755 H 0.45543 0.53439 0.67252 0.0
H1756 H 0.48256 0.51041 0.59833 0.0
H1757 H 0.45852 0.51864 0.63154 0.0
H1758 H 0.47716 0.59788 0.62487 0.0
H1759 H 0.50054 0.58954 0.5907 0.0
C1760 C 0.41638 0.58509 0.66095 0.0
C1761 C 0.41239 0.56951 0.68047 0.0
C1762 C 0.43397 0.58206 0.64519 0.0
C1763 C 0.44818 0.56357 0.64878 0.0
C1764 C 0.44458 0.5485 0.66883 0.0
C1765 C 0.42682 0.55132 0.68435 0.0
C1766 C 0.48197 0.52966 0.6042 0.0
C1767 C 0.49328 0.54927 0.59152 0.0
C1768 C 0.46817 0.53441 0.62343 0.0
C1769 C 0.46551 0.55895 0.63072 0.0
C1770 C 0.47828 0.57871 0.61933 0.0
C1771 C 0.49197 0.57393 0.59991 0.0
H1772 H 0.80784 0.22674 0.95751 0.0
H1773 H 0.77013 0.16269 0.90956 0.0
H1774 H 0.80178 0.25345 0.92336 0.0
H1775 H 0.76434 0.1892 0.87556 0.0
H1776 H 0.73562 0.24731 0.82887 0.0
H1777 H 0.74192 0.22142 0.8636 0.0
H1778 H 0.81365 0.26275 0.88201 0.0
H1779 H 0.80729 0.28835 0.84703 0.0
C1780 C 0.79838 0.21831 0.93969 0.0
C1781 C 0.78949 0.1925 0.93641 0.0
C1782 C 0.79497 0.23363 0.92004 0.0
C1783 C 0.78243 0.22358 0.89663 0.0
C1784 C 0.77372 0.19774 0.89337 0.0
C1785 C 0.77723 0.18246 0.91291 0.0
C1786 C 0.75284 0.25055 0.84009 0.0
C1787 C 0.7711 0.2695 0.83486 0.0
C1788 C 0.75646 0.2358 0.86011 0.0
C1789 C 0.77839 0.23979 0.87563 0.0
C1790 C 0.79647 0.25921 0.87068 0.0
C1791 C 0.79286 0.27386 0.85056 0.0
H1792 H 0.08857 0.46615 0.20708 0.0
H1793 H 0.06398 0.5346 0.22748 0.0
H1794 H 0.07206 0.46762 0.16342 0.0
H1795 H 0.04777 0.53617 0.18403 0.0
H1796 H 0.06695 0.49927 0.08445 0.0
H1797 H 0.08045 0.4933 0.12792 0.0
H1798 H 0.01643 0.51519 0.15168 0.0
H1799 H 0.00304 0.52143 0.10842 0.0
C1800 C 0.07946 0.48137 0.20233 0.0
C1801 C 0.07761 0.50026 0.22083 0.0
C1802 C 0.07016 0.48232 0.17726 0.0
C1803 C 0.05861 0.50204 0.17016 0.0
C1804 C 0.05629 0.52055 0.18882 0.0
C1805 C 0.06571 0.51971 0.21377 0.0
C1806 C 0.05564 0.50263 0.09889 0.0
C1807 C 0.03393 0.51096 0.09283 0.0
C1808 C 0.06334 0.49906 0.12383 0.0
C1809 C 0.0496 0.50389 0.14336 0.0
C1810 C 0.02763 0.51163 0.13719 0.0
C1811 C 0.01989 0.51507 0.11229 0.0
H1812 H 0.79291 0.85199 0.50452 0.0
H1813 H 0.73966 0.88878 0.46704 0.0
H1814 H 0.79296 0.82581 0.46568 0.0
H1815 H 0.74003 0.86308 0.4285 0.0
H1816 H 0.80698 0.81326 0.38092 0.0
H1817 H 0.80571 0.83198 0.42332 0.0
H1818 H 0.72862 0.81985 0.41061 0.0
H1819 H 0.72997 0.8017 0.36811 0.0
C1820 C 0.78122 0.85446 0.48805 0.0
C1821 C 0.76634 0.87248 0.48881 0.0
C1822 C 0.7813 0.83953 0.46586 0.0
C1823 C 0.76638 0.8423 0.44415 0.0
C1824 C 0.75139 0.86018 0.44505 0.0
C1825 C 0.75137 0.87509 0.46711 0.0
C1826 C 0.78979 0.81426 0.38742 0.0
C1827 C 0.76859 0.80639 0.3713 0.0
C1828 C 0.78905 0.82483 0.41168 0.0
C1829 C 0.76708 0.82764 0.42012 0.0
C1830 C 0.74582 0.81833 0.40442 0.0
C1831 C 0.74658 0.80785 0.38018 0.0
H1832 H 0.40491 0.58581 0.81165 0.0
H1833 H 0.4266 0.51513 0.79384 0.0
H1834 H 0.42922 0.59018 0.85228 0.0
H1835 H 0.45011 0.51902 0.83461 0.0
H1836 H 0.50438 0.5383 0.90107 0.0
H1837 H 0.48501 0.54131 0.85908 0.0
H1838 H 0.42901 0.5722 0.89177 0.0
H1839 H 0.44907 0.57011 0.93373 0.0
C1840 C 0.41484 0.5712 0.81643 0.0
C1841 C 0.41382 0.55009 0.79959 0.0
C1842 C 0.42869 0.57366 0.83974 0.0
C1843 C 0.44166 0.55499 0.84672 0.0
C1844 C 0.44076 0.53402 0.82969 0.0
C1845 C 0.4271 0.53167 0.80636 0.0
C1846 C 0.48814 0.54612 0.89919 0.0
C1847 C 0.47805 0.55378 0.9205 0.0
C1848 C 0.47694 0.54767 0.87518 0.0
C1849 C 0.45522 0.55659 0.87204 0.0
C1850 C 0.44579 0.5654 0.89347 0.0
C1851 C 0.45719 0.56412 0.91751 0.0
H1852 H 0.81 0.18634 0.09181 0.0
H1853 H 0.77722 0.24409 0.05874 0.0
H1854 H 0.80461 0.20354 0.13366 0.0
H1855 H 0.77224 0.26149 0.10044 0.0
H1856 H 0.74018 0.26672 0.17518 0.0
H1857 H 0.74809 0.25134 0.1338 0.0
H1858 H 0.81709 0.23855 0.16528 0.0
H1859 H 0.809 0.25354 0.20691 0.0
C1860 C 0.8019 0.20286 0.09344 0.0
C1861 C 0.79396 0.21372 0.0718 0.0
C1862 C 0.79889 0.21282 0.11749 0.0
C1863 C 0.78781 0.23386 0.12055 0.0
C1864 C 0.78044 0.24503 0.09889 0.0
C1865 C 0.78346 0.23512 0.0749 0.0
C1866 C 0.75711 0.26077 0.17336 0.0
C1867 C 0.77394 0.2615 0.19452 0.0
C1868 C 0.76172 0.25204 0.1495 0.0
C1869 C 0.78329 0.2437 0.14605 0.0
C1870 C 0.8002 0.24456 0.16719 0.0
C1871 C 0.79561 0.25337 0.19109 0.0
H1872 H 0.03169 0.47049 0.32621 0.0
H1873 H 0.10034 0.50593 0.36443 0.0
H1874 H 0.01323 0.4776 0.36447 0.0
H1875 H 0.08184 0.51282 0.40283 0.0
H1876 H 0.03443 0.5443 0.45817 0.0
H1877 H 0.05399 0.53751 0.42035 0.0
H1878 H 0.01211 0.46331 0.40653 0.0
H1879 H 0.99279 0.47014 0.44433 0.0
C1880 C 0.04289 0.47972 0.34278 0.0
C1881 C 0.06754 0.48758 0.34217 0.0
C1882 C 0.0323 0.4837 0.36481 0.0
C1883 C 0.04602 0.49575 0.38682 0.0
C1884 C 0.07067 0.5037 0.38619 0.0
C1885 C 0.08131 0.4996 0.36418 0.0
C1886 C 0.02969 0.52645 0.44723 0.0
C1887 C 0.01224 0.5077 0.45434 0.0
C1888 C 0.04085 0.52254 0.42551 0.0
C1889 C 0.03462 0.49985 0.4103 0.0
C1890 C 0.01714 0.48113 0.41755 0.0
C1891 C 0.00612 0.485 0.43929 0.0
H1892 H 0.71957 0.83326 0.55991 0.0
H1893 H 0.72912 0.89701 0.61455 0.0
H1894 H 0.71771 0.80542 0.59385 0.0
H1895 H 0.72684 0.86909 0.64834 0.0
H1896 H 0.70547 0.81103 0.70191 0.0
H1897 H 0.69721 0.83259 0.66438 0.0
H1898 H 0.75193 0.80171 0.62959 0.0
H1899 H 0.76051 0.7804 0.66721 0.0
C1900 C 0.72081 0.84129 0.57911 0.0
C1901 C 0.72465 0.8673 0.58465 0.0
C1902 C 0.71979 0.82536 0.59845 0.0
C1903 C 0.72208 0.83518 0.62358 0.0
C1904 C 0.72478 0.86109 0.62905 0.0
C1905 C 0.72625 0.87704 0.60976 0.0
C1906 C 0.71527 0.80827 0.68598 0.0
C1907 C 0.73371 0.79414 0.68747 0.0
C1908 C 0.71063 0.82073 0.66463 0.0
C1909 C 0.72403 0.81886 0.64428 0.0
C1910 C 0.74127 0.8033 0.64503 0.0
C1911 C 0.74622 0.7912 0.66655 0.0
H1912 H 0.67985 0.46368 0.53059 0.0
H1913 H 0.62491 0.403 0.54429 0.0
H1914 H 0.65087 0.49197 0.53034 0.0
H1915 H 0.59613 0.43125 0.54431 0.0
H1916 H 0.54572 0.48113 0.51129 0.0
H1917 H 0.57509 0.45367 0.51438 0.0
H1918 H 0.62596 0.51281 0.55708 0.0
H1919 H 0.59626 0.54047 0.55392 0.0
C1920 C 0.66164 0.45636 0.53365 0.0
C1921 C 0.65476 0.43096 0.53733 0.0
C1922 C 0.64504 0.47265 0.53368 0.0
C1923 C 0.62107 0.46395 0.53723 0.0
C1924 C 0.61431 0.4386 0.54118 0.0
C1925 C 0.6309 0.42237 0.54127 0.0
C1926 C 0.56305 0.48825 0.52162 0.0
C1927 C 0.56856 0.51298 0.53253 0.0
C1928 C 0.57994 0.47243 0.52343 0.0
C1929 C 0.60297 0.48091 0.53603 0.0
C1930 C 0.60849 0.50568 0.54704 0.0
C1931 C 0.59144 0.5215 0.54539 0.0
H1932 H 0.19954 0.07614 0.47606 0.0
H1933 H 0.17666 0.1471 0.46798 0.0
H1934 H 0.1587 0.05686 0.48054 0.0
H1935 H 0.13593 0.12787 0.47292 0.0
H1936 H 0.06155 0.08157 0.46708 0.0
H1937 H 0.10085 0.09719 0.45476 0.0
H1938 H 0.13353 0.06064 0.51457 0.0
H1939 H 0.09433 0.04463 0.52666 0.0
C1940 C 0.18576 0.08756 0.47494 0.0
C1941 C 0.19136 0.11321 0.47199 0.0
C1942 C 0.16241 0.07654 0.47765 0.0
C1943 C 0.14423 0.09094 0.47743 0.0
C1944 C 0.14956 0.11627 0.47304 0.0
C1945 C 0.17292 0.1273 0.47031 0.0
C1946 C 0.0771 0.0767 0.4775 0.0
C1947 C 0.07482 0.0619 0.49791 0.0
C1948 C 0.09959 0.08573 0.47047 0.0
C1949 C 0.12022 0.08009 0.48365 0.0
C1950 C 0.11791 0.06498 0.50379 0.0
C1951 C 0.09545 0.05599 0.51086 0.0
H1952 H 0.18364 0.91887 0.83494 0.0
H1953 H 0.19836 0.95128 0.76557 0.0
H1954 H 0.2073 0.88689 0.82523 0.0
H1955 H 0.22208 0.91931 0.75597 0.0
H1956 H 0.24211 0.84151 0.73704 0.0
H1957 H 0.21709 0.8729 0.74538 0.0
H1958 H 0.25034 0.88586 0.82212 0.0
H1959 H 0.2749 0.85447 0.81385 0.0
C1960 C 0.1919 0.91918 0.81763 0.0
C1961 C 0.1892 0.9377 0.80111 0.0
C1962 C 0.20552 0.90092 0.81211 0.0
C1963 C 0.21658 0.90065 0.78986 0.0
C1964 C 0.21361 0.91893 0.77315 0.0
C1965 C 0.20016 0.93734 0.77877 0.0
C1966 C 0.24388 0.85104 0.75566 0.0
C1967 C 0.26023 0.84548 0.77482 0.0
C1968 C 0.22976 0.8691 0.7604 0.0
C1969 C 0.23166 0.88171 0.78447 0.0
C1970 C 0.24824 0.87624 0.8035 0.0
C1971 C 0.26248 0.85845 0.79868 0.0
H1972 H 0.29985 0.92432 0.04471 0.0
H1973 H 0.28125 0.99043 0.01353 0.0
H1974 H 0.34203 0.94097 0.04389 0.0
H1975 H 0.32357 0.00724 0.01305 0.0
H1976 H 0.39875 0.01252 0.98633 0.0
H1977 H 0.35638 0.99848 0.98982 0.0
H1978 H 0.37451 0.97372 0.06298 0.0
H1979 H 0.41689 0.98749 0.05925 0.0
C1980 C 0.30475 0.94254 0.03792 0.0
C1981 C 0.28711 0.95599 0.0291 0.0
C1982 C 0.32899 0.95214 0.03757 0.0
C1983 C 0.33623 0.97542 0.02833 0.0
C1984 C 0.31861 0.98911 0.01999 0.0
C1985 C 0.29434 0.97954 0.02042 0.0
C1986 C 0.39363 0.00417 0.00318 0.0
C1987 C 0.41107 1.00099 0.02246 0.0
C1988 C 0.36936 0.99626 0.00527 0.0
C1989 C 0.36201 0.98493 0.02668 0.0
C1990 C 0.37954 0.98208 0.04611 0.0
C1991 C 0.40381 0.99006 0.04404 0.0
H1992 H 0.86017 0.63593 0.77816 0.0
H1993 H 0.84274 0.6293 0.6975 0.0
H1994 H 0.83454 0.66716 0.78209 0.0
H1995 H 0.81687 0.66032 0.70149 0.0
H1996 H 0.7879 0.73319 0.71728 0.0
H1997 H 0.8164 0.70463 0.71305 0.0
H1998 H 0.79185 0.66792 0.77697 0.0
H1999 H 0.76393 0.69673 0.78143 0.0
C2000 C 0.85097 0.64118 0.76124 0.0
C2001 C 0.85346 0.62994 0.73752 0.0
C2002 C 0.83614 0.65901 0.76351 0.0
C2003 C 0.82346 0.66616 0.74212 0.0
C2004 C 0.82648 0.65543 0.71835 0.0
C2005 C 0.84124 0.63751 0.71608 0.0
C2006 C 0.78872 0.71904 0.73043 0.0
C2007 C 0.77379 0.71723 0.74973 0.0
C2008 C 0.80493 0.70259 0.72794 0.0
C2009 C 0.80651 0.684 0.74474 0.0
C2010 C 0.79141 0.68222 0.76395 0.0
C2011 C 0.77522 0.69858 0.76635 0.0
H2012 H 0.86477 0.64255 0.99859 0.0
H2013 H 0.8096 0.58663 0.02097 0.0
H2014 H 0.89511 0.62115 0.01777 0.0
H2015 H 0.8401 0.56537 0.04046 0.0
H2016 H 0.90364 0.52064 0.03035 0.0
H2017 H 0.86944 0.54172 0.02387 0.0
H2018 H 0.91247 0.6104 0.05895 0.0
H2019 H 0.94679 0.58936 0.06505 0.0
C2020 C 0.85912 0.62577 0.00771 0.0
C2021 C 0.83482 0.61617 0.00809 0.0
C2022 C 0.8765 0.61369 0.01899 0.0
C2023 C 0.86993 0.59174 0.03084 0.0
C2024 C 0.84563 0.58225 0.03145 0.0
C2025 C 0.82822 0.5944 0.02023 0.0
C2026 C 0.90553 0.54001 0.03745 0.0
C2027 C 0.92784 0.55355 0.04776 0.0
C2028 C 0.88596 0.55208 0.03377 0.0
C2029 C 0.88852 0.57782 0.0404 0.0
C2030 C 0.9102 0.59066 0.05319 0.0
C2031 C 0.92975 0.57859 0.05687 0.0
H2032 H 0.15445 0.10012 0.82157 0.0
H2033 H 0.21043 0.06903 0.78923 0.0
H2034 H 0.1752 0.14206 0.81668 0.0
H2035 H 0.23128 0.1111 0.78452 0.0
H2036 H 0.24179 0.18761 0.75003 0.0
H2037 H 0.22437 0.14538 0.75813 0.0
H2038 H 0.21182 0.17231 0.83226 0.0
H2039 H 0.22904 0.21466 0.82416 0.0
C2040 C 0.1713 0.10223 0.81364 0.0
C2041 C 0.18073 0.0812 0.80571 0.0
C2042 C 0.18326 0.12629 0.81096 0.0
C2043 C 0.20486 0.12992 0.80014 0.0
C2044 C 0.21454 0.10891 0.79267 0.0
C2045 C 0.20266 0.08482 0.79552 0.0
C2046 C 0.23545 0.18457 0.76812 0.0
C2047 C 0.23676 0.20462 0.7864 0.0
C2048 C 0.2256 0.1603 0.77281 0.0
C2049 C 0.21668 0.15549 0.79582 0.0
C2050 C 0.21832 0.17545 0.81425 0.0
C2051 C 0.22832 0.19971 0.80963 0.0
H2052 H 0.33735 0.01256 0.26119 0.0
H2053 H 0.39276 0.9744 0.23737 0.0
H2054 H 0.31182 0.97232 0.26404 0.0
H2055 H 0.36734 0.93436 0.24033 0.0
H2056 H 0.28836 0.89399 0.29458 0.0
H2057 H 0.31095 0.93561 0.29034 0.0
H2058 H 0.32973 0.90931 0.21855 0.0
H2059 H 0.30736 0.86794 0.22286 0.0
C2060 C 0.34405 0.99561 0.25648 0.0
C2061 C 0.36708 0.99667 0.249 0.0
C2062 C 0.32948 0.9726 0.25826 0.0
C2063 C 0.33754 0.95019 0.25233 0.0
C2064 C 0.3605 0.9513 0.24471 0.0
C2065 C 0.37512 0.97426 0.24314 0.0
C2066 C 0.29712 0.89727 0.27782 0.0
C2067 C 0.29626 0.87778 0.25912 0.0
C2068 C 0.30998 0.92106 0.27534 0.0
C2069 C 0.3223 0.92565 0.25421 0.0
C2070 C 0.32075 0.90625 0.23522 0.0
C2071 C 0.30783 0.88261 0.23763 0.0
H2072 H 0.49297 0.34302 0.63966 0.0
H2073 H 0.50041 0.3037 0.56909 0.0
H2074 H 0.49194 0.38115 0.61865 0.0
H2075 H 0.49918 0.34206 0.54801 0.0
H2076 H 0.47038 0.41281 0.51885 0.0
H2077 H 0.46989 0.37296 0.53792 0.0
H2078 H 0.52268 0.40974 0.59781 0.0
H2079 H 0.52336 0.44916 0.57878 0.0
C2080 C 0.49427 0.34245 0.61963 0.0
C2081 C 0.4969 0.32031 0.60609 0.0
C2082 C 0.49376 0.36435 0.60762 0.0
C2083 C 0.49556 0.3646 0.58171 0.0
C2084 C 0.49763 0.34236 0.56798 0.0
C2085 C 0.49848 0.32047 0.58009 0.0
C2086 C 0.48188 0.41226 0.53604 0.0
C2087 C 0.49683 0.43405 0.5474 0.0
C2088 C 0.48168 0.3895 0.54688 0.0
C2089 C 0.49614 0.38831 0.56944 0.0
C2090 C 0.51113 0.41014 0.58061 0.0
C2091 C 0.51158 0.43268 0.56964 0.0
H2092 H 0.46763 0.80384 0.31185 0.0
H2093 H 0.43856 0.73814 0.34687 0.0
H2094 H 0.42821 0.80417 0.28958 0.0
H2095 H 0.3993 0.73879 0.32523 0.0
H2096 H 0.33412 0.73332 0.26991 0.0
H2097 H 0.37538 0.73227 0.28554 0.0
H2098 H 0.38952 0.8127 0.2977 0.0
H2099 H 0.34838 0.8138 0.28145 0.0
C2100 C 0.4529 0.78939 0.31471 0.0
C2101 C 0.45636 0.77097 0.3312 0.0
C2102 C 0.43022 0.78967 0.30206 0.0
C2103 C 0.41042 0.77151 0.30552 0.0
C2104 C 0.41407 0.75286 0.32168 0.0
C2105 C 0.43667 0.75259 0.33429 0.0
C2106 C 0.34607 0.75084 0.27557 0.0
C2107 C 0.33774 0.77364 0.27451 0.0
C2108 C 0.36977 0.75022 0.28476 0.0
C2109 C 0.38586 0.77237 0.29326 0.0
C2110 C 0.37779 0.79525 0.29118 0.0
C2111 C 0.35408 0.79587 0.28191 0.0
H2112 H 0.0544 0.71642 0.11802 0.0
H2113 H 0.97889 0.69113 0.12027 0.0
H2114 H 0.05694 0.67783 0.09406 0.0
H2115 H 0.98156 0.65203 0.09625 0.0
H2116 H 0.99504 0.59744 0.02942 0.0
H2117 H 0.9896 0.63547 0.05357 0.0
H2118 H 0.05448 0.63386 0.10169 0.0
H2119 H 0.05977 0.59606 0.07775 0.0
C2120 C 0.03829 0.70261 0.11344 0.0
C2121 C 0.01644 0.70689 0.12121 0.0
C2122 C 0.0398 0.68036 0.09978 0.0
C2123 C 0.01951 0.66172 0.09341 0.0
C2124 C 0.9975 0.66608 0.10077 0.0
C2125 C 0.996 0.68841 0.11464 0.0
C2126 C 0.00794 0.60512 0.04534 0.0
C2127 C 0.0278 0.59379 0.05175 0.0
C2128 C 0.00483 0.62686 0.05917 0.0
C2129 C 0.0217 0.63781 0.07946 0.0
C2130 C 0.04136 0.62618 0.08595 0.0
C2131 C 0.04437 0.60446 0.07226 0.0
H2132 H 0.12369 0.32088 0.87234 0.0
H2133 H 0.07662 0.28683 0.80673 0.0
H2134 H 0.15816 0.31771 0.84988 0.0
H2135 H 0.11115 0.28293 0.78443 0.0
H2136 H 0.17749 0.29813 0.74341 0.0
H2137 H 0.14334 0.30476 0.76538 0.0
H2138 H 0.18019 0.28776 0.83472 0.0
H2139 H 0.21427 0.28149 0.81262 0.0
C2140 C 0.12066 0.31268 0.8531 0.0
C2141 C 0.09731 0.30409 0.84138 0.0
C2142 C 0.1405 0.31069 0.84024 0.0
C2143 C 0.1376 0.29991 0.8153 0.0
C2144 C 0.11419 0.29164 0.80347 0.0
C2145 C 0.09432 0.29376 0.81631 0.0
C2146 C 0.17831 0.29606 0.7634 0.0
C2147 C 0.19875 0.28985 0.77644 0.0
C2148 C 0.15866 0.29967 0.776 0.0
C2149 C 0.15887 0.29688 0.80193 0.0
C2150 C 0.17947 0.29065 0.81491 0.0
C2151 C 0.19913 0.28717 0.80229 0.0
H2152 H 0.51161 0.69454 0.94083 0.0
H2153 H 0.54325 0.73326 0.01231 0.0
H2154 H 0.5086 0.65495 0.95952 0.0
H2155 H 0.5398 0.69343 0.03116 0.0
H2156 H 0.55762 0.61493 0.04399 0.0
H2157 H 0.55834 0.65595 0.02817 0.0
H2158 H 0.48722 0.6312 0.98989 0.0
H2159 H 0.48667 0.59014 0.00568 0.0
C2160 C 0.51777 0.69464 0.9606 0.0
C2161 C 0.52778 0.71705 0.97508 0.0
C2162 C 0.51587 0.67193 0.97134 0.0
C2163 C 0.52392 0.67109 0.99681 0.0
C2164 C 0.53367 0.69351 0.01141 0.0
C2165 C 0.53555 0.7163 1.00065 0.0
C2166 C 0.54211 0.61838 0.03233 0.0
C2167 C 0.52221 0.5994 0.02571 0.0
C2168 C 0.54246 0.64186 0.0234 0.0
C2169 C 0.52288 0.64675 0.00771 0.0
C2170 C 0.50272 0.62785 1.00162 0.0
C2171 C 0.5024 0.60437 0.01059 0.0
H2172 H 0.05126 0.74272 0.66181 0.0
H2173 H 0.06586 0.82162 0.65206 0.0
H2174 H 0.08901 0.7467 0.68833 0.0
H2175 H 0.10325 0.82582 0.67937 0.0
H2176 H 0.18083 0.81554 0.70145 0.0
H2177 H 0.14174 0.81481 0.67848 0.0
H2178 H 0.10965 0.76318 0.72839 0.0
H2179 H 0.14905 0.76326 0.75072 0.0
C2180 C 0.06245 0.76096 0.66553 0.0
C2181 C 0.05568 0.78182 0.65474 0.0
C2182 C 0.084 0.7633 0.68093 0.0
C2183 C 0.09914 0.78661 0.68606 0.0
C2184 C 0.09217 0.80754 0.67552 0.0
C2185 C 0.07072 0.80515 0.65993 0.0
C2186 C 0.16535 0.80428 0.70765 0.0
C2187 C 0.16786 0.78929 0.72765 0.0
C2188 C 0.14293 0.80394 0.69459 0.0
C2189 C 0.12257 0.78876 0.70145 0.0
C2190 C 0.12504 0.77468 0.7223 0.0
C2191 C 0.14752 0.77487 0.73522 0.0
H2192 H 0.00521 0.31852 0.50197 0.0
H2193 H 0.05295 0.35203 0.45119 0.0
H2194 H 0.00651 0.35945 0.52381 0.0
H2195 H 0.0536 0.39288 0.47235 0.0
H2196 H 0.05885 0.46414 0.51842 0.0
H2197 H 0.06463 0.42143 0.5089 0.0
H2198 H 0.98958 0.39502 0.51311 0.0
H2199 H 0.98397 0.43745 0.52341 0.0
C2200 C 0.01617 0.33458 0.49563 0.0
C2201 C 0.02872 0.3321 0.47465 0.0
C2202 C 0.01683 0.35804 0.50807 0.0
C2203 C 0.02993 0.37951 0.49967 0.0
C2204 C 0.04353 0.37677 0.47955 0.0
C2205 C 0.04302 0.35331 0.46726 0.0
C2206 C 0.04367 0.44916 0.51777 0.0
C2207 C 0.02088 0.45423 0.52136 0.0
C2208 C 0.04697 0.42469 0.5122 0.0
C2209 C 0.02752 0.40482 0.50991 0.0
C2210 C 0.00503 0.4098 0.51498 0.0
C2211 C 1.00178 0.43422 0.52074 0.0
H2212 H 0.46569 0.26481 0.20383 0.0
H2213 H 0.4317 0.31119 0.1545 0.0
H2214 H 0.43837 0.2714 0.23485 0.0
H2215 H 0.40434 0.31743 0.18525 0.0
H2216 H 0.36752 0.33918 0.24958 0.0
H2217 H 0.40253 0.3371 0.22739 0.0
H2218 H 0.39524 0.25825 0.23705 0.0
H2219 H 0.3606 0.26048 0.25959 0.0
C2220 C 0.45245 0.27644 0.19963 0.0
C2221 C 0.45075 0.28736 0.17666 0.0
C2222 C 0.43684 0.2802 0.21739 0.0
C2223 C 0.41934 0.29505 0.21254 0.0
C2224 C 0.41793 0.30627 0.18974 0.0
C2225 C 0.43345 0.30246 0.17199 0.0
C2226 C 0.37384 0.32159 0.24752 0.0
C2227 C 0.36133 0.29995 0.256 0.0
C2228 C 0.39373 0.32035 0.23468 0.0
C2229 C 0.40135 0.29743 0.23014 0.0
C2230 C 0.38987 0.27619 0.24036 0.0
C2231 C 0.37 0.27745 0.2532 0.0
H2232 H 0.57038 0.53366 0.32272 0.0
H2233 H 0.61461 0.49266 0.36789 0.0
H2234 H 0.54174 0.53033 0.35354 0.0
H2235 H 0.58634 0.49 0.39914 0.0
H2236 H 0.51988 0.55241 0.43164 0.0
H2237 H 0.54084 0.54877 0.39486 0.0
H2238 H 0.5469 0.47292 0.4091 0.0
H2239 H 0.52645 0.47684 0.44661 0.0
C2240 C 0.57401 0.52395 0.33925 0.0
C2241 C 0.59491 0.51366 0.343 0.0
C2242 C 0.55759 0.52206 0.35694 0.0
C2243 C 0.56176 0.51001 0.3789 0.0
C2244 C 0.58236 0.4991 0.38228 0.0
C2245 C 0.59871 0.50083 0.36448 0.0
C2246 C 0.52525 0.53476 0.42673 0.0
C2247 C 0.52176 0.51504 0.44229 0.0
C2248 C 0.5372 0.53262 0.40548 0.0
C2249 C 0.54587 0.51065 0.39917 0.0
C2250 C 0.54086 0.49027 0.41372 0.0
C2251 C 0.52889 0.49243 0.43507 0.0
H2252 H 0.2751 0.84448 0.07648 0.0
H2253 H 0.20791 0.85971 0.09826 0.0
H2254 H 0.28091 0.82245 0.11385 0.0
H2255 H 0.21345 0.83697 0.1356 0.0
H2256 H 0.24318 0.81783 0.21319 0.0
H2257 H 0.23718 0.83987 0.17563 0.0
H2258 H 0.2672 0.78525 0.13293 0.0
H2259 H 0.27381 0.76367 0.17083 0.0
C2260 C 0.2614 0.84296 0.08914 0.0
C2261 C 0.241 0.85395 0.08426 0.0
C2262 C 0.2647 0.83013 0.1106 0.0
C2263 C 0.24768 0.8278 0.1279 0.0
C2264 C 0.22714 0.83862 0.12293 0.0
C2265 C 0.22384 0.85153 0.10139 0.0
C2266 C 0.24869 0.81065 0.19583 0.0
C2267 C 0.25912 0.78907 0.19503 0.0
C2268 C 0.245 0.82316 0.17417 0.0
C2269 C 0.25157 0.81438 0.15106 0.0
C2270 C 0.26215 0.79281 0.15038 0.0
C2271 C 0.26589 0.78034 0.17209 0.0
H2272 H 0.95444 0.52355 0.81149 0.0
H2273 H 0.93324 0.59361 0.83297 0.0
H2274 H 0.97255 0.52209 0.85428 0.0
H2275 H 0.95174 0.5923 0.87584 0.0
H2276 H 0.95919 0.56287 0.95503 0.0
H2277 H 0.94435 0.56824 0.91191 0.0
H2278 H 0.00522 0.54153 0.88552 0.0
H2279 H 0.01991 0.53577 0.92861 0.0
C2280 C 0.95387 0.53882 0.82526 0.0
C2281 C 0.94227 0.55866 0.81873 0.0
C2282 C 0.9644 0.53804 0.84983 0.0
C2283 C 0.96359 0.55704 0.86861 0.0
C2284 C 0.95245 0.57718 0.86196 0.0
C2285 C 0.94198 0.57802 0.83731 0.0
C2286 C 0.96955 0.5583 0.94009 0.0
C2287 C 0.99074 0.54879 0.9454 0.0
C2288 C 0.96108 0.56153 0.91532 0.0
C2289 C 0.97352 0.55525 0.89515 0.0
C2290 C 0.99499 0.54626 0.90052 0.0
C2291 C 0.00351 0.5431 0.9253 0.0
H2292 H 0.31424 0.17782 0.57612 0.0
H2293 H 0.24369 0.18437 0.54286 0.0
H2294 H 0.30884 0.20347 0.61335 0.0
H2295 H 0.23853 0.21034 0.57989 0.0
H2296 H 0.2272 0.22162 0.66379 0.0
H2297 H 0.23323 0.20171 0.62352 0.0
H2298 H 0.30401 0.24601 0.6286 0.0
H2299 H 0.29802 0.26571 0.66924 0.0
C2300 C 0.2977 0.18494 0.57664 0.0
C2301 C 0.27929 0.17886 0.55671 0.0
C2302 C 0.29469 0.19978 0.59786 0.0
C2303 C 0.27322 0.20878 0.59951 0.0
C2304 C 0.25513 0.20335 0.57923 0.0
C2305 C 0.25813 0.18854 0.55803 0.0
C2306 C 0.24393 0.22727 0.65615 0.0
C2307 C 0.26218 0.24508 0.6695 0.0
C2308 C 0.24734 0.21601 0.63305 0.0
C2309 C 0.2691 0.22233 0.62296 0.0
C2310 C 0.28715 0.24065 0.63608 0.0
C2311 C 0.28369 0.252 0.65919 0.0
H2312 H 0.63375 0.50128 0.21722 0.0
H2313 H 0.56495 0.47749 0.24308 0.0
H2314 H 0.61433 0.50237 0.17487 0.0
H2315 H 0.54552 0.47864 0.20054 0.0
H2316 H 0.52463 0.52419 0.13254 0.0
H2317 H 0.54116 0.51467 0.1738 0.0
H2318 H 0.5897 0.47431 0.13865 0.0
H2319 H 0.57305 0.48378 0.09726 0.0
C2320 C 0.6145 0.49605 0.21381 0.0
C2321 C 0.60085 0.48947 0.2335 0.0
C2322 C 0.60341 0.49649 0.18952 0.0
C2323 C 0.57844 0.4906 0.18449 0.0
C2324 C 0.5648 0.4834 0.20401 0.0
C2325 C 0.57593 0.48267 0.22829 0.0
C2326 C 0.53863 0.51303 0.13364 0.0
C2327 C 0.54775 0.50487 0.11185 0.0
C2328 C 0.54796 0.50745 0.15721 0.0
C2329 C 0.56673 0.49382 0.15937 0.0
C2330 C 0.57535 0.485 0.13746 0.0
C2331 C 0.56581 0.49036 0.11385 0.0
H2332 H 0.20172 0.84491 0.95589 0.0
H2333 H 0.26593 0.8954 0.94488 0.0
H2334 H 0.20524 0.81986 0.91701 0.0
H2335 H 0.26952 0.87041 0.90668 0.0
H2336 H 0.28354 0.80564 0.85595 0.0
H2337 H 0.27766 0.82645 0.89589 0.0
H2338 H 0.20407 0.8264 0.8686 0.0
H2339 H 0.2099 0.8057 0.82834 0.0
C2340 C 0.21656 0.85062 0.94528 0.0
C2341 C 0.23351 0.87219 0.95352 0.0
C2342 C 0.21853 0.83635 0.923 0.0
C2343 C 0.23776 0.84309 0.90889 0.0
C2344 C 0.25467 0.86455 0.91727 0.0
C2345 C 0.25249 0.87897 0.93913 0.0
C2346 C 0.26599 0.80971 0.85847 0.0
C2347 C 0.24722 0.80396 0.83881 0.0
C2348 C 0.26267 0.82177 0.88136 0.0
C2349 C 0.24043 0.82816 0.88537 0.0
C2350 C 0.22136 0.82157 0.86614 0.0
C2351 C 0.22476 0.80978 0.84304 0.0
H2352 H 0.98306 0.59074 0.71321 0.0
H2353 H 0.91451 0.55256 0.67706 0.0
H2354 H 1.0011 0.58255 0.67494 0.0
H2355 H 0.9326 0.54455 0.63858 0.0
H2356 H 0.98097 0.51198 0.58438 0.0
H2357 H 0.96115 0.51991 0.62182 0.0
H2358 H 1.001 0.59516 0.63218 0.0
H2359 H 0.02052 0.58723 0.59481 0.0
C2360 C 0.97178 0.58068 0.69708 0.0
C2361 C 0.94729 0.57239 0.69828 0.0
C2362 C 0.98213 0.57608 0.67504 0.0
C2363 C 0.96832 0.56294 0.65359 0.0
C2364 C 0.94382 0.55454 0.65479 0.0
C2365 C 0.93342 0.55929 0.67682 0.0
C2366 C 0.98516 0.5303 0.59447 0.0
C2367 C 1.00217 0.54902 0.58657 0.0
C2368 C 0.97387 0.53485 0.61596 0.0
C2369 C 0.97953 0.55817 0.63013 0.0
C2370 C 0.99645 0.57688 0.622 0.0
C2371 C 0.00759 0.57236 0.60051 0.0
H2372 H 0.32109 0.218 0.46342 0.0
H2373 H 0.2615 0.1702 0.41868 0.0
H2374 H 0.3212 0.24865 0.43187 0.0
H2375 H 0.26154 0.20084 0.38776 0.0
H2376 H 0.24696 0.27177 0.35795 0.0
H2377 H 0.25306 0.24853 0.39447 0.0
H2378 H 0.32567 0.24709 0.37982 0.0
H2379 H 0.31968 0.27022 0.34282 0.0
C2380 C 0.3082 0.21396 0.44683 0.0
C2381 C 0.2912 0.19179 0.44355 0.0
C2382 C 0.30829 0.23145 0.4289 0.0
C2383 C 0.29113 0.2271 0.40781 0.0
C2384 C 0.27469 0.20466 0.40417 0.0
C2385 C 0.27481 0.18709 0.42177 0.0
C2386 C 0.26443 0.26707 0.36274 0.0
C2387 C 0.28268 0.27236 0.34718 0.0
C2388 C 0.26787 0.25378 0.38364 0.0
C2389 C 0.28966 0.24579 0.38949 0.0
C2390 C 0.30872 0.25311 0.37551 0.0
C2391 C 0.30524 0.26633 0.35439 0.0
H2392 H 0.33613 0.59443 0.50241 0.0
H2393 H 0.39159 0.65779 0.49764 0.0
H2394 H 0.36573 0.56687 0.50207 0.0
H2395 H 0.42099 0.63029 0.49699 0.0
H2396 H 0.47014 0.57875 0.52866 0.0
H2397 H 0.44026 0.6056 0.52605 0.0
H2398 H 0.39303 0.54932 0.47579 0.0
H2399 H 0.4233 0.52228 0.4784 0.0
C2400 C 0.35459 0.60249 0.50116 0.0
C2401 C 0.36144 0.62841 0.5002 0.0
C2402 C 0.37155 0.58665 0.5008 0.0
C2403 C 0.39582 0.59632 0.4996 0.0
C2404 C 0.40255 0.62219 0.49829 0.0
C2405 C 0.38562 0.63798 0.49855 0.0
C2406 C 0.45357 0.5722 0.51669 0.0
C2407 C 0.44926 0.54849 0.50343 0.0
C2408 C 0.43637 0.58764 0.51521 0.0
C2409 C 0.41421 0.57976 0.50059 0.0
C2410 C 0.40982 0.55595 0.48737 0.0
C2411 C 0.42719 0.5405 0.48873 0.0
H2412 H 0.84058 0.93088 0.58191 0.0
H2413 H 0.81005 0.9914 0.55158 0.0
H2414 H 0.88042 0.953 0.57737 0.0
H2415 H 0.84993 0.01386 0.54774 0.0
H2416 H 0.91835 0.02474 0.50828 0.0
H2417 H 0.87915 0.00801 0.51973 0.0
H2418 H 0.91162 0.98846 0.59022 0.0
H2419 H 0.95101 0.00463 0.57847 0.0
C2420 C 0.8424 0.94917 0.57484 0.0
C2421 C 0.82217 0.95925 0.56677 0.0
C2422 C 0.86527 0.96191 0.57232 0.0
C2423 C 0.86833 0.98505 0.56186 0.0
C2424 C 0.84814 0.99581 0.55532 0.0
C2425 C 0.8253 0.98301 0.55767 0.0
C2426 C 0.91718 0.01708 0.52632 0.0
C2427 C 0.93785 0.01589 0.54237 0.0
C2428 C 0.89464 0.00764 0.53299 0.0
C2429 C 0.89223 0.99691 0.55592 0.0
C2430 C 0.91288 0.99633 0.57228 0.0
C2431 C 0.93546 0.00569 0.56557 0.0
H2432 H 0.85877 0.14498 0.2816 0.0
H2433 H 0.80996 0.10639 0.21912 0.0
H2434 H 0.83272 0.17535 0.28671 0.0
H2435 H 0.78415 0.13746 0.22368 0.0
H2436 H 0.73305 0.1862 0.2538 0.0
H2437 H 0.75726 0.15331 0.25018 0.0
H2438 H 0.82138 0.20909 0.26554 0.0
H2439 H 0.79719 0.24113 0.26913 0.0
C2440 C 0.84255 0.14309 0.2688 0.0
C2441 C 0.83651 0.12336 0.24985 0.0
C2442 C 0.82762 0.16058 0.27167 0.0
C2443 C 0.80639 0.15897 0.2555 0.0
C2444 C 0.80022 0.13909 0.23665 0.0
C2445 C 0.8151 0.1214 0.2339 0.0
C2446 C 0.75234 0.19123 0.25667 0.0
C2447 C 0.76334 0.21621 0.26276 0.0
C2448 C 0.7662 0.17248 0.25443 0.0
C2449 C 0.79131 0.1785 0.25793 0.0
C2450 C 0.80213 0.20359 0.26355 0.0
C2451 C 0.78828 0.22211 0.26594 0.0
H2452 H 0.70679 0.16034 0.98499 0.0
H2453 H 0.73853 0.10112 0.01646 0.0
H2454 H 0.66718 0.13649 0.98707 0.0
H2455 H 0.69862 0.07703 0.01833 0.0
H2456 H 0.62275 0.05926 0.04632 0.0
H2457 H 0.66369 0.07923 0.042 0.0
H2458 H 0.64032 0.09881 0.96802 0.0
H2459 H 0.59951 0.07913 0.97251 0.0
C2460 C 0.70534 0.14213 0.99219 0.0
C2461 C 0.72588 0.13268 1.00058 0.0
C2462 C 0.68257 0.12837 0.99324 0.0
C2463 C 0.67968 0.10481 0.00282 0.0
C2464 C 0.70022 0.0952 0.01103 0.0
C2465 C 0.72308 0.10894 0.00981 0.0
C2466 C 0.62647 0.06764 0.02907 0.0
C2467 C 0.60796 0.06781 0.00983 0.0
C2468 C 0.64992 0.07897 0.02653 0.0
C2469 C 0.65526 0.0908 0.00474 0.0
C2470 C 0.63677 0.09023 0.98521 0.0
C2471 C 0.61341 0.07885 0.98772 0.0
H2472 H 0.1683 0.43349 0.31379 0.0
H2473 H 0.15658 0.41776 0.2331 0.0
H2474 H 0.19704 0.40491 0.31617 0.0
H2475 H 0.18493 0.38915 0.23554 0.0
H2476 H 0.25785 0.36549 0.24538 0.0
H2477 H 0.22798 0.39254 0.24463 0.0
H2478 H 0.20117 0.36038 0.30989 0.0
H2479 H 0.2317 0.33362 0.31092 0.0
C2480 C 0.1717 0.42383 0.29659 0.0
C2481 C 0.16021 0.4281 0.27323 0.0
C2482 C 0.18809 0.40734 0.29797 0.0
C2483 C 0.19347 0.39487 0.27602 0.0
C2484 C 0.18156 0.39875 0.25278 0.0
C2485 C 0.16516 0.4151 0.25141 0.0
C2486 C 0.24564 0.36426 0.25963 0.0
C2487 C 0.24692 0.34728 0.27805 0.0
C2488 C 0.22836 0.37961 0.25908 0.0
C2489 C 0.21198 0.37852 0.27706 0.0
C2490 C 0.21354 0.36178 0.29581 0.0
C2491 C 0.23084 0.3463 0.29627 0.0
H2492 H 0.19637 0.44634 0.9635 0.0
H2493 H 0.20791 0.48534 0.03768 0.0
H2494 H 0.16244 0.46721 0.95282 0.0
H2495 H 0.17428 0.50619 0.02694 0.0
H2496 H 0.12019 0.54973 0.99948 0.0
H2497 H 0.15868 0.53619 0.99755 0.0
H2498 H 0.12218 0.46174 0.97115 0.0
H2499 H 0.08375 0.47524 0.97316 0.0
C2500 C 0.19194 0.4597 0.97733 0.0
C2501 C 0.20455 0.46404 1.00151 0.0
C2502 C 0.17257 0.47158 0.9712 0.0
C2503 C 0.16585 0.4883 0.98903 0.0
C2504 C 0.17929 0.49362 0.01273 0.0
C2505 C 0.19838 0.4815 0.01896 0.0
C2506 C 0.12045 0.53066 0.99261 0.0
C2507 C 0.09916 0.51338 0.98682 0.0
C2508 C 0.14241 0.52294 0.99156 0.0
C2509 C 0.14331 0.49791 0.98446 0.0
C2510 C 0.12196 0.48118 0.97654 0.0
C2511 C 0.10001 0.48885 0.97783 0.0
H2512 H 0.85596 0.95967 0.19987 0.0
H2513 H 0.81609 0.99419 0.25231 0.0
H2514 H 0.83618 0.91862 0.20893 0.0
H2515 H 0.79608 0.95303 0.26112 0.0
H2516 H 0.78998 0.87443 0.29191 0.0
H2517 H 0.80631 0.91658 0.28206 0.0
H2518 H 0.79701 0.89168 0.20304 0.0
H2519 H 0.78107 0.84971 0.21275 0.0
C2520 C 0.84281 0.95853 0.21314 0.0
C2521 C 0.83764 0.98023 0.22536 0.0
C2522 C 0.83138 0.93498 0.21826 0.0
C2523 C 0.81456 0.93256 0.23577 0.0
C2524 C 0.80914 0.95427 0.24775 0.0
C2525 C 0.8205 0.97785 0.24254 0.0
C2526 C 0.79121 0.87801 0.27243 0.0
C2527 C 0.78434 0.85861 0.25317 0.0
C2528 C 0.8005 0.90218 0.26677 0.0
C2529 C 0.80314 0.90742 0.24177 0.0
C2530 C 0.7956 0.88817 0.22251 0.0
C2531 C 0.78631 0.8641 0.22813 0.0
H2532 H 0.62807 0.08088 0.7689 0.0
H2533 H 0.68695 0.04128 0.7821 0.0
H2534 H 0.65623 0.12018 0.77118 0.0
H2535 H 0.71521 0.08081 0.78367 0.0
H2536 H 0.7453 0.15916 0.7453 0.0
H2537 H 0.72221 0.11708 0.74698 0.0
H2538 H 0.69018 0.14357 0.81068 0.0
H2539 H 0.71352 0.18521 0.80952 0.0
C2540 C 0.64703 0.08057 0.77218 0.0
C2541 C 0.65534 0.05806 0.77538 0.0
C2542 C 0.66308 0.10303 0.77356 0.0
C2543 C 0.68777 0.10335 0.77762 0.0
C2544 C 0.69621 0.08089 0.7805 0.0
C2545 C 0.68008 0.05841 0.77971 0.0
C2546 C 0.73375 0.15578 0.75999 0.0
C2547 C 0.73104 0.17539 0.77717 0.0
C2548 C 0.72061 0.1318 0.76095 0.0
C2549 C 0.70439 0.12734 0.77884 0.0
C2550 C 0.70253 0.14668 0.79667 0.0
C2551 C 0.71591 0.17044 0.796 0.0
loop_
_geom_bond_atom_site_label_1
_geom_bond_atom_site_label_2
_geom_bond_distance
_geom_bond_site_symmetry_2
_ccdc_geom_bond_type
C0 O1 1.160 . S
C0 O7 1.185 . S
O1 C0 1.160 . S
O2 Zn3 1.899 . S
O2 C10 1.284 . S
Zn3 O2 1.899 . S
Zn3 O4 2.032 . S
Zn3 O7 2.086 . S
Zn3 O12 1.977 1_455 S
O4 Zn3 2.032 . S
O4 C8 1.278 . S
C5 O6 1.203 . S
C5 O12 1.267 . S
O6 C5 1.203 . S
O7 C0 1.185 . S
O7 Zn3 2.086 . S
C8 O4 1.278 . S
C8 O9 1.211 1_455 S
O9 C8 1.211 1_655 S
C10 O2 1.284 . S
C10 O11 1.273 . S
O11 C10 1.273 . S
O12 Zn3 1.977 1_655 S
O12 C5 1.267 . S
C13 O14 1.160 . S
C13 O20 1.185 . S
O14 C13 1.160 . S
O15 Zn16 1.899 . S
O15 C23 1.284 . S
Zn16 O15 1.899 . S
Zn16 O17 2.032 . S
Zn16 O20 2.086 . S
Zn16 O25 1.977 1_655 S
O17 Zn16 2.032 . S
O17 C21 1.278 1_655 S
C18 O19 1.203 . S
C18 O25 1.267 . S
O19 C18 1.203 . S
O20 C13 1.185 . S
O20 Zn16 2.086 . S
C21 O17 1.278 1_455 S
C21 O22 1.211 . S
O22 C21 1.211 . S
C23 O15 1.284 . S
C23 O24 1.273 1_655 S
O24 C23 1.273 1_455 S
O25 Zn16 1.977 1_455 S
O25 C18 1.267 . S
C26 O27 1.160 . S
C26 O33 1.185 . S
O27 C26 1.160 . S
O28 Zn29 1.899 . S
O28 C36 1.284 . S
Zn29 O28 1.899 . S
Zn29 O30 2.032 . S
Zn29 O33 2.086 . S
Zn29 O38 1.977 . S
O30 Zn29 2.032 . S
O30 C34 1.278 . S
C31 O32 1.203 . S
C31 O38 1.267 . S
O32 C31 1.203 . S
O33 C26 1.185 . S
O33 Zn29 2.086 . S
C34 O30 1.278 . S
C34 O35 1.211 . S
O35 C34 1.211 . S
C36 O28 1.284 . S
C36 O37 1.273 . S
O37 C36 1.273 . S
O38 Zn29 1.977 . S
O38 C31 1.267 . S
C39 O40 1.160 . S
C39 O46 1.185 . S
O40 C39 1.160 . S
O41 Zn42 1.899 . S
O41 C49 1.284 . S
Zn42 O41 1.899 . S
Zn42 O43 2.032 . S
Zn42 O46 2.086 . S
Zn42 O51 1.977 . S
O43 Zn42 2.032 . S
O43 C47 1.278 . S
C44 O45 1.203 . S
C44 O51 1.267 . S
O45 C44 1.203 . S
O46 C39 1.185 . S
O46 Zn42 2.086 . S
C47 O43 1.278 . S
C47 O48 1.211 . S
O48 C47 1.211 . S
C49 O41 1.284 . S
C49 O50 1.273 . S
O50 C49 1.273 . S
O51 Zn42 1.977 . S
O51 C44 1.267 . S
C52 O53 1.160 . S
C52 O59 1.185 . S
O53 C52 1.160 . S
O54 Zn55 1.896 . S
O54 C62 1.299 . S
Zn55 O54 1.896 . S
Zn55 O56 2.032 1_455 S
Zn55 O59 2.086 1_455 S
Zn55 O64 1.977 . S
O56 Zn55 2.032 1_655 S
O56 C60 1.278 1_655 S
C57 O58 1.203 . S
C57 O64 1.267 . S
O58 C57 1.203 . S
O59 C52 1.185 . S
O59 Zn55 2.086 1_655 S
C60 O56 1.278 1_455 S
C60 O61 1.211 . S
O61 C60 1.211 . S
C62 O54 1.299 . S
C62 O63 1.273 . S
O63 C62 1.273 . S
O64 Zn55 1.977 . S
O64 C57 1.267 . S
C65 O66 1.160 . S
C65 O72 1.185 . S
O66 C65 1.160 . S
O67 Zn68 1.899 . S
O67 C75 1.284 . S
Zn68 O67 1.899 . S
Zn68 O69 2.032 . S
Zn68 O72 2.086 . S
Zn68 O77 1.977 . S
O69 Zn68 2.032 . S
O69 C73 1.278 . S
C70 O71 1.203 . S
C70 O77 1.267 . S
O71 C70 1.203 . S
O72 C65 1.185 . S
O72 Zn68 2.086 . S
C73 O69 1.278 . S
C73 O74 1.211 . S
O74 C73 1.211 . S
C75 O67 1.284 . S
C75 O76 1.273 . S
O76 C75 1.273 . S
O77 Zn68 1.977 . S
O77 C70 1.267 . S
C78 O79 1.160 . S
C78 O85 1.185 . S
O79 C78 1.160 . S
O80 Zn81 1.899 . S
O80 C88 1.284 . S
Zn81 O80 1.899 . S
Zn81 O82 2.032 . S
Zn81 O85 2.086 . S
Zn81 O90 1.977 . S
O82 Zn81 2.032 . S
O82 C86 1.278 . S
C83 O84 1.203 . S
C83 O90 1.267 . S
O84 C83 1.203 . S
O85 C78 1.185 . S
O85 Zn81 2.086 . S
C86 O82 1.278 . S
C86 O87 1.211 . S
O87 C86 1.211 . S
C88 O80 1.284 . S
C88 O89 1.273 . S
O89 C88 1.273 . S
O90 Zn81 1.977 . S
O90 C83 1.267 . S
C91 O92 1.160 . S
C91 O98 1.185 . S
O92 C91 1.160 . S
O93 Zn94 1.899 . S
O93 C101 1.284 . S
Zn94 O93 1.899 . S
Zn94 O95 2.032 . S
Zn94 O98 2.086 . S
Zn94 O103 1.977 1_455 S
O95 Zn94 2.032 . S
O95 C99 1.278 . S
C96 O97 1.203 . S
C96 O103 1.267 . S
O97 C96 1.203 . S
O98 C91 1.185 . S
O98 Zn94 2.086 . S
C99 O95 1.278 . S
C99 O100 1.211 1_455 S
O100 C99 1.211 1_655 S
C101 O93 1.284 . S
C101 O102 1.275 1_455 S
O102 C101 1.275 1_655 S
O103 Zn94 1.977 1_655 S
O103 C96 1.267 . S
C104 O105 1.160 . S
C104 O111 1.185 . S
O105 C104 1.160 . S
O106 Zn107 1.899 . S
O106 C114 1.284 . S
Zn107 O106 1.899 . S
Zn107 O108 2.032 . S
Zn107 O111 2.086 . S
Zn107 O116 1.977 . S
O108 Zn107 2.032 . S
O108 C112 1.278 . S
C109 O110 1.203 . S
C109 O116 1.267 1_565 S
O110 C109 1.203 . S
O111 C104 1.185 . S
O111 Zn107 2.086 . S
C112 O108 1.278 . S
C112 O113 1.211 . S
O113 C112 1.211 . S
C114 O106 1.284 . S
C114 O115 1.273 . S
O115 C114 1.273 . S
O116 Zn107 1.977 . S
O116 C109 1.267 1_545 S
C117 O118 1.160 . S
C117 O124 1.185 . S
O118 C117 1.160 . S
O119 Zn120 1.899 . S
O119 C127 1.284 . S
Zn120 O119 1.899 . S
Zn120 O121 2.032 . S
Zn120 O124 2.086 . S
Zn120 O129 1.977 . S
O121 Zn120 2.032 . S
O121 C125 1.278 . S
C122 O123 1.203 . S
C122 O129 1.267 . S
O123 C122 1.203 . S
O124 C117 1.185 . S
O124 Zn120 2.086 . S
C125 O121 1.278 . S
C125 O126 1.211 . S
O126 C125 1.211 . S
C127 O119 1.284 . S
C127 O128 1.273 . S
O128 C127 1.273 . S
O129 Zn120 1.977 . S
O129 C122 1.267 . S
C130 O131 1.160 . S
C130 O137 1.185 . S
O131 C130 1.160 . S
O132 Zn133 1.899 . S
O132 C140 1.284 . S
Zn133 O132 1.899 . S
Zn133 O134 2.032 . S
Zn133 O137 2.086 . S
Zn133 O142 1.977 1_565 S
O134 Zn133 2.032 . S
O134 C138 1.278 1_565 S
C135 O136 1.203 . S
C135 O142 1.267 . S
O136 C135 1.203 . S
O137 C130 1.185 . S
O137 Zn133 2.086 . S
C138 O134 1.278 1_545 S
C138 O139 1.211 . S
O139 C138 1.211 . S
C140 O132 1.284 . S
C140 O141 1.273 1_565 S
O141 C140 1.273 1_545 S
O142 Zn133 1.977 1_545 S
O142 C135 1.267 . S
C143 O144 1.160 . S
C143 O150 1.185 . S
O144 C143 1.160 . S
O145 Zn146 1.899 . S
O145 C153 1.284 . S
Zn146 O145 1.899 . S
Zn146 O147 2.040 . S
Zn146 O150 2.086 . S
Zn146 O155 1.977 . S
O147 Zn146 2.040 . S
O147 C151 1.271 1_554 S
C148 O149 1.203 . S
C148 O155 1.267 . S
O149 C148 1.203 . S
O150 C143 1.185 . S
O150 Zn146 2.086 . S
C151 O147 1.271 1_556 S
C151 O152 1.211 . S
O152 C151 1.211 . S
C153 O145 1.284 . S
C153 O154 1.273 . S
O154 C153 1.273 . S
O155 Zn146 1.977 . S
O155 C148 1.267 . S
C156 O157 1.160 . S
C156 O163 1.185 . S
O157 C156 1.160 . S
O158 Zn159 1.899 . S
O158 C166 1.284 . S
Zn159 O158 1.899 . S
Zn159 O160 2.032 1_554 S
Zn159 O163 2.086 . S
Zn159 O168 1.977 . S
O160 Zn159 2.032 1_556 S
O160 C164 1.278 . S
C161 O162 1.203 . S
C161 O168 1.267 . S
O162 C161 1.203 . S
O163 C156 1.185 . S
O163 Zn159 2.086 . S
C164 O160 1.278 . S
C164 O165 1.211 . S
O165 C164 1.211 . S
C166 O158 1.284 . S
C166 O167 1.273 . S
O167 C166 1.273 . S
O168 Zn159 1.977 . S
O168 C161 1.267 . S
C169 O170 1.160 . S
C169 O176 1.185 1_554 S
O170 C169 1.160 . S
O171 Zn172 1.899 . S
O171 C179 1.284 . S
Zn172 O171 1.899 . S
Zn172 O173 2.032 1_554 S
Zn172 O176 2.086 1_554 S
Zn172 O181 1.977 1_554 S
O173 Zn172 2.032 1_556 S
O173 C177 1.278 . S
C174 O175 1.204 1_556 S
C174 O181 1.265 . S
O175 C174 1.204 1_554 S
O176 C169 1.185 1_556 S
O176 Zn172 2.086 1_556 S
C177 O173 1.278 . S
C177 O178 1.211 . S
O178 C177 1.211 . S
C179 O171 1.284 . S
C179 O180 1.273 . S
O180 C179 1.273 . S
O181 Zn172 1.977 1_556 S
O181 C174 1.265 . S
C182 O183 1.160 . S
C182 O189 1.185 . S
O183 C182 1.160 . S
O184 Zn185 1.899 . S
O184 C192 1.284 . S
Zn185 O184 1.899 . S
Zn185 O186 2.032 . S
Zn185 O189 2.086 . S
Zn185 O194 1.977 . S
O186 Zn185 2.032 . S
O186 C190 1.278 . S
C187 O188 1.203 . S
C187 O194 1.267 . S
O188 C187 1.203 . S
O189 C182 1.185 . S
O189 Zn185 2.086 . S
C190 O186 1.278 . S
C190 O191 1.211 . S
O191 C190 1.211 . S
C192 O184 1.284 . S
C192 O193 1.273 . S
O193 C192 1.273 . S
O194 Zn185 1.977 . S
O194 C187 1.267 . S
C195 O196 1.160 . S
C195 O202 1.185 . S
O196 C195 1.160 . S
O197 Zn198 1.899 . S
O197 C205 1.284 . S
Zn198 O197 1.899 . S
Zn198 O199 2.032 . S
Zn198 O202 2.086 . S
Zn198 O207 1.977 . S
O199 Zn198 2.032 . S
O199 C203 1.278 . S
C200 O201 1.203 . S
C200 O207 1.267 . S
O201 C200 1.203 . S
O202 C195 1.185 . S
O202 Zn198 2.086 . S
C203 O199 1.278 . S
C203 O204 1.211 . S
O204 C203 1.211 . S
C205 O197 1.284 . S
C205 O206 1.273 . S
O206 C205 1.273 . S
O207 Zn198 1.977 . S
O207 C200 1.267 . S
C208 O209 1.160 . S
C208 O215 1.185 . S
O209 C208 1.160 . S
O210 Zn211 1.899 . S
O210 C218 1.284 . S
Zn211 O210 1.899 . S
Zn211 O212 2.032 . S
Zn211 O215 2.086 . S
Zn211 O220 1.977 . S
O212 Zn211 2.032 . S
O212 C216 1.278 . S
C213 O214 1.203 . S
C213 O220 1.267 . S
O214 C213 1.203 . S
O215 C208 1.185 . S
O215 Zn211 2.086 . S
C216 O212 1.278 . S
C216 O217 1.211 . S
O217 C216 1.211 . S
C218 O210 1.284 . S
C218 O219 1.273 . S
O219 C218 1.273 . S
O220 Zn211 1.977 . S
O220 C213 1.267 . S
C221 O222 1.160 . S
C221 O228 1.185 . S
O222 C221 1.160 . S
O223 Zn224 1.899 . S
O223 C231 1.284 . S
Zn224 O223 1.899 . S
Zn224 O225 2.032 . S
Zn224 O228 2.086 . S
Zn224 O233 1.977 . S
O225 Zn224 2.032 . S
O225 C229 1.278 . S
C226 O227 1.203 . S
C226 O233 1.267 . S
O227 C226 1.203 . S
O228 C221 1.185 . S
O228 Zn224 2.086 . S
C229 O225 1.278 . S
C229 O230 1.211 . S
O230 C229 1.211 . S
C231 O223 1.284 . S
C231 O232 1.273 . S
O232 C231 1.273 . S
O233 Zn224 1.977 . S
O233 C226 1.267 . S
C234 O235 1.160 . S
C234 O241 1.185 . S
O235 C234 1.160 . S
O236 Zn237 1.899 . S
O236 C244 1.284 . S
Zn237 O236 1.899 . S
Zn237 O238 2.032 . S
Zn237 O241 2.086 . S
Zn237 O246 1.977 . S
O238 Zn237 2.032 . S
O238 C242 1.278 . S
C239 O240 1.203 . S
C239 O246 1.267 . S
O240 C239 1.203 . S
O241 C234 1.185 . S
O241 Zn237 2.086 . S
C242 O238 1.278 . S
C242 O243 1.211 . S
O243 C242 1.211 . S
C244 O236 1.284 . S
C244 O245 1.273 . S
O245 C244 1.273 . S
O246 Zn237 1.977 . S
O246 C239 1.267 . S
C247 O248 1.160 . S
C247 O254 1.185 . S
O248 C247 1.160 . S
O249 Zn250 1.899 . S
O249 C257 1.284 . S
Zn250 O249 1.899 . S
Zn250 O251 2.025 1_545 S
Zn250 O254 2.086 1_545 S
Zn250 O259 1.977 . S
O251 Zn250 2.025 1_565 S
O251 C255 1.259 1_565 S
C252 O253 1.203 . S
C252 O259 1.267 . S
O253 C252 1.203 . S
O254 C247 1.185 . S
O254 Zn250 2.086 1_565 S
C255 O251 1.259 1_545 S
C255 O256 1.211 . S
O256 C255 1.211 . S
C257 O249 1.284 . S
C257 O258 1.273 . S
O258 C257 1.273 . S
O259 Zn250 1.977 . S
O259 C252 1.267 . S
C260 O261 1.160 . S
C260 O267 1.185 1_554 S
O261 C260 1.160 . S
O262 Zn263 1.899 . S
O262 C270 1.284 . S
Zn263 O262 1.899 . S
Zn263 O264 2.032 1_554 S
Zn263 O267 2.086 1_554 S
Zn263 O272 1.977 1_554 S
O264 Zn263 2.032 1_556 S
O264 C268 1.278 . S
C265 O266 1.203 . S
C265 O272 1.267 1_554 S
O266 C265 1.203 . S
O267 C260 1.185 1_556 S
O267 Zn263 2.086 1_556 S
C268 O264 1.278 . S
C268 O269 1.211 . S
O269 C268 1.211 . S
C270 O262 1.284 . S
C270 O271 1.273 . S
O271 C270 1.273 . S
O272 Zn263 1.977 1_556 S
O272 C265 1.267 1_556 S
C273 O274 1.160 . S
C273 O280 1.185 . S
O274 C273 1.160 . S
O275 Zn276 1.899 . S
O275 C283 1.284 . S
Zn276 O275 1.899 . S
Zn276 O277 2.032 . S
Zn276 O280 2.086 . S
Zn276 O285 1.977 . S
O277 Zn276 2.032 . S
O277 C281 1.278 . S
C278 O279 1.203 . S
C278 O285 1.267 . S
O279 C278 1.203 . S
O280 C273 1.185 . S
O280 Zn276 2.086 . S
C281 O277 1.278 . S
C281 O282 1.211 . S
O282 C281 1.211 . S
C283 O275 1.284 . S
C283 O284 1.273 . S
O284 C283 1.273 . S
O285 Zn276 1.977 . S
O285 C278 1.267 . S
C286 O287 1.160 . S
C286 O293 1.185 . S
O287 C286 1.160 . S
O288 Zn289 1.899 . S
O288 C296 1.284 . S
Zn289 O288 1.899 . S
Zn289 O290 2.032 . S
Zn289 O293 2.086 . S
Zn289 O298 1.977 . S
O290 Zn289 2.032 . S
O290 C294 1.278 . S
C291 O292 1.203 . S
C291 O298 1.267 . S
O292 C291 1.203 . S
O293 C286 1.185 . S
O293 Zn289 2.086 . S
C294 O290 1.278 . S
C294 O295 1.211 . S
O295 C294 1.211 . S
C296 O288 1.284 . S
C296 O297 1.273 . S
O297 C296 1.273 . S
O298 Zn289 1.977 . S
O298 C291 1.267 . S
C299 O300 1.160 . S
C299 O306 1.185 . S
O300 C299 1.160 . S
O301 Zn302 1.899 . S
O301 C309 1.284 . S
Zn302 O301 1.899 . S
Zn302 O303 2.032 . S
Zn302 O306 2.086 . S
Zn302 O311 1.977 . S
O303 Zn302 2.032 . S
O303 C307 1.278 . S
C304 O305 1.203 . S
C304 O311 1.267 . S
O305 C304 1.203 . S
O306 C299 1.185 . S
O306 Zn302 2.086 . S
C307 O303 1.278 . S
C307 O308 1.211 . S
O308 C307 1.211 . S
C309 O301 1.284 . S
C309 O310 1.273 . S
O310 C309 1.273 . S
O311 Zn302 1.977 . S
O311 C304 1.267 . S
Tb312 O315 2.453 . S
Tb312 O316 2.596 . S
Tb312 O317 2.374 1_554 S
Tb312 O325 2.343 1_455 S
Tb312 O327 2.353 . S
Tb312 O329 2.427 . S
Tb312 O330 2.513 1_554 S
C313 O317 1.251 . S
C313 O319 1.263 1_445 S
Tb314 O316 2.343 1_665 S
Tb314 O319 2.353 1_554 S
Tb314 O322 2.427 . S
Tb314 O323 2.513 . S
Tb314 O324 2.453 1_564 S
Tb314 O325 2.596 1_565 S
Tb314 O326 2.374 1_565 S
O315 Tb312 2.453 . S
O315 C331 1.245 . S
O316 Tb312 2.596 . S
O316 Tb314 2.343 1_445 S
O316 C331 1.259 . S
O317 Tb312 2.374 1_556 S
O317 C313 1.251 . S
C318 O322 1.275 1_455 S
C318 O323 1.246 1_455 S
O319 C313 1.263 1_665 S
O319 Tb314 2.353 1_556 S
C320 O324 1.245 . S
C320 O325 1.259 1_556 S
C321 O326 1.250 . S
C321 O327 1.263 1_655 S
O322 Tb314 2.427 . S
O322 C318 1.275 1_655 S
O323 Tb314 2.513 . S
O323 C318 1.246 1_655 S
O324 Tb314 2.453 1_546 S
O324 C320 1.245 . S
O325 Tb312 2.343 1_655 S
O325 Tb314 2.596 1_545 S
O325 C320 1.259 1_554 S
O326 Tb314 2.374 1_545 S
O326 C321 1.250 . S
O327 Tb312 2.353 . S
O327 C321 1.263 1_455 S
C328 O329 1.275 1_556 S
C328 O330 1.246 . S
O329 Tb312 2.427 . S
O329 C328 1.275 1_554 S
O330 Tb312 2.513 1_556 S
O330 C328 1.246 . S
C331 O315 1.245 . S
C331 O316 1.259 . S
Tb332 O335 2.453 . S
Tb332 O336 2.596 . S
Tb332 O337 2.374 . S
Tb332 O345 2.343 . S
Tb332 O347 2.353 . S
Tb332 O349 2.427 . S
Tb332 O350 2.513 . S
C333 O337 1.251 . S
C333 O339 1.263 . S
Tb334 O336 2.343 . S
Tb334 O339 2.353 . S
Tb334 O342 2.427 . S
Tb334 O343 2.513 . S
Tb334 O344 2.453 . S
Tb334 O345 2.596 . S
Tb334 O346 2.374 . S
O335 Tb332 2.453 . S
O335 C351 1.245 . S
O336 Tb332 2.596 . S
O336 Tb334 2.343 . S
O336 C351 1.259 . S
O337 Tb332 2.374 . S
O337 C333 1.251 . S
C338 O342 1.275 . S
C338 O343 1.246 . S
O339 C333 1.263 . S
O339 Tb334 2.353 . S
C340 O344 1.245 . S
C340 O345 1.259 . S
C341 O346 1.250 . S
C341 O347 1.263 . S
O342 Tb334 2.427 . S
O342 C338 1.275 . S
O343 Tb334 2.513 . S
O343 C338 1.246 . S
O344 Tb334 2.453 . S
O344 C340 1.245 . S
O345 Tb332 2.343 . S
O345 Tb334 2.596 . S
O345 C340 1.259 . S
O346 Tb334 2.374 . S
O346 C341 1.250 . S
O347 Tb332 2.353 . S
O347 C341 1.263 . S
C348 O349 1.275 . S
C348 O350 1.246 . S
O349 Tb332 2.427 . S
O349 C348 1.275 . S
O350 Tb332 2.513 . S
O350 C348 1.246 . S
C351 O335 1.245 . S
C351 O336 1.259 . S
Tb352 O355 2.453 . S
Tb352 O356 2.596 . S
Tb352 O357 2.374 . S
Tb352 O365 2.343 . S
Tb352 O367 2.353 . S
Tb352 O369 2.427 . S
Tb352 O370 2.513 . S
C353 O357 1.251 . S
C353 O359 1.263 . S
Tb354 O356 2.343 . S
Tb354 O359 2.353 . S
Tb354 O362 2.427 . S
Tb354 O363 2.513 . S
Tb354 O364 2.453 1_545 S
Tb354 O365 2.596 . S
Tb354 O366 2.374 . S
O355 Tb352 2.453 . S
O355 C371 1.245 . S
O356 Tb352 2.596 . S
O356 Tb354 2.343 . S
O356 C371 1.259 . S
O357 Tb352 2.374 . S
O357 C353 1.251 . S
C358 O362 1.275 . S
C358 O363 1.246 . S
O359 C353 1.263 . S
O359 Tb354 2.353 . S
C360 O364 1.245 . S
C360 O365 1.259 1_565 S
C361 O366 1.250 . S
C361 O367 1.263 . S
O362 Tb354 2.427 . S
O362 C358 1.275 . S
O363 Tb354 2.513 . S
O363 C358 1.246 . S
O364 Tb354 2.453 1_565 S
O364 C360 1.245 . S
O365 Tb352 2.343 . S
O365 Tb354 2.596 . S
O365 C360 1.259 1_545 S
O366 Tb354 2.374 . S
O366 C361 1.250 . S
O367 Tb352 2.353 . S
O367 C361 1.263 . S
C368 O369 1.275 . S
C368 O370 1.246 . S
O369 Tb352 2.427 . S
O369 C368 1.275 . S
O370 Tb352 2.513 . S
O370 C368 1.246 . S
C371 O355 1.245 . S
C371 O356 1.259 . S
Tb372 O375 2.453 . S
Tb372 O376 2.596 . S
Tb372 O377 2.374 . S
Tb372 O385 2.343 . S
Tb372 O387 2.353 . S
Tb372 O389 2.427 . S
Tb372 O390 2.513 . S
C373 O377 1.251 . S
C373 O379 1.263 . S
Tb374 O376 2.343 . S
Tb374 O379 2.353 . S
Tb374 O382 2.427 . S
Tb374 O383 2.513 . S
Tb374 O384 2.453 . S
Tb374 O385 2.596 . S
Tb374 O386 2.374 . S
O375 Tb372 2.453 . S
O375 C391 1.245 . S
O376 Tb372 2.596 . S
O376 Tb374 2.343 . S
O376 C391 1.259 . S
O377 Tb372 2.374 . S
O377 C373 1.251 . S
C378 O382 1.275 . S
C378 O383 1.246 . S
O379 C373 1.263 . S
O379 Tb374 2.353 . S
C380 O384 1.245 . S
C380 O385 1.259 . S
C381 O386 1.250 . S
C381 O387 1.263 . S
O382 Tb374 2.427 . S
O382 C378 1.275 . S
O383 Tb374 2.513 . S
O383 C378 1.246 . S
O384 Tb374 2.453 . S
O384 C380 1.245 . S
O385 Tb372 2.343 . S
O385 Tb374 2.596 . S
O385 C380 1.259 . S
O386 Tb374 2.374 . S
O386 C381 1.250 . S
O387 Tb372 2.353 . S
O387 C381 1.263 . S
C388 O389 1.275 . S
C388 O390 1.246 . S
O389 Tb372 2.427 . S
O389 C388 1.275 . S
O390 Tb372 2.513 . S
O390 C388 1.246 . S
C391 O375 1.245 . S
C391 O376 1.259 . S
Tb392 O395 2.453 1_545 S
Tb392 O396 2.596 . S
Tb392 O397 2.374 1_455 S
Tb392 O405 2.343 . S
Tb392 O407 2.353 . S
Tb392 O409 2.427 . S
Tb392 O410 2.513 1_455 S
C393 O397 1.251 . S
C393 O399 1.263 . S
Tb394 O396 2.343 . S
Tb394 O399 2.353 1_455 S
Tb394 O402 2.427 . S
Tb394 O403 2.513 . S
Tb394 O404 2.453 . S
Tb394 O405 2.596 . S
Tb394 O406 2.374 . S
O395 Tb392 2.453 1_565 S
O395 C411 1.245 . S
O396 Tb392 2.596 . S
O396 Tb394 2.343 . S
O396 C411 1.259 1_545 S
O397 Tb392 2.374 1_655 S
O397 C393 1.251 . S
C398 O402 1.275 . S
C398 O403 1.246 . S
O399 C393 1.263 . S
O399 Tb394 2.353 1_655 S
C400 O404 1.245 . S
C400 O405 1.259 . S
C401 O406 1.250 . S
C401 O407 1.263 . S
O402 Tb394 2.427 . S
O402 C398 1.275 . S
O403 Tb394 2.513 . S
O403 C398 1.246 . S
O404 Tb394 2.453 . S
O404 C400 1.245 . S
O405 Tb392 2.343 . S
O405 Tb394 2.596 . S
O405 C400 1.259 . S
O406 Tb394 2.374 . S
O406 C401 1.250 . S
O407 Tb392 2.353 . S
O407 C401 1.263 . S
C408 O409 1.275 1_655 S
C408 O410 1.246 . S
O409 Tb392 2.427 . S
O409 C408 1.275 1_455 S
O410 Tb392 2.513 1_655 S
O410 C408 1.246 . S
C411 O395 1.245 . S
C411 O396 1.259 1_565 S
Tb412 O415 2.453 . S
Tb412 O416 2.596 . S
Tb412 O417 2.374 . S
Tb412 O425 2.343 . S
Tb412 O427 2.353 . S
Tb412 O429 2.427 . S
Tb412 O430 2.513 . S
C413 O417 1.251 . S
C413 O419 1.263 . S
Tb414 O416 2.343 . S
Tb414 O419 2.353 . S
Tb414 O422 2.427 . S
Tb414 O423 2.513 . S
Tb414 O424 2.453 . S
Tb414 O425 2.596 . S
Tb414 O426 2.374 . S
O415 Tb412 2.453 . S
O415 C431 1.245 . S
O416 Tb412 2.596 . S
O416 Tb414 2.343 . S
O416 C431 1.259 . S
O417 Tb412 2.374 . S
O417 C413 1.251 . S
C418 O422 1.275 . S
C418 O423 1.246 . S
O419 C413 1.263 . S
O419 Tb414 2.353 . S
C420 O424 1.245 . S
C420 O425 1.259 . S
C421 O426 1.250 . S
C421 O427 1.263 . S
O422 Tb414 2.427 . S
O422 C418 1.275 . S
O423 Tb414 2.513 . S
O423 C418 1.246 . S
O424 Tb414 2.453 . S
O424 C420 1.245 . S
O425 Tb412 2.343 . S
O425 Tb414 2.596 . S
O425 C420 1.259 . S
O426 Tb414 2.374 . S
O426 C421 1.250 . S
O427 Tb412 2.353 . S
O427 C421 1.263 . S
C428 O429 1.275 . S
C428 O430 1.246 . S
O429 Tb412 2.427 . S
O429 C428 1.275 . S
O430 Tb412 2.513 . S
O430 C428 1.246 . S
C431 O415 1.245 . S
C431 O416 1.259 . S
Tb432 O435 2.453 . S
Tb432 O436 2.596 . S
Tb432 O437 2.374 1_545 S
Tb432 O445 2.343 1_556 S
Tb432 O447 2.353 1_556 S
Tb432 O449 2.427 1_556 S
Tb432 O450 2.513 1_546 S
C433 O437 1.251 1_554 S
C433 O439 1.263 . S
Tb434 O436 2.343 1_554 S
Tb434 O439 2.353 1_545 S
Tb434 O442 2.427 . S
Tb434 O443 2.513 . S
Tb434 O444 2.453 . S
Tb434 O445 2.596 . S
Tb434 O446 2.374 . S
O435 Tb432 2.453 . S
O435 C451 1.245 . S
O436 Tb432 2.596 . S
O436 Tb434 2.343 1_556 S
O436 C451 1.259 . S
O437 Tb432 2.374 1_565 S
O437 C433 1.251 1_556 S
C438 O442 1.275 . S
C438 O443 1.246 . S
O439 C433 1.263 . S
O439 Tb434 2.353 1_565 S
C440 O444 1.245 . S
C440 O445 1.259 . S
C441 O446 1.250 . S
C441 O447 1.263 . S
O442 Tb434 2.427 . S
O442 C438 1.275 . S
O443 Tb434 2.513 . S
O443 C438 1.246 . S
O444 Tb434 2.453 . S
O444 C440 1.245 . S
O445 Tb432 2.343 1_554 S
O445 Tb434 2.596 . S
O445 C440 1.259 . S
O446 Tb434 2.374 . S
O446 C441 1.250 . S
O447 Tb432 2.353 1_554 S
O447 C441 1.263 . S
C448 O449 1.275 . S
C448 O450 1.246 1_545 S
O449 Tb432 2.427 1_554 S
O449 C448 1.275 . S
O450 Tb432 2.513 1_564 S
O450 C448 1.246 1_565 S
C451 O435 1.245 . S
C451 O436 1.259 . S
Tb452 O455 2.453 . S
Tb452 O456 2.596 . S
Tb452 O457 2.374 . S
Tb452 O465 2.343 . S
Tb452 O467 2.353 . S
Tb452 O469 2.427 . S
Tb452 O470 2.513 . S
C453 O457 1.251 . S
C453 O459 1.263 . S
Tb454 O456 2.343 . S
Tb454 O459 2.353 . S
Tb454 O462 2.427 . S
Tb454 O463 2.513 . S
Tb454 O464 2.453 . S
Tb454 O465 2.596 . S
Tb454 O466 2.374 . S
O455 Tb452 2.453 . S
O455 C471 1.245 . S
O456 Tb452 2.596 . S
O456 Tb454 2.343 . S
O456 C471 1.259 . S
O457 Tb452 2.374 . S
O457 C453 1.251 . S
C458 O462 1.275 . S
C458 O463 1.246 . S
O459 C453 1.263 . S
O459 Tb454 2.353 . S
C460 O464 1.245 . S
C460 O465 1.259 . S
C461 O466 1.250 . S
C461 O467 1.263 . S
O462 Tb454 2.427 . S
O462 C458 1.275 . S
O463 Tb454 2.513 . S
O463 C458 1.246 . S
O464 Tb454 2.453 . S
O464 C460 1.245 . S
O465 Tb452 2.343 . S
O465 Tb454 2.596 . S
O465 C460 1.259 . S
O466 Tb454 2.374 . S
O466 C461 1.250 . S
O467 Tb452 2.353 . S
O467 C461 1.263 . S
C468 O469 1.275 . S
C468 O470 1.246 . S
O469 Tb452 2.427 . S
O469 C468 1.275 . S
O470 Tb452 2.513 . S
O470 C468 1.246 . S
C471 O455 1.245 . S
C471 O456 1.259 . S
Tb472 O475 2.453 1_556 S
Tb472 O476 2.596 1_556 S
Tb472 O477 2.374 1_556 S
Tb472 O485 2.343 1_556 S
Tb472 O487 2.353 . S
Tb472 O489 2.427 . S
Tb472 O490 2.513 . S
C473 O477 1.251 . S
C473 O479 1.263 . S
Tb474 O476 2.343 . S
Tb474 O479 2.353 . S
Tb474 O482 2.427 . S
Tb474 O483 2.513 . S
Tb474 O484 2.453 . S
Tb474 O485 2.596 . S
Tb474 O486 2.374 . S
O475 Tb472 2.453 1_554 S
O475 C491 1.245 . S
O476 Tb472 2.596 1_554 S
O476 Tb474 2.343 . S
O476 C491 1.259 . S
O477 Tb472 2.374 1_554 S
O477 C473 1.251 . S
C478 O482 1.275 . S
C478 O483 1.246 . S
O479 C473 1.263 . S
O479 Tb474 2.353 . S
C480 O484 1.245 . S
C480 O485 1.259 . S
C481 O486 1.250 . S
C481 O487 1.263 1_554 S
O482 Tb474 2.427 . S
O482 C478 1.275 . S
O483 Tb474 2.513 . S
O483 C478 1.246 . S
O484 Tb474 2.453 . S
O484 C480 1.245 . S
O485 Tb472 2.343 1_554 S
O485 Tb474 2.596 . S
O485 C480 1.259 . S
O486 Tb474 2.374 . S
O486 C481 1.250 . S
O487 Tb472 2.353 . S
O487 C481 1.263 1_556 S
C488 O489 1.275 . S
C488 O490 1.246 . S
O489 Tb472 2.427 . S
O489 C488 1.275 . S
O490 Tb472 2.513 . S
O490 C488 1.246 . S
C491 O475 1.245 . S
C491 O476 1.259 . S
Tb492 O495 2.453 . S
Tb492 O496 2.596 . S
Tb492 O497 2.374 . S
Tb492 O505 2.343 . S
Tb492 O507 2.353 . S
Tb492 O509 2.427 . S
Tb492 O510 2.513 . S
C493 O497 1.251 . S
C493 O499 1.263 . S
Tb494 O496 2.343 . S
Tb494 O499 2.353 . S
Tb494 O502 2.427 . S
Tb494 O503 2.513 . S
Tb494 O504 2.453 . S
Tb494 O505 2.596 . S
Tb494 O506 2.374 . S
O495 Tb492 2.453 . S
O495 C511 1.245 . S
O496 Tb492 2.596 . S
O496 Tb494 2.343 . S
O496 C511 1.259 . S
O497 Tb492 2.374 . S
O497 C493 1.251 . S
C498 O502 1.275 . S
C498 O503 1.246 . S
O499 C493 1.263 . S
O499 Tb494 2.353 . S
C500 O504 1.245 . S
C500 O505 1.259 . S
C501 O506 1.250 . S
C501 O507 1.263 . S
O502 Tb494 2.427 . S
O502 C498 1.275 . S
O503 Tb494 2.513 . S
O503 C498 1.246 . S
O504 Tb494 2.453 . S
O504 C500 1.245 . S
O505 Tb492 2.343 . S
O505 Tb494 2.596 . S
O505 C500 1.259 . S
O506 Tb494 2.374 . S
O506 C501 1.250 . S
O507 Tb492 2.353 . S
O507 C501 1.263 . S
C508 O509 1.275 . S
C508 O510 1.246 . S
O509 Tb492 2.427 . S
O509 C508 1.275 . S
O510 Tb492 2.513 . S
O510 C508 1.246 . S
C511 O495 1.245 . S
C511 O496 1.259 . S
Tb512 O515 2.453 1_655 S
Tb512 O516 2.596 1_655 S
Tb512 O517 2.374 . S
Tb512 O525 2.343 . S
Tb512 O527 2.353 . S
Tb512 O529 2.427 . S
Tb512 O530 2.513 . S
C513 O517 1.251 1_455 S
C513 O519 1.263 . S
Tb514 O516 2.343 . S
Tb514 O519 2.353 . S
Tb514 O522 2.427 . S
Tb514 O523 2.513 . S
Tb514 O524 2.453 . S
Tb514 O525 2.596 1_455 S
Tb514 O526 2.374 . S
O515 Tb512 2.453 1_455 S
O515 C531 1.245 . S
O516 Tb512 2.596 1_455 S
O516 Tb514 2.343 . S
O516 C531 1.259 . S
O517 Tb512 2.374 . S
O517 C513 1.251 1_655 S
C518 O522 1.275 . S
C518 O523 1.246 . S
O519 C513 1.263 . S
O519 Tb514 2.353 . S
C520 O524 1.245 1_655 S
C520 O525 1.259 . S
C521 O526 1.250 . S
C521 O527 1.263 1_455 S
O522 Tb514 2.427 . S
O522 C518 1.275 . S
O523 Tb514 2.513 . S
O523 C518 1.246 . S
O524 Tb514 2.453 . S
O524 C520 1.245 1_455 S
O525 Tb512 2.343 . S
O525 Tb514 2.596 1_655 S
O525 C520 1.259 . S
O526 Tb514 2.374 . S
O526 C521 1.250 . S
O527 Tb512 2.353 . S
O527 C521 1.263 1_655 S
C528 O529 1.275 . S
C528 O530 1.246 . S
O529 Tb512 2.427 . S
O529 C528 1.275 . S
O530 Tb512 2.513 . S
O530 C528 1.246 . S
C531 O515 1.245 . S
C531 O516 1.259 . S
Tb532 O535 2.453 . S
Tb532 O536 2.596 . S
Tb532 O537 2.374 . S
Tb532 O545 2.343 . S
Tb532 O547 2.353 . S
Tb532 O549 2.427 . S
Tb532 O550 2.513 . S
C533 O537 1.251 . S
C533 O539 1.263 . S
Tb534 O536 2.343 . S
Tb534 O539 2.353 . S
Tb534 O542 2.427 . S
Tb534 O543 2.513 . S
Tb534 O544 2.453 . S
Tb534 O545 2.596 . S
Tb534 O546 2.374 . S
O535 Tb532 2.453 . S
O535 C551 1.245 . S
O536 Tb532 2.596 . S
O536 Tb534 2.343 . S
O536 C551 1.259 . S
O537 Tb532 2.374 . S
O537 C533 1.251 . S
C538 O542 1.275 . S
C538 O543 1.246 . S
O539 C533 1.263 . S
O539 Tb534 2.353 . S
C540 O544 1.245 . S
C540 O545 1.259 . S
C541 O546 1.250 . S
C541 O547 1.263 . S
O542 Tb534 2.427 . S
O542 C538 1.275 . S
O543 Tb534 2.513 . S
O543 C538 1.246 . S
O544 Tb534 2.453 . S
O544 C540 1.245 . S
O545 Tb532 2.343 . S
O545 Tb534 2.596 . S
O545 C540 1.259 . S
O546 Tb534 2.374 . S
O546 C541 1.250 . S
O547 Tb532 2.353 . S
O547 C541 1.263 . S
C548 O549 1.275 . S
C548 O550 1.246 . S
O549 Tb532 2.427 . S
O549 C548 1.275 . S
O550 Tb532 2.513 . S
O550 C548 1.246 . S
C551 O535 1.245 . S
C551 O536 1.259 . S
Tb552 O555 2.453 . S
Tb552 O556 2.596 . S
Tb552 O557 2.374 . S
Tb552 O565 2.343 . S
Tb552 O567 2.353 . S
Tb552 O569 2.427 . S
Tb552 O570 2.513 . S
C553 O557 1.251 . S
C553 O559 1.263 . S
Tb554 O556 2.343 . S
Tb554 O559 2.353 . S
Tb554 O562 2.427 . S
Tb554 O563 2.513 . S
Tb554 O564 2.453 . S
Tb554 O565 2.596 . S
Tb554 O566 2.374 . S
O555 Tb552 2.453 . S
O555 C571 1.245 . S
O556 Tb552 2.596 . S
O556 Tb554 2.343 . S
O556 C571 1.259 . S
O557 Tb552 2.374 . S
O557 C553 1.251 . S
C558 O562 1.275 . S
C558 O563 1.246 . S
O559 C553 1.263 . S
O559 Tb554 2.353 . S
C560 O564 1.245 . S
C560 O565 1.259 . S
C561 O566 1.250 . S
C561 O567 1.263 . S
O562 Tb554 2.427 . S
O562 C558 1.275 . S
O563 Tb554 2.513 . S
O563 C558 1.246 . S
O564 Tb554 2.453 . S
O564 C560 1.245 . S
O565 Tb552 2.343 . S
O565 Tb554 2.596 . S
O565 C560 1.259 . S
O566 Tb554 2.374 . S
O566 C561 1.250 . S
O567 Tb552 2.353 . S
O567 C561 1.263 . S
C568 O569 1.275 . S
C568 O570 1.246 . S
O569 Tb552 2.427 . S
O569 C568 1.275 . S
O570 Tb552 2.513 . S
O570 C568 1.246 . S
C571 O555 1.245 . S
C571 O556 1.259 . S
Tb572 O575 2.453 . S
Tb572 O576 2.596 . S
Tb572 O577 2.374 . S
Tb572 O585 2.343 . S
Tb572 O587 2.353 . S
Tb572 O589 2.427 . S
Tb572 O590 2.513 . S
C573 O577 1.251 . S
C573 O579 1.263 . S
Tb574 O576 2.343 . S
Tb574 O579 2.353 . S
Tb574 O582 2.427 . S
Tb574 O583 2.513 . S
Tb574 O584 2.453 . S
Tb574 O585 2.596 . S
Tb574 O586 2.374 . S
O575 Tb572 2.453 . S
O575 C591 1.245 . S
O576 Tb572 2.596 . S
O576 Tb574 2.343 . S
O576 C591 1.259 . S
O577 Tb572 2.374 . S
O577 C573 1.251 . S
C578 O582 1.275 . S
C578 O583 1.246 . S
O579 C573 1.263 . S
O579 Tb574 2.353 . S
C580 O584 1.245 . S
C580 O585 1.259 . S
C581 O586 1.250 . S
C581 O587 1.263 . S
O582 Tb574 2.427 . S
O582 C578 1.275 . S
O583 Tb574 2.513 . S
O583 C578 1.246 . S
O584 Tb574 2.453 . S
O584 C580 1.245 . S
O585 Tb572 2.343 . S
O585 Tb574 2.596 . S
O585 C580 1.259 . S
O586 Tb574 2.374 . S
O586 C581 1.250 . S
O587 Tb572 2.353 . S
O587 C581 1.263 . S
C588 O589 1.275 . S
C588 O590 1.246 . S
O589 Tb572 2.427 . S
O589 C588 1.275 . S
O590 Tb572 2.513 . S
O590 C588 1.246 . S
C591 O575 1.245 . S
C591 O576 1.259 . S
Tb592 O595 2.453 . S
Tb592 O596 2.596 . S
Tb592 O597 2.374 . S
Tb592 O605 2.343 . S
Tb592 O607 2.353 . S
Tb592 O609 2.427 . S
Tb592 O610 2.513 . S
C593 O597 1.251 . S
C593 O599 1.263 . S
Tb594 O596 2.343 . S
Tb594 O599 2.353 . S
Tb594 O602 2.427 . S
Tb594 O603 2.513 . S
Tb594 O604 2.453 . S
Tb594 O605 2.596 . S
Tb594 O606 2.374 . S
O595 Tb592 2.453 . S
O595 C611 1.245 . S
O596 Tb592 2.596 . S
O596 Tb594 2.343 . S
O596 C611 1.259 . S
O597 Tb592 2.374 . S
O597 C593 1.251 . S
C598 O602 1.275 . S
C598 O603 1.246 . S
O599 C593 1.263 . S
O599 Tb594 2.353 . S
C600 O604 1.245 . S
C600 O605 1.259 . S
C601 O606 1.250 . S
C601 O607 1.263 . S
O602 Tb594 2.427 . S
O602 C598 1.275 . S
O603 Tb594 2.513 . S
O603 C598 1.246 . S
O604 Tb594 2.453 . S
O604 C600 1.245 . S
O605 Tb592 2.343 . S
O605 Tb594 2.596 . S
O605 C600 1.259 . S
O606 Tb594 2.374 . S
O606 C601 1.250 . S
O607 Tb592 2.353 . S
O607 C601 1.263 . S
C608 O609 1.275 . S
C608 O610 1.246 . S
O609 Tb592 2.427 . S
O609 C608 1.275 . S
O610 Tb592 2.513 . S
O610 C608 1.246 . S
C611 O595 1.245 . S
C611 O596 1.259 . S
Tb612 O615 2.453 . S
Tb612 O616 2.596 . S
Tb612 O617 2.374 . S
Tb612 O625 2.343 . S
Tb612 O627 2.353 1_554 S
Tb612 O629 2.427 1_554 S
Tb612 O630 2.513 . S
C613 O617 1.251 . S
C613 O619 1.235 1_455 S
Tb614 O616 2.343 1_655 S
Tb614 O619 2.369 . S
Tb614 O622 2.427 . S
Tb614 O623 2.513 . S
Tb614 O624 2.453 . S
Tb614 O625 2.596 1_655 S
Tb614 O626 2.374 1_554 S
O615 Tb612 2.453 . S
O615 C631 1.245 . S
O616 Tb612 2.596 . S
O616 Tb614 2.343 1_455 S
O616 C631 1.259 . S
O617 Tb612 2.374 . S
O617 C613 1.251 . S
C618 O622 1.275 . S
C618 O623 1.246 . S
O619 C613 1.235 1_655 S
O619 Tb614 2.369 . S
C620 O624 1.245 1_456 S
C620 O625 1.259 1_556 S
C621 O626 1.250 1_455 S
C621 O627 1.263 . S
O622 Tb614 2.427 . S
O622 C618 1.275 . S
O623 Tb614 2.513 . S
O623 C618 1.246 . S
O624 Tb614 2.453 . S
O624 C620 1.245 1_654 S
O625 Tb612 2.343 . S
O625 Tb614 2.596 1_455 S
O625 C620 1.259 1_554 S
O626 Tb614 2.374 1_556 S
O626 C621 1.250 1_655 S
O627 Tb612 2.353 1_556 S
O627 C621 1.263 . S
C628 O629 1.275 . S
C628 O630 1.246 1_556 S
O629 Tb612 2.427 1_556 S
O629 C628 1.275 . S
O630 Tb612 2.513 . S
O630 C628 1.246 1_554 S
C631 O615 1.245 . S
C631 O616 1.259 . S
H632 C640 0.950 . S
H633 C645 0.950 . S
H634 C642 0.950 . S
H635 C644 0.950 . S
H636 C646 0.950 . S
H637 C648 0.950 . S
H638 C650 0.950 . S
H639 C651 0.950 . S
C640 H632 0.950 . S
C640 C641 1.386 . S
C640 C642 1.391 . S
C641 C640 1.386 . S
C641 C645 1.393 1_455 S
C642 H634 0.950 . S
C642 C640 1.391 . S
C642 C643 1.400 . S
C643 C642 1.400 . S
C643 C644 1.398 1_455 S
C643 C649 1.491 . S
C644 H635 0.950 . S
C644 C643 1.398 1_655 S
C644 C645 1.391 . S
C645 H633 0.950 . S
C645 C641 1.393 1_655 S
C645 C644 1.391 . S
C646 H636 0.950 . S
C646 C647 1.386 1_655 S
C646 C648 1.391 . S
C647 C646 1.386 1_455 S
C647 C651 1.393 . S
C648 H637 0.950 . S
C648 C646 1.391 . S
C648 C649 1.400 1_655 S
C649 C643 1.491 . S
C649 C648 1.400 1_455 S
C649 C650 1.398 . S
C650 H638 0.950 . S
C650 C649 1.398 . S
C650 C651 1.391 . S
C651 H639 0.950 . S
C651 C647 1.393 . S
C651 C650 1.391 . S
H652 C660 0.950 . S
H653 C665 0.950 . S
H654 C662 0.950 . S
H655 C664 0.950 . S
H656 C666 0.950 . S
H657 C668 0.950 . S
H658 C670 0.950 . S
H659 C671 0.950 . S
C660 H652 0.950 . S
C660 C661 1.386 . S
C660 C662 1.391 . S
C661 C660 1.386 . S
C661 C665 1.393 . S
C662 H654 0.950 . S
C662 C660 1.391 . S
C662 C663 1.400 . S
C663 C662 1.400 . S
C663 C664 1.398 . S
C663 C669 1.491 . S
C664 H655 0.950 . S
C664 C663 1.398 . S
C664 C665 1.391 . S
C665 H653 0.950 . S
C665 C661 1.393 . S
C665 C664 1.391 . S
C666 H656 0.950 . S
C666 C667 1.386 . S
C666 C668 1.391 . S
C667 C666 1.386 . S
C667 C671 1.393 . S
C668 H657 0.950 . S
C668 C666 1.391 . S
C668 C669 1.400 . S
C669 C663 1.491 . S
C669 C668 1.400 . S
C669 C670 1.398 . S
C670 H658 0.950 . S
C670 C669 1.398 . S
C670 C671 1.391 . S
C671 H659 0.950 . S
C671 C667 1.393 . S
C671 C670 1.391 . S
H672 C680 0.950 . S
H673 C685 0.950 . S
H674 C682 0.950 . S
H675 C684 0.950 . S
H676 C686 0.950 . S
H677 C688 0.950 . S
H678 C690 0.950 . S
H679 C691 0.950 . S
C680 H672 0.950 . S
C680 C681 1.386 . S
C680 C682 1.391 . S
C681 C680 1.386 . S
C681 C685 1.393 . S
C682 H674 0.950 . S
C682 C680 1.391 . S
C682 C683 1.400 . S
C683 C682 1.400 . S
C683 C684 1.398 . S
C683 C689 1.491 . S
C684 H675 0.950 . S
C684 C683 1.398 . S
C684 C685 1.391 . S
C685 H673 0.950 . S
C685 C681 1.393 . S
C685 C684 1.391 . S
C686 H676 0.950 . S
C686 C687 1.386 . S
C686 C688 1.391 . S
C687 C686 1.386 . S
C687 C691 1.393 . S
C688 H677 0.950 . S
C688 C686 1.391 . S
C688 C689 1.400 . S
C689 C683 1.491 . S
C689 C688 1.400 . S
C689 C690 1.398 . S
C690 H678 0.950 . S
C690 C689 1.398 . S
C690 C691 1.391 . S
C691 H679 0.950 . S
C691 C687 1.393 . S
C691 C690 1.391 . S
H692 C700 0.950 . S
H693 C705 0.950 . S
H694 C702 0.950 . S
H695 C704 0.950 . S
H696 C706 0.950 . S
H697 C708 0.950 . S
H698 C710 0.950 . S
H699 C711 0.950 . S
C700 H692 0.950 . S
C700 C701 1.386 . S
C700 C702 1.391 . S
C701 C700 1.386 . S
C701 C705 1.393 . S
C702 H694 0.950 . S
C702 C700 1.391 . S
C702 C703 1.400 . S
C703 C702 1.400 . S
C703 C704 1.398 . S
C703 C709 1.491 . S
C704 H695 0.950 . S
C704 C703 1.398 . S
C704 C705 1.391 . S
C705 H693 0.950 . S
C705 C701 1.393 . S
C705 C704 1.391 . S
C706 H696 0.950 . S
C706 C707 1.386 . S
C706 C708 1.391 . S
C707 C706 1.386 . S
C707 C711 1.393 . S
C708 H697 0.950 . S
C708 C706 1.391 . S
C708 C709 1.400 . S
C709 C703 1.491 . S
C709 C708 1.400 . S
C709 C710 1.398 . S
C710 H698 0.950 . S
C710 C709 1.398 . S
C710 C711 1.391 . S
C711 H699 0.950 . S
C711 C707 1.393 . S
C711 C710 1.391 . S
H712 C720 0.950 . S
H713 C725 0.950 . S
H714 C722 0.950 . S
H715 C724 0.950 . S
H716 C726 0.950 . S
H717 C728 0.950 . S
H718 C730 0.950 . S
H719 C731 0.950 . S
C720 H712 0.950 . S
C720 C721 1.386 . S
C720 C722 1.391 . S
C721 C720 1.386 . S
C721 C725 1.393 1_455 S
C722 H714 0.950 . S
C722 C720 1.391 . S
C722 C723 1.400 . S
C723 C722 1.400 . S
C723 C724 1.398 1_455 S
C723 C729 1.491 . S
C724 H715 0.950 . S
C724 C723 1.398 1_655 S
C724 C725 1.391 . S
C725 H713 0.950 . S
C725 C721 1.393 1_655 S
C725 C724 1.391 . S
C726 H716 0.950 . S
C726 C727 1.386 1_655 S
C726 C728 1.391 . S
C727 C726 1.386 1_455 S
C727 C731 1.393 . S
C728 H717 0.950 . S
C728 C726 1.391 . S
C728 C729 1.400 1_655 S
C729 C723 1.491 . S
C729 C728 1.400 1_455 S
C729 C730 1.398 . S
C730 H718 0.950 . S
C730 C729 1.398 . S
C730 C731 1.391 . S
C731 H719 0.950 . S
C731 C727 1.393 . S
C731 C730 1.391 . S
H732 C740 0.950 . S
H733 C745 0.950 . S
H734 C742 0.950 . S
H735 C744 0.950 . S
H736 C746 0.950 . S
H737 C748 0.950 . S
H738 C750 0.950 . S
H739 C751 0.950 . S
C740 H732 0.950 . S
C740 C741 1.386 . S
C740 C742 1.391 . S
C741 C740 1.386 . S
C741 C745 1.393 . S
C742 H734 0.950 . S
C742 C740 1.391 . S
C742 C743 1.400 . S
C743 C742 1.400 . S
C743 C744 1.398 . S
C743 C749 1.491 . S
C744 H735 0.950 . S
C744 C743 1.398 . S
C744 C745 1.391 . S
C745 H733 0.950 . S
C745 C741 1.393 . S
C745 C744 1.391 . S
C746 H736 0.950 . S
C746 C747 1.386 . S
C746 C748 1.391 . S
C747 C746 1.386 . S
C747 C751 1.393 . S
C748 H737 0.950 . S
C748 C746 1.391 . S
C748 C749 1.400 . S
C749 C743 1.491 . S
C749 C748 1.400 . S
C749 C750 1.398 . S
C750 H738 0.950 . S
C750 C749 1.398 . S
C750 C751 1.391 . S
C751 H739 0.950 . S
C751 C747 1.393 . S
C751 C750 1.391 . S
H752 C760 0.950 . S
H753 C765 0.950 . S
H754 C762 0.950 . S
H755 C764 0.950 . S
H756 C766 0.950 . S
H757 C768 0.950 . S
H758 C770 0.950 . S
H759 C771 0.950 . S
C760 H752 0.950 . S
C760 C761 1.386 . S
C760 C762 1.391 . S
C761 C760 1.386 . S
C761 C765 1.393 . S
C762 H754 0.950 . S
C762 C760 1.391 . S
C762 C763 1.400 . S
C763 C762 1.400 . S
C763 C764 1.398 . S
C763 C769 1.491 . S
C764 H755 0.950 . S
C764 C763 1.398 . S
C764 C765 1.391 . S
C765 H753 0.950 . S
C765 C761 1.393 . S
C765 C764 1.391 . S
C766 H756 0.950 . S
C766 C767 1.386 . S
C766 C768 1.391 . S
C767 C766 1.386 . S
C767 C771 1.393 . S
C768 H757 0.950 . S
C768 C766 1.391 . S
C768 C769 1.400 . S
C769 C763 1.491 . S
C769 C768 1.400 . S
C769 C770 1.398 . S
C770 H758 0.950 . S
C770 C769 1.398 . S
C770 C771 1.391 . S
C771 H759 0.950 . S
C771 C767 1.393 . S
C771 C770 1.391 . S
H772 C780 0.950 . S
H773 C785 0.950 . S
H774 C782 0.950 . S
H775 C784 0.950 . S
H776 C786 0.950 . S
H777 C788 0.950 . S
H778 C790 0.950 . S
H779 C791 0.950 . S
C780 H772 0.950 . S
C780 C781 1.386 . S
C780 C782 1.391 . S
C781 C780 1.386 . S
C781 C785 1.393 . S
C782 H774 0.950 . S
C782 C780 1.391 . S
C782 C783 1.400 . S
C783 C782 1.400 . S
C783 C784 1.398 . S
C783 C789 1.491 . S
C784 H775 0.950 . S
C784 C783 1.398 . S
C784 C785 1.391 . S
C785 H773 0.950 . S
C785 C781 1.393 . S
C785 C784 1.391 . S
C786 H776 0.950 . S
C786 C787 1.386 . S
C786 C788 1.391 . S
C787 C786 1.386 . S
C787 C791 1.393 . S
C788 H777 0.950 . S
C788 C786 1.391 . S
C788 C789 1.400 . S
C789 C783 1.491 . S
C789 C788 1.400 . S
C789 C790 1.398 . S
C790 H778 0.950 . S
C790 C789 1.398 . S
C790 C791 1.391 . S
C791 H779 0.950 . S
C791 C787 1.393 . S
C791 C790 1.391 . S
H792 C800 0.950 . S
H793 C805 0.950 . S
H794 C802 0.950 . S
H795 C804 0.950 . S
H796 C806 0.950 . S
H797 C808 0.950 . S
H798 C810 0.950 . S
H799 C811 0.950 . S
C800 H792 0.950 . S
C800 C801 1.386 . S
C800 C802 1.391 . S
C801 C800 1.386 . S
C801 C805 1.393 . S
C802 H794 0.950 . S
C802 C800 1.391 . S
C802 C803 1.400 . S
C803 C802 1.400 . S
C803 C804 1.398 . S
C803 C809 1.491 . S
C804 H795 0.950 . S
C804 C803 1.398 . S
C804 C805 1.391 . S
C805 H793 0.950 . S
C805 C801 1.393 . S
C805 C804 1.391 . S
C806 H796 0.950 . S
C806 C807 1.386 . S
C806 C808 1.391 . S
C807 C806 1.386 . S
C807 C811 1.393 . S
C808 H797 0.950 . S
C808 C806 1.391 . S
C808 C809 1.400 . S
C809 C803 1.491 . S
C809 C808 1.400 . S
C809 C810 1.398 . S
C810 H798 0.950 . S
C810 C809 1.398 . S
C810 C811 1.391 . S
C811 H799 0.950 . S
C811 C807 1.393 . S
C811 C810 1.391 . S
H812 C820 0.950 . S
H813 C825 0.950 . S
H814 C822 0.950 . S
H815 C824 0.950 . S
H816 C826 0.950 . S
H817 C828 0.950 . S
H818 C830 0.950 . S
H819 C831 0.950 . S
C820 H812 0.950 . S
C820 C821 1.386 . S
C820 C822 1.391 . S
C821 C820 1.386 . S
C821 C825 1.393 . S
C822 H814 0.950 . S
C822 C820 1.391 . S
C822 C823 1.400 . S
C823 C822 1.400 . S
C823 C824 1.398 . S
C823 C829 1.491 . S
C824 H815 0.950 . S
C824 C823 1.398 . S
C824 C825 1.391 . S
C825 H813 0.950 . S
C825 C821 1.393 . S
C825 C824 1.391 . S
C826 H816 0.950 . S
C826 C827 1.386 . S
C826 C828 1.391 . S
C827 C826 1.386 . S
C827 C831 1.393 . S
C828 H817 0.950 . S
C828 C826 1.391 . S
C828 C829 1.400 . S
C829 C823 1.491 . S
C829 C828 1.400 . S
C829 C830 1.398 . S
C830 H818 0.950 . S
C830 C829 1.398 . S
C830 C831 1.391 . S
C831 H819 0.950 . S
C831 C827 1.393 . S
C831 C830 1.391 . S
H832 C840 0.950 . S
H833 C845 0.950 . S
H834 C842 0.950 . S
H835 C844 0.950 . S
H836 C846 0.950 1_565 S
H837 C848 0.950 1_565 S
H838 C850 0.950 . S
H839 C851 0.950 . S
C840 H832 0.950 . S
C840 C841 1.386 . S
C840 C842 1.391 . S
C841 C840 1.386 . S
C841 C845 1.393 1_545 S
C842 H834 0.950 . S
C842 C840 1.391 . S
C842 C843 1.400 . S
C843 C842 1.400 . S
C843 C844 1.398 1_545 S
C843 C849 1.491 . S
C844 H835 0.950 . S
C844 C843 1.398 1_565 S
C844 C845 1.391 . S
C845 H833 0.950 . S
C845 C841 1.393 1_565 S
C845 C844 1.391 . S
C846 H836 0.950 1_545 S
C846 C847 1.386 . S
C846 C848 1.391 . S
C847 C846 1.386 . S
C847 C851 1.393 . S
C848 H837 0.950 1_545 S
C848 C846 1.391 . S
C848 C849 1.400 . S
C849 C843 1.491 . S
C849 C848 1.400 . S
C849 C850 1.398 . S
C850 H838 0.950 . S
C850 C849 1.398 . S
C850 C851 1.391 . S
C851 H839 0.950 . S
C851 C847 1.393 . S
C851 C850 1.391 . S
H852 C860 0.950 . S
H853 C865 0.950 . S
H854 C862 0.950 . S
H855 C864 0.950 . S
H856 C866 0.950 . S
H857 C868 0.950 . S
H858 C870 0.950 . S
H859 C871 0.950 . S
C860 H852 0.950 . S
C860 C861 1.386 . S
C860 C862 1.391 . S
C861 C860 1.386 . S
C861 C865 1.393 . S
C862 H854 0.950 . S
C862 C860 1.391 . S
C862 C863 1.400 . S
C863 C862 1.400 . S
C863 C864 1.398 . S
C863 C869 1.491 . S
C864 H855 0.950 . S
C864 C863 1.398 . S
C864 C865 1.391 . S
C865 H853 0.950 . S
C865 C861 1.393 . S
C865 C864 1.391 . S
C866 H856 0.950 . S
C866 C867 1.386 . S
C866 C868 1.391 . S
C867 C866 1.386 . S
C867 C871 1.393 . S
C868 H857 0.950 . S
C868 C866 1.391 . S
C868 C869 1.400 . S
C869 C863 1.491 . S
C869 C868 1.400 . S
C869 C870 1.398 . S
C870 H858 0.950 . S
C870 C869 1.398 . S
C870 C871 1.391 . S
C871 H859 0.950 . S
C871 C867 1.393 . S
C871 C870 1.391 . S
H872 C880 0.950 . S
H873 C885 0.950 . S
H874 C882 0.950 . S
H875 C884 0.950 . S
H876 C886 0.973 . S
H877 C888 0.950 . S
H878 C890 0.950 . S
H879 C891 0.950 . S
C880 H872 0.950 . S
C880 C881 1.386 . S
C880 C882 1.391 . S
C881 C880 1.386 . S
C881 C885 1.393 . S
C882 H874 0.950 . S
C882 C880 1.391 . S
C882 C883 1.400 . S
C883 C882 1.400 . S
C883 C884 1.398 . S
C883 C889 1.491 . S
C884 H875 0.950 . S
C884 C883 1.398 . S
C884 C885 1.391 . S
C885 H873 0.950 . S
C885 C881 1.393 . S
C885 C884 1.391 . S
C886 H876 0.973 . S
C886 C887 1.386 . S
C886 C888 1.391 . S
C887 C886 1.386 . S
C887 C891 1.393 . S
C888 H877 0.950 . S
C888 C886 1.391 . S
C888 C889 1.400 . S
C889 C883 1.491 . S
C889 C888 1.400 . S
C889 C890 1.398 . S
C890 H878 0.950 . S
C890 C889 1.398 . S
C890 C891 1.391 . S
C891 H879 0.950 . S
C891 C887 1.393 . S
C891 C890 1.391 . S
H892 C900 0.950 . S
H893 C905 0.950 . S
H894 C902 0.950 . S
H895 C904 0.950 . S
H896 C906 0.950 . S
H897 C908 0.950 . S
H898 C910 0.950 . S
H899 C911 0.950 . S
C900 H892 0.950 . S
C900 C901 1.386 . S
C900 C902 1.391 . S
C901 C900 1.386 . S
C901 C905 1.393 . S
C902 H894 0.950 . S
C902 C900 1.391 . S
C902 C903 1.400 . S
C903 C902 1.400 . S
C903 C904 1.398 . S
C903 C909 1.491 . S
C904 H895 0.950 . S
C904 C903 1.398 . S
C904 C905 1.391 . S
C905 H893 0.950 . S
C905 C901 1.393 . S
C905 C904 1.391 . S
C906 H896 0.950 . S
C906 C907 1.386 . S
C906 C908 1.391 . S
C907 C906 1.386 . S
C907 C911 1.393 . S
C908 H897 0.950 . S
C908 C906 1.391 . S
C908 C909 1.400 . S
C909 C903 1.491 . S
C909 C908 1.400 . S
C909 C910 1.398 . S
C910 H898 0.950 . S
C910 C909 1.398 . S
C910 C911 1.391 . S
C911 H899 0.950 . S
C911 C907 1.393 . S
C911 C910 1.391 . S
H912 C920 0.950 . S
H913 C925 0.950 . S
H914 C922 0.950 . S
H915 C924 0.950 . S
H916 C926 0.950 1_565 S
H917 C928 0.950 1_565 S
H918 C930 0.950 . S
H919 C931 0.950 . S
C920 H912 0.950 . S
C920 C921 1.386 . S
C920 C922 1.391 . S
C921 C920 1.386 . S
C921 C925 1.393 1_545 S
C922 H914 0.950 . S
C922 C920 1.391 . S
C922 C923 1.400 . S
C923 C922 1.400 . S
C923 C924 1.398 1_545 S
C923 C929 1.491 . S
C924 H915 0.950 . S
C924 C923 1.398 1_565 S
C924 C925 1.391 . S
C925 H913 0.950 . S
C925 C921 1.393 1_565 S
C925 C924 1.391 . S
C926 H916 0.950 1_545 S
C926 C927 1.386 . S
C926 C928 1.391 . S
C927 C926 1.386 . S
C927 C931 1.393 . S
C928 H917 0.950 1_545 S
C928 C926 1.391 . S
C928 C929 1.400 . S
C929 C923 1.491 . S
C929 C928 1.400 . S
C929 C930 1.398 . S
C930 H918 0.950 . S
C930 C929 1.398 . S
C930 C931 1.391 . S
C931 H919 0.950 . S
C931 C927 1.393 . S
C931 C930 1.391 . S
H932 C940 0.950 . S
H933 C945 0.950 . S
H934 C942 0.950 . S
H935 C944 0.950 . S
H936 C946 0.950 . S
H937 C948 0.950 . S
H938 C950 0.950 . S
H939 C951 0.950 . S
C940 H932 0.950 . S
C940 C941 1.386 . S
C940 C942 1.391 . S
C941 C940 1.386 . S
C941 C945 1.393 . S
C942 H934 0.950 . S
C942 C940 1.391 . S
C942 C943 1.400 . S
C943 C942 1.400 . S
C943 C944 1.398 . S
C943 C949 1.491 . S
C944 H935 0.950 . S
C944 C943 1.398 . S
C944 C945 1.391 . S
C945 H933 0.950 . S
C945 C941 1.393 . S
C945 C944 1.391 . S
C946 H936 0.950 . S
C946 C947 1.386 . S
C946 C948 1.391 . S
C947 C946 1.386 . S
C947 C951 1.393 . S
C948 H937 0.950 . S
C948 C946 1.391 . S
C948 C949 1.400 . S
C949 C943 1.491 . S
C949 C948 1.400 . S
C949 C950 1.398 . S
C950 H938 0.950 . S
C950 C949 1.398 . S
C950 C951 1.391 . S
C951 H939 0.950 . S
C951 C947 1.393 . S
C951 C950 1.391 . S
H952 C960 0.950 . S
H953 C965 0.950 . S
H954 C962 0.950 . S
H955 C964 0.950 . S
H956 C966 0.950 . S
H957 C968 0.950 . S
H958 C970 0.950 1_545 S
H959 C971 0.950 . S
C960 H952 0.950 . S
C960 C961 1.386 . S
C960 C962 1.391 . S
C961 C960 1.386 . S
C961 C965 1.393 . S
C962 H954 0.950 . S
C962 C960 1.391 . S
C962 C963 1.400 . S
C963 C962 1.400 . S
C963 C964 1.398 . S
C963 C969 1.491 . S
C964 H955 0.950 . S
C964 C963 1.398 . S
C964 C965 1.391 . S
C965 H953 0.950 . S
C965 C961 1.393 . S
C965 C964 1.391 . S
C966 H956 0.950 . S
C966 C967 1.386 . S
C966 C968 1.391 . S
C967 C966 1.386 . S
C967 C971 1.393 1_565 S
C968 H957 0.950 . S
C968 C966 1.391 . S
C968 C969 1.400 . S
C969 C963 1.491 . S
C969 C968 1.400 . S
C969 C970 1.398 . S
C970 H958 0.950 1_565 S
C970 C969 1.398 . S
C970 C971 1.391 1_565 S
C971 H959 0.950 . S
C971 C967 1.393 1_545 S
C971 C970 1.391 1_545 S
H972 C980 0.950 . S
H973 C985 0.950 . S
H974 C982 0.950 . S
H975 C984 0.950 . S
H976 C986 0.950 . S
H977 C988 0.950 . S
H978 C990 0.950 . S
H979 C991 0.950 . S
C980 H972 0.950 . S
C980 C981 1.386 . S
C980 C982 1.391 . S
C981 C980 1.386 . S
C981 C985 1.393 1_556 S
C982 H974 0.950 . S
C982 C980 1.391 . S
C982 C983 1.400 1_556 S
C983 C982 1.400 1_554 S
C983 C984 1.398 . S
C983 C989 1.491 . S
C984 H975 0.950 . S
C984 C983 1.398 . S
C984 C985 1.391 . S
C985 H973 0.950 . S
C985 C981 1.393 1_554 S
C985 C984 1.391 . S
C986 H976 0.950 . S
C986 C987 1.386 . S
C986 C988 1.391 . S
C987 C986 1.386 . S
C987 C991 1.393 1_554 S
C988 H977 0.950 . S
C988 C986 1.391 . S
C988 C989 1.400 . S
C989 C983 1.491 . S
C989 C988 1.400 . S
C989 C990 1.398 1_554 S
C990 H978 0.950 . S
C990 C989 1.398 1_556 S
C990 C991 1.391 . S
C991 H979 0.950 . S
C991 C987 1.393 1_556 S
C991 C990 1.391 . S
H992 C1000 0.950 . S
H993 C1005 0.950 . S
H994 C1002 0.950 . S
H995 C1004 0.950 . S
H996 C1006 0.950 . S
H997 C1008 0.950 . S
H998 C1010 0.950 . S
H999 C1011 0.950 . S
C1000 H992 0.950 . S
C1000 C1001 1.386 . S
C1000 C1002 1.391 . S
C1001 C1000 1.386 . S
C1001 C1005 1.393 . S
C1002 H994 0.950 . S
C1002 C1000 1.391 . S
C1002 C1003 1.400 . S
C1003 C1002 1.400 . S
C1003 C1004 1.398 . S
C1003 C1009 1.491 . S
C1004 H995 0.950 . S
C1004 C1003 1.398 . S
C1004 C1005 1.391 . S
C1005 H993 0.950 . S
C1005 C1001 1.393 . S
C1005 C1004 1.391 . S
C1006 H996 0.950 . S
C1006 C1007 1.386 . S
C1006 C1008 1.391 . S
C1007 C1006 1.386 . S
C1007 C1011 1.393 . S
C1008 H997 0.950 . S
C1008 C1006 1.391 . S
C1008 C1009 1.400 . S
C1009 C1003 1.491 . S
C1009 C1008 1.400 . S
C1009 C1010 1.398 . S
C1010 H998 0.950 . S
C1010 C1009 1.398 . S
C1010 C1011 1.391 . S
C1011 H999 0.950 . S
C1011 C1007 1.393 . S
C1011 C1010 1.391 . S
H1012 C1020 0.950 . S
H1013 C1025 0.950 . S
H1014 C1022 0.950 . S
H1015 C1024 0.950 . S
H1016 C1026 0.950 . S
H1017 C1028 0.950 . S
H1018 C1030 0.950 . S
H1019 C1031 0.950 . S
C1020 H1012 0.950 . S
C1020 C1021 1.386 . S
C1020 C1022 1.391 . S
C1021 C1020 1.386 . S
C1021 C1025 1.393 . S
C1022 H1014 0.950 . S
C1022 C1020 1.391 . S
C1022 C1023 1.400 . S
C1023 C1022 1.400 . S
C1023 C1024 1.398 . S
C1023 C1029 1.491 . S
C1024 H1015 0.950 . S
C1024 C1023 1.398 . S
C1024 C1025 1.391 . S
C1025 H1013 0.950 . S
C1025 C1021 1.393 . S
C1025 C1024 1.391 . S
C1026 H1016 0.950 . S
C1026 C1027 1.386 . S
C1026 C1028 1.391 . S
C1027 C1026 1.386 . S
C1027 C1031 1.393 . S
C1028 H1017 0.950 . S
C1028 C1026 1.391 . S
C1028 C1029 1.400 . S
C1029 C1023 1.491 . S
C1029 C1028 1.400 . S
C1029 C1030 1.398 . S
C1030 H1018 0.950 . S
C1030 C1029 1.398 . S
C1030 C1031 1.391 . S
C1031 H1019 0.950 . S
C1031 C1027 1.393 . S
C1031 C1030 1.391 . S
H1032 C1040 0.950 . S
H1033 C1045 0.950 . S
H1034 C1042 0.950 . S
H1035 C1044 0.950 . S
H1036 C1046 0.950 . S
H1037 C1048 0.950 . S
H1038 C1050 0.950 . S
H1039 C1051 0.950 . S
C1040 H1032 0.950 . S
C1040 C1041 1.386 . S
C1040 C1042 1.391 . S
C1041 C1040 1.386 . S
C1041 C1045 1.393 . S
C1042 H1034 0.950 . S
C1042 C1040 1.391 . S
C1042 C1043 1.400 . S
C1043 C1042 1.400 . S
C1043 C1044 1.398 . S
C1043 C1049 1.491 . S
C1044 H1035 0.950 . S
C1044 C1043 1.398 . S
C1044 C1045 1.391 . S
C1045 H1033 0.950 . S
C1045 C1041 1.393 . S
C1045 C1044 1.391 . S
C1046 H1036 0.950 . S
C1046 C1047 1.386 . S
C1046 C1048 1.391 . S
C1047 C1046 1.386 . S
C1047 C1051 1.393 . S
C1048 H1037 0.950 . S
C1048 C1046 1.391 . S
C1048 C1049 1.400 . S
C1049 C1043 1.491 . S
C1049 C1048 1.400 . S
C1049 C1050 1.398 . S
C1050 H1038 0.950 . S
C1050 C1049 1.398 . S
C1050 C1051 1.391 . S
C1051 H1039 0.950 . S
C1051 C1047 1.393 . S
C1051 C1050 1.391 . S
H1052 C1060 0.950 . S
H1053 C1065 0.950 . S
H1054 C1062 0.950 . S
H1055 C1064 0.950 . S
H1056 C1066 0.950 . S
H1057 C1068 0.950 . S
H1058 C1070 0.950 . S
H1059 C1071 0.950 . S
C1060 H1052 0.950 . S
C1060 C1061 1.386 . S
C1060 C1062 1.391 . S
C1061 C1060 1.386 . S
C1061 C1065 1.393 . S
C1062 H1054 0.950 . S
C1062 C1060 1.391 . S
C1062 C1063 1.400 . S
C1063 C1062 1.400 . S
C1063 C1064 1.398 . S
C1063 C1069 1.491 . S
C1064 H1055 0.950 . S
C1064 C1063 1.398 . S
C1064 C1065 1.391 . S
C1065 H1053 0.950 . S
C1065 C1061 1.393 . S
C1065 C1064 1.391 . S
C1066 H1056 0.950 . S
C1066 C1067 1.386 . S
C1066 C1068 1.391 . S
C1067 C1066 1.386 . S
C1067 C1071 1.393 . S
C1068 H1057 0.950 . S
C1068 C1066 1.391 . S
C1068 C1069 1.400 . S
C1069 C1063 1.491 . S
C1069 C1068 1.400 . S
C1069 C1070 1.398 . S
C1070 H1058 0.950 . S
C1070 C1069 1.398 . S
C1070 C1071 1.391 . S
C1071 H1059 0.950 . S
C1071 C1067 1.393 . S
C1071 C1070 1.391 . S
H1072 C1080 0.950 . S
H1073 C1085 0.950 . S
H1074 C1082 0.950 . S
H1075 C1084 0.950 . S
H1076 C1086 0.950 . S
H1077 C1088 0.950 . S
H1078 C1090 0.950 . S
H1079 C1091 0.950 . S
C1080 H1072 0.950 . S
C1080 C1081 1.386 . S
C1080 C1082 1.391 . S
C1081 C1080 1.386 . S
C1081 C1085 1.393 . S
C1082 H1074 0.950 . S
C1082 C1080 1.391 . S
C1082 C1083 1.400 . S
C1083 C1082 1.400 . S
C1083 C1084 1.398 . S
C1083 C1089 1.491 . S
C1084 H1075 0.950 . S
C1084 C1083 1.398 . S
C1084 C1085 1.391 . S
C1085 H1073 0.950 . S
C1085 C1081 1.393 . S
C1085 C1084 1.391 . S
C1086 H1076 0.950 . S
C1086 C1087 1.386 . S
C1086 C1088 1.391 . S
C1087 C1086 1.386 . S
C1087 C1091 1.393 . S
C1088 H1077 0.950 . S
C1088 C1086 1.391 . S
C1088 C1089 1.400 . S
C1089 C1083 1.491 . S
C1089 C1088 1.400 . S
C1089 C1090 1.398 . S
C1090 H1078 0.950 . S
C1090 C1089 1.398 . S
C1090 C1091 1.391 . S
C1091 H1079 0.950 . S
C1091 C1087 1.393 . S
C1091 C1090 1.391 . S
H1092 C1100 0.950 . S
H1093 C1105 0.950 . S
H1094 C1102 0.950 . S
H1095 C1104 0.950 . S
H1096 C1106 0.950 . S
H1097 C1108 0.950 . S
H1098 C1110 0.950 . S
H1099 C1111 0.950 . S
C1100 H1092 0.950 . S
C1100 C1101 1.386 . S
C1100 C1102 1.391 . S
C1101 C1100 1.386 . S
C1101 C1105 1.393 . S
C1102 H1094 0.950 . S
C1102 C1100 1.391 . S
C1102 C1103 1.400 . S
C1103 C1102 1.400 . S
C1103 C1104 1.398 . S
C1103 C1109 1.491 . S
C1104 H1095 0.950 . S
C1104 C1103 1.398 . S
C1104 C1105 1.391 . S
C1105 H1093 0.950 . S
C1105 C1101 1.393 . S
C1105 C1104 1.391 . S
C1106 H1096 0.950 . S
C1106 C1107 1.386 . S
C1106 C1108 1.391 . S
C1107 C1106 1.386 . S
C1107 C1111 1.393 . S
C1108 H1097 0.950 . S
C1108 C1106 1.391 . S
C1108 C1109 1.400 . S
C1109 C1103 1.491 . S
C1109 C1108 1.400 . S
C1109 C1110 1.398 . S
C1110 H1098 0.950 . S
C1110 C1109 1.398 . S
C1110 C1111 1.391 . S
C1111 H1099 0.950 . S
C1111 C1107 1.393 . S
C1111 C1110 1.391 . S
H1112 C1120 0.950 . S
H1113 C1125 0.950 . S
H1114 C1122 0.950 . S
H1115 C1124 0.950 . S
H1116 C1126 0.950 . S
H1117 C1128 0.950 . S
H1118 C1130 0.950 . S
H1119 C1131 0.950 . S
C1120 H1112 0.950 . S
C1120 C1121 1.386 1_655 S
C1120 C1122 1.391 . S
C1121 C1120 1.386 1_455 S
C1121 C1125 1.393 . S
C1122 H1114 0.950 . S
C1122 C1120 1.391 . S
C1122 C1123 1.400 1_655 S
C1123 C1122 1.400 1_455 S
C1123 C1124 1.398 . S
C1123 C1129 1.491 . S
C1124 H1115 0.950 . S
C1124 C1123 1.398 . S
C1124 C1125 1.391 . S
C1125 H1113 0.950 . S
C1125 C1121 1.393 . S
C1125 C1124 1.391 . S
C1126 H1116 0.950 . S
C1126 C1127 1.386 . S
C1126 C1128 1.391 . S
C1127 C1126 1.386 . S
C1127 C1131 1.393 1_455 S
C1128 H1117 0.950 . S
C1128 C1126 1.391 . S
C1128 C1129 1.400 . S
C1129 C1123 1.491 . S
C1129 C1128 1.400 . S
C1129 C1130 1.398 1_455 S
C1130 H1118 0.950 . S
C1130 C1129 1.398 1_655 S
C1130 C1131 1.391 . S
C1131 H1119 0.950 . S
C1131 C1127 1.393 1_655 S
C1131 C1130 1.391 . S
H1132 C1140 0.950 . S
H1133 C1145 0.950 . S
H1134 C1142 0.950 . S
H1135 C1144 0.950 . S
H1136 C1146 0.950 . S
H1137 C1148 0.950 . S
H1138 C1150 0.950 . S
H1139 C1151 0.950 . S
C1140 H1132 0.950 . S
C1140 C1141 1.386 . S
C1140 C1142 1.391 . S
C1141 C1140 1.386 . S
C1141 C1145 1.393 . S
C1142 H1134 0.950 . S
C1142 C1140 1.391 . S
C1142 C1143 1.400 . S
C1143 C1142 1.400 . S
C1143 C1144 1.398 . S
C1143 C1149 1.491 . S
C1144 H1135 0.950 . S
C1144 C1143 1.398 . S
C1144 C1145 1.391 . S
C1145 H1133 0.950 . S
C1145 C1141 1.393 . S
C1145 C1144 1.391 . S
C1146 H1136 0.950 . S
C1146 C1147 1.386 . S
C1146 C1148 1.391 . S
C1147 C1146 1.386 . S
C1147 C1151 1.393 . S
C1148 H1137 0.950 . S
C1148 C1146 1.391 . S
C1148 C1149 1.400 . S
C1149 C1143 1.491 . S
C1149 C1148 1.400 . S
C1149 C1150 1.398 . S
C1150 H1138 0.950 . S
C1150 C1149 1.398 . S
C1150 C1151 1.391 . S
C1151 H1139 0.950 . S
C1151 C1147 1.393 . S
C1151 C1150 1.391 . S
H1152 C1160 0.950 . S
H1153 C1165 0.950 . S
H1154 C1162 0.950 . S
H1155 C1164 0.950 . S
H1156 C1166 0.950 . S
H1157 C1168 0.950 . S
H1158 C1170 0.950 . S
H1159 C1171 0.950 . S
C1160 H1152 0.950 . S
C1160 C1161 1.386 . S
C1160 C1162 1.391 . S
C1161 C1160 1.386 . S
C1161 C1165 1.393 . S
C1162 H1154 0.950 . S
C1162 C1160 1.391 . S
C1162 C1163 1.400 . S
C1163 C1162 1.400 . S
C1163 C1164 1.398 . S
C1163 C1169 1.491 . S
C1164 H1155 0.950 . S
C1164 C1163 1.398 . S
C1164 C1165 1.391 . S
C1165 H1153 0.950 . S
C1165 C1161 1.393 . S
C1165 C1164 1.391 . S
C1166 H1156 0.950 . S
C1166 C1167 1.386 . S
C1166 C1168 1.391 . S
C1167 C1166 1.386 . S
C1167 C1171 1.393 . S
C1168 H1157 0.950 . S
C1168 C1166 1.391 . S
C1168 C1169 1.400 . S
C1169 C1163 1.491 . S
C1169 C1168 1.400 . S
C1169 C1170 1.398 . S
C1170 H1158 0.950 . S
C1170 C1169 1.398 . S
C1170 C1171 1.391 . S
C1171 H1159 0.950 . S
C1171 C1167 1.393 . S
C1171 C1170 1.391 . S
H1172 C1180 0.950 . S
H1173 C1185 0.950 . S
H1174 C1182 0.950 . S
H1175 C1184 0.950 . S
H1176 C1186 0.950 . S
H1177 C1188 0.950 . S
H1178 C1190 0.950 . S
H1179 C1191 0.950 . S
C1180 H1172 0.950 . S
C1180 C1181 1.386 . S
C1180 C1182 1.391 . S
C1181 C1180 1.386 . S
C1181 C1185 1.393 . S
C1182 H1174 0.950 . S
C1182 C1180 1.391 . S
C1182 C1183 1.400 . S
C1183 C1182 1.400 . S
C1183 C1184 1.398 . S
C1183 C1189 1.491 . S
C1184 H1175 0.950 . S
C1184 C1183 1.398 . S
C1184 C1185 1.391 . S
C1185 H1173 0.950 . S
C1185 C1181 1.393 . S
C1185 C1184 1.391 . S
C1186 H1176 0.950 . S
C1186 C1187 1.386 . S
C1186 C1188 1.391 . S
C1187 C1186 1.386 . S
C1187 C1191 1.393 . S
C1188 H1177 0.950 . S
C1188 C1186 1.391 . S
C1188 C1189 1.400 . S
C1189 C1183 1.491 . S
C1189 C1188 1.400 . S
C1189 C1190 1.398 . S
C1190 H1178 0.950 . S
C1190 C1189 1.398 . S
C1190 C1191 1.391 . S
C1191 H1179 0.950 . S
C1191 C1187 1.393 . S
C1191 C1190 1.391 . S
H1192 C1200 0.950 . S
H1193 C1205 0.950 . S
H1194 C1202 0.950 . S
H1195 C1204 0.950 . S
H1196 C1206 0.950 . S
H1197 C1208 0.950 . S
H1198 C1210 0.950 . S
H1199 C1211 0.950 . S
C1200 H1192 0.950 . S
C1200 C1201 1.386 1_655 S
C1200 C1202 1.391 . S
C1201 C1200 1.386 1_455 S
C1201 C1205 1.393 . S
C1202 H1194 0.950 . S
C1202 C1200 1.391 . S
C1202 C1203 1.400 1_655 S
C1203 C1202 1.400 1_455 S
C1203 C1204 1.398 . S
C1203 C1209 1.491 . S
C1204 H1195 0.950 . S
C1204 C1203 1.398 . S
C1204 C1205 1.391 . S
C1205 H1193 0.950 . S
C1205 C1201 1.393 . S
C1205 C1204 1.391 . S
C1206 H1196 0.950 . S
C1206 C1207 1.386 . S
C1206 C1208 1.391 . S
C1207 C1206 1.386 . S
C1207 C1211 1.393 1_455 S
C1208 H1197 0.950 . S
C1208 C1206 1.391 . S
C1208 C1209 1.400 . S
C1209 C1203 1.491 . S
C1209 C1208 1.400 . S
C1209 C1210 1.398 1_455 S
C1210 H1198 0.950 . S
C1210 C1209 1.398 1_655 S
C1210 C1211 1.391 . S
C1211 H1199 0.950 . S
C1211 C1207 1.393 1_655 S
C1211 C1210 1.391 . S
H1212 C1220 0.950 . S
H1213 C1225 0.950 . S
H1214 C1222 0.950 . S
H1215 C1224 0.950 . S
H1216 C1226 0.950 . S
H1217 C1228 0.950 . S
H1218 C1230 0.950 . S
H1219 C1231 0.950 . S
C1220 H1212 0.950 . S
C1220 C1221 1.386 . S
C1220 C1222 1.391 . S
C1221 C1220 1.386 . S
C1221 C1225 1.393 . S
C1222 H1214 0.950 . S
C1222 C1220 1.391 . S
C1222 C1223 1.400 . S
C1223 C1222 1.400 . S
C1223 C1224 1.398 . S
C1223 C1229 1.491 . S
C1224 H1215 0.950 . S
C1224 C1223 1.398 . S
C1224 C1225 1.391 . S
C1225 H1213 0.950 . S
C1225 C1221 1.393 . S
C1225 C1224 1.391 . S
C1226 H1216 0.950 . S
C1226 C1227 1.386 . S
C1226 C1228 1.391 . S
C1227 C1226 1.386 . S
C1227 C1231 1.393 . S
C1228 H1217 0.950 . S
C1228 C1226 1.391 . S
C1228 C1229 1.400 . S
C1229 C1223 1.491 . S
C1229 C1228 1.400 . S
C1229 C1230 1.398 . S
C1230 H1218 0.950 . S
C1230 C1229 1.398 . S
C1230 C1231 1.391 . S
C1231 H1219 0.950 . S
C1231 C1227 1.393 . S
C1231 C1230 1.391 . S
H1232 C1240 0.950 . S
H1233 C1245 0.950 . S
H1234 C1242 0.950 . S
H1235 C1244 0.950 . S
H1236 C1246 0.950 . S
H1237 C1248 0.931 1_554 S
H1238 C1250 0.950 . S
H1239 C1251 0.950 . S
C1240 H1232 0.950 . S
C1240 C1241 1.386 . S
C1240 C1242 1.391 . S
C1241 C1240 1.386 . S
C1241 C1245 1.393 . S
C1242 H1234 0.950 . S
C1242 C1240 1.391 . S
C1242 C1243 1.400 . S
C1243 C1242 1.400 . S
C1243 C1244 1.398 . S
C1243 C1249 1.491 . S
C1244 H1235 0.950 . S
C1244 C1243 1.398 . S
C1244 C1245 1.391 . S
C1245 H1233 0.950 . S
C1245 C1241 1.393 . S
C1245 C1244 1.391 . S
C1246 H1236 0.950 . S
C1246 C1247 1.386 1_554 S
C1246 C1248 1.391 1_554 S
C1247 C1246 1.386 1_556 S
C1247 C1251 1.393 . S
C1248 H1237 0.931 1_556 S
C1248 C1246 1.391 1_556 S
C1248 C1249 1.400 . S
C1249 C1243 1.491 . S
C1249 C1248 1.400 . S
C1249 C1250 1.398 . S
C1250 H1238 0.950 . S
C1250 C1249 1.398 . S
C1250 C1251 1.391 . S
C1251 H1239 0.950 . S
C1251 C1247 1.393 . S
C1251 C1250 1.391 . S
H1252 C1260 0.950 . S
H1253 C1265 0.950 . S
H1254 C1262 0.950 . S
H1255 C1264 0.950 . S
H1256 C1266 0.950 . S
H1257 C1268 0.950 . S
H1258 C1270 0.950 . S
H1259 C1271 0.950 . S
C1260 H1252 0.950 . S
C1260 C1261 1.386 . S
C1260 C1262 1.391 . S
C1261 C1260 1.386 . S
C1261 C1265 1.393 . S
C1262 H1254 0.950 . S
C1262 C1260 1.391 . S
C1262 C1263 1.400 . S
C1263 C1262 1.400 . S
C1263 C1264 1.398 . S
C1263 C1269 1.491 . S
C1264 H1255 0.950 . S
C1264 C1263 1.398 . S
C1264 C1265 1.391 . S
C1265 H1253 0.950 . S
C1265 C1261 1.393 . S
C1265 C1264 1.391 . S
C1266 H1256 0.950 . S
C1266 C1267 1.386 . S
C1266 C1268 1.391 . S
C1267 C1266 1.386 . S
C1267 C1271 1.393 . S
C1268 H1257 0.950 . S
C1268 C1266 1.391 . S
C1268 C1269 1.400 . S
C1269 C1263 1.491 . S
C1269 C1268 1.400 . S
C1269 C1270 1.398 . S
C1270 H1258 0.950 . S
C1270 C1269 1.398 . S
C1270 C1271 1.391 . S
C1271 H1259 0.950 . S
C1271 C1267 1.393 . S
C1271 C1270 1.391 . S
H1272 C1280 0.950 . S
H1273 C1285 0.950 . S
H1274 C1282 0.950 . S
H1275 C1284 0.950 . S
H1276 C1286 0.929 1_655 S
H1277 C1288 0.950 . S
H1278 C1290 0.950 . S
H1279 C1291 0.950 . S
C1280 H1272 0.950 . S
C1280 C1281 1.386 1_545 S
C1280 C1282 1.391 . S
C1281 C1280 1.386 1_565 S
C1281 C1285 1.393 . S
C1282 H1274 0.950 . S
C1282 C1280 1.391 . S
C1282 C1283 1.400 . S
C1283 C1282 1.400 . S
C1283 C1284 1.398 1_545 S
C1283 C1289 1.491 . S
C1284 H1275 0.950 . S
C1284 C1283 1.398 1_565 S
C1284 C1285 1.391 . S
C1285 H1273 0.950 . S
C1285 C1281 1.393 . S
C1285 C1284 1.391 . S
C1286 H1276 0.929 1_455 S
C1286 C1287 1.386 1_565 S
C1286 C1288 1.391 . S
C1287 C1286 1.386 1_545 S
C1287 C1291 1.393 . S
C1288 H1277 0.950 . S
C1288 C1286 1.391 . S
C1288 C1289 1.400 1_565 S
C1289 C1283 1.491 . S
C1289 C1288 1.400 1_545 S
C1289 C1290 1.398 . S
C1290 H1278 0.950 . S
C1290 C1289 1.398 . S
C1290 C1291 1.391 . S
C1291 H1279 0.950 . S
C1291 C1287 1.393 . S
C1291 C1290 1.391 . S
H1292 C1300 0.950 . S
H1293 C1305 0.950 . S
H1294 C1302 0.950 . S
H1295 C1304 0.950 . S
H1296 C1306 0.950 . S
H1297 C1308 0.950 . S
H1298 C1310 0.950 . S
H1299 C1311 0.950 . S
C1300 H1292 0.950 . S
C1300 C1301 1.386 . S
C1300 C1302 1.391 . S
C1301 C1300 1.386 . S
C1301 C1305 1.393 . S
C1302 H1294 0.950 . S
C1302 C1300 1.391 . S
C1302 C1303 1.400 . S
C1303 C1302 1.400 . S
C1303 C1304 1.398 . S
C1303 C1309 1.491 . S
C1304 H1295 0.950 . S
C1304 C1303 1.398 . S
C1304 C1305 1.391 . S
C1305 H1293 0.950 . S
C1305 C1301 1.393 . S
C1305 C1304 1.391 . S
C1306 H1296 0.950 . S
C1306 C1307 1.386 . S
C1306 C1308 1.391 . S
C1307 C1306 1.386 . S
C1307 C1311 1.393 . S
C1308 H1297 0.950 . S
C1308 C1306 1.391 . S
C1308 C1309 1.400 . S
C1309 C1303 1.491 . S
C1309 C1308 1.400 . S
C1309 C1310 1.398 . S
C1310 H1298 0.950 . S
C1310 C1309 1.398 . S
C1310 C1311 1.391 . S
C1311 H1299 0.950 . S
C1311 C1307 1.393 . S
C1311 C1310 1.391 . S
H1312 C1320 0.950 . S
H1313 C1325 0.950 . S
H1314 C1322 0.950 . S
H1315 C1324 0.950 . S
H1316 C1326 0.950 . S
H1317 C1328 0.950 . S
H1318 C1330 0.950 . S
H1319 C1331 0.950 . S
C1320 H1312 0.950 . S
C1320 C1321 1.386 . S
C1320 C1322 1.391 . S
C1321 C1320 1.386 . S
C1321 C1325 1.393 . S
C1322 H1314 0.950 . S
C1322 C1320 1.391 . S
C1322 C1323 1.400 . S
C1323 C1322 1.400 . S
C1323 C1324 1.398 . S
C1323 C1329 1.491 . S
C1324 H1315 0.950 . S
C1324 C1323 1.398 . S
C1324 C1325 1.391 . S
C1325 H1313 0.950 . S
C1325 C1321 1.393 . S
C1325 C1324 1.391 . S
C1326 H1316 0.950 . S
C1326 C1327 1.386 . S
C1326 C1328 1.391 . S
C1327 C1326 1.386 . S
C1327 C1331 1.393 . S
C1328 H1317 0.950 . S
C1328 C1326 1.391 . S
C1328 C1329 1.400 . S
C1329 C1323 1.491 . S
C1329 C1328 1.400 . S
C1329 C1330 1.398 . S
C1330 H1318 0.950 . S
C1330 C1329 1.398 . S
C1330 C1331 1.391 . S
C1331 H1319 0.950 . S
C1331 C1327 1.393 . S
C1331 C1330 1.391 . S
H1332 C1340 0.950 . S
H1333 C1345 0.950 . S
H1334 C1342 0.950 . S
H1335 C1344 0.950 . S
H1336 C1346 0.950 . S
H1337 C1348 0.950 . S
H1338 C1350 0.950 . S
H1339 C1351 0.950 . S
C1340 H1332 0.950 . S
C1340 C1341 1.386 . S
C1340 C1342 1.391 . S
C1341 C1340 1.386 . S
C1341 C1345 1.393 . S
C1342 H1334 0.950 . S
C1342 C1340 1.391 . S
C1342 C1343 1.400 . S
C1343 C1342 1.400 . S
C1343 C1344 1.398 . S
C1343 C1349 1.491 . S
C1344 H1335 0.950 . S
C1344 C1343 1.398 . S
C1344 C1345 1.391 . S
C1345 H1333 0.950 . S
C1345 C1341 1.393 . S
C1345 C1344 1.391 . S
C1346 H1336 0.950 . S
C1346 C1347 1.386 . S
C1346 C1348 1.391 . S
C1347 C1346 1.386 . S
C1347 C1351 1.393 . S
C1348 H1337 0.950 . S
C1348 C1346 1.391 . S
C1348 C1349 1.400 . S
C1349 C1343 1.491 . S
C1349 C1348 1.400 . S
C1349 C1350 1.398 . S
C1350 H1338 0.950 . S
C1350 C1349 1.398 . S
C1350 C1351 1.391 . S
C1351 H1339 0.950 . S
C1351 C1347 1.393 . S
C1351 C1350 1.391 . S
H1352 C1360 0.950 . S
H1353 C1365 0.950 . S
H1354 C1362 0.950 . S
H1355 C1364 0.950 . S
H1356 C1366 0.950 . S
H1357 C1368 0.950 . S
H1358 C1370 0.950 . S
H1359 C1371 0.950 . S
C1360 H1352 0.950 . S
C1360 C1361 1.386 . S
C1360 C1362 1.391 . S
C1361 C1360 1.386 . S
C1361 C1365 1.393 1_565 S
C1362 H1354 0.950 . S
C1362 C1360 1.391 . S
C1362 C1363 1.400 1_565 S
C1363 C1362 1.400 1_545 S
C1363 C1364 1.398 . S
C1363 C1369 1.491 . S
C1364 H1355 0.950 . S
C1364 C1363 1.398 . S
C1364 C1365 1.391 . S
C1365 H1353 0.950 . S
C1365 C1361 1.393 1_545 S
C1365 C1364 1.391 . S
C1366 H1356 0.950 . S
C1366 C1367 1.386 . S
C1366 C1368 1.391 . S
C1367 C1366 1.386 . S
C1367 C1371 1.393 1_545 S
C1368 H1357 0.950 . S
C1368 C1366 1.391 . S
C1368 C1369 1.400 . S
C1369 C1363 1.491 . S
C1369 C1368 1.400 . S
C1369 C1370 1.398 1_545 S
C1370 H1358 0.950 . S
C1370 C1369 1.398 1_565 S
C1370 C1371 1.391 . S
C1371 H1359 0.950 . S
C1371 C1367 1.393 1_565 S
C1371 C1370 1.391 . S
H1372 C1380 0.950 . S
H1373 C1385 0.950 . S
H1374 C1382 0.950 . S
H1375 C1384 0.950 . S
H1376 C1386 0.950 . S
H1377 C1388 0.950 . S
H1378 C1390 0.950 . S
H1379 C1391 0.950 . S
C1380 H1372 0.950 . S
C1380 C1381 1.386 . S
C1380 C1382 1.391 . S
C1381 C1380 1.386 . S
C1381 C1385 1.393 . S
C1382 H1374 0.950 . S
C1382 C1380 1.391 . S
C1382 C1383 1.400 . S
C1383 C1382 1.400 . S
C1383 C1384 1.398 . S
C1383 C1389 1.491 . S
C1384 H1375 0.950 . S
C1384 C1383 1.398 . S
C1384 C1385 1.391 . S
C1385 H1373 0.950 . S
C1385 C1381 1.393 . S
C1385 C1384 1.391 . S
C1386 H1376 0.950 . S
C1386 C1387 1.386 . S
C1386 C1388 1.391 . S
C1387 C1386 1.386 . S
C1387 C1391 1.393 . S
C1388 H1377 0.950 . S
C1388 C1386 1.391 . S
C1388 C1389 1.400 . S
C1389 C1383 1.491 . S
C1389 C1388 1.400 . S
C1389 C1390 1.398 . S
C1390 H1378 0.950 . S
C1390 C1389 1.398 . S
C1390 C1391 1.391 . S
C1391 H1379 0.950 . S
C1391 C1387 1.393 . S
C1391 C1390 1.391 . S
H1392 C1400 0.950 . S
H1393 C1405 0.950 . S
H1394 C1402 0.950 . S
H1395 C1404 0.950 . S
H1396 C1406 0.950 1_565 S
H1397 C1408 0.950 . S
H1398 C1410 0.950 . S
H1399 C1411 0.950 . S
C1400 H1392 0.950 . S
C1400 C1401 1.386 . S
C1400 C1402 1.391 . S
C1401 C1400 1.386 . S
C1401 C1405 1.393 . S
C1402 H1394 0.950 . S
C1402 C1400 1.391 . S
C1402 C1403 1.400 . S
C1403 C1402 1.400 . S
C1403 C1404 1.398 . S
C1403 C1409 1.491 . S
C1404 H1395 0.950 . S
C1404 C1403 1.398 . S
C1404 C1405 1.391 . S
C1405 H1393 0.950 . S
C1405 C1401 1.393 . S
C1405 C1404 1.391 . S
C1406 H1396 0.950 1_545 S
C1406 C1407 1.386 . S
C1406 C1408 1.391 . S
C1407 C1406 1.386 . S
C1407 C1411 1.393 . S
C1408 H1397 0.950 . S
C1408 C1406 1.391 . S
C1408 C1409 1.400 . S
C1409 C1403 1.491 . S
C1409 C1408 1.400 . S
C1409 C1410 1.398 . S
C1410 H1398 0.950 . S
C1410 C1409 1.398 . S
C1410 C1411 1.391 . S
C1411 H1399 0.950 . S
C1411 C1407 1.393 . S
C1411 C1410 1.391 . S
H1412 C1420 0.950 . S
H1413 C1425 0.950 . S
H1414 C1422 0.950 . S
H1415 C1424 0.950 . S
H1416 C1426 0.950 . S
H1417 C1428 0.950 . S
H1418 C1430 0.950 . S
H1419 C1431 0.950 . S
C1420 H1412 0.950 . S
C1420 C1421 1.386 . S
C1420 C1422 1.391 . S
C1421 C1420 1.386 . S
C1421 C1425 1.393 . S
C1422 H1414 0.950 . S
C1422 C1420 1.391 . S
C1422 C1423 1.400 . S
C1423 C1422 1.400 . S
C1423 C1424 1.398 . S
C1423 C1429 1.491 . S
C1424 H1415 0.950 . S
C1424 C1423 1.398 . S
C1424 C1425 1.391 . S
C1425 H1413 0.950 . S
C1425 C1421 1.393 . S
C1425 C1424 1.391 . S
C1426 H1416 0.950 . S
C1426 C1427 1.386 . S
C1426 C1428 1.391 . S
C1427 C1426 1.386 . S
C1427 C1431 1.393 . S
C1428 H1417 0.950 . S
C1428 C1426 1.391 . S
C1428 C1429 1.400 . S
C1429 C1423 1.491 . S
C1429 C1428 1.400 . S
C1429 C1430 1.398 . S
C1430 H1418 0.950 . S
C1430 C1429 1.398 . S
C1430 C1431 1.391 . S
C1431 H1419 0.950 . S
C1431 C1427 1.393 . S
C1431 C1430 1.391 . S
H1432 C1440 0.950 . S
H1433 C1445 0.950 . S
H1434 C1442 0.950 . S
H1435 C1444 0.950 . S
H1436 C1446 0.950 . S
H1437 C1448 0.948 . S
H1438 C1450 0.950 . S
H1439 C1451 0.950 . S
C1440 H1432 0.950 . S
C1440 C1441 1.386 . S
C1440 C1442 1.391 . S
C1441 C1440 1.386 . S
C1441 C1445 1.393 . S
C1442 H1434 0.950 . S
C1442 C1440 1.391 . S
C1442 C1443 1.400 . S
C1443 C1442 1.400 . S
C1443 C1444 1.398 . S
C1443 C1449 1.491 . S
C1444 H1435 0.950 . S
C1444 C1443 1.398 . S
C1444 C1445 1.391 . S
C1445 H1433 0.950 . S
C1445 C1441 1.393 . S
C1445 C1444 1.391 . S
C1446 H1436 0.950 . S
C1446 C1447 1.386 . S
C1446 C1448 1.391 . S
C1447 C1446 1.386 . S
C1447 C1451 1.393 . S
C1448 H1437 0.948 . S
C1448 C1446 1.391 . S
C1448 C1449 1.400 . S
C1449 C1443 1.491 . S
C1449 C1448 1.400 . S
C1449 C1450 1.398 . S
C1450 H1438 0.950 . S
C1450 C1449 1.398 . S
C1450 C1451 1.391 . S
C1451 H1439 0.950 . S
C1451 C1447 1.393 . S
C1451 C1450 1.391 . S
H1452 C1460 0.950 . S
H1453 C1465 0.950 . S
H1454 C1462 0.950 . S
H1455 C1464 0.950 . S
H1456 C1466 0.950 . S
H1457 C1468 0.950 . S
H1458 C1470 0.950 . S
H1459 C1471 0.950 . S
C1460 H1452 0.950 . S
C1460 C1461 1.386 . S
C1460 C1462 1.391 . S
C1461 C1460 1.386 . S
C1461 C1465 1.393 . S
C1462 H1454 0.950 . S
C1462 C1460 1.391 . S
C1462 C1463 1.400 . S
C1463 C1462 1.400 . S
C1463 C1464 1.398 . S
C1463 C1469 1.491 . S
C1464 H1455 0.950 . S
C1464 C1463 1.398 . S
C1464 C1465 1.391 . S
C1465 H1453 0.950 . S
C1465 C1461 1.393 . S
C1465 C1464 1.391 . S
C1466 H1456 0.950 . S
C1466 C1467 1.386 . S
C1466 C1468 1.391 . S
C1467 C1466 1.386 . S
C1467 C1471 1.393 . S
C1468 H1457 0.950 . S
C1468 C1466 1.391 . S
C1468 C1469 1.400 . S
C1469 C1463 1.491 . S
C1469 C1468 1.400 . S
C1469 C1470 1.398 . S
C1470 H1458 0.950 . S
C1470 C1469 1.398 . S
C1470 C1471 1.391 . S
C1471 H1459 0.950 . S
C1471 C1467 1.393 . S
C1471 C1470 1.391 . S
H1472 C1480 0.950 . S
H1473 C1485 0.950 . S
H1474 C1482 0.950 . S
H1475 C1484 0.950 . S
H1476 C1486 0.950 . S
H1477 C1488 0.950 . S
H1478 C1490 0.950 . S
H1479 C1491 0.950 . S
C1480 H1472 0.950 . S
C1480 C1481 1.386 . S
C1480 C1482 1.391 . S
C1481 C1480 1.386 . S
C1481 C1485 1.393 . S
C1482 H1474 0.950 . S
C1482 C1480 1.391 . S
C1482 C1483 1.400 . S
C1483 C1482 1.400 . S
C1483 C1484 1.398 . S
C1483 C1489 1.491 . S
C1484 H1475 0.950 . S
C1484 C1483 1.398 . S
C1484 C1485 1.391 . S
C1485 H1473 0.950 . S
C1485 C1481 1.393 . S
C1485 C1484 1.391 . S
C1486 H1476 0.950 . S
C1486 C1487 1.386 . S
C1486 C1488 1.391 . S
C1487 C1486 1.386 . S
C1487 C1491 1.393 . S
C1488 H1477 0.950 . S
C1488 C1486 1.391 . S
C1488 C1489 1.400 . S
C1489 C1483 1.491 . S
C1489 C1488 1.400 . S
C1489 C1490 1.398 . S
C1490 H1478 0.950 . S
C1490 C1489 1.398 . S
C1490 C1491 1.391 . S
C1491 H1479 0.950 . S
C1491 C1487 1.393 . S
C1491 C1490 1.391 . S
H1492 C1500 0.950 . S
H1493 C1505 0.950 . S
H1494 C1502 0.950 . S
H1495 C1504 0.950 . S
H1496 C1506 0.950 . S
H1497 C1508 0.950 . S
H1498 C1510 0.950 . S
H1499 C1511 0.950 . S
C1500 H1492 0.950 . S
C1500 C1501 1.386 . S
C1500 C1502 1.391 . S
C1501 C1500 1.386 . S
C1501 C1505 1.393 . S
C1502 H1494 0.950 . S
C1502 C1500 1.391 . S
C1502 C1503 1.400 . S
C1503 C1502 1.400 . S
C1503 C1504 1.398 . S
C1503 C1509 1.491 . S
C1504 H1495 0.950 . S
C1504 C1503 1.398 . S
C1504 C1505 1.391 . S
C1505 H1493 0.950 . S
C1505 C1501 1.393 . S
C1505 C1504 1.391 . S
C1506 H1496 0.950 . S
C1506 C1507 1.386 . S
C1506 C1508 1.391 . S
C1507 C1506 1.386 . S
C1507 C1511 1.393 . S
C1508 H1497 0.950 . S
C1508 C1506 1.391 . S
C1508 C1509 1.400 . S
C1509 C1503 1.491 . S
C1509 C1508 1.400 . S
C1509 C1510 1.398 . S
C1510 H1498 0.950 . S
C1510 C1509 1.398 . S
C1510 C1511 1.391 . S
C1511 H1499 0.950 . S
C1511 C1507 1.393 . S
C1511 C1510 1.391 . S
H1512 C1520 0.950 . S
H1513 C1525 0.950 . S
H1514 C1522 0.950 . S
H1515 C1524 0.950 . S
H1516 C1526 0.950 . S
H1517 C1528 0.950 . S
H1518 C1530 0.950 . S
H1519 C1531 0.950 . S
C1520 H1512 0.950 . S
C1520 C1521 1.386 . S
C1520 C1522 1.391 . S
C1521 C1520 1.386 . S
C1521 C1525 1.393 . S
C1522 H1514 0.950 . S
C1522 C1520 1.391 . S
C1522 C1523 1.400 . S
C1523 C1522 1.400 . S
C1523 C1524 1.398 . S
C1523 C1529 1.491 . S
C1524 H1515 0.950 . S
C1524 C1523 1.398 . S
C1524 C1525 1.391 . S
C1525 H1513 0.950 . S
C1525 C1521 1.393 . S
C1525 C1524 1.391 . S
C1526 H1516 0.950 . S
C1526 C1527 1.386 . S
C1526 C1528 1.391 . S
C1527 C1526 1.386 . S
C1527 C1531 1.393 . S
C1528 H1517 0.950 . S
C1528 C1526 1.391 . S
C1528 C1529 1.400 . S
C1529 C1523 1.491 . S
C1529 C1528 1.400 . S
C1529 C1530 1.398 . S
C1530 H1518 0.950 . S
C1530 C1529 1.398 . S
C1530 C1531 1.391 . S
C1531 H1519 0.950 . S
C1531 C1527 1.393 . S
C1531 C1530 1.391 . S
H1532 C1540 0.950 . S
H1533 C1545 0.950 . S
H1534 C1542 0.950 . S
H1535 C1544 0.950 . S
H1536 C1546 0.950 . S
H1537 C1548 0.950 . S
H1538 C1550 0.950 . S
H1539 C1551 0.950 . S
C1540 H1532 0.950 . S
C1540 C1541 1.386 . S
C1540 C1542 1.391 . S
C1541 C1540 1.386 . S
C1541 C1545 1.393 . S
C1542 H1534 0.950 . S
C1542 C1540 1.391 . S
C1542 C1543 1.400 . S
C1543 C1542 1.400 . S
C1543 C1544 1.398 . S
C1543 C1549 1.491 . S
C1544 H1535 0.950 . S
C1544 C1543 1.398 . S
C1544 C1545 1.391 . S
C1545 H1533 0.950 . S
C1545 C1541 1.393 . S
C1545 C1544 1.391 . S
C1546 H1536 0.950 . S
C1546 C1547 1.386 . S
C1546 C1548 1.391 . S
C1547 C1546 1.386 . S
C1547 C1551 1.393 1_565 S
C1548 H1537 0.950 . S
C1548 C1546 1.391 . S
C1548 C1549 1.400 . S
C1549 C1543 1.491 . S
C1549 C1548 1.400 . S
C1549 C1550 1.398 . S
C1550 H1538 0.950 . S
C1550 C1549 1.398 . S
C1550 C1551 1.391 1_565 S
C1551 H1539 0.950 . S
C1551 C1547 1.393 1_545 S
C1551 C1550 1.391 1_545 S
H1552 C1560 0.950 . S
H1553 C1565 0.950 . S
H1554 C1562 0.950 . S
H1555 C1564 0.950 . S
H1556 C1566 0.950 . S
H1557 C1568 0.950 . S
H1558 C1570 0.950 . S
H1559 C1571 0.950 . S
C1560 H1552 0.950 . S
C1560 C1561 1.386 . S
C1560 C1562 1.391 . S
C1561 C1560 1.386 . S
C1561 C1565 1.393 . S
C1562 H1554 0.950 . S
C1562 C1560 1.391 . S
C1562 C1563 1.400 . S
C1563 C1562 1.400 . S
C1563 C1564 1.398 . S
C1563 C1569 1.491 . S
C1564 H1555 0.950 . S
C1564 C1563 1.398 . S
C1564 C1565 1.391 . S
C1565 H1553 0.950 . S
C1565 C1561 1.393 . S
C1565 C1564 1.391 . S
C1566 H1556 0.950 . S
C1566 C1567 1.386 . S
C1566 C1568 1.391 . S
C1567 C1566 1.386 . S
C1567 C1571 1.393 . S
C1568 H1557 0.950 . S
C1568 C1566 1.391 . S
C1568 C1569 1.400 . S
C1569 C1563 1.491 . S
C1569 C1568 1.400 . S
C1569 C1570 1.398 . S
C1570 H1558 0.950 . S
C1570 C1569 1.398 . S
C1570 C1571 1.391 . S
C1571 H1559 0.950 . S
C1571 C1567 1.393 . S
C1571 C1570 1.391 . S
H1572 C1580 0.950 . S
H1573 C1585 0.950 . S
H1574 C1582 0.950 . S
H1575 C1584 0.950 . S
H1576 C1586 0.950 . S
H1577 C1588 0.950 . S
H1578 C1590 0.950 . S
H1579 C1591 0.950 . S
C1580 H1572 0.950 . S
C1580 C1581 1.386 . S
C1580 C1582 1.391 . S
C1581 C1580 1.386 . S
C1581 C1585 1.393 . S
C1582 H1574 0.950 . S
C1582 C1580 1.391 . S
C1582 C1583 1.400 . S
C1583 C1582 1.400 . S
C1583 C1584 1.398 . S
C1583 C1589 1.491 . S
C1584 H1575 0.950 . S
C1584 C1583 1.398 . S
C1584 C1585 1.391 . S
C1585 H1573 0.950 . S
C1585 C1581 1.393 . S
C1585 C1584 1.391 . S
C1586 H1576 0.950 . S
C1586 C1587 1.386 . S
C1586 C1588 1.391 . S
C1587 C1586 1.386 . S
C1587 C1591 1.393 . S
C1588 H1577 0.950 . S
C1588 C1586 1.391 . S
C1588 C1589 1.400 . S
C1589 C1583 1.491 . S
C1589 C1588 1.400 . S
C1589 C1590 1.398 . S
C1590 H1578 0.950 . S
C1590 C1589 1.398 . S
C1590 C1591 1.391 . S
C1591 H1579 0.950 . S
C1591 C1587 1.393 . S
C1591 C1590 1.391 . S
H1592 C1600 0.950 . S
H1593 C1605 0.950 . S
H1594 C1602 0.950 . S
H1595 C1604 0.950 . S
H1596 C1606 0.950 . S
H1597 C1608 0.950 . S
H1598 C1610 0.950 . S
H1599 C1611 0.950 . S
C1600 H1592 0.950 . S
C1600 C1601 1.386 . S
C1600 C1602 1.391 . S
C1601 C1600 1.386 . S
C1601 C1605 1.393 . S
C1602 H1594 0.950 . S
C1602 C1600 1.391 . S
C1602 C1603 1.400 . S
C1603 C1602 1.400 . S
C1603 C1604 1.398 . S
C1603 C1609 1.491 . S
C1604 H1595 0.950 . S
C1604 C1603 1.398 . S
C1604 C1605 1.391 . S
C1605 H1593 0.950 . S
C1605 C1601 1.393 . S
C1605 C1604 1.391 . S
C1606 H1596 0.950 . S
C1606 C1607 1.386 . S
C1606 C1608 1.391 . S
C1607 C1606 1.386 . S
C1607 C1611 1.393 . S
C1608 H1597 0.950 . S
C1608 C1606 1.391 . S
C1608 C1609 1.400 . S
C1609 C1603 1.491 . S
C1609 C1608 1.400 . S
C1609 C1610 1.398 . S
C1610 H1598 0.950 . S
C1610 C1609 1.398 . S
C1610 C1611 1.391 . S
C1611 H1599 0.950 . S
C1611 C1607 1.393 . S
C1611 C1610 1.391 . S
H1612 C1620 0.950 . S
H1613 C1625 0.950 . S
H1614 C1622 0.950 . S
H1615 C1624 0.950 . S
H1616 C1626 0.950 . S
H1617 C1628 0.950 . S
H1618 C1630 0.950 . S
H1619 C1631 0.950 . S
C1620 H1612 0.950 . S
C1620 C1621 1.386 . S
C1620 C1622 1.391 . S
C1621 C1620 1.386 . S
C1621 C1625 1.393 . S
C1622 H1614 0.950 . S
C1622 C1620 1.391 . S
C1622 C1623 1.400 . S
C1623 C1622 1.400 . S
C1623 C1624 1.398 . S
C1623 C1629 1.491 . S
C1624 H1615 0.950 . S
C1624 C1623 1.398 . S
C1624 C1625 1.391 . S
C1625 H1613 0.950 . S
C1625 C1621 1.393 . S
C1625 C1624 1.391 . S
C1626 H1616 0.950 . S
C1626 C1627 1.386 . S
C1626 C1628 1.391 . S
C1627 C1626 1.386 . S
C1627 C1631 1.393 . S
C1628 H1617 0.950 . S
C1628 C1626 1.391 . S
C1628 C1629 1.400 . S
C1629 C1623 1.491 . S
C1629 C1628 1.400 . S
C1629 C1630 1.398 . S
C1630 H1618 0.950 . S
C1630 C1629 1.398 . S
C1630 C1631 1.391 . S
C1631 H1619 0.950 . S
C1631 C1627 1.393 . S
C1631 C1630 1.391 . S
H1632 C1640 0.950 . S
H1633 C1645 0.950 . S
H1634 C1642 0.950 . S
H1635 C1644 0.950 . S
H1636 C1646 0.950 . S
H1637 C1648 0.950 . S
H1638 C1650 0.950 . S
H1639 C1651 0.950 1_554 S
C1640 H1632 0.950 . S
C1640 C1641 1.386 . S
C1640 C1642 1.391 . S
C1641 C1640 1.386 . S
C1641 C1645 1.393 1_455 S
C1642 H1634 0.950 . S
C1642 C1640 1.391 . S
C1642 C1643 1.400 . S
C1643 C1642 1.400 . S
C1643 C1644 1.398 1_455 S
C1643 C1649 1.491 . S
C1644 H1635 0.950 . S
C1644 C1643 1.398 1_655 S
C1644 C1645 1.391 . S
C1645 H1633 0.950 . S
C1645 C1641 1.393 1_655 S
C1645 C1644 1.391 . S
C1646 H1636 0.950 . S
C1646 C1647 1.386 1_655 S
C1646 C1648 1.391 . S
C1647 C1646 1.386 1_455 S
C1647 C1651 1.393 . S
C1648 H1637 0.950 . S
C1648 C1646 1.391 . S
C1648 C1649 1.400 1_655 S
C1649 C1643 1.491 . S
C1649 C1648 1.400 1_455 S
C1649 C1650 1.398 . S
C1650 H1638 0.950 . S
C1650 C1649 1.398 . S
C1650 C1651 1.391 . S
C1651 H1639 0.950 1_556 S
C1651 C1647 1.393 . S
C1651 C1650 1.391 . S
H1652 C1660 0.950 . S
H1653 C1665 0.950 . S
H1654 C1662 0.950 . S
H1655 C1664 0.950 . S
H1656 C1666 0.950 . S
H1657 C1668 0.950 . S
H1658 C1670 0.950 . S
H1659 C1671 0.950 . S
C1660 H1652 0.950 . S
C1660 C1661 1.386 . S
C1660 C1662 1.391 . S
C1661 C1660 1.386 . S
C1661 C1665 1.393 . S
C1662 H1654 0.950 . S
C1662 C1660 1.391 . S
C1662 C1663 1.400 . S
C1663 C1662 1.400 . S
C1663 C1664 1.398 . S
C1663 C1669 1.491 . S
C1664 H1655 0.950 . S
C1664 C1663 1.398 . S
C1664 C1665 1.391 . S
C1665 H1653 0.950 . S
C1665 C1661 1.393 . S
C1665 C1664 1.391 . S
C1666 H1656 0.950 . S
C1666 C1667 1.386 . S
C1666 C1668 1.391 . S
C1667 C1666 1.386 . S
C1667 C1671 1.393 . S
C1668 H1657 0.950 . S
C1668 C1666 1.391 . S
C1668 C1669 1.400 . S
C1669 C1663 1.491 . S
C1669 C1668 1.400 . S
C1669 C1670 1.398 . S
C1670 H1658 0.950 . S
C1670 C1669 1.398 . S
C1670 C1671 1.391 . S
C1671 H1659 0.950 . S
C1671 C1667 1.393 . S
C1671 C1670 1.391 . S
H1672 C1680 0.950 . S
H1673 C1685 0.950 . S
H1674 C1682 0.950 . S
H1675 C1684 0.950 . S
H1676 C1686 0.950 . S
H1677 C1688 0.950 . S
H1678 C1690 0.950 . S
H1679 C1691 0.950 . S
C1680 H1672 0.950 . S
C1680 C1681 1.386 . S
C1680 C1682 1.391 . S
C1681 C1680 1.386 . S
C1681 C1685 1.393 . S
C1682 H1674 0.950 . S
C1682 C1680 1.391 . S
C1682 C1683 1.400 . S
C1683 C1682 1.400 . S
C1683 C1684 1.398 . S
C1683 C1689 1.491 . S
C1684 H1675 0.950 . S
C1684 C1683 1.398 . S
C1684 C1685 1.391 . S
C1685 H1673 0.950 . S
C1685 C1681 1.393 . S
C1685 C1684 1.391 . S
C1686 H1676 0.950 . S
C1686 C1687 1.386 . S
C1686 C1688 1.391 . S
C1687 C1686 1.386 . S
C1687 C1691 1.393 . S
C1688 H1677 0.950 . S
C1688 C1686 1.391 . S
C1688 C1689 1.400 . S
C1689 C1683 1.491 . S
C1689 C1688 1.400 . S
C1689 C1690 1.398 . S
C1690 H1678 0.950 . S
C1690 C1689 1.398 . S
C1690 C1691 1.391 . S
C1691 H1679 0.950 . S
C1691 C1687 1.393 . S
C1691 C1690 1.391 . S
H1692 C1700 0.950 . S
H1693 C1705 0.950 . S
H1694 C1702 0.950 . S
H1695 C1704 0.950 . S
H1696 C1706 0.950 . S
H1697 C1708 0.950 . S
H1698 C1710 0.950 . S
H1699 C1711 0.950 . S
C1700 H1692 0.950 . S
C1700 C1701 1.386 . S
C1700 C1702 1.391 . S
C1701 C1700 1.386 . S
C1701 C1705 1.393 . S
C1702 H1694 0.950 . S
C1702 C1700 1.391 . S
C1702 C1703 1.400 . S
C1703 C1702 1.400 . S
C1703 C1704 1.398 . S
C1703 C1709 1.491 . S
C1704 H1695 0.950 . S
C1704 C1703 1.398 . S
C1704 C1705 1.391 . S
C1705 H1693 0.950 . S
C1705 C1701 1.393 . S
C1705 C1704 1.391 . S
C1706 H1696 0.950 . S
C1706 C1707 1.386 . S
C1706 C1708 1.391 . S
C1707 C1706 1.386 . S
C1707 C1711 1.393 . S
C1708 H1697 0.950 . S
C1708 C1706 1.391 . S
C1708 C1709 1.400 . S
C1709 C1703 1.491 . S
C1709 C1708 1.400 . S
C1709 C1710 1.398 . S
C1710 H1698 0.950 . S
C1710 C1709 1.398 . S
C1710 C1711 1.391 . S
C1711 H1699 0.950 . S
C1711 C1707 1.393 . S
C1711 C1710 1.391 . S
H1712 C1720 0.950 . S
H1713 C1725 0.950 . S
H1714 C1722 0.950 . S
H1715 C1724 0.950 . S
H1716 C1726 0.950 . S
H1717 C1728 0.950 . S
H1718 C1730 0.950 . S
H1719 C1731 0.950 . S
C1720 H1712 0.950 . S
C1720 C1721 1.386 1_455 S
C1720 C1722 1.391 . S
C1721 C1720 1.386 1_655 S
C1721 C1725 1.393 . S
C1722 H1714 0.950 . S
C1722 C1720 1.391 . S
C1722 C1723 1.395 1_455 S
C1723 C1722 1.395 1_655 S
C1723 C1724 1.416 . S
C1723 C1729 1.486 . S
C1724 H1715 0.950 . S
C1724 C1723 1.416 . S
C1724 C1725 1.391 . S
C1725 H1713 0.950 . S
C1725 C1721 1.393 . S
C1725 C1724 1.391 . S
C1726 H1716 0.950 . S
C1726 C1727 1.386 1_655 S
C1726 C1728 1.391 . S
C1727 C1726 1.386 1_455 S
C1727 C1731 1.393 . S
C1728 H1717 0.950 . S
C1728 C1726 1.391 . S
C1728 C1729 1.404 . S
C1729 C1723 1.486 . S
C1729 C1728 1.404 . S
C1729 C1730 1.389 1_655 S
C1730 H1718 0.950 . S
C1730 C1729 1.389 1_455 S
C1730 C1731 1.391 . S
C1731 H1719 0.950 . S
C1731 C1727 1.393 . S
C1731 C1730 1.391 . S
H1732 C1740 0.950 . S
H1733 C1745 0.950 . S
H1734 C1742 0.950 . S
H1735 C1744 0.950 . S
H1736 C1746 0.950 . S
H1737 C1748 0.950 . S
H1738 C1750 0.950 . S
H1739 C1751 0.950 . S
C1740 H1732 0.950 . S
C1740 C1741 1.386 . S
C1740 C1742 1.391 . S
C1741 C1740 1.386 . S
C1741 C1745 1.393 . S
C1742 H1734 0.950 . S
C1742 C1740 1.391 . S
C1742 C1743 1.400 . S
C1743 C1742 1.400 . S
C1743 C1744 1.398 . S
C1743 C1749 1.491 . S
C1744 H1735 0.950 . S
C1744 C1743 1.398 . S
C1744 C1745 1.391 . S
C1745 H1733 0.950 . S
C1745 C1741 1.393 . S
C1745 C1744 1.391 . S
C1746 H1736 0.950 . S
C1746 C1747 1.386 . S
C1746 C1748 1.391 . S
C1747 C1746 1.386 . S
C1747 C1751 1.393 . S
C1748 H1737 0.950 . S
C1748 C1746 1.391 . S
C1748 C1749 1.400 . S
C1749 C1743 1.491 . S
C1749 C1748 1.400 . S
C1749 C1750 1.398 . S
C1750 H1738 0.950 . S
C1750 C1749 1.398 . S
C1750 C1751 1.391 . S
C1751 H1739 0.950 . S
C1751 C1747 1.393 . S
C1751 C1750 1.391 . S
H1752 C1760 0.950 . S
H1753 C1765 0.950 . S
H1754 C1762 0.950 . S
H1755 C1764 0.950 . S
H1756 C1766 0.950 . S
H1757 C1768 0.950 . S
H1758 C1770 0.950 . S
H1759 C1771 0.950 . S
C1760 H1752 0.950 . S
C1760 C1761 1.386 . S
C1760 C1762 1.391 . S
C1761 C1760 1.386 . S
C1761 C1765 1.393 . S
C1762 H1754 0.950 . S
C1762 C1760 1.391 . S
C1762 C1763 1.400 . S
C1763 C1762 1.400 . S
C1763 C1764 1.398 . S
C1763 C1769 1.491 . S
C1764 H1755 0.950 . S
C1764 C1763 1.398 . S
C1764 C1765 1.391 . S
C1765 H1753 0.950 . S
C1765 C1761 1.393 . S
C1765 C1764 1.391 . S
C1766 H1756 0.950 . S
C1766 C1767 1.386 . S
C1766 C1768 1.391 . S
C1767 C1766 1.386 . S
C1767 C1771 1.393 . S
C1768 H1757 0.950 . S
C1768 C1766 1.391 . S
C1768 C1769 1.400 . S
C1769 C1763 1.491 . S
C1769 C1768 1.400 . S
C1769 C1770 1.398 . S
C1770 H1758 0.950 . S
C1770 C1769 1.398 . S
C1770 C1771 1.391 . S
C1771 H1759 0.950 . S
C1771 C1767 1.393 . S
C1771 C1770 1.391 . S
H1772 C1780 0.950 . S
H1773 C1785 0.950 . S
H1774 C1782 0.950 . S
H1775 C1784 0.950 . S
H1776 C1786 0.950 . S
H1777 C1788 0.950 . S
H1778 C1790 0.950 . S
H1779 C1791 0.950 . S
C1780 H1772 0.950 . S
C1780 C1781 1.386 . S
C1780 C1782 1.391 . S
C1781 C1780 1.386 . S
C1781 C1785 1.393 . S
C1782 H1774 0.950 . S
C1782 C1780 1.391 . S
C1782 C1783 1.400 . S
C1783 C1782 1.400 . S
C1783 C1784 1.398 . S
C1783 C1789 1.491 . S
C1784 H1775 0.950 . S
C1784 C1783 1.398 . S
C1784 C1785 1.391 . S
C1785 H1773 0.950 . S
C1785 C1781 1.393 . S
C1785 C1784 1.391 . S
C1786 H1776 0.950 . S
C1786 C1787 1.386 . S
C1786 C1788 1.391 . S
C1787 C1786 1.386 . S
C1787 C1791 1.393 . S
C1788 H1777 0.950 . S
C1788 C1786 1.391 . S
C1788 C1789 1.400 . S
C1789 C1783 1.491 . S
C1789 C1788 1.400 . S
C1789 C1790 1.398 . S
C1790 H1778 0.950 . S
C1790 C1789 1.398 . S
C1790 C1791 1.391 . S
C1791 H1779 0.950 . S
C1791 C1787 1.393 . S
C1791 C1790 1.391 . S
H1792 C1800 0.950 . S
H1793 C1805 0.950 . S
H1794 C1802 0.950 . S
H1795 C1804 0.950 . S
H1796 C1806 0.950 . S
H1797 C1808 0.950 . S
H1798 C1810 0.950 . S
H1799 C1811 0.950 . S
C1800 H1792 0.950 . S
C1800 C1801 1.386 . S
C1800 C1802 1.391 . S
C1801 C1800 1.386 . S
C1801 C1805 1.393 . S
C1802 H1794 0.950 . S
C1802 C1800 1.391 . S
C1802 C1803 1.400 . S
C1803 C1802 1.400 . S
C1803 C1804 1.398 . S
C1803 C1809 1.491 . S
C1804 H1795 0.950 . S
C1804 C1803 1.398 . S
C1804 C1805 1.391 . S
C1805 H1793 0.950 . S
C1805 C1801 1.393 . S
C1805 C1804 1.391 . S
C1806 H1796 0.950 . S
C1806 C1807 1.386 . S
C1806 C1808 1.391 . S
C1807 C1806 1.386 . S
C1807 C1811 1.393 . S
C1808 H1797 0.950 . S
C1808 C1806 1.391 . S
C1808 C1809 1.400 . S
C1809 C1803 1.491 . S
C1809 C1808 1.400 . S
C1809 C1810 1.398 . S
C1810 H1798 0.950 . S
C1810 C1809 1.398 . S
C1810 C1811 1.391 . S
C1811 H1799 0.950 . S
C1811 C1807 1.393 . S
C1811 C1810 1.391 . S
H1812 C1820 0.950 . S
H1813 C1825 0.950 . S
H1814 C1822 0.950 . S
H1815 C1824 0.950 . S
H1816 C1826 0.950 . S
H1817 C1828 0.950 . S
H1818 C1830 0.950 . S
H1819 C1831 0.950 . S
C1820 H1812 0.950 . S
C1820 C1821 1.386 . S
C1820 C1822 1.391 . S
C1821 C1820 1.386 . S
C1821 C1825 1.393 . S
C1822 H1814 0.950 . S
C1822 C1820 1.391 . S
C1822 C1823 1.400 . S
C1823 C1822 1.400 . S
C1823 C1824 1.398 . S
C1823 C1829 1.491 . S
C1824 H1815 0.950 . S
C1824 C1823 1.398 . S
C1824 C1825 1.391 . S
C1825 H1813 0.950 . S
C1825 C1821 1.393 . S
C1825 C1824 1.391 . S
C1826 H1816 0.950 . S
C1826 C1827 1.386 . S
C1826 C1828 1.391 . S
C1827 C1826 1.386 . S
C1827 C1831 1.393 . S
C1828 H1817 0.950 . S
C1828 C1826 1.391 . S
C1828 C1829 1.400 . S
C1829 C1823 1.491 . S
C1829 C1828 1.400 . S
C1829 C1830 1.398 . S
C1830 H1818 0.950 . S
C1830 C1829 1.398 . S
C1830 C1831 1.391 . S
C1831 H1819 0.950 . S
C1831 C1827 1.393 . S
C1831 C1830 1.391 . S
H1832 C1840 0.950 . S
H1833 C1845 0.950 . S
H1834 C1842 0.950 . S
H1835 C1844 0.950 . S
H1836 C1846 0.950 . S
H1837 C1848 0.950 . S
H1838 C1850 0.950 . S
H1839 C1851 0.950 . S
C1840 H1832 0.950 . S
C1840 C1841 1.386 . S
C1840 C1842 1.391 . S
C1841 C1840 1.386 . S
C1841 C1845 1.393 . S
C1842 H1834 0.950 . S
C1842 C1840 1.391 . S
C1842 C1843 1.400 . S
C1843 C1842 1.400 . S
C1843 C1844 1.398 . S
C1843 C1849 1.491 . S
C1844 H1835 0.950 . S
C1844 C1843 1.398 . S
C1844 C1845 1.391 . S
C1845 H1833 0.950 . S
C1845 C1841 1.393 . S
C1845 C1844 1.391 . S
C1846 H1836 0.950 . S
C1846 C1847 1.386 . S
C1846 C1848 1.391 . S
C1847 C1846 1.386 . S
C1847 C1851 1.393 . S
C1848 H1837 0.950 . S
C1848 C1846 1.391 . S
C1848 C1849 1.400 . S
C1849 C1843 1.491 . S
C1849 C1848 1.400 . S
C1849 C1850 1.398 . S
C1850 H1838 0.950 . S
C1850 C1849 1.398 . S
C1850 C1851 1.391 . S
C1851 H1839 0.950 . S
C1851 C1847 1.393 . S
C1851 C1850 1.391 . S
H1852 C1860 0.950 . S
H1853 C1865 0.950 . S
H1854 C1862 0.950 . S
H1855 C1864 0.950 . S
H1856 C1866 0.950 . S
H1857 C1868 0.950 . S
H1858 C1870 0.950 . S
H1859 C1871 0.950 . S
C1860 H1852 0.950 . S
C1860 C1861 1.386 . S
C1860 C1862 1.391 . S
C1861 C1860 1.386 . S
C1861 C1865 1.393 . S
C1862 H1854 0.950 . S
C1862 C1860 1.391 . S
C1862 C1863 1.400 . S
C1863 C1862 1.400 . S
C1863 C1864 1.398 . S
C1863 C1869 1.491 . S
C1864 H1855 0.950 . S
C1864 C1863 1.398 . S
C1864 C1865 1.391 . S
C1865 H1853 0.950 . S
C1865 C1861 1.393 . S
C1865 C1864 1.391 . S
C1866 H1856 0.950 . S
C1866 C1867 1.386 . S
C1866 C1868 1.391 . S
C1867 C1866 1.386 . S
C1867 C1871 1.393 . S
C1868 H1857 0.950 . S
C1868 C1866 1.391 . S
C1868 C1869 1.400 . S
C1869 C1863 1.491 . S
C1869 C1868 1.400 . S
C1869 C1870 1.398 . S
C1870 H1858 0.950 . S
C1870 C1869 1.398 . S
C1870 C1871 1.391 . S
C1871 H1859 0.950 . S
C1871 C1867 1.393 . S
C1871 C1870 1.391 . S
H1872 C1880 0.950 . S
H1873 C1885 0.950 . S
H1874 C1882 0.950 . S
H1875 C1884 0.950 . S
H1876 C1886 0.950 . S
H1877 C1888 0.950 . S
H1878 C1890 0.950 . S
H1879 C1891 0.950 . S
C1880 H1872 0.950 . S
C1880 C1881 1.386 . S
C1880 C1882 1.391 . S
C1881 C1880 1.386 . S
C1881 C1885 1.393 . S
C1882 H1874 0.950 . S
C1882 C1880 1.391 . S
C1882 C1883 1.400 . S
C1883 C1882 1.400 . S
C1883 C1884 1.398 . S
C1883 C1889 1.491 . S
C1884 H1875 0.950 . S
C1884 C1883 1.398 . S
C1884 C1885 1.391 . S
C1885 H1873 0.950 . S
C1885 C1881 1.393 . S
C1885 C1884 1.391 . S
C1886 H1876 0.950 . S
C1886 C1887 1.386 . S
C1886 C1888 1.391 . S
C1887 C1886 1.386 . S
C1887 C1891 1.393 . S
C1888 H1877 0.950 . S
C1888 C1886 1.391 . S
C1888 C1889 1.400 . S
C1889 C1883 1.491 . S
C1889 C1888 1.400 . S
C1889 C1890 1.398 . S
C1890 H1878 0.950 . S
C1890 C1889 1.398 . S
C1890 C1891 1.391 . S
C1891 H1879 0.950 . S
C1891 C1887 1.393 . S
C1891 C1890 1.391 . S
H1892 C1900 0.950 . S
H1893 C1905 0.950 . S
H1894 C1902 0.950 . S
H1895 C1904 0.950 . S
H1896 C1906 0.950 . S
H1897 C1908 0.950 . S
H1898 C1910 0.950 . S
H1899 C1911 0.950 . S
C1900 H1892 0.950 . S
C1900 C1901 1.386 . S
C1900 C1902 1.391 . S
C1901 C1900 1.386 . S
C1901 C1905 1.393 . S
C1902 H1894 0.950 . S
C1902 C1900 1.391 . S
C1902 C1903 1.400 . S
C1903 C1902 1.400 . S
C1903 C1904 1.398 . S
C1903 C1909 1.491 . S
C1904 H1895 0.950 . S
C1904 C1903 1.398 . S
C1904 C1905 1.391 . S
C1905 H1893 0.950 . S
C1905 C1901 1.393 . S
C1905 C1904 1.391 . S
C1906 H1896 0.950 . S
C1906 C1907 1.386 . S
C1906 C1908 1.391 . S
C1907 C1906 1.386 . S
C1907 C1911 1.393 . S
C1908 H1897 0.950 . S
C1908 C1906 1.391 . S
C1908 C1909 1.400 . S
C1909 C1903 1.491 . S
C1909 C1908 1.400 . S
C1909 C1910 1.398 . S
C1910 H1898 0.950 . S
C1910 C1909 1.398 . S
C1910 C1911 1.391 . S
C1911 H1899 0.950 . S
C1911 C1907 1.393 . S
C1911 C1910 1.391 . S
H1912 C1920 0.950 . S
H1913 C1925 0.950 . S
H1914 C1922 0.950 . S
H1915 C1924 0.950 . S
H1916 C1926 0.950 . S
H1917 C1928 0.950 . S
H1918 C1930 0.950 . S
H1919 C1931 0.950 . S
C1920 H1912 0.950 . S
C1920 C1921 1.386 . S
C1920 C1922 1.391 . S
C1921 C1920 1.386 . S
C1921 C1925 1.393 . S
C1922 H1914 0.950 . S
C1922 C1920 1.391 . S
C1922 C1923 1.400 . S
C1923 C1922 1.400 . S
C1923 C1924 1.398 . S
C1923 C1929 1.491 . S
C1924 H1915 0.950 . S
C1924 C1923 1.398 . S
C1924 C1925 1.391 . S
C1925 H1913 0.950 . S
C1925 C1921 1.393 . S
C1925 C1924 1.391 . S
C1926 H1916 0.950 . S
C1926 C1927 1.386 . S
C1926 C1928 1.391 . S
C1927 C1926 1.386 . S
C1927 C1931 1.393 . S
C1928 H1917 0.950 . S
C1928 C1926 1.391 . S
C1928 C1929 1.400 . S
C1929 C1923 1.491 . S
C1929 C1928 1.400 . S
C1929 C1930 1.398 . S
C1930 H1918 0.950 . S
C1930 C1929 1.398 . S
C1930 C1931 1.391 . S
C1931 H1919 0.950 . S
C1931 C1927 1.393 . S
C1931 C1930 1.391 . S
H1932 C1940 0.950 . S
H1933 C1945 0.950 . S
H1934 C1942 0.950 . S
H1935 C1944 0.950 . S
H1936 C1946 0.950 . S
H1937 C1948 0.950 . S
H1938 C1950 0.950 . S
H1939 C1951 0.950 . S
C1940 H1932 0.950 . S
C1940 C1941 1.386 . S
C1940 C1942 1.391 . S
C1941 C1940 1.386 . S
C1941 C1945 1.393 . S
C1942 H1934 0.950 . S
C1942 C1940 1.391 . S
C1942 C1943 1.400 . S
C1943 C1942 1.400 . S
C1943 C1944 1.398 . S
C1943 C1949 1.491 . S
C1944 H1935 0.950 . S
C1944 C1943 1.398 . S
C1944 C1945 1.391 . S
C1945 H1933 0.950 . S
C1945 C1941 1.393 . S
C1945 C1944 1.391 . S
C1946 H1936 0.950 . S
C1946 C1947 1.386 . S
C1946 C1948 1.391 . S
C1947 C1946 1.386 . S
C1947 C1951 1.393 . S
C1948 H1937 0.950 . S
C1948 C1946 1.391 . S
C1948 C1949 1.400 . S
C1949 C1943 1.491 . S
C1949 C1948 1.400 . S
C1949 C1950 1.398 . S
C1950 H1938 0.950 . S
C1950 C1949 1.398 . S
C1950 C1951 1.391 . S
C1951 H1939 0.950 . S
C1951 C1947 1.393 . S
C1951 C1950 1.391 . S
H1952 C1960 0.950 . S
H1953 C1965 0.950 . S
H1954 C1962 0.950 . S
H1955 C1964 0.950 . S
H1956 C1966 0.950 . S
H1957 C1968 0.950 . S
H1958 C1970 0.950 . S
H1959 C1971 0.950 . S
C1960 H1952 0.950 . S
C1960 C1961 1.386 . S
C1960 C1962 1.391 . S
C1961 C1960 1.386 . S
C1961 C1965 1.393 . S
C1962 H1954 0.950 . S
C1962 C1960 1.391 . S
C1962 C1963 1.400 . S
C1963 C1962 1.400 . S
C1963 C1964 1.398 . S
C1963 C1969 1.491 . S
C1964 H1955 0.950 . S
C1964 C1963 1.398 . S
C1964 C1965 1.391 . S
C1965 H1953 0.950 . S
C1965 C1961 1.393 . S
C1965 C1964 1.391 . S
C1966 H1956 0.950 . S
C1966 C1967 1.386 . S
C1966 C1968 1.391 . S
C1967 C1966 1.386 . S
C1967 C1971 1.393 . S
C1968 H1957 0.950 . S
C1968 C1966 1.391 . S
C1968 C1969 1.400 . S
C1969 C1963 1.491 . S
C1969 C1968 1.400 . S
C1969 C1970 1.398 . S
C1970 H1958 0.950 . S
C1970 C1969 1.398 . S
C1970 C1971 1.391 . S
C1971 H1959 0.950 . S
C1971 C1967 1.393 . S
C1971 C1970 1.391 . S
H1972 C1980 0.950 . S
H1973 C1985 0.950 . S
H1974 C1982 0.950 . S
H1975 C1984 0.950 . S
H1976 C1986 0.950 . S
H1977 C1988 0.950 . S
H1978 C1990 0.950 . S
H1979 C1991 0.950 . S
C1980 H1972 0.950 . S
C1980 C1981 1.386 . S
C1980 C1982 1.391 . S
C1981 C1980 1.386 . S
C1981 C1985 1.393 . S
C1982 H1974 0.950 . S
C1982 C1980 1.391 . S
C1982 C1983 1.400 . S
C1983 C1982 1.400 . S
C1983 C1984 1.398 . S
C1983 C1989 1.491 . S
C1984 H1975 0.950 . S
C1984 C1983 1.398 . S
C1984 C1985 1.391 . S
C1985 H1973 0.950 . S
C1985 C1981 1.393 . S
C1985 C1984 1.391 . S
C1986 H1976 0.950 . S
C1986 C1987 1.384 1_545 S
C1986 C1988 1.391 . S
C1987 C1986 1.384 1_565 S
C1987 C1991 1.395 . S
C1988 H1977 0.950 . S
C1988 C1986 1.391 . S
C1988 C1989 1.400 1_545 S
C1989 C1983 1.491 . S
C1989 C1988 1.400 1_565 S
C1989 C1990 1.398 . S
C1990 H1978 0.950 . S
C1990 C1989 1.398 . S
C1990 C1991 1.391 . S
C1991 H1979 0.950 . S
C1991 C1987 1.395 . S
C1991 C1990 1.391 . S
H1992 C2000 0.950 . S
H1993 C2005 0.950 . S
H1994 C2002 0.950 . S
H1995 C2004 0.950 . S
H1996 C2006 0.950 . S
H1997 C2008 0.950 . S
H1998 C2010 0.950 . S
H1999 C2011 0.950 . S
C2000 H1992 0.950 . S
C2000 C2001 1.386 . S
C2000 C2002 1.391 . S
C2001 C2000 1.386 . S
C2001 C2005 1.393 . S
C2002 H1994 0.950 . S
C2002 C2000 1.391 . S
C2002 C2003 1.400 . S
C2003 C2002 1.400 . S
C2003 C2004 1.398 . S
C2003 C2009 1.491 . S
C2004 H1995 0.950 . S
C2004 C2003 1.398 . S
C2004 C2005 1.391 . S
C2005 H1993 0.950 . S
C2005 C2001 1.393 . S
C2005 C2004 1.391 . S
C2006 H1996 0.950 . S
C2006 C2007 1.386 . S
C2006 C2008 1.391 . S
C2007 C2006 1.386 . S
C2007 C2011 1.393 . S
C2008 H1997 0.950 . S
C2008 C2006 1.391 . S
C2008 C2009 1.400 . S
C2009 C2003 1.491 . S
C2009 C2008 1.400 . S
C2009 C2010 1.398 . S
C2010 H1998 0.950 . S
C2010 C2009 1.398 . S
C2010 C2011 1.391 . S
C2011 H1999 0.950 . S
C2011 C2007 1.393 . S
C2011 C2010 1.391 . S
H2012 C2020 0.950 . S
H2013 C2025 0.950 . S
H2014 C2022 0.950 . S
H2015 C2024 0.950 . S
H2016 C2026 0.950 . S
H2017 C2028 0.950 . S
H2018 C2030 0.950 1_556 S
H2019 C2031 0.950 1_556 S
C2020 H2012 0.950 . S
C2020 C2021 1.386 1_556 S
C2020 C2022 1.391 . S
C2021 C2020 1.386 1_554 S
C2021 C2025 1.393 . S
C2022 H2014 0.950 . S
C2022 C2020 1.391 . S
C2022 C2023 1.400 1_556 S
C2023 C2022 1.400 1_554 S
C2023 C2024 1.398 . S
C2023 C2029 1.491 . S
C2024 H2015 0.950 . S
C2024 C2023 1.398 . S
C2024 C2025 1.391 . S
C2025 H2013 0.950 . S
C2025 C2021 1.393 . S
C2025 C2024 1.391 . S
C2026 H2016 0.950 . S
C2026 C2027 1.386 . S
C2026 C2028 1.391 . S
C2027 C2026 1.386 . S
C2027 C2031 1.393 . S
C2028 H2017 0.950 . S
C2028 C2026 1.391 . S
C2028 C2029 1.400 . S
C2029 C2023 1.491 . S
C2029 C2028 1.400 . S
C2029 C2030 1.398 . S
C2030 H2018 0.950 1_554 S
C2030 C2029 1.398 . S
C2030 C2031 1.391 . S
C2031 H2019 0.950 1_554 S
C2031 C2027 1.393 . S
C2031 C2030 1.391 . S
H2032 C2040 0.950 . S
H2033 C2045 0.950 . S
H2034 C2042 0.950 . S
H2035 C2044 0.950 . S
H2036 C2046 0.950 . S
H2037 C2048 0.950 . S
H2038 C2050 0.950 . S
H2039 C2051 0.950 . S
C2040 H2032 0.950 . S
C2040 C2041 1.386 . S
C2040 C2042 1.391 . S
C2041 C2040 1.386 . S
C2041 C2045 1.393 . S
C2042 H2034 0.950 . S
C2042 C2040 1.391 . S
C2042 C2043 1.400 . S
C2043 C2042 1.400 . S
C2043 C2044 1.398 . S
C2043 C2049 1.491 . S
C2044 H2035 0.950 . S
C2044 C2043 1.398 . S
C2044 C2045 1.391 . S
C2045 H2033 0.950 . S
C2045 C2041 1.393 . S
C2045 C2044 1.391 . S
C2046 H2036 0.950 . S
C2046 C2047 1.386 . S
C2046 C2048 1.391 . S
C2047 C2046 1.386 . S
C2047 C2051 1.393 . S
C2048 H2037 0.950 . S
C2048 C2046 1.391 . S
C2048 C2049 1.400 . S
C2049 C2043 1.491 . S
C2049 C2048 1.400 . S
C2049 C2050 1.398 . S
C2050 H2038 0.950 . S
C2050 C2049 1.398 . S
C2050 C2051 1.391 . S
C2051 H2039 0.950 . S
C2051 C2047 1.393 . S
C2051 C2050 1.391 . S
H2052 C2060 0.950 . S
H2053 C2065 0.950 . S
H2054 C2062 0.950 . S
H2055 C2064 0.950 . S
H2056 C2066 0.950 . S
H2057 C2068 0.950 . S
H2058 C2070 0.950 . S
H2059 C2071 0.950 . S
C2060 H2052 0.950 . S
C2060 C2061 1.386 . S
C2060 C2062 1.391 . S
C2061 C2060 1.386 . S
C2061 C2065 1.393 . S
C2062 H2054 0.950 . S
C2062 C2060 1.391 . S
C2062 C2063 1.400 . S
C2063 C2062 1.400 . S
C2063 C2064 1.398 . S
C2063 C2069 1.491 . S
C2064 H2055 0.950 . S
C2064 C2063 1.398 . S
C2064 C2065 1.391 . S
C2065 H2053 0.950 . S
C2065 C2061 1.393 . S
C2065 C2064 1.391 . S
C2066 H2056 0.950 . S
C2066 C2067 1.386 . S
C2066 C2068 1.391 . S
C2067 C2066 1.386 . S
C2067 C2071 1.393 . S
C2068 H2057 0.950 . S
C2068 C2066 1.391 . S
C2068 C2069 1.400 . S
C2069 C2063 1.491 . S
C2069 C2068 1.400 . S
C2069 C2070 1.398 . S
C2070 H2058 0.950 . S
C2070 C2069 1.398 . S
C2070 C2071 1.391 . S
C2071 H2059 0.950 . S
C2071 C2067 1.393 . S
C2071 C2070 1.391 . S
H2072 C2080 0.950 . S
H2073 C2085 0.950 . S
H2074 C2082 0.950 . S
H2075 C2084 0.950 . S
H2076 C2086 0.950 . S
H2077 C2088 0.950 . S
H2078 C2090 0.950 . S
H2079 C2091 0.950 . S
C2080 H2072 0.950 . S
C2080 C2081 1.386 . S
C2080 C2082 1.391 . S
C2081 C2080 1.386 . S
C2081 C2085 1.393 . S
C2082 H2074 0.950 . S
C2082 C2080 1.391 . S
C2082 C2083 1.400 . S
C2083 C2082 1.400 . S
C2083 C2084 1.398 . S
C2083 C2089 1.491 . S
C2084 H2075 0.950 . S
C2084 C2083 1.398 . S
C2084 C2085 1.391 . S
C2085 H2073 0.950 . S
C2085 C2081 1.393 . S
C2085 C2084 1.391 . S
C2086 H2076 0.950 . S
C2086 C2087 1.386 . S
C2086 C2088 1.391 . S
C2087 C2086 1.386 . S
C2087 C2091 1.393 . S
C2088 H2077 0.950 . S
C2088 C2086 1.391 . S
C2088 C2089 1.400 . S
C2089 C2083 1.491 . S
C2089 C2088 1.400 . S
C2089 C2090 1.398 . S
C2090 H2078 0.950 . S
C2090 C2089 1.398 . S
C2090 C2091 1.391 . S
C2091 H2079 0.950 . S
C2091 C2087 1.393 . S
C2091 C2090 1.391 . S
H2092 C2100 0.950 . S
H2093 C2105 0.950 . S
H2094 C2102 0.950 . S
H2095 C2104 0.950 . S
H2096 C2106 0.950 . S
H2097 C2108 0.950 . S
H2098 C2110 0.950 . S
H2099 C2111 0.950 . S
C2100 H2092 0.950 . S
C2100 C2101 1.386 . S
C2100 C2102 1.391 . S
C2101 C2100 1.386 . S
C2101 C2105 1.393 . S
C2102 H2094 0.950 . S
C2102 C2100 1.391 . S
C2102 C2103 1.400 . S
C2103 C2102 1.400 . S
C2103 C2104 1.398 . S
C2103 C2109 1.491 . S
C2104 H2095 0.950 . S
C2104 C2103 1.398 . S
C2104 C2105 1.391 . S
C2105 H2093 0.950 . S
C2105 C2101 1.393 . S
C2105 C2104 1.391 . S
C2106 H2096 0.950 . S
C2106 C2107 1.386 . S
C2106 C2108 1.391 . S
C2107 C2106 1.386 . S
C2107 C2111 1.393 . S
C2108 H2097 0.950 . S
C2108 C2106 1.391 . S
C2108 C2109 1.400 . S
C2109 C2103 1.491 . S
C2109 C2108 1.400 . S
C2109 C2110 1.398 . S
C2110 H2098 0.950 . S
C2110 C2109 1.398 . S
C2110 C2111 1.391 . S
C2111 H2099 0.950 . S
C2111 C2107 1.393 . S
C2111 C2110 1.391 . S
H2112 C2120 0.950 . S
H2113 C2125 0.950 . S
H2114 C2122 0.950 . S
H2115 C2124 0.950 . S
H2116 C2126 0.950 . S
H2117 C2128 0.950 . S
H2118 C2130 0.950 . S
H2119 C2131 0.950 . S
C2120 H2112 0.950 . S
C2120 C2121 1.386 . S
C2120 C2122 1.391 . S
C2121 C2120 1.386 . S
C2121 C2125 1.393 1_455 S
C2122 H2114 0.950 . S
C2122 C2120 1.391 . S
C2122 C2123 1.400 . S
C2123 C2122 1.400 . S
C2123 C2124 1.398 1_455 S
C2123 C2129 1.491 . S
C2124 H2115 0.950 . S
C2124 C2123 1.398 1_655 S
C2124 C2125 1.391 . S
C2125 H2113 0.950 . S
C2125 C2121 1.393 1_655 S
C2125 C2124 1.391 . S
C2126 H2116 0.950 . S
C2126 C2127 1.386 1_655 S
C2126 C2128 1.391 . S
C2127 C2126 1.386 1_455 S
C2127 C2131 1.393 . S
C2128 H2117 0.950 . S
C2128 C2126 1.391 . S
C2128 C2129 1.400 1_655 S
C2129 C2123 1.491 . S
C2129 C2128 1.400 1_455 S
C2129 C2130 1.398 . S
C2130 H2118 0.950 . S
C2130 C2129 1.398 . S
C2130 C2131 1.391 . S
C2131 H2119 0.950 . S
C2131 C2127 1.393 . S
C2131 C2130 1.391 . S
H2132 C2140 0.950 . S
H2133 C2145 0.950 . S
H2134 C2142 0.950 . S
H2135 C2144 0.950 . S
H2136 C2146 0.950 . S
H2137 C2148 0.950 . S
H2138 C2150 0.950 . S
H2139 C2151 0.950 . S
C2140 H2132 0.950 . S
C2140 C2141 1.386 . S
C2140 C2142 1.391 . S
C2141 C2140 1.386 . S
C2141 C2145 1.393 . S
C2142 H2134 0.950 . S
C2142 C2140 1.391 . S
C2142 C2143 1.400 . S
C2143 C2142 1.400 . S
C2143 C2144 1.398 . S
C2143 C2149 1.491 . S
C2144 H2135 0.950 . S
C2144 C2143 1.398 . S
C2144 C2145 1.391 . S
C2145 H2133 0.950 . S
C2145 C2141 1.393 . S
C2145 C2144 1.391 . S
C2146 H2136 0.950 . S
C2146 C2147 1.386 . S
C2146 C2148 1.391 . S
C2147 C2146 1.386 . S
C2147 C2151 1.393 . S
C2148 H2137 0.950 . S
C2148 C2146 1.391 . S
C2148 C2149 1.400 . S
C2149 C2143 1.491 . S
C2149 C2148 1.400 . S
C2149 C2150 1.398 . S
C2150 H2138 0.950 . S
C2150 C2149 1.398 . S
C2150 C2151 1.391 . S
C2151 H2139 0.950 . S
C2151 C2147 1.393 . S
C2151 C2150 1.391 . S
H2152 C2160 0.950 . S
H2153 C2165 0.950 . S
H2154 C2162 0.950 . S
H2155 C2164 0.950 . S
H2156 C2166 0.916 1_554 S
H2157 C2168 0.950 . S
H2158 C2170 0.950 . S
H2159 C2171 0.950 . S
C2160 H2152 0.950 . S
C2160 C2161 1.386 . S
C2160 C2162 1.391 . S
C2161 C2160 1.386 . S
C2161 C2165 1.393 . S
C2162 H2154 0.950 . S
C2162 C2160 1.391 . S
C2162 C2163 1.400 . S
C2163 C2162 1.400 . S
C2163 C2164 1.398 . S
C2163 C2169 1.491 . S
C2164 H2155 0.950 . S
C2164 C2163 1.398 . S
C2164 C2165 1.391 . S
C2165 H2153 0.950 . S
C2165 C2161 1.393 . S
C2165 C2164 1.391 . S
C2166 H2156 0.916 1_556 S
C2166 C2167 1.386 . S
C2166 C2168 1.391 . S
C2167 C2166 1.386 . S
C2167 C2171 1.393 . S
C2168 H2157 0.950 . S
C2168 C2166 1.391 . S
C2168 C2169 1.400 . S
C2169 C2163 1.491 . S
C2169 C2168 1.400 . S
C2169 C2170 1.398 . S
C2170 H2158 0.950 . S
C2170 C2169 1.398 . S
C2170 C2171 1.391 . S
C2171 H2159 0.950 . S
C2171 C2167 1.393 . S
C2171 C2170 1.391 . S
H2172 C2180 0.950 . S
H2173 C2185 0.950 . S
H2174 C2182 0.950 . S
H2175 C2184 0.950 . S
H2176 C2186 0.950 . S
H2177 C2188 0.950 . S
H2178 C2190 0.950 . S
H2179 C2191 0.950 . S
C2180 H2172 0.950 . S
C2180 C2181 1.386 . S
C2180 C2182 1.391 . S
C2181 C2180 1.386 . S
C2181 C2185 1.393 . S
C2182 H2174 0.950 . S
C2182 C2180 1.391 . S
C2182 C2183 1.400 . S
C2183 C2182 1.400 . S
C2183 C2184 1.398 . S
C2183 C2189 1.491 . S
C2184 H2175 0.950 . S
C2184 C2183 1.398 . S
C2184 C2185 1.391 . S
C2185 H2173 0.950 . S
C2185 C2181 1.393 . S
C2185 C2184 1.391 . S
C2186 H2176 0.950 . S
C2186 C2187 1.386 . S
C2186 C2188 1.391 . S
C2187 C2186 1.386 . S
C2187 C2191 1.393 . S
C2188 H2177 0.950 . S
C2188 C2186 1.391 . S
C2188 C2189 1.400 . S
C2189 C2183 1.491 . S
C2189 C2188 1.400 . S
C2189 C2190 1.398 . S
C2190 H2178 0.950 . S
C2190 C2189 1.398 . S
C2190 C2191 1.391 . S
C2191 H2179 0.950 . S
C2191 C2187 1.393 . S
C2191 C2190 1.391 . S
H2192 C2200 0.951 . S
H2193 C2205 0.950 . S
H2194 C2202 0.950 1_655 S
H2195 C2204 0.950 . S
H2196 C2206 0.950 . S
H2197 C2208 0.950 . S
H2198 C2210 0.950 1_655 S
H2199 C2211 0.950 1_655 S
C2200 H2192 0.951 . S
C2200 C2201 1.386 . S
C2200 C2202 1.391 . S
C2201 C2200 1.386 . S
C2201 C2205 1.393 . S
C2202 H2194 0.950 1_455 S
C2202 C2200 1.391 . S
C2202 C2203 1.400 . S
C2203 C2202 1.400 . S
C2203 C2204 1.398 . S
C2203 C2209 1.491 . S
C2204 H2195 0.950 . S
C2204 C2203 1.398 . S
C2204 C2205 1.391 . S
C2205 H2193 0.950 . S
C2205 C2201 1.393 . S
C2205 C2204 1.391 . S
C2206 H2196 0.950 . S
C2206 C2207 1.386 . S
C2206 C2208 1.391 . S
C2207 C2206 1.386 . S
C2207 C2211 1.393 . S
C2208 H2197 0.950 . S
C2208 C2206 1.391 . S
C2208 C2209 1.400 . S
C2209 C2203 1.491 . S
C2209 C2208 1.400 . S
C2209 C2210 1.398 . S
C2210 H2198 0.950 1_455 S
C2210 C2209 1.398 . S
C2210 C2211 1.391 . S
C2211 H2199 0.950 1_455 S
C2211 C2207 1.393 . S
C2211 C2210 1.391 . S
H2212 C2220 0.950 . S
H2213 C2225 0.950 . S
H2214 C2222 0.950 . S
H2215 C2224 0.950 . S
H2216 C2226 0.950 . S
H2217 C2228 0.950 . S
H2218 C2230 0.950 . S
H2219 C2231 0.950 . S
C2220 H2212 0.950 . S
C2220 C2221 1.386 . S
C2220 C2222 1.391 . S
C2221 C2220 1.386 . S
C2221 C2225 1.393 . S
C2222 H2214 0.950 . S
C2222 C2220 1.391 . S
C2222 C2223 1.400 . S
C2223 C2222 1.400 . S
C2223 C2224 1.398 . S
C2223 C2229 1.491 . S
C2224 H2215 0.950 . S
C2224 C2223 1.398 . S
C2224 C2225 1.391 . S
C2225 H2213 0.950 . S
C2225 C2221 1.393 . S
C2225 C2224 1.391 . S
C2226 H2216 0.950 . S
C2226 C2227 1.386 . S
C2226 C2228 1.391 . S
C2227 C2226 1.386 . S
C2227 C2231 1.393 . S
C2228 H2217 0.950 . S
C2228 C2226 1.391 . S
C2228 C2229 1.400 . S
C2229 C2223 1.491 . S
C2229 C2228 1.400 . S
C2229 C2230 1.398 . S
C2230 H2218 0.950 . S
C2230 C2229 1.398 . S
C2230 C2231 1.391 . S
C2231 H2219 0.950 . S
C2231 C2227 1.393 . S
C2231 C2230 1.391 . S
H2232 C2240 0.950 . S
H2233 C2245 0.950 . S
H2234 C2242 0.950 . S
H2235 C2244 0.950 . S
H2236 C2246 0.950 . S
H2237 C2248 0.950 . S
H2238 C2250 0.950 . S
H2239 C2251 0.950 . S
C2240 H2232 0.950 . S
C2240 C2241 1.386 . S
C2240 C2242 1.391 . S
C2241 C2240 1.386 . S
C2241 C2245 1.393 . S
C2242 H2234 0.950 . S
C2242 C2240 1.391 . S
C2242 C2243 1.400 . S
C2243 C2242 1.400 . S
C2243 C2244 1.398 . S
C2243 C2249 1.491 . S
C2244 H2235 0.950 . S
C2244 C2243 1.398 . S
C2244 C2245 1.391 . S
C2245 H2233 0.950 . S
C2245 C2241 1.393 . S
C2245 C2244 1.391 . S
C2246 H2236 0.950 . S
C2246 C2247 1.386 . S
C2246 C2248 1.391 . S
C2247 C2246 1.386 . S
C2247 C2251 1.393 . S
C2248 H2237 0.950 . S
C2248 C2246 1.391 . S
C2248 C2249 1.400 . S
C2249 C2243 1.491 . S
C2249 C2248 1.400 . S
C2249 C2250 1.398 . S
C2250 H2238 0.950 . S
C2250 C2249 1.398 . S
C2250 C2251 1.391 . S
C2251 H2239 0.950 . S
C2251 C2247 1.393 . S
C2251 C2250 1.391 . S
H2252 C2260 0.950 . S
H2253 C2265 0.950 . S
H2254 C2262 0.950 . S
H2255 C2264 0.950 . S
H2256 C2266 0.950 . S
H2257 C2268 0.950 . S
H2258 C2270 0.950 . S
H2259 C2271 0.950 . S
C2260 H2252 0.950 . S
C2260 C2261 1.386 . S
C2260 C2262 1.391 . S
C2261 C2260 1.386 . S
C2261 C2265 1.393 . S
C2262 H2254 0.950 . S
C2262 C2260 1.391 . S
C2262 C2263 1.400 . S
C2263 C2262 1.400 . S
C2263 C2264 1.398 . S
C2263 C2269 1.491 . S
C2264 H2255 0.950 . S
C2264 C2263 1.398 . S
C2264 C2265 1.391 . S
C2265 H2253 0.950 . S
C2265 C2261 1.393 . S
C2265 C2264 1.391 . S
C2266 H2256 0.950 . S
C2266 C2267 1.386 . S
C2266 C2268 1.391 . S
C2267 C2266 1.386 . S
C2267 C2271 1.393 . S
C2268 H2257 0.950 . S
C2268 C2266 1.391 . S
C2268 C2269 1.400 . S
C2269 C2263 1.491 . S
C2269 C2268 1.400 . S
C2269 C2270 1.398 . S
C2270 H2258 0.950 . S
C2270 C2269 1.398 . S
C2270 C2271 1.391 . S
C2271 H2259 0.950 . S
C2271 C2267 1.393 . S
C2271 C2270 1.391 . S
H2272 C2280 0.950 . S
H2273 C2285 0.950 . S
H2274 C2282 0.950 . S
H2275 C2284 0.950 . S
H2276 C2286 0.950 . S
H2277 C2288 0.950 . S
H2278 C2290 0.950 . S
H2279 C2291 0.950 1_455 S
C2280 H2272 0.950 . S
C2280 C2281 1.386 . S
C2280 C2282 1.391 . S
C2281 C2280 1.386 . S
C2281 C2285 1.393 . S
C2282 H2274 0.950 . S
C2282 C2280 1.391 . S
C2282 C2283 1.400 . S
C2283 C2282 1.400 . S
C2283 C2284 1.398 . S
C2283 C2289 1.491 . S
C2284 H2275 0.950 . S
C2284 C2283 1.398 . S
C2284 C2285 1.391 . S
C2285 H2273 0.950 . S
C2285 C2281 1.393 . S
C2285 C2284 1.391 . S
C2286 H2276 0.950 . S
C2286 C2287 1.386 . S
C2286 C2288 1.391 . S
C2287 C2286 1.386 . S
C2287 C2291 1.393 . S
C2288 H2277 0.950 . S
C2288 C2286 1.391 . S
C2288 C2289 1.400 . S
C2289 C2283 1.491 . S
C2289 C2288 1.400 . S
C2289 C2290 1.398 . S
C2290 H2278 0.950 . S
C2290 C2289 1.398 . S
C2290 C2291 1.391 . S
C2291 H2279 0.950 1_655 S
C2291 C2287 1.393 . S
C2291 C2290 1.391 . S
H2292 C2300 0.950 . S
H2293 C2305 0.950 . S
H2294 C2302 0.950 . S
H2295 C2304 0.950 . S
H2296 C2306 0.950 . S
H2297 C2308 0.950 . S
H2298 C2310 0.950 . S
H2299 C2311 0.950 . S
C2300 H2292 0.950 . S
C2300 C2301 1.386 . S
C2300 C2302 1.391 . S
C2301 C2300 1.386 . S
C2301 C2305 1.393 . S
C2302 H2294 0.950 . S
C2302 C2300 1.391 . S
C2302 C2303 1.400 . S
C2303 C2302 1.400 . S
C2303 C2304 1.398 . S
C2303 C2309 1.491 . S
C2304 H2295 0.950 . S
C2304 C2303 1.398 . S
C2304 C2305 1.391 . S
C2305 H2293 0.950 . S
C2305 C2301 1.393 . S
C2305 C2304 1.391 . S
C2306 H2296 0.950 . S
C2306 C2307 1.386 . S
C2306 C2308 1.391 . S
C2307 C2306 1.386 . S
C2307 C2311 1.393 . S
C2308 H2297 0.950 . S
C2308 C2306 1.391 . S
C2308 C2309 1.400 . S
C2309 C2303 1.491 . S
C2309 C2308 1.400 . S
C2309 C2310 1.398 . S
C2310 H2298 0.950 . S
C2310 C2309 1.398 . S
C2310 C2311 1.391 . S
C2311 H2299 0.950 . S
C2311 C2307 1.393 . S
C2311 C2310 1.391 . S
H2312 C2320 0.950 . S
H2313 C2325 0.950 . S
H2314 C2322 0.950 . S
H2315 C2324 0.950 . S
H2316 C2326 0.950 . S
H2317 C2328 0.950 . S
H2318 C2330 0.950 . S
H2319 C2331 0.950 . S
C2320 H2312 0.950 . S
C2320 C2321 1.386 . S
C2320 C2322 1.391 . S
C2321 C2320 1.386 . S
C2321 C2325 1.393 . S
C2322 H2314 0.950 . S
C2322 C2320 1.391 . S
C2322 C2323 1.400 . S
C2323 C2322 1.400 . S
C2323 C2324 1.398 . S
C2323 C2329 1.491 . S
C2324 H2315 0.950 . S
C2324 C2323 1.398 . S
C2324 C2325 1.391 . S
C2325 H2313 0.950 . S
C2325 C2321 1.393 . S
C2325 C2324 1.391 . S
C2326 H2316 0.950 . S
C2326 C2327 1.386 . S
C2326 C2328 1.391 . S
C2327 C2326 1.386 . S
C2327 C2331 1.393 . S
C2328 H2317 0.950 . S
C2328 C2326 1.391 . S
C2328 C2329 1.400 . S
C2329 C2323 1.491 . S
C2329 C2328 1.400 . S
C2329 C2330 1.398 . S
C2330 H2318 0.950 . S
C2330 C2329 1.398 . S
C2330 C2331 1.391 . S
C2331 H2319 0.950 . S
C2331 C2327 1.393 . S
C2331 C2330 1.391 . S
H2332 C2340 0.950 . S
H2333 C2345 0.950 . S
H2334 C2342 0.950 . S
H2335 C2344 0.950 . S
H2336 C2346 0.950 . S
H2337 C2348 0.950 . S
H2338 C2350 0.950 . S
H2339 C2351 0.950 . S
C2340 H2332 0.950 . S
C2340 C2341 1.386 . S
C2340 C2342 1.391 . S
C2341 C2340 1.386 . S
C2341 C2345 1.393 . S
C2342 H2334 0.950 . S
C2342 C2340 1.391 . S
C2342 C2343 1.400 . S
C2343 C2342 1.400 . S
C2343 C2344 1.398 . S
C2343 C2349 1.491 . S
C2344 H2335 0.950 . S
C2344 C2343 1.398 . S
C2344 C2345 1.391 . S
C2345 H2333 0.950 . S
C2345 C2341 1.393 . S
C2345 C2344 1.391 . S
C2346 H2336 0.950 . S
C2346 C2347 1.386 . S
C2346 C2348 1.391 . S
C2347 C2346 1.386 . S
C2347 C2351 1.393 . S
C2348 H2337 0.950 . S
C2348 C2346 1.391 . S
C2348 C2349 1.400 . S
C2349 C2343 1.491 . S
C2349 C2348 1.400 . S
C2349 C2350 1.398 . S
C2350 H2338 0.950 . S
C2350 C2349 1.398 . S
C2350 C2351 1.391 . S
C2351 H2339 0.950 . S
C2351 C2347 1.393 . S
C2351 C2350 1.391 . S
H2352 C2360 0.950 . S
H2353 C2365 0.950 . S
H2354 C2362 0.950 . S
H2355 C2364 0.950 . S
H2356 C2366 0.950 . S
H2357 C2368 0.950 . S
H2358 C2370 0.950 . S
H2359 C2371 0.950 . S
C2360 H2352 0.950 . S
C2360 C2361 1.386 . S
C2360 C2362 1.391 . S
C2361 C2360 1.386 . S
C2361 C2365 1.393 . S
C2362 H2354 0.950 . S
C2362 C2360 1.391 . S
C2362 C2363 1.400 . S
C2363 C2362 1.400 . S
C2363 C2364 1.398 . S
C2363 C2369 1.491 . S
C2364 H2355 0.950 . S
C2364 C2363 1.398 . S
C2364 C2365 1.391 . S
C2365 H2353 0.950 . S
C2365 C2361 1.393 . S
C2365 C2364 1.391 . S
C2366 H2356 0.950 . S
C2366 C2367 1.386 . S
C2366 C2368 1.391 . S
C2367 C2366 1.386 . S
C2367 C2371 1.393 . S
C2368 H2357 0.950 . S
C2368 C2366 1.391 . S
C2368 C2369 1.400 . S
C2369 C2363 1.491 . S
C2369 C2368 1.400 . S
C2369 C2370 1.398 . S
C2370 H2358 0.950 . S
C2370 C2369 1.398 . S
C2370 C2371 1.391 . S
C2371 H2359 0.950 . S
C2371 C2367 1.393 . S
C2371 C2370 1.391 . S
H2372 C2380 0.950 . S
H2373 C2385 0.950 . S
H2374 C2382 0.950 . S
H2375 C2384 0.950 . S
H2376 C2386 0.950 . S
H2377 C2388 0.950 . S
H2378 C2390 0.950 . S
H2379 C2391 0.950 . S
C2380 H2372 0.950 . S
C2380 C2381 1.386 . S
C2380 C2382 1.391 . S
C2381 C2380 1.386 . S
C2381 C2385 1.393 . S
C2382 H2374 0.950 . S
C2382 C2380 1.391 . S
C2382 C2383 1.400 . S
C2383 C2382 1.400 . S
C2383 C2384 1.398 . S
C2383 C2389 1.491 . S
C2384 H2375 0.950 . S
C2384 C2383 1.398 . S
C2384 C2385 1.391 . S
C2385 H2373 0.950 . S
C2385 C2381 1.393 . S
C2385 C2384 1.391 . S
C2386 H2376 0.950 . S
C2386 C2387 1.386 . S
C2386 C2388 1.391 . S
C2387 C2386 1.386 . S
C2387 C2391 1.393 . S
C2388 H2377 0.950 . S
C2388 C2386 1.391 . S
C2388 C2389 1.400 . S
C2389 C2383 1.491 . S
C2389 C2388 1.400 . S
C2389 C2390 1.398 . S
C2390 H2378 0.950 . S
C2390 C2389 1.398 . S
C2390 C2391 1.391 . S
C2391 H2379 0.950 . S
C2391 C2387 1.393 . S
C2391 C2390 1.391 . S
H2392 C2400 0.950 . S
H2393 C2405 0.950 . S
H2394 C2402 0.950 . S
H2395 C2404 0.950 . S
H2396 C2406 0.950 . S
H2397 C2408 0.950 . S
H2398 C2410 0.950 . S
H2399 C2411 0.950 . S
C2400 H2392 0.950 . S
C2400 C2401 1.386 . S
C2400 C2402 1.391 . S
C2401 C2400 1.386 . S
C2401 C2405 1.393 . S
C2402 H2394 0.950 . S
C2402 C2400 1.391 . S
C2402 C2403 1.400 . S
C2403 C2402 1.400 . S
C2403 C2404 1.398 . S
C2403 C2409 1.491 . S
C2404 H2395 0.950 . S
C2404 C2403 1.398 . S
C2404 C2405 1.391 . S
C2405 H2393 0.950 . S
C2405 C2401 1.393 . S
C2405 C2404 1.391 . S
C2406 H2396 0.950 . S
C2406 C2407 1.386 . S
C2406 C2408 1.391 . S
C2407 C2406 1.386 . S
C2407 C2411 1.393 . S
C2408 H2397 0.950 . S
C2408 C2406 1.391 . S
C2408 C2409 1.400 . S
C2409 C2403 1.491 . S
C2409 C2408 1.400 . S
C2409 C2410 1.398 . S
C2410 H2398 0.950 . S
C2410 C2409 1.398 . S
C2410 C2411 1.391 . S
C2411 H2399 0.950 . S
C2411 C2407 1.393 . S
C2411 C2410 1.391 . S
H2412 C2420 0.950 . S
H2413 C2425 0.950 . S
H2414 C2422 0.950 . S
H2415 C2424 0.950 . S
H2416 C2426 0.950 . S
H2417 C2428 0.945 1_545 S
H2418 C2430 0.950 . S
H2419 C2431 0.950 . S
C2420 H2412 0.950 . S
C2420 C2421 1.386 . S
C2420 C2422 1.391 . S
C2421 C2420 1.386 . S
C2421 C2425 1.393 . S
C2422 H2414 0.950 . S
C2422 C2420 1.391 . S
C2422 C2423 1.400 . S
C2423 C2422 1.400 . S
C2423 C2424 1.398 . S
C2423 C2429 1.491 . S
C2424 H2415 0.950 . S
C2424 C2423 1.398 . S
C2424 C2425 1.391 . S
C2425 H2413 0.950 . S
C2425 C2421 1.393 . S
C2425 C2424 1.391 . S
C2426 H2416 0.950 . S
C2426 C2427 1.386 1_545 S
C2426 C2428 1.389 1_545 S
C2427 C2426 1.386 1_565 S
C2427 C2431 1.393 . S
C2428 H2417 0.945 1_565 S
C2428 C2426 1.389 1_565 S
C2428 C2429 1.407 . S
C2429 C2423 1.491 . S
C2429 C2428 1.407 . S
C2429 C2430 1.398 . S
C2430 H2418 0.950 . S
C2430 C2429 1.398 . S
C2430 C2431 1.391 . S
C2431 H2419 0.950 . S
C2431 C2427 1.393 . S
C2431 C2430 1.391 . S
H2432 C2440 0.950 . S
H2433 C2445 0.950 . S
H2434 C2442 0.950 . S
H2435 C2444 0.950 . S
H2436 C2446 0.950 . S
H2437 C2448 0.950 . S
H2438 C2450 0.950 . S
H2439 C2451 0.950 . S
C2440 H2432 0.950 . S
C2440 C2441 1.386 . S
C2440 C2442 1.391 . S
C2441 C2440 1.386 . S
C2441 C2445 1.393 . S
C2442 H2434 0.950 . S
C2442 C2440 1.391 . S
C2442 C2443 1.400 . S
C2443 C2442 1.400 . S
C2443 C2444 1.398 . S
C2443 C2449 1.491 . S
C2444 H2435 0.950 . S
C2444 C2443 1.398 . S
C2444 C2445 1.391 . S
C2445 H2433 0.950 . S
C2445 C2441 1.393 . S
C2445 C2444 1.391 . S
C2446 H2436 0.950 . S
C2446 C2447 1.386 . S
C2446 C2448 1.391 . S
C2447 C2446 1.386 . S
C2447 C2451 1.393 . S
C2448 H2437 0.950 . S
C2448 C2446 1.391 . S
C2448 C2449 1.400 . S
C2449 C2443 1.491 . S
C2449 C2448 1.400 . S
C2449 C2450 1.398 . S
C2450 H2438 0.950 . S
C2450 C2449 1.398 . S
C2450 C2451 1.391 . S
C2451 H2439 0.950 . S
C2451 C2447 1.393 . S
C2451 C2450 1.391 . S
H2452 C2460 0.950 . S
H2453 C2465 0.950 . S
H2454 C2462 0.950 . S
H2455 C2464 0.950 . S
H2456 C2466 0.950 . S
H2457 C2468 0.950 . S
H2458 C2470 0.950 . S
H2459 C2471 0.950 . S
C2460 H2452 0.950 . S
C2460 C2461 1.386 . S
C2460 C2462 1.391 . S
C2461 C2460 1.386 . S
C2461 C2465 1.393 1_556 S
C2462 H2454 0.950 . S
C2462 C2460 1.391 . S
C2462 C2463 1.400 1_556 S
C2463 C2462 1.400 1_554 S
C2463 C2464 1.398 . S
C2463 C2469 1.491 . S
C2464 H2455 0.950 . S
C2464 C2463 1.398 . S
C2464 C2465 1.391 . S
C2465 H2453 0.950 . S
C2465 C2461 1.393 1_554 S
C2465 C2464 1.391 . S
C2466 H2456 0.950 . S
C2466 C2467 1.386 . S
C2466 C2468 1.391 . S
C2467 C2466 1.386 . S
C2467 C2471 1.393 1_554 S
C2468 H2457 0.950 . S
C2468 C2466 1.391 . S
C2468 C2469 1.400 . S
C2469 C2463 1.491 . S
C2469 C2468 1.400 . S
C2469 C2470 1.398 1_554 S
C2470 H2458 0.950 . S
C2470 C2469 1.398 1_556 S
C2470 C2471 1.391 . S
C2471 H2459 0.950 . S
C2471 C2467 1.393 1_556 S
C2471 C2470 1.391 . S
H2472 C2480 0.950 . S
H2473 C2485 0.950 . S
H2474 C2482 0.950 . S
H2475 C2484 0.950 . S
H2476 C2486 0.950 . S
H2477 C2488 0.950 . S
H2478 C2490 0.950 . S
H2479 C2491 0.950 . S
C2480 H2472 0.950 . S
C2480 C2481 1.386 . S
C2480 C2482 1.391 . S
C2481 C2480 1.386 . S
C2481 C2485 1.393 . S
C2482 H2474 0.950 . S
C2482 C2480 1.391 . S
C2482 C2483 1.400 . S
C2483 C2482 1.400 . S
C2483 C2484 1.398 . S
C2483 C2489 1.491 . S
C2484 H2475 0.950 . S
C2484 C2483 1.398 . S
C2484 C2485 1.391 . S
C2485 H2473 0.950 . S
C2485 C2481 1.393 . S
C2485 C2484 1.391 . S
C2486 H2476 0.950 . S
C2486 C2487 1.386 . S
C2486 C2488 1.391 . S
C2487 C2486 1.386 . S
C2487 C2491 1.393 . S
C2488 H2477 0.950 . S
C2488 C2486 1.391 . S
C2488 C2489 1.400 . S
C2489 C2483 1.491 . S
C2489 C2488 1.400 . S
C2489 C2490 1.398 . S
C2490 H2478 0.950 . S
C2490 C2489 1.398 . S
C2490 C2491 1.391 . S
C2491 H2479 0.950 . S
C2491 C2487 1.393 . S
C2491 C2490 1.391 . S
H2492 C2500 0.950 . S
H2493 C2505 0.950 1_556 S
H2494 C2502 0.950 . S
H2495 C2504 0.950 . S
H2496 C2506 0.950 . S
H2497 C2508 0.950 . S
H2498 C2510 0.950 . S
H2499 C2511 0.950 . S
C2500 H2492 0.950 . S
C2500 C2501 1.386 . S
C2500 C2502 1.391 . S
C2501 C2500 1.386 . S
C2501 C2505 1.393 . S
C2502 H2494 0.950 . S
C2502 C2500 1.391 . S
C2502 C2503 1.400 . S
C2503 C2502 1.400 . S
C2503 C2504 1.398 1_554 S
C2503 C2509 1.491 . S
C2504 H2495 0.950 . S
C2504 C2503 1.398 1_556 S
C2504 C2505 1.391 1_556 S
C2505 H2493 0.950 1_554 S
C2505 C2501 1.393 . S
C2505 C2504 1.391 1_554 S
C2506 H2496 0.950 . S
C2506 C2507 1.386 . S
C2506 C2508 1.391 . S
C2507 C2506 1.386 . S
C2507 C2511 1.393 1_556 S
C2508 H2497 0.950 . S
C2508 C2506 1.391 . S
C2508 C2509 1.400 1_556 S
C2509 C2503 1.491 . S
C2509 C2508 1.400 1_554 S
C2509 C2510 1.398 . S
C2510 H2498 0.950 . S
C2510 C2509 1.398 . S
C2510 C2511 1.391 . S
C2511 H2499 0.950 . S
C2511 C2507 1.393 1_554 S
C2511 C2510 1.391 . S
H2512 C2520 0.950 . S
H2513 C2525 0.950 . S
H2514 C2522 0.950 . S
H2515 C2524 0.950 . S
H2516 C2526 0.950 . S
H2517 C2528 0.950 . S
H2518 C2530 0.950 . S
H2519 C2531 0.950 . S
C2520 H2512 0.950 . S
C2520 C2521 1.386 . S
C2520 C2522 1.391 . S
C2521 C2520 1.386 . S
C2521 C2525 1.393 . S
C2522 H2514 0.950 . S
C2522 C2520 1.391 . S
C2522 C2523 1.400 . S
C2523 C2522 1.400 . S
C2523 C2524 1.398 . S
C2523 C2529 1.491 . S
C2524 H2515 0.950 . S
C2524 C2523 1.398 . S
C2524 C2525 1.391 . S
C2525 H2513 0.950 . S
C2525 C2521 1.393 . S
C2525 C2524 1.391 . S
C2526 H2516 0.950 . S
C2526 C2527 1.386 . S
C2526 C2528 1.391 . S
C2527 C2526 1.386 . S
C2527 C2531 1.393 . S
C2528 H2517 0.950 . S
C2528 C2526 1.391 . S
C2528 C2529 1.400 . S
C2529 C2523 1.491 . S
C2529 C2528 1.400 . S
C2529 C2530 1.398 . S
C2530 H2518 0.950 . S
C2530 C2529 1.398 . S
C2530 C2531 1.391 . S
C2531 H2519 0.950 . S
C2531 C2527 1.393 . S
C2531 C2530 1.391 . S
H2532 C2540 0.950 . S
H2533 C2545 0.950 . S
H2534 C2542 0.950 . S
H2535 C2544 0.950 . S
H2536 C2546 0.950 . S
H2537 C2548 0.950 . S
H2538 C2550 0.950 . S
H2539 C2551 0.950 . S
C2540 H2532 0.950 . S
C2540 C2541 1.386 . S
C2540 C2542 1.391 . S
C2541 C2540 1.386 . S
C2541 C2545 1.393 . S
C2542 H2534 0.950 . S
C2542 C2540 1.391 . S
C2542 C2543 1.400 . S
C2543 C2542 1.400 . S
C2543 C2544 1.398 . S
C2543 C2549 1.491 . S
C2544 H2535 0.950 . S
C2544 C2543 1.398 . S
C2544 C2545 1.391 . S
C2545 H2533 0.950 . S
C2545 C2541 1.393 . S
C2545 C2544 1.391 . S
C2546 H2536 0.950 . S
C2546 C2547 1.386 . S
C2546 C2548 1.391 . S
C2547 C2546 1.386 . S
C2547 C2551 1.393 . S
C2548 H2537 0.950 . S
C2548 C2546 1.391 . S
C2548 C2549 1.400 . S
C2549 C2543 1.491 . S
C2549 C2548 1.400 . S
C2549 C2550 1.398 . S
C2550 H2538 0.950 . S
C2550 C2549 1.398 . S
C2550 C2551 1.391 . S
C2551 H2539 0.950 . S
C2551 C2547 1.393 . S
C2551 C2550 1.391 . S
C641 C101 1.244 . S
C647 C328 1.213 . S
C661 C57 1.297 . S
C667 C341 1.315 . S
C681 C73 1.354 . S
C687 C360 1.363 . S
C707 C391 1.881 . S
C701 C78 1.892 . S
C721 C21 1.766 . S
C727 C411 1.768 . S
C747 C428 0.882 . S
C741 C31 0.878 . S
C767 C441 1.474 . S
C761 C49 1.489 . S
C781 C0 0.940 . S
C787 C468 0.952 . S
C807 C321 1.196 . S
C801 C218 1.202 . S
C821 C229 1.410 . S
C827 C351 1.430 . S
C847 C353 1.698 . S
C841 C257 1.731 . S
C867 C388 0.869 . S
C861 C164 0.885 . S
C881 C216 1.069 . S
C887 C408 1.148 . S
C907 C421 1.759 . S
C901 C231 1.755 . S
C927 C451 1.272 . S
C921 C255 1.248 . S
C947 C461 1.165 . S
C941 C166 1.204 . S
C967 C331 1.551 1_565 S
C961 C143 1.566 . S
C981 C265 1.757 1_556 S
C987 C481 1.784 . S
C1007 C511 1.533 . S
C1001 C299 1.515 . S
C1027 C528 1.197 . S
C1021 C291 1.207 . S
C1041 C104 1.827 . S
C1047 C471 1.803 . S
C1061 C117 1.146 . S
C1067 C358 1.143 . S
C1081 C304 1.757 . S
C1087 C541 1.791 . S
C1107 C568 0.931 . S
C1101 C278 0.927 . S
C1127 C318 1.186 . S
C1121 C60 1.195 . S
C1147 C553 1.242 . S
C1141 C96 1.242 . S
C1161 C88 1.312 . S
C1167 C371 1.309 . S
C1181 C65 1.804 . S
C1187 C540 1.807 . S
C1207 C400 1.679 . S
C1201 C10 1.722 . S
C1221 C44 0.792 . S
C1227 C498 0.833 . S
C1247 C433 1.446 1_556 S
C1241 C34 1.381 . S
C1267 C578 0.904 . S
C1261 C13 0.928 . S
C1287 C313 1.147 . S
C1281 C138 1.115 1_565 S
C1307 C560 1.336 . S
C1301 C296 1.358 . S
C1321 C112 1.596 . S
C1327 C361 1.634 . S
C1341 C270 0.788 . S
C1347 C538 0.797 . S
C1361 C140 1.050 . S
C1367 C398 1.043 . S
C1387 C493 1.704 . S
C1381 C294 1.633 . S
C1401 C114 1.210 . S
C1407 C440 1.196 . S
C1421 C268 1.110 . S
C1427 C573 1.135 . S
C1441 C169 1.518 1_556 S
C1447 C320 1.501 . S
C1461 C161 1.709 . S
C1467 C473 1.723 . S
C1481 C234 1.497 . S
C1487 C420 1.468 . S
C1501 C226 1.097 . S
C1507 C518 1.142 . S
C1527 C580 1.774 . S
C1521 C247 1.752 . S
C1541 C195 1.157 . S
C1547 C368 1.098 1_565 S
C1567 C373 1.730 . S
C1561 C239 1.708 . S
C1587 C338 0.870 . S
C1581 C187 0.841 . S
C1601 C75 1.245 . S
C1607 C608 1.211 . S
C1627 C561 1.300 . S
C1621 C83 1.279 . S
C1641 C99 1.342 . S
C1647 C620 1.364 . S
C1661 C52 1.889 . S
C1667 C551 1.864 . S
C1681 C47 1.768 . S
C1687 C491 1.752 . S
C1707 C508 0.889 . S
C1701 C5 0.858 . S
C1727 C521 1.484 . S
C1721 C23 1.483 . S
C1747 C588 0.953 . S
C1741 C26 0.938 . S
C1767 C601 1.199 . S
C1761 C244 1.201 . S
C1781 C177 1.403 . S
C1787 C571 1.418 . S
C1807 C613 1.679 . S
C1801 C192 1.726 . S
C1827 C548 0.874 . S
C1821 C203 0.874 . S
C1847 C488 1.148 . S
C1841 C242 1.069 . S
C1861 C179 1.759 . S
C1867 C501 1.750 . S
C1887 C531 1.271 . S
C1881 C190 1.259 . S
C1901 C205 1.205 . S
C1907 C581 1.179 . S
C1927 C611 1.565 . S
C1921 C286 1.571 . S
C1941 C122 1.735 . S
C1947 C401 1.784 . S
C1967 C431 1.526 . S
C1961 C130 1.494 . S
C1987 C448 1.214 1_565 S
C1981 C148 1.204 . S
C2007 C591 1.806 . S
C2001 C273 1.830 . S
C2021 C260 1.144 . S
C2027 C618 1.142 . S
C2047 C381 1.798 . S
C2041 C135 1.758 . S
C2067 C348 0.922 . S
C2061 C109 0.919 . S
C2081 C86 1.191 . S
C2087 C598 1.173 . S
C2107 C333 1.238 . S
C2101 C70 1.237 . S
C2121 C62 1.321 . S
C2127 C631 1.296 . S
C2141 C91 1.785 . S
C2147 C380 1.802 . S
C2161 C36 1.718 . S
C2167 C480 1.692 1_556 S
C2187 C418 0.809 . S
C2181 C18 0.824 . S
C2201 C8 1.407 . S
C2207 C513 1.436 . S
C2221 C39 0.913 . S
C2227 C458 0.885 . S
C2247 C593 1.129 . S
C2241 C307 1.131 . S
C2261 C153 1.365 . S
C2267 C340 1.325 . S
C2287 C621 1.625 1_655 S
C2281 C281 1.605 . S
C2301 C127 0.787 . S
C2307 C378 0.803 . S
C2321 C309 1.063 . S
C2327 C478 1.041 . S
C2347 C413 1.703 . S
C2341 C151 1.633 . S
C2361 C283 1.219 . S
C2367 C520 1.178 . S
C2387 C453 1.118 . S
C2381 C125 1.118 . S
C2407 C600 1.497 . S
C2401 C221 1.515 . S
C2427 C393 1.734 1_565 S
C2421 C200 1.711 . S
C2441 C208 1.493 . S
C2447 C500 1.484 . S
C2467 C438 1.119 . S
C2461 C174 1.130 . S
C2481 C182 1.760 . S
C2487 C460 1.764 . S
C2501 C156 1.156 . S
C2507 C628 1.131 . S
C2527 C533 1.730 . S
C2521 C213 1.708 1_565 S
C2547 C558 0.836 . S
C2541 C252 0.875 . S
