# Generated by pormake.
# Topology gar, (4,6)-cn, num edge types: 1
# Building blocks:
#     Node 0, Type 0, BuildingBlock: UXUYUI_clean_sbu_0, # of connection points: 4
#     Node 1, Type 0, BuildingBlock: UXUYUI_clean_sbu_0, # of connection points: 4
#     Node 2, Type 0, BuildingBlock: UXUYUI_clean_sbu_0, # of connection points: 4
#     Node 3, Type 0, BuildingBlock: UXUYUI_clean_sbu_0, # of connection points: 4
#     Node 4, Type 0, BuildingBlock: UXUYUI_clean_sbu_0, # of connection points: 4
#     Node 5, Type 0, BuildingBlock: UXUYUI_clean_sbu_0, # of connection points: 4
#     Node 6, Type 0, BuildingBlock: UXUYUI_clean_sbu_0, # of connection points: 4
#     Node 7, Type 0, BuildingBlock: UXUYUI_clean_sbu_0, # of connection points: 4
#     Node 8, Type 0, BuildingBlock: UXUYUI_clean_sbu_0, # of connection points: 4
#     Node 9, Type 0, BuildingBlock: UXUYUI_clean_sbu_0, # of connection points: 4
#     Node 10, Type 0, BuildingBlock: UXUYUI_clean_sbu_0, # of connection points: 4
#     Node 11, Type 0, BuildingBlock: UXUYUI_clean_sbu_0, # of connection points: 4
#     Node 12, Type 0, BuildingBlock: UXUYUI_clean_sbu_0, # of connection points: 4
#     Node 13, Type 0, BuildingBlock: UXUYUI_clean_sbu_0, # of connection points: 4
#     Node 14, Type 0, BuildingBlock: UXUYUI_clean_sbu_0, # of connection points: 4
#     Node 15, Type 0, BuildingBlock: UXUYUI_clean_sbu_0, # of connection points: 4
#     Node 16, Type 0, BuildingBlock: UXUYUI_clean_sbu_0, # of connection points: 4
#     Node 17, Type 0, BuildingBlock: UXUYUI_clean_sbu_0, # of connection points: 4
#     Node 18, Type 0, BuildingBlock: UXUYUI_clean_sbu_0, # of connection points: 4
#     Node 19, Type 0, BuildingBlock: UXUYUI_clean_sbu_0, # of connection points: 4
#     Node 20, Type 0, BuildingBlock: UXUYUI_clean_sbu_0, # of connection points: 4
#     Node 21, Type 0, BuildingBlock: UXUYUI_clean_sbu_0, # of connection points: 4
#     Node 22, Type 0, BuildingBlock: UXUYUI_clean_sbu_0, # of connection points: 4
#     Node 23, Type 0, BuildingBlock: UXUYUI_clean_sbu_0, # of connection points: 4
#     Node 24, Type 1, BuildingBlock: PAMTOO_clean_sbu_0, # of connection points: 6
#     Node 25, Type 1, BuildingBlock: PAMTOO_clean_sbu_0, # of connection points: 6
#     Node 26, Type 1, BuildingBlock: PAMTOO_clean_sbu_0, # of connection points: 6
#     Node 27, Type 1, BuildingBlock: PAMTOO_clean_sbu_0, # of connection points: 6
#     Node 28, Type 1, BuildingBlock: PAMTOO_clean_sbu_0, # of connection points: 6
#     Node 29, Type 1, BuildingBlock: PAMTOO_clean_sbu_0, # of connection points: 6
#     Node 30, Type 1, BuildingBlock: PAMTOO_clean_sbu_0, # of connection points: 6
#     Node 31, Type 1, BuildingBlock: PAMTOO_clean_sbu_0, # of connection points: 6
#     Node 32, Type 1, BuildingBlock: PAMTOO_clean_sbu_0, # of connection points: 6
#     Node 33, Type 1, BuildingBlock: PAMTOO_clean_sbu_0, # of connection points: 6
#     Node 34, Type 1, BuildingBlock: PAMTOO_clean_sbu_0, # of connection points: 6
#     Node 35, Type 1, BuildingBlock: PAMTOO_clean_sbu_0, # of connection points: 6
#     Node 36, Type 1, BuildingBlock: PAMTOO_clean_sbu_0, # of connection points: 6
#     Node 37, Type 1, BuildingBlock: PAMTOO_clean_sbu_0, # of connection points: 6
#     Node 38, Type 1, BuildingBlock: PAMTOO_clean_sbu_0, # of connection points: 6
#     Node 39, Type 1, BuildingBlock: PAMTOO_clean_sbu_0, # of connection points: 6
#     Edge 40, Type (0, 1), BuildingBlock: UVAHIK_clean_linker_0, # of connection points: 2
#     Edge 41, Type (0, 1), BuildingBlock: UVAHIK_clean_linker_0, # of connection points: 2
#     Edge 42, Type (0, 1), BuildingBlock: UVAHIK_clean_linker_0, # of connection points: 2
#     Edge 43, Type (0, 1), BuildingBlock: UVAHIK_clean_linker_0, # of connection points: 2
#     Edge 44, Type (0, 1), BuildingBlock: UVAHIK_clean_linker_0, # of connection points: 2
#     Edge 45, Type (0, 1), BuildingBlock: UVAHIK_clean_linker_0, # of connection points: 2
#     Edge 46, Type (0, 1), BuildingBlock: UVAHIK_clean_linker_0, # of connection points: 2
#     Edge 47, Type (0, 1), BuildingBlock: UVAHIK_clean_linker_0, # of connection points: 2
#     Edge 48, Type (0, 1), BuildingBlock: UVAHIK_clean_linker_0, # of connection points: 2
#     Edge 49, Type (0, 1), BuildingBlock: UVAHIK_clean_linker_0, # of connection points: 2
#     Edge 50, Type (0, 1), BuildingBlock: UVAHIK_clean_linker_0, # of connection points: 2
#     Edge 51, Type (0, 1), BuildingBlock: UVAHIK_clean_linker_0, # of connection points: 2
#     Edge 52, Type (0, 1), BuildingBlock: UVAHIK_clean_linker_0, # of connection points: 2
#     Edge 53, Type (0, 1), BuildingBlock: UVAHIK_clean_linker_0, # of connection points: 2
#     Edge 54, Type (0, 1), BuildingBlock: UVAHIK_clean_linker_0, # of connection points: 2
#     Edge 55, Type (0, 1), BuildingBlock: UVAHIK_clean_linker_0, # of connection points: 2
#     Edge 56, Type (0, 1), BuildingBlock: UVAHIK_clean_linker_0, # of connection points: 2
#     Edge 57, Type (0, 1), BuildingBlock: UVAHIK_clean_linker_0, # of connection points: 2
#     Edge 58, Type (0, 1), BuildingBlock: UVAHIK_clean_linker_0, # of connection points: 2
#     Edge 59, Type (0, 1), BuildingBlock: UVAHIK_clean_linker_0, # of connection points: 2
#     Edge 60, Type (0, 1), BuildingBlock: UVAHIK_clean_linker_0, # of connection points: 2
#     Edge 61, Type (0, 1), BuildingBlock: UVAHIK_clean_linker_0, # of connection points: 2
#     Edge 62, Type (0, 1), BuildingBlock: UVAHIK_clean_linker_0, # of connection points: 2
#     Edge 63, Type (0, 1), BuildingBlock: UVAHIK_clean_linker_0, # of connection points: 2
#     Edge 64, Type (0, 1), BuildingBlock: UVAHIK_clean_linker_0, # of connection points: 2
#     Edge 65, Type (0, 1), BuildingBlock: UVAHIK_clean_linker_0, # of connection points: 2
#     Edge 66, Type (0, 1), BuildingBlock: UVAHIK_clean_linker_0, # of connection points: 2
#     Edge 67, Type (0, 1), BuildingBlock: UVAHIK_clean_linker_0, # of connection points: 2
#     Edge 68, Type (0, 1), BuildingBlock: UVAHIK_clean_linker_0, # of connection points: 2
#     Edge 69, Type (0, 1), BuildingBlock: UVAHIK_clean_linker_0, # of connection points: 2
#     Edge 70, Type (0, 1), BuildingBlock: UVAHIK_clean_linker_0, # of connection points: 2
#     Edge 71, Type (0, 1), BuildingBlock: UVAHIK_clean_linker_0, # of connection points: 2
#     Edge 72, Type (0, 1), BuildingBlock: UVAHIK_clean_linker_0, # of connection points: 2
#     Edge 73, Type (0, 1), BuildingBlock: UVAHIK_clean_linker_0, # of connection points: 2
#     Edge 74, Type (0, 1), BuildingBlock: UVAHIK_clean_linker_0, # of connection points: 2
#     Edge 75, Type (0, 1), BuildingBlock: UVAHIK_clean_linker_0, # of connection points: 2
#     Edge 76, Type (0, 1), BuildingBlock: UVAHIK_clean_linker_0, # of connection points: 2
#     Edge 77, Type (0, 1), BuildingBlock: UVAHIK_clean_linker_0, # of connection points: 2
#     Edge 78, Type (0, 1), BuildingBlock: UVAHIK_clean_linker_0, # of connection points: 2
#     Edge 79, Type (0, 1), BuildingBlock: UVAHIK_clean_linker_0, # of connection points: 2
#     Edge 80, Type (0, 1), BuildingBlock: UVAHIK_clean_linker_0, # of connection points: 2
#     Edge 81, Type (0, 1), BuildingBlock: UVAHIK_clean_linker_0, # of connection points: 2
#     Edge 82, Type (0, 1), BuildingBlock: UVAHIK_clean_linker_0, # of connection points: 2
#     Edge 83, Type (0, 1), BuildingBlock: UVAHIK_clean_linker_0, # of connection points: 2
#     Edge 84, Type (0, 1), BuildingBlock: UVAHIK_clean_linker_0, # of connection points: 2
#     Edge 85, Type (0, 1), BuildingBlock: UVAHIK_clean_linker_0, # of connection points: 2
#     Edge 86, Type (0, 1), BuildingBlock: UVAHIK_clean_linker_0, # of connection points: 2
#     Edge 87, Type (0, 1), BuildingBlock: UVAHIK_clean_linker_0, # of connection points: 2
#     Edge 88, Type (0, 1), BuildingBlock: UVAHIK_clean_linker_0, # of connection points: 2
#     Edge 89, Type (0, 1), BuildingBlock: UVAHIK_clean_linker_0, # of connection points: 2
#     Edge 90, Type (0, 1), BuildingBlock: UVAHIK_clean_linker_0, # of connection points: 2
#     Edge 91, Type (0, 1), BuildingBlock: UVAHIK_clean_linker_0, # of connection points: 2
#     Edge 92, Type (0, 1), BuildingBlock: UVAHIK_clean_linker_0, # of connection points: 2
#     Edge 93, Type (0, 1), BuildingBlock: UVAHIK_clean_linker_0, # of connection points: 2
#     Edge 94, Type (0, 1), BuildingBlock: UVAHIK_clean_linker_0, # of connection points: 2
#     Edge 95, Type (0, 1), BuildingBlock: UVAHIK_clean_linker_0, # of connection points: 2
#     Edge 96, Type (0, 1), BuildingBlock: UVAHIK_clean_linker_0, # of connection points: 2
#     Edge 97, Type (0, 1), BuildingBlock: UVAHIK_clean_linker_0, # of connection points: 2
#     Edge 98, Type (0, 1), BuildingBlock: UVAHIK_clean_linker_0, # of connection points: 2
#     Edge 99, Type (0, 1), BuildingBlock: UVAHIK_clean_linker_0, # of connection points: 2
#     Edge 100, Type (0, 1), BuildingBlock: UVAHIK_clean_linker_0, # of connection points: 2
#     Edge 101, Type (0, 1), BuildingBlock: UVAHIK_clean_linker_0, # of connection points: 2
#     Edge 102, Type (0, 1), BuildingBlock: UVAHIK_clean_linker_0, # of connection points: 2
#     Edge 103, Type (0, 1), BuildingBlock: UVAHIK_clean_linker_0, # of connection points: 2
#     Edge 104, Type (0, 1), BuildingBlock: UVAHIK_clean_linker_0, # of connection points: 2
#     Edge 105, Type (0, 1), BuildingBlock: UVAHIK_clean_linker_0, # of connection points: 2
#     Edge 106, Type (0, 1), BuildingBlock: UVAHIK_clean_linker_0, # of connection points: 2
#     Edge 107, Type (0, 1), BuildingBlock: UVAHIK_clean_linker_0, # of connection points: 2
#     Edge 108, Type (0, 1), BuildingBlock: UVAHIK_clean_linker_0, # of connection points: 2
#     Edge 109, Type (0, 1), BuildingBlock: UVAHIK_clean_linker_0, # of connection points: 2
#     Edge 110, Type (0, 1), BuildingBlock: UVAHIK_clean_linker_0, # of connection points: 2
#     Edge 111, Type (0, 1), BuildingBlock: UVAHIK_clean_linker_0, # of connection points: 2
#     Edge 112, Type (0, 1), BuildingBlock: UVAHIK_clean_linker_0, # of connection points: 2
#     Edge 113, Type (0, 1), BuildingBlock: UVAHIK_clean_linker_0, # of connection points: 2
#     Edge 114, Type (0, 1), BuildingBlock: UVAHIK_clean_linker_0, # of connection points: 2
#     Edge 115, Type (0, 1), BuildingBlock: UVAHIK_clean_linker_0, # of connection points: 2
#     Edge 116, Type (0, 1), BuildingBlock: UVAHIK_clean_linker_0, # of connection points: 2
#     Edge 117, Type (0, 1), BuildingBlock: UVAHIK_clean_linker_0, # of connection points: 2
#     Edge 118, Type (0, 1), BuildingBlock: UVAHIK_clean_linker_0, # of connection points: 2
#     Edge 119, Type (0, 1), BuildingBlock: UVAHIK_clean_linker_0, # of connection points: 2
#     Edge 120, Type (0, 1), BuildingBlock: UVAHIK_clean_linker_0, # of connection points: 2
#     Edge 121, Type (0, 1), BuildingBlock: UVAHIK_clean_linker_0, # of connection points: 2
#     Edge 122, Type (0, 1), BuildingBlock: UVAHIK_clean_linker_0, # of connection points: 2
#     Edge 123, Type (0, 1), BuildingBlock: UVAHIK_clean_linker_0, # of connection points: 2
#     Edge 124, Type (0, 1), BuildingBlock: UVAHIK_clean_linker_0, # of connection points: 2
#     Edge 125, Type (0, 1), BuildingBlock: UVAHIK_clean_linker_0, # of connection points: 2
#     Edge 126, Type (0, 1), BuildingBlock: UVAHIK_clean_linker_0, # of connection points: 2
#     Edge 127, Type (0, 1), BuildingBlock: UVAHIK_clean_linker_0, # of connection points: 2
#     Edge 128, Type (0, 1), BuildingBlock: UVAHIK_clean_linker_0, # of connection points: 2
#     Edge 129, Type (0, 1), BuildingBlock: UVAHIK_clean_linker_0, # of connection points: 2
#     Edge 130, Type (0, 1), BuildingBlock: UVAHIK_clean_linker_0, # of connection points: 2
#     Edge 131, Type (0, 1), BuildingBlock: UVAHIK_clean_linker_0, # of connection points: 2
#     Edge 132, Type (0, 1), BuildingBlock: UVAHIK_clean_linker_0, # of connection points: 2
#     Edge 133, Type (0, 1), BuildingBlock: UVAHIK_clean_linker_0, # of connection points: 2
#     Edge 134, Type (0, 1), BuildingBlock: UVAHIK_clean_linker_0, # of connection points: 2
#     Edge 135, Type (0, 1), BuildingBlock: UVAHIK_clean_linker_0, # of connection points: 2
# Relax obj value: 0.145
# Max RMSD: 0.249
# Mean RMSD: 0.197
data_MOF--net-gar--node1-UXUYUI_clean_sbu_0--node2-PAMTOO_clean_sbu_0--edge1-UVAHIK_clean_linker_0
_symmetry_space_group_name_H-M    P1
_symmetry_Int_Tables_number       1
_symmetry_cell_setting            triclinic
loop_
_symmetry_equiv_pos_as_xyz
'x, y, z'
_cell_length_a     87.530645
_cell_length_b     87.727988
_cell_length_c     85.722026
_cell_angle_alpha  95.939048
_cell_angle_beta   95.028593
_cell_angle_gamma 104.39665
loop_
_atom_site_label
_atom_site_type_symbol
_atom_site_fract_x
_atom_site_fract_y
_atom_site_fract_z
_atom_type_partial_charge
Li0 Li 0.01889 0.29499 0.35131 0.0
Li1 Li 0.03658 0.31272 0.37288 0.0
Li2 Li 0.04802 0.29757 0.35231 0.0
Li3 Li 0.03272 0.28436 0.37236 0.0
C4 C 0.03692 0.32013 0.33576 0.0
N5 N 0.03849 0.33203 0.30718 0.0
C6 C 0.03828 0.33626 0.33513 0.0
C7 C 0.03642 0.31007 0.32189 0.0
C8 C 0.03903 0.34204 0.32056 0.0
C9 C 0.03722 0.3163 0.30754 0.0
C10 C 0.00925 0.30461 0.38412 0.0
C11 C 0.00735 0.31673 0.41022 0.0
N12 N 0.99527 0.32238 0.40418 0.0
C13 C 0.9968 0.31054 0.37818 0.0
C14 C 0.01454 0.3077 0.40029 0.0
C15 C 0.98989 0.31948 0.38851 0.0
C16 C 0.98636 0.28062 0.34322 0.0
N17 N 0.99844 0.29193 0.33901 0.0
C18 C 0.97993 0.30037 0.32179 0.0
C19 C 0.9955 0.30171 0.32843 0.0
C20 C 0.96722 0.28892 0.32612 0.0
C21 C 0.97068 0.27881 0.33682 0.0
H22 H 0.9888 0.27351 0.35222 0.0
H23 H 0.00505 0.31098 0.32555 0.0
C24 C 0.04961 0.33812 0.39846 0.0
N25 N 0.03908 0.33291 0.38521 0.0
C26 C 0.05005 0.35243 0.40763 0.0
C27 C 0.02902 0.35582 0.3892 0.0
C28 C 0.02911 0.34158 0.38033 0.0
C29 C 0.03951 0.36143 0.40316 0.0
H30 H 0.05756 0.33112 0.402 0.0
H31 H 0.02089 0.33718 0.36971 0.0
C32 C 0.01953 0.26487 0.34064 0.0
N33 N 0.99714 0.23915 0.32378 0.0
C34 C 0.00901 0.25445 0.3485 0.0
C35 C 0.01866 0.26214 0.32418 0.0
C36 C 0.99778 0.24153 0.33978 0.0
C37 C 0.00726 0.2491 0.31588 0.0
C38 C 0.0617 0.29488 0.38636 0.0
C39 C 0.07177 0.28586 0.38102 0.0
C40 C 0.05985 0.29679 0.40242 0.0
C41 C 0.07981 0.27888 0.39186 0.0
C42 C 0.06807 0.28958 0.41287 0.0
N43 N 0.0778 0.28085 0.40742 0.0
C44 C 0.08045 0.3083 0.34819 0.0
C45 C 0.06595 0.28824 0.32793 0.0
C46 C 0.09467 0.30824 0.34189 0.0
N47 N 0.06649 0.29824 0.34131 0.0
C48 C 0.07985 0.28798 0.32106 0.0
C49 C 0.0946 0.29787 0.32817 0.0
H50 H 0.08063 0.316 0.35895 0.0
H51 H 0.05478 0.28024 0.32272 0.0
C52 C 0.02272 0.26634 0.39737 0.0
N53 N 0.03135 0.26717 0.3849 0.0
C54 C 0.02169 0.25386 0.40647 0.0
C55 C 0.03819 0.24312 0.38956 0.0
C56 C 0.03893 0.25583 0.38081 0.0
C57 C 0.0295 0.24201 0.40263 0.0
H58 H 0.0165 0.27527 0.40019 0.0
H59 H 0.04556 0.25667 0.37073 0.0
O60 O 0.03622 0.3143 0.34993 0.0
O61 O 0.01643 0.29612 0.37414 0.0
O62 O 0.03058 0.27767 0.34898 0.0
O63 O 0.05341 0.30149 0.37588 0.0
H64 H 0.03873 0.34421 0.3458 0.0
H65 H 0.03533 0.29759 0.32221 0.0
H66 H 0.04005 0.3545 0.31988 0.0
H67 H 0.03681 0.30863 0.2967 0.0
H68 H 0.01142 0.3193 0.42273 0.0
H69 H 0.99265 0.30849 0.36571 0.0
H70 H 0.0243 0.30343 0.40508 0.0
H71 H 0.98031 0.3242 0.38406 0.0
H72 H 0.97785 0.30841 0.31356 0.0
H73 H 0.96129 0.27006 0.34082 0.0
H74 H 0.05857 0.35637 0.4181 0.0
H75 H 0.02049 0.36211 0.38532 0.0
H76 H 0.00923 0.25644 0.36117 0.0
H77 H 0.02665 0.26999 0.31782 0.0
H78 H 0.98952 0.23345 0.34573 0.0
H79 H 0.00645 0.24689 0.30314 0.0
H80 H 0.07317 0.28405 0.36861 0.0
H81 H 0.052 0.30359 0.40675 0.0
H82 H 0.08757 0.27181 0.38787 0.0
H83 H 0.06667 0.29088 0.42532 0.0
H84 H 0.10564 0.3159 0.34807 0.0
H85 H 0.07898 0.27997 0.31034 0.0
H86 H 0.01462 0.25335 0.41624 0.0
H87 H 0.0445 0.23435 0.38622 0.0
Li88 Li 0.00924 0.76976 0.6614 0.0
Li89 Li 0.02197 0.75847 0.68231 0.0
Li90 Li 0.00421 0.74103 0.66062 0.0
Li91 Li 0.9929 0.75578 0.68164 0.0
C92 C 0.03554 0.76433 0.65085 0.0
N93 N 0.0576 0.78044 0.6331 0.0
C94 C 0.05044 0.7733 0.65813 0.0
C95 C 0.03189 0.76353 0.63453 0.0
C96 C 0.06143 0.78135 0.64896 0.0
C97 C 0.04319 0.77178 0.62577 0.0
C98 C 0.01707 0.78654 0.69763 0.0
C99 C 0.01916 0.79502 0.72559 0.0
N100 N 0.02989 0.8087 0.72378 0.0
C101 C 0.02804 0.80073 0.69603 0.0
C102 C 0.01252 0.78369 0.71251 0.0
C103 C 0.03442 0.81177 0.7094 0.0
C104 C 0.99773 0.78822 0.64019 0.0
N105 N 0.01096 0.78719 0.64915 0.0
C106 C 0.02614 0.81102 0.64086 0.0
C107 C 0.02496 0.79839 0.64976 0.0
C108 C 0.01269 0.81241 0.63142 0.0
C109 C 0.99832 0.80077 0.63123 0.0
H110 H 0.98663 0.77938 0.64012 0.0
H111 H 0.03528 0.79754 0.65715 0.0
C112 C 0.04847 0.74766 0.68969 0.0
N113 N 0.04196 0.75958 0.69468 0.0
C114 C 0.06363 0.74742 0.69605 0.0
C115 C 0.06548 0.77195 0.71255 0.0
C116 C 0.05007 0.77152 0.70608 0.0
C117 C 0.07263 0.75988 0.7074 0.0
H118 H 0.04201 0.7385 0.68034 0.0
H119 H 0.04494 0.78103 0.70985 0.0
C120 C 0.97805 0.74405 0.64588 0.0
N121 N 0.95803 0.72359 0.62166 0.0
C122 C 0.96422 0.73351 0.64911 0.0
C123 C 0.98165 0.74427 0.63033 0.0
C124 C 0.95426 0.72324 0.6367 0.0
C125 C 0.9714 0.7338 0.61825 0.0
C126 C 0.00987 0.73119 0.69458 0.0
C127 C 0.01543 0.71799 0.68999 0.0
C128 C 0.01029 0.73636 0.71062 0.0
C129 C 0.02158 0.71032 0.70156 0.0
C130 C 0.01653 0.72838 0.72184 0.0
N131 N 0.02202 0.71564 0.71712 0.0
C132 C 0.01194 0.72025 0.63716 0.0
C133 C 0.98951 0.70827 0.64934 0.0
C134 C 0.01119 0.70586 0.62812 0.0
N135 N 0.0012 0.72122 0.64749 0.0
C136 C 0.98834 0.69356 0.64054 0.0
C137 C 0.99934 0.69221 0.62979 0.0
H138 H 0.02138 0.73056 0.63622 0.0
H139 H 0.98129 0.70928 0.65786 0.0
C140 C 0.9714 0.76986 0.69684 0.0
N141 N 0.97462 0.75573 0.69261 0.0
C142 C 0.95733 0.77037 0.70322 0.0
C143 C 0.95011 0.74175 0.70087 0.0
C144 C 0.96445 0.74181 0.69473 0.0
C145 C 0.94621 0.75618 0.705 0.0
H146 H 0.97961 0.78076 0.69493 0.0
H147 H 0.9672 0.73071 0.6911 0.0
O148 O 0.02458 0.75637 0.65963 0.0
O149 O 0.01059 0.77567 0.68466 0.0
O150 O 0.98817 0.7539 0.65791 0.0
O151 O 0.004 0.73897 0.68343 0.0
H152 H 0.05349 0.77422 0.67074 0.0
H153 H 0.02043 0.7567 0.62868 0.0
H154 H 0.07298 0.78837 0.65445 0.0
H155 H 0.04049 0.77131 0.61314 0.0
H156 H 0.01577 0.79295 0.73718 0.0
H157 H 0.03164 0.80316 0.6846 0.0
H158 H 0.0039 0.77287 0.71393 0.0
H159 H 0.04297 0.82276 0.70834 0.0
H160 H 0.03755 0.81952 0.6413 0.0
H161 H 0.98754 0.80144 0.62444 0.0
H162 H 0.06828 0.73761 0.69186 0.0
H163 H 0.07187 0.78197 0.72107 0.0
H164 H 0.96128 0.73316 0.66108 0.0
H165 H 0.99229 0.75238 0.62763 0.0
H166 H 0.94355 0.71497 0.63903 0.0
H167 H 0.97407 0.73379 0.60617 0.0
H168 H 0.01515 0.71381 0.67761 0.0
H169 H 0.00588 0.74645 0.71436 0.0
H170 H 0.02604 0.70016 0.69818 0.0
H171 H 0.01701 0.7323 0.7343 0.0
H172 H 0.02014 0.70534 0.62027 0.0
H173 H 0.97897 0.68338 0.64216 0.0
H174 H 0.95515 0.78182 0.70652 0.0
H175 H 0.94193 0.73047 0.70179 0.0
Li176 Li 0.51772 0.79368 0.85072 0.0
Li177 Li 0.53551 0.8119 0.87173 0.0
Li178 Li 0.54719 0.79715 0.85146 0.0
Li179 Li 0.53277 0.78404 0.87199 0.0
C180 C 0.53495 0.8166 0.83334 0.0
N181 N 0.53614 0.82344 0.80267 0.0
C182 C 0.54031 0.83229 0.83039 0.0
C183 C 0.53022 0.80438 0.82072 0.0
C184 C 0.54082 0.83551 0.81479 0.0
C185 C 0.53089 0.80808 0.80529 0.0
C186 C 0.50853 0.80312 0.88387 0.0
C187 C 0.50717 0.8155 0.91001 0.0
N188 N 0.49429 0.82017 0.90435 0.0
C189 C 0.4952 0.80793 0.87835 0.0
C190 C 0.51449 0.80681 0.89986 0.0
C191 C 0.48819 0.81657 0.88888 0.0
C192 C 0.48623 0.7765 0.83692 0.0
N193 N 0.4973 0.79068 0.83837 0.0
C194 C 0.47793 0.80267 0.8269 0.0
C195 C 0.49346 0.80362 0.83334 0.0
C196 C 0.46612 0.78826 0.82565 0.0
C197 C 0.47061 0.77498 0.83044 0.0
H198 H 0.48926 0.76649 0.84142 0.0
H199 H 0.50223 0.81494 0.8351 0.0
C200 C 0.5487 0.83743 0.89687 0.0
N201 N 0.53772 0.83204 0.88398 0.0
C202 C 0.54927 0.85172 0.90613 0.0
C203 C 0.52737 0.8547 0.88855 0.0
C204 C 0.52733 0.84046 0.87957 0.0
C205 C 0.53839 0.86051 0.90212 0.0
H206 H 0.55693 0.83059 0.90004 0.0
H207 H 0.51873 0.83589 0.86925 0.0
C208 C 0.52197 0.76268 0.841 0.0
N209 N 0.50575 0.73311 0.82546 0.0
C210 C 0.51161 0.75198 0.84875 0.0
C211 C 0.52415 0.75828 0.82537 0.0
C212 C 0.5035 0.73711 0.84068 0.0
C213 C 0.51581 0.7433 0.81771 0.0
C214 C 0.5621 0.7956 0.88519 0.0
C215 C 0.57315 0.78789 0.87969 0.0
C216 C 0.56018 0.79688 0.90125 0.0
C217 C 0.58198 0.78144 0.89034 0.0
C218 C 0.56921 0.79024 0.91152 0.0
N219 N 0.57982 0.78271 0.90589 0.0
C220 C 0.57569 0.81173 0.83909 0.0
C221 C 0.56772 0.78369 0.83368 0.0
C222 C 0.58978 0.81215 0.83235 0.0
N223 N 0.56507 0.79762 0.83977 0.0
C224 C 0.58162 0.78356 0.8268 0.0
C225 C 0.59304 0.79791 0.82626 0.0
H226 H 0.5734 0.82264 0.84417 0.0
H227 H 0.55931 0.7726 0.83472 0.0
C228 C 0.52345 0.76585 0.89697 0.0
N229 N 0.53226 0.76713 0.88466 0.0
C230 C 0.52299 0.75351 0.90617 0.0
C231 C 0.54052 0.74389 0.88971 0.0
C232 C 0.54067 0.75643 0.88086 0.0
C233 C 0.5316 0.7423 0.90259 0.0
H234 H 0.51664 0.77432 0.89959 0.0
H235 H 0.54747 0.75765 0.87091 0.0
O236 O 0.53457 0.81327 0.84856 0.0
O237 O 0.51578 0.79495 0.87365 0.0
O238 O 0.5303 0.77719 0.84878 0.0
O239 O 0.55306 0.80165 0.87488 0.0
H240 H 0.54406 0.84187 0.84006 0.0
H241 H 0.52599 0.7922 0.82281 0.0
H242 H 0.54495 0.8476 0.81232 0.0
H243 H 0.52724 0.79874 0.79541 0.0
H244 H 0.51176 0.81857 0.92237 0.0
H245 H 0.49033 0.80511 0.86607 0.0
H246 H 0.5248 0.80323 0.90434 0.0
H247 H 0.47791 0.82044 0.88474 0.0
H248 H 0.47507 0.81333 0.82368 0.0
H249 H 0.46206 0.76355 0.82955 0.0
H250 H 0.55816 0.85582 0.91629 0.0
H251 H 0.51859 0.86085 0.88507 0.0
H252 H 0.5096 0.75522 0.86077 0.0
H253 H 0.5322 0.76634 0.81921 0.0
H254 H 0.49538 0.72876 0.84651 0.0
H255 H 0.51736 0.73977 0.8056 0.0
H256 H 0.57482 0.78678 0.86733 0.0
H257 H 0.5517 0.80279 0.90573 0.0
H258 H 0.59051 0.77537 0.88623 0.0
H259 H 0.56775 0.79104 0.92395 0.0
H260 H 0.59812 0.82351 0.83207 0.0
H261 H 0.58367 0.77227 0.82251 0.0
H262 H 0.51573 0.75261 0.9158 0.0
H263 H 0.54745 0.73562 0.88658 0.0
Li264 Li 0.51034 0.27001 0.16331 0.0
Li265 Li 0.52335 0.25896 0.18342 0.0
Li266 Li 0.50629 0.24106 0.16304 0.0
Li267 Li 0.49511 0.25613 0.18366 0.0
C268 C 0.52851 0.25629 0.14507 0.0
N269 N 0.53385 0.25458 0.11367 0.0
C270 C 0.544 0.25891 0.141 0.0
C271 C 0.51575 0.2529 0.13311 0.0
C272 C 0.54645 0.25798 0.12508 0.0
C273 C 0.51869 0.25205 0.11733 0.0
C274 C 0.52247 0.2874 0.1971 0.0
C275 C 0.52984 0.30154 0.22341 0.0
N276 N 0.54362 0.30993 0.21885 0.0
C277 C 0.53663 0.29624 0.19262 0.0
C278 C 0.51897 0.29009 0.21258 0.0
C279 C 0.5472 0.30754 0.20381 0.0
C280 C 0.49858 0.2923 0.14739 0.0
N281 N 0.51177 0.28725 0.15102 0.0
C282 C 0.52725 0.3071 0.13752 0.0
C283 C 0.52597 0.29442 0.14637 0.0
C284 C 0.51383 0.31265 0.13355 0.0
C285 C 0.49934 0.30503 0.13865 0.0
H286 H 0.48749 0.28653 0.15143 0.0
H287 H 0.53634 0.29032 0.14956 0.0
C288 C 0.55439 0.25657 0.18677 0.0
N289 N 0.54381 0.26132 0.19556 0.0
C290 C 0.56986 0.25789 0.19336 0.0
C291 C 0.56327 0.26812 0.21841 0.0
C292 C 0.54787 0.26679 0.21123 0.0
C293 C 0.57457 0.26388 0.20934 0.0
H294 H 0.55079 0.25164 0.17456 0.0
H295 H 0.53923 0.27014 0.21817 0.0
C296 C 0.47466 0.2437 0.15589 0.0
N297 N 0.444 0.22484 0.14816 0.0
C298 C 0.47019 0.22891 0.16127 0.0
C299 C 0.46355 0.24889 0.14656 0.0
C300 C 0.45463 0.21955 0.15724 0.0
C301 C 0.4481 0.23918 0.14278 0.0
C302 C 0.51247 0.23664 0.20054 0.0
C303 C 0.52228 0.22632 0.20153 0.0
C304 C 0.50899 0.24432 0.21439 0.0
C305 C 0.52852 0.22392 0.21637 0.0
C306 C 0.51543 0.24157 0.229 0.0
N307 N 0.525 0.23153 0.22968 0.0
C308 C 0.51657 0.21458 0.15427 0.0
C309 C 0.49358 0.21473 0.13758 0.0
C310 C 0.51754 0.20048 0.1458 0.0
N311 N 0.50467 0.22133 0.1502 0.0
C312 C 0.49413 0.20057 0.12869 0.0
C313 C 0.50629 0.19327 0.13273 0.0
H314 H 0.52551 0.22036 0.164 0.0
H315 H 0.48451 0.22055 0.13421 0.0
C316 C 0.47309 0.27027 0.19767 0.0
N317 N 0.47684 0.25621 0.19469 0.0
C318 C 0.45903 0.2709 0.20401 0.0
C319 C 0.45295 0.24255 0.2043 0.0
C320 C 0.46727 0.24251 0.19816 0.0
C321 C 0.44848 0.25686 0.20711 0.0
H322 H 0.48088 0.281 0.19479 0.0
H323 H 0.47049 0.23145 0.1957 0.0
O324 O 0.52602 0.25731 0.16067 0.0
O325 O 0.51203 0.27622 0.18636 0.0
O326 O 0.48977 0.25316 0.15981 0.0
O327 O 0.50653 0.23949 0.18614 0.0
H328 H 0.55407 0.26177 0.15004 0.0
H329 H 0.50368 0.25094 0.13587 0.0
H330 H 0.55838 0.25999 0.1218 0.0
H331 H 0.50892 0.2494 0.10799 0.0
H332 H 0.52734 0.30371 0.23546 0.0
H333 H 0.53949 0.29425 0.18068 0.0
H334 H 0.50802 0.28337 0.2162 0.0
H335 H 0.55826 0.3144 0.20055 0.0
H336 H 0.53863 0.31239 0.13372 0.0
H337 H 0.48873 0.30902 0.13616 0.0
H338 H 0.57805 0.2541 0.18603 0.0
H339 H 0.56641 0.2727 0.23082 0.0
H340 H 0.47864 0.22468 0.16847 0.0
H341 H 0.46683 0.26031 0.14229 0.0
H342 H 0.45101 0.20808 0.16134 0.0
H343 H 0.43937 0.24306 0.13558 0.0
H344 H 0.52513 0.22027 0.19099 0.0
H345 H 0.50158 0.25248 0.21387 0.0
H346 H 0.53618 0.21601 0.21731 0.0
H347 H 0.5129 0.2475 0.2398 0.0
H348 H 0.52704 0.19528 0.14949 0.0
H349 H 0.48537 0.19564 0.11854 0.0
H350 H 0.45642 0.28229 0.20629 0.0
H351 H 0.44525 0.23136 0.20628 0.0
Li352 Li 0.04354 0.80216 0.0997 0.0
Li353 Li 0.05927 0.7901 0.1186 0.0
Li354 Li 0.041 0.77349 0.0978 0.0
Li355 Li 0.03034 0.78575 0.11936 0.0
C356 C 0.06282 0.78512 0.08088 0.0
N357 N 0.06694 0.77212 0.0513 0.0
C358 C 0.07464 0.77711 0.07917 0.0
C359 C 0.05316 0.78661 0.06756 0.0
C360 C 0.07652 0.77059 0.06411 0.0
C361 C 0.05542 0.77993 0.05271 0.0
C362 C 0.05642 0.82123 0.12853 0.0
C363 C 0.06179 0.84628 0.1452 0.0
N364 N 0.07534 0.85152 0.1385 0.0
C365 C 0.0704 0.82684 0.12181 0.0
C366 C 0.05206 0.831 0.14031 0.0
C367 C 0.0798 0.8422 0.12701 0.0
C368 C 0.02881 0.82502 0.08891 0.0
N369 N 0.04273 0.82073 0.08961 0.0
C370 C 0.05509 0.84381 0.07809 0.0
C371 C 0.05573 0.82972 0.08422 0.0
C372 C 0.04089 0.84864 0.07735 0.0
C373 C 0.0276 0.83891 0.08275 0.0
H374 H 0.01867 0.81776 0.09341 0.0
H375 H 0.06669 0.8261 0.08489 0.0
C376 C 0.08595 0.77948 0.12637 0.0
N377 N 0.07916 0.79134 0.13086 0.0
C378 C 0.09996 0.77832 0.13472 0.0
C379 C 0.09984 0.80161 0.15235 0.0
C380 C 0.08572 0.80226 0.14367 0.0
C381 C 0.10712 0.78946 0.14795 0.0
H382 H 0.08029 0.77072 0.11639 0.0
H383 H 0.07989 0.81129 0.1474 0.0
C384 C 0.01 0.77496 0.08881 0.0
N385 N 0.98228 0.75489 0.07305 0.0
C386 C 0.00296 0.76089 0.09461 0.0
C387 C 0.003 0.77883 0.07501 0.0
C388 C 0.98892 0.7509 0.08647 0.0
C389 C 0.98896 0.76853 0.06721 0.0
C390 C 0.04484 0.76608 0.13505 0.0
C391 C 0.04434 0.75041 0.13722 0.0
C392 C 0.0471 0.7776 0.14819 0.0
C393 C 0.04607 0.74649 0.15255 0.0
C394 C 0.04879 0.7732 0.16332 0.0
N395 N 0.04824 0.75787 0.16517 0.0
C396 C 0.04829 0.74488 0.09021 0.0
C397 C 0.02826 0.74791 0.07125 0.0
C398 C 0.04749 0.72976 0.08267 0.0
N399 N 0.03867 0.75358 0.08456 0.0
C400 C 0.02685 0.73265 0.06347 0.0
C401 C 0.0365 0.72333 0.06924 0.0
H402 H 0.0565 0.74965 0.10077 0.0
H403 H 0.02088 0.75506 0.06676 0.0
C404 C 0.0075 0.79677 0.1353 0.0
N405 N 0.01323 0.78385 0.13225 0.0
C406 C 0.9948 0.79606 0.14428 0.0
C407 C 0.99416 0.76877 0.14694 0.0
C408 C 0.00681 0.76998 0.13783 0.0
C409 C 0.98793 0.78191 0.15025 0.0
H410 H 0.01278 0.80764 0.13067 0.0
H411 H 0.01139 0.75978 0.13509 0.0
O412 O 0.06036 0.79108 0.09555 0.0
O413 O 0.04696 0.80628 0.1236 0.0
O414 O 0.02388 0.78477 0.09639 0.0
O415 O 0.04327 0.77005 0.12007 0.0
H416 H 0.08221 0.77584 0.08936 0.0
H417 H 0.04385 0.79265 0.06872 0.0
H418 H 0.08556 0.76429 0.0626 0.0
H419 H 0.04796 0.78091 0.0423 0.0
H420 H 0.05857 0.85397 0.15433 0.0
H421 H 0.074 0.8194 0.11275 0.0
H422 H 0.04127 0.8268 0.14562 0.0
H423 H 0.09065 0.8467 0.12192 0.0
H424 H 0.0656 0.85081 0.07392 0.0
H425 H 0.01646 0.84221 0.08262 0.0
H426 H 0.10516 0.76881 0.13082 0.0
H427 H 0.10477 0.81028 0.16262 0.0
H428 H 0.00841 0.7576 0.10512 0.0
H429 H 0.0084 0.78965 0.07034 0.0
H430 H 0.98336 0.73994 0.09077 0.0
H431 H 0.98341 0.77135 0.05649 0.0
H432 H 0.04263 0.74137 0.12716 0.0
H433 H 0.04756 0.7898 0.14679 0.0
H434 H 0.0457 0.7344 0.15441 0.0
H435 H 0.05054 0.78198 0.1736 0.0
H436 H 0.05506 0.72297 0.08761 0.0
H437 H 0.01833 0.72819 0.05305 0.0
H438 H 0.9905 0.80652 0.14665 0.0
H439 H 0.98912 0.75756 0.15109 0.0
Li440 Li 0.5015 0.77785 0.4353 0.0
Li441 Li 0.4836 0.76165 0.41319 0.0
Li442 Li 0.49782 0.74863 0.43316 0.0
Li443 Li 0.51209 0.76439 0.41357 0.0
C444 C 0.47493 0.76194 0.44986 0.0
N445 N 0.46134 0.76385 0.47766 0.0
C446 C 0.46093 0.76684 0.45026 0.0
C447 C 0.48194 0.75787 0.46357 0.0
C448 C 0.45428 0.76778 0.46444 0.0
C449 C 0.4749 0.75894 0.47751 0.0
C450 C 0.49437 0.789 0.4022 0.0
C451 C 0.48499 0.79117 0.3754 0.0
N452 N 0.48022 0.8042 0.38068 0.0
C453 C 0.48938 0.80243 0.40735 0.0
C454 C 0.49218 0.78334 0.38609 0.0
C455 C 0.48227 0.80995 0.39629 0.0
C456 C 0.51576 0.81042 0.44347 0.0
N457 N 0.50543 0.79815 0.4486 0.0
C458 C 0.49919 0.81621 0.46851 0.0
C459 C 0.49746 0.80076 0.46114 0.0
C460 C 0.50926 0.82916 0.46301 0.0
C461 C 0.51789 0.82603 0.45052 0.0
H462 H 0.52183 0.80816 0.43336 0.0
H463 H 0.4894 0.79102 0.46524 0.0
C464 C 0.45768 0.74962 0.38791 0.0
N465 N 0.46395 0.76067 0.40067 0.0
C466 C 0.44386 0.75031 0.37869 0.0
C467 C 0.44332 0.77369 0.39593 0.0
C468 C 0.45689 0.77236 0.40493 0.0
C469 C 0.43653 0.76259 0.38254 0.0
H470 H 0.46344 0.74035 0.3848 0.0
H471 H 0.46209 0.78099 0.41515 0.0
C472 C 0.52973 0.7762 0.44687 0.0
N473 N 0.5525 0.79865 0.46726 0.0
C474 C 0.54189 0.78678 0.44093 0.0
C475 C 0.5292 0.77698 0.46317 0.0
C476 C 0.55328 0.79805 0.45144 0.0
C477 C 0.54081 0.78844 0.47329 0.0
C478 C 0.49993 0.73509 0.39866 0.0
C479 C 0.50783 0.72414 0.40372 0.0
C480 C 0.49806 0.73674 0.38261 0.0
C481 C 0.51388 0.71512 0.39263 0.0
C482 C 0.5043 0.72751 0.3719 0.0
N483 N 0.51202 0.71699 0.37709 0.0
C484 C 0.48427 0.71689 0.43931 0.0
C485 C 0.50946 0.72925 0.4536 0.0
C486 C 0.48418 0.7026 0.44533 0.0
N487 N 0.49687 0.72981 0.4434 0.0
C488 C 0.50984 0.71524 0.45994 0.0
C489 C 0.49719 0.70152 0.45565 0.0
H490 H 0.4745 0.71755 0.43099 0.0
H491 H 0.51941 0.73962 0.45657 0.0
C492 C 0.53219 0.7764 0.39062 0.0
N493 N 0.52957 0.76572 0.40115 0.0
C494 C 0.54493 0.77752 0.38165 0.0
C495 C 0.5523 0.75686 0.39471 0.0
C496 C 0.53943 0.75617 0.40345 0.0
C497 C 0.55521 0.76765 0.38359 0.0
H498 H 0.52449 0.78417 0.38924 0.0
H499 H 0.53736 0.74807 0.41219 0.0
O500 O 0.48157 0.7609 0.43606 0.0
O501 O 0.50108 0.78126 0.41287 0.0
O502 O 0.51822 0.76537 0.43675 0.0
O503 O 0.49416 0.74423 0.40937 0.0
H504 H 0.45528 0.76993 0.43974 0.0
H505 H 0.49272 0.75401 0.46348 0.0
H506 H 0.44348 0.77162 0.46494 0.0
H507 H 0.48024 0.75588 0.48822 0.0
H508 H 0.48316 0.78686 0.36292 0.0
H509 H 0.49073 0.80686 0.41977 0.0
H510 H 0.49585 0.77292 0.38189 0.0
H511 H 0.47828 0.8203 0.40013 0.0
H512 H 0.49249 0.818 0.47827 0.0
H513 H 0.52567 0.8356 0.44573 0.0
H514 H 0.439 0.74126 0.36871 0.0
H515 H 0.43849 0.7836 0.39931 0.0
H516 H 0.54242 0.78643 0.42835 0.0
H517 H 0.51988 0.76892 0.46797 0.0
H518 H 0.56271 0.80637 0.44701 0.0
H519 H 0.5405 0.78923 0.48593 0.0
H520 H 0.50946 0.72275 0.41609 0.0
H521 H 0.4919 0.74508 0.37847 0.0
H522 H 0.5201 0.70666 0.3964 0.0
H523 H 0.503 0.72871 0.35945 0.0
H524 H 0.47424 0.69236 0.44147 0.0
H525 H 0.52002 0.71515 0.46802 0.0
H526 H 0.54661 0.78596 0.37318 0.0
H527 H 0.56005 0.74923 0.39686 0.0
Li528 Li 0.54147 0.30331 0.59788 0.0
Li529 Li 0.55725 0.29139 0.61756 0.0
Li530 Li 0.53908 0.27445 0.59579 0.0
Li531 Li 0.52806 0.28662 0.61751 0.0
C532 C 0.56359 0.28624 0.58127 0.0
N533 N 0.57303 0.2729 0.55438 0.0
C534 C 0.57613 0.27905 0.58248 0.0
C535 C 0.55591 0.28676 0.56642 0.0
C536 C 0.58071 0.27234 0.56873 0.0
C537 C 0.56084 0.27992 0.55296 0.0
C538 C 0.54997 0.31817 0.63443 0.0
C539 C 0.55219 0.32612 0.66249 0.0
N540 N 0.56144 0.34061 0.66061 0.0
C541 C 0.55935 0.33319 0.63274 0.0
C542 C 0.54623 0.31463 0.64938 0.0
C543 C 0.56509 0.34436 0.64614 0.0
C544 C 0.52708 0.32486 0.58354 0.0
N545 N 0.54131 0.32194 0.58781 0.0
C546 C 0.55506 0.34656 0.57976 0.0
C547 C 0.55518 0.33239 0.58595 0.0
C548 C 0.54053 0.35 0.57536 0.0
C549 C 0.5264 0.3388 0.57721 0.0
H550 H 0.51622 0.31648 0.58535 0.0
H551 H 0.56636 0.32986 0.58953 0.0
C552 C 0.58124 0.27897 0.62972 0.0
N553 N 0.57709 0.29293 0.62999 0.0
C554 C 0.59526 0.27816 0.63828 0.0
C555 C 0.60085 0.30624 0.6471 0.0
C556 C 0.58661 0.30649 0.63839 0.0
C557 C 0.60537 0.29191 0.64714 0.0
H558 H 0.57355 0.26838 0.62286 0.0
H559 H 0.58325 0.31751 0.63828 0.0
C560 C 0.50709 0.27477 0.5898 0.0
N561 N 0.47785 0.25328 0.58114 0.0
C562 C 0.5034 0.2605 0.59628 0.0
C563 C 0.49593 0.2781 0.5789 0.0
C564 C 0.48855 0.2498 0.59176 0.0
C565 C 0.48121 0.26708 0.57467 0.0
C566 C 0.54061 0.26243 0.63016 0.0
C567 C 0.53434 0.24599 0.62718 0.0
C568 C 0.54626 0.26963 0.6456 0.0
C569 C 0.53369 0.23701 0.63976 0.0
C570 C 0.54542 0.26024 0.65786 0.0
N571 N 0.53919 0.24426 0.65471 0.0
C572 C 0.54781 0.24664 0.58734 0.0
C573 C 0.52603 0.24863 0.56994 0.0
C574 C 0.54713 0.23161 0.57966 0.0
N575 N 0.5373 0.25478 0.58251 0.0
C576 C 0.52473 0.23344 0.56207 0.0
C577 C 0.53531 0.22468 0.56701 0.0
H578 H 0.55657 0.25173 0.59743 0.0
H579 H 0.51783 0.25531 0.56622 0.0
C580 C 0.50459 0.29735 0.63245 0.0
N581 N 0.51087 0.28469 0.63036 0.0
C582 C 0.49181 0.29677 0.6413 0.0
C583 C 0.4922 0.27014 0.64576 0.0
C584 C 0.5049 0.2712 0.63675 0.0
C585 C 0.48539 0.28302 0.64813 0.0
H586 H 0.50945 0.30788 0.62711 0.0
H587 H 0.50983 0.26116 0.63478 0.0
O588 O 0.55861 0.29246 0.59458 0.0
O589 O 0.54422 0.30713 0.62144 0.0
O590 O 0.52156 0.28545 0.59403 0.0
O591 O 0.54132 0.27136 0.61795 0.0
H592 H 0.58215 0.27852 0.59391 0.0
H593 H 0.54613 0.29225 0.56534 0.0
H594 H 0.59034 0.26665 0.56947 0.0
H595 H 0.55496 0.28015 0.54138 0.0
H596 H 0.54943 0.32353 0.67414 0.0
H597 H 0.56226 0.33615 0.62123 0.0
H598 H 0.5387 0.30319 0.65085 0.0
H599 H 0.57245 0.356 0.64504 0.0
H600 H 0.56625 0.35472 0.57843 0.0
H601 H 0.51493 0.34099 0.57422 0.0
H602 H 0.59802 0.26678 0.6381 0.0
H603 H 0.60834 0.3172 0.65354 0.0
H604 H 0.51191 0.25766 0.60463 0.0
H605 H 0.49862 0.28907 0.57373 0.0
H606 H 0.48554 0.23871 0.59668 0.0
H607 H 0.47245 0.2695 0.56624 0.0
H608 H 0.52993 0.24023 0.61528 0.0
H609 H 0.55137 0.28229 0.64807 0.0
H610 H 0.52881 0.22428 0.63764 0.0
H611 H 0.54976 0.26564 0.66987 0.0
H612 H 0.5554 0.22522 0.58398 0.0
H613 H 0.51551 0.22856 0.55229 0.0
H614 H 0.48685 0.30692 0.64253 0.0
H615 H 0.48785 0.25935 0.6509 0.0
Li616 Li 0.99924 0.27584 0.93361 0.0
Li617 Li 0.9802 0.26006 0.91231 0.0
Li618 Li 0.99477 0.247 0.93288 0.0
Li619 Li 0.00954 0.26241 0.91273 0.0
C620 C 0.97118 0.26509 0.94686 0.0
N621 N 0.95525 0.27607 0.97018 0.0
C622 C 0.96279 0.27637 0.94407 0.0
C623 C 0.97135 0.25928 0.96143 0.0
C624 C 0.95486 0.28181 0.95604 0.0
C625 C 0.96324 0.265 0.97309 0.0
C626 C 0.99697 0.28309 0.89608 0.0
C627 C 0.99416 0.27578 0.86786 0.0
N628 N 0.99483 0.29108 0.86576 0.0
C629 C 0.99763 0.29874 0.89363 0.0
C630 C 0.9952 0.27151 0.88309 0.0
C631 C 0.99652 0.30254 0.87822 0.0
C632 C 0.0113 0.30882 0.93941 0.0
N633 N 0.00355 0.29646 0.94652 0.0
C634 C 1.00039 0.31458 0.96821 0.0
C635 C 0.99858 0.29906 0.96095 0.0
C636 C 0.00774 0.32757 0.96076 0.0
C637 C 0.01357 0.32448 0.94634 0.0
H638 H 0.01545 0.30653 0.92812 0.0
H639 H 0.99296 0.28918 0.96676 0.0
C640 C 0.94944 0.24572 0.89383 0.0
N641 N 0.96051 0.25937 0.89993 0.0
C642 C 0.93522 0.24632 0.88523 0.0
C643 C 0.94421 0.27492 0.88927 0.0
C644 C 0.95803 0.27377 0.89795 0.0
C645 C 0.93242 0.26111 0.88282 0.0
H646 H 0.95154 0.23439 0.89576 0.0
H647 H 0.96679 0.28447 0.90321 0.0
C648 C 0.02559 0.2739 0.9473 0.0
N649 N 0.04509 0.29618 0.97048 0.0
C650 C 0.03841 0.28527 0.9433 0.0
C651 C 0.02268 0.27383 0.96306 0.0
C652 C 0.04813 0.29644 0.9552 0.0
C653 C 0.03268 0.2852 0.97462 0.0
C654 C 0.99165 0.22946 0.89954 0.0
C655 C 1.00036 0.21932 0.905 0.0
C656 C 0.98303 0.2256 0.88452 0.0
C657 C 1.00049 0.20558 0.89525 0.0
C658 C 0.98347 0.21176 0.87512 0.0
N659 N 0.99212 0.20212 0.88063 0.0
C660 C 0.98122 0.21504 0.93883 0.0
C661 C 0.00585 0.22785 0.95395 0.0
C662 C 0.98126 0.20075 0.94483 0.0
N663 N 0.9935 0.22818 0.94331 0.0
C664 C 0.00631 0.21388 0.96033 0.0
C665 C 0.99405 0.19991 0.95561 0.0
H666 H 0.97166 0.21548 0.93013 0.0
H667 H 0.01562 0.23833 0.95718 0.0
C668 C 0.03379 0.27752 0.89496 0.0
N669 N 0.02708 0.26354 0.9002 0.0
C670 C 0.04652 0.2788 0.88595 0.0
C671 C 0.0458 0.25149 0.88844 0.0
C672 C 0.033 0.25071 0.8973 0.0
C673 C 0.05269 0.26565 0.88253 0.0
H674 H 0.02939 0.2878 0.89789 0.0
H675 H 0.02794 0.23989 0.90201 0.0
O676 O 0.97893 0.25952 0.93531 0.0
O677 O 0.99785 0.27918 0.91114 0.0
O678 O 0.01565 0.26321 0.93576 0.0
O679 O 0.99109 0.2428 0.90904 0.0
H680 H 0.96254 0.28096 0.93284 0.0
H681 H 0.97775 0.25049 0.96371 0.0
H682 H 0.9484 0.29061 0.9541 0.0
H683 H 0.96332 0.26067 0.98445 0.0
H684 H 0.99283 0.26693 0.85771 0.0
H685 H 0.99885 0.30784 0.90354 0.0
H686 H 0.99477 0.2594 0.88473 0.0
H687 H 0.99699 0.3146 0.87616 0.0
H688 H 0.996 0.31641 0.9795 0.0
H689 H 0.01931 0.33409 0.94015 0.0
H690 H 0.92647 0.23531 0.88076 0.0
H691 H 0.94294 0.28661 0.88757 0.0
H692 H 0.04073 0.28554 0.93112 0.0
H693 H 0.01263 0.26527 0.9663 0.0
H694 H 0.05807 0.30535 0.95229 0.0
H695 H 0.03052 0.28536 0.98686 0.0
H696 H 0.0071 0.2221 0.91659 0.0
H697 H 0.97603 0.23319 0.88017 0.0
H698 H 0.00726 0.19768 0.89931 0.0
H699 H 0.97689 0.20865 0.86345 0.0
H700 H 0.97163 0.19034 0.9406 0.0
H701 H 0.01632 0.21403 0.96878 0.0
H702 H 0.05168 0.29007 0.88197 0.0
H703 H 0.05016 0.24105 0.88613 0.0
Li704 Li 0.38592 0.0228 0.28816 0.0
Li705 Li 0.36253 0.01148 0.26945 0.0
Li706 Li 0.38786 0.02259 0.26063 0.0
Li707 Li 0.37394 0.03935 0.27346 0.0
C708 C 0.39377 0.99636 0.27254 0.0
N709 N 0.4177 0.98092 0.27304 0.0
C710 C 0.39017 0.97998 0.26808 0.0
C711 C 0.40954 0.00491 0.27721 0.0
C712 C 0.40244 0.97238 0.26843 0.0
C713 C 0.42146 0.99688 0.2774 0.0
C714 C 0.35741 0.01795 0.30076 0.0
C715 C 0.34161 0.0164 0.32252 0.0
N716 N 0.34368 0.00177 0.32415 0.0
C717 C 0.35936 0.00287 0.30265 0.0
C718 C 0.34846 0.02477 0.31077 0.0
C719 C 0.35234 0.99489 0.31455 0.0
C720 C 0.40325 0.03621 0.31687 0.0
N721 N 0.39685 0.02197 0.3079 0.0
C722 C 0.40749 0.00846 0.32719 0.0
C723 C 0.3986 0.00818 0.3128 0.0
C724 C 0.41443 0.02304 0.3366 0.0
C725 C 0.4121 0.03703 0.33139 0.0
H726 H 0.40158 0.04694 0.31262 0.0
H727 H 0.39325 0.99699 0.30551 0.0
C728 C 0.3434 0.98755 0.24822 0.0
N729 N 0.34375 0.99504 0.26297 0.0
C730 C 0.33073 0.97472 0.24194 0.0
C731 C 0.31882 0.97766 0.26608 0.0
C732 C 0.33149 0.9908 0.27167 0.0
C733 C 0.3185 0.96913 0.25115 0.0
H734 H 0.35315 0.99148 0.24141 0.0
H735 H 0.33162 0.9973 0.28309 0.0
C736 C 0.40539 0.05363 0.27145 0.0
N737 N 0.42254 0.07976 0.25936 0.0
C738 C 0.40155 0.05591 0.25584 0.0
C739 C 0.41796 0.06462 0.2809 0.0
C740 C 0.41036 0.0692 0.24995 0.0
C741 C 0.42649 0.07776 0.27458 0.0
C742 C 0.35304 0.02767 0.24628 0.0
C743 C 0.35071 0.02834 0.23006 0.0
C744 C 0.34102 0.02918 0.2556 0.0
C745 C 0.3364 0.03059 0.22342 0.0
C746 C 0.32689 0.03143 0.24852 0.0
N747 N 0.3249 0.03209 0.23271 0.0
C748 C 0.39273 0.00787 0.23225 0.0
C749 C 0.41643 0.02475 0.24641 0.0
C750 C 0.40125 0.00246 0.22089 0.0
N751 N 0.40041 0.01869 0.24471 0.0
C752 C 0.42543 0.01974 0.23527 0.0
C753 C 0.41785 0.00828 0.22241 0.0
H754 H 0.38001 0.00306 0.23146 0.0
H755 H 0.42226 0.03306 0.25666 0.0
C756 C 0.36375 0.06421 0.2881 0.0
N757 N 0.3683 0.05872 0.27433 0.0
C758 C 0.35576 0.07613 0.28843 0.0
C759 C 0.35833 0.07716 0.26064 0.0
C760 C 0.36633 0.06531 0.26088 0.0
C761 C 0.35241 0.08223 0.2744 0.0
H762 H 0.36543 0.05863 0.29856 0.0
H763 H 0.36995 0.06061 0.25006 0.0
O764 O 0.38187 0.00394 0.27199 0.0
O765 O 0.36438 0.0262 0.2894 0.0
O766 O 0.39699 0.04075 0.27759 0.0
O767 O 0.36709 0.02562 0.25289 0.0
H768 H 0.37802 0.97322 0.26435 0.0
H769 H 0.41255 0.01761 0.28063 0.0
H770 H 0.39983 0.9597 0.26501 0.0
H771 H 0.43372 0.00335 0.28098 0.0
H772 H 0.33465 0.02155 0.33034 0.0
H773 H 0.36603 0.99726 0.29493 0.0
H774 H 0.34682 0.03642 0.30948 0.0
H775 H 0.35373 0.98322 0.31611 0.0
H776 H 0.40888 0.99741 0.33093 0.0
H777 H 0.41737 0.04849 0.33829 0.0
H778 H 0.33082 0.96898 0.23016 0.0
H779 H 0.3098 0.97389 0.27375 0.0
H780 H 0.39193 0.04752 0.24829 0.0
H781 H 0.4211 0.06301 0.29301 0.0
H782 H 0.40751 0.07111 0.23789 0.0
H783 H 0.43625 0.08637 0.28177 0.0
H784 H 0.3599 0.02719 0.2227 0.0
H785 H 0.34256 0.02871 0.26817 0.0
H786 H 0.33445 0.03116 0.21088 0.0
H787 H 0.31753 0.03268 0.2556 0.0
H788 H 0.39495 0.99344 0.21132 0.0
H789 H 0.43818 0.02468 0.23679 0.0
H790 H 0.35129 0.0797 0.29923 0.0
H791 H 0.35606 0.08173 0.24964 0.0
Li792 Li 0.27885 0.19253 0.52358 0.0
Li793 Li 0.29017 0.1725 0.5113 0.0
Li794 Li 0.27935 0.18944 0.4954 0.0
Li795 Li 0.26183 0.16939 0.5072 0.0
C796 C 0.31159 0.20131 0.52232 0.0
N797 N 0.3391 0.21191 0.54314 0.0
C798 C 0.31231 0.19613 0.53719 0.0
C799 C 0.32486 0.21188 0.51805 0.0
C800 C 0.32632 0.20163 0.54755 0.0
C801 C 0.33866 0.21711 0.52874 0.0
C802 C 0.27177 0.15539 0.53217 0.0
C803 C 0.26825 0.12712 0.52688 0.0
N804 N 0.26506 0.12567 0.54198 0.0
C805 C 0.26843 0.15363 0.54762 0.0
C806 C 0.27167 0.14204 0.52169 0.0
C807 C 0.26507 0.1385 0.55236 0.0
C808 C 0.26661 0.20078 0.55075 0.0
N809 N 0.27879 0.20627 0.54229 0.0
C810 C 0.28915 0.22903 0.56168 0.0
C811 C 0.28983 0.22026 0.54727 0.0
C812 C 0.27686 0.22344 0.57083 0.0
C813 C 0.26538 0.20923 0.56508 0.0
H814 H 0.25798 0.18966 0.54643 0.0
H815 H 0.29926 0.22451 0.54021 0.0
C816 C 0.31339 0.15831 0.50038 0.0
N817 N 0.30647 0.16162 0.51344 0.0
C818 C 0.32501 0.14991 0.5011 0.0
C819 C 0.32226 0.14861 0.52877 0.0
C820 C 0.31078 0.15712 0.52753 0.0
C821 C 0.32951 0.1448 0.51542 0.0
H822 H 0.30982 0.16215 0.48936 0.0
H823 H 0.30517 0.15995 0.53779 0.0
C824 C 0.25919 0.20672 0.50692 0.0
N825 N 0.25488 0.23685 0.50669 0.0
C826 C 0.24388 0.20893 0.5057 0.0
C827 C 0.27232 0.21985 0.50802 0.0
C828 C 0.24195 0.22426 0.5056 0.0
C829 C 0.26989 0.23498 0.50788 0.0
C830 C 0.26773 0.16051 0.47649 0.0
C831 C 0.25351 0.16442 0.4723 0.0
C832 C 0.2735 0.151 0.46561 0.0
C833 C 0.24532 0.15876 0.45726 0.0
C834 C 0.26496 0.14557 0.45069 0.0
N835 N 0.25116 0.14954 0.44685 0.0
C836 C 0.29564 0.20279 0.47084 0.0
C837 C 0.26835 0.20233 0.46892 0.0
C838 C 0.29705 0.20879 0.45638 0.0
N839 N 0.28141 0.19956 0.47671 0.0
C840 C 0.2692 0.20823 0.45444 0.0
C841 C 0.28363 0.21134 0.44786 0.0
H842 H 0.30579 0.20031 0.47722 0.0
H843 H 0.25713 0.19958 0.47375 0.0
C844 C 0.23028 0.16087 0.51252 0.0
N845 N 0.24138 0.15508 0.50557 0.0
C846 C 0.2149 0.15132 0.51219 0.0
C847 C 0.22271 0.12989 0.49769 0.0
C848 C 0.23795 0.13992 0.49822 0.0
C849 C 0.21094 0.1356 0.5047 0.0
H850 H 0.23343 0.17293 0.51842 0.0
H851 H 0.24703 0.13562 0.49279 0.0
O852 O 0.29808 0.19606 0.51187 0.0
O853 O 0.27498 0.17015 0.52739 0.0
O854 O 0.26118 0.19175 0.50707 0.0
O855 O 0.27607 0.16596 0.49109 0.0
H856 H 0.30216 0.18803 0.54077 0.0
H857 H 0.3245 0.21598 0.50657 0.0
H858 H 0.32703 0.19773 0.55909 0.0
H859 H 0.34902 0.22528 0.52559 0.0
H860 H 0.26814 0.11669 0.5189 0.0
H861 H 0.26844 0.16386 0.55586 0.0
H862 H 0.27422 0.14317 0.50969 0.0
H863 H 0.26248 0.13695 0.5643 0.0
H864 H 0.29816 0.24001 0.56566 0.0
H865 H 0.25582 0.20441 0.57183 0.0
H866 H 0.33045 0.14751 0.49056 0.0
H867 H 0.32515 0.14477 0.54001 0.0
H868 H 0.2336 0.19889 0.50483 0.0
H869 H 0.28426 0.21842 0.50895 0.0
H870 H 0.23016 0.22614 0.50466 0.0
H871 H 0.27993 0.24524 0.50873 0.0
H872 H 0.24884 0.17177 0.48054 0.0
H873 H 0.28449 0.14786 0.46868 0.0
H874 H 0.23432 0.16172 0.45386 0.0
H875 H 0.2693 0.13821 0.44215 0.0
H876 H 0.30836 0.21089 0.45168 0.0
H877 H 0.25861 0.21022 0.44838 0.0
H878 H 0.20626 0.15611 0.51795 0.0
H879 H 0.2201 0.11788 0.49172 0.0
Li880 Li 0.12907 0.03793 0.77714 0.0
Li881 Li 0.10764 0.02173 0.78986 0.0
Li882 Li 0.12503 0.00869 0.77378 0.0
Li883 Li 0.10484 0.02001 0.76127 0.0
C884 C 0.14341 0.02866 0.80515 0.0
N885 N 0.16865 0.03805 0.82883 0.0
C886 C 0.14182 0.03694 0.81949 0.0
C887 C 0.15778 0.02495 0.80295 0.0
C888 C 0.15473 0.04165 0.83129 0.0
C889 C 0.17041 0.02986 0.81504 0.0
C890 C 0.09815 0.04832 0.78345 0.0
C891 C 0.07331 0.05211 0.79097 0.0
N892 N 0.08088 0.06719 0.79753 0.0
C893 C 0.10568 0.06388 0.79019 0.0
C894 C 0.08182 0.04239 0.78376 0.0
C895 C 0.09675 0.07322 0.79727 0.0
C896 C 0.14479 0.06402 0.7639 0.0
N897 N 0.14401 0.05796 0.77785 0.0
C898 C 0.16335 0.08102 0.791 0.0
C899 C 0.15299 0.06612 0.7913 0.0
C900 C 0.16436 0.08759 0.77674 0.0
C901 C 0.15497 0.07884 0.76305 0.0
H902 H 0.1374 0.05735 0.75342 0.0
H903 H 0.15195 0.06127 0.80232 0.0
C904 C 0.0906 0.00623 0.81271 0.0
N905 N 0.09741 0.02077 0.8087 0.0
C906 C 0.08401 0.00487 0.82696 0.0
C907 C 0.09116 0.03349 0.83246 0.0
C908 C 0.09788 0.03428 0.8183 0.0
C909 C 0.08425 0.01865 0.837 0.0
H910 H 0.09058 0.99566 0.80498 0.0
H911 H 0.10386 0.04569 0.81523 0.0
C912 C 0.14047 0.02409 0.74962 0.0
N913 N 0.16705 0.02593 0.73401 0.0
C914 C 0.13883 0.02033 0.73321 0.0
C915 C 0.15562 0.02893 0.75807 0.0
C916 C 0.15241 0.02129 0.72554 0.0
C917 C 0.16891 0.02975 0.74997 0.0
C918 C 0.08904 0.99134 0.76536 0.0
C919 C 0.09167 0.97923 0.75486 0.0
C920 C 0.07356 0.99259 0.76653 0.0
C921 C 0.07873 0.96867 0.74549 0.0
C922 C 0.06094 0.98179 0.75695 0.0
N923 N 0.06376 0.97017 0.74671 0.0
C924 C 0.13866 0.98597 0.78597 0.0
C925 C 0.14004 0.9869 0.75858 0.0
C926 C 0.1471 0.97438 0.78589 0.0
N927 N 0.13554 0.99213 0.7725 0.0
C928 C 0.14864 0.97545 0.75799 0.0
C929 C 0.1524 0.96916 0.77181 0.0
H930 H 0.13483 0.99028 0.79685 0.0
H931 H 0.13705 0.99165 0.74794 0.0
C932 C 0.08218 0.02874 0.74059 0.0
N933 N 0.09118 0.01828 0.74219 0.0
C934 C 0.07394 0.02903 0.72595 0.0
C935 C 0.08407 0.00753 0.71498 0.0
C936 C 0.09216 0.0077 0.72981 0.0
C937 C 0.07504 0.01851 0.71283 0.0
H938 H 0.08186 0.03726 0.7505 0.0
H939 H 0.09975 0.99981 0.73129 0.0
O940 O 0.13082 0.02381 0.79353 0.0
O941 O 0.10673 0.039 0.77653 0.0
O942 O 0.12727 0.02314 0.7573 0.0
O943 O 0.10156 0.00195 0.77444 0.0
H944 H 0.13081 0.03987 0.82144 0.0
H945 H 0.15917 0.01825 0.7921 0.0
H946 H 0.15369 0.04817 0.84239 0.0
H947 H 0.1816 0.0271 0.81347 0.0
H948 H 0.06068 0.04765 0.79137 0.0
H949 H 0.11831 0.06866 0.79 0.0
H950 H 0.07582 0.0304 0.77856 0.0
H951 H 0.10242 0.08527 0.80258 0.0
H952 H 0.17018 0.08747 0.80188 0.0
H953 H 0.15549 0.08337 0.75177 0.0
H954 H 0.07877 0.99322 0.83009 0.0
H955 H 0.09182 0.04437 0.84004 0.0
H956 H 0.12719 0.01666 0.72648 0.0
H957 H 0.15711 0.03218 0.7707 0.0
H958 H 0.15132 0.01834 0.71285 0.0
H959 H 0.18071 0.03348 0.75637 0.0
H960 H 0.10359 0.97811 0.75385 0.0
H961 H 0.07134 0.00181 0.77472 0.0
H962 H 0.08058 0.9593 0.73722 0.0
H963 H 0.0489 0.98265 0.75767 0.0
H964 H 0.14982 0.96988 0.79681 0.0
H965 H 0.15228 0.97153 0.74684 0.0
H966 H 0.06704 0.03762 0.72485 0.0
H967 H 0.08549 0.9994 0.70516 0.0
Li968 Li 0.24862 0.91358 0.99771 0.0
Li969 Li 0.25504 0.89636 0.0164 0.0
Li970 Li 0.27495 0.91325 0.00348 0.0
Li971 Li 0.25592 0.89003 0.98828 0.0
C972 C 0.27158 0.93068 0.02986 0.0
N973 N 0.29298 0.95238 0.05226 0.0
C974 C 0.27423 0.92714 0.04524 0.0
C975 C 0.27957 0.94547 0.02603 0.0
C976 C 0.28515 0.93821 0.05635 0.0
C977 C 0.29042 0.95622 0.03746 0.0
C978 C 0.22782 0.87624 0.99922 0.0
C979 C 0.22493 0.84883 0.00296 0.0
N980 N 0.20893 0.84592 -0.00055 0.0
C981 C 0.21136 0.87297 0.99561 0.0
C982 C 0.23469 0.86406 0.00289 0.0
C983 C 0.20201 0.85758 0.99581 0.0
C984 C 0.22125 0.92034 0.98334 0.0
N985 N 0.23488 0.92638 0.99329 0.0
C986 C 0.2286 0.95117 0.99855 0.0
C987 C 0.23876 0.94146 0.00079 0.0
C988 C 0.2142 0.94514 0.98875 0.0
C989 C 0.21059 0.92957 0.98094 0.0
H990 H 0.21854 0.90825 0.97758 0.0
H991 H 0.2496 0.94586 0.00873 0.0
C992 C 0.26391 0.88415 0.0429 0.0
N993 N 0.251 0.88681 0.0348 0.0
C994 C 0.26226 0.87613 0.05605 0.0
C995 C 0.23395 0.87356 0.05225 0.0
C996 C 0.2362 0.88193 0.03926 0.0
C997 C 0.24712 0.87062 0.06075 0.0
H998 H 0.27549 0.88827 0.03906 0.0
H999 H 0.22615 0.88423 0.03255 0.0
C1000 C 0.26047 0.9215 0.97166 0.0
N1001 N 0.25333 0.94158 0.95093 0.0
C1002 C 0.25302 0.91537 0.95642 0.0
C1003 C 0.26466 0.9379 0.97618 0.0
C1004 C 0.24942 0.92569 0.94615 0.0
C1005 C 0.26084 0.94785 0.9656 0.0
C1006 C 0.28517 0.88575 0.00135 0.0
C1007 C 0.29112 0.89004 0.98735 0.0
C1008 C 0.29245 0.87664 0.01049 0.0
C1009 C 0.30425 0.88515 0.98276 0.0
C1010 C 0.30556 0.87197 0.00548 0.0
N1011 N 0.31115 0.8763 0.99184 0.0
C1012 C 0.30536 0.92394 0.02007 0.0
C1013 C 0.30273 0.93395 0.99559 0.0
C1014 C 0.32116 0.93271 0.02319 0.0
N1015 N 0.29648 0.92492 0.00658 0.0
C1016 C 0.31851 0.94288 0.99819 0.0
C1017 C 0.3279 0.94241 0.0122 0.0
H1018 H 0.30006 0.91648 0.02849 0.0
H1019 H 0.29551 0.93417 0.98478 0.0
C1020 C 0.23984 0.87191 0.96035 0.0
N1021 N 0.25135 0.87239 0.97222 0.0
C1022 C 0.2359 0.85951 0.94796 0.0
C1023 C 0.25466 0.84751 0.96102 0.0
C1024 C 0.25836 0.86025 0.97305 0.0
C1025 C 0.24358 0.84723 0.94804 0.0
H1026 H 0.23374 0.88123 0.96051 0.0
H1027 H 0.26672 0.8603 0.98308 0.0
O1028 O 0.26095 0.91989 0.01878 0.0
O1029 O 0.23709 0.89125 0.9989 0.0
O1030 O 0.26393 0.91154 0.98198 0.0
O1031 O 0.27246 0.89059 0.00626 0.0
H1032 H 0.26784 0.91605 0.04865 0.0
H1033 H 0.27766 0.94858 0.0143 0.0
H1034 H 0.28735 0.93555 0.06826 0.0
H1035 H 0.29682 0.9676 0.03456 0.0
H1036 H 0.23009 0.83931 0.0058 0.0
H1037 H 0.20588 0.88226 0.99269 0.0
H1038 H 0.2474 0.86632 0.00568 0.0
H1039 H 0.18925 0.85489 0.99305 0.0
H1040 H 0.23164 0.96301 0.00501 0.0
H1041 H 0.19953 0.92455 0.97333 0.0
H1042 H 0.27266 0.87393 0.06227 0.0
H1043 H 0.22212 0.86946 0.05561 0.0
H1044 H 0.25023 0.90282 0.95243 0.0
H1045 H 0.27064 0.94291 0.9878 0.0
H1046 H 0.24358 0.92107 0.93435 0.0
H1047 H 0.26385 0.96054 0.96906 0.0
H1048 H 0.28569 0.89706 0.98007 0.0
H1049 H 0.288 0.87315 0.02132 0.0
H1050 H 0.30897 0.8884 0.97197 0.0
H1051 H 0.3113 0.86492 0.01244 0.0
H1052 H 0.32795 0.93207 0.03418 0.0
H1053 H 0.32335 0.9499 0.98924 0.0
H1054 H 0.22726 0.85983 0.93823 0.0
H1055 H 0.26049 0.83804 0.96186 0.0
Li1056 Li 0.2534 0.38476 0.02336 0.0
Li1057 Li 0.26604 0.36765 0.03988 0.0
Li1058 Li 0.28197 0.38895 0.02746 0.0
Li1059 Li 0.26554 0.36487 0.01063 0.0
C1060 C 0.27681 0.40402 0.053 0.0
N1061 N 0.29662 0.43078 0.07086 0.0
C1062 C 0.28827 0.40255 0.06476 0.0
C1063 C 0.27536 0.41908 0.05037 0.0
C1064 C 0.29819 0.41623 0.07365 0.0
C1065 C 0.2855 0.43247 0.05952 0.0
C1066 C 0.23361 0.34969 0.01793 0.0
C1067 C 0.21624 0.32367 0.01842 0.0
N1068 N 0.20578 0.32662 0.00718 0.0
C1069 C 0.2226 0.35249 0.0065 0.0
C1070 C 0.23033 0.3352 0.02406 0.0
C1071 C 0.20864 0.34067 0.00116 0.0
C1072 C 0.22852 0.39587 0.00773 0.0
N1073 N 0.23639 0.39494 0.02186 0.0
C1074 C 0.22108 0.40996 0.03546 0.0
C1075 C 0.23274 0.4016 0.03561 0.0
C1076 C 0.21306 0.41151 0.02099 0.0
C1077 C 0.21686 0.4042 0.00701 0.0
H1078 H 0.23143 0.39037 0.99692 0.0
H1079 H 0.23902 0.40055 0.04672 0.0
C1080 C 0.27864 0.35656 0.06664 0.0
N1081 N 0.26496 0.35758 0.05852 0.0
C1082 C 0.27835 0.3505 0.08109 0.0
C1083 C 0.24985 0.34632 0.07838 0.0
C1084 C 0.25071 0.35261 0.06405 0.0
C1085 C 0.26382 0.34536 0.08724 0.0
H1086 H 0.28984 0.36087 0.06209 0.0
H1087 H 0.24004 0.35376 0.05744 0.0
C1088 C 0.26406 0.39586 0.99615 0.0
N1089 N 0.25447 0.41294 0.97356 0.0
C1090 C 0.25937 0.38877 0.98053 0.0
C1091 C 0.26389 0.41166 0.00028 0.0
C1092 C 0.25456 0.3976 0.96928 0.0
C1093 C 0.25899 0.42009 0.98869 0.0
C1094 C 0.28825 0.35283 0.02696 0.0
C1095 C 0.30408 0.35271 0.02603 0.0
C1096 C 0.27683 0.33858 0.02716 0.0
C1097 C 0.30824 0.3383 0.02544 0.0
C1098 C 0.28145 0.32441 0.02658 0.0
N1099 N 0.29693 0.32456 0.02574 0.0
C1100 C 0.31473 0.39966 0.03673 0.0
C1101 C 0.30396 0.41861 0.02509 0.0
C1102 C 0.33002 0.40969 0.03803 0.0
N1103 N 0.30214 0.40413 0.03008 0.0
C1104 C 0.31901 0.42913 0.02637 0.0
C1105 C 0.33238 0.42462 0.03263 0.0
H1106 H 0.3129 0.38818 0.04084 0.0
H1107 H 0.29378 0.42199 0.02002 0.0
C1108 C 0.2519 0.34328 0.98221 0.0
N1109 N 0.26546 0.35118 0.99164 0.0
C1110 C 0.25263 0.33517 0.96749 0.0
C1111 C 0.28124 0.34296 0.97264 0.0
C1112 C 0.27995 0.3511 0.98715 0.0
C1113 C 0.26746 0.3351 0.96239 0.0
H1114 H 0.24052 0.3438 0.98572 0.0
H1115 H 0.29058 0.35778 0.99464 0.0
O1116 O 0.26734 0.39079 0.04384 0.0
O1117 O 0.24725 0.36125 0.0235 0.0
O1118 O 0.26878 0.38735 0.0073 0.0
O1119 O 0.28395 0.36683 0.02732 0.0
H1120 H 0.28961 0.39098 0.06686 0.0
H1121 H 0.26659 0.42043 0.04128 0.0
H1122 H 0.30718 0.41528 0.08273 0.0
H1123 H 0.28456 0.44421 0.05757 0.0
H1124 H 0.2136 0.3124 0.02303 0.0
H1125 H 0.22495 0.36353 0.00153 0.0
H1126 H 0.23849 0.33286 0.03315 0.0
H1127 H 0.2001 0.34265 0.9922 0.0
H1128 H 0.21836 0.41512 0.04657 0.0
H1129 H 0.21118 0.40519 0.99556 0.0
H1130 H 0.28947 0.3503 0.08756 0.0
H1131 H 0.23834 0.34232 0.08248 0.0
H1132 H 0.25946 0.37659 0.97709 0.0
H1133 H 0.26708 0.41723 0.01236 0.0
H1134 H 0.2509 0.39225 0.95715 0.0
H1135 H 0.25868 0.43227 0.99175 0.0
H1136 H 0.31306 0.3636 0.02561 0.0
H1137 H 0.26455 0.33846 0.0277 0.0
H1138 H 0.32045 0.33803 0.0247 0.0
H1139 H 0.27272 0.31329 0.02675 0.0
H1140 H 0.3399 0.40555 0.0428 0.0
H1141 H 0.32013 0.44063 0.02239 0.0
H1142 H 0.24166 0.32958 0.95995 0.0
H1143 H 0.29295 0.3431 0.96942 0.0
Li1144 Li 0.79323 0.16007 0.05048 0.0
Li1145 Li 0.80253 0.14335 0.02908 0.0
Li1146 Li 0.78702 0.16156 0.02293 0.0
Li1147 Li 0.77486 0.13804 0.03313 0.0
C1148 C 0.81602 0.17993 0.02871 0.0
N1149 N 0.83023 0.20625 0.01507 0.0
C1150 C 0.82644 0.17871 0.01747 0.0
C1151 C 0.81299 0.19457 0.03316 0.0
C1152 C 0.83348 0.19215 0.01068 0.0
C1153 C 0.82023 0.20773 0.02608 0.0
C1154 C 0.7864 0.12271 0.05328 0.0
C1155 C 0.77879 0.09411 0.04857 0.0
N1156 N 0.77169 0.09373 0.06207 0.0
C1157 C 0.7791 0.12204 0.06714 0.0
C1158 C 0.78631 0.10865 0.04393 0.0
C1159 C 0.7717 0.10727 0.07137 0.0
C1160 C 0.78661 0.16879 0.08072 0.0
N1161 N 0.79795 0.17147 0.07077 0.0
C1162 C 0.8147 0.19232 0.08937 0.0
C1163 C 0.81184 0.18286 0.07476 0.0
C1164 C 0.80316 0.18987 0.09989 0.0
C1165 C 0.78901 0.17787 0.09546 0.0
H1166 H 0.77554 0.15988 0.07699 0.0
H1167 H 0.82055 0.18478 0.06647 0.0
C1168 C 0.8204 0.13309 0.00734 0.0
N1169 N 0.81833 0.13394 0.02288 0.0
C1170 C 0.83056 0.12456 0.00143 0.0
C1171 C 0.83653 0.11833 0.02777 0.0
C1172 C 0.82627 0.12703 0.03318 0.0
C1173 C 0.83853 0.11679 0.01164 0.0
H1174 H 0.81376 0.13864 -0.00054 0.0
H1175 H 0.82422 0.12786 0.04547 0.0
C1176 C 0.76303 0.16918 0.0422 0.0
N1177 N 0.74363 0.18918 0.04785 0.0
C1178 C 0.74682 0.1642 0.03675 0.0
C1179 C 0.76933 0.18431 0.05064 0.0
C1180 C 0.73722 0.1745 0.03969 0.0
C1181 C 0.75934 0.19425 0.05335 0.0
C1182 C 0.77308 0.13521 0.0001 0.0
C1183 C 0.75939 0.14069 -0.0003 0.0
C1184 C 0.77536 0.1253 0.98715 0.0
C1185 C 0.74815 0.13612 0.98635 0.0
C1186 C 0.76384 0.121 0.97401 0.0
N1187 N 0.75058 0.12645 0.97388 0.0
C1188 C 0.79158 0.17312 0.99428 0.0
C1189 C 0.77535 0.18559 0.00904 0.0
C1190 C 0.78982 0.18191 0.98191 0.0
N1191 N 0.78434 0.17506 0.00747 0.0
C1192 C 0.77309 0.19446 0.9969 0.0
C1193 C 0.78028 0.19256 0.98312 0.0
H1194 H 0.79858 0.16456 0.99331 0.0
H1195 H 0.76974 0.18707 0.01954 0.0
C1196 C 0.74589 0.12436 0.04332 0.0
N1197 N 0.75577 0.12196 0.03251 0.0
C1198 C 0.73086 0.11401 0.04254 0.0
C1199 C 0.73673 0.09851 0.01991 0.0
C1200 C 0.75172 0.10913 0.02121 0.0
C1201 C 0.72599 0.10109 0.03049 0.0
H1202 H 0.74953 0.13462 0.05225 0.0
H1203 H 0.75997 0.10734 0.01296 0.0
O1204 O 0.80875 0.16682 0.03522 0.0
O1205 O 0.79325 0.13704 0.04865 0.0
O1206 O 0.77257 0.15918 0.03951 0.0
O1207 O 0.78429 0.13949 0.01303 0.0
H1208 H 0.82899 0.16749 0.01395 0.0
H1209 H 0.805 0.19573 0.04188 0.0
H1210 H 0.8415 0.19135 0.0019 0.0
H1211 H 0.81788 0.2191 0.02931 0.0
H1212 H 0.77853 0.08313 0.0414 0.0
H1213 H 0.77905 0.13281 0.07449 0.0
H1214 H 0.79177 0.10897 0.03308 0.0
H1215 H 0.76593 0.10657 0.08203 0.0
H1216 H 0.82577 0.20142 0.09242 0.0
H1217 H 0.7797 0.17583 0.10313 0.0
H1218 H 0.83159 0.12348 0.98889 0.0
H1219 H 0.84258 0.11261 0.03603 0.0
H1220 H 0.74166 0.15251 0.03031 0.0
H1221 H 0.78182 0.18844 0.05493 0.0
H1222 H 0.72468 0.1708 0.03549 0.0
H1223 H 0.76408 0.20601 0.05979 0.0
H1224 H 0.75749 0.14841 0.00956 0.0
H1225 H 0.7859 0.12094 0.98728 0.0
H1226 H 0.73749 0.14029 0.98589 0.0
H1227 H 0.76544 0.11331 0.96391 0.0
H1228 H 0.79544 0.18006 0.97137 0.0
H1229 H 0.76576 0.2027 0.99826 0.0
H1230 H 0.72288 0.1165 0.05085 0.0
H1231 H 0.73347 0.08856 0.01059 0.0
Li1232 Li 0.17129 0.5376 0.24998 0.0
Li1233 Li 0.15144 0.52863 0.2662 0.0
Li1234 Li 0.16405 0.51036 0.25273 0.0
Li1235 Li 0.14597 0.52244 0.23809 0.0
C1236 C 0.18172 0.53891 0.28207 0.0
N1237 N 0.19773 0.56087 0.30737 0.0
C1238 C 0.18005 0.55442 0.2834 0.0
C1239 C 0.19153 0.53458 0.29361 0.0
C1240 C 0.18825 0.56535 0.29626 0.0
C1241 C 0.19952 0.54585 0.30632 0.0
C1242 C 0.13757 0.54869 0.25078 0.0
C1243 C 0.10946 0.54368 0.2527 0.0
N1244 N 0.1103 0.55915 0.25122 0.0
C1245 C 0.13814 0.56452 0.24928 0.0
C1246 C 0.12311 0.53816 0.25251 0.0
C1247 C 0.12423 0.56958 0.24953 0.0
C1248 C 0.18403 0.56707 0.2413 0.0
N1249 N 0.18819 0.55514 0.24804 0.0
C1250 C 0.21407 0.57168 0.25739 0.0
C1251 C 0.20306 0.55688 0.25537 0.0
C1252 C 0.20953 0.58459 0.25184 0.0
C1253 C 0.19461 0.58202 0.24305 0.0
H1254 H 0.17212 0.56522 0.2355 0.0
H1255 H 0.20595 0.54714 0.26067 0.0
C1256 C 0.13755 0.5213 0.29347 0.0
N1257 N 0.14292 0.53337 0.285 0.0
C1258 C 0.13083 0.52412 0.30729 0.0
C1259 C 0.13547 0.55175 0.30339 0.0
C1260 C 0.14218 0.54843 0.28973 0.0
C1261 C 0.12961 0.53949 0.31228 0.0
H1262 H 0.13838 0.50948 0.2894 0.0
H1263 H 0.14671 0.55786 0.28288 0.0
C1264 C 0.17993 0.52427 0.22533 0.0
N1265 N 0.20693 0.5346 0.21084 0.0
C1266 C 0.17917 0.53172 0.21174 0.0
C1267 C 0.1944 0.52201 0.23151 0.0
C1268 C 0.19296 0.53688 0.2046 0.0
C1269 C 0.20792 0.52733 0.22402 0.0
C1270 C 0.13262 0.49255 0.24762 0.0
C1271 C 0.13645 0.48584 0.23345 0.0
C1272 C 0.12038 0.48384 0.25506 0.0
C1273 C 0.12792 0.47051 0.22694 0.0
C1274 C 0.11212 0.46854 0.24816 0.0
N1275 N 0.11603 0.46224 0.23437 0.0
C1276 C 0.1751 0.4893 0.26949 0.0
C1277 C 0.17537 0.48428 0.24178 0.0
C1278 C 0.18306 0.4777 0.27199 0.0
N1279 N 0.17178 0.49254 0.25462 0.0
C1280 C 0.18328 0.47253 0.24372 0.0
C1281 C 0.18759 0.46943 0.25902 0.0
H1282 H 0.17215 0.49621 0.27943 0.0
H1283 H 0.17265 0.48726 0.23011 0.0
C1284 C 0.13471 0.53328 0.21206 0.0
N1285 N 0.13073 0.52104 0.22065 0.0
C1286 C 0.1245 0.53448 0.19915 0.0
C1287 C 0.10607 0.51048 0.20423 0.0
C1288 C 0.11658 0.50989 0.21724 0.0
C1289 C 0.11005 0.52285 0.19493 0.0
H1290 H 0.14576 0.54231 0.21547 0.0
H1291 H 0.11331 0.50064 0.22462 0.0
O1292 O 0.17396 0.52796 0.26951 0.0
O1293 O 0.15117 0.54366 0.25052 0.0
O1294 O 0.16663 0.5194 0.23267 0.0
O1295 O 0.14088 0.50747 0.2544 0.0
H1296 H 0.17264 0.55806 0.27454 0.0
H1297 H 0.19299 0.52264 0.29274 0.0
H1298 H 0.1871 0.57739 0.2974 0.0
H1299 H 0.20716 0.54265 0.31533 0.0
H1300 H 0.0982 0.53567 0.25403 0.0
H1301 H 0.14924 0.57284 0.24797 0.0
H1302 H 0.12237 0.52587 0.25372 0.0
H1303 H 0.12451 0.58181 0.24839 0.0
H1304 H 0.22547 0.57329 0.26426 0.0
H1305 H 0.19084 0.59169 0.23841 0.0
H1306 H 0.1263 0.51432 0.31378 0.0
H1307 H 0.13489 0.56379 0.30698 0.0
H1308 H 0.16807 0.53351 0.20676 0.0
H1309 H 0.19525 0.51645 0.24213 0.0
H1310 H 0.19256 0.5427 0.19411 0.0
H1311 H 0.21922 0.52575 0.22872 0.0
H1312 H 0.14576 0.49243 0.22743 0.0
H1313 H 0.1173 0.48886 0.26605 0.0
H1314 H 0.13073 0.46519 0.21596 0.0
H1315 H 0.10261 0.46166 0.25378 0.0
H1316 H 0.18633 0.47583 0.28399 0.0
H1317 H 0.18639 0.46627 0.23341 0.0
H1318 H 0.12786 0.5445 0.19264 0.0
H1319 H 0.09507 0.50126 0.20142 0.0
Li1320 Li 0.75115 0.88469 0.52164 0.0
Li1321 Li 0.76287 0.86758 0.53723 0.0
Li1322 Li 0.7807 0.88938 0.52474 0.0
Li1323 Li 0.76421 0.86512 0.50899 0.0
C1324 C 0.76561 0.90256 0.55274 0.0
N1325 N 0.76446 0.92593 0.57652 0.0
C1326 C 0.7563 0.8988 0.56493 0.0
C1327 C 0.77459 0.91817 0.55283 0.0
C1328 C 0.75579 0.91079 0.57679 0.0
C1329 C 0.77378 0.92983 0.5649 0.0
C1330 C 0.73368 0.84896 0.52431 0.0
C1331 C 0.72554 0.82204 0.5302 0.0
N1332 N 0.71141 0.82446 0.53375 0.0
C1333 C 0.71905 0.85116 0.52792 0.0
C1334 C 0.73693 0.83427 0.52535 0.0
C1335 C 0.70795 0.83863 0.5327 0.0
C1336 C 0.72951 0.89891 0.50561 0.0
N1337 N 0.7341 0.89471 0.51976 0.0
C1338 C 0.71496 0.90568 0.53193 0.0
C1339 C 0.72682 0.89759 0.53271 0.0
C1340 C 0.71047 0.91084 0.51765 0.0
C1341 C 0.7178 0.90716 0.50431 0.0
H1342 H 0.73508 0.89607 0.49533 0.0
H1343 H 0.73017 0.89355 0.54364 0.0
C1344 C 0.77513 0.85521 0.56312 0.0
N1345 N 0.76157 0.85768 0.5561 0.0
C1346 C 0.77531 0.84945 0.57772 0.0
C1347 C 0.74747 0.84851 0.57743 0.0
C1348 C 0.74788 0.85446 0.56294 0.0
C1349 C 0.76137 0.84613 0.58518 0.0
H1350 H 0.78593 0.85815 0.55757 0.0
H1351 H 0.73736 0.85693 0.5574 0.0
C1352 C 0.7677 0.90101 0.49812 0.0
N1353 N 0.77098 0.92842 0.48406 0.0
C1354 C 0.76926 0.90066 0.482 0.0
C1355 C 0.76772 0.91527 0.50705 0.0
C1356 C 0.77094 0.91466 0.47513 0.0
C1357 C 0.76941 0.929 0.49974 0.0
C1358 C 0.79031 0.85749 0.51993 0.0
C1359 C 0.80326 0.86369 0.51196 0.0
C1360 C 0.78603 0.8413 0.52133 0.0
C1361 C 0.81156 0.85348 0.50525 0.0
C1362 C 0.79464 0.83148 0.51446 0.0
N1363 N 0.8071 0.83772 0.50661 0.0
C1364 C 0.81004 0.90669 0.5414 0.0
C1365 C 0.80643 0.91168 0.51485 0.0
C1366 C 0.8254 0.91677 0.5435 0.0
N1367 N 0.80093 0.90436 0.52724 0.0
C1368 C 0.82154 0.92209 0.51652 0.0
C1369 C 0.83124 0.92462 0.53094 0.0
H1370 H 0.80545 0.90051 0.55097 0.0
H1371 H 0.79931 0.90919 0.50352 0.0
C1372 C 0.75436 0.83728 0.48557 0.0
N1373 N 0.76462 0.8518 0.4901 0.0
C1374 C 0.75529 0.82846 0.47126 0.0
C1375 C 0.77735 0.84969 0.46673 0.0
C1376 C 0.77593 0.85809 0.481 0.0
C1377 C 0.76692 0.83468 0.46163 0.0
H1378 H 0.74538 0.8326 0.49295 0.0
H1379 H 0.78382 0.86975 0.48483 0.0
O1380 O 0.76646 0.89091 0.54115 0.0
O1381 O 0.7447 0.86112 0.51969 0.0
O1382 O 0.76615 0.88742 0.50503 0.0
O1383 O 0.78184 0.86724 0.52631 0.0
H1384 H 0.74938 0.88679 0.56516 0.0
H1385 H 0.78221 0.92129 0.54375 0.0
H1386 H 0.74851 0.90805 0.58621 0.0
H1387 H 0.78062 0.94196 0.56507 0.0
H1388 H 0.72793 0.81063 0.53115 0.0
H1389 H 0.71631 0.86244 0.52708 0.0
H1390 H 0.74817 0.83237 0.52255 0.0
H1391 H 0.6966 0.84018 0.53559 0.0
H1392 H 0.70934 0.90781 0.54241 0.0
H1393 H 0.71482 0.9109 0.49306 0.0
H1394 H 0.78639 0.8481 0.5833 0.0
H1395 H 0.73638 0.84595 0.58254 0.0
H1396 H 0.76919 0.88971 0.47489 0.0
H1397 H 0.76623 0.91566 0.51944 0.0
H1398 H 0.77219 0.91458 0.46268 0.0
H1399 H 0.76941 0.94011 0.50652 0.0
H1400 H 0.80673 0.87621 0.51081 0.0
H1401 H 0.77618 0.83637 0.52765 0.0
H1402 H 0.82153 0.85808 0.49893 0.0
H1403 H 0.79142 0.8189 0.51537 0.0
H1404 H 0.83264 0.91842 0.55477 0.0
H1405 H 0.8258 0.92771 0.50649 0.0
H1406 H 0.74703 0.81691 0.46778 0.0
H1407 H 0.7863 0.85509 0.45957 0.0
Li1408 Li 0.93432 0.03341 0.27664 0.0
Li1409 Li 0.91133 0.01658 0.25936 0.0
Li1410 Li 0.93321 0.03406 0.24857 0.0
Li1411 Li 0.91469 0.04483 0.26317 0.0
C1412 C 0.94314 0.00767 0.26694 0.0
N1413 N 0.96215 0.9919 0.28264 0.0
C1414 C 0.9363 0.9936 0.27285 0.0
C1415 C 0.95965 0.01365 0.26889 0.0
C1416 C 0.94612 0.98581 0.28077 0.0
C1417 C 0.96906 0.00553 0.27691 0.0
C1418 C 0.90332 0.0369 0.28933 0.0
C1419 C 0.87916 0.04344 0.2955 0.0
N1420 N 0.88707 0.05228 0.30914 0.0
C1421 C 0.9112 0.04601 0.30342 0.0
C1422 C 0.88716 0.03554 0.28535 0.0
C1423 C 0.90277 0.05369 0.31328 0.0
C1424 C 0.9606 0.04562 0.30098 0.0
N1425 N 0.94715 0.0339 0.29589 0.0
C1426 C 0.9505 0.02113 0.31877 0.0
C1427 C 0.94193 0.02189 0.30452 0.0
C1428 C 0.96442 0.03305 0.32439 0.0
C1429 C 0.96944 0.04548 0.31536 0.0
H1430 H 0.96438 0.05512 0.29395 0.0
H1431 H 0.93102 0.01291 0.30031 0.0
C1432 C 0.89815 0.98507 0.24476 0.0
N1433 N 0.89674 0.99619 0.25643 0.0
C1434 C 0.88812 0.96974 0.24298 0.0
C1435 C 0.87545 0.97761 0.26529 0.0
C1436 C 0.88568 0.99279 0.2666 0.0
C1437 C 0.87666 0.9658 0.25342 0.0
H1438 H 0.90724 0.98806 0.237 0.0
H1439 H 0.88505 0.00176 0.27597 0.0
C1440 C 0.94893 0.06349 0.25941 0.0
N1441 N 0.97031 0.0852 0.24555 0.0
C1442 C 0.94416 0.07562 0.25262 0.0
C1443 C 0.9646 0.06247 0.25929 0.0
C1444 C 0.95514 0.08648 0.24565 0.0
C1445 C 0.97522 0.07354 0.25217 0.0
C1446 C 0.89899 0.0208 0.23189 0.0
C1447 C 0.90367 0.01375 0.21838 0.0
C1448 C 0.88295 0.01707 0.23426 0.0
C1449 C 0.8922 0.003 0.20748 0.0
C1450 C 0.87186 0.00623 0.2231 0.0
N1451 N 0.87667 0.99948 0.21005 0.0
C1452 C 0.95378 0.02599 0.22721 0.0
C1453 C 0.94235 0.04673 0.2209 0.0
C1454 C 0.96091 0.0263 0.21325 0.0
N1455 N 0.94466 0.03606 0.23069 0.0
C1456 C 0.9494 0.04758 0.20692 0.0
C1457 C 0.95863 0.03711 0.20283 0.0
H1458 H 0.95515 0.01739 0.23503 0.0
H1459 H 0.93464 0.05427 0.22374 0.0
C1460 C 0.90809 0.07309 0.27686 0.0
N1461 N 0.90383 0.06115 0.26461 0.0
C1462 C 0.89979 0.08478 0.2782 0.0
C1463 C 0.88327 0.07195 0.254 0.0
C1464 C 0.89182 0.06049 0.25319 0.0
C1465 C 0.88715 0.08426 0.26668 0.0
H1466 H 0.91788 0.07347 0.28564 0.0
H1467 H 0.88881 0.051 0.24346 0.0
O1468 O 0.93372 0.01564 0.25943 0.0
O1469 O 0.91143 0.02953 0.27936 0.0
O1470 O 0.9383 0.05262 0.26609 0.0
O1471 O 0.91006 0.03115 0.24284 0.0
H1472 H 0.92355 0.98883 0.27151 0.0
H1473 H 0.96512 0.02454 0.26442 0.0
H1474 H 0.94099 0.97496 0.28549 0.0
H1475 H 0.98184 0.01008 0.27861 0.0
H1476 H 0.86669 0.0426 0.29252 0.0
H1477 H 0.92372 0.04727 0.30665 0.0
H1478 H 0.88091 0.02865 0.27442 0.0
H1479 H 0.90872 0.06083 0.32419 0.0
H1480 H 0.94609 0.01152 0.32552 0.0
H1481 H 0.98011 0.05489 0.31934 0.0
H1482 H 0.8894 0.96106 0.23358 0.0
H1483 H 0.86702 0.97505 0.27379 0.0
H1484 H 0.93206 0.07656 0.2526 0.0
H1485 H 0.96848 0.05315 0.2645 0.0
H1486 H 0.9516 0.09588 0.24027 0.0
H1487 H 0.98736 0.07283 0.25189 0.0
H1488 H 0.91602 0.01642 0.21637 0.0
H1489 H 0.87914 0.02229 0.24473 0.0
H1490 H 0.89566 0.9974 0.19699 0.0
H1491 H 0.85942 0.00315 0.22485 0.0
H1492 H 0.96798 0.01805 0.21053 0.0
H1493 H 0.94712 0.0559 0.19908 0.0
H1494 H 0.90332 0.09419 0.28805 0.0
H1495 H 0.87353 0.07102 0.24493 0.0
Li1496 Li 0.29184 0.66379 0.54554 0.0
Li1497 Li 0.2982 0.64349 0.52764 0.0
Li1498 Li 0.28659 0.66441 0.51711 0.0
Li1499 Li 0.27065 0.64239 0.52856 0.0
C1500 C 0.32088 0.67889 0.53463 0.0
N1501 N 0.34804 0.70313 0.54451 0.0
C1502 C 0.33518 0.67541 0.53942 0.0
C1503 C 0.32051 0.69472 0.53457 0.0
C1504 C 0.34875 0.68782 0.54445 0.0
C1505 C 0.33432 0.7068 0.53969 0.0
C1506 C 0.29223 0.6306 0.55458 0.0
C1507 C 0.29533 0.6045 0.55779 0.0
N1508 N 0.30526 0.61067 0.5713 0.0
C1509 C 0.30235 0.63666 0.56857 0.0
C1510 C 0.28856 0.61436 0.54922 0.0
C1511 C 0.30886 0.62639 0.57684 0.0
C1512 C 0.28422 0.68009 0.57187 0.0
N1513 N 0.2968 0.6769 0.56524 0.0
C1514 C 0.31492 0.69382 0.58611 0.0
C1515 C 0.31194 0.68323 0.57221 0.0
C1516 C 0.30216 0.69781 0.59286 0.0
C1517 C 0.28663 0.69064 0.58568 0.0
H1518 H 0.27228 0.67457 0.56628 0.0
H1519 H 0.32172 0.68012 0.56703 0.0
C1520 C 0.30978 0.62055 0.51087 0.0
N1521 N 0.31224 0.63043 0.52465 0.0
C1522 C 0.31809 0.60898 0.50896 0.0
C1523 C 0.33201 0.61859 0.53513 0.0
C1524 C 0.3234 0.62997 0.53653 0.0
C1525 C 0.32912 0.60768 0.52134 0.0
H1526 H 0.30099 0.6213 0.50153 0.0
H1527 H 0.32522 0.63804 0.54733 0.0
C1528 C 0.26553 0.6779 0.53356 0.0
N1529 N 0.25254 0.70361 0.53377 0.0
C1530 C 0.24925 0.67559 0.5293 0.0
C1531 C 0.27512 0.69328 0.53821 0.0
C1532 C 0.24292 0.68873 0.5294 0.0
C1533 C 0.26836 0.70612 0.53818 0.0
C1534 C 0.27101 0.63014 0.49896 0.0
C1535 C 0.26339 0.63447 0.48576 0.0
C1536 C 0.26743 0.61423 0.50154 0.0
C1537 C 0.25207 0.62285 0.47552 0.0
C1538 C 0.25603 0.60296 0.49104 0.0
N1539 N 0.24863 0.60747 0.47837 0.0
C1540 C 0.29873 0.68752 0.49721 0.0
C1541 C 0.27072 0.67876 0.49625 0.0
C1542 C 0.29732 0.69885 0.48726 0.0
N1543 N 0.28552 0.67808 0.50177 0.0
C1544 C 0.26875 0.68989 0.48636 0.0
C1545 C 0.28216 0.70032 0.482 0.0
H1546 H 0.31035 0.68649 0.50157 0.0
H1547 H 0.26043 0.67078 0.49974 0.0
C1548 C 0.24625 0.61726 0.53619 0.0
N1549 N 0.24986 0.62899 0.5269 0.0
C1550 C 0.231 0.60704 0.53431 0.0
C1551 C 0.22354 0.62132 0.51348 0.0
C1552 C 0.2389 0.63122 0.51575 0.0
C1553 C 0.21943 0.60901 0.5228 0.0
H1554 H 0.25522 0.61578 0.54497 0.0
H1555 H 0.24216 0.64064 0.50851 0.0
O1556 O 0.30747 0.66683 0.52971 0.0
O1557 O 0.28585 0.64051 0.54629 0.0
O1558 O 0.27196 0.66514 0.53333 0.0
O1559 O 0.28194 0.64141 0.50928 0.0
H1560 H 0.33582 0.66327 0.53929 0.0
H1561 H 0.30975 0.6977 0.53045 0.0
H1562 H 0.35986 0.68527 0.54829 0.0
H1563 H 0.33416 0.7191 0.53975 0.0
H1564 H 0.29271 0.59194 0.55369 0.0
H1565 H 0.30525 0.64916 0.57296 0.0
H1566 H 0.2807 0.60945 0.53847 0.0
H1567 H 0.31678 0.63094 0.58763 0.0
H1568 H 0.32706 0.699 0.59138 0.0
H1569 H 0.27644 0.69307 0.59076 0.0
H1570 H 0.31545 0.60077 0.49815 0.0
H1571 H 0.34063 0.61818 0.54484 0.0
H1572 H 0.24155 0.66379 0.52593 0.0
H1573 H 0.2876 0.69528 0.54204 0.0
H1574 H 0.23037 0.6871 0.52602 0.0
H1575 H 0.27569 0.71809 0.54172 0.0
H1576 H 0.26616 0.64668 0.48344 0.0
H1577 H 0.27328 0.61064 0.51163 0.0
H1578 H 0.24601 0.62605 0.46531 0.0
H1579 H 0.25304 0.59063 0.49299 0.0
H1580 H 0.30794 0.70662 0.48406 0.0
H1581 H 0.25684 0.69034 0.48218 0.0
H1582 H 0.22836 0.59762 0.54167 0.0
H1583 H 0.21494 0.62345 0.50466 0.0
Li1584 Li 0.41403 0.51638 0.76024 0.0
Li1585 Li 0.43666 0.53482 0.77612 0.0
Li1586 Li 0.41711 0.54544 0.76246 0.0
Li1587 Li 0.4357 0.53428 0.74756 0.0
C1588 C 0.39852 0.52832 0.78326 0.0
N1589 N 0.36766 0.52206 0.79078 0.0
C1590 C 0.39531 0.52545 0.79855 0.0
C1591 C 0.38599 0.52793 0.77181 0.0
C1592 C 0.37964 0.52233 0.80211 0.0
C1593 C 0.37049 0.52479 0.77583 0.0
C1594 C 0.44484 0.50737 0.76718 0.0
C1595 C 0.46727 0.49611 0.76968 0.0
N1596 N 0.4615 0.48901 0.78209 0.0
C1597 C 0.43909 0.49991 0.7799 0.0
C1598 C 0.45901 0.50545 0.76197 0.0
C1599 C 0.44771 0.4907 0.78732 0.0
C1600 C 0.39511 0.48723 0.74344 0.0
N1601 N 0.39974 0.49581 0.75798 0.0
C1602 C 0.38398 0.47497 0.77004 0.0
C1603 C 0.39459 0.4899 0.77117 0.0
C1604 C 0.37881 0.46589 0.75519 0.0
C1605 C 0.3846 0.47212 0.74176 0.0
H1606 H 0.39958 0.49215 0.73316 0.0
H1607 H 0.39881 0.4967 0.78264 0.0
C1608 C 0.44279 0.53886 0.80885 0.0
N1609 N 0.44999 0.53688 0.79565 0.0
C1610 C 0.45039 0.53826 0.82368 0.0
C1611 C 0.47324 0.53474 0.81128 0.0
C1612 C 0.46506 0.53512 0.7966 0.0
C1613 C 0.4657 0.53593 0.82498 0.0
H1614 H 0.43096 0.54052 0.80782 0.0
H1615 H 0.47056 0.53346 0.78598 0.0
C1616 C 0.40263 0.53081 0.73013 0.0
N1617 N 0.38347 0.53287 0.70343 0.0
C1618 C 0.40863 0.54098 0.71932 0.0
C1619 C 0.38693 0.52153 0.72723 0.0
C1620 C 0.39875 0.54191 0.70593 0.0
C1621 C 0.37742 0.52279 0.7137 0.0
C1622 C 0.45634 0.5613 0.76635 0.0
C1623 C 0.46092 0.57735 0.77254 0.0
C1624 C 0.4679 0.55347 0.76268 0.0
C1625 C 0.47705 0.58532 0.77496 0.0
C1626 C 0.4839 0.56185 0.76526 0.0
N1627 N 0.48811 0.57747 0.7713 0.0
C1628 C 0.4008 0.56623 0.77713 0.0
C1629 C 0.40456 0.56953 0.75056 0.0
C1630 C 0.3923 0.57774 0.77797 0.0
N1631 N 0.40634 0.56201 0.76343 0.0
C1632 C 0.39626 0.58124 0.7509 0.0
C1633 C 0.38978 0.58534 0.76468 0.0
H1634 H 0.40284 0.56054 0.78743 0.0
H1635 H 0.40967 0.56654 0.74004 0.0
C1636 C 0.44563 0.52122 0.72022 0.0
N1637 N 0.44623 0.53521 0.72899 0.0
C1638 C 0.45165 0.52106 0.70567 0.0
C1639 C 0.45912 0.54975 0.70959 0.0
C1640 C 0.45295 0.54935 0.72408 0.0
C1641 C 0.4583 0.53547 0.70004 0.0
H1642 H 0.44012 0.51016 0.7244 0.0
H1643 H 0.45302 0.56031 0.73117 0.0
O1644 O 0.4138 0.5311 0.77951 0.0
O1645 O 0.43674 0.51667 0.75995 0.0
O1646 O 0.41223 0.5295 0.74317 0.0
O1647 O 0.4406 0.55337 0.76393 0.0
H1648 H 0.40476 0.52543 0.80755 0.0
H1649 H 0.38821 0.53024 0.76001 0.0
H1650 H 0.37701 0.52005 0.81388 0.0
H1651 H 0.36072 0.52453 0.76708 0.0
H1652 H 0.47828 0.49454 0.76581 0.0
H1653 H 0.42825 0.50146 0.78419 0.0
H1654 H 0.4636 0.51115 0.75212 0.0
H1655 H 0.44347 0.48495 0.79726 0.0
H1656 H 0.38007 0.47045 0.78071 0.0
H1657 H 0.38089 0.46546 0.73011 0.0
H1658 H 0.4443 0.53945 0.83403 0.0
H1659 H 0.48505 0.53289 0.81187 0.0
H1660 H 0.42071 0.54827 0.72134 0.0
H1661 H 0.3821 0.5134 0.7353 0.0
H1662 H 0.40322 0.54982 0.69754 0.0
H1663 H 0.36524 0.51571 0.71135 0.0
H1664 H 0.45209 0.58357 0.77545 0.0
H1665 H 0.46458 0.54104 0.75796 0.0
H1666 H 0.48077 0.59775 0.77974 0.0
H1667 H 0.49298 0.55593 0.76249 0.0
H1668 H 0.38752 0.58042 0.78885 0.0
H1669 H 0.39507 0.58708 0.74051 0.0
H1670 H 0.45097 0.50977 0.69883 0.0
H1671 H 0.46394 0.56112 0.70565 0.0
Li1672 Li 0.658 0.03489 0.76558 0.0
Li1673 Li 0.68153 0.04226 0.75195 0.0
Li1674 Li 0.65536 0.03032 0.73785 0.0
Li1675 Li 0.6688 0.01479 0.75347 0.0
C1676 C 0.65542 0.06146 0.74499 0.0
N1677 N 0.64044 0.0822 0.73187 0.0
C1678 C 0.66433 0.07601 0.74148 0.0
C1679 C 0.63885 0.05762 0.74208 0.0
C1680 C 0.65655 0.0863 0.7348 0.0
C1681 C 0.6315 0.0682 0.73536 0.0
C1682 C 0.68701 0.04143 0.78439 0.0
C1683 C 0.70408 0.04671 0.80908 0.0
N1684 N 0.7027 0.06188 0.81088 0.0
C1685 C 0.68577 0.05709 0.7865 0.0
C1686 C 0.69624 0.0362 0.79578 0.0
C1687 C 0.69379 0.06723 0.79997 0.0
C1688 C 0.64942 0.03216 0.79594 0.0
N1689 N 0.64837 0.04038 0.78348 0.0
C1690 C 0.63317 0.05555 0.79685 0.0
C1691 C 0.64067 0.05206 0.78377 0.0
C1692 C 0.63373 0.047 0.80975 0.0
C1693 C 0.6421 0.03525 0.80927 0.0
H1694 H 0.65578 0.02305 0.79542 0.0
H1695 H 0.6403 0.05864 0.77388 0.0
C1696 C 0.70138 0.0653 0.73815 0.0
N1697 N 0.70112 0.05703 0.75069 0.0
C1698 C 0.7143 0.07801 0.73719 0.0
C1699 C 0.72714 0.07245 0.76131 0.0
C1700 C 0.71395 0.05981 0.76176 0.0
C1701 C 0.72714 0.0821 0.74923 0.0
H1702 H 0.69116 0.06248 0.72928 0.0
H1703 H 0.71379 0.0526 0.77124 0.0
C1704 C 0.63451 0.00905 0.7609 0.0
N1705 N 0.61126 0.99797 0.77983 0.0
C1706 C 0.63645 0.99804 0.77108 0.0
C1707 C 0.62063 0.01423 0.76017 0.0
C1708 C 0.62459 0.99262 0.78059 0.0
C1709 C 0.60906 0.00855 0.76989 0.0
C1710 C 0.68896 0.02078 0.7302 0.0
C1711 C 0.69064 0.01724 0.71428 0.0
C1712 C 0.70098 0.02017 0.74181 0.0
C1713 C 0.70431 0.01307 0.71021 0.0
C1714 C 0.71446 0.01593 0.73727 0.0
N1715 N 0.71584 0.0125 0.7217 0.0
C1716 C 0.64737 0.04053 0.7091 0.0
C1717 C 0.62788 0.01916 0.71623 0.0
C1718 C 0.63746 0.04113 0.69568 0.0
N1719 N 0.64232 0.02982 0.71912 0.0
C1720 C 0.61765 0.01919 0.70284 0.0
C1721 C 0.62235 0.03038 0.69242 0.0
H1722 H 0.65895 0.04886 0.71178 0.0
H1723 H 0.62429 0.01071 0.7244 0.0
C1724 C 0.67877 0.99242 0.76927 0.0
N1725 N 0.67327 0.99515 0.75481 0.0
C1726 C 0.68491 0.97941 0.77077 0.0
C1727 C 0.67892 0.97187 0.74248 0.0
C1728 C 0.67279 0.98502 0.74156 0.0
C1729 C 0.68545 0.9692 0.7572 0.0
H1730 H 0.67897 0.00075 0.77955 0.0
H1731 H 0.66839 0.98761 0.73021 0.0
O1732 O 0.66289 0.05117 0.75143 0.0
O1733 O 0.67925 0.03116 0.77135 0.0
O1734 O 0.64618 0.01477 0.75176 0.0
O1735 O 0.67555 0.02477 0.73429 0.0
H1736 H 0.67712 0.07943 0.74406 0.0
H1737 H 0.63175 0.04651 0.74485 0.0
H1738 H 0.66333 0.09757 0.73199 0.0
H1739 H 0.6187 0.06528 0.73291 0.0
H1740 H 0.71127 0.04281 0.81796 0.0
H1741 H 0.67876 0.06146 0.77789 0.0
H1742 H 0.6974 0.02416 0.79433 0.0
H1743 H 0.69294 0.07937 0.80174 0.0
H1744 H 0.62705 0.06487 0.79689 0.0
H1745 H 0.64269 0.02829 0.81891 0.0
H1746 H 0.71374 0.08517 0.7277 0.0
H1747 H 0.73695 0.07504 0.77063 0.0
H1748 H 0.64706 0.99385 0.77178 0.0
H1749 H 0.6188 0.02258 0.75224 0.0
H1750 H 0.626 0.98419 0.78861 0.0
H1751 H 0.59831 0.01256 0.76953 0.0
H1752 H 0.68144 0.01767 0.70515 0.0
H1753 H 0.69992 0.02285 0.7542 0.0
H1754 H 0.70576 0.01027 0.69793 0.0
H1755 H 0.72383 0.01536 0.74613 0.0
H1756 H 0.6415 0.0501 0.68811 0.0
H1757 H 0.60626 0.01048 0.70064 0.0
H1758 H 0.69002 0.9779 0.7823 0.0
H1759 H 0.67904 0.96419 0.73178 0.0
Li1760 Li 0.77864 0.69356 0.02215 0.0
Li1761 Li 0.79042 0.67225 0.00971 0.0
Li1762 Li 0.77842 0.69005 0.9931 0.0
Li1763 Li 0.76255 0.67055 0.00652 0.0
C1764 C 0.81161 0.7059 0.0155 0.0
N1765 N 0.841 0.72583 0.02729 0.0
C1766 C 0.82148 0.70126 0.02676 0.0
C1767 C 0.81679 0.72061 0.01009 0.0
C1768 C 0.83626 0.71152 0.03262 0.0
C1769 C 0.83166 0.73053 0.01624 0.0
C1770 C 0.76659 0.66096 0.03423 0.0
C1771 C 0.75742 0.63468 0.04152 0.0
N1772 N 0.74616 0.63948 0.04924 0.0
C1773 C 0.75498 0.66565 0.04229 0.0
C1774 C 0.76787 0.64536 0.03386 0.0
C1775 C 0.74473 0.65461 0.04977 0.0
C1776 C 0.76606 0.71118 0.04479 0.0
N1777 N 0.77974 0.70771 0.04112 0.0
C1778 C 0.79316 0.72064 0.06633 0.0
C1779 C 0.7932 0.71243 0.05148 0.0
C1780 C 0.77904 0.72386 0.07067 0.0
C1781 C 0.76546 0.71933 0.05952 0.0
H1782 H 0.75535 0.7069 0.0366 0.0
H1783 H 0.80381 0.70923 0.04856 0.0
C1784 C 0.81439 0.65923 0.99869 0.0
N1785 N 0.80667 0.6615 0.01145 0.0
C1786 C 0.82604 0.65087 -0.00061 0.0
C1787 C 0.82161 0.64744 0.0264 0.0
C1788 C 0.81013 0.65596 0.0252 0.0
C1789 C 0.8297 0.64471 0.01335 0.0
H1790 H 0.81141 0.66385 0.98793 0.0
H1791 H 0.8039 0.65808 0.03521 0.0
C1792 C 0.75906 0.70754 0.00454 0.0
N1793 N 0.75564 0.73776 0.00227 0.0
C1794 C 0.74415 0.7098 -0.00012 0.0
C1795 C 0.77222 0.72068 0.008 0.0
C1796 C 0.74266 0.72516 0.99881 0.0
C1797 C 0.77025 0.73585 0.00681 0.0
C1798 C 0.76672 0.65416 0.97983 0.0
C1799 C 0.75363 0.65587 0.97028 0.0
C1800 C 0.77023 0.63943 0.97916 0.0
C1801 C 0.74408 0.64269 0.96035 0.0
C1802 C 0.7604 0.62655 0.96905 0.0
N1803 N 0.74763 0.62843 0.95995 0.0
C1804 C 0.79454 0.70437 0.96887 0.0
C1805 C 0.76667 0.70094 0.96598 0.0
C1806 C 0.79567 0.71037 0.9544 0.0
N1807 N 0.78018 0.69975 0.97429 0.0
C1808 C 0.76724 0.70684 0.95148 0.0
C1809 C 0.78185 0.71148 0.9454 0.0
H1810 H 0.80506 0.70305 0.97562 0.0
H1811 H 0.75538 0.69701 0.97047 0.0
C1812 C 0.72952 0.66205 0.00629 0.0
N1813 N 0.7421 0.65572 0.00507 0.0
C1814 C 0.71432 0.65226 0.00634 0.0
C1815 C 0.7252 0.62949 0.00383 0.0
C1816 C 0.74022 0.63975 0.00377 0.0
C1817 C 0.71201 0.63573 0.00527 0.0
H1818 H 0.73134 0.67477 0.00751 0.0
H1819 H 0.75042 0.63497 0.00311 0.0
O1820 O 0.79723 0.69587 0.00936 0.0
O1821 O 0.77654 0.67154 0.02659 0.0
O1822 O 0.76067 0.6925 0.0054 0.0
O1823 O 0.77615 0.66687 0.98971 0.0
H1824 H 0.81766 0.68996 0.03112 0.0
H1825 H 0.80942 0.72431 0.00119 0.0
H1826 H 0.84396 0.70812 0.04143 0.0
H1827 H 0.83579 0.74196 0.01219 0.0
H1828 H 0.7582 0.62254 0.04125 0.0
H1829 H 0.75374 0.67763 0.04259 0.0
H1830 H 0.77662 0.64144 0.02748 0.0
H1831 H 0.73562 0.65805 0.05596 0.0
H1832 H 0.80395 0.724 0.0745 0.0
H1833 H 0.75424 0.72128 0.06242 0.0
H1834 H 0.83214 0.64931 0.98912 0.0
H1835 H 0.82385 0.64279 0.03734 0.0
H1836 H 0.73383 0.69977 0.997 0.0
H1837 H 0.7838 0.71924 0.0117 0.0
H1838 H 0.7312 0.72705 0.9952 0.0
H1839 H 0.78035 0.74611 0.00951 0.0
H1840 H 0.75076 0.6672 0.9707 0.0
H1841 H 0.78035 0.63795 0.98648 0.0
H1842 H 0.73383 0.6438 0.95298 0.0
H1843 H 0.76291 0.61505 0.96846 0.0
H1844 H 0.80715 0.71362 0.95008 0.0
H1845 H 0.75632 0.70767 0.94505 0.0
H1846 H 0.70448 0.6576 0.00726 0.0
H1847 H 0.72403 0.61685 0.0032 0.0
Li1848 Li 0.86525 0.51698 0.77097 0.0
Li1849 Li 0.88875 0.52934 0.78926 0.0
Li1850 Li 0.87544 0.54496 0.77476 0.0
Li1851 Li 0.88998 0.5292 0.7616 0.0
C1852 C 0.86054 0.52317 0.80247 0.0
N1853 N 0.84804 0.50654 0.82612 0.0
C1854 C 0.86273 0.50809 0.80387 0.0
C1855 C 0.85199 0.52977 0.8131 0.0
C1856 C 0.85632 0.49988 0.8159 0.0
C1857 C 0.84576 0.52118 0.82497 0.0
C1858 C 0.89733 0.50336 0.77296 0.0
C1859 C 0.92521 0.5044 0.77692 0.0
N1860 N 0.92171 0.48858 0.77184 0.0
C1861 C 0.89401 0.48714 0.76774 0.0
C1862 C 0.91306 0.5121 0.77755 0.0
C1863 C 0.9065 0.47987 0.76728 0.0
C1864 C 0.84812 0.49117 0.75111 0.0
N1865 N 0.84734 0.49958 0.76508 0.0
C1866 C 0.82328 0.48101 0.76863 0.0
C1867 C 0.8349 0.49521 0.77354 0.0
C1868 C 0.82433 0.47153 0.75469 0.0
C1869 C 0.83659 0.47718 0.74554 0.0
H1870 H 0.858 0.49519 0.74449 0.0
H1871 H 0.8342 0.5024 0.78433 0.0
C1872 C 0.90714 0.54305 0.81746 0.0
N1873 N 0.90037 0.5288 0.80864 0.0
C1874 C 0.91669 0.54387 0.83157 0.0
C1875 C 0.91192 0.51528 0.82728 0.0
C1876 C 0.90236 0.51501 0.81332 0.0
C1877 C 0.91929 0.52987 0.8365 0.0
H1878 H 0.90529 0.55378 0.81338 0.0
H1879 H 0.89674 0.50382 0.80612 0.0
C1880 C 0.85408 0.53221 0.74795 0.0
N1881 N 0.82485 0.53462 0.73502 0.0
C1882 C 0.85104 0.53232 0.7317 0.0
C1883 C 0.84223 0.53327 0.75764 0.0
C1884 C 0.83619 0.53356 0.72539 0.0
C1885 C 0.82754 0.5345 0.75088 0.0
C1886 C 0.90639 0.56055 0.77205 0.0
C1887 C 0.90187 0.5626 0.75651 0.0
C1888 C 0.91885 0.57198 0.78118 0.0
C1889 C 0.9099 0.57609 0.75038 0.0
C1890 C 0.92659 0.58531 0.77462 0.0
N1891 N 0.92199 0.58707 0.75949 0.0
C1892 C 0.86621 0.57019 0.79013 0.0
C1893 C 0.86636 0.57032 0.76249 0.0
C1894 C 0.85911 0.58278 0.79111 0.0
N1895 N 0.86926 0.56403 0.77591 0.0
C1896 C 0.85915 0.58278 0.76289 0.0
C1897 C 0.85502 0.58889 0.77727 0.0
H1898 H 0.86871 0.5649 0.80059 0.0
H1899 H 0.86887 0.56513 0.75132 0.0
C1900 C 0.89506 0.5145 0.73333 0.0
N1901 N 0.90251 0.5258 0.7455 0.0
C1902 C 0.90376 0.50915 0.72211 0.0
C1903 C 0.92758 0.52755 0.73595 0.0
C1904 C 0.91841 0.53246 0.74698 0.0
C1905 C 0.92029 0.51553 0.72347 0.0
H1906 H 0.88244 0.5092 0.73273 0.0
H1907 H 0.92408 0.54113 0.75703 0.0
O1908 O 0.86683 0.53162 0.79093 0.0
O1909 O 0.88523 0.51066 0.77319 0.0
O1910 O 0.8686 0.53102 0.75421 0.0
O1911 O 0.89873 0.54749 0.77843 0.0
H1912 H 0.86912 0.50265 0.79569 0.0
H1913 H 0.85019 0.54143 0.81219 0.0
H1914 H 0.8579 0.48819 0.81709 0.0
H1915 H 0.83911 0.52616 0.83327 0.0
H1916 H 0.93743 0.51102 0.78042 0.0
H1917 H 0.88189 0.48024 0.76405 0.0
H1918 H 0.91586 0.52471 0.78149 0.0
H1919 H 0.9041 0.46731 0.76328 0.0
H1920 H 0.8141 0.47718 0.77612 0.0
H1921 H 0.83762 0.47059 0.73446 0.0
H1922 H 0.92227 0.55534 0.83833 0.0
H1923 H 0.9135 0.50423 0.83084 0.0
H1924 H 0.86008 0.53148 0.72405 0.0
H1925 H 0.8443 0.5332 0.77024 0.0
H1926 H 0.83369 0.53367 0.71282 0.0
H1927 H 0.81828 0.53536 0.75823 0.0
H1928 H 0.89232 0.55388 0.74922 0.0
H1929 H 0.9225 0.57056 0.79322 0.0
H1930 H 0.90652 0.57782 0.73838 0.0
H1931 H 0.93626 0.59425 0.78156 0.0
H1932 H 0.85635 0.58729 0.80248 0.0
H1933 H 0.85602 0.58691 0.75187 0.0
H1934 H 0.89768 0.49968 0.71285 0.0
H1935 H 0.94025 0.53293 0.73733 0.0
Li1936 Li 0.75445 0.38931 0.52606 0.0
Li1937 Li 0.74468 0.40972 0.51147 0.0
Li1938 Li 0.75263 0.38763 0.49771 0.0
Li1939 Li 0.77198 0.40888 0.51317 0.0
C1940 C 0.72358 0.37429 0.50229 0.0
N1941 N 0.70157 0.34966 0.48354 0.0
C1942 C 0.71192 0.37747 0.49185 0.0
C1943 C 0.72398 0.35859 0.50328 0.0
C1944 C 0.70091 0.36485 0.48245 0.0
C1945 C 0.71277 0.3463 0.49368 0.0
C1946 C 0.77092 0.42463 0.54073 0.0
C1947 C 0.78643 0.45185 0.54648 0.0
N1948 N 0.79411 0.4482 0.5595 0.0
C1949 C 0.77884 0.42117 0.55426 0.0
C1950 C 0.77462 0.44012 0.53689 0.0
C1951 C 0.79057 0.43324 0.56356 0.0
C1952 C 0.76575 0.37461 0.55015 0.0
N1953 N 0.7523 0.37658 0.5424 0.0
C1954 C 0.73617 0.35577 0.55415 0.0
C1955 C 0.73765 0.36779 0.54449 0.0
C1956 C 0.74989 0.35318 0.56188 0.0
C1957 C 0.76479 0.36298 0.5602 0.0
H1958 H 0.77723 0.38155 0.54791 0.0
H1959 H 0.7272 0.36954 0.538 0.0
C1960 C 0.72303 0.42481 0.49754 0.0
N1961 N 0.73126 0.42337 0.51127 0.0
C1962 C 0.71479 0.43651 0.4971 0.0
C1963 C 0.72352 0.44476 0.52497 0.0
C1964 C 0.73146 0.43284 0.52489 0.0
C1965 C 0.71526 0.44683 0.5109 0.0
H1966 H 0.7234 0.41729 0.48683 0.0
H1967 H 0.73818 0.43142 0.5356 0.0
C1968 C 0.78264 0.38209 0.50541 0.0
N1969 N 0.80731 0.3744 0.49113 0.0
C1970 C 0.78704 0.38826 0.4916 0.0
C1971 C 0.7908 0.37204 0.51199 0.0
C1972 C 0.79953 0.38423 0.48455 0.0
C1973 C 0.80324 0.36828 0.50459 0.0
C1974 C 0.7613 0.42101 0.48417 0.0
C1975 C 0.7654 0.4169 0.4692 0.0
C1976 C 0.76051 0.43657 0.48865 0.0
C1977 C 0.76878 0.42843 0.45903 0.0
C1978 C 0.76396 0.44775 0.47813 0.0
N1979 N 0.768 0.44349 0.46367 0.0
C1980 C 0.74034 0.3758 0.46606 0.0
C1981 C 0.75215 0.3588 0.47996 0.0
C1982 C 0.73705 0.36488 0.45239 0.0
N1983 N 0.74797 0.37266 0.47935 0.0
C1984 C 0.7492 0.34761 0.46657 0.0
C1985 C 0.74174 0.3507 0.45252 0.0
H1986 H 0.73694 0.38684 0.46606 0.0
H1987 H 0.75779 0.35644 0.49085 0.0
C1988 C 0.80358 0.41775 0.52658 0.0
N1989 N 0.79352 0.4213 0.51536 0.0
C1990 C 0.81952 0.42622 0.52923 0.0
C1991 C 0.81456 0.44163 0.50846 0.0
C1992 C 0.7987 0.43295 0.50632 0.0
C1993 C 0.82521 0.43835 0.52008 0.0
H1994 H 0.79916 0.40834 0.53354 0.0
H1995 H 0.79068 0.43553 0.49737 0.0
O1996 O 0.73473 0.38651 0.51127 0.0
O1997 O 0.75967 0.41288 0.53127 0.0
O1998 O 0.77053 0.38596 0.51263 0.0
O1999 O 0.75775 0.40977 0.49418 0.0
H2000 H 0.71145 0.38954 0.49093 0.0
H2001 H 0.73306 0.35593 0.51114 0.0
H2002 H 0.69187 0.36713 0.47426 0.0
H2003 H 0.71302 0.3341 0.49422 0.0
H2004 H 0.7895 0.46386 0.54356 0.0
H2005 H 0.77605 0.40928 0.55748 0.0
H2006 H 0.76855 0.44302 0.52653 0.0
H2007 H 0.79687 0.43072 0.574 0.0
H2008 H 0.72452 0.34831 0.55523 0.0
H2009 H 0.77558 0.3611 0.56594 0.0
H2010 H 0.70862 0.43785 0.48602 0.0
H2011 H 0.72395 0.45237 0.53587 0.0
H2012 H 0.78093 0.39612 0.48642 0.0
H2013 H 0.78756 0.3672 0.52271 0.0
H2014 H 0.80306 0.38893 0.47386 0.0
H2015 H 0.80966 0.36051 0.50955 0.0
H2016 H 0.76598 0.40491 0.46545 0.0
H2017 H 0.75739 0.44003 0.50015 0.0
H2018 H 0.77201 0.42541 0.44743 0.0
H2019 H 0.76344 0.45983 0.48148 0.0
H2020 H 0.73137 0.36771 0.44173 0.0
H2021 H 0.75278 0.3367 0.46716 0.0
H2022 H 0.82724 0.42338 0.53842 0.0
H2023 H 0.81847 0.45064 0.5009 0.0
Li2024 Li 0.60851 0.51805 0.28645 0.0
Li2025 Li 0.62941 0.5362 0.27466 0.0
Li2026 Li 0.6068 0.51916 0.25851 0.0
Li2027 Li 0.62613 0.50772 0.27027 0.0
C2028 C 0.59356 0.54052 0.27027 0.0
N2029 N 0.56633 0.54793 0.25833 0.0
C2030 C 0.59458 0.55487 0.26419 0.0
C2031 C 0.57869 0.52999 0.27039 0.0
C2032 C 0.58067 0.55839 0.25817 0.0
C2033 C 0.56506 0.53395 0.26428 0.0
C2034 C 0.63736 0.52952 0.30548 0.0
C2035 C 0.6531 0.53227 0.33064 0.0
N2036 N 0.64768 0.54494 0.33575 0.0
C2037 C 0.63193 0.54256 0.31098 0.0
C2038 C 0.648 0.5243 0.31539 0.0
C2039 C 0.63729 0.5502 0.32632 0.0
C2040 C 0.60079 0.5041 0.31375 0.0
N2041 N 0.59849 0.51571 0.30519 0.0
C2042 C 0.58496 0.5258 0.32526 0.0
C2043 C 0.59075 0.52647 0.31061 0.0
C2044 C 0.58738 0.5141 0.33451 0.0
C2045 C 0.59533 0.50308 0.32854 0.0
H2046 H 0.60726 0.4959 0.30925 0.0
H2047 H 0.58952 0.53589 0.30381 0.0
C2048 C 0.64108 0.56545 0.26506 0.0
N2049 N 0.64409 0.55651 0.27638 0.0
C2050 C 0.65093 0.58056 0.26484 0.0
C2051 C 0.66716 0.57687 0.28771 0.0
C2052 C 0.65701 0.56174 0.28743 0.0
C2053 C 0.66409 0.58656 0.27638 0.0
H2054 H 0.63105 0.56073 0.25608 0.0
H2055 H 0.65953 0.55423 0.29598 0.0
C2056 C 0.59744 0.48634 0.25869 0.0
N2057 N 0.58721 0.45913 0.23719 0.0
C2058 C 0.60322 0.48574 0.24399 0.0
C2059 C 0.58648 0.4731 0.26244 0.0
C2060 C 0.5979 0.47187 0.23329 0.0
C2061 C 0.58144 0.45945 0.25141 0.0
C2062 C 0.64425 0.52579 0.25039 0.0
C2063 C 0.64684 0.52753 0.23474 0.0
C2064 C 0.65715 0.52704 0.26173 0.0
C2065 C 0.66232 0.53042 0.23067 0.0
C2066 C 0.67244 0.52995 0.25718 0.0
N2067 N 0.67469 0.53156 0.24188 0.0
C2068 C 0.59922 0.53104 0.23104 0.0
C2069 C 0.57911 0.50853 0.23496 0.0
C2070 C 0.59069 0.53247 0.217 0.0
N2071 N 0.59338 0.51921 0.23966 0.0
C2072 C 0.57028 0.50937 0.2208 0.0
C2073 C 0.57609 0.52147 0.21164 0.0
H2074 H 0.61058 0.53938 0.23512 0.0
H2075 H 0.5746 0.49937 0.24214 0.0
C2076 C 0.63946 0.48442 0.28134 0.0
N2077 N 0.63702 0.49146 0.26828 0.0
C2078 C 0.64771 0.47268 0.28086 0.0
C2079 C 0.65071 0.47561 0.25347 0.0
C2080 C 0.64227 0.48718 0.25444 0.0
C2081 C 0.65358 0.46825 0.26683 0.0
H2082 H 0.63508 0.48804 0.29216 0.0
H2083 H 0.64 0.49279 0.24415 0.0
O2084 O 0.60704 0.53661 0.27579 0.0
O2085 O 0.63205 0.5216 0.29064 0.0
O2086 O 0.60248 0.49973 0.26946 0.0
O2087 O 0.62912 0.52302 0.25446 0.0
H2088 H 0.60597 0.5632 0.26408 0.0
H2089 H 0.57771 0.51877 0.27495 0.0
H2090 H 0.58129 0.56942 0.25337 0.0
H2091 H 0.55349 0.52586 0.26419 0.0
H2092 H 0.66135 0.52837 0.33843 0.0
H2093 H 0.62368 0.54677 0.30351 0.0
H2094 H 0.65226 0.51418 0.31132 0.0
H2095 H 0.63319 0.5603 0.33072 0.0
H2096 H 0.57915 0.53469 0.32954 0.0
H2097 H 0.59738 0.49385 0.33528 0.0
H2098 H 0.64834 0.58739 0.25559 0.0
H2099 H 0.67717 0.58098 0.29682 0.0
H2100 H 0.61165 0.49586 0.24082 0.0
H2101 H 0.58191 0.47338 0.27377 0.0
H2102 H 0.60226 0.47126 0.22188 0.0
H2103 H 0.57295 0.44911 0.25416 0.0
H2104 H 0.63698 0.52663 0.22584 0.0
H2105 H 0.65543 0.52575 0.2739 0.0
H2106 H 0.66449 0.53177 0.21859 0.0
H2107 H 0.68253 0.53092 0.26583 0.0
H2108 H 0.59565 0.54187 0.2102 0.0
H2109 H 0.559 0.50073 0.21708 0.0
H2110 H 0.64977 0.46738 0.29145 0.0
H2111 H 0.65486 0.47237 0.24238 0.0
Dy2112 Dy 0.03556 0.03479 0.02616 0.0
Dy2113 Dy 0.99988 0.01515 0.01067 0.0
C2114 C 0.02839 0.02141 0.99022 0.0
O2115 O 0.02618 0.05235 0.0137 0.0
O2116 O 0.99932 0.04071 0.01108 0.0
O2117 O 0.05832 0.05043 0.02388 0.0
O2118 O 0.05352 0.04208 0.04631 0.0
O2119 O 0.00105 0.01622 0.03691 0.0
O2120 O 0.01881 0.04037 0.04265 0.0
O2121 O 0.01234 0.99619 0.01446 0.0
O2122 O 0.03281 0.01031 0.03303 0.0
O2123 O 0.9748 0.00772 0.01233 0.0
O2124 O 0.98433 0.99905 0.9917 0.0
C2125 C 0.0114 0.05298 0.01039 0.0
O2126 O 0.03769 0.02148 0.00309 0.0
O2127 O 0.01394 0.02284 0.9911 0.0
C2128 C 0.0785 0.043 0.03816 0.0
C2129 C 0.10525 0.03125 0.03476 0.0
C2130 C 0.08989 0.02094 0.0321 0.0
C2131 C 0.07667 0.02676 0.03378 0.0
C2132 C 0.09374 0.05335 0.04125 0.0
C2133 C 0.10708 0.04751 0.03957 0.0
C2134 C 0.06434 0.049 0.03794 0.0
C2135 C 0.00747 0.02919 0.0467 0.0
C2136 C 0.02394 0.99673 0.02551 0.0
C2137 C 0.95935 0.00438 0.98812 0.0
C2138 C 0.93428 0.01513 0.97448 0.0
C2139 C 0.94984 0.02506 0.97701 0.0
C2140 C 0.96228 0.0197 0.98376 0.0
C2141 C 0.94416 0.99402 0.98457 0.0
C2142 C 0.93169 0.99933 0.9777 0.0
C2143 C 0.97156 1.0 0.99809 0.0
H2144 H 0.08799 0.00844 0.02802 0.0
H2145 H 0.06495 0.01864 0.03109 0.0
H2146 H 0.09529 0.06596 0.04452 0.0
H2147 H 0.11878 0.05571 0.04175 0.0
H2148 H 0.95227 0.03734 0.9749 0.0
H2149 H 0.97399 0.02784 0.98647 0.0
H2150 H 0.94176 0.98213 0.98785 0.0
H2151 H 0.91988 0.99134 0.97567 0.0
Dy2152 Dy 0.2828 0.77728 0.25122 0.0
Dy2153 Dy 0.26326 0.78367 0.28144 0.0
C2154 C 0.27726 0.81107 0.26104 0.0
O2155 O 0.3009 0.7866 0.27251 0.0
O2156 O 0.2853 0.77814 0.29162 0.0
O2157 O 0.30341 0.78412 0.23898 0.0
O2158 O 0.28504 0.76259 0.23013 0.0
O2159 O 0.25781 0.7573 0.27558 0.0
O2160 O 0.27976 0.75578 0.26332 0.0
O2161 O 0.24739 0.78538 0.26038 0.0
O2162 O 0.25706 0.77145 0.24112 0.0
O2163 O 0.24217 0.77907 0.29333 0.0
O2164 O 0.26303 0.79774 0.30351 0.0
C2165 C 0.29933 0.78247 0.28672 0.0
O2166 O 0.27791 0.80065 0.24922 0.0
O2167 O 0.27582 0.80728 0.27533 0.0
C2168 C 0.29592 0.77859 0.21146 0.0
C2169 C 0.28797 0.78829 0.18222 0.0
C2170 C 0.29244 0.79934 0.19595 0.0
C2171 C 0.29634 0.79455 0.2104 0.0
C2172 C 0.29207 0.7676 0.19767 0.0
C2173 C 0.28806 0.77241 0.18314 0.0
C2174 C 0.29746 0.7731 0.22703 0.0
C2175 C 0.26764 0.74929 0.2705 0.0
C2176 C 0.24596 0.77789 0.24606 0.0
C2177 C 0.2475 0.78423 0.32107 0.0
C2178 C 0.24793 0.77565 0.3517 0.0
C2179 C 0.24959 0.765 0.33893 0.0
C2180 C 0.24947 0.7693 0.32372 0.0
C2181 C 0.24541 0.79471 0.33368 0.0
C2182 C 0.24566 0.79047 0.34893 0.0
C2183 C 0.24889 0.78953 0.30552 0.0
H2184 H 0.29218 0.81159 0.19571 0.0
H2185 H 0.29901 0.80328 0.22083 0.0
H2186 H 0.29155 0.75521 0.19826 0.0
H2187 H 0.28471 0.76367 0.17271 0.0
H2188 H 0.2516 0.75359 0.34079 0.0
H2189 H 0.25134 0.76115 0.31412 0.0
H2190 H 0.24398 0.80633 0.33179 0.0
H2191 H 0.24428 0.79884 0.35858 0.0
Dy2192 Dy 0.50131 0.02286 0.52079 0.0
Dy2193 Dy 0.5366 0.02981 0.50773 0.0
C2194 C 0.50524 0.02863 0.48556 0.0
O2195 O 0.5037 0.99943 0.50946 0.0
O2196 O 0.53083 0.00468 0.51276 0.0
O2197 O 0.47613 0.01182 0.51651 0.0
O2198 O 0.48629 0.02605 0.53894 0.0
O2199 O 0.54089 0.03329 0.53395 0.0
O2200 O 0.51742 0.01791 0.54008 0.0
O2201 O 0.5309 0.05342 0.50931 0.0
O2202 O 0.51241 0.04891 0.52699 0.0
O2203 O 0.56155 0.04194 0.50973 0.0
O2204 O 0.55093 0.02396 0.48991 0.0
C2205 C 0.51678 0.99456 0.5098 0.0
O2206 O 0.49888 0.03262 0.49809 0.0
O2207 O 0.51822 0.02375 0.48677 0.0
C2208 C 0.46137 0.02815 0.52818 0.0
C2209 C 0.43953 0.04691 0.52619 0.0
C2210 C 0.44937 0.04583 0.51424 0.0
C2211 C 0.46025 0.03662 0.51527 0.0
C2212 C 0.45153 0.02912 0.54009 0.0
C2213 C 0.44072 0.03845 0.53914 0.0
C2214 C 0.4733 0.01897 0.52965 0.0
C2215 C 0.53241 0.02558 0.54393 0.0
C2216 C 0.52228 0.0586 0.51945 0.0
C2217 C 0.57679 0.02492 0.50044 0.0
C2218 C 0.59944 0.00729 0.50426 0.0
C2219 C 0.58922 0.00855 0.51583 0.0
C2220 C 0.57793 0.01722 0.5139 0.0
C2221 C 0.58711 0.02393 0.48901 0.0
C2222 C 0.59834 0.01517 0.49088 0.0
C2223 C 0.5641 0.03293 0.49768 0.0
H2224 H 0.44888 0.05238 0.50425 0.0
H2225 H 0.46791 0.03625 0.50604 0.0
H2226 H 0.45231 0.02276 0.55019 0.0
H2227 H 0.43322 0.03898 0.54847 0.0
H2228 H 0.58965 0.00246 0.52616 0.0
H2229 H 0.56987 0.01765 0.52275 0.0
H2230 H 0.5863 0.0297 0.4785 0.0
H2231 H 0.60615 0.01452 0.48184 0.0
Dy2232 Dy 0.28818 0.27331 0.76873 0.0
Dy2233 Dy 0.25308 0.28176 0.76465 0.0
C2234 C 0.28559 0.30738 0.76204 0.0
O2235 O 0.28482 0.28512 0.79216 0.0
O2236 O 0.25766 0.27743 0.7896 0.0
O2237 O 0.3132 0.28043 0.77722 0.0
O2238 O 0.30258 0.25677 0.76495 0.0
O2239 O 0.24833 0.2554 0.76147 0.0
O2240 O 0.27068 0.25271 0.77583 0.0
O2241 O 0.26025 0.28089 0.74019 0.0
O2242 O 0.27838 0.26602 0.74343 0.0
O2243 O 0.22831 0.27662 0.75524 0.0
O2244 O 0.23902 0.29779 0.77171 0.0
C2245 C 0.27139 0.28264 0.79842 0.0
O2246 O 0.29218 0.29587 0.75816 0.0
O2247 O 0.27201 0.30468 0.76802 0.0
C2248 C 0.32886 0.26899 0.76073 0.0
C2249 C 0.35385 0.27158 0.74155 0.0
C2250 C 0.34445 0.28248 0.74164 0.0
C2251 C 0.33201 0.28114 0.75106 0.0
C2252 C 0.33818 0.25811 0.76066 0.0
C2253 C 0.35053 0.25936 0.75115 0.0
C2254 C 0.31575 0.26732 0.77067 0.0
C2255 C 0.256 0.24682 0.76912 0.0
C2256 C 0.26934 0.27231 0.7344 0.0
C2257 C 0.21203 0.28566 0.77295 0.0
C2258 C 0.18618 0.28123 0.79113 0.0
C2259 C 0.19486 0.26974 0.7894 0.0
C2260 C 0.20774 0.27198 0.78046 0.0
C2261 C 0.2033 0.29703 0.77452 0.0
C2262 C 0.19054 0.29486 0.78352 0.0
C2263 C 0.2259 0.28868 0.76399 0.0
H2264 H 0.34656 0.2919 0.73424 0.0
H2265 H 0.32484 0.28957 0.75077 0.0
H2266 H 0.33591 0.24862 0.76799 0.0
H2267 H 0.35763 0.25087 0.75147 0.0
H2268 H 0.19192 0.25919 0.79523 0.0
H2269 H 0.21443 0.26313 0.77956 0.0
H2270 H 0.20646 0.30768 0.76886 0.0
H2271 H 0.184 0.30384 0.78443 0.0
Dy2272 Dy 0.02636 0.01074 0.51563 0.0
Dy2273 Dy 0.01744 0.04567 0.52095 0.0
C2274 C 0.99126 0.01308 0.52198 0.0
O2275 O 0.02497 0.01825 0.49152 0.0
O2276 O 0.00988 0.03612 0.49555 0.0
O2277 O 0.02193 0.9863 0.50511 0.0
O2278 O 0.04279 0.99702 0.52188 0.0
O2279 O 0.04009 0.04989 0.51023 0.0
O2280 O 0.04912 0.02991 0.51963 0.0
O2281 O 0.02846 0.04184 0.54439 0.0
O2282 O 0.02212 0.01465 0.54072 0.0
O2283 O 0.02474 0.07065 0.52986 0.0
O2284 O 0.00098 0.06018 0.51801 0.0
C2285 C 0.01613 0.02715 0.48615 0.0
O2286 O 0.99997 0.00503 0.5147 0.0
O2287 O 0.99666 0.02818 0.52765 0.0
C2288 C 0.03102 0.96986 0.52233 0.0
C2289 C 0.02655 0.94387 0.53993 0.0
C2290 C 0.01349 0.94913 0.53408 0.0
C2291 C 0.01571 0.96208 0.52544 0.0
C2292 C 0.044 0.96445 0.52797 0.0
C2293 C 0.04181 0.95165 0.53671 0.0
C2294 C 0.03392 0.98393 0.51381 0.0
C2295 C 0.05173 0.04356 0.514 0.0
C2296 C 0.02654 0.02818 0.55004 0.0
C2297 C 0.01329 0.08638 0.51413 0.0
C2298 C 0.0163 0.11157 0.49557 0.0
C2299 C 0.02288 0.09879 0.49151 0.0
C2300 C 0.02137 0.0863 0.5007 0.0
C2301 C 0.00666 0.09901 0.51821 0.0
C2302 C 0.00813 0.11148 0.50902 0.0
C2303 C 0.01157 0.07329 0.52384 0.0
H2304 H 0.00161 0.94345 0.53647 0.0
H2305 H 0.00549 0.96609 0.52137 0.0
H2306 H 0.05591 0.97026 0.52572 0.0
H2307 H 0.05208 0.94777 0.5409 0.0
H2308 H 0.02939 0.09852 0.48136 0.0
H2309 H 0.02654 0.07661 0.49734 0.0
H2310 H 1.00029 0.0992 0.52848 0.0
H2311 H 0.00268 0.12095 0.51237 0.0
Dy2312 Dy 0.27279 0.79475 0.76593 0.0
Dy2313 Dy 0.26572 0.75689 0.77082 0.0
C2314 C 0.25918 0.78201 0.79706 0.0
O2315 O 0.29683 0.79051 0.77079 0.0
O2316 O 0.28977 0.76879 0.78399 0.0
O2317 O 0.2835 0.81968 0.77364 0.0
O2318 O 0.2695 0.81209 0.75073 0.0
O2319 O 0.28171 0.7606 0.75213 0.0
O2320 O 0.27331 0.78085 0.74266 0.0
O2321 O 0.2443 0.75988 0.75612 0.0
O2322 O 0.24652 0.78594 0.76503 0.0
O2323 O 0.25746 0.73238 0.7605 0.0
O2324 O 0.26563 0.73829 0.78556 0.0
C2325 C 0.30063 0.7806 0.78 0.0
O2326 O 0.26874 0.7935 0.79119 0.0
O2327 O 0.25424 0.76753 0.78962 0.0
C2328 C 0.26819 0.83635 0.76414 0.0
C2329 C 0.25023 0.85885 0.76794 0.0
C2330 C 0.25097 0.84839 0.77922 0.0
C2331 C 0.2598 0.83718 0.7773 0.0
C2332 C 0.26764 0.84684 0.75298 0.0
C2333 C 0.25873 0.85794 0.75481 0.0
C2334 C 0.27677 0.82408 0.76128 0.0
C2335 C 0.28033 0.76932 0.74088 0.0
C2336 C 0.23798 0.77196 0.7583 0.0
C2337 C 0.27153 0.71593 0.77233 0.0
C2338 C 0.29126 0.69497 0.77091 0.0
C2339 C 0.2917 0.70593 0.76 0.0
C2340 C 0.28201 0.7164 0.76076 0.0
C2341 C 0.27101 0.70497 0.78318 0.0
C2342 C 0.28083 0.6946 0.78253 0.0
C2343 C 0.26149 0.72712 0.77354 0.0
H2344 H 0.24474 0.84885 0.78956 0.0
H2345 H 0.25994 0.82907 0.78599 0.0
H2346 H 0.27388 0.84624 0.74265 0.0
H2347 H 0.2582 0.86555 0.74572 0.0
H2348 H 0.29976 0.7066 0.75105 0.0
H2349 H 0.2828 0.72491 0.75237 0.0
H2350 H 0.26307 0.70448 0.79223 0.0
H2351 H 0.28017 0.6862 0.79102 0.0
Dy2352 Dy 0.52253 0.03527 0.00538 0.0
Dy2353 Dy 0.52939 0.01757 0.03616 0.0
C2354 C 0.52908 0.00097 0.00127 0.0
O2355 O 0.49954 0.02894 0.01547 0.0
O2356 O 0.50365 0.00801 0.0276 0.0
O2357 O 0.50904 0.03547 0.98311 0.0
O2358 O 0.52799 0.05599 0.99334 0.0
O2359 O 0.51996 0.03777 0.04562 0.0
O2360 O 0.52743 0.0536 0.02652 0.0
O2361 O 0.55208 0.03468 0.03334 0.0
O2362 O 0.54815 0.03539 0.00673 0.0
O2363 O 0.53972 0.01832 0.06011 0.0
O2364 O 0.52782 0.99576 0.0462 0.0
C2365 C 0.49413 0.016 0.02185 0.0
O2366 O 0.52041 0.01 0.99595 0.0
O2367 O 0.53649 0.00411 0.01568 0.0
C2368 C 0.52541 0.04916 0.96613 0.0
C2369 C 0.54242 0.05142 0.93985 0.0
C2370 C 0.54334 0.03989 0.94986 0.0
C2371 C 0.53493 0.03879 0.96291 0.0
C2372 C 0.52403 0.06038 0.95596 0.0
C2373 C 0.53245 0.06146 0.94282 0.0
C2374 C 0.51816 0.04909 0.98084 0.0
C2375 C 0.52285 0.05173 0.04053 0.0
C2376 C 0.55765 0.03757 0.01995 0.0
C2377 C 0.52522 0.9983 0.07313 0.0
C2378 C 0.50757 0.98894 0.09794 0.0
C2379 C 0.50298 0.99907 0.08782 0.0
C2380 C 0.5117 0.00367 0.07549 0.0
C2381 C 0.52985 0.98814 0.08307 0.0
C2382 C 0.52108 0.98348 0.09542 0.0
C2383 C 0.53427 0.00306 0.06012 0.0
H2384 H 0.55074 0.03184 0.9477 0.0
H2385 H 0.53616 0.03011 0.97074 0.0
H2386 H 0.51681 0.06854 0.95842 0.0
H2387 H 0.53161 0.0705 0.93532 0.0
H2388 H 0.49282 0.00373 0.08962 0.0
H2389 H 0.50797 0.01148 0.06783 0.0
H2390 H 0.54021 0.98382 0.08126 0.0
H2391 H 0.52482 0.97556 0.10292 0.0
Dy2392 Dy 0.26111 0.25885 0.25896 0.0
Dy2393 Dy 0.28167 0.29408 0.27544 0.0
C2394 C 0.27697 0.26464 0.29466 0.0
O2395 O 0.24317 0.27271 0.26204 0.0
O2396 O 0.25704 0.2914 0.28235 0.0
O2397 O 0.24027 0.23931 0.25757 0.0
O2398 O 0.25796 0.23827 0.24161 0.0
O2399 O 0.26945 0.29861 0.25303 0.0
O2400 O 0.26479 0.27365 0.23929 0.0
O2401 O 0.29712 0.28433 0.25996 0.0
O2402 O 0.28668 0.258 0.26115 0.0
O2403 O 0.30081 0.31496 0.27535 0.0
O2404 O 0.28751 0.31247 0.29548 0.0
C2405 C 0.24355 0.28344 0.27403 0.0
O2406 O 0.26417 0.25769 0.28489 0.0
O2407 O 0.28737 0.27707 0.29127 0.0
C2408 C 0.24623 0.21477 0.25153 0.0
C2409 C 0.25286 0.18665 0.2597 0.0
C2410 C 0.2509 0.19818 0.27146 0.0
C2411 C 0.24774 0.21217 0.26743 0.0
C2412 C 0.24718 0.20289 0.23971 0.0
C2413 C 0.25051 0.18894 0.24374 0.0
C2414 C 0.24546 0.23037 0.2473 0.0
C2415 C 0.26599 0.28893 0.2397 0.0
C2416 C 0.29834 0.26968 0.25831 0.0
C2417 C 0.29553 0.33796 0.28798 0.0
C2418 C 0.28735 0.36693 0.28762 0.0
C2419 C 0.28696 0.35721 0.27342 0.0
C2420 C 0.29093 0.34282 0.27359 0.0
C2421 C 0.29662 0.34795 0.30212 0.0
C2422 C 0.29249 0.36232 0.30196 0.0
C2423 C 0.29783 0.32199 0.28846 0.0
H2424 H 0.25241 0.19667 0.28383 0.0
H2425 H 0.24711 0.2212 0.27681 0.0
H2426 H 0.24615 0.20473 0.22739 0.0
H2427 H 0.25214 0.18041 0.2344 0.0
H2428 H 0.28277 0.36034 0.26222 0.0
H2429 H 0.28981 0.33525 0.26251 0.0
H2430 H 0.30011 0.34436 0.31333 0.0
H2431 H 0.29292 0.36964 0.31305 0.0
Dy2432 Dy 0.52721 0.50976 0.01549 0.0
Dy2433 Dy 0.51838 0.54455 0.01967 0.0
C2434 C 0.49276 0.51203 0.0215 0.0
O2435 O 0.51607 0.51314 0.99195 0.0
O2436 O 0.52376 0.54028 0.99493 0.0
O2437 O 0.52042 0.48481 0.00652 0.0
O2438 O 0.54371 0.49543 0.01944 0.0
O2439 O 0.54478 0.5496 0.02326 0.0
O2440 O 0.54804 0.52735 0.00882 0.0
O2441 O 0.51842 0.5373 0.04392 0.0
O2442 O 0.53378 0.51955 0.04096 0.0
O2443 O 0.52295 0.56917 0.02972 0.0
O2444 O 0.50253 0.55849 0.01246 0.0
C2445 C 0.51881 0.5266 0.98589 0.0
O2446 O 0.50426 0.50565 0.02572 0.0
O2447 O 0.49559 0.52542 0.01539 0.0
C2448 C 0.53128 0.46908 0.02301 0.0
C2449 C 0.52798 0.44396 0.04168 0.0
C2450 C 0.51626 0.45236 0.04037 0.0
C2451 C 0.51794 0.46487 0.0312 0.0
C2452 C 0.54298 0.46074 0.02431 0.0
C2453 C 0.54138 0.44833 0.03358 0.0
C2454 C 0.53333 0.48228 0.01334 0.0
C2455 C 0.55366 0.54206 0.01564 0.0
C2456 C 0.52709 0.52853 0.04987 0.0
C2457 C 0.51478 0.58549 0.01217 0.0
C2458 C 0.52002 0.61164 0.99482 0.0
C2459 C 0.52699 0.59904 0.99126 0.0
C2460 C 0.52439 0.58608 -0.00014 0.0
C2461 C 0.50794 0.59805 0.01588 0.0
C2462 C 0.51053 0.611 0.00731 0.0
C2463 C 0.51118 0.57157 0.02073 0.0
H2464 H 0.5059 0.44942 0.04662 0.0
H2465 H 0.50883 0.47126 0.03056 0.0
H2466 H 0.55338 0.46383 0.01814 0.0
H2467 H 0.55054 0.44201 0.03424 0.0
H2468 H 0.53451 0.59922 0.98186 0.0
H2469 H 0.52974 0.57645 0.99681 0.0
H2470 H 0.50038 0.59772 0.02526 0.0
H2471 H 0.50477 0.62034 0.01023 0.0
Dy2472 Dy 0.7735 0.29361 0.26932 0.0
Dy2473 Dy 0.76512 0.2561 0.2762 0.0
C2474 C 0.76033 0.28343 0.30113 0.0
O2475 O 0.79543 0.29083 0.28316 0.0
O2476 O 0.79152 0.2639 0.27738 0.0
O2477 O 0.78267 0.31857 0.27766 0.0
O2478 O 0.77327 0.31085 0.25306 0.0
O2479 O 0.76795 0.25623 0.25065 0.0
O2480 O 0.78439 0.28116 0.25118 0.0
O2481 O 0.74158 0.26166 0.27248 0.0
O2482 O 0.74899 0.28171 0.25729 0.0
O2483 O 0.75384 0.23122 0.26875 0.0
O2484 O 0.76743 0.23883 0.2918 0.0
C2485 C 0.80083 0.27807 0.28253 0.0
O2486 O 0.75962 0.29238 0.28991 0.0
O2487 O 0.76557 0.2707 0.29912 0.0
C2488 C 0.76855 0.33445 0.26487 0.0
C2489 C 0.74942 0.35607 0.26512 0.0
C2490 C 0.74945 0.34625 0.27711 0.0
C2491 C 0.75885 0.33549 0.27694 0.0
C2492 C 0.76864 0.34424 0.25295 0.0
C2493 C 0.75914 0.35492 0.25303 0.0
C2494 C 0.77817 0.32284 0.26423 0.0
C2495 C 0.77845 0.26652 0.24439 0.0
C2496 C 0.73793 0.27103 0.26256 0.0
C2497 C 0.76912 0.21482 0.27843 0.0
C2498 C 0.78785 0.19303 0.2754 0.0
C2499 C 0.79127 0.20687 0.26797 0.0
C2500 C 0.78201 0.2177 0.26952 0.0
C2501 C 0.76545 0.20093 0.28558 0.0
C2502 C 0.77473 0.1901 0.28408 0.0
C2503 C 0.76026 0.22681 0.28126 0.0
H2504 H 0.74231 0.34694 0.28672 0.0
H2505 H 0.75847 0.32796 0.28622 0.0
H2506 H 0.77592 0.3435 0.24345 0.0
H2507 H 0.75922 0.36207 0.24346 0.0
H2508 H 0.8014 0.20957 0.26137 0.0
H2509 H 0.7851 0.22848 0.26406 0.0
H2510 H 0.75559 0.19859 0.29256 0.0
H2511 H 0.77168 0.17947 0.28977 0.0
Dy2512 Dy 0.01771 0.5345 0.50546 0.0
Dy2513 Dy 0.02685 0.51769 0.53614 0.0
C2514 C 0.02569 0.50074 0.50119 0.0
O2515 O 0.9953 0.52719 0.51636 0.0
O2516 O 0.00112 0.50681 0.5283 0.0
O2517 O 0.00289 0.53445 0.48394 0.0
O2518 O 0.02236 0.55498 0.49298 0.0
O2519 O 0.01645 0.53712 0.5457 0.0
O2520 O 0.02296 0.55303 0.5265 0.0
O2521 O 0.04885 0.53525 0.53212 0.0
O2522 O 0.04334 0.53512 0.50555 0.0
O2523 O 0.03831 0.51939 0.55981 0.0
O2524 O 0.02669 0.49637 0.54666 0.0
C2525 C 0.99082 0.51414 0.52283 0.0
O2526 O 0.01652 0.50939 0.496 0.0
O2527 O 0.03348 0.50419 0.51544 0.0
C2528 C 0.01843 0.54745 0.4658 0.0
C2529 C 0.03606 0.54865 0.43991 0.0
C2530 C 0.03213 0.53476 0.44714 0.0
C2531 C 0.02349 0.5342 0.46004 0.0
C2532 C 0.02162 0.56108 0.45816 0.0
C2533 C 0.03037 0.56168 0.44524 0.0
C2534 C 0.01196 0.54783 0.48097 0.0
C2535 C 0.01873 0.55104 0.54062 0.0
C2536 C 0.05354 0.53788 0.51831 0.0
C2537 C 0.02495 0.49958 0.57374 0.0
C2538 C 0.00842 0.49076 0.59941 0.0
C2539 C 0.00284 0.49987 0.58874 0.0
C2540 C 0.01101 0.50419 0.57599 0.0
C2541 C 0.03057 0.49043 0.58421 0.0
C2542 C 0.02236 0.48605 0.597 0.0
C2543 C 0.03343 0.50415 0.56031 0.0
H2544 H 0.03611 0.52445 0.44311 0.0
H2545 H 0.02133 0.52363 0.46589 0.0
H2546 H 0.01798 0.57148 0.46261 0.0
H2547 H 0.03331 0.57256 0.43994 0.0
H2548 H 0.99233 0.50397 0.59043 0.0
H2549 H 0.00652 0.51124 0.56793 0.0
H2550 H 0.04129 0.48671 0.58251 0.0
H2551 H 0.02687 0.47894 0.60495 0.0
Dy2552 Dy 0.78873 0.77175 0.26882 0.0
Dy2553 Dy 0.75404 0.7811 0.26479 0.0
C2554 C 0.78683 0.80614 0.2623 0.0
O2555 O 0.78556 0.78298 0.29259 0.0
O2556 O 0.75836 0.77729 0.2899 0.0
O2557 O 0.81378 0.77845 0.27718 0.0
O2558 O 0.80288 0.75502 0.26453 0.0
O2559 O 0.74862 0.75472 0.2628 0.0
O2560 O 0.7712 0.75154 0.27643 0.0
O2561 O 0.76146 0.77981 0.24045 0.0
O2562 O 0.77773 0.76323 0.24399 0.0
O2563 O 0.72943 0.77637 0.25491 0.0
O2564 O 0.74018 0.79738 0.27157 0.0
C2565 C 0.7721 0.78146 0.29876 0.0
O2566 O 0.7931 0.79441 0.25833 0.0
O2567 O 0.77326 0.80372 0.26826 0.0
C2568 C 0.82941 0.76693 0.26061 0.0
C2569 C 0.85504 0.76951 0.24215 0.0
C2570 C 0.84691 0.7815 0.24352 0.0
C2571 C 0.8342 0.78019 0.2526 0.0
C2572 C 0.83738 0.75492 0.2592 0.0
C2573 C 0.85002 0.75616 0.25006 0.0
C2574 C 0.81614 0.76534 0.2704 0.0
C2575 C 0.75627 0.74604 0.27036 0.0
C2576 C 0.76934 0.76995 0.23473 0.0
C2577 C 0.71314 0.7854 0.27245 0.0
C2578 C 0.68724 0.78124 0.29052 0.0
C2579 C 0.69869 0.77261 0.2926 0.0
C2580 C 0.71157 0.77471 0.28368 0.0
C2581 C 0.70167 0.79384 0.27016 0.0
C2582 C 0.68884 0.79179 0.27909 0.0
C2583 C 0.72707 0.78848 0.26363 0.0
H2584 H 0.8505 0.79203 0.23777 0.0
H2585 H 0.82818 0.78959 0.25341 0.0
H2586 H 0.8338 0.74453 0.26518 0.0
H2587 H 0.85574 0.74655 0.24908 0.0
H2588 H 0.69793 0.76452 0.3014 0.0
H2589 H 0.72041 0.76819 0.2857 0.0
H2590 H 0.70271 0.80217 0.26158 0.0
H2591 H 0.68014 0.79846 0.27701 0.0
Dy2592 Dy 0.78246 0.27846 0.74777 0.0
Dy2593 Dy 0.76037 0.278 0.77693 0.0
C2594 C 0.77728 0.30974 0.76426 0.0
O2595 O 0.79848 0.27595 0.76853 0.0
O2596 O 0.78506 0.28242 0.78919 0.0
O2597 O 0.79446 0.28993 0.72955 0.0
O2598 O 0.79525 0.26597 0.73281 0.0
O2599 O 0.76613 0.25462 0.77373 0.0
O2600 O 0.76678 0.25418 0.74725 0.0
O2601 O 0.74315 0.2714 0.75494 0.0
O2602 O 0.75956 0.2823 0.73725 0.0
O2603 O 0.74077 0.26661 0.78885 0.0
O2604 O 0.75447 0.29072 0.79742 0.0
C2605 C 0.79767 0.27925 0.7837 0.0
O2606 O 0.78842 0.30297 0.76047 0.0
O2607 O 0.76379 0.30131 0.76784 0.0
C2608 C 0.79284 0.27205 0.7069 0.0
C2609 C 0.78286 0.26527 0.67426 0.0
C2610 C 0.77192 0.26663 0.68508 0.0
C2611 C 0.77685 0.2699 0.70123 0.0
C2612 C 0.80369 0.26991 0.69636 0.0
C2613 C 0.79872 0.26646 0.68013 0.0
C2614 C 0.79813 0.27714 0.72373 0.0
C2615 C 0.76577 0.2468 0.75978 0.0
C2616 C 0.74527 0.27673 0.74129 0.0
C2617 C 0.74601 0.27412 0.81617 0.0
C2618 C 0.75126 0.26669 0.8469 0.0
C2619 C 0.76127 0.26396 0.83557 0.0
C2620 C 0.75867 0.26765 0.82033 0.0
C2621 C 0.73598 0.27693 0.82736 0.0
C2622 C 0.73856 0.27319 0.84267 0.0
C2623 C 0.74376 0.27838 0.80029 0.0
H2624 H 0.75969 0.26611 0.6811 0.0
H2625 H 0.76828 0.27137 0.70926 0.0
H2626 H 0.81605 0.27134 0.70062 0.0
H2627 H 0.80741 0.26524 0.67216 0.0
H2628 H 0.77097 0.25869 0.83839 0.0
H2629 H 0.76651 0.26543 0.81176 0.0
H2630 H 0.72623 0.28204 0.82428 0.0
H2631 H 0.73072 0.2755 0.8512 0.0
Dy2632 Dy 0.75918 0.76034 0.75687 0.0
Dy2633 Dy 0.78045 0.79518 0.77371 0.0
C2634 C 0.77545 0.76546 0.79249 0.0
O2635 O 0.74184 0.77489 0.76017 0.0
O2636 O 0.75601 0.79235 0.78118 0.0
O2637 O 0.73853 0.74069 0.75613 0.0
O2638 O 0.75473 0.74052 0.73843 0.0
O2639 O 0.76843 0.8003 0.75149 0.0
O2640 O 0.76319 0.77542 0.73746 0.0
O2641 O 0.79553 0.78516 0.75797 0.0
O2642 O 0.78452 0.75881 0.75861 0.0
O2643 O 0.80044 0.81543 0.77418 0.0
O2644 O 0.78596 0.81392 0.79342 0.0
C2645 C 0.74242 0.78516 0.77261 0.0
O2646 O 0.76257 0.75873 0.78272 0.0
O2647 O 0.78594 0.77791 0.78927 0.0
C2648 C 0.74385 0.71642 0.74749 0.0
C2649 C 0.75122 0.68768 0.75181 0.0
C2650 C 0.75302 0.69948 0.76472 0.0
C2651 C 0.74946 0.71379 0.76256 0.0
C2652 C 0.74111 0.70432 0.73477 0.0
C2653 C 0.7448 0.69002 0.7369 0.0
C2654 C 0.74277 0.7323 0.74462 0.0
C2655 C 0.76473 0.79076 0.73807 0.0
C2656 C 0.79641 0.7704 0.75601 0.0
C2657 C 0.79507 0.83892 0.78527 0.0
C2658 C 0.78679 0.86765 0.78324 0.0
C2659 C 0.7856 0.85689 0.76959 0.0
C2660 C 0.78963 0.84262 0.77061 0.0
C2661 C 0.79707 0.84996 0.79881 0.0
C2662 C 0.79293 0.86425 0.79781 0.0
C2663 C 0.79697 0.82296 0.78673 0.0
H2664 H 0.75818 0.69808 0.77627 0.0
H2665 H 0.75185 0.72307 0.7725 0.0
H2666 H 0.73687 0.70622 0.72306 0.0
H2667 H 0.74327 0.68107 0.72679 0.0
H2668 H 0.78065 0.85904 0.75825 0.0
H2669 H 0.78781 0.8342 0.76001 0.0
H2670 H 0.80119 0.84725 0.81022 0.0
H2671 H 0.79402 0.8724 0.80849 0.0
Dy2672 Dy 0.53819 0.53657 0.52426 0.0
Dy2673 Dy 0.50288 0.51632 0.50782 0.0
C2674 C 0.5329 0.5216 0.48832 0.0
O2675 O 0.52819 0.55251 0.50997 0.0
O2676 O 0.50169 0.54175 0.5105 0.0
O2677 O 0.55857 0.55633 0.52437 0.0
O2678 O 0.5578 0.54122 0.54283 0.0
O2679 O 0.50124 0.51965 0.53373 0.0
O2680 O 0.52171 0.54196 0.54122 0.0
O2681 O 0.51695 0.49846 0.51051 0.0
O2682 O 0.53462 0.51218 0.53149 0.0
O2683 O 0.483 0.49583 0.50677 0.0
O2684 O 0.48302 0.5124 0.48973 0.0
C2685 C 0.51349 0.55366 0.50833 0.0
O2686 O 0.54236 0.52397 0.5016 0.0
O2687 O 0.51781 0.5212 0.48824 0.0
C2688 C 0.58237 0.55083 0.53363 0.0
C2689 C 0.61214 0.54541 0.52938 0.0
C2690 C 0.59964 0.54076 0.517 0.0
C2691 C 0.58486 0.54338 0.51914 0.0
C2692 C 0.5949 0.5559 0.54587 0.0
C2693 C 0.60971 0.55319 0.54378 0.0
C2694 C 0.56652 0.5525 0.53625 0.0
C2695 C 0.50878 0.53187 0.54411 0.0
C2696 C 0.5271 0.49872 0.52282 0.0
C2697 C 0.45878 0.50101 0.49855 0.0
C2698 C 0.42871 0.50538 0.50316 0.0
C2699 C 0.44162 0.51144 0.51499 0.0
C2700 C 0.45655 0.50933 0.51267 0.0
C2701 C 0.44586 0.49442 0.48696 0.0
C2702 C 0.43089 0.49659 0.48924 0.0
C2703 C 0.47474 0.50021 0.49548 0.0
H2704 H 0.60107 0.53448 0.50589 0.0
H2705 H 0.57527 0.53925 0.50958 0.0
H2706 H 0.59313 0.56163 0.55714 0.0
H2707 H 0.61917 0.55693 0.55348 0.0
H2708 H 0.44038 0.51851 0.52571 0.0
H2709 H 0.46648 0.51462 0.52169 0.0
H2710 H 0.44744 0.48799 0.47598 0.0
H2711 H 0.42112 0.49174 0.47997 0.0
Dy2712 Dy 1.00051 0.52128 0.01873 0.0
Dy2713 Dy 0.03696 0.52852 0.00837 0.0
C2714 C 0.00727 0.529 0.98456 0.0
O2715 O 0.00325 0.49813 0.00705 0.0
O2716 O 0.0303 0.50298 0.01197 0.0
O2717 O 0.97537 0.51082 0.01256 0.0
O2718 O 0.98431 0.52347 0.03597 0.0
O2719 O 0.03928 0.53093 0.03463 0.0
O2720 O 0.01511 0.51512 0.03845 0.0
O2721 O 0.03159 0.55229 0.01031 0.0
O2722 O 0.01161 0.54718 0.02635 0.0
O2723 O 0.06202 0.54042 0.01232 0.0
O2724 O 0.0525 0.52346 0.99144 0.0
C2725 C 0.01621 0.49307 0.008 0.0
O2726 O 0.99996 0.53232 0.99662 0.0
O2727 O 0.02003 0.52383 0.98635 0.0
C2728 C 0.96014 0.52658 0.02433 0.0
C2729 C 0.93876 0.54581 0.02257 0.0
C2730 C 0.94953 0.54573 0.01135 0.0
C2731 C 0.9602 0.53628 0.01228 0.0
C2732 C 0.94937 0.52655 0.0355 0.0
C2733 C 0.93878 0.53612 0.03466 0.0
C2734 C 0.9718 0.51712 0.02578 0.0
C2735 C 0.02985 0.52276 0.04363 0.0
C2736 C 0.02229 0.55717 0.01987 0.0
C2737 C 0.07797 0.52395 0.003 0.0
C2738 C 0.10069 0.50642 0.00718 0.0
C2739 C 0.09299 0.51088 0.01995 0.0
C2740 C 0.08165 0.51947 0.01786 0.0
C2741 C 0.08585 0.51977 0.99032 0.0
C2742 C 0.09707 0.51104 0.99237 0.0
C2743 C 0.06527 0.53201 0.0002 0.0
H2744 H 0.94994 0.55323 0.00203 0.0
H2745 H 0.9686 0.53668 0.00367 0.0
H2746 H 0.94924 0.51923 0.04495 0.0
H2747 H 0.93053 0.53587 0.0434 0.0
H2748 H 0.09543 0.50733 0.03145 0.0
H2749 H 0.07556 0.52236 0.02779 0.0
H2750 H 0.08312 0.52303 0.97875 0.0
H2751 H 0.10291 0.50789 0.98235 0.0
C2752 C 0.00968 0.18084 0.96398 0.0
C2753 C 0.99497 0.18452 0.96139 0.0
C2754 C 0.01065 0.16644 0.96916 0.0
C2755 C 0.98822 0.13237 0.98791 0.0
H2756 H 0.01966 0.1123 0.97235 0.0
C2757 C 0.99305 0.0695 0.0015 0.0
C2758 C 0.00852 0.06786 0.00516 0.0
C2759 C 0.99063 0.08343 0.9961 0.0
C2760 C 0.01089 0.11779 0.97694 0.0
H2761 H 0.96968 0.17565 0.96249 0.0
H2762 H 0.97131 0.15038 0.97107 0.0
H2763 H 0.01685 0.13681 0.963 0.0
H2764 H 0.03354 0.07983 0.00608 0.0
H2765 H 0.02932 0.10385 0.99677 0.0
H2766 H 0.98222 0.11312 0.00175 0.0
C2767 C 0.98219 0.15879 0.96931 0.0
C2768 C 0.0093 0.13193 0.97159 0.0
C2769 C 0.98123 0.17327 0.96417 0.0
C2770 C 0.02144 0.08056 0.00337 0.0
C2771 C 0.01903 0.09436 0.9979 0.0
C2772 C 0.98976 0.11812 0.99319 0.0
C2773 C 0.99692 0.15511 0.97183 0.0
C2774 C 0.99808 0.13959 0.97713 0.0
C2775 C 0.00361 0.096 0.99409 0.0
C2776 C 0.00127 0.11074 0.98793 0.0
H2777 H 0.02054 0.18899 0.96177 0.0
H2778 H 0.02226 0.16425 0.97117 0.0
H2779 H 0.97955 0.13792 0.99261 0.0
H2780 H 0.98279 0.05999 0.00266 0.0
H2781 H 0.97858 0.08422 0.99319 0.0
C2782 C 0.12377 0.77329 0.16043 0.0
C2783 C 0.12191 0.78818 0.1572 0.0
C2784 C 0.1376 0.77204 0.16915 0.0
C2785 C 0.17168 0.79577 0.19759 0.0
H2786 H 0.18922 0.75989 0.18787 0.0
C2787 C 0.219 0.78256 0.24106 0.0
C2788 C 0.2317 0.77761 0.23511 0.0
C2789 C 0.20596 0.78349 0.23095 0.0
C2790 C 0.18458 0.77006 0.19067 0.0
H2791 H 0.13335 0.81339 0.16041 0.0
H2792 H 0.15751 0.81123 0.17549 0.0
H2793 H 0.16624 0.76257 0.17111 0.0
H2794 H 0.24042 0.76943 0.21374 0.0
H2795 H 0.2176 0.77119 0.19596 0.0
H2796 H 0.19013 0.80344 0.21694 0.0
C2797 C 0.14815 0.80051 0.17152 0.0
C2798 C 0.17126 0.77151 0.18116 0.0
C2799 C 0.13428 0.80177 0.16286 0.0
C2800 C 0.23083 0.77323 0.21873 0.0
C2801 C 0.21772 0.77422 0.20855 0.0
C2802 C 0.18497 0.79434 0.20705 0.0
C2803 C 0.14999 0.78563 0.17485 0.0
C2804 C 0.16455 0.78433 0.18457 0.0
C2805 C 0.20522 0.77959 0.21453 0.0
C2806 C 0.19151 0.78138 0.20385 0.0
H2807 H 0.11439 0.76259 0.15647 0.0
H2808 H 0.13842 0.76042 0.1717 0.0
H2809 H 0.16681 0.80572 0.20071 0.0
H2810 H 0.21913 0.78587 0.25361 0.0
H2811 H 0.19642 0.78729 0.23605 0.0
C2812 C 0.49625 0.85027 0.47301 0.0
C2813 C 0.51011 0.84585 0.46959 0.0
C2814 C 0.49682 0.86608 0.47828 0.0
C2815 C 0.52416 0.90452 0.49643 0.0
H2816 H 0.49155 0.92243 0.47813 0.0
C2817 C 0.52961 0.9721 0.50506 0.0
C2818 C 0.51576 0.97731 0.50643 0.0
C2819 C 0.52873 0.95596 0.50132 0.0
C2820 C 0.50063 0.9176 0.48357 0.0
H2821 H 0.53553 0.85466 0.46949 0.0
H2822 H 0.53652 0.88224 0.47859 0.0
H2823 H 0.49041 0.89461 0.47046 0.0
H2824 H 0.49011 0.96945 0.50518 0.0
H2825 H 0.48858 0.9413 0.49896 0.0
H2826 H 0.53437 0.92748 0.50958 0.0
C2827 C 0.52519 0.87344 0.47724 0.0
C2828 C 0.49999 0.90161 0.47913 0.0
C2829 C 0.52461 0.85764 0.47188 0.0
C2830 C 0.50102 0.96591 0.50415 0.0
C2831 C 0.50014 0.94973 0.50048 0.0
C2832 C 0.52477 0.9205 0.50093 0.0
C2833 C 0.51128 0.87791 0.48037 0.0
C2834 C 0.51178 0.89487 0.48544 0.0
C2835 C 0.51398 0.94452 0.49891 0.0
C2836 C 0.51306 0.92732 0.4945 0.0
H2837 H 0.48484 0.84157 0.47123 0.0
H2838 H 0.48589 0.86904 0.48073 0.0
H2839 H 0.53332 0.89968 0.5017 0.0
H2840 H 0.54119 0.98051 0.50663 0.0
H2841 H 0.53963 0.9525 0.49998 0.0
C2842 C 0.45984 0.26768 0.6568 0.0
C2843 C 0.47165 0.28203 0.65752 0.0
C2844 C 0.44706 0.26668 0.66573 0.0
C2845 C 0.42401 0.29087 0.68612 0.0
H2846 H 0.41122 0.25458 0.70873 0.0
C2847 C 0.37755 0.28776 0.73068 0.0
C2848 C 0.36708 0.27294 0.73153 0.0
C2849 C 0.3902 0.28897 0.72154 0.0
C2850 C 0.41444 0.26469 0.70232 0.0
H2851 H 0.47917 0.30658 0.66841 0.0
H2852 H 0.45674 0.30486 0.68373 0.0
H2853 H 0.43329 0.25647 0.69295 0.0
H2854 H 0.36143 0.2478 0.72307 0.0
H2855 H 0.38324 0.2499 0.70692 0.0
H2856 H 0.40505 0.29902 0.69527 0.0
C2857 C 0.45736 0.29441 0.67616 0.0
C2858 C 0.42715 0.26579 0.6933 0.0
C2859 C 0.47021 0.29539 0.66732 0.0
C2860 C 0.36943 0.25937 0.72286 0.0
C2861 C 0.38199 0.26059 0.71363 0.0
C2862 C 0.41121 0.28972 0.69505 0.0
C2863 C 0.44567 0.28002 0.67552 0.0
C2864 C 0.43211 0.27889 0.6851 0.0
C2865 C 0.39263 0.27539 0.7129 0.0
C2866 C 0.40624 0.27662 0.7033 0.0
H2867 H 0.46031 0.25721 0.64917 0.0
H2868 H 0.43813 0.25548 0.66478 0.0
H2869 H 0.42739 0.30102 0.67978 0.0
H2870 H 0.37618 0.29842 0.73736 0.0
H2871 H 0.39825 0.30054 0.7215 0.0
C2872 C 0.02356 0.84112 0.62778 0.0
C2873 C 0.01364 0.82595 0.62198 0.0
C2874 C 0.02464 0.85375 0.61886 0.0
C2875 C 0.00337 0.86814 0.58699 0.0
H2876 H 0.045 0.89476 0.58284 0.0
C2877 C 0.01233 0.91639 0.54476 0.0
C2878 C 0.02439 0.93045 0.54951 0.0
C2879 C 0.01072 0.9036 0.55354 0.0
C2880 C 0.03325 0.88763 0.58405 0.0
H2881 H 0.99713 0.81234 0.60206 0.0
H2882 H 0.99877 0.8345 0.58673 0.0
H2883 H 0.04271 0.87273 0.59835 0.0
H2884 H 0.04385 0.94232 0.56752 0.0
H2885 H 0.04085 0.92026 0.58304 0.0
H2886 H 0.99384 0.88319 0.57296 0.0
C2887 C 0.00566 0.83656 0.59823 0.0
C2888 C 0.03196 0.87495 0.59291 0.0
C2889 C 0.0047 0.82386 0.60707 0.0
C2890 C 0.0346 0.93154 0.56341 0.0
C2891 C 0.03291 0.91884 0.57227 0.0
C2892 C 0.00464 0.88095 0.57825 0.0
C2893 C 0.01571 0.85162 0.60399 0.0
C2894 C 0.01701 0.86506 0.59449 0.0
C2895 C 0.02105 0.90461 0.5674 0.0
C2896 C 0.01961 0.89089 0.57666 0.0
H2897 H 0.03038 0.84333 0.63932 0.0
H2898 H 0.03232 0.86527 0.62372 0.0
H2899 H 0.99167 0.86083 0.58813 0.0
H2900 H 0.00436 0.91515 0.53402 0.0
H2901 H 0.00159 0.89279 0.54927 0.0
C2902 C 0.445 0.79612 0.80853 0.0
C2903 C 0.44911 0.7873 0.8203 0.0
C2904 C 0.42906 0.79555 0.80398 0.0
C2905 C 0.38803 0.77105 0.80436 0.0
H2906 H 0.37605 0.80999 0.79878 0.0
C2907 C 0.32213 0.77241 0.79589 0.0
C2908 C 0.31768 0.78214 0.78523 0.0
C2909 C 0.33817 0.7733 0.8002 0.0
C2910 C 0.37918 0.79896 0.80008 0.0
H2911 H 0.43942 0.77116 0.83668 0.0
H2912 H 0.41178 0.76997 0.82855 0.0
H2913 H 0.40392 0.81084 0.80569 0.0
H2914 H 0.32678 0.80052 0.77082 0.0
H2915 H 0.35465 0.80189 0.77811 0.0
H2916 H 0.36339 0.7591 0.79859 0.0
C2917 C 0.42089 0.77719 0.82269 0.0
C2918 C 0.39519 0.79946 0.80406 0.0
C2919 C 0.4368 0.77784 0.82731 0.0
C2920 C 0.32972 0.79291 0.77914 0.0
C2921 C 0.34577 0.79374 0.78339 0.0
C2922 C 0.37204 0.77053 0.80028 0.0
C2923 C 0.4168 0.78608 0.81101 0.0
C2924 C 0.39981 0.78552 0.80634 0.0
C2925 C 0.35023 0.78388 0.79391 0.0
C2926 C 0.36735 0.78448 0.79816 0.0
H2927 H 0.45409 0.80339 0.8027 0.0
H2928 H 0.42633 0.8024 0.79481 0.0
H2929 H 0.39119 0.76005 0.80578 0.0
H2930 H 0.31321 0.76401 0.80088 0.0
H2931 H 0.34109 0.76572 0.80856 0.0
C2932 C 0.52254 0.17635 0.12044 0.0
C2933 C 0.50756 0.17847 0.12326 0.0
C2934 C 0.5239 0.16241 0.11188 0.0
C2935 C 0.50207 0.12046 0.09803 0.0
H2936 H 0.53429 0.12363 0.06939 0.0
C2937 C 0.51728 0.06508 0.06616 0.0
C2938 C 0.52071 0.06578 0.05048 0.0
C2939 C 0.5154 0.07855 0.07534 0.0
C2940 C 0.52513 0.12249 0.07723 0.0
H2941 H 0.48223 0.16742 0.11918 0.0
H2942 H 0.48458 0.14323 0.10382 0.0
H2943 H 0.53111 0.14755 0.08418 0.0
H2944 H 0.52446 0.08114 0.0321 0.0
H2945 H 0.52094 0.10429 0.04788 0.0
H2946 H 0.49582 0.09536 0.09065 0.0
C2947 C 0.49531 0.1523 0.1085 0.0
C2948 C 0.52344 0.13624 0.0859 0.0
C2949 C 0.49395 0.16627 0.11714 0.0
C2950 C 0.52201 0.08016 0.04417 0.0
C2951 C 0.52007 0.09353 0.05328 0.0
C2952 C 0.50373 0.10666 0.08929 0.0
C2953 C 0.51032 0.15019 0.10576 0.0
C2954 C 0.51191 0.13544 0.09644 0.0
C2955 C 0.51686 0.09298 0.06903 0.0
C2956 C 0.51525 0.10752 0.07872 0.0
H2957 H 0.53329 0.18555 0.12474 0.0
H2958 H 0.53567 0.16117 0.1102 0.0
H2959 H 0.49318 0.11935 0.10616 0.0
H2960 H 0.51618 0.05419 0.07138 0.0
H2961 H 0.51307 0.07772 0.08747 0.0
C2962 C 0.12287 0.31045 0.32325 0.0
C2963 C 0.10983 0.29699 0.32171 0.0
C2964 C 0.1373 0.30942 0.31786 0.0
C2965 C 0.15959 0.27962 0.30549 0.0
H2966 H 0.18669 0.31541 0.28976 0.0
C2967 C 0.2139 0.27451 0.27337 0.0
C2968 C 0.22829 0.28598 0.2787 0.0
C2969 C 0.19959 0.27626 0.27844 0.0
C2970 C 0.17928 0.30535 0.29422 0.0
H2971 H 0.10206 0.27181 0.31303 0.0
H2972 H 0.12666 0.27026 0.30288 0.0
H2973 H 0.16139 0.31754 0.29844 0.0
H2974 H 0.23877 0.30852 0.29328 0.0
H2975 H 0.21363 0.31176 0.30185 0.0
H2976 H 0.17735 0.26733 0.30076 0.0
C2977 C 0.12597 0.28157 0.3087 0.0
C2978 C 0.16476 0.30657 0.29929 0.0
C2979 C 0.11163 0.28255 0.3143 0.0
C2980 C 0.22792 0.29945 0.28896 0.0
C2981 C 0.21352 0.30134 0.29382 0.0
C2982 C 0.17395 0.27834 0.30018 0.0
C2983 C 0.13913 0.29495 0.31054 0.0
C2984 C 0.15466 0.29372 0.30503 0.0
C2985 C 0.19922 0.28966 0.28878 0.0
C2986 C 0.18398 0.29118 0.29449 0.0
H2987 H 0.12201 0.32187 0.32862 0.0
H2988 H 0.14711 0.31999 0.31971 0.0
H2989 H 0.15246 0.26957 0.31016 0.0
H2990 H 0.21371 0.26394 0.26552 0.0
H2991 H 0.18876 0.26712 0.27424 0.0
C2992 C 0.9724 0.05105 0.18179 0.0
C2993 C 0.96505 0.03686 0.18739 0.0
C2994 C 0.97786 0.05075 0.16693 0.0
C2995 C 0.98763 0.02359 0.1352 0.0
H2996 H 0.98227 0.05586 0.10905 0.0
C2997 C 0.99327 0.01749 0.06851 0.0
C2998 C 0.00258 0.03074 0.06276 0.0
C2999 C 0.98921 0.01871 0.0839 0.0
C3000 C 0.98396 0.04686 0.11629 0.0
H3001 H 0.95745 0.01126 0.18175 0.0
H3002 H 0.96662 0.01071 0.15577 0.0
H3003 H 0.9744 0.05706 0.13567 0.0
H3004 H 0.01467 0.05575 0.06858 0.0
H3005 H 0.00734 0.05789 0.09545 0.0
H3006 H 0.9968 0.01318 0.11559 0.0
C3007 C 0.96862 0.02208 0.16296 0.0
C3008 C 0.97952 0.04756 0.13157 0.0
C3009 C 0.96332 0.02237 0.17786 0.0
C3010 C 0.00751 0.04531 0.07266 0.0
C3011 C 0.00327 0.04657 0.08801 0.0
C3012 C 0.99191 0.0228 0.11987 0.0
C3013 C 0.97593 0.03626 0.15727 0.0
C3014 C 0.98121 0.03588 0.1412 0.0
C3015 C 0.99421 0.03323 0.09383 0.0
C3016 C 0.99004 0.03437 0.11023 0.0
H3017 H 0.97401 0.06238 0.18895 0.0
H3018 H 0.98367 0.06189 0.16307 0.0
H3019 H 0.98944 0.01458 0.14236 0.0
H3020 H 0.9893 0.00609 0.0612 0.0
H3021 H 0.98206 0.00828 0.08801 0.0
C3022 C 0.26883 0.72108 0.47468 0.0
C3023 C 0.28015 0.71253 0.47193 0.0
C3024 C 0.26578 0.73151 0.46433 0.0
C3025 C 0.28086 0.75288 0.43155 0.0
H3026 H 0.23615 0.7456 0.41671 0.0
C3027 C 0.24192 0.75647 0.37131 0.0
C3028 C 0.24959 0.77161 0.36794 0.0
C3029 C 0.24487 0.75205 0.3862 0.0
C3030 C 0.24866 0.74784 0.42083 0.0
H3031 H 0.29765 0.70867 0.45663 0.0
H3032 H 0.29228 0.72685 0.43847 0.0
H3033 H 0.24401 0.73305 0.43906 0.0
H3034 H 0.26595 0.7942 0.37757 0.0
H3035 H 0.2711 0.78646 0.40371 0.0
H3036 H 0.2855 0.76706 0.4128 0.0
C3037 C 0.28587 0.72561 0.44872 0.0
C3038 C 0.25317 0.74078 0.4337 0.0
C3039 C 0.28893 0.71518 0.45908 0.0
C3040 C 0.2598 0.78248 0.37991 0.0
C3041 C 0.26284 0.77803 0.3948 0.0
C3042 C 0.27634 0.76 0.41871 0.0
C3043 C 0.27402 0.7336 0.45105 0.0
C3044 C 0.26932 0.7429 0.43892 0.0
C3045 C 0.25562 0.76267 0.39798 0.0
C3046 C 0.26022 0.75718 0.41298 0.0
H3047 H 0.26213 0.71951 0.4847 0.0
H3048 H 0.25675 0.7377 0.46653 0.0
H3049 H 0.29338 0.75483 0.43545 0.0
H3050 H 0.23392 0.74792 0.3623 0.0
H3051 H 0.23926 0.74008 0.38828 0.0
C3052 C 0.5951 0.02787 0.67867 0.0
C3053 C 0.6116 0.03078 0.67818 0.0
C3054 C 0.58503 0.02809 0.66517 0.0
C3055 C 0.58464 0.04392 0.62742 0.0
H3056 H 0.54903 0.00747 0.6127 0.0
C3057 C 0.55662 0.03171 0.56339 0.0
C3058 C 0.54005 0.026 0.56005 0.0
C3059 C 0.56399 0.03286 0.57868 0.0
C3060 C 0.55874 0.01786 0.61679 0.0
H3061 H 0.63038 0.03601 0.66305 0.0
H3062 H 0.61283 0.03679 0.63968 0.0
H3063 H 0.56441 0.00886 0.63827 0.0
H3064 H 0.51821 0.01684 0.57008 0.0
H3065 H 0.53116 0.01904 0.59698 0.0
H3066 H 0.57915 0.05293 0.60602 0.0
C3067 C 0.60775 0.03444 0.65055 0.0
C3068 C 0.56754 0.01863 0.6314 0.0
C3069 C 0.61779 0.03403 0.66395 0.0
C3070 C 0.53101 0.02124 0.5723 0.0
C3071 C 0.53841 0.02248 0.58768 0.0
C3072 C 0.5758 0.04322 0.61293 0.0
C3073 C 0.5913 0.03143 0.65103 0.0
C3074 C 0.58081 0.03147 0.63661 0.0
C3075 C 0.55497 0.02845 0.59103 0.0
C3076 C 0.56304 0.02998 0.60725 0.0
H3077 H 0.58997 0.02558 0.68951 0.0
H3078 H 0.57237 0.02583 0.66582 0.0
H3079 H 0.59466 0.05407 0.63135 0.0
H3080 H 0.56396 0.03529 0.55419 0.0
H3081 H 0.57681 0.03712 0.58079 0.0
C3082 C 0.28087 0.33468 0.93757 0.0
C3083 C 0.26857 0.32769 0.94619 0.0
C3084 C 0.28154 0.32823 0.92212 0.0
C3085 C 0.25628 0.30542 0.88728 0.0
H3086 H 0.2955 0.29959 0.87296 0.0
C3087 C 0.25808 0.27967 0.82303 0.0
C3088 C 0.27159 0.28602 0.81573 0.0
C3089 C 0.25796 0.28338 0.83926 0.0
C3090 C 0.28448 0.30133 0.87668 0.0
H3091 H 0.24758 0.30807 0.94524 0.0
H3092 H 0.24853 0.29717 0.91806 0.0
H3093 H 0.29491 0.30869 0.90073 0.0
H3094 H 0.29562 0.30117 0.81976 0.0
H3095 H 0.29526 0.30812 0.84795 0.0
H3096 H 0.24593 0.29875 0.86327 0.0
C3097 C 0.25763 0.30766 0.92338 0.0
C3098 C 0.28415 0.30646 0.89262 0.0
C3099 C 0.25706 0.31397 0.93893 0.0
C3100 C 0.28506 0.296 0.82505 0.0
C3101 C 0.28486 0.29991 0.84127 0.0
C3102 C 0.25666 0.30051 0.87131 0.0
C3103 C 0.26983 0.31478 0.9148 0.0
C3104 C 0.27006 0.30861 0.89806 0.0
C3105 C 0.27127 0.29374 0.84859 0.0
C3106 C 0.27078 0.29846 0.86575 0.0
H3107 H 0.28976 0.34543 0.94255 0.0
H3108 H 0.29096 0.33409 0.91571 0.0
H3109 H 0.2453 0.30719 0.89111 0.0
H3110 H 0.24756 0.2718 0.81619 0.0
H3111 H 0.2474 0.27809 0.84448 0.0
C3112 C 0.97649 0.01858 0.34375 0.0
C3113 C 0.9732 0.0327 0.33988 0.0
C3114 C 0.98356 0.01785 0.35882 0.0
C3115 C 0.00444 0.04306 0.3962 0.0
H3116 H 0.98804 0.0047 0.41482 0.0
C3117 C 0.00881 0.04045 0.46328 0.0
C3118 C 0.01332 0.02753 0.46893 0.0
C3119 C 0.00593 0.04091 0.44708 0.0
C3120 C 0.99289 0.0154 0.40971 0.0
H3121 H 0.97495 0.0572 0.34863 0.0
H3122 H 0.98687 0.05588 0.37507 0.0
H3123 H 0.97936 0.00594 0.38731 0.0
H3124 H 0.01847 0.00502 0.46201 0.0
H3125 H 0.01305 0.00569 0.43357 0.0
H3126 H 0.01741 0.0527 0.41893 0.0
C3127 C 0.9844 0.04543 0.3664 0.0
C3128 C 0.98797 0.01612 0.3939 0.0
C3129 C 0.97751 0.0462 0.35125 0.0
C3130 C 0.015 0.01512 0.45801 0.0
C3131 C 0.01186 0.01548 0.44176 0.0
C3132 C 0.00919 0.04239 0.41206 0.0
C3133 C 0.98733 0.03118 0.37047 0.0
C3134 C 0.99352 0.03004 0.38697 0.0
C3135 C 0.00728 0.02838 0.43616 0.0
C3136 C 0.00332 0.02863 0.41902 0.0
H3137 H 0.97346 0.00804 0.33512 0.0
H3138 H 0.98595 0.00678 0.36137 0.0
H3139 H 0.00924 0.05385 0.39122 0.0
H3140 H 0.00754 0.05027 0.47137 0.0
H3141 H 0.00228 0.05094 0.44311 0.0
C3142 C 0.31546 0.70785 0.62035 0.0
C3143 C 0.30484 0.70903 0.60755 0.0
C3144 C 0.31663 0.71725 0.63478 0.0
C3145 C 0.30588 0.75203 0.65465 0.0
H3146 H 0.30071 0.72691 0.68939 0.0
C3147 C 0.28126 0.77065 0.71194 0.0
C3148 C 0.28678 0.76586 0.72601 0.0
C3149 C 0.28648 0.76603 0.69768 0.0
C3150 C 0.30251 0.73424 0.67995 0.0
H3151 H 0.288 0.72175 0.59941 0.0
H3152 H 0.28982 0.73798 0.62471 0.0
H3153 H 0.30513 0.71499 0.66396 0.0
H3154 H 0.30291 0.75351 0.73648 0.0
H3155 H 0.31231 0.74586 0.71177 0.0
H3156 H 0.30289 0.77122 0.67067 0.0
C3157 C 0.29728 0.72985 0.62359 0.0
C3158 C 0.30504 0.72738 0.66535 0.0
C3159 C 0.29609 0.72041 0.60918 0.0
C3160 C 0.29821 0.75712 0.72575 0.0
C3161 C 0.30357 0.7527 0.71158 0.0
C3162 C 0.30343 0.75896 0.66934 0.0
C3163 C 0.30724 0.72804 0.63665 0.0
C3164 C 0.3065 0.73611 0.65249 0.0
C3165 C 0.29744 0.7567 0.69732 0.0
C3166 C 0.30147 0.75004 0.68208 0.0
H3167 H 0.32234 0.69916 0.61943 0.0
H3168 H 0.32452 0.71575 0.64463 0.0
H3169 H 0.30708 0.75905 0.64493 0.0
H3170 H 0.27246 0.77742 0.71184 0.0
H3171 H 0.28141 0.76919 0.68688 0.0
C3172 C 0.60984 0.05198 0.82121 0.0
C3173 C 0.62528 0.04998 0.82348 0.0
C3174 C 0.60149 0.05387 0.8341 0.0
C3175 C 0.5996 0.04431 0.8745 0.0
H3176 H 0.57323 0.07383 0.87781 0.0
C3177 C 0.56835 0.05298 0.92934 0.0
C3178 C 0.55237 0.05326 0.92676 0.0
C3179 C 0.57768 0.05398 0.91695 0.0
C3180 C 0.58045 0.06545 0.87696 0.0
H3181 H 0.64435 0.04905 0.841 0.0
H3182 H 0.62974 0.05232 0.86353 0.0
H3183 H 0.58906 0.07326 0.85573 0.0
H3184 H 0.53367 0.05519 0.90935 0.0
H3185 H 0.55001 0.05681 0.88754 0.0
H3186 H 0.59091 0.03633 0.89554 0.0
C3187 C 0.62402 0.05218 0.85177 0.0
C3188 C 0.58951 0.06514 0.86436 0.0
C3189 C 0.63236 0.0503 0.83889 0.0
C3190 C 0.54599 0.05502 0.91165 0.0
C3191 C 0.55534 0.05598 0.8992 0.0
C3192 C 0.59056 0.04461 0.88705 0.0
C3193 C 0.60842 0.05377 0.84948 0.0
C3194 C 0.59916 0.05455 0.86302 0.0
C3195 C 0.57122 0.05524 0.90171 0.0
C3196 C 0.5809 0.05517 0.88842 0.0
H3197 H 0.60401 0.05159 0.80944 0.0
H3198 H 0.58942 0.05487 0.83197 0.0
H3199 H 0.60668 0.0358 0.8736 0.0
H3200 H 0.57366 0.05199 0.94097 0.0
H3201 H 0.58997 0.05372 0.91931 0.0
C3202 C 0.25265 0.34296 0.11327 0.0
C3203 C 0.26332 0.33945 0.10294 0.0
C3204 C 0.25237 0.33766 0.12811 0.0
C3205 C 0.26509 0.30824 0.15097 0.0
H3206 H 0.25759 0.33495 0.18691 0.0
C3207 C 0.25697 0.28493 0.21073 0.0
C3208 C 0.26399 0.2953 0.22452 0.0
C3209 C 0.25609 0.29058 0.19612 0.0
C3210 C 0.25984 0.32739 0.17704 0.0
H3211 H 0.28196 0.32739 0.10023 0.0
H3212 H 0.28191 0.31871 0.12624 0.0
H3213 H 0.25824 0.34435 0.16115 0.0
H3214 H 0.27527 0.31986 0.23382 0.0
H3215 H 0.27409 0.3297 0.20824 0.0
H3216 H 0.26732 0.29155 0.16691 0.0
C3217 C 0.27352 0.32531 0.12277 0.0
C3218 C 0.25999 0.3327 0.16219 0.0
C3219 C 0.2737 0.3305 0.10789 0.0
C3220 C 0.26974 0.31156 0.22342 0.0
C3221 C 0.26901 0.31721 0.20874 0.0
C3222 C 0.26505 0.303 0.16582 0.0
C3223 C 0.26284 0.3288 0.13309 0.0
C3224 C 0.26261 0.32318 0.14894 0.0
C3225 C 0.26237 0.30674 0.19486 0.0
C3226 C 0.26238 0.31246 0.17906 0.0
H3227 H 0.24462 0.35001 0.11001 0.0
H3228 H 0.24384 0.34041 0.13562 0.0
H3229 H 0.26693 0.30047 0.14105 0.0
H3230 H 0.25224 0.27236 0.21116 0.0
H3231 H 0.25052 0.28221 0.18579 0.0
C3232 C 0.207 0.97071 0.98644 0.0
C3233 C 0.2024 0.95455 0.98825 0.0
C3234 C 0.19657 0.98023 0.98881 0.0
C3235 C 0.15464 0.97872 0.99521 0.0
H3236 H 0.17378 0.01914 0.02109 0.0
C3237 C 0.11946 0.00982 0.0346 0.0
C3238 C 0.11896 0.02502 0.03115 0.0
C3239 C 0.13054 0.00258 0.02856 0.0
C3240 C 0.16835 0.00795 0.01374 0.0
H3241 H 0.18322 0.93546 0.99331 0.0
H3242 H 0.16516 0.95202 0.99781 0.0
H3243 H 0.19077 0.00351 0.01011 0.0
H3244 H 0.13045 0.045 0.01962 0.0
H3245 H 0.15029 0.03243 0.00956 0.0
H3246 H 0.13223 0.98285 -0.00035 0.0
C3247 C 0.17661 0.95738 0.99419 0.0
C3248 C 0.17802 0.99904 0.00734 0.0
C3249 C 0.18696 0.94786 0.99163 0.0
C3250 C 0.13059 0.03332 0.02258 0.0
C3251 C 0.14186 0.02613 0.01673 0.0
C3252 C 0.14501 0.98749 0.00183 0.0
C3253 C 0.18144 0.97377 0.99324 0.0
C3254 C 0.17126 0.98417 0.99825 0.0
C3255 C 0.1415 0.01051 0.01923 0.0
C3256 C 0.15181 0.002 0.01137 0.0
H3257 H 0.21884 0.97608 0.9837 0.0
H3258 H 0.20053 0.99273 0.98765 0.0
H3259 H 0.14904 0.9675 0.98799 0.0
H3260 H 0.11089 0.00327 0.04147 0.0
H3261 H 0.13029 0.9906 0.03085 0.0
C3262 C 0.68594 0.62988 0.01643 0.0
C3263 C 0.69599 0.6252 0.00604 0.0
C3264 C 0.67073 0.62026 0.01695 0.0
C3265 C 0.64581 0.57931 0.00778 0.0
H3266 H 0.61126 0.59964 0.00904 0.0
C3267 C 0.57968 0.5441 0.0046 0.0
C3268 C 0.57027 0.55069 0.0144 0.0
C3269 C 0.59516 0.55266 0.00309 0.0
C3270 C 0.62079 0.59379 0.00887 0.0
H3271 H 0.69794 0.60659 0.98816 0.0
H3272 H 0.67133 0.58969 0.98921 0.0
H3273 H 0.63803 0.61549 0.0074 0.0
H3274 H 0.56991 0.57128 0.03063 0.0
H3275 H 0.59683 0.58598 0.02823 0.0
H3276 H 0.62855 0.55761 0.00947 0.0
C3277 C 0.67532 0.60081 0.99698 0.0
C3278 C 0.63613 0.60287 0.0079 0.0
C3279 C 0.69055 0.61049 0.9964 0.0
C3280 C 0.57676 0.56587 0.02286 0.0
C3281 C 0.59219 0.57437 0.02141 0.0
C3282 C 0.63044 0.5702 0.00883 0.0
C3283 C 0.6652 0.60569 0.00716 0.0
C3284 C 0.64884 0.59578 0.00751 0.0
C3285 C 0.60153 0.56796 0.01138 0.0
C3286 C 0.61778 0.57738 0.00956 0.0
H3287 H 0.68987 0.64094 0.02429 0.0
H3288 H 0.66332 0.6242 0.02514 0.0
H3289 H 0.6554 0.57354 0.00761 0.0
H3290 H 0.57503 0.53244 0.99789 0.0
H3291 H 0.602 0.54743 0.99518 0.0
C3292 C 0.67701 0.45892 0.25907 0.0
C3293 C 0.66289 0.45624 0.2662 0.0
C3294 C 0.68599 0.44779 0.25875 0.0
C3295 C 0.69225 0.41357 0.27821 0.0
H3296 H 0.71398 0.40623 0.24174 0.0
C3297 C 0.72393 0.36319 0.27001 0.0
C3298 C 0.73921 0.36736 0.26515 0.0
C3299 C 0.71437 0.3738 0.27005 0.0
C3300 C 0.70806 0.40824 0.25205 0.0
H3301 H 0.64693 0.43967 0.27828 0.0
H3302 H 0.66241 0.42005 0.27744 0.0
H3303 H 0.69749 0.4249 0.24174 0.0
H3304 H 0.75642 0.38617 0.25672 0.0
H3305 H 0.73958 0.4045 0.25648 0.0
H3306 H 0.7027 0.39669 0.28838 0.0
C3307 C 0.66678 0.43092 0.27243 0.0
C3308 C 0.69864 0.41898 0.25208 0.0
C3309 C 0.65787 0.44213 0.27287 0.0
C3310 C 0.74463 0.38241 0.26027 0.0
C3311 C 0.73501 0.39295 0.26017 0.0
C3312 C 0.70156 0.40272 0.2781 0.0
C3313 C 0.681 0.43364 0.26542 0.0
C3314 C 0.69069 0.42187 0.26521 0.0
C3315 C 0.71979 0.38877 0.26508 0.0
C3316 C 0.70964 0.40003 0.26506 0.0
H3317 H 0.6813 0.46979 0.25403 0.0
H3318 H 0.69702 0.45044 0.25352 0.0
H3319 H 0.68654 0.41567 0.28863 0.0
H3320 H 0.71923 0.35161 0.27357 0.0
H3321 H 0.70262 0.37018 0.27372 0.0
C3322 C 0.85415 0.43954 0.52545 0.0
C3323 C 0.84219 0.44732 0.52235 0.0
C3324 C 0.87014 0.44784 0.52697 0.0
C3325 C 0.8966 0.48219 0.51437 0.0
H3326 H 0.92705 0.47658 0.54753 0.0
C3327 C 0.9627 0.51615 0.52039 0.0
C3328 C 0.97379 0.50752 0.52405 0.0
C3329 C 0.94658 0.50976 0.52134 0.0
C3330 C 0.91872 0.47815 0.53811 0.0
H3331 H 0.83768 0.47006 0.51894 0.0
H3332 H 0.86565 0.48445 0.52125 0.0
H3333 H 0.89891 0.46354 0.54715 0.0
H3334 H 0.97666 0.48545 0.53165 0.0
H3335 H 0.94854 0.47416 0.53291 0.0
H3336 H 0.91637 0.49638 0.50501 0.0
C3337 C 0.86258 0.47191 0.5224 0.0
C3338 C 0.90262 0.47073 0.53793 0.0
C3339 C 0.84659 0.46364 0.52103 0.0
C3340 C 0.96843 0.49243 0.5288 0.0
C3341 C 0.95231 0.486 0.52963 0.0
C3342 C 0.91271 0.4895 0.51446 0.0
C3343 C 0.8745 0.46406 0.52529 0.0
C3344 C 0.89144 0.47258 0.526 0.0
C3345 C 0.94118 0.49457 0.52587 0.0
C3346 C 0.92398 0.48746 0.52625 0.0
H3347 H 0.8512 0.42694 0.52629 0.0
H3348 H 0.87911 0.44147 0.529 0.0
H3349 H 0.88824 0.48365 0.50492 0.0
H3350 H 0.96646 0.52787 0.51682 0.0
H3351 H 0.93835 0.51678 0.5186 0.0
C3352 C 0.34256 0.10516 0.28528 0.0
C3353 C 0.34121 0.09228 0.27363 0.0
C3354 C 0.33139 0.11409 0.28475 0.0
C3355 C 0.301 0.12314 0.25717 0.0
H3356 H 0.28684 0.13942 0.29559 0.0
C3357 C 0.25417 0.15832 0.25483 0.0
C3358 C 0.25916 0.17328 0.26403 0.0
C3359 C 0.26206 0.14663 0.25734 0.0
C3360 C 0.29068 0.13489 0.28479 0.0
H3361 H 0.32692 0.07822 0.25264 0.0
H3362 H 0.30736 0.09361 0.2518 0.0
H3363 H 0.30548 0.12283 0.29708 0.0
H3364 H 0.27582 0.18737 0.28363 0.0
H3365 H 0.28934 0.1669 0.28812 0.0
H3366 H 0.28633 0.13526 0.2449 0.0
C3367 C 0.31724 0.09715 0.26109 0.0
C3368 C 0.30142 0.12551 0.28564 0.0
C3369 C 0.32845 0.08836 0.26155 0.0
C3370 C 0.2715 0.17592 0.27646 0.0
C3371 C 0.2793 0.1642 0.27904 0.0
C3372 C 0.29021 0.13239 0.25633 0.0
C3373 C 0.3186 0.11015 0.27264 0.0
C3374 C 0.30682 0.11967 0.27184 0.0
C3375 C 0.27499 0.14965 0.26917 0.0
C3376 C 0.28507 0.13848 0.27013 0.0
H3377 H 0.35231 0.10838 0.29472 0.0
H3378 H 0.33289 0.12417 0.29369 0.0
H3379 H 0.30513 0.11908 0.24635 0.0
H3380 H 0.24452 0.15584 0.24535 0.0
H3381 H 0.25839 0.1354 0.24971 0.0
C3382 C 0.35234 0.13743 0.53002 0.0
C3383 C 0.34145 0.13532 0.51639 0.0
C3384 C 0.36319 0.12816 0.53111 0.0
C3385 C 0.38332 0.1037 0.50715 0.0
H3386 H 0.3887 0.08461 0.5454 0.0
C3387 C 0.41884 0.05664 0.51096 0.0
C3388 C 0.42822 0.057 0.52522 0.0
C3389 C 0.40837 0.0663 0.50996 0.0
C3390 C 0.38754 0.09002 0.53471 0.0
H3391 H 0.33349 0.12167 0.49322 0.0
H3392 H 0.35262 0.10576 0.49504 0.0
H3393 H 0.37056 0.10158 0.5435 0.0
H3394 H 0.43414 0.06792 0.54957 0.0
H3395 H 0.41608 0.085 0.5478 0.0
H3396 H 0.40042 0.09236 0.4984 0.0
C3397 C 0.35279 0.11467 0.50484 0.0
C3398 C 0.3771 0.09973 0.53363 0.0
C3399 C 0.34186 0.12384 0.50379 0.0
C3400 C 0.4269 0.06723 0.53848 0.0
C3401 C 0.41652 0.07699 0.53745 0.0
C3402 C 0.39386 0.09411 0.50828 0.0
C3403 C 0.36351 0.11666 0.51855 0.0
C3404 C 0.37483 0.10661 0.51981 0.0
C3405 C 0.40711 0.07666 0.52317 0.0
C3406 C 0.39605 0.08707 0.52205 0.0
H3407 H 0.35259 0.14634 0.53984 0.0
H3408 H 0.37145 0.13012 0.54174 0.0
H3409 H 0.38198 0.10902 0.49643 0.0
H3410 H 0.41946 0.04872 0.50059 0.0
H3411 H 0.40111 0.06548 0.49885 0.0
C3412 C 0.66776 0.61522 0.27288 0.0
C3413 C 0.67445 0.60283 0.27652 0.0
C3414 C 0.6774 0.63041 0.27247 0.0
C3415 C 0.71655 0.65722 0.28682 0.0
H3416 H 0.70743 0.67918 0.25155 0.0
C3417 C 0.75576 0.71874 0.27721 0.0
C3418 C 0.74767 0.72954 0.27183 0.0
C3419 C 0.74752 0.70301 0.27797 0.0
C3420 C 0.71004 0.6733 0.26158 0.0
H3421 H 0.6966 0.59681 0.28277 0.0
H3422 H 0.71345 0.62351 0.28227 0.0
H3423 H 0.69177 0.65227 0.25265 0.0
H3424 H 0.72451 0.73239 0.26353 0.0
H3425 H 0.71022 0.70521 0.26512 0.0
H3426 H 0.73468 0.6784 0.29588 0.0
C3427 C 0.7007 0.62138 0.27977 0.0
C3428 C 0.70108 0.65787 0.26218 0.0
C3429 C 0.69104 0.60611 0.28008 0.0
C3430 C 0.73116 0.72436 0.26754 0.0
C3431 C 0.72296 0.70872 0.26837 0.0
C3432 C 0.72549 0.67274 0.28627 0.0
C3433 C 0.69397 0.63363 0.27579 0.0
C3434 C 0.7041 0.64973 0.27489 0.0
C3435 C 0.73104 0.69779 0.27341 0.0
C3436 C 0.72219 0.68103 0.27373 0.0
H3437 H 0.65502 0.61322 0.27043 0.0
H3438 H 0.67186 0.63969 0.26966 0.0
H3439 H 0.71908 0.65125 0.29681 0.0
H3440 H 0.76848 0.72235 0.28058 0.0
H3441 H 0.75412 0.69486 0.2818 0.0
C3442 C 0.82044 0.44296 0.74443 0.0
C3443 C 0.81399 0.45511 0.75069 0.0
C3444 C 0.81172 0.42719 0.7426 0.0
C3445 C 0.78296 0.40151 0.76195 0.0
H3446 H 0.78729 0.36995 0.72862 0.0
C3447 C 0.76714 0.33402 0.76654 0.0
C3448 C 0.77894 0.32656 0.76232 0.0
C3449 C 0.76794 0.34948 0.7634 0.0
C3450 C 0.78594 0.37863 0.73798 0.0
H3451 H 0.79281 0.46015 0.75903 0.0
H3452 H 0.77771 0.43231 0.75633 0.0
H3453 H 0.79364 0.39789 0.72468 0.0
H3454 H 0.80096 0.32954 0.75175 0.0
H3455 H 0.80243 0.35656 0.74643 0.0
H3456 H 0.77599 0.38232 0.77553 0.0
C3457 C 0.78956 0.43519 0.75279 0.0
C3458 C 0.78947 0.39457 0.7357 0.0
C3459 C 0.79826 0.45109 0.75443 0.0
C3460 C 0.7917 0.33495 0.75516 0.0
C3461 C 0.79243 0.35035 0.75194 0.0
C3462 C 0.77939 0.38553 0.76422 0.0
C3463 C 0.79638 0.4231 0.74718 0.0
C3464 C 0.78869 0.40621 0.74792 0.0
C3465 C 0.78048 0.35769 0.75588 0.0
C3466 C 0.78151 0.37407 0.7525 0.0
H3467 H 0.83261 0.44544 0.74176 0.0
H3468 H 0.81742 0.41812 0.73855 0.0
H3469 H 0.78238 0.41025 0.77162 0.0
H3470 H 0.75714 0.32785 0.77206 0.0
H3471 H 0.7586 0.35489 0.76657 0.0
C3472 C 0.02646 0.86469 0.06156 0.0
C3473 C 0.03997 0.86384 0.07127 0.0
C3474 C 0.02542 0.879 0.05618 0.0
C3475 C 0.04145 0.92261 0.06527 0.0
H3476 H 0.02383 0.92285 0.02224 0.0
C3477 C 0.04005 0.98149 0.0404 0.0
C3478 C 0.02671 0.98155 0.02999 0.0
C3479 C 0.0423 0.96723 0.04503 0.0
C3480 C 0.02859 0.92303 0.03436 0.0
H3481 H 0.06298 0.87758 0.08296 0.0
H3482 H 0.06118 0.90251 0.07353 0.0
H3483 H 0.0264 0.89798 0.03106 0.0
H3484 H 0.00528 0.96647 0.0163 0.0
H3485 H 0.00898 0.9418 0.02456 0.0
H3486 H 0.04338 0.94757 0.06871 0.0
C3487 C 0.05135 0.89208 0.07011 0.0
C3488 C 0.0301 0.90871 0.03942 0.0
C3489 C 0.05245 0.87772 0.07539 0.0
C3490 C 0.01576 0.96693 0.02424 0.0
C3491 C 0.01794 0.95271 0.02894 0.0
C3492 C 0.03983 0.93691 0.06025 0.0
C3493 C 0.03781 0.89293 0.06044 0.0
C3494 C 0.0365 0.90828 0.05496 0.0
C3495 C 0.03122 0.9526 0.03946 0.0
C3496 C 0.03333 0.93736 0.04473 0.0
H3497 H 0.01667 0.85423 0.05803 0.0
H3498 H 0.01475 0.8792 0.04887 0.0
H3499 H 0.04623 0.92272 0.07738 0.0
H3500 H 0.0488 0.99248 0.04502 0.0
H3501 H 0.05281 0.9677 0.05291 0.0
C3502 C 0.9096 0.25084 0.86086 0.0
C3503 C 0.91743 0.26232 0.87369 0.0
C3504 C 0.89604 0.25252 0.85192 0.0
C3505 C 0.87752 0.28255 0.8391 0.0
H3506 H 0.83825 0.24916 0.83022 0.0
C3507 C 0.82661 0.2811 0.79028 0.0
C3508 C 0.81128 0.2786 0.79499 0.0
C3509 C 0.83933 0.27957 0.80054 0.0
C3510 C 0.84914 0.25859 0.83266 0.0
H3511 H 0.91632 0.28419 0.88748 0.0
H3512 H 0.89326 0.28738 0.87144 0.0
H3513 H 0.86086 0.24506 0.84681 0.0
H3514 H 0.79731 0.27248 0.81419 0.0
H3515 H 0.81953 0.26935 0.83197 0.0
H3516 H 0.866 0.29591 0.8246 0.0
C3517 C 0.89771 0.27713 0.86834 0.0
C3518 C 0.86208 0.2562 0.84204 0.0
C3519 C 0.91104 0.27532 0.87745 0.0
C3520 C 0.80899 0.2746 0.81024 0.0
C3521 C 0.82166 0.2727 0.82038 0.0
C3522 C 0.86473 0.28479 0.82944 0.0
C3523 C 0.89013 0.26582 0.85542 0.0
C3524 C 0.87638 0.26819 0.8454 0.0
C3525 C 0.83695 0.27514 0.8156 0.0
C3526 C 0.85039 0.27286 0.82615 0.0
H3527 H 0.91417 0.24076 0.8574 0.0
H3528 H 0.89045 0.24365 0.84196 0.0
H3529 H 0.88843 0.29196 0.84144 0.0
H3530 H 0.82877 0.28421 0.77861 0.0
H3531 H 0.85098 0.28146 0.79654 0.0
C3532 C 0.51877 0.19694 0.55742 0.0
C3533 C 0.53365 0.20811 0.55967 0.0
C3534 C 0.51742 0.181 0.55195 0.0
C3535 C 0.53688 0.15386 0.53063 0.0
H3536 H 0.51391 0.12266 0.55485 0.0
C3537 C 0.53707 0.08729 0.51995 0.0
C3538 C 0.52347 0.07585 0.52259 0.0
C3539 C 0.53831 0.10354 0.52377 0.0
C3540 C 0.52013 0.1311 0.54771 0.0
H3541 H 0.55868 0.21142 0.55735 0.0
H3542 H 0.55626 0.18359 0.54753 0.0
H3543 H 0.51565 0.15061 0.56213 0.0
H3544 H 0.5002 0.07256 0.53064 0.0
H3545 H 0.50203 0.10065 0.53662 0.0
H3546 H 0.5411 0.13438 0.51598 0.0
C3547 C 0.54567 0.18717 0.5501 0.0
C3548 C 0.52117 0.14719 0.55197 0.0
C3549 C 0.54706 0.20307 0.55581 0.0
C3550 C 0.51096 0.08104 0.52868 0.0
C3551 C 0.51208 0.09722 0.53223 0.0
C3552 C 0.53564 0.13771 0.5262 0.0
C3553 C 0.53087 0.17589 0.54838 0.0
C3554 C 0.52957 0.15877 0.54351 0.0
C3555 C 0.52586 0.10876 0.53008 0.0
C3556 C 0.52724 0.12606 0.53468 0.0
H3557 H 0.50824 0.20043 0.56041 0.0
H3558 H 0.50583 0.17262 0.55062 0.0
H3559 H 0.54336 0.16251 0.52382 0.0
H3560 H 0.54694 0.08368 0.51534 0.0
H3561 H 0.5492 0.11196 0.52209 0.0
C3562 C 0.57787 0.78359 0.37105 0.0
C3563 C 0.56896 0.76876 0.37422 0.0
C3564 C 0.59065 0.78465 0.36212 0.0
C3565 C 0.6191 0.76267 0.34837 0.0
H3566 H 0.62475 0.79229 0.31747 0.0
C3567 C 0.66565 0.76451 0.30383 0.0
C3568 C 0.67381 0.7795 0.30036 0.0
C3569 C 0.6529 0.76295 0.31288 0.0
C3570 C 0.62348 0.78409 0.32617 0.0
H3571 H 0.56654 0.7434 0.37032 0.0
H3572 H 0.58885 0.74528 0.35478 0.0
H3573 H 0.60258 0.79007 0.33314 0.0
H3574 H 0.67521 0.80466 0.30416 0.0
H3575 H 0.65312 0.80198 0.31996 0.0
H3576 H 0.64005 0.75674 0.34143 0.0
C3577 C 0.58606 0.75611 0.35938 0.0
C3578 C 0.61074 0.78281 0.33517 0.0
C3579 C 0.57326 0.75504 0.36831 0.0
C3580 C 0.66901 0.7929 0.30633 0.0
C3581 C 0.65631 0.79135 0.3154 0.0
C3582 C 0.63188 0.76397 0.33938 0.0
C3583 C 0.59489 0.77093 0.35612 0.0
C3584 C 0.6084 0.77212 0.34642 0.0
C3585 C 0.64801 0.77635 0.31873 0.0
C3586 C 0.63428 0.77475 0.3282 0.0
H3587 H 0.57512 0.79444 0.37566 0.0
H3588 H 0.59735 0.79629 0.36009 0.0
H3589 H 0.61778 0.75445 0.35706 0.0
H3590 H 0.66892 0.75393 0.29928 0.0
H3591 H 0.64668 0.75119 0.31502 0.0
C3592 C 0.02921 0.23108 0.42865 0.0
C3593 C 0.02844 0.22854 0.4121 0.0
C3594 C 0.02804 0.21841 0.43754 0.0
C3595 C 0.03182 0.17703 0.43565 0.0
H3596 H 0.00783 0.17575 0.47165 0.0
C3597 C 0.01672 0.12211 0.46927 0.0
C3598 C 0.01792 0.12493 0.48585 0.0
C3599 C 0.0181 0.13466 0.46018 0.0
C3600 C 0.01472 0.176 0.46173 0.0
H3601 H 0.02565 0.21057 0.39193 0.0
H3602 H 0.02353 0.18848 0.40742 0.0
H3603 H 0.01003 0.1977 0.45601 0.0
H3604 H 0.02189 0.14335 0.50583 0.0
H3605 H 0.02418 0.16516 0.49001 0.0
H3606 H 0.03643 0.15526 0.44136 0.0
C3607 C 0.02532 0.20032 0.41357 0.0
C3608 C 0.01599 0.18862 0.45276 0.0
C3609 C 0.02653 0.213 0.40467 0.0
C3610 C 0.02061 0.14066 0.49309 0.0
C3611 C 0.02194 0.1532 0.48401 0.0
C3612 C 0.03051 0.16439 0.44461 0.0
C3613 C 0.02602 0.20285 0.43012 0.0
C3614 C 0.0246 0.18933 0.43962 0.0
C3615 C 0.02067 0.15036 0.46744 0.0
C3616 C 0.02197 0.16373 0.45779 0.0
H3617 H 0.03093 0.24292 0.43478 0.0
H3618 H 0.02892 0.22087 0.45028 0.0
H3619 H 0.03874 0.17729 0.42576 0.0
H3620 H 0.01442 0.11014 0.46326 0.0
H3621 H 0.01686 0.13202 0.44744 0.0
C3622 C 0.60388 0.27252 0.208 0.0
C3623 C 0.59123 0.26567 0.2162 0.0
C3624 C 0.61954 0.27325 0.21365 0.0
C3625 C 0.64552 0.26933 0.24915 0.0
H3626 H 0.6736 0.26304 0.2179 0.0
C3627 C 0.70879 0.26106 0.26508 0.0
C3628 C 0.72096 0.26984 0.2574 0.0
C3629 C 0.69284 0.26038 0.26048 0.0
C3630 C 0.66595 0.26493 0.22678 0.0
H3631 H 0.58513 0.25445 0.23695 0.0
H3632 H 0.61251 0.25536 0.24673 0.0
H3633 H 0.64613 0.26224 0.20937 0.0
H3634 H 0.7258 0.28472 0.23878 0.0
H3635 H 0.69805 0.28335 0.23066 0.0
H3636 H 0.66545 0.27171 0.26655 0.0
C3637 C 0.61036 0.26045 0.23603 0.0
C3638 C 0.65017 0.26455 0.22189 0.0
C3639 C 0.59465 0.2599 0.23044 0.0
C3640 C 0.71677 0.27782 0.24495 0.0
C3641 C 0.70084 0.27698 0.24024 0.0
C3642 C 0.66131 0.26956 0.25404 0.0
C3643 C 0.62302 0.26695 0.22759 0.0
C3644 C 0.63975 0.26692 0.23298 0.0
C3645 C 0.68868 0.2683 0.24797 0.0
C3646 C 0.67174 0.26751 0.2429 0.0
H3647 H 0.60164 0.27731 0.19712 0.0
H3648 H 0.62893 0.27875 0.20703 0.0
H3649 H 0.63796 0.27138 0.25805 0.0
H3650 H 0.71158 0.25483 0.27477 0.0
H3651 H 0.68375 0.25349 0.26659 0.0
C3652 C 0.53469 0.88826 0.90524 0.0
C3653 C 0.5383 0.87548 0.91213 0.0
C3654 C 0.53408 0.90207 0.91465 0.0
C3655 C 0.54808 0.92524 0.95387 0.0
H3656 H 0.51244 0.94321 0.94542 0.0
C3657 C 0.53685 0.97532 0.99706 0.0
C3658 C 0.5306 0.98699 0.9908 0.0
C3659 C 0.53805 0.96198 0.98729 0.0
C3660 C 0.52262 0.93854 0.94782 0.0
H3661 H 0.54404 0.86738 0.93447 0.0
H3662 H 0.54331 0.8916 0.95079 0.0
H3663 H 0.51427 0.91968 0.92867 0.0
H3664 H 0.52098 0.9939 0.96925 0.0
H3665 H 0.52345 0.97087 0.95214 0.0
H3666 H 0.55661 0.94417 0.97286 0.0
C3667 C 0.54103 0.89091 0.93807 0.0
C3668 C 0.52363 0.92499 0.93823 0.0
C3669 C 0.5415 0.87703 0.92868 0.0
C3670 C 0.52573 0.98507 0.97449 0.0
C3671 C 0.52707 0.97179 0.96468 0.0
C3672 C 0.54716 0.93887 0.96338 0.0
C3673 C 0.53721 0.90354 0.93117 0.0
C3674 C 0.53632 0.91814 0.94119 0.0
C3675 C 0.53318 0.96001 0.97095 0.0
C3676 C 0.53437 0.94568 0.96056 0.0
H3677 H 0.53246 0.88768 0.89255 0.0
H3678 H 0.53132 0.91168 0.90896 0.0
H3679 H 0.55813 0.92037 0.95633 0.0
H3680 H 0.54062 0.97635 0.00959 0.0
H3681 H 0.54255 0.95306 0.99263 0.0
C3682 C 0.92276 0.76803 0.70629 0.0
C3683 C 0.93043 0.75644 0.71045 0.0
C3684 C 0.90794 0.76825 0.71108 0.0
C3685 C 0.87978 0.75273 0.73961 0.0
H3686 H 0.85042 0.76706 0.71177 0.0
C3687 C 0.81493 0.75266 0.75205 0.0
C3688 C 0.81102 0.76708 0.75041 0.0
C3689 C 0.82906 0.75006 0.74704 0.0
C3690 C 0.8585 0.76305 0.7197 0.0
H3691 H 0.92823 0.73601 0.72319 0.0
H3692 H 0.90213 0.73602 0.731 0.0
H3693 H 0.87567 0.76483 0.70329 0.0
H3694 H 0.81882 0.78993 0.74197 0.0
H3695 H 0.84308 0.78527 0.73307 0.0
H3696 H 0.86229 0.75079 0.75591 0.0
C3697 C 0.90776 0.74517 0.72425 0.0
C3698 C 0.87307 0.76187 0.71489 0.0
C3699 C 0.92271 0.74504 0.71957 0.0
C3700 C 0.82143 0.7787 0.74348 0.0
C3701 C 0.83533 0.776 0.73827 0.0
C3702 C 0.86507 0.75374 0.74435 0.0
C3703 C 0.90011 0.75676 0.72003 0.0
C3704 C 0.8841 0.75699 0.72488 0.0
C3705 C 0.83937 0.7617 0.74002 0.0
C3706 C 0.85438 0.75919 0.73455 0.0
H3707 H 0.92807 0.77688 0.69907 0.0
H3708 H 0.90268 0.77757 0.70781 0.0
H3709 H 0.88795 0.74907 0.74774 0.0
H3710 H 0.8072 0.7435 0.75738 0.0
H3711 H 0.83183 0.73889 0.74849 0.0
C3712 C 0.06738 0.02674 0.85675 0.0
C3713 C 0.07784 0.01767 0.8524 0.0
C3714 C 0.06196 0.0265 0.8716 0.0
C3715 C 0.05934 0.00428 0.90665 0.0
H3716 H 0.05244 0.04323 0.92691 0.0
C3717 C 0.04778 0.01476 0.97241 0.0
C3718 C 0.03434 0.02042 0.97461 0.0
C3719 C 0.0533 0.01394 0.95757 0.0
C3720 C 0.05428 0.03226 0.92136 0.0
H3721 H 0.09085 0.00126 0.86009 0.0
H3722 H 0.08189 0.00124 0.88625 0.0
H3723 H 0.06172 0.0427 0.90097 0.0
H3724 H 0.01626 0.02982 0.96305 0.0
H3725 H 0.02614 0.02874 0.93733 0.0
H3726 H 0.0523 0.99409 0.92747 0.0
C3727 C 0.07745 0.00819 0.87809 0.0
C3728 C 0.05948 0.03188 0.90642 0.0
C3729 C 0.08265 0.00823 0.86311 0.0
C3730 C 0.02661 0.02534 0.96173 0.0
C3731 C 0.03229 0.0248 0.94702 0.0
C3732 C 0.05439 0.00475 0.92174 0.0
C3733 C 0.06711 0.01742 0.8826 0.0
C3734 C 0.06192 0.01784 0.89874 0.0
C3735 C 0.04567 0.01909 0.94479 0.0
C3736 C 0.05165 0.0187 0.92915 0.0
H3737 H 0.06337 0.03399 0.84862 0.0
H3738 H 0.0537 0.03344 0.8744 0.0
H3739 H 0.06085 0.99318 0.90109 0.0
H3740 H 0.05396 0.01086 0.98212 0.0
H3741 H 0.06369 0.00955 0.95615 0.0
C3742 C 0.75324 0.34185 0.58698 0.0
C3743 C 0.74887 0.33951 0.57063 0.0
C3744 C 0.75348 0.32888 0.59505 0.0
C3745 C 0.76288 0.29197 0.59135 0.0
H3746 H 0.7419 0.28499 0.62898 0.0
C3747 C 0.78839 0.27435 0.6481 0.0
C3748 C 0.77809 0.26493 0.65713 0.0
C3749 C 0.78269 0.27761 0.63345 0.0
C3750 C 0.74755 0.28648 0.61829 0.0
H3751 H 0.74136 0.32214 0.54975 0.0
H3752 H 0.74233 0.29934 0.56391 0.0
H3753 H 0.7349 0.30328 0.61171 0.0
H3754 H 0.7543 0.24974 0.65679 0.0
H3755 H 0.7442 0.25609 0.63146 0.0
H3756 H 0.77652 0.27619 0.59867 0.0
C3757 C 0.7452 0.31113 0.57045 0.0
C3758 C 0.74362 0.29702 0.60852 0.0
C3759 C 0.74461 0.32408 0.56242 0.0
C3760 C 0.76242 0.25745 0.65037 0.0
C3761 C 0.75665 0.26094 0.63582 0.0
C3762 C 0.76704 0.28163 0.6013 0.0
C3763 C 0.7497 0.31348 0.5868 0.0
C3764 C 0.7516 0.30019 0.59527 0.0
C3765 C 0.76656 0.27167 0.62764 0.0
C3766 C 0.75974 0.27919 0.6151 0.0
H3767 H 0.75667 0.3537 0.59342 0.0
H3768 H 0.75717 0.33093 0.60766 0.0
H3769 H 0.76922 0.29435 0.58119 0.0
H3770 H 0.8005 0.2804 0.65289 0.0
H3771 H 0.79056 0.28602 0.62742 0.0
C3772 C 0.42235 0.0331 0.36526 0.0
C3773 C 0.42429 0.02372 0.35167 0.0
C3774 C 0.43189 0.03399 0.37941 0.0
C3775 C 0.45781 0.01309 0.3999 0.0
H3776 H 0.47259 0.05331 0.42708 0.0
C3777 C 0.50193 0.02205 0.45618 0.0
C3778 C 0.49736 0.02922 0.46981 0.0
C3779 C 0.4939 0.02193 0.44135 0.0
C3780 C 0.46848 0.042 0.41961 0.0
H3781 H 0.43778 0.00806 0.34209 0.0
H3782 H 0.45463 0.00979 0.36676 0.0
H3783 H 0.45677 0.05187 0.40182 0.0
H3784 H 0.48109 0.04224 0.47856 0.0
H3785 H 0.46716 0.04209 0.45263 0.0
H3786 H 0.46963 0.00328 0.41771 0.0
C3787 C 0.44554 0.0162 0.36659 0.0
C3788 C 0.45938 0.04115 0.4052 0.0
C3789 C 0.43591 0.01522 0.35247 0.0
C3790 C 0.48486 0.03658 0.46829 0.0
C3791 C 0.47694 0.03658 0.45345 0.0
C3792 C 0.46701 0.01398 0.41426 0.0
C3793 C 0.44364 0.02562 0.38022 0.0
C3794 C 0.45381 0.02665 0.39526 0.0
C3795 C 0.48128 0.02912 0.43988 0.0
C3796 C 0.4723 0.0284 0.4243 0.0
H3797 H 0.41334 0.03962 0.36498 0.0
H3798 H 0.42991 0.0411 0.38977 0.0
H3799 H 0.45351 0.00169 0.39262 0.0
H3800 H 0.51152 0.01628 0.45698 0.0
H3801 H 0.49754 0.01621 0.43103 0.0
C3802 C 0.78549 0.72511 0.09992 0.0
C3803 C 0.77807 0.73048 0.08715 0.0
C3804 C 0.78359 0.73019 0.11542 0.0
C3805 C 0.77237 0.76111 0.14093 0.0
H3806 H 0.76495 0.72865 0.16889 0.0
C3807 C 0.76063 0.77304 0.20661 0.0
C3808 C 0.76896 0.76608 0.21741 0.0
C3809 C 0.76054 0.76919 0.19029 0.0
C3810 C 0.7671 0.73788 0.16127 0.0
H3811 H 0.76324 0.74586 0.08075 0.0
H3812 H 0.75982 0.75468 0.10797 0.0
H3813 H 0.76744 0.72134 0.14126 0.0
H3814 H 0.78388 0.74977 0.21943 0.0
H3815 H 0.78375 0.74323 0.19129 0.0
H3816 H 0.77223 0.77769 0.16115 0.0
C3817 C 0.76715 0.74654 0.1059 0.0
C3818 C 0.76856 0.7337 0.14544 0.0
C3819 C 0.76901 0.7414 0.09032 0.0
C3820 C 0.77722 0.7553 0.21153 0.0
C3821 C 0.77709 0.75145 0.19533 0.0
C3822 C 0.77093 0.76532 0.15687 0.0
C3823 C 0.7742 0.74076 0.11861 0.0
C3824 C 0.77154 0.74528 0.13515 0.0
C3825 C 0.76868 0.75825 0.1845 0.0
C3826 C 0.76862 0.75378 0.16727 0.0
H3827 H 0.79238 0.71655 0.09794 0.0
H3828 H 0.78939 0.72571 0.12496 0.0
H3829 H 0.77469 0.77031 0.13329 0.0
H3830 H 0.75418 0.78142 0.21074 0.0
H3831 H 0.75391 0.77458 0.18222 0.0
C3832 C 0.06879 0.03455 0.69165 0.0
C3833 C 0.06775 0.01965 0.6968 0.0
C3834 C 0.06306 0.03566 0.67617 0.0
C3835 C 0.05405 0.01254 0.63649 0.0
H3836 H 0.03317 0.04496 0.62608 0.0
C3837 C 0.02691 0.01311 0.57322 0.0
C3838 C 0.02969 0.02778 0.56726 0.0
C3839 C 0.03063 0.01241 0.58925 0.0
C3840 C 0.03912 0.03594 0.6288 0.0
H3841 H 0.05924 0.99424 0.68989 0.0
H3842 H 0.04913 0.99616 0.66292 0.0
H3843 H 0.04095 0.04296 0.65374 0.0
H3844 H 0.03821 0.05327 0.57363 0.0
H3845 H 0.04484 0.05203 0.60172 0.0
H3846 H 0.05232 0.00554 0.61164 0.0
C3847 C 0.05468 0.007 0.67076 0.0
C3848 C 0.04357 0.03478 0.64465 0.0
C3849 C 0.06044 0.00589 0.68623 0.0
C3850 C 0.03593 0.04178 0.57782 0.0
C3851 C 0.03966 0.04107 0.59393 0.0
C3852 C 0.0496 0.01368 0.6207 0.0
C3853 C 0.05614 0.0219 0.66546 0.0
C3854 C 0.05107 0.02304 0.64868 0.0
C3855 C 0.03726 0.02635 0.59977 0.0
C3856 C 0.04204 0.02536 0.61665 0.0
H3857 H 0.07456 0.04539 0.69941 0.0
H3858 H 0.06457 0.04732 0.67245 0.0
H3859 H 0.06012 0.00359 0.63913 0.0
H3860 H 0.02199 0.00206 0.56549 0.0
H3861 H 0.02833 0.00089 0.59339 0.0
C3862 C 0.72566 0.33558 0.42753 0.0
C3863 C 0.73985 0.33969 0.43782 0.0
C3864 C 0.72448 0.32617 0.41308 0.0
C3865 C 0.73008 0.31748 0.37932 0.0
H3866 H 0.75431 0.28627 0.37367 0.0
C3867 C 0.75304 0.30288 0.32056 0.0
C3868 C 0.75479 0.28757 0.31635 0.0
C3869 C 0.74821 0.30691 0.33516 0.0
C3870 C 0.74721 0.29471 0.37498 0.0
H3871 H 0.76385 0.33706 0.44124 0.0
H3872 H 0.76199 0.32102 0.416 0.0
H3873 H 0.75061 0.29633 0.40014 0.0
H3874 H 0.75217 0.26424 0.32377 0.0
H3875 H 0.74333 0.27114 0.34907 0.0
H3876 H 0.72652 0.31571 0.35415 0.0
C3877 C 0.75157 0.32461 0.41916 0.0
C3878 C 0.74527 0.30065 0.3902 0.0
C3879 C 0.75269 0.33388 0.43363 0.0
C3880 C 0.75116 0.27622 0.3268 0.0
C3881 C 0.74612 0.28018 0.34132 0.0
C3882 C 0.73185 0.31139 0.36409 0.0
C3883 C 0.73754 0.32083 0.40861 0.0
C3884 C 0.73718 0.31252 0.39256 0.0
C3885 C 0.7448 0.29564 0.34576 0.0
C3886 C 0.7409 0.30034 0.36176 0.0
H3887 H 0.71553 0.33978 0.43061 0.0
H3888 H 0.71344 0.32327 0.40531 0.0
H3889 H 0.72382 0.32665 0.38068 0.0
H3890 H 0.75578 0.31189 0.31274 0.0
H3891 H 0.74763 0.31901 0.33829 0.0
C3892 C 0.44192 0.99942 0.21579 0.0
C3893 C 0.42722 0.0022 0.2108 0.0
C3894 C 0.45087 0.99402 0.20481 0.0
C3895 C 0.44856 0.97494 0.164 0.0
H3896 H 0.49199 1.00024 0.16583 0.0
C3897 C 0.48196 0.98164 0.10968 0.0
C3898 C 0.49859 0.9847 0.11142 0.0
C3899 C 0.47363 0.9798 0.12278 0.0
C3900 C 0.48004 0.99275 0.16531 0.0
H3901 H 0.41034 0.00132 0.19039 0.0
H3902 H 0.42592 0.99175 0.17127 0.0
H3903 H 0.47654 0.00455 0.18729 0.0
H3904 H 0.51944 0.9872 0.12813 0.0
H3905 H 0.50482 0.9835 0.15097 0.0
H3906 H 0.45194 0.96339 0.14183 0.0
C3907 C 0.43041 0.99359 0.18369 0.0
C3908 C 0.47117 0.99528 0.1776 0.0
C3909 C 0.42151 0.99911 0.19465 0.0
C3910 C 0.50662 0.98483 0.12639 0.0
C3911 C 0.49827 0.98288 0.1395 0.0
C3912 C 0.45748 0.97231 0.15175 0.0
C3913 C 0.44524 0.99115 0.18865 0.0
C3914 C 0.45522 0.98674 0.17683 0.0
C3915 C 0.48173 0.98084 0.13792 0.0
C3916 C 0.47316 0.98154 0.15204 0.0
H3917 H 0.44649 0.00137 0.22819 0.0
H3918 H 0.46223 0.99211 0.20893 0.0
H3919 H 0.43634 0.96804 0.16326 0.0
H3920 H 0.4754 0.98116 0.09824 0.0
H3921 H 0.46092 0.97838 0.12112 0.0
C3922 C 0.77084 0.7092 0.91697 0.0
C3923 C 0.78253 0.71691 0.92954 0.0
C3924 C 0.77135 0.71423 0.90205 0.0
C3925 C 0.78757 0.74885 0.88191 0.0
H3926 H 0.77645 0.71778 0.84438 0.0
C3927 C 0.79075 0.76704 0.81906 0.0
C3928 C 0.77784 0.75924 0.80771 0.0
C3929 C 0.7925 0.76163 0.83374 0.0
C3930 C 0.77947 0.72661 0.85474 0.0
H3931 H 0.80396 0.736 0.93623 0.0
H3932 H 0.80497 0.74469 0.91007 0.0
H3933 H 0.77736 0.7089 0.87039 0.0
H3934 H 0.75682 0.7394 0.8028 0.0
H3935 H 0.75982 0.73007 0.82837 0.0
H3936 H 0.78949 0.76655 0.86625 0.0
C3937 C 0.79532 0.73481 0.91183 0.0
C3938 C 0.77999 0.72152 0.86965 0.0
C3939 C 0.79483 0.72974 0.92678 0.0
C3940 C 0.76691 0.74572 0.81125 0.0
C3941 C 0.76868 0.74029 0.8259 0.0
C3942 C 0.78704 0.75394 0.86698 0.0
C3943 C 0.78358 0.72711 0.89929 0.0
C3944 C 0.78387 0.73257 0.88343 0.0
C3945 C 0.78141 0.74826 0.83738 0.0
C3946 C 0.78282 0.74287 0.85322 0.0
H3947 H 0.76132 0.69915 0.91862 0.0
H3948 H 0.76202 0.70815 0.89272 0.0
H3949 H 0.79041 0.75767 0.89227 0.0
H3950 H 0.79943 0.77748 0.81672 0.0
H3951 H 0.80256 0.76792 0.84224 0.0
C3952 C 0.84633 0.0912 0.01015 0.0
C3953 C 0.84792 0.10623 0.00522 0.0
C3954 C 0.85424 0.08072 0.0033 0.0
C3955 C 0.88824 0.07914 0.98178 0.0
H3956 H 0.86656 0.03433 0.97277 0.0
C3957 C 0.92184 0.03411 0.96129 0.0
C3958 C 0.92073 0.02208 0.9711 0.0
C3959 C 0.91084 0.04324 0.96118 0.0
C3960 C 0.87273 0.04681 0.97514 0.0
H3961 H 0.85932 0.12226 0.98955 0.0
H3962 H 0.87309 0.10386 0.97749 0.0
H3963 H 0.85199 0.05328 0.98186 0.0
H3964 H 0.90648 0.00943 0.98754 0.0
H3965 H 0.88732 0.02513 0.98718 0.0
H3966 H 0.90911 0.07264 0.97563 0.0
C3967 C 0.86573 0.10021 0.98666 0.0
C3968 C 0.86443 0.05764 0.98042 0.0
C3969 C 0.85779 0.11069 0.99349 0.0
C3970 C 0.90761 0.01845 0.97968 0.0
C3971 C 0.89661 0.02751 0.97951 0.0
C3972 C 0.89654 0.06831 0.9765 0.0
C3973 C 0.86389 0.08506 0.99139 0.0
C3974 C 0.87222 0.07385 0.98419 0.0
C3975 C 0.8985 0.04041 0.9708 0.0
C3976 C 0.88897 0.05199 0.97352 0.0
H3977 H 0.83867 0.08736 0.01903 0.0
H3978 H 0.85283 0.06923 0.00739 0.0
H3979 H 0.89458 0.09154 0.98471 0.0
H3980 H 0.93166 0.037 0.95431 0.0
H3981 H 0.91241 0.05297 0.95415 0.0
C3982 C 0.36071 0.43549 0.04518 0.0
C3983 C 0.34871 0.43509 0.03296 0.0
C3984 C 0.37625 0.44453 0.04489 0.0
C3985 C 0.40017 0.47851 0.02913 0.0
H3986 H 0.43373 0.45694 0.03257 0.0
C3987 C 0.46338 0.50725 0.01505 0.0
C3988 C 0.47629 0.50389 0.02363 0.0
C3989 C 0.44781 0.49928 0.01684 0.0
C3990 C 0.4246 0.46328 0.03188 0.0
H3991 H 0.34382 0.44413 0.0109 0.0
H3992 H 0.37079 0.46031 0.01078 0.0
H3993 H 0.40658 0.44269 0.03513 0.0
H3994 H 0.48308 0.48988 0.04112 0.0
H3995 H 0.456 0.47646 0.04474 0.0
H3996 H 0.4181 0.49921 0.02624 0.0
C3997 C 0.36808 0.45356 0.02054 0.0
C3998 C 0.40903 0.45506 0.03329 0.0
C3999 C 0.3526 0.44434 0.02069 0.0
C4000 C 0.47335 0.4926 0.03422 0.0
C4001 C 0.4578 0.48483 0.03621 0.0
C4002 C 0.41578 0.48683 0.02799 0.0
C4003 C 0.38008 0.45357 0.03252 0.0
C4004 C 0.39666 0.46256 0.03179 0.0
C4005 C 0.4448 0.48796 0.02745 0.0
C4006 C 0.42821 0.47929 0.0292 0.0
H4007 H 0.35813 0.42881 0.055 0.0
H4008 H 0.38528 0.44449 0.05436 0.0
H4009 H 0.39083 0.48459 0.02807 0.0
H4010 H 0.46528 0.51582 0.00671 0.0
H4011 H 0.43817 0.50182 0.00966 0.0
C4012 C 0.3812 0.60778 0.77901 0.0
C4013 C 0.38034 0.59733 0.76516 0.0
C4014 C 0.37192 0.61864 0.77961 0.0
C4015 C 0.35039 0.64001 0.75482 0.0
H4016 H 0.32648 0.64319 0.79048 0.0
C4017 C 0.30317 0.67569 0.75578 0.0
C4018 C 0.30172 0.68401 0.77024 0.0
C4019 C 0.31295 0.6653 0.75516 0.0
C4020 C 0.33326 0.64266 0.78055 0.0
H4021 H 0.36894 0.5902 0.74106 0.0
H4022 H 0.35305 0.60943 0.74203 0.0
H4023 H 0.34352 0.62505 0.78945 0.0
H4024 H 0.30962 0.68827 0.79534 0.0
H4025 H 0.32698 0.67043 0.79427 0.0
H4026 H 0.34039 0.65778 0.74601 0.0
C4027 C 0.36098 0.6092 0.7524 0.0
C4028 C 0.34298 0.63221 0.77995 0.0
C4029 C 0.37014 0.59822 0.75184 0.0
C4030 C 0.31034 0.68183 0.78406 0.0
C4031 C 0.32025 0.67157 0.78343 0.0
C4032 C 0.34079 0.65058 0.75549 0.0
C4033 C 0.36168 0.61943 0.76632 0.0
C4034 C 0.3516 0.63074 0.76706 0.0
C4035 C 0.32165 0.66311 0.76898 0.0
C4036 C 0.33204 0.652 0.76834 0.0
H4037 H 0.38914 0.60768 0.7894 0.0
H4038 H 0.37285 0.62654 0.79043 0.0
H4039 H 0.35705 0.63924 0.74483 0.0
H4040 H 0.29651 0.67702 0.74496 0.0
H4041 H 0.31349 0.6588 0.74387 0.0
C4042 C 0.19458 0.59354 0.50565 0.0
C4043 C 0.20301 0.59863 0.52079 0.0
C4044 C 0.17872 0.58478 0.50383 0.0
C4045 C 0.14807 0.56062 0.52451 0.0
H4046 H 0.11868 0.5758 0.49751 0.0
C4047 C 0.08165 0.54679 0.53086 0.0
C4048 C 0.07071 0.54355 0.51717 0.0
C4049 C 0.09789 0.55187 0.52991 0.0
C4050 C 0.12673 0.57122 0.50487 0.0
H4051 H 0.2015 0.59821 0.54588 0.0
H4052 H 0.17389 0.58282 0.5427 0.0
H4053 H 0.14718 0.58718 0.49827 0.0
H4054 H 0.06828 0.54304 0.49168 0.0
H4055 H 0.09678 0.55187 0.49004 0.0
H4056 H 0.12764 0.54486 0.53132 0.0
C4057 C 0.17958 0.58549 0.53222 0.0
C4058 C 0.14306 0.57774 0.50531 0.0
C4059 C 0.19541 0.59431 0.53405 0.0
C4060 C 0.0764 0.54551 0.50247 0.0
C4061 C 0.09271 0.55059 0.50152 0.0
C4062 C 0.13176 0.55407 0.52403 0.0
C4063 C 0.17101 0.58085 0.51712 0.0
C4064 C 0.15386 0.57273 0.51538 0.0
C4065 C 0.10362 0.55379 0.51524 0.0
C4066 C 0.12091 0.55955 0.51447 0.0
H4067 H 0.2002 0.59643 0.49518 0.0
H4068 H 0.17245 0.58116 0.49204 0.0
H4069 H 0.15615 0.55635 0.53218 0.0
H4070 H 0.07769 0.54547 0.54239 0.0
H4071 H 0.10597 0.55454 0.54074 0.0
C4072 C 0.69331 0.94811 0.77107 0.0
C4073 C 0.69438 0.95704 0.75834 0.0
C4074 C 0.70361 0.93853 0.77355 0.0
C4075 C 0.73148 0.91932 0.75482 0.0
H4076 H 0.75163 0.92367 0.79779 0.0
C4077 C 0.7817 0.89011 0.76963 0.0
C4078 C 0.77975 0.88125 0.78239 0.0
C4079 C 0.77264 0.90086 0.76721 0.0
C4080 C 0.74605 0.92228 0.78576 0.0
H4081 H 0.70664 0.96248 0.73786 0.0
H4082 H 0.72452 0.94563 0.74211 0.0
H4083 H 0.73173 0.93802 0.79182 0.0
H4084 H 0.7674 0.87723 0.80305 0.0
H4085 H 0.75164 0.89601 0.79886 0.0
H4086 H 0.74566 0.90345 0.74878 0.0
C4087 C 0.71567 0.94597 0.75012 0.0
C4088 C 0.73461 0.93042 0.78235 0.0
C4089 C 0.70538 0.95556 0.74765 0.0
C4090 C 0.76932 0.88405 0.79323 0.0
C4091 C 0.76025 0.89478 0.7908 0.0
C4092 C 0.7429 0.91115 0.75823 0.0
C4093 C 0.71515 0.93771 0.76332 0.0
C4094 C 0.72715 0.92893 0.76687 0.0
C4095 C 0.76147 0.90292 0.7775 0.0
C4096 C 0.75023 0.91249 0.77376 0.0
H4097 H 0.68479 0.94886 0.77936 0.0
H4098 H 0.70276 0.93201 0.78364 0.0
H4099 H 0.72583 0.91787 0.74281 0.0
H4100 H 0.78982 0.88831 0.76121 0.0
H4101 H 0.77405 0.90723 0.75703 0.0
C4102 C 0.69799 0.93161 0.52938 0.0
C4103 C 0.69846 0.92022 0.51673 0.0
C4104 C 0.68701 0.94073 0.52839 0.0
C4105 C 0.64935 0.94241 0.50581 0.0
H4106 H 0.6628 0.98686 0.52333 0.0
C4107 C 0.61252 0.98693 0.493 0.0
C4108 C 0.61086 0.9974 0.50591 0.0
C4109 C 0.62303 0.97736 0.49459 0.0
C4110 C 0.65883 0.97443 0.51851 0.0
H4111 H 0.68743 0.90934 0.49321 0.0
H4112 H 0.66871 0.92562 0.49126 0.0
H4113 H 0.68139 0.97039 0.52553 0.0
H4114 H 0.61904 0.0062 0.53057 0.0
H4115 H 0.63744 0.98949 0.53335 0.0
H4116 H 0.62686 0.94659 0.49854 0.0
C4117 C 0.67666 0.92733 0.50207 0.0
C4118 C 0.66946 0.96496 0.51981 0.0
C4119 C 0.68758 0.91813 0.5031 0.0
C4120 C 0.62 0.99817 0.52044 0.0
C4121 C 0.63061 0.9887 0.52199 0.0
C4122 C 0.63876 0.95191 0.50441 0.0
C4123 C 0.67627 0.93879 0.51468 0.0
C4124 C 0.66487 0.94882 0.51346 0.0
C4125 C 0.63219 0.97815 0.5091 0.0
C4126 C 0.64339 0.96802 0.51073 0.0
H4127 H 0.70629 0.9337 0.53998 0.0
H4128 H 0.68692 0.94928 0.53842 0.0
H4129 H 0.64529 0.92998 0.50103 0.0
H4130 H 0.60552 0.98595 0.4817 0.0
H4131 H 0.62409 0.96945 0.48441 0.0
C4132 C 0.35441 0.44752 0.76237 0.0
C4133 C 0.36766 0.44992 0.75392 0.0
C4134 C 0.34445 0.43233 0.76208 0.0
C4135 C 0.33389 0.39137 0.74061 0.0
H4136 H 0.31913 0.38009 0.78028 0.0
C4137 C 0.30734 0.3267 0.75175 0.0
C4138 C 0.29387 0.32379 0.75992 0.0
C4139 C 0.31545 0.34221 0.75012 0.0
C4140 C 0.323 0.38311 0.76907 0.0
H4141 H 0.38078 0.43837 0.73835 0.0
H4142 H 0.36357 0.41174 0.73805 0.0
H4143 H 0.33494 0.4069 0.77898 0.0
H4144 H 0.27825 0.33491 0.77261 0.0
H4145 H 0.29251 0.362 0.76984 0.0
H4146 H 0.32223 0.36736 0.73086 0.0
C4147 C 0.36066 0.42163 0.74467 0.0
C4148 C 0.33203 0.3985 0.7683 0.0
C4149 C 0.37055 0.43688 0.74486 0.0
C4150 C 0.28859 0.33673 0.76627 0.0
C4151 C 0.29679 0.35226 0.76475 0.0
C4152 C 0.32494 0.37593 0.74142 0.0
C4153 C 0.3476 0.41914 0.75344 0.0
C4154 C 0.33762 0.40283 0.75407 0.0
C4155 C 0.31035 0.35516 0.75673 0.0
C4156 C 0.31944 0.37164 0.75567 0.0
H4157 H 0.35176 0.45741 0.76926 0.0
H4158 H 0.3343 0.43092 0.76868 0.0
H4159 H 0.33779 0.39435 0.7294 0.0
H4160 H 0.31171 0.317 0.74668 0.0
H4161 H 0.32595 0.34409 0.74401 0.0
C4162 C 0.2356 0.60534 0.25581 0.0
C4163 C 0.21923 0.60094 0.257 0.0
C4164 C 0.24444 0.621 0.2607 0.0
C4165 C 0.2432 0.65828 0.28452 0.0
H4166 H 0.26642 0.67904 0.25275 0.0
C4167 C 0.25133 0.72412 0.27831 0.0
C4168 C 0.26532 0.73253 0.27301 0.0
C4169 C 0.24885 0.70796 0.27958 0.0
C4170 C 0.26031 0.67341 0.26194 0.0
H4171 H 0.19941 0.60904 0.26496 0.0
H4172 H 0.21469 0.63627 0.27327 0.0
H4173 H 0.25677 0.65026 0.24926 0.0
H4174 H 0.28814 0.73088 0.26584 0.0
H4175 H 0.2838 0.7028 0.26816 0.0
H4176 H 0.24616 0.6815 0.29686 0.0
C4177 C 0.22076 0.62775 0.26862 0.0
C4178 C 0.2548 0.65691 0.25993 0.0
C4179 C 0.21196 0.61223 0.26363 0.0
C4180 C 0.27708 0.72468 0.2697 0.0
C4181 C 0.27464 0.70858 0.27103 0.0
C4182 C 0.24872 0.67478 0.28654 0.0
C4183 C 0.23704 0.63234 0.26708 0.0
C4184 C 0.24569 0.64926 0.27091 0.0
C4185 C 0.26036 0.69998 0.27565 0.0
C4186 C 0.25684 0.68252 0.27498 0.0
H4187 H 0.24145 0.59677 0.25083 0.0
H4188 H 0.25699 0.62429 0.2594 0.0
H4189 H 0.2364 0.6526 0.29328 0.0
H4190 H 0.24209 0.72986 0.28102 0.0
H4191 H 0.23764 0.7016 0.283 0.0
C4192 C 0.48415 0.67538 0.465 0.0
C4193 C 0.49788 0.68608 0.4614 0.0
C4194 C 0.48486 0.66079 0.47 0.0
C4195 C 0.51027 0.63237 0.46979 0.0
H4196 H 0.48582 0.61522 0.50251 0.0
C4197 C 0.52328 0.58072 0.50017 0.0
C4198 C 0.51048 0.56855 0.5033 0.0
C4199 C 0.52079 0.59459 0.49497 0.0
C4200 C 0.49258 0.61974 0.49322 0.0
H4201 H 0.52316 0.68953 0.46021 0.0
H4202 H 0.52447 0.66451 0.46928 0.0
H4203 H 0.48339 0.64028 0.49376 0.0
H4204 H 0.48495 0.56171 0.50355 0.0
H4205 H 0.48059 0.58608 0.49444 0.0
H4206 H 0.5196 0.61199 0.46934 0.0
C4207 C 0.51306 0.66724 0.46805 0.0
C4208 C 0.4912 0.63414 0.48818 0.0
C4209 C 0.51234 0.68178 0.46305 0.0
C4210 C 0.49509 0.5708 0.50126 0.0
C4211 C 0.4926 0.5848 0.4961 0.0
C4212 C 0.51169 0.61806 0.47484 0.0
C4213 C 0.49932 0.65645 0.47151 0.0
C4214 C 0.50018 0.64077 0.47652 0.0
C4215 C 0.50543 0.59682 0.49272 0.0
C4216 C 0.50304 0.61162 0.48677 0.0
H4217 H 0.47281 0.67828 0.46404 0.0
H4218 H 0.474 0.65279 0.47242 0.0
H4219 H 0.51709 0.63681 0.4605 0.0
H4220 H 0.53533 0.57955 0.50165 0.0
H4221 H 0.531 0.60366 0.4928 0.0
C4222 C 0.62944 0.28109 0.65038 0.0
C4223 C 0.62044 0.29116 0.65632 0.0
C4224 C 0.64317 0.2798 0.65922 0.0
C4225 C 0.66337 0.28708 0.70031 0.0
H4226 H 0.69925 0.28062 0.67949 0.0
C4227 C 0.71572 0.27056 0.73413 0.0
C4228 C 0.73115 0.27737 0.73064 0.0
C4229 C 0.70241 0.27207 0.72473 0.0
C4230 C 0.68941 0.28256 0.68555 0.0
H4231 H 0.61913 0.30793 0.6763 0.0
H4232 H 0.64333 0.30608 0.69147 0.0
H4233 H 0.67623 0.28457 0.66397 0.0
H4234 H 0.74462 0.29095 0.7143 0.0
H4235 H 0.72147 0.29385 0.69811 0.0
H4236 H 0.67674 0.28557 0.72195 0.0
C4237 C 0.63958 0.29891 0.68006 0.0
C4238 C 0.67608 0.28462 0.67659 0.0
C4239 C 0.62578 0.30015 0.67125 0.0
C4240 C 0.73292 0.28549 0.71732 0.0
C4241 C 0.7196 0.2871 0.70798 0.0
C4242 C 0.67673 0.28511 0.70928 0.0
C4243 C 0.6484 0.28862 0.67423 0.0
C4244 C 0.66283 0.28685 0.68383 0.0
C4245 C 0.70415 0.28054 0.71163 0.0
C4246 C 0.68993 0.28274 0.70202 0.0
H4247 H 0.6259 0.27417 0.63884 0.0
H4248 H 0.64949 0.27161 0.65436 0.0
H4249 H 0.65335 0.28856 0.70632 0.0
H4250 H 0.71387 0.26413 0.74423 0.0
H4251 H 0.69073 0.26656 0.72775 0.0
C4252 C 0.99553 0.34826 0.97322 0.0
C4253 C 0.0088 0.34421 0.96756 0.0
C4254 C 0.99613 0.36409 0.97852 0.0
C4255 C 0.02372 0.40317 0.99344 0.0
H4256 H 0.9892 0.42013 0.97807 0.0
C4257 C 0.02875 0.47058 0.00212 0.0
C4258 C 0.01505 0.47582 0.00432 0.0
C4259 C 0.02775 0.45443 0.99831 0.0
C4260 C 0.99884 0.41559 0.98273 0.0
H4261 H 0.03326 0.35359 0.96352 0.0
H4262 H 0.03438 0.38117 0.97294 0.0
H4263 H 0.9879 0.39221 0.97069 0.0
H4264 H 0.98955 0.46801 0.00444 0.0
H4265 H 0.98784 0.43982 0.99826 0.0
H4266 H 0.0346 0.42638 0.00568 0.0
C4267 C 0.02347 0.37211 0.97321 0.0
C4268 C 0.9981 0.39954 0.97843 0.0
C4269 C 0.02281 0.35632 0.96771 0.0
C4270 C 1.00034 0.46443 0.00274 0.0
C4271 C 0.99935 0.44823 0.99909 0.0
C4272 C 0.02439 0.41917 0.99789 0.0
C4273 C 0.01009 0.37622 0.9785 0.0
C4274 C 0.0106 0.39316 0.98362 0.0
C4275 C 0.01304 0.44297 0.99674 0.0
C4276 C 0.01203 0.42569 0.99248 0.0
H4277 H 0.98451 0.33925 0.97313 0.0
H4278 H 0.98565 0.36683 0.98264 0.0
H4279 H 0.03345 0.39858 0.99782 0.0
H4280 H 0.04029 0.479 0.0031 0.0
H4281 H 0.03854 0.45099 0.9963 0.0
C4282 C 0.96185 0.78759 0.15535 0.0
C4283 C 0.97429 0.7808 0.15973 0.0
C4284 C 0.94895 0.7864 0.16415 0.0
C4285 C 0.92824 0.76326 0.19373 0.0
H4286 H 0.9093 0.79864 0.19993 0.0
C4287 C 0.88196 0.76551 0.23762 0.0
C4288 C 0.86872 0.77093 0.23261 0.0
C4289 C 0.89473 0.76671 0.22866 0.0
C4290 C 0.91436 0.78859 0.19818 0.0
H4291 H 0.98301 0.76769 0.17704 0.0
H4292 H 0.96068 0.76579 0.1925 0.0
H4293 H 0.9318 0.80082 0.18465 0.0
H4294 H 0.85862 0.78175 0.214 0.0
H4295 H 0.88099 0.78404 0.19852 0.0
H4296 H 0.91089 0.75113 0.20746 0.0
C4297 C 0.96068 0.77174 0.18204 0.0
C4298 C 0.92726 0.78982 0.18938 0.0
C4299 C 0.97353 0.77286 0.17319 0.0
C4300 C 0.86868 0.77768 0.2184 0.0
C4301 C 0.88151 0.77897 0.20949 0.0
C4302 C 0.91541 0.76207 0.20261 0.0
C4303 C 0.94818 0.77846 0.17763 0.0
C4304 C 0.9344 0.77717 0.18702 0.0
C4305 C 0.89467 0.77346 0.21448 0.0
C4306 C 0.9083 0.77472 0.20495 0.0
H4307 H 0.96192 0.79358 0.14492 0.0
H4308 H 0.93945 0.79149 0.1602 0.0
H4309 H 0.93319 0.75315 0.19195 0.0
H4310 H 0.8826 0.76053 0.24863 0.0
H4311 H 0.90478 0.76257 0.23298 0.0
C4312 C 0.50243 0.32674 0.11302 0.0
C4313 C 0.51499 0.32633 0.12428 0.0
C4314 C 0.50357 0.33954 0.10431 0.0
C4315 C 0.52645 0.38147 0.10399 0.0
H4316 H 0.50856 0.37375 0.06 0.0
C4317 C 0.53919 0.42923 0.06156 0.0
C4318 C 0.52623 0.43066 0.05143 0.0
C4319 C 0.53759 0.41667 0.07064 0.0
C4320 C 0.51348 0.37612 0.07232 0.0
H4321 H 0.53855 0.33938 0.13526 0.0
H4322 H 0.54076 0.36131 0.11971 0.0
H4323 H 0.50631 0.35155 0.07535 0.0
H4324 H 0.50144 0.41992 0.04282 0.0
H4325 H 0.49865 0.39796 0.05866 0.0
H4326 H 0.53386 0.40603 0.1008 0.0
C4327 C 0.52989 0.35186 0.11778 0.0
C4328 C 0.51217 0.36339 0.08115 0.0
C4329 C 0.52871 0.33911 0.12656 0.0
C4330 C 0.51162 0.41922 0.05059 0.0
C4331 C 0.51006 0.40657 0.05956 0.0
C4332 C 0.52787 0.39417 0.09511 0.0
C4333 C 0.51733 0.35228 0.10653 0.0
C4334 C 0.51863 0.36588 0.09712 0.0
C4335 C 0.52303 0.40515 0.06969 0.0
C4336 C 0.52141 0.39165 0.07917 0.0
H4337 H 0.49175 0.31706 0.11077 0.0
H4338 H 0.49356 0.3395 0.09592 0.0
H4339 H 0.53132 0.38394 0.11631 0.0
H4340 H 0.55057 0.43792 0.06257 0.0
H4341 H 0.54784 0.41585 0.07824 0.0
C4342 C 0.94529 0.30196 0.31944 0.0
C4343 C 0.9504 0.28805 0.32031 0.0
C4344 C 0.92928 0.30115 0.31505 0.0
C4345 C 0.88895 0.27388 0.31279 0.0
H4346 H 0.8765 0.30358 0.28703 0.0
C4347 C 0.82377 0.26602 0.28716 0.0
C4348 C 0.81799 0.27963 0.28722 0.0
C4349 C 0.83992 0.26734 0.29124 0.0
C4350 C 0.87977 0.2953 0.29438 0.0
H4351 H 0.94268 0.26235 0.31663 0.0
H4352 H 0.91485 0.26091 0.30881 0.0
H4353 H 0.90462 0.3052 0.29353 0.0
H4354 H 0.82481 0.30535 0.29167 0.0
H4355 H 0.85301 0.30764 0.29887 0.0
H4356 H 0.86412 0.26394 0.31358 0.0
C4357 C 0.92314 0.27249 0.31188 0.0
C4358 C 0.89592 0.29623 0.29812 0.0
C4359 C 0.93913 0.2733 0.31632 0.0
C4360 C 0.82882 0.29461 0.29149 0.0
C4361 C 0.84502 0.29593 0.29553 0.0
C4362 C 0.87282 0.27293 0.30902 0.0
C4363 C 0.91794 0.2864 0.31136 0.0
C4364 C 0.90074 0.28549 0.30733 0.0
C4365 C 0.85077 0.2823 0.29547 0.0
C4366 C 0.868 0.28359 0.29973 0.0
H4367 H 0.95358 0.31353 0.32266 0.0
H4368 H 0.92573 0.31212 0.31499 0.0
H4369 H 0.89216 0.26561 0.32019 0.0
H4370 H 0.81584 0.25427 0.28389 0.0
H4371 H 0.84393 0.2566 0.29085 0.0
C4372 C 0.99606 0.66268 0.62797 0.0
C4373 C 0.99894 0.67664 0.62073 0.0
C4374 C 0.99679 0.64828 0.61971 0.0
C4375 C 0.99615 0.6282 0.57919 0.0
H4376 H 0.01816 0.60151 0.6005 0.0
C4377 C 0.01789 0.57949 0.54481 0.0
C4378 C 0.01603 0.56479 0.55061 0.0
C4379 C 0.01486 0.59239 0.5538 0.0
C4380 C 0.01179 0.60872 0.59443 0.0
H4381 H 0.00429 0.68624 0.59893 0.0
H4382 H 0.00582 0.66131 0.58467 0.0
H4383 H 0.01417 0.62529 0.61526 0.0
H4384 H 0.00966 0.55224 0.57058 0.0
H4385 H 0.00437 0.57488 0.58633 0.0
H4386 H 0.99398 0.6118 0.55832 0.0
C4387 C 0.00288 0.6614 0.59669 0.0
C4388 C 0.00948 0.62235 0.60289 0.0
C4389 C 0.00218 0.67577 0.60493 0.0
C4390 C 0.01124 0.56339 0.56576 0.0
C4391 C 0.00825 0.57637 0.5748 0.0
C4392 C 0.99848 0.61462 0.57074 0.0
C4393 C 1.00034 0.64749 0.604 0.0
C4394 C 0.00182 0.63239 0.59532 0.0
C4395 C 0.0099 0.59099 0.56885 0.0
C4396 C 0.00653 0.60483 0.57819 0.0
H4397 H 0.99367 0.66294 0.64016 0.0
H4398 H 0.99459 0.63777 0.62565 0.0
H4399 H 0.98991 0.63546 0.57304 0.0
H4400 H 0.02162 0.58107 0.53324 0.0
H4401 H 0.01654 0.60354 0.54896 0.0
C4402 C 0.62282 0.80813 0.82766 0.0
C4403 C 0.60848 0.79793 0.82002 0.0
C4404 C 0.63737 0.80768 0.82225 0.0
C4405 C 0.65522 0.79434 0.78724 0.0
H4406 H 0.69122 0.79653 0.81793 0.0
C4407 C 0.71261 0.77944 0.76913 0.0
C4408 C 0.72733 0.78808 0.77741 0.0
C4409 C 0.69833 0.7815 0.77406 0.0
C4410 C 0.68139 0.79614 0.80917 0.0
H4411 H 0.59832 0.77947 0.80039 0.0
H4412 H 0.62367 0.77857 0.79106 0.0
H4413 H 0.66605 0.79852 0.82692 0.0
H4414 H 0.73845 0.80595 0.79728 0.0
H4415 H 0.71358 0.80973 0.80572 0.0
H4416 H 0.67053 0.79195 0.76948 0.0
C4417 C 0.62366 0.78701 0.80121 0.0
C4418 C 0.66691 0.79726 0.81434 0.0
C4419 C 0.60911 0.78741 0.80667 0.0
C4420 C 0.72737 0.79904 0.79063 0.0
C4421 C 0.71306 0.80113 0.79555 0.0
C4422 C 0.66972 0.79327 0.78206 0.0
C4423 C 0.63802 0.79707 0.80899 0.0
C4424 C 0.65358 0.79629 0.80345 0.0
C4425 C 0.69832 0.7923 0.78741 0.0
C4426 C 0.683 0.79404 0.79294 0.0
H4427 H 0.62286 0.81627 0.83808 0.0
H4428 H 0.64815 0.81572 0.82845 0.0
H4429 H 0.64532 0.7938 0.7785 0.0
H4430 H 0.71205 0.77083 0.75895 0.0
H4431 H 0.68727 0.7743 0.7676 0.0
C4432 C 0.45493 0.52467 0.67128 0.0
C4433 C 0.46375 0.53557 0.68406 0.0
C4434 C 0.45984 0.52481 0.65621 0.0
C4435 C 0.48497 0.55018 0.63137 0.0
H4436 H 0.48143 0.51005 0.6058 0.0
C4437 C 0.51184 0.54529 0.57202 0.0
C4438 C 0.50298 0.53371 0.55978 0.0
C4439 C 0.50692 0.54614 0.58712 0.0
C4440 C 0.48232 0.52137 0.6127 0.0
H4441 H 0.48477 0.5551 0.69096 0.0
H4442 H 0.49337 0.55532 0.66462 0.0
H4443 H 0.47341 0.51021 0.63228 0.0
H4444 H 0.48165 0.51434 0.55373 0.0
H4445 H 0.47302 0.51596 0.57993 0.0
H4446 H 0.49392 0.56131 0.61173 0.0
C4447 C 0.48252 0.5468 0.66625 0.0
C4448 C 0.47773 0.52146 0.6279 0.0
C4449 C 0.4776 0.54666 0.68136 0.0
C4450 C 0.48885 0.52332 0.56288 0.0
C4451 C 0.48395 0.52418 0.57795 0.0
C4452 C 0.48957 0.55009 0.61613 0.0
C4453 C 0.47371 0.53585 0.6535 0.0
C4454 C 0.47892 0.53585 0.63741 0.0
C4455 C 0.49303 0.53544 0.59033 0.0
C4456 C 0.48823 0.53567 0.60658 0.0
H4457 H 0.44402 0.51619 0.67284 0.0
H4458 H 0.45261 0.51641 0.64661 0.0
H4459 H 0.48587 0.56147 0.6383 0.0
H4460 H 0.52279 0.55347 0.57006 0.0
H4461 H 0.51426 0.55489 0.5964 0.0
C4462 C 0.78996 0.20952 0.96246 0.0
C4463 C 0.77732 0.20126 0.96985 0.0
C4464 C 0.78702 0.21779 0.94995 0.0
C4465 C 0.75625 0.2185 0.91874 0.0
H4466 H 0.78047 0.26184 0.91776 0.0
C4467 C 0.74089 0.2539 0.86994 0.0
C4468 C 0.75379 0.26211 0.86285 0.0
C4469 C 0.74346 0.24791 0.88411 0.0
C4470 C 0.77369 0.24971 0.91782 0.0
H4471 H 0.75176 0.19484 0.96991 0.0
H4472 H 0.74661 0.20921 0.94795 0.0
H4473 H 0.78598 0.24797 0.94005 0.0
H4474 H 0.7794 0.27142 0.86549 0.0
H4475 H 0.78393 0.26062 0.89002 0.0
H4476 H 0.74422 0.21998 0.89642 0.0
C4477 C 0.75876 0.20936 0.95188 0.0
C4478 C 0.77686 0.2418 0.93055 0.0
C4479 C 0.76171 0.20126 0.96448 0.0
C4480 C 0.76925 0.2649 0.87058 0.0
C4481 C 0.77182 0.25888 0.88472 0.0
C4482 C 0.75316 0.22635 0.90599 0.0
C4483 C 0.77138 0.21771 0.94453 0.0
C4484 C 0.76815 0.22613 0.9311 0.0
C4485 C 0.75898 0.24999 0.89143 0.0
C4486 C 0.76185 0.24203 0.90538 0.0
H4487 H 0.8021 0.2097 0.96647 0.0
H4488 H 0.79693 0.22405 0.94436 0.0
H4489 H 0.74953 0.20634 0.9188 0.0
H4490 H 0.72885 0.25151 0.86422 0.0
H4491 H 0.73331 0.24134 0.88916 0.0
C4492 C 0.10595 0.52873 0.16719 0.0
C4493 C 0.09942 0.52359 0.18074 0.0
C4494 C 0.09615 0.52963 0.15384 0.0
C4495 C 0.05758 0.5123 0.13217 0.0
H4496 H 0.06807 0.5496 0.11053 0.0
C4497 C 0.02571 0.51628 0.071 0.0
C4498 C 0.03593 0.52275 0.06022 0.0
C4499 C 0.03148 0.51706 0.08687 0.0
C4500 C 0.06502 0.53909 0.11642 0.0
H4501 H 0.07739 0.51534 0.19083 0.0
H4502 H 0.06018 0.51642 0.16708 0.0
H4503 H 0.08176 0.54992 0.13663 0.0
H4504 H 0.06025 0.53475 0.05752 0.0
H4505 H 0.07029 0.53586 0.08501 0.0
H4506 H 0.04137 0.5012 0.11163 0.0
C4507 C 0.07295 0.51987 0.16702 0.0
C4508 C 0.07279 0.53931 0.13135 0.0
C4509 C 0.0828 0.51917 0.18053 0.0
C4510 C 0.05203 0.52978 0.06554 0.0
C4511 C 0.05776 0.53053 0.08133 0.0
C4512 C 0.04986 0.51203 0.11714 0.0
C4513 C 0.07959 0.52522 0.15363 0.0
C4514 C 0.06948 0.52577 0.13913 0.0
C4515 C 0.04754 0.52433 0.0922 0.0
C4516 C 0.0539 0.52526 0.10893 0.0
H4517 H 0.11867 0.53184 0.16678 0.0
H4518 H 0.10153 0.53347 0.14352 0.0
H4519 H 0.0549 0.5017 0.13796 0.0
H4520 H 0.01323 0.51083 0.06726 0.0
H4521 H 0.02334 0.51222 0.09501 0.0
C4522 C 0.78276 0.82592 0.44105 0.0
C4523 C 0.7679 0.82601 0.44606 0.0
C4524 C 0.7838 0.81915 0.42582 0.0
C4525 C 0.7604 0.79255 0.39069 0.0
H4526 H 0.79217 0.81737 0.36807 0.0
C4527 C 0.75796 0.78308 0.32281 0.0
C4528 C 0.77229 0.78464 0.31612 0.0
C4529 C 0.75802 0.78663 0.33909 0.0
C4530 C 0.7834 0.81014 0.37427 0.0
H4531 H 0.74247 0.81863 0.43913 0.0
H4532 H 0.74428 0.80684 0.41253 0.0
H4533 H 0.79114 0.82596 0.39579 0.0
H4534 H 0.79794 0.79086 0.32141 0.0
H4535 H 0.79803 0.79697 0.34986 0.0
H4536 H 0.75251 0.77687 0.36905 0.0
C4537 C 0.75513 0.81186 0.42044 0.0
C4538 C 0.7828 0.81507 0.39019 0.0
C4539 C 0.75409 0.81862 0.43569 0.0
C4540 C 0.78669 0.78959 0.32615 0.0
C4541 C 0.78674 0.79316 0.34245 0.0
C4542 C 0.761 0.78761 0.37476 0.0
C4543 C 0.77002 0.81231 0.41522 0.0
C4544 C 0.7712 0.80643 0.39856 0.0
C4545 C 0.77241 0.79184 0.3491 0.0
C4546 C 0.7724 0.79645 0.36631 0.0
H4547 H 0.79362 0.83127 0.44886 0.0
H4548 H 0.79544 0.81941 0.4223 0.0
H4549 H 0.75147 0.78549 0.39685 0.0
H4550 H 0.74662 0.77932 0.31547 0.0
H4551 H 0.74677 0.78569 0.34376 0.0
C4552 C 0.46524 0.52291 0.84955 0.0
C4553 C 0.47335 0.53411 0.84053 0.0
C4554 C 0.47204 0.52147 0.8645 0.0
C4555 C 0.49841 0.54428 0.8982 0.0
H4556 H 0.5 0.50353 0.91099 0.0
C4557 C 0.52324 0.53978 0.96157 0.0
C4558 C 0.51585 0.52654 0.96863 0.0
C4559 C 0.51976 0.54025 0.94543 0.0
C4560 C 0.49946 0.51499 0.90772 0.0
H4561 H 0.49492 0.55247 0.8399 0.0
H4562 H 0.5067 0.55027 0.86641 0.0
H4563 H 0.49062 0.50515 0.88371 0.0
H4564 H 0.49911 0.50335 0.96429 0.0
H4565 H 0.49248 0.50439 0.9363 0.0
H4566 H 0.50637 0.55412 0.92223 0.0
C4567 C 0.49515 0.54251 0.86177 0.0
C4568 C 0.4942 0.5159 0.89204 0.0
C4569 C 0.48847 0.54373 0.84664 0.0
C4570 C 0.50509 0.51366 0.95916 0.0
C4571 C 0.50136 0.51425 0.94305 0.0
C4572 C 0.50339 0.54335 0.91394 0.0
C4573 C 0.48696 0.5314 0.87085 0.0
C4574 C 0.49354 0.53054 0.88717 0.0
C4575 C 0.50854 0.52762 0.93597 0.0
C4576 C 0.50391 0.52867 0.91898 0.0
H4577 H 0.4536 0.5153 0.84503 0.0
H4578 H 0.46544 0.51289 0.8713 0.0
H4579 H 0.49781 0.55569 0.89478 0.0
H4580 H 0.53172 0.54983 0.96854 0.0
H4581 H 0.52587 0.55058 0.94042 0.0
C4582 C 0.80155 0.19306 0.1289 0.0
C4583 C 0.80558 0.19996 0.11528 0.0
C4584 C 0.80266 0.20255 0.14323 0.0
C4585 C 0.80073 0.24206 0.15914 0.0
H4586 H 0.81248 0.22799 0.19883 0.0
C4587 C 0.79263 0.27202 0.22058 0.0
C4588 C 0.78426 0.2611 0.22973 0.0
C4589 C 0.79832 0.26666 0.20686 0.0
C4590 C 0.80925 0.2321 0.18783 0.0
H4591 H 0.81429 0.22217 0.10597 0.0
H4592 H 0.81632 0.23885 0.13119 0.0
H4593 H 0.8177 0.2148 0.17415 0.0
H4594 H 0.7755 0.23606 0.23186 0.0
H4595 H 0.78545 0.2268 0.20806 0.0
H4596 H 0.79184 0.25906 0.1729 0.0
C4597 C 0.81225 0.22608 0.13071 0.0
C4598 C 0.81221 0.22456 0.17373 0.0
C4599 C 0.8112 0.21655 0.11635 0.0
C4600 C 0.7818 0.24478 0.22501 0.0
C4601 C 0.78765 0.23946 0.21148 0.0
C4602 C 0.79784 0.24968 0.1733 0.0
C4603 C 0.80782 0.21916 0.14426 0.0
C4604 C 0.80743 0.22907 0.15921 0.0
C4605 C 0.79596 0.25033 0.20229 0.0
C4606 C 0.80156 0.24435 0.18769 0.0
H4607 H 0.79732 0.1803 0.12843 0.0
H4608 H 0.79893 0.19686 0.1534 0.0
H4609 H 0.79684 0.24573 0.14813 0.0
H4610 H 0.7947 0.28467 0.22395 0.0
H4611 H 0.80468 0.27525 0.19992 0.0
C4612 C 0.12522 0.53629 0.3403 0.0
C4613 C 0.12181 0.5426 0.32642 0.0
C4614 C 0.11722 0.53855 0.35336 0.0
C4615 C 0.09193 0.56242 0.37072 0.0
H4616 H 0.07728 0.52543 0.39192 0.0
C4617 C 0.04397 0.55669 0.41388 0.0
C4618 C 0.04688 0.54975 0.42752 0.0
C4619 C 0.05404 0.55714 0.40206 0.0
C4620 C 0.08144 0.53591 0.38623 0.0
H4621 H 0.10757 0.55637 0.31529 0.0
H4622 H 0.09339 0.56012 0.33802 0.0
H4623 H 0.09348 0.52389 0.37049 0.0
H4624 H 0.06308 0.5387 0.4399 0.0
H4625 H 0.08049 0.53933 0.41923 0.0
H4626 H 0.07951 0.57428 0.38638 0.0
C4627 C 0.10245 0.55369 0.33895 0.0
C4628 C 0.09077 0.53506 0.37399 0.0
C4629 C 0.11053 0.55151 0.32593 0.0
C4630 C 0.06029 0.54373 0.42933 0.0
C4631 C 0.07029 0.54414 0.41754 0.0
C4632 C 0.08251 0.56325 0.38295 0.0
C4633 C 0.10556 0.54705 0.35273 0.0
C4634 C 0.09611 0.54829 0.36609 0.0
C4635 C 0.06715 0.55064 0.40371 0.0
C4636 C 0.0772 0.54999 0.39081 0.0
H4637 H 0.13405 0.52958 0.34105 0.0
H4638 H 0.12008 0.53355 0.36393 0.0
H4639 H 0.09602 0.57286 0.36496 0.0
H4640 H 0.0337 0.56139 0.41218 0.0
H4641 H 0.05131 0.56213 0.39144 0.0
C4642 C 0.75222 0.84574 0.61224 0.0
C4643 C 0.76142 0.84068 0.6011 0.0
C4644 C 0.75229 0.8407 0.62719 0.0
C4645 C 0.76271 0.80966 0.64927 0.0
H4646 H 0.75934 0.83809 0.68581 0.0
C4647 C 0.75474 0.78728 0.7094 0.0
C4648 C 0.76281 0.79734 0.72302 0.0
C4649 C 0.75394 0.79299 0.69483 0.0
C4650 C 0.76045 0.83004 0.67578 0.0
H4651 H 0.77791 0.82624 0.59713 0.0
H4652 H 0.77857 0.81804 0.62334 0.0
H4653 H 0.76002 0.84734 0.66001 0.0
H4654 H 0.77609 0.8214 0.73209 0.0
H4655 H 0.77512 0.83133 0.70656 0.0
H4656 H 0.76384 0.79259 0.66506 0.0
C4657 C 0.77099 0.82563 0.62041 0.0
C4658 C 0.76061 0.83527 0.66089 0.0
C4659 C 0.77079 0.83054 0.6054 0.0
C4660 C 0.76972 0.81338 0.72182 0.0
C4661 C 0.76911 0.81907 0.70716 0.0
C4662 C 0.76272 0.80449 0.66414 0.0
C4663 C 0.76169 0.83059 0.6315 0.0
C4664 C 0.76169 0.82513 0.64742 0.0
C4665 C 0.7614 0.80888 0.69342 0.0
C4666 C 0.76149 0.81456 0.6776 0.0
H4667 H 0.74506 0.85377 0.60951 0.0
H4668 H 0.74481 0.84463 0.63529 0.0
H4669 H 0.76334 0.80141 0.63919 0.0
H4670 H 0.74911 0.7749 0.70995 0.0
H4671 H 0.74752 0.78488 0.68463 0.0
C4672 C 0.69182 0.45716 0.50349 0.0
C4673 C 0.70746 0.45993 0.51064 0.0
C4674 C 0.68417 0.46936 0.50414 0.0
C4675 C 0.68556 0.5069 0.52831 0.0
H4676 H 0.65374 0.50933 0.4949 0.0
C4677 C 0.63356 0.53355 0.53949 0.0
C4678 C 0.62709 0.54079 0.52763 0.0
C4679 C 0.64617 0.52691 0.53695 0.0
C4680 C 0.6628 0.50907 0.50425 0.0
H4681 H 0.72773 0.47774 0.52329 0.0
H4682 H 0.71448 0.49915 0.52423 0.0
H4683 H 0.67058 0.49145 0.49027 0.0
H4684 H 0.62942 0.54777 0.50424 0.0
H4685 H 0.65166 0.5363 0.49984 0.0
H4686 H 0.67775 0.5245 0.54229 0.0
C4687 C 0.70796 0.48748 0.51847 0.0
C4688 C 0.67229 0.49863 0.50166 0.0
C4689 C 0.71554 0.47524 0.51794 0.0
C4690 C 0.63407 0.54206 0.51351 0.0
C4691 C 0.64675 0.53547 0.51098 0.0
C4692 C 0.67613 0.5174 0.53086 0.0
C4693 C 0.69209 0.48461 0.51183 0.0
C4694 C 0.68347 0.49711 0.5138 0.0
C4695 C 0.65264 0.52743 0.5225 0.0
C4696 C 0.66434 0.51827 0.51902 0.0
H4697 H 0.68531 0.44542 0.49787 0.0
H4698 H 0.67187 0.46667 0.49912 0.0
H4699 H 0.69397 0.50596 0.53796 0.0
H4700 H 0.62829 0.5322 0.55041 0.0
H4701 H 0.65025 0.52059 0.54599 0.0
C4702 C 0.18141 0.13134 0.50126 0.0
C4703 C 0.19464 0.1253 0.50438 0.0
C4704 C 0.16607 0.12197 0.50171 0.0
C4705 C 0.14241 0.08044 0.50074 0.0
H4706 H 0.11289 0.10066 0.52024 0.0
C4707 C 0.08098 0.04563 0.51554 0.0
C4708 C 0.06816 0.05224 0.51218 0.0
C4709 C 0.09651 0.0541 0.5142 0.0
C4710 C 0.12094 0.09487 0.51462 0.0
H4711 H 0.20215 0.10463 0.51025 0.0
H4712 H 0.17531 0.08825 0.51117 0.0
H4713 H 0.13978 0.11617 0.51855 0.0
H4714 H 0.06164 0.07285 0.50455 0.0
H4715 H 0.08866 0.08753 0.5022 0.0
H4716 H 0.1235 0.05908 0.49696 0.0
C4717 C 0.1768 0.10018 0.50816 0.0
C4718 C 0.13635 0.10377 0.51362 0.0
C4719 C 0.19217 0.10955 0.50764 0.0
C4720 C 0.07121 0.06741 0.50729 0.0
C4721 C 0.08672 0.07588 0.50602 0.0
C4722 C 0.12698 0.07152 0.5018 0.0
C4723 C 0.16358 0.10634 0.50536 0.0
C4724 C 0.14725 0.0967 0.50657 0.0
C4725 C 0.09955 0.06938 0.50956 0.0
C4726 C 0.11605 0.07867 0.50866 0.0
H4727 H 0.18292 0.14334 0.49843 0.0
H4728 H 0.15614 0.12698 0.49915 0.0
H4729 H 0.15046 0.07467 0.49509 0.0
H4730 H 0.07905 0.03397 0.51932 0.0
H4731 H 0.10618 0.04883 0.51712 0.0
C4732 C 0.15787 0.94389 0.77918 0.0
C4733 C 0.16213 0.95752 0.77158 0.0
C4734 C 0.16715 0.93301 0.779 0.0
C4735 C 0.19844 0.92086 0.75783 0.0
H4736 H 0.20464 0.90016 0.79485 0.0
C4737 C 0.24547 0.88555 0.76479 0.0
C4738 C 0.24036 0.8704 0.76954 0.0
C4739 C 0.23583 0.89607 0.76542 0.0
C4740 C 0.20291 0.90578 0.7844 0.0
H4741 H 0.17961 0.97062 0.75817 0.0
H4742 H 0.196 0.9519 0.75815 0.0
H4743 H 0.18799 0.91874 0.79512 0.0
H4744 H 0.22108 0.85461 0.7789 0.0
H4745 H 0.20446 0.87319 0.78035 0.0
H4746 H 0.21366 0.90813 0.74727 0.0
C4747 C 0.18526 0.94932 0.76387 0.0
C4748 C 0.19332 0.91638 0.78451 0.0
C4749 C 0.1759 0.96009 0.7639 0.0
C4750 C 0.22552 0.86623 0.77535 0.0
C4751 C 0.21595 0.87685 0.77613 0.0
C4752 C 0.20815 0.91041 0.7578 0.0
C4753 C 0.18099 0.93559 0.77137 0.0
C4754 C 0.19099 0.9241 0.77123 0.0
C4755 C 0.22093 0.89179 0.77098 0.0
C4756 C 0.21052 0.90279 0.77108 0.0
H4757 H 0.14722 0.94154 0.78506 0.0
H4758 H 0.16333 0.92246 0.78468 0.0
H4759 H 0.19666 0.92629 0.74726 0.0
H4760 H 0.25695 0.88933 0.76058 0.0
H4761 H 0.24008 0.90762 0.76161 0.0
C4762 C 0.34914 0.9673 0.01119 0.0
C4763 C 0.34469 0.9518 0.01519 0.0
C4764 C 0.36505 0.97591 0.01345 0.0
C4765 C 0.40401 0.97785 0.0349 0.0
H4766 H 0.42079 0.99814 -0.00034 0.0
C4767 C 0.47077 0.99616 0.02893 0.0
C4768 C 0.4769 0.01028 0.02263 0.0
C4769 C 0.45446 0.99051 0.02932 0.0
C4770 C 0.41625 0.99279 0.00972 0.0
H4771 H 0.35343 0.93321 0.0248 0.0
H4772 H 0.38119 0.94829 0.02883 0.0
H4773 H 0.39245 0.98568 0.99817 0.0
H4774 H 0.47075 0.02979 0.01216 0.0
H4775 H 0.44227 0.01998 0.013 0.0
H4776 H 0.42785 0.98478 0.04637 0.0
C4777 C 0.37234 0.95384 0.02412 0.0
C4778 C 0.40003 0.98564 0.00885 0.0
C4779 C 0.35644 0.94521 0.0218 0.0
C4780 C 0.4664 0.0188 0.01699 0.0
C4781 C 0.45008 0.01316 0.01741 0.0
C4782 C 0.42023 0.98505 0.03579 0.0
C4783 C 0.37681 0.96921 0.01982 0.0
C4784 C 0.39379 0.97789 0.02133 0.0
C4785 C 0.44393 0.99889 0.02347 0.0
C4786 C 0.42656 0.99238 0.0231 0.0
H4787 H 0.34032 0.9728 0.00634 0.0
H4788 H 0.36816 0.98782 0.01022 0.0
H4789 H 0.39946 0.97216 0.04478 0.0
H4790 H 0.47853 0.98931 0.0334 0.0
H4791 H 0.45008 0.97936 0.03386 0.0
C4792 C 0.84707 0.61188 0.76706 0.0
C4793 C 0.84506 0.6003 0.7774 0.0
C4794 C 0.83601 0.62074 0.76517 0.0
C4795 C 0.80515 0.63509 0.78254 0.0
H4796 H 0.78655 0.63197 0.73917 0.0
C4797 C 0.75619 0.66593 0.76669 0.0
C4798 C 0.75822 0.67419 0.75352 0.0
C4799 C 0.76498 0.65502 0.76955 0.0
C4800 C 0.7917 0.63307 0.75132 0.0
H4801 H 0.83032 0.58961 0.79457 0.0
H4802 H 0.81135 0.60561 0.79164 0.0
H4803 H 0.80695 0.61828 0.74528 0.0
H4804 H 0.77065 0.67727 0.73282 0.0
H4805 H 0.78612 0.65855 0.73788 0.0
H4806 H 0.79045 0.65043 0.78857 0.0
C4807 C 0.82142 0.60761 0.78491 0.0
C4808 C 0.80335 0.62524 0.75479 0.0
C4809 C 0.83235 0.59856 0.78663 0.0
C4810 C 0.76863 0.67086 0.7429 0.0
C4811 C 0.77751 0.6601 0.74583 0.0
C4812 C 0.79365 0.64316 0.77904 0.0
C4813 C 0.82291 0.61838 0.77379 0.0
C4814 C 0.8103 0.62637 0.77038 0.0
C4815 C 0.77606 0.65232 0.75937 0.0
C4816 C 0.78696 0.64241 0.76335 0.0
H4817 H 0.85692 0.61376 0.76004 0.0
H4818 H 0.83749 0.62921 0.75671 0.0
H4819 H 0.81038 0.63607 0.79466 0.0
H4820 H 0.74814 0.66825 0.77499 0.0
H4821 H 0.76337 0.64899 0.77993 0.0
C4822 C 0.85176 0.63642 0.02825 0.0
C4823 C 0.84165 0.63523 0.01423 0.0
C4824 C 0.86258 0.62712 0.02922 0.0
C4825 C 0.88432 0.60462 0.00509 0.0
H4826 H 0.88693 0.58218 0.04149 0.0
C4827 C 0.91931 0.557 0.00725 0.0
C4828 C 0.92767 0.55613 0.02174 0.0
C4829 C 0.90899 0.56683 0.00643 0.0
C4830 C 0.88655 0.58854 0.03135 0.0
H4831 H 0.83506 0.62322 0.99023 0.0
H4832 H 0.85418 0.60729 0.99187 0.0
H4833 H 0.86895 0.59934 0.03992 0.0
H4834 H 0.932 0.56506 0.04669 0.0
H4835 H 0.91424 0.58245 0.04525 0.0
H4836 H 0.90204 0.59404 0.99657 0.0
C4837 C 0.85375 0.61549 0.00207 0.0
C4838 C 0.8762 0.59834 0.03044 0.0
C4839 C 0.84283 0.62468 0.00113 0.0
C4840 C 0.92554 0.56533 0.03539 0.0
C4841 C 0.91532 0.57527 0.03455 0.0
C4842 C 0.89477 0.59493 0.00605 0.0
C4843 C 0.86366 0.61653 0.01615 0.0
C4844 C 0.87493 0.60642 0.01727 0.0
C4845 C 0.9069 0.57614 0.02006 0.0
C4846 C 0.89596 0.58669 0.01915 0.0
H4847 H 0.85141 0.64462 0.03848 0.0
H4848 H 0.87023 0.62833 0.04017 0.0
H4849 H 0.88373 0.61087 0.99488 0.0
H4850 H 0.92057 0.5499 0.99656 0.0
H4851 H 0.90249 0.56696 0.99512 0.0
C4852 C 0.19016 0.1085 0.78451 0.0
C4853 C 0.17483 0.10364 0.77616 0.0
C4854 C 0.19997 0.12361 0.78382 0.0
C4855 C 0.20538 0.15654 0.75946 0.0
H4856 H 0.22968 0.18203 0.79745 0.0
C4857 C 0.23228 0.22355 0.76238 0.0
C4858 C 0.24773 0.2301 0.77013 0.0
C4859 C 0.22438 0.20779 0.76313 0.0
C4860 C 0.22313 0.17497 0.7867 0.0
H4861 H 0.15765 0.11102 0.7609 0.0
H4862 H 0.17471 0.13728 0.75969 0.0
H4863 H 0.21399 0.15504 0.79876 0.0
H4864 H 0.26693 0.22519 0.78488 0.0
H4865 H 0.25304 0.19755 0.78617 0.0
H4866 H 0.21431 0.17649 0.74744 0.0
C4867 C 0.17929 0.12932 0.76651 0.0
C4868 C 0.21415 0.15951 0.78745 0.0
C4869 C 0.16951 0.11426 0.76721 0.0
C4870 C 0.25505 0.22051 0.77876 0.0
C4871 C 0.24708 0.20471 0.77956 0.0
C4872 C 0.21431 0.17196 0.75872 0.0
C4873 C 0.19466 0.13416 0.77475 0.0
C4874 C 0.20499 0.15021 0.77387 0.0
C4875 C 0.23169 0.19818 0.77168 0.0
C4876 C 0.22311 0.18143 0.77237 0.0
H4877 H 0.19466 0.10053 0.79139 0.0
H4878 H 0.21181 0.12693 0.79017 0.0
H4879 H 0.19873 0.14956 0.74872 0.0
H4880 H 0.22623 0.23058 0.75567 0.0
H4881 H 0.21243 0.20319 0.75715 0.0
C4882 C 0.3111 0.94121 0.23741 0.0
C4883 C 0.30663 0.9536 0.24609 0.0
C4884 C 0.30136 0.92581 0.23527 0.0
C4885 C 0.27831 0.90133 0.25888 0.0
H4886 H 0.27188 0.86903 0.22274 0.0
C4887 C 0.26864 0.83575 0.26741 0.0
C4888 C 0.27664 0.82708 0.2579 0.0
C4889 C 0.2672 0.85056 0.26396 0.0
C4890 C 0.27365 0.87789 0.23297 0.0
H4891 H 0.28742 0.9596 0.25775 0.0
H4892 H 0.27089 0.93234 0.25485 0.0
H4893 H 0.27749 0.89698 0.21883 0.0
H4894 H 0.2893 0.82692 0.23731 0.0
H4895 H 0.28772 0.85317 0.23183 0.0
H4896 H 0.27609 0.88268 0.27324 0.0
C4897 C 0.28193 0.93478 0.24962 0.0
C4898 C 0.27662 0.89384 0.23067 0.0
C4899 C 0.29153 0.95033 0.25145 0.0
C4900 C 0.28313 0.83341 0.24486 0.0
C4901 C 0.28199 0.84837 0.2416 0.0
C4902 C 0.27564 0.88544 0.26122 0.0
C4903 C 0.28707 0.92235 0.242 0.0
C4904 C 0.27955 0.90569 0.24367 0.0
C4905 C 0.27401 0.85716 0.25112 0.0
C4906 C 0.27391 0.87357 0.24834 0.0
H4907 H 0.32266 0.94302 0.23326 0.0
H4908 H 0.30569 0.91637 0.22953 0.0
H4909 H 0.28076 0.91028 0.26912 0.0
H4910 H 0.26321 0.83096 0.27735 0.0
H4911 H 0.26072 0.8568 0.27138 0.0
C4912 C 0.55083 0.37967 0.57607 0.0
C4913 C 0.54005 0.36529 0.56927 0.0
C4914 C 0.55005 0.39407 0.57073 0.0
C4915 C 0.53444 0.41105 0.53667 0.0
H4916 H 0.53929 0.44806 0.56744 0.0
C4917 C 0.52034 0.46882 0.51948 0.0
C4918 C 0.52967 0.4835 0.52735 0.0
C4919 C 0.52217 0.4545 0.52426 0.0
C4920 C 0.53814 0.43794 0.55863 0.0
H4921 H 0.52019 0.35487 0.55121 0.0
H4922 H 0.51877 0.37994 0.54197 0.0
H4923 H 0.54151 0.42311 0.5763 0.0
H4924 H 0.54851 0.49449 0.54629 0.0
H4925 H 0.55192 0.4696 0.55441 0.0
H4926 H 0.53114 0.42587 0.51899 0.0
C4927 C 0.52788 0.38009 0.55142 0.0
C4928 C 0.53939 0.42357 0.56374 0.0
C4929 C 0.5286 0.3657 0.55684 0.0
C4930 C 0.54106 0.48344 0.53998 0.0
C4931 C 0.54293 0.46912 0.54472 0.0
C4932 C 0.53327 0.42544 0.53155 0.0
C4933 C 0.53854 0.3945 0.55835 0.0
C4934 C 0.5375 0.4099 0.55285 0.0
C4935 C 0.53343 0.45442 0.53703 0.0
C4936 C 0.53503 0.43911 0.54245 0.0
H4937 H 0.55972 0.37987 0.58577 0.0
H4938 H 0.55856 0.40488 0.57626 0.0
H4939 H 0.53315 0.40085 0.52791 0.0
H4940 H 0.51138 0.46835 0.50976 0.0
H4941 H 0.51446 0.44349 0.51815 0.0
C4942 C 0.4107 0.77057 0.37955 0.0
C4943 C 0.42209 0.76407 0.37265 0.0
C4944 C 0.39763 0.77274 0.37029 0.0
C4945 C 0.38218 0.77387 0.32834 0.0
H4946 H 0.3429 0.77171 0.34665 0.0
C4947 C 0.32888 0.78951 0.29457 0.0
C4948 C 0.31348 0.7813 0.29694 0.0
C4949 C 0.34217 0.78779 0.30392 0.0
C4950 C 0.35366 0.77216 0.34118 0.0
H4951 H 0.42823 0.75455 0.35034 0.0
H4952 H 0.40497 0.75732 0.33443 0.0
H4953 H 0.36524 0.7668 0.36208 0.0
H4954 H 0.29997 0.76459 0.31078 0.0
H4955 H 0.32293 0.76104 0.3265 0.0
H4956 H 0.37024 0.77827 0.30709 0.0
C4957 C 0.40644 0.76131 0.34698 0.0
C4958 C 0.36669 0.76962 0.35022 0.0
C4959 C 0.41971 0.75942 0.35621 0.0
C4960 C 0.31166 0.7713 0.3088 0.0
C4961 C 0.32491 0.76933 0.31792 0.0
C4962 C 0.36903 0.77611 0.31918 0.0
C4963 C 0.39524 0.76813 0.35385 0.0
C4964 C 0.3812 0.77052 0.34399 0.0
C4965 C 0.3404 0.77756 0.31567 0.0
C4966 C 0.35456 0.77533 0.32546 0.0
H4967 H 0.41181 0.77402 0.39217 0.0
H4968 H 0.38952 0.77827 0.37612 0.0
H4969 H 0.39315 0.77494 0.32311 0.0
H4970 H 0.33068 0.79735 0.28554 0.0
H4971 H 0.35381 0.7946 0.30196 0.0
C4972 C 0.04826 0.70134 0.05908 0.0
C4973 C 0.03478 0.70677 0.06183 0.0
C4974 C 0.04672 0.68544 0.05325 0.0
C4975 C 0.02064 0.64569 0.05278 0.0
H4976 H 0.04321 0.63319 0.01879 0.0
C4977 C 0.01078 0.57963 0.02873 0.0
C4978 C 0.02362 0.57442 0.02347 0.0
C4979 C 0.01197 0.59582 0.03249 0.0
C4980 C 0.037 0.63641 0.02846 0.0
H4981 H 0.00911 0.69977 0.06047 0.0
H4982 H 0.00644 0.67193 0.05049 0.0
H4983 H 0.0457 0.66129 0.0269 0.0
H4984 H 0.04781 0.58223 0.01801 0.0
H4985 H 0.05018 0.61045 0.02518 0.0
H4986 H 0.01238 0.62104 0.05489 0.0
C4987 C 0.01819 0.68002 0.05278 0.0
C4988 C 0.03837 0.65256 0.03304 0.0
C4989 C 0.01971 0.69598 0.05836 0.0
C4990 C 0.03767 0.58584 0.02195 0.0
C4991 C 0.03897 0.60207 0.02599 0.0
C4992 C 0.01946 0.62958 0.04839 0.0
C4993 C 0.03169 0.67453 0.05029 0.0
C4994 C 0.03014 0.65738 0.04521 0.0
C4995 C 0.02615 0.60733 0.0314 0.0
C4996 C 0.02755 0.62464 0.0361 0.0
H4997 H 0.06003 0.70938 0.06157 0.0
H4998 H 0.05735 0.68156 0.05153 0.0
H4999 H 0.01436 0.64903 0.06237 0.0
H5000 H 0.99969 0.57116 0.02981 0.0
H5001 H 0.00165 0.59926 0.03617 0.0
C5002 C 0.06701 0.27473 0.85958 0.0
C5003 C 0.06633 0.26679 0.87304 0.0
C5004 C 0.07986 0.27593 0.85072 0.0
C5005 C 0.11367 0.25838 0.84344 0.0
H5006 H 0.12941 0.29726 0.82549 0.0
C5007 C 0.16145 0.26443 0.79996 0.0
C5008 C 0.17271 0.27915 0.80092 0.0
C5009 C 0.14855 0.26269 0.80883 0.0
C5010 C 0.1253 0.28636 0.83053 0.0
H5011 H 0.07877 0.25405 0.88782 0.0
H5012 H 0.10127 0.25632 0.87254 0.0
H5013 H 0.10715 0.29483 0.84096 0.0
H5014 H 0.17951 0.30345 0.81239 0.0
H5015 H 0.15725 0.3004 0.828 0.0
H5016 H 0.13217 0.25012 0.8334 0.0
C5017 C 0.09172 0.26134 0.86859 0.0
C5018 C 0.11233 0.28487 0.83925 0.0
C5019 C 0.07881 0.26005 0.8774 0.0
C5020 C 0.1709 0.29202 0.81116 0.0
C5021 C 0.15808 0.29026 0.82009 0.0
C5022 C 0.1267 0.2599 0.83478 0.0
C5023 C 0.09245 0.26932 0.85513 0.0
C5024 C 0.10631 0.27086 0.84582 0.0
C5025 C 0.14664 0.27562 0.81896 0.0
C5026 C 0.13272 0.27392 0.8282 0.0
H5027 H 0.05749 0.27985 0.85575 0.0
H5028 H 0.07981 0.28189 0.84028 0.0
H5029 H 0.10928 0.24733 0.84815 0.0
H5030 H 0.16241 0.25432 0.79207 0.0
H5031 H 0.1399 0.25129 0.80746 0.0
C5032 C 0.53151 0.73145 0.92865 0.0
C5033 C 0.53112 0.72895 0.91213 0.0
C5034 C 0.53082 0.71888 0.93759 0.0
C5035 C 0.53671 0.6783 0.93616 0.0
H5036 H 0.5113 0.67545 0.9711 0.0
C5037 C 0.52214 0.62274 0.96889 0.0
C5038 C 0.52231 0.62524 0.9854 0.0
C5039 C 0.5237 0.63544 0.96 0.0
C5040 C 0.5186 0.67616 0.9615 0.0
H5041 H 0.52955 0.71117 0.89208 0.0
H5042 H 0.52829 0.68925 0.90766 0.0
H5043 H 0.51303 0.69741 0.95554 0.0
H5044 H 0.52477 0.64322 0.00549 0.0
H5045 H 0.52744 0.66532 0.98999 0.0
H5046 H 0.54219 0.65697 0.94209 0.0
C5047 C 0.52939 0.70099 0.91374 0.0
C5048 C 0.51961 0.68877 0.95257 0.0
C5049 C 0.53011 0.71357 0.90479 0.0
C5050 C 0.5243 0.64081 0.99278 0.0
C5051 C 0.52583 0.65349 0.98389 0.0
C5052 C 0.53569 0.66566 0.94508 0.0
C5053 C 0.52969 0.70346 0.93026 0.0
C5054 C 0.52868 0.69002 0.93978 0.0
C5055 C 0.52545 0.65097 0.96737 0.0
C5056 C 0.52663 0.66444 0.95788 0.0
H5057 H 0.53254 0.74318 0.93471 0.0
H5058 H 0.53136 0.72129 0.9503 0.0
H5059 H 0.544 0.679 0.92654 0.0
H5060 H 0.5204 0.6109 0.96277 0.0
H5061 H 0.52315 0.63303 0.94728 0.0
C5062 C 0.09627 0.7677 0.72864 0.0
C5063 C 0.08948 0.76053 0.71327 0.0
C5064 C 0.11215 0.76862 0.73386 0.0
C5065 C 0.1443 0.74968 0.72808 0.0
H5066 H 0.17271 0.79073 0.74441 0.0
C5067 C 0.21229 0.75801 0.74141 0.0
C5068 C 0.2208 0.76988 0.75352 0.0
C5069 C 0.19618 0.75659 0.73668 0.0
C5070 C 0.16496 0.77908 0.7402 0.0
H5071 H 0.0946 0.74895 0.69137 0.0
H5072 H 0.12187 0.74991 0.70083 0.0
H5073 H 0.14477 0.78859 0.73654 0.0
H5074 H 0.21893 0.78916 0.7706 0.0
H5075 H 0.19089 0.78623 0.76302 0.0
H5076 H 0.16419 0.73997 0.73218 0.0
C5077 C 0.11482 0.75481 0.70876 0.0
C5078 C 0.14892 0.77791 0.7356 0.0
C5079 C 0.09908 0.75418 0.70341 0.0
C5080 C 0.21277 0.78003 0.76106 0.0
C5081 C 0.19664 0.7784 0.75658 0.0
C5082 C 0.16028 0.75077 0.733 0.0
C5083 C 0.12156 0.76213 0.72399 0.0
C5084 C 0.13845 0.76323 0.7294 0.0
C5085 C 0.18809 0.7668 0.74418 0.0
C5086 C 0.17092 0.76551 0.73907 0.0
H5087 H 0.08932 0.7725 0.73674 0.0
H5088 H 0.11703 0.77424 0.74572 0.0
H5089 H 0.13644 0.73817 0.72344 0.0
H5090 H 0.21817 0.75007 0.73532 0.0
H5091 H 0.19021 0.74767 0.72692 0.0
C5092 C 0.03572 0.38915 0.40616 0.0
C5093 C 0.03911 0.37633 0.41312 0.0
C5094 C 0.03454 0.40278 0.41549 0.0
C5095 C 0.02869 0.41711 0.45647 0.0
H5096 H 0.0423 0.45862 0.44273 0.0
C5097 C 0.03396 0.47537 0.49719 0.0
C5098 C 0.0274 0.48679 0.4908 0.0
C5099 C 0.0354 0.46206 0.48755 0.0
C5100 C 0.03833 0.44708 0.44665 0.0
H5101 H 0.04407 0.36806 0.43555 0.0
H5102 H 0.04277 0.39202 0.45174 0.0
H5103 H 0.04534 0.43528 0.42646 0.0
H5104 H 0.0174 0.49324 0.46916 0.0
H5105 H 0.02014 0.47004 0.45227 0.0
H5106 H 0.02203 0.42905 0.47684 0.0
C5107 C 0.04061 0.3914 0.43903 0.0
C5108 C 0.04003 0.43367 0.43731 0.0
C5109 C 0.04162 0.3777 0.4297 0.0
C5110 C 0.02246 0.48466 0.47448 0.0
C5111 C 0.02411 0.47142 0.46478 0.0
C5112 C 0.02718 0.43054 0.46588 0.0
C5113 C 0.03688 0.40408 0.43208 0.0
C5114 C 0.03522 0.41847 0.44207 0.0
C5115 C 0.0305 0.45993 0.47124 0.0
C5116 C 0.03198 0.44567 0.46109 0.0
H5117 H 0.03395 0.3887 0.39344 0.0
H5118 H 0.0315 0.41217 0.40965 0.0
H5119 H 0.02451 0.40563 0.46041 0.0
H5120 H 0.03786 0.47662 0.50971 0.0
H5121 H 0.04051 0.45349 0.49284 0.0
C5122 C 0.42441 0.26785 0.20751 0.0
C5123 C 0.43272 0.25709 0.21263 0.0
C5124 C 0.4096 0.26801 0.2124 0.0
C5125 C 0.38262 0.25409 0.2425 0.0
H5126 H 0.35181 0.26537 0.21366 0.0
C5127 C 0.31752 0.25256 0.25512 0.0
C5128 C 0.31306 0.26657 0.2528 0.0
C5129 C 0.33174 0.25016 0.25017 0.0
C5130 C 0.3603 0.26222 0.22186 0.0
H5131 H 0.43169 0.2381 0.22718 0.0
H5132 H 0.40562 0.23791 0.2351 0.0
H5133 H 0.3771 0.26336 0.20511 0.0
H5134 H 0.31994 0.2889 0.24318 0.0
H5135 H 0.34436 0.28455 0.23433 0.0
H5136 H 0.36547 0.25271 0.25913 0.0
C5137 C 0.41073 0.24649 0.22754 0.0
C5138 C 0.3749 0.26117 0.21702 0.0
C5139 C 0.42566 0.24645 0.22278 0.0
C5140 C 0.323 0.27798 0.24523 0.0
C5141 C 0.33698 0.27546 0.24006 0.0
C5142 C 0.36788 0.25492 0.24727 0.0
C5143 C 0.40244 0.25726 0.22239 0.0
C5144 C 0.38644 0.25738 0.22735 0.0
C5145 C 0.34157 0.26158 0.2425 0.0
C5146 C 0.35666 0.25927 0.23709 0.0
H5147 H 0.42919 0.27607 0.19949 0.0
H5148 H 0.40384 0.27671 0.20837 0.0
H5149 H 0.39118 0.25131 0.2509 0.0
H5150 H 0.31016 0.24356 0.26095 0.0
H5151 H 0.33495 0.23931 0.25217 0.0
C5152 C 0.59217 0.5118 0.36341 0.0
C5153 C 0.5821 0.5138 0.3505 0.0
C5154 C 0.5875 0.51235 0.37861 0.0
C5155 C 0.55921 0.52699 0.40212 0.0
H5156 H 0.56922 0.49911 0.4315 0.0
C5157 C 0.52958 0.5195 0.45886 0.0
C5158 C 0.53931 0.51997 0.47295 0.0
C5159 C 0.53553 0.51865 0.44432 0.0
C5160 C 0.5665 0.50708 0.42347 0.0
H5161 H 0.55902 0.51738 0.34334 0.0
H5162 H 0.55073 0.51805 0.36974 0.0
H5163 H 0.57794 0.49748 0.40518 0.0
H5164 H 0.56291 0.5196 0.48273 0.0
H5165 H 0.57331 0.51799 0.45714 0.0
H5166 H 0.54753 0.53637 0.42027 0.0
C5167 C 0.56242 0.51648 0.36824 0.0
C5168 C 0.57149 0.50617 0.40839 0.0
C5169 C 0.56713 0.51603 0.35308 0.0
C5170 C 0.55511 0.51928 0.47211 0.0
C5171 C 0.56105 0.5183 0.45747 0.0
C5172 C 0.55414 0.52781 0.4171 0.0
C5173 C 0.57261 0.51484 0.38124 0.0
C5174 C 0.56776 0.51601 0.39747 0.0
C5175 C 0.55135 0.51817 0.44345 0.0
C5176 C 0.55758 0.51777 0.42789 0.0
H5177 H 0.60386 0.51025 0.36182 0.0
H5178 H 0.59573 0.51124 0.38835 0.0
H5179 H 0.55646 0.53504 0.3942 0.0
H5180 H 0.51734 0.51997 0.45901 0.0
H5181 H 0.5277 0.51833 0.43371 0.0
C5182 C 0.25545 0.86719 0.08833 0.0
C5183 C 0.24534 0.86143 0.07423 0.0
C5184 C 0.2557 0.85762 0.10026 0.0
C5185 C 0.24965 0.81603 0.10513 0.0
H5186 H 0.25948 0.83354 0.14936 0.0
C5187 C 0.2678 0.78431 0.15849 0.0
C5188 C 0.28201 0.79335 0.16744 0.0
C5189 C 0.26064 0.79058 0.14633 0.0
C5190 C 0.25662 0.82848 0.13705 0.0
H5191 H 0.227 0.84154 0.06171 0.0
H5192 H 0.22741 0.82463 0.08275 0.0
H5193 H 0.24968 0.84879 0.13039 0.0
H5194 H 0.30056 0.81535 0.16982 0.0
H5195 H 0.2879 0.82635 0.14883 0.0
H5196 H 0.25704 0.79583 0.11194 0.0
C5197 C 0.23517 0.83655 0.0845 0.0
C5198 C 0.25103 0.83717 0.12622 0.0
C5199 C 0.23484 0.84623 0.07255 0.0
C5200 C 0.28945 0.80826 0.16334 0.0
C5201 C 0.28223 0.81456 0.15136 0.0
C5202 C 0.25512 0.80723 0.11605 0.0
C5203 C 0.24587 0.84205 0.09831 0.0
C5204 C 0.24815 0.83135 0.11006 0.0
C5205 C 0.26755 0.80598 0.14313 0.0
C5206 C 0.25924 0.81372 0.13196 0.0
H5207 H 0.2636 0.87891 0.08988 0.0
H5208 H 0.26424 0.86215 0.11065 0.0
H5209 H 0.24762 0.81128 0.09273 0.0
H5210 H 0.26176 0.77282 0.16146 0.0
H5211 H 0.24934 0.78377 0.14001 0.0
C5212 C 0.94137 0.52185 0.85117 0.0
C5213 C 0.92987 0.53051 0.85108 0.0
C5214 C 0.95148 0.52259 0.8649 0.0
C5215 C 0.96661 0.54664 0.9038 0.0
H5216 H 0.97521 0.50771 0.91526 0.0
C5217 C 0.98875 0.5388 0.96679 0.0
C5218 C 1.00068 0.53076 0.96863 0.0
C5219 C 0.98192 0.53983 0.95177 0.0
C5220 C 0.9731 0.51871 0.91208 0.0
H5221 H 0.91973 0.54656 0.86522 0.0
H5222 H 0.93715 0.54762 0.88931 0.0
H5223 H 0.9595 0.50726 0.89022 0.0
H5224 H 0.01504 0.51776 0.95621 0.0
H5225 H 0.0029 0.51945 0.92988 0.0
H5226 H 0.97978 0.55794 0.92598 0.0
C5227 C 0.93866 0.54057 0.8787 0.0
C5228 C 0.96412 0.51847 0.89775 0.0
C5229 C 0.92863 0.53991 0.86495 0.0
C5230 C 0.00586 0.52403 0.95515 0.0
C5231 C 0.99889 0.52493 0.94011 0.0
C5232 C 0.97548 0.54685 0.91819 0.0
C5233 C 0.95021 0.53193 0.87882 0.0
C5234 C 0.9606 0.53239 0.89355 0.0
C5235 C 0.98678 0.53274 0.93831 0.0
C5236 C 0.97862 0.53284 0.92253 0.0
H5237 H 0.9427 0.51469 0.84055 0.0
H5238 H 0.9604 0.51598 0.86455 0.0
H5239 H 0.96436 0.55763 0.90076 0.0
H5240 H 0.98455 0.54417 0.97696 0.0
H5241 H 0.97248 0.54578 0.9507 0.0
C5242 C 0.26199 0.23375 0.59153 0.0
C5243 C 0.27641 0.23178 0.5867 0.0
C5244 C 0.2613 0.24008 0.60704 0.0
C5245 C 0.28103 0.2424 0.64669 0.0
H5246 H 0.25877 0.27411 0.65865 0.0
C5247 C 0.28379 0.26687 0.7116 0.0
C5248 C 0.27004 0.26981 0.71717 0.0
C5249 C 0.28454 0.26364 0.69547 0.0
C5250 C 0.26486 0.2651 0.65551 0.0
H5251 H 0.30147 0.23532 0.59422 0.0
H5252 H 0.30025 0.2463 0.62132 0.0
H5253 H 0.2602 0.26619 0.63068 0.0
H5254 H 0.24642 0.27211 0.71019 0.0
H5255 H 0.24748 0.26588 0.68182 0.0
H5256 H 0.28529 0.24077 0.67126 0.0
C5257 C 0.28949 0.24294 0.61309 0.0
C5258 C 0.26574 0.26063 0.6395 0.0
C5259 C 0.29022 0.23678 0.59755 0.0
C5260 C 0.25717 0.26987 0.70621 0.0
C5261 C 0.25782 0.26637 0.68996 0.0
C5262 C 0.27999 0.24669 0.66262 0.0
C5263 C 0.27497 0.24438 0.61807 0.0
C5264 C 0.27397 0.24934 0.63496 0.0
C5265 C 0.27146 0.26296 0.68441 0.0
C5266 C 0.27205 0.25822 0.66729 0.0
H5267 H 0.25118 0.23012 0.58338 0.0
H5268 H 0.24994 0.24101 0.61057 0.0
H5269 H 0.28714 0.2334 0.64354 0.0
H5270 H 0.29406 0.26707 0.71974 0.0
H5271 H 0.29543 0.26161 0.69169 0.0
C5272 C 0.56527 0.53693 0.19239 0.0
C5273 C 0.56739 0.52236 0.19627 0.0
C5274 C 0.55828 0.53804 0.17739 0.0
C5275 C 0.53572 0.5135 0.14027 0.0
H5276 H 0.55454 0.55089 0.12119 0.0
C5277 C 0.53294 0.51516 0.07316 0.0
C5278 C 0.52922 0.52828 0.06714 0.0
C5279 C 0.53534 0.51485 0.08941 0.0
C5280 C 0.54901 0.54049 0.12644 0.0
H5281 H 0.56364 0.49749 0.18761 0.0
H5282 H 0.5519 0.49943 0.16131 0.0
H5283 H 0.56291 0.54949 0.14875 0.0
H5284 H 0.52497 0.55132 0.07346 0.0
H5285 H 0.52963 0.55094 0.10206 0.0
H5286 H 0.52244 0.50424 0.1176 0.0
C5287 C 0.5552 0.50997 0.16992 0.0
C5288 C 0.55375 0.53967 0.14227 0.0
C5289 C 0.562 0.50883 0.18499 0.0
C5290 C 0.52781 0.54105 0.07776 0.0
C5291 C 0.53052 0.54086 0.09409 0.0
C5292 C 0.53116 0.51424 0.12438 0.0
C5293 C 0.55343 0.52464 0.16583 0.0
C5294 C 0.54735 0.52606 0.14936 0.0
C5295 C 0.53432 0.52775 0.10005 0.0
C5296 C 0.53793 0.52764 0.11726 0.0
H5297 H 0.56916 0.54751 0.20095 0.0
H5298 H 0.55681 0.54946 0.17484 0.0
H5299 H 0.53024 0.50298 0.14537 0.0
H5300 H 0.53398 0.50508 0.06529 0.0
H5301 H 0.5384 0.50466 0.09368 0.0
C5302 C 0.25371 0.82961 0.92897 0.0
C5303 C 0.24086 0.83484 0.93419 0.0
C5304 C 0.25176 0.8196 0.91483 0.0
C5305 C 0.24334 0.79444 0.88619 0.0
H5306 H 0.22633 0.81278 0.8515 0.0
C5307 C 0.2467 0.7731 0.82082 0.0
C5308 C 0.2536 0.7855 0.81243 0.0
C5309 C 0.24176 0.77642 0.83555 0.0
C5310 C 0.23096 0.80744 0.86108 0.0
H5311 H 0.21561 0.83266 0.92917 0.0
H5312 H 0.21237 0.81551 0.90411 0.0
H5313 H 0.2235 0.82229 0.8786 0.0
H5314 H 0.26032 0.81106 0.81264 0.0
H5315 H 0.25166 0.81684 0.83835 0.0
H5316 H 0.25149 0.78015 0.86867 0.0
C5317 C 0.22392 0.81924 0.91104 0.0
C5318 C 0.2292 0.81275 0.87656 0.0
C5319 C 0.22582 0.82914 0.92531 0.0
C5320 C 0.25514 0.80126 0.81887 0.0
C5321 C 0.25003 0.80456 0.8335 0.0
C5322 C 0.24498 0.78903 0.87069 0.0
C5323 C 0.23698 0.81472 0.9055 0.0
C5324 C 0.23588 0.80669 0.88927 0.0
C5325 C 0.24344 0.79218 0.84203 0.0
C5326 C 0.2393 0.7959 0.85806 0.0
H5327 H 0.26551 0.83392 0.93534 0.0
H5328 H 0.26209 0.8165 0.91072 0.0
H5329 H 0.2485 0.78954 0.89581 0.0
H5330 H 0.24535 0.76082 0.81615 0.0
H5331 H 0.23668 0.76669 0.84191 0.0
C5332 C 0.94485 0.50729 0.71748 0.0
C5333 C 0.92989 0.50931 0.7122 0.0
C5334 C 0.95392 0.50152 0.70685 0.0
C5335 C 0.95156 0.47966 0.66735 0.0
H5336 H 0.9943 0.50583 0.66702 0.0
C5337 C 0.98336 0.48301 0.61196 0.0
C5338 C 1.00002 0.48693 0.61334 0.0
C5339 C 0.97545 0.48178 0.62537 0.0
C5340 C 0.98256 0.49809 0.66714 0.0
H5341 H 0.91271 0.50675 0.69161 0.0
H5342 H 0.92846 0.49649 0.67312 0.0
H5343 H 0.97907 0.51135 0.6883 0.0
H5344 H 0.02144 0.49152 0.62979 0.0
H5345 H 0.00758 0.48888 0.65321 0.0
H5346 H 0.9549 0.4666 0.64601 0.0
C5347 C 0.93307 0.49924 0.68552 0.0
C5348 C 0.97382 0.50133 0.67933 0.0
C5349 C 0.92408 0.50515 0.69611 0.0
C5350 C 0.00858 0.48847 0.62833 0.0
C5351 C 1.00065 0.48713 0.64176 0.0
C5352 C 0.96036 0.47631 0.65524 0.0
C5353 C 0.94812 0.49749 0.69078 0.0
C5354 C 0.95808 0.49247 0.67926 0.0
C5355 C 0.98403 0.48432 0.64047 0.0
C5356 C 0.97577 0.48584 0.65472 0.0
H5357 H 0.94953 0.51006 0.72986 0.0
H5358 H 0.96545 0.50018 0.71119 0.0
H5359 H 0.9395 0.47251 0.6672 0.0
H5360 H 0.97642 0.48144 0.60053 0.0
H5361 H 0.96265 0.47972 0.62391 0.0
C5362 C 0.29736 0.22869 0.42891 0.0
C5363 C 0.28445 0.21665 0.43196 0.0
C5364 C 0.29792 0.2337 0.41393 0.0
C5365 C 0.28136 0.22101 0.37204 0.0
H5366 H 0.2928 0.26603 0.36849 0.0
C5367 C 0.26833 0.24533 0.31378 0.0
C5368 C 0.27943 0.25858 0.30996 0.0
C5369 C 0.2702 0.23998 0.32845 0.0
C5370 C 0.28981 0.25341 0.36925 0.0
H5371 H 0.2622 0.20018 0.42157 0.0
H5372 H 0.26308 0.20902 0.39558 0.0
H5373 H 0.29387 0.25718 0.39453 0.0
H5374 H 0.30143 0.27641 0.31852 0.0
H5375 H 0.30479 0.26695 0.34406 0.0
H5376 H 0.2772 0.2172 0.3468 0.0
C5377 C 0.27282 0.21456 0.40471 0.0
C5378 C 0.29041 0.24834 0.38419 0.0
C5379 C 0.27222 0.20962 0.41967 0.0
C5380 C 0.29262 0.26619 0.32108 0.0
C5381 C 0.29449 0.26083 0.33577 0.0
C5382 C 0.2808 0.22606 0.35712 0.0
C5383 C 0.28564 0.22668 0.40166 0.0
C5384 C 0.28599 0.23208 0.38577 0.0
C5385 C 0.28325 0.24772 0.33968 0.0
C5386 C 0.28482 0.24233 0.35553 0.0
H5387 H 0.30693 0.23439 0.43815 0.0
H5388 H 0.30802 0.243 0.41192 0.0
H5389 H 0.27815 0.20839 0.37283 0.0
H5390 H 0.25802 0.23917 0.30553 0.0
H5391 H 0.26119 0.22998 0.33112 0.0
C5392 C 0.34242 0.59001 0.5058 0.0
C5393 C 0.33706 0.59462 0.52007 0.0
C5394 C 0.34948 0.5774 0.5045 0.0
C5395 C 0.37132 0.55574 0.5281 0.0
H5396 H 0.36229 0.52543 0.49003 0.0
C5397 C 0.40738 0.51009 0.51927 0.0
C5398 C 0.41363 0.50982 0.50473 0.0
C5399 C 0.39487 0.51701 0.5215 0.0
C5400 C 0.36491 0.5338 0.50074 0.0
H5401 H 0.33464 0.58946 0.54409 0.0
H5402 H 0.34725 0.56757 0.54187 0.0
H5403 H 0.3468 0.54493 0.49341 0.0
H5404 H 0.41113 0.51577 0.48087 0.0
H5405 H 0.38943 0.5279 0.48475 0.0
H5406 H 0.38984 0.54514 0.53518 0.0
C5407 C 0.34604 0.57379 0.53174 0.0
C5408 C 0.35608 0.54495 0.50265 0.0
C5409 C 0.33892 0.58637 0.53303 0.0
C5410 C 0.40645 0.51563 0.49215 0.0
C5411 C 0.39399 0.52259 0.49439 0.0
C5412 C 0.38019 0.54464 0.52616 0.0
C5413 C 0.35136 0.56918 0.51746 0.0
C5414 C 0.35946 0.55626 0.51618 0.0
C5415 C 0.38842 0.52383 0.50923 0.0
C5416 C 0.37733 0.53379 0.51229 0.0
H5417 H 0.34134 0.59627 0.49568 0.0
H5418 H 0.35376 0.57429 0.49344 0.0
H5419 H 0.37428 0.56442 0.53859 0.0
H5420 H 0.41256 0.50548 0.5291 0.0
H5421 H 0.39063 0.51755 0.53299 0.0
C5422 C 0.85045 0.95032 0.52839 0.0
C5423 C 0.84762 0.93489 0.5325 0.0
C5424 C 0.86598 0.95963 0.52873 0.0
C5425 C 0.90832 0.96174 0.54264 0.0
H5426 H 0.91665 0.98928 0.51005 0.0
C5427 C 0.9707 0.98821 0.52438 0.0
C5428 C 0.97488 0.00471 0.52414 0.0
C5429 C 0.95522 0.98026 0.52648 0.0
C5430 C 0.91444 0.98172 0.51928 0.0
H5431 H 0.85861 0.91701 0.54023 0.0
H5432 H 0.88575 0.93291 0.54021 0.0
H5433 H 0.88955 0.97426 0.51174 0.0
H5434 H 0.96617 0.02583 0.52576 0.0
H5435 H 0.93892 0.0118 0.52892 0.0
H5436 H 0.93348 0.96876 0.54957 0.0
C5437 C 0.87609 0.93814 0.53723 0.0
C5438 C 0.8989 0.97317 0.52035 0.0
C5439 C 0.86054 0.92897 0.53718 0.0
C5440 C 0.96328 0.01311 0.52595 0.0
C5441 C 0.94771 0.00511 0.5277 0.0
C5442 C 0.9239 0.97006 0.54135 0.0
C5443 C 0.87904 0.95357 0.53285 0.0
C5444 C 0.8956 0.96304 0.53204 0.0
C5445 C 0.94358 0.98863 0.52803 0.0
C5446 C 0.92708 0.98011 0.52966 0.0
H5447 H 0.84063 0.95516 0.52485 0.0
H5448 H 0.86771 0.97155 0.52566 0.0
H5449 H 0.90628 0.95433 0.55199 0.0
H5450 H 0.97942 0.98144 0.52311 0.0
H5451 H 0.95226 0.96753 0.5266 0.0
C5452 C 0.87331 0.10274 0.25444 0.0
C5453 C 0.87791 0.09634 0.26791 0.0
C5454 C 0.86409 0.11365 0.25547 0.0
C5455 C 0.83597 0.12671 0.27983 0.0
H5456 H 0.84458 0.16345 0.25727 0.0
C5457 C 0.80266 0.17553 0.28802 0.0
C5458 C 0.79822 0.18196 0.27451 0.0
C5459 C 0.81262 0.16532 0.28731 0.0
C5460 C 0.8419 0.15315 0.26349 0.0
H5461 H 0.87651 0.09644 0.29305 0.0
H5462 H 0.86055 0.11562 0.29488 0.0
H5463 H 0.86176 0.14542 0.256 0.0
H5464 H 0.80063 0.18255 0.24961 0.0
H5465 H 0.81791 0.16461 0.24833 0.0
H5466 H 0.81604 0.13431 0.28722 0.0
C5467 C 0.86398 0.1121 0.2835 0.0
C5468 C 0.85177 0.14284 0.26279 0.0
C5469 C 0.87326 0.10125 0.28248 0.0
C5470 C 0.80397 0.17794 0.26026 0.0
C5471 C 0.8139 0.16768 0.25954 0.0
C5472 C 0.82608 0.13699 0.28051 0.0
C5473 C 0.85921 0.11835 0.26998 0.0
C5474 C 0.84891 0.12949 0.27094 0.0
C5475 C 0.81835 0.16125 0.27307 0.0
C5476 C 0.82891 0.15033 0.27234 0.0
H5477 H 0.87684 0.09932 0.24307 0.0
H5478 H 0.86051 0.11814 0.24482 0.0
H5479 H 0.8333 0.11639 0.28604 0.0
H5480 H 0.79867 0.17862 0.29924 0.0
H5481 H 0.81602 0.16081 0.29802 0.0
C5482 C 0.70058 0.08764 0.01335 0.0
C5483 C 0.7094 0.0912 0.02838 0.0
C5484 C 0.68431 0.08029 0.01164 0.0
C5485 C 0.65062 0.07671 0.03466 0.0
H5486 H 0.62788 0.04468 0.00022 0.0
C5487 C 0.58506 0.0453 0.03415 0.0
C5488 C 0.57502 0.04313 0.01994 0.0
C5489 C 0.60146 0.05052 0.03442 0.0
C5490 C 0.63408 0.05375 0.00979 0.0
H5491 H 0.70842 0.08888 0.05322 0.0
H5492 H 0.68005 0.07594 0.05024 0.0
H5493 H 0.65686 0.05406 0.00224 0.0
H5494 H 0.57436 0.04459 0.99478 0.0
H5495 H 0.60322 0.05393 0.99531 0.0
H5496 H 0.62798 0.07653 0.04222 0.0
C5497 C 0.68562 0.07915 0.03983 0.0
C5498 C 0.65064 0.05908 0.01097 0.0
C5499 C 0.70184 0.08651 0.04153 0.0
C5500 C 0.58178 0.04619 0.00593 0.0
C5501 C 0.59828 0.05143 0.0062 0.0
C5502 C 0.63414 0.07142 0.03348 0.0
C5503 C 0.6766 0.07639 0.02493 0.0
C5504 C 0.65907 0.07051 0.02352 0.0
C5505 C 0.60825 0.05376 0.0205 0.0
C5506 C 0.6257 0.05978 0.02114 0.0
H5507 H 0.70607 0.09126 0.00301 0.0
H5508 H 0.67766 0.0784 3e-05 0.0
H5509 H 0.65673 0.08584 0.04422 0.0
H5510 H 0.58029 0.04295 0.04516 0.0
H5511 H 0.60884 0.05194 0.04557 0.0
C5512 C 0.21091 0.45922 0.25291 0.0
C5513 C 0.19794 0.45869 0.2616 0.0
C5514 C 0.22153 0.45018 0.2562 0.0
C5515 C 0.23668 0.43109 0.28795 0.0
H5516 H 0.25127 0.40758 0.25409 0.0
C5517 C 0.26929 0.38273 0.29741 0.0
C5518 C 0.28072 0.38082 0.28739 0.0
C5519 C 0.26082 0.39403 0.29533 0.0
C5520 C 0.24755 0.41433 0.26367 0.0
H5521 H 0.18562 0.44787 0.28018 0.0
H5522 H 0.20428 0.43206 0.28597 0.0
H5523 H 0.23242 0.42293 0.24778 0.0
H5524 H 0.29316 0.38995 0.26817 0.0
H5525 H 0.27851 0.40992 0.26467 0.0
H5526 H 0.25176 0.42242 0.30386 0.0
C5527 C 0.2063 0.43967 0.27677 0.0
C5528 C 0.23669 0.42303 0.26005 0.0
C5529 C 0.19562 0.44867 0.27343 0.0
C5530 C 0.28426 0.39108 0.27592 0.0
C5531 C 0.27584 0.40243 0.27388 0.0
C5532 C 0.2476 0.42243 0.29158 0.0
C5533 C 0.21944 0.44048 0.26829 0.0
C5534 C 0.23107 0.43139 0.27215 0.0
C5535 C 0.26367 0.40365 0.28322 0.0
C5536 C 0.25306 0.41387 0.27948 0.0
H5537 H 0.2132 0.46706 0.24393 0.0
H5538 H 0.23166 0.45114 0.2496 0.0
H5539 H 0.23271 0.43766 0.2975 0.0
H5540 H 0.2662 0.37484 0.30622 0.0
H5541 H 0.25142 0.39457 0.30262 0.0
C5542 C 0.20328 0.43501 0.03082 0.0
C5543 C 0.20105 0.42092 0.02044 0.0
C5544 C 0.19223 0.44408 0.03002 0.0
C5545 C 0.15077 0.4421 0.01404 0.0
H5546 H 0.16607 0.488 0.02002 0.0
C5547 C 0.11126 0.48338 0.99807 0.0
C5548 C 0.11215 0.49663 0.00916 0.0
C5549 C 0.12194 0.47404 -5e-05 0.0
C5550 C 0.16161 0.4752 0.01847 0.0
H5551 H 0.18519 0.40523 0.00125 0.0
H5552 H 0.16629 0.4213 -0.00054 0.0
H5553 H 0.18497 0.47186 0.02228 0.0
H5554 H 0.12498 0.51057 0.03086 0.0
H5555 H 0.14377 0.49428 0.0341 0.0
H5556 H 0.12743 0.44552 0.00987 0.0
C5557 C 0.17644 0.42523 0.00843 0.0
C5558 C 0.17243 0.46593 0.01981 0.0
C5559 C 0.18743 0.4161 0.00931 0.0
C5560 C 0.12397 0.50038 0.02217 0.0
C5561 C 0.13478 0.49114 0.02396 0.0
C5562 C 0.13998 0.45137 0.01256 0.0
C5563 C 0.17872 0.43937 0.01874 0.0
C5564 C 0.16716 0.44925 0.01758 0.0
C5565 C 0.13384 0.47785 0.01288 0.0
C5566 C 0.14529 0.46802 0.01473 0.0
H5567 H 0.21371 0.43922 0.03943 0.0
H5568 H 0.19429 0.45477 0.0383 0.0
H5569 H 0.14623 0.42931 0.01253 0.0
H5570 H 0.10217 0.48012 0.98801 0.0
H5571 H 0.121 0.46395 0.99116 0.0
C5572 C 0.85049 0.94653 0.25524 0.0
C5573 C 0.86648 0.94933 0.25242 0.0
C5574 C 0.84119 0.93107 0.2552 0.0
C5575 C 0.83865 0.88905 0.24176 0.0
H5576 H 0.81301 0.88089 0.27615 0.0
C5577 C 0.81057 0.82565 0.25522 0.0
C5578 C 0.79531 0.82248 0.26012 0.0
C5579 C 0.81871 0.84113 0.25349 0.0
C5580 C 0.81991 0.88299 0.26633 0.0
H5581 H 0.88517 0.93799 0.24725 0.0
H5582 H 0.86891 0.91102 0.24703 0.0
H5583 H 0.82799 0.9079 0.27424 0.0
H5584 H 0.77652 0.83309 0.26679 0.0
H5585 H 0.79062 0.86002 0.26355 0.0
H5586 H 0.83059 0.86413 0.23385 0.0
C5587 C 0.86353 0.9208 0.24912 0.0
C5588 C 0.82851 0.89847 0.26525 0.0
C5589 C 0.87284 0.93627 0.24921 0.0
C5590 C 0.7883 0.83511 0.26309 0.0
C5591 C 0.79642 0.85058 0.26131 0.0
C5592 C 0.83 0.87356 0.2428 0.0
C5593 C 0.84765 0.91804 0.25227 0.0
C5594 C 0.83805 0.90166 0.25301 0.0
C5595 C 0.81176 0.8538 0.25658 0.0
C5596 C 0.8206 0.87033 0.25516 0.0
H5597 H 0.84514 0.9563 0.25748 0.0
H5598 H 0.82893 0.9293 0.25744 0.0
H5599 H 0.84574 0.89117 0.23208 0.0
H5600 H 0.81635 0.81621 0.25288 0.0
H5601 H 0.83059 0.84321 0.25005 0.0
C5602 C 0.74465 0.10337 0.73661 0.0
C5603 C 0.73907 0.09756 0.75028 0.0
C5604 C 0.75269 0.11933 0.73708 0.0
C5605 C 0.7528 0.15383 0.73916 0.0
H5606 H 0.77958 0.18119 0.77484 0.0
C5607 C 0.76643 0.22177 0.74343 0.0
C5608 C 0.76517 0.22975 0.75815 0.0
C5609 C 0.76646 0.2058 0.74191 0.0
C5610 C 0.77207 0.17368 0.76482 0.0
H5611 H 0.73873 0.10356 0.77543 0.0
H5612 H 0.75264 0.13127 0.77624 0.0
H5613 H 0.77569 0.15246 0.77304 0.0
H5614 H 0.76306 0.22729 0.78286 0.0
H5615 H 0.76273 0.19926 0.78011 0.0
H5616 H 0.74864 0.17487 0.73122 0.0
C5617 C 0.75098 0.12356 0.76517 0.0
C5618 C 0.76991 0.15726 0.76375 0.0
C5619 C 0.74298 0.10763 0.76471 0.0
C5620 C 0.764 0.22145 0.77135 0.0
C5621 C 0.76399 0.20544 0.76981 0.0
C5622 C 0.75495 0.17019 0.74023 0.0
C5623 C 0.75524 0.12974 0.75122 0.0
C5624 C 0.75995 0.14715 0.75109 0.0
C5625 C 0.76518 0.19745 0.75506 0.0
C5626 C 0.7643 0.18027 0.75324 0.0
H5627 H 0.74204 0.0958 0.72538 0.0
H5628 H 0.75614 0.1237 0.7262 0.0
H5629 H 0.74479 0.14637 0.72942 0.0
H5630 H 0.76752 0.22786 0.73306 0.0
H5631 H 0.76757 0.20001 0.73044 0.0
loop_
_geom_bond_atom_site_label_1
_geom_bond_atom_site_label_2
_geom_bond_distance
_geom_bond_site_symmetry_2
_ccdc_geom_bond_type
Li0 N17 1.990 1_455 S
Li0 O60 1.956 . S
Li0 O61 1.970 . S
Li0 O62 1.961 . S
Li1 N25 1.990 . S
Li1 O60 1.970 . S
Li1 O61 1.956 . S
Li1 O63 1.961 . S
Li2 N47 1.990 . S
Li2 O60 1.961 . S
Li2 O62 1.956 . S
Li2 O63 1.970 . S
Li3 N53 1.990 . S
Li3 O61 1.961 . S
Li3 O62 1.970 . S
Li3 O63 1.956 . S
C4 C6 1.348 . S
C4 C7 1.356 . S
C4 O60 1.325 . S
N5 C8 1.314 . S
N5 C9 1.279 . S
C6 C4 1.348 . S
C6 C8 1.353 . S
C6 H64 0.929 . S
C7 C4 1.356 . S
C7 C9 1.358 . S
C7 H65 0.930 . S
C8 N5 1.314 . S
C8 C6 1.353 . S
C8 H66 0.930 . S
C9 N5 1.279 . S
C9 C7 1.358 . S
C9 H67 0.930 . S
C10 C13 1.348 . S
C10 C14 1.356 . S
C10 O61 1.325 1_655 S
C11 N12 1.279 . S
C11 C14 1.358 . S
C11 H68 0.930 . S
N12 C11 1.279 . S
N12 C15 1.314 . S
C13 C10 1.348 . S
C13 C15 1.353 . S
C13 H69 0.929 . S
C14 C10 1.356 . S
C14 C11 1.358 . S
C14 H70 0.930 1_655 S
C15 N12 1.314 . S
C15 C13 1.353 . S
C15 H71 0.930 . S
C16 N17 1.314 . S
C16 C21 1.353 . S
C16 H22 0.930 . S
N17 Li0 1.990 1_655 S
N17 C16 1.314 . S
N17 C19 1.279 . S
C18 C19 1.358 . S
C18 C20 1.356 . S
C18 H72 0.930 . S
C19 N17 1.279 . S
C19 C18 1.358 . S
C19 H23 0.930 . S
C20 C18 1.356 . S
C20 C21 1.348 . S
C21 C16 1.353 . S
C21 C20 1.348 . S
C21 H73 0.929 . S
H22 C16 0.930 . S
H23 C19 0.930 . S
C24 N25 1.314 . S
C24 C26 1.353 . S
C24 H30 0.930 . S
N25 Li1 1.990 . S
N25 C24 1.314 . S
N25 C28 1.279 . S
C26 C24 1.353 . S
C26 C29 1.348 . S
C26 H74 0.929 . S
C27 C28 1.358 . S
C27 C29 1.356 . S
C27 H75 0.930 . S
C28 N25 1.279 . S
C28 C27 1.358 . S
C28 H31 0.930 . S
C29 C26 1.348 . S
C29 C27 1.356 . S
H30 C24 0.930 . S
H31 C28 0.930 . S
C32 C34 1.348 . S
C32 C35 1.356 . S
C32 O62 1.325 . S
N33 C36 1.314 . S
N33 C37 1.279 . S
C34 C32 1.348 . S
C34 C36 1.353 . S
C34 H76 0.929 . S
C35 C32 1.356 . S
C35 C37 1.358 . S
C35 H77 0.930 . S
C36 N33 1.314 . S
C36 C34 1.353 . S
C36 H78 0.930 . S
C37 N33 1.279 . S
C37 C35 1.358 . S
C37 H79 0.930 . S
C38 C39 1.348 . S
C38 C40 1.356 . S
C38 O63 1.325 . S
C39 C38 1.348 . S
C39 C41 1.353 . S
C39 H80 0.929 . S
C40 C38 1.356 . S
C40 C42 1.358 . S
C40 H81 0.930 . S
C41 C39 1.353 . S
C41 N43 1.314 . S
C41 H82 0.930 . S
C42 C40 1.358 . S
C42 N43 1.279 . S
C42 H83 0.930 . S
N43 C41 1.314 . S
N43 C42 1.279 . S
C44 C46 1.353 . S
C44 N47 1.314 . S
C44 H50 0.930 . S
C45 N47 1.279 . S
C45 C48 1.358 . S
C45 H51 0.930 . S
C46 C44 1.353 . S
C46 C49 1.348 . S
C46 H84 0.929 . S
N47 Li2 1.990 . S
N47 C44 1.314 . S
N47 C45 1.279 . S
C48 C45 1.358 . S
C48 C49 1.356 . S
C48 H85 0.930 . S
C49 C46 1.348 . S
C49 C48 1.356 . S
H50 C44 0.930 . S
H51 C45 0.930 . S
C52 N53 1.314 . S
C52 C54 1.353 . S
C52 H58 0.929 . S
N53 Li3 1.990 . S
N53 C52 1.314 . S
N53 C56 1.279 . S
C54 C52 1.353 . S
C54 C57 1.348 . S
C54 H86 0.929 1_455 S
C55 C56 1.358 . S
C55 C57 1.356 . S
C55 H87 0.930 . S
C56 N53 1.279 . S
C56 C55 1.358 . S
C56 H59 0.930 . S
C57 C54 1.348 . S
C57 C55 1.356 . S
H58 C52 0.929 . S
H59 C56 0.930 . S
O60 Li0 1.956 . S
O60 Li1 1.970 . S
O60 Li2 1.961 . S
O60 C4 1.325 . S
O61 Li0 1.970 . S
O61 Li1 1.956 . S
O61 Li3 1.961 . S
O61 C10 1.325 1_455 S
O62 Li0 1.961 . S
O62 Li2 1.956 . S
O62 Li3 1.970 . S
O62 C32 1.325 . S
O63 Li1 1.961 . S
O63 Li2 1.970 . S
O63 Li3 1.956 . S
O63 C38 1.325 . S
H64 C6 0.929 . S
H65 C7 0.930 . S
H66 C8 0.930 . S
H67 C9 0.930 . S
H68 C11 0.930 . S
H69 C13 0.929 . S
H70 C14 0.930 1_455 S
H71 C15 0.930 . S
H72 C18 0.930 . S
H73 C21 0.929 . S
H74 C26 0.929 . S
H75 C27 0.930 . S
H76 C34 0.929 . S
H77 C35 0.930 . S
H78 C36 0.930 . S
H79 C37 0.930 . S
H80 C39 0.929 . S
H81 C40 0.930 . S
H82 C41 0.930 . S
H83 C42 0.930 . S
H84 C46 0.929 . S
H85 C48 0.930 . S
H86 C54 0.929 1_655 S
H87 C55 0.930 . S
Li88 N105 1.990 . S
Li88 O148 1.956 . S
Li88 O149 1.970 . S
Li88 O150 1.961 1_455 S
Li89 N113 1.990 . S
Li89 O148 1.970 . S
Li89 O149 1.956 . S
Li89 O151 1.961 . S
Li90 N135 1.990 . S
Li90 O148 1.961 . S
Li90 O150 1.956 1_455 S
Li90 O151 1.970 . S
Li91 N141 1.990 1_455 S
Li91 O149 1.961 . S
Li91 O150 1.970 1_455 S
Li91 O151 1.956 . S
C92 C94 1.348 . S
C92 C95 1.356 . S
C92 O148 1.325 . S
N93 C96 1.314 . S
N93 C97 1.279 . S
C94 C92 1.348 . S
C94 C96 1.353 . S
C94 H152 0.929 . S
C95 C92 1.356 . S
C95 C97 1.358 . S
C95 H153 0.930 . S
C96 N93 1.314 . S
C96 C94 1.353 . S
C96 H154 0.930 . S
C97 N93 1.279 . S
C97 C95 1.358 . S
C97 H155 0.930 . S
C98 C101 1.348 . S
C98 C102 1.356 . S
C98 O149 1.325 . S
C99 N100 1.279 . S
C99 C102 1.358 . S
C99 H156 0.930 . S
N100 C99 1.279 . S
N100 C103 1.314 . S
C101 C98 1.348 . S
C101 C103 1.353 . S
C101 H157 0.929 . S
C102 C98 1.356 . S
C102 C99 1.358 . S
C102 H158 0.930 . S
C103 N100 1.314 . S
C103 C101 1.353 . S
C103 H159 0.930 . S
C104 N105 1.314 . S
C104 C109 1.353 . S
C104 H110 0.930 1_455 S
N105 Li88 1.990 . S
N105 C104 1.314 . S
N105 C107 1.279 . S
C106 C107 1.358 . S
C106 C108 1.356 . S
C106 H160 0.930 . S
C107 N105 1.279 . S
C107 C106 1.358 . S
C107 H111 0.930 . S
C108 C106 1.356 . S
C108 C109 1.348 . S
C109 C104 1.353 . S
C109 C108 1.348 . S
C109 H161 0.929 1_455 S
H110 C104 0.930 1_655 S
H111 C107 0.930 . S
C112 N113 1.314 . S
C112 C114 1.353 . S
C112 H118 0.930 . S
N113 Li89 1.990 . S
N113 C112 1.314 . S
N113 C116 1.279 . S
C114 C112 1.353 . S
C114 C117 1.348 . S
C114 H162 0.929 . S
C115 C116 1.358 . S
C115 C117 1.356 . S
C115 H163 0.930 . S
C116 N113 1.279 . S
C116 C115 1.358 . S
C116 H119 0.930 . S
C117 C114 1.348 . S
C117 C115 1.356 . S
H118 C112 0.930 . S
H119 C116 0.930 . S
C120 C122 1.348 . S
C120 C123 1.356 . S
C120 O150 1.325 . S
N121 C124 1.314 . S
N121 C125 1.279 . S
C122 C120 1.348 . S
C122 C124 1.353 . S
C122 H164 0.929 . S
C123 C120 1.356 . S
C123 C125 1.358 . S
C123 H165 0.930 . S
C124 N121 1.314 . S
C124 C122 1.353 . S
C124 H166 0.930 . S
C125 N121 1.279 . S
C125 C123 1.358 . S
C125 H167 0.930 . S
C126 C127 1.348 . S
C126 C128 1.356 . S
C126 O151 1.325 . S
C127 C126 1.348 . S
C127 C129 1.353 . S
C127 H168 0.929 . S
C128 C126 1.356 . S
C128 C130 1.358 . S
C128 H169 0.930 . S
C129 C127 1.353 . S
C129 N131 1.314 . S
C129 H170 0.930 . S
C130 C128 1.358 . S
C130 N131 1.279 . S
C130 H171 0.930 . S
N131 C129 1.314 . S
N131 C130 1.279 . S
C132 C134 1.353 . S
C132 N135 1.314 . S
C132 H138 0.930 . S
C133 N135 1.279 1_655 S
C133 C136 1.358 . S
C133 H139 0.930 . S
C134 C132 1.353 . S
C134 C137 1.348 . S
C134 H172 0.929 . S
N135 Li90 1.990 . S
N135 C132 1.314 . S
N135 C133 1.279 1_455 S
C136 C133 1.358 . S
C136 C137 1.356 1_655 S
C136 H173 0.930 . S
C137 C134 1.348 . S
C137 C136 1.356 1_455 S
H138 C132 0.930 . S
H139 C133 0.930 . S
C140 N141 1.314 . S
C140 C142 1.353 . S
C140 H146 0.930 . S
N141 Li91 1.990 1_655 S
N141 C140 1.314 . S
N141 C144 1.279 . S
C142 C140 1.353 . S
C142 C145 1.348 . S
C142 H174 0.929 . S
C143 C144 1.358 . S
C143 C145 1.356 . S
C143 H175 0.930 . S
C144 N141 1.279 . S
C144 C143 1.358 . S
C144 H147 0.930 . S
C145 C142 1.348 . S
C145 C143 1.356 . S
H146 C140 0.930 . S
H147 C144 0.930 . S
O148 Li88 1.956 . S
O148 Li89 1.970 . S
O148 Li90 1.961 . S
O148 C92 1.325 . S
O149 Li88 1.970 . S
O149 Li89 1.956 . S
O149 Li91 1.961 . S
O149 C98 1.325 . S
O150 Li88 1.961 1_655 S
O150 Li90 1.956 1_655 S
O150 Li91 1.970 1_655 S
O150 C120 1.325 . S
O151 Li89 1.961 . S
O151 Li90 1.970 . S
O151 Li91 1.956 . S
O151 C126 1.325 . S
H152 C94 0.929 . S
H153 C95 0.930 . S
H154 C96 0.930 . S
H155 C97 0.930 . S
H156 C99 0.930 . S
H157 C101 0.929 . S
H158 C102 0.930 . S
H159 C103 0.930 . S
H160 C106 0.930 . S
H161 C109 0.929 1_655 S
H162 C114 0.929 . S
H163 C115 0.930 . S
H164 C122 0.929 . S
H165 C123 0.930 . S
H166 C124 0.930 . S
H167 C125 0.930 . S
H168 C127 0.929 . S
H169 C128 0.930 . S
H170 C129 0.930 . S
H171 C130 0.930 . S
H172 C134 0.929 . S
H173 C136 0.930 . S
H174 C142 0.929 . S
H175 C143 0.930 . S
Li176 N193 1.990 . S
Li176 O236 1.956 . S
Li176 O237 1.970 . S
Li176 O238 1.961 . S
Li177 N201 1.990 . S
Li177 O236 1.970 . S
Li177 O237 1.956 . S
Li177 O239 1.961 . S
Li178 N223 1.990 . S
Li178 O236 1.961 . S
Li178 O238 1.956 . S
Li178 O239 1.970 . S
Li179 N229 1.990 . S
Li179 O237 1.961 . S
Li179 O238 1.970 . S
Li179 O239 1.956 . S
C180 C182 1.348 . S
C180 C183 1.356 . S
C180 O236 1.325 . S
N181 C184 1.314 . S
N181 C185 1.279 . S
C182 C180 1.348 . S
C182 C184 1.353 . S
C182 H240 0.929 . S
C183 C180 1.356 . S
C183 C185 1.358 . S
C183 H241 0.930 . S
C184 N181 1.314 . S
C184 C182 1.353 . S
C184 H242 0.930 . S
C185 N181 1.279 . S
C185 C183 1.358 . S
C185 H243 0.930 . S
C186 C189 1.348 . S
C186 C190 1.356 . S
C186 O237 1.325 . S
C187 N188 1.279 . S
C187 C190 1.358 . S
C187 H244 0.930 . S
N188 C187 1.279 . S
N188 C191 1.314 . S
C189 C186 1.348 . S
C189 C191 1.353 . S
C189 H245 0.929 . S
C190 C186 1.356 . S
C190 C187 1.358 . S
C190 H246 0.930 . S
C191 N188 1.314 . S
C191 C189 1.353 . S
C191 H247 0.930 . S
C192 N193 1.314 . S
C192 C197 1.353 . S
C192 H198 0.930 . S
N193 Li176 1.990 . S
N193 C192 1.314 . S
N193 C195 1.279 . S
C194 C195 1.358 . S
C194 C196 1.356 . S
C194 H248 0.930 . S
C195 N193 1.279 . S
C195 C194 1.358 . S
C195 H199 0.930 . S
C196 C194 1.356 . S
C196 C197 1.348 . S
C197 C192 1.353 . S
C197 C196 1.348 . S
C197 H249 0.929 . S
H198 C192 0.930 . S
H199 C195 0.930 . S
C200 N201 1.314 . S
C200 C202 1.353 . S
C200 H206 0.930 . S
N201 Li177 1.990 . S
N201 C200 1.314 . S
N201 C204 1.279 . S
C202 C200 1.353 . S
C202 C205 1.348 . S
C202 H250 0.929 . S
C203 C204 1.358 . S
C203 C205 1.356 . S
C203 H251 0.930 . S
C204 N201 1.279 . S
C204 C203 1.358 . S
C204 H207 0.930 . S
C205 C202 1.348 . S
C205 C203 1.356 . S
H206 C200 0.930 . S
H207 C204 0.930 . S
C208 C210 1.348 . S
C208 C211 1.356 . S
C208 O238 1.325 . S
N209 C212 1.314 . S
N209 C213 1.279 . S
C210 C208 1.348 . S
C210 C212 1.353 . S
C210 H252 0.929 . S
C211 C208 1.356 . S
C211 C213 1.358 . S
C211 H253 0.930 . S
C212 N209 1.314 . S
C212 C210 1.353 . S
C212 H254 0.930 . S
C213 N209 1.279 . S
C213 C211 1.358 . S
C213 H255 0.930 . S
C214 C215 1.348 . S
C214 C216 1.356 . S
C214 O239 1.325 . S
C215 C214 1.348 . S
C215 C217 1.353 . S
C215 H256 0.929 . S
C216 C214 1.356 . S
C216 C218 1.358 . S
C216 H257 0.930 . S
C217 C215 1.353 . S
C217 N219 1.314 . S
C217 H258 0.930 . S
C218 C216 1.358 . S
C218 N219 1.279 . S
C218 H259 0.930 . S
N219 C217 1.314 . S
N219 C218 1.279 . S
C220 C222 1.353 . S
C220 N223 1.314 . S
C220 H226 0.930 . S
C221 N223 1.279 . S
C221 C224 1.358 . S
C221 H227 0.930 . S
C222 C220 1.353 . S
C222 C225 1.348 . S
C222 H260 0.929 . S
N223 Li178 1.990 . S
N223 C220 1.314 . S
N223 C221 1.279 . S
C224 C221 1.358 . S
C224 C225 1.356 . S
C224 H261 0.930 . S
C225 C222 1.348 . S
C225 C224 1.356 . S
H226 C220 0.930 . S
H227 C221 0.930 . S
C228 N229 1.314 . S
C228 C230 1.353 . S
C228 H234 0.930 . S
N229 Li179 1.990 . S
N229 C228 1.314 . S
N229 C232 1.279 . S
C230 C228 1.353 . S
C230 C233 1.348 . S
C230 H262 0.929 . S
C231 C232 1.358 . S
C231 C233 1.356 . S
C231 H263 0.930 . S
C232 N229 1.279 . S
C232 C231 1.358 . S
C232 H235 0.930 . S
C233 C230 1.348 . S
C233 C231 1.356 . S
H234 C228 0.930 . S
H235 C232 0.930 . S
O236 Li176 1.956 . S
O236 Li177 1.970 . S
O236 Li178 1.961 . S
O236 C180 1.325 . S
O237 Li176 1.970 . S
O237 Li177 1.956 . S
O237 Li179 1.961 . S
O237 C186 1.325 . S
O238 Li176 1.961 . S
O238 Li178 1.956 . S
O238 Li179 1.970 . S
O238 C208 1.325 . S
O239 Li177 1.961 . S
O239 Li178 1.970 . S
O239 Li179 1.956 . S
O239 C214 1.325 . S
H240 C182 0.929 . S
H241 C183 0.930 . S
H242 C184 0.930 . S
H243 C185 0.930 . S
H244 C187 0.930 . S
H245 C189 0.929 . S
H246 C190 0.930 . S
H247 C191 0.930 . S
H248 C194 0.930 . S
H249 C197 0.929 . S
H250 C202 0.929 . S
H251 C203 0.930 . S
H252 C210 0.929 . S
H253 C211 0.930 . S
H254 C212 0.930 . S
H255 C213 0.930 . S
H256 C215 0.929 . S
H257 C216 0.930 . S
H258 C217 0.930 . S
H259 C218 0.930 . S
H260 C222 0.929 . S
H261 C224 0.930 . S
H262 C230 0.929 . S
H263 C231 0.930 . S
Li264 N281 1.990 . S
Li264 O324 1.956 . S
Li264 O325 1.970 . S
Li264 O326 1.961 . S
Li265 N289 1.990 . S
Li265 O324 1.970 . S
Li265 O325 1.956 . S
Li265 O327 1.961 . S
Li266 N311 1.990 . S
Li266 O324 1.961 . S
Li266 O326 1.956 . S
Li266 O327 1.970 . S
Li267 N317 1.990 . S
Li267 O325 1.961 . S
Li267 O326 1.970 . S
Li267 O327 1.956 . S
C268 C270 1.348 . S
C268 C271 1.356 . S
C268 O324 1.325 . S
N269 C272 1.314 . S
N269 C273 1.279 . S
C270 C268 1.348 . S
C270 C272 1.353 . S
C270 H328 0.929 . S
C271 C268 1.356 . S
C271 C273 1.358 . S
C271 H329 0.930 . S
C272 N269 1.314 . S
C272 C270 1.353 . S
C272 H330 0.930 . S
C273 N269 1.279 . S
C273 C271 1.358 . S
C273 H331 0.930 . S
C274 C277 1.348 . S
C274 C278 1.356 . S
C274 O325 1.325 . S
C275 N276 1.279 . S
C275 C278 1.358 . S
C275 H332 0.930 . S
N276 C275 1.279 . S
N276 C279 1.314 . S
C277 C274 1.348 . S
C277 C279 1.353 . S
C277 H333 0.929 . S
C278 C274 1.356 . S
C278 C275 1.358 . S
C278 H334 0.930 . S
C279 N276 1.314 . S
C279 C277 1.353 . S
C279 H335 0.930 . S
C280 N281 1.314 . S
C280 C285 1.353 . S
C280 H286 0.930 . S
N281 Li264 1.990 . S
N281 C280 1.314 . S
N281 C283 1.279 . S
C282 C283 1.358 . S
C282 C284 1.356 . S
C282 H336 0.930 . S
C283 N281 1.279 . S
C283 C282 1.358 . S
C283 H287 0.930 . S
C284 C282 1.356 . S
C284 C285 1.348 . S
C285 C280 1.353 . S
C285 C284 1.348 . S
C285 H337 0.929 . S
H286 C280 0.930 . S
H287 C283 0.930 . S
C288 N289 1.314 . S
C288 C290 1.353 . S
C288 H294 0.930 . S
N289 Li265 1.990 . S
N289 C288 1.314 . S
N289 C292 1.279 . S
C290 C288 1.353 . S
C290 C293 1.348 . S
C290 H338 0.929 . S
C291 C292 1.358 . S
C291 C293 1.356 . S
C291 H339 0.930 . S
C292 N289 1.279 . S
C292 C291 1.358 . S
C292 H295 0.930 . S
C293 C290 1.348 . S
C293 C291 1.356 . S
H294 C288 0.930 . S
H295 C292 0.930 . S
C296 C298 1.348 . S
C296 C299 1.356 . S
C296 O326 1.325 . S
N297 C300 1.314 . S
N297 C301 1.279 . S
C298 C296 1.348 . S
C298 C300 1.353 . S
C298 H340 0.929 . S
C299 C296 1.356 . S
C299 C301 1.358 . S
C299 H341 0.930 . S
C300 N297 1.314 . S
C300 C298 1.353 . S
C300 H342 0.930 . S
C301 N297 1.279 . S
C301 C299 1.358 . S
C301 H343 0.930 . S
C302 C303 1.348 . S
C302 C304 1.356 . S
C302 O327 1.325 . S
C303 C302 1.348 . S
C303 C305 1.353 . S
C303 H344 0.929 . S
C304 C302 1.356 . S
C304 C306 1.358 . S
C304 H345 0.930 . S
C305 C303 1.353 . S
C305 N307 1.314 . S
C305 H346 0.930 . S
C306 C304 1.358 . S
C306 N307 1.279 . S
C306 H347 0.930 . S
N307 C305 1.314 . S
N307 C306 1.279 . S
C308 C310 1.353 . S
C308 N311 1.314 . S
C308 H314 0.930 . S
C309 N311 1.279 . S
C309 C312 1.358 . S
C309 H315 0.930 . S
C310 C308 1.353 . S
C310 C313 1.348 . S
C310 H348 0.929 . S
N311 Li266 1.990 . S
N311 C308 1.314 . S
N311 C309 1.279 . S
C312 C309 1.358 . S
C312 C313 1.356 . S
C312 H349 0.930 . S
C313 C310 1.348 . S
C313 C312 1.356 . S
H314 C308 0.930 . S
H315 C309 0.930 . S
C316 N317 1.314 . S
C316 C318 1.353 . S
C316 H322 0.930 . S
N317 Li267 1.990 . S
N317 C316 1.314 . S
N317 C320 1.279 . S
C318 C316 1.353 . S
C318 C321 1.348 . S
C318 H350 0.929 . S
C319 C320 1.358 . S
C319 C321 1.356 . S
C319 H351 0.930 . S
C320 N317 1.279 . S
C320 C319 1.358 . S
C320 H323 0.930 . S
C321 C318 1.348 . S
C321 C319 1.356 . S
H322 C316 0.930 . S
H323 C320 0.930 . S
O324 Li264 1.956 . S
O324 Li265 1.970 . S
O324 Li266 1.961 . S
O324 C268 1.325 . S
O325 Li264 1.970 . S
O325 Li265 1.956 . S
O325 Li267 1.961 . S
O325 C274 1.325 . S
O326 Li264 1.961 . S
O326 Li266 1.956 . S
O326 Li267 1.970 . S
O326 C296 1.325 . S
O327 Li265 1.961 . S
O327 Li266 1.970 . S
O327 Li267 1.956 . S
O327 C302 1.325 . S
H328 C270 0.929 . S
H329 C271 0.930 . S
H330 C272 0.930 . S
H331 C273 0.930 . S
H332 C275 0.930 . S
H333 C277 0.929 . S
H334 C278 0.930 . S
H335 C279 0.930 . S
H336 C282 0.930 . S
H337 C285 0.929 . S
H338 C290 0.929 . S
H339 C291 0.930 . S
H340 C298 0.929 . S
H341 C299 0.930 . S
H342 C300 0.930 . S
H343 C301 0.930 . S
H344 C303 0.929 . S
H345 C304 0.930 . S
H346 C305 0.930 . S
H347 C306 0.930 . S
H348 C310 0.929 . S
H349 C312 0.930 . S
H350 C318 0.929 . S
H351 C319 0.930 . S
Li352 N369 1.990 . S
Li352 O412 1.956 . S
Li352 O413 1.970 . S
Li352 O414 1.961 . S
Li353 N377 1.990 . S
Li353 O412 1.970 . S
Li353 O413 1.956 . S
Li353 O415 1.961 . S
Li354 N399 1.990 . S
Li354 O412 1.961 . S
Li354 O414 1.956 . S
Li354 O415 1.970 . S
Li355 N405 1.990 . S
Li355 O413 1.961 . S
Li355 O414 1.970 . S
Li355 O415 1.956 . S
C356 C358 1.348 . S
C356 C359 1.356 . S
C356 O412 1.325 . S
N357 C360 1.314 . S
N357 C361 1.279 . S
C358 C356 1.348 . S
C358 C360 1.353 . S
C358 H416 0.929 . S
C359 C356 1.356 . S
C359 C361 1.358 . S
C359 H417 0.930 . S
C360 N357 1.314 . S
C360 C358 1.353 . S
C360 H418 0.930 . S
C361 N357 1.279 . S
C361 C359 1.358 . S
C361 H419 0.930 . S
C362 C365 1.348 . S
C362 C366 1.356 . S
C362 O413 1.325 . S
C363 N364 1.279 . S
C363 C366 1.358 . S
C363 H420 0.930 . S
N364 C363 1.279 . S
N364 C367 1.314 . S
C365 C362 1.348 . S
C365 C367 1.353 . S
C365 H421 0.929 . S
C366 C362 1.356 . S
C366 C363 1.358 . S
C366 H422 0.930 . S
C367 N364 1.314 . S
C367 C365 1.353 . S
C367 H423 0.930 . S
C368 N369 1.314 . S
C368 C373 1.353 . S
C368 H374 0.930 . S
N369 Li352 1.990 . S
N369 C368 1.314 . S
N369 C371 1.279 . S
C370 C371 1.358 . S
C370 C372 1.356 . S
C370 H424 0.930 . S
C371 N369 1.279 . S
C371 C370 1.358 . S
C371 H375 0.930 . S
C372 C370 1.356 . S
C372 C373 1.348 . S
C373 C368 1.353 . S
C373 C372 1.348 . S
C373 H425 0.929 . S
H374 C368 0.930 . S
H375 C371 0.930 . S
C376 N377 1.314 . S
C376 C378 1.353 . S
C376 H382 0.930 . S
N377 Li353 1.990 . S
N377 C376 1.314 . S
N377 C380 1.279 . S
C378 C376 1.353 . S
C378 C381 1.348 . S
C378 H426 0.929 . S
C379 C380 1.358 . S
C379 C381 1.356 . S
C379 H427 0.930 . S
C380 N377 1.279 . S
C380 C379 1.358 . S
C380 H383 0.930 . S
C381 C378 1.348 . S
C381 C379 1.356 . S
H382 C376 0.930 . S
H383 C380 0.930 . S
C384 C386 1.348 1_455 S
C384 C387 1.356 . S
C384 O414 1.325 . S
N385 C388 1.314 . S
N385 C389 1.279 . S
C386 C384 1.348 1_655 S
C386 C388 1.353 . S
C386 H428 0.929 . S
C387 C384 1.356 . S
C387 C389 1.358 1_455 S
C387 H429 0.930 . S
C388 N385 1.314 . S
C388 C386 1.353 . S
C388 H430 0.930 . S
C389 N385 1.279 . S
C389 C387 1.358 1_655 S
C389 H431 0.930 . S
C390 C391 1.348 . S
C390 C392 1.356 . S
C390 O415 1.325 . S
C391 C390 1.348 . S
C391 C393 1.353 . S
C391 H432 0.929 . S
C392 C390 1.356 . S
C392 C394 1.358 . S
C392 H433 0.930 . S
C393 C391 1.353 . S
C393 N395 1.314 . S
C393 H434 0.930 . S
C394 C392 1.358 . S
C394 N395 1.279 . S
C394 H435 0.930 . S
N395 C393 1.314 . S
N395 C394 1.279 . S
C396 C398 1.353 . S
C396 N399 1.314 . S
C396 H402 0.930 . S
C397 N399 1.279 . S
C397 C400 1.358 . S
C397 H403 0.930 . S
C398 C396 1.353 . S
C398 C401 1.348 . S
C398 H436 0.929 . S
N399 Li354 1.990 . S
N399 C396 1.314 . S
N399 C397 1.279 . S
C400 C397 1.358 . S
C400 C401 1.356 . S
C400 H437 0.930 . S
C401 C398 1.348 . S
C401 C400 1.356 . S
H402 C396 0.930 . S
H403 C397 0.930 . S
C404 N405 1.314 . S
C404 C406 1.353 1_455 S
C404 H410 0.930 . S
N405 Li355 1.990 . S
N405 C404 1.314 . S
N405 C408 1.279 . S
C406 C404 1.353 1_655 S
C406 C409 1.348 . S
C406 H438 0.929 . S
C407 C408 1.358 1_655 S
C407 C409 1.356 . S
C407 H439 0.930 . S
C408 N405 1.279 . S
C408 C407 1.358 1_455 S
C408 H411 0.930 . S
C409 C406 1.348 . S
C409 C407 1.356 . S
H410 C404 0.930 . S
H411 C408 0.930 . S
O412 Li352 1.956 . S
O412 Li353 1.970 . S
O412 Li354 1.961 . S
O412 C356 1.325 . S
O413 Li352 1.970 . S
O413 Li353 1.956 . S
O413 Li355 1.961 . S
O413 C362 1.325 . S
O414 Li352 1.961 . S
O414 Li354 1.956 . S
O414 Li355 1.970 . S
O414 C384 1.325 . S
O415 Li353 1.961 . S
O415 Li354 1.970 . S
O415 Li355 1.956 . S
O415 C390 1.325 . S
H416 C358 0.929 . S
H417 C359 0.930 . S
H418 C360 0.930 . S
H419 C361 0.930 . S
H420 C363 0.930 . S
H421 C365 0.929 . S
H422 C366 0.930 . S
H423 C367 0.930 . S
H424 C370 0.930 . S
H425 C373 0.929 . S
H426 C378 0.929 . S
H427 C379 0.930 . S
H428 C386 0.929 . S
H429 C387 0.930 . S
H430 C388 0.930 . S
H431 C389 0.930 . S
H432 C391 0.929 . S
H433 C392 0.930 . S
H434 C393 0.930 . S
H435 C394 0.930 . S
H436 C398 0.929 . S
H437 C400 0.930 . S
H438 C406 0.929 . S
H439 C407 0.930 . S
Li440 N457 1.990 . S
Li440 O500 1.956 . S
Li440 O501 1.970 . S
Li440 O502 1.961 . S
Li441 N465 1.990 . S
Li441 O500 1.970 . S
Li441 O501 1.956 . S
Li441 O503 1.961 . S
Li442 N487 1.990 . S
Li442 O500 1.961 . S
Li442 O502 1.956 . S
Li442 O503 1.970 . S
Li443 N493 1.990 . S
Li443 O501 1.961 . S
Li443 O502 1.970 . S
Li443 O503 1.956 . S
C444 C446 1.348 . S
C444 C447 1.356 . S
C444 O500 1.325 . S
N445 C448 1.314 . S
N445 C449 1.279 . S
C446 C444 1.348 . S
C446 C448 1.353 . S
C446 H504 0.929 . S
C447 C444 1.356 . S
C447 C449 1.358 . S
C447 H505 0.930 . S
C448 N445 1.314 . S
C448 C446 1.353 . S
C448 H506 0.930 . S
C449 N445 1.279 . S
C449 C447 1.358 . S
C449 H507 0.930 . S
C450 C453 1.348 . S
C450 C454 1.356 . S
C450 O501 1.325 . S
C451 N452 1.279 . S
C451 C454 1.358 . S
C451 H508 0.930 . S
N452 C451 1.279 . S
N452 C455 1.314 . S
C453 C450 1.348 . S
C453 C455 1.353 . S
C453 H509 0.929 . S
C454 C450 1.356 . S
C454 C451 1.358 . S
C454 H510 0.930 . S
C455 N452 1.314 . S
C455 C453 1.353 . S
C455 H511 0.930 . S
C456 N457 1.314 . S
C456 C461 1.353 . S
C456 H462 0.930 . S
N457 Li440 1.990 . S
N457 C456 1.314 . S
N457 C459 1.279 . S
C458 C459 1.358 . S
C458 C460 1.356 . S
C458 H512 0.930 . S
C459 N457 1.279 . S
C459 C458 1.358 . S
C459 H463 0.930 . S
C460 C458 1.356 . S
C460 C461 1.348 . S
C461 C456 1.353 . S
C461 C460 1.348 . S
C461 H513 0.929 . S
H462 C456 0.930 . S
H463 C459 0.930 . S
C464 N465 1.314 . S
C464 C466 1.353 . S
C464 H470 0.930 . S
N465 Li441 1.990 . S
N465 C464 1.314 . S
N465 C468 1.279 . S
C466 C464 1.353 . S
C466 C469 1.348 . S
C466 H514 0.929 . S
C467 C468 1.358 . S
C467 C469 1.356 . S
C467 H515 0.930 . S
C468 N465 1.279 . S
C468 C467 1.358 . S
C468 H471 0.930 . S
C469 C466 1.348 . S
C469 C467 1.356 . S
H470 C464 0.930 . S
H471 C468 0.930 . S
C472 C474 1.348 . S
C472 C475 1.356 . S
C472 O502 1.325 . S
N473 C476 1.314 . S
N473 C477 1.279 . S
C474 C472 1.348 . S
C474 C476 1.353 . S
C474 H516 0.929 . S
C475 C472 1.356 . S
C475 C477 1.358 . S
C475 H517 0.930 . S
C476 N473 1.314 . S
C476 C474 1.353 . S
C476 H518 0.930 . S
C477 N473 1.279 . S
C477 C475 1.358 . S
C477 H519 0.930 . S
C478 C479 1.348 . S
C478 C480 1.356 . S
C478 O503 1.325 . S
C479 C478 1.348 . S
C479 C481 1.353 . S
C479 H520 0.929 . S
C480 C478 1.356 . S
C480 C482 1.358 . S
C480 H521 0.930 . S
C481 C479 1.353 . S
C481 N483 1.314 . S
C481 H522 0.930 . S
C482 C480 1.358 . S
C482 N483 1.279 . S
C482 H523 0.930 . S
N483 C481 1.314 . S
N483 C482 1.279 . S
C484 C486 1.353 . S
C484 N487 1.314 . S
C484 H490 0.930 . S
C485 N487 1.279 . S
C485 C488 1.358 . S
C485 H491 0.930 . S
C486 C484 1.353 . S
C486 C489 1.348 . S
C486 H524 0.929 . S
N487 Li442 1.990 . S
N487 C484 1.314 . S
N487 C485 1.279 . S
C488 C485 1.358 . S
C488 C489 1.356 . S
C488 H525 0.930 . S
C489 C486 1.348 . S
C489 C488 1.356 . S
H490 C484 0.930 . S
H491 C485 0.930 . S
C492 N493 1.314 . S
C492 C494 1.353 . S
C492 H498 0.930 . S
N493 Li443 1.990 . S
N493 C492 1.314 . S
N493 C496 1.279 . S
C494 C492 1.353 . S
C494 C497 1.348 . S
C494 H526 0.929 . S
C495 C496 1.358 . S
C495 C497 1.356 . S
C495 H527 0.930 . S
C496 N493 1.279 . S
C496 C495 1.358 . S
C496 H499 0.930 . S
C497 C494 1.348 . S
C497 C495 1.356 . S
H498 C492 0.930 . S
H499 C496 0.930 . S
O500 Li440 1.956 . S
O500 Li441 1.970 . S
O500 Li442 1.961 . S
O500 C444 1.325 . S
O501 Li440 1.970 . S
O501 Li441 1.956 . S
O501 Li443 1.961 . S
O501 C450 1.325 . S
O502 Li440 1.961 . S
O502 Li442 1.956 . S
O502 Li443 1.970 . S
O502 C472 1.325 . S
O503 Li441 1.961 . S
O503 Li442 1.970 . S
O503 Li443 1.956 . S
O503 C478 1.325 . S
H504 C446 0.929 . S
H505 C447 0.930 . S
H506 C448 0.930 . S
H507 C449 0.930 . S
H508 C451 0.930 . S
H509 C453 0.929 . S
H510 C454 0.930 . S
H511 C455 0.930 . S
H512 C458 0.930 . S
H513 C461 0.929 . S
H514 C466 0.929 . S
H515 C467 0.930 . S
H516 C474 0.929 . S
H517 C475 0.930 . S
H518 C476 0.930 . S
H519 C477 0.930 . S
H520 C479 0.929 . S
H521 C480 0.930 . S
H522 C481 0.930 . S
H523 C482 0.930 . S
H524 C486 0.929 . S
H525 C488 0.930 . S
H526 C494 0.929 . S
H527 C495 0.930 . S
Li528 N545 1.990 . S
Li528 O588 1.956 . S
Li528 O589 1.970 . S
Li528 O590 1.961 . S
Li529 N553 1.990 . S
Li529 O588 1.970 . S
Li529 O589 1.956 . S
Li529 O591 1.961 . S
Li530 N575 1.990 . S
Li530 O588 1.961 . S
Li530 O590 1.956 . S
Li530 O591 1.970 . S
Li531 N581 1.990 . S
Li531 O589 1.961 . S
Li531 O590 1.970 . S
Li531 O591 1.956 . S
C532 C534 1.348 . S
C532 C535 1.356 . S
C532 O588 1.325 . S
N533 C536 1.314 . S
N533 C537 1.279 . S
C534 C532 1.348 . S
C534 C536 1.353 . S
C534 H592 0.929 . S
C535 C532 1.356 . S
C535 C537 1.358 . S
C535 H593 0.930 . S
C536 N533 1.314 . S
C536 C534 1.353 . S
C536 H594 0.930 . S
C537 N533 1.279 . S
C537 C535 1.358 . S
C537 H595 0.930 . S
C538 C541 1.348 . S
C538 C542 1.356 . S
C538 O589 1.325 . S
C539 N540 1.279 . S
C539 C542 1.358 . S
C539 H596 0.930 . S
N540 C539 1.279 . S
N540 C543 1.314 . S
C541 C538 1.348 . S
C541 C543 1.353 . S
C541 H597 0.929 . S
C542 C538 1.356 . S
C542 C539 1.358 . S
C542 H598 0.930 . S
C543 N540 1.314 . S
C543 C541 1.353 . S
C543 H599 0.930 . S
C544 N545 1.314 . S
C544 C549 1.353 . S
C544 H550 0.930 . S
N545 Li528 1.990 . S
N545 C544 1.314 . S
N545 C547 1.279 . S
C546 C547 1.358 . S
C546 C548 1.356 . S
C546 H600 0.930 . S
C547 N545 1.279 . S
C547 C546 1.358 . S
C547 H551 0.930 . S
C548 C546 1.356 . S
C548 C549 1.348 . S
C549 C544 1.353 . S
C549 C548 1.348 . S
C549 H601 0.929 . S
H550 C544 0.930 . S
H551 C547 0.930 . S
C552 N553 1.314 . S
C552 C554 1.353 . S
C552 H558 0.930 . S
N553 Li529 1.990 . S
N553 C552 1.314 . S
N553 C556 1.279 . S
C554 C552 1.353 . S
C554 C557 1.348 . S
C554 H602 0.929 . S
C555 C556 1.358 . S
C555 C557 1.356 . S
C555 H603 0.930 . S
C556 N553 1.279 . S
C556 C555 1.358 . S
C556 H559 0.930 . S
C557 C554 1.348 . S
C557 C555 1.356 . S
H558 C552 0.930 . S
H559 C556 0.930 . S
C560 C562 1.348 . S
C560 C563 1.356 . S
C560 O590 1.325 . S
N561 C564 1.314 . S
N561 C565 1.279 . S
C562 C560 1.348 . S
C562 C564 1.353 . S
C562 H604 0.929 . S
C563 C560 1.356 . S
C563 C565 1.358 . S
C563 H605 0.930 . S
C564 N561 1.314 . S
C564 C562 1.353 . S
C564 H606 0.930 . S
C565 N561 1.279 . S
C565 C563 1.358 . S
C565 H607 0.930 . S
C566 C567 1.348 . S
C566 C568 1.356 . S
C566 O591 1.325 . S
C567 C566 1.348 . S
C567 C569 1.353 . S
C567 H608 0.929 . S
C568 C566 1.356 . S
C568 C570 1.358 . S
C568 H609 0.930 . S
C569 C567 1.353 . S
C569 N571 1.314 . S
C569 H610 0.930 . S
C570 C568 1.358 . S
C570 N571 1.279 . S
C570 H611 0.930 . S
N571 C569 1.314 . S
N571 C570 1.279 . S
C572 C574 1.353 . S
C572 N575 1.314 . S
C572 H578 0.930 . S
C573 N575 1.279 . S
C573 C576 1.358 . S
C573 H579 0.930 . S
C574 C572 1.353 . S
C574 C577 1.348 . S
C574 H612 0.929 . S
N575 Li530 1.990 . S
N575 C572 1.314 . S
N575 C573 1.279 . S
C576 C573 1.358 . S
C576 C577 1.356 . S
C576 H613 0.930 . S
C577 C574 1.348 . S
C577 C576 1.356 . S
H578 C572 0.930 . S
H579 C573 0.930 . S
C580 N581 1.314 . S
C580 C582 1.353 . S
C580 H586 0.930 . S
N581 Li531 1.990 . S
N581 C580 1.314 . S
N581 C584 1.279 . S
C582 C580 1.353 . S
C582 C585 1.348 . S
C582 H614 0.929 . S
C583 C584 1.358 . S
C583 C585 1.356 . S
C583 H615 0.930 . S
C584 N581 1.279 . S
C584 C583 1.358 . S
C584 H587 0.930 . S
C585 C582 1.348 . S
C585 C583 1.356 . S
H586 C580 0.930 . S
H587 C584 0.930 . S
O588 Li528 1.956 . S
O588 Li529 1.970 . S
O588 Li530 1.961 . S
O588 C532 1.325 . S
O589 Li528 1.970 . S
O589 Li529 1.956 . S
O589 Li531 1.961 . S
O589 C538 1.325 . S
O590 Li528 1.961 . S
O590 Li530 1.956 . S
O590 Li531 1.970 . S
O590 C560 1.325 . S
O591 Li529 1.961 . S
O591 Li530 1.970 . S
O591 Li531 1.956 . S
O591 C566 1.325 . S
H592 C534 0.929 . S
H593 C535 0.930 . S
H594 C536 0.930 . S
H595 C537 0.930 . S
H596 C539 0.930 . S
H597 C541 0.929 . S
H598 C542 0.930 . S
H599 C543 0.930 . S
H600 C546 0.930 . S
H601 C549 0.929 . S
H602 C554 0.929 . S
H603 C555 0.930 . S
H604 C562 0.929 . S
H605 C563 0.930 . S
H606 C564 0.930 . S
H607 C565 0.930 . S
H608 C567 0.929 . S
H609 C568 0.930 . S
H610 C569 0.930 . S
H611 C570 0.930 . S
H612 C574 0.929 . S
H613 C576 0.930 . S
H614 C582 0.929 . S
H615 C583 0.930 . S
Li616 N633 1.990 . S
Li616 O676 1.956 1_455 S
Li616 O677 1.970 . S
Li616 O678 1.961 . S
Li617 N641 1.990 . S
Li617 O676 1.970 . S
Li617 O677 1.956 1_655 S
Li617 O679 1.961 . S
Li618 N663 1.986 . S
Li618 O676 2.003 . S
Li618 O678 1.925 1_655 S
Li618 O679 1.971 . S
Li619 N669 1.990 . S
Li619 O677 1.961 . S
Li619 O678 1.970 . S
Li619 O679 1.956 1_455 S
C620 C622 1.348 . S
C620 C623 1.356 . S
C620 O676 1.325 . S
N621 C624 1.314 . S
N621 C625 1.279 . S
C622 C620 1.348 . S
C622 C624 1.353 . S
C622 H680 0.929 . S
C623 C620 1.356 . S
C623 C625 1.358 . S
C623 H681 0.930 . S
C624 N621 1.314 . S
C624 C622 1.353 . S
C624 H682 0.930 . S
C625 N621 1.279 . S
C625 C623 1.358 . S
C625 H683 0.930 . S
C626 C629 1.352 . S
C626 C630 1.356 . S
C626 O677 1.325 . S
C627 N628 1.279 . S
C627 C630 1.358 . S
C627 H684 0.930 . S
N628 C627 1.279 . S
N628 C631 1.314 . S
C629 C626 1.352 . S
C629 C631 1.352 . S
C629 H685 0.926 1_455 S
C630 C626 1.356 . S
C630 C627 1.358 . S
C630 H686 0.930 . S
C631 N628 1.314 . S
C631 C629 1.352 . S
C631 H687 0.932 1_455 S
C632 N633 1.314 . S
C632 C637 1.353 . S
C632 H638 0.930 . S
N633 Li616 1.990 . S
N633 C632 1.314 . S
N633 C635 1.279 1_455 S
C634 C635 1.358 . S
C634 C636 1.356 1_655 S
C634 H688 0.930 . S
C635 N633 1.279 1_655 S
C635 C634 1.358 . S
C635 H639 0.930 . S
C636 C634 1.356 1_455 S
C636 C637 1.348 . S
C637 C632 1.353 . S
C637 C636 1.348 . S
C637 H689 0.929 . S
H638 C632 0.930 . S
H639 C635 0.930 . S
C640 N641 1.314 . S
C640 C642 1.353 . S
C640 H646 0.930 . S
N641 Li617 1.990 . S
N641 C640 1.314 . S
N641 C644 1.279 . S
C642 C640 1.353 . S
C642 C645 1.348 . S
C642 H690 0.929 . S
C643 C644 1.358 . S
C643 C645 1.356 . S
C643 H691 0.930 . S
C644 N641 1.279 . S
C644 C643 1.358 . S
C644 H647 0.930 . S
C645 C642 1.348 . S
C645 C643 1.356 . S
H646 C640 0.930 . S
H647 C644 0.930 . S
C648 C650 1.348 . S
C648 C651 1.356 . S
C648 O678 1.325 . S
N649 C652 1.314 . S
N649 C653 1.279 . S
C650 C648 1.348 . S
C650 C652 1.353 . S
C650 H692 0.929 . S
C651 C648 1.356 . S
C651 C653 1.358 . S
C651 H693 0.930 . S
C652 N649 1.314 . S
C652 C650 1.353 . S
C652 H694 0.930 . S
C653 N649 1.279 . S
C653 C651 1.358 . S
C653 H695 0.930 . S
C654 C655 1.348 . S
C654 C656 1.356 . S
C654 O679 1.325 . S
C655 C654 1.348 . S
C655 C657 1.353 . S
C655 H696 0.929 1_655 S
C656 C654 1.356 . S
C656 C658 1.358 . S
C656 H697 0.930 . S
C657 C655 1.353 . S
C657 N659 1.314 . S
C657 H698 0.930 . S
C658 C656 1.358 . S
C658 N659 1.279 . S
C658 H699 0.930 . S
N659 C657 1.314 . S
N659 C658 1.279 . S
C660 C662 1.353 . S
C660 N663 1.314 . S
C660 H666 0.930 . S
C661 N663 1.279 1_455 S
C661 C664 1.358 . S
C661 H667 0.930 . S
C662 C660 1.353 . S
C662 C665 1.348 . S
C662 H700 0.929 . S
N663 Li618 1.986 . S
N663 C660 1.314 . S
N663 C661 1.279 1_655 S
C664 C661 1.358 . S
C664 C665 1.356 1_455 S
C664 H701 0.930 . S
C665 C662 1.348 . S
C665 C664 1.356 1_655 S
H666 C660 0.930 . S
H667 C661 0.930 . S
C668 N669 1.314 . S
C668 C670 1.353 . S
C668 H674 0.930 . S
N669 Li619 1.990 . S
N669 C668 1.314 . S
N669 C672 1.279 . S
C670 C668 1.353 . S
C670 C673 1.348 . S
C670 H702 0.929 . S
C671 C672 1.358 . S
C671 C673 1.356 . S
C671 H703 0.930 . S
C672 N669 1.279 . S
C672 C671 1.358 . S
C672 H675 0.930 . S
C673 C670 1.348 . S
C673 C671 1.356 . S
H674 C668 0.930 . S
H675 C672 0.930 . S
O676 Li616 1.956 1_655 S
O676 Li617 1.970 . S
O676 Li618 2.003 . S
O676 C620 1.325 . S
O677 Li616 1.970 . S
O677 Li617 1.956 1_455 S
O677 Li619 1.961 . S
O677 C626 1.325 . S
O678 Li616 1.961 . S
O678 Li618 1.925 1_455 S
O678 Li619 1.970 . S
O678 C648 1.325 . S
O679 Li617 1.961 . S
O679 Li618 1.971 . S
O679 Li619 1.956 1_655 S
O679 C654 1.325 . S
H680 C622 0.929 . S
H681 C623 0.930 . S
H682 C624 0.930 . S
H683 C625 0.930 . S
H684 C627 0.930 . S
H685 C629 0.926 1_655 S
H686 C630 0.930 . S
H687 C631 0.932 1_655 S
H688 C634 0.930 . S
H689 C637 0.929 . S
H690 C642 0.929 . S
H691 C643 0.930 . S
H692 C650 0.929 . S
H693 C651 0.930 . S
H694 C652 0.930 . S
H695 C653 0.930 . S
H696 C655 0.929 1_455 S
H697 C656 0.930 . S
H698 C657 0.930 . S
H699 C658 0.930 . S
H700 C662 0.929 . S
H701 C664 0.930 . S
H702 C670 0.929 . S
H703 C671 0.930 . S
Li704 N721 1.990 . S
Li704 O764 1.956 1_545 S
Li704 O765 1.970 . S
Li704 O766 1.961 . S
Li705 N729 1.990 . S
Li705 O764 1.970 . S
Li705 O765 1.956 1_565 S
Li705 O767 1.961 . S
Li706 N751 1.990 . S
Li706 O764 1.961 1_545 S
Li706 O766 1.956 . S
Li706 O767 1.970 1_545 S
Li707 N757 1.990 . S
Li707 O765 1.961 . S
Li707 O766 1.970 . S
Li707 O767 1.956 1_545 S
C708 C710 1.348 . S
C708 C711 1.356 . S
C708 O764 1.325 . S
N709 C712 1.314 . S
N709 C713 1.279 . S
C710 C708 1.348 . S
C710 C712 1.353 . S
C710 H768 0.929 . S
C711 C708 1.356 . S
C711 C713 1.358 . S
C711 H769 0.930 . S
C712 N709 1.314 . S
C712 C710 1.353 . S
C712 H770 0.930 . S
C713 N709 1.279 . S
C713 C711 1.358 . S
C713 H771 0.930 . S
C714 C717 1.335 1_545 S
C714 C718 1.353 . S
C714 O765 1.326 . S
C715 N716 1.291 . S
C715 C718 1.360 1_565 S
C715 H772 0.916 1_565 S
N716 C715 1.291 . S
N716 C719 1.314 . S
C717 C714 1.335 1_565 S
C717 C719 1.353 . S
C717 H773 0.929 . S
C718 C714 1.353 . S
C718 C715 1.360 1_545 S
C718 H774 0.944 . S
C719 N716 1.314 . S
C719 C717 1.353 . S
C719 H775 0.930 . S
C720 N721 1.314 . S
C720 C725 1.353 . S
C720 H726 0.930 . S
N721 Li704 1.990 . S
N721 C720 1.314 . S
N721 C723 1.279 1_545 S
C722 C723 1.355 . S
C722 C724 1.331 1_565 S
C722 H776 0.959 . S
C723 N721 1.279 1_565 S
C723 C722 1.355 . S
C723 H727 0.930 . S
C724 C722 1.331 1_545 S
C724 C725 1.348 . S
C725 C720 1.353 . S
C725 C724 1.348 . S
C725 H777 0.929 . S
H726 C720 0.930 . S
H727 C723 0.930 . S
C728 N729 1.314 . S
C728 C730 1.353 . S
C728 H734 0.930 . S
N729 Li705 1.990 . S
N729 C728 1.314 . S
N729 C732 1.279 . S
C730 C728 1.353 . S
C730 C733 1.348 . S
C730 H778 0.929 . S
C731 C732 1.358 . S
C731 C733 1.356 . S
C731 H779 0.930 . S
C732 N729 1.279 . S
C732 C731 1.358 . S
C732 H735 0.930 . S
C733 C730 1.348 . S
C733 C731 1.356 . S
H734 C728 0.930 . S
H735 C732 0.930 . S
C736 C738 1.348 . S
C736 C739 1.356 . S
C736 O766 1.325 . S
N737 C740 1.314 . S
N737 C741 1.279 . S
C738 C736 1.348 . S
C738 C740 1.353 . S
C738 H780 0.929 . S
C739 C736 1.356 . S
C739 C741 1.358 . S
C739 H781 0.930 . S
C740 N737 1.314 . S
C740 C738 1.353 . S
C740 H782 0.930 . S
C741 N737 1.279 . S
C741 C739 1.358 . S
C741 H783 0.930 . S
C742 C743 1.348 1_565 S
C742 C744 1.356 . S
C742 O767 1.325 . S
C743 C742 1.348 1_545 S
C743 C745 1.353 1_545 S
C743 H784 0.929 . S
C744 C742 1.356 . S
C744 C746 1.358 . S
C744 H785 0.930 . S
C745 C743 1.353 1_565 S
C745 N747 1.314 . S
C745 H786 0.930 1_565 S
C746 C744 1.358 . S
C746 N747 1.279 . S
C746 H787 0.930 . S
N747 C745 1.314 . S
N747 C746 1.279 . S
C748 C750 1.353 . S
C748 N751 1.314 1_565 S
C748 H754 0.930 . S
C749 N751 1.279 . S
C749 C752 1.358 . S
C749 H755 0.930 . S
C750 C748 1.353 . S
C750 C753 1.348 1_565 S
C750 H788 0.929 . S
N751 Li706 1.990 . S
N751 C748 1.314 1_545 S
N751 C749 1.279 . S
C752 C749 1.358 . S
C752 C753 1.356 . S
C752 H789 0.930 . S
C753 C750 1.348 1_545 S
C753 C752 1.356 . S
H754 C748 0.930 . S
H755 C749 0.930 . S
C756 N757 1.314 . S
C756 C758 1.353 . S
C756 H762 0.930 . S
N757 Li707 1.990 . S
N757 C756 1.314 . S
N757 C760 1.279 . S
C758 C756 1.353 . S
C758 C761 1.348 . S
C758 H790 0.929 . S
C759 C760 1.358 . S
C759 C761 1.356 . S
C759 H791 0.930 . S
C760 N757 1.279 . S
C760 C759 1.358 . S
C760 H763 0.930 . S
C761 C758 1.348 . S
C761 C759 1.356 . S
H762 C756 0.930 . S
H763 C760 0.930 . S
O764 Li704 1.956 1_565 S
O764 Li705 1.970 . S
O764 Li706 1.961 1_565 S
O764 C708 1.325 . S
O765 Li704 1.970 . S
O765 Li705 1.956 1_545 S
O765 Li707 1.961 . S
O765 C714 1.326 . S
O766 Li704 1.961 . S
O766 Li706 1.956 . S
O766 Li707 1.970 . S
O766 C736 1.325 . S
O767 Li705 1.961 . S
O767 Li706 1.970 1_565 S
O767 Li707 1.956 1_565 S
O767 C742 1.325 . S
H768 C710 0.929 . S
H769 C711 0.930 . S
H770 C712 0.930 . S
H771 C713 0.930 . S
H772 C715 0.916 1_545 S
H773 C717 0.929 . S
H774 C718 0.944 . S
H775 C719 0.930 . S
H776 C722 0.959 . S
H777 C725 0.929 . S
H778 C730 0.929 . S
H779 C731 0.930 . S
H780 C738 0.929 . S
H781 C739 0.930 . S
H782 C740 0.930 . S
H783 C741 0.930 . S
H784 C743 0.929 . S
H785 C744 0.930 . S
H786 C745 0.930 1_545 S
H787 C746 0.930 . S
H788 C750 0.929 . S
H789 C752 0.930 . S
H790 C758 0.929 . S
H791 C759 0.930 . S
Li792 N809 1.990 . S
Li792 O852 1.956 . S
Li792 O853 1.970 . S
Li792 O854 1.961 . S
Li793 N817 1.990 . S
Li793 O852 1.970 . S
Li793 O853 1.956 . S
Li793 O855 1.961 . S
Li794 N839 1.990 . S
Li794 O852 1.961 . S
Li794 O854 1.956 . S
Li794 O855 1.970 . S
Li795 N845 1.990 . S
Li795 O853 1.961 . S
Li795 O854 1.970 . S
Li795 O855 1.956 . S
C796 C798 1.348 . S
C796 C799 1.356 . S
C796 O852 1.325 . S
N797 C800 1.314 . S
N797 C801 1.279 . S
C798 C796 1.348 . S
C798 C800 1.353 . S
C798 H856 0.929 . S
C799 C796 1.356 . S
C799 C801 1.358 . S
C799 H857 0.930 . S
C800 N797 1.314 . S
C800 C798 1.353 . S
C800 H858 0.930 . S
C801 N797 1.279 . S
C801 C799 1.358 . S
C801 H859 0.930 . S
C802 C805 1.348 . S
C802 C806 1.356 . S
C802 O853 1.325 . S
C803 N804 1.279 . S
C803 C806 1.358 . S
C803 H860 0.930 . S
N804 C803 1.279 . S
N804 C807 1.314 . S
C805 C802 1.348 . S
C805 C807 1.353 . S
C805 H861 0.929 . S
C806 C802 1.356 . S
C806 C803 1.358 . S
C806 H862 0.930 . S
C807 N804 1.314 . S
C807 C805 1.353 . S
C807 H863 0.930 . S
C808 N809 1.314 . S
C808 C813 1.353 . S
C808 H814 0.930 . S
N809 Li792 1.990 . S
N809 C808 1.314 . S
N809 C811 1.279 . S
C810 C811 1.358 . S
C810 C812 1.356 . S
C810 H864 0.930 . S
C811 N809 1.279 . S
C811 C810 1.358 . S
C811 H815 0.930 . S
C812 C810 1.356 . S
C812 C813 1.348 . S
C813 C808 1.353 . S
C813 C812 1.348 . S
C813 H865 0.929 . S
H814 C808 0.930 . S
H815 C811 0.930 . S
C816 N817 1.314 . S
C816 C818 1.353 . S
C816 H822 0.930 . S
N817 Li793 1.990 . S
N817 C816 1.314 . S
N817 C820 1.279 . S
C818 C816 1.353 . S
C818 C821 1.348 . S
C818 H866 0.929 . S
C819 C820 1.358 . S
C819 C821 1.356 . S
C819 H867 0.930 . S
C820 N817 1.279 . S
C820 C819 1.358 . S
C820 H823 0.930 . S
C821 C818 1.348 . S
C821 C819 1.356 . S
H822 C816 0.930 . S
H823 C820 0.930 . S
C824 C826 1.348 . S
C824 C827 1.356 . S
C824 O854 1.325 . S
N825 C828 1.314 . S
N825 C829 1.279 . S
C826 C824 1.348 . S
C826 C828 1.353 . S
C826 H868 0.929 . S
C827 C824 1.356 . S
C827 C829 1.358 . S
C827 H869 0.930 . S
C828 N825 1.314 . S
C828 C826 1.353 . S
C828 H870 0.930 . S
C829 N825 1.279 . S
C829 C827 1.358 . S
C829 H871 0.930 . S
C830 C831 1.348 . S
C830 C832 1.356 . S
C830 O855 1.325 . S
C831 C830 1.348 . S
C831 C833 1.353 . S
C831 H872 0.929 . S
C832 C830 1.356 . S
C832 C834 1.358 . S
C832 H873 0.930 . S
C833 C831 1.353 . S
C833 N835 1.314 . S
C833 H874 0.930 . S
C834 C832 1.358 . S
C834 N835 1.279 . S
C834 H875 0.930 . S
N835 C833 1.314 . S
N835 C834 1.279 . S
C836 C838 1.353 . S
C836 N839 1.314 . S
C836 H842 0.930 . S
C837 N839 1.279 . S
C837 C840 1.358 . S
C837 H843 0.930 . S
C838 C836 1.353 . S
C838 C841 1.348 . S
C838 H876 0.929 . S
N839 Li794 1.990 . S
N839 C836 1.314 . S
N839 C837 1.279 . S
C840 C837 1.358 . S
C840 C841 1.356 . S
C840 H877 0.930 . S
C841 C838 1.348 . S
C841 C840 1.356 . S
H842 C836 0.930 . S
H843 C837 0.930 . S
C844 N845 1.314 . S
C844 C846 1.353 . S
C844 H850 0.930 . S
N845 Li795 1.990 . S
N845 C844 1.314 . S
N845 C848 1.279 . S
C846 C844 1.353 . S
C846 C849 1.348 . S
C846 H878 0.929 . S
C847 C848 1.358 . S
C847 C849 1.356 . S
C847 H879 0.930 . S
C848 N845 1.279 . S
C848 C847 1.358 . S
C848 H851 0.930 . S
C849 C846 1.348 . S
C849 C847 1.356 . S
H850 C844 0.930 . S
H851 C848 0.930 . S
O852 Li792 1.956 . S
O852 Li793 1.970 . S
O852 Li794 1.961 . S
O852 C796 1.325 . S
O853 Li792 1.970 . S
O853 Li793 1.956 . S
O853 Li795 1.961 . S
O853 C802 1.325 . S
O854 Li792 1.961 . S
O854 Li794 1.956 . S
O854 Li795 1.970 . S
O854 C824 1.325 . S
O855 Li793 1.961 . S
O855 Li794 1.970 . S
O855 Li795 1.956 . S
O855 C830 1.325 . S
H856 C798 0.929 . S
H857 C799 0.930 . S
H858 C800 0.930 . S
H859 C801 0.930 . S
H860 C803 0.930 . S
H861 C805 0.929 . S
H862 C806 0.930 . S
H863 C807 0.930 . S
H864 C810 0.930 . S
H865 C813 0.929 . S
H866 C818 0.929 . S
H867 C819 0.930 . S
H868 C826 0.929 . S
H869 C827 0.930 . S
H870 C828 0.930 . S
H871 C829 0.930 . S
H872 C831 0.929 . S
H873 C832 0.930 . S
H874 C833 0.930 . S
H875 C834 0.930 . S
H876 C838 0.929 . S
H877 C840 0.930 . S
H878 C846 0.929 . S
H879 C847 0.930 . S
Li880 N897 1.990 . S
Li880 O940 1.956 . S
Li880 O941 1.970 . S
Li880 O942 1.961 . S
Li881 N905 1.990 . S
Li881 O940 1.970 . S
Li881 O941 1.956 . S
Li881 O943 1.961 . S
Li882 N927 1.990 1_545 S
Li882 O940 1.961 . S
Li882 O942 1.956 . S
Li882 O943 1.970 . S
Li883 N933 1.990 . S
Li883 O941 1.961 . S
Li883 O942 1.970 . S
Li883 O943 1.956 . S
C884 C886 1.348 . S
C884 C887 1.356 . S
C884 O940 1.325 . S
N885 C888 1.314 . S
N885 C889 1.279 . S
C886 C884 1.348 . S
C886 C888 1.353 . S
C886 H944 0.929 . S
C887 C884 1.356 . S
C887 C889 1.358 . S
C887 H945 0.930 . S
C888 N885 1.314 . S
C888 C886 1.353 . S
C888 H946 0.930 . S
C889 N885 1.279 . S
C889 C887 1.358 . S
C889 H947 0.930 . S
C890 C893 1.348 . S
C890 C894 1.356 . S
C890 O941 1.325 . S
C891 N892 1.279 . S
C891 C894 1.358 . S
C891 H948 0.930 . S
N892 C891 1.279 . S
N892 C895 1.314 . S
C893 C890 1.348 . S
C893 C895 1.353 . S
C893 H949 0.929 . S
C894 C890 1.356 . S
C894 C891 1.358 . S
C894 H950 0.930 . S
C895 N892 1.314 . S
C895 C893 1.353 . S
C895 H951 0.930 . S
C896 N897 1.314 . S
C896 C901 1.353 . S
C896 H902 0.930 . S
N897 Li880 1.990 . S
N897 C896 1.314 . S
N897 C899 1.279 . S
C898 C899 1.358 . S
C898 C900 1.356 . S
C898 H952 0.930 . S
C899 N897 1.279 . S
C899 C898 1.358 . S
C899 H903 0.930 . S
C900 C898 1.356 . S
C900 C901 1.348 . S
C901 C896 1.353 . S
C901 C900 1.348 . S
C901 H953 0.929 . S
H902 C896 0.930 . S
H903 C899 0.930 . S
C904 N905 1.314 . S
C904 C906 1.353 . S
C904 H910 0.930 . S
N905 Li881 1.990 . S
N905 C904 1.314 . S
N905 C908 1.279 . S
C906 C904 1.353 . S
C906 C909 1.348 . S
C906 H954 0.929 1_545 S
C907 C908 1.358 . S
C907 C909 1.356 . S
C907 H955 0.930 . S
C908 N905 1.279 . S
C908 C907 1.358 . S
C908 H911 0.930 . S
C909 C906 1.348 . S
C909 C907 1.356 . S
H910 C904 0.930 . S
H911 C908 0.930 . S
C912 C914 1.348 . S
C912 C915 1.356 . S
C912 O942 1.325 . S
N913 C916 1.314 . S
N913 C917 1.279 . S
C914 C912 1.348 . S
C914 C916 1.353 . S
C914 H956 0.929 . S
C915 C912 1.356 . S
C915 C917 1.358 . S
C915 H957 0.930 . S
C916 N913 1.314 . S
C916 C914 1.353 . S
C916 H958 0.930 . S
C917 N913 1.279 . S
C917 C915 1.358 . S
C917 H959 0.930 . S
C918 C919 1.348 . S
C918 C920 1.356 . S
C918 O943 1.325 1_565 S
C919 C918 1.348 . S
C919 C921 1.353 . S
C919 H960 0.929 . S
C920 C918 1.356 . S
C920 C922 1.358 . S
C920 H961 0.930 . S
C921 C919 1.353 . S
C921 N923 1.314 . S
C921 H962 0.930 . S
C922 C920 1.358 . S
C922 N923 1.279 . S
C922 H963 0.930 . S
N923 C921 1.314 . S
N923 C922 1.279 . S
C924 C926 1.353 . S
C924 N927 1.314 . S
C924 H930 0.930 . S
C925 N927 1.279 . S
C925 C928 1.358 . S
C925 H931 0.930 . S
C926 C924 1.353 . S
C926 C929 1.348 . S
C926 H964 0.929 . S
N927 Li882 1.990 1_565 S
N927 C924 1.314 . S
N927 C925 1.279 . S
C928 C925 1.358 . S
C928 C929 1.356 . S
C928 H965 0.930 . S
C929 C926 1.348 . S
C929 C928 1.356 . S
H930 C924 0.930 . S
H931 C925 0.930 . S
C932 N933 1.314 . S
C932 C934 1.353 . S
C932 H938 0.930 . S
N933 Li883 1.990 . S
N933 C932 1.314 . S
N933 C936 1.279 . S
C934 C932 1.353 . S
C934 C937 1.348 . S
C934 H966 0.929 . S
C935 C936 1.357 . S
C935 C937 1.381 . S
C935 H967 0.907 1_545 S
C936 N933 1.279 . S
C936 C935 1.357 . S
C936 H939 0.930 1_545 S
C937 C934 1.348 . S
C937 C935 1.381 . S
H938 C932 0.930 . S
H939 C936 0.930 1_565 S
O940 Li880 1.956 . S
O940 Li881 1.970 . S
O940 Li882 1.961 . S
O940 C884 1.325 . S
O941 Li880 1.970 . S
O941 Li881 1.956 . S
O941 Li883 1.961 . S
O941 C890 1.325 . S
O942 Li880 1.961 . S
O942 Li882 1.956 . S
O942 Li883 1.970 . S
O942 C912 1.325 . S
O943 Li881 1.961 . S
O943 Li882 1.970 . S
O943 Li883 1.956 . S
O943 C918 1.325 1_545 S
H944 C886 0.929 . S
H945 C887 0.930 . S
H946 C888 0.930 . S
H947 C889 0.930 . S
H948 C891 0.930 . S
H949 C893 0.929 . S
H950 C894 0.930 . S
H951 C895 0.930 . S
H952 C898 0.930 . S
H953 C901 0.929 . S
H954 C906 0.929 1_565 S
H955 C907 0.930 . S
H956 C914 0.929 . S
H957 C915 0.930 . S
H958 C916 0.930 . S
H959 C917 0.930 . S
H960 C919 0.929 . S
H961 C920 0.930 . S
H962 C921 0.930 . S
H963 C922 0.930 . S
H964 C926 0.929 . S
H965 C928 0.930 . S
H966 C934 0.929 . S
H967 C935 0.907 1_565 S
Li968 N985 1.992 . S
Li968 O1028 1.987 . S
Li968 O1029 1.971 1_554 S
Li968 O1030 1.926 1_554 S
Li969 N993 1.990 . S
Li969 O1028 1.970 . S
Li969 O1029 1.956 1_554 S
Li969 O1031 1.988 . S
Li970 N1015 1.990 . S
Li970 O1028 1.961 . S
Li970 O1030 1.956 1_554 S
Li970 O1031 1.968 . S
Li971 N1021 1.990 . S
Li971 O1029 1.961 . S
Li971 O1030 1.970 . S
Li971 O1031 1.931 1_556 S
C972 C974 1.348 . S
C972 C975 1.356 . S
C972 O1028 1.325 . S
N973 C976 1.314 . S
N973 C977 1.279 . S
C974 C972 1.348 . S
C974 C976 1.353 . S
C974 H1032 0.929 . S
C975 C972 1.356 . S
C975 C977 1.358 . S
C975 H1033 0.930 . S
C976 N973 1.314 . S
C976 C974 1.353 . S
C976 H1034 0.930 . S
C977 N973 1.279 . S
C977 C975 1.358 . S
C977 H1035 0.930 . S
C978 C981 1.348 1_556 S
C978 C982 1.356 . S
C978 O1029 1.325 . S
C979 N980 1.279 . S
C979 C982 1.358 . S
C979 H1036 0.930 . S
N980 C979 1.279 . S
N980 C983 1.319 . S
C981 C978 1.348 1_554 S
C981 C983 1.355 1_554 S
C981 H1037 0.929 . S
C982 C978 1.356 . S
C982 C979 1.358 . S
C982 H1038 0.930 . S
C983 N980 1.319 . S
C983 C981 1.355 1_556 S
C983 H1039 0.922 1_556 S
C984 N985 1.314 1_556 S
C984 C989 1.353 . S
C984 H990 0.930 . S
N985 Li968 1.992 . S
N985 C984 1.314 1_554 S
N985 C987 1.279 . S
C986 C987 1.358 . S
C986 C988 1.366 . S
C986 H1040 0.930 . S
C987 N985 1.279 . S
C987 C986 1.358 . S
C987 H991 0.930 . S
C988 C986 1.366 . S
C988 C989 1.337 1_554 S
C989 C984 1.353 . S
C989 C988 1.337 1_556 S
C989 H1041 0.929 . S
H990 C984 0.930 . S
H991 C987 0.930 . S
C992 N993 1.314 . S
C992 C994 1.353 . S
C992 H998 0.930 . S
N993 Li969 1.990 . S
N993 C992 1.314 . S
N993 C996 1.279 . S
C994 C992 1.353 . S
C994 C997 1.348 . S
C994 H1042 0.929 . S
C995 C996 1.358 . S
C995 C997 1.356 . S
C995 H1043 0.930 . S
C996 N993 1.279 . S
C996 C995 1.358 . S
C996 H999 0.930 . S
C997 C994 1.348 . S
C997 C995 1.356 . S
H998 C992 0.930 . S
H999 C996 0.930 . S
C1000 C1002 1.348 . S
C1000 C1003 1.356 . S
C1000 O1030 1.325 . S
N1001 C1004 1.314 . S
N1001 C1005 1.279 . S
C1002 C1000 1.348 . S
C1002 C1004 1.353 . S
C1002 H1044 0.929 . S
C1003 C1000 1.356 . S
C1003 C1005 1.358 . S
C1003 H1045 0.930 . S
C1004 N1001 1.314 . S
C1004 C1002 1.353 . S
C1004 H1046 0.930 . S
C1005 N1001 1.279 . S
C1005 C1003 1.358 . S
C1005 H1047 0.930 . S
C1006 C1007 1.348 1_554 S
C1006 C1008 1.356 . S
C1006 O1031 1.324 . S
C1007 C1006 1.348 1_556 S
C1007 C1009 1.353 . S
C1007 H1048 0.929 . S
C1008 C1006 1.356 . S
C1008 C1010 1.358 . S
C1008 H1049 0.930 . S
C1009 C1007 1.353 . S
C1009 N1011 1.314 . S
C1009 H1050 0.930 . S
C1010 C1008 1.358 . S
C1010 N1011 1.279 1_554 S
C1010 H1051 0.930 . S
N1011 C1009 1.314 . S
N1011 C1010 1.279 1_556 S
C1012 C1014 1.353 . S
C1012 N1015 1.314 . S
C1012 H1018 0.930 . S
C1013 N1015 1.279 1_556 S
C1013 C1016 1.358 . S
C1013 H1019 0.930 . S
C1014 C1012 1.353 . S
C1014 C1017 1.348 . S
C1014 H1052 0.929 . S
N1015 Li970 1.990 . S
N1015 C1012 1.314 . S
N1015 C1013 1.279 1_554 S
C1016 C1013 1.358 . S
C1016 C1017 1.356 1_556 S
C1016 H1053 0.930 . S
C1017 C1014 1.348 . S
C1017 C1016 1.356 1_554 S
H1018 C1012 0.930 . S
H1019 C1013 0.930 . S
C1020 N1021 1.314 . S
C1020 C1022 1.353 . S
C1020 H1026 0.930 . S
N1021 Li971 1.990 . S
N1021 C1020 1.314 . S
N1021 C1024 1.279 . S
C1022 C1020 1.353 . S
C1022 C1025 1.348 . S
C1022 H1054 0.929 . S
C1023 C1024 1.358 . S
C1023 C1025 1.356 . S
C1023 H1055 0.930 . S
C1024 N1021 1.279 . S
C1024 C1023 1.358 . S
C1024 H1027 0.930 . S
C1025 C1022 1.348 . S
C1025 C1023 1.356 . S
H1026 C1020 0.930 . S
H1027 C1024 0.930 . S
O1028 Li968 1.987 . S
O1028 Li969 1.970 . S
O1028 Li970 1.961 . S
O1028 C972 1.325 . S
O1029 Li968 1.971 1_556 S
O1029 Li969 1.956 1_556 S
O1029 Li971 1.961 . S
O1029 C978 1.325 . S
O1030 Li968 1.926 1_556 S
O1030 Li970 1.956 1_556 S
O1030 Li971 1.970 . S
O1030 C1000 1.325 . S
O1031 Li969 1.988 . S
O1031 Li970 1.968 . S
O1031 Li971 1.931 1_554 S
O1031 C1006 1.324 . S
H1032 C974 0.929 . S
H1033 C975 0.930 . S
H1034 C976 0.930 . S
H1035 C977 0.930 . S
H1036 C979 0.930 . S
H1037 C981 0.929 . S
H1038 C982 0.930 . S
H1039 C983 0.922 1_554 S
H1040 C986 0.930 . S
H1041 C989 0.929 . S
H1042 C994 0.929 . S
H1043 C995 0.930 . S
H1044 C1002 0.929 . S
H1045 C1003 0.930 . S
H1046 C1004 0.930 . S
H1047 C1005 0.930 . S
H1048 C1007 0.929 . S
H1049 C1008 0.930 . S
H1050 C1009 0.930 . S
H1051 C1010 0.930 . S
H1052 C1014 0.929 . S
H1053 C1016 0.930 . S
H1054 C1022 0.929 . S
H1055 C1023 0.930 . S
Li1056 N1073 1.990 . S
Li1056 O1116 1.956 . S
Li1056 O1117 1.970 . S
Li1056 O1118 1.961 . S
Li1057 N1081 1.990 . S
Li1057 O1116 1.970 . S
Li1057 O1117 1.956 . S
Li1057 O1119 1.961 . S
Li1058 N1103 1.990 . S
Li1058 O1116 1.961 . S
Li1058 O1118 1.956 . S
Li1058 O1119 1.970 . S
Li1059 N1109 1.990 1_554 S
Li1059 O1117 1.961 . S
Li1059 O1118 1.970 . S
Li1059 O1119 1.956 . S
C1060 C1062 1.348 . S
C1060 C1063 1.356 . S
C1060 O1116 1.325 . S
N1061 C1064 1.314 . S
N1061 C1065 1.279 . S
C1062 C1060 1.348 . S
C1062 C1064 1.353 . S
C1062 H1120 0.929 . S
C1063 C1060 1.356 . S
C1063 C1065 1.358 . S
C1063 H1121 0.930 . S
C1064 N1061 1.314 . S
C1064 C1062 1.353 . S
C1064 H1122 0.930 . S
C1065 N1061 1.279 . S
C1065 C1063 1.358 . S
C1065 H1123 0.930 . S
C1066 C1069 1.348 . S
C1066 C1070 1.356 . S
C1066 O1117 1.325 . S
C1067 N1068 1.279 . S
C1067 C1070 1.358 . S
C1067 H1124 0.930 . S
N1068 C1067 1.279 . S
N1068 C1071 1.314 . S
C1069 C1066 1.348 . S
C1069 C1071 1.353 . S
C1069 H1125 0.929 . S
C1070 C1066 1.356 . S
C1070 C1067 1.358 . S
C1070 H1126 0.930 . S
C1071 N1068 1.314 . S
C1071 C1069 1.353 . S
C1071 H1127 0.930 . S
C1072 N1073 1.314 . S
C1072 C1077 1.353 . S
C1072 H1078 0.883 1_554 S
N1073 Li1056 1.990 . S
N1073 C1072 1.314 . S
N1073 C1075 1.279 . S
C1074 C1075 1.358 . S
C1074 C1076 1.356 . S
C1074 H1128 0.930 . S
C1075 N1073 1.279 . S
C1075 C1074 1.358 . S
C1075 H1079 0.930 . S
C1076 C1074 1.356 . S
C1076 C1077 1.348 . S
C1077 C1072 1.353 . S
C1077 C1076 1.348 . S
C1077 H1129 0.929 1_554 S
H1078 C1072 0.883 1_556 S
H1079 C1075 0.930 . S
C1080 N1081 1.314 . S
C1080 C1082 1.353 . S
C1080 H1086 0.930 . S
N1081 Li1057 1.990 . S
N1081 C1080 1.314 . S
N1081 C1084 1.279 . S
C1082 C1080 1.353 . S
C1082 C1085 1.348 . S
C1082 H1130 0.929 . S
C1083 C1084 1.358 . S
C1083 C1085 1.356 . S
C1083 H1131 0.930 . S
C1084 N1081 1.279 . S
C1084 C1083 1.358 . S
C1084 H1087 0.930 . S
C1085 C1082 1.348 . S
C1085 C1083 1.356 . S
H1086 C1080 0.930 . S
H1087 C1084 0.930 . S
C1088 C1090 1.348 . S
C1088 C1091 1.356 . S
C1088 O1118 1.325 1_556 S
N1089 C1092 1.314 . S
N1089 C1093 1.279 . S
C1090 C1088 1.348 . S
C1090 C1092 1.353 . S
C1090 H1132 0.929 . S
C1091 C1088 1.356 . S
C1091 C1093 1.358 . S
C1091 H1133 0.930 1_556 S
C1092 N1089 1.314 . S
C1092 C1090 1.353 . S
C1092 H1134 0.930 . S
C1093 N1089 1.279 . S
C1093 C1091 1.358 . S
C1093 H1135 0.930 . S
C1094 C1095 1.348 . S
C1094 C1096 1.356 . S
C1094 O1119 1.325 . S
C1095 C1094 1.348 . S
C1095 C1097 1.353 . S
C1095 H1136 0.929 . S
C1096 C1094 1.356 . S
C1096 C1098 1.358 . S
C1096 H1137 0.930 . S
C1097 C1095 1.353 . S
C1097 N1099 1.314 . S
C1097 H1138 0.930 . S
C1098 C1096 1.358 . S
C1098 N1099 1.279 . S
C1098 H1139 0.930 . S
N1099 C1097 1.314 . S
N1099 C1098 1.279 . S
C1100 C1102 1.353 . S
C1100 N1103 1.314 . S
C1100 H1106 0.930 . S
C1101 N1103 1.279 . S
C1101 C1104 1.358 . S
C1101 H1107 0.930 . S
C1102 C1100 1.353 . S
C1102 C1105 1.348 . S
C1102 H1140 0.929 . S
N1103 Li1058 1.990 . S
N1103 C1100 1.314 . S
N1103 C1101 1.279 . S
C1104 C1101 1.358 . S
C1104 C1105 1.356 . S
C1104 H1141 0.930 . S
C1105 C1102 1.348 . S
C1105 C1104 1.356 . S
H1106 C1100 0.930 . S
H1107 C1101 0.930 . S
C1108 N1109 1.314 . S
C1108 C1110 1.353 . S
C1108 H1114 0.930 . S
N1109 Li1059 1.990 1_556 S
N1109 C1108 1.314 . S
N1109 C1112 1.279 . S
C1110 C1108 1.353 . S
C1110 C1113 1.348 . S
C1110 H1142 0.929 . S
C1111 C1112 1.358 . S
C1111 C1113 1.356 . S
C1111 H1143 0.930 . S
C1112 N1109 1.279 . S
C1112 C1111 1.358 . S
C1112 H1115 0.930 . S
C1113 C1110 1.348 . S
C1113 C1111 1.356 . S
H1114 C1108 0.930 . S
H1115 C1112 0.930 . S
O1116 Li1056 1.956 . S
O1116 Li1057 1.970 . S
O1116 Li1058 1.961 . S
O1116 C1060 1.325 . S
O1117 Li1056 1.970 . S
O1117 Li1057 1.956 . S
O1117 Li1059 1.961 . S
O1117 C1066 1.325 . S
O1118 Li1056 1.961 . S
O1118 Li1058 1.956 . S
O1118 Li1059 1.970 . S
O1118 C1088 1.325 1_554 S
O1119 Li1057 1.961 . S
O1119 Li1058 1.970 . S
O1119 Li1059 1.956 . S
O1119 C1094 1.325 . S
H1120 C1062 0.929 . S
H1121 C1063 0.930 . S
H1122 C1064 0.930 . S
H1123 C1065 0.930 . S
H1124 C1067 0.930 . S
H1125 C1069 0.929 . S
H1126 C1070 0.930 . S
H1127 C1071 0.930 . S
H1128 C1074 0.930 . S
H1129 C1077 0.929 1_556 S
H1130 C1082 0.929 . S
H1131 C1083 0.930 . S
H1132 C1090 0.929 . S
H1133 C1091 0.930 1_554 S
H1134 C1092 0.930 . S
H1135 C1093 0.930 . S
H1136 C1095 0.929 . S
H1137 C1096 0.930 . S
H1138 C1097 0.930 . S
H1139 C1098 0.930 . S
H1140 C1102 0.929 . S
H1141 C1104 0.930 . S
H1142 C1110 0.929 . S
H1143 C1111 0.930 . S
Li1144 N1161 1.990 . S
Li1144 O1204 1.956 . S
Li1144 O1205 1.970 . S
Li1144 O1206 1.961 . S
Li1145 N1169 1.990 . S
Li1145 O1204 1.970 . S
Li1145 O1205 1.956 . S
Li1145 O1207 1.961 . S
Li1146 N1191 1.990 . S
Li1146 O1204 1.961 . S
Li1146 O1206 1.956 . S
Li1146 O1207 1.970 . S
Li1147 N1197 1.990 . S
Li1147 O1205 1.961 . S
Li1147 O1206 1.970 . S
Li1147 O1207 1.956 . S
C1148 C1150 1.348 . S
C1148 C1151 1.356 . S
C1148 O1204 1.325 . S
N1149 C1152 1.314 . S
N1149 C1153 1.279 . S
C1150 C1148 1.348 . S
C1150 C1152 1.353 . S
C1150 H1208 0.929 . S
C1151 C1148 1.356 . S
C1151 C1153 1.358 . S
C1151 H1209 0.930 . S
C1152 N1149 1.314 . S
C1152 C1150 1.353 . S
C1152 H1210 0.930 . S
C1153 N1149 1.279 . S
C1153 C1151 1.358 . S
C1153 H1211 0.930 . S
C1154 C1157 1.348 . S
C1154 C1158 1.356 . S
C1154 O1205 1.325 . S
C1155 N1156 1.279 . S
C1155 C1158 1.358 . S
C1155 H1212 0.930 . S
N1156 C1155 1.279 . S
N1156 C1159 1.314 . S
C1157 C1154 1.348 . S
C1157 C1159 1.353 . S
C1157 H1213 0.929 . S
C1158 C1154 1.356 . S
C1158 C1155 1.358 . S
C1158 H1214 0.930 . S
C1159 N1156 1.314 . S
C1159 C1157 1.353 . S
C1159 H1215 0.930 . S
C1160 N1161 1.314 . S
C1160 C1165 1.353 . S
C1160 H1166 0.930 . S
N1161 Li1144 1.990 . S
N1161 C1160 1.314 . S
N1161 C1163 1.279 . S
C1162 C1163 1.358 . S
C1162 C1164 1.356 . S
C1162 H1216 0.930 . S
C1163 N1161 1.279 . S
C1163 C1162 1.358 . S
C1163 H1167 0.930 . S
C1164 C1162 1.356 . S
C1164 C1165 1.348 . S
C1165 C1160 1.353 . S
C1165 C1164 1.348 . S
C1165 H1217 0.929 . S
H1166 C1160 0.930 . S
H1167 C1163 0.930 . S
C1168 N1169 1.314 . S
C1168 C1170 1.353 . S
C1168 H1174 0.930 . S
N1169 Li1145 1.990 . S
N1169 C1168 1.314 . S
N1169 C1172 1.279 . S
C1170 C1168 1.353 . S
C1170 C1173 1.348 . S
C1170 H1218 0.929 . S
C1171 C1172 1.358 . S
C1171 C1173 1.356 . S
C1171 H1219 0.930 . S
C1172 N1169 1.279 . S
C1172 C1171 1.358 . S
C1172 H1175 0.930 . S
C1173 C1170 1.348 . S
C1173 C1171 1.356 . S
H1174 C1168 0.930 . S
H1175 C1172 0.930 . S
C1176 C1178 1.348 . S
C1176 C1179 1.356 . S
C1176 O1206 1.325 . S
N1177 C1180 1.314 . S
N1177 C1181 1.279 . S
C1178 C1176 1.348 . S
C1178 C1180 1.353 . S
C1178 H1220 0.929 . S
C1179 C1176 1.356 . S
C1179 C1181 1.358 . S
C1179 H1221 0.930 . S
C1180 N1177 1.314 . S
C1180 C1178 1.353 . S
C1180 H1222 0.930 . S
C1181 N1177 1.279 . S
C1181 C1179 1.358 . S
C1181 H1223 0.930 . S
C1182 C1183 1.348 1_554 S
C1182 C1184 1.356 . S
C1182 O1207 1.325 . S
C1183 C1182 1.348 1_556 S
C1183 C1185 1.353 . S
C1183 H1224 0.929 . S
C1184 C1182 1.356 . S
C1184 C1186 1.358 1_554 S
C1184 H1225 0.930 . S
C1185 C1183 1.353 . S
C1185 N1187 1.314 . S
C1185 H1226 0.930 . S
C1186 C1184 1.358 1_556 S
C1186 N1187 1.279 . S
C1186 H1227 0.930 . S
N1187 C1185 1.314 . S
N1187 C1186 1.279 . S
C1188 C1190 1.353 . S
C1188 N1191 1.314 1_556 S
C1188 H1194 0.930 . S
C1189 N1191 1.279 1_556 S
C1189 C1192 1.358 . S
C1189 H1195 0.930 1_556 S
C1190 C1188 1.353 . S
C1190 C1193 1.348 . S
C1190 H1228 0.929 . S
N1191 Li1146 1.990 . S
N1191 C1188 1.314 1_554 S
N1191 C1189 1.279 1_554 S
C1192 C1189 1.358 . S
C1192 C1193 1.356 . S
C1192 H1229 0.930 . S
C1193 C1190 1.348 . S
C1193 C1192 1.356 . S
H1194 C1188 0.930 . S
H1195 C1189 0.930 1_554 S
C1196 N1197 1.314 . S
C1196 C1198 1.353 . S
C1196 H1202 0.930 . S
N1197 Li1147 1.990 . S
N1197 C1196 1.314 . S
N1197 C1200 1.279 . S
C1198 C1196 1.353 . S
C1198 C1201 1.348 . S
C1198 H1230 0.929 . S
C1199 C1200 1.358 . S
C1199 C1201 1.356 . S
C1199 H1231 0.930 . S
C1200 N1197 1.279 . S
C1200 C1199 1.358 . S
C1200 H1203 0.930 . S
C1201 C1198 1.348 . S
C1201 C1199 1.356 . S
H1202 C1196 0.930 . S
H1203 C1200 0.930 . S
O1204 Li1144 1.956 . S
O1204 Li1145 1.970 . S
O1204 Li1146 1.961 . S
O1204 C1148 1.325 . S
O1205 Li1144 1.970 . S
O1205 Li1145 1.956 . S
O1205 Li1147 1.961 . S
O1205 C1154 1.325 . S
O1206 Li1144 1.961 . S
O1206 Li1146 1.956 . S
O1206 Li1147 1.970 . S
O1206 C1176 1.325 . S
O1207 Li1145 1.961 . S
O1207 Li1146 1.970 . S
O1207 Li1147 1.956 . S
O1207 C1182 1.325 . S
H1208 C1150 0.929 . S
H1209 C1151 0.930 . S
H1210 C1152 0.930 . S
H1211 C1153 0.930 . S
H1212 C1155 0.930 . S
H1213 C1157 0.929 . S
H1214 C1158 0.930 . S
H1215 C1159 0.930 . S
H1216 C1162 0.930 . S
H1217 C1165 0.929 . S
H1218 C1170 0.929 . S
H1219 C1171 0.930 . S
H1220 C1178 0.929 . S
H1221 C1179 0.930 . S
H1222 C1180 0.930 . S
H1223 C1181 0.930 . S
H1224 C1183 0.929 . S
H1225 C1184 0.930 . S
H1226 C1185 0.930 . S
H1227 C1186 0.930 . S
H1228 C1190 0.929 . S
H1229 C1192 0.930 . S
H1230 C1198 0.929 . S
H1231 C1199 0.930 . S
Li1232 N1249 1.990 . S
Li1232 O1292 1.956 . S
Li1232 O1293 1.970 . S
Li1232 O1294 1.961 . S
Li1233 N1257 1.990 . S
Li1233 O1292 1.970 . S
Li1233 O1293 1.956 . S
Li1233 O1295 1.961 . S
Li1234 N1279 1.990 . S
Li1234 O1292 1.961 . S
Li1234 O1294 1.956 . S
Li1234 O1295 1.970 . S
Li1235 N1285 1.990 . S
Li1235 O1293 1.961 . S
Li1235 O1294 1.970 . S
Li1235 O1295 1.956 . S
C1236 C1238 1.348 . S
C1236 C1239 1.356 . S
C1236 O1292 1.325 . S
N1237 C1240 1.314 . S
N1237 C1241 1.279 . S
C1238 C1236 1.348 . S
C1238 C1240 1.353 . S
C1238 H1296 0.929 . S
C1239 C1236 1.356 . S
C1239 C1241 1.358 . S
C1239 H1297 0.930 . S
C1240 N1237 1.314 . S
C1240 C1238 1.353 . S
C1240 H1298 0.930 . S
C1241 N1237 1.279 . S
C1241 C1239 1.358 . S
C1241 H1299 0.930 . S
C1242 C1245 1.348 . S
C1242 C1246 1.356 . S
C1242 O1293 1.325 . S
C1243 N1244 1.279 . S
C1243 C1246 1.358 . S
C1243 H1300 0.930 . S
N1244 C1243 1.279 . S
N1244 C1247 1.314 . S
C1245 C1242 1.348 . S
C1245 C1247 1.353 . S
C1245 H1301 0.929 . S
C1246 C1242 1.356 . S
C1246 C1243 1.358 . S
C1246 H1302 0.930 . S
C1247 N1244 1.314 . S
C1247 C1245 1.353 . S
C1247 H1303 0.930 . S
C1248 N1249 1.314 . S
C1248 C1253 1.353 . S
C1248 H1254 0.930 . S
N1249 Li1232 1.990 . S
N1249 C1248 1.314 . S
N1249 C1251 1.279 . S
C1250 C1251 1.358 . S
C1250 C1252 1.356 . S
C1250 H1304 0.930 . S
C1251 N1249 1.279 . S
C1251 C1250 1.358 . S
C1251 H1255 0.930 . S
C1252 C1250 1.356 . S
C1252 C1253 1.348 . S
C1253 C1248 1.353 . S
C1253 C1252 1.348 . S
C1253 H1305 0.929 . S
H1254 C1248 0.930 . S
H1255 C1251 0.930 . S
C1256 N1257 1.314 . S
C1256 C1258 1.353 . S
C1256 H1262 0.930 . S
N1257 Li1233 1.990 . S
N1257 C1256 1.314 . S
N1257 C1260 1.279 . S
C1258 C1256 1.353 . S
C1258 C1261 1.348 . S
C1258 H1306 0.929 . S
C1259 C1260 1.358 . S
C1259 C1261 1.356 . S
C1259 H1307 0.930 . S
C1260 N1257 1.279 . S
C1260 C1259 1.358 . S
C1260 H1263 0.930 . S
C1261 C1258 1.348 . S
C1261 C1259 1.356 . S
H1262 C1256 0.930 . S
H1263 C1260 0.930 . S
C1264 C1266 1.348 . S
C1264 C1267 1.356 . S
C1264 O1294 1.325 . S
N1265 C1268 1.314 . S
N1265 C1269 1.279 . S
C1266 C1264 1.348 . S
C1266 C1268 1.353 . S
C1266 H1308 0.929 . S
C1267 C1264 1.356 . S
C1267 C1269 1.358 . S
C1267 H1309 0.930 . S
C1268 N1265 1.314 . S
C1268 C1266 1.353 . S
C1268 H1310 0.930 . S
C1269 N1265 1.279 . S
C1269 C1267 1.358 . S
C1269 H1311 0.930 . S
C1270 C1271 1.348 . S
C1270 C1272 1.356 . S
C1270 O1295 1.325 . S
C1271 C1270 1.348 . S
C1271 C1273 1.353 . S
C1271 H1312 0.929 . S
C1272 C1270 1.356 . S
C1272 C1274 1.358 . S
C1272 H1313 0.930 . S
C1273 C1271 1.353 . S
C1273 N1275 1.314 . S
C1273 H1314 0.930 . S
C1274 C1272 1.358 . S
C1274 N1275 1.279 . S
C1274 H1315 0.930 . S
N1275 C1273 1.314 . S
N1275 C1274 1.279 . S
C1276 C1278 1.353 . S
C1276 N1279 1.314 . S
C1276 H1282 0.930 . S
C1277 N1279 1.279 . S
C1277 C1280 1.358 . S
C1277 H1283 0.930 . S
C1278 C1276 1.353 . S
C1278 C1281 1.348 . S
C1278 H1316 0.929 . S
N1279 Li1234 1.990 . S
N1279 C1276 1.314 . S
N1279 C1277 1.279 . S
C1280 C1277 1.358 . S
C1280 C1281 1.356 . S
C1280 H1317 0.930 . S
C1281 C1278 1.348 . S
C1281 C1280 1.356 . S
H1282 C1276 0.930 . S
H1283 C1277 0.930 . S
C1284 N1285 1.314 . S
C1284 C1286 1.353 . S
C1284 H1290 0.930 . S
N1285 Li1235 1.990 . S
N1285 C1284 1.314 . S
N1285 C1288 1.279 . S
C1286 C1284 1.353 . S
C1286 C1289 1.348 . S
C1286 H1318 0.929 . S
C1287 C1288 1.358 . S
C1287 C1289 1.356 . S
C1287 H1319 0.930 . S
C1288 N1285 1.279 . S
C1288 C1287 1.358 . S
C1288 H1291 0.930 . S
C1289 C1286 1.348 . S
C1289 C1287 1.356 . S
H1290 C1284 0.930 . S
H1291 C1288 0.930 . S
O1292 Li1232 1.956 . S
O1292 Li1233 1.970 . S
O1292 Li1234 1.961 . S
O1292 C1236 1.325 . S
O1293 Li1232 1.970 . S
O1293 Li1233 1.956 . S
O1293 Li1235 1.961 . S
O1293 C1242 1.325 . S
O1294 Li1232 1.961 . S
O1294 Li1234 1.956 . S
O1294 Li1235 1.970 . S
O1294 C1264 1.325 . S
O1295 Li1233 1.961 . S
O1295 Li1234 1.970 . S
O1295 Li1235 1.956 . S
O1295 C1270 1.325 . S
H1296 C1238 0.929 . S
H1297 C1239 0.930 . S
H1298 C1240 0.930 . S
H1299 C1241 0.930 . S
H1300 C1243 0.930 . S
H1301 C1245 0.929 . S
H1302 C1246 0.930 . S
H1303 C1247 0.930 . S
H1304 C1250 0.930 . S
H1305 C1253 0.929 . S
H1306 C1258 0.929 . S
H1307 C1259 0.930 . S
H1308 C1266 0.929 . S
H1309 C1267 0.930 . S
H1310 C1268 0.930 . S
H1311 C1269 0.930 . S
H1312 C1271 0.929 . S
H1313 C1272 0.930 . S
H1314 C1273 0.930 . S
H1315 C1274 0.930 . S
H1316 C1278 0.929 . S
H1317 C1280 0.930 . S
H1318 C1286 0.929 . S
H1319 C1287 0.930 . S
Li1320 N1337 1.990 . S
Li1320 O1380 1.956 . S
Li1320 O1381 1.970 . S
Li1320 O1382 1.961 . S
Li1321 N1345 1.990 . S
Li1321 O1380 1.970 . S
Li1321 O1381 1.956 . S
Li1321 O1383 1.961 . S
Li1322 N1367 1.990 . S
Li1322 O1380 1.961 . S
Li1322 O1382 1.956 . S
Li1322 O1383 1.970 . S
Li1323 N1373 1.990 . S
Li1323 O1381 1.961 . S
Li1323 O1382 1.970 . S
Li1323 O1383 1.956 . S
C1324 C1326 1.348 . S
C1324 C1327 1.356 . S
C1324 O1380 1.325 . S
N1325 C1328 1.314 . S
N1325 C1329 1.279 . S
C1326 C1324 1.348 . S
C1326 C1328 1.353 . S
C1326 H1384 0.929 . S
C1327 C1324 1.356 . S
C1327 C1329 1.358 . S
C1327 H1385 0.930 . S
C1328 N1325 1.314 . S
C1328 C1326 1.353 . S
C1328 H1386 0.930 . S
C1329 N1325 1.279 . S
C1329 C1327 1.358 . S
C1329 H1387 0.930 . S
C1330 C1333 1.348 . S
C1330 C1334 1.356 . S
C1330 O1381 1.325 . S
C1331 N1332 1.279 . S
C1331 C1334 1.358 . S
C1331 H1388 0.930 . S
N1332 C1331 1.279 . S
N1332 C1335 1.314 . S
C1333 C1330 1.348 . S
C1333 C1335 1.353 . S
C1333 H1389 0.929 . S
C1334 C1330 1.356 . S
C1334 C1331 1.358 . S
C1334 H1390 0.930 . S
C1335 N1332 1.314 . S
C1335 C1333 1.353 . S
C1335 H1391 0.930 . S
C1336 N1337 1.314 . S
C1336 C1341 1.353 . S
C1336 H1342 0.930 . S
N1337 Li1320 1.990 . S
N1337 C1336 1.314 . S
N1337 C1339 1.279 . S
C1338 C1339 1.358 . S
C1338 C1340 1.356 . S
C1338 H1392 0.930 . S
C1339 N1337 1.279 . S
C1339 C1338 1.358 . S
C1339 H1343 0.930 . S
C1340 C1338 1.356 . S
C1340 C1341 1.348 . S
C1341 C1336 1.353 . S
C1341 C1340 1.348 . S
C1341 H1393 0.929 . S
H1342 C1336 0.930 . S
H1343 C1339 0.930 . S
C1344 N1345 1.314 . S
C1344 C1346 1.353 . S
C1344 H1350 0.930 . S
N1345 Li1321 1.990 . S
N1345 C1344 1.314 . S
N1345 C1348 1.279 . S
C1346 C1344 1.353 . S
C1346 C1349 1.348 . S
C1346 H1394 0.929 . S
C1347 C1348 1.358 . S
C1347 C1349 1.356 . S
C1347 H1395 0.930 . S
C1348 N1345 1.279 . S
C1348 C1347 1.358 . S
C1348 H1351 0.930 . S
C1349 C1346 1.348 . S
C1349 C1347 1.356 . S
H1350 C1344 0.930 . S
H1351 C1348 0.930 . S
C1352 C1354 1.348 . S
C1352 C1355 1.356 . S
C1352 O1382 1.325 . S
N1353 C1356 1.314 . S
N1353 C1357 1.279 . S
C1354 C1352 1.348 . S
C1354 C1356 1.353 . S
C1354 H1396 0.929 . S
C1355 C1352 1.356 . S
C1355 C1357 1.358 . S
C1355 H1397 0.930 . S
C1356 N1353 1.314 . S
C1356 C1354 1.353 . S
C1356 H1398 0.930 . S
C1357 N1353 1.279 . S
C1357 C1355 1.358 . S
C1357 H1399 0.930 . S
C1358 C1359 1.348 . S
C1358 C1360 1.356 . S
C1358 O1383 1.325 . S
C1359 C1358 1.348 . S
C1359 C1361 1.353 . S
C1359 H1400 0.929 . S
C1360 C1358 1.356 . S
C1360 C1362 1.358 . S
C1360 H1401 0.930 . S
C1361 C1359 1.353 . S
C1361 N1363 1.314 . S
C1361 H1402 0.930 . S
C1362 C1360 1.358 . S
C1362 N1363 1.279 . S
C1362 H1403 0.930 . S
N1363 C1361 1.314 . S
N1363 C1362 1.279 . S
C1364 C1366 1.353 . S
C1364 N1367 1.314 . S
C1364 H1370 0.930 . S
C1365 N1367 1.279 . S
C1365 C1368 1.358 . S
C1365 H1371 0.930 . S
C1366 C1364 1.353 . S
C1366 C1369 1.348 . S
C1366 H1404 0.929 . S
N1367 Li1322 1.990 . S
N1367 C1364 1.314 . S
N1367 C1365 1.279 . S
C1368 C1365 1.358 . S
C1368 C1369 1.356 . S
C1368 H1405 0.930 . S
C1369 C1366 1.348 . S
C1369 C1368 1.356 . S
H1370 C1364 0.930 . S
H1371 C1365 0.930 . S
C1372 N1373 1.314 . S
C1372 C1374 1.353 . S
C1372 H1378 0.930 . S
N1373 Li1323 1.990 . S
N1373 C1372 1.314 . S
N1373 C1376 1.279 . S
C1374 C1372 1.353 . S
C1374 C1377 1.348 . S
C1374 H1406 0.929 . S
C1375 C1376 1.358 . S
C1375 C1377 1.356 . S
C1375 H1407 0.930 . S
C1376 N1373 1.279 . S
C1376 C1375 1.358 . S
C1376 H1379 0.930 . S
C1377 C1374 1.348 . S
C1377 C1375 1.356 . S
H1378 C1372 0.930 . S
H1379 C1376 0.930 . S
O1380 Li1320 1.956 . S
O1380 Li1321 1.970 . S
O1380 Li1322 1.961 . S
O1380 C1324 1.325 . S
O1381 Li1320 1.970 . S
O1381 Li1321 1.956 . S
O1381 Li1323 1.961 . S
O1381 C1330 1.325 . S
O1382 Li1320 1.961 . S
O1382 Li1322 1.956 . S
O1382 Li1323 1.970 . S
O1382 C1352 1.325 . S
O1383 Li1321 1.961 . S
O1383 Li1322 1.970 . S
O1383 Li1323 1.956 . S
O1383 C1358 1.325 . S
H1384 C1326 0.929 . S
H1385 C1327 0.930 . S
H1386 C1328 0.930 . S
H1387 C1329 0.930 . S
H1388 C1331 0.930 . S
H1389 C1333 0.929 . S
H1390 C1334 0.930 . S
H1391 C1335 0.930 . S
H1392 C1338 0.930 . S
H1393 C1341 0.929 . S
H1394 C1346 0.929 . S
H1395 C1347 0.930 . S
H1396 C1354 0.929 . S
H1397 C1355 0.930 . S
H1398 C1356 0.930 . S
H1399 C1357 0.930 . S
H1400 C1359 0.929 . S
H1401 C1360 0.930 . S
H1402 C1361 0.930 . S
H1403 C1362 0.930 . S
H1404 C1366 0.929 . S
H1405 C1368 0.930 . S
H1406 C1374 0.929 . S
H1407 C1375 0.930 . S
Li1408 N1425 1.990 . S
Li1408 O1468 1.956 . S
Li1408 O1469 1.970 . S
Li1408 O1470 1.961 . S
Li1409 N1433 1.990 1_545 S
Li1409 O1468 1.970 . S
Li1409 O1469 1.956 . S
Li1409 O1471 1.961 . S
Li1410 N1455 1.990 . S
Li1410 O1468 1.961 . S
Li1410 O1470 1.956 . S
Li1410 O1471 1.970 . S
Li1411 N1461 1.990 . S
Li1411 O1469 1.961 . S
Li1411 O1470 1.970 . S
Li1411 O1471 1.956 . S
C1412 C1414 1.348 1_545 S
C1412 C1415 1.356 . S
C1412 O1468 1.325 . S
N1413 C1416 1.314 . S
N1413 C1417 1.279 . S
C1414 C1412 1.348 1_565 S
C1414 C1416 1.353 . S
C1414 H1472 0.929 . S
C1415 C1412 1.356 . S
C1415 C1417 1.358 1_545 S
C1415 H1473 0.930 . S
C1416 N1413 1.314 . S
C1416 C1414 1.353 . S
C1416 H1474 0.930 . S
C1417 N1413 1.279 . S
C1417 C1415 1.358 1_565 S
C1417 H1475 0.930 . S
C1418 C1421 1.348 . S
C1418 C1422 1.356 . S
C1418 O1469 1.325 . S
C1419 N1420 1.279 . S
C1419 C1422 1.358 . S
C1419 H1476 0.930 . S
N1420 C1419 1.279 . S
N1420 C1423 1.314 . S
C1421 C1418 1.348 . S
C1421 C1423 1.353 . S
C1421 H1477 0.929 . S
C1422 C1418 1.356 . S
C1422 C1419 1.358 . S
C1422 H1478 0.930 . S
C1423 N1420 1.314 . S
C1423 C1421 1.353 . S
C1423 H1479 0.930 . S
C1424 N1425 1.314 . S
C1424 C1429 1.353 . S
C1424 H1430 0.930 . S
N1425 Li1408 1.990 . S
N1425 C1424 1.314 . S
N1425 C1427 1.279 . S
C1426 C1427 1.358 . S
C1426 C1428 1.356 . S
C1426 H1480 0.930 . S
C1427 N1425 1.279 . S
C1427 C1426 1.358 . S
C1427 H1431 0.930 . S
C1428 C1426 1.356 . S
C1428 C1429 1.348 . S
C1429 C1424 1.353 . S
C1429 C1428 1.348 . S
C1429 H1481 0.929 . S
H1430 C1424 0.930 . S
H1431 C1427 0.930 . S
C1432 N1433 1.314 . S
C1432 C1434 1.353 . S
C1432 H1438 0.930 . S
N1433 Li1409 1.990 1_565 S
N1433 C1432 1.314 . S
N1433 C1436 1.279 . S
C1434 C1432 1.353 . S
C1434 C1437 1.348 . S
C1434 H1482 0.929 . S
C1435 C1436 1.358 . S
C1435 C1437 1.356 . S
C1435 H1483 0.930 . S
C1436 N1433 1.279 . S
C1436 C1435 1.358 . S
C1436 H1439 0.930 . S
C1437 C1434 1.348 . S
C1437 C1435 1.356 . S
H1438 C1432 0.930 . S
H1439 C1436 0.930 . S
C1440 C1442 1.348 . S
C1440 C1443 1.356 . S
C1440 O1470 1.325 . S
N1441 C1444 1.314 . S
N1441 C1445 1.279 . S
C1442 C1440 1.348 . S
C1442 C1444 1.353 . S
C1442 H1484 0.929 . S
C1443 C1440 1.356 . S
C1443 C1445 1.358 . S
C1443 H1485 0.930 . S
C1444 N1441 1.314 . S
C1444 C1442 1.353 . S
C1444 H1486 0.930 . S
C1445 N1441 1.279 . S
C1445 C1443 1.358 . S
C1445 H1487 0.930 . S
C1446 C1447 1.348 . S
C1446 C1448 1.356 . S
C1446 O1471 1.325 . S
C1447 C1446 1.348 . S
C1447 C1449 1.353 . S
C1447 H1488 0.929 . S
C1448 C1446 1.356 . S
C1448 C1450 1.358 . S
C1448 H1489 0.930 . S
C1449 C1447 1.353 . S
C1449 N1451 1.314 . S
C1449 H1490 0.930 . S
C1450 C1448 1.358 . S
C1450 N1451 1.279 . S
C1450 H1491 0.930 . S
N1451 C1449 1.314 . S
N1451 C1450 1.279 . S
C1452 C1454 1.353 . S
C1452 N1455 1.314 . S
C1452 H1458 0.930 . S
C1453 N1455 1.279 . S
C1453 C1456 1.358 . S
C1453 H1459 0.930 . S
C1454 C1452 1.353 . S
C1454 C1457 1.348 . S
C1454 H1492 0.929 . S
N1455 Li1410 1.990 . S
N1455 C1452 1.314 . S
N1455 C1453 1.279 . S
C1456 C1453 1.358 . S
C1456 C1457 1.356 . S
C1456 H1493 0.930 . S
C1457 C1454 1.348 . S
C1457 C1456 1.356 . S
H1458 C1452 0.930 . S
H1459 C1453 0.930 . S
C1460 N1461 1.314 . S
C1460 C1462 1.353 . S
C1460 H1466 0.930 . S
N1461 Li1411 1.990 . S
N1461 C1460 1.314 . S
N1461 C1464 1.279 . S
C1462 C1460 1.353 . S
C1462 C1465 1.348 . S
C1462 H1494 0.929 . S
C1463 C1464 1.358 . S
C1463 C1465 1.356 . S
C1463 H1495 0.930 . S
C1464 N1461 1.279 . S
C1464 C1463 1.358 . S
C1464 H1467 0.930 . S
C1465 C1462 1.348 . S
C1465 C1463 1.356 . S
H1466 C1460 0.930 . S
H1467 C1464 0.930 . S
O1468 Li1408 1.956 . S
O1468 Li1409 1.970 . S
O1468 Li1410 1.961 . S
O1468 C1412 1.325 . S
O1469 Li1408 1.970 . S
O1469 Li1409 1.956 . S
O1469 Li1411 1.961 . S
O1469 C1418 1.325 . S
O1470 Li1408 1.961 . S
O1470 Li1410 1.956 . S
O1470 Li1411 1.970 . S
O1470 C1440 1.325 . S
O1471 Li1409 1.961 . S
O1471 Li1410 1.970 . S
O1471 Li1411 1.956 . S
O1471 C1446 1.325 . S
H1472 C1414 0.929 . S
H1473 C1415 0.930 . S
H1474 C1416 0.930 . S
H1475 C1417 0.930 . S
H1476 C1419 0.930 . S
H1477 C1421 0.929 . S
H1478 C1422 0.930 . S
H1479 C1423 0.930 . S
H1480 C1426 0.930 . S
H1481 C1429 0.929 . S
H1482 C1434 0.929 . S
H1483 C1435 0.930 . S
H1484 C1442 0.929 . S
H1485 C1443 0.930 . S
H1486 C1444 0.930 . S
H1487 C1445 0.930 . S
H1488 C1447 0.929 . S
H1489 C1448 0.930 . S
H1490 C1449 0.930 . S
H1491 C1450 0.930 . S
H1492 C1454 0.929 . S
H1493 C1456 0.930 . S
H1494 C1462 0.929 . S
H1495 C1463 0.930 . S
Li1496 N1513 1.990 . S
Li1496 O1556 1.956 . S
Li1496 O1557 1.970 . S
Li1496 O1558 1.961 . S
Li1497 N1521 1.990 . S
Li1497 O1556 1.970 . S
Li1497 O1557 1.956 . S
Li1497 O1559 1.961 . S
Li1498 N1543 1.990 . S
Li1498 O1556 1.961 . S
Li1498 O1558 1.956 . S
Li1498 O1559 1.970 . S
Li1499 N1549 1.990 . S
Li1499 O1557 1.961 . S
Li1499 O1558 1.970 . S
Li1499 O1559 1.956 . S
C1500 C1502 1.348 . S
C1500 C1503 1.356 . S
C1500 O1556 1.325 . S
N1501 C1504 1.314 . S
N1501 C1505 1.279 . S
C1502 C1500 1.348 . S
C1502 C1504 1.353 . S
C1502 H1560 0.929 . S
C1503 C1500 1.356 . S
C1503 C1505 1.358 . S
C1503 H1561 0.930 . S
C1504 N1501 1.314 . S
C1504 C1502 1.353 . S
C1504 H1562 0.930 . S
C1505 N1501 1.279 . S
C1505 C1503 1.358 . S
C1505 H1563 0.930 . S
C1506 C1509 1.348 . S
C1506 C1510 1.356 . S
C1506 O1557 1.325 . S
C1507 N1508 1.279 . S
C1507 C1510 1.358 . S
C1507 H1564 0.930 . S
N1508 C1507 1.279 . S
N1508 C1511 1.314 . S
C1509 C1506 1.348 . S
C1509 C1511 1.353 . S
C1509 H1565 0.929 . S
C1510 C1506 1.356 . S
C1510 C1507 1.358 . S
C1510 H1566 0.930 . S
C1511 N1508 1.314 . S
C1511 C1509 1.353 . S
C1511 H1567 0.930 . S
C1512 N1513 1.314 . S
C1512 C1517 1.353 . S
C1512 H1518 0.930 . S
N1513 Li1496 1.990 . S
N1513 C1512 1.314 . S
N1513 C1515 1.279 . S
C1514 C1515 1.358 . S
C1514 C1516 1.356 . S
C1514 H1568 0.930 . S
C1515 N1513 1.279 . S
C1515 C1514 1.358 . S
C1515 H1519 0.930 . S
C1516 C1514 1.356 . S
C1516 C1517 1.348 . S
C1517 C1512 1.353 . S
C1517 C1516 1.348 . S
C1517 H1569 0.929 . S
H1518 C1512 0.930 . S
H1519 C1515 0.930 . S
C1520 N1521 1.314 . S
C1520 C1522 1.353 . S
C1520 H1526 0.930 . S
N1521 Li1497 1.990 . S
N1521 C1520 1.314 . S
N1521 C1524 1.279 . S
C1522 C1520 1.353 . S
C1522 C1525 1.348 . S
C1522 H1570 0.929 . S
C1523 C1524 1.358 . S
C1523 C1525 1.356 . S
C1523 H1571 0.930 . S
C1524 N1521 1.279 . S
C1524 C1523 1.358 . S
C1524 H1527 0.930 . S
C1525 C1522 1.348 . S
C1525 C1523 1.356 . S
H1526 C1520 0.930 . S
H1527 C1524 0.930 . S
C1528 C1530 1.348 . S
C1528 C1531 1.356 . S
C1528 O1558 1.325 . S
N1529 C1532 1.314 . S
N1529 C1533 1.279 . S
C1530 C1528 1.348 . S
C1530 C1532 1.353 . S
C1530 H1572 0.929 . S
C1531 C1528 1.356 . S
C1531 C1533 1.358 . S
C1531 H1573 0.930 . S
C1532 N1529 1.314 . S
C1532 C1530 1.353 . S
C1532 H1574 0.930 . S
C1533 N1529 1.279 . S
C1533 C1531 1.358 . S
C1533 H1575 0.930 . S
C1534 C1535 1.348 . S
C1534 C1536 1.356 . S
C1534 O1559 1.325 . S
C1535 C1534 1.348 . S
C1535 C1537 1.353 . S
C1535 H1576 0.929 . S
C1536 C1534 1.356 . S
C1536 C1538 1.358 . S
C1536 H1577 0.930 . S
C1537 C1535 1.353 . S
C1537 N1539 1.314 . S
C1537 H1578 0.930 . S
C1538 C1536 1.358 . S
C1538 N1539 1.279 . S
C1538 H1579 0.930 . S
N1539 C1537 1.314 . S
N1539 C1538 1.279 . S
C1540 C1542 1.353 . S
C1540 N1543 1.314 . S
C1540 H1546 0.930 . S
C1541 N1543 1.279 . S
C1541 C1544 1.358 . S
C1541 H1547 0.930 . S
C1542 C1540 1.353 . S
C1542 C1545 1.348 . S
C1542 H1580 0.929 . S
N1543 Li1498 1.990 . S
N1543 C1540 1.314 . S
N1543 C1541 1.279 . S
C1544 C1541 1.358 . S
C1544 C1545 1.356 . S
C1544 H1581 0.930 . S
C1545 C1542 1.348 . S
C1545 C1544 1.356 . S
H1546 C1540 0.930 . S
H1547 C1541 0.930 . S
C1548 N1549 1.314 . S
C1548 C1550 1.353 . S
C1548 H1554 0.930 . S
N1549 Li1499 1.990 . S
N1549 C1548 1.314 . S
N1549 C1552 1.279 . S
C1550 C1548 1.353 . S
C1550 C1553 1.348 . S
C1550 H1582 0.929 . S
C1551 C1552 1.358 . S
C1551 C1553 1.356 . S
C1551 H1583 0.930 . S
C1552 N1549 1.279 . S
C1552 C1551 1.358 . S
C1552 H1555 0.930 . S
C1553 C1550 1.348 . S
C1553 C1551 1.356 . S
H1554 C1548 0.930 . S
H1555 C1552 0.930 . S
O1556 Li1496 1.956 . S
O1556 Li1497 1.970 . S
O1556 Li1498 1.961 . S
O1556 C1500 1.325 . S
O1557 Li1496 1.970 . S
O1557 Li1497 1.956 . S
O1557 Li1499 1.961 . S
O1557 C1506 1.325 . S
O1558 Li1496 1.961 . S
O1558 Li1498 1.956 . S
O1558 Li1499 1.970 . S
O1558 C1528 1.325 . S
O1559 Li1497 1.961 . S
O1559 Li1498 1.970 . S
O1559 Li1499 1.956 . S
O1559 C1534 1.325 . S
H1560 C1502 0.929 . S
H1561 C1503 0.930 . S
H1562 C1504 0.930 . S
H1563 C1505 0.930 . S
H1564 C1507 0.930 . S
H1565 C1509 0.929 . S
H1566 C1510 0.930 . S
H1567 C1511 0.930 . S
H1568 C1514 0.930 . S
H1569 C1517 0.929 . S
H1570 C1522 0.929 . S
H1571 C1523 0.930 . S
H1572 C1530 0.929 . S
H1573 C1531 0.930 . S
H1574 C1532 0.930 . S
H1575 C1533 0.930 . S
H1576 C1535 0.929 . S
H1577 C1536 0.930 . S
H1578 C1537 0.930 . S
H1579 C1538 0.930 . S
H1580 C1542 0.929 . S
H1581 C1544 0.930 . S
H1582 C1550 0.929 . S
H1583 C1551 0.930 . S
Li1584 N1601 1.990 . S
Li1584 O1644 1.956 . S
Li1584 O1645 1.970 . S
Li1584 O1646 1.961 . S
Li1585 N1609 1.990 . S
Li1585 O1644 1.970 . S
Li1585 O1645 1.956 . S
Li1585 O1647 1.961 . S
Li1586 N1631 1.990 . S
Li1586 O1644 1.961 . S
Li1586 O1646 1.956 . S
Li1586 O1647 1.970 . S
Li1587 N1637 1.990 . S
Li1587 O1645 1.961 . S
Li1587 O1646 1.970 . S
Li1587 O1647 1.956 . S
C1588 C1590 1.348 . S
C1588 C1591 1.356 . S
C1588 O1644 1.325 . S
N1589 C1592 1.314 . S
N1589 C1593 1.279 . S
C1590 C1588 1.348 . S
C1590 C1592 1.353 . S
C1590 H1648 0.929 . S
C1591 C1588 1.356 . S
C1591 C1593 1.358 . S
C1591 H1649 0.930 . S
C1592 N1589 1.314 . S
C1592 C1590 1.353 . S
C1592 H1650 0.930 . S
C1593 N1589 1.279 . S
C1593 C1591 1.358 . S
C1593 H1651 0.930 . S
C1594 C1597 1.348 . S
C1594 C1598 1.356 . S
C1594 O1645 1.325 . S
C1595 N1596 1.279 . S
C1595 C1598 1.358 . S
C1595 H1652 0.930 . S
N1596 C1595 1.279 . S
N1596 C1599 1.314 . S
C1597 C1594 1.348 . S
C1597 C1599 1.353 . S
C1597 H1653 0.929 . S
C1598 C1594 1.356 . S
C1598 C1595 1.358 . S
C1598 H1654 0.930 . S
C1599 N1596 1.314 . S
C1599 C1597 1.353 . S
C1599 H1655 0.930 . S
C1600 N1601 1.314 . S
C1600 C1605 1.353 . S
C1600 H1606 0.930 . S
N1601 Li1584 1.990 . S
N1601 C1600 1.314 . S
N1601 C1603 1.279 . S
C1602 C1603 1.358 . S
C1602 C1604 1.356 . S
C1602 H1656 0.930 . S
C1603 N1601 1.279 . S
C1603 C1602 1.358 . S
C1603 H1607 0.930 . S
C1604 C1602 1.356 . S
C1604 C1605 1.348 . S
C1605 C1600 1.353 . S
C1605 C1604 1.348 . S
C1605 H1657 0.929 . S
H1606 C1600 0.930 . S
H1607 C1603 0.930 . S
C1608 N1609 1.314 . S
C1608 C1610 1.353 . S
C1608 H1614 0.930 . S
N1609 Li1585 1.990 . S
N1609 C1608 1.314 . S
N1609 C1612 1.279 . S
C1610 C1608 1.353 . S
C1610 C1613 1.348 . S
C1610 H1658 0.929 . S
C1611 C1612 1.358 . S
C1611 C1613 1.356 . S
C1611 H1659 0.930 . S
C1612 N1609 1.279 . S
C1612 C1611 1.358 . S
C1612 H1615 0.930 . S
C1613 C1610 1.348 . S
C1613 C1611 1.356 . S
H1614 C1608 0.930 . S
H1615 C1612 0.930 . S
C1616 C1618 1.348 . S
C1616 C1619 1.356 . S
C1616 O1646 1.325 . S
N1617 C1620 1.314 . S
N1617 C1621 1.279 . S
C1618 C1616 1.348 . S
C1618 C1620 1.353 . S
C1618 H1660 0.929 . S
C1619 C1616 1.356 . S
C1619 C1621 1.358 . S
C1619 H1661 0.930 . S
C1620 N1617 1.314 . S
C1620 C1618 1.353 . S
C1620 H1662 0.930 . S
C1621 N1617 1.279 . S
C1621 C1619 1.358 . S
C1621 H1663 0.930 . S
C1622 C1623 1.348 . S
C1622 C1624 1.356 . S
C1622 O1647 1.325 . S
C1623 C1622 1.348 . S
C1623 C1625 1.353 . S
C1623 H1664 0.929 . S
C1624 C1622 1.356 . S
C1624 C1626 1.358 . S
C1624 H1665 0.930 . S
C1625 C1623 1.353 . S
C1625 N1627 1.314 . S
C1625 H1666 0.930 . S
C1626 C1624 1.358 . S
C1626 N1627 1.279 . S
C1626 H1667 0.930 . S
N1627 C1625 1.314 . S
N1627 C1626 1.279 . S
C1628 C1630 1.353 . S
C1628 N1631 1.314 . S
C1628 H1634 0.930 . S
C1629 N1631 1.279 . S
C1629 C1632 1.358 . S
C1629 H1635 0.930 . S
C1630 C1628 1.353 . S
C1630 C1633 1.348 . S
C1630 H1668 0.929 . S
N1631 Li1586 1.990 . S
N1631 C1628 1.314 . S
N1631 C1629 1.279 . S
C1632 C1629 1.358 . S
C1632 C1633 1.356 . S
C1632 H1669 0.930 . S
C1633 C1630 1.348 . S
C1633 C1632 1.356 . S
H1634 C1628 0.930 . S
H1635 C1629 0.930 . S
C1636 N1637 1.314 . S
C1636 C1638 1.353 . S
C1636 H1642 0.930 . S
N1637 Li1587 1.990 . S
N1637 C1636 1.314 . S
N1637 C1640 1.279 . S
C1638 C1636 1.353 . S
C1638 C1641 1.348 . S
C1638 H1670 0.929 . S
C1639 C1640 1.358 . S
C1639 C1641 1.356 . S
C1639 H1671 0.930 . S
C1640 N1637 1.279 . S
C1640 C1639 1.358 . S
C1640 H1643 0.930 . S
C1641 C1638 1.348 . S
C1641 C1639 1.356 . S
H1642 C1636 0.930 . S
H1643 C1640 0.930 . S
O1644 Li1584 1.956 . S
O1644 Li1585 1.970 . S
O1644 Li1586 1.961 . S
O1644 C1588 1.325 . S
O1645 Li1584 1.970 . S
O1645 Li1585 1.956 . S
O1645 Li1587 1.961 . S
O1645 C1594 1.325 . S
O1646 Li1584 1.961 . S
O1646 Li1586 1.956 . S
O1646 Li1587 1.970 . S
O1646 C1616 1.325 . S
O1647 Li1585 1.961 . S
O1647 Li1586 1.970 . S
O1647 Li1587 1.956 . S
O1647 C1622 1.325 . S
H1648 C1590 0.929 . S
H1649 C1591 0.930 . S
H1650 C1592 0.930 . S
H1651 C1593 0.930 . S
H1652 C1595 0.930 . S
H1653 C1597 0.929 . S
H1654 C1598 0.930 . S
H1655 C1599 0.930 . S
H1656 C1602 0.930 . S
H1657 C1605 0.929 . S
H1658 C1610 0.929 . S
H1659 C1611 0.930 . S
H1660 C1618 0.929 . S
H1661 C1619 0.930 . S
H1662 C1620 0.930 . S
H1663 C1621 0.930 . S
H1664 C1623 0.929 . S
H1665 C1624 0.930 . S
H1666 C1625 0.930 . S
H1667 C1626 0.930 . S
H1668 C1630 0.929 . S
H1669 C1632 0.930 . S
H1670 C1638 0.929 . S
H1671 C1639 0.930 . S
Li1672 N1689 1.990 . S
Li1672 O1732 1.956 . S
Li1672 O1733 1.970 . S
Li1672 O1734 1.961 . S
Li1673 N1697 1.990 . S
Li1673 O1732 1.970 . S
Li1673 O1733 1.956 . S
Li1673 O1735 1.961 . S
Li1674 N1719 1.990 . S
Li1674 O1732 1.961 . S
Li1674 O1734 1.956 . S
Li1674 O1735 1.970 . S
Li1675 N1725 1.990 . S
Li1675 O1733 1.961 . S
Li1675 O1734 1.970 . S
Li1675 O1735 1.956 . S
C1676 C1678 1.348 . S
C1676 C1679 1.356 . S
C1676 O1732 1.325 . S
N1677 C1680 1.314 . S
N1677 C1681 1.279 . S
C1678 C1676 1.348 . S
C1678 C1680 1.353 . S
C1678 H1736 0.929 . S
C1679 C1676 1.356 . S
C1679 C1681 1.358 . S
C1679 H1737 0.930 . S
C1680 N1677 1.314 . S
C1680 C1678 1.353 . S
C1680 H1738 0.930 . S
C1681 N1677 1.279 . S
C1681 C1679 1.358 . S
C1681 H1739 0.930 . S
C1682 C1685 1.348 . S
C1682 C1686 1.356 . S
C1682 O1733 1.325 . S
C1683 N1684 1.279 . S
C1683 C1686 1.358 . S
C1683 H1740 0.930 . S
N1684 C1683 1.279 . S
N1684 C1687 1.314 . S
C1685 C1682 1.348 . S
C1685 C1687 1.353 . S
C1685 H1741 0.929 . S
C1686 C1682 1.356 . S
C1686 C1683 1.358 . S
C1686 H1742 0.930 . S
C1687 N1684 1.314 . S
C1687 C1685 1.353 . S
C1687 H1743 0.930 . S
C1688 N1689 1.314 . S
C1688 C1693 1.353 . S
C1688 H1694 0.930 . S
N1689 Li1672 1.990 . S
N1689 C1688 1.314 . S
N1689 C1691 1.279 . S
C1690 C1691 1.358 . S
C1690 C1692 1.356 . S
C1690 H1744 0.930 . S
C1691 N1689 1.279 . S
C1691 C1690 1.358 . S
C1691 H1695 0.930 . S
C1692 C1690 1.356 . S
C1692 C1693 1.348 . S
C1693 C1688 1.353 . S
C1693 C1692 1.348 . S
C1693 H1745 0.929 . S
H1694 C1688 0.930 . S
H1695 C1691 0.930 . S
C1696 N1697 1.314 . S
C1696 C1698 1.353 . S
C1696 H1702 0.930 . S
N1697 Li1673 1.990 . S
N1697 C1696 1.314 . S
N1697 C1700 1.279 . S
C1698 C1696 1.353 . S
C1698 C1701 1.348 . S
C1698 H1746 0.929 . S
C1699 C1700 1.358 . S
C1699 C1701 1.356 . S
C1699 H1747 0.930 . S
C1700 N1697 1.279 . S
C1700 C1699 1.358 . S
C1700 H1703 0.930 . S
C1701 C1698 1.348 . S
C1701 C1699 1.356 . S
H1702 C1696 0.930 . S
H1703 C1700 0.930 . S
C1704 C1706 1.348 . S
C1704 C1707 1.356 . S
C1704 O1734 1.325 . S
N1705 C1708 1.314 . S
N1705 C1709 1.279 1_565 S
C1706 C1704 1.348 . S
C1706 C1708 1.353 1_545 S
C1706 H1748 0.929 . S
C1707 C1704 1.356 . S
C1707 C1709 1.358 . S
C1707 H1749 0.930 . S
C1708 N1705 1.314 . S
C1708 C1706 1.353 1_565 S
C1708 H1750 0.930 . S
C1709 N1705 1.279 1_545 S
C1709 C1707 1.358 . S
C1709 H1751 0.920 . S
C1710 C1711 1.348 . S
C1710 C1712 1.356 . S
C1710 O1735 1.325 . S
C1711 C1710 1.348 . S
C1711 C1713 1.353 . S
C1711 H1752 0.929 . S
C1712 C1710 1.356 . S
C1712 C1714 1.358 . S
C1712 H1753 0.930 . S
C1713 C1711 1.353 . S
C1713 N1715 1.314 . S
C1713 H1754 0.930 . S
C1714 C1712 1.358 . S
C1714 N1715 1.279 . S
C1714 H1755 0.930 . S
N1715 C1713 1.314 . S
N1715 C1714 1.279 . S
C1716 C1718 1.353 . S
C1716 N1719 1.314 . S
C1716 H1722 0.930 . S
C1717 N1719 1.279 . S
C1717 C1720 1.358 . S
C1717 H1723 0.930 . S
C1718 C1716 1.353 . S
C1718 C1721 1.348 . S
C1718 H1756 0.929 . S
N1719 Li1674 1.990 . S
N1719 C1716 1.314 . S
N1719 C1717 1.279 . S
C1720 C1717 1.358 . S
C1720 C1721 1.356 . S
C1720 H1757 0.930 . S
C1721 C1718 1.348 . S
C1721 C1720 1.356 . S
H1722 C1716 0.930 . S
H1723 C1717 0.930 . S
C1724 N1725 1.314 . S
C1724 C1726 1.353 . S
C1724 H1730 0.930 . S
N1725 Li1675 1.990 . S
N1725 C1724 1.314 . S
N1725 C1728 1.279 . S
C1726 C1724 1.353 . S
C1726 C1729 1.348 1_545 S
C1726 H1758 0.929 1_545 S
C1727 C1728 1.358 . S
C1727 C1729 1.356 1_545 S
C1727 H1759 0.930 . S
C1728 N1725 1.279 . S
C1728 C1727 1.358 . S
C1728 H1731 0.930 . S
C1729 C1726 1.348 1_565 S
C1729 C1727 1.356 1_565 S
H1730 C1724 0.930 . S
H1731 C1728 0.930 . S
O1732 Li1672 1.956 . S
O1732 Li1673 1.970 . S
O1732 Li1674 1.961 . S
O1732 C1676 1.325 . S
O1733 Li1672 1.970 . S
O1733 Li1673 1.956 . S
O1733 Li1675 1.961 . S
O1733 C1682 1.325 . S
O1734 Li1672 1.961 . S
O1734 Li1674 1.956 . S
O1734 Li1675 1.970 . S
O1734 C1704 1.325 . S
O1735 Li1673 1.961 . S
O1735 Li1674 1.970 . S
O1735 Li1675 1.956 . S
O1735 C1710 1.325 . S
H1736 C1678 0.929 . S
H1737 C1679 0.930 . S
H1738 C1680 0.930 . S
H1739 C1681 0.930 . S
H1740 C1683 0.930 . S
H1741 C1685 0.929 . S
H1742 C1686 0.930 . S
H1743 C1687 0.930 . S
H1744 C1690 0.930 . S
H1745 C1693 0.929 . S
H1746 C1698 0.929 . S
H1747 C1699 0.930 . S
H1748 C1706 0.929 . S
H1749 C1707 0.930 . S
H1750 C1708 0.930 . S
H1751 C1709 0.920 . S
H1752 C1711 0.929 . S
H1753 C1712 0.930 . S
H1754 C1713 0.930 . S
H1755 C1714 0.930 . S
H1756 C1718 0.929 . S
H1757 C1720 0.930 . S
H1758 C1726 0.929 1_565 S
H1759 C1727 0.930 . S
Li1760 N1777 1.990 . S
Li1760 O1820 1.956 . S
Li1760 O1821 1.970 . S
Li1760 O1822 1.961 . S
Li1761 N1785 1.990 . S
Li1761 O1820 1.970 . S
Li1761 O1821 1.956 . S
Li1761 O1823 1.961 1_554 S
Li1762 N1807 2.019 . S
Li1762 O1820 1.939 1_556 S
Li1762 O1822 1.930 1_556 S
Li1762 O1823 1.972 . S
Li1763 N1813 1.990 . S
Li1763 O1821 1.961 . S
Li1763 O1822 1.970 . S
Li1763 O1823 1.956 1_554 S
C1764 C1766 1.348 . S
C1764 C1767 1.356 . S
C1764 O1820 1.325 . S
N1765 C1768 1.314 . S
N1765 C1769 1.279 . S
C1766 C1764 1.348 . S
C1766 C1768 1.353 . S
C1766 H1824 0.929 . S
C1767 C1764 1.356 . S
C1767 C1769 1.358 . S
C1767 H1825 0.930 . S
C1768 N1765 1.314 . S
C1768 C1766 1.353 . S
C1768 H1826 0.930 . S
C1769 N1765 1.279 . S
C1769 C1767 1.358 . S
C1769 H1827 0.930 . S
C1770 C1773 1.348 . S
C1770 C1774 1.356 . S
C1770 O1821 1.325 . S
C1771 N1772 1.279 . S
C1771 C1774 1.358 . S
C1771 H1828 0.930 . S
N1772 C1771 1.279 . S
N1772 C1775 1.314 . S
C1773 C1770 1.348 . S
C1773 C1775 1.353 . S
C1773 H1829 0.929 . S
C1774 C1770 1.356 . S
C1774 C1771 1.358 . S
C1774 H1830 0.930 . S
C1775 N1772 1.314 . S
C1775 C1773 1.353 . S
C1775 H1831 0.930 . S
C1776 N1777 1.314 . S
C1776 C1781 1.353 . S
C1776 H1782 0.930 . S
N1777 Li1760 1.990 . S
N1777 C1776 1.314 . S
N1777 C1779 1.279 . S
C1778 C1779 1.358 . S
C1778 C1780 1.356 . S
C1778 H1832 0.930 . S
C1779 N1777 1.279 . S
C1779 C1778 1.358 . S
C1779 H1783 0.930 . S
C1780 C1778 1.356 . S
C1780 C1781 1.348 . S
C1781 C1776 1.353 . S
C1781 C1780 1.348 . S
C1781 H1833 0.929 . S
H1782 C1776 0.930 . S
H1783 C1779 0.930 . S
C1784 N1785 1.314 . S
C1784 C1786 1.353 . S
C1784 H1790 0.930 1_554 S
N1785 Li1761 1.990 . S
N1785 C1784 1.314 . S
N1785 C1788 1.279 . S
C1786 C1784 1.353 . S
C1786 C1789 1.348 . S
C1786 H1834 0.929 1_554 S
C1787 C1788 1.358 . S
C1787 C1789 1.356 . S
C1787 H1835 0.930 . S
C1788 N1785 1.279 . S
C1788 C1787 1.358 . S
C1788 H1791 0.930 . S
C1789 C1786 1.348 . S
C1789 C1787 1.356 . S
H1790 C1784 0.930 1_556 S
H1791 C1788 0.930 . S
C1792 C1794 1.348 . S
C1792 C1795 1.356 . S
C1792 O1822 1.325 . S
N1793 C1796 1.314 . S
N1793 C1797 1.279 . S
C1794 C1792 1.348 . S
C1794 C1796 1.353 . S
C1794 H1836 0.929 . S
C1795 C1792 1.356 . S
C1795 C1797 1.358 . S
C1795 H1837 0.930 . S
C1796 N1793 1.314 . S
C1796 C1794 1.353 . S
C1796 H1838 0.930 . S
C1797 N1793 1.279 . S
C1797 C1795 1.358 . S
C1797 H1839 0.930 . S
C1798 C1799 1.348 . S
C1798 C1800 1.356 . S
C1798 O1823 1.325 . S
C1799 C1798 1.348 . S
C1799 C1801 1.353 . S
C1799 H1840 0.929 . S
C1800 C1798 1.356 . S
C1800 C1802 1.358 . S
C1800 H1841 0.930 . S
C1801 C1799 1.353 . S
C1801 N1803 1.314 . S
C1801 H1842 0.930 . S
C1802 C1800 1.358 . S
C1802 N1803 1.279 . S
C1802 H1843 0.930 . S
N1803 C1801 1.314 . S
N1803 C1802 1.279 . S
C1804 C1806 1.353 . S
C1804 N1807 1.314 . S
C1804 H1810 0.930 . S
C1805 N1807 1.279 . S
C1805 C1808 1.358 . S
C1805 H1811 0.930 . S
C1806 C1804 1.353 . S
C1806 C1809 1.348 . S
C1806 H1844 0.929 . S
N1807 Li1762 2.019 . S
N1807 C1804 1.314 . S
N1807 C1805 1.279 . S
C1808 C1805 1.358 . S
C1808 C1809 1.356 . S
C1808 H1845 0.930 . S
C1809 C1806 1.348 . S
C1809 C1808 1.356 . S
H1810 C1804 0.930 . S
H1811 C1805 0.930 . S
C1812 N1813 1.314 . S
C1812 C1814 1.353 . S
C1812 H1818 0.930 . S
N1813 Li1763 1.990 . S
N1813 C1812 1.314 . S
N1813 C1816 1.279 1_554 S
C1814 C1812 1.353 . S
C1814 C1817 1.348 . S
C1814 H1846 0.929 . S
C1815 C1816 1.358 . S
C1815 C1817 1.356 1_556 S
C1815 H1847 0.930 . S
C1816 N1813 1.279 1_556 S
C1816 C1815 1.358 . S
C1816 H1819 0.930 . S
C1817 C1814 1.348 . S
C1817 C1815 1.356 1_554 S
H1818 C1812 0.930 . S
H1819 C1816 0.930 . S
O1820 Li1760 1.956 . S
O1820 Li1761 1.970 . S
O1820 Li1762 1.939 1_554 S
O1820 C1764 1.325 . S
O1821 Li1760 1.970 . S
O1821 Li1761 1.956 . S
O1821 Li1763 1.961 . S
O1821 C1770 1.325 . S
O1822 Li1760 1.961 . S
O1822 Li1762 1.930 1_554 S
O1822 Li1763 1.970 . S
O1822 C1792 1.325 . S
O1823 Li1761 1.961 1_556 S
O1823 Li1762 1.972 . S
O1823 Li1763 1.956 1_556 S
O1823 C1798 1.325 . S
H1824 C1766 0.929 . S
H1825 C1767 0.930 . S
H1826 C1768 0.930 . S
H1827 C1769 0.930 . S
H1828 C1771 0.930 . S
H1829 C1773 0.929 . S
H1830 C1774 0.930 . S
H1831 C1775 0.930 . S
H1832 C1778 0.930 . S
H1833 C1781 0.929 . S
H1834 C1786 0.929 1_556 S
H1835 C1787 0.930 . S
H1836 C1794 0.929 . S
H1837 C1795 0.930 . S
H1838 C1796 0.930 . S
H1839 C1797 0.930 . S
H1840 C1799 0.929 . S
H1841 C1800 0.930 . S
H1842 C1801 0.930 . S
H1843 C1802 0.930 . S
H1844 C1806 0.929 . S
H1845 C1808 0.930 . S
H1846 C1814 0.929 . S
H1847 C1815 0.930 . S
Li1848 N1865 1.990 . S
Li1848 O1908 1.956 . S
Li1848 O1909 1.970 . S
Li1848 O1910 1.961 . S
Li1849 N1873 1.990 . S
Li1849 O1908 1.970 . S
Li1849 O1909 1.956 . S
Li1849 O1911 1.961 . S
Li1850 N1895 1.990 . S
Li1850 O1908 1.961 . S
Li1850 O1910 1.956 . S
Li1850 O1911 1.970 . S
Li1851 N1901 1.990 . S
Li1851 O1909 1.961 . S
Li1851 O1910 1.970 . S
Li1851 O1911 1.956 . S
C1852 C1854 1.348 . S
C1852 C1855 1.356 . S
C1852 O1908 1.325 . S
N1853 C1856 1.314 . S
N1853 C1857 1.279 . S
C1854 C1852 1.348 . S
C1854 C1856 1.353 . S
C1854 H1912 0.929 . S
C1855 C1852 1.356 . S
C1855 C1857 1.358 . S
C1855 H1913 0.930 . S
C1856 N1853 1.314 . S
C1856 C1854 1.353 . S
C1856 H1914 0.930 . S
C1857 N1853 1.279 . S
C1857 C1855 1.358 . S
C1857 H1915 0.930 . S
C1858 C1861 1.348 . S
C1858 C1862 1.356 . S
C1858 O1909 1.325 . S
C1859 N1860 1.279 . S
C1859 C1862 1.358 . S
C1859 H1916 0.930 . S
N1860 C1859 1.279 . S
N1860 C1863 1.314 . S
C1861 C1858 1.348 . S
C1861 C1863 1.353 . S
C1861 H1917 0.929 . S
C1862 C1858 1.356 . S
C1862 C1859 1.358 . S
C1862 H1918 0.930 . S
C1863 N1860 1.314 . S
C1863 C1861 1.353 . S
C1863 H1919 0.930 . S
C1864 N1865 1.314 . S
C1864 C1869 1.353 . S
C1864 H1870 0.930 . S
N1865 Li1848 1.990 . S
N1865 C1864 1.314 . S
N1865 C1867 1.279 . S
C1866 C1867 1.358 . S
C1866 C1868 1.356 . S
C1866 H1920 0.930 . S
C1867 N1865 1.279 . S
C1867 C1866 1.358 . S
C1867 H1871 0.930 . S
C1868 C1866 1.356 . S
C1868 C1869 1.348 . S
C1869 C1864 1.353 . S
C1869 C1868 1.348 . S
C1869 H1921 0.929 . S
H1870 C1864 0.930 . S
H1871 C1867 0.930 . S
C1872 N1873 1.314 . S
C1872 C1874 1.353 . S
C1872 H1878 0.930 . S
N1873 Li1849 1.990 . S
N1873 C1872 1.314 . S
N1873 C1876 1.279 . S
C1874 C1872 1.353 . S
C1874 C1877 1.348 . S
C1874 H1922 0.929 . S
C1875 C1876 1.358 . S
C1875 C1877 1.356 . S
C1875 H1923 0.930 . S
C1876 N1873 1.279 . S
C1876 C1875 1.358 . S
C1876 H1879 0.930 . S
C1877 C1874 1.348 . S
C1877 C1875 1.356 . S
H1878 C1872 0.930 . S
H1879 C1876 0.930 . S
C1880 C1882 1.348 . S
C1880 C1883 1.356 . S
C1880 O1910 1.325 . S
N1881 C1884 1.314 . S
N1881 C1885 1.279 . S
C1882 C1880 1.348 . S
C1882 C1884 1.353 . S
C1882 H1924 0.929 . S
C1883 C1880 1.356 . S
C1883 C1885 1.358 . S
C1883 H1925 0.930 . S
C1884 N1881 1.314 . S
C1884 C1882 1.353 . S
C1884 H1926 0.930 . S
C1885 N1881 1.279 . S
C1885 C1883 1.358 . S
C1885 H1927 0.930 . S
C1886 C1887 1.348 . S
C1886 C1888 1.356 . S
C1886 O1911 1.325 . S
C1887 C1886 1.348 . S
C1887 C1889 1.353 . S
C1887 H1928 0.929 . S
C1888 C1886 1.356 . S
C1888 C1890 1.358 . S
C1888 H1929 0.930 . S
C1889 C1887 1.353 . S
C1889 N1891 1.314 . S
C1889 H1930 0.930 . S
C1890 C1888 1.358 . S
C1890 N1891 1.279 . S
C1890 H1931 0.930 . S
N1891 C1889 1.314 . S
N1891 C1890 1.279 . S
C1892 C1894 1.353 . S
C1892 N1895 1.314 . S
C1892 H1898 0.930 . S
C1893 N1895 1.279 . S
C1893 C1896 1.358 . S
C1893 H1899 0.930 . S
C1894 C1892 1.353 . S
C1894 C1897 1.348 . S
C1894 H1932 0.929 . S
N1895 Li1850 1.990 . S
N1895 C1892 1.314 . S
N1895 C1893 1.279 . S
C1896 C1893 1.358 . S
C1896 C1897 1.356 . S
C1896 H1933 0.930 . S
C1897 C1894 1.348 . S
C1897 C1896 1.356 . S
H1898 C1892 0.930 . S
H1899 C1893 0.930 . S
C1900 N1901 1.314 . S
C1900 C1902 1.353 . S
C1900 H1906 0.930 . S
N1901 Li1851 1.990 . S
N1901 C1900 1.314 . S
N1901 C1904 1.279 . S
C1902 C1900 1.353 . S
C1902 C1905 1.348 . S
C1902 H1934 0.929 . S
C1903 C1904 1.358 . S
C1903 C1905 1.356 . S
C1903 H1935 0.930 . S
C1904 N1901 1.279 . S
C1904 C1903 1.358 . S
C1904 H1907 0.930 . S
C1905 C1902 1.348 . S
C1905 C1903 1.356 . S
H1906 C1900 0.930 . S
H1907 C1904 0.930 . S
O1908 Li1848 1.956 . S
O1908 Li1849 1.970 . S
O1908 Li1850 1.961 . S
O1908 C1852 1.325 . S
O1909 Li1848 1.970 . S
O1909 Li1849 1.956 . S
O1909 Li1851 1.961 . S
O1909 C1858 1.325 . S
O1910 Li1848 1.961 . S
O1910 Li1850 1.956 . S
O1910 Li1851 1.970 . S
O1910 C1880 1.325 . S
O1911 Li1849 1.961 . S
O1911 Li1850 1.970 . S
O1911 Li1851 1.956 . S
O1911 C1886 1.325 . S
H1912 C1854 0.929 . S
H1913 C1855 0.930 . S
H1914 C1856 0.930 . S
H1915 C1857 0.930 . S
H1916 C1859 0.930 . S
H1917 C1861 0.929 . S
H1918 C1862 0.930 . S
H1919 C1863 0.930 . S
H1920 C1866 0.930 . S
H1921 C1869 0.929 . S
H1922 C1874 0.929 . S
H1923 C1875 0.930 . S
H1924 C1882 0.929 . S
H1925 C1883 0.930 . S
H1926 C1884 0.930 . S
H1927 C1885 0.930 . S
H1928 C1887 0.929 . S
H1929 C1888 0.930 . S
H1930 C1889 0.930 . S
H1931 C1890 0.930 . S
H1932 C1894 0.929 . S
H1933 C1896 0.930 . S
H1934 C1902 0.929 . S
H1935 C1903 0.930 . S
Li1936 N1953 1.990 . S
Li1936 O1996 1.956 . S
Li1936 O1997 1.970 . S
Li1936 O1998 1.961 . S
Li1937 N1961 1.990 . S
Li1937 O1996 1.970 . S
Li1937 O1997 1.956 . S
Li1937 O1999 1.961 . S
Li1938 N1983 1.990 . S
Li1938 O1996 1.961 . S
Li1938 O1998 1.956 . S
Li1938 O1999 1.970 . S
Li1939 N1989 1.990 . S
Li1939 O1997 1.961 . S
Li1939 O1998 1.970 . S
Li1939 O1999 1.956 . S
C1940 C1942 1.348 . S
C1940 C1943 1.356 . S
C1940 O1996 1.325 . S
N1941 C1944 1.314 . S
N1941 C1945 1.279 . S
C1942 C1940 1.348 . S
C1942 C1944 1.353 . S
C1942 H2000 0.929 . S
C1943 C1940 1.356 . S
C1943 C1945 1.358 . S
C1943 H2001 0.930 . S
C1944 N1941 1.314 . S
C1944 C1942 1.353 . S
C1944 H2002 0.930 . S
C1945 N1941 1.279 . S
C1945 C1943 1.358 . S
C1945 H2003 0.930 . S
C1946 C1949 1.348 . S
C1946 C1950 1.356 . S
C1946 O1997 1.325 . S
C1947 N1948 1.279 . S
C1947 C1950 1.358 . S
C1947 H2004 0.930 . S
N1948 C1947 1.279 . S
N1948 C1951 1.314 . S
C1949 C1946 1.348 . S
C1949 C1951 1.353 . S
C1949 H2005 0.929 . S
C1950 C1946 1.356 . S
C1950 C1947 1.358 . S
C1950 H2006 0.930 . S
C1951 N1948 1.314 . S
C1951 C1949 1.353 . S
C1951 H2007 0.930 . S
C1952 N1953 1.314 . S
C1952 C1957 1.353 . S
C1952 H1958 0.930 . S
N1953 Li1936 1.990 . S
N1953 C1952 1.314 . S
N1953 C1955 1.279 . S
C1954 C1955 1.358 . S
C1954 C1956 1.356 . S
C1954 H2008 0.930 . S
C1955 N1953 1.279 . S
C1955 C1954 1.358 . S
C1955 H1959 0.930 . S
C1956 C1954 1.356 . S
C1956 C1957 1.348 . S
C1957 C1952 1.353 . S
C1957 C1956 1.348 . S
C1957 H2009 0.929 . S
H1958 C1952 0.930 . S
H1959 C1955 0.930 . S
C1960 N1961 1.314 . S
C1960 C1962 1.353 . S
C1960 H1966 0.930 . S
N1961 Li1937 1.990 . S
N1961 C1960 1.314 . S
N1961 C1964 1.279 . S
C1962 C1960 1.353 . S
C1962 C1965 1.348 . S
C1962 H2010 0.929 . S
C1963 C1964 1.358 . S
C1963 C1965 1.356 . S
C1963 H2011 0.930 . S
C1964 N1961 1.279 . S
C1964 C1963 1.358 . S
C1964 H1967 0.930 . S
C1965 C1962 1.348 . S
C1965 C1963 1.356 . S
H1966 C1960 0.930 . S
H1967 C1964 0.930 . S
C1968 C1970 1.348 . S
C1968 C1971 1.356 . S
C1968 O1998 1.325 . S
N1969 C1972 1.314 . S
N1969 C1973 1.279 . S
C1970 C1968 1.348 . S
C1970 C1972 1.353 . S
C1970 H2012 0.929 . S
C1971 C1968 1.356 . S
C1971 C1973 1.358 . S
C1971 H2013 0.930 . S
C1972 N1969 1.314 . S
C1972 C1970 1.353 . S
C1972 H2014 0.930 . S
C1973 N1969 1.279 . S
C1973 C1971 1.358 . S
C1973 H2015 0.930 . S
C1974 C1975 1.348 . S
C1974 C1976 1.356 . S
C1974 O1999 1.325 . S
C1975 C1974 1.348 . S
C1975 C1977 1.353 . S
C1975 H2016 0.929 . S
C1976 C1974 1.356 . S
C1976 C1978 1.358 . S
C1976 H2017 0.930 . S
C1977 C1975 1.353 . S
C1977 N1979 1.314 . S
C1977 H2018 0.930 . S
C1978 C1976 1.358 . S
C1978 N1979 1.279 . S
C1978 H2019 0.930 . S
N1979 C1977 1.314 . S
N1979 C1978 1.279 . S
C1980 C1982 1.353 . S
C1980 N1983 1.314 . S
C1980 H1986 0.930 . S
C1981 N1983 1.279 . S
C1981 C1984 1.358 . S
C1981 H1987 0.930 . S
C1982 C1980 1.353 . S
C1982 C1985 1.348 . S
C1982 H2020 0.929 . S
N1983 Li1938 1.990 . S
N1983 C1980 1.314 . S
N1983 C1981 1.279 . S
C1984 C1981 1.358 . S
C1984 C1985 1.356 . S
C1984 H2021 0.930 . S
C1985 C1982 1.348 . S
C1985 C1984 1.356 . S
H1986 C1980 0.930 . S
H1987 C1981 0.930 . S
C1988 N1989 1.314 . S
C1988 C1990 1.353 . S
C1988 H1994 0.930 . S
N1989 Li1939 1.990 . S
N1989 C1988 1.314 . S
N1989 C1992 1.279 . S
C1990 C1988 1.353 . S
C1990 C1993 1.348 . S
C1990 H2022 0.929 . S
C1991 C1992 1.358 . S
C1991 C1993 1.356 . S
C1991 H2023 0.930 . S
C1992 N1989 1.279 . S
C1992 C1991 1.358 . S
C1992 H1995 0.930 . S
C1993 C1990 1.348 . S
C1993 C1991 1.356 . S
H1994 C1988 0.930 . S
H1995 C1992 0.930 . S
O1996 Li1936 1.956 . S
O1996 Li1937 1.970 . S
O1996 Li1938 1.961 . S
O1996 C1940 1.325 . S
O1997 Li1936 1.970 . S
O1997 Li1937 1.956 . S
O1997 Li1939 1.961 . S
O1997 C1946 1.325 . S
O1998 Li1936 1.961 . S
O1998 Li1938 1.956 . S
O1998 Li1939 1.970 . S
O1998 C1968 1.325 . S
O1999 Li1937 1.961 . S
O1999 Li1938 1.970 . S
O1999 Li1939 1.956 . S
O1999 C1974 1.325 . S
H2000 C1942 0.929 . S
H2001 C1943 0.930 . S
H2002 C1944 0.930 . S
H2003 C1945 0.930 . S
H2004 C1947 0.930 . S
H2005 C1949 0.929 . S
H2006 C1950 0.930 . S
H2007 C1951 0.930 . S
H2008 C1954 0.930 . S
H2009 C1957 0.929 . S
H2010 C1962 0.929 . S
H2011 C1963 0.930 . S
H2012 C1970 0.929 . S
H2013 C1971 0.930 . S
H2014 C1972 0.930 . S
H2015 C1973 0.930 . S
H2016 C1975 0.929 . S
H2017 C1976 0.930 . S
H2018 C1977 0.930 . S
H2019 C1978 0.930 . S
H2020 C1982 0.929 . S
H2021 C1984 0.930 . S
H2022 C1990 0.929 . S
H2023 C1991 0.930 . S
Li2024 N2041 1.990 . S
Li2024 O2084 1.956 . S
Li2024 O2085 1.970 . S
Li2024 O2086 1.961 . S
Li2025 N2049 1.990 . S
Li2025 O2084 1.970 . S
Li2025 O2085 1.956 . S
Li2025 O2087 1.961 . S
Li2026 N2071 1.990 . S
Li2026 O2084 1.961 . S
Li2026 O2086 1.956 . S
Li2026 O2087 1.970 . S
Li2027 N2077 1.990 . S
Li2027 O2085 1.961 . S
Li2027 O2086 1.970 . S
Li2027 O2087 1.956 . S
C2028 C2030 1.348 . S
C2028 C2031 1.356 . S
C2028 O2084 1.325 . S
N2029 C2032 1.314 . S
N2029 C2033 1.279 . S
C2030 C2028 1.348 . S
C2030 C2032 1.353 . S
C2030 H2088 0.929 . S
C2031 C2028 1.356 . S
C2031 C2033 1.358 . S
C2031 H2089 0.930 . S
C2032 N2029 1.314 . S
C2032 C2030 1.353 . S
C2032 H2090 0.930 . S
C2033 N2029 1.279 . S
C2033 C2031 1.358 . S
C2033 H2091 0.930 . S
C2034 C2037 1.348 . S
C2034 C2038 1.356 . S
C2034 O2085 1.325 . S
C2035 N2036 1.279 . S
C2035 C2038 1.358 . S
C2035 H2092 0.930 . S
N2036 C2035 1.279 . S
N2036 C2039 1.314 . S
C2037 C2034 1.348 . S
C2037 C2039 1.353 . S
C2037 H2093 0.929 . S
C2038 C2034 1.356 . S
C2038 C2035 1.358 . S
C2038 H2094 0.930 . S
C2039 N2036 1.314 . S
C2039 C2037 1.353 . S
C2039 H2095 0.930 . S
C2040 N2041 1.314 . S
C2040 C2045 1.353 . S
C2040 H2046 0.930 . S
N2041 Li2024 1.990 . S
N2041 C2040 1.314 . S
N2041 C2043 1.279 . S
C2042 C2043 1.358 . S
C2042 C2044 1.356 . S
C2042 H2096 0.930 . S
C2043 N2041 1.279 . S
C2043 C2042 1.358 . S
C2043 H2047 0.930 . S
C2044 C2042 1.356 . S
C2044 C2045 1.348 . S
C2045 C2040 1.353 . S
C2045 C2044 1.348 . S
C2045 H2097 0.929 . S
H2046 C2040 0.930 . S
H2047 C2043 0.930 . S
C2048 N2049 1.314 . S
C2048 C2050 1.353 . S
C2048 H2054 0.930 . S
N2049 Li2025 1.990 . S
N2049 C2048 1.314 . S
N2049 C2052 1.279 . S
C2050 C2048 1.353 . S
C2050 C2053 1.348 . S
C2050 H2098 0.929 . S
C2051 C2052 1.358 . S
C2051 C2053 1.356 . S
C2051 H2099 0.930 . S
C2052 N2049 1.279 . S
C2052 C2051 1.358 . S
C2052 H2055 0.930 . S
C2053 C2050 1.348 . S
C2053 C2051 1.356 . S
H2054 C2048 0.930 . S
H2055 C2052 0.930 . S
C2056 C2058 1.348 . S
C2056 C2059 1.356 . S
C2056 O2086 1.325 . S
N2057 C2060 1.314 . S
N2057 C2061 1.279 . S
C2058 C2056 1.348 . S
C2058 C2060 1.353 . S
C2058 H2100 0.929 . S
C2059 C2056 1.356 . S
C2059 C2061 1.358 . S
C2059 H2101 0.930 . S
C2060 N2057 1.314 . S
C2060 C2058 1.353 . S
C2060 H2102 0.930 . S
C2061 N2057 1.279 . S
C2061 C2059 1.358 . S
C2061 H2103 0.930 . S
C2062 C2063 1.348 . S
C2062 C2064 1.356 . S
C2062 O2087 1.325 . S
C2063 C2062 1.348 . S
C2063 C2065 1.353 . S
C2063 H2104 0.929 . S
C2064 C2062 1.356 . S
C2064 C2066 1.358 . S
C2064 H2105 0.930 . S
C2065 C2063 1.353 . S
C2065 N2067 1.314 . S
C2065 H2106 0.930 . S
C2066 C2064 1.358 . S
C2066 N2067 1.279 . S
C2066 H2107 0.930 . S
N2067 C2065 1.314 . S
N2067 C2066 1.279 . S
C2068 C2070 1.353 . S
C2068 N2071 1.314 . S
C2068 H2074 0.930 . S
C2069 N2071 1.279 . S
C2069 C2072 1.358 . S
C2069 H2075 0.930 . S
C2070 C2068 1.353 . S
C2070 C2073 1.348 . S
C2070 H2108 0.929 . S
N2071 Li2026 1.990 . S
N2071 C2068 1.314 . S
N2071 C2069 1.279 . S
C2072 C2069 1.358 . S
C2072 C2073 1.356 . S
C2072 H2109 0.930 . S
C2073 C2070 1.348 . S
C2073 C2072 1.356 . S
H2074 C2068 0.930 . S
H2075 C2069 0.930 . S
C2076 N2077 1.314 . S
C2076 C2078 1.353 . S
C2076 H2082 0.930 . S
N2077 Li2027 1.990 . S
N2077 C2076 1.314 . S
N2077 C2080 1.279 . S
C2078 C2076 1.353 . S
C2078 C2081 1.348 . S
C2078 H2110 0.929 . S
C2079 C2080 1.358 . S
C2079 C2081 1.356 . S
C2079 H2111 0.930 . S
C2080 N2077 1.279 . S
C2080 C2079 1.358 . S
C2080 H2083 0.930 . S
C2081 C2078 1.348 . S
C2081 C2079 1.356 . S
H2082 C2076 0.930 . S
H2083 C2080 0.930 . S
O2084 Li2024 1.956 . S
O2084 Li2025 1.970 . S
O2084 Li2026 1.961 . S
O2084 C2028 1.325 . S
O2085 Li2024 1.970 . S
O2085 Li2025 1.956 . S
O2085 Li2027 1.961 . S
O2085 C2034 1.325 . S
O2086 Li2024 1.961 . S
O2086 Li2026 1.956 . S
O2086 Li2027 1.970 . S
O2086 C2056 1.325 . S
O2087 Li2025 1.961 . S
O2087 Li2026 1.970 . S
O2087 Li2027 1.956 . S
O2087 C2062 1.325 . S
H2088 C2030 0.929 . S
H2089 C2031 0.930 . S
H2090 C2032 0.930 . S
H2091 C2033 0.930 . S
H2092 C2035 0.930 . S
H2093 C2037 0.929 . S
H2094 C2038 0.930 . S
H2095 C2039 0.930 . S
H2096 C2042 0.930 . S
H2097 C2045 0.929 . S
H2098 C2050 0.929 . S
H2099 C2051 0.930 . S
H2100 C2058 0.929 . S
H2101 C2059 0.930 . S
H2102 C2060 0.930 . S
H2103 C2061 0.930 . S
H2104 C2063 0.929 . S
H2105 C2064 0.930 . S
H2106 C2065 0.930 . S
H2107 C2066 0.930 . S
H2108 C2070 0.929 . S
H2109 C2072 0.930 . S
H2110 C2078 0.929 . S
H2111 C2079 0.930 . S
Dy2112 O2115 2.307 . S
Dy2112 O2117 2.395 . S
Dy2112 O2118 2.379 . S
Dy2112 O2120 2.339 . S
Dy2112 O2122 2.298 . S
Dy2112 O2126 2.335 . S
Dy2112 C2134 2.738 . S
Dy2113 O2116 2.298 1_655 S
Dy2113 O2119 2.275 1_655 S
Dy2113 O2121 2.307 1_645 S
Dy2113 O2123 2.395 . S
Dy2113 O2124 2.379 1_554 S
Dy2113 O2127 2.339 1_654 S
Dy2113 C2143 2.738 . S
C2114 O2126 1.194 1_556 S
C2114 O2127 1.257 . S
O2115 Dy2112 2.307 . S
O2115 C2125 1.266 . S
O2116 Dy2113 2.298 1_455 S
O2116 C2125 1.236 . S
O2117 Dy2112 2.395 . S
O2117 C2134 1.255 . S
O2118 Dy2112 2.379 . S
O2118 C2134 1.249 . S
O2119 Dy2113 2.275 1_455 S
O2119 C2135 1.254 . S
O2120 Dy2112 2.339 . S
O2120 C2135 1.257 . S
O2121 Dy2113 2.307 1_465 S
O2121 C2136 1.266 . S
O2122 Dy2112 2.298 . S
O2122 C2136 1.236 1_545 S
O2123 Dy2113 2.395 . S
O2123 C2143 1.255 . S
O2124 Dy2113 2.379 1_556 S
O2124 C2143 1.249 1_556 S
C2125 O2115 1.266 . S
C2125 O2116 1.236 . S
O2126 Dy2112 2.335 . S
O2126 C2114 1.194 1_554 S
O2127 Dy2113 2.339 1_456 S
O2127 C2114 1.257 . S
C2128 C2131 1.344 . S
C2128 C2132 1.328 . S
C2128 C2134 1.516 . S
C2129 C2130 1.304 . S
C2129 C2133 1.323 1_565 S
C2130 C2129 1.304 . S
C2130 C2131 1.371 1_565 S
C2130 H2144 0.930 . S
C2131 C2128 1.344 . S
C2131 C2130 1.371 1_545 S
C2131 H2145 0.932 1_545 S
C2132 C2128 1.328 . S
C2132 C2133 1.433 . S
C2132 H2146 0.931 . S
C2133 C2129 1.323 1_545 S
C2133 C2132 1.433 . S
C2133 H2147 0.933 . S
C2134 Dy2112 2.738 . S
C2134 O2117 1.255 . S
C2134 O2118 1.249 . S
C2134 C2128 1.516 . S
C2135 O2119 1.254 . S
C2135 O2120 1.257 . S
C2136 O2121 1.266 . S
C2136 O2122 1.236 1_565 S
C2137 C2140 1.344 . S
C2137 C2141 1.328 1_554 S
C2137 C2143 1.516 . S
C2138 C2139 1.304 . S
C2138 C2142 1.323 1_554 S
C2139 C2138 1.304 . S
C2139 C2140 1.371 . S
C2139 H2148 0.930 . S
C2140 C2137 1.344 . S
C2140 C2139 1.371 . S
C2140 H2149 0.931 . S
C2141 C2137 1.328 1_556 S
C2141 C2142 1.433 . S
C2141 H2150 0.931 . S
C2142 C2138 1.323 1_556 S
C2142 C2141 1.433 . S
C2142 H2151 0.933 . S
C2143 Dy2113 2.738 . S
C2143 O2123 1.255 . S
C2143 O2124 1.249 1_554 S
C2143 C2137 1.516 . S
H2144 C2130 0.930 . S
H2145 C2131 0.932 1_565 S
H2146 C2132 0.931 . S
H2147 C2133 0.933 . S
H2148 C2139 0.930 . S
H2149 C2140 0.931 . S
H2150 C2141 0.931 . S
H2151 C2142 0.933 . S
Dy2152 O2155 2.307 . S
Dy2152 O2157 2.395 . S
Dy2152 O2158 2.379 . S
Dy2152 O2160 2.339 . S
Dy2152 O2162 2.298 . S
Dy2152 O2166 2.275 . S
Dy2152 C2174 2.738 . S
Dy2153 O2156 2.298 . S
Dy2153 O2159 2.275 . S
Dy2153 O2161 2.307 . S
Dy2153 O2163 2.395 . S
Dy2153 O2164 2.379 . S
Dy2153 O2167 2.339 . S
Dy2153 C2183 2.738 . S
C2154 O2166 1.254 . S
C2154 O2167 1.257 . S
O2155 Dy2152 2.307 . S
O2155 C2165 1.266 . S
O2156 Dy2153 2.298 . S
O2156 C2165 1.236 . S
O2157 Dy2152 2.395 . S
O2157 C2174 1.255 . S
O2158 Dy2152 2.379 . S
O2158 C2174 1.249 . S
O2159 Dy2153 2.275 . S
O2159 C2175 1.254 . S
O2160 Dy2152 2.339 . S
O2160 C2175 1.257 . S
O2161 Dy2153 2.307 . S
O2161 C2176 1.266 . S
O2162 Dy2152 2.298 . S
O2162 C2176 1.236 . S
O2163 Dy2153 2.395 . S
O2163 C2183 1.255 . S
O2164 Dy2153 2.379 . S
O2164 C2183 1.249 . S
C2165 O2155 1.266 . S
C2165 O2156 1.236 . S
O2166 Dy2152 2.275 . S
O2166 C2154 1.254 . S
O2167 Dy2153 2.339 . S
O2167 C2154 1.257 . S
C2168 C2171 1.344 . S
C2168 C2172 1.328 . S
C2168 C2174 1.516 . S
C2169 C2170 1.304 . S
C2169 C2173 1.323 . S
C2170 C2169 1.304 . S
C2170 C2171 1.371 . S
C2170 H2184 0.930 . S
C2171 C2168 1.344 . S
C2171 C2170 1.371 . S
C2171 H2185 0.931 . S
C2172 C2168 1.328 . S
C2172 C2173 1.433 . S
C2172 H2186 0.931 . S
C2173 C2169 1.323 . S
C2173 C2172 1.433 . S
C2173 H2187 0.933 . S
C2174 Dy2152 2.738 . S
C2174 O2157 1.255 . S
C2174 O2158 1.249 . S
C2174 C2168 1.516 . S
C2175 O2159 1.254 . S
C2175 O2160 1.257 . S
C2176 O2161 1.266 . S
C2176 O2162 1.236 . S
C2177 C2180 1.344 . S
C2177 C2181 1.328 . S
C2177 C2183 1.516 . S
C2178 C2179 1.304 . S
C2178 C2182 1.323 . S
C2179 C2178 1.304 . S
C2179 C2180 1.371 . S
C2179 H2188 0.930 . S
C2180 C2177 1.344 . S
C2180 C2179 1.371 . S
C2180 H2189 0.931 . S
C2181 C2177 1.328 . S
C2181 C2182 1.433 . S
C2181 H2190 0.931 . S
C2182 C2178 1.323 . S
C2182 C2181 1.433 . S
C2182 H2191 0.933 . S
C2183 Dy2153 2.738 . S
C2183 O2163 1.255 . S
C2183 O2164 1.249 . S
C2183 C2177 1.516 . S
H2184 C2170 0.930 . S
H2185 C2171 0.931 . S
H2186 C2172 0.931 . S
H2187 C2173 0.933 . S
H2188 C2179 0.930 . S
H2189 C2180 0.931 . S
H2190 C2181 0.931 . S
H2191 C2182 0.933 . S
Dy2192 O2195 2.332 . S
Dy2192 O2197 2.395 . S
Dy2192 O2198 2.379 . S
Dy2192 O2200 2.339 . S
Dy2192 O2202 2.298 . S
Dy2192 O2206 2.275 . S
Dy2192 C2214 2.738 . S
Dy2193 O2196 2.298 . S
Dy2193 O2199 2.275 . S
Dy2193 O2201 2.307 . S
Dy2193 O2203 2.395 . S
Dy2193 O2204 2.379 . S
Dy2193 O2207 2.339 . S
Dy2193 C2223 2.738 . S
C2194 O2206 1.254 . S
C2194 O2207 1.257 . S
O2195 Dy2192 2.332 . S
O2195 C2205 1.253 1_545 S
O2196 Dy2193 2.298 . S
O2196 C2205 1.236 1_545 S
O2197 Dy2192 2.395 . S
O2197 C2214 1.255 . S
O2198 Dy2192 2.379 . S
O2198 C2214 1.249 . S
O2199 Dy2193 2.275 . S
O2199 C2215 1.254 . S
O2200 Dy2192 2.339 . S
O2200 C2215 1.257 . S
O2201 Dy2193 2.307 . S
O2201 C2216 1.266 . S
O2202 Dy2192 2.298 . S
O2202 C2216 1.236 . S
O2203 Dy2193 2.395 . S
O2203 C2223 1.255 . S
O2204 Dy2193 2.379 . S
O2204 C2223 1.249 . S
C2205 O2195 1.253 1_565 S
C2205 O2196 1.236 1_565 S
O2206 Dy2192 2.275 . S
O2206 C2194 1.254 . S
O2207 Dy2193 2.339 . S
O2207 C2194 1.257 . S
C2208 C2211 1.344 . S
C2208 C2212 1.328 . S
C2208 C2214 1.516 . S
C2209 C2210 1.304 . S
C2209 C2213 1.323 . S
C2210 C2209 1.304 . S
C2210 C2211 1.371 . S
C2210 H2224 0.930 . S
C2211 C2208 1.344 . S
C2211 C2210 1.371 . S
C2211 H2225 0.931 . S
C2212 C2208 1.328 . S
C2212 C2213 1.433 . S
C2212 H2226 0.931 . S
C2213 C2209 1.323 . S
C2213 C2212 1.433 . S
C2213 H2227 0.933 . S
C2214 Dy2192 2.738 . S
C2214 O2197 1.255 . S
C2214 O2198 1.249 . S
C2214 C2208 1.516 . S
C2215 O2199 1.254 . S
C2215 O2200 1.257 . S
C2216 O2201 1.266 . S
C2216 O2202 1.236 . S
C2217 C2220 1.344 1_545 S
C2217 C2221 1.328 . S
C2217 C2223 1.516 . S
C2218 C2219 1.304 . S
C2218 C2222 1.323 . S
C2219 C2218 1.304 . S
C2219 C2220 1.371 . S
C2219 H2228 0.930 . S
C2220 C2217 1.344 1_565 S
C2220 C2219 1.371 . S
C2220 H2229 0.931 . S
C2221 C2217 1.328 . S
C2221 C2222 1.433 1_545 S
C2221 H2230 0.931 . S
C2222 C2218 1.323 . S
C2222 C2221 1.433 1_565 S
C2222 H2231 0.933 . S
C2223 Dy2193 2.738 . S
C2223 O2203 1.255 . S
C2223 O2204 1.249 . S
C2223 C2217 1.516 . S
H2224 C2210 0.930 . S
H2225 C2211 0.931 . S
H2226 C2212 0.931 . S
H2227 C2213 0.933 . S
H2228 C2219 0.930 . S
H2229 C2220 0.931 . S
H2230 C2221 0.931 . S
H2231 C2222 0.933 . S
Dy2232 O2235 2.307 . S
Dy2232 O2237 2.395 . S
Dy2232 O2238 2.379 . S
Dy2232 O2240 2.339 . S
Dy2232 O2242 2.298 . S
Dy2232 O2246 2.275 . S
Dy2232 C2254 2.738 . S
Dy2233 O2236 2.298 . S
Dy2233 O2239 2.275 . S
Dy2233 O2241 2.307 . S
Dy2233 O2243 2.395 . S
Dy2233 O2244 2.379 . S
Dy2233 O2247 2.339 . S
Dy2233 C2263 2.738 . S
C2234 O2246 1.254 . S
C2234 O2247 1.257 . S
O2235 Dy2232 2.307 . S
O2235 C2245 1.266 . S
O2236 Dy2233 2.298 . S
O2236 C2245 1.236 . S
O2237 Dy2232 2.395 . S
O2237 C2254 1.255 . S
O2238 Dy2232 2.379 . S
O2238 C2254 1.249 . S
O2239 Dy2233 2.275 . S
O2239 C2255 1.254 . S
O2240 Dy2232 2.339 . S
O2240 C2255 1.257 . S
O2241 Dy2233 2.307 . S
O2241 C2256 1.266 . S
O2242 Dy2232 2.298 . S
O2242 C2256 1.236 . S
O2243 Dy2233 2.395 . S
O2243 C2263 1.255 . S
O2244 Dy2233 2.379 . S
O2244 C2263 1.249 . S
C2245 O2235 1.266 . S
C2245 O2236 1.236 . S
O2246 Dy2232 2.275 . S
O2246 C2234 1.254 . S
O2247 Dy2233 2.339 . S
O2247 C2234 1.257 . S
C2248 C2251 1.344 . S
C2248 C2252 1.328 . S
C2248 C2254 1.516 . S
C2249 C2250 1.304 . S
C2249 C2253 1.323 . S
C2250 C2249 1.304 . S
C2250 C2251 1.371 . S
C2250 H2264 0.930 . S
C2251 C2248 1.344 . S
C2251 C2250 1.371 . S
C2251 H2265 0.931 . S
C2252 C2248 1.328 . S
C2252 C2253 1.433 . S
C2252 H2266 0.931 . S
C2253 C2249 1.323 . S
C2253 C2252 1.433 . S
C2253 H2267 0.933 . S
C2254 Dy2232 2.738 . S
C2254 O2237 1.255 . S
C2254 O2238 1.249 . S
C2254 C2248 1.516 . S
C2255 O2239 1.254 . S
C2255 O2240 1.257 . S
C2256 O2241 1.266 . S
C2256 O2242 1.236 . S
C2257 C2260 1.344 . S
C2257 C2261 1.328 . S
C2257 C2263 1.516 . S
C2258 C2259 1.304 . S
C2258 C2262 1.323 . S
C2259 C2258 1.304 . S
C2259 C2260 1.371 . S
C2259 H2268 0.930 . S
C2260 C2257 1.344 . S
C2260 C2259 1.371 . S
C2260 H2269 0.931 . S
C2261 C2257 1.328 . S
C2261 C2262 1.433 . S
C2261 H2270 0.931 . S
C2262 C2258 1.323 . S
C2262 C2261 1.433 . S
C2262 H2271 0.933 . S
C2263 Dy2233 2.738 . S
C2263 O2243 1.255 . S
C2263 O2244 1.249 . S
C2263 C2257 1.516 . S
H2264 C2250 0.930 . S
H2265 C2251 0.931 . S
H2266 C2252 0.931 . S
H2267 C2253 0.933 . S
H2268 C2259 0.930 . S
H2269 C2260 0.931 . S
H2270 C2261 0.931 . S
H2271 C2262 0.933 . S
Dy2272 O2275 2.307 . S
Dy2272 O2277 2.395 1_545 S
Dy2272 O2278 2.379 1_545 S
Dy2272 O2280 2.339 . S
Dy2272 O2282 2.298 . S
Dy2272 O2286 2.275 . S
Dy2272 C2294 2.738 1_545 S
Dy2273 O2276 2.298 . S
Dy2273 O2279 2.275 . S
Dy2273 O2281 2.307 . S
Dy2273 O2283 2.395 . S
Dy2273 O2284 2.379 1_455 S
Dy2273 O2287 2.339 1_455 S
Dy2273 C2303 2.738 . S
C2274 O2286 1.254 1_655 S
C2274 O2287 1.257 . S
O2275 Dy2272 2.307 . S
O2275 C2285 1.266 . S
O2276 Dy2273 2.298 . S
O2276 C2285 1.236 . S
O2277 Dy2272 2.395 1_565 S
O2277 C2294 1.255 . S
O2278 Dy2272 2.379 1_565 S
O2278 C2294 1.249 . S
O2279 Dy2273 2.275 . S
O2279 C2295 1.254 . S
O2280 Dy2272 2.339 . S
O2280 C2295 1.257 . S
O2281 Dy2273 2.307 . S
O2281 C2296 1.266 . S
O2282 Dy2272 2.298 . S
O2282 C2296 1.236 . S
O2283 Dy2273 2.395 . S
O2283 C2303 1.255 . S
O2284 Dy2273 2.379 1_655 S
O2284 C2303 1.249 1_655 S
C2285 O2275 1.266 . S
C2285 O2276 1.236 . S
O2286 Dy2272 2.275 . S
O2286 C2274 1.254 1_455 S
O2287 Dy2273 2.339 1_655 S
O2287 C2274 1.257 . S
C2288 C2291 1.344 . S
C2288 C2292 1.328 . S
C2288 C2294 1.516 . S
C2289 C2290 1.304 . S
C2289 C2293 1.323 . S
C2290 C2289 1.304 . S
C2290 C2291 1.371 . S
C2290 H2304 0.930 . S
C2291 C2288 1.344 . S
C2291 C2290 1.371 . S
C2291 H2305 0.931 . S
C2292 C2288 1.328 . S
C2292 C2293 1.433 . S
C2292 H2306 0.931 . S
C2293 C2289 1.323 . S
C2293 C2292 1.433 . S
C2293 H2307 0.933 . S
C2294 Dy2272 2.738 1_565 S
C2294 O2277 1.255 . S
C2294 O2278 1.249 . S
C2294 C2288 1.516 . S
C2295 O2279 1.254 . S
C2295 O2280 1.257 . S
C2296 O2281 1.266 . S
C2296 O2282 1.236 . S
C2297 C2300 1.344 . S
C2297 C2301 1.328 1_455 S
C2297 C2303 1.516 . S
C2298 C2299 1.304 . S
C2298 C2302 1.323 1_455 S
C2299 C2298 1.304 . S
C2299 C2300 1.371 . S
C2299 H2308 0.930 . S
C2300 C2297 1.344 . S
C2300 C2299 1.371 . S
C2300 H2309 0.931 . S
C2301 C2297 1.328 1_655 S
C2301 C2302 1.433 . S
C2301 H2310 0.931 . S
C2302 C2298 1.323 1_655 S
C2302 C2301 1.433 . S
C2302 H2311 0.933 . S
C2303 Dy2273 2.738 . S
C2303 O2283 1.255 . S
C2303 O2284 1.249 1_455 S
C2303 C2297 1.516 . S
H2304 C2290 0.930 . S
H2305 C2291 0.931 . S
H2306 C2292 0.931 . S
H2307 C2293 0.933 . S
H2308 C2299 0.930 . S
H2309 C2300 0.931 . S
H2310 C2301 0.931 . S
H2311 C2302 0.933 . S
Dy2312 O2315 2.307 . S
Dy2312 O2317 2.395 . S
Dy2312 O2318 2.379 . S
Dy2312 O2320 2.339 . S
Dy2312 O2322 2.298 . S
Dy2312 O2326 2.275 . S
Dy2312 C2334 2.738 . S
Dy2313 O2316 2.298 . S
Dy2313 O2319 2.275 . S
Dy2313 O2321 2.307 . S
Dy2313 O2323 2.395 . S
Dy2313 O2324 2.379 . S
Dy2313 O2327 2.339 . S
Dy2313 C2343 2.738 . S
C2314 O2326 1.254 . S
C2314 O2327 1.257 . S
O2315 Dy2312 2.307 . S
O2315 C2325 1.266 . S
O2316 Dy2313 2.298 . S
O2316 C2325 1.236 . S
O2317 Dy2312 2.395 . S
O2317 C2334 1.255 . S
O2318 Dy2312 2.379 . S
O2318 C2334 1.249 . S
O2319 Dy2313 2.275 . S
O2319 C2335 1.254 . S
O2320 Dy2312 2.339 . S
O2320 C2335 1.257 . S
O2321 Dy2313 2.307 . S
O2321 C2336 1.266 . S
O2322 Dy2312 2.298 . S
O2322 C2336 1.236 . S
O2323 Dy2313 2.395 . S
O2323 C2343 1.255 . S
O2324 Dy2313 2.379 . S
O2324 C2343 1.249 . S
C2325 O2315 1.266 . S
C2325 O2316 1.236 . S
O2326 Dy2312 2.275 . S
O2326 C2314 1.254 . S
O2327 Dy2313 2.339 . S
O2327 C2314 1.257 . S
C2328 C2331 1.344 . S
C2328 C2332 1.328 . S
C2328 C2334 1.516 . S
C2329 C2330 1.304 . S
C2329 C2333 1.323 . S
C2330 C2329 1.304 . S
C2330 C2331 1.371 . S
C2330 H2344 0.930 . S
C2331 C2328 1.344 . S
C2331 C2330 1.371 . S
C2331 H2345 0.931 . S
C2332 C2328 1.328 . S
C2332 C2333 1.433 . S
C2332 H2346 0.931 . S
C2333 C2329 1.323 . S
C2333 C2332 1.433 . S
C2333 H2347 0.933 . S
C2334 Dy2312 2.738 . S
C2334 O2317 1.255 . S
C2334 O2318 1.249 . S
C2334 C2328 1.516 . S
C2335 O2319 1.254 . S
C2335 O2320 1.257 . S
C2336 O2321 1.266 . S
C2336 O2322 1.236 . S
C2337 C2340 1.344 . S
C2337 C2341 1.328 . S
C2337 C2343 1.516 . S
C2338 C2339 1.304 . S
C2338 C2342 1.323 . S
C2339 C2338 1.304 . S
C2339 C2340 1.371 . S
C2339 H2348 0.930 . S
C2340 C2337 1.344 . S
C2340 C2339 1.371 . S
C2340 H2349 0.931 . S
C2341 C2337 1.328 . S
C2341 C2342 1.433 . S
C2341 H2350 0.931 . S
C2342 C2338 1.323 . S
C2342 C2341 1.433 . S
C2342 H2351 0.933 . S
C2343 Dy2313 2.738 . S
C2343 O2323 1.255 . S
C2343 O2324 1.249 . S
C2343 C2337 1.516 . S
H2344 C2330 0.930 . S
H2345 C2331 0.931 . S
H2346 C2332 0.931 . S
H2347 C2333 0.933 . S
H2348 C2339 0.930 . S
H2349 C2340 0.931 . S
H2350 C2341 0.931 . S
H2351 C2342 0.933 . S
Dy2352 O2355 2.307 1_556 S
Dy2352 O2357 2.395 . S
Dy2352 O2358 2.379 . S
Dy2352 O2360 2.339 1_556 S
Dy2352 O2362 2.298 1_556 S
Dy2352 O2366 2.275 1_556 S
Dy2352 C2374 2.738 . S
Dy2353 O2356 2.298 . S
Dy2353 O2359 2.275 . S
Dy2353 O2361 2.307 . S
Dy2353 O2363 2.395 . S
Dy2353 O2364 2.346 1_545 S
Dy2353 O2367 2.339 1_545 S
Dy2353 C2383 2.738 . S
C2354 O2366 1.254 1_565 S
C2354 O2367 1.257 . S
O2355 Dy2352 2.307 1_554 S
O2355 C2365 1.266 . S
O2356 Dy2353 2.298 . S
O2356 C2365 1.236 . S
O2357 Dy2352 2.395 . S
O2357 C2374 1.255 . S
O2358 Dy2352 2.379 . S
O2358 C2374 1.249 . S
O2359 Dy2353 2.275 . S
O2359 C2375 1.254 . S
O2360 Dy2352 2.339 1_554 S
O2360 C2375 1.257 . S
O2361 Dy2353 2.307 . S
O2361 C2376 1.266 . S
O2362 Dy2352 2.298 1_554 S
O2362 C2376 1.236 . S
O2363 Dy2353 2.395 . S
O2363 C2383 1.255 . S
O2364 Dy2353 2.346 1_565 S
O2364 C2383 1.213 1_565 S
C2365 O2355 1.266 . S
C2365 O2356 1.236 . S
O2366 Dy2352 2.275 1_554 S
O2366 C2354 1.254 1_545 S
O2367 Dy2353 2.339 1_565 S
O2367 C2354 1.257 . S
C2368 C2371 1.344 . S
C2368 C2372 1.328 . S
C2368 C2374 1.516 . S
C2369 C2370 1.304 . S
C2369 C2373 1.323 . S
C2370 C2369 1.304 . S
C2370 C2371 1.371 . S
C2370 H2384 0.930 . S
C2371 C2368 1.344 . S
C2371 C2370 1.371 . S
C2371 H2385 0.931 . S
C2372 C2368 1.328 . S
C2372 C2373 1.433 . S
C2372 H2386 0.931 . S
C2373 C2369 1.323 . S
C2373 C2372 1.433 . S
C2373 H2387 0.933 . S
C2374 Dy2352 2.738 . S
C2374 O2357 1.255 . S
C2374 O2358 1.249 . S
C2374 C2368 1.516 . S
C2375 O2359 1.254 . S
C2375 O2360 1.257 . S
C2376 O2361 1.266 . S
C2376 O2362 1.236 . S
C2377 C2380 1.344 . S
C2377 C2381 1.328 1_545 S
C2377 C2383 1.516 . S
C2378 C2379 1.304 1_565 S
C2378 C2382 1.323 . S
C2379 C2378 1.304 1_545 S
C2379 C2380 1.371 . S
C2379 H2388 0.930 . S
C2380 C2377 1.344 . S
C2380 C2379 1.371 . S
C2380 H2389 0.931 . S
C2381 C2377 1.328 1_565 S
C2381 C2382 1.433 . S
C2381 H2390 0.931 . S
C2382 C2378 1.323 . S
C2382 C2381 1.433 . S
C2382 H2391 0.933 . S
C2383 Dy2353 2.738 . S
C2383 O2363 1.255 . S
C2383 O2364 1.213 1_545 S
C2383 C2377 1.516 . S
H2384 C2370 0.930 . S
H2385 C2371 0.931 . S
H2386 C2372 0.931 . S
H2387 C2373 0.933 . S
H2388 C2379 0.930 . S
H2389 C2380 0.931 . S
H2390 C2381 0.931 . S
H2391 C2382 0.933 . S
Dy2392 O2395 2.307 . S
Dy2392 O2397 2.395 . S
Dy2392 O2398 2.379 . S
Dy2392 O2400 2.339 . S
Dy2392 O2402 2.298 . S
Dy2392 O2406 2.275 . S
Dy2392 C2414 2.738 . S
Dy2393 O2396 2.298 . S
Dy2393 O2399 2.275 . S
Dy2393 O2401 2.307 . S
Dy2393 O2403 2.395 . S
Dy2393 O2404 2.379 . S
Dy2393 O2407 2.339 . S
Dy2393 C2423 2.738 . S
C2394 O2406 1.254 . S
C2394 O2407 1.257 . S
O2395 Dy2392 2.307 . S
O2395 C2405 1.266 . S
O2396 Dy2393 2.298 . S
O2396 C2405 1.236 . S
O2397 Dy2392 2.395 . S
O2397 C2414 1.255 . S
O2398 Dy2392 2.379 . S
O2398 C2414 1.249 . S
O2399 Dy2393 2.275 . S
O2399 C2415 1.254 . S
O2400 Dy2392 2.339 . S
O2400 C2415 1.257 . S
O2401 Dy2393 2.307 . S
O2401 C2416 1.266 . S
O2402 Dy2392 2.298 . S
O2402 C2416 1.236 . S
O2403 Dy2393 2.395 . S
O2403 C2423 1.255 . S
O2404 Dy2393 2.379 . S
O2404 C2423 1.249 . S
C2405 O2395 1.266 . S
C2405 O2396 1.236 . S
O2406 Dy2392 2.275 . S
O2406 C2394 1.254 . S
O2407 Dy2393 2.339 . S
O2407 C2394 1.257 . S
C2408 C2411 1.344 . S
C2408 C2412 1.328 . S
C2408 C2414 1.516 . S
C2409 C2410 1.304 . S
C2409 C2413 1.323 . S
C2410 C2409 1.304 . S
C2410 C2411 1.371 . S
C2410 H2424 0.930 . S
C2411 C2408 1.344 . S
C2411 C2410 1.371 . S
C2411 H2425 0.931 . S
C2412 C2408 1.328 . S
C2412 C2413 1.433 . S
C2412 H2426 0.931 . S
C2413 C2409 1.323 . S
C2413 C2412 1.433 . S
C2413 H2427 0.933 . S
C2414 Dy2392 2.738 . S
C2414 O2397 1.255 . S
C2414 O2398 1.249 . S
C2414 C2408 1.516 . S
C2415 O2399 1.254 . S
C2415 O2400 1.257 . S
C2416 O2401 1.266 . S
C2416 O2402 1.236 . S
C2417 C2420 1.344 . S
C2417 C2421 1.328 . S
C2417 C2423 1.516 . S
C2418 C2419 1.304 . S
C2418 C2422 1.323 . S
C2419 C2418 1.304 . S
C2419 C2420 1.371 . S
C2419 H2428 0.930 . S
C2420 C2417 1.344 . S
C2420 C2419 1.371 . S
C2420 H2429 0.931 . S
C2421 C2417 1.328 . S
C2421 C2422 1.433 . S
C2421 H2430 0.931 . S
C2422 C2418 1.323 . S
C2422 C2421 1.433 . S
C2422 H2431 0.933 . S
C2423 Dy2393 2.738 . S
C2423 O2403 1.255 . S
C2423 O2404 1.249 . S
C2423 C2417 1.516 . S
H2424 C2410 0.930 . S
H2425 C2411 0.931 . S
H2426 C2412 0.931 . S
H2427 C2413 0.933 . S
H2428 C2419 0.930 . S
H2429 C2420 0.931 . S
H2430 C2421 0.931 . S
H2431 C2422 0.933 . S
Dy2432 O2435 2.307 1_554 S
Dy2432 O2437 2.395 . S
Dy2432 O2438 2.379 . S
Dy2432 O2440 2.339 . S
Dy2432 O2442 2.298 . S
Dy2432 O2446 2.275 . S
Dy2432 C2454 2.738 . S
Dy2433 O2436 2.298 1_554 S
Dy2433 O2439 2.275 . S
Dy2433 O2441 2.307 . S
Dy2433 O2443 2.395 . S
Dy2433 O2444 2.379 . S
Dy2433 O2447 2.339 . S
Dy2433 C2463 2.738 . S
C2434 O2446 1.254 . S
C2434 O2447 1.257 . S
O2435 Dy2432 2.307 1_556 S
O2435 C2445 1.266 . S
O2436 Dy2433 2.298 1_556 S
O2436 C2445 1.236 . S
O2437 Dy2432 2.395 . S
O2437 C2454 1.255 . S
O2438 Dy2432 2.379 . S
O2438 C2454 1.249 . S
O2439 Dy2433 2.275 . S
O2439 C2455 1.254 . S
O2440 Dy2432 2.339 . S
O2440 C2455 1.257 . S
O2441 Dy2433 2.307 . S
O2441 C2456 1.266 . S
O2442 Dy2432 2.298 . S
O2442 C2456 1.236 . S
O2443 Dy2433 2.395 . S
O2443 C2463 1.255 . S
O2444 Dy2433 2.379 . S
O2444 C2463 1.249 . S
C2445 O2435 1.266 . S
C2445 O2436 1.236 . S
O2446 Dy2432 2.275 . S
O2446 C2434 1.254 . S
O2447 Dy2433 2.339 . S
O2447 C2434 1.257 . S
C2448 C2451 1.344 . S
C2448 C2452 1.328 . S
C2448 C2454 1.516 . S
C2449 C2450 1.304 . S
C2449 C2453 1.323 . S
C2450 C2449 1.304 . S
C2450 C2451 1.371 . S
C2450 H2464 0.930 . S
C2451 C2448 1.344 . S
C2451 C2450 1.371 . S
C2451 H2465 0.931 . S
C2452 C2448 1.328 . S
C2452 C2453 1.433 . S
C2452 H2466 0.931 . S
C2453 C2449 1.323 . S
C2453 C2452 1.433 . S
C2453 H2467 0.933 . S
C2454 Dy2432 2.738 . S
C2454 O2437 1.255 . S
C2454 O2438 1.249 . S
C2454 C2448 1.516 . S
C2455 O2439 1.254 . S
C2455 O2440 1.257 . S
C2456 O2441 1.266 . S
C2456 O2442 1.236 . S
C2457 C2460 1.344 . S
C2457 C2461 1.328 . S
C2457 C2463 1.516 1_556 S
C2458 C2459 1.304 . S
C2458 C2462 1.323 . S
C2459 C2458 1.304 . S
C2459 C2460 1.371 . S
C2459 H2468 0.930 . S
C2460 C2457 1.344 . S
C2460 C2459 1.371 . S
C2460 H2469 0.931 . S
C2461 C2457 1.328 . S
C2461 C2462 1.433 . S
C2461 H2470 0.936 1_556 S
C2462 C2458 1.323 . S
C2462 C2461 1.433 . S
C2462 H2471 0.933 . S
C2463 Dy2433 2.738 . S
C2463 O2443 1.255 . S
C2463 O2444 1.249 . S
C2463 C2457 1.516 1_554 S
H2464 C2450 0.930 . S
H2465 C2451 0.931 . S
H2466 C2452 0.931 . S
H2467 C2453 0.933 . S
H2468 C2459 0.930 . S
H2469 C2460 0.931 . S
H2470 C2461 0.936 1_554 S
H2471 C2462 0.933 . S
Dy2472 O2475 2.307 . S
Dy2472 O2477 2.395 . S
Dy2472 O2478 2.379 . S
Dy2472 O2480 2.339 . S
Dy2472 O2482 2.298 . S
Dy2472 O2486 2.275 . S
Dy2472 C2494 2.738 . S
Dy2473 O2476 2.298 . S
Dy2473 O2479 2.275 . S
Dy2473 O2481 2.307 . S
Dy2473 O2483 2.395 . S
Dy2473 O2484 2.379 . S
Dy2473 O2487 2.339 . S
Dy2473 C2503 2.738 . S
C2474 O2486 1.254 . S
C2474 O2487 1.257 . S
O2475 Dy2472 2.307 . S
O2475 C2485 1.266 . S
O2476 Dy2473 2.298 . S
O2476 C2485 1.236 . S
O2477 Dy2472 2.395 . S
O2477 C2494 1.255 . S
O2478 Dy2472 2.379 . S
O2478 C2494 1.249 . S
O2479 Dy2473 2.275 . S
O2479 C2495 1.254 . S
O2480 Dy2472 2.339 . S
O2480 C2495 1.257 . S
O2481 Dy2473 2.307 . S
O2481 C2496 1.266 . S
O2482 Dy2472 2.298 . S
O2482 C2496 1.236 . S
O2483 Dy2473 2.395 . S
O2483 C2503 1.255 . S
O2484 Dy2473 2.379 . S
O2484 C2503 1.249 . S
C2485 O2475 1.266 . S
C2485 O2476 1.236 . S
O2486 Dy2472 2.275 . S
O2486 C2474 1.254 . S
O2487 Dy2473 2.339 . S
O2487 C2474 1.257 . S
C2488 C2491 1.344 . S
C2488 C2492 1.328 . S
C2488 C2494 1.516 . S
C2489 C2490 1.304 . S
C2489 C2493 1.323 . S
C2490 C2489 1.304 . S
C2490 C2491 1.371 . S
C2490 H2504 0.930 . S
C2491 C2488 1.344 . S
C2491 C2490 1.371 . S
C2491 H2505 0.931 . S
C2492 C2488 1.328 . S
C2492 C2493 1.433 . S
C2492 H2506 0.931 . S
C2493 C2489 1.323 . S
C2493 C2492 1.433 . S
C2493 H2507 0.933 . S
C2494 Dy2472 2.738 . S
C2494 O2477 1.255 . S
C2494 O2478 1.249 . S
C2494 C2488 1.516 . S
C2495 O2479 1.254 . S
C2495 O2480 1.257 . S
C2496 O2481 1.266 . S
C2496 O2482 1.236 . S
C2497 C2500 1.344 . S
C2497 C2501 1.328 . S
C2497 C2503 1.516 . S
C2498 C2499 1.304 . S
C2498 C2502 1.323 . S
C2499 C2498 1.304 . S
C2499 C2500 1.371 . S
C2499 H2508 0.930 . S
C2500 C2497 1.344 . S
C2500 C2499 1.371 . S
C2500 H2509 0.931 . S
C2501 C2497 1.328 . S
C2501 C2502 1.433 . S
C2501 H2510 0.931 . S
C2502 C2498 1.323 . S
C2502 C2501 1.433 . S
C2502 H2511 0.933 . S
C2503 Dy2473 2.738 . S
C2503 O2483 1.255 . S
C2503 O2484 1.249 . S
C2503 C2497 1.516 . S
H2504 C2490 0.930 . S
H2505 C2491 0.931 . S
H2506 C2492 0.931 . S
H2507 C2493 0.933 . S
H2508 C2499 0.930 . S
H2509 C2500 0.931 . S
H2510 C2501 0.931 . S
H2511 C2502 0.933 . S
Dy2512 O2515 2.307 1_455 S
Dy2512 O2517 2.395 . S
Dy2512 O2518 2.379 . S
Dy2512 O2520 2.339 . S
Dy2512 O2522 2.298 . S
Dy2512 O2526 2.275 . S
Dy2512 C2534 2.738 . S
Dy2513 O2516 2.298 1_455 S
Dy2513 O2519 2.275 . S
Dy2513 O2521 2.307 . S
Dy2513 O2523 2.395 . S
Dy2513 O2524 2.379 . S
Dy2513 O2527 2.339 . S
Dy2513 C2543 2.738 . S
C2514 O2526 1.254 . S
C2514 O2527 1.257 . S
O2515 Dy2512 2.307 1_655 S
O2515 C2525 1.266 . S
O2516 Dy2513 2.298 1_655 S
O2516 C2525 1.236 . S
O2517 Dy2512 2.395 . S
O2517 C2534 1.255 . S
O2518 Dy2512 2.379 . S
O2518 C2534 1.249 . S
O2519 Dy2513 2.275 . S
O2519 C2535 1.254 . S
O2520 Dy2512 2.339 . S
O2520 C2535 1.257 . S
O2521 Dy2513 2.307 . S
O2521 C2536 1.266 . S
O2522 Dy2512 2.298 . S
O2522 C2536 1.236 . S
O2523 Dy2513 2.395 . S
O2523 C2543 1.255 . S
O2524 Dy2513 2.379 . S
O2524 C2543 1.249 . S
C2525 O2515 1.266 . S
C2525 O2516 1.236 . S
O2526 Dy2512 2.275 . S
O2526 C2514 1.254 . S
O2527 Dy2513 2.339 . S
O2527 C2514 1.257 . S
C2528 C2531 1.344 . S
C2528 C2532 1.328 . S
C2528 C2534 1.516 . S
C2529 C2530 1.304 . S
C2529 C2533 1.323 . S
C2530 C2529 1.304 . S
C2530 C2531 1.371 . S
C2530 H2544 0.930 . S
C2531 C2528 1.344 . S
C2531 C2530 1.371 . S
C2531 H2545 0.931 . S
C2532 C2528 1.328 . S
C2532 C2533 1.433 . S
C2532 H2546 0.931 . S
C2533 C2529 1.323 . S
C2533 C2532 1.433 . S
C2533 H2547 0.933 . S
C2534 Dy2512 2.738 . S
C2534 O2517 1.255 . S
C2534 O2518 1.249 . S
C2534 C2528 1.516 . S
C2535 O2519 1.254 . S
C2535 O2520 1.257 . S
C2536 O2521 1.266 . S
C2536 O2522 1.236 . S
C2537 C2540 1.344 . S
C2537 C2541 1.328 . S
C2537 C2543 1.516 1_655 S
C2538 C2539 1.304 . S
C2538 C2542 1.323 . S
C2539 C2538 1.304 . S
C2539 C2540 1.371 . S
C2539 H2548 0.930 . S
C2540 C2537 1.344 . S
C2540 C2539 1.371 . S
C2540 H2549 0.931 . S
C2541 C2537 1.328 . S
C2541 C2542 1.433 . S
C2541 H2550 0.902 1_655 S
C2542 C2538 1.323 . S
C2542 C2541 1.433 . S
C2542 H2551 0.933 . S
C2543 Dy2513 2.738 . S
C2543 O2523 1.255 . S
C2543 O2524 1.249 . S
C2543 C2537 1.516 1_455 S
H2544 C2530 0.930 . S
H2545 C2531 0.931 . S
H2546 C2532 0.931 . S
H2547 C2533 0.933 . S
H2548 C2539 0.930 . S
H2549 C2540 0.931 . S
H2550 C2541 0.902 1_455 S
H2551 C2542 0.933 . S
Dy2552 O2555 2.307 . S
Dy2552 O2557 2.395 . S
Dy2552 O2558 2.379 . S
Dy2552 O2560 2.339 . S
Dy2552 O2562 2.298 . S
Dy2552 O2566 2.275 . S
Dy2552 C2574 2.738 . S
Dy2553 O2556 2.298 . S
Dy2553 O2559 2.275 . S
Dy2553 O2561 2.307 . S
Dy2553 O2563 2.395 . S
Dy2553 O2564 2.379 . S
Dy2553 O2567 2.339 . S
Dy2553 C2583 2.738 . S
C2554 O2566 1.254 . S
C2554 O2567 1.257 . S
O2555 Dy2552 2.307 . S
O2555 C2565 1.266 . S
O2556 Dy2553 2.298 . S
O2556 C2565 1.236 . S
O2557 Dy2552 2.395 . S
O2557 C2574 1.255 . S
O2558 Dy2552 2.379 . S
O2558 C2574 1.249 . S
O2559 Dy2553 2.275 . S
O2559 C2575 1.254 . S
O2560 Dy2552 2.339 . S
O2560 C2575 1.257 . S
O2561 Dy2553 2.307 . S
O2561 C2576 1.266 . S
O2562 Dy2552 2.298 . S
O2562 C2576 1.236 . S
O2563 Dy2553 2.395 . S
O2563 C2583 1.255 . S
O2564 Dy2553 2.379 . S
O2564 C2583 1.249 . S
C2565 O2555 1.266 . S
C2565 O2556 1.236 . S
O2566 Dy2552 2.275 . S
O2566 C2554 1.254 . S
O2567 Dy2553 2.339 . S
O2567 C2554 1.257 . S
C2568 C2571 1.344 . S
C2568 C2572 1.328 . S
C2568 C2574 1.516 . S
C2569 C2570 1.304 . S
C2569 C2573 1.323 . S
C2570 C2569 1.304 . S
C2570 C2571 1.371 . S
C2570 H2584 0.930 . S
C2571 C2568 1.344 . S
C2571 C2570 1.371 . S
C2571 H2585 0.931 . S
C2572 C2568 1.328 . S
C2572 C2573 1.433 . S
C2572 H2586 0.931 . S
C2573 C2569 1.323 . S
C2573 C2572 1.433 . S
C2573 H2587 0.933 . S
C2574 Dy2552 2.738 . S
C2574 O2557 1.255 . S
C2574 O2558 1.249 . S
C2574 C2568 1.516 . S
C2575 O2559 1.254 . S
C2575 O2560 1.257 . S
C2576 O2561 1.266 . S
C2576 O2562 1.236 . S
C2577 C2580 1.344 . S
C2577 C2581 1.328 . S
C2577 C2583 1.516 . S
C2578 C2579 1.304 . S
C2578 C2582 1.323 . S
C2579 C2578 1.304 . S
C2579 C2580 1.371 . S
C2579 H2588 0.930 . S
C2580 C2577 1.344 . S
C2580 C2579 1.371 . S
C2580 H2589 0.931 . S
C2581 C2577 1.328 . S
C2581 C2582 1.433 . S
C2581 H2590 0.931 . S
C2582 C2578 1.323 . S
C2582 C2581 1.433 . S
C2582 H2591 0.933 . S
C2583 Dy2553 2.738 . S
C2583 O2563 1.255 . S
C2583 O2564 1.249 . S
C2583 C2577 1.516 . S
H2584 C2570 0.930 . S
H2585 C2571 0.931 . S
H2586 C2572 0.931 . S
H2587 C2573 0.933 . S
H2588 C2579 0.930 . S
H2589 C2580 0.931 . S
H2590 C2581 0.931 . S
H2591 C2582 0.933 . S
Dy2592 O2595 2.307 . S
Dy2592 O2597 2.395 . S
Dy2592 O2598 2.379 . S
Dy2592 O2600 2.339 . S
Dy2592 O2602 2.298 . S
Dy2592 O2606 2.275 . S
Dy2592 C2614 2.738 . S
Dy2593 O2596 2.298 . S
Dy2593 O2599 2.275 . S
Dy2593 O2601 2.307 . S
Dy2593 O2603 2.395 . S
Dy2593 O2604 2.379 . S
Dy2593 O2607 2.339 . S
Dy2593 C2623 2.738 . S
C2594 O2606 1.254 . S
C2594 O2607 1.257 . S
O2595 Dy2592 2.307 . S
O2595 C2605 1.266 . S
O2596 Dy2593 2.298 . S
O2596 C2605 1.236 . S
O2597 Dy2592 2.395 . S
O2597 C2614 1.255 . S
O2598 Dy2592 2.379 . S
O2598 C2614 1.249 . S
O2599 Dy2593 2.275 . S
O2599 C2615 1.254 . S
O2600 Dy2592 2.339 . S
O2600 C2615 1.257 . S
O2601 Dy2593 2.307 . S
O2601 C2616 1.266 . S
O2602 Dy2592 2.298 . S
O2602 C2616 1.236 . S
O2603 Dy2593 2.395 . S
O2603 C2623 1.255 . S
O2604 Dy2593 2.379 . S
O2604 C2623 1.249 . S
C2605 O2595 1.266 . S
C2605 O2596 1.236 . S
O2606 Dy2592 2.275 . S
O2606 C2594 1.254 . S
O2607 Dy2593 2.339 . S
O2607 C2594 1.257 . S
C2608 C2611 1.344 . S
C2608 C2612 1.328 . S
C2608 C2614 1.516 . S
C2609 C2610 1.304 . S
C2609 C2613 1.323 . S
C2610 C2609 1.304 . S
C2610 C2611 1.371 . S
C2610 H2624 0.930 . S
C2611 C2608 1.344 . S
C2611 C2610 1.371 . S
C2611 H2625 0.931 . S
C2612 C2608 1.328 . S
C2612 C2613 1.433 . S
C2612 H2626 0.931 . S
C2613 C2609 1.323 . S
C2613 C2612 1.433 . S
C2613 H2627 0.933 . S
C2614 Dy2592 2.738 . S
C2614 O2597 1.255 . S
C2614 O2598 1.249 . S
C2614 C2608 1.516 . S
C2615 O2599 1.254 . S
C2615 O2600 1.257 . S
C2616 O2601 1.266 . S
C2616 O2602 1.236 . S
C2617 C2620 1.344 . S
C2617 C2621 1.328 . S
C2617 C2623 1.516 . S
C2618 C2619 1.304 . S
C2618 C2622 1.323 . S
C2619 C2618 1.304 . S
C2619 C2620 1.371 . S
C2619 H2628 0.930 . S
C2620 C2617 1.344 . S
C2620 C2619 1.371 . S
C2620 H2629 0.931 . S
C2621 C2617 1.328 . S
C2621 C2622 1.433 . S
C2621 H2630 0.931 . S
C2622 C2618 1.323 . S
C2622 C2621 1.433 . S
C2622 H2631 0.933 . S
C2623 Dy2593 2.738 . S
C2623 O2603 1.255 . S
C2623 O2604 1.249 . S
C2623 C2617 1.516 . S
H2624 C2610 0.930 . S
H2625 C2611 0.931 . S
H2626 C2612 0.931 . S
H2627 C2613 0.933 . S
H2628 C2619 0.930 . S
H2629 C2620 0.931 . S
H2630 C2621 0.931 . S
H2631 C2622 0.933 . S
Dy2632 O2635 2.307 . S
Dy2632 O2637 2.395 . S
Dy2632 O2638 2.379 . S
Dy2632 O2640 2.339 . S
Dy2632 O2642 2.298 . S
Dy2632 O2646 2.275 . S
Dy2632 C2654 2.738 . S
Dy2633 O2636 2.298 . S
Dy2633 O2639 2.275 . S
Dy2633 O2641 2.307 . S
Dy2633 O2643 2.395 . S
Dy2633 O2644 2.379 . S
Dy2633 O2647 2.339 . S
Dy2633 C2663 2.738 . S
C2634 O2646 1.254 . S
C2634 O2647 1.257 . S
O2635 Dy2632 2.307 . S
O2635 C2645 1.266 . S
O2636 Dy2633 2.298 . S
O2636 C2645 1.236 . S
O2637 Dy2632 2.395 . S
O2637 C2654 1.255 . S
O2638 Dy2632 2.379 . S
O2638 C2654 1.249 . S
O2639 Dy2633 2.275 . S
O2639 C2655 1.254 . S
O2640 Dy2632 2.339 . S
O2640 C2655 1.257 . S
O2641 Dy2633 2.307 . S
O2641 C2656 1.266 . S
O2642 Dy2632 2.298 . S
O2642 C2656 1.236 . S
O2643 Dy2633 2.395 . S
O2643 C2663 1.255 . S
O2644 Dy2633 2.379 . S
O2644 C2663 1.249 . S
C2645 O2635 1.266 . S
C2645 O2636 1.236 . S
O2646 Dy2632 2.275 . S
O2646 C2634 1.254 . S
O2647 Dy2633 2.339 . S
O2647 C2634 1.257 . S
C2648 C2651 1.344 . S
C2648 C2652 1.328 . S
C2648 C2654 1.516 . S
C2649 C2650 1.304 . S
C2649 C2653 1.323 . S
C2650 C2649 1.304 . S
C2650 C2651 1.371 . S
C2650 H2664 0.930 . S
C2651 C2648 1.344 . S
C2651 C2650 1.371 . S
C2651 H2665 0.931 . S
C2652 C2648 1.328 . S
C2652 C2653 1.433 . S
C2652 H2666 0.931 . S
C2653 C2649 1.323 . S
C2653 C2652 1.433 . S
C2653 H2667 0.933 . S
C2654 Dy2632 2.738 . S
C2654 O2637 1.255 . S
C2654 O2638 1.249 . S
C2654 C2648 1.516 . S
C2655 O2639 1.254 . S
C2655 O2640 1.257 . S
C2656 O2641 1.266 . S
C2656 O2642 1.236 . S
C2657 C2660 1.344 . S
C2657 C2661 1.328 . S
C2657 C2663 1.516 . S
C2658 C2659 1.304 . S
C2658 C2662 1.323 . S
C2659 C2658 1.304 . S
C2659 C2660 1.371 . S
C2659 H2668 0.930 . S
C2660 C2657 1.344 . S
C2660 C2659 1.371 . S
C2660 H2669 0.931 . S
C2661 C2657 1.328 . S
C2661 C2662 1.433 . S
C2661 H2670 0.931 . S
C2662 C2658 1.323 . S
C2662 C2661 1.433 . S
C2662 H2671 0.933 . S
C2663 Dy2633 2.738 . S
C2663 O2643 1.255 . S
C2663 O2644 1.249 . S
C2663 C2657 1.516 . S
H2664 C2650 0.930 . S
H2665 C2651 0.931 . S
H2666 C2652 0.931 . S
H2667 C2653 0.933 . S
H2668 C2659 0.930 . S
H2669 C2660 0.931 . S
H2670 C2661 0.931 . S
H2671 C2662 0.933 . S
Dy2672 O2675 2.307 . S
Dy2672 O2677 2.395 . S
Dy2672 O2678 2.379 . S
Dy2672 O2680 2.339 . S
Dy2672 O2682 2.298 . S
Dy2672 O2686 2.275 . S
Dy2672 C2694 2.738 . S
Dy2673 O2676 2.298 . S
Dy2673 O2679 2.275 . S
Dy2673 O2681 2.307 . S
Dy2673 O2683 2.395 . S
Dy2673 O2684 2.379 . S
Dy2673 O2687 2.339 . S
Dy2673 C2703 2.738 . S
C2674 O2686 1.254 . S
C2674 O2687 1.257 . S
O2675 Dy2672 2.307 . S
O2675 C2685 1.266 . S
O2676 Dy2673 2.298 . S
O2676 C2685 1.236 . S
O2677 Dy2672 2.395 . S
O2677 C2694 1.255 . S
O2678 Dy2672 2.379 . S
O2678 C2694 1.249 . S
O2679 Dy2673 2.275 . S
O2679 C2695 1.254 . S
O2680 Dy2672 2.339 . S
O2680 C2695 1.257 . S
O2681 Dy2673 2.307 . S
O2681 C2696 1.266 . S
O2682 Dy2672 2.298 . S
O2682 C2696 1.236 . S
O2683 Dy2673 2.395 . S
O2683 C2703 1.255 . S
O2684 Dy2673 2.379 . S
O2684 C2703 1.249 . S
C2685 O2675 1.266 . S
C2685 O2676 1.236 . S
O2686 Dy2672 2.275 . S
O2686 C2674 1.254 . S
O2687 Dy2673 2.339 . S
O2687 C2674 1.257 . S
C2688 C2691 1.344 . S
C2688 C2692 1.328 . S
C2688 C2694 1.516 . S
C2689 C2690 1.304 . S
C2689 C2693 1.323 . S
C2690 C2689 1.304 . S
C2690 C2691 1.371 . S
C2690 H2704 0.930 . S
C2691 C2688 1.344 . S
C2691 C2690 1.371 . S
C2691 H2705 0.931 . S
C2692 C2688 1.328 . S
C2692 C2693 1.433 . S
C2692 H2706 0.931 . S
C2693 C2689 1.323 . S
C2693 C2692 1.433 . S
C2693 H2707 0.933 . S
C2694 Dy2672 2.738 . S
C2694 O2677 1.255 . S
C2694 O2678 1.249 . S
C2694 C2688 1.516 . S
C2695 O2679 1.254 . S
C2695 O2680 1.257 . S
C2696 O2681 1.266 . S
C2696 O2682 1.236 . S
C2697 C2700 1.344 . S
C2697 C2701 1.328 . S
C2697 C2703 1.516 . S
C2698 C2699 1.304 . S
C2698 C2702 1.323 . S
C2699 C2698 1.304 . S
C2699 C2700 1.371 . S
C2699 H2708 0.930 . S
C2700 C2697 1.344 . S
C2700 C2699 1.371 . S
C2700 H2709 0.931 . S
C2701 C2697 1.328 . S
C2701 C2702 1.433 . S
C2701 H2710 0.931 . S
C2702 C2698 1.323 . S
C2702 C2701 1.433 . S
C2702 H2711 0.933 . S
C2703 Dy2673 2.738 . S
C2703 O2683 1.255 . S
C2703 O2684 1.249 . S
C2703 C2697 1.516 . S
H2704 C2690 0.930 . S
H2705 C2691 0.931 . S
H2706 C2692 0.931 . S
H2707 C2693 0.933 . S
H2708 C2699 0.930 . S
H2709 C2700 0.931 . S
H2710 C2701 0.931 . S
H2711 C2702 0.933 . S
Dy2712 O2715 2.283 1_655 S
Dy2712 O2717 2.435 . S
Dy2712 O2718 2.416 . S
Dy2712 O2720 2.315 1_655 S
Dy2712 O2722 2.283 1_655 S
Dy2712 O2726 2.255 1_655 S
Dy2712 C2734 2.781 . S
Dy2713 O2716 2.298 . S
Dy2713 O2719 2.275 . S
Dy2713 O2721 2.307 . S
Dy2713 O2723 2.395 . S
Dy2713 O2724 2.379 1_554 S
Dy2713 O2727 2.339 1_554 S
Dy2713 C2743 2.738 . S
C2714 O2726 1.254 1_556 S
C2714 O2727 1.257 . S
O2715 Dy2712 2.283 1_455 S
O2715 C2725 1.266 . S
O2716 Dy2713 2.298 . S
O2716 C2725 1.236 . S
O2717 Dy2712 2.435 . S
O2717 C2734 1.255 . S
O2718 Dy2712 2.416 . S
O2718 C2734 1.249 . S
O2719 Dy2713 2.275 . S
O2719 C2735 1.254 . S
O2720 Dy2712 2.315 1_455 S
O2720 C2735 1.257 . S
O2721 Dy2713 2.307 . S
O2721 C2736 1.266 . S
O2722 Dy2712 2.283 1_455 S
O2722 C2736 1.236 . S
O2723 Dy2713 2.395 . S
O2723 C2743 1.255 . S
O2724 Dy2713 2.379 1_556 S
O2724 C2743 1.249 1_556 S
C2725 O2715 1.266 . S
C2725 O2716 1.236 . S
O2726 Dy2712 2.255 1_455 S
O2726 C2714 1.254 1_554 S
O2727 Dy2713 2.339 1_556 S
O2727 C2714 1.257 . S
C2728 C2731 1.344 . S
C2728 C2732 1.328 . S
C2728 C2734 1.516 . S
C2729 C2730 1.304 . S
C2729 C2733 1.323 . S
C2730 C2729 1.304 . S
C2730 C2731 1.371 . S
C2730 H2744 0.930 . S
C2731 C2728 1.344 . S
C2731 C2730 1.371 . S
C2731 H2745 0.931 . S
C2732 C2728 1.328 . S
C2732 C2733 1.433 . S
C2732 H2746 0.931 . S
C2733 C2729 1.323 . S
C2733 C2732 1.433 . S
C2733 H2747 0.933 . S
C2734 Dy2712 2.781 . S
C2734 O2717 1.255 . S
C2734 O2718 1.249 . S
C2734 C2728 1.516 . S
C2735 O2719 1.254 . S
C2735 O2720 1.257 . S
C2736 O2721 1.266 . S
C2736 O2722 1.236 . S
C2737 C2740 1.344 . S
C2737 C2741 1.328 1_554 S
C2737 C2743 1.516 . S
C2738 C2739 1.304 1_556 S
C2738 C2742 1.323 . S
C2739 C2738 1.304 1_554 S
C2739 C2740 1.371 . S
C2739 H2748 0.930 . S
C2740 C2737 1.344 . S
C2740 C2739 1.371 . S
C2740 H2749 0.931 . S
C2741 C2737 1.328 1_556 S
C2741 C2742 1.433 . S
C2741 H2750 0.931 . S
C2742 C2738 1.323 . S
C2742 C2741 1.433 . S
C2742 H2751 0.933 . S
C2743 Dy2713 2.738 . S
C2743 O2723 1.255 . S
C2743 O2724 1.249 1_554 S
C2743 C2737 1.516 . S
H2744 C2730 0.930 . S
H2745 C2731 0.931 . S
H2746 C2732 0.931 . S
H2747 C2733 0.933 . S
H2748 C2739 0.930 . S
H2749 C2740 0.931 . S
H2750 C2741 0.931 . S
H2751 C2742 0.933 . S
C2752 C2753 1.349 1_455 S
C2752 C2754 1.327 . S
C2752 H2777 0.950 . S
C2753 C2752 1.349 1_655 S
C2753 C2769 1.349 1_556 S
C2754 C2752 1.327 . S
C2754 C2773 1.429 . S
C2754 H2778 0.950 . S
C2755 C2772 1.560 1_655 S
C2755 C2774 1.356 1_654 S
C2755 H2779 0.974 . S
H2756 C2760 0.949 . S
C2757 C2758 1.349 . S
C2757 C2759 1.327 . S
C2757 H2780 0.950 . S
C2758 C2757 1.349 . S
C2758 C2770 1.390 . S
C2759 C2757 1.327 . S
C2759 C2775 1.429 . S
C2759 H2781 0.950 . S
C2760 H2756 0.949 . S
C2760 C2768 1.574 . S
C2760 C2776 1.368 1_556 S
H2761 C2769 0.950 . S
H2762 C2767 0.950 . S
H2763 C2768 0.949 . S
H2764 C2770 0.923 1_556 S
H2765 C2771 0.950 . S
H2766 C2772 0.941 1_655 S
C2767 H2762 0.950 . S
C2767 C2769 1.327 . S
C2767 C2773 1.429 1_654 S
C2768 C2760 1.574 . S
C2768 H2763 0.949 . S
C2768 C2774 1.368 . S
C2769 C2753 1.349 1_554 S
C2769 H2761 0.950 . S
C2769 C2767 1.327 . S
C2770 C2758 1.390 . S
C2770 H2764 0.923 1_554 S
C2770 C2771 1.315 1_554 S
C2771 H2765 0.950 . S
C2771 C2770 1.315 1_556 S
C2771 C2775 1.429 1_556 S
C2772 C2755 1.560 1_455 S
C2772 H2766 0.941 1_455 S
C2772 C2776 1.368 . S
C2773 C2754 1.429 . S
C2773 C2767 1.429 1_456 S
C2773 C2774 1.523 . S
C2774 C2755 1.356 1_456 S
C2774 C2768 1.368 . S
C2774 C2773 1.523 . S
C2775 C2759 1.429 . S
C2775 C2771 1.429 1_554 S
C2775 C2776 1.523 . S
C2776 C2760 1.368 1_554 S
C2776 C2772 1.368 . S
C2776 C2775 1.523 . S
H2777 C2752 0.950 . S
H2778 C2754 0.950 . S
H2779 C2755 0.974 . S
H2780 C2757 0.950 . S
H2781 C2759 0.950 . S
C2782 C2783 1.349 . S
C2782 C2784 1.327 . S
C2782 H2807 0.950 . S
C2783 C2782 1.349 . S
C2783 C2799 1.349 . S
C2784 C2782 1.327 . S
C2784 C2803 1.429 . S
C2784 H2808 0.950 . S
C2785 C2802 1.574 . S
C2785 C2804 1.368 . S
C2785 H2809 0.949 . S
H2786 C2790 0.949 . S
C2787 C2788 1.349 . S
C2787 C2789 1.327 . S
C2787 H2810 0.950 . S
C2788 C2787 1.349 . S
C2788 C2800 1.349 . S
C2789 C2787 1.327 . S
C2789 C2805 1.429 . S
C2789 H2811 0.950 . S
C2790 H2786 0.949 . S
C2790 C2798 1.574 . S
C2790 C2806 1.368 . S
H2791 C2799 0.950 . S
H2792 C2797 0.950 . S
H2793 C2798 0.949 . S
H2794 C2800 0.950 . S
H2795 C2801 0.950 . S
H2796 C2802 0.949 . S
C2797 H2792 0.950 . S
C2797 C2799 1.327 . S
C2797 C2803 1.429 . S
C2798 C2790 1.574 . S
C2798 H2793 0.949 . S
C2798 C2804 1.368 . S
C2799 C2783 1.349 . S
C2799 H2791 0.950 . S
C2799 C2797 1.327 . S
C2800 C2788 1.349 . S
C2800 H2794 0.950 . S
C2800 C2801 1.327 . S
C2801 H2795 0.950 . S
C2801 C2800 1.327 . S
C2801 C2805 1.429 . S
C2802 C2785 1.574 . S
C2802 H2796 0.949 . S
C2802 C2806 1.368 . S
C2803 C2784 1.429 . S
C2803 C2797 1.429 . S
C2803 C2804 1.523 . S
C2804 C2785 1.368 . S
C2804 C2798 1.368 . S
C2804 C2803 1.523 . S
C2805 C2789 1.429 . S
C2805 C2801 1.429 . S
C2805 C2806 1.523 . S
C2806 C2790 1.368 . S
C2806 C2802 1.368 . S
C2806 C2805 1.523 . S
H2807 C2782 0.950 . S
H2808 C2784 0.950 . S
H2809 C2785 0.949 . S
H2810 C2787 0.950 . S
H2811 C2789 0.950 . S
C2812 C2813 1.349 . S
C2812 C2814 1.327 . S
C2812 H2837 0.950 . S
C2813 C2812 1.349 . S
C2813 C2829 1.349 . S
C2814 C2812 1.327 . S
C2814 C2833 1.429 . S
C2814 H2838 0.950 . S
C2815 C2832 1.574 . S
C2815 C2834 1.368 . S
C2815 H2839 0.949 . S
H2816 C2820 0.949 . S
C2817 C2818 1.349 . S
C2817 C2819 1.327 . S
C2817 H2840 0.950 . S
C2818 C2817 1.349 . S
C2818 C2830 1.349 . S
C2819 C2817 1.327 . S
C2819 C2835 1.429 . S
C2819 H2841 0.950 . S
C2820 H2816 0.949 . S
C2820 C2828 1.574 . S
C2820 C2836 1.368 . S
H2821 C2829 0.950 . S
H2822 C2827 0.950 . S
H2823 C2828 0.949 . S
H2824 C2830 0.950 . S
H2825 C2831 0.950 . S
H2826 C2832 0.949 . S
C2827 H2822 0.950 . S
C2827 C2829 1.327 . S
C2827 C2833 1.429 . S
C2828 C2820 1.574 . S
C2828 H2823 0.949 . S
C2828 C2834 1.368 . S
C2829 C2813 1.349 . S
C2829 H2821 0.950 . S
C2829 C2827 1.327 . S
C2830 C2818 1.349 . S
C2830 H2824 0.950 . S
C2830 C2831 1.327 . S
C2831 H2825 0.950 . S
C2831 C2830 1.327 . S
C2831 C2835 1.429 . S
C2832 C2815 1.574 . S
C2832 H2826 0.949 . S
C2832 C2836 1.368 . S
C2833 C2814 1.429 . S
C2833 C2827 1.429 . S
C2833 C2834 1.523 . S
C2834 C2815 1.368 . S
C2834 C2828 1.368 . S
C2834 C2833 1.523 . S
C2835 C2819 1.429 . S
C2835 C2831 1.429 . S
C2835 C2836 1.523 . S
C2836 C2820 1.368 . S
C2836 C2832 1.368 . S
C2836 C2835 1.523 . S
H2837 C2812 0.950 . S
H2838 C2814 0.950 . S
H2839 C2815 0.949 . S
H2840 C2817 0.950 . S
H2841 C2819 0.950 . S
C2842 C2843 1.349 . S
C2842 C2844 1.327 . S
C2842 H2867 0.950 . S
C2843 C2842 1.349 . S
C2843 C2859 1.349 . S
C2844 C2842 1.327 . S
C2844 C2863 1.429 . S
C2844 H2868 0.950 . S
C2845 C2862 1.574 . S
C2845 C2864 1.368 . S
C2845 H2869 0.949 . S
H2846 C2850 0.949 . S
C2847 C2848 1.349 . S
C2847 C2849 1.327 . S
C2847 H2870 0.950 . S
C2848 C2847 1.349 . S
C2848 C2860 1.349 . S
C2849 C2847 1.327 . S
C2849 C2865 1.429 . S
C2849 H2871 0.950 . S
C2850 H2846 0.949 . S
C2850 C2858 1.574 . S
C2850 C2866 1.368 . S
H2851 C2859 0.950 . S
H2852 C2857 0.950 . S
H2853 C2858 0.949 . S
H2854 C2860 0.950 . S
H2855 C2861 0.950 . S
H2856 C2862 0.949 . S
C2857 H2852 0.950 . S
C2857 C2859 1.327 . S
C2857 C2863 1.429 . S
C2858 C2850 1.574 . S
C2858 H2853 0.949 . S
C2858 C2864 1.368 . S
C2859 C2843 1.349 . S
C2859 H2851 0.950 . S
C2859 C2857 1.327 . S
C2860 C2848 1.349 . S
C2860 H2854 0.950 . S
C2860 C2861 1.327 . S
C2861 H2855 0.950 . S
C2861 C2860 1.327 . S
C2861 C2865 1.429 . S
C2862 C2845 1.574 . S
C2862 H2856 0.949 . S
C2862 C2866 1.368 . S
C2863 C2844 1.429 . S
C2863 C2857 1.429 . S
C2863 C2864 1.523 . S
C2864 C2845 1.368 . S
C2864 C2858 1.368 . S
C2864 C2863 1.523 . S
C2865 C2849 1.429 . S
C2865 C2861 1.429 . S
C2865 C2866 1.523 . S
C2866 C2850 1.368 . S
C2866 C2862 1.368 . S
C2866 C2865 1.523 . S
H2867 C2842 0.950 . S
H2868 C2844 0.950 . S
H2869 C2845 0.949 . S
H2870 C2847 0.950 . S
H2871 C2849 0.950 . S
C2872 C2873 1.349 . S
C2872 C2874 1.327 . S
C2872 H2897 0.950 . S
C2873 C2872 1.349 . S
C2873 C2889 1.349 . S
C2874 C2872 1.327 . S
C2874 C2893 1.429 . S
C2874 H2898 0.950 . S
C2875 C2892 1.574 . S
C2875 C2894 1.368 . S
C2875 H2899 0.949 . S
H2876 C2880 0.949 . S
C2877 C2878 1.349 . S
C2877 C2879 1.327 . S
C2877 H2900 0.950 . S
C2878 C2877 1.349 . S
C2878 C2890 1.349 . S
C2879 C2877 1.327 . S
C2879 C2895 1.429 . S
C2879 H2901 0.950 . S
C2880 H2876 0.949 . S
C2880 C2888 1.574 . S
C2880 C2896 1.368 . S
H2881 C2889 0.982 . S
H2882 C2887 0.950 . S
H2883 C2888 0.949 . S
H2884 C2890 0.950 . S
H2885 C2891 0.950 . S
H2886 C2892 0.949 . S
C2887 H2882 0.950 . S
C2887 C2889 1.327 . S
C2887 C2893 1.429 . S
C2888 C2880 1.574 . S
C2888 H2883 0.949 . S
C2888 C2894 1.368 . S
C2889 C2873 1.349 . S
C2889 H2881 0.982 . S
C2889 C2887 1.327 . S
C2890 C2878 1.349 . S
C2890 H2884 0.950 . S
C2890 C2891 1.327 . S
C2891 H2885 0.950 . S
C2891 C2890 1.327 . S
C2891 C2895 1.429 . S
C2892 C2875 1.574 . S
C2892 H2886 0.949 . S
C2892 C2896 1.368 . S
C2893 C2874 1.429 . S
C2893 C2887 1.429 . S
C2893 C2894 1.523 . S
C2894 C2875 1.368 . S
C2894 C2888 1.368 . S
C2894 C2893 1.523 . S
C2895 C2879 1.429 . S
C2895 C2891 1.429 . S
C2895 C2896 1.523 . S
C2896 C2880 1.368 . S
C2896 C2892 1.368 . S
C2896 C2895 1.523 . S
H2897 C2872 0.950 . S
H2898 C2874 0.950 . S
H2899 C2875 0.949 . S
H2900 C2877 0.950 . S
H2901 C2879 0.950 . S
C2902 C2903 1.349 . S
C2902 C2904 1.327 . S
C2902 H2927 0.950 . S
C2903 C2902 1.349 . S
C2903 C2919 1.349 . S
C2904 C2902 1.327 . S
C2904 C2923 1.429 . S
C2904 H2928 0.950 . S
C2905 C2922 1.574 . S
C2905 C2924 1.368 . S
C2905 H2929 0.949 . S
H2906 C2910 0.949 . S
C2907 C2908 1.349 . S
C2907 C2909 1.327 . S
C2907 H2930 0.950 . S
C2908 C2907 1.349 . S
C2908 C2920 1.349 . S
C2909 C2907 1.327 . S
C2909 C2925 1.429 . S
C2909 H2931 0.950 . S
C2910 H2906 0.949 . S
C2910 C2918 1.574 . S
C2910 C2926 1.368 . S
H2911 C2919 0.950 . S
H2912 C2917 0.950 . S
H2913 C2918 0.949 . S
H2914 C2920 0.950 . S
H2915 C2921 0.950 . S
H2916 C2922 0.949 . S
C2917 H2912 0.950 . S
C2917 C2919 1.327 . S
C2917 C2923 1.429 . S
C2918 C2910 1.574 . S
C2918 H2913 0.949 . S
C2918 C2924 1.368 . S
C2919 C2903 1.349 . S
C2919 H2911 0.950 . S
C2919 C2917 1.327 . S
C2920 C2908 1.349 . S
C2920 H2914 0.950 . S
C2920 C2921 1.327 . S
C2921 H2915 0.950 . S
C2921 C2920 1.327 . S
C2921 C2925 1.429 . S
C2922 C2905 1.574 . S
C2922 H2916 0.949 . S
C2922 C2926 1.368 . S
C2923 C2904 1.429 . S
C2923 C2917 1.429 . S
C2923 C2924 1.523 . S
C2924 C2905 1.368 . S
C2924 C2918 1.368 . S
C2924 C2923 1.523 . S
C2925 C2909 1.429 . S
C2925 C2921 1.429 . S
C2925 C2926 1.523 . S
C2926 C2910 1.368 . S
C2926 C2922 1.368 . S
C2926 C2925 1.523 . S
H2927 C2902 0.950 . S
H2928 C2904 0.950 . S
H2929 C2905 0.949 . S
H2930 C2907 0.950 . S
H2931 C2909 0.950 . S
C2932 C2933 1.349 . S
C2932 C2934 1.327 . S
C2932 H2957 0.950 . S
C2933 C2932 1.349 . S
C2933 C2949 1.349 . S
C2934 C2932 1.327 . S
C2934 C2953 1.429 . S
C2934 H2958 0.950 . S
C2935 C2952 1.574 . S
C2935 C2954 1.368 . S
C2935 H2959 0.949 . S
H2936 C2940 0.949 . S
C2937 C2938 1.349 . S
C2937 C2939 1.327 . S
C2937 H2960 0.950 . S
C2938 C2937 1.349 . S
C2938 C2950 1.349 . S
C2939 C2937 1.327 . S
C2939 C2955 1.429 . S
C2939 H2961 0.950 . S
C2940 H2936 0.949 . S
C2940 C2948 1.574 . S
C2940 C2956 1.368 . S
H2941 C2949 0.950 . S
H2942 C2947 0.950 . S
H2943 C2948 0.949 . S
H2944 C2950 0.950 . S
H2945 C2951 0.950 . S
H2946 C2952 0.949 . S
C2947 H2942 0.950 . S
C2947 C2949 1.327 . S
C2947 C2953 1.429 . S
C2948 C2940 1.574 . S
C2948 H2943 0.949 . S
C2948 C2954 1.368 . S
C2949 C2933 1.349 . S
C2949 H2941 0.950 . S
C2949 C2947 1.327 . S
C2950 C2938 1.349 . S
C2950 H2944 0.950 . S
C2950 C2951 1.327 . S
C2951 H2945 0.950 . S
C2951 C2950 1.327 . S
C2951 C2955 1.429 . S
C2952 C2935 1.574 . S
C2952 H2946 0.949 . S
C2952 C2956 1.368 . S
C2953 C2934 1.429 . S
C2953 C2947 1.429 . S
C2953 C2954 1.523 . S
C2954 C2935 1.368 . S
C2954 C2948 1.368 . S
C2954 C2953 1.523 . S
C2955 C2939 1.429 . S
C2955 C2951 1.429 . S
C2955 C2956 1.523 . S
C2956 C2940 1.368 . S
C2956 C2952 1.368 . S
C2956 C2955 1.523 . S
H2957 C2932 0.950 . S
H2958 C2934 0.950 . S
H2959 C2935 0.949 . S
H2960 C2937 0.950 . S
H2961 C2939 0.950 . S
C2962 C2963 1.349 . S
C2962 C2964 1.327 . S
C2962 H2987 0.950 . S
C2963 C2962 1.349 . S
C2963 C2979 1.349 . S
C2964 C2962 1.327 . S
C2964 C2983 1.429 . S
C2964 H2988 0.950 . S
C2965 C2982 1.574 . S
C2965 C2984 1.368 . S
C2965 H2989 0.949 . S
H2966 C2970 0.949 . S
C2967 C2968 1.349 . S
C2967 C2969 1.327 . S
C2967 H2990 0.950 . S
C2968 C2967 1.349 . S
C2968 C2980 1.349 . S
C2969 C2967 1.327 . S
C2969 C2985 1.429 . S
C2969 H2991 0.950 . S
C2970 H2966 0.949 . S
C2970 C2978 1.574 . S
C2970 C2986 1.368 . S
H2971 C2979 0.950 . S
H2972 C2977 0.950 . S
H2973 C2978 0.949 . S
H2974 C2980 0.950 . S
H2975 C2981 0.950 . S
H2976 C2982 0.949 . S
C2977 H2972 0.950 . S
C2977 C2979 1.327 . S
C2977 C2983 1.429 . S
C2978 C2970 1.574 . S
C2978 H2973 0.949 . S
C2978 C2984 1.368 . S
C2979 C2963 1.349 . S
C2979 H2971 0.950 . S
C2979 C2977 1.327 . S
C2980 C2968 1.349 . S
C2980 H2974 0.950 . S
C2980 C2981 1.327 . S
C2981 H2975 0.950 . S
C2981 C2980 1.327 . S
C2981 C2985 1.429 . S
C2982 C2965 1.574 . S
C2982 H2976 0.949 . S
C2982 C2986 1.368 . S
C2983 C2964 1.429 . S
C2983 C2977 1.429 . S
C2983 C2984 1.523 . S
C2984 C2965 1.368 . S
C2984 C2978 1.368 . S
C2984 C2983 1.523 . S
C2985 C2969 1.429 . S
C2985 C2981 1.429 . S
C2985 C2986 1.523 . S
C2986 C2970 1.368 . S
C2986 C2982 1.368 . S
C2986 C2985 1.523 . S
H2987 C2962 0.950 . S
H2988 C2964 0.950 . S
H2989 C2965 0.949 . S
H2990 C2967 0.950 . S
H2991 C2969 0.950 . S
C2992 C2993 1.349 . S
C2992 C2994 1.327 . S
C2992 H3017 0.950 . S
C2993 C2992 1.349 . S
C2993 C3009 1.349 . S
C2994 C2992 1.327 . S
C2994 C3013 1.429 . S
C2994 H3018 0.930 1_655 S
C2995 C3012 1.574 . S
C2995 C3014 1.368 . S
C2995 H3019 0.949 . S
H2996 C3000 0.949 . S
C2997 C2998 1.353 1_655 S
C2997 C2999 1.324 . S
C2997 H3020 0.948 . S
C2998 C2997 1.353 1_455 S
C2998 C3010 1.349 . S
C2999 C2997 1.324 . S
C2999 C3015 1.429 1_655 S
C2999 H3021 0.950 . S
C3000 H2996 0.949 . S
C3000 C3008 1.574 . S
C3000 C3016 1.368 1_455 S
H3001 C3009 0.950 . S
H3002 C3007 0.950 . S
H3003 C3008 0.949 . S
H3004 C3010 0.950 . S
H3005 C3011 0.950 . S
H3006 C3012 0.949 . S
C3007 H3002 0.950 . S
C3007 C3009 1.327 . S
C3007 C3013 1.429 . S
C3008 C3000 1.574 . S
C3008 H3003 0.949 . S
C3008 C3014 1.368 1_455 S
C3009 C2993 1.349 . S
C3009 H3001 0.950 . S
C3009 C3007 1.327 . S
C3010 C2998 1.349 . S
C3010 H3004 0.950 . S
C3010 C3011 1.327 . S
C3011 H3005 0.950 . S
C3011 C3010 1.327 . S
C3011 C3015 1.429 . S
C3012 C2995 1.574 . S
C3012 H3006 0.949 . S
C3012 C3016 1.368 . S
C3013 C2994 1.429 . S
C3013 C3007 1.429 . S
C3013 C3014 1.523 . S
C3014 C2995 1.368 . S
C3014 C3008 1.368 1_655 S
C3014 C3013 1.523 . S
C3015 C2999 1.429 1_455 S
C3015 C3011 1.429 . S
C3015 C3016 1.523 1_455 S
C3016 C3000 1.368 1_655 S
C3016 C3012 1.368 . S
C3016 C3015 1.523 1_655 S
H3017 C2992 0.950 . S
H3018 C2994 0.930 1_455 S
H3019 C2995 0.949 . S
H3020 C2997 0.948 . S
H3021 C2999 0.950 . S
C3022 C3023 1.349 . S
C3022 C3024 1.327 . S
C3022 H3047 0.950 . S
C3023 C3022 1.349 . S
C3023 C3039 1.349 . S
C3024 C3022 1.327 . S
C3024 C3043 1.429 . S
C3024 H3048 0.950 . S
C3025 C3042 1.574 . S
C3025 C3044 1.368 . S
C3025 H3049 0.949 . S
H3026 C3030 0.949 . S
C3027 C3028 1.349 . S
C3027 C3029 1.327 . S
C3027 H3050 0.950 . S
C3028 C3027 1.349 . S
C3028 C3040 1.349 . S
C3029 C3027 1.327 . S
C3029 C3045 1.429 . S
C3029 H3051 0.950 . S
C3030 H3026 0.949 . S
C3030 C3038 1.574 . S
C3030 C3046 1.368 . S
H3031 C3039 0.950 . S
H3032 C3037 0.950 . S
H3033 C3038 0.949 . S
H3034 C3040 0.950 . S
H3035 C3041 0.950 . S
H3036 C3042 0.949 . S
C3037 H3032 0.950 . S
C3037 C3039 1.327 . S
C3037 C3043 1.429 . S
C3038 C3030 1.574 . S
C3038 H3033 0.949 . S
C3038 C3044 1.368 . S
C3039 C3023 1.349 . S
C3039 H3031 0.950 . S
C3039 C3037 1.327 . S
C3040 C3028 1.349 . S
C3040 H3034 0.950 . S
C3040 C3041 1.327 . S
C3041 H3035 0.950 . S
C3041 C3040 1.327 . S
C3041 C3045 1.429 . S
C3042 C3025 1.574 . S
C3042 H3036 0.949 . S
C3042 C3046 1.368 . S
C3043 C3024 1.429 . S
C3043 C3037 1.429 . S
C3043 C3044 1.523 . S
C3044 C3025 1.368 . S
C3044 C3038 1.368 . S
C3044 C3043 1.523 . S
C3045 C3029 1.429 . S
C3045 C3041 1.429 . S
C3045 C3046 1.523 . S
C3046 C3030 1.368 . S
C3046 C3042 1.368 . S
C3046 C3045 1.523 . S
H3047 C3022 0.950 . S
H3048 C3024 0.950 . S
H3049 C3025 0.949 . S
H3050 C3027 0.950 . S
H3051 C3029 0.950 . S
C3052 C3053 1.349 . S
C3052 C3054 1.327 . S
C3052 H3077 0.950 . S
C3053 C3052 1.349 . S
C3053 C3069 1.349 . S
C3054 C3052 1.327 . S
C3054 C3073 1.429 . S
C3054 H3078 0.950 . S
C3055 C3072 1.574 . S
C3055 C3074 1.368 . S
C3055 H3079 0.949 . S
H3056 C3060 0.949 . S
C3057 C3058 1.349 . S
C3057 C3059 1.327 . S
C3057 H3080 0.950 . S
C3058 C3057 1.349 . S
C3058 C3070 1.349 . S
C3059 C3057 1.327 . S
C3059 C3075 1.429 . S
C3059 H3081 0.950 . S
C3060 H3056 0.949 . S
C3060 C3068 1.574 . S
C3060 C3076 1.368 . S
H3061 C3069 0.950 . S
H3062 C3067 0.950 . S
H3063 C3068 0.949 . S
H3064 C3070 0.950 . S
H3065 C3071 0.950 . S
H3066 C3072 0.949 . S
C3067 H3062 0.950 . S
C3067 C3069 1.327 . S
C3067 C3073 1.429 . S
C3068 C3060 1.574 . S
C3068 H3063 0.949 . S
C3068 C3074 1.368 . S
C3069 C3053 1.349 . S
C3069 H3061 0.950 . S
C3069 C3067 1.327 . S
C3070 C3058 1.349 . S
C3070 H3064 0.950 . S
C3070 C3071 1.327 . S
C3071 H3065 0.950 . S
C3071 C3070 1.327 . S
C3071 C3075 1.429 . S
C3072 C3055 1.574 . S
C3072 H3066 0.949 . S
C3072 C3076 1.368 . S
C3073 C3054 1.429 . S
C3073 C3067 1.429 . S
C3073 C3074 1.523 . S
C3074 C3055 1.368 . S
C3074 C3068 1.368 . S
C3074 C3073 1.523 . S
C3075 C3059 1.429 . S
C3075 C3071 1.429 . S
C3075 C3076 1.523 . S
C3076 C3060 1.368 . S
C3076 C3072 1.368 . S
C3076 C3075 1.523 . S
H3077 C3052 0.950 . S
H3078 C3054 0.950 . S
H3079 C3055 0.949 . S
H3080 C3057 0.950 . S
H3081 C3059 0.950 . S
C3082 C3083 1.349 . S
C3082 C3084 1.327 . S
C3082 H3107 0.950 . S
C3083 C3082 1.349 . S
C3083 C3099 1.349 . S
C3084 C3082 1.327 . S
C3084 C3103 1.429 . S
C3084 H3108 0.950 . S
C3085 C3102 1.574 . S
C3085 C3104 1.368 . S
C3085 H3109 0.949 . S
H3086 C3090 0.949 . S
C3087 C3088 1.349 . S
C3087 C3089 1.327 . S
C3087 H3110 0.950 . S
C3088 C3087 1.349 . S
C3088 C3100 1.349 . S
C3089 C3087 1.327 . S
C3089 C3105 1.429 . S
C3089 H3111 0.950 . S
C3090 H3086 0.949 . S
C3090 C3098 1.574 . S
C3090 C3106 1.368 . S
H3091 C3099 0.950 . S
H3092 C3097 0.950 . S
H3093 C3098 0.949 . S
H3094 C3100 0.950 . S
H3095 C3101 0.950 . S
H3096 C3102 0.949 . S
C3097 H3092 0.950 . S
C3097 C3099 1.327 . S
C3097 C3103 1.429 . S
C3098 C3090 1.574 . S
C3098 H3093 0.949 . S
C3098 C3104 1.368 . S
C3099 C3083 1.349 . S
C3099 H3091 0.950 . S
C3099 C3097 1.327 . S
C3100 C3088 1.349 . S
C3100 H3094 0.950 . S
C3100 C3101 1.327 . S
C3101 H3095 0.950 . S
C3101 C3100 1.327 . S
C3101 C3105 1.429 . S
C3102 C3085 1.574 . S
C3102 H3096 0.949 . S
C3102 C3106 1.368 . S
C3103 C3084 1.429 . S
C3103 C3097 1.429 . S
C3103 C3104 1.523 . S
C3104 C3085 1.368 . S
C3104 C3098 1.368 . S
C3104 C3103 1.523 . S
C3105 C3089 1.429 . S
C3105 C3101 1.429 . S
C3105 C3106 1.523 . S
C3106 C3090 1.368 . S
C3106 C3102 1.368 . S
C3106 C3105 1.523 . S
H3107 C3082 0.950 . S
H3108 C3084 0.950 . S
H3109 C3085 0.949 . S
H3110 C3087 0.950 . S
H3111 C3089 0.950 . S
C3112 C3113 1.349 . S
C3112 C3114 1.327 . S
C3112 H3137 0.950 . S
C3113 C3112 1.349 . S
C3113 C3129 1.349 . S
C3114 C3112 1.327 . S
C3114 C3133 1.429 . S
C3114 H3138 0.950 1_655 S
C3115 C3132 1.574 . S
C3115 C3134 1.368 . S
C3115 H3139 0.949 . S
H3116 C3120 0.949 . S
C3117 C3118 1.349 . S
C3117 C3119 1.327 1_455 S
C3117 H3140 0.950 1_455 S
C3118 C3117 1.349 . S
C3118 C3130 1.349 . S
C3119 C3117 1.327 1_655 S
C3119 C3135 1.429 1_655 S
C3119 H3141 0.950 . S
C3120 H3116 0.949 . S
C3120 C3128 1.574 . S
C3120 C3136 1.405 . S
H3121 C3129 0.950 . S
H3122 C3127 0.950 . S
H3123 C3128 0.949 . S
H3124 C3130 0.950 . S
H3125 C3131 0.950 . S
H3126 C3132 0.949 . S
C3127 H3122 0.950 . S
C3127 C3129 1.327 . S
C3127 C3133 1.429 . S
C3128 C3120 1.574 . S
C3128 H3123 0.949 . S
C3128 C3134 1.368 1_455 S
C3129 C3113 1.349 . S
C3129 H3121 0.950 . S
C3129 C3127 1.327 . S
C3130 C3118 1.349 . S
C3130 H3124 0.950 . S
C3130 C3131 1.327 . S
C3131 H3125 0.950 . S
C3131 C3130 1.327 . S
C3131 C3135 1.429 . S
C3132 C3115 1.574 . S
C3132 H3126 0.949 . S
C3132 C3136 1.325 1_655 S
C3133 C3114 1.429 . S
C3133 C3127 1.429 . S
C3133 C3134 1.523 . S
C3134 C3115 1.368 . S
C3134 C3128 1.368 1_655 S
C3134 C3133 1.523 . S
C3135 C3119 1.429 1_455 S
C3135 C3131 1.429 . S
C3135 C3136 1.534 . S
C3136 C3120 1.405 . S
C3136 C3132 1.325 1_455 S
C3136 C3135 1.534 . S
H3137 C3112 0.950 . S
H3138 C3114 0.950 1_455 S
H3139 C3115 0.949 . S
H3140 C3117 0.950 1_655 S
H3141 C3119 0.950 . S
C3142 C3143 1.349 . S
C3142 C3144 1.327 . S
C3142 H3167 0.950 . S
C3143 C3142 1.349 . S
C3143 C3159 1.349 . S
C3144 C3142 1.327 . S
C3144 C3163 1.429 . S
C3144 H3168 0.950 . S
C3145 C3162 1.574 . S
C3145 C3164 1.368 . S
C3145 H3169 0.949 . S
H3146 C3150 0.949 . S
C3147 C3148 1.349 . S
C3147 C3149 1.327 . S
C3147 H3170 0.950 . S
C3148 C3147 1.349 . S
C3148 C3160 1.349 . S
C3149 C3147 1.327 . S
C3149 C3165 1.429 . S
C3149 H3171 0.950 . S
C3150 H3146 0.949 . S
C3150 C3158 1.574 . S
C3150 C3166 1.368 . S
H3151 C3159 0.950 . S
H3152 C3157 0.950 . S
H3153 C3158 0.949 . S
H3154 C3160 0.950 . S
H3155 C3161 0.950 . S
H3156 C3162 0.949 . S
C3157 H3152 0.950 . S
C3157 C3159 1.327 . S
C3157 C3163 1.429 . S
C3158 C3150 1.574 . S
C3158 H3153 0.949 . S
C3158 C3164 1.368 . S
C3159 C3143 1.349 . S
C3159 H3151 0.950 . S
C3159 C3157 1.327 . S
C3160 C3148 1.349 . S
C3160 H3154 0.950 . S
C3160 C3161 1.327 . S
C3161 H3155 0.950 . S
C3161 C3160 1.327 . S
C3161 C3165 1.429 . S
C3162 C3145 1.574 . S
C3162 H3156 0.949 . S
C3162 C3166 1.368 . S
C3163 C3144 1.429 . S
C3163 C3157 1.429 . S
C3163 C3164 1.523 . S
C3164 C3145 1.368 . S
C3164 C3158 1.368 . S
C3164 C3163 1.523 . S
C3165 C3149 1.429 . S
C3165 C3161 1.429 . S
C3165 C3166 1.523 . S
C3166 C3150 1.368 . S
C3166 C3162 1.368 . S
C3166 C3165 1.523 . S
H3167 C3142 0.950 . S
H3168 C3144 0.950 . S
H3169 C3145 0.949 . S
H3170 C3147 0.950 . S
H3171 C3149 0.950 . S
C3172 C3173 1.349 . S
C3172 C3174 1.327 . S
C3172 H3197 0.950 . S
C3173 C3172 1.349 . S
C3173 C3189 1.349 . S
C3174 C3172 1.327 . S
C3174 C3193 1.429 . S
C3174 H3198 0.950 . S
C3175 C3192 1.574 . S
C3175 C3194 1.368 . S
C3175 H3199 0.949 . S
H3176 C3180 0.949 . S
C3177 C3178 1.349 . S
C3177 C3179 1.327 . S
C3177 H3200 0.950 . S
C3178 C3177 1.349 . S
C3178 C3190 1.349 . S
C3179 C3177 1.327 . S
C3179 C3195 1.429 . S
C3179 H3201 0.950 . S
C3180 H3176 0.949 . S
C3180 C3188 1.574 . S
C3180 C3196 1.368 . S
H3181 C3189 0.950 . S
H3182 C3187 0.950 . S
H3183 C3188 0.949 . S
H3184 C3190 0.950 . S
H3185 C3191 0.950 . S
H3186 C3192 0.949 . S
C3187 H3182 0.950 . S
C3187 C3189 1.327 . S
C3187 C3193 1.429 . S
C3188 C3180 1.574 . S
C3188 H3183 0.949 . S
C3188 C3194 1.368 . S
C3189 C3173 1.349 . S
C3189 H3181 0.950 . S
C3189 C3187 1.327 . S
C3190 C3178 1.349 . S
C3190 H3184 0.950 . S
C3190 C3191 1.327 . S
C3191 H3185 0.950 . S
C3191 C3190 1.327 . S
C3191 C3195 1.429 . S
C3192 C3175 1.574 . S
C3192 H3186 0.949 . S
C3192 C3196 1.368 . S
C3193 C3174 1.429 . S
C3193 C3187 1.429 . S
C3193 C3194 1.523 . S
C3194 C3175 1.368 . S
C3194 C3188 1.368 . S
C3194 C3193 1.523 . S
C3195 C3179 1.429 . S
C3195 C3191 1.429 . S
C3195 C3196 1.523 . S
C3196 C3180 1.368 . S
C3196 C3192 1.368 . S
C3196 C3195 1.523 . S
H3197 C3172 0.950 . S
H3198 C3174 0.950 . S
H3199 C3175 0.949 . S
H3200 C3177 0.950 . S
H3201 C3179 0.950 . S
C3202 C3203 1.349 . S
C3202 C3204 1.327 . S
C3202 H3227 0.950 . S
C3203 C3202 1.349 . S
C3203 C3219 1.349 . S
C3204 C3202 1.327 . S
C3204 C3223 1.429 . S
C3204 H3228 0.950 . S
C3205 C3222 1.574 . S
C3205 C3224 1.368 . S
C3205 H3229 0.949 . S
H3206 C3210 0.949 . S
C3207 C3208 1.349 . S
C3207 C3209 1.327 . S
C3207 H3230 0.950 . S
C3208 C3207 1.349 . S
C3208 C3220 1.349 . S
C3209 C3207 1.327 . S
C3209 C3225 1.429 . S
C3209 H3231 0.950 . S
C3210 H3206 0.949 . S
C3210 C3218 1.574 . S
C3210 C3226 1.368 . S
H3211 C3219 0.950 . S
H3212 C3217 0.950 . S
H3213 C3218 0.949 . S
H3214 C3220 0.950 . S
H3215 C3221 0.950 . S
H3216 C3222 0.949 . S
C3217 H3212 0.950 . S
C3217 C3219 1.327 . S
C3217 C3223 1.429 . S
C3218 C3210 1.574 . S
C3218 H3213 0.949 . S
C3218 C3224 1.368 . S
C3219 C3203 1.349 . S
C3219 H3211 0.950 . S
C3219 C3217 1.327 . S
C3220 C3208 1.349 . S
C3220 H3214 0.950 . S
C3220 C3221 1.327 . S
C3221 H3215 0.950 . S
C3221 C3220 1.327 . S
C3221 C3225 1.429 . S
C3222 C3205 1.574 . S
C3222 H3216 0.949 . S
C3222 C3226 1.368 . S
C3223 C3204 1.429 . S
C3223 C3217 1.429 . S
C3223 C3224 1.523 . S
C3224 C3205 1.368 . S
C3224 C3218 1.368 . S
C3224 C3223 1.523 . S
C3225 C3209 1.429 . S
C3225 C3221 1.429 . S
C3225 C3226 1.523 . S
C3226 C3210 1.368 . S
C3226 C3222 1.368 . S
C3226 C3225 1.523 . S
H3227 C3202 0.950 . S
H3228 C3204 0.950 . S
H3229 C3205 0.949 . S
H3230 C3207 0.950 . S
H3231 C3209 0.950 . S
C3232 C3233 1.351 . S
C3232 C3234 1.327 . S
C3232 H3257 0.950 . S
C3233 C3232 1.351 . S
C3233 C3249 1.348 1_554 S
C3234 C3232 1.327 . S
C3234 C3253 1.429 . S
C3234 H3258 0.950 . S
C3235 C3252 1.574 . S
C3235 C3254 1.368 . S
C3235 H3259 0.984 . S
H3236 C3240 0.949 . S
C3237 C3238 1.349 . S
C3237 C3239 1.327 . S
C3237 H3260 0.950 . S
C3238 C3237 1.349 . S
C3238 C3250 1.349 1_565 S
C3239 C3237 1.327 . S
C3239 C3255 1.429 . S
C3239 H3261 0.950 . S
C3240 H3236 0.949 . S
C3240 C3248 1.574 . S
C3240 C3256 1.368 . S
H3241 C3249 0.950 . S
H3242 C3247 0.966 . S
H3243 C3248 0.949 . S
H3244 C3250 0.950 . S
H3245 C3251 0.950 1_545 S
H3246 C3252 0.949 . S
C3247 H3242 0.966 . S
C3247 C3249 1.348 . S
C3247 C3253 1.397 1_556 S
C3248 C3240 1.574 . S
C3248 H3243 0.949 . S
C3248 C3254 1.368 . S
C3249 C3233 1.348 1_556 S
C3249 H3241 0.950 . S
C3249 C3247 1.348 . S
C3250 C3238 1.349 1_545 S
C3250 H3244 0.950 . S
C3250 C3251 1.327 1_545 S
C3251 H3245 0.950 1_565 S
C3251 C3250 1.327 1_565 S
C3251 C3255 1.429 . S
C3252 C3235 1.574 . S
C3252 H3246 0.949 . S
C3252 C3256 1.368 . S
C3253 C3234 1.429 . S
C3253 C3247 1.397 1_554 S
C3253 C3254 1.523 . S
C3254 C3235 1.368 . S
C3254 C3248 1.368 . S
C3254 C3253 1.523 . S
C3255 C3239 1.429 . S
C3255 C3251 1.429 . S
C3255 C3256 1.523 . S
C3256 C3240 1.368 . S
C3256 C3252 1.368 . S
C3256 C3255 1.523 . S
H3257 C3232 0.950 . S
H3258 C3234 0.950 . S
H3259 C3235 0.984 . S
H3260 C3237 0.950 . S
H3261 C3239 0.950 . S
C3262 C3263 1.349 . S
C3262 C3264 1.327 . S
C3262 H3287 0.950 . S
C3263 C3262 1.349 . S
C3263 C3279 1.349 1_554 S
C3264 C3262 1.327 . S
C3264 C3283 1.429 . S
C3264 H3288 0.950 . S
C3265 C3282 1.574 . S
C3265 C3284 1.368 1_556 S
C3265 H3289 0.949 . S
H3266 C3270 0.949 . S
C3267 C3268 1.349 1_556 S
C3267 C3269 1.327 . S
C3267 H3290 0.950 . S
C3268 C3267 1.349 1_554 S
C3268 C3280 1.349 . S
C3269 C3267 1.327 . S
C3269 C3285 1.429 1_556 S
C3269 H3291 0.950 . S
C3270 H3266 0.949 . S
C3270 C3278 1.574 . S
C3270 C3286 1.368 . S
H3271 C3279 0.950 . S
H3272 C3277 0.950 . S
H3273 C3278 0.949 . S
H3274 C3280 0.950 . S
H3275 C3281 0.950 . S
H3276 C3282 0.949 . S
C3277 H3272 0.950 . S
C3277 C3279 1.327 . S
C3277 C3283 1.429 1_556 S
C3278 C3270 1.574 . S
C3278 H3273 0.949 . S
C3278 C3284 1.368 . S
C3279 C3263 1.349 1_556 S
C3279 H3271 0.950 . S
C3279 C3277 1.327 . S
C3280 C3268 1.349 . S
C3280 H3274 0.950 . S
C3280 C3281 1.327 . S
C3281 H3275 0.950 . S
C3281 C3280 1.327 . S
C3281 C3285 1.429 . S
C3282 C3265 1.574 . S
C3282 H3276 0.949 . S
C3282 C3286 1.368 1_556 S
C3283 C3264 1.429 . S
C3283 C3277 1.429 1_554 S
C3283 C3284 1.523 . S
C3284 C3265 1.368 1_554 S
C3284 C3278 1.368 . S
C3284 C3283 1.523 . S
C3285 C3269 1.429 1_554 S
C3285 C3281 1.429 . S
C3285 C3286 1.523 . S
C3286 C3270 1.368 . S
C3286 C3282 1.368 1_554 S
C3286 C3285 1.523 . S
H3287 C3262 0.950 . S
H3288 C3264 0.950 . S
H3289 C3265 0.949 . S
H3290 C3267 0.950 . S
H3291 C3269 0.950 . S
C3292 C3293 1.349 . S
C3292 C3294 1.327 . S
C3292 H3317 0.950 . S
C3293 C3292 1.349 . S
C3293 C3309 1.349 . S
C3294 C3292 1.327 . S
C3294 C3313 1.429 . S
C3294 H3318 0.950 . S
C3295 C3312 1.574 . S
C3295 C3314 1.368 . S
C3295 H3319 0.949 . S
H3296 C3300 0.949 . S
C3297 C3298 1.349 . S
C3297 C3299 1.327 . S
C3297 H3320 0.950 . S
C3298 C3297 1.349 . S
C3298 C3310 1.349 . S
C3299 C3297 1.327 . S
C3299 C3315 1.429 . S
C3299 H3321 0.950 . S
C3300 H3296 0.949 . S
C3300 C3308 1.574 . S
C3300 C3316 1.368 . S
H3301 C3309 0.950 . S
H3302 C3307 0.950 . S
H3303 C3308 0.949 . S
H3304 C3310 0.950 . S
H3305 C3311 0.950 . S
H3306 C3312 0.949 . S
C3307 H3302 0.950 . S
C3307 C3309 1.327 . S
C3307 C3313 1.429 . S
C3308 C3300 1.574 . S
C3308 H3303 0.949 . S
C3308 C3314 1.368 . S
C3309 C3293 1.349 . S
C3309 H3301 0.950 . S
C3309 C3307 1.327 . S
C3310 C3298 1.349 . S
C3310 H3304 0.950 . S
C3310 C3311 1.327 . S
C3311 H3305 0.950 . S
C3311 C3310 1.327 . S
C3311 C3315 1.429 . S
C3312 C3295 1.574 . S
C3312 H3306 0.949 . S
C3312 C3316 1.368 . S
C3313 C3294 1.429 . S
C3313 C3307 1.429 . S
C3313 C3314 1.523 . S
C3314 C3295 1.368 . S
C3314 C3308 1.368 . S
C3314 C3313 1.523 . S
C3315 C3299 1.429 . S
C3315 C3311 1.429 . S
C3315 C3316 1.523 . S
C3316 C3300 1.368 . S
C3316 C3312 1.368 . S
C3316 C3315 1.523 . S
H3317 C3292 0.950 . S
H3318 C3294 0.950 . S
H3319 C3295 0.949 . S
H3320 C3297 0.950 . S
H3321 C3299 0.950 . S
C3322 C3323 1.349 . S
C3322 C3324 1.327 . S
C3322 H3347 0.950 . S
C3323 C3322 1.349 . S
C3323 C3339 1.349 . S
C3324 C3322 1.327 . S
C3324 C3343 1.429 . S
C3324 H3348 0.950 . S
C3325 C3342 1.574 . S
C3325 C3344 1.368 . S
C3325 H3349 0.949 . S
H3326 C3330 0.949 . S
C3327 C3328 1.349 . S
C3327 C3329 1.327 . S
C3327 H3350 0.950 . S
C3328 C3327 1.349 . S
C3328 C3340 1.349 . S
C3329 C3327 1.327 . S
C3329 C3345 1.429 . S
C3329 H3351 0.950 . S
C3330 H3326 0.949 . S
C3330 C3338 1.574 . S
C3330 C3346 1.368 . S
H3331 C3339 0.950 . S
H3332 C3337 0.950 . S
H3333 C3338 0.949 . S
H3334 C3340 0.950 . S
H3335 C3341 0.950 . S
H3336 C3342 0.949 . S
C3337 H3332 0.950 . S
C3337 C3339 1.327 . S
C3337 C3343 1.429 . S
C3338 C3330 1.574 . S
C3338 H3333 0.949 . S
C3338 C3344 1.368 . S
C3339 C3323 1.349 . S
C3339 H3331 0.950 . S
C3339 C3337 1.327 . S
C3340 C3328 1.349 . S
C3340 H3334 0.950 . S
C3340 C3341 1.327 . S
C3341 H3335 0.950 . S
C3341 C3340 1.327 . S
C3341 C3345 1.429 . S
C3342 C3325 1.574 . S
C3342 H3336 0.949 . S
C3342 C3346 1.368 . S
C3343 C3324 1.429 . S
C3343 C3337 1.429 . S
C3343 C3344 1.523 . S
C3344 C3325 1.368 . S
C3344 C3338 1.368 . S
C3344 C3343 1.523 . S
C3345 C3329 1.429 . S
C3345 C3341 1.429 . S
C3345 C3346 1.523 . S
C3346 C3330 1.368 . S
C3346 C3342 1.368 . S
C3346 C3345 1.523 . S
H3347 C3322 0.950 . S
H3348 C3324 0.950 . S
H3349 C3325 0.949 . S
H3350 C3327 0.950 . S
H3351 C3329 0.950 . S
C3352 C3353 1.349 . S
C3352 C3354 1.327 . S
C3352 H3377 0.950 . S
C3353 C3352 1.349 . S
C3353 C3369 1.349 . S
C3354 C3352 1.327 . S
C3354 C3373 1.429 . S
C3354 H3378 0.950 . S
C3355 C3372 1.574 . S
C3355 C3374 1.368 . S
C3355 H3379 0.949 . S
H3356 C3360 0.949 . S
C3357 C3358 1.349 . S
C3357 C3359 1.327 . S
C3357 H3380 0.950 . S
C3358 C3357 1.349 . S
C3358 C3370 1.349 . S
C3359 C3357 1.327 . S
C3359 C3375 1.429 . S
C3359 H3381 0.950 . S
C3360 H3356 0.949 . S
C3360 C3368 1.574 . S
C3360 C3376 1.368 . S
H3361 C3369 0.950 . S
H3362 C3367 0.950 . S
H3363 C3368 0.949 . S
H3364 C3370 0.950 . S
H3365 C3371 0.950 . S
H3366 C3372 0.949 . S
C3367 H3362 0.950 . S
C3367 C3369 1.327 . S
C3367 C3373 1.429 . S
C3368 C3360 1.574 . S
C3368 H3363 0.949 . S
C3368 C3374 1.368 . S
C3369 C3353 1.349 . S
C3369 H3361 0.950 . S
C3369 C3367 1.327 . S
C3370 C3358 1.349 . S
C3370 H3364 0.950 . S
C3370 C3371 1.327 . S
C3371 H3365 0.950 . S
C3371 C3370 1.327 . S
C3371 C3375 1.429 . S
C3372 C3355 1.574 . S
C3372 H3366 0.949 . S
C3372 C3376 1.368 . S
C3373 C3354 1.429 . S
C3373 C3367 1.429 . S
C3373 C3374 1.523 . S
C3374 C3355 1.368 . S
C3374 C3368 1.368 . S
C3374 C3373 1.523 . S
C3375 C3359 1.429 . S
C3375 C3371 1.429 . S
C3375 C3376 1.523 . S
C3376 C3360 1.368 . S
C3376 C3372 1.368 . S
C3376 C3375 1.523 . S
H3377 C3352 0.950 . S
H3378 C3354 0.950 . S
H3379 C3355 0.949 . S
H3380 C3357 0.950 . S
H3381 C3359 0.950 . S
C3382 C3383 1.349 . S
C3382 C3384 1.327 . S
C3382 H3407 0.950 . S
C3383 C3382 1.349 . S
C3383 C3399 1.349 . S
C3384 C3382 1.327 . S
C3384 C3403 1.429 . S
C3384 H3408 0.950 . S
C3385 C3402 1.574 . S
C3385 C3404 1.368 . S
C3385 H3409 0.949 . S
H3386 C3390 0.949 . S
C3387 C3388 1.349 . S
C3387 C3389 1.327 . S
C3387 H3410 0.950 . S
C3388 C3387 1.349 . S
C3388 C3400 1.349 . S
C3389 C3387 1.327 . S
C3389 C3405 1.429 . S
C3389 H3411 0.950 . S
C3390 H3386 0.949 . S
C3390 C3398 1.574 . S
C3390 C3406 1.368 . S
H3391 C3399 0.950 . S
H3392 C3397 0.950 . S
H3393 C3398 0.949 . S
H3394 C3400 0.950 . S
H3395 C3401 0.950 . S
H3396 C3402 0.949 . S
C3397 H3392 0.950 . S
C3397 C3399 1.327 . S
C3397 C3403 1.429 . S
C3398 C3390 1.574 . S
C3398 H3393 0.949 . S
C3398 C3404 1.368 . S
C3399 C3383 1.349 . S
C3399 H3391 0.950 . S
C3399 C3397 1.327 . S
C3400 C3388 1.349 . S
C3400 H3394 0.950 . S
C3400 C3401 1.327 . S
C3401 H3395 0.950 . S
C3401 C3400 1.327 . S
C3401 C3405 1.429 . S
C3402 C3385 1.574 . S
C3402 H3396 0.949 . S
C3402 C3406 1.368 . S
C3403 C3384 1.429 . S
C3403 C3397 1.429 . S
C3403 C3404 1.523 . S
C3404 C3385 1.368 . S
C3404 C3398 1.368 . S
C3404 C3403 1.523 . S
C3405 C3389 1.429 . S
C3405 C3401 1.429 . S
C3405 C3406 1.523 . S
C3406 C3390 1.368 . S
C3406 C3402 1.368 . S
C3406 C3405 1.523 . S
H3407 C3382 0.950 . S
H3408 C3384 0.950 . S
H3409 C3385 0.949 . S
H3410 C3387 0.950 . S
H3411 C3389 0.950 . S
C3412 C3413 1.349 . S
C3412 C3414 1.327 . S
C3412 H3437 0.950 . S
C3413 C3412 1.349 . S
C3413 C3429 1.349 . S
C3414 C3412 1.327 . S
C3414 C3433 1.429 . S
C3414 H3438 0.950 . S
C3415 C3432 1.574 . S
C3415 C3434 1.368 . S
C3415 H3439 0.949 . S
H3416 C3420 0.949 . S
C3417 C3418 1.349 . S
C3417 C3419 1.327 . S
C3417 H3440 0.950 . S
C3418 C3417 1.349 . S
C3418 C3430 1.349 . S
C3419 C3417 1.327 . S
C3419 C3435 1.429 . S
C3419 H3441 0.950 . S
C3420 H3416 0.949 . S
C3420 C3428 1.574 . S
C3420 C3436 1.368 . S
H3421 C3429 0.950 . S
H3422 C3427 0.950 . S
H3423 C3428 0.949 . S
H3424 C3430 0.950 . S
H3425 C3431 0.950 . S
H3426 C3432 0.949 . S
C3427 H3422 0.950 . S
C3427 C3429 1.327 . S
C3427 C3433 1.429 . S
C3428 C3420 1.574 . S
C3428 H3423 0.949 . S
C3428 C3434 1.368 . S
C3429 C3413 1.349 . S
C3429 H3421 0.950 . S
C3429 C3427 1.327 . S
C3430 C3418 1.349 . S
C3430 H3424 0.950 . S
C3430 C3431 1.327 . S
C3431 H3425 0.950 . S
C3431 C3430 1.327 . S
C3431 C3435 1.429 . S
C3432 C3415 1.574 . S
C3432 H3426 0.949 . S
C3432 C3436 1.368 . S
C3433 C3414 1.429 . S
C3433 C3427 1.429 . S
C3433 C3434 1.523 . S
C3434 C3415 1.368 . S
C3434 C3428 1.368 . S
C3434 C3433 1.523 . S
C3435 C3419 1.429 . S
C3435 C3431 1.429 . S
C3435 C3436 1.523 . S
C3436 C3420 1.368 . S
C3436 C3432 1.368 . S
C3436 C3435 1.523 . S
H3437 C3412 0.950 . S
H3438 C3414 0.950 . S
H3439 C3415 0.949 . S
H3440 C3417 0.950 . S
H3441 C3419 0.950 . S
C3442 C3443 1.349 . S
C3442 C3444 1.327 . S
C3442 H3467 0.950 . S
C3443 C3442 1.349 . S
C3443 C3459 1.349 . S
C3444 C3442 1.327 . S
C3444 C3463 1.429 . S
C3444 H3468 0.950 . S
C3445 C3462 1.574 . S
C3445 C3464 1.368 . S
C3445 H3469 0.949 . S
H3446 C3450 0.949 . S
C3447 C3448 1.349 . S
C3447 C3449 1.327 . S
C3447 H3470 0.950 . S
C3448 C3447 1.349 . S
C3448 C3460 1.349 . S
C3449 C3447 1.327 . S
C3449 C3465 1.429 . S
C3449 H3471 0.950 . S
C3450 H3446 0.949 . S
C3450 C3458 1.574 . S
C3450 C3466 1.368 . S
H3451 C3459 0.950 . S
H3452 C3457 0.950 . S
H3453 C3458 0.949 . S
H3454 C3460 0.950 . S
H3455 C3461 0.950 . S
H3456 C3462 0.949 . S
C3457 H3452 0.950 . S
C3457 C3459 1.327 . S
C3457 C3463 1.429 . S
C3458 C3450 1.574 . S
C3458 H3453 0.949 . S
C3458 C3464 1.368 . S
C3459 C3443 1.349 . S
C3459 H3451 0.950 . S
C3459 C3457 1.327 . S
C3460 C3448 1.349 . S
C3460 H3454 0.950 . S
C3460 C3461 1.327 . S
C3461 H3455 0.950 . S
C3461 C3460 1.327 . S
C3461 C3465 1.429 . S
C3462 C3445 1.574 . S
C3462 H3456 0.949 . S
C3462 C3466 1.368 . S
C3463 C3444 1.429 . S
C3463 C3457 1.429 . S
C3463 C3464 1.523 . S
C3464 C3445 1.368 . S
C3464 C3458 1.368 . S
C3464 C3463 1.523 . S
C3465 C3449 1.429 . S
C3465 C3461 1.429 . S
C3465 C3466 1.523 . S
C3466 C3450 1.368 . S
C3466 C3462 1.368 . S
C3466 C3465 1.523 . S
H3467 C3442 0.950 . S
H3468 C3444 0.950 . S
H3469 C3445 0.949 . S
H3470 C3447 0.950 . S
H3471 C3449 0.950 . S
C3472 C3473 1.349 . S
C3472 C3474 1.327 . S
C3472 H3497 0.950 . S
C3473 C3472 1.349 . S
C3473 C3489 1.349 . S
C3474 C3472 1.327 . S
C3474 C3493 1.429 . S
C3474 H3498 0.950 . S
C3475 C3492 1.574 . S
C3475 C3494 1.368 . S
C3475 H3499 0.949 . S
H3476 C3480 0.949 . S
C3477 C3478 1.349 . S
C3477 C3479 1.327 . S
C3477 H3500 0.950 . S
C3478 C3477 1.349 . S
C3478 C3490 1.349 . S
C3479 C3477 1.327 . S
C3479 C3495 1.429 . S
C3479 H3501 0.950 . S
C3480 H3476 0.949 . S
C3480 C3488 1.574 . S
C3480 C3496 1.368 . S
H3481 C3489 0.950 . S
H3482 C3487 0.950 . S
H3483 C3488 0.949 . S
H3484 C3490 1.007 . S
H3485 C3491 0.950 . S
H3486 C3492 0.949 . S
C3487 H3482 0.950 . S
C3487 C3489 1.327 . S
C3487 C3493 1.429 . S
C3488 C3480 1.574 . S
C3488 H3483 0.949 . S
C3488 C3494 1.368 . S
C3489 C3473 1.349 . S
C3489 H3481 0.950 . S
C3489 C3487 1.327 . S
C3490 C3478 1.349 . S
C3490 H3484 1.007 . S
C3490 C3491 1.327 . S
C3491 H3485 0.950 . S
C3491 C3490 1.327 . S
C3491 C3495 1.429 . S
C3492 C3475 1.574 . S
C3492 H3486 0.949 . S
C3492 C3496 1.368 . S
C3493 C3474 1.429 . S
C3493 C3487 1.429 . S
C3493 C3494 1.523 . S
C3494 C3475 1.368 . S
C3494 C3488 1.368 . S
C3494 C3493 1.523 . S
C3495 C3479 1.429 . S
C3495 C3491 1.429 . S
C3495 C3496 1.523 . S
C3496 C3480 1.368 . S
C3496 C3492 1.368 . S
C3496 C3495 1.523 . S
H3497 C3472 0.950 . S
H3498 C3474 0.950 . S
H3499 C3475 0.949 . S
H3500 C3477 0.950 . S
H3501 C3479 0.950 . S
C3502 C3503 1.349 . S
C3502 C3504 1.327 . S
C3502 H3527 0.950 . S
C3503 C3502 1.349 . S
C3503 C3519 1.349 . S
C3504 C3502 1.327 . S
C3504 C3523 1.429 . S
C3504 H3528 0.950 . S
C3505 C3522 1.574 . S
C3505 C3524 1.368 . S
C3505 H3529 0.949 . S
H3506 C3510 0.949 . S
C3507 C3508 1.349 . S
C3507 C3509 1.327 . S
C3507 H3530 0.950 . S
C3508 C3507 1.349 . S
C3508 C3520 1.349 . S
C3509 C3507 1.327 . S
C3509 C3525 1.429 . S
C3509 H3531 0.950 . S
C3510 H3506 0.949 . S
C3510 C3518 1.574 . S
C3510 C3526 1.368 . S
H3511 C3519 0.950 . S
H3512 C3517 0.950 . S
H3513 C3518 0.949 . S
H3514 C3520 0.950 . S
H3515 C3521 0.950 . S
H3516 C3522 0.949 . S
C3517 H3512 0.950 . S
C3517 C3519 1.327 . S
C3517 C3523 1.429 . S
C3518 C3510 1.574 . S
C3518 H3513 0.949 . S
C3518 C3524 1.368 . S
C3519 C3503 1.349 . S
C3519 H3511 0.950 . S
C3519 C3517 1.327 . S
C3520 C3508 1.349 . S
C3520 H3514 0.950 . S
C3520 C3521 1.327 . S
C3521 H3515 0.950 . S
C3521 C3520 1.327 . S
C3521 C3525 1.429 . S
C3522 C3505 1.574 . S
C3522 H3516 0.949 . S
C3522 C3526 1.368 . S
C3523 C3504 1.429 . S
C3523 C3517 1.429 . S
C3523 C3524 1.523 . S
C3524 C3505 1.368 . S
C3524 C3518 1.368 . S
C3524 C3523 1.523 . S
C3525 C3509 1.429 . S
C3525 C3521 1.429 . S
C3525 C3526 1.523 . S
C3526 C3510 1.368 . S
C3526 C3522 1.368 . S
C3526 C3525 1.523 . S
H3527 C3502 0.950 . S
H3528 C3504 0.950 . S
H3529 C3505 0.949 . S
H3530 C3507 0.950 . S
H3531 C3509 0.950 . S
C3532 C3533 1.349 . S
C3532 C3534 1.327 . S
C3532 H3557 0.950 . S
C3533 C3532 1.349 . S
C3533 C3549 1.349 . S
C3534 C3532 1.327 . S
C3534 C3553 1.429 . S
C3534 H3558 0.950 . S
C3535 C3552 1.574 . S
C3535 C3554 1.368 . S
C3535 H3559 0.949 . S
H3536 C3540 0.949 . S
C3537 C3538 1.349 . S
C3537 C3539 1.327 . S
C3537 H3560 0.950 . S
C3538 C3537 1.349 . S
C3538 C3550 1.349 . S
C3539 C3537 1.327 . S
C3539 C3555 1.429 . S
C3539 H3561 0.950 . S
C3540 H3536 0.949 . S
C3540 C3548 1.574 . S
C3540 C3556 1.368 . S
H3541 C3549 0.950 . S
H3542 C3547 0.950 . S
H3543 C3548 0.949 . S
H3544 C3550 0.950 . S
H3545 C3551 0.950 . S
H3546 C3552 0.949 . S
C3547 H3542 0.950 . S
C3547 C3549 1.327 . S
C3547 C3553 1.429 . S
C3548 C3540 1.574 . S
C3548 H3543 0.949 . S
C3548 C3554 1.368 . S
C3549 C3533 1.349 . S
C3549 H3541 0.950 . S
C3549 C3547 1.327 . S
C3550 C3538 1.349 . S
C3550 H3544 0.950 . S
C3550 C3551 1.327 . S
C3551 H3545 0.950 . S
C3551 C3550 1.327 . S
C3551 C3555 1.429 . S
C3552 C3535 1.574 . S
C3552 H3546 0.949 . S
C3552 C3556 1.368 . S
C3553 C3534 1.429 . S
C3553 C3547 1.429 . S
C3553 C3554 1.523 . S
C3554 C3535 1.368 . S
C3554 C3548 1.368 . S
C3554 C3553 1.523 . S
C3555 C3539 1.429 . S
C3555 C3551 1.429 . S
C3555 C3556 1.523 . S
C3556 C3540 1.368 . S
C3556 C3552 1.368 . S
C3556 C3555 1.523 . S
H3557 C3532 0.950 . S
H3558 C3534 0.950 . S
H3559 C3535 0.949 . S
H3560 C3537 0.950 . S
H3561 C3539 0.950 . S
C3562 C3563 1.349 . S
C3562 C3564 1.327 . S
C3562 H3587 0.950 . S
C3563 C3562 1.349 . S
C3563 C3579 1.349 . S
C3564 C3562 1.327 . S
C3564 C3583 1.429 . S
C3564 H3588 0.950 . S
C3565 C3582 1.574 . S
C3565 C3584 1.368 . S
C3565 H3589 0.949 . S
H3566 C3570 0.949 . S
C3567 C3568 1.349 . S
C3567 C3569 1.327 . S
C3567 H3590 0.950 . S
C3568 C3567 1.349 . S
C3568 C3580 1.349 . S
C3569 C3567 1.327 . S
C3569 C3585 1.429 . S
C3569 H3591 0.950 . S
C3570 H3566 0.949 . S
C3570 C3578 1.574 . S
C3570 C3586 1.368 . S
H3571 C3579 0.950 . S
H3572 C3577 0.950 . S
H3573 C3578 0.949 . S
H3574 C3580 0.950 . S
H3575 C3581 0.950 . S
H3576 C3582 0.949 . S
C3577 H3572 0.950 . S
C3577 C3579 1.327 . S
C3577 C3583 1.429 . S
C3578 C3570 1.574 . S
C3578 H3573 0.949 . S
C3578 C3584 1.368 . S
C3579 C3563 1.349 . S
C3579 H3571 0.950 . S
C3579 C3577 1.327 . S
C3580 C3568 1.349 . S
C3580 H3574 0.950 . S
C3580 C3581 1.327 . S
C3581 H3575 0.950 . S
C3581 C3580 1.327 . S
C3581 C3585 1.429 . S
C3582 C3565 1.574 . S
C3582 H3576 0.949 . S
C3582 C3586 1.368 . S
C3583 C3564 1.429 . S
C3583 C3577 1.429 . S
C3583 C3584 1.523 . S
C3584 C3565 1.368 . S
C3584 C3578 1.368 . S
C3584 C3583 1.523 . S
C3585 C3569 1.429 . S
C3585 C3581 1.429 . S
C3585 C3586 1.523 . S
C3586 C3570 1.368 . S
C3586 C3582 1.368 . S
C3586 C3585 1.523 . S
H3587 C3562 0.950 . S
H3588 C3564 0.950 . S
H3589 C3565 0.949 . S
H3590 C3567 0.950 . S
H3591 C3569 0.950 . S
C3592 C3593 1.349 . S
C3592 C3594 1.327 . S
C3592 H3617 0.949 . S
C3593 C3592 1.349 . S
C3593 C3609 1.349 . S
C3594 C3592 1.327 . S
C3594 C3613 1.429 . S
C3594 H3618 0.950 1_455 S
C3595 C3612 1.574 . S
C3595 C3614 1.368 . S
C3595 H3619 0.949 . S
H3596 C3600 0.949 . S
C3597 C3598 1.349 . S
C3597 C3599 1.327 . S
C3597 H3620 0.950 . S
C3598 C3597 1.349 . S
C3598 C3610 1.349 1_455 S
C3599 C3597 1.327 . S
C3599 C3615 1.429 . S
C3599 H3621 0.950 . S
C3600 H3596 0.949 . S
C3600 C3608 1.576 1_655 S
C3600 C3616 1.368 1_655 S
H3601 C3609 0.950 . S
H3602 C3607 0.950 . S
H3603 C3608 0.918 1_655 S
H3604 C3610 0.950 . S
H3605 C3611 0.950 . S
H3606 C3612 0.949 . S
C3607 H3602 0.950 . S
C3607 C3609 1.327 . S
C3607 C3613 1.429 . S
C3608 C3600 1.576 1_455 S
C3608 H3603 0.918 1_455 S
C3608 C3614 1.401 . S
C3609 C3593 1.349 . S
C3609 H3601 0.950 . S
C3609 C3607 1.327 . S
C3610 C3598 1.349 1_655 S
C3610 H3604 0.950 . S
C3610 C3611 1.327 . S
C3611 H3605 0.950 . S
C3611 C3610 1.327 . S
C3611 C3615 1.429 1_655 S
C3612 C3595 1.574 . S
C3612 H3606 0.949 . S
C3612 C3616 1.368 . S
C3613 C3594 1.429 . S
C3613 C3607 1.429 . S
C3613 C3614 1.523 . S
C3614 C3595 1.368 . S
C3614 C3608 1.401 . S
C3614 C3613 1.523 . S
C3615 C3599 1.429 . S
C3615 C3611 1.429 1_455 S
C3615 C3616 1.523 . S
C3616 C3600 1.368 1_455 S
C3616 C3612 1.368 . S
C3616 C3615 1.523 . S
H3617 C3592 0.949 . S
H3618 C3594 0.950 1_655 S
H3619 C3595 0.949 . S
H3620 C3597 0.950 . S
H3621 C3599 0.950 . S
C3622 C3623 1.349 . S
C3622 C3624 1.327 . S
C3622 H3647 0.950 . S
C3623 C3622 1.349 . S
C3623 C3639 1.349 . S
C3624 C3622 1.327 . S
C3624 C3643 1.429 . S
C3624 H3648 0.950 . S
C3625 C3642 1.574 . S
C3625 C3644 1.368 . S
C3625 H3649 0.949 . S
H3626 C3630 0.949 . S
C3627 C3628 1.349 . S
C3627 C3629 1.327 . S
C3627 H3650 0.950 . S
C3628 C3627 1.349 . S
C3628 C3640 1.349 . S
C3629 C3627 1.327 . S
C3629 C3645 1.429 . S
C3629 H3651 0.950 . S
C3630 H3626 0.949 . S
C3630 C3638 1.574 . S
C3630 C3646 1.368 . S
H3631 C3639 0.950 . S
H3632 C3637 0.950 . S
H3633 C3638 0.949 . S
H3634 C3640 0.950 . S
H3635 C3641 0.950 . S
H3636 C3642 0.949 . S
C3637 H3632 0.950 . S
C3637 C3639 1.327 . S
C3637 C3643 1.429 . S
C3638 C3630 1.574 . S
C3638 H3633 0.949 . S
C3638 C3644 1.368 . S
C3639 C3623 1.349 . S
C3639 H3631 0.950 . S
C3639 C3637 1.327 . S
C3640 C3628 1.349 . S
C3640 H3634 0.950 . S
C3640 C3641 1.327 . S
C3641 H3635 0.950 . S
C3641 C3640 1.327 . S
C3641 C3645 1.429 . S
C3642 C3625 1.574 . S
C3642 H3636 0.949 . S
C3642 C3646 1.368 . S
C3643 C3624 1.429 . S
C3643 C3637 1.429 . S
C3643 C3644 1.523 . S
C3644 C3625 1.368 . S
C3644 C3638 1.368 . S
C3644 C3643 1.523 . S
C3645 C3629 1.429 . S
C3645 C3641 1.429 . S
C3645 C3646 1.523 . S
C3646 C3630 1.368 . S
C3646 C3642 1.368 . S
C3646 C3645 1.523 . S
H3647 C3622 0.950 . S
H3648 C3624 0.950 . S
H3649 C3625 0.949 . S
H3650 C3627 0.950 . S
H3651 C3629 0.950 . S
C3652 C3653 1.349 . S
C3652 C3654 1.327 . S
C3652 H3677 0.950 . S
C3653 C3652 1.349 . S
C3653 C3669 1.349 . S
C3654 C3652 1.327 . S
C3654 C3673 1.429 . S
C3654 H3678 0.950 . S
C3655 C3672 1.574 . S
C3655 C3674 1.368 . S
C3655 H3679 0.949 . S
H3656 C3660 0.949 . S
C3657 C3658 1.347 . S
C3657 C3659 1.325 . S
C3657 H3680 0.954 1_556 S
C3658 C3657 1.347 . S
C3658 C3670 1.349 . S
C3659 C3657 1.325 . S
C3659 C3675 1.429 . S
C3659 H3681 0.950 . S
C3660 H3656 0.949 . S
C3660 C3668 1.574 . S
C3660 C3676 1.368 . S
H3661 C3669 0.950 . S
H3662 C3667 0.950 . S
H3663 C3668 0.949 . S
H3664 C3670 0.950 . S
H3665 C3671 0.950 . S
H3666 C3672 0.949 . S
C3667 H3662 0.950 . S
C3667 C3669 1.327 . S
C3667 C3673 1.429 . S
C3668 C3660 1.574 . S
C3668 H3663 0.949 . S
C3668 C3674 1.368 . S
C3669 C3653 1.349 . S
C3669 H3661 0.950 . S
C3669 C3667 1.327 . S
C3670 C3658 1.349 . S
C3670 H3664 0.950 . S
C3670 C3671 1.327 . S
C3671 H3665 0.950 . S
C3671 C3670 1.327 . S
C3671 C3675 1.429 . S
C3672 C3655 1.574 . S
C3672 H3666 0.949 . S
C3672 C3676 1.368 . S
C3673 C3654 1.429 . S
C3673 C3667 1.429 . S
C3673 C3674 1.523 . S
C3674 C3655 1.368 . S
C3674 C3668 1.368 . S
C3674 C3673 1.523 . S
C3675 C3659 1.429 . S
C3675 C3671 1.429 . S
C3675 C3676 1.523 . S
C3676 C3660 1.368 . S
C3676 C3672 1.368 . S
C3676 C3675 1.523 . S
H3677 C3652 0.950 . S
H3678 C3654 0.950 . S
H3679 C3655 0.949 . S
H3680 C3657 0.954 1_554 S
H3681 C3659 0.950 . S
C3682 C3683 1.349 . S
C3682 C3684 1.327 . S
C3682 H3707 0.950 . S
C3683 C3682 1.349 . S
C3683 C3699 1.349 . S
C3684 C3682 1.327 . S
C3684 C3703 1.429 . S
C3684 H3708 0.950 . S
C3685 C3702 1.574 . S
C3685 C3704 1.368 . S
C3685 H3709 0.949 . S
H3686 C3690 0.949 . S
C3687 C3688 1.349 . S
C3687 C3689 1.327 . S
C3687 H3710 0.950 . S
C3688 C3687 1.349 . S
C3688 C3700 1.349 . S
C3689 C3687 1.327 . S
C3689 C3705 1.429 . S
C3689 H3711 0.950 . S
C3690 H3686 0.949 . S
C3690 C3698 1.574 . S
C3690 C3706 1.368 . S
H3691 C3699 0.950 . S
H3692 C3697 0.950 . S
H3693 C3698 0.949 . S
H3694 C3700 0.950 . S
H3695 C3701 0.950 . S
H3696 C3702 0.949 . S
C3697 H3692 0.950 . S
C3697 C3699 1.327 . S
C3697 C3703 1.429 . S
C3698 C3690 1.574 . S
C3698 H3693 0.949 . S
C3698 C3704 1.368 . S
C3699 C3683 1.349 . S
C3699 H3691 0.950 . S
C3699 C3697 1.327 . S
C3700 C3688 1.349 . S
C3700 H3694 0.950 . S
C3700 C3701 1.327 . S
C3701 H3695 0.950 . S
C3701 C3700 1.327 . S
C3701 C3705 1.429 . S
C3702 C3685 1.574 . S
C3702 H3696 0.949 . S
C3702 C3706 1.368 . S
C3703 C3684 1.429 . S
C3703 C3697 1.429 . S
C3703 C3704 1.523 . S
C3704 C3685 1.368 . S
C3704 C3698 1.368 . S
C3704 C3703 1.523 . S
C3705 C3689 1.429 . S
C3705 C3701 1.429 . S
C3705 C3706 1.523 . S
C3706 C3690 1.368 . S
C3706 C3702 1.368 . S
C3706 C3705 1.523 . S
H3707 C3682 0.950 . S
H3708 C3684 0.950 . S
H3709 C3685 0.949 . S
H3710 C3687 0.950 . S
H3711 C3689 0.950 . S
C3712 C3713 1.349 . S
C3712 C3714 1.327 . S
C3712 H3737 0.950 . S
C3713 C3712 1.349 . S
C3713 C3729 1.349 . S
C3714 C3712 1.327 . S
C3714 C3733 1.429 . S
C3714 H3738 0.950 . S
C3715 C3732 1.574 . S
C3715 C3734 1.368 . S
C3715 H3739 0.949 . S
H3716 C3720 0.949 . S
C3717 C3718 1.349 . S
C3717 C3719 1.327 . S
C3717 H3740 0.950 . S
C3718 C3717 1.349 . S
C3718 C3730 1.349 . S
C3719 C3717 1.327 . S
C3719 C3735 1.429 . S
C3719 H3741 0.950 . S
C3720 H3716 0.949 . S
C3720 C3728 1.574 . S
C3720 C3736 1.368 . S
H3721 C3729 0.950 . S
H3722 C3727 0.950 . S
H3723 C3728 0.949 . S
H3724 C3730 0.950 . S
H3725 C3731 0.950 . S
H3726 C3732 0.949 . S
C3727 H3722 0.950 . S
C3727 C3729 1.327 . S
C3727 C3733 1.429 . S
C3728 C3720 1.574 . S
C3728 H3723 0.949 . S
C3728 C3734 1.368 . S
C3729 C3713 1.349 . S
C3729 H3721 0.950 . S
C3729 C3727 1.327 . S
C3730 C3718 1.349 . S
C3730 H3724 0.950 . S
C3730 C3731 1.327 . S
C3731 H3725 0.950 . S
C3731 C3730 1.327 . S
C3731 C3735 1.429 . S
C3732 C3715 1.574 . S
C3732 H3726 0.949 . S
C3732 C3736 1.368 . S
C3733 C3714 1.429 . S
C3733 C3727 1.429 . S
C3733 C3734 1.523 . S
C3734 C3715 1.368 . S
C3734 C3728 1.368 . S
C3734 C3733 1.523 . S
C3735 C3719 1.429 . S
C3735 C3731 1.429 . S
C3735 C3736 1.523 . S
C3736 C3720 1.368 . S
C3736 C3732 1.368 . S
C3736 C3735 1.523 . S
H3737 C3712 0.950 . S
H3738 C3714 0.950 . S
H3739 C3715 0.949 . S
H3740 C3717 0.950 . S
H3741 C3719 0.950 . S
C3742 C3743 1.349 . S
C3742 C3744 1.327 . S
C3742 H3767 0.950 . S
C3743 C3742 1.349 . S
C3743 C3759 1.349 . S
C3744 C3742 1.327 . S
C3744 C3763 1.429 . S
C3744 H3768 0.950 . S
C3745 C3762 1.574 . S
C3745 C3764 1.368 . S
C3745 H3769 0.949 . S
H3746 C3750 0.949 . S
C3747 C3748 1.349 . S
C3747 C3749 1.327 . S
C3747 H3770 0.950 . S
C3748 C3747 1.349 . S
C3748 C3760 1.349 . S
C3749 C3747 1.327 . S
C3749 C3765 1.429 . S
C3749 H3771 0.950 . S
C3750 H3746 0.949 . S
C3750 C3758 1.574 . S
C3750 C3766 1.368 . S
H3751 C3759 0.950 . S
H3752 C3757 0.950 . S
H3753 C3758 0.949 . S
H3754 C3760 0.950 . S
H3755 C3761 0.950 . S
H3756 C3762 0.949 . S
C3757 H3752 0.950 . S
C3757 C3759 1.327 . S
C3757 C3763 1.429 . S
C3758 C3750 1.574 . S
C3758 H3753 0.949 . S
C3758 C3764 1.368 . S
C3759 C3743 1.349 . S
C3759 H3751 0.950 . S
C3759 C3757 1.327 . S
C3760 C3748 1.349 . S
C3760 H3754 0.950 . S
C3760 C3761 1.327 . S
C3761 H3755 0.950 . S
C3761 C3760 1.327 . S
C3761 C3765 1.429 . S
C3762 C3745 1.574 . S
C3762 H3756 0.949 . S
C3762 C3766 1.368 . S
C3763 C3744 1.429 . S
C3763 C3757 1.429 . S
C3763 C3764 1.523 . S
C3764 C3745 1.368 . S
C3764 C3758 1.368 . S
C3764 C3763 1.523 . S
C3765 C3749 1.429 . S
C3765 C3761 1.429 . S
C3765 C3766 1.523 . S
C3766 C3750 1.368 . S
C3766 C3762 1.368 . S
C3766 C3765 1.523 . S
H3767 C3742 0.950 . S
H3768 C3744 0.950 . S
H3769 C3745 0.949 . S
H3770 C3747 0.950 . S
H3771 C3749 0.950 . S
C3772 C3773 1.349 . S
C3772 C3774 1.327 . S
C3772 H3797 0.950 . S
C3773 C3772 1.349 . S
C3773 C3789 1.349 . S
C3774 C3772 1.327 . S
C3774 C3793 1.429 . S
C3774 H3798 0.950 . S
C3775 C3792 1.574 . S
C3775 C3794 1.368 . S
C3775 H3799 0.949 . S
H3776 C3780 0.949 . S
C3777 C3778 1.349 . S
C3777 C3779 1.327 . S
C3777 H3800 0.950 . S
C3778 C3777 1.349 . S
C3778 C3790 1.349 . S
C3779 C3777 1.327 . S
C3779 C3795 1.429 . S
C3779 H3801 0.950 . S
C3780 H3776 0.949 . S
C3780 C3788 1.574 . S
C3780 C3796 1.368 . S
H3781 C3789 0.950 1_565 S
H3782 C3787 0.924 1_565 S
H3783 C3788 0.949 . S
H3784 C3790 0.950 . S
H3785 C3791 0.950 . S
H3786 C3792 0.949 . S
C3787 H3782 0.924 1_545 S
C3787 C3789 1.327 . S
C3787 C3793 1.429 . S
C3788 C3780 1.574 . S
C3788 H3783 0.949 . S
C3788 C3794 1.368 . S
C3789 C3773 1.349 . S
C3789 H3781 0.950 1_545 S
C3789 C3787 1.327 . S
C3790 C3778 1.349 . S
C3790 H3784 0.950 . S
C3790 C3791 1.327 . S
C3791 H3785 0.950 . S
C3791 C3790 1.327 . S
C3791 C3795 1.429 . S
C3792 C3775 1.574 . S
C3792 H3786 0.949 . S
C3792 C3796 1.368 . S
C3793 C3774 1.429 . S
C3793 C3787 1.429 . S
C3793 C3794 1.523 . S
C3794 C3775 1.368 . S
C3794 C3788 1.368 . S
C3794 C3793 1.523 . S
C3795 C3779 1.429 . S
C3795 C3791 1.429 . S
C3795 C3796 1.523 . S
C3796 C3780 1.368 . S
C3796 C3792 1.368 . S
C3796 C3795 1.523 . S
H3797 C3772 0.950 . S
H3798 C3774 0.950 . S
H3799 C3775 0.949 . S
H3800 C3777 0.950 . S
H3801 C3779 0.950 . S
C3802 C3803 1.349 . S
C3802 C3804 1.327 . S
C3802 H3827 0.950 . S
C3803 C3802 1.349 . S
C3803 C3819 1.349 . S
C3804 C3802 1.327 . S
C3804 C3823 1.429 . S
C3804 H3828 0.950 . S
C3805 C3822 1.574 . S
C3805 C3824 1.368 . S
C3805 H3829 0.949 . S
H3806 C3810 0.949 . S
C3807 C3808 1.349 . S
C3807 C3809 1.327 . S
C3807 H3830 0.950 . S
C3808 C3807 1.349 . S
C3808 C3820 1.349 . S
C3809 C3807 1.327 . S
C3809 C3825 1.429 . S
C3809 H3831 0.950 . S
C3810 H3806 0.949 . S
C3810 C3818 1.574 . S
C3810 C3826 1.368 . S
H3811 C3819 0.950 . S
H3812 C3817 0.950 . S
H3813 C3818 0.949 . S
H3814 C3820 0.950 . S
H3815 C3821 0.950 . S
H3816 C3822 0.949 . S
C3817 H3812 0.950 . S
C3817 C3819 1.327 . S
C3817 C3823 1.429 . S
C3818 C3810 1.574 . S
C3818 H3813 0.949 . S
C3818 C3824 1.368 . S
C3819 C3803 1.349 . S
C3819 H3811 0.950 . S
C3819 C3817 1.327 . S
C3820 C3808 1.349 . S
C3820 H3814 0.950 . S
C3820 C3821 1.327 . S
C3821 H3815 0.950 . S
C3821 C3820 1.327 . S
C3821 C3825 1.429 . S
C3822 C3805 1.574 . S
C3822 H3816 0.949 . S
C3822 C3826 1.368 . S
C3823 C3804 1.429 . S
C3823 C3817 1.429 . S
C3823 C3824 1.523 . S
C3824 C3805 1.368 . S
C3824 C3818 1.368 . S
C3824 C3823 1.523 . S
C3825 C3809 1.429 . S
C3825 C3821 1.429 . S
C3825 C3826 1.523 . S
C3826 C3810 1.368 . S
C3826 C3822 1.368 . S
C3826 C3825 1.523 . S
H3827 C3802 0.950 . S
H3828 C3804 0.950 . S
H3829 C3805 0.949 . S
H3830 C3807 0.950 . S
H3831 C3809 0.950 . S
C3832 C3833 1.349 . S
C3832 C3834 1.327 . S
C3832 H3857 0.950 . S
C3833 C3832 1.349 . S
C3833 C3849 1.349 . S
C3834 C3832 1.327 . S
C3834 C3853 1.429 . S
C3834 H3858 0.950 . S
C3835 C3852 1.574 . S
C3835 C3854 1.368 . S
C3835 H3859 0.949 1_545 S
H3836 C3840 0.949 . S
C3837 C3838 1.349 . S
C3837 C3839 1.327 . S
C3837 H3860 0.950 . S
C3838 C3837 1.349 . S
C3838 C3850 1.349 . S
C3839 C3837 1.327 . S
C3839 C3855 1.429 . S
C3839 H3861 0.950 . S
C3840 H3836 0.949 . S
C3840 C3848 1.574 . S
C3840 C3856 1.368 . S
H3841 C3849 0.950 1_565 S
H3842 C3847 0.950 1_565 S
H3843 C3848 0.949 . S
H3844 C3850 0.950 . S
H3845 C3851 0.950 . S
H3846 C3852 0.968 . S
C3847 H3842 0.950 1_545 S
C3847 C3849 1.327 . S
C3847 C3853 1.429 . S
C3848 C3840 1.574 . S
C3848 H3843 0.949 . S
C3848 C3854 1.368 . S
C3849 C3833 1.349 . S
C3849 H3841 0.950 1_545 S
C3849 C3847 1.327 . S
C3850 C3838 1.349 . S
C3850 H3844 0.950 . S
C3850 C3851 1.327 . S
C3851 H3845 0.950 . S
C3851 C3850 1.327 . S
C3851 C3855 1.429 . S
C3852 C3835 1.574 . S
C3852 H3846 0.968 . S
C3852 C3856 1.368 . S
C3853 C3834 1.429 . S
C3853 C3847 1.429 . S
C3853 C3854 1.523 . S
C3854 C3835 1.368 . S
C3854 C3848 1.368 . S
C3854 C3853 1.523 . S
C3855 C3839 1.429 . S
C3855 C3851 1.429 . S
C3855 C3856 1.523 . S
C3856 C3840 1.368 . S
C3856 C3852 1.368 . S
C3856 C3855 1.523 . S
H3857 C3832 0.950 . S
H3858 C3834 0.950 . S
H3859 C3835 0.949 1_565 S
H3860 C3837 0.950 . S
H3861 C3839 0.950 . S
C3862 C3863 1.349 . S
C3862 C3864 1.327 . S
C3862 H3887 0.950 . S
C3863 C3862 1.349 . S
C3863 C3879 1.349 . S
C3864 C3862 1.327 . S
C3864 C3883 1.429 . S
C3864 H3888 0.950 . S
C3865 C3882 1.574 . S
C3865 C3884 1.368 . S
C3865 H3889 0.949 . S
H3866 C3870 0.949 . S
C3867 C3868 1.349 . S
C3867 C3869 1.327 . S
C3867 H3890 0.950 . S
C3868 C3867 1.349 . S
C3868 C3880 1.349 . S
C3869 C3867 1.327 . S
C3869 C3885 1.429 . S
C3869 H3891 0.950 . S
C3870 H3866 0.949 . S
C3870 C3878 1.574 . S
C3870 C3886 1.368 . S
H3871 C3879 0.950 . S
H3872 C3877 0.950 . S
H3873 C3878 0.949 . S
H3874 C3880 0.950 . S
H3875 C3881 0.950 . S
H3876 C3882 0.949 . S
C3877 H3872 0.950 . S
C3877 C3879 1.327 . S
C3877 C3883 1.429 . S
C3878 C3870 1.574 . S
C3878 H3873 0.949 . S
C3878 C3884 1.368 . S
C3879 C3863 1.349 . S
C3879 H3871 0.950 . S
C3879 C3877 1.327 . S
C3880 C3868 1.349 . S
C3880 H3874 0.950 . S
C3880 C3881 1.327 . S
C3881 H3875 0.950 . S
C3881 C3880 1.327 . S
C3881 C3885 1.429 . S
C3882 C3865 1.574 . S
C3882 H3876 0.949 . S
C3882 C3886 1.368 . S
C3883 C3864 1.429 . S
C3883 C3877 1.429 . S
C3883 C3884 1.523 . S
C3884 C3865 1.368 . S
C3884 C3878 1.368 . S
C3884 C3883 1.523 . S
C3885 C3869 1.429 . S
C3885 C3881 1.429 . S
C3885 C3886 1.523 . S
C3886 C3870 1.368 . S
C3886 C3882 1.368 . S
C3886 C3885 1.523 . S
H3887 C3862 0.950 . S
H3888 C3864 0.950 . S
H3889 C3865 0.949 . S
H3890 C3867 0.950 . S
H3891 C3869 0.950 . S
C3892 C3893 1.349 . S
C3892 C3894 1.327 . S
C3892 H3917 0.950 . S
C3893 C3892 1.349 . S
C3893 C3909 1.349 1_545 S
C3894 C3892 1.327 . S
C3894 C3913 1.429 . S
C3894 H3918 0.950 . S
C3895 C3912 1.574 . S
C3895 C3914 1.368 1_565 S
C3895 H3919 0.949 . S
H3896 C3900 0.949 . S
C3897 C3898 1.349 . S
C3897 C3899 1.327 . S
C3897 H3920 0.950 . S
C3898 C3897 1.349 . S
C3898 C3910 1.349 1_565 S
C3899 C3897 1.327 . S
C3899 C3915 1.429 . S
C3899 H3921 0.950 . S
C3900 H3896 0.949 . S
C3900 C3908 1.574 . S
C3900 C3916 1.368 1_545 S
H3901 C3909 0.950 . S
H3902 C3907 0.950 . S
H3903 C3908 0.949 . S
H3904 C3910 0.950 . S
H3905 C3911 0.950 . S
H3906 C3912 0.949 . S
C3907 H3902 0.950 . S
C3907 C3909 1.327 . S
C3907 C3913 1.429 1_565 S
C3908 C3900 1.574 . S
C3908 H3903 0.949 . S
C3908 C3914 1.368 . S
C3909 C3893 1.349 1_565 S
C3909 H3901 0.950 . S
C3909 C3907 1.327 . S
C3910 C3898 1.349 1_545 S
C3910 H3904 0.950 . S
C3910 C3911 1.327 . S
C3911 H3905 0.950 . S
C3911 C3910 1.327 . S
C3911 C3915 1.429 1_545 S
C3912 C3895 1.574 . S
C3912 H3906 0.949 . S
C3912 C3916 1.368 . S
C3913 C3894 1.429 . S
C3913 C3907 1.429 1_545 S
C3913 C3914 1.523 . S
C3914 C3895 1.368 1_545 S
C3914 C3908 1.368 . S
C3914 C3913 1.523 . S
C3915 C3899 1.429 . S
C3915 C3911 1.429 1_565 S
C3915 C3916 1.523 . S
C3916 C3900 1.368 1_565 S
C3916 C3912 1.368 . S
C3916 C3915 1.523 . S
H3917 C3892 0.950 . S
H3918 C3894 0.950 . S
H3919 C3895 0.949 . S
H3920 C3897 0.950 . S
H3921 C3899 0.950 . S
C3922 C3923 1.349 . S
C3922 C3924 1.327 . S
C3922 H3947 0.950 . S
C3923 C3922 1.349 . S
C3923 C3939 1.349 . S
C3924 C3922 1.327 . S
C3924 C3943 1.429 . S
C3924 H3948 0.950 . S
C3925 C3942 1.574 . S
C3925 C3944 1.368 . S
C3925 H3949 0.949 . S
H3926 C3930 0.949 . S
C3927 C3928 1.349 . S
C3927 C3929 1.327 . S
C3927 H3950 0.950 . S
C3928 C3927 1.349 . S
C3928 C3940 1.349 . S
C3929 C3927 1.327 . S
C3929 C3945 1.429 . S
C3929 H3951 0.950 . S
C3930 H3926 0.949 . S
C3930 C3938 1.574 . S
C3930 C3946 1.368 . S
H3931 C3939 0.950 . S
H3932 C3937 0.950 . S
H3933 C3938 0.949 . S
H3934 C3940 0.950 . S
H3935 C3941 0.950 . S
H3936 C3942 0.949 . S
C3937 H3932 0.950 . S
C3937 C3939 1.327 . S
C3937 C3943 1.429 . S
C3938 C3930 1.574 . S
C3938 H3933 0.949 . S
C3938 C3944 1.368 . S
C3939 C3923 1.349 . S
C3939 H3931 0.950 . S
C3939 C3937 1.327 . S
C3940 C3928 1.349 . S
C3940 H3934 0.950 . S
C3940 C3941 1.327 . S
C3941 H3935 0.950 . S
C3941 C3940 1.327 . S
C3941 C3945 1.429 . S
C3942 C3925 1.574 . S
C3942 H3936 0.949 . S
C3942 C3946 1.368 . S
C3943 C3924 1.429 . S
C3943 C3937 1.429 . S
C3943 C3944 1.523 . S
C3944 C3925 1.368 . S
C3944 C3938 1.368 . S
C3944 C3943 1.523 . S
C3945 C3929 1.429 . S
C3945 C3941 1.429 . S
C3945 C3946 1.523 . S
C3946 C3930 1.368 . S
C3946 C3942 1.368 . S
C3946 C3945 1.523 . S
H3947 C3922 0.950 . S
H3948 C3924 0.950 . S
H3949 C3925 0.949 . S
H3950 C3927 0.950 . S
H3951 C3929 0.950 . S
C3952 C3953 1.349 . S
C3952 C3954 1.327 . S
C3952 H3977 0.950 . S
C3953 C3952 1.349 . S
C3953 C3969 1.349 . S
C3954 C3952 1.327 . S
C3954 C3973 1.429 . S
C3954 H3978 0.950 . S
C3955 C3972 1.574 . S
C3955 C3974 1.368 . S
C3955 H3979 0.949 . S
H3956 C3960 0.949 . S
C3957 C3958 1.349 1_554 S
C3957 C3959 1.327 . S
C3957 H3980 0.950 . S
C3958 C3957 1.349 1_556 S
C3958 C3970 1.351 1_556 S
C3959 C3957 1.327 . S
C3959 C3975 1.429 . S
C3959 H3981 0.950 . S
C3960 H3956 0.949 . S
C3960 C3968 1.574 . S
C3960 C3976 1.368 . S
H3961 C3969 0.950 . S
H3962 C3967 0.950 . S
H3963 C3968 0.949 . S
H3964 C3970 0.950 . S
H3965 C3971 0.950 . S
H3966 C3972 0.949 . S
C3967 H3962 0.950 . S
C3967 C3969 1.327 . S
C3967 C3973 1.429 . S
C3968 C3960 1.574 . S
C3968 H3963 0.949 . S
C3968 C3974 1.368 . S
C3969 C3953 1.349 . S
C3969 H3961 0.950 . S
C3969 C3967 1.327 . S
C3970 C3958 1.351 1_554 S
C3970 H3964 0.950 . S
C3970 C3971 1.327 . S
C3971 H3965 0.950 . S
C3971 C3970 1.327 . S
C3971 C3975 1.429 . S
C3972 C3955 1.574 . S
C3972 H3966 0.949 . S
C3972 C3976 1.368 . S
C3973 C3954 1.429 . S
C3973 C3967 1.429 . S
C3973 C3974 1.523 . S
C3974 C3955 1.368 . S
C3974 C3968 1.368 . S
C3974 C3973 1.523 . S
C3975 C3959 1.429 . S
C3975 C3971 1.429 . S
C3975 C3976 1.523 . S
C3976 C3960 1.368 . S
C3976 C3972 1.368 . S
C3976 C3975 1.523 . S
H3977 C3952 0.950 . S
H3978 C3954 0.950 . S
H3979 C3955 0.949 . S
H3980 C3957 0.950 . S
H3981 C3959 0.950 . S
C3982 C3983 1.349 . S
C3982 C3984 1.327 . S
C3982 H4007 0.950 . S
C3983 C3982 1.349 . S
C3983 C3999 1.349 . S
C3984 C3982 1.327 . S
C3984 C4003 1.429 . S
C3984 H4008 0.950 . S
C3985 C4002 1.574 . S
C3985 C4004 1.368 . S
C3985 H4009 0.949 . S
H3986 C3990 0.949 . S
C3987 C3988 1.349 . S
C3987 C3989 1.327 . S
C3987 H4010 0.939 1_554 S
C3988 C3987 1.349 . S
C3988 C4000 1.349 . S
C3989 C3987 1.327 . S
C3989 C4005 1.429 . S
C3989 H4011 0.950 . S
C3990 H3986 0.949 . S
C3990 C3998 1.574 . S
C3990 C4006 1.368 . S
H3991 C3999 0.950 . S
H3992 C3997 0.950 . S
H3993 C3998 0.949 . S
H3994 C4000 0.950 . S
H3995 C4001 0.950 . S
H3996 C4002 0.999 . S
C3997 H3992 0.950 . S
C3997 C3999 1.327 . S
C3997 C4003 1.429 . S
C3998 C3990 1.574 . S
C3998 H3993 0.949 . S
C3998 C4004 1.368 . S
C3999 C3983 1.349 . S
C3999 H3991 0.950 . S
C3999 C3997 1.327 . S
C4000 C3988 1.349 . S
C4000 H3994 0.950 . S
C4000 C4001 1.327 . S
C4001 H3995 0.950 . S
C4001 C4000 1.327 . S
C4001 C4005 1.429 . S
C4002 C3985 1.574 . S
C4002 H3996 0.999 . S
C4002 C4006 1.368 . S
C4003 C3984 1.429 . S
C4003 C3997 1.429 . S
C4003 C4004 1.523 . S
C4004 C3985 1.368 . S
C4004 C3998 1.368 . S
C4004 C4003 1.523 . S
C4005 C3989 1.429 . S
C4005 C4001 1.429 . S
C4005 C4006 1.523 . S
C4006 C3990 1.368 . S
C4006 C4002 1.368 . S
C4006 C4005 1.523 . S
H4007 C3982 0.950 . S
H4008 C3984 0.950 . S
H4009 C3985 0.949 . S
H4010 C3987 0.939 1_556 S
H4011 C3989 0.950 . S
C4012 C4013 1.349 . S
C4012 C4014 1.327 . S
C4012 H4037 0.950 . S
C4013 C4012 1.349 . S
C4013 C4029 1.349 . S
C4014 C4012 1.327 . S
C4014 C4033 1.429 . S
C4014 H4038 0.950 . S
C4015 C4032 1.574 . S
C4015 C4034 1.368 . S
C4015 H4039 0.949 . S
H4016 C4020 0.949 . S
C4017 C4018 1.349 . S
C4017 C4019 1.327 . S
C4017 H4040 0.950 . S
C4018 C4017 1.349 . S
C4018 C4030 1.349 . S
C4019 C4017 1.327 . S
C4019 C4035 1.429 . S
C4019 H4041 0.950 . S
C4020 H4016 0.949 . S
C4020 C4028 1.574 . S
C4020 C4036 1.368 . S
H4021 C4029 0.950 . S
H4022 C4027 0.950 . S
H4023 C4028 0.949 . S
H4024 C4030 0.950 . S
H4025 C4031 0.950 . S
H4026 C4032 0.949 . S
C4027 H4022 0.950 . S
C4027 C4029 1.327 . S
C4027 C4033 1.429 . S
C4028 C4020 1.574 . S
C4028 H4023 0.949 . S
C4028 C4034 1.368 . S
C4029 C4013 1.349 . S
C4029 H4021 0.950 . S
C4029 C4027 1.327 . S
C4030 C4018 1.349 . S
C4030 H4024 0.950 . S
C4030 C4031 1.327 . S
C4031 H4025 0.950 . S
C4031 C4030 1.327 . S
C4031 C4035 1.429 . S
C4032 C4015 1.574 . S
C4032 H4026 0.949 . S
C4032 C4036 1.368 . S
C4033 C4014 1.429 . S
C4033 C4027 1.429 . S
C4033 C4034 1.523 . S
C4034 C4015 1.368 . S
C4034 C4028 1.368 . S
C4034 C4033 1.523 . S
C4035 C4019 1.429 . S
C4035 C4031 1.429 . S
C4035 C4036 1.523 . S
C4036 C4020 1.368 . S
C4036 C4032 1.368 . S
C4036 C4035 1.523 . S
H4037 C4012 0.950 . S
H4038 C4014 0.950 . S
H4039 C4015 0.949 . S
H4040 C4017 0.950 . S
H4041 C4019 0.950 . S
C4042 C4043 1.349 . S
C4042 C4044 1.327 . S
C4042 H4067 0.950 . S
C4043 C4042 1.349 . S
C4043 C4059 1.349 . S
C4044 C4042 1.327 . S
C4044 C4063 1.429 . S
C4044 H4068 0.950 . S
C4045 C4062 1.574 . S
C4045 C4064 1.368 . S
C4045 H4069 0.949 . S
H4046 C4050 0.949 . S
C4047 C4048 1.349 . S
C4047 C4049 1.327 . S
C4047 H4070 0.950 . S
C4048 C4047 1.349 . S
C4048 C4060 1.349 . S
C4049 C4047 1.327 . S
C4049 C4065 1.429 . S
C4049 H4071 0.950 . S
C4050 H4046 0.949 . S
C4050 C4058 1.574 . S
C4050 C4066 1.368 . S
H4051 C4059 0.950 . S
H4052 C4057 0.950 . S
H4053 C4058 0.949 . S
H4054 C4060 0.950 . S
H4055 C4061 0.950 . S
H4056 C4062 0.949 . S
C4057 H4052 0.950 . S
C4057 C4059 1.327 . S
C4057 C4063 1.429 . S
C4058 C4050 1.574 . S
C4058 H4053 0.949 . S
C4058 C4064 1.368 . S
C4059 C4043 1.349 . S
C4059 H4051 0.950 . S
C4059 C4057 1.327 . S
C4060 C4048 1.349 . S
C4060 H4054 0.950 . S
C4060 C4061 1.327 . S
C4061 H4055 0.950 . S
C4061 C4060 1.327 . S
C4061 C4065 1.429 . S
C4062 C4045 1.574 . S
C4062 H4056 0.949 . S
C4062 C4066 1.368 . S
C4063 C4044 1.429 . S
C4063 C4057 1.429 . S
C4063 C4064 1.523 . S
C4064 C4045 1.368 . S
C4064 C4058 1.368 . S
C4064 C4063 1.523 . S
C4065 C4049 1.429 . S
C4065 C4061 1.429 . S
C4065 C4066 1.523 . S
C4066 C4050 1.368 . S
C4066 C4062 1.368 . S
C4066 C4065 1.523 . S
H4067 C4042 0.950 . S
H4068 C4044 0.950 . S
H4069 C4045 0.949 . S
H4070 C4047 0.950 . S
H4071 C4049 0.950 . S
C4072 C4073 1.349 . S
C4072 C4074 1.327 . S
C4072 H4097 0.950 . S
C4073 C4072 1.349 . S
C4073 C4089 1.349 . S
C4074 C4072 1.327 . S
C4074 C4093 1.429 . S
C4074 H4098 0.950 . S
C4075 C4092 1.574 . S
C4075 C4094 1.368 . S
C4075 H4099 0.949 . S
H4076 C4080 0.949 . S
C4077 C4078 1.349 . S
C4077 C4079 1.327 . S
C4077 H4100 0.950 . S
C4078 C4077 1.349 . S
C4078 C4090 1.349 . S
C4079 C4077 1.327 . S
C4079 C4095 1.429 . S
C4079 H4101 0.950 . S
C4080 H4076 0.949 . S
C4080 C4088 1.574 . S
C4080 C4096 1.368 . S
H4081 C4089 0.950 . S
H4082 C4087 0.950 . S
H4083 C4088 0.949 . S
H4084 C4090 0.950 . S
H4085 C4091 0.950 . S
H4086 C4092 0.949 . S
C4087 H4082 0.950 . S
C4087 C4089 1.327 . S
C4087 C4093 1.429 . S
C4088 C4080 1.574 . S
C4088 H4083 0.949 . S
C4088 C4094 1.368 . S
C4089 C4073 1.349 . S
C4089 H4081 0.950 . S
C4089 C4087 1.327 . S
C4090 C4078 1.349 . S
C4090 H4084 0.950 . S
C4090 C4091 1.327 . S
C4091 H4085 0.950 . S
C4091 C4090 1.327 . S
C4091 C4095 1.429 . S
C4092 C4075 1.574 . S
C4092 H4086 0.949 . S
C4092 C4096 1.368 . S
C4093 C4074 1.429 . S
C4093 C4087 1.429 . S
C4093 C4094 1.523 . S
C4094 C4075 1.368 . S
C4094 C4088 1.368 . S
C4094 C4093 1.523 . S
C4095 C4079 1.429 . S
C4095 C4091 1.429 . S
C4095 C4096 1.523 . S
C4096 C4080 1.368 . S
C4096 C4092 1.368 . S
C4096 C4095 1.523 . S
H4097 C4072 0.950 . S
H4098 C4074 0.950 . S
H4099 C4075 0.949 . S
H4100 C4077 0.950 . S
H4101 C4079 0.950 . S
C4102 C4103 1.349 . S
C4102 C4104 1.327 . S
C4102 H4127 0.950 . S
C4103 C4102 1.349 . S
C4103 C4119 1.349 . S
C4104 C4102 1.327 . S
C4104 C4123 1.429 . S
C4104 H4128 0.950 . S
C4105 C4122 1.574 . S
C4105 C4124 1.368 . S
C4105 H4129 0.949 . S
H4106 C4110 0.949 . S
C4107 C4108 1.349 . S
C4107 C4109 1.327 . S
C4107 H4130 0.950 . S
C4108 C4107 1.349 . S
C4108 C4120 1.349 . S
C4109 C4107 1.327 . S
C4109 C4125 1.429 . S
C4109 H4131 0.950 . S
C4110 H4106 0.949 . S
C4110 C4118 1.574 . S
C4110 C4126 1.368 . S
H4111 C4119 0.950 . S
H4112 C4117 0.950 . S
H4113 C4118 0.949 . S
H4114 C4120 0.950 . S
H4115 C4121 0.950 . S
H4116 C4122 0.949 . S
C4117 H4112 0.950 . S
C4117 C4119 1.327 . S
C4117 C4123 1.429 . S
C4118 C4110 1.574 . S
C4118 H4113 0.949 . S
C4118 C4124 1.368 . S
C4119 C4103 1.349 . S
C4119 H4111 0.950 . S
C4119 C4117 1.327 . S
C4120 C4108 1.349 . S
C4120 H4114 0.950 . S
C4120 C4121 1.327 . S
C4121 H4115 0.950 . S
C4121 C4120 1.327 . S
C4121 C4125 1.429 . S
C4122 C4105 1.574 . S
C4122 H4116 0.949 . S
C4122 C4126 1.368 . S
C4123 C4104 1.429 . S
C4123 C4117 1.429 . S
C4123 C4124 1.523 . S
C4124 C4105 1.368 . S
C4124 C4118 1.368 . S
C4124 C4123 1.523 . S
C4125 C4109 1.429 . S
C4125 C4121 1.429 . S
C4125 C4126 1.523 . S
C4126 C4110 1.368 . S
C4126 C4122 1.368 . S
C4126 C4125 1.523 . S
H4127 C4102 0.950 . S
H4128 C4104 0.950 . S
H4129 C4105 0.949 . S
H4130 C4107 0.950 . S
H4131 C4109 0.950 . S
C4132 C4133 1.349 . S
C4132 C4134 1.327 . S
C4132 H4157 0.950 . S
C4133 C4132 1.349 . S
C4133 C4149 1.349 . S
C4134 C4132 1.327 . S
C4134 C4153 1.429 . S
C4134 H4158 0.950 . S
C4135 C4152 1.574 . S
C4135 C4154 1.368 . S
C4135 H4159 0.949 . S
H4136 C4140 0.949 . S
C4137 C4138 1.349 . S
C4137 C4139 1.327 . S
C4137 H4160 0.950 . S
C4138 C4137 1.349 . S
C4138 C4150 1.349 . S
C4139 C4137 1.327 . S
C4139 C4155 1.429 . S
C4139 H4161 0.950 . S
C4140 H4136 0.949 . S
C4140 C4148 1.574 . S
C4140 C4156 1.368 . S
H4141 C4149 0.950 . S
H4142 C4147 0.950 . S
H4143 C4148 0.949 . S
H4144 C4150 0.950 . S
H4145 C4151 0.950 . S
H4146 C4152 0.949 . S
C4147 H4142 0.950 . S
C4147 C4149 1.327 . S
C4147 C4153 1.429 . S
C4148 C4140 1.574 . S
C4148 H4143 0.949 . S
C4148 C4154 1.368 . S
C4149 C4133 1.349 . S
C4149 H4141 0.950 . S
C4149 C4147 1.327 . S
C4150 C4138 1.349 . S
C4150 H4144 0.950 . S
C4150 C4151 1.327 . S
C4151 H4145 0.950 . S
C4151 C4150 1.327 . S
C4151 C4155 1.429 . S
C4152 C4135 1.574 . S
C4152 H4146 0.949 . S
C4152 C4156 1.368 . S
C4153 C4134 1.429 . S
C4153 C4147 1.429 . S
C4153 C4154 1.523 . S
C4154 C4135 1.368 . S
C4154 C4148 1.368 . S
C4154 C4153 1.523 . S
C4155 C4139 1.429 . S
C4155 C4151 1.429 . S
C4155 C4156 1.523 . S
C4156 C4140 1.368 . S
C4156 C4152 1.368 . S
C4156 C4155 1.523 . S
H4157 C4132 0.950 . S
H4158 C4134 0.950 . S
H4159 C4135 0.949 . S
H4160 C4137 0.950 . S
H4161 C4139 0.950 . S
C4162 C4163 1.349 . S
C4162 C4164 1.327 . S
C4162 H4187 0.950 . S
C4163 C4162 1.349 . S
C4163 C4179 1.349 . S
C4164 C4162 1.327 . S
C4164 C4183 1.429 . S
C4164 H4188 0.950 . S
C4165 C4182 1.574 . S
C4165 C4184 1.368 . S
C4165 H4189 0.949 . S
H4166 C4170 0.949 . S
C4167 C4168 1.349 . S
C4167 C4169 1.327 . S
C4167 H4190 0.950 . S
C4168 C4167 1.349 . S
C4168 C4180 1.349 . S
C4169 C4167 1.327 . S
C4169 C4185 1.429 . S
C4169 H4191 0.950 . S
C4170 H4166 0.949 . S
C4170 C4178 1.574 . S
C4170 C4186 1.368 . S
H4171 C4179 0.950 . S
H4172 C4177 0.950 . S
H4173 C4178 0.949 . S
H4174 C4180 0.950 . S
H4175 C4181 0.950 . S
H4176 C4182 0.949 . S
C4177 H4172 0.950 . S
C4177 C4179 1.327 . S
C4177 C4183 1.429 . S
C4178 C4170 1.574 . S
C4178 H4173 0.949 . S
C4178 C4184 1.368 . S
C4179 C4163 1.349 . S
C4179 H4171 0.950 . S
C4179 C4177 1.327 . S
C4180 C4168 1.349 . S
C4180 H4174 0.950 . S
C4180 C4181 1.327 . S
C4181 H4175 0.950 . S
C4181 C4180 1.327 . S
C4181 C4185 1.429 . S
C4182 C4165 1.574 . S
C4182 H4176 0.949 . S
C4182 C4186 1.368 . S
C4183 C4164 1.429 . S
C4183 C4177 1.429 . S
C4183 C4184 1.523 . S
C4184 C4165 1.368 . S
C4184 C4178 1.368 . S
C4184 C4183 1.523 . S
C4185 C4169 1.429 . S
C4185 C4181 1.429 . S
C4185 C4186 1.523 . S
C4186 C4170 1.368 . S
C4186 C4182 1.368 . S
C4186 C4185 1.523 . S
H4187 C4162 0.950 . S
H4188 C4164 0.950 . S
H4189 C4165 0.949 . S
H4190 C4167 0.950 . S
H4191 C4169 0.950 . S
C4192 C4193 1.349 . S
C4192 C4194 1.327 . S
C4192 H4217 0.950 . S
C4193 C4192 1.349 . S
C4193 C4209 1.349 . S
C4194 C4192 1.327 . S
C4194 C4213 1.429 . S
C4194 H4218 0.950 . S
C4195 C4212 1.574 . S
C4195 C4214 1.368 . S
C4195 H4219 0.949 . S
H4196 C4200 0.949 . S
C4197 C4198 1.349 . S
C4197 C4199 1.327 . S
C4197 H4220 0.950 . S
C4198 C4197 1.349 . S
C4198 C4210 1.349 . S
C4199 C4197 1.327 . S
C4199 C4215 1.429 . S
C4199 H4221 0.950 . S
C4200 H4196 0.949 . S
C4200 C4208 1.574 . S
C4200 C4216 1.368 . S
H4201 C4209 0.950 . S
H4202 C4207 0.950 . S
H4203 C4208 0.949 . S
H4204 C4210 0.950 . S
H4205 C4211 0.950 . S
H4206 C4212 0.949 . S
C4207 H4202 0.950 . S
C4207 C4209 1.327 . S
C4207 C4213 1.429 . S
C4208 C4200 1.574 . S
C4208 H4203 0.949 . S
C4208 C4214 1.368 . S
C4209 C4193 1.349 . S
C4209 H4201 0.950 . S
C4209 C4207 1.327 . S
C4210 C4198 1.349 . S
C4210 H4204 0.950 . S
C4210 C4211 1.327 . S
C4211 H4205 0.950 . S
C4211 C4210 1.327 . S
C4211 C4215 1.429 . S
C4212 C4195 1.574 . S
C4212 H4206 0.949 . S
C4212 C4216 1.368 . S
C4213 C4194 1.429 . S
C4213 C4207 1.429 . S
C4213 C4214 1.523 . S
C4214 C4195 1.368 . S
C4214 C4208 1.368 . S
C4214 C4213 1.523 . S
C4215 C4199 1.429 . S
C4215 C4211 1.429 . S
C4215 C4216 1.523 . S
C4216 C4200 1.368 . S
C4216 C4212 1.368 . S
C4216 C4215 1.523 . S
H4217 C4192 0.950 . S
H4218 C4194 0.950 . S
H4219 C4195 0.949 . S
H4220 C4197 0.950 . S
H4221 C4199 0.950 . S
C4222 C4223 1.349 . S
C4222 C4224 1.327 . S
C4222 H4247 0.950 . S
C4223 C4222 1.349 . S
C4223 C4239 1.349 . S
C4224 C4222 1.327 . S
C4224 C4243 1.429 . S
C4224 H4248 0.950 . S
C4225 C4242 1.574 . S
C4225 C4244 1.368 . S
C4225 H4249 0.949 . S
H4226 C4230 0.949 . S
C4227 C4228 1.349 . S
C4227 C4229 1.327 . S
C4227 H4250 0.950 . S
C4228 C4227 1.349 . S
C4228 C4240 1.349 . S
C4229 C4227 1.327 . S
C4229 C4245 1.429 . S
C4229 H4251 0.950 . S
C4230 H4226 0.949 . S
C4230 C4238 1.574 . S
C4230 C4246 1.368 . S
H4231 C4239 0.950 . S
H4232 C4237 0.950 . S
H4233 C4238 0.949 . S
H4234 C4240 0.950 . S
H4235 C4241 0.950 . S
H4236 C4242 0.949 . S
C4237 H4232 0.950 . S
C4237 C4239 1.327 . S
C4237 C4243 1.429 . S
C4238 C4230 1.574 . S
C4238 H4233 0.949 . S
C4238 C4244 1.368 . S
C4239 C4223 1.349 . S
C4239 H4231 0.950 . S
C4239 C4237 1.327 . S
C4240 C4228 1.349 . S
C4240 H4234 0.950 . S
C4240 C4241 1.327 . S
C4241 H4235 0.950 . S
C4241 C4240 1.327 . S
C4241 C4245 1.429 . S
C4242 C4225 1.574 . S
C4242 H4236 0.949 . S
C4242 C4246 1.368 . S
C4243 C4224 1.429 . S
C4243 C4237 1.429 . S
C4243 C4244 1.523 . S
C4244 C4225 1.368 . S
C4244 C4238 1.368 . S
C4244 C4243 1.523 . S
C4245 C4229 1.429 . S
C4245 C4241 1.429 . S
C4245 C4246 1.523 . S
C4246 C4230 1.368 . S
C4246 C4242 1.368 . S
C4246 C4245 1.523 . S
H4247 C4222 0.950 . S
H4248 C4224 0.950 . S
H4249 C4225 0.949 . S
H4250 C4227 0.950 . S
H4251 C4229 0.950 . S
C4252 C4253 1.349 . S
C4252 C4254 1.327 . S
C4252 H4277 0.929 1_455 S
C4253 C4252 1.349 . S
C4253 C4269 1.349 1_556 S
C4254 C4252 1.327 . S
C4254 C4273 1.429 . S
C4254 H4278 0.914 1_455 S
C4255 C4272 1.574 . S
C4255 C4274 1.419 . S
C4255 H4279 0.949 . S
H4256 C4260 0.947 . S
C4257 C4258 1.349 . S
C4257 C4259 1.327 . S
C4257 H4280 0.950 . S
C4258 C4257 1.349 . S
C4258 C4270 1.345 1_554 S
C4259 C4257 1.327 . S
C4259 C4275 1.429 . S
C4259 H4281 0.950 . S
C4260 H4256 0.947 . S
C4260 C4268 1.574 . S
C4260 C4276 1.368 1_556 S
H4261 C4269 0.950 . S
H4262 C4267 0.950 . S
H4263 C4268 0.939 1_655 S
H4264 C4270 0.953 . S
H4265 C4271 0.964 . S
H4266 C4272 0.949 . S
C4267 H4262 0.950 . S
C4267 C4269 1.327 . S
C4267 C4273 1.429 1_554 S
C4268 C4260 1.574 . S
C4268 H4263 0.939 1_455 S
C4268 C4274 1.321 1_556 S
C4269 C4253 1.349 1_554 S
C4269 H4261 0.950 . S
C4269 C4267 1.327 . S
C4270 C4258 1.345 1_556 S
C4270 H4264 0.953 . S
C4270 C4271 1.327 . S
C4271 H4265 0.964 . S
C4271 C4270 1.327 . S
C4271 C4275 1.429 1_556 S
C4272 C4255 1.574 . S
C4272 H4266 0.949 . S
C4272 C4276 1.368 . S
C4273 C4254 1.429 . S
C4273 C4267 1.429 1_556 S
C4273 C4274 1.521 1_556 S
C4274 C4255 1.419 . S
C4274 C4268 1.321 1_554 S
C4274 C4273 1.521 1_554 S
C4275 C4259 1.429 . S
C4275 C4271 1.429 1_554 S
C4275 C4276 1.523 . S
C4276 C4260 1.368 1_554 S
C4276 C4272 1.368 . S
C4276 C4275 1.523 . S
H4277 C4252 0.929 1_655 S
H4278 C4254 0.914 1_655 S
H4279 C4255 0.949 . S
H4280 C4257 0.950 . S
H4281 C4259 0.950 . S
C4282 C4283 1.349 . S
C4282 C4284 1.327 . S
C4282 H4307 0.950 . S
C4283 C4282 1.349 . S
C4283 C4299 1.349 . S
C4284 C4282 1.327 . S
C4284 C4303 1.429 . S
C4284 H4308 0.950 . S
C4285 C4302 1.574 . S
C4285 C4304 1.368 . S
C4285 H4309 0.949 . S
H4286 C4290 0.949 . S
C4287 C4288 1.349 . S
C4287 C4289 1.327 . S
C4287 H4310 0.950 . S
C4288 C4287 1.349 . S
C4288 C4300 1.349 . S
C4289 C4287 1.327 . S
C4289 C4305 1.429 . S
C4289 H4311 0.950 . S
C4290 H4286 0.949 . S
C4290 C4298 1.574 . S
C4290 C4306 1.368 . S
H4291 C4299 0.950 . S
H4292 C4297 0.950 . S
H4293 C4298 0.949 . S
H4294 C4300 0.950 . S
H4295 C4301 0.950 . S
H4296 C4302 0.949 . S
C4297 H4292 0.950 . S
C4297 C4299 1.327 . S
C4297 C4303 1.429 . S
C4298 C4290 1.574 . S
C4298 H4293 0.949 . S
C4298 C4304 1.368 . S
C4299 C4283 1.349 . S
C4299 H4291 0.950 . S
C4299 C4297 1.327 . S
C4300 C4288 1.349 . S
C4300 H4294 0.950 . S
C4300 C4301 1.327 . S
C4301 H4295 0.950 . S
C4301 C4300 1.327 . S
C4301 C4305 1.429 . S
C4302 C4285 1.574 . S
C4302 H4296 0.949 . S
C4302 C4306 1.368 . S
C4303 C4284 1.429 . S
C4303 C4297 1.429 . S
C4303 C4304 1.523 . S
C4304 C4285 1.368 . S
C4304 C4298 1.368 . S
C4304 C4303 1.523 . S
C4305 C4289 1.429 . S
C4305 C4301 1.429 . S
C4305 C4306 1.523 . S
C4306 C4290 1.368 . S
C4306 C4302 1.368 . S
C4306 C4305 1.523 . S
H4307 C4282 0.950 . S
H4308 C4284 0.950 . S
H4309 C4285 0.949 . S
H4310 C4287 0.950 . S
H4311 C4289 0.950 . S
C4312 C4313 1.349 . S
C4312 C4314 1.327 . S
C4312 H4337 0.950 . S
C4313 C4312 1.349 . S
C4313 C4329 1.349 . S
C4314 C4312 1.327 . S
C4314 C4333 1.429 . S
C4314 H4338 0.950 . S
C4315 C4332 1.574 . S
C4315 C4334 1.368 . S
C4315 H4339 0.949 . S
H4316 C4320 0.949 . S
C4317 C4318 1.349 . S
C4317 C4319 1.327 . S
C4317 H4340 0.950 . S
C4318 C4317 1.349 . S
C4318 C4330 1.349 . S
C4319 C4317 1.327 . S
C4319 C4335 1.429 . S
C4319 H4341 0.950 . S
C4320 H4316 0.949 . S
C4320 C4328 1.574 . S
C4320 C4336 1.368 . S
H4321 C4329 0.950 . S
H4322 C4327 0.950 . S
H4323 C4328 0.949 . S
H4324 C4330 0.950 . S
H4325 C4331 0.950 . S
H4326 C4332 0.949 . S
C4327 H4322 0.950 . S
C4327 C4329 1.327 . S
C4327 C4333 1.429 . S
C4328 C4320 1.574 . S
C4328 H4323 0.949 . S
C4328 C4334 1.368 . S
C4329 C4313 1.349 . S
C4329 H4321 0.950 . S
C4329 C4327 1.327 . S
C4330 C4318 1.349 . S
C4330 H4324 0.950 . S
C4330 C4331 1.327 . S
C4331 H4325 0.950 . S
C4331 C4330 1.327 . S
C4331 C4335 1.429 . S
C4332 C4315 1.574 . S
C4332 H4326 0.949 . S
C4332 C4336 1.368 . S
C4333 C4314 1.429 . S
C4333 C4327 1.429 . S
C4333 C4334 1.523 . S
C4334 C4315 1.368 . S
C4334 C4328 1.368 . S
C4334 C4333 1.523 . S
C4335 C4319 1.429 . S
C4335 C4331 1.429 . S
C4335 C4336 1.523 . S
C4336 C4320 1.368 . S
C4336 C4332 1.368 . S
C4336 C4335 1.523 . S
H4337 C4312 0.950 . S
H4338 C4314 0.950 . S
H4339 C4315 0.949 . S
H4340 C4317 0.950 . S
H4341 C4319 0.950 . S
C4342 C4343 1.349 . S
C4342 C4344 1.327 . S
C4342 H4367 0.950 . S
C4343 C4342 1.349 . S
C4343 C4359 1.349 . S
C4344 C4342 1.327 . S
C4344 C4363 1.429 . S
C4344 H4368 0.950 . S
C4345 C4362 1.574 . S
C4345 C4364 1.368 . S
C4345 H4369 0.949 . S
H4346 C4350 0.949 . S
C4347 C4348 1.349 . S
C4347 C4349 1.327 . S
C4347 H4370 0.950 . S
C4348 C4347 1.349 . S
C4348 C4360 1.349 . S
C4349 C4347 1.327 . S
C4349 C4365 1.429 . S
C4349 H4371 0.950 . S
C4350 H4346 0.949 . S
C4350 C4358 1.574 . S
C4350 C4366 1.368 . S
H4351 C4359 0.950 . S
H4352 C4357 0.950 . S
H4353 C4358 0.949 . S
H4354 C4360 0.950 . S
H4355 C4361 0.950 . S
H4356 C4362 0.949 . S
C4357 H4352 0.950 . S
C4357 C4359 1.327 . S
C4357 C4363 1.429 . S
C4358 C4350 1.574 . S
C4358 H4353 0.949 . S
C4358 C4364 1.368 . S
C4359 C4343 1.349 . S
C4359 H4351 0.950 . S
C4359 C4357 1.327 . S
C4360 C4348 1.349 . S
C4360 H4354 0.950 . S
C4360 C4361 1.327 . S
C4361 H4355 0.950 . S
C4361 C4360 1.327 . S
C4361 C4365 1.429 . S
C4362 C4345 1.574 . S
C4362 H4356 0.949 . S
C4362 C4366 1.368 . S
C4363 C4344 1.429 . S
C4363 C4357 1.429 . S
C4363 C4364 1.523 . S
C4364 C4345 1.368 . S
C4364 C4358 1.368 . S
C4364 C4363 1.523 . S
C4365 C4349 1.429 . S
C4365 C4361 1.429 . S
C4365 C4366 1.523 . S
C4366 C4350 1.368 . S
C4366 C4362 1.368 . S
C4366 C4365 1.523 . S
H4367 C4342 0.950 . S
H4368 C4344 0.950 . S
H4369 C4345 0.949 . S
H4370 C4347 0.950 . S
H4371 C4349 0.950 . S
C4372 C4373 1.349 1_655 S
C4372 C4374 1.338 . S
C4372 H4397 0.950 . S
C4373 C4372 1.349 1_455 S
C4373 C4389 1.349 . S
C4374 C4372 1.338 . S
C4374 C4393 1.413 1_655 S
C4374 H4398 0.956 . S
C4375 C4392 1.574 . S
C4375 C4394 1.368 . S
C4375 H4399 0.949 . S
H4376 C4380 0.944 1_655 S
C4377 C4378 1.349 . S
C4377 C4379 1.327 . S
C4377 H4400 0.950 . S
C4378 C4377 1.349 . S
C4378 C4390 1.349 . S
C4379 C4377 1.327 . S
C4379 C4395 1.429 . S
C4379 H4401 0.950 . S
C4380 H4376 0.944 1_455 S
C4380 C4388 1.574 . S
C4380 C4396 1.368 . S
H4381 C4389 0.950 . S
H4382 C4387 0.950 . S
H4383 C4388 0.949 1_655 S
H4384 C4390 0.950 . S
H4385 C4391 0.989 . S
H4386 C4392 0.949 . S
C4387 H4382 0.950 . S
C4387 C4389 1.327 . S
C4387 C4393 1.429 . S
C4388 C4380 1.574 . S
C4388 H4383 0.949 1_455 S
C4388 C4394 1.368 . S
C4389 C4373 1.349 . S
C4389 H4381 0.950 . S
C4389 C4387 1.327 . S
C4390 C4378 1.349 . S
C4390 H4384 0.950 . S
C4390 C4391 1.327 . S
C4391 H4385 0.989 . S
C4391 C4390 1.327 . S
C4391 C4395 1.429 . S
C4392 C4375 1.574 . S
C4392 H4386 0.949 . S
C4392 C4396 1.368 . S
C4393 C4374 1.413 1_455 S
C4393 C4387 1.429 . S
C4393 C4394 1.523 . S
C4394 C4375 1.368 . S
C4394 C4388 1.368 . S
C4394 C4393 1.523 . S
C4395 C4379 1.429 . S
C4395 C4391 1.429 . S
C4395 C4396 1.523 . S
C4396 C4380 1.368 . S
C4396 C4392 1.368 . S
C4396 C4395 1.523 . S
H4397 C4372 0.950 . S
H4398 C4374 0.956 . S
H4399 C4375 0.949 . S
H4400 C4377 0.950 . S
H4401 C4379 0.950 . S
C4402 C4403 1.349 . S
C4402 C4404 1.327 . S
C4402 H4427 0.950 . S
C4403 C4402 1.349 . S
C4403 C4419 1.349 . S
C4404 C4402 1.327 . S
C4404 C4423 1.429 . S
C4404 H4428 0.950 . S
C4405 C4422 1.574 . S
C4405 C4424 1.368 . S
C4405 H4429 0.949 . S
H4406 C4410 0.949 . S
C4407 C4408 1.349 . S
C4407 C4409 1.327 . S
C4407 H4430 0.950 . S
C4408 C4407 1.349 . S
C4408 C4420 1.349 . S
C4409 C4407 1.327 . S
C4409 C4425 1.429 . S
C4409 H4431 0.950 . S
C4410 H4406 0.949 . S
C4410 C4418 1.574 . S
C4410 C4426 1.368 . S
H4411 C4419 0.950 . S
H4412 C4417 0.950 . S
H4413 C4418 0.949 . S
H4414 C4420 0.950 . S
H4415 C4421 0.950 . S
H4416 C4422 0.949 . S
C4417 H4412 0.950 . S
C4417 C4419 1.327 . S
C4417 C4423 1.429 . S
C4418 C4410 1.574 . S
C4418 H4413 0.949 . S
C4418 C4424 1.368 . S
C4419 C4403 1.349 . S
C4419 H4411 0.950 . S
C4419 C4417 1.327 . S
C4420 C4408 1.349 . S
C4420 H4414 0.950 . S
C4420 C4421 1.327 . S
C4421 H4415 0.950 . S
C4421 C4420 1.327 . S
C4421 C4425 1.429 . S
C4422 C4405 1.574 . S
C4422 H4416 0.949 . S
C4422 C4426 1.368 . S
C4423 C4404 1.429 . S
C4423 C4417 1.429 . S
C4423 C4424 1.523 . S
C4424 C4405 1.368 . S
C4424 C4418 1.368 . S
C4424 C4423 1.523 . S
C4425 C4409 1.429 . S
C4425 C4421 1.429 . S
C4425 C4426 1.523 . S
C4426 C4410 1.368 . S
C4426 C4422 1.368 . S
C4426 C4425 1.523 . S
H4427 C4402 0.950 . S
H4428 C4404 0.950 . S
H4429 C4405 0.949 . S
H4430 C4407 0.950 . S
H4431 C4409 0.950 . S
C4432 C4433 1.349 . S
C4432 C4434 1.327 . S
C4432 H4457 0.950 . S
C4433 C4432 1.349 . S
C4433 C4449 1.349 . S
C4434 C4432 1.327 . S
C4434 C4453 1.429 . S
C4434 H4458 0.950 . S
C4435 C4452 1.574 . S
C4435 C4454 1.368 . S
C4435 H4459 0.949 . S
H4436 C4440 0.949 . S
C4437 C4438 1.349 . S
C4437 C4439 1.327 . S
C4437 H4460 0.950 . S
C4438 C4437 1.349 . S
C4438 C4450 1.349 . S
C4439 C4437 1.327 . S
C4439 C4455 1.429 . S
C4439 H4461 0.950 . S
C4440 H4436 0.949 . S
C4440 C4448 1.574 . S
C4440 C4456 1.368 . S
H4441 C4449 0.950 . S
H4442 C4447 0.950 . S
H4443 C4448 0.949 . S
H4444 C4450 0.950 . S
H4445 C4451 0.950 . S
H4446 C4452 0.949 . S
C4447 H4442 0.950 . S
C4447 C4449 1.327 . S
C4447 C4453 1.429 . S
C4448 C4440 1.574 . S
C4448 H4443 0.949 . S
C4448 C4454 1.368 . S
C4449 C4433 1.349 . S
C4449 H4441 0.950 . S
C4449 C4447 1.327 . S
C4450 C4438 1.349 . S
C4450 H4444 0.950 . S
C4450 C4451 1.327 . S
C4451 H4445 0.950 . S
C4451 C4450 1.327 . S
C4451 C4455 1.429 . S
C4452 C4435 1.574 . S
C4452 H4446 0.949 . S
C4452 C4456 1.368 . S
C4453 C4434 1.429 . S
C4453 C4447 1.429 . S
C4453 C4454 1.523 . S
C4454 C4435 1.368 . S
C4454 C4448 1.368 . S
C4454 C4453 1.523 . S
C4455 C4439 1.429 . S
C4455 C4451 1.429 . S
C4455 C4456 1.523 . S
C4456 C4440 1.368 . S
C4456 C4452 1.368 . S
C4456 C4455 1.523 . S
H4457 C4432 0.950 . S
H4458 C4434 0.950 . S
H4459 C4435 0.949 . S
H4460 C4437 0.950 . S
H4461 C4439 0.950 . S
C4462 C4463 1.349 . S
C4462 C4464 1.327 . S
C4462 H4487 0.950 . S
C4463 C4462 1.349 . S
C4463 C4479 1.349 . S
C4464 C4462 1.327 . S
C4464 C4483 1.429 . S
C4464 H4488 0.950 . S
C4465 C4482 1.574 . S
C4465 C4484 1.368 . S
C4465 H4489 0.949 . S
H4466 C4470 0.949 . S
C4467 C4468 1.349 . S
C4467 C4469 1.327 . S
C4467 H4490 0.950 . S
C4468 C4467 1.349 . S
C4468 C4480 1.349 . S
C4469 C4467 1.327 . S
C4469 C4485 1.429 . S
C4469 H4491 0.950 . S
C4470 H4466 0.949 . S
C4470 C4478 1.574 . S
C4470 C4486 1.368 . S
H4471 C4479 0.950 . S
H4472 C4477 0.950 . S
H4473 C4478 0.949 . S
H4474 C4480 0.950 . S
H4475 C4481 0.950 . S
H4476 C4482 0.949 . S
C4477 H4472 0.950 . S
C4477 C4479 1.327 . S
C4477 C4483 1.429 . S
C4478 C4470 1.574 . S
C4478 H4473 0.949 . S
C4478 C4484 1.368 . S
C4479 C4463 1.349 . S
C4479 H4471 0.950 . S
C4479 C4477 1.327 . S
C4480 C4468 1.349 . S
C4480 H4474 0.950 . S
C4480 C4481 1.327 . S
C4481 H4475 0.950 . S
C4481 C4480 1.327 . S
C4481 C4485 1.429 . S
C4482 C4465 1.574 . S
C4482 H4476 0.949 . S
C4482 C4486 1.368 . S
C4483 C4464 1.429 . S
C4483 C4477 1.429 . S
C4483 C4484 1.523 . S
C4484 C4465 1.368 . S
C4484 C4478 1.368 . S
C4484 C4483 1.523 . S
C4485 C4469 1.429 . S
C4485 C4481 1.429 . S
C4485 C4486 1.523 . S
C4486 C4470 1.368 . S
C4486 C4482 1.368 . S
C4486 C4485 1.523 . S
H4487 C4462 0.950 . S
H4488 C4464 0.950 . S
H4489 C4465 0.949 . S
H4490 C4467 0.950 . S
H4491 C4469 0.950 . S
C4492 C4493 1.349 . S
C4492 C4494 1.327 . S
C4492 H4517 0.950 . S
C4493 C4492 1.349 . S
C4493 C4509 1.349 . S
C4494 C4492 1.327 . S
C4494 C4513 1.429 . S
C4494 H4518 0.950 . S
C4495 C4512 1.574 . S
C4495 C4514 1.368 . S
C4495 H4519 0.949 . S
H4496 C4500 0.949 . S
C4497 C4498 1.349 . S
C4497 C4499 1.327 . S
C4497 H4520 0.950 . S
C4498 C4497 1.349 . S
C4498 C4510 1.349 . S
C4499 C4497 1.327 . S
C4499 C4515 1.429 . S
C4499 H4521 0.950 . S
C4500 H4496 0.949 . S
C4500 C4508 1.574 . S
C4500 C4516 1.368 . S
H4501 C4509 0.950 . S
H4502 C4507 0.950 . S
H4503 C4508 0.949 . S
H4504 C4510 0.950 . S
H4505 C4511 0.950 . S
H4506 C4512 0.949 . S
C4507 H4502 0.950 . S
C4507 C4509 1.327 . S
C4507 C4513 1.429 . S
C4508 C4500 1.574 . S
C4508 H4503 0.949 . S
C4508 C4514 1.368 . S
C4509 C4493 1.349 . S
C4509 H4501 0.950 . S
C4509 C4507 1.327 . S
C4510 C4498 1.349 . S
C4510 H4504 0.950 . S
C4510 C4511 1.327 . S
C4511 H4505 0.950 . S
C4511 C4510 1.327 . S
C4511 C4515 1.429 . S
C4512 C4495 1.574 . S
C4512 H4506 0.949 . S
C4512 C4516 1.368 . S
C4513 C4494 1.429 . S
C4513 C4507 1.429 . S
C4513 C4514 1.523 . S
C4514 C4495 1.368 . S
C4514 C4508 1.368 . S
C4514 C4513 1.523 . S
C4515 C4499 1.429 . S
C4515 C4511 1.429 . S
C4515 C4516 1.523 . S
C4516 C4500 1.368 . S
C4516 C4512 1.368 . S
C4516 C4515 1.523 . S
H4517 C4492 0.950 . S
H4518 C4494 0.950 . S
H4519 C4495 0.949 . S
H4520 C4497 0.950 . S
H4521 C4499 0.950 . S
C4522 C4523 1.349 . S
C4522 C4524 1.327 . S
C4522 H4547 0.950 . S
C4523 C4522 1.349 . S
C4523 C4539 1.349 . S
C4524 C4522 1.327 . S
C4524 C4543 1.429 . S
C4524 H4548 0.950 . S
C4525 C4542 1.574 . S
C4525 C4544 1.368 . S
C4525 H4549 0.949 . S
H4526 C4530 0.949 . S
C4527 C4528 1.349 . S
C4527 C4529 1.327 . S
C4527 H4550 0.950 . S
C4528 C4527 1.349 . S
C4528 C4540 1.349 . S
C4529 C4527 1.327 . S
C4529 C4545 1.429 . S
C4529 H4551 0.950 . S
C4530 H4526 0.949 . S
C4530 C4538 1.574 . S
C4530 C4546 1.368 . S
H4531 C4539 0.950 . S
H4532 C4537 0.950 . S
H4533 C4538 0.949 . S
H4534 C4540 0.950 . S
H4535 C4541 0.950 . S
H4536 C4542 0.949 . S
C4537 H4532 0.950 . S
C4537 C4539 1.327 . S
C4537 C4543 1.429 . S
C4538 C4530 1.574 . S
C4538 H4533 0.949 . S
C4538 C4544 1.368 . S
C4539 C4523 1.349 . S
C4539 H4531 0.950 . S
C4539 C4537 1.327 . S
C4540 C4528 1.349 . S
C4540 H4534 0.950 . S
C4540 C4541 1.327 . S
C4541 H4535 0.950 . S
C4541 C4540 1.327 . S
C4541 C4545 1.429 . S
C4542 C4525 1.574 . S
C4542 H4536 0.949 . S
C4542 C4546 1.368 . S
C4543 C4524 1.429 . S
C4543 C4537 1.429 . S
C4543 C4544 1.523 . S
C4544 C4525 1.368 . S
C4544 C4538 1.368 . S
C4544 C4543 1.523 . S
C4545 C4529 1.429 . S
C4545 C4541 1.429 . S
C4545 C4546 1.523 . S
C4546 C4530 1.368 . S
C4546 C4542 1.368 . S
C4546 C4545 1.523 . S
H4547 C4522 0.950 . S
H4548 C4524 0.950 . S
H4549 C4525 0.949 . S
H4550 C4527 0.950 . S
H4551 C4529 0.950 . S
C4552 C4553 1.349 . S
C4552 C4554 1.327 . S
C4552 H4577 0.950 . S
C4553 C4552 1.349 . S
C4553 C4569 1.349 . S
C4554 C4552 1.327 . S
C4554 C4573 1.429 . S
C4554 H4578 0.950 . S
C4555 C4572 1.574 . S
C4555 C4574 1.368 . S
C4555 H4579 0.949 . S
H4556 C4560 0.949 . S
C4557 C4558 1.349 . S
C4557 C4559 1.327 . S
C4557 H4580 0.950 . S
C4558 C4557 1.349 . S
C4558 C4570 1.349 . S
C4559 C4557 1.327 . S
C4559 C4575 1.429 . S
C4559 H4581 0.950 . S
C4560 H4556 0.949 . S
C4560 C4568 1.574 . S
C4560 C4576 1.368 . S
H4561 C4569 0.950 . S
H4562 C4567 0.950 . S
H4563 C4568 0.949 . S
H4564 C4570 0.950 . S
H4565 C4571 0.950 . S
H4566 C4572 0.949 . S
C4567 H4562 0.950 . S
C4567 C4569 1.327 . S
C4567 C4573 1.429 . S
C4568 C4560 1.574 . S
C4568 H4563 0.949 . S
C4568 C4574 1.368 . S
C4569 C4553 1.349 . S
C4569 H4561 0.950 . S
C4569 C4567 1.327 . S
C4570 C4558 1.349 . S
C4570 H4564 0.950 . S
C4570 C4571 1.327 . S
C4571 H4565 0.950 . S
C4571 C4570 1.327 . S
C4571 C4575 1.429 . S
C4572 C4555 1.574 . S
C4572 H4566 0.949 . S
C4572 C4576 1.368 . S
C4573 C4554 1.429 . S
C4573 C4567 1.429 . S
C4573 C4574 1.523 . S
C4574 C4555 1.368 . S
C4574 C4568 1.368 . S
C4574 C4573 1.523 . S
C4575 C4559 1.429 . S
C4575 C4571 1.429 . S
C4575 C4576 1.523 . S
C4576 C4560 1.368 . S
C4576 C4572 1.368 . S
C4576 C4575 1.523 . S
H4577 C4552 0.950 . S
H4578 C4554 0.950 . S
H4579 C4555 0.949 . S
H4580 C4557 0.950 . S
H4581 C4559 0.950 . S
C4582 C4583 1.349 . S
C4582 C4584 1.327 . S
C4582 H4607 0.950 . S
C4583 C4582 1.349 . S
C4583 C4599 1.349 . S
C4584 C4582 1.327 . S
C4584 C4603 1.429 . S
C4584 H4608 0.950 . S
C4585 C4602 1.574 . S
C4585 C4604 1.368 . S
C4585 H4609 0.949 . S
H4586 C4590 0.949 . S
C4587 C4588 1.349 . S
C4587 C4589 1.327 . S
C4587 H4610 0.950 . S
C4588 C4587 1.349 . S
C4588 C4600 1.349 . S
C4589 C4587 1.327 . S
C4589 C4605 1.429 . S
C4589 H4611 0.950 . S
C4590 H4586 0.949 . S
C4590 C4598 1.574 . S
C4590 C4606 1.368 . S
H4591 C4599 0.950 . S
H4592 C4597 0.950 . S
H4593 C4598 0.949 . S
H4594 C4600 0.950 . S
H4595 C4601 0.950 . S
H4596 C4602 0.949 . S
C4597 H4592 0.950 . S
C4597 C4599 1.327 . S
C4597 C4603 1.429 . S
C4598 C4590 1.574 . S
C4598 H4593 0.949 . S
C4598 C4604 1.368 . S
C4599 C4583 1.349 . S
C4599 H4591 0.950 . S
C4599 C4597 1.327 . S
C4600 C4588 1.349 . S
C4600 H4594 0.950 . S
C4600 C4601 1.327 . S
C4601 H4595 0.950 . S
C4601 C4600 1.327 . S
C4601 C4605 1.429 . S
C4602 C4585 1.574 . S
C4602 H4596 0.949 . S
C4602 C4606 1.368 . S
C4603 C4584 1.429 . S
C4603 C4597 1.429 . S
C4603 C4604 1.523 . S
C4604 C4585 1.368 . S
C4604 C4598 1.368 . S
C4604 C4603 1.523 . S
C4605 C4589 1.429 . S
C4605 C4601 1.429 . S
C4605 C4606 1.523 . S
C4606 C4590 1.368 . S
C4606 C4602 1.368 . S
C4606 C4605 1.523 . S
H4607 C4582 0.950 . S
H4608 C4584 0.950 . S
H4609 C4585 0.949 . S
H4610 C4587 0.950 . S
H4611 C4589 0.950 . S
C4612 C4613 1.349 . S
C4612 C4614 1.327 . S
C4612 H4637 0.950 . S
C4613 C4612 1.349 . S
C4613 C4629 1.349 . S
C4614 C4612 1.327 . S
C4614 C4633 1.429 . S
C4614 H4638 0.950 . S
C4615 C4632 1.574 . S
C4615 C4634 1.368 . S
C4615 H4639 0.949 . S
H4616 C4620 0.949 . S
C4617 C4618 1.349 . S
C4617 C4619 1.327 . S
C4617 H4640 0.950 . S
C4618 C4617 1.349 . S
C4618 C4630 1.349 . S
C4619 C4617 1.327 . S
C4619 C4635 1.429 . S
C4619 H4641 0.950 . S
C4620 H4616 0.949 . S
C4620 C4628 1.574 . S
C4620 C4636 1.368 . S
H4621 C4629 0.950 . S
H4622 C4627 0.950 . S
H4623 C4628 0.949 . S
H4624 C4630 0.950 . S
H4625 C4631 0.950 . S
H4626 C4632 0.949 . S
C4627 H4622 0.950 . S
C4627 C4629 1.327 . S
C4627 C4633 1.429 . S
C4628 C4620 1.574 . S
C4628 H4623 0.949 . S
C4628 C4634 1.368 . S
C4629 C4613 1.349 . S
C4629 H4621 0.950 . S
C4629 C4627 1.327 . S
C4630 C4618 1.349 . S
C4630 H4624 0.950 . S
C4630 C4631 1.327 . S
C4631 H4625 0.950 . S
C4631 C4630 1.327 . S
C4631 C4635 1.429 . S
C4632 C4615 1.574 . S
C4632 H4626 0.949 . S
C4632 C4636 1.368 . S
C4633 C4614 1.429 . S
C4633 C4627 1.429 . S
C4633 C4634 1.523 . S
C4634 C4615 1.368 . S
C4634 C4628 1.368 . S
C4634 C4633 1.523 . S
C4635 C4619 1.429 . S
C4635 C4631 1.429 . S
C4635 C4636 1.523 . S
C4636 C4620 1.368 . S
C4636 C4632 1.368 . S
C4636 C4635 1.523 . S
H4637 C4612 0.950 . S
H4638 C4614 0.950 . S
H4639 C4615 0.949 . S
H4640 C4617 0.950 . S
H4641 C4619 0.950 . S
C4642 C4643 1.349 . S
C4642 C4644 1.327 . S
C4642 H4667 0.950 . S
C4643 C4642 1.349 . S
C4643 C4659 1.349 . S
C4644 C4642 1.327 . S
C4644 C4663 1.429 . S
C4644 H4668 0.950 . S
C4645 C4662 1.574 . S
C4645 C4664 1.368 . S
C4645 H4669 0.949 . S
H4646 C4650 0.949 . S
C4647 C4648 1.349 . S
C4647 C4649 1.327 . S
C4647 H4670 0.950 . S
C4648 C4647 1.349 . S
C4648 C4660 1.349 . S
C4649 C4647 1.327 . S
C4649 C4665 1.429 . S
C4649 H4671 0.950 . S
C4650 H4646 0.949 . S
C4650 C4658 1.574 . S
C4650 C4666 1.368 . S
H4651 C4659 0.950 . S
H4652 C4657 0.950 . S
H4653 C4658 0.949 . S
H4654 C4660 0.950 . S
H4655 C4661 0.950 . S
H4656 C4662 0.949 . S
C4657 H4652 0.950 . S
C4657 C4659 1.327 . S
C4657 C4663 1.429 . S
C4658 C4650 1.574 . S
C4658 H4653 0.949 . S
C4658 C4664 1.368 . S
C4659 C4643 1.349 . S
C4659 H4651 0.950 . S
C4659 C4657 1.327 . S
C4660 C4648 1.349 . S
C4660 H4654 0.950 . S
C4660 C4661 1.327 . S
C4661 H4655 0.950 . S
C4661 C4660 1.327 . S
C4661 C4665 1.429 . S
C4662 C4645 1.574 . S
C4662 H4656 0.949 . S
C4662 C4666 1.368 . S
C4663 C4644 1.429 . S
C4663 C4657 1.429 . S
C4663 C4664 1.523 . S
C4664 C4645 1.368 . S
C4664 C4658 1.368 . S
C4664 C4663 1.523 . S
C4665 C4649 1.429 . S
C4665 C4661 1.429 . S
C4665 C4666 1.523 . S
C4666 C4650 1.368 . S
C4666 C4662 1.368 . S
C4666 C4665 1.523 . S
H4667 C4642 0.950 . S
H4668 C4644 0.950 . S
H4669 C4645 0.949 . S
H4670 C4647 0.950 . S
H4671 C4649 0.950 . S
C4672 C4673 1.349 . S
C4672 C4674 1.327 . S
C4672 H4697 0.950 . S
C4673 C4672 1.349 . S
C4673 C4689 1.349 . S
C4674 C4672 1.327 . S
C4674 C4693 1.429 . S
C4674 H4698 0.950 . S
C4675 C4692 1.574 . S
C4675 C4694 1.368 . S
C4675 H4699 0.949 . S
H4676 C4680 0.949 . S
C4677 C4678 1.349 . S
C4677 C4679 1.327 . S
C4677 H4700 0.950 . S
C4678 C4677 1.349 . S
C4678 C4690 1.349 . S
C4679 C4677 1.327 . S
C4679 C4695 1.429 . S
C4679 H4701 0.950 . S
C4680 H4676 0.949 . S
C4680 C4688 1.574 . S
C4680 C4696 1.368 . S
H4681 C4689 0.950 . S
H4682 C4687 0.950 . S
H4683 C4688 0.949 . S
H4684 C4690 0.950 . S
H4685 C4691 0.950 . S
H4686 C4692 0.949 . S
C4687 H4682 0.950 . S
C4687 C4689 1.327 . S
C4687 C4693 1.429 . S
C4688 C4680 1.574 . S
C4688 H4683 0.949 . S
C4688 C4694 1.368 . S
C4689 C4673 1.349 . S
C4689 H4681 0.950 . S
C4689 C4687 1.327 . S
C4690 C4678 1.349 . S
C4690 H4684 0.950 . S
C4690 C4691 1.327 . S
C4691 H4685 0.950 . S
C4691 C4690 1.327 . S
C4691 C4695 1.429 . S
C4692 C4675 1.574 . S
C4692 H4686 0.949 . S
C4692 C4696 1.368 . S
C4693 C4674 1.429 . S
C4693 C4687 1.429 . S
C4693 C4694 1.523 . S
C4694 C4675 1.368 . S
C4694 C4688 1.368 . S
C4694 C4693 1.523 . S
C4695 C4679 1.429 . S
C4695 C4691 1.429 . S
C4695 C4696 1.523 . S
C4696 C4680 1.368 . S
C4696 C4692 1.368 . S
C4696 C4695 1.523 . S
H4697 C4672 0.950 . S
H4698 C4674 0.950 . S
H4699 C4675 0.949 . S
H4700 C4677 0.950 . S
H4701 C4679 0.950 . S
C4702 C4703 1.349 . S
C4702 C4704 1.327 . S
C4702 H4727 0.950 . S
C4703 C4702 1.349 . S
C4703 C4719 1.349 . S
C4704 C4702 1.327 . S
C4704 C4723 1.429 . S
C4704 H4728 0.950 . S
C4705 C4722 1.574 . S
C4705 C4724 1.368 . S
C4705 H4729 0.949 . S
H4706 C4710 0.949 . S
C4707 C4708 1.349 . S
C4707 C4709 1.327 . S
C4707 H4730 0.950 . S
C4708 C4707 1.349 . S
C4708 C4720 1.349 . S
C4709 C4707 1.327 . S
C4709 C4725 1.429 . S
C4709 H4731 0.950 . S
C4710 H4706 0.949 . S
C4710 C4718 1.574 . S
C4710 C4726 1.368 . S
H4711 C4719 0.950 . S
H4712 C4717 0.950 . S
H4713 C4718 0.949 . S
H4714 C4720 0.950 . S
H4715 C4721 0.950 . S
H4716 C4722 0.949 . S
C4717 H4712 0.950 . S
C4717 C4719 1.327 . S
C4717 C4723 1.429 . S
C4718 C4710 1.574 . S
C4718 H4713 0.949 . S
C4718 C4724 1.368 . S
C4719 C4703 1.349 . S
C4719 H4711 0.950 . S
C4719 C4717 1.327 . S
C4720 C4708 1.349 . S
C4720 H4714 0.950 . S
C4720 C4721 1.327 . S
C4721 H4715 0.950 . S
C4721 C4720 1.327 . S
C4721 C4725 1.429 . S
C4722 C4705 1.574 . S
C4722 H4716 0.949 . S
C4722 C4726 1.368 . S
C4723 C4704 1.429 . S
C4723 C4717 1.429 . S
C4723 C4724 1.523 . S
C4724 C4705 1.368 . S
C4724 C4718 1.368 . S
C4724 C4723 1.523 . S
C4725 C4709 1.429 . S
C4725 C4721 1.429 . S
C4725 C4726 1.523 . S
C4726 C4710 1.368 . S
C4726 C4722 1.368 . S
C4726 C4725 1.523 . S
H4727 C4702 0.950 . S
H4728 C4704 0.950 . S
H4729 C4705 0.949 . S
H4730 C4707 0.950 . S
H4731 C4709 0.950 . S
C4732 C4733 1.349 . S
C4732 C4734 1.327 . S
C4732 H4757 0.950 . S
C4733 C4732 1.349 . S
C4733 C4749 1.349 . S
C4734 C4732 1.327 . S
C4734 C4753 1.429 . S
C4734 H4758 0.950 . S
C4735 C4752 1.574 . S
C4735 C4754 1.368 . S
C4735 H4759 0.949 . S
H4736 C4740 0.949 . S
C4737 C4738 1.349 . S
C4737 C4739 1.327 . S
C4737 H4760 0.950 . S
C4738 C4737 1.349 . S
C4738 C4750 1.349 . S
C4739 C4737 1.327 . S
C4739 C4755 1.429 . S
C4739 H4761 0.950 . S
C4740 H4736 0.949 . S
C4740 C4748 1.574 . S
C4740 C4756 1.368 . S
H4741 C4749 0.950 . S
H4742 C4747 0.950 . S
H4743 C4748 0.949 . S
H4744 C4750 0.950 . S
H4745 C4751 0.950 . S
H4746 C4752 0.949 . S
C4747 H4742 0.950 . S
C4747 C4749 1.327 . S
C4747 C4753 1.429 . S
C4748 C4740 1.574 . S
C4748 H4743 0.949 . S
C4748 C4754 1.368 . S
C4749 C4733 1.349 . S
C4749 H4741 0.950 . S
C4749 C4747 1.327 . S
C4750 C4738 1.349 . S
C4750 H4744 0.950 . S
C4750 C4751 1.327 . S
C4751 H4745 0.950 . S
C4751 C4750 1.327 . S
C4751 C4755 1.429 . S
C4752 C4735 1.574 . S
C4752 H4746 0.949 . S
C4752 C4756 1.368 . S
C4753 C4734 1.429 . S
C4753 C4747 1.429 . S
C4753 C4754 1.523 . S
C4754 C4735 1.368 . S
C4754 C4748 1.368 . S
C4754 C4753 1.523 . S
C4755 C4739 1.429 . S
C4755 C4751 1.429 . S
C4755 C4756 1.523 . S
C4756 C4740 1.368 . S
C4756 C4752 1.368 . S
C4756 C4755 1.523 . S
H4757 C4732 0.950 . S
H4758 C4734 0.950 . S
H4759 C4735 0.949 . S
H4760 C4737 0.950 . S
H4761 C4739 0.950 . S
C4762 C4763 1.349 1_556 S
C4762 C4764 1.327 . S
C4762 H4787 0.950 . S
C4763 C4762 1.349 1_554 S
C4763 C4779 1.349 . S
C4764 C4762 1.327 . S
C4764 C4783 1.429 1_556 S
C4764 H4788 0.950 . S
C4765 C4782 1.574 . S
C4765 C4784 1.368 . S
C4765 H4789 0.949 . S
H4766 C4770 0.872 1_546 S
C4767 C4768 1.349 . S
C4767 C4769 1.327 1_545 S
C4767 H4790 0.950 . S
C4768 C4767 1.349 . S
C4768 C4780 1.349 . S
C4769 C4767 1.327 1_565 S
C4769 C4785 1.429 . S
C4769 H4791 0.950 . S
C4770 H4766 0.872 1_564 S
C4770 C4778 1.582 1_554 S
C4770 C4786 1.401 . S
H4771 C4779 0.950 . S
H4772 C4777 0.950 . S
H4773 C4778 0.979 . S
H4774 C4780 0.950 1_556 S
H4775 C4781 0.950 1_556 S
H4776 C4782 0.949 . S
C4777 H4772 0.950 . S
C4777 C4779 1.327 . S
C4777 C4783 1.429 . S
C4778 C4770 1.582 1_556 S
C4778 H4773 0.979 . S
C4778 C4784 1.333 1_556 S
C4779 C4763 1.349 . S
C4779 H4771 0.950 . S
C4779 C4777 1.327 . S
C4780 C4768 1.349 . S
C4780 H4774 0.950 1_554 S
C4780 C4781 1.327 . S
C4781 H4775 0.950 1_554 S
C4781 C4780 1.327 . S
C4781 C4785 1.429 1_545 S
C4782 C4765 1.574 . S
C4782 H4776 0.949 . S
C4782 C4786 1.368 . S
C4783 C4764 1.429 1_554 S
C4783 C4777 1.429 . S
C4783 C4784 1.523 . S
C4784 C4765 1.368 . S
C4784 C4778 1.333 1_554 S
C4784 C4783 1.523 . S
C4785 C4769 1.429 . S
C4785 C4781 1.429 1_565 S
C4785 C4786 1.523 . S
C4786 C4770 1.401 . S
C4786 C4782 1.368 . S
C4786 C4785 1.523 . S
H4787 C4762 0.950 . S
H4788 C4764 0.950 . S
H4789 C4765 0.949 . S
H4790 C4767 0.950 . S
H4791 C4769 0.950 . S
C4792 C4793 1.349 . S
C4792 C4794 1.327 . S
C4792 H4817 0.950 . S
C4793 C4792 1.349 . S
C4793 C4809 1.349 . S
C4794 C4792 1.327 . S
C4794 C4813 1.429 . S
C4794 H4818 0.950 . S
C4795 C4812 1.574 . S
C4795 C4814 1.368 . S
C4795 H4819 0.949 . S
H4796 C4800 0.949 . S
C4797 C4798 1.349 . S
C4797 C4799 1.327 . S
C4797 H4820 0.950 . S
C4798 C4797 1.349 . S
C4798 C4810 1.349 . S
C4799 C4797 1.327 . S
C4799 C4815 1.429 . S
C4799 H4821 0.950 . S
C4800 H4796 0.949 . S
C4800 C4808 1.574 . S
C4800 C4816 1.368 . S
H4801 C4809 0.950 . S
H4802 C4807 0.950 . S
H4803 C4808 0.949 . S
H4804 C4810 0.950 . S
H4805 C4811 0.950 . S
H4806 C4812 0.949 . S
C4807 H4802 0.950 . S
C4807 C4809 1.327 . S
C4807 C4813 1.429 . S
C4808 C4800 1.574 . S
C4808 H4803 0.949 . S
C4808 C4814 1.368 . S
C4809 C4793 1.349 . S
C4809 H4801 0.950 . S
C4809 C4807 1.327 . S
C4810 C4798 1.349 . S
C4810 H4804 0.950 . S
C4810 C4811 1.327 . S
C4811 H4805 0.950 . S
C4811 C4810 1.327 . S
C4811 C4815 1.429 . S
C4812 C4795 1.574 . S
C4812 H4806 0.949 . S
C4812 C4816 1.368 . S
C4813 C4794 1.429 . S
C4813 C4807 1.429 . S
C4813 C4814 1.523 . S
C4814 C4795 1.368 . S
C4814 C4808 1.368 . S
C4814 C4813 1.523 . S
C4815 C4799 1.429 . S
C4815 C4811 1.429 . S
C4815 C4816 1.523 . S
C4816 C4800 1.368 . S
C4816 C4812 1.368 . S
C4816 C4815 1.523 . S
H4817 C4792 0.950 . S
H4818 C4794 0.950 . S
H4819 C4795 0.949 . S
H4820 C4797 0.950 . S
H4821 C4799 0.950 . S
C4822 C4823 1.349 . S
C4822 C4824 1.327 . S
C4822 H4847 0.950 . S
C4823 C4822 1.349 . S
C4823 C4839 1.349 . S
C4824 C4822 1.327 . S
C4824 C4843 1.429 . S
C4824 H4848 0.950 . S
C4825 C4842 1.574 . S
C4825 C4844 1.368 . S
C4825 H4849 0.976 . S
H4826 C4830 0.949 . S
C4827 C4828 1.349 . S
C4827 C4829 1.327 . S
C4827 H4850 0.950 . S
C4828 C4827 1.349 . S
C4828 C4840 1.349 . S
C4829 C4827 1.327 . S
C4829 C4845 1.429 . S
C4829 H4851 0.950 . S
C4830 H4826 0.949 . S
C4830 C4838 1.574 . S
C4830 C4846 1.368 . S
H4831 C4839 0.950 1_556 S
H4832 C4837 0.950 1_556 S
H4833 C4838 0.949 . S
H4834 C4840 0.950 . S
H4835 C4841 0.950 . S
H4836 C4842 0.949 . S
C4837 H4832 0.950 1_554 S
C4837 C4839 1.327 . S
C4837 C4843 1.429 . S
C4838 C4830 1.574 . S
C4838 H4833 0.949 . S
C4838 C4844 1.368 . S
C4839 C4823 1.349 . S
C4839 H4831 0.950 1_554 S
C4839 C4837 1.327 . S
C4840 C4828 1.349 . S
C4840 H4834 0.950 . S
C4840 C4841 1.327 . S
C4841 H4835 0.950 . S
C4841 C4840 1.327 . S
C4841 C4845 1.429 . S
C4842 C4825 1.574 . S
C4842 H4836 0.949 . S
C4842 C4846 1.368 . S
C4843 C4824 1.429 . S
C4843 C4837 1.429 . S
C4843 C4844 1.523 . S
C4844 C4825 1.368 . S
C4844 C4838 1.368 . S
C4844 C4843 1.523 . S
C4845 C4829 1.429 . S
C4845 C4841 1.429 . S
C4845 C4846 1.523 . S
C4846 C4830 1.368 . S
C4846 C4842 1.368 . S
C4846 C4845 1.523 . S
H4847 C4822 0.950 . S
H4848 C4824 0.950 . S
H4849 C4825 0.976 . S
H4850 C4827 0.950 . S
H4851 C4829 0.950 . S
C4852 C4853 1.349 . S
C4852 C4854 1.327 . S
C4852 H4877 0.950 . S
C4853 C4852 1.349 . S
C4853 C4869 1.349 . S
C4854 C4852 1.327 . S
C4854 C4873 1.429 . S
C4854 H4878 0.950 . S
C4855 C4872 1.574 . S
C4855 C4874 1.368 . S
C4855 H4879 0.949 . S
H4856 C4860 0.949 . S
C4857 C4858 1.349 . S
C4857 C4859 1.327 . S
C4857 H4880 0.950 . S
C4858 C4857 1.349 . S
C4858 C4870 1.349 . S
C4859 C4857 1.327 . S
C4859 C4875 1.429 . S
C4859 H4881 0.950 . S
C4860 H4856 0.949 . S
C4860 C4868 1.574 . S
C4860 C4876 1.368 . S
H4861 C4869 0.950 . S
H4862 C4867 0.950 . S
H4863 C4868 0.949 . S
H4864 C4870 0.950 . S
H4865 C4871 0.950 . S
H4866 C4872 0.949 . S
C4867 H4862 0.950 . S
C4867 C4869 1.327 . S
C4867 C4873 1.429 . S
C4868 C4860 1.574 . S
C4868 H4863 0.949 . S
C4868 C4874 1.368 . S
C4869 C4853 1.349 . S
C4869 H4861 0.950 . S
C4869 C4867 1.327 . S
C4870 C4858 1.349 . S
C4870 H4864 0.950 . S
C4870 C4871 1.327 . S
C4871 H4865 0.950 . S
C4871 C4870 1.327 . S
C4871 C4875 1.429 . S
C4872 C4855 1.574 . S
C4872 H4866 0.949 . S
C4872 C4876 1.368 . S
C4873 C4854 1.429 . S
C4873 C4867 1.429 . S
C4873 C4874 1.523 . S
C4874 C4855 1.368 . S
C4874 C4868 1.368 . S
C4874 C4873 1.523 . S
C4875 C4859 1.429 . S
C4875 C4871 1.429 . S
C4875 C4876 1.523 . S
C4876 C4860 1.368 . S
C4876 C4872 1.368 . S
C4876 C4875 1.523 . S
H4877 C4852 0.950 . S
H4878 C4854 0.950 . S
H4879 C4855 0.949 . S
H4880 C4857 0.950 . S
H4881 C4859 0.950 . S
C4882 C4883 1.349 . S
C4882 C4884 1.327 . S
C4882 H4907 0.950 . S
C4883 C4882 1.349 . S
C4883 C4899 1.349 . S
C4884 C4882 1.327 . S
C4884 C4903 1.429 . S
C4884 H4908 0.950 . S
C4885 C4902 1.574 . S
C4885 C4904 1.368 . S
C4885 H4909 0.949 . S
H4886 C4890 0.949 . S
C4887 C4888 1.349 . S
C4887 C4889 1.327 . S
C4887 H4910 0.950 . S
C4888 C4887 1.349 . S
C4888 C4900 1.349 . S
C4889 C4887 1.327 . S
C4889 C4905 1.429 . S
C4889 H4911 0.950 . S
C4890 H4886 0.949 . S
C4890 C4898 1.574 . S
C4890 C4906 1.368 . S
H4891 C4899 0.950 . S
H4892 C4897 0.950 . S
H4893 C4898 0.949 . S
H4894 C4900 0.950 . S
H4895 C4901 0.950 . S
H4896 C4902 0.949 . S
C4897 H4892 0.950 . S
C4897 C4899 1.327 . S
C4897 C4903 1.429 . S
C4898 C4890 1.574 . S
C4898 H4893 0.949 . S
C4898 C4904 1.368 . S
C4899 C4883 1.349 . S
C4899 H4891 0.950 . S
C4899 C4897 1.327 . S
C4900 C4888 1.349 . S
C4900 H4894 0.950 . S
C4900 C4901 1.327 . S
C4901 H4895 0.950 . S
C4901 C4900 1.327 . S
C4901 C4905 1.429 . S
C4902 C4885 1.574 . S
C4902 H4896 0.949 . S
C4902 C4906 1.368 . S
C4903 C4884 1.429 . S
C4903 C4897 1.429 . S
C4903 C4904 1.523 . S
C4904 C4885 1.368 . S
C4904 C4898 1.368 . S
C4904 C4903 1.523 . S
C4905 C4889 1.429 . S
C4905 C4901 1.429 . S
C4905 C4906 1.523 . S
C4906 C4890 1.368 . S
C4906 C4902 1.368 . S
C4906 C4905 1.523 . S
H4907 C4882 0.950 . S
H4908 C4884 0.950 . S
H4909 C4885 0.949 . S
H4910 C4887 0.950 . S
H4911 C4889 0.950 . S
C4912 C4913 1.349 . S
C4912 C4914 1.327 . S
C4912 H4937 0.950 . S
C4913 C4912 1.349 . S
C4913 C4929 1.349 . S
C4914 C4912 1.327 . S
C4914 C4933 1.429 . S
C4914 H4938 0.950 . S
C4915 C4932 1.574 . S
C4915 C4934 1.368 . S
C4915 H4939 0.949 . S
H4916 C4920 0.949 . S
C4917 C4918 1.349 . S
C4917 C4919 1.327 . S
C4917 H4940 0.950 . S
C4918 C4917 1.349 . S
C4918 C4930 1.349 . S
C4919 C4917 1.327 . S
C4919 C4935 1.429 . S
C4919 H4941 0.950 . S
C4920 H4916 0.949 . S
C4920 C4928 1.574 . S
C4920 C4936 1.368 . S
H4921 C4929 0.950 . S
H4922 C4927 0.950 . S
H4923 C4928 0.949 . S
H4924 C4930 0.950 . S
H4925 C4931 0.950 . S
H4926 C4932 0.949 . S
C4927 H4922 0.950 . S
C4927 C4929 1.327 . S
C4927 C4933 1.429 . S
C4928 C4920 1.574 . S
C4928 H4923 0.949 . S
C4928 C4934 1.368 . S
C4929 C4913 1.349 . S
C4929 H4921 0.950 . S
C4929 C4927 1.327 . S
C4930 C4918 1.349 . S
C4930 H4924 0.950 . S
C4930 C4931 1.327 . S
C4931 H4925 0.950 . S
C4931 C4930 1.327 . S
C4931 C4935 1.429 . S
C4932 C4915 1.574 . S
C4932 H4926 0.949 . S
C4932 C4936 1.368 . S
C4933 C4914 1.429 . S
C4933 C4927 1.429 . S
C4933 C4934 1.523 . S
C4934 C4915 1.368 . S
C4934 C4928 1.368 . S
C4934 C4933 1.523 . S
C4935 C4919 1.429 . S
C4935 C4931 1.429 . S
C4935 C4936 1.523 . S
C4936 C4920 1.368 . S
C4936 C4932 1.368 . S
C4936 C4935 1.523 . S
H4937 C4912 0.950 . S
H4938 C4914 0.950 . S
H4939 C4915 0.949 . S
H4940 C4917 0.950 . S
H4941 C4919 0.950 . S
C4942 C4943 1.349 . S
C4942 C4944 1.327 . S
C4942 H4967 0.950 . S
C4943 C4942 1.349 . S
C4943 C4959 1.349 . S
C4944 C4942 1.327 . S
C4944 C4963 1.429 . S
C4944 H4968 0.950 . S
C4945 C4962 1.574 . S
C4945 C4964 1.368 . S
C4945 H4969 0.949 . S
H4946 C4950 0.949 . S
C4947 C4948 1.349 . S
C4947 C4949 1.327 . S
C4947 H4970 0.950 . S
C4948 C4947 1.349 . S
C4948 C4960 1.349 . S
C4949 C4947 1.327 . S
C4949 C4965 1.429 . S
C4949 H4971 0.950 . S
C4950 H4946 0.949 . S
C4950 C4958 1.574 . S
C4950 C4966 1.368 . S
H4951 C4959 0.950 . S
H4952 C4957 0.950 . S
H4953 C4958 0.949 . S
H4954 C4960 0.950 . S
H4955 C4961 0.950 . S
H4956 C4962 0.949 . S
C4957 H4952 0.950 . S
C4957 C4959 1.327 . S
C4957 C4963 1.429 . S
C4958 C4950 1.574 . S
C4958 H4953 0.949 . S
C4958 C4964 1.368 . S
C4959 C4943 1.349 . S
C4959 H4951 0.950 . S
C4959 C4957 1.327 . S
C4960 C4948 1.349 . S
C4960 H4954 0.950 . S
C4960 C4961 1.327 . S
C4961 H4955 0.950 . S
C4961 C4960 1.327 . S
C4961 C4965 1.429 . S
C4962 C4945 1.574 . S
C4962 H4956 0.949 . S
C4962 C4966 1.368 . S
C4963 C4944 1.429 . S
C4963 C4957 1.429 . S
C4963 C4964 1.523 . S
C4964 C4945 1.368 . S
C4964 C4958 1.368 . S
C4964 C4963 1.523 . S
C4965 C4949 1.429 . S
C4965 C4961 1.429 . S
C4965 C4966 1.523 . S
C4966 C4950 1.368 . S
C4966 C4962 1.368 . S
C4966 C4965 1.523 . S
H4967 C4942 0.950 . S
H4968 C4944 0.950 . S
H4969 C4945 0.949 . S
H4970 C4947 0.950 . S
H4971 C4949 0.950 . S
C4972 C4973 1.349 . S
C4972 C4974 1.327 . S
C4972 H4997 0.950 . S
C4973 C4972 1.349 . S
C4973 C4989 1.349 . S
C4974 C4972 1.327 . S
C4974 C4993 1.429 . S
C4974 H4998 0.950 . S
C4975 C4992 1.574 . S
C4975 C4994 1.368 . S
C4975 H4999 0.949 . S
H4976 C4980 0.949 . S
C4977 C4978 1.349 . S
C4977 C4979 1.327 . S
C4977 H5000 0.950 . S
C4978 C4977 1.349 . S
C4978 C4990 1.349 . S
C4979 C4977 1.327 . S
C4979 C4995 1.429 . S
C4979 H5001 0.950 . S
C4980 H4976 0.949 . S
C4980 C4988 1.574 . S
C4980 C4996 1.368 . S
H4981 C4989 0.950 . S
H4982 C4987 0.950 . S
H4983 C4988 0.949 . S
H4984 C4990 0.950 . S
H4985 C4991 0.950 . S
H4986 C4992 0.949 . S
C4987 H4982 0.950 . S
C4987 C4989 1.327 . S
C4987 C4993 1.429 . S
C4988 C4980 1.574 . S
C4988 H4983 0.949 . S
C4988 C4994 1.368 . S
C4989 C4973 1.349 . S
C4989 H4981 0.950 . S
C4989 C4987 1.327 . S
C4990 C4978 1.349 . S
C4990 H4984 0.950 . S
C4990 C4991 1.327 . S
C4991 H4985 0.950 . S
C4991 C4990 1.327 . S
C4991 C4995 1.429 . S
C4992 C4975 1.574 . S
C4992 H4986 0.949 . S
C4992 C4996 1.368 . S
C4993 C4974 1.429 . S
C4993 C4987 1.429 . S
C4993 C4994 1.523 . S
C4994 C4975 1.368 . S
C4994 C4988 1.368 . S
C4994 C4993 1.523 . S
C4995 C4979 1.429 . S
C4995 C4991 1.429 . S
C4995 C4996 1.523 . S
C4996 C4980 1.368 . S
C4996 C4992 1.368 . S
C4996 C4995 1.523 . S
H4997 C4972 0.950 . S
H4998 C4974 0.950 . S
H4999 C4975 0.949 . S
H5000 C4977 0.950 . S
H5001 C4979 0.950 . S
C5002 C5003 1.349 . S
C5002 C5004 1.327 . S
C5002 H5027 0.950 . S
C5003 C5002 1.349 . S
C5003 C5019 1.349 . S
C5004 C5002 1.327 . S
C5004 C5023 1.429 . S
C5004 H5028 0.950 . S
C5005 C5022 1.574 . S
C5005 C5024 1.368 . S
C5005 H5029 0.949 . S
H5006 C5010 0.949 . S
C5007 C5008 1.349 . S
C5007 C5009 1.327 . S
C5007 H5030 0.950 . S
C5008 C5007 1.349 . S
C5008 C5020 1.349 . S
C5009 C5007 1.327 . S
C5009 C5025 1.429 . S
C5009 H5031 0.950 . S
C5010 H5006 0.949 . S
C5010 C5018 1.574 . S
C5010 C5026 1.368 . S
H5011 C5019 0.950 . S
H5012 C5017 0.950 . S
H5013 C5018 0.949 . S
H5014 C5020 0.950 . S
H5015 C5021 0.950 . S
H5016 C5022 0.949 . S
C5017 H5012 0.950 . S
C5017 C5019 1.327 . S
C5017 C5023 1.429 . S
C5018 C5010 1.574 . S
C5018 H5013 0.949 . S
C5018 C5024 1.368 . S
C5019 C5003 1.349 . S
C5019 H5011 0.950 . S
C5019 C5017 1.327 . S
C5020 C5008 1.349 . S
C5020 H5014 0.950 . S
C5020 C5021 1.327 . S
C5021 H5015 0.950 . S
C5021 C5020 1.327 . S
C5021 C5025 1.429 . S
C5022 C5005 1.574 . S
C5022 H5016 0.949 . S
C5022 C5026 1.368 . S
C5023 C5004 1.429 . S
C5023 C5017 1.429 . S
C5023 C5024 1.523 . S
C5024 C5005 1.368 . S
C5024 C5018 1.368 . S
C5024 C5023 1.523 . S
C5025 C5009 1.429 . S
C5025 C5021 1.429 . S
C5025 C5026 1.523 . S
C5026 C5010 1.368 . S
C5026 C5022 1.368 . S
C5026 C5025 1.523 . S
H5027 C5002 0.950 . S
H5028 C5004 0.950 . S
H5029 C5005 0.949 . S
H5030 C5007 0.950 . S
H5031 C5009 0.950 . S
C5032 C5033 1.349 . S
C5032 C5034 1.327 . S
C5032 H5057 0.950 . S
C5033 C5032 1.349 . S
C5033 C5049 1.349 . S
C5034 C5032 1.327 . S
C5034 C5053 1.429 . S
C5034 H5058 0.950 . S
C5035 C5052 1.574 . S
C5035 C5054 1.368 . S
C5035 H5059 0.949 . S
H5036 C5040 0.949 . S
C5037 C5038 1.349 . S
C5037 C5039 1.327 . S
C5037 H5060 0.950 . S
C5038 C5037 1.349 . S
C5038 C5050 1.349 . S
C5039 C5037 1.327 . S
C5039 C5055 1.429 . S
C5039 H5061 0.950 . S
C5040 H5036 0.949 . S
C5040 C5048 1.574 . S
C5040 C5056 1.368 . S
H5041 C5049 0.950 . S
H5042 C5047 0.950 . S
H5043 C5048 0.949 . S
H5044 C5050 0.950 . S
H5045 C5051 0.950 . S
H5046 C5052 0.949 . S
C5047 H5042 0.950 . S
C5047 C5049 1.327 . S
C5047 C5053 1.429 . S
C5048 C5040 1.574 . S
C5048 H5043 0.949 . S
C5048 C5054 1.368 . S
C5049 C5033 1.349 . S
C5049 H5041 0.950 . S
C5049 C5047 1.327 . S
C5050 C5038 1.349 . S
C5050 H5044 0.950 . S
C5050 C5051 1.327 . S
C5051 H5045 0.950 . S
C5051 C5050 1.327 . S
C5051 C5055 1.429 . S
C5052 C5035 1.574 . S
C5052 H5046 0.949 . S
C5052 C5056 1.368 . S
C5053 C5034 1.429 . S
C5053 C5047 1.429 . S
C5053 C5054 1.523 . S
C5054 C5035 1.368 . S
C5054 C5048 1.368 . S
C5054 C5053 1.523 . S
C5055 C5039 1.429 . S
C5055 C5051 1.429 . S
C5055 C5056 1.523 . S
C5056 C5040 1.368 . S
C5056 C5052 1.368 . S
C5056 C5055 1.523 . S
H5057 C5032 0.950 . S
H5058 C5034 0.950 . S
H5059 C5035 0.949 . S
H5060 C5037 0.950 . S
H5061 C5039 0.950 . S
C5062 C5063 1.349 . S
C5062 C5064 1.327 . S
C5062 H5087 0.950 . S
C5063 C5062 1.349 . S
C5063 C5079 1.349 . S
C5064 C5062 1.327 . S
C5064 C5083 1.429 . S
C5064 H5088 0.950 . S
C5065 C5082 1.574 . S
C5065 C5084 1.368 . S
C5065 H5089 0.949 . S
H5066 C5070 0.949 . S
C5067 C5068 1.349 . S
C5067 C5069 1.327 . S
C5067 H5090 0.950 . S
C5068 C5067 1.349 . S
C5068 C5080 1.349 . S
C5069 C5067 1.327 . S
C5069 C5085 1.429 . S
C5069 H5091 0.950 . S
C5070 H5066 0.949 . S
C5070 C5078 1.574 . S
C5070 C5086 1.368 . S
H5071 C5079 0.950 . S
H5072 C5077 0.950 . S
H5073 C5078 0.949 . S
H5074 C5080 0.950 . S
H5075 C5081 0.950 . S
H5076 C5082 0.949 . S
C5077 H5072 0.950 . S
C5077 C5079 1.327 . S
C5077 C5083 1.429 . S
C5078 C5070 1.574 . S
C5078 H5073 0.949 . S
C5078 C5084 1.368 . S
C5079 C5063 1.349 . S
C5079 H5071 0.950 . S
C5079 C5077 1.327 . S
C5080 C5068 1.349 . S
C5080 H5074 0.950 . S
C5080 C5081 1.327 . S
C5081 H5075 0.950 . S
C5081 C5080 1.327 . S
C5081 C5085 1.429 . S
C5082 C5065 1.574 . S
C5082 H5076 0.949 . S
C5082 C5086 1.368 . S
C5083 C5064 1.429 . S
C5083 C5077 1.429 . S
C5083 C5084 1.523 . S
C5084 C5065 1.368 . S
C5084 C5078 1.368 . S
C5084 C5083 1.523 . S
C5085 C5069 1.429 . S
C5085 C5081 1.429 . S
C5085 C5086 1.523 . S
C5086 C5070 1.368 . S
C5086 C5082 1.368 . S
C5086 C5085 1.523 . S
H5087 C5062 0.950 . S
H5088 C5064 0.950 . S
H5089 C5065 0.949 . S
H5090 C5067 0.950 . S
H5091 C5069 0.950 . S
C5092 C5093 1.349 . S
C5092 C5094 1.327 . S
C5092 H5117 0.950 . S
C5093 C5092 1.349 . S
C5093 C5109 1.349 . S
C5094 C5092 1.327 . S
C5094 C5113 1.429 . S
C5094 H5118 0.950 . S
C5095 C5112 1.574 . S
C5095 C5114 1.368 . S
C5095 H5119 0.949 . S
H5096 C5100 0.949 . S
C5097 C5098 1.349 . S
C5097 C5099 1.327 . S
C5097 H5120 0.950 . S
C5098 C5097 1.349 . S
C5098 C5110 1.349 . S
C5099 C5097 1.327 . S
C5099 C5115 1.429 . S
C5099 H5121 0.950 . S
C5100 H5096 0.949 . S
C5100 C5108 1.574 . S
C5100 C5116 1.368 . S
H5101 C5109 0.950 . S
H5102 C5107 0.950 . S
H5103 C5108 0.949 . S
H5104 C5110 0.950 . S
H5105 C5111 0.950 . S
H5106 C5112 0.949 . S
C5107 H5102 0.950 . S
C5107 C5109 1.327 . S
C5107 C5113 1.429 . S
C5108 C5100 1.574 . S
C5108 H5103 0.949 . S
C5108 C5114 1.368 . S
C5109 C5093 1.349 . S
C5109 H5101 0.950 . S
C5109 C5107 1.327 . S
C5110 C5098 1.349 . S
C5110 H5104 0.950 . S
C5110 C5111 1.327 . S
C5111 H5105 0.950 . S
C5111 C5110 1.327 . S
C5111 C5115 1.429 . S
C5112 C5095 1.574 . S
C5112 H5106 0.949 . S
C5112 C5116 1.368 . S
C5113 C5094 1.429 . S
C5113 C5107 1.429 . S
C5113 C5114 1.523 . S
C5114 C5095 1.368 . S
C5114 C5108 1.368 . S
C5114 C5113 1.523 . S
C5115 C5099 1.429 . S
C5115 C5111 1.429 . S
C5115 C5116 1.523 . S
C5116 C5100 1.368 . S
C5116 C5112 1.368 . S
C5116 C5115 1.523 . S
H5117 C5092 0.950 . S
H5118 C5094 0.950 . S
H5119 C5095 0.949 . S
H5120 C5097 0.950 . S
H5121 C5099 0.950 . S
C5122 C5123 1.349 . S
C5122 C5124 1.327 . S
C5122 H5147 0.950 . S
C5123 C5122 1.349 . S
C5123 C5139 1.349 . S
C5124 C5122 1.327 . S
C5124 C5143 1.429 . S
C5124 H5148 0.950 . S
C5125 C5142 1.574 . S
C5125 C5144 1.368 . S
C5125 H5149 0.949 . S
H5126 C5130 0.949 . S
C5127 C5128 1.349 . S
C5127 C5129 1.327 . S
C5127 H5150 0.950 . S
C5128 C5127 1.349 . S
C5128 C5140 1.349 . S
C5129 C5127 1.327 . S
C5129 C5145 1.429 . S
C5129 H5151 0.950 . S
C5130 H5126 0.949 . S
C5130 C5138 1.574 . S
C5130 C5146 1.368 . S
H5131 C5139 0.950 . S
H5132 C5137 0.950 . S
H5133 C5138 0.949 . S
H5134 C5140 0.950 . S
H5135 C5141 0.950 . S
H5136 C5142 0.949 . S
C5137 H5132 0.950 . S
C5137 C5139 1.327 . S
C5137 C5143 1.429 . S
C5138 C5130 1.574 . S
C5138 H5133 0.949 . S
C5138 C5144 1.368 . S
C5139 C5123 1.349 . S
C5139 H5131 0.950 . S
C5139 C5137 1.327 . S
C5140 C5128 1.349 . S
C5140 H5134 0.950 . S
C5140 C5141 1.327 . S
C5141 H5135 0.950 . S
C5141 C5140 1.327 . S
C5141 C5145 1.429 . S
C5142 C5125 1.574 . S
C5142 H5136 0.949 . S
C5142 C5146 1.368 . S
C5143 C5124 1.429 . S
C5143 C5137 1.429 . S
C5143 C5144 1.523 . S
C5144 C5125 1.368 . S
C5144 C5138 1.368 . S
C5144 C5143 1.523 . S
C5145 C5129 1.429 . S
C5145 C5141 1.429 . S
C5145 C5146 1.523 . S
C5146 C5130 1.368 . S
C5146 C5142 1.368 . S
C5146 C5145 1.523 . S
H5147 C5122 0.950 . S
H5148 C5124 0.950 . S
H5149 C5125 0.949 . S
H5150 C5127 0.950 . S
H5151 C5129 0.950 . S
C5152 C5153 1.349 . S
C5152 C5154 1.327 . S
C5152 H5177 0.950 . S
C5153 C5152 1.349 . S
C5153 C5169 1.349 . S
C5154 C5152 1.327 . S
C5154 C5173 1.429 . S
C5154 H5178 0.950 . S
C5155 C5172 1.574 . S
C5155 C5174 1.368 . S
C5155 H5179 0.949 . S
H5156 C5160 0.949 . S
C5157 C5158 1.349 . S
C5157 C5159 1.327 . S
C5157 H5180 0.950 . S
C5158 C5157 1.349 . S
C5158 C5170 1.349 . S
C5159 C5157 1.327 . S
C5159 C5175 1.429 . S
C5159 H5181 0.950 . S
C5160 H5156 0.949 . S
C5160 C5168 1.574 . S
C5160 C5176 1.368 . S
H5161 C5169 0.950 . S
H5162 C5167 0.950 . S
H5163 C5168 0.949 . S
H5164 C5170 0.950 . S
H5165 C5171 0.950 . S
H5166 C5172 0.949 . S
C5167 H5162 0.950 . S
C5167 C5169 1.327 . S
C5167 C5173 1.429 . S
C5168 C5160 1.574 . S
C5168 H5163 0.949 . S
C5168 C5174 1.368 . S
C5169 C5153 1.349 . S
C5169 H5161 0.950 . S
C5169 C5167 1.327 . S
C5170 C5158 1.349 . S
C5170 H5164 0.950 . S
C5170 C5171 1.327 . S
C5171 H5165 0.950 . S
C5171 C5170 1.327 . S
C5171 C5175 1.429 . S
C5172 C5155 1.574 . S
C5172 H5166 0.949 . S
C5172 C5176 1.368 . S
C5173 C5154 1.429 . S
C5173 C5167 1.429 . S
C5173 C5174 1.523 . S
C5174 C5155 1.368 . S
C5174 C5168 1.368 . S
C5174 C5173 1.523 . S
C5175 C5159 1.429 . S
C5175 C5171 1.429 . S
C5175 C5176 1.523 . S
C5176 C5160 1.368 . S
C5176 C5172 1.368 . S
C5176 C5175 1.523 . S
H5177 C5152 0.950 . S
H5178 C5154 0.950 . S
H5179 C5155 0.949 . S
H5180 C5157 0.950 . S
H5181 C5159 0.950 . S
C5182 C5183 1.349 . S
C5182 C5184 1.327 . S
C5182 H5207 0.950 . S
C5183 C5182 1.349 . S
C5183 C5199 1.349 . S
C5184 C5182 1.327 . S
C5184 C5203 1.429 . S
C5184 H5208 0.950 . S
C5185 C5202 1.574 . S
C5185 C5204 1.368 . S
C5185 H5209 0.949 . S
H5186 C5190 0.949 . S
C5187 C5188 1.349 . S
C5187 C5189 1.327 . S
C5187 H5210 0.950 . S
C5188 C5187 1.349 . S
C5188 C5200 1.349 . S
C5189 C5187 1.327 . S
C5189 C5205 1.429 . S
C5189 H5211 0.950 . S
C5190 H5186 0.949 . S
C5190 C5198 1.574 . S
C5190 C5206 1.368 . S
H5191 C5199 0.950 . S
H5192 C5197 0.950 . S
H5193 C5198 0.949 . S
H5194 C5200 0.950 . S
H5195 C5201 0.950 . S
H5196 C5202 0.949 . S
C5197 H5192 0.950 . S
C5197 C5199 1.327 . S
C5197 C5203 1.429 . S
C5198 C5190 1.574 . S
C5198 H5193 0.949 . S
C5198 C5204 1.368 . S
C5199 C5183 1.349 . S
C5199 H5191 0.950 . S
C5199 C5197 1.327 . S
C5200 C5188 1.349 . S
C5200 H5194 0.950 . S
C5200 C5201 1.327 . S
C5201 H5195 0.950 . S
C5201 C5200 1.327 . S
C5201 C5205 1.429 . S
C5202 C5185 1.574 . S
C5202 H5196 0.949 . S
C5202 C5206 1.368 . S
C5203 C5184 1.429 . S
C5203 C5197 1.429 . S
C5203 C5204 1.523 . S
C5204 C5185 1.368 . S
C5204 C5198 1.368 . S
C5204 C5203 1.523 . S
C5205 C5189 1.429 . S
C5205 C5201 1.429 . S
C5205 C5206 1.523 . S
C5206 C5190 1.368 . S
C5206 C5202 1.368 . S
C5206 C5205 1.523 . S
H5207 C5182 0.950 . S
H5208 C5184 0.950 . S
H5209 C5185 0.949 . S
H5210 C5187 0.950 . S
H5211 C5189 0.950 . S
C5212 C5213 1.349 . S
C5212 C5214 1.327 . S
C5212 H5237 0.950 . S
C5213 C5212 1.349 . S
C5213 C5229 1.349 . S
C5214 C5212 1.327 . S
C5214 C5233 1.429 . S
C5214 H5238 0.950 . S
C5215 C5232 1.574 . S
C5215 C5234 1.368 . S
C5215 H5239 0.949 . S
H5216 C5220 0.949 . S
C5217 C5218 1.349 1_655 S
C5217 C5219 1.327 . S
C5217 H5240 0.950 . S
C5218 C5217 1.349 1_455 S
C5218 C5230 1.349 . S
C5219 C5217 1.327 . S
C5219 C5235 1.429 . S
C5219 H5241 0.950 . S
C5220 H5216 0.949 . S
C5220 C5228 1.574 . S
C5220 C5236 1.368 . S
H5221 C5229 0.950 . S
H5222 C5227 0.950 . S
H5223 C5228 0.949 . S
H5224 C5230 0.950 . S
H5225 C5231 0.950 . S
H5226 C5232 0.949 . S
C5227 H5222 0.950 . S
C5227 C5229 1.327 . S
C5227 C5233 1.429 . S
C5228 C5220 1.574 . S
C5228 H5223 0.949 . S
C5228 C5234 1.368 . S
C5229 C5213 1.349 . S
C5229 H5221 0.950 . S
C5229 C5227 1.327 . S
C5230 C5218 1.349 . S
C5230 H5224 0.950 . S
C5230 C5231 1.327 1_455 S
C5231 H5225 0.950 . S
C5231 C5230 1.327 1_655 S
C5231 C5235 1.429 . S
C5232 C5215 1.574 . S
C5232 H5226 0.949 . S
C5232 C5236 1.368 . S
C5233 C5214 1.429 . S
C5233 C5227 1.429 . S
C5233 C5234 1.523 . S
C5234 C5215 1.368 . S
C5234 C5228 1.368 . S
C5234 C5233 1.523 . S
C5235 C5219 1.429 . S
C5235 C5231 1.429 . S
C5235 C5236 1.523 . S
C5236 C5220 1.368 . S
C5236 C5232 1.368 . S
C5236 C5235 1.523 . S
H5237 C5212 0.950 . S
H5238 C5214 0.950 . S
H5239 C5215 0.949 . S
H5240 C5217 0.950 . S
H5241 C5219 0.950 . S
C5242 C5243 1.349 . S
C5242 C5244 1.327 . S
C5242 H5267 0.950 . S
C5243 C5242 1.349 . S
C5243 C5259 1.349 . S
C5244 C5242 1.327 . S
C5244 C5263 1.429 . S
C5244 H5268 0.950 . S
C5245 C5262 1.574 . S
C5245 C5264 1.368 . S
C5245 H5269 0.949 . S
H5246 C5250 0.949 . S
C5247 C5248 1.349 . S
C5247 C5249 1.327 . S
C5247 H5270 0.950 . S
C5248 C5247 1.349 . S
C5248 C5260 1.349 . S
C5249 C5247 1.327 . S
C5249 C5265 1.429 . S
C5249 H5271 0.950 . S
C5250 H5246 0.949 . S
C5250 C5258 1.574 . S
C5250 C5266 1.368 . S
H5251 C5259 0.950 . S
H5252 C5257 0.950 . S
H5253 C5258 0.949 . S
H5254 C5260 0.950 . S
H5255 C5261 0.950 . S
H5256 C5262 0.949 . S
C5257 H5252 0.950 . S
C5257 C5259 1.327 . S
C5257 C5263 1.429 . S
C5258 C5250 1.574 . S
C5258 H5253 0.949 . S
C5258 C5264 1.368 . S
C5259 C5243 1.349 . S
C5259 H5251 0.950 . S
C5259 C5257 1.327 . S
C5260 C5248 1.349 . S
C5260 H5254 0.950 . S
C5260 C5261 1.327 . S
C5261 H5255 0.950 . S
C5261 C5260 1.327 . S
C5261 C5265 1.429 . S
C5262 C5245 1.574 . S
C5262 H5256 0.949 . S
C5262 C5266 1.368 . S
C5263 C5244 1.429 . S
C5263 C5257 1.429 . S
C5263 C5264 1.523 . S
C5264 C5245 1.368 . S
C5264 C5258 1.368 . S
C5264 C5263 1.523 . S
C5265 C5249 1.429 . S
C5265 C5261 1.429 . S
C5265 C5266 1.523 . S
C5266 C5250 1.368 . S
C5266 C5262 1.368 . S
C5266 C5265 1.523 . S
H5267 C5242 0.950 . S
H5268 C5244 0.950 . S
H5269 C5245 0.949 . S
H5270 C5247 0.950 . S
H5271 C5249 0.950 . S
C5272 C5273 1.349 . S
C5272 C5274 1.327 . S
C5272 H5297 0.950 . S
C5273 C5272 1.349 . S
C5273 C5289 1.349 . S
C5274 C5272 1.327 . S
C5274 C5293 1.429 . S
C5274 H5298 0.950 . S
C5275 C5292 1.574 . S
C5275 C5294 1.368 . S
C5275 H5299 0.949 . S
H5276 C5280 0.949 . S
C5277 C5278 1.349 . S
C5277 C5279 1.327 . S
C5277 H5300 0.950 . S
C5278 C5277 1.349 . S
C5278 C5290 1.349 . S
C5279 C5277 1.327 . S
C5279 C5295 1.429 . S
C5279 H5301 0.950 . S
C5280 H5276 0.949 . S
C5280 C5288 1.574 . S
C5280 C5296 1.368 . S
H5281 C5289 0.950 . S
H5282 C5287 0.950 . S
H5283 C5288 0.949 . S
H5284 C5290 0.950 . S
H5285 C5291 0.950 . S
H5286 C5292 0.949 . S
C5287 H5282 0.950 . S
C5287 C5289 1.327 . S
C5287 C5293 1.429 . S
C5288 C5280 1.574 . S
C5288 H5283 0.949 . S
C5288 C5294 1.368 . S
C5289 C5273 1.349 . S
C5289 H5281 0.950 . S
C5289 C5287 1.327 . S
C5290 C5278 1.349 . S
C5290 H5284 0.950 . S
C5290 C5291 1.327 . S
C5291 H5285 0.950 . S
C5291 C5290 1.327 . S
C5291 C5295 1.429 . S
C5292 C5275 1.574 . S
C5292 H5286 0.949 . S
C5292 C5296 1.368 . S
C5293 C5274 1.429 . S
C5293 C5287 1.429 . S
C5293 C5294 1.523 . S
C5294 C5275 1.368 . S
C5294 C5288 1.368 . S
C5294 C5293 1.523 . S
C5295 C5279 1.429 . S
C5295 C5291 1.429 . S
C5295 C5296 1.523 . S
C5296 C5280 1.368 . S
C5296 C5292 1.368 . S
C5296 C5295 1.523 . S
H5297 C5272 0.950 . S
H5298 C5274 0.950 . S
H5299 C5275 0.949 . S
H5300 C5277 0.950 . S
H5301 C5279 0.950 . S
C5302 C5303 1.349 . S
C5302 C5304 1.327 . S
C5302 H5327 0.950 . S
C5303 C5302 1.349 . S
C5303 C5319 1.349 . S
C5304 C5302 1.327 . S
C5304 C5323 1.429 . S
C5304 H5328 0.950 . S
C5305 C5322 1.574 . S
C5305 C5324 1.368 . S
C5305 H5329 0.949 . S
H5306 C5310 0.949 . S
C5307 C5308 1.349 . S
C5307 C5309 1.327 . S
C5307 H5330 0.950 . S
C5308 C5307 1.349 . S
C5308 C5320 1.349 . S
C5309 C5307 1.327 . S
C5309 C5325 1.429 . S
C5309 H5331 0.950 . S
C5310 H5306 0.949 . S
C5310 C5318 1.574 . S
C5310 C5326 1.368 . S
H5311 C5319 0.950 . S
H5312 C5317 0.950 . S
H5313 C5318 0.949 . S
H5314 C5320 0.950 . S
H5315 C5321 0.950 . S
H5316 C5322 0.949 . S
C5317 H5312 0.950 . S
C5317 C5319 1.327 . S
C5317 C5323 1.429 . S
C5318 C5310 1.574 . S
C5318 H5313 0.949 . S
C5318 C5324 1.368 . S
C5319 C5303 1.349 . S
C5319 H5311 0.950 . S
C5319 C5317 1.327 . S
C5320 C5308 1.349 . S
C5320 H5314 0.950 . S
C5320 C5321 1.327 . S
C5321 H5315 0.950 . S
C5321 C5320 1.327 . S
C5321 C5325 1.429 . S
C5322 C5305 1.574 . S
C5322 H5316 0.949 . S
C5322 C5326 1.368 . S
C5323 C5304 1.429 . S
C5323 C5317 1.429 . S
C5323 C5324 1.523 . S
C5324 C5305 1.368 . S
C5324 C5318 1.368 . S
C5324 C5323 1.523 . S
C5325 C5309 1.429 . S
C5325 C5321 1.429 . S
C5325 C5326 1.523 . S
C5326 C5310 1.368 . S
C5326 C5322 1.368 . S
C5326 C5325 1.523 . S
H5327 C5302 0.950 . S
H5328 C5304 0.950 . S
H5329 C5305 0.949 . S
H5330 C5307 0.950 . S
H5331 C5309 0.950 . S
C5332 C5333 1.349 . S
C5332 C5334 1.327 . S
C5332 H5357 0.950 . S
C5333 C5332 1.349 . S
C5333 C5349 1.349 . S
C5334 C5332 1.327 . S
C5334 C5353 1.429 . S
C5334 H5358 0.950 . S
C5335 C5352 1.574 . S
C5335 C5354 1.368 . S
C5335 H5359 0.949 . S
H5336 C5340 0.949 . S
C5337 C5338 1.349 . S
C5337 C5339 1.327 . S
C5337 H5360 0.950 . S
C5338 C5337 1.349 . S
C5338 C5350 1.349 . S
C5339 C5337 1.327 . S
C5339 C5355 1.429 . S
C5339 H5361 0.950 . S
C5340 H5336 0.949 . S
C5340 C5348 1.574 . S
C5340 C5356 1.368 . S
H5341 C5349 0.950 . S
H5342 C5347 0.950 . S
H5343 C5348 0.949 . S
H5344 C5350 0.950 . S
H5345 C5351 0.950 . S
H5346 C5352 0.949 . S
C5347 H5342 0.950 . S
C5347 C5349 1.327 . S
C5347 C5353 1.429 . S
C5348 C5340 1.574 . S
C5348 H5343 0.949 . S
C5348 C5354 1.368 . S
C5349 C5333 1.349 . S
C5349 H5341 0.950 . S
C5349 C5347 1.327 . S
C5350 C5338 1.349 . S
C5350 H5344 0.950 . S
C5350 C5351 1.327 . S
C5351 H5345 0.950 . S
C5351 C5350 1.327 . S
C5351 C5355 1.429 . S
C5352 C5335 1.574 . S
C5352 H5346 0.949 . S
C5352 C5356 1.368 . S
C5353 C5334 1.429 . S
C5353 C5347 1.429 . S
C5353 C5354 1.523 . S
C5354 C5335 1.368 . S
C5354 C5348 1.368 . S
C5354 C5353 1.523 . S
C5355 C5339 1.429 . S
C5355 C5351 1.429 . S
C5355 C5356 1.523 . S
C5356 C5340 1.368 . S
C5356 C5352 1.368 . S
C5356 C5355 1.523 . S
H5357 C5332 0.950 . S
H5358 C5334 0.950 . S
H5359 C5335 0.949 . S
H5360 C5337 0.950 . S
H5361 C5339 0.950 . S
C5362 C5363 1.349 . S
C5362 C5364 1.327 . S
C5362 H5387 0.950 . S
C5363 C5362 1.349 . S
C5363 C5379 1.349 . S
C5364 C5362 1.327 . S
C5364 C5383 1.429 . S
C5364 H5388 0.950 . S
C5365 C5382 1.574 . S
C5365 C5384 1.368 . S
C5365 H5389 0.949 . S
H5366 C5370 0.949 . S
C5367 C5368 1.349 . S
C5367 C5369 1.327 . S
C5367 H5390 0.950 . S
C5368 C5367 1.349 . S
C5368 C5380 1.349 . S
C5369 C5367 1.327 . S
C5369 C5385 1.429 . S
C5369 H5391 0.950 . S
C5370 H5366 0.949 . S
C5370 C5378 1.574 . S
C5370 C5386 1.368 . S
H5371 C5379 0.950 . S
H5372 C5377 0.950 . S
H5373 C5378 0.949 . S
H5374 C5380 0.950 . S
H5375 C5381 0.950 . S
H5376 C5382 0.949 . S
C5377 H5372 0.950 . S
C5377 C5379 1.327 . S
C5377 C5383 1.429 . S
C5378 C5370 1.574 . S
C5378 H5373 0.949 . S
C5378 C5384 1.368 . S
C5379 C5363 1.349 . S
C5379 H5371 0.950 . S
C5379 C5377 1.327 . S
C5380 C5368 1.349 . S
C5380 H5374 0.950 . S
C5380 C5381 1.327 . S
C5381 H5375 0.950 . S
C5381 C5380 1.327 . S
C5381 C5385 1.429 . S
C5382 C5365 1.574 . S
C5382 H5376 0.949 . S
C5382 C5386 1.368 . S
C5383 C5364 1.429 . S
C5383 C5377 1.429 . S
C5383 C5384 1.523 . S
C5384 C5365 1.368 . S
C5384 C5378 1.368 . S
C5384 C5383 1.523 . S
C5385 C5369 1.429 . S
C5385 C5381 1.429 . S
C5385 C5386 1.523 . S
C5386 C5370 1.368 . S
C5386 C5382 1.368 . S
C5386 C5385 1.523 . S
H5387 C5362 0.950 . S
H5388 C5364 0.950 . S
H5389 C5365 0.949 . S
H5390 C5367 0.950 . S
H5391 C5369 0.950 . S
C5392 C5393 1.349 . S
C5392 C5394 1.327 . S
C5392 H5417 0.950 . S
C5393 C5392 1.349 . S
C5393 C5409 1.349 . S
C5394 C5392 1.327 . S
C5394 C5413 1.429 . S
C5394 H5418 0.950 . S
C5395 C5412 1.574 . S
C5395 C5414 1.368 . S
C5395 H5419 0.949 . S
H5396 C5400 0.949 . S
C5397 C5398 1.349 . S
C5397 C5399 1.327 . S
C5397 H5420 0.950 . S
C5398 C5397 1.349 . S
C5398 C5410 1.349 . S
C5399 C5397 1.327 . S
C5399 C5415 1.429 . S
C5399 H5421 0.950 . S
C5400 H5396 0.949 . S
C5400 C5408 1.574 . S
C5400 C5416 1.368 . S
H5401 C5409 0.950 . S
H5402 C5407 0.950 . S
H5403 C5408 0.949 . S
H5404 C5410 0.950 . S
H5405 C5411 0.950 . S
H5406 C5412 0.949 . S
C5407 H5402 0.950 . S
C5407 C5409 1.327 . S
C5407 C5413 1.429 . S
C5408 C5400 1.574 . S
C5408 H5403 0.949 . S
C5408 C5414 1.368 . S
C5409 C5393 1.349 . S
C5409 H5401 0.950 . S
C5409 C5407 1.327 . S
C5410 C5398 1.349 . S
C5410 H5404 0.950 . S
C5410 C5411 1.327 . S
C5411 H5405 0.950 . S
C5411 C5410 1.327 . S
C5411 C5415 1.429 . S
C5412 C5395 1.574 . S
C5412 H5406 0.949 . S
C5412 C5416 1.368 . S
C5413 C5394 1.429 . S
C5413 C5407 1.429 . S
C5413 C5414 1.523 . S
C5414 C5395 1.368 . S
C5414 C5408 1.368 . S
C5414 C5413 1.523 . S
C5415 C5399 1.429 . S
C5415 C5411 1.429 . S
C5415 C5416 1.523 . S
C5416 C5400 1.368 . S
C5416 C5412 1.368 . S
C5416 C5415 1.523 . S
H5417 C5392 0.950 . S
H5418 C5394 0.950 . S
H5419 C5395 0.949 . S
H5420 C5397 0.950 . S
H5421 C5399 0.950 . S
C5422 C5423 1.349 . S
C5422 C5424 1.327 . S
C5422 H5447 0.950 . S
C5423 C5422 1.349 . S
C5423 C5439 1.349 . S
C5424 C5422 1.327 . S
C5424 C5443 1.429 . S
C5424 H5448 0.950 . S
C5425 C5442 1.574 . S
C5425 C5444 1.368 . S
C5425 H5449 0.949 . S
H5426 C5430 0.949 . S
C5427 C5428 1.349 1_565 S
C5427 C5429 1.327 . S
C5427 H5450 0.950 . S
C5428 C5427 1.349 1_545 S
C5428 C5440 1.349 . S
C5429 C5427 1.327 . S
C5429 C5445 1.429 . S
C5429 H5451 0.950 . S
C5430 H5426 0.949 . S
C5430 C5438 1.574 . S
C5430 C5446 1.368 . S
H5431 C5439 0.950 . S
H5432 C5437 0.950 . S
H5433 C5438 0.949 . S
H5434 C5440 0.950 . S
H5435 C5441 0.950 . S
H5436 C5442 0.949 . S
C5437 H5432 0.950 . S
C5437 C5439 1.327 . S
C5437 C5443 1.429 . S
C5438 C5430 1.574 . S
C5438 H5433 0.949 . S
C5438 C5444 1.368 . S
C5439 C5423 1.349 . S
C5439 H5431 0.950 . S
C5439 C5437 1.327 . S
C5440 C5428 1.349 . S
C5440 H5434 0.950 . S
C5440 C5441 1.327 1_545 S
C5441 H5435 0.950 . S
C5441 C5440 1.327 1_565 S
C5441 C5445 1.429 . S
C5442 C5425 1.574 . S
C5442 H5436 0.949 . S
C5442 C5446 1.368 . S
C5443 C5424 1.429 . S
C5443 C5437 1.429 . S
C5443 C5444 1.523 . S
C5444 C5425 1.368 . S
C5444 C5438 1.368 . S
C5444 C5443 1.523 . S
C5445 C5429 1.429 . S
C5445 C5441 1.429 . S
C5445 C5446 1.523 . S
C5446 C5430 1.368 . S
C5446 C5442 1.368 . S
C5446 C5445 1.523 . S
H5447 C5422 0.950 . S
H5448 C5424 0.950 . S
H5449 C5425 0.949 . S
H5450 C5427 0.950 . S
H5451 C5429 0.950 . S
C5452 C5453 1.349 . S
C5452 C5454 1.327 . S
C5452 H5477 0.950 . S
C5453 C5452 1.349 . S
C5453 C5469 1.349 . S
C5454 C5452 1.327 . S
C5454 C5473 1.429 . S
C5454 H5478 0.950 . S
C5455 C5472 1.574 . S
C5455 C5474 1.368 . S
C5455 H5479 0.949 . S
H5456 C5460 0.949 . S
C5457 C5458 1.349 . S
C5457 C5459 1.327 . S
C5457 H5480 0.950 . S
C5458 C5457 1.349 . S
C5458 C5470 1.349 . S
C5459 C5457 1.327 . S
C5459 C5475 1.429 . S
C5459 H5481 0.950 . S
C5460 H5456 0.949 . S
C5460 C5468 1.574 . S
C5460 C5476 1.368 . S
H5461 C5469 0.950 . S
H5462 C5467 0.950 . S
H5463 C5468 0.949 . S
H5464 C5470 0.950 . S
H5465 C5471 0.950 . S
H5466 C5472 0.949 . S
C5467 H5462 0.950 . S
C5467 C5469 1.327 . S
C5467 C5473 1.429 . S
C5468 C5460 1.574 . S
C5468 H5463 0.949 . S
C5468 C5474 1.368 . S
C5469 C5453 1.349 . S
C5469 H5461 0.950 . S
C5469 C5467 1.327 . S
C5470 C5458 1.349 . S
C5470 H5464 0.950 . S
C5470 C5471 1.327 . S
C5471 H5465 0.950 . S
C5471 C5470 1.327 . S
C5471 C5475 1.429 . S
C5472 C5455 1.574 . S
C5472 H5466 0.949 . S
C5472 C5476 1.368 . S
C5473 C5454 1.429 . S
C5473 C5467 1.429 . S
C5473 C5474 1.523 . S
C5474 C5455 1.368 . S
C5474 C5468 1.368 . S
C5474 C5473 1.523 . S
C5475 C5459 1.429 . S
C5475 C5471 1.429 . S
C5475 C5476 1.523 . S
C5476 C5460 1.368 . S
C5476 C5472 1.368 . S
C5476 C5475 1.523 . S
H5477 C5452 0.950 . S
H5478 C5454 0.950 . S
H5479 C5455 0.949 . S
H5480 C5457 0.950 . S
H5481 C5459 0.950 . S
C5482 C5483 1.349 . S
C5482 C5484 1.327 . S
C5482 H5507 0.950 . S
C5483 C5482 1.349 . S
C5483 C5499 1.349 . S
C5484 C5482 1.327 . S
C5484 C5503 1.429 . S
C5484 H5508 0.950 . S
C5485 C5502 1.574 . S
C5485 C5504 1.368 . S
C5485 H5509 0.949 . S
H5486 C5490 0.949 1_556 S
C5487 C5488 1.349 . S
C5487 C5489 1.327 . S
C5487 H5510 0.950 . S
C5488 C5487 1.349 . S
C5488 C5500 1.349 . S
C5489 C5487 1.327 . S
C5489 C5505 1.429 . S
C5489 H5511 0.950 . S
C5490 H5486 0.949 1_554 S
C5490 C5498 1.574 . S
C5490 C5506 1.368 . S
H5491 C5499 0.950 . S
H5492 C5497 0.950 . S
H5493 C5498 0.932 1_556 S
H5494 C5500 0.950 1_556 S
H5495 C5501 0.950 1_556 S
H5496 C5502 0.949 . S
C5497 H5492 0.950 . S
C5497 C5499 1.327 . S
C5497 C5503 1.429 . S
C5498 C5490 1.574 . S
C5498 H5493 0.932 1_554 S
C5498 C5504 1.368 . S
C5499 C5483 1.349 . S
C5499 H5491 0.950 . S
C5499 C5497 1.327 . S
C5500 C5488 1.349 . S
C5500 H5494 0.950 1_554 S
C5500 C5501 1.327 . S
C5501 H5495 0.950 1_554 S
C5501 C5500 1.327 . S
C5501 C5505 1.429 . S
C5502 C5485 1.574 . S
C5502 H5496 0.949 . S
C5502 C5506 1.368 . S
C5503 C5484 1.429 . S
C5503 C5497 1.429 . S
C5503 C5504 1.523 . S
C5504 C5485 1.368 . S
C5504 C5498 1.368 . S
C5504 C5503 1.523 . S
C5505 C5489 1.429 . S
C5505 C5501 1.429 . S
C5505 C5506 1.523 . S
C5506 C5490 1.368 . S
C5506 C5502 1.368 . S
C5506 C5505 1.523 . S
H5507 C5482 0.950 . S
H5508 C5484 0.950 . S
H5509 C5485 0.949 . S
H5510 C5487 0.950 . S
H5511 C5489 0.950 . S
C5512 C5513 1.349 . S
C5512 C5514 1.327 . S
C5512 H5537 0.950 . S
C5513 C5512 1.349 . S
C5513 C5529 1.349 . S
C5514 C5512 1.327 . S
C5514 C5533 1.429 . S
C5514 H5538 0.950 . S
C5515 C5532 1.574 . S
C5515 C5534 1.368 . S
C5515 H5539 0.949 . S
H5516 C5520 0.949 . S
C5517 C5518 1.349 . S
C5517 C5519 1.327 . S
C5517 H5540 0.950 . S
C5518 C5517 1.349 . S
C5518 C5530 1.349 . S
C5519 C5517 1.327 . S
C5519 C5535 1.429 . S
C5519 H5541 0.950 . S
C5520 H5516 0.949 . S
C5520 C5528 1.574 . S
C5520 C5536 1.368 . S
H5521 C5529 0.950 . S
H5522 C5527 0.950 . S
H5523 C5528 0.949 . S
H5524 C5530 0.950 . S
H5525 C5531 0.950 . S
H5526 C5532 0.949 . S
C5527 H5522 0.950 . S
C5527 C5529 1.327 . S
C5527 C5533 1.429 . S
C5528 C5520 1.574 . S
C5528 H5523 0.949 . S
C5528 C5534 1.368 . S
C5529 C5513 1.349 . S
C5529 H5521 0.950 . S
C5529 C5527 1.327 . S
C5530 C5518 1.349 . S
C5530 H5524 0.950 . S
C5530 C5531 1.327 . S
C5531 H5525 0.950 . S
C5531 C5530 1.327 . S
C5531 C5535 1.429 . S
C5532 C5515 1.574 . S
C5532 H5526 0.949 . S
C5532 C5536 1.368 . S
C5533 C5514 1.429 . S
C5533 C5527 1.429 . S
C5533 C5534 1.523 . S
C5534 C5515 1.368 . S
C5534 C5528 1.368 . S
C5534 C5533 1.523 . S
C5535 C5519 1.429 . S
C5535 C5531 1.429 . S
C5535 C5536 1.523 . S
C5536 C5520 1.368 . S
C5536 C5532 1.368 . S
C5536 C5535 1.523 . S
H5537 C5512 0.950 . S
H5538 C5514 0.950 . S
H5539 C5515 0.949 . S
H5540 C5517 0.950 . S
H5541 C5519 0.950 . S
C5542 C5543 1.349 . S
C5542 C5544 1.327 . S
C5542 H5567 0.950 . S
C5543 C5542 1.349 . S
C5543 C5559 1.349 . S
C5544 C5542 1.327 . S
C5544 C5563 1.429 . S
C5544 H5568 0.950 . S
C5545 C5562 1.585 . S
C5545 C5564 1.368 . S
C5545 H5569 0.949 . S
H5546 C5550 0.949 . S
C5547 C5548 1.349 . S
C5547 C5549 1.327 . S
C5547 H5570 0.950 . S
C5548 C5547 1.349 . S
C5548 C5560 1.349 1_556 S
C5549 C5547 1.327 . S
C5549 C5565 1.429 1_556 S
C5549 H5571 0.950 . S
C5550 H5546 0.949 . S
C5550 C5558 1.574 . S
C5550 C5566 1.368 . S
H5551 C5559 0.950 . S
H5552 C5557 0.950 . S
H5553 C5558 0.949 . S
H5554 C5560 0.950 . S
H5555 C5561 0.950 . S
H5556 C5562 0.933 1_556 S
C5557 H5552 0.950 . S
C5557 C5559 1.327 . S
C5557 C5563 1.429 . S
C5558 C5550 1.574 . S
C5558 H5553 0.949 . S
C5558 C5564 1.368 . S
C5559 C5543 1.349 . S
C5559 H5551 0.950 . S
C5559 C5557 1.327 . S
C5560 C5548 1.349 1_554 S
C5560 H5554 0.950 . S
C5560 C5561 1.327 . S
C5561 H5555 0.950 . S
C5561 C5560 1.327 . S
C5561 C5565 1.429 . S
C5562 C5545 1.585 . S
C5562 H5556 0.933 1_554 S
C5562 C5566 1.380 . S
C5563 C5544 1.429 . S
C5563 C5557 1.429 . S
C5563 C5564 1.523 . S
C5564 C5545 1.368 . S
C5564 C5558 1.368 . S
C5564 C5563 1.523 . S
C5565 C5549 1.429 1_554 S
C5565 C5561 1.429 . S
C5565 C5566 1.523 . S
C5566 C5550 1.368 . S
C5566 C5562 1.380 . S
C5566 C5565 1.523 . S
H5567 C5542 0.950 . S
H5568 C5544 0.950 . S
H5569 C5545 0.949 . S
H5570 C5547 0.950 . S
H5571 C5549 0.950 . S
C5572 C5573 1.349 . S
C5572 C5574 1.327 . S
C5572 H5597 0.950 . S
C5573 C5572 1.349 . S
C5573 C5589 1.349 . S
C5574 C5572 1.327 . S
C5574 C5593 1.429 . S
C5574 H5598 0.950 . S
C5575 C5592 1.574 . S
C5575 C5594 1.368 . S
C5575 H5599 0.949 . S
H5576 C5580 0.949 . S
C5577 C5578 1.349 . S
C5577 C5579 1.327 . S
C5577 H5600 0.950 . S
C5578 C5577 1.349 . S
C5578 C5590 1.349 . S
C5579 C5577 1.327 . S
C5579 C5595 1.429 . S
C5579 H5601 0.950 . S
C5580 H5576 0.949 . S
C5580 C5588 1.574 . S
C5580 C5596 1.368 . S
H5581 C5589 0.950 . S
H5582 C5587 0.950 . S
H5583 C5588 0.949 . S
H5584 C5590 0.950 . S
H5585 C5591 0.950 . S
H5586 C5592 0.949 . S
C5587 H5582 0.950 . S
C5587 C5589 1.327 . S
C5587 C5593 1.429 . S
C5588 C5580 1.574 . S
C5588 H5583 0.949 . S
C5588 C5594 1.368 . S
C5589 C5573 1.349 . S
C5589 H5581 0.950 . S
C5589 C5587 1.327 . S
C5590 C5578 1.349 . S
C5590 H5584 0.950 . S
C5590 C5591 1.327 . S
C5591 H5585 0.950 . S
C5591 C5590 1.327 . S
C5591 C5595 1.429 . S
C5592 C5575 1.574 . S
C5592 H5586 0.949 . S
C5592 C5596 1.368 . S
C5593 C5574 1.429 . S
C5593 C5587 1.429 . S
C5593 C5594 1.523 . S
C5594 C5575 1.368 . S
C5594 C5588 1.368 . S
C5594 C5593 1.523 . S
C5595 C5579 1.429 . S
C5595 C5591 1.429 . S
C5595 C5596 1.523 . S
C5596 C5580 1.368 . S
C5596 C5592 1.368 . S
C5596 C5595 1.523 . S
H5597 C5572 0.950 . S
H5598 C5574 0.950 . S
H5599 C5575 0.949 . S
H5600 C5577 0.950 . S
H5601 C5579 0.950 . S
C5602 C5603 1.349 . S
C5602 C5604 1.327 . S
C5602 H5627 0.950 . S
C5603 C5602 1.349 . S
C5603 C5619 1.349 . S
C5604 C5602 1.327 . S
C5604 C5623 1.429 . S
C5604 H5628 0.950 . S
C5605 C5622 1.574 . S
C5605 C5624 1.368 . S
C5605 H5629 0.949 . S
H5606 C5610 0.949 . S
C5607 C5608 1.349 . S
C5607 C5609 1.327 . S
C5607 H5630 0.950 . S
C5608 C5607 1.349 . S
C5608 C5620 1.349 . S
C5609 C5607 1.327 . S
C5609 C5625 1.429 . S
C5609 H5631 0.950 . S
C5610 H5606 0.949 . S
C5610 C5618 1.574 . S
C5610 C5626 1.368 . S
H5611 C5619 0.950 . S
H5612 C5617 0.950 . S
H5613 C5618 0.949 . S
H5614 C5620 0.950 . S
H5615 C5621 0.950 . S
H5616 C5622 0.949 . S
C5617 H5612 0.950 . S
C5617 C5619 1.327 . S
C5617 C5623 1.429 . S
C5618 C5610 1.574 . S
C5618 H5613 0.949 . S
C5618 C5624 1.368 . S
C5619 C5603 1.349 . S
C5619 H5611 0.950 . S
C5619 C5617 1.327 . S
C5620 C5608 1.349 . S
C5620 H5614 0.950 . S
C5620 C5621 1.327 . S
C5621 H5615 0.950 . S
C5621 C5620 1.327 . S
C5621 C5625 1.429 . S
C5622 C5605 1.574 . S
C5622 H5616 0.949 . S
C5622 C5626 1.368 . S
C5623 C5604 1.429 . S
C5623 C5617 1.429 . S
C5623 C5624 1.523 . S
C5624 C5605 1.368 . S
C5624 C5618 1.368 . S
C5624 C5623 1.523 . S
C5625 C5609 1.429 . S
C5625 C5621 1.429 . S
C5625 C5626 1.523 . S
C5626 C5610 1.368 . S
C5626 C5622 1.368 . S
C5626 C5625 1.523 . S
H5627 C5602 0.950 . S
H5628 C5604 0.950 . S
H5629 C5605 0.949 . S
H5630 C5607 0.950 . S
H5631 C5609 0.950 . S
C2753 C665 1.872 . S
C2758 C2125 1.892 . S
C2783 C381 1.972 . S
C2788 C2176 1.965 . S
C2813 C460 1.325 . S
C2818 C2205 1.359 . S
C2848 C2249 1.448 . S
C2843 C585 1.484 . S
C2873 C108 1.336 . S
C2878 C2289 1.307 . S
C2908 C2325 1.345 . S
C2903 C196 1.324 . S
C2938 C2375 1.606 . S
C2933 C313 1.608 . S
C2963 C49 2.042 . S
C2968 C2405 2.055 . S
C2998 C2135 1.684 . S
C2993 C1457 1.707 . S
C3023 C1545 0.156 . S
C3028 C2178 0.321 . S
C3058 C2215 1.080 . S
C3053 C1721 1.092 . S
C3088 C2245 1.289 . S
C3083 C1113 1.265 . S
C3113 C1428 1.312 . S
C3118 C2285 1.334 . S
C3148 C2335 0.798 . S
C3143 C1516 0.800 . S
C3178 C2369 0.551 . S
C3173 C1692 0.514 . S
C3208 C2415 1.688 . S
C3203 C1085 1.709 . S
C3238 C2129 0.792 . S
C3233 C988 0.796 . S
C3263 C1817 1.618 . S
C3268 C2455 1.601 . S
C3298 C2489 1.277 . S
C3293 C2081 1.309 . S
C3328 C2525 0.793 . S
C3323 C1993 0.794 . S
C3353 C761 1.213 . S
C3358 C2409 1.192 . S
C3383 C821 1.380 . S
C3388 C2209 1.341 . S
C3413 C2053 1.536 . S
C3418 C2575 1.519 . S
C3448 C2594 0.239 . S
C3443 C1868 0.271 . S
C3478 C2136 1.889 . S
C3473 C372 1.870 . S
C3508 C2605 1.962 . S
C3503 C645 1.972 . S
C3533 C577 1.320 . S
C3538 C2216 1.352 . S
C3563 C497 1.482 . S
C3568 C2578 1.445 . S
C3598 C2298 1.304 . S
C3593 C57 1.334 . S
C3623 C293 1.319 . S
C3628 C2496 1.339 . S
C3658 C2354 1.603 1_556 S
C3653 C205 1.601 . S
C3688 C2656 2.049 . S
C3683 C145 2.041 . S
C3718 C2114 1.679 . S
C3713 C909 1.702 . S
C3748 C2609 0.323 . S
C3743 C1956 0.145 . S
C3773 C724 1.087 . S
C3778 C2194 1.076 . S
C3803 C1780 1.261 . S
C3808 C2576 1.282 . S
C3833 C937 1.307 . S
C3838 C2296 1.327 . S
C3868 C2474 0.794 . S
C3863 C1985 0.795 . S
C3893 C753 0.509 . S
C3898 C2378 0.549 . S
C3923 C1809 1.705 . S
C3928 C2634 1.683 . S
C3953 C1173 0.795 . S
C3958 C2138 0.791 1_556 S
C3983 C1105 1.613 . S
C3988 C2434 1.597 . S
C4013 C1633 1.309 . S
C4018 C2338 1.275 . S
C4043 C1553 0.788 . S
C4048 C2536 0.787 . S
C4078 C2658 1.189 . S
C4073 C1729 1.212 . S
C4103 C1340 1.380 . S
C4108 C2218 1.339 . S
C4138 C2234 1.515 . S
C4133 C1604 1.530 . S
C4168 C2175 0.243 . S
C4163 C1252 0.270 . S
C4193 C489 1.872 . S
C4198 C2685 1.895 . S
C4228 C2616 1.965 . S
C4223 C557 1.972 . S
C4253 C636 1.326 . S
C4258 C2725 1.361 . S
C4283 C409 1.484 . S
C4288 C2569 1.448 . S
C4313 C284 1.336 . S
C4318 C2449 1.307 . S
C4348 C2485 1.345 . S
C4343 C20 1.324 . S
C4378 C2535 1.606 . S
C4373 C137 1.608 . S
C4408 C2645 2.054 . S
C4403 C225 2.042 . S
C4438 C2695 1.683 . S
C4433 C1641 1.707 . S
C4463 C1193 0.156 . S
C4468 C2618 0.321 . S
C4498 C2735 1.080 . S
C4493 C1289 1.092 . S
C4528 C2565 1.289 . S
C4523 C1377 1.265 . S
C4558 C2445 1.335 . S
C4553 C1613 1.312 . S
C4583 C1164 0.800 . S
C4588 C2495 0.798 . S
C4618 C2529 0.551 . S
C4613 C1261 0.514 . S
C4643 C1349 1.709 . S
C4648 C2655 1.688 . S
C4678 C2689 0.791 . S
C4673 C1965 0.796 . S
C4703 C849 1.618 . S
C4708 C2295 1.600 . S
C4738 C2329 1.277 . S
C4733 C929 1.309 . S
C4768 C2365 0.793 . S
C4763 C1017 0.794 . S
C4798 C2649 1.192 . S
C4793 C1897 1.213 . S
C4823 C1789 1.380 . S
C4828 C2729 1.341 . S
C4858 C2255 1.519 . S
C4853 C900 1.536 . S
C4888 C2154 0.239 . S
C4883 C733 0.271 . S
C4913 C548 1.870 . S
C4918 C2696 1.889 . S
C4948 C2165 1.961 . S
C4943 C469 1.965 . S
C4973 C401 1.320 . S
C4978 C2736 1.352 . S
C5003 C673 1.481 . S
C5008 C2258 1.437 . S
C5033 C233 1.334 . S
C5038 C2458 1.304 . S
C5068 C2336 1.338 . S
C5063 C117 1.319 . S
C5093 C29 1.601 . S
C5098 C2514 1.603 . S
C5123 C321 2.041 . S
C5128 C2416 2.049 . S
C5158 C2674 1.679 . S
C5153 C2044 1.702 . S
C5183 C997 0.145 . S
C5188 C2169 0.317 . S
C5218 C2714 1.076 . S
C5213 C1877 1.088 . S
C5243 C812 1.260 . S
C5248 C2256 1.282 . S
C5273 C2073 1.307 . S
C5278 C2456 1.327 . S
C5308 C2314 0.794 . S
C5303 C1025 0.802 . S
C5333 C1905 0.509 . S
C5338 C2538 0.549 . S
C5368 C2394 1.683 . S
C5363 C841 1.704 . S
C5398 C2698 0.790 . S
C5393 C1525 0.795 . S
C5428 C2274 1.597 . S
C5423 C1369 1.613 . S
C5453 C1465 1.308 . S
C5458 C2498 1.275 . S
C5488 C2376 0.788 . S
C5483 C1201 0.788 . S
C5513 C1281 1.212 . S
C5518 C2418 1.189 . S
C5543 C1076 1.380 . S
C5548 C2738 1.339 . S
C5578 C2554 1.516 . S
C5573 C1437 1.531 . S
C5608 C2615 0.243 . S
C5603 C1701 0.269 . S
