# Generated by pormake.
# Topology nia, (6,6)-cn, num edge types: 1
# Building blocks:
#     Node 0, Type 0, BuildingBlock: JUFBIX_clean_sbu_0, # of connection points: 6
#     Node 1, Type 0, BuildingBlock: JUFBIX_clean_sbu_0, # of connection points: 6
#     Node 2, Type 1, BuildingBlock: MIDCAF_clean_sbu_0, # of connection points: 6
#     Node 3, Type 1, BuildingBlock: MIDCAF_clean_sbu_0, # of connection points: 6
#     Edge 4, Type (0, 1), BuildingBlock: TEMPAE_clean_linker_10, # of connection points: 2
#     Edge 5, Type (0, 1), BuildingBlock: TEMPAE_clean_linker_10, # of connection points: 2
#     Edge 6, Type (0, 1), BuildingBlock: TEMPAE_clean_linker_10, # of connection points: 2
#     Edge 7, Type (0, 1), BuildingBlock: TEMPAE_clean_linker_10, # of connection points: 2
#     Edge 8, Type (0, 1), BuildingBlock: TEMPAE_clean_linker_10, # of connection points: 2
#     Edge 9, Type (0, 1), BuildingBlock: TEMPAE_clean_linker_10, # of connection points: 2
#     Edge 10, Type (0, 1), BuildingBlock: TEMPAE_clean_linker_10, # of connection points: 2
#     Edge 11, Type (0, 1), BuildingBlock: TEMPAE_clean_linker_10, # of connection points: 2
#     Edge 12, Type (0, 1), BuildingBlock: TEMPAE_clean_linker_10, # of connection points: 2
#     Edge 13, Type (0, 1), BuildingBlock: TEMPAE_clean_linker_10, # of connection points: 2
#     Edge 14, Type (0, 1), BuildingBlock: TEMPAE_clean_linker_10, # of connection points: 2
#     Edge 15, Type (0, 1), BuildingBlock: TEMPAE_clean_linker_10, # of connection points: 2
# Relax obj value: 0.149
# Max RMSD: 0.239
# Mean RMSD: 0.155
data_MOF--net-nia--node1-JUFBIX_clean_sbu_0--node2-MIDCAF_clean_sbu_0--edge1-TEMPAE_clean_linker_10
_symmetry_space_group_name_H-M    P1
_symmetry_Int_Tables_number       1
_symmetry_cell_setting            triclinic
loop_
_symmetry_equiv_pos_as_xyz
'x, y, z'
_cell_length_a     23.723114
_cell_length_b     23.587805
_cell_length_c     35.460548
_cell_angle_alpha  85.274303
_cell_angle_beta   85.246927
_cell_angle_gamma 120.40692
loop_
_atom_site_label
_atom_site_type_symbol
_atom_site_fract_x
_atom_site_fract_y
_atom_site_fract_z
_atom_type_partial_charge
Co0 Co 0.98321 0.95069 1.01246 0.0
C1 C 0.89581 0.95424 0.0688 0.0
Co2 Co 0.02291 0.04559 0.03544 0.0
C3 C 0.95237 0.85789 0.95829 0.0
C4 C 0.91284 0.80921 0.01599 0.0
N5 N 0.94848 0.86969 0.99479 0.0
N6 N 0.92063 0.79223 0.95582 0.0
C7 C 0.89555 0.76162 0.9922 0.0
H8 H 0.9784 0.89688 0.93409 0.0
H9 H 0.89976 0.80036 0.04675 0.0
C10 C 0.10981 0.04212 0.97876 0.0
N11 N 0.05865 0.12729 0.05219 0.0
C12 C 0.06146 0.14238 0.0882 0.0
C13 C 0.0918 0.18633 0.02929 0.0
N14 N 0.09583 0.20866 0.08852 0.0
C15 C 0.11456 0.23629 0.05147 0.0
C16 C 0.04605 0.95758 0.07688 0.0
O17 O 0.06279 0.98309 0.97892 0.0
O18 O 0.10303 0.07711 1.00205 0.0
O19 O 0.05474 0.01549 0.07454 0.0
O20 O 0.01714 0.92097 0.05195 0.0
O21 O 0.94262 0.0136 0.06859 0.0
H22 H 0.09968 0.19261 0.99837 0.0
H23 H 0.04025 0.10553 0.11358 0.0
O24 O 0.90344 0.91879 0.04614 0.0
O25 O 0.94976 0.9811 0.97339 0.0
O26 O 0.99081 0.07545 0.99627 0.0
C27 C 0.96066 0.03992 0.97142 0.0
H28 H 0.86546 0.70852 1.00111 0.0
H29 H 0.14249 0.28902 0.04107 0.0
Co30 Co 0.04662 0.03615 0.53743 0.0
C31 C 0.03115 0.10888 0.47545 0.0
Co32 Co 0.95328 0.98364 0.5129 0.0
C33 C 0.16116 0.07326 0.57886 0.0
C34 C 0.15582 0.15561 0.5535 0.0
N35 N 0.12604 0.08884 0.55629 0.0
N36 N 0.21091 0.12784 0.5902 0.0
C37 C 0.20776 0.17947 0.57381 0.0
H38 H 0.14861 0.02291 0.58829 0.0
H39 H 0.13936 0.18559 0.53908 0.0
C40 C 0.96738 0.9092 0.57443 0.0
N41 N 0.87339 0.93371 0.49527 0.0
C42 C 0.85761 0.93699 0.45971 0.0
C43 C 0.81624 0.88754 0.51712 0.0
N44 N 0.79265 0.8951 0.45869 0.0
C45 C 0.76681 0.86357 0.49478 0.0
C46 C 0.05425 0.97048 0.47769 0.0
O47 O 0.02296 0.96137 0.57514 0.0
O48 O 0.93188 0.91011 0.54974 0.0
O49 O -0.00561 0.9548 0.47793 0.0
O50 O 0.08738 0.00582 0.50212 0.0
O51 O 0.97538 0.05702 0.47588 0.0
H52 H 0.81047 0.87313 0.54759 0.0
H53 H 0.8926 0.97105 0.43537 0.0
O54 O 0.06822 0.10935 0.49941 0.0
O55 O 0.00537 0.06594 0.57193 0.0
O56 O 0.91266 0.01345 0.54825 0.0
C57 C 0.94568 0.05022 0.57197 0.0
H58 H 0.24009 0.23108 0.57683 0.0
H59 H 0.71559 0.82606 0.50457 0.0
Zn60 Zn 0.30519 0.70529 0.20067 0.0
Zn61 Zn 0.31822 0.68311 0.34486 0.0
Zn62 Zn 0.31088 0.69681 0.2726 0.0
C63 C 0.44678 0.75935 0.30935 0.0
C64 C 0.25291 0.55646 0.32876 0.0
O65 O 0.26428 0.75724 0.26037 0.0
O66 O 0.27686 0.76976 0.19714 0.0
C67 C 0.43663 0.7576 0.20484 0.0
O68 O 0.41704 0.74548 0.27965 0.0
O69 O 0.41425 0.74053 0.34246 0.0
O70 O 0.28108 0.58657 0.35552 0.0
O71 O 0.25633 0.58917 0.2968 0.0
O72 O 0.39811 0.74071 0.18004 0.0
O73 O 0.41328 0.7463 0.24064 0.0
O74 O 0.25041 0.59478 0.25821 0.0
O75 O 0.23882 0.61185 0.19788 0.0
C76 C 0.22555 0.57229 0.22797 0.0
O77 O 0.26405 0.74737 0.29996 0.0
O78 O 0.26142 0.71781 0.36121 0.0
C79 C 0.25906 0.78258 0.22816 0.0
C80 C 0.24683 0.74652 0.33557 0.0
Zn81 Zn 0.69659 0.32848 0.8461 0.0
Zn82 Zn 0.71381 0.32351 0.65893 0.0
Zn83 Zn 0.69634 0.31574 0.77741 0.0
C84 C 0.77434 0.44645 0.69936 0.0
C85 C 0.59695 0.25755 0.72943 0.0
O86 O 0.74669 0.26558 0.8022 0.0
O87 O 0.74639 0.28674 0.8617 0.0
C88 C 0.7594 0.4561 0.8038 0.0
O89 O 0.75145 0.4127 0.73381 0.0
O90 O 0.76534 0.41974 0.66856 0.0
O91 O 0.65408 0.28768 0.7102 0.0
O92 O 0.59528 0.25877 0.76534 0.0
O93 O 0.73977 0.42599 0.83763 0.0
O94 O 0.74978 0.42356 0.77535 0.0
O95 O 0.5904 0.26557 0.80342 0.0
O96 O 0.60113 0.27588 0.86416 0.0
C97 C 0.56454 0.25406 0.83867 0.0
O98 O 0.7419 0.25862 0.76437 0.0
O99 O 0.72207 0.2893 0.71101 0.0
C100 C 0.7607 0.26004 0.83616 0.0
C101 C 0.74574 0.25899 0.72834 0.0
C102 C 0.0868 0.96708 0.14038 0.0
C103 C 0.06945 0.93357 0.1084 0.0
C104 C 0.11231 0.94704 0.16958 0.0
C105 C 0.12215 0.89322 0.16626 0.0
C106 C 0.10221 0.8576 0.13479 0.0
C107 C 0.07563 0.87789 0.10643 0.0
C108 C 0.13124 0.98524 0.20307 0.0
C109 C 0.11203 0.79998 0.13001 0.0
C110 C 0.26388 0.8827 0.19835 0.0
C111 C 0.23038 0.82498 0.22522 0.0
C112 C 0.22998 0.91006 0.18164 0.0
C113 C 0.1609 0.87893 0.19235 0.0
C114 C 0.12869 0.82631 0.22342 0.0
C115 C 0.16394 0.79939 0.23944 0.0
C116 C 0.2668 0.96683 0.14909 0.0
C117 C 0.05574 0.7938 0.23694 0.0
H118 H 0.08112 0.00958 0.14246 0.0
H119 H 0.06189 0.85152 0.08198 0.0
H120 H 0.11793 0.95127 0.23016 0.0
H121 H 0.18548 0.01996 0.19889 0.0
H122 H 0.107 0.01478 0.20601 0.0
H123 H 0.09071 0.77537 0.1051 0.0
H124 H 0.16562 0.8178 0.12598 0.0
H125 H 0.08887 0.76246 0.15611 0.0
H126 H 0.31545 0.90243 0.18751 0.0
H127 H 0.13805 0.75461 0.26023 0.0
H128 H 0.25312 0.00496 0.15182 0.0
H129 H 0.25319 0.94781 0.12161 0.0
H130 H 0.32121 0.99093 0.14781 0.0
H131 H 0.0401 0.83091 0.23588 0.0
H132 H 0.0423 0.76717 0.2666 0.0
H133 H 0.02781 0.75715 0.21793 0.0
C134 C 0.28041 0.18352 0.63873 0.0
C135 C 0.25648 0.13232 0.61603 0.0
C136 C 0.33156 0.19552 0.65996 0.0
C137 C 0.35919 0.15467 0.65904 0.0
C138 C 0.33221 0.09987 0.6384 0.0
C139 C 0.28113 0.0894 0.61698 0.0
C140 C 0.35848 0.25436 0.68164 0.0
C141 C 0.35948 0.0544 0.63739 0.0
C142 C 0.54001 0.24437 0.67189 0.0
C143 C 0.53643 0.22684 0.7111 0.0
C144 C 0.48278 0.21894 0.65434 0.0
C145 C 0.42041 0.1742 0.67645 0.0
C146 C 0.41678 0.15412 0.71578 0.0
C147 C 0.47493 0.18082 0.73266 0.0
C148 C 0.48886 0.24248 0.61246 0.0
C149 C 0.35144 0.10571 0.74019 0.0
H150 H 0.26016 0.21562 0.6391 0.0
H151 H 0.26263 0.04961 0.59966 0.0
H152 H 0.35979 0.23879 0.71177 0.0
H153 H 0.40998 0.29171 0.66861 0.0
H154 H 0.32873 0.27861 0.68143 0.0
H155 H 0.32723 0.00895 0.62491 0.0
H156 H 0.40908 0.08107 0.61989 0.0
H157 H 0.36544 0.03954 0.66661 0.0
H158 H 0.58746 0.27972 0.65506 0.0
H159 H 0.47225 0.1658 0.76277 0.0
H160 H 0.464 0.27141 0.60923 0.0
H161 H 0.46387 0.1994 0.5968 0.0
H162 H 0.54115 0.27429 0.59882 0.0
H163 H 0.31899 0.12687 0.74115 0.0
H164 H 0.35734 0.09333 0.76997 0.0
H165 H 0.3258 0.05919 0.72742 0.0
C166 C 0.16875 0.306 0.11776 0.0
C167 C 0.11056 0.24407 0.12096 0.0
C168 C 0.1798 0.34674 0.14611 0.0
C169 C 0.13161 0.32469 0.17891 0.0
C170 C 0.07574 0.25947 0.18418 0.0
C171 C 0.06555 0.21987 0.15489 0.0
C172 C 0.24088 0.4155 0.1394 0.0
C173 C 0.02458 0.23288 0.2194 0.0
C174 C 0.20433 0.457 0.24203 0.0
C175 C 0.18573 0.5005 0.22634 0.0
C176 C 0.17867 0.39337 0.23131 0.0
C177 C 0.13573 0.37463 0.20328 0.0
C178 C 0.11066 0.41524 0.19124 0.0
C179 C 0.13606 0.4778 0.20297 0.0
C180 C 0.20332 0.34967 0.2467 0.0
C181 C 0.06356 0.39667 0.16208 0.0
H182 H 0.20476 0.32376 0.0922 0.0
H183 H 0.0208 0.17159 0.15773 0.0
H184 H 0.2264 0.45341 0.13595 0.0
H185 H 0.26804 0.4241 0.16432 0.0
H186 H 0.27506 0.42335 0.11346 0.0
H187 H -0.00098 0.17785 0.2255 0.0
H188 H 0.04681 0.2542 0.24486 0.0
H189 H 0.98681 0.24614 0.2146 0.0
H190 H 0.24332 0.47462 0.25972 0.0
H191 H 0.12088 0.51116 0.19136 0.0
H192 H 0.24706 0.35916 0.22707 0.0
H193 H 0.16498 0.2963 0.24884 0.0
H194 H 0.2184 0.36044 0.27533 0.0
H195 H 0.0904 0.40206 0.13359 0.0
H196 H 0.04183 0.42872 0.15987 0.0
H197 H 0.02289 0.34417 0.16946 0.0
C198 C 0.95638 0.12821 0.61835 0.0
C199 C 0.91606 0.07655 0.59847 0.0
C200 C 0.92983 0.15658 0.64181 0.0
C201 C 0.8612 0.13223 0.6458 0.0
C202 C 0.8199 0.07859 0.62687 0.0
C203 C 0.8479 0.05166 0.6032 0.0
C204 C 0.97555 0.21414 0.66124 0.0
C205 C 0.74634 0.05072 0.63086 0.0
C206 C 0.78259 0.17686 0.72697 0.0
C207 C 0.77727 0.22796 0.70782 0.0
C208 C 0.81033 0.14542 0.7073 0.0
C209 C 0.83327 0.16582 0.66759 0.0
C210 C 0.82877 0.21807 0.64829 0.0
C211 C 0.80048 0.24824 0.66862 0.0
C212 C 0.81394 0.08966 0.72883 0.0
C213 C 0.85358 0.24196 0.6061 0.0
H214 H 0.00915 0.1478 0.61481 0.0
H215 H 0.81639 0.01142 0.58817 0.0
H216 H 0.97571 0.25942 0.64972 0.0
H217 H 0.95785 0.20383 0.69238 0.0
H218 H 0.02708 0.2247 0.65697 0.0
H219 H 0.72052 0.00587 0.61658 0.0
H220 H 0.72488 0.03761 0.66153 0.0
H221 H 0.73656 0.08889 0.61809 0.0
H222 H 0.76355 0.16032 0.75715 0.0
H223 H 0.79684 0.28805 0.65379 0.0
H224 H 0.86558 0.1007 0.7253 0.0
H225 H 0.78386 0.04301 0.7169 0.0
H226 H 0.79589 0.08127 0.75988 0.0
H227 H 0.90644 0.25739 0.60012 0.0
H228 H 0.84824 0.28449 0.59566 0.0
H229 H 0.82588 0.2009 0.58948 0.0
C230 C 0.78097 0.86157 0.0936 0.0
C231 C 0.83288 0.92628 0.09491 0.0
C232 C 0.71977 0.83514 0.11655 0.0
C233 C 0.71013 0.87424 0.14156 0.0
C234 C 0.76319 0.93844 0.14438 0.0
C235 C 0.82398 0.96386 0.1209 0.0
C236 C 0.66449 0.76633 0.11275 0.0
C237 C 0.75492 0.98124 0.17104 0.0
C238 C 0.53373 0.83492 0.15666 0.0
C239 C 0.5083 0.7924 0.19158 0.0
C240 C 0.60015 0.86425 0.14105 0.0
C241 C 0.64238 0.85068 0.16085 0.0
C242 C 0.61762 0.80967 0.19689 0.0
C243 C 0.55048 0.78059 0.21174 0.0
C244 C 0.62432 0.90739 0.10249 0.0
C245 C 0.66144 0.79498 0.21913 0.0
H246 H 0.78754 0.83184 0.07394 0.0
H247 H 0.86412 0.01362 0.12244 0.0
H248 H 0.64241 0.7357 0.14132 0.0
H249 H 0.62487 0.76975 0.10011 0.0
H250 H 0.6815 0.74038 0.09438 0.0
H251 H 0.80269 0.02663 0.1731 0.0
H252 H 0.72112 0.99659 0.16063 0.0
H253 H 0.7322 0.95273 0.20009 0.0
H254 H 0.50114 0.84431 0.14108 0.0
H255 H 0.53031 0.74611 0.23807 0.0
H256 H 0.63825 0.88307 0.08117 0.0
H257 H 0.66906 0.95597 0.10395 0.0
H258 H 0.58631 0.91651 0.09208 0.0
H259 H 0.68585 0.77497 0.20113 0.0
H260 H 0.63361 0.75877 0.24548 0.0
H261 H 0.70098 0.84162 0.22741 0.0
C262 C 0.97409 0.84401 0.63254 0.0
C263 C 0.94344 0.84654 0.60074 0.0
C264 C 0.95092 0.78343 0.65654 0.0
C265 C 0.897 0.7241 0.64791 0.0
C266 C 0.86536 0.72692 0.61627 0.0
C267 C 0.88858 0.78784 0.5934 0.0
C268 C 0.98504 0.78268 0.69049 0.0
C269 C 0.80807 0.66505 0.60563 0.0
C270 C 0.87221 0.55273 0.66779 0.0
C271 C 0.81384 0.51982 0.69398 0.0
C272 C 0.90368 0.62112 0.65521 0.0
C273 C 0.87615 0.65769 0.66925 0.0
C274 C 0.82045 0.62573 0.69828 0.0
C275 C 0.78909 0.55672 0.70978 0.0
C276 C 0.96264 0.65268 0.62413 0.0
C277 C 0.79101 0.66339 0.71501 0.0
H278 H 0.01613 0.88919 0.63864 0.0
H279 H 0.86433 0.789 0.56899 0.0
H280 H 0.94836 0.75172 0.71611 0.0
H281 H 0.01563 0.76041 0.68426 0.0
H282 H 0.01767 0.83349 0.69733 0.0
H283 H 0.78787 0.67607 0.58074 0.0
H284 H 0.8242 0.63002 0.5985 0.0
H285 H 0.76769 0.63942 0.63019 0.0
H286 H 0.89122 0.52407 0.65545 0.0
H287 H 0.74308 0.53112 0.7293 0.0
H288 H 0.00217 0.70083 0.63082 0.0
H289 H 0.94766 0.66279 0.59673 0.0
H290 H 0.98323 0.62015 0.62003 0.0
H291 H 0.83037 0.7108 0.72267 0.0
H292 H 0.75418 0.63409 0.74088 0.0
H293 H 0.76622 0.67585 0.69342 0.0
C294 C 0.14835 0.95927 0.45002 0.0
C295 C 0.08394 0.94641 0.44949 0.0
C296 C 0.17463 0.93203 0.42537 0.0
C297 C 0.13551 0.89085 0.39966 0.0
C298 C 0.07196 0.88091 0.39743 0.0
C299 C 0.04689 0.9087 0.4224 0.0
C300 C 0.24294 0.94433 0.42833 0.0
C301 C 0.02892 0.83782 0.37022 0.0
C302 C 0.22283 0.83877 0.32766 0.0
C303 C 0.21085 0.7793 0.34795 0.0
C304 C 0.19598 0.87459 0.34312 0.0
C305 C 0.15707 0.85039 0.37978 0.0
C306 C 0.14197 0.78844 0.3992 0.0
C307 C 0.16905 0.75382 0.38306 0.0
C308 C 0.21232 0.93985 0.32115 0.0
C309 C 0.09974 0.76004 0.438 0.0
H310 H 0.17762 0.98897 0.47049 0.0
H311 H -0.00265 0.8992 0.42133 0.0
H312 H 0.23918 0.89761 0.44082 0.0
H313 H 0.27253 0.95979 0.39951 0.0
H314 H 0.26969 0.98313 0.44654 0.0
H315 H 0.98528 0.84301 0.36789 0.0
H316 H 0.05754 0.85041 0.3413 0.0
H317 H 0.01113 0.78498 0.38049 0.0
H318 H 0.25589 0.85907 0.30079 0.0
H319 H 0.15909 0.7074 0.39863 0.0
H320 H 0.25148 0.98119 0.33362 0.0
H321 H 0.16862 0.94563 0.32321 0.0
H322 H 0.23046 0.94455 0.29047 0.0
H323 H 0.12529 0.79271 0.45931 0.0
H324 H 0.08917 0.70929 0.44807 0.0
H325 H 0.05211 0.75796 0.43708 0.0
C326 C 0.22092 0.1372 0.94972 0.0
C327 C 0.17113 0.07057 0.95123 0.0
C328 C 0.28046 0.1645 0.92496 0.0
C329 C 0.29063 0.12416 0.90118 0.0
C330 C 0.23933 0.05783 0.90112 0.0
C331 C 0.1801 0.03173 0.92622 0.0
C332 C 0.3339 0.23558 0.92582 0.0
C333 C 0.24828 0.01339 0.87609 0.0
C334 C 0.44797 0.21795 0.82928 0.0
C335 C 0.49269 0.21327 0.85082 0.0
C336 C 0.38053 0.18581 0.84425 0.0
C337 C 0.35818 0.14855 0.88142 0.0
C338 C 0.4028 0.14046 0.90202 0.0
C339 C 0.46943 0.1731 0.8865 0.0
C340 C 0.33412 0.19476 0.82129 0.0
C341 C 0.38107 0.10061 0.94154 0.0
H342 H 0.21402 0.16788 0.9685 0.0
H343 H 0.14146 0.9804 0.92684 0.0
H344 H 0.37524 0.23639 0.93881 0.0
H345 H 0.35402 0.26296 0.89636 0.0
H346 H 0.31569 0.26231 0.94264 0.0
H347 H 0.20063 0.9675 0.87452 0.0
H348 H 0.27153 0.04001 0.84671 0.0
H349 H 0.28172 -0.00123 0.88787 0.0
H350 H 0.46614 0.24931 0.80174 0.0
H351 H 0.504 0.16875 0.90292 0.0
H352 H 0.31903 0.22669 0.83485 0.0
H353 H 0.28861 0.1462 0.82093 0.0
H354 H 0.35732 0.21817 0.79134 0.0
H355 H 0.36673 0.12597 0.96191 0.0
H356 H 0.42068 0.09444 0.95218 0.0
H357 H 0.33719 0.05067 0.94157 0.0
C358 C 0.08083 0.23048 0.46095 0.0
C359 C 0.05318 0.16882 0.44798 0.0
C360 C 0.1065 0.28913 0.43532 0.0
C361 C 0.10685 0.28618 0.39552 0.0
C362 C 0.07781 0.2237 0.38227 0.0
C363 C 0.05025 0.16539 0.40886 0.0
C364 C 0.13514 0.3545 0.45084 0.0
C365 C 0.07916 0.21854 0.34008 0.0
C366 C 0.14613 0.44915 0.34019 0.0
C367 C 0.21515 0.48365 0.33558 0.0
C368 C 0.10913 0.38213 0.3569 0.0
C369 C 0.14245 0.34933 0.3684 0.0
C370 C 0.21211 0.38245 0.35974 0.0
C371 C 0.24776 0.44978 0.34413 0.0
C372 C 0.03504 0.34878 0.36572 0.0
C373 C 0.24943 0.34854 0.37 0.0
H374 H 0.08248 0.23276 0.4913 0.0
H375 H 0.02926 0.11742 0.39895 0.0
H376 H 0.18949 0.38379 0.44227 0.0
H377 H 0.11482 0.38416 0.43876 0.0
H378 H 0.12463 0.34756 0.48254 0.0
H379 H 0.04458 0.16717 0.33476 0.0
H380 H 0.06663 0.25284 0.32492 0.0
H381 H 0.12984 0.23316 0.32742 0.0
H382 H 0.12126 0.47591 0.33364 0.0
H383 H 0.30132 0.47686 0.34028 0.0
H384 H 0.02104 0.34668 0.39668 0.0
H385 H 0.01042 0.297 0.35934 0.0
H386 H 0.01609 0.37617 0.34928 0.0
H387 H 0.25012 0.34424 0.40133 0.0
H388 H 0.3013 0.37667 0.35538 0.0
H389 H 0.22474 0.29757 0.36228 0.0
C390 C 0.88973 0.02643 0.92002 0.0
C391 C 0.9386 0.06767 0.94104 0.0
C392 C 0.86325 0.05274 0.89474 0.0
C393 C 0.88652 0.12167 0.89046 0.0
C394 C 0.93981 0.164 0.90913 0.0
C395 C 0.96492 0.13646 0.93429 0.0
C396 C 0.80695 0.00606 0.87506 0.0
C397 C 0.96667 0.23787 0.90517 0.0
C398 C 0.83427 0.21396 0.82219 0.0
C399 C 0.78834 0.21849 0.84726 0.0
C400 C 0.86422 0.17879 0.83494 0.0
C401 C 0.84756 0.14795 0.87353 0.0
C402 C 0.79833 0.14943 0.8981 0.0
C403 C 0.76965 0.18481 0.88469 0.0
C404 C 0.91581 0.17746 0.80779 0.0
C405 C 0.77843 0.11682 0.93936 0.0
H406 H 0.86981 0.97329 0.92474 0.0
H407 H 0.00384 0.16887 0.94975 0.0
H408 H 0.75963 0.99583 0.89085 0.0
H409 H 0.81138 0.02858 0.84542 0.0
H410 H 0.8047 0.95798 0.87421 0.0
H411 H 0.01388 0.26482 0.91698 0.0
H412 H 0.97491 0.259 0.87472 0.0
H413 H 0.93015 0.247 0.92077 0.0
H414 H 0.84891 0.24025 0.79328 0.0
H415 H 0.73317 0.18722 0.90394 0.0
H416 H 0.90691 0.12634 0.80942 0.0
H417 H 0.9653 0.20939 0.81608 0.0
H418 H 0.91652 0.19563 0.77773 0.0
H419 H 0.76567 0.06439 0.94122 0.0
H420 H 0.73548 0.11779 0.9536 0.0
H421 H 0.82048 0.14294 0.95548 0.0
C422 C 0.78725 0.90048 0.38893 0.0
C423 C 0.75666 0.88803 0.42681 0.0
C424 C 0.75082 0.89001 0.35814 0.0
C425 C 0.68223 0.8657 0.36563 0.0
C426 C 0.65191 0.85549 0.40372 0.0
C427 C 0.68954 0.86727 0.4336 0.0
C428 C 0.78549 0.90266 0.31803 0.0
C429 C 0.57892 0.83 0.41328 0.0
C430 C 0.55732 0.85996 0.30596 0.0
C431 C 0.5186 0.79125 0.30663 0.0
C432 C 0.61843 0.88788 0.31967 0.0
C433 C 0.63943 0.84545 0.33505 0.0
C434 C 0.60506 0.77766 0.33011 0.0
C435 C 0.5444 0.75115 0.31627 0.0
C436 C 0.65568 0.96107 0.32255 0.0
C437 C 0.62693 0.73106 0.34475 0.0
H438 H 0.83916 0.91663 0.38339 0.0
H439 H 0.66597 0.85965 0.46255 0.0
H440 H 0.78218 0.85624 0.31092 0.0
H441 H 0.7627 0.9184 0.29662 0.0
H442 H 0.83868 0.94129 0.3155 0.0
H443 H 0.56341 0.82544 0.44435 0.0
H444 H 0.56639 0.86392 0.39767 0.0
H445 H 0.54958 0.78041 0.40419 0.0
H446 H 0.53704 0.89083 0.29848 0.0
H447 H 0.51408 0.69788 0.31663 0.0
H448 H 0.7098 0.98165 0.31788 0.0
H449 H 0.64224 0.96865 0.35165 0.0
H450 H 0.64333 0.98916 0.30148 0.0
H451 H 0.68121 0.75456 0.33776 0.0
H452 H 0.60255 0.68378 0.33252 0.0
H453 H 0.61399 0.71927 0.37636 0.0
C454 C 0.8988 0.69496 0.92467 0.0
C455 C 0.91289 0.76056 0.92184 0.0
C456 C 0.88338 0.66015 0.89333 0.0
C457 C 0.88334 0.69206 0.85763 0.0
C458 C 0.90259 0.75994 0.85362 0.0
C459 C 0.91649 0.79327 0.88591 0.0
C460 C 0.8637 0.58785 0.89919 0.0
C461 C 0.90572 0.79702 0.816 0.0
C462 C 0.85992 0.56868 0.79175 0.0
C463 C 0.79104 0.52859 0.79926 0.0
C464 C 0.89234 0.63056 0.805 0.0
C465 C 0.85459 0.65051 0.82709 0.0
C466 C 0.78511 0.61541 0.82853 0.0
C467 C 0.75407 0.55445 0.81464 0.0
C468 C 0.96669 0.66994 0.79988 0.0
C469 C 0.74287 0.63648 0.8501 0.0
H470 H 0.89826 0.66998 0.95182 0.0
H471 H 0.92775 0.84413 0.88314 0.0
H472 H 0.81211 0.55621 0.89369 0.0
H473 H 0.89597 0.57963 0.87878 0.0
H474 H 0.86709 0.57093 0.92864 0.0
H475 H 0.94658 0.84968 0.81266 0.0
H476 H 0.91279 0.77437 0.79118 0.0
H477 H 0.85901 0.79701 0.81554 0.0
H478 H 0.8885 0.54886 0.77937 0.0
H479 H 0.70062 0.52341 0.81993 0.0
H480 H 0.98395 0.65603 0.82523 0.0
H481 H 0.98557 0.72404 0.79727 0.0
H482 H 0.988 0.65956 0.77414 0.0
H483 H 0.74164 0.62538 0.8813 0.0
H484 H 0.69133 0.61003 0.84363 0.0
H485 H 0.76389 0.69069 0.84293 0.0
loop_
_geom_bond_atom_site_label_1
_geom_bond_atom_site_label_2
_geom_bond_distance
_geom_bond_site_symmetry_2
_ccdc_geom_bond_type
Co0 N5 2.057 . S
Co0 O17 2.021 1_665 S
Co0 O20 2.062 1_656 S
Co0 O24 2.117 1_556 S
Co0 O25 2.020 1_565 S
C1 O21 1.259 1_565 S
C1 O24 1.258 . S
Co2 N11 2.057 . S
Co2 O18 2.117 1_554 S
Co2 O19 2.020 . S
Co2 O21 2.021 1_455 S
Co2 O26 2.063 1_554 S
C3 N5 1.316 . S
C3 N6 1.347 . S
C3 H8 0.931 1_655 S
C4 N5 1.375 . S
C4 C7 1.350 . S
C4 H9 0.930 . S
N5 Co0 2.057 . S
N5 C3 1.316 . S
N5 C4 1.375 . S
N6 C3 1.347 . S
N6 C7 1.373 . S
C7 C4 1.350 . S
C7 N6 1.373 . S
C7 H28 0.931 . S
H8 C3 0.931 1_455 S
H9 C4 0.930 . S
C10 O17 1.259 . S
C10 O18 1.258 . S
N11 Co2 2.057 . S
N11 C12 1.316 . S
N11 C13 1.375 . S
C12 N11 1.316 . S
C12 N14 1.347 . S
C12 H23 0.931 . S
C13 N11 1.375 . S
C13 C15 1.350 . S
C13 H22 0.930 . S
N14 C12 1.347 . S
N14 C15 1.373 . S
C15 C13 1.350 . S
C15 N14 1.373 . S
C15 H29 0.931 . S
C16 O19 1.256 1_565 S
C16 O20 1.255 . S
O17 Co0 2.021 1_445 S
O17 C10 1.259 . S
O18 Co2 2.117 1_556 S
O18 C10 1.258 . S
O19 Co2 2.020 . S
O19 C16 1.256 1_545 S
O20 Co0 2.062 1_454 S
O20 C16 1.255 . S
O21 C1 1.259 1_545 S
O21 Co2 2.021 1_655 S
H22 C13 0.930 . S
H23 C12 0.931 . S
O24 Co0 2.117 1_554 S
O24 C1 1.258 . S
O25 Co0 2.020 1_545 S
O25 C27 1.256 . S
O26 Co2 2.063 1_556 S
O26 C27 1.254 1_455 S
C27 O25 1.256 . S
C27 O26 1.254 1_655 S
H28 C7 0.931 . S
H29 C15 0.931 . S
Co30 N35 2.057 . S
Co30 O47 2.021 1_545 S
Co30 O50 2.062 1_545 S
Co30 O54 2.117 . S
Co30 O55 2.020 . S
C31 O51 1.259 . S
C31 O54 1.258 . S
Co32 N41 2.057 . S
Co32 O48 2.117 . S
Co32 O49 2.020 1_655 S
Co32 O51 2.021 1_665 S
Co32 O56 2.062 1_565 S
C33 N35 1.316 . S
C33 N36 1.347 . S
C33 H38 0.931 . S
C34 N35 1.375 . S
C34 C37 1.350 . S
C34 H39 0.930 . S
N35 Co30 2.057 . S
N35 C33 1.316 . S
N35 C34 1.375 . S
N36 C33 1.347 . S
N36 C37 1.373 . S
C37 C34 1.350 . S
C37 N36 1.373 . S
C37 H58 0.931 . S
H38 C33 0.931 . S
H39 C34 0.930 . S
C40 O47 1.259 1_655 S
C40 O48 1.258 . S
N41 Co32 2.057 . S
N41 C42 1.316 . S
N41 C43 1.375 . S
C42 N41 1.316 . S
C42 N44 1.347 . S
C42 H53 0.931 . S
C43 N41 1.375 . S
C43 C45 1.350 . S
C43 H52 0.930 . S
N44 C42 1.347 . S
N44 C45 1.373 . S
C45 C43 1.350 . S
C45 N44 1.373 . S
C45 H59 0.931 . S
C46 O49 1.256 . S
C46 O50 1.255 . S
O47 Co30 2.021 1_565 S
O47 C40 1.259 1_455 S
O48 Co32 2.117 . S
O48 C40 1.258 . S
O49 Co32 2.020 1_455 S
O49 C46 1.256 . S
O50 Co30 2.062 1_565 S
O50 C46 1.255 . S
O51 C31 1.259 . S
O51 Co32 2.021 1_445 S
H52 C43 0.930 . S
H53 C42 0.931 . S
O54 Co30 2.117 . S
O54 C31 1.258 . S
O55 Co30 2.020 . S
O55 C57 1.256 1_455 S
O56 Co32 2.062 1_545 S
O56 C57 1.255 . S
C57 O55 1.256 1_655 S
C57 O56 1.255 . S
H58 C37 0.931 . S
H59 C45 0.931 . S
Zn60 O66 1.920 . S
Zn60 O72 1.898 . S
Zn60 O75 1.905 . S
Zn61 O69 1.905 . S
Zn61 O70 1.898 . S
Zn61 O78 1.920 . S
Zn62 O65 2.080 . S
Zn62 O68 2.114 . S
Zn62 O71 2.120 . S
Zn62 O73 2.120 . S
Zn62 O74 2.114 . S
Zn62 O77 2.080 . S
C63 O68 1.166 . S
C63 O69 1.182 . S
C64 O70 1.167 . S
C64 O71 1.299 . S
O65 Zn62 2.080 . S
O65 C79 1.305 . S
O66 Zn60 1.920 . S
O66 C79 1.234 . S
C67 O72 1.167 . S
C67 O73 1.299 . S
O68 Zn62 2.114 . S
O68 C63 1.166 . S
O69 Zn61 1.905 . S
O69 C63 1.182 . S
O70 Zn61 1.898 . S
O70 C64 1.167 . S
O71 Zn62 2.120 . S
O71 C64 1.299 . S
O72 Zn60 1.898 . S
O72 C67 1.167 . S
O73 Zn62 2.120 . S
O73 C67 1.299 . S
O74 Zn62 2.114 . S
O74 C76 1.166 . S
O75 Zn60 1.905 . S
O75 C76 1.182 . S
C76 O74 1.166 . S
C76 O75 1.182 . S
O77 Zn62 2.080 . S
O77 C80 1.305 . S
O78 Zn61 1.920 . S
O78 C80 1.234 . S
C79 O65 1.305 . S
C79 O66 1.234 . S
C80 O77 1.305 . S
C80 O78 1.234 . S
Zn81 O87 1.920 . S
Zn81 O93 1.898 . S
Zn81 O96 1.905 . S
Zn82 O90 1.905 . S
Zn82 O91 1.898 . S
Zn82 O99 1.920 . S
Zn83 O86 2.080 . S
Zn83 O89 2.114 . S
Zn83 O92 2.120 . S
Zn83 O94 2.120 . S
Zn83 O95 2.114 . S
Zn83 O98 2.080 . S
C84 O89 1.166 . S
C84 O90 1.182 . S
C85 O91 1.167 . S
C85 O92 1.299 . S
O86 Zn83 2.080 . S
O86 C100 1.305 . S
O87 Zn81 1.920 . S
O87 C100 1.234 . S
C88 O93 1.167 . S
C88 O94 1.299 . S
O89 Zn83 2.114 . S
O89 C84 1.166 . S
O90 Zn82 1.905 . S
O90 C84 1.182 . S
O91 Zn82 1.898 . S
O91 C85 1.167 . S
O92 Zn83 2.120 . S
O92 C85 1.299 . S
O93 Zn81 1.898 . S
O93 C88 1.167 . S
O94 Zn83 2.120 . S
O94 C88 1.299 . S
O95 Zn83 2.114 . S
O95 C97 1.166 . S
O96 Zn81 1.905 . S
O96 C97 1.182 . S
C97 O95 1.166 . S
C97 O96 1.182 . S
O98 Zn83 2.080 . S
O98 C101 1.305 . S
O99 Zn82 1.920 . S
O99 C101 1.234 . S
C100 O86 1.305 . S
C100 O87 1.234 . S
C101 O98 1.305 . S
C101 O99 1.234 . S
C102 C103 1.391 . S
C102 C104 1.394 . S
C102 H118 0.931 . S
C103 C102 1.391 . S
C103 C107 1.376 . S
C104 C102 1.394 . S
C104 C105 1.369 . S
C104 C108 1.531 . S
C105 C104 1.369 . S
C105 C106 1.410 . S
C105 C113 1.503 . S
C106 C105 1.410 . S
C106 C107 1.392 . S
C106 C109 1.511 . S
C107 C103 1.376 . S
C107 C106 1.392 . S
C107 H119 0.929 . S
C108 C104 1.531 . S
C108 H120 0.960 . S
C108 H121 0.962 . S
C108 H122 0.960 . S
C109 C106 1.511 . S
C109 H123 0.961 . S
C109 H124 0.961 . S
C109 H125 0.961 . S
C110 C111 1.370 . S
C110 C112 1.363 . S
C110 H126 0.931 . S
C111 C110 1.370 . S
C111 C115 1.408 . S
C112 C110 1.363 . S
C112 C113 1.370 . S
C112 C116 1.524 . S
C113 C105 1.503 . S
C113 C112 1.370 . S
C113 C114 1.403 . S
C114 C113 1.403 . S
C114 C115 1.404 . S
C114 C117 1.539 . S
C115 C111 1.408 . S
C115 C114 1.404 . S
C115 H127 0.930 . S
C116 C112 1.524 . S
C116 H128 0.956 . S
C116 H129 0.961 . S
C116 H130 0.961 . S
C117 C114 1.539 . S
C117 H131 0.958 . S
C117 H132 0.961 . S
C117 H133 0.960 . S
H118 C102 0.931 . S
H119 C107 0.929 . S
H120 C108 0.960 . S
H121 C108 0.962 . S
H122 C108 0.960 . S
H123 C109 0.961 . S
H124 C109 0.961 . S
H125 C109 0.961 . S
H126 C110 0.931 . S
H127 C115 0.930 . S
H128 C116 0.956 . S
H129 C116 0.961 . S
H130 C116 0.961 . S
H131 C117 0.958 . S
H132 C117 0.961 . S
H133 C117 0.960 . S
C134 C135 1.391 . S
C134 C136 1.394 . S
C134 H150 0.931 . S
C135 C134 1.391 . S
C135 C139 1.376 . S
C136 C134 1.394 . S
C136 C137 1.369 . S
C136 C140 1.531 . S
C137 C136 1.369 . S
C137 C138 1.410 . S
C137 C145 1.503 . S
C138 C137 1.410 . S
C138 C139 1.392 . S
C138 C141 1.511 . S
C139 C135 1.376 . S
C139 C138 1.392 . S
C139 H151 0.929 . S
C140 C136 1.531 . S
C140 H152 0.960 . S
C140 H153 0.962 . S
C140 H154 0.960 . S
C141 C138 1.511 . S
C141 H155 0.961 . S
C141 H156 0.961 . S
C141 H157 0.961 . S
C142 C143 1.370 . S
C142 C144 1.363 . S
C142 H158 0.931 . S
C143 C142 1.370 . S
C143 C147 1.408 . S
C144 C142 1.363 . S
C144 C145 1.370 . S
C144 C148 1.524 . S
C145 C137 1.503 . S
C145 C144 1.370 . S
C145 C146 1.403 . S
C146 C145 1.403 . S
C146 C147 1.404 . S
C146 C149 1.539 . S
C147 C143 1.408 . S
C147 C146 1.404 . S
C147 H159 0.930 . S
C148 C144 1.524 . S
C148 H160 0.956 . S
C148 H161 0.961 . S
C148 H162 0.961 . S
C149 C146 1.539 . S
C149 H163 0.958 . S
C149 H164 0.961 . S
C149 H165 0.960 . S
H150 C134 0.931 . S
H151 C139 0.929 . S
H152 C140 0.960 . S
H153 C140 0.962 . S
H154 C140 0.960 . S
H155 C141 0.961 . S
H156 C141 0.961 . S
H157 C141 0.961 . S
H158 C142 0.931 . S
H159 C147 0.930 . S
H160 C148 0.956 . S
H161 C148 0.961 . S
H162 C148 0.961 . S
H163 C149 0.958 . S
H164 C149 0.961 . S
H165 C149 0.960 . S
C166 C167 1.391 . S
C166 C168 1.394 . S
C166 H182 0.931 . S
C167 C166 1.391 . S
C167 C171 1.376 . S
C168 C166 1.394 . S
C168 C169 1.369 . S
C168 C172 1.531 . S
C169 C168 1.369 . S
C169 C170 1.410 . S
C169 C177 1.503 . S
C170 C169 1.410 . S
C170 C171 1.392 . S
C170 C173 1.511 . S
C171 C167 1.376 . S
C171 C170 1.392 . S
C171 H183 0.929 . S
C172 C168 1.531 . S
C172 H184 0.960 . S
C172 H185 0.962 . S
C172 H186 0.960 . S
C173 C170 1.511 . S
C173 H187 0.961 . S
C173 H188 0.961 . S
C173 H189 0.961 . S
C174 C175 1.370 . S
C174 C176 1.363 . S
C174 H190 0.931 . S
C175 C174 1.370 . S
C175 C179 1.408 . S
C176 C174 1.363 . S
C176 C177 1.370 . S
C176 C180 1.524 . S
C177 C169 1.503 . S
C177 C176 1.370 . S
C177 C178 1.403 . S
C178 C177 1.403 . S
C178 C179 1.404 . S
C178 C181 1.539 . S
C179 C175 1.408 . S
C179 C178 1.404 . S
C179 H191 0.930 . S
C180 C176 1.524 . S
C180 H192 0.956 . S
C180 H193 0.961 . S
C180 H194 0.961 . S
C181 C178 1.539 . S
C181 H195 0.958 . S
C181 H196 0.961 . S
C181 H197 0.960 . S
H182 C166 0.931 . S
H183 C171 0.929 . S
H184 C172 0.960 . S
H185 C172 0.962 . S
H186 C172 0.960 . S
H187 C173 0.961 . S
H188 C173 0.961 . S
H189 C173 0.961 . S
H190 C174 0.931 . S
H191 C179 0.930 . S
H192 C180 0.956 . S
H193 C180 0.961 . S
H194 C180 0.961 . S
H195 C181 0.958 . S
H196 C181 0.961 . S
H197 C181 0.960 . S
C198 C199 1.391 . S
C198 C200 1.394 . S
C198 H214 0.931 1_655 S
C199 C198 1.391 . S
C199 C203 1.376 . S
C200 C198 1.394 . S
C200 C201 1.369 . S
C200 C204 1.531 1_655 S
C201 C200 1.369 . S
C201 C202 1.410 . S
C201 C209 1.503 . S
C202 C201 1.410 . S
C202 C203 1.392 . S
C202 C205 1.511 . S
C203 C199 1.376 . S
C203 C202 1.392 . S
C203 H215 0.929 . S
C204 C200 1.531 1_455 S
C204 H216 0.960 1_455 S
C204 H217 0.962 . S
C204 H218 0.960 . S
C205 C202 1.511 . S
C205 H219 0.961 . S
C205 H220 0.961 . S
C205 H221 0.961 . S
C206 C207 1.370 . S
C206 C208 1.363 . S
C206 H222 0.931 . S
C207 C206 1.370 . S
C207 C211 1.408 . S
C208 C206 1.363 . S
C208 C209 1.370 . S
C208 C212 1.524 . S
C209 C201 1.503 . S
C209 C208 1.370 . S
C209 C210 1.403 . S
C210 C209 1.403 . S
C210 C211 1.404 . S
C210 C213 1.539 . S
C211 C207 1.408 . S
C211 C210 1.404 . S
C211 H223 0.930 . S
C212 C208 1.524 . S
C212 H224 0.956 . S
C212 H225 0.961 . S
C212 H226 0.961 . S
C213 C210 1.539 . S
C213 H227 0.958 . S
C213 H228 0.961 . S
C213 H229 0.960 . S
H214 C198 0.931 1_455 S
H215 C203 0.929 . S
H216 C204 0.960 1_655 S
H217 C204 0.962 . S
H218 C204 0.960 . S
H219 C205 0.961 . S
H220 C205 0.961 . S
H221 C205 0.961 . S
H222 C206 0.931 . S
H223 C211 0.930 . S
H224 C212 0.956 . S
H225 C212 0.961 . S
H226 C212 0.961 . S
H227 C213 0.958 . S
H228 C213 0.961 . S
H229 C213 0.960 . S
C230 C231 1.391 . S
C230 C232 1.394 . S
C230 H246 0.931 . S
C231 C230 1.391 . S
C231 C235 1.376 . S
C232 C230 1.394 . S
C232 C233 1.369 . S
C232 C236 1.531 . S
C233 C232 1.369 . S
C233 C234 1.410 . S
C233 C241 1.503 . S
C234 C233 1.410 . S
C234 C235 1.392 . S
C234 C237 1.511 1_565 S
C235 C231 1.376 . S
C235 C234 1.392 . S
C235 H247 0.929 1_565 S
C236 C232 1.531 . S
C236 H248 0.960 . S
C236 H249 0.962 . S
C236 H250 0.960 . S
C237 C234 1.511 1_545 S
C237 H251 0.961 . S
C237 H252 0.961 1_545 S
C237 H253 0.961 . S
C238 C239 1.370 . S
C238 C240 1.363 . S
C238 H254 0.931 . S
C239 C238 1.370 . S
C239 C243 1.408 . S
C240 C238 1.363 . S
C240 C241 1.370 . S
C240 C244 1.524 . S
C241 C233 1.503 . S
C241 C240 1.370 . S
C241 C242 1.403 . S
C242 C241 1.403 . S
C242 C243 1.404 . S
C242 C245 1.539 . S
C243 C239 1.408 . S
C243 C242 1.404 . S
C243 H255 0.930 . S
C244 C240 1.524 . S
C244 H256 0.956 . S
C244 H257 0.961 . S
C244 H258 0.961 . S
C245 C242 1.539 . S
C245 H259 0.958 . S
C245 H260 0.961 . S
C245 H261 0.960 . S
H246 C230 0.931 . S
H247 C235 0.929 1_545 S
H248 C236 0.960 . S
H249 C236 0.962 . S
H250 C236 0.960 . S
H251 C237 0.961 . S
H252 C237 0.961 1_565 S
H253 C237 0.961 . S
H254 C238 0.931 . S
H255 C243 0.930 . S
H256 C244 0.956 . S
H257 C244 0.961 . S
H258 C244 0.961 . S
H259 C245 0.958 . S
H260 C245 0.961 . S
H261 C245 0.960 . S
C262 C263 1.391 . S
C262 C264 1.394 . S
C262 H278 0.931 . S
C263 C262 1.391 . S
C263 C267 1.376 . S
C264 C262 1.394 . S
C264 C265 1.369 . S
C264 C268 1.531 . S
C265 C264 1.369 . S
C265 C266 1.410 . S
C265 C273 1.503 . S
C266 C265 1.410 . S
C266 C267 1.392 . S
C266 C269 1.511 . S
C267 C263 1.376 . S
C267 C266 1.392 . S
C267 H279 0.929 . S
C268 C264 1.531 . S
C268 H280 0.960 . S
C268 H281 0.962 . S
C268 H282 0.960 . S
C269 C266 1.511 . S
C269 H283 0.961 . S
C269 H284 0.961 . S
C269 H285 0.961 . S
C270 C271 1.370 . S
C270 C272 1.363 . S
C270 H286 0.931 . S
C271 C270 1.370 . S
C271 C275 1.408 . S
C272 C270 1.363 . S
C272 C273 1.370 . S
C272 C276 1.524 . S
C273 C265 1.503 . S
C273 C272 1.370 . S
C273 C274 1.403 . S
C274 C273 1.403 . S
C274 C275 1.404 . S
C274 C277 1.539 . S
C275 C271 1.408 . S
C275 C274 1.404 . S
C275 H287 0.930 . S
C276 C272 1.524 . S
C276 H288 0.956 . S
C276 H289 0.961 . S
C276 H290 0.961 . S
C277 C274 1.539 . S
C277 H291 0.958 . S
C277 H292 0.961 . S
C277 H293 0.960 . S
H278 C262 0.931 . S
H279 C267 0.929 . S
H280 C268 0.960 . S
H281 C268 0.962 . S
H282 C268 0.960 . S
H283 C269 0.961 . S
H284 C269 0.961 . S
H285 C269 0.961 . S
H286 C270 0.931 . S
H287 C275 0.930 . S
H288 C276 0.956 . S
H289 C276 0.961 . S
H290 C276 0.961 . S
H291 C277 0.958 . S
H292 C277 0.961 . S
H293 C277 0.960 . S
C294 C295 1.391 . S
C294 C296 1.394 . S
C294 H310 0.931 . S
C295 C294 1.391 . S
C295 C299 1.376 . S
C296 C294 1.394 . S
C296 C297 1.369 . S
C296 C300 1.531 . S
C297 C296 1.369 . S
C297 C298 1.410 . S
C297 C305 1.503 . S
C298 C297 1.410 . S
C298 C299 1.392 . S
C298 C301 1.511 . S
C299 C295 1.376 . S
C299 C298 1.392 . S
C299 H311 0.929 . S
C300 C296 1.531 . S
C300 H312 0.960 . S
C300 H313 0.962 . S
C300 H314 0.960 . S
C301 C298 1.511 . S
C301 H315 0.961 . S
C301 H316 0.961 . S
C301 H317 0.961 . S
C302 C303 1.370 . S
C302 C304 1.363 . S
C302 H318 0.931 . S
C303 C302 1.370 . S
C303 C307 1.408 . S
C304 C302 1.363 . S
C304 C305 1.370 . S
C304 C308 1.524 . S
C305 C297 1.503 . S
C305 C304 1.370 . S
C305 C306 1.403 . S
C306 C305 1.403 . S
C306 C307 1.404 . S
C306 C309 1.539 . S
C307 C303 1.408 . S
C307 C306 1.404 . S
C307 H319 0.930 . S
C308 C304 1.524 . S
C308 H320 0.956 . S
C308 H321 0.961 . S
C308 H322 0.961 . S
C309 C306 1.539 . S
C309 H323 0.958 . S
C309 H324 0.961 . S
C309 H325 0.960 . S
H310 C294 0.931 . S
H311 C299 0.929 . S
H312 C300 0.960 . S
H313 C300 0.962 . S
H314 C300 0.960 . S
H315 C301 0.961 . S
H316 C301 0.961 . S
H317 C301 0.961 . S
H318 C302 0.931 . S
H319 C307 0.930 . S
H320 C308 0.956 . S
H321 C308 0.961 . S
H322 C308 0.961 . S
H323 C309 0.958 . S
H324 C309 0.961 . S
H325 C309 0.960 . S
C326 C327 1.391 . S
C326 C328 1.394 . S
C326 H342 0.931 . S
C327 C326 1.391 . S
C327 C331 1.376 . S
C328 C326 1.394 . S
C328 C329 1.369 . S
C328 C332 1.531 . S
C329 C328 1.369 . S
C329 C330 1.410 . S
C329 C337 1.503 . S
C330 C329 1.410 . S
C330 C331 1.392 . S
C330 C333 1.511 . S
C331 C327 1.376 . S
C331 C330 1.392 . S
C331 H343 0.929 . S
C332 C328 1.531 . S
C332 H344 0.960 . S
C332 H345 0.962 . S
C332 H346 0.960 . S
C333 C330 1.511 . S
C333 H347 0.961 . S
C333 H348 0.961 . S
C333 H349 0.961 . S
C334 C335 1.370 . S
C334 C336 1.363 . S
C334 H350 0.931 . S
C335 C334 1.370 . S
C335 C339 1.408 . S
C336 C334 1.363 . S
C336 C337 1.370 . S
C336 C340 1.524 . S
C337 C329 1.503 . S
C337 C336 1.370 . S
C337 C338 1.403 . S
C338 C337 1.403 . S
C338 C339 1.404 . S
C338 C341 1.539 . S
C339 C335 1.408 . S
C339 C338 1.404 . S
C339 H351 0.930 . S
C340 C336 1.524 . S
C340 H352 0.956 . S
C340 H353 0.961 . S
C340 H354 0.961 . S
C341 C338 1.539 . S
C341 H355 0.958 . S
C341 H356 0.961 . S
C341 H357 0.960 . S
H342 C326 0.931 . S
H343 C331 0.929 . S
H344 C332 0.960 . S
H345 C332 0.962 . S
H346 C332 0.960 . S
H347 C333 0.961 . S
H348 C333 0.961 . S
H349 C333 0.961 . S
H350 C334 0.931 . S
H351 C339 0.930 . S
H352 C340 0.956 . S
H353 C340 0.961 . S
H354 C340 0.961 . S
H355 C341 0.958 . S
H356 C341 0.961 . S
H357 C341 0.960 . S
C358 C359 1.391 . S
C358 C360 1.394 . S
C358 H374 0.931 . S
C359 C358 1.391 . S
C359 C363 1.376 . S
C360 C358 1.394 . S
C360 C361 1.369 . S
C360 C364 1.531 . S
C361 C360 1.369 . S
C361 C362 1.410 . S
C361 C369 1.503 . S
C362 C361 1.410 . S
C362 C363 1.392 . S
C362 C365 1.511 . S
C363 C359 1.376 . S
C363 C362 1.392 . S
C363 H375 0.929 . S
C364 C360 1.531 . S
C364 H376 0.960 . S
C364 H377 0.962 . S
C364 H378 0.960 . S
C365 C362 1.511 . S
C365 H379 0.961 . S
C365 H380 0.961 . S
C365 H381 0.961 . S
C366 C367 1.370 . S
C366 C368 1.363 . S
C366 H382 0.931 . S
C367 C366 1.370 . S
C367 C371 1.408 . S
C368 C366 1.363 . S
C368 C369 1.370 . S
C368 C372 1.524 . S
C369 C361 1.503 . S
C369 C368 1.370 . S
C369 C370 1.403 . S
C370 C369 1.403 . S
C370 C371 1.404 . S
C370 C373 1.539 . S
C371 C367 1.408 . S
C371 C370 1.404 . S
C371 H383 0.930 . S
C372 C368 1.524 . S
C372 H384 0.956 . S
C372 H385 0.961 . S
C372 H386 0.961 . S
C373 C370 1.539 . S
C373 H387 0.958 . S
C373 H388 0.961 . S
C373 H389 0.960 . S
H374 C358 0.931 . S
H375 C363 0.929 . S
H376 C364 0.960 . S
H377 C364 0.962 . S
H378 C364 0.960 . S
H379 C365 0.961 . S
H380 C365 0.961 . S
H381 C365 0.961 . S
H382 C366 0.931 . S
H383 C371 0.930 . S
H384 C372 0.956 . S
H385 C372 0.961 . S
H386 C372 0.961 . S
H387 C373 0.958 . S
H388 C373 0.961 . S
H389 C373 0.960 . S
C390 C391 1.391 . S
C390 C392 1.394 . S
C390 H406 0.931 . S
C391 C390 1.391 . S
C391 C395 1.376 . S
C392 C390 1.394 . S
C392 C393 1.369 . S
C392 C396 1.531 . S
C393 C392 1.369 . S
C393 C394 1.410 . S
C393 C401 1.503 . S
C394 C393 1.410 . S
C394 C395 1.392 . S
C394 C397 1.511 . S
C395 C391 1.376 . S
C395 C394 1.392 . S
C395 H407 0.929 . S
C396 C392 1.531 . S
C396 H408 0.960 . S
C396 H409 0.962 . S
C396 H410 0.960 1_545 S
C397 C394 1.511 . S
C397 H411 0.961 . S
C397 H412 0.961 . S
C397 H413 0.961 . S
C398 C399 1.370 . S
C398 C400 1.363 . S
C398 H414 0.931 . S
C399 C398 1.370 . S
C399 C403 1.408 . S
C400 C398 1.363 . S
C400 C401 1.370 . S
C400 C404 1.524 . S
C401 C393 1.503 . S
C401 C400 1.370 . S
C401 C402 1.403 . S
C402 C401 1.403 . S
C402 C403 1.404 . S
C402 C405 1.539 . S
C403 C399 1.408 . S
C403 C402 1.404 . S
C403 H415 0.930 . S
C404 C400 1.524 . S
C404 H416 0.956 . S
C404 H417 0.961 . S
C404 H418 0.961 . S
C405 C402 1.539 . S
C405 H419 0.958 . S
C405 H420 0.961 . S
C405 H421 0.960 . S
H406 C390 0.931 . S
H407 C395 0.929 . S
H408 C396 0.960 . S
H409 C396 0.962 . S
H410 C396 0.960 1_565 S
H411 C397 0.961 . S
H412 C397 0.961 . S
H413 C397 0.961 . S
H414 C398 0.931 . S
H415 C403 0.930 . S
H416 C404 0.956 . S
H417 C404 0.961 . S
H418 C404 0.961 . S
H419 C405 0.958 . S
H420 C405 0.961 . S
H421 C405 0.960 . S
C422 C423 1.391 . S
C422 C424 1.394 . S
C422 H438 0.931 . S
C423 C422 1.391 . S
C423 C427 1.376 . S
C424 C422 1.394 . S
C424 C425 1.369 . S
C424 C428 1.531 . S
C425 C424 1.369 . S
C425 C426 1.410 . S
C425 C433 1.503 . S
C426 C425 1.410 . S
C426 C427 1.392 . S
C426 C429 1.511 . S
C427 C423 1.376 . S
C427 C426 1.392 . S
C427 H439 0.929 . S
C428 C424 1.531 . S
C428 H440 0.960 . S
C428 H441 0.962 . S
C428 H442 0.960 . S
C429 C426 1.511 . S
C429 H443 0.961 . S
C429 H444 0.961 . S
C429 H445 0.961 . S
C430 C431 1.370 . S
C430 C432 1.363 . S
C430 H446 0.931 . S
C431 C430 1.370 . S
C431 C435 1.408 . S
C432 C430 1.363 . S
C432 C433 1.370 . S
C432 C436 1.524 . S
C433 C425 1.503 . S
C433 C432 1.370 . S
C433 C434 1.403 . S
C434 C433 1.403 . S
C434 C435 1.404 . S
C434 C437 1.539 . S
C435 C431 1.408 . S
C435 C434 1.404 . S
C435 H447 0.930 . S
C436 C432 1.524 . S
C436 H448 0.956 . S
C436 H449 0.961 . S
C436 H450 0.961 . S
C437 C434 1.539 . S
C437 H451 0.958 . S
C437 H452 0.961 . S
C437 H453 0.960 . S
H438 C422 0.931 . S
H439 C427 0.929 . S
H440 C428 0.960 . S
H441 C428 0.962 . S
H442 C428 0.960 . S
H443 C429 0.961 . S
H444 C429 0.961 . S
H445 C429 0.961 . S
H446 C430 0.931 . S
H447 C435 0.930 . S
H448 C436 0.956 . S
H449 C436 0.961 . S
H450 C436 0.961 . S
H451 C437 0.958 . S
H452 C437 0.961 . S
H453 C437 0.960 . S
C454 C455 1.391 . S
C454 C456 1.394 . S
C454 H470 0.931 . S
C455 C454 1.391 . S
C455 C459 1.376 . S
C456 C454 1.394 . S
C456 C457 1.369 . S
C456 C460 1.531 . S
C457 C456 1.369 . S
C457 C458 1.410 . S
C457 C465 1.503 . S
C458 C457 1.410 . S
C458 C459 1.392 . S
C458 C461 1.511 . S
C459 C455 1.376 . S
C459 C458 1.392 . S
C459 H471 0.929 . S
C460 C456 1.531 . S
C460 H472 0.960 . S
C460 H473 0.962 . S
C460 H474 0.960 . S
C461 C458 1.511 . S
C461 H475 0.961 . S
C461 H476 0.961 . S
C461 H477 0.961 . S
C462 C463 1.370 . S
C462 C464 1.363 . S
C462 H478 0.931 . S
C463 C462 1.370 . S
C463 C467 1.408 . S
C464 C462 1.363 . S
C464 C465 1.370 . S
C464 C468 1.524 . S
C465 C457 1.503 . S
C465 C464 1.370 . S
C465 C466 1.403 . S
C466 C465 1.403 . S
C466 C467 1.404 . S
C466 C469 1.539 . S
C467 C463 1.408 . S
C467 C466 1.404 . S
C467 H479 0.930 . S
C468 C464 1.524 . S
C468 H480 0.956 . S
C468 H481 0.961 . S
C468 H482 0.961 . S
C469 C466 1.539 . S
C469 H483 0.958 . S
C469 H484 0.961 . S
C469 H485 0.960 . S
H470 C454 0.931 . S
H471 C459 0.929 . S
H472 C460 0.960 . S
H473 C460 0.962 . S
H474 C460 0.960 . S
H475 C461 0.961 . S
H476 C461 0.961 . S
H477 C461 0.961 . S
H478 C462 0.931 . S
H479 C467 0.930 . S
H480 C468 0.956 . S
H481 C468 0.961 . S
H482 C468 0.961 . S
H483 C469 0.958 . S
H484 C469 0.961 . S
H485 C469 0.960 . S
C103 C16 1.504 . S
C111 C79 1.351 . S
C135 N36 1.224 . S
C143 C85 1.123 . S
C167 N14 1.222 . S
C175 C76 1.112 . S
C199 C57 1.633 . S
C207 C101 1.439 . S
C231 C1 1.795 . S
C239 C67 1.661 . S
C271 C84 1.566 . S
C263 C40 1.677 . S
C295 C46 1.501 . S
C303 C80 1.327 . S
C335 C97 1.545 . S
C327 C10 1.680 . S
C367 C64 1.629 . S
C359 C31 1.807 . S
C399 C100 1.443 . S
C391 C27 1.629 . S
C431 C63 1.132 . S
C423 N44 1.159 . S
C463 C88 1.078 . S
C455 N6 1.180 . S
