# Generated by pormake.
# Topology myd, (4,6)-cn, num edge types: 1
# Building blocks:
#     Node 0, Type 0, BuildingBlock: KOZSID_clean_sbu_0, # of connection points: 4
#     Node 1, Type 0, BuildingBlock: KOZSID_clean_sbu_0, # of connection points: 4
#     Node 2, Type 0, BuildingBlock: KOZSID_clean_sbu_0, # of connection points: 4
#     Node 3, Type 0, BuildingBlock: KOZSID_clean_sbu_0, # of connection points: 4
#     Node 4, Type 0, BuildingBlock: KOZSID_clean_sbu_0, # of connection points: 4
#     Node 5, Type 0, BuildingBlock: KOZSID_clean_sbu_0, # of connection points: 4
#     Node 6, Type 0, BuildingBlock: KOZSID_clean_sbu_0, # of connection points: 4
#     Node 7, Type 0, BuildingBlock: KOZSID_clean_sbu_0, # of connection points: 4
#     Node 8, Type 0, BuildingBlock: KOZSID_clean_sbu_0, # of connection points: 4
#     Node 9, Type 0, BuildingBlock: KOZSID_clean_sbu_0, # of connection points: 4
#     Node 10, Type 0, BuildingBlock: KOZSID_clean_sbu_0, # of connection points: 4
#     Node 11, Type 0, BuildingBlock: KOZSID_clean_sbu_0, # of connection points: 4
#     Node 12, Type 1, BuildingBlock: VOLQOD_clean_sbu_1, # of connection points: 6
#     Node 13, Type 1, BuildingBlock: VOLQOD_clean_sbu_1, # of connection points: 6
#     Node 14, Type 1, BuildingBlock: VOLQOD_clean_sbu_1, # of connection points: 6
#     Node 15, Type 1, BuildingBlock: VOLQOD_clean_sbu_1, # of connection points: 6
#     Node 16, Type 1, BuildingBlock: VOLQOD_clean_sbu_1, # of connection points: 6
#     Node 17, Type 1, BuildingBlock: VOLQOD_clean_sbu_1, # of connection points: 6
#     Node 18, Type 1, BuildingBlock: VOLQOD_clean_sbu_1, # of connection points: 6
#     Node 19, Type 1, BuildingBlock: VOLQOD_clean_sbu_1, # of connection points: 6
#     Edge 20, Type (0, 1), BuildingBlock: CIFDUS_clean_linker_0, # of connection points: 2
#     Edge 21, Type (0, 1), BuildingBlock: CIFDUS_clean_linker_0, # of connection points: 2
#     Edge 22, Type (0, 1), BuildingBlock: CIFDUS_clean_linker_0, # of connection points: 2
#     Edge 23, Type (0, 1), BuildingBlock: CIFDUS_clean_linker_0, # of connection points: 2
#     Edge 24, Type (0, 1), BuildingBlock: CIFDUS_clean_linker_0, # of connection points: 2
#     Edge 25, Type (0, 1), BuildingBlock: CIFDUS_clean_linker_0, # of connection points: 2
#     Edge 26, Type (0, 1), BuildingBlock: CIFDUS_clean_linker_0, # of connection points: 2
#     Edge 27, Type (0, 1), BuildingBlock: CIFDUS_clean_linker_0, # of connection points: 2
#     Edge 28, Type (0, 1), BuildingBlock: CIFDUS_clean_linker_0, # of connection points: 2
#     Edge 29, Type (0, 1), BuildingBlock: CIFDUS_clean_linker_0, # of connection points: 2
#     Edge 30, Type (0, 1), BuildingBlock: CIFDUS_clean_linker_0, # of connection points: 2
#     Edge 31, Type (0, 1), BuildingBlock: CIFDUS_clean_linker_0, # of connection points: 2
#     Edge 32, Type (0, 1), BuildingBlock: CIFDUS_clean_linker_0, # of connection points: 2
#     Edge 33, Type (0, 1), BuildingBlock: CIFDUS_clean_linker_0, # of connection points: 2
#     Edge 34, Type (0, 1), BuildingBlock: CIFDUS_clean_linker_0, # of connection points: 2
#     Edge 35, Type (0, 1), BuildingBlock: CIFDUS_clean_linker_0, # of connection points: 2
#     Edge 36, Type (0, 1), BuildingBlock: CIFDUS_clean_linker_0, # of connection points: 2
#     Edge 37, Type (0, 1), BuildingBlock: CIFDUS_clean_linker_0, # of connection points: 2
#     Edge 38, Type (0, 1), BuildingBlock: CIFDUS_clean_linker_0, # of connection points: 2
#     Edge 39, Type (0, 1), BuildingBlock: CIFDUS_clean_linker_0, # of connection points: 2
#     Edge 40, Type (0, 1), BuildingBlock: CIFDUS_clean_linker_0, # of connection points: 2
#     Edge 41, Type (0, 1), BuildingBlock: CIFDUS_clean_linker_0, # of connection points: 2
#     Edge 42, Type (0, 1), BuildingBlock: CIFDUS_clean_linker_0, # of connection points: 2
#     Edge 43, Type (0, 1), BuildingBlock: CIFDUS_clean_linker_0, # of connection points: 2
#     Edge 44, Type (0, 1), BuildingBlock: CIFDUS_clean_linker_0, # of connection points: 2
#     Edge 45, Type (0, 1), BuildingBlock: CIFDUS_clean_linker_0, # of connection points: 2
#     Edge 46, Type (0, 1), BuildingBlock: CIFDUS_clean_linker_0, # of connection points: 2
#     Edge 47, Type (0, 1), BuildingBlock: CIFDUS_clean_linker_0, # of connection points: 2
#     Edge 48, Type (0, 1), BuildingBlock: CIFDUS_clean_linker_0, # of connection points: 2
#     Edge 49, Type (0, 1), BuildingBlock: CIFDUS_clean_linker_0, # of connection points: 2
#     Edge 50, Type (0, 1), BuildingBlock: CIFDUS_clean_linker_0, # of connection points: 2
#     Edge 51, Type (0, 1), BuildingBlock: CIFDUS_clean_linker_0, # of connection points: 2
#     Edge 52, Type (0, 1), BuildingBlock: CIFDUS_clean_linker_0, # of connection points: 2
#     Edge 53, Type (0, 1), BuildingBlock: CIFDUS_clean_linker_0, # of connection points: 2
#     Edge 54, Type (0, 1), BuildingBlock: CIFDUS_clean_linker_0, # of connection points: 2
#     Edge 55, Type (0, 1), BuildingBlock: CIFDUS_clean_linker_0, # of connection points: 2
#     Edge 56, Type (0, 1), BuildingBlock: CIFDUS_clean_linker_0, # of connection points: 2
#     Edge 57, Type (0, 1), BuildingBlock: CIFDUS_clean_linker_0, # of connection points: 2
#     Edge 58, Type (0, 1), BuildingBlock: CIFDUS_clean_linker_0, # of connection points: 2
#     Edge 59, Type (0, 1), BuildingBlock: CIFDUS_clean_linker_0, # of connection points: 2
#     Edge 60, Type (0, 1), BuildingBlock: CIFDUS_clean_linker_0, # of connection points: 2
#     Edge 61, Type (0, 1), BuildingBlock: CIFDUS_clean_linker_0, # of connection points: 2
#     Edge 62, Type (0, 1), BuildingBlock: CIFDUS_clean_linker_0, # of connection points: 2
#     Edge 63, Type (0, 1), BuildingBlock: CIFDUS_clean_linker_0, # of connection points: 2
#     Edge 64, Type (0, 1), BuildingBlock: CIFDUS_clean_linker_0, # of connection points: 2
#     Edge 65, Type (0, 1), BuildingBlock: CIFDUS_clean_linker_0, # of connection points: 2
#     Edge 66, Type (0, 1), BuildingBlock: CIFDUS_clean_linker_0, # of connection points: 2
#     Edge 67, Type (0, 1), BuildingBlock: CIFDUS_clean_linker_0, # of connection points: 2
# Relax obj value: 0.176
# Max RMSD: 0.168
# Mean RMSD: 0.129
data_MOF--net-myd--node1-KOZSID_clean_sbu_0--node2-VOLQOD_clean_sbu_1--edge1-CIFDUS_clean_linker_0
_symmetry_space_group_name_H-M    P1
_symmetry_Int_Tables_number       1
_symmetry_cell_setting            triclinic
loop_
_symmetry_equiv_pos_as_xyz
'x, y, z'
_cell_length_a     46.3152
_cell_length_b     46.51567
_cell_length_c     46.460275
_cell_angle_alpha  92.813887
_cell_angle_beta   90.557201
_cell_angle_gamma 93.294963
loop_
_atom_site_label
_atom_site_type_symbol
_atom_site_fract_x
_atom_site_fract_y
_atom_site_fract_z
_atom_type_partial_charge
C0 C 0.97611 0.28548 0.36046 0.0
C1 C 0.94795 0.28915 0.36918 0.0
C2 C 0.93088 0.26846 0.35422 0.0
C3 C 0.9495 0.25351 0.33718 0.0
N4 N 0.97753 0.26284 0.34102 0.0
Co5 Co 0.01137 0.25028 0.31788 0.0
N6 N 0.98578 0.2256 0.29052 0.0
C7 C 0.95703 0.21962 0.29311 0.0
C8 C 0.9453 0.20194 0.271 0.0
C9 C 0.96788 0.19638 0.25323 0.0
C10 C 0.99223 0.21102 0.26558 0.0
N11 N 0.04527 0.2389 0.29423 0.0
C12 C 0.04606 0.22375 0.2686 0.0
C13 C 0.07426 0.22148 0.25918 0.0
C14 C 0.09185 0.23597 0.27942 0.0
C15 C 0.07352 0.24624 0.29996 0.0
N16 N 0.03693 0.27479 0.34535 0.0
C17 C 0.06614 0.2764 0.34645 0.0
C18 C 0.07749 0.29659 0.36662 0.0
C19 C 0.05414 0.3091 0.37855 0.0
C20 C 0.02986 0.29578 0.36486 0.0
N21 N 0.01527 0.2159 0.34201 0.0
C22 C 0.02004 0.16081 0.36471 0.0
C23 C 0.04457 0.17784 0.35776 0.0
C24 C 0.04175 0.20516 0.34703 0.0
C25 C 0.99328 0.17293 0.36265 0.0
C26 C 0.99143 0.20028 0.35152 0.0
N27 N 0.00733 0.28366 0.29368 0.0
C28 C 0.02848 0.32356 0.26815 0.0
C29 C 1.00135 0.32948 0.25724 0.0
C30 C 0.97725 0.31251 0.26532 0.0
C31 C 0.98072 0.2897 0.2832 0.0
C32 C 0.03093 0.30089 0.28659 0.0
H33 H 0.96167 0.27688 0.28796 0.0
H34 H 0.05208 0.29737 0.29467 0.0
H35 H 0.06141 0.21671 0.34233 0.0
H36 H 0.97028 0.20772 0.35018 0.0
C37 C 0.94125 0.23322 0.31489 0.0
C38 C 1.00067 0.30507 0.36953 0.0
C39 C 0.02085 0.21097 0.25255 0.0
C40 C 0.08203 0.26318 0.32464 0.0
H41 H 0.94042 0.30574 0.38392 0.0
H42 H 0.90751 0.26578 0.35447 0.0
H43 H 0.92283 0.19468 0.26771 0.0
H44 H 0.96653 0.1834 0.23324 0.0
H45 H 0.08138 0.21051 0.23966 0.0
H46 H 0.1152 0.23891 0.27906 0.0
H47 H 0.10007 0.30296 0.37066 0.0
H48 H 0.05488 0.32689 0.39451 0.0
H49 H 0.06596 0.16987 0.36002 0.0
H50 H 0.97361 0.16085 0.36827 0.0
H51 H 0.04768 0.33634 0.26244 0.0
H52 H 0.95589 0.3162 0.25706 0.0
C53 C 0.99025 0.70931 0.11867 0.0
C54 C 0.96419 0.69911 0.10588 0.0
C55 C 0.9433 0.7152 0.11789 0.0
C56 C 0.95772 0.73421 0.13722 0.0
N57 N 0.98661 0.73141 0.13813 0.0
Co58 Co 0.01582 0.75466 0.16303 0.0
N59 N 0.98469 0.77553 0.18352 0.0
C60 C 0.95581 0.77165 0.17889 0.0
C61 C 0.93979 0.78848 0.19689 0.0
C62 C 0.95959 0.80389 0.21426 0.0
C63 C 0.98663 0.79551 0.20576 0.0
N64 N 0.04515 0.77867 0.18716 0.0
C65 C 0.04138 0.79916 0.20831 0.0
C66 C 0.06766 0.81097 0.21935 0.0
C67 C 0.08877 0.79752 0.20458 0.0
C68 C 0.07429 0.77834 0.18548 0.0
N69 N 0.04685 0.7329 0.14335 0.0
C70 C 0.07574 0.73652 0.14807 0.0
C71 C 0.09145 0.71729 0.13243 0.0
C72 C 0.07138 0.69999 0.11713 0.0
C73 C 0.04454 0.7098 0.12436 0.0
N74 N 0.01838 0.78457 0.13366 0.0
C75 C 0.02396 0.83453 0.10172 0.0
C76 C 0.04798 0.81902 0.10791 0.0
C77 C 0.04469 0.79417 0.12345 0.0
C78 C 0.99673 0.82312 0.10933 0.0
C79 C 0.99444 0.79817 0.12508 0.0
N80 N 0.01335 0.72532 0.19273 0.0
C81 C 0.03593 0.70129 0.23133 0.0
C82 C 0.00937 0.68844 0.23913 0.0
C83 C 0.98498 0.69331 0.22248 0.0
C84 C 0.9874 0.71182 0.1996 0.0
C85 C 0.03749 0.71919 0.20805 0.0
H86 H 0.96793 0.71542 0.18814 0.0
H87 H 0.05841 0.72827 0.20316 0.0
H88 H 0.06399 0.78382 0.1278 0.0
H89 H 0.97317 0.79101 0.13096 0.0
C90 C 0.94448 0.75265 0.15692 0.0
C91 C 0.01748 0.69598 0.11323 0.0
C92 C 0.01349 0.80739 0.21928 0.0
C93 C 0.08737 0.75813 0.16744 0.0
H94 H 0.96052 0.68133 0.09013 0.0
H95 H 0.92022 0.71258 0.11384 0.0
H96 H 0.91651 0.7895 0.19725 0.0
H97 H 0.9547 0.81962 0.23119 0.0
H98 H 0.07124 0.82728 0.23663 0.0
H99 H 0.11192 0.80082 0.20789 0.0
H100 H 0.11468 0.7158 0.13244 0.0
H101 H 0.07587 0.68198 0.10254 0.0
H102 H 0.06946 0.82665 0.10168 0.0
H103 H 0.97745 0.83425 0.10463 0.0
H104 H 0.0555 0.69768 0.24327 0.0
H105 H 0.96393 0.68371 0.22773 0.0
C106 C 0.37291 0.97256 0.29556 0.0
C107 C 0.37987 0.94434 0.29912 0.0
C108 C 0.368 0.92829 0.27612 0.0
C109 C 0.35451 0.94756 0.25993 0.0
N110 N 0.35769 0.97509 0.27077 0.0
Co111 Co 0.33894 0.00946 0.2561 0.0
N112 N 0.31706 0.98516 0.22528 0.0
C113 C 0.31909 0.95658 0.21929 0.0
C114 C 0.30232 0.94596 0.1963 0.0
C115 C 0.28899 0.96918 0.18676 0.0
C116 C 0.29851 0.99276 0.20454 0.0
N117 N 0.31949 0.04376 0.24218 0.0
C118 C 0.30011 0.04572 0.22036 0.0
C119 C 0.29235 0.07389 0.21784 0.0
C120 C 0.30734 0.09029 0.23875 0.0
C121 C 0.32338 0.07134 0.25279 0.0
N122 N 0.36134 0.03377 0.28649 0.0
C123 C 0.36208 0.0628 0.29047 0.0
C124 C 0.37824 0.0732 0.31401 0.0
C125 C 0.38789 0.04935 0.32617 0.0
C126 C 0.37697 0.02571 0.30928 0.0
N127 N 0.37055 0.01611 0.22799 0.0
C128 C 0.39957 0.02655 0.17634 0.0
C129 C 0.39354 0.04926 0.19571 0.0
C130 C 0.37958 0.04356 0.22146 0.0
C131 C 0.39451 0.99845 0.18514 0.0
C132 C 0.38041 0.99377 0.21114 0.0
N133 N 0.3071 0.00288 0.28352 0.0
C134 C 0.27615 0.02038 0.32133 0.0
C135 C 0.26086 0.99366 0.32128 0.0
C136 C 0.26938 0.97148 0.3025 0.0
C137 C 0.29256 0.97644 0.28414 0.0
C138 C 0.29892 0.02459 0.3022 0.0
H139 H 0.29827 0.95861 0.27051 0.0
H140 H 0.30943 0.04562 0.30269 0.0
H141 H 0.37496 0.06182 0.23492 0.0
H142 H 0.37637 0.97189 0.21629 0.0
C143 C 0.33653 0.9402 0.23605 0.0
C144 C 0.38002 0.99599 0.31692 0.0
C145 C 0.28933 0.02187 0.20077 0.0
C146 C 0.34361 0.07906 0.27475 0.0
H147 H 0.39153 0.93612 0.31697 0.0
H148 H 0.36807 0.90515 0.27234 0.0
H149 H 0.30005 0.92395 0.1875 0.0
H150 H 0.27405 0.9688 0.16868 0.0
H151 H 0.27779 0.08189 0.20214 0.0
H152 H 0.3071 0.11339 0.24279 0.0
H153 H 0.38112 0.09532 0.32238 0.0
H154 H 0.40042 0.04927 0.34595 0.0
H155 H 0.39836 0.07144 0.19041 0.0
H156 H 0.3996 0.9801 0.17123 0.0
H157 H 0.27006 0.03817 0.3355 0.0
H158 H 0.25822 0.95034 0.30206 0.0
C159 C 0.63197 0.47565 0.2257 0.0
C160 C 0.61579 0.45047 0.21766 0.0
C161 C 0.62749 0.42891 0.23201 0.0
C162 C 0.65009 0.44211 0.24785 0.0
N163 N 0.65314 0.4709 0.24492 0.0
Co164 Co 0.684 0.49845 0.26247 0.0
N165 N 0.70486 0.46613 0.27861 0.0
C166 C 0.69649 0.43774 0.27692 0.0
C167 C 0.7158 0.42067 0.28932 0.0
C168 C 0.73796 0.43923 0.29931 0.0
C169 C 0.73078 0.46664 0.29241 0.0
N170 N 0.71469 0.52616 0.28006 0.0
C171 C 0.73951 0.52094 0.29394 0.0
C172 C 0.75509 0.54636 0.30261 0.0
C173 C 0.73966 0.56842 0.2936 0.0
C174 C 0.71564 0.55531 0.28005 0.0
N175 N 0.6634 0.53067 0.24583 0.0
C176 C 0.67029 0.5593 0.24935 0.0
C177 C 0.65296 0.57589 0.23373 0.0
C178 C 0.63431 0.55666 0.21882 0.0
C179 C 0.64143 0.52945 0.22633 0.0
N180 N 0.66132 0.50205 0.29884 0.0
C181 C 0.64009 0.50715 0.35559 0.0
C182 C 0.64781 0.53152 0.34043 0.0
C183 C 0.65786 0.52852 0.31226 0.0
C184 C 0.64064 0.48025 0.34101 0.0
C185 C 0.65116 0.47822 0.31281 0.0
N186 N 0.70714 0.49484 0.22689 0.0
C187 C 0.74166 0.51606 0.19422 0.0
C188 C 0.74722 0.48891 0.18199 0.0
C189 C 0.73094 0.46496 0.19138 0.0
C190 C 0.71114 0.46838 0.21371 0.0
C191 C 0.72146 0.51856 0.21623 0.0
H192 H 0.69993 0.44927 0.22065 0.0
H193 H 0.71832 0.5398 0.22493 0.0
H194 H 0.66348 0.54802 0.30227 0.0
H195 H 0.65166 0.45705 0.30327 0.0
C196 C 0.67093 0.42771 0.26255 0.0
C197 C 0.62826 0.50306 0.21269 0.0
C198 C 0.74946 0.49241 0.29893 0.0
C199 C 0.69474 0.56966 0.26535 0.0
H200 H 0.5981 0.44777 0.20222 0.0
H201 H 0.62125 0.40611 0.22993 0.0
H202 H 0.7142 0.39745 0.2905 0.0
H203 H 0.75736 0.43326 0.31014 0.0
H204 H 0.7757 0.5487 0.31392 0.0
H205 H 0.7456 0.59127 0.296 0.0
H206 H 0.65454 0.59908 0.23235 0.0
H207 H 0.61798 0.56189 0.20339 0.0
H208 H 0.64685 0.55293 0.35056 0.0
H209 H 0.63441 0.46073 0.35176 0.0
H210 H 0.7532 0.53532 0.18714 0.0
H211 H 0.73436 0.44349 0.18247 0.0
C212 C 0.32133 0.3866 0.98222 0.0
C213 C 0.3279 0.39771 0.95574 0.0
C214 C 0.30932 0.38374 0.93602 0.0
C215 C 0.29258 0.36491 0.95149 0.0
N216 N 0.29893 0.36643 0.98003 0.0
Co217 Co 0.28172 0.34126 0.01012 0.0
N218 N 0.25812 0.31712 0.98048 0.0
C219 C 0.25717 0.32071 0.95177 0.0
C220 C 0.23846 0.30124 0.93699 0.0
C221 C 0.22655 0.28433 0.9575 0.0
C222 C 0.23875 0.2945 0.98371 0.0
N223 N 0.26465 0.3162 0.04035 0.0
C224 C 0.24465 0.29374 0.0379 0.0
C225 C 0.23855 0.28249 0.06447 0.0
C226 C 0.2549 0.2987 0.08447 0.0
C227 C 0.27007 0.31875 0.06907 0.0
N228 N 0.30545 0.36524 0.03971 0.0
C229 C 0.30541 0.36277 0.06859 0.0
C230 C 0.3251 0.3814 0.08315 0.0
C231 C 0.33907 0.39621 0.06227 0.0
C232 C 0.32705 0.38562 0.03613 0.0
N233 N 0.24887 0.36696 0.01514 0.0
C234 C 0.19465 0.39108 0.02181 0.0
C235 C 0.21143 0.38524 0.04577 0.0
C236 C 0.23842 0.37368 0.04198 0.0
C237 C 0.20678 0.38741 0.99461 0.0
C238 C 0.23378 0.37557 0.9918 0.0
N239 N 0.31402 0.31522 0.00492 0.0
C240 C 0.34894 0.28446 0.0246 0.0
C241 C 0.35796 0.27612 0.99697 0.0
C242 C 0.34513 0.28822 0.97347 0.0
C243 C 0.32329 0.30739 0.97788 0.0
C244 C 0.32733 0.30416 0.02809 0.0
H245 H 0.31393 0.3153 0.95902 0.0
H246 H 0.32154 0.30996 0.04967 0.0
H247 H 0.24984 0.36929 0.06109 0.0
H248 H 0.2413 0.37248 0.97042 0.0
C249 C 0.27333 0.34319 0.93948 0.0
C250 C 0.33824 0.39416 0.00845 0.0
C251 C 0.23043 0.28267 0.01114 0.0
C252 C 0.28893 0.34072 0.08105 0.0
H253 H 0.34505 0.41347 0.95096 0.0
H254 H 0.30908 0.38596 0.91294 0.0
H255 H 0.23366 0.29983 0.9141 0.0
H256 H 0.21035 0.26682 0.95368 0.0
H257 H 0.22356 0.26461 0.06899 0.0
H258 H 0.25539 0.29638 0.10754 0.0
H259 H 0.3297 0.38304 0.10608 0.0
H260 H 0.35681 0.41223 0.06573 0.0
H261 H 0.20334 0.38867 0.0674 0.0
H262 H 0.19481 0.39203 0.97539 0.0
H263 H 0.35851 0.27581 0.04346 0.0
H264 H 0.35123 0.28219 0.95164 0.0
C265 C 0.21535 0.62039 0.47675 0.0
C266 C 0.21187 0.60758 0.4493 0.0
C267 C 0.23435 0.61842 0.43342 0.0
C268 C 0.25003 0.63723 0.4521 0.0
N269 N 0.23954 0.63817 0.47912 0.0
Co270 Co 0.25163 0.66593 0.51178 0.0
N271 N 0.27804 0.68855 0.48655 0.0
C272 C 0.28592 0.68079 0.45944 0.0
C273 C 0.30461 0.70071 0.44758 0.0
C274 C 0.30885 0.72241 0.46835 0.0
C275 C 0.29248 0.71439 0.49186 0.0
N276 N 0.26177 0.69475 0.54414 0.0
C277 C 0.27653 0.72068 0.5437 0.0
C278 C 0.27728 0.73491 0.57072 0.0
C279 C 0.26214 0.71738 0.58873 0.0
C280 C 0.25297 0.69361 0.57175 0.0
N281 N 0.22589 0.64246 0.537 0.0
C282 C 0.22405 0.64509 0.56598 0.0
C283 C 0.20252 0.62723 0.57669 0.0
C284 C 0.1894 0.61316 0.55305 0.0
C285 C 0.20381 0.62322 0.52923 0.0
N286 N 0.28554 0.64281 0.5221 0.0
C287 C 0.34114 0.62302 0.53439 0.0
C288 C 0.32454 0.63565 0.55594 0.0
C289 C 0.29703 0.64477 0.54955 0.0
C290 C 0.3282 0.61782 0.50716 0.0
C291 C 0.30056 0.6276 0.50159 0.0
N292 N 0.21903 0.68948 0.50175 0.0
C293 C 0.17782 0.7161 0.51634 0.0
C294 C 0.17666 0.72832 0.48951 0.0
C295 C 0.19624 0.71979 0.46848 0.0
C296 C 0.21683 0.70006 0.47485 0.0
C297 C 0.1992 0.69705 0.52208 0.0
H298 H 0.23126 0.69403 0.45799 0.0
H299 H 0.19987 0.68919 0.54334 0.0
H300 H 0.28601 0.65402 0.56728 0.0
H301 H 0.2923 0.62314 0.48031 0.0
C302 C 0.27207 0.65706 0.44431 0.0
C303 C 0.19422 0.61683 0.4995 0.0
C304 C 0.29065 0.73225 0.51844 0.0
C305 C 0.23646 0.66965 0.58098 0.0
H306 H 0.19421 0.59296 0.44139 0.0
H307 H 0.23773 0.61452 0.41058 0.0
H308 H 0.3131 0.70016 0.42595 0.0
H309 H 0.32199 0.74216 0.46616 0.0
H310 H 0.28774 0.75575 0.57679 0.0
H311 H 0.25818 0.72155 0.61143 0.0
H312 H 0.19524 0.6267 0.59874 0.0
H313 H 0.17032 0.59863 0.55329 0.0
H314 H 0.33296 0.639 0.57777 0.0
H315 H 0.33981 0.60737 0.48983 0.0
H316 H 0.16304 0.72216 0.53322 0.0
H317 H 0.19578 0.72848 0.44728 0.0
C318 C 0.7891 0.85125 0.46852 0.0
C319 C 0.79069 0.86125 0.44093 0.0
C320 C 0.76638 0.84982 0.42634 0.0
C321 C 0.75142 0.83349 0.44578 0.0
N322 N 0.76482 0.8341 0.47161 0.0
Co323 Co 0.75211 0.81257 0.50549 0.0
N324 N 0.72662 0.78515 0.48132 0.0
C325 C 0.71754 0.78935 0.45426 0.0
C326 C 0.69917 0.76729 0.44313 0.0
C327 C 0.69606 0.7483 0.46469 0.0
C328 C 0.71264 0.75996 0.48795 0.0
N329 N 0.73982 0.79125 0.53974 0.0
C330 C 0.7253 0.76526 0.54142 0.0
C331 C 0.72025 0.75913 0.57 0.0
C332 C 0.73151 0.7823 0.58659 0.0
C333 C 0.74281 0.80126 0.56741 0.0
N334 N 0.77731 0.84026 0.52941 0.0
C335 C 0.77565 0.84568 0.558 0.0
C336 C 0.79681 0.86554 0.56841 0.0
C337 C 0.81278 0.87288 0.54484 0.0
C338 C 0.80039 0.85697 0.52142 0.0
N339 N 0.71936 0.83741 0.5107 0.0
C340 C 0.66982 0.86971 0.51042 0.0
C341 C 0.66815 0.84074 0.51737 0.0
C342 C 0.69285 0.82512 0.51725 0.0
C343 C 0.69732 0.88273 0.50528 0.0
C344 C 0.72185 0.86621 0.50565 0.0
N345 N 0.7844 0.78744 0.4998 0.0
C346 C 0.82386 0.76174 0.51831 0.0
C347 C 0.82897 0.74951 0.49072 0.0
C348 C 0.81183 0.75755 0.46776 0.0
C349 C 0.78976 0.77629 0.47274 0.0
C350 C 0.80149 0.78063 0.52238 0.0
H351 H 0.77681 0.78153 0.45457 0.0
H352 H 0.79775 0.78941 0.54385 0.0
H353 H 0.69004 0.80271 0.52161 0.0
H354 H 0.74266 0.87648 0.50098 0.0
C355 C 0.72901 0.81265 0.43908 0.0
C356 C 0.81027 0.85867 0.49175 0.0
C357 C 0.71186 0.74824 0.51679 0.0
C358 C 0.7587 0.82718 0.57465 0.0
H359 H 0.80775 0.87496 0.43216 0.0
H360 H 0.76122 0.85176 0.40378 0.0
H361 H 0.68944 0.76508 0.42181 0.0
H362 H 0.6825 0.72853 0.46368 0.0
H363 H 0.7086 0.74042 0.57805 0.0
H364 H 0.73154 0.78493 0.60987 0.0
H365 H 0.80124 0.8725 0.59067 0.0
H366 H 0.83156 0.88784 0.5449 0.0
H367 H 0.64769 0.82987 0.52257 0.0
H368 H 0.6998 0.90517 0.50013 0.0
H369 H 0.83642 0.75612 0.53677 0.0
H370 H 0.81525 0.74926 0.44594 0.0
C371 C 0.48058 0.80731 0.87418 0.0
C372 C 0.45348 0.81311 0.88468 0.0
C373 C 0.43447 0.7923 0.87259 0.0
C374 C 0.45095 0.77504 0.85543 0.0
N375 N 0.47942 0.78335 0.85623 0.0
Co376 Co 0.51094 0.76545 0.83346 0.0
N377 N 0.48237 0.73914 0.81063 0.0
C378 C 0.45327 0.73764 0.8134 0.0
C379 C 0.43925 0.71818 0.7942 0.0
C380 C 0.46063 0.70669 0.77804 0.0
C381 C 0.48659 0.71985 0.78839 0.0
N382 N 0.54263 0.74707 0.81135 0.0
C383 C 0.54125 0.7263 0.78976 0.0
C384 C 0.56865 0.71963 0.7806 0.0
C385 C 0.58798 0.7366 0.79708 0.0
C386 C 0.57143 0.75267 0.81524 0.0
N387 N 0.53942 0.79261 0.85531 0.0
C388 C 0.56855 0.79377 0.85321 0.0
C389 C 0.58224 0.81598 0.86948 0.0
C390 C 0.56049 0.83036 0.88218 0.0
C391 C 0.53476 0.81599 0.87283 0.0
N392 N 0.51395 0.736 0.86315 0.0
C393 C 0.51906 0.69031 0.90065 0.0
C394 C 0.54291 0.70876 0.89457 0.0
C395 C 0.5399 0.73123 0.87601 0.0
C396 C 0.49233 0.69618 0.88888 0.0
C397 C 0.49027 0.71893 0.87052 0.0
N398 N 0.50773 0.79454 0.80399 0.0
C399 C 0.52948 0.82664 0.7698 0.0
C400 C 0.50236 0.836 0.76238 0.0
C401 C 0.4781 0.82433 0.77614 0.0
C402 C 0.4812 0.80364 0.79647 0.0
C403 C 0.53171 0.80622 0.79078 0.0
H404 H 0.46176 0.79516 0.80572 0.0
H405 H 0.55296 0.80011 0.79601 0.0
H406 H 0.55906 0.74402 0.87206 0.0
H407 H 0.46931 0.72166 0.86211 0.0
C408 C 0.43988 0.75427 0.83478 0.0
C409 C 0.50645 0.82619 0.88003 0.0
C410 C 0.51467 0.71284 0.77676 0.0
C411 C 0.58226 0.77467 0.83455 0.0
H412 H 0.44784 0.83116 0.89866 0.0
H413 H 0.41118 0.79099 0.87466 0.0
H414 H 0.41623 0.71286 0.79226 0.0
H415 H 0.45753 0.69034 0.76073 0.0
H416 H 0.57417 0.70438 0.76348 0.0
H417 H 0.61132 0.73759 0.79554 0.0
H418 H 0.60522 0.82161 0.87113 0.0
H419 H 0.56318 0.84968 0.89613 0.0
H420 H 0.56404 0.70562 0.90369 0.0
H421 H 0.47314 0.68256 0.89275 0.0
H422 H 0.54886 0.83518 0.7596 0.0
H423 H 0.45662 0.83059 0.77069 0.0
C424 C 0.54002 0.29435 0.64917 0.0
C425 C 0.56554 0.29886 0.63425 0.0
C426 C 0.58212 0.27602 0.63952 0.0
C427 C 0.56585 0.25894 0.65733 0.0
N428 N 0.54019 0.26973 0.66347 0.0
Co429 Co 0.51038 0.253 0.68887 0.0
N430 N 0.53887 0.23 0.70817 0.0
C431 C 0.56472 0.22321 0.69761 0.0
C432 C 0.57963 0.20673 0.71574 0.0
C433 C 0.5619 0.20275 0.73893 0.0
C434 C 0.53704 0.21707 0.73362 0.0
N435 N 0.48036 0.23636 0.7142 0.0
C436 C 0.48339 0.22299 0.73919 0.0
C437 C 0.45655 0.21405 0.74972 0.0
C438 C 0.4362 0.22198 0.73039 0.0
C439 C 0.45162 0.23528 0.70919 0.0
N440 N 0.48201 0.27583 0.6694 0.0
C441 C 0.45315 0.27063 0.66863 0.0
C442 C 0.4393 0.29077 0.65373 0.0
C443 C 0.46089 0.30967 0.64468 0.0
C444 C 0.48672 0.29994 0.65464 0.0
N445 N 0.50228 0.22099 0.66075 0.0
C446 C 0.48852 0.1744 0.62229 0.0
C447 C 0.4925 0.20216 0.6122 0.0
C448 C 0.49947 0.22534 0.63194 0.0
C449 C 0.49202 0.17027 0.65157 0.0
C450 C 0.49888 0.19373 0.67038 0.0
N451 N 0.51839 0.28452 0.71725 0.0
C452 C 0.50103 0.31698 0.75398 0.0
C453 C 0.52916 0.3221 0.76486 0.0
C454 C 0.55204 0.30979 0.75034 0.0
C455 C 0.54621 0.29133 0.72626 0.0
C456 C 0.49606 0.29794 0.73014 0.0
H457 H 0.56407 0.28145 0.71581 0.0
H458 H 0.47405 0.29298 0.72303 0.0
H459 H 0.50223 0.24676 0.62405 0.0
H460 H 0.50102 0.18972 0.69288 0.0
C461 C 0.57594 0.2366 0.67331 0.0
C462 C 0.51548 0.31291 0.64874 0.0
C463 C 0.51123 0.21601 0.7518 0.0
C464 C 0.44005 0.25082 0.68704 0.0
H465 H 0.57161 0.3168 0.62118 0.0
H466 H 0.60402 0.27311 0.63247 0.0
H467 H 0.6012 0.19931 0.71296 0.0
H468 H 0.56661 0.19052 0.75745 0.0
H469 H 0.45217 0.20263 0.76909 0.0
H470 H 0.41293 0.21915 0.7321 0.0
H471 H 0.41622 0.29246 0.65108 0.0
H472 H 0.45801 0.32846 0.63234 0.0
H473 H 0.48984 0.20589 0.58953 0.0
H474 H 0.48903 0.14896 0.65994 0.0
H475 H 0.48288 0.32628 0.7648 0.0
H476 H 0.57412 0.3137 0.7581 0.0
C477 C 0.8886 0.47458 0.79994 0.0
C478 C 0.89686 0.4475 0.80664 0.0
C479 C 0.88181 0.42811 0.78825 0.0
C480 C 0.86528 0.44443 0.77148 0.0
N481 N 0.86951 0.47311 0.77751 0.0
Co482 Co 0.84759 0.50462 0.76115 0.0
N483 N 0.81987 0.47615 0.73997 0.0
C484 C 0.82139 0.44716 0.738 0.0
C485 C 0.79892 0.43322 0.72255 0.0
C486 C 0.78194 0.45454 0.71436 0.0
C487 C 0.7951 0.4804 0.72527 0.0
N488 N 0.82526 0.53624 0.74548 0.0
C489 C 0.79984 0.53484 0.73056 0.0
C490 C 0.79141 0.5621 0.72455 0.0
C491 C 0.81199 0.58141 0.73646 0.0
C492 C 0.83178 0.56495 0.74898 0.0
N493 N 0.87517 0.53303 0.7825 0.0
C494 C 0.87659 0.56203 0.78106 0.0
C495 C 0.89633 0.57582 0.80001 0.0
C496 C 0.9076 0.55439 0.81495 0.0
C497 C 0.89405 0.5287 0.80416 0.0
N498 N 0.87303 0.50494 0.72645 0.0
C499 C 0.90114 0.50527 0.67265 0.0
C500 C 0.89532 0.53094 0.68769 0.0
C501 C 0.88178 0.5303 0.71441 0.0
C502 C 0.89462 0.47948 0.68589 0.0
C503 C 0.88074 0.47982 0.71254 0.0
N504 N 0.8224 0.50419 0.79512 0.0
C505 C 0.79686 0.52942 0.83271 0.0
C506 C 0.78591 0.5033 0.84286 0.0
C507 C 0.79381 0.47766 0.82911 0.0
C508 C 0.81173 0.47859 0.80523 0.0
C509 C 0.81528 0.52938 0.8091 0.0
H510 H 0.81643 0.45838 0.795 0.0
H511 H 0.82334 0.54989 0.80229 0.0
H512 H 0.87817 0.55068 0.72444 0.0
H513 H 0.87595 0.45934 0.72089 0.0
C514 C 0.84266 0.43354 0.75306 0.0
C515 C 0.8979 0.50096 0.81656 0.0
C516 C 0.78282 0.50834 0.72188 0.0
C517 C 0.85579 0.57576 0.76554 0.0
H518 H 0.91135 0.44231 0.8238 0.0
H519 H 0.8816 0.40483 0.78834 0.0
H520 H 0.79486 0.41022 0.71852 0.0
H521 H 0.76187 0.45136 0.70221 0.0
H522 H 0.77218 0.56747 0.71302 0.0
H523 H 0.81217 0.60469 0.73653 0.0
H524 H 0.90056 0.59881 0.8039 0.0
H525 H 0.92301 0.5574 0.83265 0.0
H526 H 0.90074 0.55156 0.6786 0.0
H527 H 0.89898 0.459 0.67517 0.0
H528 H 0.79113 0.54974 0.84286 0.0
H529 H 0.78534 0.45698 0.8361 0.0
C530 C 0.15392 0.0333 0.79535 0.0
C531 C 0.14688 0.06128 0.80266 0.0
C532 C 0.15882 0.07825 0.78219 0.0
C533 C 0.1724 0.05975 0.76359 0.0
N534 N 0.16922 0.03187 0.77058 0.0
Co535 Co 0.18744 0.99808 0.75104 0.0
N536 N 0.21125 0.02368 0.72564 0.0
C537 C 0.211 0.05274 0.72516 0.0
C538 C 0.22964 0.0645 0.70562 0.0
C539 C 0.24263 0.04163 0.69285 0.0
C540 C 0.23119 0.01708 0.7054 0.0
N541 N 0.20534 0.96419 0.73132 0.0
C542 C 0.2254 0.96306 0.71018 0.0
C543 C 0.23164 0.93482 0.70274 0.0
C544 C 0.2147 0.91753 0.71938 0.0
C545 C 0.19921 0.93604 0.73611 0.0
N546 N 0.1644 0.97265 0.77716 0.0
C547 C 0.16328 0.94353 0.77682 0.0
C548 C 0.14775 0.93222 0.79901 0.0
C549 C 0.13912 0.95555 0.81499 0.0
C550 C 0.14991 0.97979 0.80152 0.0
N551 N 0.15574 0.99462 0.72143 0.0
C552 C 0.1183 0.98816 0.67302 0.0
C553 C 0.12281 0.9649 0.69007 0.0
C554 C 0.1414 0.96861 0.71407 0.0
C555 C 0.13092 0.01509 0.6819 0.0
C556 C 0.14911 0.01785 0.70609 0.0
N557 N 0.2188 1.00157 0.78027 0.0
C558 C 0.24989 0.98014 0.81421 0.0
C559 C 0.26035 0.00743 0.8247 0.0
C560 C 0.25019 0.03163 0.81233 0.0
C561 C 0.22986 0.02824 0.79005 0.0
C562 C 0.22899 0.97771 0.79221 0.0
H563 H 0.2233 0.04751 0.78113 0.0
H564 H 0.22123 0.95642 0.78528 0.0
H565 H 0.14444 0.9499 0.72569 0.0
H566 H 0.15811 0.03892 0.71126 0.0
C567 C 0.19242 0.06831 0.74282 0.0
C568 C 0.14744 0.0091 0.81357 0.0
C569 C 0.2393 0.98797 0.69666 0.0
C570 C 0.17979 0.92771 0.75742 0.0
H571 H 0.13544 0.06877 0.82154 0.0
H572 H 0.15925 0.10153 0.78203 0.0
H573 H 0.23315 0.087 0.70099 0.0
H574 H 0.2585 0.04287 0.67594 0.0
H575 H 0.24698 0.92741 0.68701 0.0
H576 H 0.21402 0.89424 0.71951 0.0
H577 H 0.14445 0.90976 0.80387 0.0
H578 H 0.12721 0.95484 0.8349 0.0
H579 H 0.11323 0.94361 0.68414 0.0
H580 H 0.12739 0.0339 0.66975 0.0
H581 H 0.25761 0.96086 0.82311 0.0
H582 H 0.25841 0.05314 0.81939 0.0
C583 C 0.73338 0.14068 0.96761 0.0
C584 C 0.72655 0.12897 0.94023 0.0
C585 C 0.74588 0.14166 0.92201 0.0
C586 C 0.76317 0.16034 0.93936 0.0
N587 N 0.75666 0.15957 0.96761 0.0
Co588 Co 0.77283 0.18554 1.00011 0.0
N589 N 0.7958 0.20952 0.97291 0.0
C590 C 0.79897 0.20405 0.94426 0.0
C591 C 0.81631 0.22443 0.9314 0.0
C592 C 0.82468 0.24407 0.95311 0.0
C593 C 0.81189 0.23445 0.97806 0.0
N594 N 0.7878 0.21219 0.03266 0.0
C595 C 0.80377 0.23741 0.03198 0.0
C596 C 0.80861 0.25 0.05946 0.0
C597 C 0.79493 0.23214 0.07814 0.0
C598 C 0.78256 0.2098 0.06108 0.0
N599 N 0.75036 0.16093 0.0272 0.0
C600 C 0.75137 0.16272 0.05632 0.0
C601 C 0.73162 0.14407 0.06862 0.0
C602 C 0.7166 0.13024 0.04601 0.0
C603 C 0.72821 0.14127 0.02119 0.0
N604 N 0.80707 0.1615 0.00425 0.0
C605 C 0.86318 0.14137 0.0098 0.0
C606 C 0.84728 0.1491 0.03402 0.0
C607 C 0.81941 0.15853 0.03081 0.0
C608 C 0.84935 0.14081 0.98293 0.0
C609 C 0.82138 0.15067 0.98069 0.0
N610 N 0.73956 0.21007 0.99616 0.0
C611 C 0.70191 0.2373 0.01816 0.0
C612 C 0.69749 0.25101 0.9926 0.0
C613 C 0.71329 0.24284 0.9684 0.0
C614 C 0.73374 0.22201 0.9705 0.0
C615 C 0.72309 0.21715 0.01955 0.0
H616 H 0.74521 0.21637 0.95135 0.0
H617 H 0.72641 0.20819 0.03997 0.0
H618 H 0.80886 0.16423 0.05022 0.0
H619 H 0.81234 0.15019 0.95956 0.0
C620 C 0.7831 0.18127 0.92963 0.0
C621 C 0.71557 0.13552 0.99259 0.0
C622 C 0.81495 0.25005 0.00595 0.0
C623 C 0.766 0.18626 0.07103 0.0
H624 H 0.70861 0.11392 0.93405 0.0
H625 H 0.74613 0.13894 0.89875 0.0
H626 H 0.82153 0.22536 0.90879 0.0
H627 H 0.83825 0.26352 0.95074 0.0
H628 H 0.82075 0.27003 0.06538 0.0
H629 H 0.794 0.23517 0.10135 0.0
H630 H 0.72694 0.14255 0.0913 0.0
H631 H 0.69814 0.11512 0.0477 0.0
H632 H 0.85663 0.14867 0.05546 0.0
H633 H 0.86054 0.13423 0.96354 0.0
H634 H 0.69002 0.24308 0.03735 0.0
H635 H 0.71017 0.25281 0.9481 0.0
O636 O 0.12921 0.05549 0.10821 0.0
Zn637 Zn 0.09033 0.05776 0.09041 0.0
O638 O 0.0938 0.07147 0.05217 0.0
Zn639 Zn 0.08004 0.11062 0.05395 0.0
Zn640 Zn 0.13433 0.07079 0.04067 0.0
Zn641 Zn 0.07024 0.04555 0.02551 0.0
O642 O 0.04173 0.10997 0.03232 0.0
O643 O 0.03261 0.06418 0.01691 0.0
O644 O 0.06821 0.08317 0.11741 0.0
O645 O 0.07007 0.12422 0.09509 0.0
O646 O 0.11075 0.13909 0.03839 0.0
O647 O 0.14812 0.11135 0.03307 0.0
O648 O 0.13793 0.04905 1.00161 0.0
O649 O 0.07367 0.01748 0.08893 0.0
O650 O 0.09212 0.03899 0.988 0.0
O651 O 0.06154 0.00626 0.04321 0.0
C652 C 0.15497 0.05394 0.09931 0.0
C653 C 0.02494 0.09008 0.02026 0.0
C654 C 0.13718 0.1358 0.03195 0.0
C655 C 0.064 0.10996 0.11724 0.0
C656 C 0.11912 0.04001 0.98242 0.0
C657 C 0.06415 0.99925 0.06932 0.0
O658 O 0.16088 0.05705 0.07276 0.0
O659 O 0.91911 0.48012 0.1057 0.0
Zn660 Zn 0.95967 0.47263 0.09312 0.0
O661 O 0.96004 0.45686 0.05342 0.0
Zn662 Zn 0.97717 0.41966 0.05327 0.0
Zn663 Zn 0.92023 0.45221 0.03909 0.0
Zn664 Zn 0.98306 0.48202 0.0283 0.0
O665 O 0.01589 0.42113 0.03486 0.0
O666 O 0.02244 0.46549 0.01966 0.0
O667 O 0.97577 0.44593 0.12194 0.0
O668 O 0.98564 0.4083 0.09332 0.0
O669 O 0.95066 0.38811 0.03509 0.0
O670 O 0.90972 0.41029 0.03101 0.0
O671 O 0.91646 0.47062 1.0009 0.0
O672 O 0.98182 0.51084 0.09537 0.0
O673 O 0.96094 0.48712 0.99036 0.0
O674 O 0.99154 0.52082 0.04989 0.0
C675 C 0.89414 0.47704 0.09384 0.0
C676 C 0.03179 0.44067 0.02363 0.0
C677 C 0.92376 0.38756 0.02902 0.0
C678 C 0.98478 0.42066 0.11828 0.0
C679 C 0.93423 0.48223 0.98349 0.0
C680 C 0.99159 0.52806 0.07679 0.0
O681 O 0.89092 0.46694 0.06792 0.0
O682 O 0.10177 0.89458 0.45929 0.0
Zn683 Zn 0.08691 0.93377 0.45311 0.0
O684 O 0.04718 0.92985 0.43902 0.0
Zn685 Zn 0.04646 0.94393 0.40044 0.0
Zn686 Zn 0.03359 0.88932 0.43841 0.0
Zn687 Zn 0.02211 0.95283 0.46347 0.0
O688 O 0.03002 0.98307 0.40029 0.0
O689 O 0.01485 0.99112 0.44501 0.0
O690 O 0.11452 0.95199 0.42486 0.0
O691 O 0.08662 0.95012 0.3857 0.0
O692 O 0.02649 0.91504 0.37227 0.0
O693 O 0.0242 0.87558 0.39746 0.0
O694 O 0.99584 0.88469 0.45956 0.0
O695 O 0.08864 0.95594 0.4912 0.0
O696 O 0.98388 0.92975 0.46975 0.0
O697 O 0.04259 0.96241 0.50216 0.0
C698 C 0.09074 0.86885 0.45923 0.0
C699 C 0.01928 0.99957 0.41957 0.0
C700 C 0.02096 0.88802 0.3739 0.0
C701 C 0.11127 0.95464 0.39788 0.0
C702 C 0.9777 0.90256 0.46867 0.0
C703 C 0.06949 0.96421 0.50878 0.0
O704 O 0.064 0.86323 0.45319 0.0
O705 O 0.9829 0.59433 0.39095 0.0
Zn706 Zn 0.97565 0.58408 0.43254 0.0
O707 O 0.95729 0.54474 0.43288 0.0
Zn708 Zn 0.91896 0.54752 0.44773 0.0
Zn709 Zn 0.95388 0.52718 0.39398 0.0
Zn710 Zn 0.97809 0.51965 0.45762 0.0
O711 O 0.91729 0.5364 0.48834 0.0
O712 O 0.95813 0.51551 0.49686 0.0
O713 O 0.94868 0.6152 0.44858 0.0
O714 O 0.90763 0.58803 0.448 0.0
O715 O 0.88895 0.52417 0.42426 0.0
O716 O 0.91221 0.51607 0.38348 0.0
O717 O 0.97412 0.4899 0.39111 0.0
O718 O 0.01509 0.58464 0.45298 0.0
O719 O 0.98278 0.47998 0.43669 0.0
O720 O 0.01771 0.53926 0.46586 0.0
C721 C 0.97887 0.58091 0.36647 0.0
C722 C 0.93382 0.5242 0.50536 0.0
C723 C 0.88913 0.51468 0.39814 0.0
C724 C 0.9211 0.61264 0.45029 0.0
C725 C 0.98214 0.47265 0.40975 0.0
C726 C 0.0291 0.56477 0.46387 0.0
O727 O 0.96848 0.55489 0.36454 0.0
O728 O 0.40375 0.96635 0.60611 0.0
Zn729 Zn 0.44306 0.96058 0.5896 0.0
O730 O 0.43995 0.94065 0.55171 0.0
Zn731 Zn 0.45595 0.90309 0.5535 0.0
Zn732 Zn 0.39878 0.93691 0.54011 0.0
Zn733 Zn 0.46318 0.96158 0.52354 0.0
O734 O 0.4909 0.89869 0.52875 0.0
O735 O 0.50117 0.94284 0.51437 0.0
O736 O 0.46486 0.93812 0.61863 0.0
O737 O 0.47016 0.89699 0.59341 0.0
O738 O 0.42607 0.87164 0.54291 0.0
O739 O 0.38605 0.89455 0.53556 0.0
O740 O 0.39403 0.95328 0.50035 0.0
O741 O 0.46099 1.00052 0.58533 0.0
O742 O 0.43924 0.96438 0.48696 0.0
O743 O 0.47347 0.00194 0.53915 0.0
C744 C 0.37776 0.96422 0.59672 0.0
C745 C 0.50773 0.91679 0.51656 0.0
C746 C 0.39919 0.87128 0.53689 0.0
C747 C 0.47328 0.91247 0.61669 0.0
C748 C 0.4121 0.9617 0.48141 0.0
C749 C 0.47146 0.01395 0.56419 0.0
O750 O 0.37195 0.95463 0.5709 0.0
O751 O 0.61783 0.53175 0.6424 0.0
Zn752 Zn 0.57568 0.53727 0.63101 0.0
O753 O 0.57171 0.54871 0.59121 0.0
Zn754 Zn 0.55841 0.58818 0.59001 0.0
Zn755 Zn 0.60967 0.54669 0.57449 0.0
Zn756 Zn 0.54507 0.52183 0.56857 0.0
O757 O 0.5185 0.58769 0.57013 0.0
O758 O 0.50721 0.54091 0.56112 0.0
O759 O 0.56012 0.56749 0.65889 0.0
O760 O 0.55161 0.60356 0.63087 0.0
O761 O 0.58943 0.61566 0.57211 0.0
O762 O 0.6254 0.58621 0.56799 0.0
O763 O 0.60779 0.52718 0.53516 0.0
O764 O 0.5546 0.49834 0.63474 0.0
O765 O 0.56191 0.51152 0.52898 0.0
O766 O 0.5376 0.48524 0.5907 0.0
C767 C 0.63999 0.52717 0.62709 0.0
C768 C 0.50039 0.56718 0.56149 0.0
C769 C 0.61581 0.61112 0.56635 0.0
C770 C 0.55224 0.59301 0.65569 0.0
C771 C 0.58752 0.51516 0.51936 0.0
C772 C 0.54192 0.47974 0.61705 0.0
O773 O 0.63905 0.52947 0.5999 0.0
O774 O 0.63049 0.42439 0.98856 0.0
Zn775 Zn 0.61707 0.46461 0.98644 0.0
O776 O 0.57775 0.46386 0.97166 0.0
Zn777 Zn 0.57873 0.47946 0.93396 0.0
Zn778 Zn 0.56257 0.42392 0.96862 0.0
Zn779 Zn 0.55306 0.48737 0.99633 0.0
O780 O 0.5632 0.518 0.93491 0.0
O781 O 0.54767 0.52713 0.97929 0.0
O782 O 0.64586 0.48469 0.9608 0.0
O783 O 0.61923 0.48738 0.92116 0.0
O784 O 0.55835 0.4534 0.90395 0.0
O785 O 0.5531 0.41284 0.92718 0.0
O786 O 0.52475 0.41992 0.98936 0.0
O787 O 0.61837 0.48275 0.02632 0.0
O788 O 0.51395 0.4651 1.00102 0.0
O789 O 0.57314 0.49407 0.03562 0.0
C790 C 0.61831 0.39912 0.9867 0.0
C791 C 0.55293 0.53505 0.95382 0.0
C792 C 0.55109 0.42666 0.90434 0.0
C793 C 0.64339 0.49058 0.93446 0.0
C794 C 0.50705 0.43803 0.9989 0.0
C795 C 0.59947 0.49225 0.04353 0.0
O796 O 0.59133 0.39521 0.9811 0.0
O797 O 0.49891 0.11853 0.90311 0.0
Zn798 Zn 0.49413 0.1056 0.94399 0.0
O799 O 0.47588 0.06648 0.944 0.0
Zn800 Zn 0.4378 0.06787 0.96106 0.0
Zn801 Zn 0.47344 0.05034 0.90457 0.0
Zn802 Zn 0.49816 0.04065 0.96604 0.0
O803 O 0.43691 0.05019 0.99967 0.0
O804 O 0.48044 0.03346 0.00491 0.0
O805 O 0.46903 0.13518 0.96411 0.0
O806 O 0.42818 0.1087 0.96996 0.0
O807 O 0.40707 0.04834 0.93457 0.0
O808 O 0.43234 0.03808 0.89531 0.0
O809 O 0.49394 0.01343 0.89915 0.0
O810 O 0.53437 0.10521 0.96177 0.0
O811 O 0.5015 0.00197 0.9443 0.0
O812 O 0.53782 0.05947 0.97303 0.0
C813 C 0.49553 0.10576 0.8783 0.0
C814 C 0.4555 0.03825 0.01474 0.0
C815 C 0.40859 0.03777 0.90883 0.0
C816 C 0.4426 0.13286 0.97171 0.0
C817 C 0.50095 0.99534 0.91733 0.0
C818 C 0.54894 0.08505 0.97122 0.0
O819 O 0.48674 0.07927 0.87563 0.0
H820 H 0.99316 0.13133 0.40798 0.0
H821 H 0.05181 0.12096 0.33711 0.0
H822 H 0.05555 0.07035 0.34704 0.0
H823 H 0.04276 0.02908 0.37578 0.0
H824 H 0.98603 0.03877 0.44827 0.0
H825 H 0.98072 0.08936 0.43763 0.0
C826 C 0.0067 0.11793 0.39472 0.0
C827 C 0.02234 0.13007 0.37191 0.0
C828 C 0.00899 0.08865 0.40074 0.0
C829 C 0.03991 0.1124 0.35505 0.0
C830 C 0.04191 0.08335 0.36059 0.0
C831 C 0.02897 0.0421 0.38917 0.0
C832 C 0.01459 0.02993 0.41266 0.0
C833 C 0.0266 0.07125 0.38336 0.0
C834 C 0.99727 0.04746 0.42999 0.0
C835 C 0.99428 0.07643 0.42394 0.0
H836 H 0.00809 0.35517 0.34282 0.0
H837 H 0.98434 0.32089 0.42418 0.0
H838 H 0.97831 0.36985 0.44476 0.0
H839 H 0.97872 0.42263 0.439 0.0
H840 H 1.00102 0.45611 0.3566 0.0
H841 H 0.00894 0.40759 0.33718 0.0
C842 C 1.00155 0.35857 0.36504 0.0
C843 C 0.99637 0.33466 0.38196 0.0
C844 C 0.99803 0.38669 0.37656 0.0
C845 C 0.98812 0.3391 0.41076 0.0
C846 C 0.98479 0.36706 0.4225 0.0
C847 C 0.98565 0.41932 0.41692 0.0
C848 C 0.98934 0.44312 0.39936 0.0
C849 C 0.9896 0.39108 0.40558 0.0
C850 C 0.99795 0.43829 0.37064 0.0
C851 C 1.00245 0.41049 0.35944 0.0
H852 H 0.06069 0.87732 0.12248 0.0
H853 H 0.99549 0.8576 0.05663 0.0
H854 H 1.00247 0.90678 0.03967 0.0
H855 H 0.02736 0.95594 0.04429 0.0
H856 H 0.09063 0.97431 0.11265 0.0
H857 H 0.08432 0.92521 0.12765 0.0
C858 C 0.04823 0.88368 0.10418 0.0
C859 C 0.02795 0.86383 0.09055 0.0
C860 C 0.05198 0.91186 0.09504 0.0
C861 C 0.01135 0.87256 0.06738 0.0
C862 C 0.01537 0.90063 0.0577 0.0
C863 C 0.03973 0.94908 0.06239 0.0
C864 C 0.05933 0.9689 0.07736 0.0
C865 C 0.03564 0.92057 0.07143 0.0
C866 C 0.07513 0.95971 0.1009 0.0
C867 C 0.07167 0.93153 0.1095 0.0
H868 H 0.02029 0.64802 0.14247 0.0
H869 H 0.01289 0.67773 0.05661 0.0
H870 H 0.00676 0.6277 0.03696 0.0
H871 H 0.9996 0.57577 0.04511 0.0
H872 H 0.00565 0.54683 0.13179 0.0
H873 H 0.01652 0.59617 0.15023 0.0
C874 C 0.01773 0.64332 0.11944 0.0
C875 C 0.01689 0.66606 0.10086 0.0
C876 C 0.01383 0.61474 0.10854 0.0
C877 C 0.01352 0.66022 0.07109 0.0
C878 C 0.00996 0.63174 0.05997 0.0
C879 C 0.0037 0.58023 0.06796 0.0
C880 C 1.00152 0.55764 0.08703 0.0
C881 C 0.00951 0.60882 0.07858 0.0
C882 C 0.00686 0.56381 0.11663 0.0
C883 C 0.0131 0.59204 0.12725 0.0
H884 H 0.44147 1.00174 0.14375 0.0
H885 H 0.37559 0.06356 0.14115 0.0
H886 H 0.38652 0.07185 0.09098 0.0
H887 H 0.41425 0.06152 0.04777 0.0
H888 H 0.48146 1.00113 0.0497 0.0
H889 H 0.47037 0.99209 0.10004 0.0
C890 C 0.4296 0.01703 0.13214 0.0
C891 C 0.40793 0.03219 0.14627 0.0
C892 C 0.43605 0.02181 0.10314 0.0
C893 C 0.39275 0.05203 0.13099 0.0
C894 C 0.3988 0.05661 0.1022 0.0
C895 C 0.42638 0.04619 0.05908 0.0
C896 C 0.44847 0.03182 0.04489 0.0
C897 C 0.42031 0.04158 0.08805 0.0
C898 C 0.46428 0.01242 0.0601 0.0
C899 C 0.45797 0.00727 0.08889 0.0
H900 H 0.66003 0.50992 0.16546 0.0
H901 H 0.57217 0.49701 0.19351 0.0
H902 H 0.55483 0.49509 0.14324 0.0
H903 H 0.5654 0.49409 0.09118 0.0
H904 H 0.65398 0.50579 0.06387 0.0
H905 H 0.67033 0.51158 0.1139 0.0
C906 C 0.63709 0.50692 0.16039 0.0
C907 C 0.6173 0.50334 0.18271 0.0
C908 C 0.62749 0.50564 0.13165 0.0
C909 C 0.58764 0.49954 0.17635 0.0
C910 C 0.57781 0.49849 0.14772 0.0
C911 C 0.58821 0.49836 0.09621 0.0
C912 C 0.60843 0.49935 0.07382 0.0
C913 C 0.5976 0.50113 0.12514 0.0
C914 C 0.63796 0.5047 0.08068 0.0
C915 C 0.64738 0.50798 0.10929 0.0
H916 H 0.34792 0.9831 0.36352 0.0
H917 H 0.43584 0.99522 0.33538 0.0
H918 H 0.45368 0.98606 0.38381 0.0
H919 H 0.44413 0.97476 0.43413 0.0
H920 H 0.35592 0.96233 0.46234 0.0
H921 H 0.33834 0.97152 0.41412 0.0
C922 C 0.37095 0.98362 0.36816 0.0
C923 C 0.39065 0.98975 0.34617 0.0
C924 C 0.38095 0.97838 0.39605 0.0
C925 C 0.42043 0.99048 0.35213 0.0
C926 C 0.43056 0.9853 0.37977 0.0
C927 C 0.42104 0.97412 0.42984 0.0
C928 C 0.40144 0.96787 0.45206 0.0
C929 C 0.41102 0.97929 0.40194 0.0
C930 C 0.37159 0.96706 0.44582 0.0
C931 C 0.36147 0.9723 0.41818 0.0
H932 H 0.59468 0.48258 0.38525 0.0
H933 H 0.67244 0.53785 0.39632 0.0
H934 H 0.66382 0.5436 0.44787 0.0
H935 H 0.63398 0.53425 0.48946 0.0
H936 H 0.55459 0.48127 0.47953 0.0
H937 H 0.56416 0.47309 0.428 0.0
C938 C 0.60971 0.49576 0.39905 0.0
C939 C 0.63407 0.50996 0.38694 0.0
C940 C 0.60439 0.49934 0.42885 0.0
C941 C 0.65334 0.52707 0.40503 0.0
C942 C 0.64851 0.53025 0.43454 0.0
C943 C 0.61881 0.52062 0.4762 0.0
C944 C 0.59367 0.50823 0.4885 0.0
C945 C 0.62407 0.51665 0.44664 0.0
C946 C 0.57415 0.49102 0.4707 0.0
C947 C 0.5796 0.48639 0.44121 0.0
H948 H 0.16518 0.43257 0.99556 0.0
H949 H 0.15468 0.36435 0.05498 0.0
H950 H 0.10356 0.37303 0.05958 0.0
H951 H 0.06195 0.39954 0.04705 0.0
H952 H 0.07126 0.46942 0.9895 0.0
H953 H 0.12265 0.46035 0.9836 0.0
C954 C 0.15164 0.41968 0.00951 0.0
C955 C 0.16383 0.39798 0.0251 0.0
C956 C 0.12205 0.42491 0.01223 0.0
C957 C 0.14603 0.38151 0.04317 0.0
C958 C 0.11671 0.38629 0.04563 0.0
C959 C 0.07505 0.4127 0.03294 0.0
C960 C 0.06261 0.43493 0.01845 0.0
C961 C 0.10451 0.40784 0.03026 0.0
C962 C 0.08021 0.45206 1.00077 0.0
C963 C 0.1096 0.44692 0.99746 0.0
H964 H 0.15956 0.56863 0.50731 0.0
H965 H 0.15951 0.65358 0.4745 0.0
H966 H 0.10819 0.64568 0.46119 0.0
H967 H 0.06348 0.61415 0.4583 0.0
H968 H 0.06392 0.52894 0.49124 0.0
H969 H 0.11459 0.53748 0.50533 0.0
C970 C 0.14812 0.58541 0.49749 0.0
C971 C 0.163 0.61169 0.49206 0.0
C972 C 0.11867 0.58067 0.48993 0.0
C973 C 0.14828 0.6332 0.47889 0.0
C974 C 0.119 0.62869 0.47133 0.0
C975 C 0.07457 0.59749 0.46871 0.0
C976 C 0.0597 0.57091 0.47361 0.0
C977 C 0.10394 0.60245 0.47668 0.0
C978 C 0.07464 0.5496 0.48708 0.0
C979 C 0.10373 0.55442 0.49516 0.0
H980 H 0.86058 0.83273 0.49584 0.0
H981 H 0.82539 0.91319 0.47606 0.0
H982 H 0.87431 0.93472 0.46893 0.0
H983 H 0.9272 0.93019 0.46765 0.0
H984 H 0.96195 0.84883 0.4859 0.0
H985 H 0.91335 0.82819 0.49457 0.0
C986 C 0.86379 0.85491 0.48979 0.0
C987 C 0.83968 0.87133 0.48599 0.0
C988 C 0.8919 0.867 0.4857 0.0
C989 C 0.8438 0.90013 0.47856 0.0
C990 C 0.87171 0.91243 0.47468 0.0
C991 C 0.92415 0.90806 0.47385 0.0
C992 C 0.94826 0.89115 0.47624 0.0
C993 C 0.89597 0.89606 0.47817 0.0
C994 C 0.94383 0.86235 0.48389 0.0
C995 C 0.91601 0.85048 0.4888 0.0
H996 H 0.3698 0.57422 0.51942 0.0
H997 H 0.38214 0.65827 0.56267 0.0
H998 H 0.43227 0.64911 0.57381 0.0
H999 H 0.47265 0.61696 0.5724 0.0
H1000 H 0.46021 0.53207 0.53091 0.0
H1001 H 0.41059 0.54187 0.51793 0.0
C1002 C 0.38353 0.59057 0.53113 0.0
C1003 C 0.372 0.61686 0.54031 0.0
C1004 C 0.4125 0.58501 0.53785 0.0
C1005 C 0.39018 0.63769 0.55566 0.0
C1006 C 0.41898 0.63253 0.56195 0.0
C1007 C 0.4592 0.60063 0.56033 0.0
C1008 C 0.47042 0.57381 0.55263 0.0
C1009 C 0.43038 0.60621 0.55334 0.0
C1010 C 0.45234 0.5529 0.53723 0.0
C1011 C 0.42385 0.55849 0.52977 0.0
H1012 H 0.56299 0.6545 0.89685 0.0
H1013 H 0.48236 0.66592 0.94041 0.0
H1014 H 0.48625 0.61967 0.96284 0.0
H1015 H 0.51155 0.57404 0.96753 0.0
H1016 H 0.59165 0.56416 0.92232 0.0
H1017 H 0.58928 0.61184 0.90383 0.0
C1018 C 0.54654 0.64732 0.91177 0.0
C1019 C 0.52247 0.66378 0.91688 0.0
C1020 C 0.54878 0.62073 0.92432 0.0
C1021 C 0.50104 0.65358 0.9358 0.0
C1022 C 0.50329 0.62714 0.94872 0.0
C1023 C 0.52858 0.58261 0.95397 0.0
C1024 C 0.55156 0.56544 0.94607 0.0
C1025 C 0.52688 0.61021 0.94277 0.0
C1026 C 0.57348 0.57675 0.92839 0.0
C1027 C 0.57222 0.60407 0.91779 0.0
H1028 H 0.51432 0.87485 0.85117 0.0
H1029 H 0.49479 0.84438 0.93517 0.0
H1030 H 0.49331 0.89426 0.95483 0.0
H1031 H 0.49671 0.94652 0.94764 0.0
H1032 H 0.51507 0.97669 0.86298 0.0
H1033 H 0.51826 0.92708 0.84409 0.0
C1034 C 0.50962 0.87931 0.87374 0.0
C1035 C 0.50428 0.85628 0.89174 0.0
C1036 C 0.50887 0.90793 0.88475 0.0
C1037 C 0.49854 0.86197 0.92098 0.0
C1038 C 0.49786 0.89041 0.93218 0.0
C1039 C 0.50179 0.94227 0.92515 0.0
C1040 C 0.50577 0.96537 0.9068 0.0
C1041 C 0.50297 0.91359 0.91425 0.0
C1042 C 0.51192 0.95938 0.8776 0.0
C1043 C 0.51366 0.93099 0.86674 0.0
H1044 H 0.52043 0.36313 0.68046 0.0
H1045 H 0.51746 0.32817 0.59293 0.0
H1046 H 0.52339 0.37695 0.57505 0.0
H1047 H 0.53119 0.4295 0.5846 0.0
H1048 H 0.5356 0.4641 0.67257 0.0
H1049 H 0.5271 0.41576 0.68999 0.0
C1050 C 0.52106 0.36638 0.6575 0.0
C1051 C 0.51876 0.34239 0.63794 0.0
C1052 C 0.52465 0.39441 0.6475 0.0
C1053 C 0.51942 0.34653 0.60824 0.0
C1054 C 0.52275 0.37435 0.59809 0.0
C1055 C 0.52994 0.42652 0.60757 0.0
C1056 C 0.53403 0.45051 0.6272 0.0
C1057 C 0.52558 0.39848 0.61753 0.0
C1058 C 0.53263 0.4461 0.65693 0.0
C1059 C 0.52781 0.41841 0.66696 0.0
H1060 H 0.52285 0.1404 0.59076 0.0
H1061 H 0.43434 0.15142 0.61437 0.0
H1062 H 0.42067 0.10213 0.59652 0.0
H1063 H 0.43544 0.05414 0.58081 0.0
H1064 H 0.52356 0.04251 0.55625 0.0
H1065 H 0.5362 0.09384 0.56788 0.0
C1066 C 0.50044 0.1322 0.59087 0.0
C1067 C 0.47946 0.14924 0.60344 0.0
C1068 C 0.49296 0.10366 0.58118 0.0
C1069 C 0.45058 0.13856 0.60426 0.0
C1070 C 0.44289 0.11035 0.59445 0.0
C1071 C 0.45731 0.06306 0.57776 0.0
C1072 C 0.47877 0.04491 0.56836 0.0
C1073 C 0.46413 0.09241 0.584 0.0
C1074 C 0.50691 0.05637 0.56381 0.0
C1075 C 0.51406 0.08559 0.57041 0.0
H1076 H 0.87996 0.53443 0.62933 0.0
H1077 H 0.94547 0.47584 0.64838 0.0
H1078 H 0.9618 0.47619 0.59824 0.0
H1079 H 0.95726 0.49371 0.54865 0.0
H1080 H 0.88972 0.55103 0.53101 0.0
H1081 H 0.8746 0.55061 0.5807 0.0
C1082 C 0.89802 0.52196 0.62258 0.0
C1083 C 0.91173 0.50546 0.64257 0.0
C1084 C 0.90689 0.52194 0.59383 0.0
C1085 C 0.93461 0.48879 0.63335 0.0
C1086 C 0.94395 0.48903 0.60471 0.0
C1087 C 0.93922 0.50602 0.55571 0.0
C1088 C 0.92475 0.52234 0.53588 0.0
C1089 C 0.93023 0.50556 0.58467 0.0
C1090 C 0.9013 0.5381 0.54551 0.0
C1091 C 0.89259 0.53801 0.57408 0.0
H1092 H 0.13639 0.00757 0.62219 0.0
H1093 H 0.06622 0.95874 0.66065 0.0
H1094 H 0.04297 0.94953 0.61315 0.0
H1095 H 0.04448 0.95289 0.5601 0.0
H1096 H 0.11704 0.99876 0.52226 0.0
H1097 H 0.13723 0.01218 0.57011 0.0
C1098 C 0.11575 0.99534 0.62024 0.0
C1099 C 0.10292 0.984 0.64484 0.0
C1100 C 0.10297 0.98964 0.59294 0.0
C1101 C 0.07651 0.96761 0.64194 0.0
C1102 C 0.06323 0.96241 0.61483 0.0
C1103 C 0.06442 0.96625 0.56249 0.0
C1104 C 0.07923 0.975 0.53783 0.0
C1105 C 0.07647 0.97299 0.5901 0.0
C1106 C 0.10532 0.99183 0.54102 0.0
C1107 C 0.11689 0.99943 0.56832 0.0
H1108 H 0.86754 0.49493 0.86541 0.0
H1109 H 0.9545 0.50375 0.83396 0.0
H1110 H 0.97382 0.50041 0.88307 0.0
H1111 H 0.96569 0.49341 0.93495 0.0
H1112 H 0.87813 0.48405 0.96571 0.0
H1113 H 0.85941 0.48944 0.91724 0.0
C1114 C 0.8907 0.4962 0.86949 0.0
C1115 C 0.90967 0.49956 0.84637 0.0
C1116 C 0.90153 0.49423 0.8977 0.0
C1117 C 0.93962 0.50118 0.85162 0.0
C1118 C 0.95059 0.49929 0.87965 0.0
C1119 C 0.94253 0.49288 0.93112 0.0
C1120 C 0.92344 0.48826 0.95414 0.0
C1121 C 0.93175 0.49566 0.90291 0.0
C1122 C 0.89344 0.48744 0.94856 0.0
C1123 C 0.88263 0.49048 0.92075 0.0
H1124 H 0.18039 0.0162 0.86236 0.0
H1125 H 0.09214 0.01303 0.83196 0.0
H1126 H 0.0753 0.02102 0.88151 0.0
H1127 H 0.08586 0.02974 0.93344 0.0
H1128 H 0.17448 0.0337 0.96377 0.0
H1129 H 0.19093 0.02441 0.91459 0.0
C1130 C 0.1575 0.01729 0.86675 0.0
C1131 C 0.13744 0.01415 0.84374 0.0
C1132 C 0.14806 0.02193 0.8953 0.0
C1133 C 0.10785 0.01549 0.84946 0.0
C1134 C 0.09829 0.02001 0.87775 0.0
C1135 C 0.10877 0.02834 0.9294 0.0
C1136 C 0.12882 0.03239 0.95253 0.0
C1137 C 0.11819 0.02331 0.90088 0.0
C1138 C 0.15846 0.0307 0.94659 0.0
C1139 C 0.16794 0.02543 0.91838 0.0
H1140 H 0.61796 0.84922 0.48768 0.0
H1141 H 0.66041 0.92577 0.52853 0.0
H1142 H 0.61422 0.94896 0.53017 0.0
H1143 H 0.56061 0.94521 0.52501 0.0
H1144 H 0.51871 0.86639 0.48851 0.0
H1145 H 0.56568 0.84633 0.48026 0.0
C1146 C 0.6172 0.87097 0.49706 0.0
C1147 C 0.64266 0.88547 0.50847 0.0
C1148 C 0.5905 0.88374 0.49878 0.0
C1149 C 0.64126 0.91402 0.51961 0.0
C1150 C 0.61476 0.92723 0.52073 0.0
C1151 C 0.56191 0.92393 0.51464 0.0
C1152 C 0.53627 0.90732 0.50719 0.0
C1153 C 0.58909 0.91203 0.51103 0.0
C1154 C 0.53816 0.87956 0.49432 0.0
C1155 C 0.56499 0.86805 0.48973 0.0
H1156 H 0.68233 0.08702 1.00161 0.0
H1157 H 0.6786 0.17396 0.97457 0.0
H1158 H 0.62624 0.16669 0.96658 0.0
H1159 H 0.58192 0.13503 0.96611 0.0
H1160 H 0.58589 0.04785 0.99338 0.0
H1161 H 0.63759 0.05589 0.00288 0.0
C1162 C 0.66985 0.10435 0.99426 0.0
C1163 C 0.68389 0.13096 0.98879 0.0
C1164 C 0.63988 0.09999 0.9898 0.0
C1165 C 0.66792 0.1533 0.97889 0.0
C1166 C 0.63809 0.14916 0.97438 0.0
C1167 C 0.59401 0.11784 0.97434 0.0
C1168 C 0.57994 0.09086 0.97889 0.0
C1169 C 0.62386 0.12251 0.97961 0.0
C1170 C 0.59607 0.06885 0.98956 0.0
C1171 C 0.6257 0.07337 0.99498 0.0
H1172 H 0.38801 0.36818 0.01607 0.0
H1173 H 0.35479 0.45005 0.99821 0.0
H1174 H 0.40428 0.47184 0.99601 0.0
H1175 H 0.45719 0.4668 0.99734 0.0
H1176 H 0.48979 0.38406 0.01397 0.0
H1177 H 0.44057 0.36351 0.0189 0.0
C1178 C 0.39177 0.39079 0.01172 0.0
C1179 C 0.3681 0.40752 0.00694 0.0
C1180 C 0.42016 0.403 0.01045 0.0
C1181 C 0.3729 0.43681 1.00157 0.0
C1182 C 0.40113 0.44922 1.00044 0.0
C1183 C 0.4535 0.44441 0.00249 0.0
C1184 C 0.47719 0.42703 0.00531 0.0
C1185 C 0.42497 0.43247 0.00466 0.0
C1186 C 0.47199 0.39792 0.01161 0.0
C1187 C 0.44383 0.38609 0.01436 0.0
H1188 H 0.89275 0.09696 0.98548 0.0
H1189 H 0.90383 0.17428 0.04058 0.0
H1190 H 0.955 0.16629 0.04697 0.0
H1191 H 0.99623 0.13671 0.03853 0.0
H1192 H 0.98563 0.05801 0.98541 0.0
H1193 H 0.93492 0.06732 0.97637 0.0
C1194 C 0.90647 0.11208 0.99872 0.0
C1195 C 0.89442 0.13604 0.01274 0.0
C1196 C 0.93601 0.10716 0.00263 0.0
C1197 C 0.91244 0.15542 0.02994 0.0
C1198 C 0.94176 0.15097 0.03349 0.0
C1199 C 0.98299 0.12171 0.02467 0.0
C1200 C 0.99487 0.09675 0.01258 0.0
C1201 C 0.95373 0.12682 0.02015 0.0
C1202 C 0.97713 0.07741 0.995 0.0
C1203 C 0.94807 0.08269 0.98986 0.0
H1204 H 0.02261 0.15352 0.24063 0.0
H1205 H 0.02998 0.23537 0.20122 0.0
H1206 H 0.04282 0.21146 0.1552 0.0
H1207 H 0.05462 0.16735 0.12706 0.0
H1208 H 0.04806 0.08555 0.16739 0.0
H1209 H 0.0322 0.1092 0.21189 0.0
C1210 C 0.02658 0.16592 0.22174 0.0
C1211 C 0.02513 0.196 0.22399 0.0
C1212 C 0.03436 0.15205 0.19559 0.0
C1213 C 0.03073 0.21211 0.1997 0.0
C1214 C 0.0382 0.19846 0.17351 0.0
C1215 C 0.04954 0.15465 0.1455 0.0
C1216 C 0.05276 0.12466 0.14372 0.0
C1217 C 0.04052 0.16845 0.1713 0.0
C1218 C 0.04598 0.10864 0.16797 0.0
C1219 C 0.03686 0.12215 0.19355 0.0
H1220 H 0.02943 0.33453 0.20692 0.0
H1221 H 0.96528 0.37385 0.25989 0.0
H1222 H 0.95633 0.40777 0.2225 0.0
H1223 H 0.96428 0.42375 0.1731 0.0
H1224 H 0.0257 0.38129 0.11901 0.0
H1225 H 0.03841 0.35134 0.15838 0.0
C1226 C 0.01388 0.35088 0.2104 0.0
C1227 C 0.99814 0.35189 0.23606 0.0
C1228 C 0.00823 0.36962 0.18848 0.0
C1229 C 0.97762 0.37276 0.24021 0.0
C1230 C 0.97249 0.39209 0.21885 0.0
C1231 C 0.98072 0.40822 0.17015 0.0
C1232 C 0.99402 0.40472 0.14322 0.0
C1233 C 0.98729 0.39038 0.19266 0.0
C1234 C 0.01504 0.38426 0.13951 0.0
C1235 C 0.02233 0.36713 0.16201 0.0
H1236 H 1.00074 0.79298 0.27328 0.0
H1237 H 0.02408 0.86548 0.22248 0.0
H1238 H 0.02571 0.89777 0.26594 0.0
H1239 H 0.02385 0.90438 0.31855 0.0
H1240 H 1.00181 0.83129 0.36957 0.0
H1241 H 0.99585 0.8002 0.32584 0.0
C1242 C 0.00589 0.81592 0.27191 0.0
C1243 C 0.01248 0.8271 0.24515 0.0
C1244 C 0.00701 0.83411 0.29691 0.0
C1245 C 0.0191 0.8567 0.24314 0.0
C1246 C 0.02002 0.87503 0.26789 0.0
C1247 C 0.01732 0.88175 0.32013 0.0
C1248 C 0.01349 0.87018 0.34734 0.0
C1249 C 0.01447 0.86387 0.29494 0.0
C1250 C 0.00509 0.84075 0.34893 0.0
C1251 C 1.00174 0.82292 0.32394 0.0
H1252 H 0.98304 0.63491 0.24389 0.0
H1253 H 0.03073 0.70339 0.29286 0.0
H1254 H 0.02641 0.67602 0.33636 0.0
H1255 H 0.00794 0.63314 0.36086 0.0
H1256 H 0.96154 0.56387 0.31153 0.0
H1257 H 0.96668 0.59084 0.26798 0.0
C1258 C 0.99243 0.64378 0.26412 0.0
C1259 C 0.00709 0.67116 0.26519 0.0
C1260 C 0.99017 0.62774 0.28903 0.0
C1261 C 0.01949 0.68228 0.29146 0.0
C1262 C 0.01695 0.66668 0.31636 0.0
C1263 C 0.99908 0.62384 0.34057 0.0
C1264 C 0.98427 0.5965 0.33964 0.0
C1265 C 1.00223 0.63943 0.31545 0.0
C1266 C 0.97312 0.58479 0.31301 0.0
C1267 C 0.97593 0.60028 0.28803 0.0
H1268 H 0.23308 0.03196 0.20761 0.0
H1269 H 0.2981 0.02355 0.14275 0.0
H1270 H 0.26266 0.03291 0.10504 0.0
H1271 H 0.21263 0.0437 0.09079 0.0
H1272 H 0.14842 0.05179 0.15718 0.0
H1273 H 0.18387 0.04251 0.19369 0.0
C1274 C 0.23935 0.03219 0.18517 0.0
C1275 C 0.26791 0.02712 0.17778 0.0
C1276 C 0.21896 0.03759 0.16383 0.0
C1277 C 0.27605 0.02739 0.14875 0.0
C1278 C 0.25583 0.03277 0.12728 0.0
C1279 C 0.20644 0.04346 0.11323 0.0
C1280 C 0.17772 0.04844 0.12096 0.0
C1281 C 0.22713 0.03796 0.13455 0.0
C1282 C 0.17021 0.04798 0.15029 0.0
C1283 C 0.19051 0.04267 0.17139 0.0
H1284 H 0.80164 0.51382 0.18549 0.0
H1285 H 0.74631 0.45573 0.13146 0.0
H1286 H 0.78631 0.44825 0.09831 0.0
H1287 H 0.83779 0.45681 0.08575 0.0
H1288 H 0.89315 0.5134 0.14147 0.0
H1289 H 0.85237 0.52316 0.17255 0.0
C1290 C 0.79821 0.49985 0.16623 0.0
C1291 C 0.77098 0.48545 0.16091 0.0
C1292 C 0.8214 0.49534 0.14755 0.0
C1293 C 0.76709 0.46694 0.13615 0.0
C1294 C 0.78995 0.46273 0.11715 0.0
C1295 C 0.84083 0.47153 0.10451 0.0
C1296 C 0.86855 0.48436 0.11121 0.0
C1297 C 0.81731 0.4766 0.12276 0.0
C1298 C 0.87214 0.50312 0.13582 0.0
C1299 C 0.84881 0.50873 0.15365 0.0
H1300 H 0.20757 0.97287 0.30453 0.0
H1301 H 0.25743 0.00456 0.37942 0.0
H1302 H 0.2154 0.99549 0.41012 0.0
H1303 H 0.16461 0.97748 0.41548 0.0
H1304 H 0.11481 0.94763 0.33962 0.0
H1305 H 0.15664 0.95708 0.3095 0.0
C1306 C 0.20917 0.97769 0.3276 0.0
C1307 C 0.23545 0.98907 0.33984 0.0
C1308 C 0.18496 0.97277 0.3449 0.0
C1309 C 0.2373 0.99578 0.36963 0.0
C1310 C 0.21334 0.99052 0.38713 0.0
C1311 C 0.16293 0.9731 0.39236 0.0
C1312 C 0.13663 0.96175 0.37989 0.0
C1313 C 0.18707 0.97887 0.375 0.0
C1314 C 0.13474 0.95644 0.34984 0.0
C1315 C 0.15868 0.96175 0.33255 0.0
H1316 H 0.76039 0.48957 0.35562 0.0
H1317 H 0.80159 0.49152 0.27307 0.0
H1318 H 0.8494 0.49532 0.29666 0.0
H1319 H 0.87878 0.50315 0.34087 0.0
H1320 H 0.83708 0.50352 0.42363 0.0
H1321 H 0.79014 0.49335 0.39997 0.0
C1322 C 0.77998 0.49024 0.34298 0.0
C1323 C 0.77795 0.49018 0.31289 0.0
C1324 C 0.80714 0.49307 0.35671 0.0
C1325 C 0.80307 0.49138 0.29635 0.0
C1326 C 0.83024 0.49368 0.30982 0.0
C1327 C 0.85951 0.50055 0.35377 0.0
C1328 C 0.86145 0.50442 0.38396 0.0
C1329 C 0.83249 0.49529 0.34002 0.0
C1330 C 0.8362 0.50094 0.40034 0.0
C1331 C 0.80932 0.49516 0.38684 0.0
H1332 H 0.23684 0.2262 0.99861 0.0
H1333 H 0.17432 0.28596 0.02713 0.0
H1334 H 0.13878 0.24584 0.03462 0.0
H1335 H 0.1269 0.19342 0.03607 0.0
H1336 H 0.19073 0.13407 0.00853 0.0
H1337 H 0.22414 0.17414 0.99754 0.0
C1338 C 0.21523 0.23027 0.006 0.0
C1339 C 0.20792 0.2587 0.01217 0.0
C1340 C 0.19525 0.20716 0.01068 0.0
C1341 C 0.18012 0.26406 0.02208 0.0
C1342 C 0.15994 0.24117 0.02648 0.0
C1343 C 0.148 0.18926 0.02741 0.0
C1344 C 0.15625 0.16067 0.02342 0.0
C1345 C 0.16743 0.21255 0.02132 0.0
C1346 C 0.18377 0.15577 0.01215 0.0
C1347 C 0.20298 0.1787 0.00578 0.0
H1348 H 0.19 0.78233 0.47302 0.0
H1349 H 0.11782 0.72532 0.49481 0.0
H1350 H 0.08446 0.76346 0.48707 0.0
H1351 H 0.07602 0.81348 0.47428 0.0
H1352 H 0.14935 0.87082 0.45559 0.0
H1353 H 0.18189 0.83233 0.46203 0.0
C1354 C 0.16692 0.77826 0.47584 0.0
C1355 C 0.15628 0.75105 0.48414 0.0
C1356 C 0.14807 0.80046 0.47208 0.0
C1357 C 0.12643 0.74613 0.48832 0.0
C1358 C 0.1074 0.76792 0.48391 0.0
C1359 C 0.09911 0.81753 0.47166 0.0
C1360 C 0.11011 0.84511 0.46443 0.0
C1361 C 0.11797 0.79526 0.47585 0.0
C1362 C 0.14018 0.84996 0.46132 0.0
C1363 C 0.15889 0.82788 0.46488 0.0
H1364 H 0.82321 0.7008 0.45622 0.0
H1365 H 0.88384 0.74807 0.51439 0.0
H1366 H 0.91893 0.71106 0.50596 0.0
H1367 H 0.93187 0.66401 0.48245 0.0
H1368 H 0.8695 0.61796 0.42501 0.0
H1369 H 0.83617 0.65603 0.43211 0.0
C1370 C 0.84426 0.70338 0.46676 0.0
C1371 C 0.85083 0.72738 0.48577 0.0
C1372 C 0.86422 0.68215 0.46178 0.0
C1373 C 0.87803 0.72974 0.49979 0.0
C1374 C 0.8982 0.70864 0.49483 0.0
C1375 C 0.91115 0.66262 0.47125 0.0
C1376 C 0.90321 0.63809 0.45324 0.0
C1377 C 0.89152 0.6846 0.47589 0.0
C1378 C 0.87612 0.63645 0.43912 0.0
C1379 C 0.85696 0.65822 0.44318 0.0
H1380 H 0.34822 0.74251 0.52357 0.0
H1381 H 0.26826 0.78499 0.5194 0.0
H1382 H 0.29482 0.83228 0.52402 0.0
H1383 H 0.3409 0.86113 0.52973 0.0
H1384 H 0.42089 0.81795 0.53398 0.0
H1385 H 0.39427 0.7713 0.52857 0.0
C1386 C 0.3368 0.76224 0.5236 0.0
C1387 C 0.3066 0.7607 0.52106 0.0
C1388 C 0.35218 0.78907 0.52618 0.0
C1389 C 0.29164 0.78605 0.52127 0.0
C1390 C 0.30679 0.81293 0.52387 0.0
C1391 C 0.35254 0.84154 0.52933 0.0
C1392 C 0.38286 0.84312 0.53232 0.0
C1393 C 0.33709 0.81468 0.52637 0.0
C1394 C 0.39755 0.81745 0.53181 0.0
C1395 C 0.38237 0.7907 0.52874 0.0
H1396 H 0.5309 0.6577 0.77623 0.0
H1397 H 0.50332 0.72257 0.72074 0.0
H1398 H 0.51149 0.69086 0.67817 0.0
H1399 H 0.52911 0.64579 0.65687 0.0
H1400 H 0.55719 0.58091 0.71259 0.0
H1401 H 0.54622 0.61141 0.75487 0.0
C1402 C 0.52638 0.66459 0.75476 0.0
C1403 C 0.51655 0.69226 0.75138 0.0
C1404 C 0.53148 0.64638 0.73049 0.0
C1405 C 0.5108 0.70124 0.72364 0.0
C1406 C 0.51562 0.6832 0.69939 0.0
C1407 C 0.53276 0.63821 0.67823 0.0
C1408 C 0.5442 0.61108 0.6814 0.0
C1409 C 0.5264 0.65589 0.70254 0.0
C1410 C 0.5485 0.60166 0.70937 0.0
C1411 C 0.54224 0.61911 0.73363 0.0
H1412 H 0.52397 0.83315 0.7084 0.0
H1413 H 0.47201 0.88458 0.76489 0.0
H1414 H 0.46089 0.91516 0.7253 0.0
H1415 H 0.46233 0.92439 0.67348 0.0
H1416 H 0.51168 0.87052 0.61661 0.0
H1417 H 0.52774 0.84413 0.65737 0.0
C1418 C 0.5107 0.85142 0.71212 0.0
C1419 C 0.4988 0.85664 0.73944 0.0
C1420 C 0.50377 0.86837 0.68909 0.0
C1421 C 0.48126 0.88009 0.74393 0.0
C1422 C 0.4749 0.89755 0.72132 0.0
C1423 C 0.47701 0.90722 0.67014 0.0
C1424 C 0.48572 0.89937 0.64208 0.0
C1425 C 0.48548 0.89149 0.69362 0.0
C1426 C 0.5045 0.87685 0.63801 0.0
C1427 C 0.51369 0.86171 0.6613 0.0
H1428 H 0.5158 0.37678 0.77954 0.0
H1429 H 0.55373 0.30224 0.81224 0.0
H1430 H 0.56182 0.32749 0.85927 0.0
H1431 H 0.55928 0.37098 0.89044 0.0
H1432 H 0.5248 0.4471 0.85724 0.0
H1433 H 0.51387 0.42102 0.81097 0.0
C1434 C 0.5258 0.36624 0.79708 0.0
C1435 C 0.53435 0.33794 0.79271 0.0
C1436 C 0.53085 0.38107 0.82382 0.0
C1437 C 0.54736 0.32423 0.81529 0.0
C1438 C 0.55183 0.33855 0.84211 0.0
C1439 C 0.54906 0.38175 0.87318 0.0
C1440 C 0.54261 0.41075 0.87717 0.0
C1441 C 0.54377 0.36698 0.84655 0.0
C1442 C 0.52989 0.4247 0.85454 0.0
C1443 C 0.5237 0.40984 0.82814 0.0
H1444 H 0.50662 0.15816 0.75535 0.0
H1445 H 0.51504 0.23742 0.80733 0.0
H1446 H 0.51233 0.21031 0.85141 0.0
H1447 H 0.50577 0.16401 0.87486 0.0
H1448 H 0.49616 0.08475 0.82231 0.0
H1449 H 0.50132 0.11179 0.77882 0.0
C1450 C 0.50811 0.16932 0.77643 0.0
C1451 C 0.5112 0.19957 0.77839 0.0
C1452 C 0.50625 0.15361 0.80148 0.0
C1453 C 0.51282 0.21409 0.80556 0.0
C1454 C 0.51122 0.1986 0.83064 0.0
C1455 C 0.50503 0.15259 0.85393 0.0
C1456 C 0.50052 0.1223 0.852 0.0
C1457 C 0.5077 0.16833 0.82887 0.0
C1458 C 0.49951 0.10799 0.82457 0.0
C1459 C 0.50244 0.12345 0.79962 0.0
H1460 H 0.76744 0.50115 0.66527 0.0
H1461 H 0.73308 0.52051 0.74928 0.0
H1462 H 0.68535 0.52682 0.72783 0.0
H1463 H 0.6539 0.52865 0.68477 0.0
H1464 H 0.68908 0.51033 0.60056 0.0
H1465 H 0.73565 0.50167 0.62235 0.0
C1466 C 0.74932 0.50645 0.67878 0.0
C1467 C 0.7535 0.51017 0.70875 0.0
C1468 C 0.7221 0.51034 0.66622 0.0
C1469 C 0.73014 0.51738 0.72615 0.0
C1470 C 0.70294 0.52104 0.71387 0.0
C1471 C 0.67166 0.52254 0.67118 0.0
C1472 C 0.66779 0.52024 0.64098 0.0
C1473 C 0.69868 0.51783 0.68387 0.0
C1474 C 0.69126 0.5124 0.62381 0.0
C1475 C 0.71801 0.50742 0.63626 0.0
H1476 H 0.29717 1.00118 0.70022 0.0
H1477 H 0.23064 0.96462 0.64191 0.0
H1478 H 0.267 0.95489 0.6051 0.0
H1479 H 0.31841 0.95523 0.59018 0.0
H1480 H 0.38446 0.99201 0.64952 0.0
H1481 H 0.3479 0.00327 0.68478 0.0
C1482 C 0.29072 0.99129 0.67934 0.0
C1483 C 0.26137 0.98354 0.67374 0.0
C1484 C 0.31176 0.9857 0.65838 0.0
C1485 C 0.25318 0.97068 0.64666 0.0
C1486 C 0.27397 0.96512 0.62565 0.0
C1487 C 0.32478 0.96591 0.61071 0.0
C1488 C 0.35438 0.97254 0.61699 0.0
C1489 C 0.30345 0.9723 0.63132 0.0
C1490 C 0.36203 0.98637 0.6439 0.0
C1491 C 0.34107 0.9929 0.66424 0.0
H1492 H 0.73577 0.52972 0.84431 0.0
H1493 H 0.78759 0.47429 0.89236 0.0
H1494 H 0.74882 0.46818 0.92748 0.0
H1495 H 0.69843 0.47496 0.94161 0.0
H1496 H 0.64548 0.52697 0.89063 0.0
H1497 H 0.68648 0.53843 0.85971 0.0
C1498 C 0.73871 0.5168 0.86283 0.0
C1499 C 0.76433 0.50254 0.86598 0.0
C1500 C 0.71605 0.51264 0.88222 0.0
C1501 C 0.76788 0.4854 0.88966 0.0
C1502 C 0.74576 0.48189 0.90963 0.0
C1503 C 0.69611 0.48921 0.92403 0.0
C1504 C 0.66909 0.50009 0.91829 0.0
C1505 C 0.71948 0.49486 0.90574 0.0
C1506 C 0.66611 0.51822 0.89527 0.0
C1507 C 0.68949 0.52476 0.87761 0.0
H1508 H 0.31216 0.98413 0.82321 0.0
H1509 H 0.25999 0.03975 0.87509 0.0
H1510 H 0.30096 0.05181 0.9081 0.0
H1511 H 0.35292 0.05035 0.919 0.0
H1512 H 0.40564 0.99741 0.86453 0.0
H1513 H 0.36318 0.98024 0.83586 0.0
C1514 C 0.30969 0.99836 0.84214 0.0
C1515 C 0.28334 0.01106 0.8469 0.0
C1516 C 0.33351 0.00591 0.8603 0.0
C1517 C 0.28029 0.02985 0.87113 0.0
C1518 C 0.30365 0.03678 0.88989 0.0
C1519 C 0.35497 0.03474 0.90112 0.0
C1520 C 0.38233 0.02536 0.8937 0.0
C1521 C 0.33059 0.02555 0.88422 0.0
C1522 C 0.3848 0.00522 0.87041 0.0
C1523 C 0.36056 0.99535 0.85404 0.0
H1524 H 0.72138 0.69424 0.53188 0.0
H1525 H 0.65328 0.75097 0.51677 0.0
H1526 H 0.61696 0.71399 0.531 0.0
H1527 H 0.60482 0.66538 0.54887 0.0
H1528 H 0.67419 0.6095 0.56411 0.0
H1529 H 0.70943 0.64603 0.54898 0.0
C1530 C 0.69853 0.69821 0.53142 0.0
C1531 C 0.68983 0.72488 0.52295 0.0
C1532 C 0.67794 0.67705 0.53994 0.0
C1533 C 0.66027 0.73025 0.52282 0.0
C1534 C 0.63958 0.70922 0.53114 0.0
C1535 C 0.62763 0.66128 0.54894 0.0
C1536 C 0.63662 0.63459 0.55762 0.0
C1537 C 0.64816 0.68253 0.53997 0.0
C1538 C 0.66639 0.62968 0.55743 0.0
C1539 C 0.68674 0.65061 0.54876 0.0
H1540 H 0.71322 0.30663 0.98492 0.0
H1541 H 0.63894 0.24954 0.99958 0.0
H1542 H 0.60742 0.29028 0.99921 0.0
H1543 H 0.60127 0.34245 0.99444 0.0
H1544 H 0.67686 0.39932 0.98282 0.0
H1545 H 0.70749 0.35858 0.98254 0.0
C1546 C 0.69008 0.30321 0.98787 0.0
C1547 C 0.67822 0.27527 0.99187 0.0
C1548 C 0.67237 0.32674 0.98838 0.0
C1549 C 0.64837 0.27095 0.99625 0.0
C1550 C 0.63043 0.29422 0.99609 0.0
C1551 C 0.62444 0.34592 0.99198 0.0
C1552 C 0.63662 0.37402 0.98862 0.0
C1553 C 0.6422 0.32227 0.99218 0.0
C1554 C 0.66678 0.37806 0.98562 0.0
C1555 C 0.68441 0.35471 0.9853 0.0
H1556 H 0.358 0.22408 0.02067 0.0
H1557 H 0.40536 0.27782 0.96228 0.0
H1558 H 0.43782 0.2391 0.95123 0.0
H1559 H 0.45052 0.1885 0.95564 0.0
H1560 H 0.40053 0.13425 0.01171 0.0
H1561 H 0.37169 0.17456 0.02649 0.0
C1562 C 0.37575 0.22746 0.00592 0.0
C1563 C 0.37933 0.25375 0.99236 0.0
C1564 C 0.39381 0.20489 0.99915 0.0
C1565 C 0.4021 0.25767 0.97288 0.0
C1566 C 0.42066 0.23556 0.96658 0.0
C1567 C 0.4336 0.18572 0.97142 0.0
C1568 C 0.42765 0.15845 0.98255 0.0
C1569 C 0.41643 0.20886 0.9792 0.0
C1570 C 0.40542 0.155 0.0027 0.0
C1571 C 0.3889 0.17803 0.01117 0.0
H1572 H 0.87279 0.25962 0.00705 0.0
H1573 H 0.79297 0.30268 0.0101 0.0
H1574 H 0.81988 0.34966 0.01564 0.0
H1575 H 0.86587 0.37779 0.02157 0.0
H1576 H 0.94607 0.33468 0.01981 0.0
H1577 H 0.91927 0.28822 0.01142 0.0
C1578 C 0.86152 0.27944 0.00878 0.0
C1579 C 0.83124 0.27821 0.00822 0.0
C1580 C 0.87711 0.30611 0.01212 0.0
C1581 C 0.8164 0.30358 0.01052 0.0
C1582 C 0.83174 0.33025 0.01366 0.0
C1583 C 0.87758 0.35831 0.0191 0.0
C1584 C 0.90793 0.35972 0.02144 0.0
C1585 C 0.86208 0.33172 0.01473 0.0
C1586 C 0.92269 0.3342 0.01821 0.0
C1587 C 0.90741 0.30762 0.01347 0.0
loop_
_geom_bond_atom_site_label_1
_geom_bond_atom_site_label_2
_geom_bond_distance
_geom_bond_site_symmetry_2
_ccdc_geom_bond_type
C0 C1 1.443 . S
C0 N4 1.376 . S
C0 C38 1.389 . S
C1 C0 1.443 . S
C1 C2 1.340 . S
C1 H41 0.951 . S
C2 C1 1.340 . S
C2 C3 1.439 . S
C2 H42 0.950 . S
C3 C2 1.439 . S
C3 N4 1.374 . S
C3 C37 1.395 . S
N4 C0 1.376 . S
N4 C3 1.374 . S
N4 Co5 2.008 1_655 S
Co5 N4 2.008 1_455 S
Co5 N6 1.995 1_455 S
Co5 N11 2.008 . S
Co5 N16 1.995 . S
Co5 N21 2.282 . S
Co5 N27 2.282 1_455 S
N6 Co5 1.995 1_655 S
N6 C7 1.376 . S
N6 C10 1.383 . S
C7 N6 1.376 . S
C7 C8 1.446 . S
C7 C37 1.391 . S
C8 C7 1.446 . S
C8 C9 1.339 . S
C8 H43 0.949 . S
C9 C8 1.339 . S
C9 C10 1.439 . S
C9 H44 0.950 . S
C10 N6 1.383 . S
C10 C9 1.439 . S
C10 C39 1.392 1_655 S
N11 Co5 2.008 . S
N11 C12 1.376 . S
N11 C15 1.374 . S
C12 N11 1.376 . S
C12 C13 1.443 . S
C12 C39 1.389 . S
C13 C12 1.443 . S
C13 C14 1.340 . S
C13 H45 0.951 . S
C14 C13 1.340 . S
C14 C15 1.439 . S
C14 H46 0.950 . S
C15 N11 1.374 . S
C15 C14 1.439 . S
C15 C40 1.395 . S
N16 Co5 1.995 . S
N16 C17 1.376 . S
N16 C20 1.383 . S
C17 N16 1.376 . S
C17 C18 1.446 . S
C17 C40 1.391 . S
C18 C17 1.446 . S
C18 C19 1.339 . S
C18 H47 0.949 . S
C19 C18 1.339 . S
C19 C20 1.439 . S
C19 H48 0.950 . S
C20 N16 1.383 . S
C20 C19 1.439 . S
C20 C38 1.392 1_455 S
N21 Co5 2.282 . S
N21 C24 1.332 . S
N21 C26 1.332 1_455 S
C22 C23 1.386 . S
C22 C25 1.388 1_455 S
C23 C22 1.386 . S
C23 C24 1.382 . S
C23 H49 0.950 . S
C24 N21 1.332 . S
C24 C23 1.382 . S
C24 H35 0.952 . S
C25 C22 1.388 1_655 S
C25 C26 1.382 . S
C25 H50 0.950 . S
C26 N21 1.332 1_655 S
C26 C25 1.382 . S
C26 H36 0.948 . S
N27 Co5 2.282 1_655 S
N27 C31 1.332 . S
N27 C32 1.332 1_655 S
C28 C29 1.388 1_455 S
C28 C32 1.382 . S
C28 H51 0.950 . S
C29 C28 1.388 1_655 S
C29 C30 1.386 . S
C30 C29 1.386 . S
C30 C31 1.382 . S
C30 H52 0.950 . S
C31 N27 1.332 . S
C31 C30 1.382 . S
C31 H33 0.952 . S
C32 N27 1.332 1_455 S
C32 C28 1.382 . S
C32 H34 0.948 . S
H33 C31 0.952 . S
H34 C32 0.948 . S
H35 C24 0.952 . S
H36 C26 0.948 . S
C37 C3 1.395 . S
C37 C7 1.391 . S
C38 C0 1.389 . S
C38 C20 1.392 1_655 S
C39 C10 1.392 1_455 S
C39 C12 1.389 . S
C40 C15 1.395 . S
C40 C17 1.391 . S
H41 C1 0.951 . S
H42 C2 0.950 . S
H43 C8 0.949 . S
H44 C9 0.950 . S
H45 C13 0.951 . S
H46 C14 0.950 . S
H47 C18 0.949 . S
H48 C19 0.950 . S
H49 C23 0.950 . S
H50 C25 0.950 . S
H51 C28 0.950 . S
H52 C30 0.950 . S
C53 C54 1.443 . S
C53 N57 1.376 . S
C53 C91 1.389 1_655 S
C54 C53 1.443 . S
C54 C55 1.340 . S
C54 H94 0.951 . S
C55 C54 1.340 . S
C55 C56 1.439 . S
C55 H95 0.950 . S
C56 C55 1.439 . S
C56 N57 1.374 . S
C56 C90 1.395 . S
N57 C53 1.376 . S
N57 C56 1.374 . S
N57 Co58 2.008 1_655 S
Co58 N57 2.008 1_455 S
Co58 N59 1.995 1_455 S
Co58 N64 2.008 . S
Co58 N69 1.995 . S
Co58 N74 2.282 . S
Co58 N80 2.282 . S
N59 Co58 1.995 1_655 S
N59 C60 1.376 . S
N59 C63 1.383 1_655 S
C60 N59 1.376 . S
C60 C61 1.446 . S
C60 C90 1.391 . S
C61 C60 1.446 . S
C61 C62 1.339 . S
C61 H96 0.949 . S
C62 C61 1.339 . S
C62 C63 1.439 1_655 S
C62 H97 0.950 . S
C63 N59 1.383 1_455 S
C63 C62 1.439 1_455 S
C63 C92 1.392 . S
N64 Co58 2.008 . S
N64 C65 1.376 . S
N64 C68 1.374 . S
C65 N64 1.376 . S
C65 C66 1.443 . S
C65 C92 1.389 . S
C66 C65 1.443 . S
C66 C67 1.340 . S
C66 H98 0.951 . S
C67 C66 1.340 . S
C67 C68 1.439 . S
C67 H99 0.950 . S
C68 N64 1.374 . S
C68 C67 1.439 . S
C68 C93 1.395 . S
N69 Co58 1.995 . S
N69 C70 1.376 . S
N69 C73 1.383 . S
C70 N69 1.376 . S
C70 C71 1.446 . S
C70 C93 1.391 . S
C71 C70 1.446 . S
C71 C72 1.339 . S
C71 H100 0.949 . S
C72 C71 1.339 . S
C72 C73 1.439 . S
C72 H101 0.950 . S
C73 N69 1.383 . S
C73 C72 1.439 . S
C73 C91 1.392 . S
N74 Co58 2.282 . S
N74 C77 1.332 . S
N74 C79 1.332 . S
C75 C76 1.386 . S
C75 C78 1.388 . S
C76 C75 1.386 . S
C76 C77 1.382 . S
C76 H102 0.950 . S
C77 N74 1.332 . S
C77 C76 1.382 . S
C77 H88 0.952 . S
C78 C75 1.388 . S
C78 C79 1.382 . S
C78 H103 0.950 . S
C79 N74 1.332 . S
C79 C78 1.382 . S
C79 H89 0.948 1_455 S
N80 Co58 2.282 . S
N80 C84 1.332 1_455 S
N80 C85 1.332 . S
C81 C82 1.387 1_455 S
C81 C85 1.382 . S
C81 H104 0.950 . S
C82 C81 1.387 1_655 S
C82 C83 1.387 . S
C83 C82 1.387 . S
C83 C84 1.382 . S
C83 H105 0.950 . S
C84 N80 1.332 1_655 S
C84 C83 1.382 . S
C84 H86 0.952 . S
C85 N80 1.332 . S
C85 C81 1.382 . S
C85 H87 0.948 . S
H86 C84 0.952 . S
H87 C85 0.948 . S
H88 C77 0.952 . S
H89 C79 0.948 1_655 S
C90 C56 1.395 . S
C90 C60 1.391 . S
C91 C53 1.389 1_455 S
C91 C73 1.392 . S
C92 C63 1.392 . S
C92 C65 1.389 . S
C93 C68 1.395 . S
C93 C70 1.391 . S
H94 C54 0.951 . S
H95 C55 0.950 . S
H96 C61 0.949 . S
H97 C62 0.950 . S
H98 C66 0.951 . S
H99 C67 0.950 . S
H100 C71 0.949 . S
H101 C72 0.950 . S
H102 C76 0.950 . S
H103 C78 0.950 . S
H104 C81 0.950 . S
H105 C83 0.950 . S
C106 C107 1.443 . S
C106 N110 1.376 . S
C106 C144 1.389 . S
C107 C106 1.443 . S
C107 C108 1.340 . S
C107 H147 0.951 . S
C108 C107 1.340 . S
C108 C109 1.439 . S
C108 H148 0.950 . S
C109 C108 1.439 . S
C109 N110 1.374 . S
C109 C143 1.395 . S
N110 C106 1.376 . S
N110 C109 1.374 . S
N110 Co111 2.008 1_565 S
Co111 N110 2.008 1_545 S
Co111 N112 1.995 1_545 S
Co111 N117 2.008 . S
Co111 N122 1.995 . S
Co111 N127 2.282 . S
Co111 N133 2.282 1_545 S
N112 Co111 1.995 1_565 S
N112 C113 1.376 . S
N112 C116 1.383 . S
C113 N112 1.376 . S
C113 C114 1.446 . S
C113 C143 1.391 . S
C114 C113 1.446 . S
C114 C115 1.339 . S
C114 H149 0.949 . S
C115 C114 1.339 . S
C115 C116 1.439 . S
C115 H150 0.950 . S
C116 N112 1.383 . S
C116 C115 1.439 . S
C116 C145 1.392 1_565 S
N117 Co111 2.008 . S
N117 C118 1.376 . S
N117 C121 1.374 . S
C118 N117 1.376 . S
C118 C119 1.443 . S
C118 C145 1.389 . S
C119 C118 1.443 . S
C119 C120 1.340 . S
C119 H151 0.951 . S
C120 C119 1.340 . S
C120 C121 1.439 . S
C120 H152 0.950 . S
C121 N117 1.374 . S
C121 C120 1.439 . S
C121 C146 1.395 . S
N122 Co111 1.995 . S
N122 C123 1.376 . S
N122 C126 1.383 . S
C123 N122 1.376 . S
C123 C124 1.446 . S
C123 C146 1.391 . S
C124 C123 1.446 . S
C124 C125 1.339 . S
C124 H153 0.949 . S
C125 C124 1.339 . S
C125 C126 1.439 . S
C125 H154 0.950 . S
C126 N122 1.383 . S
C126 C125 1.439 . S
C126 C144 1.392 1_545 S
N127 Co111 2.282 . S
N127 C130 1.332 . S
N127 C132 1.332 1_545 S
C128 C129 1.386 . S
C128 C131 1.388 . S
C129 C128 1.386 . S
C129 C130 1.382 . S
C129 H155 0.950 . S
C130 N127 1.332 . S
C130 C129 1.382 . S
C130 H141 0.952 . S
C131 C128 1.388 . S
C131 C132 1.382 1_545 S
C131 H156 0.950 1_545 S
C132 N127 1.332 1_565 S
C132 C131 1.382 1_565 S
C132 H142 0.948 . S
N133 Co111 2.282 1_565 S
N133 C137 1.332 . S
N133 C138 1.332 1_565 S
C134 C135 1.388 1_545 S
C134 C138 1.382 . S
C134 H157 0.950 . S
C135 C134 1.388 1_565 S
C135 C136 1.386 . S
C136 C135 1.386 . S
C136 C137 1.382 . S
C136 H158 0.950 . S
C137 N133 1.332 . S
C137 C136 1.382 . S
C137 H139 0.952 . S
C138 N133 1.332 1_545 S
C138 C134 1.382 . S
C138 H140 0.948 . S
H139 C137 0.952 . S
H140 C138 0.948 . S
H141 C130 0.952 . S
H142 C132 0.948 . S
C143 C109 1.395 . S
C143 C113 1.391 . S
C144 C106 1.389 . S
C144 C126 1.392 1_565 S
C145 C116 1.392 1_545 S
C145 C118 1.389 . S
C146 C121 1.395 . S
C146 C123 1.391 . S
H147 C107 0.951 . S
H148 C108 0.950 . S
H149 C114 0.949 . S
H150 C115 0.950 . S
H151 C119 0.951 . S
H152 C120 0.950 . S
H153 C124 0.949 . S
H154 C125 0.950 . S
H155 C129 0.950 . S
H156 C131 0.950 1_565 S
H157 C134 0.950 . S
H158 C136 0.950 . S
C159 C160 1.443 . S
C159 N163 1.376 . S
C159 C197 1.389 . S
C160 C159 1.443 . S
C160 C161 1.340 . S
C160 H200 0.951 . S
C161 C160 1.340 . S
C161 C162 1.439 . S
C161 H201 0.950 . S
C162 C161 1.439 . S
C162 N163 1.374 . S
C162 C196 1.395 . S
N163 C159 1.376 . S
N163 C162 1.374 . S
N163 Co164 2.008 . S
Co164 N163 2.008 . S
Co164 N165 1.995 . S
Co164 N170 2.008 . S
Co164 N175 1.995 . S
Co164 N180 2.282 . S
Co164 N186 2.282 . S
N165 Co164 1.995 . S
N165 C166 1.376 . S
N165 C169 1.383 . S
C166 N165 1.376 . S
C166 C167 1.446 . S
C166 C196 1.391 . S
C167 C166 1.446 . S
C167 C168 1.339 . S
C167 H202 0.949 . S
C168 C167 1.339 . S
C168 C169 1.439 . S
C168 H203 0.950 . S
C169 N165 1.383 . S
C169 C168 1.439 . S
C169 C198 1.392 . S
N170 Co164 2.008 . S
N170 C171 1.376 . S
N170 C174 1.374 . S
C171 N170 1.376 . S
C171 C172 1.443 . S
C171 C198 1.389 . S
C172 C171 1.443 . S
C172 C173 1.340 . S
C172 H204 0.951 . S
C173 C172 1.340 . S
C173 C174 1.439 . S
C173 H205 0.950 . S
C174 N170 1.374 . S
C174 C173 1.439 . S
C174 C199 1.395 . S
N175 Co164 1.995 . S
N175 C176 1.376 . S
N175 C179 1.383 . S
C176 N175 1.376 . S
C176 C177 1.446 . S
C176 C199 1.391 . S
C177 C176 1.446 . S
C177 C178 1.339 . S
C177 H206 0.949 . S
C178 C177 1.339 . S
C178 C179 1.439 . S
C178 H207 0.950 . S
C179 N175 1.383 . S
C179 C178 1.439 . S
C179 C197 1.392 . S
N180 Co164 2.282 . S
N180 C183 1.332 . S
N180 C185 1.332 . S
C181 C182 1.386 . S
C181 C184 1.388 . S
C182 C181 1.386 . S
C182 C183 1.382 . S
C182 H208 0.950 . S
C183 N180 1.332 . S
C183 C182 1.382 . S
C183 H194 0.952 . S
C184 C181 1.388 . S
C184 C185 1.382 . S
C184 H209 0.950 . S
C185 N180 1.332 . S
C185 C184 1.382 . S
C185 H195 0.948 . S
N186 Co164 2.282 . S
N186 C190 1.332 . S
N186 C191 1.332 . S
C187 C188 1.388 . S
C187 C191 1.382 . S
C187 H210 0.950 . S
C188 C187 1.388 . S
C188 C189 1.386 . S
C189 C188 1.386 . S
C189 C190 1.382 . S
C189 H211 0.950 . S
C190 N186 1.332 . S
C190 C189 1.382 . S
C190 H192 0.952 . S
C191 N186 1.332 . S
C191 C187 1.382 . S
C191 H193 0.948 . S
H192 C190 0.952 . S
H193 C191 0.948 . S
H194 C183 0.952 . S
H195 C185 0.948 . S
C196 C162 1.395 . S
C196 C166 1.391 . S
C197 C159 1.389 . S
C197 C179 1.392 . S
C198 C169 1.392 . S
C198 C171 1.389 . S
C199 C174 1.395 . S
C199 C176 1.391 . S
H200 C160 0.951 . S
H201 C161 0.950 . S
H202 C167 0.949 . S
H203 C168 0.950 . S
H204 C172 0.951 . S
H205 C173 0.950 . S
H206 C177 0.949 . S
H207 C178 0.950 . S
H208 C182 0.950 . S
H209 C184 0.950 . S
H210 C187 0.950 . S
H211 C189 0.950 . S
C212 C213 1.443 . S
C212 N216 1.376 . S
C212 C250 1.389 1_556 S
C213 C212 1.443 . S
C213 C214 1.340 . S
C213 H253 0.951 . S
C214 C213 1.340 . S
C214 C215 1.439 . S
C214 H254 0.950 . S
C215 C214 1.439 . S
C215 N216 1.374 . S
C215 C249 1.395 . S
N216 C212 1.376 . S
N216 C215 1.374 . S
N216 Co217 2.008 1_556 S
Co217 N216 2.008 1_554 S
Co217 N218 1.995 1_554 S
Co217 N223 2.008 . S
Co217 N228 1.995 . S
Co217 N233 2.282 . S
Co217 N239 2.282 . S
N218 Co217 1.995 1_556 S
N218 C219 1.376 . S
N218 C222 1.383 1_556 S
C219 N218 1.376 . S
C219 C220 1.446 . S
C219 C249 1.391 . S
C220 C219 1.446 . S
C220 C221 1.339 . S
C220 H255 0.949 . S
C221 C220 1.339 . S
C221 C222 1.439 1_556 S
C221 H256 0.950 . S
C222 N218 1.383 1_554 S
C222 C221 1.439 1_554 S
C222 C251 1.392 . S
N223 Co217 2.008 . S
N223 C224 1.376 . S
N223 C227 1.374 . S
C224 N223 1.376 . S
C224 C225 1.443 . S
C224 C251 1.389 . S
C225 C224 1.443 . S
C225 C226 1.340 . S
C225 H257 0.951 . S
C226 C225 1.340 . S
C226 C227 1.439 . S
C226 H258 0.950 . S
C227 N223 1.374 . S
C227 C226 1.439 . S
C227 C252 1.395 . S
N228 Co217 1.995 . S
N228 C229 1.376 . S
N228 C232 1.383 . S
C229 N228 1.376 . S
C229 C230 1.446 . S
C229 C252 1.391 . S
C230 C229 1.446 . S
C230 C231 1.339 . S
C230 H259 0.949 . S
C231 C230 1.339 . S
C231 C232 1.439 . S
C231 H260 0.950 . S
C232 N228 1.383 . S
C232 C231 1.439 . S
C232 C250 1.392 . S
N233 Co217 2.282 . S
N233 C236 1.332 . S
N233 C238 1.332 . S
C234 C235 1.386 . S
C234 C237 1.388 . S
C235 C234 1.386 . S
C235 C236 1.382 . S
C235 H261 0.950 . S
C236 N233 1.332 . S
C236 C235 1.382 . S
C236 H247 0.952 . S
C237 C234 1.388 . S
C237 C238 1.382 . S
C237 H262 0.950 1_554 S
C238 N233 1.332 . S
C238 C237 1.382 . S
C238 H248 0.948 1_554 S
N239 Co217 2.282 . S
N239 C243 1.332 1_554 S
N239 C244 1.332 . S
C240 C241 1.388 . S
C240 C244 1.382 . S
C240 H263 0.950 . S
C241 C240 1.388 . S
C241 C242 1.386 1_554 S
C242 C241 1.386 1_556 S
C242 C243 1.382 . S
C242 H264 0.950 . S
C243 N239 1.332 1_556 S
C243 C242 1.382 . S
C243 H245 0.952 . S
C244 N239 1.332 . S
C244 C240 1.382 . S
C244 H246 0.948 . S
H245 C243 0.952 . S
H246 C244 0.948 . S
H247 C236 0.952 . S
H248 C238 0.948 1_556 S
C249 C215 1.395 . S
C249 C219 1.391 . S
C250 C212 1.389 1_554 S
C250 C232 1.392 . S
C251 C222 1.392 . S
C251 C224 1.389 . S
C252 C227 1.395 . S
C252 C229 1.391 . S
H253 C213 0.951 . S
H254 C214 0.950 . S
H255 C220 0.949 . S
H256 C221 0.950 . S
H257 C225 0.951 . S
H258 C226 0.950 . S
H259 C230 0.949 . S
H260 C231 0.950 . S
H261 C235 0.950 . S
H262 C237 0.950 1_556 S
H263 C240 0.950 . S
H264 C242 0.950 . S
C265 C266 1.443 . S
C265 N269 1.376 . S
C265 C303 1.389 . S
C266 C265 1.443 . S
C266 C267 1.340 . S
C266 H306 0.951 . S
C267 C266 1.340 . S
C267 C268 1.439 . S
C267 H307 0.950 . S
C268 C267 1.439 . S
C268 N269 1.374 . S
C268 C302 1.395 . S
N269 C265 1.376 . S
N269 C268 1.374 . S
N269 Co270 2.008 . S
Co270 N269 2.008 . S
Co270 N271 1.995 . S
Co270 N276 2.008 . S
Co270 N281 1.995 . S
Co270 N286 2.282 . S
Co270 N292 2.282 . S
N271 Co270 1.995 . S
N271 C272 1.376 . S
N271 C275 1.383 . S
C272 N271 1.376 . S
C272 C273 1.446 . S
C272 C302 1.391 . S
C273 C272 1.446 . S
C273 C274 1.339 . S
C273 H308 0.949 . S
C274 C273 1.339 . S
C274 C275 1.439 . S
C274 H309 0.950 . S
C275 N271 1.383 . S
C275 C274 1.439 . S
C275 C304 1.392 . S
N276 Co270 2.008 . S
N276 C277 1.376 . S
N276 C280 1.374 . S
C277 N276 1.376 . S
C277 C278 1.443 . S
C277 C304 1.389 . S
C278 C277 1.443 . S
C278 C279 1.340 . S
C278 H310 0.951 . S
C279 C278 1.340 . S
C279 C280 1.439 . S
C279 H311 0.950 . S
C280 N276 1.374 . S
C280 C279 1.439 . S
C280 C305 1.395 . S
N281 Co270 1.995 . S
N281 C282 1.376 . S
N281 C285 1.383 . S
C282 N281 1.376 . S
C282 C283 1.446 . S
C282 C305 1.391 . S
C283 C282 1.446 . S
C283 C284 1.339 . S
C283 H312 0.949 . S
C284 C283 1.339 . S
C284 C285 1.439 . S
C284 H313 0.950 . S
C285 N281 1.383 . S
C285 C284 1.439 . S
C285 C303 1.392 . S
N286 Co270 2.282 . S
N286 C289 1.332 . S
N286 C291 1.332 . S
C287 C288 1.386 . S
C287 C290 1.388 . S
C288 C287 1.386 . S
C288 C289 1.382 . S
C288 H314 0.950 . S
C289 N286 1.332 . S
C289 C288 1.382 . S
C289 H300 0.952 . S
C290 C287 1.388 . S
C290 C291 1.382 . S
C290 H315 0.950 . S
C291 N286 1.332 . S
C291 C290 1.382 . S
C291 H301 0.948 . S
N292 Co270 2.282 . S
N292 C296 1.332 . S
N292 C297 1.332 . S
C293 C294 1.388 . S
C293 C297 1.382 . S
C293 H316 0.950 . S
C294 C293 1.388 . S
C294 C295 1.386 . S
C295 C294 1.386 . S
C295 C296 1.382 . S
C295 H317 0.950 . S
C296 N292 1.332 . S
C296 C295 1.382 . S
C296 H298 0.952 . S
C297 N292 1.332 . S
C297 C293 1.382 . S
C297 H299 0.948 . S
H298 C296 0.952 . S
H299 C297 0.948 . S
H300 C289 0.952 . S
H301 C291 0.948 . S
C302 C268 1.395 . S
C302 C272 1.391 . S
C303 C265 1.389 . S
C303 C285 1.392 . S
C304 C275 1.392 . S
C304 C277 1.389 . S
C305 C280 1.395 . S
C305 C282 1.391 . S
H306 C266 0.951 . S
H307 C267 0.950 . S
H308 C273 0.949 . S
H309 C274 0.950 . S
H310 C278 0.951 . S
H311 C279 0.950 . S
H312 C283 0.949 . S
H313 C284 0.950 . S
H314 C288 0.950 . S
H315 C290 0.950 . S
H316 C293 0.950 . S
H317 C295 0.950 . S
C318 C319 1.443 . S
C318 N322 1.376 . S
C318 C356 1.389 . S
C319 C318 1.443 . S
C319 C320 1.340 . S
C319 H359 0.951 . S
C320 C319 1.340 . S
C320 C321 1.439 . S
C320 H360 0.950 . S
C321 C320 1.439 . S
C321 N322 1.374 . S
C321 C355 1.395 . S
N322 C318 1.376 . S
N322 C321 1.374 . S
N322 Co323 2.008 . S
Co323 N322 2.008 . S
Co323 N324 1.995 . S
Co323 N329 2.008 . S
Co323 N334 1.995 . S
Co323 N339 2.282 . S
Co323 N345 2.282 . S
N324 Co323 1.995 . S
N324 C325 1.376 . S
N324 C328 1.383 . S
C325 N324 1.376 . S
C325 C326 1.446 . S
C325 C355 1.391 . S
C326 C325 1.446 . S
C326 C327 1.339 . S
C326 H361 0.949 . S
C327 C326 1.339 . S
C327 C328 1.439 . S
C327 H362 0.950 . S
C328 N324 1.383 . S
C328 C327 1.439 . S
C328 C357 1.392 . S
N329 Co323 2.008 . S
N329 C330 1.376 . S
N329 C333 1.374 . S
C330 N329 1.376 . S
C330 C331 1.443 . S
C330 C357 1.389 . S
C331 C330 1.443 . S
C331 C332 1.340 . S
C331 H363 0.951 . S
C332 C331 1.340 . S
C332 C333 1.439 . S
C332 H364 0.950 . S
C333 N329 1.374 . S
C333 C332 1.439 . S
C333 C358 1.395 . S
N334 Co323 1.995 . S
N334 C335 1.376 . S
N334 C338 1.383 . S
C335 N334 1.376 . S
C335 C336 1.446 . S
C335 C358 1.391 . S
C336 C335 1.446 . S
C336 C337 1.339 . S
C336 H365 0.949 . S
C337 C336 1.339 . S
C337 C338 1.439 . S
C337 H366 0.950 . S
C338 N334 1.383 . S
C338 C337 1.439 . S
C338 C356 1.392 . S
N339 Co323 2.282 . S
N339 C342 1.332 . S
N339 C344 1.332 . S
C340 C341 1.386 . S
C340 C343 1.388 . S
C341 C340 1.386 . S
C341 C342 1.382 . S
C341 H367 0.950 . S
C342 N339 1.332 . S
C342 C341 1.382 . S
C342 H353 0.952 . S
C343 C340 1.388 . S
C343 C344 1.382 . S
C343 H368 0.950 . S
C344 N339 1.332 . S
C344 C343 1.382 . S
C344 H354 0.948 . S
N345 Co323 2.282 . S
N345 C349 1.332 . S
N345 C350 1.332 . S
C346 C347 1.388 . S
C346 C350 1.382 . S
C346 H369 0.950 . S
C347 C346 1.388 . S
C347 C348 1.386 . S
C348 C347 1.386 . S
C348 C349 1.382 . S
C348 H370 0.950 . S
C349 N345 1.332 . S
C349 C348 1.382 . S
C349 H351 0.952 . S
C350 N345 1.332 . S
C350 C346 1.382 . S
C350 H352 0.948 . S
H351 C349 0.952 . S
H352 C350 0.948 . S
H353 C342 0.952 . S
H354 C344 0.948 . S
C355 C321 1.395 . S
C355 C325 1.391 . S
C356 C318 1.389 . S
C356 C338 1.392 . S
C357 C328 1.392 . S
C357 C330 1.389 . S
C358 C333 1.395 . S
C358 C335 1.391 . S
H359 C319 0.951 . S
H360 C320 0.950 . S
H361 C326 0.949 . S
H362 C327 0.950 . S
H363 C331 0.951 . S
H364 C332 0.950 . S
H365 C336 0.949 . S
H366 C337 0.950 . S
H367 C341 0.950 . S
H368 C343 0.950 . S
H369 C346 0.950 . S
H370 C348 0.950 . S
C371 C372 1.443 . S
C371 N375 1.376 . S
C371 C409 1.389 . S
C372 C371 1.443 . S
C372 C373 1.340 . S
C372 H412 0.951 . S
C373 C372 1.340 . S
C373 C374 1.439 . S
C373 H413 0.950 . S
C374 C373 1.439 . S
C374 N375 1.374 . S
C374 C408 1.395 . S
N375 C371 1.376 . S
N375 C374 1.374 . S
N375 Co376 2.008 . S
Co376 N375 2.008 . S
Co376 N377 1.995 . S
Co376 N382 2.008 . S
Co376 N387 1.995 . S
Co376 N392 2.282 . S
Co376 N398 2.282 . S
N377 Co376 1.995 . S
N377 C378 1.376 . S
N377 C381 1.383 . S
C378 N377 1.376 . S
C378 C379 1.446 . S
C378 C408 1.391 . S
C379 C378 1.446 . S
C379 C380 1.339 . S
C379 H414 0.949 . S
C380 C379 1.339 . S
C380 C381 1.439 . S
C380 H415 0.950 . S
C381 N377 1.383 . S
C381 C380 1.439 . S
C381 C410 1.392 . S
N382 Co376 2.008 . S
N382 C383 1.376 . S
N382 C386 1.374 . S
C383 N382 1.376 . S
C383 C384 1.443 . S
C383 C410 1.389 . S
C384 C383 1.443 . S
C384 C385 1.340 . S
C384 H416 0.951 . S
C385 C384 1.340 . S
C385 C386 1.439 . S
C385 H417 0.950 . S
C386 N382 1.374 . S
C386 C385 1.439 . S
C386 C411 1.395 . S
N387 Co376 1.995 . S
N387 C388 1.376 . S
N387 C391 1.383 . S
C388 N387 1.376 . S
C388 C389 1.446 . S
C388 C411 1.391 . S
C389 C388 1.446 . S
C389 C390 1.339 . S
C389 H418 0.949 . S
C390 C389 1.339 . S
C390 C391 1.439 . S
C390 H419 0.950 . S
C391 N387 1.383 . S
C391 C390 1.439 . S
C391 C409 1.392 . S
N392 Co376 2.282 . S
N392 C395 1.332 . S
N392 C397 1.332 . S
C393 C394 1.386 . S
C393 C396 1.388 . S
C394 C393 1.386 . S
C394 C395 1.382 . S
C394 H420 0.950 . S
C395 N392 1.332 . S
C395 C394 1.382 . S
C395 H406 0.952 . S
C396 C393 1.388 . S
C396 C397 1.382 . S
C396 H421 0.950 . S
C397 N392 1.332 . S
C397 C396 1.382 . S
C397 H407 0.948 . S
N398 Co376 2.282 . S
N398 C402 1.332 . S
N398 C403 1.332 . S
C399 C400 1.388 . S
C399 C403 1.382 . S
C399 H422 0.950 . S
C400 C399 1.388 . S
C400 C401 1.386 . S
C401 C400 1.386 . S
C401 C402 1.382 . S
C401 H423 0.950 . S
C402 N398 1.332 . S
C402 C401 1.382 . S
C402 H404 0.952 . S
C403 N398 1.332 . S
C403 C399 1.382 . S
C403 H405 0.948 . S
H404 C402 0.952 . S
H405 C403 0.948 . S
H406 C395 0.952 . S
H407 C397 0.948 . S
C408 C374 1.395 . S
C408 C378 1.391 . S
C409 C371 1.389 . S
C409 C391 1.392 . S
C410 C381 1.392 . S
C410 C383 1.389 . S
C411 C386 1.395 . S
C411 C388 1.391 . S
H412 C372 0.951 . S
H413 C373 0.950 . S
H414 C379 0.949 . S
H415 C380 0.950 . S
H416 C384 0.951 . S
H417 C385 0.950 . S
H418 C389 0.949 . S
H419 C390 0.950 . S
H420 C394 0.950 . S
H421 C396 0.950 . S
H422 C399 0.950 . S
H423 C401 0.950 . S
C424 C425 1.443 . S
C424 N428 1.376 . S
C424 C462 1.389 . S
C425 C424 1.443 . S
C425 C426 1.340 . S
C425 H465 0.951 . S
C426 C425 1.340 . S
C426 C427 1.439 . S
C426 H466 0.950 . S
C427 C426 1.439 . S
C427 N428 1.374 . S
C427 C461 1.395 . S
N428 C424 1.376 . S
N428 C427 1.374 . S
N428 Co429 2.008 . S
Co429 N428 2.008 . S
Co429 N430 1.995 . S
Co429 N435 2.008 . S
Co429 N440 1.995 . S
Co429 N445 2.282 . S
Co429 N451 2.282 . S
N430 Co429 1.995 . S
N430 C431 1.376 . S
N430 C434 1.383 . S
C431 N430 1.376 . S
C431 C432 1.446 . S
C431 C461 1.391 . S
C432 C431 1.446 . S
C432 C433 1.339 . S
C432 H467 0.949 . S
C433 C432 1.339 . S
C433 C434 1.439 . S
C433 H468 0.950 . S
C434 N430 1.383 . S
C434 C433 1.439 . S
C434 C463 1.392 . S
N435 Co429 2.008 . S
N435 C436 1.376 . S
N435 C439 1.374 . S
C436 N435 1.376 . S
C436 C437 1.443 . S
C436 C463 1.389 . S
C437 C436 1.443 . S
C437 C438 1.340 . S
C437 H469 0.951 . S
C438 C437 1.340 . S
C438 C439 1.439 . S
C438 H470 0.950 . S
C439 N435 1.374 . S
C439 C438 1.439 . S
C439 C464 1.395 . S
N440 Co429 1.995 . S
N440 C441 1.376 . S
N440 C444 1.383 . S
C441 N440 1.376 . S
C441 C442 1.446 . S
C441 C464 1.391 . S
C442 C441 1.446 . S
C442 C443 1.339 . S
C442 H471 0.949 . S
C443 C442 1.339 . S
C443 C444 1.439 . S
C443 H472 0.950 . S
C444 N440 1.383 . S
C444 C443 1.439 . S
C444 C462 1.392 . S
N445 Co429 2.282 . S
N445 C448 1.332 . S
N445 C450 1.332 . S
C446 C447 1.386 . S
C446 C449 1.388 . S
C447 C446 1.386 . S
C447 C448 1.382 . S
C447 H473 0.950 . S
C448 N445 1.332 . S
C448 C447 1.382 . S
C448 H459 0.952 . S
C449 C446 1.388 . S
C449 C450 1.382 . S
C449 H474 0.950 . S
C450 N445 1.332 . S
C450 C449 1.382 . S
C450 H460 0.948 . S
N451 Co429 2.282 . S
N451 C455 1.332 . S
N451 C456 1.332 . S
C452 C453 1.388 . S
C452 C456 1.382 . S
C452 H475 0.950 . S
C453 C452 1.388 . S
C453 C454 1.386 . S
C454 C453 1.386 . S
C454 C455 1.382 . S
C454 H476 0.950 . S
C455 N451 1.332 . S
C455 C454 1.382 . S
C455 H457 0.952 . S
C456 N451 1.332 . S
C456 C452 1.382 . S
C456 H458 0.948 . S
H457 C455 0.952 . S
H458 C456 0.948 . S
H459 C448 0.952 . S
H460 C450 0.948 . S
C461 C427 1.395 . S
C461 C431 1.391 . S
C462 C424 1.389 . S
C462 C444 1.392 . S
C463 C434 1.392 . S
C463 C436 1.389 . S
C464 C439 1.395 . S
C464 C441 1.391 . S
H465 C425 0.951 . S
H466 C426 0.950 . S
H467 C432 0.949 . S
H468 C433 0.950 . S
H469 C437 0.951 . S
H470 C438 0.950 . S
H471 C442 0.949 . S
H472 C443 0.950 . S
H473 C447 0.950 . S
H474 C449 0.950 . S
H475 C452 0.950 . S
H476 C454 0.950 . S
C477 C478 1.443 . S
C477 N481 1.376 . S
C477 C515 1.389 . S
C478 C477 1.443 . S
C478 C479 1.340 . S
C478 H518 0.951 . S
C479 C478 1.340 . S
C479 C480 1.439 . S
C479 H519 0.950 . S
C480 C479 1.439 . S
C480 N481 1.374 . S
C480 C514 1.395 . S
N481 C477 1.376 . S
N481 C480 1.374 . S
N481 Co482 2.008 . S
Co482 N481 2.008 . S
Co482 N483 1.995 . S
Co482 N488 2.008 . S
Co482 N493 1.995 . S
Co482 N498 2.282 . S
Co482 N504 2.282 . S
N483 Co482 1.995 . S
N483 C484 1.376 . S
N483 C487 1.383 . S
C484 N483 1.376 . S
C484 C485 1.446 . S
C484 C514 1.391 . S
C485 C484 1.446 . S
C485 C486 1.339 . S
C485 H520 0.949 . S
C486 C485 1.339 . S
C486 C487 1.439 . S
C486 H521 0.950 . S
C487 N483 1.383 . S
C487 C486 1.439 . S
C487 C516 1.392 . S
N488 Co482 2.008 . S
N488 C489 1.376 . S
N488 C492 1.374 . S
C489 N488 1.376 . S
C489 C490 1.443 . S
C489 C516 1.389 . S
C490 C489 1.443 . S
C490 C491 1.340 . S
C490 H522 0.951 . S
C491 C490 1.340 . S
C491 C492 1.439 . S
C491 H523 0.950 . S
C492 N488 1.374 . S
C492 C491 1.439 . S
C492 C517 1.395 . S
N493 Co482 1.995 . S
N493 C494 1.376 . S
N493 C497 1.383 . S
C494 N493 1.376 . S
C494 C495 1.446 . S
C494 C517 1.391 . S
C495 C494 1.446 . S
C495 C496 1.339 . S
C495 H524 0.949 . S
C496 C495 1.339 . S
C496 C497 1.439 . S
C496 H525 0.950 . S
C497 N493 1.383 . S
C497 C496 1.439 . S
C497 C515 1.392 . S
N498 Co482 2.282 . S
N498 C501 1.332 . S
N498 C503 1.332 . S
C499 C500 1.386 . S
C499 C502 1.388 . S
C500 C499 1.386 . S
C500 C501 1.382 . S
C500 H526 0.950 . S
C501 N498 1.332 . S
C501 C500 1.382 . S
C501 H512 0.952 . S
C502 C499 1.388 . S
C502 C503 1.382 . S
C502 H527 0.950 . S
C503 N498 1.332 . S
C503 C502 1.382 . S
C503 H513 0.948 . S
N504 Co482 2.282 . S
N504 C508 1.332 . S
N504 C509 1.332 . S
C505 C506 1.388 . S
C505 C509 1.382 . S
C505 H528 0.950 . S
C506 C505 1.388 . S
C506 C507 1.386 . S
C507 C506 1.386 . S
C507 C508 1.382 . S
C507 H529 0.950 . S
C508 N504 1.332 . S
C508 C507 1.382 . S
C508 H510 0.952 . S
C509 N504 1.332 . S
C509 C505 1.382 . S
C509 H511 0.948 . S
H510 C508 0.952 . S
H511 C509 0.948 . S
H512 C501 0.952 . S
H513 C503 0.948 . S
C514 C480 1.395 . S
C514 C484 1.391 . S
C515 C477 1.389 . S
C515 C497 1.392 . S
C516 C487 1.392 . S
C516 C489 1.389 . S
C517 C492 1.395 . S
C517 C494 1.391 . S
H518 C478 0.951 . S
H519 C479 0.950 . S
H520 C485 0.949 . S
H521 C486 0.950 . S
H522 C490 0.951 . S
H523 C491 0.950 . S
H524 C495 0.949 . S
H525 C496 0.950 . S
H526 C500 0.950 . S
H527 C502 0.950 . S
H528 C505 0.950 . S
H529 C507 0.950 . S
C530 C531 1.443 . S
C530 N534 1.376 . S
C530 C568 1.389 . S
C531 C530 1.443 . S
C531 C532 1.340 . S
C531 H571 0.951 . S
C532 C531 1.340 . S
C532 C533 1.439 . S
C532 H572 0.950 . S
C533 C532 1.439 . S
C533 N534 1.374 . S
C533 C567 1.395 . S
N534 C530 1.376 . S
N534 C533 1.374 . S
N534 Co535 2.008 . S
Co535 N534 2.008 . S
Co535 N536 1.995 . S
Co535 N541 2.008 1_545 S
Co535 N546 1.995 1_545 S
Co535 N551 2.282 . S
Co535 N557 2.282 . S
N536 Co535 1.995 . S
N536 C537 1.376 . S
N536 C540 1.383 . S
C537 N536 1.376 . S
C537 C538 1.446 . S
C537 C567 1.391 . S
C538 C537 1.446 . S
C538 C539 1.339 . S
C538 H573 0.949 . S
C539 C538 1.339 . S
C539 C540 1.439 . S
C539 H574 0.950 . S
C540 N536 1.383 . S
C540 C539 1.439 . S
C540 C569 1.392 1_545 S
N541 Co535 2.008 1_565 S
N541 C542 1.376 . S
N541 C545 1.374 . S
C542 N541 1.376 . S
C542 C543 1.443 . S
C542 C569 1.389 . S
C543 C542 1.443 . S
C543 C544 1.340 . S
C543 H575 0.951 . S
C544 C543 1.340 . S
C544 C545 1.439 . S
C544 H576 0.950 . S
C545 N541 1.374 . S
C545 C544 1.439 . S
C545 C570 1.395 . S
N546 Co535 1.995 1_565 S
N546 C547 1.376 . S
N546 C550 1.384 1_565 S
C547 N546 1.376 . S
C547 C548 1.446 . S
C547 C570 1.391 . S
C548 C547 1.446 . S
C548 C549 1.339 . S
C548 H577 0.949 . S
C549 C548 1.339 . S
C549 C550 1.441 1_565 S
C549 H578 0.950 . S
C550 N546 1.384 1_545 S
C550 C549 1.441 1_545 S
C550 C568 1.389 . S
N551 Co535 2.282 . S
N551 C554 1.332 1_545 S
N551 C556 1.332 . S
C552 C553 1.386 . S
C552 C555 1.388 1_565 S
C553 C552 1.386 . S
C553 C554 1.382 . S
C553 H579 0.950 . S
C554 N551 1.332 1_565 S
C554 C553 1.382 . S
C554 H565 0.952 . S
C555 C552 1.388 1_545 S
C555 C556 1.382 . S
C555 H580 0.950 . S
C556 N551 1.332 . S
C556 C555 1.382 . S
C556 H566 0.948 . S
N557 Co535 2.282 . S
N557 C561 1.332 . S
N557 C562 1.332 . S
C558 C559 1.388 . S
C558 C562 1.382 . S
C558 H581 0.950 1_545 S
C559 C558 1.388 . S
C559 C560 1.386 . S
C560 C559 1.386 . S
C560 C561 1.382 . S
C560 H582 0.950 . S
C561 N557 1.332 . S
C561 C560 1.382 . S
C561 H563 0.952 . S
C562 N557 1.332 . S
C562 C558 1.382 . S
C562 H564 0.948 1_545 S
H563 C561 0.952 . S
H564 C562 0.948 1_565 S
H565 C554 0.952 . S
H566 C556 0.948 . S
C567 C533 1.395 . S
C567 C537 1.391 . S
C568 C530 1.389 . S
C568 C550 1.389 . S
C569 C540 1.392 1_565 S
C569 C542 1.389 . S
C570 C545 1.395 . S
C570 C547 1.391 . S
H571 C531 0.951 . S
H572 C532 0.950 . S
H573 C538 0.949 . S
H574 C539 0.950 . S
H575 C543 0.951 . S
H576 C544 0.950 . S
H577 C548 0.949 . S
H578 C549 0.950 . S
H579 C553 0.950 . S
H580 C555 0.950 . S
H581 C558 0.950 1_565 S
H582 C560 0.950 . S
C583 C584 1.443 . S
C583 N587 1.376 . S
C583 C621 1.389 . S
C584 C583 1.443 . S
C584 C585 1.340 . S
C584 H624 0.951 . S
C585 C584 1.340 . S
C585 C586 1.439 . S
C585 H625 0.950 . S
C586 C585 1.439 . S
C586 N587 1.374 . S
C586 C620 1.395 . S
N587 C583 1.376 . S
N587 C586 1.374 . S
N587 Co588 2.008 1_556 S
Co588 N587 2.008 1_554 S
Co588 N589 1.995 1_554 S
Co588 N594 2.008 . S
Co588 N599 1.995 . S
Co588 N604 2.282 . S
Co588 N610 2.282 1_554 S
N589 Co588 1.995 1_556 S
N589 C590 1.376 . S
N589 C593 1.383 . S
C590 N589 1.376 . S
C590 C591 1.446 . S
C590 C620 1.391 . S
C591 C590 1.446 . S
C591 C592 1.339 . S
C591 H626 0.949 . S
C592 C591 1.339 . S
C592 C593 1.439 . S
C592 H627 0.950 . S
C593 N589 1.383 . S
C593 C592 1.439 . S
C593 C622 1.392 1_556 S
N594 Co588 2.008 . S
N594 C595 1.376 . S
N594 C598 1.374 . S
C595 N594 1.376 . S
C595 C596 1.443 . S
C595 C622 1.389 . S
C596 C595 1.443 . S
C596 C597 1.340 . S
C596 H628 0.951 . S
C597 C596 1.340 . S
C597 C598 1.439 . S
C597 H629 0.950 . S
C598 N594 1.374 . S
C598 C597 1.439 . S
C598 C623 1.395 . S
N599 Co588 1.995 . S
N599 C600 1.376 . S
N599 C603 1.383 . S
C600 N599 1.376 . S
C600 C601 1.446 . S
C600 C623 1.391 . S
C601 C600 1.446 . S
C601 C602 1.339 . S
C601 H630 0.949 . S
C602 C601 1.339 . S
C602 C603 1.439 . S
C602 H631 0.950 . S
C603 N599 1.383 . S
C603 C602 1.439 . S
C603 C621 1.392 1_554 S
N604 Co588 2.282 . S
N604 C607 1.332 . S
N604 C609 1.332 1_554 S
C605 C606 1.386 . S
C605 C608 1.388 1_554 S
C606 C605 1.386 . S
C606 C607 1.382 . S
C606 H632 0.950 . S
C607 N604 1.332 . S
C607 C606 1.382 . S
C607 H618 0.952 . S
C608 C605 1.388 1_556 S
C608 C609 1.382 . S
C608 H633 0.950 . S
C609 N604 1.332 1_556 S
C609 C608 1.382 . S
C609 H619 0.948 . S
N610 Co588 2.282 1_556 S
N610 C614 1.332 . S
N610 C615 1.332 1_556 S
C611 C612 1.388 1_554 S
C611 C615 1.382 . S
C611 H634 0.950 . S
C612 C611 1.388 1_556 S
C612 C613 1.386 . S
C613 C612 1.386 . S
C613 C614 1.382 . S
C613 H635 0.950 . S
C614 N610 1.332 . S
C614 C613 1.382 . S
C614 H616 0.952 . S
C615 N610 1.332 1_554 S
C615 C611 1.382 . S
C615 H617 0.948 . S
H616 C614 0.952 . S
H617 C615 0.948 . S
H618 C607 0.952 . S
H619 C609 0.948 . S
C620 C586 1.395 . S
C620 C590 1.391 . S
C621 C583 1.389 . S
C621 C603 1.392 1_556 S
C622 C593 1.392 1_554 S
C622 C595 1.389 . S
C623 C598 1.395 . S
C623 C600 1.391 . S
H624 C584 0.951 . S
H625 C585 0.950 . S
H626 C591 0.949 . S
H627 C592 0.950 . S
H628 C596 0.951 . S
H629 C597 0.950 . S
H630 C601 0.949 . S
H631 C602 0.950 . S
H632 C606 0.950 . S
H633 C608 0.950 . S
H634 C611 0.950 . S
H635 C613 0.950 . S
O636 Zn637 1.953 . S
O636 C652 1.225 . S
Zn637 O636 1.953 . S
Zn637 O638 1.949 . S
Zn637 O644 1.919 . S
Zn637 O649 1.924 . S
O638 Zn637 1.949 . S
O638 Zn639 1.923 . S
O638 Zn640 1.950 . S
O638 Zn641 1.945 . S
Zn639 O638 1.923 . S
Zn639 O642 1.933 . S
Zn639 O645 1.941 . S
Zn639 O646 1.965 . S
Zn640 O638 1.950 . S
Zn640 O647 1.938 . S
Zn640 O648 1.906 1_554 S
Zn640 O658 1.953 . S
Zn641 O638 1.945 . S
Zn641 O643 1.932 . S
Zn641 O650 1.977 1_554 S
Zn641 O651 1.910 . S
O642 Zn639 1.933 . S
O642 C653 1.226 . S
O643 Zn641 1.932 . S
O643 C653 1.307 . S
O644 Zn637 1.919 . S
O644 C655 1.253 . S
O645 Zn639 1.941 . S
O645 C655 1.283 . S
O646 Zn639 1.965 . S
O646 C654 1.303 . S
O647 Zn640 1.938 . S
O647 C654 1.247 . S
O648 Zn640 1.906 1_556 S
O648 C656 1.304 . S
O649 Zn637 1.924 . S
O649 C657 1.311 1_545 S
O650 Zn641 1.977 1_556 S
O650 C656 1.272 . S
O651 Zn641 1.910 . S
O651 C657 1.231 1_545 S
C652 O636 1.225 . S
C652 O658 1.298 . S
C653 O642 1.226 . S
C653 O643 1.307 . S
C654 O646 1.303 . S
C654 O647 1.247 . S
C655 O644 1.253 . S
C655 O645 1.283 . S
C656 O648 1.304 . S
C656 O650 1.272 . S
C657 O649 1.311 1_565 S
C657 O651 1.231 1_565 S
O658 Zn640 1.953 . S
O658 C652 1.298 . S
O659 Zn660 1.953 . S
O659 C675 1.225 . S
Zn660 O659 1.953 . S
Zn660 O661 1.949 . S
Zn660 O667 1.919 . S
Zn660 O672 1.924 . S
O661 Zn660 1.949 . S
O661 Zn662 1.923 . S
O661 Zn663 1.950 . S
O661 Zn664 1.945 . S
Zn662 O661 1.923 . S
Zn662 O665 1.933 1_655 S
Zn662 O668 1.941 . S
Zn662 O669 1.965 . S
Zn663 O661 1.950 . S
Zn663 O670 1.938 . S
Zn663 O671 1.906 1_554 S
Zn663 O681 1.953 . S
Zn664 O661 1.945 . S
Zn664 O666 1.932 1_655 S
Zn664 O673 1.977 1_554 S
Zn664 O674 1.910 . S
O665 Zn662 1.933 1_455 S
O665 C676 1.226 . S
O666 Zn664 1.932 1_455 S
O666 C676 1.307 . S
O667 Zn660 1.919 . S
O667 C678 1.253 . S
O668 Zn662 1.941 . S
O668 C678 1.283 . S
O669 Zn662 1.965 . S
O669 C677 1.303 . S
O670 Zn663 1.938 . S
O670 C677 1.247 . S
O671 Zn663 1.906 1_556 S
O671 C679 1.304 . S
O672 Zn660 1.924 . S
O672 C680 1.311 . S
O673 Zn664 1.977 1_556 S
O673 C679 1.272 . S
O674 Zn664 1.910 . S
O674 C680 1.231 . S
C675 O659 1.225 . S
C675 O681 1.298 . S
C676 O665 1.226 . S
C676 O666 1.307 . S
C677 O669 1.303 . S
C677 O670 1.247 . S
C678 O667 1.253 . S
C678 O668 1.283 . S
C679 O671 1.304 . S
C679 O673 1.272 . S
C680 O672 1.311 . S
C680 O674 1.231 . S
O681 Zn663 1.953 . S
O681 C675 1.298 . S
O682 Zn683 1.953 . S
O682 C698 1.225 . S
Zn683 O682 1.953 . S
Zn683 O684 1.949 . S
Zn683 O690 1.919 . S
Zn683 O695 1.924 . S
O684 Zn683 1.949 . S
O684 Zn685 1.923 . S
O684 Zn686 1.950 . S
O684 Zn687 1.945 . S
Zn685 O684 1.923 . S
Zn685 O688 1.933 . S
Zn685 O691 1.941 . S
Zn685 O692 1.965 . S
Zn686 O684 1.950 . S
Zn686 O693 1.938 . S
Zn686 O694 1.906 1_455 S
Zn686 O704 1.953 . S
Zn687 O684 1.945 . S
Zn687 O689 1.932 . S
Zn687 O696 1.977 1_455 S
Zn687 O697 1.910 . S
O688 Zn685 1.933 . S
O688 C699 1.226 . S
O689 Zn687 1.932 . S
O689 C699 1.307 . S
O690 Zn683 1.919 . S
O690 C701 1.253 . S
O691 Zn685 1.941 . S
O691 C701 1.283 . S
O692 Zn685 1.965 . S
O692 C700 1.303 . S
O693 Zn686 1.938 . S
O693 C700 1.247 . S
O694 Zn686 1.906 1_655 S
O694 C702 1.304 . S
O695 Zn683 1.924 . S
O695 C703 1.311 . S
O696 Zn687 1.977 1_655 S
O696 C702 1.272 . S
O697 Zn687 1.910 . S
O697 C703 1.231 . S
C698 O682 1.225 . S
C698 O704 1.298 . S
C699 O688 1.226 . S
C699 O689 1.307 . S
C700 O692 1.303 . S
C700 O693 1.247 . S
C701 O690 1.253 . S
C701 O691 1.283 . S
C702 O694 1.304 . S
C702 O696 1.272 . S
C703 O695 1.311 . S
C703 O697 1.231 . S
O704 Zn686 1.953 . S
O704 C698 1.298 . S
O705 Zn706 1.953 . S
O705 C721 1.225 . S
Zn706 O705 1.953 . S
Zn706 O707 1.949 . S
Zn706 O713 1.919 . S
Zn706 O718 1.924 1_655 S
O707 Zn706 1.949 . S
O707 Zn708 1.923 . S
O707 Zn709 1.950 . S
O707 Zn710 1.945 . S
Zn708 O707 1.923 . S
Zn708 O711 1.933 . S
Zn708 O714 1.941 . S
Zn708 O715 1.965 . S
Zn709 O707 1.950 . S
Zn709 O716 1.938 . S
Zn709 O717 1.906 . S
Zn709 O727 1.953 . S
Zn710 O707 1.945 . S
Zn710 O712 1.932 . S
Zn710 O719 1.977 . S
Zn710 O720 1.910 1_655 S
O711 Zn708 1.933 . S
O711 C722 1.226 . S
O712 Zn710 1.932 . S
O712 C722 1.307 . S
O713 Zn706 1.919 . S
O713 C724 1.253 . S
O714 Zn708 1.941 . S
O714 C724 1.283 . S
O715 Zn708 1.965 . S
O715 C723 1.303 . S
O716 Zn709 1.938 . S
O716 C723 1.247 . S
O717 Zn709 1.906 . S
O717 C725 1.304 . S
O718 Zn706 1.924 1_455 S
O718 C726 1.311 . S
O719 Zn710 1.977 . S
O719 C725 1.272 . S
O720 Zn710 1.910 1_455 S
O720 C726 1.231 . S
C721 O705 1.225 . S
C721 O727 1.298 . S
C722 O711 1.226 . S
C722 O712 1.307 . S
C723 O715 1.303 . S
C723 O716 1.247 . S
C724 O713 1.253 . S
C724 O714 1.283 . S
C725 O717 1.304 . S
C725 O719 1.272 . S
C726 O718 1.311 . S
C726 O720 1.231 . S
O727 Zn709 1.953 . S
O727 C721 1.298 . S
O728 Zn729 1.953 . S
O728 C744 1.225 . S
Zn729 O728 1.953 . S
Zn729 O730 1.949 . S
Zn729 O736 1.919 . S
Zn729 O741 1.924 . S
O730 Zn729 1.949 . S
O730 Zn731 1.923 . S
O730 Zn732 1.950 . S
O730 Zn733 1.945 . S
Zn731 O730 1.923 . S
Zn731 O734 1.933 . S
Zn731 O737 1.941 . S
Zn731 O738 1.965 . S
Zn732 O730 1.950 . S
Zn732 O739 1.938 . S
Zn732 O740 1.906 . S
Zn732 O750 1.953 . S
Zn733 O730 1.945 . S
Zn733 O735 1.932 . S
Zn733 O742 1.977 . S
Zn733 O743 1.910 . S
O734 Zn731 1.933 . S
O734 C745 1.226 . S
O735 Zn733 1.932 . S
O735 C745 1.307 . S
O736 Zn729 1.919 . S
O736 C747 1.253 . S
O737 Zn731 1.941 . S
O737 C747 1.283 . S
O738 Zn731 1.965 . S
O738 C746 1.303 . S
O739 Zn732 1.938 . S
O739 C746 1.247 . S
O740 Zn732 1.906 . S
O740 C748 1.304 . S
O741 Zn729 1.924 . S
O741 C749 1.311 1_565 S
O742 Zn733 1.977 . S
O742 C748 1.272 . S
O743 Zn733 1.910 . S
O743 C749 1.231 1_565 S
C744 O728 1.225 . S
C744 O750 1.298 . S
C745 O734 1.226 . S
C745 O735 1.307 . S
C746 O738 1.303 . S
C746 O739 1.247 . S
C747 O736 1.253 . S
C747 O737 1.283 . S
C748 O740 1.304 . S
C748 O742 1.272 . S
C749 O741 1.311 1_545 S
C749 O743 1.231 1_545 S
O750 Zn732 1.953 . S
O750 C744 1.298 . S
O751 Zn752 1.953 . S
O751 C767 1.225 . S
Zn752 O751 1.953 . S
Zn752 O753 1.949 . S
Zn752 O759 1.919 . S
Zn752 O764 1.924 . S
O753 Zn752 1.949 . S
O753 Zn754 1.923 . S
O753 Zn755 1.950 . S
O753 Zn756 1.945 . S
Zn754 O753 1.923 . S
Zn754 O757 1.933 . S
Zn754 O760 1.941 . S
Zn754 O761 1.965 . S
Zn755 O753 1.950 . S
Zn755 O762 1.938 . S
Zn755 O763 1.906 . S
Zn755 O773 1.953 . S
Zn756 O753 1.945 . S
Zn756 O758 1.932 . S
Zn756 O765 1.977 . S
Zn756 O766 1.910 . S
O757 Zn754 1.933 . S
O757 C768 1.226 . S
O758 Zn756 1.932 . S
O758 C768 1.307 . S
O759 Zn752 1.919 . S
O759 C770 1.253 . S
O760 Zn754 1.941 . S
O760 C770 1.283 . S
O761 Zn754 1.965 . S
O761 C769 1.303 . S
O762 Zn755 1.938 . S
O762 C769 1.247 . S
O763 Zn755 1.906 . S
O763 C771 1.304 . S
O764 Zn752 1.924 . S
O764 C772 1.311 . S
O765 Zn756 1.977 . S
O765 C771 1.272 . S
O766 Zn756 1.910 . S
O766 C772 1.231 . S
C767 O751 1.225 . S
C767 O773 1.298 . S
C768 O757 1.226 . S
C768 O758 1.307 . S
C769 O761 1.303 . S
C769 O762 1.247 . S
C770 O759 1.253 . S
C770 O760 1.283 . S
C771 O763 1.304 . S
C771 O765 1.272 . S
C772 O764 1.311 . S
C772 O766 1.231 . S
O773 Zn755 1.953 . S
O773 C767 1.298 . S
O774 Zn775 1.953 . S
O774 C790 1.225 . S
Zn775 O774 1.953 . S
Zn775 O776 1.949 . S
Zn775 O782 1.919 . S
Zn775 O787 1.924 1_556 S
O776 Zn775 1.949 . S
O776 Zn777 1.923 . S
O776 Zn778 1.950 . S
O776 Zn779 1.945 . S
Zn777 O776 1.923 . S
Zn777 O780 1.933 . S
Zn777 O783 1.941 . S
Zn777 O784 1.965 . S
Zn778 O776 1.950 . S
Zn778 O785 1.938 . S
Zn778 O786 1.906 . S
Zn778 O796 1.953 . S
Zn779 O776 1.945 . S
Zn779 O781 1.932 . S
Zn779 O788 1.977 1_556 S
Zn779 O789 1.910 1_556 S
O780 Zn777 1.933 . S
O780 C791 1.226 . S
O781 Zn779 1.932 . S
O781 C791 1.307 . S
O782 Zn775 1.919 . S
O782 C793 1.253 . S
O783 Zn777 1.941 . S
O783 C793 1.283 . S
O784 Zn777 1.965 . S
O784 C792 1.303 . S
O785 Zn778 1.938 . S
O785 C792 1.247 . S
O786 Zn778 1.906 . S
O786 C794 1.304 . S
O787 Zn775 1.924 1_554 S
O787 C795 1.311 . S
O788 Zn779 1.977 1_554 S
O788 C794 1.272 1_554 S
O789 Zn779 1.910 1_554 S
O789 C795 1.231 . S
C790 O774 1.225 . S
C790 O796 1.298 . S
C791 O780 1.226 . S
C791 O781 1.307 . S
C792 O784 1.303 . S
C792 O785 1.247 . S
C793 O782 1.253 . S
C793 O783 1.283 . S
C794 O786 1.304 . S
C794 O788 1.272 1_556 S
C795 O787 1.311 . S
C795 O789 1.231 . S
O796 Zn778 1.953 . S
O796 C790 1.298 . S
O797 Zn798 1.953 . S
O797 C813 1.225 . S
Zn798 O797 1.953 . S
Zn798 O799 1.949 . S
Zn798 O805 1.919 . S
Zn798 O810 1.924 . S
O799 Zn798 1.949 . S
O799 Zn800 1.923 . S
O799 Zn801 1.950 . S
O799 Zn802 1.945 . S
Zn800 O799 1.923 . S
Zn800 O803 1.933 . S
Zn800 O806 1.941 . S
Zn800 O807 1.965 . S
Zn801 O799 1.950 . S
Zn801 O808 1.938 . S
Zn801 O809 1.906 . S
Zn801 O819 1.953 . S
Zn802 O799 1.945 . S
Zn802 O804 1.932 . S
Zn802 O811 1.977 . S
Zn802 O812 1.910 . S
O803 Zn800 1.933 . S
O803 C814 1.226 1_556 S
O804 Zn802 1.932 . S
O804 C814 1.307 1_556 S
O805 Zn798 1.919 . S
O805 C816 1.253 . S
O806 Zn800 1.941 . S
O806 C816 1.283 . S
O807 Zn800 1.965 . S
O807 C815 1.303 . S
O808 Zn801 1.938 . S
O808 C815 1.247 . S
O809 Zn801 1.906 . S
O809 C817 1.304 1_545 S
O810 Zn798 1.924 . S
O810 C818 1.311 . S
O811 Zn802 1.977 . S
O811 C817 1.272 1_545 S
O812 Zn802 1.910 . S
O812 C818 1.231 . S
C813 O797 1.225 . S
C813 O819 1.298 . S
C814 O803 1.226 1_554 S
C814 O804 1.307 1_554 S
C815 O807 1.303 . S
C815 O808 1.247 . S
C816 O805 1.253 . S
C816 O806 1.283 . S
C817 O809 1.304 1_565 S
C817 O811 1.272 1_565 S
C818 O810 1.311 . S
C818 O812 1.231 . S
O819 Zn801 1.953 . S
O819 C813 1.298 . S
H820 C826 0.958 . S
H821 C829 0.930 . S
H822 C830 0.930 . S
H823 C831 0.930 . S
H824 C834 0.930 . S
H825 C835 0.930 . S
C826 H820 0.958 . S
C826 C827 1.332 1_655 S
C826 C828 1.409 1_655 S
C827 C826 1.332 1_455 S
C827 C829 1.419 . S
C828 C826 1.409 1_455 S
C828 C833 1.425 . S
C828 C835 1.409 1_455 S
C829 H821 0.930 . S
C829 C827 1.419 . S
C829 C830 1.362 . S
C830 H822 0.930 . S
C830 C829 1.362 . S
C830 C833 1.409 . S
C831 H823 0.930 . S
C831 C832 1.355 . S
C831 C833 1.415 . S
C832 C831 1.355 . S
C832 C834 1.419 1_455 S
C833 C828 1.425 . S
C833 C830 1.409 . S
C833 C831 1.415 . S
C834 H824 0.930 . S
C834 C832 1.419 1_655 S
C834 C835 1.362 . S
C835 H825 0.930 . S
C835 C828 1.409 1_655 S
C835 C834 1.362 . S
H836 C842 0.930 . S
H837 C845 0.930 . S
H838 C846 0.930 . S
H839 C847 0.930 . S
H840 C850 0.930 . S
H841 C851 0.930 . S
C842 H836 0.930 . S
C842 C843 1.355 . S
C842 C844 1.415 . S
C843 C842 1.355 . S
C843 C845 1.419 . S
C844 C842 1.415 . S
C844 C849 1.425 . S
C844 C851 1.409 . S
C845 H837 0.930 . S
C845 C843 1.419 . S
C845 C846 1.362 . S
C846 H838 0.930 . S
C846 C845 1.362 . S
C846 C849 1.409 . S
C847 H839 0.930 . S
C847 C848 1.355 . S
C847 C849 1.415 . S
C848 C847 1.355 . S
C848 C850 1.419 . S
C849 C844 1.425 . S
C849 C846 1.409 . S
C849 C847 1.415 . S
C850 H840 0.930 . S
C850 C848 1.419 . S
C850 C851 1.362 . S
C851 H841 0.930 . S
C851 C844 1.409 . S
C851 C850 1.362 . S
H852 C858 0.930 . S
H853 C861 0.930 . S
H854 C862 0.930 . S
H855 C863 0.930 . S
H856 C866 0.930 . S
H857 C867 0.930 . S
C858 H852 0.930 . S
C858 C859 1.355 . S
C858 C860 1.415 . S
C859 C858 1.355 . S
C859 C861 1.419 . S
C860 C858 1.415 . S
C860 C865 1.425 . S
C860 C867 1.409 . S
C861 H853 0.930 . S
C861 C859 1.419 . S
C861 C862 1.362 . S
C862 H854 0.930 . S
C862 C861 1.362 . S
C862 C865 1.409 . S
C863 H855 0.930 . S
C863 C864 1.355 . S
C863 C865 1.415 . S
C864 C863 1.355 . S
C864 C866 1.419 . S
C865 C860 1.425 . S
C865 C862 1.409 . S
C865 C863 1.415 . S
C866 H856 0.930 . S
C866 C864 1.419 . S
C866 C867 1.362 . S
C867 H857 0.930 . S
C867 C860 1.409 . S
C867 C866 1.362 . S
H868 C874 0.930 . S
H869 C877 0.930 . S
H870 C878 0.930 . S
H871 C879 0.930 . S
H872 C882 0.930 . S
H873 C883 0.930 . S
C874 H868 0.930 . S
C874 C875 1.355 1_655 S
C874 C876 1.415 . S
C875 C874 1.355 1_455 S
C875 C877 1.419 . S
C876 C874 1.415 . S
C876 C881 1.425 1_655 S
C876 C883 1.409 . S
C877 H869 0.930 . S
C877 C875 1.419 . S
C877 C878 1.362 . S
C878 H870 0.930 . S
C878 C877 1.362 . S
C878 C881 1.409 . S
C879 H871 0.930 . S
C879 C880 1.355 1_455 S
C879 C881 1.415 . S
C880 C879 1.355 1_655 S
C880 C882 1.419 . S
C881 C876 1.425 1_455 S
C881 C878 1.409 . S
C881 C879 1.415 . S
C882 H872 0.930 . S
C882 C880 1.419 . S
C882 C883 1.362 . S
C883 H873 0.930 . S
C883 C876 1.409 . S
C883 C882 1.362 . S
H884 C890 0.930 1_565 S
H885 C893 0.930 . S
H886 C894 0.930 . S
H887 C895 0.930 . S
H888 C898 0.930 . S
H889 C899 0.930 . S
C890 H884 0.930 1_545 S
C890 C891 1.355 . S
C890 C892 1.415 . S
C891 C890 1.355 . S
C891 C893 1.419 . S
C892 C890 1.415 . S
C892 C897 1.425 . S
C892 C899 1.409 1_545 S
C893 H885 0.930 . S
C893 C891 1.419 . S
C893 C894 1.362 . S
C894 H886 0.930 . S
C894 C893 1.362 . S
C894 C897 1.409 . S
C895 H887 0.930 . S
C895 C896 1.355 . S
C895 C897 1.415 . S
C896 C895 1.355 . S
C896 C898 1.419 1_545 S
C897 C892 1.425 . S
C897 C894 1.409 . S
C897 C895 1.415 . S
C898 H888 0.930 . S
C898 C896 1.419 1_565 S
C898 C899 1.362 . S
C899 H889 0.930 . S
C899 C892 1.409 1_565 S
C899 C898 1.362 . S
H900 C906 0.930 . S
H901 C909 0.930 . S
H902 C910 0.930 . S
H903 C911 0.930 . S
H904 C914 0.930 . S
H905 C915 0.930 . S
C906 H900 0.930 . S
C906 C907 1.355 . S
C906 C908 1.415 . S
C907 C906 1.355 . S
C907 C909 1.419 . S
C908 C906 1.415 . S
C908 C913 1.425 . S
C908 C915 1.409 . S
C909 H901 0.930 . S
C909 C907 1.419 . S
C909 C910 1.362 . S
C910 H902 0.930 . S
C910 C909 1.362 . S
C910 C913 1.409 . S
C911 H903 0.930 . S
C911 C912 1.355 . S
C911 C913 1.415 . S
C912 C911 1.355 . S
C912 C914 1.419 . S
C913 C908 1.425 . S
C913 C910 1.409 . S
C913 C911 1.415 . S
C914 H904 0.930 . S
C914 C912 1.419 . S
C914 C915 1.362 . S
C915 H905 0.930 . S
C915 C908 1.409 . S
C915 C914 1.362 . S
H916 C922 0.929 1_545 S
H917 C925 0.930 . S
H918 C926 0.930 . S
H919 C927 0.930 . S
H920 C930 0.945 . S
H921 C931 0.930 . S
C922 H916 0.929 1_565 S
C922 C923 1.355 . S
C922 C924 1.415 . S
C923 C922 1.355 . S
C923 C925 1.419 . S
C924 C922 1.415 . S
C924 C929 1.425 . S
C924 C931 1.409 1_565 S
C925 H917 0.930 . S
C925 C923 1.419 . S
C925 C926 1.362 . S
C926 H918 0.930 . S
C926 C925 1.362 . S
C926 C929 1.409 . S
C927 H919 0.930 . S
C927 C928 1.355 . S
C927 C929 1.415 . S
C928 C927 1.355 . S
C928 C930 1.395 1_565 S
C929 C924 1.425 . S
C929 C926 1.409 . S
C929 C927 1.415 . S
C930 H920 0.945 . S
C930 C928 1.395 1_545 S
C930 C931 1.372 . S
C931 H921 0.930 . S
C931 C924 1.409 1_545 S
C931 C930 1.372 . S
H932 C938 0.930 . S
H933 C941 0.930 . S
H934 C942 0.930 . S
H935 C943 0.930 . S
H936 C946 0.930 . S
H937 C947 0.930 . S
C938 H932 0.930 . S
C938 C939 1.355 . S
C938 C940 1.415 . S
C939 C938 1.355 . S
C939 C941 1.419 . S
C940 C938 1.415 . S
C940 C945 1.425 . S
C940 C947 1.409 . S
C941 H933 0.930 . S
C941 C939 1.419 . S
C941 C942 1.362 . S
C942 H934 0.930 . S
C942 C941 1.362 . S
C942 C945 1.409 . S
C943 H935 0.930 . S
C943 C944 1.355 . S
C943 C945 1.415 . S
C944 C943 1.355 . S
C944 C946 1.419 . S
C945 C940 1.425 . S
C945 C942 1.409 . S
C945 C943 1.415 . S
C946 H936 0.930 . S
C946 C944 1.419 . S
C946 C947 1.362 . S
C947 H937 0.930 . S
C947 C940 1.409 . S
C947 C946 1.362 . S
H948 C954 0.930 . S
H949 C957 0.930 . S
H950 C958 0.930 . S
H951 C959 0.930 . S
H952 C962 0.930 . S
H953 C963 0.930 . S
C954 H948 0.930 . S
C954 C955 1.355 . S
C954 C956 1.415 . S
C955 C954 1.355 . S
C955 C957 1.419 . S
C956 C954 1.415 . S
C956 C961 1.425 . S
C956 C963 1.409 . S
C957 H949 0.930 . S
C957 C955 1.419 . S
C957 C958 1.362 . S
C958 H950 0.930 . S
C958 C957 1.362 . S
C958 C961 1.409 . S
C959 H951 0.930 . S
C959 C960 1.355 . S
C959 C961 1.415 . S
C960 C959 1.355 . S
C960 C962 1.419 . S
C961 C956 1.425 . S
C961 C958 1.409 . S
C961 C959 1.415 . S
C962 H952 0.930 . S
C962 C960 1.419 . S
C962 C963 1.362 . S
C963 H953 0.930 . S
C963 C956 1.409 . S
C963 C962 1.362 . S
H964 C970 0.930 . S
H965 C973 0.930 . S
H966 C974 0.930 . S
H967 C975 0.930 . S
H968 C978 0.930 . S
H969 C979 0.930 . S
C970 H964 0.930 . S
C970 C971 1.355 . S
C970 C972 1.415 . S
C971 C970 1.355 . S
C971 C973 1.419 . S
C972 C970 1.415 . S
C972 C977 1.425 . S
C972 C979 1.409 . S
C973 H965 0.930 . S
C973 C971 1.419 . S
C973 C974 1.362 . S
C974 H966 0.930 . S
C974 C973 1.362 . S
C974 C977 1.409 . S
C975 H967 0.930 . S
C975 C976 1.355 . S
C975 C977 1.415 . S
C976 C975 1.355 . S
C976 C978 1.419 . S
C977 C972 1.425 . S
C977 C974 1.409 . S
C977 C975 1.415 . S
C978 H968 0.930 . S
C978 C976 1.419 . S
C978 C979 1.362 . S
C979 H969 0.930 . S
C979 C972 1.409 . S
C979 C978 1.362 . S
H980 C986 0.930 . S
H981 C989 0.930 . S
H982 C990 0.930 . S
H983 C991 0.930 . S
H984 C994 0.930 . S
H985 C995 0.930 . S
C986 H980 0.930 . S
C986 C987 1.355 . S
C986 C988 1.415 . S
C987 C986 1.355 . S
C987 C989 1.419 . S
C988 C986 1.415 . S
C988 C993 1.425 . S
C988 C995 1.409 . S
C989 H981 0.930 . S
C989 C987 1.419 . S
C989 C990 1.362 . S
C990 H982 0.930 . S
C990 C989 1.362 . S
C990 C993 1.409 . S
C991 H983 0.930 . S
C991 C992 1.355 . S
C991 C993 1.415 . S
C992 C991 1.355 . S
C992 C994 1.419 . S
C993 C988 1.425 . S
C993 C990 1.409 . S
C993 C991 1.415 . S
C994 H984 0.930 . S
C994 C992 1.419 . S
C994 C995 1.362 . S
C995 H985 0.930 . S
C995 C988 1.409 . S
C995 C994 1.362 . S
H996 C1002 0.930 . S
H997 C1005 0.930 . S
H998 C1006 0.930 . S
H999 C1007 0.930 . S
H1000 C1010 0.930 . S
H1001 C1011 0.930 . S
C1002 H996 0.930 . S
C1002 C1003 1.355 . S
C1002 C1004 1.415 . S
C1003 C1002 1.355 . S
C1003 C1005 1.419 . S
C1004 C1002 1.415 . S
C1004 C1009 1.425 . S
C1004 C1011 1.409 . S
C1005 H997 0.930 . S
C1005 C1003 1.419 . S
C1005 C1006 1.362 . S
C1006 H998 0.930 . S
C1006 C1005 1.362 . S
C1006 C1009 1.409 . S
C1007 H999 0.930 . S
C1007 C1008 1.355 . S
C1007 C1009 1.415 . S
C1008 C1007 1.355 . S
C1008 C1010 1.419 . S
C1009 C1004 1.425 . S
C1009 C1006 1.409 . S
C1009 C1007 1.415 . S
C1010 H1000 0.930 . S
C1010 C1008 1.419 . S
C1010 C1011 1.362 . S
C1011 H1001 0.930 . S
C1011 C1004 1.409 . S
C1011 C1010 1.362 . S
H1012 C1018 0.930 . S
H1013 C1021 0.930 . S
H1014 C1022 0.930 . S
H1015 C1023 0.930 . S
H1016 C1026 0.930 . S
H1017 C1027 0.930 . S
C1018 H1012 0.930 . S
C1018 C1019 1.355 . S
C1018 C1020 1.415 . S
C1019 C1018 1.355 . S
C1019 C1021 1.419 . S
C1020 C1018 1.415 . S
C1020 C1025 1.425 . S
C1020 C1027 1.409 . S
C1021 H1013 0.930 . S
C1021 C1019 1.419 . S
C1021 C1022 1.362 . S
C1022 H1014 0.930 . S
C1022 C1021 1.362 . S
C1022 C1025 1.409 . S
C1023 H1015 0.930 . S
C1023 C1024 1.355 . S
C1023 C1025 1.415 . S
C1024 C1023 1.355 . S
C1024 C1026 1.419 . S
C1025 C1020 1.425 . S
C1025 C1022 1.409 . S
C1025 C1023 1.415 . S
C1026 H1016 0.930 . S
C1026 C1024 1.419 . S
C1026 C1027 1.362 . S
C1027 H1017 0.930 . S
C1027 C1020 1.409 . S
C1027 C1026 1.362 . S
H1028 C1034 0.930 . S
H1029 C1037 0.930 . S
H1030 C1038 0.930 . S
H1031 C1039 0.930 . S
H1032 C1042 0.930 . S
H1033 C1043 0.930 . S
C1034 H1028 0.930 . S
C1034 C1035 1.355 . S
C1034 C1036 1.415 . S
C1035 C1034 1.355 . S
C1035 C1037 1.419 . S
C1036 C1034 1.415 . S
C1036 C1041 1.425 . S
C1036 C1043 1.409 . S
C1037 H1029 0.930 . S
C1037 C1035 1.419 . S
C1037 C1038 1.362 . S
C1038 H1030 0.930 . S
C1038 C1037 1.362 . S
C1038 C1041 1.409 . S
C1039 H1031 0.930 . S
C1039 C1040 1.355 . S
C1039 C1041 1.415 . S
C1040 C1039 1.355 . S
C1040 C1042 1.419 . S
C1041 C1036 1.425 . S
C1041 C1038 1.409 . S
C1041 C1039 1.415 . S
C1042 H1032 0.930 . S
C1042 C1040 1.419 . S
C1042 C1043 1.362 . S
C1043 H1033 0.930 . S
C1043 C1036 1.409 . S
C1043 C1042 1.362 . S
H1044 C1050 0.930 . S
H1045 C1053 0.930 . S
H1046 C1054 0.930 . S
H1047 C1055 0.930 . S
H1048 C1058 0.930 . S
H1049 C1059 0.930 . S
C1050 H1044 0.930 . S
C1050 C1051 1.355 . S
C1050 C1052 1.415 . S
C1051 C1050 1.355 . S
C1051 C1053 1.419 . S
C1052 C1050 1.415 . S
C1052 C1057 1.425 . S
C1052 C1059 1.409 . S
C1053 H1045 0.930 . S
C1053 C1051 1.419 . S
C1053 C1054 1.362 . S
C1054 H1046 0.930 . S
C1054 C1053 1.362 . S
C1054 C1057 1.409 . S
C1055 H1047 0.930 . S
C1055 C1056 1.355 . S
C1055 C1057 1.415 . S
C1056 C1055 1.355 . S
C1056 C1058 1.419 . S
C1057 C1052 1.425 . S
C1057 C1054 1.409 . S
C1057 C1055 1.415 . S
C1058 H1048 0.930 . S
C1058 C1056 1.419 . S
C1058 C1059 1.362 . S
C1059 H1049 0.930 . S
C1059 C1052 1.409 . S
C1059 C1058 1.362 . S
H1060 C1066 0.930 . S
H1061 C1069 0.930 . S
H1062 C1070 0.930 . S
H1063 C1071 0.930 . S
H1064 C1074 0.930 . S
H1065 C1075 0.930 . S
C1066 H1060 0.930 . S
C1066 C1067 1.355 . S
C1066 C1068 1.415 . S
C1067 C1066 1.355 . S
C1067 C1069 1.419 . S
C1068 C1066 1.415 . S
C1068 C1073 1.425 . S
C1068 C1075 1.409 . S
C1069 H1061 0.930 . S
C1069 C1067 1.419 . S
C1069 C1070 1.362 . S
C1070 H1062 0.930 . S
C1070 C1069 1.362 . S
C1070 C1073 1.409 . S
C1071 H1063 0.930 . S
C1071 C1072 1.355 . S
C1071 C1073 1.415 . S
C1072 C1071 1.355 . S
C1072 C1074 1.419 . S
C1073 C1068 1.425 . S
C1073 C1070 1.409 . S
C1073 C1071 1.415 . S
C1074 H1064 0.930 . S
C1074 C1072 1.419 . S
C1074 C1075 1.362 . S
C1075 H1065 0.930 . S
C1075 C1068 1.409 . S
C1075 C1074 1.362 . S
H1076 C1082 0.930 . S
H1077 C1085 0.930 . S
H1078 C1086 0.930 . S
H1079 C1087 0.930 . S
H1080 C1090 0.930 . S
H1081 C1091 0.930 . S
C1082 H1076 0.930 . S
C1082 C1083 1.355 . S
C1082 C1084 1.415 . S
C1083 C1082 1.355 . S
C1083 C1085 1.419 . S
C1084 C1082 1.415 . S
C1084 C1089 1.425 . S
C1084 C1091 1.409 . S
C1085 H1077 0.930 . S
C1085 C1083 1.419 . S
C1085 C1086 1.362 . S
C1086 H1078 0.930 . S
C1086 C1085 1.362 . S
C1086 C1089 1.409 . S
C1087 H1079 0.930 . S
C1087 C1088 1.355 . S
C1087 C1089 1.415 . S
C1088 C1087 1.355 . S
C1088 C1090 1.419 . S
C1089 C1084 1.425 . S
C1089 C1086 1.409 . S
C1089 C1087 1.415 . S
C1090 H1080 0.930 . S
C1090 C1088 1.419 . S
C1090 C1091 1.362 . S
C1091 H1081 0.930 . S
C1091 C1084 1.409 . S
C1091 C1090 1.362 . S
H1092 C1098 0.930 1_545 S
H1093 C1101 0.930 . S
H1094 C1102 0.930 . S
H1095 C1103 0.930 . S
H1096 C1106 0.930 1_545 S
H1097 C1107 0.930 . S
C1098 H1092 0.930 1_565 S
C1098 C1099 1.355 . S
C1098 C1100 1.415 . S
C1099 C1098 1.355 . S
C1099 C1101 1.419 . S
C1100 C1098 1.415 . S
C1100 C1105 1.425 . S
C1100 C1107 1.409 1_565 S
C1101 H1093 0.930 . S
C1101 C1099 1.419 . S
C1101 C1102 1.362 . S
C1102 H1094 0.930 . S
C1102 C1101 1.362 . S
C1102 C1105 1.409 . S
C1103 H1095 0.930 . S
C1103 C1104 1.355 . S
C1103 C1105 1.415 . S
C1104 C1103 1.355 . S
C1104 C1106 1.419 . S
C1105 C1100 1.425 . S
C1105 C1102 1.409 . S
C1105 C1103 1.415 . S
C1106 H1096 0.930 1_565 S
C1106 C1104 1.419 . S
C1106 C1107 1.362 1_565 S
C1107 H1097 0.930 . S
C1107 C1100 1.409 1_545 S
C1107 C1106 1.362 1_545 S
H1108 C1114 0.930 . S
H1109 C1117 0.930 . S
H1110 C1118 0.930 . S
H1111 C1119 0.930 . S
H1112 C1122 0.930 . S
H1113 C1123 0.930 . S
C1114 H1108 0.930 . S
C1114 C1115 1.355 . S
C1114 C1116 1.415 . S
C1115 C1114 1.355 . S
C1115 C1117 1.419 . S
C1116 C1114 1.415 . S
C1116 C1121 1.425 . S
C1116 C1123 1.409 . S
C1117 H1109 0.930 . S
C1117 C1115 1.419 . S
C1117 C1118 1.362 . S
C1118 H1110 0.930 . S
C1118 C1117 1.362 . S
C1118 C1121 1.409 . S
C1119 H1111 0.930 . S
C1119 C1120 1.355 . S
C1119 C1121 1.415 . S
C1120 C1119 1.355 . S
C1120 C1122 1.419 . S
C1121 C1116 1.425 . S
C1121 C1118 1.409 . S
C1121 C1119 1.415 . S
C1122 H1112 0.930 . S
C1122 C1120 1.419 . S
C1122 C1123 1.362 . S
C1123 H1113 0.930 . S
C1123 C1116 1.409 . S
C1123 C1122 1.362 . S
H1124 C1130 0.930 . S
H1125 C1133 0.930 . S
H1126 C1134 0.930 . S
H1127 C1135 0.930 . S
H1128 C1138 0.930 . S
H1129 C1139 0.930 . S
C1130 H1124 0.930 . S
C1130 C1131 1.355 . S
C1130 C1132 1.415 . S
C1131 C1130 1.355 . S
C1131 C1133 1.419 . S
C1132 C1130 1.415 . S
C1132 C1137 1.425 . S
C1132 C1139 1.409 . S
C1133 H1125 0.930 . S
C1133 C1131 1.419 . S
C1133 C1134 1.362 . S
C1134 H1126 0.930 . S
C1134 C1133 1.362 . S
C1134 C1137 1.409 . S
C1135 H1127 0.930 . S
C1135 C1136 1.355 . S
C1135 C1137 1.415 . S
C1136 C1135 1.355 . S
C1136 C1138 1.419 . S
C1137 C1132 1.425 . S
C1137 C1134 1.409 . S
C1137 C1135 1.415 . S
C1138 H1128 0.930 . S
C1138 C1136 1.419 . S
C1138 C1139 1.362 . S
C1139 H1129 0.930 . S
C1139 C1132 1.409 . S
C1139 C1138 1.362 . S
H1140 C1146 0.930 . S
H1141 C1149 0.930 . S
H1142 C1150 0.930 . S
H1143 C1151 0.930 . S
H1144 C1154 0.930 . S
H1145 C1155 0.930 . S
C1146 H1140 0.930 . S
C1146 C1147 1.355 . S
C1146 C1148 1.415 . S
C1147 C1146 1.355 . S
C1147 C1149 1.419 . S
C1148 C1146 1.415 . S
C1148 C1153 1.425 . S
C1148 C1155 1.409 . S
C1149 H1141 0.930 . S
C1149 C1147 1.419 . S
C1149 C1150 1.362 . S
C1150 H1142 0.930 . S
C1150 C1149 1.362 . S
C1150 C1153 1.409 . S
C1151 H1143 0.930 . S
C1151 C1152 1.355 . S
C1151 C1153 1.415 . S
C1152 C1151 1.355 . S
C1152 C1154 1.419 . S
C1153 C1148 1.425 . S
C1153 C1150 1.409 . S
C1153 C1151 1.415 . S
C1154 H1144 0.930 . S
C1154 C1152 1.419 . S
C1154 C1155 1.362 . S
C1155 H1145 0.930 . S
C1155 C1148 1.409 . S
C1155 C1154 1.362 . S
H1156 C1162 0.930 . S
H1157 C1165 0.930 . S
H1158 C1166 0.930 . S
H1159 C1167 0.930 . S
H1160 C1170 0.930 . S
H1161 C1171 0.930 . S
C1162 H1156 0.930 . S
C1162 C1163 1.355 . S
C1162 C1164 1.415 . S
C1163 C1162 1.355 . S
C1163 C1165 1.419 . S
C1164 C1162 1.415 . S
C1164 C1169 1.425 . S
C1164 C1171 1.409 . S
C1165 H1157 0.930 . S
C1165 C1163 1.419 . S
C1165 C1166 1.362 . S
C1166 H1158 0.930 . S
C1166 C1165 1.362 . S
C1166 C1169 1.409 . S
C1167 H1159 0.930 . S
C1167 C1168 1.355 . S
C1167 C1169 1.415 . S
C1168 C1167 1.355 . S
C1168 C1170 1.419 . S
C1169 C1164 1.425 . S
C1169 C1166 1.409 . S
C1169 C1167 1.415 . S
C1170 H1160 0.930 . S
C1170 C1168 1.419 . S
C1170 C1171 1.362 . S
C1171 H1161 0.930 . S
C1171 C1164 1.409 . S
C1171 C1170 1.362 . S
H1172 C1178 0.934 . S
H1173 C1181 0.930 . S
H1174 C1182 0.930 . S
H1175 C1183 0.930 . S
H1176 C1186 0.930 . S
H1177 C1187 0.930 . S
C1178 H1172 0.934 . S
C1178 C1179 1.348 1_556 S
C1178 C1180 1.417 . S
C1179 C1178 1.348 1_554 S
C1179 C1181 1.419 . S
C1180 C1178 1.417 . S
C1180 C1185 1.425 1_556 S
C1180 C1187 1.409 . S
C1181 H1173 0.930 . S
C1181 C1179 1.419 . S
C1181 C1182 1.362 . S
C1182 H1174 0.930 . S
C1182 C1181 1.362 . S
C1182 C1185 1.409 . S
C1183 H1175 0.930 . S
C1183 C1184 1.355 1_554 S
C1183 C1185 1.415 . S
C1184 C1183 1.355 1_556 S
C1184 C1186 1.419 . S
C1185 C1180 1.425 1_554 S
C1185 C1182 1.409 . S
C1185 C1183 1.415 . S
C1186 H1176 0.930 . S
C1186 C1184 1.419 . S
C1186 C1187 1.362 . S
C1187 H1177 0.930 . S
C1187 C1180 1.409 . S
C1187 C1186 1.362 . S
H1188 C1194 0.930 . S
H1189 C1197 0.930 . S
H1190 C1198 0.930 . S
H1191 C1199 0.930 . S
H1192 C1202 0.930 . S
H1193 C1203 0.930 . S
C1194 H1188 0.930 . S
C1194 C1195 1.355 . S
C1194 C1196 1.415 . S
C1195 C1194 1.355 . S
C1195 C1197 1.419 . S
C1196 C1194 1.415 . S
C1196 C1201 1.425 . S
C1196 C1203 1.409 . S
C1197 H1189 0.930 . S
C1197 C1195 1.419 . S
C1197 C1198 1.362 . S
C1198 H1190 0.930 . S
C1198 C1197 1.362 . S
C1198 C1201 1.409 . S
C1199 H1191 0.930 . S
C1199 C1200 1.355 . S
C1199 C1201 1.415 . S
C1200 C1199 1.355 . S
C1200 C1202 1.419 . S
C1201 C1196 1.425 . S
C1201 C1198 1.409 . S
C1201 C1199 1.415 . S
C1202 H1192 0.930 . S
C1202 C1200 1.419 . S
C1202 C1203 1.362 . S
C1203 H1193 0.930 . S
C1203 C1196 1.409 . S
C1203 C1202 1.362 . S
H1204 C1210 0.930 . S
H1205 C1213 0.930 1_655 S
H1206 C1214 0.930 1_655 S
H1207 C1215 0.930 . S
H1208 C1218 0.930 . S
H1209 C1219 0.930 . S
C1210 H1204 0.930 . S
C1210 C1211 1.355 . S
C1210 C1212 1.415 . S
C1211 C1210 1.355 . S
C1211 C1213 1.419 . S
C1212 C1210 1.415 . S
C1212 C1217 1.425 . S
C1212 C1219 1.409 . S
C1213 H1205 0.930 1_455 S
C1213 C1211 1.419 . S
C1213 C1214 1.362 . S
C1214 H1206 0.930 1_455 S
C1214 C1213 1.362 . S
C1214 C1217 1.409 . S
C1215 H1207 0.930 . S
C1215 C1216 1.355 . S
C1215 C1217 1.415 . S
C1216 C1215 1.355 . S
C1216 C1218 1.419 . S
C1217 C1212 1.425 . S
C1217 C1214 1.409 . S
C1217 C1215 1.415 . S
C1218 H1208 0.930 . S
C1218 C1216 1.419 . S
C1218 C1219 1.362 . S
C1219 H1209 0.930 . S
C1219 C1212 1.409 . S
C1219 C1218 1.362 . S
H1220 C1226 0.930 . S
H1221 C1229 0.930 . S
H1222 C1230 0.930 . S
H1223 C1231 0.930 . S
H1224 C1234 0.930 . S
H1225 C1235 0.930 . S
C1226 H1220 0.930 . S
C1226 C1227 1.355 1_455 S
C1226 C1228 1.415 1_455 S
C1227 C1226 1.355 1_655 S
C1227 C1229 1.419 . S
C1228 C1226 1.415 1_655 S
C1228 C1233 1.425 . S
C1228 C1235 1.409 1_655 S
C1229 H1221 0.930 . S
C1229 C1227 1.419 . S
C1229 C1230 1.362 . S
C1230 H1222 0.930 . S
C1230 C1229 1.362 . S
C1230 C1233 1.409 . S
C1231 H1223 0.930 . S
C1231 C1232 1.355 . S
C1231 C1233 1.415 . S
C1232 C1231 1.355 . S
C1232 C1234 1.419 1_655 S
C1233 C1228 1.425 . S
C1233 C1230 1.409 . S
C1233 C1231 1.415 . S
C1234 H1224 0.930 . S
C1234 C1232 1.419 1_455 S
C1234 C1235 1.362 . S
C1235 H1225 0.930 . S
C1235 C1228 1.409 1_455 S
C1235 C1234 1.362 . S
H1236 C1242 0.930 . S
H1237 C1245 0.930 . S
H1238 C1246 0.930 . S
H1239 C1247 0.930 . S
H1240 C1250 0.930 . S
H1241 C1251 0.930 . S
C1242 H1236 0.930 . S
C1242 C1243 1.355 . S
C1242 C1244 1.415 . S
C1243 C1242 1.355 . S
C1243 C1245 1.419 . S
C1244 C1242 1.415 . S
C1244 C1249 1.425 . S
C1244 C1251 1.409 . S
C1245 H1237 0.930 . S
C1245 C1243 1.419 . S
C1245 C1246 1.362 . S
C1246 H1238 0.930 . S
C1246 C1245 1.362 . S
C1246 C1249 1.409 . S
C1247 H1239 0.930 . S
C1247 C1248 1.355 . S
C1247 C1249 1.415 . S
C1248 C1247 1.355 . S
C1248 C1250 1.419 . S
C1249 C1244 1.425 . S
C1249 C1246 1.409 . S
C1249 C1247 1.415 . S
C1250 H1240 0.930 . S
C1250 C1248 1.419 . S
C1250 C1251 1.362 . S
C1251 H1241 0.930 . S
C1251 C1244 1.409 . S
C1251 C1250 1.362 . S
H1252 C1258 0.930 . S
H1253 C1261 0.930 . S
H1254 C1262 0.930 . S
H1255 C1263 0.915 1_455 S
H1256 C1266 0.930 . S
H1257 C1267 0.930 . S
C1258 H1252 0.930 . S
C1258 C1259 1.355 . S
C1258 C1260 1.415 . S
C1259 C1258 1.355 . S
C1259 C1261 1.419 1_655 S
C1260 C1258 1.415 . S
C1260 C1265 1.425 . S
C1260 C1267 1.409 . S
C1261 H1253 0.930 . S
C1261 C1259 1.419 1_455 S
C1261 C1262 1.362 . S
C1262 H1254 0.930 . S
C1262 C1261 1.362 . S
C1262 C1265 1.409 1_455 S
C1263 H1255 0.915 1_655 S
C1263 C1264 1.368 . S
C1263 C1265 1.416 . S
C1264 C1263 1.368 . S
C1264 C1266 1.419 . S
C1265 C1260 1.425 . S
C1265 C1262 1.409 1_655 S
C1265 C1263 1.416 . S
C1266 H1256 0.930 . S
C1266 C1264 1.419 . S
C1266 C1267 1.362 . S
C1267 H1257 0.930 . S
C1267 C1260 1.409 . S
C1267 C1266 1.362 . S
H1268 C1274 0.930 . S
H1269 C1277 0.930 . S
H1270 C1278 0.930 . S
H1271 C1279 0.930 . S
H1272 C1282 0.930 . S
H1273 C1283 0.930 . S
C1274 H1268 0.930 . S
C1274 C1275 1.355 . S
C1274 C1276 1.415 . S
C1275 C1274 1.355 . S
C1275 C1277 1.419 . S
C1276 C1274 1.415 . S
C1276 C1281 1.425 . S
C1276 C1283 1.409 . S
C1277 H1269 0.930 . S
C1277 C1275 1.419 . S
C1277 C1278 1.362 . S
C1278 H1270 0.930 . S
C1278 C1277 1.362 . S
C1278 C1281 1.409 . S
C1279 H1271 0.930 . S
C1279 C1280 1.355 . S
C1279 C1281 1.415 . S
C1280 C1279 1.355 . S
C1280 C1282 1.419 . S
C1281 C1276 1.425 . S
C1281 C1278 1.409 . S
C1281 C1279 1.415 . S
C1282 H1272 0.930 . S
C1282 C1280 1.419 . S
C1282 C1283 1.362 . S
C1283 H1273 0.930 . S
C1283 C1276 1.409 . S
C1283 C1282 1.362 . S
H1284 C1290 0.930 . S
H1285 C1293 0.930 . S
H1286 C1294 0.930 . S
H1287 C1295 0.930 . S
H1288 C1298 0.930 . S
H1289 C1299 0.930 . S
C1290 H1284 0.930 . S
C1290 C1291 1.355 . S
C1290 C1292 1.415 . S
C1291 C1290 1.355 . S
C1291 C1293 1.419 . S
C1292 C1290 1.415 . S
C1292 C1297 1.425 . S
C1292 C1299 1.409 . S
C1293 H1285 0.930 . S
C1293 C1291 1.419 . S
C1293 C1294 1.362 . S
C1294 H1286 0.930 . S
C1294 C1293 1.362 . S
C1294 C1297 1.409 . S
C1295 H1287 0.930 . S
C1295 C1296 1.355 . S
C1295 C1297 1.415 . S
C1296 C1295 1.355 . S
C1296 C1298 1.419 . S
C1297 C1292 1.425 . S
C1297 C1294 1.409 . S
C1297 C1295 1.415 . S
C1298 H1288 0.930 . S
C1298 C1296 1.419 . S
C1298 C1299 1.362 . S
C1299 H1289 0.930 . S
C1299 C1292 1.409 . S
C1299 C1298 1.362 . S
H1300 C1306 0.930 . S
H1301 C1309 0.936 . S
H1302 C1310 0.930 . S
H1303 C1311 0.930 . S
H1304 C1314 0.930 . S
H1305 C1315 0.930 . S
C1306 H1300 0.930 . S
C1306 C1307 1.355 . S
C1306 C1308 1.415 . S
C1307 C1306 1.355 . S
C1307 C1309 1.412 1_565 S
C1308 C1306 1.415 . S
C1308 C1313 1.425 . S
C1308 C1315 1.409 . S
C1309 H1301 0.936 . S
C1309 C1307 1.412 1_545 S
C1309 C1310 1.363 . S
C1310 H1302 0.930 . S
C1310 C1309 1.363 . S
C1310 C1313 1.409 1_545 S
C1311 H1303 0.930 . S
C1311 C1312 1.355 . S
C1311 C1313 1.415 . S
C1312 C1311 1.355 . S
C1312 C1314 1.419 . S
C1313 C1308 1.425 . S
C1313 C1310 1.409 1_565 S
C1313 C1311 1.415 . S
C1314 H1304 0.930 . S
C1314 C1312 1.419 . S
C1314 C1315 1.362 . S
C1315 H1305 0.930 . S
C1315 C1308 1.409 . S
C1315 C1314 1.362 . S
H1316 C1322 0.930 . S
H1317 C1325 0.930 . S
H1318 C1326 0.930 . S
H1319 C1327 0.930 . S
H1320 C1330 0.930 . S
H1321 C1331 0.930 . S
C1322 H1316 0.930 . S
C1322 C1323 1.355 . S
C1322 C1324 1.415 . S
C1323 C1322 1.355 . S
C1323 C1325 1.419 . S
C1324 C1322 1.415 . S
C1324 C1329 1.425 . S
C1324 C1331 1.409 . S
C1325 H1317 0.930 . S
C1325 C1323 1.419 . S
C1325 C1326 1.362 . S
C1326 H1318 0.930 . S
C1326 C1325 1.362 . S
C1326 C1329 1.409 . S
C1327 H1319 0.930 . S
C1327 C1328 1.355 . S
C1327 C1329 1.415 . S
C1328 C1327 1.355 . S
C1328 C1330 1.419 . S
C1329 C1324 1.425 . S
C1329 C1326 1.409 . S
C1329 C1327 1.415 . S
C1330 H1320 0.930 . S
C1330 C1328 1.419 . S
C1330 C1331 1.362 . S
C1331 H1321 0.930 . S
C1331 C1324 1.409 . S
C1331 C1330 1.362 . S
H1332 C1338 0.930 . S
H1333 C1341 0.930 . S
H1334 C1342 0.930 . S
H1335 C1343 0.930 . S
H1336 C1346 0.930 . S
H1337 C1347 0.930 1_556 S
C1338 H1332 0.930 . S
C1338 C1339 1.355 . S
C1338 C1340 1.415 . S
C1339 C1338 1.355 . S
C1339 C1341 1.419 . S
C1340 C1338 1.415 . S
C1340 C1345 1.425 . S
C1340 C1347 1.409 . S
C1341 H1333 0.930 . S
C1341 C1339 1.419 . S
C1341 C1342 1.362 . S
C1342 H1334 0.930 . S
C1342 C1341 1.362 . S
C1342 C1345 1.409 . S
C1343 H1335 0.930 . S
C1343 C1344 1.355 . S
C1343 C1345 1.415 . S
C1344 C1343 1.355 . S
C1344 C1346 1.419 . S
C1345 C1340 1.425 . S
C1345 C1342 1.409 . S
C1345 C1343 1.415 . S
C1346 H1336 0.930 . S
C1346 C1344 1.419 . S
C1346 C1347 1.362 . S
C1347 H1337 0.930 1_554 S
C1347 C1340 1.409 . S
C1347 C1346 1.362 . S
H1348 C1354 0.930 . S
H1349 C1357 0.930 . S
H1350 C1358 0.930 . S
H1351 C1359 0.930 . S
H1352 C1362 0.930 . S
H1353 C1363 0.930 . S
C1354 H1348 0.930 . S
C1354 C1355 1.355 . S
C1354 C1356 1.415 . S
C1355 C1354 1.355 . S
C1355 C1357 1.419 . S
C1356 C1354 1.415 . S
C1356 C1361 1.425 . S
C1356 C1363 1.409 . S
C1357 H1349 0.930 . S
C1357 C1355 1.419 . S
C1357 C1358 1.362 . S
C1358 H1350 0.930 . S
C1358 C1357 1.362 . S
C1358 C1361 1.409 . S
C1359 H1351 0.930 . S
C1359 C1360 1.355 . S
C1359 C1361 1.415 . S
C1360 C1359 1.355 . S
C1360 C1362 1.419 . S
C1361 C1356 1.425 . S
C1361 C1358 1.409 . S
C1361 C1359 1.415 . S
C1362 H1352 0.930 . S
C1362 C1360 1.419 . S
C1362 C1363 1.362 . S
C1363 H1353 0.930 . S
C1363 C1356 1.409 . S
C1363 C1362 1.362 . S
H1364 C1370 0.930 . S
H1365 C1373 0.930 . S
H1366 C1374 0.930 . S
H1367 C1375 0.930 . S
H1368 C1378 0.930 . S
H1369 C1379 0.930 . S
C1370 H1364 0.930 . S
C1370 C1371 1.355 . S
C1370 C1372 1.415 . S
C1371 C1370 1.355 . S
C1371 C1373 1.419 . S
C1372 C1370 1.415 . S
C1372 C1377 1.425 . S
C1372 C1379 1.409 . S
C1373 H1365 0.930 . S
C1373 C1371 1.419 . S
C1373 C1374 1.362 . S
C1374 H1366 0.930 . S
C1374 C1373 1.362 . S
C1374 C1377 1.409 . S
C1375 H1367 0.930 . S
C1375 C1376 1.355 . S
C1375 C1377 1.415 . S
C1376 C1375 1.355 . S
C1376 C1378 1.419 . S
C1377 C1372 1.425 . S
C1377 C1374 1.409 . S
C1377 C1375 1.415 . S
C1378 H1368 0.930 . S
C1378 C1376 1.419 . S
C1378 C1379 1.362 . S
C1379 H1369 0.930 . S
C1379 C1372 1.409 . S
C1379 C1378 1.362 . S
H1380 C1386 0.930 . S
H1381 C1389 0.930 . S
H1382 C1390 0.930 . S
H1383 C1391 0.930 . S
H1384 C1394 0.930 . S
H1385 C1395 0.930 . S
C1386 H1380 0.930 . S
C1386 C1387 1.355 . S
C1386 C1388 1.415 . S
C1387 C1386 1.355 . S
C1387 C1389 1.419 . S
C1388 C1386 1.415 . S
C1388 C1393 1.425 . S
C1388 C1395 1.409 . S
C1389 H1381 0.930 . S
C1389 C1387 1.419 . S
C1389 C1390 1.362 . S
C1390 H1382 0.930 . S
C1390 C1389 1.362 . S
C1390 C1393 1.409 . S
C1391 H1383 0.930 . S
C1391 C1392 1.355 . S
C1391 C1393 1.415 . S
C1392 C1391 1.355 . S
C1392 C1394 1.419 . S
C1393 C1388 1.425 . S
C1393 C1390 1.409 . S
C1393 C1391 1.415 . S
C1394 H1384 0.930 . S
C1394 C1392 1.419 . S
C1394 C1395 1.362 . S
C1395 H1385 0.930 . S
C1395 C1388 1.409 . S
C1395 C1394 1.362 . S
H1396 C1402 0.930 . S
H1397 C1405 0.930 . S
H1398 C1406 0.930 . S
H1399 C1407 0.930 . S
H1400 C1410 0.930 . S
H1401 C1411 0.930 . S
C1402 H1396 0.930 . S
C1402 C1403 1.355 . S
C1402 C1404 1.415 . S
C1403 C1402 1.355 . S
C1403 C1405 1.419 . S
C1404 C1402 1.415 . S
C1404 C1409 1.425 . S
C1404 C1411 1.409 . S
C1405 H1397 0.930 . S
C1405 C1403 1.419 . S
C1405 C1406 1.362 . S
C1406 H1398 0.930 . S
C1406 C1405 1.362 . S
C1406 C1409 1.409 . S
C1407 H1399 0.930 . S
C1407 C1408 1.355 . S
C1407 C1409 1.415 . S
C1408 C1407 1.355 . S
C1408 C1410 1.419 . S
C1409 C1404 1.425 . S
C1409 C1406 1.409 . S
C1409 C1407 1.415 . S
C1410 H1400 0.930 . S
C1410 C1408 1.419 . S
C1410 C1411 1.362 . S
C1411 H1401 0.930 . S
C1411 C1404 1.409 . S
C1411 C1410 1.362 . S
H1412 C1418 0.930 . S
H1413 C1421 0.930 . S
H1414 C1422 0.930 . S
H1415 C1423 0.930 . S
H1416 C1426 0.930 . S
H1417 C1427 0.930 . S
C1418 H1412 0.930 . S
C1418 C1419 1.355 . S
C1418 C1420 1.415 . S
C1419 C1418 1.355 . S
C1419 C1421 1.419 . S
C1420 C1418 1.415 . S
C1420 C1425 1.425 . S
C1420 C1427 1.409 . S
C1421 H1413 0.930 . S
C1421 C1419 1.419 . S
C1421 C1422 1.362 . S
C1422 H1414 0.930 . S
C1422 C1421 1.362 . S
C1422 C1425 1.409 . S
C1423 H1415 0.930 . S
C1423 C1424 1.355 . S
C1423 C1425 1.415 . S
C1424 C1423 1.355 . S
C1424 C1426 1.419 . S
C1425 C1420 1.425 . S
C1425 C1422 1.409 . S
C1425 C1423 1.415 . S
C1426 H1416 0.930 . S
C1426 C1424 1.419 . S
C1426 C1427 1.362 . S
C1427 H1417 0.930 . S
C1427 C1420 1.409 . S
C1427 C1426 1.362 . S
H1428 C1434 0.930 . S
H1429 C1437 0.930 . S
H1430 C1438 0.930 . S
H1431 C1439 0.930 . S
H1432 C1442 0.930 . S
H1433 C1443 0.930 . S
C1434 H1428 0.930 . S
C1434 C1435 1.355 . S
C1434 C1436 1.415 . S
C1435 C1434 1.355 . S
C1435 C1437 1.419 . S
C1436 C1434 1.415 . S
C1436 C1441 1.425 . S
C1436 C1443 1.409 . S
C1437 H1429 0.930 . S
C1437 C1435 1.419 . S
C1437 C1438 1.362 . S
C1438 H1430 0.930 . S
C1438 C1437 1.362 . S
C1438 C1441 1.409 . S
C1439 H1431 0.930 . S
C1439 C1440 1.355 . S
C1439 C1441 1.415 . S
C1440 C1439 1.355 . S
C1440 C1442 1.419 . S
C1441 C1436 1.425 . S
C1441 C1438 1.409 . S
C1441 C1439 1.415 . S
C1442 H1432 0.930 . S
C1442 C1440 1.419 . S
C1442 C1443 1.362 . S
C1443 H1433 0.930 . S
C1443 C1436 1.409 . S
C1443 C1442 1.362 . S
H1444 C1450 0.930 . S
H1445 C1453 0.930 . S
H1446 C1454 0.930 . S
H1447 C1455 0.930 . S
H1448 C1458 0.930 . S
H1449 C1459 0.930 . S
C1450 H1444 0.930 . S
C1450 C1451 1.355 . S
C1450 C1452 1.415 . S
C1451 C1450 1.355 . S
C1451 C1453 1.419 . S
C1452 C1450 1.415 . S
C1452 C1457 1.425 . S
C1452 C1459 1.409 . S
C1453 H1445 0.930 . S
C1453 C1451 1.419 . S
C1453 C1454 1.362 . S
C1454 H1446 0.930 . S
C1454 C1453 1.362 . S
C1454 C1457 1.409 . S
C1455 H1447 0.930 . S
C1455 C1456 1.355 . S
C1455 C1457 1.415 . S
C1456 C1455 1.355 . S
C1456 C1458 1.419 . S
C1457 C1452 1.425 . S
C1457 C1454 1.409 . S
C1457 C1455 1.415 . S
C1458 H1448 0.930 . S
C1458 C1456 1.419 . S
C1458 C1459 1.362 . S
C1459 H1449 0.930 . S
C1459 C1452 1.409 . S
C1459 C1458 1.362 . S
H1460 C1466 0.930 . S
H1461 C1469 0.930 . S
H1462 C1470 0.930 . S
H1463 C1471 0.930 . S
H1464 C1474 0.930 . S
H1465 C1475 0.930 . S
C1466 H1460 0.930 . S
C1466 C1467 1.355 . S
C1466 C1468 1.415 . S
C1467 C1466 1.355 . S
C1467 C1469 1.419 . S
C1468 C1466 1.415 . S
C1468 C1473 1.425 . S
C1468 C1475 1.409 . S
C1469 H1461 0.930 . S
C1469 C1467 1.419 . S
C1469 C1470 1.362 . S
C1470 H1462 0.930 . S
C1470 C1469 1.362 . S
C1470 C1473 1.409 . S
C1471 H1463 0.930 . S
C1471 C1472 1.355 . S
C1471 C1473 1.415 . S
C1472 C1471 1.355 . S
C1472 C1474 1.419 . S
C1473 C1468 1.425 . S
C1473 C1470 1.409 . S
C1473 C1471 1.415 . S
C1474 H1464 0.930 . S
C1474 C1472 1.419 . S
C1474 C1475 1.362 . S
C1475 H1465 0.930 . S
C1475 C1468 1.409 . S
C1475 C1474 1.362 . S
H1476 C1482 0.930 . S
H1477 C1485 0.930 . S
H1478 C1486 0.930 . S
H1479 C1487 0.930 . S
H1480 C1490 0.930 . S
H1481 C1491 0.930 . S
C1482 H1476 0.930 . S
C1482 C1483 1.355 . S
C1482 C1484 1.415 . S
C1483 C1482 1.355 . S
C1483 C1485 1.419 . S
C1484 C1482 1.415 . S
C1484 C1489 1.425 . S
C1484 C1491 1.409 . S
C1485 H1477 0.930 . S
C1485 C1483 1.419 . S
C1485 C1486 1.362 . S
C1486 H1478 0.930 . S
C1486 C1485 1.362 . S
C1486 C1489 1.409 . S
C1487 H1479 0.930 . S
C1487 C1488 1.355 . S
C1487 C1489 1.415 . S
C1488 C1487 1.355 . S
C1488 C1490 1.419 . S
C1489 C1484 1.425 . S
C1489 C1486 1.409 . S
C1489 C1487 1.415 . S
C1490 H1480 0.930 . S
C1490 C1488 1.419 . S
C1490 C1491 1.362 . S
C1491 H1481 0.930 . S
C1491 C1484 1.409 . S
C1491 C1490 1.362 . S
H1492 C1498 0.930 . S
H1493 C1501 0.930 . S
H1494 C1502 0.930 . S
H1495 C1503 0.930 . S
H1496 C1506 0.930 . S
H1497 C1507 0.930 . S
C1498 H1492 0.930 . S
C1498 C1499 1.355 . S
C1498 C1500 1.415 . S
C1499 C1498 1.355 . S
C1499 C1501 1.419 . S
C1500 C1498 1.415 . S
C1500 C1505 1.425 . S
C1500 C1507 1.409 . S
C1501 H1493 0.930 . S
C1501 C1499 1.419 . S
C1501 C1502 1.362 . S
C1502 H1494 0.930 . S
C1502 C1501 1.362 . S
C1502 C1505 1.409 . S
C1503 H1495 0.930 . S
C1503 C1504 1.355 . S
C1503 C1505 1.415 . S
C1504 C1503 1.355 . S
C1504 C1506 1.419 . S
C1505 C1500 1.425 . S
C1505 C1502 1.409 . S
C1505 C1503 1.415 . S
C1506 H1496 0.930 . S
C1506 C1504 1.419 . S
C1506 C1507 1.362 . S
C1507 H1497 0.930 . S
C1507 C1500 1.409 . S
C1507 C1506 1.362 . S
H1508 C1514 0.930 . S
H1509 C1517 0.930 . S
H1510 C1518 0.930 . S
H1511 C1519 0.930 . S
H1512 C1522 0.930 . S
H1513 C1523 0.930 . S
C1514 H1508 0.930 . S
C1514 C1515 1.355 . S
C1514 C1516 1.415 . S
C1515 C1514 1.355 . S
C1515 C1517 1.419 . S
C1516 C1514 1.415 . S
C1516 C1521 1.425 . S
C1516 C1523 1.409 . S
C1517 H1509 0.930 . S
C1517 C1515 1.419 . S
C1517 C1518 1.362 . S
C1518 H1510 0.930 . S
C1518 C1517 1.362 . S
C1518 C1521 1.409 . S
C1519 H1511 0.930 . S
C1519 C1520 1.355 . S
C1519 C1521 1.415 . S
C1520 C1519 1.355 . S
C1520 C1522 1.419 . S
C1521 C1516 1.425 . S
C1521 C1518 1.409 . S
C1521 C1519 1.415 . S
C1522 H1512 0.930 . S
C1522 C1520 1.419 . S
C1522 C1523 1.362 . S
C1523 H1513 0.930 . S
C1523 C1516 1.409 . S
C1523 C1522 1.362 . S
H1524 C1530 0.930 . S
H1525 C1533 0.930 . S
H1526 C1534 0.930 . S
H1527 C1535 0.930 . S
H1528 C1538 0.930 . S
H1529 C1539 0.930 . S
C1530 H1524 0.930 . S
C1530 C1531 1.355 . S
C1530 C1532 1.415 . S
C1531 C1530 1.355 . S
C1531 C1533 1.419 . S
C1532 C1530 1.415 . S
C1532 C1537 1.425 . S
C1532 C1539 1.409 . S
C1533 H1525 0.930 . S
C1533 C1531 1.419 . S
C1533 C1534 1.362 . S
C1534 H1526 0.930 . S
C1534 C1533 1.362 . S
C1534 C1537 1.409 . S
C1535 H1527 0.930 . S
C1535 C1536 1.355 . S
C1535 C1537 1.415 . S
C1536 C1535 1.355 . S
C1536 C1538 1.419 . S
C1537 C1532 1.425 . S
C1537 C1534 1.409 . S
C1537 C1535 1.415 . S
C1538 H1528 0.930 . S
C1538 C1536 1.419 . S
C1538 C1539 1.362 . S
C1539 H1529 0.930 . S
C1539 C1532 1.409 . S
C1539 C1538 1.362 . S
H1540 C1546 0.930 . S
H1541 C1549 0.930 . S
H1542 C1550 0.930 1_554 S
H1543 C1551 0.935 . S
H1544 C1554 0.930 . S
H1545 C1555 0.930 . S
C1546 H1540 0.930 . S
C1546 C1547 1.355 . S
C1546 C1548 1.415 . S
C1547 C1546 1.355 . S
C1547 C1549 1.419 . S
C1548 C1546 1.415 . S
C1548 C1553 1.425 . S
C1548 C1555 1.409 . S
C1549 H1541 0.930 . S
C1549 C1547 1.419 . S
C1549 C1550 1.362 . S
C1550 H1542 0.930 1_556 S
C1550 C1549 1.362 . S
C1550 C1553 1.409 . S
C1551 H1543 0.935 . S
C1551 C1552 1.355 . S
C1551 C1553 1.415 . S
C1552 C1551 1.355 . S
C1552 C1554 1.419 . S
C1553 C1548 1.425 . S
C1553 C1550 1.409 . S
C1553 C1551 1.415 . S
C1554 H1544 0.930 . S
C1554 C1552 1.419 . S
C1554 C1555 1.362 . S
C1555 H1545 0.930 . S
C1555 C1548 1.409 . S
C1555 C1554 1.362 . S
H1556 C1562 0.930 1_554 S
H1557 C1565 0.930 . S
H1558 C1566 0.930 . S
H1559 C1567 0.930 . S
H1560 C1570 0.930 . S
H1561 C1571 0.930 . S
C1562 H1556 0.930 1_556 S
C1562 C1563 1.355 . S
C1562 C1564 1.415 . S
C1563 C1562 1.355 . S
C1563 C1565 1.419 . S
C1564 C1562 1.415 . S
C1564 C1569 1.425 . S
C1564 C1571 1.409 . S
C1565 H1557 0.930 . S
C1565 C1563 1.419 . S
C1565 C1566 1.362 . S
C1566 H1558 0.930 . S
C1566 C1565 1.362 . S
C1566 C1569 1.409 . S
C1567 H1559 0.930 . S
C1567 C1568 1.355 . S
C1567 C1569 1.415 . S
C1568 C1567 1.355 . S
C1568 C1570 1.419 . S
C1569 C1564 1.425 . S
C1569 C1566 1.409 . S
C1569 C1567 1.415 . S
C1570 H1560 0.930 . S
C1570 C1568 1.419 . S
C1570 C1571 1.362 . S
C1571 H1561 0.930 . S
C1571 C1564 1.409 . S
C1571 C1570 1.362 . S
H1572 C1578 0.930 1_556 S
H1573 C1581 0.930 . S
H1574 C1582 0.930 . S
H1575 C1583 0.930 . S
H1576 C1586 0.930 1_556 S
H1577 C1587 0.930 . S
C1578 H1572 0.930 1_554 S
C1578 C1579 1.355 . S
C1578 C1580 1.415 . S
C1579 C1578 1.355 . S
C1579 C1581 1.419 . S
C1580 C1578 1.415 . S
C1580 C1585 1.425 . S
C1580 C1587 1.409 1_554 S
C1581 H1573 0.930 . S
C1581 C1579 1.419 . S
C1581 C1582 1.362 . S
C1582 H1574 0.930 . S
C1582 C1581 1.362 . S
C1582 C1585 1.409 . S
C1583 H1575 0.930 . S
C1583 C1584 1.355 . S
C1583 C1585 1.415 . S
C1584 C1583 1.355 . S
C1584 C1586 1.419 . S
C1585 C1580 1.425 . S
C1585 C1582 1.409 . S
C1585 C1583 1.415 . S
C1586 H1576 0.930 1_554 S
C1586 C1584 1.419 . S
C1586 C1587 1.362 1_554 S
C1587 H1577 0.930 . S
C1587 C1580 1.409 1_556 S
C1587 C1586 1.362 1_556 S
C827 C22 1.680 . S
C832 C699 1.688 1_545 S
C848 C725 1.754 . S
C843 C38 1.802 . S
C864 C657 1.749 . S
C859 C75 1.709 . S
C875 C91 1.527 . S
C880 C680 1.554 . S
C891 C128 1.651 . S
C896 C814 1.661 . S
C907 C197 1.449 . S
C912 C795 1.477 . S
C928 C748 1.808 . S
C923 C144 1.846 . S
C939 C181 1.720 . S
C944 C771 1.760 . S
C960 C676 1.827 . S
C955 C234 1.818 . S
C976 C726 1.596 . S
C971 C303 1.558 . S
C987 C356 1.704 . S
C992 C702 1.647 . S
C1003 C287 1.789 . S
C1008 C768 1.823 . S
C1024 C791 1.592 . S
C1019 C393 1.602 . S
C1040 C817 1.824 . S
C1035 C409 1.828 . S
C1051 C462 1.915 . S
C1056 C772 1.940 . S
C1072 C749 1.435 . S
C1067 C446 1.444 . S
C1083 C499 1.626 . S
C1088 C722 1.618 . S
C1099 C552 1.456 . S
C1104 C703 1.453 . S
C1120 C679 1.666 . S
C1115 C515 1.730 . S
C1131 C568 1.988 . S
C1136 C656 1.972 . S
C1152 C745 1.870 . S
C1147 C340 1.884 . S
C1168 C818 1.486 . S
C1163 C621 1.457 . S
C1179 C250 1.613 . S
C1184 C794 1.562 . S
C1195 C605 1.742 . S
C1200 C653 1.760 1_655 S
C1216 C655 1.451 . S
C1211 C39 1.461 . S
C1227 C29 1.336 . S
C1232 C678 1.303 . S
C1248 C700 1.431 . S
C1243 C92 1.392 . S
C1264 C721 1.247 . S
C1259 C82 1.186 . S
C1275 C145 1.586 . S
C1280 C652 1.564 . S
C1291 C188 1.310 . S
C1296 C675 1.286 . S
C1312 C701 1.300 . S
C1307 C135 1.376 . S
C1323 C198 1.470 . S
C1328 C723 1.508 . S
C1339 C251 1.427 . S
C1344 C654 1.409 . S
C1360 C698 1.239 . S
C1355 C294 1.251 . S
C1371 C347 1.365 . S
C1376 C724 1.289 . S
C1387 C304 1.387 . S
C1392 C746 1.433 . S
C1408 C770 1.494 . S
C1403 C410 1.484 . S
C1419 C400 1.352 . S
C1424 C747 1.324 . S
C1435 C453 1.085 . S
C1440 C792 1.120 . S
C1451 C463 1.508 . S
C1456 C813 1.556 . S
C1467 C516 1.517 . S
C1472 C767 1.575 . S
C1488 C744 1.572 . S
C1483 C569 1.604 . S
C1499 C506 1.337 . S
C1504 C793 1.318 . S
C1520 C815 1.325 . S
C1515 C559 1.310 . S
C1536 C769 1.410 . S
C1531 C357 1.418 . S
C1552 C790 1.255 . S
C1547 C612 1.274 . S
C1568 C816 1.282 . S
C1563 C241 1.346 1_556 S
C1579 C622 1.309 . S
C1584 C677 1.325 . S
