# Generated by pormake.
# Topology pth, (4,4)-cn, num edge types: 1
# Building blocks:
#     Node 0, Type 0, BuildingBlock: KUFVIS_clean_sbu_0, # of connection points: 4
#     Node 1, Type 0, BuildingBlock: KUFVIS_clean_sbu_0, # of connection points: 4
#     Node 2, Type 0, BuildingBlock: KUFVIS_clean_sbu_0, # of connection points: 4
#     Node 3, Type 1, BuildingBlock: NAWXER_clean_sbu_0, # of connection points: 4
#     Node 4, Type 1, BuildingBlock: NAWXER_clean_sbu_0, # of connection points: 4
#     Node 5, Type 1, BuildingBlock: NAWXER_clean_sbu_0, # of connection points: 4
#     Edge 6, Type (0, 1), BuildingBlock: AJUNOK_clean_linker_0, # of connection points: 2
#     Edge 7, Type (0, 1), BuildingBlock: AJUNOK_clean_linker_0, # of connection points: 2
#     Edge 8, Type (0, 1), BuildingBlock: AJUNOK_clean_linker_0, # of connection points: 2
#     Edge 9, Type (0, 1), BuildingBlock: AJUNOK_clean_linker_0, # of connection points: 2
#     Edge 10, Type (0, 1), BuildingBlock: AJUNOK_clean_linker_0, # of connection points: 2
#     Edge 11, Type (0, 1), BuildingBlock: AJUNOK_clean_linker_0, # of connection points: 2
#     Edge 12, Type (0, 1), BuildingBlock: AJUNOK_clean_linker_0, # of connection points: 2
#     Edge 13, Type (0, 1), BuildingBlock: AJUNOK_clean_linker_0, # of connection points: 2
#     Edge 14, Type (0, 1), BuildingBlock: AJUNOK_clean_linker_0, # of connection points: 2
#     Edge 15, Type (0, 1), BuildingBlock: AJUNOK_clean_linker_0, # of connection points: 2
#     Edge 16, Type (0, 1), BuildingBlock: AJUNOK_clean_linker_0, # of connection points: 2
#     Edge 17, Type (0, 1), BuildingBlock: AJUNOK_clean_linker_0, # of connection points: 2
# Relax obj value: 0.009
# Max RMSD: 0.080
# Mean RMSD: 0.046
data_MOF--net-pth--node1-KUFVIS_clean_sbu_0--node2-NAWXER_clean_sbu_0--edge1-AJUNOK_clean_linker_0
_symmetry_space_group_name_H-M    P1
_symmetry_Int_Tables_number       1
_symmetry_cell_setting            triclinic
loop_
_symmetry_equiv_pos_as_xyz
'x, y, z'
_cell_length_a     16.313363
_cell_length_b     16.330728
_cell_length_c     42.288125
_cell_angle_alpha  90.458666
_cell_angle_beta   92.237538
_cell_angle_gamma 119.58002
loop_
_atom_site_label
_atom_site_type_symbol
_atom_site_fract_x
_atom_site_fract_y
_atom_site_fract_z
_atom_type_partial_charge
Mn0 Mn 0.06622 0.11413 0.05739 0.0
Mn1 Mn 0.96022 0.21054 0.01254 0.0
C2 C 0.95964 0.02818 0.01577 0.0
C3 C 0.08568 0.03111 0.09933 0.0
C4 C 0.16527 0.2617 1.00764 0.0
O5 O 0.07694 0.22131 0.08642 0.0
O6 O 0.99944 0.27445 0.05471 0.0
C7 C 0.7905 0.15642 0.04908 0.0
N8 N 0.82975 0.15621 0.02125 0.0
C9 C 0.67699 0.07416 0.99396 0.0
C10 C 0.63503 0.07406 0.02228 0.0
C11 C 0.69205 0.11513 0.04998 0.0
C12 C 0.77555 0.11675 0.99447 0.0
H13 H 0.83391 0.18782 0.07046 0.0
C14 C 0.04102 0.27464 0.08103 0.0
O15 O 0.15604 0.0942 0.08463 0.0
O16 O 1.00259 0.01877 0.09072 0.0
N17 N 0.91605 0.15319 0.9711 0.0
C18 C 0.96675 0.15282 0.94628 0.0
C19 C 0.91937 0.10991 0.91722 0.0
C20 C 0.82102 0.06988 0.91372 0.0
C21 C 0.77052 0.07231 0.93941 0.0
C22 C 0.82127 0.11556 0.96786 0.0
H23 H 0.04248 0.1836 0.94879 0.0
O24 O 1.02427 1.00814 0.02533 0.0
O25 O 0.96034 0.09884 0.03014 0.0
O26 O 0.16384 0.20459 0.02792 0.0
O27 O 0.09428 0.27235 1.00074 0.0
C28 C 0.67148 0.03101 0.93816 0.0
C29 C 0.62474 0.03185 0.96542 0.0
H30 H 0.55907 0.04183 0.02311 0.0
H31 H 0.66016 0.1149 0.07197 0.0
H32 H 0.95802 0.10618 0.89762 0.0
H33 H 0.78487 0.03611 0.89135 0.0
H34 H 0.63043 0.9968 0.91651 0.0
H35 H 0.54845 0.99842 0.96431 0.0
Mn36 Mn 0.0697 0.11858 0.39289 0.0
Mn37 Mn 0.1677 0.32452 0.43525 0.0
C38 C 0.17233 0.14502 0.43663 0.0
C39 C 0.05957 1.01449 0.35253 0.0
C40 C 0.96124 0.17335 0.43722 0.0
O41 O 0.06067 0.21159 0.36191 0.0
O42 O 0.14383 0.34716 0.39095 0.0
C43 C 0.3509 0.43481 0.40534 0.0
N44 N 0.3014 0.39621 0.43154 0.0
C45 C 0.44411 0.46397 0.46478 0.0
C46 C 0.49638 0.50578 0.43823 0.0
C47 C 0.44958 0.4907 0.40836 0.0
C48 C 0.34586 0.40953 0.46035 0.0
H49 H 0.31547 0.4227 0.3823 0.0
C50 C 0.10332 0.30205 0.36492 0.0
O51 O 0.98564 1.00675 0.36536 0.0
O52 O 0.14039 0.0863 0.36199 0.0
N53 N 0.19643 0.31123 0.4786 0.0
C54 C 0.13601 0.26434 0.50175 0.0
C55 C 0.17192 0.27015 0.53289 0.0
C56 C 0.26935 0.32466 0.53996 0.0
C57 C 0.33015 0.37271 0.51584 0.0
C58 C 0.29028 0.36468 0.48526 0.0
H59 H 0.06096 0.22283 0.49659 0.0
O60 O 0.11089 0.05948 0.42726 0.0
O61 O 0.17047 0.21132 0.42074 0.0
O62 O 0.96753 0.11297 0.42016 0.0
O63 O 0.02972 0.25715 0.44215 0.0
C64 C 0.4288 0.42758 0.52089 0.0
C65 C 0.48575 0.47313 0.49537 0.0
H66 H 0.57255 0.54844 0.44043 0.0
H67 H 0.48952 0.52177 0.38769 0.0
H68 H 0.12462 0.23286 0.55142 0.0
H69 H 0.29665 0.32897 0.56396 0.0
H70 H 0.46164 0.43458 0.54427 0.0
H71 H 0.56159 0.51447 0.49949 0.0
Mn72 Mn 0.08418 0.10574 0.72625 0.0
Mn73 Mn 1.00318 0.21784 0.77287 0.0
C74 C 0.18094 0.21241 0.7665 0.0
C75 C 0.15958 0.08985 0.68239 0.0
C76 C 0.94757 1.01088 0.77866 0.0
O77 O 0.97118 0.09673 0.69939 0.0
O78 O 0.93333 0.18298 0.73134 0.0
C79 C 0.0616 0.39095 0.7365 0.0
N80 N 0.06006 0.34899 0.76435 0.0
C81 C 0.14346 0.49911 0.79228 0.0
C82 C 0.14361 0.54373 0.76407 0.0
C83 C 0.10318 0.48943 0.73601 0.0
C84 C 0.10055 0.40068 0.79134 0.0
H85 H 0.03188 0.34963 0.71481 0.0
C86 C 0.9248 0.13964 0.70504 0.0
O87 O 0.10006 0.01749 0.69746 0.0
O88 O 0.17143 0.17124 0.69179 0.0
N89 N 0.06651 0.25835 0.81385 0.0
C90 C 0.06943 0.20555 0.83821 0.0
C91 C 0.11411 0.25009 0.86739 0.0
C92 C 0.15302 0.34787 0.87152 0.0
C93 C 0.14832 0.40063 0.84625 0.0
C94 C 0.10365 0.35261 0.81762 0.0
H95 H 0.0392 0.13025 0.8353 0.0
O96 O 0.19754 0.14689 0.75638 0.0
O97 O 0.10797 0.21246 0.75353 0.0
O98 O 0.99907 1.0087 0.75734 0.0
O99 O 0.94104 0.0841 0.78486 0.0
C100 C 0.18882 0.49937 0.84805 0.0
C101 C 0.18663 0.54861 0.82106 0.0
H102 H 0.17615 0.61972 0.76355 0.0
H103 H 0.10435 0.52343 0.71404 0.0
H104 H 0.11933 0.20934 0.88661 0.0
H105 H 0.18791 0.38189 0.89401 0.0
H106 H 0.22385 0.53836 0.86987 0.0
H107 H 0.22009 0.62473 0.82253 0.0
C108 C 1.01853 0.71211 0.267 0.0
C109 C 0.99758 0.49238 0.18085 0.0
O110 O 0.09459 0.72237 0.2561 0.0
Zn111 Zn 0.14874 0.6687 0.22334 0.0
O112 O 0.93955 0.64479 0.25589 0.0
Zn113 Zn 0.99119 0.5926 0.2243 0.0
O114 O 0.05673 0.53698 0.25334 0.0
O115 O 0.21207 0.6193 0.25197 0.0
O116 O 0.9245 0.48599 0.19324 0.0
O117 O 0.07976 0.55686 0.19033 0.0
O118 O 0.20419 0.77775 0.195 0.0
O119 O 0.0489 0.70637 0.19418 0.0
C120 C 0.1379 0.54963 0.26214 0.0
C121 C 0.12677 0.77221 0.18472 0.0
C122 C 0.69918 0.18318 0.60281 0.0
C123 C 0.48315 0.20286 0.52145 0.0
O124 O 0.63568 0.10525 0.58998 0.0
Zn125 Zn 0.5228 0.05105 0.55593 0.0
O126 O 0.70408 0.26047 0.59453 0.0
Zn127 Zn 0.60103 0.20978 0.56172 0.0
O128 O 0.486 0.14095 0.58894 0.0
O129 O 0.40934 0.98681 0.58319 0.0
O130 O 0.55224 0.27644 0.5348 0.0
O131 O 0.47042 0.12129 0.52772 0.0
O132 O 0.57498 1.00308 0.52266 0.0
O133 O 0.65248 0.15778 0.528 0.0
C134 C 0.41671 0.06205 0.59567 0.0
C135 C 0.64139 0.08294 0.51439 0.0
C136 C 0.49714 0.48873 0.93719 0.0
C137 C 0.71777 0.69034 0.85573 0.0
O138 O 0.4854 0.55171 0.92369 0.0
Zn139 Zn 0.53359 0.65366 0.89041 0.0
O140 O 0.56411 0.47471 0.929 0.0
Zn141 Zn 0.61716 0.57466 0.89611 0.0
O142 O 0.66583 0.69552 0.92439 0.0
O143 O 0.58282 0.76867 0.91842 0.0
O144 O 0.72852 0.62438 0.86783 0.0
O145 O 0.64803 0.69973 0.8631 0.0
O146 O 0.4284 0.595 0.85774 0.0
O147 O 0.50482 0.5153 0.86329 0.0
C148 C 0.65271 0.76409 0.93132 0.0
C149 C 0.43783 0.52406 0.85042 0.0
C150 C 1.0119 0.29689 0.13759 0.0
C151 C 0.03518 0.33279 0.10705 0.0
C152 C 0.99158 0.34517 0.16104 0.0
C153 C 0.99311 0.43031 0.15463 0.0
H154 H 1.00772 0.23038 0.14322 0.0
H155 H 0.97741 0.31725 0.18459 0.0
S156 S 0.05533 0.55697 0.07941 0.0
N157 N 0.06143 0.46059 0.07228 0.0
N158 N 1.02439 0.55085 0.1164 0.0
C159 C 1.01718 0.46718 0.12444 0.0
C160 C 0.03771 0.41849 0.10065 0.0
C161 C 0.84496 0.21046 0.46077 0.0
C162 C 0.87183 0.14354 0.45342 0.0
C163 C 0.76622 0.18704 0.47854 0.0
C164 C 0.71139 0.09597 0.49049 0.0
H165 H 0.88604 0.28226 0.45317 0.0
H166 H 0.7504 0.24261 0.48389 0.0
S167 S 0.74877 0.89285 0.47642 0.0
N168 N 0.83411 0.97996 0.4578 0.0
N169 N 0.68709 0.93699 0.49207 0.0
C170 C 0.73475 0.0269 0.48217 0.0
C171 C 0.8148 0.05051 0.46354 0.0
C172 C 0.85183 0.93556 0.82516 0.0
C173 C 0.89582 0.9267 0.7985 0.0
C174 C 0.80014 0.85929 0.84411 0.0
C175 C 0.78947 0.76949 0.83776 0.0
H176 H 0.85566 1.00187 0.83142 0.0
H177 H 0.76534 0.87067 0.86361 0.0
S178 S 0.8952 0.70818 0.77223 0.0
N179 N 0.92975 0.82089 0.76759 0.0
N180 N 0.83088 0.67658 0.80378 0.0
C181 C 0.83606 0.7595 0.81211 0.0
C182 C 0.88938 0.83813 0.79238 0.0
C183 C 1.02119 0.89261 0.1344 0.0
C184 C 0.09976 0.97056 0.12256 0.0
C185 C 0.03174 0.82966 0.15412 0.0
C186 C 0.12151 0.84152 0.16314 0.0
H187 H 0.95047 0.87883 0.12798 0.0
H188 H 0.96794 0.77065 0.16224 0.0
S189 S 0.35099 0.03648 0.13939 0.0
N190 N 0.2716 0.05789 0.12183 0.0
N191 N 0.2908 0.93919 0.15908 0.0
C192 C 0.20105 0.91998 0.15185 0.0
C193 C 0.19035 0.98447 0.1316 0.0
C194 C 0.23829 0.13298 0.4896 0.0
C195 C 0.25295 0.16476 0.45857 0.0
C196 C 0.31503 0.15331 0.51065 0.0
C197 C 0.40882 0.20498 0.50126 0.0
H198 H 0.16728 0.09279 0.49769 0.0
H199 H 0.30088 0.12586 0.53428 0.0
S200 S 0.48325 0.28964 0.42092 0.0
N201 N 0.36713 0.24184 0.41837 0.0
N202 N 0.5112 0.27895 0.45805 0.0
C203 C 0.42419 0.23495 0.47007 0.0
C204 C 0.34613 0.21456 0.44863 0.0
C205 C 0.27952 0.38474 0.77911 0.0
C206 C 0.24948 0.29102 0.78742 0.0
C207 C 0.33823 0.46088 0.79989 0.0
C208 C 0.36982 0.44525 0.82933 0.0
H209 H 0.25609 0.39914 0.75657 0.0
H210 H 0.35969 0.53196 0.79277 0.0
S211 S 0.31643 0.2132 0.86103 0.0
N212 N 0.25986 0.18721 0.82597 0.0
N213 N 0.36971 0.32908 0.8652 0.0
C214 C 0.34298 0.35177 0.83726 0.0
C215 C 0.28357 0.27487 0.81613 0.0
C216 C 0.84736 0.10148 0.64991 0.0
C217 C 0.86509 0.1499 0.67926 0.0
C218 C 0.79582 0.11481 0.62501 0.0
C219 C 0.76232 0.17912 0.62808 0.0
H220 H 0.87289 0.05244 0.64611 0.0
H221 H 0.78193 0.07427 0.60309 0.0
S222 S 0.78638 0.32257 0.6996 0.0
N223 N 0.84045 0.26334 0.70986 0.0
N224 N 0.74841 0.29032 0.66243 0.0
C225 C 0.78001 0.22876 0.65689 0.0
C226 C 0.82992 0.21352 0.68262 0.0
C227 C 0.7869 0.9313 1.00099 0.0
C228 C 0.88154 0.96454 0.99352 0.0
C229 C 0.71152 0.87091 0.97988 0.0
C230 C 0.72901 0.84088 0.95102 0.0
H231 H 0.77112 0.95179 0.02337 0.0
H232 H 0.6397 0.84516 0.98665 0.0
S233 S 0.96408 0.9037 0.92152 0.0
N234 N 0.98814 0.96064 0.95605 0.0
N235 N 0.84792 0.84622 0.91673 0.0
C236 C 0.82353 0.87242 0.94379 0.0
C237 C 0.89951 0.93381 0.96508 0.0
C238 C 0.96208 0.87416 0.31592 0.0
C239 C 0.05081 0.93924 0.33031 0.0
C240 C 0.95055 0.79874 0.29629 0.0
C241 C 0.02721 0.78496 0.29052 0.0
H242 H 0.90087 0.88182 0.31968 0.0
H243 H 0.88167 0.75222 0.28512 0.0
S244 S 0.27277 0.93084 0.32493 0.0
N245 N 0.21525 0.9819 0.33865 0.0
N246 N 0.19439 0.84032 0.30271 0.0
C247 C 0.11586 0.84837 0.30558 0.0
C248 C 0.12754 0.92548 0.32513 0.0
C249 C 0.21392 0.99344 0.65145 0.0
C250 C 0.21794 0.08061 0.65782 0.0
C251 C 0.27617 0.98598 0.63081 0.0
C252 C 0.345 0.06556 0.61587 0.0
H253 H 0.16398 0.93076 0.66315 0.0
H254 H 0.27197 0.91824 0.62724 0.0
S255 S 0.3799 0.30912 0.62291 0.0
N256 N 0.29304 0.24654 0.64612 0.0
N257 N 0.40805 0.23393 0.60747 0.0
C258 C 0.34667 0.1524 0.62119 0.0
C259 C 0.28381 0.15959 0.64209 0.0
C260 C 0.30303 0.27888 0.9776 0.0
C261 C 0.25506 0.32018 0.99211 0.0
C262 C 0.38666 0.33396 0.96165 0.0
C263 C 0.42584 0.43223 0.96042 0.0
H264 H 0.27354 0.20315 0.97748 0.0
H265 H 0.41764 0.29905 0.94888 0.0
S266 S 0.33513 0.57486 0.99935 0.0
N267 N 0.25754 0.46493 1.00689 0.0
N268 N 0.41572 0.56893 0.97856 0.0
C269 C 0.38159 0.47425 0.97693 0.0
C270 C 0.29586 0.41819 0.99228 0.0
C271 C 0.18213 0.45882 0.33895 0.0
C272 C 0.11461 0.36142 0.33691 0.0
C273 C 0.19538 0.51845 0.31364 0.0
C274 C 0.14055 0.48375 0.28538 0.0
H275 H 0.22465 0.49053 0.36053 0.0
H276 H 0.24505 0.59307 0.31691 0.0
S277 S 0.95864 0.2353 0.26633 0.0
N278 N 0.99652 0.23317 0.30295 0.0
N279 N 1.01941 0.34597 0.25576 0.0
C280 C 0.07491 0.38658 0.28244 0.0
C281 C 0.06241 0.32531 0.30805 0.0
loop_
_geom_bond_atom_site_label_1
_geom_bond_atom_site_label_2
_geom_bond_distance
_geom_bond_site_symmetry_2
_ccdc_geom_bond_type
Mn0 O5 2.095 . S
Mn0 O15 2.162 . S
Mn0 O16 2.297 1_545 S
Mn0 O24 2.385 1_545 S
Mn0 O25 2.209 1_455 S
Mn0 O26 2.094 . S
Mn1 O6 2.121 . S
Mn1 N8 2.257 . S
Mn1 N17 2.282 1_554 S
Mn1 O25 2.215 . S
Mn1 O27 2.117 1_655 S
C2 O24 1.234 1_645 S
C2 O25 1.283 . S
C3 O15 1.281 1_565 S
C3 O16 1.236 . S
C4 O26 1.240 . S
C4 O27 1.264 . S
O5 Mn0 2.095 . S
O5 C14 1.250 . S
O6 Mn1 2.121 . S
O6 C14 1.258 1_655 S
C7 N8 1.326 . S
C7 C11 1.460 . S
C7 H13 0.929 . S
N8 Mn1 2.257 . S
N8 C7 1.326 . S
N8 C12 1.362 1_554 S
C9 C10 1.258 . S
C9 C12 1.431 . S
C9 C29 1.449 . S
C10 C9 1.258 . S
C10 C11 1.477 1_556 S
C10 H30 0.931 . S
C11 C7 1.460 . S
C11 C10 1.477 1_554 S
C11 H31 0.930 . S
C12 N8 1.362 1_556 S
C12 C9 1.431 . S
C12 C22 1.476 . S
H13 C7 0.929 . S
C14 O5 1.250 . S
C14 O6 1.258 1_455 S
O15 Mn0 2.162 . S
O15 C3 1.281 1_545 S
O16 Mn0 2.297 1_565 S
O16 C3 1.236 . S
N17 Mn1 2.282 1_556 S
N17 C18 1.328 . S
N17 C22 1.318 . S
C18 N17 1.328 . S
C18 C19 1.457 . S
C18 H23 0.929 1_655 S
C19 C18 1.457 . S
C19 C20 1.291 . S
C19 H32 0.931 . S
C20 C19 1.291 . S
C20 C21 1.373 . S
C20 H33 0.929 . S
C21 C20 1.373 . S
C21 C22 1.396 . S
C21 C28 1.403 . S
C22 C12 1.476 . S
C22 N17 1.318 . S
C22 C21 1.396 . S
H23 C18 0.929 1_455 S
O24 Mn0 2.385 1_565 S
O24 C2 1.234 1_465 S
O25 Mn0 2.209 1_655 S
O25 Mn1 2.215 . S
O25 C2 1.283 . S
O26 Mn0 2.094 . S
O26 C4 1.240 . S
O27 Mn1 2.117 1_455 S
O27 C4 1.264 . S
C28 C21 1.403 . S
C28 C29 1.399 . S
C28 H34 0.929 . S
C29 C9 1.449 . S
C29 C28 1.399 . S
C29 H35 0.930 . S
H30 C10 0.931 . S
H31 C11 0.930 . S
H32 C19 0.931 . S
H33 C20 0.929 . S
H34 C28 0.929 . S
H35 C29 0.930 . S
Mn36 O41 2.095 1_455 S
Mn36 O51 2.162 1_445 S
Mn36 O52 2.297 . S
Mn36 O60 2.385 . S
Mn36 O61 2.209 . S
Mn36 O62 2.094 1_455 S
Mn37 O42 2.121 . S
Mn37 N44 2.257 . S
Mn37 N53 2.282 . S
Mn37 O61 2.215 . S
Mn37 O63 2.117 1_455 S
C38 O60 1.234 . S
C38 O61 1.283 . S
C39 O51 1.281 1_455 S
C39 O52 1.236 1_565 S
C40 O62 1.240 . S
C40 O63 1.264 . S
O41 Mn36 2.095 1_655 S
O41 C50 1.250 1_655 S
O42 Mn37 2.121 . S
O42 C50 1.258 . S
C43 N44 1.326 . S
C43 C47 1.460 . S
C43 H49 0.929 . S
N44 Mn37 2.257 . S
N44 C43 1.326 . S
N44 C48 1.362 . S
C45 C46 1.258 . S
C45 C48 1.431 . S
C45 C65 1.449 . S
C46 C45 1.258 . S
C46 C47 1.477 . S
C46 H66 0.931 . S
C47 C43 1.460 . S
C47 C46 1.477 . S
C47 H67 0.930 . S
C48 N44 1.362 . S
C48 C45 1.431 . S
C48 C58 1.476 . S
H49 C43 0.929 . S
C50 O41 1.250 1_455 S
C50 O42 1.258 . S
O51 Mn36 2.162 1_665 S
O51 C39 1.281 1_655 S
O52 Mn36 2.297 . S
O52 C39 1.236 1_545 S
N53 Mn37 2.282 . S
N53 C54 1.328 . S
N53 C58 1.318 . S
C54 N53 1.328 . S
C54 C55 1.457 . S
C54 H59 0.929 . S
C55 C54 1.457 . S
C55 C56 1.291 . S
C55 H68 0.931 . S
C56 C55 1.291 . S
C56 C57 1.373 . S
C56 H69 0.929 . S
C57 C56 1.373 . S
C57 C58 1.396 . S
C57 C64 1.403 . S
C58 C48 1.476 . S
C58 N53 1.318 . S
C58 C57 1.396 . S
H59 C54 0.929 . S
O60 Mn36 2.385 . S
O60 C38 1.234 . S
O61 Mn36 2.209 . S
O61 Mn37 2.215 . S
O61 C38 1.283 . S
O62 Mn36 2.094 1_655 S
O62 C40 1.240 . S
O63 Mn37 2.117 1_655 S
O63 C40 1.264 . S
C64 C57 1.403 . S
C64 C65 1.399 . S
C64 H70 0.929 . S
C65 C45 1.449 . S
C65 C64 1.399 . S
C65 H71 0.930 . S
H66 C46 0.931 . S
H67 C47 0.930 . S
H68 C55 0.931 . S
H69 C56 0.929 . S
H70 C64 0.929 . S
H71 C65 0.930 . S
Mn72 O77 2.095 1_455 S
Mn72 O87 2.162 . S
Mn72 O88 2.297 . S
Mn72 O96 2.385 . S
Mn72 O97 2.209 . S
Mn72 O98 2.094 1_445 S
Mn73 O78 2.121 . S
Mn73 N80 2.257 . S
Mn73 N89 2.282 1_655 S
Mn73 O97 2.215 1_655 S
Mn73 O99 2.117 . S
C74 O96 1.234 . S
C74 O97 1.283 . S
C75 O87 1.281 . S
C75 O88 1.236 . S
C76 O98 1.240 . S
C76 O99 1.264 1_565 S
O77 Mn72 2.095 1_655 S
O77 C86 1.250 . S
O78 Mn73 2.121 . S
O78 C86 1.258 . S
C79 N80 1.326 . S
C79 C83 1.460 1_655 S
C79 H85 0.929 . S
N80 Mn73 2.257 . S
N80 C79 1.326 . S
N80 C84 1.362 1_655 S
C81 C82 1.258 . S
C81 C84 1.431 . S
C81 C101 1.449 . S
C82 C81 1.258 . S
C82 C83 1.477 . S
C82 H102 0.931 . S
C83 C79 1.460 1_455 S
C83 C82 1.477 . S
C83 H103 0.930 . S
C84 N80 1.362 1_455 S
C84 C81 1.431 . S
C84 C94 1.476 . S
H85 C79 0.929 . S
C86 O77 1.250 . S
C86 O78 1.258 . S
O87 Mn72 2.162 . S
O87 C75 1.281 . S
O88 Mn72 2.297 . S
O88 C75 1.236 . S
N89 Mn73 2.282 1_455 S
N89 C90 1.328 . S
N89 C94 1.318 . S
C90 N89 1.328 . S
C90 C91 1.457 . S
C90 H95 0.929 . S
C91 C90 1.457 . S
C91 C92 1.291 . S
C91 H104 0.931 . S
C92 C91 1.291 . S
C92 C93 1.373 . S
C92 H105 0.929 . S
C93 C92 1.373 . S
C93 C94 1.396 . S
C93 C100 1.403 . S
C94 C84 1.476 . S
C94 N89 1.318 . S
C94 C93 1.396 . S
H95 C90 0.929 . S
O96 Mn72 2.385 . S
O96 C74 1.234 . S
O97 Mn72 2.209 . S
O97 Mn73 2.215 1_455 S
O97 C74 1.283 . S
O98 Mn72 2.094 1_665 S
O98 C76 1.240 . S
O99 Mn73 2.117 . S
O99 C76 1.264 1_545 S
C100 C93 1.403 . S
C100 C101 1.399 . S
C100 H106 0.929 . S
C101 C81 1.449 . S
C101 C100 1.399 . S
C101 H107 0.930 . S
H102 C82 0.931 . S
H103 C83 0.930 . S
H104 C91 0.931 . S
H105 C92 0.929 . S
H106 C100 0.929 . S
H107 C101 0.930 . S
C108 O110 1.247 . S
C108 O112 1.258 1_455 S
C109 O116 1.247 1_455 S
C109 O117 1.258 . S
O110 C108 1.247 . S
O110 Zn111 2.028 . S
Zn111 O110 2.028 . S
Zn111 O115 2.035 . S
Zn111 O117 2.035 . S
Zn111 O118 2.028 . S
O112 C108 1.258 1_655 S
O112 Zn113 2.035 . S
Zn113 O112 2.035 . S
Zn113 O114 2.028 . S
Zn113 O116 2.028 . S
Zn113 O119 2.035 . S
O114 Zn113 2.028 . S
O114 C120 1.247 1_655 S
O115 Zn111 2.035 . S
O115 C120 1.258 . S
O116 C109 1.247 1_655 S
O116 Zn113 2.028 . S
O117 C109 1.258 . S
O117 Zn111 2.035 . S
O118 Zn111 2.028 . S
O118 C121 1.247 . S
O119 Zn113 2.035 . S
O119 C121 1.258 1_655 S
C120 O114 1.247 1_455 S
C120 O115 1.258 . S
C121 O118 1.247 . S
C121 O119 1.258 1_455 S
C122 O124 1.247 . S
C122 O126 1.258 . S
C123 O130 1.247 . S
C123 O131 1.258 . S
O124 C122 1.247 . S
O124 Zn125 2.028 . S
Zn125 O124 2.028 . S
Zn125 O129 2.035 . S
Zn125 O131 2.035 . S
Zn125 O132 2.028 . S
O126 C122 1.258 . S
O126 Zn127 2.035 . S
Zn127 O126 2.035 . S
Zn127 O128 2.028 . S
Zn127 O130 2.028 . S
Zn127 O133 2.035 . S
O128 Zn127 2.028 . S
O128 C134 1.247 . S
O129 Zn125 2.035 . S
O129 C134 1.258 . S
O130 C123 1.247 . S
O130 Zn127 2.028 . S
O131 C123 1.258 . S
O131 Zn125 2.035 . S
O132 Zn125 2.028 . S
O132 C135 1.247 . S
O133 Zn127 2.035 . S
O133 C135 1.258 . S
C134 O128 1.247 . S
C134 O129 1.258 . S
C135 O132 1.247 . S
C135 O133 1.258 . S
C136 O138 1.247 . S
C136 O140 1.258 . S
C137 O144 1.247 . S
C137 O145 1.258 . S
O138 C136 1.247 . S
O138 Zn139 2.028 . S
Zn139 O138 2.028 . S
Zn139 O143 2.035 . S
Zn139 O145 2.035 . S
Zn139 O146 2.028 . S
O140 C136 1.258 . S
O140 Zn141 2.035 . S
Zn141 O140 2.035 . S
Zn141 O142 2.028 . S
Zn141 O144 2.028 . S
Zn141 O147 2.035 . S
O142 Zn141 2.028 . S
O142 C148 1.247 . S
O143 Zn139 2.035 . S
O143 C148 1.258 . S
O144 C137 1.247 . S
O144 Zn141 2.028 . S
O145 C137 1.258 . S
O145 Zn139 2.035 . S
O146 Zn139 2.028 . S
O146 C149 1.247 . S
O147 Zn141 2.035 . S
O147 C149 1.258 . S
C148 O142 1.247 . S
C148 O143 1.258 . S
C149 O146 1.247 . S
C149 O147 1.258 . S
C150 C151 1.369 . S
C150 C152 1.419 . S
C150 H154 0.930 . S
C151 C150 1.369 . S
C151 C160 1.429 . S
C152 C150 1.419 . S
C152 C153 1.363 . S
C152 H155 0.929 . S
C153 C152 1.363 . S
C153 C159 1.428 . S
H154 C150 0.930 . S
H155 C152 0.929 . S
S156 N157 1.613 . S
S156 N158 1.610 . S
N157 S156 1.613 . S
N157 C160 1.350 . S
N158 S156 1.610 . S
N158 C159 1.351 . S
C159 C153 1.428 . S
C159 N158 1.351 . S
C159 C160 1.434 . S
C160 C151 1.429 . S
C160 N157 1.350 . S
C160 C159 1.434 . S
C161 C162 1.369 . S
C161 C163 1.419 . S
C161 H165 0.930 . S
C162 C161 1.369 . S
C162 C171 1.429 . S
C163 C161 1.419 . S
C163 C164 1.363 . S
C163 H166 0.929 . S
C164 C163 1.363 . S
C164 C170 1.428 . S
H165 C161 0.930 . S
H166 C163 0.929 . S
S167 N168 1.613 . S
S167 N169 1.610 . S
N168 S167 1.613 . S
N168 C171 1.350 1_565 S
N169 S167 1.610 . S
N169 C170 1.351 1_565 S
C170 C164 1.428 . S
C170 N169 1.351 1_545 S
C170 C171 1.434 . S
C171 C162 1.429 . S
C171 N168 1.350 1_545 S
C171 C170 1.434 . S
C172 C173 1.369 . S
C172 C174 1.419 . S
C172 H176 0.930 1_565 S
C173 C172 1.369 . S
C173 C182 1.429 . S
C174 C172 1.419 . S
C174 C175 1.363 . S
C174 H177 0.929 . S
C175 C174 1.363 . S
C175 C181 1.428 . S
H176 C172 0.930 1_545 S
H177 C174 0.929 . S
S178 N179 1.613 . S
S178 N180 1.610 . S
N179 S178 1.613 . S
N179 C182 1.350 . S
N180 S178 1.610 . S
N180 C181 1.351 . S
C181 C175 1.428 . S
C181 N180 1.351 . S
C181 C182 1.434 . S
C182 C173 1.429 . S
C182 N179 1.350 . S
C182 C181 1.434 . S
C183 C184 1.369 . S
C183 C185 1.419 . S
C183 H187 0.930 . S
C184 C183 1.369 . S
C184 C193 1.429 . S
C185 C183 1.419 . S
C185 C186 1.363 . S
C185 H188 0.929 . S
C186 C185 1.363 . S
C186 C192 1.428 . S
H187 C183 0.930 . S
H188 C185 0.929 . S
S189 N190 1.613 . S
S189 N191 1.610 . S
N190 S189 1.613 . S
N190 C193 1.350 . S
N191 S189 1.610 . S
N191 C192 1.351 . S
C192 C186 1.428 . S
C192 N191 1.351 . S
C192 C193 1.434 . S
C193 C184 1.429 . S
C193 N190 1.350 . S
C193 C192 1.434 . S
C194 C195 1.369 . S
C194 C196 1.419 . S
C194 H198 0.930 . S
C195 C194 1.369 . S
C195 C204 1.429 . S
C196 C194 1.419 . S
C196 C197 1.363 . S
C196 H199 0.929 . S
C197 C196 1.363 . S
C197 C203 1.428 . S
H198 C194 0.930 . S
H199 C196 0.929 . S
S200 N201 1.613 . S
S200 N202 1.610 . S
N201 S200 1.613 . S
N201 C204 1.350 . S
N202 S200 1.610 . S
N202 C203 1.351 . S
C203 C197 1.428 . S
C203 N202 1.351 . S
C203 C204 1.434 . S
C204 C195 1.429 . S
C204 N201 1.350 . S
C204 C203 1.434 . S
C205 C206 1.369 . S
C205 C207 1.419 . S
C205 H209 0.930 . S
C206 C205 1.369 . S
C206 C215 1.429 . S
C207 C205 1.419 . S
C207 C208 1.363 . S
C207 H210 0.929 . S
C208 C207 1.363 . S
C208 C214 1.428 . S
H209 C205 0.930 . S
H210 C207 0.929 . S
S211 N212 1.613 . S
S211 N213 1.610 . S
N212 S211 1.613 . S
N212 C215 1.350 . S
N213 S211 1.610 . S
N213 C214 1.351 . S
C214 C208 1.428 . S
C214 N213 1.351 . S
C214 C215 1.434 . S
C215 C206 1.429 . S
C215 N212 1.350 . S
C215 C214 1.434 . S
C216 C217 1.369 . S
C216 C218 1.419 . S
C216 H220 0.930 . S
C217 C216 1.369 . S
C217 C226 1.429 . S
C218 C216 1.419 . S
C218 C219 1.363 . S
C218 H221 0.929 . S
C219 C218 1.363 . S
C219 C225 1.428 . S
H220 C216 0.930 . S
H221 C218 0.929 . S
S222 N223 1.613 . S
S222 N224 1.610 . S
N223 S222 1.613 . S
N223 C226 1.350 . S
N224 S222 1.610 . S
N224 C225 1.351 . S
C225 C219 1.428 . S
C225 N224 1.351 . S
C225 C226 1.434 . S
C226 C217 1.429 . S
C226 N223 1.350 . S
C226 C225 1.434 . S
C227 C228 1.369 . S
C227 C229 1.419 . S
C227 H231 0.935 . S
C228 C227 1.369 . S
C228 C237 1.429 . S
C229 C227 1.419 . S
C229 C230 1.363 . S
C229 H232 0.929 . S
C230 C229 1.363 . S
C230 C236 1.428 . S
H231 C227 0.935 . S
H232 C229 0.929 . S
S233 N234 1.613 . S
S233 N235 1.610 . S
N234 S233 1.613 . S
N234 C237 1.350 . S
N235 S233 1.610 . S
N235 C236 1.351 . S
C236 C230 1.428 . S
C236 N235 1.351 . S
C236 C237 1.434 . S
C237 C228 1.429 . S
C237 N234 1.350 . S
C237 C236 1.434 . S
C238 C239 1.369 1_655 S
C238 C240 1.419 . S
C238 H242 0.930 . S
C239 C238 1.369 1_455 S
C239 C248 1.429 . S
C240 C238 1.419 . S
C240 C241 1.363 1_655 S
C240 H243 0.929 . S
C241 C240 1.363 1_455 S
C241 C247 1.428 . S
H242 C238 0.930 . S
H243 C240 0.929 . S
S244 N245 1.613 . S
S244 N246 1.610 . S
N245 S244 1.613 . S
N245 C248 1.350 . S
N246 S244 1.610 . S
N246 C247 1.351 . S
C247 C241 1.428 . S
C247 N246 1.351 . S
C247 C248 1.434 . S
C248 C239 1.429 . S
C248 N245 1.350 . S
C248 C247 1.434 . S
C249 C250 1.369 . S
C249 C251 1.419 . S
C249 H253 0.930 1_545 S
C250 C249 1.369 . S
C250 C259 1.429 . S
C251 C249 1.419 . S
C251 C252 1.363 . S
C251 H254 0.929 . S
C252 C251 1.363 . S
C252 C258 1.428 . S
H253 C249 0.930 1_565 S
H254 C251 0.929 . S
S255 N256 1.613 . S
S255 N257 1.610 . S
N256 S255 1.613 . S
N256 C259 1.350 . S
N257 S255 1.610 . S
N257 C258 1.351 . S
C258 C252 1.428 . S
C258 N257 1.351 . S
C258 C259 1.434 . S
C259 C250 1.429 . S
C259 N256 1.350 . S
C259 C258 1.434 . S
C260 C261 1.369 . S
C260 C262 1.419 . S
C260 H264 0.930 1_556 S
C261 C260 1.369 . S
C261 C270 1.429 . S
C262 C260 1.419 . S
C262 C263 1.363 . S
C262 H265 0.929 . S
C263 C262 1.363 . S
C263 C269 1.428 . S
H264 C260 0.930 1_554 S
H265 C262 0.929 . S
S266 N267 1.613 . S
S266 N268 1.610 . S
N267 S266 1.613 . S
N267 C270 1.350 . S
N268 S266 1.610 . S
N268 C269 1.351 . S
C269 C263 1.428 . S
C269 N268 1.351 . S
C269 C270 1.434 . S
C270 C261 1.429 . S
C270 N267 1.350 . S
C270 C269 1.434 . S
C271 C272 1.369 . S
C271 C273 1.419 . S
C271 H275 0.930 . S
C272 C271 1.369 . S
C272 C281 1.429 1_455 S
C273 C271 1.419 . S
C273 C274 1.363 . S
C273 H276 0.929 . S
C274 C273 1.363 . S
C274 C280 1.428 1_455 S
H275 C271 0.930 . S
H276 C273 0.929 . S
S277 N278 1.613 . S
S277 N279 1.610 . S
N278 S277 1.613 . S
N278 C281 1.350 . S
N279 S277 1.610 . S
N279 C280 1.351 . S
C280 C274 1.428 1_655 S
C280 N279 1.351 . S
C280 C281 1.434 . S
C281 C272 1.429 1_655 S
C281 N278 1.350 . S
C281 C280 1.434 . S
C153 C109 1.482 . S
C151 C14 1.443 . S
C162 C40 1.471 . S
C164 C135 1.486 . S
C173 C76 1.459 . S
C175 C137 1.473 . S
C184 C3 1.454 . S
C186 C121 1.453 . S
C197 C123 1.488 . S
C195 C38 1.470 . S
C206 C74 1.450 . S
C208 C149 1.471 . S
C219 C122 1.451 . S
C217 C86 1.412 . S
C228 C2 1.451 1_566 S
C230 C148 1.472 . S
C241 C108 1.455 . S
C239 C39 1.454 . S
C252 C134 1.466 . S
C250 C75 1.464 . S
C263 C136 1.477 . S
C261 C4 1.454 1_556 S
C272 C50 1.447 . S
C274 C120 1.483 . S
