# Generated by pormake.
# Topology tph, (6,8)-cn, num edge types: 1
# Building blocks:
#     Node 0, Type 0, BuildingBlock: MIDCAF_clean_sbu_0, # of connection points: 6
#     Node 1, Type 0, BuildingBlock: MIDCAF_clean_sbu_0, # of connection points: 6
#     Node 2, Type 0, BuildingBlock: MIDCAF_clean_sbu_0, # of connection points: 6
#     Node 3, Type 0, BuildingBlock: MIDCAF_clean_sbu_0, # of connection points: 6
#     Node 4, Type 0, BuildingBlock: MIDCAF_clean_sbu_0, # of connection points: 6
#     Node 5, Type 0, BuildingBlock: MIDCAF_clean_sbu_0, # of connection points: 6
#     Node 6, Type 0, BuildingBlock: MIDCAF_clean_sbu_0, # of connection points: 6
#     Node 7, Type 0, BuildingBlock: MIDCAF_clean_sbu_0, # of connection points: 6
#     Node 8, Type 0, BuildingBlock: MIDCAF_clean_sbu_0, # of connection points: 6
#     Node 9, Type 0, BuildingBlock: MIDCAF_clean_sbu_0, # of connection points: 6
#     Node 10, Type 0, BuildingBlock: MIDCAF_clean_sbu_0, # of connection points: 6
#     Node 11, Type 0, BuildingBlock: MIDCAF_clean_sbu_0, # of connection points: 6
#     Node 12, Type 0, BuildingBlock: MIDCAF_clean_sbu_0, # of connection points: 6
#     Node 13, Type 0, BuildingBlock: MIDCAF_clean_sbu_0, # of connection points: 6
#     Node 14, Type 0, BuildingBlock: MIDCAF_clean_sbu_0, # of connection points: 6
#     Node 15, Type 0, BuildingBlock: MIDCAF_clean_sbu_0, # of connection points: 6
#     Node 16, Type 1, BuildingBlock: TAGTUT_clean_sbu_1, # of connection points: 8
#     Node 17, Type 1, BuildingBlock: TAGTUT_clean_sbu_1, # of connection points: 8
#     Node 18, Type 1, BuildingBlock: TAGTUT_clean_sbu_1, # of connection points: 8
#     Node 19, Type 1, BuildingBlock: TAGTUT_clean_sbu_1, # of connection points: 8
#     Node 20, Type 1, BuildingBlock: TAGTUT_clean_sbu_1, # of connection points: 8
#     Node 21, Type 1, BuildingBlock: TAGTUT_clean_sbu_1, # of connection points: 8
#     Node 22, Type 1, BuildingBlock: TAGTUT_clean_sbu_1, # of connection points: 8
#     Node 23, Type 1, BuildingBlock: TAGTUT_clean_sbu_1, # of connection points: 8
#     Node 24, Type 1, BuildingBlock: TAGTUT_clean_sbu_1, # of connection points: 8
#     Node 25, Type 1, BuildingBlock: TAGTUT_clean_sbu_1, # of connection points: 8
#     Node 26, Type 1, BuildingBlock: TAGTUT_clean_sbu_1, # of connection points: 8
#     Node 27, Type 1, BuildingBlock: TAGTUT_clean_sbu_1, # of connection points: 8
#     Edge 28, Type (0, 1), BuildingBlock: MIFKUJ_clean_linker_0, # of connection points: 2
#     Edge 29, Type (0, 1), BuildingBlock: MIFKUJ_clean_linker_0, # of connection points: 2
#     Edge 30, Type (0, 1), BuildingBlock: MIFKUJ_clean_linker_0, # of connection points: 2
#     Edge 31, Type (0, 1), BuildingBlock: MIFKUJ_clean_linker_0, # of connection points: 2
#     Edge 32, Type (0, 1), BuildingBlock: MIFKUJ_clean_linker_0, # of connection points: 2
#     Edge 33, Type (0, 1), BuildingBlock: MIFKUJ_clean_linker_0, # of connection points: 2
#     Edge 34, Type (0, 1), BuildingBlock: MIFKUJ_clean_linker_0, # of connection points: 2
#     Edge 35, Type (0, 1), BuildingBlock: MIFKUJ_clean_linker_0, # of connection points: 2
#     Edge 36, Type (0, 1), BuildingBlock: MIFKUJ_clean_linker_0, # of connection points: 2
#     Edge 37, Type (0, 1), BuildingBlock: MIFKUJ_clean_linker_0, # of connection points: 2
#     Edge 38, Type (0, 1), BuildingBlock: MIFKUJ_clean_linker_0, # of connection points: 2
#     Edge 39, Type (0, 1), BuildingBlock: MIFKUJ_clean_linker_0, # of connection points: 2
#     Edge 40, Type (0, 1), BuildingBlock: MIFKUJ_clean_linker_0, # of connection points: 2
#     Edge 41, Type (0, 1), BuildingBlock: MIFKUJ_clean_linker_0, # of connection points: 2
#     Edge 42, Type (0, 1), BuildingBlock: MIFKUJ_clean_linker_0, # of connection points: 2
#     Edge 43, Type (0, 1), BuildingBlock: MIFKUJ_clean_linker_0, # of connection points: 2
#     Edge 44, Type (0, 1), BuildingBlock: MIFKUJ_clean_linker_0, # of connection points: 2
#     Edge 45, Type (0, 1), BuildingBlock: MIFKUJ_clean_linker_0, # of connection points: 2
#     Edge 46, Type (0, 1), BuildingBlock: MIFKUJ_clean_linker_0, # of connection points: 2
#     Edge 47, Type (0, 1), BuildingBlock: MIFKUJ_clean_linker_0, # of connection points: 2
#     Edge 48, Type (0, 1), BuildingBlock: MIFKUJ_clean_linker_0, # of connection points: 2
#     Edge 49, Type (0, 1), BuildingBlock: MIFKUJ_clean_linker_0, # of connection points: 2
#     Edge 50, Type (0, 1), BuildingBlock: MIFKUJ_clean_linker_0, # of connection points: 2
#     Edge 51, Type (0, 1), BuildingBlock: MIFKUJ_clean_linker_0, # of connection points: 2
#     Edge 52, Type (0, 1), BuildingBlock: MIFKUJ_clean_linker_0, # of connection points: 2
#     Edge 53, Type (0, 1), BuildingBlock: MIFKUJ_clean_linker_0, # of connection points: 2
#     Edge 54, Type (0, 1), BuildingBlock: MIFKUJ_clean_linker_0, # of connection points: 2
#     Edge 55, Type (0, 1), BuildingBlock: MIFKUJ_clean_linker_0, # of connection points: 2
#     Edge 56, Type (0, 1), BuildingBlock: MIFKUJ_clean_linker_0, # of connection points: 2
#     Edge 57, Type (0, 1), BuildingBlock: MIFKUJ_clean_linker_0, # of connection points: 2
#     Edge 58, Type (0, 1), BuildingBlock: MIFKUJ_clean_linker_0, # of connection points: 2
#     Edge 59, Type (0, 1), BuildingBlock: MIFKUJ_clean_linker_0, # of connection points: 2
#     Edge 60, Type (0, 1), BuildingBlock: MIFKUJ_clean_linker_0, # of connection points: 2
#     Edge 61, Type (0, 1), BuildingBlock: MIFKUJ_clean_linker_0, # of connection points: 2
#     Edge 62, Type (0, 1), BuildingBlock: MIFKUJ_clean_linker_0, # of connection points: 2
#     Edge 63, Type (0, 1), BuildingBlock: MIFKUJ_clean_linker_0, # of connection points: 2
#     Edge 64, Type (0, 1), BuildingBlock: MIFKUJ_clean_linker_0, # of connection points: 2
#     Edge 65, Type (0, 1), BuildingBlock: MIFKUJ_clean_linker_0, # of connection points: 2
#     Edge 66, Type (0, 1), BuildingBlock: MIFKUJ_clean_linker_0, # of connection points: 2
#     Edge 67, Type (0, 1), BuildingBlock: MIFKUJ_clean_linker_0, # of connection points: 2
#     Edge 68, Type (0, 1), BuildingBlock: MIFKUJ_clean_linker_0, # of connection points: 2
#     Edge 69, Type (0, 1), BuildingBlock: MIFKUJ_clean_linker_0, # of connection points: 2
#     Edge 70, Type (0, 1), BuildingBlock: MIFKUJ_clean_linker_0, # of connection points: 2
#     Edge 71, Type (0, 1), BuildingBlock: MIFKUJ_clean_linker_0, # of connection points: 2
#     Edge 72, Type (0, 1), BuildingBlock: MIFKUJ_clean_linker_0, # of connection points: 2
#     Edge 73, Type (0, 1), BuildingBlock: MIFKUJ_clean_linker_0, # of connection points: 2
#     Edge 74, Type (0, 1), BuildingBlock: MIFKUJ_clean_linker_0, # of connection points: 2
#     Edge 75, Type (0, 1), BuildingBlock: MIFKUJ_clean_linker_0, # of connection points: 2
#     Edge 76, Type (0, 1), BuildingBlock: MIFKUJ_clean_linker_0, # of connection points: 2
#     Edge 77, Type (0, 1), BuildingBlock: MIFKUJ_clean_linker_0, # of connection points: 2
#     Edge 78, Type (0, 1), BuildingBlock: MIFKUJ_clean_linker_0, # of connection points: 2
#     Edge 79, Type (0, 1), BuildingBlock: MIFKUJ_clean_linker_0, # of connection points: 2
#     Edge 80, Type (0, 1), BuildingBlock: MIFKUJ_clean_linker_0, # of connection points: 2
#     Edge 81, Type (0, 1), BuildingBlock: MIFKUJ_clean_linker_0, # of connection points: 2
#     Edge 82, Type (0, 1), BuildingBlock: MIFKUJ_clean_linker_0, # of connection points: 2
#     Edge 83, Type (0, 1), BuildingBlock: MIFKUJ_clean_linker_0, # of connection points: 2
#     Edge 84, Type (0, 1), BuildingBlock: MIFKUJ_clean_linker_0, # of connection points: 2
#     Edge 85, Type (0, 1), BuildingBlock: MIFKUJ_clean_linker_0, # of connection points: 2
#     Edge 86, Type (0, 1), BuildingBlock: MIFKUJ_clean_linker_0, # of connection points: 2
#     Edge 87, Type (0, 1), BuildingBlock: MIFKUJ_clean_linker_0, # of connection points: 2
#     Edge 88, Type (0, 1), BuildingBlock: MIFKUJ_clean_linker_0, # of connection points: 2
#     Edge 89, Type (0, 1), BuildingBlock: MIFKUJ_clean_linker_0, # of connection points: 2
#     Edge 90, Type (0, 1), BuildingBlock: MIFKUJ_clean_linker_0, # of connection points: 2
#     Edge 91, Type (0, 1), BuildingBlock: MIFKUJ_clean_linker_0, # of connection points: 2
#     Edge 92, Type (0, 1), BuildingBlock: MIFKUJ_clean_linker_0, # of connection points: 2
#     Edge 93, Type (0, 1), BuildingBlock: MIFKUJ_clean_linker_0, # of connection points: 2
#     Edge 94, Type (0, 1), BuildingBlock: MIFKUJ_clean_linker_0, # of connection points: 2
#     Edge 95, Type (0, 1), BuildingBlock: MIFKUJ_clean_linker_0, # of connection points: 2
#     Edge 96, Type (0, 1), BuildingBlock: MIFKUJ_clean_linker_0, # of connection points: 2
#     Edge 97, Type (0, 1), BuildingBlock: MIFKUJ_clean_linker_0, # of connection points: 2
#     Edge 98, Type (0, 1), BuildingBlock: MIFKUJ_clean_linker_0, # of connection points: 2
#     Edge 99, Type (0, 1), BuildingBlock: MIFKUJ_clean_linker_0, # of connection points: 2
#     Edge 100, Type (0, 1), BuildingBlock: MIFKUJ_clean_linker_0, # of connection points: 2
#     Edge 101, Type (0, 1), BuildingBlock: MIFKUJ_clean_linker_0, # of connection points: 2
#     Edge 102, Type (0, 1), BuildingBlock: MIFKUJ_clean_linker_0, # of connection points: 2
#     Edge 103, Type (0, 1), BuildingBlock: MIFKUJ_clean_linker_0, # of connection points: 2
#     Edge 104, Type (0, 1), BuildingBlock: MIFKUJ_clean_linker_0, # of connection points: 2
#     Edge 105, Type (0, 1), BuildingBlock: MIFKUJ_clean_linker_0, # of connection points: 2
#     Edge 106, Type (0, 1), BuildingBlock: MIFKUJ_clean_linker_0, # of connection points: 2
#     Edge 107, Type (0, 1), BuildingBlock: MIFKUJ_clean_linker_0, # of connection points: 2
#     Edge 108, Type (0, 1), BuildingBlock: MIFKUJ_clean_linker_0, # of connection points: 2
#     Edge 109, Type (0, 1), BuildingBlock: MIFKUJ_clean_linker_0, # of connection points: 2
#     Edge 110, Type (0, 1), BuildingBlock: MIFKUJ_clean_linker_0, # of connection points: 2
#     Edge 111, Type (0, 1), BuildingBlock: MIFKUJ_clean_linker_0, # of connection points: 2
#     Edge 112, Type (0, 1), BuildingBlock: MIFKUJ_clean_linker_0, # of connection points: 2
#     Edge 113, Type (0, 1), BuildingBlock: MIFKUJ_clean_linker_0, # of connection points: 2
#     Edge 114, Type (0, 1), BuildingBlock: MIFKUJ_clean_linker_0, # of connection points: 2
#     Edge 115, Type (0, 1), BuildingBlock: MIFKUJ_clean_linker_0, # of connection points: 2
#     Edge 116, Type (0, 1), BuildingBlock: MIFKUJ_clean_linker_0, # of connection points: 2
#     Edge 117, Type (0, 1), BuildingBlock: MIFKUJ_clean_linker_0, # of connection points: 2
#     Edge 118, Type (0, 1), BuildingBlock: MIFKUJ_clean_linker_0, # of connection points: 2
#     Edge 119, Type (0, 1), BuildingBlock: MIFKUJ_clean_linker_0, # of connection points: 2
#     Edge 120, Type (0, 1), BuildingBlock: MIFKUJ_clean_linker_0, # of connection points: 2
#     Edge 121, Type (0, 1), BuildingBlock: MIFKUJ_clean_linker_0, # of connection points: 2
#     Edge 122, Type (0, 1), BuildingBlock: MIFKUJ_clean_linker_0, # of connection points: 2
#     Edge 123, Type (0, 1), BuildingBlock: MIFKUJ_clean_linker_0, # of connection points: 2
# Relax obj value: 0.171
# Max RMSD: 0.314
# Mean RMSD: 0.181
data_MOF--net-tph--node1-MIDCAF_clean_sbu_0--node2-TAGTUT_clean_sbu_1--edge1-MIFKUJ_clean_linker_0
_symmetry_space_group_name_H-M    P1
_symmetry_Int_Tables_number       1
_symmetry_cell_setting            triclinic
loop_
_symmetry_equiv_pos_as_xyz
'x, y, z'
_cell_length_a     60.034582
_cell_length_b     59.505703
_cell_length_c     58.852136
_cell_angle_alpha  90.243124
_cell_angle_beta   92.290806
_cell_angle_gamma 90.41275
loop_
_atom_site_label
_atom_site_type_symbol
_atom_site_fract_x
_atom_site_fract_y
_atom_site_fract_z
_atom_type_partial_charge
Zn0 Zn 0.20533 0.21081 0.19349 0.0
Zn1 Zn 0.15687 0.15986 0.14534 0.0
Zn2 Zn 0.1826 0.1842 0.17152 0.0
C3 C 0.14518 0.1511 0.18949 0.0
C4 C 0.14735 0.20207 0.13197 0.0
O5 O 0.21813 0.17707 0.16501 0.0
O6 O 0.23463 0.19771 0.19202 0.0
C7 C 0.1819 0.19039 0.22563 0.0
O8 O 0.16123 0.16504 0.19413 0.0
O9 O 0.1399 0.14585 0.16922 0.0
O10 O 0.14102 0.18235 0.12709 0.0
O11 O 0.16248 0.20566 0.14773 0.0
O12 O 0.19264 0.20844 0.2234 0.0
O13 O 0.17653 0.17833 0.20796 0.0
O14 O 0.17353 0.21955 0.16436 0.0
O15 O 0.20145 0.23991 0.17888 0.0
C16 C 0.18267 0.23885 0.16864 0.0
O17 O 0.2045 0.16093 0.15335 0.0
O18 O 0.18005 0.14214 0.13132 0.0
C19 C 0.23597 0.18381 0.17598 0.0
C20 C 0.19989 0.1456 0.13835 0.0
Zn21 Zn 0.3994 0.60677 0.09689 0.0
Zn22 Zn 0.44251 0.55562 0.04994 0.0
Zn23 Zn 0.42346 0.58193 0.07584 0.0
C24 C 0.42962 0.5282 0.08436 0.0
C25 C 0.47547 0.58611 0.06538 0.0
O26 O 0.40119 0.60425 0.05308 0.0
O27 O 0.37768 0.62051 0.07576 0.0
C28 C 0.38951 0.56637 0.11458 0.0
O29 O 0.41915 0.54641 0.08933 0.0
O30 O 0.44235 0.528 0.06788 0.0
O31 O 0.47132 0.57174 0.04992 0.0
O32 O 0.45993 0.59184 0.0788 0.0
O33 O 0.3869 0.58683 0.11908 0.0
O34 O 0.40246 0.56051 0.09858 0.0
O35 O 0.4474 0.60382 0.09557 0.0
O36 O 0.42243 0.62717 0.10857 0.0
C37 C 0.44247 0.62147 0.10701 0.0
O38 O 0.40987 0.58659 0.04058 0.0
O39 O 0.4225 0.55687 0.02267 0.0
C40 C 0.38461 0.61763 0.05608 0.0
C41 C 0.41031 0.57401 0.02276 0.0
Zn42 Zn 0.80348 0.30396 0.20719 0.0
Zn43 Zn 0.853 0.34728 0.16433 0.0
Zn44 Zn 0.8291 0.32359 0.18586 0.0
C45 C 0.87234 0.34769 0.20643 0.0
C46 C 0.85453 0.30657 0.14346 0.0
O47 O 0.79342 0.33096 0.17642 0.0
O48 O 0.7762 0.3221 0.20747 0.0
C49 C 0.83178 0.31649 0.23978 0.0
O50 O 0.85254 0.3407 0.21035 0.0
O51 O 0.87848 0.34936 0.18628 0.0
O52 O 0.85568 0.32701 0.13802 0.0
O53 O 0.8472 0.30104 0.16293 0.0
O54 O 0.81921 0.29969 0.23651 0.0
O55 O 0.83655 0.32903 0.2228 0.0
O56 O 0.83374 0.28799 0.17841 0.0
O57 O 0.80081 0.27649 0.18883 0.0
C58 C 0.81934 0.27211 0.1806 0.0
O59 O 0.80812 0.34737 0.16662 0.0
O60 O 0.83339 0.3735 0.16081 0.0
C61 C 0.77532 0.3295 0.18745 0.0
C62 C 0.81325 0.3673 0.16025 0.0
Zn63 Zn 0.55161 0.94121 0.04881 0.0
Zn64 Zn 0.60329 0.8981 0.09246 0.0
Zn65 Zn 0.57935 0.91898 0.07179 0.0
C66 C 0.56825 0.87521 0.09938 0.0
C67 C 0.60652 0.93551 0.11517 0.0
O68 O 0.58789 0.91205 0.03621 0.0
O69 O 0.56022 0.93009 0.01884 0.0
C70 C 0.52546 0.91359 0.07333 0.0
O71 O 0.56164 0.89512 0.09393 0.0
O72 O 0.5872 0.86892 0.09359 0.0
O73 O 0.60401 0.91542 0.12121 0.0
O74 O 0.59992 0.94125 0.09491 0.0
O75 O 0.52309 0.93018 0.06026 0.0
O76 O 0.54513 0.90679 0.07934 0.0
O77 O 0.5851 0.95555 0.08118 0.0
O78 O 0.56121 0.97197 0.05719 0.0
C79 C 0.57614 0.97353 0.07281 0.0
O80 O 0.60177 0.89714 0.05112 0.0
O81 O 0.63088 0.89802 0.07488 0.0
C82 C 0.57747 0.91819 0.01778 0.0
C83 C 0.62214 0.89152 0.05614 0.0
Zn84 Zn 0.15036 0.84458 0.34735 0.0
Zn85 Zn 0.19582 0.80443 0.29417 0.0
Zn86 Zn 0.17235 0.82326 0.3215 0.0
C87 C 0.22685 0.82508 0.3198 0.0
C88 C 0.17356 0.77088 0.3161 0.0
O89 O 0.1474 0.84247 0.3011 0.0
O90 O 0.12268 0.84535 0.3276 0.0
C91 C 0.19059 0.86595 0.34596 0.0
O92 O 0.20875 0.82897 0.33024 0.0
O93 O 0.22597 0.81586 0.3005 0.0
O94 O 0.18993 0.77389 0.3037 0.0
O95 O 0.16419 0.78767 0.3255 0.0
O96 O 0.17042 0.87136 0.34744 0.0
O97 O 0.19553 0.84583 0.3401 0.0
O98 O 0.1554 0.79929 0.3443 0.0
O99 O 0.15193 0.82284 0.37297 0.0
C100 C 0.1512 0.80301 0.36528 0.0
O101 O 0.16307 0.83429 0.28619 0.0
O102 O 0.18211 0.81155 0.26459 0.0
C103 C 0.12746 0.84687 0.30697 0.0
C104 C 0.16824 0.82713 0.26638 0.0
Zn105 Zn 0.05964 0.55248 0.94759 0.0
Zn106 Zn 0.10175 0.60933 0.90922 0.0
Zn107 Zn 0.08039 0.57897 0.92618 0.0
C108 C 0.11625 0.61503 0.95119 0.0
C109 C 0.05927 0.61916 0.89665 0.0
O110 O 0.08776 0.54497 0.91155 0.0
O111 O 0.05925 0.52729 0.92624 0.0
C112 C 0.08947 0.56698 0.97881 0.0
O113 O 0.10087 0.59974 0.95216 0.0
O114 O 0.12229 0.62202 0.93226 0.0
O115 O 0.07778 0.62916 0.89885 0.0
O116 O 0.05659 0.59968 0.90568 0.0
O117 O 0.07779 0.54949 0.97565 0.0
O118 O 0.09135 0.58127 0.9626 0.0
O119 O 0.04355 0.58782 0.92237 0.0
O120 O 0.03176 0.56855 0.95148 0.0
C121 C 0.02809 0.58296 0.93623 0.0
O122 O 0.10267 0.56158 0.90194 0.0
O123 O 0.11568 0.59198 0.8854 0.0
C124 C 0.07524 0.52734 0.91302 0.0
C125 C 0.11478 0.57089 0.8869 0.0
Zn126 Zn 0.77816 0.71565 0.28432 0.0
Zn127 Zn 0.83949 0.66284 0.34732 0.0
Zn128 Zn 0.81603 0.68312 0.3159 0.0
C129 C 0.8475 0.7085 0.35196 0.0
C130 C 0.79598 0.65068 0.35323 0.0
O131 O 0.82663 0.67157 0.28365 0.0
O132 O 0.80057 0.69497 0.27464 0.0
C133 C 0.81317 0.73922 0.30978 0.0
O134 O 0.83291 0.70934 0.33553 0.0
O135 O 0.85396 0.68996 0.35999 0.0
O136 O 0.81476 0.64948 0.36349 0.0
O137 O 0.79348 0.66217 0.3349 0.0
O138 O 0.79485 0.74138 0.29848 0.0
O139 O 0.82075 0.71981 0.31596 0.0
O140 O 0.78011 0.67732 0.32154 0.0
O141 O 0.75612 0.69969 0.3023 0.0
C142 C 0.76012 0.68403 0.31636 0.0
O143 O 0.84052 0.66122 0.29928 0.0
O144 O 0.85722 0.64312 0.32796 0.0
C145 C 0.81505 0.6816 0.26833 0.0
C146 C 0.85481 0.64678 0.30692 0.0
Zn147 Zn 0.95405 0.94208 0.94221 0.0
Zn148 Zn 0.89344 0.90114 0.88854 0.0
Zn149 Zn 0.92635 0.92219 0.91934 0.0
C150 C 0.88161 0.90047 0.93327 0.0
C151 C 0.93263 0.87773 0.889 0.0
O152 O 0.92474 0.95863 0.90896 0.0
O153 O 0.95586 0.97067 0.9259 0.0
C154 C 0.92467 0.92809 0.97368 0.0
O155 O 0.90235 0.90323 0.93896 0.0
O156 O 0.87425 0.90946 0.91507 0.0
O157 O 0.91188 0.87447 0.88932 0.0
O158 O 0.9415 0.89594 0.8975 0.0
O159 O 0.9406 0.94179 0.97179 0.0
O160 O 0.9168 0.9175 0.95589 0.0
O161 O 0.95911 0.90627 0.91184 0.0
O162 O 0.97934 0.92206 0.93976 0.0
C163 C 0.9776 0.9081 0.92366 0.0
O164 O 0.90699 0.94501 0.89667 0.0
O165 O 0.90849 0.92235 0.86773 0.0
C166 C 0.93952 0.9742 0.9123 0.0
C167 C 0.90267 0.94093 0.87545 0.0
Zn168 Zn 0.40406 0.40258 0.39355 0.0
Zn169 Zn 0.44855 0.44468 0.44726 0.0
Zn170 Zn 0.42493 0.42256 0.41885 0.0
C171 C 0.47717 0.41496 0.42706 0.0
C172 C 0.41665 0.42447 0.47278 0.0
O173 O 0.40496 0.44468 0.39558 0.0
O174 O 0.40438 0.4219 0.36615 0.0
C175 C 0.43966 0.38072 0.38875 0.0
O176 O 0.45967 0.41151 0.41416 0.0
O177 O 0.47647 0.42803 0.44393 0.0
O178 O 0.43194 0.43905 0.47465 0.0
O179 O 0.41194 0.41509 0.45337 0.0
O180 O 0.42015 0.37374 0.39155 0.0
O181 O 0.44543 0.40022 0.39683 0.0
O182 O 0.40095 0.3999 0.43615 0.0
O183 O 0.37529 0.40073 0.40863 0.0
C184 C 0.38148 0.39396 0.42811 0.0
O185 O 0.42064 0.45857 0.40942 0.0
O186 O 0.44537 0.47465 0.4331 0.0
C187 C 0.39941 0.44062 0.37455 0.0
C188 C 0.43122 0.47623 0.41673 0.0
Zn189 Zn 0.35679 0.84681 0.66384 0.0
Zn190 Zn 0.3022 0.79663 0.70276 0.0
Zn191 Zn 0.32944 0.82141 0.68526 0.0
C192 C 0.32341 0.76852 0.67582 0.0
C193 C 0.32807 0.81274 0.73835 0.0
O194 O 0.3098 0.84585 0.66546 0.0
O195 O 0.33472 0.86374 0.64548 0.0
C196 C 0.36716 0.80376 0.652 0.0
O197 O 0.33535 0.78655 0.67547 0.0
O198 O 0.30468 0.76881 0.68473 0.0
O199 O 0.31544 0.79621 0.73366 0.0
O200 O 0.33479 0.82535 0.72224 0.0
O201 O 0.37463 0.82339 0.64939 0.0
O202 O 0.35017 0.80027 0.66415 0.0
O203 O 0.35129 0.83849 0.71126 0.0
O204 O 0.37056 0.86207 0.69052 0.0
C205 C 0.36605 0.85416 0.70964 0.0
O206 O 0.29463 0.82952 0.67372 0.0
O207 O 0.27399 0.81276 0.69888 0.0
C208 C 0.31476 0.86089 0.65085 0.0
C209 C 0.27538 0.82506 0.68164 0.0
Zn210 Zn 0.05851 0.4417 0.54582 0.0
Zn211 Zn 0.09603 0.35121 0.59539 0.0
Zn212 Zn 0.07907 0.42018 0.5728 0.0
C213 C 0.05804 0.37962 0.59574 0.0
C214 C 0.11422 0.39468 0.61251 0.0
O215 O 0.09447 0.41741 0.53935 0.0
O216 O 0.08275 0.44967 0.52554 0.0
C217 C 0.03023 0.40914 0.55227 0.0
O218 O 0.05472 0.40058 0.59218 0.0
O219 O 0.07023 0.36952 0.58192 0.0
O220 O 0.11502 0.37337 0.61544 0.0
O221 O 0.10084 0.40336 0.59756 0.0
O222 O 0.03535 0.41971 0.53468 0.0
O223 O 0.04341 0.41012 0.56992 0.0
O224 O 0.08169 0.45578 0.58471 0.0
O225 O 0.04964 0.46461 0.5681 0.0
C226 C 0.06529 0.46943 0.58228 0.0
O227 O 0.1046 0.39976 0.55486 0.0
O228 O 0.08761 0.36944 0.56616 0.0
C229 C 0.09539 0.43292 0.52435 0.0
C230 C 0.10392 0.37815 0.5562 0.0
Zn231 Zn 0.94456 0.0595 0.54848 0.0
Zn232 Zn 0.88814 0.12521 0.61374 0.0
Zn233 Zn 0.92678 0.08263 0.57622 0.0
C234 C 0.93987 0.11553 0.60855 0.0
C235 C 0.89754 0.0748 0.61161 0.0
O236 O 0.90889 0.09066 0.54391 0.0
O237 O 0.92051 0.06141 0.52464 0.0
C238 C 0.97615 0.09183 0.56145 0.0
O239 O 0.9514 0.10287 0.59617 0.0
O240 O 0.91897 0.11415 0.6051 0.0
O241 O 0.9016 0.0952 0.60782 0.0
O242 O 0.90876 0.06097 0.60015 0.0
O243 O 0.97132 0.07888 0.54493 0.0
O244 O 0.9624 0.09411 0.57753 0.0
O245 O 0.92279 0.04701 0.58825 0.0
O246 O 0.94748 0.03138 0.56636 0.0
C247 C 0.93443 0.02986 0.58257 0.0
O248 O 0.90123 0.10808 0.56093 0.0
O249 O 0.87892 0.13148 0.58079 0.0
C250 C 0.90792 0.07821 0.526 0.0
C251 C 0.88604 0.12366 0.56206 0.0
Zn252 Zn 0.70545 0.71585 0.69686 0.0
Zn253 Zn 0.65633 0.66539 0.64361 0.0
Zn254 Zn 0.68117 0.68852 0.66912 0.0
C255 C 0.64893 0.64941 0.68572 0.0
C256 C 0.64132 0.70625 0.63507 0.0
O257 O 0.71606 0.68193 0.66209 0.0
O258 O 0.73417 0.70304 0.68794 0.0
C259 C 0.6805 0.68854 0.72408 0.0
O260 O 0.66008 0.66753 0.6902 0.0
O261 O 0.64726 0.64202 0.6656 0.0
O262 O 0.63311 0.68674 0.63349 0.0
O263 O 0.65975 0.70962 0.6466 0.0
O264 O 0.69294 0.70571 0.72585 0.0
O265 O 0.67496 0.68029 0.70441 0.0
O266 O 0.67237 0.72327 0.66202 0.0
O267 O 0.69514 0.74459 0.68342 0.0
C268 C 0.67925 0.74277 0.6688 0.0
O269 O 0.70189 0.66608 0.64937 0.0
O270 O 0.67859 0.65759 0.62084 0.0
C271 C 0.73436 0.68901 0.67179 0.0
C272 C 0.69772 0.65603 0.63027 0.0
Zn273 Zn 0.6938 0.28384 0.775 0.0
Zn274 Zn 0.64762 0.34782 0.84583 0.0
Zn275 Zn 0.67093 0.32256 0.82319 0.0
C276 C 0.63554 0.30651 0.86091 0.0
C277 C 0.69356 0.35776 0.85614 0.0
O278 O 0.6652 0.32755 0.78511 0.0
O279 O 0.67521 0.30502 0.75624 0.0
C280 C 0.67206 0.27739 0.8182 0.0
O281 O 0.65118 0.30188 0.84728 0.0
O282 O 0.62907 0.32651 0.86293 0.0
O283 O 0.67385 0.3617 0.86173 0.0
O284 O 0.69706 0.34299 0.84072 0.0
O285 O 0.68402 0.28856 0.80539 0.0
O286 O 0.66261 0.28882 0.83318 0.0
O287 O 0.70698 0.32473 0.82698 0.0
O288 O 0.7147 0.30063 0.79913 0.0
C289 C 0.7211 0.31359 0.81553 0.0
O290 O 0.64947 0.34086 0.79904 0.0
O291 O 0.63294 0.36514 0.82104 0.0
C292 C 0.66578 0.32257 0.7636 0.0
C293 C 0.63607 0.35731 0.80149 0.0
Zn294 Zn 0.59842 0.09942 0.40128 0.0
Zn295 Zn 0.55623 0.04931 0.44962 0.0
Zn296 Zn 0.57821 0.0756 0.42399 0.0
C297 C 0.52394 0.07489 0.4277 0.0
C298 C 0.58408 0.07335 0.47881 0.0
O299 O 0.60118 0.05608 0.40143 0.0
O300 O 0.60717 0.08141 0.37518 0.0
C301 C 0.55791 0.11575 0.39453 0.0
O302 O 0.54158 0.08337 0.4191 0.0
O303 O 0.5256 0.05873 0.44142 0.0
O304 O 0.5689 0.05867 0.47949 0.0
O305 O 0.58973 0.08169 0.45971 0.0
O306 O 0.5775 0.12326 0.39443 0.0
O307 O 0.55403 0.09653 0.40363 0.0
O308 O 0.59955 0.09868 0.44615 0.0
O309 O 0.62281 0.11076 0.42091 0.0
C310 C 0.61642 0.11095 0.44102 0.0
O311 O 0.5855 0.04075 0.41255 0.0
O312 O 0.56652 0.02082 0.43699 0.0
C313 C 0.61021 0.06187 0.38271 0.0
C314 C 0.57899 0.02166 0.42027 0.0
Zn315 Zn 0.34039 0.16722 0.85098 0.0
Zn316 Zn 0.28142 0.2158 0.78073 0.0
Zn317 Zn 0.31923 0.18418 0.818 0.0
C318 C 0.26272 0.18678 0.8159 0.0
C319 C 0.31642 0.23988 0.80759 0.0
O320 O 0.3451 0.16285 0.80298 0.0
O321 O 0.36547 0.15502 0.83398 0.0
C322 C 0.29814 0.14879 0.85017 0.0
O323 O 0.28245 0.17988 0.82226 0.0
O324 O 0.25936 0.20133 0.80038 0.0
O325 O 0.29908 0.24172 0.79451 0.0
O326 O 0.32327 0.22082 0.81554 0.0
O327 O 0.31714 0.14624 0.85964 0.0
O328 O 0.29492 0.16377 0.83483 0.0
O329 O 0.3343 0.21223 0.83698 0.0
O330 O 0.3445 0.19484 0.86873 0.0
C331 C 0.34184 0.21276 0.85764 0.0
O332 O 0.3297 0.16927 0.78638 0.0
O333 O 0.30437 0.19366 0.78188 0.0
C334 C 0.36261 0.15414 0.81261 0.0
C335 C 0.31567 0.17876 0.773 0.0
C336 C 0.97545 0.2494 0.95726 0.0
C337 C 0.04183 0.26112 0.93499 0.0
C338 C 0.0049 0.30557 0.8658 0.0
Mg339 Mg 0.00542 0.22669 0.92203 0.0
O340 O 0.9904 0.24776 0.90369 0.0
Mg341 Mg 0.99266 0.28018 0.91307 0.0
Mg342 Mg 0.9997 0.25054 0.87192 0.0
O343 O 0.00894 0.25332 0.84034 0.0
Mg344 Mg 0.99493 0.27497 0.82181 0.0
Mg345 Mg 0.00728 0.22105 0.8306 0.0
C346 C 0.99459 0.19581 0.87805 0.0
C347 C 0.04789 0.22637 0.86812 0.0
O348 O 0.97673 0.26797 0.94623 0.0
O349 O 0.98515 0.23137 0.95108 0.0
O350 O 0.02732 0.27629 0.93067 0.0
O351 O 0.03797 0.24042 0.93046 0.0
O352 O 0.00043 0.19762 0.89927 0.0
O353 O 0.99142 0.21316 0.86534 0.0
C354 C 0.95115 0.2736 0.87637 0.0
O355 O 0.96335 0.26129 0.86401 0.0
O356 O 0.95874 0.28244 0.89501 0.0
O357 O 0.02454 0.23343 0.79752 0.0
O358 O 0.01776 0.27075 0.79555 0.0
O359 O 0.97359 0.22567 0.81224 0.0
C360 C 0.02703 0.25291 0.78841 0.0
O361 O 0.96357 0.26149 0.80811 0.0
O362 O 0.99912 0.3042 0.84454 0.0
C363 C 0.95976 0.2405 0.80514 0.0
O364 O 0.00773 0.28792 0.87813 0.0
O365 O 0.03624 0.23972 0.87996 0.0
O366 O 0.04023 0.21766 0.8495 0.0
C367 C 0.47266 0.74594 0.45769 0.0
C368 C 0.53938 0.76069 0.43667 0.0
C369 C 0.50172 0.80329 0.36774 0.0
Mg370 Mg 0.50466 0.72466 0.42382 0.0
O371 O 0.48898 0.7447 0.40487 0.0
Mg372 Mg 0.48958 0.7772 0.41404 0.0
Mg373 Mg 0.49995 0.74818 0.37384 0.0
O374 O 0.51075 0.75179 0.34313 0.0
Mg375 Mg 0.49495 0.77201 0.3241 0.0
Mg376 Mg 0.51249 0.71955 0.3336 0.0
C377 C 0.49738 0.69302 0.38006 0.0
C378 C 0.54978 0.72768 0.37389 0.0
O379 O 0.47326 0.76441 0.44647 0.0
O380 O 0.4836 0.72843 0.45226 0.0
O381 O 0.52422 0.77524 0.43243 0.0
O382 O 0.53632 0.73985 0.43235 0.0
O383 O 0.50184 0.69532 0.40151 0.0
O384 O 0.49452 0.71017 0.36697 0.0
C385 C 0.45035 0.76829 0.37549 0.0
O386 O 0.46377 0.75682 0.36373 0.0
O387 O 0.45618 0.77732 0.39462 0.0
O388 O 0.5312 0.73423 0.30225 0.0
O389 O 0.51983 0.77035 0.29963 0.0
O390 O 0.4796 0.7215 0.31336 0.0
C391 C 0.53215 0.75408 0.29358 0.0
O392 O 0.46509 0.75564 0.30943 0.0
O393 O 0.49617 0.80171 0.34645 0.0
C394 C 0.46405 0.73442 0.30607 0.0
O395 O 0.5054 0.78578 0.38 0.0
O396 O 0.53629 0.74015 0.38442 0.0
O397 O 0.54445 0.71832 0.35486 0.0
C398 C 0.97901 0.75681 0.53756 0.0
C399 C 0.04653 0.74438 0.55945 0.0
C400 C 0.00963 0.69756 0.62818 0.0
Mg401 Mg 0.0116 0.7781 0.57369 0.0
O402 O 0.99727 0.75625 0.59082 0.0
Mg403 Mg 0.99816 0.72428 0.58057 0.0
Mg404 Mg 0.00704 0.7525 0.62291 0.0
O405 O 0.01637 0.74889 0.65514 0.0
Mg406 Mg 0.99911 0.72841 0.67157 0.0
Mg407 Mg 0.01645 0.78123 0.66495 0.0
C408 C 0.00265 0.80779 0.61755 0.0
C409 C 0.05595 0.77529 0.62975 0.0
O410 O 0.98067 0.7378 0.54777 0.0
O411 O 0.98951 0.77457 0.54435 0.0
O412 O 0.03226 0.72891 0.56348 0.0
O413 O 0.04329 0.76486 0.56491 0.0
O414 O 0.00767 0.8068 0.59655 0.0
O415 O 0.99997 0.78999 0.62954 0.0
C416 C 0.95803 0.73007 0.61548 0.0
O417 O 0.97081 0.74201 0.62873 0.0
O418 O 0.96469 0.72166 0.59694 0.0
O419 O 0.03293 0.76752 0.699 0.0
O420 O 0.02165 0.73114 0.70032 0.0
O421 O 0.98319 0.77825 0.68081 0.0
C422 C 0.03296 0.74794 0.7083 0.0
O423 O 0.96835 0.74411 0.68305 0.0
O424 O 0.00254 0.69907 0.64854 0.0
C425 C 0.9674 0.76533 0.68648 0.0
O426 O 0.01416 0.71509 0.61636 0.0
O427 O 0.04342 0.76267 0.61694 0.0
O428 O 0.04925 0.78369 0.64825 0.0
C429 C 0.96092 0.0297 0.25333 0.0
C430 C 0.94184 0.96074 0.24231 0.0
C431 C 0.86897 0.99695 0.19633 0.0
Mg432 Mg 0.92887 0.99684 0.27692 0.0
O433 O 0.90959 0.00969 0.25482 0.0
Mg434 Mg 0.91737 0.00822 0.22208 0.0
Mg435 Mg 0.87866 -0.00146 0.25143 0.0
O436 O 0.84756 0.9878 0.24851 0.0
Mg437 Mg 0.82829 0.00415 0.22944 0.0
Mg438 Mg 0.83958 0.98393 0.28085 0.0
C439 C 0.88618 0.0025 0.30755 0.0
C440 C 0.87792 0.94784 0.26996 0.0
O441 O 0.94972 0.02656 0.2345 0.0
O442 O 0.95591 0.02019 0.27199 0.0
O443 O 0.93565 0.97425 0.22643 0.0
O444 O 0.93873 0.96502 0.26324 0.0
O445 O 0.90735 -0.00031 0.30638 0.0
O446 O 0.87326 0.00355 0.28965 0.0
C447 C 0.88176 0.04769 0.22956 0.0
O448 O 0.87026 0.03509 0.24242 0.0
O449 O 0.89926 0.04067 0.22018 0.0
O450 O 0.80776 0.96446 0.26535 0.0
O451 O 0.80456 0.97805 0.22956 0.0
O452 O 0.81875 0.0158 0.28192 0.0
C453 C 0.79877 0.96444 0.24504 0.0
O454 O 0.81263 0.03141 0.24792 0.0
O455 O 0.84892 0.00364 0.19944 0.0
C456 C 0.80995 0.03103 0.26939 0.0
O457 O 0.88254 0.99224 0.21321 0.0
O458 O 0.88866 0.96251 0.25904 0.0
O459 O 0.8596 0.95221 0.27922 0.0
C460 C 0.2665 0.95885 0.97747 0.0
C461 C 0.22636 0.94071 0.03177 0.0
C462 C 0.20317 0.8688 0.97675 0.0
Mg463 Mg 0.27266 0.92598 0.01747 0.0
O464 O 0.25937 0.90657 0.99599 0.0
Mg465 Mg 0.23048 0.9155 0.98042 0.0
Mg466 Mg 0.25131 0.87559 0.00457 0.0
O467 O 0.24338 0.84465 0.01275 0.0
Mg468 Mg 0.23229 0.82585 0.98942 0.0
Mg469 Mg 0.2707 0.83525 0.03088 0.0
C470 C 0.30115 0.88225 0.03033 0.0
C471 C 0.24538 0.87429 0.05877 0.0
O472 O 0.24877 0.9479 0.97132 0.0
O473 O 0.27942 0.95299 0.99425 0.0
O474 O 0.21851 0.93473 0.01208 0.0
O475 O 0.24638 0.93659 0.03846 0.0
O476 O 0.2984 0.90364 0.03136 0.0
O477 O 0.28707 0.86922 0.01953 0.0
C478 C 0.2559 0.87853 0.95053 0.0
O479 O 0.26064 0.86712 0.96848 0.0
O480 O 0.24468 0.89674 0.95077 0.0
O481 O 0.2493 0.80303 0.04 0.0
O482 O 0.22191 0.8011 0.01247 0.0
O483 O 0.28464 0.81486 0.00111 0.0
C484 C 0.23123 0.79426 0.03109 0.0
O485 O 0.2596 0.8109 0.97222 0.0
O486 O 0.2072 0.84788 0.97345 0.0
C487 C 0.2789 0.80729 0.98133 0.0
O488 O 0.21558 0.88115 0.99015 0.0
O489 O 0.24134 0.8849 0.04024 0.0
O490 O 0.25611 0.85577 0.05944 0.0
C491 C 0.04577 0.52895 0.24763 0.0
C492 C 0.06317 0.45941 0.25594 0.0
C493 C 0.1359 0.4919 0.30116 0.0
Mg494 Mg 0.07621 0.49597 0.22259 0.0
O495 O 0.09644 0.50876 0.24421 0.0
Mg496 Mg 0.08922 0.50611 0.27704 0.0
Mg497 Mg 0.12652 0.49547 0.24662 0.0
O498 O 0.15653 0.48244 0.2488 0.0
Mg499 Mg 0.17674 0.49739 0.26875 0.0
Mg500 Mg 0.16391 0.4806 0.21602 0.0
C501 C 0.11834 0.50151 0.19146 0.0
C502 C 0.12252 0.44656 0.22351 0.0
O503 O 0.05758 0.52592 0.26606 0.0
O504 O 0.04971 0.51914 0.22878 0.0
O505 O 0.06959 0.47297 0.27183 0.0
O506 O 0.06617 0.46374 0.23506 0.0
O507 O 0.09713 0.49907 0.19306 0.0
O508 O 0.13167 0.50187 0.20905 0.0
C509 C 0.12794 0.54336 0.27163 0.0
O510 O 0.13799 0.53075 0.25764 0.0
O511 O 0.10977 0.53751 0.28068 0.0
O512 O 0.19477 0.45916 0.22967 0.0
O513 O 0.19942 0.47082 0.26623 0.0
O514 O 0.18639 0.51166 0.2176 0.0
C515 C 0.20427 0.45794 0.24971 0.0
O516 O 0.19279 0.52568 0.25238 0.0
O517 O 0.15651 0.49728 0.29901 0.0
C518 C 0.19546 0.52628 0.23094 0.0
O519 O 0.1226 0.48809 0.28392 0.0
O520 O 0.11376 0.46073 0.23669 0.0
O521 O 0.14106 0.45022 0.21423 0.0
C522 C 0.74631 0.53817 0.02129 0.0
C523 C 0.75302 0.55567 0.95259 0.0
C524 C 0.80164 0.62723 0.98809 0.0
Mg525 Mg 0.72229 0.57192 0.98912 0.0
O526 O 0.74463 0.59036 0.00157 0.0
Mg527 Mg 0.77635 0.58054 -0.00048 0.0
Mg528 Mg 0.74711 0.62151 0.99066 0.0
O529 O 0.74999 0.65289 0.98051 0.0
Mg530 Mg 0.77115 0.6701 -0.0025 0.0
Mg531 Mg 0.71818 0.66284 0.9805 0.0
C532 C 0.69239 0.61545 0.99662 0.0
C533 C 0.72218 0.62453 0.94114 0.0
O534 O 0.76484 0.54851 0.01822 0.0
O535 O 0.72774 0.54441 0.01197 0.0
O536 O 0.76979 0.5612 0.96558 0.0
O537 O 0.7332 0.56147 0.9569 0.0
O538 O 0.6941 0.59426 0.99279 0.0
O539 O 0.70979 0.62839 -0.00183 0.0
C540 C 0.77198 0.61718 0.03973 0.0
O541 O 0.7589 0.62915 0.0271 0.0
O542 O 0.78067 0.59905 0.03259 0.0
O543 O 0.73254 0.69614 0.96352 0.0
O544 O 0.76913 0.69724 0.97458 0.0
O545 O 0.72185 0.68151 0.01424 0.0
C546 C 0.75224 0.70515 0.96346 0.0
O547 O 0.75688 0.68457 0.02786 0.0
O548 O 0.80005 0.64765 0.99521 0.0
C549 C 0.73605 0.68846 0.02937 0.0
O550 O 0.78422 0.61511 0.98294 0.0
O551 O 0.73526 0.61299 0.95413 0.0
O552 O 0.71441 0.6435 0.94728 0.0
C553 C 0.24951 0.03738 0.52447 0.0
C554 C 0.2575 0.05532 0.45376 0.0
C555 C 0.30387 0.12738 0.49096 0.0
Mg556 Mg 0.22528 0.06935 0.49042 0.0
O557 O 0.24738 0.08858 0.50288 0.0
Mg558 Mg 0.27938 0.07971 0.50205 0.0
Mg559 Mg 0.24997 0.11946 0.49139 0.0
O560 O 0.25241 0.15086 0.48067 0.0
Mg561 Mg 0.27138 0.16955 0.49882 0.0
Mg562 Mg 0.22012 0.15913 0.47833 0.0
C563 C 0.1953 0.11267 0.4961 0.0
C564 C 0.22865 0.12073 0.4405 0.0
O565 O 0.26799 0.0476 0.52088 0.0
O566 O 0.23092 0.04311 0.5148 0.0
O567 O 0.27366 0.06099 0.46754 0.0
O568 O 0.23717 0.05888 0.45819 0.0
O569 O 0.19644 0.09125 0.4937 0.0
O570 O 0.21277 0.12527 0.49665 0.0
C571 C 0.27344 0.11717 0.54125 0.0
O572 O 0.26012 0.12822 0.52799 0.0
O573 O 0.2827 0.09893 0.53507 0.0
O574 O 0.23298 0.19221 0.46112 0.0
O575 O 0.26852 0.19628 0.47505 0.0
O576 O 0.22128 0.17823 0.5115 0.0
C577 C 0.25197 0.20252 0.46225 0.0
O578 O 0.25458 0.18278 0.52871 0.0
O579 O 0.30111 0.14787 0.49754 0.0
C580 C 0.23346 0.1858 0.52804 0.0
O581 O 0.28716 0.11436 0.48561 0.0
O582 O 0.24064 0.10967 0.45484 0.0
O583 O 0.21976 0.1395 0.44536 0.0
C584 C 0.46146 0.53088 0.75254 0.0
C585 C 0.44316 0.46196 0.74002 0.0
C586 C 0.37119 0.49713 0.69384 0.0
Mg587 Mg 0.42941 0.49715 0.77537 0.0
O588 O 0.41011 0.50975 0.75323 0.0
Mg589 Mg 0.41838 0.50966 0.7207 0.0
Mg590 Mg 0.37902 0.49866 0.74928 0.0
O591 O 0.34782 0.4884 0.74558 0.0
Mg592 Mg 0.32884 0.50383 0.72511 0.0
Mg593 Mg 0.33923 0.48597 0.77791 0.0
C594 C 0.38575 0.50371 0.80485 0.0
C595 C 0.37651 0.44851 0.76923 0.0
O596 O 0.45034 0.52819 0.73363 0.0
O597 O 0.45652 0.52089 0.77097 0.0
O598 O 0.43736 0.47595 0.72443 0.0
O599 O 0.43956 0.46552 0.761 0.0
O600 O 0.40694 0.50055 0.80416 0.0
O601 O 0.3731 0.50469 0.78681 0.0
C602 C 0.38207 0.54827 0.7291 0.0
O603 O 0.37045 0.53469 0.7406 0.0
O604 O 0.40006 0.54252 0.71983 0.0
O605 O 0.30788 0.46626 0.76251 0.0
O606 O 0.30583 0.47692 0.72561 0.0
O607 O 0.31859 0.51773 0.77711 0.0
C608 C 0.29968 0.46454 0.74196 0.0
O609 O 0.3115 0.53122 0.74236 0.0
O610 O 0.35076 0.50331 0.69569 0.0
C611 C 0.30905 0.53193 0.7639 0.0
O612 O 0.38393 0.49271 0.71139 0.0
O613 O 0.38809 0.46211 0.75769 0.0
O614 O 0.35856 0.45444 0.77828 0.0
C615 C 0.77217 0.45951 0.47968 0.0
C616 C 0.73273 0.44335 0.53552 0.0
C617 C 0.70383 0.37343 0.47875 0.0
Mg618 Mg 0.77729 0.42584 0.51919 0.0
O619 O 0.7618 0.40783 0.49814 0.0
Mg620 Mg 0.73341 0.41882 0.48324 0.0
Mg621 Mg 0.75256 0.37698 0.50565 0.0
O622 O 0.74423 0.34631 0.51211 0.0
Mg623 Mg 0.73027 0.32872 0.49024 0.0
Mg624 Mg 0.77005 0.33405 0.52998 0.0
C625 C 0.80284 0.38004 0.53061 0.0
C626 C 0.74619 0.37216 0.5599 0.0
O627 O 0.75374 0.44979 0.47365 0.0
O628 O 0.78469 0.4531 0.49654 0.0
O629 O 0.72325 0.43832 0.51617 0.0
O630 O 0.75254 0.43719 0.54091 0.0
O631 O 0.80182 0.40158 0.53191 0.0
O632 O 0.78767 0.36819 0.52005 0.0
C633 C 0.75627 0.38145 0.45139 0.0
O634 O 0.76078 0.36935 0.46893 0.0
O635 O 0.74581 0.40007 0.45261 0.0
O636 O 0.74695 0.30145 0.53601 0.0
O637 O 0.71581 0.31168 0.51665 0.0
O638 O 0.78367 0.31485 0.50004 0.0
C639 C 0.72638 0.29796 0.52948 0.0
O640 O 0.75503 0.30609 0.47612 0.0
O641 O 0.70693 0.35249 0.47463 0.0
C642 C 0.77541 0.30386 0.48301 0.0
O643 O 0.7169 0.38486 0.49235 0.0
O644 O 0.74323 0.38457 0.5423 0.0
O645 O 0.75583 0.35311 0.55911 0.0
C646 C 0.54222 0.02337 0.75267 0.0
C647 C 0.5643 0.95624 0.76512 0.0
C648 C 0.63876 0.99736 0.80404 0.0
Mg649 Mg 0.57417 0.99113 0.72841 0.0
O650 O 0.59422 0.0062 0.74846 0.0
Mg651 Mg 0.58856 0.00573 0.78168 0.0
Mg652 Mg 0.62572 0.99664 0.75 0.0
O653 O 0.65735 0.98747 0.75109 0.0
Mg654 Mg 0.67819 0.00423 0.76861 0.0
Mg655 Mg 0.66293 0.98232 0.71835 0.0
C656 C 0.61441 0.99814 0.69498 0.0
C657 C 0.62694 0.94518 0.73253 0.0
O658 O 0.55458 0.02159 0.77095 0.0
O659 O 0.54681 0.01354 0.734 0.0
O660 O 0.57093 0.97083 0.78 0.0
O661 O 0.56621 0.95951 0.74385 0.0
O662 O 0.59358 0.99417 0.69767 0.0
O663 O 0.62844 0.00062 0.7118 0.0
C664 C 0.62269 0.04655 0.77106 0.0
O665 O 0.63358 0.03396 0.75767 0.0
O666 O 0.60581 0.03927 0.7815 0.0
O667 O 0.69555 0.96382 0.73169 0.0
O668 O 0.70108 0.97754 0.7674 0.0
O669 O 0.68371 0.01374 0.71515 0.0
C670 C 0.70572 0.96392 0.75142 0.0
O671 O 0.69433 0.0303 0.74777 0.0
O672 O 0.65879 0.00392 0.79998 0.0
C673 C 0.695 0.02875 0.72605 0.0
O674 O 0.6245 0.99192 0.78798 0.0
O675 O 0.61639 0.9595 0.74408 0.0
O676 O 0.64405 0.95053 0.72169 0.0
C677 C 0.47909 0.2523 0.03743 0.0
C678 C 0.54633 0.24073 0.06003 0.0
C679 C 0.51085 0.19594 0.12958 0.0
Mg680 Mg 0.51139 0.27482 0.07327 0.0
O681 O 0.49647 0.25345 0.09051 0.0
Mg682 Mg 0.49829 0.22104 0.08122 0.0
Mg683 Mg 0.50624 0.251 0.12265 0.0
O684 O 0.51612 0.24882 0.15478 0.0
Mg685 Mg 0.50123 0.22775 0.1721 0.0
Mg686 Mg 0.51543 0.28122 0.16422 0.0
C687 C 0.50139 0.30621 0.1159 0.0
C688 C 0.55459 0.27502 0.12839 0.0
O689 O 0.48065 0.23349 0.04805 0.0
O690 O 0.4896 0.27018 0.0439 0.0
O691 O 0.53192 0.22552 0.06416 0.0
O692 O 0.5433 0.26133 0.06514 0.0
O693 O 0.50709 0.30439 0.09514 0.0
O694 O 0.49844 0.28883 0.12848 0.0
C695 C 0.45795 0.22682 0.11568 0.0
O696 O 0.47002 0.23986 0.12861 0.0
O697 O 0.46544 0.21796 0.09775 0.0
O698 O 0.53265 0.2684 0.1988 0.0
O699 O 0.5243 0.23128 0.19991 0.0
O700 O 0.48208 0.27792 0.18104 0.0
C701 C 0.53432 0.24877 0.20799 0.0
O702 O 0.47079 0.24233 0.18419 0.0
O703 O 0.50474 0.19812 0.1502 0.0
C704 C 0.46793 0.26339 0.18731 0.0
O705 O 0.51429 0.21327 0.11704 0.0
O706 O 0.54217 0.2617 0.11628 0.0
O707 O 0.54817 0.28404 0.14674 0.0
H708 H 0.07205 0.39528 0.6377 0.0
H709 H 0.07217 0.37396 0.67355 0.0
H710 H 0.03608 0.31996 0.63919 0.0
H711 H 0.037 0.34061 0.60331 0.0
H712 H 0.02138 0.33742 0.68684 0.0
H713 H 0.08647 0.31631 0.6415 0.0
H714 H 0.12215 0.3269 0.62524 0.0
H715 H 0.14944 0.34373 0.69159 0.0
H716 H 0.11351 0.33432 0.70828 0.0
H717 H 0.01568 0.24112 0.74508 0.0
H718 H 0.02762 0.26249 0.71224 0.0
H719 H 0.0788 0.29513 0.7543 0.0
H720 H 0.0669 0.27368 0.78708 0.0
H721 H 0.08951 0.29417 0.7081 0.0
H722 H 0.03413 0.31944 0.75518 0.0
H723 H 0.00127 0.31643 0.7788 0.0
H724 H 0.95992 0.30137 0.71939 0.0
H725 H 0.9927 0.3039 0.69542 0.0
C726 C 0.0638 0.37904 0.63803 0.0
C727 C 0.05437 0.36949 0.61796 0.0
C728 C 0.06397 0.3669 0.65839 0.0
C729 C 0.0542 0.34542 0.65886 0.0
C730 C 0.04369 0.33653 0.63907 0.0
C731 C 0.04414 0.34831 0.61868 0.0
C732 C 0.05564 0.33131 0.67943 0.0
C733 C 0.03622 0.3279 0.69142 0.0
C734 C 0.07544 0.31994 0.68625 0.0
C735 C 0.09713 0.32496 0.67609 0.0
C736 C 0.09993 0.32255 0.65262 0.0
C737 C 0.12025 0.32824 0.64333 0.0
C738 C 0.13807 0.3359 0.65732 0.0
C739 C 0.13561 0.33785 0.68073 0.0
C740 C 0.11524 0.33242 0.69012 0.0
C741 C 0.0304 0.25172 0.74692 0.0
C742 C 0.04046 0.25581 0.76844 0.0
C743 C 0.03707 0.26412 0.72825 0.0
C744 C 0.05372 0.28078 0.73107 0.0
C745 C 0.0659 0.28243 0.75182 0.0
C746 C 0.05918 0.27008 0.77049 0.0
C747 C 0.05482 0.29924 0.71438 0.0
C748 C 0.07469 0.3037 0.70348 0.0
C749 C 0.03586 0.31263 0.70943 0.0
C750 C 0.01591 0.31158 0.72354 0.0
C751 C 0.01806 0.3153 0.74716 0.0
C752 C 0.99946 0.31371 0.76061 0.0
C753 C 0.97853 0.30862 0.75061 0.0
C754 C 0.97617 0.30525 0.72711 0.0
C755 C 0.99475 0.30678 0.71357 0.0
H756 H 0.96414 0.30735 0.76105 0.0
H757 H 0.15377 0.3403 0.65001 0.0
H758 H 0.59755 0.71229 0.62334 0.0
H759 H 0.5833 0.73311 0.59019 0.0
H760 H 0.64931 0.75941 0.57996 0.0
H761 H 0.66338 0.73947 0.61371 0.0
H762 H 0.61801 0.78752 0.56239 0.0
H763 H 0.6343 0.7077 0.55871 0.0
H764 H 0.63046 0.66809 0.5703 0.0
H765 H 0.56024 0.67001 0.55345 0.0
H766 H 0.56364 0.70971 0.54203 0.0
H767 H 0.58014 0.74057 0.4397 0.0
H768 H 0.60573 0.74222 0.473 0.0
H769 H 0.56669 0.79543 0.50123 0.0
H770 H 0.54198 0.79468 0.46758 0.0
H771 H 0.58864 0.7285 0.50922 0.0
H772 H 0.59013 0.81858 0.54738 0.0
H773 H 0.59591 0.85767 0.53503 0.0
H774 H 0.63489 0.83446 0.48012 0.0
H775 H 0.62946 0.79524 0.49223 0.0
C776 C 0.60877 0.72329 0.61455 0.0
C777 C 0.6316 0.72395 0.62061 0.0
C778 C 0.60066 0.73512 0.59563 0.0
C779 C 0.61547 0.74706 0.5822 0.0
C780 C 0.63769 0.75006 0.58997 0.0
C781 C 0.64571 0.73864 0.60923 0.0
C782 C 0.60899 0.75261 0.55841 0.0
C783 C 0.61153 0.77471 0.55069 0.0
C784 C 0.60121 0.73567 0.54303 0.0
C785 C 0.59921 0.71171 0.54969 0.0
C786 C 0.61804 0.69969 0.55758 0.0
C787 C 0.61593 0.67723 0.56412 0.0
C788 C 0.59511 0.66656 0.56265 0.0
C789 C 0.57635 0.67831 0.5546 0.0
C790 C 0.57836 0.70078 0.54808 0.0
C791 C 0.57772 0.75336 0.45252 0.0
C792 C 0.55882 0.76711 0.45138 0.0
C793 C 0.59231 0.75427 0.47157 0.0
C794 C 0.58789 0.76862 0.48987 0.0
C795 C 0.57064 0.78433 0.48735 0.0
C796 C 0.55639 0.7838 0.46805 0.0
C797 C 0.59746 0.76361 0.51289 0.0
C798 C 0.59535 0.74145 0.52065 0.0
C799 C 0.60589 0.78045 0.52805 0.0
C800 C 0.60927 0.80397 0.52065 0.0
C801 C 0.60001 0.82182 0.53273 0.0
C802 C 0.60319 0.844 0.52575 0.0
C803 C 0.61573 0.84854 0.50678 0.0
C804 C 0.62511 0.83091 0.49476 0.0
C805 C 0.62193 0.8087 0.50163 0.0
H806 H 0.6182 0.86573 0.50142 0.0
H807 H 0.59351 0.64918 0.56772 0.0
H808 H 0.95244 0.15953 0.61102 0.0
H809 H 0.9561 0.182 0.64616 0.0
H810 H 0.9487 0.1218 0.68583 0.0
H811 H 0.94544 0.09943 0.6508 0.0
H812 H 0.91602 0.15347 0.69253 0.0
H813 H 0.99426 0.14877 0.69305 0.0
H814 H 0.03299 0.15126 0.68092 0.0
H815 H 0.02667 0.22262 0.67286 0.0
H816 H 0.9877 0.22054 0.68447 0.0
H817 H 0.93659 0.20106 0.80346 0.0
H818 H 0.9292 0.18063 0.76798 0.0
H819 H 0.94065 0.24131 0.7302 0.0
H820 H 0.94827 0.26177 0.76569 0.0
H821 H 0.97152 0.20917 0.72261 0.0
H822 H 0.89139 0.21161 0.72407 0.0
H823 H 0.85484 0.2067 0.74115 0.0
H824 H 0.86739 0.13625 0.7499 0.0
H825 H 0.90417 0.1408 0.73322 0.0
C826 C 0.95269 0.1511 0.62731 0.0
C827 C 0.94906 0.12784 0.62842 0.0
C828 C 0.95467 0.16388 0.64733 0.0
C829 C 0.95256 0.15354 0.66857 0.0
C830 C 0.95042 0.13008 0.66962 0.0
C831 C 0.94874 0.11731 0.64967 0.0
C832 C 0.94896 0.16736 0.68908 0.0
C833 C 0.92826 0.16551 0.69928 0.0
C834 C 0.96482 0.18324 0.69761 0.0
C835 C 0.98784 0.18442 0.68925 0.0
C836 C 0.00093 0.16494 0.68824 0.0
C837 C 0.02299 0.1663 0.68156 0.0
C838 C 0.03225 0.18707 0.67602 0.0
C839 C 0.01944 0.20653 0.67706 0.0
C840 C 0.99735 0.20526 0.68366 0.0
C841 C 0.93618 0.21035 0.78765 0.0
C842 C 0.94349 0.23286 0.7873 0.0
C843 C 0.93211 0.1986 0.76731 0.0
C844 C 0.93493 0.20933 0.74642 0.0
C845 C 0.93868 0.23266 0.74616 0.0
C846 C 0.94267 0.24444 0.76653 0.0
C847 C 0.93836 0.19571 0.72569 0.0
C848 C 0.95915 0.19741 0.71559 0.0
C849 C 0.92278 0.17937 0.71755 0.0
C850 C 0.90063 0.1766 0.72755 0.0
C851 C 0.88644 0.19511 0.72981 0.0
C852 C 0.86566 0.19238 0.73939 0.0
C853 C 0.85881 0.17119 0.74664 0.0
C854 C 0.87272 0.15266 0.74429 0.0
C855 C 0.89353 0.1553 0.73475 0.0
H856 H 0.84272 0.16911 0.75405 0.0
H857 H 0.04939 0.1881 0.67107 0.0
H858 H 0.41066 0.79366 0.64856 0.0
H859 H 0.42641 0.77296 0.61715 0.0
H860 H 0.36015 0.75432 0.59244 0.0
H861 H 0.34443 0.77404 0.62468 0.0
H862 H 0.39032 0.72433 0.57773 0.0
H863 H 0.37978 0.80307 0.5771 0.0
H864 H 0.38191 0.8422 0.59099 0.0
H865 H 0.45335 0.84055 0.58981 0.0
H866 H 0.45166 0.80122 0.57634 0.0
H867 H 0.43313 0.7668 0.46274 0.0
H868 H 0.41068 0.76709 0.49658 0.0
H869 H 0.45828 0.72373 0.53092 0.0
H870 H 0.48031 0.72256 0.49682 0.0
H871 H 0.43321 0.78324 0.53847 0.0
H872 H 0.43484 0.695 0.54547 0.0
H873 H 0.42526 0.65948 0.5254 0.0
H874 H 0.36056 0.68528 0.5064 0.0
H875 H 0.37005 0.72114 0.52589 0.0
C876 C 0.39959 0.78419 0.63703 0.0
C877 C 0.37644 0.78561 0.63861 0.0
C878 C 0.40854 0.77244 0.61911 0.0
C879 C 0.39436 0.76284 0.60212 0.0
C880 C 0.37133 0.76181 0.6053 0.0
C881 C 0.36238 0.77308 0.62366 0.0
C882 C 0.4031 0.75832 0.57948 0.0
C883 C 0.39986 0.73713 0.56925 0.0
C884 C 0.41445 0.77544 0.56778 0.0
C885 C 0.4156 0.79909 0.57599 0.0
C886 C 0.39595 0.81097 0.58002 0.0
C887 C 0.39708 0.8332 0.58779 0.0
C888 C 0.41776 0.84383 0.59135 0.0
C889 C 0.43735 0.83227 0.58711 0.0
C890 C 0.43632 0.81 0.57942 0.0
C891 C 0.43854 0.75699 0.47739 0.0
C892 C 0.45846 0.74478 0.47736 0.0
C893 C 0.42562 0.75697 0.49653 0.0
C894 C 0.43258 0.74495 0.51594 0.0
C895 C 0.4522 0.73234 0.51577 0.0
C896 C 0.46491 0.73196 0.49644 0.0
C897 C 0.42165 0.74893 0.53747 0.0
C898 C 0.42409 0.77031 0.54724 0.0
C899 C 0.40887 0.73235 0.54815 0.0
C900 C 0.40327 0.71076 0.53679 0.0
C901 C 0.4187 0.69316 0.53677 0.0
C902 C 0.41327 0.67297 0.52553 0.0
C903 C 0.39235 0.67016 0.51455 0.0
C904 C 0.3768 0.68751 0.51482 0.0
C905 C 0.38221 0.70777 0.5259 0.0
H906 H 0.38817 0.65451 0.5059 0.0
H907 H 0.41859 0.86106 0.59732 0.0
H908 H 0.05324 0.59869 0.85638 0.0
H909 H 0.05177 0.62024 0.82104 0.0
H910 H 0.03337 0.67932 0.85828 0.0
H911 H 0.03619 0.65814 0.89386 0.0
H912 H 0.01818 0.65549 0.79937 0.0
H913 H 0.07223 0.69354 0.86136 0.0
H914 H 0.10361 0.68659 0.88872 0.0
H915 H 0.13805 0.6508 0.83741 0.0
H916 H 0.10645 0.65688 0.81 0.0
H917 H 0.01873 0.75723 0.74992 0.0
H918 H 0.02715 0.73318 0.78269 0.0
H919 H 0.08136 0.70343 0.74762 0.0
H920 H 0.07256 0.72713 0.71453 0.0
H921 H 0.08496 0.70541 0.80006 0.0
H922 H 0.04331 0.67927 0.73595 0.0
H923 H 0.01569 0.68038 0.70394 0.0
H924 H 0.96266 0.682 0.7507 0.0
H925 H 0.99017 0.68134 0.78303 0.0
C926 C 0.04753 0.61593 0.85683 0.0
C927 C 0.04484 0.62685 0.87777 0.0
C928 C 0.04718 0.6283 0.8367 0.0
C929 C 0.04336 0.65146 0.83739 0.0
C930 C 0.037 0.66152 0.85769 0.0
C931 C 0.03801 0.64933 0.8779 0.0
C932 C 0.04819 0.66568 0.81773 0.0
C933 C 0.03262 0.66657 0.79949 0.0
C934 C 0.06797 0.67873 0.81724 0.0
C935 C 0.08682 0.67528 0.83382 0.0
C936 C 0.08633 0.68389 0.85604 0.0
C937 C 0.10418 0.68015 0.87154 0.0
C938 C 0.1228 0.6682 0.86484 0.0
C939 C 0.12358 0.65995 0.84262 0.0
C940 C 0.10567 0.66345 0.82714 0.0
C941 C 0.03331 0.74659 0.7498 0.0
C942 C 0.04506 0.74396 0.72989 0.0
C943 C 0.03793 0.73268 0.76837 0.0
C944 C 0.05446 0.71621 0.76719 0.0
C945 C 0.06849 0.71601 0.74872 0.0
C946 C 0.06359 0.72969 0.72994 0.0
C947 C 0.05374 0.69685 0.78272 0.0
C948 C 0.07038 0.69452 0.79988 0.0
C949 C 0.0354 0.68165 0.78157 0.0
C950 C 0.01886 0.68141 0.76202 0.0
C951 C 0.02582 0.68052 0.73947 0.0
C952 C 0.01017 0.68084 0.72123 0.0
C953 C 0.98743 0.68163 0.72527 0.0
C954 C 0.9803 0.6817 0.74757 0.0
C955 C 0.99592 0.68142 0.76585 0.0
H956 H 0.97534 0.68192 0.71114 0.0
H957 H 0.13663 0.66542 0.87684 0.0
H958 H 0.88857 0.72582 0.34815 0.0
H959 H 0.90861 0.74566 0.37913 0.0
H960 H 0.84704 0.75379 0.41356 0.0
H961 H 0.82687 0.73452 0.38207 0.0
H962 H 0.87852 0.78597 0.42732 0.0
H963 H 0.87084 0.70725 0.42099 0.0
H964 H 0.87151 0.66918 0.40438 0.0
H965 H 0.94233 0.67452 0.39793 0.0
H966 H 0.94203 0.71284 0.41409 0.0
H967 H 0.93758 0.73872 0.53395 0.0
H968 H 0.91081 0.74135 0.50151 0.0
H969 H 0.95804 0.7811 0.46531 0.0
H970 H 0.98447 0.77947 0.49819 0.0
H971 H 0.93052 0.72656 0.45481 0.0
H972 H 0.9312 0.81163 0.46317 0.0
H973 H 0.92397 0.84485 0.48687 0.0
H974 H 0.85769 0.82061 0.49766 0.0
H975 H 0.86478 0.78695 0.47445 0.0
C976 C 0.87918 0.7332 0.36161 0.0
C977 C 0.85635 0.72874 0.36301 0.0
C978 C 0.89061 0.74435 0.37936 0.0
C979 C 0.87932 0.75048 0.39884 0.0
C980 C 0.85599 0.74903 0.39867 0.0
C981 C 0.84448 0.73814 0.38068 0.0
C982 C 0.89209 0.75328 0.42056 0.0
C983 C 0.89002 0.77309 0.43326 0.0
C984 C 0.90616 0.73589 0.42888 0.0
C985 C 0.90635 0.71312 0.41837 0.0
C986 C 0.88651 0.70048 0.41568 0.0
C987 C 0.88683 0.67881 0.40643 0.0
C988 C 0.90693 0.66948 0.39999 0.0
C989 C 0.92675 0.68181 0.40282 0.0
C990 C 0.92651 0.70352 0.412 0.0
C991 C 0.94207 0.74824 0.51914 0.0
C992 C 0.96304 0.7587 0.51825 0.0
C993 C 0.92672 0.74999 0.50086 0.0
C994 C 0.93232 0.76196 0.48143 0.0
C995 C 0.95321 0.77254 0.48057 0.0
C996 C 0.96835 0.7713 0.49911 0.0
C997 C 0.91812 0.75981 0.46068 0.0
C998 C 0.91947 0.73969 0.4485 0.0
C999 C 0.90275 0.77643 0.45352 0.0
C1000 C 0.89869 0.79661 0.46746 0.0
C1001 C 0.91525 0.81318 0.47093 0.0
C1002 C 0.91114 0.83215 0.48419 0.0
C1003 C 0.89042 0.83479 0.49386 0.0
C1004 C 0.87376 0.81851 0.49024 0.0
C1005 C 0.87783 0.79948 0.47707 0.0
H1006 H 0.88725 0.84951 0.50408 0.0
H1007 H 0.90715 0.65267 0.39291 0.0
H1008 H 0.96241 0.8894 0.85702 0.0
H1009 H 0.96624 0.86857 0.82129 0.0
H1010 H 0.92912 0.81315 0.84858 0.0
H1011 H 0.9266 0.83318 0.88432 0.0
H1012 H 0.95585 0.79703 0.8219 0.0
H1013 H 0.90466 0.85975 0.81646 0.0
H1014 H 0.89451 0.89985 0.81792 0.0
H1015 H 0.9408 0.91469 0.76619 0.0
H1016 H 0.95142 0.87475 0.76462 0.0
H1017 H 0.93919 0.74454 0.71658 0.0
H1018 H 0.92552 0.76252 0.75082 0.0
H1019 H 0.95001 0.82657 0.72751 0.0
H1020 H 0.95937 0.80963 0.6922 0.0
H1021 H 0.92565 0.83767 0.75433 0.0
H1022 H 0.98016 0.77211 0.76588 0.0
H1023 H 0.98707 0.73117 0.76688 0.0
H1024 H 0.93151 0.72178 0.80967 0.0
H1025 H 0.92396 0.76241 0.80845 0.0
C1026 C 0.95633 0.87224 0.85579 0.0
C1027 C 0.94422 0.86288 0.8734 0.0
C1028 C 0.95794 0.86057 0.83515 0.0
C1029 C 0.94715 0.83963 0.83187 0.0
C1030 C 0.93741 0.82932 0.85047 0.0
C1031 C 0.93621 0.8407 0.87108 0.0
C1032 C 0.94446 0.82886 0.80902 0.0
C1033 C 0.9494 0.806 0.80705 0.0
C1034 C 0.93556 0.84031 0.78969 0.0
C1035 C 0.92897 0.86429 0.79057 0.0
C1036 C 0.91275 0.87159 0.80548 0.0
C1037 C 0.9069 0.89429 0.80632 0.0
C1038 C 0.91703 0.90981 0.79219 0.0
C1039 C 0.93298 0.90266 0.77714 0.0
C1040 C 0.93891 0.88 0.77626 0.0
C1041 C 0.9405 0.76263 0.71835 0.0
C1042 C 0.95134 0.77548 0.70207 0.0
C1043 C 0.9334 0.7729 0.73838 0.0
C1044 C 0.93852 0.79573 0.74307 0.0
C1045 C 0.9463 0.80886 0.7252 0.0
C1046 C 0.9519 0.79899 0.70476 0.0
C1047 C 0.93842 0.80587 0.76657 0.0
C1048 C 0.93263 0.82869 0.7689 0.0
C1049 C 0.94645 0.79438 0.78636 0.0
C1050 C 0.95135 0.77013 0.78682 0.0
C1051 C 0.96944 0.76124 0.77543 0.0
C1052 C 0.97344 0.73812 0.77603 0.0
C1053 C 0.95971 0.72395 0.78835 0.0
C1054 C 0.94204 0.73278 0.80009 0.0
C1055 C 0.93785 0.75579 0.79938 0.0
H1056 H 0.9626 0.70611 0.78889 0.0
H1057 H 0.91249 0.92736 0.79287 0.0
H1058 H 0.17308 0.78909 0.40352 0.0
H1059 H 0.15704 0.76813 0.43469 0.0
H1060 H 0.09638 0.75801 0.39407 0.0
H1061 H 0.11279 0.77851 0.3625 0.0
H1062 H 0.09023 0.78021 0.43533 0.0
H1063 H 0.12231 0.71363 0.40958 0.0
H1064 H 0.15105 0.68857 0.39513 0.0
H1065 H 0.19012 0.69703 0.45734 0.0
H1066 H 0.1618 0.72252 0.47202 0.0
H1067 H 0.04559 0.71247 0.52615 0.0
H1068 H 0.06691 0.7134 0.49168 0.0
H1069 H 0.10793 0.76696 0.52023 0.0
H1070 H 0.08607 0.76684 0.55455 0.0
H1071 H 0.12062 0.7176 0.4824 0.0
H1072 H 0.08972 0.79733 0.49677 0.0
H1073 H 0.05794 0.81944 0.50975 0.0
H1074 H 0.01317 0.78094 0.46586 0.0
H1075 H 0.04468 0.75827 0.45311 0.0
C1076 C 0.15671 0.78148 0.40092 0.0
C1077 C 0.14424 0.78506 0.38061 0.0
C1078 C 0.14752 0.7696 0.41875 0.0
C1079 C 0.1255 0.76154 0.41673 0.0
C1080 C 0.11343 0.76401 0.39593 0.0
C1081 C 0.12285 0.77551 0.37787 0.0
C1082 C 0.1144 0.75357 0.43736 0.0
C1083 C 0.09679 0.76635 0.44541 0.0
C1084 C 0.12279 0.73543 0.45055 0.0
C1085 C 0.13999 0.72018 0.44183 0.0
C1086 C 0.13714 0.71036 0.4201 0.0
C1087 C 0.15334 0.69603 0.41188 0.0
C1088 C 0.17242 0.69124 0.42529 0.0
C1089 C 0.17533 0.70077 0.44696 0.0
C1090 C 0.15919 0.71515 0.45525 0.0
C1091 C 0.05968 0.72389 0.52554 0.0
C1092 C 0.06398 0.73978 0.543 0.0
C1093 C 0.0718 0.72443 0.50574 0.0
C1094 C 0.08869 0.7405 0.50331 0.0
C1095 C 0.09473 0.75462 0.52174 0.0
C1096 C 0.08231 0.75446 0.54137 0.0
C1097 C 0.09739 0.74494 0.48056 0.0
C1098 C 0.11426 0.73141 0.47214 0.0
C1099 C 0.08822 0.76221 0.46679 0.0
C1100 C 0.06943 0.77597 0.47426 0.0
C1101 C 0.07306 0.79348 0.49008 0.0
C1102 C 0.05511 0.80609 0.4974 0.0
C1103 C 0.03352 0.80153 0.48872 0.0
C1104 C 0.02986 0.78437 0.47267 0.0
C1105 C 0.04775 0.77161 0.46545 0.0
H1106 H 0.01965 0.81133 0.49437 0.0
H1107 H 0.18494 0.68012 0.4189 0.0
H1108 H 0.6151 0.04896 0.33888 0.0
H1109 H 0.65091 0.04363 0.32105 0.0
H1110 H 0.68476 0.04633 0.38699 0.0
H1111 H 0.6488 0.05076 0.40492 0.0
H1112 H 0.70031 0.07889 0.35394 0.0
H1113 H 0.68925 0.00102 0.36297 0.0
H1114 H 0.66926 0.96471 0.36162 0.0
H1115 H 0.66283 0.96861 0.28881 0.0
H1116 H 0.68248 0.00519 0.28975 0.0
H1117 H 0.80818 0.04683 0.31285 0.0
H1118 H 0.77404 0.05376 0.33307 0.0
H1119 H 0.73547 0.0482 0.26991 0.0
H1120 H 0.76962 0.04161 0.24954 0.0
H1121 H 0.72347 0.01683 0.30376 0.0
H1122 H 0.73634 0.0965 0.29683 0.0
H1123 H 0.75867 0.13133 0.30073 0.0
H1124 H 0.76469 0.12212 0.37303 0.0
H1125 H 0.74262 0.08703 0.36953 0.0
C1126 C 0.63005 0.04712 0.34963 0.0
C1127 C 0.62908 0.04962 0.37333 0.0
C1128 C 0.65056 0.04448 0.33943 0.0
C1129 C 0.67056 0.04487 0.35266 0.0
C1130 C 0.66956 0.04605 0.37644 0.0
C1131 C 0.64896 0.04809 0.3867 0.0
C1132 C 0.69235 0.04561 0.34137 0.0
C1133 C 0.70556 0.0652 0.34323 0.0
C1134 C 0.6991 0.02788 0.32722 0.0
C1135 C 0.68709 0.006 0.32646 0.0
C1136 C 0.68334 0.99428 0.34668 0.0
C1137 C 0.67212 0.97362 0.34599 0.0
C1138 C 0.66471 0.96439 0.32515 0.0
C1139 C 0.66854 0.9758 0.30495 0.0
C1140 C 0.67973 0.99651 0.30555 0.0
C1141 C 0.79255 0.04816 0.30311 0.0
C1142 C 0.79165 0.04378 0.27955 0.0
C1143 C 0.77299 0.05194 0.31474 0.0
C1144 C 0.75214 0.0512 0.30306 0.0
C1145 C 0.75137 0.04873 0.27928 0.0
C1146 C 0.77097 0.04532 0.26759 0.0
C1147 C 0.73122 0.05031 0.31588 0.0
C1148 C 0.7182 0.03059 0.3144 0.0
C1149 C 0.72495 0.06776 0.33069 0.0
C1150 C 0.73799 0.08901 0.33288 0.0
C1151 C 0.74256 0.10179 0.31354 0.0
C1152 C 0.75514 0.12161 0.31569 0.0
C1153 C 0.76314 0.1289 0.33711 0.0
C1154 C 0.75849 0.11643 0.35645 0.0
C1155 C 0.74592 0.0966 0.35439 0.0
H1156 H 0.77289 0.14423 0.33873 0.0
H1157 H 0.65605 0.94837 0.32465 0.0
H1158 H 0.26476 0.14629 0.88026 0.0
H1159 H 0.25584 0.11071 0.89866 0.0
H1160 H 0.29198 0.07512 0.84775 0.0
H1161 H 0.29785 0.11004 0.82797 0.0
H1162 H 0.27172 0.0464 0.86445 0.0
H1163 H 0.31746 0.10203 0.89926 0.0
H1164 H 0.32911 0.13891 0.9151 0.0
H1165 H 0.28124 0.13258 0.96703 0.0
H1166 H 0.26903 0.09582 0.95127 0.0
H1167 H 0.30731 0.97413 0.9648 0.0
H1168 H 0.31422 0.00616 0.93941 0.0
H1169 H 0.24392 0.02079 0.93648 0.0
H1170 H 0.23687 0.98887 0.96108 0.0
H1171 H 0.28995 0.0577 0.94674 0.0
H1172 H 0.24676 0.99746 0.89732 0.0
H1173 H 0.24875 0.95942 0.88085 0.0
H1174 H 0.31311 0.97477 0.8553 0.0
H1175 H 0.31165 0.01279 0.87215 0.0
C1176 C 0.26913 0.13064 0.87215 0.0
C1177 C 0.28222 0.13065 0.85302 0.0
C1178 C 0.26468 0.11035 0.88298 0.0
C1179 C 0.27468 0.09042 0.87555 0.0
C1180 C 0.28448 0.0902 0.85429 0.0
C1181 C 0.2877 0.11023 0.84281 0.0
C1182 C 0.27803 0.07108 0.89113 0.0
C1183 C 0.27582 0.04912 0.88236 0.0
C1184 C 0.28492 0.07414 0.91436 0.0
C1185 C 0.29217 0.09627 0.92394 0.0
C1186 C 0.30933 0.10856 0.91398 0.0
C1187 C 0.31603 0.12945 0.92294 0.0
C1188 C 0.30588 0.1381 0.94203 0.0
C1189 C 0.28905 0.12587 0.95222 0.0
C1190 C 0.28222 0.10501 0.94328 0.0
C1191 C 0.29347 0.98443 0.95887 0.0
C1192 C 0.27157 0.97911 0.96462 0.0
C1193 C 0.29741 0.00251 0.94439 0.0
C1194 C 0.27947 0.01541 0.93604 0.0
C1195 C 0.25784 0.01073 0.94268 0.0
C1196 C 0.25386 0.99256 0.95666 0.0
C1197 C 0.28253 0.0338 0.92001 0.0
C1198 C 0.28609 0.05545 0.9287 0.0
C1199 C 0.27874 0.03048 0.89649 0.0
C1200 C 0.27918 0.0078 0.88617 0.0
C1201 C 0.2614 0.99264 0.88839 0.0
C1202 C 0.26243 0.97109 0.87894 0.0
C1203 C 0.28106 0.96464 0.86703 0.0
C1204 C 0.29871 0.97975 0.86455 0.0
C1205 C 0.2978 0.00127 0.87407 0.0
H1206 H 0.2818 0.94798 0.85968 0.0
H1207 H 0.3111 0.15427 0.94895 0.0
H1208 H 0.39576 0.45284 0.33021 0.0
H1209 H 0.36024 0.4558 0.30858 0.0
H1210 H 0.32507 0.45437 0.37103 0.0
H1211 H 0.36063 0.45229 0.39275 0.0
H1212 H 0.31399 0.41842 0.33988 0.0
H1213 H 0.31656 0.49709 0.3427 0.0
H1214 H 0.33226 0.53535 0.34053 0.0
H1215 H 0.34215 0.52621 0.26923 0.0
H1216 H 0.32684 0.4877 0.27105 0.0
H1217 H 0.20708 0.42985 0.285 0.0
H1218 H 0.24153 0.42458 0.30662 0.0
H1219 H 0.27846 0.4456 0.24875 0.0
H1220 H 0.2433 0.45337 0.22787 0.0
H1221 H 0.2875 0.47225 0.28092 0.0
H1222 H 0.28432 0.38936 0.28201 0.0
H1223 H 0.26492 0.35327 0.28805 0.0
H1224 H 0.25119 0.37329 0.35623 0.0
H1225 H 0.27046 0.40946 0.35059 0.0
C1226 C 0.38053 0.45455 0.33933 0.0
C1227 C 0.3809 0.45257 0.36309 0.0
C1228 C 0.36024 0.45591 0.32699 0.0
C1229 C 0.34009 0.45491 0.33824 0.0
C1230 C 0.34048 0.45505 0.36208 0.0
C1231 C 0.36082 0.45429 0.37446 0.0
C1232 C 0.31902 0.45095 0.3249 0.0
C1233 C 0.30799 0.43022 0.32707 0.0
C1234 C 0.31132 0.46634 0.30831 0.0
C1235 C 0.3208 0.48938 0.30708 0.0
C1236 C 0.32233 0.50312 0.32661 0.0
C1237 C 0.3311 0.52488 0.32543 0.0
C1238 C 0.33827 0.53318 0.30477 0.0
C1239 C 0.33663 0.51974 0.28524 0.0
C1240 C 0.3279 0.49794 0.28633 0.0
C1241 C 0.22259 0.43213 0.27642 0.0
C1242 C 0.22262 0.44245 0.255 0.0
C1243 C 0.2425 0.42903 0.28889 0.0
C1244 C 0.26288 0.4349 0.27956 0.0
C1245 C 0.26294 0.4413 0.2565 0.0
C1246 C 0.24286 0.4453 0.24431 0.0
C1247 C 0.28293 0.43904 0.29479 0.0
C1248 C 0.29364 0.46009 0.29329 0.0
C1249 C 0.28993 0.4241 0.31236 0.0
C1250 C 0.27885 0.40209 0.31585 0.0
C1251 C 0.27717 0.38604 0.29828 0.0
C1252 C 0.26619 0.36557 0.30164 0.0
C1253 C 0.25683 0.36099 0.32251 0.0
C1254 C 0.25844 0.37685 0.34008 0.0
C1255 C 0.26946 0.39729 0.33683 0.0
H1256 H 0.24832 0.34516 0.32506 0.0
H1257 H 0.34504 0.55005 0.30389 0.0
H1258 H 0.73586 0.36673 0.8408 0.0
H1259 H 0.76026 0.39831 0.85351 0.0
H1260 H 0.71401 0.41504 0.90498 0.0
H1261 H 0.69081 0.38329 0.89383 0.0
H1262 H 0.72966 0.44703 0.86013 0.0
H1263 H 0.74084 0.40876 0.93376 0.0
H1264 H 0.75387 0.3783 0.9589 0.0
H1265 H 0.82052 0.38757 0.93674 0.0
H1266 H 0.8075 0.41741 0.91035 0.0
H1267 H 0.72224 0.52356 0.94374 0.0
H1268 H 0.72692 0.48802 0.92469 0.0
H1269 H 0.79363 0.50706 0.90762 0.0
H1270 H 0.7896 0.54291 0.92849 0.0
H1271 H 0.78185 0.45756 0.92694 0.0
H1272 H 0.76163 0.51064 0.86463 0.0
H1273 H 0.74025 0.54581 0.86108 0.0
H1274 H 0.68068 0.51071 0.87861 0.0
H1275 H 0.70168 0.47539 0.88233 0.0
C1276 C 0.73155 0.3765 0.85553 0.0
C1277 C 0.71136 0.37249 0.86624 0.0
C1278 C 0.74542 0.39456 0.8627 0.0
C1279 C 0.73919 0.40862 0.88059 0.0
C1280 C 0.7196 0.40392 0.89177 0.0
C1281 C 0.70617 0.38582 0.8851 0.0
C1282 C 0.75041 0.43037 0.88556 0.0
C1283 C 0.74191 0.44929 0.87404 0.0
C1284 C 0.76542 0.43338 0.90453 0.0
C1285 C 0.77295 0.41444 0.91909 0.0
C1286 C 0.75805 0.40364 0.93338 0.0
C1287 C 0.76547 0.38661 0.94804 0.0
C1288 C 0.78794 0.38067 0.94906 0.0
C1289 C 0.80303 0.39188 0.93554 0.0
C1290 C 0.7956 0.40871 0.92059 0.0
C1291 C 0.73785 0.52059 0.93566 0.0
C1292 C 0.75536 0.5364 0.93707 0.0
C1293 C 0.7406 0.50003 0.92507 0.0
C1294 C 0.76051 0.49504 0.91465 0.0
C1295 C 0.77815 0.51069 0.91569 0.0
C1296 C 0.77568 0.53123 0.92716 0.0
C1297 C 0.76131 0.47396 0.90137 0.0
C1298 C 0.77142 0.45523 0.91161 0.0
C1299 C 0.74671 0.47105 0.88209 0.0
C1300 C 0.73322 0.49031 0.87352 0.0
C1301 C 0.74382 0.51028 0.86698 0.0
C1302 C 0.73184 0.5303 0.86525 0.0
C1303 C 0.70922 0.53051 0.8699 0.0
C1304 C 0.69824 0.51051 0.8751 0.0
C1305 C 0.71013 0.49043 0.8768 0.0
H1306 H 0.70026 0.54621 0.86964 0.0
H1307 H 0.79372 0.36763 0.96057 0.0
H1308 H 0.60592 0.94436 0.16021 0.0
H1309 H 0.63958 0.94829 0.1847 0.0
H1310 H 0.67891 0.95657 0.12553 0.0
H1311 H 0.64508 0.95314 0.101 0.0
H1312 H 0.69134 0.9195 0.15269 0.0
H1313 H 0.67843 0.99778 0.16141 0.0
H1314 H 0.65719 0.03202 0.16935 0.0
H1315 H 0.64734 0.00933 0.23742 0.0
H1316 H 0.66821 0.97474 0.22976 0.0
H1317 H 0.79589 0.94125 0.20609 0.0
H1318 H 0.76137 0.93273 0.18565 0.0
H1319 H 0.72556 0.94268 0.24715 0.0
H1320 H 0.76053 0.954 0.26712 0.0
H1321 H 0.71008 0.96898 0.21873 0.0
H1322 H 0.72649 0.8901 0.20924 0.0
H1323 H 0.75008 0.85785 0.19979 0.0
H1324 H 0.75565 0.88262 0.13183 0.0
H1325 H 0.73234 0.91512 0.1409 0.0
C1326 C 0.62155 0.94845 0.15255 0.0
C1327 C 0.62292 0.94873 0.12879 0.0
C1328 C 0.64083 0.95034 0.16651 0.0
C1329 C 0.66175 0.95233 0.15688 0.0
C1330 C 0.6629 0.95489 0.13325 0.0
C1331 C 0.64352 0.95341 0.11928 0.0
C1332 C 0.68226 0.94906 0.1713 0.0
C1333 C 0.69567 0.93039 0.16706 0.0
C1334 C 0.68742 0.96289 0.19031 0.0
C1335 C 0.67463 0.98353 0.19491 0.0
C1336 C 0.67151 -4e-05 0.17799 0.0
C1337 C 0.65958 0.01946 0.18246 0.0
C1338 C 0.65085 0.02281 0.20385 0.0
C1339 C 0.65406 0.00668 0.22084 0.0
C1340 C 0.66594 0.98713 0.21644 0.0
C1341 C 0.78075 0.94069 0.21553 0.0
C1342 C 0.78071 0.94881 0.23798 0.0
C1343 C 0.76084 0.93553 0.20378 0.0
C1344 C 0.74052 0.93713 0.21464 0.0
C1345 C 0.74096 0.94165 0.23823 0.0
C1346 C 0.76097 0.94776 0.24983 0.0
C1347 C 0.71935 0.939 0.20064 0.0
C1348 C 0.70572 0.95761 0.20477 0.0
C1349 C 0.71416 0.9251 0.18143 0.0
C1350 C 0.72765 0.90511 0.1758 0.0
C1351 C 0.73276 0.8887 0.19229 0.0
C1352 C 0.7461 0.87037 0.187 0.0
C1353 C 0.75436 0.8682 0.16523 0.0
C1354 C 0.74921 0.88429 0.14867 0.0
C1355 C 0.73588 0.90264 0.15386 0.0
H1356 H 0.76474 0.85404 0.1612 0.0
H1357 H 0.64165 0.03794 0.20729 0.0
H1358 H 0.21097 0.10996 0.16358 0.0
H1359 H 0.21784 0.07331 0.14707 0.0
H1360 H 0.23049 0.10467 0.08276 0.0
H1361 H 0.2217 0.14129 0.09907 0.0
H1362 H 0.19784 0.07741 0.07749 0.0
H1363 H 0.26999 0.06966 0.11808 0.0
H1364 H 0.2948 0.06938 0.1526 0.0
H1365 H 0.25468 0.01779 0.18155 0.0
H1366 H 0.22946 0.0179 0.14746 0.0
H1367 H 0.21623 0.98023 0.01322 0.0
H1368 H 0.21326 0.01542 0.03345 0.0
H1369 H 0.20953 0.97942 0.09687 0.0
H1370 H 0.21549 0.94404 0.07649 0.0
H1371 H 0.23664 0.00872 0.10421 0.0
H1372 H 0.16431 0.01544 0.06746 0.0
H1373 H 0.13608 0.01537 0.03582 0.0
H1374 H 0.17148 0.06831 0.0031 0.0
H1375 H 0.20005 0.06853 0.03436 0.0
C1376 C 0.21657 0.10914 0.14631 0.0
C1377 C 0.21595 0.12835 0.13258 0.0
C1378 C 0.2204 0.08806 0.13677 0.0
C1379 C 0.22455 0.08604 0.11352 0.0
C1380 C 0.2271 0.10573 0.10068 0.0
C1381 C 0.22252 0.12674 0.11006 0.0
C1382 C 0.22194 0.06389 0.10179 0.0
C1383 C 0.2067 0.06245 0.08306 0.0
C1384 C 0.23229 0.04403 0.10991 0.0
C1385 C 0.24776 0.04387 0.13023 0.0
C1386 C 0.2664 0.05833 0.13184 0.0
C1387 C 0.28054 0.0582 0.15133 0.0
C1388 C 0.27631 0.04362 0.16922 0.0
C1389 C 0.25795 0.02907 0.16767 0.0
C1390 C 0.24375 0.02913 0.14827 0.0
C1391 C 0.21382 0.97975 0.03138 0.0
C1392 C 0.21571 0.95945 0.0433 0.0
C1393 C 0.21204 3e-05 0.04304 0.0
C1394 C 0.21081 0.00041 0.06685 0.0
C1395 C 0.2106 0.97977 0.07855 0.0
C1396 C 0.21359 0.95948 0.06693 0.0
C1397 C 0.21275 0.02219 0.07955 0.0
C1398 C 0.22775 0.0236 0.09853 0.0
C1399 C 0.2017 0.04197 0.07205 0.0
C1400 C 0.18441 0.04189 0.05324 0.0
C1401 C 0.16614 0.02698 0.05346 0.0
C1402 C 0.15007 0.02693 0.03559 0.0
C1403 C 0.152 0.04179 0.01745 0.0
C1404 C 0.16999 0.05679 0.01716 0.0
C1405 C 0.18611 0.05692 0.03497 0.0
H1406 H 0.13955 0.04171 0.00363 0.0
H1407 H 0.28727 0.04358 0.18427 0.0
H1408 H 0.38857 0.55161 0.15808 0.0
H1409 H 0.35375 0.54504 0.17763 0.0
H1410 H 0.31729 0.545 0.11307 0.0
H1411 H 0.35207 0.55074 0.09359 0.0
H1412 H 0.31549 0.58128 0.16553 0.0
H1413 H 0.29153 0.51412 0.11761 0.0
H1414 H 0.30081 0.4777 0.10028 0.0
H1415 H 0.32451 0.45345 0.16545 0.0
H1416 H 0.31572 0.48998 0.18301 0.0
H1417 H 0.19644 0.54464 0.18868 0.0
H1418 H 0.23026 0.5533 0.16838 0.0
H1419 H 0.26984 0.54443 0.23034 0.0
H1420 H 0.23606 0.5363 0.25088 0.0
H1421 H 0.26885 0.51349 0.17738 0.0
H1422 H 0.28558 0.58309 0.22471 0.0
H1423 H 0.27342 0.6202 0.23819 0.0
H1424 H 0.25989 0.64086 0.16921 0.0
H1425 H 0.27168 0.60371 0.15539 0.0
C1426 C 0.3733 0.5487 0.14804 0.0
C1427 C 0.37309 0.55113 0.12431 0.0
C1428 C 0.35337 0.54538 0.15921 0.0
C1429 C 0.33291 0.54454 0.14681 0.0
C1430 C 0.33287 0.5451 0.12297 0.0
C1431 C 0.35285 0.54804 0.11181 0.0
C1432 C 0.31168 0.54575 0.15888 0.0
C1433 C 0.30531 0.56646 0.16814 0.0
C1434 C 0.29809 0.52665 0.16185 0.0
C1435 C 0.30338 0.5048 0.15148 0.0
C1436 C 0.29899 0.5011 0.12815 0.0
C1437 C 0.30409 0.48044 0.1183 0.0
C1438 C 0.31334 0.4633 0.13174 0.0
C1439 C 0.31744 0.46678 0.15505 0.0
C1440 C 0.31244 0.48746 0.16494 0.0
C1441 C 0.21223 0.54567 0.19823 0.0
C1442 C 0.21357 0.53989 0.22142 0.0
C1443 C 0.23155 0.55044 0.18656 0.0
C1444 C 0.25252 0.54946 0.19785 0.0
C1445 C 0.25377 0.54557 0.22138 0.0
C1446 C 0.2344 0.54112 0.23316 0.0
C1447 C 0.27298 0.54887 0.18456 0.0
C1448 C 0.2791 0.52831 0.1749 0.0
C1449 C 0.28597 0.56825 0.18076 0.0
C1450 C 0.27925 0.5906 0.18907 0.0
C1451 C 0.2798 0.59548 0.21246 0.0
C1452 C 0.27303 0.61653 0.22015 0.0
C1453 C 0.26582 0.63285 0.20457 0.0
C1454 C 0.26544 0.62819 0.18126 0.0
C1455 C 0.27218 0.60715 0.1735 0.0
H1456 H 0.26058 0.64913 0.21055 0.0
H1457 H 0.31725 0.4473 0.12411 0.0
H1458 H 0.81592 0.41249 0.16144 0.0
H1459 H 0.79145 0.43892 0.14199 0.0
H1460 H 0.74737 0.38458 0.12031 0.0
H1461 H 0.77289 0.35762 0.13894 0.0
H1462 H 0.75893 0.40898 0.08558 0.0
H1463 H 0.72922 0.42769 0.15675 0.0
H1464 H 0.73097 0.43571 0.19792 0.0
H1465 H 0.77068 0.49463 0.18679 0.0
H1466 H 0.76945 0.48685 0.14562 0.0
H1467 H 0.71558 0.5042 0.0228 0.0
H1468 H 0.71501 0.47309 0.04997 0.0
H1469 H 0.77551 0.49857 0.08302 0.0
H1470 H 0.77643 0.52944 0.05584 0.0
H1471 H 0.74083 0.48528 0.11337 0.0
H1472 H 0.78226 0.45882 0.049 0.0
H1473 H 0.78667 0.45088 0.00826 0.0
H1474 H 0.7294 0.4072 0.00761 0.0
H1475 H 0.72453 0.41512 0.04837 0.0
C1476 C 0.8008 0.40617 0.15291 0.0
C1477 C 0.79621 0.38305 0.15172 0.0
C1478 C 0.7866 0.42135 0.14206 0.0
C1479 C 0.76727 0.41382 0.13009 0.0
C1480 C 0.76205 0.39076 0.12973 0.0
C1481 C 0.7765 0.37543 0.14049 0.0
C1482 C 0.75498 0.42984 0.11522 0.0
C1483 C 0.75407 0.42537 0.09175 0.0
C1484 C 0.74911 0.4514 0.12325 0.0
C1485 C 0.74913 0.45671 0.14799 0.0
C1486 C 0.73831 0.44237 0.16306 0.0
C1487 C 0.73924 0.44686 0.18642 0.0
C1488 C 0.7509 0.46568 0.19496 0.0
C1489 C 0.76158 0.4801 0.18015 0.0
C1490 C 0.76069 0.4757 0.15677 0.0
C1491 C 0.72873 0.50316 0.03589 0.0
C1492 C 0.74614 0.51912 0.03715 0.0
C1493 C 0.72831 0.48548 0.05139 0.0
C1494 C 0.7451 0.48378 0.0685 0.0
C1495 C 0.7623 0.49983 0.07 0.0
C1496 C 0.76294 0.51727 0.05432 0.0
C1497 C 0.74584 0.46448 0.08406 0.0
C1498 C 0.74454 0.46848 0.10745 0.0
C1499 C 0.75002 0.44258 0.07604 0.0
C1500 C 0.75285 0.4378 0.05159 0.0
C1501 C 0.77049 0.44769 0.0401 0.0
C1502 C 0.7731 0.44316 0.01703 0.0
C1503 C 0.75827 0.42861 0.00532 0.0
C1504 C 0.74084 0.41851 0.01669 0.0
C1505 C 0.73814 0.42301 0.03977 0.0
H1506 H 0.76032 0.42511 0.98746 0.0
H1507 H 0.75167 0.46908 0.21306 0.0
H1508 H 0.34144 0.62986 0.04965 0.0
H1509 H 0.3271 0.66058 0.0259 0.0
H1510 H 0.39215 0.66999 -0.00118 0.0
H1511 H 0.40654 0.63874 0.0223 0.0
H1512 H 0.36853 0.70984 0.02257 0.0
H1513 H 0.35777 0.65239 0.96373 0.0
H1514 H 0.34355 0.61512 0.95166 0.0
H1515 H 0.27694 0.63494 0.96615 0.0
H1516 H 0.29086 0.67219 0.97888 0.0
H1517 H 0.32372 0.80547 0.97384 0.0
H1518 H 0.34577 0.77095 0.97316 0.0
H1519 H 0.28509 0.73155 0.97428 0.0
H1520 H 0.26332 0.76575 0.97215 0.0
H1521 H 0.31196 0.70605 0.95883 0.0
H1522 H 0.31665 0.75301 0.02513 0.0
H1523 H 0.32364 0.78899 0.04527 0.0
H1524 H 0.3922 0.78753 0.02719 0.0
H1525 H 0.38553 0.75164 0.00666 0.0
C1526 C 0.35251 0.63798 0.03807 0.0
C1527 C 0.37505 0.6318 0.03764 0.0
C1528 C 0.34433 0.65561 0.02463 0.0
C1529 C 0.35861 0.66763 0.01075 0.0
C1530 C 0.3809 0.66089 0.00946 0.0
C1531 C 0.38902 0.64289 0.02263 0.0
C1532 C 0.35035 0.68815 -0.001 0.0
C1533 C 0.35663 0.70913 0.00821 0.0
C1534 C 0.33389 0.68704 0.98117 0.0
C1535 C 0.32538 0.6651 0.97227 0.0
C1536 C 0.3401 0.64881 0.96437 0.0
C1537 C 0.33209 0.62766 0.95743 0.0
C1538 C 0.30934 0.62266 0.95807 0.0
C1539 C 0.29455 0.63884 0.9656 0.0
C1540 C 0.30249 0.65999 0.97266 0.0
C1541 C 0.3152 0.78937 0.97266 0.0
C1542 C 0.29187 0.78823 0.973 0.0
C1543 C 0.32776 0.7696 0.97273 0.0
C1544 C 0.31724 0.74848 0.97488 0.0
C1545 C 0.29384 0.74744 0.97287 0.0
C1546 C 0.2813 0.76711 0.97158 0.0
C1547 C 0.33002 0.7281 0.98239 0.0
C1548 C 0.3244 0.70703 0.97268 0.0
C1549 C 0.3461 0.72895 0.00079 0.0
C1550 C 0.35055 0.7498 0.01418 0.0
C1551 C 0.33323 0.76035 0.02551 0.0
C1552 C 0.33711 0.78073 0.03692 0.0
C1553 C 0.35833 0.79056 0.03741 0.0
C1554 C 0.37577 0.7799 0.02672 0.0
C1555 C 0.37196 0.75953 0.0152 0.0
H1556 H 0.36123 0.80642 0.04606 0.0
H1557 H 0.30319 0.60625 0.95273 0.0
H1558 H 0.38257 0.35524 0.40554 0.0
H1559 H 0.35944 0.32204 0.41052 0.0
H1560 H 0.333 0.35154 0.47075 0.0
H1561 H 0.35647 0.38537 0.46568 0.0
H1562 H 0.34305 0.29993 0.46966 0.0
H1563 H 0.30469 0.36027 0.42699 0.0
H1564 H 0.30439 0.38813 0.39605 0.0
H1565 H 0.31112 0.33529 0.34698 0.0
H1566 H 0.31202 0.30715 0.37767 0.0
H1567 H 0.24217 0.2437 0.47728 0.0
H1568 H 0.26354 0.2775 0.46819 0.0
H1569 H 0.29289 0.24237 0.41279 0.0
H1570 H 0.27198 0.20829 0.42228 0.0
H1571 H 0.28207 0.29577 0.41005 0.0
H1572 H 0.32466 0.23722 0.44559 0.0
H1573 H 0.33123 0.2058 0.47212 0.0
H1574 H 0.32274 0.25018 0.5288 0.0
H1575 H 0.31566 0.28181 0.50248 0.0
C1576 C 0.37236 0.3544 0.42028 0.0
C1577 C 0.37123 0.37278 0.43527 0.0
C1578 C 0.35912 0.33545 0.42303 0.0
C1579 C 0.34436 0.33451 0.44079 0.0
C1580 C 0.34433 0.35209 0.4569 0.0
C1581 C 0.35769 0.3713 0.45407 0.0
C1582 C 0.32742 0.31635 0.44072 0.0
C1583 C 0.32947 0.29925 0.45694 0.0
C1584 C 0.31053 0.31481 0.4232 0.0
C1585 C 0.30868 0.33163 0.40468 0.0
C1586 C 0.30622 0.3546 0.40962 0.0
C1587 C 0.30598 0.37044 0.39213 0.0
C1588 C 0.30795 0.36348 0.36961 0.0
C1589 C 0.30974 0.34065 0.36446 0.0
C1590 C 0.31011 0.32475 0.3819 0.0
C1591 C 0.2522 0.24363 0.46237 0.0
C1592 C 0.25529 0.22364 0.45025 0.0
C1593 C 0.26458 0.26279 0.45739 0.0
C1594 C 0.27998 0.26217 0.44013 0.0
C1595 C 0.28105 0.24307 0.42618 0.0
C1596 C 0.26893 0.22374 0.43142 0.0
C1597 C 0.29729 0.27985 0.43944 0.0
C1598 C 0.29546 0.29667 0.42297 0.0
C1599 C 0.31495 0.28066 0.45611 0.0
C1600 C 0.31914 0.26177 0.47207 0.0
C1601 C 0.32382 0.24021 0.4637 0.0
C1602 C 0.32774 0.22237 0.47869 0.0
C1603 C 0.32728 0.22596 0.50213 0.0
C1604 C 0.32298 0.24741 0.51062 0.0
C1605 C 0.31899 0.26529 0.49568 0.0
H1606 H 0.33037 0.21214 0.51372 0.0
H1607 H 0.30814 0.37577 0.35613 0.0
H1608 H 0.61223 0.33231 0.77005 0.0
H1609 H 0.57863 0.34515 0.74888 0.0
H1610 H 0.59313 0.41325 0.77046 0.0
H1611 H 0.62635 0.40046 0.79175 0.0
H1612 H 0.55385 0.39617 0.78638 0.0
H1613 H 0.59214 0.40033 0.71562 0.0
H1614 H 0.61436 0.38422 0.68529 0.0
H1615 H 0.56271 0.33553 0.67004 0.0
H1616 H 0.54028 0.35122 0.70049 0.0
H1617 H 0.48319 0.47008 0.72326 0.0
H1618 H 0.51519 0.4449 0.72408 0.0
H1619 H 0.47339 0.39056 0.74595 0.0
H1620 H 0.44137 0.41606 0.74582 0.0
H1621 H 0.52328 0.39414 0.70681 0.0
H1622 H 0.48928 0.38629 0.78437 0.0
H1623 H 0.46889 0.40314 0.81573 0.0
H1624 H 0.51491 0.45877 0.81865 0.0
H1625 H 0.53514 0.44251 0.78683 0.0
C1626 C 0.60875 0.35014 0.76932 0.0
C1627 C 0.62167 0.36545 0.78256 0.0
C1628 C 0.58952 0.35743 0.75735 0.0
C1629 C 0.58325 0.38009 0.75846 0.0
C1630 C 0.5976 0.39567 0.76958 0.0
C1631 C 0.61661 0.38839 0.78163 0.0
C1632 C 0.56033 0.38712 0.75176 0.0
C1633 C 0.54717 0.39553 0.76896 0.0
C1634 C 0.55143 0.38581 0.72918 0.0
C1635 C 0.56463 0.37681 0.71048 0.0
C1636 C 0.58557 0.38611 0.70589 0.0
C1637 C 0.59819 0.37708 0.68865 0.0
C1638 C 0.58999 0.35881 0.6758 0.0
C1639 C 0.56907 0.34965 0.68004 0.0
C1640 C 0.55637 0.35864 0.69725 0.0
C1641 C 0.48066 0.45257 0.7275 0.0
C1642 C 0.45993 0.445 0.73477 0.0
C1643 C 0.49894 0.43821 0.72795 0.0
C1644 C 0.49667 0.41599 0.73534 0.0
C1645 C 0.47549 0.40778 0.74052 0.0
C1646 C 0.45725 0.42233 0.74054 0.0
C1647 C 0.51705 0.40323 0.74146 0.0
C1648 C 0.52982 0.39402 0.72425 0.0
C1649 C 0.52571 0.40352 0.76413 0.0
C1650 C 0.51335 0.41347 0.78293 0.0
C1651 C 0.49479 0.4023 0.79146 0.0
C1652 C 0.4833 0.41172 0.80934 0.0
C1653 C 0.49052 0.43209 0.81909 0.0
C1654 C 0.50924 0.44308 0.81098 0.0
C1655 C 0.52066 0.43382 0.79297 0.0
H1656 H 0.48167 0.4393 0.833 0.0
H1657 H 0.59984 0.35177 0.66253 0.0
H1658 H 0.60974 0.11716 0.48689 0.0
H1659 H 0.62831 0.1445 0.51254 0.0
H1660 H 0.66152 0.1728 0.45541 0.0
H1661 H 0.64518 0.14422 0.43073 0.0
H1662 H 0.69004 0.16883 0.48542 0.0
H1663 H 0.6172 0.19767 0.48216 0.0
H1664 H 0.57654 0.20051 0.48558 0.0
H1665 H 0.58411 0.19157 0.55782 0.0
H1666 H 0.62484 0.18825 0.55479 0.0
H1667 H 0.69493 0.28238 0.49976 0.0
H1668 H 0.67654 0.24683 0.49817 0.0
H1669 H 0.71425 0.22516 0.55787 0.0
H1670 H 0.73321 0.26244 0.56033 0.0
H1671 H 0.65349 0.21951 0.53932 0.0
H1672 H 0.73657 0.19793 0.52535 0.0
H1673 H 0.77009 0.21168 0.50688 0.0
H1674 H 0.7308 0.22759 0.44656 0.0
H1675 H 0.69715 0.21318 0.46449 0.0
C1676 C 0.6217 0.12853 0.48012 0.0
C1677 C 0.62693 0.12745 0.45709 0.0
C1678 C 0.63188 0.14461 0.49465 0.0
C1679 C 0.64671 0.16049 0.48605 0.0
C1680 C 0.65075 0.16029 0.46272 0.0
C1681 C 0.64134 0.14382 0.44856 0.0
C1682 C 0.65909 0.17683 0.50097 0.0
C1683 C 0.68196 0.17945 0.49761 0.0
C1684 C 0.64863 0.19129 0.51645 0.0
C1685 C 0.62405 0.19211 0.51818 0.0
C1686 C 0.61018 0.19584 0.49873 0.0
C1687 C 0.58712 0.19767 0.50061 0.0
C1688 C 0.57773 0.19606 0.52188 0.0
C1689 C 0.59139 0.19266 0.54133 0.0
C1690 C 0.61446 0.19075 0.53954 0.0
C1691 C 0.69913 0.27067 0.51329 0.0
C1692 C 0.71537 0.27568 0.53063 0.0
C1693 C 0.68838 0.25019 0.51222 0.0
C1694 C 0.69365 0.23368 0.52814 0.0
C1695 C 0.70978 0.2381 0.54568 0.0
C1696 C 0.72069 0.25917 0.54695 0.0
C1697 C 0.68401 0.21127 0.52342 0.0
C1698 C 0.66159 0.20762 0.52837 0.0
C1699 C 0.69397 0.1974 0.50728 0.0
C1700 C 0.71452 0.20448 0.49623 0.0
C1701 C 0.73518 0.20425 0.50812 0.0
C1702 C 0.75416 0.21229 0.49775 0.0
C1703 C 0.7525 0.22099 0.4757 0.0
C1704 C 0.732 0.22106 0.4637 0.0
C1705 C 0.71305 0.21274 0.47386 0.0
H1706 H 0.76708 0.22741 0.46768 0.0
H1707 H 0.55989 0.19758 0.52332 0.0
H1708 H 0.88894 0.66867 0.28879 0.0
H1709 H 0.92217 0.65161 0.27368 0.0
H1710 H 0.89096 0.58612 0.27712 0.0
H1711 H 0.85843 0.60321 0.29402 0.0
H1712 H 0.92966 0.58498 0.297 0.0
H1713 H 0.90231 0.61851 0.22537 0.0
H1714 H 0.88944 0.65186 0.20404 0.0
H1715 H 0.95318 0.68375 0.21654 0.0
H1716 H 0.96619 0.65092 0.23859 0.0
H1717 H 0.00398 0.52269 0.22934 0.0
H1718 H 0.97173 0.54723 0.23391 0.0
H1719 H 0.01364 0.59524 0.27075 0.0
H1720 H 0.0457 0.57024 0.26721 0.0
H1721 H 0.97174 0.60722 0.22965 0.0
H1722 H 0.99535 0.58293 0.30673 0.0
H1723 H 0.0102 0.55427 0.33331 0.0
H1724 H 0.95627 0.50966 0.31346 0.0
H1725 H 0.94141 0.53796 0.28633 0.0
C1726 C 0.88899 0.65073 0.28556 0.0
C1727 C 0.87118 0.63717 0.29206 0.0
C1728 C 0.90796 0.64097 0.27691 0.0
C1729 C 0.90901 0.61757 0.27392 0.0
C1730 C 0.89052 0.60421 0.27922 0.0
C1731 C 0.87186 0.61392 0.28859 0.0
C1732 C 0.93008 0.6067 0.26767 0.0
C1733 C 0.93856 0.58972 0.28204 0.0
C1734 C 0.94243 0.61353 0.24879 0.0
C1735 C 0.93516 0.63231 0.2338 0.0
C1736 C 0.9136 0.63261 0.22353 0.0
C1737 C 0.90626 0.65146 0.21136 0.0
C1738 C 0.92049 0.66993 0.209 0.0
C1739 C 0.94218 0.66945 0.21845 0.0
C1740 C 0.94953 0.65073 0.2308 0.0
C1741 C 0.00628 0.53861 0.23814 0.0
C1742 C 0.02706 0.54457 0.24823 0.0
C1743 C 0.98799 0.55261 0.24062 0.0
C1744 C 0.99048 0.57292 0.25264 0.0
C1745 C 0.01153 0.57957 0.26143 0.0
C1746 C 0.02969 0.56528 0.25957 0.0
C1747 C 0.97054 0.58544 0.25865 0.0
C1748 C 0.96248 0.60257 0.24439 0.0
C1749 C 0.95879 0.57934 0.27795 0.0
C1750 C 0.96752 0.56235 0.29426 0.0
C1751 C 0.98684 0.56688 0.30782 0.0
C1752 C 0.99523 0.55074 0.32301 0.0
C1753 C 0.98424 0.53011 0.325 0.0
C1754 C 0.96481 0.52562 0.31183 0.0
C1755 C 0.95642 0.54168 0.29652 0.0
H1756 H 0.99073 0.51764 0.3368 0.0
H1757 H 0.91472 0.68471 0.20002 0.0
H1758 H 0.10509 0.344 0.52639 0.0
H1759 H 0.13156 0.31295 0.5268 0.0
H1760 H 0.17148 0.34673 0.57925 0.0
H1761 H 0.1452 0.37827 0.57821 0.0
H1762 H 0.19745 0.32178 0.5489 0.0
H1763 H 0.13198 0.31035 0.5925 0.0
H1764 H 0.09137 0.30841 0.59802 0.0
H1765 H 0.08486 0.25586 0.54795 0.0
H1766 H 0.12527 0.25773 0.54207 0.0
H1767 H 0.25274 0.21702 0.55857 0.0
H1768 H 0.23437 0.25083 0.57256 0.0
H1769 H 0.172 0.22742 0.5413 0.0
H1770 H 0.18919 0.19293 0.53093 0.0
H1771 H 0.1602 0.25063 0.56976 0.0
H1772 H 0.22109 0.26693 0.51732 0.0
H1773 H 0.26106 0.26786 0.50874 0.0
H1774 H 0.27508 0.3096 0.56727 0.0
H1775 H 0.23538 0.30837 0.57662 0.0
C1776 C 0.12001 0.34522 0.53733 0.0
C1777 C 0.12325 0.36366 0.55206 0.0
C1778 C 0.13502 0.32735 0.53774 0.0
C1779 C 0.1533 0.32722 0.55341 0.0
C1780 C 0.1575 0.3464 0.56704 0.0
C1781 C 0.14255 0.3645 0.56637 0.0
C1782 C 0.16639 0.30617 0.55707 0.0
C1783 C 0.18936 0.30618 0.55347 0.0
C1784 C 0.15589 0.28574 0.56302 0.0
C1785 C 0.13162 0.28427 0.5669 0.0
C1786 C 0.12181 0.29844 0.58275 0.0
C1787 C 0.09886 0.29737 0.58588 0.0
C1788 C 0.08555 0.28204 0.57334 0.0
C1789 C 0.09518 0.26772 0.55768 0.0
C1790 C 0.11812 0.26877 0.55447 0.0
C1791 C 0.23491 0.21875 0.55568 0.0
C1792 C 0.22265 0.20247 0.54296 0.0
C1793 C 0.22444 0.23845 0.56313 0.0
C1794 C 0.20189 0.24275 0.55685 0.0
C1795 C 0.18941 0.22526 0.54629 0.0
C1796 C 0.19945 0.20529 0.54009 0.0
C1797 C 0.19112 0.2654 0.55937 0.0
C1798 C 0.16848 0.26599 0.56475 0.0
C1799 C 0.20173 0.28608 0.55396 0.0
C1800 C 0.22536 0.28738 0.54778 0.0
C1801 C 0.23272 0.27631 0.52833 0.0
C1802 C 0.25531 0.27685 0.52336 0.0
C1803 C 0.27055 0.28882 0.53739 0.0
C1804 C 0.26326 0.30031 0.55643 0.0
C1805 C 0.24074 0.29965 0.56162 0.0
H1806 H 0.28802 0.28919 0.53353 0.0
H1807 H 0.06779 0.28125 0.57576 0.0
H1808 H 0.62155 0.6713 0.71358 0.0
H1809 H 0.58931 0.65481 0.73158 0.0
H1810 H 0.61193 0.58846 0.71398 0.0
H1811 H 0.64321 0.60513 0.69452 0.0
H1812 H 0.57195 0.59409 0.69784 0.0
H1813 H 0.60884 0.61203 0.77174 0.0
H1814 H 0.62644 0.63877 0.79927 0.0
H1815 H 0.56643 0.67766 0.79857 0.0
H1816 H 0.5486 0.65134 0.7708 0.0
H1817 H 0.50504 0.52093 0.76033 0.0
H1818 H 0.53706 0.54611 0.75514 0.0
H1819 H 0.49234 0.60103 0.74048 0.0
H1820 H 0.46027 0.57561 0.74465 0.0
H1821 H 0.53968 0.60594 0.77322 0.0
H1822 H 0.50385 0.59318 0.69905 0.0
H1823 H 0.48465 0.57003 0.66935 0.0
H1824 H 0.54104 0.52609 0.66817 0.0
H1825 H 0.56035 0.54873 0.69831 0.0
C1826 C 0.61999 0.65316 0.71432 0.0
C1827 C 0.63466 0.63939 0.70267 0.0
C1828 C 0.60156 0.64373 0.72461 0.0
C1829 C 0.59809 0.62035 0.72408 0.0
C1830 C 0.61412 0.60655 0.7144 0.0
C1831 C 0.63208 0.61601 0.70348 0.0
C1832 C 0.57658 0.61029 0.73062 0.0
C1833 C 0.56517 0.59652 0.71448 0.0
C1834 C 0.56689 0.61447 0.75179 0.0
C1835 C 0.57743 0.62977 0.7691 0.0
C1836 C 0.59942 0.62631 0.77742 0.0
C1837 C 0.60944 0.6414 0.79306 0.0
C1838 C 0.59757 0.65991 0.80065 0.0
C1839 C 0.57561 0.66332 0.79269 0.0
C1840 C 0.56553 0.6483 0.77703 0.0
C1841 C 0.50215 0.53848 0.75646 0.0
C1842 C 0.48043 0.54649 0.75286 0.0
C1843 C 0.52034 0.5528 0.75356 0.0
C1844 C 0.51693 0.57535 0.74755 0.0
C1845 C 0.4952 0.5837 0.74527 0.0
C1846 C 0.477 0.56922 0.74755 0.0
C1847 C 0.53607 0.58911 0.74083 0.0
C1848 C 0.54674 0.60362 0.7567 0.0
C1849 C 0.54494 0.58616 0.71921 0.0
C1850 C 0.53335 0.57237 0.70125 0.0
C1851 C 0.51199 0.57836 0.69274 0.0
C1852 C 0.50113 0.56539 0.67576 0.0
C1853 C 0.51157 0.54653 0.66696 0.0
C1854 C 0.53293 0.54064 0.67508 0.0
C1855 C 0.54383 0.55352 0.69214 0.0
H1856 H 0.50316 0.53653 0.65377 0.0
H1857 H 0.60536 0.6716 0.81271 0.0
H1858 H 0.39816 0.82769 0.7272 0.0
H1859 H 0.433 0.84116 0.74527 0.0
H1860 H 0.40483 0.90739 0.75162 0.0
H1861 H 0.37057 0.89412 0.73172 0.0
H1862 H 0.44125 0.91061 0.73127 0.0
H1863 H 0.42077 0.86925 0.79788 0.0
H1864 H 0.40806 0.83481 0.81646 0.0
H1865 H 0.46765 0.80089 0.79813 0.0
H1866 H 0.48026 0.83486 0.77837 0.0
H1867 H 0.52984 0.96198 0.79241 0.0
H1868 H 0.49591 0.93908 0.79194 0.0
H1869 H 0.5277 0.8887 0.7519 0.0
H1870 H 0.56142 0.91197 0.75164 0.0
H1871 H 0.49072 0.87637 0.79101 0.0
H1872 H 0.50678 0.91132 0.71877 0.0
H1873 H 0.51984 0.94259 0.69528 0.0
H1874 H 0.46946 0.98528 0.72131 0.0
H1875 H 0.4564 0.95437 0.7455 0.0
C1876 C 0.3991 0.84484 0.73348 0.0
C1877 C 0.38169 0.85983 0.72851 0.0
C1878 C 0.41908 0.8526 0.74375 0.0
C1879 C 0.42165 0.87534 0.74999 0.0
C1880 C 0.40334 0.88981 0.74692 0.0
C1881 C 0.38364 0.88219 0.73592 0.0
C1882 C 0.44402 0.88468 0.7568 0.0
C1883 C 0.45175 0.9033 0.7447 0.0
C1884 C 0.45836 0.8746 0.77354 0.0
C1885 C 0.45142 0.85462 0.78657 0.0
C1886 C 0.43117 0.85445 0.79778 0.0
C1887 C 0.42396 0.83497 0.80851 0.0
C1888 C 0.43711 0.81569 0.80869 0.0
C1889 C 0.4575 0.81585 0.79805 0.0
C1890 C 0.46466 0.8352 0.78701 0.0
C1891 C 0.52999 0.94558 0.78436 0.0
C1892 C 0.54822 0.93887 0.77176 0.0
C1893 C 0.51054 0.93256 0.78404 0.0
C1894 C 0.50931 0.91239 0.77167 0.0
C1895 C 0.52839 0.90429 0.76149 0.0
C1896 C 0.54764 0.91764 0.76125 0.0
C1897 C 0.48728 0.90232 0.76584 0.0
C1898 C 0.47983 0.88367 0.77791 0.0
C1899 C 0.47326 0.91199 0.74875 0.0
C1900 C 0.48097 0.93069 0.73434 0.0
C1901 C 0.49873 0.92749 0.71981 0.0
C1902 C 0.50607 0.94512 0.70631 0.0
C1903 C 0.49555 0.96596 0.70694 0.0
C1904 C 0.47762 0.96917 0.72099 0.0
C1905 C 0.47028 0.95161 0.73463 0.0
H1906 H 0.50121 0.9796 0.69645 0.0
H1907 H 0.43146 0.80062 0.81701 0.0
H1908 H 0.56229 0.83014 0.10203 0.0
H1909 H 0.55905 0.80897 0.1374 0.0
H1910 H 0.55245 0.87097 0.17458 0.0
H1911 H 0.55461 0.89217 0.13908 0.0
H1912 H 0.59306 0.82831 0.18258 0.0
H1913 H 0.51913 0.85721 0.1935 0.0
H1914 H 0.48142 0.86866 0.18025 0.0
H1915 H 0.46819 0.80199 0.15469 0.0
H1916 H 0.50596 0.79022 0.16773 0.0
H1917 H 0.56102 0.78879 0.29355 0.0
H1918 H 0.57359 0.80736 0.25946 0.0
H1919 H 0.54912 0.75133 0.21872 0.0
H1920 H 0.53677 0.73247 0.25307 0.0
H1921 H 0.52563 0.79343 0.21379 0.0
H1922 H 0.60201 0.76617 0.21642 0.0
H1923 H 0.639 0.7607 0.23528 0.0
H1924 H 0.6473 0.83211 0.24268 0.0
H1925 H 0.61022 0.83802 0.22421 0.0
C1926 C 0.55897 0.83913 0.11758 0.0
C1927 C 0.55821 0.86269 0.11783 0.0
C1928 C 0.55752 0.82709 0.13777 0.0
C1929 C 0.5557 0.83849 0.15849 0.0
C1930 C 0.55367 0.86193 0.15867 0.0
C1931 C 0.55455 0.87397 0.13836 0.0
C1932 C 0.55724 0.82563 0.17984 0.0
C1933 C 0.57836 0.82081 0.18966 0.0
C1934 C 0.53807 0.81619 0.18904 0.0
C1935 C 0.51545 0.82299 0.18111 0.0
C1936 C 0.50826 0.84509 0.18477 0.0
C1937 C 0.48685 0.8516 0.17743 0.0
C1938 C 0.47244 0.83608 0.16655 0.0
C1939 C 0.4794 0.814 0.16307 0.0
C1940 C 0.5008 0.80739 0.17045 0.0
C1941 C 0.55948 0.77988 0.27745 0.0
C1942 C 0.54767 0.75941 0.27571 0.0
C1943 C 0.56666 0.79053 0.25799 0.0
C1944 C 0.562 0.78083 0.2366 0.0
C1945 C 0.55284 0.75902 0.23517 0.0
C1946 C 0.54592 0.74818 0.25476 0.0
C1947 C 0.56152 0.79535 0.21631 0.0
C1948 C 0.54043 0.80069 0.20672 0.0
C1949 C 0.58073 0.80612 0.20827 0.0
C1950 C 0.60322 0.80252 0.21903 0.0
C1951 C 0.61164 0.78071 0.22221 0.0
C1952 C 0.63264 0.77753 0.23281 0.0
C1953 C 0.64547 0.79604 0.2402 0.0
C1954 C 0.63735 0.81778 0.23695 0.0
C1955 C 0.61635 0.82105 0.22638 0.0
H1956 H 0.66171 0.79354 0.24842 0.0
H1957 H 0.45586 0.84113 0.16087 0.0
H1958 H 0.17054 0.23188 0.10732 0.0
H1959 H 0.15536 0.25323 0.07472 0.0
H1960 H 0.08881 0.23281 0.09113 0.0
H1961 H 0.10399 0.21148 0.12357 0.0
H1962 H 0.10021 0.21784 0.05011 0.0
H1963 H 0.09894 0.28694 0.08971 0.0
H1964 H 0.11302 0.31783 0.11448 0.0
H1965 H 0.16398 0.33257 0.06749 0.0
H1966 H 0.15012 0.30177 0.04234 0.0
H1967 H 0.04348 0.29341 0.96762 0.0
H1968 H 0.06779 0.29317 0.0017 0.0
H1969 H 0.10799 0.24191 0.9719 0.0
H1970 H 0.08265 0.24087 0.93827 0.0
H1971 H 0.11007 0.29499 0.02014 0.0
H1972 H 0.11022 0.2036 -0.00202 0.0
H1973 H 0.08753 0.17534 0.97626 0.0
H1974 H 0.0276 0.20821 0.99525 0.0
H1975 H 0.04993 0.23679 0.01675 0.0
C1976 C 0.15263 0.23289 0.1045 0.0
C1977 C 0.13833 0.22028 0.11784 0.0
C1978 C 0.14397 0.24502 0.08591 0.0
C1979 C 0.121 0.24441 0.08046 0.0
C1980 C 0.10659 0.23343 0.09506 0.0
C1981 C 0.11523 0.22135 0.11358 0.0
C1982 C 0.11256 0.25131 0.05764 0.0
C1983 C 0.10252 0.23471 0.04361 0.0
C1984 C 0.11516 0.27337 0.04928 0.0
C1985 C 0.12364 0.29189 0.06426 0.0
C1986 C 0.11326 0.29665 0.08473 0.0
C1987 C 0.12115 0.31419 0.09881 0.0
C1988 C 0.13948 0.32706 0.09265 0.0
C1989 C 0.14982 0.32254 0.07227 0.0
C1990 C 0.14189 0.3051 0.05805 0.0
C1991 C 0.05798 0.28266 0.96791 0.0
C1992 C 0.0609 0.26674 0.95055 0.0
C1993 C 0.07192 0.28261 0.98745 0.0
C1994 C 0.08922 0.267 0.98961 0.0
C1995 C 0.09426 0.25362 0.97078 0.0
C1996 C 0.07989 0.25311 0.95152 0.0
C1997 C 0.09837 0.26132 0.01259 0.0
C1998 C 0.10833 0.27806 0.02663 0.0
C1999 C 0.09497 0.23958 0.02149 0.0
C2000 C 0.08167 0.22225 0.00885 0.0
C2001 C 0.0922 0.20469 -0.00245 0.0
C2002 C 0.07944 0.18872 0.9852 0.0
C2003 C 0.05618 0.19 0.98436 0.0
C2004 C 0.04561 0.20728 0.99584 0.0
C2005 C 0.0583 0.22341 0.00801 0.0
H2006 H 0.04635 0.17758 0.97485 0.0
H2007 H 0.14562 0.34057 0.10362 0.0
H2008 H 0.46474 0.60453 0.14389 0.0
H2009 H 0.46623 0.62603 0.17944 0.0
H2010 H 0.45305 0.68681 0.14159 0.0
H2011 H 0.45286 0.66551 0.10631 0.0
H2012 H 0.47214 0.69878 0.17726 0.0
H2013 H 0.4095 0.64929 0.16263 0.0
H2014 H 0.3885 0.61389 0.15624 0.0
H2015 H 0.41502 0.58818 0.2197 0.0
H2016 H 0.43615 0.62346 0.2265 0.0
H2017 H 0.43926 0.75559 0.27199 0.0
H2018 H 0.42852 0.73747 0.23573 0.0
H2019 H 0.44449 0.67278 0.26478 0.0
H2020 H 0.45272 0.6904 0.30124 0.0
H2021 H 0.41974 0.66521 0.23087 0.0
H2022 H 0.48704 0.71763 0.23971 0.0
H2023 H 0.50059 0.75662 0.24592 0.0
H2024 H 0.45833 0.77916 0.19022 0.0
H2025 H 0.44434 0.7405 0.18387 0.0
C2026 C 0.46387 0.6227 0.1431 0.0
C2027 C 0.45828 0.63336 0.12244 0.0
C2028 C 0.46393 0.63492 0.16351 0.0
C2029 C 0.45838 0.65786 0.16333 0.0
C2030 C 0.45685 0.66906 0.14237 0.0
C2031 C 0.4572 0.65691 0.12205 0.0
C2032 C 0.45196 0.66975 0.18442 0.0
C2033 C 0.46061 0.69137 0.18887 0.0
C2034 C 0.43647 0.66052 0.19951 0.0
C2035 C 0.4246 0.63891 0.19494 0.0
C2036 C 0.41105 0.63599 0.1751 0.0
C2037 C 0.39908 0.61596 0.17143 0.0
C2038 C 0.40051 0.59876 0.1875 0.0
C2039 C 0.41396 0.60151 0.20725 0.0
C2040 C 0.42591 0.62152 0.21104 0.0
C2041 C 0.43926 0.73741 0.27095 0.0
C2042 C 0.44795 0.72448 0.28911 0.0
C2043 C 0.4336 0.72706 0.25003 0.0
C2044 C 0.43746 0.70393 0.24698 0.0
C2045 C 0.44211 0.69075 0.26628 0.0
C2046 C 0.44689 0.70092 0.28727 0.0
C2047 C 0.44058 0.69379 0.22408 0.0
C2048 C 0.43128 0.67252 0.2192 0.0
C2049 C 0.45506 0.70349 0.20829 0.0
C2050 C 0.46467 0.72629 0.21136 0.0
C2051 C 0.48086 0.73091 0.22867 0.0
C2052 C 0.48861 0.75292 0.23219 0.0
C2053 C 0.48054 0.77029 0.21832 0.0
C2054 C 0.46474 0.76569 0.20081 0.0
C2055 C 0.45689 0.74376 0.19725 0.0
H2056 H 0.48635 0.78735 0.22124 0.0
H2057 H 0.39108 0.58337 0.18474 0.0
H2058 H 0.84349 0.30578 0.09891 0.0
H2059 H 0.86185 0.28518 0.06942 0.0
H2060 H 0.901 0.24957 0.12062 0.0
H2061 H 0.8837 0.27183 0.15026 0.0
H2062 H 0.92696 0.26584 0.09149 0.0
H2063 H 0.85977 0.22327 0.08266 0.0
H2064 H 0.81901 0.21773 0.07928 0.0
H2065 H 0.81643 0.25413 0.01647 0.0
H2066 H 0.85698 0.26061 0.01976 0.0
H2067 H 0.97902 0.22062 0.9933 0.0
H2068 H 0.95593 0.21977 0.02678 0.0
H2069 H 0.91701 0.27475 -0.0005 0.0
H2070 H 0.94018 0.27602 0.96628 0.0
H2071 H 0.89159 0.23741 0.01923 0.0
H2072 H 0.95368 0.28926 0.03521 0.0
H2073 H 0.99388 0.29825 0.03746 0.0
H2074 H 0.00487 0.24515 0.08572 0.0
H2075 H 0.96469 0.23568 0.0835 0.0
C2076 C 0.85553 0.29305 0.10389 0.0
C2077 C 0.86174 0.28989 0.12686 0.0
C2078 C 0.86592 0.28109 0.087 0.0
C2079 C 0.88249 0.26533 0.0927 0.0
C2080 C 0.888 0.26135 0.11579 0.0
C2081 C 0.8778 0.2737 0.13278 0.0
C2082 C 0.89595 0.25568 0.07442 0.0
C2083 C 0.91919 0.25889 0.07602 0.0
C2084 C 0.8859 0.24703 0.05393 0.0
C2085 C 0.86153 0.24242 0.05147 0.0
C2086 C 0.85054 0.23015 0.06814 0.0
C2087 C 0.82744 0.22687 0.06626 0.0
C2088 C 0.81518 0.23547 0.04764 0.0
C2089 C 0.82596 0.24741 0.03085 0.0
C2090 C 0.84901 0.2509 0.03272 0.0
C2091 C 0.96547 0.23245 0.99442 0.0
C2092 C 0.96152 0.24855 0.97733 0.0
C2093 C 0.95229 0.23187 0.01346 0.0
C2094 C 0.93476 0.24712 0.01545 0.0
C2095 C 0.93039 0.26275 -0.00188 0.0
C2096 C 0.94378 0.26362 0.97932 0.0
C2097 C 0.92208 0.24824 0.03639 0.0
C2098 C 0.89918 0.24349 0.03515 0.0
C2099 C 0.9323 0.25557 0.05715 0.0
C2100 C 0.95629 0.26162 0.05902 0.0
C2101 C 0.9647 0.27943 0.04621 0.0
C2102 C 0.98746 0.28462 0.04748 0.0
C2103 C 0.00194 0.27223 0.06167 0.0
C2104 C 0.99364 0.25471 0.07471 0.0
C2105 C 0.97088 0.24943 0.07346 0.0
H2106 H 0.01956 0.27624 0.0626 0.0
H2107 H 0.79731 0.23291 0.04624 0.0
H2108 H 0.54627 0.10197 0.35246 0.0
H2109 H 0.54343 0.12891 0.32122 0.0
H2110 H 0.53396 0.18251 0.36927 0.0
H2111 H 0.5378 0.15571 0.40063 0.0
H2112 H 0.50791 0.18083 0.32122 0.0
H2113 H 0.58197 0.17558 0.3608 0.0
H2114 H 0.61458 0.15345 0.37384 0.0
H2115 H 0.62495 0.13255 0.30518 0.0
H2116 H 0.59208 0.15412 0.29179 0.0
H2117 H 0.52395 0.26699 0.24822 0.0
H2118 H 0.52992 0.24813 0.28469 0.0
H2119 H 0.57284 0.20038 0.25294 0.0
H2120 H 0.56826 0.22049 0.21713 0.0
H2121 H 0.58321 0.19904 0.29426 0.0
H2122 H 0.51499 0.19282 0.25294 0.0
H2123 H 0.47869 0.2004 0.2335 0.0
H2124 H 0.45479 0.22936 0.29479 0.0
H2125 H 0.49104 0.22214 0.31456 0.0
C2126 C 0.54208 0.11924 0.35624 0.0
C2127 C 0.54213 0.12682 0.37888 0.0
C2128 C 0.54104 0.13468 0.33843 0.0
C2129 C 0.5392 0.15766 0.34316 0.0
C2130 C 0.5357 0.1648 0.36545 0.0
C2131 C 0.53733 0.14943 0.3833 0.0
C2132 C 0.5429 0.17441 0.3253 0.0
C2133 C 0.52437 0.18527 0.31562 0.0
C2134 C 0.56436 0.17893 0.31716 0.0
C2135 C 0.58435 0.16627 0.32533 0.0
C2136 C 0.59102 0.16606 0.34851 0.0
C2137 C 0.6096 0.15365 0.35596 0.0
C2138 C 0.62178 0.14154 0.34036 0.0
C2139 C 0.61547 0.14189 0.31726 0.0
C2140 C 0.59686 0.15421 0.30974 0.0
C2141 C 0.53615 0.25374 0.24957 0.0
C2142 C 0.54595 0.24545 0.23006 0.0
C2143 C 0.53903 0.24243 0.27025 0.0
C2144 C 0.55106 0.22222 0.27135 0.0
C2145 C 0.56327 0.21574 0.25258 0.0
C2146 C 0.56079 0.22737 0.2321 0.0
C2147 C 0.54807 0.20617 0.29034 0.0
C2148 C 0.56672 0.19518 0.30014 0.0
C2149 C 0.52653 0.20033 0.29762 0.0
C2150 C 0.50577 0.20715 0.28516 0.0
C2151 C 0.50212 0.20117 0.26216 0.0
C2152 C 0.4815 0.20521 0.25115 0.0
C2153 C 0.46438 0.2151 0.26301 0.0
C2154 C 0.46802 0.22153 0.28571 0.0
C2155 C 0.4886 0.21752 0.2968 0.0
H2156 H 0.4483 0.21791 0.25457 0.0
H2157 H 0.63615 0.13194 0.34616 0.0
H2158 H 0.32294 0.22911 0.89437 0.0
H2159 H 0.34385 0.24864 0.92438 0.0
H2160 H 0.39621 0.26286 0.87813 0.0
H2161 H 0.37622 0.24084 0.84886 0.0
H2162 H 0.41114 0.23759 0.90901 0.0
H2163 H 0.36711 0.30534 0.91413 0.0
H2164 H 0.33128 0.32541 0.91479 0.0
H2165 H 0.31469 0.28982 0.97522 0.0
H2166 H 0.35031 0.26946 0.97464 0.0
H2167 H 0.48327 0.277 -0.00084 0.0
H2168 H 0.45575 0.28062 0.96745 0.0
H2169 H 0.4107 0.23663 0.00166 0.0
H2170 H 0.43844 0.23228 0.03307 0.0
H2171 H 0.39292 0.28164 0.97749 0.0
H2172 H 0.42695 0.20911 0.96889 0.0
H2173 H 0.45927 0.18376 0.97031 0.0
H2174 H 0.49022 0.22281 0.91893 0.0
H2175 H 0.45816 0.24866 0.91753 0.0
C2176 C 0.33831 0.23759 0.89027 0.0
C2177 C 0.34794 0.23368 0.86935 0.0
C2178 C 0.3503 0.24897 0.90748 0.0
C2179 C 0.37177 0.25728 0.90367 0.0
C2180 C 0.37969 0.25658 0.88149 0.0
C2181 C 0.36803 0.24438 0.86451 0.0
C2182 C 0.38769 0.2607 0.92331 0.0
C2183 C 0.40736 0.24795 0.92356 0.0
C2184 C 0.38223 0.27286 0.9431 0.0
C2185 C 0.36135 0.28593 0.94424 0.0
C2186 C 0.35578 0.30187 0.92749 0.0
C2187 C 0.33552 0.31325 0.92786 0.0
C2188 C 0.3207 0.30888 0.94504 0.0
C2189 C 0.3262 0.29323 0.96195 0.0
C2190 C 0.34647 0.28183 0.96164 0.0
C2191 C 0.46749 0.26812 -0.00016 0.0
C2192 C 0.463 0.25407 0.0182 0.0
C2193 C 0.45179 0.27039 0.98195 0.0
C2194 C 0.43127 0.25909 0.98255 0.0
C2195 C 0.42643 0.24562 0.00119 0.0
C2196 C 0.44236 0.24287 0.01882 0.0
C2197 C 0.41612 0.2592 0.9624 0.0
C2198 C 0.39674 0.27214 0.96239 0.0
C2199 C 0.42129 0.24667 0.94302 0.0
C2200 C 0.44036 0.23097 0.94333 0.0
C2201 C 0.44075 0.2124 0.95805 0.0
C2202 C 0.45899 0.19793 0.95883 0.0
C2203 C 0.47684 0.20172 0.94478 0.0
C2204 C 0.47641 0.21994 0.92984 0.0
C2205 C 0.45821 0.23451 0.92905 0.0
H2206 H 0.49097 0.19051 0.94542 0.0
H2207 H 0.30496 0.31762 0.94525 0.0
H2208 H 0.44695 0.39988 0.34847 0.0
H2209 H 0.44882 0.37924 0.31248 0.0
H2210 H 0.45807 0.31739 0.34936 0.0
H2211 H 0.45471 0.33782 0.38541 0.0
H2212 H 0.48355 0.34109 0.29739 0.0
H2213 H 0.42115 0.30334 0.34007 0.0
H2214 H 0.38794 0.3076 0.36305 0.0
H2215 H 0.3586 0.35144 0.3126 0.0
H2216 H 0.39207 0.34805 0.28974 0.0
H2217 H 0.46544 0.24576 0.22861 0.0
H2218 H 0.45725 0.26699 0.26287 0.0
H2219 H 0.43128 0.321 0.2214 0.0
H2220 H 0.44051 0.30003 0.187 0.0
H2221 H 0.41182 0.30398 0.27391 0.0
H2222 H 0.46909 0.33807 0.2284 0.0
H2223 H 0.50173 0.33726 0.20437 0.0
H2224 H 0.54041 0.30628 0.25842 0.0
H2225 H 0.50748 0.30547 0.2822 0.0
C2226 C 0.45042 0.38203 0.34892 0.0
C2227 C 0.45105 0.37045 0.36971 0.0
C2228 C 0.45107 0.37022 0.32835 0.0
C2229 C 0.45281 0.34674 0.32833 0.0
C2230 C 0.45603 0.33546 0.34908 0.0
C2231 C 0.45468 0.34717 0.36966 0.0
C2232 C 0.44997 0.33398 0.30671 0.0
C2233 C 0.46794 0.33285 0.29232 0.0
C2234 C 0.42934 0.3239 0.29977 0.0
C2235 C 0.40933 0.32592 0.31353 0.0
C2236 C 0.40783 0.31426 0.33412 0.0
C2237 C 0.38893 0.31645 0.34708 0.0
C2238 C 0.37125 0.32991 0.33937 0.0
C2239 C 0.37239 0.34116 0.31864 0.0
C2240 C 0.39136 0.33918 0.30573 0.0
C2241 C 0.45663 0.26146 0.22682 0.0
C2242 C 0.45328 0.27103 0.20523 0.0
C2243 C 0.45232 0.27378 0.24639 0.0
C2244 C 0.44406 0.29568 0.24462 0.0
C2245 C 0.43785 0.30416 0.22307 0.0
C2246 C 0.44283 0.29206 0.20343 0.0
C2247 C 0.44563 0.31059 0.26486 0.0
C2248 C 0.42744 0.3122 0.27896 0.0
C2249 C 0.466 0.32142 0.27141 0.0
C2250 C 0.48559 0.32107 0.25682 0.0
C2251 C 0.48431 0.33038 0.23489 0.0
C2252 C 0.5029 0.33027 0.22133 0.0
C2253 C 0.52308 0.32149 0.22977 0.0
C2254 C 0.5247 0.31286 0.25181 0.0
C2255 C 0.50601 0.31246 0.26525 0.0
H2256 H 0.5375 0.32153 0.21931 0.0
H2257 H 0.35662 0.33153 0.3494 0.0
H2258 H 0.65793 0.27169 0.88118 0.0
H2259 H 0.64596 0.25059 0.91431 0.0
H2260 H 0.58117 0.2814 0.90768 0.0
H2261 H 0.59339 0.30313 0.87534 0.0
H2262 H 0.59952 0.29048 0.94721 0.0
H2263 H 0.58961 0.22397 0.90147 0.0
H2264 H 0.60073 0.19415 0.87509 0.0
H2265 H 0.65183 0.17296 0.92326 0.0
H2266 H 0.64129 0.20291 0.94979 0.0
H2267 H 0.54113 0.21324 0.02353 0.0
H2268 H 0.56214 0.2154 0.98904 0.0
H2269 H 0.61061 0.25852 0.02349 0.0
H2270 H 0.58873 0.25782 0.05782 0.0
H2271 H 0.60344 0.21066 0.97095 0.0
H2272 H 0.61746 0.29605 0.00271 0.0
H2273 H 0.60164 0.32534 0.02708 0.0
H2274 H 0.53567 0.30805 0.00153 0.0
H2275 H 0.55115 0.27827 0.97752 0.0
C2276 C 0.64092 0.27336 0.88641 0.0
C2277 C 0.62666 0.28928 0.87606 0.0
C2278 C 0.63408 0.26128 0.90531 0.0
C2279 C 0.61277 0.26466 0.91369 0.0
C2280 C 0.5978 0.27877 0.90172 0.0
C2281 C 0.60476 0.29114 0.88322 0.0
C2282 C 0.60713 0.2567 0.93664 0.0
C2283 C 0.6005 0.27298 0.95226 0.0
C2284 C 0.60851 0.23393 0.94346 0.0
C2285 C 0.61481 0.21587 0.92754 0.0
C2286 C 0.60336 0.2131 0.90637 0.0
C2287 C 0.60954 0.19615 0.89139 0.0
C2288 C 0.62702 0.18172 0.89748 0.0
C2289 C 0.63832 0.18418 0.91856 0.0
C2290 C 0.63225 0.20113 0.93358 0.0
C2291 C 0.55674 0.22253 0.0241 0.0
C2292 C 0.56317 0.23566 0.04324 0.0
C2293 C 0.56874 0.22374 0.0043 0.0
C2294 C 0.58758 0.2377 0.00354 0.0
C2295 C 0.59573 0.24823 0.02364 0.0
C2296 C 0.58335 0.24768 0.04325 0.0
C2297 C 0.59592 0.24449 0.98116 0.0
C2298 C 0.60295 0.22813 0.96576 0.0
C2299 C 0.59464 0.26715 0.97416 0.0
C2300 C 0.58539 0.2849 0.98859 0.0
C2301 C 0.59958 0.29852 0.00238 0.0
C2302 C 0.59068 0.31511 0.01619 0.0
C2303 C 0.56766 0.31852 0.01589 0.0
C2304 C 0.55348 0.30529 0.00186 0.0
C2305 C 0.56229 0.28847 0.98828 0.0
H2306 H 0.5608 0.33145 0.02649 0.0
H2307 H 0.63176 0.16859 0.88589 0.0
H2308 H 0.15195 0.54873 0.90151 0.0
H2309 H 0.18521 0.544 0.87901 0.0
H2310 H 0.1474 0.56387 0.81865 0.0
H2311 H 0.11436 0.56866 0.84112 0.0
H2312 H 0.17645 0.5314 0.80919 0.0
H2313 H 0.17845 0.60143 0.85058 0.0
H2314 H 0.17893 0.62584 0.88455 0.0
H2315 H 0.2392 0.59465 0.90981 0.0
H2316 H 0.23888 0.56975 0.87619 0.0
H2317 H 0.27061 0.54819 0.74265 0.0
H2318 H 0.23605 0.5572 0.76147 0.0
H2319 H 0.27021 0.55027 0.8268 0.0
H2320 H 0.30491 0.54323 0.80834 0.0
H2321 H 0.24162 0.57896 0.83249 0.0
H2322 H 0.22992 0.501 0.80223 0.0
H2323 H 0.22601 0.47107 0.77333 0.0
H2324 H 0.18628 0.5144 0.7302 0.0
H2325 H 0.18893 0.54419 0.75959 0.0
C2326 C 0.1505 0.55089 0.88324 0.0
C2327 C 0.13045 0.55852 0.87294 0.0
C2328 C 0.16964 0.54873 0.87048 0.0
C2329 C 0.16898 0.55415 0.8472 0.0
C2330 C 0.14842 0.55975 0.83657 0.0
C2331 C 0.12941 0.5621 0.84935 0.0
C2332 C 0.18969 0.55506 0.834 0.0
C2333 C 0.19058 0.54205 0.81418 0.0
C2334 C 0.20838 0.56863 0.84063 0.0
C2335 C 0.20846 0.58349 0.86097 0.0
C2336 C 0.19167 0.59959 0.86349 0.0
C2337 C 0.19194 0.61355 0.88267 0.0
C2338 C 0.20904 0.61174 0.89937 0.0
C2339 C 0.22593 0.59599 0.8969 0.0
C2340 C 0.2257 0.58194 0.87779 0.0
C2341 C 0.27098 0.54962 0.76101 0.0
C2342 C 0.29061 0.54481 0.77392 0.0
C2343 C 0.251 0.55418 0.77184 0.0
C2344 C 0.25016 0.55363 0.79575 0.0
C2345 C 0.27021 0.5508 0.80846 0.0
C2346 C 0.29016 0.54676 0.79776 0.0
C2347 C 0.22863 0.55484 0.80783 0.0
C2348 C 0.22747 0.56839 0.82742 0.0
C2349 C 0.20977 0.5415 0.80132 0.0
C2350 C 0.21006 0.52486 0.78275 0.0
C2351 C 0.22069 0.50421 0.7864 0.0
C2352 C 0.21856 0.48724 0.77 0.0
C2353 C 0.20628 0.49094 0.7497 0.0
C2354 C 0.19592 0.5116 0.74584 0.0
C2355 C 0.19756 0.52846 0.76244 0.0
H2356 H 0.20449 0.4777 0.73713 0.0
H2357 H 0.20923 0.62259 0.91419 0.0
H2358 H 0.78515 0.61378 0.32941 0.0
H2359 H 0.77848 0.57817 0.34802 0.0
H2360 H 0.76372 0.61356 0.40982 0.0
H2361 H 0.77249 0.64917 0.39155 0.0
H2362 H 0.79902 0.58878 0.41592 0.0
H2363 H 0.72597 0.57449 0.37615 0.0
H2364 H 0.70262 0.57028 0.34088 0.0
H2365 H 0.74556 0.51822 0.31784 0.0
H2366 H 0.76926 0.52227 0.35283 0.0
H2367 H 0.77475 0.50322 0.4922 0.0
H2368 H 0.77831 0.53526 0.46667 0.0
H2369 H 0.78851 0.48981 0.4106 0.0
H2370 H 0.7836 0.45783 0.43602 0.0
H2371 H 0.75947 0.51722 0.39766 0.0
H2372 H 0.83039 0.52638 0.43242 0.0
H2373 H 0.85992 0.52896 0.46265 0.0
H2374 H 0.82989 0.58837 0.48906 0.0
H2375 H 0.79993 0.58595 0.45923 0.0
C2376 C 0.77911 0.61398 0.34653 0.0
C2377 C 0.77946 0.63397 0.35923 0.0
C2378 C 0.77539 0.59354 0.35725 0.0
C2379 C 0.7709 0.59313 0.38046 0.0
C2380 C 0.76747 0.61351 0.39196 0.0
C2381 C 0.77207 0.63387 0.38147 0.0
C2382 C 0.77435 0.57233 0.39381 0.0
C2383 C 0.78995 0.57326 0.41227 0.0
C2384 C 0.76419 0.55155 0.38772 0.0
C2385 C 0.74941 0.54875 0.36708 0.0
C2386 C 0.73044 0.56218 0.36354 0.0
C2387 C 0.71715 0.55982 0.34359 0.0
C2388 C 0.72261 0.54401 0.32712 0.0
C2389 C 0.74132 0.53045 0.33061 0.0
C2390 C 0.75465 0.53273 0.35051 0.0
C2391 C 0.77837 0.50025 0.47455 0.0
C2392 C 0.77913 0.47836 0.4659 0.0
C2393 C 0.78045 0.51847 0.45997 0.0
C2394 C 0.78384 0.51496 0.4367 0.0
C2395 C 0.78582 0.49293 0.42842 0.0
C2396 C 0.78321 0.47474 0.44291 0.0
C2397 C 0.78296 0.53413 0.42077 0.0
C2398 C 0.76834 0.5328 0.40154 0.0
C2399 C 0.79478 0.55432 0.42553 0.0
C2400 C 0.81276 0.55586 0.44364 0.0
C2401 C 0.82994 0.53989 0.44478 0.0
C2402 C 0.84679 0.54134 0.46184 0.0
C2403 C 0.84675 0.55879 0.47779 0.0
C2404 C 0.82988 0.57485 0.47669 0.0
C2405 C 0.81297 0.57346 0.45969 0.0
H2406 H 0.85982 0.55989 0.49097 0.0
H2407 H 0.71234 0.54226 0.31167 0.0
H2408 H 0.89827 0.95006 0.8309 0.0
H2409 H 0.86294 0.95057 0.80887 0.0
H2410 H 0.8271 0.9502 0.87094 0.0
H2411 H 0.8626 0.95016 0.89315 0.0
H2412 H 0.81519 0.91446 0.83791 0.0
H2413 H 0.82158 0.99349 0.84417 0.0
H2414 H 0.84055 0.03031 0.84345 0.0
H2415 H 0.85071 0.02231 0.77207 0.0
H2416 H 0.83217 0.98516 0.77246 0.0
H2417 H 0.70847 0.93692 0.78756 0.0
H2418 H 0.74316 0.92781 0.80759 0.0
H2419 H 0.77945 0.94713 0.74872 0.0
H2420 H 0.74433 0.95793 0.7292 0.0
H2421 H 0.79114 0.97242 0.78201 0.0
H2422 H 0.7816 0.89139 0.77757 0.0
H2423 H 0.76092 0.85571 0.78135 0.0
H2424 H 0.75355 0.86893 0.85242 0.0
H2425 H 0.77392 0.9048 0.84902 0.0
C2426 C 0.88288 0.95137 0.83982 0.0
C2427 C 0.88312 0.95064 0.86366 0.0
C2428 C 0.86274 0.95121 0.82726 0.0
C2429 C 0.84253 0.95019 0.83835 0.0
C2430 C 0.84262 0.95088 0.86217 0.0
C2431 C 0.86286 0.95139 0.8748 0.0
C2432 C 0.82154 0.94748 0.82469 0.0
C2433 C 0.80965 0.92715 0.82579 0.0
C2434 C 0.8147 0.96397 0.80885 0.0
C2435 C 0.82569 0.98641 0.8084 0.0
C2436 C 0.82805 -0.00054 0.82836 0.0
C2437 C 0.8387 0.02041 0.82801 0.0
C2438 C 0.8469 0.02861 0.80774 0.0
C2439 C 0.84439 0.0159 0.78776 0.0
C2440 C 0.8338 0.99489 0.78804 0.0
C2441 C 0.72378 0.93809 0.77846 0.0
C2442 C 0.72389 0.94837 0.75703 0.0
C2443 C 0.74373 0.93278 0.78995 0.0
C2444 C 0.7641 0.93695 0.77983 0.0
C2445 C 0.76393 0.94397 0.75697 0.0
C2446 C 0.74387 0.94983 0.74563 0.0
C2447 C 0.78483 0.93891 0.79439 0.0
C2448 C 0.79667 0.95938 0.79372 0.0
C2449 C 0.79125 0.92264 0.81091 0.0
C2450 C 0.77925 0.90086 0.81299 0.0
C2451 C 0.77548 0.88675 0.79398 0.0
C2452 C 0.76381 0.86648 0.79606 0.0
C2453 C 0.7559 0.86008 0.8171 0.0
C2454 C 0.75966 0.87391 0.83612 0.0
C2455 C 0.7713 0.8942 0.83413 0.0
H2456 H 0.74687 0.84438 0.81868 0.0
H2457 H 0.85516 0.04484 0.8075 0.0
H2458 H 0.1885 0.90881 0.332 0.0
H2459 H 0.21324 0.93978 0.34351 0.0
H2460 H 0.25586 0.89367 0.38093 0.0
H2461 H 0.23114 0.86222 0.3688 0.0
H2462 H 0.23675 0.9283 0.40693 0.0
H2463 H 0.27846 0.92213 0.34021 0.0
H2464 H 0.28423 0.91784 0.2992 0.0
H2465 H 0.25037 0.98002 0.28602 0.0
H2466 H 0.24408 0.98456 0.32691 0.0
H2467 H 0.29013 0.02415 0.45214 0.0
H2468 H 0.28995 0.99122 0.42722 0.0
H2469 H 0.23447 0.01832 0.38775 0.0
H2470 H 0.23399 0.05105 0.41318 0.0
H2471 H 0.26907 0.99052 0.36263 0.0
H2472 H 0.21728 0.99059 0.42316 0.0
H2473 H 0.20598 0.99588 0.46262 0.0
H2474 H 0.25252 0.94548 0.48531 0.0
H2475 H 0.26446 0.94028 0.44594 0.0
C2476 C 0.20346 0.9052 0.3422 0.0
C2477 C 0.20783 0.88331 0.34985 0.0
C2478 C 0.2177 0.92286 0.34857 0.0
C2479 C 0.2364 0.919 0.36299 0.0
C2480 C 0.24157 0.8969 0.36963 0.0
C2481 C 0.22748 0.87903 0.36278 0.0
C2482 C 0.24768 0.93855 0.37409 0.0
C2483 C 0.24459 0.94156 0.39739 0.0
C2484 C 0.25691 0.95622 0.36136 0.0
C2485 C 0.26074 0.95365 0.3367 0.0
C2486 C 0.2721 0.93483 0.32857 0.0
C2487 C 0.27549 0.93236 0.30533 0.0
C2488 C 0.26766 0.94864 0.29001 0.0
C2489 C 0.25645 0.96744 0.29791 0.0
C2490 C 0.25301 0.96999 0.32113 0.0
C2491 C 0.27847 0.02358 0.43761 0.0
C2492 C 0.26191 0.04003 0.4347 0.0
C2493 C 0.27837 0.00472 0.42344 0.0
C2494 C 0.26209 0.00234 0.40585 0.0
C2495 C 0.24719 0.01996 0.40125 0.0
C2496 C 0.24689 0.03858 0.41579 0.0
C2497 C 0.25795 0.98009 0.39526 0.0
C2498 C 0.26209 0.97682 0.37221 0.0
C2499 C 0.24905 0.96227 0.40799 0.0
C2500 C 0.24217 0.96546 0.43172 0.0
C2501 C 0.2254 0.98093 0.43662 0.0
C2502 C 0.2188 0.98384 0.45894 0.0
C2503 C 0.22865 0.97116 0.47649 0.0
C2504 C 0.24502 0.95541 0.47171 0.0
C2505 C 0.25174 0.9525 0.4494 0.0
H2506 H 0.22354 0.97349 0.49376 0.0
H2507 H 0.2703 0.9467 0.27203 0.0
H2508 H 0.11369 0.40565 0.65706 0.0
H2509 H 0.14542 0.42022 0.68044 0.0
H2510 H 0.18383 0.42673 0.62043 0.0
H2511 H 0.15165 0.41355 0.59688 0.0
H2512 H 0.19495 0.39216 0.66317 0.0
H2513 H 0.18889 0.46709 0.63537 0.0
H2514 H 0.17123 0.50319 0.62548 0.0
H2515 H 0.15557 0.51346 0.69529 0.0
H2516 H 0.17278 0.47713 0.70552 0.0
H2517 H 0.29922 0.4359 0.70665 0.0
H2518 H 0.2657 0.42146 0.68692 0.0
H2519 H 0.22648 0.44261 0.74287 0.0
H2520 H 0.26047 0.45769 0.76263 0.0
H2521 H 0.21593 0.4642 0.7011 0.0
H2522 H 0.22737 0.38756 0.72762 0.0
H2523 H 0.25015 0.35365 0.73391 0.0
H2524 H 0.26038 0.3488 0.66227 0.0
H2525 H 0.23781 0.38278 0.65557 0.0
C2526 C 0.12857 0.41124 0.64885 0.0
C2527 C 0.13039 0.40871 0.62533 0.0
C2528 C 0.14662 0.41948 0.66213 0.0
C2529 C 0.16679 0.42462 0.65206 0.0
C2530 C 0.16823 0.42318 0.62838 0.0
C2531 C 0.14993 0.41561 0.61501 0.0
C2532 C 0.18712 0.42725 0.66664 0.0
C2533 C 0.19965 0.40792 0.67145 0.0
C2534 C 0.19301 0.4478 0.67731 0.0
C2535 C 0.1817 0.46913 0.67113 0.0
C2536 C 0.18126 0.47679 0.64854 0.0
C2537 C 0.17146 0.49738 0.64289 0.0
C2538 C 0.16217 0.51056 0.65973 0.0
C2539 C 0.16269 0.50318 0.68225 0.0
C2540 C 0.17246 0.48259 0.68798 0.0
C2541 C 0.28357 0.43658 0.71519 0.0
C2542 C 0.2821 0.44819 0.7359 0.0
C2543 C 0.26442 0.42835 0.70389 0.0
C2544 C 0.24359 0.43146 0.71328 0.0
C2545 C 0.24246 0.44053 0.73528 0.0
C2546 C 0.26175 0.44882 0.74665 0.0
C2547 C 0.22324 0.42887 0.69855 0.0
C2548 C 0.21086 0.44829 0.6934 0.0
C2549 C 0.21783 0.40851 0.68713 0.0
C2550 C 0.23096 0.38777 0.69112 0.0
C2551 C 0.23454 0.3793 0.71322 0.0
C2552 C 0.2474 0.36006 0.71686 0.0
C2553 C 0.25673 0.34909 0.69851 0.0
C2554 C 0.25313 0.35729 0.67647 0.0
C2555 C 0.24025 0.3765 0.67274 0.0
H2556 H 0.26674 0.33424 0.70137 0.0
H2557 H 0.15465 0.52652 0.65534 0.0
H2558 H 0.72371 0.64543 0.59427 0.0
H2559 H 0.7288 0.60689 0.58036 0.0
H2560 H 0.69587 0.58176 0.63935 0.0
H2561 H 0.69467 0.61928 0.6546 0.0
H2562 H 0.71705 0.55221 0.6299 0.0
H2563 H 0.66987 0.5956 0.57949 0.0
H2564 H 0.66087 0.62755 0.55422 0.0
H2565 H 0.7117 0.60706 0.50935 0.0
H2566 H 0.72116 0.57513 0.53448 0.0
H2567 H 0.68948 0.45987 0.53605 0.0
H2568 H 0.67797 0.49496 0.55483 0.0
H2569 H 0.74469 0.50355 0.58363 0.0
H2570 H 0.756 0.46926 0.56593 0.0
H2571 H 0.69798 0.53927 0.54816 0.0
H2572 H 0.74122 0.51881 0.63761 0.0
H2573 H 0.7384 0.49125 0.66854 0.0
H2574 H 0.67588 0.46738 0.63943 0.0
H2575 H 0.67812 0.49502 0.60851 0.0
C2576 C 0.71899 0.63138 0.60473 0.0
C2577 C 0.70915 0.63509 0.62558 0.0
C2578 C 0.72112 0.6094 0.59648 0.0
C2579 C 0.71167 0.59119 0.60809 0.0
C2580 C 0.7034 0.59511 0.62977 0.0
C2581 C 0.70282 0.61672 0.63868 0.0
C2582 C 0.70929 0.56827 0.59776 0.0
C2583 C 0.71253 0.54965 0.61206 0.0
C2584 C 0.70257 0.56443 0.57459 0.0
C2585 C 0.6963 0.58305 0.55893 0.0
C2586 C 0.6791 0.5979 0.56421 0.0
C2587 C 0.67395 0.61603 0.54994 0.0
C2588 C 0.68573 0.61935 0.53022 0.0
C2589 C 0.70259 0.60447 0.52464 0.0
C2590 C 0.70783 0.58633 0.53887 0.0
C2591 C 0.70145 0.46904 0.54686 0.0
C2592 C 0.72358 0.46151 0.54965 0.0
C2593 C 0.69493 0.48911 0.55738 0.0
C2594 C 0.71051 0.50173 0.57067 0.0
C2595 C 0.73228 0.49385 0.57385 0.0
C2596 C 0.73867 0.474 0.56371 0.0
C2597 C 0.70543 0.52387 0.5806 0.0
C2598 C 0.70148 0.54225 0.56615 0.0
C2599 C 0.70962 0.52767 0.60404 0.0
C2600 C 0.70984 0.50905 0.62075 0.0
C2601 C 0.72691 0.50762 0.63775 0.0
C2602 C 0.72531 0.49212 0.65539 0.0
C2603 C 0.70674 0.4779 0.65619 0.0
C2604 C 0.69011 0.47862 0.63893 0.0
C2605 C 0.6916 0.49412 0.62127 0.0
H2606 H 0.70546 0.46602 0.66996 0.0
H2607 H 0.68178 0.63343 0.51924 0.0
H2608 H 0.88134 0.09939 0.64602 0.0
H2609 H 0.84781 0.09236 0.66702 0.0
H2610 H 0.83831 0.02894 0.63209 0.0
H2611 H 0.87208 0.03605 0.61075 0.0
H2612 H 0.80114 0.05493 0.62956 0.0
H2613 H 0.85225 0.03089 0.68923 0.0
H2614 H 0.88478 0.03421 0.71601 0.0
H2615 H 0.85669 0.09302 0.7458 0.0
H2616 H 0.8241 0.09021 0.71903 0.0
H2617 H 0.71029 0.01419 0.686 0.0
H2618 H 0.74424 0.02345 0.66854 0.0
H2619 H 0.75719 0.07625 0.71789 0.0
H2620 H 0.72334 0.0651 0.73755 0.0
H2621 H 0.79316 0.05771 0.71305 0.0
H2622 H 0.74699 0.0871 0.64875 0.0
H2623 H 0.71731 0.08746 0.61842 0.0
H2624 H 0.73629 0.02155 0.59686 0.0
H2625 H 0.76683 0.02136 0.62622 0.0
C2626 C 0.87229 0.08378 0.64298 0.0
C2627 C 0.87923 0.06836 0.62655 0.0
C2628 C 0.85318 0.07971 0.65518 0.0
C2629 C 0.8405 0.06009 0.65127 0.0
C2630 C 0.84785 0.0442 0.63545 0.0
C2631 C 0.86718 0.0482 0.62334 0.0
C2632 C 0.81858 0.05731 0.66208 0.0
C2633 C 0.79942 0.05521 0.64785 0.0
C2634 C 0.81618 0.05869 0.6859 0.0
C2635 C 0.8358 0.06044 0.70198 0.0
C2636 C 0.85309 0.04464 0.70137 0.0
C2637 C 0.87152 0.0464 0.71658 0.0
C2638 C 0.87283 0.06384 0.73256 0.0
C2639 C 0.85567 0.07953 0.7334 0.0
C2640 C 0.8372 0.07784 0.71823 0.0
C2641 C 0.71984 0.02821 0.69316 0.0
C2642 C 0.7136 0.03904 0.71331 0.0
C2643 C 0.73946 0.03379 0.68265 0.0
C2644 C 0.7533 0.05122 0.69105 0.0
C2645 C 0.74683 0.06281 0.71075 0.0
C2646 C 0.72733 0.0566 0.72194 0.0
C2647 C 0.77538 0.05535 0.6805 0.0
C2648 C 0.7947 0.05765 0.69476 0.0
C2649 C 0.778 0.05455 0.65659 0.0
C2650 C 0.7589 0.05408 0.63987 0.0
C2651 C 0.74472 0.07266 0.63761 0.0
C2652 C 0.72795 0.07294 0.62042 0.0
C2653 C 0.72475 0.05445 0.6059 0.0
C2654 C 0.73868 0.03582 0.60819 0.0
C2655 C 0.7559 0.03574 0.62489 0.0
H2656 H 0.71154 0.0546 0.59284 0.0
H2657 H 0.8871 0.06517 0.74433 0.0
H2658 H 0.31679 0.88566 0.61266 0.0
H2659 H 0.29387 0.91784 0.60228 0.0
H2660 H 0.25209 0.90507 0.6588 0.0
H2661 H 0.27561 0.87301 0.66997 0.0
H2662 H 0.23457 0.91674 0.60451 0.0
H2663 H 0.27095 0.94356 0.67319 0.0
H2664 H 0.30226 0.94669 0.70148 0.0
H2665 H 0.34319 0.97642 0.65137 0.0
H2666 H 0.31233 0.97302 0.62264 0.0
H2667 H 0.21351 0.02059 0.54605 0.0
H2668 H 0.21367 0.99359 0.57722 0.0
H2669 H 0.28506 0.98746 0.57378 0.0
H2670 H 0.28514 0.01489 0.54316 0.0
H2671 H 0.274 0.98961 0.61664 0.0
H2672 H 0.24795 0.9462 0.54884 0.0
H2673 H 0.22212 0.93732 0.51629 0.0
H2674 H 0.16707 0.93635 0.56068 0.0
H2675 H 0.19268 0.94491 0.59354 0.0
C2676 C 0.30254 0.88941 0.62272 0.0
C2677 C 0.29797 0.87683 0.6421 0.0
C2678 C 0.28954 0.90781 0.61682 0.0
C2679 C 0.27168 0.91388 0.63008 0.0
C2680 C 0.26601 0.90059 0.64858 0.0
C2681 C 0.27924 0.88215 0.65469 0.0
C2682 C 0.25991 0.93468 0.62417 0.0
C2683 C 0.2424 0.93299 0.60785 0.0
C2684 C 0.27062 0.95559 0.62838 0.0
C2685 C 0.28925 0.95797 0.64571 0.0
C2686 C 0.28667 0.9506 0.66813 0.0
C2687 C 0.30435 0.95244 0.68427 0.0
C2688 C 0.3247 0.96174 0.67822 0.0
C2689 C 0.3274 0.96924 0.65604 0.0
C2690 C 0.3098 0.96739 0.63983 0.0
C2691 C 0.22924 0.01337 0.55184 0.0
C2692 C 0.24933 0.01975 0.54203 0.0
C2693 C 0.22928 0.99803 0.56972 0.0
C2694 C 0.24935 0.98853 0.57783 0.0
C2695 C 0.26938 0.9948 0.56797 0.0
C2696 C 0.2694 0.01031 0.55031 0.0
C2697 C 0.2498 0.9712 0.59576 0.0
C2698 C 0.26512 0.97378 0.61426 0.0
C2699 C 0.23754 0.95089 0.59319 0.0
C2700 C 0.22209 0.94651 0.57348 0.0
C2701 C 0.2303 0.94428 0.55157 0.0
C2702 C 0.21573 0.93925 0.53311 0.0
C2703 C 0.19294 0.93649 0.53637 0.0
C2704 C 0.1847 0.9386 0.55816 0.0
C2705 C 0.19923 0.94347 0.57671 0.0
H2706 H 0.1817 0.9326 0.52204 0.0
H2707 H 0.33836 0.96316 0.69073 0.0
H2708 H 0.91075 0.14353 0.52963 0.0
H2709 H 0.89745 0.17253 0.50269 0.0
H2710 H 0.82994 0.16015 0.52215 0.0
H2711 H 0.8432 0.13173 0.54913 0.0
H2712 H 0.83176 0.16842 0.47696 0.0
H2713 H 0.86242 0.19942 0.54814 0.0
H2714 H 0.89121 0.20958 0.57751 0.0
H2715 H 0.92803 0.24524 0.52785 0.0
H2716 H 0.89965 0.2349 0.49806 0.0
H2717 H 0.77532 0.26789 0.50927 0.0
H2718 H 0.8002 0.23576 0.50862 0.0
H2719 H 0.82773 0.25987 0.44677 0.0
H2720 H 0.80338 0.2933 0.44806 0.0
H2721 H 0.85438 0.24606 0.49878 0.0
H2722 H 0.81369 0.2226 0.43115 0.0
H2723 H 0.78112 0.21383 0.40582 0.0
H2724 H 0.75936 0.164 0.45274 0.0
H2725 H 0.79125 0.17307 0.47881 0.0
C2726 C 0.89301 0.14648 0.52744 0.0
C2727 C 0.87793 0.13534 0.54129 0.0
C2728 C 0.88546 0.16321 0.51228 0.0
C2729 C 0.86272 0.16875 0.5106 0.0
C2730 C 0.84755 0.15623 0.52311 0.0
C2731 C 0.8551 0.13989 0.53845 0.0
C2732 C 0.85442 0.18865 0.49762 0.0
C2733 C 0.83679 0.18545 0.48153 0.0
C2734 C 0.86151 0.21086 0.50309 0.0
C2735 C 0.87919 0.2159 0.52074 0.0
C2736 C 0.87688 0.20902 0.54337 0.0
C2737 C 0.89307 0.21492 0.56013 0.0
C2738 C 0.91152 0.22791 0.55452 0.0
C2739 C 0.91382 0.23503 0.53214 0.0
C2740 C 0.89772 0.22911 0.51531 0.0
C2741 C 0.78616 0.26603 0.49509 0.0
C2742 C 0.78698 0.28268 0.47831 0.0
C2743 C 0.80025 0.24758 0.49469 0.0
C2744 C 0.81498 0.24478 0.47709 0.0
C2745 C 0.81584 0.26128 0.46004 0.0
C2746 C 0.80189 0.28023 0.46067 0.0
C2747 C 0.83093 0.22584 0.47897 0.0
C2748 C 0.84994 0.22911 0.4933 0.0
C2749 C 0.82464 0.20367 0.47241 0.0
C2750 C 0.80482 0.19884 0.45716 0.0
C2751 C 0.80174 0.21014 0.43635 0.0
C2752 C 0.78341 0.20502 0.42178 0.0
C2753 C 0.76816 0.18839 0.42767 0.0
C2754 C 0.7712 0.17684 0.44816 0.0
C2755 C 0.78939 0.18203 0.46286 0.0
H2756 H 0.75401 0.18444 0.41636 0.0
H2757 H 0.92395 0.23259 0.56754 0.0
H2758 H 0.88608 0.86054 0.91259 0.0
H2759 H 0.86282 0.82755 0.91452 0.0
H2760 H 0.82807 0.8578 0.96939 0.0
H2761 H 0.85133 0.8921 0.96653 0.0
H2762 H 0.84235 0.80802 0.97262 0.0
H2763 H 0.80572 0.86201 0.91988 0.0
H2764 H 0.80545 0.88548 0.8854 0.0
H2765 H 0.81703 0.82717 0.84448 0.0
H2766 H 0.81781 0.80339 0.87873 0.0
H2767 H 0.7496 0.74443 0.98502 0.0
H2768 H 0.77075 0.77819 0.97616 0.0
H2769 H 0.78893 0.74842 0.91264 0.0
H2770 H 0.76716 0.71459 0.92141 0.0
H2771 H 0.78595 0.79525 0.90972 0.0
H2772 H 0.82272 0.74127 0.95366 0.0
H2773 H 0.82888 0.71283 0.9835 0.0
H2774 H 0.82588 0.76398 0.03493 0.0
H2775 H 0.81913 0.79271 0.0054 0.0
C2776 C 0.87388 0.86031 0.92525 0.0
C2777 C 0.87066 0.87908 0.93926 0.0
C2778 C 0.86042 0.8413 0.92629 0.0
C2779 C 0.84347 0.8404 0.94178 0.0
C2780 C 0.841 0.85839 0.95709 0.0
C2781 C 0.85433 0.87784 0.95561 0.0
C2782 C 0.82801 0.8209 0.9413 0.0
C2783 C 0.82968 0.80547 0.95916 0.0
C2784 C 0.81291 0.81657 0.92259 0.0
C2785 C 0.8121 0.83095 0.90197 0.0
C2786 C 0.80844 0.85421 0.90358 0.0
C2787 C 0.80816 0.86757 0.88406 0.0
C2788 C 0.81137 0.85783 0.8628 0.0
C2789 C 0.81465 0.8347 0.86097 0.0
C2790 C 0.815 0.82128 0.88044 0.0
C2791 C 0.75691 0.74568 0.96851 0.0
C2792 C 0.75609 0.7273 0.95351 0.0
C2793 C 0.76934 0.7648 0.96363 0.0
C2794 C 0.78173 0.76565 0.94393 0.0
C2795 C 0.77943 0.74813 0.92791 0.0
C2796 C 0.76681 0.72893 0.93279 0.0
C2797 C 0.79914 0.78332 0.94198 0.0
C2798 C 0.79835 0.79799 0.92339 0.0
C2799 C 0.81595 0.78631 0.95936 0.0
C2800 C 0.82008 0.76914 0.97729 0.0
C2801 C 0.82309 0.74645 0.97134 0.0
C2802 C 0.82673 0.73026 0.9882 0.0
C2803 C 0.82769 0.73658 0.0111 0.0
C2804 C 0.82507 0.75911 0.01718 0.0
C2805 C 0.82131 0.77536 0.00038 0.0
H2806 H 0.83053 0.72403 0.02414 0.0
H2807 H 0.81129 0.8682 0.84773 0.0
H2808 H 0.1316 0.8705 0.26732 0.0
H2809 H 0.10108 0.88482 0.24243 0.0
H2810 H 0.05325 0.85236 0.2845 0.0
H2811 H 0.08345 0.83791 0.30895 0.0
H2812 H 0.03908 0.85074 0.24061 0.0
H2813 H 0.06921 0.90537 0.29495 0.0
H2814 H 0.09873 0.92918 0.31301 0.0
H2815 H 0.10843 0.96213 0.24935 0.0
H2816 H 0.0793 0.93806 0.23076 0.0
H2817 H 0.95001 0.92241 0.26658 0.0
H2818 H 0.98218 0.89785 0.26343 0.0
H2819 H 0.00207 0.93414 0.20424 0.0
H2820 H 0.96947 0.95833 0.20678 0.0
H2821 H 0.03348 0.93382 0.24401 0.0
H2822 H 0.9928 0.88357 0.19441 0.0
H2823 H 0.96017 0.86074 0.18173 0.0
H2824 H 0.96717 0.82052 0.24196 0.0
H2825 H 0.99967 0.8433 0.25517 0.0
C2826 C 0.11459 0.86593 0.27078 0.0
C2827 C 0.10983 0.85326 0.2901 0.0
C2828 C 0.09719 0.87418 0.25665 0.0
C2829 C 0.07487 0.86977 0.26172 0.0
C2830 C 0.0703 0.85592 0.28019 0.0
C2831 C 0.08758 0.84786 0.2943 0.0
C2832 C 0.0561 0.88162 0.24999 0.0
C2833 C 0.03792 0.86892 0.24108 0.0
C2834 C 0.05469 0.90537 0.25039 0.0
C2835 C 0.07237 0.91967 0.26139 0.0
C2836 C 0.07784 0.9175 0.28474 0.0
C2837 C 0.09449 0.93104 0.29507 0.0
C2838 C 0.10557 0.94705 0.28229 0.0
C2839 C 0.09996 0.94958 0.25917 0.0
C2840 C 0.08341 0.93598 0.24872 0.0
C2841 C 0.96069 0.92459 0.25236 0.0
C2842 C 0.95718 0.9423 0.23696 0.0
C2843 C 0.9791 0.91058 0.25059 0.0
C2844 C 0.99449 0.9143 0.23365 0.0
C2845 C 0.9903 0.931 0.21736 0.0
C2846 C 0.97157 0.94469 0.21879 0.0
C2847 C 0.0163 0.9029 0.23526 0.0
C2848 C 0.03498 0.91571 0.24249 0.0
C2849 C 0.01793 0.87928 0.23386 0.0
C2850 C 0.99866 0.8652 0.22581 0.0
C2851 C 0.98732 0.86992 0.20501 0.0
C2852 C 0.96885 0.85698 0.19772 0.0
C2853 C 0.96159 0.8392 0.21104 0.0
C2854 C 0.97283 0.83428 0.23165 0.0
C2855 C 0.99132 0.84718 0.23902 0.0
H2856 H 0.94726 0.82922 0.20538 0.0
H2857 H 0.11841 0.95756 0.29033 0.0
H2858 H 0.09495 0.64569 0.97598 0.0
H2859 H 0.11303 0.67466 0.00035 0.0
H2860 H 0.17605 0.64114 0.99507 0.0
H2861 H 0.1582 0.61287 0.96972 0.0
H2862 H 0.16294 0.66322 0.04212 0.0
H2863 H 0.17272 0.67427 0.96086 0.0
H2864 H 0.16039 0.67883 0.92071 0.0
H2865 H 0.12064 0.73542 0.9386 0.0
H2866 H 0.13221 0.73076 0.97901 0.0
H2867 H 0.24847 0.75251 0.03759 0.0
H2868 H 0.22564 0.71808 0.03616 0.0
H2869 H 0.16635 0.75767 0.04249 0.0
H2870 H 0.18908 0.79189 0.04444 0.0
H2871 H 0.17492 0.73285 -0.00202 0.0
H2872 H 0.16682 0.72521 0.07746 0.0
H2873 H 0.1793 0.72277 0.11776 0.0
H2874 H 0.21521 0.66247 0.1037 0.0
H2875 H 0.20324 0.66477 0.06317 0.0
C2876 C 0.11245 0.64403 0.98087 0.0
C2877 C 0.12517 0.6269 0.97148 0.0
C2878 C 0.12277 0.66063 0.99459 0.0
C2879 C 0.14584 0.65997 -0.00059 0.0
C2880 C 0.1582 0.64178 0.99164 0.0
C2881 C 0.14801 0.6256 0.97732 0.0
C2882 C 0.15752 0.67962 0.00983 0.0
C2883 C 0.1657 0.67841 0.03248 0.0
C2884 C 0.16061 0.69958 -0.0027 0.0
C2885 C 0.15292 0.7018 0.97309 0.0
C2886 C 0.16093 0.68734 0.95635 0.0
C2887 C 0.15417 0.69003 0.93351 0.0
C2888 C 0.13964 0.70733 0.92712 0.0
C2889 C 0.13179 0.72194 0.94358 0.0
C2890 C 0.1384 0.71924 0.96647 0.0
C2891 C 0.23076 0.75367 0.04025 0.0
C2892 C 0.22046 0.77472 0.04123 0.0
C2893 C 0.21769 0.73405 0.03917 0.0
C2894 C 0.19433 0.73545 0.03902 0.0
C2895 C 0.18434 0.75628 0.04265 0.0
C2896 C 0.19736 0.77577 0.04396 0.0
C2897 C 0.18049 0.71644 0.03023 0.0
C2898 C 0.17197 0.71775 0.00774 0.0
C2899 C 0.17699 0.69677 0.04294 0.0
C2900 C 0.18438 0.69533 0.06722 0.0
C2901 C 0.17762 0.71159 0.08289 0.0
C2902 C 0.18453 0.71019 0.10579 0.0
C2903 C 0.19811 0.69252 0.11327 0.0
C2904 C 0.20474 0.67617 0.09786 0.0
C2905 C 0.19787 0.67751 0.07492 0.0
H2906 H 0.20343 0.69145 0.13102 0.0
H2907 H 0.1346 0.70951 0.90941 0.0
H2908 H 0.39306 0.12386 0.82772 0.0
H2909 H 0.42346 0.10772 0.8071 0.0
H2910 H 0.40191 0.14346 0.74664 0.0
H2911 H 0.37165 0.16063 0.76764 0.0
H2912 H 0.41306 0.091 0.74536 0.0
H2913 H 0.44317 0.16392 0.76217 0.0
H2914 H 0.45055 0.19753 0.78601 0.0
H2915 H 0.48697 0.15753 0.83513 0.0
H2916 H 0.47951 0.1236 0.81178 0.0
H2917 H 0.51621 0.03801 0.71635 0.0
H2918 H 0.48587 0.06523 0.71691 0.0
H2919 H 0.49392 0.06993 0.78997 0.0
H2920 H 0.52442 0.04326 0.78956 0.0
H2921 H 0.49025 0.11054 0.77208 0.0
H2922 H 0.44987 0.0389 0.76361 0.0
H2923 H 0.43963 0.00319 0.74431 0.0
H2924 H 0.42195 0.03901 0.68307 0.0
H2925 H 0.43189 0.07497 0.70216 0.0
C2926 C 0.39469 0.12833 0.81004 0.0
C2927 C 0.37981 0.14332 0.7992 0.0
C2928 C 0.41205 0.11908 0.7983 0.0
C2929 C 0.41487 0.12454 0.77548 0.0
C2930 C 0.39983 0.13907 0.76428 0.0
C2931 C 0.38246 0.14861 0.77618 0.0
C2932 C 0.43392 0.11477 0.76404 0.0
C2933 C 0.43006 0.09568 0.75042 0.0
C2934 C 0.45592 0.12077 0.77115 0.0
C2935 C 0.46071 0.14118 0.78521 0.0
C2936 C 0.45262 0.16225 0.77812 0.0
C2937 C 0.45684 0.18137 0.79155 0.0
C2938 C 0.46921 0.17966 0.81208 0.0
C2939 C 0.47742 0.15883 0.81921 0.0
C2940 C 0.47323 0.13965 0.80586 0.0
C2941 C 0.51142 0.04474 0.73255 0.0
C2942 C 0.52277 0.03847 0.75292 0.0
C2943 C 0.49409 0.06031 0.73282 0.0
C2944 C 0.48768 0.06963 0.75347 0.0
C2945 C 0.49876 0.06312 0.7738 0.0
C2946 C 0.51613 0.04774 0.77355 0.0
C2947 C 0.46931 0.08605 0.75437 0.0
C2948 C 0.4734 0.10638 0.76605 0.0
C2949 C 0.44749 0.08103 0.74575 0.0
C2950 C 0.44187 0.05951 0.73418 0.0
C2951 C 0.44393 0.03911 0.74598 0.0
C2952 C 0.43811 0.01885 0.73512 0.0
C2953 C 0.43029 0.01881 0.71243 0.0
C2954 C 0.42809 0.03905 0.70062 0.0
C2955 C 0.43373 0.05938 0.71147 0.0
H2956 H 0.42587 0.00309 0.70403 0.0
H2957 H 0.47245 0.19448 0.82245 0.0
H2958 H 0.60204 0.85145 0.0469 0.0
H2959 H 0.6211 0.81519 0.0449 0.0
H2960 H 0.68431 0.84962 0.04223 0.0
H2961 H 0.66541 0.8859 0.04523 0.0
H2962 H 0.6731 0.80734 0.0106 0.0
H2963 H 0.67444 0.83644 0.08929 0.0
H2964 H 0.65509 0.84998 0.12284 0.0
H2965 H 0.61826 0.78797 0.12515 0.0
H2966 H 0.63707 0.77424 0.0913 0.0
H2967 H 0.75538 0.72939 0.03541 0.0
H2968 H 0.73472 0.7639 0.04197 0.0
H2969 H 0.67753 0.72485 0.06042 0.0
H2970 H 0.69792 0.69018 0.05304 0.0
H2971 H 0.68219 0.76754 0.08435 0.0
H2972 H 0.67708 0.73604 0.01174 0.0
H2973 H 0.68619 0.71987 0.97476 0.0
H2974 H 0.71851 0.78149 0.95678 0.0
H2975 H 0.71072 0.79766 0.99424 0.0
C2976 C 0.61989 0.85133 0.04484 0.0
C2977 C 0.63222 0.87154 0.04581 0.0
C2978 C 0.63079 0.83058 0.04411 0.0
C2979 C 0.65413 0.82975 0.04378 0.0
C2980 C 0.66629 0.84992 0.0426 0.0
C2981 C 0.65547 0.87064 0.04397 0.0
C2982 C 0.66605 0.80802 0.04604 0.0
C2983 C 0.67548 0.79882 0.02677 0.0
C2984 C 0.66789 0.79627 0.06693 0.0
C2985 C 0.65695 0.80444 0.08754 0.0
C2986 C 0.66204 0.82579 0.09678 0.0
C2987 C 0.6512 0.83348 0.11589 0.0
C2988 C 0.63539 0.81988 0.12607 0.0
C2989 C 0.63047 0.79851 0.11722 0.0
C2990 C 0.64121 0.79077 0.09807 0.0
C2991 C 0.73886 0.7281 0.0421 0.0
C2992 C 0.72831 0.70704 0.04379 0.0
C2993 C 0.72692 0.74789 0.0455 0.0
C2994 C 0.70442 0.74695 0.05121 0.0
C2995 C 0.69482 0.72598 0.05592 0.0
C2996 C 0.70658 0.70615 0.05194 0.0
C2997 C 0.6903 0.76738 0.04902 0.0
C2998 C 0.68019 0.77619 0.06821 0.0
C2999 C 0.68699 0.77832 0.02779 0.0
C3000 C 0.69367 0.76795 0.00609 0.0
C3001 C 0.68673 0.74595 0.00025 0.0
C3002 C 0.69154 0.73681 0.9791 0.0
C3003 C 0.70282 0.74968 0.96339 0.0
C3004 C 0.70968 0.77158 0.96895 0.0
C3005 C 0.70529 0.78065 0.99024 0.0
H3006 H 0.70633 0.74265 0.94693 0.0
H3007 H 0.627 0.82587 0.14085 0.0
H3008 H 0.10482 0.16792 0.19508 0.0
H3009 H 0.07485 0.15076 0.2157 0.0
H3010 H 0.12071 0.10115 0.24302 0.0
H3011 H 0.1505 0.11765 0.22079 0.0
H3012 H 0.08736 0.08159 0.22336 0.0
H3013 H 0.09243 0.14352 0.27627 0.0
H3014 H 0.09486 0.18377 0.28623 0.0
H3015 H 0.03045 0.19473 0.25413 0.0
H3016 H 0.02788 0.15474 0.24325 0.0
H3017 H 0.99927 0.02799 0.27965 0.0
H3018 H 0.03186 0.05294 0.27767 0.0
H3019 H 0.99742 0.09235 0.22617 0.0
H3020 H 0.96508 0.06711 0.2275 0.0
H3021 H 0.026 0.11706 0.26436 0.0
H3022 H 0.02583 0.06278 0.20271 0.0
H3023 H 0.02183 0.02454 0.18669 0.0
H3024 H 0.07536 0.00184 0.23124 0.0
H3025 H 0.07943 0.03998 0.24776 0.0
C3026 C 0.10858 0.15378 0.2061 0.0
C3027 C 0.12981 0.14415 0.20672 0.0
C3028 C 0.09151 0.14408 0.21807 0.0
C3029 C 0.09553 0.12483 0.23128 0.0
C3030 C 0.11725 0.11607 0.23304 0.0
C3031 C 0.13426 0.12547 0.2205 0.0
C3032 C 0.07644 0.11188 0.23983 0.0
C3033 C 0.07438 0.08928 0.233 0.0
C3034 C 0.05887 0.12212 0.25145 0.0
C3035 C 0.05998 0.14604 0.25892 0.0
C3036 C 0.07878 0.15449 0.27129 0.0
C3037 C 0.08019 0.17728 0.27709 0.0
C3038 C 0.06279 0.19177 0.27094 0.0
C3039 C 0.0439 0.18349 0.25896 0.0
C3040 C 0.04246 0.16074 0.25296 0.0
C3041 C 0.9986 0.04213 0.26812 0.0
C3042 C 0.97988 0.04549 0.25349 0.0
C3043 C 0.01709 0.0564 0.26712 0.0
C3044 C 0.01683 0.07447 0.2519 0.0
C3045 C 0.99773 0.07858 0.23815 0.0
C3046 C 0.97946 0.06401 0.23873 0.0
C3047 C 0.03749 0.08711 0.24808 0.0
C3048 C 0.03956 0.10947 0.2555 0.0
C3049 C 0.05497 0.07697 0.23659 0.0
C3050 C 0.0527 0.05408 0.2267 0.0
C3051 C 0.03657 0.04957 0.20926 0.0
C3052 C 0.03433 0.02794 0.20005 0.0
C3053 C 0.04827 0.01074 0.20801 0.0
C3054 C 0.06454 0.01517 0.22514 0.0
C3055 C 0.06682 0.03678 0.23443 0.0
H3056 H 0.04652 0.99401 0.20086 0.0
H3057 H 0.06395 0.20941 0.27541 0.0
H3058 H 0.87057 0.37947 0.24 0.0
H3059 H 0.90267 0.3938 0.26295 0.0
H3060 H 0.94403 0.34282 0.234 0.0
H3061 H 0.91183 0.3278 0.21254 0.0
H3062 H 0.96156 0.3521 0.27191 0.0
H3063 H 0.93359 0.39555 0.20883 0.0
H3064 H 0.90673 0.41794 0.18583 0.0
H3065 H 0.90419 0.46668 0.23967 0.0
H3066 H 0.93078 0.44432 0.26317 0.0
H3067 H 0.05241 0.42223 0.2301 0.0
H3068 H 0.02002 0.3976 0.23472 0.0
H3069 H 0.00662 0.43062 0.29799 0.0
H3070 H 0.03916 0.45486 0.29394 0.0
H3071 H 0.97397 0.43202 0.25215 0.0
H3072 H 0.01321 0.38535 0.30911 0.0
H3073 H 0.04505 0.3617 0.3213 0.0
H3074 H 0.03133 0.31721 0.26474 0.0
H3075 H 0.99958 0.34075 0.25207 0.0
C3076 C 0.88624 0.37061 0.2397 0.0
C3077 C 0.88887 0.35248 0.22479 0.0
C3078 C 0.90466 0.379 0.25247 0.0
C3079 C 0.92594 0.36977 0.24975 0.0
C3080 C 0.92791 0.35032 0.23644 0.0
C3081 C 0.90952 0.34177 0.22408 0.0
C3082 C 0.94657 0.38194 0.25746 0.0
C3083 C 0.96413 0.36965 0.26779 0.0
C3084 C 0.95019 0.4048 0.25179 0.0
C3085 C 0.93382 0.41804 0.23793 0.0
C3086 C 0.92709 0.4109 0.21587 0.0
C3087 C 0.91195 0.4236 0.20273 0.0
C3088 C 0.90367 0.44366 0.21133 0.0
C3089 C 0.91053 0.45107 0.23308 0.0
C3090 C 0.9256 0.43837 0.24634 0.0
C3091 C 0.04304 0.42369 0.24539 0.0
C3092 C 0.04814 0.44066 0.26149 0.0
C3093 C 0.02461 0.40961 0.24802 0.0
C3094 C 0.01103 0.41248 0.26664 0.0
C3095 C 0.01706 0.42816 0.28361 0.0
C3096 C 0.03571 0.44194 0.28123 0.0
C3097 C 0.98871 0.40205 0.26619 0.0
C3098 C 0.97098 0.41472 0.25704 0.0
C3099 C 0.98536 0.37927 0.27161 0.0
C3100 C 0.0041 0.36487 0.2796 0.0
C3101 C 0.01707 0.3706 0.29921 0.0
C3102 C 0.03508 0.35719 0.30622 0.0
C3103 C 0.04023 0.33798 0.29379 0.0
C3104 C 0.02732 0.33208 0.27437 0.0
C3105 C 0.00929 0.34542 0.2673 0.0
H3106 H 0.0542 0.32765 0.29922 0.0
H3107 H 0.892 0.45351 0.20111 0.0
H3108 H 0.22203 0.17276 0.80019 0.0
H3109 H 0.18746 0.17842 0.81987 0.0
H3110 H 0.22534 0.19678 0.88109 0.0
H3111 H 0.26004 0.1901 0.86161 0.0
H3112 H 0.18516 0.17869 0.89117 0.0
H3113 H 0.21177 0.23673 0.84421 0.0
H3114 H 0.22678 0.25311 0.80955 0.0
H3115 H 0.16638 0.23561 0.77188 0.0
H3116 H 0.15117 0.21867 0.80621 0.0
H3117 H 0.07846 0.25302 0.89204 0.0
H3118 H 0.11914 0.24713 0.89469 0.0
H3119 H 0.11026 0.18318 0.86072 0.0
H3120 H 0.0702 0.1887 0.85822 0.0
H3121 H 0.14053 0.23357 0.84556 0.0
H3122 H 0.1264 0.1621 0.89443 0.0
H3123 H 0.11302 0.14777 0.9308 0.0
H3124 H 0.15183 0.19811 0.96725 0.0
H3125 H 0.16514 0.2129 0.93099 0.0
C3126 C 0.22292 0.17687 0.81816 0.0
C3127 C 0.24352 0.18116 0.82942 0.0
C3128 C 0.20322 0.18036 0.82933 0.0
C3129 C 0.20393 0.18889 0.85163 0.0
C3130 C 0.22448 0.1905 0.86378 0.0
C3131 C 0.24426 0.18652 0.8527 0.0
C3132 C 0.18364 0.19889 0.8608 0.0
C3133 C 0.17559 0.1909 0.88133 0.0
C3134 C 0.17154 0.21557 0.84847 0.0
C3135 C 0.18036 0.22631 0.82783 0.0
C3136 C 0.20171 0.23627 0.82853 0.0
C3137 C 0.21027 0.24565 0.80892 0.0
C3138 C 0.19754 0.24538 0.78852 0.0
C3139 C 0.17621 0.23579 0.7877 0.0
C3140 C 0.1676 0.22631 0.80724 0.0
C3141 C 0.08522 0.23741 0.88587 0.0
C3142 C 0.07126 0.22139 0.87476 0.0
C3143 C 0.10837 0.23412 0.88733 0.0
C3144 C 0.11752 0.21464 0.87805 0.0
C3145 C 0.10342 0.19812 0.86831 0.0
C3146 C 0.08054 0.20139 0.86678 0.0
C3147 C 0.14163 0.21235 0.87508 0.0
C3148 C 0.15049 0.22185 0.85565 0.0
C3149 C 0.15465 0.19752 0.88856 0.0
C3150 C 0.14658 0.18865 0.91012 0.0
C3151 C 0.13191 0.17019 0.9102 0.0
C3152 C 0.12437 0.16198 0.93077 0.0
C3153 C 0.1316 0.17201 0.95132 0.0
C3154 C 0.14625 0.19036 0.95133 0.0
C3155 C 0.15376 0.19868 0.93079 0.0
H3156 H 0.12595 0.16549 0.96724 0.0
H3157 H 0.2042 0.25263 0.77336 0.0
H3158 H 0.42401 0.48599 0.37124 0.0
H3159 H 0.42855 0.52309 0.35349 0.0
H3160 H 0.4383 0.55323 0.42 0.0
H3161 H 0.43369 0.51666 0.43753 0.0
H3162 H 0.41575 0.58097 0.39333 0.0
H3163 H 0.4821 0.53526 0.38889 0.0
H3164 H 0.50399 0.50275 0.3767 0.0
H3165 H 0.48899 0.51891 0.30672 0.0
H3166 H 0.46674 0.55136 0.31856 0.0
H3167 H 0.50964 0.65358 0.39975 0.0
H3168 H 0.49178 0.61705 0.39395 0.0
H3169 H 0.45303 0.64301 0.33684 0.0
H3170 H 0.47046 0.68024 0.34298 0.0
H3171 H 0.48266 0.58831 0.34706 0.0
H3172 H 0.41788 0.63944 0.35686 0.0
H3173 H 0.40098 0.67227 0.37506 0.0
H3174 H 0.41769 0.64513 0.44101 0.0
H3175 H 0.43518 0.61243 0.42315 0.0
C3176 C 0.4264 0.50069 0.382 0.0
C3177 C 0.42857 0.49845 0.40577 0.0
C3178 C 0.42921 0.52184 0.37185 0.0
C3179 C 0.43407 0.54098 0.38538 0.0
C3180 C 0.43457 0.53883 0.40913 0.0
C3181 C 0.43197 0.51786 0.41917 0.0
C3182 C 0.44071 0.56296 0.37547 0.0
C3183 C 0.43006 0.5825 0.38274 0.0
C3184 C 0.45945 0.56515 0.36169 0.0
C3185 C 0.47246 0.54547 0.35459 0.0
C3186 C 0.48327 0.53172 0.37091 0.0
C3187 C 0.49578 0.51334 0.36407 0.0
C3188 C 0.4978 0.50871 0.34095 0.0
C3189 C 0.48734 0.52247 0.32463 0.0
C3190 C 0.47476 0.54084 0.33139 0.0
C3191 C 0.49768 0.65152 0.3856 0.0
C3192 C 0.4913 0.66998 0.37201 0.0
C3193 C 0.48746 0.63058 0.38235 0.0
C3194 C 0.47075 0.62746 0.36531 0.0
C3195 C 0.46565 0.6452 0.35034 0.0
C3196 C 0.47583 0.66639 0.3537 0.0
C3197 C 0.45774 0.60613 0.36506 0.0
C3198 C 0.46751 0.5867 0.35639 0.0
C3199 C 0.43847 0.60398 0.37797 0.0
C3200 C 0.42815 0.62372 0.38866 0.0
C3201 C 0.41826 0.64067 0.37523 0.0
C3202 C 0.40851 0.65921 0.38549 0.0
C3203 C 0.40835 0.66084 0.40918 0.0
C3204 C 0.41791 0.64391 0.42266 0.0
C3205 C 0.42776 0.62539 0.41248 0.0
H3206 H 0.40074 0.67517 0.41709 0.0
H3207 H 0.50753 0.4945 0.33568 0.0
H3208 H 0.74156 0.32336 0.8572 0.0
H3209 H 0.7809 0.31685 0.86836 0.0
H3210 H 0.79366 0.29652 0.79966 0.0
H3211 H 0.75483 0.30298 0.78848 0.0
H3212 H 0.80978 0.2663 0.82999 0.0
H3213 H 0.80813 0.34618 0.82069 0.0
H3214 H 0.79724 0.3853 0.82795 0.0
H3215 H 0.82543 0.38114 0.89592 0.0
H3216 H 0.83474 0.34154 0.88983 0.0
H3217 H 0.92912 0.26436 0.83542 0.0
H3218 H 0.8898 0.27112 0.82524 0.0
H3219 H 0.87995 0.29624 0.89299 0.0
H3220 H 0.91912 0.29035 0.90294 0.0
H3221 H 0.86205 0.3234 0.86342 0.0
H3222 H 0.86096 0.24291 0.87382 0.0
H3223 H 0.87285 0.20401 0.86663 0.0
H3224 H 0.8526 0.21028 0.79615 0.0
H3225 H 0.84079 0.2493 0.80287 0.0
C3226 C 0.7529 0.31798 0.84444 0.0
C3227 C 0.74512 0.31364 0.822 0.0
C3228 C 0.77529 0.31409 0.85084 0.0
C3229 C 0.7901 0.30596 0.83484 0.0
C3230 C 0.78246 0.30249 0.81232 0.0
C3231 C 0.76027 0.30635 0.80595 0.0
C3232 C 0.81358 0.30069 0.8413 0.0
C3233 C 0.82126 0.27882 0.83721 0.0
C3234 C 0.82842 0.31696 0.85097 0.0
C3235 C 0.82175 0.34062 0.85492 0.0
C3236 C 0.8114 0.35336 0.83743 0.0
C3237 C 0.8054 0.37566 0.84139 0.0
C3238 C 0.81024 0.38563 0.86256 0.0
C3239 C 0.82107 0.3733 0.87978 0.0
C3240 C 0.82659 0.35087 0.87613 0.0
C3241 C 0.91858 0.27137 0.84808 0.0
C3242 C 0.92736 0.27708 0.86986 0.0
C3243 C 0.89606 0.27504 0.84233 0.0
C3244 C 0.88188 0.28406 0.85842 0.0
C3245 C 0.89058 0.28938 0.88025 0.0
C3246 C 0.91304 0.28602 0.88589 0.0
C3247 C 0.85818 0.28898 0.85248 0.0
C3248 C 0.85048 0.31081 0.85648 0.0
C3249 C 0.84333 0.27269 0.84281 0.0
C3250 C 0.85018 0.24911 0.83882 0.0
C3251 C 0.85916 0.23604 0.85676 0.0
C3252 C 0.86586 0.21396 0.85278 0.0
C3253 C 0.86353 0.2047 0.83094 0.0
C3254 C 0.85441 0.21748 0.81306 0.0
C3255 C 0.84768 0.23957 0.81695 0.0
H3256 H 0.86875 0.18762 0.82789 0.0
H3257 H 0.8058 0.40297 0.86553 0.0
H3258 H 0.55823 0.00907 0.38091 0.0
H3259 H 0.5481 0.9701 0.37141 0.0
H3260 H 0.59407 0.94673 0.42407 0.0
H3261 H 0.60347 0.98579 0.43428 0.0
H3262 H 0.58622 0.91915 0.37649 0.0
H3263 H 0.55394 0.948 0.44483 0.0
H3264 H 0.53523 0.9767 0.46744 0.0
H3265 H 0.47919 0.97559 0.41975 0.0
H3266 H 0.49787 0.94725 0.39653 0.0
H3267 H 0.53409 0.81336 0.40013 0.0
H3268 H 0.55058 0.85044 0.40846 0.0
H3269 H 0.5011 0.88118 0.3638 0.0
H3270 H 0.48494 0.84407 0.35478 0.0
H3271 H 0.51226 0.90442 0.40861 0.0
H3272 H 0.54457 0.87416 0.34116 0.0
H3273 H 0.56376 0.8456 0.3188 0.0
H3274 H 0.62021 0.84875 0.36589 0.0
H3275 H 0.60116 0.87706 0.38878 0.0
C3276 C 0.56713 0.9956 0.38955 0.0
C3277 C 0.58193 0.00038 0.40804 0.0
C3278 C 0.5611 0.97335 0.38433 0.0
C3279 C 0.57018 0.9556 0.39721 0.0
C3280 C 0.58694 0.96021 0.41391 0.0
C3281 C 0.59252 0.98251 0.41953 0.0
C3282 C 0.55972 0.93295 0.39559 0.0
C3283 C 0.57022 0.9158 0.38375 0.0
C3284 C 0.53872 0.92871 0.40492 0.0
C3285 C 0.52749 0.94583 0.41872 0.0
C3286 C 0.5378 0.95415 0.43895 0.0
C3287 C 0.52717 0.97029 0.45193 0.0
C3288 C 0.50608 0.97804 0.44498 0.0
C3289 C 0.49557 0.96963 0.42506 0.0
C3290 C 0.50618 0.95355 0.41197 0.0
C3291 C 0.52633 0.82806 0.39254 0.0
C3292 C 0.50816 0.8258 0.37682 0.0
C3293 C 0.53592 0.84921 0.39717 0.0
C3294 C 0.52719 0.86849 0.38655 0.0
C3295 C 0.50811 0.86648 0.3721 0.0
C3296 C 0.49885 0.84529 0.36703 0.0
C3297 C 0.53871 0.89055 0.38942 0.0
C3298 C 0.52835 0.90766 0.40147 0.0
C3299 C 0.55992 0.89465 0.38046 0.0
C3300 C 0.5713 0.87747 0.36687 0.0
C3301 C 0.56094 0.86854 0.34693 0.0
C3302 C 0.57183 0.85245 0.33411 0.0
C3303 C 0.59316 0.8453 0.34097 0.0
C3304 C 0.60366 0.85425 0.36064 0.0
C3305 C 0.59283 0.87032 0.37354 0.0
H3306 H 0.60158 0.83287 0.331 0.0
H3307 H 0.49784 0.9905 0.45507 0.0
H3308 H 0.23568 0.83997 0.69583 0.0
H3309 H 0.19957 0.83003 0.67781 0.0
H3310 H 0.23266 0.8039 0.61961 0.0
H3311 H 0.26869 0.81525 0.63705 0.0
H3312 H 0.19367 0.8166 0.60579 0.0
H3313 H 0.21988 0.76957 0.66545 0.0
H3314 H 0.23476 0.75823 0.70331 0.0
H3315 H 0.17618 0.78356 0.73386 0.0
H3316 H 0.16108 0.7954 0.69625 0.0
H3317 H 0.08491 0.74792 0.60768 0.0
H3318 H 0.1257 0.75327 0.60694 0.0
H3319 H 0.11952 0.81806 0.63908 0.0
H3320 H 0.07933 0.81294 0.63993 0.0
H3321 H 0.14866 0.77409 0.66029 0.0
H3322 H 0.13386 0.83158 0.59583 0.0
H3323 H 0.11741 0.83559 0.5569 0.0
H3324 H 0.15496 0.77892 0.53481 0.0
H3325 H 0.17151 0.77459 0.57366 0.0
C3326 C 0.2351 0.83322 0.67868 0.0
C3327 C 0.25483 0.82831 0.6678 0.0
C3328 C 0.21454 0.82711 0.66857 0.0
C3329 C 0.21353 0.81523 0.64785 0.0
C3330 C 0.23305 0.81271 0.63577 0.0
C3331 C 0.25362 0.81944 0.64563 0.0
C3332 C 0.19252 0.80378 0.64007 0.0
C3333 C 0.18407 0.80706 0.61769 0.0
C3334 C 0.18025 0.79035 0.65516 0.0
C3335 C 0.1894 0.78353 0.67796 0.0
C3336 C 0.21024 0.7729 0.68024 0.0
C3337 C 0.21871 0.76636 0.70167 0.0
C3338 C 0.20644 0.7702 0.72098 0.0
C3339 C 0.18567 0.7806 0.71889 0.0
C3340 C 0.17714 0.78722 0.69751 0.0
C3341 C 0.0923 0.76352 0.61396 0.0
C3342 C 0.07916 0.77989 0.62418 0.0
C3343 C 0.11548 0.76648 0.61362 0.0
C3344 C 0.12538 0.78595 0.62318 0.0
C3345 C 0.11204 0.80292 0.63174 0.0
C3346 C 0.08914 0.79995 0.63222 0.0
C3347 C 0.14962 0.78829 0.62684 0.0
C3348 C 0.15873 0.78318 0.64842 0.0
C3349 C 0.16271 0.79926 0.61095 0.0
C3350 C 0.154 0.8029 0.58746 0.0
C3351 C 0.1387 0.82012 0.58258 0.0
C3352 C 0.12932 0.8224 0.56058 0.0
C3353 C 0.13518 0.80755 0.54337 0.0
C3354 C 0.1505 0.79046 0.54812 0.0
C3355 C 0.15992 0.78812 0.5701 0.0
H3356 H 0.12781 0.80925 0.52639 0.0
H3357 H 0.213 0.76509 0.73754 0.0
H3358 H 0.09941 0.49944 0.59494 0.0
H3359 H 0.09457 0.53954 0.60472 0.0
H3360 H 0.02334 0.52978 0.60367 0.0
H3361 H 0.02799 0.49024 0.59454 0.0
H3362 H 0.04015 0.56407 0.57258 0.0
H3363 H 0.04452 0.53911 0.65106 0.0
H3364 H 0.06299 0.5212 0.68442 0.0
H3365 H 0.11729 0.56836 0.68184 0.0
H3366 H 0.09923 0.58641 0.64826 0.0
H3367 H 0.98588 0.6581 0.62699 0.0
H3368 H 1.00014 0.62018 0.61955 0.0
H3369 H 0.06496 0.64826 0.60759 0.0
H3370 H 0.05045 0.68624 0.61376 0.0
H3371 H 0.05713 0.60675 0.64383 0.0
H3372 H 0.05245 0.63303 0.56662 0.0
H3373 H 0.03445 0.65088 0.53302 0.0
H3374 H 0.98245 0.60092 0.53211 0.0
H3375 H 0.99987 0.5831 0.56612 0.0
C3376 C 0.08283 0.50573 0.59761 0.0
C3377 C 0.06408 0.49167 0.59383 0.0
C3378 C 0.08005 0.52867 0.60298 0.0
C3379 C 0.05853 0.53773 0.60456 0.0
C3380 C 0.04006 0.52329 0.60229 0.0
C3381 C 0.04279 0.5006 0.59717 0.0
C3382 C 0.05459 0.56237 0.60663 0.0
C3383 C 0.04392 0.57339 0.58817 0.0
C3384 C 0.05986 0.57469 0.62677 0.0
C3385 C 0.07069 0.5639 0.64695 0.0
C3386 C 0.06052 0.54551 0.65745 0.0
C3387 C 0.07087 0.53538 0.67644 0.0
C3388 C 0.09135 0.54358 0.68519 0.0
C3389 C 0.10146 0.562 0.67501 0.0
C3390 C 0.09116 0.57219 0.65601 0.0
C3391 C 0.003 0.65617 0.6222 0.0
C3392 C 0.01693 0.67512 0.62047 0.0
C3393 C 0.01119 0.63454 0.61816 0.0
C3394 C 0.03365 0.63138 0.61312 0.0
C3395 C 0.04758 0.65029 0.61139 0.0
C3396 C 0.03921 0.67198 0.61466 0.0
C3397 C 0.04243 0.60827 0.60987 0.0
C3398 C 0.05379 0.59753 0.62811 0.0
C3399 C 0.03799 0.59618 0.58945 0.0
C3400 C 0.02725 0.60698 0.5692 0.0
C3401 C 0.03697 0.62608 0.55953 0.0
C3402 C 0.02692 0.63614 0.54034 0.0
C3403 C 0.00726 0.6271 0.53049 0.0
C3404 C 0.99763 0.60796 0.53981 0.0
C3405 C 0.00758 0.59789 0.55906 0.0
H3406 H 0.99954 0.63487 0.51559 0.0
H3407 H 0.09935 0.53571 0.69988 0.0
H3408 H 0.77126 0.67538 0.69544 0.0
H3409 H 0.80949 0.67924 0.68317 0.0
H3410 H 0.78462 0.69768 0.61601 0.0
H3411 H 0.7463 0.69244 0.628 0.0
H3412 H 0.82263 0.67828 0.61243 0.0
H3413 H 0.79625 0.73746 0.65815 0.0
H3414 H 0.77964 0.75544 0.69121 0.0
H3415 H 0.83396 0.73244 0.73453 0.0
H3416 H 0.8507 0.71396 0.70179 0.0
H3417 H 0.92214 0.73619 0.5872 0.0
H3418 H 0.88305 0.7288 0.59483 0.0
H3419 H 0.90237 0.70747 0.66283 0.0
H3420 H 0.94141 0.71636 0.65558 0.0
H3421 H 0.86588 0.73034 0.66375 0.0
H3422 H 0.89061 0.6698 0.61328 0.0
H3423 H 0.90579 0.65641 0.57731 0.0
H3424 H 0.85232 0.68844 0.5395 0.0
H3425 H 0.83697 0.70218 0.57521 0.0
C3426 C 0.77404 0.67926 0.6778 0.0
C3427 C 0.75603 0.6837 0.66262 0.0
C3428 C 0.79584 0.68178 0.67087 0.0
C3429 C 0.79987 0.68967 0.64895 0.0
C3430 C 0.78189 0.69187 0.6331 0.0
C3431 C 0.76002 0.68873 0.63988 0.0
C3432 C 0.82247 0.69764 0.64342 0.0
C3433 C 0.83203 0.68977 0.62358 0.0
C3434 C 0.83463 0.71297 0.65776 0.0
C3435 C 0.82461 0.7241 0.67753 0.0
C3436 C 0.80457 0.73607 0.67475 0.0
C3437 C 0.79513 0.74637 0.69344 0.0
C3438 C 0.8057 0.74503 0.71497 0.0
C3439 C 0.82576 0.73342 0.71785 0.0
C3440 C 0.83523 0.72303 0.69923 0.0
C3441 C 0.91792 0.73008 0.60382 0.0
C3442 C 0.9346 0.72667 0.62081 0.0
C3443 C 0.89564 0.72568 0.60811 0.0
C3444 C 0.8898 0.71685 0.62916 0.0
C3445 C 0.90648 0.71409 0.64639 0.0
C3446 C 0.92873 0.71917 0.6423 0.0
C3447 C 0.86642 0.71024 0.63327 0.0
C3448 C 0.85657 0.71866 0.65273 0.0
C3449 C 0.85378 0.69596 0.61823 0.0
C3450 C 0.86273 0.68709 0.59689 0.0
C3451 C 0.88213 0.67399 0.59728 0.0
C3452 C 0.89076 0.66636 0.57694 0.0
C3453 C 0.88004 0.6716 0.55613 0.0
C3454 C 0.86061 0.68439 0.55562 0.0
C3455 C 0.85192 0.69207 0.5759 0.0
H3456 H 0.88678 0.66573 0.54041 0.0
H3457 H 0.79838 0.75303 0.72941 0.0
H3458 H 0.90552 0.99416 0.57917 0.0
H3459 H 0.91357 0.95565 0.59223 0.0
H3460 H 0.97416 0.97945 0.62638 0.0
H3461 H 0.96606 0.0177 0.61351 0.0
H3462 H 0.97928 0.94518 0.59223 0.0
H3463 H 0.93316 0.96103 0.65714 0.0
H3464 H 0.89751 0.97182 0.67338 0.0
H3465 H 0.86476 0.91582 0.6397 0.0
H3466 H 0.90015 0.90489 0.62299 0.0
H3467 H 0.02642 0.84564 0.62942 0.0
H3468 H 0.01151 0.88382 0.63147 0.0
H3469 H 0.94472 0.85724 0.62115 0.0
H3470 H 0.95962 0.81911 0.62108 0.0
H3471 H 0.94032 0.89277 0.64282 0.0
H3472 H 0.97819 0.87672 0.576 0.0
H3473 H 0.00873 0.86427 0.55225 0.0
H3474 H 0.05043 0.91788 0.57892 0.0
H3475 H 0.02023 0.93047 0.6031 0.0
C3476 C 0.91998 0.99124 0.59034 0.0
C3477 C 0.93495 0.00888 0.59579 0.0
C3478 C 0.92468 0.96925 0.59763 0.0
C3479 C 0.94451 0.96467 0.61026 0.0
C3480 C 0.95875 0.98258 0.61672 0.0
C3481 C 0.95401 0.00446 0.60957 0.0
C3482 C 0.95196 0.94118 0.61445 0.0
C3483 C 0.971 0.93383 0.60361 0.0
C3484 C 0.94036 0.92593 0.62814 0.0
C3485 C 0.91928 0.93224 0.6387 0.0
C3486 C 0.91833 0.95109 0.6531 0.0
C3487 C 0.89817 0.95722 0.6624 0.0
C3488 C 0.87888 0.94454 0.65754 0.0
C3489 C 0.87972 0.92564 0.64344 0.0
C3490 C 0.89983 0.91945 0.63408 0.0
C3491 C 0.00853 0.848 0.62864 0.0
C3492 C 0.99413 0.82952 0.6254 0.0
C3493 C 0.99997 0.86983 0.62937 0.0
C3494 C 0.97695 0.87366 0.62559 0.0
C3495 C 0.9625 0.85497 0.62399 0.0
C3496 C 0.97102 0.83312 0.62405 0.0
C3497 C 0.96828 0.89688 0.62121 0.0
C3498 C 0.94885 0.90412 0.63166 0.0
C3499 C 0.97883 0.91177 0.60615 0.0
C3500 C 0.99703 0.90438 0.59155 0.0
C3501 C 0.99392 0.88577 0.57691 0.0
C3502 C 0.01117 0.87869 0.56336 0.0
C3503 C 0.03153 0.89024 0.56413 0.0
C3504 C 0.03466 0.90893 0.57838 0.0
C3505 C 0.01749 0.91605 0.59201 0.0
H3506 H 0.04486 0.88473 0.55363 0.0
H3507 H 0.86328 0.94933 0.66473 0.0
H3508 H 0.86092 0.25519 0.17516 0.0
H3509 H 0.8729 0.21681 0.18368 0.0
H3510 H 0.80504 0.19801 0.19625 0.0
H3511 H 0.79267 0.23564 0.18607 0.0
H3512 H 0.85005 0.19163 0.23339 0.0
H3513 H 0.80958 0.17405 0.15906 0.0
H3514 H 0.80338 0.18211 0.1182 0.0
H3515 H 0.87334 0.17449 0.10793 0.0
H3516 H 0.87996 0.16674 0.14886 0.0
H3517 H 0.84701 0.07135 0.24697 0.0
H3518 H 0.83801 0.11096 0.23964 0.0
H3519 H 0.8945 0.11657 0.19688 0.0
H3520 H 0.90344 0.0776 0.20368 0.0
H3521 H 0.85694 0.13102 0.17594 0.0
H3522 H 0.89766 0.14076 0.24616 0.0
H3523 H 0.90775 0.13414 0.28656 0.0
H3524 H 0.84388 0.1584 0.30544 0.0
H3525 H 0.83323 0.16486 0.26506 0.0
C3526 C 0.84845 0.24263 0.17855 0.0
C3527 C 0.82588 0.2484 0.17959 0.0
C3528 C 0.85536 0.22094 0.18401 0.0
C3529 C 0.8398 0.20506 0.19101 0.0
C3530 C 0.8172 0.21035 0.1911 0.0
C3531 C 0.8102 0.23176 0.18501 0.0
C3532 C 0.84696 0.18261 0.19787 0.0
C3533 C 0.85142 0.1782 0.221 0.0
C3534 C 0.84926 0.16565 0.18149 0.0
C3535 C 0.84526 0.16999 0.15694 0.0
C3536 C 0.82364 0.17428 0.1481 0.0
C3537 C 0.82005 0.17876 0.12495 0.0
C3538 C 0.83796 0.17878 0.11049 0.0
C3539 C 0.8595 0.17443 0.11916 0.0
C3540 C 0.86317 0.16999 0.14231 0.0
C3541 C 0.85745 0.08108 0.23602 0.0
C3542 C 0.87574 0.07128 0.22573 0.0
C3543 C 0.85242 0.10365 0.23202 0.0
C3544 C 0.86568 0.11647 0.21775 0.0
C3545 C 0.88409 0.10682 0.20786 0.0
C3546 C 0.88908 0.08448 0.21177 0.0
C3547 C 0.85972 0.13958 0.21166 0.0
C3548 C 0.85556 0.14425 0.18854 0.0
C3549 C 0.8582 0.15678 0.22814 0.0
C3550 C 0.86452 0.15303 0.25251 0.0
C3551 C 0.88565 0.14448 0.25888 0.0
C3552 C 0.8915 0.1408 0.2818 0.0
C3553 C 0.87643 0.14577 0.29855 0.0
C3554 C 0.85551 0.15451 0.29243 0.0
C3555 C 0.84956 0.15821 0.26952 0.0
H3556 H 0.88099 0.14291 0.31628 0.0
H3557 H 0.83515 0.18202 0.09254 0.0
H3558 H 0.514 0.8726 0.05666 0.0
H3559 H 0.47589 0.85736 0.05303 0.0
H3560 H 0.45299 0.91081 0.0957 0.0
H3561 H 0.49089 0.92659 0.0985 0.0
H3562 H 0.43177 0.86535 0.10165 0.0
H3563 H 0.44902 0.92183 0.04615 0.0
H3564 H 0.47093 0.9387 0.01599 0.0
H3565 H 0.45892 0.88033 0.97401 0.0
H3566 H 0.43733 0.86287 0.00421 0.0
H3567 H 0.32213 0.8958 0.06954 0.0
H3568 H 0.3612 0.89037 0.08073 0.0
H3569 H 0.36834 0.84528 0.02393 0.0
H3570 H 0.32882 0.85069 0.01266 0.0
H3571 H 0.39897 0.87914 0.02424 0.0
H3572 H 0.37675 0.82518 0.07866 0.0
H3573 H 0.35364 0.81002 0.10882 0.0
H3574 H 0.37394 0.86489 0.15275 0.0
H3575 H 0.39689 0.88051 0.12266 0.0
C3576 C 0.50099 0.88048 0.06607 0.0
C3577 C 0.50534 0.90052 0.07818 0.0
C3578 C 0.47922 0.8719 0.06381 0.0
C3579 C 0.46163 0.88304 0.074 0.0
C3580 C 0.46635 0.90191 0.08781 0.0
C3581 C 0.488 0.91083 0.08954 0.0
C3582 C 0.4381 0.87694 0.06794 0.0
C3583 C 0.42456 0.86831 0.08475 0.0
C3584 C 0.42883 0.88047 0.04575 0.0
C3585 C 0.44194 0.89084 0.02763 0.0
C3586 C 0.45134 0.91243 0.03064 0.0
C3587 C 0.46364 0.92214 0.01351 0.0
C3588 C 0.46642 0.91054 0.99314 0.0
C3589 C 0.45684 0.88924 0.98985 0.0
C3590 C 0.4446 0.87942 0.00698 0.0
C3591 C 0.3318 0.88408 0.0599 0.0
C3592 C 0.32241 0.8736 0.04029 0.0
C3593 C 0.35419 0.88096 0.06632 0.0
C3594 C 0.3678 0.86734 0.05326 0.0
C3595 C 0.35816 0.8558 0.03434 0.0
C3596 C 0.33553 0.8587 0.02805 0.0
C3597 C 0.3924 0.8676 0.05801 0.0
C3598 C 0.40621 0.87545 0.04099 0.0
C3599 C 0.40186 0.86348 0.08003 0.0
C3600 C 0.38837 0.85407 0.09833 0.0
C3601 C 0.37611 0.83408 0.09468 0.0
C3602 C 0.36309 0.8254 0.11178 0.0
C3603 C 0.36228 0.83651 0.13268 0.0
C3604 C 0.37458 0.85629 0.13654 0.0
C3605 C 0.38763 0.86504 0.11948 0.0
H3606 H 0.35217 0.82978 0.1459 0.0
H3607 H 0.47591 0.91811 0.97987 0.0
H3608 H 0.17163 0.25569 0.20822 0.0
H3609 H 0.14847 0.28809 0.21541 0.0
H3610 H 0.13733 0.29724 0.14313 0.0
H3611 H 0.16152 0.26499 0.13589 0.0
H3612 H 0.15368 0.33429 0.16619 0.0
H3613 H 0.09477 0.27934 0.17824 0.0
H3614 H 0.08055 0.245 0.19618 0.0
H3615 H 0.09221 0.27458 0.26229 0.0
H3616 H 0.10681 0.30895 0.24481 0.0
H3617 H 0.10472 0.43221 0.18343 0.0
H3618 H 0.09995 0.39279 0.17246 0.0
H3619 H 0.11317 0.37303 0.24215 0.0
H3620 H 0.11703 0.41266 0.25326 0.0
H3621 H 0.09022 0.33971 0.21752 0.0
H3622 H 0.15587 0.38299 0.21516 0.0
H3623 H 0.17997 0.4155 0.20727 0.0
H3624 H 0.16751 0.40584 0.13552 0.0
H3625 H 0.14295 0.37345 0.14304 0.0
C3626 C 0.16408 0.26458 0.19386 0.0
C3627 C 0.16816 0.25804 0.1715 0.0
C3628 C 0.15056 0.28278 0.198 0.0
C3629 C 0.14066 0.29459 0.1798 0.0
C3630 C 0.14446 0.2879 0.15734 0.0
C3631 C 0.15816 0.26957 0.15318 0.0
C3632 C 0.12923 0.31579 0.18448 0.0
C3633 C 0.13924 0.33544 0.17667 0.0
C3634 C 0.11159 0.31714 0.19973 0.0
C3635 C 0.10187 0.29678 0.21016 0.0
C3636 C 0.09431 0.27853 0.1966 0.0
C3637 C 0.08621 0.25904 0.2067 0.0
C3638 C 0.08546 0.25761 0.23036 0.0
C3639 C 0.09274 0.27572 0.24396 0.0
C3640 C 0.10088 0.29524 0.23396 0.0
C3641 C 0.10532 0.41945 0.19652 0.0
C3642 C 0.11154 0.42506 0.21901 0.0
C3643 C 0.10255 0.39702 0.1903 0.0
C3644 C 0.10687 0.38013 0.20641 0.0
C3645 C 0.10988 0.38588 0.2295 0.0
C3646 C 0.11219 0.40844 0.23581 0.0
C3647 C 0.11424 0.358 0.19852 0.0
C3648 C 0.10392 0.33839 0.20613 0.0
C3649 C 0.13272 0.35645 0.18439 0.0
C3650 C 0.14719 0.3761 0.17967 0.0
C3651 C 0.158 0.388 0.1977 0.0
C3652 C 0.1718 0.40635 0.19331 0.0
C3653 C 0.17516 0.41282 0.17091 0.0
C3654 C 0.16478 0.40088 0.15287 0.0
C3655 C 0.1509 0.38253 0.15718 0.0
H3656 H 0.18588 0.42702 0.16753 0.0
H3657 H 0.07925 0.24248 0.23814 0.0
H3658 H 0.51287 0.56287 0.05895 0.0
H3659 H 0.55015 0.57719 0.05334 0.0
H3660 H 0.52856 0.64428 0.06897 0.0
H3661 H 0.49042 0.62974 0.0744 0.0
H3662 H 0.5522 0.64311 0.02963 0.0
H3663 H 0.56568 0.61748 0.10537 0.0
H3664 H 0.56324 0.59107 0.13736 0.0
H3665 H 0.59944 0.54181 0.10051 0.0
H3666 H 0.60185 0.56778 0.06816 0.0
H3667 H 0.68121 0.6499 0.02586 0.0
H3668 H 0.64481 0.6546 0.04335 0.0
H3669 H 0.61703 0.60163 0.00066 0.0
H3670 H 0.65261 0.5973 0.98285 0.0
H3671 H 0.62026 0.606 0.06147 0.0
H3672 H 0.589 0.62753 0.98255 0.0
H3673 H 0.5918 0.65293 0.94972 0.0
H3674 H 0.59061 0.71015 0.99439 0.0
H3675 H 0.58824 0.68497 0.02751 0.0
C3676 C 0.51606 0.58064 0.06173 0.0
C3677 C 0.49865 0.59514 0.06722 0.0
C3678 C 0.53752 0.58883 0.05856 0.0
C3679 C 0.54242 0.61183 0.06089 0.0
C3680 C 0.52526 0.62643 0.06716 0.0
C3681 C 0.50355 0.61811 0.07051 0.0
C3682 C 0.56512 0.62014 0.0551 0.0
C3683 C 0.56708 0.63543 0.0371 0.0
C3684 C 0.58476 0.61014 0.0646 0.0
C3685 C 0.58394 0.59463 0.0843 0.0
C3686 C 0.57309 0.601 0.10405 0.0
C3687 C 0.5717 0.5861 0.12225 0.0
C3688 C 0.58118 0.56478 0.12097 0.0
C3689 C 0.59214 0.55835 0.1015 0.0
C3690 C 0.59358 0.57319 0.08325 0.0
C3691 C 0.66709 0.63992 0.01959 0.0
C3692 C 0.66988 0.62324 0.00288 0.0
C3693 C 0.64637 0.64243 0.02978 0.0
C3694 C 0.62819 0.62844 0.0233 0.0
C3695 C 0.6307 0.61276 0.0058 0.0
C3696 C 0.65114 0.61034 0.99559 0.0
C3697 C 0.60703 0.62831 0.03574 0.0
C3698 C 0.60541 0.61433 0.05476 0.0
C3699 C 0.58774 0.63939 0.02723 0.0
C3700 C 0.58868 0.65444 0.00742 0.0
C3701 C 0.58951 0.64553 0.98534 0.0
C3702 C 0.59101 0.65987 0.9667 0.0
C3703 C 0.59144 0.68315 0.96997 0.0
C3704 C 0.59033 0.69212 0.99189 0.0
C3705 C 0.58895 0.67783 0.01059 0.0
H3706 H 0.59259 0.69423 0.95552 0.0
H3707 H 0.58004 0.55325 0.13505 0.0
H3708 H 0.80119 0.78322 0.30744 0.0
H3709 H 0.82617 0.81511 0.30162 0.0
H3710 H 0.88315 0.772 0.31103 0.0
H3711 H 0.85845 0.73979 0.31529 0.0
H3712 H 0.8757 0.82711 0.33195 0.0
H3713 H 0.88324 0.77361 0.26661 0.0
H3714 H 0.86481 0.74787 0.23862 0.0
H3715 H 0.82197 0.8011 0.2151 0.0
H3716 H 0.83979 0.82699 0.24331 0.0
H3717 H 0.91537 0.9279 0.28833 0.0
H3718 H 0.92037 0.8871 0.29325 0.0
H3719 H 0.85856 0.87528 0.25466 0.0
H3720 H 0.85419 0.91539 0.24929 0.0
H3721 H 0.88325 0.84118 0.24953 0.0
H3722 H 0.86007 0.88765 0.31274 0.0
H3723 H 0.86542 0.91752 0.3417 0.0
H3724 H 0.92319 0.88371 0.36962 0.0
H3725 H 0.91832 0.85381 0.34055 0.0
C3726 C 0.81904 0.78062 0.30888 0.0
C3727 C 0.82784 0.75904 0.31222 0.0
C3728 C 0.83323 0.79881 0.30559 0.0
C3729 C 0.85633 0.79564 0.30584 0.0
C3730 C 0.8653 0.77459 0.31091 0.0
C3731 C 0.85112 0.75628 0.31372 0.0
C3732 C 0.87061 0.81388 0.2981 0.0
C3733 C 0.87819 0.82995 0.31402 0.0
C3734 C 0.87291 0.81763 0.27463 0.0
C3735 C 0.86277 0.80217 0.25718 0.0
C3736 C 0.86978 0.77976 0.2556 0.0
C3737 C 0.85945 0.76515 0.23968 0.0
C3738 C 0.84221 0.77283 0.22511 0.0
C3739 C 0.83531 0.79516 0.22639 0.0
C3740 C 0.84553 0.8098 0.24233 0.0
C3741 C 0.90352 0.91634 0.28019 0.0
C3742 C 0.88431 0.92436 0.26872 0.0
C3743 C 0.90629 0.89317 0.28302 0.0
C3744 C 0.88961 0.8782 0.27471 0.0
C3745 C 0.87168 0.88641 0.26123 0.0
C3746 C 0.86903 0.90933 0.25834 0.0
C3747 C 0.88778 0.85502 0.28333 0.0
C3748 C 0.8823 0.83787 0.26759 0.0
C3749 C 0.88607 0.85083 0.30691 0.0
C3750 C 0.88908 0.86876 0.3243 0.0
C3751 C 0.87401 0.88671 0.32496 0.0
C3752 C 0.87694 0.90362 0.34139 0.0
C3753 C 0.8947 0.90257 0.35743 0.0
C3754 C 0.90951 0.88456 0.35712 0.0
C3755 C 0.9067 0.86765 0.34065 0.0
H3756 H 0.89693 0.91566 0.37015 0.0
H3757 H 0.83423 0.76149 0.21282 0.0
H3758 H 0.99647 0.87867 0.95265 0.0
H3759 H 0.03636 0.87087 0.95565 0.0
H3760 H 0.04477 0.90147 0.8903 0.0
H3761 H 0.00462 0.90974 0.88745 0.0
H3762 H 0.07299 0.85454 0.91236 0.0
H3763 H 0.05506 0.93658 0.91843 0.0
H3764 H 0.03164 0.96623 0.93433 0.0
H3765 H 0.04746 0.94267 0.00189 0.0
H3766 H 0.07059 0.91261 0.98632 0.0
H3767 H 0.18845 0.86671 0.93242 0.0
H3768 H 0.15053 0.87384 0.91742 0.0
H3769 H 0.13171 0.89472 0.98434 0.0
H3770 H 0.17008 0.88943 -0.00131 0.0
H3771 H 0.10807 0.91647 0.9582 0.0
H3772 H 0.12311 0.8382 0.95987 0.0
H3773 H 0.14234 0.80269 0.95195 0.0
H3774 H 0.12872 0.81139 0.88035 0.0
H3775 H 0.10963 0.8471 0.88784 0.0
C3776 C 0.0066 0.8826 0.93834 0.0
C3777 C 0.99747 0.89455 0.91969 0.0
C3778 C 0.02943 0.87837 0.9402 0.0
C3779 C 0.0435 0.88587 0.92335 0.0
C3780 C 0.03411 0.89555 0.90347 0.0
C3781 C 0.01115 0.89999 0.90168 0.0
C3782 C 0.06792 0.8865 0.9283 0.0
C3783 C 0.0809 0.86829 0.92186 0.0
C3784 C 0.07781 0.9038 0.94192 0.0
C3785 C 0.06434 0.92223 0.95119 0.0
C3786 C 0.05336 0.93761 0.93665 0.0
C3787 C 0.04017 0.9545 0.94561 0.0
C3788 C 0.03801 0.95629 0.9691 0.0
C3789 C 0.04911 0.94124 0.98369 0.0
C3790 C 0.06226 0.92429 0.97481 0.0
C3791 C 0.17631 0.87352 0.94367 0.0
C3792 C 0.18213 0.87764 0.96665 0.0
C3793 C 0.15451 0.87724 0.93521 0.0
C3794 C 0.13781 0.88404 0.94984 0.0
C3795 C 0.14406 0.88937 0.97258 0.0
C3796 C 0.16606 0.88643 0.98082 0.0
C3797 C 0.11378 0.88456 0.94189 0.0
C3798 C 0.10061 0.90287 0.94812 0.0
C3799 C 0.10351 0.86676 0.929 0.0
C3800 C 0.1152 0.84545 0.92439 0.0
C3801 C 0.12439 0.83263 0.94242 0.0
C3802 C 0.13523 0.81245 0.93802 0.0
C3803 C 0.13682 0.80483 0.91566 0.0
C3804 C 0.12753 0.81734 0.89766 0.0
C3805 C 0.11669 0.83755 0.90197 0.0
H3806 H 0.14519 0.78918 0.91228 0.0
H3807 H 0.02779 0.96938 0.976 0.0
H3808 H 0.16587 0.74896 0.27738 0.0
H3809 H 0.15336 0.71069 0.27195 0.0
H3810 H 0.1426 0.70508 0.34389 0.0
H3811 H 0.15615 0.74413 0.34956 0.0
H3812 H 0.16966 0.67311 0.3285 0.0
H3813 H 0.09832 0.70148 0.30266 0.0
H3814 H 0.07315 0.7266 0.28067 0.0
H3815 H 0.09856 0.70163 0.21833 0.0
H3816 H 0.12407 0.67657 0.2399 0.0
H3817 H 0.12723 0.56352 0.31244 0.0
H3818 H 0.1337 0.60322 0.32068 0.0
H3819 H 0.15323 0.6138 0.25172 0.0
H3820 H 0.1468 0.57363 0.24333 0.0
H3821 H 0.11887 0.64288 0.26695 0.0
H3822 H 0.1917 0.61919 0.28934 0.0
H3823 H 0.21955 0.59467 0.30832 0.0
H3824 H 0.19457 0.61215 0.37338 0.0
H3825 H 0.1663 0.63654 0.35474 0.0
C3826 C 0.16055 0.73971 0.29207 0.0
C3827 C 0.16238 0.7491 0.31396 0.0
C3828 C 0.15301 0.71794 0.28886 0.0
C3829 C 0.14673 0.70516 0.30743 0.0
C3830 C 0.14724 0.71488 0.32933 0.0
C3831 C 0.15492 0.73701 0.33259 0.0
C3832 C 0.14324 0.68088 0.30392 0.0
C3833 C 0.15806 0.66641 0.31553 0.0
C3834 C 0.12898 0.67245 0.28603 0.0
C3835 C 0.11315 0.68712 0.27296 0.0
C3836 C 0.09859 0.70137 0.28427 0.0
C3837 C 0.08426 0.71561 0.27186 0.0
C3838 C 0.08426 0.71571 0.24812 0.0
C3839 C 0.09854 0.70151 0.23672 0.0
C3840 C 0.11289 0.68723 0.24903 0.0
C3841 C 0.13339 0.57423 0.29919 0.0
C3842 C 0.13651 0.56576 0.27728 0.0
C3843 C 0.13704 0.59681 0.30389 0.0
C3844 C 0.14379 0.61125 0.28675 0.0
C3845 C 0.14793 0.60273 0.26506 0.0
C3846 C 0.14452 0.5799 0.26038 0.0
C3847 C 0.14522 0.63542 0.29158 0.0
C3848 C 0.13013 0.64968 0.28017 0.0
C3849 C 0.15952 0.64383 0.30926 0.0
C3850 C 0.17675 0.62953 0.32063 0.0
C3851 C 0.19203 0.61768 0.30769 0.0
C3852 C 0.20792 0.60383 0.31838 0.0
C3853 C 0.2088 0.60181 0.34204 0.0
C3854 C 0.19385 0.61372 0.35505 0.0
C3855 C 0.17791 0.62759 0.34443 0.0
H3856 H 0.22109 0.59105 0.35029 0.0
H3857 H 0.07319 0.72678 0.23856 0.0
H3858 H 0.99433 0.58294 0.9031 0.0
H3859 H 0.95485 0.59095 0.9096 0.0
H3860 H 0.97296 0.61436 0.97735 0.0
H3861 H 0.01199 0.60626 0.97091 0.0
H3862 H 0.9414 0.58339 0.97917 0.0
H3863 H 0.95298 0.65019 0.93684 0.0
H3864 H 0.96459 0.67279 0.90432 0.0
H3865 H 0.91587 0.63906 0.86073 0.0
H3866 H 0.90418 0.61597 0.89297 0.0
H3867 H 0.84076 0.63796 0.01091 0.0
H3868 H 0.8787 0.62977 -0.0004 0.0
H3869 H 0.85225 0.59126 0.94239 0.0
H3870 H 0.8141 0.59884 0.95404 0.0
H3871 H 0.88669 0.62783 0.93316 0.0
H3872 H 0.87451 0.56223 0.97889 0.0
H3873 H 0.86375 0.54204 0.0133 0.0
H3874 H 0.91491 0.57698 0.05272 0.0
H3875 H 0.92575 0.59768 0.01859 0.0
C3876 C 0.9899 0.5907 0.91895 0.0
C3877 C 0.00624 0.59431 0.93637 0.0
C3878 C 0.96731 0.59505 0.9228 0.0
C3879 C 0.96078 0.60306 0.94412 0.0
C3880 C 0.9774 0.60801 0.96087 0.0
C3881 C 0.99979 0.60367 0.95705 0.0
C3882 C 0.93675 0.60469 0.94984 0.0
C3883 C 0.92954 0.59328 0.96915 0.0
C3884 C 0.92103 0.61725 0.93668 0.0
C3885 C 0.92789 0.63115 0.91726 0.0
C3886 C 0.94487 0.64743 0.92028 0.0
C3887 C 0.95145 0.66037 0.90191 0.0
C3888 C 0.94103 0.65731 0.88045 0.0
C3889 C 0.92396 0.64137 0.87736 0.0
C3890 C 0.91734 0.62836 0.89568 0.0
C3891 C 0.84299 0.62733 0.99619 0.0
C3892 C 0.82437 0.61892 0.98348 0.0
C3893 C 0.86471 0.62278 0.98967 0.0
C3894 C 0.86835 0.61008 0.97002 0.0
C3895 C 0.84984 0.60119 0.95755 0.0
C3896 C 0.82805 0.60532 0.96438 0.0
C3897 C 0.89154 0.60662 0.96247 0.0
C3898 C 0.89857 0.61775 0.94294 0.0
C3899 C 0.90725 0.59412 0.97564 0.0
C3900 C 0.90078 0.58169 0.99621 0.0
C3901 C 0.88332 0.56579 0.99493 0.0
C3902 C 0.87724 0.55421 0.01438 0.0
C3903 C 0.88859 0.55827 0.03519 0.0
C3904 C 0.9061 0.57388 0.03659 0.0
C3905 C 0.91223 0.58553 0.01719 0.0
H3906 H 0.88387 0.54928 0.05023 0.0
H3907 H 0.94614 0.66734 0.86625 0.0
H3908 H 0.17967 0.86978 0.2586 0.0
H3909 H 0.18653 0.88484 0.22122 0.0
H3910 H 0.15234 0.82778 0.18991 0.0
H3911 H 0.14732 0.81178 0.22764 0.0
H3912 H 0.18968 0.8305 0.17317 0.0
H3913 H 0.13438 0.88599 0.18486 0.0
H3914 H 0.11526 0.91454 0.20733 0.0
H3915 H 0.17435 0.95572 0.20966 0.0
H3916 H 0.19397 0.92724 0.18757 0.0
H3917 H 0.20156 0.88197 0.06282 0.0
H3918 H 0.18182 0.88229 0.09849 0.0
H3919 H 0.24474 0.883 0.13647 0.0
H3920 H 0.26454 0.88121 0.10081 0.0
H3921 H 0.18889 0.90964 0.14673 0.0
H3922 H 0.24417 0.84264 0.14729 0.0
H3923 H 0.26147 0.81371 0.12365 0.0
H3924 H 0.19696 0.79427 0.09577 0.0
H3925 H 0.17939 0.82358 0.11881 0.0
C3926 C 0.17264 0.86107 0.24374 0.0
C3927 C 0.16274 0.83985 0.24582 0.0
C3928 C 0.17661 0.86965 0.22228 0.0
C3929 C 0.16989 0.85754 0.20258 0.0
C3930 C 0.1578 0.8374 0.20481 0.0
C3931 C 0.15456 0.82843 0.22631 0.0
C3932 C 0.17829 0.86417 0.18015 0.0
C3933 C 0.1891 0.84778 0.16739 0.0
C3934 C 0.17779 0.88671 0.1724 0.0
C3935 C 0.16566 0.90446 0.18456 0.0
C3936 C 0.1433 0.90115 0.19014 0.0
C3937 C 0.13239 0.91729 0.20286 0.0
C3938 C 0.14359 0.93693 0.2099 0.0
C3939 C 0.16569 0.94051 0.20415 0.0
C3940 C 0.1767 0.9244 0.19149 0.0
C3941 C 0.21113 0.883 0.0788 0.0
C3942 C 0.23445 0.8814 0.07932 0.0
C3943 C 0.19986 0.88321 0.09909 0.0
C3944 C 0.21191 0.88239 0.11994 0.0
C3945 C 0.23527 0.88342 0.12043 0.0
C3946 C 0.24653 0.88244 0.10017 0.0
C3947 C 0.2004 0.8761 0.1406 0.0
C3948 C 0.18906 0.89243 0.15273 0.0
C3949 C 0.20004 0.85349 0.14771 0.0
C3950 C 0.21054 0.83545 0.13448 0.0
C3951 C 0.23372 0.8323 0.13599 0.0
C3952 C 0.24357 0.81587 0.12268 0.0
C3953 C 0.23033 0.80223 0.10813 0.0
C3954 C 0.20721 0.80494 0.10694 0.0
C3955 C 0.19731 0.8215 0.12006 0.0
H3956 H 0.23797 0.78952 0.09784 0.0
H3957 H 0.13515 0.94939 0.21978 0.0
H3958 H 0.15126 0.16124 0.24293 0.0
H3959 H 0.15689 0.13841 0.27744 0.0
H3960 H 0.21631 0.17689 0.29515 0.0
H3961 H 0.21121 0.19869 0.26061 0.0
H3962 H 0.22365 0.13067 0.29396 0.0
H3963 H 0.1738 0.18504 0.32543 0.0
H3964 H 0.13878 0.2063 0.32707 0.0
H3965 H 0.10174 0.14457 0.33152 0.0
H3966 H 0.13661 0.12294 0.32977 0.0
H3967 H 0.25451 0.13552 0.40797 0.0
H3968 H 0.24495 0.13503 0.36751 0.0
H3969 H 0.18944 0.09046 0.37913 0.0
H3970 H 0.19872 0.09183 0.42019 0.0
H3971 H 0.17573 0.1277 0.36055 0.0
H3972 H 0.23315 0.0762 0.3417 0.0
H3973 H 0.27109 0.06055 0.34388 0.0
H3974 H 0.29744 0.12227 0.31816 0.0
H3975 H 0.25976 0.13841 0.3161 0.0
C3976 C 0.16552 0.16446 0.25411 0.0
C3977 C 0.1812 0.18089 0.24861 0.0
C3978 C 0.16862 0.15173 0.27389 0.0
C3979 C 0.18742 0.15562 0.28835 0.0
C3980 C 0.202 0.17334 0.28385 0.0
C3981 C 0.19886 0.18596 0.26423 0.0
C3982 C 0.19269 0.14097 0.30787 0.0
C3983 C 0.21318 0.12977 0.30854 0.0
C3984 C 0.1787 0.13951 0.32645 0.0
C3985 C 0.15772 0.15239 0.32723 0.0
C3986 C 0.15816 0.17601 0.32657 0.0
C3987 C 0.13837 0.18812 0.32761 0.0
C3988 C 0.11806 0.17679 0.32945 0.0
C3989 C 0.1175 0.15332 0.33016 0.0
C3990 C 0.13727 0.14112 0.32917 0.0
C3991 C 0.24091 0.12481 0.40169 0.0
C3992 C 0.22731 0.11368 0.41681 0.0
C3993 C 0.2355 0.12437 0.37853 0.0
C3994 C 0.21653 0.11255 0.37019 0.0
C3995 C 0.20419 0.09959 0.38522 0.0
C3996 C 0.2095 0.10026 0.40855 0.0
C3997 C 0.20727 0.11791 0.34721 0.0
C3998 C 0.18592 0.12751 0.34573 0.0
C3999 C 0.22084 0.11842 0.3281 0.0
C4000 C 0.24353 0.10849 0.32867 0.0
C4001 C 0.24702 0.08645 0.33652 0.0
C4002 C 0.26851 0.0775 0.33775 0.0
C4003 C 0.28666 0.0904 0.33113 0.0
C4004 C 0.28336 0.11226 0.32321 0.0
C4005 C 0.26192 0.12129 0.32193 0.0
H4006 H 0.30328 0.08345 0.33216 0.0
H4007 H 0.10275 0.18619 0.33031 0.0
H4008 H 0.37502 0.54923 0.00845 0.0
H4009 H 0.36074 0.5464 0.96913 0.0
H4010 H 0.40023 0.60409 0.95159 0.0
H4011 H 0.41462 0.60696 0.99121 0.0
H4012 H 0.34857 0.58457 0.92466 0.0
H4013 H 0.43153 0.57462 0.94048 0.0
H4014 H 0.46145 0.5625 0.96764 0.0
H4015 H 0.42889 0.49853 0.97452 0.0
H4016 H 0.39862 0.51048 0.94767 0.0
H4017 H 0.36889 0.5448 0.81172 0.0
H4018 H 0.36475 0.56345 0.84825 0.0
H4019 H 0.37877 0.50078 0.88265 0.0
H4020 H 0.38513 0.48282 0.84598 0.0
H4021 H 0.40366 0.52847 0.90045 0.0
H4022 H 0.32363 0.53415 0.88384 0.0
H4023 H 0.28891 0.54442 0.86279 0.0
H4024 H 0.31128 0.61302 0.85953 0.0
H4025 H 0.34598 0.60317 0.88101 0.0
C4026 C 0.37967 0.56205 0.99646 0.0
C4027 C 0.39589 0.57824 0.00262 0.0
C4028 C 0.37144 0.56048 0.97405 0.0
C4029 C 0.3796 0.57491 0.95752 0.0
C4030 C 0.39365 0.59292 0.96421 0.0
C4031 C 0.40187 0.59455 0.98679 0.0
C4032 C 0.37871 0.56696 0.93372 0.0
C4033 C 0.36079 0.57268 0.91901 0.0
C4034 C 0.39425 0.55089 0.92681 0.0
C4035 C 0.41283 0.54347 0.94224 0.0
C4036 C 0.43076 0.55801 0.94786 0.0
C4037 C 0.44775 0.55118 0.9632 0.0
C4038 C 0.44705 0.52977 0.97283 0.0
C4039 C 0.4294 0.51511 0.96707 0.0
C4040 C 0.41234 0.5219 0.9518 0.0
C4041 C 0.37044 0.53491 0.82713 0.0
C4042 C 0.37726 0.51241 0.8262 0.0
C4043 C 0.36792 0.54557 0.84807 0.0
C4044 C 0.37136 0.53365 0.86846 0.0
C4045 C 0.37628 0.51053 0.86726 0.0
C4046 C 0.37971 0.50014 0.84635 0.0
C4047 C 0.37306 0.5456 0.89083 0.0
C4048 C 0.39138 0.5406 0.90553 0.0
C4049 C 0.35769 0.56216 0.89763 0.0
C4050 C 0.33745 0.56786 0.88376 0.0
C4051 C 0.32122 0.55136 0.87841 0.0
C4052 C 0.3015 0.55715 0.8665 0.0
C4053 C 0.29793 0.57935 0.85967 0.0
C4054 C 0.31407 0.59583 0.86479 0.0
C4055 C 0.3337 0.59018 0.87693 0.0
H4056 H 0.28261 0.58384 0.85052 0.0
H4057 H 0.46019 0.52453 0.98472 0.0
H4058 H 0.83044 0.29086 0.27766 0.0
H4059 H 0.82234 0.30491 0.31536 0.0
H4060 H 0.8345 0.37275 0.29343 0.0
H4061 H 0.84115 0.35895 0.2551 0.0
H4062 H 0.84795 0.35196 0.34599 0.0
H4063 H 0.79137 0.37219 0.28796 0.0
H4064 H 0.76669 0.36502 0.2542 0.0
H4065 H 0.73576 0.31015 0.28841 0.0
H4066 H 0.76084 0.31652 0.32213 0.0
H4067 H 0.76931 0.40941 0.41818 0.0
H4068 H 0.78719 0.39918 0.383 0.0
H4069 H 0.781 0.32899 0.39974 0.0
H4070 H 0.76381 0.3391 0.43556 0.0
H4071 H 0.76541 0.35396 0.34929 0.0
H4072 H 0.8237 0.33326 0.40661 0.0
H4073 H 0.84815 0.34134 0.44035 0.0
H4074 H 0.87485 0.39914 0.40716 0.0
H4075 H 0.85012 0.39167 0.3734 0.0
C4076 C 0.8322 0.30871 0.28104 0.0
C4077 C 0.83621 0.32389 0.26338 0.0
C4078 C 0.82754 0.31667 0.30256 0.0
C4079 C 0.82743 0.3398 0.30679 0.0
C4080 C 0.83443 0.35481 0.29021 0.0
C4081 C 0.83858 0.34689 0.26843 0.0
C4082 C 0.8167 0.34804 0.32713 0.0
C4083 C 0.82994 0.35273 0.34668 0.0
C4084 C 0.79317 0.3487 0.32786 0.0
C4085 C 0.7784 0.34449 0.30738 0.0
C4086 C 0.77969 0.35826 0.28811 0.0
C4087 C 0.76554 0.35441 0.26901 0.0
C4088 C 0.74976 0.33705 0.2691 0.0
C4089 C 0.7481 0.32351 0.28831 0.0
C4090 C 0.76232 0.32719 0.30739 0.0
C4091 C 0.7716 0.39178 0.41428 0.0
C4092 C 0.7652 0.37498 0.42948 0.0
C4093 C 0.78189 0.38603 0.39432 0.0
C4094 C 0.78553 0.36343 0.38913 0.0
C4095 C 0.77846 0.34654 0.40379 0.0
C4096 C 0.76866 0.3523 0.42409 0.0
C4097 C 0.79667 0.35758 0.36821 0.0
C4098 C 0.78343 0.35335 0.34853 0.0
C4099 C 0.82014 0.35752 0.36733 0.0
C4100 C 0.83476 0.36217 0.38769 0.0
C4101 C 0.83448 0.34792 0.40667 0.0
C4102 C 0.84846 0.35233 0.42576 0.0
C4103 C 0.86297 0.37081 0.42595 0.0
C4104 C 0.86354 0.38489 0.40703 0.0
C4105 C 0.84953 0.38059 0.38793 0.0
H4106 H 0.87383 0.37416 0.44072 0.0
H4107 H 0.73874 0.33417 0.25434 0.0
H4108 H 0.12248 0.46451 0.50796 0.0
H4109 H 0.13249 0.46775 0.46835 0.0
H4110 H 0.10659 0.40107 0.45468 0.0
H4111 H 0.09678 0.39763 0.49474 0.0
H4112 H 0.14734 0.42057 0.42633 0.0
H4113 H 0.07015 0.43063 0.44462 0.0
H4114 H 0.04067 0.44373 0.4694 0.0
H4115 H 0.0642 0.51168 0.46339 0.0
H4116 H 0.09408 0.49889 0.43888 0.0
H4117 H 0.10654 0.45907 0.31213 0.0
H4118 H 0.10138 0.44344 0.35006 0.0
H4119 H 0.14414 0.49516 0.37962 0.0
H4120 H 0.15012 0.51042 0.34167 0.0
H4121 H 0.0923 0.47678 0.39761 0.0
H4122 H 0.17317 0.46375 0.38384 0.0
H4123 H 0.2024 0.44951 0.35937 0.0
H4124 H 0.16989 0.385 0.35579 0.0
H4125 H 0.1402 0.39908 0.37989 0.0
C4126 C 0.12 0.4501 0.49678 0.0
C4127 C 0.10881 0.43089 0.50419 0.0
C4128 C 0.12568 0.45197 0.47419 0.0
C4129 C 0.11996 0.43478 0.45864 0.0
C4130 C 0.11119 0.41445 0.46653 0.0
C4131 C 0.10567 0.41248 0.48937 0.0
C4132 C 0.11874 0.44037 0.43421 0.0
C4133 C 0.1351 0.43253 0.4199 0.0
C4134 C 0.10269 0.45592 0.42586 0.0
C4135 C 0.08443 0.46379 0.44009 0.0
C4136 C 0.06912 0.44834 0.44872 0.0
C4137 C 0.05233 0.45571 0.4627 0.0
C4138 C 0.05059 0.47852 0.46801 0.0
C4139 C 0.06558 0.49402 0.45928 0.0
C4140 C 0.08243 0.48672 0.44532 0.0
C4141 C 0.11445 0.46742 0.32677 0.0
C4142 C 0.12877 0.48594 0.32403 0.0
C4143 C 0.11166 0.45832 0.34833 0.0
C4144 C 0.1228 0.46791 0.36739 0.0
C4145 C 0.13577 0.48736 0.36493 0.0
C4146 C 0.13901 0.49614 0.34334 0.0
C4147 C 0.12124 0.45749 0.38993 0.0
C4148 C 0.10427 0.46448 0.40388 0.0
C4149 C 0.13652 0.44097 0.39775 0.0
C4150 C 0.15429 0.43257 0.38328 0.0
C4151 C 0.17208 0.44664 0.37754 0.0
C4152 C 0.18877 0.43858 0.36381 0.0
C4153 C 0.18796 0.41639 0.35593 0.0
C4154 C 0.17046 0.40221 0.36182 0.0
C4155 C 0.15369 0.41023 0.37549 0.0
H4156 H 0.20092 0.41016 0.34534 0.0
H4157 H 0.03759 0.48419 0.47884 0.0
H4158 H 0.33919 0.14915 0.74759 0.0
H4159 H 0.33156 0.13908 0.70756 0.0
H4160 H 0.27419 0.18236 0.70545 0.0
H4161 H 0.28208 0.19312 0.74489 0.0
H4162 H 0.26743 0.13709 0.6867 0.0
H4163 H 0.31386 0.20305 0.68288 0.0
H4164 H 0.34702 0.22651 0.69213 0.0
H4165 H 0.38904 0.17609 0.66431 0.0
H4166 H 0.3561 0.15215 0.65521 0.0
H4167 H 0.2482 0.14556 0.56598 0.0
H4168 H 0.25465 0.15605 0.60606 0.0
H4169 H 0.31483 0.11676 0.609 0.0
H4170 H 0.30855 0.10612 0.56923 0.0
H4171 H 0.31937 0.16047 0.62749 0.0
H4172 H 0.27213 0.09477 0.63043 0.0
H4173 H 0.23862 0.07174 0.62134 0.0
H4174 H 0.19754 0.12208 0.65066 0.0
H4175 H 0.23079 0.14559 0.65962 0.0
C4176 C 0.32519 0.15673 0.73849 0.0
C4177 C 0.31154 0.17225 0.74916 0.0
C4178 C 0.32075 0.15085 0.71578 0.0
C4179 C 0.30237 0.1601 0.70382 0.0
C4180 C 0.28842 0.17512 0.71458 0.0
C4181 C 0.29308 0.18132 0.73703 0.0
C4182 C 0.29792 0.15463 0.67979 0.0
C4183 C 0.27861 0.14232 0.67365 0.0
C4184 C 0.31272 0.16143 0.66309 0.0
C4185 C 0.33256 0.17569 0.66866 0.0
C4186 C 0.33019 0.19684 0.67898 0.0
C4187 C 0.34894 0.21026 0.68414 0.0
C4188 C 0.37013 0.20276 0.67889 0.0
C4189 C 0.37261 0.18185 0.66842 0.0
C4190 C 0.35391 0.16836 0.66326 0.0
C4191 C 0.26288 0.13934 0.57516 0.0
C4192 C 0.27785 0.12499 0.56462 0.0
C4193 C 0.26644 0.1452 0.59798 0.0
C4194 C 0.28508 0.13695 0.61029 0.0
C4195 C 0.30032 0.12316 0.59964 0.0
C4196 C 0.29668 0.1171 0.57699 0.0
C4197 C 0.28896 0.14272 0.63433 0.0
C4198 C 0.30816 0.15518 0.64049 0.0
C4199 C 0.27398 0.1361 0.651 0.0
C4200 C 0.25393 0.12208 0.64542 0.0
C4201 C 0.25593 0.10106 0.6347 0.0
C4202 C 0.23698 0.08788 0.62963 0.0
C4203 C 0.21595 0.09547 0.63535 0.0
C4204 C 0.21383 0.11624 0.64619 0.0
C4205 C 0.23272 0.12949 0.65128 0.0
H4206 H 0.20131 0.08524 0.63144 0.0
H4207 H 0.38463 0.21318 0.68287 0.0
H4208 H 0.38054 0.44825 0.48291 0.0
H4209 H 0.37018 0.45721 0.52168 0.0
H4210 H 0.41357 0.40512 0.54762 0.0
H4211 H 0.42453 0.39664 0.50875 0.0
H4212 H 0.36985 0.4149 0.57305 0.0
H4213 H 0.43802 0.44733 0.54661 0.0
H4214 H 0.4607 0.46693 0.51875 0.0
H4215 H 0.41831 0.52457 0.52208 0.0
H4216 H 0.39502 0.50504 0.54956 0.0
H4217 H 0.39913 0.46313 0.68279 0.0
H4218 H 0.40421 0.44716 0.64487 0.0
H4219 H 0.36388 0.49975 0.61496 0.0
H4220 H 0.35805 0.51537 0.6529 0.0
H4221 H 0.40609 0.48829 0.59198 0.0
H4222 H 0.33872 0.45628 0.61966 0.0
H4223 H 0.31544 0.43622 0.64667 0.0
H4224 H 0.35628 0.37765 0.64106 0.0
H4225 H 0.38014 0.39757 0.61451 0.0
C4226 C 0.38684 0.43782 0.49674 0.0
C4227 C 0.40301 0.42147 0.4928 0.0
C4228 C 0.38112 0.44314 0.51894 0.0
C4229 C 0.39129 0.432 0.53755 0.0
C4230 C 0.40546 0.41386 0.53349 0.0
C4231 C 0.41153 0.40883 0.51125 0.0
C4232 C 0.39014 0.44182 0.56077 0.0
C4233 C 0.37799 0.43078 0.57731 0.0
C4234 C 0.40054 0.46272 0.56624 0.0
C4235 C 0.41457 0.47458 0.54985 0.0
C4236 C 0.43335 0.46406 0.54117 0.0
C4237 C 0.44635 0.47518 0.52548 0.0
C4238 C 0.44089 0.49695 0.51857 0.0
C4239 C 0.42246 0.50767 0.52739 0.0
C4240 C 0.40934 0.49657 0.543 0.0
C4241 C 0.39177 0.47162 0.6681 0.0
C4242 C 0.37827 0.49062 0.67085 0.0
C4243 C 0.3945 0.46232 0.64647 0.0
C4244 C 0.38422 0.47213 0.62713 0.0
C4245 C 0.37188 0.49187 0.62967 0.0
C4246 C 0.36866 0.50084 0.65134 0.0
C4247 C 0.38574 0.46143 0.60434 0.0
C4248 C 0.398 0.47235 0.58782 0.0
C4249 C 0.37551 0.44041 0.59899 0.0
C4250 C 0.36145 0.42856 0.61537 0.0
C4251 C 0.34297 0.43926 0.62449 0.0
C4252 C 0.32961 0.42789 0.63968 0.0
C4253 C 0.33443 0.40571 0.6457 0.0
C4254 C 0.35261 0.39487 0.63653 0.0
C4255 C 0.36608 0.4062 0.62142 0.0
H4256 H 0.32399 0.39692 0.65738 0.0
H4257 H 0.45099 0.50555 0.50645 0.0
H4258 H 0.62558 0.05959 0.49069 0.0
H4259 H 0.64038 0.0557 0.52988 0.0
H4260 H 0.58536 0.09415 0.55382 0.0
H4261 H 0.56997 0.09705 0.51477 0.0
H4262 H 0.64483 0.084 0.57821 0.0
H4263 H 0.55952 0.06066 0.57033 0.0
H4264 H 0.52953 0.04932 0.54255 0.0
H4265 H 0.57389 0.00306 0.51155 0.0
H4266 H 0.60418 0.01444 0.53901 0.0
H4267 H 0.62079 0.04175 0.68767 0.0
H4268 H 0.62243 0.0606 0.65113 0.0
H4269 H 0.62254 0.9961 0.61709 0.0
H4270 H 0.61887 0.97727 0.65391 0.0
H4271 H 0.59382 0.02133 0.59733 0.0
H4272 H 0.66971 0.03465 0.62497 0.0
H4273 H 0.69615 0.0474 0.65544 0.0
H4274 H 0.67122 0.1146 0.64932 0.0
H4275 H 0.64397 0.10211 0.61935 0.0
C4276 C 0.6173 0.06812 0.50426 0.0
C4277 C 0.59664 0.07841 0.50002 0.0
C4278 C 0.62585 0.06606 0.52657 0.0
C4279 C 0.61385 0.07452 0.54466 0.0
C4280 C 0.59485 0.08759 0.54002 0.0
C4281 C 0.586 0.08912 0.5178 0.0
C4282 C 0.6166 0.06372 0.56708 0.0
C4283 C 0.63376 0.07034 0.58259 0.0
C4284 C 0.60225 0.04583 0.57253 0.0
C4285 C 0.58396 0.03831 0.55665 0.0
C4286 C 0.56276 0.04797 0.55765 0.0
C4287 C 0.54578 0.04164 0.54191 0.0
C4288 C 0.5498 0.02546 0.52531 0.0
C4289 C 0.57081 0.01559 0.52441 0.0
C4290 C 0.58789 0.02201 0.54001 0.0
C4291 C 0.6217 0.03164 0.67236 0.0
C4292 C 0.62011 0.00816 0.67337 0.0
C4293 C 0.62274 0.04241 0.6515 0.0
C4294 C 0.62314 0.02982 0.63131 0.0
C4295 C 0.6224 0.00618 0.63246 0.0
C4296 C 0.62052 0.9954 0.65338 0.0
C4297 C 0.62225 0.0413 0.60897 0.0
C4298 C 0.60524 0.0348 0.59323 0.0
C4299 C 0.63673 0.05939 0.60366 0.0
C4300 C 0.65462 0.06737 0.62001 0.0
C4301 C 0.66979 0.05214 0.63015 0.0
C4302 C 0.68476 0.05927 0.64754 0.0
C4303 C 0.68522 0.08174 0.65452 0.0
C4304 C 0.67079 0.09717 0.64398 0.0
C4305 C 0.65552 0.09006 0.62681 0.0
H4306 H 0.69693 0.08722 0.66791 0.0
H4307 H 0.53664 0.02058 0.51313 0.0
H4308 H 0.72041 0.6648 0.30364 0.0
H4309 H 0.68596 0.6706 0.32366 0.0
H4310 H 0.72405 0.69994 0.38026 0.0
H4311 H 0.75847 0.69224 0.36106 0.0
H4312 H 0.68847 0.68558 0.39602 0.0
H4313 H 0.70413 0.73149 0.33234 0.0
H4314 H 0.71259 0.74102 0.29284 0.0
H4315 H 0.65053 0.71134 0.269 0.0
H4316 H 0.64186 0.70128 0.30831 0.0
H4317 H 0.58093 0.76004 0.38357 0.0
H4318 H 0.62148 0.75397 0.38465 0.0
H4319 H 0.61028 0.6823 0.38378 0.0
H4320 H 0.57007 0.6883 0.38205 0.0
H4321 H 0.63533 0.72598 0.34421 0.0
H4322 H 0.63909 0.66799 0.41585 0.0
H4323 H 0.63061 0.66706 0.45663 0.0
H4324 H 0.65738 0.7338 0.46549 0.0
H4325 H 0.66575 0.73511 0.42475 0.0
C4326 C 0.72139 0.6712 0.32092 0.0
C4327 C 0.74188 0.67809 0.33092 0.0
C4328 C 0.70174 0.67496 0.33218 0.0
C4329 C 0.70238 0.68675 0.35296 0.0
C4330 C 0.72308 0.69112 0.36411 0.0
C4331 C 0.74277 0.68655 0.35321 0.0
C4332 C 0.68183 0.69692 0.36154 0.0
C4333 C 0.67697 0.69442 0.38459 0.0
C4334 C 0.66719 0.70958 0.34706 0.0
C4335 C 0.67244 0.71545 0.32331 0.0
C4336 C 0.69236 0.72684 0.31867 0.0
C4337 C 0.69719 0.73235 0.29631 0.0
C4338 C 0.68212 0.72676 0.27842 0.0
C4339 C 0.6622 0.71564 0.28287 0.0
C4340 C 0.65732 0.71003 0.30519 0.0
C4341 C 0.58726 0.74306 0.3847 0.0
C4342 C 0.57265 0.72458 0.38271 0.0
C4343 C 0.61031 0.73962 0.38523 0.0
C4344 C 0.61872 0.71771 0.38438 0.0
C4345 C 0.60406 0.69931 0.38481 0.0
C4346 C 0.58114 0.70272 0.3838 0.0
C4347 C 0.6418 0.71359 0.37807 0.0
C4348 C 0.64713 0.7173 0.35547 0.0
C4349 C 0.6572 0.70293 0.39298 0.0
C4350 C 0.65313 0.70157 0.41747 0.0
C4351 C 0.64328 0.68235 0.4266 0.0
C4352 C 0.63841 0.68181 0.44964 0.0
C4353 C 0.64349 0.70034 0.46365 0.0
C4354 C 0.65347 0.71946 0.45465 0.0
C4355 C 0.65824 0.72012 0.43161 0.0
H4356 H 0.63966 0.69992 0.48146 0.0
H4357 H 0.68587 0.73107 0.26113 0.0
H4358 H 0.90348 0.99671 0.89167 0.0
H4359 H 0.90417 0.03529 0.87598 0.0
H4360 H 0.97519 0.03866 0.88954 0.0
H4361 H 0.97475 0.00101 0.9049 0.0
H4362 H 0.94149 0.07295 0.91167 0.0
H4363 H 0.96777 0.03554 0.84155 0.0
H4364 H 0.96062 0.01082 0.80826 0.0
H4365 H 0.90414 0.05076 0.78749 0.0
H4366 H 0.91087 0.07558 0.82086 0.0
H4367 H 0.014 0.15634 0.88978 0.0
H4368 H 0.99715 0.11903 0.88607 0.0
H4369 H 0.94249 0.14633 0.84551 0.0
H4370 H 0.95971 0.18394 0.84873 0.0
H4371 H 0.95397 0.10008 0.83352 0.0
H4372 H 0.93428 0.14309 0.89834 0.0
H4373 H 0.94152 0.16792 0.93151 0.0
H4374 H 0.98282 0.11747 0.96324 0.0
H4375 H 0.97619 0.0925 0.93007 0.0
C4376 C 0.91922 0.00563 0.89091 0.0
C4377 C 0.93898 0.99597 0.9 0.0
C4378 C 0.9196 0.02758 0.88191 0.0
C4379 C 0.93977 0.03978 0.88168 0.0
C4380 C 0.95948 0.02956 0.88957 0.0
C4381 C 0.95912 0.00801 0.89852 0.0
C4382 C 0.94091 0.06405 0.8762 0.0
C4383 C 0.94385 0.079 0.89455 0.0
C4384 C 0.94351 0.07202 0.85385 0.0
C4385 C 0.93963 0.05718 0.83383 0.0
C4386 C 0.9537 0.0389 0.83002 0.0
C4387 C 0.94977 0.02492 0.8111 0.0
C4388 C 0.93189 0.02917 0.79581 0.0
C4389 C 0.91796 0.04746 0.79937 0.0
C4390 C 0.92183 0.06149 0.81827 0.0
C4391 C 0.99882 0.1543 0.87936 0.0
C4392 C 0.98808 0.17308 0.86973 0.0
C4393 C 0.98913 0.13297 0.87733 0.0
C4394 C 0.96827 0.12998 0.86601 0.0
C4395 C 0.95853 0.14828 0.85443 0.0
C4396 C 0.96843 0.16973 0.85622 0.0
C4397 C 0.9558 0.10858 0.86921 0.0
C4398 C 0.95078 0.09433 0.85055 0.0
C4399 C 0.95114 0.10116 0.89138 0.0
C4400 C 0.95478 0.11594 0.91164 0.0
C4401 C 0.94499 0.13733 0.91233 0.0
C4402 C 0.94899 0.15144 0.93114 0.0
C4403 C 0.96263 0.14429 0.94946 0.0
C4404 C 0.97225 0.12298 0.94904 0.0
C4405 C 0.96835 0.10883 0.93025 0.0
H4406 H 0.96572 0.15524 0.96399 0.0
H4407 H 0.92888 0.01833 0.78118 0.0
H4408 H 0.23912 0.80497 0.35904 0.0
H4409 H 0.27711 0.79393 0.36982 0.0
H4410 H 0.30216 0.83632 0.31702 0.0
H4411 H 0.26386 0.84593 0.30519 0.0
H4412 H 0.31806 0.79642 0.31285 0.0
H4413 H 0.30961 0.84582 0.3789 0.0
H4414 H 0.29021 0.85809 0.41295 0.0
H4415 H 0.29824 0.79245 0.44208 0.0
H4416 H 0.31741 0.77973 0.40809 0.0
H4417 H 0.43405 0.79168 0.3391 0.0
H4418 H 0.3948 0.80054 0.3305 0.0
H4419 H 0.37544 0.75812 0.3859 0.0
H4420 H 0.41475 0.75049 0.39523 0.0
H4421 H 0.35553 0.79488 0.3894 0.0
H4422 H 0.36491 0.74472 0.32787 0.0
H4423 H 0.38319 0.72872 0.29475 0.0
H4424 H 0.37145 0.78973 0.25764 0.0
H4425 H 0.35352 0.80631 0.29069 0.0
C4426 C 0.25284 0.81271 0.35048 0.0
C4427 C 0.24874 0.82652 0.33155 0.0
C4428 C 0.27459 0.80629 0.35653 0.0
C4429 C 0.29262 0.81433 0.34428 0.0
C4430 C 0.28854 0.82978 0.32664 0.0
C4431 C 0.26675 0.83561 0.32013 0.0
C4432 C 0.31536 0.80511 0.34827 0.0
C4433 C 0.32642 0.79644 0.32954 0.0
C4434 C 0.32577 0.80385 0.37022 0.0
C4435 C 0.31483 0.81181 0.3909 0.0
C4436 C 0.30719 0.83401 0.39255 0.0
C4437 C 0.29622 0.84103 0.41183 0.0
C4438 C 0.29297 0.82605 0.42965 0.0
C4439 C 0.30076 0.80404 0.42827 0.0
C4440 C 0.31171 0.79693 0.40902 0.0
C4441 C 0.42127 0.78398 0.34905 0.0
C4442 C 0.42709 0.77042 0.3677 0.0
C4443 C 0.39889 0.78894 0.34414 0.0
C4444 C 0.38209 0.77986 0.35746 0.0
C4445 C 0.38805 0.76541 0.37546 0.0
C4446 C 0.41042 0.76093 0.38069 0.0
C4447 C 0.35855 0.78688 0.35386 0.0
C4448 C 0.34725 0.79491 0.37267 0.0
C4449 C 0.34773 0.78699 0.33207 0.0
C4450 C 0.35801 0.77685 0.31188 0.0
C4451 C 0.36633 0.7548 0.3127 0.0
C4452 C 0.37664 0.74562 0.29393 0.0
C4453 C 0.37851 0.75822 0.27412 0.0
C4454 C 0.37001 0.78 0.27301 0.0
C4455 C 0.35976 0.7893 0.29176 0.0
H4456 H 0.38652 0.75109 0.25962 0.0
H4457 H 0.28444 0.83151 0.44454 0.0
H4458 H 0.05101 0.51254 0.87655 0.0
H4459 H 0.04278 0.47287 0.869 0.0
H4460 H 0.09612 0.45408 0.91616 0.0
H4461 H 0.10431 0.49396 0.92379 0.0
H4462 H 0.08883 0.42274 0.87885 0.0
H4463 H 0.04948 0.45834 0.93721 0.0
H4464 H 0.02714 0.48754 0.95521 0.0
H4465 H 0.97323 0.47503 0.90655 0.0
H4466 H 0.99545 0.44606 0.88792 0.0
H4467 H 0.03642 0.31575 0.89934 0.0
H4468 H 0.05245 0.353 0.9083 0.0
H4469 H 0.00476 0.38331 0.86129 0.0
H4470 H 0.98898 0.34625 0.85199 0.0
H4471 H 0.01183 0.40756 0.9029 0.0
H4472 H 0.05424 0.37282 0.84356 0.0
H4473 H 0.07739 0.34299 0.82768 0.0
H4474 H 0.12636 0.35276 0.88209 0.0
H4475 H 0.10332 0.38246 0.89847 0.0
C4476 C 0.06188 0.49997 0.88421 0.0
C4477 C 0.07858 0.50633 0.90041 0.0
C4478 C 0.05691 0.47728 0.8802 0.0
C4479 C 0.06853 0.4605 0.89238 0.0
C4480 C 0.08693 0.46673 0.9066 0.0
C4481 C 0.09183 0.48953 0.91069 0.0
C4482 C 0.05943 0.43715 0.89257 0.0
C4483 C 0.07212 0.41936 0.8844 0.0
C4484 C 0.03766 0.43265 0.89997 0.0
C4485 C 0.02426 0.45021 0.91098 0.0
C4486 C 0.03297 0.462 0.93016 0.0
C4487 C 0.02031 0.47848 0.94051 0.0
C4488 C 0.99881 0.48319 0.93199 0.0
C4489 C 0.98992 0.47141 0.9131 0.0
C4490 C 0.00254 0.45496 0.90263 0.0
C4491 C 0.029 0.33042 0.89135 0.0
C4492 C 0.0114 0.32806 0.87496 0.0
C4493 C 0.03832 0.35166 0.89632 0.0
C4494 C 0.02998 0.37091 0.88524 0.0
C4495 C 0.01152 0.3687 0.86998 0.0
C4496 C 0.00248 0.34751 0.86472 0.0
C4497 C 0.04094 0.39328 0.88854 0.0
C4498 C 0.0286 0.4109 0.8975 0.0
C4499 C 0.06312 0.39749 0.88221 0.0
C4500 C 0.07694 0.37966 0.87238 0.0
C4501 C 0.06984 0.36846 0.85225 0.0
C4502 C 0.08296 0.3516 0.84314 0.0
C4503 C 0.1033 0.34593 0.85391 0.0
C4504 C 0.11058 0.35714 0.87379 0.0
C4505 C 0.0975 0.37398 0.88299 0.0
H4506 H 0.11344 0.33289 0.84683 0.0
H4507 H 0.98901 0.49593 0.94006 0.0
H4508 H 0.74363 0.36062 0.17416 0.0
H4509 H 0.70694 0.35199 0.15575 0.0
H4510 H 0.723 0.2813 0.1561 0.0
H4511 H 0.75967 0.29009 0.173 0.0
H4512 H 0.70064 0.28841 0.11988 0.0
H4513 H 0.69149 0.30498 0.19748 0.0
H4514 H 0.6949 0.32635 0.23346 0.0
H4515 H 0.65667 0.38004 0.20336 0.0
H4516 H 0.65328 0.35907 0.16708 0.0
H4517 H 0.58826 0.24521 0.12603 0.0
H4518 H 0.62802 0.25483 0.12805 0.0
H4519 H 0.61179 0.32493 0.11915 0.0
H4520 H 0.57209 0.31534 0.11842 0.0
H4521 H 0.63463 0.31804 0.15781 0.0
H4522 H 0.64466 0.29305 0.07821 0.0
H4523 H 0.64137 0.26459 0.04769 0.0
H4524 H 0.67636 0.21698 0.09021 0.0
H4525 H 0.6804 0.24541 0.1208 0.0
C4526 C 0.73934 0.3434 0.16969 0.0
C4527 C 0.75427 0.32599 0.17463 0.0
C4528 C 0.71844 0.33841 0.15942 0.0
C4529 C 0.71214 0.31592 0.15476 0.0
C4530 C 0.72747 0.29873 0.15929 0.0
C4531 C 0.74835 0.30376 0.16904 0.0
C4532 C 0.68921 0.30992 0.1466 0.0
C4533 C 0.6862 0.29495 0.12815 0.0
C4534 C 0.67037 0.31786 0.15774 0.0
C4535 C 0.67238 0.3306 0.17948 0.0
C4536 C 0.68397 0.32143 0.19848 0.0
C4537 C 0.68587 0.33344 0.21893 0.0
C4538 C 0.67607 0.35457 0.22067 0.0
C4539 C 0.66429 0.36369 0.20197 0.0
C4540 C 0.66237 0.35175 0.18146 0.0
C4541 C 0.59334 0.26252 0.12359 0.0
C4542 C 0.57743 0.27961 0.12209 0.0
C4543 C 0.61603 0.26803 0.1247 0.0
C4544 C 0.62289 0.29064 0.12375 0.0
C4545 C 0.60685 0.30741 0.11999 0.0
C4546 C 0.58425 0.30196 0.11944 0.0
C4547 C 0.64601 0.2973 0.13051 0.0
C4548 C 0.64905 0.31204 0.14911 0.0
C4549 C 0.66484 0.28817 0.12029 0.0
C4550 C 0.66275 0.27131 0.10175 0.0
C4551 C 0.65163 0.27651 0.08102 0.0
C4552 C 0.64963 0.26038 0.06372 0.0
C4553 C 0.65843 0.23891 0.06705 0.0
C4554 C 0.66953 0.23361 0.08763 0.0
C4555 C 0.67183 0.24977 0.10489 0.0
H4556 H 0.65674 0.22642 0.05365 0.0
H4557 H 0.67755 0.36385 0.23652 0.0
H4558 H 0.5729 0.98779 0.11677 0.0
H4559 H 0.56581 0.02676 0.12838 0.0
H4560 H 0.58013 0.04953 0.06102 0.0
H4561 H 0.58693 0.01076 0.04943 0.0
H4562 H 0.59305 0.08122 0.09414 0.0
H4563 H 0.52852 0.03563 0.07238 0.0
H4564 H 0.50375 0.00261 0.07527 0.0
H4565 H 0.49134 0.01997 0.1445 0.0
H4566 H 0.51639 0.05288 0.14214 0.0
H4567 H 0.53069 0.18287 0.08994 0.0
H4568 H 0.54498 0.1455 0.08079 0.0
H4569 H 0.52009 0.11974 0.14339 0.0
H4570 H 0.50513 0.15641 0.1521 0.0
H4571 H 0.5138 0.08944 0.11337 0.0
H4572 H 0.57723 0.13536 0.13576 0.0
H4573 H 0.60249 0.16812 0.13381 0.0
H4574 H 0.61746 0.15043 0.06531 0.0
H4575 H 0.59207 0.11771 0.06675 0.0
C4576 C 0.57559 0.00125 0.10482 0.0
C4577 C 0.58061 0.99629 0.08225 0.0
C4578 C 0.57125 0.0235 0.11136 0.0
C4579 C 0.57201 0.0411 0.09544 0.0
C4580 C 0.57935 0.03634 0.07361 0.0
C4581 C 0.58338 0.01416 0.06702 0.0
C4582 C 0.56242 0.06367 0.10028 0.0
C4583 C 0.5757 0.08305 0.09826 0.0
C4584 C 0.53982 0.06616 0.10584 0.0
C4585 C 0.52452 0.04656 0.10716 0.0
C4586 C 0.52064 0.03231 0.08827 0.0
C4587 C 0.50654 0.01362 0.08981 0.0
C4588 C 0.49602 0.00916 0.11007 0.0
C4589 C 0.49954 0.02342 0.12883 0.0
C4590 C 0.51369 0.04208 0.1274 0.0
C4591 C 0.5279 0.16915 0.10153 0.0
C4592 C 0.5168 0.17286 0.12183 0.0
C4593 C 0.53635 0.14778 0.09643 0.0
C4594 C 0.53416 0.12972 0.11165 0.0
C4595 C 0.5222 0.13324 0.13135 0.0
C4596 C 0.51362 0.1544 0.13633 0.0
C4597 C 0.54445 0.10721 0.10752 0.0
C4598 C 0.53123 0.08776 0.10949 0.0
C4599 C 0.56715 0.1047 0.10213 0.0
C4600 C 0.58258 0.12422 0.10129 0.0
C4601 C 0.58581 0.13854 0.12024 0.0
C4602 C 0.60016 0.15709 0.11923 0.0
C4603 C 0.61153 0.16139 0.09943 0.0
C4604 C 0.60862 0.1471 0.08062 0.0
C4605 C 0.59427 0.12854 0.08153 0.0
H4606 H 0.62262 0.17577 0.09867 0.0
H4607 H 0.4851 0.99469 0.11123 0.0
H4608 H 0.24843 0.17447 0.13265 0.0
H4609 H 0.28626 0.18009 0.11894 0.0
H4610 H 0.31136 0.19033 0.1879 0.0
H4611 H 0.27413 0.18414 0.20171 0.0
H4612 H 0.31778 0.22785 0.15284 0.0
H4613 H 0.3273 0.1469 0.1684 0.0
H4614 H 0.31499 0.1076 0.16241 0.0
H4615 H 0.322 0.11466 0.09045 0.0
H4616 H 0.33411 0.15411 0.09604 0.0
H4617 H 0.43538 0.23773 0.15399 0.0
H4618 H 0.39641 0.22896 0.16137 0.0
H4619 H 0.38835 0.19782 0.09513 0.0
H4620 H 0.42707 0.20578 0.08798 0.0
H4621 H 0.37098 0.17196 0.12432 0.0
H4622 H 0.36576 0.249 0.10611 0.0
H4623 H 0.37513 0.28938 0.10753 0.0
H4624 H 0.35669 0.29254 0.1772 0.0
H4625 H 0.3475 0.25205 0.17632 0.0
C4626 C 0.2622 0.17696 0.14489 0.0
C4627 C 0.2584 0.17912 0.16819 0.0
C4628 C 0.28365 0.18051 0.13704 0.0
C4629 C 0.30124 0.18621 0.15247 0.0
C4630 C 0.29779 0.18636 0.1758 0.0
C4631 C 0.2766 0.18257 0.18363 0.0
C4632 C 0.32318 0.19306 0.14458 0.0
C4633 C 0.32957 0.21572 0.1467 0.0
C4634 C 0.33795 0.17729 0.13581 0.0
C4635 C 0.33147 0.15341 0.13261 0.0
C4636 C 0.32613 0.14007 0.15131 0.0
C4637 C 0.3192 0.11778 0.14798 0.0
C4638 C 0.31769 0.10865 0.12604 0.0
C4639 C 0.32318 0.12176 0.10742 0.0
C4640 C 0.33012 0.14406 0.11066 0.0
C4641 C 0.42531 0.22897 0.14108 0.0
C4642 C 0.43443 0.22223 0.12056 0.0
C4643 C 0.40301 0.22412 0.14521 0.0
C4644 C 0.38948 0.21281 0.12871 0.0
C4645 C 0.39851 0.20641 0.10814 0.0
C4646 C 0.42072 0.21101 0.10412 0.0
C4647 C 0.3661 0.20685 0.13309 0.0
C4648 C 0.35932 0.18431 0.13026 0.0
C4649 C 0.35077 0.22296 0.14056 0.0
C4650 C 0.35615 0.24739 0.14122 0.0
C4651 C 0.36387 0.25824 0.12181 0.0
C4652 C 0.36912 0.28117 0.1225 0.0
C4653 C 0.36657 0.29351 0.14246 0.0
C4654 C 0.35869 0.28295 0.16175 0.0
C4655 C 0.35343 0.26 0.16116 0.0
H4656 H 0.37065 0.31125 0.14296 0.0
H4657 H 0.31233 0.09141 0.12343 0.0
H4658 H 0.39956 0.49324 0.08355 0.0
H4659 H 0.4082 0.45456 0.09576 0.0
H4660 H 0.47071 0.47773 0.12617 0.0
H4661 H 0.46191 0.51619 0.11454 0.0
H4662 H 0.46725 0.44146 0.08488 0.0
H4663 H 0.44441 0.46129 0.16209 0.0
H4664 H 0.41566 0.47481 0.18754 0.0
H4665 H 0.37191 0.42103 0.16514 0.0
H4666 H 0.40036 0.40735 0.13936 0.0
H4667 H 0.5249 0.34555 0.11621 0.0
H4668 H 0.5097 0.38352 0.11825 0.0
H4669 H 0.44466 0.35566 0.1303 0.0
H4670 H 0.46041 0.31776 0.13011 0.0
H4671 H 0.44527 0.39359 0.14918 0.0
H4672 H 0.4631 0.3715 0.07486 0.0
H4673 H 0.48592 0.35692 0.04423 0.0
H4674 H 0.53133 0.41257 0.05351 0.0
H4675 H 0.50896 0.42733 0.08445 0.0
C4676 C 0.41452 0.49022 0.09396 0.0
C4677 C 0.42978 0.50783 0.09867 0.0
C4678 C 0.4196 0.46808 0.10066 0.0
C4679 C 0.44016 0.46324 0.11184 0.0
C4680 C 0.45472 0.48106 0.11772 0.0
C4681 C 0.44953 0.50309 0.11133 0.0
C4682 C 0.44795 0.43964 0.11479 0.0
C4683 C 0.46269 0.43106 0.09908 0.0
C4684 C 0.44111 0.42568 0.13261 0.0
C4685 C 0.42442 0.43342 0.14869 0.0
C4686 C 0.42862 0.45243 0.16251 0.0
C4687 C 0.41239 0.4601 0.17701 0.0
C4688 C 0.39195 0.44882 0.17792 0.0
C4689 C 0.38775 0.42975 0.16442 0.0
C4690 C 0.40393 0.42201 0.1499 0.0
C4691 C 0.50756 0.34763 0.12018 0.0
C4692 C 0.4939 0.32872 0.1232 0.0
C4693 C 0.49871 0.36935 0.12093 0.0
C4694 C 0.47571 0.37268 0.12348 0.0
C4695 C 0.46238 0.35379 0.12808 0.0
C4696 C 0.47143 0.33206 0.12811 0.0
C4697 C 0.46552 0.39548 0.1197 0.0
C4698 C 0.45007 0.40389 0.135 0.0
C4699 C 0.47104 0.40907 0.10089 0.0
C4700 C 0.48446 0.4004 0.08213 0.0
C4701 C 0.47802 0.38056 0.07046 0.0
C4702 C 0.49088 0.37227 0.05304 0.0
C4703 C 0.5101 0.38378 0.04697 0.0
C4704 C 0.51646 0.40366 0.05826 0.0
C4705 C 0.50369 0.412 0.07573 0.0
H4706 H 0.52004 0.37732 0.03349 0.0
H4707 H 0.37938 0.45482 0.18909 0.0
H4708 H 0.30241 0.73001 0.66177 0.0
H4709 H 0.31603 0.69235 0.67062 0.0
H4710 H 0.38016 0.72032 0.69169 0.0
H4711 H 0.36698 0.75775 0.68189 0.0
H4712 H 0.3857 0.67979 0.67787 0.0
H4713 H 0.33902 0.71499 0.72952 0.0
H4714 H 0.30628 0.73456 0.74377 0.0
H4715 H 0.26483 0.67754 0.72602 0.0
H4716 H 0.29723 0.65778 0.71124 0.0
H4717 H 0.40777 0.58312 0.74289 0.0
H4718 H 0.39988 0.62305 0.73738 0.0
H4719 H 0.33551 0.60576 0.70644 0.0
H4720 H 0.34288 0.56581 0.71341 0.0
H4721 H 0.33398 0.6439 0.73088 0.0
H4722 H 0.3861 0.61245 0.67467 0.0
H4723 H 0.42206 0.59447 0.66721 0.0
H4724 H 0.4571 0.64806 0.70267 0.0
H4725 H 0.42134 0.66625 0.71041 0.0
C4726 C 0.31972 0.72793 0.66723 0.0
C4727 C 0.33353 0.74668 0.67162 0.0
C4728 C 0.3274 0.70652 0.67255 0.0
C4729 C 0.34872 0.70383 0.68281 0.0
C4730 C 0.36351 0.72215 0.68417 0.0
C4731 C 0.35599 0.74353 0.67838 0.0
C4732 C 0.35449 0.6827 0.6945 0.0
C4733 C 0.37446 0.67205 0.68957 0.0
C4734 C 0.3402 0.67303 0.71046 0.0
C4735 C 0.32054 0.685 0.71901 0.0
C4736 C 0.32288 0.70671 0.72842 0.0
C4737 C 0.30439 0.71782 0.73663 0.0
C4738 C 0.28348 0.70732 0.73574 0.0
C4739 C 0.28102 0.68568 0.72665 0.0
C4740 C 0.29945 0.67452 0.71834 0.0
C4741 C 0.39179 0.58803 0.73531 0.0
C4742 C 0.37598 0.5718 0.72813 0.0
C4743 C 0.38735 0.6107 0.73213 0.0
C4744 C 0.36746 0.6172 0.72083 0.0
C4745 C 0.35105 0.60097 0.71501 0.0
C4746 C 0.35524 0.57828 0.71885 0.0
C4747 C 0.36439 0.64047 0.7131 0.0
C4748 C 0.34511 0.65173 0.71911 0.0
C4749 C 0.3797 0.65108 0.69885 0.0
C4750 C 0.4011 0.64064 0.69314 0.0
C4751 C 0.4015 0.6204 0.68078 0.0
C4752 C 0.42183 0.61017 0.67655 0.0
C4753 C 0.44185 0.6201 0.68448 0.0
C4754 C 0.44159 0.64039 0.69652 0.0
C4755 C 0.42131 0.65069 0.70078 0.0
H4756 H 0.45756 0.61209 0.68129 0.0
H4757 H 0.26918 0.71594 0.74215 0.0
H4758 H 0.00323 0.39767 0.51587 0.0
H4759 H 0.96528 0.38294 0.51612 0.0
H4760 H 0.96999 0.37858 0.58925 0.0
H4761 H 0.00828 0.39333 0.58922 0.0
H4762 H 0.94348 0.34145 0.56354 0.0
H4763 H 0.94883 0.42258 0.57351 0.0
H4764 H 0.96369 0.45984 0.56346 0.0
H4765 H 0.93546 0.45249 0.49561 0.0
H4766 H 0.92068 0.41504 0.50521 0.0
H4767 H 0.82466 0.38665 0.57122 0.0
H4768 H 0.86464 0.38121 0.57889 0.0
H4769 H 0.86941 0.34817 0.51396 0.0
H4770 H 0.82923 0.35268 0.5067 0.0
H4771 H 0.89141 0.4017 0.5383 0.0
H4772 H 0.89353 0.31784 0.52638 0.0
H4773 H 0.87966 0.27993 0.5356 0.0
H4774 H 0.89319 0.29285 0.60669 0.0
H4775 H 0.90683 0.33098 0.59782 0.0
C4776 C 0.99641 0.39322 0.53202 0.0
C4777 C 0.00864 0.39703 0.55256 0.0
C4778 C 0.97477 0.38465 0.5321 0.0
C4779 C 0.96485 0.37983 0.55269 0.0
C4780 C 0.97746 0.38209 0.57318 0.0
C4781 C 0.99927 0.39064 0.57313 0.0
C4782 C 0.94051 0.37591 0.55269 0.0
C4783 C 0.93206 0.35464 0.55822 0.0
C4784 C 0.92567 0.39309 0.5456 0.0
C4785 C 0.93376 0.41598 0.54005 0.0
C4786 C 0.94585 0.42889 0.55644 0.0
C4787 C 0.95427 0.45003 0.55082 0.0
C4788 C 0.95055 0.45851 0.5289 0.0
C4789 C 0.93832 0.4459 0.51259 0.0
C4790 C 0.92988 0.42474 0.51812 0.0
C4791 C 0.83405 0.37709 0.55921 0.0
C4792 C 0.82393 0.36981 0.53853 0.0
C4793 C 0.85686 0.37407 0.56355 0.0
C4794 C 0.8699 0.36402 0.54713 0.0
C4795 C 0.85953 0.35531 0.52715 0.0
C4796 C 0.83657 0.35787 0.52302 0.0
C4797 C 0.89433 0.36715 0.54878 0.0
C4798 C 0.90279 0.38848 0.54367 0.0
C4799 C 0.90906 0.35003 0.55609 0.0
C4800 C 0.90082 0.32729 0.56148 0.0
C4801 C 0.89325 0.31267 0.54399 0.0
C4802 C 0.88551 0.29114 0.54913 0.0
C4803 C 0.88545 0.28402 0.57173 0.0
C4804 C 0.89317 0.29841 0.58921 0.0
C4805 C 0.9009 0.31998 0.58413 0.0
H4806 H 0.87949 0.26733 0.57568 0.0
H4807 H 0.95713 0.47486 0.52456 0.0
H4808 H 0.69266 0.78629 0.66554 0.0
H4809 H 0.66973 0.8183 0.67561 0.0
H4810 H 0.61146 0.7755 0.67462 0.0
H4811 H 0.63418 0.74352 0.66494 0.0
H4812 H 0.60586 0.82669 0.66401 0.0
H4813 H 0.63608 0.77205 0.72 0.0
H4814 H 0.66762 0.74927 0.73477 0.0
H4815 H 0.707 0.80912 0.74592 0.0
H4816 H 0.67588 0.83219 0.7308 0.0
H4817 H 0.58634 0.92434 0.72582 0.0
H4818 H 0.57997 0.88364 0.72134 0.0
H4819 H 0.65083 0.87309 0.7327 0.0
H4820 H 0.65617 0.91251 0.74029 0.0
H4821 H 0.6338 0.83833 0.74374 0.0
H4822 H 0.61627 0.88681 0.6726 0.0
H4823 H 0.59081 0.91391 0.65349 0.0
H4824 H 0.53468 0.87215 0.66857 0.0
H4825 H 0.55987 0.84488 0.68775 0.0
C4826 C 0.67478 0.784 0.66621 0.0
C4827 C 0.66521 0.76247 0.66455 0.0
C4828 C 0.66171 0.80224 0.67195 0.0
C4829 C 0.63911 0.79894 0.67626 0.0
C4830 C 0.6289 0.77823 0.67129 0.0
C4831 C 0.64195 0.75998 0.66552 0.0
C4832 C 0.62804 0.81502 0.69095 0.0
C4833 C 0.6117 0.82918 0.68154 0.0
C4834 C 0.6354 0.81772 0.71393 0.0
C4835 C 0.65361 0.80383 0.72425 0.0
C4836 C 0.65146 0.78034 0.72558 0.0
C4837 C 0.66929 0.76738 0.73398 0.0
C4838 C 0.6893 0.77774 0.74128 0.0
C4839 C 0.69149 0.8011 0.74029 0.0
C4840 C 0.67375 0.81413 0.73185 0.0
C4841 C 0.60008 0.91292 0.72868 0.0
C4842 C 0.62161 0.92126 0.73349 0.0
C4843 C 0.59664 0.88978 0.72553 0.0
C4844 C 0.61499 0.87514 0.7258 0.0
C4845 C 0.63621 0.88366 0.73234 0.0
C4846 C 0.63939 0.90637 0.73639 0.0
C4847 C 0.61379 0.85212 0.71596 0.0
C4848 C 0.62734 0.83569 0.72644 0.0
C4849 C 0.60475 0.848 0.69365 0.0
C4850 C 0.58983 0.86399 0.68163 0.0
C4851 C 0.5985 0.88344 0.6717 0.0
C4852 C 0.58413 0.89882 0.66094 0.0
C4853 C 0.56114 0.89477 0.65986 0.0
C4854 C 0.55248 0.87527 0.66944 0.0
C4855 C 0.56677 0.85985 0.68023 0.0
H4856 H 0.55004 0.90672 0.65157 0.0
H4857 H 0.70309 0.76767 0.7477 0.0
H4858 H 0.01113 0.09338 0.59309 0.0
H4859 H 0.04935 0.10612 0.58568 0.0
H4860 H 0.02638 0.1312 0.52025 0.0
H4861 H 0.98868 0.11825 0.52744 0.0
H4862 H 0.05799 0.09801 0.51791 0.0
H4863 H 0.04693 0.1669 0.56002 0.0
H4864 H 0.03808 0.18895 0.59402 0.0
H4865 H 0.09243 0.15828 0.63168 0.0
H4866 H 0.10145 0.13582 0.59797 0.0
H4867 H 0.15859 0.12616 0.47085 0.0
H4868 H 0.12112 0.1319 0.48508 0.0
H4869 H 0.1469 0.12155 0.55377 0.0
H4870 H 0.18438 0.11727 0.53959 0.0
H4871 H 0.11403 0.14833 0.5563 0.0
H4872 H 0.12374 0.07761 0.51921 0.0
H4873 H 0.13283 0.05154 0.48828 0.0
H4874 H 0.08128 0.08036 0.44517 0.0
H4875 H 0.07207 0.1068 0.47577 0.0
C4876 C 0.0142 0.10241 0.57757 0.0
C4877 C 0.99711 0.10481 0.56077 0.0
C4878 C 0.03599 0.10964 0.57331 0.0
C4879 C 0.04073 0.11947 0.55231 0.0
C4880 C 0.02315 0.12359 0.5365 0.0
C4881 C 0.00161 0.11624 0.54064 0.0
C4882 C 0.064 0.12205 0.54494 0.0
C4883 C 0.07012 0.10935 0.52608 0.0
C4884 C 0.08013 0.13597 0.55626 0.0
C4885 C 0.07473 0.14951 0.57651 0.0
C4886 C 0.05688 0.1647 0.5756 0.0
C4887 C 0.05186 0.17731 0.59481 0.0
C4888 C 0.06465 0.17498 0.61501 0.0
C4889 C 0.08253 0.16006 0.61603 0.0
C4890 C 0.08762 0.14741 0.59687 0.0
C4891 C 0.15627 0.126 0.48901 0.0
C4892 C 0.17423 0.12151 0.50419 0.0
C4893 C 0.13486 0.12897 0.49717 0.0
C4894 C 0.13097 0.12651 0.52051 0.0
C4895 C 0.14931 0.12349 0.53573 0.0
C4896 C 0.17074 0.12107 0.52763 0.0
C4897 C 0.10782 0.12475 0.52877 0.0
C4898 C 0.10181 0.13725 0.54795 0.0
C4899 C 0.0918 0.11011 0.51816 0.0
C4900 C 0.0974 0.09435 0.49968 0.0
C4901 C 0.11447 0.0785 0.50307 0.0
C4902 C 0.11962 0.06364 0.48561 0.0
C4903 C 0.10769 0.06434 0.46475 0.0
C4904 C 0.09054 0.07987 0.46132 0.0
C4905 C 0.08535 0.09479 0.47871 0.0
H4906 H 0.11168 0.05281 0.45127 0.0
H4907 H 0.06076 0.18478 0.62984 0.0
H4908 H 0.36146 0.23902 0.80993 0.0
H4909 H 0.38662 0.2706 0.80355 0.0
H4910 H 0.33064 0.31562 0.80135 0.0
H4911 H 0.30534 0.28416 0.8083 0.0
H4912 H 0.35906 0.30671 0.75882 0.0
H4913 H 0.35994 0.33241 0.83966 0.0
H4914 H 0.36717 0.32516 0.88038 0.0
H4915 H 0.43345 0.30327 0.86694 0.0
H4916 H 0.42656 0.31081 0.82597 0.0
H4917 H 0.34586 0.41608 0.76532 0.0
H4918 H 0.35105 0.37614 0.768 0.0
H4919 H 0.42242 0.38574 0.77495 0.0
H4920 H 0.4169 0.42694 0.77369 0.0
H4921 H 0.40559 0.35833 0.80745 0.0
H4922 H 0.3996 0.35751 0.72586 0.0
H4923 H 0.3845 0.36977 0.68832 0.0
H4924 H 0.31917 0.34717 0.70519 0.0
H4925 H 0.33369 0.33502 0.74278 0.0
C4926 C 0.35464 0.25582 0.80927 0.0
C4927 C 0.33151 0.25928 0.80983 0.0
C4928 C 0.36904 0.27374 0.80545 0.0
C4929 C 0.36034 0.29518 0.80191 0.0
C4930 C 0.33749 0.29901 0.80414 0.0
C4931 C 0.32311 0.28113 0.80809 0.0
C4932 C 0.37397 0.31287 0.79207 0.0
C4933 C 0.36965 0.31792 0.76915 0.0
C4934 C 0.38841 0.3266 0.80551 0.0
C4935 C 0.39271 0.322 0.8299 0.0
C4936 C 0.37602 0.32598 0.84543 0.0
C4937 C 0.38008 0.32183 0.86855 0.0
C4938 C 0.40076 0.3136 0.87631 0.0
C4939 C 0.41745 0.30962 0.86092 0.0
C4940 C 0.4135 0.3139 0.83775 0.0
C4941 C 0.36274 0.40979 0.76724 0.0
C4942 C 0.38109 0.42444 0.76913 0.0
C4943 C 0.36573 0.38687 0.7683 0.0
C4944 C 0.38719 0.37789 0.7707 0.0
C4945 C 0.40576 0.39241 0.77242 0.0
C4946 C 0.40269 0.41575 0.77157 0.0
C4947 C 0.38894 0.35353 0.77456 0.0
C4948 C 0.39634 0.34666 0.79637 0.0
C4949 C 0.37658 0.33839 0.76018 0.0
C4950 C 0.3679 0.34502 0.73711 0.0
C4951 C 0.38204 0.35506 0.72153 0.0
C4952 C 0.37355 0.36205 0.70025 0.0
C4953 C 0.35093 0.35913 0.69436 0.0
C4954 C 0.33672 0.34925 0.70971 0.0
C4955 C 0.34511 0.3422 0.73096 0.0
H4956 H 0.34436 0.36453 0.67794 0.0
H4957 H 0.40387 0.31032 0.89423 0.0
H4958 H 0.50705 0.42247 0.39419 0.0
H4959 H 0.54709 0.41408 0.39819 0.0
H4960 H 0.5351 0.37492 0.45805 0.0
H4961 H 0.49538 0.3834 0.45412 0.0
H4962 H 0.5632 0.41067 0.46648 0.0
H4963 H 0.5551 0.34981 0.41303 0.0
H4964 H 0.544 0.33194 0.3764 0.0
H4965 H 0.58773 0.37642 0.34173 0.0
H4966 H 0.59889 0.39478 0.37816 0.0
H4967 H 0.66651 0.3658 0.50064 0.0
H4968 H 0.62827 0.37322 0.48738 0.0
H4969 H 0.65257 0.40674 0.42826 0.0
H4970 H 0.69124 0.39858 0.44144 0.0
H4971 H 0.61916 0.37772 0.41659 0.0
H4972 H 0.62913 0.43661 0.47195 0.0
H4973 H 0.63984 0.45319 0.50932 0.0
H4974 H 0.59164 0.41141 0.54115 0.0
H4975 H 0.58087 0.39432 0.50404 0.0
C4976 C 0.51291 0.41114 0.40746 0.0
C4977 C 0.49827 0.40336 0.42373 0.0
C4978 C 0.53576 0.40651 0.40986 0.0
C4979 C 0.54409 0.3941 0.4286 0.0
C4980 C 0.52906 0.38462 0.44356 0.0
C4981 C 0.50636 0.38926 0.44118 0.0
C4982 C 0.56832 0.39376 0.43471 0.0
C4983 C 0.57542 0.40325 0.45566 0.0
C4984 C 0.5843 0.38485 0.42022 0.0
C4985 C 0.57764 0.37385 0.3983 0.0
C4986 C 0.56219 0.35594 0.39757 0.0
C4987 C 0.55593 0.34568 0.37685 0.0
C4988 C 0.5651 0.35309 0.35674 0.0
C4989 C 0.58061 0.37073 0.35732 0.0
C4990 C 0.58693 0.38105 0.378 0.0
C4991 C 0.66367 0.37526 0.48511 0.0
C4992 C 0.68166 0.38212 0.47227 0.0
C4993 C 0.64182 0.37947 0.4775 0.0
C4994 C 0.63747 0.39085 0.45696 0.0
C4995 C 0.65553 0.39805 0.44422 0.0
C4996 C 0.67755 0.39367 0.45182 0.0
C4997 C 0.61398 0.39415 0.44866 0.0
C4998 C 0.60699 0.38536 0.42729 0.0
C4999 C 0.59797 0.40364 0.46283 0.0
C5000 C 0.60427 0.41409 0.48518 0.0
C5001 C 0.6209 0.43086 0.48693 0.0
C5002 C 0.62698 0.44036 0.50807 0.0
C5003 C 0.61645 0.43334 0.52759 0.0
C5004 C 0.59978 0.41684 0.52601 0.0
C5005 C 0.59366 0.40726 0.50492 0.0
H5006 H 0.62119 0.44071 0.54394 0.0
H5007 H 0.56023 0.34512 0.34072 0.0
H5008 H 0.69244 0.2489 0.78939 0.0
H5009 H 0.68163 0.21059 0.77937 0.0
H5010 H 0.62938 0.21283 0.82749 0.0
H5011 H 0.63929 0.25201 0.83679 0.0
H5012 H 0.66182 0.17506 0.83012 0.0
H5013 H 0.61119 0.21284 0.77906 0.0
H5014 H 0.59933 0.23996 0.74953 0.0
H5015 H 0.64179 0.2083 0.70211 0.0
H5016 H 0.65422 0.18118 0.73149 0.0
H5017 H 0.60697 0.07462 0.80293 0.0
H5018 H 0.61586 0.11396 0.8091 0.0
H5019 H 0.66162 0.11222 0.75446 0.0
H5020 H 0.65259 0.07224 0.74781 0.0
H5021 H 0.63225 0.15015 0.75405 0.0
H5022 H 0.68324 0.11262 0.80562 0.0
H5023 H 0.69451 0.08543 0.83534 0.0
H5024 H 0.6509 0.11692 0.88181 0.0
H5025 H 0.63907 0.14404 0.8522 0.0
C5026 C 0.67824 0.24161 0.79741 0.0
C5027 C 0.6663 0.25373 0.8134 0.0
C5028 C 0.6722 0.21964 0.79175 0.0
C5029 C 0.65449 0.20923 0.80237 0.0
C5030 C 0.64292 0.22088 0.81892 0.0
C5031 C 0.64867 0.24313 0.82428 0.0
C5032 C 0.64928 0.18558 0.79712 0.0
C5033 C 0.65504 0.16957 0.81363 0.0
C5034 C 0.64112 0.17869 0.77531 0.0
C5035 C 0.6339 0.19515 0.75762 0.0
C5036 C 0.61825 0.21182 0.76244 0.0
C5037 C 0.61136 0.22716 0.7457 0.0
C5038 C 0.61987 0.22591 0.72399 0.0
C5039 C 0.63526 0.20928 0.71896 0.0
C5040 C 0.64222 0.19392 0.73565 0.0
C5041 C 0.61896 0.08244 0.79212 0.0
C5042 C 0.62913 0.07026 0.77485 0.0
C5043 C 0.62403 0.10496 0.79576 0.0
C5044 C 0.63949 0.11583 0.78237 0.0
C5045 C 0.64965 0.10395 0.76496 0.0
C5046 C 0.6446 0.08118 0.76129 0.0
C5047 C 0.64485 0.13961 0.78706 0.0
C5048 C 0.63914 0.15565 0.77049 0.0
C5049 C 0.6531 0.14661 0.80882 0.0
C5050 C 0.66018 0.13029 0.82666 0.0
C5051 C 0.67592 0.11363 0.82212 0.0
C5052 C 0.68243 0.09824 0.83895 0.0
C5053 C 0.67341 0.09942 0.86044 0.0
C5054 C 0.65788 0.11601 0.86516 0.0
C5055 C 0.65129 0.13142 0.84837 0.0
H5056 H 0.67847 0.08749 0.87345 0.0
H5057 H 0.6145 0.23779 0.71104 0.0
H5058 H 0.48566 0.05503 0.41186 0.0
H5059 H 0.44783 0.06714 0.41982 0.0
H5060 H 0.47431 0.12895 0.44866 0.0
H5061 H 0.51222 0.11712 0.43993 0.0
H5062 H 0.44829 0.10237 0.4787 0.0
H5063 H 0.44219 0.13432 0.40496 0.0
H5064 H 0.44487 0.13573 0.36331 0.0
H5065 H 0.39708 0.08191 0.35575 0.0
H5066 H 0.39435 0.07995 0.39742 0.0
H5067 H 0.34293 0.14823 0.50454 0.0
H5068 H 0.38022 0.14068 0.49171 0.0
H5069 H 0.35505 0.08318 0.45368 0.0
H5070 H 0.31737 0.09082 0.46627 0.0
H5071 H 0.38088 0.10948 0.42778 0.0
H5072 H 0.38812 0.07703 0.50219 0.0
H5073 H 0.38583 0.07606 0.54391 0.0
H5074 H 0.43197 0.13139 0.55034 0.0
H5075 H 0.43432 0.1329 0.50861 0.0
C5076 C 0.48327 0.07168 0.41883 0.0
C5077 C 0.50178 0.08534 0.42485 0.0
C5078 C 0.46168 0.07851 0.4236 0.0
C5079 C 0.45822 0.09889 0.435 0.0
C5080 C 0.47658 0.11317 0.43984 0.0
C5081 C 0.49818 0.10656 0.43455 0.0
C5082 C 0.43589 0.10388 0.44392 0.0
C5083 C 0.43359 0.10436 0.46758 0.0
C5084 C 0.41664 0.10581 0.42943 0.0
C5085 C 0.41824 0.10683 0.40435 0.0
C5086 C 0.43241 0.12263 0.39444 0.0
C5087 C 0.4339 0.12356 0.37082 0.0
C5088 C 0.4212 0.10888 0.3569 0.0
C5089 C 0.40693 0.09326 0.36657 0.0
C5090 C 0.40539 0.09224 0.39019 0.0
C5091 C 0.34529 0.13371 0.49376 0.0
C5092 C 0.32702 0.12014 0.48647 0.0
C5093 C 0.36673 0.12941 0.48643 0.0
C5094 C 0.37057 0.11134 0.4717 0.0
C5095 C 0.35253 0.09727 0.46498 0.0
C5096 C 0.33101 0.10153 0.47239 0.0
C5097 C 0.39319 0.10782 0.46263 0.0
C5098 C 0.39555 0.10757 0.43894 0.0
C5099 C 0.41255 0.10613 0.47712 0.0
C5100 C 0.41123 0.10522 0.50224 0.0
C5101 C 0.39765 0.08911 0.51248 0.0
C5102 C 0.39636 0.08844 0.53614 0.0
C5103 C 0.4087 0.10369 0.54976 0.0
C5104 C 0.4224 0.11961 0.53976 0.0
C5105 C 0.42374 0.12036 0.51611 0.0
H5106 H 0.40768 0.10314 0.56807 0.0
H5107 H 0.42236 0.10963 0.33861 0.0
H5108 H 0.63352 0.32488 0.7294 0.0
H5109 H 0.63795 0.34559 0.69398 0.0
H5110 H 0.69771 0.37696 0.72325 0.0
H5111 H 0.69131 0.35882 0.75913 0.0
H5112 H 0.68969 0.40008 0.69232 0.0
H5113 H 0.69442 0.32104 0.69442 0.0
H5114 H 0.68334 0.2815 0.69987 0.0
H5115 H 0.63226 0.28771 0.64713 0.0
H5116 H 0.64285 0.32745 0.6416 0.0
H5117 H 0.76215 0.36503 0.60292 0.0
H5118 H 0.74061 0.36577 0.63741 0.0
H5119 H 0.68348 0.39031 0.59855 0.0
H5120 H 0.7052 0.39031 0.56404 0.0
H5121 H 0.6845 0.34376 0.62994 0.0
H5122 H 0.70412 0.42437 0.62606 0.0
H5123 H 0.7362 0.44985 0.62212 0.0
H5124 H 0.7643 0.42748 0.68625 0.0
H5125 H 0.73333 0.40051 0.6897 0.0
C5126 C 0.64667 0.33737 0.72855 0.0
C5127 C 0.66212 0.34035 0.74681 0.0
C5128 C 0.64953 0.34888 0.70818 0.0
C5129 C 0.66889 0.36196 0.70531 0.0
C5130 C 0.68272 0.3669 0.72457 0.0
C5131 C 0.67907 0.35648 0.74526 0.0
C5132 C 0.67683 0.3673 0.68218 0.0
C5133 C 0.68828 0.38773 0.67874 0.0
C5134 C 0.67598 0.35103 0.66436 0.0
C5135 C 0.66915 0.32731 0.66788 0.0
C5136 C 0.68068 0.31402 0.68414 0.0
C5137 C 0.67452 0.29158 0.68722 0.0
C5138 C 0.65704 0.28213 0.67393 0.0
C5139 C 0.64572 0.2951 0.65749 0.0
C5140 C 0.65178 0.31759 0.65439 0.0
C5141 C 0.74521 0.37123 0.60192 0.0
C5142 C 0.73531 0.3778 0.581 0.0
C5143 C 0.73292 0.37143 0.62149 0.0
C5144 C 0.71051 0.37787 0.62028 0.0
C5145 C 0.70078 0.38524 0.59961 0.0
C5146 C 0.71326 0.38554 0.58009 0.0
C5147 C 0.69719 0.37607 0.64064 0.0
C5148 C 0.68494 0.35628 0.64343 0.0
C5149 C 0.69957 0.39171 0.65867 0.0
C5150 C 0.71638 0.41019 0.65803 0.0
C5151 C 0.71724 0.42464 0.63921 0.0
C5152 C 0.73541 0.43916 0.63691 0.0
C5153 C 0.75233 0.44023 0.65389 0.0
C5154 C 0.75117 0.42666 0.67311 0.0
C5155 C 0.73339 0.41161 0.67515 0.0
H5156 H 0.76625 0.45167 0.6522 0.0
H5157 H 0.65231 0.26473 0.67631 0.0
H5158 H 0.67156 0.70435 0.76621 0.0
H5159 H 0.67601 0.68331 0.80174 0.0
H5160 H 0.68806 0.62281 0.76347 0.0
H5161 H 0.68199 0.6434 0.72813 0.0
H5162 H 0.67064 0.61111 0.79965 0.0
H5163 H 0.73142 0.66057 0.7837 0.0
H5164 H 0.74952 0.69673 0.7751 0.0
H5165 H 0.72883 0.7241 0.83843 0.0
H5166 H 0.71031 0.68824 0.84725 0.0
H5167 H 0.74866 0.60396 0.9106 0.0
H5168 H 0.74037 0.60093 0.86941 0.0
H5169 H 0.67364 0.62439 0.87924 0.0
H5170 H 0.68181 0.6276 0.91991 0.0
H5171 H 0.7253 0.64753 0.85374 0.0
H5172 H 0.65324 0.59681 0.8571 0.0
H5173 H 0.63656 0.55905 0.86083 0.0
H5174 H 0.68523 0.53172 0.81706 0.0
H5175 H 0.70261 0.56925 0.81376 0.0
C5176 C 0.6743 0.68639 0.7655 0.0
C5177 C 0.67661 0.67546 0.74459 0.0
C5178 C 0.67716 0.67444 0.78573 0.0
C5179 C 0.6834 0.65172 0.78523 0.0
C5180 C 0.68357 0.64039 0.76429 0.0
C5181 C 0.67997 0.65215 0.74408 0.0
C5182 C 0.69149 0.6403 0.80624 0.0
C5183 C 0.68272 0.61908 0.81136 0.0
C5184 C 0.70791 0.65021 0.82121 0.0
C5185 C 0.71934 0.67173 0.81606 0.0
C5186 C 0.73065 0.67433 0.79574 0.0
C5187 C 0.74098 0.69478 0.79083 0.0
C5188 C 0.74029 0.71271 0.80619 0.0
C5189 C 0.72933 0.71021 0.82654 0.0
C5190 C 0.71893 0.68981 0.83151 0.0
C5191 C 0.73195 0.60746 0.90397 0.0
C5192 C 0.71595 0.61642 0.91816 0.0
C5193 C 0.72719 0.60557 0.88054 0.0
C5194 C 0.70625 0.61205 0.87138 0.0
C5195 C 0.68963 0.61861 0.886 0.0
C5196 C 0.69445 0.62084 0.9092 0.0
C5197 C 0.70365 0.61899 0.84746 0.0
C5198 C 0.71357 0.63947 0.84172 0.0
C5199 C 0.68869 0.60829 0.83177 0.0
C5200 C 0.67953 0.58563 0.83569 0.0
C5201 C 0.66072 0.58264 0.84879 0.0
C5202 C 0.65105 0.56132 0.85069 0.0
C5203 C 0.65984 0.54299 0.83921 0.0
C5204 C 0.67841 0.54592 0.82592 0.0
C5205 C 0.68831 0.56715 0.82423 0.0
H5206 H 0.65228 0.52652 0.84063 0.0
H5207 H 0.74828 0.72853 0.80235 0.0
H5208 H 0.91517 0.10759 0.49202 0.0
H5209 H 0.90228 0.10104 0.45246 0.0
H5210 H 0.85677 0.05009 0.47466 0.0
H5211 H 0.86964 0.05662 0.51404 0.0
H5212 H 0.91035 0.05293 0.44048 0.0
H5213 H 0.82271 0.05597 0.44955 0.0
H5214 H 0.79205 0.08088 0.46032 0.0
H5215 H 0.81929 0.13429 0.4209 0.0
H5216 H 0.85021 0.1097 0.41015 0.0
H5217 H 0.89199 0.98191 0.34869 0.0
H5218 H 0.8861 -0.0013 0.38602 0.0
H5219 H 0.8587 0.0578 0.3534 0.0
H5220 H 0.86265 0.04003 0.31623 0.0
H5221 H 0.84126 0.05594 0.39146 0.0
H5222 H 0.91725 0.05147 0.37033 0.0
H5223 H 0.95132 0.033 0.35773 0.0
H5224 H 0.95297 0.99176 0.41747 0.0
H5225 H 0.91875 0.00981 0.43028 0.0
C5226 C 0.90135 0.09611 0.48855 0.0
C5227 C 0.89315 0.08282 0.50606 0.0
C5228 C 0.89413 0.09221 0.46592 0.0
C5229 C 0.87848 0.07512 0.46058 0.0
C5230 C 0.86846 0.06368 0.47835 0.0
C5231 C 0.87576 0.0675 0.50092 0.0
C5232 C 0.87686 0.06541 0.43727 0.0
C5233 C 0.89523 0.0535 0.42976 0.0
C5234 C 0.85744 0.06669 0.42307 0.0
C5235 C 0.8387 0.08112 0.42919 0.0
C5236 C 0.82214 0.07305 0.44327 0.0
C5237 C 0.80475 0.0871 0.44936 0.0
C5238 C 0.80374 0.10916 0.44132 0.0
C5239 C 0.8201 0.11721 0.42714 0.0
C5240 C 0.83755 0.10325 0.42107 0.0
C5241 C 0.88395 0.99811 0.34961 0.0
C5242 C 0.8778 0.00969 0.32966 0.0
C5243 C 0.88087 0.0079 0.37092 0.0
C5244 C 0.87286 0.03003 0.37266 0.0
C5245 C 0.86513 0.04086 0.3527 0.0
C5246 C 0.86736 0.03066 0.33141 0.0
C5247 C 0.87461 0.04253 0.39481 0.0
C5248 C 0.8564 0.05515 0.40209 0.0
C5249 C 0.89457 0.04248 0.40862 0.0
C5250 C 0.91536 0.03186 0.40116 0.0
C5251 C 0.92485 0.03841 0.38073 0.0
C5252 C 0.94418 0.02801 0.37355 0.0
C5253 C 0.95428 0.01119 0.38677 0.0
C5254 C 0.94512 0.00478 0.40724 0.0
C5255 C 0.92577 0.0151 0.41448 0.0
H5256 H 0.96922 0.00314 0.38117 0.0
H5257 H 0.79028 0.12002 0.44607 0.0
H5258 H 0.34702 0.85151 0.75626 0.0
H5259 H 0.34236 0.86611 0.7947 0.0
H5260 H 0.30821 0.80504 0.81225 0.0
H5261 H 0.3142 0.78966 0.77484 0.0
H5262 H 0.28871 0.86067 0.80955 0.0
H5263 H 0.33649 0.79873 0.84161 0.0
H5264 H 0.37256 0.7793 0.84479 0.0
H5265 H 0.40512 0.8412 0.86473 0.0
H5266 H 0.36927 0.86119 0.86063 0.0
H5267 H 0.24011 0.85161 0.91612 0.0
H5268 H 0.25825 0.8444 0.88008 0.0
H5269 H 0.31367 0.88682 0.90237 0.0
H5270 H 0.29567 0.89367 0.9384 0.0
H5271 H 0.32742 0.84778 0.88439 0.0
H5272 H 0.276 0.90585 0.86422 0.0
H5273 H 0.23945 0.92451 0.8614 0.0
H5274 H 0.21296 0.87044 0.81987 0.0
H5275 H 0.24921 0.85122 0.82272 0.0
C5276 C 0.33966 0.84072 0.76863 0.0
C5277 C 0.33106 0.81943 0.76242 0.0
C5278 C 0.3368 0.84918 0.7905 0.0
C5279 C 0.32517 0.83647 0.80617 0.0
C5280 C 0.31773 0.8148 0.80047 0.0
C5281 C 0.32109 0.80613 0.77898 0.0
C5282 C 0.31752 0.8467 0.82712 0.0
C5283 C 0.29713 0.85804 0.82598 0.0
C5284 C 0.32882 0.84341 0.84824 0.0
C5285 C 0.35035 0.83154 0.85021 0.0
C5286 C 0.35141 0.8083 0.8461 0.0
C5287 C 0.3718 0.79717 0.84818 0.0
C5288 C 0.39115 0.80902 0.85487 0.0
C5289 C 0.39013 0.83205 0.85949 0.0
C5290 C 0.36982 0.84332 0.85712 0.0
C5291 C 0.25623 0.85915 0.91321 0.0
C5292 C 0.26679 0.87292 0.92971 0.0
C5293 C 0.26645 0.85525 0.89271 0.0
C5294 C 0.28714 0.86534 0.88858 0.0
C5295 C 0.29771 0.87896 0.90529 0.0
C5296 C 0.28752 0.88278 0.92575 0.0
C5297 C 0.29806 0.86111 0.86706 0.0
C5298 C 0.3191 0.85096 0.86802 0.0
C5299 C 0.28717 0.86536 0.84577 0.0
C5300 C 0.26536 0.87703 0.84379 0.0
C5301 C 0.26236 0.89787 0.85459 0.0
C5302 C 0.2417 0.90856 0.85298 0.0
C5303 C 0.22391 0.89867 0.84049 0.0
C5304 C 0.22676 0.87808 0.82954 0.0
C5305 C 0.24738 0.86729 0.83112 0.0
H5306 H 0.20793 0.90698 0.83929 0.0
H5307 H 0.40692 0.80037 0.85652 0.0
H5308 H 0.62103 0.91097 0.00629 0.0
H5309 H 0.63583 0.9173 0.96851 0.0
H5310 H 0.56878 0.92584 0.9407 0.0
H5311 H 0.55413 0.91817 0.97759 0.0
H5312 H 0.59116 0.91136 0.90903 0.0
H5313 H 0.60482 0.97101 0.96596 0.0
H5314 H 0.62162 0.98653 0.0017 0.0
H5315 H 0.68694 0.97033 0.97964 0.0
H5316 H 0.67048 0.95451 0.94388 0.0
H5317 H 0.59788 0.9918 0.8227 0.0
H5318 H 0.59041 0.97424 0.85913 0.0
H5319 H 0.66113 0.96905 0.87419 0.0
H5320 H 0.66864 0.98774 0.83858 0.0
H5321 H 0.64212 0.97736 0.91115 0.0
H5322 H 0.62655 0.9238 0.85023 0.0
H5323 H 0.6079 0.9113 0.81417 0.0
H5324 H 0.544 0.91831 0.84355 0.0
H5325 H 0.56223 0.93109 0.8797 0.0
C5326 C 0.60949 0.91324 0.99188 0.0
C5327 C 0.58645 0.91461 0.995 0.0
C5328 C 0.61795 0.9172 0.97033 0.0
C5329 C 0.60349 0.92303 0.95185 0.0
C5330 C 0.58041 0.92173 0.95459 0.0
C5331 C 0.57201 0.91741 0.97584 0.0
C5332 C 0.61171 0.93315 0.93057 0.0
C5333 C 0.60233 0.92578 0.90953 0.0
C5334 C 0.62658 0.9518 0.93097 0.0
C5335 C 0.63642 0.96136 0.95241 0.0
C5336 C 0.62275 0.97068 0.9688 0.0
C5337 C 0.63221 0.97952 0.98905 0.0
C5338 C 0.65533 0.97935 0.99297 0.0
C5339 C 0.66904 0.97039 0.97661 0.0
C5340 C 0.65966 0.96149 0.95636 0.0
C5341 C 0.6118 0.9874 0.83402 0.0
C5342 C 0.63384 0.9911 0.82765 0.0
C5343 C 0.60754 0.97706 0.85473 0.0
C5344 C 0.62522 0.96952 0.86909 0.0
C5345 C 0.64718 0.97446 0.86336 0.0
C5346 C 0.65144 0.98528 0.84297 0.0
C5347 C 0.62099 0.95602 0.88976 0.0
C5348 C 0.63124 0.96271 0.91059 0.0
C5349 C 0.60667 0.93695 0.88917 0.0
C5350 C 0.59577 0.92848 0.86766 0.0
C5351 C 0.60852 0.92269 0.849 0.0
C5352 C 0.59802 0.91558 0.82854 0.0
C5353 C 0.57479 0.91402 0.82658 0.0
C5354 C 0.562 0.9195 0.8451 0.0
C5355 C 0.57241 0.92663 0.86559 0.0
H5356 H 0.5667 0.90852 0.81074 0.0
H5357 H 0.66262 0.98621 0.00865 0.0
H5358 H 0.83902 0.64897 0.247 0.0
H5359 H 0.83447 0.63838 0.20657 0.0
H5360 H 0.78945 0.69378 0.1952 0.0
H5361 H 0.79413 0.70467 0.23474 0.0
H5362 H 0.77102 0.65085 0.18513 0.0
H5363 H 0.83338 0.6979 0.17133 0.0
H5364 H 0.87144 0.71368 0.17176 0.0
H5365 H 0.8967 0.65021 0.14978 0.0
H5366 H 0.85883 0.63387 0.14973 0.0
H5367 H 0.75344 0.65149 0.06356 0.0
H5368 H 0.76091 0.66093 0.10371 0.0
H5369 H 0.80678 0.60559 0.10998 0.0
H5370 H 0.79981 0.59621 0.07015 0.0
H5371 H 0.8245 0.64677 0.12324 0.0
H5372 H 0.75924 0.60121 0.13503 0.0
H5373 H 0.71988 0.58966 0.12928 0.0
H5374 H 0.69885 0.65449 0.15208 0.0
H5375 H 0.73811 0.66652 0.15772 0.0
C5376 C 0.82863 0.65911 0.23567 0.0
C5377 C 0.81653 0.67724 0.244 0.0
C5378 C 0.82605 0.6531 0.21274 0.0
C5379 C 0.81133 0.66517 0.19831 0.0
C5380 C 0.80066 0.68421 0.20629 0.0
C5381 C 0.80338 0.69033 0.2289 0.0
C5382 C 0.80492 0.65675 0.17562 0.0
C5383 C 0.78265 0.65001 0.1715 0.0
C5384 C 0.82025 0.65558 0.15819 0.0
C5385 C 0.84329 0.66457 0.16081 0.0
C5386 C 0.8471 0.68713 0.16713 0.0
C5387 C 0.86862 0.69624 0.16712 0.0
C5388 C 0.88642 0.68301 0.1606 0.0
C5389 C 0.88286 0.66048 0.15465 0.0
C5390 C 0.86139 0.65126 0.15475 0.0
C5391 C 0.76514 0.6414 0.0735 0.0
C5392 C 0.7763 0.62335 0.06364 0.0
C5393 C 0.76913 0.64661 0.09641 0.0
C5394 C 0.78423 0.63378 0.10957 0.0
C5395 C 0.79502 0.61555 0.09993 0.0
C5396 C 0.79109 0.61036 0.07715 0.0
C5397 C 0.79073 0.64068 0.13277 0.0
C5398 C 0.81297 0.64723 0.13698 0.0
C5399 C 0.77528 0.64198 0.15014 0.0
C5400 C 0.75164 0.63484 0.14657 0.0
C5401 C 0.74623 0.61308 0.1386 0.0
C5402 C 0.72393 0.60643 0.13542 0.0
C5403 C 0.70687 0.62135 0.14025 0.0
C5404 C 0.71208 0.64295 0.14832 0.0
C5405 C 0.73436 0.64969 0.15154 0.0
H5406 H 0.68963 0.61617 0.13779 0.0
H5407 H 0.903 0.69021 0.16017 0.0
H5408 H 0.94918 0.92871 0.01286 0.0
H5409 H 0.93648 0.93494 0.05086 0.0
H5410 H 0.86817 0.92836 0.02583 0.0
H5411 H 0.88113 0.92283 0.98693 0.0
H5412 H 0.87284 0.96514 0.04958 0.0
H5413 H 0.89411 0.88992 0.06559 0.0
H5414 H 0.91809 0.85644 0.06607 0.0
H5415 H 0.96824 0.89221 0.10606 0.0
H5416 H 0.94473 0.92601 0.10556 0.0
H5417 H 0.83931 0.98849 0.16117 0.0
H5418 H 0.84604 0.97196 0.12451 0.0
H5419 H 0.91683 0.97268 0.14046 0.0
H5420 H 0.90997 0.98803 0.17837 0.0
H5421 H 0.90652 0.935 0.12137 0.0
H5422 H 0.88665 0.01148 0.10091 0.0
H5423 H 0.86252 0.0449 0.09988 0.0
H5424 H 0.80937 0.00604 0.06795 0.0
H5425 H 0.83309 0.97235 0.06901 0.0
C5426 C 0.93142 0.92793 0.01545 0.0
C5427 C 0.91614 0.92532 0.99684 0.0
C5428 C 0.92414 0.93137 0.03737 0.0
C5429 C 0.90131 0.93196 0.04151 0.0
C5430 C 0.8859 0.92793 0.02315 0.0
C5431 C 0.89327 0.92452 0.00096 0.0
C5432 C 0.89405 0.93958 0.06431 0.0
C5433 C 0.87983 0.95817 0.06529 0.0
C5434 C 0.90353 0.93096 0.08494 0.0
C5435 C 0.91767 0.91057 0.08542 0.0
C5436 C 0.91031 0.8907 0.07437 0.0
C5437 C 0.92381 0.87165 0.07466 0.0
C5438 C 0.94468 0.87221 0.08606 0.0
C5439 C 0.95207 0.8918 0.09724 0.0
C5440 C 0.93864 0.9109 0.09699 0.0
C5441 C 0.85643 0.98556 0.1569 0.0
C5442 C 0.87416 0.98995 0.17279 0.0
C5443 C 0.86025 0.97609 0.13569 0.0
C5444 C 0.88199 0.97146 0.12923 0.0
C5445 C 0.89985 0.97615 0.14489 0.0
C5446 C 0.89597 0.98513 0.16652 0.0
C5447 C 0.88591 0.96097 0.10655 0.0
C5448 C 0.89941 0.94182 0.10566 0.0
C5449 C 0.87575 0.96904 0.08598 0.0
C5450 C 0.86158 0.98937 0.08522 0.0
C5451 C 0.86978 0.01005 0.09378 0.0
C5452 C 0.85618 0.02904 0.09318 0.0
C5453 C 0.83441 0.02758 0.08391 0.0
C5454 C 0.82622 0.00714 0.07515 0.0
C5455 C 0.83974 0.98811 0.07572 0.0
H5456 H 0.82391 0.04229 0.08348 0.0
H5457 H 0.95512 0.85745 0.08624 0.0
H5458 H 0.06961 0.55889 0.01781 0.0
H5459 H 0.08606 0.56006 0.05599 0.0
H5460 H 0.14763 0.5857 0.03028 0.0
H5461 H 0.13115 0.58328 0.99128 0.0
H5462 H 0.15494 0.55026 0.0567 0.0
H5463 H 0.1178 0.61855 0.06868 0.0
H5464 H 0.08721 0.64588 0.06507 0.0
H5465 H 0.04466 0.6016 0.1014 0.0
H5466 H 0.07479 0.57386 0.10498 0.0
H5467 H 0.15693 0.52447 0.18325 0.0
H5468 H 0.16459 0.54545 0.14858 0.0
H5469 H 0.10556 0.51678 0.11556 0.0
H5470 H 0.09789 0.49566 0.1498 0.0
H5471 H 0.11162 0.56983 0.12392 0.0
H5472 H 0.14323 0.4987 0.09252 0.0
H5473 H 0.17184 0.4691 0.09466 0.0
H5474 H 0.22353 0.51942 0.0956 0.0
H5475 H 0.19514 0.54929 0.09362 0.0
C5476 C 0.08652 0.5652 0.0203 0.0
C5477 C 0.0991 0.57126 0.00173 0.0
C5478 C 0.09585 0.5662 0.04221 0.0
C5479 C 0.11793 0.57356 0.04615 0.0
C5480 C 0.13042 0.58039 0.02765 0.0
C5481 C 0.12099 0.57926 0.00548 0.0
C5482 C 0.12825 0.57047 0.06919 0.0
C5483 C 0.14604 0.55532 0.07155 0.0
C5484 C 0.11683 0.57716 0.08868 0.0
C5485 C 0.09873 0.59415 0.08726 0.0
C5486 C 0.10194 0.61463 0.07594 0.0
C5487 C 0.08464 0.63019 0.07386 0.0
C5488 C 0.06402 0.62551 0.08306 0.0
C5489 C 0.06067 0.60526 0.09439 0.0
C5490 C 0.0779 0.58965 0.09653 0.0
C5491 C 0.14606 0.52197 0.16832 0.0
C5492 C 0.12663 0.50863 0.16932 0.0
C5493 C 0.15039 0.53412 0.14864 0.0
C5494 C 0.1354 0.53285 0.12983 0.0
C5495 C 0.11716 0.51805 0.13011 0.0
C5496 C 0.11285 0.50594 0.14965 0.0
C5497 C 0.13678 0.54848 0.11062 0.0
C5498 C 0.12132 0.56599 0.10925 0.0
C5499 C 0.15021 0.544 0.0921 0.0
C5500 C 0.16716 0.52614 0.09315 0.0
C5501 C 0.16071 0.5034 0.09333 0.0
C5502 C 0.17686 0.4866 0.09447 0.0
C5503 C 0.19949 0.49238 0.09532 0.0
C5504 C 0.206 0.51497 0.09497 0.0
C5505 C 0.1899 0.53184 0.09382 0.0
H5506 H 0.21198 0.47935 0.09621 0.0
H5507 H 0.05064 0.63755 0.08136 0.0
loop_
_geom_bond_atom_site_label_1
_geom_bond_atom_site_label_2
_geom_bond_distance
_geom_bond_site_symmetry_2
_ccdc_geom_bond_type
Zn0 O6 1.920 . S
Zn0 O12 1.898 . S
Zn0 O15 1.905 . S
Zn1 O9 1.905 . S
Zn1 O10 1.898 . S
Zn1 O18 1.920 . S
Zn2 O5 2.080 . S
Zn2 O8 2.114 . S
Zn2 O11 2.120 . S
Zn2 O13 2.120 . S
Zn2 O14 2.114 . S
Zn2 O17 2.080 . S
C3 O8 1.166 . S
C3 O9 1.182 . S
C4 O10 1.167 . S
C4 O11 1.299 . S
O5 Zn2 2.080 . S
O5 C19 1.305 . S
O6 Zn0 1.920 . S
O6 C19 1.234 . S
C7 O12 1.167 . S
C7 O13 1.299 . S
O8 Zn2 2.114 . S
O8 C3 1.166 . S
O9 Zn1 1.905 . S
O9 C3 1.182 . S
O10 Zn1 1.898 . S
O10 C4 1.167 . S
O11 Zn2 2.120 . S
O11 C4 1.299 . S
O12 Zn0 1.898 . S
O12 C7 1.167 . S
O13 Zn2 2.120 . S
O13 C7 1.299 . S
O14 Zn2 2.114 . S
O14 C16 1.166 . S
O15 Zn0 1.905 . S
O15 C16 1.182 . S
C16 O14 1.166 . S
C16 O15 1.182 . S
O17 Zn2 2.080 . S
O17 C20 1.305 . S
O18 Zn1 1.920 . S
O18 C20 1.234 . S
C19 O5 1.305 . S
C19 O6 1.234 . S
C20 O17 1.305 . S
C20 O18 1.234 . S
Zn21 O27 1.920 . S
Zn21 O33 1.898 . S
Zn21 O36 1.905 . S
Zn22 O30 1.905 . S
Zn22 O31 1.898 . S
Zn22 O39 1.920 . S
Zn23 O26 2.080 . S
Zn23 O29 2.114 . S
Zn23 O32 2.120 . S
Zn23 O34 2.120 . S
Zn23 O35 2.114 . S
Zn23 O38 2.080 . S
C24 O29 1.166 . S
C24 O30 1.182 . S
C25 O31 1.167 . S
C25 O32 1.299 . S
O26 Zn23 2.080 . S
O26 C40 1.305 . S
O27 Zn21 1.920 . S
O27 C40 1.234 . S
C28 O33 1.167 . S
C28 O34 1.299 . S
O29 Zn23 2.114 . S
O29 C24 1.166 . S
O30 Zn22 1.905 . S
O30 C24 1.182 . S
O31 Zn22 1.898 . S
O31 C25 1.167 . S
O32 Zn23 2.120 . S
O32 C25 1.299 . S
O33 Zn21 1.898 . S
O33 C28 1.167 . S
O34 Zn23 2.120 . S
O34 C28 1.299 . S
O35 Zn23 2.114 . S
O35 C37 1.166 . S
O36 Zn21 1.905 . S
O36 C37 1.182 . S
C37 O35 1.166 . S
C37 O36 1.182 . S
O38 Zn23 2.080 . S
O38 C41 1.305 . S
O39 Zn22 1.920 . S
O39 C41 1.234 . S
C40 O26 1.305 . S
C40 O27 1.234 . S
C41 O38 1.305 . S
C41 O39 1.234 . S
Zn42 O48 1.920 . S
Zn42 O54 1.898 . S
Zn42 O57 1.905 . S
Zn43 O51 1.905 . S
Zn43 O52 1.898 . S
Zn43 O60 1.920 . S
Zn44 O47 2.080 . S
Zn44 O50 2.114 . S
Zn44 O53 2.120 . S
Zn44 O55 2.120 . S
Zn44 O56 2.114 . S
Zn44 O59 2.080 . S
C45 O50 1.166 . S
C45 O51 1.182 . S
C46 O52 1.167 . S
C46 O53 1.299 . S
O47 Zn44 2.080 . S
O47 C61 1.305 . S
O48 Zn42 1.920 . S
O48 C61 1.234 . S
C49 O54 1.167 . S
C49 O55 1.299 . S
O50 Zn44 2.114 . S
O50 C45 1.166 . S
O51 Zn43 1.905 . S
O51 C45 1.182 . S
O52 Zn43 1.898 . S
O52 C46 1.167 . S
O53 Zn44 2.120 . S
O53 C46 1.299 . S
O54 Zn42 1.898 . S
O54 C49 1.167 . S
O55 Zn44 2.120 . S
O55 C49 1.299 . S
O56 Zn44 2.114 . S
O56 C58 1.166 . S
O57 Zn42 1.905 . S
O57 C58 1.182 . S
C58 O56 1.166 . S
C58 O57 1.182 . S
O59 Zn44 2.080 . S
O59 C62 1.305 . S
O60 Zn43 1.920 . S
O60 C62 1.234 . S
C61 O47 1.305 . S
C61 O48 1.234 . S
C62 O59 1.305 . S
C62 O60 1.234 . S
Zn63 O69 1.920 . S
Zn63 O75 1.898 . S
Zn63 O78 1.905 . S
Zn64 O72 1.905 . S
Zn64 O73 1.898 . S
Zn64 O81 1.920 . S
Zn65 O68 2.080 . S
Zn65 O71 2.114 . S
Zn65 O74 2.120 . S
Zn65 O76 2.120 . S
Zn65 O77 2.114 . S
Zn65 O80 2.080 . S
C66 O71 1.166 . S
C66 O72 1.182 . S
C67 O73 1.167 . S
C67 O74 1.299 . S
O68 Zn65 2.080 . S
O68 C82 1.305 . S
O69 Zn63 1.920 . S
O69 C82 1.234 . S
C70 O75 1.167 . S
C70 O76 1.299 . S
O71 Zn65 2.114 . S
O71 C66 1.166 . S
O72 Zn64 1.905 . S
O72 C66 1.182 . S
O73 Zn64 1.898 . S
O73 C67 1.167 . S
O74 Zn65 2.120 . S
O74 C67 1.299 . S
O75 Zn63 1.898 . S
O75 C70 1.167 . S
O76 Zn65 2.120 . S
O76 C70 1.299 . S
O77 Zn65 2.114 . S
O77 C79 1.166 . S
O78 Zn63 1.905 . S
O78 C79 1.182 . S
C79 O77 1.166 . S
C79 O78 1.182 . S
O80 Zn65 2.080 . S
O80 C83 1.305 . S
O81 Zn64 1.920 . S
O81 C83 1.234 . S
C82 O68 1.305 . S
C82 O69 1.234 . S
C83 O80 1.305 . S
C83 O81 1.234 . S
Zn84 O90 1.920 . S
Zn84 O96 1.898 . S
Zn84 O99 1.905 . S
Zn85 O93 1.905 . S
Zn85 O94 1.898 . S
Zn85 O102 1.920 . S
Zn86 O89 2.080 . S
Zn86 O92 2.114 . S
Zn86 O95 2.120 . S
Zn86 O97 2.120 . S
Zn86 O98 2.114 . S
Zn86 O101 2.080 . S
C87 O92 1.166 . S
C87 O93 1.182 . S
C88 O94 1.167 . S
C88 O95 1.299 . S
O89 Zn86 2.080 . S
O89 C103 1.305 . S
O90 Zn84 1.920 . S
O90 C103 1.234 . S
C91 O96 1.167 . S
C91 O97 1.299 . S
O92 Zn86 2.114 . S
O92 C87 1.166 . S
O93 Zn85 1.905 . S
O93 C87 1.182 . S
O94 Zn85 1.898 . S
O94 C88 1.167 . S
O95 Zn86 2.120 . S
O95 C88 1.299 . S
O96 Zn84 1.898 . S
O96 C91 1.167 . S
O97 Zn86 2.120 . S
O97 C91 1.299 . S
O98 Zn86 2.114 . S
O98 C100 1.166 . S
O99 Zn84 1.905 . S
O99 C100 1.182 . S
C100 O98 1.166 . S
C100 O99 1.182 . S
O101 Zn86 2.080 . S
O101 C104 1.305 . S
O102 Zn85 1.920 . S
O102 C104 1.234 . S
C103 O89 1.305 . S
C103 O90 1.234 . S
C104 O101 1.305 . S
C104 O102 1.234 . S
Zn105 O111 1.920 . S
Zn105 O117 1.898 . S
Zn105 O120 1.905 . S
Zn106 O114 1.905 . S
Zn106 O115 1.898 . S
Zn106 O123 1.920 . S
Zn107 O110 2.080 . S
Zn107 O113 2.114 . S
Zn107 O116 2.120 . S
Zn107 O118 2.120 . S
Zn107 O119 2.114 . S
Zn107 O122 2.080 . S
C108 O113 1.166 . S
C108 O114 1.182 . S
C109 O115 1.167 . S
C109 O116 1.299 . S
O110 Zn107 2.080 . S
O110 C124 1.305 . S
O111 Zn105 1.920 . S
O111 C124 1.234 . S
C112 O117 1.167 . S
C112 O118 1.299 . S
O113 Zn107 2.114 . S
O113 C108 1.166 . S
O114 Zn106 1.905 . S
O114 C108 1.182 . S
O115 Zn106 1.898 . S
O115 C109 1.167 . S
O116 Zn107 2.120 . S
O116 C109 1.299 . S
O117 Zn105 1.898 . S
O117 C112 1.167 . S
O118 Zn107 2.120 . S
O118 C112 1.299 . S
O119 Zn107 2.114 . S
O119 C121 1.166 . S
O120 Zn105 1.905 . S
O120 C121 1.182 . S
C121 O119 1.166 . S
C121 O120 1.182 . S
O122 Zn107 2.080 . S
O122 C125 1.305 . S
O123 Zn106 1.920 . S
O123 C125 1.234 . S
C124 O110 1.305 . S
C124 O111 1.234 . S
C125 O122 1.305 . S
C125 O123 1.234 . S
Zn126 O132 1.920 . S
Zn126 O138 1.898 . S
Zn126 O141 1.905 . S
Zn127 O135 1.905 . S
Zn127 O136 1.898 . S
Zn127 O144 1.920 . S
Zn128 O131 2.080 . S
Zn128 O134 2.114 . S
Zn128 O137 2.120 . S
Zn128 O139 2.120 . S
Zn128 O140 2.114 . S
Zn128 O143 2.080 . S
C129 O134 1.166 . S
C129 O135 1.182 . S
C130 O136 1.167 . S
C130 O137 1.299 . S
O131 Zn128 2.080 . S
O131 C145 1.305 . S
O132 Zn126 1.920 . S
O132 C145 1.234 . S
C133 O138 1.167 . S
C133 O139 1.299 . S
O134 Zn128 2.114 . S
O134 C129 1.166 . S
O135 Zn127 1.905 . S
O135 C129 1.182 . S
O136 Zn127 1.898 . S
O136 C130 1.167 . S
O137 Zn128 2.120 . S
O137 C130 1.299 . S
O138 Zn126 1.898 . S
O138 C133 1.167 . S
O139 Zn128 2.120 . S
O139 C133 1.299 . S
O140 Zn128 2.114 . S
O140 C142 1.166 . S
O141 Zn126 1.905 . S
O141 C142 1.182 . S
C142 O140 1.166 . S
C142 O141 1.182 . S
O143 Zn128 2.080 . S
O143 C146 1.305 . S
O144 Zn127 1.920 . S
O144 C146 1.234 . S
C145 O131 1.305 . S
C145 O132 1.234 . S
C146 O143 1.305 . S
C146 O144 1.234 . S
Zn147 O153 1.920 . S
Zn147 O159 1.898 . S
Zn147 O162 1.905 . S
Zn148 O156 1.905 . S
Zn148 O157 1.898 . S
Zn148 O165 1.920 . S
Zn149 O152 2.080 . S
Zn149 O155 2.114 . S
Zn149 O158 2.120 . S
Zn149 O160 2.120 . S
Zn149 O161 2.114 . S
Zn149 O164 2.080 . S
C150 O155 1.166 . S
C150 O156 1.182 . S
C151 O157 1.167 . S
C151 O158 1.299 . S
O152 Zn149 2.080 . S
O152 C166 1.305 . S
O153 Zn147 1.920 . S
O153 C166 1.234 . S
C154 O159 1.167 . S
C154 O160 1.299 . S
O155 Zn149 2.114 . S
O155 C150 1.166 . S
O156 Zn148 1.905 . S
O156 C150 1.182 . S
O157 Zn148 1.898 . S
O157 C151 1.167 . S
O158 Zn149 2.120 . S
O158 C151 1.299 . S
O159 Zn147 1.898 . S
O159 C154 1.167 . S
O160 Zn149 2.120 . S
O160 C154 1.299 . S
O161 Zn149 2.114 . S
O161 C163 1.166 . S
O162 Zn147 1.905 . S
O162 C163 1.182 . S
C163 O161 1.166 . S
C163 O162 1.182 . S
O164 Zn149 2.080 . S
O164 C167 1.305 . S
O165 Zn148 1.920 . S
O165 C167 1.234 . S
C166 O152 1.305 . S
C166 O153 1.234 . S
C167 O164 1.305 . S
C167 O165 1.234 . S
Zn168 O174 1.920 . S
Zn168 O180 1.898 . S
Zn168 O183 1.905 . S
Zn169 O177 1.905 . S
Zn169 O178 1.898 . S
Zn169 O186 1.920 . S
Zn170 O173 2.080 . S
Zn170 O176 2.114 . S
Zn170 O179 2.120 . S
Zn170 O181 2.120 . S
Zn170 O182 2.114 . S
Zn170 O185 2.080 . S
C171 O176 1.166 . S
C171 O177 1.182 . S
C172 O178 1.167 . S
C172 O179 1.299 . S
O173 Zn170 2.080 . S
O173 C187 1.305 . S
O174 Zn168 1.920 . S
O174 C187 1.234 . S
C175 O180 1.167 . S
C175 O181 1.299 . S
O176 Zn170 2.114 . S
O176 C171 1.166 . S
O177 Zn169 1.905 . S
O177 C171 1.182 . S
O178 Zn169 1.898 . S
O178 C172 1.167 . S
O179 Zn170 2.120 . S
O179 C172 1.299 . S
O180 Zn168 1.898 . S
O180 C175 1.167 . S
O181 Zn170 2.120 . S
O181 C175 1.299 . S
O182 Zn170 2.114 . S
O182 C184 1.166 . S
O183 Zn168 1.905 . S
O183 C184 1.182 . S
C184 O182 1.166 . S
C184 O183 1.182 . S
O185 Zn170 2.080 . S
O185 C188 1.305 . S
O186 Zn169 1.920 . S
O186 C188 1.234 . S
C187 O173 1.305 . S
C187 O174 1.234 . S
C188 O185 1.305 . S
C188 O186 1.234 . S
Zn189 O195 1.920 . S
Zn189 O201 1.898 . S
Zn189 O204 1.905 . S
Zn190 O198 1.905 . S
Zn190 O199 1.898 . S
Zn190 O207 1.920 . S
Zn191 O194 2.080 . S
Zn191 O197 2.114 . S
Zn191 O200 2.120 . S
Zn191 O202 2.120 . S
Zn191 O203 2.114 . S
Zn191 O206 2.080 . S
C192 O197 1.166 . S
C192 O198 1.182 . S
C193 O199 1.167 . S
C193 O200 1.299 . S
O194 Zn191 2.080 . S
O194 C208 1.305 . S
O195 Zn189 1.920 . S
O195 C208 1.234 . S
C196 O201 1.167 . S
C196 O202 1.299 . S
O197 Zn191 2.114 . S
O197 C192 1.166 . S
O198 Zn190 1.905 . S
O198 C192 1.182 . S
O199 Zn190 1.898 . S
O199 C193 1.167 . S
O200 Zn191 2.120 . S
O200 C193 1.299 . S
O201 Zn189 1.898 . S
O201 C196 1.167 . S
O202 Zn191 2.120 . S
O202 C196 1.299 . S
O203 Zn191 2.114 . S
O203 C205 1.166 . S
O204 Zn189 1.905 . S
O204 C205 1.182 . S
C205 O203 1.166 . S
C205 O204 1.182 . S
O206 Zn191 2.080 . S
O206 C209 1.305 . S
O207 Zn190 1.920 . S
O207 C209 1.234 . S
C208 O194 1.305 . S
C208 O195 1.234 . S
C209 O206 1.305 . S
C209 O207 1.234 . S
Zn210 O216 1.920 . S
Zn210 O222 1.898 . S
Zn210 O225 1.905 . S
Zn211 O219 1.905 . S
Zn211 O220 1.898 . S
Zn211 O228 1.920 . S
Zn212 O215 2.080 . S
Zn212 O218 2.114 . S
Zn212 O221 2.120 . S
Zn212 O223 2.120 . S
Zn212 O224 2.114 . S
Zn212 O227 2.080 . S
C213 O218 1.166 . S
C213 O219 1.182 . S
C214 O220 1.167 . S
C214 O221 1.299 . S
O215 Zn212 2.080 . S
O215 C229 1.305 . S
O216 Zn210 1.920 . S
O216 C229 1.234 . S
C217 O222 1.167 . S
C217 O223 1.299 . S
O218 Zn212 2.114 . S
O218 C213 1.166 . S
O219 Zn211 1.905 . S
O219 C213 1.182 . S
O220 Zn211 1.898 . S
O220 C214 1.167 . S
O221 Zn212 2.120 . S
O221 C214 1.299 . S
O222 Zn210 1.898 . S
O222 C217 1.167 . S
O223 Zn212 2.120 . S
O223 C217 1.299 . S
O224 Zn212 2.114 . S
O224 C226 1.166 . S
O225 Zn210 1.905 . S
O225 C226 1.182 . S
C226 O224 1.166 . S
C226 O225 1.182 . S
O227 Zn212 2.080 . S
O227 C230 1.305 . S
O228 Zn211 1.920 . S
O228 C230 1.234 . S
C229 O215 1.305 . S
C229 O216 1.234 . S
C230 O227 1.305 . S
C230 O228 1.234 . S
Zn231 O237 1.920 . S
Zn231 O243 1.898 . S
Zn231 O246 1.905 . S
Zn232 O240 1.905 . S
Zn232 O241 1.898 . S
Zn232 O249 1.920 . S
Zn233 O236 2.080 . S
Zn233 O239 2.114 . S
Zn233 O242 2.120 . S
Zn233 O244 2.120 . S
Zn233 O245 2.114 . S
Zn233 O248 2.080 . S
C234 O239 1.166 . S
C234 O240 1.182 . S
C235 O241 1.167 . S
C235 O242 1.299 . S
O236 Zn233 2.080 . S
O236 C250 1.305 . S
O237 Zn231 1.920 . S
O237 C250 1.234 . S
C238 O243 1.167 . S
C238 O244 1.299 . S
O239 Zn233 2.114 . S
O239 C234 1.166 . S
O240 Zn232 1.905 . S
O240 C234 1.182 . S
O241 Zn232 1.898 . S
O241 C235 1.167 . S
O242 Zn233 2.120 . S
O242 C235 1.299 . S
O243 Zn231 1.898 . S
O243 C238 1.167 . S
O244 Zn233 2.120 . S
O244 C238 1.299 . S
O245 Zn233 2.114 . S
O245 C247 1.166 . S
O246 Zn231 1.905 . S
O246 C247 1.182 . S
C247 O245 1.166 . S
C247 O246 1.182 . S
O248 Zn233 2.080 . S
O248 C251 1.305 . S
O249 Zn232 1.920 . S
O249 C251 1.234 . S
C250 O236 1.305 . S
C250 O237 1.234 . S
C251 O248 1.305 . S
C251 O249 1.234 . S
Zn252 O258 1.920 . S
Zn252 O264 1.898 . S
Zn252 O267 1.905 . S
Zn253 O261 1.905 . S
Zn253 O262 1.898 . S
Zn253 O270 1.920 . S
Zn254 O257 2.080 . S
Zn254 O260 2.114 . S
Zn254 O263 2.120 . S
Zn254 O265 2.120 . S
Zn254 O266 2.114 . S
Zn254 O269 2.080 . S
C255 O260 1.166 . S
C255 O261 1.182 . S
C256 O262 1.167 . S
C256 O263 1.299 . S
O257 Zn254 2.080 . S
O257 C271 1.305 . S
O258 Zn252 1.920 . S
O258 C271 1.234 . S
C259 O264 1.167 . S
C259 O265 1.299 . S
O260 Zn254 2.114 . S
O260 C255 1.166 . S
O261 Zn253 1.905 . S
O261 C255 1.182 . S
O262 Zn253 1.898 . S
O262 C256 1.167 . S
O263 Zn254 2.120 . S
O263 C256 1.299 . S
O264 Zn252 1.898 . S
O264 C259 1.167 . S
O265 Zn254 2.120 . S
O265 C259 1.299 . S
O266 Zn254 2.114 . S
O266 C268 1.166 . S
O267 Zn252 1.905 . S
O267 C268 1.182 . S
C268 O266 1.166 . S
C268 O267 1.182 . S
O269 Zn254 2.080 . S
O269 C272 1.305 . S
O270 Zn253 1.920 . S
O270 C272 1.234 . S
C271 O257 1.305 . S
C271 O258 1.234 . S
C272 O269 1.305 . S
C272 O270 1.234 . S
Zn273 O279 1.920 . S
Zn273 O285 1.898 . S
Zn273 O288 1.905 . S
Zn274 O282 1.905 . S
Zn274 O283 1.898 . S
Zn274 O291 1.920 . S
Zn275 O278 2.080 . S
Zn275 O281 2.114 . S
Zn275 O284 2.120 . S
Zn275 O286 2.120 . S
Zn275 O287 2.114 . S
Zn275 O290 2.080 . S
C276 O281 1.166 . S
C276 O282 1.182 . S
C277 O283 1.167 . S
C277 O284 1.299 . S
O278 Zn275 2.080 . S
O278 C292 1.305 . S
O279 Zn273 1.920 . S
O279 C292 1.234 . S
C280 O285 1.167 . S
C280 O286 1.299 . S
O281 Zn275 2.114 . S
O281 C276 1.166 . S
O282 Zn274 1.905 . S
O282 C276 1.182 . S
O283 Zn274 1.898 . S
O283 C277 1.167 . S
O284 Zn275 2.120 . S
O284 C277 1.299 . S
O285 Zn273 1.898 . S
O285 C280 1.167 . S
O286 Zn275 2.120 . S
O286 C280 1.299 . S
O287 Zn275 2.114 . S
O287 C289 1.166 . S
O288 Zn273 1.905 . S
O288 C289 1.182 . S
C289 O287 1.166 . S
C289 O288 1.182 . S
O290 Zn275 2.080 . S
O290 C293 1.305 . S
O291 Zn274 1.920 . S
O291 C293 1.234 . S
C292 O278 1.305 . S
C292 O279 1.234 . S
C293 O290 1.305 . S
C293 O291 1.234 . S
Zn294 O300 1.920 . S
Zn294 O306 1.898 . S
Zn294 O309 1.905 . S
Zn295 O303 1.905 . S
Zn295 O304 1.898 . S
Zn295 O312 1.920 . S
Zn296 O299 2.080 . S
Zn296 O302 2.114 . S
Zn296 O305 2.120 . S
Zn296 O307 2.120 . S
Zn296 O308 2.114 . S
Zn296 O311 2.080 . S
C297 O302 1.166 . S
C297 O303 1.182 . S
C298 O304 1.167 . S
C298 O305 1.299 . S
O299 Zn296 2.080 . S
O299 C313 1.305 . S
O300 Zn294 1.920 . S
O300 C313 1.234 . S
C301 O306 1.167 . S
C301 O307 1.299 . S
O302 Zn296 2.114 . S
O302 C297 1.166 . S
O303 Zn295 1.905 . S
O303 C297 1.182 . S
O304 Zn295 1.898 . S
O304 C298 1.167 . S
O305 Zn296 2.120 . S
O305 C298 1.299 . S
O306 Zn294 1.898 . S
O306 C301 1.167 . S
O307 Zn296 2.120 . S
O307 C301 1.299 . S
O308 Zn296 2.114 . S
O308 C310 1.166 . S
O309 Zn294 1.905 . S
O309 C310 1.182 . S
C310 O308 1.166 . S
C310 O309 1.182 . S
O311 Zn296 2.080 . S
O311 C314 1.305 . S
O312 Zn295 1.920 . S
O312 C314 1.234 . S
C313 O299 1.305 . S
C313 O300 1.234 . S
C314 O311 1.305 . S
C314 O312 1.234 . S
Zn315 O321 1.920 . S
Zn315 O327 1.898 . S
Zn315 O330 1.905 . S
Zn316 O324 1.905 . S
Zn316 O325 1.898 . S
Zn316 O333 1.920 . S
Zn317 O320 2.080 . S
Zn317 O323 2.114 . S
Zn317 O326 2.120 . S
Zn317 O328 2.120 . S
Zn317 O329 2.114 . S
Zn317 O332 2.080 . S
C318 O323 1.166 . S
C318 O324 1.182 . S
C319 O325 1.167 . S
C319 O326 1.299 . S
O320 Zn317 2.080 . S
O320 C334 1.305 . S
O321 Zn315 1.920 . S
O321 C334 1.234 . S
C322 O327 1.167 . S
C322 O328 1.299 . S
O323 Zn317 2.114 . S
O323 C318 1.166 . S
O324 Zn316 1.905 . S
O324 C318 1.182 . S
O325 Zn316 1.898 . S
O325 C319 1.167 . S
O326 Zn317 2.120 . S
O326 C319 1.299 . S
O327 Zn315 1.898 . S
O327 C322 1.167 . S
O328 Zn317 2.120 . S
O328 C322 1.299 . S
O329 Zn317 2.114 . S
O329 C331 1.166 . S
O330 Zn315 1.905 . S
O330 C331 1.182 . S
C331 O329 1.166 . S
C331 O330 1.182 . S
O332 Zn317 2.080 . S
O332 C335 1.305 . S
O333 Zn316 1.920 . S
O333 C335 1.234 . S
C334 O320 1.305 . S
C334 O321 1.234 . S
C335 O332 1.305 . S
C335 O333 1.234 . S
C336 O348 1.241 . S
C336 O349 1.280 . S
C337 O350 1.277 . S
C337 O351 1.245 . S
C338 O362 1.247 . S
C338 O364 1.289 . S
Mg339 O340 1.926 1_455 S
Mg339 O349 1.984 1_455 S
Mg339 O351 1.988 . S
Mg339 O352 2.061 1_455 S
O340 Mg339 1.926 1_655 S
O340 Mg341 1.986 . S
O340 Mg342 1.917 1_655 S
Mg341 O340 1.986 . S
Mg341 O348 2.042 . S
Mg341 O350 2.041 1_655 S
Mg341 O356 2.038 . S
Mg341 O364 2.238 1_655 S
Mg342 O340 1.917 1_455 S
Mg342 O343 1.917 . S
Mg342 O353 2.106 1_455 S
Mg342 O355 2.079 1_455 S
Mg342 O364 2.106 . S
Mg342 O365 2.079 . S
O343 Mg342 1.917 . S
O343 Mg344 1.926 1_455 S
O343 Mg345 1.986 . S
Mg344 O343 1.926 1_655 S
Mg344 O358 1.984 1_655 S
Mg344 O361 1.988 . S
Mg344 O362 2.061 1_655 S
Mg345 O343 1.986 . S
Mg345 O353 2.238 1_455 S
Mg345 O357 2.042 . S
Mg345 O359 2.041 1_455 S
Mg345 O366 2.038 . S
C346 O352 1.247 . S
C346 O353 1.289 . S
C347 O365 1.245 . S
C347 O366 1.274 . S
O348 C336 1.241 . S
O348 Mg341 2.042 . S
O349 C336 1.280 . S
O349 Mg339 1.984 1_655 S
O350 C337 1.277 . S
O350 Mg341 2.041 1_455 S
O351 C337 1.245 . S
O351 Mg339 1.988 . S
O352 Mg339 2.061 1_655 S
O352 C346 1.247 . S
O353 Mg342 2.106 1_655 S
O353 Mg345 2.238 1_655 S
O353 C346 1.289 . S
C354 O355 1.245 . S
C354 O356 1.274 . S
O355 Mg342 2.079 1_655 S
O355 C354 1.245 . S
O356 Mg341 2.038 . S
O356 C354 1.274 . S
O357 Mg345 2.042 . S
O357 C360 1.241 . S
O358 Mg344 1.984 1_455 S
O358 C360 1.280 . S
O359 Mg345 2.041 1_655 S
O359 C363 1.277 . S
C360 O357 1.241 . S
C360 O358 1.280 . S
O361 Mg344 1.988 . S
O361 C363 1.245 . S
O362 C338 1.247 . S
O362 Mg344 2.061 1_455 S
C363 O359 1.277 . S
C363 O361 1.245 . S
O364 C338 1.289 . S
O364 Mg341 2.238 1_455 S
O364 Mg342 2.106 . S
O365 Mg342 2.079 . S
O365 C347 1.245 . S
O366 Mg345 2.038 . S
O366 C347 1.274 . S
C367 O379 1.241 . S
C367 O380 1.280 . S
C368 O381 1.277 . S
C368 O382 1.245 . S
C369 O393 1.247 . S
C369 O395 1.289 . S
Mg370 O371 1.926 . S
Mg370 O380 1.984 . S
Mg370 O382 1.988 . S
Mg370 O383 2.061 . S
O371 Mg370 1.926 . S
O371 Mg372 1.986 . S
O371 Mg373 1.917 . S
Mg372 O371 1.986 . S
Mg372 O379 2.042 . S
Mg372 O381 2.041 . S
Mg372 O387 2.038 . S
Mg372 O395 2.238 . S
Mg373 O371 1.917 . S
Mg373 O374 1.917 . S
Mg373 O384 2.106 . S
Mg373 O386 2.079 . S
Mg373 O395 2.106 . S
Mg373 O396 2.079 . S
O374 Mg373 1.917 . S
O374 Mg375 1.926 . S
O374 Mg376 1.986 . S
Mg375 O374 1.926 . S
Mg375 O389 1.984 . S
Mg375 O392 1.988 . S
Mg375 O393 2.061 . S
Mg376 O374 1.986 . S
Mg376 O384 2.238 . S
Mg376 O388 2.042 . S
Mg376 O390 2.041 . S
Mg376 O397 2.038 . S
C377 O383 1.247 . S
C377 O384 1.289 . S
C378 O396 1.245 . S
C378 O397 1.274 . S
O379 C367 1.241 . S
O379 Mg372 2.042 . S
O380 C367 1.280 . S
O380 Mg370 1.984 . S
O381 C368 1.277 . S
O381 Mg372 2.041 . S
O382 C368 1.245 . S
O382 Mg370 1.988 . S
O383 Mg370 2.061 . S
O383 C377 1.247 . S
O384 Mg373 2.106 . S
O384 Mg376 2.238 . S
O384 C377 1.289 . S
C385 O386 1.245 . S
C385 O387 1.274 . S
O386 Mg373 2.079 . S
O386 C385 1.245 . S
O387 Mg372 2.038 . S
O387 C385 1.274 . S
O388 Mg376 2.042 . S
O388 C391 1.241 . S
O389 Mg375 1.984 . S
O389 C391 1.280 . S
O390 Mg376 2.041 . S
O390 C394 1.277 . S
C391 O388 1.241 . S
C391 O389 1.280 . S
O392 Mg375 1.988 . S
O392 C394 1.245 . S
O393 C369 1.247 . S
O393 Mg375 2.061 . S
C394 O390 1.277 . S
C394 O392 1.245 . S
O395 C369 1.289 . S
O395 Mg372 2.238 . S
O395 Mg373 2.106 . S
O396 Mg373 2.079 . S
O396 C378 1.245 . S
O397 Mg376 2.038 . S
O397 C378 1.274 . S
C398 O410 1.241 . S
C398 O411 1.280 . S
C399 O412 1.277 . S
C399 O413 1.245 . S
C400 O424 1.247 . S
C400 O426 1.289 . S
Mg401 O402 1.926 1_455 S
Mg401 O411 1.984 1_455 S
Mg401 O413 1.988 . S
Mg401 O414 2.061 . S
O402 Mg401 1.926 1_655 S
O402 Mg403 1.986 . S
O402 Mg404 1.917 1_655 S
Mg403 O402 1.986 . S
Mg403 O410 2.042 . S
Mg403 O412 2.041 1_655 S
Mg403 O418 2.038 . S
Mg403 O426 2.238 1_655 S
Mg404 O402 1.917 1_455 S
Mg404 O405 1.917 . S
Mg404 O415 2.105 1_455 S
Mg404 O417 2.079 1_455 S
Mg404 O426 2.106 . S
Mg404 O427 2.079 . S
O405 Mg404 1.917 . S
O405 Mg406 1.926 1_455 S
O405 Mg407 1.986 . S
Mg406 O405 1.926 1_655 S
Mg406 O420 1.984 1_655 S
Mg406 O423 1.988 . S
Mg406 O424 2.061 1_655 S
Mg407 O405 1.986 . S
Mg407 O415 2.232 1_455 S
Mg407 O419 2.042 . S
Mg407 O421 2.041 1_455 S
Mg407 O428 2.038 . S
C408 O414 1.247 1_655 S
C408 O415 1.291 . S
C409 O427 1.245 . S
C409 O428 1.274 . S
O410 C398 1.241 . S
O410 Mg403 2.042 . S
O411 C398 1.280 . S
O411 Mg401 1.984 1_655 S
O412 C399 1.277 . S
O412 Mg403 2.041 1_455 S
O413 C399 1.245 . S
O413 Mg401 1.988 . S
O414 Mg401 2.061 . S
O414 C408 1.247 1_455 S
O415 Mg404 2.105 1_655 S
O415 Mg407 2.232 1_655 S
O415 C408 1.291 . S
C416 O417 1.245 . S
C416 O418 1.274 . S
O417 Mg404 2.079 1_655 S
O417 C416 1.245 . S
O418 Mg403 2.038 . S
O418 C416 1.274 . S
O419 Mg407 2.042 . S
O419 C422 1.241 . S
O420 Mg406 1.984 1_455 S
O420 C422 1.280 . S
O421 Mg407 2.041 1_655 S
O421 C425 1.277 . S
C422 O419 1.241 . S
C422 O420 1.280 . S
O423 Mg406 1.988 . S
O423 C425 1.245 . S
O424 C400 1.247 . S
O424 Mg406 2.061 1_455 S
C425 O421 1.277 . S
C425 O423 1.245 . S
O426 C400 1.289 . S
O426 Mg403 2.238 1_455 S
O426 Mg404 2.106 . S
O427 Mg404 2.079 . S
O427 C409 1.245 . S
O428 Mg407 2.038 . S
O428 C409 1.274 . S
C429 O441 1.241 . S
C429 O442 1.280 . S
C430 O443 1.277 . S
C430 O444 1.245 . S
C431 O455 1.260 . S
C431 O457 1.289 . S
Mg432 O433 1.926 1_565 S
Mg432 O442 1.984 1_565 S
Mg432 O444 1.988 . S
Mg432 O445 2.061 1_565 S
O433 Mg432 1.926 1_545 S
O433 Mg434 1.986 . S
O433 Mg435 1.917 . S
Mg434 O433 1.986 . S
Mg434 O441 2.042 . S
Mg434 O443 2.041 1_545 S
Mg434 O449 2.038 . S
Mg434 O457 2.238 1_545 S
Mg435 O433 1.917 . S
Mg435 O436 1.917 1_545 S
Mg435 O446 2.106 . S
Mg435 O448 2.079 . S
Mg435 O457 2.106 1_545 S
Mg435 O458 2.079 1_545 S
O436 Mg435 1.917 1_565 S
O436 Mg437 1.926 1_565 S
O436 Mg438 1.986 . S
Mg437 O436 1.926 1_545 S
Mg437 O451 1.984 1_545 S
Mg437 O454 1.988 . S
Mg437 O455 2.054 1_545 S
Mg438 O436 1.986 . S
Mg438 O446 2.238 1_565 S
Mg438 O450 2.042 . S
Mg438 O452 2.041 1_565 S
Mg438 O459 2.038 . S
C439 O445 1.247 . S
C439 O446 1.289 . S
C440 O458 1.245 . S
C440 O459 1.274 . S
O441 C429 1.241 . S
O441 Mg434 2.042 . S
O442 C429 1.280 . S
O442 Mg432 1.984 1_545 S
O443 C430 1.277 . S
O443 Mg434 2.041 1_565 S
O444 C430 1.245 . S
O444 Mg432 1.988 . S
O445 Mg432 2.061 1_545 S
O445 C439 1.247 . S
O446 Mg435 2.106 . S
O446 Mg438 2.238 1_545 S
O446 C439 1.289 . S
C447 O448 1.245 . S
C447 O449 1.274 . S
O448 Mg435 2.079 . S
O448 C447 1.245 . S
O449 Mg434 2.038 . S
O449 C447 1.274 . S
O450 Mg438 2.042 . S
O450 C453 1.241 . S
O451 Mg437 1.984 1_565 S
O451 C453 1.280 . S
O452 Mg438 2.041 1_545 S
O452 C456 1.277 . S
C453 O450 1.241 . S
C453 O451 1.280 . S
O454 Mg437 1.988 . S
O454 C456 1.245 . S
O455 C431 1.260 . S
O455 Mg437 2.054 1_565 S
C456 O452 1.277 . S
C456 O454 1.245 . S
O457 C431 1.289 . S
O457 Mg434 2.238 1_565 S
O457 Mg435 2.106 1_565 S
O458 Mg435 2.079 1_565 S
O458 C440 1.245 . S
O459 Mg438 2.038 . S
O459 C440 1.274 . S
C460 O472 1.241 . S
C460 O473 1.280 . S
C461 O474 1.277 . S
C461 O475 1.245 . S
C462 O486 1.247 . S
C462 O488 1.289 . S
Mg463 O464 1.920 1_554 S
Mg463 O473 1.984 1_554 S
Mg463 O475 1.988 . S
Mg463 O476 2.061 . S
O464 Mg463 1.920 1_556 S
O464 Mg465 1.992 . S
O464 Mg466 1.916 1_556 S
Mg465 O464 1.992 . S
Mg465 O472 2.042 . S
Mg465 O474 2.041 1_556 S
Mg465 O480 2.038 . S
Mg465 O488 2.238 . S
Mg466 O464 1.916 1_554 S
Mg466 O467 1.917 . S
Mg466 O477 2.106 . S
Mg466 O479 2.079 1_554 S
Mg466 O488 2.106 1_554 S
Mg466 O489 2.079 . S
O467 Mg466 1.917 . S
O467 Mg468 1.926 1_554 S
O467 Mg469 1.986 . S
Mg468 O467 1.926 1_556 S
Mg468 O482 1.984 1_556 S
Mg468 O485 1.988 . S
Mg468 O486 2.061 . S
Mg469 O467 1.986 . S
Mg469 O477 2.238 . S
Mg469 O481 2.042 . S
Mg469 O483 2.041 . S
Mg469 O490 2.038 . S
C470 O476 1.247 . S
C470 O477 1.289 . S
C471 O489 1.245 . S
C471 O490 1.274 . S
O472 C460 1.241 . S
O472 Mg465 2.042 . S
O473 C460 1.280 . S
O473 Mg463 1.984 1_556 S
O474 C461 1.277 . S
O474 Mg465 2.041 1_554 S
O475 C461 1.245 . S
O475 Mg463 1.988 . S
O476 Mg463 2.061 . S
O476 C470 1.247 . S
O477 Mg466 2.106 . S
O477 Mg469 2.238 . S
O477 C470 1.289 . S
C478 O479 1.245 . S
C478 O480 1.274 . S
O479 Mg466 2.079 1_556 S
O479 C478 1.245 . S
O480 Mg465 2.038 . S
O480 C478 1.274 . S
O481 Mg469 2.042 . S
O481 C484 1.241 . S
O482 Mg468 1.984 1_554 S
O482 C484 1.280 . S
O483 Mg469 2.041 . S
O483 C487 1.277 1_554 S
C484 O481 1.241 . S
C484 O482 1.280 . S
O485 Mg468 1.988 . S
O485 C487 1.245 . S
O486 C462 1.247 . S
O486 Mg468 2.061 . S
C487 O483 1.277 1_556 S
C487 O485 1.245 . S
O488 C462 1.289 . S
O488 Mg465 2.238 . S
O488 Mg466 2.106 1_556 S
O489 Mg466 2.079 . S
O489 C471 1.245 . S
O490 Mg469 2.038 . S
O490 C471 1.274 . S
C491 O503 1.241 . S
C491 O504 1.280 . S
C492 O505 1.277 . S
C492 O506 1.245 . S
C493 O517 1.247 . S
C493 O519 1.289 . S
Mg494 O495 1.926 . S
Mg494 O504 1.984 . S
Mg494 O506 1.988 . S
Mg494 O507 2.061 . S
O495 Mg494 1.926 . S
O495 Mg496 1.986 . S
O495 Mg497 1.917 . S
Mg496 O495 1.986 . S
Mg496 O503 2.042 . S
Mg496 O505 2.041 . S
Mg496 O511 2.038 . S
Mg496 O519 2.238 . S
Mg497 O495 1.917 . S
Mg497 O498 1.917 . S
Mg497 O508 2.106 . S
Mg497 O510 2.079 . S
Mg497 O519 2.106 . S
Mg497 O520 2.079 . S
O498 Mg497 1.917 . S
O498 Mg499 1.926 . S
O498 Mg500 1.986 . S
Mg499 O498 1.926 . S
Mg499 O513 1.984 . S
Mg499 O516 1.988 . S
Mg499 O517 2.061 . S
Mg500 O498 1.986 . S
Mg500 O508 2.238 . S
Mg500 O512 2.042 . S
Mg500 O514 2.041 . S
Mg500 O521 2.038 . S
C501 O507 1.247 . S
C501 O508 1.289 . S
C502 O520 1.245 . S
C502 O521 1.274 . S
O503 C491 1.241 . S
O503 Mg496 2.042 . S
O504 C491 1.280 . S
O504 Mg494 1.984 . S
O505 C492 1.277 . S
O505 Mg496 2.041 . S
O506 C492 1.245 . S
O506 Mg494 1.988 . S
O507 Mg494 2.061 . S
O507 C501 1.247 . S
O508 Mg497 2.106 . S
O508 Mg500 2.238 . S
O508 C501 1.289 . S
C509 O510 1.245 . S
C509 O511 1.274 . S
O510 Mg497 2.079 . S
O510 C509 1.245 . S
O511 Mg496 2.038 . S
O511 C509 1.274 . S
O512 Mg500 2.042 . S
O512 C515 1.241 . S
O513 Mg499 1.984 . S
O513 C515 1.280 . S
O514 Mg500 2.041 . S
O514 C518 1.277 . S
C515 O512 1.241 . S
C515 O513 1.280 . S
O516 Mg499 1.988 . S
O516 C518 1.245 . S
O517 C493 1.247 . S
O517 Mg499 2.061 . S
C518 O514 1.277 . S
C518 O516 1.245 . S
O519 C493 1.289 . S
O519 Mg496 2.238 . S
O519 Mg497 2.106 . S
O520 Mg497 2.079 . S
O520 C502 1.245 . S
O521 Mg500 2.038 . S
O521 C502 1.274 . S
C522 O534 1.241 . S
C522 O535 1.280 . S
C523 O536 1.277 . S
C523 O537 1.245 . S
C524 O548 1.250 . S
C524 O550 1.289 . S
Mg525 O526 1.926 1_556 S
Mg525 O535 1.984 1_556 S
Mg525 O537 1.988 . S
Mg525 O538 2.058 1_556 S
O526 Mg525 1.926 1_554 S
O526 Mg527 1.986 . S
O526 Mg528 1.917 . S
Mg527 O526 1.986 . S
Mg527 O534 2.042 . S
Mg527 O536 2.041 1_554 S
Mg527 O542 2.038 . S
Mg527 O550 2.238 1_554 S
Mg528 O526 1.917 . S
Mg528 O529 1.917 1_554 S
Mg528 O539 2.106 . S
Mg528 O541 2.079 . S
Mg528 O550 2.106 1_554 S
Mg528 O551 2.079 1_554 S
O529 Mg528 1.917 1_556 S
O529 Mg530 1.926 1_556 S
O529 Mg531 1.986 . S
Mg530 O529 1.926 1_554 S
Mg530 O544 1.984 1_554 S
Mg530 O547 1.988 . S
Mg530 O548 2.060 1_554 S
Mg531 O529 1.986 . S
Mg531 O539 2.238 1_556 S
Mg531 O543 2.042 . S
Mg531 O545 2.041 1_556 S
Mg531 O552 2.038 . S
C532 O538 1.253 . S
C532 O539 1.289 . S
C533 O551 1.245 . S
C533 O552 1.274 . S
O534 C522 1.241 . S
O534 Mg527 2.042 . S
O535 C522 1.280 . S
O535 Mg525 1.984 1_554 S
O536 C523 1.277 . S
O536 Mg527 2.041 1_556 S
O537 C523 1.245 . S
O537 Mg525 1.988 . S
O538 Mg525 2.058 1_554 S
O538 C532 1.253 . S
O539 Mg528 2.106 . S
O539 Mg531 2.238 1_554 S
O539 C532 1.289 . S
C540 O541 1.245 . S
C540 O542 1.274 . S
O541 Mg528 2.079 . S
O541 C540 1.245 . S
O542 Mg527 2.038 . S
O542 C540 1.274 . S
O543 Mg531 2.042 . S
O543 C546 1.241 . S
O544 Mg530 1.984 1_556 S
O544 C546 1.280 . S
O545 Mg531 2.041 1_554 S
O545 C549 1.277 . S
C546 O543 1.241 . S
C546 O544 1.280 . S
O547 Mg530 1.988 . S
O547 C549 1.245 . S
O548 C524 1.250 . S
O548 Mg530 2.060 1_556 S
C549 O545 1.277 . S
C549 O547 1.245 . S
O550 C524 1.289 . S
O550 Mg527 2.238 1_556 S
O550 Mg528 2.106 1_556 S
O551 Mg528 2.079 1_556 S
O551 C533 1.245 . S
O552 Mg531 2.038 . S
O552 C533 1.274 . S
C553 O565 1.241 . S
C553 O566 1.280 . S
C554 O567 1.277 . S
C554 O568 1.245 . S
C555 O579 1.247 . S
C555 O581 1.289 . S
Mg556 O557 1.926 . S
Mg556 O566 1.984 . S
Mg556 O568 1.988 . S
Mg556 O569 2.061 . S
O557 Mg556 1.926 . S
O557 Mg558 1.986 . S
O557 Mg559 1.917 . S
Mg558 O557 1.986 . S
Mg558 O565 2.042 . S
Mg558 O567 2.041 . S
Mg558 O573 2.038 . S
Mg558 O581 2.238 . S
Mg559 O557 1.917 . S
Mg559 O560 1.917 . S
Mg559 O570 2.106 . S
Mg559 O572 2.079 . S
Mg559 O581 2.106 . S
Mg559 O582 2.079 . S
O560 Mg559 1.917 . S
O560 Mg561 1.926 . S
O560 Mg562 1.986 . S
Mg561 O560 1.926 . S
Mg561 O575 1.984 . S
Mg561 O578 1.988 . S
Mg561 O579 2.061 . S
Mg562 O560 1.986 . S
Mg562 O570 2.238 . S
Mg562 O574 2.042 . S
Mg562 O576 2.041 . S
Mg562 O583 2.038 . S
C563 O569 1.247 . S
C563 O570 1.289 . S
C564 O582 1.245 . S
C564 O583 1.274 . S
O565 C553 1.241 . S
O565 Mg558 2.042 . S
O566 C553 1.280 . S
O566 Mg556 1.984 . S
O567 C554 1.277 . S
O567 Mg558 2.041 . S
O568 C554 1.245 . S
O568 Mg556 1.988 . S
O569 Mg556 2.061 . S
O569 C563 1.247 . S
O570 Mg559 2.106 . S
O570 Mg562 2.238 . S
O570 C563 1.289 . S
C571 O572 1.245 . S
C571 O573 1.274 . S
O572 Mg559 2.079 . S
O572 C571 1.245 . S
O573 Mg558 2.038 . S
O573 C571 1.274 . S
O574 Mg562 2.042 . S
O574 C577 1.241 . S
O575 Mg561 1.984 . S
O575 C577 1.280 . S
O576 Mg562 2.041 . S
O576 C580 1.277 . S
C577 O574 1.241 . S
C577 O575 1.280 . S
O578 Mg561 1.988 . S
O578 C580 1.245 . S
O579 C555 1.247 . S
O579 Mg561 2.061 . S
C580 O576 1.277 . S
C580 O578 1.245 . S
O581 C555 1.289 . S
O581 Mg558 2.238 . S
O581 Mg559 2.106 . S
O582 Mg559 2.079 . S
O582 C564 1.245 . S
O583 Mg562 2.038 . S
O583 C564 1.274 . S
C584 O596 1.241 . S
C584 O597 1.280 . S
C585 O598 1.277 . S
C585 O599 1.245 . S
C586 O610 1.247 . S
C586 O612 1.289 . S
Mg587 O588 1.926 . S
Mg587 O597 1.984 . S
Mg587 O599 1.988 . S
Mg587 O600 2.061 . S
O588 Mg587 1.926 . S
O588 Mg589 1.986 . S
O588 Mg590 1.917 . S
Mg589 O588 1.986 . S
Mg589 O596 2.042 . S
Mg589 O598 2.041 . S
Mg589 O604 2.038 . S
Mg589 O612 2.238 . S
Mg590 O588 1.917 . S
Mg590 O591 1.917 . S
Mg590 O601 2.106 . S
Mg590 O603 2.079 . S
Mg590 O612 2.106 . S
Mg590 O613 2.079 . S
O591 Mg590 1.917 . S
O591 Mg592 1.926 . S
O591 Mg593 1.986 . S
Mg592 O591 1.926 . S
Mg592 O606 1.984 . S
Mg592 O609 1.988 . S
Mg592 O610 2.061 . S
Mg593 O591 1.986 . S
Mg593 O601 2.238 . S
Mg593 O605 2.042 . S
Mg593 O607 2.041 . S
Mg593 O614 2.038 . S
C594 O600 1.247 . S
C594 O601 1.289 . S
C595 O613 1.245 . S
C595 O614 1.274 . S
O596 C584 1.241 . S
O596 Mg589 2.042 . S
O597 C584 1.280 . S
O597 Mg587 1.984 . S
O598 C585 1.277 . S
O598 Mg589 2.041 . S
O599 C585 1.245 . S
O599 Mg587 1.988 . S
O600 Mg587 2.061 . S
O600 C594 1.247 . S
O601 Mg590 2.106 . S
O601 Mg593 2.238 . S
O601 C594 1.289 . S
C602 O603 1.245 . S
C602 O604 1.274 . S
O603 Mg590 2.079 . S
O603 C602 1.245 . S
O604 Mg589 2.038 . S
O604 C602 1.274 . S
O605 Mg593 2.042 . S
O605 C608 1.241 . S
O606 Mg592 1.984 . S
O606 C608 1.280 . S
O607 Mg593 2.041 . S
O607 C611 1.277 . S
C608 O605 1.241 . S
C608 O606 1.280 . S
O609 Mg592 1.988 . S
O609 C611 1.245 . S
O610 C586 1.247 . S
O610 Mg592 2.061 . S
C611 O607 1.277 . S
C611 O609 1.245 . S
O612 C586 1.289 . S
O612 Mg589 2.238 . S
O612 Mg590 2.106 . S
O613 Mg590 2.079 . S
O613 C595 1.245 . S
O614 Mg593 2.038 . S
O614 C595 1.274 . S
C615 O627 1.241 . S
C615 O628 1.280 . S
C616 O629 1.277 . S
C616 O630 1.245 . S
C617 O641 1.247 . S
C617 O643 1.289 . S
Mg618 O619 1.926 . S
Mg618 O628 1.984 . S
Mg618 O630 1.988 . S
Mg618 O631 2.061 . S
O619 Mg618 1.926 . S
O619 Mg620 1.986 . S
O619 Mg621 1.917 . S
Mg620 O619 1.986 . S
Mg620 O627 2.042 . S
Mg620 O629 2.041 . S
Mg620 O635 2.038 . S
Mg620 O643 2.238 . S
Mg621 O619 1.917 . S
Mg621 O622 1.917 . S
Mg621 O632 2.106 . S
Mg621 O634 2.079 . S
Mg621 O643 2.106 . S
Mg621 O644 2.079 . S
O622 Mg621 1.917 . S
O622 Mg623 1.926 . S
O622 Mg624 1.986 . S
Mg623 O622 1.926 . S
Mg623 O637 1.984 . S
Mg623 O640 1.988 . S
Mg623 O641 2.061 . S
Mg624 O622 1.986 . S
Mg624 O632 2.238 . S
Mg624 O636 2.042 . S
Mg624 O638 2.041 . S
Mg624 O645 2.038 . S
C625 O631 1.247 . S
C625 O632 1.289 . S
C626 O644 1.245 . S
C626 O645 1.274 . S
O627 C615 1.241 . S
O627 Mg620 2.042 . S
O628 C615 1.280 . S
O628 Mg618 1.984 . S
O629 C616 1.277 . S
O629 Mg620 2.041 . S
O630 C616 1.245 . S
O630 Mg618 1.988 . S
O631 Mg618 2.061 . S
O631 C625 1.247 . S
O632 Mg621 2.106 . S
O632 Mg624 2.238 . S
O632 C625 1.289 . S
C633 O634 1.245 . S
C633 O635 1.274 . S
O634 Mg621 2.079 . S
O634 C633 1.245 . S
O635 Mg620 2.038 . S
O635 C633 1.274 . S
O636 Mg624 2.042 . S
O636 C639 1.241 . S
O637 Mg623 1.984 . S
O637 C639 1.280 . S
O638 Mg624 2.041 . S
O638 C642 1.277 . S
C639 O636 1.241 . S
C639 O637 1.280 . S
O640 Mg623 1.988 . S
O640 C642 1.245 . S
O641 C617 1.247 . S
O641 Mg623 2.061 . S
C642 O638 1.277 . S
C642 O640 1.245 . S
O643 C617 1.289 . S
O643 Mg620 2.238 . S
O643 Mg621 2.106 . S
O644 Mg621 2.079 . S
O644 C626 1.245 . S
O645 Mg624 2.038 . S
O645 C626 1.274 . S
C646 O658 1.241 . S
C646 O659 1.280 . S
C647 O660 1.277 . S
C647 O661 1.245 . S
C648 O672 1.247 . S
C648 O674 1.289 . S
Mg649 O650 1.926 1_565 S
Mg649 O659 1.984 1_565 S
Mg649 O661 1.988 . S
Mg649 O662 2.061 1_565 S
O650 Mg649 1.926 1_545 S
O650 Mg651 1.986 . S
O650 Mg652 1.926 . S
Mg651 O650 1.986 . S
Mg651 O658 2.042 . S
Mg651 O660 2.041 1_545 S
Mg651 O666 2.038 . S
Mg651 O674 2.238 1_545 S
Mg652 O650 1.926 . S
Mg652 O653 1.909 1_545 S
Mg652 O663 2.111 . S
Mg652 O665 2.116 . S
Mg652 O674 2.103 1_545 S
Mg652 O675 2.041 1_545 S
O653 Mg652 1.909 1_565 S
O653 Mg654 1.926 1_565 S
O653 Mg655 1.986 . S
Mg654 O653 1.926 1_545 S
Mg654 O668 1.984 1_545 S
Mg654 O671 1.988 . S
Mg654 O672 2.061 1_545 S
Mg655 O653 1.986 . S
Mg655 O663 2.238 1_565 S
Mg655 O667 2.042 . S
Mg655 O669 2.041 1_565 S
Mg655 O676 2.038 . S
C656 O662 1.247 . S
C656 O663 1.289 . S
C657 O675 1.245 . S
C657 O676 1.274 . S
O658 C646 1.241 . S
O658 Mg651 2.042 . S
O659 C646 1.280 . S
O659 Mg649 1.984 1_545 S
O660 C647 1.277 . S
O660 Mg651 2.041 1_565 S
O661 C647 1.245 . S
O661 Mg649 1.988 . S
O662 Mg649 2.061 1_545 S
O662 C656 1.247 . S
O663 Mg652 2.111 . S
O663 Mg655 2.238 1_545 S
O663 C656 1.289 . S
C664 O665 1.245 . S
C664 O666 1.274 . S
O665 Mg652 2.116 . S
O665 C664 1.245 . S
O666 Mg651 2.038 . S
O666 C664 1.274 . S
O667 Mg655 2.042 . S
O667 C670 1.241 . S
O668 Mg654 1.984 1_565 S
O668 C670 1.280 . S
O669 Mg655 2.041 1_545 S
O669 C673 1.277 . S
C670 O667 1.241 . S
C670 O668 1.280 . S
O671 Mg654 1.988 . S
O671 C673 1.245 . S
O672 C648 1.247 . S
O672 Mg654 2.061 1_565 S
C673 O669 1.277 . S
C673 O671 1.245 . S
O674 C648 1.289 . S
O674 Mg651 2.238 1_565 S
O674 Mg652 2.103 1_565 S
O675 Mg652 2.041 1_565 S
O675 C657 1.245 . S
O676 Mg655 2.038 . S
O676 C657 1.274 . S
C677 O689 1.241 . S
C677 O690 1.280 . S
C678 O691 1.277 . S
C678 O692 1.245 . S
C679 O703 1.247 . S
C679 O705 1.289 . S
Mg680 O681 1.926 . S
Mg680 O690 1.984 . S
Mg680 O692 1.988 . S
Mg680 O693 2.061 . S
O681 Mg680 1.926 . S
O681 Mg682 1.986 . S
O681 Mg683 1.917 . S
Mg682 O681 1.986 . S
Mg682 O689 2.042 . S
Mg682 O691 2.041 . S
Mg682 O697 2.038 . S
Mg682 O705 2.238 . S
Mg683 O681 1.917 . S
Mg683 O684 1.917 . S
Mg683 O694 2.106 . S
Mg683 O696 2.079 . S
Mg683 O705 2.106 . S
Mg683 O706 2.079 . S
O684 Mg683 1.917 . S
O684 Mg685 1.926 . S
O684 Mg686 1.986 . S
Mg685 O684 1.926 . S
Mg685 O699 1.984 . S
Mg685 O702 1.988 . S
Mg685 O703 2.061 . S
Mg686 O684 1.986 . S
Mg686 O694 2.238 . S
Mg686 O698 2.042 . S
Mg686 O700 2.041 . S
Mg686 O707 2.038 . S
C687 O693 1.247 . S
C687 O694 1.289 . S
C688 O706 1.245 . S
C688 O707 1.274 . S
O689 C677 1.241 . S
O689 Mg682 2.042 . S
O690 C677 1.280 . S
O690 Mg680 1.984 . S
O691 C678 1.277 . S
O691 Mg682 2.041 . S
O692 C678 1.245 . S
O692 Mg680 1.988 . S
O693 Mg680 2.061 . S
O693 C687 1.247 . S
O694 Mg683 2.106 . S
O694 Mg686 2.238 . S
O694 C687 1.289 . S
C695 O696 1.245 . S
C695 O697 1.274 . S
O696 Mg683 2.079 . S
O696 C695 1.245 . S
O697 Mg682 2.038 . S
O697 C695 1.274 . S
O698 Mg686 2.042 . S
O698 C701 1.241 . S
O699 Mg685 1.984 . S
O699 C701 1.280 . S
O700 Mg686 2.041 . S
O700 C704 1.277 . S
C701 O698 1.241 . S
C701 O699 1.280 . S
O702 Mg685 1.988 . S
O702 C704 1.245 . S
O703 C679 1.247 . S
O703 Mg685 2.061 . S
C704 O700 1.277 . S
C704 O702 1.245 . S
O705 C679 1.289 . S
O705 Mg682 2.238 . S
O705 Mg683 2.106 . S
O706 Mg683 2.079 . S
O706 C688 1.245 . S
O707 Mg686 2.038 . S
O707 C688 1.274 . S
H708 C726 0.951 . S
H709 C728 0.951 . S
H710 C730 0.950 . S
H711 C731 0.950 . S
H712 C733 0.950 . S
H713 C736 0.950 . S
H714 C737 0.950 . S
H715 C739 0.950 . S
H716 C740 0.950 . S
H717 C741 0.951 . S
H718 C743 0.951 . S
H719 C745 0.950 . S
H720 C746 0.950 . S
H721 C748 0.950 . S
H722 C751 0.950 . S
H723 C752 0.950 . S
H724 C754 0.950 . S
H725 C755 0.950 . S
C726 H708 0.951 . S
C726 C727 1.366 . S
C726 C728 1.388 . S
C727 C726 1.366 . S
C727 C731 1.385 . S
C728 H709 0.951 . S
C728 C726 1.388 . S
C728 C729 1.366 . S
C729 C728 1.366 . S
C729 C730 1.414 . S
C729 C732 1.499 . S
C730 H710 0.950 . S
C730 C729 1.414 . S
C730 C731 1.374 . S
C731 H711 0.950 . S
C731 C727 1.385 . S
C731 C730 1.374 . S
C732 C729 1.499 . S
C732 C733 1.373 . S
C732 C734 1.389 . S
C733 H712 0.950 . S
C733 C732 1.373 . S
C733 C749 1.377 . S
C734 C732 1.389 . S
C734 C735 1.524 . S
C734 C748 1.377 . S
C735 C734 1.524 . S
C735 C736 1.397 . S
C735 C740 1.363 . S
C736 H713 0.950 . S
C736 C735 1.397 . S
C736 C737 1.334 . S
C737 H714 0.950 . S
C737 C736 1.334 . S
C737 C738 1.287 . S
C738 C737 1.287 . S
C738 C739 1.524 . S
C738 H757 0.913 . S
C739 H715 0.950 . S
C739 C738 1.524 . S
C739 C740 1.415 . S
C740 H716 0.950 . S
C740 C735 1.363 . S
C740 C739 1.415 . S
C741 H717 0.951 . S
C741 C742 1.366 . S
C741 C743 1.388 . S
C742 C741 1.366 . S
C742 C746 1.385 . S
C743 H718 0.951 . S
C743 C741 1.388 . S
C743 C744 1.366 . S
C744 C743 1.366 . S
C744 C745 1.414 . S
C744 C747 1.499 . S
C745 H719 0.950 . S
C745 C744 1.414 . S
C745 C746 1.374 . S
C746 H720 0.950 . S
C746 C742 1.385 . S
C746 C745 1.374 . S
C747 C744 1.499 . S
C747 C748 1.373 . S
C747 C749 1.389 . S
C748 H721 0.950 . S
C748 C734 1.377 . S
C748 C747 1.373 . S
C749 C733 1.377 . S
C749 C747 1.389 . S
C749 C750 1.524 . S
C750 C749 1.524 . S
C750 C751 1.397 . S
C750 C755 1.363 1_455 S
C751 H722 0.950 . S
C751 C750 1.397 . S
C751 C752 1.334 1_455 S
C752 H723 0.950 . S
C752 C751 1.334 1_655 S
C752 C753 1.287 . S
C753 C752 1.287 . S
C753 C754 1.524 . S
C753 H756 0.999 . S
C754 H724 0.950 . S
C754 C753 1.524 . S
C754 C755 1.415 . S
C755 H725 0.950 . S
C755 C750 1.363 1_655 S
C755 C754 1.415 . S
H756 C753 0.999 . S
H757 C738 0.913 . S
H758 C776 0.951 . S
H759 C778 0.951 . S
H760 C780 0.950 . S
H761 C781 0.950 . S
H762 C783 0.950 . S
H763 C786 0.950 . S
H764 C787 0.950 . S
H765 C789 0.950 . S
H766 C790 0.950 . S
H767 C791 0.951 . S
H768 C793 0.951 . S
H769 C795 0.950 . S
H770 C796 0.950 . S
H771 C798 0.950 . S
H772 C801 0.950 . S
H773 C802 0.950 . S
H774 C804 0.950 . S
H775 C805 0.950 . S
C776 H758 0.951 . S
C776 C777 1.366 . S
C776 C778 1.388 . S
C777 C776 1.366 . S
C777 C781 1.385 . S
C778 H759 0.951 . S
C778 C776 1.388 . S
C778 C779 1.366 . S
C779 C778 1.366 . S
C779 C780 1.414 . S
C779 C782 1.499 . S
C780 H760 0.950 . S
C780 C779 1.414 . S
C780 C781 1.374 . S
C781 H761 0.950 . S
C781 C777 1.385 . S
C781 C780 1.374 . S
C782 C779 1.499 . S
C782 C783 1.373 . S
C782 C784 1.389 . S
C783 H762 0.950 . S
C783 C782 1.373 . S
C783 C799 1.377 . S
C784 C782 1.389 . S
C784 C785 1.524 . S
C784 C798 1.377 . S
C785 C784 1.524 . S
C785 C786 1.397 . S
C785 C790 1.363 . S
C786 H763 0.950 . S
C786 C785 1.397 . S
C786 C787 1.334 . S
C787 H764 0.950 . S
C787 C786 1.334 . S
C787 C788 1.287 . S
C788 C787 1.287 . S
C788 C789 1.524 . S
C788 H807 0.913 . S
C789 H765 0.950 . S
C789 C788 1.524 . S
C789 C790 1.415 . S
C790 H766 0.950 . S
C790 C785 1.363 . S
C790 C789 1.415 . S
C791 H767 0.951 . S
C791 C792 1.366 . S
C791 C793 1.388 . S
C792 C791 1.366 . S
C792 C796 1.385 . S
C793 H768 0.951 . S
C793 C791 1.388 . S
C793 C794 1.366 . S
C794 C793 1.366 . S
C794 C795 1.414 . S
C794 C797 1.499 . S
C795 H769 0.950 . S
C795 C794 1.414 . S
C795 C796 1.374 . S
C796 H770 0.950 . S
C796 C792 1.385 . S
C796 C795 1.374 . S
C797 C794 1.499 . S
C797 C798 1.373 . S
C797 C799 1.389 . S
C798 H771 0.950 . S
C798 C784 1.377 . S
C798 C797 1.373 . S
C799 C783 1.377 . S
C799 C797 1.389 . S
C799 C800 1.524 . S
C800 C799 1.524 . S
C800 C801 1.397 . S
C800 C805 1.363 . S
C801 H772 0.950 . S
C801 C800 1.397 . S
C801 C802 1.334 . S
C802 H773 0.950 . S
C802 C801 1.334 . S
C802 C803 1.287 . S
C803 C802 1.287 . S
C803 C804 1.524 . S
C803 H806 0.999 . S
C804 H774 0.950 . S
C804 C803 1.524 . S
C804 C805 1.415 . S
C805 H775 0.950 . S
C805 C800 1.363 . S
C805 C804 1.415 . S
H806 C803 0.999 . S
H807 C788 0.913 . S
H808 C826 0.951 . S
H809 C828 0.951 . S
H810 C830 0.950 . S
H811 C831 0.950 . S
H812 C833 0.950 . S
H813 C836 0.950 . S
H814 C837 0.950 . S
H815 C839 0.950 . S
H816 C840 0.950 . S
H817 C841 0.951 . S
H818 C843 0.951 . S
H819 C845 0.950 . S
H820 C846 0.950 . S
H821 C848 0.950 . S
H822 C851 0.950 . S
H823 C852 0.950 . S
H824 C854 0.950 . S
H825 C855 0.950 . S
C826 H808 0.951 . S
C826 C827 1.366 . S
C826 C828 1.388 . S
C827 C826 1.366 . S
C827 C831 1.385 . S
C828 H809 0.951 . S
C828 C826 1.388 . S
C828 C829 1.366 . S
C829 C828 1.366 . S
C829 C830 1.414 . S
C829 C832 1.499 . S
C830 H810 0.950 . S
C830 C829 1.414 . S
C830 C831 1.374 . S
C831 H811 0.950 . S
C831 C827 1.385 . S
C831 C830 1.374 . S
C832 C829 1.499 . S
C832 C833 1.373 . S
C832 C834 1.389 . S
C833 H812 0.950 . S
C833 C832 1.373 . S
C833 C849 1.377 . S
C834 C832 1.389 . S
C834 C835 1.524 . S
C834 C848 1.377 . S
C835 C834 1.524 . S
C835 C836 1.397 . S
C835 C840 1.363 . S
C836 H813 0.950 . S
C836 C835 1.397 . S
C836 C837 1.334 1_655 S
C837 H814 0.950 . S
C837 C836 1.334 1_455 S
C837 C838 1.287 . S
C838 C837 1.287 . S
C838 C839 1.524 . S
C838 H857 0.913 . S
C839 H815 0.950 . S
C839 C838 1.524 . S
C839 C840 1.415 1_455 S
C840 H816 0.950 . S
C840 C835 1.363 . S
C840 C839 1.415 1_655 S
C841 H817 0.951 . S
C841 C842 1.366 . S
C841 C843 1.388 . S
C842 C841 1.366 . S
C842 C846 1.385 . S
C843 H818 0.951 . S
C843 C841 1.388 . S
C843 C844 1.366 . S
C844 C843 1.366 . S
C844 C845 1.414 . S
C844 C847 1.499 . S
C845 H819 0.950 . S
C845 C844 1.414 . S
C845 C846 1.374 . S
C846 H820 0.950 . S
C846 C842 1.385 . S
C846 C845 1.374 . S
C847 C844 1.499 . S
C847 C848 1.373 . S
C847 C849 1.389 . S
C848 H821 0.950 . S
C848 C834 1.377 . S
C848 C847 1.373 . S
C849 C833 1.377 . S
C849 C847 1.389 . S
C849 C850 1.524 . S
C850 C849 1.524 . S
C850 C851 1.397 . S
C850 C855 1.363 . S
C851 H822 0.950 . S
C851 C850 1.397 . S
C851 C852 1.334 . S
C852 H823 0.950 . S
C852 C851 1.334 . S
C852 C853 1.287 . S
C853 C852 1.287 . S
C853 C854 1.524 . S
C853 H856 0.999 . S
C854 H824 0.950 . S
C854 C853 1.524 . S
C854 C855 1.415 . S
C855 H825 0.950 . S
C855 C850 1.363 . S
C855 C854 1.415 . S
H856 C853 0.999 . S
H857 C838 0.913 . S
H858 C876 0.951 . S
H859 C878 0.951 . S
H860 C880 0.950 . S
H861 C881 0.950 . S
H862 C883 0.950 . S
H863 C886 0.950 . S
H864 C887 0.950 . S
H865 C889 0.950 . S
H866 C890 0.950 . S
H867 C891 0.951 . S
H868 C893 0.951 . S
H869 C895 0.950 . S
H870 C896 0.950 . S
H871 C898 0.950 . S
H872 C901 0.950 . S
H873 C902 0.950 . S
H874 C904 0.950 . S
H875 C905 0.950 . S
C876 H858 0.951 . S
C876 C877 1.366 . S
C876 C878 1.388 . S
C877 C876 1.366 . S
C877 C881 1.385 . S
C878 H859 0.951 . S
C878 C876 1.388 . S
C878 C879 1.366 . S
C879 C878 1.366 . S
C879 C880 1.414 . S
C879 C882 1.499 . S
C880 H860 0.950 . S
C880 C879 1.414 . S
C880 C881 1.374 . S
C881 H861 0.950 . S
C881 C877 1.385 . S
C881 C880 1.374 . S
C882 C879 1.499 . S
C882 C883 1.373 . S
C882 C884 1.389 . S
C883 H862 0.950 . S
C883 C882 1.373 . S
C883 C899 1.377 . S
C884 C882 1.389 . S
C884 C885 1.524 . S
C884 C898 1.377 . S
C885 C884 1.524 . S
C885 C886 1.397 . S
C885 C890 1.363 . S
C886 H863 0.950 . S
C886 C885 1.397 . S
C886 C887 1.334 . S
C887 H864 0.950 . S
C887 C886 1.334 . S
C887 C888 1.287 . S
C888 C887 1.287 . S
C888 C889 1.524 . S
C888 H907 0.913 . S
C889 H865 0.950 . S
C889 C888 1.524 . S
C889 C890 1.415 . S
C890 H866 0.950 . S
C890 C885 1.363 . S
C890 C889 1.415 . S
C891 H867 0.951 . S
C891 C892 1.366 . S
C891 C893 1.388 . S
C892 C891 1.366 . S
C892 C896 1.385 . S
C893 H868 0.951 . S
C893 C891 1.388 . S
C893 C894 1.366 . S
C894 C893 1.366 . S
C894 C895 1.414 . S
C894 C897 1.499 . S
C895 H869 0.950 . S
C895 C894 1.414 . S
C895 C896 1.374 . S
C896 H870 0.950 . S
C896 C892 1.385 . S
C896 C895 1.374 . S
C897 C894 1.499 . S
C897 C898 1.373 . S
C897 C899 1.389 . S
C898 H871 0.950 . S
C898 C884 1.377 . S
C898 C897 1.373 . S
C899 C883 1.377 . S
C899 C897 1.389 . S
C899 C900 1.524 . S
C900 C899 1.524 . S
C900 C901 1.397 . S
C900 C905 1.363 . S
C901 H872 0.950 . S
C901 C900 1.397 . S
C901 C902 1.334 . S
C902 H873 0.950 . S
C902 C901 1.334 . S
C902 C903 1.287 . S
C903 C902 1.287 . S
C903 C904 1.524 . S
C903 H906 0.999 . S
C904 H874 0.950 . S
C904 C903 1.524 . S
C904 C905 1.415 . S
C905 H875 0.950 . S
C905 C900 1.363 . S
C905 C904 1.415 . S
H906 C903 0.999 . S
H907 C888 0.913 . S
H908 C926 0.951 . S
H909 C928 0.951 . S
H910 C930 0.950 . S
H911 C931 0.950 . S
H912 C933 0.950 . S
H913 C936 0.950 . S
H914 C937 0.950 . S
H915 C939 0.950 . S
H916 C940 0.950 . S
H917 C941 0.951 . S
H918 C943 0.951 . S
H919 C945 0.950 . S
H920 C946 0.950 . S
H921 C948 0.950 . S
H922 C951 0.950 . S
H923 C952 0.951 . S
H924 C954 0.950 . S
H925 C955 0.950 . S
C926 H908 0.951 . S
C926 C927 1.366 . S
C926 C928 1.388 . S
C927 C926 1.366 . S
C927 C931 1.385 . S
C928 H909 0.951 . S
C928 C926 1.388 . S
C928 C929 1.366 . S
C929 C928 1.366 . S
C929 C930 1.414 . S
C929 C932 1.499 . S
C930 H910 0.950 . S
C930 C929 1.414 . S
C930 C931 1.374 . S
C931 H911 0.950 . S
C931 C927 1.385 . S
C931 C930 1.374 . S
C932 C929 1.499 . S
C932 C933 1.373 . S
C932 C934 1.389 . S
C933 H912 0.950 . S
C933 C932 1.373 . S
C933 C949 1.377 . S
C934 C932 1.389 . S
C934 C935 1.524 . S
C934 C948 1.377 . S
C935 C934 1.524 . S
C935 C936 1.397 . S
C935 C940 1.363 . S
C936 H913 0.950 . S
C936 C935 1.397 . S
C936 C937 1.334 . S
C937 H914 0.950 . S
C937 C936 1.334 . S
C937 C938 1.287 . S
C938 C937 1.287 . S
C938 C939 1.524 . S
C938 H957 0.913 . S
C939 H915 0.950 . S
C939 C938 1.524 . S
C939 C940 1.415 . S
C940 H916 0.950 . S
C940 C935 1.363 . S
C940 C939 1.415 . S
C941 H917 0.951 . S
C941 C942 1.366 . S
C941 C943 1.388 . S
C942 C941 1.366 . S
C942 C946 1.385 . S
C943 H918 0.951 . S
C943 C941 1.388 . S
C943 C944 1.366 . S
C944 C943 1.366 . S
C944 C945 1.414 . S
C944 C947 1.499 . S
C945 H919 0.950 . S
C945 C944 1.414 . S
C945 C946 1.374 . S
C946 H920 0.950 . S
C946 C942 1.385 . S
C946 C945 1.374 . S
C947 C944 1.499 . S
C947 C948 1.373 . S
C947 C949 1.389 . S
C948 H921 0.950 . S
C948 C934 1.377 . S
C948 C947 1.373 . S
C949 C933 1.377 . S
C949 C947 1.389 . S
C949 C950 1.524 . S
C950 C949 1.524 . S
C950 C951 1.397 . S
C950 C955 1.363 1_455 S
C951 H922 0.950 . S
C951 C950 1.397 . S
C951 C952 1.341 . S
C952 H923 0.951 . S
C952 C951 1.341 . S
C952 C953 1.279 1_455 S
C953 C952 1.279 1_655 S
C953 C954 1.524 . S
C953 H956 0.999 . S
C954 H924 0.950 . S
C954 C953 1.524 . S
C954 C955 1.415 . S
C955 H925 0.950 . S
C955 C950 1.363 1_655 S
C955 C954 1.415 . S
H956 C953 0.999 . S
H957 C938 0.913 . S
H958 C976 0.951 . S
H959 C978 0.951 . S
H960 C980 0.950 . S
H961 C981 0.950 . S
H962 C983 0.950 . S
H963 C986 0.950 . S
H964 C987 0.950 . S
H965 C989 0.950 . S
H966 C990 0.950 . S
H967 C991 0.951 . S
H968 C993 0.951 . S
H969 C995 0.950 . S
H970 C996 0.950 . S
H971 C998 0.950 . S
H972 C1001 0.950 . S
H973 C1002 0.950 . S
H974 C1004 0.950 . S
H975 C1005 0.950 . S
C976 H958 0.951 . S
C976 C977 1.366 . S
C976 C978 1.388 . S
C977 C976 1.366 . S
C977 C981 1.385 . S
C978 H959 0.951 . S
C978 C976 1.388 . S
C978 C979 1.366 . S
C979 C978 1.366 . S
C979 C980 1.414 . S
C979 C982 1.499 . S
C980 H960 0.950 . S
C980 C979 1.414 . S
C980 C981 1.374 . S
C981 H961 0.950 . S
C981 C977 1.385 . S
C981 C980 1.374 . S
C982 C979 1.499 . S
C982 C983 1.373 . S
C982 C984 1.389 . S
C983 H962 0.950 . S
C983 C982 1.373 . S
C983 C999 1.377 . S
C984 C982 1.389 . S
C984 C985 1.524 . S
C984 C998 1.377 . S
C985 C984 1.524 . S
C985 C986 1.397 . S
C985 C990 1.363 . S
C986 H963 0.950 . S
C986 C985 1.397 . S
C986 C987 1.334 . S
C987 H964 0.950 . S
C987 C986 1.334 . S
C987 C988 1.287 . S
C988 C987 1.287 . S
C988 C989 1.524 . S
C988 H1007 0.913 . S
C989 H965 0.950 . S
C989 C988 1.524 . S
C989 C990 1.415 . S
C990 H966 0.950 . S
C990 C985 1.363 . S
C990 C989 1.415 . S
C991 H967 0.951 . S
C991 C992 1.366 . S
C991 C993 1.388 . S
C992 C991 1.366 . S
C992 C996 1.385 . S
C993 H968 0.951 . S
C993 C991 1.388 . S
C993 C994 1.366 . S
C994 C993 1.366 . S
C994 C995 1.414 . S
C994 C997 1.499 . S
C995 H969 0.950 . S
C995 C994 1.414 . S
C995 C996 1.374 . S
C996 H970 0.950 . S
C996 C992 1.385 . S
C996 C995 1.374 . S
C997 C994 1.499 . S
C997 C998 1.373 . S
C997 C999 1.389 . S
C998 H971 0.950 . S
C998 C984 1.377 . S
C998 C997 1.373 . S
C999 C983 1.377 . S
C999 C997 1.389 . S
C999 C1000 1.524 . S
C1000 C999 1.524 . S
C1000 C1001 1.397 . S
C1000 C1005 1.363 . S
C1001 H972 0.950 . S
C1001 C1000 1.397 . S
C1001 C1002 1.334 . S
C1002 H973 0.950 . S
C1002 C1001 1.334 . S
C1002 C1003 1.287 . S
C1003 C1002 1.287 . S
C1003 C1004 1.524 . S
C1003 H1006 0.999 . S
C1004 H974 0.950 . S
C1004 C1003 1.524 . S
C1004 C1005 1.415 . S
C1005 H975 0.950 . S
C1005 C1000 1.363 . S
C1005 C1004 1.415 . S
H1006 C1003 0.999 . S
H1007 C988 0.913 . S
H1008 C1026 0.951 . S
H1009 C1028 0.951 . S
H1010 C1030 0.950 . S
H1011 C1031 0.950 . S
H1012 C1033 0.950 . S
H1013 C1036 0.950 . S
H1014 C1037 0.950 . S
H1015 C1039 0.950 . S
H1016 C1040 0.950 . S
H1017 C1041 0.951 . S
H1018 C1043 0.951 . S
H1019 C1045 0.950 . S
H1020 C1046 0.950 . S
H1021 C1048 0.950 . S
H1022 C1051 0.950 . S
H1023 C1052 0.950 . S
H1024 C1054 0.950 . S
H1025 C1055 0.950 . S
C1026 H1008 0.951 . S
C1026 C1027 1.366 . S
C1026 C1028 1.388 . S
C1027 C1026 1.366 . S
C1027 C1031 1.385 . S
C1028 H1009 0.951 . S
C1028 C1026 1.388 . S
C1028 C1029 1.366 . S
C1029 C1028 1.366 . S
C1029 C1030 1.414 . S
C1029 C1032 1.499 . S
C1030 H1010 0.950 . S
C1030 C1029 1.414 . S
C1030 C1031 1.374 . S
C1031 H1011 0.950 . S
C1031 C1027 1.385 . S
C1031 C1030 1.374 . S
C1032 C1029 1.499 . S
C1032 C1033 1.373 . S
C1032 C1034 1.389 . S
C1033 H1012 0.950 . S
C1033 C1032 1.373 . S
C1033 C1049 1.377 . S
C1034 C1032 1.389 . S
C1034 C1035 1.524 . S
C1034 C1048 1.377 . S
C1035 C1034 1.524 . S
C1035 C1036 1.397 . S
C1035 C1040 1.363 . S
C1036 H1013 0.950 . S
C1036 C1035 1.397 . S
C1036 C1037 1.334 . S
C1037 H1014 0.950 . S
C1037 C1036 1.334 . S
C1037 C1038 1.287 . S
C1038 C1037 1.287 . S
C1038 C1039 1.524 . S
C1038 H1057 0.913 . S
C1039 H1015 0.950 . S
C1039 C1038 1.524 . S
C1039 C1040 1.415 . S
C1040 H1016 0.950 . S
C1040 C1035 1.363 . S
C1040 C1039 1.415 . S
C1041 H1017 0.951 . S
C1041 C1042 1.366 . S
C1041 C1043 1.388 . S
C1042 C1041 1.366 . S
C1042 C1046 1.385 . S
C1043 H1018 0.951 . S
C1043 C1041 1.388 . S
C1043 C1044 1.366 . S
C1044 C1043 1.366 . S
C1044 C1045 1.414 . S
C1044 C1047 1.499 . S
C1045 H1019 0.950 . S
C1045 C1044 1.414 . S
C1045 C1046 1.374 . S
C1046 H1020 0.950 . S
C1046 C1042 1.385 . S
C1046 C1045 1.374 . S
C1047 C1044 1.499 . S
C1047 C1048 1.373 . S
C1047 C1049 1.389 . S
C1048 H1021 0.950 . S
C1048 C1034 1.377 . S
C1048 C1047 1.373 . S
C1049 C1033 1.377 . S
C1049 C1047 1.389 . S
C1049 C1050 1.524 . S
C1050 C1049 1.524 . S
C1050 C1051 1.397 . S
C1050 C1055 1.363 . S
C1051 H1022 0.950 . S
C1051 C1050 1.397 . S
C1051 C1052 1.334 . S
C1052 H1023 0.950 . S
C1052 C1051 1.334 . S
C1052 C1053 1.287 . S
C1053 C1052 1.287 . S
C1053 C1054 1.524 . S
C1053 H1056 0.999 . S
C1054 H1024 0.950 . S
C1054 C1053 1.524 . S
C1054 C1055 1.415 . S
C1055 H1025 0.950 . S
C1055 C1050 1.363 . S
C1055 C1054 1.415 . S
H1056 C1053 0.999 . S
H1057 C1038 0.913 . S
H1058 C1076 0.951 . S
H1059 C1078 0.951 . S
H1060 C1080 0.950 . S
H1061 C1081 0.950 . S
H1062 C1083 0.950 . S
H1063 C1086 0.950 . S
H1064 C1087 0.950 . S
H1065 C1089 0.950 . S
H1066 C1090 0.950 . S
H1067 C1091 0.951 . S
H1068 C1093 0.951 . S
H1069 C1095 0.950 . S
H1070 C1096 0.950 . S
H1071 C1098 0.950 . S
H1072 C1101 0.950 . S
H1073 C1102 0.950 . S
H1074 C1104 0.950 . S
H1075 C1105 0.950 . S
C1076 H1058 0.951 . S
C1076 C1077 1.366 . S
C1076 C1078 1.388 . S
C1077 C1076 1.366 . S
C1077 C1081 1.385 . S
C1078 H1059 0.951 . S
C1078 C1076 1.388 . S
C1078 C1079 1.366 . S
C1079 C1078 1.366 . S
C1079 C1080 1.414 . S
C1079 C1082 1.499 . S
C1080 H1060 0.950 . S
C1080 C1079 1.414 . S
C1080 C1081 1.374 . S
C1081 H1061 0.950 . S
C1081 C1077 1.385 . S
C1081 C1080 1.374 . S
C1082 C1079 1.499 . S
C1082 C1083 1.373 . S
C1082 C1084 1.389 . S
C1083 H1062 0.950 . S
C1083 C1082 1.373 . S
C1083 C1099 1.377 . S
C1084 C1082 1.389 . S
C1084 C1085 1.524 . S
C1084 C1098 1.377 . S
C1085 C1084 1.524 . S
C1085 C1086 1.397 . S
C1085 C1090 1.363 . S
C1086 H1063 0.950 . S
C1086 C1085 1.397 . S
C1086 C1087 1.334 . S
C1087 H1064 0.950 . S
C1087 C1086 1.334 . S
C1087 C1088 1.287 . S
C1088 C1087 1.287 . S
C1088 C1089 1.524 . S
C1088 H1107 0.913 . S
C1089 H1065 0.950 . S
C1089 C1088 1.524 . S
C1089 C1090 1.415 . S
C1090 H1066 0.950 . S
C1090 C1085 1.363 . S
C1090 C1089 1.415 . S
C1091 H1067 0.951 . S
C1091 C1092 1.366 . S
C1091 C1093 1.388 . S
C1092 C1091 1.366 . S
C1092 C1096 1.385 . S
C1093 H1068 0.951 . S
C1093 C1091 1.388 . S
C1093 C1094 1.366 . S
C1094 C1093 1.366 . S
C1094 C1095 1.414 . S
C1094 C1097 1.499 . S
C1095 H1069 0.950 . S
C1095 C1094 1.414 . S
C1095 C1096 1.374 . S
C1096 H1070 0.950 . S
C1096 C1092 1.385 . S
C1096 C1095 1.374 . S
C1097 C1094 1.499 . S
C1097 C1098 1.373 . S
C1097 C1099 1.389 . S
C1098 H1071 0.950 . S
C1098 C1084 1.377 . S
C1098 C1097 1.373 . S
C1099 C1083 1.377 . S
C1099 C1097 1.389 . S
C1099 C1100 1.524 . S
C1100 C1099 1.524 . S
C1100 C1101 1.397 . S
C1100 C1105 1.363 . S
C1101 H1072 0.950 . S
C1101 C1100 1.397 . S
C1101 C1102 1.334 . S
C1102 H1073 0.950 . S
C1102 C1101 1.334 . S
C1102 C1103 1.287 . S
C1103 C1102 1.287 . S
C1103 C1104 1.524 . S
C1103 H1106 0.999 . S
C1104 H1074 0.950 . S
C1104 C1103 1.524 . S
C1104 C1105 1.415 . S
C1105 H1075 0.950 . S
C1105 C1100 1.363 . S
C1105 C1104 1.415 . S
H1106 C1103 0.999 . S
H1107 C1088 0.913 . S
H1108 C1126 0.951 . S
H1109 C1128 0.951 . S
H1110 C1130 0.950 . S
H1111 C1131 0.950 . S
H1112 C1133 0.950 . S
H1113 C1136 0.950 . S
H1114 C1137 0.950 . S
H1115 C1139 0.950 . S
H1116 C1140 0.950 . S
H1117 C1141 0.951 . S
H1118 C1143 0.951 . S
H1119 C1145 0.950 . S
H1120 C1146 0.950 . S
H1121 C1148 0.950 . S
H1122 C1151 0.950 . S
H1123 C1152 0.950 . S
H1124 C1154 0.950 . S
H1125 C1155 0.950 . S
C1126 H1108 0.951 . S
C1126 C1127 1.366 . S
C1126 C1128 1.388 . S
C1127 C1126 1.366 . S
C1127 C1131 1.385 . S
C1128 H1109 0.951 . S
C1128 C1126 1.388 . S
C1128 C1129 1.366 . S
C1129 C1128 1.366 . S
C1129 C1130 1.414 . S
C1129 C1132 1.499 . S
C1130 H1110 0.950 . S
C1130 C1129 1.414 . S
C1130 C1131 1.374 . S
C1131 H1111 0.950 . S
C1131 C1127 1.385 . S
C1131 C1130 1.374 . S
C1132 C1129 1.499 . S
C1132 C1133 1.373 . S
C1132 C1134 1.389 . S
C1133 H1112 0.950 . S
C1133 C1132 1.373 . S
C1133 C1149 1.377 . S
C1134 C1132 1.389 . S
C1134 C1135 1.524 . S
C1134 C1148 1.377 . S
C1135 C1134 1.524 . S
C1135 C1136 1.397 . S
C1135 C1140 1.363 . S
C1136 H1113 0.950 . S
C1136 C1135 1.397 . S
C1136 C1137 1.334 1_545 S
C1137 H1114 0.950 . S
C1137 C1136 1.334 1_565 S
C1137 C1138 1.287 . S
C1138 C1137 1.287 . S
C1138 C1139 1.524 . S
C1138 H1157 0.913 . S
C1139 H1115 0.950 . S
C1139 C1138 1.524 . S
C1139 C1140 1.415 1_565 S
C1140 H1116 0.950 . S
C1140 C1135 1.363 . S
C1140 C1139 1.415 1_545 S
C1141 H1117 0.951 . S
C1141 C1142 1.366 . S
C1141 C1143 1.388 . S
C1142 C1141 1.366 . S
C1142 C1146 1.385 . S
C1143 H1118 0.951 . S
C1143 C1141 1.388 . S
C1143 C1144 1.366 . S
C1144 C1143 1.366 . S
C1144 C1145 1.414 . S
C1144 C1147 1.499 . S
C1145 H1119 0.950 . S
C1145 C1144 1.414 . S
C1145 C1146 1.374 . S
C1146 H1120 0.950 . S
C1146 C1142 1.385 . S
C1146 C1145 1.374 . S
C1147 C1144 1.499 . S
C1147 C1148 1.373 . S
C1147 C1149 1.389 . S
C1148 H1121 0.950 . S
C1148 C1134 1.377 . S
C1148 C1147 1.373 . S
C1149 C1133 1.377 . S
C1149 C1147 1.389 . S
C1149 C1150 1.524 . S
C1150 C1149 1.524 . S
C1150 C1151 1.397 . S
C1150 C1155 1.363 . S
C1151 H1122 0.950 . S
C1151 C1150 1.397 . S
C1151 C1152 1.334 . S
C1152 H1123 0.950 . S
C1152 C1151 1.334 . S
C1152 C1153 1.287 . S
C1153 C1152 1.287 . S
C1153 C1154 1.524 . S
C1153 H1156 0.999 . S
C1154 H1124 0.950 . S
C1154 C1153 1.524 . S
C1154 C1155 1.415 . S
C1155 H1125 0.950 . S
C1155 C1150 1.363 . S
C1155 C1154 1.415 . S
H1156 C1153 0.999 . S
H1157 C1138 0.913 . S
H1158 C1176 0.951 . S
H1159 C1178 0.951 . S
H1160 C1180 0.950 . S
H1161 C1181 0.950 . S
H1162 C1183 0.950 . S
H1163 C1186 0.950 . S
H1164 C1187 0.950 . S
H1165 C1189 0.950 . S
H1166 C1190 0.950 . S
H1167 C1191 0.951 . S
H1168 C1193 0.951 . S
H1169 C1195 0.950 . S
H1170 C1196 0.950 . S
H1171 C1198 0.950 . S
H1172 C1201 0.950 . S
H1173 C1202 0.950 . S
H1174 C1204 0.950 . S
H1175 C1205 0.965 . S
C1176 H1158 0.951 . S
C1176 C1177 1.366 . S
C1176 C1178 1.388 . S
C1177 C1176 1.366 . S
C1177 C1181 1.385 . S
C1178 H1159 0.951 . S
C1178 C1176 1.388 . S
C1178 C1179 1.366 . S
C1179 C1178 1.366 . S
C1179 C1180 1.414 . S
C1179 C1182 1.499 . S
C1180 H1160 0.950 . S
C1180 C1179 1.414 . S
C1180 C1181 1.374 . S
C1181 H1161 0.950 . S
C1181 C1177 1.385 . S
C1181 C1180 1.374 . S
C1182 C1179 1.499 . S
C1182 C1183 1.373 . S
C1182 C1184 1.389 . S
C1183 H1162 0.950 . S
C1183 C1182 1.373 . S
C1183 C1199 1.377 . S
C1184 C1182 1.389 . S
C1184 C1185 1.524 . S
C1184 C1198 1.377 . S
C1185 C1184 1.524 . S
C1185 C1186 1.397 . S
C1185 C1190 1.363 . S
C1186 H1163 0.950 . S
C1186 C1185 1.397 . S
C1186 C1187 1.334 . S
C1187 H1164 0.950 . S
C1187 C1186 1.334 . S
C1187 C1188 1.287 . S
C1188 C1187 1.287 . S
C1188 C1189 1.524 . S
C1188 H1207 0.913 . S
C1189 H1165 0.950 . S
C1189 C1188 1.524 . S
C1189 C1190 1.415 . S
C1190 H1166 0.950 . S
C1190 C1185 1.363 . S
C1190 C1189 1.415 . S
C1191 H1167 0.951 . S
C1191 C1192 1.366 . S
C1191 C1193 1.388 . S
C1192 C1191 1.366 . S
C1192 C1196 1.385 . S
C1193 H1168 0.951 . S
C1193 C1191 1.388 . S
C1193 C1194 1.366 1_565 S
C1194 C1193 1.366 1_545 S
C1194 C1195 1.414 . S
C1194 C1197 1.499 . S
C1195 H1169 0.950 . S
C1195 C1194 1.414 . S
C1195 C1196 1.374 1_545 S
C1196 H1170 0.950 . S
C1196 C1192 1.385 . S
C1196 C1195 1.374 1_565 S
C1197 C1194 1.499 . S
C1197 C1198 1.373 . S
C1197 C1199 1.389 . S
C1198 H1171 0.950 . S
C1198 C1184 1.377 . S
C1198 C1197 1.373 . S
C1199 C1183 1.377 . S
C1199 C1197 1.389 . S
C1199 C1200 1.524 . S
C1200 C1199 1.524 . S
C1200 C1201 1.397 1_545 S
C1200 C1205 1.368 . S
C1201 H1172 0.950 . S
C1201 C1200 1.397 1_565 S
C1201 C1202 1.334 . S
C1202 H1173 0.950 . S
C1202 C1201 1.334 . S
C1202 C1203 1.287 . S
C1203 C1202 1.287 . S
C1203 C1204 1.524 . S
C1203 H1206 0.999 . S
C1204 H1174 0.950 . S
C1204 C1203 1.524 . S
C1204 C1205 1.395 1_565 S
C1205 H1175 0.965 . S
C1205 C1200 1.368 . S
C1205 C1204 1.395 1_545 S
H1206 C1203 0.999 . S
H1207 C1188 0.913 . S
H1208 C1226 0.951 . S
H1209 C1228 0.951 . S
H1210 C1230 0.950 . S
H1211 C1231 0.950 . S
H1212 C1233 0.950 . S
H1213 C1236 0.950 . S
H1214 C1237 0.950 . S
H1215 C1239 0.950 . S
H1216 C1240 0.950 . S
H1217 C1241 0.951 . S
H1218 C1243 0.951 . S
H1219 C1245 0.950 . S
H1220 C1246 0.950 . S
H1221 C1248 0.950 . S
H1222 C1251 0.950 . S
H1223 C1252 0.950 . S
H1224 C1254 0.950 . S
H1225 C1255 0.950 . S
C1226 H1208 0.951 . S
C1226 C1227 1.366 . S
C1226 C1228 1.388 . S
C1227 C1226 1.366 . S
C1227 C1231 1.385 . S
C1228 H1209 0.951 . S
C1228 C1226 1.388 . S
C1228 C1229 1.366 . S
C1229 C1228 1.366 . S
C1229 C1230 1.414 . S
C1229 C1232 1.499 . S
C1230 H1210 0.950 . S
C1230 C1229 1.414 . S
C1230 C1231 1.374 . S
C1231 H1211 0.950 . S
C1231 C1227 1.385 . S
C1231 C1230 1.374 . S
C1232 C1229 1.499 . S
C1232 C1233 1.373 . S
C1232 C1234 1.389 . S
C1233 H1212 0.950 . S
C1233 C1232 1.373 . S
C1233 C1249 1.377 . S
C1234 C1232 1.389 . S
C1234 C1235 1.524 . S
C1234 C1248 1.377 . S
C1235 C1234 1.524 . S
C1235 C1236 1.397 . S
C1235 C1240 1.363 . S
C1236 H1213 0.950 . S
C1236 C1235 1.397 . S
C1236 C1237 1.334 . S
C1237 H1214 0.950 . S
C1237 C1236 1.334 . S
C1237 C1238 1.287 . S
C1238 C1237 1.287 . S
C1238 C1239 1.524 . S
C1238 H1257 0.913 . S
C1239 H1215 0.950 . S
C1239 C1238 1.524 . S
C1239 C1240 1.415 . S
C1240 H1216 0.950 . S
C1240 C1235 1.363 . S
C1240 C1239 1.415 . S
C1241 H1217 0.951 . S
C1241 C1242 1.366 . S
C1241 C1243 1.388 . S
C1242 C1241 1.366 . S
C1242 C1246 1.385 . S
C1243 H1218 0.951 . S
C1243 C1241 1.388 . S
C1243 C1244 1.366 . S
C1244 C1243 1.366 . S
C1244 C1245 1.414 . S
C1244 C1247 1.499 . S
C1245 H1219 0.950 . S
C1245 C1244 1.414 . S
C1245 C1246 1.374 . S
C1246 H1220 0.950 . S
C1246 C1242 1.385 . S
C1246 C1245 1.374 . S
C1247 C1244 1.499 . S
C1247 C1248 1.373 . S
C1247 C1249 1.389 . S
C1248 H1221 0.950 . S
C1248 C1234 1.377 . S
C1248 C1247 1.373 . S
C1249 C1233 1.377 . S
C1249 C1247 1.389 . S
C1249 C1250 1.524 . S
C1250 C1249 1.524 . S
C1250 C1251 1.397 . S
C1250 C1255 1.363 . S
C1251 H1222 0.950 . S
C1251 C1250 1.397 . S
C1251 C1252 1.334 . S
C1252 H1223 0.950 . S
C1252 C1251 1.334 . S
C1252 C1253 1.287 . S
C1253 C1252 1.287 . S
C1253 C1254 1.524 . S
C1253 H1256 0.999 . S
C1254 H1224 0.950 . S
C1254 C1253 1.524 . S
C1254 C1255 1.415 . S
C1255 H1225 0.950 . S
C1255 C1250 1.363 . S
C1255 C1254 1.415 . S
H1256 C1253 0.999 . S
H1257 C1238 0.913 . S
H1258 C1276 0.951 . S
H1259 C1278 0.951 . S
H1260 C1280 0.950 . S
H1261 C1281 0.950 . S
H1262 C1283 0.950 . S
H1263 C1286 0.950 . S
H1264 C1287 0.950 . S
H1265 C1289 0.950 . S
H1266 C1290 0.950 . S
H1267 C1291 0.951 . S
H1268 C1293 0.951 . S
H1269 C1295 0.950 . S
H1270 C1296 0.950 . S
H1271 C1298 0.950 . S
H1272 C1301 0.950 . S
H1273 C1302 0.950 . S
H1274 C1304 0.950 . S
H1275 C1305 0.950 . S
C1276 H1258 0.951 . S
C1276 C1277 1.366 . S
C1276 C1278 1.388 . S
C1277 C1276 1.366 . S
C1277 C1281 1.385 . S
C1278 H1259 0.951 . S
C1278 C1276 1.388 . S
C1278 C1279 1.366 . S
C1279 C1278 1.366 . S
C1279 C1280 1.414 . S
C1279 C1282 1.499 . S
C1280 H1260 0.950 . S
C1280 C1279 1.414 . S
C1280 C1281 1.374 . S
C1281 H1261 0.950 . S
C1281 C1277 1.385 . S
C1281 C1280 1.374 . S
C1282 C1279 1.499 . S
C1282 C1283 1.373 . S
C1282 C1284 1.389 . S
C1283 H1262 0.950 . S
C1283 C1282 1.373 . S
C1283 C1299 1.377 . S
C1284 C1282 1.389 . S
C1284 C1285 1.524 . S
C1284 C1298 1.377 . S
C1285 C1284 1.524 . S
C1285 C1286 1.397 . S
C1285 C1290 1.363 . S
C1286 H1263 0.950 . S
C1286 C1285 1.397 . S
C1286 C1287 1.334 . S
C1287 H1264 0.950 . S
C1287 C1286 1.334 . S
C1287 C1288 1.287 . S
C1288 C1287 1.287 . S
C1288 C1289 1.524 . S
C1288 H1307 0.913 . S
C1289 H1265 0.950 . S
C1289 C1288 1.524 . S
C1289 C1290 1.415 . S
C1290 H1266 0.950 . S
C1290 C1285 1.363 . S
C1290 C1289 1.415 . S
C1291 H1267 0.951 . S
C1291 C1292 1.366 . S
C1291 C1293 1.388 . S
C1292 C1291 1.366 . S
C1292 C1296 1.385 . S
C1293 H1268 0.951 . S
C1293 C1291 1.388 . S
C1293 C1294 1.366 . S
C1294 C1293 1.366 . S
C1294 C1295 1.414 . S
C1294 C1297 1.499 . S
C1295 H1269 0.950 . S
C1295 C1294 1.414 . S
C1295 C1296 1.374 . S
C1296 H1270 0.950 . S
C1296 C1292 1.385 . S
C1296 C1295 1.374 . S
C1297 C1294 1.499 . S
C1297 C1298 1.373 . S
C1297 C1299 1.389 . S
C1298 H1271 0.950 . S
C1298 C1284 1.377 . S
C1298 C1297 1.373 . S
C1299 C1283 1.377 . S
C1299 C1297 1.389 . S
C1299 C1300 1.524 . S
C1300 C1299 1.524 . S
C1300 C1301 1.397 . S
C1300 C1305 1.363 . S
C1301 H1272 0.950 . S
C1301 C1300 1.397 . S
C1301 C1302 1.334 . S
C1302 H1273 0.950 . S
C1302 C1301 1.334 . S
C1302 C1303 1.287 . S
C1303 C1302 1.287 . S
C1303 C1304 1.524 . S
C1303 H1306 0.999 . S
C1304 H1274 0.950 . S
C1304 C1303 1.524 . S
C1304 C1305 1.415 . S
C1305 H1275 0.950 . S
C1305 C1300 1.363 . S
C1305 C1304 1.415 . S
H1306 C1303 0.999 . S
H1307 C1288 0.913 . S
H1308 C1326 0.951 . S
H1309 C1328 0.951 . S
H1310 C1330 0.950 . S
H1311 C1331 0.950 . S
H1312 C1333 0.950 . S
H1313 C1336 0.950 . S
H1314 C1337 0.950 1_545 S
H1315 C1339 0.950 . S
H1316 C1340 0.950 . S
H1317 C1341 0.951 . S
H1318 C1343 0.951 . S
H1319 C1345 0.950 . S
H1320 C1346 0.950 . S
H1321 C1348 0.950 . S
H1322 C1351 0.950 . S
H1323 C1352 0.950 . S
H1324 C1354 0.950 . S
H1325 C1355 0.950 . S
C1326 H1308 0.951 . S
C1326 C1327 1.366 . S
C1326 C1328 1.388 . S
C1327 C1326 1.366 . S
C1327 C1331 1.385 . S
C1328 H1309 0.951 . S
C1328 C1326 1.388 . S
C1328 C1329 1.366 . S
C1329 C1328 1.366 . S
C1329 C1330 1.414 . S
C1329 C1332 1.499 . S
C1330 H1310 0.950 . S
C1330 C1329 1.414 . S
C1330 C1331 1.374 . S
C1331 H1311 0.950 . S
C1331 C1327 1.385 . S
C1331 C1330 1.374 . S
C1332 C1329 1.499 . S
C1332 C1333 1.373 . S
C1332 C1334 1.389 . S
C1333 H1312 0.950 . S
C1333 C1332 1.373 . S
C1333 C1349 1.377 . S
C1334 C1332 1.389 . S
C1334 C1335 1.524 . S
C1334 C1348 1.377 . S
C1335 C1334 1.524 . S
C1335 C1336 1.397 . S
C1335 C1340 1.363 . S
C1336 H1313 0.950 . S
C1336 C1335 1.397 . S
C1336 C1337 1.334 . S
C1337 H1314 0.950 1_565 S
C1337 C1336 1.334 . S
C1337 C1338 1.287 . S
C1338 C1337 1.287 . S
C1338 C1339 1.523 . S
C1338 H1357 0.914 1_565 S
C1339 H1315 0.950 . S
C1339 C1338 1.523 . S
C1339 C1340 1.415 . S
C1340 H1316 0.950 . S
C1340 C1335 1.363 . S
C1340 C1339 1.415 . S
C1341 H1317 0.951 . S
C1341 C1342 1.366 . S
C1341 C1343 1.388 . S
C1342 C1341 1.366 . S
C1342 C1346 1.385 . S
C1343 H1318 0.951 . S
C1343 C1341 1.388 . S
C1343 C1344 1.366 . S
C1344 C1343 1.366 . S
C1344 C1345 1.414 . S
C1344 C1347 1.499 . S
C1345 H1319 0.950 . S
C1345 C1344 1.414 . S
C1345 C1346 1.374 . S
C1346 H1320 0.950 . S
C1346 C1342 1.385 . S
C1346 C1345 1.374 . S
C1347 C1344 1.499 . S
C1347 C1348 1.373 . S
C1347 C1349 1.389 . S
C1348 H1321 0.950 . S
C1348 C1334 1.377 . S
C1348 C1347 1.373 . S
C1349 C1333 1.377 . S
C1349 C1347 1.389 . S
C1349 C1350 1.524 . S
C1350 C1349 1.524 . S
C1350 C1351 1.397 . S
C1350 C1355 1.363 . S
C1351 H1322 0.950 . S
C1351 C1350 1.397 . S
C1351 C1352 1.334 . S
C1352 H1323 0.950 . S
C1352 C1351 1.334 . S
C1352 C1353 1.287 . S
C1353 C1352 1.287 . S
C1353 C1354 1.524 . S
C1353 H1356 0.999 . S
C1354 H1324 0.950 . S
C1354 C1353 1.524 . S
C1354 C1355 1.415 . S
C1355 H1325 0.950 . S
C1355 C1350 1.363 . S
C1355 C1354 1.415 . S
H1356 C1353 0.999 . S
H1357 C1338 0.914 1_545 S
H1358 C1376 0.951 . S
H1359 C1378 0.951 . S
H1360 C1380 0.950 . S
H1361 C1381 0.950 . S
H1362 C1383 0.950 . S
H1363 C1386 0.950 . S
H1364 C1387 0.950 . S
H1365 C1389 0.950 . S
H1366 C1390 0.950 . S
H1367 C1391 0.951 . S
H1368 C1393 0.951 . S
H1369 C1395 0.950 . S
H1370 C1396 0.950 . S
H1371 C1398 0.950 . S
H1372 C1401 0.950 . S
H1373 C1402 0.950 . S
H1374 C1404 0.950 1_556 S
H1375 C1405 0.950 . S
C1376 H1358 0.951 . S
C1376 C1377 1.366 . S
C1376 C1378 1.388 . S
C1377 C1376 1.366 . S
C1377 C1381 1.385 . S
C1378 H1359 0.951 . S
C1378 C1376 1.388 . S
C1378 C1379 1.366 . S
C1379 C1378 1.366 . S
C1379 C1380 1.414 . S
C1379 C1382 1.499 . S
C1380 H1360 0.950 . S
C1380 C1379 1.414 . S
C1380 C1381 1.374 . S
C1381 H1361 0.950 . S
C1381 C1377 1.385 . S
C1381 C1380 1.374 . S
C1382 C1379 1.499 . S
C1382 C1383 1.373 . S
C1382 C1384 1.389 . S
C1383 H1362 0.950 . S
C1383 C1382 1.373 . S
C1383 C1399 1.377 . S
C1384 C1382 1.389 . S
C1384 C1385 1.524 . S
C1384 C1398 1.377 . S
C1385 C1384 1.524 . S
C1385 C1386 1.397 . S
C1385 C1390 1.363 . S
C1386 H1363 0.950 . S
C1386 C1385 1.397 . S
C1386 C1387 1.334 . S
C1387 H1364 0.950 . S
C1387 C1386 1.334 . S
C1387 C1388 1.287 . S
C1388 C1387 1.287 . S
C1388 C1389 1.524 . S
C1388 H1407 0.913 . S
C1389 H1365 0.950 . S
C1389 C1388 1.524 . S
C1389 C1390 1.415 . S
C1390 H1366 0.950 . S
C1390 C1385 1.363 . S
C1390 C1389 1.415 . S
C1391 H1367 0.951 . S
C1391 C1392 1.366 . S
C1391 C1393 1.388 1_565 S
C1392 C1391 1.366 . S
C1392 C1396 1.385 . S
C1393 H1368 0.951 . S
C1393 C1391 1.388 1_545 S
C1393 C1394 1.366 . S
C1394 C1393 1.366 . S
C1394 C1395 1.414 1_545 S
C1394 C1397 1.499 . S
C1395 H1369 0.950 . S
C1395 C1394 1.414 1_565 S
C1395 C1396 1.374 . S
C1396 H1370 0.950 . S
C1396 C1392 1.385 . S
C1396 C1395 1.374 . S
C1397 C1394 1.499 . S
C1397 C1398 1.373 . S
C1397 C1399 1.389 . S
C1398 H1371 0.950 . S
C1398 C1384 1.377 . S
C1398 C1397 1.373 . S
C1399 C1383 1.377 . S
C1399 C1397 1.389 . S
C1399 C1400 1.524 . S
C1400 C1399 1.524 . S
C1400 C1401 1.397 . S
C1400 C1405 1.363 . S
C1401 H1372 0.950 . S
C1401 C1400 1.397 . S
C1401 C1402 1.334 . S
C1402 H1373 0.950 . S
C1402 C1401 1.334 . S
C1402 C1403 1.287 . S
C1403 C1402 1.287 . S
C1403 C1404 1.524 . S
C1403 H1406 0.999 1_554 S
C1404 H1374 0.950 1_554 S
C1404 C1403 1.524 . S
C1404 C1405 1.415 . S
C1405 H1375 0.950 . S
C1405 C1400 1.363 . S
C1405 C1404 1.415 . S
H1406 C1403 0.999 1_556 S
H1407 C1388 0.913 . S
H1408 C1426 0.951 . S
H1409 C1428 0.951 . S
H1410 C1430 0.950 . S
H1411 C1431 0.950 . S
H1412 C1433 0.950 . S
H1413 C1436 0.950 . S
H1414 C1437 0.950 . S
H1415 C1439 0.950 . S
H1416 C1440 0.950 . S
H1417 C1441 0.951 . S
H1418 C1443 0.951 . S
H1419 C1445 0.950 . S
H1420 C1446 0.950 . S
H1421 C1448 0.950 . S
H1422 C1451 0.950 . S
H1423 C1452 0.950 . S
H1424 C1454 0.950 . S
H1425 C1455 0.950 . S
C1426 H1408 0.951 . S
C1426 C1427 1.366 . S
C1426 C1428 1.388 . S
C1427 C1426 1.366 . S
C1427 C1431 1.385 . S
C1428 H1409 0.951 . S
C1428 C1426 1.388 . S
C1428 C1429 1.366 . S
C1429 C1428 1.366 . S
C1429 C1430 1.414 . S
C1429 C1432 1.499 . S
C1430 H1410 0.950 . S
C1430 C1429 1.414 . S
C1430 C1431 1.374 . S
C1431 H1411 0.950 . S
C1431 C1427 1.385 . S
C1431 C1430 1.374 . S
C1432 C1429 1.499 . S
C1432 C1433 1.373 . S
C1432 C1434 1.389 . S
C1433 H1412 0.950 . S
C1433 C1432 1.373 . S
C1433 C1449 1.377 . S
C1434 C1432 1.389 . S
C1434 C1435 1.524 . S
C1434 C1448 1.377 . S
C1435 C1434 1.524 . S
C1435 C1436 1.397 . S
C1435 C1440 1.363 . S
C1436 H1413 0.950 . S
C1436 C1435 1.397 . S
C1436 C1437 1.334 . S
C1437 H1414 0.950 . S
C1437 C1436 1.334 . S
C1437 C1438 1.287 . S
C1438 C1437 1.287 . S
C1438 C1439 1.524 . S
C1438 H1457 0.913 . S
C1439 H1415 0.950 . S
C1439 C1438 1.524 . S
C1439 C1440 1.415 . S
C1440 H1416 0.950 . S
C1440 C1435 1.363 . S
C1440 C1439 1.415 . S
C1441 H1417 0.951 . S
C1441 C1442 1.366 . S
C1441 C1443 1.388 . S
C1442 C1441 1.366 . S
C1442 C1446 1.385 . S
C1443 H1418 0.951 . S
C1443 C1441 1.388 . S
C1443 C1444 1.366 . S
C1444 C1443 1.366 . S
C1444 C1445 1.414 . S
C1444 C1447 1.499 . S
C1445 H1419 0.950 . S
C1445 C1444 1.414 . S
C1445 C1446 1.374 . S
C1446 H1420 0.950 . S
C1446 C1442 1.385 . S
C1446 C1445 1.374 . S
C1447 C1444 1.499 . S
C1447 C1448 1.373 . S
C1447 C1449 1.389 . S
C1448 H1421 0.950 . S
C1448 C1434 1.377 . S
C1448 C1447 1.373 . S
C1449 C1433 1.377 . S
C1449 C1447 1.389 . S
C1449 C1450 1.524 . S
C1450 C1449 1.524 . S
C1450 C1451 1.397 . S
C1450 C1455 1.363 . S
C1451 H1422 0.950 . S
C1451 C1450 1.397 . S
C1451 C1452 1.334 . S
C1452 H1423 0.950 . S
C1452 C1451 1.334 . S
C1452 C1453 1.287 . S
C1453 C1452 1.287 . S
C1453 C1454 1.524 . S
C1453 H1456 0.999 . S
C1454 H1424 0.950 . S
C1454 C1453 1.524 . S
C1454 C1455 1.415 . S
C1455 H1425 0.950 . S
C1455 C1450 1.363 . S
C1455 C1454 1.415 . S
H1456 C1453 0.999 . S
H1457 C1438 0.913 . S
H1458 C1476 0.951 . S
H1459 C1478 0.951 . S
H1460 C1480 0.950 . S
H1461 C1481 0.950 . S
H1462 C1483 0.950 . S
H1463 C1486 0.950 . S
H1464 C1487 0.950 . S
H1465 C1489 0.950 . S
H1466 C1490 0.950 . S
H1467 C1491 0.951 . S
H1468 C1493 0.951 . S
H1469 C1495 0.950 . S
H1470 C1496 0.950 . S
H1471 C1498 0.950 . S
H1472 C1501 0.950 . S
H1473 C1502 0.950 . S
H1474 C1504 0.950 . S
H1475 C1505 0.950 . S
C1476 H1458 0.951 . S
C1476 C1477 1.366 . S
C1476 C1478 1.388 . S
C1477 C1476 1.366 . S
C1477 C1481 1.385 . S
C1478 H1459 0.951 . S
C1478 C1476 1.388 . S
C1478 C1479 1.366 . S
C1479 C1478 1.366 . S
C1479 C1480 1.414 . S
C1479 C1482 1.499 . S
C1480 H1460 0.950 . S
C1480 C1479 1.414 . S
C1480 C1481 1.374 . S
C1481 H1461 0.950 . S
C1481 C1477 1.385 . S
C1481 C1480 1.374 . S
C1482 C1479 1.499 . S
C1482 C1483 1.373 . S
C1482 C1484 1.389 . S
C1483 H1462 0.950 . S
C1483 C1482 1.373 . S
C1483 C1499 1.377 . S
C1484 C1482 1.389 . S
C1484 C1485 1.524 . S
C1484 C1498 1.377 . S
C1485 C1484 1.524 . S
C1485 C1486 1.397 . S
C1485 C1490 1.363 . S
C1486 H1463 0.950 . S
C1486 C1485 1.397 . S
C1486 C1487 1.334 . S
C1487 H1464 0.950 . S
C1487 C1486 1.334 . S
C1487 C1488 1.287 . S
C1488 C1487 1.287 . S
C1488 C1489 1.524 . S
C1488 H1507 0.913 . S
C1489 H1465 0.950 . S
C1489 C1488 1.524 . S
C1489 C1490 1.415 . S
C1490 H1466 0.950 . S
C1490 C1485 1.363 . S
C1490 C1489 1.415 . S
C1491 H1467 0.951 . S
C1491 C1492 1.366 . S
C1491 C1493 1.388 . S
C1492 C1491 1.366 . S
C1492 C1496 1.385 . S
C1493 H1468 0.951 . S
C1493 C1491 1.388 . S
C1493 C1494 1.366 . S
C1494 C1493 1.366 . S
C1494 C1495 1.414 . S
C1494 C1497 1.499 . S
C1495 H1469 0.950 . S
C1495 C1494 1.414 . S
C1495 C1496 1.374 . S
C1496 H1470 0.950 . S
C1496 C1492 1.385 . S
C1496 C1495 1.374 . S
C1497 C1494 1.499 . S
C1497 C1498 1.373 . S
C1497 C1499 1.389 . S
C1498 H1471 0.950 . S
C1498 C1484 1.377 . S
C1498 C1497 1.373 . S
C1499 C1483 1.377 . S
C1499 C1497 1.389 . S
C1499 C1500 1.524 . S
C1500 C1499 1.524 . S
C1500 C1501 1.397 . S
C1500 C1505 1.363 . S
C1501 H1472 0.950 . S
C1501 C1500 1.397 . S
C1501 C1502 1.334 . S
C1502 H1473 0.950 . S
C1502 C1501 1.334 . S
C1502 C1503 1.287 . S
C1503 C1502 1.287 . S
C1503 C1504 1.524 . S
C1503 H1506 0.999 1_554 S
C1504 H1474 0.950 . S
C1504 C1503 1.524 . S
C1504 C1505 1.415 . S
C1505 H1475 0.950 . S
C1505 C1500 1.363 . S
C1505 C1504 1.415 . S
H1506 C1503 0.999 1_556 S
H1507 C1488 0.913 . S
H1508 C1526 0.951 . S
H1509 C1528 0.951 . S
H1510 C1530 0.950 . S
H1511 C1531 0.950 . S
H1512 C1533 0.950 . S
H1513 C1536 0.950 . S
H1514 C1537 0.950 . S
H1515 C1539 0.950 . S
H1516 C1540 0.950 . S
H1517 C1541 0.951 . S
H1518 C1543 0.951 . S
H1519 C1545 0.950 . S
H1520 C1546 0.950 . S
H1521 C1548 0.950 1_556 S
H1522 C1551 0.950 . S
H1523 C1552 0.950 . S
H1524 C1554 0.950 . S
H1525 C1555 0.950 . S
C1526 H1508 0.951 . S
C1526 C1527 1.366 . S
C1526 C1528 1.388 . S
C1527 C1526 1.366 . S
C1527 C1531 1.385 . S
C1528 H1509 0.951 . S
C1528 C1526 1.388 . S
C1528 C1529 1.366 . S
C1529 C1528 1.366 . S
C1529 C1530 1.414 . S
C1529 C1532 1.499 . S
C1530 H1510 0.950 . S
C1530 C1529 1.414 . S
C1530 C1531 1.374 . S
C1531 H1511 0.950 . S
C1531 C1527 1.385 . S
C1531 C1530 1.374 . S
C1532 C1529 1.499 . S
C1532 C1533 1.373 . S
C1532 C1534 1.389 . S
C1533 H1512 0.950 . S
C1533 C1532 1.373 . S
C1533 C1549 1.377 . S
C1534 C1532 1.389 . S
C1534 C1535 1.524 . S
C1534 C1548 1.377 . S
C1535 C1534 1.524 . S
C1535 C1536 1.397 1_554 S
C1535 C1540 1.363 . S
C1536 H1513 0.950 . S
C1536 C1535 1.397 1_556 S
C1536 C1537 1.334 . S
C1537 H1514 0.950 . S
C1537 C1536 1.334 . S
C1537 C1538 1.287 . S
C1538 C1537 1.287 . S
C1538 C1539 1.524 . S
C1538 H1557 0.913 . S
C1539 H1515 0.950 . S
C1539 C1538 1.524 . S
C1539 C1540 1.415 1_556 S
C1540 H1516 0.950 . S
C1540 C1535 1.363 . S
C1540 C1539 1.415 1_554 S
C1541 H1517 0.951 . S
C1541 C1542 1.366 . S
C1541 C1543 1.388 . S
C1542 C1541 1.366 . S
C1542 C1546 1.385 . S
C1543 H1518 0.951 . S
C1543 C1541 1.388 . S
C1543 C1544 1.390 . S
C1544 C1543 1.390 . S
C1544 C1545 1.408 1_556 S
C1544 C1547 1.483 1_556 S
C1545 H1519 0.950 . S
C1545 C1544 1.408 1_554 S
C1545 C1546 1.374 1_554 S
C1546 H1520 0.950 . S
C1546 C1542 1.385 . S
C1546 C1545 1.374 1_556 S
C1547 C1544 1.483 1_554 S
C1547 C1548 1.373 . S
C1547 C1549 1.389 . S
C1548 H1521 0.950 1_554 S
C1548 C1534 1.377 . S
C1548 C1547 1.373 . S
C1549 C1533 1.377 . S
C1549 C1547 1.389 . S
C1549 C1550 1.524 . S
C1550 C1549 1.524 . S
C1550 C1551 1.397 . S
C1550 C1555 1.363 . S
C1551 H1522 0.950 . S
C1551 C1550 1.397 . S
C1551 C1552 1.334 . S
C1552 H1523 0.950 . S
C1552 C1551 1.334 . S
C1552 C1553 1.287 . S
C1553 C1552 1.287 . S
C1553 C1554 1.524 . S
C1553 H1556 0.999 . S
C1554 H1524 0.950 . S
C1554 C1553 1.524 . S
C1554 C1555 1.415 . S
C1555 H1525 0.950 . S
C1555 C1550 1.363 . S
C1555 C1554 1.415 . S
H1556 C1553 0.999 . S
H1557 C1538 0.913 . S
H1558 C1576 0.951 . S
H1559 C1578 0.951 . S
H1560 C1580 0.950 . S
H1561 C1581 0.950 . S
H1562 C1583 0.950 . S
H1563 C1586 0.950 . S
H1564 C1587 0.950 . S
H1565 C1589 0.950 . S
H1566 C1590 0.950 . S
H1567 C1591 0.951 . S
H1568 C1593 0.951 . S
H1569 C1595 0.950 . S
H1570 C1596 0.950 . S
H1571 C1598 0.950 . S
H1572 C1601 0.950 . S
H1573 C1602 0.950 . S
H1574 C1604 0.950 . S
H1575 C1605 0.950 . S
C1576 H1558 0.951 . S
C1576 C1577 1.366 . S
C1576 C1578 1.388 . S
C1577 C1576 1.366 . S
C1577 C1581 1.385 . S
C1578 H1559 0.951 . S
C1578 C1576 1.388 . S
C1578 C1579 1.366 . S
C1579 C1578 1.366 . S
C1579 C1580 1.414 . S
C1579 C1582 1.499 . S
C1580 H1560 0.950 . S
C1580 C1579 1.414 . S
C1580 C1581 1.374 . S
C1581 H1561 0.950 . S
C1581 C1577 1.385 . S
C1581 C1580 1.374 . S
C1582 C1579 1.499 . S
C1582 C1583 1.373 . S
C1582 C1584 1.389 . S
C1583 H1562 0.950 . S
C1583 C1582 1.373 . S
C1583 C1599 1.377 . S
C1584 C1582 1.389 . S
C1584 C1585 1.524 . S
C1584 C1598 1.377 . S
C1585 C1584 1.524 . S
C1585 C1586 1.397 . S
C1585 C1590 1.363 . S
C1586 H1563 0.950 . S
C1586 C1585 1.397 . S
C1586 C1587 1.334 . S
C1587 H1564 0.950 . S
C1587 C1586 1.334 . S
C1587 C1588 1.287 . S
C1588 C1587 1.287 . S
C1588 C1589 1.524 . S
C1588 H1607 0.913 . S
C1589 H1565 0.950 . S
C1589 C1588 1.524 . S
C1589 C1590 1.415 . S
C1590 H1566 0.950 . S
C1590 C1585 1.363 . S
C1590 C1589 1.415 . S
C1591 H1567 0.951 . S
C1591 C1592 1.366 . S
C1591 C1593 1.388 . S
C1592 C1591 1.366 . S
C1592 C1596 1.385 . S
C1593 H1568 0.951 . S
C1593 C1591 1.388 . S
C1593 C1594 1.366 . S
C1594 C1593 1.366 . S
C1594 C1595 1.414 . S
C1594 C1597 1.499 . S
C1595 H1569 0.950 . S
C1595 C1594 1.414 . S
C1595 C1596 1.374 . S
C1596 H1570 0.950 . S
C1596 C1592 1.385 . S
C1596 C1595 1.374 . S
C1597 C1594 1.499 . S
C1597 C1598 1.373 . S
C1597 C1599 1.389 . S
C1598 H1571 0.950 . S
C1598 C1584 1.377 . S
C1598 C1597 1.373 . S
C1599 C1583 1.377 . S
C1599 C1597 1.389 . S
C1599 C1600 1.524 . S
C1600 C1599 1.524 . S
C1600 C1601 1.397 . S
C1600 C1605 1.363 . S
C1601 H1572 0.950 . S
C1601 C1600 1.397 . S
C1601 C1602 1.334 . S
C1602 H1573 0.950 . S
C1602 C1601 1.334 . S
C1602 C1603 1.287 . S
C1603 C1602 1.287 . S
C1603 C1604 1.524 . S
C1603 H1606 0.999 . S
C1604 H1574 0.950 . S
C1604 C1603 1.524 . S
C1604 C1605 1.415 . S
C1605 H1575 0.950 . S
C1605 C1600 1.363 . S
C1605 C1604 1.415 . S
H1606 C1603 0.999 . S
H1607 C1588 0.913 . S
H1608 C1626 0.951 . S
H1609 C1628 0.951 . S
H1610 C1630 0.950 . S
H1611 C1631 0.950 . S
H1612 C1633 0.950 . S
H1613 C1636 0.950 . S
H1614 C1637 0.950 . S
H1615 C1639 0.950 . S
H1616 C1640 0.950 . S
H1617 C1641 0.951 . S
H1618 C1643 0.951 . S
H1619 C1645 0.950 . S
H1620 C1646 0.950 . S
H1621 C1648 0.950 . S
H1622 C1651 0.950 . S
H1623 C1652 0.950 . S
H1624 C1654 0.950 . S
H1625 C1655 0.950 . S
C1626 H1608 0.951 . S
C1626 C1627 1.366 . S
C1626 C1628 1.388 . S
C1627 C1626 1.366 . S
C1627 C1631 1.385 . S
C1628 H1609 0.951 . S
C1628 C1626 1.388 . S
C1628 C1629 1.366 . S
C1629 C1628 1.366 . S
C1629 C1630 1.414 . S
C1629 C1632 1.499 . S
C1630 H1610 0.950 . S
C1630 C1629 1.414 . S
C1630 C1631 1.374 . S
C1631 H1611 0.950 . S
C1631 C1627 1.385 . S
C1631 C1630 1.374 . S
C1632 C1629 1.499 . S
C1632 C1633 1.373 . S
C1632 C1634 1.389 . S
C1633 H1612 0.950 . S
C1633 C1632 1.373 . S
C1633 C1649 1.377 . S
C1634 C1632 1.389 . S
C1634 C1635 1.524 . S
C1634 C1648 1.377 . S
C1635 C1634 1.524 . S
C1635 C1636 1.397 . S
C1635 C1640 1.363 . S
C1636 H1613 0.950 . S
C1636 C1635 1.397 . S
C1636 C1637 1.334 . S
C1637 H1614 0.950 . S
C1637 C1636 1.334 . S
C1637 C1638 1.287 . S
C1638 C1637 1.287 . S
C1638 C1639 1.524 . S
C1638 H1657 0.913 . S
C1639 H1615 0.950 . S
C1639 C1638 1.524 . S
C1639 C1640 1.415 . S
C1640 H1616 0.950 . S
C1640 C1635 1.363 . S
C1640 C1639 1.415 . S
C1641 H1617 0.951 . S
C1641 C1642 1.366 . S
C1641 C1643 1.388 . S
C1642 C1641 1.366 . S
C1642 C1646 1.385 . S
C1643 H1618 0.951 . S
C1643 C1641 1.388 . S
C1643 C1644 1.366 . S
C1644 C1643 1.366 . S
C1644 C1645 1.414 . S
C1644 C1647 1.499 . S
C1645 H1619 0.950 . S
C1645 C1644 1.414 . S
C1645 C1646 1.374 . S
C1646 H1620 0.950 . S
C1646 C1642 1.385 . S
C1646 C1645 1.374 . S
C1647 C1644 1.499 . S
C1647 C1648 1.373 . S
C1647 C1649 1.389 . S
C1648 H1621 0.950 . S
C1648 C1634 1.377 . S
C1648 C1647 1.373 . S
C1649 C1633 1.377 . S
C1649 C1647 1.389 . S
C1649 C1650 1.524 . S
C1650 C1649 1.524 . S
C1650 C1651 1.397 . S
C1650 C1655 1.363 . S
C1651 H1622 0.950 . S
C1651 C1650 1.397 . S
C1651 C1652 1.334 . S
C1652 H1623 0.950 . S
C1652 C1651 1.334 . S
C1652 C1653 1.287 . S
C1653 C1652 1.287 . S
C1653 C1654 1.524 . S
C1653 H1656 0.999 . S
C1654 H1624 0.950 . S
C1654 C1653 1.524 . S
C1654 C1655 1.415 . S
C1655 H1625 0.950 . S
C1655 C1650 1.363 . S
C1655 C1654 1.415 . S
H1656 C1653 0.999 . S
H1657 C1638 0.913 . S
H1658 C1676 0.951 . S
H1659 C1678 0.951 . S
H1660 C1680 0.950 . S
H1661 C1681 0.950 . S
H1662 C1683 0.950 . S
H1663 C1686 0.950 . S
H1664 C1687 0.950 . S
H1665 C1689 0.950 . S
H1666 C1690 0.950 . S
H1667 C1691 0.951 . S
H1668 C1693 0.951 . S
H1669 C1695 0.950 . S
H1670 C1696 0.950 . S
H1671 C1698 0.950 . S
H1672 C1701 0.950 . S
H1673 C1702 0.950 . S
H1674 C1704 0.950 . S
H1675 C1705 0.950 . S
C1676 H1658 0.951 . S
C1676 C1677 1.366 . S
C1676 C1678 1.388 . S
C1677 C1676 1.366 . S
C1677 C1681 1.385 . S
C1678 H1659 0.951 . S
C1678 C1676 1.388 . S
C1678 C1679 1.366 . S
C1679 C1678 1.366 . S
C1679 C1680 1.414 . S
C1679 C1682 1.499 . S
C1680 H1660 0.950 . S
C1680 C1679 1.414 . S
C1680 C1681 1.374 . S
C1681 H1661 0.950 . S
C1681 C1677 1.385 . S
C1681 C1680 1.374 . S
C1682 C1679 1.499 . S
C1682 C1683 1.373 . S
C1682 C1684 1.389 . S
C1683 H1662 0.950 . S
C1683 C1682 1.373 . S
C1683 C1699 1.377 . S
C1684 C1682 1.389 . S
C1684 C1685 1.524 . S
C1684 C1698 1.377 . S
C1685 C1684 1.524 . S
C1685 C1686 1.397 . S
C1685 C1690 1.363 . S
C1686 H1663 0.950 . S
C1686 C1685 1.397 . S
C1686 C1687 1.334 . S
C1687 H1664 0.950 . S
C1687 C1686 1.334 . S
C1687 C1688 1.287 . S
C1688 C1687 1.287 . S
C1688 C1689 1.524 . S
C1688 H1707 0.913 . S
C1689 H1665 0.950 . S
C1689 C1688 1.524 . S
C1689 C1690 1.415 . S
C1690 H1666 0.950 . S
C1690 C1685 1.363 . S
C1690 C1689 1.415 . S
C1691 H1667 0.951 . S
C1691 C1692 1.366 . S
C1691 C1693 1.388 . S
C1692 C1691 1.366 . S
C1692 C1696 1.385 . S
C1693 H1668 0.951 . S
C1693 C1691 1.388 . S
C1693 C1694 1.366 . S
C1694 C1693 1.366 . S
C1694 C1695 1.414 . S
C1694 C1697 1.499 . S
C1695 H1669 0.950 . S
C1695 C1694 1.414 . S
C1695 C1696 1.374 . S
C1696 H1670 0.950 . S
C1696 C1692 1.385 . S
C1696 C1695 1.374 . S
C1697 C1694 1.499 . S
C1697 C1698 1.373 . S
C1697 C1699 1.389 . S
C1698 H1671 0.950 . S
C1698 C1684 1.377 . S
C1698 C1697 1.373 . S
C1699 C1683 1.377 . S
C1699 C1697 1.389 . S
C1699 C1700 1.524 . S
C1700 C1699 1.524 . S
C1700 C1701 1.397 . S
C1700 C1705 1.363 . S
C1701 H1672 0.950 . S
C1701 C1700 1.397 . S
C1701 C1702 1.334 . S
C1702 H1673 0.950 . S
C1702 C1701 1.334 . S
C1702 C1703 1.287 . S
C1703 C1702 1.287 . S
C1703 C1704 1.524 . S
C1703 H1706 0.999 . S
C1704 H1674 0.950 . S
C1704 C1703 1.524 . S
C1704 C1705 1.415 . S
C1705 H1675 0.950 . S
C1705 C1700 1.363 . S
C1705 C1704 1.415 . S
H1706 C1703 0.999 . S
H1707 C1688 0.913 . S
H1708 C1726 0.951 . S
H1709 C1728 0.951 . S
H1710 C1730 0.950 . S
H1711 C1731 0.950 . S
H1712 C1733 0.950 . S
H1713 C1736 0.950 . S
H1714 C1737 0.950 . S
H1715 C1739 0.950 . S
H1716 C1740 0.950 . S
H1717 C1741 0.951 . S
H1718 C1743 0.951 . S
H1719 C1745 0.950 . S
H1720 C1746 0.950 . S
H1721 C1748 0.950 . S
H1722 C1751 0.950 1_455 S
H1723 C1752 0.950 . S
H1724 C1754 0.950 . S
H1725 C1755 0.950 . S
C1726 H1708 0.951 . S
C1726 C1727 1.366 . S
C1726 C1728 1.388 . S
C1727 C1726 1.366 . S
C1727 C1731 1.385 . S
C1728 H1709 0.951 . S
C1728 C1726 1.388 . S
C1728 C1729 1.366 . S
C1729 C1728 1.366 . S
C1729 C1730 1.414 . S
C1729 C1732 1.499 . S
C1730 H1710 0.950 . S
C1730 C1729 1.414 . S
C1730 C1731 1.374 . S
C1731 H1711 0.950 . S
C1731 C1727 1.385 . S
C1731 C1730 1.374 . S
C1732 C1729 1.499 . S
C1732 C1733 1.373 . S
C1732 C1734 1.389 . S
C1733 H1712 0.950 . S
C1733 C1732 1.373 . S
C1733 C1749 1.377 . S
C1734 C1732 1.389 . S
C1734 C1735 1.524 . S
C1734 C1748 1.377 . S
C1735 C1734 1.524 . S
C1735 C1736 1.397 . S
C1735 C1740 1.363 . S
C1736 H1713 0.950 . S
C1736 C1735 1.397 . S
C1736 C1737 1.334 . S
C1737 H1714 0.950 . S
C1737 C1736 1.334 . S
C1737 C1738 1.287 . S
C1738 C1737 1.287 . S
C1738 C1739 1.524 . S
C1738 H1757 0.913 . S
C1739 H1715 0.950 . S
C1739 C1738 1.524 . S
C1739 C1740 1.415 . S
C1740 H1716 0.950 . S
C1740 C1735 1.363 . S
C1740 C1739 1.415 . S
C1741 H1717 0.951 . S
C1741 C1742 1.366 . S
C1741 C1743 1.388 1_455 S
C1742 C1741 1.366 . S
C1742 C1746 1.385 . S
C1743 H1718 0.951 . S
C1743 C1741 1.388 1_655 S
C1743 C1744 1.367 . S
C1744 C1743 1.367 . S
C1744 C1745 1.369 1_655 S
C1744 C1747 1.542 . S
C1745 H1719 0.950 . S
C1745 C1744 1.369 1_455 S
C1745 C1746 1.374 . S
C1746 H1720 0.950 . S
C1746 C1742 1.385 . S
C1746 C1745 1.374 . S
C1747 C1744 1.542 . S
C1747 C1748 1.373 . S
C1747 C1749 1.389 . S
C1748 H1721 0.950 . S
C1748 C1734 1.377 . S
C1748 C1747 1.373 . S
C1749 C1733 1.377 . S
C1749 C1747 1.389 . S
C1749 C1750 1.524 . S
C1750 C1749 1.524 . S
C1750 C1751 1.397 . S
C1750 C1755 1.363 . S
C1751 H1722 0.950 1_655 S
C1751 C1750 1.397 . S
C1751 C1752 1.334 1_655 S
C1752 H1723 0.950 . S
C1752 C1751 1.334 1_455 S
C1752 C1753 1.287 1_455 S
C1753 C1752 1.287 1_655 S
C1753 C1754 1.524 . S
C1753 H1756 0.999 . S
C1754 H1724 0.950 . S
C1754 C1753 1.524 . S
C1754 C1755 1.415 . S
C1755 H1725 0.950 . S
C1755 C1750 1.363 . S
C1755 C1754 1.415 . S
H1756 C1753 0.999 . S
H1757 C1738 0.913 . S
H1758 C1776 0.951 . S
H1759 C1778 0.951 . S
H1760 C1780 0.950 . S
H1761 C1781 0.950 . S
H1762 C1783 0.950 . S
H1763 C1786 0.950 . S
H1764 C1787 0.950 . S
H1765 C1789 0.950 . S
H1766 C1790 0.950 . S
H1767 C1791 0.951 . S
H1768 C1793 0.951 . S
H1769 C1795 0.950 . S
H1770 C1796 0.950 . S
H1771 C1798 0.950 . S
H1772 C1801 0.950 . S
H1773 C1802 0.950 . S
H1774 C1804 0.950 . S
H1775 C1805 0.950 . S
C1776 H1758 0.951 . S
C1776 C1777 1.366 . S
C1776 C1778 1.388 . S
C1777 C1776 1.366 . S
C1777 C1781 1.385 . S
C1778 H1759 0.951 . S
C1778 C1776 1.388 . S
C1778 C1779 1.366 . S
C1779 C1778 1.366 . S
C1779 C1780 1.414 . S
C1779 C1782 1.499 . S
C1780 H1760 0.950 . S
C1780 C1779 1.414 . S
C1780 C1781 1.374 . S
C1781 H1761 0.950 . S
C1781 C1777 1.385 . S
C1781 C1780 1.374 . S
C1782 C1779 1.499 . S
C1782 C1783 1.373 . S
C1782 C1784 1.389 . S
C1783 H1762 0.950 . S
C1783 C1782 1.373 . S
C1783 C1799 1.377 . S
C1784 C1782 1.389 . S
C1784 C1785 1.524 . S
C1784 C1798 1.377 . S
C1785 C1784 1.524 . S
C1785 C1786 1.397 . S
C1785 C1790 1.363 . S
C1786 H1763 0.950 . S
C1786 C1785 1.397 . S
C1786 C1787 1.334 . S
C1787 H1764 0.950 . S
C1787 C1786 1.334 . S
C1787 C1788 1.287 . S
C1788 C1787 1.287 . S
C1788 C1789 1.524 . S
C1788 H1807 0.913 . S
C1789 H1765 0.950 . S
C1789 C1788 1.524 . S
C1789 C1790 1.415 . S
C1790 H1766 0.950 . S
C1790 C1785 1.363 . S
C1790 C1789 1.415 . S
C1791 H1767 0.951 . S
C1791 C1792 1.366 . S
C1791 C1793 1.388 . S
C1792 C1791 1.366 . S
C1792 C1796 1.385 . S
C1793 H1768 0.951 . S
C1793 C1791 1.388 . S
C1793 C1794 1.366 . S
C1794 C1793 1.366 . S
C1794 C1795 1.414 . S
C1794 C1797 1.499 . S
C1795 H1769 0.950 . S
C1795 C1794 1.414 . S
C1795 C1796 1.374 . S
C1796 H1770 0.950 . S
C1796 C1792 1.385 . S
C1796 C1795 1.374 . S
C1797 C1794 1.499 . S
C1797 C1798 1.373 . S
C1797 C1799 1.389 . S
C1798 H1771 0.950 . S
C1798 C1784 1.377 . S
C1798 C1797 1.373 . S
C1799 C1783 1.377 . S
C1799 C1797 1.389 . S
C1799 C1800 1.524 . S
C1800 C1799 1.524 . S
C1800 C1801 1.397 . S
C1800 C1805 1.363 . S
C1801 H1772 0.950 . S
C1801 C1800 1.397 . S
C1801 C1802 1.334 . S
C1802 H1773 0.950 . S
C1802 C1801 1.334 . S
C1802 C1803 1.287 . S
C1803 C1802 1.287 . S
C1803 C1804 1.524 . S
C1803 H1806 0.999 . S
C1804 H1774 0.950 . S
C1804 C1803 1.524 . S
C1804 C1805 1.415 . S
C1805 H1775 0.950 . S
C1805 C1800 1.363 . S
C1805 C1804 1.415 . S
H1806 C1803 0.999 . S
H1807 C1788 0.913 . S
H1808 C1826 0.951 . S
H1809 C1828 0.951 . S
H1810 C1830 0.950 . S
H1811 C1831 0.950 . S
H1812 C1833 0.950 . S
H1813 C1836 0.950 . S
H1814 C1837 0.950 . S
H1815 C1839 0.950 . S
H1816 C1840 0.950 . S
H1817 C1841 0.951 . S
H1818 C1843 0.951 . S
H1819 C1845 0.950 . S
H1820 C1846 0.950 . S
H1821 C1848 0.950 . S
H1822 C1851 0.950 . S
H1823 C1852 0.950 . S
H1824 C1854 0.950 . S
H1825 C1855 0.950 . S
C1826 H1808 0.951 . S
C1826 C1827 1.366 . S
C1826 C1828 1.388 . S
C1827 C1826 1.366 . S
C1827 C1831 1.385 . S
C1828 H1809 0.951 . S
C1828 C1826 1.388 . S
C1828 C1829 1.366 . S
C1829 C1828 1.366 . S
C1829 C1830 1.414 . S
C1829 C1832 1.499 . S
C1830 H1810 0.950 . S
C1830 C1829 1.414 . S
C1830 C1831 1.374 . S
C1831 H1811 0.950 . S
C1831 C1827 1.385 . S
C1831 C1830 1.374 . S
C1832 C1829 1.499 . S
C1832 C1833 1.373 . S
C1832 C1834 1.389 . S
C1833 H1812 0.950 . S
C1833 C1832 1.373 . S
C1833 C1849 1.377 . S
C1834 C1832 1.389 . S
C1834 C1835 1.524 . S
C1834 C1848 1.377 . S
C1835 C1834 1.524 . S
C1835 C1836 1.397 . S
C1835 C1840 1.363 . S
C1836 H1813 0.950 . S
C1836 C1835 1.397 . S
C1836 C1837 1.334 . S
C1837 H1814 0.950 . S
C1837 C1836 1.334 . S
C1837 C1838 1.287 . S
C1838 C1837 1.287 . S
C1838 C1839 1.524 . S
C1838 H1857 0.913 . S
C1839 H1815 0.950 . S
C1839 C1838 1.524 . S
C1839 C1840 1.415 . S
C1840 H1816 0.950 . S
C1840 C1835 1.363 . S
C1840 C1839 1.415 . S
C1841 H1817 0.951 . S
C1841 C1842 1.366 . S
C1841 C1843 1.388 . S
C1842 C1841 1.366 . S
C1842 C1846 1.385 . S
C1843 H1818 0.951 . S
C1843 C1841 1.388 . S
C1843 C1844 1.366 . S
C1844 C1843 1.366 . S
C1844 C1845 1.414 . S
C1844 C1847 1.499 . S
C1845 H1819 0.950 . S
C1845 C1844 1.414 . S
C1845 C1846 1.374 . S
C1846 H1820 0.950 . S
C1846 C1842 1.385 . S
C1846 C1845 1.374 . S
C1847 C1844 1.499 . S
C1847 C1848 1.373 . S
C1847 C1849 1.389 . S
C1848 H1821 0.950 . S
C1848 C1834 1.377 . S
C1848 C1847 1.373 . S
C1849 C1833 1.377 . S
C1849 C1847 1.389 . S
C1849 C1850 1.524 . S
C1850 C1849 1.524 . S
C1850 C1851 1.397 . S
C1850 C1855 1.363 . S
C1851 H1822 0.950 . S
C1851 C1850 1.397 . S
C1851 C1852 1.334 . S
C1852 H1823 0.950 . S
C1852 C1851 1.334 . S
C1852 C1853 1.287 . S
C1853 C1852 1.287 . S
C1853 C1854 1.524 . S
C1853 H1856 0.999 . S
C1854 H1824 0.950 . S
C1854 C1853 1.524 . S
C1854 C1855 1.415 . S
C1855 H1825 0.950 . S
C1855 C1850 1.363 . S
C1855 C1854 1.415 . S
H1856 C1853 0.999 . S
H1857 C1838 0.913 . S
H1858 C1876 0.951 . S
H1859 C1878 0.951 . S
H1860 C1880 0.950 . S
H1861 C1881 0.950 . S
H1862 C1883 0.950 . S
H1863 C1886 0.950 . S
H1864 C1887 0.950 . S
H1865 C1889 0.950 . S
H1866 C1890 0.950 . S
H1867 C1891 0.951 . S
H1868 C1893 0.951 . S
H1869 C1895 0.950 . S
H1870 C1896 0.950 . S
H1871 C1898 0.950 . S
H1872 C1901 0.950 . S
H1873 C1902 0.950 . S
H1874 C1904 0.950 . S
H1875 C1905 0.950 . S
C1876 H1858 0.951 . S
C1876 C1877 1.366 . S
C1876 C1878 1.388 . S
C1877 C1876 1.366 . S
C1877 C1881 1.385 . S
C1878 H1859 0.951 . S
C1878 C1876 1.388 . S
C1878 C1879 1.366 . S
C1879 C1878 1.366 . S
C1879 C1880 1.414 . S
C1879 C1882 1.499 . S
C1880 H1860 0.950 . S
C1880 C1879 1.414 . S
C1880 C1881 1.374 . S
C1881 H1861 0.950 . S
C1881 C1877 1.385 . S
C1881 C1880 1.374 . S
C1882 C1879 1.499 . S
C1882 C1883 1.373 . S
C1882 C1884 1.389 . S
C1883 H1862 0.950 . S
C1883 C1882 1.373 . S
C1883 C1899 1.377 . S
C1884 C1882 1.389 . S
C1884 C1885 1.524 . S
C1884 C1898 1.377 . S
C1885 C1884 1.524 . S
C1885 C1886 1.397 . S
C1885 C1890 1.363 . S
C1886 H1863 0.950 . S
C1886 C1885 1.397 . S
C1886 C1887 1.334 . S
C1887 H1864 0.950 . S
C1887 C1886 1.334 . S
C1887 C1888 1.287 . S
C1888 C1887 1.287 . S
C1888 C1889 1.524 . S
C1888 H1907 0.913 . S
C1889 H1865 0.950 . S
C1889 C1888 1.524 . S
C1889 C1890 1.415 . S
C1890 H1866 0.950 . S
C1890 C1885 1.363 . S
C1890 C1889 1.415 . S
C1891 H1867 0.951 . S
C1891 C1892 1.366 . S
C1891 C1893 1.388 . S
C1892 C1891 1.366 . S
C1892 C1896 1.385 . S
C1893 H1868 0.951 . S
C1893 C1891 1.388 . S
C1893 C1894 1.366 . S
C1894 C1893 1.366 . S
C1894 C1895 1.414 . S
C1894 C1897 1.499 . S
C1895 H1869 0.950 . S
C1895 C1894 1.414 . S
C1895 C1896 1.374 . S
C1896 H1870 0.950 . S
C1896 C1892 1.385 . S
C1896 C1895 1.374 . S
C1897 C1894 1.499 . S
C1897 C1898 1.373 . S
C1897 C1899 1.389 . S
C1898 H1871 0.950 . S
C1898 C1884 1.377 . S
C1898 C1897 1.373 . S
C1899 C1883 1.377 . S
C1899 C1897 1.389 . S
C1899 C1900 1.524 . S
C1900 C1899 1.524 . S
C1900 C1901 1.397 . S
C1900 C1905 1.363 . S
C1901 H1872 0.950 . S
C1901 C1900 1.397 . S
C1901 C1902 1.334 . S
C1902 H1873 0.950 . S
C1902 C1901 1.334 . S
C1902 C1903 1.287 . S
C1903 C1902 1.287 . S
C1903 C1904 1.524 . S
C1903 H1906 0.999 . S
C1904 H1874 0.950 . S
C1904 C1903 1.524 . S
C1904 C1905 1.415 . S
C1905 H1875 0.950 . S
C1905 C1900 1.363 . S
C1905 C1904 1.415 . S
H1906 C1903 0.999 . S
H1907 C1888 0.913 . S
H1908 C1926 0.951 . S
H1909 C1928 0.951 . S
H1910 C1930 0.950 . S
H1911 C1931 0.950 . S
H1912 C1933 0.950 . S
H1913 C1936 0.950 . S
H1914 C1937 0.950 . S
H1915 C1939 0.950 . S
H1916 C1940 0.950 . S
H1917 C1941 0.951 . S
H1918 C1943 0.951 . S
H1919 C1945 0.950 . S
H1920 C1946 0.950 . S
H1921 C1948 0.950 . S
H1922 C1951 0.950 . S
H1923 C1952 0.950 . S
H1924 C1954 0.950 . S
H1925 C1955 0.950 . S
C1926 H1908 0.951 . S
C1926 C1927 1.366 . S
C1926 C1928 1.388 . S
C1927 C1926 1.366 . S
C1927 C1931 1.385 . S
C1928 H1909 0.951 . S
C1928 C1926 1.388 . S
C1928 C1929 1.366 . S
C1929 C1928 1.366 . S
C1929 C1930 1.414 . S
C1929 C1932 1.499 . S
C1930 H1910 0.950 . S
C1930 C1929 1.414 . S
C1930 C1931 1.374 . S
C1931 H1911 0.950 . S
C1931 C1927 1.385 . S
C1931 C1930 1.374 . S
C1932 C1929 1.499 . S
C1932 C1933 1.373 . S
C1932 C1934 1.389 . S
C1933 H1912 0.950 . S
C1933 C1932 1.373 . S
C1933 C1949 1.377 . S
C1934 C1932 1.389 . S
C1934 C1935 1.524 . S
C1934 C1948 1.377 . S
C1935 C1934 1.524 . S
C1935 C1936 1.397 . S
C1935 C1940 1.363 . S
C1936 H1913 0.950 . S
C1936 C1935 1.397 . S
C1936 C1937 1.334 . S
C1937 H1914 0.950 . S
C1937 C1936 1.334 . S
C1937 C1938 1.287 . S
C1938 C1937 1.287 . S
C1938 C1939 1.524 . S
C1938 H1957 0.913 . S
C1939 H1915 0.950 . S
C1939 C1938 1.524 . S
C1939 C1940 1.415 . S
C1940 H1916 0.950 . S
C1940 C1935 1.363 . S
C1940 C1939 1.415 . S
C1941 H1917 0.951 . S
C1941 C1942 1.366 . S
C1941 C1943 1.388 . S
C1942 C1941 1.366 . S
C1942 C1946 1.385 . S
C1943 H1918 0.951 . S
C1943 C1941 1.388 . S
C1943 C1944 1.366 . S
C1944 C1943 1.366 . S
C1944 C1945 1.414 . S
C1944 C1947 1.499 . S
C1945 H1919 0.950 . S
C1945 C1944 1.414 . S
C1945 C1946 1.374 . S
C1946 H1920 0.950 . S
C1946 C1942 1.385 . S
C1946 C1945 1.374 . S
C1947 C1944 1.499 . S
C1947 C1948 1.373 . S
C1947 C1949 1.389 . S
C1948 H1921 0.950 . S
C1948 C1934 1.377 . S
C1948 C1947 1.373 . S
C1949 C1933 1.377 . S
C1949 C1947 1.389 . S
C1949 C1950 1.524 . S
C1950 C1949 1.524 . S
C1950 C1951 1.397 . S
C1950 C1955 1.363 . S
C1951 H1922 0.950 . S
C1951 C1950 1.397 . S
C1951 C1952 1.334 . S
C1952 H1923 0.950 . S
C1952 C1951 1.334 . S
C1952 C1953 1.287 . S
C1953 C1952 1.287 . S
C1953 C1954 1.524 . S
C1953 H1956 0.999 . S
C1954 H1924 0.950 . S
C1954 C1953 1.524 . S
C1954 C1955 1.415 . S
C1955 H1925 0.950 . S
C1955 C1950 1.363 . S
C1955 C1954 1.415 . S
H1956 C1953 0.999 . S
H1957 C1938 0.913 . S
H1958 C1976 0.951 . S
H1959 C1978 0.951 . S
H1960 C1980 0.950 . S
H1961 C1981 0.950 . S
H1962 C1983 0.950 . S
H1963 C1986 0.950 . S
H1964 C1987 0.950 . S
H1965 C1989 0.950 . S
H1966 C1990 0.950 . S
H1967 C1991 0.951 . S
H1968 C1993 0.951 1_554 S
H1969 C1995 0.950 . S
H1970 C1996 0.950 . S
H1971 C1998 0.950 . S
H1972 C2001 0.950 . S
H1973 C2002 0.950 . S
H1974 C2004 0.950 . S
H1975 C2005 0.950 . S
C1976 H1958 0.951 . S
C1976 C1977 1.366 . S
C1976 C1978 1.388 . S
C1977 C1976 1.366 . S
C1977 C1981 1.385 . S
C1978 H1959 0.951 . S
C1978 C1976 1.388 . S
C1978 C1979 1.366 . S
C1979 C1978 1.366 . S
C1979 C1980 1.414 . S
C1979 C1982 1.499 . S
C1980 H1960 0.950 . S
C1980 C1979 1.414 . S
C1980 C1981 1.374 . S
C1981 H1961 0.950 . S
C1981 C1977 1.385 . S
C1981 C1980 1.374 . S
C1982 C1979 1.499 . S
C1982 C1983 1.373 . S
C1982 C1984 1.389 . S
C1983 H1962 0.950 . S
C1983 C1982 1.373 . S
C1983 C1999 1.377 . S
C1984 C1982 1.389 . S
C1984 C1985 1.524 . S
C1984 C1998 1.377 . S
C1985 C1984 1.524 . S
C1985 C1986 1.397 . S
C1985 C1990 1.363 . S
C1986 H1963 0.950 . S
C1986 C1985 1.397 . S
C1986 C1987 1.334 . S
C1987 H1964 0.950 . S
C1987 C1986 1.334 . S
C1987 C1988 1.287 . S
C1988 C1987 1.287 . S
C1988 C1989 1.524 . S
C1988 H2007 0.913 . S
C1989 H1965 0.950 . S
C1989 C1988 1.524 . S
C1989 C1990 1.415 . S
C1990 H1966 0.950 . S
C1990 C1985 1.363 . S
C1990 C1989 1.415 . S
C1991 H1967 0.951 . S
C1991 C1992 1.366 . S
C1991 C1993 1.388 . S
C1992 C1991 1.366 . S
C1992 C1996 1.385 . S
C1993 H1968 0.951 1_556 S
C1993 C1991 1.388 . S
C1993 C1994 1.366 . S
C1994 C1993 1.366 . S
C1994 C1995 1.414 . S
C1994 C1997 1.499 1_556 S
C1995 H1969 0.950 . S
C1995 C1994 1.414 . S
C1995 C1996 1.374 . S
C1996 H1970 0.950 . S
C1996 C1992 1.385 . S
C1996 C1995 1.374 . S
C1997 C1994 1.499 1_554 S
C1997 C1998 1.373 . S
C1997 C1999 1.389 . S
C1998 H1971 0.950 . S
C1998 C1984 1.377 . S
C1998 C1997 1.373 . S
C1999 C1983 1.377 . S
C1999 C1997 1.389 . S
C1999 C2000 1.524 . S
C2000 C1999 1.524 . S
C2000 C2001 1.397 1_554 S
C2000 C2005 1.363 . S
C2001 H1972 0.950 . S
C2001 C2000 1.397 1_556 S
C2001 C2002 1.334 . S
C2002 H1973 0.950 . S
C2002 C2001 1.334 . S
C2002 C2003 1.287 . S
C2003 C2002 1.287 . S
C2003 C2004 1.524 1_556 S
C2003 H2006 0.999 . S
C2004 H1974 0.950 . S
C2004 C2003 1.524 1_554 S
C2004 C2005 1.415 . S
C2005 H1975 0.950 . S
C2005 C2000 1.363 . S
C2005 C2004 1.415 . S
H2006 C2003 0.999 . S
H2007 C1988 0.913 . S
H2008 C2026 0.951 . S
H2009 C2028 0.951 . S
H2010 C2030 0.950 . S
H2011 C2031 0.950 . S
H2012 C2033 0.950 . S
H2013 C2036 0.950 . S
H2014 C2037 0.950 . S
H2015 C2039 0.950 . S
H2016 C2040 0.950 . S
H2017 C2041 0.951 . S
H2018 C2043 0.951 . S
H2019 C2045 0.950 . S
H2020 C2046 0.950 . S
H2021 C2048 0.950 . S
H2022 C2051 0.950 . S
H2023 C2052 0.950 . S
H2024 C2054 0.950 . S
H2025 C2055 0.950 . S
C2026 H2008 0.951 . S
C2026 C2027 1.366 . S
C2026 C2028 1.388 . S
C2027 C2026 1.366 . S
C2027 C2031 1.385 . S
C2028 H2009 0.951 . S
C2028 C2026 1.388 . S
C2028 C2029 1.366 . S
C2029 C2028 1.366 . S
C2029 C2030 1.414 . S
C2029 C2032 1.499 . S
C2030 H2010 0.950 . S
C2030 C2029 1.414 . S
C2030 C2031 1.374 . S
C2031 H2011 0.950 . S
C2031 C2027 1.385 . S
C2031 C2030 1.374 . S
C2032 C2029 1.499 . S
C2032 C2033 1.373 . S
C2032 C2034 1.389 . S
C2033 H2012 0.950 . S
C2033 C2032 1.373 . S
C2033 C2049 1.377 . S
C2034 C2032 1.389 . S
C2034 C2035 1.524 . S
C2034 C2048 1.377 . S
C2035 C2034 1.524 . S
C2035 C2036 1.397 . S
C2035 C2040 1.363 . S
C2036 H2013 0.950 . S
C2036 C2035 1.397 . S
C2036 C2037 1.334 . S
C2037 H2014 0.950 . S
C2037 C2036 1.334 . S
C2037 C2038 1.287 . S
C2038 C2037 1.287 . S
C2038 C2039 1.524 . S
C2038 H2057 0.913 . S
C2039 H2015 0.950 . S
C2039 C2038 1.524 . S
C2039 C2040 1.415 . S
C2040 H2016 0.950 . S
C2040 C2035 1.363 . S
C2040 C2039 1.415 . S
C2041 H2017 0.951 . S
C2041 C2042 1.366 . S
C2041 C2043 1.388 . S
C2042 C2041 1.366 . S
C2042 C2046 1.385 . S
C2043 H2018 0.951 . S
C2043 C2041 1.388 . S
C2043 C2044 1.366 . S
C2044 C2043 1.366 . S
C2044 C2045 1.414 . S
C2044 C2047 1.499 . S
C2045 H2019 0.950 . S
C2045 C2044 1.414 . S
C2045 C2046 1.374 . S
C2046 H2020 0.950 . S
C2046 C2042 1.385 . S
C2046 C2045 1.374 . S
C2047 C2044 1.499 . S
C2047 C2048 1.373 . S
C2047 C2049 1.389 . S
C2048 H2021 0.950 . S
C2048 C2034 1.377 . S
C2048 C2047 1.373 . S
C2049 C2033 1.377 . S
C2049 C2047 1.389 . S
C2049 C2050 1.524 . S
C2050 C2049 1.524 . S
C2050 C2051 1.397 . S
C2050 C2055 1.363 . S
C2051 H2022 0.950 . S
C2051 C2050 1.397 . S
C2051 C2052 1.334 . S
C2052 H2023 0.950 . S
C2052 C2051 1.334 . S
C2052 C2053 1.287 . S
C2053 C2052 1.287 . S
C2053 C2054 1.524 . S
C2053 H2056 0.999 . S
C2054 H2024 0.950 . S
C2054 C2053 1.524 . S
C2054 C2055 1.415 . S
C2055 H2025 0.950 . S
C2055 C2050 1.363 . S
C2055 C2054 1.415 . S
H2056 C2053 0.999 . S
H2057 C2038 0.913 . S
H2058 C2076 0.951 . S
H2059 C2078 0.951 . S
H2060 C2080 0.950 . S
H2061 C2081 0.950 . S
H2062 C2083 0.950 . S
H2063 C2086 0.950 . S
H2064 C2087 0.950 . S
H2065 C2089 0.950 . S
H2066 C2090 0.950 . S
H2067 C2091 0.951 . S
H2068 C2093 0.951 . S
H2069 C2095 0.950 . S
H2070 C2096 0.950 . S
H2071 C2098 0.950 . S
H2072 C2101 0.950 . S
H2073 C2102 0.950 . S
H2074 C2104 0.949 . S
H2075 C2105 0.950 . S
C2076 H2058 0.951 . S
C2076 C2077 1.366 . S
C2076 C2078 1.388 . S
C2077 C2076 1.366 . S
C2077 C2081 1.385 . S
C2078 H2059 0.951 . S
C2078 C2076 1.388 . S
C2078 C2079 1.366 . S
C2079 C2078 1.366 . S
C2079 C2080 1.414 . S
C2079 C2082 1.499 . S
C2080 H2060 0.950 . S
C2080 C2079 1.414 . S
C2080 C2081 1.374 . S
C2081 H2061 0.950 . S
C2081 C2077 1.385 . S
C2081 C2080 1.374 . S
C2082 C2079 1.499 . S
C2082 C2083 1.373 . S
C2082 C2084 1.389 . S
C2083 H2062 0.950 . S
C2083 C2082 1.373 . S
C2083 C2099 1.377 . S
C2084 C2082 1.389 . S
C2084 C2085 1.524 . S
C2084 C2098 1.377 . S
C2085 C2084 1.524 . S
C2085 C2086 1.397 . S
C2085 C2090 1.363 . S
C2086 H2063 0.950 . S
C2086 C2085 1.397 . S
C2086 C2087 1.334 . S
C2087 H2064 0.950 . S
C2087 C2086 1.334 . S
C2087 C2088 1.287 . S
C2088 C2087 1.287 . S
C2088 C2089 1.524 . S
C2088 H2107 0.913 . S
C2089 H2065 0.950 . S
C2089 C2088 1.524 . S
C2089 C2090 1.415 . S
C2090 H2066 0.950 . S
C2090 C2085 1.363 . S
C2090 C2089 1.415 . S
C2091 H2067 0.951 . S
C2091 C2092 1.366 . S
C2091 C2093 1.388 1_556 S
C2092 C2091 1.366 . S
C2092 C2096 1.385 . S
C2093 H2068 0.951 . S
C2093 C2091 1.388 1_554 S
C2093 C2094 1.366 . S
C2094 C2093 1.366 . S
C2094 C2095 1.414 1_554 S
C2094 C2097 1.499 . S
C2095 H2069 0.950 . S
C2095 C2094 1.414 1_556 S
C2095 C2096 1.374 . S
C2096 H2070 0.950 . S
C2096 C2092 1.385 . S
C2096 C2095 1.374 . S
C2097 C2094 1.499 . S
C2097 C2098 1.373 . S
C2097 C2099 1.389 . S
C2098 H2071 0.950 . S
C2098 C2084 1.377 . S
C2098 C2097 1.373 . S
C2099 C2083 1.377 . S
C2099 C2097 1.389 . S
C2099 C2100 1.524 . S
C2100 C2099 1.524 . S
C2100 C2101 1.397 . S
C2100 C2105 1.363 . S
C2101 H2072 0.950 . S
C2101 C2100 1.397 . S
C2101 C2102 1.334 . S
C2102 H2073 0.950 . S
C2102 C2101 1.334 . S
C2102 C2103 1.287 . S
C2103 C2102 1.287 . S
C2103 C2104 1.524 . S
C2103 H2106 0.999 1_655 S
C2104 H2074 0.949 . S
C2104 C2103 1.524 . S
C2104 C2105 1.415 . S
C2105 H2075 0.950 . S
C2105 C2100 1.363 . S
C2105 C2104 1.415 . S
H2106 C2103 0.999 1_455 S
H2107 C2088 0.913 . S
H2108 C2126 0.951 . S
H2109 C2128 0.951 . S
H2110 C2130 0.950 . S
H2111 C2131 0.950 . S
H2112 C2133 0.950 . S
H2113 C2136 0.950 . S
H2114 C2137 0.950 . S
H2115 C2139 0.950 . S
H2116 C2140 0.950 . S
H2117 C2141 0.951 . S
H2118 C2143 0.951 . S
H2119 C2145 0.950 . S
H2120 C2146 0.950 . S
H2121 C2148 0.950 . S
H2122 C2151 0.950 . S
H2123 C2152 0.950 . S
H2124 C2154 0.950 . S
H2125 C2155 0.950 . S
C2126 H2108 0.951 . S
C2126 C2127 1.366 . S
C2126 C2128 1.388 . S
C2127 C2126 1.366 . S
C2127 C2131 1.385 . S
C2128 H2109 0.951 . S
C2128 C2126 1.388 . S
C2128 C2129 1.366 . S
C2129 C2128 1.366 . S
C2129 C2130 1.414 . S
C2129 C2132 1.499 . S
C2130 H2110 0.950 . S
C2130 C2129 1.414 . S
C2130 C2131 1.374 . S
C2131 H2111 0.950 . S
C2131 C2127 1.385 . S
C2131 C2130 1.374 . S
C2132 C2129 1.499 . S
C2132 C2133 1.373 . S
C2132 C2134 1.389 . S
C2133 H2112 0.950 . S
C2133 C2132 1.373 . S
C2133 C2149 1.377 . S
C2134 C2132 1.389 . S
C2134 C2135 1.524 . S
C2134 C2148 1.377 . S
C2135 C2134 1.524 . S
C2135 C2136 1.397 . S
C2135 C2140 1.363 . S
C2136 H2113 0.950 . S
C2136 C2135 1.397 . S
C2136 C2137 1.334 . S
C2137 H2114 0.950 . S
C2137 C2136 1.334 . S
C2137 C2138 1.287 . S
C2138 C2137 1.287 . S
C2138 C2139 1.524 . S
C2138 H2157 0.913 . S
C2139 H2115 0.950 . S
C2139 C2138 1.524 . S
C2139 C2140 1.415 . S
C2140 H2116 0.950 . S
C2140 C2135 1.363 . S
C2140 C2139 1.415 . S
C2141 H2117 0.951 . S
C2141 C2142 1.366 . S
C2141 C2143 1.388 . S
C2142 C2141 1.366 . S
C2142 C2146 1.385 . S
C2143 H2118 0.951 . S
C2143 C2141 1.388 . S
C2143 C2144 1.366 . S
C2144 C2143 1.366 . S
C2144 C2145 1.414 . S
C2144 C2147 1.499 . S
C2145 H2119 0.950 . S
C2145 C2144 1.414 . S
C2145 C2146 1.374 . S
C2146 H2120 0.950 . S
C2146 C2142 1.385 . S
C2146 C2145 1.374 . S
C2147 C2144 1.499 . S
C2147 C2148 1.373 . S
C2147 C2149 1.389 . S
C2148 H2121 0.950 . S
C2148 C2134 1.377 . S
C2148 C2147 1.373 . S
C2149 C2133 1.377 . S
C2149 C2147 1.389 . S
C2149 C2150 1.524 . S
C2150 C2149 1.524 . S
C2150 C2151 1.397 . S
C2150 C2155 1.363 . S
C2151 H2122 0.950 . S
C2151 C2150 1.397 . S
C2151 C2152 1.334 . S
C2152 H2123 0.950 . S
C2152 C2151 1.334 . S
C2152 C2153 1.287 . S
C2153 C2152 1.287 . S
C2153 C2154 1.524 . S
C2153 H2156 0.999 . S
C2154 H2124 0.950 . S
C2154 C2153 1.524 . S
C2154 C2155 1.415 . S
C2155 H2125 0.950 . S
C2155 C2150 1.363 . S
C2155 C2154 1.415 . S
H2156 C2153 0.999 . S
H2157 C2138 0.913 . S
H2158 C2176 0.951 . S
H2159 C2178 0.951 . S
H2160 C2180 0.950 . S
H2161 C2181 0.950 . S
H2162 C2183 0.950 . S
H2163 C2186 0.950 . S
H2164 C2187 0.950 . S
H2165 C2189 0.950 . S
H2166 C2190 0.950 . S
H2167 C2191 0.951 . S
H2168 C2193 0.951 . S
H2169 C2195 0.950 . S
H2170 C2196 0.950 . S
H2171 C2198 0.950 . S
H2172 C2201 0.950 . S
H2173 C2202 0.950 1_554 S
H2174 C2204 0.950 . S
H2175 C2205 0.950 . S
C2176 H2158 0.951 . S
C2176 C2177 1.366 . S
C2176 C2178 1.388 . S
C2177 C2176 1.366 . S
C2177 C2181 1.385 . S
C2178 H2159 0.951 . S
C2178 C2176 1.388 . S
C2178 C2179 1.366 . S
C2179 C2178 1.366 . S
C2179 C2180 1.414 . S
C2179 C2182 1.499 . S
C2180 H2160 0.950 . S
C2180 C2179 1.414 . S
C2180 C2181 1.374 . S
C2181 H2161 0.950 . S
C2181 C2177 1.385 . S
C2181 C2180 1.374 . S
C2182 C2179 1.499 . S
C2182 C2183 1.373 . S
C2182 C2184 1.389 . S
C2183 H2162 0.950 . S
C2183 C2182 1.373 . S
C2183 C2199 1.377 . S
C2184 C2182 1.389 . S
C2184 C2185 1.524 . S
C2184 C2198 1.377 . S
C2185 C2184 1.524 . S
C2185 C2186 1.397 . S
C2185 C2190 1.363 . S
C2186 H2163 0.950 . S
C2186 C2185 1.397 . S
C2186 C2187 1.334 . S
C2187 H2164 0.950 . S
C2187 C2186 1.334 . S
C2187 C2188 1.287 . S
C2188 C2187 1.287 . S
C2188 C2189 1.524 . S
C2188 H2207 0.913 . S
C2189 H2165 0.950 . S
C2189 C2188 1.524 . S
C2189 C2190 1.415 . S
C2190 H2166 0.950 . S
C2190 C2185 1.363 . S
C2190 C2189 1.415 . S
C2191 H2167 0.951 . S
C2191 C2192 1.366 . S
C2191 C2193 1.388 1_554 S
C2192 C2191 1.366 . S
C2192 C2196 1.385 . S
C2193 H2168 0.951 . S
C2193 C2191 1.388 1_556 S
C2193 C2194 1.366 . S
C2194 C2193 1.366 . S
C2194 C2195 1.414 1_556 S
C2194 C2197 1.499 . S
C2195 H2169 0.950 . S
C2195 C2194 1.414 1_554 S
C2195 C2196 1.374 . S
C2196 H2170 0.950 . S
C2196 C2192 1.385 . S
C2196 C2195 1.374 . S
C2197 C2194 1.499 . S
C2197 C2198 1.373 . S
C2197 C2199 1.389 . S
C2198 H2171 0.950 . S
C2198 C2184 1.377 . S
C2198 C2197 1.373 . S
C2199 C2183 1.377 . S
C2199 C2197 1.389 . S
C2199 C2200 1.524 . S
C2200 C2199 1.524 . S
C2200 C2201 1.397 . S
C2200 C2205 1.363 . S
C2201 H2172 0.950 . S
C2201 C2200 1.397 . S
C2201 C2202 1.334 . S
C2202 H2173 0.950 1_556 S
C2202 C2201 1.334 . S
C2202 C2203 1.287 . S
C2203 C2202 1.287 . S
C2203 C2204 1.524 . S
C2203 H2206 0.999 . S
C2204 H2174 0.950 . S
C2204 C2203 1.524 . S
C2204 C2205 1.415 . S
C2205 H2175 0.950 . S
C2205 C2200 1.363 . S
C2205 C2204 1.415 . S
H2206 C2203 0.999 . S
H2207 C2188 0.913 . S
H2208 C2226 0.951 . S
H2209 C2228 0.951 . S
H2210 C2230 0.950 . S
H2211 C2231 0.950 . S
H2212 C2233 0.950 . S
H2213 C2236 0.950 . S
H2214 C2237 0.950 . S
H2215 C2239 0.950 . S
H2216 C2240 0.950 . S
H2217 C2241 0.951 . S
H2218 C2243 0.951 . S
H2219 C2245 0.950 . S
H2220 C2246 0.950 . S
H2221 C2248 0.950 . S
H2222 C2251 0.950 . S
H2223 C2252 0.950 . S
H2224 C2254 0.950 . S
H2225 C2255 0.950 . S
C2226 H2208 0.951 . S
C2226 C2227 1.366 . S
C2226 C2228 1.388 . S
C2227 C2226 1.366 . S
C2227 C2231 1.385 . S
C2228 H2209 0.951 . S
C2228 C2226 1.388 . S
C2228 C2229 1.366 . S
C2229 C2228 1.366 . S
C2229 C2230 1.414 . S
C2229 C2232 1.499 . S
C2230 H2210 0.950 . S
C2230 C2229 1.414 . S
C2230 C2231 1.374 . S
C2231 H2211 0.950 . S
C2231 C2227 1.385 . S
C2231 C2230 1.374 . S
C2232 C2229 1.499 . S
C2232 C2233 1.373 . S
C2232 C2234 1.389 . S
C2233 H2212 0.950 . S
C2233 C2232 1.373 . S
C2233 C2249 1.377 . S
C2234 C2232 1.389 . S
C2234 C2235 1.524 . S
C2234 C2248 1.377 . S
C2235 C2234 1.524 . S
C2235 C2236 1.397 . S
C2235 C2240 1.363 . S
C2236 H2213 0.950 . S
C2236 C2235 1.397 . S
C2236 C2237 1.334 . S
C2237 H2214 0.950 . S
C2237 C2236 1.334 . S
C2237 C2238 1.287 . S
C2238 C2237 1.287 . S
C2238 C2239 1.524 . S
C2238 H2257 0.913 . S
C2239 H2215 0.950 . S
C2239 C2238 1.524 . S
C2239 C2240 1.415 . S
C2240 H2216 0.950 . S
C2240 C2235 1.363 . S
C2240 C2239 1.415 . S
C2241 H2217 0.951 . S
C2241 C2242 1.366 . S
C2241 C2243 1.388 . S
C2242 C2241 1.366 . S
C2242 C2246 1.385 . S
C2243 H2218 0.951 . S
C2243 C2241 1.388 . S
C2243 C2244 1.366 . S
C2244 C2243 1.366 . S
C2244 C2245 1.414 . S
C2244 C2247 1.499 . S
C2245 H2219 0.950 . S
C2245 C2244 1.414 . S
C2245 C2246 1.374 . S
C2246 H2220 0.950 . S
C2246 C2242 1.385 . S
C2246 C2245 1.374 . S
C2247 C2244 1.499 . S
C2247 C2248 1.373 . S
C2247 C2249 1.389 . S
C2248 H2221 0.950 . S
C2248 C2234 1.377 . S
C2248 C2247 1.373 . S
C2249 C2233 1.377 . S
C2249 C2247 1.389 . S
C2249 C2250 1.524 . S
C2250 C2249 1.524 . S
C2250 C2251 1.397 . S
C2250 C2255 1.363 . S
C2251 H2222 0.950 . S
C2251 C2250 1.397 . S
C2251 C2252 1.334 . S
C2252 H2223 0.950 . S
C2252 C2251 1.334 . S
C2252 C2253 1.287 . S
C2253 C2252 1.287 . S
C2253 C2254 1.524 . S
C2253 H2256 0.999 . S
C2254 H2224 0.950 . S
C2254 C2253 1.524 . S
C2254 C2255 1.415 . S
C2255 H2225 0.950 . S
C2255 C2250 1.363 . S
C2255 C2254 1.415 . S
H2256 C2253 0.999 . S
H2257 C2238 0.913 . S
H2258 C2276 0.951 . S
H2259 C2278 0.951 . S
H2260 C2280 0.950 . S
H2261 C2281 0.950 . S
H2262 C2283 0.950 . S
H2263 C2286 0.950 . S
H2264 C2287 0.950 . S
H2265 C2289 0.950 . S
H2266 C2290 0.950 . S
H2267 C2291 0.951 . S
H2268 C2293 0.951 1_556 S
H2269 C2295 0.950 . S
H2270 C2296 0.950 . S
H2271 C2298 0.950 . S
H2272 C2301 0.950 . S
H2273 C2302 0.950 . S
H2274 C2304 0.950 . S
H2275 C2305 0.950 . S
C2276 H2258 0.951 . S
C2276 C2277 1.366 . S
C2276 C2278 1.388 . S
C2277 C2276 1.366 . S
C2277 C2281 1.385 . S
C2278 H2259 0.951 . S
C2278 C2276 1.388 . S
C2278 C2279 1.366 . S
C2279 C2278 1.366 . S
C2279 C2280 1.414 . S
C2279 C2282 1.499 . S
C2280 H2260 0.950 . S
C2280 C2279 1.414 . S
C2280 C2281 1.374 . S
C2281 H2261 0.950 . S
C2281 C2277 1.385 . S
C2281 C2280 1.374 . S
C2282 C2279 1.499 . S
C2282 C2283 1.373 . S
C2282 C2284 1.389 . S
C2283 H2262 0.950 . S
C2283 C2282 1.373 . S
C2283 C2299 1.377 . S
C2284 C2282 1.389 . S
C2284 C2285 1.524 . S
C2284 C2298 1.377 . S
C2285 C2284 1.524 . S
C2285 C2286 1.397 . S
C2285 C2290 1.363 . S
C2286 H2263 0.950 . S
C2286 C2285 1.397 . S
C2286 C2287 1.334 . S
C2287 H2264 0.950 . S
C2287 C2286 1.334 . S
C2287 C2288 1.287 . S
C2288 C2287 1.287 . S
C2288 C2289 1.524 . S
C2288 H2307 0.913 . S
C2289 H2265 0.950 . S
C2289 C2288 1.524 . S
C2289 C2290 1.415 . S
C2290 H2266 0.950 . S
C2290 C2285 1.363 . S
C2290 C2289 1.415 . S
C2291 H2267 0.951 . S
C2291 C2292 1.366 . S
C2291 C2293 1.388 . S
C2292 C2291 1.366 . S
C2292 C2296 1.385 . S
C2293 H2268 0.951 1_554 S
C2293 C2291 1.388 . S
C2293 C2294 1.371 . S
C2294 C2293 1.371 . S
C2294 C2295 1.431 . S
C2294 C2297 1.477 1_554 S
C2295 H2269 0.950 . S
C2295 C2294 1.431 . S
C2295 C2296 1.374 . S
C2296 H2270 0.950 . S
C2296 C2292 1.385 . S
C2296 C2295 1.374 . S
C2297 C2294 1.477 1_556 S
C2297 C2298 1.373 . S
C2297 C2299 1.389 . S
C2298 H2271 0.950 . S
C2298 C2284 1.377 . S
C2298 C2297 1.373 . S
C2299 C2283 1.377 . S
C2299 C2297 1.389 . S
C2299 C2300 1.524 . S
C2300 C2299 1.524 . S
C2300 C2301 1.397 1_556 S
C2300 C2305 1.363 . S
C2301 H2272 0.950 . S
C2301 C2300 1.397 1_554 S
C2301 C2302 1.334 . S
C2302 H2273 0.950 . S
C2302 C2301 1.334 . S
C2302 C2303 1.287 . S
C2303 C2302 1.287 . S
C2303 C2304 1.524 1_554 S
C2303 H2306 0.999 . S
C2304 H2274 0.950 . S
C2304 C2303 1.524 1_556 S
C2304 C2305 1.415 . S
C2305 H2275 0.950 . S
C2305 C2300 1.363 . S
C2305 C2304 1.415 . S
H2306 C2303 0.999 . S
H2307 C2288 0.913 . S
H2308 C2326 0.951 . S
H2309 C2328 0.951 . S
H2310 C2330 0.950 . S
H2311 C2331 0.950 . S
H2312 C2333 0.950 . S
H2313 C2336 0.950 . S
H2314 C2337 0.950 . S
H2315 C2339 0.950 . S
H2316 C2340 0.950 . S
H2317 C2341 0.951 . S
H2318 C2343 0.951 . S
H2319 C2345 0.950 . S
H2320 C2346 0.950 . S
H2321 C2348 0.950 . S
H2322 C2351 0.950 . S
H2323 C2352 0.950 . S
H2324 C2354 0.950 . S
H2325 C2355 0.950 . S
C2326 H2308 0.951 . S
C2326 C2327 1.366 . S
C2326 C2328 1.388 . S
C2327 C2326 1.366 . S
C2327 C2331 1.385 . S
C2328 H2309 0.951 . S
C2328 C2326 1.388 . S
C2328 C2329 1.366 . S
C2329 C2328 1.366 . S
C2329 C2330 1.414 . S
C2329 C2332 1.499 . S
C2330 H2310 0.950 . S
C2330 C2329 1.414 . S
C2330 C2331 1.374 . S
C2331 H2311 0.950 . S
C2331 C2327 1.385 . S
C2331 C2330 1.374 . S
C2332 C2329 1.499 . S
C2332 C2333 1.373 . S
C2332 C2334 1.389 . S
C2333 H2312 0.950 . S
C2333 C2332 1.373 . S
C2333 C2349 1.377 . S
C2334 C2332 1.389 . S
C2334 C2335 1.524 . S
C2334 C2348 1.377 . S
C2335 C2334 1.524 . S
C2335 C2336 1.397 . S
C2335 C2340 1.363 . S
C2336 H2313 0.950 . S
C2336 C2335 1.397 . S
C2336 C2337 1.334 . S
C2337 H2314 0.950 . S
C2337 C2336 1.334 . S
C2337 C2338 1.287 . S
C2338 C2337 1.287 . S
C2338 C2339 1.524 . S
C2338 H2357 0.913 . S
C2339 H2315 0.950 . S
C2339 C2338 1.524 . S
C2339 C2340 1.415 . S
C2340 H2316 0.950 . S
C2340 C2335 1.363 . S
C2340 C2339 1.415 . S
C2341 H2317 0.951 . S
C2341 C2342 1.366 . S
C2341 C2343 1.388 . S
C2342 C2341 1.366 . S
C2342 C2346 1.385 . S
C2343 H2318 0.951 . S
C2343 C2341 1.388 . S
C2343 C2344 1.366 . S
C2344 C2343 1.366 . S
C2344 C2345 1.414 . S
C2344 C2347 1.499 . S
C2345 H2319 0.950 . S
C2345 C2344 1.414 . S
C2345 C2346 1.374 . S
C2346 H2320 0.950 . S
C2346 C2342 1.385 . S
C2346 C2345 1.374 . S
C2347 C2344 1.499 . S
C2347 C2348 1.373 . S
C2347 C2349 1.389 . S
C2348 H2321 0.950 . S
C2348 C2334 1.377 . S
C2348 C2347 1.373 . S
C2349 C2333 1.377 . S
C2349 C2347 1.389 . S
C2349 C2350 1.524 . S
C2350 C2349 1.524 . S
C2350 C2351 1.397 . S
C2350 C2355 1.363 . S
C2351 H2322 0.950 . S
C2351 C2350 1.397 . S
C2351 C2352 1.334 . S
C2352 H2323 0.950 . S
C2352 C2351 1.334 . S
C2352 C2353 1.287 . S
C2353 C2352 1.287 . S
C2353 C2354 1.524 . S
C2353 H2356 0.999 . S
C2354 H2324 0.950 . S
C2354 C2353 1.524 . S
C2354 C2355 1.415 . S
C2355 H2325 0.950 . S
C2355 C2350 1.363 . S
C2355 C2354 1.415 . S
H2356 C2353 0.999 . S
H2357 C2338 0.913 . S
H2358 C2376 0.951 . S
H2359 C2378 0.951 . S
H2360 C2380 0.950 . S
H2361 C2381 0.950 . S
H2362 C2383 0.950 . S
H2363 C2386 0.950 . S
H2364 C2387 0.950 . S
H2365 C2389 0.950 . S
H2366 C2390 0.950 . S
H2367 C2391 0.951 . S
H2368 C2393 0.951 . S
H2369 C2395 0.950 . S
H2370 C2396 0.950 . S
H2371 C2398 0.950 . S
H2372 C2401 0.950 . S
H2373 C2402 0.950 . S
H2374 C2404 0.950 . S
H2375 C2405 0.950 . S
C2376 H2358 0.951 . S
C2376 C2377 1.366 . S
C2376 C2378 1.388 . S
C2377 C2376 1.366 . S
C2377 C2381 1.385 . S
C2378 H2359 0.951 . S
C2378 C2376 1.388 . S
C2378 C2379 1.366 . S
C2379 C2378 1.366 . S
C2379 C2380 1.414 . S
C2379 C2382 1.499 . S
C2380 H2360 0.950 . S
C2380 C2379 1.414 . S
C2380 C2381 1.374 . S
C2381 H2361 0.950 . S
C2381 C2377 1.385 . S
C2381 C2380 1.374 . S
C2382 C2379 1.499 . S
C2382 C2383 1.373 . S
C2382 C2384 1.389 . S
C2383 H2362 0.950 . S
C2383 C2382 1.373 . S
C2383 C2399 1.377 . S
C2384 C2382 1.389 . S
C2384 C2385 1.524 . S
C2384 C2398 1.377 . S
C2385 C2384 1.524 . S
C2385 C2386 1.397 . S
C2385 C2390 1.363 . S
C2386 H2363 0.950 . S
C2386 C2385 1.397 . S
C2386 C2387 1.334 . S
C2387 H2364 0.950 . S
C2387 C2386 1.334 . S
C2387 C2388 1.287 . S
C2388 C2387 1.287 . S
C2388 C2389 1.524 . S
C2388 H2407 0.913 . S
C2389 H2365 0.950 . S
C2389 C2388 1.524 . S
C2389 C2390 1.415 . S
C2390 H2366 0.950 . S
C2390 C2385 1.363 . S
C2390 C2389 1.415 . S
C2391 H2367 0.951 . S
C2391 C2392 1.366 . S
C2391 C2393 1.388 . S
C2392 C2391 1.366 . S
C2392 C2396 1.385 . S
C2393 H2368 0.951 . S
C2393 C2391 1.388 . S
C2393 C2394 1.366 . S
C2394 C2393 1.366 . S
C2394 C2395 1.414 . S
C2394 C2397 1.499 . S
C2395 H2369 0.950 . S
C2395 C2394 1.414 . S
C2395 C2396 1.374 . S
C2396 H2370 0.950 . S
C2396 C2392 1.385 . S
C2396 C2395 1.374 . S
C2397 C2394 1.499 . S
C2397 C2398 1.373 . S
C2397 C2399 1.389 . S
C2398 H2371 0.950 . S
C2398 C2384 1.377 . S
C2398 C2397 1.373 . S
C2399 C2383 1.377 . S
C2399 C2397 1.389 . S
C2399 C2400 1.524 . S
C2400 C2399 1.524 . S
C2400 C2401 1.397 . S
C2400 C2405 1.363 . S
C2401 H2372 0.950 . S
C2401 C2400 1.397 . S
C2401 C2402 1.334 . S
C2402 H2373 0.950 . S
C2402 C2401 1.334 . S
C2402 C2403 1.287 . S
C2403 C2402 1.287 . S
C2403 C2404 1.524 . S
C2403 H2406 0.999 . S
C2404 H2374 0.950 . S
C2404 C2403 1.524 . S
C2404 C2405 1.415 . S
C2405 H2375 0.950 . S
C2405 C2400 1.363 . S
C2405 C2404 1.415 . S
H2406 C2403 0.999 . S
H2407 C2388 0.913 . S
H2408 C2426 0.951 . S
H2409 C2428 0.951 . S
H2410 C2430 0.950 . S
H2411 C2431 0.950 . S
H2412 C2433 0.950 . S
H2413 C2436 0.950 . S
H2414 C2437 0.950 . S
H2415 C2439 0.950 . S
H2416 C2440 0.950 . S
H2417 C2441 0.951 . S
H2418 C2443 0.951 . S
H2419 C2445 0.950 . S
H2420 C2446 0.950 . S
H2421 C2448 0.950 . S
H2422 C2451 0.950 . S
H2423 C2452 0.950 . S
H2424 C2454 0.950 . S
H2425 C2455 0.950 . S
C2426 H2408 0.951 . S
C2426 C2427 1.366 . S
C2426 C2428 1.388 . S
C2427 C2426 1.366 . S
C2427 C2431 1.385 . S
C2428 H2409 0.951 . S
C2428 C2426 1.388 . S
C2428 C2429 1.366 . S
C2429 C2428 1.366 . S
C2429 C2430 1.414 . S
C2429 C2432 1.499 . S
C2430 H2410 0.950 . S
C2430 C2429 1.414 . S
C2430 C2431 1.374 . S
C2431 H2411 0.950 . S
C2431 C2427 1.385 . S
C2431 C2430 1.374 . S
C2432 C2429 1.499 . S
C2432 C2433 1.373 . S
C2432 C2434 1.389 . S
C2433 H2412 0.950 . S
C2433 C2432 1.373 . S
C2433 C2449 1.377 . S
C2434 C2432 1.389 . S
C2434 C2435 1.524 . S
C2434 C2448 1.377 . S
C2435 C2434 1.524 . S
C2435 C2436 1.397 . S
C2435 C2440 1.363 . S
C2436 H2413 0.950 . S
C2436 C2435 1.397 . S
C2436 C2437 1.334 1_565 S
C2437 H2414 0.950 . S
C2437 C2436 1.334 1_545 S
C2437 C2438 1.287 . S
C2438 C2437 1.287 . S
C2438 C2439 1.524 . S
C2438 H2457 0.913 . S
C2439 H2415 0.950 . S
C2439 C2438 1.524 . S
C2439 C2440 1.415 1_545 S
C2440 H2416 0.950 . S
C2440 C2435 1.363 . S
C2440 C2439 1.415 1_565 S
C2441 H2417 0.951 . S
C2441 C2442 1.366 . S
C2441 C2443 1.388 . S
C2442 C2441 1.366 . S
C2442 C2446 1.385 . S
C2443 H2418 0.951 . S
C2443 C2441 1.388 . S
C2443 C2444 1.366 . S
C2444 C2443 1.366 . S
C2444 C2445 1.414 . S
C2444 C2447 1.499 . S
C2445 H2419 0.950 . S
C2445 C2444 1.414 . S
C2445 C2446 1.374 . S
C2446 H2420 0.950 . S
C2446 C2442 1.385 . S
C2446 C2445 1.374 . S
C2447 C2444 1.499 . S
C2447 C2448 1.373 . S
C2447 C2449 1.389 . S
C2448 H2421 0.950 . S
C2448 C2434 1.377 . S
C2448 C2447 1.373 . S
C2449 C2433 1.377 . S
C2449 C2447 1.389 . S
C2449 C2450 1.524 . S
C2450 C2449 1.524 . S
C2450 C2451 1.397 . S
C2450 C2455 1.363 . S
C2451 H2422 0.950 . S
C2451 C2450 1.397 . S
C2451 C2452 1.334 . S
C2452 H2423 0.950 . S
C2452 C2451 1.334 . S
C2452 C2453 1.287 . S
C2453 C2452 1.287 . S
C2453 C2454 1.524 . S
C2453 H2456 0.999 . S
C2454 H2424 0.950 . S
C2454 C2453 1.524 . S
C2454 C2455 1.415 . S
C2455 H2425 0.950 . S
C2455 C2450 1.363 . S
C2455 C2454 1.415 . S
H2456 C2453 0.999 . S
H2457 C2438 0.913 . S
H2458 C2476 0.951 . S
H2459 C2478 0.951 . S
H2460 C2480 0.950 . S
H2461 C2481 0.950 . S
H2462 C2483 0.950 . S
H2463 C2486 0.950 . S
H2464 C2487 0.950 . S
H2465 C2489 0.950 . S
H2466 C2490 0.950 . S
H2467 C2491 0.951 . S
H2468 C2493 0.951 . S
H2469 C2495 0.950 . S
H2470 C2496 0.950 . S
H2471 C2498 0.950 . S
H2472 C2501 0.950 . S
H2473 C2502 0.950 . S
H2474 C2504 0.950 . S
H2475 C2505 0.950 . S
C2476 H2458 0.951 . S
C2476 C2477 1.366 . S
C2476 C2478 1.388 . S
C2477 C2476 1.366 . S
C2477 C2481 1.385 . S
C2478 H2459 0.951 . S
C2478 C2476 1.388 . S
C2478 C2479 1.366 . S
C2479 C2478 1.366 . S
C2479 C2480 1.414 . S
C2479 C2482 1.499 . S
C2480 H2460 0.950 . S
C2480 C2479 1.414 . S
C2480 C2481 1.374 . S
C2481 H2461 0.950 . S
C2481 C2477 1.385 . S
C2481 C2480 1.374 . S
C2482 C2479 1.499 . S
C2482 C2483 1.373 . S
C2482 C2484 1.389 . S
C2483 H2462 0.950 . S
C2483 C2482 1.373 . S
C2483 C2499 1.377 . S
C2484 C2482 1.389 . S
C2484 C2485 1.524 . S
C2484 C2498 1.377 . S
C2485 C2484 1.524 . S
C2485 C2486 1.397 . S
C2485 C2490 1.363 . S
C2486 H2463 0.950 . S
C2486 C2485 1.397 . S
C2486 C2487 1.334 . S
C2487 H2464 0.950 . S
C2487 C2486 1.334 . S
C2487 C2488 1.287 . S
C2488 C2487 1.287 . S
C2488 C2489 1.524 . S
C2488 H2507 0.913 . S
C2489 H2465 0.950 . S
C2489 C2488 1.524 . S
C2489 C2490 1.415 . S
C2490 H2466 0.950 . S
C2490 C2485 1.363 . S
C2490 C2489 1.415 . S
C2491 H2467 0.951 . S
C2491 C2492 1.366 . S
C2491 C2493 1.388 1_545 S
C2492 C2491 1.366 . S
C2492 C2496 1.385 . S
C2493 H2468 0.951 . S
C2493 C2491 1.388 1_565 S
C2493 C2494 1.366 . S
C2494 C2493 1.366 . S
C2494 C2495 1.414 1_565 S
C2494 C2497 1.499 . S
C2495 H2469 0.950 . S
C2495 C2494 1.414 1_545 S
C2495 C2496 1.374 . S
C2496 H2470 0.950 . S
C2496 C2492 1.385 . S
C2496 C2495 1.374 . S
C2497 C2494 1.499 . S
C2497 C2498 1.373 . S
C2497 C2499 1.389 . S
C2498 H2471 0.950 . S
C2498 C2484 1.377 . S
C2498 C2497 1.373 . S
C2499 C2483 1.377 . S
C2499 C2497 1.389 . S
C2499 C2500 1.524 . S
C2500 C2499 1.524 . S
C2500 C2501 1.397 . S
C2500 C2505 1.363 . S
C2501 H2472 0.950 . S
C2501 C2500 1.397 . S
C2501 C2502 1.334 . S
C2502 H2473 0.950 . S
C2502 C2501 1.334 . S
C2502 C2503 1.287 . S
C2503 C2502 1.287 . S
C2503 C2504 1.524 . S
C2503 H2506 0.999 . S
C2504 H2474 0.950 . S
C2504 C2503 1.524 . S
C2504 C2505 1.415 . S
C2505 H2475 0.950 . S
C2505 C2500 1.363 . S
C2505 C2504 1.415 . S
H2506 C2503 0.999 . S
H2507 C2488 0.913 . S
H2508 C2526 0.951 . S
H2509 C2528 0.951 . S
H2510 C2530 0.950 . S
H2511 C2531 0.950 . S
H2512 C2533 0.950 . S
H2513 C2536 0.950 . S
H2514 C2537 0.950 . S
H2515 C2539 0.950 . S
H2516 C2540 0.950 . S
H2517 C2541 0.951 . S
H2518 C2543 0.951 . S
H2519 C2545 0.950 . S
H2520 C2546 0.950 . S
H2521 C2548 0.950 . S
H2522 C2551 0.950 . S
H2523 C2552 0.950 . S
H2524 C2554 0.950 . S
H2525 C2555 0.950 . S
C2526 H2508 0.951 . S
C2526 C2527 1.366 . S
C2526 C2528 1.388 . S
C2527 C2526 1.366 . S
C2527 C2531 1.385 . S
C2528 H2509 0.951 . S
C2528 C2526 1.388 . S
C2528 C2529 1.366 . S
C2529 C2528 1.366 . S
C2529 C2530 1.414 . S
C2529 C2532 1.499 . S
C2530 H2510 0.950 . S
C2530 C2529 1.414 . S
C2530 C2531 1.374 . S
C2531 H2511 0.950 . S
C2531 C2527 1.385 . S
C2531 C2530 1.374 . S
C2532 C2529 1.499 . S
C2532 C2533 1.373 . S
C2532 C2534 1.389 . S
C2533 H2512 0.950 . S
C2533 C2532 1.373 . S
C2533 C2549 1.377 . S
C2534 C2532 1.389 . S
C2534 C2535 1.524 . S
C2534 C2548 1.377 . S
C2535 C2534 1.524 . S
C2535 C2536 1.397 . S
C2535 C2540 1.363 . S
C2536 H2513 0.950 . S
C2536 C2535 1.397 . S
C2536 C2537 1.334 . S
C2537 H2514 0.950 . S
C2537 C2536 1.334 . S
C2537 C2538 1.287 . S
C2538 C2537 1.287 . S
C2538 C2539 1.524 . S
C2538 H2557 0.913 . S
C2539 H2515 0.950 . S
C2539 C2538 1.524 . S
C2539 C2540 1.415 . S
C2540 H2516 0.950 . S
C2540 C2535 1.363 . S
C2540 C2539 1.415 . S
C2541 H2517 0.951 . S
C2541 C2542 1.366 . S
C2541 C2543 1.388 . S
C2542 C2541 1.366 . S
C2542 C2546 1.385 . S
C2543 H2518 0.951 . S
C2543 C2541 1.388 . S
C2543 C2544 1.366 . S
C2544 C2543 1.366 . S
C2544 C2545 1.414 . S
C2544 C2547 1.499 . S
C2545 H2519 0.950 . S
C2545 C2544 1.414 . S
C2545 C2546 1.374 . S
C2546 H2520 0.950 . S
C2546 C2542 1.385 . S
C2546 C2545 1.374 . S
C2547 C2544 1.499 . S
C2547 C2548 1.373 . S
C2547 C2549 1.389 . S
C2548 H2521 0.950 . S
C2548 C2534 1.377 . S
C2548 C2547 1.373 . S
C2549 C2533 1.377 . S
C2549 C2547 1.389 . S
C2549 C2550 1.524 . S
C2550 C2549 1.524 . S
C2550 C2551 1.397 . S
C2550 C2555 1.363 . S
C2551 H2522 0.950 . S
C2551 C2550 1.397 . S
C2551 C2552 1.334 . S
C2552 H2523 0.950 . S
C2552 C2551 1.334 . S
C2552 C2553 1.287 . S
C2553 C2552 1.287 . S
C2553 C2554 1.524 . S
C2553 H2556 0.999 . S
C2554 H2524 0.950 . S
C2554 C2553 1.524 . S
C2554 C2555 1.415 . S
C2555 H2525 0.950 . S
C2555 C2550 1.363 . S
C2555 C2554 1.415 . S
H2556 C2553 0.999 . S
H2557 C2538 0.913 . S
H2558 C2576 0.951 . S
H2559 C2578 0.951 . S
H2560 C2580 0.950 . S
H2561 C2581 0.950 . S
H2562 C2583 0.950 . S
H2563 C2586 0.950 . S
H2564 C2587 0.950 . S
H2565 C2589 0.950 . S
H2566 C2590 0.950 . S
H2567 C2591 0.951 . S
H2568 C2593 0.951 . S
H2569 C2595 0.950 . S
H2570 C2596 0.950 . S
H2571 C2598 0.950 . S
H2572 C2601 0.950 . S
H2573 C2602 0.950 . S
H2574 C2604 0.950 . S
H2575 C2605 0.950 . S
C2576 H2558 0.951 . S
C2576 C2577 1.366 . S
C2576 C2578 1.388 . S
C2577 C2576 1.366 . S
C2577 C2581 1.385 . S
C2578 H2559 0.951 . S
C2578 C2576 1.388 . S
C2578 C2579 1.366 . S
C2579 C2578 1.366 . S
C2579 C2580 1.414 . S
C2579 C2582 1.499 . S
C2580 H2560 0.950 . S
C2580 C2579 1.414 . S
C2580 C2581 1.374 . S
C2581 H2561 0.950 . S
C2581 C2577 1.385 . S
C2581 C2580 1.374 . S
C2582 C2579 1.499 . S
C2582 C2583 1.373 . S
C2582 C2584 1.389 . S
C2583 H2562 0.950 . S
C2583 C2582 1.373 . S
C2583 C2599 1.377 . S
C2584 C2582 1.389 . S
C2584 C2585 1.524 . S
C2584 C2598 1.377 . S
C2585 C2584 1.524 . S
C2585 C2586 1.397 . S
C2585 C2590 1.363 . S
C2586 H2563 0.950 . S
C2586 C2585 1.397 . S
C2586 C2587 1.334 . S
C2587 H2564 0.950 . S
C2587 C2586 1.334 . S
C2587 C2588 1.287 . S
C2588 C2587 1.287 . S
C2588 C2589 1.524 . S
C2588 H2607 0.913 . S
C2589 H2565 0.950 . S
C2589 C2588 1.524 . S
C2589 C2590 1.415 . S
C2590 H2566 0.950 . S
C2590 C2585 1.363 . S
C2590 C2589 1.415 . S
C2591 H2567 0.951 . S
C2591 C2592 1.366 . S
C2591 C2593 1.388 . S
C2592 C2591 1.366 . S
C2592 C2596 1.385 . S
C2593 H2568 0.951 . S
C2593 C2591 1.388 . S
C2593 C2594 1.366 . S
C2594 C2593 1.366 . S
C2594 C2595 1.414 . S
C2594 C2597 1.499 . S
C2595 H2569 0.950 . S
C2595 C2594 1.414 . S
C2595 C2596 1.374 . S
C2596 H2570 0.950 . S
C2596 C2592 1.385 . S
C2596 C2595 1.374 . S
C2597 C2594 1.499 . S
C2597 C2598 1.373 . S
C2597 C2599 1.389 . S
C2598 H2571 0.950 . S
C2598 C2584 1.377 . S
C2598 C2597 1.373 . S
C2599 C2583 1.377 . S
C2599 C2597 1.389 . S
C2599 C2600 1.524 . S
C2600 C2599 1.524 . S
C2600 C2601 1.397 . S
C2600 C2605 1.363 . S
C2601 H2572 0.950 . S
C2601 C2600 1.397 . S
C2601 C2602 1.334 . S
C2602 H2573 0.950 . S
C2602 C2601 1.334 . S
C2602 C2603 1.287 . S
C2603 C2602 1.287 . S
C2603 C2604 1.524 . S
C2603 H2606 0.999 . S
C2604 H2574 0.950 . S
C2604 C2603 1.524 . S
C2604 C2605 1.415 . S
C2605 H2575 0.950 . S
C2605 C2600 1.363 . S
C2605 C2604 1.415 . S
H2606 C2603 0.999 . S
H2607 C2588 0.913 . S
H2608 C2626 0.951 . S
H2609 C2628 0.951 . S
H2610 C2630 0.950 . S
H2611 C2631 0.950 . S
H2612 C2633 0.950 . S
H2613 C2636 0.950 . S
H2614 C2637 0.950 . S
H2615 C2639 0.950 . S
H2616 C2640 0.950 . S
H2617 C2641 0.951 . S
H2618 C2643 0.951 . S
H2619 C2645 0.950 . S
H2620 C2646 0.950 . S
H2621 C2648 0.950 . S
H2622 C2651 0.950 . S
H2623 C2652 0.950 . S
H2624 C2654 0.950 . S
H2625 C2655 0.950 . S
C2626 H2608 0.951 . S
C2626 C2627 1.366 . S
C2626 C2628 1.388 . S
C2627 C2626 1.366 . S
C2627 C2631 1.385 . S
C2628 H2609 0.951 . S
C2628 C2626 1.388 . S
C2628 C2629 1.366 . S
C2629 C2628 1.366 . S
C2629 C2630 1.414 . S
C2629 C2632 1.499 . S
C2630 H2610 0.950 . S
C2630 C2629 1.414 . S
C2630 C2631 1.374 . S
C2631 H2611 0.950 . S
C2631 C2627 1.385 . S
C2631 C2630 1.374 . S
C2632 C2629 1.499 . S
C2632 C2633 1.373 . S
C2632 C2634 1.389 . S
C2633 H2612 0.950 . S
C2633 C2632 1.373 . S
C2633 C2649 1.377 . S
C2634 C2632 1.389 . S
C2634 C2635 1.524 . S
C2634 C2648 1.377 . S
C2635 C2634 1.524 . S
C2635 C2636 1.397 . S
C2635 C2640 1.363 . S
C2636 H2613 0.950 . S
C2636 C2635 1.397 . S
C2636 C2637 1.334 . S
C2637 H2614 0.950 . S
C2637 C2636 1.334 . S
C2637 C2638 1.287 . S
C2638 C2637 1.287 . S
C2638 C2639 1.524 . S
C2638 H2657 0.913 . S
C2639 H2615 0.950 . S
C2639 C2638 1.524 . S
C2639 C2640 1.415 . S
C2640 H2616 0.950 . S
C2640 C2635 1.363 . S
C2640 C2639 1.415 . S
C2641 H2617 0.951 . S
C2641 C2642 1.366 . S
C2641 C2643 1.388 . S
C2642 C2641 1.366 . S
C2642 C2646 1.385 . S
C2643 H2618 0.951 . S
C2643 C2641 1.388 . S
C2643 C2644 1.366 . S
C2644 C2643 1.366 . S
C2644 C2645 1.414 . S
C2644 C2647 1.499 . S
C2645 H2619 0.950 . S
C2645 C2644 1.414 . S
C2645 C2646 1.374 . S
C2646 H2620 0.950 . S
C2646 C2642 1.385 . S
C2646 C2645 1.374 . S
C2647 C2644 1.499 . S
C2647 C2648 1.373 . S
C2647 C2649 1.389 . S
C2648 H2621 0.950 . S
C2648 C2634 1.377 . S
C2648 C2647 1.373 . S
C2649 C2633 1.377 . S
C2649 C2647 1.389 . S
C2649 C2650 1.524 . S
C2650 C2649 1.524 . S
C2650 C2651 1.397 . S
C2650 C2655 1.363 . S
C2651 H2622 0.950 . S
C2651 C2650 1.397 . S
C2651 C2652 1.334 . S
C2652 H2623 0.950 . S
C2652 C2651 1.334 . S
C2652 C2653 1.287 . S
C2653 C2652 1.287 . S
C2653 C2654 1.524 . S
C2653 H2656 0.999 . S
C2654 H2624 0.950 . S
C2654 C2653 1.524 . S
C2654 C2655 1.415 . S
C2655 H2625 0.950 . S
C2655 C2650 1.363 . S
C2655 C2654 1.415 . S
H2656 C2653 0.999 . S
H2657 C2638 0.913 . S
H2658 C2676 0.951 . S
H2659 C2678 0.951 . S
H2660 C2680 0.950 . S
H2661 C2681 0.950 . S
H2662 C2683 0.950 . S
H2663 C2686 0.950 . S
H2664 C2687 0.950 . S
H2665 C2689 0.950 . S
H2666 C2690 0.950 . S
H2667 C2691 0.951 . S
H2668 C2693 0.962 . S
H2669 C2695 0.950 . S
H2670 C2696 0.950 . S
H2671 C2698 0.950 . S
H2672 C2701 0.950 . S
H2673 C2702 0.950 . S
H2674 C2704 0.950 . S
H2675 C2705 0.950 . S
C2676 H2658 0.951 . S
C2676 C2677 1.366 . S
C2676 C2678 1.388 . S
C2677 C2676 1.366 . S
C2677 C2681 1.385 . S
C2678 H2659 0.951 . S
C2678 C2676 1.388 . S
C2678 C2679 1.366 . S
C2679 C2678 1.366 . S
C2679 C2680 1.414 . S
C2679 C2682 1.499 . S
C2680 H2660 0.950 . S
C2680 C2679 1.414 . S
C2680 C2681 1.374 . S
C2681 H2661 0.950 . S
C2681 C2677 1.385 . S
C2681 C2680 1.374 . S
C2682 C2679 1.499 . S
C2682 C2683 1.373 . S
C2682 C2684 1.389 . S
C2683 H2662 0.950 . S
C2683 C2682 1.373 . S
C2683 C2699 1.377 . S
C2684 C2682 1.389 . S
C2684 C2685 1.524 . S
C2684 C2698 1.377 . S
C2685 C2684 1.524 . S
C2685 C2686 1.397 . S
C2685 C2690 1.363 . S
C2686 H2663 0.950 . S
C2686 C2685 1.397 . S
C2686 C2687 1.334 . S
C2687 H2664 0.950 . S
C2687 C2686 1.334 . S
C2687 C2688 1.287 . S
C2688 C2687 1.287 . S
C2688 C2689 1.524 . S
C2688 H2707 0.913 . S
C2689 H2665 0.950 . S
C2689 C2688 1.524 . S
C2689 C2690 1.415 . S
C2690 H2666 0.950 . S
C2690 C2685 1.363 . S
C2690 C2689 1.415 . S
C2691 H2667 0.951 . S
C2691 C2692 1.366 . S
C2691 C2693 1.371 1_545 S
C2692 C2691 1.366 . S
C2692 C2696 1.385 . S
C2693 H2668 0.962 . S
C2693 C2691 1.371 1_565 S
C2693 C2694 1.371 . S
C2694 C2693 1.371 . S
C2694 C2695 1.414 1_565 S
C2694 C2697 1.499 . S
C2695 H2669 0.950 . S
C2695 C2694 1.414 1_545 S
C2695 C2696 1.374 . S
C2696 H2670 0.950 . S
C2696 C2692 1.385 . S
C2696 C2695 1.374 . S
C2697 C2694 1.499 . S
C2697 C2698 1.373 . S
C2697 C2699 1.389 . S
C2698 H2671 0.950 . S
C2698 C2684 1.377 . S
C2698 C2697 1.373 . S
C2699 C2683 1.377 . S
C2699 C2697 1.389 . S
C2699 C2700 1.524 . S
C2700 C2699 1.524 . S
C2700 C2701 1.397 . S
C2700 C2705 1.363 . S
C2701 H2672 0.950 . S
C2701 C2700 1.397 . S
C2701 C2702 1.334 . S
C2702 H2673 0.950 . S
C2702 C2701 1.334 . S
C2702 C2703 1.287 . S
C2703 C2702 1.287 . S
C2703 C2704 1.524 . S
C2703 H2706 0.999 . S
C2704 H2674 0.950 . S
C2704 C2703 1.524 . S
C2704 C2705 1.415 . S
C2705 H2675 0.950 . S
C2705 C2700 1.363 . S
C2705 C2704 1.415 . S
H2706 C2703 0.999 . S
H2707 C2688 0.913 . S
H2708 C2726 0.951 . S
H2709 C2728 0.951 . S
H2710 C2730 0.950 . S
H2711 C2731 0.950 . S
H2712 C2733 0.950 . S
H2713 C2736 0.950 . S
H2714 C2737 0.950 . S
H2715 C2739 0.950 . S
H2716 C2740 0.950 . S
H2717 C2741 0.951 . S
H2718 C2743 0.951 . S
H2719 C2745 0.950 . S
H2720 C2746 0.950 . S
H2721 C2748 0.950 . S
H2722 C2751 0.950 . S
H2723 C2752 0.950 . S
H2724 C2754 0.950 . S
H2725 C2755 0.950 . S
C2726 H2708 0.951 . S
C2726 C2727 1.366 . S
C2726 C2728 1.388 . S
C2727 C2726 1.366 . S
C2727 C2731 1.385 . S
C2728 H2709 0.951 . S
C2728 C2726 1.388 . S
C2728 C2729 1.366 . S
C2729 C2728 1.366 . S
C2729 C2730 1.414 . S
C2729 C2732 1.499 . S
C2730 H2710 0.950 . S
C2730 C2729 1.414 . S
C2730 C2731 1.374 . S
C2731 H2711 0.950 . S
C2731 C2727 1.385 . S
C2731 C2730 1.374 . S
C2732 C2729 1.499 . S
C2732 C2733 1.373 . S
C2732 C2734 1.389 . S
C2733 H2712 0.950 . S
C2733 C2732 1.373 . S
C2733 C2749 1.377 . S
C2734 C2732 1.389 . S
C2734 C2735 1.524 . S
C2734 C2748 1.377 . S
C2735 C2734 1.524 . S
C2735 C2736 1.397 . S
C2735 C2740 1.363 . S
C2736 H2713 0.950 . S
C2736 C2735 1.397 . S
C2736 C2737 1.334 . S
C2737 H2714 0.950 . S
C2737 C2736 1.334 . S
C2737 C2738 1.287 . S
C2738 C2737 1.287 . S
C2738 C2739 1.524 . S
C2738 H2757 0.913 . S
C2739 H2715 0.950 . S
C2739 C2738 1.524 . S
C2739 C2740 1.415 . S
C2740 H2716 0.950 . S
C2740 C2735 1.363 . S
C2740 C2739 1.415 . S
C2741 H2717 0.951 . S
C2741 C2742 1.366 . S
C2741 C2743 1.388 . S
C2742 C2741 1.366 . S
C2742 C2746 1.385 . S
C2743 H2718 0.951 . S
C2743 C2741 1.388 . S
C2743 C2744 1.366 . S
C2744 C2743 1.366 . S
C2744 C2745 1.414 . S
C2744 C2747 1.499 . S
C2745 H2719 0.950 . S
C2745 C2744 1.414 . S
C2745 C2746 1.374 . S
C2746 H2720 0.950 . S
C2746 C2742 1.385 . S
C2746 C2745 1.374 . S
C2747 C2744 1.499 . S
C2747 C2748 1.373 . S
C2747 C2749 1.389 . S
C2748 H2721 0.950 . S
C2748 C2734 1.377 . S
C2748 C2747 1.373 . S
C2749 C2733 1.377 . S
C2749 C2747 1.389 . S
C2749 C2750 1.524 . S
C2750 C2749 1.524 . S
C2750 C2751 1.397 . S
C2750 C2755 1.363 . S
C2751 H2722 0.950 . S
C2751 C2750 1.397 . S
C2751 C2752 1.334 . S
C2752 H2723 0.950 . S
C2752 C2751 1.334 . S
C2752 C2753 1.287 . S
C2753 C2752 1.287 . S
C2753 C2754 1.524 . S
C2753 H2756 0.999 . S
C2754 H2724 0.950 . S
C2754 C2753 1.524 . S
C2754 C2755 1.415 . S
C2755 H2725 0.950 . S
C2755 C2750 1.363 . S
C2755 C2754 1.415 . S
H2756 C2753 0.999 . S
H2757 C2738 0.913 . S
H2758 C2776 0.951 . S
H2759 C2778 0.951 . S
H2760 C2780 0.950 . S
H2761 C2781 0.950 . S
H2762 C2783 0.950 . S
H2763 C2786 0.950 . S
H2764 C2787 0.950 . S
H2765 C2789 0.950 . S
H2766 C2790 0.950 . S
H2767 C2791 0.951 . S
H2768 C2793 0.951 . S
H2769 C2795 0.950 . S
H2770 C2796 0.950 . S
H2771 C2798 0.950 . S
H2772 C2801 0.950 . S
H2773 C2802 0.950 . S
H2774 C2804 0.950 . S
H2775 C2805 0.950 . S
C2776 H2758 0.951 . S
C2776 C2777 1.366 . S
C2776 C2778 1.388 . S
C2777 C2776 1.366 . S
C2777 C2781 1.385 . S
C2778 H2759 0.951 . S
C2778 C2776 1.388 . S
C2778 C2779 1.366 . S
C2779 C2778 1.366 . S
C2779 C2780 1.414 . S
C2779 C2782 1.499 . S
C2780 H2760 0.950 . S
C2780 C2779 1.414 . S
C2780 C2781 1.374 . S
C2781 H2761 0.950 . S
C2781 C2777 1.385 . S
C2781 C2780 1.374 . S
C2782 C2779 1.499 . S
C2782 C2783 1.373 . S
C2782 C2784 1.389 . S
C2783 H2762 0.950 . S
C2783 C2782 1.373 . S
C2783 C2799 1.377 . S
C2784 C2782 1.389 . S
C2784 C2785 1.524 . S
C2784 C2798 1.377 . S
C2785 C2784 1.524 . S
C2785 C2786 1.397 . S
C2785 C2790 1.363 . S
C2786 H2763 0.950 . S
C2786 C2785 1.397 . S
C2786 C2787 1.334 . S
C2787 H2764 0.950 . S
C2787 C2786 1.334 . S
C2787 C2788 1.287 . S
C2788 C2787 1.287 . S
C2788 C2789 1.524 . S
C2788 H2807 0.913 . S
C2789 H2765 0.950 . S
C2789 C2788 1.524 . S
C2789 C2790 1.415 . S
C2790 H2766 0.950 . S
C2790 C2785 1.363 . S
C2790 C2789 1.415 . S
C2791 H2767 0.951 . S
C2791 C2792 1.366 . S
C2791 C2793 1.388 . S
C2792 C2791 1.366 . S
C2792 C2796 1.385 . S
C2793 H2768 0.951 . S
C2793 C2791 1.388 . S
C2793 C2794 1.366 . S
C2794 C2793 1.366 . S
C2794 C2795 1.414 . S
C2794 C2797 1.499 . S
C2795 H2769 0.950 . S
C2795 C2794 1.414 . S
C2795 C2796 1.374 . S
C2796 H2770 0.950 . S
C2796 C2792 1.385 . S
C2796 C2795 1.374 . S
C2797 C2794 1.499 . S
C2797 C2798 1.373 . S
C2797 C2799 1.389 . S
C2798 H2771 0.950 . S
C2798 C2784 1.377 . S
C2798 C2797 1.373 . S
C2799 C2783 1.377 . S
C2799 C2797 1.389 . S
C2799 C2800 1.524 . S
C2800 C2799 1.524 . S
C2800 C2801 1.397 . S
C2800 C2805 1.363 1_556 S
C2801 H2772 0.950 . S
C2801 C2800 1.397 . S
C2801 C2802 1.334 . S
C2802 H2773 0.950 . S
C2802 C2801 1.334 . S
C2802 C2803 1.287 1_556 S
C2803 C2802 1.287 1_554 S
C2803 C2804 1.524 . S
C2803 H2806 0.999 . S
C2804 H2774 0.950 . S
C2804 C2803 1.524 . S
C2804 C2805 1.415 . S
C2805 H2775 0.950 . S
C2805 C2800 1.363 1_554 S
C2805 C2804 1.415 . S
H2806 C2803 0.999 . S
H2807 C2788 0.913 . S
H2808 C2826 0.951 . S
H2809 C2828 0.951 . S
H2810 C2830 0.950 . S
H2811 C2831 0.950 . S
H2812 C2833 0.950 . S
H2813 C2836 0.950 . S
H2814 C2837 0.950 . S
H2815 C2839 0.950 . S
H2816 C2840 0.950 . S
H2817 C2841 0.951 . S
H2818 C2843 0.951 . S
H2819 C2845 0.950 1_455 S
H2820 C2846 0.950 . S
H2821 C2848 0.950 . S
H2822 C2851 0.950 . S
H2823 C2852 0.950 . S
H2824 C2854 0.950 . S
H2825 C2855 0.950 . S
C2826 H2808 0.951 . S
C2826 C2827 1.366 . S
C2826 C2828 1.388 . S
C2827 C2826 1.366 . S
C2827 C2831 1.385 . S
C2828 H2809 0.951 . S
C2828 C2826 1.388 . S
C2828 C2829 1.366 . S
C2829 C2828 1.366 . S
C2829 C2830 1.414 . S
C2829 C2832 1.499 . S
C2830 H2810 0.950 . S
C2830 C2829 1.414 . S
C2830 C2831 1.374 . S
C2831 H2811 0.950 . S
C2831 C2827 1.385 . S
C2831 C2830 1.374 . S
C2832 C2829 1.499 . S
C2832 C2833 1.373 . S
C2832 C2834 1.389 . S
C2833 H2812 0.950 . S
C2833 C2832 1.373 . S
C2833 C2849 1.377 . S
C2834 C2832 1.389 . S
C2834 C2835 1.524 . S
C2834 C2848 1.377 . S
C2835 C2834 1.524 . S
C2835 C2836 1.397 . S
C2835 C2840 1.363 . S
C2836 H2813 0.950 . S
C2836 C2835 1.397 . S
C2836 C2837 1.334 . S
C2837 H2814 0.950 . S
C2837 C2836 1.334 . S
C2837 C2838 1.287 . S
C2838 C2837 1.287 . S
C2838 C2839 1.524 . S
C2838 H2857 0.913 . S
C2839 H2815 0.950 . S
C2839 C2838 1.524 . S
C2839 C2840 1.415 . S
C2840 H2816 0.950 . S
C2840 C2835 1.363 . S
C2840 C2839 1.415 . S
C2841 H2817 0.951 . S
C2841 C2842 1.366 . S
C2841 C2843 1.388 . S
C2842 C2841 1.366 . S
C2842 C2846 1.385 . S
C2843 H2818 0.951 . S
C2843 C2841 1.388 . S
C2843 C2844 1.366 . S
C2844 C2843 1.366 . S
C2844 C2845 1.414 . S
C2844 C2847 1.499 1_655 S
C2845 H2819 0.950 1_655 S
C2845 C2844 1.414 . S
C2845 C2846 1.374 . S
C2846 H2820 0.950 . S
C2846 C2842 1.385 . S
C2846 C2845 1.374 . S
C2847 C2844 1.499 1_455 S
C2847 C2848 1.373 . S
C2847 C2849 1.389 . S
C2848 H2821 0.950 . S
C2848 C2834 1.377 . S
C2848 C2847 1.373 . S
C2849 C2833 1.377 . S
C2849 C2847 1.389 . S
C2849 C2850 1.524 1_455 S
C2850 C2849 1.524 1_655 S
C2850 C2851 1.397 . S
C2850 C2855 1.363 . S
C2851 H2822 0.950 . S
C2851 C2850 1.397 . S
C2851 C2852 1.334 . S
C2852 H2823 0.950 . S
C2852 C2851 1.334 . S
C2852 C2853 1.287 . S
C2853 C2852 1.287 . S
C2853 C2854 1.524 . S
C2853 H2856 0.999 . S
C2854 H2824 0.950 . S
C2854 C2853 1.524 . S
C2854 C2855 1.415 . S
C2855 H2825 0.950 . S
C2855 C2850 1.363 . S
C2855 C2854 1.415 . S
H2856 C2853 0.999 . S
H2857 C2838 0.913 . S
H2858 C2876 0.951 . S
H2859 C2878 0.951 . S
H2860 C2880 0.950 . S
H2861 C2881 0.950 . S
H2862 C2883 0.950 . S
H2863 C2886 0.950 . S
H2864 C2887 0.950 . S
H2865 C2889 0.950 . S
H2866 C2890 0.950 . S
H2867 C2891 0.951 . S
H2868 C2893 0.951 . S
H2869 C2895 0.950 . S
H2870 C2896 0.950 . S
H2871 C2898 0.950 . S
H2872 C2901 0.950 . S
H2873 C2902 0.950 . S
H2874 C2904 0.950 . S
H2875 C2905 0.950 . S
C2876 H2858 0.951 . S
C2876 C2877 1.366 . S
C2876 C2878 1.388 . S
C2877 C2876 1.366 . S
C2877 C2881 1.385 . S
C2878 H2859 0.951 . S
C2878 C2876 1.388 . S
C2878 C2879 1.366 . S
C2879 C2878 1.366 . S
C2879 C2880 1.414 . S
C2879 C2882 1.499 . S
C2880 H2860 0.950 . S
C2880 C2879 1.414 . S
C2880 C2881 1.374 . S
C2881 H2861 0.950 . S
C2881 C2877 1.385 . S
C2881 C2880 1.374 . S
C2882 C2879 1.499 . S
C2882 C2883 1.373 1_556 S
C2882 C2884 1.389 . S
C2883 H2862 0.950 . S
C2883 C2882 1.373 1_554 S
C2883 C2899 1.377 . S
C2884 C2882 1.389 . S
C2884 C2885 1.524 . S
C2884 C2898 1.377 . S
C2885 C2884 1.524 . S
C2885 C2886 1.397 . S
C2885 C2890 1.363 . S
C2886 H2863 0.950 . S
C2886 C2885 1.397 . S
C2886 C2887 1.334 . S
C2887 H2864 0.950 . S
C2887 C2886 1.334 . S
C2887 C2888 1.287 . S
C2888 C2887 1.287 . S
C2888 C2889 1.524 . S
C2888 H2907 0.913 . S
C2889 H2865 0.950 . S
C2889 C2888 1.524 . S
C2889 C2890 1.415 . S
C2890 H2866 0.950 . S
C2890 C2885 1.363 . S
C2890 C2889 1.415 . S
C2891 H2867 0.951 . S
C2891 C2892 1.366 . S
C2891 C2893 1.388 . S
C2892 C2891 1.366 . S
C2892 C2896 1.385 . S
C2893 H2868 0.951 . S
C2893 C2891 1.388 . S
C2893 C2894 1.366 . S
C2894 C2893 1.366 . S
C2894 C2895 1.414 . S
C2894 C2897 1.499 . S
C2895 H2869 0.950 . S
C2895 C2894 1.414 . S
C2895 C2896 1.374 . S
C2896 H2870 0.950 . S
C2896 C2892 1.385 . S
C2896 C2895 1.374 . S
C2897 C2894 1.499 . S
C2897 C2898 1.373 1_554 S
C2897 C2899 1.389 . S
C2898 H2871 0.950 . S
C2898 C2884 1.377 . S
C2898 C2897 1.373 1_556 S
C2899 C2883 1.377 . S
C2899 C2897 1.389 . S
C2899 C2900 1.524 . S
C2900 C2899 1.524 . S
C2900 C2901 1.397 . S
C2900 C2905 1.363 . S
C2901 H2872 0.950 . S
C2901 C2900 1.397 . S
C2901 C2902 1.334 . S
C2902 H2873 0.950 . S
C2902 C2901 1.334 . S
C2902 C2903 1.287 . S
C2903 C2902 1.287 . S
C2903 C2904 1.524 . S
C2903 H2906 0.999 . S
C2904 H2874 0.950 . S
C2904 C2903 1.524 . S
C2904 C2905 1.415 . S
C2905 H2875 0.950 . S
C2905 C2900 1.363 . S
C2905 C2904 1.415 . S
H2906 C2903 0.999 . S
H2907 C2888 0.913 . S
H2908 C2926 0.951 . S
H2909 C2928 0.951 . S
H2910 C2930 0.950 . S
H2911 C2931 0.950 . S
H2912 C2933 0.950 . S
H2913 C2936 0.950 . S
H2914 C2937 0.950 . S
H2915 C2939 0.950 . S
H2916 C2940 0.950 . S
H2917 C2941 0.951 . S
H2918 C2943 0.951 . S
H2919 C2945 0.950 . S
H2920 C2946 0.950 . S
H2921 C2948 0.950 . S
H2922 C2951 0.950 . S
H2923 C2952 0.950 . S
H2924 C2954 0.950 . S
H2925 C2955 0.950 . S
C2926 H2908 0.951 . S
C2926 C2927 1.366 . S
C2926 C2928 1.388 . S
C2927 C2926 1.366 . S
C2927 C2931 1.385 . S
C2928 H2909 0.951 . S
C2928 C2926 1.388 . S
C2928 C2929 1.366 . S
C2929 C2928 1.366 . S
C2929 C2930 1.414 . S
C2929 C2932 1.499 . S
C2930 H2910 0.950 . S
C2930 C2929 1.414 . S
C2930 C2931 1.374 . S
C2931 H2911 0.950 . S
C2931 C2927 1.385 . S
C2931 C2930 1.374 . S
C2932 C2929 1.499 . S
C2932 C2933 1.373 . S
C2932 C2934 1.389 . S
C2933 H2912 0.950 . S
C2933 C2932 1.373 . S
C2933 C2949 1.377 . S
C2934 C2932 1.389 . S
C2934 C2935 1.524 . S
C2934 C2948 1.377 . S
C2935 C2934 1.524 . S
C2935 C2936 1.397 . S
C2935 C2940 1.363 . S
C2936 H2913 0.950 . S
C2936 C2935 1.397 . S
C2936 C2937 1.334 . S
C2937 H2914 0.950 . S
C2937 C2936 1.334 . S
C2937 C2938 1.287 . S
C2938 C2937 1.287 . S
C2938 C2939 1.524 . S
C2938 H2957 0.913 . S
C2939 H2915 0.950 . S
C2939 C2938 1.524 . S
C2939 C2940 1.415 . S
C2940 H2916 0.950 . S
C2940 C2935 1.363 . S
C2940 C2939 1.415 . S
C2941 H2917 0.951 . S
C2941 C2942 1.366 . S
C2941 C2943 1.388 . S
C2942 C2941 1.366 . S
C2942 C2946 1.385 . S
C2943 H2918 0.951 . S
C2943 C2941 1.388 . S
C2943 C2944 1.366 . S
C2944 C2943 1.366 . S
C2944 C2945 1.414 . S
C2944 C2947 1.499 . S
C2945 H2919 0.950 . S
C2945 C2944 1.414 . S
C2945 C2946 1.374 . S
C2946 H2920 0.950 . S
C2946 C2942 1.385 . S
C2946 C2945 1.374 . S
C2947 C2944 1.499 . S
C2947 C2948 1.373 . S
C2947 C2949 1.389 . S
C2948 H2921 0.950 . S
C2948 C2934 1.377 . S
C2948 C2947 1.373 . S
C2949 C2933 1.377 . S
C2949 C2947 1.389 . S
C2949 C2950 1.524 . S
C2950 C2949 1.524 . S
C2950 C2951 1.397 . S
C2950 C2955 1.363 . S
C2951 H2922 0.950 . S
C2951 C2950 1.397 . S
C2951 C2952 1.334 . S
C2952 H2923 0.950 . S
C2952 C2951 1.334 . S
C2952 C2953 1.287 . S
C2953 C2952 1.287 . S
C2953 C2954 1.524 . S
C2953 H2956 0.999 . S
C2954 H2924 0.950 . S
C2954 C2953 1.524 . S
C2954 C2955 1.415 . S
C2955 H2925 0.950 . S
C2955 C2950 1.363 . S
C2955 C2954 1.415 . S
H2956 C2953 0.999 . S
H2957 C2938 0.913 . S
H2958 C2976 0.951 . S
H2959 C2978 0.951 . S
H2960 C2980 0.950 . S
H2961 C2981 0.950 . S
H2962 C2983 0.950 . S
H2963 C2986 0.950 . S
H2964 C2987 0.950 . S
H2965 C2989 0.950 . S
H2966 C2990 0.950 . S
H2967 C2991 0.951 . S
H2968 C2993 0.951 . S
H2969 C2995 0.950 . S
H2970 C2996 0.950 . S
H2971 C2998 0.950 . S
H2972 C3001 0.950 1_554 S
H2973 C3002 0.950 . S
H2974 C3004 0.950 . S
H2975 C3005 0.950 1_554 S
C2976 H2958 0.951 . S
C2976 C2977 1.366 . S
C2976 C2978 1.388 . S
C2977 C2976 1.366 . S
C2977 C2981 1.385 . S
C2978 H2959 0.951 . S
C2978 C2976 1.388 . S
C2978 C2979 1.366 . S
C2979 C2978 1.366 . S
C2979 C2980 1.414 . S
C2979 C2982 1.499 . S
C2980 H2960 0.950 . S
C2980 C2979 1.414 . S
C2980 C2981 1.374 . S
C2981 H2961 0.950 . S
C2981 C2977 1.385 . S
C2981 C2980 1.374 . S
C2982 C2979 1.499 . S
C2982 C2983 1.373 . S
C2982 C2984 1.389 . S
C2983 H2962 0.950 . S
C2983 C2982 1.373 . S
C2983 C2999 1.377 . S
C2984 C2982 1.389 . S
C2984 C2985 1.524 . S
C2984 C2998 1.377 . S
C2985 C2984 1.524 . S
C2985 C2986 1.397 . S
C2985 C2990 1.363 . S
C2986 H2963 0.950 . S
C2986 C2985 1.397 . S
C2986 C2987 1.334 . S
C2987 H2964 0.950 . S
C2987 C2986 1.334 . S
C2987 C2988 1.287 . S
C2988 C2987 1.287 . S
C2988 C2989 1.524 . S
C2988 H3007 0.913 . S
C2989 H2965 0.950 . S
C2989 C2988 1.524 . S
C2989 C2990 1.415 . S
C2990 H2966 0.950 . S
C2990 C2985 1.363 . S
C2990 C2989 1.415 . S
C2991 H2967 0.951 . S
C2991 C2992 1.366 . S
C2991 C2993 1.388 . S
C2992 C2991 1.366 . S
C2992 C2996 1.385 . S
C2993 H2968 0.951 . S
C2993 C2991 1.388 . S
C2993 C2994 1.366 . S
C2994 C2993 1.366 . S
C2994 C2995 1.414 . S
C2994 C2997 1.499 . S
C2995 H2969 0.950 . S
C2995 C2994 1.414 . S
C2995 C2996 1.374 . S
C2996 H2970 0.950 . S
C2996 C2992 1.385 . S
C2996 C2995 1.374 . S
C2997 C2994 1.499 . S
C2997 C2998 1.373 . S
C2997 C2999 1.389 . S
C2998 H2971 0.950 . S
C2998 C2984 1.377 . S
C2998 C2997 1.373 . S
C2999 C2983 1.377 . S
C2999 C2997 1.389 . S
C2999 C3000 1.524 . S
C3000 C2999 1.524 . S
C3000 C3001 1.397 1_554 S
C3000 C3005 1.363 1_554 S
C3001 H2972 0.950 1_556 S
C3001 C3000 1.397 1_556 S
C3001 C3002 1.334 . S
C3002 H2973 0.950 . S
C3002 C3001 1.334 . S
C3002 C3003 1.287 . S
C3003 C3002 1.287 . S
C3003 C3004 1.524 . S
C3003 H3006 0.999 . S
C3004 H2974 0.950 . S
C3004 C3003 1.524 . S
C3004 C3005 1.415 . S
C3005 H2975 0.950 1_556 S
C3005 C3000 1.363 1_556 S
C3005 C3004 1.415 . S
H3006 C3003 0.999 . S
H3007 C2988 0.913 . S
H3008 C3026 0.951 . S
H3009 C3028 0.951 . S
H3010 C3030 0.950 . S
H3011 C3031 0.950 . S
H3012 C3033 0.950 . S
H3013 C3036 0.950 . S
H3014 C3037 0.950 . S
H3015 C3039 0.950 . S
H3016 C3040 0.950 . S
H3017 C3041 0.951 . S
H3018 C3043 0.951 . S
H3019 C3045 0.950 . S
H3020 C3046 0.950 . S
H3021 C3048 0.950 . S
H3022 C3051 0.950 . S
H3023 C3052 0.950 . S
H3024 C3054 0.950 . S
H3025 C3055 0.950 . S
C3026 H3008 0.951 . S
C3026 C3027 1.366 . S
C3026 C3028 1.388 . S
C3027 C3026 1.366 . S
C3027 C3031 1.385 . S
C3028 H3009 0.951 . S
C3028 C3026 1.388 . S
C3028 C3029 1.366 . S
C3029 C3028 1.366 . S
C3029 C3030 1.414 . S
C3029 C3032 1.499 . S
C3030 H3010 0.950 . S
C3030 C3029 1.414 . S
C3030 C3031 1.374 . S
C3031 H3011 0.950 . S
C3031 C3027 1.385 . S
C3031 C3030 1.374 . S
C3032 C3029 1.499 . S
C3032 C3033 1.373 . S
C3032 C3034 1.389 . S
C3033 H3012 0.950 . S
C3033 C3032 1.373 . S
C3033 C3049 1.377 . S
C3034 C3032 1.389 . S
C3034 C3035 1.524 . S
C3034 C3048 1.377 . S
C3035 C3034 1.524 . S
C3035 C3036 1.397 . S
C3035 C3040 1.363 . S
C3036 H3013 0.950 . S
C3036 C3035 1.397 . S
C3036 C3037 1.334 . S
C3037 H3014 0.950 . S
C3037 C3036 1.334 . S
C3037 C3038 1.287 . S
C3038 C3037 1.287 . S
C3038 C3039 1.524 . S
C3038 H3057 0.913 . S
C3039 H3015 0.950 . S
C3039 C3038 1.524 . S
C3039 C3040 1.415 . S
C3040 H3016 0.950 . S
C3040 C3035 1.363 . S
C3040 C3039 1.415 . S
C3041 H3017 0.951 . S
C3041 C3042 1.366 . S
C3041 C3043 1.388 1_655 S
C3042 C3041 1.366 . S
C3042 C3046 1.385 . S
C3043 H3018 0.951 . S
C3043 C3041 1.388 1_455 S
C3043 C3044 1.366 . S
C3044 C3043 1.366 . S
C3044 C3045 1.414 1_455 S
C3044 C3047 1.499 . S
C3045 H3019 0.950 . S
C3045 C3044 1.414 1_655 S
C3045 C3046 1.374 . S
C3046 H3020 0.950 . S
C3046 C3042 1.385 . S
C3046 C3045 1.374 . S
C3047 C3044 1.499 . S
C3047 C3048 1.373 . S
C3047 C3049 1.389 . S
C3048 H3021 0.950 . S
C3048 C3034 1.377 . S
C3048 C3047 1.373 . S
C3049 C3033 1.377 . S
C3049 C3047 1.389 . S
C3049 C3050 1.524 . S
C3050 C3049 1.524 . S
C3050 C3051 1.397 . S
C3050 C3055 1.363 . S
C3051 H3022 0.950 . S
C3051 C3050 1.397 . S
C3051 C3052 1.334 . S
C3052 H3023 0.950 . S
C3052 C3051 1.334 . S
C3052 C3053 1.287 . S
C3053 C3052 1.287 . S
C3053 C3054 1.524 . S
C3053 H3056 1.013 . S
C3054 H3024 0.950 . S
C3054 C3053 1.524 . S
C3054 C3055 1.415 . S
C3055 H3025 0.950 . S
C3055 C3050 1.363 . S
C3055 C3054 1.415 . S
H3056 C3053 1.013 . S
H3057 C3038 0.913 . S
H3058 C3076 0.951 . S
H3059 C3078 0.951 . S
H3060 C3080 0.950 . S
H3061 C3081 0.950 . S
H3062 C3083 0.950 . S
H3063 C3086 0.950 . S
H3064 C3087 0.950 . S
H3065 C3089 0.950 . S
H3066 C3090 0.950 . S
H3067 C3091 0.951 . S
H3068 C3093 0.951 . S
H3069 C3095 0.950 1_655 S
H3070 C3096 0.950 . S
H3071 C3098 0.950 . S
H3072 C3101 0.950 . S
H3073 C3102 0.950 . S
H3074 C3104 0.950 . S
H3075 C3105 0.950 . S
C3076 H3058 0.951 . S
C3076 C3077 1.366 . S
C3076 C3078 1.388 . S
C3077 C3076 1.366 . S
C3077 C3081 1.385 . S
C3078 H3059 0.951 . S
C3078 C3076 1.388 . S
C3078 C3079 1.366 . S
C3079 C3078 1.366 . S
C3079 C3080 1.414 . S
C3079 C3082 1.499 . S
C3080 H3060 0.950 . S
C3080 C3079 1.414 . S
C3080 C3081 1.374 . S
C3081 H3061 0.950 . S
C3081 C3077 1.385 . S
C3081 C3080 1.374 . S
C3082 C3079 1.499 . S
C3082 C3083 1.373 . S
C3082 C3084 1.389 . S
C3083 H3062 0.950 . S
C3083 C3082 1.373 . S
C3083 C3099 1.377 . S
C3084 C3082 1.389 . S
C3084 C3085 1.524 . S
C3084 C3098 1.377 . S
C3085 C3084 1.524 . S
C3085 C3086 1.397 . S
C3085 C3090 1.363 . S
C3086 H3063 0.950 . S
C3086 C3085 1.397 . S
C3086 C3087 1.334 . S
C3087 H3064 0.950 . S
C3087 C3086 1.334 . S
C3087 C3088 1.287 . S
C3088 C3087 1.287 . S
C3088 C3089 1.524 . S
C3088 H3107 0.913 . S
C3089 H3065 0.950 . S
C3089 C3088 1.524 . S
C3089 C3090 1.415 . S
C3090 H3066 0.950 . S
C3090 C3085 1.363 . S
C3090 C3089 1.415 . S
C3091 H3067 0.951 . S
C3091 C3092 1.366 . S
C3091 C3093 1.388 . S
C3092 C3091 1.366 . S
C3092 C3096 1.385 . S
C3093 H3068 0.951 . S
C3093 C3091 1.388 . S
C3093 C3094 1.366 . S
C3094 C3093 1.366 . S
C3094 C3095 1.414 . S
C3094 C3097 1.499 1_455 S
C3095 H3069 0.950 1_455 S
C3095 C3094 1.414 . S
C3095 C3096 1.374 . S
C3096 H3070 0.950 . S
C3096 C3092 1.385 . S
C3096 C3095 1.374 . S
C3097 C3094 1.499 1_655 S
C3097 C3098 1.373 . S
C3097 C3099 1.389 . S
C3098 H3071 0.950 . S
C3098 C3084 1.377 . S
C3098 C3097 1.373 . S
C3099 C3083 1.377 . S
C3099 C3097 1.389 . S
C3099 C3100 1.524 1_655 S
C3100 C3099 1.524 1_455 S
C3100 C3101 1.397 . S
C3100 C3105 1.363 . S
C3101 H3072 0.950 . S
C3101 C3100 1.397 . S
C3101 C3102 1.334 . S
C3102 H3073 0.950 . S
C3102 C3101 1.334 . S
C3102 C3103 1.287 . S
C3103 C3102 1.287 . S
C3103 C3104 1.524 . S
C3103 H3106 0.999 . S
C3104 H3074 0.950 . S
C3104 C3103 1.524 . S
C3104 C3105 1.415 . S
C3105 H3075 0.950 . S
C3105 C3100 1.363 . S
C3105 C3104 1.415 . S
H3106 C3103 0.999 . S
H3107 C3088 0.913 . S
H3108 C3126 0.951 . S
H3109 C3128 0.951 . S
H3110 C3130 0.950 . S
H3111 C3131 0.950 . S
H3112 C3133 0.950 . S
H3113 C3136 0.950 . S
H3114 C3137 0.950 . S
H3115 C3139 0.950 . S
H3116 C3140 0.950 . S
H3117 C3141 0.951 . S
H3118 C3143 0.951 . S
H3119 C3145 0.950 . S
H3120 C3146 0.950 . S
H3121 C3148 0.950 . S
H3122 C3151 0.950 . S
H3123 C3152 0.950 . S
H3124 C3154 0.950 . S
H3125 C3155 0.950 . S
C3126 H3108 0.951 . S
C3126 C3127 1.366 . S
C3126 C3128 1.388 . S
C3127 C3126 1.366 . S
C3127 C3131 1.385 . S
C3128 H3109 0.951 . S
C3128 C3126 1.388 . S
C3128 C3129 1.366 . S
C3129 C3128 1.366 . S
C3129 C3130 1.414 . S
C3129 C3132 1.499 . S
C3130 H3110 0.950 . S
C3130 C3129 1.414 . S
C3130 C3131 1.374 . S
C3131 H3111 0.950 . S
C3131 C3127 1.385 . S
C3131 C3130 1.374 . S
C3132 C3129 1.499 . S
C3132 C3133 1.373 . S
C3132 C3134 1.389 . S
C3133 H3112 0.950 . S
C3133 C3132 1.373 . S
C3133 C3149 1.377 . S
C3134 C3132 1.389 . S
C3134 C3135 1.524 . S
C3134 C3148 1.377 . S
C3135 C3134 1.524 . S
C3135 C3136 1.397 . S
C3135 C3140 1.363 . S
C3136 H3113 0.950 . S
C3136 C3135 1.397 . S
C3136 C3137 1.334 . S
C3137 H3114 0.950 . S
C3137 C3136 1.334 . S
C3137 C3138 1.287 . S
C3138 C3137 1.287 . S
C3138 C3139 1.524 . S
C3138 H3157 0.913 . S
C3139 H3115 0.950 . S
C3139 C3138 1.524 . S
C3139 C3140 1.415 . S
C3140 H3116 0.950 . S
C3140 C3135 1.363 . S
C3140 C3139 1.415 . S
C3141 H3117 0.951 . S
C3141 C3142 1.366 . S
C3141 C3143 1.388 . S
C3142 C3141 1.366 . S
C3142 C3146 1.385 . S
C3143 H3118 0.951 . S
C3143 C3141 1.388 . S
C3143 C3144 1.366 . S
C3144 C3143 1.366 . S
C3144 C3145 1.414 . S
C3144 C3147 1.499 . S
C3145 H3119 0.950 . S
C3145 C3144 1.414 . S
C3145 C3146 1.374 . S
C3146 H3120 0.950 . S
C3146 C3142 1.385 . S
C3146 C3145 1.374 . S
C3147 C3144 1.499 . S
C3147 C3148 1.373 . S
C3147 C3149 1.389 . S
C3148 H3121 0.950 . S
C3148 C3134 1.377 . S
C3148 C3147 1.373 . S
C3149 C3133 1.377 . S
C3149 C3147 1.389 . S
C3149 C3150 1.524 . S
C3150 C3149 1.524 . S
C3150 C3151 1.397 . S
C3150 C3155 1.363 . S
C3151 H3122 0.950 . S
C3151 C3150 1.397 . S
C3151 C3152 1.334 . S
C3152 H3123 0.950 . S
C3152 C3151 1.334 . S
C3152 C3153 1.287 . S
C3153 C3152 1.287 . S
C3153 C3154 1.524 . S
C3153 H3156 0.999 . S
C3154 H3124 0.950 . S
C3154 C3153 1.524 . S
C3154 C3155 1.415 . S
C3155 H3125 0.950 . S
C3155 C3150 1.363 . S
C3155 C3154 1.415 . S
H3156 C3153 0.999 . S
H3157 C3138 0.913 . S
H3158 C3176 0.951 . S
H3159 C3178 0.951 . S
H3160 C3180 0.950 . S
H3161 C3181 0.950 . S
H3162 C3183 0.950 . S
H3163 C3186 0.950 . S
H3164 C3187 0.950 . S
H3165 C3189 0.950 . S
H3166 C3190 0.950 . S
H3167 C3191 0.951 . S
H3168 C3193 0.951 . S
H3169 C3195 0.950 . S
H3170 C3196 0.950 . S
H3171 C3198 0.950 . S
H3172 C3201 0.950 . S
H3173 C3202 0.950 . S
H3174 C3204 0.950 . S
H3175 C3205 0.950 . S
C3176 H3158 0.951 . S
C3176 C3177 1.366 . S
C3176 C3178 1.388 . S
C3177 C3176 1.366 . S
C3177 C3181 1.385 . S
C3178 H3159 0.951 . S
C3178 C3176 1.388 . S
C3178 C3179 1.366 . S
C3179 C3178 1.366 . S
C3179 C3180 1.414 . S
C3179 C3182 1.499 . S
C3180 H3160 0.950 . S
C3180 C3179 1.414 . S
C3180 C3181 1.374 . S
C3181 H3161 0.950 . S
C3181 C3177 1.385 . S
C3181 C3180 1.374 . S
C3182 C3179 1.499 . S
C3182 C3183 1.373 . S
C3182 C3184 1.389 . S
C3183 H3162 0.950 . S
C3183 C3182 1.373 . S
C3183 C3199 1.377 . S
C3184 C3182 1.389 . S
C3184 C3185 1.524 . S
C3184 C3198 1.377 . S
C3185 C3184 1.524 . S
C3185 C3186 1.397 . S
C3185 C3190 1.363 . S
C3186 H3163 0.950 . S
C3186 C3185 1.397 . S
C3186 C3187 1.334 . S
C3187 H3164 0.950 . S
C3187 C3186 1.334 . S
C3187 C3188 1.287 . S
C3188 C3187 1.287 . S
C3188 C3189 1.524 . S
C3188 H3207 0.913 . S
C3189 H3165 0.950 . S
C3189 C3188 1.524 . S
C3189 C3190 1.415 . S
C3190 H3166 0.950 . S
C3190 C3185 1.363 . S
C3190 C3189 1.415 . S
C3191 H3167 0.951 . S
C3191 C3192 1.366 . S
C3191 C3193 1.388 . S
C3192 C3191 1.366 . S
C3192 C3196 1.385 . S
C3193 H3168 0.951 . S
C3193 C3191 1.388 . S
C3193 C3194 1.366 . S
C3194 C3193 1.366 . S
C3194 C3195 1.414 . S
C3194 C3197 1.499 . S
C3195 H3169 0.950 . S
C3195 C3194 1.414 . S
C3195 C3196 1.374 . S
C3196 H3170 0.950 . S
C3196 C3192 1.385 . S
C3196 C3195 1.374 . S
C3197 C3194 1.499 . S
C3197 C3198 1.373 . S
C3197 C3199 1.389 . S
C3198 H3171 0.950 . S
C3198 C3184 1.377 . S
C3198 C3197 1.373 . S
C3199 C3183 1.377 . S
C3199 C3197 1.389 . S
C3199 C3200 1.524 . S
C3200 C3199 1.524 . S
C3200 C3201 1.397 . S
C3200 C3205 1.363 . S
C3201 H3172 0.950 . S
C3201 C3200 1.397 . S
C3201 C3202 1.334 . S
C3202 H3173 0.950 . S
C3202 C3201 1.334 . S
C3202 C3203 1.287 . S
C3203 C3202 1.287 . S
C3203 C3204 1.524 . S
C3203 H3206 0.999 . S
C3204 H3174 0.950 . S
C3204 C3203 1.524 . S
C3204 C3205 1.415 . S
C3205 H3175 0.950 . S
C3205 C3200 1.363 . S
C3205 C3204 1.415 . S
H3206 C3203 0.999 . S
H3207 C3188 0.913 . S
H3208 C3226 0.951 . S
H3209 C3228 0.951 . S
H3210 C3230 0.950 . S
H3211 C3231 0.950 . S
H3212 C3233 0.950 . S
H3213 C3236 0.950 . S
H3214 C3237 0.950 . S
H3215 C3239 0.950 . S
H3216 C3240 0.950 . S
H3217 C3241 0.951 . S
H3218 C3243 0.951 . S
H3219 C3245 0.950 . S
H3220 C3246 0.950 . S
H3221 C3248 0.950 . S
H3222 C3251 0.950 . S
H3223 C3252 0.950 . S
H3224 C3254 0.950 . S
H3225 C3255 0.950 . S
C3226 H3208 0.951 . S
C3226 C3227 1.366 . S
C3226 C3228 1.388 . S
C3227 C3226 1.366 . S
C3227 C3231 1.385 . S
C3228 H3209 0.951 . S
C3228 C3226 1.388 . S
C3228 C3229 1.366 . S
C3229 C3228 1.366 . S
C3229 C3230 1.414 . S
C3229 C3232 1.499 . S
C3230 H3210 0.950 . S
C3230 C3229 1.414 . S
C3230 C3231 1.374 . S
C3231 H3211 0.950 . S
C3231 C3227 1.385 . S
C3231 C3230 1.374 . S
C3232 C3229 1.499 . S
C3232 C3233 1.373 . S
C3232 C3234 1.389 . S
C3233 H3212 0.950 . S
C3233 C3232 1.373 . S
C3233 C3249 1.377 . S
C3234 C3232 1.389 . S
C3234 C3235 1.524 . S
C3234 C3248 1.377 . S
C3235 C3234 1.524 . S
C3235 C3236 1.397 . S
C3235 C3240 1.363 . S
C3236 H3213 0.950 . S
C3236 C3235 1.397 . S
C3236 C3237 1.334 . S
C3237 H3214 0.950 . S
C3237 C3236 1.334 . S
C3237 C3238 1.287 . S
C3238 C3237 1.287 . S
C3238 C3239 1.524 . S
C3238 H3257 0.913 . S
C3239 H3215 0.950 . S
C3239 C3238 1.524 . S
C3239 C3240 1.415 . S
C3240 H3216 0.950 . S
C3240 C3235 1.363 . S
C3240 C3239 1.415 . S
C3241 H3217 0.951 . S
C3241 C3242 1.366 . S
C3241 C3243 1.388 . S
C3242 C3241 1.366 . S
C3242 C3246 1.385 . S
C3243 H3218 0.951 . S
C3243 C3241 1.388 . S
C3243 C3244 1.366 . S
C3244 C3243 1.366 . S
C3244 C3245 1.414 . S
C3244 C3247 1.499 . S
C3245 H3219 0.950 . S
C3245 C3244 1.414 . S
C3245 C3246 1.374 . S
C3246 H3220 0.950 . S
C3246 C3242 1.385 . S
C3246 C3245 1.374 . S
C3247 C3244 1.499 . S
C3247 C3248 1.373 . S
C3247 C3249 1.389 . S
C3248 H3221 0.950 . S
C3248 C3234 1.377 . S
C3248 C3247 1.373 . S
C3249 C3233 1.377 . S
C3249 C3247 1.389 . S
C3249 C3250 1.524 . S
C3250 C3249 1.524 . S
C3250 C3251 1.397 . S
C3250 C3255 1.363 . S
C3251 H3222 0.950 . S
C3251 C3250 1.397 . S
C3251 C3252 1.334 . S
C3252 H3223 0.950 . S
C3252 C3251 1.334 . S
C3252 C3253 1.287 . S
C3253 C3252 1.287 . S
C3253 C3254 1.524 . S
C3253 H3256 0.999 . S
C3254 H3224 0.950 . S
C3254 C3253 1.524 . S
C3254 C3255 1.415 . S
C3255 H3225 0.950 . S
C3255 C3250 1.363 . S
C3255 C3254 1.415 . S
H3256 C3253 0.999 . S
H3257 C3238 0.913 . S
H3258 C3276 0.951 . S
H3259 C3278 0.951 . S
H3260 C3280 0.950 . S
H3261 C3281 0.950 . S
H3262 C3283 0.950 . S
H3263 C3286 0.950 . S
H3264 C3287 0.950 . S
H3265 C3289 0.950 . S
H3266 C3290 0.950 . S
H3267 C3291 0.951 . S
H3268 C3293 0.951 . S
H3269 C3295 0.950 . S
H3270 C3296 0.950 . S
H3271 C3298 0.950 . S
H3272 C3301 0.950 . S
H3273 C3302 0.950 . S
H3274 C3304 0.950 . S
H3275 C3305 0.950 . S
C3276 H3258 0.951 . S
C3276 C3277 1.366 . S
C3276 C3278 1.388 1_545 S
C3277 C3276 1.366 . S
C3277 C3281 1.385 1_545 S
C3278 H3259 0.951 . S
C3278 C3276 1.388 1_565 S
C3278 C3279 1.366 . S
C3279 C3278 1.366 . S
C3279 C3280 1.414 . S
C3279 C3282 1.499 . S
C3280 H3260 0.950 . S
C3280 C3279 1.414 . S
C3280 C3281 1.374 . S
C3281 H3261 0.950 . S
C3281 C3277 1.385 1_565 S
C3281 C3280 1.374 . S
C3282 C3279 1.499 . S
C3282 C3283 1.373 . S
C3282 C3284 1.389 . S
C3283 H3262 0.950 . S
C3283 C3282 1.373 . S
C3283 C3299 1.377 . S
C3284 C3282 1.389 . S
C3284 C3285 1.524 . S
C3284 C3298 1.377 . S
C3285 C3284 1.524 . S
C3285 C3286 1.397 . S
C3285 C3290 1.363 . S
C3286 H3263 0.950 . S
C3286 C3285 1.397 . S
C3286 C3287 1.334 . S
C3287 H3264 0.950 . S
C3287 C3286 1.334 . S
C3287 C3288 1.287 . S
C3288 C3287 1.287 . S
C3288 C3289 1.524 . S
C3288 H3307 0.913 . S
C3289 H3265 0.950 . S
C3289 C3288 1.524 . S
C3289 C3290 1.415 . S
C3290 H3266 0.950 . S
C3290 C3285 1.363 . S
C3290 C3289 1.415 . S
C3291 H3267 0.951 . S
C3291 C3292 1.366 . S
C3291 C3293 1.388 . S
C3292 C3291 1.366 . S
C3292 C3296 1.385 . S
C3293 H3268 0.951 . S
C3293 C3291 1.388 . S
C3293 C3294 1.366 . S
C3294 C3293 1.366 . S
C3294 C3295 1.414 . S
C3294 C3297 1.499 . S
C3295 H3269 0.950 . S
C3295 C3294 1.414 . S
C3295 C3296 1.374 . S
C3296 H3270 0.950 . S
C3296 C3292 1.385 . S
C3296 C3295 1.374 . S
C3297 C3294 1.499 . S
C3297 C3298 1.373 . S
C3297 C3299 1.389 . S
C3298 H3271 0.950 . S
C3298 C3284 1.377 . S
C3298 C3297 1.373 . S
C3299 C3283 1.377 . S
C3299 C3297 1.389 . S
C3299 C3300 1.524 . S
C3300 C3299 1.524 . S
C3300 C3301 1.397 . S
C3300 C3305 1.363 . S
C3301 H3272 0.950 . S
C3301 C3300 1.397 . S
C3301 C3302 1.334 . S
C3302 H3273 0.950 . S
C3302 C3301 1.334 . S
C3302 C3303 1.287 . S
C3303 C3302 1.287 . S
C3303 C3304 1.524 . S
C3303 H3306 0.999 . S
C3304 H3274 0.950 . S
C3304 C3303 1.524 . S
C3304 C3305 1.415 . S
C3305 H3275 0.950 . S
C3305 C3300 1.363 . S
C3305 C3304 1.415 . S
H3306 C3303 0.999 . S
H3307 C3288 0.913 . S
H3308 C3326 0.951 . S
H3309 C3328 0.951 . S
H3310 C3330 0.950 . S
H3311 C3331 0.950 . S
H3312 C3333 0.950 . S
H3313 C3336 0.950 . S
H3314 C3337 0.950 . S
H3315 C3339 0.950 . S
H3316 C3340 0.950 . S
H3317 C3341 0.951 . S
H3318 C3343 0.951 . S
H3319 C3345 0.950 . S
H3320 C3346 0.950 . S
H3321 C3348 0.950 . S
H3322 C3351 0.950 . S
H3323 C3352 0.950 . S
H3324 C3354 0.950 . S
H3325 C3355 0.950 . S
C3326 H3308 0.951 . S
C3326 C3327 1.366 . S
C3326 C3328 1.388 . S
C3327 C3326 1.366 . S
C3327 C3331 1.385 . S
C3328 H3309 0.951 . S
C3328 C3326 1.388 . S
C3328 C3329 1.366 . S
C3329 C3328 1.366 . S
C3329 C3330 1.414 . S
C3329 C3332 1.499 . S
C3330 H3310 0.950 . S
C3330 C3329 1.414 . S
C3330 C3331 1.374 . S
C3331 H3311 0.950 . S
C3331 C3327 1.385 . S
C3331 C3330 1.374 . S
C3332 C3329 1.499 . S
C3332 C3333 1.373 . S
C3332 C3334 1.389 . S
C3333 H3312 0.950 . S
C3333 C3332 1.373 . S
C3333 C3349 1.377 . S
C3334 C3332 1.389 . S
C3334 C3335 1.524 . S
C3334 C3348 1.377 . S
C3335 C3334 1.524 . S
C3335 C3336 1.397 . S
C3335 C3340 1.363 . S
C3336 H3313 0.950 . S
C3336 C3335 1.397 . S
C3336 C3337 1.334 . S
C3337 H3314 0.950 . S
C3337 C3336 1.334 . S
C3337 C3338 1.287 . S
C3338 C3337 1.287 . S
C3338 C3339 1.524 . S
C3338 H3357 0.913 . S
C3339 H3315 0.950 . S
C3339 C3338 1.524 . S
C3339 C3340 1.415 . S
C3340 H3316 0.950 . S
C3340 C3335 1.363 . S
C3340 C3339 1.415 . S
C3341 H3317 0.951 . S
C3341 C3342 1.366 . S
C3341 C3343 1.388 . S
C3342 C3341 1.366 . S
C3342 C3346 1.385 . S
C3343 H3318 0.951 . S
C3343 C3341 1.388 . S
C3343 C3344 1.366 . S
C3344 C3343 1.366 . S
C3344 C3345 1.414 . S
C3344 C3347 1.499 . S
C3345 H3319 0.950 . S
C3345 C3344 1.414 . S
C3345 C3346 1.374 . S
C3346 H3320 0.950 . S
C3346 C3342 1.385 . S
C3346 C3345 1.374 . S
C3347 C3344 1.499 . S
C3347 C3348 1.373 . S
C3347 C3349 1.389 . S
C3348 H3321 0.950 . S
C3348 C3334 1.377 . S
C3348 C3347 1.373 . S
C3349 C3333 1.377 . S
C3349 C3347 1.389 . S
C3349 C3350 1.524 . S
C3350 C3349 1.524 . S
C3350 C3351 1.397 . S
C3350 C3355 1.363 . S
C3351 H3322 0.950 . S
C3351 C3350 1.397 . S
C3351 C3352 1.334 . S
C3352 H3323 0.950 . S
C3352 C3351 1.334 . S
C3352 C3353 1.287 . S
C3353 C3352 1.287 . S
C3353 C3354 1.524 . S
C3353 H3356 0.999 . S
C3354 H3324 0.950 . S
C3354 C3353 1.524 . S
C3354 C3355 1.415 . S
C3355 H3325 0.950 . S
C3355 C3350 1.363 . S
C3355 C3354 1.415 . S
H3356 C3353 0.999 . S
H3357 C3338 0.913 . S
H3358 C3376 0.951 . S
H3359 C3378 0.951 . S
H3360 C3380 0.950 . S
H3361 C3381 0.950 . S
H3362 C3383 0.950 . S
H3363 C3386 0.950 . S
H3364 C3387 0.950 . S
H3365 C3389 0.950 . S
H3366 C3390 0.950 . S
H3367 C3391 0.951 1_655 S
H3368 C3393 0.951 . S
H3369 C3395 0.950 . S
H3370 C3396 0.950 . S
H3371 C3398 0.950 . S
H3372 C3401 0.950 . S
H3373 C3402 0.950 . S
H3374 C3404 0.950 1_655 S
H3375 C3405 0.950 . S
C3376 H3358 0.951 . S
C3376 C3377 1.366 . S
C3376 C3378 1.388 . S
C3377 C3376 1.366 . S
C3377 C3381 1.385 . S
C3378 H3359 0.951 . S
C3378 C3376 1.388 . S
C3378 C3379 1.366 . S
C3379 C3378 1.366 . S
C3379 C3380 1.414 . S
C3379 C3382 1.499 . S
C3380 H3360 0.950 . S
C3380 C3379 1.414 . S
C3380 C3381 1.374 . S
C3381 H3361 0.950 . S
C3381 C3377 1.385 . S
C3381 C3380 1.374 . S
C3382 C3379 1.499 . S
C3382 C3383 1.373 . S
C3382 C3384 1.389 . S
C3383 H3362 0.950 . S
C3383 C3382 1.373 . S
C3383 C3399 1.377 . S
C3384 C3382 1.389 . S
C3384 C3385 1.524 . S
C3384 C3398 1.377 . S
C3385 C3384 1.524 . S
C3385 C3386 1.397 . S
C3385 C3390 1.363 . S
C3386 H3363 0.950 . S
C3386 C3385 1.397 . S
C3386 C3387 1.334 . S
C3387 H3364 0.950 . S
C3387 C3386 1.334 . S
C3387 C3388 1.287 . S
C3388 C3387 1.287 . S
C3388 C3389 1.524 . S
C3388 H3407 0.913 . S
C3389 H3365 0.950 . S
C3389 C3388 1.524 . S
C3389 C3390 1.415 . S
C3390 H3366 0.950 . S
C3390 C3385 1.363 . S
C3390 C3389 1.415 . S
C3391 H3367 0.951 1_455 S
C3391 C3392 1.366 . S
C3391 C3393 1.388 . S
C3392 C3391 1.366 . S
C3392 C3396 1.385 . S
C3393 H3368 0.951 . S
C3393 C3391 1.388 . S
C3393 C3394 1.366 . S
C3394 C3393 1.366 . S
C3394 C3395 1.414 . S
C3394 C3397 1.499 . S
C3395 H3369 0.950 . S
C3395 C3394 1.414 . S
C3395 C3396 1.374 . S
C3396 H3370 0.950 . S
C3396 C3392 1.385 . S
C3396 C3395 1.374 . S
C3397 C3394 1.499 . S
C3397 C3398 1.373 . S
C3397 C3399 1.389 . S
C3398 H3371 0.950 . S
C3398 C3384 1.377 . S
C3398 C3397 1.373 . S
C3399 C3383 1.377 . S
C3399 C3397 1.389 . S
C3399 C3400 1.524 . S
C3400 C3399 1.524 . S
C3400 C3401 1.397 . S
C3400 C3405 1.363 . S
C3401 H3372 0.950 . S
C3401 C3400 1.397 . S
C3401 C3402 1.334 . S
C3402 H3373 0.950 . S
C3402 C3401 1.334 . S
C3402 C3403 1.287 . S
C3403 C3402 1.287 . S
C3403 C3404 1.524 . S
C3403 H3406 0.999 . S
C3404 H3374 0.950 1_455 S
C3404 C3403 1.524 . S
C3404 C3405 1.415 . S
C3405 H3375 0.950 . S
C3405 C3400 1.363 . S
C3405 C3404 1.415 . S
H3406 C3403 0.999 . S
H3407 C3388 0.913 . S
H3408 C3426 0.951 . S
H3409 C3428 0.951 . S
H3410 C3430 0.950 . S
H3411 C3431 0.950 . S
H3412 C3433 0.950 . S
H3413 C3436 0.950 . S
H3414 C3437 0.950 . S
H3415 C3439 0.950 . S
H3416 C3440 0.950 . S
H3417 C3441 0.951 . S
H3418 C3443 0.951 . S
H3419 C3445 0.950 . S
H3420 C3446 0.950 . S
H3421 C3448 0.950 . S
H3422 C3451 0.950 . S
H3423 C3452 0.950 . S
H3424 C3454 0.950 . S
H3425 C3455 0.950 . S
C3426 H3408 0.951 . S
C3426 C3427 1.366 . S
C3426 C3428 1.388 . S
C3427 C3426 1.366 . S
C3427 C3431 1.385 . S
C3428 H3409 0.951 . S
C3428 C3426 1.388 . S
C3428 C3429 1.366 . S
C3429 C3428 1.366 . S
C3429 C3430 1.414 . S
C3429 C3432 1.499 . S
C3430 H3410 0.950 . S
C3430 C3429 1.414 . S
C3430 C3431 1.374 . S
C3431 H3411 0.950 . S
C3431 C3427 1.385 . S
C3431 C3430 1.374 . S
C3432 C3429 1.499 . S
C3432 C3433 1.373 . S
C3432 C3434 1.389 . S
C3433 H3412 0.950 . S
C3433 C3432 1.373 . S
C3433 C3449 1.377 . S
C3434 C3432 1.389 . S
C3434 C3435 1.524 . S
C3434 C3448 1.377 . S
C3435 C3434 1.524 . S
C3435 C3436 1.397 . S
C3435 C3440 1.363 . S
C3436 H3413 0.950 . S
C3436 C3435 1.397 . S
C3436 C3437 1.334 . S
C3437 H3414 0.950 . S
C3437 C3436 1.334 . S
C3437 C3438 1.287 . S
C3438 C3437 1.287 . S
C3438 C3439 1.524 . S
C3438 H3457 0.913 . S
C3439 H3415 0.950 . S
C3439 C3438 1.524 . S
C3439 C3440 1.415 . S
C3440 H3416 0.950 . S
C3440 C3435 1.363 . S
C3440 C3439 1.415 . S
C3441 H3417 0.951 . S
C3441 C3442 1.366 . S
C3441 C3443 1.388 . S
C3442 C3441 1.366 . S
C3442 C3446 1.385 . S
C3443 H3418 0.951 . S
C3443 C3441 1.388 . S
C3443 C3444 1.366 . S
C3444 C3443 1.366 . S
C3444 C3445 1.414 . S
C3444 C3447 1.499 . S
C3445 H3419 0.950 . S
C3445 C3444 1.414 . S
C3445 C3446 1.374 . S
C3446 H3420 0.950 . S
C3446 C3442 1.385 . S
C3446 C3445 1.374 . S
C3447 C3444 1.499 . S
C3447 C3448 1.373 . S
C3447 C3449 1.389 . S
C3448 H3421 0.950 . S
C3448 C3434 1.377 . S
C3448 C3447 1.373 . S
C3449 C3433 1.377 . S
C3449 C3447 1.389 . S
C3449 C3450 1.524 . S
C3450 C3449 1.524 . S
C3450 C3451 1.397 . S
C3450 C3455 1.363 . S
C3451 H3422 0.950 . S
C3451 C3450 1.397 . S
C3451 C3452 1.334 . S
C3452 H3423 0.950 . S
C3452 C3451 1.334 . S
C3452 C3453 1.287 . S
C3453 C3452 1.287 . S
C3453 C3454 1.524 . S
C3453 H3456 0.999 . S
C3454 H3424 0.950 . S
C3454 C3453 1.524 . S
C3454 C3455 1.415 . S
C3455 H3425 0.950 . S
C3455 C3450 1.363 . S
C3455 C3454 1.415 . S
H3456 C3453 0.999 . S
H3457 C3438 0.913 . S
H3458 C3476 0.954 . S
H3459 C3478 0.951 . S
H3460 C3480 0.950 . S
H3461 C3481 0.950 . S
H3462 C3483 0.950 . S
H3463 C3486 0.950 . S
H3464 C3487 0.950 . S
H3465 C3489 0.950 . S
H3466 C3490 0.950 . S
H3467 C3491 0.951 1_455 S
H3468 C3493 0.951 1_455 S
H3469 C3495 0.950 . S
H3470 C3496 0.950 . S
H3471 C3498 0.950 . S
H3472 C3501 0.950 . S
H3473 C3502 0.950 . S
H3474 C3504 0.950 . S
H3475 C3505 0.950 . S
C3476 H3458 0.954 . S
C3476 C3477 1.366 1_565 S
C3476 C3478 1.388 . S
C3477 C3476 1.366 1_545 S
C3477 C3481 1.385 . S
C3478 H3459 0.951 . S
C3478 C3476 1.388 . S
C3478 C3479 1.366 . S
C3479 C3478 1.366 . S
C3479 C3480 1.414 . S
C3479 C3482 1.499 . S
C3480 H3460 0.950 . S
C3480 C3479 1.414 . S
C3480 C3481 1.374 1_565 S
C3481 H3461 0.950 . S
C3481 C3477 1.385 . S
C3481 C3480 1.374 1_545 S
C3482 C3479 1.499 . S
C3482 C3483 1.373 . S
C3482 C3484 1.389 . S
C3483 H3462 0.950 . S
C3483 C3482 1.373 . S
C3483 C3499 1.377 . S
C3484 C3482 1.389 . S
C3484 C3485 1.524 . S
C3484 C3498 1.377 . S
C3485 C3484 1.524 . S
C3485 C3486 1.397 . S
C3485 C3490 1.363 . S
C3486 H3463 0.950 . S
C3486 C3485 1.397 . S
C3486 C3487 1.334 . S
C3487 H3464 0.950 . S
C3487 C3486 1.334 . S
C3487 C3488 1.287 . S
C3488 C3487 1.287 . S
C3488 C3489 1.524 . S
C3488 H3507 0.913 . S
C3489 H3465 0.950 . S
C3489 C3488 1.524 . S
C3489 C3490 1.415 . S
C3490 H3466 0.950 . S
C3490 C3485 1.363 . S
C3490 C3489 1.415 . S
C3491 H3467 0.951 1_655 S
C3491 C3492 1.366 . S
C3491 C3493 1.388 . S
C3492 C3491 1.366 . S
C3492 C3496 1.385 . S
C3493 H3468 0.951 1_655 S
C3493 C3491 1.388 . S
C3493 C3494 1.366 . S
C3494 C3493 1.366 . S
C3494 C3495 1.414 . S
C3494 C3497 1.499 . S
C3495 H3469 0.950 . S
C3495 C3494 1.414 . S
C3495 C3496 1.374 . S
C3496 H3470 0.950 . S
C3496 C3492 1.385 . S
C3496 C3495 1.374 . S
C3497 C3494 1.499 . S
C3497 C3498 1.373 . S
C3497 C3499 1.389 . S
C3498 H3471 0.950 . S
C3498 C3484 1.377 . S
C3498 C3497 1.373 . S
C3499 C3483 1.377 . S
C3499 C3497 1.389 . S
C3499 C3500 1.524 . S
C3500 C3499 1.524 . S
C3500 C3501 1.397 . S
C3500 C3505 1.363 1_655 S
C3501 H3472 0.950 . S
C3501 C3500 1.397 . S
C3501 C3502 1.334 1_655 S
C3502 H3473 0.950 . S
C3502 C3501 1.334 1_455 S
C3502 C3503 1.287 . S
C3503 C3502 1.287 . S
C3503 C3504 1.524 . S
C3503 H3506 0.999 . S
C3504 H3474 0.950 . S
C3504 C3503 1.524 . S
C3504 C3505 1.415 . S
C3505 H3475 0.950 . S
C3505 C3500 1.363 1_455 S
C3505 C3504 1.415 . S
H3506 C3503 0.999 . S
H3507 C3488 0.913 . S
H3508 C3526 0.951 . S
H3509 C3528 0.951 . S
H3510 C3530 0.950 . S
H3511 C3531 0.950 . S
H3512 C3533 0.950 . S
H3513 C3536 0.950 . S
H3514 C3537 0.950 . S
H3515 C3539 0.950 . S
H3516 C3540 0.950 . S
H3517 C3541 0.951 . S
H3518 C3543 0.951 . S
H3519 C3545 0.950 . S
H3520 C3546 0.950 . S
H3521 C3548 0.950 . S
H3522 C3551 0.950 . S
H3523 C3552 0.950 . S
H3524 C3554 0.950 . S
H3525 C3555 0.950 . S
C3526 H3508 0.951 . S
C3526 C3527 1.366 . S
C3526 C3528 1.388 . S
C3527 C3526 1.366 . S
C3527 C3531 1.385 . S
C3528 H3509 0.951 . S
C3528 C3526 1.388 . S
C3528 C3529 1.366 . S
C3529 C3528 1.366 . S
C3529 C3530 1.414 . S
C3529 C3532 1.499 . S
C3530 H3510 0.950 . S
C3530 C3529 1.414 . S
C3530 C3531 1.374 . S
C3531 H3511 0.950 . S
C3531 C3527 1.385 . S
C3531 C3530 1.374 . S
C3532 C3529 1.499 . S
C3532 C3533 1.373 . S
C3532 C3534 1.389 . S
C3533 H3512 0.950 . S
C3533 C3532 1.373 . S
C3533 C3549 1.377 . S
C3534 C3532 1.389 . S
C3534 C3535 1.524 . S
C3534 C3548 1.377 . S
C3535 C3534 1.524 . S
C3535 C3536 1.397 . S
C3535 C3540 1.363 . S
C3536 H3513 0.950 . S
C3536 C3535 1.397 . S
C3536 C3537 1.334 . S
C3537 H3514 0.950 . S
C3537 C3536 1.334 . S
C3537 C3538 1.287 . S
C3538 C3537 1.287 . S
C3538 C3539 1.524 . S
C3538 H3557 0.913 . S
C3539 H3515 0.950 . S
C3539 C3538 1.524 . S
C3539 C3540 1.415 . S
C3540 H3516 0.950 . S
C3540 C3535 1.363 . S
C3540 C3539 1.415 . S
C3541 H3517 0.951 . S
C3541 C3542 1.366 . S
C3541 C3543 1.388 . S
C3542 C3541 1.366 . S
C3542 C3546 1.385 . S
C3543 H3518 0.951 . S
C3543 C3541 1.388 . S
C3543 C3544 1.366 . S
C3544 C3543 1.366 . S
C3544 C3545 1.414 . S
C3544 C3547 1.499 . S
C3545 H3519 0.950 . S
C3545 C3544 1.414 . S
C3545 C3546 1.374 . S
C3546 H3520 0.950 . S
C3546 C3542 1.385 . S
C3546 C3545 1.374 . S
C3547 C3544 1.499 . S
C3547 C3548 1.373 . S
C3547 C3549 1.389 . S
C3548 H3521 0.950 . S
C3548 C3534 1.377 . S
C3548 C3547 1.373 . S
C3549 C3533 1.377 . S
C3549 C3547 1.389 . S
C3549 C3550 1.524 . S
C3550 C3549 1.524 . S
C3550 C3551 1.397 . S
C3550 C3555 1.363 . S
C3551 H3522 0.950 . S
C3551 C3550 1.397 . S
C3551 C3552 1.334 . S
C3552 H3523 0.950 . S
C3552 C3551 1.334 . S
C3552 C3553 1.287 . S
C3553 C3552 1.287 . S
C3553 C3554 1.524 . S
C3553 H3556 0.999 . S
C3554 H3524 0.950 . S
C3554 C3553 1.524 . S
C3554 C3555 1.415 . S
C3555 H3525 0.950 . S
C3555 C3550 1.363 . S
C3555 C3554 1.415 . S
H3556 C3553 0.999 . S
H3557 C3538 0.913 . S
H3558 C3576 0.951 . S
H3559 C3578 0.951 . S
H3560 C3580 0.950 . S
H3561 C3581 0.950 . S
H3562 C3583 0.950 . S
H3563 C3586 0.950 . S
H3564 C3587 0.950 . S
H3565 C3589 0.950 . S
H3566 C3590 0.950 . S
H3567 C3591 0.951 . S
H3568 C3593 0.951 . S
H3569 C3595 0.950 . S
H3570 C3596 0.950 1_556 S
H3571 C3598 0.950 . S
H3572 C3601 0.950 . S
H3573 C3602 0.950 . S
H3574 C3604 0.950 . S
H3575 C3605 0.950 . S
C3576 H3558 0.951 . S
C3576 C3577 1.366 . S
C3576 C3578 1.388 . S
C3577 C3576 1.366 . S
C3577 C3581 1.385 . S
C3578 H3559 0.951 . S
C3578 C3576 1.388 . S
C3578 C3579 1.366 . S
C3579 C3578 1.366 . S
C3579 C3580 1.414 . S
C3579 C3582 1.499 . S
C3580 H3560 0.950 . S
C3580 C3579 1.414 . S
C3580 C3581 1.374 . S
C3581 H3561 0.950 . S
C3581 C3577 1.385 . S
C3581 C3580 1.374 . S
C3582 C3579 1.499 . S
C3582 C3583 1.373 . S
C3582 C3584 1.389 . S
C3583 H3562 0.950 . S
C3583 C3582 1.373 . S
C3583 C3599 1.377 . S
C3584 C3582 1.389 . S
C3584 C3585 1.524 . S
C3584 C3598 1.377 . S
C3585 C3584 1.524 . S
C3585 C3586 1.397 . S
C3585 C3590 1.363 1_554 S
C3586 H3563 0.950 . S
C3586 C3585 1.397 . S
C3586 C3587 1.334 . S
C3587 H3564 0.950 . S
C3587 C3586 1.334 . S
C3587 C3588 1.287 1_554 S
C3588 C3587 1.287 1_556 S
C3588 C3589 1.524 . S
C3588 H3607 0.913 . S
C3589 H3565 0.950 . S
C3589 C3588 1.524 . S
C3589 C3590 1.415 . S
C3590 H3566 0.950 . S
C3590 C3585 1.363 1_556 S
C3590 C3589 1.415 . S
C3591 H3567 0.951 . S
C3591 C3592 1.366 . S
C3591 C3593 1.388 . S
C3592 C3591 1.366 . S
C3592 C3596 1.385 . S
C3593 H3568 0.951 . S
C3593 C3591 1.388 . S
C3593 C3594 1.366 . S
C3594 C3593 1.366 . S
C3594 C3595 1.414 . S
C3594 C3597 1.499 . S
C3595 H3569 0.950 . S
C3595 C3594 1.414 . S
C3595 C3596 1.374 . S
C3596 H3570 0.950 1_554 S
C3596 C3592 1.385 . S
C3596 C3595 1.374 . S
C3597 C3594 1.499 . S
C3597 C3598 1.373 . S
C3597 C3599 1.389 . S
C3598 H3571 0.950 . S
C3598 C3584 1.377 . S
C3598 C3597 1.373 . S
C3599 C3583 1.377 . S
C3599 C3597 1.389 . S
C3599 C3600 1.524 . S
C3600 C3599 1.524 . S
C3600 C3601 1.397 . S
C3600 C3605 1.363 . S
C3601 H3572 0.950 . S
C3601 C3600 1.397 . S
C3601 C3602 1.334 . S
C3602 H3573 0.950 . S
C3602 C3601 1.334 . S
C3602 C3603 1.287 . S
C3603 C3602 1.287 . S
C3603 C3604 1.524 . S
C3603 H3606 0.999 . S
C3604 H3574 0.950 . S
C3604 C3603 1.524 . S
C3604 C3605 1.415 . S
C3605 H3575 0.950 . S
C3605 C3600 1.363 . S
C3605 C3604 1.415 . S
H3606 C3603 0.999 . S
H3607 C3588 0.913 . S
H3608 C3626 0.951 . S
H3609 C3628 0.951 . S
H3610 C3630 0.950 . S
H3611 C3631 0.950 . S
H3612 C3633 0.950 . S
H3613 C3636 0.950 . S
H3614 C3637 0.950 . S
H3615 C3639 0.950 . S
H3616 C3640 0.950 . S
H3617 C3641 0.951 . S
H3618 C3643 0.951 . S
H3619 C3645 0.950 . S
H3620 C3646 0.950 . S
H3621 C3648 0.950 . S
H3622 C3651 0.950 . S
H3623 C3652 0.950 . S
H3624 C3654 0.950 . S
H3625 C3655 0.950 . S
C3626 H3608 0.951 . S
C3626 C3627 1.366 . S
C3626 C3628 1.388 . S
C3627 C3626 1.366 . S
C3627 C3631 1.385 . S
C3628 H3609 0.951 . S
C3628 C3626 1.388 . S
C3628 C3629 1.366 . S
C3629 C3628 1.366 . S
C3629 C3630 1.414 . S
C3629 C3632 1.499 . S
C3630 H3610 0.950 . S
C3630 C3629 1.414 . S
C3630 C3631 1.374 . S
C3631 H3611 0.950 . S
C3631 C3627 1.385 . S
C3631 C3630 1.374 . S
C3632 C3629 1.499 . S
C3632 C3633 1.373 . S
C3632 C3634 1.389 . S
C3633 H3612 0.950 . S
C3633 C3632 1.373 . S
C3633 C3649 1.377 . S
C3634 C3632 1.389 . S
C3634 C3635 1.524 . S
C3634 C3648 1.377 . S
C3635 C3634 1.524 . S
C3635 C3636 1.397 . S
C3635 C3640 1.363 . S
C3636 H3613 0.950 . S
C3636 C3635 1.397 . S
C3636 C3637 1.334 . S
C3637 H3614 0.950 . S
C3637 C3636 1.334 . S
C3637 C3638 1.287 . S
C3638 C3637 1.287 . S
C3638 C3639 1.524 . S
C3638 H3657 0.913 . S
C3639 H3615 0.950 . S
C3639 C3638 1.524 . S
C3639 C3640 1.415 . S
C3640 H3616 0.950 . S
C3640 C3635 1.363 . S
C3640 C3639 1.415 . S
C3641 H3617 0.951 . S
C3641 C3642 1.366 . S
C3641 C3643 1.388 . S
C3642 C3641 1.366 . S
C3642 C3646 1.385 . S
C3643 H3618 0.951 . S
C3643 C3641 1.388 . S
C3643 C3644 1.366 . S
C3644 C3643 1.366 . S
C3644 C3645 1.414 . S
C3644 C3647 1.499 . S
C3645 H3619 0.950 . S
C3645 C3644 1.414 . S
C3645 C3646 1.374 . S
C3646 H3620 0.950 . S
C3646 C3642 1.385 . S
C3646 C3645 1.374 . S
C3647 C3644 1.499 . S
C3647 C3648 1.373 . S
C3647 C3649 1.389 . S
C3648 H3621 0.950 . S
C3648 C3634 1.377 . S
C3648 C3647 1.373 . S
C3649 C3633 1.377 . S
C3649 C3647 1.389 . S
C3649 C3650 1.524 . S
C3650 C3649 1.524 . S
C3650 C3651 1.397 . S
C3650 C3655 1.363 . S
C3651 H3622 0.950 . S
C3651 C3650 1.397 . S
C3651 C3652 1.334 . S
C3652 H3623 0.950 . S
C3652 C3651 1.334 . S
C3652 C3653 1.287 . S
C3653 C3652 1.287 . S
C3653 C3654 1.524 . S
C3653 H3656 0.999 . S
C3654 H3624 0.950 . S
C3654 C3653 1.524 . S
C3654 C3655 1.415 . S
C3655 H3625 0.950 . S
C3655 C3650 1.363 . S
C3655 C3654 1.415 . S
H3656 C3653 0.999 . S
H3657 C3638 0.913 . S
H3658 C3676 0.951 . S
H3659 C3678 0.951 . S
H3660 C3680 0.950 . S
H3661 C3681 0.950 . S
H3662 C3683 0.950 . S
H3663 C3686 0.950 . S
H3664 C3687 0.950 . S
H3665 C3689 0.950 . S
H3666 C3690 0.950 . S
H3667 C3691 0.951 . S
H3668 C3693 0.951 . S
H3669 C3695 0.950 . S
H3670 C3696 0.950 . S
H3671 C3698 0.950 . S
H3672 C3701 0.950 . S
H3673 C3702 0.950 . S
H3674 C3704 0.950 . S
H3675 C3705 0.950 . S
C3676 H3658 0.951 . S
C3676 C3677 1.366 . S
C3676 C3678 1.388 . S
C3677 C3676 1.366 . S
C3677 C3681 1.385 . S
C3678 H3659 0.951 . S
C3678 C3676 1.388 . S
C3678 C3679 1.366 . S
C3679 C3678 1.366 . S
C3679 C3680 1.414 . S
C3679 C3682 1.499 . S
C3680 H3660 0.950 . S
C3680 C3679 1.414 . S
C3680 C3681 1.374 . S
C3681 H3661 0.950 . S
C3681 C3677 1.385 . S
C3681 C3680 1.374 . S
C3682 C3679 1.499 . S
C3682 C3683 1.373 . S
C3682 C3684 1.389 . S
C3683 H3662 0.950 . S
C3683 C3682 1.373 . S
C3683 C3699 1.377 . S
C3684 C3682 1.389 . S
C3684 C3685 1.524 . S
C3684 C3698 1.377 . S
C3685 C3684 1.524 . S
C3685 C3686 1.397 . S
C3685 C3690 1.363 . S
C3686 H3663 0.950 . S
C3686 C3685 1.397 . S
C3686 C3687 1.334 . S
C3687 H3664 0.950 . S
C3687 C3686 1.334 . S
C3687 C3688 1.287 . S
C3688 C3687 1.287 . S
C3688 C3689 1.524 . S
C3688 H3707 0.913 . S
C3689 H3665 0.950 . S
C3689 C3688 1.524 . S
C3689 C3690 1.415 . S
C3690 H3666 0.950 . S
C3690 C3685 1.363 . S
C3690 C3689 1.415 . S
C3691 H3667 0.951 . S
C3691 C3692 1.366 . S
C3691 C3693 1.388 . S
C3692 C3691 1.366 . S
C3692 C3696 1.385 . S
C3693 H3668 0.951 . S
C3693 C3691 1.388 . S
C3693 C3694 1.366 . S
C3694 C3693 1.366 . S
C3694 C3695 1.414 . S
C3694 C3697 1.499 . S
C3695 H3669 0.950 . S
C3695 C3694 1.414 . S
C3695 C3696 1.374 . S
C3696 H3670 0.950 . S
C3696 C3692 1.385 . S
C3696 C3695 1.374 . S
C3697 C3694 1.499 . S
C3697 C3698 1.373 . S
C3697 C3699 1.389 . S
C3698 H3671 0.950 . S
C3698 C3684 1.377 . S
C3698 C3697 1.373 . S
C3699 C3683 1.377 . S
C3699 C3697 1.389 . S
C3699 C3700 1.524 . S
C3700 C3699 1.524 . S
C3700 C3701 1.397 1_554 S
C3700 C3705 1.363 . S
C3701 H3672 0.950 . S
C3701 C3700 1.397 1_556 S
C3701 C3702 1.334 . S
C3702 H3673 0.950 . S
C3702 C3701 1.334 . S
C3702 C3703 1.287 . S
C3703 C3702 1.287 . S
C3703 C3704 1.524 . S
C3703 H3706 0.999 . S
C3704 H3674 0.950 . S
C3704 C3703 1.524 . S
C3704 C3705 1.415 1_556 S
C3705 H3675 0.950 . S
C3705 C3700 1.363 . S
C3705 C3704 1.415 1_554 S
H3706 C3703 0.999 . S
H3707 C3688 0.913 . S
H3708 C3726 0.951 . S
H3709 C3728 0.951 . S
H3710 C3730 0.950 . S
H3711 C3731 0.950 . S
H3712 C3733 0.950 . S
H3713 C3736 0.950 . S
H3714 C3737 0.950 . S
H3715 C3739 0.950 . S
H3716 C3740 0.950 . S
H3717 C3741 0.951 . S
H3718 C3743 0.951 . S
H3719 C3745 0.950 . S
H3720 C3746 0.950 . S
H3721 C3748 0.950 . S
H3722 C3751 0.950 . S
H3723 C3752 0.950 . S
H3724 C3754 0.950 . S
H3725 C3755 0.950 . S
C3726 H3708 0.951 . S
C3726 C3727 1.366 . S
C3726 C3728 1.388 . S
C3727 C3726 1.366 . S
C3727 C3731 1.385 . S
C3728 H3709 0.951 . S
C3728 C3726 1.388 . S
C3728 C3729 1.366 . S
C3729 C3728 1.366 . S
C3729 C3730 1.414 . S
C3729 C3732 1.499 . S
C3730 H3710 0.950 . S
C3730 C3729 1.414 . S
C3730 C3731 1.374 . S
C3731 H3711 0.950 . S
C3731 C3727 1.385 . S
C3731 C3730 1.374 . S
C3732 C3729 1.499 . S
C3732 C3733 1.373 . S
C3732 C3734 1.389 . S
C3733 H3712 0.950 . S
C3733 C3732 1.373 . S
C3733 C3749 1.377 . S
C3734 C3732 1.389 . S
C3734 C3735 1.524 . S
C3734 C3748 1.377 . S
C3735 C3734 1.524 . S
C3735 C3736 1.397 . S
C3735 C3740 1.363 . S
C3736 H3713 0.950 . S
C3736 C3735 1.397 . S
C3736 C3737 1.334 . S
C3737 H3714 0.950 . S
C3737 C3736 1.334 . S
C3737 C3738 1.287 . S
C3738 C3737 1.287 . S
C3738 C3739 1.524 . S
C3738 H3757 0.913 . S
C3739 H3715 0.950 . S
C3739 C3738 1.524 . S
C3739 C3740 1.415 . S
C3740 H3716 0.950 . S
C3740 C3735 1.363 . S
C3740 C3739 1.415 . S
C3741 H3717 0.951 . S
C3741 C3742 1.366 . S
C3741 C3743 1.388 . S
C3742 C3741 1.366 . S
C3742 C3746 1.385 . S
C3743 H3718 0.951 . S
C3743 C3741 1.388 . S
C3743 C3744 1.366 . S
C3744 C3743 1.366 . S
C3744 C3745 1.414 . S
C3744 C3747 1.499 . S
C3745 H3719 0.950 . S
C3745 C3744 1.414 . S
C3745 C3746 1.374 . S
C3746 H3720 0.950 . S
C3746 C3742 1.385 . S
C3746 C3745 1.374 . S
C3747 C3744 1.499 . S
C3747 C3748 1.373 . S
C3747 C3749 1.389 . S
C3748 H3721 0.950 . S
C3748 C3734 1.377 . S
C3748 C3747 1.373 . S
C3749 C3733 1.377 . S
C3749 C3747 1.389 . S
C3749 C3750 1.524 . S
C3750 C3749 1.524 . S
C3750 C3751 1.397 . S
C3750 C3755 1.363 . S
C3751 H3722 0.950 . S
C3751 C3750 1.397 . S
C3751 C3752 1.334 . S
C3752 H3723 0.950 . S
C3752 C3751 1.334 . S
C3752 C3753 1.287 . S
C3753 C3752 1.287 . S
C3753 C3754 1.524 . S
C3753 H3756 0.999 . S
C3754 H3724 0.950 . S
C3754 C3753 1.524 . S
C3754 C3755 1.415 . S
C3755 H3725 0.950 . S
C3755 C3750 1.363 . S
C3755 C3754 1.415 . S
H3756 C3753 0.999 . S
H3757 C3738 0.913 . S
H3758 C3776 0.951 . S
H3759 C3778 0.951 . S
H3760 C3780 0.950 . S
H3761 C3781 0.943 1_655 S
H3762 C3783 0.950 . S
H3763 C3786 0.950 . S
H3764 C3787 0.950 . S
H3765 C3789 0.950 . S
H3766 C3790 0.950 1_554 S
H3767 C3791 0.951 . S
H3768 C3793 0.951 . S
H3769 C3795 0.938 1_554 S
H3770 C3796 0.950 1_554 S
H3771 C3798 0.950 . S
H3772 C3801 0.950 . S
H3773 C3802 0.950 . S
H3774 C3804 0.950 . S
H3775 C3805 0.950 . S
C3776 H3758 0.951 . S
C3776 C3777 1.366 . S
C3776 C3778 1.388 1_655 S
C3777 C3776 1.366 . S
C3777 C3781 1.385 1_655 S
C3778 H3759 0.951 . S
C3778 C3776 1.388 1_455 S
C3778 C3779 1.366 . S
C3779 C3778 1.366 . S
C3779 C3780 1.414 . S
C3779 C3782 1.499 . S
C3780 H3760 0.950 . S
C3780 C3779 1.414 . S
C3780 C3781 1.374 . S
C3781 H3761 0.943 1_455 S
C3781 C3777 1.385 1_455 S
C3781 C3780 1.374 . S
C3782 C3779 1.499 . S
C3782 C3783 1.373 . S
C3782 C3784 1.389 . S
C3783 H3762 0.950 . S
C3783 C3782 1.373 . S
C3783 C3799 1.377 . S
C3784 C3782 1.389 . S
C3784 C3785 1.524 . S
C3784 C3798 1.377 . S
C3785 C3784 1.524 . S
C3785 C3786 1.397 . S
C3785 C3790 1.363 . S
C3786 H3763 0.950 . S
C3786 C3785 1.397 . S
C3786 C3787 1.334 . S
C3787 H3764 0.950 . S
C3787 C3786 1.334 . S
C3787 C3788 1.287 . S
C3788 C3787 1.287 . S
C3788 C3789 1.524 1_556 S
C3788 H3807 0.913 . S
C3789 H3765 0.950 . S
C3789 C3788 1.524 1_554 S
C3789 C3790 1.415 1_554 S
C3790 H3766 0.950 1_556 S
C3790 C3785 1.363 . S
C3790 C3789 1.415 1_556 S
C3791 H3767 0.951 . S
C3791 C3792 1.366 . S
C3791 C3793 1.388 . S
C3792 C3791 1.366 . S
C3792 C3796 1.385 . S
C3793 H3768 0.951 . S
C3793 C3791 1.388 . S
C3793 C3794 1.366 . S
C3794 C3793 1.366 . S
C3794 C3795 1.414 . S
C3794 C3797 1.499 . S
C3795 H3769 0.938 1_556 S
C3795 C3794 1.414 . S
C3795 C3796 1.374 . S
C3796 H3770 0.950 1_556 S
C3796 C3792 1.385 . S
C3796 C3795 1.374 . S
C3797 C3794 1.499 . S
C3797 C3798 1.373 . S
C3797 C3799 1.389 . S
C3798 H3771 0.950 . S
C3798 C3784 1.377 . S
C3798 C3797 1.373 . S
C3799 C3783 1.377 . S
C3799 C3797 1.389 . S
C3799 C3800 1.524 . S
C3800 C3799 1.524 . S
C3800 C3801 1.397 . S
C3800 C3805 1.363 . S
C3801 H3772 0.950 . S
C3801 C3800 1.397 . S
C3801 C3802 1.334 . S
C3802 H3773 0.950 . S
C3802 C3801 1.334 . S
C3802 C3803 1.287 . S
C3803 C3802 1.287 . S
C3803 C3804 1.524 . S
C3803 H3806 0.999 . S
C3804 H3774 0.950 . S
C3804 C3803 1.524 . S
C3804 C3805 1.415 . S
C3805 H3775 0.950 . S
C3805 C3800 1.363 . S
C3805 C3804 1.415 . S
H3806 C3803 0.999 . S
H3807 C3788 0.913 . S
H3808 C3826 0.951 . S
H3809 C3828 0.951 . S
H3810 C3830 0.950 . S
H3811 C3831 0.950 . S
H3812 C3833 0.950 . S
H3813 C3836 0.950 . S
H3814 C3837 0.950 . S
H3815 C3839 0.950 . S
H3816 C3840 0.950 . S
H3817 C3841 0.951 . S
H3818 C3843 0.951 . S
H3819 C3845 0.950 . S
H3820 C3846 0.950 . S
H3821 C3848 0.950 . S
H3822 C3851 0.950 . S
H3823 C3852 0.950 . S
H3824 C3854 0.950 . S
H3825 C3855 0.950 . S
C3826 H3808 0.951 . S
C3826 C3827 1.366 . S
C3826 C3828 1.388 . S
C3827 C3826 1.366 . S
C3827 C3831 1.385 . S
C3828 H3809 0.951 . S
C3828 C3826 1.388 . S
C3828 C3829 1.366 . S
C3829 C3828 1.366 . S
C3829 C3830 1.414 . S
C3829 C3832 1.499 . S
C3830 H3810 0.950 . S
C3830 C3829 1.414 . S
C3830 C3831 1.374 . S
C3831 H3811 0.950 . S
C3831 C3827 1.385 . S
C3831 C3830 1.374 . S
C3832 C3829 1.499 . S
C3832 C3833 1.373 . S
C3832 C3834 1.389 . S
C3833 H3812 0.950 . S
C3833 C3832 1.373 . S
C3833 C3849 1.377 . S
C3834 C3832 1.389 . S
C3834 C3835 1.524 . S
C3834 C3848 1.377 . S
C3835 C3834 1.524 . S
C3835 C3836 1.397 . S
C3835 C3840 1.363 . S
C3836 H3813 0.950 . S
C3836 C3835 1.397 . S
C3836 C3837 1.334 . S
C3837 H3814 0.950 . S
C3837 C3836 1.334 . S
C3837 C3838 1.287 . S
C3838 C3837 1.287 . S
C3838 C3839 1.524 . S
C3838 H3857 0.913 . S
C3839 H3815 0.950 . S
C3839 C3838 1.524 . S
C3839 C3840 1.415 . S
C3840 H3816 0.950 . S
C3840 C3835 1.363 . S
C3840 C3839 1.415 . S
C3841 H3817 0.951 . S
C3841 C3842 1.366 . S
C3841 C3843 1.388 . S
C3842 C3841 1.366 . S
C3842 C3846 1.385 . S
C3843 H3818 0.951 . S
C3843 C3841 1.388 . S
C3843 C3844 1.366 . S
C3844 C3843 1.366 . S
C3844 C3845 1.414 . S
C3844 C3847 1.499 . S
C3845 H3819 0.950 . S
C3845 C3844 1.414 . S
C3845 C3846 1.374 . S
C3846 H3820 0.950 . S
C3846 C3842 1.385 . S
C3846 C3845 1.374 . S
C3847 C3844 1.499 . S
C3847 C3848 1.373 . S
C3847 C3849 1.389 . S
C3848 H3821 0.950 . S
C3848 C3834 1.377 . S
C3848 C3847 1.373 . S
C3849 C3833 1.377 . S
C3849 C3847 1.389 . S
C3849 C3850 1.524 . S
C3850 C3849 1.524 . S
C3850 C3851 1.397 . S
C3850 C3855 1.363 . S
C3851 H3822 0.950 . S
C3851 C3850 1.397 . S
C3851 C3852 1.334 . S
C3852 H3823 0.950 . S
C3852 C3851 1.334 . S
C3852 C3853 1.287 . S
C3853 C3852 1.287 . S
C3853 C3854 1.524 . S
C3853 H3856 0.999 . S
C3854 H3824 0.950 . S
C3854 C3853 1.524 . S
C3854 C3855 1.415 . S
C3855 H3825 0.950 . S
C3855 C3850 1.363 . S
C3855 C3854 1.415 . S
H3856 C3853 0.999 . S
H3857 C3838 0.913 . S
H3858 C3876 0.946 1_455 S
H3859 C3878 0.951 . S
H3860 C3880 0.950 . S
H3861 C3881 0.950 . S
H3862 C3883 0.950 . S
H3863 C3886 0.950 . S
H3864 C3887 0.950 . S
H3865 C3889 0.950 . S
H3866 C3890 0.950 . S
H3867 C3891 0.948 . S
H3868 C3893 0.951 1_554 S
H3869 C3895 0.950 . S
H3870 C3896 0.950 . S
H3871 C3898 0.950 . S
H3872 C3901 0.949 . S
H3873 C3902 0.950 . S
H3874 C3904 0.950 . S
H3875 C3905 0.950 . S
C3876 H3858 0.946 1_655 S
C3876 C3877 1.366 1_655 S
C3876 C3878 1.388 . S
C3877 C3876 1.366 1_455 S
C3877 C3881 1.385 . S
C3878 H3859 0.951 . S
C3878 C3876 1.388 . S
C3878 C3879 1.366 . S
C3879 C3878 1.366 . S
C3879 C3880 1.414 . S
C3879 C3882 1.499 . S
C3880 H3860 0.950 . S
C3880 C3879 1.414 . S
C3880 C3881 1.374 1_655 S
C3881 H3861 0.950 . S
C3881 C3877 1.385 . S
C3881 C3880 1.374 1_455 S
C3882 C3879 1.499 . S
C3882 C3883 1.373 . S
C3882 C3884 1.389 . S
C3883 H3862 0.950 . S
C3883 C3882 1.373 . S
C3883 C3899 1.377 . S
C3884 C3882 1.389 . S
C3884 C3885 1.524 . S
C3884 C3898 1.377 . S
C3885 C3884 1.524 . S
C3885 C3886 1.397 . S
C3885 C3890 1.363 . S
C3886 H3863 0.950 . S
C3886 C3885 1.397 . S
C3886 C3887 1.334 . S
C3887 H3864 0.950 . S
C3887 C3886 1.334 . S
C3887 C3888 1.287 . S
C3888 C3887 1.287 . S
C3888 C3889 1.524 . S
C3888 H3907 0.913 . S
C3889 H3865 0.950 . S
C3889 C3888 1.524 . S
C3889 C3890 1.415 . S
C3890 H3866 0.950 . S
C3890 C3885 1.363 . S
C3890 C3889 1.415 . S
C3891 H3867 0.948 . S
C3891 C3892 1.368 1_554 S
C3891 C3893 1.388 1_554 S
C3892 C3891 1.368 1_556 S
C3892 C3896 1.385 . S
C3893 H3868 0.951 1_556 S
C3893 C3891 1.388 1_556 S
C3893 C3894 1.366 . S
C3894 C3893 1.366 . S
C3894 C3895 1.414 . S
C3894 C3897 1.499 . S
C3895 H3869 0.950 . S
C3895 C3894 1.414 . S
C3895 C3896 1.374 . S
C3896 H3870 0.950 . S
C3896 C3892 1.385 . S
C3896 C3895 1.374 . S
C3897 C3894 1.499 . S
C3897 C3898 1.373 . S
C3897 C3899 1.389 . S
C3898 H3871 0.950 . S
C3898 C3884 1.377 . S
C3898 C3897 1.373 . S
C3899 C3883 1.377 . S
C3899 C3897 1.389 . S
C3899 C3900 1.524 1_556 S
C3900 C3899 1.524 1_554 S
C3900 C3901 1.397 1_554 S
C3900 C3905 1.363 . S
C3901 H3872 0.949 . S
C3901 C3900 1.397 1_556 S
C3901 C3902 1.334 1_556 S
C3902 H3873 0.950 . S
C3902 C3901 1.334 1_554 S
C3902 C3903 1.287 . S
C3903 C3902 1.287 . S
C3903 C3904 1.524 . S
C3903 H3906 0.999 . S
C3904 H3874 0.950 . S
C3904 C3903 1.524 . S
C3904 C3905 1.415 . S
C3905 H3875 0.950 . S
C3905 C3900 1.363 . S
C3905 C3904 1.415 . S
H3906 C3903 0.999 . S
H3907 C3888 0.913 . S
H3908 C3926 0.951 . S
H3909 C3928 0.951 . S
H3910 C3930 0.950 . S
H3911 C3931 0.950 . S
H3912 C3933 0.950 . S
H3913 C3936 0.950 . S
H3914 C3937 0.950 . S
H3915 C3939 0.950 . S
H3916 C3940 0.950 . S
H3917 C3941 0.951 . S
H3918 C3943 0.951 . S
H3919 C3945 0.950 . S
H3920 C3946 0.950 . S
H3921 C3948 0.950 . S
H3922 C3951 0.950 . S
H3923 C3952 0.950 . S
H3924 C3954 0.950 . S
H3925 C3955 0.950 . S
C3926 H3908 0.951 . S
C3926 C3927 1.366 . S
C3926 C3928 1.388 . S
C3927 C3926 1.366 . S
C3927 C3931 1.385 . S
C3928 H3909 0.951 . S
C3928 C3926 1.388 . S
C3928 C3929 1.366 . S
C3929 C3928 1.366 . S
C3929 C3930 1.414 . S
C3929 C3932 1.499 . S
C3930 H3910 0.950 . S
C3930 C3929 1.414 . S
C3930 C3931 1.374 . S
C3931 H3911 0.950 . S
C3931 C3927 1.385 . S
C3931 C3930 1.374 . S
C3932 C3929 1.499 . S
C3932 C3933 1.373 . S
C3932 C3934 1.389 . S
C3933 H3912 0.950 . S
C3933 C3932 1.373 . S
C3933 C3949 1.377 . S
C3934 C3932 1.389 . S
C3934 C3935 1.524 . S
C3934 C3948 1.377 . S
C3935 C3934 1.524 . S
C3935 C3936 1.397 . S
C3935 C3940 1.363 . S
C3936 H3913 0.950 . S
C3936 C3935 1.397 . S
C3936 C3937 1.334 . S
C3937 H3914 0.950 . S
C3937 C3936 1.334 . S
C3937 C3938 1.287 . S
C3938 C3937 1.287 . S
C3938 C3939 1.524 . S
C3938 H3957 0.913 . S
C3939 H3915 0.950 . S
C3939 C3938 1.524 . S
C3939 C3940 1.415 . S
C3940 H3916 0.950 . S
C3940 C3935 1.363 . S
C3940 C3939 1.415 . S
C3941 H3917 0.951 . S
C3941 C3942 1.366 . S
C3941 C3943 1.388 . S
C3942 C3941 1.366 . S
C3942 C3946 1.385 . S
C3943 H3918 0.951 . S
C3943 C3941 1.388 . S
C3943 C3944 1.366 . S
C3944 C3943 1.366 . S
C3944 C3945 1.414 . S
C3944 C3947 1.499 . S
C3945 H3919 0.950 . S
C3945 C3944 1.414 . S
C3945 C3946 1.374 . S
C3946 H3920 0.950 . S
C3946 C3942 1.385 . S
C3946 C3945 1.374 . S
C3947 C3944 1.499 . S
C3947 C3948 1.373 . S
C3947 C3949 1.389 . S
C3948 H3921 0.950 . S
C3948 C3934 1.377 . S
C3948 C3947 1.373 . S
C3949 C3933 1.377 . S
C3949 C3947 1.389 . S
C3949 C3950 1.524 . S
C3950 C3949 1.524 . S
C3950 C3951 1.397 . S
C3950 C3955 1.363 . S
C3951 H3922 0.950 . S
C3951 C3950 1.397 . S
C3951 C3952 1.334 . S
C3952 H3923 0.950 . S
C3952 C3951 1.334 . S
C3952 C3953 1.287 . S
C3953 C3952 1.287 . S
C3953 C3954 1.524 . S
C3953 H3956 0.999 . S
C3954 H3924 0.950 . S
C3954 C3953 1.524 . S
C3954 C3955 1.415 . S
C3955 H3925 0.950 . S
C3955 C3950 1.363 . S
C3955 C3954 1.415 . S
H3956 C3953 0.999 . S
H3957 C3938 0.913 . S
H3958 C3976 0.951 . S
H3959 C3978 0.951 . S
H3960 C3980 0.950 . S
H3961 C3981 0.950 . S
H3962 C3983 0.950 . S
H3963 C3986 0.950 . S
H3964 C3987 0.950 . S
H3965 C3989 0.950 . S
H3966 C3990 0.950 . S
H3967 C3991 0.951 . S
H3968 C3993 0.951 . S
H3969 C3995 0.950 . S
H3970 C3996 0.950 . S
H3971 C3998 0.950 . S
H3972 C4001 0.950 . S
H3973 C4002 0.950 . S
H3974 C4004 0.950 . S
H3975 C4005 0.950 . S
C3976 H3958 0.951 . S
C3976 C3977 1.366 . S
C3976 C3978 1.388 . S
C3977 C3976 1.366 . S
C3977 C3981 1.385 . S
C3978 H3959 0.951 . S
C3978 C3976 1.388 . S
C3978 C3979 1.366 . S
C3979 C3978 1.366 . S
C3979 C3980 1.414 . S
C3979 C3982 1.499 . S
C3980 H3960 0.950 . S
C3980 C3979 1.414 . S
C3980 C3981 1.374 . S
C3981 H3961 0.950 . S
C3981 C3977 1.385 . S
C3981 C3980 1.374 . S
C3982 C3979 1.499 . S
C3982 C3983 1.373 . S
C3982 C3984 1.389 . S
C3983 H3962 0.950 . S
C3983 C3982 1.373 . S
C3983 C3999 1.377 . S
C3984 C3982 1.389 . S
C3984 C3985 1.524 . S
C3984 C3998 1.377 . S
C3985 C3984 1.524 . S
C3985 C3986 1.397 . S
C3985 C3990 1.363 . S
C3986 H3963 0.950 . S
C3986 C3985 1.397 . S
C3986 C3987 1.334 . S
C3987 H3964 0.950 . S
C3987 C3986 1.334 . S
C3987 C3988 1.287 . S
C3988 C3987 1.287 . S
C3988 C3989 1.524 . S
C3988 H4007 0.913 . S
C3989 H3965 0.950 . S
C3989 C3988 1.524 . S
C3989 C3990 1.415 . S
C3990 H3966 0.950 . S
C3990 C3985 1.363 . S
C3990 C3989 1.415 . S
C3991 H3967 0.951 . S
C3991 C3992 1.366 . S
C3991 C3993 1.388 . S
C3992 C3991 1.366 . S
C3992 C3996 1.385 . S
C3993 H3968 0.951 . S
C3993 C3991 1.388 . S
C3993 C3994 1.366 . S
C3994 C3993 1.366 . S
C3994 C3995 1.414 . S
C3994 C3997 1.499 . S
C3995 H3969 0.950 . S
C3995 C3994 1.414 . S
C3995 C3996 1.374 . S
C3996 H3970 0.950 . S
C3996 C3992 1.385 . S
C3996 C3995 1.374 . S
C3997 C3994 1.499 . S
C3997 C3998 1.373 . S
C3997 C3999 1.389 . S
C3998 H3971 0.950 . S
C3998 C3984 1.377 . S
C3998 C3997 1.373 . S
C3999 C3983 1.377 . S
C3999 C3997 1.389 . S
C3999 C4000 1.524 . S
C4000 C3999 1.524 . S
C4000 C4001 1.397 . S
C4000 C4005 1.363 . S
C4001 H3972 0.950 . S
C4001 C4000 1.397 . S
C4001 C4002 1.334 . S
C4002 H3973 0.950 . S
C4002 C4001 1.334 . S
C4002 C4003 1.287 . S
C4003 C4002 1.287 . S
C4003 C4004 1.524 . S
C4003 H4006 0.999 . S
C4004 H3974 0.950 . S
C4004 C4003 1.524 . S
C4004 C4005 1.415 . S
C4005 H3975 0.950 . S
C4005 C4000 1.363 . S
C4005 C4004 1.415 . S
H4006 C4003 0.999 . S
H4007 C3988 0.913 . S
H4008 C4026 0.957 . S
H4009 C4028 0.951 . S
H4010 C4030 0.950 . S
H4011 C4031 0.950 . S
H4012 C4033 0.950 . S
H4013 C4036 0.950 . S
H4014 C4037 0.950 . S
H4015 C4039 0.950 . S
H4016 C4040 0.950 . S
H4017 C4041 0.951 . S
H4018 C4043 0.951 . S
H4019 C4045 0.950 . S
H4020 C4046 0.950 . S
H4021 C4048 0.950 . S
H4022 C4051 0.950 . S
H4023 C4052 0.950 . S
H4024 C4054 0.950 . S
H4025 C4055 0.950 . S
C4026 H4008 0.957 . S
C4026 C4027 1.367 . S
C4026 C4028 1.380 1_554 S
C4027 C4026 1.367 . S
C4027 C4031 1.385 1_554 S
C4028 H4009 0.951 . S
C4028 C4026 1.380 1_556 S
C4028 C4029 1.366 . S
C4029 C4028 1.366 . S
C4029 C4030 1.414 . S
C4029 C4032 1.499 . S
C4030 H4010 0.950 . S
C4030 C4029 1.414 . S
C4030 C4031 1.374 . S
C4031 H4011 0.950 . S
C4031 C4027 1.385 1_556 S
C4031 C4030 1.374 . S
C4032 C4029 1.499 . S
C4032 C4033 1.373 . S
C4032 C4034 1.389 . S
C4033 H4012 0.950 . S
C4033 C4032 1.373 . S
C4033 C4049 1.377 . S
C4034 C4032 1.389 . S
C4034 C4035 1.524 . S
C4034 C4048 1.377 . S
C4035 C4034 1.524 . S
C4035 C4036 1.397 . S
C4035 C4040 1.363 . S
C4036 H4013 0.950 . S
C4036 C4035 1.397 . S
C4036 C4037 1.334 . S
C4037 H4014 0.950 . S
C4037 C4036 1.334 . S
C4037 C4038 1.287 . S
C4038 C4037 1.287 . S
C4038 C4039 1.524 . S
C4038 H4057 0.913 . S
C4039 H4015 0.950 . S
C4039 C4038 1.524 . S
C4039 C4040 1.415 . S
C4040 H4016 0.950 . S
C4040 C4035 1.363 . S
C4040 C4039 1.415 . S
C4041 H4017 0.951 . S
C4041 C4042 1.366 . S
C4041 C4043 1.388 . S
C4042 C4041 1.366 . S
C4042 C4046 1.385 . S
C4043 H4018 0.951 . S
C4043 C4041 1.388 . S
C4043 C4044 1.366 . S
C4044 C4043 1.366 . S
C4044 C4045 1.414 . S
C4044 C4047 1.499 . S
C4045 H4019 0.950 . S
C4045 C4044 1.414 . S
C4045 C4046 1.374 . S
C4046 H4020 0.950 . S
C4046 C4042 1.385 . S
C4046 C4045 1.374 . S
C4047 C4044 1.499 . S
C4047 C4048 1.373 . S
C4047 C4049 1.389 . S
C4048 H4021 0.950 . S
C4048 C4034 1.377 . S
C4048 C4047 1.373 . S
C4049 C4033 1.377 . S
C4049 C4047 1.389 . S
C4049 C4050 1.524 . S
C4050 C4049 1.524 . S
C4050 C4051 1.397 . S
C4050 C4055 1.363 . S
C4051 H4022 0.950 . S
C4051 C4050 1.397 . S
C4051 C4052 1.334 . S
C4052 H4023 0.950 . S
C4052 C4051 1.334 . S
C4052 C4053 1.287 . S
C4053 C4052 1.287 . S
C4053 C4054 1.524 . S
C4053 H4056 0.999 . S
C4054 H4024 0.950 . S
C4054 C4053 1.524 . S
C4054 C4055 1.415 . S
C4055 H4025 0.950 . S
C4055 C4050 1.363 . S
C4055 C4054 1.415 . S
H4056 C4053 0.999 . S
H4057 C4038 0.913 . S
H4058 C4076 0.951 . S
H4059 C4078 0.951 . S
H4060 C4080 0.950 . S
H4061 C4081 0.950 . S
H4062 C4083 0.950 . S
H4063 C4086 0.950 . S
H4064 C4087 0.950 . S
H4065 C4089 0.950 . S
H4066 C4090 0.950 . S
H4067 C4091 0.951 . S
H4068 C4093 0.951 . S
H4069 C4095 0.950 . S
H4070 C4096 0.950 . S
H4071 C4098 0.950 . S
H4072 C4101 0.950 . S
H4073 C4102 0.950 . S
H4074 C4104 0.950 . S
H4075 C4105 0.950 . S
C4076 H4058 0.951 . S
C4076 C4077 1.366 . S
C4076 C4078 1.388 . S
C4077 C4076 1.366 . S
C4077 C4081 1.385 . S
C4078 H4059 0.951 . S
C4078 C4076 1.388 . S
C4078 C4079 1.366 . S
C4079 C4078 1.366 . S
C4079 C4080 1.414 . S
C4079 C4082 1.499 . S
C4080 H4060 0.950 . S
C4080 C4079 1.414 . S
C4080 C4081 1.374 . S
C4081 H4061 0.950 . S
C4081 C4077 1.385 . S
C4081 C4080 1.374 . S
C4082 C4079 1.499 . S
C4082 C4083 1.373 . S
C4082 C4084 1.389 . S
C4083 H4062 0.950 . S
C4083 C4082 1.373 . S
C4083 C4099 1.377 . S
C4084 C4082 1.389 . S
C4084 C4085 1.524 . S
C4084 C4098 1.377 . S
C4085 C4084 1.524 . S
C4085 C4086 1.397 . S
C4085 C4090 1.363 . S
C4086 H4063 0.950 . S
C4086 C4085 1.397 . S
C4086 C4087 1.334 . S
C4087 H4064 0.950 . S
C4087 C4086 1.334 . S
C4087 C4088 1.287 . S
C4088 C4087 1.287 . S
C4088 C4089 1.524 . S
C4088 H4107 0.913 . S
C4089 H4065 0.950 . S
C4089 C4088 1.524 . S
C4089 C4090 1.415 . S
C4090 H4066 0.950 . S
C4090 C4085 1.363 . S
C4090 C4089 1.415 . S
C4091 H4067 0.951 . S
C4091 C4092 1.366 . S
C4091 C4093 1.388 . S
C4092 C4091 1.366 . S
C4092 C4096 1.385 . S
C4093 H4068 0.951 . S
C4093 C4091 1.388 . S
C4093 C4094 1.366 . S
C4094 C4093 1.366 . S
C4094 C4095 1.414 . S
C4094 C4097 1.499 . S
C4095 H4069 0.950 . S
C4095 C4094 1.414 . S
C4095 C4096 1.374 . S
C4096 H4070 0.950 . S
C4096 C4092 1.385 . S
C4096 C4095 1.374 . S
C4097 C4094 1.499 . S
C4097 C4098 1.373 . S
C4097 C4099 1.389 . S
C4098 H4071 0.950 . S
C4098 C4084 1.377 . S
C4098 C4097 1.373 . S
C4099 C4083 1.377 . S
C4099 C4097 1.389 . S
C4099 C4100 1.524 . S
C4100 C4099 1.524 . S
C4100 C4101 1.397 . S
C4100 C4105 1.363 . S
C4101 H4072 0.950 . S
C4101 C4100 1.397 . S
C4101 C4102 1.334 . S
C4102 H4073 0.950 . S
C4102 C4101 1.334 . S
C4102 C4103 1.287 . S
C4103 C4102 1.287 . S
C4103 C4104 1.524 . S
C4103 H4106 0.999 . S
C4104 H4074 0.950 . S
C4104 C4103 1.524 . S
C4104 C4105 1.415 . S
C4105 H4075 0.950 . S
C4105 C4100 1.363 . S
C4105 C4104 1.415 . S
H4106 C4103 0.999 . S
H4107 C4088 0.913 . S
H4108 C4126 0.951 . S
H4109 C4128 0.951 . S
H4110 C4130 0.950 . S
H4111 C4131 0.950 . S
H4112 C4133 0.950 . S
H4113 C4136 0.950 . S
H4114 C4137 0.950 . S
H4115 C4139 0.950 . S
H4116 C4140 0.950 . S
H4117 C4141 0.951 . S
H4118 C4143 0.951 . S
H4119 C4145 0.950 . S
H4120 C4146 0.950 . S
H4121 C4148 0.950 . S
H4122 C4151 0.950 . S
H4123 C4152 0.950 . S
H4124 C4154 0.950 . S
H4125 C4155 0.950 . S
C4126 H4108 0.951 . S
C4126 C4127 1.366 . S
C4126 C4128 1.388 . S
C4127 C4126 1.366 . S
C4127 C4131 1.385 . S
C4128 H4109 0.951 . S
C4128 C4126 1.388 . S
C4128 C4129 1.366 . S
C4129 C4128 1.366 . S
C4129 C4130 1.414 . S
C4129 C4132 1.499 . S
C4130 H4110 0.950 . S
C4130 C4129 1.414 . S
C4130 C4131 1.374 . S
C4131 H4111 0.950 . S
C4131 C4127 1.385 . S
C4131 C4130 1.374 . S
C4132 C4129 1.499 . S
C4132 C4133 1.373 . S
C4132 C4134 1.389 . S
C4133 H4112 0.950 . S
C4133 C4132 1.373 . S
C4133 C4149 1.377 . S
C4134 C4132 1.389 . S
C4134 C4135 1.524 . S
C4134 C4148 1.377 . S
C4135 C4134 1.524 . S
C4135 C4136 1.397 . S
C4135 C4140 1.363 . S
C4136 H4113 0.950 . S
C4136 C4135 1.397 . S
C4136 C4137 1.334 . S
C4137 H4114 0.950 . S
C4137 C4136 1.334 . S
C4137 C4138 1.287 . S
C4138 C4137 1.287 . S
C4138 C4139 1.524 . S
C4138 H4157 0.913 . S
C4139 H4115 0.950 . S
C4139 C4138 1.524 . S
C4139 C4140 1.415 . S
C4140 H4116 0.950 . S
C4140 C4135 1.363 . S
C4140 C4139 1.415 . S
C4141 H4117 0.951 . S
C4141 C4142 1.366 . S
C4141 C4143 1.388 . S
C4142 C4141 1.366 . S
C4142 C4146 1.385 . S
C4143 H4118 0.951 . S
C4143 C4141 1.388 . S
C4143 C4144 1.366 . S
C4144 C4143 1.366 . S
C4144 C4145 1.414 . S
C4144 C4147 1.499 . S
C4145 H4119 0.950 . S
C4145 C4144 1.414 . S
C4145 C4146 1.374 . S
C4146 H4120 0.950 . S
C4146 C4142 1.385 . S
C4146 C4145 1.374 . S
C4147 C4144 1.499 . S
C4147 C4148 1.373 . S
C4147 C4149 1.389 . S
C4148 H4121 0.950 . S
C4148 C4134 1.377 . S
C4148 C4147 1.373 . S
C4149 C4133 1.377 . S
C4149 C4147 1.389 . S
C4149 C4150 1.524 . S
C4150 C4149 1.524 . S
C4150 C4151 1.397 . S
C4150 C4155 1.363 . S
C4151 H4122 0.950 . S
C4151 C4150 1.397 . S
C4151 C4152 1.334 . S
C4152 H4123 0.950 . S
C4152 C4151 1.334 . S
C4152 C4153 1.287 . S
C4153 C4152 1.287 . S
C4153 C4154 1.524 . S
C4153 H4156 0.999 . S
C4154 H4124 0.950 . S
C4154 C4153 1.524 . S
C4154 C4155 1.415 . S
C4155 H4125 0.950 . S
C4155 C4150 1.363 . S
C4155 C4154 1.415 . S
H4156 C4153 0.999 . S
H4157 C4138 0.913 . S
H4158 C4176 0.951 . S
H4159 C4178 0.951 . S
H4160 C4180 0.950 . S
H4161 C4181 0.950 . S
H4162 C4183 0.950 . S
H4163 C4186 0.950 . S
H4164 C4187 0.950 . S
H4165 C4189 0.950 . S
H4166 C4190 0.950 . S
H4167 C4191 0.951 . S
H4168 C4193 0.951 . S
H4169 C4195 0.950 . S
H4170 C4196 0.950 . S
H4171 C4198 0.950 . S
H4172 C4201 0.950 . S
H4173 C4202 0.950 . S
H4174 C4204 0.950 . S
H4175 C4205 0.950 . S
C4176 H4158 0.951 . S
C4176 C4177 1.366 . S
C4176 C4178 1.388 . S
C4177 C4176 1.366 . S
C4177 C4181 1.385 . S
C4178 H4159 0.951 . S
C4178 C4176 1.388 . S
C4178 C4179 1.366 . S
C4179 C4178 1.366 . S
C4179 C4180 1.414 . S
C4179 C4182 1.499 . S
C4180 H4160 0.950 . S
C4180 C4179 1.414 . S
C4180 C4181 1.374 . S
C4181 H4161 0.950 . S
C4181 C4177 1.385 . S
C4181 C4180 1.374 . S
C4182 C4179 1.499 . S
C4182 C4183 1.373 . S
C4182 C4184 1.389 . S
C4183 H4162 0.950 . S
C4183 C4182 1.373 . S
C4183 C4199 1.377 . S
C4184 C4182 1.389 . S
C4184 C4185 1.524 . S
C4184 C4198 1.377 . S
C4185 C4184 1.524 . S
C4185 C4186 1.397 . S
C4185 C4190 1.363 . S
C4186 H4163 0.950 . S
C4186 C4185 1.397 . S
C4186 C4187 1.334 . S
C4187 H4164 0.950 . S
C4187 C4186 1.334 . S
C4187 C4188 1.287 . S
C4188 C4187 1.287 . S
C4188 C4189 1.524 . S
C4188 H4207 0.913 . S
C4189 H4165 0.950 . S
C4189 C4188 1.524 . S
C4189 C4190 1.415 . S
C4190 H4166 0.950 . S
C4190 C4185 1.363 . S
C4190 C4189 1.415 . S
C4191 H4167 0.951 . S
C4191 C4192 1.366 . S
C4191 C4193 1.388 . S
C4192 C4191 1.366 . S
C4192 C4196 1.385 . S
C4193 H4168 0.951 . S
C4193 C4191 1.388 . S
C4193 C4194 1.366 . S
C4194 C4193 1.366 . S
C4194 C4195 1.414 . S
C4194 C4197 1.499 . S
C4195 H4169 0.950 . S
C4195 C4194 1.414 . S
C4195 C4196 1.374 . S
C4196 H4170 0.950 . S
C4196 C4192 1.385 . S
C4196 C4195 1.374 . S
C4197 C4194 1.499 . S
C4197 C4198 1.373 . S
C4197 C4199 1.389 . S
C4198 H4171 0.950 . S
C4198 C4184 1.377 . S
C4198 C4197 1.373 . S
C4199 C4183 1.377 . S
C4199 C4197 1.389 . S
C4199 C4200 1.524 . S
C4200 C4199 1.524 . S
C4200 C4201 1.397 . S
C4200 C4205 1.363 . S
C4201 H4172 0.950 . S
C4201 C4200 1.397 . S
C4201 C4202 1.334 . S
C4202 H4173 0.950 . S
C4202 C4201 1.334 . S
C4202 C4203 1.287 . S
C4203 C4202 1.287 . S
C4203 C4204 1.524 . S
C4203 H4206 0.999 . S
C4204 H4174 0.950 . S
C4204 C4203 1.524 . S
C4204 C4205 1.415 . S
C4205 H4175 0.950 . S
C4205 C4200 1.363 . S
C4205 C4204 1.415 . S
H4206 C4203 0.999 . S
H4207 C4188 0.913 . S
H4208 C4226 0.951 . S
H4209 C4228 0.951 . S
H4210 C4230 0.950 . S
H4211 C4231 0.950 . S
H4212 C4233 0.950 . S
H4213 C4236 0.950 . S
H4214 C4237 0.950 . S
H4215 C4239 0.950 . S
H4216 C4240 0.950 . S
H4217 C4241 0.951 . S
H4218 C4243 0.951 . S
H4219 C4245 0.950 . S
H4220 C4246 0.950 . S
H4221 C4248 0.950 . S
H4222 C4251 0.950 . S
H4223 C4252 0.950 . S
H4224 C4254 0.950 . S
H4225 C4255 0.950 . S
C4226 H4208 0.951 . S
C4226 C4227 1.366 . S
C4226 C4228 1.388 . S
C4227 C4226 1.366 . S
C4227 C4231 1.385 . S
C4228 H4209 0.951 . S
C4228 C4226 1.388 . S
C4228 C4229 1.366 . S
C4229 C4228 1.366 . S
C4229 C4230 1.414 . S
C4229 C4232 1.499 . S
C4230 H4210 0.950 . S
C4230 C4229 1.414 . S
C4230 C4231 1.374 . S
C4231 H4211 0.950 . S
C4231 C4227 1.385 . S
C4231 C4230 1.374 . S
C4232 C4229 1.499 . S
C4232 C4233 1.373 . S
C4232 C4234 1.389 . S
C4233 H4212 0.950 . S
C4233 C4232 1.373 . S
C4233 C4249 1.377 . S
C4234 C4232 1.389 . S
C4234 C4235 1.524 . S
C4234 C4248 1.377 . S
C4235 C4234 1.524 . S
C4235 C4236 1.397 . S
C4235 C4240 1.363 . S
C4236 H4213 0.950 . S
C4236 C4235 1.397 . S
C4236 C4237 1.334 . S
C4237 H4214 0.950 . S
C4237 C4236 1.334 . S
C4237 C4238 1.287 . S
C4238 C4237 1.287 . S
C4238 C4239 1.524 . S
C4238 H4257 0.913 . S
C4239 H4215 0.950 . S
C4239 C4238 1.524 . S
C4239 C4240 1.415 . S
C4240 H4216 0.950 . S
C4240 C4235 1.363 . S
C4240 C4239 1.415 . S
C4241 H4217 0.951 . S
C4241 C4242 1.366 . S
C4241 C4243 1.388 . S
C4242 C4241 1.366 . S
C4242 C4246 1.385 . S
C4243 H4218 0.951 . S
C4243 C4241 1.388 . S
C4243 C4244 1.366 . S
C4244 C4243 1.366 . S
C4244 C4245 1.414 . S
C4244 C4247 1.499 . S
C4245 H4219 0.950 . S
C4245 C4244 1.414 . S
C4245 C4246 1.374 . S
C4246 H4220 0.950 . S
C4246 C4242 1.385 . S
C4246 C4245 1.374 . S
C4247 C4244 1.499 . S
C4247 C4248 1.373 . S
C4247 C4249 1.389 . S
C4248 H4221 0.950 . S
C4248 C4234 1.377 . S
C4248 C4247 1.373 . S
C4249 C4233 1.377 . S
C4249 C4247 1.389 . S
C4249 C4250 1.524 . S
C4250 C4249 1.524 . S
C4250 C4251 1.397 . S
C4250 C4255 1.363 . S
C4251 H4222 0.950 . S
C4251 C4250 1.397 . S
C4251 C4252 1.334 . S
C4252 H4223 0.950 . S
C4252 C4251 1.334 . S
C4252 C4253 1.287 . S
C4253 C4252 1.287 . S
C4253 C4254 1.524 . S
C4253 H4256 0.999 . S
C4254 H4224 0.950 . S
C4254 C4253 1.524 . S
C4254 C4255 1.415 . S
C4255 H4225 0.950 . S
C4255 C4250 1.363 . S
C4255 C4254 1.415 . S
H4256 C4253 0.999 . S
H4257 C4238 0.913 . S
H4258 C4276 0.951 . S
H4259 C4278 0.951 . S
H4260 C4280 0.950 . S
H4261 C4281 0.950 . S
H4262 C4283 0.950 . S
H4263 C4286 0.950 . S
H4264 C4287 0.950 . S
H4265 C4289 0.950 1_565 S
H4266 C4290 0.950 . S
H4267 C4291 0.951 . S
H4268 C4293 0.951 . S
H4269 C4295 0.950 1_565 S
H4270 C4296 0.950 1_565 S
H4271 C4298 0.950 . S
H4272 C4301 0.950 . S
H4273 C4302 0.950 . S
H4274 C4304 0.950 . S
H4275 C4305 0.950 . S
C4276 H4258 0.951 . S
C4276 C4277 1.366 . S
C4276 C4278 1.388 . S
C4277 C4276 1.366 . S
C4277 C4281 1.385 . S
C4278 H4259 0.951 . S
C4278 C4276 1.388 . S
C4278 C4279 1.366 . S
C4279 C4278 1.366 . S
C4279 C4280 1.414 . S
C4279 C4282 1.499 . S
C4280 H4260 0.950 . S
C4280 C4279 1.414 . S
C4280 C4281 1.374 . S
C4281 H4261 0.950 . S
C4281 C4277 1.385 . S
C4281 C4280 1.374 . S
C4282 C4279 1.499 . S
C4282 C4283 1.373 . S
C4282 C4284 1.389 . S
C4283 H4262 0.950 . S
C4283 C4282 1.373 . S
C4283 C4299 1.377 . S
C4284 C4282 1.389 . S
C4284 C4285 1.524 . S
C4284 C4298 1.377 . S
C4285 C4284 1.524 . S
C4285 C4286 1.397 . S
C4285 C4290 1.363 . S
C4286 H4263 0.950 . S
C4286 C4285 1.397 . S
C4286 C4287 1.334 . S
C4287 H4264 0.950 . S
C4287 C4286 1.334 . S
C4287 C4288 1.287 . S
C4288 C4287 1.287 . S
C4288 C4289 1.524 . S
C4288 H4307 0.913 . S
C4289 H4265 0.950 1_545 S
C4289 C4288 1.524 . S
C4289 C4290 1.415 . S
C4290 H4266 0.950 . S
C4290 C4285 1.363 . S
C4290 C4289 1.415 . S
C4291 H4267 0.951 . S
C4291 C4292 1.366 . S
C4291 C4293 1.388 . S
C4292 C4291 1.366 . S
C4292 C4296 1.385 . S
C4293 H4268 0.951 . S
C4293 C4291 1.388 . S
C4293 C4294 1.366 . S
C4294 C4293 1.366 . S
C4294 C4295 1.414 . S
C4294 C4297 1.499 . S
C4295 H4269 0.950 1_545 S
C4295 C4294 1.414 . S
C4295 C4296 1.374 . S
C4296 H4270 0.950 1_545 S
C4296 C4292 1.385 . S
C4296 C4295 1.374 . S
C4297 C4294 1.499 . S
C4297 C4298 1.373 . S
C4297 C4299 1.389 . S
C4298 H4271 0.950 . S
C4298 C4284 1.377 . S
C4298 C4297 1.373 . S
C4299 C4283 1.377 . S
C4299 C4297 1.389 . S
C4299 C4300 1.524 . S
C4300 C4299 1.524 . S
C4300 C4301 1.397 . S
C4300 C4305 1.363 . S
C4301 H4272 0.950 . S
C4301 C4300 1.397 . S
C4301 C4302 1.334 . S
C4302 H4273 0.950 . S
C4302 C4301 1.334 . S
C4302 C4303 1.287 . S
C4303 C4302 1.287 . S
C4303 C4304 1.524 . S
C4303 H4306 0.999 . S
C4304 H4274 0.950 . S
C4304 C4303 1.524 . S
C4304 C4305 1.415 . S
C4305 H4275 0.950 . S
C4305 C4300 1.363 . S
C4305 C4304 1.415 . S
H4306 C4303 0.999 . S
H4307 C4288 0.913 . S
H4308 C4326 0.951 . S
H4309 C4328 0.951 . S
H4310 C4330 0.950 . S
H4311 C4331 0.950 . S
H4312 C4333 0.950 . S
H4313 C4336 0.950 . S
H4314 C4337 0.950 . S
H4315 C4339 0.950 . S
H4316 C4340 0.950 . S
H4317 C4341 0.951 . S
H4318 C4343 0.951 . S
H4319 C4345 0.950 . S
H4320 C4346 0.950 . S
H4321 C4348 0.950 . S
H4322 C4351 0.950 . S
H4323 C4352 0.950 . S
H4324 C4354 0.950 . S
H4325 C4355 0.950 . S
C4326 H4308 0.951 . S
C4326 C4327 1.366 . S
C4326 C4328 1.388 . S
C4327 C4326 1.366 . S
C4327 C4331 1.385 . S
C4328 H4309 0.951 . S
C4328 C4326 1.388 . S
C4328 C4329 1.366 . S
C4329 C4328 1.366 . S
C4329 C4330 1.414 . S
C4329 C4332 1.499 . S
C4330 H4310 0.950 . S
C4330 C4329 1.414 . S
C4330 C4331 1.374 . S
C4331 H4311 0.950 . S
C4331 C4327 1.385 . S
C4331 C4330 1.374 . S
C4332 C4329 1.499 . S
C4332 C4333 1.373 . S
C4332 C4334 1.389 . S
C4333 H4312 0.950 . S
C4333 C4332 1.373 . S
C4333 C4349 1.377 . S
C4334 C4332 1.389 . S
C4334 C4335 1.524 . S
C4334 C4348 1.377 . S
C4335 C4334 1.524 . S
C4335 C4336 1.397 . S
C4335 C4340 1.363 . S
C4336 H4313 0.950 . S
C4336 C4335 1.397 . S
C4336 C4337 1.334 . S
C4337 H4314 0.950 . S
C4337 C4336 1.334 . S
C4337 C4338 1.287 . S
C4338 C4337 1.287 . S
C4338 C4339 1.524 . S
C4338 H4357 0.913 . S
C4339 H4315 0.950 . S
C4339 C4338 1.524 . S
C4339 C4340 1.415 . S
C4340 H4316 0.950 . S
C4340 C4335 1.363 . S
C4340 C4339 1.415 . S
C4341 H4317 0.951 . S
C4341 C4342 1.366 . S
C4341 C4343 1.388 . S
C4342 C4341 1.366 . S
C4342 C4346 1.385 . S
C4343 H4318 0.951 . S
C4343 C4341 1.388 . S
C4343 C4344 1.366 . S
C4344 C4343 1.366 . S
C4344 C4345 1.414 . S
C4344 C4347 1.499 . S
C4345 H4319 0.950 . S
C4345 C4344 1.414 . S
C4345 C4346 1.374 . S
C4346 H4320 0.950 . S
C4346 C4342 1.385 . S
C4346 C4345 1.374 . S
C4347 C4344 1.499 . S
C4347 C4348 1.373 . S
C4347 C4349 1.389 . S
C4348 H4321 0.950 . S
C4348 C4334 1.377 . S
C4348 C4347 1.373 . S
C4349 C4333 1.377 . S
C4349 C4347 1.389 . S
C4349 C4350 1.524 . S
C4350 C4349 1.524 . S
C4350 C4351 1.397 . S
C4350 C4355 1.363 . S
C4351 H4322 0.950 . S
C4351 C4350 1.397 . S
C4351 C4352 1.334 . S
C4352 H4323 0.950 . S
C4352 C4351 1.334 . S
C4352 C4353 1.287 . S
C4353 C4352 1.287 . S
C4353 C4354 1.524 . S
C4353 H4356 0.999 . S
C4354 H4324 0.950 . S
C4354 C4353 1.524 . S
C4354 C4355 1.415 . S
C4355 H4325 0.950 . S
C4355 C4350 1.363 . S
C4355 C4354 1.415 . S
H4356 C4353 0.999 . S
H4357 C4338 0.913 . S
H4358 C4376 0.938 1_565 S
H4359 C4378 0.951 . S
H4360 C4380 0.950 . S
H4361 C4381 0.950 . S
H4362 C4383 0.950 . S
H4363 C4386 0.950 . S
H4364 C4387 0.950 . S
H4365 C4389 0.950 . S
H4366 C4390 0.950 . S
H4367 C4391 0.951 1_455 S
H4368 C4393 0.951 . S
H4369 C4395 0.950 . S
H4370 C4396 0.950 . S
H4371 C4398 0.950 . S
H4372 C4401 0.950 . S
H4373 C4402 0.950 . S
H4374 C4404 0.950 . S
H4375 C4405 0.950 . S
C4376 H4358 0.938 1_545 S
C4376 C4377 1.366 1_545 S
C4376 C4378 1.388 . S
C4377 C4376 1.366 1_565 S
C4377 C4381 1.385 . S
C4378 H4359 0.951 . S
C4378 C4376 1.388 . S
C4378 C4379 1.366 . S
C4379 C4378 1.366 . S
C4379 C4380 1.414 . S
C4379 C4382 1.499 . S
C4380 H4360 0.950 . S
C4380 C4379 1.414 . S
C4380 C4381 1.374 1_545 S
C4381 H4361 0.950 . S
C4381 C4377 1.385 . S
C4381 C4380 1.374 1_565 S
C4382 C4379 1.499 . S
C4382 C4383 1.373 . S
C4382 C4384 1.389 . S
C4383 H4362 0.950 . S
C4383 C4382 1.373 . S
C4383 C4399 1.377 . S
C4384 C4382 1.389 . S
C4384 C4385 1.524 . S
C4384 C4398 1.377 . S
C4385 C4384 1.524 . S
C4385 C4386 1.397 . S
C4385 C4390 1.363 . S
C4386 H4363 0.950 . S
C4386 C4385 1.397 . S
C4386 C4387 1.334 . S
C4387 H4364 0.950 . S
C4387 C4386 1.334 . S
C4387 C4388 1.287 . S
C4388 C4387 1.287 . S
C4388 C4389 1.524 . S
C4388 H4407 0.913 . S
C4389 H4365 0.950 . S
C4389 C4388 1.524 . S
C4389 C4390 1.415 . S
C4390 H4366 0.950 . S
C4390 C4385 1.363 . S
C4390 C4389 1.415 . S
C4391 H4367 0.951 1_655 S
C4391 C4392 1.366 . S
C4391 C4393 1.388 . S
C4392 C4391 1.366 . S
C4392 C4396 1.385 . S
C4393 H4368 0.951 . S
C4393 C4391 1.388 . S
C4393 C4394 1.366 . S
C4394 C4393 1.366 . S
C4394 C4395 1.414 . S
C4394 C4397 1.499 . S
C4395 H4369 0.950 . S
C4395 C4394 1.414 . S
C4395 C4396 1.374 . S
C4396 H4370 0.950 . S
C4396 C4392 1.385 . S
C4396 C4395 1.374 . S
C4397 C4394 1.499 . S
C4397 C4398 1.373 . S
C4397 C4399 1.389 . S
C4398 H4371 0.950 . S
C4398 C4384 1.377 . S
C4398 C4397 1.373 . S
C4399 C4383 1.377 . S
C4399 C4397 1.389 . S
C4399 C4400 1.524 . S
C4400 C4399 1.524 . S
C4400 C4401 1.397 . S
C4400 C4405 1.363 . S
C4401 H4372 0.950 . S
C4401 C4400 1.397 . S
C4401 C4402 1.334 . S
C4402 H4373 0.950 . S
C4402 C4401 1.334 . S
C4402 C4403 1.287 . S
C4403 C4402 1.287 . S
C4403 C4404 1.524 . S
C4403 H4406 0.999 . S
C4404 H4374 0.950 . S
C4404 C4403 1.524 . S
C4404 C4405 1.415 . S
C4405 H4375 0.950 . S
C4405 C4400 1.363 . S
C4405 C4404 1.415 . S
H4406 C4403 0.999 . S
H4407 C4388 0.913 . S
H4408 C4426 0.951 . S
H4409 C4428 0.951 . S
H4410 C4430 0.950 . S
H4411 C4431 0.950 . S
H4412 C4433 0.950 . S
H4413 C4436 0.950 . S
H4414 C4437 0.950 . S
H4415 C4439 0.950 . S
H4416 C4440 0.950 . S
H4417 C4441 0.951 . S
H4418 C4443 0.951 . S
H4419 C4445 0.950 . S
H4420 C4446 0.950 . S
H4421 C4448 0.950 . S
H4422 C4451 0.950 . S
H4423 C4452 0.950 . S
H4424 C4454 0.950 . S
H4425 C4455 0.950 . S
C4426 H4408 0.951 . S
C4426 C4427 1.366 . S
C4426 C4428 1.388 . S
C4427 C4426 1.366 . S
C4427 C4431 1.385 . S
C4428 H4409 0.951 . S
C4428 C4426 1.388 . S
C4428 C4429 1.366 . S
C4429 C4428 1.366 . S
C4429 C4430 1.414 . S
C4429 C4432 1.499 . S
C4430 H4410 0.950 . S
C4430 C4429 1.414 . S
C4430 C4431 1.374 . S
C4431 H4411 0.950 . S
C4431 C4427 1.385 . S
C4431 C4430 1.374 . S
C4432 C4429 1.499 . S
C4432 C4433 1.373 . S
C4432 C4434 1.389 . S
C4433 H4412 0.950 . S
C4433 C4432 1.373 . S
C4433 C4449 1.377 . S
C4434 C4432 1.389 . S
C4434 C4435 1.524 . S
C4434 C4448 1.377 . S
C4435 C4434 1.524 . S
C4435 C4436 1.397 . S
C4435 C4440 1.363 . S
C4436 H4413 0.950 . S
C4436 C4435 1.397 . S
C4436 C4437 1.334 . S
C4437 H4414 0.950 . S
C4437 C4436 1.334 . S
C4437 C4438 1.287 . S
C4438 C4437 1.287 . S
C4438 C4439 1.524 . S
C4438 H4457 0.913 . S
C4439 H4415 0.950 . S
C4439 C4438 1.524 . S
C4439 C4440 1.415 . S
C4440 H4416 0.950 . S
C4440 C4435 1.363 . S
C4440 C4439 1.415 . S
C4441 H4417 0.951 . S
C4441 C4442 1.366 . S
C4441 C4443 1.388 . S
C4442 C4441 1.366 . S
C4442 C4446 1.385 . S
C4443 H4418 0.951 . S
C4443 C4441 1.388 . S
C4443 C4444 1.366 . S
C4444 C4443 1.366 . S
C4444 C4445 1.414 . S
C4444 C4447 1.499 . S
C4445 H4419 0.950 . S
C4445 C4444 1.414 . S
C4445 C4446 1.374 . S
C4446 H4420 0.950 . S
C4446 C4442 1.385 . S
C4446 C4445 1.374 . S
C4447 C4444 1.499 . S
C4447 C4448 1.373 . S
C4447 C4449 1.389 . S
C4448 H4421 0.950 . S
C4448 C4434 1.377 . S
C4448 C4447 1.373 . S
C4449 C4433 1.377 . S
C4449 C4447 1.389 . S
C4449 C4450 1.524 . S
C4450 C4449 1.524 . S
C4450 C4451 1.397 . S
C4450 C4455 1.363 . S
C4451 H4422 0.950 . S
C4451 C4450 1.397 . S
C4451 C4452 1.334 . S
C4452 H4423 0.950 . S
C4452 C4451 1.334 . S
C4452 C4453 1.287 . S
C4453 C4452 1.287 . S
C4453 C4454 1.524 . S
C4453 H4456 0.999 . S
C4454 H4424 0.950 . S
C4454 C4453 1.524 . S
C4454 C4455 1.415 . S
C4455 H4425 0.950 . S
C4455 C4450 1.363 . S
C4455 C4454 1.415 . S
H4456 C4453 0.999 . S
H4457 C4438 0.913 . S
H4458 C4476 0.951 . S
H4459 C4478 0.951 . S
H4460 C4480 0.950 . S
H4461 C4481 0.950 . S
H4462 C4483 0.950 . S
H4463 C4486 0.950 . S
H4464 C4487 0.950 . S
H4465 C4489 0.950 . S
H4466 C4490 0.950 . S
H4467 C4491 0.951 . S
H4468 C4493 0.951 . S
H4469 C4495 0.950 . S
H4470 C4496 0.950 1_655 S
H4471 C4498 0.950 . S
H4472 C4501 0.950 . S
H4473 C4502 0.950 . S
H4474 C4504 0.950 . S
H4475 C4505 0.950 . S
C4476 H4458 0.951 . S
C4476 C4477 1.366 . S
C4476 C4478 1.388 . S
C4477 C4476 1.366 . S
C4477 C4481 1.385 . S
C4478 H4459 0.951 . S
C4478 C4476 1.388 . S
C4478 C4479 1.366 . S
C4479 C4478 1.366 . S
C4479 C4480 1.414 . S
C4479 C4482 1.499 . S
C4480 H4460 0.950 . S
C4480 C4479 1.414 . S
C4480 C4481 1.374 . S
C4481 H4461 0.950 . S
C4481 C4477 1.385 . S
C4481 C4480 1.374 . S
C4482 C4479 1.499 . S
C4482 C4483 1.373 . S
C4482 C4484 1.389 . S
C4483 H4462 0.950 . S
C4483 C4482 1.373 . S
C4483 C4499 1.377 . S
C4484 C4482 1.389 . S
C4484 C4485 1.524 . S
C4484 C4498 1.377 . S
C4485 C4484 1.524 . S
C4485 C4486 1.397 . S
C4485 C4490 1.363 1_455 S
C4486 H4463 0.950 . S
C4486 C4485 1.397 . S
C4486 C4487 1.334 . S
C4487 H4464 0.950 . S
C4487 C4486 1.334 . S
C4487 C4488 1.287 1_455 S
C4488 C4487 1.287 1_655 S
C4488 C4489 1.524 . S
C4488 H4507 0.913 . S
C4489 H4465 0.950 . S
C4489 C4488 1.524 . S
C4489 C4490 1.415 . S
C4490 H4466 0.950 . S
C4490 C4485 1.363 1_655 S
C4490 C4489 1.415 . S
C4491 H4467 0.951 . S
C4491 C4492 1.366 . S
C4491 C4493 1.388 . S
C4492 C4491 1.366 . S
C4492 C4496 1.385 . S
C4493 H4468 0.951 . S
C4493 C4491 1.388 . S
C4493 C4494 1.366 . S
C4494 C4493 1.366 . S
C4494 C4495 1.414 . S
C4494 C4497 1.499 . S
C4495 H4469 0.950 . S
C4495 C4494 1.414 . S
C4495 C4496 1.374 . S
C4496 H4470 0.950 1_455 S
C4496 C4492 1.385 . S
C4496 C4495 1.374 . S
C4497 C4494 1.499 . S
C4497 C4498 1.373 . S
C4497 C4499 1.389 . S
C4498 H4471 0.950 . S
C4498 C4484 1.377 . S
C4498 C4497 1.373 . S
C4499 C4483 1.377 . S
C4499 C4497 1.389 . S
C4499 C4500 1.524 . S
C4500 C4499 1.524 . S
C4500 C4501 1.397 . S
C4500 C4505 1.363 . S
C4501 H4472 0.950 . S
C4501 C4500 1.397 . S
C4501 C4502 1.334 . S
C4502 H4473 0.950 . S
C4502 C4501 1.334 . S
C4502 C4503 1.287 . S
C4503 C4502 1.287 . S
C4503 C4504 1.524 . S
C4503 H4506 0.999 . S
C4504 H4474 0.950 . S
C4504 C4503 1.524 . S
C4504 C4505 1.415 . S
C4505 H4475 0.950 . S
C4505 C4500 1.363 . S
C4505 C4504 1.415 . S
H4506 C4503 0.999 . S
H4507 C4488 0.913 . S
H4508 C4526 0.951 . S
H4509 C4528 0.951 . S
H4510 C4530 0.950 . S
H4511 C4531 0.950 . S
H4512 C4533 0.950 . S
H4513 C4536 0.950 . S
H4514 C4537 0.950 . S
H4515 C4539 0.950 . S
H4516 C4540 0.950 . S
H4517 C4541 0.951 . S
H4518 C4543 0.951 . S
H4519 C4545 0.950 . S
H4520 C4546 0.950 . S
H4521 C4548 0.950 . S
H4522 C4551 0.950 . S
H4523 C4552 0.950 . S
H4524 C4554 0.950 . S
H4525 C4555 0.950 . S
C4526 H4508 0.951 . S
C4526 C4527 1.366 . S
C4526 C4528 1.388 . S
C4527 C4526 1.366 . S
C4527 C4531 1.385 . S
C4528 H4509 0.951 . S
C4528 C4526 1.388 . S
C4528 C4529 1.366 . S
C4529 C4528 1.366 . S
C4529 C4530 1.414 . S
C4529 C4532 1.499 . S
C4530 H4510 0.950 . S
C4530 C4529 1.414 . S
C4530 C4531 1.374 . S
C4531 H4511 0.950 . S
C4531 C4527 1.385 . S
C4531 C4530 1.374 . S
C4532 C4529 1.499 . S
C4532 C4533 1.373 . S
C4532 C4534 1.389 . S
C4533 H4512 0.950 . S
C4533 C4532 1.373 . S
C4533 C4549 1.377 . S
C4534 C4532 1.389 . S
C4534 C4535 1.524 . S
C4534 C4548 1.377 . S
C4535 C4534 1.524 . S
C4535 C4536 1.397 . S
C4535 C4540 1.363 . S
C4536 H4513 0.950 . S
C4536 C4535 1.397 . S
C4536 C4537 1.334 . S
C4537 H4514 0.950 . S
C4537 C4536 1.334 . S
C4537 C4538 1.287 . S
C4538 C4537 1.287 . S
C4538 C4539 1.524 . S
C4538 H4557 0.913 . S
C4539 H4515 0.950 . S
C4539 C4538 1.524 . S
C4539 C4540 1.415 . S
C4540 H4516 0.950 . S
C4540 C4535 1.363 . S
C4540 C4539 1.415 . S
C4541 H4517 0.951 . S
C4541 C4542 1.366 . S
C4541 C4543 1.388 . S
C4542 C4541 1.366 . S
C4542 C4546 1.385 . S
C4543 H4518 0.951 . S
C4543 C4541 1.388 . S
C4543 C4544 1.366 . S
C4544 C4543 1.366 . S
C4544 C4545 1.414 . S
C4544 C4547 1.499 . S
C4545 H4519 0.950 . S
C4545 C4544 1.414 . S
C4545 C4546 1.374 . S
C4546 H4520 0.950 . S
C4546 C4542 1.385 . S
C4546 C4545 1.374 . S
C4547 C4544 1.499 . S
C4547 C4548 1.373 . S
C4547 C4549 1.389 . S
C4548 H4521 0.950 . S
C4548 C4534 1.377 . S
C4548 C4547 1.373 . S
C4549 C4533 1.377 . S
C4549 C4547 1.389 . S
C4549 C4550 1.524 . S
C4550 C4549 1.524 . S
C4550 C4551 1.397 . S
C4550 C4555 1.363 . S
C4551 H4522 0.950 . S
C4551 C4550 1.397 . S
C4551 C4552 1.334 . S
C4552 H4523 0.950 . S
C4552 C4551 1.334 . S
C4552 C4553 1.287 . S
C4553 C4552 1.287 . S
C4553 C4554 1.524 . S
C4553 H4556 0.999 . S
C4554 H4524 0.950 . S
C4554 C4553 1.524 . S
C4554 C4555 1.415 . S
C4555 H4525 0.950 . S
C4555 C4550 1.363 . S
C4555 C4554 1.415 . S
H4556 C4553 0.999 . S
H4557 C4538 0.913 . S
H4558 C4576 0.951 . S
H4559 C4578 0.951 . S
H4560 C4580 0.950 . S
H4561 C4581 0.950 1_565 S
H4562 C4583 0.950 . S
H4563 C4586 0.950 . S
H4564 C4587 0.950 . S
H4565 C4589 0.950 . S
H4566 C4590 0.950 . S
H4567 C4591 0.951 . S
H4568 C4593 0.951 . S
H4569 C4595 0.950 . S
H4570 C4596 0.950 . S
H4571 C4598 0.950 . S
H4572 C4601 0.950 . S
H4573 C4602 0.950 . S
H4574 C4604 0.950 . S
H4575 C4605 0.950 . S
C4576 H4558 0.951 . S
C4576 C4577 1.366 . S
C4576 C4578 1.388 1_565 S
C4577 C4576 1.366 . S
C4577 C4581 1.385 1_565 S
C4578 H4559 0.951 . S
C4578 C4576 1.388 1_545 S
C4578 C4579 1.366 . S
C4579 C4578 1.366 . S
C4579 C4580 1.414 . S
C4579 C4582 1.499 . S
C4580 H4560 0.950 . S
C4580 C4579 1.414 . S
C4580 C4581 1.374 . S
C4581 H4561 0.950 1_545 S
C4581 C4577 1.385 1_545 S
C4581 C4580 1.374 . S
C4582 C4579 1.499 . S
C4582 C4583 1.373 . S
C4582 C4584 1.389 . S
C4583 H4562 0.950 . S
C4583 C4582 1.373 . S
C4583 C4599 1.377 . S
C4584 C4582 1.389 . S
C4584 C4585 1.524 . S
C4584 C4598 1.377 . S
C4585 C4584 1.524 . S
C4585 C4586 1.397 . S
C4585 C4590 1.363 . S
C4586 H4563 0.950 . S
C4586 C4585 1.397 . S
C4586 C4587 1.334 . S
C4587 H4564 0.950 . S
C4587 C4586 1.334 . S
C4587 C4588 1.287 . S
C4588 C4587 1.287 . S
C4588 C4589 1.524 . S
C4588 H4607 0.913 . S
C4589 H4565 0.950 . S
C4589 C4588 1.524 . S
C4589 C4590 1.415 . S
C4590 H4566 0.950 . S
C4590 C4585 1.363 . S
C4590 C4589 1.415 . S
C4591 H4567 0.951 . S
C4591 C4592 1.366 . S
C4591 C4593 1.388 . S
C4592 C4591 1.366 . S
C4592 C4596 1.385 . S
C4593 H4568 0.951 . S
C4593 C4591 1.388 . S
C4593 C4594 1.366 . S
C4594 C4593 1.366 . S
C4594 C4595 1.414 . S
C4594 C4597 1.499 . S
C4595 H4569 0.950 . S
C4595 C4594 1.414 . S
C4595 C4596 1.374 . S
C4596 H4570 0.950 . S
C4596 C4592 1.385 . S
C4596 C4595 1.374 . S
C4597 C4594 1.499 . S
C4597 C4598 1.373 . S
C4597 C4599 1.389 . S
C4598 H4571 0.950 . S
C4598 C4584 1.377 . S
C4598 C4597 1.373 . S
C4599 C4583 1.377 . S
C4599 C4597 1.389 . S
C4599 C4600 1.524 . S
C4600 C4599 1.524 . S
C4600 C4601 1.397 . S
C4600 C4605 1.363 . S
C4601 H4572 0.950 . S
C4601 C4600 1.397 . S
C4601 C4602 1.334 . S
C4602 H4573 0.950 . S
C4602 C4601 1.334 . S
C4602 C4603 1.287 . S
C4603 C4602 1.287 . S
C4603 C4604 1.524 . S
C4603 H4606 0.999 . S
C4604 H4574 0.950 . S
C4604 C4603 1.524 . S
C4604 C4605 1.415 . S
C4605 H4575 0.950 . S
C4605 C4600 1.363 . S
C4605 C4604 1.415 . S
H4606 C4603 0.999 . S
H4607 C4588 0.913 . S
H4608 C4626 0.951 . S
H4609 C4628 0.951 . S
H4610 C4630 0.950 . S
H4611 C4631 0.950 . S
H4612 C4633 0.950 . S
H4613 C4636 0.950 . S
H4614 C4637 0.950 . S
H4615 C4639 0.950 . S
H4616 C4640 0.950 . S
H4617 C4641 0.951 . S
H4618 C4643 0.951 . S
H4619 C4645 0.950 . S
H4620 C4646 0.950 . S
H4621 C4648 0.950 . S
H4622 C4651 0.950 . S
H4623 C4652 0.950 . S
H4624 C4654 0.950 . S
H4625 C4655 0.950 . S
C4626 H4608 0.951 . S
C4626 C4627 1.366 . S
C4626 C4628 1.388 . S
C4627 C4626 1.366 . S
C4627 C4631 1.385 . S
C4628 H4609 0.951 . S
C4628 C4626 1.388 . S
C4628 C4629 1.366 . S
C4629 C4628 1.366 . S
C4629 C4630 1.414 . S
C4629 C4632 1.499 . S
C4630 H4610 0.950 . S
C4630 C4629 1.414 . S
C4630 C4631 1.374 . S
C4631 H4611 0.950 . S
C4631 C4627 1.385 . S
C4631 C4630 1.374 . S
C4632 C4629 1.499 . S
C4632 C4633 1.373 . S
C4632 C4634 1.389 . S
C4633 H4612 0.950 . S
C4633 C4632 1.373 . S
C4633 C4649 1.377 . S
C4634 C4632 1.389 . S
C4634 C4635 1.524 . S
C4634 C4648 1.377 . S
C4635 C4634 1.524 . S
C4635 C4636 1.397 . S
C4635 C4640 1.363 . S
C4636 H4613 0.950 . S
C4636 C4635 1.397 . S
C4636 C4637 1.334 . S
C4637 H4614 0.950 . S
C4637 C4636 1.334 . S
C4637 C4638 1.287 . S
C4638 C4637 1.287 . S
C4638 C4639 1.524 . S
C4638 H4657 0.913 . S
C4639 H4615 0.950 . S
C4639 C4638 1.524 . S
C4639 C4640 1.415 . S
C4640 H4616 0.950 . S
C4640 C4635 1.363 . S
C4640 C4639 1.415 . S
C4641 H4617 0.951 . S
C4641 C4642 1.366 . S
C4641 C4643 1.388 . S
C4642 C4641 1.366 . S
C4642 C4646 1.385 . S
C4643 H4618 0.951 . S
C4643 C4641 1.388 . S
C4643 C4644 1.366 . S
C4644 C4643 1.366 . S
C4644 C4645 1.414 . S
C4644 C4647 1.499 . S
C4645 H4619 0.950 . S
C4645 C4644 1.414 . S
C4645 C4646 1.374 . S
C4646 H4620 0.950 . S
C4646 C4642 1.385 . S
C4646 C4645 1.374 . S
C4647 C4644 1.499 . S
C4647 C4648 1.373 . S
C4647 C4649 1.389 . S
C4648 H4621 0.950 . S
C4648 C4634 1.377 . S
C4648 C4647 1.373 . S
C4649 C4633 1.377 . S
C4649 C4647 1.389 . S
C4649 C4650 1.524 . S
C4650 C4649 1.524 . S
C4650 C4651 1.397 . S
C4650 C4655 1.363 . S
C4651 H4622 0.950 . S
C4651 C4650 1.397 . S
C4651 C4652 1.334 . S
C4652 H4623 0.950 . S
C4652 C4651 1.334 . S
C4652 C4653 1.287 . S
C4653 C4652 1.287 . S
C4653 C4654 1.524 . S
C4653 H4656 0.999 . S
C4654 H4624 0.950 . S
C4654 C4653 1.524 . S
C4654 C4655 1.415 . S
C4655 H4625 0.950 . S
C4655 C4650 1.363 . S
C4655 C4654 1.415 . S
H4656 C4653 0.999 . S
H4657 C4638 0.913 . S
H4658 C4676 0.951 . S
H4659 C4678 0.951 . S
H4660 C4680 0.950 . S
H4661 C4681 0.950 . S
H4662 C4683 0.950 . S
H4663 C4686 0.950 . S
H4664 C4687 0.950 . S
H4665 C4689 0.950 . S
H4666 C4690 0.950 . S
H4667 C4691 0.951 . S
H4668 C4693 0.951 . S
H4669 C4695 0.950 . S
H4670 C4696 0.950 . S
H4671 C4698 0.950 . S
H4672 C4701 0.950 . S
H4673 C4702 0.950 . S
H4674 C4704 0.950 . S
H4675 C4705 0.950 . S
C4676 H4658 0.951 . S
C4676 C4677 1.366 . S
C4676 C4678 1.388 . S
C4677 C4676 1.366 . S
C4677 C4681 1.385 . S
C4678 H4659 0.951 . S
C4678 C4676 1.388 . S
C4678 C4679 1.366 . S
C4679 C4678 1.366 . S
C4679 C4680 1.414 . S
C4679 C4682 1.499 . S
C4680 H4660 0.950 . S
C4680 C4679 1.414 . S
C4680 C4681 1.374 . S
C4681 H4661 0.950 . S
C4681 C4677 1.385 . S
C4681 C4680 1.374 . S
C4682 C4679 1.499 . S
C4682 C4683 1.373 . S
C4682 C4684 1.389 . S
C4683 H4662 0.950 . S
C4683 C4682 1.373 . S
C4683 C4699 1.377 . S
C4684 C4682 1.389 . S
C4684 C4685 1.524 . S
C4684 C4698 1.377 . S
C4685 C4684 1.524 . S
C4685 C4686 1.397 . S
C4685 C4690 1.363 . S
C4686 H4663 0.950 . S
C4686 C4685 1.397 . S
C4686 C4687 1.334 . S
C4687 H4664 0.950 . S
C4687 C4686 1.334 . S
C4687 C4688 1.287 . S
C4688 C4687 1.287 . S
C4688 C4689 1.524 . S
C4688 H4707 0.913 . S
C4689 H4665 0.950 . S
C4689 C4688 1.524 . S
C4689 C4690 1.415 . S
C4690 H4666 0.950 . S
C4690 C4685 1.363 . S
C4690 C4689 1.415 . S
C4691 H4667 0.951 . S
C4691 C4692 1.366 . S
C4691 C4693 1.388 . S
C4692 C4691 1.366 . S
C4692 C4696 1.385 . S
C4693 H4668 0.951 . S
C4693 C4691 1.388 . S
C4693 C4694 1.366 . S
C4694 C4693 1.366 . S
C4694 C4695 1.414 . S
C4694 C4697 1.499 . S
C4695 H4669 0.950 . S
C4695 C4694 1.414 . S
C4695 C4696 1.374 . S
C4696 H4670 0.950 . S
C4696 C4692 1.385 . S
C4696 C4695 1.374 . S
C4697 C4694 1.499 . S
C4697 C4698 1.373 . S
C4697 C4699 1.389 . S
C4698 H4671 0.950 . S
C4698 C4684 1.377 . S
C4698 C4697 1.373 . S
C4699 C4683 1.377 . S
C4699 C4697 1.389 . S
C4699 C4700 1.524 . S
C4700 C4699 1.524 . S
C4700 C4701 1.397 . S
C4700 C4705 1.363 . S
C4701 H4672 0.950 . S
C4701 C4700 1.397 . S
C4701 C4702 1.334 . S
C4702 H4673 0.950 . S
C4702 C4701 1.334 . S
C4702 C4703 1.287 . S
C4703 C4702 1.287 . S
C4703 C4704 1.524 . S
C4703 H4706 0.999 . S
C4704 H4674 0.950 . S
C4704 C4703 1.524 . S
C4704 C4705 1.415 . S
C4705 H4675 0.950 . S
C4705 C4700 1.363 . S
C4705 C4704 1.415 . S
H4706 C4703 0.999 . S
H4707 C4688 0.913 . S
H4708 C4726 0.951 . S
H4709 C4728 0.951 . S
H4710 C4730 0.950 . S
H4711 C4731 0.950 . S
H4712 C4733 0.950 . S
H4713 C4736 0.950 . S
H4714 C4737 0.950 . S
H4715 C4739 0.950 . S
H4716 C4740 0.950 . S
H4717 C4741 0.951 . S
H4718 C4743 0.951 . S
H4719 C4745 0.950 . S
H4720 C4746 0.950 . S
H4721 C4748 0.950 . S
H4722 C4751 0.950 . S
H4723 C4752 0.950 . S
H4724 C4754 0.950 . S
H4725 C4755 0.950 . S
C4726 H4708 0.951 . S
C4726 C4727 1.366 . S
C4726 C4728 1.388 . S
C4727 C4726 1.366 . S
C4727 C4731 1.385 . S
C4728 H4709 0.951 . S
C4728 C4726 1.388 . S
C4728 C4729 1.366 . S
C4729 C4728 1.366 . S
C4729 C4730 1.414 . S
C4729 C4732 1.499 . S
C4730 H4710 0.950 . S
C4730 C4729 1.414 . S
C4730 C4731 1.374 . S
C4731 H4711 0.950 . S
C4731 C4727 1.385 . S
C4731 C4730 1.374 . S
C4732 C4729 1.499 . S
C4732 C4733 1.373 . S
C4732 C4734 1.389 . S
C4733 H4712 0.950 . S
C4733 C4732 1.373 . S
C4733 C4749 1.377 . S
C4734 C4732 1.389 . S
C4734 C4735 1.524 . S
C4734 C4748 1.377 . S
C4735 C4734 1.524 . S
C4735 C4736 1.397 . S
C4735 C4740 1.363 . S
C4736 H4713 0.950 . S
C4736 C4735 1.397 . S
C4736 C4737 1.334 . S
C4737 H4714 0.950 . S
C4737 C4736 1.334 . S
C4737 C4738 1.287 . S
C4738 C4737 1.287 . S
C4738 C4739 1.524 . S
C4738 H4757 0.913 . S
C4739 H4715 0.950 . S
C4739 C4738 1.524 . S
C4739 C4740 1.415 . S
C4740 H4716 0.950 . S
C4740 C4735 1.363 . S
C4740 C4739 1.415 . S
C4741 H4717 0.951 . S
C4741 C4742 1.366 . S
C4741 C4743 1.388 . S
C4742 C4741 1.366 . S
C4742 C4746 1.385 . S
C4743 H4718 0.951 . S
C4743 C4741 1.388 . S
C4743 C4744 1.366 . S
C4744 C4743 1.366 . S
C4744 C4745 1.414 . S
C4744 C4747 1.499 . S
C4745 H4719 0.950 . S
C4745 C4744 1.414 . S
C4745 C4746 1.374 . S
C4746 H4720 0.950 . S
C4746 C4742 1.385 . S
C4746 C4745 1.374 . S
C4747 C4744 1.499 . S
C4747 C4748 1.373 . S
C4747 C4749 1.389 . S
C4748 H4721 0.950 . S
C4748 C4734 1.377 . S
C4748 C4747 1.373 . S
C4749 C4733 1.377 . S
C4749 C4747 1.389 . S
C4749 C4750 1.524 . S
C4750 C4749 1.524 . S
C4750 C4751 1.397 . S
C4750 C4755 1.363 . S
C4751 H4722 0.950 . S
C4751 C4750 1.397 . S
C4751 C4752 1.334 . S
C4752 H4723 0.950 . S
C4752 C4751 1.334 . S
C4752 C4753 1.287 . S
C4753 C4752 1.287 . S
C4753 C4754 1.524 . S
C4753 H4756 0.999 . S
C4754 H4724 0.950 . S
C4754 C4753 1.524 . S
C4754 C4755 1.415 . S
C4755 H4725 0.950 . S
C4755 C4750 1.363 . S
C4755 C4754 1.415 . S
H4756 C4753 0.999 . S
H4757 C4738 0.913 . S
H4758 C4776 0.951 . S
H4759 C4778 0.951 . S
H4760 C4780 0.950 . S
H4761 C4781 0.950 1_455 S
H4762 C4783 0.950 . S
H4763 C4786 0.950 . S
H4764 C4787 0.950 . S
H4765 C4789 0.950 . S
H4766 C4790 0.950 . S
H4767 C4791 0.951 . S
H4768 C4793 0.951 . S
H4769 C4795 0.950 . S
H4770 C4796 0.950 . S
H4771 C4798 0.950 . S
H4772 C4801 0.950 . S
H4773 C4802 0.950 . S
H4774 C4804 0.950 . S
H4775 C4805 0.950 . S
C4776 H4758 0.951 . S
C4776 C4777 1.366 . S
C4776 C4778 1.388 1_455 S
C4777 C4776 1.366 . S
C4777 C4781 1.385 1_455 S
C4778 H4759 0.951 . S
C4778 C4776 1.388 1_655 S
C4778 C4779 1.366 . S
C4779 C4778 1.366 . S
C4779 C4780 1.414 . S
C4779 C4782 1.499 . S
C4780 H4760 0.950 . S
C4780 C4779 1.414 . S
C4780 C4781 1.374 . S
C4781 H4761 0.950 1_655 S
C4781 C4777 1.385 1_655 S
C4781 C4780 1.374 . S
C4782 C4779 1.499 . S
C4782 C4783 1.373 . S
C4782 C4784 1.389 . S
C4783 H4762 0.950 . S
C4783 C4782 1.373 . S
C4783 C4799 1.377 . S
C4784 C4782 1.389 . S
C4784 C4785 1.524 . S
C4784 C4798 1.377 . S
C4785 C4784 1.524 . S
C4785 C4786 1.397 . S
C4785 C4790 1.363 . S
C4786 H4763 0.950 . S
C4786 C4785 1.397 . S
C4786 C4787 1.334 . S
C4787 H4764 0.950 . S
C4787 C4786 1.334 . S
C4787 C4788 1.287 . S
C4788 C4787 1.287 . S
C4788 C4789 1.524 . S
C4788 H4807 0.913 . S
C4789 H4765 0.950 . S
C4789 C4788 1.524 . S
C4789 C4790 1.415 . S
C4790 H4766 0.950 . S
C4790 C4785 1.363 . S
C4790 C4789 1.415 . S
C4791 H4767 0.951 . S
C4791 C4792 1.366 . S
C4791 C4793 1.388 . S
C4792 C4791 1.366 . S
C4792 C4796 1.385 . S
C4793 H4768 0.951 . S
C4793 C4791 1.388 . S
C4793 C4794 1.366 . S
C4794 C4793 1.366 . S
C4794 C4795 1.414 . S
C4794 C4797 1.499 . S
C4795 H4769 0.950 . S
C4795 C4794 1.414 . S
C4795 C4796 1.374 . S
C4796 H4770 0.950 . S
C4796 C4792 1.385 . S
C4796 C4795 1.374 . S
C4797 C4794 1.499 . S
C4797 C4798 1.373 . S
C4797 C4799 1.389 . S
C4798 H4771 0.950 . S
C4798 C4784 1.377 . S
C4798 C4797 1.373 . S
C4799 C4783 1.377 . S
C4799 C4797 1.389 . S
C4799 C4800 1.524 . S
C4800 C4799 1.524 . S
C4800 C4801 1.397 . S
C4800 C4805 1.363 . S
C4801 H4772 0.950 . S
C4801 C4800 1.397 . S
C4801 C4802 1.334 . S
C4802 H4773 0.950 . S
C4802 C4801 1.334 . S
C4802 C4803 1.287 . S
C4803 C4802 1.287 . S
C4803 C4804 1.524 . S
C4803 H4806 0.999 . S
C4804 H4774 0.950 . S
C4804 C4803 1.524 . S
C4804 C4805 1.415 . S
C4805 H4775 0.950 . S
C4805 C4800 1.363 . S
C4805 C4804 1.415 . S
H4806 C4803 0.999 . S
H4807 C4788 0.913 . S
H4808 C4826 0.951 . S
H4809 C4828 0.951 . S
H4810 C4830 0.950 . S
H4811 C4831 0.950 . S
H4812 C4833 0.950 . S
H4813 C4836 0.950 . S
H4814 C4837 0.950 . S
H4815 C4839 0.950 . S
H4816 C4840 0.950 . S
H4817 C4841 0.951 . S
H4818 C4843 0.951 . S
H4819 C4845 0.950 . S
H4820 C4846 0.950 . S
H4821 C4848 0.950 . S
H4822 C4851 0.950 . S
H4823 C4852 0.950 . S
H4824 C4854 0.950 . S
H4825 C4855 0.950 . S
C4826 H4808 0.951 . S
C4826 C4827 1.366 . S
C4826 C4828 1.388 . S
C4827 C4826 1.366 . S
C4827 C4831 1.385 . S
C4828 H4809 0.951 . S
C4828 C4826 1.388 . S
C4828 C4829 1.366 . S
C4829 C4828 1.366 . S
C4829 C4830 1.414 . S
C4829 C4832 1.499 . S
C4830 H4810 0.950 . S
C4830 C4829 1.414 . S
C4830 C4831 1.374 . S
C4831 H4811 0.950 . S
C4831 C4827 1.385 . S
C4831 C4830 1.374 . S
C4832 C4829 1.499 . S
C4832 C4833 1.373 . S
C4832 C4834 1.389 . S
C4833 H4812 0.950 . S
C4833 C4832 1.373 . S
C4833 C4849 1.377 . S
C4834 C4832 1.389 . S
C4834 C4835 1.524 . S
C4834 C4848 1.377 . S
C4835 C4834 1.524 . S
C4835 C4836 1.397 . S
C4835 C4840 1.363 . S
C4836 H4813 0.950 . S
C4836 C4835 1.397 . S
C4836 C4837 1.334 . S
C4837 H4814 0.950 . S
C4837 C4836 1.334 . S
C4837 C4838 1.287 . S
C4838 C4837 1.287 . S
C4838 C4839 1.524 . S
C4838 H4857 0.913 . S
C4839 H4815 0.950 . S
C4839 C4838 1.524 . S
C4839 C4840 1.415 . S
C4840 H4816 0.950 . S
C4840 C4835 1.363 . S
C4840 C4839 1.415 . S
C4841 H4817 0.951 . S
C4841 C4842 1.366 . S
C4841 C4843 1.388 . S
C4842 C4841 1.366 . S
C4842 C4846 1.385 . S
C4843 H4818 0.951 . S
C4843 C4841 1.388 . S
C4843 C4844 1.366 . S
C4844 C4843 1.366 . S
C4844 C4845 1.414 . S
C4844 C4847 1.499 . S
C4845 H4819 0.950 . S
C4845 C4844 1.414 . S
C4845 C4846 1.374 . S
C4846 H4820 0.950 . S
C4846 C4842 1.385 . S
C4846 C4845 1.374 . S
C4847 C4844 1.499 . S
C4847 C4848 1.373 . S
C4847 C4849 1.389 . S
C4848 H4821 0.950 . S
C4848 C4834 1.377 . S
C4848 C4847 1.373 . S
C4849 C4833 1.377 . S
C4849 C4847 1.389 . S
C4849 C4850 1.524 . S
C4850 C4849 1.524 . S
C4850 C4851 1.397 . S
C4850 C4855 1.363 . S
C4851 H4822 0.950 . S
C4851 C4850 1.397 . S
C4851 C4852 1.334 . S
C4852 H4823 0.950 . S
C4852 C4851 1.334 . S
C4852 C4853 1.287 . S
C4853 C4852 1.287 . S
C4853 C4854 1.524 . S
C4853 H4856 0.999 . S
C4854 H4824 0.950 . S
C4854 C4853 1.524 . S
C4854 C4855 1.415 . S
C4855 H4825 0.950 . S
C4855 C4850 1.363 . S
C4855 C4854 1.415 . S
H4856 C4853 0.999 . S
H4857 C4838 0.913 . S
H4858 C4876 0.951 . S
H4859 C4878 0.951 . S
H4860 C4880 0.950 . S
H4861 C4881 0.950 . S
H4862 C4883 0.950 . S
H4863 C4886 0.950 . S
H4864 C4887 0.950 . S
H4865 C4889 0.950 . S
H4866 C4890 0.950 . S
H4867 C4891 0.951 . S
H4868 C4893 0.951 . S
H4869 C4895 0.950 . S
H4870 C4896 0.950 . S
H4871 C4898 0.950 . S
H4872 C4901 0.950 . S
H4873 C4902 0.950 . S
H4874 C4904 0.950 . S
H4875 C4905 0.950 . S
C4876 H4858 0.951 . S
C4876 C4877 1.366 1_455 S
C4876 C4878 1.388 . S
C4877 C4876 1.366 1_655 S
C4877 C4881 1.385 . S
C4878 H4859 0.951 . S
C4878 C4876 1.388 . S
C4878 C4879 1.366 . S
C4879 C4878 1.366 . S
C4879 C4880 1.414 . S
C4879 C4882 1.499 . S
C4880 H4860 0.950 . S
C4880 C4879 1.414 . S
C4880 C4881 1.374 1_455 S
C4881 H4861 0.950 . S
C4881 C4877 1.385 . S
C4881 C4880 1.374 1_655 S
C4882 C4879 1.499 . S
C4882 C4883 1.373 . S
C4882 C4884 1.389 . S
C4883 H4862 0.950 . S
C4883 C4882 1.373 . S
C4883 C4899 1.377 . S
C4884 C4882 1.389 . S
C4884 C4885 1.524 . S
C4884 C4898 1.377 . S
C4885 C4884 1.524 . S
C4885 C4886 1.397 . S
C4885 C4890 1.363 . S
C4886 H4863 0.950 . S
C4886 C4885 1.397 . S
C4886 C4887 1.334 . S
C4887 H4864 0.950 . S
C4887 C4886 1.334 . S
C4887 C4888 1.287 . S
C4888 C4887 1.287 . S
C4888 C4889 1.524 . S
C4888 H4907 0.913 . S
C4889 H4865 0.950 . S
C4889 C4888 1.524 . S
C4889 C4890 1.415 . S
C4890 H4866 0.950 . S
C4890 C4885 1.363 . S
C4890 C4889 1.415 . S
C4891 H4867 0.951 . S
C4891 C4892 1.366 . S
C4891 C4893 1.388 . S
C4892 C4891 1.366 . S
C4892 C4896 1.385 . S
C4893 H4868 0.951 . S
C4893 C4891 1.388 . S
C4893 C4894 1.366 . S
C4894 C4893 1.366 . S
C4894 C4895 1.414 . S
C4894 C4897 1.499 . S
C4895 H4869 0.950 . S
C4895 C4894 1.414 . S
C4895 C4896 1.374 . S
C4896 H4870 0.950 . S
C4896 C4892 1.385 . S
C4896 C4895 1.374 . S
C4897 C4894 1.499 . S
C4897 C4898 1.373 . S
C4897 C4899 1.389 . S
C4898 H4871 0.950 . S
C4898 C4884 1.377 . S
C4898 C4897 1.373 . S
C4899 C4883 1.377 . S
C4899 C4897 1.389 . S
C4899 C4900 1.524 . S
C4900 C4899 1.524 . S
C4900 C4901 1.397 . S
C4900 C4905 1.363 . S
C4901 H4872 0.950 . S
C4901 C4900 1.397 . S
C4901 C4902 1.334 . S
C4902 H4873 0.950 . S
C4902 C4901 1.334 . S
C4902 C4903 1.287 . S
C4903 C4902 1.287 . S
C4903 C4904 1.524 . S
C4903 H4906 0.999 . S
C4904 H4874 0.950 . S
C4904 C4903 1.524 . S
C4904 C4905 1.415 . S
C4905 H4875 0.950 . S
C4905 C4900 1.363 . S
C4905 C4904 1.415 . S
H4906 C4903 0.999 . S
H4907 C4888 0.913 . S
H4908 C4926 0.951 . S
H4909 C4928 0.951 . S
H4910 C4930 0.950 . S
H4911 C4931 0.950 . S
H4912 C4933 0.950 . S
H4913 C4936 0.950 . S
H4914 C4937 0.950 . S
H4915 C4939 0.950 . S
H4916 C4940 0.950 . S
H4917 C4941 0.951 . S
H4918 C4943 0.951 . S
H4919 C4945 0.950 . S
H4920 C4946 0.950 . S
H4921 C4948 0.950 . S
H4922 C4951 0.950 . S
H4923 C4952 0.950 . S
H4924 C4954 0.950 . S
H4925 C4955 0.950 . S
C4926 H4908 0.951 . S
C4926 C4927 1.366 . S
C4926 C4928 1.388 . S
C4927 C4926 1.366 . S
C4927 C4931 1.385 . S
C4928 H4909 0.951 . S
C4928 C4926 1.388 . S
C4928 C4929 1.366 . S
C4929 C4928 1.366 . S
C4929 C4930 1.414 . S
C4929 C4932 1.499 . S
C4930 H4910 0.950 . S
C4930 C4929 1.414 . S
C4930 C4931 1.374 . S
C4931 H4911 0.950 . S
C4931 C4927 1.385 . S
C4931 C4930 1.374 . S
C4932 C4929 1.499 . S
C4932 C4933 1.373 . S
C4932 C4934 1.389 . S
C4933 H4912 0.950 . S
C4933 C4932 1.373 . S
C4933 C4949 1.377 . S
C4934 C4932 1.389 . S
C4934 C4935 1.524 . S
C4934 C4948 1.377 . S
C4935 C4934 1.524 . S
C4935 C4936 1.397 . S
C4935 C4940 1.363 . S
C4936 H4913 0.950 . S
C4936 C4935 1.397 . S
C4936 C4937 1.334 . S
C4937 H4914 0.950 . S
C4937 C4936 1.334 . S
C4937 C4938 1.287 . S
C4938 C4937 1.287 . S
C4938 C4939 1.524 . S
C4938 H4957 0.913 . S
C4939 H4915 0.950 . S
C4939 C4938 1.524 . S
C4939 C4940 1.415 . S
C4940 H4916 0.950 . S
C4940 C4935 1.363 . S
C4940 C4939 1.415 . S
C4941 H4917 0.951 . S
C4941 C4942 1.366 . S
C4941 C4943 1.388 . S
C4942 C4941 1.366 . S
C4942 C4946 1.385 . S
C4943 H4918 0.951 . S
C4943 C4941 1.388 . S
C4943 C4944 1.366 . S
C4944 C4943 1.366 . S
C4944 C4945 1.414 . S
C4944 C4947 1.499 . S
C4945 H4919 0.950 . S
C4945 C4944 1.414 . S
C4945 C4946 1.374 . S
C4946 H4920 0.950 . S
C4946 C4942 1.385 . S
C4946 C4945 1.374 . S
C4947 C4944 1.499 . S
C4947 C4948 1.373 . S
C4947 C4949 1.389 . S
C4948 H4921 0.950 . S
C4948 C4934 1.377 . S
C4948 C4947 1.373 . S
C4949 C4933 1.377 . S
C4949 C4947 1.389 . S
C4949 C4950 1.524 . S
C4950 C4949 1.524 . S
C4950 C4951 1.397 . S
C4950 C4955 1.363 . S
C4951 H4922 0.950 . S
C4951 C4950 1.397 . S
C4951 C4952 1.334 . S
C4952 H4923 0.950 . S
C4952 C4951 1.334 . S
C4952 C4953 1.287 . S
C4953 C4952 1.287 . S
C4953 C4954 1.524 . S
C4953 H4956 0.999 . S
C4954 H4924 0.950 . S
C4954 C4953 1.524 . S
C4954 C4955 1.415 . S
C4955 H4925 0.950 . S
C4955 C4950 1.363 . S
C4955 C4954 1.415 . S
H4956 C4953 0.999 . S
H4957 C4938 0.913 . S
H4958 C4976 0.951 . S
H4959 C4978 0.951 . S
H4960 C4980 0.950 . S
H4961 C4981 0.950 . S
H4962 C4983 0.950 . S
H4963 C4986 0.950 . S
H4964 C4987 0.950 . S
H4965 C4989 0.950 . S
H4966 C4990 0.950 . S
H4967 C4991 0.951 . S
H4968 C4993 0.951 . S
H4969 C4995 0.950 . S
H4970 C4996 0.950 . S
H4971 C4998 0.950 . S
H4972 C5001 0.950 . S
H4973 C5002 0.950 . S
H4974 C5004 0.950 . S
H4975 C5005 0.950 . S
C4976 H4958 0.951 . S
C4976 C4977 1.366 . S
C4976 C4978 1.388 . S
C4977 C4976 1.366 . S
C4977 C4981 1.385 . S
C4978 H4959 0.951 . S
C4978 C4976 1.388 . S
C4978 C4979 1.366 . S
C4979 C4978 1.366 . S
C4979 C4980 1.414 . S
C4979 C4982 1.499 . S
C4980 H4960 0.950 . S
C4980 C4979 1.414 . S
C4980 C4981 1.374 . S
C4981 H4961 0.950 . S
C4981 C4977 1.385 . S
C4981 C4980 1.374 . S
C4982 C4979 1.499 . S
C4982 C4983 1.373 . S
C4982 C4984 1.389 . S
C4983 H4962 0.950 . S
C4983 C4982 1.373 . S
C4983 C4999 1.377 . S
C4984 C4982 1.389 . S
C4984 C4985 1.524 . S
C4984 C4998 1.377 . S
C4985 C4984 1.524 . S
C4985 C4986 1.397 . S
C4985 C4990 1.363 . S
C4986 H4963 0.950 . S
C4986 C4985 1.397 . S
C4986 C4987 1.334 . S
C4987 H4964 0.950 . S
C4987 C4986 1.334 . S
C4987 C4988 1.287 . S
C4988 C4987 1.287 . S
C4988 C4989 1.524 . S
C4988 H5007 0.913 . S
C4989 H4965 0.950 . S
C4989 C4988 1.524 . S
C4989 C4990 1.415 . S
C4990 H4966 0.950 . S
C4990 C4985 1.363 . S
C4990 C4989 1.415 . S
C4991 H4967 0.951 . S
C4991 C4992 1.366 . S
C4991 C4993 1.388 . S
C4992 C4991 1.366 . S
C4992 C4996 1.385 . S
C4993 H4968 0.951 . S
C4993 C4991 1.388 . S
C4993 C4994 1.366 . S
C4994 C4993 1.366 . S
C4994 C4995 1.414 . S
C4994 C4997 1.499 . S
C4995 H4969 0.950 . S
C4995 C4994 1.414 . S
C4995 C4996 1.374 . S
C4996 H4970 0.950 . S
C4996 C4992 1.385 . S
C4996 C4995 1.374 . S
C4997 C4994 1.499 . S
C4997 C4998 1.373 . S
C4997 C4999 1.389 . S
C4998 H4971 0.950 . S
C4998 C4984 1.377 . S
C4998 C4997 1.373 . S
C4999 C4983 1.377 . S
C4999 C4997 1.389 . S
C4999 C5000 1.524 . S
C5000 C4999 1.524 . S
C5000 C5001 1.397 . S
C5000 C5005 1.363 . S
C5001 H4972 0.950 . S
C5001 C5000 1.397 . S
C5001 C5002 1.334 . S
C5002 H4973 0.950 . S
C5002 C5001 1.334 . S
C5002 C5003 1.287 . S
C5003 C5002 1.287 . S
C5003 C5004 1.524 . S
C5003 H5006 0.999 . S
C5004 H4974 0.950 . S
C5004 C5003 1.524 . S
C5004 C5005 1.415 . S
C5005 H4975 0.950 . S
C5005 C5000 1.363 . S
C5005 C5004 1.415 . S
H5006 C5003 0.999 . S
H5007 C4988 0.913 . S
H5008 C5026 0.951 . S
H5009 C5028 0.951 . S
H5010 C5030 0.950 . S
H5011 C5031 0.950 . S
H5012 C5033 0.950 . S
H5013 C5036 0.950 . S
H5014 C5037 0.950 . S
H5015 C5039 0.950 . S
H5016 C5040 0.950 . S
H5017 C5041 0.951 . S
H5018 C5043 0.951 . S
H5019 C5045 0.950 . S
H5020 C5046 0.950 . S
H5021 C5048 0.950 . S
H5022 C5051 0.950 . S
H5023 C5052 0.950 . S
H5024 C5054 0.950 . S
H5025 C5055 0.950 . S
C5026 H5008 0.951 . S
C5026 C5027 1.366 . S
C5026 C5028 1.388 . S
C5027 C5026 1.366 . S
C5027 C5031 1.385 . S
C5028 H5009 0.951 . S
C5028 C5026 1.388 . S
C5028 C5029 1.366 . S
C5029 C5028 1.366 . S
C5029 C5030 1.414 . S
C5029 C5032 1.499 . S
C5030 H5010 0.950 . S
C5030 C5029 1.414 . S
C5030 C5031 1.374 . S
C5031 H5011 0.950 . S
C5031 C5027 1.385 . S
C5031 C5030 1.374 . S
C5032 C5029 1.499 . S
C5032 C5033 1.373 . S
C5032 C5034 1.389 . S
C5033 H5012 0.950 . S
C5033 C5032 1.373 . S
C5033 C5049 1.377 . S
C5034 C5032 1.389 . S
C5034 C5035 1.524 . S
C5034 C5048 1.377 . S
C5035 C5034 1.524 . S
C5035 C5036 1.397 . S
C5035 C5040 1.363 . S
C5036 H5013 0.950 . S
C5036 C5035 1.397 . S
C5036 C5037 1.334 . S
C5037 H5014 0.950 . S
C5037 C5036 1.334 . S
C5037 C5038 1.287 . S
C5038 C5037 1.287 . S
C5038 C5039 1.524 . S
C5038 H5057 0.913 . S
C5039 H5015 0.950 . S
C5039 C5038 1.524 . S
C5039 C5040 1.415 . S
C5040 H5016 0.950 . S
C5040 C5035 1.363 . S
C5040 C5039 1.415 . S
C5041 H5017 0.951 . S
C5041 C5042 1.366 . S
C5041 C5043 1.388 . S
C5042 C5041 1.366 . S
C5042 C5046 1.385 . S
C5043 H5018 0.951 . S
C5043 C5041 1.388 . S
C5043 C5044 1.366 . S
C5044 C5043 1.366 . S
C5044 C5045 1.414 . S
C5044 C5047 1.499 . S
C5045 H5019 0.950 . S
C5045 C5044 1.414 . S
C5045 C5046 1.374 . S
C5046 H5020 0.950 . S
C5046 C5042 1.385 . S
C5046 C5045 1.374 . S
C5047 C5044 1.499 . S
C5047 C5048 1.373 . S
C5047 C5049 1.389 . S
C5048 H5021 0.950 . S
C5048 C5034 1.377 . S
C5048 C5047 1.373 . S
C5049 C5033 1.377 . S
C5049 C5047 1.389 . S
C5049 C5050 1.524 . S
C5050 C5049 1.524 . S
C5050 C5051 1.397 . S
C5050 C5055 1.363 . S
C5051 H5022 0.950 . S
C5051 C5050 1.397 . S
C5051 C5052 1.334 . S
C5052 H5023 0.950 . S
C5052 C5051 1.334 . S
C5052 C5053 1.287 . S
C5053 C5052 1.287 . S
C5053 C5054 1.524 . S
C5053 H5056 0.999 . S
C5054 H5024 0.950 . S
C5054 C5053 1.524 . S
C5054 C5055 1.415 . S
C5055 H5025 0.950 . S
C5055 C5050 1.363 . S
C5055 C5054 1.415 . S
H5056 C5053 0.999 . S
H5057 C5038 0.913 . S
H5058 C5076 0.951 . S
H5059 C5078 0.951 . S
H5060 C5080 0.950 . S
H5061 C5081 0.950 . S
H5062 C5083 0.950 . S
H5063 C5086 0.950 . S
H5064 C5087 0.950 . S
H5065 C5089 0.950 . S
H5066 C5090 0.950 . S
H5067 C5091 0.951 . S
H5068 C5093 0.951 . S
H5069 C5095 0.950 . S
H5070 C5096 0.950 . S
H5071 C5098 0.950 . S
H5072 C5101 0.950 . S
H5073 C5102 0.950 . S
H5074 C5104 0.950 . S
H5075 C5105 0.950 . S
C5076 H5058 0.951 . S
C5076 C5077 1.366 . S
C5076 C5078 1.388 . S
C5077 C5076 1.366 . S
C5077 C5081 1.385 . S
C5078 H5059 0.951 . S
C5078 C5076 1.388 . S
C5078 C5079 1.366 . S
C5079 C5078 1.366 . S
C5079 C5080 1.414 . S
C5079 C5082 1.499 . S
C5080 H5060 0.950 . S
C5080 C5079 1.414 . S
C5080 C5081 1.374 . S
C5081 H5061 0.950 . S
C5081 C5077 1.385 . S
C5081 C5080 1.374 . S
C5082 C5079 1.499 . S
C5082 C5083 1.373 . S
C5082 C5084 1.389 . S
C5083 H5062 0.950 . S
C5083 C5082 1.373 . S
C5083 C5099 1.377 . S
C5084 C5082 1.389 . S
C5084 C5085 1.524 . S
C5084 C5098 1.377 . S
C5085 C5084 1.524 . S
C5085 C5086 1.397 . S
C5085 C5090 1.363 . S
C5086 H5063 0.950 . S
C5086 C5085 1.397 . S
C5086 C5087 1.334 . S
C5087 H5064 0.950 . S
C5087 C5086 1.334 . S
C5087 C5088 1.287 . S
C5088 C5087 1.287 . S
C5088 C5089 1.524 . S
C5088 H5107 0.913 . S
C5089 H5065 0.950 . S
C5089 C5088 1.524 . S
C5089 C5090 1.415 . S
C5090 H5066 0.950 . S
C5090 C5085 1.363 . S
C5090 C5089 1.415 . S
C5091 H5067 0.951 . S
C5091 C5092 1.366 . S
C5091 C5093 1.388 . S
C5092 C5091 1.366 . S
C5092 C5096 1.385 . S
C5093 H5068 0.951 . S
C5093 C5091 1.388 . S
C5093 C5094 1.366 . S
C5094 C5093 1.366 . S
C5094 C5095 1.414 . S
C5094 C5097 1.499 . S
C5095 H5069 0.950 . S
C5095 C5094 1.414 . S
C5095 C5096 1.374 . S
C5096 H5070 0.950 . S
C5096 C5092 1.385 . S
C5096 C5095 1.374 . S
C5097 C5094 1.499 . S
C5097 C5098 1.373 . S
C5097 C5099 1.389 . S
C5098 H5071 0.950 . S
C5098 C5084 1.377 . S
C5098 C5097 1.373 . S
C5099 C5083 1.377 . S
C5099 C5097 1.389 . S
C5099 C5100 1.524 . S
C5100 C5099 1.524 . S
C5100 C5101 1.397 . S
C5100 C5105 1.363 . S
C5101 H5072 0.950 . S
C5101 C5100 1.397 . S
C5101 C5102 1.334 . S
C5102 H5073 0.950 . S
C5102 C5101 1.334 . S
C5102 C5103 1.287 . S
C5103 C5102 1.287 . S
C5103 C5104 1.524 . S
C5103 H5106 0.999 . S
C5104 H5074 0.950 . S
C5104 C5103 1.524 . S
C5104 C5105 1.415 . S
C5105 H5075 0.950 . S
C5105 C5100 1.363 . S
C5105 C5104 1.415 . S
H5106 C5103 0.999 . S
H5107 C5088 0.913 . S
H5108 C5126 0.951 . S
H5109 C5128 0.951 . S
H5110 C5130 0.950 . S
H5111 C5131 0.950 . S
H5112 C5133 0.950 . S
H5113 C5136 0.950 . S
H5114 C5137 0.950 . S
H5115 C5139 0.950 . S
H5116 C5140 0.950 . S
H5117 C5141 0.951 . S
H5118 C5143 0.951 . S
H5119 C5145 0.950 . S
H5120 C5146 0.950 . S
H5121 C5148 0.950 . S
H5122 C5151 0.950 . S
H5123 C5152 0.950 . S
H5124 C5154 0.950 . S
H5125 C5155 0.950 . S
C5126 H5108 0.951 . S
C5126 C5127 1.366 . S
C5126 C5128 1.388 . S
C5127 C5126 1.366 . S
C5127 C5131 1.385 . S
C5128 H5109 0.951 . S
C5128 C5126 1.388 . S
C5128 C5129 1.366 . S
C5129 C5128 1.366 . S
C5129 C5130 1.414 . S
C5129 C5132 1.499 . S
C5130 H5110 0.950 . S
C5130 C5129 1.414 . S
C5130 C5131 1.374 . S
C5131 H5111 0.950 . S
C5131 C5127 1.385 . S
C5131 C5130 1.374 . S
C5132 C5129 1.499 . S
C5132 C5133 1.373 . S
C5132 C5134 1.389 . S
C5133 H5112 0.950 . S
C5133 C5132 1.373 . S
C5133 C5149 1.377 . S
C5134 C5132 1.389 . S
C5134 C5135 1.524 . S
C5134 C5148 1.377 . S
C5135 C5134 1.524 . S
C5135 C5136 1.397 . S
C5135 C5140 1.363 . S
C5136 H5113 0.950 . S
C5136 C5135 1.397 . S
C5136 C5137 1.334 . S
C5137 H5114 0.950 . S
C5137 C5136 1.334 . S
C5137 C5138 1.287 . S
C5138 C5137 1.287 . S
C5138 C5139 1.524 . S
C5138 H5157 0.913 . S
C5139 H5115 0.950 . S
C5139 C5138 1.524 . S
C5139 C5140 1.415 . S
C5140 H5116 0.950 . S
C5140 C5135 1.363 . S
C5140 C5139 1.415 . S
C5141 H5117 0.951 . S
C5141 C5142 1.366 . S
C5141 C5143 1.388 . S
C5142 C5141 1.366 . S
C5142 C5146 1.385 . S
C5143 H5118 0.951 . S
C5143 C5141 1.388 . S
C5143 C5144 1.366 . S
C5144 C5143 1.366 . S
C5144 C5145 1.414 . S
C5144 C5147 1.499 . S
C5145 H5119 0.950 . S
C5145 C5144 1.414 . S
C5145 C5146 1.374 . S
C5146 H5120 0.950 . S
C5146 C5142 1.385 . S
C5146 C5145 1.374 . S
C5147 C5144 1.499 . S
C5147 C5148 1.373 . S
C5147 C5149 1.389 . S
C5148 H5121 0.950 . S
C5148 C5134 1.377 . S
C5148 C5147 1.373 . S
C5149 C5133 1.377 . S
C5149 C5147 1.389 . S
C5149 C5150 1.524 . S
C5150 C5149 1.524 . S
C5150 C5151 1.397 . S
C5150 C5155 1.363 . S
C5151 H5122 0.950 . S
C5151 C5150 1.397 . S
C5151 C5152 1.334 . S
C5152 H5123 0.950 . S
C5152 C5151 1.334 . S
C5152 C5153 1.287 . S
C5153 C5152 1.287 . S
C5153 C5154 1.524 . S
C5153 H5156 0.999 . S
C5154 H5124 0.950 . S
C5154 C5153 1.524 . S
C5154 C5155 1.415 . S
C5155 H5125 0.950 . S
C5155 C5150 1.363 . S
C5155 C5154 1.415 . S
H5156 C5153 0.999 . S
H5157 C5138 0.913 . S
H5158 C5176 0.951 . S
H5159 C5178 0.951 . S
H5160 C5180 0.950 . S
H5161 C5181 0.950 . S
H5162 C5183 0.950 . S
H5163 C5186 0.950 . S
H5164 C5187 0.950 . S
H5165 C5189 0.950 . S
H5166 C5190 0.950 . S
H5167 C5191 0.951 . S
H5168 C5193 0.951 . S
H5169 C5195 0.950 . S
H5170 C5196 0.950 . S
H5171 C5198 0.950 . S
H5172 C5201 0.950 . S
H5173 C5202 0.950 . S
H5174 C5204 0.950 . S
H5175 C5205 0.950 . S
C5176 H5158 0.951 . S
C5176 C5177 1.366 . S
C5176 C5178 1.388 . S
C5177 C5176 1.366 . S
C5177 C5181 1.385 . S
C5178 H5159 0.951 . S
C5178 C5176 1.388 . S
C5178 C5179 1.366 . S
C5179 C5178 1.366 . S
C5179 C5180 1.414 . S
C5179 C5182 1.499 . S
C5180 H5160 0.950 . S
C5180 C5179 1.414 . S
C5180 C5181 1.374 . S
C5181 H5161 0.950 . S
C5181 C5177 1.385 . S
C5181 C5180 1.374 . S
C5182 C5179 1.499 . S
C5182 C5183 1.373 . S
C5182 C5184 1.389 . S
C5183 H5162 0.950 . S
C5183 C5182 1.373 . S
C5183 C5199 1.377 . S
C5184 C5182 1.389 . S
C5184 C5185 1.524 . S
C5184 C5198 1.377 . S
C5185 C5184 1.524 . S
C5185 C5186 1.397 . S
C5185 C5190 1.363 . S
C5186 H5163 0.950 . S
C5186 C5185 1.397 . S
C5186 C5187 1.334 . S
C5187 H5164 0.950 . S
C5187 C5186 1.334 . S
C5187 C5188 1.287 . S
C5188 C5187 1.287 . S
C5188 C5189 1.524 . S
C5188 H5207 0.913 . S
C5189 H5165 0.950 . S
C5189 C5188 1.524 . S
C5189 C5190 1.415 . S
C5190 H5166 0.950 . S
C5190 C5185 1.363 . S
C5190 C5189 1.415 . S
C5191 H5167 0.951 . S
C5191 C5192 1.366 . S
C5191 C5193 1.388 . S
C5192 C5191 1.366 . S
C5192 C5196 1.385 . S
C5193 H5168 0.951 . S
C5193 C5191 1.388 . S
C5193 C5194 1.366 . S
C5194 C5193 1.366 . S
C5194 C5195 1.414 . S
C5194 C5197 1.499 . S
C5195 H5169 0.950 . S
C5195 C5194 1.414 . S
C5195 C5196 1.374 . S
C5196 H5170 0.950 . S
C5196 C5192 1.385 . S
C5196 C5195 1.374 . S
C5197 C5194 1.499 . S
C5197 C5198 1.373 . S
C5197 C5199 1.389 . S
C5198 H5171 0.950 . S
C5198 C5184 1.377 . S
C5198 C5197 1.373 . S
C5199 C5183 1.377 . S
C5199 C5197 1.389 . S
C5199 C5200 1.524 . S
C5200 C5199 1.524 . S
C5200 C5201 1.397 . S
C5200 C5205 1.363 . S
C5201 H5172 0.950 . S
C5201 C5200 1.397 . S
C5201 C5202 1.334 . S
C5202 H5173 0.950 . S
C5202 C5201 1.334 . S
C5202 C5203 1.287 . S
C5203 C5202 1.287 . S
C5203 C5204 1.524 . S
C5203 H5206 0.999 . S
C5204 H5174 0.950 . S
C5204 C5203 1.524 . S
C5204 C5205 1.415 . S
C5205 H5175 0.950 . S
C5205 C5200 1.363 . S
C5205 C5204 1.415 . S
H5206 C5203 0.999 . S
H5207 C5188 0.913 . S
H5208 C5226 0.951 . S
H5209 C5228 0.951 . S
H5210 C5230 0.950 . S
H5211 C5231 0.950 . S
H5212 C5233 0.950 . S
H5213 C5236 0.950 . S
H5214 C5237 0.950 . S
H5215 C5239 0.950 . S
H5216 C5240 0.950 . S
H5217 C5241 0.951 1_565 S
H5218 C5243 0.951 . S
H5219 C5245 0.950 . S
H5220 C5246 0.950 . S
H5221 C5248 0.950 . S
H5222 C5251 0.950 . S
H5223 C5252 0.950 . S
H5224 C5254 0.950 . S
H5225 C5255 0.950 1_565 S
C5226 H5208 0.951 . S
C5226 C5227 1.366 . S
C5226 C5228 1.388 . S
C5227 C5226 1.366 . S
C5227 C5231 1.385 . S
C5228 H5209 0.951 . S
C5228 C5226 1.388 . S
C5228 C5229 1.366 . S
C5229 C5228 1.366 . S
C5229 C5230 1.414 . S
C5229 C5232 1.499 . S
C5230 H5210 0.950 . S
C5230 C5229 1.414 . S
C5230 C5231 1.374 . S
C5231 H5211 0.950 . S
C5231 C5227 1.385 . S
C5231 C5230 1.374 . S
C5232 C5229 1.499 . S
C5232 C5233 1.373 . S
C5232 C5234 1.389 . S
C5233 H5212 0.950 . S
C5233 C5232 1.373 . S
C5233 C5249 1.377 . S
C5234 C5232 1.389 . S
C5234 C5235 1.524 . S
C5234 C5248 1.377 . S
C5235 C5234 1.524 . S
C5235 C5236 1.397 . S
C5235 C5240 1.363 . S
C5236 H5213 0.950 . S
C5236 C5235 1.397 . S
C5236 C5237 1.334 . S
C5237 H5214 0.950 . S
C5237 C5236 1.334 . S
C5237 C5238 1.287 . S
C5238 C5237 1.287 . S
C5238 C5239 1.524 . S
C5238 H5257 0.913 . S
C5239 H5215 0.950 . S
C5239 C5238 1.524 . S
C5239 C5240 1.415 . S
C5240 H5216 0.950 . S
C5240 C5235 1.363 . S
C5240 C5239 1.415 . S
C5241 H5217 0.951 1_545 S
C5241 C5242 1.366 . S
C5241 C5243 1.388 . S
C5242 C5241 1.366 . S
C5242 C5246 1.385 . S
C5243 H5218 0.951 . S
C5243 C5241 1.388 . S
C5243 C5244 1.366 . S
C5244 C5243 1.366 . S
C5244 C5245 1.414 . S
C5244 C5247 1.499 . S
C5245 H5219 0.950 . S
C5245 C5244 1.414 . S
C5245 C5246 1.374 . S
C5246 H5220 0.950 . S
C5246 C5242 1.385 . S
C5246 C5245 1.374 . S
C5247 C5244 1.499 . S
C5247 C5248 1.373 . S
C5247 C5249 1.389 . S
C5248 H5221 0.950 . S
C5248 C5234 1.377 . S
C5248 C5247 1.373 . S
C5249 C5233 1.377 . S
C5249 C5247 1.389 . S
C5249 C5250 1.524 . S
C5250 C5249 1.524 . S
C5250 C5251 1.397 . S
C5250 C5255 1.363 . S
C5251 H5222 0.950 . S
C5251 C5250 1.397 . S
C5251 C5252 1.334 . S
C5252 H5223 0.950 . S
C5252 C5251 1.334 . S
C5252 C5253 1.287 . S
C5253 C5252 1.287 . S
C5253 C5254 1.524 1_545 S
C5253 H5256 0.999 1_545 S
C5254 H5224 0.950 . S
C5254 C5253 1.524 1_565 S
C5254 C5255 1.415 1_565 S
C5255 H5225 0.950 1_545 S
C5255 C5250 1.363 . S
C5255 C5254 1.415 1_545 S
H5256 C5253 0.999 1_565 S
H5257 C5238 0.913 . S
H5258 C5276 0.951 . S
H5259 C5278 0.951 . S
H5260 C5280 0.950 . S
H5261 C5281 0.950 . S
H5262 C5283 0.950 . S
H5263 C5286 0.950 . S
H5264 C5287 0.950 . S
H5265 C5289 0.950 . S
H5266 C5290 0.950 . S
H5267 C5291 0.951 . S
H5268 C5293 0.951 . S
H5269 C5295 0.950 . S
H5270 C5296 0.950 . S
H5271 C5298 0.950 . S
H5272 C5301 0.950 . S
H5273 C5302 0.950 . S
H5274 C5304 0.950 . S
H5275 C5305 0.950 . S
C5276 H5258 0.951 . S
C5276 C5277 1.366 . S
C5276 C5278 1.388 . S
C5277 C5276 1.366 . S
C5277 C5281 1.385 . S
C5278 H5259 0.951 . S
C5278 C5276 1.388 . S
C5278 C5279 1.366 . S
C5279 C5278 1.366 . S
C5279 C5280 1.414 . S
C5279 C5282 1.499 . S
C5280 H5260 0.950 . S
C5280 C5279 1.414 . S
C5280 C5281 1.374 . S
C5281 H5261 0.950 . S
C5281 C5277 1.385 . S
C5281 C5280 1.374 . S
C5282 C5279 1.499 . S
C5282 C5283 1.373 . S
C5282 C5284 1.389 . S
C5283 H5262 0.950 . S
C5283 C5282 1.373 . S
C5283 C5299 1.377 . S
C5284 C5282 1.389 . S
C5284 C5285 1.524 . S
C5284 C5298 1.377 . S
C5285 C5284 1.524 . S
C5285 C5286 1.397 . S
C5285 C5290 1.363 . S
C5286 H5263 0.950 . S
C5286 C5285 1.397 . S
C5286 C5287 1.334 . S
C5287 H5264 0.950 . S
C5287 C5286 1.334 . S
C5287 C5288 1.287 . S
C5288 C5287 1.287 . S
C5288 C5289 1.524 . S
C5288 H5307 0.913 . S
C5289 H5265 0.950 . S
C5289 C5288 1.524 . S
C5289 C5290 1.415 . S
C5290 H5266 0.950 . S
C5290 C5285 1.363 . S
C5290 C5289 1.415 . S
C5291 H5267 0.951 . S
C5291 C5292 1.366 . S
C5291 C5293 1.388 . S
C5292 C5291 1.366 . S
C5292 C5296 1.385 . S
C5293 H5268 0.951 . S
C5293 C5291 1.388 . S
C5293 C5294 1.366 . S
C5294 C5293 1.366 . S
C5294 C5295 1.414 . S
C5294 C5297 1.499 . S
C5295 H5269 0.950 . S
C5295 C5294 1.414 . S
C5295 C5296 1.374 . S
C5296 H5270 0.950 . S
C5296 C5292 1.385 . S
C5296 C5295 1.374 . S
C5297 C5294 1.499 . S
C5297 C5298 1.373 . S
C5297 C5299 1.389 . S
C5298 H5271 0.950 . S
C5298 C5284 1.377 . S
C5298 C5297 1.373 . S
C5299 C5283 1.377 . S
C5299 C5297 1.389 . S
C5299 C5300 1.524 . S
C5300 C5299 1.524 . S
C5300 C5301 1.397 . S
C5300 C5305 1.363 . S
C5301 H5272 0.950 . S
C5301 C5300 1.397 . S
C5301 C5302 1.334 . S
C5302 H5273 0.950 . S
C5302 C5301 1.334 . S
C5302 C5303 1.287 . S
C5303 C5302 1.287 . S
C5303 C5304 1.524 . S
C5303 H5306 0.999 . S
C5304 H5274 0.950 . S
C5304 C5303 1.524 . S
C5304 C5305 1.415 . S
C5305 H5275 0.950 . S
C5305 C5300 1.363 . S
C5305 C5304 1.415 . S
H5306 C5303 0.999 . S
H5307 C5288 0.913 . S
H5308 C5326 0.951 1_554 S
H5309 C5328 0.951 . S
H5310 C5330 0.950 . S
H5311 C5331 0.950 1_554 S
H5312 C5333 0.950 . S
H5313 C5336 0.950 . S
H5314 C5337 0.950 1_545 S
H5315 C5339 0.950 . S
H5316 C5340 0.950 . S
H5317 C5341 0.951 . S
H5318 C5343 0.951 . S
H5319 C5345 0.950 . S
H5320 C5346 0.950 . S
H5321 C5348 0.950 . S
H5322 C5351 0.950 . S
H5323 C5352 0.950 . S
H5324 C5354 0.950 . S
H5325 C5355 0.950 . S
C5326 H5308 0.951 1_556 S
C5326 C5327 1.366 1_556 S
C5326 C5328 1.388 . S
C5327 C5326 1.366 1_554 S
C5327 C5331 1.385 1_554 S
C5328 H5309 0.951 . S
C5328 C5326 1.388 . S
C5328 C5329 1.366 . S
C5329 C5328 1.366 . S
C5329 C5330 1.414 . S
C5329 C5332 1.499 . S
C5330 H5310 0.950 . S
C5330 C5329 1.414 . S
C5330 C5331 1.374 . S
C5331 H5311 0.950 1_556 S
C5331 C5327 1.385 1_556 S
C5331 C5330 1.374 . S
C5332 C5329 1.499 . S
C5332 C5333 1.373 . S
C5332 C5334 1.389 . S
C5333 H5312 0.950 . S
C5333 C5332 1.373 . S
C5333 C5349 1.377 . S
C5334 C5332 1.389 . S
C5334 C5335 1.524 . S
C5334 C5348 1.377 . S
C5335 C5334 1.524 . S
C5335 C5336 1.397 . S
C5335 C5340 1.363 . S
C5336 H5313 0.950 . S
C5336 C5335 1.397 . S
C5336 C5337 1.334 . S
C5337 H5314 0.950 1_565 S
C5337 C5336 1.334 . S
C5337 C5338 1.287 . S
C5338 C5337 1.287 . S
C5338 C5339 1.524 . S
C5338 H5357 0.913 1_565 S
C5339 H5315 0.950 . S
C5339 C5338 1.524 . S
C5339 C5340 1.415 . S
C5340 H5316 0.950 . S
C5340 C5335 1.363 . S
C5340 C5339 1.415 . S
C5341 H5317 0.951 . S
C5341 C5342 1.366 . S
C5341 C5343 1.388 . S
C5342 C5341 1.366 . S
C5342 C5346 1.385 . S
C5343 H5318 0.951 . S
C5343 C5341 1.388 . S
C5343 C5344 1.366 . S
C5344 C5343 1.366 . S
C5344 C5345 1.414 . S
C5344 C5347 1.499 . S
C5345 H5319 0.950 . S
C5345 C5344 1.414 . S
C5345 C5346 1.374 . S
C5346 H5320 0.950 . S
C5346 C5342 1.385 . S
C5346 C5345 1.374 . S
C5347 C5344 1.499 . S
C5347 C5348 1.373 . S
C5347 C5349 1.389 . S
C5348 H5321 0.950 . S
C5348 C5334 1.377 . S
C5348 C5347 1.373 . S
C5349 C5333 1.377 . S
C5349 C5347 1.389 . S
C5349 C5350 1.524 . S
C5350 C5349 1.524 . S
C5350 C5351 1.397 . S
C5350 C5355 1.363 . S
C5351 H5322 0.950 . S
C5351 C5350 1.397 . S
C5351 C5352 1.334 . S
C5352 H5323 0.950 . S
C5352 C5351 1.334 . S
C5352 C5353 1.287 . S
C5353 C5352 1.287 . S
C5353 C5354 1.524 . S
C5353 H5356 0.999 . S
C5354 H5324 0.950 . S
C5354 C5353 1.524 . S
C5354 C5355 1.415 . S
C5355 H5325 0.950 . S
C5355 C5350 1.363 . S
C5355 C5354 1.415 . S
H5356 C5353 0.999 . S
H5357 C5338 0.913 1_545 S
H5358 C5376 0.951 . S
H5359 C5378 0.951 . S
H5360 C5380 0.950 . S
H5361 C5381 0.950 . S
H5362 C5383 0.950 . S
H5363 C5386 0.950 . S
H5364 C5387 0.950 . S
H5365 C5389 0.950 . S
H5366 C5390 0.950 . S
H5367 C5391 0.951 . S
H5368 C5393 0.951 . S
H5369 C5395 0.950 . S
H5370 C5396 0.950 . S
H5371 C5398 0.950 . S
H5372 C5401 0.950 . S
H5373 C5402 0.950 . S
H5374 C5404 0.950 . S
H5375 C5405 0.950 . S
C5376 H5358 0.951 . S
C5376 C5377 1.366 . S
C5376 C5378 1.388 . S
C5377 C5376 1.366 . S
C5377 C5381 1.385 . S
C5378 H5359 0.951 . S
C5378 C5376 1.388 . S
C5378 C5379 1.366 . S
C5379 C5378 1.366 . S
C5379 C5380 1.414 . S
C5379 C5382 1.499 . S
C5380 H5360 0.950 . S
C5380 C5379 1.414 . S
C5380 C5381 1.374 . S
C5381 H5361 0.950 . S
C5381 C5377 1.385 . S
C5381 C5380 1.374 . S
C5382 C5379 1.499 . S
C5382 C5383 1.373 . S
C5382 C5384 1.389 . S
C5383 H5362 0.950 . S
C5383 C5382 1.373 . S
C5383 C5399 1.377 . S
C5384 C5382 1.389 . S
C5384 C5385 1.524 . S
C5384 C5398 1.377 . S
C5385 C5384 1.524 . S
C5385 C5386 1.397 . S
C5385 C5390 1.363 . S
C5386 H5363 0.950 . S
C5386 C5385 1.397 . S
C5386 C5387 1.334 . S
C5387 H5364 0.950 . S
C5387 C5386 1.334 . S
C5387 C5388 1.287 . S
C5388 C5387 1.287 . S
C5388 C5389 1.524 . S
C5388 H5407 0.913 . S
C5389 H5365 0.950 . S
C5389 C5388 1.524 . S
C5389 C5390 1.415 . S
C5390 H5366 0.950 . S
C5390 C5385 1.363 . S
C5390 C5389 1.415 . S
C5391 H5367 0.951 . S
C5391 C5392 1.366 . S
C5391 C5393 1.388 . S
C5392 C5391 1.366 . S
C5392 C5396 1.385 . S
C5393 H5368 0.951 . S
C5393 C5391 1.388 . S
C5393 C5394 1.366 . S
C5394 C5393 1.366 . S
C5394 C5395 1.414 . S
C5394 C5397 1.499 . S
C5395 H5369 0.950 . S
C5395 C5394 1.414 . S
C5395 C5396 1.374 . S
C5396 H5370 0.950 . S
C5396 C5392 1.385 . S
C5396 C5395 1.374 . S
C5397 C5394 1.499 . S
C5397 C5398 1.373 . S
C5397 C5399 1.389 . S
C5398 H5371 0.950 . S
C5398 C5384 1.377 . S
C5398 C5397 1.373 . S
C5399 C5383 1.377 . S
C5399 C5397 1.389 . S
C5399 C5400 1.524 . S
C5400 C5399 1.524 . S
C5400 C5401 1.397 . S
C5400 C5405 1.363 . S
C5401 H5372 0.950 . S
C5401 C5400 1.397 . S
C5401 C5402 1.334 . S
C5402 H5373 0.950 . S
C5402 C5401 1.334 . S
C5402 C5403 1.287 . S
C5403 C5402 1.287 . S
C5403 C5404 1.524 . S
C5403 H5406 0.999 . S
C5404 H5374 0.950 . S
C5404 C5403 1.524 . S
C5404 C5405 1.415 . S
C5405 H5375 0.950 . S
C5405 C5400 1.363 . S
C5405 C5404 1.415 . S
H5406 C5403 0.999 . S
H5407 C5388 0.913 . S
H5408 C5426 0.951 1_556 S
H5409 C5428 0.951 . S
H5410 C5430 0.950 . S
H5411 C5431 0.950 . S
H5412 C5433 0.950 . S
H5413 C5436 0.950 . S
H5414 C5437 0.950 . S
H5415 C5439 0.950 . S
H5416 C5440 0.950 . S
H5417 C5441 0.951 . S
H5418 C5443 0.951 . S
H5419 C5445 0.950 . S
H5420 C5446 0.950 . S
H5421 C5448 0.950 . S
H5422 C5451 0.950 . S
H5423 C5452 0.950 . S
H5424 C5454 0.950 . S
H5425 C5455 0.950 . S
C5426 H5408 0.951 1_554 S
C5426 C5427 1.366 1_554 S
C5426 C5428 1.388 . S
C5427 C5426 1.366 1_556 S
C5427 C5431 1.385 . S
C5428 H5409 0.951 . S
C5428 C5426 1.388 . S
C5428 C5429 1.366 . S
C5429 C5428 1.366 . S
C5429 C5430 1.414 . S
C5429 C5432 1.499 . S
C5430 H5410 0.950 . S
C5430 C5429 1.414 . S
C5430 C5431 1.374 1_554 S
C5431 H5411 0.950 . S
C5431 C5427 1.385 . S
C5431 C5430 1.374 1_556 S
C5432 C5429 1.499 . S
C5432 C5433 1.373 . S
C5432 C5434 1.389 . S
C5433 H5412 0.950 . S
C5433 C5432 1.373 . S
C5433 C5449 1.377 . S
C5434 C5432 1.389 . S
C5434 C5435 1.524 . S
C5434 C5448 1.377 . S
C5435 C5434 1.524 . S
C5435 C5436 1.397 . S
C5435 C5440 1.363 . S
C5436 H5413 0.950 . S
C5436 C5435 1.397 . S
C5436 C5437 1.334 . S
C5437 H5414 0.950 . S
C5437 C5436 1.334 . S
C5437 C5438 1.287 . S
C5438 C5437 1.287 . S
C5438 C5439 1.524 . S
C5438 H5457 0.913 . S
C5439 H5415 0.950 . S
C5439 C5438 1.524 . S
C5439 C5440 1.415 . S
C5440 H5416 0.950 . S
C5440 C5435 1.363 . S
C5440 C5439 1.415 . S
C5441 H5417 0.951 . S
C5441 C5442 1.366 . S
C5441 C5443 1.388 . S
C5442 C5441 1.366 . S
C5442 C5446 1.385 . S
C5443 H5418 0.951 . S
C5443 C5441 1.388 . S
C5443 C5444 1.366 . S
C5444 C5443 1.366 . S
C5444 C5445 1.414 . S
C5444 C5447 1.499 . S
C5445 H5419 0.950 . S
C5445 C5444 1.414 . S
C5445 C5446 1.374 . S
C5446 H5420 0.950 . S
C5446 C5442 1.385 . S
C5446 C5445 1.374 . S
C5447 C5444 1.499 . S
C5447 C5448 1.373 . S
C5447 C5449 1.389 . S
C5448 H5421 0.950 . S
C5448 C5434 1.377 . S
C5448 C5447 1.373 . S
C5449 C5433 1.377 . S
C5449 C5447 1.389 . S
C5449 C5450 1.524 . S
C5450 C5449 1.524 . S
C5450 C5451 1.397 1_565 S
C5450 C5455 1.363 . S
C5451 H5422 0.950 . S
C5451 C5450 1.397 1_545 S
C5451 C5452 1.334 . S
C5452 H5423 0.950 . S
C5452 C5451 1.334 . S
C5452 C5453 1.287 . S
C5453 C5452 1.287 . S
C5453 C5454 1.524 . S
C5453 H5456 0.999 . S
C5454 H5424 0.950 . S
C5454 C5453 1.524 . S
C5454 C5455 1.415 1_545 S
C5455 H5425 0.950 . S
C5455 C5450 1.363 . S
C5455 C5454 1.415 1_565 S
H5456 C5453 0.999 . S
H5457 C5438 0.913 . S
H5458 C5476 0.951 . S
H5459 C5478 0.951 . S
H5460 C5480 0.950 . S
H5461 C5481 0.950 . S
H5462 C5483 0.950 . S
H5463 C5486 0.950 . S
H5464 C5487 0.950 . S
H5465 C5489 0.950 . S
H5466 C5490 0.950 . S
H5467 C5491 0.951 . S
H5468 C5493 0.951 . S
H5469 C5495 0.950 . S
H5470 C5496 0.950 . S
H5471 C5498 0.950 . S
H5472 C5501 0.950 . S
H5473 C5502 0.950 . S
H5474 C5504 0.950 . S
H5475 C5505 0.950 . S
C5476 H5458 0.951 . S
C5476 C5477 1.366 . S
C5476 C5478 1.388 . S
C5477 C5476 1.366 . S
C5477 C5481 1.385 . S
C5478 H5459 0.951 . S
C5478 C5476 1.388 . S
C5478 C5479 1.366 . S
C5479 C5478 1.366 . S
C5479 C5480 1.414 . S
C5479 C5482 1.499 . S
C5480 H5460 0.950 . S
C5480 C5479 1.414 . S
C5480 C5481 1.374 . S
C5481 H5461 0.950 . S
C5481 C5477 1.385 . S
C5481 C5480 1.374 . S
C5482 C5479 1.499 . S
C5482 C5483 1.373 . S
C5482 C5484 1.389 . S
C5483 H5462 0.950 . S
C5483 C5482 1.373 . S
C5483 C5499 1.377 . S
C5484 C5482 1.389 . S
C5484 C5485 1.524 . S
C5484 C5498 1.377 . S
C5485 C5484 1.524 . S
C5485 C5486 1.397 . S
C5485 C5490 1.363 . S
C5486 H5463 0.950 . S
C5486 C5485 1.397 . S
C5486 C5487 1.334 . S
C5487 H5464 0.950 . S
C5487 C5486 1.334 . S
C5487 C5488 1.287 . S
C5488 C5487 1.287 . S
C5488 C5489 1.524 . S
C5488 H5507 0.913 . S
C5489 H5465 0.950 . S
C5489 C5488 1.524 . S
C5489 C5490 1.415 . S
C5490 H5466 0.950 . S
C5490 C5485 1.363 . S
C5490 C5489 1.415 . S
C5491 H5467 0.951 . S
C5491 C5492 1.366 . S
C5491 C5493 1.388 . S
C5492 C5491 1.366 . S
C5492 C5496 1.385 . S
C5493 H5468 0.951 . S
C5493 C5491 1.388 . S
C5493 C5494 1.366 . S
C5494 C5493 1.366 . S
C5494 C5495 1.414 . S
C5494 C5497 1.499 . S
C5495 H5469 0.950 . S
C5495 C5494 1.414 . S
C5495 C5496 1.374 . S
C5496 H5470 0.950 . S
C5496 C5492 1.385 . S
C5496 C5495 1.374 . S
C5497 C5494 1.499 . S
C5497 C5498 1.373 . S
C5497 C5499 1.389 . S
C5498 H5471 0.950 . S
C5498 C5484 1.377 . S
C5498 C5497 1.373 . S
C5499 C5483 1.377 . S
C5499 C5497 1.389 . S
C5499 C5500 1.524 . S
C5500 C5499 1.524 . S
C5500 C5501 1.397 . S
C5500 C5505 1.363 . S
C5501 H5472 0.950 . S
C5501 C5500 1.397 . S
C5501 C5502 1.334 . S
C5502 H5473 0.950 . S
C5502 C5501 1.334 . S
C5502 C5503 1.287 . S
C5503 C5502 1.287 . S
C5503 C5504 1.524 . S
C5503 H5506 0.999 . S
C5504 H5474 0.950 . S
C5504 C5503 1.524 . S
C5504 C5505 1.415 . S
C5505 H5475 0.950 . S
C5505 C5500 1.363 . S
C5505 C5504 1.415 . S
H5506 C5503 0.999 . S
H5507 C5488 0.913 . S
C742 C360 0.988 . S
C727 C213 0.957 . S
C792 C368 1.016 . S
C777 C256 0.998 . S
C842 C363 1.197 . S
C827 C234 1.128 . S
C877 C196 1.512 . S
C892 C367 1.557 . S
C942 C422 1.248 . S
C927 C109 1.187 . S
C977 C129 1.031 . S
C992 C398 1.052 . S
C1042 C425 1.032 . S
C1027 C151 0.976 . S
C1077 C100 1.593 . S
C1092 C399 1.621 . S
C1127 C313 1.539 . S
C1142 C456 1.651 . S
C1177 C322 1.231 . S
C1192 C460 1.360 . S
C1242 C515 0.809 . S
C1227 C187 0.798 . S
C1292 C523 1.601 . S
C1277 C277 1.583 . S
C1342 C453 0.903 . S
C1327 C67 0.878 . S
C1392 C461 1.539 . S
C1377 C20 1.421 . S
C1427 C28 1.491 . S
C1442 C518 1.600 . S
C1477 C62 1.427 . S
C1492 C522 1.459 . S
C1527 C40 1.156 . S
C1542 C487 1.123 . S
C1592 C577 1.035 . S
C1577 C184 1.002 . S
C1627 C293 1.442 . S
C1642 C585 1.499 . S
C1692 C639 0.991 . S
C1677 C310 1.071 . S
C1727 C146 1.318 . S
C1742 C491 1.365 . S
C1792 C580 1.034 . S
C1777 C230 0.972 . S
C1842 C584 1.432 . S
C1827 C255 1.414 . S
C1892 C647 1.351 . S
C1877 C205 1.289 . S
C1927 C66 0.958 . S
C1942 C391 0.986 . S
C1977 C4 0.995 . S
C1992 C337 1.014 . S
C2042 C394 1.199 . S
C2027 C37 1.127 . S
C2077 C46 1.510 . S
C2092 C336 1.561 . S
C2127 C301 1.187 . S
C2142 C701 1.248 . S
C2177 C331 1.028 . S
C2192 C677 1.054 . S
C2242 C704 1.032 . S
C2227 C175 0.977 . S
C2277 C276 1.593 . S
C2292 C678 1.621 . S
C2327 C125 1.540 . S
C2342 C611 1.653 . S
C2392 C615 1.359 . S
C2377 C130 1.229 . S
C2442 C670 0.809 . S
C2427 C167 0.798 . S
C2492 C554 1.601 . S
C2477 C91 1.580 . S
C2542 C608 0.903 . S
C2527 C214 0.877 . S
C2577 C272 1.423 . S
C2592 C616 1.540 . S
C2627 C235 1.492 . S
C2642 C673 1.601 . S
C2692 C553 1.463 . S
C2677 C208 1.428 . S
C2727 C251 1.157 . S
C2742 C642 1.122 . S
C2792 C546 1.035 . S
C2777 C150 1.007 . S
C2827 C103 1.444 . S
C2842 C430 1.498 . S
C2877 C108 1.072 . S
C2892 C484 0.989 . S
C2927 C334 1.319 . S
C2942 C646 1.365 . S
C2977 C83 0.974 . S
C2992 C549 1.031 . S
C3027 C3 1.414 . S
C3042 C429 1.433 . S
C3092 C492 1.349 . S
C3077 C45 1.290 . S
C3142 C347 1.655 . S
C3127 C318 1.599 . S
C3192 C377 1.822 . S
C3177 C188 1.690 . S
C3242 C354 1.574 . S
C3227 C289 1.463 . S
C3292 C369 1.934 . S
C3277 C314 1.773 . S
C3342 C409 1.471 . S
C3327 C209 1.407 . S
C3377 C226 1.969 . S
C3392 C400 2.152 . S
C3427 C271 1.565 . S
C3442 C416 1.685 . S
C3477 C247 1.922 . S
C3492 C408 2.030 . S
C3542 C447 1.217 . S
C3527 C58 1.136 . S
C3592 C470 1.818 . S
C3577 C70 1.675 . S
C3627 C16 1.041 . S
C3642 C502 1.092 . S
C3692 C532 1.830 . S
C3677 C25 1.684 . S
C3727 C133 1.063 . S
C3742 C440 1.116 . S
C3792 C462 1.944 . S
C3777 C163 1.783 . S
C3842 C509 1.085 . S
C3827 C88 1.009 . S
C3877 C121 1.807 . S
C3892 C524 1.955 . S
C3942 C471 1.192 . S
C3927 C104 1.147 . S
C3977 C7 1.265 . S
C3992 C564 1.308 . S
C4027 C41 1.170 . S
C4042 C594 1.285 . S
C4077 C49 1.025 . S
C4092 C633 1.104 . S
C4142 C493 1.701 . S
C4127 C229 1.531 . S
C4192 C571 1.128 . S
C4177 C335 1.058 . S
C4227 C172 1.685 . S
C4242 C586 1.864 . S
C4292 C656 1.083 . S
C4277 C298 0.995 . S
C4342 C378 1.655 . S
C4327 C142 1.603 . S
C4377 C166 1.690 . S
C4392 C346 1.824 . S
C4427 C87 1.459 . S
C4442 C385 1.574 . S
C4477 C124 1.773 . S
C4492 C338 1.932 . S
C4542 C688 1.471 . S
C4527 C61 1.407 . S
C4592 C679 2.152 . S
C4577 C79 1.970 . S
C4627 C19 1.564 . S
C4642 C695 1.684 . S
C4677 C24 1.922 . S
C4692 C687 2.030 . S
C4727 C192 1.138 . S
C4742 C602 1.218 . S
C4792 C625 1.818 . S
C4777 C217 1.675 . S
C4842 C657 1.091 . S
C4827 C268 1.043 . S
C4877 C238 1.683 . S
C4892 C563 1.830 . S
C4942 C595 1.115 . S
C4927 C319 1.061 . S
C4977 C171 1.781 . S
C4992 C617 1.944 . S
C5042 C664 1.085 . S
C5027 C280 1.009 . S
C5077 C297 1.807 . S
C5092 C555 1.953 . S
C5127 C292 1.149 . S
C5142 C626 1.190 . S
C5177 C259 1.266 . S
C5192 C533 1.315 . S
C5242 C439 1.286 . S
C5227 C250 1.168 . S
C5277 C193 1.024 . S
C5292 C478 1.105 . S
C5327 C82 1.531 . S
C5342 C648 1.701 . S
C5377 C145 1.057 . S
C5392 C540 1.122 . S
C5442 C431 1.865 . S
C5427 C154 1.684 . S
C5477 C112 0.994 1_554 S
C5492 C501 1.083 . S
