# Generated by pormake.
# Topology pyr, (3,6)-cn, num edge types: 1
# Building blocks:
#     Node 0, Type 0, BuildingBlock: OLANEW_clean_sbu_2, # of connection points: 3
#     Node 1, Type 0, BuildingBlock: OLANEW_clean_sbu_2, # of connection points: 3
#     Node 2, Type 0, BuildingBlock: OLANEW_clean_sbu_2, # of connection points: 3
#     Node 3, Type 0, BuildingBlock: OLANEW_clean_sbu_2, # of connection points: 3
#     Node 4, Type 0, BuildingBlock: OLANEW_clean_sbu_2, # of connection points: 3
#     Node 5, Type 0, BuildingBlock: OLANEW_clean_sbu_2, # of connection points: 3
#     Node 6, Type 0, BuildingBlock: OLANEW_clean_sbu_2, # of connection points: 3
#     Node 7, Type 0, BuildingBlock: OLANEW_clean_sbu_2, # of connection points: 3
#     Node 8, Type 1, BuildingBlock: BETGAK_clean_sbu_0, # of connection points: 6
#     Node 9, Type 1, BuildingBlock: BETGAK_clean_sbu_0, # of connection points: 6
#     Node 10, Type 1, BuildingBlock: BETGAK_clean_sbu_0, # of connection points: 6
#     Node 11, Type 1, BuildingBlock: BETGAK_clean_sbu_0, # of connection points: 6
#     Edge 12, Type (0, 1), BuildingBlock: XIVTED_clean_linker_0, # of connection points: 2
#     Edge 13, Type (0, 1), BuildingBlock: XIVTED_clean_linker_0, # of connection points: 2
#     Edge 14, Type (0, 1), BuildingBlock: XIVTED_clean_linker_0, # of connection points: 2
#     Edge 15, Type (0, 1), BuildingBlock: XIVTED_clean_linker_0, # of connection points: 2
#     Edge 16, Type (0, 1), BuildingBlock: XIVTED_clean_linker_0, # of connection points: 2
#     Edge 17, Type (0, 1), BuildingBlock: XIVTED_clean_linker_0, # of connection points: 2
#     Edge 18, Type (0, 1), BuildingBlock: XIVTED_clean_linker_0, # of connection points: 2
#     Edge 19, Type (0, 1), BuildingBlock: XIVTED_clean_linker_0, # of connection points: 2
#     Edge 20, Type (0, 1), BuildingBlock: XIVTED_clean_linker_0, # of connection points: 2
#     Edge 21, Type (0, 1), BuildingBlock: XIVTED_clean_linker_0, # of connection points: 2
#     Edge 22, Type (0, 1), BuildingBlock: XIVTED_clean_linker_0, # of connection points: 2
#     Edge 23, Type (0, 1), BuildingBlock: XIVTED_clean_linker_0, # of connection points: 2
#     Edge 24, Type (0, 1), BuildingBlock: XIVTED_clean_linker_0, # of connection points: 2
#     Edge 25, Type (0, 1), BuildingBlock: XIVTED_clean_linker_0, # of connection points: 2
#     Edge 26, Type (0, 1), BuildingBlock: XIVTED_clean_linker_0, # of connection points: 2
#     Edge 27, Type (0, 1), BuildingBlock: XIVTED_clean_linker_0, # of connection points: 2
#     Edge 28, Type (0, 1), BuildingBlock: XIVTED_clean_linker_0, # of connection points: 2
#     Edge 29, Type (0, 1), BuildingBlock: XIVTED_clean_linker_0, # of connection points: 2
#     Edge 30, Type (0, 1), BuildingBlock: XIVTED_clean_linker_0, # of connection points: 2
#     Edge 31, Type (0, 1), BuildingBlock: XIVTED_clean_linker_0, # of connection points: 2
#     Edge 32, Type (0, 1), BuildingBlock: XIVTED_clean_linker_0, # of connection points: 2
#     Edge 33, Type (0, 1), BuildingBlock: XIVTED_clean_linker_0, # of connection points: 2
#     Edge 34, Type (0, 1), BuildingBlock: XIVTED_clean_linker_0, # of connection points: 2
#     Edge 35, Type (0, 1), BuildingBlock: XIVTED_clean_linker_0, # of connection points: 2
# Relax obj value: 0.128
# Max RMSD: 0.169
# Mean RMSD: 0.121
data_MOF--net-pyr--node1-OLANEW_clean_sbu_2--node2-BETGAK_clean_sbu_0--edge1-XIVTED_clean_linker_0
_symmetry_space_group_name_H-M    P1
_symmetry_Int_Tables_number       1
_symmetry_cell_setting            triclinic
loop_
_symmetry_equiv_pos_as_xyz
'x, y, z'
_cell_length_a     40.875446
_cell_length_b     45.553451
_cell_length_c     40.143349
_cell_angle_alpha  96.31438
_cell_angle_beta   87.895182
_cell_angle_gamma 103.34442
loop_
_atom_site_label
_atom_site_type_symbol
_atom_site_fract_x
_atom_site_fract_y
_atom_site_fract_z
_atom_type_partial_charge
O0 O 0.38049 0.27175 0.13798 0.0
Cd1 Cd 0.36508 0.32146 0.14746 0.0
O2 O 0.34257 0.25266 0.17434 0.0
Cd3 Cd 0.31753 0.22022 0.20843 0.0
O4 O 0.2835 0.19385 0.24279 0.0
C5 C 0.27466 0.20725 0.2699 0.0
O6 O 0.28713 0.23649 0.27688 0.0
C7 C 0.36694 0.24979 0.15462 0.0
C8 C 0.30521 0.33197 0.12445 0.0
O9 O 0.33173 0.33495 0.10586 0.0
O10 O 0.3064 0.32234 0.15313 0.0
O11 O 0.44363 0.99474 0.66259 0.0
Cd12 Cd 0.44109 0.98326 0.60184 0.0
O13 O 0.3899 0.97416 0.65957 0.0
Cd14 Cd 0.33739 0.96153 0.67585 0.0
O15 O 0.28476 0.96195 0.66969 0.0
C16 C 0.27916 0.98789 0.66711 0.0
O17 O 0.30443 0.01177 0.67055 0.0
C18 C 0.41561 0.98606 0.6774 0.0
C19 C 0.43327 0.92084 0.58935 0.0
O20 O 0.46229 0.93879 0.58725 0.0
O21 O 0.40778 0.93248 0.59602 0.0
O22 O 0.69805 0.41249 0.87064 0.0
Cd23 Cd 0.6468 0.40448 0.83224 0.0
O24 O 0.68571 0.37215 0.89901 0.0
Cd25 Cd 0.67719 0.33289 0.93168 0.0
O26 O 0.64907 0.29068 0.9558 0.0
C27 C 0.66183 0.2695 0.96448 0.0
O28 O 0.69426 0.27174 0.95985 0.0
C29 C 0.7061 0.39714 0.89296 0.0
C30 C 0.63035 0.44141 0.78361 0.0
O31 O 0.62316 0.44586 0.81489 0.0
O32 O 0.6472 0.42113 0.7753 0.0
O33 O 0.90515 0.73758 0.36226 0.0
Cd34 Cd 0.87203 0.69283 0.3269 0.0
O35 O 0.87267 0.72963 0.40726 0.0
Cd36 Cd 0.83339 0.68927 0.39175 0.0
O37 O 0.78428 0.66417 0.40933 0.0
C38 C 0.78071 0.66492 0.44102 0.0
O39 O 0.80639 0.67902 0.45988 0.0
C40 C 0.89793 0.74528 0.39273 0.0
C41 C 0.9011 0.66151 0.27296 0.0
O42 O 0.89268 0.68643 0.2695 0.0
O43 O 0.89739 0.65211 0.30213 0.0
O44 O 0.71085 0.7571 0.78917 0.0
Cd45 Cd 0.66859 0.71884 0.81484 0.0
O46 O 0.70177 0.79309 0.82658 0.0
Cd47 Cd 0.70392 0.83812 0.85334 0.0
O48 O 0.68734 0.87362 0.88632 0.0
C49 C 0.65673 0.87473 0.88398 0.0
O50 O 0.63789 0.85562 0.86161 0.0
C51 C 0.71825 0.78479 0.80115 0.0
C52 C 0.70288 0.68463 0.84783 0.0
O53 O 0.69507 0.67745 0.8169 0.0
O54 O 0.69345 0.70741 0.86347 0.0
O55 O 0.66948 0.09588 0.5025 0.0
Cd56 Cd 0.68459 0.09839 0.56087 0.0
O57 O 0.67934 0.14542 0.50693 0.0
Cd58 Cd 0.68539 0.19025 0.48984 0.0
O59 O 0.67805 0.23478 0.48185 0.0
C60 C 0.68338 0.25582 0.50591 0.0
O61 O 0.69463 0.25044 0.53435 0.0
C62 C 0.67114 0.1201 0.489 0.0
C63 C 0.74242 0.07624 0.56115 0.0
O64 O 0.71323 0.05863 0.56352 0.0
O65 O 0.74426 0.10454 0.55974 0.0
O66 O 0.40552 0.78287 0.24041 0.0
Cd67 Cd 0.38745 0.73382 0.27009 0.0
O68 O 0.36853 0.7752 0.19879 0.0
Cd69 Cd 0.33083 0.73027 0.195 0.0
O70 O 0.28691 0.69341 0.17462 0.0
C71 C 0.26929 0.69906 0.15149 0.0
O72 O 0.27768 0.7261 0.14085 0.0
C73 C 0.39377 0.792 0.215 0.0
C74 C 0.41644 0.71027 0.32371 0.0
O75 O 0.42368 0.704 0.29274 0.0
O76 O 0.39756 0.72921 0.32993 0.0
O77 O 0.15605 0.41454 0.76496 0.0
Cd78 Cd 0.18701 0.3925 0.71782 0.0
O79 O 0.1169 0.37322 0.77326 0.0
Cd80 Cd 0.12692 0.33822 0.73376 0.0
O81 O 0.11747 0.29372 0.70244 0.0
C82 C 0.11178 0.26925 0.71654 0.0
O83 O 0.11282 0.27116 0.7494 0.0
C84 C 0.13042 0.40122 0.7812 0.0
C85 C 0.24231 0.43084 0.68783 0.0
O86 O 0.21268 0.42555 0.67572 0.0
O87 O 0.24574 0.41898 0.71464 0.0
La88 La 0.01967 0.01719 0.52609 0.0
La89 La 0.0053 0.99003 0.59094 0.0
C90 C 0.02011 0.03422 0.46844 0.0
C91 C 0.04302 0.05643 0.44972 0.0
C92 C 0.07078 0.07651 0.46542 0.0
C93 C 0.09496 0.09473 0.44641 0.0
C94 C 0.09178 0.09297 0.41142 0.0
C95 C 0.0632 0.07361 0.39609 0.0
C96 C 0.03905 0.05545 0.41512 0.0
C97 C 0.07308 1.00916 0.55523 0.0
C98 C 0.03631 0.06125 0.59054 0.0
C99 C 1.00139 0.97197 0.64839 0.0
C100 C 0.97544 0.9496 0.66415 0.0
C101 C 0.9499 0.93023 0.64462 0.0
C102 C 0.92287 0.91156 0.65984 0.0
C103 C 0.92086 0.91182 0.69496 0.0
C104 C 0.94705 0.93075 0.71437 0.0
C105 C 0.97406 0.94957 0.69906 0.0
C106 C 0.95198 0.99926 0.56187 0.0
C107 C 0.99019 0.946 0.52606 0.0
O108 O 0.03244 0.01153 0.47524 0.0
O109 O 0.00424 0.04496 0.49419 0.0
O110 O 0.07342 0.03087 0.5369 0.0
O111 O 0.0444 0.99164 0.55444 0.0
O112 O 0.02751 0.05927 0.55889 0.0
O113 O 0.03434 0.03658 0.60604 0.0
O114 O 0.99149 0.99593 0.64159 0.0
O115 O 0.0183 0.96137 0.62337 0.0
O116 O 0.95173 0.97695 0.57921 0.0
O117 O 0.98092 0.01628 0.56313 0.0
O118 O 0.99845 0.94796 0.55788 0.0
O119 O 0.99156 0.97063 0.51087 0.0
H120 H 0.07431 0.0773 0.49215 0.0
H121 H 0.11682 0.10922 0.4589 0.0
H122 H 0.0598 0.07211 0.36928 0.0
H123 H 0.0178 0.03996 0.40265 0.0
H124 H 0.95036 0.93017 0.61761 0.0
H125 H 0.90299 0.89768 0.64409 0.0
H126 H 0.94659 0.93122 0.7414 0.0
H127 H 0.99347 0.96456 0.71452 0.0
La128 La 0.54018 0.04866 0.11221 0.0
La129 La 0.47789 0.02802 0.06977 0.0
C130 C 0.59277 0.07966 0.14046 0.0
C131 C 0.60472 0.0845 0.17521 0.0
C132 C 0.59889 0.06047 0.19538 0.0
C133 C 0.60884 0.0656 0.22879 0.0
C134 C 0.62465 0.09489 0.24277 0.0
C135 C 0.63056 0.11891 0.22249 0.0
C136 C 0.62072 0.11372 0.18895 0.0
C137 C 0.50042 0.99981 0.13747 0.0
C138 C 0.47431 0.07192 0.13134 0.0
C139 C 0.42824 1.00056 0.03439 0.0
C140 C 0.42175 0.9997 0.99837 0.0
C141 C 0.42892 0.02649 0.98249 0.0
C142 C 0.42509 0.02536 0.94796 0.0
C143 C 0.4144 0.99741 0.92842 0.0
C144 C 0.40661 0.97063 0.94447 0.0
C145 C 0.41025 0.9718 0.97915 0.0
C146 C 0.51756 0.08128 0.0564 0.0
C147 C 0.54354 1.00482 0.04629 0.0
O148 O 0.59036 0.05241 0.1249 0.0
O149 O 0.56662 0.09059 0.13539 0.0
O150 O 0.52881 0.01529 0.1495 0.0
O151 O 0.49501 0.01301 0.11283 0.0
O152 O 0.5075 0.0792 0.12964 0.0
O153 O 0.45749 0.04605 0.11604 0.0
O154 O 0.42975 0.02656 0.05235 0.0
O155 O 0.45236 0.98798 0.04174 0.0
O156 O 0.48536 0.07353 0.05287 0.0
O157 O 0.52675 0.05827 0.06401 0.0
O158 O 0.51095 1.00216 0.04264 0.0
O159 O 0.56092 0.02386 0.07008 0.0
H160 H 0.58629 0.03775 0.18551 0.0
H161 H 0.60346 0.04672 0.24389 0.0
H162 H 0.64292 0.14167 0.23252 0.0
H163 H 0.62528 0.13257 0.17381 0.0
H164 H 0.43803 0.04837 0.99661 0.0
H165 H 0.43075 0.04645 0.93654 0.0
H166 H 0.39868 0.9487 0.93013 0.0
H167 H 0.40484 0.95086 0.99087 0.0
La168 La 0.50718 0.54215 0.5315 0.0
La169 La 0.49788 0.59024 0.58495 0.0
C170 C 0.5312 0.50598 0.49101 0.0
C171 C 0.54962 0.48213 0.49261 0.0
C172 C 0.54847 0.46706 0.52142 0.0
C173 C 0.56629 0.44439 0.52229 0.0
C174 C 0.58552 0.43648 0.49436 0.0
C175 C 0.58688 0.45203 0.46576 0.0
C176 C 0.56907 0.47465 0.46494 0.0
C177 C 0.44746 0.5324 0.56155 0.0
C178 C 0.53095 0.54005 0.60721 0.0
C179 C 0.47099 0.62544 0.62373 0.0
C180 C 0.45834 0.65252 0.61951 0.0
C181 C 0.46423 0.67714 0.64445 0.0
C182 C 0.45547 0.70419 0.63927 0.0
C183 C 0.44118 0.70708 0.60884 0.0
C184 C 0.43432 0.68209 0.58433 0.0
C185 C 0.44248 0.65491 0.5898 0.0
C186 C 0.55788 0.59952 0.5568 0.0
C187 C 0.47951 0.59531 0.50757 0.0
O188 O 0.50005 0.5003 0.50191 0.0
O189 O 0.54757 0.5335 0.50128 0.0
O190 O 0.45231 0.52525 0.52988 0.0
O191 O 0.47554 0.54329 0.5751 0.0
O192 O 0.5337 0.53143 0.57461 0.0
O193 O 0.51375 0.56077 0.61766 0.0
O194 O 0.50355 0.62871 0.62013 0.0
O195 O 0.45427 0.5997 0.60849 0.0
O196 O 0.55236 0.60804 0.58802 0.0
O197 O 0.53023 0.58877 0.54237 0.0
O198 O 0.47766 0.60501 0.54003 0.0
O199 O 0.49262 0.57167 0.49795 0.0
H200 H 0.53362 0.47263 0.54309 0.0
H201 H 0.56443 0.43265 0.54457 0.0
H202 H 0.60186 0.44684 0.44405 0.0
H203 H 0.57045 0.48631 0.44263 0.0
H204 H 0.47642 0.67572 0.66755 0.0
H205 H 0.46114 0.72324 0.65846 0.0
H206 H 0.423 0.68373 0.56082 0.0
H207 H 0.43699 0.63599 0.57053 0.0
La208 La 1.00227 0.4971 0.03521 0.0
La209 La 0.99432 0.55269 1.00725 0.0
C210 C 0.02363 0.45138 0.04694 0.0
C211 C 0.05502 0.44245 0.05464 0.0
C212 C 0.0678 0.44721 0.08735 0.0
C213 C 0.09545 0.43583 0.09477 0.0
C214 C 0.11094 0.41933 0.06971 0.0
C215 C 0.09849 0.41511 0.0369 0.0
C216 C 0.07084 0.42642 0.02952 0.0
C217 C 0.96935 0.53093 0.07507 0.0
C218 C 0.06043 0.55914 0.04608 0.0
C219 C 0.97298 0.59681 0.99131 0.0
C220 C 0.9419 0.60077 0.97671 0.0
C221 C 0.94415 0.6163 0.94814 0.0
C222 C 0.91516 0.62053 0.93386 0.0
C223 C 0.88336 0.60952 0.94809 0.0
C224 C 0.88107 0.59382 0.97663 0.0
C225 C 0.91007 0.58931 0.99073 0.0
C226 C 0.02931 0.51983 0.96898 0.0
C227 C 0.93399 0.49273 0.99912 0.0
O228 O 0.01087 0.46834 0.06992 0.0
O229 O 0.02134 0.45933 0.01692 0.0
O230 O 0.96297 0.50149 0.07288 0.0
O231 O 0.99448 0.54013 0.05669 0.0
O232 O 0.0523 0.52898 0.04539 0.0
O233 O 0.03922 0.57393 0.03548 0.0
O234 O 0.99153 0.5824 0.97148 0.0
O235 O 0.97068 0.58841 0.02163 0.0
O236 O 0.03578 0.54921 0.97223 0.0
O237 O 1.00301 0.50993 0.98566 0.0
O238 O 0.94439 0.52241 0.99813 0.0
O239 O 0.95367 0.47685 0.01079 0.0
H240 H 0.05609 0.45924 0.1074 0.0
H241 H 0.10461 0.43985 0.12022 0.0
H242 H 0.10941 0.40218 0.01706 0.0
H243 H 0.06131 0.42193 1.00419 0.0
H244 H 0.96842 0.62532 0.93694 0.0
H245 H 0.91769 0.63301 0.91209 0.0
H246 H 0.85683 0.58488 0.98791 0.0
H247 H 0.90753 0.57695 0.01259 0.0
H248 H 0.24965 0.22892 0.32953 0.0
H249 H 0.11774 0.07241 0.35209 0.0
H250 H 0.24157 0.1475 0.26123 0.0
H251 H 0.12828 0.15174 0.42386 0.0
H252 H 0.16297 0.09998 0.31844 0.0
H253 H 0.20565 0.20127 0.36474 0.0
C254 C 0.23873 0.20521 0.32199 0.0
C255 C 0.24924 0.19053 0.29231 0.0
C256 C 0.15543 0.11142 0.34153 0.0
C257 C 0.1988 0.15882 0.33242 0.0
C258 C 0.12939 0.09576 0.36063 0.0
C259 C 0.11902 0.10987 0.39072 0.0
C260 C 0.1713 0.14151 0.35248 0.0
C261 C 0.1356 0.13994 0.40092 0.0
C262 C 0.2136 0.18945 0.3421 0.0
C263 C 0.23423 0.15977 0.28384 0.0
N264 N 0.16086 0.15481 0.38178 0.0
N265 N 0.20971 0.14499 0.30372 0.0
H266 H 0.4565 0.02777 0.72057 0.0
H267 H 0.36692 0.96092 0.88587 0.0
H268 H 0.37102 0.95165 0.71844 0.0
H269 H 0.45821 0.03117 0.88636 0.0
H270 H 0.36564 0.95911 0.82477 0.0
H271 H 0.45502 0.03159 0.78178 0.0
C272 C 0.43717 0.01208 0.733 0.0
C273 C 0.41342 0.98976 0.71438 0.0
C274 C 0.38587 0.97499 0.8383 0.0
C275 C 0.41174 0.99374 0.78442 0.0
C276 C 0.38672 0.97591 0.87317 0.0
C277 C 0.41267 0.99626 0.89136 0.0
C278 C 0.41116 0.99454 0.82148 0.0
C279 C 0.4374 0.01545 0.87353 0.0
C280 C 0.43633 0.01424 0.76794 0.0
C281 C 0.38906 0.96987 0.73175 0.0
N282 N 0.43604 0.01408 0.83965 0.0
N283 N 0.3889 0.97227 0.76581 0.0
H284 H 0.59371 0.48566 0.79333 0.0
H285 H 0.56966 0.49712 0.59674 0.0
H286 H 0.63748 0.43431 0.71447 0.0
H287 H 0.52858 0.54991 0.67635 0.0
H288 H 0.59482 0.47416 0.63891 0.0
H289 H 0.57048 0.50969 0.75088 0.0
C290 C 0.5987 0.47951 0.76712 0.0
C291 C 0.61783 0.45781 0.75777 0.0
C292 C 0.58033 0.49078 0.6472 0.0
C293 C 0.59071 0.48538 0.70842 0.0
C294 C 0.56582 0.50394 0.62302 0.0
C295 C 0.5467 0.52563 0.63268 0.0
C296 C 0.57586 0.49917 0.68162 0.0
C297 C 0.54296 0.53339 0.66738 0.0
C298 C 0.58527 0.49327 0.74276 0.0
C299 C 0.62308 0.4509 0.72314 0.0
N300 N 0.55725 0.52025 0.69035 0.0
N301 N 0.60961 0.46448 0.69992 0.0
H302 H 0.92403 0.67948 0.21143 0.0
H303 H 0.92807 0.51264 0.12788 0.0
H304 H 0.90424 0.60165 0.26757 0.0
H305 H 0.98487 0.59305 0.08718 0.0
H306 H 0.91221 0.54462 0.17615 0.0
H307 H 0.94024 0.64804 0.16279 0.0
C308 C 0.92322 0.65584 0.2136 0.0
C309 C 0.91287 0.64327 0.24377 0.0
C310 C 0.92804 0.55527 0.15658 0.0
C311 C 0.93076 0.60698 0.18788 0.0
C312 C 0.93696 0.53704 0.12892 0.0
C313 C 0.95772 0.55017 0.10332 0.0
C314 C 0.93952 0.58697 0.15853 0.0
C315 C 0.96859 0.58195 0.10614 0.0
C316 C 0.93248 0.63791 0.18581 0.0
C317 C 0.91225 0.61241 0.24498 0.0
N318 N 0.95927 0.59925 0.13313 0.0
N319 N 0.92077 0.59532 0.21743 0.0
H320 H 0.4327 0.24813 0.14586 0.0
H321 H 0.40599 0.06867 0.13335 0.0
H322 H 0.33484 0.19001 0.15969 0.0
H323 H 0.50165 0.13097 0.15428 0.0
H324 H 0.37858 0.11157 0.1416 0.0
H325 H 0.45779 0.20434 0.14535 0.0
C326 C 0.41646 0.2261 0.14876 0.0
C327 C 0.38166 0.2228 0.15322 0.0
C328 C 0.4055 0.1157 0.14484 0.0
C329 C 0.41026 0.17237 0.1526 0.0
C330 C 0.42118 0.09121 0.14031 0.0
C331 C 0.45628 0.09612 0.14293 0.0
C332 C 0.42512 0.14535 0.15154 0.0
C333 C 0.47458 0.12594 0.15185 0.0
C334 C 0.43084 0.20113 0.14875 0.0
C335 C 0.36186 0.19369 0.15693 0.0
N336 N 0.45888 0.14936 0.15535 0.0
N337 N 0.3764 0.16953 0.15633 0.0
H338 H 0.22162 0.94321 0.65503 0.0
H339 H 0.13084 0.05156 0.56806 0.0
H340 H 0.26132 0.03956 0.65399 0.0
H341 H 0.08014 0.96081 0.58712 0.0
H342 H 0.17899 0.04701 0.59959 0.0
H343 H 0.16931 0.94857 0.63102 0.0
C344 C 0.21924 0.96552 0.65009 0.0
C345 C 0.24603 0.99094 0.65624 0.0
C346 C 0.15732 0.02809 0.5971 0.0
C347 C 0.18648 0.99714 0.62854 0.0
C348 C 0.12991 0.03065 0.57895 0.0
C349 C 0.10169 1.00645 0.5749 0.0
C350 C 0.15669 1.00098 0.611 0.0
C351 C 0.10155 0.97995 0.58973 0.0
C352 C 0.18938 0.96855 0.63638 0.0
C353 C 0.24148 0.01929 0.64946 0.0
N354 N 0.12883 0.97779 0.60695 0.0
N355 N 0.21245 0.02156 0.6357 0.0
H356 H 0.74071 0.3691 0.9343 0.0
H357 H 0.89001 0.51871 0.96939 0.0
H358 H 0.74708 0.45379 0.89305 0.0
H359 H 0.89889 0.43204 0.99711 0.0
H360 H 0.83521 0.49495 0.94575 0.0
H361 H 0.7956 0.39103 0.96135 0.0
C362 C 0.7534 0.39226 0.931 0.0
C363 C 0.73889 0.40946 0.91114 0.0
C364 C 0.84895 0.48095 0.95697 0.0
C365 C 0.80191 0.43482 0.94226 0.0
C366 C 0.88052 0.49461 0.97068 0.0
C367 C 0.89964 0.47753 0.98542 0.0
C368 C 0.8356 0.44968 0.95783 0.0
C369 C 0.88534 0.44626 0.98603 0.0
C370 C 0.78486 0.40474 0.94639 0.0
C371 C 0.75692 0.43938 0.90786 0.0
N372 N 0.85429 0.43339 0.97251 0.0
N373 N 0.78706 0.45092 0.92315 0.0
H374 H 0.72019 0.63794 0.41062 0.0
H375 H 0.61929 0.62109 0.58539 0.0
H376 H 0.7663 0.66282 0.50779 0.0
H377 H 0.57153 0.59453 0.48929 0.0
H378 H 0.67374 0.63463 0.55691 0.0
H379 H 0.6659 0.61984 0.43835 0.0
C380 C 0.71898 0.63943 0.43773 0.0
C381 C 0.74789 0.65206 0.45687 0.0
C382 C 0.65142 0.62573 0.54196 0.0
C383 C 0.68583 0.63151 0.48876 0.0
C384 C 0.62033 0.61802 0.55825 0.0
C385 C 0.59094 0.6067 0.53966 0.0
C386 C 0.65318 0.62223 0.50674 0.0
C387 C 0.59368 0.60309 0.50456 0.0
C388 C 0.68796 0.62914 0.45355 0.0
C389 C 0.74475 0.6534 0.49194 0.0
N390 N 0.62425 0.61094 0.48921 0.0
N391 N 0.71435 0.64339 0.50668 0.0
H392 H 0.29563 0.35515 0.06623 0.0
H393 H 0.11836 0.39162 0.12556 0.0
H394 H 0.24628 0.33154 0.15967 0.0
H395 H 0.16796 0.4156 0.03234 0.0
H396 H 0.16436 0.36863 0.13795 0.0
H397 H 0.24805 0.3755 0.05235 0.0
C398 C 0.27466 0.35396 0.08371 0.0
C399 C 0.27505 0.34162 0.11422 0.0
C400 C 0.1652 0.3789 0.11477 0.0
C401 C 0.22048 0.36524 0.09858 0.0
C402 C 0.13903 0.39229 0.10778 0.0
C403 C 0.13922 0.40573 0.07787 0.0
C404 C 0.19193 0.37891 0.09174 0.0
C405 C 0.16646 0.40528 0.05554 0.0
C406 C 0.24751 0.36572 0.07581 0.0
C407 C 0.24713 0.34082 0.13588 0.0
N408 N 0.19167 0.39217 0.06294 0.0
N409 N 0.22111 0.35258 0.12772 0.0
H410 H 0.68257 0.22177 0.98673 0.0
H411 H 0.49751 0.12942 0.03579 0.0
H412 H 0.59275 0.25417 0.97615 0.0
H413 H 0.58722 0.09803 0.04983 0.0
H414 H 0.53198 0.17508 0.01451 0.0
H415 H 0.64855 0.17692 0.00993 0.0
C416 C 0.65568 0.21959 0.98927 0.0
C417 C 0.64073 0.24214 0.97926 0.0
C418 C 0.54427 0.15833 0.02225 0.0
C419 C 0.60118 0.19008 1.00614 0.0
C420 C 0.52454 0.13212 0.03447 0.0
C421 C 0.53935 0.1096 0.04459 0.0
C422 C 0.57941 0.1624 0.0199 0.0
C423 C 0.5746 0.11464 0.04231 0.0
C424 C 0.6362 0.1938 1.00262 0.0
C425 C 0.60561 0.23763 0.9834 0.0
N426 N 0.59333 0.14035 0.03016 0.0
N427 N 0.58718 0.21226 0.99637 0.0
H428 H 0.93759 0.79618 0.36807 0.0
H429 H 0.9718 0.89006 0.54987 0.0
H430 H 0.90117 0.75947 0.46057 0.0
H431 H 0.9833 0.93266 0.45796 0.0
H432 H 0.95318 0.8406 0.51726 0.0
H433 H 0.96249 0.84482 0.40038 0.0
C434 C 0.93527 0.79816 0.39514 0.0
C435 C 0.9171 0.77368 0.41156 0.0
C436 C 0.95984 0.86078 0.50422 0.0
C437 C 0.9454 0.82927 0.44867 0.0
C438 C 0.97052 0.88906 0.52285 0.0
C439 C 0.97898 0.91568 0.50672 0.0
C440 C 0.95792 0.85894 0.4691 0.0
C441 C 0.97679 0.91283 0.47156 0.0
C442 C 0.94925 0.826 0.41356 0.0
C443 C 0.91472 0.77772 0.44675 0.0
N444 N 0.96656 0.88504 0.45397 0.0
N445 N 0.92859 0.80488 0.46403 0.0
H446 H 0.38256 0.8786 0.61448 0.0
H447 H 0.46319 0.73775 0.55482 0.0
H448 H 0.47627 0.88792 0.55908 0.0
H449 H 0.40674 0.74357 0.64724 0.0
H450 H 0.45761 0.78877 0.54574 0.0
H451 H 0.38068 0.82458 0.61601 0.0
C452 C 0.40243 0.86917 0.60216 0.0
C453 C 0.42974 0.88772 0.5868 0.0
C454 C 0.44621 0.7787 0.56782 0.0
C455 C 0.42754 0.8262 0.58829 0.0
C456 C 0.44922 0.74966 0.57292 0.0
C457 C 0.43549 0.73666 0.60188 0.0
C458 C 0.42885 0.79454 0.59155 0.0
C459 C 0.41786 0.75301 0.62475 0.0
C460 C 0.40141 0.83846 0.60324 0.0
C461 C 0.45491 0.87441 0.57138 0.0
N462 N 0.41498 0.78117 0.61908 0.0
N463 N 0.45321 0.8444 0.57251 0.0
H464 H 0.75748 0.83913 0.82905 0.0
H465 H 0.88565 0.85426 0.67354 0.0
H466 H 0.74382 0.77792 0.73805 0.0
H467 H 0.88777 0.92659 0.75315 0.0
H468 H 0.83519 0.82492 0.69874 0.0
H469 H 0.80614 0.87096 0.80325 0.0
C470 C 0.76409 0.83273 0.80342 0.0
C471 C 0.74606 0.80604 0.78554 0.0
C472 C 0.84665 0.84723 0.71071 0.0
C473 C 0.8026 0.84175 0.7563 0.0
C474 C 0.87547 0.86407 0.69625 0.0
C475 C 0.89103 0.89308 0.7111 0.0
C476 C 0.83324 0.85927 0.74044 0.0
C477 C 0.87696 0.90422 0.741 0.0
C478 C 0.79221 0.85074 0.78883 0.0
C479 C 0.75689 0.7983 0.75281 0.0
N480 N 0.84888 0.8873 0.75468 0.0
N481 N 0.78446 0.81597 0.73935 0.0
H482 H 0.644 0.15785 0.45461 0.0
H483 H 0.65439 0.06008 0.27779 0.0
H484 H 0.68358 0.07733 0.44088 0.0
H485 H 0.61667 0.14168 0.28927 0.0
H486 H 0.66678 0.06725 0.33747 0.0
H487 H 0.63538 0.15369 0.3941 0.0
C488 C 0.6515 0.13968 0.43883 0.0
C489 C 0.66522 0.11829 0.45269 0.0
C490 C 0.6559 0.08368 0.32699 0.0
C491 C 0.65451 0.11283 0.38365 0.0
C492 C 0.6487 0.07952 0.29291 0.0
C493 C 0.63426 0.1002 0.27858 0.0
C494 C 0.64852 0.10867 0.34704 0.0
C495 C 0.628 0.1253 0.29926 0.0
C496 C 0.64621 0.13709 0.40432 0.0
C497 C 0.67298 0.09435 0.43121 0.0
N498 N 0.63499 0.12874 0.33252 0.0
N499 N 0.66757 0.09229 0.39781 0.0
H500 H 0.45066 0.66424 0.31765 0.0
H501 H 0.45436 0.64748 0.51547 0.0
H502 H 0.40754 0.71987 0.39261 0.0
H503 H 0.48245 0.58377 0.43859 0.0
H504 H 0.43977 0.67579 0.4718 0.0
H505 H 0.46562 0.63682 0.36192 0.0
C506 C 0.44452 0.67094 0.34342 0.0
C507 C 0.42776 0.69466 0.35108 0.0
C508 C 0.44901 0.65555 0.46444 0.0
C509 C 0.44494 0.66285 0.40255 0.0
C510 C 0.45726 0.63919 0.48953 0.0
C511 C 0.46946 0.61276 0.48115 0.0
C512 C 0.4532 0.64582 0.43033 0.0
C513 C 0.47305 0.60378 0.44667 0.0
C514 C 0.45298 0.65508 0.3688 0.0
C515 C 0.42045 0.7019 0.38522 0.0
N516 N 0.4651 0.62018 0.42281 0.0
N517 N 0.42904 0.68618 0.40948 0.0
H518 H 0.07644 0.37985 0.82179 0.0
H519 H 0.08501 0.5399 0.93119 0.0
H520 H 0.15108 0.46139 0.8063 0.0
H521 H 0.01045 0.4587 0.94749 0.0
H522 H 0.11027 0.51111 0.88647 0.0
H523 H 0.05273 0.40782 0.86837 0.0
C524 C 0.08793 0.40365 0.82811 0.0
C525 C 0.1159 0.4182 0.80982 0.0
C526 C 0.08847 0.49948 0.89984 0.0
C527 C 0.08862 0.45052 0.86358 0.0
C528 C 0.07402 0.51592 0.92545 0.0
C529 C 0.04554 0.50171 0.94314 0.0
C530 C 0.07437 0.46845 0.89161 0.0
C531 C 0.03246 0.47057 0.93461 0.0
C532 C 0.07431 0.41961 0.85484 0.0
C533 C 0.12955 0.44912 0.81948 0.0
N534 N 0.04689 0.45502 0.90942 0.0
N535 N 0.11578 0.46417 0.84557 0.0
H536 H 0.68693 0.9153 0.93596 0.0
H537 H 0.51661 0.96645 0.99201 0.0
H538 H 0.59238 0.88232 0.88478 0.0
H539 H 0.61022 1.0019 0.04437 0.0
H540 H 0.54493 0.93642 0.95201 0.0
H541 H 0.66037 0.94822 0.97516 0.0
C542 C 0.66066 0.91507 0.93285 0.0
C543 C 0.64184 0.89593 0.90707 0.0
C544 C 0.55938 0.95077 0.97218 0.0
C545 C 0.61131 0.93343 0.95187 0.0
C546 C 0.54318 0.96797 0.99516 0.0
C547 C 0.56101 0.98676 0.02176 0.0
C548 C 0.59377 0.95216 0.97568 0.0
C549 C 0.59545 0.98773 0.02431 0.0
C550 C 0.64552 0.93383 0.95527 0.0
C551 C 0.6079 0.89659 0.90427 0.0
N552 N 0.61071 0.97061 1.00159 0.0
N553 N 0.59377 0.91493 0.92641 0.0
H554 H 0.7469 0.01773 0.56503 0.0
H555 H 0.94731 0.05409 0.54327 0.0
H556 H 0.80759 0.10691 0.55211 0.0
H557 H 0.88719 0.96757 0.56647 0.0
H558 H 0.89585 0.07252 0.54025 0.0
H559 H 0.79764 0.99787 0.56059 0.0
C560 C 0.77091 0.03316 0.56131 0.0
C561 C 0.77303 0.06407 0.55915 0.0
C562 C 0.8939 0.04943 0.54575 0.0
C563 C 0.83123 0.04142 0.5538 0.0
C564 C 0.92321 0.03888 0.54729 0.0
C565 C 0.92137 1.00939 0.55542 0.0
C566 C 0.86262 0.03028 0.55232 0.0
C567 C 0.88963 0.99055 0.56037 0.0
C568 C 0.79988 0.02178 0.5587 0.0
C569 C 0.80481 0.08296 0.55413 0.0
N570 N 0.86149 1.00138 0.55896 0.0
N571 N 0.83268 0.07134 0.55167 0.0
H572 H 0.24354 0.63892 0.16401 0.0
H573 H 0.08912 0.61823 0.03845 0.0
H574 H 0.22688 0.707 0.10406 0.0
H575 H 0.10638 0.54304 0.08645 0.0
H576 H 0.13975 0.6503 0.06372 0.0
H577 H 0.19409 0.60312 0.13786 0.0
C578 C 0.22962 0.6464 0.14543 0.0
C579 C 0.2396 0.67623 0.13639 0.0
C580 C 0.13276 0.6268 0.06881 0.0
C581 C 0.18289 0.6353 0.10637 0.0
C582 C 0.1036 0.60831 0.0543 0.0
C583 C 0.0931 0.57769 0.06026 0.0
C584 C 0.15206 0.61502 0.08995 0.0
C585 C 0.11343 0.56643 0.08099 0.0
C586 C 0.2014 0.6259 0.13046 0.0
C587 C 0.22044 0.68442 0.11206 0.0
N588 N 0.14179 0.58511 0.09525 0.0
N589 N 0.19327 0.66427 0.09814 0.0
H590 H 0.30656 0.45287 0.7113 0.0
H591 H 0.38478 0.50645 0.53633 0.0
H592 H 0.24583 0.44966 0.62475 0.0
H593 H 0.43853 0.53118 0.62938 0.0
H594 H 0.33404 0.48403 0.56755 0.0
H595 H 0.3556 0.4799 0.68126 0.0
C596 C 0.30346 0.45797 0.68604 0.0
C597 C 0.27191 0.44891 0.67059 0.0
C598 C 0.35687 0.49453 0.58118 0.0
C599 C 0.32826 0.47967 0.63578 0.0
C600 C 0.38584 0.50732 0.56335 0.0
C601 C 0.41595 0.52063 0.58025 0.0
C602 C 0.35807 0.49469 0.61618 0.0
C603 C 0.41587 0.52113 0.61531 0.0
C604 C 0.33151 0.47346 0.66889 0.0
C605 C 0.26956 0.45622 0.63775 0.0
N606 N 0.38753 0.50814 0.63204 0.0
N607 N 0.29734 0.47091 0.62139 0.0
H608 H 0.71886 0.69047 0.91427 0.0
H609 H 0.86549 0.60217 0.8822 0.0
H610 H 0.736 0.64242 0.81881 0.0
H611 H 0.83226 0.63044 0.98128 0.0
H612 H 0.81757 0.6161 0.85855 0.0
H613 H 0.75931 0.66785 0.93968 0.0
C614 C 0.73087 0.67492 0.89872 0.0
C615 C 0.72424 0.6685 0.86431 0.0
C616 C 0.82054 0.61897 0.88549 0.0
C617 C 0.77081 0.64281 0.89313 0.0
C618 C 0.84796 0.61118 0.89896 0.0
C619 C 0.85291 0.61537 0.9337 0.0
C620 C 0.79815 0.63145 0.90689 0.0
C621 C 0.82926 0.62675 0.95435 0.0
C622 C 0.75393 0.66199 0.91325 0.0
C623 C 0.74043 0.64809 0.84541 0.0
N624 N 0.80309 0.63473 0.94061 0.0
N625 N 0.76326 0.63625 0.85999 0.0
H626 H 0.37552 0.81766 0.16136 0.0
H627 H 0.51437 0.97493 0.19212 0.0
H628 H 0.44688 0.83774 0.24186 0.0
H629 H 0.44532 0.95592 0.10982 0.0
H630 H 0.48877 0.92553 0.2109 0.0
H631 H 0.39944 0.86762 0.14273 0.0
C632 C 0.39625 0.83245 0.17527 0.0
C633 C 0.40901 0.82293 0.20347 0.0
C634 C 0.47897 0.932 0.1888 0.0
C635 C 0.43681 0.88116 0.1818 0.0
C636 C 0.49359 0.96043 0.17798 0.0
C637 C 0.48209 0.96997 0.14923 0.0
C638 C 0.45234 0.91228 0.17089 0.0
C639 C 0.45504 0.94982 0.13216 0.0
C640 C 0.40992 0.86119 0.16446 0.0
C641 C 0.436 0.84364 0.22006 0.0
N642 N 0.44122 0.92203 0.14316 0.0
N643 N 0.44884 0.87151 0.20905 0.0
H644 H 0.10158 0.25579 0.64843 0.0
H645 H 0.05467 0.07532 0.65661 0.0
H646 H 0.10105 0.21331 0.73944 0.0
H647 H 0.04726 0.11707 0.56657 0.0
H648 H 0.07446 0.12571 0.68657 0.0
H649 H 0.08456 0.20536 0.61729 0.0
C650 C 0.09804 0.23591 0.66188 0.0
C651 C 0.10273 0.23893 0.6967 0.0
C652 C 0.06855 0.12388 0.66024 0.0
C653 C 0.08316 0.18099 0.66113 0.0
C654 C 0.05725 0.09504 0.64306 0.0
C655 C 0.04912 0.09179 0.60896 0.0
C656 C 0.07191 0.14987 0.64329 0.0
C657 C 0.05308 0.11834 0.59285 0.0
C658 C 0.08825 0.20709 0.64407 0.0
C659 C 0.0977 0.21224 0.71268 0.0
N660 N 0.06413 0.14617 0.61012 0.0
N661 N 0.0882 0.18453 0.69484 0.0
H662 H 0.68803 0.3044 0.55366 0.0
H663 H 0.59088 0.39248 0.44353 0.0
H664 H 0.65693 0.27338 0.4517 0.0
H665 H 0.62072 0.4236 0.54579 0.0
H666 H 0.61882 0.35079 0.44482 0.0
H667 H 0.66753 0.35023 0.54995 0.0
C668 C 0.67713 0.30731 0.53039 0.0
C669 C 0.67393 0.28487 0.50304 0.0
C670 C 0.61941 0.36679 0.46695 0.0
C671 C 0.65025 0.33722 0.4987 0.0
C672 C 0.6036 0.39074 0.46618 0.0
C673 C 0.60337 0.41158 0.49464 0.0
C674 C 0.63508 0.36352 0.49643 0.0
C675 C 0.61983 0.40783 0.52344 0.0
C676 C 0.66538 0.33348 0.52833 0.0
C677 C 0.65973 0.28996 0.4735 0.0
N678 N 0.63492 0.38421 0.52363 0.0
N679 N 0.64823 0.3155 0.4722 0.0
loop_
_geom_bond_atom_site_label_1
_geom_bond_atom_site_label_2
_geom_bond_distance
_geom_bond_site_symmetry_2
_ccdc_geom_bond_type
O0 Cd1 2.300 . S
O0 C7 1.275 . S
Cd1 O0 2.300 . S
Cd1 O9 2.381 . S
Cd1 O10 2.378 . S
O2 Cd3 2.385 . S
O2 C7 1.255 . S
Cd3 O2 2.385 . S
Cd3 O4 2.317 . S
O4 Cd3 2.317 . S
O4 C5 1.232 . S
C5 O4 1.232 . S
C5 O6 1.218 . S
O6 C5 1.218 . S
C7 O0 1.275 . S
C7 O2 1.255 . S
C8 O9 1.258 . S
C8 O10 1.256 . S
O9 Cd1 2.381 . S
O9 C8 1.258 . S
O10 Cd1 2.378 . S
O10 C8 1.256 . S
O11 Cd12 2.300 . S
O11 C18 1.275 . S
Cd12 O11 2.300 . S
Cd12 O20 2.381 . S
Cd12 O21 2.378 . S
O13 Cd14 2.385 . S
O13 C18 1.255 . S
Cd14 O13 2.385 . S
Cd14 O15 2.317 . S
O15 Cd14 2.317 . S
O15 C16 1.232 . S
C16 O15 1.232 . S
C16 O17 1.218 . S
O17 C16 1.218 . S
C18 O11 1.275 . S
C18 O13 1.255 . S
C19 O20 1.258 . S
C19 O21 1.256 . S
O20 Cd12 2.381 . S
O20 C19 1.258 . S
O21 Cd12 2.378 . S
O21 C19 1.256 . S
O22 Cd23 2.300 . S
O22 C29 1.275 . S
Cd23 O22 2.300 . S
Cd23 O31 2.381 . S
Cd23 O32 2.378 . S
O24 Cd25 2.385 . S
O24 C29 1.255 . S
Cd25 O24 2.385 . S
Cd25 O26 2.317 . S
O26 Cd25 2.317 . S
O26 C27 1.232 . S
C27 O26 1.232 . S
C27 O28 1.218 . S
O28 C27 1.218 . S
C29 O22 1.275 . S
C29 O24 1.255 . S
C30 O31 1.258 . S
C30 O32 1.256 . S
O31 Cd23 2.381 . S
O31 C30 1.258 . S
O32 Cd23 2.378 . S
O32 C30 1.256 . S
O33 Cd34 2.300 . S
O33 C40 1.275 . S
Cd34 O33 2.300 . S
Cd34 O42 2.381 . S
Cd34 O43 2.378 . S
O35 Cd36 2.385 . S
O35 C40 1.255 . S
Cd36 O35 2.385 . S
Cd36 O37 2.317 . S
O37 Cd36 2.317 . S
O37 C38 1.232 . S
C38 O37 1.232 . S
C38 O39 1.218 . S
O39 C38 1.218 . S
C40 O33 1.275 . S
C40 O35 1.255 . S
C41 O42 1.258 . S
C41 O43 1.256 . S
O42 Cd34 2.381 . S
O42 C41 1.258 . S
O43 Cd34 2.378 . S
O43 C41 1.256 . S
O44 Cd45 2.300 . S
O44 C51 1.275 . S
Cd45 O44 2.300 . S
Cd45 O53 2.381 . S
Cd45 O54 2.378 . S
O46 Cd47 2.385 . S
O46 C51 1.255 . S
Cd47 O46 2.385 . S
Cd47 O48 2.317 . S
O48 Cd47 2.317 . S
O48 C49 1.232 . S
C49 O48 1.232 . S
C49 O50 1.218 . S
O50 C49 1.218 . S
C51 O44 1.275 . S
C51 O46 1.255 . S
C52 O53 1.258 . S
C52 O54 1.256 . S
O53 Cd45 2.381 . S
O53 C52 1.258 . S
O54 Cd45 2.378 . S
O54 C52 1.256 . S
O55 Cd56 2.300 . S
O55 C62 1.275 . S
Cd56 O55 2.300 . S
Cd56 O64 2.381 . S
Cd56 O65 2.378 . S
O57 Cd58 2.385 . S
O57 C62 1.255 . S
Cd58 O57 2.385 . S
Cd58 O59 2.317 . S
O59 Cd58 2.317 . S
O59 C60 1.232 . S
C60 O59 1.232 . S
C60 O61 1.218 . S
O61 C60 1.218 . S
C62 O55 1.275 . S
C62 O57 1.255 . S
C63 O64 1.258 . S
C63 O65 1.256 . S
O64 Cd56 2.381 . S
O64 C63 1.258 . S
O65 Cd56 2.378 . S
O65 C63 1.256 . S
O66 Cd67 2.300 . S
O66 C73 1.275 . S
Cd67 O66 2.300 . S
Cd67 O75 2.381 . S
Cd67 O76 2.378 . S
O68 Cd69 2.385 . S
O68 C73 1.255 . S
Cd69 O68 2.385 . S
Cd69 O70 2.317 . S
O70 Cd69 2.317 . S
O70 C71 1.232 . S
C71 O70 1.232 . S
C71 O72 1.218 . S
O72 C71 1.218 . S
C73 O66 1.275 . S
C73 O68 1.255 . S
C74 O75 1.258 . S
C74 O76 1.256 . S
O75 Cd67 2.381 . S
O75 C74 1.258 . S
O76 Cd67 2.378 . S
O76 C74 1.256 . S
O77 Cd78 2.300 . S
O77 C84 1.275 . S
Cd78 O77 2.300 . S
Cd78 O86 2.381 . S
Cd78 O87 2.378 . S
O79 Cd80 2.385 . S
O79 C84 1.255 . S
Cd80 O79 2.385 . S
Cd80 O81 2.317 . S
O81 Cd80 2.317 . S
O81 C82 1.232 . S
C82 O81 1.232 . S
C82 O83 1.218 . S
O83 C82 1.218 . S
C84 O77 1.275 . S
C84 O79 1.255 . S
C85 O86 1.258 . S
C85 O87 1.256 . S
O86 Cd78 2.381 . S
O86 C85 1.258 . S
O87 Cd78 2.378 . S
O87 C85 1.256 . S
La88 C90 2.928 . S
La88 O108 2.521 . S
La88 O109 2.628 . S
La88 O110 2.544 1_545 S
La88 O111 2.757 1_545 S
La88 O112 2.470 . S
La88 O117 2.482 1_455 S
La88 O119 2.503 1_445 S
La89 C99 2.928 1_545 S
La89 O111 2.482 1_645 S
La89 O113 2.503 1_655 S
La89 O114 2.521 1_545 S
La89 O115 2.628 1_545 S
La89 O116 2.554 . S
La89 O117 2.757 . S
La89 O118 2.470 1_545 S
C90 La88 2.928 . S
C90 C91 1.503 . S
C90 O108 1.261 . S
C90 O109 1.243 . S
C91 C90 1.503 . S
C91 C92 1.394 . S
C91 C96 1.373 . S
C92 C91 1.394 . S
C92 C93 1.380 . S
C92 H120 0.930 . S
C93 C92 1.380 . S
C93 C94 1.376 . S
C93 H121 0.930 . S
C94 C93 1.376 . S
C94 C95 1.370 . S
C95 C94 1.370 . S
C95 C96 1.396 . S
C95 H122 0.929 . S
C96 C91 1.373 . S
C96 C95 1.396 . S
C96 H123 0.929 . S
C97 O110 1.244 . S
C97 O111 1.289 . S
C98 O112 1.258 . S
C98 O113 1.256 . S
C99 La89 2.928 1_565 S
C99 C100 1.503 . S
C99 O114 1.261 . S
C99 O115 1.243 . S
C100 C99 1.503 . S
C100 C101 1.394 . S
C100 C105 1.373 . S
C101 C100 1.394 . S
C101 C102 1.380 . S
C101 H124 0.930 . S
C102 C101 1.380 . S
C102 C103 1.376 . S
C102 H125 0.930 . S
C103 C102 1.376 . S
C103 C104 1.370 . S
C104 C103 1.370 . S
C104 C105 1.396 . S
C104 H126 0.929 . S
C105 C100 1.373 . S
C105 C104 1.396 . S
C105 H127 0.929 . S
C106 O116 1.240 . S
C106 O117 1.289 . S
C107 O118 1.258 . S
C107 O119 1.256 . S
O108 La88 2.521 . S
O108 C90 1.261 . S
O109 La88 2.628 . S
O109 C90 1.243 . S
O110 La88 2.544 1_565 S
O110 C97 1.244 . S
O111 La88 2.757 1_565 S
O111 La89 2.482 1_465 S
O111 C97 1.289 . S
O112 La88 2.470 . S
O112 C98 1.258 . S
O113 La89 2.503 1_455 S
O113 C98 1.256 . S
O114 La89 2.521 1_565 S
O114 C99 1.261 . S
O115 La89 2.628 1_565 S
O115 C99 1.243 . S
O116 La89 2.554 . S
O116 C106 1.240 . S
O117 La88 2.482 1_655 S
O117 La89 2.757 . S
O117 C106 1.289 . S
O118 La89 2.470 1_565 S
O118 C107 1.258 . S
O119 La88 2.503 1_665 S
O119 C107 1.256 . S
H120 C92 0.930 . S
H121 C93 0.930 . S
H122 C95 0.929 . S
H123 C96 0.929 . S
H124 C101 0.930 . S
H125 C102 0.930 . S
H126 C104 0.929 . S
H127 C105 0.929 . S
La128 C130 2.928 . S
La128 O148 2.521 . S
La128 O149 2.628 . S
La128 O150 2.554 1_545 S
La128 O151 2.757 . S
La128 O152 2.470 . S
La128 O157 2.482 . S
La128 O159 2.503 . S
La129 C139 2.928 1_544 S
La129 O151 2.482 . S
La129 O153 2.503 . S
La129 O154 2.521 1_554 S
La129 O155 2.628 1_544 S
La129 O156 2.554 . S
La129 O157 2.757 . S
La129 O158 2.473 . S
C130 La128 2.928 . S
C130 C131 1.503 . S
C130 O148 1.261 . S
C130 O149 1.243 . S
C131 C130 1.503 . S
C131 C132 1.394 . S
C131 C136 1.373 . S
C132 C131 1.394 . S
C132 C133 1.380 . S
C132 H160 0.930 . S
C133 C132 1.380 . S
C133 C134 1.376 . S
C133 H161 0.930 . S
C134 C133 1.376 . S
C134 C135 1.370 . S
C135 C134 1.370 . S
C135 C136 1.396 . S
C135 H162 0.929 . S
C136 C131 1.373 . S
C136 C135 1.396 . S
C136 H163 0.929 . S
C137 O150 1.240 . S
C137 O151 1.289 1_565 S
C138 O152 1.258 . S
C138 O153 1.256 . S
C139 La129 2.928 1_566 S
C139 C140 1.503 . S
C139 O154 1.261 1_565 S
C139 O155 1.243 . S
C140 C139 1.503 . S
C140 C141 1.394 . S
C140 C145 1.373 . S
C141 C140 1.394 . S
C141 C142 1.380 . S
C141 H164 0.930 1_565 S
C142 C141 1.380 . S
C142 C143 1.376 . S
C142 H165 0.930 . S
C143 C142 1.376 . S
C143 C144 1.370 . S
C144 C143 1.370 . S
C144 C145 1.396 . S
C144 H166 0.929 . S
C145 C140 1.373 . S
C145 C144 1.396 . S
C145 H167 0.929 . S
C146 O156 1.240 . S
C146 O157 1.289 . S
C147 O158 1.251 1_565 S
C147 O159 1.255 1_565 S
O148 La128 2.521 . S
O148 C130 1.261 . S
O149 La128 2.628 . S
O149 C130 1.243 . S
O150 La128 2.554 1_565 S
O150 C137 1.240 . S
O151 La128 2.757 . S
O151 La129 2.482 . S
O151 C137 1.289 1_545 S
O152 La128 2.470 . S
O152 C138 1.258 . S
O153 La129 2.503 . S
O153 C138 1.256 . S
O154 La129 2.521 1_556 S
O154 C139 1.261 1_545 S
O155 La129 2.628 1_566 S
O155 C139 1.243 . S
O156 La129 2.554 . S
O156 C146 1.240 . S
O157 La128 2.482 . S
O157 La129 2.757 . S
O157 C146 1.289 . S
O158 La129 2.473 . S
O158 C147 1.251 1_545 S
O159 La128 2.503 . S
O159 C147 1.255 1_545 S
H160 C132 0.930 . S
H161 C133 0.930 . S
H162 C135 0.929 . S
H163 C136 0.929 . S
H164 C141 0.930 1_545 S
H165 C142 0.930 . S
H166 C144 0.929 . S
H167 C145 0.929 . S
La168 C170 2.928 . S
La168 O188 2.521 . S
La168 O189 2.628 . S
La168 O190 2.554 . S
La168 O191 2.757 . S
La168 O192 2.470 . S
La168 O197 2.482 . S
La168 O199 2.503 . S
La169 C179 2.928 . S
La169 O191 2.482 . S
La169 O193 2.503 . S
La169 O194 2.521 . S
La169 O195 2.628 . S
La169 O196 2.554 . S
La169 O197 2.757 . S
La169 O198 2.470 . S
C170 La168 2.928 . S
C170 C171 1.503 . S
C170 O188 1.261 . S
C170 O189 1.243 . S
C171 C170 1.503 . S
C171 C172 1.394 . S
C171 C176 1.373 . S
C172 C171 1.394 . S
C172 C173 1.380 . S
C172 H200 0.930 . S
C173 C172 1.380 . S
C173 C174 1.376 . S
C173 H201 0.930 . S
C174 C173 1.376 . S
C174 C175 1.370 . S
C175 C174 1.370 . S
C175 C176 1.396 . S
C175 H202 0.929 . S
C176 C171 1.373 . S
C176 C175 1.396 . S
C176 H203 0.929 . S
C177 O190 1.240 . S
C177 O191 1.289 . S
C178 O192 1.258 . S
C178 O193 1.256 . S
C179 La169 2.928 . S
C179 C180 1.503 . S
C179 O194 1.261 . S
C179 O195 1.243 . S
C180 C179 1.503 . S
C180 C181 1.394 . S
C180 C185 1.373 . S
C181 C180 1.394 . S
C181 C182 1.380 . S
C181 H204 0.930 . S
C182 C181 1.380 . S
C182 C183 1.376 . S
C182 H205 0.930 . S
C183 C182 1.376 . S
C183 C184 1.370 . S
C184 C183 1.370 . S
C184 C185 1.396 . S
C184 H206 0.929 . S
C185 C180 1.373 . S
C185 C184 1.396 . S
C185 H207 0.929 . S
C186 O196 1.240 . S
C186 O197 1.289 . S
C187 O198 1.258 . S
C187 O199 1.256 . S
O188 La168 2.521 . S
O188 C170 1.261 . S
O189 La168 2.628 . S
O189 C170 1.243 . S
O190 La168 2.554 . S
O190 C177 1.240 . S
O191 La168 2.757 . S
O191 La169 2.482 . S
O191 C177 1.289 . S
O192 La168 2.470 . S
O192 C178 1.258 . S
O193 La169 2.503 . S
O193 C178 1.256 . S
O194 La169 2.521 . S
O194 C179 1.261 . S
O195 La169 2.628 . S
O195 C179 1.243 . S
O196 La169 2.554 . S
O196 C186 1.240 . S
O197 La168 2.482 . S
O197 La169 2.757 . S
O197 C186 1.289 . S
O198 La169 2.470 . S
O198 C187 1.258 . S
O199 La168 2.503 . S
O199 C187 1.256 . S
H200 C172 0.930 . S
H201 C173 0.930 . S
H202 C175 0.929 . S
H203 C176 0.929 . S
H204 C181 0.930 . S
H205 C182 0.930 . S
H206 C184 0.929 . S
H207 C185 0.929 . S
La208 C210 2.928 . S
La208 O228 2.521 . S
La208 O229 2.628 . S
La208 O230 2.554 1_455 S
La208 O231 2.757 1_455 S
La208 O232 2.470 . S
La208 O237 2.482 1_554 S
La208 O239 2.503 1_455 S
La209 C219 2.928 1_455 S
La209 O231 2.482 1_456 S
La209 O233 2.503 1_556 S
La209 O234 2.521 1_455 S
La209 O235 2.628 1_455 S
La209 O236 2.554 . S
La209 O237 2.757 . S
La209 O238 2.470 1_455 S
C210 La208 2.928 . S
C210 C211 1.503 . S
C210 O228 1.261 . S
C210 O229 1.243 . S
C211 C210 1.503 . S
C211 C212 1.394 . S
C211 C216 1.373 . S
C212 C211 1.394 . S
C212 C213 1.380 . S
C212 H240 0.930 . S
C213 C212 1.380 . S
C213 C214 1.376 . S
C213 H241 0.930 . S
C214 C213 1.376 . S
C214 C215 1.370 . S
C215 C214 1.370 . S
C215 C216 1.396 . S
C215 H242 0.929 . S
C216 C211 1.373 . S
C216 C215 1.396 . S
C216 H243 0.929 . S
C217 O230 1.240 . S
C217 O231 1.289 . S
C218 O232 1.258 . S
C218 O233 1.256 . S
C219 La209 2.928 1_655 S
C219 C220 1.503 . S
C219 O234 1.261 . S
C219 O235 1.243 . S
C220 C219 1.503 . S
C220 C221 1.394 . S
C220 C225 1.373 . S
C221 C220 1.394 . S
C221 C222 1.380 . S
C221 H244 0.930 . S
C222 C221 1.380 . S
C222 C223 1.376 . S
C222 H245 0.930 . S
C223 C222 1.376 . S
C223 C224 1.370 . S
C224 C223 1.370 . S
C224 C225 1.396 . S
C224 H246 0.929 . S
C225 C220 1.373 . S
C225 C224 1.396 . S
C225 H247 0.929 . S
C226 O236 1.240 . S
C226 O237 1.289 . S
C227 O238 1.258 . S
C227 O239 1.256 1_556 S
O228 La208 2.521 . S
O228 C210 1.261 . S
O229 La208 2.628 . S
O229 C210 1.243 . S
O230 La208 2.554 1_655 S
O230 C217 1.240 . S
O231 La208 2.757 1_655 S
O231 La209 2.482 1_654 S
O231 C217 1.289 . S
O232 La208 2.470 . S
O232 C218 1.258 . S
O233 La209 2.503 1_554 S
O233 C218 1.256 . S
O234 La209 2.521 1_655 S
O234 C219 1.261 . S
O235 La209 2.628 1_655 S
O235 C219 1.243 . S
O236 La209 2.554 . S
O236 C226 1.240 . S
O237 La208 2.482 1_556 S
O237 La209 2.757 . S
O237 C226 1.289 . S
O238 La209 2.470 1_655 S
O238 C227 1.258 . S
O239 La208 2.503 1_655 S
O239 C227 1.256 1_554 S
H240 C212 0.930 . S
H241 C213 0.930 . S
H242 C215 0.929 . S
H243 C216 0.929 . S
H244 C221 0.930 . S
H245 C222 0.930 . S
H246 C224 0.929 . S
H247 C225 0.929 . S
H248 C254 0.930 . S
H249 C258 0.930 . S
H250 C263 0.929 . S
H251 C261 0.929 . S
H252 C256 0.929 . S
H253 C262 0.929 . S
C254 H248 0.930 . S
C254 C255 1.367 . S
C254 C262 1.378 . S
C255 C254 1.367 . S
C255 C263 1.433 . S
C256 H252 0.929 . S
C256 C258 1.378 . S
C256 C260 1.350 . S
C257 C260 1.463 . S
C257 C262 1.350 . S
C257 N265 1.427 . S
C258 H249 0.930 . S
C258 C256 1.378 . S
C258 C259 1.367 . S
C259 C258 1.367 . S
C259 C261 1.433 . S
C260 C256 1.350 . S
C260 C257 1.463 . S
C260 N264 1.427 . S
C261 H251 0.929 . S
C261 C259 1.433 . S
C261 N264 1.384 . S
C262 H253 0.929 . S
C262 C254 1.378 . S
C262 C257 1.350 . S
C263 H250 0.929 . S
C263 C255 1.433 . S
C263 N265 1.384 . S
N264 C260 1.427 . S
N264 C261 1.384 . S
N265 C257 1.427 . S
N265 C263 1.384 . S
H266 C272 0.930 . S
H267 C276 0.930 . S
H268 C281 0.929 . S
H269 C279 0.929 . S
H270 C274 0.929 . S
H271 C280 0.929 . S
C272 H266 0.930 . S
C272 C273 1.367 . S
C272 C280 1.378 . S
C273 C272 1.367 . S
C273 C281 1.433 . S
C274 H270 0.929 . S
C274 C276 1.378 . S
C274 C278 1.350 . S
C275 C278 1.463 . S
C275 C280 1.350 . S
C275 N283 1.427 . S
C276 H267 0.930 . S
C276 C274 1.378 . S
C276 C277 1.367 . S
C277 C276 1.367 . S
C277 C279 1.433 . S
C278 C274 1.350 . S
C278 C275 1.463 . S
C278 N282 1.427 . S
C279 H269 0.929 . S
C279 C277 1.433 . S
C279 N282 1.384 . S
C280 H271 0.929 . S
C280 C272 1.378 . S
C280 C275 1.350 . S
C281 H268 0.929 . S
C281 C273 1.433 . S
C281 N283 1.384 . S
N282 C278 1.427 . S
N282 C279 1.384 . S
N283 C275 1.427 . S
N283 C281 1.384 . S
H284 C290 0.930 . S
H285 C294 0.930 . S
H286 C299 0.929 . S
H287 C297 0.929 . S
H288 C292 0.929 . S
H289 C298 0.929 . S
C290 H284 0.930 . S
C290 C291 1.367 . S
C290 C298 1.378 . S
C291 C290 1.367 . S
C291 C299 1.433 . S
C292 H288 0.929 . S
C292 C294 1.378 . S
C292 C296 1.350 . S
C293 C296 1.463 . S
C293 C298 1.350 . S
C293 N301 1.427 . S
C294 H285 0.930 . S
C294 C292 1.378 . S
C294 C295 1.367 . S
C295 C294 1.367 . S
C295 C297 1.433 . S
C296 C292 1.350 . S
C296 C293 1.463 . S
C296 N300 1.427 . S
C297 H287 0.929 . S
C297 C295 1.433 . S
C297 N300 1.384 . S
C298 H289 0.929 . S
C298 C290 1.378 . S
C298 C293 1.350 . S
C299 H286 0.929 . S
C299 C291 1.433 . S
C299 N301 1.384 . S
N300 C296 1.427 . S
N300 C297 1.384 . S
N301 C293 1.427 . S
N301 C299 1.384 . S
H302 C308 0.930 . S
H303 C312 0.930 . S
H304 C317 0.929 . S
H305 C315 0.929 . S
H306 C310 0.929 . S
H307 C316 0.929 . S
C308 H302 0.930 . S
C308 C309 1.367 . S
C308 C316 1.378 . S
C309 C308 1.367 . S
C309 C317 1.433 . S
C310 H306 0.929 . S
C310 C312 1.378 . S
C310 C314 1.350 . S
C311 C314 1.463 . S
C311 C316 1.350 . S
C311 N319 1.427 . S
C312 H303 0.930 . S
C312 C310 1.378 . S
C312 C313 1.367 . S
C313 C312 1.367 . S
C313 C315 1.433 . S
C314 C310 1.350 . S
C314 C311 1.463 . S
C314 N318 1.427 . S
C315 H305 0.929 . S
C315 C313 1.433 . S
C315 N318 1.384 . S
C316 H307 0.929 . S
C316 C308 1.378 . S
C316 C311 1.350 . S
C317 H304 0.929 . S
C317 C309 1.433 . S
C317 N319 1.384 . S
N318 C314 1.427 . S
N318 C315 1.384 . S
N319 C311 1.427 . S
N319 C317 1.384 . S
H320 C326 0.930 . S
H321 C330 0.930 . S
H322 C335 0.929 . S
H323 C333 0.929 . S
H324 C328 0.929 . S
H325 C334 0.929 . S
C326 H320 0.930 . S
C326 C327 1.367 . S
C326 C334 1.378 . S
C327 C326 1.367 . S
C327 C335 1.433 . S
C328 H324 0.929 . S
C328 C330 1.378 . S
C328 C332 1.350 . S
C329 C332 1.463 . S
C329 C334 1.350 . S
C329 N337 1.427 . S
C330 H321 0.930 . S
C330 C328 1.378 . S
C330 C331 1.367 . S
C331 C330 1.367 . S
C331 C333 1.433 . S
C332 C328 1.350 . S
C332 C329 1.463 . S
C332 N336 1.427 . S
C333 H323 0.929 . S
C333 C331 1.433 . S
C333 N336 1.384 . S
C334 H325 0.929 . S
C334 C326 1.378 . S
C334 C329 1.350 . S
C335 H322 0.929 . S
C335 C327 1.433 . S
C335 N337 1.384 . S
N336 C332 1.427 . S
N336 C333 1.384 . S
N337 C329 1.427 . S
N337 C335 1.384 . S
H338 C344 0.930 . S
H339 C348 0.930 . S
H340 C353 0.929 . S
H341 C351 0.929 . S
H342 C346 0.929 . S
H343 C352 0.929 . S
C344 H338 0.930 . S
C344 C345 1.367 . S
C344 C352 1.378 . S
C345 C344 1.367 . S
C345 C353 1.433 . S
C346 H342 0.929 . S
C346 C348 1.378 . S
C346 C350 1.350 . S
C347 C350 1.463 . S
C347 C352 1.350 . S
C347 N355 1.427 . S
C348 H339 0.930 . S
C348 C346 1.378 . S
C348 C349 1.367 . S
C349 C348 1.367 . S
C349 C351 1.433 . S
C350 C346 1.350 . S
C350 C347 1.463 . S
C350 N354 1.427 . S
C351 H341 0.929 . S
C351 C349 1.433 . S
C351 N354 1.384 . S
C352 H343 0.929 . S
C352 C344 1.378 . S
C352 C347 1.350 . S
C353 H340 0.929 . S
C353 C345 1.433 . S
C353 N355 1.384 . S
N354 C350 1.427 . S
N354 C351 1.384 . S
N355 C347 1.427 . S
N355 C353 1.384 . S
H356 C362 0.930 . S
H357 C366 0.930 . S
H358 C371 0.929 . S
H359 C369 0.929 . S
H360 C364 0.929 . S
H361 C370 0.929 . S
C362 H356 0.930 . S
C362 C363 1.367 . S
C362 C370 1.378 . S
C363 C362 1.367 . S
C363 C371 1.433 . S
C364 H360 0.929 . S
C364 C366 1.378 . S
C364 C368 1.350 . S
C365 C368 1.463 . S
C365 C370 1.350 . S
C365 N373 1.427 . S
C366 H357 0.930 . S
C366 C364 1.378 . S
C366 C367 1.367 . S
C367 C366 1.367 . S
C367 C369 1.433 . S
C368 C364 1.350 . S
C368 C365 1.463 . S
C368 N372 1.427 . S
C369 H359 0.929 . S
C369 C367 1.433 . S
C369 N372 1.384 . S
C370 H361 0.929 . S
C370 C362 1.378 . S
C370 C365 1.350 . S
C371 H358 0.929 . S
C371 C363 1.433 . S
C371 N373 1.384 . S
N372 C368 1.427 . S
N372 C369 1.384 . S
N373 C365 1.427 . S
N373 C371 1.384 . S
H374 C380 0.930 . S
H375 C384 0.930 . S
H376 C389 0.929 . S
H377 C387 0.929 . S
H378 C382 0.929 . S
H379 C388 0.929 . S
C380 H374 0.930 . S
C380 C381 1.367 . S
C380 C388 1.378 . S
C381 C380 1.367 . S
C381 C389 1.433 . S
C382 H378 0.929 . S
C382 C384 1.378 . S
C382 C386 1.350 . S
C383 C386 1.463 . S
C383 C388 1.350 . S
C383 N391 1.427 . S
C384 H375 0.930 . S
C384 C382 1.378 . S
C384 C385 1.367 . S
C385 C384 1.367 . S
C385 C387 1.433 . S
C386 C382 1.350 . S
C386 C383 1.463 . S
C386 N390 1.427 . S
C387 H377 0.929 . S
C387 C385 1.433 . S
C387 N390 1.384 . S
C388 H379 0.929 . S
C388 C380 1.378 . S
C388 C383 1.350 . S
C389 H376 0.929 . S
C389 C381 1.433 . S
C389 N391 1.384 . S
N390 C386 1.427 . S
N390 C387 1.384 . S
N391 C383 1.427 . S
N391 C389 1.384 . S
H392 C398 0.930 . S
H393 C402 0.930 . S
H394 C407 0.929 . S
H395 C405 0.929 . S
H396 C400 0.929 . S
H397 C406 0.929 . S
C398 H392 0.930 . S
C398 C399 1.367 . S
C398 C406 1.378 . S
C399 C398 1.367 . S
C399 C407 1.433 . S
C400 H396 0.929 . S
C400 C402 1.378 . S
C400 C404 1.350 . S
C401 C404 1.463 . S
C401 C406 1.350 . S
C401 N409 1.427 . S
C402 H393 0.930 . S
C402 C400 1.378 . S
C402 C403 1.367 . S
C403 C402 1.367 . S
C403 C405 1.433 . S
C404 C400 1.350 . S
C404 C401 1.463 . S
C404 N408 1.427 . S
C405 H395 0.929 . S
C405 C403 1.433 . S
C405 N408 1.384 . S
C406 H397 0.929 . S
C406 C398 1.378 . S
C406 C401 1.350 . S
C407 H394 0.929 . S
C407 C399 1.433 . S
C407 N409 1.384 . S
N408 C404 1.427 . S
N408 C405 1.384 . S
N409 C401 1.427 . S
N409 C407 1.384 . S
H410 C416 0.930 . S
H411 C420 0.930 . S
H412 C425 0.929 . S
H413 C423 0.929 1_554 S
H414 C418 0.929 . S
H415 C424 0.929 . S
C416 H410 0.930 . S
C416 C417 1.367 . S
C416 C424 1.378 . S
C417 C416 1.367 . S
C417 C425 1.433 . S
C418 H414 0.929 . S
C418 C420 1.378 . S
C418 C422 1.350 . S
C419 C422 1.463 . S
C419 C424 1.350 . S
C419 N427 1.427 . S
C420 H411 0.930 . S
C420 C418 1.378 . S
C420 C421 1.367 1_556 S
C421 C420 1.367 1_554 S
C421 C423 1.433 1_554 S
C422 C418 1.350 . S
C422 C419 1.463 . S
C422 N426 1.427 . S
C423 H413 0.929 1_556 S
C423 C421 1.433 1_556 S
C423 N426 1.384 . S
C424 H415 0.929 . S
C424 C416 1.378 . S
C424 C419 1.350 . S
C425 H412 0.929 . S
C425 C417 1.433 . S
C425 N427 1.384 . S
N426 C422 1.427 . S
N426 C423 1.384 . S
N427 C419 1.427 . S
N427 C425 1.384 . S
H428 C434 0.930 . S
H429 C438 0.930 . S
H430 C443 0.929 . S
H431 C441 0.929 . S
H432 C436 0.929 . S
H433 C442 0.929 . S
C434 H428 0.930 . S
C434 C435 1.367 . S
C434 C442 1.378 . S
C435 C434 1.367 . S
C435 C443 1.433 . S
C436 H432 0.929 . S
C436 C438 1.378 . S
C436 C440 1.350 . S
C437 C440 1.463 . S
C437 C442 1.350 . S
C437 N445 1.427 . S
C438 H429 0.930 . S
C438 C436 1.378 . S
C438 C439 1.367 . S
C439 C438 1.367 . S
C439 C441 1.433 . S
C440 C436 1.350 . S
C440 C437 1.463 . S
C440 N444 1.427 . S
C441 H431 0.929 . S
C441 C439 1.433 . S
C441 N444 1.384 . S
C442 H433 0.929 . S
C442 C434 1.378 . S
C442 C437 1.350 . S
C443 H430 0.929 . S
C443 C435 1.433 . S
C443 N445 1.384 . S
N444 C440 1.427 . S
N444 C441 1.384 . S
N445 C437 1.427 . S
N445 C443 1.384 . S
H446 C452 0.930 . S
H447 C456 0.930 . S
H448 C461 0.929 . S
H449 C459 0.929 . S
H450 C454 0.929 . S
H451 C460 0.929 . S
C452 H446 0.930 . S
C452 C453 1.367 . S
C452 C460 1.378 . S
C453 C452 1.367 . S
C453 C461 1.433 . S
C454 H450 0.929 . S
C454 C456 1.378 . S
C454 C458 1.350 . S
C455 C458 1.463 . S
C455 C460 1.350 . S
C455 N463 1.427 . S
C456 H447 0.930 . S
C456 C454 1.378 . S
C456 C457 1.367 . S
C457 C456 1.367 . S
C457 C459 1.433 . S
C458 C454 1.350 . S
C458 C455 1.463 . S
C458 N462 1.427 . S
C459 H449 0.929 . S
C459 C457 1.433 . S
C459 N462 1.384 . S
C460 H451 0.929 . S
C460 C452 1.378 . S
C460 C455 1.350 . S
C461 H448 0.929 . S
C461 C453 1.433 . S
C461 N463 1.384 . S
N462 C458 1.427 . S
N462 C459 1.384 . S
N463 C455 1.427 . S
N463 C461 1.384 . S
H464 C470 0.930 . S
H465 C474 0.930 . S
H466 C479 0.929 . S
H467 C477 0.929 . S
H468 C472 0.929 . S
H469 C478 0.929 . S
C470 H464 0.930 . S
C470 C471 1.367 . S
C470 C478 1.378 . S
C471 C470 1.367 . S
C471 C479 1.433 . S
C472 H468 0.929 . S
C472 C474 1.378 . S
C472 C476 1.350 . S
C473 C476 1.463 . S
C473 C478 1.350 . S
C473 N481 1.427 . S
C474 H465 0.930 . S
C474 C472 1.378 . S
C474 C475 1.367 . S
C475 C474 1.367 . S
C475 C477 1.433 . S
C476 C472 1.350 . S
C476 C473 1.463 . S
C476 N480 1.427 . S
C477 H467 0.929 . S
C477 C475 1.433 . S
C477 N480 1.384 . S
C478 H469 0.929 . S
C478 C470 1.378 . S
C478 C473 1.350 . S
C479 H466 0.929 . S
C479 C471 1.433 . S
C479 N481 1.384 . S
N480 C476 1.427 . S
N480 C477 1.384 . S
N481 C473 1.427 . S
N481 C479 1.384 . S
H482 C488 0.930 . S
H483 C492 0.930 . S
H484 C497 0.929 . S
H485 C495 0.929 . S
H486 C490 0.929 . S
H487 C496 0.929 . S
C488 H482 0.930 . S
C488 C489 1.367 . S
C488 C496 1.378 . S
C489 C488 1.367 . S
C489 C497 1.433 . S
C490 H486 0.929 . S
C490 C492 1.378 . S
C490 C494 1.350 . S
C491 C494 1.463 . S
C491 C496 1.350 . S
C491 N499 1.427 . S
C492 H483 0.930 . S
C492 C490 1.378 . S
C492 C493 1.367 . S
C493 C492 1.367 . S
C493 C495 1.433 . S
C494 C490 1.350 . S
C494 C491 1.463 . S
C494 N498 1.427 . S
C495 H485 0.929 . S
C495 C493 1.433 . S
C495 N498 1.384 . S
C496 H487 0.929 . S
C496 C488 1.378 . S
C496 C491 1.350 . S
C497 H484 0.929 . S
C497 C489 1.433 . S
C497 N499 1.384 . S
N498 C494 1.427 . S
N498 C495 1.384 . S
N499 C491 1.427 . S
N499 C497 1.384 . S
H500 C506 0.930 . S
H501 C510 0.930 . S
H502 C515 0.929 . S
H503 C513 0.929 . S
H504 C508 0.929 . S
H505 C514 0.929 . S
C506 H500 0.930 . S
C506 C507 1.367 . S
C506 C514 1.378 . S
C507 C506 1.367 . S
C507 C515 1.433 . S
C508 H504 0.929 . S
C508 C510 1.378 . S
C508 C512 1.350 . S
C509 C512 1.463 . S
C509 C514 1.350 . S
C509 N517 1.427 . S
C510 H501 0.930 . S
C510 C508 1.378 . S
C510 C511 1.367 . S
C511 C510 1.367 . S
C511 C513 1.433 . S
C512 C508 1.350 . S
C512 C509 1.463 . S
C512 N516 1.427 . S
C513 H503 0.929 . S
C513 C511 1.433 . S
C513 N516 1.384 . S
C514 H505 0.929 . S
C514 C506 1.378 . S
C514 C509 1.350 . S
C515 H502 0.929 . S
C515 C507 1.433 . S
C515 N517 1.384 . S
N516 C512 1.427 . S
N516 C513 1.384 . S
N517 C509 1.427 . S
N517 C515 1.384 . S
H518 C524 0.930 . S
H519 C528 0.930 . S
H520 C533 0.929 . S
H521 C531 0.929 . S
H522 C526 0.929 . S
H523 C532 0.929 . S
C524 H518 0.930 . S
C524 C525 1.367 . S
C524 C532 1.378 . S
C525 C524 1.367 . S
C525 C533 1.433 . S
C526 H522 0.929 . S
C526 C528 1.378 . S
C526 C530 1.350 . S
C527 C530 1.463 . S
C527 C532 1.350 . S
C527 N535 1.427 . S
C528 H519 0.930 . S
C528 C526 1.378 . S
C528 C529 1.367 . S
C529 C528 1.367 . S
C529 C531 1.433 . S
C530 C526 1.350 . S
C530 C527 1.463 . S
C530 N534 1.427 . S
C531 H521 0.929 . S
C531 C529 1.433 . S
C531 N534 1.384 . S
C532 H523 0.929 . S
C532 C524 1.378 . S
C532 C527 1.350 . S
C533 H520 0.929 . S
C533 C525 1.433 . S
C533 N535 1.384 . S
N534 C530 1.427 . S
N534 C531 1.384 . S
N535 C527 1.427 . S
N535 C533 1.384 . S
H536 C542 0.930 . S
H537 C546 0.930 . S
H538 C551 0.929 . S
H539 C549 0.929 . S
H540 C544 0.929 . S
H541 C550 0.929 . S
C542 H536 0.930 . S
C542 C543 1.367 . S
C542 C550 1.378 . S
C543 C542 1.367 . S
C543 C551 1.433 . S
C544 H540 0.929 . S
C544 C546 1.378 . S
C544 C548 1.350 . S
C545 C548 1.463 . S
C545 C550 1.350 . S
C545 N553 1.427 . S
C546 H537 0.930 . S
C546 C544 1.378 . S
C546 C547 1.367 . S
C547 C546 1.367 . S
C547 C549 1.433 . S
C548 C544 1.350 . S
C548 C545 1.463 . S
C548 N552 1.427 . S
C549 H539 0.929 . S
C549 C547 1.433 . S
C549 N552 1.384 . S
C550 H541 0.929 . S
C550 C542 1.378 . S
C550 C545 1.350 . S
C551 H538 0.929 . S
C551 C543 1.433 . S
C551 N553 1.384 . S
N552 C548 1.427 . S
N552 C549 1.384 . S
N553 C545 1.427 . S
N553 C551 1.384 . S
H554 C560 0.930 . S
H555 C564 0.930 . S
H556 C569 0.929 . S
H557 C567 0.929 . S
H558 C562 0.929 . S
H559 C568 0.929 . S
C560 H554 0.930 . S
C560 C561 1.367 . S
C560 C568 1.378 . S
C561 C560 1.367 . S
C561 C569 1.433 . S
C562 H558 0.929 . S
C562 C564 1.378 . S
C562 C566 1.350 . S
C563 C566 1.463 . S
C563 C568 1.350 . S
C563 N571 1.427 . S
C564 H555 0.930 . S
C564 C562 1.378 . S
C564 C565 1.367 . S
C565 C564 1.367 . S
C565 C567 1.433 . S
C566 C562 1.350 . S
C566 C563 1.463 . S
C566 N570 1.427 . S
C567 H557 0.929 . S
C567 C565 1.433 . S
C567 N570 1.384 . S
C568 H559 0.929 . S
C568 C560 1.378 . S
C568 C563 1.350 . S
C569 H556 0.929 . S
C569 C561 1.433 . S
C569 N571 1.384 . S
N570 C566 1.427 . S
N570 C567 1.384 . S
N571 C563 1.427 . S
N571 C569 1.384 . S
H572 C578 0.930 . S
H573 C582 0.930 . S
H574 C587 0.929 . S
H575 C585 0.929 . S
H576 C580 0.929 . S
H577 C586 0.929 . S
C578 H572 0.930 . S
C578 C579 1.367 . S
C578 C586 1.378 . S
C579 C578 1.367 . S
C579 C587 1.433 . S
C580 H576 0.929 . S
C580 C582 1.378 . S
C580 C584 1.350 . S
C581 C584 1.463 . S
C581 C586 1.350 . S
C581 N589 1.427 . S
C582 H573 0.930 . S
C582 C580 1.378 . S
C582 C583 1.367 . S
C583 C582 1.367 . S
C583 C585 1.433 . S
C584 C580 1.350 . S
C584 C581 1.463 . S
C584 N588 1.427 . S
C585 H575 0.929 . S
C585 C583 1.433 . S
C585 N588 1.384 . S
C586 H577 0.929 . S
C586 C578 1.378 . S
C586 C581 1.350 . S
C587 H574 0.929 . S
C587 C579 1.433 . S
C587 N589 1.384 . S
N588 C584 1.427 . S
N588 C585 1.384 . S
N589 C581 1.427 . S
N589 C587 1.384 . S
H590 C596 0.930 . S
H591 C600 0.930 . S
H592 C605 0.929 . S
H593 C603 0.929 . S
H594 C598 0.929 . S
H595 C604 0.929 . S
C596 H590 0.930 . S
C596 C597 1.367 . S
C596 C604 1.378 . S
C597 C596 1.367 . S
C597 C605 1.433 . S
C598 H594 0.929 . S
C598 C600 1.378 . S
C598 C602 1.350 . S
C599 C602 1.463 . S
C599 C604 1.350 . S
C599 N607 1.427 . S
C600 H591 0.930 . S
C600 C598 1.378 . S
C600 C601 1.367 . S
C601 C600 1.367 . S
C601 C603 1.433 . S
C602 C598 1.350 . S
C602 C599 1.463 . S
C602 N606 1.427 . S
C603 H593 0.929 . S
C603 C601 1.433 . S
C603 N606 1.384 . S
C604 H595 0.929 . S
C604 C596 1.378 . S
C604 C599 1.350 . S
C605 H592 0.929 . S
C605 C597 1.433 . S
C605 N607 1.384 . S
N606 C602 1.427 . S
N606 C603 1.384 . S
N607 C599 1.427 . S
N607 C605 1.384 . S
H608 C614 0.930 . S
H609 C618 0.930 . S
H610 C623 0.929 . S
H611 C621 0.929 . S
H612 C616 0.929 . S
H613 C622 0.929 . S
C614 H608 0.930 . S
C614 C615 1.367 . S
C614 C622 1.378 . S
C615 C614 1.367 . S
C615 C623 1.433 . S
C616 H612 0.929 . S
C616 C618 1.378 . S
C616 C620 1.350 . S
C617 C620 1.463 . S
C617 C622 1.350 . S
C617 N625 1.427 . S
C618 H609 0.930 . S
C618 C616 1.378 . S
C618 C619 1.367 . S
C619 C618 1.367 . S
C619 C621 1.433 . S
C620 C616 1.350 . S
C620 C617 1.463 . S
C620 N624 1.427 . S
C621 H611 0.929 . S
C621 C619 1.433 . S
C621 N624 1.384 . S
C622 H613 0.929 . S
C622 C614 1.378 . S
C622 C617 1.350 . S
C623 H610 0.929 . S
C623 C615 1.433 . S
C623 N625 1.384 . S
N624 C620 1.427 . S
N624 C621 1.384 . S
N625 C617 1.427 . S
N625 C623 1.384 . S
H626 C632 0.930 . S
H627 C636 0.930 . S
H628 C641 0.929 . S
H629 C639 0.929 . S
H630 C634 0.929 . S
H631 C640 0.929 . S
C632 H626 0.930 . S
C632 C633 1.367 . S
C632 C640 1.378 . S
C633 C632 1.367 . S
C633 C641 1.433 . S
C634 H630 0.929 . S
C634 C636 1.378 . S
C634 C638 1.350 . S
C635 C638 1.463 . S
C635 C640 1.350 . S
C635 N643 1.427 . S
C636 H627 0.930 . S
C636 C634 1.378 . S
C636 C637 1.367 . S
C637 C636 1.367 . S
C637 C639 1.433 . S
C638 C634 1.350 . S
C638 C635 1.463 . S
C638 N642 1.427 . S
C639 H629 0.929 . S
C639 C637 1.433 . S
C639 N642 1.384 . S
C640 H631 0.929 . S
C640 C632 1.378 . S
C640 C635 1.350 . S
C641 H628 0.929 . S
C641 C633 1.433 . S
C641 N643 1.384 . S
N642 C638 1.427 . S
N642 C639 1.384 . S
N643 C635 1.427 . S
N643 C641 1.384 . S
H644 C650 0.930 . S
H645 C654 0.930 . S
H646 C659 0.929 . S
H647 C657 0.929 . S
H648 C652 0.929 . S
H649 C658 0.929 . S
C650 H644 0.930 . S
C650 C651 1.367 . S
C650 C658 1.378 . S
C651 C650 1.367 . S
C651 C659 1.433 . S
C652 H648 0.929 . S
C652 C654 1.378 . S
C652 C656 1.350 . S
C653 C656 1.463 . S
C653 C658 1.350 . S
C653 N661 1.427 . S
C654 H645 0.930 . S
C654 C652 1.378 . S
C654 C655 1.367 . S
C655 C654 1.367 . S
C655 C657 1.433 . S
C656 C652 1.350 . S
C656 C653 1.463 . S
C656 N660 1.427 . S
C657 H647 0.929 . S
C657 C655 1.433 . S
C657 N660 1.384 . S
C658 H649 0.929 . S
C658 C650 1.378 . S
C658 C653 1.350 . S
C659 H646 0.929 . S
C659 C651 1.433 . S
C659 N661 1.384 . S
N660 C656 1.427 . S
N660 C657 1.384 . S
N661 C653 1.427 . S
N661 C659 1.384 . S
H662 C668 0.930 . S
H663 C672 0.930 . S
H664 C677 0.929 . S
H665 C675 0.929 . S
H666 C670 0.929 . S
H667 C676 0.929 . S
C668 H662 0.930 . S
C668 C669 1.367 . S
C668 C676 1.378 . S
C669 C668 1.367 . S
C669 C677 1.433 . S
C670 H666 0.929 . S
C670 C672 1.378 . S
C670 C674 1.350 . S
C671 C674 1.463 . S
C671 C676 1.350 . S
C671 N679 1.427 . S
C672 H663 0.930 . S
C672 C670 1.378 . S
C672 C673 1.367 . S
C673 C672 1.367 . S
C673 C675 1.433 . S
C674 C670 1.350 . S
C674 C671 1.463 . S
C674 N678 1.427 . S
C675 H665 0.929 . S
C675 C673 1.433 . S
C675 N678 1.384 . S
C676 H667 0.929 . S
C676 C668 1.378 . S
C676 C671 1.350 . S
C677 H664 0.929 . S
C677 C669 1.433 . S
C677 N679 1.384 . S
N678 C674 1.427 . S
N678 C675 1.384 . S
N679 C671 1.427 . S
N679 C677 1.384 . S
C255 C5 0.996 . S
C259 C94 1.214 . S
C273 C18 1.003 . S
C277 C143 1.071 . S
C295 C178 2.347 . S
C291 C30 2.392 . S
C309 C41 2.097 . S
C313 C217 2.041 . S
C331 C138 2.323 . S
C327 C7 2.132 . S
C349 C97 0.911 . S
C345 C16 0.840 . S
C367 C227 1.954 . S
C363 C29 1.921 . S
C385 C186 1.234 . S
C381 C38 1.139 . S
C399 C8 1.494 . S
C403 C214 1.575 . S
C421 C146 2.555 . S
C417 C27 2.383 . S
C435 C40 2.445 . S
C439 C107 2.458 . S
C453 C19 0.686 . S
C457 C183 0.698 . S
C475 C103 1.120 . S
C471 C51 0.962 . S
C489 C62 1.336 . S
C493 C134 1.309 . S
C507 C74 2.477 . S
C511 C187 2.442 . S
C525 C84 2.195 . S
C529 C226 2.254 . S
C543 C49 1.937 . S
C547 C147 2.555 1_556 S
C565 C106 0.952 . S
C561 C63 0.963 . S
C583 C218 1.803 . S
C579 C71 1.692 . S
C601 C177 1.370 . S
C597 C85 1.378 . S
C615 C52 1.499 . S
C619 C223 1.598 . S
C637 C137 2.626 . S
C633 C73 2.702 . S
C655 C98 1.990 . S
C651 C82 1.708 . S
C669 C60 0.807 . S
C673 C174 0.819 . S
