# Generated by pormake.
# Topology nia, (6,6)-cn, num edge types: 1
# Building blocks:
#     Node 0, Type 0, BuildingBlock: GEDQOX_clean_sbu_0, # of connection points: 6
#     Node 1, Type 0, BuildingBlock: GEDQOX_clean_sbu_0, # of connection points: 6
#     Node 2, Type 1, BuildingBlock: MIDCAF_clean_sbu_0, # of connection points: 6
#     Node 3, Type 1, BuildingBlock: MIDCAF_clean_sbu_0, # of connection points: 6
#     Edge 4, Type (0, 1), BuildingBlock: MIFKUJ_clean_linker_0, # of connection points: 2
#     Edge 5, Type (0, 1), BuildingBlock: MIFKUJ_clean_linker_0, # of connection points: 2
#     Edge 6, Type (0, 1), BuildingBlock: MIFKUJ_clean_linker_0, # of connection points: 2
#     Edge 7, Type (0, 1), BuildingBlock: MIFKUJ_clean_linker_0, # of connection points: 2
#     Edge 8, Type (0, 1), BuildingBlock: MIFKUJ_clean_linker_0, # of connection points: 2
#     Edge 9, Type (0, 1), BuildingBlock: MIFKUJ_clean_linker_0, # of connection points: 2
#     Edge 10, Type (0, 1), BuildingBlock: MIFKUJ_clean_linker_0, # of connection points: 2
#     Edge 11, Type (0, 1), BuildingBlock: MIFKUJ_clean_linker_0, # of connection points: 2
#     Edge 12, Type (0, 1), BuildingBlock: MIFKUJ_clean_linker_0, # of connection points: 2
#     Edge 13, Type (0, 1), BuildingBlock: MIFKUJ_clean_linker_0, # of connection points: 2
#     Edge 14, Type (0, 1), BuildingBlock: MIFKUJ_clean_linker_0, # of connection points: 2
#     Edge 15, Type (0, 1), BuildingBlock: MIFKUJ_clean_linker_0, # of connection points: 2
# Relax obj value: 0.271
# Max RMSD: 0.260
# Mean RMSD: 0.233
data_MOF--net-nia--node1-GEDQOX_clean_sbu_0--node2-MIDCAF_clean_sbu_0--edge1-MIFKUJ_clean_linker_0
_symmetry_space_group_name_H-M    P1
_symmetry_Int_Tables_number       1
_symmetry_cell_setting            triclinic
loop_
_symmetry_equiv_pos_as_xyz
'x, y, z'
_cell_length_a     34.541906
_cell_length_b     32.785447
_cell_length_c     43.136366
_cell_angle_alpha  99.038319
_cell_angle_beta   72.238811
_cell_angle_gamma 126.62245
loop_
_atom_site_label
_atom_site_type_symbol
_atom_site_fract_x
_atom_site_fract_y
_atom_site_fract_z
_atom_type_partial_charge
Nd0 Nd 0.01302 0.05509 1.0021 0.0
Nd1 Nd 0.00417 0.97209 0.04549 0.0
C2 C 0.045 0.12709 0.96072 0.0
C3 C 0.02404 0.13794 0.94089 0.0
C4 C 0.0549 0.18266 0.92149 0.0
C5 C 0.03501 0.19455 0.90359 0.0
C6 C 0.98375 0.1619 0.90484 0.0
C7 C 0.95314 0.11657 0.92396 0.0
C8 C 0.97312 0.10471 0.94182 0.0
C9 C 0.91731 0.98993 0.04195 0.0
C10 C 0.03841 0.0847 0.07353 0.0
C11 C 0.97572 0.90088 0.08613 0.0
C12 C -0.00116 0.88664 0.10206 0.0
C13 C -0.00613 0.89211 0.13576 0.0
C14 C 0.01421 0.87737 0.15123 0.0
C15 C 0.03953 0.85628 0.1334 0.0
C16 C 0.04465 0.85101 0.09967 0.0
C17 C 0.02461 0.866 0.08418 0.0
C18 C 0.09974 0.03636 1.00474 0.0
C19 C 0.97212 0.94026 0.97592 0.0
O20 O 0.02932 0.12887 0.99235 0.0
O21 O 0.04797 0.08866 0.95198 0.0
O22 O 0.92866 0.02362 0.02195 0.0
O23 O 0.95595 0.99247 0.03911 0.0
O24 O 0.0453 0.1012 0.04482 0.0
O25 O 0.01913 0.03713 0.08044 0.0
O26 O 0.98211 0.89546 0.05456 0.0
O27 O 0.97798 0.94206 0.09596 0.0
O28 O 0.08769 0.0013 0.02383 0.0
O29 O 0.06159 0.03522 1.00867 0.0
O30 O 0.96691 0.92499 1.0046 0.0
O31 O -0.00696 0.98809 0.96829 0.0
H32 H 0.0943 0.20879 0.92057 0.0
H33 H 0.05953 0.23003 0.88949 0.0
H34 H 0.91368 0.09024 0.92516 0.0
H35 H 0.94876 0.06988 0.95661 0.0
H36 H 0.97381 0.9074 0.15025 0.0
H37 H 0.00912 0.88144 0.17729 0.0
H38 H 0.06445 0.83549 0.08513 0.0
H39 H 0.02917 0.86111 0.0582 0.0
Nd40 Nd 0.98009 0.9979 0.49805 0.0
Nd41 Nd 0.03364 0.02172 0.54976 0.0
C42 C 0.94772 0.0021 0.45138 0.0
C43 C 0.9039 0.98796 0.44213 0.0
C44 C 0.91093 0.01701 0.41771 0.0
C45 C 0.87196 -0.00028 0.40412 0.0
C46 C 0.82542 0.95298 0.41475 0.0
C47 C 0.81762 0.9255 0.44069 0.0
C48 C 0.85665 0.94289 0.45431 0.0
C49 C 0.93328 0.91836 0.5418 0.0
C50 C 0.95341 0.04717 0.56635 0.0
C51 C 0.06869 0.02013 0.59576 0.0
C52 C 0.11392 0.03597 0.604 0.0
C53 C 0.11064 0.00384 0.62417 0.0
C54 C 0.15085 0.02081 0.63637 0.0
C55 C 0.19476 0.07036 0.62873 0.0
C56 C 0.19884 0.10158 0.6072 0.0
C57 C 0.15874 0.08447 0.59483 0.0
C58 C 0.07914 0.1011 0.50611 0.0
C59 C 0.05821 0.96994 0.48186 0.0
O60 O 0.96443 0.03816 0.47226 0.0
O61 O 0.94995 0.96492 0.45541 0.0
O62 O 0.93117 0.91188 0.51176 0.0
O63 O 0.9542 0.96447 0.5484 0.0
O64 O 0.95715 0.04424 0.53476 0.0
O65 O 0.97145 0.03004 0.57923 0.0
O66 O 0.05188 0.98361 0.57518 0.0
O67 O 0.0645 0.05605 0.59208 0.0
O68 O 0.07899 0.10736 0.53657 0.0
O69 O 0.05981 0.05519 0.49937 0.0
O70 O 0.05638 0.9749 0.51321 0.0
O71 O 0.03979 0.98637 0.46886 0.0
H72 H 0.94725 0.05195 0.40811 0.0
H73 H 0.87874 0.02209 0.38456 0.0
H74 H 0.78225 0.8892 0.44925 0.0
H75 H 0.85065 0.91999 0.4732 0.0
H76 H 0.07621 0.96633 0.63153 0.0
H77 H 0.14671 0.9961 0.65301 0.0
H78 H 0.23264 0.13966 0.60053 0.0
H79 H 0.16215 0.10976 0.5791 0.0
Zn80 Zn 0.30485 0.61407 0.21792 0.0
Zn81 Zn 0.2931 0.64263 0.34352 0.0
Zn82 Zn 0.29731 0.62921 0.28146 0.0
C83 C 0.39364 0.69554 0.31036 0.0
C84 C 0.24294 0.53866 0.33671 0.0
O85 O 0.26275 0.66084 0.26772 0.0
O86 O 0.26915 0.64335 0.2154 0.0
C87 C 0.40236 0.67651 0.22236 0.0
O88 O 0.37456 0.67644 0.28596 0.0
O89 O 0.36592 0.68719 0.33901 0.0
O90 O 0.25409 0.57121 0.35859 0.0
O91 O 0.25561 0.55302 0.30685 0.0
O92 O 0.37869 0.65414 0.20095 0.0
O93 O 0.37832 0.67154 0.25269 0.0
O94 O 0.25446 0.54594 0.27402 0.0
O95 O 0.26721 0.53945 0.22044 0.0
C96 C 0.24786 0.51879 0.24846 0.0
O97 O 0.26026 0.66913 0.30132 0.0
O98 O 0.26002 0.67682 0.35328 0.0
C99 C 0.25526 0.66202 0.24043 0.0
C100 C 0.24992 0.6846 0.33006 0.0
Zn101 Zn 0.70855 0.39379 0.83075 0.0
Zn102 Zn 0.73098 0.37788 0.70649 0.0
Zn103 Zn 0.72045 0.3911 0.76744 0.0
C104 C 0.76338 0.47887 0.71544 0.0
C105 C 0.62979 0.31365 0.73588 0.0
O106 O 0.7571 0.36042 0.78054 0.0
O107 O 0.73748 0.35851 0.83438 0.0
C108 C 0.76885 0.49505 0.8045 0.0
O109 O 0.75921 0.46809 0.74437 0.0
O110 O 0.75038 0.44459 0.69469 0.0
O111 O 0.66068 0.31833 0.70929 0.0
O112 O 0.64518 0.34082 0.76019 0.0
O113 O 0.75193 0.4693 0.83023 0.0
O114 O 0.75991 0.47288 0.77755 0.0
O115 O 0.63819 0.34829 0.79384 0.0
O116 O 0.63481 0.3558 0.84631 0.0
C117 C 0.6127 0.33929 0.82403 0.0
O118 O 0.76026 0.35406 0.74688 0.0
O119 O 0.78201 0.36437 0.69336 0.0
C120 C 0.75865 0.34969 0.80752 0.0
C121 C 0.78266 0.34901 0.71808 0.0
H122 H 0.09082 0.90443 0.18023 0.0
H123 H 0.12494 0.87577 0.20645 0.0
H124 H 0.06846 0.74059 0.14987 0.0
H125 H 0.03371 0.76853 0.12401 0.0
H126 H 0.04992 0.71967 0.21424 0.0
H127 H 0.19066 0.84046 0.12843 0.0
H128 H 0.24966 0.9246 0.10015 0.0
H129 H 0.2969 0.99292 0.18698 0.0
H130 H 0.23766 0.90922 0.2159 0.0
H131 H 0.18556 0.62329 0.20764 0.0
H132 H 0.14693 0.66096 0.19801 0.0
H133 H 0.22881 0.78861 0.25577 0.0
H134 H 0.2691 0.75131 0.26454 0.0
H135 H 0.2328 0.82045 0.20079 0.0
H136 H 0.1025 0.70084 0.28466 0.0
H137 H 0.04548 0.61788 0.31433 0.0
H138 H 0.97677 0.54959 0.23539 0.0
H139 H 0.03466 0.63184 0.2048 0.0
C140 C 0.08534 0.86841 0.17358 0.0
C141 C 0.05978 0.83891 0.14986 0.0
C142 C 0.10513 0.85223 0.18844 0.0
C143 C 0.09958 0.80618 0.17996 0.0
C144 C 0.07327 0.77628 0.15678 0.0
C145 C 0.0538 0.79253 0.1418 0.0
C146 C 0.12167 0.78908 0.19467 0.0
C147 C 0.08992 0.74154 0.21116 0.0
C148 C 0.17365 0.81853 0.19186 0.0
C149 C 0.20934 0.86873 0.17442 0.0
C150 C 0.21334 0.8735 0.14156 0.0
C151 C 0.24687 0.92109 0.1254 0.0
C152 C 0.27689 0.9641 0.14179 0.0
C153 C 0.27355 0.95959 0.17434 0.0
C154 C 0.24003 0.91209 0.19062 0.0
C155 C 0.19496 0.65916 0.21857 0.0
C156 C 0.22944 0.68388 0.23745 0.0
C157 C 0.17263 0.68055 0.21322 0.0
C158 C 0.18412 0.72723 0.22665 0.0
C159 C 0.21895 0.75235 0.24539 0.0
C160 C 0.24154 0.73084 0.25068 0.0
C161 C 0.1612 0.75021 0.21949 0.0
C162 C 0.1927 0.79884 0.20444 0.0
C163 C 0.10887 0.72202 0.22397 0.0
C164 C 0.07327 0.67248 0.24237 0.0
C165 C 0.07554 0.66801 0.27355 0.0
C166 C 0.04301 0.62114 0.29054 0.0
C167 C 0.00741 0.5785 0.2768 0.0
C168 C 0.00435 0.58267 0.24601 0.0
C169 C 0.03709 0.62943 0.22882 0.0
H170 H 0.98219 0.54224 0.29 0.0
H171 H 0.30283 0.00091 0.12924 0.0
H172 H 0.24179 0.16109 0.6578 0.0
H173 H 0.30847 0.19594 0.68418 0.0
H174 H 0.30442 0.06053 0.66301 0.0
H175 H 0.23682 0.025 0.63689 0.0
H176 H 0.31645 0.09299 0.72343 0.0
H177 H 0.3928 0.1655 0.6155 0.0
H178 H 0.40595 0.20938 0.56786 0.0
H179 H 0.44103 0.34208 0.62393 0.0
H180 H 0.42736 0.29869 0.67208 0.0
H181 H 0.57692 0.21568 0.71763 0.0
H182 H 0.49254 0.16631 0.7098 0.0
H183 H 0.48029 0.28922 0.74741 0.0
H184 H 0.56462 0.33854 0.75503 0.0
H185 H 0.47402 0.26116 0.68158 0.0
H186 H 0.40939 0.18693 0.78789 0.0
H187 H 0.39956 0.13985 0.83231 0.0
H188 H 0.34697 0.0059 0.77549 0.0
H189 H 0.35785 0.05247 0.73033 0.0
C190 C 0.2553 0.13886 0.65862 0.0
C191 C 0.23483 0.09075 0.64486 0.0
C192 C 0.29315 0.15867 0.67383 0.0
C193 C 0.31181 0.13109 0.67512 0.0
C194 C 0.29048 0.08237 0.66225 0.0
C195 C 0.25214 0.06226 0.64725 0.0
C196 C 0.35528 0.15451 0.68844 0.0
C197 C 0.3512 0.12946 0.71411 0.0
C198 C 0.40024 0.20236 0.67641 0.0
C199 C 0.40853 0.22864 0.64749 0.0
C200 C 0.4029 0.20388 0.61775 0.0
C201 C 0.41052 0.22869 0.59065 0.0
C202 C 0.42417 0.27844 0.59289 0.0
C203 C 0.43036 0.30352 0.62224 0.0
C204 C 0.42272 0.27884 0.64945 0.0
C205 C 0.55536 0.23124 0.72518 0.0
C206 C 0.57639 0.28029 0.73748 0.0
C207 C 0.50732 0.20308 0.72083 0.0
C208 C 0.48033 0.22415 0.72824 0.0
C209 C 0.50047 0.27223 0.74195 0.0
C210 C 0.54824 0.30008 0.74663 0.0
C211 C 0.43524 0.19993 0.71677 0.0
C212 C 0.43921 0.22481 0.69114 0.0
C213 C 0.3909 0.15148 0.72842 0.0
C214 C 0.38484 0.12349 0.75553 0.0
C215 C 0.39624 0.14762 0.78468 0.0
C216 C 0.39037 0.12098 0.81005 0.0
C217 C 0.37256 0.06994 0.80675 0.0
C218 C 0.36074 0.04546 0.77803 0.0
C219 C 0.36681 0.07201 0.75251 0.0
H220 H 0.36792 0.04935 0.82645 0.0
H221 H 0.43008 0.29759 0.57187 0.0
H222 H -0.0075 0.12935 0.10423 0.0
H223 H 0.01411 0.19046 0.14784 0.0
H224 H 0.13719 0.18459 0.14392 0.0
H225 H 0.11296 0.12054 0.10189 0.0
H226 H 0.10133 0.19456 0.20329 0.0
H227 H 0.15041 0.28204 0.1043 0.0
H228 H 0.13957 0.29974 0.05524 0.0
H229 H 0.03029 0.32348 0.11503 0.0
H230 H 0.04004 0.30527 0.16445 0.0
H231 H 0.27983 0.45924 0.22761 0.0
H232 H 0.22829 0.36951 0.21447 0.0
H233 H 0.09526 0.36463 0.25739 0.0
H234 H 0.14697 0.45428 0.27166 0.0
H235 H 0.12399 0.35442 0.18625 0.0
H236 H 0.09085 0.27928 0.28652 0.0
H237 H 0.11061 0.26478 0.33231 0.0
H238 H 0.20574 0.2282 0.26553 0.0
H239 H 0.18633 0.24185 0.21927 0.0
C240 C 0.02396 0.1411 0.11293 0.0
C241 C 0.05164 0.12118 0.09967 0.0
C242 C 0.03644 0.17606 0.13773 0.0
C243 C 0.07812 0.19327 0.14873 0.0
C244 C 0.10497 0.17213 0.1359 0.0
C245 C 0.09148 0.13595 0.11175 0.0
C246 C 0.09523 0.23503 0.17229 0.0
C247 C 0.10651 0.22961 0.19944 0.0
C248 C 0.10142 0.28067 0.1677 0.0
C249 C 0.0955 0.29167 0.13803 0.0
C250 C 0.12381 0.29067 0.10696 0.0
C251 C 0.1179 0.30084 0.0791 0.0
C252 C 0.08414 0.31255 0.08201 0.0
C253 C 0.05634 0.31428 0.11281 0.0
C254 C 0.06204 0.30405 0.14075 0.0
C255 C 0.23944 0.43816 0.2357 0.0
C256 C 0.21708 0.46312 0.25068 0.0
C257 C 0.21004 0.38697 0.22827 0.0
C258 C 0.15803 0.36054 0.23496 0.0
C259 C 0.13532 0.38433 0.25237 0.0
C260 C 0.16476 0.43536 0.26052 0.0
C261 C 0.13031 0.31401 0.21695 0.0
C262 C 0.1176 0.31884 0.19051 0.0
C263 C 0.12453 0.26882 0.22167 0.0
C264 C 0.1373 0.26185 0.24938 0.0
C265 C 0.11636 0.26861 0.28154 0.0
C266 C 0.12739 0.26045 0.30759 0.0
C267 C 0.15957 0.24596 0.30182 0.0
C268 C 0.18081 0.23947 0.26996 0.0
C269 C 0.16962 0.24715 0.24382 0.0
H270 H 0.16769 0.23938 0.32207 0.0
H271 H 0.07963 0.32043 0.06041 0.0
H272 H 0.91127 0.08626 0.54906 0.0
H273 H 0.87984 0.13291 0.58309 0.0
H274 H 0.91161 0.11018 0.66554 0.0
H275 H 0.94345 0.06376 0.63168 0.0
H276 H 0.80463 0.10865 0.63882 0.0
H277 H 0.95354 0.22127 0.70991 0.0
H278 H 0.03946 0.25002 0.70518 0.0
H279 H 0.07165 0.2525 0.60086 0.0
H280 H 0.98622 0.22455 0.60499 0.0
H281 H 0.7424 0.25941 0.74757 0.0
H282 H 0.7701 0.2038 0.7308 0.0
H283 H 0.8978 0.31715 0.659 0.0
H284 H 0.86992 0.37255 0.67543 0.0
H285 H 0.92191 0.26839 0.68737 0.0
H286 H 0.79118 0.22301 0.63806 0.0
H287 H 0.70668 0.19728 0.64148 0.0
H288 H 0.6411 0.06422 0.69875 0.0
H289 H 0.7253 0.08954 0.69592 0.0
C290 C 0.91117 0.09071 0.5745 0.0
C291 C 0.93015 0.07145 0.58755 0.0
C292 C 0.89305 0.1173 0.59396 0.0
C293 C 0.89383 0.12547 0.62678 0.0
C294 C 0.91118 0.10483 0.64019 0.0
C295 C 0.92922 0.07815 0.62077 0.0
C296 C 0.87843 0.15744 0.64637 0.0
C297 C 0.83016 0.14331 0.64967 0.0
C298 C 0.91161 0.20266 0.66068 0.0
C299 C 0.96331 0.22017 0.65779 0.0
C300 C 0.97903 0.22809 0.68597 0.0
C301 C 0.02763 0.24425 0.68339 0.0
C302 C 0.06093 0.25287 0.65274 0.0
C303 C 0.04577 0.2456 0.62459 0.0
C304 C -0.00276 0.22955 0.62704 0.0
C305 C 0.77715 0.27294 0.72889 0.0
C306 C 0.80432 0.3203 0.71289 0.0
C307 C 0.79288 0.24114 0.71931 0.0
C308 C 0.83594 0.25622 0.69362 0.0
C309 C 0.86462 0.30481 0.67898 0.0
C310 C 0.84865 0.33636 0.6883 0.0
C311 C 0.84843 0.21987 0.6794 0.0
C312 C 0.89609 0.23315 0.6771 0.0
C313 C 0.81486 0.17401 0.66585 0.0
C314 C 0.76439 0.15829 0.66695 0.0
C315 C 0.75869 0.18835 0.65145 0.0
C316 C 0.71089 0.17386 0.65329 0.0
C317 C 0.66854 0.12918 0.67036 0.0
C318 C 0.67392 0.09882 0.68555 0.0
C319 C 0.72166 0.11318 0.6838 0.0
H320 H 0.63156 0.11805 0.6718 0.0
H321 H 0.09851 0.26532 0.65079 0.0
H322 H 0.89159 0.95004 0.10222 0.0
H323 H 0.80732 0.89941 0.13951 0.0
H324 H 0.74519 0.89828 0.06604 0.0
H325 H 0.82929 0.95193 0.03019 0.0
H326 H 0.69982 0.91221 0.11759 0.0
H327 H 0.74076 0.79104 0.08981 0.0
H328 H 0.7916 0.7595 0.08535 0.0
H329 H 0.77173 0.76867 0.18883 0.0
H330 H 0.72124 0.80085 0.19383 0.0
H331 H 0.45946 0.65154 0.17852 0.0
H332 H 0.55003 0.70567 0.15495 0.0
H333 H 0.56074 0.8266 0.21737 0.0
H334 H 0.46966 0.77204 0.24119 0.0
H335 H 0.63329 0.75613 0.17721 0.0
H336 H 0.65091 0.94069 0.16461 0.0
H337 H 0.59683 0.96615 0.16428 0.0
H338 H 0.49475 0.81978 0.12986 0.0
H339 H 0.54842 0.79357 0.12973 0.0
C340 C 0.8597 0.93846 0.09412 0.0
C341 C 0.86674 0.9546 0.06335 0.0
C342 C 0.81144 0.90934 0.11537 0.0
C343 C 0.76921 0.89421 0.1057 0.0
C344 C 0.7767 0.90956 0.07448 0.0
C345 C 0.82484 0.93991 0.0538 0.0
C346 C 0.71723 0.86334 0.12782 0.0
C347 C 0.68554 0.87814 0.1306 0.0
C348 C 0.69791 0.81872 0.14507 0.0
C349 C 0.72771 0.79883 0.14214 0.0
C350 C 0.74747 0.78656 0.11158 0.0
C351 C 0.7762 0.76857 0.10896 0.0
C352 C 0.78502 0.76224 0.13678 0.0
C353 C 0.76495 0.77369 0.1673 0.0
C354 C 0.73625 0.79176 0.17004 0.0
C355 C 0.48131 0.68939 0.18762 0.0
C356 C 0.45768 0.70759 0.21174 0.0
C357 C 0.5331 0.72021 0.17426 0.0
C358 C 0.56237 0.77034 0.18423 0.0
C359 C 0.53906 0.78811 0.20924 0.0
C360 C 0.48707 0.75691 0.22293 0.0
C361 C 0.61616 0.80461 0.16622 0.0
C362 C 0.64804 0.79053 0.16437 0.0
C363 C 0.63518 0.84891 0.14884 0.0
C364 C 0.60303 0.86462 0.14814 0.0
C365 C 0.61676 0.91377 0.15721 0.0
C366 C 0.58624 0.92842 0.15699 0.0
C367 C 0.54214 0.89445 0.14733 0.0
C368 C 0.52869 0.84591 0.13761 0.0
C369 C 0.55911 0.83109 0.13778 0.0
H370 H 0.51855 0.90586 0.14719 0.0
H371 H 0.80732 0.74836 0.1347 0.0
H372 H 0.87735 0.81585 0.53361 0.0
H373 H 0.84925 0.7488 0.57119 0.0
H374 H 0.92204 0.86198 0.63896 0.0
H375 H 0.94891 0.92917 0.6019 0.0
H376 H 0.941 0.78253 0.62467 0.0
H377 H 0.80689 0.80174 0.66046 0.0
H378 H 0.74282 0.80845 0.65309 0.0
H379 H 0.67084 0.65945 0.61352 0.0
H380 H 0.73495 0.65215 0.62019 0.0
H381 H 0.83301 0.57449 0.73468 0.0
H382 H 0.86142 0.65708 0.71485 0.0
H383 H 0.76443 0.5791 0.65064 0.0
H384 H 0.73362 0.49796 0.67213 0.0
H385 H 0.76016 0.65226 0.67253 0.0
H386 H 0.89844 0.63713 0.62715 0.0
H387 H 0.96354 0.62871 0.63028 0.0
H388 H 0.028 0.76634 0.68338 0.0
H389 H 0.96292 0.77525 0.68082 0.0
C390 C 0.88712 0.82642 0.55659 0.0
C391 C 0.9153 0.87773 0.56481 0.0
C392 C 0.87113 0.78812 0.57801 0.0
C393 C 0.8836 0.80041 0.60787 0.0
C394 C 0.91214 0.85167 0.61603 0.0
C395 C 0.92733 0.88996 0.59487 0.0
C396 C 0.86627 0.75936 0.63046 0.0
C397 C 0.90151 0.75444 0.63566 0.0
C398 C 0.8148 0.72248 0.64443 0.0
C399 C 0.77597 0.72658 0.6406 0.0
C400 C 0.77764 0.77057 0.64994 0.0
C401 C 0.74127 0.77445 0.64594 0.0
C402 C 0.70284 0.73444 0.63279 0.0
C403 C 0.70064 0.69042 0.62369 0.0
C404 C 0.73696 0.68637 0.62761 0.0
C405 C 0.81664 0.57529 0.71725 0.0
C406 C 0.78036 0.52969 0.70554 0.0
C407 C 0.83361 0.62247 0.70535 0.0
C408 C 0.81551 0.62472 0.68087 0.0
C409 C 0.77895 0.57893 0.66959 0.0
C410 C 0.76157 0.5323 0.68178 0.0
C411 C 0.83472 0.67377 0.66579 0.0
C412 C 0.79977 0.68052 0.66203 0.0
C413 C 0.88644 0.71179 0.65267 0.0
C414 C 0.92553 0.7065 0.65414 0.0
C415 C 0.92632 0.66539 0.63967 0.0
C416 C 0.96323 0.66056 0.64131 0.0
C417 C -0.00022 0.69687 0.65712 0.0
C418 C -0.0004 0.73818 0.67122 0.0
C419 C 0.96274 0.74315 0.66967 0.0
H420 H 0.02832 0.69307 0.65837 0.0
H421 H 0.67472 0.73752 0.62971 0.0
H422 H 0.1244 0.95571 0.49152 0.0
H423 H 0.15642 0.90945 0.45692 0.0
H424 H 0.06956 0.87647 0.39115 0.0
H425 H 0.03849 0.92364 0.42497 0.0
H426 H 0.06151 0.78924 0.41349 0.0
H427 H 0.17963 0.95527 0.36238 0.0
H428 H 0.2396 0.04862 0.36082 0.0
H429 H 0.33198 0.03521 0.40004 0.0
H430 H 0.2721 0.94172 0.40232 0.0
H431 H 0.17351 0.67105 0.31097 0.0
H432 H 0.14026 0.72228 0.32714 0.0
H433 H 0.2482 0.81699 0.38283 0.0
H434 H 0.28271 0.76824 0.36545 0.0
H435 H 0.2413 0.8747 0.35593 0.0
H436 H 0.11808 0.71113 0.41551 0.0
H437 H 0.0573 0.61773 0.41985 0.0
H438 H 0.9744 0.62605 0.36751 0.0
H439 H 0.03517 0.71946 0.36242 0.0
C440 C 0.11242 0.93889 0.46959 0.0
C441 C 0.07922 0.94361 0.46087 0.0
C442 C 0.13069 0.91252 0.44987 0.0
C443 C 0.11529 0.88964 0.42151 0.0
C444 C 0.08185 0.8939 0.41292 0.0
C445 C 0.06443 0.92113 0.4322 0.0
C446 C 0.13391 0.86091 0.40105 0.0
C447 C 0.10067 0.80784 0.40044 0.0
C448 C 0.18493 0.88531 0.38422 0.0
C449 C 0.22112 0.9415 0.38281 0.0
C450 C 0.21248 0.97223 0.37097 0.0
C451 C 0.24651 0.02517 0.36989 0.0
C452 C 0.28951 0.04784 0.3804 0.0
C453 C 0.29862 0.01759 0.39194 0.0
C454 C 0.26467 0.96462 0.3931 0.0
C455 C 0.19074 0.70367 0.32593 0.0
C456 C 0.23105 0.71618 0.33662 0.0
C457 C 0.17142 0.73255 0.33548 0.0
C458 C 0.19139 0.77344 0.35645 0.0
C459 C 0.23219 0.78606 0.36651 0.0
C460 C 0.25173 0.75788 0.35672 0.0
C461 C 0.16941 0.80237 0.3695 0.0
C462 C 0.20197 0.85581 0.36859 0.0
C463 C 0.11781 0.77817 0.38525 0.0
C464 C 0.08138 0.72213 0.38831 0.0
C465 C 0.08705 0.69297 0.40476 0.0
C466 C 0.05261 0.64006 0.40735 0.0
C467 C 0.01208 0.61597 0.3939 0.0
C468 C 0.00581 0.64476 0.37791 0.0
C469 C 0.04027 0.69766 0.37512 0.0
H470 H 0.98547 0.575 0.39592 0.0
H471 H 0.31582 0.08883 0.37954 0.0
H472 H 0.131 0.10794 0.95941 0.0
H473 H 0.21552 0.16297 0.92274 0.0
H474 H 0.26593 0.09593 0.96351 0.0
H475 H 0.18226 0.04114 0.99957 0.0
H476 H 0.3286 0.19864 0.96133 0.0
H477 H 0.24622 0.06506 0.89004 0.0
H478 H 0.18375 0.00898 0.85907 0.0
H479 H 0.22961 0.13868 0.80697 0.0
H480 H 0.29175 0.19568 0.83812 0.0
H481 H 0.55282 0.25257 0.8604 0.0
H482 H 0.46268 0.2054 0.8853 0.0
H483 H 0.45756 0.30652 0.83641 0.0
H484 H 0.54864 0.35451 0.81168 0.0
H485 H 0.37129 0.20025 0.84067 0.0
H486 H 0.46103 0.33121 0.9097 0.0
H487 H 0.52689 0.383 0.93866 0.0
H488 H 0.46882 0.25061 0.99367 0.0
H489 H 0.40307 0.19784 0.96465 0.0
C490 C 0.16015 0.10493 0.96033 0.0
C491 C 0.15002 0.07026 0.98234 0.0
C492 C 0.20834 0.13621 0.93934 0.0
C493 C 0.24713 0.13352 0.94029 0.0
C494 C 0.23677 0.09885 0.96232 0.0
C495 C 0.18883 0.06749 0.98294 0.0
C496 C 0.29917 0.16764 0.91946 0.0
C497 C 0.33783 0.19849 0.93493 0.0
C498 C 0.31134 0.16879 0.88496 0.0
C499 C 0.27296 0.13475 0.86691 0.0
C500 C 0.24243 0.08173 0.87238 0.0
C501 C 0.20722 0.04974 0.85469 0.0
C502 C 0.20252 0.07027 0.83119 0.0
C503 C 0.23311 0.12284 0.8253 0.0
C504 C 0.2683 0.15501 0.84299 0.0
C505 C 0.53226 0.26402 0.85438 0.0
C506 C 0.5574 0.30658 0.83372 0.0
C507 C 0.48082 0.23719 0.86868 0.0
C508 C 0.45343 0.25276 0.86304 0.0
C509 C 0.47793 0.29375 0.84103 0.0
C510 C 0.52977 0.32083 0.82669 0.0
C511 C 0.40053 0.22852 0.88256 0.0
C512 C 0.36185 0.20026 0.867 0.0
C513 C 0.38818 0.22883 0.91701 0.0
C514 C 0.4273 0.26052 0.93483 0.0
C515 C 0.4625 0.31307 0.92781 0.0
C516 C 0.4998 0.34261 0.94426 0.0
C517 C 0.50209 0.3201 0.96796 0.0
C518 C 0.46701 0.268 0.9753 0.0
C519 C 0.42968 0.23826 0.95889 0.0
H520 H 0.531 0.34303 0.98066 0.0
H521 H 0.17533 0.04542 0.81746 0.0
H522 H 0.09915 0.10058 0.43959 0.0
H523 H 0.12198 0.16647 0.40296 0.0
H524 H 0.11165 0.25531 0.48583 0.0
H525 H 0.09056 0.19065 0.52233 0.0
H526 H 0.05856 0.23851 0.43598 0.0
H527 H 0.21772 0.29238 0.44879 0.0
H528 H 0.2833 0.28097 0.44519 0.0
H529 H 0.3019 0.26077 0.34218 0.0
H530 H 0.23593 0.27137 0.34527 0.0
H531 H 0.17884 0.49231 0.39497 0.0
H532 H 0.14507 0.40906 0.41522 0.0
H533 H 0.21382 0.37911 0.32148 0.0
H534 H 0.25077 0.46473 0.30177 0.0
H535 H 0.23151 0.3536 0.36677 0.0
H536 H 0.08457 0.31833 0.35211 0.0
H537 H 0.01809 0.32781 0.35532 0.0
H538 H 0.97429 0.31174 0.45956 0.0
H539 H 0.04099 0.30272 0.45713 0.0
C540 C 0.10209 0.13436 0.4499 0.0
C541 C 0.09354 0.14076 0.48377 0.0
C542 C 0.115 0.17183 0.42899 0.0
C543 C 0.11845 0.21573 0.4417 0.0
C544 C 0.10911 0.22169 0.47554 0.0
C545 C 0.09738 0.18489 0.49634 0.0
C546 C 0.13241 0.25607 0.41996 0.0
C547 C 0.09637 0.26396 0.42091 0.0
C548 C 0.1812 0.2877 0.39927 0.0
C549 C 0.22103 0.28152 0.39739 0.0
C550 C 0.23525 0.28475 0.42545 0.0
C551 C 0.27267 0.27865 0.42349 0.0
C552 C 0.29654 0.26982 0.39351 0.0
C553 C 0.2832 0.26734 0.36542 0.0
C554 C 0.24576 0.27337 0.36727 0.0
C555 C 0.18621 0.46778 0.37843 0.0
C556 C 0.21664 0.48479 0.34645 0.0
C557 C 0.16647 0.41981 0.39 0.0
C558 C 0.17592 0.38701 0.36981 0.0
C559 C 0.20545 0.40337 0.33751 0.0
C560 C 0.22579 0.45194 0.32599 0.0
C561 C 0.15811 0.3378 0.38369 0.0
C562 C 0.19332 0.32787 0.38123 0.0
C563 C 0.10829 0.30404 0.40284 0.0
C564 C 0.06801 0.30966 0.40441 0.0
C565 C 0.06095 0.31683 0.37578 0.0
C566 C 0.02316 0.32221 0.37745 0.0
C567 C -0.00807 0.32032 0.40762 0.0
C568 C -0.00155 0.31308 0.43619 0.0
C569 C 0.03622 0.30773 0.43467 0.0
H570 H 0.96269 0.3245 0.40886 0.0
H571 H 0.32553 0.26514 0.39203 0.0
H572 H 0.02351 0.20536 0.84342 0.0
H573 H 0.98899 0.23216 0.81616 0.0
H574 H 0.8606 0.17754 0.89942 0.0
H575 H 0.8948 0.15093 0.92677 0.0
H576 H 0.83332 0.15133 0.84292 0.0
H577 H 0.96067 0.3052 0.88671 0.0
H578 H 0.04697 0.3687 0.89135 0.0
H579 H 0.0991 0.40108 0.78831 0.0
H580 H 0.01315 0.3373 0.78304 0.0
H581 H 0.72723 0.27876 0.85137 0.0
H582 H 0.76866 0.24173 0.85632 0.0
H583 H 0.88641 0.32703 0.77021 0.0
H584 H 0.84601 0.36685 0.76646 0.0
H585 H 0.92605 0.33385 0.81452 0.0
H586 H 0.80068 0.18964 0.77002 0.0
H587 H 0.71603 0.12461 0.7626 0.0
H588 H 0.66254 0.0725 0.86199 0.0
H589 H 0.74665 0.13706 0.86999 0.0
C590 C 0.98797 0.19917 0.85595 0.0
C591 C 0.962 0.17608 0.88736 0.0
C592 C 0.96825 0.21442 0.84029 0.0
C593 C 0.92238 0.20728 0.85585 0.0
C594 C 0.89594 0.18326 0.88686 0.0
C595 C 0.91551 0.16792 0.90246 0.0
C596 C 0.90209 0.22588 0.84059 0.0
C597 C 0.85351 0.19126 0.83678 0.0
C598 C 0.92922 0.27757 0.83114 0.0
C599 C 0.98066 0.31618 0.83444 0.0
C600 C 0.99061 0.32566 0.86503 0.0
C601 C 0.03943 0.36172 0.86778 0.0
C602 C 0.07851 0.3888 0.84013 0.0
C603 C 0.06881 0.38001 0.8097 0.0
C604 C 0.02007 0.34396 0.80682 0.0
C605 C 0.76174 0.28934 0.83328 0.0
C606 C 0.78287 0.3249 0.8081 0.0
C607 C 0.78515 0.26758 0.83588 0.0
C608 C 0.8301 0.28034 0.81314 0.0
C609 C 0.85142 0.31596 0.78783 0.0
C610 C 0.82811 0.3383 0.78546 0.0
C611 C 0.85632 0.25958 0.81803 0.0
C612 C 0.90608 0.29371 0.81988 0.0
C613 C 0.83055 0.20725 0.82522 0.0
C614 C 0.77982 0.16844 0.82063 0.0
C615 C 0.7707 0.16456 0.79033 0.0
C616 C 0.72291 0.12775 0.786 0.0
C617 C 0.68395 0.09471 0.81184 0.0
C618 C 0.69274 0.09817 0.84201 0.0
C619 C 0.7405 0.13471 0.84641 0.0
H620 H 0.64698 0.06631 0.80846 0.0
H621 H 0.11628 0.41668 0.8423 0.0
H622 H 0.72441 0.90381 0.44029 0.0
H623 H 0.66042 0.8612 0.4104 0.0
H624 H 0.77513 0.90887 0.31936 0.0
H625 H 0.83924 0.95126 0.349 0.0
H626 H 0.70467 0.92103 0.31775 0.0
H627 H 0.7089 0.78901 0.34695 0.0
H628 H 0.70802 0.73884 0.38452 0.0
H629 H 0.56072 0.69205 0.44059 0.0
H630 H 0.561 0.74253 0.40362 0.0
H631 H 0.46052 0.67455 0.27698 0.0
H632 H 0.54815 0.72257 0.27884 0.0
H633 H 0.53476 0.83622 0.33579 0.0
H634 H 0.44776 0.7883 0.3343 0.0
H635 H 0.56573 0.73812 0.34146 0.0
H636 H 0.62246 0.93313 0.32182 0.0
H637 H 0.6294 0.98598 0.28253 0.0
H638 H 0.66401 0.9058 0.2034 0.0
H639 H 0.65464 0.85093 0.24222 0.0
C640 C 0.73593 0.9052 0.41392 0.0
C641 C 0.78676 0.93078 0.39699 0.0
C642 C 0.69943 0.88084 0.3969 0.0
C643 C 0.71316 0.88131 0.36272 0.0
C644 C 0.76389 0.90806 0.34574 0.0
C645 C 0.80041 0.93248 0.36272 0.0
C646 C 0.67438 0.85354 0.34476 0.0
C647 C 0.67463 0.8809 0.32269 0.0
C648 C 0.6358 0.80096 0.35063 0.0
C649 C 0.63508 0.76975 0.37257 0.0
C650 C 0.67641 0.7682 0.36737 0.0
C651 C 0.67601 0.7397 0.38856 0.0
C652 C 0.63436 0.71231 0.41495 0.0
C653 C 0.59295 0.71326 0.42014 0.0
C654 C 0.59317 0.74175 0.39904 0.0
C655 C 0.47706 0.71058 0.289 0.0
C656 C 0.44793 0.728 0.3056 0.0
C657 C 0.52687 0.7379 0.29001 0.0
C658 C 0.54793 0.78314 0.30715 0.0
C659 C 0.51956 0.80199 0.32186 0.0
C660 C 0.46982 0.77443 0.32128 0.0
C661 C 0.5954 0.806 0.31528 0.0
C662 C 0.59661 0.77785 0.33584 0.0
C663 C 0.63552 0.85759 0.3079 0.0
C664 C 0.63753 0.88793 0.28481 0.0
C665 C 0.63085 0.92646 0.29601 0.0
C666 C 0.63487 0.9565 0.27384 0.0
C667 C 0.64659 0.9489 0.24044 0.0
C668 C 0.65397 0.91105 0.22921 0.0
C669 C 0.6488 0.88012 0.25128 0.0
H670 H 0.65029 0.97259 0.22329 0.0
H671 H 0.63415 0.69032 0.43135 0.0
H672 H 0.96178 0.85046 0.96999 0.0
H673 H 0.93414 0.78801 0.92769 0.0
H674 H 0.91295 0.87999 0.88338 0.0
H675 H 0.94191 0.94358 0.92521 0.0
H676 H 0.82823 0.76517 0.89736 0.0
H677 H 2e-05 0.88474 0.84167 0.0
H678 H 0.09072 0.94244 0.83653 0.0
H679 H 0.0906 0.81632 0.85242 0.0
H680 H -0.00031 0.75796 0.85826 0.0
H681 H 0.75762 0.56348 0.78672 0.0
H682 H 0.80058 0.65353 0.80118 0.0
H683 H 0.88947 0.63926 0.84459 0.0
H684 H 0.84827 0.55083 0.8291 0.0
H685 H 0.94393 0.73072 0.81894 0.0
H686 H 0.77411 0.61819 0.88864 0.0
H687 H 0.68235 0.55793 0.89897 0.0
H688 H 0.67826 0.66824 0.86074 0.0
H689 H 0.77013 0.72894 0.84987 0.0
C690 C 0.95117 0.8574 0.9513 0.0
C691 C 0.95402 0.90189 0.9509 0.0
C692 C 0.93563 0.82185 0.9271 0.0
C693 C 0.92185 0.8297 0.90242 0.0
C694 C 0.92368 0.87352 0.90221 0.0
C695 C 0.94029 0.90973 0.92605 0.0
C696 C 0.90489 0.79118 0.87731 0.0
C697 C 0.85358 0.75833 0.87953 0.0
C698 C 0.93807 0.78216 0.85449 0.0
C699 C -0.00709 0.817 0.85062 0.0
C700 C 0.01923 0.86934 0.84435 0.0
C701 C 0.07071 0.90218 0.84126 0.0
C702 C 0.09639 0.88307 0.8442 0.0
C703 C 0.07065 0.83107 0.85016 0.0
C704 C 0.01915 0.79808 0.85332 0.0
C705 C 0.78767 0.58043 0.79825 0.0
C706 C 0.80017 0.55073 0.80657 0.0
C707 C 0.81182 0.63159 0.8068 0.0
C708 C 0.8478 0.65306 0.82444 0.0
C709 C 0.86208 0.62386 0.83092 0.0
C710 C 0.83839 0.57324 0.82219 0.0
C711 C 0.86681 0.70331 0.83972 0.0
C712 C 0.91862 0.73842 0.83586 0.0
C713 C 0.83399 0.71406 0.86141 0.0
C714 C 0.77889 0.67776 0.86807 0.0
C715 C 0.75361 0.62942 0.88227 0.0
C716 C 0.70163 0.59523 0.88824 0.0
C717 C 0.67452 0.60919 0.88041 0.0
C718 C 0.69933 0.65744 0.8667 0.0
C719 C 0.75133 0.69174 0.86063 0.0
H720 H 0.63427 0.58267 0.88504 0.0
H721 H 0.13624 0.90854 0.8418 0.0
loop_
_geom_bond_atom_site_label_1
_geom_bond_atom_site_label_2
_geom_bond_distance
_geom_bond_site_symmetry_2
_ccdc_geom_bond_type
Nd0 C2 2.836 . S
Nd0 O20 2.500 1_655 S
Nd0 O21 2.492 . S
Nd0 O22 2.487 1_546 S
Nd0 O23 2.682 1_546 S
Nd0 O24 2.410 1_656 S
Nd0 O29 2.414 1_655 S
Nd0 O31 2.424 1_545 S
Nd1 C11 2.836 1_545 S
Nd1 O23 2.414 1_445 S
Nd1 O25 2.424 . S
Nd1 O26 2.500 1_545 S
Nd1 O27 2.492 1_545 S
Nd1 O28 2.487 1_554 S
Nd1 O29 2.682 1_554 S
Nd1 O30 2.410 1_544 S
C2 Nd0 2.836 . S
C2 C3 1.498 . S
C2 O20 1.258 1_655 S
C2 O21 1.239 . S
C3 C2 1.498 . S
C3 C4 1.366 1_655 S
C3 C8 1.407 . S
C4 C3 1.366 1_455 S
C4 C5 1.392 . S
C4 H32 0.930 . S
C5 C4 1.392 . S
C5 C6 1.398 1_455 S
C5 H33 0.929 . S
C6 C5 1.398 1_655 S
C6 C7 1.352 . S
C7 C6 1.352 . S
C7 C8 1.384 . S
C7 H34 0.930 . S
C8 C3 1.407 . S
C8 C7 1.384 . S
C8 H35 0.929 . S
C9 O22 1.241 . S
C9 O23 1.273 . S
C10 O24 1.251 . S
C10 O25 1.268 . S
C11 Nd1 2.836 1_565 S
C11 C12 1.498 . S
C11 O26 1.258 . S
C11 O27 1.239 . S
C12 C11 1.498 . S
C12 C13 1.366 . S
C12 C17 1.407 . S
C13 C12 1.366 . S
C13 C14 1.392 . S
C13 H36 0.930 1_455 S
C14 C13 1.392 . S
C14 C15 1.398 . S
C14 H37 0.929 1_455 S
C15 C14 1.398 . S
C15 C16 1.352 . S
C16 C15 1.352 . S
C16 C17 1.384 . S
C16 H38 0.930 . S
C17 C12 1.407 . S
C17 C16 1.384 . S
C17 H39 0.929 . S
C18 O28 1.241 . S
C18 O29 1.273 . S
C19 O30 1.251 1_655 S
C19 O31 1.268 . S
O20 Nd0 2.500 1_455 S
O20 C2 1.258 1_455 S
O21 Nd0 2.492 . S
O21 C2 1.239 . S
O22 Nd0 2.487 1_564 S
O22 C9 1.241 . S
O23 Nd0 2.682 1_564 S
O23 Nd1 2.414 1_665 S
O23 C9 1.273 . S
O24 Nd0 2.410 1_454 S
O24 C10 1.251 . S
O25 Nd1 2.424 . S
O25 C10 1.268 . S
O26 Nd1 2.500 1_565 S
O26 C11 1.258 . S
O27 Nd1 2.492 1_565 S
O27 C11 1.239 . S
O28 Nd1 2.487 1_556 S
O28 C18 1.241 . S
O29 Nd0 2.414 1_455 S
O29 Nd1 2.682 1_556 S
O29 C18 1.273 . S
O30 Nd1 2.410 1_566 S
O30 C19 1.251 1_455 S
O31 Nd0 2.424 1_565 S
O31 C19 1.268 . S
H32 C4 0.930 . S
H33 C5 0.929 . S
H34 C7 0.930 . S
H35 C8 0.929 . S
H36 C13 0.930 1_655 S
H37 C14 0.929 1_655 S
H38 C16 0.930 . S
H39 C17 0.929 . S
Nd40 C42 2.836 . S
Nd40 O60 2.500 . S
Nd40 O61 2.492 . S
Nd40 O62 2.487 . S
Nd40 O63 2.682 1_655 S
Nd40 O64 2.410 . S
Nd40 O69 2.414 1_665 S
Nd40 O71 2.424 1_655 S
Nd41 C51 2.836 . S
Nd41 O63 2.414 1_545 S
Nd41 O65 2.424 1_455 S
Nd41 O66 2.500 . S
Nd41 O67 2.492 . S
Nd41 O68 2.487 . S
Nd41 O69 2.682 . S
Nd41 O70 2.410 . S
C42 Nd40 2.836 . S
C42 C43 1.498 . S
C42 O60 1.258 . S
C42 O61 1.239 . S
C43 C42 1.498 . S
C43 C44 1.366 . S
C43 C48 1.407 . S
C44 C43 1.366 . S
C44 C45 1.392 . S
C44 H72 0.919 1_565 S
C45 C44 1.392 . S
C45 C46 1.398 . S
C45 H73 0.929 . S
C46 C45 1.398 . S
C46 C47 1.352 . S
C47 C46 1.352 . S
C47 C48 1.384 . S
C47 H74 0.930 . S
C48 C43 1.407 . S
C48 C47 1.384 . S
C48 H75 0.929 . S
C49 O62 1.241 . S
C49 O63 1.273 1_655 S
C50 O64 1.251 1_545 S
C50 O65 1.268 . S
C51 Nd41 2.836 . S
C51 C52 1.498 . S
C51 O66 1.258 . S
C51 O67 1.239 . S
C52 C51 1.498 . S
C52 C53 1.366 . S
C52 C57 1.407 . S
C53 C52 1.366 . S
C53 C54 1.392 . S
C53 H76 0.930 . S
C54 C53 1.392 . S
C54 C55 1.398 . S
C54 H77 0.929 . S
C55 C54 1.398 . S
C55 C56 1.352 . S
C56 C55 1.352 . S
C56 C57 1.384 . S
C56 H78 0.930 . S
C57 C52 1.407 . S
C57 C56 1.384 . S
C57 H79 0.929 . S
C58 O68 1.241 . S
C58 O69 1.273 . S
C59 O70 1.251 1_565 S
C59 O71 1.268 . S
O60 Nd40 2.500 . S
O60 C42 1.258 . S
O61 Nd40 2.492 . S
O61 C42 1.239 . S
O62 Nd40 2.487 . S
O62 C49 1.241 . S
O63 Nd40 2.682 1_455 S
O63 Nd41 2.414 1_565 S
O63 C49 1.273 1_455 S
O64 Nd40 2.410 . S
O64 C50 1.251 1_565 S
O65 Nd41 2.424 1_655 S
O65 C50 1.268 . S
O66 Nd41 2.500 . S
O66 C51 1.258 . S
O67 Nd41 2.492 . S
O67 C51 1.239 . S
O68 Nd41 2.487 . S
O68 C58 1.241 . S
O69 Nd40 2.414 1_445 S
O69 Nd41 2.682 . S
O69 C58 1.273 . S
O70 Nd41 2.410 . S
O70 C59 1.251 1_545 S
O71 Nd40 2.424 1_455 S
O71 C59 1.268 . S
H72 C44 0.919 1_545 S
H73 C45 0.929 . S
H74 C47 0.930 . S
H75 C48 0.929 . S
H76 C53 0.930 . S
H77 C54 0.929 . S
H78 C56 0.930 . S
H79 C57 0.929 . S
Zn80 O86 1.920 . S
Zn80 O92 1.898 . S
Zn80 O95 1.905 . S
Zn81 O89 1.905 . S
Zn81 O90 1.898 . S
Zn81 O98 1.920 . S
Zn82 O85 2.080 . S
Zn82 O88 2.114 . S
Zn82 O91 2.120 . S
Zn82 O93 2.120 . S
Zn82 O94 2.114 . S
Zn82 O97 2.080 . S
C83 O88 1.166 . S
C83 O89 1.182 . S
C84 O90 1.167 . S
C84 O91 1.299 . S
O85 Zn82 2.080 . S
O85 C99 1.305 . S
O86 Zn80 1.920 . S
O86 C99 1.234 . S
C87 O92 1.167 . S
C87 O93 1.299 . S
O88 Zn82 2.114 . S
O88 C83 1.166 . S
O89 Zn81 1.905 . S
O89 C83 1.182 . S
O90 Zn81 1.898 . S
O90 C84 1.167 . S
O91 Zn82 2.120 . S
O91 C84 1.299 . S
O92 Zn80 1.898 . S
O92 C87 1.167 . S
O93 Zn82 2.120 . S
O93 C87 1.299 . S
O94 Zn82 2.114 . S
O94 C96 1.166 . S
O95 Zn80 1.905 . S
O95 C96 1.182 . S
C96 O94 1.166 . S
C96 O95 1.182 . S
O97 Zn82 2.080 . S
O97 C100 1.305 . S
O98 Zn81 1.920 . S
O98 C100 1.234 . S
C99 O85 1.305 . S
C99 O86 1.234 . S
C100 O97 1.305 . S
C100 O98 1.234 . S
Zn101 O107 1.920 . S
Zn101 O113 1.898 . S
Zn101 O116 1.905 . S
Zn102 O110 1.905 . S
Zn102 O111 1.898 . S
Zn102 O119 1.920 . S
Zn103 O106 2.080 . S
Zn103 O109 2.114 . S
Zn103 O112 2.120 . S
Zn103 O114 2.120 . S
Zn103 O115 2.114 . S
Zn103 O118 2.080 . S
C104 O109 1.166 . S
C104 O110 1.182 . S
C105 O111 1.167 . S
C105 O112 1.299 . S
O106 Zn103 2.080 . S
O106 C120 1.305 . S
O107 Zn101 1.920 . S
O107 C120 1.234 . S
C108 O113 1.167 . S
C108 O114 1.299 . S
O109 Zn103 2.114 . S
O109 C104 1.166 . S
O110 Zn102 1.905 . S
O110 C104 1.182 . S
O111 Zn102 1.898 . S
O111 C105 1.167 . S
O112 Zn103 2.120 . S
O112 C105 1.299 . S
O113 Zn101 1.898 . S
O113 C108 1.167 . S
O114 Zn103 2.120 . S
O114 C108 1.299 . S
O115 Zn103 2.114 . S
O115 C117 1.166 . S
O116 Zn101 1.905 . S
O116 C117 1.182 . S
C117 O115 1.166 . S
C117 O116 1.182 . S
O118 Zn103 2.080 . S
O118 C121 1.305 . S
O119 Zn102 1.920 . S
O119 C121 1.234 . S
C120 O106 1.305 . S
C120 O107 1.234 . S
C121 O118 1.305 . S
C121 O119 1.234 . S
H122 C140 0.951 . S
H123 C142 0.951 . S
H124 C144 0.950 . S
H125 C145 0.950 . S
H126 C147 0.950 . S
H127 C150 0.950 . S
H128 C151 0.950 . S
H129 C153 0.950 . S
H130 C154 0.950 . S
H131 C155 0.951 . S
H132 C157 0.951 . S
H133 C159 0.950 . S
H134 C160 0.950 . S
H135 C162 0.950 . S
H136 C165 0.950 . S
H137 C166 0.950 . S
H138 C168 0.950 . S
H139 C169 0.950 . S
C140 H122 0.951 . S
C140 C141 1.366 . S
C140 C142 1.388 . S
C141 C140 1.366 . S
C141 C145 1.385 . S
C142 H123 0.951 . S
C142 C140 1.388 . S
C142 C143 1.366 . S
C143 C142 1.366 . S
C143 C144 1.414 . S
C143 C146 1.499 . S
C144 H124 0.950 . S
C144 C143 1.414 . S
C144 C145 1.374 . S
C145 H125 0.950 . S
C145 C141 1.385 . S
C145 C144 1.374 . S
C146 C143 1.499 . S
C146 C147 1.373 . S
C146 C148 1.389 . S
C147 H126 0.950 . S
C147 C146 1.373 . S
C147 C163 1.377 . S
C148 C146 1.389 . S
C148 C149 1.524 . S
C148 C162 1.377 . S
C149 C148 1.524 . S
C149 C150 1.397 . S
C149 C154 1.363 . S
C150 H127 0.950 . S
C150 C149 1.397 . S
C150 C151 1.334 . S
C151 H128 0.950 . S
C151 C150 1.334 . S
C151 C152 1.287 . S
C152 C151 1.287 . S
C152 C153 1.524 . S
C152 H171 0.913 . S
C153 H129 0.950 . S
C153 C152 1.524 . S
C153 C154 1.415 . S
C154 H130 0.950 . S
C154 C149 1.363 . S
C154 C153 1.415 . S
C155 H131 0.951 . S
C155 C156 1.366 . S
C155 C157 1.388 . S
C156 C155 1.366 . S
C156 C160 1.385 . S
C157 H132 0.951 . S
C157 C155 1.388 . S
C157 C158 1.366 . S
C158 C157 1.366 . S
C158 C159 1.414 . S
C158 C161 1.499 . S
C159 H133 0.950 . S
C159 C158 1.414 . S
C159 C160 1.374 . S
C160 H134 0.950 . S
C160 C156 1.385 . S
C160 C159 1.374 . S
C161 C158 1.499 . S
C161 C162 1.373 . S
C161 C163 1.389 . S
C162 H135 0.950 . S
C162 C148 1.377 . S
C162 C161 1.373 . S
C163 C147 1.377 . S
C163 C161 1.389 . S
C163 C164 1.524 . S
C164 C163 1.524 . S
C164 C165 1.397 . S
C164 C169 1.363 . S
C165 H136 0.950 . S
C165 C164 1.397 . S
C165 C166 1.334 . S
C166 H137 0.950 . S
C166 C165 1.334 . S
C166 C167 1.287 . S
C167 C166 1.287 . S
C167 C168 1.524 . S
C167 H170 0.999 . S
C168 H138 0.950 . S
C168 C167 1.524 . S
C168 C169 1.415 . S
C169 H139 0.950 . S
C169 C164 1.363 . S
C169 C168 1.415 . S
H170 C167 0.999 . S
H171 C152 0.913 . S
H172 C190 0.951 . S
H173 C192 0.951 . S
H174 C194 0.950 . S
H175 C195 0.950 . S
H176 C197 0.950 . S
H177 C200 0.950 . S
H178 C201 0.950 . S
H179 C203 0.950 . S
H180 C204 0.950 . S
H181 C205 0.951 . S
H182 C207 0.951 . S
H183 C209 0.950 . S
H184 C210 0.950 . S
H185 C212 0.950 . S
H186 C215 0.950 . S
H187 C216 0.950 . S
H188 C218 0.950 . S
H189 C219 0.950 . S
C190 H172 0.951 . S
C190 C191 1.366 . S
C190 C192 1.388 . S
C191 C190 1.366 . S
C191 C195 1.385 . S
C192 H173 0.951 . S
C192 C190 1.388 . S
C192 C193 1.366 . S
C193 C192 1.366 . S
C193 C194 1.414 . S
C193 C196 1.499 . S
C194 H174 0.950 . S
C194 C193 1.414 . S
C194 C195 1.374 . S
C195 H175 0.950 . S
C195 C191 1.385 . S
C195 C194 1.374 . S
C196 C193 1.499 . S
C196 C197 1.373 . S
C196 C198 1.389 . S
C197 H176 0.950 . S
C197 C196 1.373 . S
C197 C213 1.377 . S
C198 C196 1.389 . S
C198 C199 1.524 . S
C198 C212 1.377 . S
C199 C198 1.524 . S
C199 C200 1.397 . S
C199 C204 1.363 . S
C200 H177 0.950 . S
C200 C199 1.397 . S
C200 C201 1.334 . S
C201 H178 0.950 . S
C201 C200 1.334 . S
C201 C202 1.287 . S
C202 C201 1.287 . S
C202 C203 1.524 . S
C202 H221 0.913 . S
C203 H179 0.950 . S
C203 C202 1.524 . S
C203 C204 1.415 . S
C204 H180 0.950 . S
C204 C199 1.363 . S
C204 C203 1.415 . S
C205 H181 0.951 . S
C205 C206 1.366 . S
C205 C207 1.388 . S
C206 C205 1.366 . S
C206 C210 1.385 . S
C207 H182 0.951 . S
C207 C205 1.388 . S
C207 C208 1.366 . S
C208 C207 1.366 . S
C208 C209 1.414 . S
C208 C211 1.499 . S
C209 H183 0.950 . S
C209 C208 1.414 . S
C209 C210 1.374 . S
C210 H184 0.950 . S
C210 C206 1.385 . S
C210 C209 1.374 . S
C211 C208 1.499 . S
C211 C212 1.373 . S
C211 C213 1.389 . S
C212 H185 0.950 . S
C212 C198 1.377 . S
C212 C211 1.373 . S
C213 C197 1.377 . S
C213 C211 1.389 . S
C213 C214 1.524 . S
C214 C213 1.524 . S
C214 C215 1.397 . S
C214 C219 1.363 . S
C215 H186 0.950 . S
C215 C214 1.397 . S
C215 C216 1.334 . S
C216 H187 0.950 . S
C216 C215 1.334 . S
C216 C217 1.287 . S
C217 C216 1.287 . S
C217 C218 1.524 . S
C217 H220 0.999 . S
C218 H188 0.950 . S
C218 C217 1.524 . S
C218 C219 1.415 . S
C219 H189 0.950 . S
C219 C214 1.363 . S
C219 C218 1.415 . S
H220 C217 0.999 . S
H221 C202 0.913 . S
H222 C240 0.951 . S
H223 C242 0.951 . S
H224 C244 0.950 . S
H225 C245 0.950 . S
H226 C247 0.950 . S
H227 C250 0.950 . S
H228 C251 0.950 1_556 S
H229 C253 0.950 . S
H230 C254 0.950 . S
H231 C255 0.951 . S
H232 C257 0.951 . S
H233 C259 0.950 . S
H234 C260 0.950 . S
H235 C262 0.950 . S
H236 C265 0.950 . S
H237 C266 0.950 . S
H238 C268 0.950 . S
H239 C269 0.950 . S
C240 H222 0.951 . S
C240 C241 1.366 . S
C240 C242 1.388 . S
C241 C240 1.366 . S
C241 C245 1.385 . S
C242 H223 0.951 . S
C242 C240 1.388 . S
C242 C243 1.366 . S
C243 C242 1.366 . S
C243 C244 1.414 . S
C243 C246 1.499 . S
C244 H224 0.950 . S
C244 C243 1.414 . S
C244 C245 1.374 . S
C245 H225 0.950 . S
C245 C241 1.385 . S
C245 C244 1.374 . S
C246 C243 1.499 . S
C246 C247 1.373 . S
C246 C248 1.389 . S
C247 H226 0.950 . S
C247 C246 1.373 . S
C247 C263 1.377 . S
C248 C246 1.389 . S
C248 C249 1.524 . S
C248 C262 1.377 . S
C249 C248 1.524 . S
C249 C250 1.397 . S
C249 C254 1.363 . S
C250 H227 0.950 . S
C250 C249 1.397 . S
C250 C251 1.334 . S
C251 H228 0.950 1_554 S
C251 C250 1.334 . S
C251 C252 1.287 . S
C252 C251 1.287 . S
C252 C253 1.524 . S
C252 H271 0.913 1_554 S
C253 H229 0.950 . S
C253 C252 1.524 . S
C253 C254 1.415 . S
C254 H230 0.950 . S
C254 C249 1.363 . S
C254 C253 1.415 . S
C255 H231 0.951 . S
C255 C256 1.366 . S
C255 C257 1.388 . S
C256 C255 1.366 . S
C256 C260 1.385 . S
C257 H232 0.951 . S
C257 C255 1.388 . S
C257 C258 1.366 . S
C258 C257 1.366 . S
C258 C259 1.414 . S
C258 C261 1.499 . S
C259 H233 0.950 . S
C259 C258 1.414 . S
C259 C260 1.374 . S
C260 H234 0.950 . S
C260 C256 1.385 . S
C260 C259 1.374 . S
C261 C258 1.499 . S
C261 C262 1.373 . S
C261 C263 1.389 . S
C262 H235 0.950 . S
C262 C248 1.377 . S
C262 C261 1.373 . S
C263 C247 1.377 . S
C263 C261 1.389 . S
C263 C264 1.524 . S
C264 C263 1.524 . S
C264 C265 1.397 . S
C264 C269 1.363 . S
C265 H236 0.950 . S
C265 C264 1.397 . S
C265 C266 1.334 . S
C266 H237 0.950 . S
C266 C265 1.334 . S
C266 C267 1.287 . S
C267 C266 1.287 . S
C267 C268 1.524 . S
C267 H270 0.999 . S
C268 H238 0.950 . S
C268 C267 1.524 . S
C268 C269 1.415 . S
C269 H239 0.950 . S
C269 C264 1.363 . S
C269 C268 1.415 . S
H270 C267 0.999 . S
H271 C252 0.913 1_556 S
H272 C290 0.951 . S
H273 C292 0.951 . S
H274 C294 0.950 . S
H275 C295 0.950 . S
H276 C297 0.950 . S
H277 C300 0.950 . S
H278 C301 0.950 . S
H279 C303 0.950 . S
H280 C304 0.950 . S
H281 C305 0.951 . S
H282 C307 0.951 . S
H283 C309 0.950 . S
H284 C310 0.950 . S
H285 C312 0.950 . S
H286 C315 0.950 . S
H287 C316 0.950 . S
H288 C318 0.950 . S
H289 C319 0.950 . S
C290 H272 0.951 . S
C290 C291 1.366 . S
C290 C292 1.388 . S
C291 C290 1.366 . S
C291 C295 1.385 . S
C292 H273 0.951 . S
C292 C290 1.388 . S
C292 C293 1.366 . S
C293 C292 1.366 . S
C293 C294 1.414 . S
C293 C296 1.499 . S
C294 H274 0.950 . S
C294 C293 1.414 . S
C294 C295 1.374 . S
C295 H275 0.950 . S
C295 C291 1.385 . S
C295 C294 1.374 . S
C296 C293 1.499 . S
C296 C297 1.373 . S
C296 C298 1.389 . S
C297 H276 0.950 . S
C297 C296 1.373 . S
C297 C313 1.377 . S
C298 C296 1.389 . S
C298 C299 1.524 . S
C298 C312 1.377 . S
C299 C298 1.524 . S
C299 C300 1.397 . S
C299 C304 1.363 1_655 S
C300 H277 0.950 . S
C300 C299 1.397 . S
C300 C301 1.334 1_655 S
C301 H278 0.950 . S
C301 C300 1.334 1_455 S
C301 C302 1.287 . S
C302 C301 1.287 . S
C302 C303 1.524 . S
C302 H321 0.913 . S
C303 H279 0.950 . S
C303 C302 1.524 . S
C303 C304 1.415 . S
C304 H280 0.950 . S
C304 C299 1.363 1_455 S
C304 C303 1.415 . S
C305 H281 0.951 . S
C305 C306 1.366 . S
C305 C307 1.388 . S
C306 C305 1.366 . S
C306 C310 1.385 . S
C307 H282 0.951 . S
C307 C305 1.388 . S
C307 C308 1.366 . S
C308 C307 1.366 . S
C308 C309 1.414 . S
C308 C311 1.499 . S
C309 H283 0.950 . S
C309 C308 1.414 . S
C309 C310 1.374 . S
C310 H284 0.950 . S
C310 C306 1.385 . S
C310 C309 1.374 . S
C311 C308 1.499 . S
C311 C312 1.373 . S
C311 C313 1.389 . S
C312 H285 0.950 . S
C312 C298 1.377 . S
C312 C311 1.373 . S
C313 C297 1.377 . S
C313 C311 1.389 . S
C313 C314 1.524 . S
C314 C313 1.524 . S
C314 C315 1.397 . S
C314 C319 1.363 . S
C315 H286 0.950 . S
C315 C314 1.397 . S
C315 C316 1.334 . S
C316 H287 0.950 . S
C316 C315 1.334 . S
C316 C317 1.287 . S
C317 C316 1.287 . S
C317 C318 1.524 . S
C317 H320 0.999 . S
C318 H288 0.950 . S
C318 C317 1.524 . S
C318 C319 1.415 . S
C319 H289 0.950 . S
C319 C314 1.363 . S
C319 C318 1.415 . S
H320 C317 0.999 . S
H321 C302 0.913 . S
H322 C340 0.951 . S
H323 C342 0.951 . S
H324 C344 0.950 . S
H325 C345 0.950 . S
H326 C347 0.950 . S
H327 C350 0.950 . S
H328 C351 0.950 . S
H329 C353 0.950 . S
H330 C354 0.950 . S
H331 C355 0.951 . S
H332 C357 0.951 . S
H333 C359 0.950 . S
H334 C360 0.950 . S
H335 C362 0.950 . S
H336 C365 0.950 . S
H337 C366 0.950 . S
H338 C368 0.950 . S
H339 C369 0.950 . S
C340 H322 0.951 . S
C340 C341 1.366 . S
C340 C342 1.388 . S
C341 C340 1.366 . S
C341 C345 1.385 . S
C342 H323 0.951 . S
C342 C340 1.388 . S
C342 C343 1.366 . S
C343 C342 1.366 . S
C343 C344 1.414 . S
C343 C346 1.499 . S
C344 H324 0.950 . S
C344 C343 1.414 . S
C344 C345 1.374 . S
C345 H325 0.950 . S
C345 C341 1.385 . S
C345 C344 1.374 . S
C346 C343 1.499 . S
C346 C347 1.373 . S
C346 C348 1.389 . S
C347 H326 0.950 . S
C347 C346 1.373 . S
C347 C363 1.377 . S
C348 C346 1.389 . S
C348 C349 1.524 . S
C348 C362 1.377 . S
C349 C348 1.524 . S
C349 C350 1.397 . S
C349 C354 1.363 . S
C350 H327 0.950 . S
C350 C349 1.397 . S
C350 C351 1.334 . S
C351 H328 0.950 . S
C351 C350 1.334 . S
C351 C352 1.287 . S
C352 C351 1.287 . S
C352 C353 1.524 . S
C352 H371 0.913 . S
C353 H329 0.950 . S
C353 C352 1.524 . S
C353 C354 1.415 . S
C354 H330 0.950 . S
C354 C349 1.363 . S
C354 C353 1.415 . S
C355 H331 0.951 . S
C355 C356 1.366 . S
C355 C357 1.388 . S
C356 C355 1.366 . S
C356 C360 1.385 . S
C357 H332 0.951 . S
C357 C355 1.388 . S
C357 C358 1.366 . S
C358 C357 1.366 . S
C358 C359 1.414 . S
C358 C361 1.499 . S
C359 H333 0.950 . S
C359 C358 1.414 . S
C359 C360 1.374 . S
C360 H334 0.950 . S
C360 C356 1.385 . S
C360 C359 1.374 . S
C361 C358 1.499 . S
C361 C362 1.373 . S
C361 C363 1.389 . S
C362 H335 0.950 . S
C362 C348 1.377 . S
C362 C361 1.373 . S
C363 C347 1.377 . S
C363 C361 1.389 . S
C363 C364 1.524 . S
C364 C363 1.524 . S
C364 C365 1.397 . S
C364 C369 1.363 . S
C365 H336 0.950 . S
C365 C364 1.397 . S
C365 C366 1.334 . S
C366 H337 0.950 . S
C366 C365 1.334 . S
C366 C367 1.287 . S
C367 C366 1.287 . S
C367 C368 1.524 . S
C367 H370 0.999 . S
C368 H338 0.950 . S
C368 C367 1.524 . S
C368 C369 1.415 . S
C369 H339 0.950 . S
C369 C364 1.363 . S
C369 C368 1.415 . S
H370 C367 0.999 . S
H371 C352 0.913 . S
H372 C390 0.951 . S
H373 C392 0.951 . S
H374 C394 0.950 . S
H375 C395 0.950 . S
H376 C397 0.950 . S
H377 C400 0.950 . S
H378 C401 0.950 . S
H379 C403 0.950 . S
H380 C404 0.950 . S
H381 C405 0.951 . S
H382 C407 0.951 . S
H383 C409 0.950 . S
H384 C410 0.950 . S
H385 C412 0.950 . S
H386 C415 0.950 . S
H387 C416 0.950 . S
H388 C418 0.950 . S
H389 C419 0.950 . S
C390 H372 0.951 . S
C390 C391 1.366 . S
C390 C392 1.388 . S
C391 C390 1.366 . S
C391 C395 1.385 . S
C392 H373 0.951 . S
C392 C390 1.388 . S
C392 C393 1.366 . S
C393 C392 1.366 . S
C393 C394 1.414 . S
C393 C396 1.499 . S
C394 H374 0.950 . S
C394 C393 1.414 . S
C394 C395 1.374 . S
C395 H375 0.950 . S
C395 C391 1.385 . S
C395 C394 1.374 . S
C396 C393 1.499 . S
C396 C397 1.373 . S
C396 C398 1.389 . S
C397 H376 0.950 . S
C397 C396 1.373 . S
C397 C413 1.377 . S
C398 C396 1.389 . S
C398 C399 1.524 . S
C398 C412 1.377 . S
C399 C398 1.524 . S
C399 C400 1.397 . S
C399 C404 1.363 . S
C400 H377 0.950 . S
C400 C399 1.397 . S
C400 C401 1.334 . S
C401 H378 0.950 . S
C401 C400 1.334 . S
C401 C402 1.287 . S
C402 C401 1.287 . S
C402 C403 1.524 . S
C402 H421 0.913 . S
C403 H379 0.950 . S
C403 C402 1.524 . S
C403 C404 1.415 . S
C404 H380 0.950 . S
C404 C399 1.363 . S
C404 C403 1.415 . S
C405 H381 0.951 . S
C405 C406 1.366 . S
C405 C407 1.388 . S
C406 C405 1.366 . S
C406 C410 1.385 . S
C407 H382 0.951 . S
C407 C405 1.388 . S
C407 C408 1.366 . S
C408 C407 1.366 . S
C408 C409 1.414 . S
C408 C411 1.499 . S
C409 H383 0.950 . S
C409 C408 1.414 . S
C409 C410 1.374 . S
C410 H384 0.950 . S
C410 C406 1.385 . S
C410 C409 1.374 . S
C411 C408 1.499 . S
C411 C412 1.373 . S
C411 C413 1.389 . S
C412 H385 0.950 . S
C412 C398 1.377 . S
C412 C411 1.373 . S
C413 C397 1.377 . S
C413 C411 1.389 . S
C413 C414 1.524 . S
C414 C413 1.524 . S
C414 C415 1.397 . S
C414 C419 1.363 . S
C415 H386 0.950 . S
C415 C414 1.397 . S
C415 C416 1.334 . S
C416 H387 0.950 . S
C416 C415 1.334 . S
C416 C417 1.287 1_655 S
C417 C416 1.287 1_455 S
C417 C418 1.524 . S
C417 H420 0.999 . S
C418 H388 0.950 . S
C418 C417 1.524 . S
C418 C419 1.415 1_455 S
C419 H389 0.950 . S
C419 C414 1.363 . S
C419 C418 1.415 1_655 S
H420 C417 0.999 . S
H421 C402 0.913 . S
H422 C440 0.951 1_545 S
H423 C442 0.951 . S
H424 C444 0.950 . S
H425 C445 0.950 . S
H426 C447 0.950 . S
H427 C450 0.950 . S
H428 C451 0.950 . S
H429 C453 0.950 . S
H430 C454 0.950 . S
H431 C455 0.951 . S
H432 C457 0.951 . S
H433 C459 0.950 . S
H434 C460 0.950 . S
H435 C462 0.950 . S
H436 C465 0.950 . S
H437 C466 0.950 . S
H438 C468 0.950 . S
H439 C469 0.950 . S
C440 H422 0.951 1_565 S
C440 C441 1.366 . S
C440 C442 1.388 . S
C441 C440 1.366 . S
C441 C445 1.385 . S
C442 H423 0.951 . S
C442 C440 1.388 . S
C442 C443 1.366 . S
C443 C442 1.366 . S
C443 C444 1.414 . S
C443 C446 1.499 . S
C444 H424 0.950 . S
C444 C443 1.414 . S
C444 C445 1.374 . S
C445 H425 0.950 . S
C445 C441 1.385 . S
C445 C444 1.374 . S
C446 C443 1.499 . S
C446 C447 1.373 . S
C446 C448 1.389 . S
C447 H426 0.950 . S
C447 C446 1.373 . S
C447 C463 1.377 . S
C448 C446 1.389 . S
C448 C449 1.524 . S
C448 C462 1.377 . S
C449 C448 1.524 . S
C449 C450 1.397 . S
C449 C454 1.363 . S
C450 H427 0.950 . S
C450 C449 1.397 . S
C450 C451 1.334 . S
C451 H428 0.950 . S
C451 C450 1.334 . S
C451 C452 1.287 1_565 S
C452 C451 1.287 1_545 S
C452 C453 1.524 . S
C452 H471 0.913 . S
C453 H429 0.950 . S
C453 C452 1.524 . S
C453 C454 1.415 1_545 S
C454 H430 0.950 . S
C454 C449 1.363 . S
C454 C453 1.415 1_565 S
C455 H431 0.951 . S
C455 C456 1.366 . S
C455 C457 1.388 . S
C456 C455 1.366 . S
C456 C460 1.385 . S
C457 H432 0.951 . S
C457 C455 1.388 . S
C457 C458 1.366 . S
C458 C457 1.366 . S
C458 C459 1.414 . S
C458 C461 1.499 . S
C459 H433 0.950 . S
C459 C458 1.414 . S
C459 C460 1.374 . S
C460 H434 0.950 . S
C460 C456 1.385 . S
C460 C459 1.374 . S
C461 C458 1.499 . S
C461 C462 1.373 . S
C461 C463 1.389 . S
C462 H435 0.950 . S
C462 C448 1.377 . S
C462 C461 1.373 . S
C463 C447 1.377 . S
C463 C461 1.389 . S
C463 C464 1.524 . S
C464 C463 1.524 . S
C464 C465 1.397 . S
C464 C469 1.363 . S
C465 H436 0.950 . S
C465 C464 1.397 . S
C465 C466 1.334 . S
C466 H437 0.950 . S
C466 C465 1.334 . S
C466 C467 1.287 . S
C467 C466 1.287 . S
C467 C468 1.524 . S
C467 H470 0.999 . S
C468 H438 0.950 . S
C468 C467 1.524 . S
C468 C469 1.415 . S
C469 H439 0.950 . S
C469 C464 1.363 . S
C469 C468 1.415 . S
H470 C467 0.999 . S
H471 C452 0.913 . S
H472 C490 0.951 . S
H473 C492 0.951 . S
H474 C494 0.950 . S
H475 C495 0.950 . S
H476 C497 0.950 . S
H477 C500 0.950 . S
H478 C501 0.950 1_565 S
H479 C503 0.950 . S
H480 C504 0.950 . S
H481 C505 0.951 . S
H482 C507 0.951 . S
H483 C509 0.950 . S
H484 C510 0.950 . S
H485 C512 0.950 . S
H486 C515 0.950 . S
H487 C516 0.950 . S
H488 C518 0.950 . S
H489 C519 0.950 . S
C490 H472 0.951 . S
C490 C491 1.366 . S
C490 C492 1.388 . S
C491 C490 1.366 . S
C491 C495 1.385 . S
C492 H473 0.951 . S
C492 C490 1.388 . S
C492 C493 1.366 . S
C493 C492 1.366 . S
C493 C494 1.414 . S
C493 C496 1.499 . S
C494 H474 0.950 . S
C494 C493 1.414 . S
C494 C495 1.374 . S
C495 H475 0.950 . S
C495 C491 1.385 . S
C495 C494 1.374 . S
C496 C493 1.499 . S
C496 C497 1.373 . S
C496 C498 1.389 . S
C497 H476 0.950 . S
C497 C496 1.373 . S
C497 C513 1.377 . S
C498 C496 1.389 . S
C498 C499 1.524 . S
C498 C512 1.377 . S
C499 C498 1.524 . S
C499 C500 1.397 . S
C499 C504 1.363 . S
C500 H477 0.950 . S
C500 C499 1.397 . S
C500 C501 1.334 . S
C501 H478 0.950 1_545 S
C501 C500 1.334 . S
C501 C502 1.287 . S
C502 C501 1.287 . S
C502 C503 1.524 . S
C502 H521 0.913 1_545 S
C503 H479 0.950 . S
C503 C502 1.524 . S
C503 C504 1.415 . S
C504 H480 0.950 . S
C504 C499 1.363 . S
C504 C503 1.415 . S
C505 H481 0.951 . S
C505 C506 1.366 . S
C505 C507 1.388 . S
C506 C505 1.366 . S
C506 C510 1.385 . S
C507 H482 0.951 . S
C507 C505 1.388 . S
C507 C508 1.366 . S
C508 C507 1.366 . S
C508 C509 1.414 . S
C508 C511 1.499 . S
C509 H483 0.950 . S
C509 C508 1.414 . S
C509 C510 1.374 . S
C510 H484 0.950 . S
C510 C506 1.385 . S
C510 C509 1.374 . S
C511 C508 1.499 . S
C511 C512 1.373 . S
C511 C513 1.389 . S
C512 H485 0.950 . S
C512 C498 1.377 . S
C512 C511 1.373 . S
C513 C497 1.377 . S
C513 C511 1.389 . S
C513 C514 1.524 . S
C514 C513 1.524 . S
C514 C515 1.397 . S
C514 C519 1.363 . S
C515 H486 0.950 . S
C515 C514 1.397 . S
C515 C516 1.334 . S
C516 H487 0.950 . S
C516 C515 1.334 . S
C516 C517 1.287 . S
C517 C516 1.287 . S
C517 C518 1.524 . S
C517 H520 0.999 . S
C518 H488 0.950 . S
C518 C517 1.524 . S
C518 C519 1.415 . S
C519 H489 0.950 . S
C519 C514 1.363 . S
C519 C518 1.415 . S
H520 C517 0.999 . S
H521 C502 0.913 1_565 S
H522 C540 0.951 . S
H523 C542 0.951 . S
H524 C544 0.950 . S
H525 C545 0.950 . S
H526 C547 0.950 . S
H527 C550 0.950 . S
H528 C551 0.950 . S
H529 C553 0.950 . S
H530 C554 0.950 . S
H531 C555 0.951 . S
H532 C557 0.951 . S
H533 C559 0.950 . S
H534 C560 0.950 . S
H535 C562 0.950 . S
H536 C565 0.950 . S
H537 C566 0.950 . S
H538 C568 0.950 1_655 S
H539 C569 0.950 . S
C540 H522 0.951 . S
C540 C541 1.366 . S
C540 C542 1.388 . S
C541 C540 1.366 . S
C541 C545 1.385 . S
C542 H523 0.951 . S
C542 C540 1.388 . S
C542 C543 1.366 . S
C543 C542 1.366 . S
C543 C544 1.414 . S
C543 C546 1.499 . S
C544 H524 0.950 . S
C544 C543 1.414 . S
C544 C545 1.374 . S
C545 H525 0.950 . S
C545 C541 1.385 . S
C545 C544 1.374 . S
C546 C543 1.499 . S
C546 C547 1.373 . S
C546 C548 1.389 . S
C547 H526 0.950 . S
C547 C546 1.373 . S
C547 C563 1.377 . S
C548 C546 1.389 . S
C548 C549 1.524 . S
C548 C562 1.377 . S
C549 C548 1.524 . S
C549 C550 1.397 . S
C549 C554 1.363 . S
C550 H527 0.950 . S
C550 C549 1.397 . S
C550 C551 1.334 . S
C551 H528 0.950 . S
C551 C550 1.334 . S
C551 C552 1.287 . S
C552 C551 1.287 . S
C552 C553 1.524 . S
C552 H571 0.913 . S
C553 H529 0.950 . S
C553 C552 1.524 . S
C553 C554 1.415 . S
C554 H530 0.950 . S
C554 C549 1.363 . S
C554 C553 1.415 . S
C555 H531 0.951 . S
C555 C556 1.366 . S
C555 C557 1.388 . S
C556 C555 1.366 . S
C556 C560 1.385 . S
C557 H532 0.951 . S
C557 C555 1.388 . S
C557 C558 1.366 . S
C558 C557 1.366 . S
C558 C559 1.414 . S
C558 C561 1.499 . S
C559 H533 0.950 . S
C559 C558 1.414 . S
C559 C560 1.374 . S
C560 H534 0.950 . S
C560 C556 1.385 . S
C560 C559 1.374 . S
C561 C558 1.499 . S
C561 C562 1.373 . S
C561 C563 1.389 . S
C562 H535 0.950 . S
C562 C548 1.377 . S
C562 C561 1.373 . S
C563 C547 1.377 . S
C563 C561 1.389 . S
C563 C564 1.524 . S
C564 C563 1.524 . S
C564 C565 1.397 . S
C564 C569 1.363 . S
C565 H536 0.950 . S
C565 C564 1.397 . S
C565 C566 1.334 . S
C566 H537 0.950 . S
C566 C565 1.334 . S
C566 C567 1.287 1_455 S
C567 C566 1.287 1_655 S
C567 C568 1.524 1_655 S
C567 H570 0.999 . S
C568 H538 0.950 1_455 S
C568 C567 1.524 1_455 S
C568 C569 1.415 . S
C569 H539 0.950 . S
C569 C564 1.363 . S
C569 C568 1.415 . S
H570 C567 0.999 . S
H571 C552 0.913 . S
H572 C590 0.951 . S
H573 C592 0.951 . S
H574 C594 0.950 . S
H575 C595 0.950 . S
H576 C597 0.950 . S
H577 C600 0.950 . S
H578 C601 0.950 . S
H579 C603 0.950 . S
H580 C604 0.950 . S
H581 C605 0.951 . S
H582 C607 0.951 . S
H583 C609 0.950 . S
H584 C610 0.950 . S
H585 C612 0.950 . S
H586 C615 0.950 . S
H587 C616 0.950 . S
H588 C618 0.950 . S
H589 C619 0.950 . S
C590 H572 0.951 . S
C590 C591 1.366 . S
C590 C592 1.388 . S
C591 C590 1.366 . S
C591 C595 1.385 . S
C592 H573 0.951 . S
C592 C590 1.388 . S
C592 C593 1.366 . S
C593 C592 1.366 . S
C593 C594 1.414 . S
C593 C596 1.499 . S
C594 H574 0.950 . S
C594 C593 1.414 . S
C594 C595 1.374 . S
C595 H575 0.950 . S
C595 C591 1.385 . S
C595 C594 1.374 . S
C596 C593 1.499 . S
C596 C597 1.373 . S
C596 C598 1.389 . S
C597 H576 0.950 . S
C597 C596 1.373 . S
C597 C613 1.377 . S
C598 C596 1.389 . S
C598 C599 1.524 . S
C598 C612 1.377 . S
C599 C598 1.524 . S
C599 C600 1.397 . S
C599 C604 1.363 . S
C600 H577 0.950 . S
C600 C599 1.397 . S
C600 C601 1.334 1_655 S
C601 H578 0.950 . S
C601 C600 1.334 1_455 S
C601 C602 1.287 . S
C602 C601 1.287 . S
C602 C603 1.524 . S
C602 H621 0.913 . S
C603 H579 0.950 . S
C603 C602 1.524 . S
C603 C604 1.415 1_455 S
C604 H580 0.950 . S
C604 C599 1.363 . S
C604 C603 1.415 1_655 S
C605 H581 0.951 . S
C605 C606 1.366 . S
C605 C607 1.388 . S
C606 C605 1.366 . S
C606 C610 1.385 . S
C607 H582 0.951 . S
C607 C605 1.388 . S
C607 C608 1.366 . S
C608 C607 1.366 . S
C608 C609 1.414 . S
C608 C611 1.499 . S
C609 H583 0.950 . S
C609 C608 1.414 . S
C609 C610 1.374 . S
C610 H584 0.950 . S
C610 C606 1.385 . S
C610 C609 1.374 . S
C611 C608 1.499 . S
C611 C612 1.373 . S
C611 C613 1.389 . S
C612 H585 0.950 . S
C612 C598 1.377 . S
C612 C611 1.373 . S
C613 C597 1.377 . S
C613 C611 1.389 . S
C613 C614 1.524 . S
C614 C613 1.524 . S
C614 C615 1.397 . S
C614 C619 1.363 . S
C615 H586 0.950 . S
C615 C614 1.397 . S
C615 C616 1.334 . S
C616 H587 0.950 . S
C616 C615 1.334 . S
C616 C617 1.287 . S
C617 C616 1.287 . S
C617 C618 1.524 . S
C617 H620 0.999 . S
C618 H588 0.950 . S
C618 C617 1.524 . S
C618 C619 1.415 . S
C619 H589 0.950 . S
C619 C614 1.363 . S
C619 C618 1.415 . S
H620 C617 0.999 . S
H621 C602 0.913 . S
H622 C640 0.951 . S
H623 C642 0.951 . S
H624 C644 0.950 . S
H625 C645 0.950 . S
H626 C647 0.950 . S
H627 C650 0.950 . S
H628 C651 0.950 . S
H629 C653 0.950 . S
H630 C654 0.950 . S
H631 C655 0.951 . S
H632 C657 0.951 . S
H633 C659 0.950 . S
H634 C660 0.950 . S
H635 C662 0.950 . S
H636 C665 0.950 . S
H637 C666 0.950 . S
H638 C668 0.950 . S
H639 C669 0.950 . S
C640 H622 0.951 . S
C640 C641 1.366 . S
C640 C642 1.388 . S
C641 C640 1.366 . S
C641 C645 1.385 . S
C642 H623 0.951 . S
C642 C640 1.388 . S
C642 C643 1.366 . S
C643 C642 1.366 . S
C643 C644 1.414 . S
C643 C646 1.499 . S
C644 H624 0.950 . S
C644 C643 1.414 . S
C644 C645 1.374 . S
C645 H625 0.950 . S
C645 C641 1.385 . S
C645 C644 1.374 . S
C646 C643 1.499 . S
C646 C647 1.373 . S
C646 C648 1.389 . S
C647 H626 0.950 . S
C647 C646 1.373 . S
C647 C663 1.377 . S
C648 C646 1.389 . S
C648 C649 1.524 . S
C648 C662 1.377 . S
C649 C648 1.524 . S
C649 C650 1.397 . S
C649 C654 1.363 . S
C650 H627 0.950 . S
C650 C649 1.397 . S
C650 C651 1.334 . S
C651 H628 0.950 . S
C651 C650 1.334 . S
C651 C652 1.287 . S
C652 C651 1.287 . S
C652 C653 1.524 . S
C652 H671 0.913 . S
C653 H629 0.950 . S
C653 C652 1.524 . S
C653 C654 1.415 . S
C654 H630 0.950 . S
C654 C649 1.363 . S
C654 C653 1.415 . S
C655 H631 0.951 . S
C655 C656 1.366 . S
C655 C657 1.388 . S
C656 C655 1.366 . S
C656 C660 1.385 . S
C657 H632 0.951 . S
C657 C655 1.388 . S
C657 C658 1.366 . S
C658 C657 1.366 . S
C658 C659 1.414 . S
C658 C661 1.499 . S
C659 H633 0.950 . S
C659 C658 1.414 . S
C659 C660 1.374 . S
C660 H634 0.950 . S
C660 C656 1.385 . S
C660 C659 1.374 . S
C661 C658 1.499 . S
C661 C662 1.373 . S
C661 C663 1.389 . S
C662 H635 0.950 . S
C662 C648 1.377 . S
C662 C661 1.373 . S
C663 C647 1.377 . S
C663 C661 1.389 . S
C663 C664 1.524 . S
C664 C663 1.524 . S
C664 C665 1.397 . S
C664 C669 1.363 . S
C665 H636 0.950 . S
C665 C664 1.397 . S
C665 C666 1.334 . S
C666 H637 0.950 . S
C666 C665 1.334 . S
C666 C667 1.287 . S
C667 C666 1.287 . S
C667 C668 1.524 . S
C667 H670 0.999 . S
C668 H638 0.950 . S
C668 C667 1.524 . S
C668 C669 1.415 . S
C669 H639 0.950 . S
C669 C664 1.363 . S
C669 C668 1.415 . S
H670 C667 0.999 . S
H671 C652 0.913 . S
H672 C690 0.951 . S
H673 C692 0.951 . S
H674 C694 0.950 . S
H675 C695 0.950 . S
H676 C697 0.950 . S
H677 C700 0.950 . S
H678 C701 0.950 . S
H679 C703 0.950 . S
H680 C704 0.950 1_655 S
H681 C705 0.951 . S
H682 C707 0.951 . S
H683 C709 0.950 . S
H684 C710 0.950 . S
H685 C712 0.950 . S
H686 C715 0.950 . S
H687 C716 0.950 . S
H688 C718 0.950 . S
H689 C719 0.950 . S
C690 H672 0.951 . S
C690 C691 1.366 . S
C690 C692 1.388 . S
C691 C690 1.366 . S
C691 C695 1.385 . S
C692 H673 0.951 . S
C692 C690 1.388 . S
C692 C693 1.366 . S
C693 C692 1.366 . S
C693 C694 1.414 . S
C693 C696 1.499 . S
C694 H674 0.950 . S
C694 C693 1.414 . S
C694 C695 1.374 . S
C695 H675 0.950 . S
C695 C691 1.385 . S
C695 C694 1.374 . S
C696 C693 1.499 . S
C696 C697 1.373 . S
C696 C698 1.389 . S
C697 H676 0.950 . S
C697 C696 1.373 . S
C697 C713 1.377 . S
C698 C696 1.389 . S
C698 C699 1.524 . S
C698 C712 1.377 . S
C699 C698 1.524 . S
C699 C700 1.397 1_655 S
C699 C704 1.363 1_655 S
C700 H677 0.950 . S
C700 C699 1.397 1_455 S
C700 C701 1.334 . S
C701 H678 0.950 . S
C701 C700 1.334 . S
C701 C702 1.287 . S
C702 C701 1.287 . S
C702 C703 1.524 . S
C702 H721 0.913 . S
C703 H679 0.950 . S
C703 C702 1.524 . S
C703 C704 1.415 . S
C704 H680 0.950 1_455 S
C704 C699 1.363 1_455 S
C704 C703 1.415 . S
C705 H681 0.951 . S
C705 C706 1.366 . S
C705 C707 1.388 . S
C706 C705 1.366 . S
C706 C710 1.385 . S
C707 H682 0.951 . S
C707 C705 1.388 . S
C707 C708 1.366 . S
C708 C707 1.366 . S
C708 C709 1.414 . S
C708 C711 1.499 . S
C709 H683 0.950 . S
C709 C708 1.414 . S
C709 C710 1.374 . S
C710 H684 0.950 . S
C710 C706 1.385 . S
C710 C709 1.374 . S
C711 C708 1.499 . S
C711 C712 1.373 . S
C711 C713 1.389 . S
C712 H685 0.950 . S
C712 C698 1.377 . S
C712 C711 1.373 . S
C713 C697 1.377 . S
C713 C711 1.389 . S
C713 C714 1.524 . S
C714 C713 1.524 . S
C714 C715 1.397 . S
C714 C719 1.363 . S
C715 H686 0.950 . S
C715 C714 1.397 . S
C715 C716 1.334 . S
C716 H687 0.950 . S
C716 C715 1.334 . S
C716 C717 1.287 . S
C717 C716 1.287 . S
C717 C718 1.524 . S
C717 H720 0.999 . S
C718 H688 0.950 . S
C718 C717 1.524 . S
C718 C719 1.415 . S
C719 H689 0.950 . S
C719 C714 1.363 . S
C719 C718 1.415 . S
H720 C717 0.999 . S
H721 C702 0.913 . S
C141 C15 1.400 . S
C156 C99 1.312 . S
C191 C55 0.839 . S
C206 C105 0.811 . S
C241 C10 1.170 . S
C256 C96 1.088 . S
C291 C50 1.869 . S
C306 C121 1.759 . S
C341 C9 2.045 . S
C356 C87 2.018 . S
C406 C104 1.928 . S
C391 C49 2.024 . S
C441 C59 1.630 . S
C456 C100 1.550 . S
C506 C117 2.189 . S
C491 C18 2.235 . S
C556 C84 2.134 . S
C541 C58 2.308 . S
C606 C120 1.361 . S
C591 C6 1.462 . S
C656 C83 0.839 . S
C641 C46 0.871 . S
C706 C108 0.921 . S
C691 C19 0.977 . S
