# Generated by pormake.
# Topology cor, (4,6)-cn, num edge types: 1
# Building blocks:
#     Node 0, Type 0, BuildingBlock: GALJAG_clean_sbu_0, # of connection points: 4
#     Node 1, Type 0, BuildingBlock: GALJAG_clean_sbu_0, # of connection points: 4
#     Node 2, Type 0, BuildingBlock: GALJAG_clean_sbu_0, # of connection points: 4
#     Node 3, Type 0, BuildingBlock: GALJAG_clean_sbu_0, # of connection points: 4
#     Node 4, Type 0, BuildingBlock: GALJAG_clean_sbu_0, # of connection points: 4
#     Node 5, Type 0, BuildingBlock: GALJAG_clean_sbu_0, # of connection points: 4
#     Node 6, Type 0, BuildingBlock: GALJAG_clean_sbu_0, # of connection points: 4
#     Node 7, Type 0, BuildingBlock: GALJAG_clean_sbu_0, # of connection points: 4
#     Node 8, Type 0, BuildingBlock: GALJAG_clean_sbu_0, # of connection points: 4
#     Node 9, Type 0, BuildingBlock: GALJAG_clean_sbu_0, # of connection points: 4
#     Node 10, Type 0, BuildingBlock: GALJAG_clean_sbu_0, # of connection points: 4
#     Node 11, Type 0, BuildingBlock: GALJAG_clean_sbu_0, # of connection points: 4
#     Node 12, Type 0, BuildingBlock: GALJAG_clean_sbu_0, # of connection points: 4
#     Node 13, Type 0, BuildingBlock: GALJAG_clean_sbu_0, # of connection points: 4
#     Node 14, Type 0, BuildingBlock: GALJAG_clean_sbu_0, # of connection points: 4
#     Node 15, Type 0, BuildingBlock: GALJAG_clean_sbu_0, # of connection points: 4
#     Node 16, Type 0, BuildingBlock: GALJAG_clean_sbu_0, # of connection points: 4
#     Node 17, Type 0, BuildingBlock: GALJAG_clean_sbu_0, # of connection points: 4
#     Node 18, Type 1, BuildingBlock: MIDCAF_clean_sbu_0, # of connection points: 6
#     Node 19, Type 1, BuildingBlock: MIDCAF_clean_sbu_0, # of connection points: 6
#     Node 20, Type 1, BuildingBlock: MIDCAF_clean_sbu_0, # of connection points: 6
#     Node 21, Type 1, BuildingBlock: MIDCAF_clean_sbu_0, # of connection points: 6
#     Node 22, Type 1, BuildingBlock: MIDCAF_clean_sbu_0, # of connection points: 6
#     Node 23, Type 1, BuildingBlock: MIDCAF_clean_sbu_0, # of connection points: 6
#     Node 24, Type 1, BuildingBlock: MIDCAF_clean_sbu_0, # of connection points: 6
#     Node 25, Type 1, BuildingBlock: MIDCAF_clean_sbu_0, # of connection points: 6
#     Node 26, Type 1, BuildingBlock: MIDCAF_clean_sbu_0, # of connection points: 6
#     Node 27, Type 1, BuildingBlock: MIDCAF_clean_sbu_0, # of connection points: 6
#     Node 28, Type 1, BuildingBlock: MIDCAF_clean_sbu_0, # of connection points: 6
#     Node 29, Type 1, BuildingBlock: MIDCAF_clean_sbu_0, # of connection points: 6
#     Edge 30, Type (0, 1), BuildingBlock: XUDNAN_clean_linker_2, # of connection points: 2
#     Edge 31, Type (0, 1), BuildingBlock: XUDNAN_clean_linker_2, # of connection points: 2
#     Edge 32, Type (0, 1), BuildingBlock: XUDNAN_clean_linker_2, # of connection points: 2
#     Edge 33, Type (0, 1), BuildingBlock: XUDNAN_clean_linker_2, # of connection points: 2
#     Edge 34, Type (0, 1), BuildingBlock: XUDNAN_clean_linker_2, # of connection points: 2
#     Edge 35, Type (0, 1), BuildingBlock: XUDNAN_clean_linker_2, # of connection points: 2
#     Edge 36, Type (0, 1), BuildingBlock: XUDNAN_clean_linker_2, # of connection points: 2
#     Edge 37, Type (0, 1), BuildingBlock: XUDNAN_clean_linker_2, # of connection points: 2
#     Edge 38, Type (0, 1), BuildingBlock: XUDNAN_clean_linker_2, # of connection points: 2
#     Edge 39, Type (0, 1), BuildingBlock: XUDNAN_clean_linker_2, # of connection points: 2
#     Edge 40, Type (0, 1), BuildingBlock: XUDNAN_clean_linker_2, # of connection points: 2
#     Edge 41, Type (0, 1), BuildingBlock: XUDNAN_clean_linker_2, # of connection points: 2
#     Edge 42, Type (0, 1), BuildingBlock: XUDNAN_clean_linker_2, # of connection points: 2
#     Edge 43, Type (0, 1), BuildingBlock: XUDNAN_clean_linker_2, # of connection points: 2
#     Edge 44, Type (0, 1), BuildingBlock: XUDNAN_clean_linker_2, # of connection points: 2
#     Edge 45, Type (0, 1), BuildingBlock: XUDNAN_clean_linker_2, # of connection points: 2
#     Edge 46, Type (0, 1), BuildingBlock: XUDNAN_clean_linker_2, # of connection points: 2
#     Edge 47, Type (0, 1), BuildingBlock: XUDNAN_clean_linker_2, # of connection points: 2
#     Edge 48, Type (0, 1), BuildingBlock: XUDNAN_clean_linker_2, # of connection points: 2
#     Edge 49, Type (0, 1), BuildingBlock: XUDNAN_clean_linker_2, # of connection points: 2
#     Edge 50, Type (0, 1), BuildingBlock: XUDNAN_clean_linker_2, # of connection points: 2
#     Edge 51, Type (0, 1), BuildingBlock: XUDNAN_clean_linker_2, # of connection points: 2
#     Edge 52, Type (0, 1), BuildingBlock: XUDNAN_clean_linker_2, # of connection points: 2
#     Edge 53, Type (0, 1), BuildingBlock: XUDNAN_clean_linker_2, # of connection points: 2
#     Edge 54, Type (0, 1), BuildingBlock: XUDNAN_clean_linker_2, # of connection points: 2
#     Edge 55, Type (0, 1), BuildingBlock: XUDNAN_clean_linker_2, # of connection points: 2
#     Edge 56, Type (0, 1), BuildingBlock: XUDNAN_clean_linker_2, # of connection points: 2
#     Edge 57, Type (0, 1), BuildingBlock: XUDNAN_clean_linker_2, # of connection points: 2
#     Edge 58, Type (0, 1), BuildingBlock: XUDNAN_clean_linker_2, # of connection points: 2
#     Edge 59, Type (0, 1), BuildingBlock: XUDNAN_clean_linker_2, # of connection points: 2
#     Edge 60, Type (0, 1), BuildingBlock: XUDNAN_clean_linker_2, # of connection points: 2
#     Edge 61, Type (0, 1), BuildingBlock: XUDNAN_clean_linker_2, # of connection points: 2
#     Edge 62, Type (0, 1), BuildingBlock: XUDNAN_clean_linker_2, # of connection points: 2
#     Edge 63, Type (0, 1), BuildingBlock: XUDNAN_clean_linker_2, # of connection points: 2
#     Edge 64, Type (0, 1), BuildingBlock: XUDNAN_clean_linker_2, # of connection points: 2
#     Edge 65, Type (0, 1), BuildingBlock: XUDNAN_clean_linker_2, # of connection points: 2
#     Edge 66, Type (0, 1), BuildingBlock: XUDNAN_clean_linker_2, # of connection points: 2
#     Edge 67, Type (0, 1), BuildingBlock: XUDNAN_clean_linker_2, # of connection points: 2
#     Edge 68, Type (0, 1), BuildingBlock: XUDNAN_clean_linker_2, # of connection points: 2
#     Edge 69, Type (0, 1), BuildingBlock: XUDNAN_clean_linker_2, # of connection points: 2
#     Edge 70, Type (0, 1), BuildingBlock: XUDNAN_clean_linker_2, # of connection points: 2
#     Edge 71, Type (0, 1), BuildingBlock: XUDNAN_clean_linker_2, # of connection points: 2
#     Edge 72, Type (0, 1), BuildingBlock: XUDNAN_clean_linker_2, # of connection points: 2
#     Edge 73, Type (0, 1), BuildingBlock: XUDNAN_clean_linker_2, # of connection points: 2
#     Edge 74, Type (0, 1), BuildingBlock: XUDNAN_clean_linker_2, # of connection points: 2
#     Edge 75, Type (0, 1), BuildingBlock: XUDNAN_clean_linker_2, # of connection points: 2
#     Edge 76, Type (0, 1), BuildingBlock: XUDNAN_clean_linker_2, # of connection points: 2
#     Edge 77, Type (0, 1), BuildingBlock: XUDNAN_clean_linker_2, # of connection points: 2
#     Edge 78, Type (0, 1), BuildingBlock: XUDNAN_clean_linker_2, # of connection points: 2
#     Edge 79, Type (0, 1), BuildingBlock: XUDNAN_clean_linker_2, # of connection points: 2
#     Edge 80, Type (0, 1), BuildingBlock: XUDNAN_clean_linker_2, # of connection points: 2
#     Edge 81, Type (0, 1), BuildingBlock: XUDNAN_clean_linker_2, # of connection points: 2
#     Edge 82, Type (0, 1), BuildingBlock: XUDNAN_clean_linker_2, # of connection points: 2
#     Edge 83, Type (0, 1), BuildingBlock: XUDNAN_clean_linker_2, # of connection points: 2
#     Edge 84, Type (0, 1), BuildingBlock: XUDNAN_clean_linker_2, # of connection points: 2
#     Edge 85, Type (0, 1), BuildingBlock: XUDNAN_clean_linker_2, # of connection points: 2
#     Edge 86, Type (0, 1), BuildingBlock: XUDNAN_clean_linker_2, # of connection points: 2
#     Edge 87, Type (0, 1), BuildingBlock: XUDNAN_clean_linker_2, # of connection points: 2
#     Edge 88, Type (0, 1), BuildingBlock: XUDNAN_clean_linker_2, # of connection points: 2
#     Edge 89, Type (0, 1), BuildingBlock: XUDNAN_clean_linker_2, # of connection points: 2
#     Edge 90, Type (0, 1), BuildingBlock: XUDNAN_clean_linker_2, # of connection points: 2
#     Edge 91, Type (0, 1), BuildingBlock: XUDNAN_clean_linker_2, # of connection points: 2
#     Edge 92, Type (0, 1), BuildingBlock: XUDNAN_clean_linker_2, # of connection points: 2
#     Edge 93, Type (0, 1), BuildingBlock: XUDNAN_clean_linker_2, # of connection points: 2
#     Edge 94, Type (0, 1), BuildingBlock: XUDNAN_clean_linker_2, # of connection points: 2
#     Edge 95, Type (0, 1), BuildingBlock: XUDNAN_clean_linker_2, # of connection points: 2
#     Edge 96, Type (0, 1), BuildingBlock: XUDNAN_clean_linker_2, # of connection points: 2
#     Edge 97, Type (0, 1), BuildingBlock: XUDNAN_clean_linker_2, # of connection points: 2
#     Edge 98, Type (0, 1), BuildingBlock: XUDNAN_clean_linker_2, # of connection points: 2
#     Edge 99, Type (0, 1), BuildingBlock: XUDNAN_clean_linker_2, # of connection points: 2
#     Edge 100, Type (0, 1), BuildingBlock: XUDNAN_clean_linker_2, # of connection points: 2
#     Edge 101, Type (0, 1), BuildingBlock: XUDNAN_clean_linker_2, # of connection points: 2
# Relax obj value: 0.119
# Max RMSD: 0.171
# Mean RMSD: 0.112
data_MOF--net-cor--node1-GALJAG_clean_sbu_0--node2-MIDCAF_clean_sbu_0--edge1-XUDNAN_clean_linker_2
_symmetry_space_group_name_H-M    P1
_symmetry_Int_Tables_number       1
_symmetry_cell_setting            triclinic
loop_
_symmetry_equiv_pos_as_xyz
'x, y, z'
_cell_length_a     37.601424
_cell_length_b     37.583036
_cell_length_c     107.08829
_cell_angle_alpha  89.997545
_cell_angle_beta   89.961683
_cell_angle_gamma 120.35327
loop_
_atom_site_label
_atom_site_type_symbol
_atom_site_fract_x
_atom_site_fract_y
_atom_site_fract_z
_atom_type_partial_charge
In0 In 0.75009 0.0271 0.25327 0.0
O1 O 0.76823 0.09546 0.2514 0.0
O2 O 0.72037 0.05078 0.23986 0.0
C3 C 0.79087 0.02053 0.27308 0.0
C4 C 0.7852 0.01632 0.23275 0.0
C5 C 0.67713 0.97663 0.26424 0.0
O6 O 0.7915 0.05387 0.27064 0.0
O7 O 0.77278 0.99251 0.26502 0.0
O8 O 0.68989 0.96569 0.25489 0.0
O9 O 0.69971 0.01388 0.26741 0.0
C10 C 0.74321 0.08837 0.24253 0.0
O11 O 0.74804 0.99176 0.23569 0.0
O12 O 0.80529 0.04457 0.24062 0.0
In13 In 0.0198 0.75788 0.25542 0.0
O14 O 0.0886 0.78306 0.2569 0.0
O15 O 0.04891 0.72195 0.26347 0.0
C16 C 0.0169 0.79543 0.23427 0.0
C17 C 0.02207 0.79745 0.27671 0.0
C18 C 0.95285 0.68669 0.24858 0.0
O19 O 0.04397 0.78548 0.23599 0.0
O20 O 0.99351 0.7891 0.24347 0.0
O21 O 0.95154 0.71093 0.2565 0.0
O22 O 0.98867 0.6966 0.24489 0.0
C23 C 0.08537 0.75186 0.26239 0.0
O24 O 0.99595 0.7598 0.27502 0.0
O25 O 0.04482 0.81543 0.26743 0.0
In26 In 0.28593 0.28715 0.25496 0.0
O27 O 0.25468 0.32527 0.25795 0.0
O28 O 0.3173 0.35166 0.26347 0.0
C29 C 0.24697 0.24115 0.2347 0.0
C30 C 0.25436 0.24465 0.27641 0.0
C31 C 0.35891 0.30785 0.24446 0.0
O32 O 0.24835 0.27487 0.23697 0.0
O33 O 0.26227 0.22939 0.2431 0.0
O34 O 0.34518 0.28417 0.25385 0.0
O35 O 0.3374 0.32332 0.24111 0.0
C36 C 0.28553 0.35495 0.26317 0.0
O37 O 0.29266 0.26418 0.27423 0.0
O38 O 0.23235 0.2443 0.26747 0.0
In39 In 0.27301 0.01146 0.75557 0.0
O40 O 0.2735 0.03462 0.77553 0.0
O41 O 0.2214 0.97815 0.76966 0.0
C42 C 0.34574 0.06736 0.74515 0.0
C43 C 0.27989 0.94385 0.75826 0.0
C44 C 0.22634 0.02774 0.73994 0.0
O45 O 0.3355 0.07243 0.75598 0.0
O46 O 0.32056 0.03357 0.74009 0.0
O47 O 0.22846 0.99532 0.73904 0.0
O48 O 0.24558 0.05032 0.74913 0.0
C49 C 0.23914 0.00351 0.77842 0.0
O50 O 0.25537 0.94547 0.7505 0.0
O51 O 0.30216 0.97687 0.76419 0.0
In52 In 0.00356 0.27375 0.76267 0.0
O53 O 0.0211 0.26111 0.74314 0.0
O54 O 0.97404 0.21096 0.75338 0.0
C55 C 0.07473 0.34381 0.76807 0.0
C56 C 0.94112 0.28419 0.75478 0.0
C57 C 0.00383 0.23951 0.78487 0.0
O58 O 0.07323 0.31598 0.76106 0.0
O59 O 0.03998 0.33776 0.77155 0.0
O60 O 0.98206 0.25588 0.78302 0.0
O61 O 0.02335 0.23861 0.77541 0.0
C62 C 0.994 0.2232 0.7433 0.0
O63 O 0.93568 0.25447 0.76161 0.0
O64 O 0.97841 0.31054 0.75264 0.0
In65 In 0.7587 0.75622 0.75964 0.0
O66 O 0.77419 0.79091 0.74078 0.0
O67 O 0.82317 0.79649 0.75207 0.0
C68 C 0.68866 0.75569 0.76594 0.0
C69 C 0.75051 0.68691 0.74915 0.0
C70 C 0.79121 0.78171 0.78263 0.0
O71 O 0.71773 0.78516 0.76001 0.0
O72 O 0.69355 0.72521 0.76776 0.0
O73 O 0.77463 0.74433 0.77936 0.0
O74 O 0.79262 0.80583 0.77419 0.0
C75 C 0.81253 0.80496 0.74185 0.0
O76 O 0.77809 0.70826 0.75704 0.0
O77 O 0.72485 0.69861 0.7472 0.0
In78 In 0.42351 0.35538 0.58965 0.0
O79 O 0.41947 0.31806 0.57231 0.0
O80 O 0.47551 0.37429 0.57565 0.0
C81 C 0.35284 0.30217 0.60164 0.0
C82 C 0.41286 0.41456 0.57903 0.0
C83 C 0.47491 0.36174 0.60829 0.0
O84 O 0.36643 0.29127 0.59251 0.0
O85 O 0.37383 0.33995 0.60432 0.0
O86 O 0.46476 0.38861 0.60638 0.0
O87 O 0.4608 0.33275 0.60043 0.0
C88 C 0.45503 0.34419 0.56839 0.0
O89 O 0.43876 0.42262 0.58766 0.0
O90 O 0.39091 0.3768 0.57644 0.0
In91 In 0.66821 0.08496 0.59116 0.0
O92 O 0.64954 0.08444 0.61157 0.0
O93 O 0.67678 0.14135 0.60174 0.0
C94 C 0.6015 0.01185 0.5853 0.0
C95 C 0.73744 0.08603 0.59874 0.0
C96 C 0.66661 0.11974 0.56918 0.0
O97 O 0.6005 0.03643 0.59314 0.0
O98 O 0.637 0.02264 0.58111 0.0
O99 O 0.69556 0.11328 0.57192 0.0
O100 O 0.64044 0.11105 0.57773 0.0
C101 C 0.66298 0.12274 0.61199 0.0
O102 O 0.73709 0.11787 0.59522 0.0
O103 O 0.70337 0.05284 0.59758 0.0
In104 In 0.94498 0.62574 0.58876 0.0
O105 O 0.94513 0.68653 0.59046 0.0
O106 O 0.97989 0.67433 0.60367 0.0
C107 C 0.90475 0.59252 0.56718 0.0
C108 C 0.88985 0.58197 0.60685 0.0
C109 C 0.01459 0.63131 0.57959 0.0
O110 O 0.91679 0.62948 0.5702 0.0
O111 O 0.91067 0.5719 0.5754 0.0
O112 O 0.99413 0.60604 0.58821 0.0
O113 O 0.00163 0.65514 0.57648 0.0
C114 C 0.96689 0.6979 0.60026 0.0
O115 O 0.92413 0.58325 0.60604 0.0
O116 O 0.8828 0.60012 0.59811 0.0
In117 In 0.95204 0.35238 0.08641 0.0
O118 O 0.9202 0.28306 0.09003 0.0
O119 O 0.98431 0.31903 0.09381 0.0
C120 C 0.91137 0.35681 0.06629 0.0
C121 C 0.92223 0.36412 0.10801 0.0
C122 C 0.02479 0.40699 0.07616 0.0
O123 O 0.91311 0.32485 0.0688 0.0
O124 O 0.92756 0.38508 0.07436 0.0
O125 O 0.01117 0.41523 0.08589 0.0
O126 O 0.00308 0.37052 0.07219 0.0
C127 C 0.95197 0.28411 0.0943 0.0
O128 O 0.96039 0.38227 0.10571 0.0
O129 O 0.89951 0.34264 0.09913 0.0
In130 In 0.69836 0.62461 0.08175 0.0
O131 O 0.72402 0.6298 0.06196 0.0
O132 O 0.68471 0.56992 0.06936 0.0
C133 C 0.76147 0.6965 0.09012 0.0
C134 C 0.62947 0.62353 0.07395 0.0
C135 C 0.70071 0.58688 0.10303 0.0
O136 O 0.76657 0.67121 0.08372 0.0
O137 O 0.72436 0.6874 0.09137 0.0
O138 O 0.67379 0.5971 0.10129 0.0
O139 O 0.72368 0.59264 0.09375 0.0
C140 C 0.70485 0.59136 0.06008 0.0
O141 O 0.62855 0.59413 0.07997 0.0
O142 O 0.66497 0.65494 0.07276 0.0
In143 In 0.42309 0.08819 0.08766 0.0
O144 O 0.44151 0.04065 0.09185 0.0
O145 O 0.39495 0.025 0.07812 0.0
C146 C 0.4585 0.1229 0.10972 0.0
C147 C 0.46488 0.12318 0.06621 0.0
C148 C 0.35316 0.08842 0.09345 0.0
O149 O 0.43629 0.08445 0.10824 0.0
O150 O 0.465 0.14389 0.09987 0.0
O151 O 0.38664 0.1207 0.09087 0.0
O152 O 0.35381 0.05536 0.09206 0.0
C153 C 0.41785 0.01481 0.08387 0.0
O154 O 0.42808 0.11445 0.06785 0.0
O155 O 0.4811 0.11667 0.07557 0.0
In156 In 0.09654 0.67107 0.91898 0.0
O157 O 0.1118 0.73661 0.92303 0.0
O158 O 0.06638 0.70362 0.90915 0.0
C159 C 0.14056 0.66657 0.9384 0.0
C160 C 0.1381 0.6822 0.89727 0.0
C161 C 0.02385 0.60404 0.92573 0.0
O162 O 0.12722 0.69134 0.93817 0.0
O163 O 0.13335 0.64534 0.92861 0.0
O164 O 0.04867 0.60227 0.91816 0.0
O165 O 0.03424 0.64007 0.92924 0.0
C166 C 0.08821 0.73745 0.91479 0.0
O167 O 0.10271 0.6512 0.89906 0.0
O168 O 0.15299 0.70582 0.90655 0.0
In169 In 0.36593 0.43366 0.91882 0.0
O170 O 0.43592 0.45966 0.91828 0.0
O171 O 0.39871 0.40506 0.92877 0.0
C172 C 0.34734 0.46587 0.89913 0.0
C173 C 0.36342 0.47456 0.93928 0.0
C174 C 0.31279 0.35811 0.9099 0.0
O175 O 0.38231 0.46874 0.90012 0.0
O176 O 0.3238 0.4498 0.90841 0.0
O177 O 0.30511 0.37198 0.9197 0.0
O178 O 0.34815 0.38107 0.9053 0.0
C179 C 0.43454 0.43236 0.92552 0.0
O180 O 0.34337 0.43562 0.93861 0.0
O181 O 0.38288 0.49253 0.92947 0.0
In182 In 0.61701 0.93391 0.92307 0.0
O183 O 0.61987 0.91347 0.94306 0.0
O184 O 0.56089 0.89309 0.93515 0.0
C185 C 0.68915 0.94055 0.9161 0.0
C186 C 0.61654 0.00344 0.92953 0.0
C187 C 0.58061 0.89372 0.90163 0.0
O188 O 0.6616 0.91001 0.92202 0.0
O189 O 0.68191 0.96963 0.91449 0.0
O190 O 0.5923 0.93141 0.90316 0.0
O191 O 0.58469 0.8762 0.9111 0.0
C192 C 0.5813 0.89383 0.9446 0.0
O193 O 0.58745 0.97408 0.92361 0.0
O194 O 0.64717 0.99892 0.93154 0.0
In195 In 0.61244 0.68675 0.42481 0.0
O196 O 0.61969 0.71273 0.44485 0.0
O197 O 0.55988 0.66904 0.43831 0.0
C198 C 0.68389 0.73922 0.41329 0.0
C199 C 0.61296 0.61688 0.43036 0.0
C200 C 0.56956 0.70021 0.4071 0.0
O201 O 0.67387 0.7479 0.42368 0.0
O202 O 0.65937 0.70328 0.40932 0.0
O203 O 0.56904 0.66635 0.40791 0.0
O204 O 0.58955 0.72589 0.4156 0.0
C205 C 0.58171 0.69039 0.44733 0.0
O206 O 0.58242 0.61653 0.42532 0.0
O207 O 0.64413 0.6523 0.43181 0.0
In208 In 0.33661 0.94411 0.4256 0.0
O209 O 0.36198 0.94812 0.40581 0.0
O210 O 0.33162 0.88958 0.41473 0.0
C211 C 0.39446 0.01743 0.43507 0.0
C212 C 0.26913 0.94356 0.41653 0.0
C213 C 0.33573 0.90586 0.44704 0.0
O214 O 0.40255 5e-05 0.42629 0.0
O215 O 0.35707 -0.00063 0.43828 0.0
O216 O 0.3073 0.9131 0.44426 0.0
O217 O 0.36256 0.91512 0.43863 0.0
C218 C 0.34852 0.90984 0.40494 0.0
O219 O 0.26763 0.91182 0.42106 0.0
O220 O 0.30397 0.97593 0.41726 0.0
In221 In 0.08767 0.42505 0.42343 0.0
O222 O 0.11092 0.46703 0.40625 0.0
O223 O 0.15284 0.45435 0.41588 0.0
C224 C 0.01722 0.4234 0.42939 0.0
C225 C 0.06955 0.35487 0.41142 0.0
C226 C 0.11938 0.45352 0.44629 0.0
O227 O 0.0466 0.45373 0.42385 0.0
O228 O 0.02217 0.39289 0.43099 0.0
O229 O 0.1059 0.41625 0.44328 0.0
O230 O 0.11918 0.476 0.43758 0.0
C231 C 0.14654 0.47138 0.40665 0.0
O232 O 0.08848 0.36469 0.42177 0.0
O233 O 0.05761 0.37899 0.40768 0.0
Zn234 Zn 0.01946 0.02123 0.12774 0.0
Zn235 Zn 0.02431 0.02501 0.16921 0.0
Zn236 Zn 0.02151 0.02188 0.14896 0.0
C237 C 0.0223 0.95536 0.16499 0.0
C238 C 0.09223 0.09165 0.164 0.0
O239 O 0.98945 0.05546 0.14366 0.0
O240 O 0.02174 0.07487 0.12562 0.0
C241 C 0.96228 0.94355 0.13413 0.0
O242 O 0.00152 0.95916 0.15606 0.0
O243 O 0.04621 0.98684 0.17131 0.0
O244 O 0.06202 0.08529 0.17069 0.0
O245 O 0.08627 0.06573 0.15521 0.0
O246 O 0.96519 0.9695 0.12612 0.0
O247 O 0.98699 0.95591 0.14354 0.0
O248 O 0.08675 0.05321 0.14268 0.0
O249 O 0.0707 0.01912 0.12494 0.0
C250 C 0.09775 0.04155 0.13282 0.0
O251 O 0.97734 0.04091 0.15585 0.0
O252 O 0.96588 0.00452 0.17303 0.0
C253 C 0.00011 0.07874 0.13393 0.0
C254 C 0.95548 0.0239 0.1657 0.0
Zn255 Zn 0.01238 0.01935 0.34036 0.0
Zn256 Zn 0.01421 0.02459 0.38323 0.0
Zn257 Zn 0.0122 0.02048 0.36056 0.0
C258 C 0.04317 0.10444 0.37578 0.0
C259 C 0.93177 0.96998 0.37664 0.0
O260 O 0.03349 0.97819 0.35389 0.0
O261 O 0.98873 0.95869 0.3386 0.0
C262 C 0.08044 0.08747 0.34414 0.0
O263 O 0.04282 0.08768 0.36522 0.0
O264 O 0.02944 0.08235 0.38543 0.0
O265 O 0.95578 0.9811 0.38592 0.0
O266 O 0.94624 0.98462 0.36573 0.0
O267 O 0.072 0.05636 0.33757 0.0
O268 O 0.05622 0.08365 0.35324 0.0
O269 O 0.94845 0.99869 0.35309 0.0
O270 O 0.97667 0.04341 0.33789 0.0
C271 C 0.9449 0.01943 0.34405 0.0
O272 O 0.04639 0.98912 0.36645 0.0
O273 O 0.05845 0.01155 0.3859 0.0
C274 C 0.013 0.95243 0.3451 0.0
C275 C 0.06472 0.9935 0.37697 0.0
Zn276 Zn 0.02867 0.01769 0.88872 0.0
Zn277 Zn 0.03112 0.01302 0.84498 0.0
Zn278 Zn 0.02945 0.01218 0.86565 0.0
C279 C 0.03362 0.08235 0.84868 0.0
C280 C 0.96025 0.94549 0.8492 0.0
O281 O 0.06116 0.97941 0.87205 0.0
O282 O 0.04472 0.97549 0.89204 0.0
C283 C 0.08104 0.09706 0.88097 0.0
O284 O 0.04888 0.07586 0.85863 0.0
O285 O 0.01473 0.05351 0.84097 0.0
O286 O 0.98978 0.95444 0.84183 0.0
O287 O 0.96616 0.96846 0.85881 0.0
O288 O 0.07137 0.07602 0.89087 0.0
O289 O 0.0654 0.0792 0.87044 0.0
O290 O 0.96317 0.9801 0.871 0.0
O291 O 0.97057 0.00383 0.89028 0.0
C292 C 0.9476 0.98497 0.88113 0.0
O293 O 0.07163 0.98993 0.85908 0.0
O294 O 0.09032 0.03202 0.84308 0.0
C295 C 0.06022 0.96574 0.88314 0.0
C296 C 0.09672 0.00867 0.84997 0.0
Zn297 Zn 0.01213 0.03046 0.69542 0.0
Zn298 Zn 0.01093 0.02535 0.62905 0.0
Zn299 Zn 0.01187 0.0279 0.65193 0.0
C300 C 0.98607 0.94528 0.63664 0.0
C301 C 0.09271 0.08218 0.63607 0.0
O302 O 0.97904 0.05834 0.65975 0.0
O303 O 0.99735 0.04139 0.67701 0.0
C304 C 0.98195 0.96713 0.6723 0.0
O305 O 0.98764 0.96152 0.64739 0.0
O306 O 0.99607 0.96735 0.62694 0.0
O307 O 0.0698 0.06909 0.62654 0.0
O308 O 0.07727 0.06883 0.64698 0.0
O309 O -0.00025 0.00294 0.67725 0.0
O310 O 0.98217 0.96554 0.66036 0.0
O311 O 0.07488 0.06082 0.66006 0.0
O312 O 0.03873 0.04491 0.67716 0.0
C313 C 0.07413 0.06054 0.67202 0.0
O314 O 0.9713 0.05276 0.64668 0.0
O315 O 0.96601 0.03778 0.62657 0.0
C316 C 0.98049 0.0596 0.6717 0.0
C317 C 0.9552 0.05065 0.63589 0.0
Zn318 Zn 0.68398 0.35251 0.50364 0.0
Zn319 Zn 0.6846 0.34847 0.46084 0.0
Zn320 Zn 0.682 0.3517 0.4832 0.0
C321 C 0.76387 0.3777 0.46814 0.0
C322 C 0.6291 0.2691 0.46783 0.0
O323 O 0.63784 0.37068 0.48957 0.0
O324 O 0.62459 0.33166 0.50623 0.0
C325 C 0.75123 0.42104 0.49953 0.0
O326 O 0.74863 0.38494 0.47795 0.0
O327 O 0.74046 0.35663 0.45933 0.0
O328 O 0.638 0.29178 0.45829 0.0
O329 O 0.64641 0.28503 0.47838 0.0
O330 O 0.72175 0.41116 0.50697 0.0
O331 O 0.74582 0.39801 0.48994 0.0
O332 O 0.6619 0.2884 0.49059 0.0
O333 O 0.70573 0.31468 0.50609 0.0
C334 C 0.68184 0.28368 0.49963 0.0
O335 O 0.64918 0.38333 0.47696 0.0
O336 O 0.67652 0.39662 0.45809 0.0
C337 C 0.61478 0.35191 0.49905 0.0
C338 C 0.65649 0.40259 0.46648 0.0
Zn339 Zn 0.68275 0.36219 0.71904 0.0
Zn340 Zn 0.67325 0.32731 0.66229 0.0
Zn341 Zn 0.68234 0.35332 0.69631 0.0
C342 C 0.60793 0.30514 0.67847 0.0
C343 C 0.71615 0.41884 0.6739 0.0
O344 O 0.71879 0.32651 0.70352 0.0
O345 O 0.73133 0.355 0.72223 0.0
C346 C 0.60265 0.30241 0.71347 0.0
O347 O 0.61979 0.32366 0.68904 0.0
O348 O 0.62773 0.28926 0.67392 0.0
O349 O 0.7032 0.38991 0.66587 0.0
O350 O 0.71211 0.41171 0.68577 0.0
O351 O 0.62625 0.3158 0.72283 0.0
O352 O 0.61731 0.31613 0.70252 0.0
O353 O 0.71165 0.421 0.69905 0.0
O354 O 0.69118 0.4186 0.71853 0.0
C355 C 0.70738 0.43895 0.7087 0.0
O356 O 0.71149 0.31868 0.69028 0.0
O357 O 0.72527 0.35209 0.67279 0.0
C358 C 0.73797 0.33489 0.71402 0.0
C359 C 0.72389 0.32281 0.67894 0.0
Zn360 Zn 0.69006 0.36344 0.21497 0.0
Zn361 Zn 0.68503 0.36274 0.17077 0.0
Zn362 Zn 0.68882 0.36484 0.19134 0.0
C363 C 0.69361 0.43482 0.1746 0.0
C364 C 0.61482 0.29883 0.1753 0.0
O365 O 0.72 0.3297 0.1968 0.0
O366 O 0.71324 0.32718 0.21734 0.0
C367 C 0.73573 0.44632 0.20767 0.0
O368 O 0.71238 0.42875 0.18372 0.0
O369 O 0.66822 0.40431 0.16823 0.0
O370 O 0.64279 0.30559 0.16758 0.0
O371 O 0.62359 0.32227 0.18497 0.0
O372 O 0.72691 0.42344 0.21715 0.0
O373 O 0.7227 0.43065 0.19678 0.0
O374 O 0.6235 0.33454 0.1974 0.0
O375 O 0.63032 0.34061 0.21791 0.0
C376 C 0.60754 0.33016 0.20836 0.0
O377 O 0.73031 0.34304 0.18435 0.0
O378 O 0.742 0.37758 0.16676 0.0
C379 C 0.72456 0.31693 0.20756 0.0
C380 C 0.75155 0.35796 0.17428 0.0
Zn381 Zn 0.68126 0.34306 0.9985 0.0
Zn382 Zn 0.6864 0.34212 0.95491 0.0
Zn383 Zn 0.6855 0.34384 0.97825 0.0
C384 C 0.65077 0.2603 0.96269 0.0
C385 C 0.76863 0.38931 0.96249 0.0
O386 O 0.66769 0.3897 0.98459 0.0
O387 O 0.70365 0.40196 1.00187 0.0
C388 C 0.61476 0.27569 0.99452 0.0
O389 O 0.65119 0.27717 0.97321 0.0
O390 O 0.66653 0.28229 0.9531 0.0
O391 O 0.74638 0.38145 0.95291 0.0
O392 O 0.75205 0.37504 0.97323 0.0
O393 O 0.62086 0.30705 1.00054 0.0
O394 O 0.64049 0.28035 0.98577 0.0
O395 O 0.74733 0.36344 0.98614 0.0
O396 O 0.7178 0.31986 1.00159 0.0
C397 C 0.75003 0.34334 0.9955 0.0
O398 O 0.65575 0.37901 0.97204 0.0
O399 O 0.64775 0.36282 0.95197 0.0
C400 C 0.6847 0.41221 0.99433 0.0
C401 C 0.64139 0.37979 0.96119 0.0
Zn402 Zn 0.32964 0.68973 0.84669 0.0
Zn403 Zn 0.35534 0.67217 0.78992 0.0
Zn404 Zn 0.34599 0.68488 0.81251 0.0
C405 C 0.43415 0.71503 0.80106 0.0
C406 C 0.30546 0.59475 0.80015 0.0
O407 O 0.30437 0.71125 0.81269 0.0
O408 O 0.32348 0.7026 0.83033 0.0
C409 C 0.41544 0.73818 0.83471 0.0
O410 O 0.41389 0.71761 0.81037 0.0
O411 O 0.41549 0.69547 0.79135 0.0
O412 O 0.32031 0.61173 0.78979 0.0
O413 O 0.31295 0.61677 0.81009 0.0
O414 O 0.39057 0.72708 0.84393 0.0
O415 O 0.40408 0.72509 0.82337 0.0
O416 O 0.31844 0.62518 0.82346 0.0
O417 O 0.31133 0.63054 0.84429 0.0
C418 C 0.3084 0.60951 0.83462 0.0
O419 O 0.31863 0.71447 0.80064 0.0
O420 O 0.33399 0.70475 0.78148 0.0
C421 C 0.3 0.71055 0.82442 0.0
C422 C 0.31866 0.71993 0.78873 0.0
Zn423 Zn 0.36554 0.67813 0.05219 0.0
Zn424 Zn 0.35688 0.73279 0.99655 0.0
Zn425 Zn 0.36377 0.69532 0.0295 0.0
C426 C 0.29385 0.69185 0.0144 0.0
C427 C 0.40044 0.77863 0.01766 0.0
O428 O 0.39971 0.66404 0.02851 0.0
O429 O 0.40105 0.65423 0.04884 0.0
C430 C 0.28252 0.63604 0.04503 0.0
O431 O 0.30102 0.66972 0.02193 0.0
O432 O 0.32298 0.72834 0.01245 0.0
O433 O 0.36432 0.76158 0.01323 0.0
O434 O 0.40417 0.76249 0.0277 0.0
O435 O 0.30532 0.64104 0.05431 0.0
O436 O 0.29855 0.65458 0.03468 0.0
O437 O 0.39333 0.75381 0.04055 0.0
O438 O 0.39089 0.73331 0.06001 0.0
C439 C 0.39992 0.762 0.05229 0.0
O440 O 0.38737 0.67048 0.01548 0.0
O441 O 0.37665 0.6902 0.99658 0.0
C442 C 0.41167 0.65134 0.03787 0.0
C443 C 0.38767 0.66948 1.0034 0.0
Zn444 Zn 0.34297 0.6786 0.55422 0.0
Zn445 Zn 0.34483 0.68333 0.50712 0.0
Zn446 Zn 0.3444 0.68277 0.52976 0.0
C447 C 0.37539 0.76391 0.51252 0.0
C448 C 0.26436 0.63234 0.51197 0.0
O449 O 0.37915 0.65209 0.53561 0.0
O450 O 0.37007 0.64567 0.55607 0.0
C451 C 0.38418 0.76222 0.54765 0.0
O452 O 0.3658 0.74771 0.52352 0.0
O453 O 0.37264 0.74187 0.50331 0.0
O454 O 0.28664 0.65232 0.50284 0.0
O455 O 0.28009 0.63891 0.52303 0.0
O456 O 0.37591 0.73871 0.55695 0.0
O457 O 0.3732 0.74725 0.53656 0.0
O458 O 0.27867 0.64805 0.53593 0.0
O459 O 0.28254 0.65179 0.55653 0.0
C460 C 0.261 0.64144 0.54672 0.0
O461 O 0.38885 0.66327 0.52279 0.0
O462 O 0.37581 0.65673 0.50259 0.0
C463 C 0.38392 0.63869 0.54621 0.0
C464 C 0.39578 0.65461 0.51169 0.0
Zn465 Zn 0.35259 0.68573 0.29475 0.0
Zn466 Zn 0.35258 0.68998 0.36039 0.0
Zn467 Zn 0.35261 0.68984 0.31699 0.0
C468 C 0.41436 0.71775 0.33698 0.0
C469 C 0.31913 0.62827 0.33708 0.0
O470 O 0.31539 0.71752 0.31185 0.0
O471 O 0.30375 0.69297 0.29262 0.0
C472 C 0.43258 0.7448 0.30126 0.0
O473 O 0.41545 0.71944 0.32503 0.0
O474 O 0.37912 0.70367 0.34211 0.0
O475 O 0.33859 0.66387 0.34212 0.0
O476 O 0.31929 0.62708 0.32514 0.0
O477 O 0.40882 0.73297 0.29192 0.0
O478 O 0.41836 0.72924 0.31209 0.0
O479 O 0.32363 0.62268 0.31227 0.0
O480 O 0.34495 0.6302 0.29272 0.0
C481 C 0.32819 0.60725 0.30205 0.0
O482 O 0.32484 0.72488 0.32492 0.0
O483 O 0.33817 0.70332 0.34216 0.0
C484 C 0.29614 0.71059 0.30141 0.0
C485 C 0.32607 0.72593 0.33689 0.0
H486 H 0.19972 0.25003 0.21679 0.0
H487 H 0.26334 0.18361 0.22518 0.0
H488 H 0.24299 0.1492 0.20465 0.0
H489 H 0.11383 0.16655 0.2033 0.0
H490 H 0.106 0.19678 0.19173 0.0
H491 H 0.13117 0.22015 0.20617 0.0
H492 H 0.19347 0.27627 0.19364 0.0
H493 H 0.16871 0.25201 0.17914 0.0
H494 H 0.21954 0.26107 0.18259 0.0
H495 H 0.2105 0.1172 0.18405 0.0
H496 H 0.15836 0.08146 0.16753 0.0
H497 H 0.11522 0.16763 0.17262 0.0
C498 C 0.20976 0.22862 0.21422 0.0
C499 C 0.23317 0.21957 0.22256 0.0
C500 C 0.24521 0.19089 0.21896 0.0
C501 C 0.23429 0.1716 0.20723 0.0
C502 C 0.21129 0.18127 0.19918 0.0
C503 C 0.19868 0.2087 0.20261 0.0
C504 C 0.16976 0.20977 0.19299 0.0
C505 C 0.12772 0.19755 0.1989 0.0
C506 C 0.18904 0.25232 0.18672 0.0
C507 C 0.16664 0.17738 0.1839 0.0
C508 C 0.19189 0.16224 0.18739 0.0
C509 C 0.19115 0.12929 0.18109 0.0
C510 C 0.16183 0.10946 0.17158 0.0
C511 C 0.13328 0.12222 0.16873 0.0
C512 C 0.13751 0.15806 0.17443 0.0
H513 H 0.86338 0.06786 0.2241 0.0
H514 H 0.74628 0.96168 0.21364 0.0
H515 H 0.77458 0.96131 0.19282 0.0
H516 H 0.88951 0.11794 0.19317 0.0
H517 H 0.94347 0.13489 0.19485 0.0
H518 H 0.9128 0.12941 0.20845 0.0
H519 H 0.93364 0.07981 0.21855 0.0
H520 H 0.96515 0.08621 0.20516 0.0
H521 H 0.92588 0.03523 0.20992 0.0
H522 H 0.81782 0.96839 0.17395 0.0
H523 H 0.87424 0.97725 0.15998 0.0
H524 H 0.96202 0.0799 0.18239 0.0
C525 C 0.84359 0.04467 0.2174 0.0
C526 C 0.80264 0.01476 0.22049 0.0
C527 C 0.77781 0.98483 0.21149 0.0
C528 C 0.79348 0.98466 0.19959 0.0
C529 C 0.83392 0.01487 0.19679 0.0
C530 C 0.8587 0.04414 0.20549 0.0
C531 C 0.90209 0.071 0.2006 0.0
C532 C 0.91257 0.11598 0.19919 0.0
C533 C 0.93352 0.06783 0.20905 0.0
C534 C 0.8984 0.05127 0.18797 0.0
C535 C 0.8586 0.01949 0.1858 0.0
C536 C 0.84881 0.99388 0.17537 0.0
C537 C 0.88088 -0.00058 0.16737 0.0
C538 C 0.92199 0.03027 0.16988 0.0
C539 C 0.93047 0.0575 0.17997 0.0
H540 H 0.07446 0.84501 0.21696 0.0
H541 H 0.94313 0.77618 0.22424 0.0
H542 H 0.92991 0.79786 0.20381 0.0
H543 H 0.07439 0.93063 0.20512 0.0
H544 H 0.11431 0.94324 0.19371 0.0
H545 H 0.11232 0.91545 0.20757 0.0
H546 H 0.11021 0.85761 0.1938 0.0
H547 H 0.11121 0.88505 0.17986 0.0
H548 H 0.07033 0.8326 0.18221 0.0
H549 H 0.93106 0.83202 0.18364 0.0
H550 H 0.94696 0.88635 0.16794 0.0
H551 H 0.07736 0.93641 0.17439 0.0
C552 C 0.04296 0.83392 0.21409 0.0
C553 C 0.00977 0.80875 0.22205 0.0
C554 C 0.96895 0.7956 0.21822 0.0
C555 C 0.96113 0.80728 0.20657 0.0
C556 C 0.99451 0.83242 0.1989 0.0
C557 C 0.03469 0.8462 0.20261 0.0
C558 C 0.06519 0.87822 0.19364 0.0
C559 C 0.09315 0.9193 0.20041 0.0
C560 C 0.09074 0.86241 0.18698 0.0
C561 C 0.03595 0.88163 0.18464 0.0
C562 C 0.99529 0.85378 0.18753 0.0
C563 C 0.96276 0.85354 0.18115 0.0
C564 C 0.972 0.88422 0.17215 0.0
C565 C 0.01333 0.91513 0.16993 0.0
C566 C 0.04556 0.91248 0.17577 0.0
H567 H 0.17454 0.21282 0.28382 0.0
H568 H 0.29399 0.23797 0.29709 0.0
H569 H 0.26389 0.21138 0.318 0.0
H570 H 0.1416 0.23978 0.31283 0.0
H571 H 0.08881 0.19914 0.31096 0.0
H572 H 0.12053 0.223 0.29741 0.0
H573 H 0.10566 0.15161 0.28937 0.0
H574 H 0.07312 0.1277 0.30269 0.0
H575 H 0.11528 0.1191 0.29951 0.0
H576 H 0.21845 0.17504 0.33679 0.0
H577 H 0.16141 0.12778 0.35078 0.0
H578 H 0.07335 0.13091 0.32556 0.0
C579 C 0.19448 0.2129 0.29113 0.0
C580 C 0.23658 0.22726 0.28882 0.0
C581 C 0.2616 0.22694 0.29865 0.0
C582 C 0.24483 0.21224 0.31058 0.0
C583 C 0.20317 0.19862 0.31257 0.0
C584 C 0.17839 0.19883 0.30307 0.0
C585 C 0.13409 0.18018 0.30728 0.0
C586 C 0.12047 0.21247 0.30711 0.0
C587 C 0.10537 0.14241 0.29924 0.0
C588 C 0.13733 0.16798 0.32052 0.0
C589 C 0.17751 0.17937 0.3235 0.0
C590 C 0.18711 0.16704 0.3347 0.0
C591 C 0.15465 0.14069 0.3427 0.0
C592 C 0.11334 0.12733 0.33947 0.0
C593 C 0.10489 0.14255 0.32852 0.0
H594 H 0.84302 0.07686 0.29052 0.0
H595 H 0.77112 0.94579 0.28275 0.0
H596 H 0.79215 0.93082 0.30297 0.0
H597 H 0.92749 0.07401 0.30338 0.0
H598 H 0.93894 0.11335 0.31489 0.0
H599 H 0.91366 0.1128 0.3006 0.0
H600 H 0.8544 0.11115 0.3135 0.0
H601 H 0.8792 0.11054 0.32784 0.0
H602 H 0.82692 0.07054 0.32474 0.0
H603 H 0.82521 0.92991 0.3233 0.0
H604 H 0.87643 0.94409 0.33991 0.0
H605 H 0.92726 0.07515 0.33449 0.0
C606 C 0.83141 0.04504 0.29315 0.0
C607 C 0.80536 0.01253 0.28506 0.0
C608 C 0.79127 0.97128 0.28876 0.0
C609 C 0.80264 0.96239 0.30031 0.0
C610 C 0.82822 0.99506 0.30812 0.0
C611 C 0.84291 0.03561 0.30461 0.0
C612 C 0.8737 0.0651 0.31404 0.0
C613 C 0.91594 0.09292 0.30786 0.0
C614 C 0.85757 0.09085 0.32041 0.0
C615 C 0.87506 0.03487 0.32315 0.0
C616 C 0.84776 0.99456 0.31978 0.0
C617 C 0.84619 0.96134 0.32617 0.0
C618 C 0.87498 0.96958 0.33574 0.0
C619 C 0.90519 0.01065 0.33863 0.0
C620 C 0.90369 0.04348 0.33268 0.0
H621 H 0.9641 0.78768 0.29402 0.0
H622 H 0.09542 0.85388 0.28672 0.0
H623 H 0.10798 0.88937 0.30705 0.0
H624 H 0.96196 0.87244 0.30547 0.0
H625 H 0.9223 0.84455 0.31694 0.0
H626 H 0.92492 0.81852 0.30323 0.0
H627 H 0.9286 0.76427 0.31731 0.0
H628 H 0.92696 0.79098 0.33109 0.0
H629 H 0.96865 0.78098 0.3289 0.0
H630 H 0.10605 0.92279 0.32705 0.0
H631 H 0.08905 0.96106 0.34242 0.0
H632 H 0.95906 0.87677 0.33611 0.0
C633 C 0.99548 0.80899 0.29688 0.0
C634 C 0.02884 0.81791 0.28893 0.0
C635 C 0.06947 0.84676 0.29273 0.0
C636 C 0.07693 0.86662 0.30433 0.0
C637 C 0.04337 0.85755 0.31198 0.0
C638 C 0.00336 0.8299 0.30831 0.0
C639 C 0.97247 0.83071 0.3172 0.0
C640 C 0.94377 0.84228 0.3103 0.0
C641 C 0.94771 0.78926 0.32403 0.0
C642 C 0.00127 0.86442 0.32609 0.0
C643 C 0.04209 0.87835 0.32324 0.0
C644 C 0.07422 0.91173 0.3295 0.0
C645 C 0.06436 0.93308 0.33833 0.0
C646 C 0.02281 0.9215 0.34048 0.0
C647 C 0.99105 0.88556 0.33478 0.0
H648 H 0.81884 0.8587 0.79191 0.0
H649 H 0.79926 0.73841 0.80207 0.0
H650 H 0.82854 0.76521 0.82302 0.0
H651 H 0.91396 0.9161 0.80543 0.0
H652 H 0.90634 0.95754 0.81046 0.0
H653 H 0.87839 0.92667 0.79726 0.0
H654 H 0.80972 0.90978 0.80801 0.0
H655 H 0.83772 0.94011 0.8214 0.0
H656 H 0.79803 0.88696 0.82337 0.0
H657 H 0.86976 0.80821 0.84148 0.0
H658 H 0.92215 0.8638 0.85485 0.0
H659 H 0.91138 0.95458 0.83302 0.0
C660 C 0.82005 0.83775 0.79861 0.0
C661 C 0.80687 0.7965 0.79538 0.0
C662 C 0.80918 0.77014 0.80437 0.0
C663 C 0.82547 0.78504 0.81631 0.0
C664 C 0.8386 0.82612 0.81917 0.0
C665 C 0.83584 0.852 0.81054 0.0
C666 C 0.85563 0.89576 0.81534 0.0
C667 C 0.89066 0.92575 0.80661 0.0
C668 C 0.82333 0.90891 0.81714 0.0
C669 C 0.87194 0.8911 0.82778 0.0
C670 C 0.86113 0.85055 0.82997 0.0
C671 C 0.87727 0.83978 0.84007 0.0
C672 C 0.90666 0.87141 0.84771 0.0
C673 C 0.91928 0.91304 0.84521 0.0
C674 C 0.90048 0.92272 0.83546 0.0
H675 H 0.2532 0.05988 0.79693 0.0
H676 H 0.18488 0.92915 0.78862 0.0
H677 H 0.15316 0.91498 0.80956 0.0
H678 H 0.26626 0.05112 0.83147 0.0
H679 H 0.25774 0.09316 0.83494 0.0
H680 H 0.28167 0.09254 0.8204 0.0
H681 H 0.22582 0.09888 0.80801 0.0
H682 H 0.20266 0.10056 0.82249 0.0
H683 H 0.17218 0.06232 0.81092 0.0
H684 H 0.12196 0.91549 0.83019 0.0
H685 H 0.08609 0.93195 0.84657 0.0
H686 H 0.17294 0.06198 0.84146 0.0
C687 C 0.23234 0.02824 0.79967 0.0
C688 C 0.22173 0.9956 0.79121 0.0
C689 C 0.19345 0.95465 0.79497 0.0
C690 C 0.17564 0.94624 0.80692 0.0
C691 C 0.18629 0.9791 0.81504 0.0
C692 C 0.21371 0.01938 0.81151 0.0
C693 C 0.21512 0.04954 0.82115 0.0
C694 C 0.25774 0.07297 0.82736 0.0
C695 C 0.2032 0.07954 0.8153 0.0
C696 C 0.18272 0.02013 0.8303 0.0
C697 C 0.16748 0.9795 0.82687 0.0
C698 C 0.13423 0.94712 0.83314 0.0
C699 C 0.11429 0.95663 0.84257 0.0
C700 C 0.12722 0.99815 0.84538 0.0
C701 C 0.16329 0.02996 0.8397 0.0
H702 H 0.05772 0.21427 0.79118 0.0
H703 H 0.96068 0.23146 0.80649 0.0
H704 H 0.96878 0.20565 0.82698 0.0
H705 H 0.02898 0.12152 0.80548 0.0
H706 H 0.08084 0.1321 0.80801 0.0
H707 H 0.07026 0.15684 0.7954 0.0
H708 H 0.12565 0.22806 0.8041 0.0
H709 H 0.13554 0.20325 0.81695 0.0
H710 H 0.12155 0.2418 0.81995 0.0
H711 H 0.98128 0.16882 0.84485 0.0
H712 H 0.99271 0.11996 0.85734 0.0
H713 H 0.08369 0.13058 0.8306 0.0
C714 C 0.03847 0.21311 0.79888 0.0
C715 C 0.00846 0.22472 0.79725 0.0
C716 C 0.98385 0.22266 0.80755 0.0
C717 C 0.98851 0.20838 0.81924 0.0
C718 C 0.01842 0.19702 0.82052 0.0
C719 C 0.04301 0.19939 0.81058 0.0
C720 C 0.07026 0.18196 0.81392 0.0
C721 C 0.06205 0.14597 0.8052 0.0
C722 C 0.11596 0.2158 0.81372 0.0
C723 C 0.05576 0.16738 0.82711 0.0
C724 C 0.02647 0.17708 0.8309 0.0
C725 C 0.00504 0.16215 0.84214 0.0
C726 C 0.01206 0.13485 0.84928 0.0
C727 C 0.04015 0.1229 0.84511 0.0
C728 C 0.06352 0.1409 0.83424 0.0
H729 H 0.80081 0.83278 0.71913 0.0
H730 H 0.89252 0.82421 0.74146 0.0
H731 H 0.94284 0.85559 0.72439 0.0
H732 H 0.83215 0.81281 0.68874 0.0
H733 H 0.82402 0.8501 0.68061 0.0
H734 H 0.79357 0.82412 0.69421 0.0
H735 H 0.81632 0.8945 0.70478 0.0
H736 H 0.84605 0.92052 0.69113 0.0
H737 H 0.87052 0.93167 0.70623 0.0
H738 H 0.98479 0.89166 0.70573 0.0
H739 H 0.01731 0.93647 0.68736 0.0
H740 H 0.8997 0.92191 0.6767 0.0
C741 C 0.83143 0.8374 0.72038 0.0
C742 C 0.84266 0.82594 0.73164 0.0
C743 C 0.88316 0.8328 0.73295 0.0
C744 C 0.91193 0.85029 0.72326 0.0
C745 C 0.89989 0.86089 0.71225 0.0
C746 C 0.86082 0.85521 0.71078 0.0
C747 C 0.857 0.87224 0.69832 0.0
C748 C 0.82476 0.83775 0.68998 0.0
C749 C 0.84689 0.90679 0.70023 0.0
C750 C 0.90021 0.88899 0.69316 0.0
C751 C 0.92424 0.88152 0.7013 0.0
C752 C 0.9661 0.89691 0.69914 0.0
C753 C 0.98426 0.92192 0.68864 0.0
C754 C 0.96053 0.93093 0.68041 0.0
C755 C 0.91787 0.91357 0.68254 0.0
H756 H 0.18608 0.98657 0.7185 0.0
H757 H 0.22326 0.09877 0.7395 0.0
H758 H 0.19584 0.12352 0.72281 0.0
H759 H 0.20924 0.03287 0.68775 0.0
H760 H 0.16492 0.99033 0.68047 0.0
H761 H 0.18827 0.98144 0.6939 0.0
H762 H 0.11826 0.94731 0.70567 0.0
H763 H 0.09478 0.95507 0.69211 0.0
H764 H 0.09072 0.97488 0.70703 0.0
H765 H 0.16148 0.1348 0.70434 0.0
H766 H 0.11777 0.12877 0.68623 0.0
H767 H 0.10487 0.01084 0.67687 0.0
C768 C 0.18832 0.01628 0.71961 0.0
C769 C 0.20681 0.04072 0.73033 0.0
C770 C 0.20913 0.07942 0.7314 0.0
C771 C 0.1939 0.0939 0.72192 0.0
C772 C 0.1765 0.06941 0.71139 0.0
C773 C 0.17324 0.03123 0.71022 0.0
C774 C 0.15155 0.01024 0.69819 0.0
C775 C 0.18022 0.00332 0.68957 0.0
C776 C 0.11145 0.96948 0.70092 0.0
C777 C 0.14278 0.04239 0.69283 0.0
C778 C 0.1577 0.07646 0.70055 0.0
C779 C 0.15047 0.10873 0.69808 0.0
C780 C 0.1261 0.10538 0.68771 0.0
C781 C 0.10983 0.07035 0.67989 0.0
C782 C 0.11893 0.03892 0.68235 0.0
H783 H 0.04009 0.23377 0.722 0.0
H784 H 0.92317 0.15031 0.73974 0.0
H785 H 0.90264 0.10446 0.72142 0.0
H786 H 0.00249 0.21917 0.6897 0.0
H787 H 0.04721 0.21985 0.68333 0.0
H788 H 0.05175 0.24853 0.69732 0.0
H789 H 0.08272 0.21024 0.70915 0.0
H790 H 0.07898 0.18216 0.69514 0.0
H791 H 0.05499 0.15464 0.70933 0.0
H792 H 0.89611 0.06515 0.70194 0.0
H793 H 0.90779 0.03184 0.6837 0.0
H794 H 0.02857 0.13931 0.67845 0.0
C795 C 0.01007 0.20601 0.72195 0.0
C796 C 0.98317 0.19571 0.73229 0.0
C797 C 0.94436 0.15881 0.73196 0.0
C798 C 0.93222 0.13271 0.72154 0.0
C799 C 0.95927 0.1437 0.71148 0.0
C800 C 0.99762 0.17917 0.71165 0.0
C801 C 0.02217 0.1818 0.70008 0.0
C802 C 0.03144 0.21959 0.69214 0.0
C803 C 0.06205 0.18221 0.70364 0.0
C804 C 0.99189 0.14202 0.69352 0.0
C805 C 0.95549 0.12084 0.70016 0.0
C806 C 0.92408 0.08183 0.6965 0.0
C807 C 0.93069 0.06329 0.68606 0.0
C808 C 0.96822 0.08387 0.67941 0.0
C809 C -0.0012 0.12397 0.68304 0.0
H810 H 0.88221 0.5157 0.55834 0.0
H811 H 0.8907 0.631 0.54759 0.0
H812 H 0.8652 0.60281 0.52648 0.0
H813 H 0.91166 0.49249 0.52775 0.0
H814 H 0.87562 0.43801 0.52924 0.0
H815 H 0.89883 0.46882 0.54299 0.0
H816 H 0.82648 0.44482 0.55237 0.0
H817 H 0.80341 0.41319 0.53884 0.0
H818 H 0.78947 0.45081 0.54329 0.0
H819 H 0.83119 0.55906 0.50741 0.0
H820 H 0.78512 0.50184 0.49337 0.0
H821 H 0.80187 0.41655 0.51615 0.0
C822 C 0.87905 0.53519 0.55152 0.0
C823 C 0.88837 0.57554 0.55462 0.0
C824 C 0.88364 0.59995 0.54543 0.0
C825 C 0.86958 0.58433 0.53338 0.0
C826 C 0.86089 0.54443 0.5306 0.0
C827 C 0.8653 0.52018 0.53946 0.0
C828 C 0.85049 0.47716 0.53455 0.0
C829 C 0.8863 0.46864 0.53358 0.0
C830 C 0.81538 0.44461 0.54274 0.0
C831 C 0.83529 0.48029 0.52173 0.0
C832 C 0.84235 0.51961 0.51948 0.0
C833 C 0.82656 0.52852 0.5089 0.0
C834 C 0.80091 0.496 0.50084 0.0
C835 C 0.79145 0.45526 0.50343 0.0
C836 C 0.81048 0.44783 0.51364 0.0
H837 H 0.52915 0.39886 0.55783 0.0
H838 H 0.41463 0.28535 0.5504 0.0
H839 H 0.43885 0.28396 0.52902 0.0
H840 H 0.54399 0.44316 0.52609 0.0
H841 H 0.59901 0.46449 0.52663 0.0
H842 H 0.57082 0.45914 0.54081 0.0
H843 H 0.59956 0.41589 0.55083 0.0
H844 H 0.62862 0.4223 0.53686 0.0
H845 H 0.59363 0.37123 0.54268 0.0
H846 H 0.47866 0.29078 0.50944 0.0
H847 H 0.53349 0.30054 0.49468 0.0
H848 H 0.62071 0.41084 0.51441 0.0
C849 C 0.509 0.37386 0.55167 0.0
C850 C 0.47002 0.34217 0.55578 0.0
C851 C 0.44469 0.30989 0.54746 0.0
C852 C 0.458 0.30912 0.53525 0.0
C853 C 0.49652 0.34108 0.53146 0.0
C854 C 0.52174 0.37271 0.53947 0.0
C855 C 0.56327 0.4012 0.53358 0.0
C856 C 0.56963 0.44457 0.53166 0.0
C857 C 0.59831 0.4027 0.54145 0.0
C858 C 0.55824 0.37969 0.5212 0.0
C859 C 0.51915 0.34558 0.52001 0.0
C860 C 0.50892 0.31803 0.51008 0.0
C861 C 0.54005 0.32408 0.50162 0.0
C862 C 0.5807 0.35736 0.50315 0.0
C863 C 0.5893 0.3865 0.51268 0.0
H864 H 0.72669 0.1702 0.5525 0.0
H865 H 0.59437 0.09977 0.55786 0.0
H866 H 0.58409 0.12276 0.53727 0.0
H867 H 0.7279 0.25612 0.54053 0.0
H868 H 0.76942 0.26971 0.52964 0.0
H869 H 0.76568 0.24106 0.54348 0.0
H870 H 0.7658 0.18426 0.52974 0.0
H871 H 0.76867 0.21261 0.51582 0.0
H872 H 0.72765 0.15994 0.51764 0.0
H873 H 0.58796 0.15923 0.51735 0.0
H874 H 0.60589 0.21476 0.50196 0.0
H875 H 0.73535 0.26379 0.50976 0.0
C876 C 0.69562 0.15894 0.54916 0.0
C877 C 0.66131 0.13299 0.55667 0.0
C878 C 0.62107 0.11971 0.55221 0.0
C879 C 0.61491 0.1322 0.54047 0.0
C880 C 0.64933 0.15822 0.53329 0.0
C881 C 0.68896 0.17189 0.53755 0.0
C882 C 0.72061 0.20462 0.52896 0.0
C883 C 0.74744 0.24527 0.53608 0.0
C884 C 0.74725 0.18943 0.52266 0.0
C885 C 0.6926 0.20852 0.51957 0.0
C886 C 0.65162 0.18045 0.52195 0.0
C887 C 0.61996 0.18081 0.51523 0.0
C888 C 0.63037 0.21216 0.50636 0.0
C889 C 0.67196 0.24304 0.50454 0.0
C890 C 0.70337 0.23987 0.51078 0.0
H891 H 0.89507 0.53871 0.62697 0.0
H892 H 0.82092 0.58641 0.61139 0.0
H893 H 0.77517 0.56106 0.62974 0.0
H894 H 0.81124 0.44622 0.63855 0.0
H895 H 0.83781 0.44469 0.65236 0.0
H896 H 0.86663 0.47038 0.63856 0.0
H897 H 0.90988 0.53689 0.65159 0.0
H898 H 0.88019 0.51148 0.66535 0.0
H899 H 0.88418 0.55891 0.66007 0.0
H900 H 0.73355 0.52504 0.6487 0.0
H901 H 0.69542 0.47396 0.66532 0.0
H902 H 0.79665 0.45117 0.66916 0.0
C903 C 0.86936 0.54404 0.62748 0.0
C904 C 0.86167 0.56462 0.61773 0.0
C905 C 0.82747 0.57065 0.61871 0.0
C906 C 0.80148 0.55673 0.62917 0.0
C907 C 0.81005 0.53689 0.63868 0.0
C908 C 0.84291 0.53016 0.63788 0.0
C909 C 0.84304 0.50469 0.64884 0.0
C910 C 0.83944 0.4641 0.64431 0.0
C911 C 0.88163 0.52949 0.65694 0.0
C912 C 0.80448 0.49715 0.6557 0.0
C913 C 0.78629 0.51666 0.64981 0.0
C914 C 0.74802 0.51051 0.6536 0.0
C915 C 0.72676 0.48193 0.66318 0.0
C916 C 0.74396 0.46015 0.66886 0.0
C917 C 0.78395 0.46919 0.66542 0.0
H918 H 0.50541 0.31068 0.61363 0.0
H919 H 0.49482 0.41219 0.62863 0.0
H920 H 0.52612 0.40771 0.64842 0.0
H921 H 0.48123 0.25181 0.64148 0.0
H922 H 0.51805 0.2352 0.63901 0.0
H923 H 0.49613 0.24711 0.62584 0.0
H924 H 0.56928 0.30011 0.61788 0.0
H925 H 0.59142 0.28795 0.63095 0.0
H926 H 0.60464 0.34054 0.62817 0.0
H927 H 0.55497 0.38953 0.66702 0.0
H928 H 0.58588 0.36386 0.68228 0.0
H929 H 0.57958 0.27547 0.65495 0.0
C930 C 0.51013 0.33228 0.62103 0.0
C931 C 0.49769 0.36182 0.61959 0.0
C932 C 0.5043 0.38946 0.6295 0.0
C933 C 0.52186 0.38702 0.6408 0.0
C934 C 0.53301 0.357 0.64201 0.0
C935 C 0.52799 0.33053 0.63233 0.0
C936 C 0.54285 0.30126 0.63601 0.0
C937 C 0.50745 0.25618 0.63556 0.0
C938 C 0.57921 0.30788 0.62776 0.0
C939 C 0.55656 0.3151 0.64932 0.0
C940 C 0.5504 0.34712 0.65262 0.0
C941 C 0.56019 0.36465 0.6645 0.0
C942 C 0.57755 0.34966 0.67314 0.0
C943 C 0.58532 0.31767 0.66983 0.0
C944 C 0.57412 0.29997 0.65778 0.0
H945 H 0.70012 0.2059 0.61532 0.0
H946 H 0.63556 0.08986 0.63535 0.0
H947 H 0.64759 0.12797 0.65526 0.0
H948 H 0.77838 0.26026 0.63806 0.0
H949 H 0.78001 0.30852 0.63564 0.0
H950 H 0.7652 0.272 0.62304 0.0
H951 H 0.69636 0.2716 0.62044 0.0
H952 H 0.71138 0.30868 0.63287 0.0
H953 H 0.66314 0.26068 0.63379 0.0
H954 H 0.66693 0.1804 0.67313 0.0
H955 H 0.68828 0.24136 0.68673 0.0
H956 H 0.74282 0.32136 0.65461 0.0
C957 C 0.68812 0.18842 0.62386 0.0
C958 C 0.66668 0.14492 0.62378 0.0
C959 C 0.65186 0.12324 0.6352 0.0
C960 C 0.65874 0.14462 0.64655 0.0
C961 C 0.6807 0.18764 0.64632 0.0
C962 C 0.69496 0.20918 0.63523 0.0
C963 C 0.71767 0.2552 0.63737 0.0
C964 C 0.763 0.27515 0.63328 0.0
C965 C 0.69583 0.2752 0.63073 0.0
C966 C 0.71396 0.25636 0.6514 0.0
C967 C 0.69255 0.21725 0.65646 0.0
C968 C 0.68394 0.21116 0.66924 0.0
C969 C 0.69641 0.24595 0.67692 0.0
C970 C 0.71722 0.28618 0.67175 0.0
C971 C 0.72709 0.29109 0.65889 0.0
H972 H 0.48976 0.2037 0.11618 0.0
H973 H 0.45881 0.08456 0.13142 0.0
H974 H 0.482 0.11609 0.15229 0.0
H975 H 0.58033 0.26206 0.13239 0.0
H976 H 0.57327 0.30563 0.1347 0.0
H977 H 0.5494 0.27191 0.12164 0.0
H978 H 0.47845 0.26029 0.12897 0.0
H979 H 0.50233 0.29319 0.1423 0.0
H980 H 0.46038 0.24117 0.1445 0.0
H981 H 0.51829 0.16246 0.17059 0.0
H982 H 0.56909 0.2199 0.18374 0.0
H983 H 0.57131 0.30759 0.15721 0.0
C984 C 0.48753 0.18419 0.12394 0.0
C985 C 0.47277 0.14178 0.12218 0.0
C986 C 0.47015 0.1172 0.13256 0.0
C987 C 0.48287 0.13476 0.14447 0.0
C988 C 0.49727 0.17677 0.14592 0.0
C989 C 0.49949 0.2011 0.13591 0.0
C990 C 0.51932 0.24596 0.13963 0.0
C991 C 0.55786 0.27294 0.13163 0.0
C992 C 0.48825 0.26103 0.1388 0.0
C993 C 0.5303 0.24352 0.15309 0.0
C994 C 0.5165 0.20323 0.15667 0.0
C995 C 0.52809 0.19398 0.16807 0.0
C996 C 0.5565 0.22673 0.1756 0.0
C997 C 0.57275 0.26793 0.17166 0.0
C998 C 0.55765 0.27627 0.16066 0.0
H999 H 0.84315 0.31534 0.11594 0.0
H1000 H 0.963 0.41294 0.12823 0.0
H1001 H 0.93379 0.4117 0.1491 0.0
H1002 H 0.78462 0.35065 0.13038 0.0
H1003 H 0.74254 0.30011 0.13432 0.0
H1004 H 0.77477 0.30645 0.12115 0.0
H1005 H 0.78993 0.25192 0.13064 0.0
H1006 H 0.75843 0.24636 0.14404 0.0
H1007 H 0.81125 0.2595 0.14614 0.0
H1008 H 0.88901 0.40551 0.16764 0.0
H1009 H 0.83235 0.3991 0.18106 0.0
H1010 H 0.74333 0.30312 0.15699 0.0
C1011 C 0.86339 0.33629 0.12304 0.0
C1012 C 0.90527 0.36444 0.12046 0.0
C1013 C 0.93075 0.39122 0.13002 0.0
C1014 C 0.9145 0.39043 0.14192 0.0
C1015 C 0.87295 0.36213 0.14417 0.0
C1016 C 0.84783 0.33552 0.13496 0.0
C1017 C 0.80362 0.31028 0.13931 0.0
C1018 C 0.77472 0.31734 0.13079 0.0
C1019 C 0.79002 0.26428 0.14008 0.0
C1020 C 0.80719 0.32833 0.15219 0.0
C1021 C 0.84756 0.35758 0.15498 0.0
C1022 C 0.85752 0.38185 0.16573 0.0
C1023 C 0.82526 0.3777 0.1734 0.0
C1024 C 0.78383 0.34955 0.17026 0.0
C1025 C 0.77495 0.32341 0.15987 0.0
H1026 H 0.64557 0.54601 0.12209 0.0
H1027 H 0.77394 0.59921 0.11165 0.0
H1028 H 0.7889 0.57943 0.1321 0.0
H1029 H 0.66174 0.56857 0.15634 0.0
H1030 H 0.6176 0.51956 0.16043 0.0
H1031 H 0.61805 0.5444 0.14597 0.0
H1032 H 0.60381 0.47925 0.13352 0.0
H1033 H 0.60223 0.45414 0.14794 0.0
H1034 H 0.63715 0.45825 0.13573 0.0
H1035 H 0.78904 0.5483 0.15279 0.0
H1036 H 0.77158 0.49707 0.16965 0.0
H1037 H 0.64305 0.46129 0.16638 0.0
C1038 C 0.6769 0.55406 0.12423 0.0
C1039 C 0.70862 0.57427 0.11533 0.0
C1040 C 0.74912 0.58355 0.11833 0.0
C1041 C 0.75805 0.57296 0.13 0.0
C1042 C 0.72612 0.55284 0.1386 0.0
C1043 C 0.6862 0.54289 0.13578 0.0
C1044 C 0.6565 0.51597 0.14587 0.0
C1045 C 0.63734 0.53848 0.15255 0.0
C1046 C 0.62299 0.47445 0.14044 0.0
C1047 C 0.6856 0.51072 0.15447 0.0
C1048 C 0.72591 0.53355 0.15038 0.0
C1049 C 0.75771 0.53084 0.15622 0.0
C1050 C 0.74767 0.50205 0.16592 0.0
C1051 C 0.70612 0.47583 0.16942 0.0
C1052 C 0.67519 0.48187 0.16408 0.0
H1053 H 0.45417 0.16742 0.04763 0.0
H1054 H 0.524 0.10842 0.05733 0.0
H1055 H 0.55958 0.12882 0.03693 0.0
H1056 H 0.44673 0.1478 0.0134 0.0
H1057 H 0.45478 0.19816 0.00975 0.0
H1058 H 0.42964 0.17307 0.02413 0.0
H1059 H 0.48364 0.23614 0.03684 0.0
H1060 H 0.50804 0.26158 0.0225 0.0
H1061 H 0.5377 0.25465 0.03447 0.0
H1062 H 0.59167 0.1603 0.01619 0.0
H1063 H 0.6267 0.21121 0.99929 0.0
H1064 H 0.53889 0.25268 1.00352 0.0
C1065 C 0.47645 0.15825 0.04533 0.0
C1066 C 0.48614 0.13608 0.05399 0.0
C1067 C 0.51618 0.12546 0.05082 0.0
C1068 C 0.53617 0.13646 0.03919 0.0
C1069 C 0.52607 0.15842 0.03083 0.0
C1070 C 0.4974 0.16982 0.03386 0.0
C1071 C 0.4964 0.19832 0.02404 0.0
C1072 C 0.45438 0.17811 0.01744 0.0
C1073 C 0.50711 0.24014 0.0298 0.0
C1074 C 0.52994 0.20234 0.01526 0.0
C1075 C 0.54573 0.17796 0.01909 0.0
C1076 C 0.57916 0.17905 0.013 0.0
C1077 C 0.59859 0.20767 1.00327 0.0
C1078 C 0.58508 0.23535 1.0 0.0
C1079 C 0.5491 0.23107 1.00564 0.0
H1080 H 0.85752 0.29731 0.05015 0.0
H1081 H 0.9306 0.42972 0.05526 0.0
H1082 H 0.90736 0.44031 0.03474 0.0
H1083 H 0.86882 0.2955 0.01585 0.0
H1084 H 0.81606 0.25507 0.01376 0.0
H1085 H 0.84299 0.2577 0.02797 0.0
H1086 H 0.78587 0.25945 0.04111 0.0
H1087 H 0.75849 0.25574 0.02698 0.0
H1088 H 0.77188 0.29775 0.03766 0.0
H1089 H 0.8725 0.43657 0.01432 0.0
H1090 H 0.81934 0.41886 0.99806 0.0
H1091 H 0.76719 0.28933 0.0067 0.0
C1092 C 0.86896 0.3285 0.04686 0.0
C1093 C 0.89594 0.36269 0.05424 0.0
C1094 C 0.90974 0.40307 0.04975 0.0
C1095 C 0.89716 0.4094 0.03804 0.0
C1096 C 0.87061 0.37502 0.03093 0.0
C1097 C 0.85615 0.33535 0.03528 0.0
C1098 C 0.82387 0.30377 0.02661 0.0
C1099 C 0.83885 0.2764 0.0207 0.0
C1100 C 0.7826 0.27768 0.0335 0.0
C1101 C 0.82132 0.33189 0.01696 0.0
C1102 C 0.84949 0.37285 0.01937 0.0
C1103 C 0.85069 0.40458 0.01224 0.0
C1104 C 0.82071 0.39429 1.00292 0.0
C1105 C 0.7896 0.35276 1.00109 0.0
C1106 C 0.79125 0.32124 0.00778 0.0
H1107 H 0.65437 0.51138 0.0531 0.0
H1108 H 0.75055 0.62951 0.03911 0.0
H1109 H 0.74583 0.59797 0.0184 0.0
H1110 H 0.68687 0.45063 0.03814 0.0
H1111 H 0.63556 0.40846 0.03511 0.0
H1112 H 0.64465 0.44209 0.04813 0.0
H1113 H 0.5888 0.4569 0.0396 0.0
H1114 H 0.58046 0.42402 0.02635 0.0
H1115 H 0.59359 0.47678 0.02399 0.0
H1116 H 0.73619 0.55097 1.00005 0.0
H1117 H 0.72623 0.49258 0.98678 0.0
H1118 H 0.63342 0.407 0.01236 0.0
C1119 C 0.67428 0.53074 0.04566 0.0
C1120 C 0.70299 0.57284 0.04772 0.0
C1121 C 0.72841 0.59712 0.03773 0.0
C1122 C 0.72567 0.57954 0.02592 0.0
C1123 C 0.69682 0.53784 0.02418 0.0
C1124 C 0.67157 0.51385 0.03382 0.0
C1125 C 0.64524 0.46926 0.02992 0.0
C1126 C 0.65362 0.44097 0.03832 0.0
C1127 C 0.5993 0.45598 0.02997 0.0
C1128 C 0.66081 0.47139 0.01675 0.0
C1129 C 0.6901 0.51129 0.01348 0.0
C1130 C 0.71243 0.51984 1.00235 0.0
C1131 C 0.70624 0.48661 0.99475 0.0
C1132 C 0.67791 0.44563 0.99834 0.0
C1133 C 0.65373 0.43825 0.00914 0.0
H1134 H 0.53943 0.90728 0.88267 0.0
H1135 H 0.5913 0.83166 0.89328 0.0
H1136 H 0.56866 0.79441 0.87324 0.0
H1137 H 0.44959 0.82683 0.87067 0.0
H1138 H 0.44411 0.85608 0.85824 0.0
H1139 H 0.47196 0.88186 0.87211 0.0
H1140 H 0.53519 0.93032 0.85843 0.0
H1141 H 0.50756 0.90359 0.84452 0.0
H1142 H 0.55675 0.90851 0.84798 0.0
H1143 H 0.53307 0.75938 0.85357 0.0
H1144 H 0.47724 0.72197 0.83822 0.0
H1145 H 0.44626 0.81797 0.84036 0.0
C1146 C 0.54677 0.88351 0.8806 0.0
C1147 C 0.56733 0.87249 0.88945 0.0
C1148 C 0.57549 0.8405 0.88661 0.0
C1149 C 0.56325 0.81954 0.87518 0.0
C1150 C 0.54263 0.83073 0.86665 0.0
C1151 C 0.53393 0.86161 0.8693 0.0
C1152 C 0.50565 0.86311 0.85951 0.0
C1153 C 0.46546 0.85654 0.86549 0.0
C1154 C 0.52761 0.90381 0.85218 0.0
C1155 C 0.49816 0.82699 0.85131 0.0
C1156 C 0.52104 0.80969 0.85532 0.0
C1157 C 0.51576 0.77321 0.85013 0.0
C1158 C 0.48437 0.75236 0.84127 0.0
C1159 C 0.45846 0.76784 0.83787 0.0
C1160 C 0.46699 0.80664 0.84242 0.0
H1161 H 0.14166 0.63028 0.87982 0.0
H1162 H 0.18211 0.75855 0.88723 0.0
H1163 H 0.2179 0.77825 0.86686 0.0
H1164 H 0.23672 0.65063 0.86724 0.0
H1165 H 0.21459 0.60972 0.85587 0.0
H1166 H 0.18714 0.60541 0.87006 0.0
H1167 H 0.12412 0.59402 0.85701 0.0
H1168 H 0.15191 0.59913 0.84276 0.0
H1169 H 0.13045 0.63182 0.84551 0.0
H1170 H 0.25359 0.7849 0.84641 0.0
H1171 H 0.29479 0.77889 0.82932 0.0
H1172 H 0.23486 0.64741 0.83574 0.0
C1173 C 0.15747 0.66236 0.877 0.0
C1174 C 0.15885 0.6929 0.88499 0.0
C1175 C 0.18073 0.73473 0.88121 0.0
C1176 C 0.20079 0.74615 0.86961 0.0
C1177 C 0.19914 0.71543 0.86193 0.0
C1178 C 0.17863 0.67444 0.86556 0.0
C1179 C 0.18612 0.64829 0.85635 0.0
C1180 C 0.20742 0.6273 0.86276 0.0
C1181 C 0.14574 0.61643 0.85003 0.0
C1182 C 0.21464 0.68104 0.84715 0.0
C1183 C 0.22092 0.71943 0.85033 0.0
C1184 C 0.24836 0.75489 0.84369 0.0
C1185 C 0.27131 0.75125 0.83392 0.0
C1186 C 0.26685 0.71256 0.83102 0.0
C1187 C 0.23746 0.67702 0.83749 0.0
H1188 H 0.39313 0.51225 0.87895 0.0
H1189 H 0.26824 0.44254 0.89325 0.0
H1190 H 0.24225 0.45822 0.87418 0.0
H1191 H 0.38396 0.59297 0.86718 0.0
H1192 H 0.416 0.60189 0.85366 0.0
H1193 H 0.42324 0.5789 0.86739 0.0
H1194 H 0.41334 0.51709 0.85393 0.0
H1195 H 0.40477 0.53964 0.84022 0.0
H1196 H 0.36679 0.48812 0.84495 0.0
H1197 H 0.23045 0.48915 0.85544 0.0
H1198 H 0.23574 0.54116 0.84032 0.0
H1199 H 0.36691 0.58967 0.83728 0.0
C1200 C 0.36027 0.49976 0.87793 0.0
C1201 C 0.33274 0.47613 0.88757 0.0
C1202 C 0.29 0.46087 0.88601 0.0
C1203 C 0.27482 0.46913 0.87512 0.0
C1204 C 0.30266 0.49261 0.86579 0.0
C1205 C 0.34456 0.50806 0.86712 0.0
C1206 C 0.36831 0.53708 0.85648 0.0
C1207 C 0.39968 0.58025 0.86147 0.0
C1208 C 0.38956 0.51941 0.84842 0.0
C1209 C 0.33345 0.53726 0.84937 0.0
C1210 C 0.29565 0.51036 0.85469 0.0
C1211 C 0.25962 0.50938 0.85093 0.0
C1212 C 0.26269 0.53861 0.84218 0.0
C1213 C 0.30145 0.56826 0.83733 0.0
C1214 C 0.3367 0.56583 0.84037 0.0
H1215 H 0.50184 0.8673 0.9514 0.0
H1216 H 0.61647 0.88133 0.96537 0.0
H1217 H 0.5838 0.855 0.98602 0.0
H1218 H 0.47525 0.90127 0.97911 0.0
H1219 H 0.42075 0.86549 0.97761 0.0
H1220 H 0.45274 0.88361 0.96388 0.0
H1221 H 0.42784 0.80813 0.95731 0.0
H1222 H 0.39551 0.78985 0.97097 0.0
H1223 H 0.43285 0.77416 0.96813 0.0
H1224 H 0.53698 0.82576 1.00526 0.0
H1225 H 0.48093 0.79684 0.02101 0.0
H1226 H 0.39987 0.80778 0.99444 0.0
C1227 C 0.52 0.86445 0.95875 0.0
C1228 C 0.56157 0.87599 0.95676 0.0
C1229 C 0.58447 0.87243 0.96669 0.0
C1230 C 0.56619 0.85759 0.97845 0.0
C1231 C 0.52517 0.84691 0.98014 0.0
C1232 C 0.50247 0.85031 0.97054 0.0
C1233 C 0.45933 0.83786 0.97475 0.0
C1234 C 0.45159 0.87423 0.97378 0.0
C1235 C 0.42699 0.80027 0.96735 0.0
C1236 C 0.46113 0.82678 0.98822 0.0
C1237 C 0.49915 0.83183 0.99119 0.0
C1238 C 0.50717 0.82189 1.00302 0.0
C1239 C 0.47521 0.80563 0.01193 0.0
C1240 C 0.43584 0.79969 0.00894 0.0
C1241 C 0.42941 0.81152 0.99701 0.0
H1242 H 0.17075 0.71691 0.95881 0.0
H1243 H 0.1552 0.60344 0.94321 0.0
H1244 H 0.1856 0.59258 0.96232 0.0
H1245 H 0.26882 0.74987 0.97246 0.0
H1246 H 0.25925 0.77275 0.98588 0.0
H1247 H 0.23391 0.76941 0.97133 0.0
H1248 H 0.16311 0.73045 0.98256 0.0
H1249 H 0.18834 0.73307 0.99712 0.0
H1250 H 0.1493 0.68386 0.99109 0.0
H1251 H 0.21968 0.59538 0.9833 0.0
H1252 H 0.26149 0.61625 1.00273 0.0
H1253 H 0.25537 0.72823 1.00395 0.0
C1254 C 0.17357 0.68968 0.95943 0.0
C1255 C 0.1605 0.66095 0.94955 0.0
C1256 C 0.16513 0.62593 0.95067 0.0
C1257 C 0.18206 0.61933 0.96152 0.0
C1258 C 0.19435 0.64814 0.97116 0.0
C1259 C 0.19075 0.68288 0.97012 0.0
C1260 C 0.20872 0.71065 0.98136 0.0
C1261 C 0.24481 0.75316 0.97753 0.0
C1262 C 0.17537 0.71473 0.98845 0.0
C1263 C 0.22341 0.68643 0.98887 0.0
C1264 C 0.21437 0.65009 0.98298 0.0
C1265 C 0.2266 0.62361 0.98803 0.0
C1266 C 0.24995 0.63542 0.99913 0.0
C1267 C 0.2611 0.67355 1.00487 0.0
C1268 C 0.24667 0.69861 0.99982 0.0
H1269 H 0.39263 0.5572 0.94161 0.0
H1270 H 0.34204 0.4441 0.9631 0.0
H1271 H 0.35172 0.48373 0.98255 0.0
H1272 H 0.46899 0.625 0.96419 0.0
H1273 H 0.46087 0.66743 0.96094 0.0
H1274 H 0.45257 0.63061 0.94887 0.0
H1275 H 0.37789 0.61577 0.9457 0.0
H1276 H 0.38634 0.6531 0.95756 0.0
H1277 H 0.34367 0.60106 0.95894 0.0
H1278 H 0.366 0.53643 0.99969 0.0
H1279 H 0.37349 0.59485 0.01237 0.0
H1280 H 0.4132 0.67255 0.97939 0.0
C1281 C 0.38371 0.54076 0.95041 0.0
C1282 C 0.36671 0.4976 0.95086 0.0
C1283 C 0.35501 0.47717 0.96255 0.0
C1284 C 0.36077 0.49948 0.97364 0.0
C1285 C 0.37811 0.54216 0.97289 0.0
C1286 C 0.38884 0.56245 0.96153 0.0
C1287 C 0.40401 0.60793 0.96308 0.0
C1288 C 0.4493 0.63429 0.95903 0.0
C1289 C 0.37632 0.62016 0.9559 0.0
C1290 C 0.3995 0.61007 0.97707 0.0
C1291 C 0.38533 0.57206 0.98263 0.0
C1292 C 0.37731 0.56636 0.99543 0.0
C1293 C 0.38207 0.59988 1.0026 0.0
C1294 C 0.3941 0.63835 0.99689 0.0
C1295 C 0.40426 0.64363 0.98405 0.0
H1296 H 0.13399 0.52755 0.45485 0.0
H1297 H 0.132 0.41631 0.46673 0.0
H1298 H 0.1539 0.446 0.48796 0.0
H1299 H 0.22269 0.59638 0.46963 0.0
H1300 H 0.20578 0.63218 0.47351 0.0
H1301 H 0.18402 0.59874 0.4603 0.0
H1302 H 0.11098 0.57161 0.46963 0.0
H1303 H 0.133 0.6044 0.48309 0.0
H1304 H 0.09946 0.54964 0.4851 0.0
H1305 H 0.18608 0.49271 0.50684 0.0
H1306 H 0.23212 0.55296 0.51989 0.0
H1307 H 0.20933 0.63161 0.49582 0.0
C1308 C 0.13758 0.50909 0.46195 0.0
C1309 C 0.13153 0.46972 0.45914 0.0
C1310 C 0.13655 0.4466 0.46869 0.0
C1311 C 0.14858 0.46309 0.4808 0.0
C1312 C 0.15454 0.5023 0.48323 0.0
C1313 C 0.14905 0.52483 0.47401 0.0
C1314 C 0.16152 0.56778 0.47841 0.0
C1315 C 0.19552 0.60067 0.46998 0.0
C1316 C 0.12399 0.57368 0.4791 0.0
C1317 C 0.17742 0.56707 0.49132 0.0
C1318 C 0.17214 0.52872 0.49414 0.0
C1319 C 0.18941 0.52249 0.50488 0.0
C1320 C 0.2151 0.5568 0.51237 0.0
C1321 C 0.22371 0.5967 0.50891 0.0
C1322 C 0.20223 0.60118 0.49882 0.0
H1323 H 0.50548 0.63194 0.455 0.0
H1324 H 0.61736 0.73897 0.4682 0.0
H1325 H 0.58504 0.73095 0.48904 0.0
H1326 H 0.43674 0.65341 0.46912 0.0
H1327 H 0.39924 0.60042 0.47256 0.0
H1328 H 0.43402 0.61237 0.45969 0.0
H1329 H 0.45781 0.56417 0.46914 0.0
H1330 H 0.42366 0.55307 0.48226 0.0
H1331 H 0.47788 0.57306 0.48483 0.0
H1332 H 0.53605 0.71615 0.50747 0.0
H1333 H 0.4749 0.70135 0.52011 0.0
H1334 H 0.39732 0.60198 0.49499 0.0
C1335 C 0.52349 0.65349 0.4623 0.0
C1336 C 0.56384 0.68625 0.45997 0.0
C1337 C 0.58632 0.71368 0.46979 0.0
C1338 C 0.56831 0.70909 0.48168 0.0
C1339 C 0.52819 0.67638 0.48364 0.0
C1340 C 0.50625 0.64902 0.47416 0.0
C1341 C 0.4625 0.61879 0.47809 0.0
C1342 C 0.43133 0.62146 0.46936 0.0
C1343 C 0.45504 0.57466 0.47861 0.0
C1344 C 0.46223 0.6347 0.49104 0.0
C1345 C 0.5006 0.66731 0.49426 0.0
C1346 C 0.5062 0.69004 0.50517 0.0
C1347 C 0.47135 0.68106 0.51242 0.0
C1348 C 0.43156 0.65014 0.50859 0.0
C1349 C 0.42758 0.62503 0.49828 0.0
H1350 H 0.39651 0.89195 0.45505 0.0
H1351 H 0.28494 0.88841 0.46742 0.0
H1352 H 0.2941 0.86712 0.4885 0.0
H1353 H 0.37909 0.80339 0.47013 0.0
H1354 H 0.43254 0.82245 0.47377 0.0
H1355 H 0.41919 0.84261 0.46055 0.0
H1356 H 0.46431 0.91641 0.46955 0.0
H1357 H 0.47652 0.89592 0.48305 0.0
H1358 H 0.4539 0.92794 0.485 0.0
H1359 H 0.31132 0.83841 0.50746 0.0
H1360 H 0.32784 0.79485 0.5207 0.0
H1361 H 0.42924 0.81957 0.49619 0.0
C1362 C 0.37419 0.88713 0.46222 0.0
C1363 C 0.33997 0.89176 0.45959 0.0
C1364 C 0.31135 0.88491 0.46922 0.0
C1365 C 0.3166 0.87332 0.48126 0.0
C1366 C 0.35093 0.86925 0.48358 0.0
C1367 C 0.37907 0.87574 0.47426 0.0
C1368 C 0.41077 0.86503 0.47862 0.0
C1369 C 0.41032 0.83136 0.47028 0.0
C1370 C 0.45393 0.90364 0.47908 0.0
C1371 C 0.39486 0.84929 0.49164 0.0
C1372 C 0.36105 0.8531 0.49452 0.0
C1373 C 0.33826 0.83609 0.50543 0.0
C1374 C 0.34826 0.81187 0.51305 0.0
C1375 C 0.3801 0.80433 0.50952 0.0
C1376 C 0.40548 0.82586 0.49925 0.0
H1377 H 0.13914 0.50638 0.38498 0.0
H1378 H 0.22326 0.48065 0.40544 0.0
H1379 H 0.27328 0.50971 0.38812 0.0
H1380 H 0.16223 0.48362 0.35396 0.0
H1381 H 0.15914 0.52508 0.34658 0.0
H1382 H 0.12881 0.50052 0.36032 0.0
H1383 H 0.16072 0.57121 0.37158 0.0
H1384 H 0.19031 0.59592 0.35778 0.0
H1385 H 0.21601 0.60309 0.37256 0.0
H1386 H 0.31599 0.54547 0.36929 0.0
H1387 H 0.34999 0.59012 0.35097 0.0
H1388 H 0.23793 0.59076 0.34237 0.0
C1389 C 0.16808 0.50687 0.38581 0.0
C1390 C 0.17732 0.49127 0.39656 0.0
C1391 C 0.21555 0.49251 0.3973 0.0
C1392 C 0.24405 0.50866 0.38747 0.0
C1393 C 0.2338 0.52327 0.37692 0.0
C1394 C 0.1969 0.52284 0.37606 0.0
C1395 C 0.19442 0.54251 0.36399 0.0
C1396 C 0.15904 0.51104 0.35573 0.0
C1397 C 0.19013 0.58043 0.36664 0.0
C1398 C 0.23599 0.55473 0.35831 0.0
C1399 C 0.25808 0.54295 0.36587 0.0
C1400 C 0.29866 0.55397 0.36314 0.0
C1401 C 0.31762 0.57892 0.35267 0.0
C1402 C 0.29584 0.5921 0.34505 0.0
C1403 C 0.25434 0.57915 0.34773 0.0
H1404 H 0.50913 0.64766 0.39086 0.0
H1405 H 0.59124 0.77723 0.39897 0.0
H1406 H 0.56599 0.79619 0.38027 0.0
H1407 H 0.51556 0.65434 0.35714 0.0
H1408 H 0.46162 0.61767 0.35484 0.0
H1409 H 0.48777 0.61403 0.36845 0.0
H1410 H 0.43399 0.61742 0.38283 0.0
H1411 H 0.40739 0.62024 0.36925 0.0
H1412 H 0.42434 0.65953 0.38109 0.0
H1413 H 0.53104 0.80111 0.36065 0.0
H1414 H 0.48242 0.79105 0.34345 0.0
H1415 H 0.4217 0.65896 0.34881 0.0
C1416 C 0.5218 0.67998 0.38867 0.0
C1417 C 0.5522 0.71098 0.39633 0.0
C1418 C 0.56775 0.75298 0.39325 0.0
C1419 C 0.55388 0.76406 0.38259 0.0
C1420 C 0.52413 0.73279 0.37515 0.0
C1421 C 0.50775 0.6916 0.37818 0.0
C1422 C 0.47396 0.66407 0.36916 0.0
C1423 C 0.48544 0.63587 0.36197 0.0
C1424 C 0.43248 0.63885 0.37599 0.0
C1425 C 0.47383 0.69615 0.36063 0.0
C1426 C 0.50342 0.73563 0.36408 0.0
C1427 C 0.50799 0.77031 0.35779 0.0
C1428 C 0.48066 0.76443 0.34798 0.0
C1429 C 0.44929 0.72429 0.34472 0.0
C1430 C 0.44631 0.68988 0.35098 0.0
H1431 H 0.32802 0.82953 0.4015 0.0
H1432 H 0.36662 0.94361 0.38144 0.0
H1433 H 0.3587 0.90741 0.3614 0.0
H1434 H 0.38079 0.79356 0.38173 0.0
H1435 H 0.34084 0.74024 0.38301 0.0
H1436 H 0.34908 0.77548 0.39554 0.0
H1437 H 0.27236 0.75568 0.39421 0.0
H1438 H 0.26415 0.72095 0.3815 0.0
H1439 H 0.25198 0.76128 0.37958 0.0
H1440 H 0.3454 0.85742 0.34336 0.0
H1441 H 0.33701 0.80089 0.32944 0.0
H1442 H 0.30772 0.72069 0.36159 0.0
C1443 C 0.33505 0.84699 0.3929 0.0
C1444 C 0.34797 0.88941 0.39303 0.0
C1445 C 0.35693 0.91114 0.38157 0.0
C1446 C 0.35217 0.89075 0.37013 0.0
C1447 C 0.33858 0.84866 0.37032 0.0
C1448 C 0.33075 0.82723 0.38144 0.0
C1449 C 0.31811 0.78261 0.3792 0.0
C1450 C 0.34906 0.77239 0.38522 0.0
C1451 C 0.27403 0.75342 0.3839 0.0
C1452 C 0.32023 0.78223 0.36509 0.0
C1453 C 0.33156 0.82039 0.36008 0.0
C1454 C 0.33644 0.82741 0.34721 0.0
C1455 C 0.33121 0.79505 0.33935 0.0
C1456 C 0.32169 0.75646 0.34444 0.0
C1457 C 0.31499 0.74986 0.35742 0.0
H1458 H 0.27324 0.02528 0.09639 0.0
H1459 H 0.35555 0.15469 0.10469 0.0
H1460 H 0.30086 0.15578 0.11719 0.0
H1461 H 0.18187 0.03344 0.09279 0.0
H1462 H 0.14829 0.98344 0.09954 0.0
H1463 H 0.19447 0.99323 0.09153 0.0
H1464 H 0.21761 0.97039 0.11127 0.0
H1465 H 0.17184 0.96131 0.11943 0.0
H1466 H 0.22193 0.99576 0.12595 0.0
H1467 H 0.23735 0.14152 0.12976 0.0
H1468 H 0.16694 0.11598 0.1382 0.0
H1469 H 0.12596 0.99766 0.12057 0.0
C1470 C 0.27959 0.05391 0.10075 0.0
C1471 C 0.3186 0.08988 0.09956 0.0
C1472 C 0.32574 0.12681 0.10539 0.0
C1473 C 0.295 0.12765 0.11262 0.0
C1474 C 0.25709 0.09143 0.11382 0.0
C1475 C 0.24903 0.05548 0.10782 0.0
C1476 C 0.20516 0.02131 0.1101 0.0
C1477 C 0.18103 0.00704 0.09776 0.0
C1478 C 0.2041 0.98506 0.11711 0.0
C1479 C 0.1898 0.04362 0.11828 0.0
C1480 C 0.22033 0.08382 0.12055 0.0
C1481 C 0.21314 0.11015 0.12798 0.0
C1482 C 0.17325 0.09538 0.13282 0.0
C1483 C 0.14118 0.05503 0.12998 0.0
C1484 C 0.14996 0.02875 0.12285 0.0
H1485 H 0.01638 0.27212 0.09926 0.0
H1486 H 0.88443 0.21696 0.10424 0.0
H1487 H 0.8832 0.1615 0.11705 0.0
H1488 H 0.01487 0.1765 0.09572 0.0
H1489 H 0.06335 0.19482 0.10363 0.0
H1490 H 0.05327 0.23058 0.09544 0.0
H1491 H 0.06871 0.27373 0.11571 0.0
H1492 H 0.07798 0.23753 0.12403 0.0
H1493 H 0.04006 0.24943 0.12972 0.0
H1494 H 0.8973 0.11257 0.12985 0.0
H1495 H 0.92352 0.06853 0.13828 0.0
H1496 H 0.04492 0.1545 0.12378 0.0
C1497 C 0.98722 0.24828 0.10302 0.0
C1498 C 0.95053 0.24877 0.1008 0.0
C1499 C 0.91288 0.21693 0.10578 0.0
C1500 C 0.91195 0.18558 0.11317 0.0
C1501 C 0.94887 0.18637 0.11537 0.0
C1502 C 0.98565 0.21649 0.11022 0.0
C1503 C 0.0206 0.20908 0.11328 0.0
C1504 C 0.03909 0.20232 0.10131 0.0
C1505 C 0.05379 0.24456 0.12115 0.0
C1506 C 0.99777 0.16992 0.12088 0.0
C1507 C 0.9566 0.15764 0.12224 0.0
C1508 C 0.92949 0.1219 0.12882 0.0
C1509 C 0.94462 0.09728 0.13367 0.0
C1510 C 0.98611 0.10833 0.13166 0.0
C1511 C 0.01306 0.14555 0.12547 0.0
H1512 H 0.76779 0.76835 0.09876 0.0
H1513 H 0.83129 0.69895 0.09807 0.0
H1514 H 0.88525 0.75047 0.11193 0.0
H1515 H 0.85949 0.86728 0.09689 0.0
H1516 H 0.83978 0.89226 0.10675 0.0
H1517 H 0.80483 0.84801 0.09766 0.0
H1518 H 0.7648 0.81174 0.11786 0.0
H1519 H 0.80031 0.85565 0.12704 0.0
H1520 H 0.79183 0.80513 0.13073 0.0
H1521 H 0.93238 0.80974 0.12611 0.0
H1522 H 0.97552 0.8785 0.13585 0.0
H1523 H 0.88391 0.91112 0.12595 0.0
C1524 C 0.79311 0.76413 0.10153 0.0
C1525 C 0.79543 0.72975 0.09736 0.0
C1526 C 0.82916 0.72533 0.10108 0.0
C1527 C 0.85968 0.75414 0.10908 0.0
C1528 C 0.85631 0.78749 0.11317 0.0
C1529 C 0.82437 0.79311 0.10929 0.0
C1530 C 0.8299 0.83347 0.1141 0.0
C1531 C 0.83375 0.86193 0.1032 0.0
C1532 C 0.7946 0.82603 0.12296 0.0
C1533 C 0.87018 0.84991 0.12111 0.0
C1534 C 0.8844 0.82247 0.12079 0.0
C1535 C 0.92153 0.83146 0.12644 0.0
C1536 C 0.94565 0.87033 0.13205 0.0
C1537 C 0.9328 0.89973 0.13166 0.0
C1538 C 0.89412 0.88887 0.12645 0.0
H1539 H 0.08758 0.29495 0.41778 0.0
H1540 H 0.04264 0.33746 0.38727 0.0
H1541 H 0.03972 0.28292 0.37367 0.0
H1542 H 0.15014 0.26627 0.3991 0.0
H1543 H 0.13683 0.22112 0.40834 0.0
H1544 H 0.13794 0.26515 0.41543 0.0
H1545 H 0.06235 0.2192 0.42286 0.0
H1546 H 0.06139 0.17505 0.41601 0.0
H1547 H 0.02312 0.18812 0.41161 0.0
H1548 H 0.04003 0.22179 0.36348 0.0
H1549 H 0.03471 0.15456 0.35876 0.0
H1550 H 0.07848 0.1525 0.39604 0.0
C1551 C 0.07719 0.29282 0.40824 0.0
C1552 C 0.06537 0.32046 0.40359 0.0
C1553 C 0.05171 0.3165 0.39106 0.0
C1554 C 0.0503 0.28585 0.38322 0.0
C1555 C 0.06262 0.25934 0.38804 0.0
C1556 C 0.07534 0.26227 0.40031 0.0
C1557 C 0.08431 0.22839 0.40349 0.0
C1558 C 0.13003 0.24632 0.40678 0.0
C1559 C 0.0561 0.20107 0.41411 0.0
C1560 C 0.07382 0.20541 0.39119 0.0
C1561 C 0.06215 0.22407 0.38228 0.0
C1562 C 0.0494 0.20709 0.37037 0.0
C1563 C 0.04682 0.16914 0.36771 0.0
C1564 C 0.05633 0.14855 0.37702 0.0
C1565 C 0.0713 0.16776 0.38871 0.0
H1566 H 0.74608 0.81646 0.42018 0.0
H1567 H 0.6997 0.73184 0.38884 0.0
H1568 H 0.75386 0.78467 0.37532 0.0
H1569 H 0.77485 0.90988 0.40289 0.0
H1570 H 0.82115 0.94087 0.41179 0.0
H1571 H 0.77768 0.89704 0.41894 0.0
H1572 H 0.82366 0.86636 0.42477 0.0
H1573 H 0.86732 0.91043 0.41785 0.0
H1574 H 0.85303 0.85922 0.41273 0.0
H1575 H 0.81381 0.84736 0.36511 0.0
H1576 H 0.87975 0.91075 0.36002 0.0
H1577 H 0.88732 0.95327 0.39809 0.0
C1578 C 0.7474 0.80904 0.41048 0.0
C1579 C 0.71864 0.77001 0.40558 0.0
C1580 C 0.72152 0.76145 0.39284 0.0
C1581 C 0.75197 0.7914 0.38504 0.0
C1582 C 0.77953 0.8298 0.39011 0.0
C1583 C 0.77788 0.83845 0.40259 0.0
C1584 C 0.81251 0.88123 0.4059 0.0
C1585 C 0.79551 0.90888 0.41013 0.0
C1586 C 0.84081 0.87917 0.4159 0.0
C1587 C 0.83414 0.89508 0.3934 0.0
C1588 C 0.81432 0.86535 0.38433 0.0
C1589 C 0.82948 0.87096 0.37213 0.0
C1590 C 0.8667 0.90723 0.36927 0.0
C1591 C 0.88846 0.93702 0.37862 0.0
C1592 C 0.87122 0.93115 0.39072 0.0
H1593 H 0.25737 0.00811 0.41148 0.0
H1594 H 0.20264 0.87635 0.4061 0.0
H1595 H 0.14754 0.87553 0.3932 0.0
H1596 H 0.16187 0.00617 0.41505 0.0
H1597 H 0.18013 0.055 0.40733 0.0
H1598 H 0.21588 0.04469 0.41541 0.0
H1599 H 0.25926 0.0611 0.39515 0.0
H1600 H 0.2231 0.07067 0.38694 0.0
H1601 H 0.23516 0.03307 0.38104 0.0
H1602 H 0.09841 0.89017 0.38045 0.0
H1603 H 0.05441 0.91684 0.37222 0.0
H1604 H 0.14009 0.03747 0.38719 0.0
C1605 C 0.23376 0.97908 0.40759 0.0
C1606 C 0.23426 0.94232 0.40975 0.0
C1607 C 0.20265 0.90486 0.40461 0.0
C1608 C 0.17148 0.90417 0.39717 0.0
C1609 C 0.17218 0.94116 0.39507 0.0
C1610 C 0.20216 0.97775 0.40035 0.0
C1611 C 0.19464 0.01277 0.39745 0.0
C1612 C 0.1877 0.03068 0.40953 0.0
C1613 C 0.23016 0.04638 0.38968 0.0
C1614 C 0.15559 0.99022 0.38982 0.0
C1615 C 0.14341 0.94912 0.38827 0.0
C1616 C 0.1077 0.92232 0.38162 0.0
C1617 C 0.08309 0.93768 0.37688 0.0
C1618 C 0.09411 0.97909 0.37908 0.0
C1619 C 0.13122 0.00569 0.38535 0.0
H1620 H 0.76381 0.00596 0.90874 0.0
H1621 H 0.69245 0.87235 0.9096 0.0
H1622 H 0.74775 0.86916 0.8981 0.0
H1623 H 0.81116 0.01751 0.87821 0.0
H1624 H 0.86041 0.05976 0.88305 0.0
H1625 H 0.81384 0.0518 0.89042 0.0
H1626 H 0.84253 0.04861 0.91215 0.0
H1627 H 0.88938 0.05735 0.90485 0.0
H1628 H 0.86042 0.0128 0.91466 0.0
H1629 H 0.81139 0.88059 0.88643 0.0
H1630 H 0.88286 0.9059 0.87898 0.0
H1631 H 0.91394 0.03121 0.88714 0.0
C1632 C 0.75988 0.97609 0.90647 0.0
C1633 C 0.72389 0.93942 0.91002 0.0
C1634 C 0.71996 0.90086 0.90702 0.0
C1635 C 0.75098 0.89871 0.90037 0.0
C1636 C 0.78601 0.93542 0.89689 0.0
C1637 C 0.79096 0.97339 0.90006 0.0
C1638 C 0.83305 0.00812 0.89621 0.0
C1639 C 0.82937 0.03593 0.88639 0.0
C1640 C 0.8578 0.03317 0.90765 0.0
C1641 C 0.85117 0.98377 0.89058 0.0
C1642 C 0.82324 0.94192 0.89074 0.0
C1643 C 0.83349 0.91332 0.88623 0.0
C1644 C 0.87391 0.92785 0.88192 0.0
C1645 C 0.9034 0.97035 0.88242 0.0
C1646 C 0.89158 0.99857 0.88653 0.0
H1647 H 0.04357 0.74959 0.89645 0.0
H1648 H 0.13784 0.81372 0.92462 0.0
H1649 H 0.14631 0.87995 0.91758 0.0
H1650 H 0.0902 0.82823 0.87229 0.0
H1651 H 0.04186 0.82167 0.86688 0.0
H1652 H 0.04369 0.77878 0.87371 0.0
H1653 H 0.9885 0.76909 0.89 0.0
H1654 H 0.98596 0.81138 0.88307 0.0
H1655 H 0.99684 0.81228 0.89949 0.0
H1656 H 0.14372 0.93879 0.90814 0.0
H1657 H 0.12469 0.98622 0.89827 0.0
H1658 H 0.03252 0.88582 0.87596 0.0
C1659 C 0.06585 0.77759 0.90115 0.0
C1660 C 0.09005 0.77642 0.9111 0.0
C1661 C 0.11887 0.81374 0.91701 0.0
C1662 C 0.12416 0.8516 0.91301 0.0
C1663 C 0.10044 0.85182 0.90306 0.0
C1664 C 0.07148 0.81585 0.89729 0.0
C1665 C 0.04864 0.82485 0.88721 0.0
C1666 C 0.05658 0.81265 0.87426 0.0
C1667 C 0.00224 0.80312 0.89012 0.0
C1668 C 0.06883 0.87138 0.8884 0.0
C1669 C 0.09906 0.88622 0.8975 0.0
C1670 C 0.12054 0.92768 0.90088 0.0
C1671 C 0.10979 0.95445 0.89517 0.0
C1672 C 0.07808 0.93981 0.88614 0.0
C1673 C 0.05795 0.89796 0.8825 0.0
H1674 H 0.23786 0.29712 0.91879 0.0
H1675 H 0.31635 0.33543 0.88597 0.0
H1676 H 0.26198 0.27676 0.87415 0.0
H1677 H 0.19699 0.18892 0.91437 0.0
H1678 H 0.14642 0.17473 0.9201 0.0
H1679 H 0.19083 0.22111 0.92562 0.0
H1680 H 0.15677 0.26317 0.91875 0.0
H1681 H 0.11256 0.21691 0.91299 0.0
H1682 H 0.14063 0.26051 0.90276 0.0
H1683 H 0.19851 0.2135 0.86581 0.0
H1684 H 0.13568 0.14527 0.86274 0.0
H1685 H 0.10024 0.14739 0.90117 0.0
C1686 C 0.24358 0.29308 0.90913 0.0
C1687 C 0.28129 0.32083 0.9033 0.0
C1688 C 0.28774 0.3144 0.89065 0.0
C1689 C 0.2569 0.28139 0.88382 0.0
C1690 C 0.21981 0.25487 0.88977 0.0
C1691 C 0.2133 0.25997 0.9022 0.0
C1692 C 0.17178 0.22564 0.90662 0.0
C1693 C 0.17683 0.20115 0.9173 0.0
C1694 C 0.14379 0.24259 0.91051 0.0
C1695 C 0.15626 0.20018 0.8948 0.0
C1696 C 0.18395 0.21792 0.88509 0.0
C1697 C 0.17654 0.19933 0.87335 0.0
C1698 C 0.14065 0.16077 0.87164 0.0
C1699 C 0.11319 0.14111 0.88171 0.0
C1700 C 0.12066 0.16176 0.89329 0.0
H1701 H 0.94645 0.75628 0.59428 0.0
H1702 H -0.00096 0.71838 0.62384 0.0
H1703 H 0.00267 0.77321 0.63749 0.0
H1704 H 0.00909 0.86467 0.59978 0.0
H1705 H 0.96854 0.87516 0.59604 0.0
H1706 H 0.96891 0.83188 0.58902 0.0
H1707 H 0.89495 0.78353 0.59738 0.0
H1708 H 0.89475 0.82666 0.60465 0.0
H1709 H 0.88486 0.78246 0.61388 0.0
H1710 H 0.00052 0.83326 0.64798 0.0
H1711 H 0.00154 0.89825 0.65306 0.0
H1712 H 0.95141 0.89631 0.61646 0.0
C1713 C 0.95886 0.7596 0.60361 0.0
C1714 C 0.97248 0.73308 0.60799 0.0
C1715 C 0.98862 0.73851 0.62025 0.0
C1716 C 0.99046 0.76933 0.62812 0.0
C1717 C 0.97614 0.79458 0.62359 0.0
C1718 C 0.96118 0.79033 0.61154 0.0
C1719 C 0.94969 0.82263 0.60865 0.0
C1720 C 0.97561 0.85022 0.59773 0.0
C1721 C 0.9033 0.80261 0.60598 0.0
C1722 C 0.961 0.84608 0.62087 0.0
C1723 C 0.97557 0.82917 0.62948 0.0
C1724 C 0.98901 0.84666 0.64131 0.0
C1725 C 0.98913 0.88331 0.64418 0.0
C1726 C 0.97645 0.90217 0.63518 0.0
C1727 C 0.96109 0.88246 0.62356 0.0
H1728 H 0.29046 0.22532 0.59484 0.0
H1729 H 0.33431 0.31271 0.62548 0.0
H1730 H 0.27586 0.26294 0.63851 0.0
H1731 H 0.18398 0.19045 0.59965 0.0
H1732 H 0.16682 0.13789 0.59529 0.0
H1733 H 0.21381 0.17925 0.58884 0.0
H1734 H 0.25346 0.14404 0.59694 0.0
H1735 H 0.20659 0.10278 0.60355 0.0
H1736 H 0.25122 0.13173 0.6133 0.0
H1737 H 0.21191 0.20307 0.64822 0.0
H1738 H 0.14329 0.1423 0.65271 0.0
H1739 H 0.13988 0.09635 0.61532 0.0
C1740 C 0.28783 0.23383 0.60432 0.0
C1741 C 0.31695 0.27272 0.60919 0.0
C1742 C 0.31223 0.28304 0.62156 0.0
C1743 C 0.27932 0.25487 0.62906 0.0
C1744 C 0.25116 0.21664 0.62401 0.0
C1745 C 0.25478 0.20636 0.61186 0.0
C1746 C 0.21881 0.16458 0.60835 0.0
C1747 C 0.19441 0.16828 0.59739 0.0
C1748 C 0.23341 0.13398 0.60536 0.0
C1749 C 0.1942 0.15316 0.62037 0.0
C1750 C 0.21369 0.18313 0.62939 0.0
C1751 C 0.19638 0.17939 0.64121 0.0
C1752 C 0.15755 0.14469 0.64372 0.0
C1753 C 0.13629 0.11473 0.63436 0.0
C1754 C 0.1554 0.1188 0.62266 0.0
H1755 H 0.75664 0.02492 0.60145 0.0
H1756 H 0.79874 0.15233 0.6109 0.0
H1757 H 0.85556 0.15537 0.62335 0.0
H1758 H 0.78118 0.99451 0.63069 0.0
H1759 H 0.79911 0.9631 0.62347 0.0
H1760 H 0.76038 0.97015 0.61586 0.0
H1761 H 0.80587 0.99732 0.59599 0.0
H1762 H 0.84433 0.98966 0.60347 0.0
H1763 H 0.8581 0.03965 0.59731 0.0
H1764 H 0.9074 0.14364 0.63533 0.0
H1765 H 0.95607 0.12162 0.64269 0.0
H1766 H 0.88274 0.00424 0.62406 0.0
C1767 C 0.77789 0.05344 0.60613 0.0
C1768 C 0.77328 0.08835 0.60525 0.0
C1769 C 0.80189 0.12527 0.6114 0.0
C1770 C 0.83403 0.12718 0.6186 0.0
C1771 C 0.8375 0.09206 0.61942 0.0
C1772 C 0.81068 0.05615 0.61313 0.0
C1773 C 0.82283 0.02371 0.61479 0.0
C1774 C 0.78884 0.98562 0.62161 0.0
C1775 C 0.83343 0.01192 0.60214 0.0
C1776 C 0.86072 0.047 0.62292 0.0
C1777 C 0.86828 0.08607 0.62575 0.0
C1778 C 0.90181 0.11313 0.63315 0.0
C1779 C 0.92908 0.10036 0.63738 0.0
C1780 C 0.92291 0.06133 0.63394 0.0
C1781 C 0.88792 0.03421 0.62684 0.0
H1782 H 0.94441 0.3591 0.43778 0.0
H1783 H 0.01278 0.49239 0.43462 0.0
H1784 H 0.95874 0.49607 0.44682 0.0
H1785 H 0.84455 0.34768 0.43387 0.0
H1786 H 0.82006 0.30493 0.44458 0.0
H1787 H 0.86519 0.31403 0.43609 0.0
H1788 H 0.90082 0.31632 0.45706 0.0
H1789 H 0.85609 0.30833 0.46562 0.0
H1790 H 0.90587 0.35254 0.46895 0.0
H1791 H 0.89651 0.48455 0.45974 0.0
H1792 H 0.82667 0.45814 0.46879 0.0
H1793 H 0.79933 0.33298 0.4626 0.0
C1794 C 0.94789 0.38906 0.4396 0.0
C1795 C 0.9827 0.42545 0.43526 0.0
C1796 C 0.98612 0.46408 0.43778 0.0
C1797 C 0.95584 0.46649 0.44482 0.0
C1798 C 0.92226 0.42999 0.44921 0.0
C1799 C 0.91782 0.39197 0.44646 0.0
C1800 C 0.87775 0.35714 0.45154 0.0
C1801 C 0.85027 0.32933 0.44089 0.0
C1802 C 0.88563 0.33212 0.46138 0.0
C1803 C 0.86001 0.38136 0.45744 0.0
C1804 C 0.8864 0.42338 0.45628 0.0
C1805 C 0.87572 0.45171 0.46075 0.0
C1806 C 0.8363 0.43656 0.466 0.0
C1807 C 0.80821 0.39367 0.46651 0.0
C1808 C 0.82072 0.36593 0.46251 0.0
H1809 H 0.67636 0.60222 0.43422 0.0
H1810 H 0.54448 0.54803 0.43898 0.0
H1811 H 0.54157 0.4892 0.45034 0.0
H1812 H 0.67251 0.50544 0.42831 0.0
H1813 H 0.72062 0.52128 0.43617 0.0
H1814 H 0.71176 0.5592 0.42882 0.0
H1815 H 0.72761 0.59877 0.44981 0.0
H1816 H 0.73574 0.56051 0.45727 0.0
H1817 H 0.69844 0.57236 0.46355 0.0
H1818 H 0.55442 0.43785 0.46235 0.0
H1819 H 0.57976 0.39261 0.47044 0.0
H1820 H 0.70155 0.47811 0.45612 0.0
C1821 C 0.64685 0.57778 0.43758 0.0
C1822 C 0.61065 0.57957 0.43575 0.0
C1823 C 0.57253 0.54698 0.4402 0.0
C1824 C 0.57065 0.51369 0.44677 0.0
C1825 C 0.60709 0.51316 0.44862 0.0
C1826 C 0.6443 0.5439 0.44388 0.0
C1827 C 0.67859 0.53502 0.44647 0.0
C1828 C 0.69693 0.52991 0.43421 0.0
C1829 C 0.71206 0.56867 0.45477 0.0
C1830 C 0.65498 0.49457 0.45344 0.0
C1831 C 0.61394 0.48276 0.45484 0.0
C1832 C 0.58643 0.44666 0.46121 0.0
C1833 C 0.60105 0.42134 0.46586 0.0
C1834 C 0.64244 0.432 0.46385 0.0
C1835 C 0.6697 0.46934 0.45775 0.0
H1836 H 0.47404 0.07352 0.42789 0.0
H1837 H 0.38732 0.04102 0.45849 0.0
H1838 H 0.44116 0.09693 0.47126 0.0
H1839 H 0.56592 0.10378 0.44658 0.0
H1840 H 0.59891 0.14678 0.43667 0.0
H1841 H 0.55455 0.10224 0.43017 0.0
H1842 H 0.52733 0.14853 0.42158 0.0
H1843 H 0.57191 0.19317 0.42786 0.0
H1844 H 0.521 0.1824 0.43209 0.0
H1845 H 0.5043 0.15721 0.4807 0.0
H1846 H 0.56842 0.22347 0.48475 0.0
H1847 H 0.61299 0.21857 0.44783 0.0
C1848 C 0.4665 0.07818 0.43729 0.0
C1849 C 0.42654 0.05289 0.44221 0.0
C1850 C 0.41769 0.06018 0.4545 0.0
C1851 C 0.44818 0.0916 0.46188 0.0
C1852 C 0.48739 0.11581 0.45682 0.0
C1853 C 0.49644 0.10995 0.44473 0.0
C1854 C 0.54003 0.14236 0.4412 0.0
C1855 C 0.5664 0.12259 0.4385 0.0
C1856 C 0.54005 0.16814 0.43003 0.0
C1857 C 0.55378 0.16763 0.4531 0.0
C1858 C 0.52333 0.1513 0.46211 0.0
C1859 C 0.52853 0.17011 0.47375 0.0
C1860 C 0.56522 0.20744 0.47605 0.0
C1861 C 0.59582 0.22567 0.4667 0.0
C1862 C 0.59027 0.20494 0.45521 0.0
H1863 H 0.68592 0.61862 0.73813 0.0
H1864 H 0.81846 0.68273 0.74309 0.0
H1865 H 0.82263 0.63168 0.72957 0.0
H1866 H 0.67261 0.51877 0.74071 0.0
H1867 H 0.63109 0.49556 0.72956 0.0
H1868 H 0.63971 0.54015 0.73824 0.0
H1869 H 0.64498 0.5778 0.71742 0.0
H1870 H 0.63734 0.53346 0.70869 0.0
H1871 H 0.68226 0.58322 0.70585 0.0
H1872 H 0.81226 0.57207 0.71615 0.0
H1873 H 0.78685 0.50203 0.70757 0.0
H1874 H 0.66117 0.47432 0.71254 0.0
C1875 C 0.71579 0.622 0.73626 0.0
C1876 C 0.75189 0.65468 0.74159 0.0
C1877 C 0.79039 0.65778 0.73913 0.0
C1878 C 0.79313 0.62923 0.73134 0.0
C1879 C 0.75702 0.59742 0.72615 0.0
C1880 C 0.71897 0.59315 0.72872 0.0
C1881 C 0.68447 0.55351 0.72323 0.0
C1882 C 0.65528 0.52534 0.73355 0.0
C1883 C 0.66087 0.56256 0.7132 0.0
C1884 C 0.70898 0.53572 0.71745 0.0
C1885 C 0.75087 0.56211 0.71888 0.0
C1886 C 0.77955 0.55135 0.71485 0.0
C1887 C 0.76496 0.51175 0.70984 0.0
C1888 C 0.7222 0.4834 0.70915 0.0
C1889 C 0.69403 0.49604 0.71263 0.0
H1890 H 0.41099 0.13975 0.75428 0.0
H1891 H 0.36202 0.06801 0.72037 0.0
H1892 H 0.41945 0.12277 0.7083 0.0
H1893 H 0.44852 0.24042 0.74044 0.0
H1894 H 0.49468 0.26517 0.74978 0.0
H1895 H 0.44887 0.22102 0.75581 0.0
H1896 H 0.48956 0.18325 0.75961 0.0
H1897 H 0.53554 0.22745 0.75373 0.0
H1898 H 0.51758 0.17743 0.74686 0.0
H1899 H 0.48205 0.18562 0.69977 0.0
H1900 H 0.54937 0.24825 0.69591 0.0
H1901 H 0.55907 0.27828 0.73536 0.0
C1902 C 0.41244 0.13561 0.74432 0.0
C1903 C 0.38197 0.09961 0.73827 0.0
C1904 C 0.38507 0.09523 0.72523 0.0
C1905 C 0.41744 0.12631 0.71826 0.0
C1906 C 0.44676 0.16158 0.72445 0.0
C1907 C 0.44492 0.1662 0.73721 0.0
C1908 C 0.48154 0.20631 0.74165 0.0
C1909 C 0.46755 0.23492 0.74725 0.0
C1910 C 0.5076 0.1981 0.75101 0.0
C1911 C 0.50429 0.22326 0.72942 0.0
C1912 C 0.48342 0.19731 0.71958 0.0
C1913 C 0.49868 0.20624 0.7074 0.0
C1914 C 0.53688 0.24211 0.70527 0.0
C1915 C 0.55959 0.26834 0.7153 0.0
C1916 C 0.5425 0.25895 0.72747 0.0
H1917 H 0.93375 0.35093 0.74815 0.0
H1918 H 0.87115 0.2175 0.7464 0.0
H1919 H 0.81561 0.21649 0.73378 0.0
H1920 H 0.84098 0.35521 0.75239 0.0
H1921 H 0.85931 0.40192 0.74345 0.0
H1922 H 0.89543 0.39201 0.7515 0.0
H1923 H 0.93422 0.40086 0.73067 0.0
H1924 H 0.89774 0.41013 0.72252 0.0
H1925 H 0.90651 0.3695 0.71741 0.0
H1926 H 0.76793 0.23032 0.72061 0.0
H1927 H 0.72503 0.25688 0.71157 0.0
H1928 H 0.81473 0.38007 0.72387 0.0
C1929 C 0.90827 0.32158 0.7451 0.0
C1930 C 0.90667 0.2843 0.74819 0.0
C1931 C 0.87272 0.24639 0.74419 0.0
C1932 C 0.84128 0.24553 0.7369 0.0
C1933 C 0.84385 0.28283 0.7339 0.0
C1934 C 0.87595 0.32009 0.73813 0.0
C1935 C 0.86954 0.35541 0.73449 0.0
C1936 C 0.86609 0.37742 0.74615 0.0
C1937 C 0.90406 0.38576 0.72575 0.0
C1938 C 0.82878 0.33217 0.72764 0.0
C1939 C 0.81501 0.29047 0.72708 0.0
C1940 C 0.77828 0.2629 0.72106 0.0
C1941 C 0.75429 0.27819 0.71587 0.0
C1942 C 0.76673 0.32035 0.71705 0.0
C1943 C 0.8047 0.34767 0.72283 0.0
H1944 H 0.41782 0.28841 0.25096 0.0
H1945 H 0.3784 0.33713 0.22066 0.0
H1946 H 0.43269 0.33948 0.20712 0.0
H1947 H 0.52559 0.35203 0.24504 0.0
H1948 H 0.53758 0.31282 0.24925 0.0
H1949 H 0.4938 0.31254 0.25614 0.0
H1950 H 0.44687 0.23744 0.24845 0.0
H1951 H 0.49051 0.23789 0.24131 0.0
H1952 H 0.44575 0.22587 0.23207 0.0
H1953 H 0.49167 0.33667 0.19681 0.0
H1954 H 0.55759 0.34004 0.19182 0.0
H1955 H 0.56009 0.29603 0.22907 0.0
C1956 C 0.42069 0.29961 0.24148 0.0
C1957 C 0.3939 0.31256 0.23686 0.0
C1958 C 0.39876 0.32728 0.22443 0.0
C1959 C 0.42922 0.32831 0.21661 0.0
C1960 C 0.45479 0.31477 0.22138 0.0
C1961 C 0.45132 0.30139 0.23359 0.0
C1962 C 0.48459 0.29141 0.2367 0.0
C1963 C 0.51202 0.31885 0.24741 0.0
C1964 C 0.46579 0.24542 0.23982 0.0
C1965 C 0.50777 0.30205 0.22442 0.0
C1966 C 0.48955 0.31449 0.21559 0.0
C1967 C 0.50617 0.32688 0.20364 0.0
C1968 C 0.54343 0.32837 0.20084 0.0
C1969 C 0.56389 0.31829 0.21005 0.0
C1970 C 0.54501 0.30373 0.22182 0.0
H1971 H 0.76754 0.16853 0.24912 0.0
H1972 H 0.71901 0.08172 0.21838 0.0
H1973 H 0.71967 0.13528 0.2049 0.0
H1974 H 0.70557 0.21246 0.24324 0.0
H1975 H 0.74415 0.264 0.24774 0.0
H1976 H 0.74483 0.22041 0.25439 0.0
H1977 H 0.82021 0.25045 0.24684 0.0
H1978 H 0.81943 0.29387 0.23999 0.0
H1979 H 0.8323 0.26228 0.23053 0.0
H1980 H 0.72242 0.19733 0.19494 0.0
H1981 H 0.71685 0.25899 0.19047 0.0
H1982 H 0.76017 0.30418 0.22789 0.0
C1983 C 0.75755 0.16107 0.23951 0.0
C1984 C 0.74341 0.12108 0.23477 0.0
C1985 C 0.72984 0.11217 0.22221 0.0
C1986 C 0.7305 0.14251 0.21444 0.0
C1987 C 0.74452 0.18166 0.21936 0.0
C1988 C 0.75724 0.19087 0.23166 0.0
C1989 C 0.76657 0.2339 0.23501 0.0
C1990 C 0.7386 0.23259 0.24572 0.0
C1991 C 0.81235 0.26177 0.23828 0.0
C1992 C 0.75613 0.24694 0.22279 0.0
C1993 C 0.74453 0.21686 0.21376 0.0
C1994 C 0.73173 0.22127 0.2019 0.0
C1995 C 0.72895 0.25652 0.1994 0.0
C1996 C 0.73812 0.28634 0.20881 0.0
C1997 C 0.75322 0.282 0.22048 0.0
H1998 H 0.94646 0.62911 0.23144 0.0
H1999 H 0.87395 0.66953 0.25216 0.0
H2000 H 0.81158 0.61905 0.24083 0.0
H2001 H 0.8912 0.6089 0.20185 0.0
H2002 H 0.894 0.56338 0.19851 0.0
H2003 H 0.93393 0.60458 0.20759 0.0
H2004 H 0.92211 0.5537 0.22564 0.0
H2005 H 0.88308 0.51235 0.21645 0.0
H2006 H 0.87092 0.52218 0.2319 0.0
H2007 H 0.75673 0.56276 0.22804 0.0
H2008 H 0.71153 0.49715 0.2171 0.0
H2009 H 0.81851 0.49235 0.20464 0.0
C2010 C 0.91742 0.62724 0.23361 0.0
C2011 C 0.91507 0.65328 0.24269 0.0
C2012 C 0.87649 0.6498 0.24529 0.0
C2013 C 0.84095 0.62155 0.23879 0.0
C2014 C 0.84443 0.59694 0.22971 0.0
C2015 C 0.88151 0.59897 0.22725 0.0
C2016 C 0.87611 0.56676 0.21773 0.0
C2017 C 0.90025 0.58714 0.20571 0.0
C2018 C 0.88878 0.53698 0.22326 0.0
C2019 C 0.83002 0.54554 0.21549 0.0
C2020 C 0.81254 0.56415 0.22228 0.0
C2021 C 0.77009 0.54836 0.2225 0.0
C2022 C 0.74466 0.5114 0.21615 0.0
C2023 C 0.76178 0.49079 0.2097 0.0
C2024 C 0.80497 0.50869 0.20904 0.0
H2025 H 0.67631 0.0729 0.94153 0.0
H2026 H 0.54879 0.0124 0.92945 0.0
H2027 H 0.54118 0.06777 0.9392 0.0
H2028 H 0.66201 0.11112 0.97129 0.0
H2029 H 0.7099 0.15943 0.97019 0.0
H2030 H 0.70492 0.1139 0.9629 0.0
H2031 H 0.72635 0.15161 0.94156 0.0
H2032 H 0.73216 0.19736 0.94885 0.0
H2033 H 0.69869 0.17551 0.93554 0.0
H2034 H 0.548 0.13114 0.94974 0.0
H2035 H 0.57139 0.20125 0.95798 0.0
H2036 H 0.69423 0.22086 0.96292 0.0
C2037 C 0.64678 0.0713 0.94094 0.0
C2038 C 0.61313 0.03825 0.93472 0.0
C2039 C 0.57507 0.03744 0.93412 0.0
C2040 C 0.57033 0.06859 0.93973 0.0
C2041 C 0.60395 0.10048 0.94592 0.0
C2042 C 0.64159 0.10231 0.94643 0.0
C2043 C 0.67353 0.1412 0.95299 0.0
C2044 C 0.68846 0.13077 0.96506 0.0
C2045 C 0.70981 0.16801 0.94421 0.0
C2046 C 0.64825 0.16138 0.95585 0.0
C2047 C 0.60794 0.13704 0.95191 0.0
C2048 C 0.57932 0.15017 0.95301 0.0
C2049 C 0.59266 0.18979 0.95781 0.0
C2050 C 0.63414 0.21565 0.96142 0.0
C2051 C 0.66198 0.20094 0.96064 0.0
H2052 H 0.96161 0.59891 0.94065 0.0
H2053 H 0.00624 0.52449 0.9233 0.0
H2054 H 0.95073 0.46243 0.93361 0.0
H2055 H 0.9293 0.54329 0.97023 0.0
H2056 H 0.88365 0.54731 0.97149 0.0
H2057 H 0.92838 0.58668 0.9634 0.0
H2058 H 0.88457 0.57592 0.94357 0.0
H2059 H 0.83968 0.53728 0.9517 0.0
H2060 H 0.85458 0.52489 0.93706 0.0
H2061 H 0.88924 0.40799 0.9452 0.0
H2062 H 0.82076 0.36401 0.95485 0.0
H2063 H 0.81482 0.4727 0.96448 0.0
C2064 C 0.95967 0.56953 0.93903 0.0
C2065 C 0.98835 0.56658 0.93117 0.0
C2066 C 0.98458 0.52753 0.92923 0.0
C2067 C 0.95337 0.49213 0.93515 0.0
C2068 C 0.92598 0.49615 0.94298 0.0
C2069 C 0.9284 0.53373 0.94479 0.0
C2070 C 0.89328 0.52903 0.95296 0.0
C2071 C 0.90965 0.55301 0.96525 0.0
C2072 C 0.86644 0.54256 0.9459 0.0
C2073 C 0.8703 0.48284 0.95526 0.0
C2074 C 0.89021 0.4646 0.94962 0.0
C2075 C 0.87372 0.42198 0.94982 0.0
C2076 C 0.83508 0.39724 0.95543 0.0
C2077 C 0.81343 0.41516 0.96077 0.0
C2078 C 0.83168 0.4585 0.96093 0.0
H2079 H 0.43775 0.37302 0.9394 0.0
H2080 H 0.51512 0.49468 0.9235 0.0
H2081 H 0.57632 0.49804 0.93336 0.0
H2082 H 0.49216 0.39123 0.96885 0.0
H2083 H 0.48578 0.34038 0.96937 0.0
H2084 H 0.44788 0.34847 0.96163 0.0
H2085 H 0.4572 0.31684 0.94124 0.0
H2086 H 0.49445 0.30797 0.94899 0.0
H2087 H 0.50808 0.33738 0.93471 0.0
H2088 H 0.62941 0.48679 0.94444 0.0
H2089 H 0.67051 0.45873 0.95378 0.0
H2090 H 0.55836 0.34458 0.96225 0.0
C2091 C 0.46756 0.40043 0.938 0.0
C2092 C 0.47171 0.43365 0.93069 0.0
C2093 C 0.51128 0.46882 0.92903 0.0
C2094 C 0.54613 0.47113 0.93468 0.0
C2095 C 0.54085 0.43801 0.94197 0.0
C2096 C 0.50258 0.40314 0.94352 0.0
C2097 C 0.50539 0.37074 0.95117 0.0
C2098 C 0.48137 0.36222 0.96348 0.0
C2099 C 0.49042 0.33089 0.94357 0.0
C2100 C 0.55137 0.39243 0.9535 0.0
C2101 C 0.57127 0.43151 0.9483 0.0
C2102 C 0.61408 0.45651 0.94869 0.0
C2103 C 0.63716 0.44056 0.9541 0.0
C2104 C 0.61734 0.40014 0.95903 0.0
C2105 C 0.57398 0.37615 0.95894 0.0
H2106 H 0.62008 0.69457 0.77772 0.0
H2107 H 0.68017 0.82384 0.76751 0.0
H2108 H 0.62626 0.83036 0.77879 0.0
H2109 H 0.51763 0.67382 0.77349 0.0
H2110 H 0.49709 0.63792 0.78631 0.0
H2111 H 0.54205 0.64516 0.77814 0.0
H2112 H 0.58153 0.66258 0.79918 0.0
H2113 H 0.53685 0.65649 0.80734 0.0
H2114 H 0.58538 0.70406 0.80864 0.0
H2115 H 0.56363 0.82181 0.79064 0.0
H2116 H 0.49321 0.79625 0.79899 0.0
H2117 H 0.47456 0.67307 0.80124 0.0
C2118 C 0.62192 0.72426 0.77785 0.0
C2119 C 0.65437 0.7587 0.77172 0.0
C2120 C 0.65549 0.79696 0.77208 0.0
C2121 C 0.62524 0.80106 0.77858 0.0
C2122 C 0.59402 0.76664 0.78471 0.0
C2123 C 0.59189 0.72883 0.78423 0.0
C2124 C 0.55364 0.69585 0.79078 0.0
C2125 C 0.52597 0.66117 0.78163 0.0
C2126 C 0.56505 0.67875 0.80216 0.0
C2127 C 0.53401 0.7207 0.79477 0.0
C2128 C 0.55812 0.76171 0.79144 0.0
C2129 C 0.54483 0.78991 0.79346 0.0
C2130 C 0.50506 0.77535 0.79837 0.0
C2131 C 0.47916 0.73304 0.8011 0.0
C2132 C 0.49446 0.70585 0.79967 0.0
H2133 H 0.31035 0.92575 0.779 0.0
H2134 H 0.24966 0.87505 0.74361 0.0
H2135 H 0.24872 0.81011 0.74829 0.0
H2136 H 0.37452 0.88123 0.77932 0.0
H2137 H 0.3692 0.87086 0.79586 0.0
H2138 H 0.36463 0.91296 0.78973 0.0
H2139 H 0.29278 0.88259 0.8001 0.0
H2140 H 0.29695 0.84009 0.80615 0.0
H2141 H 0.25337 0.83031 0.79665 0.0
H2142 H 0.25842 0.7528 0.75619 0.0
H2143 H 0.27694 0.70623 0.76694 0.0
H2144 H 0.32669 0.79176 0.79795 0.0
C2145 C 0.29702 0.90101 0.77222 0.0
C2146 C 0.28041 0.90548 0.76087 0.0
C2147 C 0.26268 0.87227 0.75232 0.0
C2148 C 0.26191 0.83528 0.75492 0.0
C2149 C 0.27833 0.83178 0.76622 0.0
C2150 C 0.29532 0.86362 0.77477 0.0
C2151 C 0.31092 0.85189 0.78622 0.0
C2152 C 0.35759 0.88095 0.78787 0.0
C2153 C 0.28707 0.85118 0.79797 0.0
C2154 C 0.30092 0.80878 0.78263 0.0
C2155 C 0.28213 0.79784 0.77105 0.0
C2156 C 0.27252 0.76074 0.76534 0.0
C2157 C 0.28311 0.73451 0.77151 0.0
C2158 C 0.30259 0.74517 0.78333 0.0
C2159 C 0.31083 0.78241 0.78907 0.0
H2160 H 0.08683 0.41005 0.78235 0.0
H2161 H 0.15148 0.35388 0.76542 0.0
H2162 H 0.21627 0.40668 0.77521 0.0
H2163 H 0.16689 0.51389 0.77773 0.0
H2164 H 0.15771 0.53236 0.79222 0.0
H2165 H 0.11617 0.48825 0.78462 0.0
H2166 H 0.10336 0.44591 0.80494 0.0
H2167 H 0.14568 0.48978 0.81247 0.0
H2168 H 0.14487 0.44147 0.81169 0.0
H2169 H 0.27453 0.46706 0.78578 0.0
H2170 H 0.32384 0.53642 0.79385 0.0
H2171 H 0.22264 0.55424 0.80419 0.0
C2172 C 0.11464 0.40887 0.78072 0.0
C2173 C 0.11406 0.37777 0.77312 0.0
C2174 C 0.15115 0.37746 0.77116 0.0
C2175 C 0.18805 0.40707 0.7768 0.0
C2176 C 0.18747 0.43688 0.78439 0.0
C2177 C 0.15189 0.43842 0.78623 0.0
C2178 C 0.16046 0.47568 0.79403 0.0
C2179 C 0.14969 0.50424 0.78671 0.0
C2180 C 0.1372 0.4624 0.80652 0.0
C2181 C 0.20662 0.49544 0.796 0.0
C2182 C 0.22135 0.47199 0.79058 0.0
C2183 C 0.2633 0.48531 0.79026 0.0
C2184 C 0.2911 0.52453 0.79499 0.0
C2185 C 0.27689 0.54992 0.8 0.0
C2186 C 0.23408 0.53459 0.80093 0.0
H2187 H 0.38456 0.96328 0.06358 0.0
H2188 H 0.45666 0.98276 0.09719 0.0
H2189 H 0.46492 0.92366 0.09164 0.0
H2190 H 0.33104 0.85257 0.06411 0.0
H2191 H 0.33229 0.8474 0.04741 0.0
H2192 H 0.33246 0.89157 0.05397 0.0
H2193 H 0.39941 0.93968 0.04174 0.0
H2194 H 0.39976 0.89556 0.0353 0.0
H2195 H 0.44399 0.93416 0.04372 0.0
H2196 H 0.46336 0.86152 0.08307 0.0
H2197 H 0.44929 0.79755 0.07237 0.0
H2198 H 0.38097 0.8192 0.0437 0.0
C2199 C 0.40182 0.95487 0.0698 0.0
C2200 C 0.41982 0.97746 0.08086 0.0
C2201 C 0.44254 0.96582 0.0887 0.0
C2202 C 0.44759 0.93244 0.0856 0.0
C2203 C 0.43006 0.91121 0.07456 0.0
C2204 C 0.40753 0.92177 0.06678 0.0
C2205 C 0.39139 0.89321 0.05557 0.0
C2206 C 0.34399 0.8698 0.05525 0.0
C2207 C 0.40974 0.91709 0.04336 0.0
C2208 C 0.40775 0.86454 0.0584 0.0
C2209 C 0.43017 0.87574 0.06938 0.0
C2210 C 0.4463 0.85269 0.07439 0.0
C2211 C 0.43827 0.81651 0.06824 0.0
C2212 C 0.41463 0.8039 0.05714 0.0
C2213 C 0.40008 0.82879 0.05199 0.0
H2214 H 0.08707 0.4814 0.08466 0.0
H2215 H 0.04262 0.40428 0.05164 0.0
H2216 H 0.09941 0.45905 0.03926 0.0
H2217 H 0.12292 0.5802 0.06934 0.0
H2218 H 0.16813 0.60686 0.07902 0.0
H2219 H 0.12219 0.56294 0.08509 0.0
H2220 H 0.1636 0.52688 0.09048 0.0
H2221 H 0.20967 0.57096 0.08464 0.0
H2222 H 0.19342 0.52042 0.07844 0.0
H2223 H 0.1618 0.5225 0.03048 0.0
H2224 H 0.23063 0.58413 0.02695 0.0
H2225 H 0.23555 0.61761 0.06592 0.0
C2226 C 0.08929 0.47615 0.07481 0.0
C2227 C 0.0605 0.43873 0.06909 0.0
C2228 C 0.06457 0.43271 0.05622 0.0
C2229 C 0.09643 0.46379 0.04908 0.0
C2230 C 0.12415 0.50058 0.05497 0.0
C2231 C 0.12128 0.50657 0.0676 0.0
C2232 C 0.15688 0.54744 0.07191 0.0
C2233 C 0.1416 0.57604 0.07661 0.0
C2234 C 0.1824 0.54102 0.08195 0.0
C2235 C 0.18058 0.56316 0.0598 0.0
C2236 C 0.16077 0.53624 0.05005 0.0
C2237 C 0.17755 0.54388 0.03804 0.0
C2238 C 0.21645 0.57908 0.03608 0.0
C2239 C 0.23821 0.60549 0.04616 0.0
C2240 C 0.21941 0.59795 0.05804 0.0
H2241 H 0.62103 0.68401 0.06218 0.0
H2242 H 0.55518 0.55318 0.07064 0.0
H2243 H 0.49587 0.54433 0.05826 0.0
H2244 H 0.53448 0.6972 0.06526 0.0
H2245 H 0.55029 0.73483 0.05292 0.0
H2246 H 0.58835 0.72942 0.0615 0.0
H2247 H 0.61601 0.7177 0.04063 0.0
H2248 H 0.57704 0.72187 0.03205 0.0
H2249 H 0.58148 0.67654 0.0304 0.0
H2250 H 0.44208 0.55015 0.0461 0.0
H2251 H 0.39452 0.57224 0.03815 0.0
H2252 H 0.49445 0.69884 0.03747 0.0
C2253 C 0.59415 0.65349 0.06139 0.0
C2254 C 0.59279 0.61927 0.06737 0.0
C2255 C 0.55691 0.5799 0.0662 0.0
C2256 C 0.52322 0.57447 0.05905 0.0
C2257 C 0.52577 0.6087 0.05312 0.0
C2258 C 0.56006 0.64757 0.05437 0.0
C2259 C 0.55346 0.67983 0.04801 0.0
C2260 C 0.55681 0.7122 0.05748 0.0
C2261 C 0.58381 0.70018 0.03713 0.0
C2262 C 0.50969 0.6532 0.04327 0.0
C2263 C 0.49462 0.61209 0.04606 0.0
C2264 C 0.45378 0.5821 0.04363 0.0
C2265 C 0.42706 0.59476 0.03894 0.0
C2266 C 0.44128 0.63694 0.03674 0.0
C2267 C 0.48343 0.6662 0.03846 0.0
H2268 H 0.06909 0.60654 0.58729 0.0
H2269 H 0.03382 0.65276 0.55535 0.0
H2270 H 0.08649 0.64948 0.54251 0.0
H2271 H 0.17635 0.66644 0.58148 0.0
H2272 H 0.18782 0.62775 0.58673 0.0
H2273 H 0.14392 0.62879 0.59295 0.0
H2274 H 0.09681 0.55271 0.58619 0.0
H2275 H 0.14064 0.55175 0.57976 0.0
H2276 H 0.09645 0.53853 0.57009 0.0
H2277 H 0.14486 0.64433 0.53324 0.0
H2278 H 0.2114 0.6483 0.52927 0.0
H2279 H 0.21176 0.60869 0.56731 0.0
C2280 C 0.07228 0.6155 0.57756 0.0
C2281 C 0.04728 0.62975 0.5723 0.0
C2282 C 0.05278 0.64193 0.55959 0.0
C2283 C 0.08233 0.63976 0.55217 0.0
C2284 C 0.10658 0.62569 0.55759 0.0
C2285 C 0.1024 0.61438 0.57005 0.0
C2286 C 0.13541 0.60466 0.57386 0.0
C2287 C 0.16248 0.63365 0.58437 0.0
C2288 C 0.11617 0.5592 0.5777 0.0
C2289 C 0.15925 0.61324 0.56171 0.0
C2290 C 0.14143 0.62424 0.55235 0.0
C2291 C 0.15894 0.63541 0.54047 0.0
C2292 C 0.19663 0.63718 0.53824 0.0
C2293 C 0.21675 0.62851 0.54792 0.0
C2294 C 0.19695 0.61508 0.55967 0.0
H2295 H 0.43517 0.49355 0.58603 0.0
H2296 H 0.38689 0.40775 0.55503 0.0
H2297 H 0.38574 0.46124 0.54194 0.0
H2298 H 0.37105 0.53532 0.581 0.0
H2299 H 0.40896 0.58695 0.58564 0.0
H2300 H 0.41108 0.54369 0.59191 0.0
H2301 H 0.48636 0.57578 0.58402 0.0
H2302 H 0.48409 0.61885 0.57752 0.0
H2303 H 0.49761 0.58849 0.56771 0.0
H2304 H 0.38652 0.52281 0.53248 0.0
H2305 H 0.37796 0.5829 0.52867 0.0
H2306 H 0.42242 0.62747 0.56604 0.0
C2307 C 0.42483 0.4863 0.57644 0.0
C2308 C 0.41131 0.44668 0.57151 0.0
C2309 C 0.39724 0.43795 0.559 0.0
C2310 C 0.39692 0.46825 0.55144 0.0
C2311 C 0.41047 0.5071 0.55655 0.0
C2312 C 0.42353 0.516 0.56883 0.0
C2313 C 0.43195 0.5585 0.57247 0.0
C2314 C 0.40409 0.55594 0.58339 0.0
C2315 C 0.47773 0.58709 0.57561 0.0
C2316 C 0.42052 0.57158 0.56045 0.0
C2317 C 0.40937 0.54204 0.55126 0.0
C2318 C 0.39558 0.54637 0.53957 0.0
C2319 C 0.39119 0.58084 0.53742 0.0
C2320 C 0.39983 0.60997 0.54702 0.0
C2321 C 0.41604 0.60589 0.55849 0.0
H2322 H 0.5946 0.95555 0.56758 0.0
H2323 H 0.52223 0.98899 0.59122 0.0
H2324 H 0.45849 0.93461 0.5814 0.0
H2325 H 0.53019 0.93014 0.53975 0.0
H2326 H 0.536 0.88687 0.53559 0.0
H2327 H 0.57656 0.92998 0.54392 0.0
H2328 H 0.57402 0.88113 0.56144 0.0
H2329 H 0.53428 0.83794 0.553 0.0
H2330 H 0.52555 0.84694 0.56895 0.0
H2331 H 0.40259 0.87499 0.56989 0.0
H2332 H 0.35807 0.80836 0.55937 0.0
H2333 H 0.46558 0.8133 0.54288 0.0
C2334 C 0.56532 0.95133 0.5707 0.0
C2335 C 0.5634 0.97653 0.58018 0.0
C2336 C 0.52449 0.97 0.58402 0.0
C2337 C 0.4881 0.93945 0.5784 0.0
C2338 C 0.49106 0.91568 0.56893 0.0
C2339 C 0.52859 0.92084 0.5652 0.0
C2340 C 0.52289 0.88929 0.55538 0.0
C2341 C 0.54259 0.91034 0.54292 0.0
C2342 C 0.54019 0.86221 0.55997 0.0
C2343 C 0.47624 0.86492 0.55441 0.0
C2344 C 0.45858 0.88123 0.56215 0.0
C2345 C 0.416 0.86236 0.56363 0.0
C2346 C 0.39091 0.82481 0.55752 0.0
C2347 C 0.40843 0.80672 0.55001 0.0
C2348 C 0.45148 0.8276 0.54813 0.0
H2349 H 0.34974 0.43018 0.27008 0.0
H2350 H 0.2165 0.3548 0.27133 0.0
H2351 H 0.21333 0.40809 0.28408 0.0
H2352 H 0.36532 0.47308 0.30117 0.0
H2353 H 0.40582 0.52348 0.29643 0.0
H2354 H 0.39775 0.4784 0.28805 0.0
H2355 H 0.38968 0.50914 0.26728 0.0
H2356 H 0.39868 0.5546 0.27555 0.0
H2357 H 0.35258 0.52599 0.26636 0.0
H2358 H 0.22528 0.47057 0.29685 0.0
H2359 H 0.25042 0.54105 0.30519 0.0
H2360 H 0.37491 0.57568 0.29456 0.0
C2361 C 0.3199 0.42492 0.27304 0.0
C2362 C 0.28337 0.3884 0.26975 0.0
C2363 C 0.24487 0.38275 0.27369 0.0
C2364 C 0.2428 0.41262 0.28105 0.0
C2365 C 0.27951 0.4481 0.2843 0.0
C2366 C 0.31726 0.45464 0.28021 0.0
C2367 C 0.35195 0.4966 0.28413 0.0
C2368 C 0.38198 0.49262 0.29297 0.0
C2369 C 0.37452 0.52315 0.27265 0.0
C2370 C 0.32787 0.51291 0.29095 0.0
C2371 C 0.2862 0.48424 0.29123 0.0
C2372 C 0.25787 0.49316 0.29674 0.0
C2373 C 0.27236 0.533 0.30158 0.0
C2374 C 0.31454 0.56326 0.30065 0.0
C2375 C 0.34259 0.55268 0.29557 0.0
H2376 H 0.61781 0.89806 0.25798 0.0
H2377 H 0.65784 0.98759 0.28801 0.0
H2378 H 0.60375 0.9353 0.30174 0.0
H2379 H 0.50958 0.85145 0.26431 0.0
H2380 H 0.49859 0.80043 0.26011 0.0
H2381 H 0.5414 0.84486 0.25303 0.0
H2382 H 0.5901 0.81898 0.26043 0.0
H2383 H 0.54748 0.77491 0.26778 0.0
H2384 H 0.59245 0.8091 0.27679 0.0
H2385 H 0.54524 0.87196 0.31234 0.0
H2386 H 0.48097 0.80695 0.31764 0.0
H2387 H 0.47898 0.76076 0.28039 0.0
C2388 C 0.61503 0.90672 0.26742 0.0
C2389 C 0.64195 0.94683 0.27193 0.0
C2390 C 0.6373 0.95706 0.28433 0.0
C2391 C 0.60695 0.92746 0.29224 0.0
C2392 C 0.58138 0.88787 0.28758 0.0
C2393 C 0.58469 0.87775 0.27538 0.0
C2394 C 0.5521 0.83384 0.2724 0.0
C2395 C 0.52374 0.83259 0.26184 0.0
C2396 C 0.57172 0.80768 0.26916 0.0
C2397 C 0.52965 0.82091 0.28478 0.0
C2398 C 0.54735 0.85213 0.29352 0.0
C2399 C 0.53115 0.84729 0.30556 0.0
C2400 C 0.49493 0.81019 0.30854 0.0
C2401 C 0.47521 0.77897 0.29943 0.0
C2402 C 0.49357 0.78412 0.28756 0.0
H2403 H 0.0974 0.68725 0.26785 0.0
H2404 H 0.15236 0.8196 0.27178 0.0
H2405 H 0.20863 0.82232 0.28442 0.0
H2406 H 0.12397 0.66613 0.29833 0.0
H2407 H 0.13628 0.62848 0.29264 0.0
H2408 H 0.09865 0.63626 0.2846 0.0
H2409 H 0.13985 0.65096 0.26396 0.0
H2410 H 0.17708 0.64245 0.27188 0.0
H2411 H 0.19363 0.69019 0.26368 0.0
H2412 H 0.25832 0.81027 0.29713 0.0
H2413 H 0.3043 0.78625 0.30541 0.0
H2414 H 0.2201 0.66339 0.2916 0.0
C2415 C 0.12136 0.71673 0.27136 0.0
C2416 C 0.12062 0.75319 0.26888 0.0
C2417 C 0.15262 0.79134 0.27351 0.0
C2418 C 0.18444 0.79314 0.28082 0.0
C2419 C 0.18412 0.75659 0.28325 0.0
C2420 C 0.15395 0.71924 0.27842 0.0
C2421 C 0.16263 0.68507 0.28152 0.0
C2422 C 0.12833 0.65204 0.28976 0.0
C2423 C 0.16867 0.66607 0.26955 0.0
C2424 C 0.2025 0.70909 0.28874 0.0
C2425 C 0.21388 0.75009 0.28994 0.0
C2426 C 0.24977 0.77824 0.29623 0.0
C2427 C 0.2755 0.76437 0.301 0.0
C2428 C 0.26545 0.72311 0.29914 0.0
C2429 C 0.22817 0.69508 0.29318 0.0
loop_
_geom_bond_atom_site_label_1
_geom_bond_atom_site_label_2
_geom_bond_distance
_geom_bond_site_symmetry_2
_ccdc_geom_bond_type
In0 O1 2.294 . S
In0 O2 2.326 . S
In0 O6 2.266 . S
In0 O7 2.326 1_545 S
In0 O8 2.266 1_545 S
In0 O9 2.326 . S
In0 O11 2.294 1_545 S
In0 O12 2.326 . S
O1 In0 2.294 . S
O1 C10 1.240 . S
O2 In0 2.326 . S
O2 C10 1.252 . S
C3 O6 1.252 . S
C3 O7 1.260 1_545 S
C4 O11 1.240 1_545 S
C4 O12 1.252 . S
C5 O8 1.252 . S
C5 O9 1.260 1_565 S
O6 In0 2.266 . S
O6 C3 1.252 . S
O7 In0 2.326 1_565 S
O7 C3 1.260 1_565 S
O8 In0 2.266 1_565 S
O8 C5 1.252 . S
O9 In0 2.326 . S
O9 C5 1.260 1_545 S
C10 O1 1.240 . S
C10 O2 1.252 . S
O11 In0 2.294 1_565 S
O11 C4 1.240 1_565 S
O12 In0 2.326 . S
O12 C4 1.252 . S
In13 O14 2.294 . S
In13 O15 2.326 . S
In13 O19 2.266 . S
In13 O20 2.326 1_455 S
In13 O21 2.266 1_455 S
In13 O22 2.326 . S
In13 O24 2.294 1_455 S
In13 O25 2.326 . S
O14 In13 2.294 . S
O14 C23 1.240 . S
O15 In13 2.326 . S
O15 C23 1.252 . S
C16 O19 1.252 . S
C16 O20 1.260 1_455 S
C17 O24 1.240 1_455 S
C17 O25 1.252 . S
C18 O21 1.252 . S
C18 O22 1.260 1_655 S
O19 In13 2.266 . S
O19 C16 1.252 . S
O20 In13 2.326 1_655 S
O20 C16 1.260 1_655 S
O21 In13 2.266 1_655 S
O21 C18 1.252 . S
O22 In13 2.326 . S
O22 C18 1.260 1_455 S
C23 O14 1.240 . S
C23 O15 1.252 . S
O24 In13 2.294 1_655 S
O24 C17 1.240 1_655 S
O25 In13 2.326 . S
O25 C17 1.252 . S
In26 O27 2.294 . S
In26 O28 2.326 . S
In26 O32 2.266 . S
In26 O33 2.326 . S
In26 O34 2.266 . S
In26 O35 2.326 . S
In26 O37 2.294 . S
In26 O38 2.326 . S
O27 In26 2.294 . S
O27 C36 1.240 . S
O28 In26 2.326 . S
O28 C36 1.252 . S
C29 O32 1.252 . S
C29 O33 1.260 . S
C30 O37 1.240 . S
C30 O38 1.252 . S
C31 O34 1.252 . S
C31 O35 1.260 . S
O32 In26 2.266 . S
O32 C29 1.252 . S
O33 In26 2.326 . S
O33 C29 1.260 . S
O34 In26 2.266 . S
O34 C31 1.252 . S
O35 In26 2.326 . S
O35 C31 1.260 . S
C36 O27 1.240 . S
C36 O28 1.252 . S
O37 In26 2.294 . S
O37 C30 1.240 . S
O38 In26 2.326 . S
O38 C30 1.252 . S
In39 O40 2.294 . S
In39 O41 2.326 1_545 S
In39 O45 2.266 . S
In39 O46 2.326 . S
In39 O47 2.266 1_545 S
In39 O48 2.326 . S
In39 O50 2.294 1_545 S
In39 O51 2.326 . S
O40 In39 2.294 . S
O40 C49 1.240 . S
O41 In39 2.326 1_565 S
O41 C49 1.252 1_565 S
C42 O45 1.252 . S
C42 O46 1.260 . S
C43 O50 1.240 . S
C43 O51 1.252 1_565 S
C44 O47 1.252 1_545 S
C44 O48 1.260 . S
O45 In39 2.266 . S
O45 C42 1.252 . S
O46 In39 2.326 . S
O46 C42 1.260 . S
O47 In39 2.266 1_565 S
O47 C44 1.252 1_565 S
O48 In39 2.326 . S
O48 C44 1.260 . S
C49 O40 1.240 . S
C49 O41 1.252 1_545 S
O50 In39 2.294 1_565 S
O50 C43 1.240 . S
O51 In39 2.326 . S
O51 C43 1.252 1_545 S
In52 O53 2.294 . S
In52 O54 2.326 1_455 S
In52 O58 2.266 . S
In52 O59 2.326 . S
In52 O60 2.266 1_455 S
In52 O61 2.326 . S
In52 O63 2.294 1_455 S
In52 O64 2.326 . S
O53 In52 2.294 . S
O53 C62 1.240 . S
O54 In52 2.326 1_655 S
O54 C62 1.252 1_655 S
C55 O58 1.252 . S
C55 O59 1.260 . S
C56 O63 1.240 . S
C56 O64 1.252 1_655 S
C57 O60 1.252 1_455 S
C57 O61 1.260 . S
O58 In52 2.266 . S
O58 C55 1.252 . S
O59 In52 2.326 . S
O59 C55 1.260 . S
O60 In52 2.266 1_655 S
O60 C57 1.252 1_655 S
O61 In52 2.326 . S
O61 C57 1.260 . S
C62 O53 1.240 . S
C62 O54 1.252 1_455 S
O63 In52 2.294 1_655 S
O63 C56 1.240 . S
O64 In52 2.326 . S
O64 C56 1.252 1_455 S
In65 O66 2.294 . S
In65 O67 2.326 . S
In65 O71 2.266 . S
In65 O72 2.326 . S
In65 O73 2.266 . S
In65 O74 2.326 . S
In65 O76 2.294 . S
In65 O77 2.326 . S
O66 In65 2.294 . S
O66 C75 1.240 . S
O67 In65 2.326 . S
O67 C75 1.252 . S
C68 O71 1.252 . S
C68 O72 1.260 . S
C69 O76 1.240 . S
C69 O77 1.252 . S
C70 O73 1.252 . S
C70 O74 1.260 . S
O71 In65 2.266 . S
O71 C68 1.252 . S
O72 In65 2.326 . S
O72 C68 1.260 . S
O73 In65 2.266 . S
O73 C70 1.252 . S
O74 In65 2.326 . S
O74 C70 1.260 . S
C75 O66 1.240 . S
C75 O67 1.252 . S
O76 In65 2.294 . S
O76 C69 1.240 . S
O77 In65 2.326 . S
O77 C69 1.252 . S
In78 O79 2.294 . S
In78 O80 2.326 . S
In78 O84 2.266 . S
In78 O85 2.326 . S
In78 O86 2.266 . S
In78 O87 2.326 . S
In78 O89 2.294 . S
In78 O90 2.326 . S
O79 In78 2.294 . S
O79 C88 1.240 . S
O80 In78 2.326 . S
O80 C88 1.252 . S
C81 O84 1.252 . S
C81 O85 1.260 . S
C82 O89 1.240 . S
C82 O90 1.252 . S
C83 O86 1.252 . S
C83 O87 1.260 . S
O84 In78 2.266 . S
O84 C81 1.252 . S
O85 In78 2.326 . S
O85 C81 1.260 . S
O86 In78 2.266 . S
O86 C83 1.252 . S
O87 In78 2.326 . S
O87 C83 1.260 . S
C88 O79 1.240 . S
C88 O80 1.252 . S
O89 In78 2.294 . S
O89 C82 1.240 . S
O90 In78 2.326 . S
O90 C82 1.252 . S
In91 O92 2.294 . S
In91 O93 2.326 . S
In91 O97 2.266 . S
In91 O98 2.326 . S
In91 O99 2.266 . S
In91 O100 2.326 . S
In91 O102 2.294 . S
In91 O103 2.326 . S
O92 In91 2.294 . S
O92 C101 1.240 . S
O93 In91 2.326 . S
O93 C101 1.252 . S
C94 O97 1.252 . S
C94 O98 1.260 . S
C95 O102 1.240 . S
C95 O103 1.252 . S
C96 O99 1.252 . S
C96 O100 1.260 . S
O97 In91 2.266 . S
O97 C94 1.252 . S
O98 In91 2.326 . S
O98 C94 1.260 . S
O99 In91 2.266 . S
O99 C96 1.252 . S
O100 In91 2.326 . S
O100 C96 1.260 . S
C101 O92 1.240 . S
C101 O93 1.252 . S
O102 In91 2.294 . S
O102 C95 1.240 . S
O103 In91 2.326 . S
O103 C95 1.252 . S
In104 O105 2.294 . S
In104 O106 2.326 1_655 S
In104 O110 2.266 . S
In104 O111 2.326 . S
In104 O112 2.266 1_655 S
In104 O113 2.326 1_655 S
In104 O115 2.294 . S
In104 O116 2.326 . S
O105 In104 2.294 . S
O105 C114 1.240 . S
O106 In104 2.326 1_455 S
O106 C114 1.252 1_455 S
C107 O110 1.252 . S
C107 O111 1.260 . S
C108 O115 1.240 . S
C108 O116 1.252 . S
C109 O112 1.252 . S
C109 O113 1.260 . S
O110 In104 2.266 . S
O110 C107 1.252 . S
O111 In104 2.326 . S
O111 C107 1.260 . S
O112 In104 2.266 1_455 S
O112 C109 1.252 . S
O113 In104 2.326 1_455 S
O113 C109 1.260 . S
C114 O105 1.240 . S
C114 O106 1.252 1_655 S
O115 In104 2.294 . S
O115 C108 1.240 . S
O116 In104 2.326 . S
O116 C108 1.252 . S
In117 O118 2.294 . S
In117 O119 2.326 . S
In117 O123 2.266 . S
In117 O124 2.326 . S
In117 O125 2.266 1_655 S
In117 O126 2.326 1_655 S
In117 O128 2.294 . S
In117 O129 2.326 . S
O118 In117 2.294 . S
O118 C127 1.240 . S
O119 In117 2.326 . S
O119 C127 1.252 . S
C120 O123 1.252 . S
C120 O124 1.260 . S
C121 O128 1.240 . S
C121 O129 1.252 . S
C122 O125 1.252 . S
C122 O126 1.260 . S
O123 In117 2.266 . S
O123 C120 1.252 . S
O124 In117 2.326 . S
O124 C120 1.260 . S
O125 In117 2.266 1_455 S
O125 C122 1.252 . S
O126 In117 2.326 1_455 S
O126 C122 1.260 . S
C127 O118 1.240 . S
C127 O119 1.252 . S
O128 In117 2.294 . S
O128 C121 1.240 . S
O129 In117 2.326 . S
O129 C121 1.252 . S
In130 O131 2.294 . S
In130 O132 2.326 . S
In130 O136 2.266 . S
In130 O137 2.326 . S
In130 O138 2.266 . S
In130 O139 2.326 . S
In130 O141 2.294 . S
In130 O142 2.326 . S
O131 In130 2.294 . S
O131 C140 1.240 . S
O132 In130 2.326 . S
O132 C140 1.252 . S
C133 O136 1.252 . S
C133 O137 1.260 . S
C134 O141 1.240 . S
C134 O142 1.252 . S
C135 O138 1.252 . S
C135 O139 1.260 . S
O136 In130 2.266 . S
O136 C133 1.252 . S
O137 In130 2.326 . S
O137 C133 1.260 . S
O138 In130 2.266 . S
O138 C135 1.252 . S
O139 In130 2.326 . S
O139 C135 1.260 . S
C140 O131 1.240 . S
C140 O132 1.252 . S
O141 In130 2.294 . S
O141 C134 1.240 . S
O142 In130 2.326 . S
O142 C134 1.252 . S
In143 O144 2.294 . S
In143 O145 2.326 . S
In143 O149 2.266 . S
In143 O150 2.326 . S
In143 O151 2.266 . S
In143 O152 2.326 . S
In143 O154 2.294 . S
In143 O155 2.326 . S
O144 In143 2.294 . S
O144 C153 1.240 . S
O145 In143 2.326 . S
O145 C153 1.252 . S
C146 O149 1.252 . S
C146 O150 1.260 . S
C147 O154 1.240 . S
C147 O155 1.252 . S
C148 O151 1.252 . S
C148 O152 1.260 . S
O149 In143 2.266 . S
O149 C146 1.252 . S
O150 In143 2.326 . S
O150 C146 1.260 . S
O151 In143 2.266 . S
O151 C148 1.252 . S
O152 In143 2.326 . S
O152 C148 1.260 . S
C153 O144 1.240 . S
C153 O145 1.252 . S
O154 In143 2.294 . S
O154 C147 1.240 . S
O155 In143 2.326 . S
O155 C147 1.252 . S
In156 O157 2.294 . S
In156 O158 2.326 . S
In156 O162 2.266 . S
In156 O163 2.326 . S
In156 O164 2.266 . S
In156 O165 2.326 . S
In156 O167 2.294 . S
In156 O168 2.326 . S
O157 In156 2.294 . S
O157 C166 1.240 . S
O158 In156 2.326 . S
O158 C166 1.252 . S
C159 O162 1.252 . S
C159 O163 1.260 . S
C160 O167 1.240 . S
C160 O168 1.252 . S
C161 O164 1.252 . S
C161 O165 1.260 . S
O162 In156 2.266 . S
O162 C159 1.252 . S
O163 In156 2.326 . S
O163 C159 1.260 . S
O164 In156 2.266 . S
O164 C161 1.252 . S
O165 In156 2.326 . S
O165 C161 1.260 . S
C166 O157 1.240 . S
C166 O158 1.252 . S
O167 In156 2.294 . S
O167 C160 1.240 . S
O168 In156 2.326 . S
O168 C160 1.252 . S
In169 O170 2.294 . S
In169 O171 2.326 . S
In169 O175 2.266 . S
In169 O176 2.326 . S
In169 O177 2.266 . S
In169 O178 2.326 . S
In169 O180 2.294 . S
In169 O181 2.326 . S
O170 In169 2.294 . S
O170 C179 1.240 . S
O171 In169 2.326 . S
O171 C179 1.252 . S
C172 O175 1.252 . S
C172 O176 1.260 . S
C173 O180 1.240 . S
C173 O181 1.252 . S
C174 O177 1.252 . S
C174 O178 1.260 . S
O175 In169 2.266 . S
O175 C172 1.252 . S
O176 In169 2.326 . S
O176 C172 1.260 . S
O177 In169 2.266 . S
O177 C174 1.252 . S
O178 In169 2.326 . S
O178 C174 1.260 . S
C179 O170 1.240 . S
C179 O171 1.252 . S
O180 In169 2.294 . S
O180 C173 1.240 . S
O181 In169 2.326 . S
O181 C173 1.252 . S
In182 O183 2.294 . S
In182 O184 2.326 . S
In182 O188 2.266 . S
In182 O189 2.326 1_565 S
In182 O190 2.266 . S
In182 O191 2.326 . S
In182 O193 2.294 1_565 S
In182 O194 2.326 1_565 S
O183 In182 2.294 . S
O183 C192 1.240 . S
O184 In182 2.326 . S
O184 C192 1.252 . S
C185 O188 1.252 . S
C185 O189 1.260 1_565 S
C186 O193 1.240 . S
C186 O194 1.252 . S
C187 O190 1.252 . S
C187 O191 1.260 . S
O188 In182 2.266 . S
O188 C185 1.252 . S
O189 In182 2.326 1_545 S
O189 C185 1.260 1_545 S
O190 In182 2.266 . S
O190 C187 1.252 . S
O191 In182 2.326 . S
O191 C187 1.260 . S
C192 O183 1.240 . S
C192 O184 1.252 . S
O193 In182 2.294 1_545 S
O193 C186 1.240 . S
O194 In182 2.326 1_545 S
O194 C186 1.252 . S
In195 O196 2.294 . S
In195 O197 2.326 . S
In195 O201 2.266 . S
In195 O202 2.326 . S
In195 O203 2.266 . S
In195 O204 2.326 . S
In195 O206 2.294 . S
In195 O207 2.326 . S
O196 In195 2.294 . S
O196 C205 1.240 . S
O197 In195 2.326 . S
O197 C205 1.252 . S
C198 O201 1.252 . S
C198 O202 1.260 . S
C199 O206 1.240 . S
C199 O207 1.252 . S
C200 O203 1.252 . S
C200 O204 1.260 . S
O201 In195 2.266 . S
O201 C198 1.252 . S
O202 In195 2.326 . S
O202 C198 1.260 . S
O203 In195 2.266 . S
O203 C200 1.252 . S
O204 In195 2.326 . S
O204 C200 1.260 . S
C205 O196 1.240 . S
C205 O197 1.252 . S
O206 In195 2.294 . S
O206 C199 1.240 . S
O207 In195 2.326 . S
O207 C199 1.252 . S
In208 O209 2.294 . S
In208 O210 2.326 . S
In208 O214 2.266 1_565 S
In208 O215 2.326 1_565 S
In208 O216 2.266 . S
In208 O217 2.326 . S
In208 O219 2.294 . S
In208 O220 2.326 . S
O209 In208 2.294 . S
O209 C218 1.240 . S
O210 In208 2.326 . S
O210 C218 1.252 . S
C211 O214 1.252 . S
C211 O215 1.260 . S
C212 O219 1.240 . S
C212 O220 1.252 . S
C213 O216 1.252 . S
C213 O217 1.260 . S
O214 In208 2.266 1_545 S
O214 C211 1.252 . S
O215 In208 2.326 1_545 S
O215 C211 1.260 . S
O216 In208 2.266 . S
O216 C213 1.252 . S
O217 In208 2.326 . S
O217 C213 1.260 . S
C218 O209 1.240 . S
C218 O210 1.252 . S
O219 In208 2.294 . S
O219 C212 1.240 . S
O220 In208 2.326 . S
O220 C212 1.252 . S
In221 O222 2.294 . S
In221 O223 2.326 . S
In221 O227 2.266 . S
In221 O228 2.326 . S
In221 O229 2.266 . S
In221 O230 2.326 . S
In221 O232 2.294 . S
In221 O233 2.326 . S
O222 In221 2.294 . S
O222 C231 1.240 . S
O223 In221 2.326 . S
O223 C231 1.252 . S
C224 O227 1.252 . S
C224 O228 1.260 . S
C225 O232 1.240 . S
C225 O233 1.252 . S
C226 O229 1.252 . S
C226 O230 1.260 . S
O227 In221 2.266 . S
O227 C224 1.252 . S
O228 In221 2.326 . S
O228 C224 1.260 . S
O229 In221 2.266 . S
O229 C226 1.252 . S
O230 In221 2.326 . S
O230 C226 1.260 . S
C231 O222 1.240 . S
C231 O223 1.252 . S
O232 In221 2.294 . S
O232 C225 1.240 . S
O233 In221 2.326 . S
O233 C225 1.252 . S
Zn234 O240 1.920 1_455 S
Zn234 O246 1.898 1_445 S
Zn234 O249 1.905 . S
Zn235 O243 1.905 1_545 S
Zn235 O244 1.898 . S
Zn235 O252 1.920 1_455 S
Zn236 O239 2.080 . S
Zn236 O242 2.114 1_545 S
Zn236 O245 2.120 . S
Zn236 O247 2.120 1_445 S
Zn236 O248 2.114 . S
Zn236 O251 2.080 1_455 S
C237 O242 1.166 . S
C237 O243 1.182 . S
C238 O244 1.167 . S
C238 O245 1.299 . S
O239 Zn236 2.080 . S
O239 C253 1.305 . S
O240 Zn234 1.920 1_655 S
O240 C253 1.234 1_655 S
C241 O246 1.167 . S
C241 O247 1.299 . S
O242 Zn236 2.114 1_565 S
O242 C237 1.166 . S
O243 Zn235 1.905 1_565 S
O243 C237 1.182 . S
O244 Zn235 1.898 . S
O244 C238 1.167 . S
O245 Zn236 2.120 . S
O245 C238 1.299 . S
O246 Zn234 1.898 1_665 S
O246 C241 1.167 . S
O247 Zn236 2.120 1_665 S
O247 C241 1.299 . S
O248 Zn236 2.114 . S
O248 C250 1.166 . S
O249 Zn234 1.905 . S
O249 C250 1.182 . S
C250 O248 1.166 . S
C250 O249 1.182 . S
O251 Zn236 2.080 1_655 S
O251 C254 1.305 . S
O252 Zn235 1.920 1_655 S
O252 C254 1.234 . S
C253 O239 1.305 . S
C253 O240 1.234 1_455 S
C254 O251 1.305 . S
C254 O252 1.234 . S
Zn255 O261 1.920 1_545 S
Zn255 O267 1.898 . S
Zn255 O270 1.905 1_455 S
Zn256 O264 1.905 . S
Zn256 O265 1.898 1_445 S
Zn256 O273 1.920 1_545 S
Zn257 O260 2.080 1_545 S
Zn257 O263 2.114 . S
Zn257 O266 2.120 1_445 S
Zn257 O268 2.120 . S
Zn257 O269 2.114 1_455 S
Zn257 O272 2.080 . S
C258 O263 1.166 . S
C258 O264 1.182 . S
C259 O265 1.167 . S
C259 O266 1.299 . S
O260 Zn257 2.080 1_565 S
O260 C274 1.305 . S
O261 Zn255 1.920 1_565 S
O261 C274 1.234 . S
C262 O267 1.167 . S
C262 O268 1.299 . S
O263 Zn257 2.114 . S
O263 C258 1.166 . S
O264 Zn256 1.905 . S
O264 C258 1.182 . S
O265 Zn256 1.898 1_665 S
O265 C259 1.167 . S
O266 Zn257 2.120 1_665 S
O266 C259 1.299 . S
O267 Zn255 1.898 . S
O267 C262 1.167 . S
O268 Zn257 2.120 . S
O268 C262 1.299 . S
O269 Zn257 2.114 1_655 S
O269 C271 1.166 . S
O270 Zn255 1.905 1_655 S
O270 C271 1.182 . S
C271 O269 1.166 . S
C271 O270 1.182 . S
O272 Zn257 2.080 . S
O272 C275 1.305 . S
O273 Zn256 1.920 1_565 S
O273 C275 1.234 1_565 S
C274 O260 1.305 . S
C274 O261 1.234 . S
C275 O272 1.305 . S
C275 O273 1.234 1_545 S
Zn276 O282 1.920 1_545 S
Zn276 O288 1.898 . S
Zn276 O291 1.905 1_445 S
Zn277 O285 1.905 . S
Zn277 O286 1.898 1_445 S
Zn277 O294 1.920 . S
Zn278 O281 2.080 1_545 S
Zn278 O284 2.114 . S
Zn278 O287 2.120 1_445 S
Zn278 O289 2.120 . S
Zn278 O290 2.114 1_455 S
Zn278 O293 2.080 . S
C279 O284 1.166 . S
C279 O285 1.182 . S
C280 O286 1.167 . S
C280 O287 1.299 . S
O281 Zn278 2.080 1_565 S
O281 C295 1.305 . S
O282 Zn276 1.920 1_565 S
O282 C295 1.234 . S
C283 O288 1.167 . S
C283 O289 1.299 . S
O284 Zn278 2.114 . S
O284 C279 1.166 . S
O285 Zn277 1.905 . S
O285 C279 1.182 . S
O286 Zn277 1.898 1_665 S
O286 C280 1.167 . S
O287 Zn278 2.120 1_665 S
O287 C280 1.299 . S
O288 Zn276 1.898 . S
O288 C283 1.167 . S
O289 Zn278 2.120 . S
O289 C283 1.299 . S
O290 Zn278 2.114 1_655 S
O290 C292 1.166 . S
O291 Zn276 1.905 1_665 S
O291 C292 1.182 1_565 S
C292 O290 1.166 . S
C292 O291 1.182 1_545 S
O293 Zn278 2.080 . S
O293 C296 1.305 . S
O294 Zn277 1.920 . S
O294 C296 1.234 . S
C295 O281 1.305 . S
C295 O282 1.234 . S
C296 O293 1.305 . S
C296 O294 1.234 . S
Zn297 O303 1.920 . S
Zn297 O309 1.898 1_445 S
Zn297 O312 1.905 . S
Zn298 O306 1.905 1_445 S
Zn298 O307 1.898 . S
Zn298 O315 1.920 1_455 S
Zn299 O302 2.080 . S
Zn299 O305 2.114 1_545 S
Zn299 O308 2.120 . S
Zn299 O310 2.120 1_445 S
Zn299 O311 2.114 . S
Zn299 O314 2.080 1_455 S
C300 O305 1.166 . S
C300 O306 1.182 1_455 S
C301 O307 1.167 . S
C301 O308 1.299 . S
O302 Zn299 2.080 . S
O302 C316 1.305 . S
O303 Zn297 1.920 . S
O303 C316 1.234 . S
C304 O309 1.167 . S
C304 O310 1.299 . S
O305 Zn299 2.114 1_565 S
O305 C300 1.166 . S
O306 Zn298 1.905 1_665 S
O306 C300 1.182 1_655 S
O307 Zn298 1.898 . S
O307 C301 1.167 . S
O308 Zn299 2.120 . S
O308 C301 1.299 . S
O309 Zn297 1.898 1_665 S
O309 C304 1.167 . S
O310 Zn299 2.120 1_665 S
O310 C304 1.299 . S
O311 Zn299 2.114 . S
O311 C313 1.166 . S
O312 Zn297 1.905 . S
O312 C313 1.182 . S
C313 O311 1.166 . S
C313 O312 1.182 . S
O314 Zn299 2.080 1_655 S
O314 C317 1.305 . S
O315 Zn298 1.920 1_655 S
O315 C317 1.234 . S
C316 O302 1.305 . S
C316 O303 1.234 . S
C317 O314 1.305 . S
C317 O315 1.234 . S
Zn318 O324 1.920 . S
Zn318 O330 1.898 . S
Zn318 O333 1.905 . S
Zn319 O327 1.905 . S
Zn319 O328 1.898 . S
Zn319 O336 1.920 . S
Zn320 O323 2.080 . S
Zn320 O326 2.114 . S
Zn320 O329 2.120 . S
Zn320 O331 2.120 . S
Zn320 O332 2.114 . S
Zn320 O335 2.080 . S
C321 O326 1.166 . S
C321 O327 1.182 . S
C322 O328 1.167 . S
C322 O329 1.299 . S
O323 Zn320 2.080 . S
O323 C337 1.305 . S
O324 Zn318 1.920 . S
O324 C337 1.234 . S
C325 O330 1.167 . S
C325 O331 1.299 . S
O326 Zn320 2.114 . S
O326 C321 1.166 . S
O327 Zn319 1.905 . S
O327 C321 1.182 . S
O328 Zn319 1.898 . S
O328 C322 1.167 . S
O329 Zn320 2.120 . S
O329 C322 1.299 . S
O330 Zn318 1.898 . S
O330 C325 1.167 . S
O331 Zn320 2.120 . S
O331 C325 1.299 . S
O332 Zn320 2.114 . S
O332 C334 1.166 . S
O333 Zn318 1.905 . S
O333 C334 1.182 . S
C334 O332 1.166 . S
C334 O333 1.182 . S
O335 Zn320 2.080 . S
O335 C338 1.305 . S
O336 Zn319 1.920 . S
O336 C338 1.234 . S
C337 O323 1.305 . S
C337 O324 1.234 . S
C338 O335 1.305 . S
C338 O336 1.234 . S
Zn339 O345 1.920 . S
Zn339 O351 1.898 . S
Zn339 O354 1.905 . S
Zn340 O348 1.905 . S
Zn340 O349 1.898 . S
Zn340 O357 1.920 . S
Zn341 O344 2.080 . S
Zn341 O347 2.114 . S
Zn341 O350 2.120 . S
Zn341 O352 2.120 . S
Zn341 O353 2.114 . S
Zn341 O356 2.080 . S
C342 O347 1.166 . S
C342 O348 1.182 . S
C343 O349 1.167 . S
C343 O350 1.299 . S
O344 Zn341 2.080 . S
O344 C358 1.305 . S
O345 Zn339 1.920 . S
O345 C358 1.234 . S
C346 O351 1.167 . S
C346 O352 1.299 . S
O347 Zn341 2.114 . S
O347 C342 1.166 . S
O348 Zn340 1.905 . S
O348 C342 1.182 . S
O349 Zn340 1.898 . S
O349 C343 1.167 . S
O350 Zn341 2.120 . S
O350 C343 1.299 . S
O351 Zn339 1.898 . S
O351 C346 1.167 . S
O352 Zn341 2.120 . S
O352 C346 1.299 . S
O353 Zn341 2.114 . S
O353 C355 1.166 . S
O354 Zn339 1.905 . S
O354 C355 1.182 . S
C355 O353 1.166 . S
C355 O354 1.182 . S
O356 Zn341 2.080 . S
O356 C359 1.305 . S
O357 Zn340 1.920 . S
O357 C359 1.234 . S
C358 O344 1.305 . S
C358 O345 1.234 . S
C359 O356 1.305 . S
C359 O357 1.234 . S
Zn360 O366 1.920 . S
Zn360 O372 1.898 . S
Zn360 O375 1.905 . S
Zn361 O369 1.905 . S
Zn361 O370 1.898 . S
Zn361 O378 1.920 . S
Zn362 O365 2.080 . S
Zn362 O368 2.114 . S
Zn362 O371 2.120 . S
Zn362 O373 2.120 . S
Zn362 O374 2.114 . S
Zn362 O377 2.080 . S
C363 O368 1.166 . S
C363 O369 1.182 . S
C364 O370 1.167 . S
C364 O371 1.299 . S
O365 Zn362 2.080 . S
O365 C379 1.305 . S
O366 Zn360 1.920 . S
O366 C379 1.234 . S
C367 O372 1.167 . S
C367 O373 1.299 . S
O368 Zn362 2.114 . S
O368 C363 1.166 . S
O369 Zn361 1.905 . S
O369 C363 1.182 . S
O370 Zn361 1.898 . S
O370 C364 1.167 . S
O371 Zn362 2.120 . S
O371 C364 1.299 . S
O372 Zn360 1.898 . S
O372 C367 1.167 . S
O373 Zn362 2.120 . S
O373 C367 1.299 . S
O374 Zn362 2.114 . S
O374 C376 1.166 . S
O375 Zn360 1.905 . S
O375 C376 1.182 . S
C376 O374 1.166 . S
C376 O375 1.182 . S
O377 Zn362 2.080 . S
O377 C380 1.305 . S
O378 Zn361 1.920 . S
O378 C380 1.234 . S
C379 O365 1.305 . S
C379 O366 1.234 . S
C380 O377 1.305 . S
C380 O378 1.234 . S
Zn381 O387 1.920 . S
Zn381 O393 1.898 . S
Zn381 O396 1.905 . S
Zn382 O390 1.905 . S
Zn382 O391 1.898 . S
Zn382 O399 1.920 . S
Zn383 O386 2.080 . S
Zn383 O389 2.114 . S
Zn383 O392 2.120 . S
Zn383 O394 2.120 . S
Zn383 O395 2.114 . S
Zn383 O398 2.080 . S
C384 O389 1.166 . S
C384 O390 1.182 . S
C385 O391 1.167 . S
C385 O392 1.299 . S
O386 Zn383 2.080 . S
O386 C400 1.305 1_556 S
O387 Zn381 1.920 . S
O387 C400 1.234 . S
C388 O393 1.167 . S
C388 O394 1.299 1_554 S
O389 Zn383 2.114 . S
O389 C384 1.166 . S
O390 Zn382 1.905 . S
O390 C384 1.182 . S
O391 Zn382 1.898 . S
O391 C385 1.167 . S
O392 Zn383 2.120 . S
O392 C385 1.299 . S
O393 Zn381 1.898 . S
O393 C388 1.167 . S
O394 Zn383 2.120 . S
O394 C388 1.299 1_556 S
O395 Zn383 2.114 . S
O395 C397 1.166 1_556 S
O396 Zn381 1.905 . S
O396 C397 1.182 . S
C397 O395 1.166 1_554 S
C397 O396 1.182 . S
O398 Zn383 2.080 . S
O398 C401 1.305 . S
O399 Zn382 1.920 . S
O399 C401 1.234 . S
C400 O386 1.305 1_554 S
C400 O387 1.234 . S
C401 O398 1.305 . S
C401 O399 1.234 . S
Zn402 O408 1.920 . S
Zn402 O414 1.898 . S
Zn402 O417 1.905 . S
Zn403 O411 1.905 . S
Zn403 O412 1.898 . S
Zn403 O420 1.920 . S
Zn404 O407 2.080 . S
Zn404 O410 2.114 . S
Zn404 O413 2.120 . S
Zn404 O415 2.120 . S
Zn404 O416 2.114 . S
Zn404 O419 2.080 . S
C405 O410 1.166 . S
C405 O411 1.182 . S
C406 O412 1.167 . S
C406 O413 1.299 . S
O407 Zn404 2.080 . S
O407 C421 1.305 . S
O408 Zn402 1.920 . S
O408 C421 1.234 . S
C409 O414 1.167 . S
C409 O415 1.299 . S
O410 Zn404 2.114 . S
O410 C405 1.166 . S
O411 Zn403 1.905 . S
O411 C405 1.182 . S
O412 Zn403 1.898 . S
O412 C406 1.167 . S
O413 Zn404 2.120 . S
O413 C406 1.299 . S
O414 Zn402 1.898 . S
O414 C409 1.167 . S
O415 Zn404 2.120 . S
O415 C409 1.299 . S
O416 Zn404 2.114 . S
O416 C418 1.166 . S
O417 Zn402 1.905 . S
O417 C418 1.182 . S
C418 O416 1.166 . S
C418 O417 1.182 . S
O419 Zn404 2.080 . S
O419 C422 1.305 . S
O420 Zn403 1.920 . S
O420 C422 1.234 . S
C421 O407 1.305 . S
C421 O408 1.234 . S
C422 O419 1.305 . S
C422 O420 1.234 . S
Zn423 O429 1.920 . S
Zn423 O435 1.898 . S
Zn423 O438 1.905 . S
Zn424 O432 1.905 . S
Zn424 O433 1.898 . S
Zn424 O441 1.920 . S
Zn425 O428 2.080 . S
Zn425 O431 2.114 . S
Zn425 O434 2.120 . S
Zn425 O436 2.120 . S
Zn425 O437 2.114 . S
Zn425 O440 2.080 . S
C426 O431 1.166 1_556 S
C426 O432 1.182 . S
C427 O433 1.167 . S
C427 O434 1.299 1_556 S
O428 Zn425 2.080 . S
O428 C442 1.305 . S
O429 Zn423 1.920 . S
O429 C442 1.234 . S
C430 O435 1.167 . S
C430 O436 1.299 . S
O431 Zn425 2.114 . S
O431 C426 1.166 1_554 S
O432 Zn424 1.905 . S
O432 C426 1.182 . S
O433 Zn424 1.898 . S
O433 C427 1.167 . S
O434 Zn425 2.120 . S
O434 C427 1.299 1_554 S
O435 Zn423 1.898 . S
O435 C430 1.167 . S
O436 Zn425 2.120 . S
O436 C430 1.299 . S
O437 Zn425 2.114 . S
O437 C439 1.166 . S
O438 Zn423 1.905 . S
O438 C439 1.182 . S
C439 O437 1.166 . S
C439 O438 1.182 . S
O440 Zn425 2.080 . S
O440 C443 1.305 1_554 S
O441 Zn424 1.920 . S
O441 C443 1.234 . S
C442 O428 1.305 . S
C442 O429 1.234 . S
C443 O440 1.305 1_556 S
C443 O441 1.234 . S
Zn444 O450 1.920 . S
Zn444 O456 1.898 . S
Zn444 O459 1.905 . S
Zn445 O453 1.905 . S
Zn445 O454 1.898 . S
Zn445 O462 1.920 . S
Zn446 O449 2.080 . S
Zn446 O452 2.114 . S
Zn446 O455 2.120 . S
Zn446 O457 2.120 . S
Zn446 O458 2.114 . S
Zn446 O461 2.080 . S
C447 O452 1.166 . S
C447 O453 1.182 . S
C448 O454 1.167 . S
C448 O455 1.299 . S
O449 Zn446 2.080 . S
O449 C463 1.305 . S
O450 Zn444 1.920 . S
O450 C463 1.234 . S
C451 O456 1.167 . S
C451 O457 1.299 . S
O452 Zn446 2.114 . S
O452 C447 1.166 . S
O453 Zn445 1.905 . S
O453 C447 1.182 . S
O454 Zn445 1.898 . S
O454 C448 1.167 . S
O455 Zn446 2.120 . S
O455 C448 1.299 . S
O456 Zn444 1.898 . S
O456 C451 1.167 . S
O457 Zn446 2.120 . S
O457 C451 1.299 . S
O458 Zn446 2.114 . S
O458 C460 1.166 . S
O459 Zn444 1.905 . S
O459 C460 1.182 . S
C460 O458 1.166 . S
C460 O459 1.182 . S
O461 Zn446 2.080 . S
O461 C464 1.305 . S
O462 Zn445 1.920 . S
O462 C464 1.234 . S
C463 O449 1.305 . S
C463 O450 1.234 . S
C464 O461 1.305 . S
C464 O462 1.234 . S
Zn465 O471 1.920 . S
Zn465 O477 1.898 . S
Zn465 O480 1.905 . S
Zn466 O474 1.905 . S
Zn466 O475 1.898 . S
Zn466 O483 1.920 . S
Zn467 O470 2.080 . S
Zn467 O473 2.114 . S
Zn467 O476 2.120 . S
Zn467 O478 2.120 . S
Zn467 O479 2.114 . S
Zn467 O482 2.080 . S
C468 O473 1.166 . S
C468 O474 1.182 . S
C469 O475 1.167 . S
C469 O476 1.299 . S
O470 Zn467 2.080 . S
O470 C484 1.305 . S
O471 Zn465 1.920 . S
O471 C484 1.234 . S
C472 O477 1.167 . S
C472 O478 1.299 . S
O473 Zn467 2.114 . S
O473 C468 1.166 . S
O474 Zn466 1.905 . S
O474 C468 1.182 . S
O475 Zn466 1.898 . S
O475 C469 1.167 . S
O476 Zn467 2.120 . S
O476 C469 1.299 . S
O477 Zn465 1.898 . S
O477 C472 1.167 . S
O478 Zn467 2.120 . S
O478 C472 1.299 . S
O479 Zn467 2.114 . S
O479 C481 1.166 . S
O480 Zn465 1.905 . S
O480 C481 1.182 . S
C481 O479 1.166 . S
C481 O480 1.182 . S
O482 Zn467 2.080 . S
O482 C485 1.305 . S
O483 Zn466 1.920 . S
O483 C485 1.234 . S
C484 O470 1.305 . S
C484 O471 1.234 . S
C485 O482 1.305 . S
C485 O483 1.234 . S
H486 C498 0.930 . S
H487 C500 0.930 . S
H488 C501 0.930 . S
H489 C505 0.959 . S
H490 C505 0.959 . S
H491 C505 0.961 . S
H492 C506 0.960 . S
H493 C506 0.961 . S
H494 C506 0.959 . S
H495 C509 0.929 . S
H496 C510 0.931 . S
H497 C512 0.930 . S
C498 H486 0.930 . S
C498 C499 1.399 . S
C498 C503 1.399 . S
C499 C498 1.399 . S
C499 C500 1.376 . S
C500 H487 0.930 . S
C500 C499 1.376 . S
C500 C501 1.388 . S
C501 H488 0.930 . S
C501 C500 1.388 . S
C501 C502 1.390 . S
C502 C501 1.390 . S
C502 C503 1.394 . S
C502 C508 1.465 . S
C503 C498 1.399 . S
C503 C502 1.394 . S
C503 C504 1.516 . S
C504 C503 1.516 . S
C504 C505 1.502 . S
C504 C506 1.561 . S
C504 C507 1.526 . S
C505 H489 0.959 . S
C505 H490 0.959 . S
C505 H491 0.961 . S
C505 C504 1.502 . S
C506 H492 0.960 . S
C506 H493 0.961 . S
C506 H494 0.959 . S
C506 C504 1.561 . S
C507 C504 1.526 . S
C507 C508 1.396 . S
C507 C512 1.390 . S
C508 C502 1.465 . S
C508 C507 1.396 . S
C508 C509 1.399 . S
C509 H495 0.929 . S
C509 C508 1.399 . S
C509 C510 1.385 . S
C510 H496 0.931 . S
C510 C509 1.385 . S
C510 C511 1.389 . S
C511 C510 1.389 . S
C511 C512 1.387 . S
C512 H497 0.930 . S
C512 C507 1.390 . S
C512 C511 1.387 . S
H513 C525 0.930 . S
H514 C527 0.930 . S
H515 C528 0.930 . S
H516 C532 0.959 . S
H517 C532 0.959 . S
H518 C532 0.961 . S
H519 C533 0.960 . S
H520 C533 0.961 . S
H521 C533 0.959 . S
H522 C536 0.929 . S
H523 C537 0.931 . S
H524 C539 0.930 . S
C525 H513 0.930 . S
C525 C526 1.399 . S
C525 C530 1.399 . S
C526 C525 1.399 . S
C526 C527 1.376 1_545 S
C527 H514 0.930 . S
C527 C526 1.376 1_565 S
C527 C528 1.388 . S
C528 H515 0.930 . S
C528 C527 1.388 . S
C528 C529 1.390 1_565 S
C529 C528 1.390 1_545 S
C529 C530 1.394 . S
C529 C535 1.465 . S
C530 C525 1.399 . S
C530 C529 1.394 . S
C530 C531 1.516 . S
C531 C530 1.516 . S
C531 C532 1.502 . S
C531 C533 1.561 . S
C531 C534 1.526 . S
C532 H516 0.959 . S
C532 H517 0.959 . S
C532 H518 0.961 . S
C532 C531 1.502 . S
C533 H519 0.960 . S
C533 H520 0.961 . S
C533 H521 0.959 . S
C533 C531 1.561 . S
C534 C531 1.526 . S
C534 C535 1.396 . S
C534 C539 1.390 . S
C535 C529 1.465 . S
C535 C534 1.396 . S
C535 C536 1.399 1_545 S
C536 H522 0.929 . S
C536 C535 1.399 1_565 S
C536 C537 1.385 . S
C537 H523 0.931 . S
C537 C536 1.385 . S
C537 C538 1.389 1_565 S
C538 C537 1.389 1_545 S
C538 C539 1.387 . S
C539 H524 0.930 . S
C539 C534 1.390 . S
C539 C538 1.387 . S
H540 C552 0.930 . S
H541 C554 0.930 . S
H542 C555 0.930 . S
H543 C559 0.959 . S
H544 C559 0.959 . S
H545 C559 0.961 . S
H546 C560 0.960 . S
H547 C560 0.961 . S
H548 C560 0.959 . S
H549 C563 0.929 1_655 S
H550 C564 0.924 1_655 S
H551 C566 0.930 . S
C552 H540 0.930 . S
C552 C553 1.399 . S
C552 C557 1.399 . S
C553 C552 1.399 . S
C553 C554 1.376 . S
C554 H541 0.930 . S
C554 C553 1.376 . S
C554 C555 1.388 . S
C555 H542 0.930 . S
C555 C554 1.388 . S
C555 C556 1.390 . S
C556 C555 1.390 . S
C556 C557 1.394 . S
C556 C562 1.465 . S
C557 C552 1.399 . S
C557 C556 1.394 . S
C557 C558 1.516 . S
C558 C557 1.516 . S
C558 C559 1.502 . S
C558 C560 1.561 1_455 S
C558 C561 1.526 . S
C559 H543 0.959 . S
C559 H544 0.959 . S
C559 H545 0.961 . S
C559 C558 1.502 . S
C560 H546 0.960 . S
C560 H547 0.961 . S
C560 H548 0.959 . S
C560 C558 1.561 1_655 S
C561 C558 1.526 . S
C561 C562 1.396 . S
C561 C566 1.390 . S
C562 C556 1.465 . S
C562 C561 1.396 . S
C562 C563 1.399 . S
C563 H549 0.929 1_455 S
C563 C562 1.399 . S
C563 C564 1.385 . S
C564 H550 0.924 1_455 S
C564 C563 1.385 . S
C564 C565 1.389 . S
C565 C564 1.389 . S
C565 C566 1.387 . S
C566 H551 0.930 . S
C566 C561 1.390 . S
C566 C565 1.387 . S
H567 C579 0.930 . S
H568 C581 0.930 . S
H569 C582 0.930 . S
H570 C586 0.959 . S
H571 C586 0.959 . S
H572 C586 0.961 . S
H573 C587 0.960 . S
H574 C587 0.961 . S
H575 C587 0.959 . S
H576 C590 0.929 . S
H577 C591 0.931 . S
H578 C593 0.930 . S
C579 H567 0.930 . S
C579 C580 1.399 . S
C579 C584 1.399 . S
C580 C579 1.399 . S
C580 C581 1.376 . S
C581 H568 0.930 . S
C581 C580 1.376 . S
C581 C582 1.388 . S
C582 H569 0.930 . S
C582 C581 1.388 . S
C582 C583 1.390 . S
C583 C582 1.390 . S
C583 C584 1.394 . S
C583 C589 1.465 . S
C584 C579 1.399 . S
C584 C583 1.394 . S
C584 C585 1.516 . S
C585 C584 1.516 . S
C585 C586 1.502 . S
C585 C587 1.561 . S
C585 C588 1.526 . S
C586 H570 0.959 . S
C586 H571 0.959 . S
C586 H572 0.961 . S
C586 C585 1.502 . S
C587 H573 0.960 . S
C587 H574 0.961 . S
C587 H575 0.959 . S
C587 C585 1.561 . S
C588 C585 1.526 . S
C588 C589 1.396 . S
C588 C593 1.390 . S
C589 C583 1.465 . S
C589 C588 1.396 . S
C589 C590 1.399 . S
C590 H576 0.929 . S
C590 C589 1.399 . S
C590 C591 1.385 . S
C591 H577 0.931 . S
C591 C590 1.385 . S
C591 C592 1.389 . S
C592 C591 1.389 . S
C592 C593 1.387 . S
C593 H578 0.930 . S
C593 C588 1.390 . S
C593 C592 1.387 . S
H594 C606 0.930 . S
H595 C608 0.930 . S
H596 C609 0.930 . S
H597 C613 0.959 . S
H598 C613 0.959 . S
H599 C613 0.961 . S
H600 C614 0.960 . S
H601 C614 0.961 . S
H602 C614 0.959 . S
H603 C617 0.929 . S
H604 C618 0.931 . S
H605 C620 0.930 . S
C606 H594 0.930 . S
C606 C607 1.399 . S
C606 C611 1.399 . S
C607 C606 1.399 . S
C607 C608 1.376 1_545 S
C608 H595 0.930 . S
C608 C607 1.376 1_565 S
C608 C609 1.388 . S
C609 H596 0.930 . S
C609 C608 1.388 . S
C609 C610 1.390 . S
C610 C609 1.390 . S
C610 C611 1.394 1_565 S
C610 C616 1.465 . S
C611 C606 1.399 . S
C611 C610 1.394 1_545 S
C611 C612 1.516 . S
C612 C611 1.516 . S
C612 C613 1.502 . S
C612 C614 1.561 . S
C612 C615 1.526 . S
C613 H597 0.959 . S
C613 H598 0.959 . S
C613 H599 0.961 . S
C613 C612 1.502 . S
C614 H600 0.960 . S
C614 H601 0.961 . S
C614 H602 0.959 . S
C614 C612 1.561 . S
C615 C612 1.526 . S
C615 C616 1.396 1_545 S
C615 C620 1.390 . S
C616 C610 1.465 . S
C616 C615 1.396 1_565 S
C616 C617 1.399 . S
C617 H603 0.929 . S
C617 C616 1.399 . S
C617 C618 1.385 . S
C618 H604 0.931 . S
C618 C617 1.385 . S
C618 C619 1.389 1_565 S
C619 C618 1.389 1_545 S
C619 C620 1.387 . S
C620 H605 0.930 . S
C620 C615 1.390 . S
C620 C619 1.387 . S
H621 C633 0.930 1_655 S
H622 C635 0.930 . S
H623 C636 0.930 . S
H624 C640 0.959 . S
H625 C640 0.959 . S
H626 C640 0.961 . S
H627 C641 0.960 . S
H628 C641 0.961 . S
H629 C641 0.959 1_455 S
H630 C644 0.929 . S
H631 C645 0.931 . S
H632 C647 0.930 1_655 S
C633 H621 0.930 1_455 S
C633 C634 1.399 . S
C633 C638 1.399 . S
C634 C633 1.399 . S
C634 C635 1.376 . S
C635 H622 0.930 . S
C635 C634 1.376 . S
C635 C636 1.388 . S
C636 H623 0.930 . S
C636 C635 1.388 . S
C636 C637 1.390 . S
C637 C636 1.390 . S
C637 C638 1.394 . S
C637 C643 1.465 . S
C638 C633 1.399 . S
C638 C637 1.394 . S
C638 C639 1.516 1_455 S
C639 C638 1.516 1_655 S
C639 C640 1.502 . S
C639 C641 1.561 . S
C639 C642 1.526 1_655 S
C640 H624 0.959 . S
C640 H625 0.959 . S
C640 H626 0.961 . S
C640 C639 1.502 . S
C641 H627 0.960 . S
C641 H628 0.961 . S
C641 H629 0.959 1_655 S
C641 C639 1.561 . S
C642 C639 1.526 1_455 S
C642 C643 1.396 . S
C642 C647 1.390 . S
C643 C637 1.465 . S
C643 C642 1.396 . S
C643 C644 1.399 . S
C644 H630 0.929 . S
C644 C643 1.399 . S
C644 C645 1.385 . S
C645 H631 0.931 . S
C645 C644 1.385 . S
C645 C646 1.389 . S
C646 C645 1.389 . S
C646 C647 1.387 . S
C647 H632 0.930 1_455 S
C647 C642 1.390 . S
C647 C646 1.387 . S
H648 C660 0.930 . S
H649 C662 0.930 . S
H650 C663 0.930 . S
H651 C667 0.959 . S
H652 C667 0.959 . S
H653 C667 0.961 . S
H654 C668 0.960 . S
H655 C668 0.961 . S
H656 C668 0.959 . S
H657 C671 0.929 . S
H658 C672 0.931 . S
H659 C674 0.930 . S
C660 H648 0.930 . S
C660 C661 1.399 . S
C660 C665 1.399 . S
C661 C660 1.399 . S
C661 C662 1.376 . S
C662 H649 0.930 . S
C662 C661 1.376 . S
C662 C663 1.388 . S
C663 H650 0.930 . S
C663 C662 1.388 . S
C663 C664 1.390 . S
C664 C663 1.390 . S
C664 C665 1.394 . S
C664 C670 1.465 . S
C665 C660 1.399 . S
C665 C664 1.394 . S
C665 C666 1.516 . S
C666 C665 1.516 . S
C666 C667 1.502 . S
C666 C668 1.561 . S
C666 C669 1.526 . S
C667 H651 0.959 . S
C667 H652 0.959 . S
C667 H653 0.961 . S
C667 C666 1.502 . S
C668 H654 0.960 . S
C668 H655 0.961 . S
C668 H656 0.959 . S
C668 C666 1.561 . S
C669 C666 1.526 . S
C669 C670 1.396 . S
C669 C674 1.390 . S
C670 C664 1.465 . S
C670 C669 1.396 . S
C670 C671 1.399 . S
C671 H657 0.929 . S
C671 C670 1.399 . S
C671 C672 1.385 . S
C672 H658 0.931 . S
C672 C671 1.385 . S
C672 C673 1.389 . S
C673 C672 1.389 . S
C673 C674 1.387 . S
C674 H659 0.930 . S
C674 C669 1.390 . S
C674 C673 1.387 . S
H675 C687 0.930 . S
H676 C689 0.930 . S
H677 C690 0.930 . S
H678 C694 0.959 . S
H679 C694 0.959 . S
H680 C694 0.961 . S
H681 C695 0.960 . S
H682 C695 0.961 . S
H683 C695 0.959 . S
H684 C698 0.929 . S
H685 C699 0.931 . S
H686 C701 0.930 . S
C687 H675 0.930 . S
C687 C688 1.399 . S
C687 C692 1.399 . S
C688 C687 1.399 . S
C688 C689 1.376 1_545 S
C689 H676 0.930 . S
C689 C688 1.376 1_565 S
C689 C690 1.388 . S
C690 H677 0.930 . S
C690 C689 1.388 . S
C690 C691 1.390 . S
C691 C690 1.390 . S
C691 C692 1.394 1_565 S
C691 C697 1.465 . S
C692 C687 1.399 . S
C692 C691 1.394 1_545 S
C692 C693 1.516 . S
C693 C692 1.516 . S
C693 C694 1.502 . S
C693 C695 1.561 . S
C693 C696 1.526 . S
C694 H678 0.959 . S
C694 H679 0.959 . S
C694 H680 0.961 . S
C694 C693 1.502 . S
C695 H681 0.960 . S
C695 H682 0.961 . S
C695 H683 0.959 . S
C695 C693 1.561 . S
C696 C693 1.526 . S
C696 C697 1.396 1_545 S
C696 C701 1.390 . S
C697 C691 1.465 . S
C697 C696 1.396 1_565 S
C697 C698 1.399 . S
C698 H684 0.929 . S
C698 C697 1.399 . S
C698 C699 1.385 . S
C699 H685 0.931 . S
C699 C698 1.385 . S
C699 C700 1.389 1_565 S
C700 C699 1.389 1_545 S
C700 C701 1.387 . S
C701 H686 0.930 . S
C701 C696 1.390 . S
C701 C700 1.387 . S
H702 C714 0.930 . S
H703 C716 0.930 . S
H704 C717 0.930 . S
H705 C721 0.959 . S
H706 C721 0.959 . S
H707 C721 0.961 . S
H708 C722 0.960 . S
H709 C722 0.961 . S
H710 C722 0.959 . S
H711 C725 0.929 . S
H712 C726 0.931 . S
H713 C728 0.930 . S
C714 H702 0.930 . S
C714 C715 1.399 . S
C714 C719 1.399 . S
C715 C714 1.399 . S
C715 C716 1.376 . S
C716 H703 0.930 . S
C716 C715 1.376 . S
C716 C717 1.388 . S
C717 H704 0.930 . S
C717 C716 1.388 . S
C717 C718 1.390 . S
C718 C717 1.390 . S
C718 C719 1.394 . S
C718 C724 1.465 . S
C719 C714 1.399 . S
C719 C718 1.394 . S
C719 C720 1.516 . S
C720 C719 1.516 . S
C720 C721 1.502 1_455 S
C720 C722 1.561 . S
C720 C723 1.526 . S
C721 H705 0.959 . S
C721 H706 0.959 . S
C721 H707 0.961 . S
C721 C720 1.502 1_655 S
C722 H708 0.960 . S
C722 H709 0.961 . S
C722 H710 0.959 . S
C722 C720 1.561 . S
C723 C720 1.526 . S
C723 C724 1.396 . S
C723 C728 1.390 . S
C724 C718 1.465 . S
C724 C723 1.396 . S
C724 C725 1.399 . S
C725 H711 0.929 . S
C725 C724 1.399 . S
C725 C726 1.385 . S
C726 H712 0.931 . S
C726 C725 1.385 . S
C726 C727 1.389 . S
C727 C726 1.389 . S
C727 C728 1.387 . S
C728 H713 0.930 . S
C728 C723 1.390 . S
C728 C727 1.387 . S
H729 C741 0.930 . S
H730 C743 0.930 . S
H731 C744 0.930 . S
H732 C748 0.959 . S
H733 C748 0.959 . S
H734 C748 0.961 . S
H735 C749 0.960 . S
H736 C749 0.961 . S
H737 C749 0.959 . S
H738 C752 0.929 . S
H739 C753 0.931 . S
H740 C755 0.930 . S
C741 H729 0.930 . S
C741 C742 1.399 . S
C741 C746 1.399 . S
C742 C741 1.399 . S
C742 C743 1.376 . S
C743 H730 0.930 . S
C743 C742 1.376 . S
C743 C744 1.388 . S
C744 H731 0.930 . S
C744 C743 1.388 . S
C744 C745 1.390 . S
C745 C744 1.390 . S
C745 C746 1.394 . S
C745 C751 1.465 . S
C746 C741 1.399 . S
C746 C745 1.394 . S
C746 C747 1.516 . S
C747 C746 1.516 . S
C747 C748 1.502 . S
C747 C749 1.561 . S
C747 C750 1.526 . S
C748 H732 0.959 . S
C748 H733 0.959 . S
C748 H734 0.961 . S
C748 C747 1.502 . S
C749 H735 0.960 . S
C749 H736 0.961 . S
C749 H737 0.959 . S
C749 C747 1.561 . S
C750 C747 1.526 . S
C750 C751 1.396 . S
C750 C755 1.390 . S
C751 C745 1.465 . S
C751 C750 1.396 . S
C751 C752 1.399 . S
C752 H738 0.929 . S
C752 C751 1.399 . S
C752 C753 1.385 . S
C753 H739 0.931 . S
C753 C752 1.385 . S
C753 C754 1.389 . S
C754 C753 1.389 . S
C754 C755 1.387 . S
C755 H740 0.930 . S
C755 C750 1.390 . S
C755 C754 1.387 . S
H756 C768 0.952 . S
H757 C770 0.930 . S
H758 C771 0.930 . S
H759 C775 0.946 1_545 S
H760 C775 0.959 . S
H761 C775 0.961 . S
H762 C776 0.960 . S
H763 C776 0.961 . S
H764 C776 0.959 . S
H765 C779 0.929 . S
H766 C780 0.931 . S
H767 C782 0.930 1_565 S
C768 H756 0.952 . S
C768 C769 1.390 1_565 S
C768 C773 1.386 1_565 S
C769 C768 1.390 1_545 S
C769 C770 1.376 . S
C770 H757 0.930 . S
C770 C769 1.376 . S
C770 C771 1.388 . S
C771 H758 0.930 . S
C771 C770 1.388 . S
C771 C772 1.390 . S
C772 C771 1.390 . S
C772 C773 1.394 . S
C772 C778 1.465 . S
C773 C768 1.386 1_545 S
C773 C772 1.394 . S
C773 C774 1.516 1_545 S
C774 C773 1.516 1_565 S
C774 C775 1.502 . S
C774 C776 1.561 . S
C774 C777 1.526 1_565 S
C775 H759 0.946 1_565 S
C775 H760 0.959 . S
C775 H761 0.961 . S
C775 C774 1.502 . S
C776 H762 0.960 . S
C776 H763 0.961 . S
C776 H764 0.959 . S
C776 C774 1.561 . S
C777 C774 1.526 1_545 S
C777 C778 1.396 . S
C777 C782 1.390 . S
C778 C772 1.465 . S
C778 C777 1.396 . S
C778 C779 1.399 . S
C779 H765 0.929 . S
C779 C778 1.399 . S
C779 C780 1.385 . S
C780 H766 0.931 . S
C780 C779 1.385 . S
C780 C781 1.389 . S
C781 C780 1.389 . S
C781 C782 1.387 . S
C782 H767 0.930 1_545 S
C782 C777 1.390 . S
C782 C781 1.387 . S
H783 C795 0.930 . S
H784 C797 0.930 . S
H785 C798 0.930 . S
H786 C802 0.959 . S
H787 C802 0.960 1_455 S
H788 C802 0.960 . S
H789 C803 0.960 . S
H790 C803 0.961 . S
H791 C803 0.959 . S
H792 C806 0.929 . S
H793 C807 0.931 1_655 S
H794 C809 0.930 . S
C795 H783 0.930 . S
C795 C796 1.399 . S
C795 C800 1.399 . S
C796 C795 1.399 . S
C796 C797 1.376 . S
C797 H784 0.930 . S
C797 C796 1.376 . S
C797 C798 1.388 . S
C798 H785 0.930 . S
C798 C797 1.388 . S
C798 C799 1.390 . S
C799 C798 1.390 . S
C799 C800 1.394 . S
C799 C805 1.465 . S
C800 C795 1.399 . S
C800 C799 1.394 . S
C800 C801 1.516 . S
C801 C800 1.516 . S
C801 C802 1.502 1_455 S
C801 C803 1.561 . S
C801 C804 1.526 . S
C802 H786 0.959 . S
C802 H787 0.960 1_655 S
C802 H788 0.960 . S
C802 C801 1.502 1_655 S
C803 H789 0.960 . S
C803 H790 0.961 . S
C803 H791 0.959 . S
C803 C801 1.561 . S
C804 C801 1.526 . S
C804 C805 1.396 . S
C804 C809 1.390 . S
C805 C799 1.465 . S
C805 C804 1.396 . S
C805 C806 1.399 . S
C806 H792 0.929 . S
C806 C805 1.399 . S
C806 C807 1.385 . S
C807 H793 0.931 1_455 S
C807 C806 1.385 . S
C807 C808 1.389 . S
C808 C807 1.389 . S
C808 C809 1.387 . S
C809 H794 0.930 . S
C809 C804 1.390 . S
C809 C808 1.387 . S
H810 C822 0.930 . S
H811 C824 0.930 . S
H812 C825 0.930 . S
H813 C829 0.959 . S
H814 C829 0.959 . S
H815 C829 0.961 . S
H816 C830 0.960 . S
H817 C830 0.961 . S
H818 C830 0.959 . S
H819 C833 0.929 . S
H820 C834 0.931 . S
H821 C836 0.930 . S
C822 H810 0.930 . S
C822 C823 1.399 . S
C822 C827 1.399 . S
C823 C822 1.399 . S
C823 C824 1.376 . S
C824 H811 0.930 . S
C824 C823 1.376 . S
C824 C825 1.388 . S
C825 H812 0.930 . S
C825 C824 1.388 . S
C825 C826 1.390 . S
C826 C825 1.390 . S
C826 C827 1.394 . S
C826 C832 1.465 . S
C827 C822 1.399 . S
C827 C826 1.394 . S
C827 C828 1.516 . S
C828 C827 1.516 . S
C828 C829 1.502 . S
C828 C830 1.561 . S
C828 C831 1.526 . S
C829 H813 0.959 . S
C829 H814 0.959 . S
C829 H815 0.961 . S
C829 C828 1.502 . S
C830 H816 0.960 . S
C830 H817 0.961 . S
C830 H818 0.959 . S
C830 C828 1.561 . S
C831 C828 1.526 . S
C831 C832 1.396 . S
C831 C836 1.390 . S
C832 C826 1.465 . S
C832 C831 1.396 . S
C832 C833 1.399 . S
C833 H819 0.929 . S
C833 C832 1.399 . S
C833 C834 1.385 . S
C834 H820 0.931 . S
C834 C833 1.385 . S
C834 C835 1.389 . S
C835 C834 1.389 . S
C835 C836 1.387 . S
C836 H821 0.930 . S
C836 C831 1.390 . S
C836 C835 1.387 . S
H837 C849 0.930 . S
H838 C851 0.930 . S
H839 C852 0.930 . S
H840 C856 0.959 . S
H841 C856 0.959 . S
H842 C856 0.961 . S
H843 C857 0.960 . S
H844 C857 0.961 . S
H845 C857 0.959 . S
H846 C860 0.929 . S
H847 C861 0.931 . S
H848 C863 0.930 . S
C849 H837 0.930 . S
C849 C850 1.399 . S
C849 C854 1.399 . S
C850 C849 1.399 . S
C850 C851 1.376 . S
C851 H838 0.930 . S
C851 C850 1.376 . S
C851 C852 1.388 . S
C852 H839 0.930 . S
C852 C851 1.388 . S
C852 C853 1.390 . S
C853 C852 1.390 . S
C853 C854 1.394 . S
C853 C859 1.465 . S
C854 C849 1.399 . S
C854 C853 1.394 . S
C854 C855 1.516 . S
C855 C854 1.516 . S
C855 C856 1.502 . S
C855 C857 1.561 . S
C855 C858 1.526 . S
C856 H840 0.959 . S
C856 H841 0.959 . S
C856 H842 0.961 . S
C856 C855 1.502 . S
C857 H843 0.960 . S
C857 H844 0.961 . S
C857 H845 0.959 . S
C857 C855 1.561 . S
C858 C855 1.526 . S
C858 C859 1.396 . S
C858 C863 1.390 . S
C859 C853 1.465 . S
C859 C858 1.396 . S
C859 C860 1.399 . S
C860 H846 0.929 . S
C860 C859 1.399 . S
C860 C861 1.385 . S
C861 H847 0.931 . S
C861 C860 1.385 . S
C861 C862 1.389 . S
C862 C861 1.389 . S
C862 C863 1.387 . S
C863 H848 0.930 . S
C863 C858 1.390 . S
C863 C862 1.387 . S
H864 C876 0.930 . S
H865 C878 0.930 . S
H866 C879 0.930 . S
H867 C883 0.959 . S
H868 C883 0.959 . S
H869 C883 0.961 . S
H870 C884 0.960 . S
H871 C884 0.961 . S
H872 C884 0.959 . S
H873 C887 0.929 . S
H874 C888 0.931 . S
H875 C890 0.930 . S
C876 H864 0.930 . S
C876 C877 1.399 . S
C876 C881 1.399 . S
C877 C876 1.399 . S
C877 C878 1.376 . S
C878 H865 0.930 . S
C878 C877 1.376 . S
C878 C879 1.388 . S
C879 H866 0.930 . S
C879 C878 1.388 . S
C879 C880 1.390 . S
C880 C879 1.390 . S
C880 C881 1.394 . S
C880 C886 1.465 . S
C881 C876 1.399 . S
C881 C880 1.394 . S
C881 C882 1.516 . S
C882 C881 1.516 . S
C882 C883 1.502 . S
C882 C884 1.561 . S
C882 C885 1.526 . S
C883 H867 0.959 . S
C883 H868 0.959 . S
C883 H869 0.961 . S
C883 C882 1.502 . S
C884 H870 0.960 . S
C884 H871 0.961 . S
C884 H872 0.959 . S
C884 C882 1.561 . S
C885 C882 1.526 . S
C885 C886 1.396 . S
C885 C890 1.390 . S
C886 C880 1.465 . S
C886 C885 1.396 . S
C886 C887 1.399 . S
C887 H873 0.929 . S
C887 C886 1.399 . S
C887 C888 1.385 . S
C888 H874 0.931 . S
C888 C887 1.385 . S
C888 C889 1.389 . S
C889 C888 1.389 . S
C889 C890 1.387 . S
C890 H875 0.930 . S
C890 C885 1.390 . S
C890 C889 1.387 . S
H891 C903 0.930 . S
H892 C905 0.930 . S
H893 C906 0.930 . S
H894 C910 0.959 . S
H895 C910 0.959 . S
H896 C910 0.961 . S
H897 C911 0.960 . S
H898 C911 0.961 . S
H899 C911 0.959 . S
H900 C914 0.929 . S
H901 C915 0.931 . S
H902 C917 0.930 . S
C903 H891 0.930 . S
C903 C904 1.399 . S
C903 C908 1.399 . S
C904 C903 1.399 . S
C904 C905 1.376 . S
C905 H892 0.930 . S
C905 C904 1.376 . S
C905 C906 1.388 . S
C906 H893 0.930 . S
C906 C905 1.388 . S
C906 C907 1.390 . S
C907 C906 1.390 . S
C907 C908 1.394 . S
C907 C913 1.465 . S
C908 C903 1.399 . S
C908 C907 1.394 . S
C908 C909 1.516 . S
C909 C908 1.516 . S
C909 C910 1.502 . S
C909 C911 1.561 . S
C909 C912 1.526 . S
C910 H894 0.959 . S
C910 H895 0.959 . S
C910 H896 0.961 . S
C910 C909 1.502 . S
C911 H897 0.960 . S
C911 H898 0.961 . S
C911 H899 0.959 . S
C911 C909 1.561 . S
C912 C909 1.526 . S
C912 C913 1.396 . S
C912 C917 1.390 . S
C913 C907 1.465 . S
C913 C912 1.396 . S
C913 C914 1.399 . S
C914 H900 0.929 . S
C914 C913 1.399 . S
C914 C915 1.385 . S
C915 H901 0.931 . S
C915 C914 1.385 . S
C915 C916 1.389 . S
C916 C915 1.389 . S
C916 C917 1.387 . S
C917 H902 0.930 . S
C917 C912 1.390 . S
C917 C916 1.387 . S
H918 C930 0.930 . S
H919 C932 0.930 . S
H920 C933 0.930 . S
H921 C937 0.959 . S
H922 C937 0.959 . S
H923 C937 0.961 . S
H924 C938 0.960 . S
H925 C938 0.961 . S
H926 C938 0.959 . S
H927 C941 0.929 . S
H928 C942 0.931 . S
H929 C944 0.930 . S
C930 H918 0.930 . S
C930 C931 1.399 . S
C930 C935 1.399 . S
C931 C930 1.399 . S
C931 C932 1.376 . S
C932 H919 0.930 . S
C932 C931 1.376 . S
C932 C933 1.388 . S
C933 H920 0.930 . S
C933 C932 1.388 . S
C933 C934 1.390 . S
C934 C933 1.390 . S
C934 C935 1.394 . S
C934 C940 1.465 . S
C935 C930 1.399 . S
C935 C934 1.394 . S
C935 C936 1.516 . S
C936 C935 1.516 . S
C936 C937 1.502 . S
C936 C938 1.561 . S
C936 C939 1.526 . S
C937 H921 0.959 . S
C937 H922 0.959 . S
C937 H923 0.961 . S
C937 C936 1.502 . S
C938 H924 0.960 . S
C938 H925 0.961 . S
C938 H926 0.959 . S
C938 C936 1.561 . S
C939 C936 1.526 . S
C939 C940 1.396 . S
C939 C944 1.390 . S
C940 C934 1.465 . S
C940 C939 1.396 . S
C940 C941 1.399 . S
C941 H927 0.929 . S
C941 C940 1.399 . S
C941 C942 1.385 . S
C942 H928 0.931 . S
C942 C941 1.385 . S
C942 C943 1.389 . S
C943 C942 1.389 . S
C943 C944 1.387 . S
C944 H929 0.930 . S
C944 C939 1.390 . S
C944 C943 1.387 . S
H945 C957 0.930 . S
H946 C959 0.930 . S
H947 C960 0.930 . S
H948 C964 0.959 . S
H949 C964 0.959 . S
H950 C964 0.961 . S
H951 C965 0.960 . S
H952 C965 0.961 . S
H953 C965 0.959 . S
H954 C968 0.929 . S
H955 C969 0.931 . S
H956 C971 0.930 . S
C957 H945 0.930 . S
C957 C958 1.399 . S
C957 C962 1.399 . S
C958 C957 1.399 . S
C958 C959 1.376 . S
C959 H946 0.930 . S
C959 C958 1.376 . S
C959 C960 1.388 . S
C960 H947 0.930 . S
C960 C959 1.388 . S
C960 C961 1.390 . S
C961 C960 1.390 . S
C961 C962 1.394 . S
C961 C967 1.465 . S
C962 C957 1.399 . S
C962 C961 1.394 . S
C962 C963 1.516 . S
C963 C962 1.516 . S
C963 C964 1.502 . S
C963 C965 1.561 . S
C963 C966 1.526 . S
C964 H948 0.959 . S
C964 H949 0.959 . S
C964 H950 0.961 . S
C964 C963 1.502 . S
C965 H951 0.960 . S
C965 H952 0.961 . S
C965 H953 0.959 . S
C965 C963 1.561 . S
C966 C963 1.526 . S
C966 C967 1.396 . S
C966 C971 1.390 . S
C967 C961 1.465 . S
C967 C966 1.396 . S
C967 C968 1.399 . S
C968 H954 0.929 . S
C968 C967 1.399 . S
C968 C969 1.385 . S
C969 H955 0.931 . S
C969 C968 1.385 . S
C969 C970 1.389 . S
C970 C969 1.389 . S
C970 C971 1.387 . S
C971 H956 0.930 . S
C971 C966 1.390 . S
C971 C970 1.387 . S
H972 C984 0.930 . S
H973 C986 0.930 . S
H974 C987 0.930 . S
H975 C991 0.959 . S
H976 C991 0.959 . S
H977 C991 0.961 . S
H978 C992 0.960 . S
H979 C992 0.961 . S
H980 C992 0.959 . S
H981 C995 0.929 . S
H982 C996 0.931 . S
H983 C998 0.930 . S
C984 H972 0.930 . S
C984 C985 1.399 . S
C984 C989 1.399 . S
C985 C984 1.399 . S
C985 C986 1.376 . S
C986 H973 0.930 . S
C986 C985 1.376 . S
C986 C987 1.388 . S
C987 H974 0.930 . S
C987 C986 1.388 . S
C987 C988 1.390 . S
C988 C987 1.390 . S
C988 C989 1.394 . S
C988 C994 1.465 . S
C989 C984 1.399 . S
C989 C988 1.394 . S
C989 C990 1.516 . S
C990 C989 1.516 . S
C990 C991 1.502 . S
C990 C992 1.561 . S
C990 C993 1.526 . S
C991 H975 0.959 . S
C991 H976 0.959 . S
C991 H977 0.961 . S
C991 C990 1.502 . S
C992 H978 0.960 . S
C992 H979 0.961 . S
C992 H980 0.959 . S
C992 C990 1.561 . S
C993 C990 1.526 . S
C993 C994 1.396 . S
C993 C998 1.390 . S
C994 C988 1.465 . S
C994 C993 1.396 . S
C994 C995 1.399 . S
C995 H981 0.929 . S
C995 C994 1.399 . S
C995 C996 1.385 . S
C996 H982 0.931 . S
C996 C995 1.385 . S
C996 C997 1.389 . S
C997 C996 1.389 . S
C997 C998 1.387 . S
C998 H983 0.930 . S
C998 C993 1.390 . S
C998 C997 1.387 . S
H999 C1011 0.930 . S
H1000 C1013 0.930 . S
H1001 C1014 0.930 . S
H1002 C1018 0.959 . S
H1003 C1018 0.959 . S
H1004 C1018 0.961 . S
H1005 C1019 0.960 . S
H1006 C1019 0.961 . S
H1007 C1019 0.959 . S
H1008 C1022 0.929 . S
H1009 C1023 0.931 . S
H1010 C1025 0.930 . S
C1011 H999 0.930 . S
C1011 C1012 1.399 . S
C1011 C1016 1.399 . S
C1012 C1011 1.399 . S
C1012 C1013 1.376 . S
C1013 H1000 0.930 . S
C1013 C1012 1.376 . S
C1013 C1014 1.388 . S
C1014 H1001 0.930 . S
C1014 C1013 1.388 . S
C1014 C1015 1.390 . S
C1015 C1014 1.390 . S
C1015 C1016 1.394 . S
C1015 C1021 1.465 . S
C1016 C1011 1.399 . S
C1016 C1015 1.394 . S
C1016 C1017 1.516 . S
C1017 C1016 1.516 . S
C1017 C1018 1.502 . S
C1017 C1019 1.561 . S
C1017 C1020 1.526 . S
C1018 H1002 0.959 . S
C1018 H1003 0.959 . S
C1018 H1004 0.961 . S
C1018 C1017 1.502 . S
C1019 H1005 0.960 . S
C1019 H1006 0.961 . S
C1019 H1007 0.959 . S
C1019 C1017 1.561 . S
C1020 C1017 1.526 . S
C1020 C1021 1.396 . S
C1020 C1025 1.390 . S
C1021 C1015 1.465 . S
C1021 C1020 1.396 . S
C1021 C1022 1.399 . S
C1022 H1008 0.929 . S
C1022 C1021 1.399 . S
C1022 C1023 1.385 . S
C1023 H1009 0.931 . S
C1023 C1022 1.385 . S
C1023 C1024 1.389 . S
C1024 C1023 1.389 . S
C1024 C1025 1.387 . S
C1025 H1010 0.930 . S
C1025 C1020 1.390 . S
C1025 C1024 1.387 . S
H1026 C1038 0.930 . S
H1027 C1040 0.930 . S
H1028 C1041 0.930 . S
H1029 C1045 0.959 . S
H1030 C1045 0.959 . S
H1031 C1045 0.961 . S
H1032 C1046 0.960 . S
H1033 C1046 0.961 . S
H1034 C1046 0.959 . S
H1035 C1049 0.929 . S
H1036 C1050 0.931 . S
H1037 C1052 0.930 . S
C1038 H1026 0.930 . S
C1038 C1039 1.399 . S
C1038 C1043 1.399 . S
C1039 C1038 1.399 . S
C1039 C1040 1.376 . S
C1040 H1027 0.930 . S
C1040 C1039 1.376 . S
C1040 C1041 1.388 . S
C1041 H1028 0.930 . S
C1041 C1040 1.388 . S
C1041 C1042 1.390 . S
C1042 C1041 1.390 . S
C1042 C1043 1.394 . S
C1042 C1048 1.465 . S
C1043 C1038 1.399 . S
C1043 C1042 1.394 . S
C1043 C1044 1.516 . S
C1044 C1043 1.516 . S
C1044 C1045 1.502 . S
C1044 C1046 1.561 . S
C1044 C1047 1.526 . S
C1045 H1029 0.959 . S
C1045 H1030 0.959 . S
C1045 H1031 0.961 . S
C1045 C1044 1.502 . S
C1046 H1032 0.960 . S
C1046 H1033 0.961 . S
C1046 H1034 0.959 . S
C1046 C1044 1.561 . S
C1047 C1044 1.526 . S
C1047 C1048 1.396 . S
C1047 C1052 1.390 . S
C1048 C1042 1.465 . S
C1048 C1047 1.396 . S
C1048 C1049 1.399 . S
C1049 H1035 0.929 . S
C1049 C1048 1.399 . S
C1049 C1050 1.385 . S
C1050 H1036 0.931 . S
C1050 C1049 1.385 . S
C1050 C1051 1.389 . S
C1051 C1050 1.389 . S
C1051 C1052 1.387 . S
C1052 H1037 0.930 . S
C1052 C1047 1.390 . S
C1052 C1051 1.387 . S
H1053 C1065 0.930 . S
H1054 C1067 0.930 . S
H1055 C1068 0.930 . S
H1056 C1072 0.959 . S
H1057 C1072 0.959 . S
H1058 C1072 0.961 . S
H1059 C1073 0.960 . S
H1060 C1073 0.961 . S
H1061 C1073 0.959 . S
H1062 C1076 0.929 . S
H1063 C1077 0.931 . S
H1064 C1079 0.930 . S
C1065 H1053 0.930 . S
C1065 C1066 1.399 . S
C1065 C1070 1.399 . S
C1066 C1065 1.399 . S
C1066 C1067 1.376 . S
C1067 H1054 0.930 . S
C1067 C1066 1.376 . S
C1067 C1068 1.388 . S
C1068 H1055 0.930 . S
C1068 C1067 1.388 . S
C1068 C1069 1.390 . S
C1069 C1068 1.390 . S
C1069 C1070 1.394 . S
C1069 C1075 1.465 . S
C1070 C1065 1.399 . S
C1070 C1069 1.394 . S
C1070 C1071 1.516 . S
C1071 C1070 1.516 . S
C1071 C1072 1.502 . S
C1071 C1073 1.561 . S
C1071 C1074 1.526 . S
C1072 H1056 0.959 . S
C1072 H1057 0.959 . S
C1072 H1058 0.961 . S
C1072 C1071 1.502 . S
C1073 H1059 0.960 . S
C1073 H1060 0.961 . S
C1073 H1061 0.959 . S
C1073 C1071 1.561 . S
C1074 C1071 1.526 . S
C1074 C1075 1.396 . S
C1074 C1079 1.390 . S
C1075 C1069 1.465 . S
C1075 C1074 1.396 . S
C1075 C1076 1.399 . S
C1076 H1062 0.929 . S
C1076 C1075 1.399 . S
C1076 C1077 1.385 . S
C1077 H1063 0.931 . S
C1077 C1076 1.385 . S
C1077 C1078 1.389 . S
C1078 C1077 1.389 . S
C1078 C1079 1.387 . S
C1079 H1064 0.930 . S
C1079 C1074 1.390 . S
C1079 C1078 1.387 . S
H1080 C1092 0.930 . S
H1081 C1094 0.930 . S
H1082 C1095 0.930 . S
H1083 C1099 0.959 . S
H1084 C1099 0.959 . S
H1085 C1099 0.961 . S
H1086 C1100 0.960 . S
H1087 C1100 0.961 . S
H1088 C1100 0.959 . S
H1089 C1103 0.929 . S
H1090 C1104 0.931 . S
H1091 C1106 0.930 . S
C1092 H1080 0.930 . S
C1092 C1093 1.399 . S
C1092 C1097 1.399 . S
C1093 C1092 1.399 . S
C1093 C1094 1.376 . S
C1094 H1081 0.930 . S
C1094 C1093 1.376 . S
C1094 C1095 1.388 . S
C1095 H1082 0.930 . S
C1095 C1094 1.388 . S
C1095 C1096 1.390 . S
C1096 C1095 1.390 . S
C1096 C1097 1.394 . S
C1096 C1102 1.465 . S
C1097 C1092 1.399 . S
C1097 C1096 1.394 . S
C1097 C1098 1.516 . S
C1098 C1097 1.516 . S
C1098 C1099 1.502 . S
C1098 C1100 1.561 . S
C1098 C1101 1.526 . S
C1099 H1083 0.959 . S
C1099 H1084 0.959 . S
C1099 H1085 0.961 . S
C1099 C1098 1.502 . S
C1100 H1086 0.960 . S
C1100 H1087 0.961 . S
C1100 H1088 0.959 . S
C1100 C1098 1.561 . S
C1101 C1098 1.526 . S
C1101 C1102 1.396 . S
C1101 C1106 1.390 . S
C1102 C1096 1.465 . S
C1102 C1101 1.396 . S
C1102 C1103 1.399 . S
C1103 H1089 0.929 . S
C1103 C1102 1.399 . S
C1103 C1104 1.385 . S
C1104 H1090 0.931 . S
C1104 C1103 1.385 . S
C1104 C1105 1.389 . S
C1105 C1104 1.389 . S
C1105 C1106 1.387 . S
C1106 H1091 0.930 . S
C1106 C1101 1.390 . S
C1106 C1105 1.387 . S
H1107 C1119 0.930 . S
H1108 C1121 0.930 . S
H1109 C1122 0.930 . S
H1110 C1126 0.959 . S
H1111 C1126 0.959 . S
H1112 C1126 0.961 . S
H1113 C1127 0.960 . S
H1114 C1127 0.961 . S
H1115 C1127 0.959 . S
H1116 C1130 0.929 . S
H1117 C1131 0.931 1_556 S
H1118 C1133 0.930 . S
C1119 H1107 0.930 . S
C1119 C1120 1.399 . S
C1119 C1124 1.399 . S
C1120 C1119 1.399 . S
C1120 C1121 1.376 . S
C1121 H1108 0.930 . S
C1121 C1120 1.376 . S
C1121 C1122 1.388 . S
C1122 H1109 0.930 . S
C1122 C1121 1.388 . S
C1122 C1123 1.390 . S
C1123 C1122 1.390 . S
C1123 C1124 1.394 . S
C1123 C1129 1.465 . S
C1124 C1119 1.399 . S
C1124 C1123 1.394 . S
C1124 C1125 1.516 . S
C1125 C1124 1.516 . S
C1125 C1126 1.502 . S
C1125 C1127 1.561 . S
C1125 C1128 1.526 . S
C1126 H1110 0.959 . S
C1126 H1111 0.959 . S
C1126 H1112 0.961 . S
C1126 C1125 1.502 . S
C1127 H1113 0.960 . S
C1127 H1114 0.961 . S
C1127 H1115 0.959 . S
C1127 C1125 1.561 . S
C1128 C1125 1.526 . S
C1128 C1129 1.396 . S
C1128 C1133 1.390 . S
C1129 C1123 1.465 . S
C1129 C1128 1.396 . S
C1129 C1130 1.399 . S
C1130 H1116 0.929 . S
C1130 C1129 1.399 . S
C1130 C1131 1.385 . S
C1131 H1117 0.931 1_554 S
C1131 C1130 1.385 . S
C1131 C1132 1.389 . S
C1132 C1131 1.389 . S
C1132 C1133 1.387 . S
C1133 H1118 0.930 . S
C1133 C1128 1.390 . S
C1133 C1132 1.387 . S
H1134 C1146 0.930 . S
H1135 C1148 0.930 . S
H1136 C1149 0.930 . S
H1137 C1153 0.959 . S
H1138 C1153 0.959 . S
H1139 C1153 0.961 . S
H1140 C1154 0.960 . S
H1141 C1154 0.961 . S
H1142 C1154 0.959 . S
H1143 C1157 0.929 . S
H1144 C1158 0.931 . S
H1145 C1160 0.930 . S
C1146 H1134 0.930 . S
C1146 C1147 1.399 . S
C1146 C1151 1.399 . S
C1147 C1146 1.399 . S
C1147 C1148 1.376 . S
C1148 H1135 0.930 . S
C1148 C1147 1.376 . S
C1148 C1149 1.388 . S
C1149 H1136 0.930 . S
C1149 C1148 1.388 . S
C1149 C1150 1.390 . S
C1150 C1149 1.390 . S
C1150 C1151 1.394 . S
C1150 C1156 1.465 . S
C1151 C1146 1.399 . S
C1151 C1150 1.394 . S
C1151 C1152 1.516 . S
C1152 C1151 1.516 . S
C1152 C1153 1.502 . S
C1152 C1154 1.561 . S
C1152 C1155 1.526 . S
C1153 H1137 0.959 . S
C1153 H1138 0.959 . S
C1153 H1139 0.961 . S
C1153 C1152 1.502 . S
C1154 H1140 0.960 . S
C1154 H1141 0.961 . S
C1154 H1142 0.959 . S
C1154 C1152 1.561 . S
C1155 C1152 1.526 . S
C1155 C1156 1.396 . S
C1155 C1160 1.390 . S
C1156 C1150 1.465 . S
C1156 C1155 1.396 . S
C1156 C1157 1.399 . S
C1157 H1143 0.929 . S
C1157 C1156 1.399 . S
C1157 C1158 1.385 . S
C1158 H1144 0.931 . S
C1158 C1157 1.385 . S
C1158 C1159 1.389 . S
C1159 C1158 1.389 . S
C1159 C1160 1.387 . S
C1160 H1145 0.930 . S
C1160 C1155 1.390 . S
C1160 C1159 1.387 . S
H1161 C1173 0.930 . S
H1162 C1175 0.930 . S
H1163 C1176 0.930 . S
H1164 C1180 0.959 . S
H1165 C1180 0.959 . S
H1166 C1180 0.961 . S
H1167 C1181 0.960 . S
H1168 C1181 0.961 . S
H1169 C1181 0.959 . S
H1170 C1184 0.929 . S
H1171 C1185 0.931 . S
H1172 C1187 0.930 . S
C1173 H1161 0.930 . S
C1173 C1174 1.399 . S
C1173 C1178 1.399 . S
C1174 C1173 1.399 . S
C1174 C1175 1.376 . S
C1175 H1162 0.930 . S
C1175 C1174 1.376 . S
C1175 C1176 1.388 . S
C1176 H1163 0.930 . S
C1176 C1175 1.388 . S
C1176 C1177 1.390 . S
C1177 C1176 1.390 . S
C1177 C1178 1.394 . S
C1177 C1183 1.465 . S
C1178 C1173 1.399 . S
C1178 C1177 1.394 . S
C1178 C1179 1.516 . S
C1179 C1178 1.516 . S
C1179 C1180 1.502 . S
C1179 C1181 1.561 . S
C1179 C1182 1.526 . S
C1180 H1164 0.959 . S
C1180 H1165 0.959 . S
C1180 H1166 0.961 . S
C1180 C1179 1.502 . S
C1181 H1167 0.960 . S
C1181 H1168 0.961 . S
C1181 H1169 0.959 . S
C1181 C1179 1.561 . S
C1182 C1179 1.526 . S
C1182 C1183 1.396 . S
C1182 C1187 1.390 . S
C1183 C1177 1.465 . S
C1183 C1182 1.396 . S
C1183 C1184 1.399 . S
C1184 H1170 0.929 . S
C1184 C1183 1.399 . S
C1184 C1185 1.385 . S
C1185 H1171 0.931 . S
C1185 C1184 1.385 . S
C1185 C1186 1.389 . S
C1186 C1185 1.389 . S
C1186 C1187 1.387 . S
C1187 H1172 0.930 . S
C1187 C1182 1.390 . S
C1187 C1186 1.387 . S
H1188 C1200 0.930 . S
H1189 C1202 0.930 . S
H1190 C1203 0.930 . S
H1191 C1207 0.959 . S
H1192 C1207 0.959 . S
H1193 C1207 0.961 . S
H1194 C1208 0.960 . S
H1195 C1208 0.961 . S
H1196 C1208 0.959 . S
H1197 C1211 0.929 . S
H1198 C1212 0.931 . S
H1199 C1214 0.930 . S
C1200 H1188 0.930 . S
C1200 C1201 1.399 . S
C1200 C1205 1.399 . S
C1201 C1200 1.399 . S
C1201 C1202 1.376 . S
C1202 H1189 0.930 . S
C1202 C1201 1.376 . S
C1202 C1203 1.388 . S
C1203 H1190 0.930 . S
C1203 C1202 1.388 . S
C1203 C1204 1.390 . S
C1204 C1203 1.390 . S
C1204 C1205 1.394 . S
C1204 C1210 1.465 . S
C1205 C1200 1.399 . S
C1205 C1204 1.394 . S
C1205 C1206 1.516 . S
C1206 C1205 1.516 . S
C1206 C1207 1.502 . S
C1206 C1208 1.561 . S
C1206 C1209 1.526 . S
C1207 H1191 0.959 . S
C1207 H1192 0.959 . S
C1207 H1193 0.961 . S
C1207 C1206 1.502 . S
C1208 H1194 0.960 . S
C1208 H1195 0.961 . S
C1208 H1196 0.959 . S
C1208 C1206 1.561 . S
C1209 C1206 1.526 . S
C1209 C1210 1.396 . S
C1209 C1214 1.390 . S
C1210 C1204 1.465 . S
C1210 C1209 1.396 . S
C1210 C1211 1.399 . S
C1211 H1197 0.929 . S
C1211 C1210 1.399 . S
C1211 C1212 1.385 . S
C1212 H1198 0.931 . S
C1212 C1211 1.385 . S
C1212 C1213 1.389 . S
C1213 C1212 1.389 . S
C1213 C1214 1.387 . S
C1214 H1199 0.930 . S
C1214 C1209 1.390 . S
C1214 C1213 1.387 . S
H1215 C1227 0.930 . S
H1216 C1229 0.930 . S
H1217 C1230 0.930 . S
H1218 C1234 0.959 . S
H1219 C1234 0.959 . S
H1220 C1234 0.961 . S
H1221 C1235 0.960 . S
H1222 C1235 0.961 . S
H1223 C1235 0.959 . S
H1224 C1238 0.929 . S
H1225 C1239 0.931 . S
H1226 C1241 0.930 . S
C1227 H1215 0.930 . S
C1227 C1228 1.399 . S
C1227 C1232 1.399 . S
C1228 C1227 1.399 . S
C1228 C1229 1.376 . S
C1229 H1216 0.930 . S
C1229 C1228 1.376 . S
C1229 C1230 1.388 . S
C1230 H1217 0.930 . S
C1230 C1229 1.388 . S
C1230 C1231 1.390 . S
C1231 C1230 1.390 . S
C1231 C1232 1.394 . S
C1231 C1237 1.465 . S
C1232 C1227 1.399 . S
C1232 C1231 1.394 . S
C1232 C1233 1.516 . S
C1233 C1232 1.516 . S
C1233 C1234 1.502 . S
C1233 C1235 1.561 . S
C1233 C1236 1.526 . S
C1234 H1218 0.959 . S
C1234 H1219 0.959 . S
C1234 H1220 0.961 . S
C1234 C1233 1.502 . S
C1235 H1221 0.960 . S
C1235 H1222 0.961 . S
C1235 H1223 0.959 . S
C1235 C1233 1.561 . S
C1236 C1233 1.526 . S
C1236 C1237 1.396 . S
C1236 C1241 1.390 . S
C1237 C1231 1.465 . S
C1237 C1236 1.396 . S
C1237 C1238 1.399 . S
C1238 H1224 0.929 . S
C1238 C1237 1.399 . S
C1238 C1239 1.385 . S
C1239 H1225 0.931 . S
C1239 C1238 1.385 . S
C1239 C1240 1.389 . S
C1240 C1239 1.389 . S
C1240 C1241 1.387 . S
C1241 H1226 0.930 . S
C1241 C1236 1.390 . S
C1241 C1240 1.387 . S
H1242 C1254 0.930 . S
H1243 C1256 0.930 . S
H1244 C1257 0.930 . S
H1245 C1261 0.959 . S
H1246 C1261 0.959 . S
H1247 C1261 0.961 . S
H1248 C1262 0.960 . S
H1249 C1262 0.961 . S
H1250 C1262 0.959 . S
H1251 C1265 0.929 . S
H1252 C1266 0.931 . S
H1253 C1268 0.930 . S
C1254 H1242 0.930 . S
C1254 C1255 1.399 . S
C1254 C1259 1.399 . S
C1255 C1254 1.399 . S
C1255 C1256 1.376 . S
C1256 H1243 0.930 . S
C1256 C1255 1.376 . S
C1256 C1257 1.388 . S
C1257 H1244 0.930 . S
C1257 C1256 1.388 . S
C1257 C1258 1.390 . S
C1258 C1257 1.390 . S
C1258 C1259 1.394 . S
C1258 C1264 1.465 . S
C1259 C1254 1.399 . S
C1259 C1258 1.394 . S
C1259 C1260 1.516 . S
C1260 C1259 1.516 . S
C1260 C1261 1.502 . S
C1260 C1262 1.561 . S
C1260 C1263 1.526 . S
C1261 H1245 0.959 . S
C1261 H1246 0.959 . S
C1261 H1247 0.961 . S
C1261 C1260 1.502 . S
C1262 H1248 0.960 . S
C1262 H1249 0.961 . S
C1262 H1250 0.959 . S
C1262 C1260 1.561 . S
C1263 C1260 1.526 . S
C1263 C1264 1.396 . S
C1263 C1268 1.390 . S
C1264 C1258 1.465 . S
C1264 C1263 1.396 . S
C1264 C1265 1.399 . S
C1265 H1251 0.929 . S
C1265 C1264 1.399 . S
C1265 C1266 1.385 . S
C1266 H1252 0.931 . S
C1266 C1265 1.385 . S
C1266 C1267 1.389 . S
C1267 C1266 1.389 . S
C1267 C1268 1.387 . S
C1268 H1253 0.930 . S
C1268 C1263 1.390 . S
C1268 C1267 1.387 . S
H1269 C1281 0.930 . S
H1270 C1283 0.930 . S
H1271 C1284 0.930 . S
H1272 C1288 0.959 . S
H1273 C1288 0.959 . S
H1274 C1288 0.961 . S
H1275 C1289 0.960 . S
H1276 C1289 0.961 . S
H1277 C1289 0.959 . S
H1278 C1292 0.929 . S
H1279 C1293 0.916 1_554 S
H1280 C1295 0.930 . S
C1281 H1269 0.930 . S
C1281 C1282 1.399 . S
C1281 C1286 1.399 . S
C1282 C1281 1.399 . S
C1282 C1283 1.376 . S
C1283 H1270 0.930 . S
C1283 C1282 1.376 . S
C1283 C1284 1.388 . S
C1284 H1271 0.930 . S
C1284 C1283 1.388 . S
C1284 C1285 1.390 . S
C1285 C1284 1.390 . S
C1285 C1286 1.394 . S
C1285 C1291 1.465 . S
C1286 C1281 1.399 . S
C1286 C1285 1.394 . S
C1286 C1287 1.516 . S
C1287 C1286 1.516 . S
C1287 C1288 1.502 . S
C1287 C1289 1.561 . S
C1287 C1290 1.526 . S
C1288 H1272 0.959 . S
C1288 H1273 0.959 . S
C1288 H1274 0.961 . S
C1288 C1287 1.502 . S
C1289 H1275 0.960 . S
C1289 H1276 0.961 . S
C1289 H1277 0.959 . S
C1289 C1287 1.561 . S
C1290 C1287 1.526 . S
C1290 C1291 1.396 . S
C1290 C1295 1.390 . S
C1291 C1285 1.465 . S
C1291 C1290 1.396 . S
C1291 C1292 1.399 . S
C1292 H1278 0.929 . S
C1292 C1291 1.399 . S
C1292 C1293 1.385 . S
C1293 H1279 0.916 1_556 S
C1293 C1292 1.385 . S
C1293 C1294 1.389 . S
C1294 C1293 1.389 . S
C1294 C1295 1.387 . S
C1295 H1280 0.930 . S
C1295 C1290 1.390 . S
C1295 C1294 1.387 . S
H1296 C1308 0.930 . S
H1297 C1310 0.930 . S
H1298 C1311 0.930 . S
H1299 C1315 0.959 . S
H1300 C1315 0.959 . S
H1301 C1315 0.961 . S
H1302 C1316 0.960 . S
H1303 C1316 0.961 . S
H1304 C1316 0.959 . S
H1305 C1319 0.929 . S
H1306 C1320 0.931 . S
H1307 C1322 0.930 . S
C1308 H1296 0.930 . S
C1308 C1309 1.399 . S
C1308 C1313 1.399 . S
C1309 C1308 1.399 . S
C1309 C1310 1.376 . S
C1310 H1297 0.930 . S
C1310 C1309 1.376 . S
C1310 C1311 1.388 . S
C1311 H1298 0.930 . S
C1311 C1310 1.388 . S
C1311 C1312 1.390 . S
C1312 C1311 1.390 . S
C1312 C1313 1.394 . S
C1312 C1318 1.465 . S
C1313 C1308 1.399 . S
C1313 C1312 1.394 . S
C1313 C1314 1.516 . S
C1314 C1313 1.516 . S
C1314 C1315 1.502 . S
C1314 C1316 1.561 . S
C1314 C1317 1.526 . S
C1315 H1299 0.959 . S
C1315 H1300 0.959 . S
C1315 H1301 0.961 . S
C1315 C1314 1.502 . S
C1316 H1302 0.960 . S
C1316 H1303 0.961 . S
C1316 H1304 0.959 . S
C1316 C1314 1.561 . S
C1317 C1314 1.526 . S
C1317 C1318 1.396 . S
C1317 C1322 1.390 . S
C1318 C1312 1.465 . S
C1318 C1317 1.396 . S
C1318 C1319 1.399 . S
C1319 H1305 0.929 . S
C1319 C1318 1.399 . S
C1319 C1320 1.385 . S
C1320 H1306 0.931 . S
C1320 C1319 1.385 . S
C1320 C1321 1.389 . S
C1321 C1320 1.389 . S
C1321 C1322 1.387 . S
C1322 H1307 0.930 . S
C1322 C1317 1.390 . S
C1322 C1321 1.387 . S
H1323 C1335 0.930 . S
H1324 C1337 0.930 . S
H1325 C1338 0.930 . S
H1326 C1342 0.959 . S
H1327 C1342 0.959 . S
H1328 C1342 0.961 . S
H1329 C1343 0.960 . S
H1330 C1343 0.961 . S
H1331 C1343 0.959 . S
H1332 C1346 0.929 . S
H1333 C1347 0.931 . S
H1334 C1349 0.930 . S
C1335 H1323 0.930 . S
C1335 C1336 1.399 . S
C1335 C1340 1.399 . S
C1336 C1335 1.399 . S
C1336 C1337 1.376 . S
C1337 H1324 0.930 . S
C1337 C1336 1.376 . S
C1337 C1338 1.388 . S
C1338 H1325 0.930 . S
C1338 C1337 1.388 . S
C1338 C1339 1.390 . S
C1339 C1338 1.390 . S
C1339 C1340 1.394 . S
C1339 C1345 1.465 . S
C1340 C1335 1.399 . S
C1340 C1339 1.394 . S
C1340 C1341 1.516 . S
C1341 C1340 1.516 . S
C1341 C1342 1.502 . S
C1341 C1343 1.561 . S
C1341 C1344 1.526 . S
C1342 H1326 0.959 . S
C1342 H1327 0.959 . S
C1342 H1328 0.961 . S
C1342 C1341 1.502 . S
C1343 H1329 0.960 . S
C1343 H1330 0.961 . S
C1343 H1331 0.959 . S
C1343 C1341 1.561 . S
C1344 C1341 1.526 . S
C1344 C1345 1.396 . S
C1344 C1349 1.390 . S
C1345 C1339 1.465 . S
C1345 C1344 1.396 . S
C1345 C1346 1.399 . S
C1346 H1332 0.929 . S
C1346 C1345 1.399 . S
C1346 C1347 1.385 . S
C1347 H1333 0.931 . S
C1347 C1346 1.385 . S
C1347 C1348 1.389 . S
C1348 C1347 1.389 . S
C1348 C1349 1.387 . S
C1349 H1334 0.930 . S
C1349 C1344 1.390 . S
C1349 C1348 1.387 . S
H1350 C1362 0.930 . S
H1351 C1364 0.930 . S
H1352 C1365 0.930 . S
H1353 C1369 0.959 . S
H1354 C1369 0.959 . S
H1355 C1369 0.961 . S
H1356 C1370 0.960 . S
H1357 C1370 0.961 . S
H1358 C1370 0.959 . S
H1359 C1373 0.929 . S
H1360 C1374 0.931 . S
H1361 C1376 0.930 . S
C1362 H1350 0.930 . S
C1362 C1363 1.399 . S
C1362 C1367 1.399 . S
C1363 C1362 1.399 . S
C1363 C1364 1.376 . S
C1364 H1351 0.930 . S
C1364 C1363 1.376 . S
C1364 C1365 1.388 . S
C1365 H1352 0.930 . S
C1365 C1364 1.388 . S
C1365 C1366 1.390 . S
C1366 C1365 1.390 . S
C1366 C1367 1.394 . S
C1366 C1372 1.465 . S
C1367 C1362 1.399 . S
C1367 C1366 1.394 . S
C1367 C1368 1.516 . S
C1368 C1367 1.516 . S
C1368 C1369 1.502 . S
C1368 C1370 1.561 . S
C1368 C1371 1.526 . S
C1369 H1353 0.959 . S
C1369 H1354 0.959 . S
C1369 H1355 0.961 . S
C1369 C1368 1.502 . S
C1370 H1356 0.960 . S
C1370 H1357 0.961 . S
C1370 H1358 0.959 . S
C1370 C1368 1.561 . S
C1371 C1368 1.526 . S
C1371 C1372 1.396 . S
C1371 C1376 1.390 . S
C1372 C1366 1.465 . S
C1372 C1371 1.396 . S
C1372 C1373 1.399 . S
C1373 H1359 0.929 . S
C1373 C1372 1.399 . S
C1373 C1374 1.385 . S
C1374 H1360 0.931 . S
C1374 C1373 1.385 . S
C1374 C1375 1.389 . S
C1375 C1374 1.389 . S
C1375 C1376 1.387 . S
C1376 H1361 0.930 . S
C1376 C1371 1.390 . S
C1376 C1375 1.387 . S
H1377 C1389 0.930 . S
H1378 C1391 0.930 . S
H1379 C1392 0.930 . S
H1380 C1396 0.959 . S
H1381 C1396 0.959 . S
H1382 C1396 0.961 . S
H1383 C1397 0.960 . S
H1384 C1397 0.961 . S
H1385 C1397 0.959 . S
H1386 C1400 0.929 . S
H1387 C1401 0.931 . S
H1388 C1403 0.930 . S
C1389 H1377 0.930 . S
C1389 C1390 1.399 . S
C1389 C1394 1.399 . S
C1390 C1389 1.399 . S
C1390 C1391 1.376 . S
C1391 H1378 0.930 . S
C1391 C1390 1.376 . S
C1391 C1392 1.388 . S
C1392 H1379 0.930 . S
C1392 C1391 1.388 . S
C1392 C1393 1.390 . S
C1393 C1392 1.390 . S
C1393 C1394 1.394 . S
C1393 C1399 1.465 . S
C1394 C1389 1.399 . S
C1394 C1393 1.394 . S
C1394 C1395 1.516 . S
C1395 C1394 1.516 . S
C1395 C1396 1.502 . S
C1395 C1397 1.561 . S
C1395 C1398 1.526 . S
C1396 H1380 0.959 . S
C1396 H1381 0.959 . S
C1396 H1382 0.961 . S
C1396 C1395 1.502 . S
C1397 H1383 0.960 . S
C1397 H1384 0.961 . S
C1397 H1385 0.959 . S
C1397 C1395 1.561 . S
C1398 C1395 1.526 . S
C1398 C1399 1.396 . S
C1398 C1403 1.390 . S
C1399 C1393 1.465 . S
C1399 C1398 1.396 . S
C1399 C1400 1.399 . S
C1400 H1386 0.929 . S
C1400 C1399 1.399 . S
C1400 C1401 1.385 . S
C1401 H1387 0.931 . S
C1401 C1400 1.385 . S
C1401 C1402 1.389 . S
C1402 C1401 1.389 . S
C1402 C1403 1.387 . S
C1403 H1388 0.930 . S
C1403 C1398 1.390 . S
C1403 C1402 1.387 . S
H1404 C1416 0.930 . S
H1405 C1418 0.930 . S
H1406 C1419 0.930 . S
H1407 C1423 0.959 . S
H1408 C1423 0.959 . S
H1409 C1423 0.961 . S
H1410 C1424 0.960 . S
H1411 C1424 0.961 . S
H1412 C1424 0.959 . S
H1413 C1427 0.929 . S
H1414 C1428 0.931 . S
H1415 C1430 0.930 . S
C1416 H1404 0.930 . S
C1416 C1417 1.399 . S
C1416 C1421 1.399 . S
C1417 C1416 1.399 . S
C1417 C1418 1.376 . S
C1418 H1405 0.930 . S
C1418 C1417 1.376 . S
C1418 C1419 1.388 . S
C1419 H1406 0.930 . S
C1419 C1418 1.388 . S
C1419 C1420 1.390 . S
C1420 C1419 1.390 . S
C1420 C1421 1.394 . S
C1420 C1426 1.465 . S
C1421 C1416 1.399 . S
C1421 C1420 1.394 . S
C1421 C1422 1.516 . S
C1422 C1421 1.516 . S
C1422 C1423 1.502 . S
C1422 C1424 1.561 . S
C1422 C1425 1.526 . S
C1423 H1407 0.959 . S
C1423 H1408 0.959 . S
C1423 H1409 0.961 . S
C1423 C1422 1.502 . S
C1424 H1410 0.960 . S
C1424 H1411 0.961 . S
C1424 H1412 0.959 . S
C1424 C1422 1.561 . S
C1425 C1422 1.526 . S
C1425 C1426 1.396 . S
C1425 C1430 1.390 . S
C1426 C1420 1.465 . S
C1426 C1425 1.396 . S
C1426 C1427 1.399 . S
C1427 H1413 0.929 . S
C1427 C1426 1.399 . S
C1427 C1428 1.385 . S
C1428 H1414 0.931 . S
C1428 C1427 1.385 . S
C1428 C1429 1.389 . S
C1429 C1428 1.389 . S
C1429 C1430 1.387 . S
C1430 H1415 0.930 . S
C1430 C1425 1.390 . S
C1430 C1429 1.387 . S
H1431 C1443 0.930 . S
H1432 C1445 0.930 . S
H1433 C1446 0.930 . S
H1434 C1450 0.959 . S
H1435 C1450 0.959 . S
H1436 C1450 0.961 . S
H1437 C1451 0.960 . S
H1438 C1451 0.961 . S
H1439 C1451 0.959 . S
H1440 C1454 0.929 . S
H1441 C1455 0.931 . S
H1442 C1457 0.930 . S
C1443 H1431 0.930 . S
C1443 C1444 1.399 . S
C1443 C1448 1.399 . S
C1444 C1443 1.399 . S
C1444 C1445 1.376 . S
C1445 H1432 0.930 . S
C1445 C1444 1.376 . S
C1445 C1446 1.388 . S
C1446 H1433 0.930 . S
C1446 C1445 1.388 . S
C1446 C1447 1.390 . S
C1447 C1446 1.390 . S
C1447 C1448 1.394 . S
C1447 C1453 1.465 . S
C1448 C1443 1.399 . S
C1448 C1447 1.394 . S
C1448 C1449 1.516 . S
C1449 C1448 1.516 . S
C1449 C1450 1.502 . S
C1449 C1451 1.561 . S
C1449 C1452 1.526 . S
C1450 H1434 0.959 . S
C1450 H1435 0.959 . S
C1450 H1436 0.961 . S
C1450 C1449 1.502 . S
C1451 H1437 0.960 . S
C1451 H1438 0.961 . S
C1451 H1439 0.959 . S
C1451 C1449 1.561 . S
C1452 C1449 1.526 . S
C1452 C1453 1.396 . S
C1452 C1457 1.390 . S
C1453 C1447 1.465 . S
C1453 C1452 1.396 . S
C1453 C1454 1.399 . S
C1454 H1440 0.929 . S
C1454 C1453 1.399 . S
C1454 C1455 1.385 . S
C1455 H1441 0.931 . S
C1455 C1454 1.385 . S
C1455 C1456 1.389 . S
C1456 C1455 1.389 . S
C1456 C1457 1.387 . S
C1457 H1442 0.930 . S
C1457 C1452 1.390 . S
C1457 C1456 1.387 . S
H1458 C1470 0.930 1_565 S
H1459 C1472 0.930 . S
H1460 C1473 0.930 . S
H1461 C1477 0.959 1_545 S
H1462 C1477 0.959 . S
H1463 C1477 0.961 . S
H1464 C1478 0.960 . S
H1465 C1478 0.961 . S
H1466 C1478 0.959 . S
H1467 C1481 0.929 . S
H1468 C1482 0.931 . S
H1469 C1484 0.930 1_565 S
C1470 H1458 0.930 1_545 S
C1470 C1471 1.399 . S
C1470 C1475 1.399 . S
C1471 C1470 1.399 . S
C1471 C1472 1.376 . S
C1472 H1459 0.930 . S
C1472 C1471 1.376 . S
C1472 C1473 1.388 . S
C1473 H1460 0.930 . S
C1473 C1472 1.388 . S
C1473 C1474 1.390 . S
C1474 C1473 1.390 . S
C1474 C1475 1.394 . S
C1474 C1480 1.465 . S
C1475 C1470 1.399 . S
C1475 C1474 1.394 . S
C1475 C1476 1.516 . S
C1476 C1475 1.516 . S
C1476 C1477 1.502 1_545 S
C1476 C1478 1.561 1_545 S
C1476 C1479 1.526 . S
C1477 H1461 0.959 1_565 S
C1477 H1462 0.959 . S
C1477 H1463 0.961 . S
C1477 C1476 1.502 1_565 S
C1478 H1464 0.960 . S
C1478 H1465 0.961 . S
C1478 H1466 0.959 . S
C1478 C1476 1.561 1_565 S
C1479 C1476 1.526 . S
C1479 C1480 1.396 . S
C1479 C1484 1.390 . S
C1480 C1474 1.465 . S
C1480 C1479 1.396 . S
C1480 C1481 1.399 . S
C1481 H1467 0.929 . S
C1481 C1480 1.399 . S
C1481 C1482 1.385 . S
C1482 H1468 0.931 . S
C1482 C1481 1.385 . S
C1482 C1483 1.389 . S
C1483 C1482 1.389 . S
C1483 C1484 1.387 . S
C1484 H1469 0.930 1_545 S
C1484 C1479 1.390 . S
C1484 C1483 1.387 . S
H1485 C1497 0.930 . S
H1486 C1499 0.930 . S
H1487 C1500 0.930 . S
H1488 C1504 0.959 . S
H1489 C1504 0.959 . S
H1490 C1504 0.961 . S
H1491 C1505 0.960 . S
H1492 C1505 0.961 . S
H1493 C1505 0.959 . S
H1494 C1508 0.929 . S
H1495 C1509 0.931 . S
H1496 C1511 0.930 . S
C1497 H1485 0.930 . S
C1497 C1498 1.399 1_455 S
C1497 C1502 1.399 . S
C1498 C1497 1.399 1_655 S
C1498 C1499 1.376 . S
C1499 H1486 0.930 . S
C1499 C1498 1.376 . S
C1499 C1500 1.388 . S
C1500 H1487 0.930 . S
C1500 C1499 1.388 . S
C1500 C1501 1.390 . S
C1501 C1500 1.390 . S
C1501 C1502 1.394 1_655 S
C1501 C1507 1.465 . S
C1502 C1497 1.399 . S
C1502 C1501 1.394 1_455 S
C1502 C1503 1.516 . S
C1503 C1502 1.516 . S
C1503 C1504 1.502 . S
C1503 C1505 1.561 . S
C1503 C1506 1.526 . S
C1504 H1488 0.959 . S
C1504 H1489 0.959 . S
C1504 H1490 0.961 . S
C1504 C1503 1.502 . S
C1505 H1491 0.960 . S
C1505 H1492 0.961 . S
C1505 H1493 0.959 . S
C1505 C1503 1.561 . S
C1506 C1503 1.526 . S
C1506 C1507 1.396 1_455 S
C1506 C1511 1.390 . S
C1507 C1501 1.465 . S
C1507 C1506 1.396 1_655 S
C1507 C1508 1.399 . S
C1508 H1494 0.929 . S
C1508 C1507 1.399 . S
C1508 C1509 1.385 . S
C1509 H1495 0.931 . S
C1509 C1508 1.385 . S
C1509 C1510 1.389 . S
C1510 C1509 1.389 . S
C1510 C1511 1.387 1_655 S
C1511 H1496 0.930 . S
C1511 C1506 1.390 . S
C1511 C1510 1.387 1_455 S
H1512 C1524 0.930 . S
H1513 C1526 0.930 . S
H1514 C1527 0.930 . S
H1515 C1531 0.959 . S
H1516 C1531 0.959 . S
H1517 C1531 0.961 . S
H1518 C1532 0.960 . S
H1519 C1532 0.961 . S
H1520 C1532 0.959 . S
H1521 C1535 0.929 . S
H1522 C1536 0.931 . S
H1523 C1538 0.930 . S
C1524 H1512 0.930 . S
C1524 C1525 1.399 . S
C1524 C1529 1.399 . S
C1525 C1524 1.399 . S
C1525 C1526 1.376 . S
C1526 H1513 0.930 . S
C1526 C1525 1.376 . S
C1526 C1527 1.388 . S
C1527 H1514 0.930 . S
C1527 C1526 1.388 . S
C1527 C1528 1.390 . S
C1528 C1527 1.390 . S
C1528 C1529 1.394 . S
C1528 C1534 1.465 . S
C1529 C1524 1.399 . S
C1529 C1528 1.394 . S
C1529 C1530 1.516 . S
C1530 C1529 1.516 . S
C1530 C1531 1.502 . S
C1530 C1532 1.561 . S
C1530 C1533 1.526 . S
C1531 H1515 0.959 . S
C1531 H1516 0.959 . S
C1531 H1517 0.961 . S
C1531 C1530 1.502 . S
C1532 H1518 0.960 . S
C1532 H1519 0.961 . S
C1532 H1520 0.959 . S
C1532 C1530 1.561 . S
C1533 C1530 1.526 . S
C1533 C1534 1.396 . S
C1533 C1538 1.390 . S
C1534 C1528 1.465 . S
C1534 C1533 1.396 . S
C1534 C1535 1.399 . S
C1535 H1521 0.929 . S
C1535 C1534 1.399 . S
C1535 C1536 1.385 . S
C1536 H1522 0.931 . S
C1536 C1535 1.385 . S
C1536 C1537 1.389 . S
C1537 C1536 1.389 . S
C1537 C1538 1.387 . S
C1538 H1523 0.930 . S
C1538 C1533 1.390 . S
C1538 C1537 1.387 . S
H1539 C1551 0.930 . S
H1540 C1553 0.930 . S
H1541 C1554 0.930 . S
H1542 C1558 0.959 . S
H1543 C1558 0.959 . S
H1544 C1558 0.961 . S
H1545 C1559 0.960 . S
H1546 C1559 0.961 . S
H1547 C1559 0.959 . S
H1548 C1562 0.929 . S
H1549 C1563 0.931 . S
H1550 C1565 0.930 . S
C1551 H1539 0.930 . S
C1551 C1552 1.399 . S
C1551 C1556 1.399 . S
C1552 C1551 1.399 . S
C1552 C1553 1.376 . S
C1553 H1540 0.930 . S
C1553 C1552 1.376 . S
C1553 C1554 1.388 . S
C1554 H1541 0.930 . S
C1554 C1553 1.388 . S
C1554 C1555 1.390 . S
C1555 C1554 1.390 . S
C1555 C1556 1.394 . S
C1555 C1561 1.465 . S
C1556 C1551 1.399 . S
C1556 C1555 1.394 . S
C1556 C1557 1.516 . S
C1557 C1556 1.516 . S
C1557 C1558 1.502 . S
C1557 C1559 1.561 . S
C1557 C1560 1.526 . S
C1558 H1542 0.959 . S
C1558 H1543 0.959 . S
C1558 H1544 0.961 . S
C1558 C1557 1.502 . S
C1559 H1545 0.960 . S
C1559 H1546 0.961 . S
C1559 H1547 0.959 . S
C1559 C1557 1.561 . S
C1560 C1557 1.526 . S
C1560 C1561 1.396 . S
C1560 C1565 1.390 . S
C1561 C1555 1.465 . S
C1561 C1560 1.396 . S
C1561 C1562 1.399 . S
C1562 H1548 0.929 . S
C1562 C1561 1.399 . S
C1562 C1563 1.385 . S
C1563 H1549 0.931 . S
C1563 C1562 1.385 . S
C1563 C1564 1.389 . S
C1564 C1563 1.389 . S
C1564 C1565 1.387 . S
C1565 H1550 0.930 . S
C1565 C1560 1.390 . S
C1565 C1564 1.387 . S
H1566 C1578 0.930 . S
H1567 C1580 0.930 . S
H1568 C1581 0.930 . S
H1569 C1585 0.959 . S
H1570 C1585 0.959 . S
H1571 C1585 0.961 . S
H1572 C1586 0.960 . S
H1573 C1586 0.961 . S
H1574 C1586 0.959 . S
H1575 C1589 0.929 . S
H1576 C1590 0.931 . S
H1577 C1592 0.930 . S
C1578 H1566 0.930 . S
C1578 C1579 1.399 . S
C1578 C1583 1.399 . S
C1579 C1578 1.399 . S
C1579 C1580 1.376 . S
C1580 H1567 0.930 . S
C1580 C1579 1.376 . S
C1580 C1581 1.388 . S
C1581 H1568 0.930 . S
C1581 C1580 1.388 . S
C1581 C1582 1.390 . S
C1582 C1581 1.390 . S
C1582 C1583 1.394 . S
C1582 C1588 1.465 . S
C1583 C1578 1.399 . S
C1583 C1582 1.394 . S
C1583 C1584 1.516 . S
C1584 C1583 1.516 . S
C1584 C1585 1.502 . S
C1584 C1586 1.561 . S
C1584 C1587 1.526 . S
C1585 H1569 0.959 . S
C1585 H1570 0.959 . S
C1585 H1571 0.961 . S
C1585 C1584 1.502 . S
C1586 H1572 0.960 . S
C1586 H1573 0.961 . S
C1586 H1574 0.959 . S
C1586 C1584 1.561 . S
C1587 C1584 1.526 . S
C1587 C1588 1.396 . S
C1587 C1592 1.390 . S
C1588 C1582 1.465 . S
C1588 C1587 1.396 . S
C1588 C1589 1.399 . S
C1589 H1575 0.929 . S
C1589 C1588 1.399 . S
C1589 C1590 1.385 . S
C1590 H1576 0.931 . S
C1590 C1589 1.385 . S
C1590 C1591 1.389 . S
C1591 C1590 1.389 . S
C1591 C1592 1.387 . S
C1592 H1577 0.930 . S
C1592 C1587 1.390 . S
C1592 C1591 1.387 . S
H1593 C1605 0.930 . S
H1594 C1607 0.930 . S
H1595 C1608 0.930 . S
H1596 C1612 0.959 . S
H1597 C1612 0.959 . S
H1598 C1612 0.961 . S
H1599 C1613 0.960 . S
H1600 C1613 0.961 . S
H1601 C1613 0.959 . S
H1602 C1616 0.929 . S
H1603 C1617 0.931 . S
H1604 C1619 0.930 . S
C1605 H1593 0.930 . S
C1605 C1606 1.399 1_545 S
C1605 C1610 1.399 . S
C1606 C1605 1.399 1_565 S
C1606 C1607 1.376 . S
C1607 H1594 0.930 . S
C1607 C1606 1.376 . S
C1607 C1608 1.388 . S
C1608 H1595 0.930 . S
C1608 C1607 1.388 . S
C1608 C1609 1.390 . S
C1609 C1608 1.390 . S
C1609 C1610 1.394 1_565 S
C1609 C1615 1.465 . S
C1610 C1605 1.399 . S
C1610 C1609 1.394 1_545 S
C1610 C1611 1.516 . S
C1611 C1610 1.516 . S
C1611 C1612 1.502 . S
C1611 C1613 1.561 . S
C1611 C1614 1.526 . S
C1612 H1596 0.959 . S
C1612 H1597 0.959 . S
C1612 H1598 0.961 . S
C1612 C1611 1.502 . S
C1613 H1599 0.960 . S
C1613 H1600 0.961 . S
C1613 H1601 0.959 . S
C1613 C1611 1.561 . S
C1614 C1611 1.526 . S
C1614 C1615 1.396 1_545 S
C1614 C1619 1.390 . S
C1615 C1609 1.465 . S
C1615 C1614 1.396 1_565 S
C1615 C1616 1.399 . S
C1616 H1602 0.929 . S
C1616 C1615 1.399 . S
C1616 C1617 1.385 . S
C1617 H1603 0.931 . S
C1617 C1616 1.385 . S
C1617 C1618 1.389 . S
C1618 C1617 1.389 . S
C1618 C1619 1.387 1_565 S
C1619 H1604 0.930 . S
C1619 C1614 1.390 . S
C1619 C1618 1.387 1_545 S
H1620 C1632 0.930 . S
H1621 C1634 0.930 . S
H1622 C1635 0.930 . S
H1623 C1639 0.959 . S
H1624 C1639 0.959 . S
H1625 C1639 0.961 . S
H1626 C1640 0.960 . S
H1627 C1640 0.961 . S
H1628 C1640 0.959 . S
H1629 C1643 0.929 . S
H1630 C1644 0.931 . S
H1631 C1646 0.930 . S
C1632 H1620 0.930 . S
C1632 C1633 1.399 1_545 S
C1632 C1637 1.399 . S
C1633 C1632 1.399 1_565 S
C1633 C1634 1.376 . S
C1634 H1621 0.930 . S
C1634 C1633 1.376 . S
C1634 C1635 1.388 . S
C1635 H1622 0.930 . S
C1635 C1634 1.388 . S
C1635 C1636 1.390 . S
C1636 C1635 1.390 . S
C1636 C1637 1.394 1_565 S
C1636 C1642 1.465 . S
C1637 C1632 1.399 . S
C1637 C1636 1.394 1_545 S
C1637 C1638 1.516 . S
C1638 C1637 1.516 . S
C1638 C1639 1.502 . S
C1638 C1640 1.561 . S
C1638 C1641 1.526 . S
C1639 H1623 0.959 . S
C1639 H1624 0.959 . S
C1639 H1625 0.961 . S
C1639 C1638 1.502 . S
C1640 H1626 0.960 . S
C1640 H1627 0.961 . S
C1640 H1628 0.959 . S
C1640 C1638 1.561 . S
C1641 C1638 1.526 . S
C1641 C1642 1.396 1_545 S
C1641 C1646 1.390 . S
C1642 C1636 1.465 . S
C1642 C1641 1.396 1_565 S
C1642 C1643 1.399 . S
C1643 H1629 0.929 . S
C1643 C1642 1.399 . S
C1643 C1644 1.385 . S
C1644 H1630 0.931 . S
C1644 C1643 1.385 . S
C1644 C1645 1.389 . S
C1645 C1644 1.389 . S
C1645 C1646 1.387 1_565 S
C1646 H1631 0.930 . S
C1646 C1641 1.390 . S
C1646 C1645 1.387 1_545 S
H1647 C1659 0.930 . S
H1648 C1661 0.930 . S
H1649 C1662 0.930 . S
H1650 C1666 0.959 . S
H1651 C1666 0.959 . S
H1652 C1666 0.961 . S
H1653 C1667 0.960 . S
H1654 C1667 0.961 . S
H1655 C1667 0.959 . S
H1656 C1670 0.929 . S
H1657 C1671 0.931 . S
H1658 C1673 0.930 . S
C1659 H1647 0.930 . S
C1659 C1660 1.399 . S
C1659 C1664 1.399 . S
C1660 C1659 1.399 . S
C1660 C1661 1.376 . S
C1661 H1648 0.930 . S
C1661 C1660 1.376 . S
C1661 C1662 1.388 . S
C1662 H1649 0.930 . S
C1662 C1661 1.388 . S
C1662 C1663 1.390 . S
C1663 C1662 1.390 . S
C1663 C1664 1.394 . S
C1663 C1669 1.465 . S
C1664 C1659 1.399 . S
C1664 C1663 1.394 . S
C1664 C1665 1.516 . S
C1665 C1664 1.516 . S
C1665 C1666 1.502 . S
C1665 C1667 1.561 1_455 S
C1665 C1668 1.526 . S
C1666 H1650 0.959 . S
C1666 H1651 0.959 . S
C1666 H1652 0.961 . S
C1666 C1665 1.502 . S
C1667 H1653 0.960 . S
C1667 H1654 0.961 . S
C1667 H1655 0.959 . S
C1667 C1665 1.561 1_655 S
C1668 C1665 1.526 . S
C1668 C1669 1.396 . S
C1668 C1673 1.390 . S
C1669 C1663 1.465 . S
C1669 C1668 1.396 . S
C1669 C1670 1.399 . S
C1670 H1656 0.929 . S
C1670 C1669 1.399 . S
C1670 C1671 1.385 . S
C1671 H1657 0.931 . S
C1671 C1670 1.385 . S
C1671 C1672 1.389 . S
C1672 C1671 1.389 . S
C1672 C1673 1.387 . S
C1673 H1658 0.930 . S
C1673 C1668 1.390 . S
C1673 C1672 1.387 . S
H1674 C1686 0.930 . S
H1675 C1688 0.930 . S
H1676 C1689 0.930 . S
H1677 C1693 0.959 . S
H1678 C1693 0.959 . S
H1679 C1693 0.961 . S
H1680 C1694 0.960 . S
H1681 C1694 0.961 . S
H1682 C1694 0.959 . S
H1683 C1697 0.929 . S
H1684 C1698 0.931 . S
H1685 C1700 0.930 . S
C1686 H1674 0.930 . S
C1686 C1687 1.399 . S
C1686 C1691 1.399 . S
C1687 C1686 1.399 . S
C1687 C1688 1.376 . S
C1688 H1675 0.930 . S
C1688 C1687 1.376 . S
C1688 C1689 1.388 . S
C1689 H1676 0.930 . S
C1689 C1688 1.388 . S
C1689 C1690 1.390 . S
C1690 C1689 1.390 . S
C1690 C1691 1.394 . S
C1690 C1696 1.465 . S
C1691 C1686 1.399 . S
C1691 C1690 1.394 . S
C1691 C1692 1.516 . S
C1692 C1691 1.516 . S
C1692 C1693 1.502 . S
C1692 C1694 1.561 . S
C1692 C1695 1.526 . S
C1693 H1677 0.959 . S
C1693 H1678 0.959 . S
C1693 H1679 0.961 . S
C1693 C1692 1.502 . S
C1694 H1680 0.960 . S
C1694 H1681 0.961 . S
C1694 H1682 0.959 . S
C1694 C1692 1.561 . S
C1695 C1692 1.526 . S
C1695 C1696 1.396 . S
C1695 C1700 1.390 . S
C1696 C1690 1.465 . S
C1696 C1695 1.396 . S
C1696 C1697 1.399 . S
C1697 H1683 0.929 . S
C1697 C1696 1.399 . S
C1697 C1698 1.385 . S
C1698 H1684 0.931 . S
C1698 C1697 1.385 . S
C1698 C1699 1.389 . S
C1699 C1698 1.389 . S
C1699 C1700 1.387 . S
C1700 H1685 0.930 . S
C1700 C1695 1.390 . S
C1700 C1699 1.387 . S
H1701 C1713 0.930 . S
H1702 C1715 0.930 . S
H1703 C1716 0.930 . S
H1704 C1720 0.959 . S
H1705 C1720 0.959 . S
H1706 C1720 0.961 . S
H1707 C1721 0.960 . S
H1708 C1721 0.961 . S
H1709 C1721 0.959 . S
H1710 C1724 0.929 . S
H1711 C1725 0.931 . S
H1712 C1727 0.930 . S
C1713 H1701 0.930 . S
C1713 C1714 1.399 . S
C1713 C1718 1.399 . S
C1714 C1713 1.399 . S
C1714 C1715 1.376 1_655 S
C1715 H1702 0.930 . S
C1715 C1714 1.376 1_455 S
C1715 C1716 1.388 . S
C1716 H1703 0.930 . S
C1716 C1715 1.388 . S
C1716 C1717 1.390 . S
C1717 C1716 1.390 . S
C1717 C1718 1.394 1_455 S
C1717 C1723 1.465 . S
C1718 C1713 1.399 . S
C1718 C1717 1.394 1_655 S
C1718 C1719 1.516 . S
C1719 C1718 1.516 . S
C1719 C1720 1.502 . S
C1719 C1721 1.561 . S
C1719 C1722 1.526 . S
C1720 H1704 0.959 . S
C1720 H1705 0.959 . S
C1720 H1706 0.961 . S
C1720 C1719 1.502 . S
C1721 H1707 0.960 . S
C1721 H1708 0.961 . S
C1721 H1709 0.959 . S
C1721 C1719 1.561 . S
C1722 C1719 1.526 . S
C1722 C1723 1.396 1_655 S
C1722 C1727 1.390 . S
C1723 C1717 1.465 . S
C1723 C1722 1.396 1_455 S
C1723 C1724 1.399 . S
C1724 H1710 0.929 . S
C1724 C1723 1.399 . S
C1724 C1725 1.385 . S
C1725 H1711 0.931 . S
C1725 C1724 1.385 . S
C1725 C1726 1.389 1_455 S
C1726 C1725 1.389 1_655 S
C1726 C1727 1.387 . S
C1727 H1712 0.930 . S
C1727 C1722 1.390 . S
C1727 C1726 1.387 . S
H1728 C1740 0.930 . S
H1729 C1742 0.930 . S
H1730 C1743 0.930 . S
H1731 C1747 0.959 . S
H1732 C1747 0.959 . S
H1733 C1747 0.961 . S
H1734 C1748 0.960 . S
H1735 C1748 0.961 . S
H1736 C1748 0.959 . S
H1737 C1751 0.929 . S
H1738 C1752 0.931 . S
H1739 C1754 0.930 . S
C1740 H1728 0.930 . S
C1740 C1741 1.399 . S
C1740 C1745 1.399 . S
C1741 C1740 1.399 . S
C1741 C1742 1.376 . S
C1742 H1729 0.930 . S
C1742 C1741 1.376 . S
C1742 C1743 1.388 . S
C1743 H1730 0.930 . S
C1743 C1742 1.388 . S
C1743 C1744 1.390 . S
C1744 C1743 1.390 . S
C1744 C1745 1.394 . S
C1744 C1750 1.465 . S
C1745 C1740 1.399 . S
C1745 C1744 1.394 . S
C1745 C1746 1.516 . S
C1746 C1745 1.516 . S
C1746 C1747 1.502 . S
C1746 C1748 1.561 . S
C1746 C1749 1.526 . S
C1747 H1731 0.959 . S
C1747 H1732 0.959 . S
C1747 H1733 0.961 . S
C1747 C1746 1.502 . S
C1748 H1734 0.960 . S
C1748 H1735 0.961 . S
C1748 H1736 0.959 . S
C1748 C1746 1.561 . S
C1749 C1746 1.526 . S
C1749 C1750 1.396 . S
C1749 C1754 1.390 . S
C1750 C1744 1.465 . S
C1750 C1749 1.396 . S
C1750 C1751 1.399 . S
C1751 H1737 0.929 . S
C1751 C1750 1.399 . S
C1751 C1752 1.385 . S
C1752 H1738 0.931 . S
C1752 C1751 1.385 . S
C1752 C1753 1.389 . S
C1753 C1752 1.389 . S
C1753 C1754 1.387 . S
C1754 H1739 0.930 . S
C1754 C1749 1.390 . S
C1754 C1753 1.387 . S
H1755 C1767 0.930 . S
H1756 C1769 0.930 . S
H1757 C1770 0.930 . S
H1758 C1774 0.959 1_545 S
H1759 C1774 0.959 . S
H1760 C1774 0.961 . S
H1761 C1775 0.960 . S
H1762 C1775 0.961 . S
H1763 C1775 0.959 . S
H1764 C1778 0.929 . S
H1765 C1779 0.931 . S
H1766 C1781 0.930 1_565 S
C1767 H1755 0.930 . S
C1767 C1768 1.399 . S
C1767 C1772 1.399 . S
C1768 C1767 1.399 . S
C1768 C1769 1.376 . S
C1769 H1756 0.930 . S
C1769 C1768 1.376 . S
C1769 C1770 1.388 . S
C1770 H1757 0.930 . S
C1770 C1769 1.388 . S
C1770 C1771 1.390 . S
C1771 C1770 1.390 . S
C1771 C1772 1.394 . S
C1771 C1777 1.465 . S
C1772 C1767 1.399 . S
C1772 C1771 1.394 . S
C1772 C1773 1.516 . S
C1773 C1772 1.516 . S
C1773 C1774 1.502 1_545 S
C1773 C1775 1.561 1_545 S
C1773 C1776 1.526 . S
C1774 H1758 0.959 1_565 S
C1774 H1759 0.959 . S
C1774 H1760 0.961 . S
C1774 C1773 1.502 1_565 S
C1775 H1761 0.960 . S
C1775 H1762 0.961 . S
C1775 H1763 0.959 . S
C1775 C1773 1.561 1_565 S
C1776 C1773 1.526 . S
C1776 C1777 1.396 . S
C1776 C1781 1.390 . S
C1777 C1771 1.465 . S
C1777 C1776 1.396 . S
C1777 C1778 1.399 . S
C1778 H1764 0.929 . S
C1778 C1777 1.399 . S
C1778 C1779 1.385 . S
C1779 H1765 0.931 . S
C1779 C1778 1.385 . S
C1779 C1780 1.389 . S
C1780 C1779 1.389 . S
C1780 C1781 1.387 . S
C1781 H1766 0.930 1_545 S
C1781 C1776 1.390 . S
C1781 C1780 1.387 . S
H1782 C1794 0.930 . S
H1783 C1796 0.930 1_455 S
H1784 C1797 0.930 . S
H1785 C1801 0.959 . S
H1786 C1801 0.959 . S
H1787 C1801 0.961 . S
H1788 C1802 0.960 . S
H1789 C1802 0.961 . S
H1790 C1802 0.959 . S
H1791 C1805 0.929 . S
H1792 C1806 0.931 . S
H1793 C1808 0.930 . S
C1794 H1782 0.930 . S
C1794 C1795 1.399 . S
C1794 C1799 1.399 . S
C1795 C1794 1.399 . S
C1795 C1796 1.376 . S
C1796 H1783 0.930 1_655 S
C1796 C1795 1.376 . S
C1796 C1797 1.388 . S
C1797 H1784 0.930 . S
C1797 C1796 1.388 . S
C1797 C1798 1.390 . S
C1798 C1797 1.390 . S
C1798 C1799 1.394 . S
C1798 C1804 1.465 . S
C1799 C1794 1.399 . S
C1799 C1798 1.394 . S
C1799 C1800 1.516 . S
C1800 C1799 1.516 . S
C1800 C1801 1.502 . S
C1800 C1802 1.561 . S
C1800 C1803 1.526 . S
C1801 H1785 0.959 . S
C1801 H1786 0.959 . S
C1801 H1787 0.961 . S
C1801 C1800 1.502 . S
C1802 H1788 0.960 . S
C1802 H1789 0.961 . S
C1802 H1790 0.959 . S
C1802 C1800 1.561 . S
C1803 C1800 1.526 . S
C1803 C1804 1.396 . S
C1803 C1808 1.390 . S
C1804 C1798 1.465 . S
C1804 C1803 1.396 . S
C1804 C1805 1.399 . S
C1805 H1791 0.929 . S
C1805 C1804 1.399 . S
C1805 C1806 1.385 . S
C1806 H1792 0.931 . S
C1806 C1805 1.385 . S
C1806 C1807 1.389 . S
C1807 C1806 1.389 . S
C1807 C1808 1.387 . S
C1808 H1793 0.930 . S
C1808 C1803 1.390 . S
C1808 C1807 1.387 . S
H1809 C1821 0.930 . S
H1810 C1823 0.930 . S
H1811 C1824 0.930 . S
H1812 C1828 0.959 . S
H1813 C1828 0.959 . S
H1814 C1828 0.961 . S
H1815 C1829 0.960 . S
H1816 C1829 0.961 . S
H1817 C1829 0.959 . S
H1818 C1832 0.929 . S
H1819 C1833 0.931 . S
H1820 C1835 0.930 . S
C1821 H1809 0.930 . S
C1821 C1822 1.399 . S
C1821 C1826 1.399 . S
C1822 C1821 1.399 . S
C1822 C1823 1.376 . S
C1823 H1810 0.930 . S
C1823 C1822 1.376 . S
C1823 C1824 1.388 . S
C1824 H1811 0.930 . S
C1824 C1823 1.388 . S
C1824 C1825 1.390 . S
C1825 C1824 1.390 . S
C1825 C1826 1.394 . S
C1825 C1831 1.465 . S
C1826 C1821 1.399 . S
C1826 C1825 1.394 . S
C1826 C1827 1.516 . S
C1827 C1826 1.516 . S
C1827 C1828 1.502 . S
C1827 C1829 1.561 . S
C1827 C1830 1.526 . S
C1828 H1812 0.959 . S
C1828 H1813 0.959 . S
C1828 H1814 0.961 . S
C1828 C1827 1.502 . S
C1829 H1815 0.960 . S
C1829 H1816 0.961 . S
C1829 H1817 0.959 . S
C1829 C1827 1.561 . S
C1830 C1827 1.526 . S
C1830 C1831 1.396 . S
C1830 C1835 1.390 . S
C1831 C1825 1.465 . S
C1831 C1830 1.396 . S
C1831 C1832 1.399 . S
C1832 H1818 0.929 . S
C1832 C1831 1.399 . S
C1832 C1833 1.385 . S
C1833 H1819 0.931 . S
C1833 C1832 1.385 . S
C1833 C1834 1.389 . S
C1834 C1833 1.389 . S
C1834 C1835 1.387 . S
C1835 H1820 0.930 . S
C1835 C1830 1.390 . S
C1835 C1834 1.387 . S
H1836 C1848 0.930 . S
H1837 C1850 0.930 . S
H1838 C1851 0.930 . S
H1839 C1855 0.959 . S
H1840 C1855 0.959 . S
H1841 C1855 0.961 . S
H1842 C1856 0.960 . S
H1843 C1856 0.961 . S
H1844 C1856 0.959 . S
H1845 C1859 0.929 . S
H1846 C1860 0.931 . S
H1847 C1862 0.930 . S
C1848 H1836 0.930 . S
C1848 C1849 1.399 . S
C1848 C1853 1.399 . S
C1849 C1848 1.399 . S
C1849 C1850 1.376 . S
C1850 H1837 0.930 . S
C1850 C1849 1.376 . S
C1850 C1851 1.388 . S
C1851 H1838 0.930 . S
C1851 C1850 1.388 . S
C1851 C1852 1.390 . S
C1852 C1851 1.390 . S
C1852 C1853 1.394 . S
C1852 C1858 1.465 . S
C1853 C1848 1.399 . S
C1853 C1852 1.394 . S
C1853 C1854 1.516 . S
C1854 C1853 1.516 . S
C1854 C1855 1.502 . S
C1854 C1856 1.561 . S
C1854 C1857 1.526 . S
C1855 H1839 0.959 . S
C1855 H1840 0.959 . S
C1855 H1841 0.961 . S
C1855 C1854 1.502 . S
C1856 H1842 0.960 . S
C1856 H1843 0.961 . S
C1856 H1844 0.959 . S
C1856 C1854 1.561 . S
C1857 C1854 1.526 . S
C1857 C1858 1.396 . S
C1857 C1862 1.390 . S
C1858 C1852 1.465 . S
C1858 C1857 1.396 . S
C1858 C1859 1.399 . S
C1859 H1845 0.929 . S
C1859 C1858 1.399 . S
C1859 C1860 1.385 . S
C1860 H1846 0.931 . S
C1860 C1859 1.385 . S
C1860 C1861 1.389 . S
C1861 C1860 1.389 . S
C1861 C1862 1.387 . S
C1862 H1847 0.930 . S
C1862 C1857 1.390 . S
C1862 C1861 1.387 . S
H1863 C1875 0.930 . S
H1864 C1877 0.930 . S
H1865 C1878 0.930 . S
H1866 C1882 0.959 . S
H1867 C1882 0.959 . S
H1868 C1882 0.961 . S
H1869 C1883 0.960 . S
H1870 C1883 0.961 . S
H1871 C1883 0.959 . S
H1872 C1886 0.929 . S
H1873 C1887 0.931 . S
H1874 C1889 0.930 . S
C1875 H1863 0.930 . S
C1875 C1876 1.399 . S
C1875 C1880 1.399 . S
C1876 C1875 1.399 . S
C1876 C1877 1.376 . S
C1877 H1864 0.930 . S
C1877 C1876 1.376 . S
C1877 C1878 1.388 . S
C1878 H1865 0.930 . S
C1878 C1877 1.388 . S
C1878 C1879 1.390 . S
C1879 C1878 1.390 . S
C1879 C1880 1.394 . S
C1879 C1885 1.465 . S
C1880 C1875 1.399 . S
C1880 C1879 1.394 . S
C1880 C1881 1.516 . S
C1881 C1880 1.516 . S
C1881 C1882 1.502 . S
C1881 C1883 1.561 . S
C1881 C1884 1.526 . S
C1882 H1866 0.959 . S
C1882 H1867 0.959 . S
C1882 H1868 0.961 . S
C1882 C1881 1.502 . S
C1883 H1869 0.960 . S
C1883 H1870 0.961 . S
C1883 H1871 0.959 . S
C1883 C1881 1.561 . S
C1884 C1881 1.526 . S
C1884 C1885 1.396 . S
C1884 C1889 1.390 . S
C1885 C1879 1.465 . S
C1885 C1884 1.396 . S
C1885 C1886 1.399 . S
C1886 H1872 0.929 . S
C1886 C1885 1.399 . S
C1886 C1887 1.385 . S
C1887 H1873 0.931 . S
C1887 C1886 1.385 . S
C1887 C1888 1.389 . S
C1888 C1887 1.389 . S
C1888 C1889 1.387 . S
C1889 H1874 0.930 . S
C1889 C1884 1.390 . S
C1889 C1888 1.387 . S
H1890 C1902 0.930 . S
H1891 C1904 0.930 . S
H1892 C1905 0.930 . S
H1893 C1909 0.959 . S
H1894 C1909 0.959 . S
H1895 C1909 0.961 . S
H1896 C1910 0.960 . S
H1897 C1910 0.961 . S
H1898 C1910 0.959 . S
H1899 C1913 0.929 . S
H1900 C1914 0.931 . S
H1901 C1916 0.930 . S
C1902 H1890 0.930 . S
C1902 C1903 1.399 . S
C1902 C1907 1.399 . S
C1903 C1902 1.399 . S
C1903 C1904 1.376 . S
C1904 H1891 0.930 . S
C1904 C1903 1.376 . S
C1904 C1905 1.388 . S
C1905 H1892 0.930 . S
C1905 C1904 1.388 . S
C1905 C1906 1.390 . S
C1906 C1905 1.390 . S
C1906 C1907 1.394 . S
C1906 C1912 1.465 . S
C1907 C1902 1.399 . S
C1907 C1906 1.394 . S
C1907 C1908 1.516 . S
C1908 C1907 1.516 . S
C1908 C1909 1.502 . S
C1908 C1910 1.561 . S
C1908 C1911 1.526 . S
C1909 H1893 0.959 . S
C1909 H1894 0.959 . S
C1909 H1895 0.961 . S
C1909 C1908 1.502 . S
C1910 H1896 0.960 . S
C1910 H1897 0.961 . S
C1910 H1898 0.959 . S
C1910 C1908 1.561 . S
C1911 C1908 1.526 . S
C1911 C1912 1.396 . S
C1911 C1916 1.390 . S
C1912 C1906 1.465 . S
C1912 C1911 1.396 . S
C1912 C1913 1.399 . S
C1913 H1899 0.929 . S
C1913 C1912 1.399 . S
C1913 C1914 1.385 . S
C1914 H1900 0.931 . S
C1914 C1913 1.385 . S
C1914 C1915 1.389 . S
C1915 C1914 1.389 . S
C1915 C1916 1.387 . S
C1916 H1901 0.930 . S
C1916 C1911 1.390 . S
C1916 C1915 1.387 . S
H1917 C1929 0.930 . S
H1918 C1931 0.930 . S
H1919 C1932 0.930 . S
H1920 C1936 0.959 . S
H1921 C1936 0.959 . S
H1922 C1936 0.961 . S
H1923 C1937 0.960 . S
H1924 C1937 0.961 . S
H1925 C1937 0.959 . S
H1926 C1940 0.929 . S
H1927 C1941 0.931 . S
H1928 C1943 0.930 . S
C1929 H1917 0.930 . S
C1929 C1930 1.399 . S
C1929 C1934 1.399 . S
C1930 C1929 1.399 . S
C1930 C1931 1.376 . S
C1931 H1918 0.930 . S
C1931 C1930 1.376 . S
C1931 C1932 1.388 . S
C1932 H1919 0.930 . S
C1932 C1931 1.388 . S
C1932 C1933 1.390 . S
C1933 C1932 1.390 . S
C1933 C1934 1.394 . S
C1933 C1939 1.465 . S
C1934 C1929 1.399 . S
C1934 C1933 1.394 . S
C1934 C1935 1.516 . S
C1935 C1934 1.516 . S
C1935 C1936 1.502 . S
C1935 C1937 1.561 . S
C1935 C1938 1.526 . S
C1936 H1920 0.959 . S
C1936 H1921 0.959 . S
C1936 H1922 0.961 . S
C1936 C1935 1.502 . S
C1937 H1923 0.960 . S
C1937 H1924 0.961 . S
C1937 H1925 0.959 . S
C1937 C1935 1.561 . S
C1938 C1935 1.526 . S
C1938 C1939 1.396 . S
C1938 C1943 1.390 . S
C1939 C1933 1.465 . S
C1939 C1938 1.396 . S
C1939 C1940 1.399 . S
C1940 H1926 0.929 . S
C1940 C1939 1.399 . S
C1940 C1941 1.385 . S
C1941 H1927 0.931 . S
C1941 C1940 1.385 . S
C1941 C1942 1.389 . S
C1942 C1941 1.389 . S
C1942 C1943 1.387 . S
C1943 H1928 0.930 . S
C1943 C1938 1.390 . S
C1943 C1942 1.387 . S
H1944 C1956 0.930 . S
H1945 C1958 0.930 . S
H1946 C1959 0.930 . S
H1947 C1963 0.959 . S
H1948 C1963 0.959 . S
H1949 C1963 0.961 . S
H1950 C1964 0.960 . S
H1951 C1964 0.961 . S
H1952 C1964 0.959 . S
H1953 C1967 0.929 . S
H1954 C1968 0.931 . S
H1955 C1970 0.930 . S
C1956 H1944 0.930 . S
C1956 C1957 1.399 . S
C1956 C1961 1.399 . S
C1957 C1956 1.399 . S
C1957 C1958 1.376 . S
C1958 H1945 0.930 . S
C1958 C1957 1.376 . S
C1958 C1959 1.388 . S
C1959 H1946 0.930 . S
C1959 C1958 1.388 . S
C1959 C1960 1.390 . S
C1960 C1959 1.390 . S
C1960 C1961 1.394 . S
C1960 C1966 1.465 . S
C1961 C1956 1.399 . S
C1961 C1960 1.394 . S
C1961 C1962 1.516 . S
C1962 C1961 1.516 . S
C1962 C1963 1.502 . S
C1962 C1964 1.561 . S
C1962 C1965 1.526 . S
C1963 H1947 0.959 . S
C1963 H1948 0.959 . S
C1963 H1949 0.961 . S
C1963 C1962 1.502 . S
C1964 H1950 0.960 . S
C1964 H1951 0.961 . S
C1964 H1952 0.959 . S
C1964 C1962 1.561 . S
C1965 C1962 1.526 . S
C1965 C1966 1.396 . S
C1965 C1970 1.390 . S
C1966 C1960 1.465 . S
C1966 C1965 1.396 . S
C1966 C1967 1.399 . S
C1967 H1953 0.929 . S
C1967 C1966 1.399 . S
C1967 C1968 1.385 . S
C1968 H1954 0.931 . S
C1968 C1967 1.385 . S
C1968 C1969 1.389 . S
C1969 C1968 1.389 . S
C1969 C1970 1.387 . S
C1970 H1955 0.930 . S
C1970 C1965 1.390 . S
C1970 C1969 1.387 . S
H1971 C1983 0.930 . S
H1972 C1985 0.930 . S
H1973 C1986 0.930 . S
H1974 C1990 0.959 . S
H1975 C1990 0.959 . S
H1976 C1990 0.961 . S
H1977 C1991 0.960 . S
H1978 C1991 0.961 . S
H1979 C1991 0.959 . S
H1980 C1994 0.929 . S
H1981 C1995 0.931 . S
H1982 C1997 0.930 . S
C1983 H1971 0.930 . S
C1983 C1984 1.399 . S
C1983 C1988 1.399 . S
C1984 C1983 1.399 . S
C1984 C1985 1.376 . S
C1985 H1972 0.930 . S
C1985 C1984 1.376 . S
C1985 C1986 1.388 . S
C1986 H1973 0.930 . S
C1986 C1985 1.388 . S
C1986 C1987 1.390 . S
C1987 C1986 1.390 . S
C1987 C1988 1.394 . S
C1987 C1993 1.465 . S
C1988 C1983 1.399 . S
C1988 C1987 1.394 . S
C1988 C1989 1.516 . S
C1989 C1988 1.516 . S
C1989 C1990 1.502 . S
C1989 C1991 1.561 . S
C1989 C1992 1.526 . S
C1990 H1974 0.959 . S
C1990 H1975 0.959 . S
C1990 H1976 0.961 . S
C1990 C1989 1.502 . S
C1991 H1977 0.960 . S
C1991 H1978 0.961 . S
C1991 H1979 0.959 . S
C1991 C1989 1.561 . S
C1992 C1989 1.526 . S
C1992 C1993 1.396 . S
C1992 C1997 1.390 . S
C1993 C1987 1.465 . S
C1993 C1992 1.396 . S
C1993 C1994 1.399 . S
C1994 H1980 0.929 . S
C1994 C1993 1.399 . S
C1994 C1995 1.385 . S
C1995 H1981 0.931 . S
C1995 C1994 1.385 . S
C1995 C1996 1.389 . S
C1996 C1995 1.389 . S
C1996 C1997 1.387 . S
C1997 H1982 0.930 . S
C1997 C1992 1.390 . S
C1997 C1996 1.387 . S
H1998 C2010 0.930 . S
H1999 C2012 0.930 . S
H2000 C2013 0.930 . S
H2001 C2017 0.959 . S
H2002 C2017 0.959 . S
H2003 C2017 0.961 . S
H2004 C2018 0.960 . S
H2005 C2018 0.961 . S
H2006 C2018 0.959 . S
H2007 C2021 0.929 . S
H2008 C2022 0.931 . S
H2009 C2024 0.930 . S
C2010 H1998 0.930 . S
C2010 C2011 1.399 . S
C2010 C2015 1.399 . S
C2011 C2010 1.399 . S
C2011 C2012 1.376 . S
C2012 H1999 0.930 . S
C2012 C2011 1.376 . S
C2012 C2013 1.388 . S
C2013 H2000 0.930 . S
C2013 C2012 1.388 . S
C2013 C2014 1.390 . S
C2014 C2013 1.390 . S
C2014 C2015 1.394 . S
C2014 C2020 1.465 . S
C2015 C2010 1.399 . S
C2015 C2014 1.394 . S
C2015 C2016 1.516 . S
C2016 C2015 1.516 . S
C2016 C2017 1.502 . S
C2016 C2018 1.561 . S
C2016 C2019 1.526 . S
C2017 H2001 0.959 . S
C2017 H2002 0.959 . S
C2017 H2003 0.961 . S
C2017 C2016 1.502 . S
C2018 H2004 0.960 . S
C2018 H2005 0.961 . S
C2018 H2006 0.959 . S
C2018 C2016 1.561 . S
C2019 C2016 1.526 . S
C2019 C2020 1.396 . S
C2019 C2024 1.390 . S
C2020 C2014 1.465 . S
C2020 C2019 1.396 . S
C2020 C2021 1.399 . S
C2021 H2007 0.929 . S
C2021 C2020 1.399 . S
C2021 C2022 1.385 . S
C2022 H2008 0.931 . S
C2022 C2021 1.385 . S
C2022 C2023 1.389 . S
C2023 C2022 1.389 . S
C2023 C2024 1.387 . S
C2024 H2009 0.930 . S
C2024 C2019 1.390 . S
C2024 C2023 1.387 . S
H2025 C2037 0.930 . S
H2026 C2039 0.930 . S
H2027 C2040 0.930 . S
H2028 C2044 0.959 . S
H2029 C2044 0.959 . S
H2030 C2044 0.961 . S
H2031 C2045 0.960 . S
H2032 C2045 0.961 . S
H2033 C2045 0.959 . S
H2034 C2048 0.929 . S
H2035 C2049 0.931 . S
H2036 C2051 0.930 . S
C2037 H2025 0.930 . S
C2037 C2038 1.399 . S
C2037 C2042 1.399 . S
C2038 C2037 1.399 . S
C2038 C2039 1.376 . S
C2039 H2026 0.930 . S
C2039 C2038 1.376 . S
C2039 C2040 1.388 . S
C2040 H2027 0.930 . S
C2040 C2039 1.388 . S
C2040 C2041 1.390 . S
C2041 C2040 1.390 . S
C2041 C2042 1.394 . S
C2041 C2047 1.465 . S
C2042 C2037 1.399 . S
C2042 C2041 1.394 . S
C2042 C2043 1.516 . S
C2043 C2042 1.516 . S
C2043 C2044 1.502 . S
C2043 C2045 1.561 . S
C2043 C2046 1.526 . S
C2044 H2028 0.959 . S
C2044 H2029 0.959 . S
C2044 H2030 0.961 . S
C2044 C2043 1.502 . S
C2045 H2031 0.960 . S
C2045 H2032 0.961 . S
C2045 H2033 0.959 . S
C2045 C2043 1.561 . S
C2046 C2043 1.526 . S
C2046 C2047 1.396 . S
C2046 C2051 1.390 . S
C2047 C2041 1.465 . S
C2047 C2046 1.396 . S
C2047 C2048 1.399 . S
C2048 H2034 0.929 . S
C2048 C2047 1.399 . S
C2048 C2049 1.385 . S
C2049 H2035 0.931 . S
C2049 C2048 1.385 . S
C2049 C2050 1.389 . S
C2050 C2049 1.389 . S
C2050 C2051 1.387 . S
C2051 H2036 0.930 . S
C2051 C2046 1.390 . S
C2051 C2050 1.387 . S
H2052 C2064 0.930 . S
H2053 C2066 0.930 . S
H2054 C2067 0.930 . S
H2055 C2071 0.959 . S
H2056 C2071 0.959 . S
H2057 C2071 0.961 . S
H2058 C2072 0.960 . S
H2059 C2072 0.961 . S
H2060 C2072 0.959 . S
H2061 C2075 0.929 . S
H2062 C2076 0.931 . S
H2063 C2078 0.930 . S
C2064 H2052 0.930 . S
C2064 C2065 1.399 . S
C2064 C2069 1.399 . S
C2065 C2064 1.399 . S
C2065 C2066 1.376 . S
C2066 H2053 0.930 . S
C2066 C2065 1.376 . S
C2066 C2067 1.388 . S
C2067 H2054 0.930 . S
C2067 C2066 1.388 . S
C2067 C2068 1.390 . S
C2068 C2067 1.390 . S
C2068 C2069 1.394 . S
C2068 C2074 1.465 . S
C2069 C2064 1.399 . S
C2069 C2068 1.394 . S
C2069 C2070 1.516 . S
C2070 C2069 1.516 . S
C2070 C2071 1.502 . S
C2070 C2072 1.561 . S
C2070 C2073 1.526 . S
C2071 H2055 0.959 . S
C2071 H2056 0.959 . S
C2071 H2057 0.961 . S
C2071 C2070 1.502 . S
C2072 H2058 0.960 . S
C2072 H2059 0.961 . S
C2072 H2060 0.959 . S
C2072 C2070 1.561 . S
C2073 C2070 1.526 . S
C2073 C2074 1.396 . S
C2073 C2078 1.390 . S
C2074 C2068 1.465 . S
C2074 C2073 1.396 . S
C2074 C2075 1.399 . S
C2075 H2061 0.929 . S
C2075 C2074 1.399 . S
C2075 C2076 1.385 . S
C2076 H2062 0.931 . S
C2076 C2075 1.385 . S
C2076 C2077 1.389 . S
C2077 C2076 1.389 . S
C2077 C2078 1.387 . S
C2078 H2063 0.930 . S
C2078 C2073 1.390 . S
C2078 C2077 1.387 . S
H2079 C2091 0.930 . S
H2080 C2093 0.930 . S
H2081 C2094 0.930 . S
H2082 C2098 0.959 . S
H2083 C2098 0.959 . S
H2084 C2098 0.961 . S
H2085 C2099 0.960 . S
H2086 C2099 0.961 . S
H2087 C2099 0.959 . S
H2088 C2102 0.929 . S
H2089 C2103 0.931 . S
H2090 C2105 0.930 . S
C2091 H2079 0.930 . S
C2091 C2092 1.399 . S
C2091 C2096 1.399 . S
C2092 C2091 1.399 . S
C2092 C2093 1.376 . S
C2093 H2080 0.930 . S
C2093 C2092 1.376 . S
C2093 C2094 1.388 . S
C2094 H2081 0.930 . S
C2094 C2093 1.388 . S
C2094 C2095 1.390 . S
C2095 C2094 1.390 . S
C2095 C2096 1.394 . S
C2095 C2101 1.465 . S
C2096 C2091 1.399 . S
C2096 C2095 1.394 . S
C2096 C2097 1.516 . S
C2097 C2096 1.516 . S
C2097 C2098 1.502 . S
C2097 C2099 1.561 . S
C2097 C2100 1.526 . S
C2098 H2082 0.959 . S
C2098 H2083 0.959 . S
C2098 H2084 0.961 . S
C2098 C2097 1.502 . S
C2099 H2085 0.960 . S
C2099 H2086 0.961 . S
C2099 H2087 0.959 . S
C2099 C2097 1.561 . S
C2100 C2097 1.526 . S
C2100 C2101 1.396 . S
C2100 C2105 1.390 . S
C2101 C2095 1.465 . S
C2101 C2100 1.396 . S
C2101 C2102 1.399 . S
C2102 H2088 0.929 . S
C2102 C2101 1.399 . S
C2102 C2103 1.385 . S
C2103 H2089 0.931 . S
C2103 C2102 1.385 . S
C2103 C2104 1.389 . S
C2104 C2103 1.389 . S
C2104 C2105 1.387 . S
C2105 H2090 0.930 . S
C2105 C2100 1.390 . S
C2105 C2104 1.387 . S
H2106 C2118 0.930 . S
H2107 C2120 0.930 . S
H2108 C2121 0.930 . S
H2109 C2125 0.959 . S
H2110 C2125 0.959 . S
H2111 C2125 0.961 . S
H2112 C2126 0.960 . S
H2113 C2126 0.961 . S
H2114 C2126 0.959 . S
H2115 C2129 0.929 . S
H2116 C2130 0.931 . S
H2117 C2132 0.930 . S
C2118 H2106 0.930 . S
C2118 C2119 1.399 . S
C2118 C2123 1.399 . S
C2119 C2118 1.399 . S
C2119 C2120 1.376 . S
C2120 H2107 0.930 . S
C2120 C2119 1.376 . S
C2120 C2121 1.388 . S
C2121 H2108 0.930 . S
C2121 C2120 1.388 . S
C2121 C2122 1.390 . S
C2122 C2121 1.390 . S
C2122 C2123 1.394 . S
C2122 C2128 1.465 . S
C2123 C2118 1.399 . S
C2123 C2122 1.394 . S
C2123 C2124 1.516 . S
C2124 C2123 1.516 . S
C2124 C2125 1.502 . S
C2124 C2126 1.561 . S
C2124 C2127 1.526 . S
C2125 H2109 0.959 . S
C2125 H2110 0.959 . S
C2125 H2111 0.961 . S
C2125 C2124 1.502 . S
C2126 H2112 0.960 . S
C2126 H2113 0.961 . S
C2126 H2114 0.959 . S
C2126 C2124 1.561 . S
C2127 C2124 1.526 . S
C2127 C2128 1.396 . S
C2127 C2132 1.390 . S
C2128 C2122 1.465 . S
C2128 C2127 1.396 . S
C2128 C2129 1.399 . S
C2129 H2115 0.929 . S
C2129 C2128 1.399 . S
C2129 C2130 1.385 . S
C2130 H2116 0.931 . S
C2130 C2129 1.385 . S
C2130 C2131 1.389 . S
C2131 C2130 1.389 . S
C2131 C2132 1.387 . S
C2132 H2117 0.930 . S
C2132 C2127 1.390 . S
C2132 C2131 1.387 . S
H2133 C2145 0.930 . S
H2134 C2147 0.930 . S
H2135 C2148 0.930 . S
H2136 C2152 0.959 . S
H2137 C2152 0.959 . S
H2138 C2152 0.961 . S
H2139 C2153 0.960 . S
H2140 C2153 0.961 . S
H2141 C2153 0.959 . S
H2142 C2156 0.929 . S
H2143 C2157 0.931 . S
H2144 C2159 0.930 . S
C2145 H2133 0.930 . S
C2145 C2146 1.399 . S
C2145 C2150 1.399 . S
C2146 C2145 1.399 . S
C2146 C2147 1.376 . S
C2147 H2134 0.930 . S
C2147 C2146 1.376 . S
C2147 C2148 1.388 . S
C2148 H2135 0.930 . S
C2148 C2147 1.388 . S
C2148 C2149 1.390 . S
C2149 C2148 1.390 . S
C2149 C2150 1.394 . S
C2149 C2155 1.465 . S
C2150 C2145 1.399 . S
C2150 C2149 1.394 . S
C2150 C2151 1.516 . S
C2151 C2150 1.516 . S
C2151 C2152 1.502 . S
C2151 C2153 1.561 . S
C2151 C2154 1.526 . S
C2152 H2136 0.959 . S
C2152 H2137 0.959 . S
C2152 H2138 0.961 . S
C2152 C2151 1.502 . S
C2153 H2139 0.960 . S
C2153 H2140 0.961 . S
C2153 H2141 0.959 . S
C2153 C2151 1.561 . S
C2154 C2151 1.526 . S
C2154 C2155 1.396 . S
C2154 C2159 1.390 . S
C2155 C2149 1.465 . S
C2155 C2154 1.396 . S
C2155 C2156 1.399 . S
C2156 H2142 0.929 . S
C2156 C2155 1.399 . S
C2156 C2157 1.385 . S
C2157 H2143 0.931 . S
C2157 C2156 1.385 . S
C2157 C2158 1.389 . S
C2158 C2157 1.389 . S
C2158 C2159 1.387 . S
C2159 H2144 0.930 . S
C2159 C2154 1.390 . S
C2159 C2158 1.387 . S
H2160 C2172 0.930 . S
H2161 C2174 0.930 . S
H2162 C2175 0.930 . S
H2163 C2179 0.959 . S
H2164 C2179 0.959 . S
H2165 C2179 0.961 . S
H2166 C2180 0.960 . S
H2167 C2180 0.961 . S
H2168 C2180 0.959 . S
H2169 C2183 0.929 . S
H2170 C2184 0.931 . S
H2171 C2186 0.930 . S
C2172 H2160 0.930 . S
C2172 C2173 1.399 . S
C2172 C2177 1.399 . S
C2173 C2172 1.399 . S
C2173 C2174 1.376 . S
C2174 H2161 0.930 . S
C2174 C2173 1.376 . S
C2174 C2175 1.388 . S
C2175 H2162 0.930 . S
C2175 C2174 1.388 . S
C2175 C2176 1.390 . S
C2176 C2175 1.390 . S
C2176 C2177 1.394 . S
C2176 C2182 1.465 . S
C2177 C2172 1.399 . S
C2177 C2176 1.394 . S
C2177 C2178 1.516 . S
C2178 C2177 1.516 . S
C2178 C2179 1.502 . S
C2178 C2180 1.561 . S
C2178 C2181 1.526 . S
C2179 H2163 0.959 . S
C2179 H2164 0.959 . S
C2179 H2165 0.961 . S
C2179 C2178 1.502 . S
C2180 H2166 0.960 . S
C2180 H2167 0.961 . S
C2180 H2168 0.959 . S
C2180 C2178 1.561 . S
C2181 C2178 1.526 . S
C2181 C2182 1.396 . S
C2181 C2186 1.390 . S
C2182 C2176 1.465 . S
C2182 C2181 1.396 . S
C2182 C2183 1.399 . S
C2183 H2169 0.929 . S
C2183 C2182 1.399 . S
C2183 C2184 1.385 . S
C2184 H2170 0.931 . S
C2184 C2183 1.385 . S
C2184 C2185 1.389 . S
C2185 C2184 1.389 . S
C2185 C2186 1.387 . S
C2186 H2171 0.930 . S
C2186 C2181 1.390 . S
C2186 C2185 1.387 . S
H2187 C2199 0.930 . S
H2188 C2201 0.930 . S
H2189 C2202 0.930 . S
H2190 C2206 0.959 . S
H2191 C2206 0.959 . S
H2192 C2206 0.961 . S
H2193 C2207 0.960 . S
H2194 C2207 0.961 . S
H2195 C2207 0.959 . S
H2196 C2210 0.929 . S
H2197 C2211 0.931 . S
H2198 C2213 0.930 . S
C2199 H2187 0.930 . S
C2199 C2200 1.399 . S
C2199 C2204 1.399 . S
C2200 C2199 1.399 . S
C2200 C2201 1.376 . S
C2201 H2188 0.930 . S
C2201 C2200 1.376 . S
C2201 C2202 1.388 . S
C2202 H2189 0.930 . S
C2202 C2201 1.388 . S
C2202 C2203 1.390 . S
C2203 C2202 1.390 . S
C2203 C2204 1.394 . S
C2203 C2209 1.465 . S
C2204 C2199 1.399 . S
C2204 C2203 1.394 . S
C2204 C2205 1.516 . S
C2205 C2204 1.516 . S
C2205 C2206 1.502 . S
C2205 C2207 1.561 . S
C2205 C2208 1.526 . S
C2206 H2190 0.959 . S
C2206 H2191 0.959 . S
C2206 H2192 0.961 . S
C2206 C2205 1.502 . S
C2207 H2193 0.960 . S
C2207 H2194 0.961 . S
C2207 H2195 0.959 . S
C2207 C2205 1.561 . S
C2208 C2205 1.526 . S
C2208 C2209 1.396 . S
C2208 C2213 1.390 . S
C2209 C2203 1.465 . S
C2209 C2208 1.396 . S
C2209 C2210 1.399 . S
C2210 H2196 0.929 . S
C2210 C2209 1.399 . S
C2210 C2211 1.385 . S
C2211 H2197 0.931 . S
C2211 C2210 1.385 . S
C2211 C2212 1.389 . S
C2212 C2211 1.389 . S
C2212 C2213 1.387 . S
C2213 H2198 0.930 . S
C2213 C2208 1.390 . S
C2213 C2212 1.387 . S
H2214 C2226 0.930 . S
H2215 C2228 0.930 . S
H2216 C2229 0.930 . S
H2217 C2233 0.959 . S
H2218 C2233 0.959 . S
H2219 C2233 0.961 . S
H2220 C2234 0.960 . S
H2221 C2234 0.961 . S
H2222 C2234 0.959 . S
H2223 C2237 0.929 . S
H2224 C2238 0.931 . S
H2225 C2240 0.930 . S
C2226 H2214 0.930 . S
C2226 C2227 1.399 . S
C2226 C2231 1.399 . S
C2227 C2226 1.399 . S
C2227 C2228 1.376 . S
C2228 H2215 0.930 . S
C2228 C2227 1.376 . S
C2228 C2229 1.388 . S
C2229 H2216 0.930 . S
C2229 C2228 1.388 . S
C2229 C2230 1.390 . S
C2230 C2229 1.390 . S
C2230 C2231 1.394 . S
C2230 C2236 1.465 . S
C2231 C2226 1.399 . S
C2231 C2230 1.394 . S
C2231 C2232 1.516 . S
C2232 C2231 1.516 . S
C2232 C2233 1.502 . S
C2232 C2234 1.561 . S
C2232 C2235 1.526 . S
C2233 H2217 0.959 . S
C2233 H2218 0.959 . S
C2233 H2219 0.961 . S
C2233 C2232 1.502 . S
C2234 H2220 0.960 . S
C2234 H2221 0.961 . S
C2234 H2222 0.959 . S
C2234 C2232 1.561 . S
C2235 C2232 1.526 . S
C2235 C2236 1.396 . S
C2235 C2240 1.390 . S
C2236 C2230 1.465 . S
C2236 C2235 1.396 . S
C2236 C2237 1.399 . S
C2237 H2223 0.929 . S
C2237 C2236 1.399 . S
C2237 C2238 1.385 . S
C2238 H2224 0.931 . S
C2238 C2237 1.385 . S
C2238 C2239 1.389 . S
C2239 C2238 1.389 . S
C2239 C2240 1.387 . S
C2240 H2225 0.930 . S
C2240 C2235 1.390 . S
C2240 C2239 1.387 . S
H2241 C2253 0.930 . S
H2242 C2255 0.930 . S
H2243 C2256 0.930 . S
H2244 C2260 0.959 . S
H2245 C2260 0.959 . S
H2246 C2260 0.961 . S
H2247 C2261 0.960 . S
H2248 C2261 0.961 . S
H2249 C2261 0.959 . S
H2250 C2264 0.929 . S
H2251 C2265 0.931 . S
H2252 C2267 0.930 . S
C2253 H2241 0.930 . S
C2253 C2254 1.399 . S
C2253 C2258 1.399 . S
C2254 C2253 1.399 . S
C2254 C2255 1.376 . S
C2255 H2242 0.930 . S
C2255 C2254 1.376 . S
C2255 C2256 1.388 . S
C2256 H2243 0.930 . S
C2256 C2255 1.388 . S
C2256 C2257 1.390 . S
C2257 C2256 1.390 . S
C2257 C2258 1.394 . S
C2257 C2263 1.465 . S
C2258 C2253 1.399 . S
C2258 C2257 1.394 . S
C2258 C2259 1.516 . S
C2259 C2258 1.516 . S
C2259 C2260 1.502 . S
C2259 C2261 1.561 . S
C2259 C2262 1.526 . S
C2260 H2244 0.959 . S
C2260 H2245 0.959 . S
C2260 H2246 0.961 . S
C2260 C2259 1.502 . S
C2261 H2247 0.960 . S
C2261 H2248 0.961 . S
C2261 H2249 0.959 . S
C2261 C2259 1.561 . S
C2262 C2259 1.526 . S
C2262 C2263 1.396 . S
C2262 C2267 1.390 . S
C2263 C2257 1.465 . S
C2263 C2262 1.396 . S
C2263 C2264 1.399 . S
C2264 H2250 0.929 . S
C2264 C2263 1.399 . S
C2264 C2265 1.385 . S
C2265 H2251 0.931 . S
C2265 C2264 1.385 . S
C2265 C2266 1.389 . S
C2266 C2265 1.389 . S
C2266 C2267 1.387 . S
C2267 H2252 0.930 . S
C2267 C2262 1.390 . S
C2267 C2266 1.387 . S
H2268 C2280 0.930 . S
H2269 C2282 0.930 . S
H2270 C2283 0.930 . S
H2271 C2287 0.959 . S
H2272 C2287 0.959 . S
H2273 C2287 0.961 . S
H2274 C2288 0.960 . S
H2275 C2288 0.961 . S
H2276 C2288 0.959 . S
H2277 C2291 0.929 . S
H2278 C2292 0.931 . S
H2279 C2294 0.930 . S
C2280 H2268 0.930 . S
C2280 C2281 1.399 . S
C2280 C2285 1.399 . S
C2281 C2280 1.399 . S
C2281 C2282 1.376 . S
C2282 H2269 0.930 . S
C2282 C2281 1.376 . S
C2282 C2283 1.388 . S
C2283 H2270 0.930 . S
C2283 C2282 1.388 . S
C2283 C2284 1.390 . S
C2284 C2283 1.390 . S
C2284 C2285 1.394 . S
C2284 C2290 1.465 . S
C2285 C2280 1.399 . S
C2285 C2284 1.394 . S
C2285 C2286 1.516 . S
C2286 C2285 1.516 . S
C2286 C2287 1.502 . S
C2286 C2288 1.561 . S
C2286 C2289 1.526 . S
C2287 H2271 0.959 . S
C2287 H2272 0.959 . S
C2287 H2273 0.961 . S
C2287 C2286 1.502 . S
C2288 H2274 0.960 . S
C2288 H2275 0.961 . S
C2288 H2276 0.959 . S
C2288 C2286 1.561 . S
C2289 C2286 1.526 . S
C2289 C2290 1.396 . S
C2289 C2294 1.390 . S
C2290 C2284 1.465 . S
C2290 C2289 1.396 . S
C2290 C2291 1.399 . S
C2291 H2277 0.929 . S
C2291 C2290 1.399 . S
C2291 C2292 1.385 . S
C2292 H2278 0.931 . S
C2292 C2291 1.385 . S
C2292 C2293 1.389 . S
C2293 C2292 1.389 . S
C2293 C2294 1.387 . S
C2294 H2279 0.930 . S
C2294 C2289 1.390 . S
C2294 C2293 1.387 . S
H2295 C2307 0.930 . S
H2296 C2309 0.930 . S
H2297 C2310 0.930 . S
H2298 C2314 0.959 . S
H2299 C2314 0.959 . S
H2300 C2314 0.961 . S
H2301 C2315 0.960 . S
H2302 C2315 0.961 . S
H2303 C2315 0.959 . S
H2304 C2318 0.929 . S
H2305 C2319 0.931 . S
H2306 C2321 0.930 . S
C2307 H2295 0.930 . S
C2307 C2308 1.399 . S
C2307 C2312 1.399 . S
C2308 C2307 1.399 . S
C2308 C2309 1.376 . S
C2309 H2296 0.930 . S
C2309 C2308 1.376 . S
C2309 C2310 1.388 . S
C2310 H2297 0.930 . S
C2310 C2309 1.388 . S
C2310 C2311 1.390 . S
C2311 C2310 1.390 . S
C2311 C2312 1.394 . S
C2311 C2317 1.465 . S
C2312 C2307 1.399 . S
C2312 C2311 1.394 . S
C2312 C2313 1.516 . S
C2313 C2312 1.516 . S
C2313 C2314 1.502 . S
C2313 C2315 1.561 . S
C2313 C2316 1.526 . S
C2314 H2298 0.959 . S
C2314 H2299 0.959 . S
C2314 H2300 0.961 . S
C2314 C2313 1.502 . S
C2315 H2301 0.960 . S
C2315 H2302 0.961 . S
C2315 H2303 0.959 . S
C2315 C2313 1.561 . S
C2316 C2313 1.526 . S
C2316 C2317 1.396 . S
C2316 C2321 1.390 . S
C2317 C2311 1.465 . S
C2317 C2316 1.396 . S
C2317 C2318 1.399 . S
C2318 H2304 0.929 . S
C2318 C2317 1.399 . S
C2318 C2319 1.385 . S
C2319 H2305 0.931 . S
C2319 C2318 1.385 . S
C2319 C2320 1.389 . S
C2320 C2319 1.389 . S
C2320 C2321 1.387 . S
C2321 H2306 0.930 . S
C2321 C2316 1.390 . S
C2321 C2320 1.387 . S
H2322 C2334 0.930 . S
H2323 C2336 0.930 . S
H2324 C2337 0.930 . S
H2325 C2341 0.959 . S
H2326 C2341 0.959 . S
H2327 C2341 0.961 . S
H2328 C2342 0.960 . S
H2329 C2342 0.961 . S
H2330 C2342 0.959 . S
H2331 C2345 0.929 . S
H2332 C2346 0.931 . S
H2333 C2348 0.930 . S
C2334 H2322 0.930 . S
C2334 C2335 1.399 . S
C2334 C2339 1.399 . S
C2335 C2334 1.399 . S
C2335 C2336 1.376 . S
C2336 H2323 0.930 . S
C2336 C2335 1.376 . S
C2336 C2337 1.388 . S
C2337 H2324 0.930 . S
C2337 C2336 1.388 . S
C2337 C2338 1.390 . S
C2338 C2337 1.390 . S
C2338 C2339 1.394 . S
C2338 C2344 1.465 . S
C2339 C2334 1.399 . S
C2339 C2338 1.394 . S
C2339 C2340 1.516 . S
C2340 C2339 1.516 . S
C2340 C2341 1.502 . S
C2340 C2342 1.561 . S
C2340 C2343 1.526 . S
C2341 H2325 0.959 . S
C2341 H2326 0.959 . S
C2341 H2327 0.961 . S
C2341 C2340 1.502 . S
C2342 H2328 0.960 . S
C2342 H2329 0.961 . S
C2342 H2330 0.959 . S
C2342 C2340 1.561 . S
C2343 C2340 1.526 . S
C2343 C2344 1.396 . S
C2343 C2348 1.390 . S
C2344 C2338 1.465 . S
C2344 C2343 1.396 . S
C2344 C2345 1.399 . S
C2345 H2331 0.929 . S
C2345 C2344 1.399 . S
C2345 C2346 1.385 . S
C2346 H2332 0.931 . S
C2346 C2345 1.385 . S
C2346 C2347 1.389 . S
C2347 C2346 1.389 . S
C2347 C2348 1.387 . S
C2348 H2333 0.930 . S
C2348 C2343 1.390 . S
C2348 C2347 1.387 . S
H2349 C2361 0.930 . S
H2350 C2363 0.930 . S
H2351 C2364 0.930 . S
H2352 C2368 0.959 . S
H2353 C2368 0.959 . S
H2354 C2368 0.961 . S
H2355 C2369 0.960 . S
H2356 C2369 0.961 . S
H2357 C2369 0.959 . S
H2358 C2372 0.929 . S
H2359 C2373 0.931 . S
H2360 C2375 0.930 . S
C2361 H2349 0.930 . S
C2361 C2362 1.399 . S
C2361 C2366 1.399 . S
C2362 C2361 1.399 . S
C2362 C2363 1.376 . S
C2363 H2350 0.930 . S
C2363 C2362 1.376 . S
C2363 C2364 1.388 . S
C2364 H2351 0.930 . S
C2364 C2363 1.388 . S
C2364 C2365 1.390 . S
C2365 C2364 1.390 . S
C2365 C2366 1.394 . S
C2365 C2371 1.465 . S
C2366 C2361 1.399 . S
C2366 C2365 1.394 . S
C2366 C2367 1.516 . S
C2367 C2366 1.516 . S
C2367 C2368 1.502 . S
C2367 C2369 1.561 . S
C2367 C2370 1.526 . S
C2368 H2352 0.959 . S
C2368 H2353 0.959 . S
C2368 H2354 0.961 . S
C2368 C2367 1.502 . S
C2369 H2355 0.960 . S
C2369 H2356 0.961 . S
C2369 H2357 0.959 . S
C2369 C2367 1.561 . S
C2370 C2367 1.526 . S
C2370 C2371 1.396 . S
C2370 C2375 1.390 . S
C2371 C2365 1.465 . S
C2371 C2370 1.396 . S
C2371 C2372 1.399 . S
C2372 H2358 0.929 . S
C2372 C2371 1.399 . S
C2372 C2373 1.385 . S
C2373 H2359 0.931 . S
C2373 C2372 1.385 . S
C2373 C2374 1.389 . S
C2374 C2373 1.389 . S
C2374 C2375 1.387 . S
C2375 H2360 0.930 . S
C2375 C2370 1.390 . S
C2375 C2374 1.387 . S
H2376 C2388 0.930 . S
H2377 C2390 0.930 . S
H2378 C2391 0.930 . S
H2379 C2395 0.959 . S
H2380 C2395 0.959 . S
H2381 C2395 0.961 . S
H2382 C2396 0.960 . S
H2383 C2396 0.961 . S
H2384 C2396 0.959 . S
H2385 C2399 0.929 . S
H2386 C2400 0.931 . S
H2387 C2402 0.930 . S
C2388 H2376 0.930 . S
C2388 C2389 1.399 . S
C2388 C2393 1.399 . S
C2389 C2388 1.399 . S
C2389 C2390 1.376 . S
C2390 H2377 0.930 . S
C2390 C2389 1.376 . S
C2390 C2391 1.388 . S
C2391 H2378 0.930 . S
C2391 C2390 1.388 . S
C2391 C2392 1.390 . S
C2392 C2391 1.390 . S
C2392 C2393 1.394 . S
C2392 C2398 1.465 . S
C2393 C2388 1.399 . S
C2393 C2392 1.394 . S
C2393 C2394 1.516 . S
C2394 C2393 1.516 . S
C2394 C2395 1.502 . S
C2394 C2396 1.561 . S
C2394 C2397 1.526 . S
C2395 H2379 0.959 . S
C2395 H2380 0.959 . S
C2395 H2381 0.961 . S
C2395 C2394 1.502 . S
C2396 H2382 0.960 . S
C2396 H2383 0.961 . S
C2396 H2384 0.959 . S
C2396 C2394 1.561 . S
C2397 C2394 1.526 . S
C2397 C2398 1.396 . S
C2397 C2402 1.390 . S
C2398 C2392 1.465 . S
C2398 C2397 1.396 . S
C2398 C2399 1.399 . S
C2399 H2385 0.929 . S
C2399 C2398 1.399 . S
C2399 C2400 1.385 . S
C2400 H2386 0.931 . S
C2400 C2399 1.385 . S
C2400 C2401 1.389 . S
C2401 C2400 1.389 . S
C2401 C2402 1.387 . S
C2402 H2387 0.930 . S
C2402 C2397 1.390 . S
C2402 C2401 1.387 . S
H2403 C2415 0.930 . S
H2404 C2417 0.930 . S
H2405 C2418 0.930 . S
H2406 C2422 0.959 . S
H2407 C2422 0.959 . S
H2408 C2422 0.961 . S
H2409 C2423 0.960 . S
H2410 C2423 0.961 . S
H2411 C2423 0.959 . S
H2412 C2426 0.929 . S
H2413 C2427 0.931 . S
H2414 C2429 0.930 . S
C2415 H2403 0.930 . S
C2415 C2416 1.399 . S
C2415 C2420 1.399 . S
C2416 C2415 1.399 . S
C2416 C2417 1.376 . S
C2417 H2404 0.930 . S
C2417 C2416 1.376 . S
C2417 C2418 1.388 . S
C2418 H2405 0.930 . S
C2418 C2417 1.388 . S
C2418 C2419 1.390 . S
C2419 C2418 1.390 . S
C2419 C2420 1.394 . S
C2419 C2425 1.465 . S
C2420 C2415 1.399 . S
C2420 C2419 1.394 . S
C2420 C2421 1.516 . S
C2421 C2420 1.516 . S
C2421 C2422 1.502 . S
C2421 C2423 1.561 . S
C2421 C2424 1.526 . S
C2422 H2406 0.959 . S
C2422 H2407 0.959 . S
C2422 H2408 0.961 . S
C2422 C2421 1.502 . S
C2423 H2409 0.960 . S
C2423 H2410 0.961 . S
C2423 H2411 0.959 . S
C2423 C2421 1.561 . S
C2424 C2421 1.526 . S
C2424 C2425 1.396 . S
C2424 C2429 1.390 . S
C2425 C2419 1.465 . S
C2425 C2424 1.396 . S
C2425 C2426 1.399 . S
C2426 H2412 0.929 . S
C2426 C2425 1.399 . S
C2426 C2427 1.385 . S
C2427 H2413 0.931 . S
C2427 C2426 1.385 . S
C2427 C2428 1.389 . S
C2428 C2427 1.389 . S
C2428 C2429 1.387 . S
C2429 H2414 0.930 . S
C2429 C2424 1.390 . S
C2429 C2428 1.387 . S
C499 C29 1.327 . S
C511 C238 1.112 . S
C526 C4 1.319 . S
C538 C254 1.086 . S
C565 C237 1.099 . S
C553 C16 1.338 . S
C592 C262 1.225 . S
C580 C30 1.344 . S
C607 C3 1.348 . S
C619 C271 1.203 . S
C646 C274 1.118 . S
C634 C17 1.306 . S
C661 C70 1.338 . S
C673 C280 1.223 . S
C700 C296 1.108 . S
C688 C49 1.305 . S
C727 C279 1.250 . S
C715 C57 1.356 . S
C742 C75 1.331 . S
C754 C304 1.059 . S
C781 C313 1.140 . S
C769 C44 1.336 . S
C808 C316 1.049 . S
C796 C62 1.311 . S
C835 C325 1.162 . S
C823 C107 1.351 . S
C862 C337 1.084 . S
C850 C88 1.318 . S
C889 C334 1.236 . S
C877 C96 1.357 . S
C904 C108 1.323 . S
C916 C343 1.081 . S
C943 C342 1.098 . S
C931 C83 1.345 . S
C958 C101 1.327 . S
C970 C359 1.190 . S
C997 C364 1.222 . S
C985 C146 1.350 . S
C1024 C380 1.150 . S
C1012 C121 1.328 . S
C1039 C135 1.345 . S
C1051 C363 1.225 . S
C1078 C388 1.118 . S
C1066 C147 1.324 . S
C1105 C397 1.171 . S
C1093 C120 1.337 . S
C1120 C140 1.320 . S
C1132 C400 1.212 . S
C1147 C187 1.325 . S
C1159 C409 1.093 . S
C1186 C421 1.190 . S
C1174 C160 1.316 . S
C1213 C418 1.201 . S
C1201 C172 1.348 . S
C1228 C192 1.330 . S
C1240 C427 1.058 . S
C1267 C426 1.109 . S
C1255 C159 1.336 . S
C1282 C173 1.325 . S
C1294 C443 1.142 . S
C1321 C448 1.230 . S
C1309 C226 1.345 . S
C1348 C464 1.148 . S
C1336 C205 1.328 . S
C1363 C213 1.360 . S
C1375 C447 1.125 . S
C1402 C469 1.064 . S
C1390 C231 1.329 . S
C1429 C468 1.164 . S
C1417 C200 1.336 . S
C1456 C485 1.200 . S
C1444 C218 1.311 . S
C1483 C250 1.534 . S
C1471 C148 1.601 . S
C1498 C127 1.573 . S
C1510 C253 1.483 1_655 S
C1537 C241 1.423 . S
C1525 C133 1.576 . S
C1552 C225 1.612 . S
C1564 C258 1.518 . S
C1579 C198 1.582 . S
C1591 C259 1.400 . S
C1618 C275 1.517 1_565 S
C1606 C212 1.574 . S
C1645 C292 1.513 1_565 S
C1633 C185 1.601 . S
C1672 C295 1.428 . S
C1660 C166 1.591 . S
C1687 C174 1.591 . S
C1699 C283 1.415 . S
C1726 C300 1.458 1_655 S
C1714 C114 1.617 . S
C1741 C81 1.567 . S
C1753 C301 1.504 . S
C1768 C95 1.576 . S
C1780 C317 1.466 . S
C1795 C224 1.600 1_655 S
C1807 C321 1.531 . S
C1822 C199 1.577 . S
C1834 C338 1.518 . S
C1861 C322 1.494 . S
C1849 C211 1.587 . S
C1888 C355 1.450 . S
C1876 C69 1.600 . S
C1915 C346 1.493 . S
C1903 C42 1.581 . S
C1930 C56 1.570 . S
C1942 C358 1.502 . S
C1969 C376 1.509 . S
C1957 C31 1.613 . S
C1996 C379 1.524 . S
C1984 C10 1.575 . S
C2011 C18 1.591 . S
C2023 C367 1.408 . S
C2050 C384 1.467 . S
C2038 C186 1.603 . S
C2077 C385 1.406 . S
C2065 C161 1.582 1_655 S
C2104 C401 1.463 . S
C2092 C179 1.576 . S
C2131 C405 1.537 . S
C2119 C68 1.602 . S
C2158 C422 1.427 . S
C2146 C43 1.584 . S
C2173 C55 1.571 . S
C2185 C406 1.473 . S
C2200 C153 1.600 1_565 S
C2212 C439 1.450 . S
C2227 C122 1.585 . S
C2239 C430 1.477 . S
C2266 C442 1.512 . S
C2254 C134 1.572 . S
C2281 C109 1.614 . S
C2293 C460 1.504 . S
C2308 C82 1.575 . S
C2320 C463 1.524 . S
C2347 C451 1.405 . S
C2335 C94 1.589 1_565 S
C2374 C481 1.536 . S
C2362 C36 1.591 . S
C2401 C472 1.506 . S
C2389 C5 1.570 . S
C2416 C23 1.576 . S
C2428 C484 1.467 . S
