# Generated by pormake.
# Topology alb, (6,12)-cn, num edge types: 1
# Building blocks:
#     Node 0, Type 0, BuildingBlock: IZENUY_clean_sbu_0, # of connection points: 6
#     Node 1, Type 0, BuildingBlock: IZENUY_clean_sbu_0, # of connection points: 6
#     Node 2, Type 1, BuildingBlock: QEWDON_clean_sbu_0, # of connection points: 12
#     Edge 3, Type (0, 1), BuildingBlock: XIVTED_clean_linker_0, # of connection points: 2
#     Edge 4, Type (0, 1), BuildingBlock: XIVTED_clean_linker_0, # of connection points: 2
#     Edge 5, Type (0, 1), BuildingBlock: XIVTED_clean_linker_0, # of connection points: 2
#     Edge 6, Type (0, 1), BuildingBlock: XIVTED_clean_linker_0, # of connection points: 2
#     Edge 7, Type (0, 1), BuildingBlock: XIVTED_clean_linker_0, # of connection points: 2
#     Edge 8, Type (0, 1), BuildingBlock: XIVTED_clean_linker_0, # of connection points: 2
#     Edge 9, Type (0, 1), BuildingBlock: XIVTED_clean_linker_0, # of connection points: 2
#     Edge 10, Type (0, 1), BuildingBlock: XIVTED_clean_linker_0, # of connection points: 2
#     Edge 11, Type (0, 1), BuildingBlock: XIVTED_clean_linker_0, # of connection points: 2
#     Edge 12, Type (0, 1), BuildingBlock: XIVTED_clean_linker_0, # of connection points: 2
#     Edge 13, Type (0, 1), BuildingBlock: XIVTED_clean_linker_0, # of connection points: 2
#     Edge 14, Type (0, 1), BuildingBlock: XIVTED_clean_linker_0, # of connection points: 2
# Relax obj value: 0.107
# Max RMSD: 0.215
# Mean RMSD: 0.115
data_MOF--net-alb--node1-IZENUY_clean_sbu_0--node2-QEWDON_clean_sbu_0--edge1-XIVTED_clean_linker_0
_symmetry_space_group_name_H-M    P1
_symmetry_Int_Tables_number       1
_symmetry_cell_setting            triclinic
loop_
_symmetry_equiv_pos_as_xyz
'x, y, z'
_cell_length_a     24.273076
_cell_length_b     24.734398
_cell_length_c     20.277968
_cell_angle_alpha  89.952615
_cell_angle_beta   90.30643
_cell_angle_gamma 121.05513
loop_
_atom_site_label
_atom_site_type_symbol
_atom_site_fract_x
_atom_site_fract_y
_atom_site_fract_z
_atom_type_partial_charge
Fe0 Fe 0.32421 0.72673 0.11505 0.0
Fe1 Fe 0.31583 0.59879 0.12112 0.0
O2 O 0.27822 0.64394 0.12681 0.0
Fe3 Fe 0.19465 0.60636 0.14448 0.0
O4 O 0.18138 0.66111 0.09433 0.0
O5 O 0.27429 0.72237 0.04616 0.0
O6 O 0.37871 0.72438 0.05466 0.0
C7 C 0.37476 0.68046 0.01914 0.0
C8 C 0.24107 0.71272 0.22006 0.0
O9 O 0.34123 0.62361 0.03684 0.0
C10 C 0.23733 0.54171 0.22704 0.0
O11 O 0.37803 0.73725 0.183 0.0
O12 O 0.39361 0.66062 0.15394 0.0
O13 O 0.20979 0.65323 0.21857 0.0
O14 O 0.27802 0.74432 0.17322 0.0
C15 C 0.19572 0.52226 0.05783 0.0
O16 O 0.29384 0.57085 0.20487 0.0
O17 O 0.19263 0.5447 0.19775 0.0
C18 C 0.41006 0.7102 0.1868 0.0
O19 O 0.24504 0.52886 0.08701 0.0
O20 O 0.1734 0.5569 0.0717 0.0
C21 C 0.21431 0.699 0.04854 0.0
Fe22 Fe 0.73783 0.441 0.04914 0.0
Fe23 Fe 0.74583 0.32148 0.05269 0.0
O24 O 0.78365 0.40415 0.04133 0.0
Fe25 Fe 0.86715 0.44948 0.02258 0.0
O26 O 0.88437 0.49894 0.09565 0.0
O27 O 0.80359 0.51472 0.08374 0.0
O28 O 0.71483 0.41341 0.13346 0.0
C29 C 0.68592 0.356 0.1498 0.0
C30 C 0.81255 0.50431 0.94248 0.0
O31 O 0.68728 0.31562 0.11289 0.0
C32 C 0.82987 0.3441 0.94633 0.0
O33 O 0.6637 0.37392 0.01583 0.0
O34 O 0.69001 0.30498 0.98492 0.0
O35 O 0.86054 0.50647 0.97018 0.0
O36 O 0.75677 0.47105 0.96578 0.0
C37 C 0.85896 0.36249 0.11871 0.0
O38 O 0.79704 0.31111 -0.00535 0.0
O39 O 0.85637 0.4035 0.9478 0.0
C40 C 0.65267 0.32627 0.98201 0.0
O41 O 0.79842 0.33262 0.12129 0.0
O42 O 0.88857 0.40054 0.07201 0.0
C43 C 0.85621 0.52819 0.11096 0.0
Zn44 Zn 0.16808 0.16314 0.44101 0.0
Zn45 Zn 0.16162 0.03039 0.45119 0.0
O46 O 0.10782 0.06961 0.45091 0.0
H47 H 0.06184 0.04883 0.45654 0.0
C48 C 0.1257 0.22266 0.58755 0.0
O49 O 0.06966 0.19581 0.61697 0.0
Zn50 Zn 0.89908 0.89097 0.72176 0.0
Zn51 Zn 0.88791 1.01258 0.7333 0.0
O52 O 0.95199 0.98361 0.73511 0.0
H53 H 0.99529 1.00677 0.75257 0.0
Zn54 Zn 0.1396 0.1264 0.66326 0.0
O55 O 0.09657 0.03802 0.62596 0.0
Zn56 Zn 0.11694 0.9836 0.68271 0.0
H57 H 0.08159 0.02919 0.58093 0.0
Zn58 Zn 0.934 0.03561 0.50356 0.0
O59 O 0.96441 0.98144 0.54604 0.0
H60 H 0.97436 0.98509 0.59254 0.0
Zn61 Zn 0.94301 0.9085 0.48502 0.0
C62 C 0.87682 0.08174 0.5974 0.0
O63 O 0.83226 0.02161 0.59364 0.0
O64 O 0.26045 0.18738 0.41988 0.0
O65 O 0.2538 0.09412 0.42065 0.0
O66 O 0.79526 0.94051 0.7496 0.0
O67 O 0.80604 0.85638 0.75102 0.0
O68 O 0.20711 0.13728 0.73191 0.0
O69 O 0.19174 0.04066 0.7451 0.0
C70 C 0.05668 0.91571 0.39889 0.0
O71 O 0.86055 0.98086 0.43854 0.0
O72 O 0.86903 0.89579 0.42431 0.0
O73 O 0.91822 0.09762 0.77999 0.0
C74 C 0.286 0.15397 0.41206 0.0
O75 O 0.13123 0.20918 0.38952 0.0
C76 C 1.00199 0.87525 0.76606 0.0
O77 O 0.16319 0.20193 0.59875 0.0
C78 C 0.77159 0.88143 0.75743 0.0
O79 O 0.92723 0.10187 0.5628 0.0
C80 C 0.15897 0.95254 0.56435 0.0
O81 O 0.11709 0.95296 0.39265 0.0
O82 O 0.02716 0.93171 0.43897 0.0
C83 C 0.22218 0.09979 0.75842 0.0
O84 O 0.94188 0.85249 0.77337 0.0
O85 O 0.03194 0.92199 0.72709 0.0
C86 C 0.90049 0.82808 0.59954 0.0
O87 O 0.14338 0.93458 0.62364 0.0
O88 O 0.15993 1.00185 0.54496 0.0
C89 C 0.84117 0.92695 0.41243 0.0
O90 O 0.91453 0.82897 0.53909 0.0
O91 O 0.90287 0.87619 0.62455 0.0
C92 C 0.97703 0.13938 0.77241 0.0
O93 O 1.01294 0.12617 0.7356 0.0
C94 C 0.07332 0.19318 0.40027 0.0
O95 O 0.04008 0.14921 0.44414 0.0
H96 H 0.3049 0.83972 0.24116 0.0
H97 H 0.09756 0.82384 0.55441 0.0
H98 H 0.15322 0.66381 0.32137 0.0
H99 H 0.25028 0.99574 0.46981 0.0
H100 H 0.11796 0.76304 0.47249 0.0
H101 H 0.28602 0.8965 0.32705 0.0
C102 C 0.26758 0.81289 0.27694 0.0
C103 C 0.23051 0.74678 0.27382 0.0
C104 C 0.14704 0.81407 0.47196 0.0
C105 C 0.20857 0.81197 0.37299 0.0
C106 C 0.13554 0.84863 0.51868 0.0
C107 C 0.17174 0.91478 0.51779 0.0
C108 C 0.19556 0.84614 0.42483 0.0
C109 C 0.22038 0.94487 0.4709 0.0
C110 C 0.25684 0.84547 0.32616 0.0
C111 C 0.18301 0.71478 0.3219 0.0
N112 N 0.23077 0.91038 0.42622 0.0
N113 N 0.17325 0.74773 0.36948 0.0
H114 H 0.63925 0.41924 0.21984 0.0
H115 H 0.35663 0.1001 0.37749 0.0
H116 H 0.62647 0.23896 0.20529 0.0
H117 H 0.36907 0.28028 0.39249 0.0
H118 H 0.46335 0.15303 0.32741 0.0
H119 H 0.54908 0.37254 0.29698 0.0
C120 C 0.6183 0.3702 0.23371 0.0
C121 C 0.6398 0.33274 0.20519 0.0
C122 C 0.44295 0.18105 0.34228 0.0
C123 C 0.53622 0.2788 0.29279 0.0
C124 C 0.38197 0.1508 0.37094 0.0
C125 C 0.3533 0.18554 0.38846 0.0
C126 C 0.47545 0.24649 0.33087 0.0
C127 C 0.38877 0.25129 0.37908 0.0
C128 C 0.56659 0.34343 0.27752 0.0
C129 C 0.61084 0.26944 0.22519 0.0
N130 N 0.44758 0.27946 0.35038 0.0
N131 N 0.56015 0.24434 0.26705 0.0
H132 H 0.31864 0.51389 0.29254 0.0
H133 H 0.05406 0.2737 0.54717 0.0
H134 H 0.12222 0.47117 0.29238 0.0
H135 H 0.2384 0.2905 0.51886 0.0
H136 H 0.08202 0.35492 0.4634 0.0
H137 H 0.29333 0.44078 0.38389 0.0
C138 C 0.27017 0.48941 0.31182 0.0
C139 C 0.22248 0.4988 0.28433 0.0
C140 C 0.11652 0.34117 0.4759 0.0
C141 C 0.19326 0.41479 0.38979 0.0
C142 C 0.10067 0.29483 0.52389 0.0
C143 C 0.14378 0.27483 0.53997 0.0
C144 C 0.17605 0.36801 0.44379 0.0
C145 C 0.20349 0.30409 0.50797 0.0
C146 C 0.25577 0.4475 0.36408 0.0
C147 C 0.16057 0.46551 0.31178 0.0
N148 N 0.21768 0.34892 0.46131 0.0
N149 N 0.14779 0.42505 0.36298 0.0
H150 H 0.98791 0.40365 0.12 0.0
H151 H 0.95453 0.1774 0.41878 0.0
H152 H 0.81163 0.28527 0.22605 0.0
H153 H 0.12587 0.28009 0.30099 0.0
H154 H 0.90559 0.22656 0.35661 0.0
H155 H 0.0436 0.36939 0.19439 0.0
C156 C 0.96098 0.37078 0.1591 0.0
C157 C 0.89477 0.34659 0.1662 0.0
C158 C 0.95395 0.23845 0.34442 0.0
C159 C 0.9581 0.30715 0.25121 0.0
C160 C 0.98184 0.21025 0.37978 0.0
C161 C 0.04399 0.22402 0.36439 0.0
C162 C 0.98839 0.28059 0.29318 0.0
C163 C 0.07751 0.26758 0.31397 0.0
C164 C 0.99279 0.35117 0.20146 0.0
C165 C 0.8625 0.30455 0.21813 0.0
N166 N 0.04911 0.29408 0.27987 0.0
N167 N 0.89439 0.28588 0.25831 0.0
H168 H 0.48816 0.66269 0.20941 0.0
H169 H 0.76806 0.97805 0.37915 0.0
H170 H 0.47494 0.82779 0.24473 0.0
H171 H 0.77582 0.80844 0.35664 0.0
H172 H 0.66317 0.92545 0.3251 0.0
H173 H 0.59449 0.71614 0.26059 0.0
C174 C 0.50744 0.71014 0.22819 0.0
C175 C 0.47244 0.74083 0.2225 0.0
C176 C 0.68788 0.89978 0.3317 0.0
C177 C 0.59485 0.80258 0.28091 0.0
C178 C 0.74808 0.92989 0.36233 0.0
C179 C 0.78098 0.89761 0.37282 0.0
C180 C 0.66005 0.83681 0.31118 0.0
C181 C 0.75237 0.83526 0.34975 0.0
C182 C 0.56834 0.74068 0.25732 0.0
C183 C 0.50002 0.80223 0.24802 0.0
N184 N 0.69345 0.80684 0.32029 0.0
N185 N 0.55969 0.83115 0.27587 0.0
H186 H 0.98139 0.59458 0.15707 0.0
H187 H 0.92665 0.82843 0.38526 0.0
H188 H 0.79897 0.58434 0.17326 0.0
H189 H 0.11362 0.86446 0.32791 0.0
H190 H 0.87703 0.73088 0.31946 0.0
H191 H 0.02899 0.6858 0.23185 0.0
C192 C 0.95126 0.61121 0.17654 0.0
C193 C 0.88616 0.58192 0.15832 0.0
C194 C 0.92895 0.76017 0.32159 0.0
C195 C 0.94022 0.68616 0.24422 0.0
C196 C 0.95723 0.8158 0.35921 0.0
C197 C 0.02438 0.85506 0.36187 0.0
C198 C 0.96813 0.74333 0.28707 0.0
C199 C 0.06164 0.836 0.32719 0.0
C200 C 0.97848 0.66341 0.21909 0.0
C201 C 0.84951 0.6057 0.18529 0.0
N202 N 0.03312 0.78171 0.29142 0.0
N203 N 0.87697 0.65626 0.22673 0.0
H204 H 0.27179 0.78876 0.9517 0.0
H205 H 0.94502 0.7712 0.84452 0.0
H206 H 0.08648 0.66144 0.03768 0.0
H207 H 0.13086 0.91207 0.76981 0.0
H208 H 0.99585 0.72527 0.90811 0.0
H209 H 0.22097 0.82923 0.87848 0.0
C210 C 0.22036 0.76902 0.95508 0.0
C211 C 0.18349 0.7217 0.00141 0.0
C212 C 0.02572 0.76621 0.87788 0.0
C213 C 0.12499 0.76807 0.91729 0.0
C214 C 0.9967 0.79262 0.84132 0.0
C215 C 0.03377 0.8462 0.80202 0.0
C216 C 0.09266 0.79341 0.87567 0.0
C217 C 0.10043 0.87117 0.7997 0.0
C218 C 0.19143 0.79231 0.9132 0.0
C219 C 0.11702 0.69803 0.00312 0.0
N220 N 0.12781 0.84475 0.83631 0.0
N221 N 0.09006 0.72154 0.96188 0.0
H222 H 0.59494 0.20695 0.92712 0.0
H223 H 0.28101 0.21427 0.81938 0.0
H224 H 0.56748 0.36426 0.95769 0.0
H225 H 0.29753 0.0502 0.79129 0.0
H226 H 0.38522 0.2674 0.87394 0.0
H227 H 0.48697 0.14742 0.87762 0.0
C228 C 0.56653 0.22913 0.92302 0.0
C229 C 0.59028 0.29066 0.94683 0.0
C230 C 0.36613 0.21962 0.85634 0.0
C231 C 0.46692 0.22279 0.89107 0.0
C232 C 0.30634 0.1891 0.82531 0.0
C233 C 0.2806 0.12779 0.80034 0.0
C234 C 0.40114 0.18902 0.86227 0.0
C235 C 0.31556 0.09746 0.80993 0.0
C236 C 0.5048 0.19499 0.8952 0.0
C237 C 0.55124 0.31691 0.94045 0.0
N238 N 0.37447 0.12865 0.83964 0.0
N239 N 0.49171 0.28287 0.91339 0.0
H240 H 0.24796 0.46802 0.98551 0.0
H241 H 0.91828 0.18083 0.85668 0.0
H242 H 0.0682 0.45912 0.0205 0.0
H243 H 0.1014 0.23693 0.7678 0.0
H244 H 0.96976 0.27957 0.91982 0.0
H245 H 0.19316 0.37954 0.90933 0.0
C246 C 0.19683 0.44736 0.97706 0.0
C247 C 0.16242 0.47052 0.00967 0.0
C248 C 0.99838 0.27037 0.88601 0.0
C249 C 0.09925 0.36894 0.92262 0.0
C250 C 0.96913 0.21409 0.85001 0.0
C251 C 1.00574 0.20044 0.80729 0.0
C252 C 0.06482 0.31248 0.88002 0.0
C253 C 0.07139 0.24517 0.80056 0.0
C254 C 0.16566 0.39712 0.93323 0.0
C255 C 0.09639 0.4425 -0.00368 0.0
N256 N 0.09893 0.29883 0.83712 0.0
N257 N 0.06662 0.39247 0.95426 0.0
H258 H 0.92276 0.39156 0.84803 0.0
H259 H 0.77677 0.04993 0.68042 0.0
H260 H 0.75561 0.22002 0.91556 0.0
H261 H 0.9582 0.20971 0.61969 0.0
H262 H 0.76519 0.11665 0.75999 0.0
H263 H 0.93426 0.33083 0.75817 0.0
C264 C 0.88834 0.34145 0.84377 0.0
C265 C 0.83831 0.31087 0.88971 0.0
C266 C 0.80756 0.13752 0.72921 0.0
C267 C 0.85077 0.24153 0.78712 0.0
C268 C 0.81414 0.09927 0.68343 0.0
C269 C 0.86875 0.12399 0.64331 0.0
C270 C 0.85579 0.20146 0.73538 0.0
C271 C 0.91543 0.18855 0.64975 0.0
C272 C 0.89496 0.30684 0.79261 0.0
C273 C 0.79531 0.24574 0.88193 0.0
N274 N 0.90805 0.22506 0.69514 0.0
N275 N 0.80255 0.21359 0.83196 0.0
H276 H 0.42758 0.61488 0.96666 0.0
H277 H 0.68066 0.91488 0.75832 0.0
H278 H 0.42467 0.78696 0.9453 0.0
H279 H 0.70759 0.75959 0.80489 0.0
H280 H 0.57399 0.857 0.80653 0.0
H281 H 0.51681 0.65582 0.88798 0.0
C282 C 0.44472 0.6606 0.94429 0.0
C283 C 0.41934 0.69801 0.96305 0.0
C284 C 0.60288 0.83521 0.80578 0.0
C285 C 0.5211 0.74499 0.87367 0.0
C286 C 0.66397 0.8683 0.77822 0.0
C287 C 0.70374 0.84259 0.77862 0.0
C288 C 0.58117 0.77597 0.83453 0.0
C289 C 0.67884 0.78151 0.80414 0.0
C290 C 0.49586 0.68407 0.89979 0.0
C291 C 0.44346 0.75696 0.93285 0.0
N292 N 0.61937 0.75056 0.83195 0.0
N293 N 0.49324 0.77878 0.89016 0.0
H294 H 0.72524 0.52787 0.8838 0.0
H295 H 0.96992 0.77051 0.61711 0.0
H296 H 0.92333 0.57659 0.87195 0.0
H297 H 0.79638 0.76346 0.67721 0.0
H298 H 0.94732 0.68649 0.69691 0.0
H299 H 0.74447 0.60145 0.79436 0.0
C300 C 0.7727 0.5537 0.86218 0.0
C301 C 0.82284 0.54625 0.88582 0.0
C302 C 0.914 0.70305 0.69217 0.0
C303 C 0.84501 0.63048 0.78303 0.0
C304 C 0.92664 0.75046 0.64652 0.0
C305 C 0.88499 0.77372 0.64144 0.0
C306 C 0.85877 0.67833 0.73166 0.0
C307 C 0.82992 0.7471 0.68071 0.0
C308 C 0.78366 0.59584 0.81119 0.0
C309 C 0.88333 0.58105 0.85559 0.0
N310 N 0.81833 0.70075 0.72421 0.0
N311 N 0.89276 0.62174 0.80575 0.0
loop_
_geom_bond_atom_site_label_1
_geom_bond_atom_site_label_2
_geom_bond_distance
_geom_bond_site_symmetry_2
_ccdc_geom_bond_type
Fe0 O2 1.918 . S
Fe0 O5 1.997 . S
Fe0 O6 2.002 . S
Fe0 O11 1.976 . S
Fe0 O14 1.996 . S
Fe1 O2 1.918 . S
Fe1 O9 1.997 . S
Fe1 O12 1.996 . S
Fe1 O16 1.976 . S
Fe1 O19 2.002 . S
O2 Fe0 1.918 . S
O2 Fe1 1.918 . S
O2 Fe3 1.918 . S
Fe3 O2 1.918 . S
Fe3 O4 2.002 . S
Fe3 O13 1.976 . S
Fe3 O17 1.996 . S
Fe3 O20 1.997 . S
O4 Fe3 2.002 . S
O4 C21 1.295 . S
O5 Fe0 1.997 . S
O5 C21 1.235 . S
O6 Fe0 2.002 . S
O6 C7 1.295 . S
C7 O6 1.295 . S
C7 O9 1.235 . S
C8 O13 1.287 . S
C8 O14 1.255 . S
O9 Fe1 1.997 . S
O9 C7 1.235 . S
C10 O16 1.287 . S
C10 O17 1.255 . S
O11 Fe0 1.976 . S
O11 C18 1.287 . S
O12 Fe1 1.996 . S
O12 C18 1.255 . S
O13 Fe3 1.976 . S
O13 C8 1.287 . S
O14 Fe0 1.996 . S
O14 C8 1.255 . S
C15 O19 1.295 . S
C15 O20 1.235 . S
O16 Fe1 1.976 . S
O16 C10 1.287 . S
O17 Fe3 1.996 . S
O17 C10 1.255 . S
C18 O11 1.287 . S
C18 O12 1.255 . S
O19 Fe1 2.002 . S
O19 C15 1.295 . S
O20 Fe3 1.997 . S
O20 C15 1.235 . S
C21 O4 1.295 . S
C21 O5 1.235 . S
Fe22 O24 1.918 . S
Fe22 O27 1.997 . S
Fe22 O28 2.002 . S
Fe22 O33 1.976 1_554 S
Fe22 O36 1.996 1_554 S
Fe23 O24 1.918 . S
Fe23 O31 1.997 . S
Fe23 O34 1.996 1_554 S
Fe23 O38 1.976 1_554 S
Fe23 O41 2.002 . S
O24 Fe22 1.918 . S
O24 Fe23 1.918 . S
O24 Fe25 1.918 . S
Fe25 O24 1.918 . S
Fe25 O26 2.002 . S
Fe25 O35 1.976 1_554 S
Fe25 O39 1.996 1_554 S
Fe25 O42 1.997 . S
O26 Fe25 2.002 . S
O26 C43 1.295 . S
O27 Fe22 1.997 . S
O27 C43 1.235 . S
O28 Fe22 2.002 . S
O28 C29 1.295 . S
C29 O28 1.295 . S
C29 O31 1.235 . S
C30 O35 1.287 . S
C30 O36 1.255 . S
O31 Fe23 1.997 . S
O31 C29 1.235 . S
C32 O38 1.287 . S
C32 O39 1.255 . S
O33 Fe22 1.976 1_556 S
O33 C40 1.287 . S
O34 Fe23 1.996 1_556 S
O34 C40 1.255 . S
O35 Fe25 1.976 1_556 S
O35 C30 1.287 . S
O36 Fe22 1.996 1_556 S
O36 C30 1.255 . S
C37 O41 1.295 . S
C37 O42 1.235 . S
O38 Fe23 1.976 1_556 S
O38 C32 1.287 . S
O39 Fe25 1.996 1_556 S
O39 C32 1.255 . S
C40 O33 1.287 . S
C40 O34 1.255 . S
O41 Fe23 2.002 . S
O41 C37 1.295 . S
O42 Fe25 1.997 . S
O42 C37 1.235 . S
C43 O26 1.295 . S
C43 O27 1.235 . S
Zn44 O46 1.933 . S
Zn44 O64 1.985 . S
Zn44 O75 1.955 . S
Zn45 O46 1.911 1_565 S
Zn45 O65 1.970 1_565 S
Zn45 O81 1.945 . S
Zn45 O88 1.981 . S
O46 Zn44 1.933 . S
O46 Zn45 1.911 1_545 S
O46 H47 0.841 1_445 S
H47 O46 0.841 1_665 S
C48 O49 1.246 . S
C48 O77 1.276 . S
O49 C48 1.246 . S
Zn50 O52 1.911 . S
Zn50 O67 1.970 . S
Zn50 O84 1.945 1_655 S
Zn50 O91 1.981 . S
Zn51 O52 1.933 1_545 S
Zn51 O66 1.985 1_545 S
Zn51 O73 1.955 1_655 S
O52 Zn50 1.911 . S
O52 Zn51 1.933 1_565 S
O52 H53 0.841 1_665 S
H53 O52 0.841 1_445 S
Zn54 O55 1.933 . S
Zn54 O68 1.985 . S
Zn54 O77 1.955 . S
O55 Zn54 1.933 . S
O55 Zn56 1.911 . S
O55 H57 0.841 . S
Zn56 O55 1.911 . S
Zn56 O69 1.970 . S
Zn56 O85 1.981 1_545 S
Zn56 O87 1.945 1_545 S
H57 O55 0.841 . S
Zn58 O59 1.933 . S
Zn58 O71 1.985 . S
Zn58 O79 1.955 1_565 S
O59 Zn58 1.933 . S
O59 H60 0.841 . S
O59 Zn61 1.911 . S
H60 O59 0.841 . S
Zn61 O59 1.911 . S
Zn61 O72 1.970 . S
Zn61 O82 1.981 . S
Zn61 O90 1.945 . S
C62 O63 1.246 . S
C62 O79 1.276 . S
O63 C62 1.246 . S
O64 Zn44 1.985 . S
O64 C74 1.245 . S
O65 Zn45 1.970 1_545 S
O65 C74 1.263 . S
O66 Zn51 1.985 1_565 S
O66 C78 1.245 . S
O67 Zn50 1.970 . S
O67 C78 1.263 . S
O68 Zn54 1.985 . S
O68 C83 1.245 . S
O69 Zn56 1.970 . S
O69 C83 1.263 . S
C70 O81 1.262 1_655 S
C70 O82 1.245 . S
O71 Zn58 1.985 . S
O71 C89 1.245 . S
O72 Zn61 1.970 . S
O72 C89 1.263 . S
O73 Zn51 1.955 1_455 S
O73 C92 1.276 . S
C74 O64 1.245 . S
C74 O65 1.263 . S
O75 Zn44 1.955 . S
O75 C94 1.276 1_455 S
C76 O84 1.262 . S
C76 O85 1.245 . S
O77 C48 1.276 . S
O77 Zn54 1.955 . S
C78 O66 1.245 . S
C78 O67 1.263 . S
O79 Zn58 1.955 1_545 S
O79 C62 1.276 . S
C80 O87 1.262 . S
C80 O88 1.245 . S
O81 Zn45 1.945 . S
O81 C70 1.262 1_455 S
O82 Zn61 1.981 . S
O82 C70 1.245 . S
C83 O68 1.245 . S
C83 O69 1.263 . S
O84 Zn50 1.945 1_455 S
O84 C76 1.262 . S
O85 Zn56 1.981 1_565 S
O85 C76 1.245 . S
C86 O90 1.262 . S
C86 O91 1.245 . S
O87 Zn56 1.945 1_565 S
O87 C80 1.262 . S
O88 Zn45 1.981 . S
O88 C80 1.245 . S
C89 O71 1.245 . S
C89 O72 1.263 . S
O90 Zn61 1.945 . S
O90 C86 1.262 . S
O91 Zn50 1.981 . S
O91 C86 1.245 . S
C92 O73 1.276 . S
C92 O93 1.246 . S
O93 C92 1.246 . S
C94 O75 1.276 1_655 S
C94 O95 1.246 . S
O95 C94 1.246 . S
H96 C102 0.930 . S
H97 C106 0.930 . S
H98 C111 0.929 . S
H99 C109 0.929 . S
H100 C104 0.929 . S
H101 C110 0.929 . S
C102 H96 0.930 . S
C102 C103 1.367 . S
C102 C110 1.378 . S
C103 C102 1.367 . S
C103 C111 1.433 . S
C104 H100 0.929 . S
C104 C106 1.378 . S
C104 C108 1.350 . S
C105 C108 1.463 . S
C105 C110 1.350 . S
C105 N113 1.427 . S
C106 H97 0.930 . S
C106 C104 1.378 . S
C106 C107 1.367 . S
C107 C106 1.367 . S
C107 C109 1.433 . S
C108 C104 1.350 . S
C108 C105 1.463 . S
C108 N112 1.427 . S
C109 H99 0.929 . S
C109 C107 1.433 . S
C109 N112 1.384 . S
C110 H101 0.929 . S
C110 C102 1.378 . S
C110 C105 1.350 . S
C111 H98 0.929 . S
C111 C103 1.433 . S
C111 N113 1.384 . S
N112 C108 1.427 . S
N112 C109 1.384 . S
N113 C105 1.427 . S
N113 C111 1.384 . S
H114 C120 0.930 . S
H115 C124 0.930 . S
H116 C129 0.929 . S
H117 C127 0.929 . S
H118 C122 0.929 . S
H119 C128 0.929 . S
C120 H114 0.930 . S
C120 C121 1.367 . S
C120 C128 1.378 . S
C121 C120 1.367 . S
C121 C129 1.433 . S
C122 H118 0.929 . S
C122 C124 1.378 . S
C122 C126 1.350 . S
C123 C126 1.463 . S
C123 C128 1.350 . S
C123 N131 1.427 . S
C124 H115 0.930 . S
C124 C122 1.378 . S
C124 C125 1.367 . S
C125 C124 1.367 . S
C125 C127 1.433 . S
C126 C122 1.350 . S
C126 C123 1.463 . S
C126 N130 1.427 . S
C127 H117 0.929 . S
C127 C125 1.433 . S
C127 N130 1.384 . S
C128 H119 0.929 . S
C128 C120 1.378 . S
C128 C123 1.350 . S
C129 H116 0.929 . S
C129 C121 1.433 . S
C129 N131 1.384 . S
N130 C126 1.427 . S
N130 C127 1.384 . S
N131 C123 1.427 . S
N131 C129 1.384 . S
H132 C138 0.930 . S
H133 C142 0.930 . S
H134 C147 0.929 . S
H135 C145 0.929 . S
H136 C140 0.929 . S
H137 C146 0.929 . S
C138 H132 0.930 . S
C138 C139 1.367 . S
C138 C146 1.378 . S
C139 C138 1.367 . S
C139 C147 1.433 . S
C140 H136 0.929 . S
C140 C142 1.378 . S
C140 C144 1.350 . S
C141 C144 1.463 . S
C141 C146 1.350 . S
C141 N149 1.427 . S
C142 H133 0.930 . S
C142 C140 1.378 . S
C142 C143 1.367 . S
C143 C142 1.367 . S
C143 C145 1.433 . S
C144 C140 1.350 . S
C144 C141 1.463 . S
C144 N148 1.427 . S
C145 H135 0.929 . S
C145 C143 1.433 . S
C145 N148 1.384 . S
C146 H137 0.929 . S
C146 C138 1.378 . S
C146 C141 1.350 . S
C147 H134 0.929 . S
C147 C139 1.433 . S
C147 N149 1.384 . S
N148 C144 1.427 . S
N148 C145 1.384 . S
N149 C141 1.427 . S
N149 C147 1.384 . S
H150 C156 0.930 . S
H151 C160 0.930 . S
H152 C165 0.929 . S
H153 C163 0.929 . S
H154 C158 0.929 . S
H155 C164 0.929 . S
C156 H150 0.930 . S
C156 C157 1.367 . S
C156 C164 1.378 . S
C157 C156 1.367 . S
C157 C165 1.433 . S
C158 H154 0.929 . S
C158 C160 1.378 . S
C158 C162 1.350 . S
C159 C162 1.463 . S
C159 C164 1.350 . S
C159 N167 1.427 . S
C160 H151 0.930 . S
C160 C158 1.378 . S
C160 C161 1.367 . S
C161 C160 1.367 . S
C161 C163 1.433 . S
C162 C158 1.350 . S
C162 C159 1.463 . S
C162 N166 1.427 . S
C163 H153 0.929 . S
C163 C161 1.433 . S
C163 N166 1.384 . S
C164 H155 0.929 . S
C164 C156 1.378 . S
C164 C159 1.350 . S
C165 H152 0.929 . S
C165 C157 1.433 . S
C165 N167 1.384 . S
N166 C162 1.427 . S
N166 C163 1.384 . S
N167 C159 1.427 . S
N167 C165 1.384 . S
H168 C174 0.930 . S
H169 C178 0.930 . S
H170 C183 0.929 . S
H171 C181 0.929 . S
H172 C176 0.929 . S
H173 C182 0.929 . S
C174 H168 0.930 . S
C174 C175 1.367 . S
C174 C182 1.378 . S
C175 C174 1.367 . S
C175 C183 1.433 . S
C176 H172 0.929 . S
C176 C178 1.378 . S
C176 C180 1.350 . S
C177 C180 1.463 . S
C177 C182 1.350 . S
C177 N185 1.427 . S
C178 H169 0.930 . S
C178 C176 1.378 . S
C178 C179 1.367 . S
C179 C178 1.367 . S
C179 C181 1.433 . S
C180 C176 1.350 . S
C180 C177 1.463 . S
C180 N184 1.427 . S
C181 H171 0.929 . S
C181 C179 1.433 . S
C181 N184 1.384 . S
C182 H173 0.929 . S
C182 C174 1.378 . S
C182 C177 1.350 . S
C183 H170 0.929 . S
C183 C175 1.433 . S
C183 N185 1.384 . S
N184 C180 1.427 . S
N184 C181 1.384 . S
N185 C177 1.427 . S
N185 C183 1.384 . S
H186 C192 0.930 . S
H187 C196 0.930 . S
H188 C201 0.929 . S
H189 C199 0.929 . S
H190 C194 0.929 . S
H191 C200 0.929 . S
C192 H186 0.930 . S
C192 C193 1.367 . S
C192 C200 1.378 . S
C193 C192 1.367 . S
C193 C201 1.433 . S
C194 H190 0.929 . S
C194 C196 1.378 . S
C194 C198 1.350 . S
C195 C198 1.463 . S
C195 C200 1.350 . S
C195 N203 1.427 . S
C196 H187 0.930 . S
C196 C194 1.378 . S
C196 C197 1.367 . S
C197 C196 1.367 . S
C197 C199 1.433 . S
C198 C194 1.350 . S
C198 C195 1.463 . S
C198 N202 1.427 . S
C199 H189 0.929 . S
C199 C197 1.433 . S
C199 N202 1.384 . S
C200 H191 0.929 . S
C200 C192 1.378 . S
C200 C195 1.350 . S
C201 H188 0.929 . S
C201 C193 1.433 . S
C201 N203 1.384 . S
N202 C198 1.427 . S
N202 C199 1.384 . S
N203 C195 1.427 . S
N203 C201 1.384 . S
H204 C210 0.930 1_554 S
H205 C214 0.930 . S
H206 C219 0.929 . S
H207 C217 0.929 . S
H208 C212 0.929 . S
H209 C218 0.929 . S
C210 H204 0.930 1_556 S
C210 C211 1.367 1_556 S
C210 C218 1.378 . S
C211 C210 1.367 1_554 S
C211 C219 1.433 1_554 S
C212 H208 0.929 . S
C212 C214 1.378 . S
C212 C216 1.350 . S
C213 C216 1.463 . S
C213 C218 1.350 . S
C213 N221 1.427 . S
C214 H205 0.930 . S
C214 C212 1.378 . S
C214 C215 1.367 . S
C215 C214 1.367 . S
C215 C217 1.433 . S
C216 C212 1.350 . S
C216 C213 1.463 . S
C216 N220 1.427 . S
C217 H207 0.929 . S
C217 C215 1.433 . S
C217 N220 1.384 . S
C218 H209 0.929 . S
C218 C210 1.378 . S
C218 C213 1.350 . S
C219 H206 0.929 . S
C219 C211 1.433 1_556 S
C219 N221 1.384 . S
N220 C216 1.427 . S
N220 C217 1.384 . S
N221 C213 1.427 . S
N221 C219 1.384 . S
H222 C228 0.930 . S
H223 C232 0.930 . S
H224 C237 0.929 . S
H225 C235 0.929 . S
H226 C230 0.929 . S
H227 C236 0.929 . S
C228 H222 0.930 . S
C228 C229 1.367 . S
C228 C236 1.378 . S
C229 C228 1.367 . S
C229 C237 1.433 . S
C230 H226 0.929 . S
C230 C232 1.378 . S
C230 C234 1.350 . S
C231 C234 1.463 . S
C231 C236 1.350 . S
C231 N239 1.427 . S
C232 H223 0.930 . S
C232 C230 1.378 . S
C232 C233 1.367 . S
C233 C232 1.367 . S
C233 C235 1.433 . S
C234 C230 1.350 . S
C234 C231 1.463 . S
C234 N238 1.427 . S
C235 H225 0.929 . S
C235 C233 1.433 . S
C235 N238 1.384 . S
C236 H227 0.929 . S
C236 C228 1.378 . S
C236 C231 1.350 . S
C237 H224 0.929 . S
C237 C229 1.433 . S
C237 N239 1.384 . S
N238 C234 1.427 . S
N238 C235 1.384 . S
N239 C231 1.427 . S
N239 C237 1.384 . S
H240 C246 0.930 . S
H241 C250 0.930 . S
H242 C255 0.929 1_554 S
H243 C253 0.929 . S
H244 C248 0.929 . S
H245 C254 0.929 . S
C246 H240 0.930 . S
C246 C247 1.367 1_556 S
C246 C254 1.378 . S
C247 C246 1.367 1_554 S
C247 C255 1.433 1_554 S
C248 H244 0.929 . S
C248 C250 1.378 . S
C248 C252 1.350 . S
C249 C252 1.463 . S
C249 C254 1.350 . S
C249 N257 1.427 . S
C250 H241 0.930 . S
C250 C248 1.378 . S
C250 C251 1.367 . S
C251 C250 1.367 . S
C251 C253 1.433 . S
C252 C248 1.350 . S
C252 C249 1.463 . S
C252 N256 1.427 . S
C253 H243 0.929 . S
C253 C251 1.433 . S
C253 N256 1.384 . S
C254 H245 0.929 . S
C254 C246 1.378 . S
C254 C249 1.350 . S
C255 H242 0.929 1_556 S
C255 C247 1.433 1_556 S
C255 N257 1.384 . S
N256 C252 1.427 . S
N256 C253 1.384 . S
N257 C249 1.427 . S
N257 C255 1.384 . S
H258 C264 0.930 . S
H259 C268 0.930 . S
H260 C273 0.929 . S
H261 C271 0.929 . S
H262 C266 0.929 . S
H263 C272 0.929 . S
C264 H258 0.930 . S
C264 C265 1.367 . S
C264 C272 1.378 . S
C265 C264 1.367 . S
C265 C273 1.433 . S
C266 H262 0.929 . S
C266 C268 1.378 . S
C266 C270 1.350 . S
C267 C270 1.463 . S
C267 C272 1.350 . S
C267 N275 1.427 . S
C268 H259 0.930 . S
C268 C266 1.378 . S
C268 C269 1.367 . S
C269 C268 1.367 . S
C269 C271 1.433 . S
C270 C266 1.350 . S
C270 C267 1.463 . S
C270 N274 1.427 . S
C271 H261 0.929 . S
C271 C269 1.433 . S
C271 N274 1.384 . S
C272 H263 0.929 . S
C272 C264 1.378 . S
C272 C267 1.350 . S
C273 H260 0.929 . S
C273 C265 1.433 . S
C273 N275 1.384 . S
N274 C270 1.427 . S
N274 C271 1.384 . S
N275 C267 1.427 . S
N275 C273 1.384 . S
H276 C282 0.930 . S
H277 C286 0.930 . S
H278 C291 0.929 . S
H279 C289 0.929 . S
H280 C284 0.929 . S
H281 C290 0.929 . S
C282 H276 0.930 . S
C282 C283 1.367 . S
C282 C290 1.378 1_554 S
C283 C282 1.367 . S
C283 C291 1.433 . S
C284 H280 0.929 . S
C284 C286 1.378 . S
C284 C288 1.350 . S
C285 C288 1.463 . S
C285 C290 1.350 . S
C285 N293 1.427 1_556 S
C286 H277 0.930 . S
C286 C284 1.378 . S
C286 C287 1.367 . S
C287 C286 1.367 . S
C287 C289 1.433 . S
C288 C284 1.350 . S
C288 C285 1.463 . S
C288 N292 1.427 . S
C289 H279 0.929 . S
C289 C287 1.433 . S
C289 N292 1.384 . S
C290 H281 0.929 . S
C290 C282 1.378 1_556 S
C290 C285 1.350 . S
C291 H278 0.929 . S
C291 C283 1.433 . S
C291 N293 1.384 . S
N292 C288 1.427 . S
N292 C289 1.384 . S
N293 C285 1.427 1_554 S
N293 C291 1.384 . S
H294 C300 0.930 . S
H295 C304 0.930 . S
H296 C309 0.929 . S
H297 C307 0.929 . S
H298 C302 0.929 . S
H299 C308 0.929 . S
C300 H294 0.930 . S
C300 C301 1.367 . S
C300 C308 1.378 . S
C301 C300 1.367 . S
C301 C309 1.433 . S
C302 H298 0.929 . S
C302 C304 1.378 . S
C302 C306 1.350 . S
C303 C306 1.463 . S
C303 C308 1.350 . S
C303 N311 1.427 . S
C304 H295 0.930 . S
C304 C302 1.378 . S
C304 C305 1.367 . S
C305 C304 1.367 . S
C305 C307 1.433 . S
C306 C302 1.350 . S
C306 C303 1.463 . S
C306 N310 1.427 . S
C307 H297 0.929 . S
C307 C305 1.433 . S
C307 N310 1.384 . S
C308 H299 0.929 . S
C308 C300 1.378 . S
C308 C303 1.350 . S
C309 H296 0.929 . S
C309 C301 1.433 . S
C309 N311 1.384 . S
N310 C306 1.427 . S
N310 C307 1.384 . S
N311 C303 1.427 . S
N311 C309 1.384 . S
C103 C8 1.396 . S
C107 C80 1.395 . S
C125 C74 1.749 . S
C121 C29 1.725 . S
C143 C48 1.431 . S
C139 C10 1.439 . S
C161 C94 1.933 . S
C157 C37 2.011 . S
C179 C89 0.307 . S
C175 C18 0.285 . S
C193 C43 1.929 . S
C197 C70 1.870 . S
C211 C21 1.928 . S
C215 C76 1.874 . S
C229 C40 0.257 . S
C233 C83 0.278 . S
C247 C15 2.011 . S
C251 C92 1.933 . S
C265 C32 1.443 . S
C269 C62 1.426 . S
C287 C78 1.751 . S
C283 C7 1.729 . S
C301 C30 1.396 . S
C305 C86 1.396 . S
