# Generated by pormake.
# Topology scu, (8,4)-cn, num edge types: 1
# Building blocks:
#     Node 0, Type 0, BuildingBlock: VETTIZ_charged_sbu_0, # of connection points: 8
#     Node 1, Type 1, BuildingBlock: ESEHIV_clean_sbu_0, # of connection points: 4
#     Node 2, Type 1, BuildingBlock: ESEHIV_clean_sbu_0, # of connection points: 4
#     Edge 3, Type (0, 1), BuildingBlock: XUDNAN_clean_linker_2, # of connection points: 2
#     Edge 4, Type (0, 1), BuildingBlock: XUDNAN_clean_linker_2, # of connection points: 2
#     Edge 5, Type (0, 1), BuildingBlock: XUDNAN_clean_linker_2, # of connection points: 2
#     Edge 6, Type (0, 1), BuildingBlock: XUDNAN_clean_linker_2, # of connection points: 2
#     Edge 7, Type (0, 1), BuildingBlock: XUDNAN_clean_linker_2, # of connection points: 2
#     Edge 8, Type (0, 1), BuildingBlock: XUDNAN_clean_linker_2, # of connection points: 2
#     Edge 9, Type (0, 1), BuildingBlock: XUDNAN_clean_linker_2, # of connection points: 2
#     Edge 10, Type (0, 1), BuildingBlock: XUDNAN_clean_linker_2, # of connection points: 2
# Relax obj value: 0.003
# Max RMSD: 0.097
# Mean RMSD: 0.074
data_MOF--net-scu--node1-VETTIZ_charged_sbu_0--node2-ESEHIV_clean_sbu_0--edge1-XUDNAN_clean_linker_2
_symmetry_space_group_name_H-M    P1
_symmetry_Int_Tables_number       1
_symmetry_cell_setting            triclinic
loop_
_symmetry_equiv_pos_as_xyz
'x, y, z'
_cell_length_a     26.66849
_cell_length_b     26.403707
_cell_length_c     19.052724
_cell_angle_alpha  94.123998
_cell_angle_beta   92.722526
_cell_angle_gamma 91.349134
loop_
_atom_site_label
_atom_site_type_symbol
_atom_site_fract_x
_atom_site_fract_y
_atom_site_fract_z
_atom_type_partial_charge
Fe0 Fe 0.03386 0.05148 0.20477 0.0
O1 O 0.0329 0.05896 0.10212 0.0
Fe2 Fe 0.05338 0.99527 0.0379 0.0
Fe3 Fe 0.97164 0.07723 0.04529 0.0
O4 O 0.03626 0.05517 0.10187 0.0
O5 O 0.99098 1.01189 0.98327 0.0
O6 O 0.98768 1.01579 0.98347 0.0
Fe7 Fe 0.9878 1.01472 0.8808 0.0
C8 C 0.92147 0.03142 0.16589 0.0
O9 O 0.02584 0.12901 0.20674 0.0
O10 O 0.96384 0.13969 0.12 0.0
O11 O 0.06467 1.0155 0.87312 0.0
O12 O 0.09732 0.0404 0.98 0.0
O13 O 0.11787 0.98762 0.10483 0.0
O14 O 0.11047 0.04905 0.1963 0.0
O15 O 0.01362 0.12497 0.98755 0.0
O16 O 0.98844 0.09214 0.88016 0.0
C17 C 0.13627 1.01707 0.15854 0.0
O18 O 0.9948 0.93729 0.8837 0.0
O19 O 0.06204 0.93295 0.96407 0.0
O20 O 0.95656 0.04679 0.21054 0.0
O21 O 0.92619 0.03194 0.09992 0.0
C22 C 0.99206 0.15543 0.17567 0.0
C23 C 1.0054 0.12915 0.92167 0.0
C24 C 0.88836 0.05706 0.92572 0.0
O25 O 0.90829 0.08708 0.97754 0.0
O26 O 0.91134 0.02065 0.89175 0.0
C27 C 0.1018 0.03127 0.91405 0.0
O28 O 1.01151 0.94699 0.09232 0.0
O29 O 0.03524 0.97279 0.20245 0.0
C30 C 0.03246 0.91407 0.9116 0.0
C31 C 0.01769 0.93864 0.15675 0.0
Cu32 Cu 0.03609 0.52734 0.50647 0.0
N33 N 1.00503 0.47332 0.54639 0.0
N34 N 0.99034 0.41369 0.62075 0.0
C35 C 0.02156 0.45168 0.60475 0.0
C36 C 0.95244 0.41189 0.57092 0.0
C37 C 0.96139 0.44904 0.52546 0.0
O38 O 0.09376 0.50926 0.4507 0.0
C39 C 0.06903 0.62097 0.57591 0.0
O40 O 0.06918 0.63575 0.51157 0.0
H41 H 0.05647 0.46278 0.63368 0.0
H42 H 0.93809 0.45748 0.47998 0.0
N43 N 0.98983 0.5618 0.45252 0.0
N44 N 0.96493 0.62132 0.38216 0.0
C45 C 0.99986 0.58665 0.39525 0.0
C46 C 0.94674 0.58089 0.47562 0.0
C47 C 0.93142 0.61789 0.43248 0.0
C48 C 0.1015 0.476 0.40047 0.0
O49 O 0.14429 0.47861 0.36934 0.0
H50 H 0.03494 0.58379 0.36903 0.0
H51 H 0.93049 0.57217 0.52443 0.0
O52 O 0.05845 0.57476 0.58502 0.0
H53 H 0.92042 0.38571 0.56764 0.0
H54 H 0.90031 0.64294 0.44045 0.0
Cu55 Cu 0.51428 0.9992 0.53258 0.0
N56 N 0.46617 0.96527 0.58152 0.0
N57 N 0.40265 0.95846 0.65303 0.0
C58 C 0.44094 0.98796 0.63412 0.0
C59 C 0.4037 0.91539 0.61042 0.0
C60 C 0.44309 0.91968 0.56631 0.0
O61 O 0.47555 0.02931 0.45747 0.0
C62 C 0.57108 0.02099 0.65269 0.0
O63 O 0.55583 0.97377 0.65747 0.0
H64 H 0.44874 0.02667 0.65519 0.0
H65 H 0.45266 0.89261 0.52405 0.0
N66 N 0.56241 0.95771 0.49088 0.0
N67 N 0.62761 0.94114 0.42427 0.0
C68 C 0.588 0.97084 0.43538 0.0
C69 C 0.58681 0.91811 0.51578 0.0
C70 C 0.62741 0.90799 0.47486 0.0
C71 C 0.46179 0.99825 0.40526 0.0
O72 O 0.47664 0.95117 0.40455 0.0
H73 H 0.57969 1.00377 0.40657 0.0
H74 H 0.57756 0.89976 0.5626 0.0
O75 O 0.55385 0.04445 0.60084 0.0
H76 H 0.37714 0.88371 0.6099 0.0
H77 H 0.65542 0.87968 0.48288 0.0
H78 H 1.01043 0.24969 0.12813 0.0
H79 H 0.96112 0.17289 0.30692 0.0
H80 H 0.9704 0.25304 0.38169 0.0
H81 H 0.10446 0.31857 0.21457 0.0
H82 H 0.09776 0.3765 0.1708 0.0
H83 H 0.07598 0.31708 0.12665 0.0
H84 H 0.98713 0.35251 0.10787 0.0
H85 H 1.00872 0.41256 0.15129 0.0
H86 H 0.95514 0.37953 0.1824 0.0
H87 H 1.00701 0.33189 0.44242 0.0
H88 H 0.05793 0.40871 0.48143 0.0
H89 H 0.0749 0.44171 0.26528 0.0
C90 C 0.999 0.25072 0.18199 0.0
C91 C 0.98391 0.20564 0.21165 0.0
C92 C 0.97169 0.20743 0.28319 0.0
C93 C 0.97699 0.25275 0.32605 0.0
C94 C 0.99424 0.29621 0.29649 0.0
C95 C 1.00403 0.29605 0.22571 0.0
C96 C 0.02761 0.34655 0.20945 0.0
C97 C 0.07951 0.33919 0.17859 0.0
C98 C 0.99254 0.37444 0.15981 0.0
C99 C 0.03203 0.37379 0.2826 0.0
C100 C 1.01224 0.34411 0.33194 0.0
C101 C 0.01949 0.35712 0.40407 0.0
C102 C 0.04728 0.40166 0.42621 0.0
C103 C 0.06569 0.4339 0.37692 0.0
C104 C 0.0582 0.41944 0.30412 0.0
H105 H 0.90036 1.00634 0.29958 0.0
H106 H 0.83176 1.01741 0.09002 0.0
H107 H 0.7498 0.99165 0.13264 0.0
H108 H 0.82816 0.89593 0.34159 0.0
H109 H 0.82212 0.91756 0.43267 0.0
H110 H 0.87612 0.93698 0.387 0.0
H111 H 0.85865 0.03126 0.4172 0.0
H112 H 0.80506 1.01305 0.46459 0.0
H113 H 0.7977 0.05536 0.39488 0.0
H114 H 0.67402 0.97115 0.19981 0.0
H115 H 0.61068 0.95218 0.28608 0.0
H116 H 0.72846 0.94909 0.44987 0.0
C117 C 0.86816 1.00318 0.26255 0.0
C118 C 0.87264 1.01407 0.1914 0.0
C119 C 0.82949 1.00917 0.14468 0.0
C120 C 0.78267 0.99461 0.16841 0.0
C121 C 0.77953 0.98449 0.23885 0.0
C122 C 0.82115 0.98818 0.28517 0.0
C123 C 0.80737 0.97561 0.3584 0.0
C124 C 0.83506 0.92867 0.38122 0.0
C125 C 0.8178 0.02156 0.41191 0.0
C126 C 0.75148 0.96451 0.3461 0.0
C127 C 0.73613 0.97033 0.27686 0.0
C128 C 0.68572 0.96562 0.25383 0.0
C129 C 0.65007 0.95492 0.30292 0.0
C130 C 0.66503 0.94824 0.37378 0.0
C131 C 0.71643 0.95264 0.39542 0.0
H132 H 1.00022 0.90831 0.28918 0.0
H133 H 1.01203 0.85095 0.0714 0.0
H134 H 0.99866 0.76348 0.1053 0.0
H135 H 0.06261 0.80635 0.36913 0.0
H136 H 0.02146 0.80524 0.44141 0.0
H137 H 0.03237 0.86349 0.40015 0.0
H138 H 0.93706 0.87124 0.37682 0.0
H139 H 0.92516 0.81264 0.41669 0.0
H140 H 0.90136 0.82036 0.32802 0.0
H141 H 0.98971 0.68159 0.16393 0.0
H142 H 0.97805 0.61166 0.24267 0.0
H143 H 0.96556 0.72194 0.41985 0.0
C144 C 0.99995 0.87733 0.24868 0.0
C145 C 1.00748 0.88651 0.17766 0.0
C146 C 1.00631 0.84494 0.12611 0.0
C147 C 0.99887 0.79504 0.14485 0.0
C148 C 0.99189 0.78725 0.21526 0.0
C149 C 0.99175 0.82722 0.2663 0.0
C150 C 0.98244 0.80835 0.33799 0.0
C151 C 0.0274 0.82164 0.39023 0.0
C152 C 0.93354 0.82936 0.36652 0.0
C153 C 0.97767 0.75163 0.31924 0.0
C154 C 0.98386 0.74018 0.24831 0.0
C155 C 0.98397 0.69011 0.21933 0.0
C156 C 0.97741 0.65074 0.26408 0.0
C157 C 0.96989 0.66179 0.33639 0.0
C158 C 0.96992 0.71283 0.36419 0.0
H159 H 0.18451 0.05711 0.28101 0.0
H160 H 0.21097 0.97114 0.08375 0.0
H161 H 0.30105 0.96762 0.12002 0.0
H162 H 0.30318 0.13059 0.29656 0.0
H163 H 0.30925 0.12741 0.39077 0.0
H164 H 0.24782 0.12681 0.34689 0.0
H165 H 0.2246 0.04247 0.4008 0.0
H166 H 0.28558 0.04319 0.44541 0.0
H167 H 0.26457 0.98879 0.38806 0.0
H168 H 0.38629 0.96749 0.18191 0.0
H169 H 0.45883 0.96593 0.26716 0.0
H170 H 0.37728 0.05386 0.42277 0.0
C171 C 0.20918 0.03801 0.24476 0.0
C172 C 0.19048 1.01446 0.17927 0.0
C173 C 0.22422 0.98929 0.13423 0.0
C174 C 0.27553 0.98748 0.15416 0.0
C175 C 0.29253 1.01119 0.21908 0.0
C176 C 0.26028 0.03581 0.26378 0.0
C177 C 0.28714 0.05517 0.33277 0.0
C178 C 0.28682 0.11346 0.34227 0.0
C179 C 0.26411 0.03094 0.39542 0.0
C180 C 0.3395 0.03654 0.32076 0.0
C181 C 0.34192 1.01177 0.25446 0.0
C182 C 0.38508 0.98754 0.23335 0.0
C183 C 0.42612 0.987 0.28201 0.0
C184 C 0.42386 1.01068 0.35082 0.0
C185 C 0.38056 0.03707 0.36967 0.0
H186 H 0.02793 0.89104 0.77075 0.0
H187 H 0.06774 0.82819 0.96926 0.0
H188 H 0.0863 0.74612 0.90472 0.0
H189 H 0.96773 0.78288 0.68448 0.0
H190 H 0.99184 0.79273 0.59957 0.0
H191 H 0.98376 0.84616 0.66167 0.0
H192 H 0.07816 0.87288 0.65524 0.0
H193 H 0.08499 0.82001 0.59146 0.0
H194 H 0.1255 0.82664 0.67011 0.0
H195 H 0.09278 0.66864 0.81695 0.0
H196 H 0.09223 0.60506 0.7146 0.0
H197 H 0.05396 0.72252 0.57496 0.0
C198 C 0.04053 0.85996 0.8007 0.0
C199 C 0.04555 0.86538 0.87496 0.0
C200 C 0.06329 0.82445 0.91232 0.0
C201 C 0.07394 0.77788 0.87609 0.0
C202 C 0.0679 0.77363 0.80262 0.0
C203 C 0.05237 0.81399 0.76544 0.0
C204 C 0.04873 0.80018 0.68692 0.0
C205 C 0.99481 0.8058 0.65641 0.0
C206 C 0.0866 0.83184 0.64872 0.0
C207 C 0.06313 0.74515 0.68548 0.0
C208 C 0.07407 0.73032 0.75255 0.0
C209 C 0.08515 0.68014 0.76419 0.0
C210 C 0.0847 0.6443 0.70584 0.0
C211 C 0.07378 0.65904 0.63683 0.0
C212 C 0.06354 0.71027 0.62686 0.0
H213 H 0.12784 0.98219 0.79089 0.0
H214 H 0.19087 0.0746 0.97296 0.0
H215 H 0.27571 0.06574 0.9261 0.0
H216 H 0.22733 0.89425 0.78339 0.0
H217 H 0.22298 0.88598 0.68852 0.0
H218 H 0.16829 0.90257 0.73627 0.0
H219 H 0.15728 0.98091 0.66254 0.0
H220 H 0.21256 0.96483 0.61594 0.0
H221 H 0.20837 0.02676 0.66134 0.0
H222 H 0.35378 0.04669 0.85705 0.0
H223 H 0.41806 1.01734 0.77487 0.0
H224 H 0.30293 0.9338 0.64275 0.0
C225 C 0.15923 1.00144 0.82062 0.0
C226 C 0.15251 0.02993 0.88514 0.0
C227 C 0.195 0.05312 0.92306 0.0
C228 C 0.24329 0.04816 0.89689 0.0
C229 C 0.24843 0.01933 0.83332 0.0
C230 C 0.20744 0.99619 0.79602 0.0
C231 C 0.22278 0.96538 0.73078 0.0
C232 C 0.20958 0.90868 0.735 0.0
C233 C 0.19883 0.98571 0.6637 0.0
C234 C 0.27897 0.97523 0.73633 0.0
C235 C 0.29311 1.00659 0.79564 0.0
C236 C 0.34305 0.02198 0.81072 0.0
C237 C 0.37926 1.00524 0.76374 0.0
C238 C 0.36553 0.97305 0.70275 0.0
C239 C 0.3147 0.95762 0.68951 0.0
H240 H 0.97002 0.15185 0.79226 0.0
H241 H 0.05007 0.21973 0.98098 0.0
H242 H 0.05511 0.30188 0.92497 0.0
H243 H 0.03713 0.21491 0.66631 0.0
H244 H 0.98214 0.22102 0.6091 0.0
H245 H 0.98605 0.16881 0.66467 0.0
H246 H 0.90219 0.19461 0.71903 0.0
H247 H 0.89805 0.24704 0.66381 0.0
H248 H 0.89604 0.25826 0.75806 0.0
H249 H 0.05199 0.37653 0.84342 0.0
H250 H 0.03863 0.43547 0.74905 0.0
H251 H 0.95898 0.31542 0.61863 0.0
C252 C 0.9891 0.18362 0.82228 0.0
C253 C 1.01023 0.17903 0.89095 0.0
C254 C 0.03391 0.2222 0.92815 0.0
C255 C 0.03688 0.26893 0.89671 0.0
C256 C 0.01557 0.27171 0.82857 0.0
C257 C 0.99193 0.22999 0.79232 0.0
C258 C 0.97097 0.24198 0.72057 0.0
C259 C 0.99556 0.20978 0.66172 0.0
C260 C 0.91341 0.23508 0.71509 0.0
C261 C 0.98678 0.29718 0.72113 0.0
C262 C 1.0126 0.31393 0.78353 0.0
C263 C 0.03166 0.36366 0.79464 0.0
C264 C 0.02411 0.39679 0.74065 0.0
C265 C 0.99747 0.38011 0.67661 0.0
C266 C 0.97864 0.32964 0.66732 0.0
H267 H 0.81426 0.98637 0.89459 0.0
H268 H 0.84768 0.14763 0.89485 0.0
H269 H 0.7657 0.15932 0.83121 0.0
H270 H 0.75994 0.96911 0.72694 0.0
H271 H 0.71242 0.92362 0.74764 0.0
H272 H 0.77063 0.92977 0.79943 0.0
H273 H 0.7221 0.94693 0.9132 0.0
H274 H 0.66355 0.9403 0.86174 0.0
H275 H 0.67756 0.99724 0.91792 0.0
H276 H 0.68427 0.14936 0.75104 0.0
H277 H 0.60924 0.12016 0.67478 0.0
H278 H 0.62993 0.96692 0.73718 0.0
C279 C 0.80365 0.02432 0.88281 0.0
C280 C 0.83673 0.06615 0.89972 0.0
C281 C 0.82217 0.11527 0.88309 0.0
C282 C 0.77591 0.12214 0.84666 0.0
C283 C 0.7445 0.07962 0.82887 0.0
C284 C 0.75754 0.03186 0.84796 0.0
C285 C 0.71881 0.99179 0.82082 0.0
C286 C 0.74184 0.95122 0.77075 0.0
C287 C 0.69403 0.96766 0.88208 0.0
C288 C 0.68248 0.02394 0.78167 0.0
C289 C 0.69759 0.0745 0.78626 0.0
C290 C 0.67154 0.11002 0.74853 0.0
C291 C 0.62912 0.09318 0.70523 0.0
C292 C 0.6132 0.04146 0.70076 0.0
C293 C 0.64019 1.00698 0.74035 0.0
loop_
_geom_bond_atom_site_label_1
_geom_bond_atom_site_label_2
_geom_bond_distance
_geom_bond_site_symmetry_2
_ccdc_geom_bond_type
Fe0 O1 1.886 1_455 S
Fe0 O4 1.715 1_545 S
Fe0 O9 2.077 . S
Fe0 O14 1.935 . S
Fe0 O20 2.077 1_455 S
Fe0 O29 1.935 1_445 S
O1 Fe0 1.886 1_655 S
O1 Fe3 1.715 . S
Fe2 O4 1.886 . S
Fe2 O5 1.715 1_554 S
Fe2 O12 1.935 1_554 S
Fe2 O13 2.077 . S
Fe2 O19 1.935 1_554 S
Fe2 O28 2.077 . S
Fe3 O1 1.715 . S
Fe3 O6 1.886 1_554 S
Fe3 O10 1.935 . S
Fe3 O15 2.077 1_554 S
Fe3 O21 1.935 . S
Fe3 O25 2.077 1_554 S
O4 Fe0 1.715 1_565 S
O4 Fe2 1.886 . S
O5 Fe2 1.715 1_556 S
O5 Fe7 1.893 . S
O6 Fe3 1.886 1_556 S
O6 Fe7 1.709 1_645 S
Fe7 O5 1.893 . S
Fe7 O6 1.709 1_465 S
Fe7 O11 2.077 1_565 S
Fe7 O16 1.922 1_565 S
Fe7 O18 2.090 1_455 S
Fe7 O26 1.937 1_455 S
C8 O20 1.381 . S
C8 O21 1.421 . S
O9 Fe0 2.077 . S
O9 C22 1.381 1_455 S
O10 Fe3 1.935 . S
O10 C22 1.421 . S
O11 Fe7 2.077 1_545 S
O11 C27 1.381 1_545 S
O12 Fe2 1.935 1_556 S
O12 C27 1.421 . S
O13 Fe2 2.077 . S
O13 C17 1.381 . S
O14 Fe0 1.935 . S
O14 C17 1.421 1_545 S
O15 Fe3 2.077 1_556 S
O15 C23 1.381 . S
O16 Fe7 1.922 1_545 S
O16 C23 1.421 1_455 S
C17 O13 1.381 . S
C17 O14 1.421 1_565 S
O18 Fe7 2.090 1_655 S
O18 C30 1.381 1_655 S
O19 Fe2 1.935 1_556 S
O19 C30 1.421 . S
O20 Fe0 2.077 1_655 S
O20 C8 1.381 . S
O21 Fe3 1.935 . S
O21 C8 1.421 . S
C22 O9 1.381 1_655 S
C22 O10 1.421 . S
C23 O15 1.381 . S
C23 O16 1.421 1_655 S
C24 O25 1.381 . S
C24 O26 1.421 1_545 S
O25 Fe3 2.077 1_556 S
O25 C24 1.381 . S
O26 Fe7 1.937 1_655 S
O26 C24 1.421 1_565 S
C27 O11 1.381 1_565 S
C27 O12 1.421 . S
O28 Fe2 2.077 . S
O28 C31 1.381 . S
O29 Fe0 1.935 1_665 S
O29 C31 1.421 1_655 S
C30 O18 1.381 1_455 S
C30 O19 1.421 . S
C31 O28 1.381 . S
C31 O29 1.421 1_455 S
Cu32 N33 1.999 . S
Cu32 O38 1.974 . S
Cu32 N43 1.985 . S
Cu32 O52 1.959 . S
N33 Cu32 1.999 . S
N33 C35 1.263 . S
N33 C37 1.389 . S
N34 C35 1.358 . S
N34 C36 1.400 . S
C35 N33 1.263 . S
C35 N34 1.358 . S
C35 H41 0.930 1_655 S
C36 N34 1.400 . S
C36 C37 1.351 . S
C36 H53 0.930 . S
C37 N33 1.389 . S
C37 C36 1.351 . S
C37 H42 0.930 . S
O38 Cu32 1.974 . S
O38 C48 1.282 1_655 S
C39 O40 1.261 . S
C39 O52 1.251 1_455 S
O40 C39 1.261 . S
H41 C35 0.930 1_455 S
H42 C37 0.930 . S
N43 Cu32 1.985 . S
N43 C45 1.335 . S
N43 C46 1.390 1_655 S
N44 C45 1.345 . S
N44 C47 1.336 1_655 S
C45 N43 1.335 . S
C45 N44 1.345 . S
C45 H50 0.930 . S
C46 N43 1.390 1_455 S
C46 C47 1.346 . S
C46 H51 0.930 . S
C47 N44 1.336 1_455 S
C47 C46 1.346 . S
C47 H54 0.929 . S
C48 O38 1.282 1_455 S
C48 O49 1.216 . S
O49 C48 1.216 . S
H50 C45 0.930 . S
H51 C46 0.930 . S
O52 Cu32 1.959 . S
O52 C39 1.251 1_655 S
H53 C36 0.930 . S
H54 C47 0.929 . S
Cu55 N56 1.999 . S
Cu55 O61 1.974 . S
Cu55 N66 1.985 . S
Cu55 O75 1.959 . S
N56 Cu55 1.999 . S
N56 C58 1.263 . S
N56 C60 1.389 . S
N57 C58 1.358 . S
N57 C59 1.400 . S
C58 N56 1.263 . S
C58 N57 1.358 . S
C58 H64 0.930 1_545 S
C59 N57 1.400 . S
C59 C60 1.351 . S
C59 H76 0.930 . S
C60 N56 1.389 . S
C60 C59 1.351 . S
C60 H65 0.930 . S
O61 Cu55 1.974 . S
O61 C71 1.282 1_545 S
C62 O63 1.261 . S
C62 O75 1.251 1_565 S
O63 C62 1.261 . S
H64 C58 0.930 1_565 S
H65 C60 0.930 . S
N66 Cu55 1.985 . S
N66 C68 1.335 . S
N66 C69 1.390 1_545 S
N67 C68 1.345 . S
N67 C70 1.336 1_545 S
C68 N66 1.335 . S
C68 N67 1.345 . S
C68 H73 0.930 . S
C69 N66 1.390 1_565 S
C69 C70 1.346 . S
C69 H74 0.930 . S
C70 N67 1.336 1_565 S
C70 C69 1.346 . S
C70 H77 0.929 . S
C71 O61 1.282 1_565 S
C71 O72 1.216 . S
O72 C71 1.216 . S
H73 C68 0.930 . S
H74 C69 0.930 . S
O75 Cu55 1.959 . S
O75 C62 1.251 1_545 S
H76 C59 0.930 . S
H77 C70 0.929 . S
H78 C90 0.930 . S
H79 C92 0.930 . S
H80 C93 0.930 . S
H81 C97 0.959 . S
H82 C97 0.959 . S
H83 C97 0.961 . S
H84 C98 0.960 . S
H85 C98 0.961 . S
H86 C98 0.959 . S
H87 C101 0.929 . S
H88 C102 0.931 . S
H89 C104 0.930 . S
C90 H78 0.930 . S
C90 C91 1.399 . S
C90 C95 1.399 . S
C91 C90 1.399 . S
C91 C92 1.376 . S
C92 H79 0.930 . S
C92 C91 1.376 . S
C92 C93 1.388 . S
C93 H80 0.930 . S
C93 C92 1.388 . S
C93 C94 1.390 . S
C94 C93 1.390 . S
C94 C95 1.394 . S
C94 C100 1.465 . S
C95 C90 1.399 . S
C95 C94 1.394 . S
C95 C96 1.516 1_455 S
C96 C95 1.516 1_655 S
C96 C97 1.502 1_655 S
C96 C98 1.561 . S
C96 C99 1.526 1_655 S
C97 H81 0.959 . S
C97 H82 0.959 . S
C97 H83 0.961 . S
C97 C96 1.502 1_455 S
C98 H84 0.960 . S
C98 H85 0.961 . S
C98 H86 0.959 . S
C98 C96 1.561 . S
C99 C96 1.526 1_455 S
C99 C100 1.396 . S
C99 C104 1.390 . S
C100 C94 1.465 . S
C100 C99 1.396 . S
C100 C101 1.399 . S
C101 H87 0.929 . S
C101 C100 1.399 . S
C101 C102 1.385 . S
C102 H88 0.931 . S
C102 C101 1.385 . S
C102 C103 1.389 . S
C103 C102 1.389 . S
C103 C104 1.387 . S
C104 H89 0.930 . S
C104 C99 1.390 . S
C104 C103 1.387 . S
H105 C117 0.930 . S
H106 C119 0.930 . S
H107 C120 0.930 . S
H108 C124 0.959 . S
H109 C124 0.959 . S
H110 C124 0.961 . S
H111 C125 0.960 . S
H112 C125 0.961 . S
H113 C125 0.959 . S
H114 C128 0.929 . S
H115 C129 0.931 . S
H116 C131 0.930 . S
C117 H105 0.930 . S
C117 C118 1.399 1_565 S
C117 C122 1.399 . S
C118 C117 1.399 1_545 S
C118 C119 1.376 . S
C119 H106 0.930 . S
C119 C118 1.376 . S
C119 C120 1.388 . S
C120 H107 0.930 . S
C120 C119 1.388 . S
C120 C121 1.390 . S
C121 C120 1.390 . S
C121 C122 1.394 1_545 S
C121 C127 1.465 . S
C122 C117 1.399 . S
C122 C121 1.394 1_565 S
C122 C123 1.516 . S
C123 C122 1.516 . S
C123 C124 1.502 . S
C123 C125 1.561 . S
C123 C126 1.526 . S
C124 H108 0.959 . S
C124 H109 0.959 . S
C124 H110 0.961 . S
C124 C123 1.502 . S
C125 H111 0.960 . S
C125 H112 0.961 . S
C125 H113 0.959 . S
C125 C123 1.561 . S
C126 C123 1.526 . S
C126 C127 1.396 1_565 S
C126 C131 1.390 . S
C127 C121 1.465 . S
C127 C126 1.396 1_545 S
C127 C128 1.399 . S
C128 H114 0.929 . S
C128 C127 1.399 . S
C128 C129 1.385 . S
C129 H115 0.931 . S
C129 C128 1.385 . S
C129 C130 1.389 . S
C130 C129 1.389 . S
C130 C131 1.387 1_545 S
C131 H116 0.930 . S
C131 C126 1.390 . S
C131 C130 1.387 1_565 S
H132 C144 0.930 . S
H133 C146 0.930 . S
H134 C147 0.930 . S
H135 C151 0.959 . S
H136 C151 0.959 . S
H137 C151 0.961 . S
H138 C152 0.960 . S
H139 C152 0.961 . S
H140 C152 0.959 . S
H141 C155 0.929 . S
H142 C156 0.931 . S
H143 C158 0.930 . S
C144 H132 0.930 . S
C144 C145 1.399 1_655 S
C144 C149 1.399 . S
C145 C144 1.399 1_455 S
C145 C146 1.376 . S
C146 H133 0.930 . S
C146 C145 1.376 . S
C146 C147 1.388 . S
C147 H134 0.930 . S
C147 C146 1.388 . S
C147 C148 1.390 . S
C148 C147 1.390 . S
C148 C149 1.394 1_455 S
C148 C154 1.465 . S
C149 C144 1.399 . S
C149 C148 1.394 1_655 S
C149 C150 1.516 . S
C150 C149 1.516 . S
C150 C151 1.502 . S
C150 C152 1.561 . S
C150 C153 1.526 . S
C151 H135 0.959 . S
C151 H136 0.959 . S
C151 H137 0.961 . S
C151 C150 1.502 . S
C152 H138 0.960 . S
C152 H139 0.961 . S
C152 H140 0.959 . S
C152 C150 1.561 . S
C153 C150 1.526 . S
C153 C154 1.396 1_655 S
C153 C158 1.390 . S
C154 C148 1.465 . S
C154 C153 1.396 1_455 S
C154 C155 1.399 . S
C155 H141 0.929 . S
C155 C154 1.399 . S
C155 C156 1.385 . S
C156 H142 0.931 . S
C156 C155 1.385 . S
C156 C157 1.389 1_455 S
C157 C156 1.389 1_655 S
C157 C158 1.387 . S
C158 H143 0.930 . S
C158 C153 1.390 . S
C158 C157 1.387 . S
H159 C171 0.930 . S
H160 C173 0.930 . S
H161 C174 0.930 . S
H162 C178 0.959 . S
H163 C178 0.959 . S
H164 C178 0.961 . S
H165 C179 0.960 . S
H166 C179 0.961 . S
H167 C179 0.959 1_565 S
H168 C182 0.929 . S
H169 C183 0.931 . S
H170 C185 0.930 . S
C171 H159 0.930 . S
C171 C172 1.405 . S
C171 C176 1.399 . S
C172 C171 1.405 . S
C172 C173 1.368 1_545 S
C173 H160 0.930 . S
C173 C172 1.368 1_565 S
C173 C174 1.388 . S
C174 H161 0.930 . S
C174 C173 1.388 . S
C174 C175 1.390 . S
C175 C174 1.390 . S
C175 C176 1.394 1_565 S
C175 C181 1.465 . S
C176 C171 1.399 . S
C176 C175 1.394 1_545 S
C176 C177 1.516 . S
C177 C176 1.516 . S
C177 C178 1.502 . S
C177 C179 1.561 . S
C177 C180 1.526 . S
C178 H162 0.959 . S
C178 H163 0.959 . S
C178 H164 0.961 . S
C178 C177 1.502 . S
C179 H165 0.960 . S
C179 H166 0.961 . S
C179 H167 0.959 1_545 S
C179 C177 1.561 . S
C180 C177 1.526 . S
C180 C181 1.396 1_545 S
C180 C185 1.390 . S
C181 C175 1.465 . S
C181 C180 1.396 1_565 S
C181 C182 1.399 . S
C182 H168 0.929 . S
C182 C181 1.399 . S
C182 C183 1.385 . S
C183 H169 0.931 . S
C183 C182 1.385 . S
C183 C184 1.389 . S
C184 C183 1.389 . S
C184 C185 1.387 1_565 S
C185 H170 0.930 . S
C185 C180 1.390 . S
C185 C184 1.387 1_545 S
H186 C198 0.930 . S
H187 C200 0.930 . S
H188 C201 0.930 . S
H189 C205 0.959 . S
H190 C205 0.959 . S
H191 C205 0.961 . S
H192 C206 0.960 . S
H193 C206 0.961 . S
H194 C206 0.959 . S
H195 C209 0.929 . S
H196 C210 0.931 . S
H197 C212 0.930 . S
C198 H186 0.930 . S
C198 C199 1.399 1_655 S
C198 C203 1.399 1_655 S
C199 C198 1.399 1_455 S
C199 C200 1.376 . S
C200 H187 0.930 . S
C200 C199 1.376 . S
C200 C201 1.388 . S
C201 H188 0.930 . S
C201 C200 1.388 . S
C201 C202 1.390 . S
C202 C201 1.390 . S
C202 C203 1.394 . S
C202 C208 1.465 . S
C203 C198 1.399 1_455 S
C203 C202 1.394 . S
C203 C204 1.516 . S
C204 C203 1.516 . S
C204 C205 1.502 1_455 S
C204 C206 1.561 . S
C204 C207 1.526 . S
C205 H189 0.959 . S
C205 H190 0.959 . S
C205 H191 0.961 . S
C205 C204 1.502 1_655 S
C206 H192 0.960 . S
C206 H193 0.961 . S
C206 H194 0.959 . S
C206 C204 1.561 . S
C207 C204 1.526 . S
C207 C208 1.396 . S
C207 C212 1.390 . S
C208 C202 1.465 . S
C208 C207 1.396 . S
C208 C209 1.399 . S
C209 H195 0.929 . S
C209 C208 1.399 . S
C209 C210 1.385 . S
C210 H196 0.931 . S
C210 C209 1.385 . S
C210 C211 1.389 . S
C211 C210 1.389 . S
C211 C212 1.387 . S
C212 H197 0.930 . S
C212 C207 1.390 . S
C212 C211 1.387 . S
H213 C225 0.930 . S
H214 C227 0.930 . S
H215 C228 0.930 . S
H216 C232 0.959 . S
H217 C232 0.959 . S
H218 C232 0.961 . S
H219 C233 0.960 . S
H220 C233 0.961 . S
H221 C233 0.959 . S
H222 C236 0.929 . S
H223 C237 0.931 . S
H224 C239 0.930 . S
C225 H213 0.930 . S
C225 C226 1.399 1_565 S
C225 C230 1.399 . S
C226 C225 1.399 1_545 S
C226 C227 1.376 . S
C227 H214 0.930 . S
C227 C226 1.376 . S
C227 C228 1.388 . S
C228 H215 0.930 . S
C228 C227 1.388 . S
C228 C229 1.390 . S
C229 C228 1.390 . S
C229 C230 1.394 1_545 S
C229 C235 1.465 . S
C230 C225 1.399 . S
C230 C229 1.394 1_565 S
C230 C231 1.516 . S
C231 C230 1.516 . S
C231 C232 1.502 . S
C231 C233 1.561 . S
C231 C234 1.526 . S
C232 H216 0.959 . S
C232 H217 0.959 . S
C232 H218 0.961 . S
C232 C231 1.502 . S
C233 H219 0.960 . S
C233 H220 0.961 . S
C233 H221 0.959 . S
C233 C231 1.561 . S
C234 C231 1.526 . S
C234 C235 1.396 1_565 S
C234 C239 1.390 . S
C235 C229 1.465 . S
C235 C234 1.396 1_545 S
C235 C236 1.399 . S
C236 H222 0.929 . S
C236 C235 1.399 . S
C236 C237 1.385 . S
C237 H223 0.931 . S
C237 C236 1.385 . S
C237 C238 1.389 . S
C238 C237 1.389 . S
C238 C239 1.387 1_545 S
C239 H224 0.930 . S
C239 C234 1.390 . S
C239 C238 1.387 1_565 S
H240 C252 0.930 . S
H241 C254 0.930 . S
H242 C255 0.930 . S
H243 C259 0.959 . S
H244 C259 0.959 . S
H245 C259 0.961 . S
H246 C260 0.960 . S
H247 C260 0.961 . S
H248 C260 0.959 . S
H249 C263 0.929 . S
H250 C264 0.931 . S
H251 C266 0.930 1_455 S
C252 H240 0.930 . S
C252 C253 1.399 1_455 S
C252 C257 1.399 1_455 S
C253 C252 1.399 1_655 S
C253 C254 1.376 . S
C254 H241 0.930 . S
C254 C253 1.376 . S
C254 C255 1.388 . S
C255 H242 0.930 . S
C255 C254 1.388 . S
C255 C256 1.390 . S
C256 C255 1.390 . S
C256 C257 1.394 . S
C256 C262 1.465 . S
C257 C252 1.399 1_655 S
C257 C256 1.394 . S
C257 C258 1.516 . S
C258 C257 1.516 . S
C258 C259 1.502 1_655 S
C258 C260 1.561 . S
C258 C261 1.526 . S
C259 H243 0.959 . S
C259 H244 0.959 . S
C259 H245 0.961 . S
C259 C258 1.502 1_455 S
C260 H246 0.960 . S
C260 H247 0.961 . S
C260 H248 0.959 . S
C260 C258 1.561 . S
C261 C258 1.526 . S
C261 C262 1.396 . S
C261 C266 1.390 . S
C262 C256 1.465 . S
C262 C261 1.396 . S
C262 C263 1.399 . S
C263 H249 0.929 . S
C263 C262 1.399 . S
C263 C264 1.385 . S
C264 H250 0.931 . S
C264 C263 1.385 . S
C264 C265 1.389 . S
C265 C264 1.389 . S
C265 C266 1.387 . S
C266 H251 0.930 1_655 S
C266 C261 1.390 . S
C266 C265 1.387 . S
H267 C279 0.930 . S
H268 C281 0.930 . S
H269 C282 0.930 . S
H270 C286 0.959 . S
H271 C286 0.959 . S
H272 C286 0.961 . S
H273 C287 0.960 . S
H274 C287 0.961 . S
H275 C287 0.959 . S
H276 C290 0.929 . S
H277 C291 0.931 . S
H278 C293 0.930 . S
C279 H267 0.930 . S
C279 C280 1.399 1_565 S
C279 C284 1.399 . S
C280 C279 1.399 1_545 S
C280 C281 1.376 . S
C281 H268 0.930 . S
C281 C280 1.376 . S
C281 C282 1.388 . S
C282 H269 0.930 . S
C282 C281 1.388 . S
C282 C283 1.390 . S
C283 C282 1.390 . S
C283 C284 1.394 1_545 S
C283 C289 1.465 . S
C284 C279 1.399 . S
C284 C283 1.394 1_565 S
C284 C285 1.516 . S
C285 C284 1.516 . S
C285 C286 1.502 . S
C285 C287 1.561 . S
C285 C288 1.526 . S
C286 H270 0.959 . S
C286 H271 0.959 . S
C286 H272 0.961 . S
C286 C285 1.502 . S
C287 H273 0.960 . S
C287 H274 0.961 . S
C287 H275 0.959 . S
C287 C285 1.561 . S
C288 C285 1.526 . S
C288 C289 1.396 1_565 S
C288 C293 1.390 . S
C289 C283 1.465 . S
C289 C288 1.396 1_545 S
C289 C290 1.399 . S
C290 H276 0.929 . S
C290 C289 1.399 . S
C290 C291 1.385 . S
C291 H277 0.931 . S
C291 C290 1.385 . S
C291 C292 1.389 1_545 S
C292 C291 1.389 1_565 S
C292 C293 1.387 . S
C293 H278 0.930 . S
C293 C288 1.390 . S
C293 C292 1.387 . S
C91 C22 1.441 1_455 S
C103 C48 1.513 . S
C118 C8 1.311 . S
C130 N67 1.392 . S
C145 C31 1.350 . S
C157 N44 1.356 . S
C172 C17 1.428 1_545 S
C184 C71 1.502 . S
C199 C30 1.481 . S
C211 C39 1.559 . S
C226 C27 1.422 1_545 S
C238 N57 1.405 . S
C265 N34 1.383 . S
C253 C23 1.391 . S
C280 C24 1.493 . S
C292 C62 1.553 . S
