# Generated by pormake.
# Topology gar, (4,6)-cn, num edge types: 1
# Building blocks:
#     Node 0, Type 0, BuildingBlock: QUQFOY_clean_sbu_1, # of connection points: 4
#     Node 1, Type 0, BuildingBlock: QUQFOY_clean_sbu_1, # of connection points: 4
#     Node 2, Type 0, BuildingBlock: QUQFOY_clean_sbu_1, # of connection points: 4
#     Node 3, Type 0, BuildingBlock: QUQFOY_clean_sbu_1, # of connection points: 4
#     Node 4, Type 0, BuildingBlock: QUQFOY_clean_sbu_1, # of connection points: 4
#     Node 5, Type 0, BuildingBlock: QUQFOY_clean_sbu_1, # of connection points: 4
#     Node 6, Type 0, BuildingBlock: QUQFOY_clean_sbu_1, # of connection points: 4
#     Node 7, Type 0, BuildingBlock: QUQFOY_clean_sbu_1, # of connection points: 4
#     Node 8, Type 0, BuildingBlock: QUQFOY_clean_sbu_1, # of connection points: 4
#     Node 9, Type 0, BuildingBlock: QUQFOY_clean_sbu_1, # of connection points: 4
#     Node 10, Type 0, BuildingBlock: QUQFOY_clean_sbu_1, # of connection points: 4
#     Node 11, Type 0, BuildingBlock: QUQFOY_clean_sbu_1, # of connection points: 4
#     Node 12, Type 0, BuildingBlock: QUQFOY_clean_sbu_1, # of connection points: 4
#     Node 13, Type 0, BuildingBlock: QUQFOY_clean_sbu_1, # of connection points: 4
#     Node 14, Type 0, BuildingBlock: QUQFOY_clean_sbu_1, # of connection points: 4
#     Node 15, Type 0, BuildingBlock: QUQFOY_clean_sbu_1, # of connection points: 4
#     Node 16, Type 0, BuildingBlock: QUQFOY_clean_sbu_1, # of connection points: 4
#     Node 17, Type 0, BuildingBlock: QUQFOY_clean_sbu_1, # of connection points: 4
#     Node 18, Type 0, BuildingBlock: QUQFOY_clean_sbu_1, # of connection points: 4
#     Node 19, Type 0, BuildingBlock: QUQFOY_clean_sbu_1, # of connection points: 4
#     Node 20, Type 0, BuildingBlock: QUQFOY_clean_sbu_1, # of connection points: 4
#     Node 21, Type 0, BuildingBlock: QUQFOY_clean_sbu_1, # of connection points: 4
#     Node 22, Type 0, BuildingBlock: QUQFOY_clean_sbu_1, # of connection points: 4
#     Node 23, Type 0, BuildingBlock: QUQFOY_clean_sbu_1, # of connection points: 4
#     Node 24, Type 1, BuildingBlock: KUMJIN_clean_sbu_0, # of connection points: 6
#     Node 25, Type 1, BuildingBlock: KUMJIN_clean_sbu_0, # of connection points: 6
#     Node 26, Type 1, BuildingBlock: KUMJIN_clean_sbu_0, # of connection points: 6
#     Node 27, Type 1, BuildingBlock: KUMJIN_clean_sbu_0, # of connection points: 6
#     Node 28, Type 1, BuildingBlock: KUMJIN_clean_sbu_0, # of connection points: 6
#     Node 29, Type 1, BuildingBlock: KUMJIN_clean_sbu_0, # of connection points: 6
#     Node 30, Type 1, BuildingBlock: KUMJIN_clean_sbu_0, # of connection points: 6
#     Node 31, Type 1, BuildingBlock: KUMJIN_clean_sbu_0, # of connection points: 6
#     Node 32, Type 1, BuildingBlock: KUMJIN_clean_sbu_0, # of connection points: 6
#     Node 33, Type 1, BuildingBlock: KUMJIN_clean_sbu_0, # of connection points: 6
#     Node 34, Type 1, BuildingBlock: KUMJIN_clean_sbu_0, # of connection points: 6
#     Node 35, Type 1, BuildingBlock: KUMJIN_clean_sbu_0, # of connection points: 6
#     Node 36, Type 1, BuildingBlock: KUMJIN_clean_sbu_0, # of connection points: 6
#     Node 37, Type 1, BuildingBlock: KUMJIN_clean_sbu_0, # of connection points: 6
#     Node 38, Type 1, BuildingBlock: KUMJIN_clean_sbu_0, # of connection points: 6
#     Node 39, Type 1, BuildingBlock: KUMJIN_clean_sbu_0, # of connection points: 6
#     Edge 40, Type (0, 1), BuildingBlock: ZUJKAS_clean_linker_0, # of connection points: 2
#     Edge 41, Type (0, 1), BuildingBlock: ZUJKAS_clean_linker_0, # of connection points: 2
#     Edge 42, Type (0, 1), BuildingBlock: ZUJKAS_clean_linker_0, # of connection points: 2
#     Edge 43, Type (0, 1), BuildingBlock: ZUJKAS_clean_linker_0, # of connection points: 2
#     Edge 44, Type (0, 1), BuildingBlock: ZUJKAS_clean_linker_0, # of connection points: 2
#     Edge 45, Type (0, 1), BuildingBlock: ZUJKAS_clean_linker_0, # of connection points: 2
#     Edge 46, Type (0, 1), BuildingBlock: ZUJKAS_clean_linker_0, # of connection points: 2
#     Edge 47, Type (0, 1), BuildingBlock: ZUJKAS_clean_linker_0, # of connection points: 2
#     Edge 48, Type (0, 1), BuildingBlock: ZUJKAS_clean_linker_0, # of connection points: 2
#     Edge 49, Type (0, 1), BuildingBlock: ZUJKAS_clean_linker_0, # of connection points: 2
#     Edge 50, Type (0, 1), BuildingBlock: ZUJKAS_clean_linker_0, # of connection points: 2
#     Edge 51, Type (0, 1), BuildingBlock: ZUJKAS_clean_linker_0, # of connection points: 2
#     Edge 52, Type (0, 1), BuildingBlock: ZUJKAS_clean_linker_0, # of connection points: 2
#     Edge 53, Type (0, 1), BuildingBlock: ZUJKAS_clean_linker_0, # of connection points: 2
#     Edge 54, Type (0, 1), BuildingBlock: ZUJKAS_clean_linker_0, # of connection points: 2
#     Edge 55, Type (0, 1), BuildingBlock: ZUJKAS_clean_linker_0, # of connection points: 2
#     Edge 56, Type (0, 1), BuildingBlock: ZUJKAS_clean_linker_0, # of connection points: 2
#     Edge 57, Type (0, 1), BuildingBlock: ZUJKAS_clean_linker_0, # of connection points: 2
#     Edge 58, Type (0, 1), BuildingBlock: ZUJKAS_clean_linker_0, # of connection points: 2
#     Edge 59, Type (0, 1), BuildingBlock: ZUJKAS_clean_linker_0, # of connection points: 2
#     Edge 60, Type (0, 1), BuildingBlock: ZUJKAS_clean_linker_0, # of connection points: 2
#     Edge 61, Type (0, 1), BuildingBlock: ZUJKAS_clean_linker_0, # of connection points: 2
#     Edge 62, Type (0, 1), BuildingBlock: ZUJKAS_clean_linker_0, # of connection points: 2
#     Edge 63, Type (0, 1), BuildingBlock: ZUJKAS_clean_linker_0, # of connection points: 2
#     Edge 64, Type (0, 1), BuildingBlock: ZUJKAS_clean_linker_0, # of connection points: 2
#     Edge 65, Type (0, 1), BuildingBlock: ZUJKAS_clean_linker_0, # of connection points: 2
#     Edge 66, Type (0, 1), BuildingBlock: ZUJKAS_clean_linker_0, # of connection points: 2
#     Edge 67, Type (0, 1), BuildingBlock: ZUJKAS_clean_linker_0, # of connection points: 2
#     Edge 68, Type (0, 1), BuildingBlock: ZUJKAS_clean_linker_0, # of connection points: 2
#     Edge 69, Type (0, 1), BuildingBlock: ZUJKAS_clean_linker_0, # of connection points: 2
#     Edge 70, Type (0, 1), BuildingBlock: ZUJKAS_clean_linker_0, # of connection points: 2
#     Edge 71, Type (0, 1), BuildingBlock: ZUJKAS_clean_linker_0, # of connection points: 2
#     Edge 72, Type (0, 1), BuildingBlock: ZUJKAS_clean_linker_0, # of connection points: 2
#     Edge 73, Type (0, 1), BuildingBlock: ZUJKAS_clean_linker_0, # of connection points: 2
#     Edge 74, Type (0, 1), BuildingBlock: ZUJKAS_clean_linker_0, # of connection points: 2
#     Edge 75, Type (0, 1), BuildingBlock: ZUJKAS_clean_linker_0, # of connection points: 2
#     Edge 76, Type (0, 1), BuildingBlock: ZUJKAS_clean_linker_0, # of connection points: 2
#     Edge 77, Type (0, 1), BuildingBlock: ZUJKAS_clean_linker_0, # of connection points: 2
#     Edge 78, Type (0, 1), BuildingBlock: ZUJKAS_clean_linker_0, # of connection points: 2
#     Edge 79, Type (0, 1), BuildingBlock: ZUJKAS_clean_linker_0, # of connection points: 2
#     Edge 80, Type (0, 1), BuildingBlock: ZUJKAS_clean_linker_0, # of connection points: 2
#     Edge 81, Type (0, 1), BuildingBlock: ZUJKAS_clean_linker_0, # of connection points: 2
#     Edge 82, Type (0, 1), BuildingBlock: ZUJKAS_clean_linker_0, # of connection points: 2
#     Edge 83, Type (0, 1), BuildingBlock: ZUJKAS_clean_linker_0, # of connection points: 2
#     Edge 84, Type (0, 1), BuildingBlock: ZUJKAS_clean_linker_0, # of connection points: 2
#     Edge 85, Type (0, 1), BuildingBlock: ZUJKAS_clean_linker_0, # of connection points: 2
#     Edge 86, Type (0, 1), BuildingBlock: ZUJKAS_clean_linker_0, # of connection points: 2
#     Edge 87, Type (0, 1), BuildingBlock: ZUJKAS_clean_linker_0, # of connection points: 2
#     Edge 88, Type (0, 1), BuildingBlock: ZUJKAS_clean_linker_0, # of connection points: 2
#     Edge 89, Type (0, 1), BuildingBlock: ZUJKAS_clean_linker_0, # of connection points: 2
#     Edge 90, Type (0, 1), BuildingBlock: ZUJKAS_clean_linker_0, # of connection points: 2
#     Edge 91, Type (0, 1), BuildingBlock: ZUJKAS_clean_linker_0, # of connection points: 2
#     Edge 92, Type (0, 1), BuildingBlock: ZUJKAS_clean_linker_0, # of connection points: 2
#     Edge 93, Type (0, 1), BuildingBlock: ZUJKAS_clean_linker_0, # of connection points: 2
#     Edge 94, Type (0, 1), BuildingBlock: ZUJKAS_clean_linker_0, # of connection points: 2
#     Edge 95, Type (0, 1), BuildingBlock: ZUJKAS_clean_linker_0, # of connection points: 2
#     Edge 96, Type (0, 1), BuildingBlock: ZUJKAS_clean_linker_0, # of connection points: 2
#     Edge 97, Type (0, 1), BuildingBlock: ZUJKAS_clean_linker_0, # of connection points: 2
#     Edge 98, Type (0, 1), BuildingBlock: ZUJKAS_clean_linker_0, # of connection points: 2
#     Edge 99, Type (0, 1), BuildingBlock: ZUJKAS_clean_linker_0, # of connection points: 2
#     Edge 100, Type (0, 1), BuildingBlock: ZUJKAS_clean_linker_0, # of connection points: 2
#     Edge 101, Type (0, 1), BuildingBlock: ZUJKAS_clean_linker_0, # of connection points: 2
#     Edge 102, Type (0, 1), BuildingBlock: ZUJKAS_clean_linker_0, # of connection points: 2
#     Edge 103, Type (0, 1), BuildingBlock: ZUJKAS_clean_linker_0, # of connection points: 2
#     Edge 104, Type (0, 1), BuildingBlock: ZUJKAS_clean_linker_0, # of connection points: 2
#     Edge 105, Type (0, 1), BuildingBlock: ZUJKAS_clean_linker_0, # of connection points: 2
#     Edge 106, Type (0, 1), BuildingBlock: ZUJKAS_clean_linker_0, # of connection points: 2
#     Edge 107, Type (0, 1), BuildingBlock: ZUJKAS_clean_linker_0, # of connection points: 2
#     Edge 108, Type (0, 1), BuildingBlock: ZUJKAS_clean_linker_0, # of connection points: 2
#     Edge 109, Type (0, 1), BuildingBlock: ZUJKAS_clean_linker_0, # of connection points: 2
#     Edge 110, Type (0, 1), BuildingBlock: ZUJKAS_clean_linker_0, # of connection points: 2
#     Edge 111, Type (0, 1), BuildingBlock: ZUJKAS_clean_linker_0, # of connection points: 2
#     Edge 112, Type (0, 1), BuildingBlock: ZUJKAS_clean_linker_0, # of connection points: 2
#     Edge 113, Type (0, 1), BuildingBlock: ZUJKAS_clean_linker_0, # of connection points: 2
#     Edge 114, Type (0, 1), BuildingBlock: ZUJKAS_clean_linker_0, # of connection points: 2
#     Edge 115, Type (0, 1), BuildingBlock: ZUJKAS_clean_linker_0, # of connection points: 2
#     Edge 116, Type (0, 1), BuildingBlock: ZUJKAS_clean_linker_0, # of connection points: 2
#     Edge 117, Type (0, 1), BuildingBlock: ZUJKAS_clean_linker_0, # of connection points: 2
#     Edge 118, Type (0, 1), BuildingBlock: ZUJKAS_clean_linker_0, # of connection points: 2
#     Edge 119, Type (0, 1), BuildingBlock: ZUJKAS_clean_linker_0, # of connection points: 2
#     Edge 120, Type (0, 1), BuildingBlock: ZUJKAS_clean_linker_0, # of connection points: 2
#     Edge 121, Type (0, 1), BuildingBlock: ZUJKAS_clean_linker_0, # of connection points: 2
#     Edge 122, Type (0, 1), BuildingBlock: ZUJKAS_clean_linker_0, # of connection points: 2
#     Edge 123, Type (0, 1), BuildingBlock: ZUJKAS_clean_linker_0, # of connection points: 2
#     Edge 124, Type (0, 1), BuildingBlock: ZUJKAS_clean_linker_0, # of connection points: 2
#     Edge 125, Type (0, 1), BuildingBlock: ZUJKAS_clean_linker_0, # of connection points: 2
#     Edge 126, Type (0, 1), BuildingBlock: ZUJKAS_clean_linker_0, # of connection points: 2
#     Edge 127, Type (0, 1), BuildingBlock: ZUJKAS_clean_linker_0, # of connection points: 2
#     Edge 128, Type (0, 1), BuildingBlock: ZUJKAS_clean_linker_0, # of connection points: 2
#     Edge 129, Type (0, 1), BuildingBlock: ZUJKAS_clean_linker_0, # of connection points: 2
#     Edge 130, Type (0, 1), BuildingBlock: ZUJKAS_clean_linker_0, # of connection points: 2
#     Edge 131, Type (0, 1), BuildingBlock: ZUJKAS_clean_linker_0, # of connection points: 2
#     Edge 132, Type (0, 1), BuildingBlock: ZUJKAS_clean_linker_0, # of connection points: 2
#     Edge 133, Type (0, 1), BuildingBlock: ZUJKAS_clean_linker_0, # of connection points: 2
#     Edge 134, Type (0, 1), BuildingBlock: ZUJKAS_clean_linker_0, # of connection points: 2
#     Edge 135, Type (0, 1), BuildingBlock: ZUJKAS_clean_linker_0, # of connection points: 2
# Relax obj value: 0.126
# Max RMSD: 0.318
# Mean RMSD: 0.177
data_MOF--net-gar--node1-QUQFOY_clean_sbu_1--node2-KUMJIN_clean_sbu_0--edge1-ZUJKAS_clean_linker_0
_symmetry_space_group_name_H-M    P1
_symmetry_Int_Tables_number       1
_symmetry_cell_setting            triclinic
loop_
_symmetry_equiv_pos_as_xyz
'x, y, z'
_cell_length_a     78.375718
_cell_length_b     73.151133
_cell_length_c     73.325293
_cell_angle_alpha  99.9801
_cell_angle_beta   93.473014
_cell_angle_gamma 104.28951
loop_
_atom_site_label
_atom_site_type_symbol
_atom_site_fract_x
_atom_site_fract_y
_atom_site_fract_z
_atom_type_partial_charge
O0 O 0.10393 0.29386 0.39071 0.0
Cd1 Cd 0.10667 0.31721 0.3777 0.0
Cd2 Cd 0.09921 0.3328 0.40869 0.0
O3 O 0.1077 0.312 0.41859 0.0
O4 O 0.11888 0.31188 0.35551 0.0
O5 O 0.13089 0.33516 0.37995 0.0
C6 C 0.1321 0.32584 0.36362 0.0
C7 C 0.1087 0.36435 0.42416 0.0
C8 C 0.10646 0.29582 0.40829 0.0
C9 C 0.07179 0.32461 0.37781 0.0
O10 O 0.07409 0.32536 0.39517 0.0
O11 O 0.08442 0.32406 0.36793 0.0
O12 O 0.09802 0.35151 0.431 0.0
O13 O 0.11466 0.35906 0.4086 0.0
O14 O 0.00674 0.74354 0.6702 0.0
Cd15 Cd 0.01137 0.77082 0.68493 0.0
Cd16 Cd 0.01241 0.77787 0.65286 0.0
O17 O 0.99549 0.75101 0.64525 0.0
O18 O 0.99699 0.7705 0.70571 0.0
O19 O 0.99263 0.78358 0.68101 0.0
C20 C 0.98742 0.77843 0.69621 0.0
C21 C 0.0111 0.80047 0.63493 0.0
C22 C 0.99821 0.73841 0.65411 0.0
C23 C 0.04608 0.78395 0.67794 0.0
O24 O 0.03824 0.7794 0.66152 0.0
O25 O 0.03716 0.78503 0.69174 0.0
O26 O 0.01606 0.7853 0.62867 0.0
O27 O 0.00568 0.80235 0.65125 0.0
O28 O 0.63256 0.82159 0.88423 0.0
Cd29 Cd 0.61437 0.8207 0.90316 0.0
Cd30 Cd 0.59778 0.83177 0.87683 0.0
O31 O 0.61552 0.8241 0.86026 0.0
O32 O 0.6222 0.80643 0.921 0.0
O33 O 0.59639 0.79606 0.90337 0.0
C34 C 0.60743 0.79348 0.91588 0.0
C35 C 0.56878 0.82706 0.86502 0.0
C36 C 0.63005 0.82219 0.8671 0.0
C37 C 0.61157 0.85995 0.91206 0.0
O38 O 0.60682 0.85737 0.89482 0.0
O39 O 0.61354 0.84606 0.91938 0.0
O40 O 0.5815 0.83934 0.86001 0.0
O41 O 0.57257 0.81627 0.87601 0.0
O42 O 0.50692 0.23493 0.16768 0.0
Cd43 Cd 0.51165 0.26285 0.18107 0.0
Cd44 Cd 0.51384 0.26797 0.14863 0.0
O45 O 0.49588 0.24169 0.14227 0.0
O46 O 0.49722 0.26373 0.20197 0.0
O47 O 0.49253 0.27504 0.17627 0.0
C48 C 0.48747 0.27094 0.19188 0.0
C49 C 0.51234 0.29132 0.1317 0.0
C50 C 0.49819 0.22936 0.1517 0.0
C51 C 0.54688 0.27485 0.17396 0.0
O52 O 0.53938 0.26856 0.15745 0.0
O53 O 0.5376 0.27764 0.18724 0.0
O54 O 0.5166 0.27594 0.12447 0.0
O55 O 0.50799 0.29301 0.14849 0.0
O56 O 0.07969 0.78825 0.11459 0.0
Cd57 Cd 0.08141 0.81454 0.13126 0.0
Cd58 Cd 0.09727 0.82588 0.10089 0.0
O59 O 0.08769 0.7963 0.08813 0.0
O60 O 0.06581 0.8065 0.15081 0.0
O61 O 0.05987 0.82558 0.13261 0.0
C62 C 0.05525 0.816 0.14553 0.0
C63 C 0.0902 0.85243 0.08937 0.0
C64 C 0.08236 0.78335 0.09773 0.0
C65 C 0.12073 0.83072 0.13752 0.0
O66 O 0.11992 0.83063 0.12003 0.0
O67 O 0.10655 0.82707 0.14542 0.0
O68 O 0.10153 0.84391 0.08214 0.0
O69 O 0.08256 0.84568 0.10285 0.0
O70 O 0.55748 0.77715 0.41986 0.0
Cd71 Cd 0.54033 0.77452 0.44047 0.0
Cd72 Cd 0.5192 0.7856 0.40612 0.0
O73 O 0.5416 0.77939 0.39439 0.0
O74 O 0.55263 0.7636 0.45973 0.0
O75 O 0.52745 0.74723 0.44334 0.0
C76 C 0.54032 0.74772 0.45545 0.0
C77 C 0.49196 0.78294 0.38732 0.0
C78 C 0.55599 0.77801 0.40263 0.0
C79 C 0.53075 0.8129 0.44579 0.0
O80 O 0.5249 0.80868 0.42856 0.0
O81 O 0.53595 0.80072 0.45382 0.0
O82 O 0.50613 0.79633 0.3873 0.0
O83 O 0.49326 0.77029 0.39725 0.0
O84 O 0.58468 0.28372 0.61083 0.0
Cd85 Cd 0.58792 0.30837 0.63089 0.0
Cd86 Cd 0.60612 0.32432 0.60336 0.0
O87 O 0.59791 0.29569 0.5881 0.0
O88 O 0.57091 0.29886 0.64876 0.0
O89 O 0.56765 0.32133 0.63344 0.0
C90 C 0.56161 0.31018 0.64474 0.0
C91 C 0.59871 0.3513 0.59333 0.0
C92 C 0.58965 0.28125 0.5946 0.0
C93 C 0.62775 0.32472 0.63984 0.0
O94 O 0.62782 0.3282 0.62335 0.0
O95 O 0.61309 0.31824 0.64616 0.0
O96 O 0.61123 0.34442 0.58672 0.0
O97 O 0.59017 0.34289 0.60543 0.0
O98 O 0.02805 0.24225 0.92354 0.0
Cd99 Cd 0.02988 0.26335 0.90696 0.0
Cd100 Cd 0.01504 0.28037 0.94008 0.0
O101 O 0.02164 0.25719 0.95013 0.0
O102 O 0.04382 0.25512 0.88606 0.0
O103 O 0.05471 0.28106 0.90769 0.0
C104 C 0.05704 0.26957 0.89312 0.0
C105 C 0.02352 0.3125 0.9575 0.0
C106 C 0.02579 0.24278 0.94071 0.0
C107 C 0.99335 0.27233 0.90196 0.0
O108 O 0.99348 0.27524 0.91965 0.0
O109 O 0.00685 0.26888 0.89447 0.0
O110 O 0.0106 0.29959 0.96154 0.0
O111 O 0.03226 0.30698 0.94414 0.0
O112 O 0.42858 0.05734 0.27756 0.0
Cd113 Cd 0.41825 0.06127 0.30252 0.0
Cd114 Cd 0.447 0.05679 0.31258 0.0
O115 O 0.45625 0.06631 0.28977 0.0
O116 O 0.39618 0.06633 0.29385 0.0
O117 O 0.41723 0.08783 0.31353 0.0
C118 C 0.40222 0.0835 0.30338 0.0
C119 C 0.4562 0.0721 0.34234 0.0
C120 C 0.44493 0.06241 0.27565 0.0
C121 C 0.41695 0.02505 0.31251 0.0
O122 O 0.43288 0.02865 0.30875 0.0
O123 O 0.40912 0.03832 0.31456 0.0
O124 O 0.46578 0.06261 0.33297 0.0
O125 O 0.4416 0.07366 0.33442 0.0
O126 O 0.31315 0.20083 0.53749 0.0
Cd127 Cd 0.31228 0.18126 0.51335 0.0
Cd128 Cd 0.30049 0.20972 0.50011 0.0
O129 O 0.30822 0.22586 0.52717 0.0
O130 O 0.32531 0.16418 0.52328 0.0
O131 O 0.33446 0.17951 0.50081 0.0
C132 C 0.33704 0.1685 0.5121 0.0
C133 C 0.30694 0.22181 0.47281 0.0
C134 C 0.31167 0.21798 0.54065 0.0
C135 C 0.27431 0.17057 0.49848 0.0
O136 O 0.27704 0.18815 0.49712 0.0
O137 O 0.28715 0.16403 0.5033 0.0
O138 O 0.29519 0.22658 0.48286 0.0
O139 O 0.31587 0.21095 0.47879 0.0
O140 O 0.169 1.0082 0.73129 0.0
Cd141 Cd 0.19075 1.00814 0.75172 0.0
Cd142 Cd 0.16124 0.02868 0.7762 0.0
O143 O 0.14946 0.02051 0.74737 0.0
O144 O 0.20834 0.992 0.74026 0.0
O145 O 0.194 0.98403 0.7632 0.0
C146 C 0.20525 0.98036 0.75182 0.0
C147 C 0.14587 0.02821 0.8054 0.0
C148 C 0.15467 0.01411 0.73166 0.0
C149 C 0.19989 0.05284 0.77108 0.0
O150 O 0.18449 0.05093 0.77681 0.0
O151 O 0.20483 0.03816 0.76286 0.0
O152 O 0.14429 0.03955 0.79408 0.0
O153 O 0.1555 0.01664 0.80013 0.0
O154 O 0.31473 0.94283 0.03849 0.0
Cd155 Cd 0.31418 0.95341 0.01445 0.0
Cd156 Cd 0.31532 0.92099 0.00395 0.0
O157 O 0.30034 0.91369 0.02456 0.0
O158 O 0.30615 0.97631 0.02187 0.0
O159 O 0.29091 0.95085 1.0007 0.0
C160 C 0.2919 0.96744 0.01095 0.0
C161 C 0.31303 0.90461 0.97437 0.0
C162 C 0.3062 0.92595 0.03945 0.0
C163 C 0.3479 0.9514 0.00832 0.0
O164 O 0.34133 0.93505 0.01214 0.0
O165 O 0.33777 0.96155 0.00447 0.0
O166 O 0.31779 0.89766 0.98827 0.0
O167 O 0.30727 0.91987 0.97751 0.0
O168 O 0.30857 0.39675 0.06363 0.0
Cd169 Cd 0.31093 0.41532 0.04523 0.0
Cd170 Cd 0.32091 0.38345 0.0237 0.0
O171 O 0.31218 0.37052 0.04592 0.0
O172 O 0.29817 0.43466 0.05594 0.0
O173 O 0.28881 0.41467 0.02902 0.0
C174 C 0.28633 0.42807 0.04177 0.0
C175 C 0.31539 0.36587 0.99291 0.0
C176 C 0.30873 0.37917 0.06134 0.0
C177 C 0.34837 0.42285 0.03546 0.0
O178 O 0.34452 0.40499 0.02837 0.0
O179 O 0.33656 0.43043 0.04223 0.0
O180 O 0.3272 0.36363 0.0047 0.0
O181 O 0.30592 0.3774 0.99874 0.0
O182 O 0.79322 0.15151 0.05238 0.0
Cd183 Cd 0.79529 0.13627 0.02699 0.0
Cd184 Cd 0.79343 0.1665 0.01836 0.0
O185 O 0.80635 0.17858 0.04439 0.0
O186 O 0.80873 0.11836 0.03203 0.0
O187 O 0.81808 0.1421 0.01649 0.0
C188 C 0.82101 0.12826 0.024 0.0
C189 C 0.79862 0.18118 0.99336 0.0
C190 C 0.80097 0.16925 0.05689 0.0
C191 C 0.76163 0.13322 0.01207 0.0
O192 O 0.76747 0.15129 0.0172 0.0
O193 O 0.77222 0.12266 0.01133 0.0
O194 O 0.79099 0.18816 0.00696 0.0
O195 O 0.80448 0.16636 0.9946 0.0
O196 O 0.19788 0.54635 0.22512 0.0
Cd197 Cd 0.21333 0.54575 0.24806 0.0
Cd198 Cd 0.18764 0.55054 0.26328 0.0
O199 O 0.17377 0.53697 0.23857 0.0
O200 O 0.22913 0.52999 0.24046 0.0
O201 O 0.20734 0.52244 0.25842 0.0
C202 C 0.21999 0.51803 0.24954 0.0
C203 C 0.17704 0.54814 0.29108 0.0
C204 C 0.18121 0.54025 0.22418 0.0
C205 C 0.21837 0.58335 0.26597 0.0
O206 O 0.20165 0.57799 0.26395 0.0
O207 O 0.22719 0.571 0.26356 0.0
O208 O 0.16993 0.55595 0.27928 0.0
O209 O 0.18922 0.53975 0.28631 0.0
O210 O 0.80958 0.89592 0.56773 0.0
Cd211 Cd 0.81256 0.91353 0.54819 0.0
Cd212 Cd 0.8244 0.88242 0.53017 0.0
O213 O 0.81536 0.8698 0.55224 0.0
O214 O 0.79985 0.93318 0.55797 0.0
O215 O 0.79066 0.91248 0.53144 0.0
C216 C 0.78819 0.9263 0.54369 0.0
C217 C 0.8177 0.86613 0.4991 0.0
C218 C 0.81057 0.87867 0.56675 0.0
C219 C 0.85078 0.92174 0.5404 0.0
O220 O 0.84806 0.90363 0.53549 0.0
O221 O 0.83803 0.92902 0.5447 0.0
O222 O 0.82945 0.86272 0.51015 0.0
O223 O 0.80903 0.87819 0.50583 0.0
O224 O 0.94377 0.07568 0.23749 0.0
Cd225 Cd 0.9219 0.076 0.25448 0.0
Cd226 Cd 0.95504 0.05977 0.27873 0.0
O227 O 0.96546 0.06723 0.25294 0.0
O228 O 0.90357 0.08911 0.24282 0.0
O229 O 0.91838 0.10214 0.26982 0.0
C230 C 0.90686 0.10324 0.25694 0.0
C231 C 0.9727 0.0612 0.30868 0.0
C232 C 0.95918 0.07221 0.23831 0.0
C233 C 0.91452 0.03464 0.26697 0.0
O234 O 0.93053 0.03824 0.27443 0.0
O235 O 0.90911 0.04718 0.25932 0.0
O236 O 0.97144 0.04793 0.29418 0.0
O237 O 0.965 0.07443 0.30619 0.0
O238 O 0.294 0.65247 0.5468 0.0
Cd239 Cd 0.29358 0.63197 0.52387 0.0
Cd240 Cd 0.2939 0.66003 0.50748 0.0
O241 O 0.30712 0.67512 0.5324 0.0
O242 O 0.30791 0.61491 0.52963 0.0
O243 O 0.31499 0.63601 0.51082 0.0
C244 C 0.31902 0.62336 0.51941 0.0
C245 C 0.29756 0.67589 0.48264 0.0
C246 C 0.30188 0.66991 0.54716 0.0
C247 C 0.2601 0.62969 0.50815 0.0
O248 O 0.26779 0.64711 0.5082 0.0
O249 O 0.26915 0.61803 0.51067 0.0
O250 O 0.29046 0.68204 0.49696 0.0
O251 O 0.30336 0.66085 0.4826 0.0
O252 O 0.44667 0.57883 0.74251 0.0
Cd253 Cd 0.42399 0.57921 0.75845 0.0
Cd254 Cd 0.45769 0.56196 0.78307 0.0
O255 O 0.46846 0.57053 0.75804 0.0
O256 O 0.40619 0.59192 0.74488 0.0
O257 O 0.41919 0.60544 0.7725 0.0
C258 C 0.40853 0.60627 0.75867 0.0
C259 C 0.47445 0.56241 0.81354 0.0
C260 C 0.46214 0.57543 0.7434 0.0
C261 C 0.41737 0.53685 0.76929 0.0
O262 O 0.43357 0.54017 0.77609 0.0
O263 O 0.41138 0.55009 0.7634 0.0
O264 O 0.47509 0.55078 0.79833 0.0
O265 O 0.46519 0.57446 0.81159 0.0
O266 O 0.69614 0.05221 0.72063 0.0
Cd267 Cd 0.71143 0.05132 0.74369 0.0
Cd268 Cd 0.68484 0.05406 0.75864 0.0
O269 O 0.67339 0.03807 0.73369 0.0
O270 O 0.72707 0.0348 0.73708 0.0
O271 O 0.70339 0.02737 0.75256 0.0
C272 C 0.71635 0.02256 0.74467 0.0
C273 C 0.67407 0.04861 0.78568 0.0
C274 C 0.68016 0.04247 0.71929 0.0
C275 C 0.71391 0.08754 0.76507 0.0
O276 O 0.69738 0.08215 0.76041 0.0
O277 O 0.72306 0.07549 0.76245 0.0
O278 O 0.66582 0.05575 0.77412 0.0
O279 O 0.68796 0.04317 0.78114 0.0
O280 O 0.81158 0.70518 0.04342 0.0
Cd281 Cd 0.81102 0.68613 0.01898 0.0
Cd282 Cd 0.79844 0.71455 0.00648 0.0
O283 O 0.80596 0.73017 0.0336 0.0
O284 O 0.82277 0.66797 0.02874 0.0
O285 O 0.83393 0.68451 0.00787 0.0
C286 C 0.83535 0.67256 0.01857 0.0
C287 C 0.80538 0.72744 0.97977 0.0
C288 C 0.80973 0.72218 0.04687 0.0
C289 C 0.77297 0.67504 1.0038 0.0
O290 O 0.77517 0.69273 1.00316 0.0
O291 O 0.78614 0.66878 0.0081 0.0
O292 O 0.79331 0.73177 0.98958 0.0
O293 O 0.81424 0.71644 0.98559 0.0
O294 O 0.91908 0.55871 0.78152 0.0
Cd295 Cd 0.91165 0.56328 0.80799 0.0
Cd296 Cd 0.94155 0.56018 0.81566 0.0
O297 O 0.94699 0.57093 0.79229 0.0
O298 O 0.91401 0.59032 0.82059 0.0
O299 O 0.88957 0.57068 0.80426 0.0
C300 C 0.89781 0.58746 0.81365 0.0
C301 C 0.95652 0.57457 0.84402 0.0
C302 C 0.93496 0.56566 0.77872 0.0
C303 C 0.91279 0.52769 0.81805 0.0
O304 O 0.92819 0.53171 0.81282 0.0
O305 O 0.90457 0.5406 0.8208 0.0
O306 O 0.9637 0.565 0.83163 0.0
O307 O 0.94091 0.57661 0.83991 0.0
O308 O 0.81872 0.43875 0.54612 0.0
Cd309 Cd 0.81636 0.4483 0.52154 0.0
Cd310 Cd 0.81971 0.41674 0.51198 0.0
O311 O 0.8059 0.40879 0.53316 0.0
O312 O 0.80826 0.47119 0.52908 0.0
O313 O 0.79247 0.4452 0.50896 0.0
C314 C 0.79378 0.46213 0.51863 0.0
C315 C 0.81699 0.40094 0.48221 0.0
C316 C 0.81131 0.42169 0.54768 0.0
C317 C 0.85023 0.44897 0.51442 0.0
O318 O 0.84522 0.43302 0.51959 0.0
O319 O 0.8388 0.45726 0.5097 0.0
O320 O 0.8233 0.39441 0.49567 0.0
O321 O 0.81006 0.4153 0.48597 0.0
O322 O 0.67197 0.50684 0.2365 0.0
Cd323 Cd 0.69338 0.50719 0.25707 0.0
Cd324 Cd 0.66435 0.52789 0.2817 0.0
O325 O 0.65273 0.51982 0.25243 0.0
O326 O 0.7114 0.49126 0.24649 0.0
O327 O 0.69591 0.48289 0.26857 0.0
C328 C 0.70762 0.47938 0.25773 0.0
C329 C 0.64882 0.52674 0.3108 0.0
C330 C 0.65782 0.51301 0.23674 0.0
C331 C 0.70284 0.55209 0.2767 0.0
O332 O 0.68793 0.55029 0.28355 0.0
O333 O 0.70701 0.53741 0.26736 0.0
O334 O 0.64716 0.53823 0.29966 0.0
O335 O 0.65852 0.5153 0.30534 0.0
Eu336 Eu 0.03656 0.04064 0.01489 0.0
C337 C 0.09298 0.10812 0.05987 0.0
C338 C 0.09687 0.13071 0.03882 0.0
C339 C 0.10381 0.1425 0.07218 0.0
C340 C 0.09172 0.11169 0.04191 0.0
C341 C 0.09956 0.12351 0.07513 0.0
C342 C 0.10244 0.14609 0.05407 0.0
C343 C 0.0998 0.10023 0.09478 0.0
N344 N 0.08936 0.0896 0.06227 0.0
C345 C 0.09355 0.08546 0.07921 0.0
C346 C 0.10257 0.11934 0.09278 0.0
Eu347 Eu 0.08022 0.06559 0.03497 0.0
N348 N 0.08696 0.09652 0.02737 0.0
C349 C 0.08833 0.09931 0.0095 0.0
C350 C 0.09713 0.13368 0.02048 0.0
C351 C 0.09309 0.11788 0.00577 0.0
H352 H 0.09183 0.0707 0.08072 0.0
H353 H 0.09367 0.11999 0.99154 0.0
H354 H 0.10637 0.16079 0.05196 0.0
H355 H 0.1027 0.09687 0.10824 0.0
H356 H 0.0853 0.08728 0.99797 0.0
H357 H 0.01767 0.99081 0.06345 0.0
H358 H 0.10099 0.14806 0.01755 0.0
H359 H 0.02798 0.02977 0.96763 0.0
H360 H 0.02776 0.02173 0.05504 0.0
H361 H 0.01985 1.00142 0.94248 0.0
H362 H 0.10879 0.1545 0.08374 0.0
H363 H 0.01106 0.96115 0.0396 0.0
H364 H 0.00914 0.9455 0.00645 0.0
H365 H 0.10768 0.13077 0.10482 0.0
H366 H 0.0102 0.9483 0.97368 0.0
N367 N 0.02745 0.01091 0.02578 0.0
C368 C 0.02493 0.00948 0.04392 0.0
C369 C 0.01571 0.97495 0.03557 0.0
C370 C 0.01769 0.97623 0.01702 0.0
C371 C 0.01926 0.99164 0.04903 0.0
C372 C 0.02353 0.99461 0.01237 0.0
H373 H 0.01402 0.96891 0.94981 0.0
N374 N 0.0289 0.01389 0.98941 0.0
C375 C 0.02139 0.99968 0.9568 0.0
C376 C 0.02437 0.99614 0.9938 0.0
C377 C 0.02629 0.01576 0.97121 0.0
C378 C 0.0181 0.9814 0.96101 0.0
C379 C 0.01909 0.97941 0.97963 0.0
O380 O 0.01972 0.04941 0.99519 0.0
O381 O 0.05773 0.06816 0.0164 0.0
O382 O 0.06216 0.07069 0.05886 0.0
O383 O 0.0347 0.05023 0.04625 0.0
O384 O 0.03395 0.07077 0.02541 0.0
O385 O 0.0083 0.03502 0.01727 0.0
O386 O 0.09967 0.04885 0.03679 0.0
O387 O 0.06184 0.03584 0.0266 0.0
O388 O 0.054 0.04128 0.9902 0.0
O389 O 0.08277 0.05512 1.00386 0.0
O390 O 0.07465 0.04396 0.05369 0.0
O391 O 0.10813 0.07812 0.03296 0.0
C392 C 0.04898 0.08024 0.02165 0.0
C393 C 0.9883 0.0383 0.9931 0.0
C394 C 0.96017 0.04608 0.99 0.0
C395 C 0.9774 0.05014 0.99857 0.0
C396 C 0.95405 0.03024 0.97522 0.0
C397 C 0.98221 0.02226 0.97864 0.0
C398 C 0.96509 0.01837 0.96958 0.0
C399 C 0.04531 0.06205 0.06062 0.0
C400 C 0.0057 0.04346 1.00344 0.0
C401 C 0.01412 0.96122 0.98438 0.0
C402 C 0.01346 0.95964 1.00302 0.0
C403 C 0.0644 0.02988 0.04168 0.0
C404 C 0.12878 0.06614 0.04866 0.0
C405 C 0.139 0.05312 0.04514 0.0
C406 C 0.15539 0.05628 0.05546 0.0
C407 C 0.16099 0.07208 0.07036 0.0
C408 C 0.13452 0.08214 0.0633 0.0
C409 C 0.15047 0.08487 0.07432 0.0
C410 C 0.07133 0.04661 0.98889 0.0
C411 C 0.11298 0.06306 0.03576 0.0
H412 H 0.98238 0.06261 0.00972 0.0
H413 H 0.9407 0.02681 0.96837 0.0
H414 H 0.99051 0.0128 0.97446 0.0
H415 H 0.96029 1.00603 0.95836 0.0
H416 H 0.1344 0.04079 0.03379 0.0
H417 H 0.17371 0.07494 0.07846 0.0
H418 H 0.12695 0.09265 0.06599 0.0
H419 H 0.15495 0.09724 0.08557 0.0
Eu420 Eu 0.30811 0.79435 0.24591 0.0
C421 C 0.2967 0.86058 0.31033 0.0
C422 C 0.32597 0.8756 0.32646 0.0
C423 C 0.30295 0.89244 0.32996 0.0
C424 C 0.31387 0.85974 0.31469 0.0
C425 C 0.29107 0.87696 0.3179 0.0
C426 C 0.32037 0.89177 0.33422 0.0
C427 C 0.26216 0.86154 0.30137 0.0
N428 N 0.28555 0.84558 0.2984 0.0
C429 C 0.26831 0.84569 0.29428 0.0
C430 C 0.27361 0.87731 0.31321 0.0
Eu431 Eu 0.29526 0.81733 0.2899 0.0
N432 N 0.31901 0.84403 0.30658 0.0
C433 C 0.33672 0.84465 0.30833 0.0
C434 C 0.34353 0.87506 0.32975 0.0
C435 C 0.34897 0.85964 0.32038 0.0
H436 H 0.25896 0.83329 0.28587 0.0
H437 H 0.36278 0.8596 0.32192 0.0
H438 H 0.32949 0.90398 0.34331 0.0
H439 H 0.2485 0.86144 0.29794 0.0
H440 H 0.34203 0.83414 0.30016 0.0
H441 H 0.25231 0.73211 0.21784 0.0
H442 H 0.35318 0.8869 0.33872 0.0
H443 H 0.3517 0.7983 0.24611 0.0
H444 H 0.26652 0.76539 0.2328 0.0
H445 H 0.37167 0.77755 0.23801 0.0
H446 H 0.29883 0.90507 0.33593 0.0
H447 H 0.27032 0.70904 0.21023 0.0
H448 H 0.30021 0.70266 0.20991 0.0
H449 H 0.26879 0.88957 0.3188 0.0
H450 H 0.33258 0.71486 0.21584 0.0
N451 N 0.29275 0.76171 0.2343 0.0
C452 C 0.27478 0.75575 0.22973 0.0
C453 C 0.27675 0.72375 0.21697 0.0
C454 C 0.29514 0.72998 0.22119 0.0
C455 C 0.26654 0.73673 0.22118 0.0
C456 C 0.30291 0.74933 0.22988 0.0
H457 H 0.35929 0.74266 0.22632 0.0
N458 N 0.32829 0.77516 0.24059 0.0
C459 C 0.35751 0.77133 0.23678 0.0
C460 C 0.32117 0.7562 0.23329 0.0
C461 C 0.34615 0.78301 0.24149 0.0
C462 C 0.35047 0.75164 0.23022 0.0
C463 C 0.3321 0.7439 0.228 0.0
O464 O 0.31741 0.81462 0.22769 0.0
O465 O 0.30775 0.82179 0.26434 0.0
O466 O 0.28029 0.82396 0.26475 0.0
O467 O 0.2802 0.79799 0.24169 0.0
O468 O 0.33191 0.8194 0.25497 0.0
O469 O 0.30126 0.78629 0.21573 0.0
O470 O 0.26733 0.80483 0.2922 0.0
O471 O 0.29019 0.7912 0.2678 0.0
O472 O 0.32645 0.78982 0.26977 0.0
O473 O 0.31977 0.80697 0.29773 0.0
O474 O 0.29419 0.78795 0.29566 0.0
O475 O 0.28581 0.81699 0.31726 0.0
C476 C 0.3237 0.83059 0.2643 0.0
C477 C 0.32224 0.80165 0.19774 0.0
C478 C 0.3339 0.81546 0.17188 0.0
C479 C 0.32356 0.81553 0.18677 0.0
C480 C 0.3438 0.80184 0.16865 0.0
C481 C 0.33196 0.78789 0.19441 0.0
C482 C 0.34286 0.78815 0.17998 0.0
C483 C 0.27372 0.81253 0.2484 0.0
C484 C 0.31066 0.80242 0.21253 0.0
C485 C 0.32439 0.7245 0.21995 0.0
C486 C 0.30596 0.71756 0.21653 0.0
C487 C 0.29039 0.77948 0.27842 0.0
C488 C 0.2598 0.79251 0.31922 0.0
C489 C 0.26848 0.78316 0.33054 0.0
C490 C 0.25851 0.76962 0.33981 0.0
C491 C 0.23996 0.76523 0.33757 0.0
C492 C 0.24122 0.78785 0.31698 0.0
C493 C 0.23137 0.77423 0.32607 0.0
C494 C 0.32954 0.79676 0.28816 0.0
C495 C 0.26954 0.80789 0.31035 0.0
H496 H 0.31625 0.82633 0.18973 0.0
H497 H 0.35182 0.80146 0.15714 0.0
H498 H 0.33107 0.77698 0.20281 0.0
H499 H 0.35035 0.77754 0.17737 0.0
H500 H 0.28282 0.78669 0.33254 0.0
H501 H 0.23217 0.7549 0.34479 0.0
H502 H 0.23432 0.79498 0.30837 0.0
H503 H 0.21705 0.77083 0.32439 0.0
Eu504 Eu 0.58501 0.05134 0.52433 0.0
C505 C 0.51964 0.01231 0.56027 0.0
C506 C 0.50684 0.98123 0.54011 0.0
C507 C 0.50418 0.98519 0.57329 0.0
C508 C 0.51647 1.00071 0.54268 0.0
C509 C 0.51316 1.00474 0.57569 0.0
C510 C 0.50106 0.97346 0.55555 0.0
C511 C 0.52361 0.03666 0.59451 0.0
N512 N 0.52842 0.03119 0.56218 0.0
C513 C 0.52987 0.04353 0.57888 0.0
C514 C 0.51545 0.01714 0.59298 0.0
Eu515 Eu 0.53839 0.04131 0.53461 0.0
N516 N 0.52196 0.00866 0.52795 0.0
C517 C 0.51723 0.99829 0.51019 0.0
C518 C 0.50287 0.97026 0.52202 0.0
C519 C 0.50787 0.97891 0.50698 0.0
H520 H 0.53608 0.05867 0.58038 0.0
H521 H 0.50454 0.97068 0.49289 0.0
H522 H 0.49378 0.9585 0.55385 0.0
H523 H 0.5251 0.04643 0.60775 0.0
H524 H 0.52083 1.00475 0.49837 0.0
H525 H 0.62121 0.11347 0.57831 0.0
H526 H 0.49557 0.95525 0.51949 0.0
H527 H 0.58845 0.04356 0.47802 0.0
H528 H 0.60407 0.0805 0.5669 0.0
H529 H 0.60137 0.06197 0.4547 0.0
H530 H 0.49924 0.9791 0.58501 0.0
H531 H 0.63177 0.13462 0.5563 0.0
H532 H 0.63475 0.13868 0.52354 0.0
H533 H 0.51061 0.01187 0.60513 0.0
H534 H 0.62954 0.12476 0.49012 0.0
N535 N 0.60311 0.08255 0.53801 0.0
C536 C 0.60783 0.0893 0.55675 0.0
C537 C 0.62382 0.12005 0.551 0.0
C538 C 0.62 0.11282 0.53187 0.0
C539 C 0.61789 0.10817 0.56347 0.0
C540 C 0.60948 0.09375 0.52561 0.0
H541 H 0.61739 0.0963 0.46447 0.0
N542 N 0.59647 0.06751 0.50066 0.0
C543 C 0.60266 0.06896 0.46917 0.0
C544 C 0.6062 0.08602 0.50655 0.0
C545 C 0.5954 0.0586 0.4824 0.0
C546 C 0.61168 0.08832 0.47476 0.0
C547 C 0.6138 0.09701 0.49362 0.0
O548 O 0.59689 0.03112 0.50771 0.0
O549 O 0.55844 0.02891 0.52002 0.0
O550 O 0.55466 0.03354 0.55716 0.0
O551 O 0.58207 0.05375 0.55472 0.0
O552 O 0.58021 0.02047 0.5285 0.0
O553 O 0.61107 0.0487 0.53412 0.0
O554 O 0.52619 0.06489 0.532 0.0
O555 O 0.56283 0.06417 0.53242 0.0
O556 O 0.56792 0.05695 0.50099 0.0
O557 O 0.54175 0.03538 0.50388 0.0
O558 O 0.54875 0.07009 0.55457 0.0
O559 O 0.5106 0.03584 0.52358 0.0
C560 C 0.56348 0.01481 0.52401 0.0
C561 C 0.62778 0.03388 0.51261 0.0
C562 C 0.65198 0.01826 0.51065 0.0
C563 C 0.63692 0.02139 0.51885 0.0
C564 C 0.65792 0.02797 0.49636 0.0
C565 C 0.63414 0.04373 0.49861 0.0
C566 C 0.64914 0.04075 0.49052 0.0
C567 C 0.57161 0.04138 0.56288 0.0
C568 C 0.61092 0.03505 0.51985 0.0
C569 C 0.62376 0.1161 0.49988 0.0
C570 C 0.62676 0.12401 0.51892 0.0
C571 C 0.56229 0.07694 0.54631 0.0
C572 C 0.49628 0.05876 0.53735 0.0
C573 C 0.48744 0.07196 0.53218 0.0
C574 C 0.47448 0.07736 0.54287 0.0
C575 C 0.47057 0.06941 0.55876 0.0
C576 C 0.49193 0.05085 0.55312 0.0
C577 C 0.47923 0.05624 0.56379 0.0
C578 C 0.55153 0.04726 0.49465 0.0
C579 C 0.51042 0.05379 0.52673 0.0
H580 H 0.63203 0.0137 0.52966 0.0
H581 H 0.66953 0.02586 0.48987 0.0
H582 H 0.62744 0.05352 0.49378 0.0
H583 H 0.65392 0.04825 0.47959 0.0
H584 H 0.49076 0.07811 0.52001 0.0
H585 H 0.46049 0.07303 0.56709 0.0
H586 H 0.49826 0.04042 0.55716 0.0
H587 H 0.47599 0.05007 0.57594 0.0
Eu588 Eu 0.28721 0.29818 0.76407 0.0
C589 C 0.34664 0.2704 0.80059 0.0
C590 C 0.35861 0.29639 0.82698 0.0
C591 C 0.35917 0.26376 0.82911 0.0
C592 C 0.35009 0.28964 0.80866 0.0
C593 C 0.35175 0.25736 0.81047 0.0
C594 C 0.36255 0.28325 0.83737 0.0
C595 C 0.34403 0.23334 0.78207 0.0
N596 N 0.33969 0.26475 0.78252 0.0
C597 C 0.33917 0.24681 0.77288 0.0
C598 C 0.35 0.23852 0.80106 0.0
Eu599 Eu 0.33094 0.28799 0.76807 0.0
N600 N 0.3464 0.30197 0.79811 0.0
C601 C 0.35241 0.3214 0.80445 0.0
C602 C 0.36362 0.3162 0.834 0.0
C603 C 0.36085 0.32877 0.82253 0.0
H604 H 0.33443 0.24278 0.75821 0.0
H605 H 0.36511 0.34416 0.82763 0.0
H606 H 0.36884 0.28813 0.85155 0.0
H607 H 0.34311 0.21898 0.77453 0.0
H608 H 0.3503 0.3314 0.79593 0.0
H609 H 0.25421 0.24174 0.70411 0.0
H610 H 0.37019 0.32196 0.84798 0.0
H611 H 0.28214 0.34271 0.7735 0.0
H612 H 0.2683 0.25469 0.73598 0.0
H613 H 0.27415 0.36654 0.75674 0.0
H614 H 0.36294 0.25391 0.83703 0.0
H615 H 0.24972 0.26377 0.68331 0.0
H616 H 0.25107 0.29754 0.67946 0.0
H617 H 0.35381 0.22808 0.80815 0.0
H618 H 0.25648 0.33175 0.69386 0.0
N619 N 0.27227 0.28409 0.73368 0.0
C620 C 0.26638 0.26464 0.72737 0.0
C621 C 0.25594 0.26961 0.69742 0.0
C622 C 0.26079 0.28944 0.70437 0.0
C623 C 0.25836 0.25715 0.70914 0.0
C624 C 0.26885 0.29628 0.72285 0.0
H625 H 0.2647 0.35756 0.72284 0.0
N626 N 0.2781 0.32097 0.74915 0.0
C627 C 0.27358 0.35225 0.74925 0.0
C628 C 0.2719 0.31542 0.73088 0.0
C629 C 0.27805 0.33876 0.75868 0.0
C630 C 0.26833 0.34715 0.73011 0.0
C631 C 0.26699 0.32838 0.72076 0.0
O632 O 0.27189 0.30866 0.78576 0.0
O633 O 0.30924 0.29569 0.78352 0.0
O634 O 0.31144 0.26181 0.77566 0.0
O635 O 0.28411 0.26615 0.76568 0.0
O636 O 0.29962 0.31982 0.78999 0.0
O637 O 0.26152 0.28048 0.76915 0.0
O638 O 0.34518 0.27756 0.74538 0.0
O639 O 0.30907 0.29071 0.74843 0.0
O640 O 0.30695 0.32574 0.75941 0.0
O641 O 0.33457 0.32006 0.76595 0.0
O642 O 0.31798 0.266 0.7426 0.0
O643 O 0.35772 0.30406 0.76425 0.0
C644 C 0.31051 0.31079 0.79554 0.0
C645 C 0.24071 0.29672 0.78152 0.0
C646 C 0.21196 0.29494 0.79394 0.0
C647 C 0.22912 0.29183 0.7951 0.0
C648 C 0.20692 0.30341 0.77939 0.0
C649 C 0.23512 0.305 0.76715 0.0
C650 C 0.21841 0.30844 0.76621 0.0
C651 C 0.29394 0.25534 0.77147 0.0
C652 C 0.25864 0.29342 0.78231 0.0
C653 C 0.26012 0.32195 0.70196 0.0
C654 C 0.25704 0.30249 0.69376 0.0
C655 C 0.3076 0.27537 0.73658 0.0
C656 C 0.37642 0.28608 0.74971 0.0
C657 C 0.38773 0.29039 0.73584 0.0
C658 C 0.40323 0.28381 0.73477 0.0
C659 C 0.4072 0.27301 0.74777 0.0
C660 C 0.38102 0.2757 0.76274 0.0
C661 C 0.39625 0.26913 0.76169 0.0
C662 C 0.32458 0.33158 0.76214 0.0
C663 C 0.35948 0.29157 0.74998 0.0
H664 H 0.23327 0.28534 0.80623 0.0
H665 H 0.19399 0.30619 0.77823 0.0
H666 H 0.24369 0.30879 0.75662 0.0
H667 H 0.21429 0.31494 0.75511 0.0
H668 H 0.38434 0.29851 0.72576 0.0
H669 H 0.41905 0.26788 0.74739 0.0
H670 H 0.37283 0.27258 0.7737 0.0
H671 H 0.39961 0.261 0.77174 0.0
Eu672 Eu 0.06027 0.07226 0.53411 0.0
C673 C 0.07578 0.01115 0.47349 0.0
C674 C 0.04892 1.00232 0.45223 0.0
C675 C 0.07659 0.99913 0.44056 0.0
C676 C 0.05787 0.00954 0.47034 0.0
C677 C 0.08524 1.00538 0.45874 0.0
C678 C 0.05847 0.99764 0.43731 0.0
C679 C 0.1105 0.01024 0.48132 0.0
N680 N 0.0837 0.01699 0.49121 0.0
C681 C 0.10053 0.01572 0.49545 0.0
C682 C 0.10291 1.00536 0.46283 0.0
Eu683 Eu 0.06642 0.02672 0.51447 0.0
N684 N 0.04898 0.01382 0.48513 0.0
C685 C 0.03087 0.0097 0.4829 0.0
C686 C 0.03054 0.99933 0.44976 0.0
C687 C 0.02145 1.00273 0.46522 0.0
H688 H 0.10642 0.01952 0.50977 0.0
H689 H 0.00718 1.00007 0.46354 0.0
H690 H 0.05184 0.99226 0.4233 0.0
H691 H 0.124 0.00979 0.48469 0.0
H692 H 0.02345 0.01233 0.4945 0.0
H693 H 0.11705 0.09713 0.58787 0.0
H694 H 0.0232 0.99387 0.43609 0.0
H695 H 0.02009 0.07988 0.53625 0.0
H696 H 0.10203 0.08483 0.55626 0.0
H697 H 1.00146 0.09012 0.56001 0.0
H698 H 0.08368 0.99484 0.42902 0.0
H699 H 0.09991 0.10461 0.61408 0.0
H700 H 0.07084 0.10753 0.62501 0.0
H701 H 0.11062 1.00101 0.45189 0.0
H702 H 0.03936 0.10561 0.61746 0.0
N703 N 0.07617 0.08427 0.56421 0.0
C704 C 0.09418 0.08781 0.56741 0.0
C705 C 0.09313 0.099 0.60016 0.0
C706 C 0.07488 0.09655 0.59666 0.0
C707 C 0.10285 0.09485 0.58541 0.0
C708 C 0.06668 0.08915 0.57827 0.0
H709 H 0.01343 0.09932 0.59327 0.0
N710 N 0.04182 0.08209 0.55605 0.0
C711 C 0.01474 0.08944 0.56418 0.0
C712 C 0.04896 0.08802 0.57406 0.0
C713 C 0.02526 0.0836 0.55079 0.0
C714 C 0.02153 0.09458 0.58294 0.0
C715 C 0.03896 0.09432 0.58805 0.0
O716 O 0.05123 0.09171 0.51884 0.0
O717 O 0.0591 0.05229 0.50657 0.0
O718 O 0.08877 0.04783 0.50493 0.0
O719 O 0.08813 0.0757 0.5253 0.0
O720 O 0.0373 0.06288 0.51116 0.0
O721 O 0.07641 0.10173 0.53592 0.0
O722 O 0.07804 1.00732 0.52722 0.0
O723 O 0.06771 0.04645 0.54236 0.0
O724 O 0.0366 0.05163 0.54207 0.0
O725 O 0.03886 0.02293 0.52422 0.0
O726 O 0.08971 0.03658 0.53685 0.0
O727 O 0.05046 0.99796 0.51547 0.0
C728 C 0.04423 0.05295 0.49883 0.0
C729 C 0.06176 0.12492 0.52922 0.0
C730 C 0.06192 0.15493 0.51919 0.0
C731 C 0.06615 0.13719 0.51664 0.0
C732 C 0.05331 0.16032 0.53473 0.0
C733 C 0.05325 0.1304 0.54472 0.0
C734 C 0.04904 0.1481 0.54743 0.0
C735 C 0.09583 0.06602 0.51289 0.0
C736 C 0.06506 0.10598 0.52477 0.0
C737 C 0.04686 0.10084 0.60651 0.0
C738 C 0.06478 0.10194 0.6108 0.0
C739 C 0.08272 0.04561 0.54981 0.0
C740 C 0.06546 0.97419 0.51853 0.0
C741 C 0.0604 0.96179 0.53074 0.0
C742 C 0.0626 0.94319 0.52711 0.0
C743 C 0.07038 0.9372 0.51114 0.0
C744 C 0.073 0.96821 0.50245 0.0
C745 C 0.07552 0.9497 0.49884 0.0
C746 C 0.03024 0.03312 0.53502 0.0
C747 C 0.06353 0.99353 0.52394 0.0
H748 H 0.07289 0.13284 0.50479 0.0
H749 H 0.04969 0.17384 0.53695 0.0
H750 H 0.04974 0.12102 0.55454 0.0
H751 H 0.04234 0.15228 0.55931 0.0
H752 H 0.05493 0.96681 0.54334 0.0
H753 H 0.07219 0.92282 0.50801 0.0
H754 H 0.07702 0.97777 0.49289 0.0
H755 H 0.08142 0.94503 0.4865 0.0
Eu756 Eu 0.32747 0.80942 0.75048 0.0
C757 C 0.28311 0.74921 0.78756 0.0
C758 C 0.29035 0.72006 0.77293 0.0
C759 C 0.28209 0.72315 0.80446 0.0
C760 C 0.28872 0.73878 0.77243 0.0
C761 C 0.27924 0.74116 0.80349 0.0
C762 C 0.28764 0.71263 0.78922 0.0
C763 C 0.26772 0.76806 0.81545 0.0
N764 N 0.27992 0.76637 0.78609 0.0
C765 C 0.27155 0.77535 0.79937 0.0
C766 C 0.27182 0.75103 0.81765 0.0
Eu767 Eu 0.28774 0.77774 0.75848 0.0
N768 N 0.2908 0.74603 0.75659 0.0
C769 C 0.2923 0.73442 0.74032 0.0
C770 C 0.29365 0.70887 0.75671 0.0
C771 C 0.29422 0.71593 0.74024 0.0
H772 H 0.26858 0.78869 0.79796 0.0
H773 H 0.29601 0.70709 0.72742 0.0
H774 H 0.28905 0.69838 0.78989 0.0
H775 H 0.26161 0.77558 0.82612 0.0
H776 H 0.29224 0.73922 0.7273 0.0
H777 H 0.32144 0.87971 0.78561 0.0
H778 H 0.29488 0.69443 0.75656 0.0
H779 H 0.34044 0.79664 0.70868 0.0
H780 H 0.32062 0.84572 0.78273 0.0
H781 H 0.34934 0.81114 0.68151 0.0
H782 H 0.27935 0.71687 0.81666 0.0
H783 H 0.32871 0.89614 0.75924 0.0
H784 H 0.33756 0.89466 0.72687 0.0
H785 H 0.26866 0.74529 0.83006 0.0
H786 H 0.34516 0.87612 0.69866 0.0
N787 N 0.32706 0.84221 0.75465 0.0
C788 C 0.32388 0.85242 0.77099 0.0
C789 C 0.32836 0.88105 0.75782 0.0
C790 C 0.33218 0.87076 0.74134 0.0
C791 C 0.32429 0.87185 0.77273 0.0
C792 C 0.33144 0.8511 0.74015 0.0
H793 H 0.34961 0.84506 0.68166 0.0
N794 N 0.3352 0.82192 0.72366 0.0
C795 C 0.34546 0.81958 0.6934 0.0
C796 C 0.33562 0.84065 0.72421 0.0
C797 C 0.34041 0.81142 0.70876 0.0
C798 C 0.34557 0.83872 0.69353 0.0
C799 C 0.34077 0.84956 0.7091 0.0
O800 O 0.35428 0.80731 0.74684 0.0
O801 O 0.31721 0.78004 0.75845 0.0
O802 O 0.30098 0.79204 0.78709 0.0
O803 O 0.32517 0.81499 0.78106 0.0
O804 O 0.33352 0.78116 0.73752 0.0
O805 O 0.34923 0.82552 0.77166 0.0
O806 O 0.26585 0.78054 0.73997 0.0
O807 O 0.2981 0.80742 0.75188 0.0
O808 O 0.30886 0.8019 0.72424 0.0
O809 O 0.29524 0.77188 0.72927 0.0
O810 O 0.28021 0.80505 0.77138 0.0
O811 O 0.26244 0.75602 0.75312 0.0
C812 C 0.32558 0.77003 0.74798 0.0
C813 C 0.37838 0.83213 0.76298 0.0
C814 C 0.40916 0.84219 0.7762 0.0
C815 C 0.39174 0.83128 0.77602 0.0
C816 C 0.41296 0.85454 0.7634 0.0
C817 C 0.38221 0.84436 0.75019 0.0
C818 C 0.3995 0.85565 0.75052 0.0
C819 C 0.31499 0.80665 0.7924 0.0
C820 C 0.36098 0.819 0.76256 0.0
C821 C 0.34126 0.86904 0.71013 0.0
C822 C 0.33695 0.8796 0.7262 0.0
C823 C 0.28934 0.8171 0.76228 0.0
C824 C 0.23741 0.76699 0.74765 0.0
C825 C 0.22294 0.76024 0.73397 0.0
C826 C 0.20601 0.76119 0.73847 0.0
C827 C 0.20366 0.76866 0.75688 0.0
C828 C 0.23498 0.77494 0.7658 0.0
C829 C 0.21814 0.77555 0.77046 0.0
C830 C 0.29956 0.7841 0.71806 0.0
C831 C 0.25484 0.76518 0.74293 0.0
H832 H 0.38855 0.82179 0.78588 0.0
H833 H 0.42637 0.86295 0.76303 0.0
H834 H 0.37199 0.84499 0.73989 0.0
H835 H 0.40255 0.865 0.74057 0.0
H836 H 0.22486 0.75435 0.71984 0.0
H837 H 0.19076 0.76984 0.76061 0.0
H838 H 0.24605 0.7807 0.7763 0.0
H839 H 0.21635 0.78164 0.78453 0.0
Eu840 Eu 0.56594 0.04435 0.05645 0.0
C841 C 0.5158 0.06033 0.99339 0.0
C842 C 0.49578 0.0301 0.97739 0.0
C843 C 0.48765 0.05999 0.97713 0.0
C844 C 0.5117 0.04039 0.98856 0.0
C845 C 0.5038 0.0703 0.9876 0.0
C846 C 0.48371 0.03996 0.97193 0.0
C847 C 0.52525 0.10018 1.00124 0.0
N848 N 0.53181 0.07004 1.00296 0.0
C849 C 0.53689 0.08977 0.00631 0.0
C850 C 0.50859 0.09041 0.99194 0.0
Eu851 Eu 0.55101 0.05076 0.00933 0.0
N852 N 0.52359 0.0311 0.99394 0.0
C853 C 0.52055 0.01165 0.98825 0.0
C854 C 0.4927 0.01024 0.97147 0.0
C855 C 0.5051 1.00097 0.97698 0.0
H856 H 0.54985 0.09755 0.01322 0.0
H857 H 0.50287 0.98561 0.97237 0.0
H858 H 0.47139 0.03225 0.96343 0.0
H859 H 0.52922 0.11574 0.00432 0.0
H860 H 0.53008 1.00422 0.99205 0.0
H861 H 0.60672 0.11744 0.08827 0.0
H862 H 0.48098 1.00202 0.96229 0.0
H863 H 0.57583 1.00184 0.05627 0.0
H864 H 0.5808 0.09398 0.07127 0.0
H865 H 0.60082 0.98979 0.06595 0.0
H866 H 0.4783 0.06743 0.97257 0.0
H867 H 0.63273 0.10719 0.09875 0.0
H868 H 0.64719 0.08082 0.10062 0.0
H869 H 0.4997 0.09853 0.98778 0.0
H870 H 0.64588 0.04644 0.09401 0.0
N871 N 0.5907 0.06947 0.07261 0.0
C872 C 0.59132 0.08865 0.07629 0.0
C873 C 0.62105 0.0965 0.09153 0.0
C874 C 0.62058 0.07701 0.08778 0.0
C875 C 0.60638 0.10233 0.08572 0.0
C876 C 0.60508 0.0636 0.07815 0.0
H877 H 0.62887 0.01262 0.08104 0.0
N878 N 0.5898 0.03145 0.06441 0.0
C879 C 0.6022 1.00512 0.06807 0.0
C880 C 0.60461 0.04418 0.07392 0.0
C881 C 0.5881 0.01207 0.06245 0.0
C882 C 0.61795 0.01804 0.0766 0.0
C883 C 0.61923 0.03777 0.07992 0.0
O884 O 0.5539 0.01824 0.06637 0.0
O885 O 0.54611 0.03293 0.03098 0.0
O886 O 0.53835 0.06743 0.03072 0.0
O887 O 0.55555 0.07094 0.05921 0.0
O888 O 0.53625 0.03685 0.05675 0.0
O889 O 0.56175 0.04667 0.08573 0.0
O890 O 0.57368 0.05901 0.99381 0.0
O891 O 0.57267 0.05698 0.03186 0.0
O892 O 0.57747 0.02659 0.03441 0.0
O893 O 0.55768 0.0223 0.00814 0.0
O894 O 0.57143 0.07953 0.0188 0.0
O895 O 0.54879 0.04176 0.97909 0.0
C896 C 0.53235 0.03077 0.03915 0.0
C897 C 0.54876 0.0187 0.09853 0.0
C898 C 0.53123 0.01742 0.12454 0.0
C899 C 0.53826 0.02675 0.11052 0.0
C900 C 0.53517 1.00016 0.12679 0.0
C901 C 0.5524 1.0013 0.10054 0.0
C902 C 0.54573 0.99215 0.11479 0.0
C903 C 0.54393 0.0758 0.04828 0.0
C904 C 0.55497 0.02799 0.08331 0.0
C905 C 0.63454 0.05112 0.08942 0.0
C906 C 0.63525 0.07068 0.09326 0.0
C907 C 0.5802 0.07415 0.03148 0.0
C908 C 0.56681 0.06363 0.96393 0.0
C909 C 0.5776 0.06018 0.95018 0.0
C910 C 0.58161 0.0726 0.93765 0.0
C911 C 0.57403 0.08819 0.93848 0.0
C912 C 0.55929 0.07925 0.96489 0.0
C913 C 0.56283 0.09144 0.95209 0.0
C914 C 0.57126 0.01864 0.01696 0.0
C915 C 0.56474 0.0514 0.97773 0.0
H916 H 0.53533 0.04012 0.10875 0.0
H917 H 0.5298 0.9927 0.13755 0.0
H918 H 0.56039 0.99485 0.09115 0.0
H919 H 0.54858 0.97874 0.1164 0.0
H920 H 0.58315 0.04789 0.94945 0.0
H921 H 0.57705 0.09801 0.92892 0.0
H922 H 0.55089 0.08208 0.97549 0.0
H923 H 0.55711 0.10356 0.95292 0.0
Eu924 Eu 0.31231 0.30692 0.26865 0.0
C925 C 0.24042 0.25504 0.23568 0.0
C926 C 0.22444 0.2513 0.26265 0.0
C927 C 0.20817 0.2481 0.23259 0.0
C928 C 0.24058 0.2546 0.25451 0.0
C929 C 0.2241 0.25126 0.22446 0.0
C930 C 0.20834 0.24822 0.25164 0.0
C931 C 0.24002 0.25132 0.19743 0.0
N932 N 0.25598 0.25786 0.22803 0.0
C933 C 0.25572 0.25477 0.209 0.0
C934 C 0.22413 0.24985 0.20522 0.0
Eu935 Eu 0.28197 0.26025 0.24803 0.0
N936 N 0.25632 0.25705 0.26481 0.0
C937 C 0.25658 0.25693 0.28351 0.0
C938 C 0.22483 0.25097 0.28163 0.0
C939 C 0.24097 0.25387 0.2921 0.0
H940 H 0.2676 0.25436 0.20251 0.0
H941 H 0.24147 0.25402 0.30691 0.0
H942 H 0.1959 0.24559 0.2577 0.0
H943 H 0.24016 0.24925 0.18246 0.0
H944 H 0.26866 0.26013 0.29242 0.0
H945 H 0.34972 0.31559 0.20751 0.0
H946 H 0.21275 0.24858 0.28836 0.0
H947 H 0.32854 0.31196 0.31328 0.0
H948 H 0.32356 0.30663 0.22295 0.0
H949 H 0.35709 0.32025 0.33224 0.0
H950 H 0.19559 0.24517 0.22417 0.0
H951 H 0.3793 0.32518 0.22521 0.0
H952 H 0.39772 0.33079 0.25547 0.0
H953 H 0.21189 0.2468 0.19619 0.0
H954 H 0.39977 0.33058 0.28889 0.0
N955 N 0.33706 0.31197 0.25042 0.0
C956 C 0.33587 0.31142 0.23157 0.0
C957 C 0.36762 0.32147 0.23239 0.0
C958 C 0.36903 0.32152 0.25145 0.0
C959 C 0.35098 0.31619 0.2224 0.0
C960 C 0.35338 0.31641 0.26019 0.0
H961 H 0.38486 0.32642 0.31743 0.0
N962 N 0.33949 0.31115 0.28724 0.0
C963 C 0.35665 0.31873 0.31726 0.0
C964 C 0.35461 0.31592 0.27902 0.0
C965 C 0.34041 0.31371 0.30628 0.0
C966 C 0.37224 0.32225 0.30886 0.0
C967 C 0.3714 0.32129 0.28963 0.0
O968 O 0.30823 0.32374 0.29479 0.0
O969 O 0.28527 0.28741 0.26849 0.0
O970 O 0.28431 0.28115 0.22746 0.0
O971 O 0.30158 0.31208 0.24139 0.0
O972 O 0.28672 0.31513 0.26435 0.0
O973 O 0.32324 0.33796 0.27476 0.0
O974 O 0.28488 0.2414 0.22274 0.0
O975 O 0.30894 0.27981 0.2486 0.0
O976 O 0.3119 0.28544 0.28841 0.0
O977 O 0.29172 0.25566 0.2761 0.0
O978 O 0.30768 0.2519 0.25159 0.0
O979 O 0.27098 0.22915 0.24437 0.0
C980 C 0.27624 0.29909 0.26619 0.0
C981 C 0.31058 0.35666 0.2969 0.0
C982 C 0.29497 0.37968 0.29023 0.0
C983 C 0.30029 0.36298 0.28436 0.0
C984 C 0.2996 0.3899 0.30863 0.0
C985 C 0.31511 0.36677 0.31535 0.0
C986 C 0.30957 0.38335 0.3212 0.0
C987 C 0.29131 0.29965 0.22726 0.0
C988 C 0.31725 0.33994 0.29107 0.0
C989 C 0.38684 0.32639 0.28094 0.0
C990 C 0.38565 0.32657 0.26193 0.0
C991 C 0.31804 0.26827 0.25076 0.0
C992 C 0.28308 0.20899 0.22275 0.0
C993 C 0.297 0.20609 0.23377 0.0
C994 C 0.30387 0.19025 0.22814 0.0
C995 C 0.29657 0.17734 0.21134 0.0
C996 C 0.276 0.19609 0.20601 0.0
C997 C 0.28271 0.1803 0.20036 0.0
C998 C 0.30346 0.26752 0.28946 0.0
C999 C 0.27622 0.2258 0.2278 0.0
H1000 H 0.29676 0.35523 0.27008 0.0
H1001 H 0.29545 0.40287 0.31323 0.0
H1002 H 0.32306 0.36192 0.32516 0.0
H1003 H 0.31313 0.39119 0.33541 0.0
H1004 H 0.30251 0.21613 0.24663 0.0
H1005 H 0.3013 0.16475 0.20686 0.0
H1006 H 0.26531 0.19829 0.19729 0.0
H1007 H 0.27713 0.1703 0.18748 0.0
Eu1008 Eu 0.56116 0.56514 0.03753 0.0
C1009 C 0.58308 0.50777 0.97763 0.0
C1010 C 0.55838 0.49901 0.95345 0.0
C1011 C 0.58758 0.4971 0.9454 0.0
C1012 C 0.56535 0.50579 0.97231 0.0
C1013 C 0.59426 0.5029 0.96429 0.0
C1014 C 0.56968 0.4952 0.93999 0.0
C1015 C 0.61725 0.50767 0.98948 0.0
N1016 N 0.58911 0.51318 0.99601 0.0
C1017 C 0.60568 0.51239 1.00219 0.0
C1018 C 0.61162 0.50325 0.97042 0.0
Eu1019 Eu 0.56875 0.52081 0.0166 0.0
N1020 N 0.55468 0.50915 0.9857 0.0
C1021 C 0.5367 0.50447 0.98131 0.0
C1022 C 0.54014 0.49552 0.94877 0.0
C1023 C 0.52922 0.49795 0.96282 0.0
H1024 H 0.61007 0.51579 0.01692 0.0
H1025 H 0.51504 0.49483 0.95943 0.0
H1026 H 0.56459 0.49015 0.92543 0.0
H1027 H 0.6305 0.5075 0.99439 0.0
H1028 H 0.52797 0.5062 0.99189 0.0
H1029 H 0.61936 0.59135 0.08982 0.0
H1030 H 0.53429 0.49036 0.93445 0.0
H1031 H 0.52024 0.56969 0.0415 0.0
H1032 H 0.60369 0.57881 0.05864 0.0
H1033 H 0.50212 0.57939 0.06602 0.0
H1034 H 0.59602 0.49349 0.93493 0.0
H1035 H 0.60283 0.59831 0.11667 0.0
H1036 H 0.57395 0.60035 0.12862 0.0
H1037 H 0.6206 0.49955 0.96061 0.0
H1038 H 0.54209 0.59725 0.12218 0.0
N1039 N 0.57794 0.57779 0.06727 0.0
C1040 C 0.59603 0.58168 0.06997 0.0
C1041 C 0.59574 0.59267 0.1029 0.0
C1042 C 0.5774 0.58978 0.09996 0.0
C1043 C 0.60511 0.58882 0.08778 0.0
C1044 C 0.56877 0.58228 0.08175 0.0
H1045 H 0.51528 0.58973 0.09888 0.0
N1046 N 0.54317 0.57401 0.0604 0.0
C1047 C 0.51578 0.57965 0.06966 0.0
C1048 C 0.55084 0.58038 0.07819 0.0
C1049 C 0.52606 0.5742 0.05583 0.0
C1050 C 0.52324 0.58542 0.08819 0.0
C1051 C 0.54104 0.58611 0.09263 0.0
O1052 O 0.54946 0.58529 0.02595 0.0
O1053 O 0.56038 0.54624 0.00946 0.0
O1054 O 0.59085 0.54282 0.00774 0.0
O1055 O 0.58904 0.56984 0.02862 0.0
O1056 O 0.53826 0.55597 0.01441 0.0
O1057 O 0.57744 0.59356 0.03589 0.0
O1058 O 0.57655 0.50105 0.03234 0.0
O1059 O 0.56923 0.53949 0.04495 0.0
O1060 O 0.539 0.54271 0.04587 0.0
O1061 O 0.54015 0.51671 0.02336 0.0
O1062 O 0.59157 0.53027 0.03967 0.0
O1063 O 0.55359 0.49061 0.01188 0.0
C1064 C 0.54548 0.54687 1.00173 0.0
C1065 C 0.56341 0.61832 0.03397 0.0
C1066 C 0.5669 0.64976 0.02608 0.0
C1067 C 0.56766 0.63065 0.02142 0.0
C1068 C 0.56173 0.65646 0.04347 0.0
C1069 C 0.5581 0.62494 0.05125 0.0
C1070 C 0.55725 0.64402 0.05595 0.0
C1071 C 0.59725 0.561 0.01608 0.0
C1072 C 0.56431 0.59857 0.02822 0.0
C1073 C 0.54943 0.59291 0.11088 0.0
C1074 C 0.56756 0.59469 0.11455 0.0
C1075 C 0.5843 0.53904 0.05258 0.0
C1076 C 0.56888 0.4683 0.0195 0.0
C1077 C 0.56336 0.45471 0.03053 0.0
C1078 C 0.56971 0.43825 0.02888 0.0
C1079 C 0.58145 0.43539 0.01552 0.0
C1080 C 0.58028 0.46519 0.00599 0.0
C1081 C 0.58654 0.44873 0.00403 0.0
C1082 C 0.53196 0.52512 0.03625 0.0
C1083 C 0.56392 0.48634 0.0241 0.0
H1084 H 0.57176 0.62541 0.00806 0.0
H1085 H 0.56096 0.67119 0.04728 0.0
H1086 H 0.55463 0.61542 0.061 0.0
H1087 H 0.55312 0.64919 0.06925 0.0
H1088 H 0.55417 0.45718 0.04057 0.0
H1089 H 0.58683 0.423 0.01405 0.0
H1090 H 0.58449 0.47546 0.99718 0.0
H1091 H 0.59554 0.44644 0.99377 0.0
Eu1092 Eu 0.82966 0.30749 0.2598 0.0
C1093 C 0.78175 0.24438 0.29151 0.0
C1094 C 0.78764 0.21594 0.27364 0.0
C1095 C 0.77931 0.21584 0.30501 0.0
C1096 C 0.7868 0.23522 0.27545 0.0
C1097 C 0.7773 0.23455 0.3062 0.0
C1098 C 0.78449 0.20655 0.28874 0.0
C1099 C 0.76667 0.26123 0.32083 0.0
N1100 N 0.7795 0.26223 0.29202 0.0
C1101 C 0.77109 0.27026 0.30581 0.0
C1102 C 0.77013 0.24346 0.32122 0.0
Eu1103 Eu 0.78828 0.27726 0.26677 0.0
N1104 N 0.78939 0.24457 0.26101 0.0
C1105 C 0.79125 0.23486 0.24385 0.0
C1106 C 0.7908 0.20639 0.25645 0.0
C1107 C 0.79228 0.21579 0.2414 0.0
H1108 H 0.76832 0.28396 0.30545 0.0
H1109 H 0.79426 0.20838 0.2279 0.0
H1110 H 0.78533 0.19185 0.2877 0.0
H1111 H 0.76056 0.26795 0.33205 0.0
H1112 H 0.7925 0.2418 0.23201 0.0
H1113 H 0.82663 0.37758 0.29876 0.0
H1114 H 0.79144 0.19157 0.25447 0.0
H1115 H 0.84817 0.29837 0.22076 0.0
H1116 H 0.82487 0.34332 0.29414 0.0
H1117 H 0.85907 0.31461 0.19521 0.0
H1118 H 0.77621 0.20816 0.31626 0.0
H1119 H 0.83331 0.39514 0.27308 0.0
H1120 H 0.84188 0.395 0.24072 0.0
H1121 H 0.76653 0.23639 0.33278 0.0
H1122 H 0.85072 0.37787 0.21246 0.0
N1123 N 0.83021 0.34068 0.26567 0.0
C1124 C 0.82784 0.35044 0.28261 0.0
C1125 C 0.83251 0.37991 0.27085 0.0
C1126 C 0.83586 0.37015 0.25386 0.0
C1127 C 0.82881 0.37008 0.28539 0.0
C1128 C 0.83474 0.35031 0.25171 0.0
H1129 H 0.85749 0.34803 0.19552 0.0
N1130 N 0.83983 0.32207 0.23482 0.0
C1131 C 0.85353 0.32208 0.20646 0.0
C1132 C 0.8397 0.3407 0.23579 0.0
C1133 C 0.84736 0.31293 0.22092 0.0
C1134 C 0.85255 0.3409 0.20665 0.0
C1135 C 0.84593 0.35061 0.22163 0.0
O1136 O 0.85576 0.30223 0.25802 0.0
O1137 O 0.81743 0.27803 0.26638 0.0
O1138 O 0.80326 0.28599 0.29527 0.0
O1139 O 0.82562 0.31139 0.29012 0.0
O1140 O 0.8333 0.27888 0.24497 0.0
O1141 O 0.8515 0.32263 0.28131 0.0
O1142 O 0.76134 0.27994 0.26887 0.0
O1143 O 0.80051 0.30659 0.26029 0.0
O1144 O 0.81356 0.30138 0.23195 0.0
O1145 O 0.79229 0.27458 0.23628 0.0
O1146 O 0.78328 0.30595 0.28018 0.0
O1147 O 0.76709 0.26143 0.24495 0.0
C1148 C 0.82483 0.26767 0.25508 0.0
C1149 C 0.88054 0.32696 0.27263 0.0
C1150 C 0.9117 0.33713 0.28476 0.0
C1151 C 0.89429 0.32644 0.28544 0.0
C1152 C 0.91509 0.34856 0.27113 0.0
C1153 C 0.88407 0.33852 0.25922 0.0
C1154 C 0.90131 0.34929 0.25851 0.0
C1155 C 0.81662 0.30123 0.30116 0.0
C1156 C 0.86287 0.3146 0.27317 0.0
C1157 C 0.84612 0.37006 0.22326 0.0
C1158 C 0.84109 0.37981 0.23936 0.0
C1159 C 0.79277 0.31726 0.27081 0.0
C1160 C 0.73818 0.25364 0.2536 0.0
C1161 C 0.72362 0.25457 0.24226 0.0
C1162 C 0.70683 0.24235 0.24261 0.0
C1163 C 0.70494 0.22857 0.25407 0.0
C1164 C 0.73625 0.23988 0.26498 0.0
C1165 C 0.71965 0.2273 0.26511 0.0
C1166 C 0.80022 0.28614 0.22565 0.0
C1167 C 0.75496 0.2677 0.25344 0.0
H1168 H 0.89139 0.3176 0.29588 0.0
H1169 H 0.92843 0.35664 0.26997 0.0
H1170 H 0.87363 0.33912 0.24924 0.0
H1171 H 0.90405 0.35804 0.24801 0.0
H1172 H 0.72541 0.26506 0.23327 0.0
H1173 H 0.6921 0.2191 0.25486 0.0
H1174 H 0.74743 0.23892 0.27376 0.0
H1175 H 0.71811 0.21676 0.274 0.0
Eu1176 Eu 0.06445 0.55045 0.55814 0.0
C1177 C 0.01571 0.56753 0.49324 0.0
C1178 C 0.99796 0.53618 0.47722 0.0
C1179 C 0.98754 0.56458 0.47562 0.0
C1180 C 0.01341 0.54788 0.48834 0.0
C1181 C 1.00292 0.57615 0.48673 0.0
C1182 C 0.98503 0.54463 0.47094 0.0
C1183 C 0.02189 0.60713 0.50192 0.0
N1184 N 0.03066 0.57832 0.50404 0.0
C1185 C 0.03421 0.59793 0.50795 0.0
C1186 C 0.00611 0.59618 0.49135 0.0
Eu1187 Eu 0.05154 0.56213 0.51259 0.0
N1188 N 0.02619 0.54017 0.4946 0.0
C1189 C 0.02446 0.52083 0.48989 0.0
C1190 C 0.99597 0.51633 0.47271 0.0
C1191 C 0.00929 0.50864 0.47907 0.0
H1192 H 0.04651 0.6064 0.51596 0.0
H1193 H 0.00791 0.49331 0.47562 0.0
H1194 H 0.97311 0.53588 0.46234 0.0
H1195 H 0.02461 0.62264 0.50533 0.0
H1196 H 0.03455 0.51455 0.49465 0.0
H1197 H 0.10765 0.61914 0.59604 0.0
H1198 H 0.98426 0.50685 0.46427 0.0
H1199 H 0.06897 0.50658 0.55897 0.0
H1200 H 0.08007 0.59722 0.57953 0.0
H1201 H 0.09233 0.49088 0.5667 0.0
H1202 H 0.97755 0.57093 0.4705 0.0
H1203 H 0.13392 0.60698 0.60143 0.0
H1204 H 0.14714 0.57877 0.59919 0.0
H1205 H 0.99662 0.60334 0.48659 0.0
H1206 H 0.14298 0.54373 0.59121 0.0
N1207 N 0.09035 0.57262 0.57514 0.0
C1208 C 0.09124 0.59152 0.58179 0.0
C1209 C 0.12177 0.59721 0.59414 0.0
C1210 C 0.1205 0.57764 0.58826 0.0
C1211 C 0.10696 0.6041 0.59119 0.0
C1212 C 0.10435 0.56555 0.57883 0.0
H1213 H 0.12248 0.51077 0.57938 0.0
N1214 N 0.08597 0.53483 0.56647 0.0
C1215 C 0.0953 0.5064 0.56881 0.0
C1216 C 0.10208 0.54597 0.57432 0.0
C1217 C 0.08213 0.51529 0.56448 0.0
C1218 C 0.11231 0.51767 0.5759 0.0
C1219 C 0.11578 0.53774 0.57912 0.0
O1220 O 0.04864 0.53064 0.57335 0.0
O1221 O 0.04345 0.54681 0.53542 0.0
O1222 O 0.03651 0.57534 0.53341 0.0
O1223 O 0.05407 0.57745 0.56107 0.0
O1224 O 0.04469 0.52239 0.54518 0.0
O1225 O 0.05516 0.56141 0.58415 0.0
O1226 O 0.06777 0.58266 0.49857 0.0
O1227 O 0.07214 0.56551 0.53544 0.0
O1228 O 0.07765 0.53455 0.53655 0.0
O1229 O 0.06223 0.53574 0.50843 0.0
O1230 O 0.07209 0.59013 0.5257 0.0
O1231 O 0.05992 0.55213 0.48575 0.0
C1232 C 0.03558 0.52943 0.53429 0.0
C1233 C 0.05012 0.54081 0.60552 0.0
C1234 C 0.03829 0.53844 0.6349 0.0
C1235 C 0.03642 0.54123 0.61663 0.0
C1236 C 0.05402 0.535 0.64199 0.0
C1237 C 0.06581 0.53724 0.61244 0.0
C1238 C 0.06768 0.53425 0.6307 0.0
C1239 C 0.04175 0.5824 0.55118 0.0
C1240 C 0.0475 0.54427 0.58681 0.0
C1241 C 0.13222 0.54975 0.58759 0.0
C1242 C 0.13458 0.5697 0.59214 0.0
C1243 C 0.08033 0.5828 0.5371 0.0
C1244 C 0.06559 0.5747 0.46617 0.0
C1245 C 0.07838 0.57273 0.45429 0.0
C1246 C 0.0778 0.57875 0.43732 0.0
C1247 C 0.06422 0.5869 0.43221 0.0
C1248 C 0.05181 0.58257 0.46111 0.0
C1249 C 0.05116 0.58866 0.44408 0.0
C1250 C 0.07336 0.52928 0.5183 0.0
C1251 C 0.06803 0.56957 0.48417 0.0
H1252 H 0.0244 0.5442 0.61119 0.0
H1253 H 0.05567 0.53286 0.65618 0.0
H1254 H 0.07651 0.53685 0.60384 0.0
H1255 H 0.07976 0.53151 0.63613 0.0
H1256 H 0.08915 0.5669 0.4585 0.0
H1257 H 0.06362 0.59165 0.41904 0.0
H1258 H 0.04183 0.58427 0.4703 0.0
H1259 H 0.04062 0.59485 0.44016 0.0
Eu1260 Eu 0.78314 0.79828 0.26913 0.0
C1261 C 0.84384 0.77301 0.30707 0.0
C1262 C 0.85623 0.79978 0.33265 0.0
C1263 C 0.85712 0.7675 0.33578 0.0
C1264 C 0.84732 0.79241 0.31456 0.0
C1265 C 0.84918 0.76042 0.31738 0.0
C1266 C 0.86063 0.78715 0.34341 0.0
C1267 C 0.84035 0.7353 0.28986 0.0
N1268 N 0.83639 0.76668 0.2892 0.0
C1269 C 0.83541 0.74838 0.28018 0.0
C1270 C 0.84699 0.74126 0.30864 0.0
Eu1271 Eu 0.82729 0.78923 0.27402 0.0
N1272 N 0.84303 0.80423 0.30374 0.0
C1273 C 0.84855 0.82376 0.30968 0.0
C1274 C 0.86105 0.81968 0.33913 0.0
C1275 C 0.8574 0.83173 0.32749 0.0
H1276 H 0.83021 0.74377 0.26566 0.0
H1277 H 0.86137 0.84718 0.33223 0.0
H1278 H 0.86725 0.79252 0.35742 0.0
H1279 H 0.83903 0.72066 0.28283 0.0
H1280 H 0.84583 0.83342 0.30105 0.0
H1281 H 0.7516 0.7444 0.20696 0.0
H1282 H 0.86805 0.82592 0.35286 0.0
H1283 H 0.7783 0.84287 0.28071 0.0
H1284 H 0.7651 0.75596 0.23929 0.0
H1285 H 0.77016 0.86754 0.26529 0.0
H1286 H 0.86111 0.758 0.34401 0.0
H1287 H 0.74699 0.76762 0.18756 0.0
H1288 H 0.74785 0.80177 0.18555 0.0
H1289 H 0.85092 0.73114 0.31609 0.0
H1290 H 0.75281 0.83544 0.20152 0.0
N1291 N 0.76874 0.7856 0.23842 0.0
C1292 C 0.76314 0.76633 0.23119 0.0
C1293 C 0.75297 0.77281 0.20184 0.0
C1294 C 0.75744 0.79242 0.20976 0.0
C1295 C 0.75547 0.75966 0.21275 0.0
C1296 C 0.76523 0.79841 0.22839 0.0
H1297 H 0.76074 0.86002 0.2314 0.0
N1298 N 0.7742 0.82205 0.25563 0.0
C1299 C 0.76963 0.85351 0.25722 0.0
C1300 C 0.76805 0.81728 0.23731 0.0
C1301 C 0.77418 0.83954 0.26591 0.0
C1302 C 0.76439 0.84923 0.23808 0.0
C1303 C 0.76314 0.83078 0.22795 0.0
O1304 O 0.76812 0.80604 0.29225 0.0
O1305 O 0.80521 0.79652 0.28895 0.0
O1306 O 0.80789 0.7636 0.28257 0.0
O1307 O 0.78079 0.76598 0.26958 0.0
O1308 O 0.79491 0.8202 0.29511 0.0
O1309 O 0.75638 0.78091 0.27145 0.0
O1310 O 0.8417 0.77819 0.25184 0.0
O1311 O 0.80535 0.79113 0.25411 0.0
O1312 O 0.80245 0.82566 0.26347 0.0
O1313 O 0.83027 0.82106 0.27143 0.0
O1314 O 0.81492 0.7669 0.24849 0.0
O1315 O 0.85361 0.80578 0.26935 0.0
C1316 C 0.80615 0.81163 0.30083 0.0
C1317 C 0.73688 0.79704 0.28711 0.0
C1318 C 0.70979 0.79817 0.30204 0.0
C1319 C 0.7256 0.79215 0.30092 0.0
C1320 C 0.70547 0.80897 0.28925 0.0
C1321 C 0.73196 0.80752 0.27433 0.0
C1322 C 0.71641 0.81349 0.27546 0.0
C1323 C 0.79072 0.75606 0.27687 0.0
C1324 C 0.75406 0.79199 0.2865 0.0
C1325 C 0.75645 0.82522 0.20904 0.0
C1326 C 0.75362 0.80605 0.19994 0.0
C1327 C 0.80428 0.77591 0.24232 0.0
C1328 C 0.8729 0.7882 0.25543 0.0
C1329 C 0.88395 0.79285 0.24145 0.0
C1330 C 0.8998 0.78698 0.24032 0.0
C1331 C 0.90444 0.77664 0.25345 0.0
C1332 C 0.87805 0.77818 0.26851 0.0
C1333 C 0.89371 0.77242 0.26748 0.0
C1334 C 0.82004 0.83196 0.26667 0.0
C1335 C 0.85557 0.7928 0.25562 0.0
H1336 H 0.72921 0.78399 0.31084 0.0
H1337 H 0.69345 0.81375 0.28981 0.0
H1338 H 0.7402 0.81121 0.26352 0.0
H1339 H 0.71282 0.8217 0.2656 0.0
H1340 H 0.88006 0.8006 0.23127 0.0
H1341 H 0.91657 0.77207 0.25303 0.0
H1342 H 0.86991 0.77465 0.27943 0.0
H1343 H 0.89753 0.76458 0.27758 0.0
Eu1344 Eu 0.82206 0.2952 0.74861 0.0
C1345 C 0.80267 0.35659 0.80806 0.0
C1346 C 0.8307 0.37361 0.82607 0.0
C1347 C 0.80678 0.38919 0.82555 0.0
C1348 C 0.81974 0.3569 0.81429 0.0
C1349 C 0.79598 0.37273 0.81374 0.0
C1350 C 0.82405 0.38956 0.83182 0.0
C1351 C 0.76769 0.35458 0.79747 0.0
N1352 N 0.7924 0.34042 0.79682 0.0
C1353 C 0.77479 0.33894 0.79252 0.0
C1354 C 0.77841 0.37168 0.80794 0.0
Eu1355 Eu 0.80396 0.31296 0.79162 0.0
N1356 N 0.82579 0.34115 0.80858 0.0
C1357 C 0.84333 0.34225 0.81298 0.0
C1358 C 0.84816 0.37399 0.83155 0.0
C1359 C 0.85459 0.3584 0.82464 0.0
H1360 H 0.76585 0.3255 0.78554 0.0
H1361 H 0.86835 0.3589 0.82804 0.0
H1362 H 0.83222 0.40237 0.84101 0.0
H1363 H 0.75383 0.35324 0.79359 0.0
H1364 H 0.84937 0.33137 0.8071 0.0
H1365 H 0.76029 0.24741 0.7083 0.0
H1366 H 0.85695 0.38652 0.84056 0.0
H1367 H 0.86056 0.28369 0.75894 0.0
H1368 H 0.7778 0.2761 0.72889 0.0
H1369 H 0.87267 0.25586 0.7546 0.0
H1370 H 0.80183 0.40163 0.83008 0.0
H1371 H 0.77237 0.21937 0.69997 0.0
H1372 H 0.79712 0.20421 0.70325 0.0
H1373 H 0.77282 0.38374 0.81203 0.0
H1374 H 0.82672 0.20581 0.71733 0.0
N1375 N 0.8013 0.26632 0.73166 0.0
C1376 C 0.78421 0.26496 0.72493 0.0
C1377 C 0.78056 0.23238 0.70885 0.0
C1378 C 0.79763 0.23331 0.71626 0.0
C1379 C 0.77375 0.24819 0.71342 0.0
C1380 C 0.8078 0.25057 0.72791 0.0
H1381 H 0.85452 0.22457 0.73696 0.0
N1382 N 0.83424 0.26811 0.74697 0.0
C1383 C 0.85898 0.25422 0.74965 0.0
C1384 C 0.82455 0.25142 0.73594 0.0
C1385 C 0.85173 0.26993 0.75261 0.0
C1386 C 0.84875 0.23667 0.73959 0.0
C1387 C 0.83154 0.23522 0.73214 0.0
O1388 O 0.8491 0.30666 0.74259 0.0
O1389 O 0.82393 0.31959 0.77205 0.0
O1390 O 0.78725 0.3159 0.76537 0.0
O1391 O 0.79837 0.30467 0.73772 0.0
O1392 O 0.82491 0.32591 0.74531 0.0
O1393 O 0.82812 0.29269 0.71984 0.0
O1394 O 0.77653 0.30029 0.79505 0.0
O1395 O 0.80174 0.28889 0.76768 0.0
O1396 O 0.83924 0.29457 0.7754 0.0
O1397 O 0.82693 0.30272 0.80308 0.0
O1398 O 0.80214 0.28245 0.79452 0.0
O1399 O 0.79578 0.31251 0.81959 0.0
C1400 C 0.825 0.33265 0.76277 0.0
C1401 C 0.85517 0.31142 0.71224 0.0
C1402 C 0.85859 0.33411 0.69134 0.0
C1403 C 0.84902 0.32498 0.70434 0.0
C1404 C 0.87443 0.32961 0.68662 0.0
C1405 C 0.87103 0.30722 0.70753 0.0
C1406 C 0.88064 0.31633 0.69479 0.0
C1407 C 0.78658 0.312 0.74677 0.0
C1408 C 0.84505 0.30054 0.72468 0.0
C1409 C 0.82149 0.21826 0.72045 0.0
C1410 C 0.80466 0.21738 0.7124 0.0
C1411 C 0.80098 0.27585 0.7769 0.0
C1412 C 0.76866 0.28982 0.82275 0.0
C1413 C 0.77639 0.28045 0.8348 0.0
C1414 C 0.76558 0.26811 0.84463 0.0
C1415 C 0.7471 0.26493 0.84205 0.0
C1416 C 0.75016 0.28644 0.82029 0.0
C1417 C 0.73945 0.27399 0.82984 0.0
C1418 C 0.83923 0.29662 0.79384 0.0
C1419 C 0.77923 0.30399 0.81319 0.0
H1420 H 0.83677 0.3282 0.70813 0.0
H1421 H 0.88181 0.33596 0.67624 0.0
H1422 H 0.87583 0.29663 0.71352 0.0
H1423 H 0.89275 0.31283 0.69099 0.0
H1424 H 0.79067 0.28312 0.83693 0.0
H1425 H 0.73859 0.25539 0.84948 0.0
H1426 H 0.744 0.29365 0.8111 0.0
H1427 H 0.7252 0.27151 0.82793 0.0
Eu1428 Eu 0.81055 0.81066 0.77666 0.0
C1429 C 0.7419 0.76018 0.74859 0.0
C1430 C 0.7282 0.74548 0.77309 0.0
C1431 C 0.71026 0.75561 0.75072 0.0
C1432 C 0.74339 0.75219 0.7642 0.0
C1433 C 0.72514 0.76138 0.74136 0.0
C1434 C 0.7118 0.7477 0.76658 0.0
C1435 C 0.73818 0.77042 0.71432 0.0
N1436 N 0.75644 0.76516 0.73953 0.0
C1437 C 0.75436 0.76868 0.72186 0.0
C1438 C 0.72359 0.76726 0.72435 0.0
Eu1439 Eu 0.78382 0.76246 0.75374 0.0
N1440 N 0.75933 0.74966 0.76986 0.0
C1441 C 0.76022 0.73816 0.7826 0.0
C1442 C 0.72973 0.73584 0.78772 0.0
C1443 C 0.74573 0.73175 0.79218 0.0
H1444 H 0.76479 0.76945 0.71294 0.0
H1445 H 0.74681 0.72331 0.80273 0.0
H1446 H 0.70006 0.7426 0.77325 0.0
H1447 H 0.73687 0.77364 0.70052 0.0
H1448 H 0.77208 0.73366 0.78543 0.0
H1449 H 0.85181 0.83061 0.72248 0.0
H1450 H 0.71842 0.73059 0.79494 0.0
H1451 H 0.82151 0.81746 0.8227 0.0
H1452 H 0.82513 0.81437 0.73462 0.0
H1453 H 0.84812 0.83026 0.84549 0.0
H1454 H 0.69735 0.7565 0.74538 0.0
H1455 H 0.8793 0.84566 0.74366 0.0
H1456 H 0.89582 0.85066 0.77516 0.0
H1457 H 0.71096 0.76826 0.71833 0.0
H1458 H 0.89512 0.84929 0.80836 0.0
N1459 N 0.83701 0.81929 0.76248 0.0
C1460 C 0.83692 0.82027 0.74405 0.0
C1461 C 0.86765 0.83789 0.74899 0.0
C1462 C 0.86803 0.83598 0.76763 0.0
C1463 C 0.85215 0.82958 0.73704 0.0
C1464 C 0.85221 0.82677 0.77415 0.0
H1465 H 0.87744 0.8417 0.83467 0.0
N1466 N 0.83585 0.81941 0.79903 0.0
C1467 C 0.84938 0.82904 0.83074 0.0
C1468 C 0.85169 0.82644 0.79291 0.0
C1469 C 0.83438 0.82158 0.81777 0.0
C1470 C 0.86589 0.83546 0.82458 0.0
C1471 C 0.86714 0.83471 0.80553 0.0
O1472 O 0.80624 0.83366 0.79743 0.0
O1473 O 0.78316 0.79146 0.76812 0.0
O1474 O 0.79078 0.78134 0.73226 0.0
O1475 O 0.79682 0.81259 0.74909 0.0
O1476 O 0.78935 0.80548 0.7959 0.0
O1477 O 0.81264 0.83902 0.76962 0.0
O1478 O 0.78396 0.74676 0.72548 0.0
O1479 O 0.80991 0.78398 0.75686 0.0
O1480 O 0.81612 0.78997 0.79446 0.0
O1481 O 0.79225 0.76286 0.78448 0.0
O1482 O 0.81049 0.75628 0.75895 0.0
O1483 O 0.77751 0.73124 0.74775 0.0
C1484 C 0.77713 0.79425 0.78356 0.0
C1485 C 0.80968 0.86579 0.79256 0.0
C1486 C 0.79788 0.89237 0.78828 0.0
C1487 C 0.79871 0.8735 0.78233 0.0
C1488 C 0.80861 0.90383 0.80424 0.0
C1489 C 0.82017 0.87698 0.80872 0.0
C1490 C 0.81975 0.89609 0.81444 0.0
C1491 C 0.79227 0.79991 0.73325 0.0
C1492 C 0.80958 0.84588 0.78637 0.0
C1493 C 0.88314 0.84289 0.79889 0.0
C1494 C 0.88354 0.84371 0.78 0.0
C1495 C 0.81999 0.77344 0.75901 0.0
C1496 C 0.79115 0.71699 0.72331 0.0
C1497 C 0.80223 0.71105 0.73551 0.0
C1498 C 0.81097 0.69714 0.72869 0.0
C1499 C 0.8089 0.68949 0.70952 0.0
C1500 C 0.78934 0.70939 0.70417 0.0
C1501 C 0.79825 0.69575 0.69731 0.0
C1502 C 0.80547 0.77374 0.79695 0.0
C1503 C 0.78051 0.73009 0.73038 0.0
H1504 H 0.79051 0.86464 0.76992 0.0
H1505 H 0.80802 0.9185 0.80905 0.0
H1506 H 0.82868 0.87097 0.81679 0.0
H1507 H 0.82787 0.90482 0.82687 0.0
H1508 H 0.80354 0.71663 0.75037 0.0
H1509 H 0.81553 0.67869 0.70401 0.0
H1510 H 0.78079 0.71378 0.69458 0.0
H1511 H 0.79669 0.6898 0.68255 0.0
Eu1512 Eu 0.54101 0.54089 0.52209 0.0
C1513 C 0.59723 0.6052 0.5629 0.0
C1514 C 0.60427 0.62535 0.53995 0.0
C1515 C 0.60683 0.6401 0.5726 0.0
C1516 C 0.59853 0.60692 0.54447 0.0
C1517 C 0.60213 0.62182 0.5772 0.0
C1518 C 0.60785 0.64186 0.55401 0.0
C1519 C 0.60042 0.60122 0.59971 0.0
N1520 N 0.59292 0.58736 0.56706 0.0
C1521 C 0.59581 0.58526 0.58514 0.0
C1522 C 0.60317 0.6196 0.59575 0.0
Eu1523 Eu 0.58538 0.56084 0.54137 0.0
N1524 N 0.59541 0.59068 0.53112 0.0
C1525 C 0.59882 0.59212 0.51322 0.0
C1526 C 0.60696 0.62672 0.52154 0.0
C1527 C 0.60442 0.61003 0.50818 0.0
H1528 H 0.59422 0.57113 0.58842 0.0
H1529 H 0.6068 0.61093 0.49393 0.0
H1530 H 0.61208 0.65607 0.55071 0.0
H1531 H 0.60206 0.59933 0.61397 0.0
H1532 H 0.5972 0.57976 0.50241 0.0
H1533 H 0.52406 0.48978 0.56939 0.0
H1534 H 0.61158 0.64058 0.51764 0.0
H1535 H 0.53178 0.53166 0.47507 0.0
H1536 H 0.53343 0.52121 0.56133 0.0
H1537 H 0.52274 0.50388 0.44916 0.0
H1538 H 0.61041 0.65297 0.58338 0.0
H1539 H 0.51681 0.46049 0.54492 0.0
H1540 H 0.51318 0.44562 0.51123 0.0
H1541 H 0.60699 0.63199 0.60706 0.0
H1542 H 0.51319 0.44938 0.47862 0.0
N1543 N 0.53192 0.51076 0.53195 0.0
C1544 C 0.53027 0.50899 0.55013 0.0
C1545 C 0.521 0.47446 0.54112 0.0
C1546 C 0.52208 0.47619 0.52253 0.0
C1547 C 0.52497 0.49094 0.55494 0.0
C1548 C 0.52764 0.49475 0.51825 0.0
H1549 H 0.51665 0.47091 0.45543 0.0
N1550 N 0.53267 0.51482 0.496 0.0
C1551 C 0.52447 0.50165 0.46329 0.0
C1552 C 0.52805 0.49684 0.49983 0.0
C1553 C 0.52982 0.51737 0.47807 0.0
C1554 C 0.52103 0.4831 0.4669 0.0
C1555 C 0.52237 0.48048 0.48532 0.0
O1556 O 0.52358 0.55082 0.50397 0.0
O1557 O 0.56421 0.5666 0.5233 0.0
O1558 O 0.56718 0.56212 0.56597 0.0
O1559 O 0.53806 0.55079 0.55269 0.0
O1560 O 0.54141 0.57192 0.53274 0.0
O1561 O 0.5133 0.5369 0.52655 0.0
O1562 O 0.60152 0.55023 0.56023 0.0
O1563 O 0.56246 0.53479 0.53972 0.0
O1564 O 0.5587 0.54054 0.49721 0.0
O1565 O 0.58794 0.55035 0.51042 0.0
O1566 O 0.58548 0.5302 0.52986 0.0
O1567 O 0.61362 0.56562 0.53923 0.0
C1568 C 0.55687 0.57988 0.52884 0.0
C1569 C 0.49239 0.5396 0.50331 0.0
C1570 C 0.4637 0.54621 0.50033 0.0
C1571 C 0.48103 0.55095 0.50883 0.0
C1572 C 0.45775 0.52981 0.48609 0.0
C1573 C 0.48649 0.52318 0.48924 0.0
C1574 C 0.46915 0.51837 0.48058 0.0
C1575 C 0.54977 0.55832 0.56752 0.0
C1576 C 0.51007 0.54556 0.51315 0.0
C1577 C 0.51744 0.46206 0.48959 0.0
C1578 C 0.51737 0.45992 0.50815 0.0
C1579 C 0.57004 0.5218 0.53355 0.0
C1580 C 0.63294 0.56135 0.56336 0.0
C1581 C 0.64384 0.5494 0.55831 0.0
C1582 C 0.6611 0.55369 0.56689 0.0
C1583 C 0.66714 0.56966 0.58154 0.0
C1584 C 0.639 0.57761 0.5776 0.0
C1585 C 0.65604 0.58155 0.58688 0.0
C1586 C 0.57604 0.54369 0.49554 0.0
C1587 C 0.61579 0.55631 0.55244 0.0
H1588 H 0.48567 0.56342 0.52003 0.0
H1589 H 0.4444 0.52597 0.47915 0.0
H1590 H 0.4951 0.51409 0.48509 0.0
H1591 H 0.46453 0.50576 0.46962 0.0
H1592 H 0.63898 0.53686 0.5472 0.0
H1593 H 0.68051 0.57325 0.58836 0.0
H1594 H 0.63078 0.58724 0.58138 0.0
H1595 H 0.66081 0.59407 0.59793 0.0
Eu1596 Eu 0.0785 0.55116 0.03228 0.0
C1597 C 0.01124 0.51306 0.06934 0.0
C1598 C 0.99506 0.48544 0.04611 0.0
C1599 C 0.99174 0.48579 0.0789 0.0
C1600 C 0.00709 0.50383 0.05088 0.0
C1601 C 1.00336 0.5043 0.08353 0.0
C1602 C 0.98763 0.47637 0.06023 0.0
C1603 C 0.01793 0.53337 0.10568 0.0
N1604 N 0.02238 0.531 0.07336 0.0
C1605 C 0.02533 0.54149 0.09112 0.0
C1606 C 0.00703 0.51461 0.1019 0.0
Eu1607 Eu 0.03404 0.54391 0.04798 0.0
N1608 N 0.01427 0.51309 0.03754 0.0
C1609 C 0.0093 0.50517 0.01911 0.0
C1610 C 0.99055 0.4769 0.02727 0.0
C1611 C 0.99759 0.48689 0.01371 0.0
H1612 H 0.03361 0.55605 0.09411 0.0
H1613 H 0.99398 0.48055 0.99908 0.0
H1614 H 0.97842 0.46222 0.05683 0.0
H1615 H 0.02058 0.5416 0.11978 0.0
H1616 H 0.01451 0.51269 0.00842 0.0
H1617 H 0.11612 0.61014 0.08775 0.0
H1618 H 0.9814 0.46278 0.02303 0.0
H1619 H 0.08153 0.54511 0.98665 0.0
H1620 H 0.09754 0.5777 0.07458 0.0
H1621 H 0.09438 0.56412 0.9636 0.0
H1622 H 0.98562 0.47879 0.08962 0.0
H1623 H 0.12722 0.6327 0.067 0.0
H1624 H 0.13004 0.63855 0.03443 0.0
H1625 H 1.00122 0.50839 0.1132 0.0
H1626 H 0.1243 0.62599 1.00063 0.0
N1627 N 0.0975 0.58168 0.04643 0.0
C1628 C 0.10222 0.58722 0.06523 0.0
C1629 C 0.11899 0.6184 0.06108 0.0
C1630 C 0.11496 0.61228 0.04179 0.0
C1631 C 0.1128 0.6057 0.07283 0.0
C1632 C 0.10412 0.59356 0.03481 0.0
H1633 H 0.1113 0.59814 0.97411 0.0
N1634 N 0.09088 0.56828 0.0097 0.0
C1635 C 0.09619 0.57065 0.97824 0.0
C1636 C 0.10075 0.5866 0.01584 0.0
C1637 C 0.08898 0.55993 0.99128 0.0
C1638 C 0.10569 0.58987 0.98422 0.0
C1639 C 0.10829 0.59801 1.00325 0.0
O1640 O 0.09154 0.53036 0.01823 0.0
O1641 O 0.05378 0.529 0.03518 0.0
O1642 O 0.04891 0.53117 0.06696 0.0
O1643 O 0.07754 0.54728 0.06223 0.0
O1644 O 0.06442 0.52572 0.01005 0.0
O1645 O 0.10159 0.5454 0.04629 0.0
O1646 O 0.02263 0.56747 0.05853 0.0
O1647 O 0.05866 0.56541 0.04429 0.0
O1648 O 0.06188 0.56267 0.01311 0.0
O1649 O 0.03419 0.54427 0.01738 0.0
O1650 O 0.04868 0.57072 0.06925 0.0
O1651 O 0.00943 0.54653 0.03412 0.0
C1652 C 0.0524 0.51771 0.01956 0.0
C1653 C 0.12185 0.53454 0.02723 0.0
C1654 C 0.14851 0.52284 0.02717 0.0
C1655 C 0.13109 0.52136 0.0318 0.0
C1656 C 0.15634 0.53731 0.01763 0.0
C1657 C 0.12998 0.54888 0.01775 0.0
C1658 C 0.1471 0.55016 0.0129 0.0
C1659 C 0.06616 0.53663 0.07126 0.0
C1660 C 0.10367 0.53302 0.03207 0.0
C1661 C 0.11853 0.61693 0.01009 0.0
C1662 C 0.12181 0.62407 0.02933 0.0
C1663 C 0.06071 0.57765 0.05922 0.0
C1664 C 0.99192 0.56246 0.053 0.0
C1665 C 0.98319 0.57568 0.04782 0.0
C1666 C 0.96747 0.57761 0.05529 0.0
C1667 C 0.96061 0.56606 0.068 0.0
C1668 C 0.98483 0.551 0.0656 0.0
C1669 C 0.96925 0.55283 0.07306 0.0
C1670 C 0.04462 0.55577 0.00832 0.0
C1671 C 0.00895 0.56179 0.04605 0.0
H1672 H 0.12489 0.51025 0.03915 0.0
H1673 H 0.16965 0.53861 0.01376 0.0
H1674 H 0.12308 0.55905 0.01406 0.0
H1675 H 0.15327 0.56119 0.00549 0.0
H1676 H 0.98882 0.5847 0.03826 0.0
H1677 H 0.94841 0.56702 0.07381 0.0
H1678 H 0.99139 0.5408 0.06979 0.0
H1679 H 0.96384 0.54398 0.08281 0.0
H1680 H 0.02808 0.24071 0.97818 0.0
H1681 H 0.03387 0.21461 0.99255 0.0
H1682 H 0.0349 0.18148 0.93816 0.0
H1683 H 0.02979 0.20766 0.92384 0.0
H1684 H 0.01675 0.17884 0.99159 0.0
H1685 H 0.07937 0.17579 0.96203 0.0
H1686 H 0.069 0.1949 0.96011 0.0
H1687 H 0.06162 0.17213 0.9441 0.0
C1688 C 0.02961 0.22791 0.96925 0.0
C1689 C 0.02857 0.22654 0.94976 0.0
C1690 C 0.03295 0.2129 0.97752 0.0
C1691 C 0.03535 0.19602 0.96661 0.0
C1692 C 0.03381 0.19445 0.94713 0.0
H1693 H 0.04873 0.08484 0.98533 0.0
H1694 H 0.04608 0.11324 0.97286 0.0
C1695 C 0.03066 0.20949 0.93887 0.0
C1696 C 0.03889 0.17988 0.97548 0.0
H1697 H 0.06584 0.1493 0.97584 0.0
C1698 C 0.02761 0.17255 0.98823 0.0
C1699 C 0.05306 0.17142 0.97129 0.0
C1700 C 0.06655 0.1791 0.95879 0.0
C1701 C 0.02965 0.15687 0.99629 0.0
C1702 C 0.04363 0.14821 0.99186 0.0
C1703 C 0.05505 0.15568 0.97929 0.0
C1704 C 0.04637 0.13119 0.99973 0.0
C1705 C 0.01632 0.14933 0.00901 0.0
C1706 C 0.04798 0.13166 0.01908 0.0
C1707 C 0.04935 0.11532 0.0262 0.0
C1708 C 0.04973 0.09822 0.01424 0.0
C1709 C 0.04873 0.09788 0.99494 0.0
C1710 C 0.04717 0.11416 0.9878 0.0
H1711 H 1.00383 0.15361 0.00672 0.0
H1712 H 0.01311 0.13341 0.00695 0.0
H1713 H 0.02192 0.15544 0.0237 0.0
H1714 H 0.048 0.14465 0.02876 0.0
H1715 H 0.05001 0.11601 0.04111 0.0
H1716 H 0.13121 0.84515 0.17479 0.0
H1717 H 0.15817 0.84422 0.19294 0.0
H1718 H 0.17509 0.81611 0.14321 0.0
H1719 H 0.1489 0.81842 0.12493 0.0
H1720 H 0.16899 0.81731 0.20171 0.0
H1721 H 0.22093 0.85148 0.16145 0.0
H1722 H 0.19814 0.85161 0.15675 0.0
H1723 H 0.20574 0.83099 0.14704 0.0
C1724 C 0.14095 0.83928 0.16766 0.0
C1725 C 0.13802 0.83225 0.14831 0.0
C1726 C 0.15637 0.83859 0.17809 0.0
C1727 C 0.16915 0.83044 0.16958 0.0
C1728 C 0.16608 0.82325 0.15022 0.0
H1729 H 0.25794 0.79254 0.21381 0.0
H1730 H 0.23297 0.79718 0.19517 0.0
C1731 C 0.15093 0.82449 0.1397 0.0
C1732 C 0.18496 0.82843 0.18115 0.0
H1733 H 0.2299 0.83405 0.18334 0.0
C1734 C 0.18229 0.82125 0.1977 0.0
C1735 C 0.20255 0.8334 0.17616 0.0
C1736 C 0.20703 0.84248 0.15949 0.0
C1737 C 0.1964 0.81875 0.20907 0.0
C1738 C 0.21379 0.82336 0.20383 0.0
C1739 C 0.21656 0.83043 0.18733 0.0
C1740 C 0.22924 0.82083 0.21527 0.0
C1741 C 0.1926 0.81086 0.22651 0.0
C1742 C 0.23578 0.8328 0.23272 0.0
C1743 C 0.25033 0.8304 0.24336 0.0
C1744 C 0.25851 0.81571 0.23702 0.0
C1745 C 0.25198 0.80389 0.21939 0.0
C1746 C 0.23764 0.80651 0.20864 0.0
H1747 H 0.17819 0.80503 0.22708 0.0
H1748 H 0.19934 0.79931 0.22745 0.0
H1749 H 0.19785 0.82253 0.23887 0.0
H1750 H 0.22972 0.84416 0.23804 0.0
H1751 H 0.25517 0.84017 0.25649 0.0
H1752 H 0.53259 0.82722 0.48381 0.0
H1753 H 0.53509 0.86071 0.49913 0.0
H1754 H 0.53706 0.87772 0.44571 0.0
H1755 H 0.5338 0.84464 0.43047 0.0
H1756 H 0.55973 0.89386 0.50155 0.0
H1757 H 0.4994 0.90131 0.46392 0.0
H1758 H 0.50425 0.87833 0.46291 0.0
H1759 H 0.51414 0.89429 0.44803 0.0
C1760 C 0.53338 0.8381 0.47536 0.0
C1761 C 0.5326 0.83306 0.45584 0.0
C1762 C 0.53483 0.85728 0.48412 0.0
C1763 C 0.53569 0.87183 0.47358 0.0
C1764 C 0.53564 0.86683 0.4542 0.0
H1765 H 0.55508 0.99548 0.48812 0.0
H1766 H 0.5472 0.96046 0.47716 0.0
C1767 C 0.53388 0.84777 0.44547 0.0
C1768 C 0.53716 0.89234 0.48259 0.0
H1769 H 0.52022 0.93072 0.47912 0.0
C1770 C 0.55093 0.90182 0.49681 0.0
C1771 C 0.52572 0.90293 0.4765 0.0
C1772 C 0.50995 0.89362 0.46214 0.0
C1773 C 0.55407 0.92161 0.50443 0.0
C1774 C 0.54292 0.93232 0.49795 0.0
C1775 C 0.52888 0.9227 0.48408 0.0
C1776 C 0.54605 0.9536 0.50472 0.0
C1777 C 0.56984 0.93099 0.51878 0.0
C1778 C 0.54738 0.96161 0.52382 0.0
C1779 C 0.55207 0.98164 0.53006 0.0
C1780 C 0.55482 0.9941 0.51732 0.0
C1781 C 0.55261 0.98617 0.4982 0.0
C1782 C 0.54821 0.96614 0.49196 0.0
H1783 H 0.57964 0.92228 0.51844 0.0
H1784 H 0.57661 0.94556 0.5166 0.0
H1785 H 0.5653 0.93239 0.53287 0.0
H1786 H 0.54524 0.95239 0.53398 0.0
H1787 H 0.55395 0.98743 0.54489 0.0
H1788 H 0.53906 0.33323 0.64073 0.0
H1789 H 0.51048 0.33158 0.65343 0.0
H1790 H 0.51615 0.28363 0.6779 0.0
H1791 H 0.54461 0.28536 0.66564 0.0
H1792 H 0.47866 0.30079 0.64871 0.0
H1793 H 0.50814 0.32167 0.72235 0.0
H1794 H 0.52125 0.32504 0.70319 0.0
H1795 H 0.51467 0.30179 0.70946 0.0
C1796 C 0.53425 0.32241 0.64891 0.0
C1797 C 0.54432 0.30962 0.65239 0.0
C1798 C 0.51787 0.32143 0.65609 0.0
C1799 C 0.51126 0.30768 0.66691 0.0
C1800 C 0.52111 0.29464 0.66997 0.0
H1801 H 0.41585 0.2587 0.71072 0.0
H1802 H 0.44059 0.26635 0.69198 0.0
C1803 C 0.53743 0.29566 0.66291 0.0
C1804 C 0.49426 0.3069 0.67532 0.0
H1805 H 0.47685 0.30803 0.71706 0.0
C1806 C 0.47828 0.30261 0.66366 0.0
C1807 C 0.4937 0.30943 0.69486 0.0
C1808 C 0.51036 0.31492 0.70822 0.0
C1809 C 0.4618 0.29992 0.67102 0.0
C1810 C 0.4613 0.30164 0.69047 0.0
C1811 C 0.47726 0.30666 0.70213 0.0
C1812 C 0.4444 0.29713 0.69906 0.0
C1813 C 0.44496 0.29495 0.65805 0.0
C1814 C 0.43801 0.31188 0.70891 0.0
C1815 C 0.42369 0.30751 0.71947 0.0
C1816 C 0.41577 0.28835 0.72066 0.0
C1817 C 0.4217 0.2736 0.71009 0.0
C1818 C 0.43581 0.27795 0.69935 0.0
H1819 H 0.44758 0.29626 0.64354 0.0
H1820 H 0.43742 0.27996 0.65804 0.0
H1821 H 0.43649 0.30452 0.66303 0.0
H1822 H 0.44454 0.32678 0.70898 0.0
H1823 H 0.41952 0.31917 0.72759 0.0
H1824 H 0.9965 0.8312 0.63945 0.0
H1825 H 1.00206 0.85761 0.62206 0.0
H1826 H 0.03748 0.83141 0.59041 0.0
H1827 H 0.0315 0.80492 0.6069 0.0
H1828 H 0.03326 0.88333 0.61948 0.0
H1829 H 0.00577 0.83998 0.54968 0.0
H1830 H 1.00166 0.83068 0.57071 0.0
H1831 H 0.0218 0.83018 0.56021 0.0
C1832 C 1.00521 0.831 0.62854 0.0
C1833 C 0.0133 0.8159 0.62424 0.0
C1834 C 0.00842 0.84605 0.61872 0.0
C1835 C 0.01981 0.8461 0.60468 0.0
C1836 C 0.02815 0.83123 0.60073 0.0
H1837 H 0.07966 0.91926 0.54079 0.0
H1838 H 0.06875 0.89755 0.56204 0.0
C1839 C 0.02474 0.81613 0.61022 0.0
C1840 C 0.02374 0.8619 0.59439 0.0
H1841 H 0.02716 0.87028 0.55034 0.0
C1842 C 0.03162 0.88061 0.60437 0.0
C1843 C 0.02145 0.85822 0.5747 0.0
C1844 C 0.01203 0.83869 0.56325 0.0
C1845 C 0.03819 0.89559 0.59502 0.0
C1846 C 0.0369 0.89149 0.57542 0.0
C1847 C 0.02834 0.87308 0.56545 0.0
C1848 C 0.04434 0.90607 0.56473 0.0
C1849 C 0.04691 0.91552 0.60595 0.0
C1850 C 0.03402 0.91769 0.55936 0.0
C1851 C 0.04 0.92972 0.54707 0.0
C1852 C 0.05641 0.93028 0.54004 0.0
C1853 C 0.06686 0.91883 0.54578 0.0
C1854 C 0.0608 0.90671 0.55805 0.0
H1855 H 0.04694 0.91631 0.62122 0.0
H1856 H 0.06079 0.92013 0.60266 0.0
H1857 H 0.03986 0.92583 0.60179 0.0
H1858 H 0.02115 0.91702 0.56425 0.0
H1859 H 0.0316 0.93828 0.54273 0.0
H1860 H 0.53944 0.7962 0.85727 0.0
H1861 H 0.50951 0.79655 0.84507 0.0
H1862 H 0.5273 0.85801 0.84929 0.0
H1863 H 0.55703 0.85761 0.86056 0.0
H1864 H 0.48446 0.81732 0.85803 0.0
H1865 H 0.51111 0.83768 0.79396 0.0
H1866 H 0.52349 0.82892 0.8105 0.0
H1867 H 0.5228 0.85371 0.81472 0.0
C1868 C 0.53681 0.80971 0.85563 0.0
C1869 C 0.55048 0.8268 0.85935 0.0
C1870 C 0.51981 0.80992 0.84878 0.0
C1871 C 0.51643 0.82726 0.84593 0.0
C1872 C 0.52982 0.84445 0.85095 0.0
H1873 H 0.43682 0.87019 0.79654 0.0
H1874 H 0.46142 0.86569 0.81597 0.0
C1875 C 0.54677 0.84418 0.85733 0.0
C1876 C 0.49944 0.82757 0.83648 0.0
H1877 H 0.48246 0.84178 0.79909 0.0
C1878 C 0.4839 0.82246 0.84505 0.0
C1879 C 0.49886 0.83414 0.81947 0.0
C1880 C 0.51493 0.83873 0.80903 0.0
C1881 C 0.46781 0.82457 0.83735 0.0
C1882 C 0.46749 0.83193 0.82078 0.0
C1883 C 0.48292 0.83647 0.812 0.0
C1884 C 0.45131 0.83478 0.81182 0.0
C1885 C 0.45143 0.81941 0.84714 0.0
C1886 C 0.43758 0.81886 0.80323 0.0
C1887 C 0.42369 0.82134 0.79196 0.0
C1888 C 0.42336 0.83981 0.78911 0.0
C1889 C 0.43687 0.85579 0.79828 0.0
C1890 C 0.45077 0.85328 0.80952 0.0
H1891 H 0.45463 0.81764 0.8616 0.0
H1892 H 0.44405 0.83061 0.84757 0.0
H1893 H 0.44257 0.80564 0.83932 0.0
H1894 H 0.43803 0.80444 0.80451 0.0
H1895 H 0.4136 0.8087 0.78487 0.0
H1896 H 0.47484 0.21073 0.12113 0.0
H1897 H 0.47515 0.18028 0.10122 0.0
H1898 H 0.51565 0.17376 0.14032 0.0
H1899 H 0.51466 0.20324 0.16058 0.0
H1900 H 0.50331 0.17669 0.08494 0.0
H1901 H 0.48751 0.1199 0.12662 0.0
H1902 H 0.48278 0.14288 0.13365 0.0
H1903 H 0.50452 0.13983 0.13938 0.0
C1904 C 0.48321 0.20229 0.12579 0.0
C1905 C 0.4947 0.20924 0.14235 0.0
C1906 C 0.48343 0.18501 0.11441 0.0
C1907 C 0.49526 0.17469 0.11942 0.0
C1908 C 0.50597 0.18111 0.13648 0.0
H1909 H 0.5577 0.10463 0.07835 0.0
H1910 H 0.54452 0.12988 0.09181 0.0
C1911 C 0.50545 0.19808 0.14803 0.0
C1912 C 0.49856 0.15902 0.10583 0.0
H1913 H 0.50732 0.11539 0.10278 0.0
C1914 C 0.50366 0.16301 0.08857 0.0
C1915 C 0.49913 0.14131 0.11069 0.0
C1916 C 0.493 0.13572 0.12855 0.0
C1917 C 0.51044 0.15018 0.07656 0.0
C1918 C 0.5121 0.1332 0.08215 0.0
C1919 C 0.50609 0.12867 0.0988 0.0
C1920 C 0.52121 0.12039 0.07175 0.0
C1921 C 0.51678 0.15524 0.05859 0.0
C1922 C 0.51247 0.10712 0.05588 0.0
C1923 C 0.52006 0.09275 0.04802 0.0
C1924 C 0.53633 0.09142 0.05614 0.0
C1925 C 0.5452 0.10516 0.07176 0.0
C1926 C 0.53775 0.11967 0.07943 0.0
H1927 H 0.51468 0.16921 0.05638 0.0
H1928 H 0.53111 0.15598 0.05864 0.0
H1929 H 0.50964 0.14382 0.04667 0.0
H1930 H 0.49953 0.10743 0.05007 0.0
H1931 H 0.51287 0.08237 0.03596 0.0
H1932 H 0.13475 0.32484 0.32697 0.0
H1933 H 0.16118 0.32416 0.311 0.0
H1934 H 0.19244 0.334 0.36393 0.0
H1935 H 0.16601 0.33515 0.38009 0.0
H1936 H 0.2048 0.3528 0.32367 0.0
H1937 H 0.18271 0.27428 0.32442 0.0
H1938 H 0.16669 0.28806 0.32279 0.0
H1939 H 0.18067 0.29195 0.3441 0.0
C1940 C 0.14739 0.32746 0.33519 0.0
C1941 C 0.14846 0.32991 0.35467 0.0
C1942 C 0.16241 0.32714 0.32609 0.0
C1943 C 0.17858 0.32894 0.33636 0.0
C1944 C 0.18 0.33275 0.35588 0.0
H1945 H 0.2728 0.29904 0.30235 0.0
H1946 H 0.24827 0.30554 0.3193 0.0
C1947 C 0.16498 0.33341 0.36505 0.0
C1948 C 0.19297 0.32373 0.32653 0.0
H1949 H 0.20729 0.28467 0.30842 0.0
C1950 C 0.20546 0.33797 0.32038 0.0
C1951 C 0.19357 0.30432 0.3223 0.0
C1952 C 0.18024 0.28866 0.32869 0.0
C1953 C 0.21865 0.33315 0.30989 0.0
C1954 C 0.21905 0.3137 0.30544 0.0
C1955 C 0.2067 0.29952 0.31179 0.0
C1956 C 0.23278 0.30797 0.29483 0.0
C1957 C 0.23214 0.34878 0.30365 0.0
C1958 C 0.23178 0.30678 0.27548 0.0
C1959 C 0.24568 0.30289 0.26579 0.0
C1960 C 0.26042 0.29988 0.27539 0.0
C1961 C 0.26122 0.30078 0.29469 0.0
C1962 C 0.24736 0.30458 0.30434 0.0
H1963 H 0.23106 0.36338 0.30978 0.0
H1964 H 0.24574 0.34776 0.30757 0.0
H1965 H 0.23022 0.34682 0.28824 0.0
H1966 H 0.22053 0.30939 0.26804 0.0
H1967 H 0.24512 0.30265 0.25094 0.0
H1968 H 0.94674 0.05612 0.20148 0.0
H1969 H 0.9624 0.05552 0.17361 0.0
H1970 H 0.01026 0.09043 0.20701 0.0
H1971 H 0.99486 0.08932 0.2351 0.0
H1972 H 0.97524 0.07564 0.15287 0.0
H1973 H 0.03647 0.06005 0.17969 0.0
H1974 H 0.01798 0.05912 0.1932 0.0
H1975 H 0.03337 0.08187 0.19259 0.0
C1976 C 0.9607 0.06349 0.20301 0.0
C1977 C 0.96935 0.07257 0.22096 0.0
C1978 C 0.96982 0.06323 0.18678 0.0
C1979 C 0.9881 0.07247 0.1874 0.0
C1980 C 0.9966 0.08217 0.20541 0.0
H1981 H 0.06034 0.08591 0.09546 0.0
H1982 H 0.04726 0.08925 0.12522 0.0
C1983 C 0.98758 0.08182 0.22178 0.0
C1984 C 0.99761 0.07227 0.16925 0.0
H1985 H 0.03611 0.06808 0.14992 0.0
C1986 C 0.9885 0.07375 0.15248 0.0
C1987 C 0.01523 0.0702 0.16782 0.0
C1988 C 0.02627 0.06754 0.18423 0.0
C1989 C 0.99602 0.07322 0.13515 0.0
C1990 C 0.01346 0.07082 0.13367 0.0
C1991 C 0.0228 0.06981 0.15045 0.0
C1992 C 0.02192 0.06889 0.11501 0.0
C1993 C 0.98507 0.07584 0.11864 0.0
C1994 C 0.01269 0.05616 0.09867 0.0
C1995 C 0.02015 0.0544 0.08147 0.0
C1996 C 0.03754 0.06492 0.07952 0.0
C1997 C 0.047 0.07745 0.09592 0.0
C1998 C 0.03941 0.07934 0.11321 0.0
H1999 H 0.97545 0.08416 0.1231 0.0
H2000 H 0.9935 0.08338 0.10916 0.0
H2001 H 0.97735 0.06152 0.11077 0.0
H2002 H 0.99955 0.0472 0.09914 0.0
H2003 H 0.01212 0.04447 0.06959 0.0
H2004 H 0.30595 0.66341 0.44776 0.0
H2005 H 0.3036 0.67819 0.42038 0.0
H2006 H 0.28679 0.72381 0.45378 0.0
H2007 H 0.28912 0.70937 0.48102 0.0
H2008 H 0.27028 0.68779 0.40664 0.0
H2009 H 0.32916 0.75049 0.42663 0.0
H2010 H 0.32698 0.72861 0.4356 0.0
H2011 H 0.31522 0.74573 0.44477 0.0
C2012 C 0.30203 0.67674 0.44928 0.0
C2013 C 0.29785 0.68532 0.4665 0.0
C2014 C 0.30062 0.68507 0.43368 0.0
C2015 C 0.29523 0.70212 0.43527 0.0
C2016 C 0.29122 0.71078 0.45245 0.0
H2017 H 0.26154 0.77812 0.3773 0.0
H2018 H 0.27275 0.76066 0.39897 0.0
C2019 C 0.29255 0.70248 0.46796 0.0
C2020 C 0.29308 0.71078 0.41895 0.0
H2021 H 0.3077 0.75227 0.40288 0.0
C2022 C 0.27866 0.70166 0.40547 0.0
C2023 C 0.304 0.72894 0.4178 0.0
C2024 C 0.31981 0.739 0.43188 0.0
C2025 C 0.27434 0.71079 0.39123 0.0
C2026 C 0.28493 0.72927 0.39044 0.0
C2027 C 0.29974 0.73803 0.40353 0.0
C2028 C 0.27977 0.74053 0.37733 0.0
C2029 C 0.25793 0.70119 0.37779 0.0
C2030 C 0.2805 0.73517 0.35814 0.0
C2031 C 0.27428 0.74524 0.34581 0.0
C2032 C 0.26723 0.76061 0.35265 0.0
C2033 C 0.26702 0.7663 0.37187 0.0
C2034 C 0.27336 0.75638 0.38417 0.0
H2035 H 0.24993 0.688 0.38182 0.0
H2036 H 0.24951 0.71128 0.37703 0.0
H2037 H 0.26182 0.69717 0.36366 0.0
H2038 H 0.28553 0.72301 0.35272 0.0
H2039 H 0.27439 0.74065 0.33096 0.0
H2040 H 0.68794 0.05511 0.68716 0.0
H2041 H 0.6674 0.04938 0.65894 0.0
H2042 H 0.62695 0.01317 0.68376 0.0
H2043 H 0.64715 0.01863 0.71186 0.0
H2044 H 0.64125 1.00567 0.63815 0.0
H2045 H 0.61315 0.06567 0.66916 0.0
H2046 H 0.63611 0.06626 0.67442 0.0
H2047 H 0.61923 0.05041 0.68387 0.0
C2048 C 0.67477 0.04567 0.68644 0.0
C2049 C 0.66901 0.03742 0.70164 0.0
C2050 C 0.66316 0.04246 0.67043 0.0
C2051 C 0.64589 0.03097 0.66967 0.0
C2052 C 0.64035 0.02207 0.68441 0.0
H2053 H 0.55638 0.02537 0.59109 0.0
H2054 H 0.57225 0.01748 0.61737 0.0
C2055 C 0.65186 0.02526 0.70036 0.0
C2056 C 0.63307 0.02909 0.65396 0.0
H2057 H 0.6001 0.04766 0.63975 0.0
C2058 C 0.63212 0.01468 0.63842 0.0
C2059 C 0.62133 0.04092 0.65482 0.0
C2060 C 0.62241 0.05677 0.6714 0.0
C2061 C 0.61962 0.01199 0.62319 0.0
C2062 C 0.60807 0.02408 0.62384 0.0
C2063 C 0.60876 0.03815 0.63967 0.0
C2064 C 0.59786 0.02523 0.60709 0.0
C2065 C 0.61925 0.99672 0.60635 0.0
C2066 C 0.60721 0.03214 0.59303 0.0
C2067 C 0.5984 0.03701 0.57854 0.0
C2068 C 0.5801 0.03511 0.57793 0.0
C2069 C 0.57052 0.02725 0.59152 0.0
C2070 C 0.57948 0.02257 0.60631 0.0
H2071 H 0.62426 0.98483 0.61025 0.0
H2072 H 0.60566 0.99069 0.59904 0.0
H2073 H 0.62798 1.00318 0.59649 0.0
H2074 H 0.62148 0.03468 0.59374 0.0
H2075 H 0.60609 0.04263 0.56803 0.0
H2076 H 0.34257 0.36454 0.97223 0.0
H2077 H 0.34127 0.35194 0.93895 0.0
H2078 H 0.28425 0.3329 0.93568 0.0
H2079 H 0.28557 0.34721 0.96878 0.0
H2080 H 0.33209 0.3195 0.91782 0.0
H2081 H 0.28648 0.36002 0.89436 0.0
H2082 H 0.29546 0.36416 0.91833 0.0
H2083 H 0.2767 0.34404 0.90901 0.0
C2084 C 0.32975 0.35773 0.96435 0.0
C2085 C 0.31416 0.35698 0.97299 0.0
C2086 C 0.329 0.35045 0.9453 0.0
C2087 C 0.31264 0.34174 0.93448 0.0
C2088 C 0.29703 0.34018 0.94338 0.0
H2089 H 0.30912 0.28313 0.81706 0.0
H2090 H 0.31009 0.28857 0.85125 0.0
C2091 C 0.29776 0.34817 0.96236 0.0
C2092 C 0.3122 0.33469 0.91397 0.0
H2093 H 0.29439 0.33795 0.8713 0.0
C2094 C 0.32383 0.32358 0.90769 0.0
C2095 C 0.30149 0.33998 0.90055 0.0
C2096 C 0.28947 0.35285 0.90588 0.0
C2097 C 0.32542 0.31817 0.8886 0.0
C2098 C 0.31466 0.32342 0.87532 0.0
C2099 C 0.30262 0.33391 0.88151 0.0
C2100 C 0.31647 0.31964 0.85499 0.0
C2101 C 0.33913 0.30765 0.88284 0.0
C2102 C 0.32006 0.33521 0.84575 0.0
C2103 C 0.3193 0.33211 0.8264 0.0
C2104 C 0.31525 0.31338 0.81579 0.0
C2105 C 0.31263 0.29772 0.82498 0.0
C2106 C 0.31316 0.30084 0.84449 0.0
H2107 H 0.34892 0.30842 0.89475 0.0
H2108 H 0.33247 0.29228 0.87721 0.0
H2109 H 0.34634 0.31366 0.87173 0.0
H2110 H 0.32273 0.34983 0.85349 0.0
H2111 H 0.32124 0.34439 0.81961 0.0
H2112 H 0.98846 0.09119 0.33856 0.0
H2113 H 1.00261 0.08972 0.3689 0.0
H2114 H 0.98978 0.02793 0.35325 0.0
H2115 H 0.9771 0.02963 0.32253 0.0
H2116 H 0.9953 0.07959 0.39781 0.0
H2117 H 0.03652 0.03104 0.37439 0.0
H2118 H 0.0248 0.04061 0.35809 0.0
H2119 H 0.01382 0.01927 0.36635 0.0
C2120 C 0.98893 0.07728 0.34143 0.0
C2121 C 0.98175 0.06057 0.32761 0.0
C2122 C 0.99704 0.07638 0.35905 0.0
C2123 C 0.99806 0.0587 0.36392 0.0
C2124 C 0.99033 0.04198 0.3502 0.0
H2125 H 0.0113 0.05022 0.48284 0.0
H2126 H 1.0012 0.05134 0.45105 0.0
C2127 C 0.98273 0.04294 0.33241 0.0
C2128 C 0.00639 0.05776 0.38334 0.0
H2129 H 0.03168 0.03456 0.40661 0.0
C2130 C 1.00334 0.06975 0.39946 0.0
C2131 C 0.0175 0.04545 0.38636 0.0
C2132 C 0.02352 0.03356 0.37036 0.0
C2133 C 0.01035 0.06947 0.41778 0.0
C2134 C 0.02026 0.05611 0.42086 0.0
C2135 C 0.02383 0.04454 0.40479 0.0
C2136 C 0.02669 0.05391 0.44047 0.0
C2137 C 0.00747 0.08415 0.43365 0.0
C2138 C 0.04437 0.05363 0.44568 0.0
C2139 C 0.05022 0.05258 0.46421 0.0
C2140 C 0.03856 0.05159 0.4782 0.0
C2141 C 0.02084 0.05112 0.47271 0.0
C2142 C 0.01502 0.05202 0.45435 0.0
H2143 H 0.00586 0.09725 0.42878 0.0
H2144 H 0.99513 0.07796 0.43957 0.0
H2145 H 0.01868 0.08852 0.44486 0.0
H2146 H 0.05386 0.05477 0.43554 0.0
H2147 H 0.06397 0.05307 0.46768 0.0
H2148 H 0.30315 0.70722 0.54724 0.0
H2149 H 0.29836 0.73079 0.57289 0.0
H2150 H 0.29406 0.68941 0.60889 0.0
H2151 H 0.29825 0.66535 0.58299 0.0
H2152 H 0.26762 0.71038 0.61106 0.0
H2153 H 0.33625 0.75756 0.6167 0.0
H2154 H 0.32393 0.75147 0.59404 0.0
H2155 H 0.33005 0.73301 0.60413 0.0
C2156 C 0.30152 0.70322 0.5607 0.0
C2157 C 0.30144 0.68461 0.56331 0.0
C2158 C 0.29863 0.71664 0.57524 0.0
C2159 C 0.29605 0.7118 0.59267 0.0
C2160 C 0.29602 0.69328 0.59541 0.0
H2161 H 0.3055 0.75078 0.70219 0.0
H2162 H 0.3012 0.73635 0.66924 0.0
C2163 C 0.29862 0.67969 0.58075 0.0
C2164 C 0.29411 0.72631 0.60831 0.0
H2165 H 0.31763 0.76695 0.63818 0.0
C2166 C 0.27838 0.72297 0.61681 0.0
C2167 C 0.30823 0.74268 0.61559 0.0
C2168 C 0.32564 0.74641 0.60728 0.0
C2169 C 0.27682 0.73517 0.63318 0.0
C2170 C 0.29129 0.7509 0.64094 0.0
C2171 C 0.3065 0.75499 0.63178 0.0
C2172 C 0.29282 0.75985 0.66053 0.0
C2173 C 0.2603 0.73052 0.64289 0.0
C2174 C 0.28988 0.77801 0.6662 0.0
C2175 C 0.29231 0.78632 0.68514 0.0
C2176 C 0.29756 0.77632 0.69822 0.0
C2177 C 0.30084 0.75838 0.69234 0.0
C2178 C 0.29847 0.75019 0.6736 0.0
H2179 H 0.24915 0.72003 0.63357 0.0
H2180 H 0.26311 0.72427 0.65514 0.0
H2181 H 0.25623 0.74384 0.64804 0.0
H2182 H 0.28574 0.78564 0.65605 0.0
H2183 H 0.28985 0.80027 0.68958 0.0
H2184 H 0.65555 0.0713 0.80338 0.0
H2185 H 0.64605 0.07152 0.83434 0.0
H2186 H 0.67059 0.02604 0.84102 0.0
H2187 H 0.68067 0.026 0.80983 0.0
H2188 H 0.62801 0.02438 0.84334 0.0
H2189 H 0.67939 0.08345 0.88918 0.0
H2190 H 0.67412 0.08709 0.86605 0.0
H2191 H 0.68439 0.06826 0.86907 0.0
C2192 C 0.65896 0.06135 0.8114 0.0
C2193 C 0.66852 0.04837 0.80423 0.0
C2194 C 0.65374 0.06167 0.8291 0.0
C2195 C 0.65783 0.0489 0.83972 0.0
C2196 C 0.66758 0.03607 0.83285 0.0
H2197 H 0.61275 0.06394 0.94459 0.0
H2198 H 0.63201 0.05457 0.92189 0.0
C2199 C 0.67315 0.03598 0.81514 0.0
C2200 C 0.64985 0.04791 0.85702 0.0
H2201 H 0.65016 0.07661 0.89878 0.0
C2202 C 0.63302 0.03529 0.85583 0.0
C2203 C 0.65655 0.06234 0.87295 0.0
C2204 C 0.67468 0.07602 0.87454 0.0
C2205 C 0.62197 0.0378 0.86973 0.0
C2206 C 0.62811 0.05331 0.88495 0.0
C2207 C 0.64553 0.06486 0.8869 0.0
C2208 C 0.61632 0.05864 0.89839 0.0
C2209 C 0.60357 0.02449 0.86753 0.0
C2210 C 0.60147 0.06446 0.89252 0.0
C2211 C 0.59032 0.06962 0.90539 0.0
C2212 C 0.5941 0.06916 0.9242 0.0
C2213 C 0.60941 0.06406 0.93006 0.0
C2214 C 0.62041 0.05875 0.91721 0.0
H2215 H 0.60282 0.01045 0.85838 0.0
H2216 H 0.5993 0.0219 0.88123 0.0
H2217 H 0.59413 0.03115 0.86098 0.0
H2218 H 0.59849 0.06492 0.87801 0.0
H2219 H 0.57856 0.07345 0.90059 0.0
H2220 H 0.31155 0.39548 0.09801 0.0
H2221 H 0.30609 0.37959 0.12443 0.0
H2222 H 0.29162 0.3243 0.08725 0.0
H2223 H 0.29787 0.34022 0.06063 0.0
H2224 H 0.27693 0.35776 0.13337 0.0
H2225 H 0.32634 0.31487 0.12418 0.0
H2226 H 0.3255 0.33335 0.11102 0.0
H2227 H 0.30996 0.31005 0.10458 0.0
C2228 C 0.30729 0.37992 0.0954 0.0
C2229 C 0.30525 0.36911 0.07719 0.0
C2230 C 0.30414 0.37084 0.11056 0.0
C2231 C 0.29869 0.35071 0.10794 0.0
C2232 C 0.29629 0.33982 0.08973 0.0
H2233 H 0.28304 0.27841 0.19162 0.0
H2234 H 0.28192 0.28996 0.16256 0.0
C2235 C 0.29976 0.34893 0.0745 0.0
C2236 C 0.2954 0.34146 0.12442 0.0
H2237 H 0.3086 0.31057 0.1487 0.0
C2238 C 0.28384 0.34739 0.13668 0.0
C2239 C 0.30431 0.32784 0.12874 0.0
C2240 C 0.31734 0.32125 0.11654 0.0
C2241 C 0.28107 0.3403 0.15318 0.0
C2242 C 0.29034 0.32709 0.15773 0.0
C2243 C 0.30152 0.32073 0.14524 0.0
C2244 C 0.28911 0.32008 0.17561 0.0
C2245 C 0.26812 0.34694 0.16545 0.0
C2246 C 0.29335 0.33309 0.19275 0.0
C2247 C 0.29329 0.32641 0.20952 0.0
C2248 C 0.2893 0.30658 0.20954 0.0
C2249 C 0.2852 0.29364 0.19233 0.0
C2250 C 0.28494 0.30029 0.17559 0.0
H2251 H 0.25816 0.35173 0.15737 0.0
H2252 H 0.26106 0.33536 0.17238 0.0
H2253 H 0.27542 0.35938 0.17636 0.0
H2254 H 0.2972 0.34843 0.19319 0.0
H2255 H 0.29684 0.33685 0.22247 0.0
H2256 H 0.28528 0.99076 0.04053 0.0
H2257 H 0.25901 1.00219 0.04441 0.0
H2258 H 0.23737 0.97341 0.98823 0.0
H2259 H 0.26362 0.96088 0.98457 0.0
H2260 H 0.24799 0.02543 0.02522 0.0
H2261 H 0.19614 0.95616 0.01758 0.0
H2262 H 0.21949 0.95752 0.02032 0.0
H2263 H 0.20904 0.959 0.99833 0.0
C2264 C 0.275 0.98692 0.02893 0.0
C2265 C 0.27646 0.97516 0.01216 0.0
C2266 C 0.25996 0.99336 0.03121 0.0
C2267 C 0.24627 0.98851 0.01665 0.0
C2268 C 0.24771 0.97694 0.99972 0.0
H2269 H 0.16099 0.04331 0.01988 0.0
H2270 H 0.1811 0.02405 0.0095 0.0
C2271 C 0.26271 0.97003 0.99757 0.0
C2272 C 0.23104 0.99653 0.01947 0.0
H2273 H 0.18696 0.9848 0.02466 0.0
C2274 C 0.23462 0.01655 0.02498 0.0
C2275 C 0.21369 0.98479 0.01912 0.0
C2276 C 0.20929 0.96316 0.01366 0.0
C2277 C 0.22145 0.02517 0.03096 0.0
C2278 C 0.20427 0.01344 0.03102 0.0
C2279 C 0.20035 0.99352 0.02473 0.0
C2280 C 0.19023 0.02205 0.03729 0.0
C2281 C 0.22599 0.04669 0.03761 0.0
C2282 C 0.18878 0.02695 0.05636 0.0
C2283 C 0.17719 0.03785 0.06241 0.0
C2284 C 0.16706 0.04393 0.04939 0.0
C2285 C 0.16836 0.03852 0.03024 0.0
C2286 C 0.1798 0.02754 0.02424 0.0
H2287 H 0.23983 0.05384 0.03564 0.0
H2288 H 0.21683 0.05292 0.03003 0.0
H2289 H 0.22431 0.04998 0.05265 0.0
H2290 H 0.19702 0.02287 0.06651 0.0
H2291 H 0.1763 0.0417 0.0772 0.0
H2292 H 0.74173 0.68531 1.00292 0.0
H2293 H 0.71197 0.66488 1.00293 0.0
H2294 H 0.7328 0.61515 0.99887 0.0
H2295 H 0.76279 0.63566 0.99961 0.0
H2296 H 0.69048 0.63561 0.9795 0.0
H2297 H 0.70687 0.61043 0.0438 0.0
H2298 H 0.72199 0.62951 0.0358 0.0
H2299 H 0.72019 0.60475 0.0257 0.0
C2300 C 0.74001 0.67 1.0019 0.0
C2301 C 0.75472 0.66217 1.00144 0.0
C2302 C 0.72293 0.65831 1.00193 0.0
C2303 C 0.72011 0.63849 1.00137 0.0
C2304 C 0.73465 0.63047 0.99992 0.0
H2305 H 0.6225 0.54783 0.99696 0.0
H2306 H 0.6521 0.56622 0.99265 0.0
C2307 C 0.7518 0.6422 1.00016 0.0
C2308 C 0.70199 0.62641 1.0026 0.0
H2309 H 0.6783 0.59545 0.02762 0.0
C2310 C 0.68786 0.62684 0.99003 0.0
C2311 C 0.69843 0.61511 0.0165 0.0
C2312 C 0.71263 0.61504 0.03134 0.0
C2313 C 0.67043 0.61616 0.99087 0.0
C2314 C 0.66702 0.60465 0.0045 0.0
C2315 C 0.68105 0.60413 0.01703 0.0
C2316 C 0.64883 0.59357 0.00643 0.0
C2317 C 0.65568 0.61725 0.97725 0.0
C2318 C 0.63718 0.60283 0.01556 0.0
C2319 C 0.62038 0.59227 0.01839 0.0
C2320 C 0.61477 0.57219 0.01199 0.0
C2321 C 0.62634 0.5631 1.00231 0.0
C2322 C 0.64328 0.57364 0.99976 0.0
H2323 H 0.66073 0.6251 0.96618 0.0
H2324 H 0.64768 0.60255 0.97065 0.0
H2325 H 0.64675 0.62477 0.98484 0.0
H2326 H 0.64121 0.61822 0.02078 0.0
H2327 H 0.61185 0.5999 0.02573 0.0
H2328 H 0.69684 0.4464 0.27312 0.0
H2329 H 0.71038 0.41963 0.27367 0.0
H2330 H 0.75259 0.44673 0.24455 0.0
H2331 H 0.73849 0.47308 0.24318 0.0
H2332 H 0.74796 0.41097 0.23213 0.0
H2333 H 0.74746 0.41279 0.30741 0.0
H2334 H 0.72547 0.40855 0.29634 0.0
H2335 H 0.74157 0.43107 0.29673 0.0
C2336 C 0.70906 0.44686 0.26686 0.0
C2337 C 0.71637 0.46251 0.25822 0.0
C2338 C 0.71709 0.43134 0.26736 0.0
C2339 C 0.73321 0.4307 0.25969 0.0
C2340 C 0.74036 0.44625 0.2508 0.0
H2341 H 0.79269 0.35016 0.29563 0.0
H2342 H 0.78004 0.37671 0.29179 0.0
C2343 C 0.73218 0.46163 0.25004 0.0
C2344 C 0.74237 0.41405 0.26066 0.0
H2345 H 0.75387 0.3855 0.28974 0.0
C2346 C 0.74933 0.40562 0.24488 0.0
C2347 C 0.74482 0.40655 0.2771 0.0
C2348 C 0.73962 0.41532 0.2954 0.0
C2349 C 0.75818 0.39056 0.24498 0.0
C2350 C 0.75998 0.38244 0.26126 0.0
C2351 C 0.75296 0.39097 0.27701 0.0
C2352 C 0.76942 0.36598 0.26278 0.0
C2353 C 0.76602 0.38421 0.22747 0.0
C2354 C 0.76875 0.35017 0.24803 0.0
C2355 C 0.77741 0.33536 0.24998 0.0
C2356 C 0.78663 0.33495 0.26705 0.0
C2357 C 0.7866 0.3501 0.28196 0.0
C2358 C 0.77881 0.36537 0.27978 0.0
H2359 H 0.76868 0.39557 0.21896 0.0
H2360 H 0.77864 0.38054 0.23068 0.0
H2361 H 0.75641 0.37145 0.2188 0.0
H2362 H 0.76096 0.34863 0.23494 0.0
H2363 H 0.776 0.32359 0.23831 0.0
H2364 H 0.86613 0.47832 0.49776 0.0
H2365 H 0.8978 0.49501 0.50173 0.0
H2366 H 0.90771 0.45869 0.53946 0.0
H2367 H 0.87641 0.44176 0.53534 0.0
H2368 H 0.92076 0.51365 0.53799 0.0
H2369 H 0.93949 0.45183 0.4964 0.0
H2370 H 0.91711 0.4543 0.49496 0.0
H2371 H 0.92572 0.44606 0.51439 0.0
C2372 C 0.87514 0.47392 0.50684 0.0
C2373 C 0.86901 0.45868 0.5161 0.0
C2374 C 0.89306 0.48348 0.50915 0.0
C2375 C 0.90481 0.47786 0.52078 0.0
C2376 C 0.89868 0.46294 0.53028 0.0
H2377 H 0.01602 0.4963 0.54213 0.0
H2378 H 0.98405 0.48658 0.54253 0.0
C2379 C 0.88089 0.45326 0.52782 0.0
C2380 C 0.92372 0.48695 0.52259 0.0
H2381 H 0.96268 0.47696 0.51353 0.0
C2382 C 0.93007 0.50582 0.53264 0.0
C2383 C 0.93549 0.47642 0.51558 0.0
C2384 C 0.92914 0.45607 0.50459 0.0
C2385 C 0.94828 0.51431 0.53654 0.0
C2386 C 0.96012 0.50364 0.52961 0.0
C2387 C 0.95357 0.48497 0.51908 0.0
C2388 C 0.97942 0.51131 0.53248 0.0
C2389 C 0.95448 0.53421 0.54849 0.0
C2390 C 0.98737 0.52866 0.52728 0.0
C2391 C 0.00566 0.53467 0.52803 0.0
C2392 C 0.01621 0.52278 0.53252 0.0
C2393 C 0.0082 0.50546 0.53788 0.0
C2394 C 0.98998 0.49998 0.53826 0.0
H2395 H 0.94442 0.53726 0.55778 0.0
H2396 H 0.96712 0.53614 0.5572 0.0
H2397 H 0.95652 0.54501 0.53936 0.0
H2398 H 0.97952 0.53743 0.52231 0.0
H2399 H 0.01133 0.54854 0.52495 0.0
H2400 H 0.40903 0.12029 0.32328 0.0
H2401 H 0.39457 0.14512 0.31697 0.0
H2402 H 0.36111 0.10449 0.27114 0.0
H2403 H 0.37492 0.07973 0.27755 0.0
H2404 H 0.39269 0.15852 0.28281 0.0
H2405 H 0.32602 0.12584 0.30139 0.0
H2406 H 0.34552 0.119 0.30897 0.0
H2407 H 0.33433 0.10911 0.28588 0.0
C2408 C 0.39837 0.11665 0.3121 0.0
C2409 C 0.39289 0.09809 0.30108 0.0
C2410 C 0.39023 0.13079 0.30849 0.0
C2411 C 0.37663 0.12639 0.29386 0.0
C2412 C 0.37127 0.10792 0.28282 0.0
H2413 H 0.33232 0.17736 0.2174 0.0
H2414 H 0.35272 0.16658 0.23684 0.0
C2415 C 0.37919 0.09382 0.28652 0.0
C2416 C 0.36825 0.14106 0.28934 0.0
H2417 H 0.32751 0.14783 0.28021 0.0
C2418 C 0.37851 0.1566 0.28268 0.0
C2419 C 0.3498 0.13839 0.28931 0.0
C2420 C 0.33831 0.12227 0.29695 0.0
C2421 C 0.37051 0.16894 0.27481 0.0
C2422 C 0.35188 0.16537 0.27352 0.0
C2423 C 0.34182 0.15054 0.28126 0.0
C2424 C 0.34218 0.17535 0.2626 0.0
C2425 C 0.38196 0.18524 0.26744 0.0
C2426 C 0.32954 0.18381 0.27068 0.0
C2427 C 0.31753 0.18941 0.25955 0.0
C2428 C 0.31803 0.18669 0.24015 0.0
C2429 C 0.33143 0.17931 0.23226 0.0
C2430 C 0.34332 0.17351 0.24339 0.0
H2431 H 0.39556 0.18993 0.27487 0.0
H2432 H 0.38307 0.1803 0.25248 0.0
H2433 H 0.37619 0.19777 0.26879 0.0
H2434 H 0.32838 0.18511 0.28548 0.0
H2435 H 0.30726 0.19486 0.26605 0.0
H2436 H 0.35521 0.16528 0.54329 0.0
H2437 H 0.38141 0.15322 0.54598 0.0
H2438 H 0.38113 0.14317 0.48616 0.0
H2439 H 0.35547 0.15662 0.48361 0.0
H2440 H 0.38359 0.11923 0.53486 0.0
H2441 H 0.43254 0.1657 0.49965 0.0
H2442 H 0.41202 0.17115 0.50525 0.0
H2443 H 0.41244 0.15357 0.48488 0.0
C2444 C 0.3609 0.16073 0.53073 0.0
C2445 C 0.35332 0.16181 0.51324 0.0
C2446 C 0.37589 0.15384 0.53226 0.0
C2447 C 0.38346 0.14738 0.51631 0.0
C2448 C 0.37594 0.14855 0.49875 0.0
H2449 H 0.45933 0.07717 0.50811 0.0
H2450 H 0.43842 0.09547 0.5004 0.0
C2451 C 0.36117 0.15605 0.49726 0.0
C2452 C 0.3982 0.13804 0.5183 0.0
H2453 H 0.44024 0.13838 0.50773 0.0
C2454 C 0.39599 0.12357 0.52898 0.0
C2455 C 0.41441 0.1435 0.51052 0.0
C2456 C 0.41809 0.15945 0.49959 0.0
C2457 C 0.40944 0.11464 0.53231 0.0
C2458 C 0.42559 0.12016 0.52464 0.0
C2459 C 0.42779 0.13424 0.51358 0.0
C2460 C 0.44035 0.11156 0.52846 0.0
C2461 C 0.40626 0.09935 0.54407 0.0
C2462 C 0.44885 0.11518 0.54659 0.0
C2463 C 0.46075 0.10482 0.55101 0.0
C2464 C 0.4644 0.09064 0.53737 0.0
C2465 C 0.45681 0.08802 0.5189 0.0
C2466 C 0.44484 0.09841 0.51448 0.0
H2467 H 0.39199 0.09392 0.54561 0.0
H2468 H 0.41137 0.08703 0.53794 0.0
H2469 H 0.41342 0.10551 0.55818 0.0
H2470 H 0.4457 0.12547 0.5575 0.0
H2471 H 0.46665 0.10742 0.56528 0.0
H2472 H 0.71105 0.58291 0.30646 0.0
H2473 H 0.72661 0.61669 0.30701 0.0
H2474 H 0.73508 0.6019 0.24949 0.0
H2475 H 0.71991 0.568 0.24901 0.0
H2476 H 0.76726 0.63048 0.28324 0.0
H2477 H 0.70493 0.65161 0.26974 0.0
H2478 H 0.70542 0.63341 0.28343 0.0
H2479 H 0.70726 0.62833 0.25896 0.0
C2480 C 0.71648 0.58673 0.29398 0.0
C2481 C 0.71441 0.57238 0.2778 0.0
C2482 C 0.72535 0.6062 0.29429 0.0
C2483 C 0.73217 0.6122 0.2783 0.0
C2484 C 0.73023 0.59789 0.26214 0.0
H2485 H 0.76208 0.73008 0.25464 0.0
H2486 H 0.74919 0.69621 0.25504 0.0
C2487 C 0.7216 0.57835 0.26192 0.0
C2488 C 0.74087 0.63334 0.27837 0.0
H2489 H 0.7315 0.67593 0.2738 0.0
C2490 C 0.75943 0.64042 0.28119 0.0
C2491 C 0.73089 0.64653 0.27547 0.0
C2492 C 0.711 0.63978 0.2717 0.0
C2493 C 0.76817 0.65996 0.28111 0.0
C2494 C 0.75819 0.67348 0.27872 0.0
C2495 C 0.73953 0.66617 0.27579 0.0
C2496 C 0.76662 0.69487 0.2786 0.0
C2497 C 0.78814 0.66551 0.28288 0.0
C2498 C 0.78088 0.70642 0.29172 0.0
C2499 C 0.78879 0.72594 0.29105 0.0
C2500 C 0.78229 0.73511 0.27776 0.0
C2501 C 0.76763 0.72385 0.26513 0.0
C2502 C 0.7601 0.7042 0.26542 0.0
H2503 H 0.79336 0.65287 0.27821 0.0
H2504 H 0.79336 0.67656 0.27456 0.0
H2505 H 0.7933 0.67126 0.29774 0.0
H2506 H 0.78594 0.70049 0.30275 0.0
H2507 H 0.79983 0.73399 0.30125 0.0
H2508 H 0.87969 0.51505 0.82795 0.0
H2509 H 0.86121 0.48203 0.821 0.0
H2510 H 0.905 0.46225 0.79989 0.0
H2511 H 0.92373 0.49531 0.80665 0.0
H2512 H 0.86701 0.45453 0.7754 0.0
H2513 H 0.86891 0.4328 0.84466 0.0
H2514 H 0.86802 0.45686 0.84292 0.0
H2515 H 0.88775 0.44946 0.83838 0.0
C2516 C 0.88555 0.50366 0.82219 0.0
C2517 C 0.90311 0.50773 0.81767 0.0
C2518 C 0.87495 0.4849 0.8182 0.0
C2519 C 0.88185 0.47006 0.80983 0.0
C2520 C 0.8996 0.47379 0.80629 0.0
H2521 H 0.85755 0.3517 0.77794 0.0
H2522 H 0.86853 0.38627 0.79 0.0
C2523 C 0.91025 0.49258 0.81027 0.0
C2524 C 0.87025 0.45074 0.80377 0.0
H2525 H 0.85441 0.40922 0.81881 0.0
C2526 C 0.86383 0.44462 0.78487 0.0
C2527 C 0.86632 0.43821 0.81635 0.0
C2528 C 0.87306 0.44452 0.83675 0.0
C2529 C 0.85394 0.42568 0.77803 0.0
C2530 C 0.85055 0.41291 0.79054 0.0
C2531 C 0.85659 0.41929 0.8095 0.0
C2532 C 0.84332 0.39227 0.78381 0.0
C2533 C 0.84814 0.41909 0.75742 0.0
C2534 C 0.82557 0.38451 0.77639 0.0
C2535 C 0.81934 0.36479 0.76949 0.0
C2536 C 0.8308 0.35296 0.77048 0.0
C2537 C 0.84853 0.36077 0.77764 0.0
C2538 C 0.85474 0.38036 0.78444 0.0
H2539 H 0.85323 0.43049 0.74941 0.0
H2540 H 0.85281 0.40626 0.75192 0.0
H2541 H 0.83346 0.41485 0.75504 0.0
H2542 H 0.81666 0.39367 0.77589 0.0
H2543 H 0.80566 0.35878 0.7636 0.0
H2544 H 0.10062 0.86697 0.05827 0.0
H2545 H 0.09518 0.89545 0.04794 0.0
H2546 H 0.06608 0.90572 0.09489 0.0
H2547 H 0.07136 0.87721 0.10529 0.0
H2548 H 0.05199 0.90608 0.04934 0.0
H2549 H 0.11563 0.95548 0.08497 0.0
H2550 H 0.11442 0.93088 0.07456 0.0
H2551 H 0.10398 0.93589 0.09523 0.0
C2552 C 0.093 0.8752 0.06641 0.0
C2553 C 0.08644 0.86959 0.08268 0.0
C2554 C 0.08987 0.89153 0.06043 0.0
C2555 C 0.08016 0.90283 0.07056 0.0
C2556 C 0.07351 0.89725 0.08672 0.0
H2557 H 0.06651 0.01716 0.07394 0.0
H2558 H 0.06967 0.9861 0.07923 0.0
C2559 C 0.07656 0.88087 0.09267 0.0
C2560 C 0.07737 0.92071 0.06461 0.0
H2561 H 0.09627 0.96908 0.06945 0.0
C2562 C 0.06173 0.91983 0.05361 0.0
C2563 C 0.08999 0.93873 0.07015 0.0
C2564 C 0.10701 0.94053 0.08189 0.0
C2565 C 0.05831 0.93645 0.0483 0.0
C2566 C 0.07088 0.95458 0.05403 0.0
C2567 C 0.08658 0.95532 0.06491 0.0
C2568 C 0.06762 0.97314 0.05009 0.0
C2569 C 0.04095 0.93462 0.0372 0.0
C2570 C 0.06519 0.97656 0.03183 0.0
C2571 C 0.06345 0.99463 0.02872 0.0
C2572 C 0.0639 0.00965 0.04381 0.0
C2573 C 0.06597 1.00597 0.06195 0.0
C2574 C 0.06783 0.98812 0.06503 0.0
H2575 H 0.03134 0.92054 0.03682 0.0
H2576 H 0.035 0.94627 0.04322 0.0
H2577 H 0.04328 0.93604 0.02268 0.0
H2578 H 0.06524 0.96548 0.01996 0.0
H2579 H 0.06227 0.997 0.01459 0.0
H2580 H 0.95846 0.26421 0.90904 0.0
H2581 H 0.93266 0.2671 0.89029 0.0
H2582 H 0.96655 0.28847 0.85027 0.0
H2583 H 0.9921 0.28421 0.86833 0.0
H2584 H 0.92205 0.29427 0.88141 0.0
H2585 H 0.93049 0.25289 0.81355 0.0
H2586 H 0.94386 0.25339 0.83459 0.0
H2587 H 0.94939 0.27275 0.82192 0.0
C2588 C 0.96039 0.26923 0.89607 0.0
C2589 C 0.97744 0.27367 0.89013 0.0
C2590 C 0.94554 0.27098 0.8853 0.0
C2591 C 0.94721 0.27759 0.86835 0.0
C2592 C 0.9644 0.28251 0.86269 0.0
H2593 H 0.87423 0.30497 0.78736 0.0
H2594 H 0.89957 0.30037 0.80551 0.0
C2595 C 0.97918 0.28023 0.8732 0.0
C2596 C 0.93114 0.27996 0.85718 0.0
H2597 H 0.9094 0.27121 0.81314 0.0
C2598 C 0.9193 0.28903 0.8665 0.0
C2599 C 0.92719 0.27331 0.83758 0.0
C2600 C 0.93831 0.26238 0.82637 0.0
C2601 C 0.9042 0.29197 0.857 0.0
C2602 C 0.90033 0.28543 0.8374 0.0
C2603 C 0.91214 0.27635 0.82808 0.0
C2604 C 0.88444 0.28809 0.82624 0.0
C2605 C 0.89288 0.30265 0.86817 0.0
C2606 C 0.86709 0.28257 0.83137 0.0
C2607 C 0.85251 0.28544 0.82102 0.0
C2608 C 0.85468 0.29334 0.80485 0.0
C2609 C 0.87191 0.29847 0.79948 0.0
C2610 C 0.88652 0.29593 0.80999 0.0
H2611 H 0.90041 0.31179 0.88129 0.0
H2612 H 0.88761 0.31194 0.86009 0.0
H2613 H 0.88156 0.2921 0.87205 0.0
H2614 H 0.86472 0.27585 0.84333 0.0
H2615 H 0.83945 0.28116 0.82552 0.0
H2616 H 0.61137 0.2665 0.57128 0.0
H2617 H 0.60947 0.23232 0.55949 0.0
H2618 H 0.5606 0.21604 0.5837 0.0
H2619 H 0.56261 0.24997 0.59583 0.0
H2620 H 0.60546 0.2028 0.58618 0.0
H2621 H 0.5529 0.18463 0.52665 0.0
H2622 H 0.56706 0.20869 0.53462 0.0
H2623 H 0.54942 0.19942 0.54772 0.0
C2624 C 0.60001 0.25566 0.57369 0.0
C2625 C 0.58708 0.26103 0.5844 0.0
C2626 C 0.59901 0.2361 0.56707 0.0
C2627 C 0.58486 0.22154 0.57064 0.0
C2628 C 0.57158 0.22694 0.58065 0.0
H2629 H 0.56755 0.10246 0.57873 0.0
H2630 H 0.57487 0.13748 0.58358 0.0
C2631 C 0.57274 0.24639 0.58755 0.0
C2632 C 0.58438 0.20071 0.56511 0.0
H2633 H 0.56106 0.15857 0.53666 0.0
C2634 C 0.5959 0.19316 0.57519 0.0
C2635 C 0.57199 0.18809 0.55074 0.0
C2636 C 0.55966 0.19551 0.53915 0.0
C2637 C 0.59499 0.17333 0.57171 0.0
C2638 C 0.58205 0.1605 0.55785 0.0
C2639 C 0.57097 0.16822 0.5473 0.0
C2640 C 0.57902 0.13902 0.5549 0.0
C2641 C 0.60796 0.16638 0.58301 0.0
C2642 C 0.57857 0.12782 0.53707 0.0
C2643 C 0.57415 0.10757 0.53423 0.0
C2644 C 0.5702 0.0981 0.54919 0.0
C2645 C 0.57094 0.10932 0.567 0.0
C2646 C 0.57522 0.12944 0.56981 0.0
H2647 H 0.62038 0.1779 0.58789 0.0
H2648 H 0.60199 0.16223 0.59552 0.0
H2649 H 0.61132 0.15371 0.57488 0.0
H2650 H 0.58126 0.13473 0.52525 0.0
H2651 H 0.57314 0.09934 0.52024 0.0
H2652 H 0.58873 0.80231 0.41277 0.0
H2653 H 0.61536 0.80381 0.39669 0.0
H2654 H 0.58651 0.75502 0.35486 0.0
H2655 H 0.55948 0.75471 0.37018 0.0
H2656 H 0.63608 0.78318 0.38979 0.0
H2657 H 0.60689 0.78672 0.32032 0.0
H2658 H 0.59485 0.78834 0.34041 0.0
H2659 H 0.59569 0.76521 0.32762 0.0
C2660 C 0.58804 0.79212 0.39994 0.0
C2661 C 0.57195 0.77866 0.3925 0.0
C2662 C 0.60334 0.79288 0.39078 0.0
C2663 C 0.6031 0.77986 0.37412 0.0
C2664 C 0.58708 0.76586 0.36713 0.0
H2665 H 0.68646 0.76369 0.30247 0.0
H2666 H 0.66141 0.75791 0.32131 0.0
C2667 C 0.5716 0.76554 0.37597 0.0
C2668 C 0.61964 0.78096 0.36439 0.0
H2669 H 0.63564 0.7817 0.32193 0.0
C2670 C 0.63589 0.78294 0.37496 0.0
C2671 C 0.61973 0.78076 0.34497 0.0
C2672 C 0.6034 0.78035 0.33273 0.0
C2673 C 0.65191 0.78464 0.36676 0.0
C2674 C 0.65183 0.78409 0.34738 0.0
C2675 C 0.63568 0.78187 0.33676 0.0
C2676 C 0.6684 0.78673 0.33787 0.0
C2677 C 0.66886 0.78699 0.37886 0.0
C2678 C 0.6809 0.80473 0.34107 0.0
C2679 C 0.69513 0.80805 0.33024 0.0
C2680 C 0.69732 0.79338 0.31613 0.0
C2681 C 0.6853 0.77512 0.3135 0.0
C2682 C 0.67092 0.77187 0.32417 0.0
H2683 H 0.66633 0.78332 0.3927 0.0
H2684 H 0.67689 0.7778 0.37194 0.0
H2685 H 0.67681 0.80217 0.38107 0.0
H2686 H 0.67916 0.81651 0.35133 0.0
H2687 H 0.70399 0.82235 0.33232 0.0
H2688 H 0.11274 0.29601 0.44519 0.0
H2689 H 0.10719 0.26837 0.46037 0.0
H2690 H 0.09276 0.23011 0.40688 0.0
H2691 H 0.09827 0.25783 0.39136 0.0
H2692 H 0.06669 0.22739 0.43579 0.0
H2693 H 0.13433 0.2252 0.4613 0.0
H2694 H 0.13036 0.24866 0.46364 0.0
H2695 H 0.12983 0.23468 0.44085 0.0
C2696 C 0.10875 0.28174 0.43657 0.0
C2697 C 0.10588 0.27908 0.41707 0.0
C2698 C 0.10564 0.26598 0.44529 0.0
C2699 C 0.09971 0.24734 0.43468 0.0
C2700 C 0.09745 0.24449 0.4152 0.0
H2701 H 0.05894 0.14474 0.48116 0.0
H2702 H 0.06825 0.16571 0.45897 0.0
C2703 C 0.10064 0.2603 0.4064 0.0
C2704 C 0.09433 0.23113 0.44425 0.0
H2705 H 0.11027 0.20806 0.47525 0.0
C2706 C 0.07617 0.22279 0.44411 0.0
C2707 C 0.10683 0.2255 0.45517 0.0
C2708 C 0.12646 0.23383 0.45523 0.0
C2709 C 0.07013 0.20944 0.45539 0.0
C2710 C 0.08262 0.20432 0.46681 0.0
C2711 C 0.1008 0.21215 0.46644 0.0
C2712 C 0.07702 0.19165 0.48005 0.0
C2713 C 0.05048 0.2016 0.45578 0.0
C2714 C 0.07903 0.19944 0.49914 0.0
C2715 C 0.07384 0.18755 0.51185 0.0
C2716 C 0.06665 0.16768 0.50563 0.0
C2717 C 0.0646 0.15997 0.4864 0.0
C2718 C 0.0698 0.17189 0.4737 0.0
H2719 H 0.04253 0.20839 0.44729 0.0
H2720 H 0.04665 0.18586 0.4503 0.0
H2721 H 0.0471 0.20396 0.47035 0.0
H2722 H 0.08463 0.21472 0.50418 0.0
H2723 H 0.07581 0.19385 0.52657 0.0
H2724 H 0.56664 0.25736 0.15127 0.0
H2725 H 0.59524 0.25207 0.15998 0.0
H2726 H 0.5982 0.28801 0.21397 0.0
H2727 H 0.56907 0.29274 0.20565 0.0
H2728 H 0.62857 0.27408 0.17175 0.0
H2729 H 0.59981 0.23691 0.22706 0.0
H2730 H 0.58638 0.24376 0.20994 0.0
H2731 H 0.59826 0.26127 0.22987 0.0
C2732 C 0.5735 0.26446 0.16489 0.0
C2733 C 0.56555 0.27524 0.17793 0.0
C2734 C 0.58983 0.26139 0.16982 0.0
C2735 C 0.59851 0.26924 0.18775 0.0
C2736 C 0.59136 0.28139 0.20024 0.0
H2737 H 0.70021 0.27613 0.23756 0.0
H2738 H 0.67443 0.28064 0.22059 0.0
C2739 C 0.57484 0.2842 0.19544 0.0
C2740 C 0.61438 0.26358 0.19373 0.0
H2741 H 0.63091 0.24262 0.22629 0.0
C2742 C 0.62909 0.26713 0.18361 0.0
C2743 C 0.61474 0.254 0.20888 0.0
C2744 C 0.59889 0.24856 0.21945 0.0
C2745 C 0.64451 0.26204 0.1888 0.0
C2746 C 0.64515 0.25345 0.20455 0.0
C2747 C 0.63026 0.24927 0.21423 0.0
C2748 C 0.66159 0.25026 0.21235 0.0
C2749 C 0.66003 0.26593 0.17755 0.0
C2750 C 0.66274 0.23163 0.21331 0.0
C2751 C 0.67759 0.22893 0.22286 0.0
C2752 C 0.69133 0.24487 0.23175 0.0
C2753 C 0.69009 0.2635 0.23053 0.0
C2754 C 0.67538 0.26615 0.22084 0.0
H2755 H 0.65603 0.26832 0.16354 0.0
H2756 H 0.67011 0.27903 0.18497 0.0
H2757 H 0.66631 0.25377 0.17588 0.0
H2758 H 0.65202 0.21925 0.20695 0.0
H2759 H 0.67827 0.21442 0.22338 0.0
H2760 H 0.60937 0.86878 0.94933 0.0
H2761 H 0.60826 0.90001 0.96704 0.0
H2762 H 0.61774 0.92509 0.91829 0.0
H2763 H 0.61844 0.89392 0.90039 0.0
H2764 H 0.63174 0.93783 0.97394 0.0
H2765 H 0.56878 0.93133 0.93072 0.0
H2766 H 0.57856 0.91143 0.93051 0.0
H2767 H 0.58747 0.93008 0.91801 0.0
C2768 C 0.61154 0.88105 0.94253 0.0
C2769 C 0.61371 0.879 0.9235 0.0
C2770 C 0.61092 0.8988 0.95261 0.0
C2771 C 0.61264 0.91457 0.94377 0.0
C2772 C 0.6161 0.91288 0.92515 0.0
H2773 H 0.58229 0.01965 0.98309 0.0
H2774 H 0.59614 0.99688 0.96505 0.0
C2775 C 0.61649 0.89513 0.91501 0.0
C2776 C 0.60919 0.93227 0.95355 0.0
H2777 H 0.57918 0.95888 0.95412 0.0
C2778 C 0.62037 0.94261 0.96958 0.0
C2779 C 0.59429 0.93825 0.94766 0.0
C2780 C 0.58148 0.92715 0.93088 0.0
C2781 C 0.61687 0.95884 0.98015 0.0
C2782 C 0.60172 0.96449 0.97454 0.0
C2783 C 0.59086 0.95448 0.9582 0.0
C2784 C 0.59577 0.97954 0.98623 0.0
C2785 C 0.62925 0.96964 0.9973 0.0
C2786 C 0.59097 0.9771 0.00392 0.0
C2787 C 0.58313 0.99001 0.01415 0.0
C2788 C 0.57986 1.00531 0.00667 0.0
C2789 C 0.58472 1.00783 0.98901 0.0
C2790 C 0.59271 0.99501 0.97883 0.0
H2791 H 0.64271 0.96738 0.99638 0.0
H2792 H 0.6303 0.9853 0.99946 0.0
H2793 H 0.62408 0.96427 0.00968 0.0
H2794 H 0.59262 0.96478 0.00949 0.0
H2795 H 0.57892 0.98747 0.02742 0.0
H2796 H 0.97305 0.7694 0.72733 0.0
H2797 H 0.9427 0.76747 0.73426 0.0
H2798 H 0.93166 0.78683 0.68356 0.0
H2799 H 0.9621 0.78896 0.67648 0.0
H2800 H 0.92254 0.80695 0.71613 0.0
H2801 H 0.89614 0.72807 0.70879 0.0
H2802 H 0.91719 0.73762 0.72269 0.0
H2803 H 0.91553 0.73884 0.69839 0.0
C2804 C 0.96421 0.77334 0.71769 0.0
C2805 C 0.96991 0.77942 0.70143 0.0
C2806 C 0.94685 0.77194 0.72152 0.0
C2807 C 0.935 0.77649 0.70911 0.0
C2808 C 0.94069 0.78297 0.69307 0.0
H2809 H 0.82575 0.77415 0.72362 0.0
H2810 H 0.85398 0.77653 0.7103 0.0
C2811 C 0.95808 0.78439 0.68921 0.0
C2812 C 0.91718 0.77631 0.71398 0.0
H2813 H 0.87987 0.7478 0.72591 0.0
C2814 C 0.91306 0.794 0.71798 0.0
C2815 C 0.905 0.75931 0.71628 0.0
C2816 C 0.90858 0.73984 0.71114 0.0
C2817 C 0.89726 0.79528 0.72515 0.0
C2818 C 0.88548 0.77852 0.7284 0.0
C2819 C 0.88922 0.76066 0.72366 0.0
C2820 C 0.86912 0.77918 0.73672 0.0
C2821 C 0.89352 0.81457 0.72989 0.0
C2822 C 0.86862 0.78011 0.75595 0.0
C2823 C 0.85255 0.77866 0.76354 0.0
C2824 C 0.8371 0.77644 0.75187 0.0
C2825 C 0.83771 0.77597 0.73274 0.0
C2826 C 0.85369 0.77736 0.72518 0.0
H2827 H 0.90383 0.82621 0.72597 0.0
H2828 H 0.88054 0.81395 0.72254 0.0
H2829 H 0.89288 0.818 0.74513 0.0
H2830 H 0.88055 0.78149 0.76492 0.0
H2831 H 0.85213 0.77904 0.77834 0.0
H2832 H 0.1193 0.0454 0.81728 0.0
H2833 H 0.1065 0.04718 0.84721 0.0
H2834 H 0.14069 0.01505 0.86639 0.0
H2835 H 0.15323 0.0128 0.83633 0.0
H2836 H 0.0909 0.01093 0.86854 0.0
H2837 H 0.14713 0.06986 0.90698 0.0
H2838 H 0.14154 0.06708 0.88219 0.0
H2839 H 0.15162 0.0504 0.89092 0.0
C2840 C 0.12412 0.03858 0.82776 0.0
C2841 C 0.13748 0.0289 0.82393 0.0
C2842 C 0.11669 0.03961 0.84506 0.0
C2843 C 0.12246 0.03134 0.85956 0.0
C2844 C 0.13578 0.02165 0.85578 0.0
H2845 H 0.10534 0.04581 0.9804 0.0
H2846 H 0.11677 0.04118 0.95001 0.0
C2847 C 0.14301 0.02033 0.83836 0.0
C2848 C 0.11485 0.03308 0.87853 0.0
H2849 H 0.1238 0.05813 0.92394 0.0
C2850 C 0.09813 0.02131 0.88061 0.0
C2851 C 0.12409 0.04628 0.89474 0.0
C2852 C 0.14209 0.05925 0.89381 0.0
C2853 C 0.09067 0.02223 0.898 0.0
C2854 C 0.09964 0.03597 0.9142 0.0
C2855 C 0.11648 0.04761 0.91201 0.0
C2856 C 0.09212 0.03839 0.93336 0.0
C2857 C 0.07349 1.00767 0.8988 0.0
C2858 C 0.07427 0.03871 0.93519 0.0
C2859 C 0.06755 0.04101 0.95283 0.0
C2860 C 0.07839 0.04362 0.96972 0.0
C2861 C 0.09632 0.04379 0.96799 0.0
C2862 C 0.10297 0.04116 0.95033 0.0
H2863 H 0.07178 0.99443 0.88806 0.0
H2864 H 0.07279 1.0035 0.91265 0.0
H2865 H 0.06227 0.01387 0.89594 0.0
H2866 H 0.06539 0.03756 0.92293 0.0
H2867 H 0.05384 0.04126 0.95318 0.0
H2868 H 0.83886 0.43605 0.57433 0.0
H2869 H 0.84429 0.42345 0.60217 0.0
H2870 H 0.79266 0.38299 0.59001 0.0
H2871 H 0.78773 0.3947 0.56125 0.0
H2872 H 0.82992 0.42027 0.63294 0.0
H2873 H 0.82331 0.3473 0.59158 0.0
H2874 H 0.82352 0.36771 0.58085 0.0
H2875 H 0.80351 0.35507 0.58888 0.0
C2876 C 0.82856 0.42464 0.57777 0.0
C2877 C 0.8129 0.4162 0.56577 0.0
C2878 C 0.83169 0.41746 0.59363 0.0
C2879 C 0.81903 0.40202 0.59787 0.0
C2880 C 0.80281 0.39451 0.58659 0.0
H2881 H 0.82419 0.3303 0.67847 0.0
H2882 H 0.81337 0.34938 0.65853 0.0
C2883 C 0.79992 0.40129 0.57036 0.0
C2884 C 0.82333 0.39317 0.6135 0.0
H2885 H 0.82688 0.35073 0.62428 0.0
C2886 C 0.82918 0.40505 0.6311 0.0
C2887 C 0.82271 0.37339 0.61088 0.0
C2888 C 0.81812 0.36018 0.59199 0.0
C2889 C 0.83423 0.39758 0.64627 0.0
C2890 C 0.83317 0.37775 0.6437 0.0
C2891 C 0.82728 0.36588 0.62617 0.0
C2892 C 0.83906 0.36896 0.6586 0.0
C2893 C 0.84071 0.4109 0.66485 0.0
C2894 C 0.85699 0.37408 0.66552 0.0
C2895 C 0.86318 0.36342 0.67714 0.0
C2896 C 0.85157 0.34726 0.68167 0.0
C2897 C 0.83344 0.34278 0.67542 0.0
C2898 C 0.82724 0.35358 0.66396 0.0
H2899 H 0.83645 0.4244 0.66574 0.0
H2900 H 0.83585 0.40381 0.67645 0.0
H2901 H 0.8554 0.41481 0.66672 0.0
H2902 H 0.86635 0.38569 0.6612 0.0
H2903 H 0.87717 0.36738 0.682 0.0
H2904 H 0.48495 0.09917 0.36016 0.0
H2905 H 0.49857 0.09908 0.39105 0.0
H2906 H 0.45237 0.05622 0.39915 0.0
H2907 H 0.43845 0.05681 0.36852 0.0
H2908 H 0.48101 0.09098 0.43386 0.0
H2909 H 0.50288 0.03725 0.38315 0.0
H2910 H 0.49964 0.05868 0.37615 0.0
H2911 H 0.48093 0.04065 0.38019 0.0
C2912 C 0.47731 0.09074 0.36909 0.0
C2913 C 0.46075 0.07813 0.3623 0.0
C2914 C 0.48504 0.09067 0.38664 0.0
C2915 C 0.4764 0.0776 0.39711 0.0
C2916 C 0.45901 0.06657 0.39125 0.0
H2917 H 0.5249 0.02188 0.47128 0.0
H2918 H 0.50657 0.02929 0.44695 0.0
C2919 C 0.45111 0.06695 0.37384 0.0
C2920 C 0.48713 0.07187 0.41093 0.0
H2921 H 0.51585 0.04411 0.41399 0.0
C2922 C 0.48859 0.08071 0.42965 0.0
C2923 C 0.49671 0.05825 0.40513 0.0
C2924 C 0.49503 0.04805 0.38509 0.0
C2925 C 0.49989 0.07647 0.44289 0.0
C2926 C 0.51006 0.06351 0.4369 0.0
C2927 C 0.50819 0.05431 0.41826 0.0
C2928 C 0.52225 0.0587 0.44996 0.0
C2929 C 0.50077 0.08563 0.46313 0.0
C2930 C 0.53752 0.07259 0.45879 0.0
C2931 C 0.54811 0.06835 0.47253 0.0
C2932 C 0.54331 0.05026 0.47752 0.0
C2933 C 0.5287 0.03599 0.46772 0.0
C2934 C 0.51823 0.04019 0.45393 0.0
H2935 H 0.48955 0.09213 0.46587 0.0
H2936 H 0.50068 0.07487 0.47214 0.0
H2937 H 0.51331 0.09713 0.46715 0.0
H2938 H 0.54084 0.08685 0.45551 0.0
H2939 H 0.55932 0.07955 0.48003 0.0
H2940 H 0.80704 0.70477 0.07673 0.0
H2941 H 0.80609 0.71874 0.10903 0.0
H2942 H 0.81334 0.77481 0.0949 0.0
H2943 H 0.81352 0.76058 0.06196 0.0
H2944 H 0.83007 0.74434 0.13317 0.0
H2945 H 0.7716 0.7735 0.12406 0.0
H2946 H 0.77781 0.75769 0.10542 0.0
H2947 H 0.78983 0.78262 0.11159 0.0
C2948 C 0.80848 0.72011 0.08038 0.0
C2949 C 0.81033 0.73155 0.06667 0.0
C2950 C 0.8079 0.7281 0.09895 0.0
C2951 C 0.80937 0.74781 0.10449 0.0
C2952 C 0.81169 0.75947 0.09095 0.0
H2953 H 0.8069 0.80403 0.22118 0.0
H2954 H 0.80801 0.79934 0.1872 0.0
C2955 C 0.81196 0.75136 0.07215 0.0
C2956 C 0.8087 0.75572 0.12454 0.0
H2957 H 0.78459 0.77725 0.15477 0.0
C2958 C 0.82019 0.75166 0.13783 0.0
C2959 C 0.79593 0.76546 0.13074 0.0
C2960 C 0.78298 0.76998 0.11725 0.0
C2961 C 0.81888 0.75638 0.15697 0.0
C2962 C 0.80558 0.76529 0.16313 0.0
C2963 C 0.79466 0.77028 0.14999 0.0
C2964 C 0.80227 0.76831 0.18306 0.0
C2965 C 0.83164 0.75151 0.17043 0.0
C2966 C 0.79776 0.75243 0.19179 0.0
C2967 C 0.79725 0.75508 0.21102 0.0
C2968 C 0.80079 0.77364 0.22191 0.0
C2969 C 0.80395 0.78956 0.21306 0.0
C2970 C 0.80467 0.78689 0.1937 0.0
H2971 H 0.84399 0.75027 0.16422 0.0
H2972 H 0.8352 0.76251 0.1835 0.0
H2973 H 0.82535 0.73743 0.17401 0.0
H2974 H 0.79541 0.73795 0.1838 0.0
H2975 H 0.79476 0.74259 0.21753 0.0
H2976 H 0.16032 1.00201 0.69453 0.0
H2977 H 0.14657 1.00766 0.6657 0.0
H2978 H 0.11299 0.03621 0.69753 0.0
H2979 H 0.12674 0.03076 0.7263 0.0
H2980 H 0.11453 0.99775 0.64615 0.0
H2981 H 0.13052 0.07675 0.66825 0.0
H2982 H 0.13953 0.06196 0.68137 0.0
H2983 H 0.11742 0.06437 0.68379 0.0
C2984 C 0.14993 0.0094 0.69553 0.0
C2985 C 0.14489 0.0158 0.71328 0.0
C2986 C 0.14198 0.01272 0.67879 0.0
C2987 C 0.12876 0.02291 0.67886 0.0
C2988 C 0.12339 0.02884 0.69654 0.0
H2989 H 0.06486 0.0488 0.58275 0.0
H2990 H 0.0747 0.04404 0.61401 0.0
C2991 C 0.13124 0.02543 0.71324 0.0
C2992 C 0.12069 0.02716 0.66069 0.0
H2993 H 0.11185 0.06342 0.63992 0.0
C2994 C 0.11403 0.01218 0.645 0.0
C2995 C 0.1197 0.04593 0.65843 0.0
C2996 C 0.12732 0.06322 0.67376 0.0
C2997 C 0.10659 0.01529 0.62785 0.0
C2998 C 0.10568 0.034 0.62562 0.0
C2999 C 0.11216 0.04898 0.64127 0.0
C3000 C 0.09951 0.03826 0.60675 0.0
C3001 C 0.09958 0.99834 0.61204 0.0
C3002 C 0.11003 0.03724 0.5919 0.0
C3003 C 0.10461 0.04042 0.57421 0.0
C3004 C 0.0882 0.04456 0.5701 0.0
C3005 C 0.07762 0.04587 0.58503 0.0
C3006 C 0.08328 0.04301 0.60306 0.0
H3007 H 0.09796 0.98443 0.61674 0.0
H3008 H 0.08661 0.99883 0.60543 0.0
H3009 H 0.10895 0.99896 0.60127 0.0
H3010 H 0.1226 0.03382 0.59394 0.0
H3011 H 0.11336 0.03922 0.56344 0.0
H3012 H 0.79616 0.39757 0.44978 0.0
H3013 H 0.80148 0.38345 0.41832 0.0
H3014 H 0.85105 0.37621 0.44074 0.0
H3015 H 0.8455 0.38941 0.472 0.0
H3016 H 0.83089 0.3907 0.39533 0.0
H3017 H 0.81988 0.32124 0.41999 0.0
H3018 H 0.8144 0.34198 0.43288 0.0
H3019 H 0.83704 0.34072 0.4335 0.0
C3020 C 0.80814 0.39295 0.44787 0.0
C3021 C 0.82008 0.39376 0.46319 0.0
C3022 C 0.81127 0.38515 0.43 0.0
C3023 C 0.8265 0.37856 0.42747 0.0
C3024 C 0.83909 0.38091 0.44261 0.0
H3025 H 0.84866 0.32074 0.3198 0.0
H3026 H 0.85409 0.34027 0.35138 0.0
C3027 C 0.83579 0.38822 0.46039 0.0
C3028 C 0.82816 0.36694 0.40962 0.0
H3029 H 0.82652 0.32095 0.38918 0.0
C3030 C 0.83012 0.3755 0.39393 0.0
C3031 C 0.82706 0.34713 0.40806 0.0
C3032 C 0.82434 0.33714 0.42445 0.0
C3033 C 0.83064 0.36449 0.37644 0.0
C3034 C 0.82924 0.34465 0.37493 0.0
C3035 C 0.82779 0.33626 0.39067 0.0
C3036 C 0.82672 0.33184 0.35681 0.0
C3037 C 0.83186 0.37378 0.35955 0.0
C3038 C 0.80972 0.32026 0.35003 0.0
C3039 C 0.80662 0.30908 0.33223 0.0
C3040 C 0.82051 0.30935 0.32105 0.0
C3041 C 0.83775 0.32029 0.32825 0.0
C3042 C 0.84086 0.33148 0.34612 0.0
H3043 H 0.83222 0.38928 0.36307 0.0
H3044 H 0.84401 0.37238 0.35304 0.0
H3045 H 0.82034 0.36629 0.34905 0.0
H3046 H 0.79871 0.32052 0.35825 0.0
H3047 H 0.7932 0.30138 0.32688 0.0
H3048 H 0.42429 0.059 0.24336 0.0
H3049 H 0.43325 0.0554 0.2118 0.0
H3050 H 0.48692 0.06128 0.23421 0.0
H3051 H 0.47821 0.06498 0.26575 0.0
H3052 H 0.48011 0.08347 0.20354 0.0
H3053 H 0.44861 1.00436 0.18944 0.0
H3054 H 0.43683 0.02102 0.19996 0.0
H3055 H 0.45543 0.01749 0.21302 0.0
C3056 C 0.43805 0.05977 0.24156 0.0
C3057 C 0.45058 0.06222 0.25695 0.0
C3058 C 0.44309 0.05773 0.22359 0.0
C3059 C 0.46066 0.05809 0.2209 0.0
C3060 C 0.4733 0.06114 0.23621 0.0
H3061 H 0.53338 0.02352 0.16223 0.0
H3062 H 0.51317 0.0359 0.18214 0.0
C3063 C 0.46831 0.06323 0.25416 0.0
C3064 C 0.46594 0.05394 0.20216 0.0
H3065 H 0.46959 0.01605 0.16988 0.0
C3066 C 0.4774 0.06885 0.19574 0.0
C3067 C 0.46225 0.03481 0.19225 0.0
C3068 C 0.45012 0.0184 0.19891 0.0
C3069 C 0.48644 0.06483 0.18031 0.0
C3070 C 0.48391 0.04553 0.17143 0.0
C3071 C 0.47132 0.03084 0.17685 0.0
C3072 C 0.49656 0.03987 0.15926 0.0
C3073 C 0.49971 0.08091 0.1745 0.0
C3074 C 0.49377 0.03828 0.13998 0.0
C3075 C 0.50527 0.03123 0.12862 0.0
C3076 C 0.51949 0.02556 0.13651 0.0
C3077 C 0.52236 0.02755 0.15588 0.0
C3078 C 0.51097 0.03471 0.16719 0.0
H3079 H 0.49838 0.09528 0.18112 0.0
H3080 H 0.5133 0.07998 0.17855 0.0
H3081 H 0.49804 0.07948 0.15912 0.0
H3082 H 0.48258 0.04213 0.13378 0.0
H3083 H 0.50281 0.02974 0.11367 0.0
H3084 H 0.7815 0.73769 0.95788 0.0
H3085 H 0.78448 0.74612 0.92729 0.0
H3086 H 0.83832 0.74132 0.93058 0.0
H3087 H 0.83493 0.73158 0.96082 0.0
H3088 H 0.80337 0.77422 0.91538 0.0
H3089 H 0.82201 0.70933 0.8808 0.0
H3090 H 0.81499 0.71143 0.90384 0.0
H3091 H 0.83739 0.7229 0.90039 0.0
C3092 C 0.79399 0.7384 0.95209 0.0
C3093 C 0.80795 0.73385 0.96174 0.0
C3094 C 0.79569 0.74324 0.93454 0.0
C3095 C 0.81151 0.74401 0.92627 0.0
C3096 C 0.82575 0.74018 0.93623 0.0
H3097 H 0.83602 0.78062 0.82015 0.0
H3098 H 0.8389 0.77444 0.85196 0.0
C3099 C 0.82388 0.73482 0.95364 0.0
C3100 C 0.81287 0.74902 0.90737 0.0
H3101 H 0.82225 0.73356 0.86319 0.0
C3102 C 0.80751 0.76527 0.90403 0.0
C3103 C 0.8183 0.73743 0.89239 0.0
C3104 C 0.82333 0.71921 0.89445 0.0
C3105 C 0.80713 0.76999 0.88626 0.0
C3106 C 0.81243 0.75835 0.87141 0.0
C3107 C 0.81828 0.74248 0.87471 0.0
C3108 C 0.8109 0.76177 0.8521 0.0
C3109 C 0.80083 0.78726 0.88333 0.0
C3110 C 0.79425 0.75654 0.84167 0.0
C3111 C 0.7926 0.75991 0.82353 0.0
C3112 C 0.80757 0.76852 0.81544 0.0
C3113 C 0.82427 0.77374 0.82593 0.0
C3114 C 0.82594 0.77026 0.84408 0.0
H3115 H 0.79964 0.79643 0.89671 0.0
H3116 H 0.81005 0.7961 0.87536 0.0
H3117 H 0.78764 0.78233 0.87503 0.0
H3118 H 0.78249 0.75006 0.84767 0.0
H3119 H 0.7795 0.75647 0.81618 0.0
H3120 H 0.83655 0.11583 0.05141 0.0
H3121 H 0.8655 0.10911 0.0528 0.0
H3122 H 0.87306 0.12481 0.99913 0.0
H3123 H 0.84449 0.13271 0.99828 0.0
H3124 H 0.8728 0.08205 0.0307 0.0
H3125 H 0.92139 0.14908 0.0252 0.0
H3126 H 0.89906 0.14862 0.03034 0.0
H3127 H 0.90392 0.14323 0.00657 0.0
C3128 C 0.84454 0.11807 0.04004 0.0
C3129 C 0.83842 0.12457 0.02464 0.0
C3130 C 0.86109 0.11441 0.04094 0.0
C3131 C 0.87153 0.11681 0.02625 0.0
C3132 C 0.86548 0.12353 0.01092 0.0
H3133 H 0.93873 0.06141 0.96999 0.0
H3134 H 0.91981 0.08175 0.98237 0.0
C3135 C 0.84909 0.12772 0.01027 0.0
C3136 C 0.88738 0.10952 0.02562 0.0
H3137 H 0.92944 0.11913 0.01338 0.0
C3138 C 0.88535 0.09034 0.02744 0.0
C3139 C 0.90374 0.12043 0.02151 0.0
C3140 C 0.90718 0.14154 0.02102 0.0
C3141 C 0.89883 0.08132 0.02389 0.0
C3142 C 0.91458 0.09176 0.01823 0.0
C3143 C 0.91713 0.11123 0.0175 0.0
C3144 C 0.92763 0.08191 0.01122 0.0
C3145 C 0.8958 0.06039 0.02516 0.0
C3146 C 0.93813 0.07554 0.02351 0.0
C3147 C 0.94858 0.06372 0.01652 0.0
C3148 C 0.94876 0.0583 0.99716 0.0
C3149 C 0.93855 0.06515 0.98492 0.0
C3150 C 0.92804 0.07695 0.99194 0.0
H3151 H 0.88209 0.05392 0.02807 0.0
H3152 H 0.89839 0.05198 0.01198 0.0
H3153 H 0.90514 0.05904 0.03654 0.0
H3154 H 0.93777 0.07922 0.03842 0.0
H3155 H 0.95629 0.05853 0.02626 0.0
H3156 H 0.37491 0.41306 0.01667 0.0
H3157 H 0.40578 0.43143 0.01857 0.0
H3158 H 0.39528 0.47747 0.05775 0.0
H3159 H 0.36421 0.45914 0.05591 0.0
H3160 H 0.41931 0.46894 0.01062 0.0
H3161 H 0.43906 0.46584 0.08389 0.0
H3162 H 0.41935 0.44973 0.07045 0.0
H3163 H 0.41959 0.47411 0.08004 0.0
C3164 C 0.3791 0.42709 0.02572 0.0
C3165 C 0.367 0.43457 0.03617 0.0
C3166 C 0.39681 0.43759 0.02678 0.0
C3167 C 0.40297 0.45573 0.03849 0.0
C3168 C 0.39093 0.46338 0.04882 0.0
H3169 H 0.50886 0.53684 0.05998 0.0
H3170 H 0.47764 0.52065 0.06097 0.0
C3171 C 0.37311 0.45294 0.04764 0.0
C3172 C 0.4219 0.46669 0.03946 0.0
H3173 H 0.46065 0.4842 0.06842 0.0
C3174 C 0.42833 0.4723 0.02327 0.0
C3175 C 0.43371 0.4711 0.05597 0.0
C3176 C 0.42771 0.46479 0.07358 0.0
C3177 C 0.44614 0.48226 0.02314 0.0
C3178 C 0.45805 0.48644 0.03956 0.0
C3179 C 0.45157 0.48104 0.05584 0.0
C3180 C 0.47731 0.4959 0.03983 0.0
C3181 C 0.45199 0.48845 0.00542 0.0
C3182 C 0.48773 0.48719 0.02806 0.0
C3183 C 0.50551 0.49648 0.02733 0.0
C3184 C 0.51344 0.51474 0.03847 0.0
C3185 C 0.5032 0.52304 0.05092 0.0
C3186 C 0.48532 0.51373 0.05158 0.0
H3187 H 0.44059 0.48899 0.99593 0.0
H3188 H 0.46164 0.50283 0.00845 0.0
H3189 H 0.45851 0.47795 0.99797 0.0
H3190 H 0.48205 0.47322 0.01922 0.0
H3191 H 0.51293 0.48938 0.01777 0.0
H3192 H 0.38827 0.61441 0.72967 0.0
H3193 H 0.37468 0.64121 0.7292 0.0
H3194 H 0.39347 0.66308 0.78719 0.0
H3195 H 0.4078 0.6369 0.78734 0.0
H3196 H 0.35041 0.65435 0.74095 0.0
H3197 H 0.40734 0.71347 0.7754 0.0
H3198 H 0.40933 0.68931 0.76865 0.0
H3199 H 0.40087 0.69664 0.79035 0.0
C3200 C 0.38973 0.62498 0.74237 0.0
C3201 C 0.39956 0.62304 0.7585 0.0
C3202 C 0.38176 0.64059 0.74212 0.0
C3203 C 0.38304 0.6553 0.758 0.0
C3204 C 0.39251 0.65301 0.77427 0.0
H3205 H 0.33054 0.75429 0.7803 0.0
H3206 H 0.34374 0.7273 0.7833 0.0
C3207 C 0.40068 0.63755 0.77445 0.0
C3208 C 0.37419 0.6723 0.75753 0.0
H3209 H 0.37981 0.72142 0.77228 0.0
C3210 C 0.35712 0.66893 0.7478 0.0
C3211 C 0.38229 0.69198 0.76621 0.0
C3212 C 0.40102 0.69813 0.77555 0.0
C3213 C 0.34829 0.68382 0.74677 0.0
C3214 C 0.35625 0.70326 0.75575 0.0
C3215 C 0.37321 0.70674 0.76553 0.0
C3216 C 0.3476 0.72004 0.7542 0.0
C3217 C 0.33016 0.67851 0.7361 0.0
C3218 C 0.34501 0.72568 0.73697 0.0
C3219 C 0.33759 0.74131 0.7353 0.0
C3220 C 0.33192 0.7521 0.75064 0.0
C3221 C 0.3343 0.74643 0.76796 0.0
C3222 C 0.34207 0.73088 0.7697 0.0
H3223 H 0.32412 0.66273 0.73314 0.0
H3224 H 0.32121 0.68574 0.74398 0.0
H3225 H 0.33121 0.68345 0.72264 0.0
H3226 H 0.34909 0.71817 0.72464 0.0
H3227 H 0.33634 0.74506 0.72171 0.0
H3228 H 0.2423 0.6541 0.52401 0.0
H3229 H 0.21234 0.64629 0.53248 0.0
H3230 H 0.2051 0.58692 0.50625 0.0
H3231 H 0.23584 0.59455 0.4984 0.0
H3232 H 0.1815 0.63153 0.51033 0.0
H3233 H 0.1912 0.58284 0.55829 0.0
H3234 H 0.20952 0.59801 0.54965 0.0
H3235 H 0.19628 0.57628 0.53489 0.0
C3236 C 0.23429 0.6394 0.51974 0.0
C3237 C 0.24125 0.62487 0.51043 0.0
C3238 C 0.21724 0.63497 0.52474 0.0
C3239 C 0.20674 0.61603 0.52024 0.0
C3240 C 0.21329 0.60154 0.51022 0.0
H3241 H 0.10264 0.56046 0.52991 0.0
H3242 H 0.13429 0.57056 0.53037 0.0
C3243 C 0.23065 0.60591 0.50556 0.0
C3244 C 0.18887 0.61189 0.52606 0.0
H3245 H 0.16243 0.58708 0.55356 0.0
C3246 C 0.17726 0.62185 0.51982 0.0
C3247 C 0.18368 0.5994 0.53855 0.0
C3248 C 0.19585 0.58861 0.54589 0.0
C3249 C 0.1602 0.61916 0.5252 0.0
C3250 C 0.15489 0.60657 0.53765 0.0
C3251 C 0.16671 0.59697 0.54427 0.0
C3252 C 0.13632 0.6006 0.54127 0.0
C3253 C 0.14784 0.62911 0.51674 0.0
C3254 C 0.12697 0.61404 0.54793 0.0
C3255 C 0.10854 0.60829 0.54709 0.0
C3256 C 0.09959 0.58892 0.54061 0.0
C3257 C 0.10918 0.57537 0.53542 0.0
C3258 C 0.12736 0.58116 0.53568 0.0
H3259 H 0.15302 0.63513 0.50465 0.0
H3260 H 0.13459 0.61904 0.51202 0.0
H3261 H 0.14626 0.64122 0.52733 0.0
H3262 H 0.1338 0.62906 0.55282 0.0
H3263 H 0.10127 0.61889 0.5512 0.0
H3264 H 0.69339 0.99226 0.75431 0.0
H3265 H 0.69822 0.96067 0.75528 0.0
H3266 H 0.74899 0.97805 0.7347 0.0
H3267 H 0.74425 0.00952 0.73341 0.0
H3268 H 0.72792 0.93777 0.72045 0.0
H3269 H 0.7376 0.96306 0.79773 0.0
H3270 H 0.71716 0.96329 0.7853 0.0
H3271 H 0.73754 0.97941 0.78197 0.0
C3272 C 0.70548 0.98924 0.74977 0.0
C3273 C 0.71864 1.00333 0.74411 0.0
C3274 C 0.70808 0.9712 0.75015 0.0
C3275 C 0.72388 0.96728 0.74504 0.0
C3276 C 0.73662 0.98095 0.73847 0.0
H3277 H 0.80403 0.92537 0.77482 0.0
H3278 H 0.78183 0.9383 0.76022 0.0
C3279 C 0.73399 0.99892 0.73796 0.0
C3280 C 0.72873 0.95045 0.7494 0.0
H3281 H 0.74734 0.93627 0.78573 0.0
C3282 C 0.73168 0.93695 0.73471 0.0
C3283 C 0.73373 0.94986 0.76807 0.0
C3284 C 0.73147 0.96468 0.78424 0.0
C3285 C 0.74073 0.92349 0.73825 0.0
C3286 C 0.74671 0.92382 0.7568 0.0
C3287 C 0.74251 0.93625 0.77154 0.0
C3288 C 0.7599 0.91396 0.76134 0.0
C3289 C 0.745 0.90998 0.72229 0.0
C3290 C 0.75462 0.89607 0.76645 0.0
C3291 C 0.76718 0.88876 0.77479 0.0
C3292 C 0.785 0.8995 0.77826 0.0
C3293 C 0.79031 0.91708 0.77244 0.0
C3294 C 0.77777 0.92426 0.76392 0.0
H3295 H 0.73756 0.90992 0.70889 0.0
H3296 H 0.7594 0.91442 0.72094 0.0
H3297 H 0.74188 0.89514 0.72511 0.0
H3298 H 0.74076 0.88827 0.76479 0.0
H3299 H 0.76289 0.87514 0.77926 0.0
H3300 H 0.78051 0.95598 0.56685 0.0
H3301 H 0.7546 0.96859 0.56408 0.0
H3302 H 0.73406 0.92664 0.51364 0.0
H3303 H 0.75993 0.91371 0.51645 0.0
H3304 H 0.74475 0.98473 0.53602 0.0
H3305 H 0.69067 0.92176 0.54232 0.0
H3306 H 0.7137 0.92347 0.54873 0.0
H3307 H 0.70461 0.91646 0.52468 0.0
C3308 C 0.77046 0.94933 0.5552 0.0
C3309 C 0.77236 0.93386 0.54182 0.0
C3310 C 0.7556 0.95654 0.55367 0.0
C3311 C 0.74222 0.9484 0.53882 0.0
C3312 C 0.744 0.93289 0.52546 0.0
H3313 H 0.65942 0.98747 0.48932 0.0
H3314 H 0.67969 0.96898 0.49819 0.0
C3315 C 0.75891 0.92565 0.52697 0.0
C3316 C 0.72716 0.95716 0.53663 0.0
H3317 H 0.68194 0.94758 0.53168 0.0
C3318 C 0.73104 0.97664 0.53528 0.0
C3319 C 0.70924 0.94662 0.53572 0.0
C3320 C 0.70426 0.92597 0.53812 0.0
C3321 C 0.71753 0.98571 0.53252 0.0
C3322 C 0.69965 0.97508 0.53118 0.0
C3323 C 0.69569 0.95568 0.53276 0.0
C3324 C 0.68509 0.98383 0.52694 0.0
C3325 C 0.72244 1.0065 0.53051 0.0
C3326 C 0.68094 0.9978 0.54037 0.0
C3327 C 0.66922 1.00825 0.53536 0.0
C3328 C 0.66173 1.00504 0.51681 0.0
C3329 C 0.66517 0.99031 0.50367 0.0
C3330 C 0.67666 0.97971 0.50873 0.0
H3331 H 0.73685 0.01205 0.52969 0.0
H3332 H 0.71503 0.00826 0.51781 0.0
H3333 H 0.71871 0.01542 0.54269 0.0
H3334 H 0.68733 1.00116 0.5545 0.0
H3335 H 0.66681 0.01956 0.54572 0.0
H3336 H 0.42657 0.50375 0.75601 0.0
H3337 H 0.41035 0.47023 0.75391 0.0
H3338 H 0.36694 0.48879 0.77746 0.0
H3339 H 0.38285 0.52249 0.7783 0.0
H3340 H 0.40097 0.44867 0.77582 0.0
H3341 H 0.33648 0.44782 0.74039 0.0
H3342 H 0.35539 0.46825 0.74289 0.0
H3343 H 0.34205 0.46492 0.76188 0.0
C3344 C 0.4134 0.50076 0.76044 0.0
C3345 C 0.40608 0.51617 0.76705 0.0
C3346 C 0.40404 0.48133 0.75934 0.0
C3347 C 0.38693 0.47618 0.76516 0.0
C3348 C 0.37966 0.49167 0.77205 0.0
H3349 H 0.31292 0.36424 0.77303 0.0
H3350 H 0.32812 0.39799 0.7741 0.0
C3351 C 0.3889 0.51122 0.77269 0.0
C3352 C 0.37746 0.45486 0.76462 0.0
H3353 H 0.33768 0.42025 0.75257 0.0
C3354 C 0.38712 0.44259 0.77059 0.0
C3355 C 0.35926 0.4462 0.75795 0.0
C3356 C 0.34773 0.45742 0.75025 0.0
C3357 C 0.37939 0.42274 0.77045 0.0
C3358 C 0.36119 0.41407 0.76375 0.0
C3359 C 0.35152 0.42634 0.75781 0.0
C3360 C 0.35183 0.39269 0.76301 0.0
C3361 C 0.39097 0.41158 0.7782 0.0
C3362 C 0.35948 0.37752 0.7562 0.0
C3363 C 0.35081 0.35797 0.75602 0.0
C3364 C 0.33376 0.35253 0.76188 0.0
C3365 C 0.32586 0.36754 0.76811 0.0
C3366 C 0.3347 0.38711 0.76877 0.0
H3367 H 0.40208 0.42121 0.78822 0.0
H3368 H 0.38332 0.4006 0.7854 0.0
H3369 H 0.39688 0.4043 0.76663 0.0
H3370 H 0.37218 0.38067 0.75079 0.0
H3371 H 0.35742 0.34702 0.75095 0.0
H3372 H 0.20345 0.61337 0.27177 0.0
H3373 H 0.21724 0.64638 0.26877 0.0
H3374 H 0.26636 0.63155 0.25924 0.0
H3375 H 0.25287 0.59857 0.26221 0.0
H3376 H 0.26441 0.66502 0.28999 0.0
H3377 H 0.2358 0.66454 0.21827 0.0
H3378 H 0.22152 0.65317 0.23374 0.0
H3379 H 0.23881 0.64296 0.22539 0.0
C3380 C 0.21723 0.61719 0.26919 0.0
C3381 C 0.22717 0.60353 0.26722 0.0
C3382 C 0.22492 0.63585 0.26724 0.0
C3383 C 0.2425 0.64083 0.26331 0.0
C3384 C 0.25262 0.62751 0.26194 0.0
H3385 H 0.31119 0.75496 0.27506 0.0
H3386 H 0.30088 0.71982 0.26669 0.0
C3387 C 0.24499 0.60888 0.26391 0.0
C3388 C 0.25093 0.66052 0.2625 0.0
H3389 H 0.25305 0.69442 0.23583 0.0
C3390 C 0.26219 0.67151 0.27812 0.0
C3391 C 0.24758 0.66848 0.24693 0.0
C3392 C 0.23532 0.65673 0.23003 0.0
C3393 C 0.26999 0.69087 0.27889 0.0
C3394 C 0.26676 0.69894 0.2633 0.0
C3395 C 0.25569 0.68782 0.24749 0.0
C3396 C 0.27311 0.71946 0.26433 0.0
C3397 C 0.28079 0.70268 0.29673 0.0
C3398 C 0.26075 0.73041 0.26508 0.0
C3399 C 0.26659 0.75025 0.26939 0.0
C3400 C 0.28474 0.75902 0.27284 0.0
C3401 C 0.29714 0.74816 0.27208 0.0
C3402 C 0.29131 0.7283 0.2673 0.0
H3403 H 0.27875 0.69502 0.30857 0.0
H3404 H 0.29507 0.70579 0.29472 0.0
H3405 H 0.27736 0.71659 0.30057 0.0
H3406 H 0.24665 0.72359 0.26306 0.0
H3407 H 0.25701 0.75874 0.27032 0.0
H3408 H 0.51996 0.71025 0.4448 0.0
H3409 H 0.52336 0.68183 0.4567 0.0
H3410 H 0.56697 0.71736 0.49596 0.0
H3411 H 0.56379 0.74577 0.48402 0.0
H3412 H 0.57387 0.68313 0.47584 0.0
H3413 H 0.51009 0.66636 0.50669 0.0
H3414 H 0.50887 0.67018 0.48313 0.0
H3415 H 0.51983 0.6898 0.50168 0.0
C3416 C 0.53015 0.71209 0.45612 0.0
C3417 C 0.54152 0.73045 0.46347 0.0
C3418 C 0.53207 0.69577 0.46295 0.0
C3419 C 0.54533 0.69734 0.47741 0.0
C3420 C 0.55663 0.71566 0.48482 0.0
H3421 H 0.55476 0.61453 0.5475 0.0
H3422 H 0.55287 0.64289 0.53464 0.0
C3423 C 0.55475 0.73196 0.47799 0.0
C3424 C 0.54775 0.67996 0.48455 0.0
H3425 H 0.52774 0.64462 0.50735 0.0
C3426 C 0.56375 0.67469 0.48269 0.0
C3427 C 0.53465 0.66891 0.49362 0.0
C3428 C 0.51742 0.67408 0.49658 0.0
C3429 C 0.56695 0.65878 0.48951 0.0
C3430 C 0.55382 0.64768 0.49853 0.0
C3431 C 0.53784 0.653 0.50044 0.0
C3432 C 0.55649 0.63082 0.5065 0.0
C3433 C 0.58458 0.65431 0.48746 0.0
C3434 C 0.55936 0.61447 0.49513 0.0
C3435 C 0.56057 0.59825 0.50255 0.0
C3436 C 0.55909 0.59805 0.52156 0.0
C3437 C 0.55639 0.61444 0.53292 0.0
C3438 C 0.55518 0.63062 0.52553 0.0
H3439 H 0.59463 0.66657 0.48415 0.0
H3440 H 0.58961 0.65061 0.50043 0.0
H3441 H 0.58297 0.64175 0.47597 0.0
H3442 H 0.56001 0.61393 0.48035 0.0
H3443 H 0.56197 0.58559 0.49328 0.0
H3444 H 0.636 0.33305 0.678 0.0
H3445 H 0.66344 0.33276 0.69581 0.0
H3446 H 0.6847 0.31613 0.64444 0.0
H3447 H 0.65799 0.31798 0.62678 0.0
H3448 H 0.67834 0.30754 0.70115 0.0
H3449 H 0.72728 0.35473 0.66722 0.0
H3450 H 0.70388 0.35201 0.66255 0.0
H3451 H 0.71427 0.33475 0.6503 0.0
C3452 C 0.64673 0.3298 0.67053 0.0
C3453 C 0.64487 0.32597 0.65092 0.0
C3454 C 0.66246 0.3295 0.68074 0.0
C3455 C 0.67668 0.3249 0.67168 0.0
C3456 C 0.67456 0.32064 0.65204 0.0
H3457 H 0.77538 0.2987 0.70911 0.0
H3458 H 0.74884 0.30132 0.69141 0.0
C3459 C 0.6591 0.32156 0.64185 0.0
C3460 C 0.69323 0.32366 0.68269 0.0
H3461 H 0.73868 0.33539 0.68539 0.0
C3462 C 0.69149 0.31386 0.69772 0.0
C3463 C 0.71067 0.33185 0.67855 0.0
C3464 C 0.71413 0.34409 0.66391 0.0
C3465 C 0.70636 0.31175 0.70827 0.0
C3466 C 0.72366 0.31945 0.70372 0.0
C3467 C 0.72547 0.32924 0.68879 0.0
C3468 C 0.74003 0.31794 0.71455 0.0
C3469 C 0.70339 0.30099 0.72408 0.0
C3470 C 0.74444 0.32688 0.73338 0.0
C3471 C 0.75975 0.32555 0.74351 0.0
C3472 C 0.7711 0.31499 0.73536 0.0
C3473 C 0.76697 0.30665 0.71622 0.0
C3474 C 0.75169 0.30811 0.706 0.0
H3475 H 0.68949 0.2922 0.72313 0.0
H3476 H 0.71238 0.29142 0.72431 0.0
H3477 H 0.70627 0.31147 0.73748 0.0
H3478 H 0.73612 0.33514 0.74026 0.0
H3479 H 0.76273 0.33313 0.75767 0.0
H3480 H 0.0072 0.32836 0.98601 0.0
H3481 H 0.01141 0.36251 0.99941 0.0
H3482 H 0.0523 0.37777 0.96391 0.0
H3483 H 0.04824 0.34367 0.95043 0.0
H3484 H 0.04531 0.39415 0.01664 0.0
H3485 H 0.01226 0.40528 0.95175 0.0
H3486 H 0.00952 0.3817 0.95737 0.0
H3487 H 0.02975 0.39337 0.94925 0.0
C3488 C 0.01727 0.33893 0.98118 0.0
C3489 C 0.02732 0.33315 0.96702 0.0
C3490 C 0.01967 0.35849 0.98892 0.0
C3491 C 0.03208 0.37278 0.98262 0.0
C3492 C 0.04256 0.36705 0.96894 0.0
H3493 H 0.05329 0.49423 0.98738 0.0
H3494 H 0.04857 0.4598 0.98083 0.0
C3495 C 0.04023 0.34749 0.96126 0.0
C3496 C 0.03329 0.39363 0.98938 0.0
H3497 H 0.02378 0.43243 0.97529 0.0
C3498 C 0.04068 0.40263 0.00765 0.0
C3499 C 0.02717 0.40466 0.9777 0.0
C3500 C 0.01911 0.39583 0.95794 0.0
C3501 C 0.04288 0.42254 0.01424 0.0
C3502 C 0.03675 0.4337 1.00249 0.0
C3503 C 0.02871 0.42428 0.98444 0.0
C3504 C 0.03976 0.45529 0.00756 0.0
C3505 C 0.0525 0.43134 0.03341 0.0
C3506 C 0.03661 0.465 0.02496 0.0
C3507 C 0.0404 0.48528 0.02919 0.0
C3508 C 0.04628 0.49623 0.01568 0.0
C3509 C 0.04858 0.48639 0.99813 0.0
C3510 C 0.04575 0.46646 0.99429 0.0
H3511 H 0.06067 0.42228 0.03817 0.0
H3512 H 0.06129 0.44587 0.03375 0.0
H3513 H 0.04265 0.43257 0.0435 0.0
H3514 H 0.03137 0.45702 0.03538 0.0
H3515 H 0.03891 0.49234 0.04302 0.0
H3516 H 0.03089 0.83669 0.1402 0.0
H3517 H 1.00269 0.83457 0.15382 0.0
H3518 H 0.01241 0.79047 0.18198 0.0
H3519 H 0.04053 0.79278 0.16888 0.0
H3520 H 0.9724 0.80354 0.15178 0.0
H3521 H 1.00355 0.82935 0.22459 0.0
H3522 H 0.01607 0.83179 0.20487 0.0
H3523 H 0.01052 0.80929 0.21276 0.0
C3524 C 0.02705 0.82664 0.1494 0.0
C3525 C 0.03815 0.81512 0.15366 0.0
C3526 C 0.01089 0.82539 0.15711 0.0
C3527 C 0.00553 0.81262 0.16924 0.0
C3528 C 0.0164 0.8008 0.17308 0.0
H3529 H 0.91262 0.76218 0.21616 0.0
H3530 H 0.93662 0.7702 0.1966 0.0
C3531 C 0.03252 0.80212 0.16552 0.0
C3532 C 0.98873 0.81155 0.1781 0.0
H3533 H 0.97249 0.81401 0.22048 0.0
C3534 C 0.97244 0.80606 0.1668 0.0
C3535 C 0.98868 0.81502 0.19772 0.0
C3536 C 0.00565 0.82187 0.2107 0.0
C3537 C 0.9562 0.80308 0.17463 0.0
C3538 C 0.95624 0.80571 0.19419 0.0
C3539 C 0.97248 0.81194 0.20547 0.0
C3540 C 0.93971 0.80088 0.20336 0.0
C3541 C 0.93904 0.7969 0.16204 0.0
C3542 C 0.93316 0.81544 0.21331 0.0
C3543 C 0.91924 0.81085 0.22434 0.0
C3544 C 0.91193 0.79167 0.2259 0.0
C3545 C 0.91802 0.77709 0.21526 0.0
C3546 C 0.9317 0.78165 0.20404 0.0
H3547 H 0.94115 0.79784 0.14735 0.0
H3548 H 0.93224 0.7818 0.16258 0.0
H3549 H 0.93012 0.80597 0.16694 0.0
H3550 H 0.93924 0.83039 0.21309 0.0
H3551 H 0.91493 0.82238 0.2325 0.0
H3552 H 0.52226 0.29177 0.09694 0.0
H3553 H 0.52939 0.31929 0.0817 0.0
H3554 H 0.51387 0.35435 0.12801 0.0
H3555 H 0.50692 0.3268 0.14368 0.0
H3556 H 0.50758 0.34305 0.07204 0.0
H3557 H 0.56585 0.38295 0.12348 0.0
H3558 H 0.55571 0.35764 0.12187 0.0
H3559 H 0.54487 0.37515 0.13225 0.0
C3560 C 0.52014 0.30524 0.10383 0.0
C3561 C 0.51412 0.30719 0.12155 0.0
C3562 C 0.52424 0.32093 0.09511 0.0
C3563 C 0.52236 0.33879 0.10392 0.0
C3564 C 0.51563 0.34067 0.12121 0.0
H3565 H 0.56325 0.44562 0.06546 0.0
H3566 H 0.55002 0.42237 0.08402 0.0
C3567 C 0.51155 0.32493 0.13003 0.0
C3568 C 0.52801 0.35538 0.09493 0.0
H3569 H 0.56129 0.39592 0.09709 0.0
C3570 C 0.51918 0.35479 0.07758 0.0
C3571 C 0.54309 0.37059 0.10236 0.0
C3572 C 0.55306 0.3717 0.12096 0.0
C3573 C 0.52531 0.36883 0.0671 0.0
C3574 C 0.54099 0.38348 0.07402 0.0
C3575 C 0.54938 0.38453 0.09178 0.0
C3576 C 0.5492 0.39749 0.06283 0.0
C3577 C 0.51492 0.36775 0.04875 0.0
C3578 C 0.55357 0.39116 0.04498 0.0
C3579 C 0.56056 0.40438 0.03404 0.0
C3580 C 0.56378 0.4242 0.041 0.0
C3581 C 0.56039 0.43047 0.05938 0.0
C3582 C 0.553 0.41722 0.07012 0.0
H3583 H 0.50075 0.36011 0.04858 0.0
H3584 H 0.5157 0.38229 0.04578 0.0
H3585 H 0.52035 0.35955 0.03739 0.0
H3586 H 0.55135 0.37596 0.03938 0.0
H3587 H 0.56295 0.39902 0.01998 0.0
H3588 H 0.03974 0.3005 0.3791 0.0
H3589 H 0.01112 0.30145 0.36426 0.0
H3590 H 0.0371 0.35239 0.34434 0.0
H3591 H 0.06575 0.35047 0.35789 0.0
H3592 H 0.99249 0.32621 0.36934 0.0
H3593 H 0.0106 0.32132 0.29721 0.0
H3594 H 0.02468 0.3176 0.31581 0.0
H3595 H 0.02528 0.3416 0.31247 0.0
C3596 C 0.03921 0.31171 0.37133 0.0
C3597 C 0.05472 0.32525 0.36927 0.0
C3598 C 0.02295 0.3123 0.36294 0.0
C3599 C 0.02204 0.32672 0.3528 0.0
C3600 C 0.03757 0.3407 0.35144 0.0
H3601 H 0.94007 0.3661 0.30233 0.0
H3602 H 0.96582 0.3631 0.32102 0.0
C3603 C 0.05387 0.33971 0.35928 0.0
C3604 C 1.00483 0.32736 0.34389 0.0
H3605 H 0.98433 0.33147 0.303 0.0
C3606 C 0.99066 0.32716 0.35478 0.0
C3607 C 1.0024 0.32837 0.32483 0.0
C3608 C 0.01651 0.32701 0.31189 0.0
C3609 C 0.97426 0.32854 0.34722 0.0
C3610 C 0.97222 0.33043 0.32848 0.0
C3611 C 0.98619 0.33029 0.3175 0.0
C3612 C 0.95567 0.33257 0.31973 0.0
C3613 C 0.95929 0.32823 0.35924 0.0
C3614 C 0.94154 0.31635 0.31307 0.0
C3615 C 0.92697 0.31792 0.30213 0.0
C3616 C 0.92637 0.33576 0.29774 0.0
C3617 C 0.94029 0.35211 0.30517 0.0
C3618 C 0.95489 0.35049 0.316 0.0
H3619 H 0.96344 0.32811 0.37396 0.0
H3620 H 0.95409 0.34097 0.35876 0.0
H3621 H 0.9483 0.31522 0.35369 0.0
H3622 H 0.94213 0.30237 0.31568 0.0
H3623 H 0.91657 0.305 0.29646 0.0
H3624 H 0.97395 0.71913 0.62429 0.0
H3625 H 0.9735 0.6881 0.6047 0.0
H3626 H 0.0174 0.68399 0.64089 0.0
H3627 H 0.01715 0.71386 0.66086 0.0
H3628 H 0.99944 0.68136 0.58564 0.0
H3629 H 0.98805 0.63074 0.63396 0.0
H3630 H 0.98372 0.65409 0.63944 0.0
H3631 H 0.0057 0.65128 0.64426 0.0
C3632 C 0.983 0.71112 0.62834 0.0
C3633 C 0.99536 0.71861 0.64419 0.0
C3634 C 0.98279 0.69355 0.61716 0.0
C3635 C 0.9951 0.68356 0.62166 0.0
C3636 C 0.00724 0.69099 0.63764 0.0
H3637 H 0.05572 0.61093 0.58125 0.0
H3638 H 0.04189 0.63551 0.59568 0.0
C3639 C 0.00714 0.70815 0.64901 0.0
C3640 C 0.99697 0.66658 0.60879 0.0
H3641 H 0.00645 0.62372 0.60918 0.0
C3642 C 1.00044 0.66846 0.59054 0.0
C3643 C 0.9982 0.6498 0.61527 0.0
C3644 C 0.99352 0.64633 0.63427 0.0
C3645 C 0.00657 0.6546 0.5791 0.0
C3646 C 0.00924 0.63875 0.58631 0.0
C3647 C 1.00459 0.63619 0.60397 0.0
C3648 C 0.01798 0.62522 0.5764 0.0
C3649 C 0.0112 0.65747 0.55993 0.0
C3650 C 0.00898 0.61158 0.56088 0.0
C3651 C 0.01681 0.59758 0.55267 0.0
C3652 C 0.03363 0.59705 0.56006 0.0
C3653 C 0.04266 0.61089 0.5755 0.0
C3654 C 0.03488 0.62497 0.58361 0.0
H3655 H 0.00964 0.67142 0.55703 0.0
H3656 H 0.02507 0.65684 0.55842 0.0
H3657 H 1.00245 0.6457 0.54928 0.0
H3658 H 0.9958 0.6115 0.55544 0.0
H3659 H 0.00956 0.58698 0.54076 0.0
H3660 H 0.6598 0.81094 0.87464 0.0
H3661 H 0.68407 0.81079 0.85542 0.0
H3662 H 0.65759 0.83316 0.81447 0.0
H3663 H 0.63299 0.83305 0.83349 0.0
H3664 H 0.66806 0.80072 0.80011 0.0
H3665 H 0.72348 0.85454 0.8451 0.0
H3666 H 0.71139 0.8376 0.85773 0.0
H3667 H 0.70054 0.85338 0.84814 0.0
C3668 C 0.65919 0.81593 0.8616 0.0
C3669 C 0.64451 0.82187 0.85545 0.0
C3670 C 0.67312 0.81606 0.85078 0.0
C3671 C 0.67269 0.82241 0.83383 0.0
C3672 C 0.65813 0.82845 0.82766 0.0
H3673 H 0.75512 0.80639 0.76154 0.0
H3674 H 0.72713 0.81324 0.76968 0.0
C3675 C 0.64409 0.8282 0.83843 0.0
C3676 C 0.68664 0.82064 0.82179 0.0
H3677 H 0.7314 0.8297 0.82343 0.0
C3678 C 0.68193 0.80748 0.80483 0.0
C3679 C 0.70461 0.82961 0.8281 0.0
C3680 C 0.71029 0.84473 0.84569 0.0
C3681 C 0.6949 0.80166 0.79479 0.0
C3682 C 0.7128 0.80921 0.80209 0.0
C3683 C 0.71754 0.82367 0.81816 0.0
C3684 C 0.72687 0.80119 0.79465 0.0
C3685 C 0.68928 0.7862 0.77753 0.0
C3686 C 0.73558 0.79185 0.80587 0.0
C3687 C 0.7516 0.78832 0.80148 0.0
C3688 C 0.75875 0.79367 0.7856 0.0
C3689 C 0.74948 0.80184 0.77367 0.0
C3690 C 0.73356 0.80568 0.77824 0.0
H3691 H 0.67509 0.78371 0.77246 0.0
H3692 H 0.6974 0.78999 0.7662 0.0
H3693 H 0.69128 0.77262 0.78085 0.0
H3694 H 0.73056 0.78848 0.81868 0.0
H3695 H 0.7588 0.78223 0.81089 0.0
H3696 H 0.49833 0.57899 0.74017 0.0
H3697 H 0.51395 0.5782 0.71206 0.0
H3698 H 0.4645 0.56911 0.67843 0.0
H3699 H 0.44927 0.57131 0.70643 0.0
H3700 H 0.51674 0.55573 0.68366 0.0
H3701 H 0.48911 0.60635 0.65175 0.0
H3702 H 0.48519 0.60286 0.67498 0.0
H3703 H 0.47149 0.58679 0.655 0.0
C3704 C 0.49077 0.5772 0.72683 0.0
C3705 C 0.47235 0.57563 0.72606 0.0
C3706 C 0.49981 0.57662 0.71048 0.0
C3707 C 0.49088 0.57415 0.69243 0.0
C3708 C 0.47237 0.57203 0.69173 0.0
H3709 H 0.51485 0.55324 0.57492 0.0
H3710 H 0.50225 0.5574 0.60452 0.0
C3711 C 0.46344 0.57309 0.70805 0.0
C3712 C 0.50065 0.57311 0.67457 0.0
H3713 H 0.50277 0.58638 0.63153 0.0
C3714 C 0.51368 0.56269 0.67245 0.0
C3715 C 0.49729 0.58213 0.65939 0.0
C3716 C 0.48517 0.59532 0.66047 0.0
C3717 C 0.52258 0.56049 0.65603 0.0
C3718 C 0.5187 0.56893 0.64064 0.0
C3719 C 0.5059 0.57956 0.64284 0.0
C3720 C 0.52717 0.56651 0.6221 0.0
C3721 C 0.53574 0.54851 0.65519 0.0
C3722 C 0.54573 0.57037 0.62117 0.0
C3723 C 0.55315 0.56788 0.60387 0.0
C3724 C 0.54241 0.56162 0.58656 0.0
C3725 C 0.52389 0.55807 0.58758 0.0
C3726 C 0.51652 0.56051 0.60479 0.0
H3727 H 0.53371 0.53877 0.66538 0.0
H3728 H 0.53485 0.5397 0.64105 0.0
H3729 H 0.54932 0.55818 0.65865 0.0
H3730 H 0.55467 0.57553 0.63388 0.0
H3731 H 0.56736 0.5708 0.60418 0.0
H3732 H 0.81519 0.17161 0.96264 0.0
H3733 H 0.81464 0.18431 0.93374 0.0
H3734 H 0.78213 0.22044 0.95662 0.0
H3735 H 0.78271 0.20818 0.98536 0.0
H3736 H 0.781 0.1857 0.91018 0.0
H3737 H 0.82789 0.25637 0.94086 0.0
H3738 H 0.82722 0.23488 0.95014 0.0
H3739 H 0.81082 0.2479 0.955 0.0
C3740 C 0.80807 0.18238 0.96151 0.0
C3741 C 0.79925 0.18917 0.97632 0.0
C3742 C 0.80769 0.18948 0.94504 0.0
C3743 C 0.79852 0.20338 0.94333 0.0
C3744 C 0.78948 0.20989 0.95793 0.0
H3745 H 0.75943 0.2694 0.88063 0.0
H3746 H 0.77059 0.25246 0.9027 0.0
C3747 C 0.78991 0.20293 0.97434 0.0
C3748 C 0.79842 0.21164 0.92653 0.0
H3749 H 0.8094 0.25494 0.91313 0.0
C3750 C 0.7876 0.20067 0.91048 0.0
C3751 C 0.80701 0.23116 0.92726 0.0
C3752 C 0.81902 0.24327 0.94419 0.0
C3753 C 0.78418 0.20924 0.89547 0.0
C3754 C 0.79196 0.22906 0.89672 0.0
C3755 C 0.8036 0.23969 0.91231 0.0
C3756 C 0.78612 0.23963 0.88338 0.0
C3757 C 0.77135 0.19751 0.87898 0.0
C3758 C 0.79152 0.23815 0.86544 0.0
C3759 C 0.78524 0.2479 0.85284 0.0
C3760 C 0.77341 0.25899 0.85812 0.0
C3761 C 0.76839 0.26073 0.87625 0.0
C3762 C 0.77476 0.25116 0.88882 0.0
H3763 H 0.7658 0.18243 0.8806 0.0
H3764 H 0.76026 0.2042 0.87707 0.0
H3765 H 0.77816 0.19734 0.86615 0.0
H3766 H 0.80038 0.22934 0.86118 0.0
H3767 H 0.7892 0.24637 0.83887 0.0
H3768 H 0.18958 0.53323 0.1887 0.0
H3769 H 0.17106 0.53298 0.16032 0.0
H3770 H 0.1311 0.54748 0.19378 0.0
H3771 H 0.14916 0.54733 0.22197 0.0
H3772 H 0.13161 0.50688 0.1562 0.0
H3773 H 0.14117 0.58408 0.15225 0.0
H3774 H 0.15835 0.57502 0.1622 0.0
H3775 H 0.14017 0.5781 0.17506 0.0
C3776 C 0.17684 0.53636 0.18987 0.0
C3777 C 0.17045 0.53981 0.20725 0.0
C3778 C 0.16648 0.53641 0.17382 0.0
C3779 C 0.15002 0.54042 0.1753 0.0
C3780 C 0.14394 0.54456 0.19266 0.0
H3781 H 0.06009 0.54486 0.10727 0.0
H3782 H 0.07936 0.54247 0.13389 0.0
C3783 C 0.15407 0.54414 0.20861 0.0
C3784 C 0.13782 0.53766 0.15883 0.0
H3785 H 0.116 0.56175 0.13423 0.0
C3786 C 0.12829 0.51878 0.15109 0.0
C3787 C 0.13363 0.5534 0.15278 0.0
C3788 C 0.14391 0.57384 0.16088 0.0
C3789 C 0.11396 0.51517 0.13761 0.0
C3790 C 0.10952 0.5309 0.13175 0.0
C3791 C 0.11939 0.54981 0.13917 0.0
C3792 C 0.09559 0.52811 0.11678 0.0
C3793 C 0.10342 0.4947 0.13009 0.0
C3794 C 0.09819 0.52015 0.09875 0.0
C3795 C 0.08725 0.5214 0.08376 0.0
C3796 C 0.07374 0.53063 0.08681 0.0
C3797 C 0.07024 0.5373 0.10487 0.0
C3798 C 0.08126 0.53609 0.11993 0.0
H3799 H 0.10566 0.48487 0.13941 0.0
H3800 H 0.08903 0.49372 0.12821 0.0
H3801 H 0.10752 0.48966 0.1163 0.0
H3802 H 0.10945 0.51431 0.0962 0.0
H3803 H 0.09009 0.5164 0.06976 0.0
H3804 H 0.84322 0.87107 0.47608 0.0
H3805 H 0.84075 0.85883 0.44255 0.0
H3806 H 0.78588 0.82943 0.44354 0.0
H3807 H 0.78811 0.84307 0.47697 0.0
H3808 H 0.83497 0.82533 0.42251 0.0
H3809 H 0.77949 0.85469 0.40158 0.0
H3810 H 0.79034 0.86099 0.42502 0.0
H3811 H 0.77381 0.83846 0.41728 0.0
C3812 C 0.83061 0.8621 0.46905 0.0
C3813 C 0.81582 0.8581 0.47897 0.0
C3814 C 0.82919 0.85503 0.44989 0.0
C3815 C 0.81304 0.84339 0.44026 0.0
C3816 C 0.79834 0.83889 0.45038 0.0
H3817 H 0.80733 0.78462 0.32259 0.0
H3818 H 0.80956 0.7903 0.35687 0.0
C3819 C 0.79963 0.84652 0.46951 0.0
C3820 C 0.8119 0.83613 0.41974 0.0
H3821 H 0.78959 0.83519 0.37789 0.0
C3822 C 0.82498 0.82744 0.41279 0.0
C3823 C 0.79892 0.83889 0.4069 0.0
C3824 C 0.78496 0.84892 0.41303 0.0
C3825 C 0.82573 0.82198 0.39354 0.0
C3826 C 0.81282 0.82483 0.38083 0.0
C3827 C 0.79944 0.83294 0.3877 0.0
C3828 C 0.8137 0.82116 0.36035 0.0
C3829 C 0.84081 0.81412 0.3869 0.0
C3830 C 0.81562 0.83657 0.35097 0.0
C3831 C 0.81434 0.83336 0.33157 0.0
C3832 C 0.81124 0.81466 0.32107 0.0
C3833 C 0.81008 0.79922 0.33039 0.0
C3834 C 0.81131 0.80246 0.34994 0.0
H3835 H 0.85107 0.81525 0.39848 0.0
H3836 H 0.83568 0.79876 0.38013 0.0
H3837 H 0.84712 0.82202 0.3764 0.0
H3838 H 0.81752 0.8511 0.35867 0.0
H3839 H 0.81513 0.84547 0.3247 0.0
H3840 H 0.49958 0.5429 0.82149 0.0
H3841 H 0.51288 0.54022 0.85191 0.0
H3842 H 0.48274 0.57626 0.87971 0.0
H3843 H 0.46959 0.57926 0.84934 0.0
H3844 H 0.52968 0.5794 0.88997 0.0
H3845 H 0.47576 0.51607 0.89646 0.0
H3846 H 0.48241 0.51983 0.87394 0.0
H3847 H 0.47062 0.53518 0.88638 0.0
C3848 C 0.49579 0.55041 0.83401 0.0
C3849 C 0.48336 0.56138 0.83252 0.0
C3850 C 0.5035 0.54886 0.85159 0.0
C3851 C 0.49903 0.55802 0.86855 0.0
C3852 C 0.48669 0.56905 0.86712 0.0
H3853 H 0.51275 0.54546 0.98585 0.0
H3854 H 0.50292 0.54797 0.95438 0.0
C3855 C 0.47911 0.57077 0.84955 0.0
C3856 C 0.50671 0.55558 0.88755 0.0
H3857 H 0.49836 0.528 0.92128 0.0
C3858 C 0.52283 0.56807 0.89672 0.0
C3859 C 0.49801 0.541 0.89686 0.0
C3860 C 0.48074 0.52713 0.88805 0.0
C3861 C 0.53016 0.56654 0.91459 0.0
C3862 C 0.52152 0.55177 0.9239 0.0
C3863 C 0.50538 0.53931 0.9146 0.0
C3864 C 0.5282 0.54963 0.94353 0.0
C3865 C 0.54684 0.58138 0.92363 0.0
C3866 C 0.54585 0.5492 0.94877 0.0
C3867 C 0.55164 0.54777 0.96722 0.0
C3868 C 0.53995 0.54648 0.98118 0.0
C3869 C 0.5223 0.5464 0.97574 0.0
C3870 C 0.51657 0.54784 0.95747 0.0
H3871 H 0.54901 0.59456 0.91755 0.0
H3872 H 0.54642 0.58553 0.93886 0.0
H3873 H 0.55837 0.57532 0.92135 0.0
H3874 H 0.55529 0.54994 0.93857 0.0
H3875 H 0.56533 0.54796 0.97059 0.0
H3876 H 0.825 0.20081 0.07706 0.0
H3877 H 0.82034 0.22105 0.10567 0.0
H3878 H 0.76885 0.18223 0.10537 0.0
H3879 H 0.77398 0.16144 0.07771 0.0
H3880 H 0.795 0.23932 0.10705 0.0
H3881 H 0.78582 0.19151 0.15894 0.0
H3882 H 0.7944 0.18514 0.13715 0.0
H3883 H 0.77099 0.18217 0.13798 0.0
C3884 C 0.81298 0.19638 0.08354 0.0
C3885 C 0.79991 0.17963 0.07545 0.0
C3886 C 0.81028 0.20791 0.09973 0.0
C3887 C 0.79429 0.20302 0.10764 0.0
C3888 C 0.78146 0.18597 0.09981 0.0
H3889 H 0.76789 0.26516 0.20867 0.0
H3890 H 0.76153 0.24719 0.17666 0.0
C3891 C 0.78439 0.17416 0.08399 0.0
C3892 C 0.79045 0.2167 0.12298 0.0
H3893 H 0.78062 0.22201 0.1678 0.0
C3894 C 0.79181 0.23554 0.12034 0.0
C3895 C 0.7858 0.21151 0.14006 0.0
C3896 C 0.7843 0.19153 0.14378 0.0
C3897 C 0.78952 0.24968 0.1347 0.0
C3898 C 0.78585 0.24477 0.15207 0.0
C3899 C 0.78337 0.22566 0.15435 0.0
C3900 C 0.78747 0.25948 0.16892 0.0
C3901 C 0.79153 0.26981 0.13127 0.0
C3902 C 0.80383 0.273 0.17475 0.0
C3903 C 0.80742 0.28336 0.19292 0.0
C3904 C 0.7949 0.27996 0.20559 0.0
C3905 C 0.77792 0.26779 0.19923 0.0
C3906 C 0.77422 0.2576 0.18096 0.0
H3907 H 0.78733 0.2696 0.11647 0.0
H3908 H 0.7837 0.27762 0.14031 0.0
H3909 H 0.8057 0.27788 0.13424 0.0
H3910 H 0.81439 0.27433 0.1658 0.0
H3911 H 0.8205 0.29261 0.19735 0.0
H3912 H 0.17344 0.58116 0.31014 0.0
H3913 H 0.1633 0.58683 0.3408 0.0
H3914 H 0.16098 0.52831 0.34567 0.0
H3915 H 0.1719 0.52272 0.31486 0.0
H3916 H 0.12882 0.56043 0.34169 0.0
H3917 H 0.17953 0.5639 0.39986 0.0
H3918 H 0.18561 0.57042 0.378 0.0
H3919 H 0.1767 0.54566 0.37909 0.0
C3920 C 0.17111 0.56962 0.31793 0.0
C3921 C 0.17295 0.55139 0.31022 0.0
C3922 C 0.16559 0.57296 0.33546 0.0
C3923 C 0.16153 0.55799 0.34533 0.0
C3924 C 0.16438 0.54005 0.33821 0.0
H3925 H 0.08832 0.54634 0.42682 0.0
H3926 H 0.11174 0.5422 0.4072 0.0
C3927 C 0.17036 0.53681 0.32067 0.0
C3928 C 0.15081 0.56024 0.36072 0.0
H3929 H 0.15144 0.56734 0.40791 0.0
C3930 C 0.13372 0.56191 0.35618 0.0
C3931 C 0.15743 0.56207 0.37942 0.0
C3932 C 0.17585 0.5605 0.38455 0.0
C3933 C 0.12303 0.56576 0.37001 0.0
C3934 C 0.12972 0.568 0.38876 0.0
C3935 C 0.14664 0.56585 0.3934 0.0
C3936 C 0.1186 0.5717 0.40342 0.0
C3937 C 0.10466 0.56744 0.36452 0.0
C3938 C 0.11502 0.58971 0.40766 0.0
C3939 C 0.1015 0.59205 0.41857 0.0
C3940 C 0.09165 0.57639 0.42533 0.0
C3941 C 0.09577 0.55856 0.42161 0.0
C3942 C 0.10922 0.55624 0.4107 0.0
H3943 H 0.10071 0.56276 0.34929 0.0
H3944 H 0.09477 0.55866 0.37192 0.0
H3945 H 0.10425 0.58265 0.3686 0.0
H3946 H 0.12218 0.60167 0.40188 0.0
H3947 H 0.09873 0.60598 0.42169 0.0
H3948 H 0.8156 0.84408 0.57244 0.0
H3949 H 0.81034 0.82979 0.60017 0.0
H3950 H 0.79143 0.87767 0.62553 0.0
H3951 H 0.79654 0.89206 0.598 0.0
H3952 H 0.82107 0.86589 0.64696 0.0
H3953 H 0.75967 0.80763 0.61986 0.0
H3954 H 0.77717 0.81207 0.60502 0.0
H3955 H 0.76511 0.82972 0.61102 0.0
C3956 C 0.81014 0.85148 0.58382 0.0
C3957 C 0.80654 0.86926 0.58297 0.0
C3958 C 0.80714 0.84328 0.59964 0.0
C3959 C 0.80043 0.85266 0.61481 0.0
C3960 C 0.7966 0.87022 0.61393 0.0
H3961 H 0.78947 0.83551 0.72883 0.0
H3962 H 0.79042 0.84832 0.70012 0.0
C3963 C 0.79956 0.87842 0.59817 0.0
C3964 C 0.7982 0.84466 0.632 0.0
H3965 H 0.77204 0.80924 0.65038 0.0
C3966 C 0.81034 0.85353 0.64777 0.0
C3967 C 0.78423 0.82853 0.63291 0.0
C3968 C 0.77068 0.81887 0.61638 0.0
C3969 C 0.80908 0.84648 0.66441 0.0
C3970 C 0.79497 0.83041 0.66543 0.0
C3971 C 0.7828 0.82157 0.64962 0.0
C3972 C 0.79297 0.82227 0.68263 0.0
C3973 C 0.82316 0.85596 0.68056 0.0
C3974 C 0.79328 0.8031 0.68222 0.0
C3975 C 0.79253 0.79567 0.69857 0.0
C3976 C 0.7914 0.80725 0.71567 0.0
C3977 C 0.79048 0.82625 0.71593 0.0
C3978 C 0.79113 0.83363 0.69954 0.0
H3979 H 0.83536 0.86448 0.67595 0.0
H3980 H 0.81806 0.86592 0.69066 0.0
H3981 H 0.82673 0.84513 0.68787 0.0
H3982 H 0.79461 0.79404 0.66933 0.0
H3983 H 0.79336 0.781 0.69786 0.0
H3984 H 0.76344 0.45121 0.49448 0.0
H3985 H 0.73778 0.46486 0.49698 0.0
H3986 H 0.76448 0.50449 0.54702 0.0
H3987 H 0.79006 0.49158 0.54436 0.0
H3988 H 0.71708 0.46668 0.52679 0.0
H3989 H 0.74966 0.53962 0.51591 0.0
H3990 H 0.75904 0.51946 0.50973 0.0
H3991 H 0.76227 0.53259 0.5334 0.0
C3992 C 0.76384 0.46302 0.50581 0.0
C3993 C 0.77874 0.47057 0.51907 0.0
C3994 C 0.74925 0.47072 0.50724 0.0
C3995 C 0.74955 0.48589 0.52193 0.0
C3996 C 0.76432 0.49318 0.53526 0.0
H3997 H 0.68313 0.53813 0.58605 0.0
H3998 H 0.70229 0.51843 0.57263 0.0
C3999 C 0.77888 0.48575 0.53373 0.0
C4000 C 0.73429 0.49388 0.52419 0.0
H4001 H 0.7241 0.5369 0.53323 0.0
C4002 C 0.71839 0.48194 0.52779 0.0
C4003 C 0.73616 0.51376 0.52534 0.0
C4004 C 0.75266 0.52703 0.52069 0.0
C4005 C 0.70463 0.48975 0.53379 0.0
C4006 C 0.70712 0.50979 0.53625 0.0
C4007 C 0.72253 0.52152 0.53155 0.0
C4008 C 0.69413 0.51921 0.54411 0.0
C4009 C 0.68774 0.47679 0.53793 0.0
C4010 C 0.68362 0.52611 0.53236 0.0
C4011 C 0.673 0.53744 0.5399 0.0
C4012 C 0.67278 0.54201 0.55932 0.0
C4013 C 0.68325 0.53491 0.57108 0.0
C4014 C 0.69391 0.5235 0.56347 0.0
H4015 H 0.68722 0.46132 0.53353 0.0
H4016 H 0.68665 0.47982 0.55312 0.0
H4017 H 0.67614 0.47977 0.53072 0.0
H4018 H 0.68398 0.52311 0.5174 0.0
H4019 H 0.66517 0.54292 0.53054 0.0
H4020 H 0.24371 0.18086 0.49099 0.0
H4021 H 0.2133 0.16218 0.49132 0.0
H4022 H 0.23224 0.11374 0.50096 0.0
H4023 H 0.26281 0.13252 0.50113 0.0
H4024 H 0.19235 0.12869 0.47097 0.0
H4025 H 0.20368 0.12137 0.54445 0.0
H4026 H 0.21959 0.13733 0.53374 0.0
H4027 H 0.21823 0.11201 0.52969 0.0
C4028 C 0.24146 0.16618 0.49304 0.0
C4029 C 0.25579 0.15829 0.49624 0.0
C4030 C 0.22401 0.1555 0.49322 0.0
C4031 C 0.22045 0.13669 0.4966 0.0
C4032 C 0.23465 0.12841 0.49882 0.0
H4033 H 0.12305 0.05064 0.5019 0.0
H4034 H 0.1528 0.06773 0.49679 0.0
C4035 C 0.25214 0.13912 0.49875 0.0
C4036 C 0.20195 0.12602 0.49829 0.0
H4037 H 0.17585 0.10369 0.52797 0.0
C4038 C 0.18876 0.12326 0.48345 0.0
C4039 C 0.19716 0.11912 0.51467 0.0
C4040 C 0.21035 0.12276 0.53162 0.0
C4041 C 0.17105 0.1135 0.48445 0.0
C4042 C 0.16643 0.1063 0.50064 0.0
C4043 C 0.17952 0.1091 0.5155 0.0
C4044 C 0.148 0.09591 0.50253 0.0
C4045 C 0.15734 0.11079 0.4682 0.0
C4046 C 0.13541 0.10608 0.5074 0.0
C4047 C 0.11837 0.09631 0.51044 0.0
C4048 C 0.11354 0.07614 0.50846 0.0
C4049 C 0.12612 0.06603 0.5032 0.0
C4050 C 0.14322 0.07582 0.50039 0.0
H4051 H 0.16328 0.1158 0.45598 0.0
H4052 H 0.15005 0.09537 0.46401 0.0
H4053 H 0.14754 0.11894 0.47245 0.0
H4054 H 0.13888 0.12161 0.5092 0.0
H4055 H 0.109 0.10456 0.51445 0.0
H4056 H 0.23128 0.9699 0.73053 0.0
H4057 H 0.24549 0.9435 0.73108 0.0
H4058 H 0.21481 0.92614 0.77479 0.0
H4059 H 0.20038 0.9522 0.77396 0.0
H4060 H 0.26677 0.93245 0.75275 0.0
H4061 H 0.20552 0.87416 0.7451 0.0
H4062 H 0.20513 0.8981 0.74257 0.0
H4063 H 0.20637 0.8921 0.76538 0.0
C4064 C 0.22735 0.96043 0.74022 0.0
C4065 C 0.21427 0.96363 0.75208 0.0
C4066 C 0.23568 0.94509 0.74058 0.0
C4067 C 0.23133 0.9318 0.75268 0.0
C4068 C 0.21842 0.93522 0.76472 0.0
H4069 H 0.26934 0.83516 0.78466 0.0
H4070 H 0.2563 0.86163 0.78137 0.0
C4071 C 0.21013 0.95056 0.76438 0.0
C4072 C 0.24034 0.91491 0.75291 0.0
H4073 H 0.23211 0.86641 0.7545 0.0
C4074 C 0.25898 0.91804 0.75295 0.0
C4075 C 0.23082 0.89552 0.75305 0.0
C4076 C 0.21086 0.88968 0.75132 0.0
C4077 C 0.26797 0.90319 0.75372 0.0
C4078 C 0.25845 0.88399 0.75434 0.0
C4079 C 0.23985 0.88081 0.75413 0.0
C4080 C 0.26737 0.86738 0.75606 0.0
C4081 C 0.28788 0.9084 0.75452 0.0
C4082 C 0.27829 0.86074 0.74296 0.0
C4083 C 0.2857 0.84488 0.74465 0.0
C4084 C 0.28298 0.83517 0.75982 0.0
C4085 C 0.27219 0.84202 0.77283 0.0
C4086 C 0.26453 0.85742 0.77094 0.0
H4087 H 0.29371 0.92421 0.75796 0.0
H4088 H 0.29367 0.90174 0.76503 0.0
H4089 H 0.29173 0.90282 0.74075 0.0
H4090 H 0.28075 0.86748 0.73102 0.0
H4091 H 0.29332 0.84007 0.73386 0.0
H4092 H 0.37253 0.93198 0.01372 0.0
H4093 H 0.40466 0.94466 0.01719 0.0
H4094 H 0.39873 0.99996 0.00937 0.0
H4095 H 0.36649 0.98748 0.00586 0.0
H4096 H 0.42483 0.96452 0.98873 0.0
H4097 H 0.43174 1.00767 0.06055 0.0
H4098 H 0.41298 0.98737 0.05155 0.0
H4099 H 0.41469 0.00977 0.04404 0.0
C4100 C 0.37805 0.94683 0.0127 0.0
C4101 C 0.3671 0.9588 0.00954 0.0
C4102 C 0.39632 0.95399 0.0147 0.0
C4103 C 0.40376 0.97316 0.01368 0.0
C4104 C 0.39297 0.98514 0.01034 0.0
H4105 H 0.50671 0.0484 0.03301 0.0
H4106 H 0.47557 0.03289 0.02243 0.0
C4107 C 0.37467 0.97798 0.00826 0.0
C4108 C 0.42292 0.98056 0.01569 0.0
H4109 H 0.45739 0.01088 0.04492 0.0
C4110 C 0.43211 0.97452 1.00105 0.0
C4111 C 0.43198 0.99359 0.03177 0.0
C4112 C 0.42243 0.99995 0.04799 0.0
C4113 C 0.45043 0.98162 1.00185 0.0
C4114 C 0.45955 0.99512 0.01777 0.0
C4115 C 0.45027 1.00075 0.03261 0.0
C4116 C 0.47865 1.00395 0.01972 0.0
C4117 C 0.45923 0.97549 0.98499 0.0
C4118 C 0.49061 0.99275 0.02141 0.0
C4119 C 0.50851 1.00164 0.02668 0.0
C4120 C 0.5144 0.02174 0.03072 0.0
C4121 C 0.50246 0.03291 0.02924 0.0
C4122 C 0.48473 0.02406 0.02328 0.0
H4123 H 0.45297 0.96018 0.97855 0.0
H4124 H 0.45711 0.98416 0.97449 0.0
H4125 H 0.47359 0.97733 0.98802 0.0
H4126 H 0.486 0.97723 0.01942 0.0
H4127 H 0.51761 0.99291 0.0284 0.0
H4128 H 0.91358 0.62597 0.82362 0.0
H4129 H 0.90053 0.65183 0.81767 0.0
H4130 H 0.8505 0.61018 0.798 0.0
H4131 H 0.86318 0.58455 0.80431 0.0
H4132 H 0.88836 0.65227 0.78231 0.0
H4133 H 0.8343 0.65336 0.82708 0.0
H4134 H 0.85191 0.64238 0.83196 0.0
H4135 H 0.83303 0.62934 0.81546 0.0
C4136 C 0.89962 0.62248 0.81872 0.0
C4137 C 0.88938 0.60331 0.81435 0.0
C4138 C 0.89223 0.63722 0.81528 0.0
C4139 C 0.87452 0.6329 0.80766 0.0
C4140 C 0.86405 0.61389 0.80438 0.0
H4141 H 0.80783 0.65994 0.73112 0.0
H4142 H 0.82491 0.64768 0.753 0.0
C4143 C 0.87138 0.59922 0.80783 0.0
C4144 C 0.86758 0.6474 0.80028 0.0
H4145 H 0.8304 0.66338 0.79728 0.0
C4146 C 0.87599 0.65528 0.78599 0.0
C4147 C 0.85139 0.65109 0.80505 0.0
C4148 C 0.84225 0.64372 0.82087 0.0
C4149 C 0.86792 0.66562 0.7754 0.0
C4150 C 0.85118 0.66813 0.77937 0.0
C4151 C 0.84327 0.6613 0.79435 0.0
C4152 C 0.84083 0.67585 0.76677 0.0
C4153 C 0.87668 0.67271 0.75926 0.0
C4154 C 0.84424 0.69569 0.76754 0.0
C4155 C 0.83449 0.70271 0.75512 0.0
C4156 C 0.82144 0.68989 0.74174 0.0
C4157 C 0.81805 0.67003 0.74113 0.0
C4158 C 0.82765 0.66306 0.75364 0.0
H4159 H 0.88961 0.66922 0.75781 0.0
H4160 H 0.86786 0.66616 0.7461 0.0
H4161 H 0.87887 0.68853 0.7612 0.0
H4162 H 0.85443 0.70565 0.77767 0.0
H4163 H 0.83727 0.71809 0.75581 0.0
H4164 H 0.84334 0.65195 0.04375 0.0
H4165 H 0.86895 0.63907 0.04666 0.0
H4166 H 0.88853 0.66207 0.99937 0.0
H4167 H 0.86291 0.67558 0.99661 0.0
H4168 H 0.87788 0.61247 0.02102 0.0
H4169 H 0.93243 0.67997 0.03756 0.0
H4170 H 0.90947 0.67995 0.03867 0.0
H4171 H 0.91805 0.67658 0.01652 0.0
C4172 C 0.85307 0.65436 0.03394 0.0
C4173 C 0.85103 0.66474 0.01989 0.0
C4174 C 0.86775 0.647 0.03567 0.0
C4175 C 0.88075 0.64974 0.02336 0.0
C4176 C 0.87883 0.6601 0.00925 0.0
H4177 H 0.96058 0.58381 0.02015 0.0
H4178 H 0.94155 0.60326 0.01048 0.0
C4179 C 0.86412 0.66766 0.0076 0.0
C4180 C 0.89569 0.6408 0.02508 0.0
H4181 H 0.94044 0.65076 0.03651 0.0
C4182 C 0.89157 0.62084 0.02419 0.0
C4183 C 0.91356 0.65176 0.02926 0.0
C4184 C 0.91873 0.67327 0.03071 0.0
C4185 C 0.9047 0.61163 0.02793 0.0
C4186 C 0.92244 0.62262 0.03254 0.0
C4187 C 0.92677 0.64246 0.03288 0.0
C4188 C 0.93624 0.61366 0.03843 0.0
C4189 C 0.89951 0.59029 0.02769 0.0
C4190 C 0.93979 0.61352 0.05736 0.0
C4191 C 0.95054 0.60241 0.06291 0.0
C4192 C 0.95793 0.59125 0.04961 0.0
C4193 C 0.95512 0.59229 0.03072 0.0
C4194 C 0.94428 0.60337 0.02517 0.0
H4195 H 0.88509 0.58378 0.02379 0.0
H4196 H 0.90687 0.58295 0.01763 0.0
H4197 H 0.90318 0.58761 0.04166 0.0
H4198 H 0.93362 0.62137 0.06775 0.0
H4199 H 0.95272 0.60215 0.07759 0.0
H4200 H 0.18851 0.08302 0.76265 0.0
H4201 H 0.20517 0.11594 0.76277 0.0
H4202 H 0.25292 0.10297 0.78262 0.0
H4203 H 0.2363 0.06936 0.78092 0.0
H4204 H 0.22024 0.14466 0.78554 0.0
H4205 H 0.27566 0.13092 0.747 0.0
H4206 H 0.25689 0.11169 0.749 0.0
H4207 H 0.27469 0.12099 0.76768 0.0
C4208 C 0.20263 0.08707 0.76689 0.0
C4209 C 0.21094 0.07323 0.77168 0.0
C4210 C 0.21227 0.10616 0.76701 0.0
C4211 C 0.23071 0.11257 0.77235 0.0
C4212 C 0.23899 0.09878 0.77762 0.0
H4213 H 0.30701 0.22846 0.78676 0.0
H4214 H 0.29212 0.19488 0.7873 0.0
C4215 C 0.22938 0.07939 0.77689 0.0
C4216 C 0.2407 0.13363 0.77287 0.0
H4217 H 0.27839 0.16324 0.76137 0.0
C4218 C 0.23289 0.14849 0.78005 0.0
C4219 C 0.25742 0.13941 0.76593 0.0
C4220 C 0.26657 0.12491 0.7568 0.0
C4221 C 0.24104 0.16827 0.78061 0.0
C4222 C 0.25773 0.17399 0.7737 0.0
C4223 C 0.2657 0.15925 0.76676 0.0
C4224 C 0.267 0.19498 0.77337 0.0
C4225 C 0.23168 0.18287 0.78907 0.0
C4226 C 0.25829 0.2068 0.76521 0.0
C4227 C 0.26687 0.22618 0.76492 0.0
C4228 C 0.28469 0.23461 0.77248 0.0
C4229 C 0.29346 0.22274 0.78054 0.0
C4230 C 0.28483 0.20334 0.7809 0.0
H4231 H 0.22248 0.17715 0.79892 0.0
H4232 H 0.24123 0.19632 0.7966 0.0
H4233 H 0.22368 0.1864 0.77782 0.0
H4234 H 0.2448 0.201 0.75875 0.0
H4235 H 0.25945 0.2345 0.7585 0.0
H4236 H 0.42518 0.99277 0.29575 0.0
H4237 H 0.40515 0.96063 0.28724 0.0
H4238 H 0.36484 0.9804 0.31632 0.0
H4239 H 0.3847 0.01287 0.32461 0.0
H4240 H 0.3889 0.93779 0.31131 0.0
H4241 H 0.3397 0.9549 0.2633 0.0
H4242 H 0.36149 0.97088 0.27079 0.0
H4243 H 0.34477 0.96908 0.28653 0.0
C4244 C 0.41219 0.99023 0.30063 0.0
C4245 C 0.40643 1.00523 0.31077 0.0
C4246 C 0.40073 0.97197 0.29559 0.0
C4247 C 0.38348 0.9685 0.30079 0.0
C4248 C 0.37798 0.98313 0.31179 0.0
H4249 H 0.30546 0.85766 0.27367 0.0
H4250 H 0.31822 0.89255 0.28182 0.0
C4251 C 0.38939 1.00149 0.3167 0.0
C4252 C 0.37168 0.9492 0.29516 0.0
H4253 H 0.33533 0.92239 0.26589 0.0
C4254 C 0.37709 0.93441 0.30152 0.0
C4255 C 0.35629 0.9451 0.2825 0.0
C4256 C 0.35019 0.96077 0.27524 0.0
C4257 C 0.36789 0.91533 0.29502 0.0
C4258 C 0.35294 0.91103 0.28166 0.0
C4259 C 0.34693 0.92588 0.27597 0.0
C4260 C 0.34391 0.89107 0.27329 0.0
C4261 C 0.37472 0.90011 0.30231 0.0
C4262 C 0.35382 0.87906 0.2649 0.0
C4263 C 0.34713 0.8593 0.26206 0.0
C4264 C 0.33006 0.85142 0.26645 0.0
C4265 C 0.31914 0.86351 0.27184 0.0
C4266 C 0.32621 0.88337 0.27586 0.0
H4267 H 0.38099 0.90539 0.3169 0.0
H4268 H 0.36407 0.88689 0.30178 0.0
H4269 H 0.38497 0.89639 0.29364 0.0
H4270 H 0.36727 0.88495 0.26207 0.0
H4271 H 0.35553 0.85025 0.25688 0.0
H4272 H 0.57476 0.35243 0.56489 0.0
H4273 H 0.56861 0.38088 0.55502 0.0
H4274 H 0.60695 0.41767 0.59924 0.0
H4275 H 0.61336 0.38925 0.60874 0.0
H4276 H 0.55572 0.40947 0.57104 0.0
H4277 H 0.62398 0.44225 0.55695 0.0
H4278 H 0.61734 0.41816 0.5614 0.0
H4279 H 0.623 0.43855 0.58043 0.0
C4280 C 0.58191 0.36661 0.57244 0.0
C4281 C 0.59462 0.36857 0.58754 0.0
C4282 C 0.57837 0.38293 0.56681 0.0
C4283 C 0.58751 0.4017 0.57606 0.0
C4284 C 0.59999 0.40356 0.59142 0.0
H4285 H 0.56977 0.51501 0.56923 0.0
H4286 H 0.57283 0.48562 0.57972 0.0
C4287 C 0.60357 0.38725 0.59698 0.0
C4288 C 0.58384 0.41918 0.56982 0.0
H4289 H 0.60372 0.46171 0.55686 0.0
C4290 C 0.56628 0.42082 0.56794 0.0
C4291 C 0.59745 0.43417 0.56549 0.0
C4292 C 0.61647 0.43315 0.56597 0.0
C4293 C 0.56211 0.43692 0.56229 0.0
C4294 C 0.57575 0.45194 0.55837 0.0
C4295 C 0.59324 0.45031 0.56004 0.0
C4296 C 0.57207 0.46921 0.55201 0.0
C4297 C 0.5431 0.43781 0.56033 0.0
C4298 C 0.57033 0.46981 0.53294 0.0
C4299 C 0.56851 0.48656 0.52694 0.0
C4300 C 0.56808 0.50307 0.53983 0.0
C4301 C 0.56944 0.50234 0.55892 0.0
C4302 C 0.57135 0.48559 0.56493 0.0
H4303 H 0.53391 0.4251 0.56396 0.0
H4304 H 0.54169 0.45103 0.56947 0.0
H4305 H 0.53918 0.43869 0.54576 0.0
H4306 H 0.5709 0.45746 0.52267 0.0
H4307 H 0.56793 0.48682 0.51219 0.0
H4308 H 0.48173 0.81363 0.37821 0.0
H4309 H 0.45351 0.81428 0.36261 0.0
H4310 H 0.43514 0.75266 0.35644 0.0
H4311 H 0.46302 0.75222 0.37327 0.0
H4312 H 0.43803 0.80211 0.33035 0.0
H4313 H 0.39222 0.76391 0.37425 0.0
H4314 H 0.41585 0.7711 0.38043 0.0
H4315 H 0.40565 0.74941 0.36362 0.0
C4316 C 0.47165 0.80019 0.37364 0.0
C4317 C 0.47472 0.78288 0.37712 0.0
C4318 C 0.4554 0.80057 0.36465 0.0
C4319 C 0.4417 0.78359 0.35848 0.0
C4320 C 0.44497 0.76616 0.36155 0.0
H4321 H 0.35168 0.774 0.27599 0.0
H4322 H 0.37841 0.77068 0.29271 0.0
C4323 C 0.4611 0.76585 0.37102 0.0
C4324 C 0.42449 0.78431 0.34836 0.0
H4325 H 0.37909 0.76971 0.34642 0.0
C4326 C 0.42521 0.79501 0.33402 0.0
C4327 C 0.40746 0.77527 0.35296 0.0
C4328 C 0.40522 0.76445 0.36878 0.0
C4329 C 0.40976 0.79679 0.32429 0.0
C4330 C 0.39287 0.78738 0.32859 0.0
C4331 C 0.392 0.77678 0.34293 0.0
C4332 C 0.37606 0.7888 0.31854 0.0
C4333 C 0.41156 0.80915 0.30969 0.0
C4334 C 0.36549 0.79982 0.32745 0.0
C4335 C 0.35027 0.80202 0.31777 0.0
C4336 C 0.34506 0.79316 0.29887 0.0
C4337 C 0.35536 0.78153 0.29025 0.0
C4338 C 0.37068 0.77949 0.29988 0.0
H4339 H 0.42546 0.81756 0.30967 0.0
H4340 H 0.407 0.79988 0.29573 0.0
H4341 H 0.40307 0.81928 0.31207 0.0
H4342 H 0.36923 0.80711 0.34183 0.0
H4343 H 0.34276 0.81099 0.32509 0.0
H4344 H 0.08323 0.75612 0.1183 0.0
H4345 H 0.08086 0.72219 0.10817 0.0
H4346 H 0.07491 0.72816 0.05081 0.0
H4347 H 0.07805 0.7629 0.06105 0.0
H4348 H 0.05439 0.69478 0.09042 0.0
H4349 H 0.11045 0.69713 0.04726 0.0
H4350 H 0.10752 0.71842 0.06189 0.0
H4351 H 0.09419 0.7086 0.03989 0.0
C4352 C 0.08144 0.75038 0.10346 0.0
C4353 C 0.08072 0.76243 0.09052 0.0
C4354 C 0.08011 0.7308 0.09767 0.0
C4355 C 0.07784 0.72233 0.07868 0.0
C4356 C 0.07707 0.73424 0.06556 0.0
H4357 H 0.06377 0.59878 0.03116 0.0
H4358 H 0.06816 0.6337 0.03472 0.0
C4359 C 0.0787 0.75413 0.07142 0.0
C4360 C 0.07559 0.70096 0.07323 0.0
H4361 H 0.09318 0.66639 0.04962 0.0
C4362 C 0.06291 0.68867 0.08146 0.0
C4363 C 0.08646 0.69267 0.06133 0.0
C4364 C 0.10052 0.70486 0.05217 0.0
C4365 C 0.061 0.66868 0.07853 0.0
C4366 C 0.07236 0.66046 0.06728 0.0
C4367 C 0.0846 0.67258 0.05843 0.0
C4368 C 0.07176 0.63943 0.06487 0.0
C4369 C 0.04659 0.6566 0.08744 0.0
C4370 C 0.07316 0.6309 0.0805 0.0
C4371 C 0.07045 0.61094 0.07848 0.0
C4372 C 0.06683 0.59894 0.06076 0.0
C4373 C 0.06667 0.60757 0.04502 0.0
C4374 C 0.06911 0.62759 0.04706 0.0
H4375 H 0.03573 0.66367 0.09017 0.0
H4376 H 0.04086 0.64218 0.07854 0.0
H4377 H 0.05222 0.65474 0.10104 0.0
H4378 H 0.07584 0.63964 0.09439 0.0
H4379 H 0.07074 0.60477 0.09087 0.0
H4380 H 0.06388 0.25164 0.8594 0.0
H4381 H 0.09213 0.25581 0.84598 0.0
H4382 H 0.11794 0.29763 0.89483 0.0
H4383 H 0.08957 0.29373 0.90832 0.0
H4384 H 0.11475 0.29429 0.84067 0.0
H4385 H 0.14913 0.25671 0.88486 0.0
H4386 H 0.12525 0.25133 0.88125 0.0
H4387 H 0.13765 0.27339 0.89598 0.0
C4388 C 0.07553 0.26174 0.86734 0.0
C4389 C 0.07434 0.27242 0.88494 0.0
C4390 C 0.09172 0.26407 0.85964 0.0
C4391 C 0.10726 0.27688 0.86943 0.0
C4392 C 0.1062 0.2875 0.88707 0.0
H4393 H 0.21485 0.30629 0.83228 0.0
H4394 H 0.1905 0.30193 0.8523 0.0
C4395 C 0.08992 0.28535 0.89471 0.0
C4396 C 0.12424 0.27977 0.86062 0.0
H4397 H 0.1647 0.26958 0.86142 0.0
C4398 C 0.12568 0.28894 0.84527 0.0
C4399 C 0.13865 0.27303 0.86672 0.0
C4400 C 0.13773 0.26297 0.88306 0.0
C4401 C 0.14092 0.29137 0.83577 0.0
C4402 C 0.15507 0.28391 0.8413 0.0
C4403 C 0.15388 0.27519 0.85702 0.0
C4404 C 0.17061 0.28435 0.83022 0.0
C4405 C 0.14177 0.30207 0.81986 0.0
C4406 C 0.16785 0.2752 0.81139 0.0
C4407 C 0.18165 0.27771 0.80002 0.0
C4408 C 0.19871 0.28923 0.80718 0.0
C4409 C 0.20188 0.29725 0.82636 0.0
C4410 C 0.18794 0.29484 0.83779 0.0
H4411 H 0.13265 0.31159 0.82088 0.0
H4412 H 0.15541 0.31095 0.81949 0.0
H4413 H 0.13774 0.29155 0.80651 0.0
H4414 H 0.15478 0.26668 0.80525 0.0
H4415 H 0.17879 0.27123 0.78535 0.0
H4416 H 0.62575 0.78753 0.94592 0.0
H4417 H 0.61854 0.76006 0.96135 0.0
H4418 H 0.57293 0.73339 0.92106 0.0
H4419 H 0.57998 0.76101 0.90542 0.0
H4420 H 0.58133 0.74799 0.97396 0.0
H4421 H 0.60312 0.69156 0.92695 0.0
H4422 H 0.61295 0.71691 0.92814 0.0
H4423 H 0.59091 0.70607 0.91704 0.0
C4424 C 0.61428 0.77576 0.94018 0.0
C4425 C 0.60336 0.77642 0.92451 0.0
C4426 C 0.61024 0.76009 0.94898 0.0
C4427 C 0.59536 0.74478 0.94216 0.0
C4428 C 0.5846 0.7451 0.92631 0.0
H4429 H 0.55399 0.64356 0.98955 0.0
H4430 H 0.56095 0.66585 0.96794 0.0
C4431 C 0.58857 0.76088 0.91751 0.0
C4432 C 0.59032 0.72941 0.9528 0.0
H4433 H 0.59156 0.68347 0.95438 0.0
C4434 C 0.58344 0.73382 0.96968 0.0
C4435 C 0.59304 0.71104 0.94694 0.0
C4436 C 0.60046 0.70596 0.9288 0.0
C4437 C 0.57932 0.7203 0.98113 0.0
C4438 C 0.58271 0.70212 0.97572 0.0
C4439 C 0.58917 0.69751 0.95853 0.0
C4440 C 0.57979 0.68792 0.98799 0.0
C4441 C 0.57125 0.72561 0.99882 0.0
C4442 C 0.58852 0.69279 0.00613 0.0
C4443 C 0.58431 0.68034 0.01852 0.0
C4444 C 0.57165 0.66265 0.01278 0.0
C4445 C 0.56368 0.65727 0.99428 0.0
C4446 C 0.56768 0.66989 0.98196 0.0
H4447 H 0.56469 0.73734 0.99804 0.0
H4448 H 0.56135 0.71304 1.0018 0.0
H4449 H 0.58186 0.73081 0.01066 0.0
H4450 H 0.59831 0.70642 0.01082 0.0
H4451 H 0.59093 0.68451 0.03258 0.0
H4452 H 0.06509 0.7833 0.71011 0.0
H4453 H 0.09426 0.77698 0.71289 0.0
H4454 H 0.09809 0.77748 0.65456 0.0
H4455 H 0.069 0.78392 0.65155 0.0
H4456 H 0.10278 0.74158 0.67423 0.0
H4457 H 0.14443 0.81604 0.70237 0.0
H4458 H 0.12317 0.80856 0.71082 0.0
H4459 H 0.12421 0.81125 0.68705 0.0
C4460 C 0.07231 0.78255 0.69798 0.0
C4461 C 0.06481 0.7841 0.68062 0.0
C4462 C 0.08883 0.77877 0.69956 0.0
C4463 C 0.098 0.77663 0.68386 0.0
C4464 C 0.09098 0.77898 0.66672 0.0
H4465 H 0.20592 0.77256 0.70516 0.0
H4466 H 0.17979 0.77173 0.68481 0.0
C4467 C 0.07448 0.78279 0.66511 0.0
C4468 C 0.11486 0.77159 0.68543 0.0
H4469 H 0.15773 0.79056 0.70358 0.0
C4470 C 0.11495 0.75225 0.68031 0.0
C4471 C 0.1305 0.78567 0.69319 0.0
C4472 C 0.13075 0.80661 0.69864 0.0
C4473 C 0.13038 0.74645 0.68376 0.0
C4474 C 0.14582 0.76042 0.69255 0.0
C4475 C 0.14587 0.77991 0.69665 0.0
C4476 C 0.16126 0.75523 0.70037 0.0
C4477 C 0.12991 0.72545 0.67859 0.0
C4478 C 0.1594 0.74545 0.71527 0.0
C4479 C 0.17427 0.74595 0.72692 0.0
C4480 C 0.19109 0.75628 0.72379 0.0
C4481 C 0.19307 0.7644 0.70779 0.0
C4482 C 0.17819 0.76393 0.69615 0.0
H4483 H 0.11957 0.7179 0.66683 0.0
H4484 H 0.14293 0.72355 0.67472 0.0
H4485 H 0.12666 0.71853 0.69072 0.0
H4486 H 0.1464 0.73897 0.71893 0.0
H4487 H 0.1725 0.73943 0.7391 0.0
H4488 H 0.10178 0.37842 0.45877 0.0
H4489 H 0.10344 0.4117 0.47219 0.0
H4490 H 0.12573 0.42977 0.42383 0.0
H4491 H 0.12391 0.39616 0.41003 0.0
H4492 H 0.13242 0.44607 0.47982 0.0
H4493 H 0.079 0.44721 0.4264 0.0
H4494 H 0.08355 0.42497 0.42986 0.0
H4495 H 0.09858 0.44106 0.41865 0.0
C4496 C 0.10731 0.38945 0.45107 0.0
C4497 C 0.11259 0.3847 0.43329 0.0
C4498 C 0.10829 0.40846 0.45879 0.0
C4499 C 0.11454 0.42305 0.44889 0.0
C4500 C 0.12073 0.41859 0.43155 0.0
H4501 H 0.08673 0.53134 0.48535 0.0
H4502 H 0.10063 0.50848 0.46755 0.0
C4503 C 0.11978 0.39945 0.42378 0.0
C4504 C 0.1131 0.44253 0.45645 0.0
H4505 H 0.08586 0.4718 0.45275 0.0
C4506 C 0.12256 0.45201 0.47373 0.0
C4507 C 0.10025 0.45016 0.44836 0.0
C4508 C 0.08966 0.44038 0.42983 0.0
C4509 C 0.11879 0.46839 0.48371 0.0
C4510 C 0.10494 0.47511 0.47631 0.0
C4511 C 0.09639 0.46648 0.45841 0.0
C4512 C 0.09787 0.4897 0.4876 0.0
C4513 C 0.12929 0.47794 0.50231 0.0
C4514 C 0.09155 0.48652 0.5046 0.0
C4515 C 0.0838 0.4996 0.5148 0.0
C4516 C 0.08194 0.51578 0.50795 0.0
C4517 C 0.08805 0.51887 0.49085 0.0
C4518 C 0.09603 0.50593 0.48075 0.0
H4519 H 0.14286 0.47585 0.50275 0.0
H4520 H 0.13029 0.4936 0.50545 0.0
H4521 H 0.12266 0.4713 0.51341 0.0
H4522 H 0.09218 0.47367 0.50975 0.0
H4523 H 0.0787 0.49667 0.52766 0.0
H4524 H 0.46301 0.28337 0.17272 0.0
H4525 H 0.43287 0.28296 0.18016 0.0
H4526 H 0.44223 0.26092 0.22963 0.0
H4527 H 0.47233 0.2613 0.22247 0.0
H4528 H 0.4068 0.24229 0.19676 0.0
H4529 H 0.42437 0.31858 0.2348 0.0
H4530 H 0.43429 0.31166 0.21397 0.0
H4531 H 0.44026 0.30443 0.23505 0.0
C4532 C 0.45872 0.27864 0.18529 0.0
C4533 C 0.47006 0.27256 0.19714 0.0
C4534 C 0.44152 0.27826 0.18938 0.0
C4535 C 0.43554 0.2718 0.20531 0.0
C4536 C 0.44678 0.26585 0.21722 0.0
H4537 H 0.34915 0.27117 0.27071 0.0
H4538 H 0.3778 0.27211 0.25831 0.0
C4539 C 0.46396 0.26625 0.21319 0.0
C4540 C 0.41775 0.27191 0.21013 0.0
H4541 H 0.39549 0.29978 0.23563 0.0
C4542 C 0.40415 0.25487 0.20507 0.0
C4543 C 0.41466 0.28839 0.221 0.0
C4544 C 0.42909 0.30689 0.2266 0.0
C4545 C 0.38738 0.25383 0.21109 0.0
C4546 C 0.38442 0.27024 0.22233 0.0
C4547 C 0.39796 0.28732 0.22705 0.0
C4548 C 0.36741 0.26985 0.22972 0.0
C4549 C 0.37313 0.23512 0.20594 0.0
C4550 C 0.35241 0.26846 0.21767 0.0
C4551 C 0.33629 0.2681 0.22471 0.0
C4552 C 0.33514 0.26938 0.24386 0.0
C4553 C 0.35003 0.27047 0.25592 0.0
C4554 C 0.36624 0.27099 0.24889 0.0
H4555 H 0.37846 0.22295 0.19985 0.0
H4556 H 0.36653 0.23162 0.21836 0.0
H4557 H 0.3629 0.23657 0.19553 0.0
H4558 H 0.35322 0.26775 0.20287 0.0
H4559 H 0.32471 0.26692 0.21526 0.0
H4560 H 0.65718 0.51216 0.34199 0.0
H4561 H 0.64478 0.51418 0.37214 0.0
H4562 H 0.60869 0.54404 0.35253 0.0
H4563 H 0.62141 0.54258 0.32256 0.0
H4564 H 0.64093 0.55246 0.3982 0.0
H4565 H 0.57763 0.49637 0.37548 0.0
H4566 H 0.59726 0.49604 0.36383 0.0
H4567 H 0.58513 0.51322 0.36054 0.0
C4568 C 0.64656 0.51913 0.34394 0.0
C4569 C 0.64048 0.52717 0.32937 0.0
C4570 C 0.63941 0.52032 0.36142 0.0
C4571 C 0.62553 0.52921 0.3651 0.0
C4572 C 0.61925 0.53699 0.35046 0.0
H4573 H 0.5587 0.54001 0.45979 0.0
H4574 H 0.57047 0.53665 0.42943 0.0
C4575 C 0.62664 0.53615 0.33312 0.0
C4576 C 0.61802 0.53081 0.38415 0.0
H4577 H 0.58163 0.51327 0.40645 0.0
C4578 C 0.62797 0.54379 0.39992 0.0
C4579 C 0.60098 0.51985 0.38692 0.0
C4580 C 0.58953 0.50547 0.37091 0.0
C4581 C 0.62147 0.54635 0.41776 0.0
C4582 C 0.60451 0.53507 0.42075 0.0
C4583 C 0.59457 0.52206 0.40485 0.0
C4584 C 0.59692 0.53666 0.43992 0.0
C4585 C 0.63278 0.56194 0.43301 0.0
C4586 C 0.60721 0.53736 0.45673 0.0
C4587 C 0.60045 0.53954 0.47433 0.0
C4588 C 0.58282 0.54059 0.47619 0.0
C4589 C 0.57226 0.53919 0.45937 0.0
C4590 C 0.57913 0.53728 0.44173 0.0
H4591 H 0.64164 0.57334 0.42718 0.0
H4592 H 0.62458 0.56877 0.44242 0.0
H4593 H 0.64133 0.55563 0.44129 0.0
H4594 H 0.62064 0.53609 0.45636 0.0
H4595 H 0.60918 0.54028 0.48661 0.0
H4596 H 0.28289 0.89755 0.05162 0.0
H4597 H 0.28899 0.88271 0.07795 0.0
H4598 H 0.34058 0.92316 0.09099 0.0
H4599 H 0.33402 0.93879 0.06581 0.0
H4600 H 0.31373 0.86502 0.07838 0.0
H4601 H 0.32802 0.92209 0.14205 0.0
H4602 H 0.31795 0.92513 0.12038 0.0
H4603 H 0.34157 0.92868 0.1242 0.0
C4604 C 0.29518 0.90368 0.06066 0.0
C4605 C 0.30788 0.91937 0.05697 0.0
C4606 C 0.29871 0.89521 0.07557 0.0
C4607 C 0.31516 0.90203 0.08654 0.0
C4608 C 0.32758 0.91811 0.08317 0.0
H4609 H 0.36141 0.83694 0.15691 0.0
H4610 H 0.35943 0.85977 0.1363 0.0
C4611 C 0.32383 0.92696 0.0687 0.0
C4612 C 0.32021 0.89076 0.0997 0.0
H4613 H 0.33622 0.89317 0.14459 0.0
C4614 C 0.31858 0.8712 0.09286 0.0
C4615 C 0.32688 0.899 0.11849 0.0
C4616 C 0.32856 0.91984 0.12674 0.0
C4617 C 0.32294 0.85947 0.10446 0.0
C4618 C 0.32929 0.86761 0.12321 0.0
C4619 C 0.33153 0.88723 0.13003 0.0
C4620 C 0.33111 0.85523 0.13638 0.0
C4621 C 0.32013 0.83828 0.09685 0.0
C4622 C 0.3158 0.84537 0.14286 0.0
C4623 C 0.3168 0.83224 0.15413 0.0
C4624 C 0.33321 0.82902 0.15935 0.0
C4625 C 0.34862 0.83909 0.15293 0.0
C4626 C 0.34756 0.85221 0.14144 0.0
H4627 H 0.31772 0.83479 0.0814 0.0
H4628 H 0.3318 0.83344 0.10132 0.0
H4629 H 0.30847 0.83001 0.10251 0.0
H4630 H 0.30301 0.84754 0.13884 0.0
H4631 H 0.30465 0.82444 0.15859 0.0
H4632 H 0.99174 0.58692 0.85456 0.0
H4633 H 0.00631 0.58918 0.88563 0.0
H4634 H 0.95548 0.57689 0.90695 0.0
H4635 H 0.94077 0.575 0.87592 0.0
H4636 H 0.99884 0.6099 0.92754 0.0
H4637 H 0.98352 0.53006 0.90511 0.0
H4638 H 0.98549 0.54554 0.88824 0.0
H4639 H 0.96669 0.54232 0.90124 0.0
C4640 C 0.98375 0.58544 0.86605 0.0
C4641 C 0.96523 0.58082 0.86303 0.0
C4642 C 0.99205 0.58678 0.88369 0.0
C4643 C 0.98186 0.58321 0.89832 0.0
C4644 C 0.96343 0.57991 0.8957 0.0
H4645 H 0.00972 0.54405 0.99571 0.0
H4646 H 0.99495 0.55243 0.96978 0.0
C4647 C 0.95511 0.57889 0.87808 0.0
C4648 C 0.99033 0.57978 0.91519 0.0
H4649 H 1.00096 0.54389 0.93351 0.0
C4650 C 0.99926 0.59552 0.92904 0.0
C4651 C 0.99072 0.56094 0.91677 0.0
C4652 C 0.98115 0.54366 0.90209 0.0
C4653 C 0.00873 0.59283 0.94471 0.0
C4654 C 0.00953 0.57403 0.94601 0.0
C4655 C 1.00042 0.5583 0.93221 0.0
C4656 C 0.01888 0.57004 0.96211 0.0
C4657 C 0.01752 0.60996 0.95985 0.0
C4658 C 0.03729 0.57721 0.96624 0.0
C4659 C 0.04591 0.57262 0.98134 0.0
C4660 C 0.03616 0.56057 0.99212 0.0
C4661 C 0.01772 0.55335 0.98771 0.0
C4662 C 0.00918 0.55811 0.97289 0.0
H4663 H 0.0124 0.62262 0.95862 0.0
H4664 H 0.01545 0.60645 0.97383 0.0
H4665 H 0.03198 0.61398 0.95882 0.0
H4666 H 0.04494 0.58618 0.95774 0.0
H4667 H 0.06009 0.57847 0.98452 0.0
H4668 H 0.30338 0.20042 0.56966 0.0
H4669 H 0.30312 0.21477 0.60203 0.0
H4670 H 0.3213 0.2714 0.5894 0.0
H4671 H 0.32073 0.25689 0.55635 0.0
H4672 H 0.32911 0.23561 0.62681 0.0
H4673 H 0.28144 0.27945 0.61852 0.0
H4674 H 0.28491 0.26198 0.59947 0.0
H4675 H 0.30083 0.28494 0.60657 0.0
C4676 C 0.30732 0.21596 0.57368 0.0
C4677 C 0.31211 0.22751 0.56037 0.0
C4678 C 0.30714 0.22418 0.59228 0.0
C4679 C 0.31197 0.24422 0.5983 0.0
C4680 C 0.31704 0.25591 0.58511 0.0
H4681 H 0.31318 0.30324 0.71498 0.0
H4682 H 0.3148 0.29756 0.68107 0.0
C4683 C 0.31687 0.24762 0.56624 0.0
C4684 C 0.31199 0.25233 0.61849 0.0
H4685 H 0.29273 0.27989 0.64915 0.0
C4686 C 0.3212 0.24537 0.63163 0.0
C4687 C 0.30191 0.26533 0.62495 0.0
C4688 C 0.29159 0.27329 0.61168 0.0
C4689 C 0.32018 0.25044 0.65082 0.0
C4690 C 0.30933 0.2626 0.65724 0.0
C4691 C 0.30084 0.27039 0.64424 0.0
C4692 C 0.30611 0.26652 0.67724 0.0
C4693 C 0.33077 0.2426 0.66399 0.0
C4694 C 0.29975 0.25111 0.68621 0.0
C4695 C 0.29912 0.25431 0.70544 0.0
C4696 C 0.30408 0.27305 0.71613 0.0
C4697 C 0.30901 0.28866 0.70703 0.0
C4698 C 0.31005 0.2854 0.68769 0.0
H4699 H 0.34253 0.2393 0.65783 0.0
H4700 H 0.33533 0.25287 0.67744 0.0
H4701 H 0.32238 0.22897 0.6668 0.0
H4702 H 0.296 0.23646 0.67843 0.0
H4703 H 0.29532 0.24203 0.71214 0.0
H4704 H 0.62636 0.52379 0.22963 0.0
H4705 H 0.61252 0.52785 0.2001 0.0
H4706 H 0.65434 0.51113 0.17163 0.0
H4707 H 0.66765 0.50625 0.20077 0.0
H4708 H 0.6185 0.5495 0.17623 0.0
H4709 H 0.61707 0.47907 0.13412 0.0
H4710 H 0.62301 0.48445 0.15893 0.0
H4711 H 0.63935 0.49157 0.14338 0.0
C4712 C 0.63249 0.52055 0.21705 0.0
C4713 C 0.64818 0.51422 0.21808 0.0
C4714 C 0.62453 0.52306 0.19991 0.0
C4715 C 0.63179 0.51944 0.1828 0.0
C4716 C 0.64762 0.5134 0.18394 0.0
H4717 H 0.61585 0.53526 0.06684 0.0
H4718 H 0.62562 0.531 0.09763 0.0
C4719 C 0.65546 0.51069 0.20098 0.0
C4720 C 0.62328 0.52245 0.16416 0.0
H4721 H 0.61312 0.503 0.11709 0.0
C4722 C 0.61722 0.5391 0.16343 0.0
C4723 C 0.62109 0.50915 0.14687 0.0
C4724 C 0.62529 0.48999 0.14587 0.0
C4725 C 0.61 0.54301 0.1465 0.0
C4726 C 0.60846 0.53002 0.1292 0.0
C4727 C 0.61423 0.51328 0.12996 0.0
C4728 C 0.60191 0.53375 0.11013 0.0
C4729 C 0.6046 0.56149 0.14721 0.0
C4730 C 0.58503 0.53696 0.10596 0.0
C4731 C 0.57914 0.53924 0.08778 0.0
C4732 C 0.58998 0.53865 0.07302 0.0
C4733 C 0.6069 0.53588 0.07748 0.0
C4734 C 0.61261 0.53335 0.09537 0.0
H4735 H 0.61015 0.57194 0.16038 0.0
H4736 H 0.60897 0.56829 0.13528 0.0
H4737 H 0.58995 0.55832 0.14631 0.0
H4738 H 0.57608 0.53713 0.11663 0.0
H4739 H 0.56596 0.54105 0.08521 0.0
H4740 H 0.29895 0.90945 0.94097 0.0
H4741 H 0.30504 0.89548 0.90984 0.0
H4742 H 0.34192 0.86948 0.93483 0.0
H4743 H 0.33562 0.88277 0.9657 0.0
H4744 H 0.33902 0.89534 0.89209 0.0
H4745 H 0.30002 0.82489 0.90494 0.0
H4746 H 0.29921 0.84754 0.91874 0.0
H4747 H 0.31789 0.83801 0.9225 0.0
C4748 C 0.3083 0.90072 0.93974 0.0
C4749 C 0.31634 0.89658 0.95561 0.0
C4750 C 0.31195 0.89303 0.92207 0.0
C4751 C 0.32381 0.88144 0.92028 0.0
C4752 C 0.33262 0.8783 0.93611 0.0
H4753 H 0.34677 0.8222 0.81327 0.0
H4754 H 0.35185 0.84124 0.84517 0.0
C4755 C 0.32879 0.88566 0.95366 0.0
C4756 C 0.32513 0.87035 0.90206 0.0
H4757 H 0.31276 0.82471 0.87682 0.0
C4758 C 0.3334 0.87989 0.88866 0.0
C4759 C 0.3177 0.85026 0.8979 0.0
C4760 C 0.30808 0.83953 0.91169 0.0
C4761 C 0.33405 0.8697 0.87079 0.0
C4762 C 0.32641 0.84963 0.86665 0.0
C4763 C 0.31869 0.84011 0.88027 0.0
C4764 C 0.32399 0.83846 0.84767 0.0
C4765 C 0.34217 0.88044 0.85629 0.0
C4766 C 0.30669 0.83041 0.839 0.0
C4767 C 0.3038 0.81936 0.8212 0.0
C4768 C 0.31816 0.81619 0.81186 0.0
C4769 C 0.33553 0.82428 0.82048 0.0
C4770 C 0.33844 0.83526 0.83848 0.0
H4771 H 0.34537 0.89628 0.86111 0.0
H4772 H 0.35458 0.87649 0.85303 0.0
H4773 H 0.33304 0.87639 0.84321 0.0
H4774 H 0.29543 0.83293 0.84595 0.0
H4775 H 0.29041 0.81411 0.81447 0.0
H4776 H 0.91676 0.54254 0.74674 0.0
H4777 H 0.92858 0.53669 0.71669 0.0
H4778 H 0.97611 0.58158 0.73814 0.0
H4779 H 0.96462 0.58732 0.7682 0.0
H4780 H 0.94859 0.56479 0.69075 0.0
H4781 H 0.98654 0.52511 0.72843 0.0
H4782 H 0.96631 0.5301 0.73586 0.0
H4783 H 0.98672 0.5487 0.74065 0.0
C4784 C 0.92947 0.55157 0.74482 0.0
C4785 C 0.93993 0.5652 0.75976 0.0
C4786 C 0.93614 0.54823 0.72769 0.0
C4787 C 0.95316 0.55867 0.72545 0.0
C4788 C 0.96291 0.57345 0.73979 0.0
H4789 H 0.04115 0.56235 0.66804 0.0
H4790 H 0.01733 0.56617 0.68727 0.0
C4791 C 0.95639 0.57664 0.75691 0.0
C4792 C 0.96214 0.55223 0.70962 0.0
H4793 H 0.99647 0.53269 0.70005 0.0
C4794 C 0.95884 0.55744 0.69251 0.0
C4795 C 0.97528 0.54247 0.71217 0.0
C4796 C 0.97888 0.5361 0.73022 0.0
C4797 C 0.9694 0.55425 0.67812 0.0
C4798 C 0.98334 0.5457 0.68123 0.0
C4799 C 0.9858 0.5394 0.69791 0.0
C4800 C 0.99682 0.54479 0.66836 0.0
C4801 C 0.9663 0.56095 0.66019 0.0
C4802 C 0.99296 0.53156 0.65146 0.0
C4803 C 0.00654 0.52937 0.64052 0.0
C4804 C 0.02406 0.54018 0.6466 0.0
C4805 C 0.02779 0.55359 0.66338 0.0
C4806 C 0.01422 0.55592 0.67417 0.0
H4807 H 0.95551 0.56836 0.66047 0.0
H4808 H 0.97864 0.57091 0.65744 0.0
H4809 H 0.96273 0.54841 0.64845 0.0
H4810 H 0.97962 0.52266 0.647 0.0
H4811 H 1.00345 0.51905 0.62748 0.0
H4812 H 0.28267 0.23187 0.45125 0.0
H4813 H 0.28462 0.23892 0.42004 0.0
H4814 H 0.33796 0.23258 0.42155 0.0
H4815 H 0.33561 0.22431 0.45252 0.0
H4816 H 0.30379 0.26621 0.40677 0.0
H4817 H 0.31907 0.19904 0.37271 0.0
H4818 H 0.313 0.20226 0.39615 0.0
H4819 H 0.33525 0.21285 0.39156 0.0
C4820 C 0.29484 0.23196 0.44496 0.0
C4821 C 0.30896 0.22744 0.45436 0.0
C4822 C 0.29594 0.236 0.42705 0.0
C4823 C 0.3113 0.23593 0.4181 0.0
C4824 C 0.32571 0.23209 0.42776 0.0
H4825 H 0.33192 0.28116 0.31647 0.0
H4826 H 0.33422 0.27426 0.34773 0.0
C4827 C 0.32444 0.22757 0.44557 0.0
C4828 C 0.31202 0.24016 0.39886 0.0
H4829 H 0.31905 0.22259 0.35429 0.0
C4830 C 0.30714 0.25661 0.39536 0.0
C4831 C 0.31635 0.22769 0.38379 0.0
C4832 C 0.32105 0.20939 0.38617 0.0
C4833 C 0.30629 0.26078 0.37736 0.0
C4834 C 0.31064 0.24835 0.36244 0.0
C4835 C 0.31574 0.23207 0.36583 0.0
C4836 C 0.30963 0.25196 0.34316 0.0
C4837 C 0.30038 0.27823 0.37426 0.0
C4838 C 0.2953 0.2414 0.33002 0.0
C4839 C 0.29371 0.24579 0.31223 0.0
C4840 C 0.3064 0.26092 0.30726 0.0
C4841 C 0.32131 0.27047 0.32012 0.0
C4842 C 0.32282 0.26625 0.33794 0.0
H4843 H 0.29574 0.28538 0.38693 0.0
H4844 H 0.31157 0.28876 0.37015 0.0
H4845 H 0.28949 0.27408 0.3627 0.0
H4846 H 0.2851 0.2301 0.33371 0.0
H4847 H 0.28225 0.23767 0.30261 0.0
H4848 H 0.34837 0.6449 0.50773 0.0
H4849 H 0.37785 0.63901 0.50797 0.0
H4850 H 0.35837 0.58759 0.52983 0.0
H4851 H 0.32896 0.59332 0.52975 0.0
H4852 H 0.39457 0.61737 0.54752 0.0
H4853 H 0.38483 0.58914 0.47072 0.0
H4854 H 0.37875 0.61085 0.48001 0.0
H4855 H 0.36615 0.58819 0.4841 0.0
C4856 C 0.35037 0.63229 0.51249 0.0
C4857 C 0.33642 0.61945 0.51858 0.0
C4858 C 0.36719 0.62911 0.5128 0.0
C4859 C 0.3701 0.61302 0.51908 0.0
C4860 C 0.35625 0.60022 0.52519 0.0
H4861 H 0.42955 0.53481 0.50778 0.0
H4862 H 0.40964 0.55526 0.51596 0.0
C4863 C 0.3395 0.60342 0.52498 0.0
C4864 C 0.38715 0.60842 0.51792 0.0
H4865 H 0.40913 0.58448 0.48771 0.0
C4866 C 0.39807 0.61056 0.53444 0.0
C4867 C 0.3914 0.59956 0.50078 0.0
C4868 C 0.37973 0.5967 0.48282 0.0
C4869 C 0.41288 0.60307 0.5343 0.0
C4870 C 0.41647 0.59323 0.51729 0.0
C4871 C 0.40614 0.59211 0.50068 0.0
C4872 C 0.42943 0.58188 0.51638 0.0
C4873 C 0.42405 0.60472 0.55227 0.0
C4874 C 0.44703 0.59033 0.51421 0.0
C4875 C 0.45834 0.57871 0.50933 0.0
C4876 C 0.45203 0.55854 0.50646 0.0
C4877 C 0.43457 0.55026 0.50951 0.0
C4878 C 0.42333 0.56189 0.51444 0.0
H4879 H 0.42007 0.61381 0.56418 0.0
H4880 H 0.42283 0.59017 0.55542 0.0
H4881 H 0.43821 0.61099 0.5508 0.0
H4882 H 0.45176 0.60576 0.51542 0.0
H4883 H 0.47178 0.58544 0.50707 0.0
H4884 H 0.86112 0.95974 0.53721 0.0
H4885 H 0.89139 0.97936 0.53677 0.0
H4886 H 0.91195 0.93175 0.54579 0.0
H4887 H 0.88185 0.91193 0.54535 0.0
H4888 H 0.91986 0.99164 0.56168 0.0
H4889 H 0.93636 0.94408 0.50189 0.0
H4890 H 0.91412 0.94077 0.50832 0.0
H4891 H 0.92998 0.93176 0.52048 0.0
C4892 C 0.87212 0.95347 0.53904 0.0
C4893 C 0.86905 0.93419 0.54108 0.0
C4894 C 0.88943 0.96469 0.53878 0.0
C4895 C 0.90405 0.95695 0.54074 0.0
C4896 C 0.90097 0.93792 0.54353 0.0
H4897 H 0.01837 0.99655 0.54088 0.0
H4898 H 0.98791 0.97913 0.54351 0.0
C4899 C 0.88371 0.92662 0.54343 0.0
C4900 C 0.9225 0.96876 0.54016 0.0
H4901 H 0.96035 0.96872 0.51925 0.0
C4902 C 0.92868 0.98668 0.55232 0.0
C4903 C 0.93412 0.96236 0.52796 0.0
C4904 C 0.92826 0.94379 0.51381 0.0
C4905 C 0.94618 0.99805 0.55303 0.0
C4906 C 0.95786 0.99156 0.54094 0.0
C4907 C 0.95158 0.97373 0.52865 0.0
C4908 C 0.97661 1.00285 0.54074 0.0
C4909 C 0.95205 0.01661 0.56718 0.0
C4910 C 0.98066 0.0221 0.5384 0.0
C4911 C 0.99819 0.03223 0.53741 0.0
C4912 C 0.01203 0.02321 0.53822 0.0
C4913 C 0.008 1.00394 0.54038 0.0
C4914 C 0.99055 0.99395 0.5418 0.0
H4915 H 0.94381 0.01641 0.57898 0.0
H4916 H 0.96613 0.01948 0.57282 0.0
H4917 H 0.95055 0.02866 0.56044 0.0
H4918 H 0.97021 0.02918 0.53679 0.0
H4919 H 1.00077 0.04684 0.53514 0.0
H4920 H 0.88139 0.1093 0.23185 0.0
H4921 H 0.86752 0.13614 0.23351 0.0
H4922 H 0.89733 0.16257 0.28681 0.0
H4923 H 0.91147 0.13597 0.28497 0.0
H4924 H 0.84607 0.15099 0.25367 0.0
H4925 H 0.90794 0.20948 0.2657 0.0
H4926 H 0.90806 0.18456 0.25981 0.0
H4927 H 0.90619 0.19525 0.28342 0.0
C4928 C 0.88516 0.12083 0.24395 0.0
C4929 C 0.89791 0.12006 0.25817 0.0
C4930 C 0.87706 0.13642 0.24494 0.0
C4931 C 0.88132 0.15227 0.26012 0.0
C4932 C 0.89385 0.1513 0.27451 0.0
H4933 H 0.82726 0.2496 0.28635 0.0
H4934 H 0.84002 0.22213 0.28871 0.0
C4935 C 0.90195 0.13572 0.27353 0.0
C4936 C 0.87257 0.16933 0.26087 0.0
H4937 H 0.88126 0.21904 0.26825 0.0
C4938 C 0.85396 0.1658 0.25691 0.0
C4939 C 0.88229 0.18916 0.26502 0.0
C4940 C 0.90222 0.1949 0.26855 0.0
C4941 C 0.8452 0.18088 0.25713 0.0
C4942 C 0.85492 0.20056 0.26131 0.0
C4943 C 0.87346 0.20419 0.26525 0.0
C4944 C 0.84623 0.21725 0.26018 0.0
C4945 C 0.82538 0.17572 0.25279 0.0
C4946 C 0.84495 0.22408 0.24344 0.0
C4947 C 0.83755 0.23974 0.24207 0.0
C4948 C 0.83087 0.24951 0.2573 0.0
C4949 C 0.8319 0.24258 0.27412 0.0
C4950 C 0.83939 0.22677 0.2755 0.0
H4951 H 0.81941 0.15994 0.24998 0.0
H4952 H 0.81949 0.1825 0.2647 0.0
H4953 H 0.8219 0.18152 0.24045 0.0
H4954 H 0.8499 0.21736 0.23127 0.0
H4955 H 0.83723 0.24439 0.22885 0.0
H4956 H 0.74996 0.12313 0.04297 0.0
H4957 H 0.7191 0.11277 0.04921 0.0
H4958 H 0.70176 0.11555 0.99294 0.0
H4959 H 0.73285 0.12599 0.98671 0.0
H4960 H 0.69411 0.13346 0.04708 0.0
H4961 H 0.67413 0.06194 1.00004 0.0
H4962 H 0.69698 0.07526 0.00646 0.0
H4963 H 0.68382 0.08113 0.98849 0.0
C4964 C 0.73947 0.12105 0.03187 0.0
C4965 C 0.74338 0.12481 0.01429 0.0
C4966 C 0.72199 0.11534 0.03547 0.0
C4967 C 0.70835 0.11329 0.02147 0.0
C4968 C 0.71226 0.11684 1.00376 0.0
H4969 H 0.5993 0.11074 0.03214 0.0
H4970 H 0.63153 0.12162 0.0326 0.0
C4971 C 0.72984 0.12271 1.00019 0.0
C4972 C 0.69 0.10807 0.02567 0.0
H4973 H 0.65098 0.07425 0.01238 0.0
C4974 C 0.68462 0.12044 0.03967 0.0
C4975 C 0.67798 0.0909 0.01619 0.0
C4976 C 0.68353 0.07643 1.00209 0.0
C4977 C 0.6672 0.11622 0.0442 0.0
C4978 C 0.65492 0.09956 0.03398 0.0
C4979 C 0.66045 0.08709 0.02016 0.0
C4980 C 0.63614 0.09459 0.03699 0.0
C4981 C 0.66224 0.12943 0.05999 0.0
C4982 C 0.62818 0.07586 0.03913 0.0
C4983 C 0.60994 0.06943 0.03776 0.0
C4984 C 0.59935 0.08192 0.03548 0.0
C4985 C 0.6073 0.10102 0.03437 0.0
C4986 C 0.62566 0.10729 0.03488 0.0
H4987 H 0.67397 0.13739 0.07007 0.0
H4988 H 0.65685 0.1402 0.05429 0.0
H4989 H 0.65202 0.12136 0.06758 0.0
H4990 H 0.63604 0.06582 0.04068 0.0
H4991 H 0.60418 0.05446 0.03788 0.0
H4992 H 0.24792 0.50666 0.2361 0.0
H4993 H 0.25441 0.47578 0.23601 0.0
H4994 H 0.20696 0.4566 0.26196 0.0
H4995 H 0.20034 0.48762 0.26228 0.0
H4996 H 0.23958 0.45582 0.28067 0.0
H4997 H 0.23162 0.42063 0.20603 0.0
H4998 H 0.24301 0.44578 0.21105 0.0
H4999 H 0.22012 0.43836 0.21492 0.0
C5000 C 0.23873 0.49579 0.24156 0.0
C5001 C 0.22368 0.49944 0.24927 0.0
C5002 C 0.24234 0.47813 0.24126 0.0
C5003 C 0.23085 0.46394 0.24849 0.0
C5004 C 0.2157 0.46741 0.256 0.0
H5005 H 0.26034 0.3652 0.27751 0.0
H5006 H 0.24174 0.38213 0.26247 0.0
C5007 C 0.21208 0.48512 0.25635 0.0
C5008 C 0.2363 0.44678 0.25082 0.0
H5009 H 0.24976 0.40949 0.22704 0.0
C5010 C 0.24133 0.4453 0.26901 0.0
C5011 C 0.23871 0.43348 0.23545 0.0
C5012 C 0.23295 0.43449 0.21574 0.0
C5013 C 0.2497 0.43131 0.27226 0.0
C5014 C 0.2529 0.41854 0.25687 0.0
C5015 C 0.24713 0.41939 0.23868 0.0
C5016 C 0.26381 0.40565 0.25982 0.0
C5017 C 0.25609 0.43098 0.29204 0.0
C5018 C 0.28222 0.41314 0.26243 0.0
C5019 C 0.29269 0.40378 0.27126 0.0
C5020 C 0.28473 0.38682 0.27721 0.0
C5021 C 0.26653 0.37831 0.27289 0.0
C5022 C 0.25601 0.38781 0.26424 0.0
H5023 H 0.25115 0.44084 0.30244 0.0
H5024 H 0.25173 0.4162 0.29484 0.0
H5025 H 0.27079 0.4354 0.29401 0.0
H5026 H 0.28828 0.42706 0.25922 0.0
H5027 H 0.30677 0.4104 0.27456 0.0
H5028 H 0.25678 0.41439 0.01614 0.0
H5029 H 0.23041 0.42683 0.01458 0.0
H5030 H 0.25312 0.47054 0.06317 0.0
H5031 H 0.27937 0.45824 0.06494 0.0
H5032 H 0.20749 0.43747 0.04996 0.0
H5033 H 0.24158 0.49513 0.01399 0.0
H5034 H 0.24724 0.47241 0.01194 0.0
H5035 H 0.25393 0.48996 0.03312 0.0
C5036 C 0.25615 0.42663 0.02651 0.0
C5037 C 0.27028 0.43542 0.04057 0.0
C5038 C 0.24102 0.43361 0.02568 0.0
C5039 C 0.23981 0.44953 0.03882 0.0
C5040 C 0.25377 0.45817 0.05297 0.0
H5041 H 0.17986 0.53303 0.04872 0.0
H5042 H 0.20018 0.51314 0.05265 0.0
C5043 C 0.26881 0.45116 0.05388 0.0
C5044 C 0.22465 0.45815 0.0371 0.0
H5045 H 0.2137 0.49639 0.02338 0.0
C5046 C 0.20871 0.45027 0.04403 0.0
C5047 C 0.22635 0.47482 0.0294 0.0
C5048 C 0.24313 0.48364 0.02157 0.0
C5049 C 0.19458 0.45905 0.04394 0.0
C5050 C 0.19643 0.47598 0.03649 0.0
C5051 C 0.21227 0.4835 0.02919 0.0
C5052 C 0.18262 0.48683 0.03668 0.0
C5053 C 0.17808 0.45056 0.05237 0.0
C5054 C 0.16565 0.47857 0.02695 0.0
C5055 C 0.15386 0.48997 0.02492 0.0
C5056 C 0.15902 0.50982 0.03234 0.0
C5057 C 0.1756 0.51778 0.04283 0.0
C5058 C 0.18722 0.50642 0.04503 0.0
H5059 H 0.18037 0.44048 0.0614 0.0
H5060 H 0.17323 0.46204 0.06073 0.0
H5061 H 0.16752 0.44246 0.04104 0.0
H5062 H 0.16185 0.46358 0.02011 0.0
H5063 H 0.1412 0.48354 0.01662 0.0
H5064 H 0.90581 0.01645 0.2964 0.0
H5065 H 0.88938 0.98294 0.29582 0.0
H5066 H 0.88116 0.97278 0.23598 0.0
H5067 H 0.89702 1.00657 0.23659 0.0
H5068 H 0.85069 0.96033 0.27461 0.0
H5069 H 0.90615 0.92965 0.25308 0.0
H5070 H 0.90991 0.9543 0.26506 0.0
H5071 H 0.90081 0.94741 0.24112 0.0
C5072 C 0.90021 1.00723 0.2831 0.0
C5073 C 0.90253 0.01464 0.26658 0.0
C5074 C 0.89084 0.98788 0.28277 0.0
C5075 C 0.88389 0.97487 0.26586 0.0
C5076 C 0.88621 0.98222 0.2493 0.0
H5077 H 0.84048 0.847 0.2405 0.0
H5078 H 0.85499 0.88083 0.24008 0.0
C5079 C 0.89521 1.00175 0.24967 0.0
C5080 C 0.87441 0.95379 0.26558 0.0
H5081 H 0.87967 0.9078 0.25686 0.0
C5082 C 0.85707 0.94888 0.27073 0.0
C5083 C 0.88236 0.93846 0.26034 0.0
C5084 C 0.90087 0.94253 0.25463 0.0
C5085 C 0.84755 0.92949 0.2705 0.0
C5086 C 0.85567 0.91404 0.26581 0.0
C5087 C 0.87308 0.9191 0.2606 0.0
C5088 C 0.84643 0.89281 0.26603 0.0
C5089 C 0.8285 0.92592 0.27455 0.0
C5090 C 0.83668 0.8873 0.28075 0.0
C5091 C 0.82786 0.86783 0.28064 0.0
C5092 C 0.82886 0.85283 0.26615 0.0
C5093 C 0.83912 0.85807 0.25179 0.0
C5094 C 0.84759 0.87762 0.25165 0.0
H5095 H 0.82257 0.93738 0.27108 0.0
H5096 H 0.8203 0.91188 0.26654 0.0
H5097 H 0.82787 0.9261 0.28965 0.0
H5098 H 0.83601 0.89803 0.29264 0.0
H5099 H 0.82052 0.86445 0.29221 0.0
H5100 H 0.74716 0.10332 0.78215 0.0
H5101 H 0.76438 0.1364 0.78368 0.0
H5102 H 0.71817 0.15022 0.76081 0.0
H5103 H 0.70072 0.11723 0.7593 0.0
H5104 H 0.75683 0.15105 0.74146 0.0
H5105 H 0.75394 0.19344 0.8118 0.0
H5106 H 0.75403 0.16843 0.80906 0.0
H5107 H 0.73507 0.17472 0.79977 0.0
C5108 C 0.74058 0.11356 0.77795 0.0
C5109 C 0.7228 0.10785 0.77032 0.0
C5110 C 0.75037 0.1323 0.77885 0.0
C5111 C 0.74236 0.14524 0.77218 0.0
C5112 C 0.72431 0.1401 0.76599 0.0
H5113 H 0.77036 0.25594 0.75746 0.0
H5114 H 0.75968 0.221 0.74917 0.0
C5115 C 0.71445 0.12139 0.76521 0.0
C5116 C 0.75338 0.16331 0.76951 0.0
H5117 H 0.77133 0.20943 0.79138 0.0
C5118 C 0.76014 0.1639 0.7523 0.0
C5119 C 0.75739 0.1796 0.78384 0.0
C5120 C 0.74976 0.17921 0.80222 0.0
C5121 C 0.77091 0.18096 0.74898 0.0
C5122 C 0.77495 0.19725 0.76335 0.0
C5123 C 0.76835 0.19652 0.78062 0.0
C5124 C 0.78396 0.2161 0.76043 0.0
C5125 C 0.77773 0.18169 0.7303 0.0
C5126 C 0.80127 0.22448 0.76893 0.0
C5127 C 0.80738 0.24437 0.77352 0.0
C5128 C 0.79626 0.25565 0.76923 0.0
C5129 C 0.77929 0.24724 0.75998 0.0
C5130 C 0.77329 0.22744 0.75515 0.0
H5131 H 0.77382 0.16744 0.72076 0.0
H5132 H 0.77251 0.19206 0.72371 0.0
H5133 H 0.7924 0.18687 0.73226 0.0
H5134 H 0.80932 0.21571 0.77356 0.0
H5135 H 0.82037 0.25092 0.78112 0.0
loop_
_geom_bond_atom_site_label_1
_geom_bond_atom_site_label_2
_geom_bond_distance
_geom_bond_site_symmetry_2
_ccdc_geom_bond_type
O0 Cd1 2.223 . S
O0 C8 1.315 . S
Cd1 O0 2.223 . S
Cd1 O4 2.297 . S
Cd1 O5 2.439 . S
Cd1 O11 2.240 . S
Cd2 O3 2.240 . S
Cd2 O10 2.223 . S
Cd2 O12 2.297 . S
Cd2 O13 2.439 . S
O3 Cd2 2.240 . S
O3 C8 1.279 . S
O4 Cd1 2.297 . S
O4 C6 1.247 . S
O5 Cd1 2.439 . S
O5 C6 1.208 . S
C6 O4 1.247 . S
C6 O5 1.208 . S
C7 O12 1.247 . S
C7 O13 1.208 . S
C8 O0 1.315 . S
C8 O3 1.279 . S
C9 O10 1.315 . S
C9 O11 1.279 . S
O10 Cd2 2.223 . S
O10 C9 1.315 . S
O11 Cd1 2.240 . S
O11 C9 1.279 . S
O12 Cd2 2.297 . S
O12 C7 1.247 . S
O13 Cd2 2.439 . S
O13 C7 1.208 . S
O14 Cd15 2.241 . S
O14 C22 1.320 . S
Cd15 O14 2.241 . S
Cd15 O18 2.297 . S
Cd15 O19 2.439 . S
Cd15 O25 2.240 1_655 S
Cd16 O17 2.240 1_455 S
Cd16 O24 2.223 . S
Cd16 O26 2.297 . S
Cd16 O27 2.454 . S
O17 Cd16 2.240 1_655 S
O17 C22 1.279 . S
O18 Cd15 2.297 . S
O18 C20 1.247 . S
O19 Cd15 2.439 . S
O19 C20 1.208 . S
C20 O18 1.247 . S
C20 O19 1.208 . S
C21 O26 1.247 . S
C21 O27 1.226 . S
C22 O14 1.320 . S
C22 O17 1.279 . S
C23 O24 1.315 . S
C23 O25 1.279 . S
O24 Cd16 2.223 . S
O24 C23 1.315 . S
O25 Cd15 2.240 1_455 S
O25 C23 1.279 . S
O26 Cd16 2.297 . S
O26 C21 1.247 . S
O27 Cd16 2.454 . S
O27 C21 1.226 . S
O28 Cd29 2.223 . S
O28 C36 1.315 . S
Cd29 O28 2.223 . S
Cd29 O32 2.297 . S
Cd29 O33 2.439 . S
Cd29 O39 2.240 . S
Cd30 O31 2.240 . S
Cd30 O38 2.223 . S
Cd30 O40 2.297 . S
Cd30 O41 2.439 . S
O31 Cd30 2.240 . S
O31 C36 1.279 . S
O32 Cd29 2.297 . S
O32 C34 1.247 . S
O33 Cd29 2.439 . S
O33 C34 1.208 . S
C34 O32 1.247 . S
C34 O33 1.208 . S
C35 O40 1.247 . S
C35 O41 1.208 . S
C36 O28 1.315 . S
C36 O31 1.279 . S
C37 O38 1.315 . S
C37 O39 1.279 . S
O38 Cd30 2.223 . S
O38 C37 1.315 . S
O39 Cd29 2.240 . S
O39 C37 1.279 . S
O40 Cd30 2.297 . S
O40 C35 1.247 . S
O41 Cd30 2.439 . S
O41 C35 1.208 . S
O42 Cd43 2.223 . S
O42 C50 1.315 . S
Cd43 O42 2.223 . S
Cd43 O46 2.297 . S
Cd43 O47 2.439 . S
Cd43 O53 2.240 . S
Cd44 O45 2.240 . S
Cd44 O52 2.223 . S
Cd44 O54 2.297 . S
Cd44 O55 2.439 . S
O45 Cd44 2.240 . S
O45 C50 1.279 . S
O46 Cd43 2.297 . S
O46 C48 1.247 . S
O47 Cd43 2.439 . S
O47 C48 1.208 . S
C48 O46 1.247 . S
C48 O47 1.208 . S
C49 O54 1.247 . S
C49 O55 1.208 . S
C50 O42 1.315 . S
C50 O45 1.279 . S
C51 O52 1.315 . S
C51 O53 1.279 . S
O52 Cd44 2.223 . S
O52 C51 1.315 . S
O53 Cd43 2.240 . S
O53 C51 1.279 . S
O54 Cd44 2.297 . S
O54 C49 1.247 . S
O55 Cd44 2.439 . S
O55 C49 1.208 . S
O56 Cd57 2.223 . S
O56 C64 1.315 . S
Cd57 O56 2.223 . S
Cd57 O60 2.297 . S
Cd57 O61 2.439 . S
Cd57 O67 2.240 . S
Cd58 O59 2.240 . S
Cd58 O66 2.223 . S
Cd58 O68 2.297 . S
Cd58 O69 2.439 . S
O59 Cd58 2.240 . S
O59 C64 1.279 . S
O60 Cd57 2.297 . S
O60 C62 1.247 . S
O61 Cd57 2.439 . S
O61 C62 1.208 . S
C62 O60 1.247 . S
C62 O61 1.208 . S
C63 O68 1.247 . S
C63 O69 1.208 . S
C64 O56 1.315 . S
C64 O59 1.279 . S
C65 O66 1.315 . S
C65 O67 1.279 . S
O66 Cd58 2.223 . S
O66 C65 1.315 . S
O67 Cd57 2.240 . S
O67 C65 1.279 . S
O68 Cd58 2.297 . S
O68 C63 1.247 . S
O69 Cd58 2.439 . S
O69 C63 1.208 . S
O70 Cd71 2.223 . S
O70 C78 1.315 . S
Cd71 O70 2.223 . S
Cd71 O74 2.297 . S
Cd71 O75 2.439 . S
Cd71 O81 2.240 . S
Cd72 O73 2.240 . S
Cd72 O80 2.223 . S
Cd72 O82 2.297 . S
Cd72 O83 2.439 . S
O73 Cd72 2.240 . S
O73 C78 1.279 . S
O74 Cd71 2.297 . S
O74 C76 1.247 . S
O75 Cd71 2.439 . S
O75 C76 1.208 . S
C76 O74 1.247 . S
C76 O75 1.208 . S
C77 O82 1.247 . S
C77 O83 1.208 . S
C78 O70 1.315 . S
C78 O73 1.279 . S
C79 O80 1.315 . S
C79 O81 1.279 . S
O80 Cd72 2.223 . S
O80 C79 1.315 . S
O81 Cd71 2.240 . S
O81 C79 1.279 . S
O82 Cd72 2.297 . S
O82 C77 1.247 . S
O83 Cd72 2.439 . S
O83 C77 1.208 . S
O84 Cd85 2.223 . S
O84 C92 1.315 . S
Cd85 O84 2.223 . S
Cd85 O88 2.297 . S
Cd85 O89 2.439 . S
Cd85 O95 2.240 . S
Cd86 O87 2.240 . S
Cd86 O94 2.223 . S
Cd86 O96 2.297 . S
Cd86 O97 2.439 . S
O87 Cd86 2.240 . S
O87 C92 1.279 . S
O88 Cd85 2.297 . S
O88 C90 1.247 . S
O89 Cd85 2.439 . S
O89 C90 1.208 . S
C90 O88 1.247 . S
C90 O89 1.208 . S
C91 O96 1.247 . S
C91 O97 1.208 . S
C92 O84 1.315 . S
C92 O87 1.279 . S
C93 O94 1.315 . S
C93 O95 1.279 . S
O94 Cd86 2.223 . S
O94 C93 1.315 . S
O95 Cd85 2.240 . S
O95 C93 1.279 . S
O96 Cd86 2.297 . S
O96 C91 1.247 . S
O97 Cd86 2.439 . S
O97 C91 1.208 . S
O98 Cd99 2.223 . S
O98 C106 1.315 . S
Cd99 O98 2.223 . S
Cd99 O102 2.297 . S
Cd99 O103 2.439 . S
Cd99 O109 2.240 . S
Cd100 O101 2.240 . S
Cd100 O108 2.223 1_455 S
Cd100 O110 2.297 . S
Cd100 O111 2.439 . S
O101 Cd100 2.240 . S
O101 C106 1.279 . S
O102 Cd99 2.297 . S
O102 C104 1.247 . S
O103 Cd99 2.439 . S
O103 C104 1.208 . S
C104 O102 1.247 . S
C104 O103 1.208 . S
C105 O110 1.247 . S
C105 O111 1.208 . S
C106 O98 1.315 . S
C106 O101 1.279 . S
C107 O108 1.315 . S
C107 O109 1.279 1_655 S
O108 Cd100 2.223 1_655 S
O108 C107 1.315 . S
O109 Cd99 2.240 . S
O109 C107 1.279 1_455 S
O110 Cd100 2.297 . S
O110 C105 1.247 . S
O111 Cd100 2.439 . S
O111 C105 1.208 . S
O112 Cd113 2.223 . S
O112 C120 1.315 . S
Cd113 O112 2.223 . S
Cd113 O116 2.297 . S
Cd113 O117 2.439 . S
Cd113 O123 2.240 . S
Cd114 O115 2.240 . S
Cd114 O122 2.223 . S
Cd114 O124 2.297 . S
Cd114 O125 2.439 . S
O115 Cd114 2.240 . S
O115 C120 1.279 . S
O116 Cd113 2.297 . S
O116 C118 1.247 . S
O117 Cd113 2.439 . S
O117 C118 1.208 . S
C118 O116 1.247 . S
C118 O117 1.208 . S
C119 O124 1.247 . S
C119 O125 1.208 . S
C120 O112 1.315 . S
C120 O115 1.279 . S
C121 O122 1.315 . S
C121 O123 1.279 . S
O122 Cd114 2.223 . S
O122 C121 1.315 . S
O123 Cd113 2.240 . S
O123 C121 1.279 . S
O124 Cd114 2.297 . S
O124 C119 1.247 . S
O125 Cd114 2.439 . S
O125 C119 1.208 . S
O126 Cd127 2.223 . S
O126 C134 1.315 . S
Cd127 O126 2.223 . S
Cd127 O130 2.297 . S
Cd127 O131 2.439 . S
Cd127 O137 2.240 . S
Cd128 O129 2.240 . S
Cd128 O136 2.223 . S
Cd128 O138 2.297 . S
Cd128 O139 2.439 . S
O129 Cd128 2.240 . S
O129 C134 1.279 . S
O130 Cd127 2.297 . S
O130 C132 1.247 . S
O131 Cd127 2.439 . S
O131 C132 1.208 . S
C132 O130 1.247 . S
C132 O131 1.208 . S
C133 O138 1.247 . S
C133 O139 1.208 . S
C134 O126 1.315 . S
C134 O129 1.279 . S
C135 O136 1.315 . S
C135 O137 1.279 . S
O136 Cd128 2.223 . S
O136 C135 1.315 . S
O137 Cd127 2.240 . S
O137 C135 1.279 . S
O138 Cd128 2.297 . S
O138 C133 1.247 . S
O139 Cd128 2.439 . S
O139 C133 1.208 . S
O140 Cd141 2.223 1_545 S
O140 C148 1.315 1_545 S
Cd141 O140 2.223 1_565 S
Cd141 O144 2.297 . S
Cd141 O145 2.439 . S
Cd141 O151 2.240 1_565 S
Cd142 O143 2.240 1_545 S
Cd142 O150 2.223 . S
Cd142 O152 2.297 . S
Cd142 O153 2.439 1_545 S
O143 Cd142 2.240 1_565 S
O143 C148 1.279 . S
O144 Cd141 2.297 . S
O144 C146 1.247 . S
O145 Cd141 2.439 . S
O145 C146 1.208 . S
C146 O144 1.247 . S
C146 O145 1.208 . S
C147 O152 1.247 . S
C147 O153 1.208 1_545 S
C148 O140 1.315 1_565 S
C148 O143 1.279 . S
C149 O150 1.315 . S
C149 O151 1.279 . S
O150 Cd142 2.223 . S
O150 C149 1.315 . S
O151 Cd141 2.240 1_545 S
O151 C149 1.279 . S
O152 Cd142 2.297 . S
O152 C147 1.247 . S
O153 Cd142 2.439 1_565 S
O153 C147 1.208 1_565 S
O154 Cd155 2.223 . S
O154 C162 1.315 . S
Cd155 O154 2.223 . S
Cd155 O158 2.297 . S
Cd155 O159 2.439 . S
Cd155 O165 2.240 . S
Cd156 O157 2.240 1_556 S
Cd156 O164 2.223 1_556 S
Cd156 O166 2.297 . S
Cd156 O167 2.439 . S
O157 Cd156 2.240 1_554 S
O157 C162 1.279 . S
O158 Cd155 2.297 . S
O158 C160 1.247 . S
O159 Cd155 2.439 . S
O159 C160 1.208 . S
C160 O158 1.247 . S
C160 O159 1.208 . S
C161 O166 1.247 . S
C161 O167 1.208 . S
C162 O154 1.315 . S
C162 O157 1.279 . S
C163 O164 1.315 . S
C163 O165 1.279 . S
O164 Cd156 2.223 1_554 S
O164 C163 1.315 . S
O165 Cd155 2.240 . S
O165 C163 1.279 . S
O166 Cd156 2.297 . S
O166 C161 1.247 . S
O167 Cd156 2.439 . S
O167 C161 1.208 . S
O168 Cd169 2.223 . S
O168 C176 1.315 . S
Cd169 O168 2.223 . S
Cd169 O172 2.297 . S
Cd169 O173 2.439 . S
Cd169 O179 2.240 . S
Cd170 O171 2.240 . S
Cd170 O178 2.223 . S
Cd170 O180 2.297 1_554 S
Cd170 O181 2.439 1_554 S
O171 Cd170 2.240 . S
O171 C176 1.279 . S
O172 Cd169 2.297 . S
O172 C174 1.247 . S
O173 Cd169 2.439 . S
O173 C174 1.208 . S
C174 O172 1.247 . S
C174 O173 1.208 . S
C175 O180 1.247 . S
C175 O181 1.208 . S
C176 O168 1.315 . S
C176 O171 1.279 . S
C177 O178 1.315 . S
C177 O179 1.279 . S
O178 Cd170 2.223 . S
O178 C177 1.315 . S
O179 Cd169 2.240 . S
O179 C177 1.279 . S
O180 Cd170 2.297 1_556 S
O180 C175 1.247 . S
O181 Cd170 2.439 1_556 S
O181 C175 1.208 . S
O182 Cd183 2.223 . S
O182 C190 1.315 . S
Cd183 O182 2.223 . S
Cd183 O186 2.297 . S
Cd183 O187 2.439 . S
Cd183 O193 2.240 . S
Cd184 O185 2.240 . S
Cd184 O192 2.223 . S
Cd184 O194 2.297 1_554 S
Cd184 O195 2.439 1_554 S
O185 Cd184 2.240 . S
O185 C190 1.279 . S
O186 Cd183 2.297 . S
O186 C188 1.247 . S
O187 Cd183 2.439 . S
O187 C188 1.208 . S
C188 O186 1.247 . S
C188 O187 1.208 . S
C189 O194 1.247 . S
C189 O195 1.208 . S
C190 O182 1.315 . S
C190 O185 1.279 . S
C191 O192 1.315 . S
C191 O193 1.279 . S
O192 Cd184 2.223 . S
O192 C191 1.315 . S
O193 Cd183 2.240 . S
O193 C191 1.279 . S
O194 Cd184 2.297 1_556 S
O194 C189 1.247 . S
O195 Cd184 2.439 1_556 S
O195 C189 1.208 . S
O196 Cd197 2.223 . S
O196 C204 1.315 . S
Cd197 O196 2.223 . S
Cd197 O200 2.297 . S
Cd197 O201 2.439 . S
Cd197 O207 2.240 . S
Cd198 O199 2.240 . S
Cd198 O206 2.223 . S
Cd198 O208 2.297 . S
Cd198 O209 2.439 . S
O199 Cd198 2.240 . S
O199 C204 1.279 . S
O200 Cd197 2.297 . S
O200 C202 1.247 . S
O201 Cd197 2.439 . S
O201 C202 1.208 . S
C202 O200 1.247 . S
C202 O201 1.208 . S
C203 O208 1.247 . S
C203 O209 1.208 . S
C204 O196 1.315 . S
C204 O199 1.279 . S
C205 O206 1.315 . S
C205 O207 1.279 . S
O206 Cd198 2.223 . S
O206 C205 1.315 . S
O207 Cd197 2.240 . S
O207 C205 1.279 . S
O208 Cd198 2.297 . S
O208 C203 1.247 . S
O209 Cd198 2.439 . S
O209 C203 1.208 . S
O210 Cd211 2.223 . S
O210 C218 1.315 . S
Cd211 O210 2.223 . S
Cd211 O214 2.297 . S
Cd211 O215 2.439 . S
Cd211 O221 2.240 . S
Cd212 O213 2.240 . S
Cd212 O220 2.223 . S
Cd212 O222 2.297 . S
Cd212 O223 2.439 . S
O213 Cd212 2.240 . S
O213 C218 1.279 . S
O214 Cd211 2.297 . S
O214 C216 1.247 . S
O215 Cd211 2.439 . S
O215 C216 1.208 . S
C216 O214 1.247 . S
C216 O215 1.208 . S
C217 O222 1.247 . S
C217 O223 1.208 . S
C218 O210 1.315 . S
C218 O213 1.279 . S
C219 O220 1.315 . S
C219 O221 1.279 . S
O220 Cd212 2.223 . S
O220 C219 1.315 . S
O221 Cd211 2.240 . S
O221 C219 1.279 . S
O222 Cd212 2.297 . S
O222 C217 1.247 . S
O223 Cd212 2.439 . S
O223 C217 1.208 . S
O224 Cd225 2.223 . S
O224 C232 1.315 . S
Cd225 O224 2.223 . S
Cd225 O228 2.297 . S
Cd225 O229 2.439 . S
Cd225 O235 2.240 . S
Cd226 O227 2.240 . S
Cd226 O234 2.223 . S
Cd226 O236 2.297 . S
Cd226 O237 2.439 . S
O227 Cd226 2.240 . S
O227 C232 1.279 . S
O228 Cd225 2.297 . S
O228 C230 1.247 . S
O229 Cd225 2.439 . S
O229 C230 1.208 . S
C230 O228 1.247 . S
C230 O229 1.208 . S
C231 O236 1.247 . S
C231 O237 1.208 . S
C232 O224 1.315 . S
C232 O227 1.279 . S
C233 O234 1.315 . S
C233 O235 1.279 . S
O234 Cd226 2.223 . S
O234 C233 1.315 . S
O235 Cd225 2.240 . S
O235 C233 1.279 . S
O236 Cd226 2.297 . S
O236 C231 1.247 . S
O237 Cd226 2.439 . S
O237 C231 1.208 . S
O238 Cd239 2.223 . S
O238 C246 1.315 . S
Cd239 O238 2.223 . S
Cd239 O242 2.297 . S
Cd239 O243 2.439 . S
Cd239 O249 2.240 . S
Cd240 O241 2.240 . S
Cd240 O248 2.223 . S
Cd240 O250 2.297 . S
Cd240 O251 2.439 . S
O241 Cd240 2.240 . S
O241 C246 1.279 . S
O242 Cd239 2.297 . S
O242 C244 1.247 . S
O243 Cd239 2.439 . S
O243 C244 1.208 . S
C244 O242 1.247 . S
C244 O243 1.208 . S
C245 O250 1.247 . S
C245 O251 1.208 . S
C246 O238 1.315 . S
C246 O241 1.279 . S
C247 O248 1.315 . S
C247 O249 1.279 . S
O248 Cd240 2.223 . S
O248 C247 1.315 . S
O249 Cd239 2.240 . S
O249 C247 1.279 . S
O250 Cd240 2.297 . S
O250 C245 1.247 . S
O251 Cd240 2.439 . S
O251 C245 1.208 . S
O252 Cd253 2.223 . S
O252 C260 1.315 . S
Cd253 O252 2.223 . S
Cd253 O256 2.297 . S
Cd253 O257 2.439 . S
Cd253 O263 2.240 . S
Cd254 O255 2.240 . S
Cd254 O262 2.223 . S
Cd254 O264 2.297 . S
Cd254 O265 2.439 . S
O255 Cd254 2.240 . S
O255 C260 1.279 . S
O256 Cd253 2.297 . S
O256 C258 1.247 . S
O257 Cd253 2.439 . S
O257 C258 1.208 . S
C258 O256 1.247 . S
C258 O257 1.208 . S
C259 O264 1.247 . S
C259 O265 1.208 . S
C260 O252 1.315 . S
C260 O255 1.279 . S
C261 O262 1.315 . S
C261 O263 1.279 . S
O262 Cd254 2.223 . S
O262 C261 1.315 . S
O263 Cd253 2.240 . S
O263 C261 1.279 . S
O264 Cd254 2.297 . S
O264 C259 1.247 . S
O265 Cd254 2.439 . S
O265 C259 1.208 . S
O266 Cd267 2.223 . S
O266 C274 1.315 . S
Cd267 O266 2.223 . S
Cd267 O270 2.297 . S
Cd267 O271 2.439 . S
Cd267 O277 2.240 . S
Cd268 O269 2.240 . S
Cd268 O276 2.223 . S
Cd268 O278 2.297 . S
Cd268 O279 2.439 . S
O269 Cd268 2.240 . S
O269 C274 1.279 . S
O270 Cd267 2.297 . S
O270 C272 1.247 . S
O271 Cd267 2.439 . S
O271 C272 1.208 . S
C272 O270 1.247 . S
C272 O271 1.208 . S
C273 O278 1.247 . S
C273 O279 1.208 . S
C274 O266 1.315 . S
C274 O269 1.279 . S
C275 O276 1.315 . S
C275 O277 1.279 . S
O276 Cd268 2.223 . S
O276 C275 1.315 . S
O277 Cd267 2.240 . S
O277 C275 1.279 . S
O278 Cd268 2.297 . S
O278 C273 1.247 . S
O279 Cd268 2.439 . S
O279 C273 1.208 . S
O280 Cd281 2.223 . S
O280 C288 1.315 . S
Cd281 O280 2.223 . S
Cd281 O284 2.297 . S
Cd281 O285 2.439 1_554 S
Cd281 O291 2.240 1_554 S
Cd282 O283 2.240 1_556 S
Cd282 O290 2.223 1_556 S
Cd282 O292 2.297 . S
Cd282 O293 2.439 . S
O283 Cd282 2.240 1_554 S
O283 C288 1.279 . S
O284 Cd281 2.297 . S
O284 C286 1.247 . S
O285 Cd281 2.439 1_556 S
O285 C286 1.208 1_556 S
C286 O284 1.247 . S
C286 O285 1.208 1_554 S
C287 O292 1.247 . S
C287 O293 1.208 . S
C288 O280 1.315 . S
C288 O283 1.279 . S
C289 O290 1.315 1_556 S
C289 O291 1.302 . S
O290 Cd282 2.223 1_554 S
O290 C289 1.315 1_554 S
O291 Cd281 2.240 1_556 S
O291 C289 1.302 . S
O292 Cd282 2.297 . S
O292 C287 1.247 . S
O293 Cd282 2.439 . S
O293 C287 1.208 . S
O294 Cd295 2.223 . S
O294 C302 1.315 . S
Cd295 O294 2.223 . S
Cd295 O298 2.297 . S
Cd295 O299 2.439 . S
Cd295 O305 2.240 . S
Cd296 O297 2.240 . S
Cd296 O304 2.223 . S
Cd296 O306 2.297 . S
Cd296 O307 2.439 . S
O297 Cd296 2.240 . S
O297 C302 1.279 . S
O298 Cd295 2.297 . S
O298 C300 1.247 . S
O299 Cd295 2.439 . S
O299 C300 1.208 . S
C300 O298 1.247 . S
C300 O299 1.208 . S
C301 O306 1.247 . S
C301 O307 1.208 . S
C302 O294 1.315 . S
C302 O297 1.279 . S
C303 O304 1.315 . S
C303 O305 1.279 . S
O304 Cd296 2.223 . S
O304 C303 1.315 . S
O305 Cd295 2.240 . S
O305 C303 1.279 . S
O306 Cd296 2.297 . S
O306 C301 1.247 . S
O307 Cd296 2.439 . S
O307 C301 1.208 . S
O308 Cd309 2.223 . S
O308 C316 1.315 . S
Cd309 O308 2.223 . S
Cd309 O312 2.297 . S
Cd309 O313 2.439 . S
Cd309 O319 2.240 . S
Cd310 O311 2.240 . S
Cd310 O318 2.223 . S
Cd310 O320 2.297 . S
Cd310 O321 2.439 . S
O311 Cd310 2.240 . S
O311 C316 1.279 . S
O312 Cd309 2.297 . S
O312 C314 1.247 . S
O313 Cd309 2.439 . S
O313 C314 1.208 . S
C314 O312 1.247 . S
C314 O313 1.208 . S
C315 O320 1.247 . S
C315 O321 1.208 . S
C316 O308 1.315 . S
C316 O311 1.279 . S
C317 O318 1.315 . S
C317 O319 1.279 . S
O318 Cd310 2.223 . S
O318 C317 1.315 . S
O319 Cd309 2.240 . S
O319 C317 1.279 . S
O320 Cd310 2.297 . S
O320 C315 1.247 . S
O321 Cd310 2.439 . S
O321 C315 1.208 . S
O322 Cd323 2.223 . S
O322 C330 1.315 . S
Cd323 O322 2.223 . S
Cd323 O326 2.297 . S
Cd323 O327 2.439 . S
Cd323 O333 2.240 . S
Cd324 O325 2.240 . S
Cd324 O332 2.223 . S
Cd324 O334 2.297 . S
Cd324 O335 2.439 . S
O325 Cd324 2.240 . S
O325 C330 1.279 . S
O326 Cd323 2.297 . S
O326 C328 1.247 . S
O327 Cd323 2.439 . S
O327 C328 1.208 . S
C328 O326 1.247 . S
C328 O327 1.208 . S
C329 O334 1.247 . S
C329 O335 1.208 . S
C330 O322 1.315 . S
C330 O325 1.279 . S
C331 O332 1.315 . S
C331 O333 1.279 . S
O332 Cd324 2.223 . S
O332 C331 1.315 . S
O333 Cd323 2.240 . S
O333 C331 1.279 . S
O334 Cd324 2.297 . S
O334 C329 1.247 . S
O335 Cd324 2.439 . S
O335 C329 1.208 . S
Eu336 N367 2.657 . S
Eu336 N374 2.609 1_554 S
Eu336 O380 2.558 1_554 S
Eu336 O381 2.612 . S
Eu336 O383 2.339 . S
Eu336 O384 2.563 . S
Eu336 O385 2.477 . S
Eu336 O387 2.380 . S
Eu336 O388 2.432 1_554 S
Eu336 C400 2.848 1_455 S
C337 C340 1.429 . S
C337 C341 1.411 . S
C337 N344 1.377 . S
C338 C340 1.420 . S
C338 C342 1.423 . S
C338 C350 1.392 . S
C339 C341 1.420 . S
C339 C342 1.351 . S
C339 H362 0.931 . S
C340 C337 1.429 . S
C340 C338 1.420 . S
C340 N348 1.362 . S
C341 C337 1.411 . S
C341 C339 1.420 . S
C341 C346 1.395 . S
C342 C338 1.423 . S
C342 C339 1.351 . S
C342 H354 0.930 . S
C343 C345 1.400 . S
C343 C346 1.386 . S
C343 H355 0.930 . S
N344 C337 1.377 . S
N344 C345 1.321 . S
N344 Eu347 2.609 . S
C345 C343 1.400 . S
C345 N344 1.321 . S
C345 H352 0.930 . S
C346 C341 1.395 . S
C346 C343 1.386 . S
C346 H365 0.930 . S
Eu347 N344 2.609 . S
Eu347 N348 2.657 . S
Eu347 O381 2.380 . S
Eu347 O382 2.432 . S
Eu347 O386 2.558 . S
Eu347 O387 2.612 . S
Eu347 O389 2.339 . S
Eu347 O390 2.563 . S
Eu347 O391 2.419 . S
Eu347 C411 2.848 . S
N348 C340 1.362 . S
N348 Eu347 2.657 . S
N348 C349 1.334 . S
C349 N348 1.334 . S
C349 C351 1.413 1_554 S
C349 H356 0.929 1_554 S
C350 C338 1.392 . S
C350 C351 1.367 1_554 S
C350 H358 0.930 . S
C351 C349 1.413 1_556 S
C351 C350 1.367 1_556 S
C351 H353 0.930 . S
H352 C345 0.930 . S
H353 C351 0.930 . S
H354 C342 0.930 . S
H355 C343 0.930 . S
H356 C349 0.929 1_556 S
H357 C371 0.930 . S
H358 C350 0.930 . S
H359 C377 0.930 . S
H360 C368 0.929 . S
H361 C375 0.930 . S
H362 C339 0.931 . S
H363 C369 0.925 1_655 S
H364 C402 0.930 . S
H365 C346 0.930 . S
H366 C401 0.931 . S
N367 Eu336 2.657 . S
N367 C368 1.334 . S
N367 C372 1.362 1_545 S
C368 H360 0.929 . S
C368 N367 1.334 . S
C368 C371 1.413 1_545 S
C369 H363 0.925 1_455 S
C369 C370 1.394 1_455 S
C369 C371 1.373 . S
C370 C369 1.394 1_655 S
C370 C372 1.413 1_655 S
C370 C402 1.430 . S
C371 H357 0.930 . S
C371 C368 1.413 1_565 S
C371 C369 1.373 . S
C372 N367 1.362 1_565 S
C372 C370 1.413 1_455 S
C372 C376 1.429 1_554 S
H373 C378 0.930 . S
N374 Eu336 2.609 1_556 S
N374 C376 1.377 1_545 S
N374 C377 1.321 . S
C375 H361 0.930 . S
C375 C377 1.400 1_565 S
C375 C378 1.386 1_455 S
C376 C372 1.429 1_556 S
C376 N374 1.377 1_565 S
C376 C379 1.411 1_455 S
C377 H359 0.930 . S
C377 N374 1.321 . S
C377 C375 1.400 1_545 S
C378 H373 0.930 . S
C378 C375 1.386 1_655 S
C378 C379 1.395 . S
C379 C376 1.411 1_655 S
C379 C378 1.395 . S
C379 C401 1.420 . S
O380 Eu336 2.558 1_556 S
O380 C400 1.257 1_456 S
O381 Eu336 2.612 . S
O381 Eu347 2.380 . S
O381 C392 1.276 . S
O382 Eu347 2.432 . S
O382 C399 1.264 . S
O383 Eu336 2.339 . S
O383 C399 1.254 . S
O384 Eu336 2.563 . S
O384 C392 1.235 . S
O385 Eu336 2.477 . S
O385 C400 1.234 1_455 S
O386 Eu347 2.558 . S
O386 C411 1.257 . S
O387 Eu336 2.380 . S
O387 Eu347 2.612 . S
O387 C403 1.276 . S
O388 Eu336 2.432 1_556 S
O388 C410 1.264 . S
O389 Eu347 2.339 . S
O389 C410 1.254 1_554 S
O390 Eu347 2.563 . S
O390 C403 1.235 . S
O391 Eu347 2.419 . S
O391 C411 1.249 . S
C392 O381 1.276 . S
C392 O384 1.235 . S
C393 C395 1.393 1_556 S
C393 C397 1.395 . S
C393 C400 1.492 1_556 S
C394 C395 1.392 . S
C394 C396 1.386 1_554 S
C395 C393 1.393 1_554 S
C395 C394 1.392 . S
C395 H412 0.930 . S
C396 C394 1.386 1_556 S
C396 C398 1.395 . S
C396 H413 0.930 . S
C397 C393 1.395 . S
C397 C398 1.379 . S
C397 H414 0.930 . S
C398 C396 1.395 . S
C398 C397 1.379 . S
C398 H415 0.930 . S
C399 O382 1.264 . S
C399 O383 1.254 . S
C400 Eu336 2.848 1_655 S
C400 O380 1.257 1_654 S
C400 O385 1.234 1_655 S
C400 C393 1.492 1_554 S
C401 H366 0.931 . S
C401 C379 1.420 . S
C401 C402 1.351 1_556 S
C402 H364 0.930 . S
C402 C370 1.430 . S
C402 C401 1.351 1_554 S
C403 O387 1.276 . S
C403 O390 1.235 . S
C404 C405 1.393 . S
C404 C408 1.395 . S
C404 C411 1.492 . S
C405 C404 1.393 . S
C405 C406 1.392 . S
C405 H416 0.930 . S
C406 C405 1.392 . S
C406 C407 1.386 . S
C407 C406 1.386 . S
C407 C409 1.395 . S
C407 H417 0.930 . S
C408 C404 1.395 . S
C408 C409 1.379 . S
C408 H418 0.930 . S
C409 C407 1.395 . S
C409 C408 1.379 . S
C409 H419 0.930 . S
C410 O388 1.264 . S
C410 O389 1.254 1_556 S
C411 Eu347 2.848 . S
C411 O386 1.257 . S
C411 O391 1.249 . S
C411 C404 1.492 . S
H412 C395 0.930 . S
H413 C396 0.930 . S
H414 C397 0.930 . S
H415 C398 0.930 . S
H416 C405 0.930 . S
H417 C407 0.930 . S
H418 C408 0.930 . S
H419 C409 0.930 . S
Eu420 N451 2.657 . S
Eu420 N458 2.609 . S
Eu420 O464 2.558 . S
Eu420 O465 2.612 . S
Eu420 O467 2.339 . S
Eu420 O468 2.563 . S
Eu420 O469 2.419 . S
Eu420 O471 2.380 . S
Eu420 O472 2.432 . S
Eu420 C484 2.848 . S
C421 C424 1.429 . S
C421 C425 1.411 . S
C421 N428 1.377 . S
C422 C424 1.420 . S
C422 C426 1.423 . S
C422 C434 1.392 . S
C423 C425 1.420 . S
C423 C426 1.351 . S
C423 H446 0.931 . S
C424 C421 1.429 . S
C424 C422 1.420 . S
C424 N432 1.362 . S
C425 C421 1.411 . S
C425 C423 1.420 . S
C425 C430 1.395 . S
C426 C422 1.423 . S
C426 C423 1.351 . S
C426 H438 0.930 . S
C427 C429 1.400 . S
C427 C430 1.386 . S
C427 H439 0.930 . S
N428 C421 1.377 . S
N428 C429 1.321 . S
N428 Eu431 2.609 . S
C429 C427 1.400 . S
C429 N428 1.321 . S
C429 H436 0.930 . S
C430 C425 1.395 . S
C430 C427 1.386 . S
C430 H449 0.930 . S
Eu431 N428 2.609 . S
Eu431 N432 2.657 . S
Eu431 O465 2.380 . S
Eu431 O466 2.432 . S
Eu431 O470 2.558 . S
Eu431 O471 2.612 . S
Eu431 O473 2.339 . S
Eu431 O474 2.563 . S
Eu431 O475 2.419 . S
Eu431 C495 2.848 . S
N432 C424 1.362 . S
N432 Eu431 2.657 . S
N432 C433 1.334 . S
C433 N432 1.334 . S
C433 C435 1.413 . S
C433 H440 0.929 . S
C434 C422 1.392 . S
C434 C435 1.367 . S
C434 H442 0.930 . S
C435 C433 1.413 . S
C435 C434 1.367 . S
C435 H437 0.930 . S
H436 C429 0.930 . S
H437 C435 0.930 . S
H438 C426 0.930 . S
H439 C427 0.930 . S
H440 C433 0.929 . S
H441 C455 0.930 . S
H442 C434 0.930 . S
H443 C461 0.930 . S
H444 C452 0.929 . S
H445 C459 0.930 . S
H446 C423 0.931 . S
H447 C453 0.930 . S
H448 C486 0.930 . S
H449 C430 0.930 . S
H450 C485 0.931 . S
N451 Eu420 2.657 . S
N451 C452 1.334 . S
N451 C456 1.362 . S
C452 H444 0.929 . S
C452 N451 1.334 . S
C452 C455 1.413 . S
C453 H447 0.930 . S
C453 C454 1.392 . S
C453 C455 1.367 . S
C454 C453 1.392 . S
C454 C456 1.420 . S
C454 C486 1.423 . S
C455 H441 0.930 . S
C455 C452 1.413 . S
C455 C453 1.367 . S
C456 N451 1.362 . S
C456 C454 1.420 . S
C456 C460 1.429 . S
H457 C462 0.930 . S
N458 Eu420 2.609 . S
N458 C460 1.377 . S
N458 C461 1.321 . S
C459 H445 0.930 . S
C459 C461 1.400 . S
C459 C462 1.386 . S
C460 C456 1.429 . S
C460 N458 1.377 . S
C460 C463 1.411 . S
C461 H443 0.930 . S
C461 N458 1.321 . S
C461 C459 1.400 . S
C462 H457 0.930 . S
C462 C459 1.386 . S
C462 C463 1.395 . S
C463 C460 1.411 . S
C463 C462 1.395 . S
C463 C485 1.420 . S
O464 Eu420 2.558 . S
O464 C484 1.257 . S
O465 Eu420 2.612 . S
O465 Eu431 2.380 . S
O465 C476 1.276 . S
O466 Eu431 2.432 . S
O466 C483 1.264 . S
O467 Eu420 2.339 . S
O467 C483 1.254 . S
O468 Eu420 2.563 . S
O468 C476 1.235 . S
O469 Eu420 2.419 . S
O469 C484 1.249 . S
O470 Eu431 2.558 . S
O470 C495 1.257 . S
O471 Eu420 2.380 . S
O471 Eu431 2.612 . S
O471 C487 1.276 . S
O472 Eu420 2.432 . S
O472 C494 1.264 . S
O473 Eu431 2.339 . S
O473 C494 1.254 . S
O474 Eu431 2.563 . S
O474 C487 1.235 . S
O475 Eu431 2.419 . S
O475 C495 1.249 . S
C476 O465 1.276 . S
C476 O468 1.235 . S
C477 C479 1.393 . S
C477 C481 1.395 . S
C477 C484 1.492 . S
C478 C479 1.392 . S
C478 C480 1.386 . S
C479 C477 1.393 . S
C479 C478 1.392 . S
C479 H496 0.930 . S
C480 C478 1.386 . S
C480 C482 1.395 . S
C480 H497 0.930 . S
C481 C477 1.395 . S
C481 C482 1.379 . S
C481 H498 0.930 . S
C482 C480 1.395 . S
C482 C481 1.379 . S
C482 H499 0.930 . S
C483 O466 1.264 . S
C483 O467 1.254 . S
C484 Eu420 2.848 . S
C484 O464 1.257 . S
C484 O469 1.249 . S
C484 C477 1.492 . S
C485 H450 0.931 . S
C485 C463 1.420 . S
C485 C486 1.351 . S
C486 H448 0.930 . S
C486 C454 1.423 . S
C486 C485 1.351 . S
C487 O471 1.276 . S
C487 O474 1.235 . S
C488 C489 1.393 . S
C488 C492 1.395 . S
C488 C495 1.492 . S
C489 C488 1.393 . S
C489 C490 1.392 . S
C489 H500 0.930 . S
C490 C489 1.392 . S
C490 C491 1.386 . S
C491 C490 1.386 . S
C491 C493 1.395 . S
C491 H501 0.930 . S
C492 C488 1.395 . S
C492 C493 1.379 . S
C492 H502 0.930 . S
C493 C491 1.395 . S
C493 C492 1.379 . S
C493 H503 0.930 . S
C494 O472 1.264 . S
C494 O473 1.254 . S
C495 Eu431 2.848 . S
C495 O470 1.257 . S
C495 O475 1.249 . S
C495 C488 1.492 . S
H496 C479 0.930 . S
H497 C480 0.930 . S
H498 C481 0.930 . S
H499 C482 0.930 . S
H500 C489 0.930 . S
H501 C491 0.930 . S
H502 C492 0.930 . S
H503 C493 0.930 . S
Eu504 N535 2.657 . S
Eu504 N542 2.609 . S
Eu504 O548 2.558 . S
Eu504 O549 2.612 . S
Eu504 O551 2.339 . S
Eu504 O552 2.563 . S
Eu504 O553 2.419 . S
Eu504 O555 2.380 . S
Eu504 O556 2.432 . S
Eu504 C568 2.848 . S
C505 C508 1.429 . S
C505 C509 1.411 . S
C505 N512 1.377 1_565 S
C506 C508 1.420 . S
C506 C510 1.423 . S
C506 C518 1.392 . S
C507 C509 1.420 . S
C507 C510 1.351 . S
C507 H530 0.931 . S
C508 C505 1.429 . S
C508 C506 1.420 . S
C508 N516 1.362 1_565 S
C509 C505 1.411 . S
C509 C507 1.420 . S
C509 C514 1.395 . S
C510 C506 1.423 . S
C510 C507 1.351 . S
C510 H522 0.930 . S
C511 C513 1.400 . S
C511 C514 1.386 1_545 S
C511 H523 0.930 . S
N512 C505 1.377 1_545 S
N512 C513 1.321 . S
N512 Eu515 2.609 . S
C513 C511 1.400 . S
C513 N512 1.321 . S
C513 H520 0.930 . S
C514 C509 1.395 . S
C514 C511 1.386 1_565 S
C514 H533 0.930 . S
Eu515 N512 2.609 . S
Eu515 N516 2.657 . S
Eu515 O549 2.380 . S
Eu515 O550 2.432 . S
Eu515 O554 2.558 . S
Eu515 O555 2.612 . S
Eu515 O557 2.339 . S
Eu515 O558 2.563 . S
Eu515 O559 2.419 . S
Eu515 C579 2.848 . S
N516 C508 1.362 1_545 S
N516 Eu515 2.657 . S
N516 C517 1.334 1_545 S
C517 N516 1.334 1_565 S
C517 C519 1.413 . S
C517 H524 0.929 1_565 S
C518 C506 1.392 . S
C518 C519 1.367 . S
C518 H526 0.930 . S
C519 C517 1.413 . S
C519 C518 1.367 . S
C519 H521 0.930 . S
H520 C513 0.930 . S
H521 C519 0.930 . S
H522 C510 0.930 . S
H523 C511 0.930 . S
H524 C517 0.929 1_545 S
H525 C539 0.930 . S
H526 C518 0.930 . S
H527 C545 0.930 . S
H528 C536 0.929 . S
H529 C543 0.930 . S
H530 C507 0.931 . S
H531 C537 0.930 . S
H532 C570 0.930 . S
H533 C514 0.930 . S
H534 C569 0.931 . S
N535 Eu504 2.657 . S
N535 C536 1.334 . S
N535 C540 1.362 . S
C536 H528 0.929 . S
C536 N535 1.334 . S
C536 C539 1.413 . S
C537 H531 0.930 . S
C537 C538 1.392 . S
C537 C539 1.367 . S
C538 C537 1.392 . S
C538 C540 1.420 . S
C538 C570 1.423 . S
C539 H525 0.930 . S
C539 C536 1.413 . S
C539 C537 1.367 . S
C540 N535 1.362 . S
C540 C538 1.420 . S
C540 C544 1.429 . S
H541 C546 0.930 . S
N542 Eu504 2.609 . S
N542 C544 1.377 . S
N542 C545 1.321 . S
C543 H529 0.930 . S
C543 C545 1.400 . S
C543 C546 1.386 . S
C544 C540 1.429 . S
C544 N542 1.377 . S
C544 C547 1.411 . S
C545 H527 0.930 . S
C545 N542 1.321 . S
C545 C543 1.400 . S
C546 H541 0.930 . S
C546 C543 1.386 . S
C546 C547 1.395 . S
C547 C544 1.411 . S
C547 C546 1.395 . S
C547 C569 1.420 . S
O548 Eu504 2.558 . S
O548 C568 1.257 . S
O549 Eu504 2.612 . S
O549 Eu515 2.380 . S
O549 C560 1.276 . S
O550 Eu515 2.432 . S
O550 C567 1.264 . S
O551 Eu504 2.339 . S
O551 C567 1.254 . S
O552 Eu504 2.563 . S
O552 C560 1.235 . S
O553 Eu504 2.419 . S
O553 C568 1.249 . S
O554 Eu515 2.558 . S
O554 C579 1.257 . S
O555 Eu504 2.380 . S
O555 Eu515 2.612 . S
O555 C571 1.276 . S
O556 Eu504 2.432 . S
O556 C578 1.264 . S
O557 Eu515 2.339 . S
O557 C578 1.254 . S
O558 Eu515 2.563 . S
O558 C571 1.235 . S
O559 Eu515 2.419 . S
O559 C579 1.249 . S
C560 O549 1.276 . S
C560 O552 1.235 . S
C561 C563 1.393 . S
C561 C565 1.395 . S
C561 C568 1.492 . S
C562 C563 1.431 . S
C562 C564 1.393 . S
C563 C561 1.393 . S
C563 C562 1.431 . S
C563 H580 0.930 . S
C564 C562 1.393 . S
C564 C566 1.395 . S
C564 H581 0.930 1_545 S
C565 C561 1.395 . S
C565 C566 1.379 . S
C565 H582 0.930 . S
C566 C564 1.395 . S
C566 C565 1.379 . S
C566 H583 0.930 . S
C567 O550 1.264 . S
C567 O551 1.254 . S
C568 Eu504 2.848 . S
C568 O548 1.257 . S
C568 O553 1.249 . S
C568 C561 1.492 . S
C569 H534 0.931 . S
C569 C547 1.420 . S
C569 C570 1.351 . S
C570 H532 0.930 . S
C570 C538 1.423 . S
C570 C569 1.351 . S
C571 O555 1.276 . S
C571 O558 1.235 . S
C572 C573 1.393 . S
C572 C576 1.395 . S
C572 C579 1.492 . S
C573 C572 1.393 . S
C573 C574 1.392 . S
C573 H584 0.930 . S
C574 C573 1.392 . S
C574 C575 1.386 . S
C575 C574 1.386 . S
C575 C577 1.395 . S
C575 H585 0.930 . S
C576 C572 1.395 . S
C576 C577 1.379 . S
C576 H586 0.930 . S
C577 C575 1.395 . S
C577 C576 1.379 . S
C577 H587 0.930 . S
C578 O556 1.264 . S
C578 O557 1.254 . S
C579 Eu515 2.848 . S
C579 O554 1.257 . S
C579 O559 1.249 . S
C579 C572 1.492 . S
H580 C563 0.930 . S
H581 C564 0.930 1_565 S
H582 C565 0.930 . S
H583 C566 0.930 . S
H584 C573 0.930 . S
H585 C575 0.930 . S
H586 C576 0.930 . S
H587 C577 0.930 . S
Eu588 N619 2.657 . S
Eu588 N626 2.609 . S
Eu588 O632 2.558 . S
Eu588 O633 2.612 . S
Eu588 O635 2.339 . S
Eu588 O636 2.563 . S
Eu588 O637 2.419 . S
Eu588 O639 2.380 . S
Eu588 O640 2.432 . S
Eu588 C652 2.848 . S
C589 C592 1.429 . S
C589 C593 1.411 . S
C589 N596 1.377 . S
C590 C592 1.420 . S
C590 C594 1.423 . S
C590 C602 1.392 . S
C591 C593 1.420 . S
C591 C594 1.351 . S
C591 H614 0.931 . S
C592 C589 1.429 . S
C592 C590 1.420 . S
C592 N600 1.362 . S
C593 C589 1.411 . S
C593 C591 1.420 . S
C593 C598 1.395 . S
C594 C590 1.423 . S
C594 C591 1.351 . S
C594 H606 0.930 . S
C595 C597 1.400 . S
C595 C598 1.386 . S
C595 H607 0.930 . S
N596 C589 1.377 . S
N596 C597 1.321 . S
N596 Eu599 2.609 . S
C597 C595 1.400 . S
C597 N596 1.321 . S
C597 H604 0.930 . S
C598 C593 1.395 . S
C598 C595 1.386 . S
C598 H617 0.930 . S
Eu599 N596 2.609 . S
Eu599 N600 2.657 . S
Eu599 O633 2.380 . S
Eu599 O634 2.432 . S
Eu599 O638 2.558 . S
Eu599 O639 2.612 . S
Eu599 O641 2.339 . S
Eu599 O642 2.563 . S
Eu599 O643 2.419 . S
Eu599 C663 2.848 . S
N600 C592 1.362 . S
N600 Eu599 2.657 . S
N600 C601 1.334 . S
C601 N600 1.334 . S
C601 C603 1.413 . S
C601 H608 0.929 . S
C602 C590 1.392 . S
C602 C603 1.367 . S
C602 H610 0.930 . S
C603 C601 1.413 . S
C603 C602 1.367 . S
C603 H605 0.930 . S
H604 C597 0.930 . S
H605 C603 0.930 . S
H606 C594 0.930 . S
H607 C595 0.930 . S
H608 C601 0.929 . S
H609 C623 0.930 . S
H610 C602 0.930 . S
H611 C629 0.930 . S
H612 C620 0.929 . S
H613 C627 0.930 . S
H614 C591 0.931 . S
H615 C621 0.930 . S
H616 C654 0.930 . S
H617 C598 0.930 . S
H618 C653 0.931 . S
N619 Eu588 2.657 . S
N619 C620 1.334 . S
N619 C624 1.362 . S
C620 H612 0.929 . S
C620 N619 1.334 . S
C620 C623 1.413 . S
C621 H615 0.930 . S
C621 C622 1.392 . S
C621 C623 1.367 . S
C622 C621 1.392 . S
C622 C624 1.420 . S
C622 C654 1.423 . S
C623 H609 0.930 . S
C623 C620 1.413 . S
C623 C621 1.367 . S
C624 N619 1.362 . S
C624 C622 1.420 . S
C624 C628 1.429 . S
H625 C630 0.930 . S
N626 Eu588 2.609 . S
N626 C628 1.377 . S
N626 C629 1.321 . S
C627 H613 0.930 . S
C627 C629 1.400 . S
C627 C630 1.386 . S
C628 C624 1.429 . S
C628 N626 1.377 . S
C628 C631 1.411 . S
C629 H611 0.930 . S
C629 N626 1.321 . S
C629 C627 1.400 . S
C630 H625 0.930 . S
C630 C627 1.386 . S
C630 C631 1.395 . S
C631 C628 1.411 . S
C631 C630 1.395 . S
C631 C653 1.420 . S
O632 Eu588 2.558 . S
O632 C652 1.257 . S
O633 Eu588 2.612 . S
O633 Eu599 2.380 . S
O633 C644 1.276 . S
O634 Eu599 2.432 . S
O634 C651 1.264 . S
O635 Eu588 2.339 . S
O635 C651 1.254 . S
O636 Eu588 2.563 . S
O636 C644 1.235 . S
O637 Eu588 2.419 . S
O637 C652 1.249 . S
O638 Eu599 2.558 . S
O638 C663 1.257 . S
O639 Eu588 2.380 . S
O639 Eu599 2.612 . S
O639 C655 1.276 . S
O640 Eu588 2.432 . S
O640 C662 1.264 . S
O641 Eu599 2.339 . S
O641 C662 1.254 . S
O642 Eu599 2.563 . S
O642 C655 1.235 . S
O643 Eu599 2.419 . S
O643 C663 1.249 . S
C644 O633 1.276 . S
C644 O636 1.235 . S
C645 C647 1.393 . S
C645 C649 1.395 . S
C645 C652 1.492 . S
C646 C647 1.392 . S
C646 C648 1.386 . S
C647 C645 1.393 . S
C647 C646 1.392 . S
C647 H664 0.930 . S
C648 C646 1.386 . S
C648 C650 1.395 . S
C648 H665 0.930 . S
C649 C645 1.395 . S
C649 C650 1.379 . S
C649 H666 0.930 . S
C650 C648 1.395 . S
C650 C649 1.379 . S
C650 H667 0.930 . S
C651 O634 1.264 . S
C651 O635 1.254 . S
C652 Eu588 2.848 . S
C652 O632 1.257 . S
C652 O637 1.249 . S
C652 C645 1.492 . S
C653 H618 0.931 . S
C653 C631 1.420 . S
C653 C654 1.351 . S
C654 H616 0.930 . S
C654 C622 1.423 . S
C654 C653 1.351 . S
C655 O639 1.276 . S
C655 O642 1.235 . S
C656 C657 1.393 . S
C656 C660 1.395 . S
C656 C663 1.492 . S
C657 C656 1.393 . S
C657 C658 1.392 . S
C657 H668 0.930 . S
C658 C657 1.392 . S
C658 C659 1.386 . S
C659 C658 1.386 . S
C659 C661 1.395 . S
C659 H669 0.930 . S
C660 C656 1.395 . S
C660 C661 1.379 . S
C660 H670 0.930 . S
C661 C659 1.395 . S
C661 C660 1.379 . S
C661 H671 0.930 . S
C662 O640 1.264 . S
C662 O641 1.254 . S
C663 Eu599 2.848 . S
C663 O638 1.257 . S
C663 O643 1.249 . S
C663 C656 1.492 . S
H664 C647 0.930 . S
H665 C648 0.930 . S
H666 C649 0.930 . S
H667 C650 0.930 . S
H668 C657 0.930 . S
H669 C659 0.930 . S
H670 C660 0.930 . S
H671 C661 0.930 . S
Eu672 N703 2.657 . S
Eu672 N710 2.609 . S
Eu672 O716 2.558 . S
Eu672 O717 2.612 . S
Eu672 O719 2.339 . S
Eu672 O720 2.563 . S
Eu672 O721 2.419 . S
Eu672 O723 2.380 . S
Eu672 O724 2.432 . S
Eu672 C736 2.848 . S
C673 C676 1.429 . S
C673 C677 1.411 . S
C673 N680 1.377 1_565 S
C674 C676 1.420 . S
C674 C678 1.423 . S
C674 C686 1.392 . S
C675 C677 1.420 . S
C675 C678 1.351 . S
C675 H698 0.931 . S
C676 C673 1.429 . S
C676 C674 1.420 . S
C676 N684 1.385 . S
C677 C673 1.411 . S
C677 C675 1.420 . S
C677 C682 1.395 . S
C678 C674 1.423 . S
C678 C675 1.351 . S
C678 H690 0.930 . S
C679 C681 1.400 1_565 S
C679 C682 1.386 . S
C679 H691 0.930 . S
N680 C673 1.377 1_545 S
N680 C681 1.321 . S
N680 Eu683 2.609 . S
C681 C679 1.400 1_545 S
C681 N680 1.321 . S
C681 H688 0.930 . S
C682 C677 1.395 . S
C682 C679 1.386 . S
C682 H701 0.930 . S
Eu683 N680 2.609 . S
Eu683 N684 2.648 1_545 S
Eu683 O717 2.380 . S
Eu683 O718 2.432 . S
Eu683 O722 2.558 1_545 S
Eu683 O723 2.612 . S
Eu683 O725 2.339 . S
Eu683 O726 2.563 . S
Eu683 O727 2.419 1_545 S
Eu683 C747 2.848 1_545 S
N684 C676 1.385 . S
N684 Eu683 2.648 1_565 S
N684 C685 1.324 . S
C685 N684 1.324 . S
C685 C687 1.413 . S
C685 H692 0.929 1_565 S
C686 C674 1.392 . S
C686 C687 1.367 . S
C686 H694 0.930 . S
C687 C685 1.413 . S
C687 C686 1.367 . S
C687 H689 0.895 1_455 S
H688 C681 0.930 . S
H689 C687 0.895 1_655 S
H690 C678 0.930 . S
H691 C679 0.930 . S
H692 C685 0.929 1_545 S
H693 C707 0.930 . S
H694 C686 0.930 . S
H695 C713 0.930 . S
H696 C704 0.929 . S
H697 C711 0.930 . S
H698 C675 0.931 . S
H699 C705 0.930 . S
H700 C738 0.930 . S
H701 C682 0.930 . S
H702 C737 0.931 . S
N703 Eu672 2.657 . S
N703 C704 1.334 . S
N703 C708 1.362 . S
C704 H696 0.929 . S
C704 N703 1.334 . S
C704 C707 1.413 . S
C705 H699 0.930 . S
C705 C706 1.392 . S
C705 C707 1.367 . S
C706 C705 1.392 . S
C706 C708 1.420 . S
C706 C738 1.423 . S
C707 H693 0.930 . S
C707 C704 1.413 . S
C707 C705 1.367 . S
C708 N703 1.362 . S
C708 C706 1.420 . S
C708 C712 1.429 . S
H709 C714 0.930 . S
N710 Eu672 2.609 . S
N710 C712 1.377 . S
N710 C713 1.321 . S
C711 H697 0.930 . S
C711 C713 1.400 . S
C711 C714 1.386 . S
C712 C708 1.429 . S
C712 N710 1.377 . S
C712 C715 1.411 . S
C713 H695 0.930 . S
C713 N710 1.321 . S
C713 C711 1.400 . S
C714 H709 0.930 . S
C714 C711 1.386 . S
C714 C715 1.395 . S
C715 C712 1.411 . S
C715 C714 1.395 . S
C715 C737 1.420 . S
O716 Eu672 2.558 . S
O716 C736 1.257 . S
O717 Eu672 2.612 . S
O717 Eu683 2.380 . S
O717 C728 1.276 . S
O718 Eu683 2.432 . S
O718 C735 1.264 . S
O719 Eu672 2.339 . S
O719 C735 1.254 . S
O720 Eu672 2.563 . S
O720 C728 1.235 . S
O721 Eu672 2.419 . S
O721 C736 1.249 . S
O722 Eu683 2.558 1_565 S
O722 C747 1.257 . S
O723 Eu672 2.380 . S
O723 Eu683 2.612 . S
O723 C739 1.276 . S
O724 Eu672 2.432 . S
O724 C746 1.264 . S
O725 Eu683 2.339 . S
O725 C746 1.254 . S
O726 Eu683 2.563 . S
O726 C739 1.235 . S
O727 Eu683 2.419 1_565 S
O727 C747 1.249 . S
C728 O717 1.276 . S
C728 O720 1.235 . S
C729 C731 1.393 . S
C729 C733 1.395 . S
C729 C736 1.492 . S
C730 C731 1.392 . S
C730 C732 1.386 . S
C731 C729 1.393 . S
C731 C730 1.392 . S
C731 H748 0.930 . S
C732 C730 1.386 . S
C732 C734 1.395 . S
C732 H749 0.930 . S
C733 C729 1.395 . S
C733 C734 1.379 . S
C733 H750 0.930 . S
C734 C732 1.395 . S
C734 C733 1.379 . S
C734 H751 0.930 . S
C735 O718 1.264 . S
C735 O719 1.254 . S
C736 Eu672 2.848 . S
C736 O716 1.257 . S
C736 O721 1.249 . S
C736 C729 1.492 . S
C737 H702 0.931 . S
C737 C715 1.420 . S
C737 C738 1.351 . S
C738 H700 0.930 . S
C738 C706 1.423 . S
C738 C737 1.351 . S
C739 O723 1.276 . S
C739 O726 1.235 . S
C740 C741 1.393 . S
C740 C744 1.395 . S
C740 C747 1.492 . S
C741 C740 1.393 . S
C741 C742 1.392 . S
C741 H752 0.930 . S
C742 C741 1.392 . S
C742 C743 1.386 . S
C743 C742 1.386 . S
C743 C745 1.395 . S
C743 H753 0.930 . S
C744 C740 1.395 . S
C744 C745 1.379 . S
C744 H754 0.930 . S
C745 C743 1.395 . S
C745 C744 1.379 . S
C745 H755 0.930 . S
C746 O724 1.264 . S
C746 O725 1.254 . S
C747 Eu683 2.848 1_565 S
C747 O722 1.257 . S
C747 O727 1.249 . S
C747 C740 1.492 . S
H748 C731 0.930 . S
H749 C732 0.930 . S
H750 C733 0.930 . S
H751 C734 0.930 . S
H752 C741 0.930 . S
H753 C743 0.930 . S
H754 C744 0.930 . S
H755 C745 0.930 . S
Eu756 N787 2.657 . S
Eu756 N794 2.609 . S
Eu756 O800 2.558 . S
Eu756 O801 2.612 . S
Eu756 O803 2.339 . S
Eu756 O804 2.563 . S
Eu756 O805 2.419 . S
Eu756 O807 2.380 . S
Eu756 O808 2.432 . S
Eu756 C820 2.848 . S
C757 C760 1.429 . S
C757 C761 1.411 . S
C757 N764 1.377 . S
C758 C760 1.420 . S
C758 C762 1.423 . S
C758 C770 1.392 . S
C759 C761 1.420 . S
C759 C762 1.351 . S
C759 H782 0.931 . S
C760 C757 1.429 . S
C760 C758 1.420 . S
C760 N768 1.362 . S
C761 C757 1.411 . S
C761 C759 1.420 . S
C761 C766 1.395 . S
C762 C758 1.423 . S
C762 C759 1.351 . S
C762 H774 0.930 . S
C763 C765 1.400 . S
C763 C766 1.386 . S
C763 H775 0.930 . S
N764 C757 1.377 . S
N764 C765 1.321 . S
N764 Eu767 2.609 . S
C765 C763 1.400 . S
C765 N764 1.321 . S
C765 H772 0.930 . S
C766 C761 1.395 . S
C766 C763 1.386 . S
C766 H785 0.930 . S
Eu767 N764 2.609 . S
Eu767 N768 2.657 . S
Eu767 O801 2.380 . S
Eu767 O802 2.432 . S
Eu767 O806 2.558 . S
Eu767 O807 2.612 . S
Eu767 O809 2.339 . S
Eu767 O810 2.563 . S
Eu767 O811 2.419 . S
Eu767 C831 2.848 . S
N768 C760 1.362 . S
N768 Eu767 2.657 . S
N768 C769 1.334 . S
C769 N768 1.334 . S
C769 C771 1.413 . S
C769 H776 0.929 . S
C770 C758 1.392 . S
C770 C771 1.367 . S
C770 H778 0.930 . S
C771 C769 1.413 . S
C771 C770 1.367 . S
C771 H773 0.930 . S
H772 C765 0.930 . S
H773 C771 0.930 . S
H774 C762 0.930 . S
H775 C763 0.930 . S
H776 C769 0.929 . S
H777 C791 0.930 . S
H778 C770 0.930 . S
H779 C797 0.930 . S
H780 C788 0.929 . S
H781 C795 0.930 . S
H782 C759 0.931 . S
H783 C789 0.930 . S
H784 C822 0.930 . S
H785 C766 0.930 . S
H786 C821 0.931 . S
N787 Eu756 2.657 . S
N787 C788 1.334 . S
N787 C792 1.362 . S
C788 H780 0.929 . S
C788 N787 1.334 . S
C788 C791 1.413 . S
C789 H783 0.930 . S
C789 C790 1.392 . S
C789 C791 1.367 . S
C790 C789 1.392 . S
C790 C792 1.420 . S
C790 C822 1.423 . S
C791 H777 0.930 . S
C791 C788 1.413 . S
C791 C789 1.367 . S
C792 N787 1.362 . S
C792 C790 1.420 . S
C792 C796 1.429 . S
H793 C798 0.930 . S
N794 Eu756 2.609 . S
N794 C796 1.377 . S
N794 C797 1.321 . S
C795 H781 0.930 . S
C795 C797 1.400 . S
C795 C798 1.386 . S
C796 C792 1.429 . S
C796 N794 1.377 . S
C796 C799 1.411 . S
C797 H779 0.930 . S
C797 N794 1.321 . S
C797 C795 1.400 . S
C798 H793 0.930 . S
C798 C795 1.386 . S
C798 C799 1.395 . S
C799 C796 1.411 . S
C799 C798 1.395 . S
C799 C821 1.420 . S
O800 Eu756 2.558 . S
O800 C820 1.257 . S
O801 Eu756 2.612 . S
O801 Eu767 2.380 . S
O801 C812 1.276 . S
O802 Eu767 2.432 . S
O802 C819 1.264 . S
O803 Eu756 2.339 . S
O803 C819 1.254 . S
O804 Eu756 2.563 . S
O804 C812 1.235 . S
O805 Eu756 2.419 . S
O805 C820 1.249 . S
O806 Eu767 2.558 . S
O806 C831 1.257 . S
O807 Eu756 2.380 . S
O807 Eu767 2.612 . S
O807 C823 1.276 . S
O808 Eu756 2.432 . S
O808 C830 1.264 . S
O809 Eu767 2.339 . S
O809 C830 1.254 . S
O810 Eu767 2.563 . S
O810 C823 1.235 . S
O811 Eu767 2.419 . S
O811 C831 1.249 . S
C812 O801 1.276 . S
C812 O804 1.235 . S
C813 C815 1.393 . S
C813 C817 1.395 . S
C813 C820 1.492 . S
C814 C815 1.392 . S
C814 C816 1.386 . S
C815 C813 1.393 . S
C815 C814 1.392 . S
C815 H832 0.930 . S
C816 C814 1.386 . S
C816 C818 1.395 . S
C816 H833 0.930 . S
C817 C813 1.395 . S
C817 C818 1.379 . S
C817 H834 0.930 . S
C818 C816 1.395 . S
C818 C817 1.379 . S
C818 H835 0.930 . S
C819 O802 1.264 . S
C819 O803 1.254 . S
C820 Eu756 2.848 . S
C820 O800 1.257 . S
C820 O805 1.249 . S
C820 C813 1.492 . S
C821 H786 0.931 . S
C821 C799 1.420 . S
C821 C822 1.351 . S
C822 H784 0.930 . S
C822 C790 1.423 . S
C822 C821 1.351 . S
C823 O807 1.276 . S
C823 O810 1.235 . S
C824 C825 1.393 . S
C824 C828 1.395 . S
C824 C831 1.492 . S
C825 C824 1.393 . S
C825 C826 1.392 . S
C825 H836 0.930 . S
C826 C825 1.392 . S
C826 C827 1.386 . S
C827 C826 1.386 . S
C827 C829 1.395 . S
C827 H837 0.930 . S
C828 C824 1.395 . S
C828 C829 1.379 . S
C828 H838 0.930 . S
C829 C827 1.395 . S
C829 C828 1.379 . S
C829 H839 0.930 . S
C830 O808 1.264 . S
C830 O809 1.254 . S
C831 Eu767 2.848 . S
C831 O806 1.257 . S
C831 O811 1.249 . S
C831 C824 1.492 . S
H832 C815 0.930 . S
H833 C816 0.930 . S
H834 C817 0.930 . S
H835 C818 0.930 . S
H836 C825 0.930 . S
H837 C827 0.930 . S
H838 C828 0.930 . S
H839 C829 0.930 . S
Eu840 N871 2.657 . S
Eu840 N878 2.609 . S
Eu840 O884 2.558 . S
Eu840 O885 2.612 . S
Eu840 O887 2.339 . S
Eu840 O888 2.563 . S
Eu840 O889 2.419 . S
Eu840 O891 2.380 . S
Eu840 O892 2.432 . S
Eu840 C904 2.848 . S
C841 C844 1.429 . S
C841 C845 1.411 . S
C841 N848 1.377 . S
C842 C844 1.420 . S
C842 C846 1.423 . S
C842 C854 1.392 1_545 S
C843 C845 1.420 . S
C843 C846 1.351 . S
C843 H866 0.931 . S
C844 C841 1.429 . S
C844 C842 1.420 . S
C844 N852 1.362 . S
C845 C841 1.411 . S
C845 C843 1.420 . S
C845 C850 1.395 . S
C846 C842 1.423 . S
C846 C843 1.351 . S
C846 H858 0.930 . S
C847 C849 1.400 . S
C847 C850 1.386 . S
C847 H859 0.930 . S
N848 C841 1.377 . S
N848 C849 1.321 . S
N848 Eu851 2.609 1_556 S
C849 C847 1.400 . S
C849 N848 1.321 . S
C849 H856 0.935 . S
C850 C845 1.395 . S
C850 C847 1.386 . S
C850 H869 0.930 . S
Eu851 N848 2.609 1_554 S
Eu851 N852 2.657 1_554 S
Eu851 O885 2.380 . S
Eu851 O886 2.432 . S
Eu851 O890 2.558 1_554 S
Eu851 O891 2.612 . S
Eu851 O893 2.339 1_554 S
Eu851 O894 2.563 . S
Eu851 O895 2.419 1_554 S
Eu851 C915 2.848 1_554 S
N852 C844 1.362 . S
N852 Eu851 2.657 1_556 S
N852 C853 1.334 . S
C853 N852 1.334 . S
C853 C855 1.413 1_545 S
C853 H860 0.968 . S
C854 C842 1.392 1_565 S
C854 C855 1.367 . S
C854 H862 0.930 . S
C855 C853 1.413 1_565 S
C855 C854 1.367 . S
C855 H857 0.930 . S
H856 C849 0.935 . S
H857 C855 0.930 . S
H858 C846 0.930 . S
H859 C847 0.930 . S
H860 C853 0.968 . S
H861 C875 0.930 . S
H862 C854 0.930 . S
H863 C881 0.930 1_565 S
H864 C872 0.929 . S
H865 C879 0.930 . S
H866 C843 0.931 . S
H867 C873 0.930 . S
H868 C906 0.930 . S
H869 C850 0.930 . S
H870 C905 0.931 . S
N871 Eu840 2.657 . S
N871 C872 1.334 . S
N871 C876 1.362 . S
C872 H864 0.929 . S
C872 N871 1.334 . S
C872 C875 1.413 . S
C873 H867 0.930 . S
C873 C874 1.392 . S
C873 C875 1.367 . S
C874 C873 1.392 . S
C874 C876 1.420 . S
C874 C906 1.423 . S
C875 H861 0.930 . S
C875 C872 1.413 . S
C875 C873 1.367 . S
C876 N871 1.362 . S
C876 C874 1.420 . S
C876 C880 1.429 . S
H877 C882 0.917 1_565 S
N878 Eu840 2.609 . S
N878 C880 1.377 . S
N878 C881 1.321 . S
C879 H865 0.930 . S
C879 C881 1.400 1_565 S
C879 C882 1.386 1_565 S
C880 C876 1.429 . S
C880 N878 1.377 . S
C880 C883 1.411 . S
C881 H863 0.930 1_545 S
C881 N878 1.321 . S
C881 C879 1.400 1_545 S
C882 H877 0.917 1_545 S
C882 C879 1.386 1_545 S
C882 C883 1.395 . S
C883 C880 1.411 . S
C883 C882 1.395 . S
C883 C905 1.420 . S
O884 Eu840 2.558 . S
O884 C904 1.257 . S
O885 Eu840 2.612 . S
O885 Eu851 2.380 . S
O885 C896 1.276 . S
O886 Eu851 2.432 . S
O886 C903 1.264 . S
O887 Eu840 2.339 . S
O887 C903 1.254 . S
O888 Eu840 2.563 . S
O888 C896 1.235 . S
O889 Eu840 2.419 . S
O889 C904 1.249 . S
O890 Eu851 2.558 1_556 S
O890 C915 1.257 . S
O891 Eu840 2.380 . S
O891 Eu851 2.612 . S
O891 C907 1.276 . S
O892 Eu840 2.432 . S
O892 C914 1.264 . S
O893 Eu851 2.339 1_556 S
O893 C914 1.250 1_556 S
O894 Eu851 2.563 . S
O894 C907 1.235 . S
O895 Eu851 2.419 1_556 S
O895 C915 1.249 . S
C896 O885 1.276 . S
C896 O888 1.235 . S
C897 C899 1.393 . S
C897 C901 1.395 . S
C897 C904 1.492 . S
C898 C899 1.392 . S
C898 C900 1.386 . S
C899 C897 1.393 . S
C899 C898 1.392 . S
C899 H916 0.930 . S
C900 C898 1.386 . S
C900 C902 1.399 . S
C900 H917 0.930 . S
C901 C897 1.395 . S
C901 C902 1.381 . S
C901 H918 0.930 1_545 S
C902 C900 1.399 . S
C902 C901 1.381 . S
C902 H919 0.923 1_545 S
C903 O886 1.264 . S
C903 O887 1.254 . S
C904 Eu840 2.848 . S
C904 O884 1.257 . S
C904 O889 1.249 . S
C904 C897 1.492 . S
C905 H870 0.931 . S
C905 C883 1.420 . S
C905 C906 1.351 . S
C906 H868 0.930 . S
C906 C874 1.423 . S
C906 C905 1.351 . S
C907 O891 1.276 . S
C907 O894 1.235 . S
C908 C909 1.393 . S
C908 C912 1.395 . S
C908 C915 1.492 . S
C909 C908 1.393 . S
C909 C910 1.392 . S
C909 H920 0.930 . S
C910 C909 1.392 . S
C910 C911 1.386 . S
C911 C910 1.386 . S
C911 C913 1.395 . S
C911 H921 0.930 . S
C912 C908 1.395 . S
C912 C913 1.379 . S
C912 H922 0.930 . S
C913 C911 1.395 . S
C913 C912 1.379 . S
C913 H923 0.930 . S
C914 O892 1.264 . S
C914 O893 1.250 1_554 S
C915 Eu851 2.848 1_556 S
C915 O890 1.257 . S
C915 O895 1.249 . S
C915 C908 1.492 . S
H916 C899 0.930 . S
H917 C900 0.930 . S
H918 C901 0.930 1_565 S
H919 C902 0.923 1_565 S
H920 C909 0.930 . S
H921 C911 0.930 . S
H922 C912 0.930 . S
H923 C913 0.930 . S
Eu924 N955 2.657 . S
Eu924 N962 2.609 . S
Eu924 O968 2.558 . S
Eu924 O969 2.612 . S
Eu924 O971 2.339 . S
Eu924 O972 2.563 . S
Eu924 O973 2.419 . S
Eu924 O975 2.380 . S
Eu924 O976 2.432 . S
Eu924 C988 2.848 . S
C925 C928 1.429 . S
C925 C929 1.411 . S
C925 N932 1.377 . S
C926 C928 1.420 . S
C926 C930 1.423 . S
C926 C938 1.392 . S
C927 C929 1.420 . S
C927 C930 1.351 . S
C927 H950 0.931 . S
C928 C925 1.429 . S
C928 C926 1.420 . S
C928 N936 1.362 . S
C929 C925 1.411 . S
C929 C927 1.420 . S
C929 C934 1.395 . S
C930 C926 1.423 . S
C930 C927 1.351 . S
C930 H942 0.930 . S
C931 C933 1.400 . S
C931 C934 1.386 . S
C931 H943 0.930 . S
N932 C925 1.377 . S
N932 C933 1.321 . S
N932 Eu935 2.609 . S
C933 C931 1.400 . S
C933 N932 1.321 . S
C933 H940 0.930 . S
C934 C929 1.395 . S
C934 C931 1.386 . S
C934 H953 0.930 . S
Eu935 N932 2.609 . S
Eu935 N936 2.657 . S
Eu935 O969 2.380 . S
Eu935 O970 2.432 . S
Eu935 O974 2.558 . S
Eu935 O975 2.612 . S
Eu935 O977 2.339 . S
Eu935 O978 2.563 . S
Eu935 O979 2.419 . S
Eu935 C999 2.848 . S
N936 C928 1.362 . S
N936 Eu935 2.657 . S
N936 C937 1.334 . S
C937 N936 1.334 . S
C937 C939 1.413 . S
C937 H944 0.929 . S
C938 C926 1.392 . S
C938 C939 1.367 . S
C938 H946 0.930 . S
C939 C937 1.413 . S
C939 C938 1.367 . S
C939 H941 0.930 . S
H940 C933 0.930 . S
H941 C939 0.930 . S
H942 C930 0.930 . S
H943 C931 0.930 . S
H944 C937 0.929 . S
H945 C959 0.930 . S
H946 C938 0.930 . S
H947 C965 0.930 . S
H948 C956 0.929 . S
H949 C963 0.930 . S
H950 C927 0.931 . S
H951 C957 0.930 . S
H952 C990 0.930 . S
H953 C934 0.930 . S
H954 C989 0.931 . S
N955 Eu924 2.657 . S
N955 C956 1.334 . S
N955 C960 1.362 . S
C956 H948 0.929 . S
C956 N955 1.334 . S
C956 C959 1.413 . S
C957 H951 0.930 . S
C957 C958 1.392 . S
C957 C959 1.367 . S
C958 C957 1.392 . S
C958 C960 1.420 . S
C958 C990 1.423 . S
C959 H945 0.930 . S
C959 C956 1.413 . S
C959 C957 1.367 . S
C960 N955 1.362 . S
C960 C958 1.420 . S
C960 C964 1.429 . S
H961 C966 0.930 . S
N962 Eu924 2.609 . S
N962 C964 1.377 . S
N962 C965 1.321 . S
C963 H949 0.930 . S
C963 C965 1.400 . S
C963 C966 1.386 . S
C964 C960 1.429 . S
C964 N962 1.377 . S
C964 C967 1.411 . S
C965 H947 0.930 . S
C965 N962 1.321 . S
C965 C963 1.400 . S
C966 H961 0.930 . S
C966 C963 1.386 . S
C966 C967 1.395 . S
C967 C964 1.411 . S
C967 C966 1.395 . S
C967 C989 1.420 . S
O968 Eu924 2.558 . S
O968 C988 1.257 . S
O969 Eu924 2.612 . S
O969 Eu935 2.380 . S
O969 C980 1.276 . S
O970 Eu935 2.432 . S
O970 C987 1.264 . S
O971 Eu924 2.339 . S
O971 C987 1.254 . S
O972 Eu924 2.563 . S
O972 C980 1.235 . S
O973 Eu924 2.419 . S
O973 C988 1.249 . S
O974 Eu935 2.558 . S
O974 C999 1.257 . S
O975 Eu924 2.380 . S
O975 Eu935 2.612 . S
O975 C991 1.276 . S
O976 Eu924 2.432 . S
O976 C998 1.264 . S
O977 Eu935 2.339 . S
O977 C998 1.254 . S
O978 Eu935 2.563 . S
O978 C991 1.235 . S
O979 Eu935 2.419 . S
O979 C999 1.249 . S
C980 O969 1.276 . S
C980 O972 1.235 . S
C981 C983 1.393 . S
C981 C985 1.395 . S
C981 C988 1.492 . S
C982 C983 1.392 . S
C982 C984 1.386 . S
C983 C981 1.393 . S
C983 C982 1.392 . S
C983 H1000 0.930 . S
C984 C982 1.386 . S
C984 C986 1.395 . S
C984 H1001 0.930 . S
C985 C981 1.395 . S
C985 C986 1.379 . S
C985 H1002 0.930 . S
C986 C984 1.395 . S
C986 C985 1.379 . S
C986 H1003 0.930 . S
C987 O970 1.264 . S
C987 O971 1.254 . S
C988 Eu924 2.848 . S
C988 O968 1.257 . S
C988 O973 1.249 . S
C988 C981 1.492 . S
C989 H954 0.931 . S
C989 C967 1.420 . S
C989 C990 1.351 . S
C990 H952 0.930 . S
C990 C958 1.423 . S
C990 C989 1.351 . S
C991 O975 1.276 . S
C991 O978 1.235 . S
C992 C993 1.393 . S
C992 C996 1.395 . S
C992 C999 1.492 . S
C993 C992 1.393 . S
C993 C994 1.392 . S
C993 H1004 0.930 . S
C994 C993 1.392 . S
C994 C995 1.386 . S
C995 C994 1.386 . S
C995 C997 1.395 . S
C995 H1005 0.930 . S
C996 C992 1.395 . S
C996 C997 1.379 . S
C996 H1006 0.930 . S
C997 C995 1.395 . S
C997 C996 1.379 . S
C997 H1007 0.930 . S
C998 O976 1.264 . S
C998 O977 1.254 . S
C999 Eu935 2.848 . S
C999 O974 1.257 . S
C999 O979 1.249 . S
C999 C992 1.492 . S
H1000 C983 0.930 . S
H1001 C984 0.930 . S
H1002 C985 0.930 . S
H1003 C986 0.930 . S
H1004 C993 0.930 . S
H1005 C995 0.930 . S
H1006 C996 0.930 . S
H1007 C997 0.930 . S
Eu1008 N1039 2.657 . S
Eu1008 N1046 2.609 . S
Eu1008 O1052 2.558 . S
Eu1008 O1053 2.612 . S
Eu1008 O1055 2.339 . S
Eu1008 O1056 2.563 1_554 S
Eu1008 O1057 2.419 . S
Eu1008 O1059 2.380 . S
Eu1008 O1060 2.432 . S
Eu1008 C1072 2.848 . S
C1009 C1012 1.429 . S
C1009 C1013 1.411 . S
C1009 N1016 1.377 . S
C1010 C1012 1.420 . S
C1010 C1014 1.423 . S
C1010 C1022 1.392 . S
C1011 C1013 1.420 . S
C1011 C1014 1.351 . S
C1011 H1034 0.931 . S
C1012 C1009 1.429 . S
C1012 C1010 1.420 . S
C1012 N1020 1.362 . S
C1013 C1009 1.411 . S
C1013 C1011 1.420 . S
C1013 C1018 1.395 . S
C1014 C1010 1.423 . S
C1014 C1011 1.351 . S
C1014 H1026 0.930 . S
C1015 C1017 1.400 . S
C1015 C1018 1.386 . S
C1015 H1027 0.930 . S
N1016 C1009 1.377 . S
N1016 C1017 1.321 . S
N1016 Eu1019 2.609 1_556 S
C1017 C1015 1.400 . S
C1017 N1016 1.321 . S
C1017 H1024 0.930 . S
C1018 C1013 1.395 . S
C1018 C1015 1.386 . S
C1018 H1037 0.930 . S
Eu1019 N1016 2.609 1_554 S
Eu1019 N1020 2.657 1_554 S
Eu1019 O1053 2.380 . S
Eu1019 O1054 2.432 . S
Eu1019 O1058 2.558 . S
Eu1019 O1059 2.612 . S
Eu1019 O1061 2.339 . S
Eu1019 O1062 2.563 . S
Eu1019 O1063 2.419 . S
Eu1019 C1083 2.848 . S
N1020 C1012 1.362 . S
N1020 Eu1019 2.657 1_556 S
N1020 C1021 1.334 . S
C1021 N1020 1.334 . S
C1021 C1023 1.413 . S
C1021 H1028 0.929 . S
C1022 C1010 1.392 . S
C1022 C1023 1.367 . S
C1022 H1030 0.930 . S
C1023 C1021 1.413 . S
C1023 C1022 1.367 . S
C1023 H1025 0.930 . S
H1024 C1017 0.930 . S
H1025 C1023 0.930 . S
H1026 C1014 0.930 . S
H1027 C1015 0.930 . S
H1028 C1021 0.929 . S
H1029 C1043 0.930 . S
H1030 C1022 0.930 . S
H1031 C1049 0.930 . S
H1032 C1040 0.929 . S
H1033 C1047 0.930 . S
H1034 C1011 0.931 . S
H1035 C1041 0.930 . S
H1036 C1074 0.930 . S
H1037 C1018 0.930 . S
H1038 C1073 0.931 . S
N1039 Eu1008 2.657 . S
N1039 C1040 1.334 . S
N1039 C1044 1.362 . S
C1040 H1032 0.929 . S
C1040 N1039 1.334 . S
C1040 C1043 1.413 . S
C1041 H1035 0.930 . S
C1041 C1042 1.392 . S
C1041 C1043 1.367 . S
C1042 C1041 1.392 . S
C1042 C1044 1.420 . S
C1042 C1074 1.423 . S
C1043 H1029 0.930 . S
C1043 C1040 1.413 . S
C1043 C1041 1.367 . S
C1044 N1039 1.362 . S
C1044 C1042 1.420 . S
C1044 C1048 1.429 . S
H1045 C1050 0.930 . S
N1046 Eu1008 2.609 . S
N1046 C1048 1.377 . S
N1046 C1049 1.321 . S
C1047 H1033 0.930 . S
C1047 C1049 1.400 . S
C1047 C1050 1.386 . S
C1048 C1044 1.429 . S
C1048 N1046 1.377 . S
C1048 C1051 1.411 . S
C1049 H1031 0.930 . S
C1049 N1046 1.321 . S
C1049 C1047 1.400 . S
C1050 H1045 0.930 . S
C1050 C1047 1.386 . S
C1050 C1051 1.395 . S
C1051 C1048 1.411 . S
C1051 C1050 1.395 . S
C1051 C1073 1.420 . S
O1052 Eu1008 2.558 . S
O1052 C1072 1.257 . S
O1053 Eu1008 2.612 . S
O1053 Eu1019 2.380 . S
O1053 C1064 1.276 1_554 S
O1054 Eu1019 2.432 . S
O1054 C1071 1.264 . S
O1055 Eu1008 2.339 . S
O1055 C1071 1.254 . S
O1056 Eu1008 2.563 1_556 S
O1056 C1064 1.235 . S
O1057 Eu1008 2.419 . S
O1057 C1072 1.249 . S
O1058 Eu1019 2.558 . S
O1058 C1083 1.257 . S
O1059 Eu1008 2.380 . S
O1059 Eu1019 2.612 . S
O1059 C1075 1.276 . S
O1060 Eu1008 2.432 . S
O1060 C1082 1.264 . S
O1061 Eu1019 2.339 . S
O1061 C1082 1.254 . S
O1062 Eu1019 2.563 . S
O1062 C1075 1.235 . S
O1063 Eu1019 2.419 . S
O1063 C1083 1.249 . S
C1064 O1053 1.276 1_556 S
C1064 O1056 1.235 . S
C1065 C1067 1.393 . S
C1065 C1069 1.395 . S
C1065 C1072 1.492 . S
C1066 C1067 1.392 . S
C1066 C1068 1.386 . S
C1067 C1065 1.393 . S
C1067 C1066 1.392 . S
C1067 H1084 0.930 . S
C1068 C1066 1.386 . S
C1068 C1070 1.395 . S
C1068 H1085 0.930 . S
C1069 C1065 1.395 . S
C1069 C1070 1.379 . S
C1069 H1086 0.930 . S
C1070 C1068 1.395 . S
C1070 C1069 1.379 . S
C1070 H1087 0.930 . S
C1071 O1054 1.264 . S
C1071 O1055 1.254 . S
C1072 Eu1008 2.848 . S
C1072 O1052 1.257 . S
C1072 O1057 1.249 . S
C1072 C1065 1.492 . S
C1073 H1038 0.931 . S
C1073 C1051 1.420 . S
C1073 C1074 1.351 . S
C1074 H1036 0.930 . S
C1074 C1042 1.423 . S
C1074 C1073 1.351 . S
C1075 O1059 1.276 . S
C1075 O1062 1.235 . S
C1076 C1077 1.393 . S
C1076 C1080 1.395 . S
C1076 C1083 1.492 . S
C1077 C1076 1.393 . S
C1077 C1078 1.392 . S
C1077 H1088 0.930 . S
C1078 C1077 1.392 . S
C1078 C1079 1.386 . S
C1079 C1078 1.386 . S
C1079 C1081 1.395 . S
C1079 H1089 0.930 . S
C1080 C1076 1.395 . S
C1080 C1081 1.379 . S
C1080 H1090 0.930 . S
C1081 C1079 1.395 . S
C1081 C1080 1.379 . S
C1081 H1091 0.930 . S
C1082 O1060 1.264 . S
C1082 O1061 1.254 . S
C1083 Eu1019 2.848 . S
C1083 O1058 1.257 . S
C1083 O1063 1.249 . S
C1083 C1076 1.492 . S
H1084 C1067 0.930 . S
H1085 C1068 0.930 . S
H1086 C1069 0.930 . S
H1087 C1070 0.930 . S
H1088 C1077 0.930 . S
H1089 C1079 0.930 . S
H1090 C1080 0.930 . S
H1091 C1081 0.930 . S
Eu1092 N1123 2.657 . S
Eu1092 N1130 2.609 . S
Eu1092 O1136 2.558 . S
Eu1092 O1137 2.612 . S
Eu1092 O1139 2.339 . S
Eu1092 O1140 2.563 . S
Eu1092 O1141 2.419 . S
Eu1092 O1143 2.380 . S
Eu1092 O1144 2.432 . S
Eu1092 C1156 2.848 . S
C1093 C1096 1.429 . S
C1093 C1097 1.411 . S
C1093 N1100 1.377 . S
C1094 C1096 1.420 . S
C1094 C1098 1.423 . S
C1094 C1106 1.392 . S
C1095 C1097 1.420 . S
C1095 C1098 1.351 . S
C1095 H1118 0.931 . S
C1096 C1093 1.429 . S
C1096 C1094 1.420 . S
C1096 N1104 1.362 . S
C1097 C1093 1.411 . S
C1097 C1095 1.420 . S
C1097 C1102 1.395 . S
C1098 C1094 1.423 . S
C1098 C1095 1.351 . S
C1098 H1110 0.930 . S
C1099 C1101 1.400 . S
C1099 C1102 1.386 . S
C1099 H1111 0.930 . S
N1100 C1093 1.377 . S
N1100 C1101 1.321 . S
N1100 Eu1103 2.609 . S
C1101 C1099 1.400 . S
C1101 N1100 1.321 . S
C1101 H1108 0.930 . S
C1102 C1097 1.395 . S
C1102 C1099 1.386 . S
C1102 H1121 0.930 . S
Eu1103 N1100 2.609 . S
Eu1103 N1104 2.657 . S
Eu1103 O1137 2.380 . S
Eu1103 O1138 2.432 . S
Eu1103 O1142 2.558 . S
Eu1103 O1143 2.612 . S
Eu1103 O1145 2.339 . S
Eu1103 O1146 2.563 . S
Eu1103 O1147 2.419 . S
Eu1103 C1167 2.848 . S
N1104 C1096 1.362 . S
N1104 Eu1103 2.657 . S
N1104 C1105 1.334 . S
C1105 N1104 1.334 . S
C1105 C1107 1.413 . S
C1105 H1112 0.929 . S
C1106 C1094 1.392 . S
C1106 C1107 1.367 . S
C1106 H1114 0.930 . S
C1107 C1105 1.413 . S
C1107 C1106 1.367 . S
C1107 H1109 0.930 . S
H1108 C1101 0.930 . S
H1109 C1107 0.930 . S
H1110 C1098 0.930 . S
H1111 C1099 0.930 . S
H1112 C1105 0.929 . S
H1113 C1127 0.930 . S
H1114 C1106 0.930 . S
H1115 C1133 0.930 . S
H1116 C1124 0.929 . S
H1117 C1131 0.930 . S
H1118 C1095 0.931 . S
H1119 C1125 0.930 . S
H1120 C1158 0.930 . S
H1121 C1102 0.930 . S
H1122 C1157 0.931 . S
N1123 Eu1092 2.657 . S
N1123 C1124 1.334 . S
N1123 C1128 1.362 . S
C1124 H1116 0.929 . S
C1124 N1123 1.334 . S
C1124 C1127 1.413 . S
C1125 H1119 0.930 . S
C1125 C1126 1.392 . S
C1125 C1127 1.367 . S
C1126 C1125 1.392 . S
C1126 C1128 1.420 . S
C1126 C1158 1.423 . S
C1127 H1113 0.930 . S
C1127 C1124 1.413 . S
C1127 C1125 1.367 . S
C1128 N1123 1.362 . S
C1128 C1126 1.420 . S
C1128 C1132 1.429 . S
H1129 C1134 0.930 . S
N1130 Eu1092 2.609 . S
N1130 C1132 1.377 . S
N1130 C1133 1.321 . S
C1131 H1117 0.930 . S
C1131 C1133 1.400 . S
C1131 C1134 1.386 . S
C1132 C1128 1.429 . S
C1132 N1130 1.377 . S
C1132 C1135 1.411 . S
C1133 H1115 0.930 . S
C1133 N1130 1.321 . S
C1133 C1131 1.400 . S
C1134 H1129 0.930 . S
C1134 C1131 1.386 . S
C1134 C1135 1.395 . S
C1135 C1132 1.411 . S
C1135 C1134 1.395 . S
C1135 C1157 1.420 . S
O1136 Eu1092 2.558 . S
O1136 C1156 1.257 . S
O1137 Eu1092 2.612 . S
O1137 Eu1103 2.380 . S
O1137 C1148 1.276 . S
O1138 Eu1103 2.432 . S
O1138 C1155 1.264 . S
O1139 Eu1092 2.339 . S
O1139 C1155 1.254 . S
O1140 Eu1092 2.563 . S
O1140 C1148 1.235 . S
O1141 Eu1092 2.419 . S
O1141 C1156 1.249 . S
O1142 Eu1103 2.558 . S
O1142 C1167 1.257 . S
O1143 Eu1092 2.380 . S
O1143 Eu1103 2.612 . S
O1143 C1159 1.276 . S
O1144 Eu1092 2.432 . S
O1144 C1166 1.264 . S
O1145 Eu1103 2.339 . S
O1145 C1166 1.254 . S
O1146 Eu1103 2.563 . S
O1146 C1159 1.235 . S
O1147 Eu1103 2.419 . S
O1147 C1167 1.249 . S
C1148 O1137 1.276 . S
C1148 O1140 1.235 . S
C1149 C1151 1.393 . S
C1149 C1153 1.395 . S
C1149 C1156 1.492 . S
C1150 C1151 1.392 . S
C1150 C1152 1.386 . S
C1151 C1149 1.393 . S
C1151 C1150 1.392 . S
C1151 H1168 0.930 . S
C1152 C1150 1.386 . S
C1152 C1154 1.395 . S
C1152 H1169 0.930 . S
C1153 C1149 1.395 . S
C1153 C1154 1.379 . S
C1153 H1170 0.930 . S
C1154 C1152 1.395 . S
C1154 C1153 1.379 . S
C1154 H1171 0.930 . S
C1155 O1138 1.264 . S
C1155 O1139 1.254 . S
C1156 Eu1092 2.848 . S
C1156 O1136 1.257 . S
C1156 O1141 1.249 . S
C1156 C1149 1.492 . S
C1157 H1122 0.931 . S
C1157 C1135 1.420 . S
C1157 C1158 1.351 . S
C1158 H1120 0.930 . S
C1158 C1126 1.423 . S
C1158 C1157 1.351 . S
C1159 O1143 1.276 . S
C1159 O1146 1.235 . S
C1160 C1161 1.393 . S
C1160 C1164 1.395 . S
C1160 C1167 1.492 . S
C1161 C1160 1.393 . S
C1161 C1162 1.392 . S
C1161 H1172 0.930 . S
C1162 C1161 1.392 . S
C1162 C1163 1.386 . S
C1163 C1162 1.386 . S
C1163 C1165 1.395 . S
C1163 H1173 0.930 . S
C1164 C1160 1.395 . S
C1164 C1165 1.379 . S
C1164 H1174 0.930 . S
C1165 C1163 1.395 . S
C1165 C1164 1.379 . S
C1165 H1175 0.930 . S
C1166 O1144 1.264 . S
C1166 O1145 1.254 . S
C1167 Eu1103 2.848 . S
C1167 O1142 1.257 . S
C1167 O1147 1.249 . S
C1167 C1160 1.492 . S
H1168 C1151 0.930 . S
H1169 C1152 0.930 . S
H1170 C1153 0.930 . S
H1171 C1154 0.930 . S
H1172 C1161 0.930 . S
H1173 C1163 0.930 . S
H1174 C1164 0.930 . S
H1175 C1165 0.930 . S
Eu1176 N1207 2.657 . S
Eu1176 N1214 2.609 . S
Eu1176 O1220 2.558 . S
Eu1176 O1221 2.612 . S
Eu1176 O1223 2.339 . S
Eu1176 O1224 2.563 . S
Eu1176 O1225 2.419 . S
Eu1176 O1227 2.380 . S
Eu1176 O1228 2.432 . S
Eu1176 C1240 2.848 . S
C1177 C1180 1.429 . S
C1177 C1181 1.411 1_455 S
C1177 N1184 1.377 . S
C1178 C1180 1.420 1_655 S
C1178 C1182 1.423 . S
C1178 C1190 1.392 . S
C1179 C1181 1.420 . S
C1179 C1182 1.351 . S
C1179 H1202 0.931 . S
C1180 C1177 1.429 . S
C1180 C1178 1.420 1_455 S
C1180 N1188 1.362 . S
C1181 C1177 1.411 1_655 S
C1181 C1179 1.420 . S
C1181 C1186 1.390 . S
C1182 C1178 1.423 . S
C1182 C1179 1.351 . S
C1182 H1194 0.930 . S
C1183 C1185 1.400 . S
C1183 C1186 1.350 1_455 S
C1183 H1195 0.930 . S
N1184 C1177 1.377 . S
N1184 C1185 1.321 . S
N1184 Eu1187 2.609 . S
C1185 C1183 1.400 . S
C1185 N1184 1.321 . S
C1185 H1192 0.930 . S
C1186 C1181 1.390 . S
C1186 C1183 1.350 1_655 S
C1186 H1205 0.973 . S
Eu1187 N1184 2.609 . S
Eu1187 N1188 2.657 . S
Eu1187 O1221 2.380 . S
Eu1187 O1222 2.432 . S
Eu1187 O1226 2.558 . S
Eu1187 O1227 2.612 . S
Eu1187 O1229 2.339 . S
Eu1187 O1230 2.563 . S
Eu1187 O1231 2.419 . S
Eu1187 C1251 2.848 . S
N1188 C1180 1.362 . S
N1188 Eu1187 2.657 . S
N1188 C1189 1.334 . S
C1189 N1188 1.334 . S
C1189 C1191 1.413 . S
C1189 H1196 0.929 . S
C1190 C1178 1.392 . S
C1190 C1191 1.367 1_655 S
C1190 H1198 0.930 . S
C1191 C1189 1.413 . S
C1191 C1190 1.367 1_455 S
C1191 H1193 0.930 . S
H1192 C1185 0.930 . S
H1193 C1191 0.930 . S
H1194 C1182 0.930 . S
H1195 C1183 0.930 . S
H1196 C1189 0.929 . S
H1197 C1211 0.930 . S
H1198 C1190 0.930 . S
H1199 C1217 0.930 . S
H1200 C1208 0.929 . S
H1201 C1215 0.930 . S
H1202 C1179 0.931 . S
H1203 C1209 0.930 . S
H1204 C1242 0.930 . S
H1205 C1186 0.973 . S
H1206 C1241 0.931 . S
N1207 Eu1176 2.657 . S
N1207 C1208 1.334 . S
N1207 C1212 1.362 . S
C1208 H1200 0.929 . S
C1208 N1207 1.334 . S
C1208 C1211 1.413 . S
C1209 H1203 0.930 . S
C1209 C1210 1.392 . S
C1209 C1211 1.367 . S
C1210 C1209 1.392 . S
C1210 C1212 1.420 . S
C1210 C1242 1.423 . S
C1211 H1197 0.930 . S
C1211 C1208 1.413 . S
C1211 C1209 1.367 . S
C1212 N1207 1.362 . S
C1212 C1210 1.420 . S
C1212 C1216 1.429 . S
H1213 C1218 0.930 . S
N1214 Eu1176 2.609 . S
N1214 C1216 1.377 . S
N1214 C1217 1.321 . S
C1215 H1201 0.930 . S
C1215 C1217 1.400 . S
C1215 C1218 1.386 . S
C1216 C1212 1.429 . S
C1216 N1214 1.377 . S
C1216 C1219 1.411 . S
C1217 H1199 0.930 . S
C1217 N1214 1.321 . S
C1217 C1215 1.400 . S
C1218 H1213 0.930 . S
C1218 C1215 1.386 . S
C1218 C1219 1.395 . S
C1219 C1216 1.411 . S
C1219 C1218 1.395 . S
C1219 C1241 1.420 . S
O1220 Eu1176 2.558 . S
O1220 C1240 1.257 . S
O1221 Eu1176 2.612 . S
O1221 Eu1187 2.380 . S
O1221 C1232 1.276 . S
O1222 Eu1187 2.432 . S
O1222 C1239 1.264 . S
O1223 Eu1176 2.339 . S
O1223 C1239 1.254 . S
O1224 Eu1176 2.563 . S
O1224 C1232 1.235 . S
O1225 Eu1176 2.419 . S
O1225 C1240 1.249 . S
O1226 Eu1187 2.558 . S
O1226 C1251 1.257 . S
O1227 Eu1176 2.380 . S
O1227 Eu1187 2.612 . S
O1227 C1243 1.276 . S
O1228 Eu1176 2.432 . S
O1228 C1250 1.264 . S
O1229 Eu1187 2.339 . S
O1229 C1250 1.254 . S
O1230 Eu1187 2.563 . S
O1230 C1243 1.235 . S
O1231 Eu1187 2.419 . S
O1231 C1251 1.249 . S
C1232 O1221 1.276 . S
C1232 O1224 1.235 . S
C1233 C1235 1.393 . S
C1233 C1237 1.395 . S
C1233 C1240 1.492 . S
C1234 C1235 1.392 . S
C1234 C1236 1.386 . S
C1235 C1233 1.393 . S
C1235 C1234 1.392 . S
C1235 H1252 0.930 . S
C1236 C1234 1.386 . S
C1236 C1238 1.395 . S
C1236 H1253 0.930 . S
C1237 C1233 1.395 . S
C1237 C1238 1.379 . S
C1237 H1254 0.930 . S
C1238 C1236 1.395 . S
C1238 C1237 1.379 . S
C1238 H1255 0.930 . S
C1239 O1222 1.264 . S
C1239 O1223 1.254 . S
C1240 Eu1176 2.848 . S
C1240 O1220 1.257 . S
C1240 O1225 1.249 . S
C1240 C1233 1.492 . S
C1241 H1206 0.931 . S
C1241 C1219 1.420 . S
C1241 C1242 1.351 . S
C1242 H1204 0.930 . S
C1242 C1210 1.423 . S
C1242 C1241 1.351 . S
C1243 O1227 1.276 . S
C1243 O1230 1.235 . S
C1244 C1245 1.393 . S
C1244 C1248 1.395 . S
C1244 C1251 1.492 . S
C1245 C1244 1.393 . S
C1245 C1246 1.392 . S
C1245 H1256 0.930 . S
C1246 C1245 1.392 . S
C1246 C1247 1.386 . S
C1247 C1246 1.386 . S
C1247 C1249 1.395 . S
C1247 H1257 0.930 . S
C1248 C1244 1.395 . S
C1248 C1249 1.379 . S
C1248 H1258 0.930 . S
C1249 C1247 1.395 . S
C1249 C1248 1.379 . S
C1249 H1259 0.930 . S
C1250 O1228 1.264 . S
C1250 O1229 1.254 . S
C1251 Eu1187 2.848 . S
C1251 O1226 1.257 . S
C1251 O1231 1.249 . S
C1251 C1244 1.492 . S
H1252 C1235 0.930 . S
H1253 C1236 0.930 . S
H1254 C1237 0.930 . S
H1255 C1238 0.930 . S
H1256 C1245 0.930 . S
H1257 C1247 0.930 . S
H1258 C1248 0.930 . S
H1259 C1249 0.930 . S
Eu1260 N1291 2.657 . S
Eu1260 N1298 2.609 . S
Eu1260 O1304 2.558 . S
Eu1260 O1305 2.612 . S
Eu1260 O1307 2.339 . S
Eu1260 O1308 2.563 . S
Eu1260 O1309 2.419 . S
Eu1260 O1311 2.380 . S
Eu1260 O1312 2.432 . S
Eu1260 C1324 2.848 . S
C1261 C1264 1.429 . S
C1261 C1265 1.411 . S
C1261 N1268 1.377 . S
C1262 C1264 1.420 . S
C1262 C1266 1.423 . S
C1262 C1274 1.392 . S
C1263 C1265 1.420 . S
C1263 C1266 1.351 . S
C1263 H1286 0.931 . S
C1264 C1261 1.429 . S
C1264 C1262 1.420 . S
C1264 N1272 1.362 . S
C1265 C1261 1.411 . S
C1265 C1263 1.420 . S
C1265 C1270 1.395 . S
C1266 C1262 1.423 . S
C1266 C1263 1.351 . S
C1266 H1278 0.930 . S
C1267 C1269 1.400 . S
C1267 C1270 1.386 . S
C1267 H1279 0.930 . S
N1268 C1261 1.377 . S
N1268 C1269 1.321 . S
N1268 Eu1271 2.609 . S
C1269 C1267 1.400 . S
C1269 N1268 1.321 . S
C1269 H1276 0.930 . S
C1270 C1265 1.395 . S
C1270 C1267 1.386 . S
C1270 H1289 0.930 . S
Eu1271 N1268 2.609 . S
Eu1271 N1272 2.657 . S
Eu1271 O1305 2.380 . S
Eu1271 O1306 2.432 . S
Eu1271 O1310 2.558 . S
Eu1271 O1311 2.612 . S
Eu1271 O1313 2.339 . S
Eu1271 O1314 2.563 . S
Eu1271 O1315 2.419 . S
Eu1271 C1335 2.848 . S
N1272 C1264 1.362 . S
N1272 Eu1271 2.657 . S
N1272 C1273 1.334 . S
C1273 N1272 1.334 . S
C1273 C1275 1.413 . S
C1273 H1280 0.929 . S
C1274 C1262 1.392 . S
C1274 C1275 1.367 . S
C1274 H1282 0.930 . S
C1275 C1273 1.413 . S
C1275 C1274 1.367 . S
C1275 H1277 0.930 . S
H1276 C1269 0.930 . S
H1277 C1275 0.930 . S
H1278 C1266 0.930 . S
H1279 C1267 0.930 . S
H1280 C1273 0.929 . S
H1281 C1295 0.930 . S
H1282 C1274 0.930 . S
H1283 C1301 0.930 . S
H1284 C1292 0.929 . S
H1285 C1299 0.930 . S
H1286 C1263 0.931 . S
H1287 C1293 0.930 . S
H1288 C1326 0.930 . S
H1289 C1270 0.930 . S
H1290 C1325 0.931 . S
N1291 Eu1260 2.657 . S
N1291 C1292 1.334 . S
N1291 C1296 1.362 . S
C1292 H1284 0.929 . S
C1292 N1291 1.334 . S
C1292 C1295 1.413 . S
C1293 H1287 0.930 . S
C1293 C1294 1.392 . S
C1293 C1295 1.367 . S
C1294 C1293 1.392 . S
C1294 C1296 1.420 . S
C1294 C1326 1.423 . S
C1295 H1281 0.930 . S
C1295 C1292 1.413 . S
C1295 C1293 1.367 . S
C1296 N1291 1.362 . S
C1296 C1294 1.420 . S
C1296 C1300 1.429 . S
H1297 C1302 0.930 . S
N1298 Eu1260 2.609 . S
N1298 C1300 1.377 . S
N1298 C1301 1.321 . S
C1299 H1285 0.930 . S
C1299 C1301 1.400 . S
C1299 C1302 1.386 . S
C1300 C1296 1.429 . S
C1300 N1298 1.377 . S
C1300 C1303 1.411 . S
C1301 H1283 0.930 . S
C1301 N1298 1.321 . S
C1301 C1299 1.400 . S
C1302 H1297 0.930 . S
C1302 C1299 1.386 . S
C1302 C1303 1.395 . S
C1303 C1300 1.411 . S
C1303 C1302 1.395 . S
C1303 C1325 1.420 . S
O1304 Eu1260 2.558 . S
O1304 C1324 1.257 . S
O1305 Eu1260 2.612 . S
O1305 Eu1271 2.380 . S
O1305 C1316 1.276 . S
O1306 Eu1271 2.432 . S
O1306 C1323 1.264 . S
O1307 Eu1260 2.339 . S
O1307 C1323 1.254 . S
O1308 Eu1260 2.563 . S
O1308 C1316 1.235 . S
O1309 Eu1260 2.419 . S
O1309 C1324 1.249 . S
O1310 Eu1271 2.558 . S
O1310 C1335 1.257 . S
O1311 Eu1260 2.380 . S
O1311 Eu1271 2.612 . S
O1311 C1327 1.276 . S
O1312 Eu1260 2.432 . S
O1312 C1334 1.264 . S
O1313 Eu1271 2.339 . S
O1313 C1334 1.254 . S
O1314 Eu1271 2.563 . S
O1314 C1327 1.235 . S
O1315 Eu1271 2.419 . S
O1315 C1335 1.249 . S
C1316 O1305 1.276 . S
C1316 O1308 1.235 . S
C1317 C1319 1.393 . S
C1317 C1321 1.395 . S
C1317 C1324 1.492 . S
C1318 C1319 1.392 . S
C1318 C1320 1.386 . S
C1319 C1317 1.393 . S
C1319 C1318 1.392 . S
C1319 H1336 0.930 . S
C1320 C1318 1.386 . S
C1320 C1322 1.395 . S
C1320 H1337 0.930 . S
C1321 C1317 1.395 . S
C1321 C1322 1.379 . S
C1321 H1338 0.930 . S
C1322 C1320 1.395 . S
C1322 C1321 1.379 . S
C1322 H1339 0.930 . S
C1323 O1306 1.264 . S
C1323 O1307 1.254 . S
C1324 Eu1260 2.848 . S
C1324 O1304 1.257 . S
C1324 O1309 1.249 . S
C1324 C1317 1.492 . S
C1325 H1290 0.931 . S
C1325 C1303 1.420 . S
C1325 C1326 1.351 . S
C1326 H1288 0.930 . S
C1326 C1294 1.423 . S
C1326 C1325 1.351 . S
C1327 O1311 1.276 . S
C1327 O1314 1.235 . S
C1328 C1329 1.393 . S
C1328 C1332 1.395 . S
C1328 C1335 1.492 . S
C1329 C1328 1.393 . S
C1329 C1330 1.392 . S
C1329 H1340 0.930 . S
C1330 C1329 1.392 . S
C1330 C1331 1.386 . S
C1331 C1330 1.386 . S
C1331 C1333 1.395 . S
C1331 H1341 0.930 . S
C1332 C1328 1.395 . S
C1332 C1333 1.379 . S
C1332 H1342 0.930 . S
C1333 C1331 1.395 . S
C1333 C1332 1.379 . S
C1333 H1343 0.930 . S
C1334 O1312 1.264 . S
C1334 O1313 1.254 . S
C1335 Eu1271 2.848 . S
C1335 O1310 1.257 . S
C1335 O1315 1.249 . S
C1335 C1328 1.492 . S
H1336 C1319 0.930 . S
H1337 C1320 0.930 . S
H1338 C1321 0.930 . S
H1339 C1322 0.930 . S
H1340 C1329 0.930 . S
H1341 C1331 0.930 . S
H1342 C1332 0.930 . S
H1343 C1333 0.930 . S
Eu1344 N1375 2.657 . S
Eu1344 N1382 2.609 . S
Eu1344 O1388 2.558 . S
Eu1344 O1389 2.612 . S
Eu1344 O1391 2.339 . S
Eu1344 O1392 2.563 . S
Eu1344 O1393 2.419 . S
Eu1344 O1395 2.380 . S
Eu1344 O1396 2.432 . S
Eu1344 C1408 2.848 . S
C1345 C1348 1.429 . S
C1345 C1349 1.411 . S
C1345 N1352 1.377 . S
C1346 C1348 1.420 . S
C1346 C1350 1.423 . S
C1346 C1358 1.392 . S
C1347 C1349 1.420 . S
C1347 C1350 1.351 . S
C1347 H1370 0.931 . S
C1348 C1345 1.429 . S
C1348 C1346 1.420 . S
C1348 N1356 1.362 . S
C1349 C1345 1.411 . S
C1349 C1347 1.420 . S
C1349 C1354 1.395 . S
C1350 C1346 1.423 . S
C1350 C1347 1.351 . S
C1350 H1362 0.930 . S
C1351 C1353 1.400 . S
C1351 C1354 1.386 . S
C1351 H1363 0.930 . S
N1352 C1345 1.377 . S
N1352 C1353 1.321 . S
N1352 Eu1355 2.609 . S
C1353 C1351 1.400 . S
C1353 N1352 1.321 . S
C1353 H1360 0.930 . S
C1354 C1349 1.395 . S
C1354 C1351 1.386 . S
C1354 H1373 0.930 . S
Eu1355 N1352 2.609 . S
Eu1355 N1356 2.657 . S
Eu1355 O1389 2.380 . S
Eu1355 O1390 2.432 . S
Eu1355 O1394 2.558 . S
Eu1355 O1395 2.612 . S
Eu1355 O1397 2.339 . S
Eu1355 O1398 2.563 . S
Eu1355 O1399 2.419 . S
Eu1355 C1419 2.848 . S
N1356 C1348 1.362 . S
N1356 Eu1355 2.657 . S
N1356 C1357 1.334 . S
C1357 N1356 1.334 . S
C1357 C1359 1.413 . S
C1357 H1364 0.929 . S
C1358 C1346 1.392 . S
C1358 C1359 1.367 . S
C1358 H1366 0.930 . S
C1359 C1357 1.413 . S
C1359 C1358 1.367 . S
C1359 H1361 0.930 . S
H1360 C1353 0.930 . S
H1361 C1359 0.930 . S
H1362 C1350 0.930 . S
H1363 C1351 0.930 . S
H1364 C1357 0.929 . S
H1365 C1379 0.930 . S
H1366 C1358 0.930 . S
H1367 C1385 0.930 . S
H1368 C1376 0.929 . S
H1369 C1383 0.930 . S
H1370 C1347 0.931 . S
H1371 C1377 0.930 . S
H1372 C1410 0.930 . S
H1373 C1354 0.930 . S
H1374 C1409 0.931 . S
N1375 Eu1344 2.657 . S
N1375 C1376 1.334 . S
N1375 C1380 1.362 . S
C1376 H1368 0.929 . S
C1376 N1375 1.334 . S
C1376 C1379 1.413 . S
C1377 H1371 0.930 . S
C1377 C1378 1.392 . S
C1377 C1379 1.367 . S
C1378 C1377 1.392 . S
C1378 C1380 1.420 . S
C1378 C1410 1.423 . S
C1379 H1365 0.930 . S
C1379 C1376 1.413 . S
C1379 C1377 1.367 . S
C1380 N1375 1.362 . S
C1380 C1378 1.420 . S
C1380 C1384 1.429 . S
H1381 C1386 0.930 . S
N1382 Eu1344 2.609 . S
N1382 C1384 1.377 . S
N1382 C1385 1.321 . S
C1383 H1369 0.930 . S
C1383 C1385 1.400 . S
C1383 C1386 1.386 . S
C1384 C1380 1.429 . S
C1384 N1382 1.377 . S
C1384 C1387 1.411 . S
C1385 H1367 0.930 . S
C1385 N1382 1.321 . S
C1385 C1383 1.400 . S
C1386 H1381 0.930 . S
C1386 C1383 1.386 . S
C1386 C1387 1.395 . S
C1387 C1384 1.411 . S
C1387 C1386 1.395 . S
C1387 C1409 1.420 . S
O1388 Eu1344 2.558 . S
O1388 C1408 1.257 . S
O1389 Eu1344 2.612 . S
O1389 Eu1355 2.380 . S
O1389 C1400 1.276 . S
O1390 Eu1355 2.432 . S
O1390 C1407 1.264 . S
O1391 Eu1344 2.339 . S
O1391 C1407 1.254 . S
O1392 Eu1344 2.563 . S
O1392 C1400 1.235 . S
O1393 Eu1344 2.419 . S
O1393 C1408 1.249 . S
O1394 Eu1355 2.558 . S
O1394 C1419 1.257 . S
O1395 Eu1344 2.380 . S
O1395 Eu1355 2.612 . S
O1395 C1411 1.276 . S
O1396 Eu1344 2.432 . S
O1396 C1418 1.264 . S
O1397 Eu1355 2.339 . S
O1397 C1418 1.254 . S
O1398 Eu1355 2.563 . S
O1398 C1411 1.235 . S
O1399 Eu1355 2.419 . S
O1399 C1419 1.249 . S
C1400 O1389 1.276 . S
C1400 O1392 1.235 . S
C1401 C1403 1.393 . S
C1401 C1405 1.395 . S
C1401 C1408 1.492 . S
C1402 C1403 1.392 . S
C1402 C1404 1.386 . S
C1403 C1401 1.393 . S
C1403 C1402 1.392 . S
C1403 H1420 0.930 . S
C1404 C1402 1.386 . S
C1404 C1406 1.395 . S
C1404 H1421 0.930 . S
C1405 C1401 1.395 . S
C1405 C1406 1.379 . S
C1405 H1422 0.930 . S
C1406 C1404 1.395 . S
C1406 C1405 1.379 . S
C1406 H1423 0.930 . S
C1407 O1390 1.264 . S
C1407 O1391 1.254 . S
C1408 Eu1344 2.848 . S
C1408 O1388 1.257 . S
C1408 O1393 1.249 . S
C1408 C1401 1.492 . S
C1409 H1374 0.931 . S
C1409 C1387 1.420 . S
C1409 C1410 1.351 . S
C1410 H1372 0.930 . S
C1410 C1378 1.423 . S
C1410 C1409 1.351 . S
C1411 O1395 1.276 . S
C1411 O1398 1.235 . S
C1412 C1413 1.393 . S
C1412 C1416 1.395 . S
C1412 C1419 1.492 . S
C1413 C1412 1.393 . S
C1413 C1414 1.392 . S
C1413 H1424 0.930 . S
C1414 C1413 1.392 . S
C1414 C1415 1.386 . S
C1415 C1414 1.386 . S
C1415 C1417 1.395 . S
C1415 H1425 0.930 . S
C1416 C1412 1.395 . S
C1416 C1417 1.379 . S
C1416 H1426 0.930 . S
C1417 C1415 1.395 . S
C1417 C1416 1.379 . S
C1417 H1427 0.930 . S
C1418 O1396 1.264 . S
C1418 O1397 1.254 . S
C1419 Eu1355 2.848 . S
C1419 O1394 1.257 . S
C1419 O1399 1.249 . S
C1419 C1412 1.492 . S
H1420 C1403 0.930 . S
H1421 C1404 0.930 . S
H1422 C1405 0.930 . S
H1423 C1406 0.930 . S
H1424 C1413 0.930 . S
H1425 C1415 0.930 . S
H1426 C1416 0.930 . S
H1427 C1417 0.930 . S
Eu1428 N1459 2.657 . S
Eu1428 N1466 2.609 . S
Eu1428 O1472 2.558 . S
Eu1428 O1473 2.612 . S
Eu1428 O1475 2.339 . S
Eu1428 O1476 2.563 . S
Eu1428 O1477 2.419 . S
Eu1428 O1479 2.380 . S
Eu1428 O1480 2.432 . S
Eu1428 C1492 2.848 . S
C1429 C1432 1.429 . S
C1429 C1433 1.411 . S
C1429 N1436 1.377 . S
C1430 C1432 1.420 . S
C1430 C1434 1.423 . S
C1430 C1442 1.392 . S
C1431 C1433 1.420 . S
C1431 C1434 1.351 . S
C1431 H1454 0.931 . S
C1432 C1429 1.429 . S
C1432 C1430 1.420 . S
C1432 N1440 1.362 . S
C1433 C1429 1.411 . S
C1433 C1431 1.420 . S
C1433 C1438 1.395 . S
C1434 C1430 1.423 . S
C1434 C1431 1.351 . S
C1434 H1446 0.930 . S
C1435 C1437 1.400 . S
C1435 C1438 1.386 . S
C1435 H1447 0.930 . S
N1436 C1429 1.377 . S
N1436 C1437 1.321 . S
N1436 Eu1439 2.609 . S
C1437 C1435 1.400 . S
C1437 N1436 1.321 . S
C1437 H1444 0.930 . S
C1438 C1433 1.395 . S
C1438 C1435 1.386 . S
C1438 H1457 0.930 . S
Eu1439 N1436 2.609 . S
Eu1439 N1440 2.657 . S
Eu1439 O1473 2.380 . S
Eu1439 O1474 2.432 . S
Eu1439 O1478 2.558 . S
Eu1439 O1479 2.612 . S
Eu1439 O1481 2.339 . S
Eu1439 O1482 2.563 . S
Eu1439 O1483 2.419 . S
Eu1439 C1503 2.848 . S
N1440 C1432 1.362 . S
N1440 Eu1439 2.657 . S
N1440 C1441 1.334 . S
C1441 N1440 1.334 . S
C1441 C1443 1.413 . S
C1441 H1448 0.929 . S
C1442 C1430 1.392 . S
C1442 C1443 1.367 . S
C1442 H1450 0.930 . S
C1443 C1441 1.413 . S
C1443 C1442 1.367 . S
C1443 H1445 0.930 . S
H1444 C1437 0.930 . S
H1445 C1443 0.930 . S
H1446 C1434 0.930 . S
H1447 C1435 0.930 . S
H1448 C1441 0.929 . S
H1449 C1463 0.930 . S
H1450 C1442 0.930 . S
H1451 C1469 0.930 . S
H1452 C1460 0.929 . S
H1453 C1467 0.930 . S
H1454 C1431 0.931 . S
H1455 C1461 0.930 . S
H1456 C1494 0.930 . S
H1457 C1438 0.930 . S
H1458 C1493 0.931 . S
N1459 Eu1428 2.657 . S
N1459 C1460 1.334 . S
N1459 C1464 1.362 . S
C1460 H1452 0.929 . S
C1460 N1459 1.334 . S
C1460 C1463 1.413 . S
C1461 H1455 0.930 . S
C1461 C1462 1.392 . S
C1461 C1463 1.367 . S
C1462 C1461 1.392 . S
C1462 C1464 1.420 . S
C1462 C1494 1.423 . S
C1463 H1449 0.930 . S
C1463 C1460 1.413 . S
C1463 C1461 1.367 . S
C1464 N1459 1.362 . S
C1464 C1462 1.420 . S
C1464 C1468 1.429 . S
H1465 C1470 0.930 . S
N1466 Eu1428 2.609 . S
N1466 C1468 1.377 . S
N1466 C1469 1.321 . S
C1467 H1453 0.930 . S
C1467 C1469 1.400 . S
C1467 C1470 1.386 . S
C1468 C1464 1.429 . S
C1468 N1466 1.377 . S
C1468 C1471 1.411 . S
C1469 H1451 0.930 . S
C1469 N1466 1.321 . S
C1469 C1467 1.400 . S
C1470 H1465 0.930 . S
C1470 C1467 1.386 . S
C1470 C1471 1.395 . S
C1471 C1468 1.411 . S
C1471 C1470 1.395 . S
C1471 C1493 1.420 . S
O1472 Eu1428 2.558 . S
O1472 C1492 1.257 . S
O1473 Eu1428 2.612 . S
O1473 Eu1439 2.380 . S
O1473 C1484 1.276 . S
O1474 Eu1439 2.432 . S
O1474 C1491 1.264 . S
O1475 Eu1428 2.339 . S
O1475 C1491 1.254 . S
O1476 Eu1428 2.563 . S
O1476 C1484 1.235 . S
O1477 Eu1428 2.419 . S
O1477 C1492 1.249 . S
O1478 Eu1439 2.558 . S
O1478 C1503 1.257 . S
O1479 Eu1428 2.380 . S
O1479 Eu1439 2.612 . S
O1479 C1495 1.276 . S
O1480 Eu1428 2.432 . S
O1480 C1502 1.264 . S
O1481 Eu1439 2.339 . S
O1481 C1502 1.254 . S
O1482 Eu1439 2.563 . S
O1482 C1495 1.235 . S
O1483 Eu1439 2.419 . S
O1483 C1503 1.249 . S
C1484 O1473 1.276 . S
C1484 O1476 1.235 . S
C1485 C1487 1.393 . S
C1485 C1489 1.395 . S
C1485 C1492 1.492 . S
C1486 C1487 1.392 . S
C1486 C1488 1.386 . S
C1487 C1485 1.393 . S
C1487 C1486 1.392 . S
C1487 H1504 0.930 . S
C1488 C1486 1.386 . S
C1488 C1490 1.395 . S
C1488 H1505 0.930 . S
C1489 C1485 1.395 . S
C1489 C1490 1.379 . S
C1489 H1506 0.930 . S
C1490 C1488 1.395 . S
C1490 C1489 1.379 . S
C1490 H1507 0.930 . S
C1491 O1474 1.264 . S
C1491 O1475 1.254 . S
C1492 Eu1428 2.848 . S
C1492 O1472 1.257 . S
C1492 O1477 1.249 . S
C1492 C1485 1.492 . S
C1493 H1458 0.931 . S
C1493 C1471 1.420 . S
C1493 C1494 1.351 . S
C1494 H1456 0.930 . S
C1494 C1462 1.423 . S
C1494 C1493 1.351 . S
C1495 O1479 1.276 . S
C1495 O1482 1.235 . S
C1496 C1497 1.393 . S
C1496 C1500 1.395 . S
C1496 C1503 1.492 . S
C1497 C1496 1.393 . S
C1497 C1498 1.392 . S
C1497 H1508 0.930 . S
C1498 C1497 1.392 . S
C1498 C1499 1.386 . S
C1499 C1498 1.386 . S
C1499 C1501 1.395 . S
C1499 H1509 0.930 . S
C1500 C1496 1.395 . S
C1500 C1501 1.379 . S
C1500 H1510 0.930 . S
C1501 C1499 1.395 . S
C1501 C1500 1.379 . S
C1501 H1511 0.930 . S
C1502 O1480 1.264 . S
C1502 O1481 1.254 . S
C1503 Eu1439 2.848 . S
C1503 O1478 1.257 . S
C1503 O1483 1.249 . S
C1503 C1496 1.492 . S
H1504 C1487 0.930 . S
H1505 C1488 0.930 . S
H1506 C1489 0.930 . S
H1507 C1490 0.930 . S
H1508 C1497 0.930 . S
H1509 C1499 0.930 . S
H1510 C1500 0.930 . S
H1511 C1501 0.930 . S
Eu1512 N1543 2.657 . S
Eu1512 N1550 2.609 . S
Eu1512 O1556 2.558 . S
Eu1512 O1557 2.612 . S
Eu1512 O1559 2.339 . S
Eu1512 O1560 2.563 . S
Eu1512 O1561 2.419 . S
Eu1512 O1563 2.380 . S
Eu1512 O1564 2.432 . S
Eu1512 C1576 2.848 . S
C1513 C1516 1.429 . S
C1513 C1517 1.411 . S
C1513 N1520 1.377 . S
C1514 C1516 1.420 . S
C1514 C1518 1.423 . S
C1514 C1526 1.392 . S
C1515 C1517 1.420 . S
C1515 C1518 1.351 . S
C1515 H1538 0.931 . S
C1516 C1513 1.429 . S
C1516 C1514 1.420 . S
C1516 N1524 1.362 . S
C1517 C1513 1.411 . S
C1517 C1515 1.420 . S
C1517 C1522 1.395 . S
C1518 C1514 1.423 . S
C1518 C1515 1.351 . S
C1518 H1530 0.930 . S
C1519 C1521 1.400 . S
C1519 C1522 1.386 . S
C1519 H1531 0.930 . S
N1520 C1513 1.377 . S
N1520 C1521 1.321 . S
N1520 Eu1523 2.609 . S
C1521 C1519 1.400 . S
C1521 N1520 1.321 . S
C1521 H1528 0.930 . S
C1522 C1517 1.395 . S
C1522 C1519 1.386 . S
C1522 H1541 0.930 . S
Eu1523 N1520 2.609 . S
Eu1523 N1524 2.657 . S
Eu1523 O1557 2.380 . S
Eu1523 O1558 2.432 . S
Eu1523 O1562 2.558 . S
Eu1523 O1563 2.612 . S
Eu1523 O1565 2.339 . S
Eu1523 O1566 2.563 . S
Eu1523 O1567 2.419 . S
Eu1523 C1587 2.848 . S
N1524 C1516 1.362 . S
N1524 Eu1523 2.657 . S
N1524 C1525 1.334 . S
C1525 N1524 1.334 . S
C1525 C1527 1.413 . S
C1525 H1532 0.929 . S
C1526 C1514 1.392 . S
C1526 C1527 1.367 . S
C1526 H1534 0.930 . S
C1527 C1525 1.413 . S
C1527 C1526 1.367 . S
C1527 H1529 0.930 . S
H1528 C1521 0.930 . S
H1529 C1527 0.930 . S
H1530 C1518 0.930 . S
H1531 C1519 0.930 . S
H1532 C1525 0.929 . S
H1533 C1547 0.930 . S
H1534 C1526 0.930 . S
H1535 C1553 0.930 . S
H1536 C1544 0.929 . S
H1537 C1551 0.930 . S
H1538 C1515 0.931 . S
H1539 C1545 0.930 . S
H1540 C1578 0.930 . S
H1541 C1522 0.930 . S
H1542 C1577 0.931 . S
N1543 Eu1512 2.657 . S
N1543 C1544 1.334 . S
N1543 C1548 1.362 . S
C1544 H1536 0.929 . S
C1544 N1543 1.334 . S
C1544 C1547 1.413 . S
C1545 H1539 0.930 . S
C1545 C1546 1.392 . S
C1545 C1547 1.367 . S
C1546 C1545 1.392 . S
C1546 C1548 1.420 . S
C1546 C1578 1.423 . S
C1547 H1533 0.930 . S
C1547 C1544 1.413 . S
C1547 C1545 1.367 . S
C1548 N1543 1.362 . S
C1548 C1546 1.420 . S
C1548 C1552 1.429 . S
H1549 C1554 0.930 . S
N1550 Eu1512 2.609 . S
N1550 C1552 1.377 . S
N1550 C1553 1.321 . S
C1551 H1537 0.930 . S
C1551 C1553 1.400 . S
C1551 C1554 1.386 . S
C1552 C1548 1.429 . S
C1552 N1550 1.377 . S
C1552 C1555 1.411 . S
C1553 H1535 0.930 . S
C1553 N1550 1.321 . S
C1553 C1551 1.400 . S
C1554 H1549 0.930 . S
C1554 C1551 1.386 . S
C1554 C1555 1.395 . S
C1555 C1552 1.411 . S
C1555 C1554 1.395 . S
C1555 C1577 1.420 . S
O1556 Eu1512 2.558 . S
O1556 C1576 1.257 . S
O1557 Eu1512 2.612 . S
O1557 Eu1523 2.380 . S
O1557 C1568 1.276 . S
O1558 Eu1523 2.432 . S
O1558 C1575 1.264 . S
O1559 Eu1512 2.339 . S
O1559 C1575 1.254 . S
O1560 Eu1512 2.563 . S
O1560 C1568 1.235 . S
O1561 Eu1512 2.419 . S
O1561 C1576 1.249 . S
O1562 Eu1523 2.558 . S
O1562 C1587 1.257 . S
O1563 Eu1512 2.380 . S
O1563 Eu1523 2.612 . S
O1563 C1579 1.276 . S
O1564 Eu1512 2.432 . S
O1564 C1586 1.264 . S
O1565 Eu1523 2.339 . S
O1565 C1586 1.254 . S
O1566 Eu1523 2.563 . S
O1566 C1579 1.235 . S
O1567 Eu1523 2.419 . S
O1567 C1587 1.249 . S
C1568 O1557 1.276 . S
C1568 O1560 1.235 . S
C1569 C1571 1.393 . S
C1569 C1573 1.395 . S
C1569 C1576 1.492 . S
C1570 C1571 1.392 . S
C1570 C1572 1.386 . S
C1571 C1569 1.393 . S
C1571 C1570 1.392 . S
C1571 H1588 0.930 . S
C1572 C1570 1.386 . S
C1572 C1574 1.395 . S
C1572 H1589 0.930 . S
C1573 C1569 1.395 . S
C1573 C1574 1.379 . S
C1573 H1590 0.930 . S
C1574 C1572 1.395 . S
C1574 C1573 1.379 . S
C1574 H1591 0.930 . S
C1575 O1558 1.264 . S
C1575 O1559 1.254 . S
C1576 Eu1512 2.848 . S
C1576 O1556 1.257 . S
C1576 O1561 1.249 . S
C1576 C1569 1.492 . S
C1577 H1542 0.931 . S
C1577 C1555 1.420 . S
C1577 C1578 1.351 . S
C1578 H1540 0.930 . S
C1578 C1546 1.423 . S
C1578 C1577 1.351 . S
C1579 O1563 1.276 . S
C1579 O1566 1.235 . S
C1580 C1581 1.393 . S
C1580 C1584 1.395 . S
C1580 C1587 1.492 . S
C1581 C1580 1.393 . S
C1581 C1582 1.392 . S
C1581 H1592 0.930 . S
C1582 C1581 1.392 . S
C1582 C1583 1.386 . S
C1583 C1582 1.386 . S
C1583 C1585 1.395 . S
C1583 H1593 0.930 . S
C1584 C1580 1.395 . S
C1584 C1585 1.379 . S
C1584 H1594 0.930 . S
C1585 C1583 1.395 . S
C1585 C1584 1.379 . S
C1585 H1595 0.930 . S
C1586 O1564 1.264 . S
C1586 O1565 1.254 . S
C1587 Eu1523 2.848 . S
C1587 O1562 1.257 . S
C1587 O1567 1.249 . S
C1587 C1580 1.492 . S
H1588 C1571 0.930 . S
H1589 C1572 0.930 . S
H1590 C1573 0.930 . S
H1591 C1574 0.930 . S
H1592 C1581 0.930 . S
H1593 C1583 0.930 . S
H1594 C1584 0.930 . S
H1595 C1585 0.930 . S
Eu1596 N1627 2.657 . S
Eu1596 N1634 2.609 . S
Eu1596 O1640 2.558 . S
Eu1596 O1641 2.612 . S
Eu1596 O1643 2.339 . S
Eu1596 O1644 2.563 . S
Eu1596 O1645 2.419 . S
Eu1596 O1647 2.380 . S
Eu1596 O1648 2.432 . S
Eu1596 C1660 2.848 . S
C1597 C1600 1.429 1_455 S
C1597 C1601 1.411 1_455 S
C1597 N1604 1.377 . S
C1598 C1600 1.420 . S
C1598 C1602 1.423 . S
C1598 C1610 1.392 . S
C1599 C1601 1.420 . S
C1599 C1602 1.351 . S
C1599 H1622 0.931 . S
C1600 C1597 1.429 1_655 S
C1600 C1598 1.420 . S
C1600 N1608 1.362 1_655 S
C1601 C1597 1.411 1_655 S
C1601 C1599 1.420 . S
C1601 C1606 1.395 . S
C1602 C1598 1.423 . S
C1602 C1599 1.351 . S
C1602 H1614 0.930 . S
C1603 C1605 1.400 . S
C1603 C1606 1.386 1_455 S
C1603 H1615 0.930 . S
N1604 C1597 1.377 . S
N1604 C1605 1.321 . S
N1604 Eu1607 2.609 . S
C1605 C1603 1.400 . S
C1605 N1604 1.321 . S
C1605 H1612 0.930 . S
C1606 C1601 1.395 . S
C1606 C1603 1.386 1_655 S
C1606 H1625 0.930 . S
Eu1607 N1604 2.609 . S
Eu1607 N1608 2.657 . S
Eu1607 O1641 2.380 . S
Eu1607 O1642 2.432 . S
Eu1607 O1646 2.558 . S
Eu1607 O1647 2.612 . S
Eu1607 O1649 2.339 . S
Eu1607 O1650 2.563 . S
Eu1607 O1651 2.419 . S
Eu1607 C1671 2.848 1_455 S
N1608 C1600 1.362 1_455 S
N1608 Eu1607 2.657 . S
N1608 C1609 1.334 . S
C1609 N1608 1.334 . S
C1609 C1611 1.413 1_455 S
C1609 H1616 0.929 . S
C1610 C1598 1.392 . S
C1610 C1611 1.367 . S
C1610 H1618 0.930 . S
C1611 C1609 1.413 1_655 S
C1611 C1610 1.367 . S
C1611 H1613 0.930 1_554 S
H1612 C1605 0.930 . S
H1613 C1611 0.930 1_556 S
H1614 C1602 0.930 . S
H1615 C1603 0.930 . S
H1616 C1609 0.929 . S
H1617 C1631 0.930 . S
H1618 C1610 0.930 . S
H1619 C1637 0.930 . S
H1620 C1628 0.929 . S
H1621 C1635 0.930 . S
H1622 C1599 0.931 . S
H1623 C1629 0.930 . S
H1624 C1662 0.930 . S
H1625 C1606 0.930 . S
H1626 C1661 0.931 . S
N1627 Eu1596 2.657 . S
N1627 C1628 1.334 . S
N1627 C1632 1.362 . S
C1628 H1620 0.929 . S
C1628 N1627 1.334 . S
C1628 C1631 1.413 . S
C1629 H1623 0.930 . S
C1629 C1630 1.392 . S
C1629 C1631 1.367 . S
C1630 C1629 1.392 . S
C1630 C1632 1.420 . S
C1630 C1662 1.423 . S
C1631 H1617 0.930 . S
C1631 C1628 1.413 . S
C1631 C1629 1.367 . S
C1632 N1627 1.362 . S
C1632 C1630 1.420 . S
C1632 C1636 1.429 . S
H1633 C1638 0.930 . S
N1634 Eu1596 2.609 . S
N1634 C1636 1.377 . S
N1634 C1637 1.321 1_554 S
C1635 H1621 0.930 . S
C1635 C1637 1.400 . S
C1635 C1638 1.386 . S
C1636 C1632 1.429 . S
C1636 N1634 1.377 . S
C1636 C1639 1.411 . S
C1637 H1619 0.930 . S
C1637 N1634 1.321 1_556 S
C1637 C1635 1.400 . S
C1638 H1633 0.930 . S
C1638 C1635 1.386 . S
C1638 C1639 1.395 1_556 S
C1639 C1636 1.411 . S
C1639 C1638 1.395 1_554 S
C1639 C1661 1.420 . S
O1640 Eu1596 2.558 . S
O1640 C1660 1.257 . S
O1641 Eu1596 2.612 . S
O1641 Eu1607 2.380 . S
O1641 C1652 1.276 . S
O1642 Eu1607 2.432 . S
O1642 C1659 1.264 . S
O1643 Eu1596 2.339 . S
O1643 C1659 1.254 . S
O1644 Eu1596 2.563 . S
O1644 C1652 1.235 . S
O1645 Eu1596 2.419 . S
O1645 C1660 1.249 . S
O1646 Eu1607 2.558 . S
O1646 C1671 1.257 1_455 S
O1647 Eu1596 2.380 . S
O1647 Eu1607 2.612 . S
O1647 C1663 1.276 . S
O1648 Eu1596 2.432 . S
O1648 C1670 1.264 . S
O1649 Eu1607 2.339 . S
O1649 C1670 1.254 . S
O1650 Eu1607 2.563 . S
O1650 C1663 1.235 . S
O1651 Eu1607 2.419 . S
O1651 C1671 1.249 1_455 S
C1652 O1641 1.276 . S
C1652 O1644 1.235 . S
C1653 C1655 1.393 . S
C1653 C1657 1.395 1_554 S
C1653 C1660 1.492 . S
C1654 C1655 1.392 . S
C1654 C1656 1.386 . S
C1655 C1653 1.393 . S
C1655 C1654 1.392 . S
C1655 H1672 0.930 . S
C1656 C1654 1.386 . S
C1656 C1658 1.395 1_554 S
C1656 H1673 0.930 . S
C1657 C1653 1.395 1_556 S
C1657 C1658 1.379 . S
C1657 H1674 0.930 . S
C1658 C1656 1.395 1_556 S
C1658 C1657 1.379 . S
C1658 H1675 0.930 . S
C1659 O1642 1.264 . S
C1659 O1643 1.254 . S
C1660 Eu1596 2.848 . S
C1660 O1640 1.257 . S
C1660 O1645 1.249 . S
C1660 C1653 1.492 . S
C1661 H1626 0.931 . S
C1661 C1639 1.420 . S
C1661 C1662 1.351 . S
C1662 H1624 0.930 . S
C1662 C1630 1.423 . S
C1662 C1661 1.351 . S
C1663 O1647 1.276 . S
C1663 O1650 1.235 . S
C1664 C1665 1.393 . S
C1664 C1668 1.395 . S
C1664 C1671 1.492 . S
C1665 C1664 1.393 . S
C1665 C1666 1.392 . S
C1665 H1676 0.930 . S
C1666 C1665 1.392 . S
C1666 C1667 1.386 . S
C1667 C1666 1.386 . S
C1667 C1669 1.395 . S
C1667 H1677 0.930 . S
C1668 C1664 1.395 . S
C1668 C1669 1.379 . S
C1668 H1678 0.930 . S
C1669 C1667 1.395 . S
C1669 C1668 1.379 . S
C1669 H1679 0.930 . S
C1670 O1648 1.264 . S
C1670 O1649 1.254 . S
C1671 Eu1607 2.848 1_655 S
C1671 O1646 1.257 1_655 S
C1671 O1651 1.249 1_655 S
C1671 C1664 1.492 . S
H1672 C1655 0.930 . S
H1673 C1656 0.930 . S
H1674 C1657 0.930 . S
H1675 C1658 0.930 . S
H1676 C1665 0.930 . S
H1677 C1667 0.930 . S
H1678 C1668 0.930 . S
H1679 C1669 0.930 . S
H1680 C1688 0.929 . S
H1681 C1690 0.930 . S
H1682 C1692 0.930 . S
H1683 C1695 0.929 . S
H1684 C1698 0.930 . S
H1685 C1700 0.960 . S
H1686 C1700 0.960 . S
H1687 C1700 0.960 . S
C1688 H1680 0.929 . S
C1688 C1689 1.377 . S
C1688 C1690 1.384 . S
C1689 C1688 1.377 . S
C1689 C1695 1.390 . S
C1690 H1681 0.930 . S
C1690 C1688 1.384 . S
C1690 C1691 1.372 . S
C1691 C1690 1.372 . S
C1691 C1692 1.400 . S
C1691 C1696 1.490 . S
C1692 H1682 0.930 . S
C1692 C1691 1.400 . S
C1692 C1695 1.386 . S
H1693 C1709 0.930 . S
H1694 C1710 0.931 . S
C1695 H1683 0.929 . S
C1695 C1689 1.390 . S
C1695 C1692 1.386 . S
C1696 C1691 1.490 . S
C1696 C1698 1.395 . S
C1696 C1699 1.403 . S
H1697 C1703 0.930 . S
C1698 H1684 0.930 . S
C1698 C1696 1.395 . S
C1698 C1701 1.403 . S
C1699 C1696 1.403 . S
C1699 C1700 1.524 . S
C1699 C1703 1.400 . S
C1700 H1685 0.960 . S
C1700 H1686 0.960 . S
C1700 H1687 0.960 . S
C1700 C1699 1.524 . S
C1701 C1698 1.403 . S
C1701 C1702 1.392 . S
C1701 C1705 1.495 1_556 S
C1702 C1701 1.392 . S
C1702 C1703 1.385 . S
C1702 C1704 1.508 . S
C1703 H1697 0.930 . S
C1703 C1699 1.400 . S
C1703 C1702 1.385 . S
C1704 C1702 1.508 . S
C1704 C1706 1.332 1_556 S
C1704 C1710 1.404 . S
C1705 C1701 1.495 1_554 S
C1705 H1711 0.959 . S
C1705 H1712 0.961 . S
C1705 H1713 0.960 . S
C1706 C1704 1.332 1_554 S
C1706 C1707 1.394 . S
C1706 H1714 0.930 . S
C1707 C1706 1.394 . S
C1707 C1708 1.383 . S
C1707 H1715 0.929 . S
C1708 C1707 1.383 . S
C1708 C1709 1.377 1_554 S
C1709 H1693 0.930 . S
C1709 C1708 1.377 1_556 S
C1709 C1710 1.379 . S
C1710 H1694 0.931 . S
C1710 C1704 1.404 . S
C1710 C1709 1.379 . S
H1711 C1705 0.959 . S
H1712 C1705 0.961 . S
H1713 C1705 0.960 . S
H1714 C1706 0.930 . S
H1715 C1707 0.929 . S
H1716 C1724 0.929 . S
H1717 C1726 0.930 . S
H1718 C1728 0.930 . S
H1719 C1731 0.929 . S
H1720 C1734 0.930 . S
H1721 C1736 0.960 . S
H1722 C1736 0.960 . S
H1723 C1736 0.960 . S
C1724 H1716 0.929 . S
C1724 C1725 1.377 . S
C1724 C1726 1.384 . S
C1725 C1724 1.377 . S
C1725 C1731 1.390 . S
C1726 H1717 0.930 . S
C1726 C1724 1.384 . S
C1726 C1727 1.372 . S
C1727 C1726 1.372 . S
C1727 C1728 1.400 . S
C1727 C1732 1.490 . S
C1728 H1718 0.930 . S
C1728 C1727 1.400 . S
C1728 C1731 1.386 . S
H1729 C1745 0.930 . S
H1730 C1746 0.931 . S
C1731 H1719 0.929 . S
C1731 C1725 1.390 . S
C1731 C1728 1.386 . S
C1732 C1727 1.490 . S
C1732 C1734 1.395 . S
C1732 C1735 1.403 . S
H1733 C1739 0.930 . S
C1734 H1720 0.930 . S
C1734 C1732 1.395 . S
C1734 C1737 1.403 . S
C1735 C1732 1.403 . S
C1735 C1736 1.524 . S
C1735 C1739 1.400 . S
C1736 H1721 0.960 . S
C1736 H1722 0.960 . S
C1736 H1723 0.960 . S
C1736 C1735 1.524 . S
C1737 C1734 1.403 . S
C1737 C1738 1.392 . S
C1737 C1741 1.495 . S
C1738 C1737 1.392 . S
C1738 C1739 1.385 . S
C1738 C1740 1.478 . S
C1739 H1733 0.930 . S
C1739 C1735 1.400 . S
C1739 C1738 1.385 . S
C1740 C1738 1.478 . S
C1740 C1742 1.381 . S
C1740 C1746 1.383 . S
C1741 C1737 1.495 . S
C1741 H1747 0.959 . S
C1741 H1748 0.961 . S
C1741 H1749 0.960 . S
C1742 C1740 1.381 . S
C1742 C1743 1.394 . S
C1742 H1750 0.930 . S
C1743 C1742 1.394 . S
C1743 C1744 1.383 . S
C1743 H1751 0.929 . S
C1744 C1743 1.383 . S
C1744 C1745 1.377 . S
C1745 H1729 0.930 . S
C1745 C1744 1.377 . S
C1745 C1746 1.379 . S
C1746 H1730 0.931 . S
C1746 C1740 1.383 . S
C1746 C1745 1.379 . S
H1747 C1741 0.959 . S
H1748 C1741 0.961 . S
H1749 C1741 0.960 . S
H1750 C1742 0.930 . S
H1751 C1743 0.929 . S
H1752 C1760 0.929 . S
H1753 C1762 0.930 . S
H1754 C1764 0.930 . S
H1755 C1767 0.929 . S
H1756 C1770 0.930 . S
H1757 C1772 0.960 . S
H1758 C1772 0.960 . S
H1759 C1772 0.960 . S
C1760 H1752 0.929 . S
C1760 C1761 1.377 . S
C1760 C1762 1.384 . S
C1761 C1760 1.377 . S
C1761 C1767 1.390 . S
C1762 H1753 0.930 . S
C1762 C1760 1.384 . S
C1762 C1763 1.372 . S
C1763 C1762 1.372 . S
C1763 C1764 1.400 . S
C1763 C1768 1.490 . S
C1764 H1754 0.930 . S
C1764 C1763 1.400 . S
C1764 C1767 1.386 . S
H1765 C1781 0.930 . S
H1766 C1782 0.931 . S
C1767 H1755 0.929 . S
C1767 C1761 1.390 . S
C1767 C1764 1.386 . S
C1768 C1763 1.490 . S
C1768 C1770 1.395 . S
C1768 C1771 1.403 . S
H1769 C1775 0.930 . S
C1770 H1756 0.930 . S
C1770 C1768 1.395 . S
C1770 C1773 1.403 . S
C1771 C1768 1.403 . S
C1771 C1772 1.524 . S
C1771 C1775 1.400 . S
C1772 H1757 0.960 . S
C1772 H1758 0.960 . S
C1772 H1759 0.960 . S
C1772 C1771 1.524 . S
C1773 C1770 1.403 . S
C1773 C1774 1.392 . S
C1773 C1777 1.495 . S
C1774 C1773 1.392 . S
C1774 C1775 1.385 . S
C1774 C1776 1.478 . S
C1775 H1769 0.930 . S
C1775 C1771 1.400 . S
C1775 C1774 1.385 . S
C1776 C1774 1.478 . S
C1776 C1778 1.381 . S
C1776 C1782 1.383 . S
C1777 C1773 1.495 . S
C1777 H1783 0.959 . S
C1777 H1784 0.961 . S
C1777 H1785 0.960 . S
C1778 C1776 1.381 . S
C1778 C1779 1.394 . S
C1778 H1786 0.930 . S
C1779 C1778 1.394 . S
C1779 C1780 1.383 . S
C1779 H1787 0.929 . S
C1780 C1779 1.383 . S
C1780 C1781 1.377 . S
C1781 H1765 0.930 . S
C1781 C1780 1.377 . S
C1781 C1782 1.379 . S
C1782 H1766 0.931 . S
C1782 C1776 1.383 . S
C1782 C1781 1.379 . S
H1783 C1777 0.959 . S
H1784 C1777 0.961 . S
H1785 C1777 0.960 . S
H1786 C1778 0.930 . S
H1787 C1779 0.929 . S
H1788 C1796 0.929 . S
H1789 C1798 0.930 . S
H1790 C1800 0.930 . S
H1791 C1803 0.929 . S
H1792 C1806 0.930 . S
H1793 C1808 0.960 . S
H1794 C1808 0.960 . S
H1795 C1808 0.960 . S
C1796 H1788 0.929 . S
C1796 C1797 1.377 . S
C1796 C1798 1.384 . S
C1797 C1796 1.377 . S
C1797 C1803 1.390 . S
C1798 H1789 0.930 . S
C1798 C1796 1.384 . S
C1798 C1799 1.372 . S
C1799 C1798 1.372 . S
C1799 C1800 1.400 . S
C1799 C1804 1.490 . S
C1800 H1790 0.930 . S
C1800 C1799 1.400 . S
C1800 C1803 1.386 . S
H1801 C1817 0.930 . S
H1802 C1818 0.931 . S
C1803 H1791 0.929 . S
C1803 C1797 1.390 . S
C1803 C1800 1.386 . S
C1804 C1799 1.490 . S
C1804 C1806 1.395 . S
C1804 C1807 1.403 . S
H1805 C1811 0.930 . S
C1806 H1792 0.930 . S
C1806 C1804 1.395 . S
C1806 C1809 1.403 . S
C1807 C1804 1.403 . S
C1807 C1808 1.524 . S
C1807 C1811 1.400 . S
C1808 H1793 0.960 . S
C1808 H1794 0.960 . S
C1808 H1795 0.960 . S
C1808 C1807 1.524 . S
C1809 C1806 1.403 . S
C1809 C1810 1.392 . S
C1809 C1813 1.495 . S
C1810 C1809 1.392 . S
C1810 C1811 1.385 . S
C1810 C1812 1.478 . S
C1811 H1805 0.930 . S
C1811 C1807 1.400 . S
C1811 C1810 1.385 . S
C1812 C1810 1.478 . S
C1812 C1814 1.381 . S
C1812 C1818 1.383 . S
C1813 C1809 1.495 . S
C1813 H1819 0.959 . S
C1813 H1820 0.961 . S
C1813 H1821 0.960 . S
C1814 C1812 1.381 . S
C1814 C1815 1.394 . S
C1814 H1822 0.930 . S
C1815 C1814 1.394 . S
C1815 C1816 1.383 . S
C1815 H1823 0.929 . S
C1816 C1815 1.383 . S
C1816 C1817 1.377 . S
C1817 H1801 0.930 . S
C1817 C1816 1.377 . S
C1817 C1818 1.379 . S
C1818 H1802 0.931 . S
C1818 C1812 1.383 . S
C1818 C1817 1.379 . S
H1819 C1813 0.959 . S
H1820 C1813 0.961 . S
H1821 C1813 0.960 . S
H1822 C1814 0.930 . S
H1823 C1815 0.929 . S
H1824 C1832 0.929 1_655 S
H1825 C1834 0.914 1_655 S
H1826 C1836 0.930 . S
H1827 C1839 0.929 . S
H1828 C1842 0.930 . S
H1829 C1844 0.960 . S
H1830 C1844 0.960 . S
H1831 C1844 0.960 . S
C1832 H1824 0.929 1_455 S
C1832 C1833 1.377 . S
C1832 C1834 1.384 . S
C1833 C1832 1.377 . S
C1833 C1839 1.390 . S
C1834 H1825 0.914 1_455 S
C1834 C1832 1.384 . S
C1834 C1835 1.372 . S
C1835 C1834 1.372 . S
C1835 C1836 1.400 . S
C1835 C1840 1.490 . S
C1836 H1826 0.930 . S
C1836 C1835 1.400 . S
C1836 C1839 1.386 . S
H1837 C1853 0.930 . S
H1838 C1854 0.931 . S
C1839 H1827 0.929 . S
C1839 C1833 1.390 . S
C1839 C1836 1.386 . S
C1840 C1835 1.490 . S
C1840 C1842 1.395 . S
C1840 C1843 1.403 . S
H1841 C1847 0.930 . S
C1842 H1828 0.930 . S
C1842 C1840 1.395 . S
C1842 C1845 1.403 . S
C1843 C1840 1.403 . S
C1843 C1844 1.524 . S
C1843 C1847 1.400 . S
C1844 H1829 0.960 . S
C1844 H1830 0.960 . S
C1844 H1831 0.960 . S
C1844 C1843 1.524 . S
C1845 C1842 1.403 . S
C1845 C1846 1.392 . S
C1845 C1849 1.495 . S
C1846 C1845 1.392 . S
C1846 C1847 1.385 . S
C1846 C1848 1.478 . S
C1847 H1841 0.930 . S
C1847 C1843 1.400 . S
C1847 C1846 1.385 . S
C1848 C1846 1.478 . S
C1848 C1850 1.381 . S
C1848 C1854 1.383 . S
C1849 C1845 1.495 . S
C1849 H1855 0.959 . S
C1849 H1856 0.961 . S
C1849 H1857 0.960 . S
C1850 C1848 1.381 . S
C1850 C1851 1.394 . S
C1850 H1858 0.930 . S
C1851 C1850 1.394 . S
C1851 C1852 1.383 . S
C1851 H1859 0.929 . S
C1852 C1851 1.383 . S
C1852 C1853 1.377 . S
C1853 H1837 0.930 . S
C1853 C1852 1.377 . S
C1853 C1854 1.379 . S
C1854 H1838 0.931 . S
C1854 C1848 1.383 . S
C1854 C1853 1.379 . S
H1855 C1849 0.959 . S
H1856 C1849 0.961 . S
H1857 C1849 0.960 . S
H1858 C1850 0.930 . S
H1859 C1851 0.929 . S
H1860 C1868 0.929 . S
H1861 C1870 0.930 . S
H1862 C1872 0.930 . S
H1863 C1875 0.929 . S
H1864 C1878 0.930 . S
H1865 C1880 0.960 . S
H1866 C1880 0.960 . S
H1867 C1880 0.960 . S
C1868 H1860 0.929 . S
C1868 C1869 1.377 . S
C1868 C1870 1.384 . S
C1869 C1868 1.377 . S
C1869 C1875 1.390 . S
C1870 H1861 0.930 . S
C1870 C1868 1.384 . S
C1870 C1871 1.372 . S
C1871 C1870 1.372 . S
C1871 C1872 1.400 . S
C1871 C1876 1.490 . S
C1872 H1862 0.930 . S
C1872 C1871 1.400 . S
C1872 C1875 1.386 . S
H1873 C1889 0.930 . S
H1874 C1890 0.931 . S
C1875 H1863 0.929 . S
C1875 C1869 1.390 . S
C1875 C1872 1.386 . S
C1876 C1871 1.490 . S
C1876 C1878 1.395 . S
C1876 C1879 1.403 . S
H1877 C1883 0.930 . S
C1878 H1864 0.930 . S
C1878 C1876 1.395 . S
C1878 C1881 1.403 . S
C1879 C1876 1.403 . S
C1879 C1880 1.524 . S
C1879 C1883 1.400 . S
C1880 H1865 0.960 . S
C1880 H1866 0.960 . S
C1880 H1867 0.960 . S
C1880 C1879 1.524 . S
C1881 C1878 1.403 . S
C1881 C1882 1.392 . S
C1881 C1885 1.495 . S
C1882 C1881 1.392 . S
C1882 C1883 1.385 . S
C1882 C1884 1.478 . S
C1883 H1877 0.930 . S
C1883 C1879 1.400 . S
C1883 C1882 1.385 . S
C1884 C1882 1.478 . S
C1884 C1886 1.381 . S
C1884 C1890 1.383 . S
C1885 C1881 1.495 . S
C1885 H1891 0.959 . S
C1885 H1892 0.961 . S
C1885 H1893 0.960 . S
C1886 C1884 1.381 . S
C1886 C1887 1.394 . S
C1886 H1894 0.930 . S
C1887 C1886 1.394 . S
C1887 C1888 1.383 . S
C1887 H1895 0.929 . S
C1888 C1887 1.383 . S
C1888 C1889 1.377 . S
C1889 H1873 0.930 . S
C1889 C1888 1.377 . S
C1889 C1890 1.379 . S
C1890 H1874 0.931 . S
C1890 C1884 1.383 . S
C1890 C1889 1.379 . S
H1891 C1885 0.959 . S
H1892 C1885 0.961 . S
H1893 C1885 0.960 . S
H1894 C1886 0.930 . S
H1895 C1887 0.929 . S
H1896 C1904 0.929 . S
H1897 C1906 0.930 . S
H1898 C1908 0.930 . S
H1899 C1911 0.929 . S
H1900 C1914 0.930 . S
H1901 C1916 0.960 . S
H1902 C1916 0.960 . S
H1903 C1916 0.960 . S
C1904 H1896 0.929 . S
C1904 C1905 1.377 . S
C1904 C1906 1.384 . S
C1905 C1904 1.377 . S
C1905 C1911 1.390 . S
C1906 H1897 0.930 . S
C1906 C1904 1.384 . S
C1906 C1907 1.372 . S
C1907 C1906 1.372 . S
C1907 C1908 1.400 . S
C1907 C1912 1.490 . S
C1908 H1898 0.930 . S
C1908 C1907 1.400 . S
C1908 C1911 1.386 . S
H1909 C1925 0.930 . S
H1910 C1926 0.931 . S
C1911 H1899 0.929 . S
C1911 C1905 1.390 . S
C1911 C1908 1.386 . S
C1912 C1907 1.490 . S
C1912 C1914 1.395 . S
C1912 C1915 1.403 . S
H1913 C1919 0.930 . S
C1914 H1900 0.930 . S
C1914 C1912 1.395 . S
C1914 C1917 1.403 . S
C1915 C1912 1.403 . S
C1915 C1916 1.524 . S
C1915 C1919 1.400 . S
C1916 H1901 0.960 . S
C1916 H1902 0.960 . S
C1916 H1903 0.960 . S
C1916 C1915 1.524 . S
C1917 C1914 1.403 . S
C1917 C1918 1.392 . S
C1917 C1921 1.495 . S
C1918 C1917 1.392 . S
C1918 C1919 1.385 . S
C1918 C1920 1.478 . S
C1919 H1913 0.930 . S
C1919 C1915 1.400 . S
C1919 C1918 1.385 . S
C1920 C1918 1.478 . S
C1920 C1922 1.381 . S
C1920 C1926 1.383 . S
C1921 C1917 1.495 . S
C1921 H1927 0.959 . S
C1921 H1928 0.961 . S
C1921 H1929 0.960 . S
C1922 C1920 1.381 . S
C1922 C1923 1.394 . S
C1922 H1930 0.930 . S
C1923 C1922 1.394 . S
C1923 C1924 1.383 . S
C1923 H1931 0.929 . S
C1924 C1923 1.383 . S
C1924 C1925 1.377 . S
C1925 H1909 0.930 . S
C1925 C1924 1.377 . S
C1925 C1926 1.379 . S
C1926 H1910 0.931 . S
C1926 C1920 1.383 . S
C1926 C1925 1.379 . S
H1927 C1921 0.959 . S
H1928 C1921 0.961 . S
H1929 C1921 0.960 . S
H1930 C1922 0.930 . S
H1931 C1923 0.929 . S
H1932 C1940 0.929 . S
H1933 C1942 0.930 . S
H1934 C1944 0.930 . S
H1935 C1947 0.929 . S
H1936 C1950 0.930 . S
H1937 C1952 0.960 . S
H1938 C1952 0.960 . S
H1939 C1952 0.960 . S
C1940 H1932 0.929 . S
C1940 C1941 1.377 . S
C1940 C1942 1.384 . S
C1941 C1940 1.377 . S
C1941 C1947 1.390 . S
C1942 H1933 0.930 . S
C1942 C1940 1.384 . S
C1942 C1943 1.372 . S
C1943 C1942 1.372 . S
C1943 C1944 1.400 . S
C1943 C1948 1.490 . S
C1944 H1934 0.930 . S
C1944 C1943 1.400 . S
C1944 C1947 1.386 . S
H1945 C1961 0.930 . S
H1946 C1962 0.931 . S
C1947 H1935 0.929 . S
C1947 C1941 1.390 . S
C1947 C1944 1.386 . S
C1948 C1943 1.490 . S
C1948 C1950 1.395 . S
C1948 C1951 1.403 . S
H1949 C1955 0.930 . S
C1950 H1936 0.930 . S
C1950 C1948 1.395 . S
C1950 C1953 1.403 . S
C1951 C1948 1.403 . S
C1951 C1952 1.524 . S
C1951 C1955 1.400 . S
C1952 H1937 0.960 . S
C1952 H1938 0.960 . S
C1952 H1939 0.960 . S
C1952 C1951 1.524 . S
C1953 C1950 1.403 . S
C1953 C1954 1.392 . S
C1953 C1957 1.495 . S
C1954 C1953 1.392 . S
C1954 C1955 1.385 . S
C1954 C1956 1.478 . S
C1955 H1949 0.930 . S
C1955 C1951 1.400 . S
C1955 C1954 1.385 . S
C1956 C1954 1.478 . S
C1956 C1958 1.381 . S
C1956 C1962 1.383 . S
C1957 C1953 1.495 . S
C1957 H1963 0.959 . S
C1957 H1964 0.961 . S
C1957 H1965 0.960 . S
C1958 C1956 1.381 . S
C1958 C1959 1.394 . S
C1958 H1966 0.930 . S
C1959 C1958 1.394 . S
C1959 C1960 1.383 . S
C1959 H1967 0.929 . S
C1960 C1959 1.383 . S
C1960 C1961 1.377 . S
C1961 H1945 0.930 . S
C1961 C1960 1.377 . S
C1961 C1962 1.379 . S
C1962 H1946 0.931 . S
C1962 C1956 1.383 . S
C1962 C1961 1.379 . S
H1963 C1957 0.959 . S
H1964 C1957 0.961 . S
H1965 C1957 0.960 . S
H1966 C1958 0.930 . S
H1967 C1959 0.929 . S
H1968 C1976 0.929 . S
H1969 C1978 0.930 . S
H1970 C1980 0.930 . S
H1971 C1983 0.929 . S
H1972 C1986 0.930 . S
H1973 C1988 0.960 . S
H1974 C1988 0.960 . S
H1975 C1988 0.960 . S
C1976 H1968 0.929 . S
C1976 C1977 1.377 . S
C1976 C1978 1.384 . S
C1977 C1976 1.377 . S
C1977 C1983 1.390 . S
C1978 H1969 0.930 . S
C1978 C1976 1.384 . S
C1978 C1979 1.372 . S
C1979 C1978 1.372 . S
C1979 C1980 1.400 . S
C1979 C1984 1.490 . S
C1980 H1970 0.930 . S
C1980 C1979 1.400 . S
C1980 C1983 1.386 . S
H1981 C1997 0.930 . S
H1982 C1998 0.931 . S
C1983 H1971 0.929 . S
C1983 C1977 1.390 . S
C1983 C1980 1.386 . S
C1984 C1979 1.490 . S
C1984 C1986 1.395 . S
C1984 C1987 1.403 1_655 S
H1985 C1991 0.930 . S
C1986 H1972 0.930 . S
C1986 C1984 1.395 . S
C1986 C1989 1.403 . S
C1987 C1984 1.403 1_455 S
C1987 C1988 1.524 . S
C1987 C1991 1.400 . S
C1988 H1973 0.960 . S
C1988 H1974 0.960 . S
C1988 H1975 0.960 . S
C1988 C1987 1.524 . S
C1989 C1986 1.403 . S
C1989 C1990 1.392 1_655 S
C1989 C1993 1.495 . S
C1990 C1989 1.392 1_455 S
C1990 C1991 1.385 . S
C1990 C1992 1.478 . S
C1991 H1985 0.930 . S
C1991 C1987 1.400 . S
C1991 C1990 1.385 . S
C1992 C1990 1.478 . S
C1992 C1994 1.381 . S
C1992 C1998 1.383 . S
C1993 C1989 1.495 . S
C1993 H1999 0.959 . S
C1993 H2000 0.961 . S
C1993 H2001 0.960 . S
C1994 C1992 1.381 . S
C1994 C1995 1.394 . S
C1994 H2002 0.930 . S
C1995 C1994 1.394 . S
C1995 C1996 1.383 . S
C1995 H2003 0.929 . S
C1996 C1995 1.383 . S
C1996 C1997 1.377 . S
C1997 H1981 0.930 . S
C1997 C1996 1.377 . S
C1997 C1998 1.379 . S
C1998 H1982 0.931 . S
C1998 C1992 1.383 . S
C1998 C1997 1.379 . S
H1999 C1993 0.959 . S
H2000 C1993 0.961 . S
H2001 C1993 0.960 . S
H2002 C1994 0.930 . S
H2003 C1995 0.929 . S
H2004 C2012 0.929 . S
H2005 C2014 0.930 . S
H2006 C2016 0.930 . S
H2007 C2019 0.929 . S
H2008 C2022 0.930 . S
H2009 C2024 0.960 . S
H2010 C2024 0.960 . S
H2011 C2024 0.960 . S
C2012 H2004 0.929 . S
C2012 C2013 1.377 . S
C2012 C2014 1.384 . S
C2013 C2012 1.377 . S
C2013 C2019 1.390 . S
C2014 H2005 0.930 . S
C2014 C2012 1.384 . S
C2014 C2015 1.372 . S
C2015 C2014 1.372 . S
C2015 C2016 1.400 . S
C2015 C2020 1.490 . S
C2016 H2006 0.930 . S
C2016 C2015 1.400 . S
C2016 C2019 1.386 . S
H2017 C2033 0.930 . S
H2018 C2034 0.931 . S
C2019 H2007 0.929 . S
C2019 C2013 1.390 . S
C2019 C2016 1.386 . S
C2020 C2015 1.490 . S
C2020 C2022 1.395 . S
C2020 C2023 1.403 . S
H2021 C2027 0.930 . S
C2022 H2008 0.930 . S
C2022 C2020 1.395 . S
C2022 C2025 1.403 . S
C2023 C2020 1.403 . S
C2023 C2024 1.524 . S
C2023 C2027 1.400 . S
C2024 H2009 0.960 . S
C2024 H2010 0.960 . S
C2024 H2011 0.960 . S
C2024 C2023 1.524 . S
C2025 C2022 1.403 . S
C2025 C2026 1.392 . S
C2025 C2029 1.495 . S
C2026 C2025 1.392 . S
C2026 C2027 1.385 . S
C2026 C2028 1.478 . S
C2027 H2021 0.930 . S
C2027 C2023 1.400 . S
C2027 C2026 1.385 . S
C2028 C2026 1.478 . S
C2028 C2030 1.381 . S
C2028 C2034 1.383 . S
C2029 C2025 1.495 . S
C2029 H2035 0.959 . S
C2029 H2036 0.961 . S
C2029 H2037 0.960 . S
C2030 C2028 1.381 . S
C2030 C2031 1.394 . S
C2030 H2038 0.930 . S
C2031 C2030 1.394 . S
C2031 C2032 1.383 . S
C2031 H2039 0.929 . S
C2032 C2031 1.383 . S
C2032 C2033 1.377 . S
C2033 H2017 0.930 . S
C2033 C2032 1.377 . S
C2033 C2034 1.379 . S
C2034 H2018 0.931 . S
C2034 C2028 1.383 . S
C2034 C2033 1.379 . S
H2035 C2029 0.959 . S
H2036 C2029 0.961 . S
H2037 C2029 0.960 . S
H2038 C2030 0.930 . S
H2039 C2031 0.929 . S
H2040 C2048 0.929 . S
H2041 C2050 0.930 . S
H2042 C2052 0.930 . S
H2043 C2055 0.929 . S
H2044 C2058 0.930 . S
H2045 C2060 0.960 . S
H2046 C2060 0.960 . S
H2047 C2060 0.960 . S
C2048 H2040 0.929 . S
C2048 C2049 1.377 . S
C2048 C2050 1.384 . S
C2049 C2048 1.377 . S
C2049 C2055 1.390 . S
C2050 H2041 0.930 . S
C2050 C2048 1.384 . S
C2050 C2051 1.372 . S
C2051 C2050 1.372 . S
C2051 C2052 1.400 . S
C2051 C2056 1.490 . S
C2052 H2042 0.930 . S
C2052 C2051 1.400 . S
C2052 C2055 1.386 . S
H2053 C2069 0.930 . S
H2054 C2070 0.931 . S
C2055 H2043 0.929 . S
C2055 C2049 1.390 . S
C2055 C2052 1.386 . S
C2056 C2051 1.490 . S
C2056 C2058 1.395 . S
C2056 C2059 1.403 . S
H2057 C2063 0.930 . S
C2058 H2044 0.930 . S
C2058 C2056 1.395 . S
C2058 C2061 1.403 . S
C2059 C2056 1.403 . S
C2059 C2060 1.524 . S
C2059 C2063 1.400 . S
C2060 H2045 0.960 . S
C2060 H2046 0.960 . S
C2060 H2047 0.960 . S
C2060 C2059 1.524 . S
C2061 C2058 1.403 . S
C2061 C2062 1.392 . S
C2061 C2065 1.495 . S
C2062 C2061 1.392 . S
C2062 C2063 1.385 . S
C2062 C2064 1.478 . S
C2063 H2057 0.930 . S
C2063 C2059 1.400 . S
C2063 C2062 1.385 . S
C2064 C2062 1.478 . S
C2064 C2066 1.381 . S
C2064 C2070 1.383 . S
C2065 C2061 1.495 . S
C2065 H2071 0.959 . S
C2065 H2072 0.961 . S
C2065 H2073 0.960 . S
C2066 C2064 1.381 . S
C2066 C2067 1.394 . S
C2066 H2074 0.930 . S
C2067 C2066 1.394 . S
C2067 C2068 1.383 . S
C2067 H2075 0.929 . S
C2068 C2067 1.383 . S
C2068 C2069 1.377 . S
C2069 H2053 0.930 . S
C2069 C2068 1.377 . S
C2069 C2070 1.379 . S
C2070 H2054 0.931 . S
C2070 C2064 1.383 . S
C2070 C2069 1.379 . S
H2071 C2065 0.959 . S
H2072 C2065 0.961 . S
H2073 C2065 0.960 . S
H2074 C2066 0.930 . S
H2075 C2067 0.929 . S
H2076 C2084 0.929 . S
H2077 C2086 0.930 . S
H2078 C2088 0.930 . S
H2079 C2091 0.929 . S
H2080 C2094 0.930 . S
H2081 C2096 0.960 . S
H2082 C2096 0.960 . S
H2083 C2096 0.960 . S
C2084 H2076 0.929 . S
C2084 C2085 1.377 . S
C2084 C2086 1.384 . S
C2085 C2084 1.377 . S
C2085 C2091 1.390 . S
C2086 H2077 0.930 . S
C2086 C2084 1.384 . S
C2086 C2087 1.372 . S
C2087 C2086 1.372 . S
C2087 C2088 1.400 . S
C2087 C2092 1.490 . S
C2088 H2078 0.930 . S
C2088 C2087 1.400 . S
C2088 C2091 1.386 . S
H2089 C2105 0.930 . S
H2090 C2106 0.931 . S
C2091 H2079 0.929 . S
C2091 C2085 1.390 . S
C2091 C2088 1.386 . S
C2092 C2087 1.490 . S
C2092 C2094 1.395 . S
C2092 C2095 1.403 . S
H2093 C2099 0.930 . S
C2094 H2080 0.930 . S
C2094 C2092 1.395 . S
C2094 C2097 1.403 . S
C2095 C2092 1.403 . S
C2095 C2096 1.524 . S
C2095 C2099 1.400 . S
C2096 H2081 0.960 . S
C2096 H2082 0.960 . S
C2096 H2083 0.960 . S
C2096 C2095 1.524 . S
C2097 C2094 1.403 . S
C2097 C2098 1.392 . S
C2097 C2101 1.495 . S
C2098 C2097 1.392 . S
C2098 C2099 1.385 . S
C2098 C2100 1.478 . S
C2099 H2093 0.930 . S
C2099 C2095 1.400 . S
C2099 C2098 1.385 . S
C2100 C2098 1.478 . S
C2100 C2102 1.381 . S
C2100 C2106 1.383 . S
C2101 C2097 1.495 . S
C2101 H2107 0.959 . S
C2101 H2108 0.961 . S
C2101 H2109 0.960 . S
C2102 C2100 1.381 . S
C2102 C2103 1.394 . S
C2102 H2110 0.930 . S
C2103 C2102 1.394 . S
C2103 C2104 1.383 . S
C2103 H2111 0.929 . S
C2104 C2103 1.383 . S
C2104 C2105 1.377 . S
C2105 H2089 0.930 . S
C2105 C2104 1.377 . S
C2105 C2106 1.379 . S
C2106 H2090 0.931 . S
C2106 C2100 1.383 . S
C2106 C2105 1.379 . S
H2107 C2101 0.959 . S
H2108 C2101 0.961 . S
H2109 C2101 0.960 . S
H2110 C2102 0.930 . S
H2111 C2103 0.929 . S
H2112 C2120 0.929 . S
H2113 C2122 0.930 1_455 S
H2114 C2124 0.930 . S
H2115 C2127 0.929 . S
H2116 C2130 0.930 1_655 S
H2117 C2132 0.960 . S
H2118 C2132 0.960 . S
H2119 C2132 0.960 1_655 S
C2120 H2112 0.929 . S
C2120 C2121 1.377 . S
C2120 C2122 1.384 . S
C2121 C2120 1.377 . S
C2121 C2127 1.390 . S
C2122 H2113 0.930 1_655 S
C2122 C2120 1.384 . S
C2122 C2123 1.372 . S
C2123 C2122 1.372 . S
C2123 C2124 1.400 . S
C2123 C2128 1.486 1_655 S
C2124 H2114 0.930 . S
C2124 C2123 1.400 . S
C2124 C2127 1.386 . S
H2125 C2141 0.930 . S
H2126 C2142 0.931 . S
C2127 H2115 0.929 . S
C2127 C2121 1.390 . S
C2127 C2124 1.386 . S
C2128 C2123 1.486 1_455 S
C2128 C2130 1.393 . S
C2128 C2131 1.408 . S
H2129 C2135 0.930 . S
C2130 H2116 0.930 1_455 S
C2130 C2128 1.393 . S
C2130 C2133 1.403 . S
C2131 C2128 1.408 . S
C2131 C2132 1.524 . S
C2131 C2135 1.400 . S
C2132 H2117 0.960 . S
C2132 H2118 0.960 . S
C2132 H2119 0.960 1_455 S
C2132 C2131 1.524 . S
C2133 C2130 1.403 . S
C2133 C2134 1.392 . S
C2133 C2137 1.495 . S
C2134 C2133 1.392 . S
C2134 C2135 1.385 . S
C2134 C2136 1.478 . S
C2135 H2129 0.930 . S
C2135 C2131 1.400 . S
C2135 C2134 1.385 . S
C2136 C2134 1.478 . S
C2136 C2138 1.381 . S
C2136 C2142 1.383 . S
C2137 C2133 1.495 . S
C2137 H2143 0.959 . S
C2137 H2144 0.961 . S
C2137 H2145 0.960 . S
C2138 C2136 1.381 . S
C2138 C2139 1.394 . S
C2138 H2146 0.930 . S
C2139 C2138 1.394 . S
C2139 C2140 1.383 . S
C2139 H2147 0.929 . S
C2140 C2139 1.383 . S
C2140 C2141 1.377 . S
C2141 H2125 0.930 . S
C2141 C2140 1.377 . S
C2141 C2142 1.379 . S
C2142 H2126 0.931 . S
C2142 C2136 1.383 . S
C2142 C2141 1.379 . S
H2143 C2137 0.959 . S
H2144 C2137 0.961 . S
H2145 C2137 0.960 . S
H2146 C2138 0.930 . S
H2147 C2139 0.929 . S
H2148 C2156 0.929 . S
H2149 C2158 0.930 . S
H2150 C2160 0.930 . S
H2151 C2163 0.929 . S
H2152 C2166 0.930 . S
H2153 C2168 0.960 . S
H2154 C2168 0.960 . S
H2155 C2168 0.960 . S
C2156 H2148 0.929 . S
C2156 C2157 1.377 . S
C2156 C2158 1.384 . S
C2157 C2156 1.377 . S
C2157 C2163 1.390 . S
C2158 H2149 0.930 . S
C2158 C2156 1.384 . S
C2158 C2159 1.372 . S
C2159 C2158 1.372 . S
C2159 C2160 1.400 . S
C2159 C2164 1.490 . S
C2160 H2150 0.930 . S
C2160 C2159 1.400 . S
C2160 C2163 1.386 . S
H2161 C2177 0.930 . S
H2162 C2178 0.931 . S
C2163 H2151 0.929 . S
C2163 C2157 1.390 . S
C2163 C2160 1.386 . S
C2164 C2159 1.490 . S
C2164 C2166 1.395 . S
C2164 C2167 1.403 . S
H2165 C2171 0.930 . S
C2166 H2152 0.930 . S
C2166 C2164 1.395 . S
C2166 C2169 1.403 . S
C2167 C2164 1.403 . S
C2167 C2168 1.524 . S
C2167 C2171 1.400 . S
C2168 H2153 0.960 . S
C2168 H2154 0.960 . S
C2168 H2155 0.960 . S
C2168 C2167 1.524 . S
C2169 C2166 1.403 . S
C2169 C2170 1.392 . S
C2169 C2173 1.495 . S
C2170 C2169 1.392 . S
C2170 C2171 1.385 . S
C2170 C2172 1.478 . S
C2171 H2165 0.930 . S
C2171 C2167 1.400 . S
C2171 C2170 1.385 . S
C2172 C2170 1.478 . S
C2172 C2174 1.381 . S
C2172 C2178 1.383 . S
C2173 C2169 1.495 . S
C2173 H2179 0.959 . S
C2173 H2180 0.961 . S
C2173 H2181 0.960 . S
C2174 C2172 1.381 . S
C2174 C2175 1.394 . S
C2174 H2182 0.930 . S
C2175 C2174 1.394 . S
C2175 C2176 1.383 . S
C2175 H2183 0.929 . S
C2176 C2175 1.383 . S
C2176 C2177 1.377 . S
C2177 H2161 0.930 . S
C2177 C2176 1.377 . S
C2177 C2178 1.379 . S
C2178 H2162 0.931 . S
C2178 C2172 1.383 . S
C2178 C2177 1.379 . S
H2179 C2173 0.959 . S
H2180 C2173 0.961 . S
H2181 C2173 0.960 . S
H2182 C2174 0.930 . S
H2183 C2175 0.929 . S
H2184 C2192 0.929 . S
H2185 C2194 0.930 . S
H2186 C2196 0.930 . S
H2187 C2199 0.929 . S
H2188 C2202 0.930 . S
H2189 C2204 0.960 . S
H2190 C2204 0.960 . S
H2191 C2204 0.960 . S
C2192 H2184 0.929 . S
C2192 C2193 1.377 . S
C2192 C2194 1.384 . S
C2193 C2192 1.377 . S
C2193 C2199 1.390 . S
C2194 H2185 0.930 . S
C2194 C2192 1.384 . S
C2194 C2195 1.372 . S
C2195 C2194 1.372 . S
C2195 C2196 1.400 . S
C2195 C2200 1.490 . S
C2196 H2186 0.930 . S
C2196 C2195 1.400 . S
C2196 C2199 1.386 . S
H2197 C2213 0.930 . S
H2198 C2214 0.931 . S
C2199 H2187 0.929 . S
C2199 C2193 1.390 . S
C2199 C2196 1.386 . S
C2200 C2195 1.490 . S
C2200 C2202 1.395 . S
C2200 C2203 1.403 . S
H2201 C2207 0.930 . S
C2202 H2188 0.930 . S
C2202 C2200 1.395 . S
C2202 C2205 1.403 . S
C2203 C2200 1.403 . S
C2203 C2204 1.524 . S
C2203 C2207 1.400 . S
C2204 H2189 0.960 . S
C2204 H2190 0.960 . S
C2204 H2191 0.960 . S
C2204 C2203 1.524 . S
C2205 C2202 1.403 . S
C2205 C2206 1.392 . S
C2205 C2209 1.495 . S
C2206 C2205 1.392 . S
C2206 C2207 1.385 . S
C2206 C2208 1.478 . S
C2207 H2201 0.930 . S
C2207 C2203 1.400 . S
C2207 C2206 1.385 . S
C2208 C2206 1.478 . S
C2208 C2210 1.381 . S
C2208 C2214 1.383 . S
C2209 C2205 1.495 . S
C2209 H2215 0.959 . S
C2209 H2216 0.961 . S
C2209 H2217 0.960 . S
C2210 C2208 1.381 . S
C2210 C2211 1.394 . S
C2210 H2218 0.930 . S
C2211 C2210 1.394 . S
C2211 C2212 1.383 . S
C2211 H2219 0.929 . S
C2212 C2211 1.383 . S
C2212 C2213 1.377 . S
C2213 H2197 0.930 . S
C2213 C2212 1.377 . S
C2213 C2214 1.379 . S
C2214 H2198 0.931 . S
C2214 C2208 1.383 . S
C2214 C2213 1.379 . S
H2215 C2209 0.959 . S
H2216 C2209 0.961 . S
H2217 C2209 0.960 . S
H2218 C2210 0.930 . S
H2219 C2211 0.929 . S
H2220 C2228 0.929 . S
H2221 C2230 0.930 . S
H2222 C2232 0.930 . S
H2223 C2235 0.929 . S
H2224 C2238 0.930 . S
H2225 C2240 0.960 . S
H2226 C2240 0.960 . S
H2227 C2240 0.960 . S
C2228 H2220 0.929 . S
C2228 C2229 1.377 . S
C2228 C2230 1.384 . S
C2229 C2228 1.377 . S
C2229 C2235 1.390 . S
C2230 H2221 0.930 . S
C2230 C2228 1.384 . S
C2230 C2231 1.372 . S
C2231 C2230 1.372 . S
C2231 C2232 1.400 . S
C2231 C2236 1.490 . S
C2232 H2222 0.930 . S
C2232 C2231 1.400 . S
C2232 C2235 1.386 . S
H2233 C2249 0.930 . S
H2234 C2250 0.931 . S
C2235 H2223 0.929 . S
C2235 C2229 1.390 . S
C2235 C2232 1.386 . S
C2236 C2231 1.490 . S
C2236 C2238 1.395 . S
C2236 C2239 1.403 . S
H2237 C2243 0.930 . S
C2238 H2224 0.930 . S
C2238 C2236 1.395 . S
C2238 C2241 1.403 . S
C2239 C2236 1.403 . S
C2239 C2240 1.524 . S
C2239 C2243 1.400 . S
C2240 H2225 0.960 . S
C2240 H2226 0.960 . S
C2240 H2227 0.960 . S
C2240 C2239 1.524 . S
C2241 C2238 1.403 . S
C2241 C2242 1.392 . S
C2241 C2245 1.495 . S
C2242 C2241 1.392 . S
C2242 C2243 1.385 . S
C2242 C2244 1.478 . S
C2243 H2237 0.930 . S
C2243 C2239 1.400 . S
C2243 C2242 1.385 . S
C2244 C2242 1.478 . S
C2244 C2246 1.381 . S
C2244 C2250 1.383 . S
C2245 C2241 1.495 . S
C2245 H2251 0.959 . S
C2245 H2252 0.961 . S
C2245 H2253 0.960 . S
C2246 C2244 1.381 . S
C2246 C2247 1.394 . S
C2246 H2254 0.930 . S
C2247 C2246 1.394 . S
C2247 C2248 1.383 . S
C2247 H2255 0.929 . S
C2248 C2247 1.383 . S
C2248 C2249 1.377 . S
C2249 H2233 0.930 . S
C2249 C2248 1.377 . S
C2249 C2250 1.379 . S
C2250 H2234 0.931 . S
C2250 C2244 1.383 . S
C2250 C2249 1.379 . S
H2251 C2245 0.959 . S
H2252 C2245 0.961 . S
H2253 C2245 0.960 . S
H2254 C2246 0.930 . S
H2255 C2247 0.929 . S
H2256 C2264 0.929 . S
H2257 C2266 0.930 . S
H2258 C2268 0.930 1_556 S
H2259 C2271 0.977 . S
H2260 C2274 0.930 1_545 S
H2261 C2276 0.960 . S
H2262 C2276 0.960 . S
H2263 C2276 0.960 1_556 S
C2264 H2256 0.929 . S
C2264 C2265 1.377 . S
C2264 C2266 1.384 . S
C2265 C2264 1.377 . S
C2265 C2271 1.348 1_554 S
C2266 H2257 0.930 . S
C2266 C2264 1.384 . S
C2266 C2267 1.372 . S
C2267 C2266 1.372 . S
C2267 C2268 1.400 . S
C2267 C2272 1.490 . S
C2268 H2258 0.930 1_554 S
C2268 C2267 1.400 . S
C2268 C2271 1.381 1_554 S
H2269 C2285 0.930 . S
H2270 C2286 0.931 . S
C2271 H2259 0.977 . S
C2271 C2265 1.348 1_556 S
C2271 C2268 1.381 1_556 S
C2272 C2267 1.490 . S
C2272 C2274 1.395 . S
C2272 C2275 1.403 . S
H2273 C2279 0.930 . S
C2274 H2260 0.930 1_565 S
C2274 C2272 1.395 . S
C2274 C2277 1.403 1_565 S
C2275 C2272 1.403 . S
C2275 C2276 1.524 . S
C2275 C2279 1.400 . S
C2276 H2261 0.960 . S
C2276 H2262 0.960 . S
C2276 H2263 0.960 1_554 S
C2276 C2275 1.524 . S
C2277 C2274 1.403 1_545 S
C2277 C2278 1.381 1_545 S
C2277 C2281 1.495 . S
C2278 C2277 1.381 1_565 S
C2278 C2279 1.441 . S
C2278 C2280 1.437 1_565 S
C2279 H2273 0.930 . S
C2279 C2275 1.400 . S
C2279 C2278 1.441 . S
C2280 C2278 1.437 1_545 S
C2280 C2282 1.381 . S
C2280 C2286 1.383 . S
C2281 C2277 1.495 . S
C2281 H2287 0.959 . S
C2281 H2288 0.961 . S
C2281 H2289 0.960 . S
C2282 C2280 1.381 . S
C2282 C2283 1.394 . S
C2282 H2290 0.930 . S
C2283 C2282 1.394 . S
C2283 C2284 1.383 . S
C2283 H2291 0.929 . S
C2284 C2283 1.383 . S
C2284 C2285 1.377 . S
C2285 H2269 0.930 . S
C2285 C2284 1.377 . S
C2285 C2286 1.379 . S
C2286 H2270 0.931 . S
C2286 C2280 1.383 . S
C2286 C2285 1.379 . S
H2287 C2281 0.959 . S
H2288 C2281 0.961 . S
H2289 C2281 0.960 . S
H2290 C2282 0.930 . S
H2291 C2283 0.929 . S
H2292 C2300 0.929 . S
H2293 C2302 0.930 . S
H2294 C2304 0.928 . S
H2295 C2307 0.929 . S
H2296 C2310 0.930 . S
H2297 C2312 0.960 . S
H2298 C2312 0.960 . S
H2299 C2312 0.960 . S
C2300 H2292 0.929 . S
C2300 C2301 1.390 . S
C2300 C2302 1.384 . S
C2301 C2300 1.390 . S
C2301 C2307 1.394 1_554 S
C2302 H2293 0.930 . S
C2302 C2300 1.384 . S
C2302 C2303 1.372 . S
C2303 C2302 1.372 . S
C2303 C2304 1.391 1_554 S
C2303 C2308 1.490 . S
C2304 H2294 0.928 . S
C2304 C2303 1.391 1_556 S
C2304 C2307 1.401 . S
H2305 C2321 0.929 1_556 S
H2306 C2322 0.931 . S
C2307 H2295 0.929 . S
C2307 C2301 1.394 1_556 S
C2307 C2304 1.401 . S
C2308 C2303 1.490 . S
C2308 C2310 1.395 1_554 S
C2308 C2311 1.403 . S
H2309 C2315 0.930 . S
C2310 H2296 0.930 . S
C2310 C2308 1.395 1_556 S
C2310 C2313 1.403 . S
C2311 C2308 1.403 . S
C2311 C2312 1.524 . S
C2311 C2315 1.400 . S
C2312 H2297 0.960 . S
C2312 H2298 0.960 . S
C2312 H2299 0.960 . S
C2312 C2311 1.524 . S
C2313 C2310 1.403 . S
C2313 C2314 1.392 1_556 S
C2313 C2317 1.495 . S
C2314 C2313 1.392 1_554 S
C2314 C2315 1.385 . S
C2314 C2316 1.478 . S
C2315 H2309 0.930 . S
C2315 C2311 1.400 . S
C2315 C2314 1.385 . S
C2316 C2314 1.478 . S
C2316 C2318 1.381 . S
C2316 C2322 1.383 1_554 S
C2317 C2313 1.495 . S
C2317 H2323 0.959 . S
C2317 H2324 0.961 . S
C2317 H2325 0.960 . S
C2318 C2316 1.381 . S
C2318 C2319 1.394 . S
C2318 H2326 0.930 . S
C2319 C2318 1.394 . S
C2319 C2320 1.383 . S
C2319 H2327 0.929 . S
C2320 C2319 1.383 . S
C2320 C2321 1.382 . S
C2321 H2305 0.929 1_554 S
C2321 C2320 1.382 . S
C2321 C2322 1.375 1_554 S
C2322 H2306 0.931 . S
C2322 C2316 1.383 1_556 S
C2322 C2321 1.375 1_556 S
H2323 C2317 0.959 . S
H2324 C2317 0.961 . S
H2325 C2317 0.960 . S
H2326 C2318 0.930 . S
H2327 C2319 0.929 . S
H2328 C2336 0.929 . S
H2329 C2338 0.930 . S
H2330 C2340 0.930 . S
H2331 C2343 0.929 . S
H2332 C2346 0.930 . S
H2333 C2348 0.960 . S
H2334 C2348 0.960 . S
H2335 C2348 0.960 . S
C2336 H2328 0.929 . S
C2336 C2337 1.377 . S
C2336 C2338 1.384 . S
C2337 C2336 1.377 . S
C2337 C2343 1.390 . S
C2338 H2329 0.930 . S
C2338 C2336 1.384 . S
C2338 C2339 1.372 . S
C2339 C2338 1.372 . S
C2339 C2340 1.400 . S
C2339 C2344 1.490 . S
C2340 H2330 0.930 . S
C2340 C2339 1.400 . S
C2340 C2343 1.386 . S
H2341 C2357 0.930 . S
H2342 C2358 0.931 . S
C2343 H2331 0.929 . S
C2343 C2337 1.390 . S
C2343 C2340 1.386 . S
C2344 C2339 1.490 . S
C2344 C2346 1.395 . S
C2344 C2347 1.403 . S
H2345 C2351 0.930 . S
C2346 H2332 0.930 . S
C2346 C2344 1.395 . S
C2346 C2349 1.403 . S
C2347 C2344 1.403 . S
C2347 C2348 1.524 . S
C2347 C2351 1.400 . S
C2348 H2333 0.960 . S
C2348 H2334 0.960 . S
C2348 H2335 0.960 . S
C2348 C2347 1.524 . S
C2349 C2346 1.403 . S
C2349 C2350 1.392 . S
C2349 C2353 1.495 . S
C2350 C2349 1.392 . S
C2350 C2351 1.385 . S
C2350 C2352 1.478 . S
C2351 H2345 0.930 . S
C2351 C2347 1.400 . S
C2351 C2350 1.385 . S
C2352 C2350 1.478 . S
C2352 C2354 1.381 . S
C2352 C2358 1.383 . S
C2353 C2349 1.495 . S
C2353 H2359 0.959 . S
C2353 H2360 0.961 . S
C2353 H2361 0.960 . S
C2354 C2352 1.381 . S
C2354 C2355 1.394 . S
C2354 H2362 0.930 . S
C2355 C2354 1.394 . S
C2355 C2356 1.383 . S
C2355 H2363 0.929 . S
C2356 C2355 1.383 . S
C2356 C2357 1.377 . S
C2357 H2341 0.930 . S
C2357 C2356 1.377 . S
C2357 C2358 1.379 . S
C2358 H2342 0.931 . S
C2358 C2352 1.383 . S
C2358 C2357 1.379 . S
H2359 C2353 0.959 . S
H2360 C2353 0.961 . S
H2361 C2353 0.960 . S
H2362 C2354 0.930 . S
H2363 C2355 0.929 . S
H2364 C2372 0.929 . S
H2365 C2374 0.930 . S
H2366 C2376 0.930 . S
H2367 C2379 0.929 . S
H2368 C2382 0.930 . S
H2369 C2384 0.960 . S
H2370 C2384 0.960 . S
H2371 C2384 0.960 . S
C2372 H2364 0.929 . S
C2372 C2373 1.377 . S
C2372 C2374 1.384 . S
C2373 C2372 1.377 . S
C2373 C2379 1.390 . S
C2374 H2365 0.930 . S
C2374 C2372 1.384 . S
C2374 C2375 1.372 . S
C2375 C2374 1.372 . S
C2375 C2376 1.400 . S
C2375 C2380 1.490 . S
C2376 H2366 0.930 . S
C2376 C2375 1.400 . S
C2376 C2379 1.386 . S
H2377 C2393 0.930 . S
H2378 C2394 0.931 . S
C2379 H2367 0.929 . S
C2379 C2373 1.390 . S
C2379 C2376 1.386 . S
C2380 C2375 1.490 . S
C2380 C2382 1.395 . S
C2380 C2383 1.403 . S
H2381 C2387 0.930 . S
C2382 H2368 0.930 . S
C2382 C2380 1.395 . S
C2382 C2385 1.403 . S
C2383 C2380 1.403 . S
C2383 C2384 1.524 . S
C2383 C2387 1.400 . S
C2384 H2369 0.960 . S
C2384 H2370 0.960 . S
C2384 H2371 0.960 . S
C2384 C2383 1.524 . S
C2385 C2382 1.403 . S
C2385 C2386 1.392 . S
C2385 C2389 1.495 . S
C2386 C2385 1.392 . S
C2386 C2387 1.385 . S
C2386 C2388 1.478 . S
C2387 H2381 0.930 . S
C2387 C2383 1.400 . S
C2387 C2386 1.385 . S
C2388 C2386 1.478 . S
C2388 C2390 1.381 . S
C2388 C2394 1.383 . S
C2389 C2385 1.495 . S
C2389 H2395 0.959 . S
C2389 H2396 0.961 . S
C2389 H2397 0.960 . S
C2390 C2388 1.381 . S
C2390 C2391 1.394 1_655 S
C2390 H2398 0.930 . S
C2391 C2390 1.394 1_455 S
C2391 C2392 1.383 . S
C2391 H2399 0.929 . S
C2392 C2391 1.383 . S
C2392 C2393 1.377 . S
C2393 H2377 0.930 . S
C2393 C2392 1.377 . S
C2393 C2394 1.379 1_455 S
C2394 H2378 0.931 . S
C2394 C2388 1.383 . S
C2394 C2393 1.379 1_655 S
H2395 C2389 0.959 . S
H2396 C2389 0.961 . S
H2397 C2389 0.960 . S
H2398 C2390 0.930 . S
H2399 C2391 0.929 . S
H2400 C2408 0.929 . S
H2401 C2410 0.930 . S
H2402 C2412 0.930 . S
H2403 C2415 0.929 . S
H2404 C2418 0.930 . S
H2405 C2420 0.960 . S
H2406 C2420 0.960 . S
H2407 C2420 0.960 . S
C2408 H2400 0.929 . S
C2408 C2409 1.377 . S
C2408 C2410 1.384 . S
C2409 C2408 1.377 . S
C2409 C2415 1.390 . S
C2410 H2401 0.930 . S
C2410 C2408 1.384 . S
C2410 C2411 1.372 . S
C2411 C2410 1.372 . S
C2411 C2412 1.400 . S
C2411 C2416 1.490 . S
C2412 H2402 0.930 . S
C2412 C2411 1.400 . S
C2412 C2415 1.386 . S
H2413 C2429 0.930 . S
H2414 C2430 0.931 . S
C2415 H2403 0.929 . S
C2415 C2409 1.390 . S
C2415 C2412 1.386 . S
C2416 C2411 1.490 . S
C2416 C2418 1.395 . S
C2416 C2419 1.403 . S
H2417 C2423 0.930 . S
C2418 H2404 0.930 . S
C2418 C2416 1.395 . S
C2418 C2421 1.403 . S
C2419 C2416 1.403 . S
C2419 C2420 1.524 . S
C2419 C2423 1.400 . S
C2420 H2405 0.960 . S
C2420 H2406 0.960 . S
C2420 H2407 0.960 . S
C2420 C2419 1.524 . S
C2421 C2418 1.403 . S
C2421 C2422 1.392 . S
C2421 C2425 1.495 . S
C2422 C2421 1.392 . S
C2422 C2423 1.385 . S
C2422 C2424 1.478 . S
C2423 H2417 0.930 . S
C2423 C2419 1.400 . S
C2423 C2422 1.385 . S
C2424 C2422 1.478 . S
C2424 C2426 1.381 . S
C2424 C2430 1.383 . S
C2425 C2421 1.495 . S
C2425 H2431 0.959 . S
C2425 H2432 0.961 . S
C2425 H2433 0.960 . S
C2426 C2424 1.381 . S
C2426 C2427 1.394 . S
C2426 H2434 0.930 . S
C2427 C2426 1.394 . S
C2427 C2428 1.383 . S
C2427 H2435 0.929 . S
C2428 C2427 1.383 . S
C2428 C2429 1.377 . S
C2429 H2413 0.930 . S
C2429 C2428 1.377 . S
C2429 C2430 1.379 . S
C2430 H2414 0.931 . S
C2430 C2424 1.383 . S
C2430 C2429 1.379 . S
H2431 C2425 0.959 . S
H2432 C2425 0.961 . S
H2433 C2425 0.960 . S
H2434 C2426 0.930 . S
H2435 C2427 0.929 . S
H2436 C2444 0.929 . S
H2437 C2446 0.930 . S
H2438 C2448 0.930 . S
H2439 C2451 0.929 . S
H2440 C2454 0.930 . S
H2441 C2456 0.960 . S
H2442 C2456 0.960 . S
H2443 C2456 0.960 . S
C2444 H2436 0.929 . S
C2444 C2445 1.377 . S
C2444 C2446 1.384 . S
C2445 C2444 1.377 . S
C2445 C2451 1.390 . S
C2446 H2437 0.930 . S
C2446 C2444 1.384 . S
C2446 C2447 1.372 . S
C2447 C2446 1.372 . S
C2447 C2448 1.400 . S
C2447 C2452 1.490 . S
C2448 H2438 0.930 . S
C2448 C2447 1.400 . S
C2448 C2451 1.386 . S
H2449 C2465 0.930 . S
H2450 C2466 0.931 . S
C2451 H2439 0.929 . S
C2451 C2445 1.390 . S
C2451 C2448 1.386 . S
C2452 C2447 1.490 . S
C2452 C2454 1.395 . S
C2452 C2455 1.403 . S
H2453 C2459 0.930 . S
C2454 H2440 0.930 . S
C2454 C2452 1.395 . S
C2454 C2457 1.403 . S
C2455 C2452 1.403 . S
C2455 C2456 1.524 . S
C2455 C2459 1.400 . S
C2456 H2441 0.960 . S
C2456 H2442 0.960 . S
C2456 H2443 0.960 . S
C2456 C2455 1.524 . S
C2457 C2454 1.403 . S
C2457 C2458 1.392 . S
C2457 C2461 1.495 . S
C2458 C2457 1.392 . S
C2458 C2459 1.385 . S
C2458 C2460 1.478 . S
C2459 H2453 0.930 . S
C2459 C2455 1.400 . S
C2459 C2458 1.385 . S
C2460 C2458 1.478 . S
C2460 C2462 1.381 . S
C2460 C2466 1.383 . S
C2461 C2457 1.495 . S
C2461 H2467 0.959 . S
C2461 H2468 0.961 . S
C2461 H2469 0.960 . S
C2462 C2460 1.381 . S
C2462 C2463 1.394 . S
C2462 H2470 0.930 . S
C2463 C2462 1.394 . S
C2463 C2464 1.383 . S
C2463 H2471 0.929 . S
C2464 C2463 1.383 . S
C2464 C2465 1.377 . S
C2465 H2449 0.930 . S
C2465 C2464 1.377 . S
C2465 C2466 1.379 . S
C2466 H2450 0.931 . S
C2466 C2460 1.383 . S
C2466 C2465 1.379 . S
H2467 C2461 0.959 . S
H2468 C2461 0.961 . S
H2469 C2461 0.960 . S
H2470 C2462 0.930 . S
H2471 C2463 0.929 . S
H2472 C2480 0.929 . S
H2473 C2482 0.930 . S
H2474 C2484 0.930 . S
H2475 C2487 0.929 . S
H2476 C2490 0.930 . S
H2477 C2492 0.960 . S
H2478 C2492 0.960 . S
H2479 C2492 0.960 . S
C2480 H2472 0.929 . S
C2480 C2481 1.377 . S
C2480 C2482 1.384 . S
C2481 C2480 1.377 . S
C2481 C2487 1.390 . S
C2482 H2473 0.930 . S
C2482 C2480 1.384 . S
C2482 C2483 1.372 . S
C2483 C2482 1.372 . S
C2483 C2484 1.400 . S
C2483 C2488 1.490 . S
C2484 H2474 0.930 . S
C2484 C2483 1.400 . S
C2484 C2487 1.386 . S
H2485 C2501 0.930 . S
H2486 C2502 0.931 . S
C2487 H2475 0.929 . S
C2487 C2481 1.390 . S
C2487 C2484 1.386 . S
C2488 C2483 1.490 . S
C2488 C2490 1.395 . S
C2488 C2491 1.403 . S
H2489 C2495 0.930 . S
C2490 H2476 0.930 . S
C2490 C2488 1.395 . S
C2490 C2493 1.403 . S
C2491 C2488 1.403 . S
C2491 C2492 1.524 . S
C2491 C2495 1.400 . S
C2492 H2477 0.960 . S
C2492 H2478 0.960 . S
C2492 H2479 0.960 . S
C2492 C2491 1.524 . S
C2493 C2490 1.403 . S
C2493 C2494 1.392 . S
C2493 C2497 1.495 . S
C2494 C2493 1.392 . S
C2494 C2495 1.385 . S
C2494 C2496 1.478 . S
C2495 H2489 0.930 . S
C2495 C2491 1.400 . S
C2495 C2494 1.385 . S
C2496 C2494 1.478 . S
C2496 C2498 1.381 . S
C2496 C2502 1.383 . S
C2497 C2493 1.495 . S
C2497 H2503 0.959 . S
C2497 H2504 0.961 . S
C2497 H2505 0.960 . S
C2498 C2496 1.381 . S
C2498 C2499 1.394 . S
C2498 H2506 0.930 . S
C2499 C2498 1.394 . S
C2499 C2500 1.383 . S
C2499 H2507 0.929 . S
C2500 C2499 1.383 . S
C2500 C2501 1.377 . S
C2501 H2485 0.930 . S
C2501 C2500 1.377 . S
C2501 C2502 1.379 . S
C2502 H2486 0.931 . S
C2502 C2496 1.383 . S
C2502 C2501 1.379 . S
H2503 C2497 0.959 . S
H2504 C2497 0.961 . S
H2505 C2497 0.960 . S
H2506 C2498 0.930 . S
H2507 C2499 0.929 . S
H2508 C2516 0.929 . S
H2509 C2518 0.930 . S
H2510 C2520 0.930 . S
H2511 C2523 0.929 . S
H2512 C2526 0.930 . S
H2513 C2528 0.960 . S
H2514 C2528 0.960 . S
H2515 C2528 0.960 . S
C2516 H2508 0.929 . S
C2516 C2517 1.377 . S
C2516 C2518 1.384 . S
C2517 C2516 1.377 . S
C2517 C2523 1.390 . S
C2518 H2509 0.930 . S
C2518 C2516 1.384 . S
C2518 C2519 1.372 . S
C2519 C2518 1.372 . S
C2519 C2520 1.400 . S
C2519 C2524 1.490 . S
C2520 H2510 0.930 . S
C2520 C2519 1.400 . S
C2520 C2523 1.386 . S
H2521 C2537 0.930 . S
H2522 C2538 0.931 . S
C2523 H2511 0.929 . S
C2523 C2517 1.390 . S
C2523 C2520 1.386 . S
C2524 C2519 1.490 . S
C2524 C2526 1.395 . S
C2524 C2527 1.403 . S
H2525 C2531 0.930 . S
C2526 H2512 0.930 . S
C2526 C2524 1.395 . S
C2526 C2529 1.403 . S
C2527 C2524 1.403 . S
C2527 C2528 1.524 . S
C2527 C2531 1.400 . S
C2528 H2513 0.960 . S
C2528 H2514 0.960 . S
C2528 H2515 0.960 . S
C2528 C2527 1.524 . S
C2529 C2526 1.403 . S
C2529 C2530 1.392 . S
C2529 C2533 1.495 . S
C2530 C2529 1.392 . S
C2530 C2531 1.385 . S
C2530 C2532 1.478 . S
C2531 H2525 0.930 . S
C2531 C2527 1.400 . S
C2531 C2530 1.385 . S
C2532 C2530 1.478 . S
C2532 C2534 1.381 . S
C2532 C2538 1.383 . S
C2533 C2529 1.495 . S
C2533 H2539 0.959 . S
C2533 H2540 0.961 . S
C2533 H2541 0.960 . S
C2534 C2532 1.381 . S
C2534 C2535 1.394 . S
C2534 H2542 0.930 . S
C2535 C2534 1.394 . S
C2535 C2536 1.383 . S
C2535 H2543 0.929 . S
C2536 C2535 1.383 . S
C2536 C2537 1.377 . S
C2537 H2521 0.930 . S
C2537 C2536 1.377 . S
C2537 C2538 1.379 . S
C2538 H2522 0.931 . S
C2538 C2532 1.383 . S
C2538 C2537 1.379 . S
H2539 C2533 0.959 . S
H2540 C2533 0.961 . S
H2541 C2533 0.960 . S
H2542 C2534 0.930 . S
H2543 C2535 0.929 . S
H2544 C2552 0.929 . S
H2545 C2554 0.930 . S
H2546 C2556 0.930 . S
H2547 C2559 0.929 . S
H2548 C2562 0.930 . S
H2549 C2564 0.960 . S
H2550 C2564 0.960 . S
H2551 C2564 0.960 . S
C2552 H2544 0.929 . S
C2552 C2553 1.377 . S
C2552 C2554 1.384 . S
C2553 C2552 1.377 . S
C2553 C2559 1.390 . S
C2554 H2545 0.930 . S
C2554 C2552 1.384 . S
C2554 C2555 1.372 . S
C2555 C2554 1.372 . S
C2555 C2556 1.400 . S
C2555 C2560 1.490 . S
C2556 H2546 0.930 . S
C2556 C2555 1.400 . S
C2556 C2559 1.386 . S
H2557 C2573 0.930 1_545 S
H2558 C2574 0.931 . S
C2559 H2547 0.929 . S
C2559 C2553 1.390 . S
C2559 C2556 1.386 . S
C2560 C2555 1.490 . S
C2560 C2562 1.395 . S
C2560 C2563 1.403 . S
H2561 C2567 0.930 . S
C2562 H2548 0.930 . S
C2562 C2560 1.395 . S
C2562 C2565 1.403 . S
C2563 C2560 1.403 . S
C2563 C2564 1.524 . S
C2563 C2567 1.400 . S
C2564 H2549 0.960 . S
C2564 H2550 0.960 . S
C2564 H2551 0.960 . S
C2564 C2563 1.524 . S
C2565 C2562 1.403 . S
C2565 C2566 1.392 . S
C2565 C2569 1.495 . S
C2566 C2565 1.392 . S
C2566 C2567 1.385 . S
C2566 C2568 1.478 . S
C2567 H2561 0.930 . S
C2567 C2563 1.400 . S
C2567 C2566 1.385 . S
C2568 C2566 1.478 . S
C2568 C2570 1.381 . S
C2568 C2574 1.383 . S
C2569 C2565 1.495 . S
C2569 H2575 0.959 . S
C2569 H2576 0.961 . S
C2569 H2577 0.960 . S
C2570 C2568 1.381 . S
C2570 C2571 1.394 . S
C2570 H2578 0.930 . S
C2571 C2570 1.394 . S
C2571 C2572 1.383 . S
C2571 H2579 0.929 . S
C2572 C2571 1.383 . S
C2572 C2573 1.377 . S
C2573 H2557 0.930 1_565 S
C2573 C2572 1.377 . S
C2573 C2574 1.379 . S
C2574 H2558 0.931 . S
C2574 C2568 1.383 . S
C2574 C2573 1.379 . S
H2575 C2569 0.959 . S
H2576 C2569 0.961 . S
H2577 C2569 0.960 . S
H2578 C2570 0.930 . S
H2579 C2571 0.929 . S
H2580 C2588 0.929 . S
H2581 C2590 0.930 . S
H2582 C2592 0.930 . S
H2583 C2595 0.929 . S
H2584 C2598 0.930 . S
H2585 C2600 0.960 . S
H2586 C2600 0.960 . S
H2587 C2600 0.960 . S
C2588 H2580 0.929 . S
C2588 C2589 1.377 . S
C2588 C2590 1.384 . S
C2589 C2588 1.377 . S
C2589 C2595 1.390 . S
C2590 H2581 0.930 . S
C2590 C2588 1.384 . S
C2590 C2591 1.372 . S
C2591 C2590 1.372 . S
C2591 C2592 1.400 . S
C2591 C2596 1.490 . S
C2592 H2582 0.930 . S
C2592 C2591 1.400 . S
C2592 C2595 1.386 . S
H2593 C2609 0.930 . S
H2594 C2610 0.931 . S
C2595 H2583 0.929 . S
C2595 C2589 1.390 . S
C2595 C2592 1.386 . S
C2596 C2591 1.490 . S
C2596 C2598 1.395 . S
C2596 C2599 1.403 . S
H2597 C2603 0.930 . S
C2598 H2584 0.930 . S
C2598 C2596 1.395 . S
C2598 C2601 1.403 . S
C2599 C2596 1.403 . S
C2599 C2600 1.524 . S
C2599 C2603 1.400 . S
C2600 H2585 0.960 . S
C2600 H2586 0.960 . S
C2600 H2587 0.960 . S
C2600 C2599 1.524 . S
C2601 C2598 1.403 . S
C2601 C2602 1.392 . S
C2601 C2605 1.495 . S
C2602 C2601 1.392 . S
C2602 C2603 1.385 . S
C2602 C2604 1.478 . S
C2603 H2597 0.930 . S
C2603 C2599 1.400 . S
C2603 C2602 1.385 . S
C2604 C2602 1.478 . S
C2604 C2606 1.381 . S
C2604 C2610 1.383 . S
C2605 C2601 1.495 . S
C2605 H2611 0.959 . S
C2605 H2612 0.961 . S
C2605 H2613 0.960 . S
C2606 C2604 1.381 . S
C2606 C2607 1.394 . S
C2606 H2614 0.930 . S
C2607 C2606 1.394 . S
C2607 C2608 1.383 . S
C2607 H2615 0.929 . S
C2608 C2607 1.383 . S
C2608 C2609 1.377 . S
C2609 H2593 0.930 . S
C2609 C2608 1.377 . S
C2609 C2610 1.379 . S
C2610 H2594 0.931 . S
C2610 C2604 1.383 . S
C2610 C2609 1.379 . S
H2611 C2605 0.959 . S
H2612 C2605 0.961 . S
H2613 C2605 0.960 . S
H2614 C2606 0.930 . S
H2615 C2607 0.929 . S
H2616 C2624 0.929 . S
H2617 C2626 0.930 . S
H2618 C2628 0.930 . S
H2619 C2631 0.929 . S
H2620 C2634 0.930 . S
H2621 C2636 0.960 . S
H2622 C2636 0.960 . S
H2623 C2636 0.960 . S
C2624 H2616 0.929 . S
C2624 C2625 1.377 . S
C2624 C2626 1.384 . S
C2625 C2624 1.377 . S
C2625 C2631 1.390 . S
C2626 H2617 0.930 . S
C2626 C2624 1.384 . S
C2626 C2627 1.372 . S
C2627 C2626 1.372 . S
C2627 C2628 1.400 . S
C2627 C2632 1.490 . S
C2628 H2618 0.930 . S
C2628 C2627 1.400 . S
C2628 C2631 1.386 . S
H2629 C2645 0.930 . S
H2630 C2646 0.931 . S
C2631 H2619 0.929 . S
C2631 C2625 1.390 . S
C2631 C2628 1.386 . S
C2632 C2627 1.490 . S
C2632 C2634 1.395 . S
C2632 C2635 1.403 . S
H2633 C2639 0.930 . S
C2634 H2620 0.930 . S
C2634 C2632 1.395 . S
C2634 C2637 1.403 . S
C2635 C2632 1.403 . S
C2635 C2636 1.524 . S
C2635 C2639 1.400 . S
C2636 H2621 0.960 . S
C2636 H2622 0.960 . S
C2636 H2623 0.960 . S
C2636 C2635 1.524 . S
C2637 C2634 1.403 . S
C2637 C2638 1.392 . S
C2637 C2641 1.495 . S
C2638 C2637 1.392 . S
C2638 C2639 1.385 . S
C2638 C2640 1.478 . S
C2639 H2633 0.930 . S
C2639 C2635 1.400 . S
C2639 C2638 1.385 . S
C2640 C2638 1.478 . S
C2640 C2642 1.381 . S
C2640 C2646 1.383 . S
C2641 C2637 1.495 . S
C2641 H2647 0.959 . S
C2641 H2648 0.961 . S
C2641 H2649 0.960 . S
C2642 C2640 1.381 . S
C2642 C2643 1.394 . S
C2642 H2650 0.930 . S
C2643 C2642 1.394 . S
C2643 C2644 1.383 . S
C2643 H2651 0.929 . S
C2644 C2643 1.383 . S
C2644 C2645 1.377 . S
C2645 H2629 0.930 . S
C2645 C2644 1.377 . S
C2645 C2646 1.379 . S
C2646 H2630 0.931 . S
C2646 C2640 1.383 . S
C2646 C2645 1.379 . S
H2647 C2641 0.959 . S
H2648 C2641 0.961 . S
H2649 C2641 0.960 . S
H2650 C2642 0.930 . S
H2651 C2643 0.929 . S
H2652 C2660 0.929 . S
H2653 C2662 0.930 . S
H2654 C2664 0.930 . S
H2655 C2667 0.929 . S
H2656 C2670 0.930 . S
H2657 C2672 0.960 . S
H2658 C2672 0.960 . S
H2659 C2672 0.960 . S
C2660 H2652 0.929 . S
C2660 C2661 1.377 . S
C2660 C2662 1.384 . S
C2661 C2660 1.377 . S
C2661 C2667 1.390 . S
C2662 H2653 0.930 . S
C2662 C2660 1.384 . S
C2662 C2663 1.372 . S
C2663 C2662 1.372 . S
C2663 C2664 1.400 . S
C2663 C2668 1.490 . S
C2664 H2654 0.930 . S
C2664 C2663 1.400 . S
C2664 C2667 1.386 . S
H2665 C2681 0.930 . S
H2666 C2682 0.931 . S
C2667 H2655 0.929 . S
C2667 C2661 1.390 . S
C2667 C2664 1.386 . S
C2668 C2663 1.490 . S
C2668 C2670 1.395 . S
C2668 C2671 1.403 . S
H2669 C2675 0.930 . S
C2670 H2656 0.930 . S
C2670 C2668 1.395 . S
C2670 C2673 1.403 . S
C2671 C2668 1.403 . S
C2671 C2672 1.524 . S
C2671 C2675 1.400 . S
C2672 H2657 0.960 . S
C2672 H2658 0.960 . S
C2672 H2659 0.960 . S
C2672 C2671 1.524 . S
C2673 C2670 1.403 . S
C2673 C2674 1.392 . S
C2673 C2677 1.495 . S
C2674 C2673 1.392 . S
C2674 C2675 1.385 . S
C2674 C2676 1.478 . S
C2675 H2669 0.930 . S
C2675 C2671 1.400 . S
C2675 C2674 1.385 . S
C2676 C2674 1.478 . S
C2676 C2678 1.381 . S
C2676 C2682 1.383 . S
C2677 C2673 1.495 . S
C2677 H2683 0.959 . S
C2677 H2684 0.961 . S
C2677 H2685 0.960 . S
C2678 C2676 1.381 . S
C2678 C2679 1.394 . S
C2678 H2686 0.930 . S
C2679 C2678 1.394 . S
C2679 C2680 1.383 . S
C2679 H2687 0.929 . S
C2680 C2679 1.383 . S
C2680 C2681 1.377 . S
C2681 H2665 0.930 . S
C2681 C2680 1.377 . S
C2681 C2682 1.379 . S
C2682 H2666 0.931 . S
C2682 C2676 1.383 . S
C2682 C2681 1.379 . S
H2683 C2677 0.959 . S
H2684 C2677 0.961 . S
H2685 C2677 0.960 . S
H2686 C2678 0.930 . S
H2687 C2679 0.929 . S
H2688 C2696 0.929 . S
H2689 C2698 0.930 . S
H2690 C2700 0.930 . S
H2691 C2703 0.929 . S
H2692 C2706 0.930 . S
H2693 C2708 0.960 . S
H2694 C2708 0.960 . S
H2695 C2708 0.960 . S
C2696 H2688 0.929 . S
C2696 C2697 1.377 . S
C2696 C2698 1.384 . S
C2697 C2696 1.377 . S
C2697 C2703 1.390 . S
C2698 H2689 0.930 . S
C2698 C2696 1.384 . S
C2698 C2699 1.372 . S
C2699 C2698 1.372 . S
C2699 C2700 1.400 . S
C2699 C2704 1.490 . S
C2700 H2690 0.930 . S
C2700 C2699 1.400 . S
C2700 C2703 1.386 . S
H2701 C2717 0.930 . S
H2702 C2718 0.931 . S
C2703 H2691 0.929 . S
C2703 C2697 1.390 . S
C2703 C2700 1.386 . S
C2704 C2699 1.490 . S
C2704 C2706 1.395 . S
C2704 C2707 1.403 . S
H2705 C2711 0.930 . S
C2706 H2692 0.930 . S
C2706 C2704 1.395 . S
C2706 C2709 1.403 . S
C2707 C2704 1.403 . S
C2707 C2708 1.524 . S
C2707 C2711 1.400 . S
C2708 H2693 0.960 . S
C2708 H2694 0.960 . S
C2708 H2695 0.960 . S
C2708 C2707 1.524 . S
C2709 C2706 1.403 . S
C2709 C2710 1.392 . S
C2709 C2713 1.495 . S
C2710 C2709 1.392 . S
C2710 C2711 1.385 . S
C2710 C2712 1.478 . S
C2711 H2705 0.930 . S
C2711 C2707 1.400 . S
C2711 C2710 1.385 . S
C2712 C2710 1.478 . S
C2712 C2714 1.381 . S
C2712 C2718 1.383 . S
C2713 C2709 1.495 . S
C2713 H2719 0.959 . S
C2713 H2720 0.961 . S
C2713 H2721 0.960 . S
C2714 C2712 1.381 . S
C2714 C2715 1.394 . S
C2714 H2722 0.930 . S
C2715 C2714 1.394 . S
C2715 C2716 1.383 . S
C2715 H2723 0.929 . S
C2716 C2715 1.383 . S
C2716 C2717 1.377 . S
C2717 H2701 0.930 . S
C2717 C2716 1.377 . S
C2717 C2718 1.379 . S
C2718 H2702 0.931 . S
C2718 C2712 1.383 . S
C2718 C2717 1.379 . S
H2719 C2713 0.959 . S
H2720 C2713 0.961 . S
H2721 C2713 0.960 . S
H2722 C2714 0.930 . S
H2723 C2715 0.929 . S
H2724 C2732 0.929 . S
H2725 C2734 0.930 . S
H2726 C2736 0.930 . S
H2727 C2739 0.929 . S
H2728 C2742 0.930 . S
H2729 C2744 0.960 . S
H2730 C2744 0.960 . S
H2731 C2744 0.960 . S
C2732 H2724 0.929 . S
C2732 C2733 1.377 . S
C2732 C2734 1.384 . S
C2733 C2732 1.377 . S
C2733 C2739 1.390 . S
C2734 H2725 0.930 . S
C2734 C2732 1.384 . S
C2734 C2735 1.372 . S
C2735 C2734 1.372 . S
C2735 C2736 1.400 . S
C2735 C2740 1.490 . S
C2736 H2726 0.930 . S
C2736 C2735 1.400 . S
C2736 C2739 1.386 . S
H2737 C2753 0.930 . S
H2738 C2754 0.931 . S
C2739 H2727 0.929 . S
C2739 C2733 1.390 . S
C2739 C2736 1.386 . S
C2740 C2735 1.490 . S
C2740 C2742 1.395 . S
C2740 C2743 1.403 . S
H2741 C2747 0.930 . S
C2742 H2728 0.930 . S
C2742 C2740 1.395 . S
C2742 C2745 1.403 . S
C2743 C2740 1.403 . S
C2743 C2744 1.524 . S
C2743 C2747 1.400 . S
C2744 H2729 0.960 . S
C2744 H2730 0.960 . S
C2744 H2731 0.960 . S
C2744 C2743 1.524 . S
C2745 C2742 1.403 . S
C2745 C2746 1.392 . S
C2745 C2749 1.495 . S
C2746 C2745 1.392 . S
C2746 C2747 1.385 . S
C2746 C2748 1.478 . S
C2747 H2741 0.930 . S
C2747 C2743 1.400 . S
C2747 C2746 1.385 . S
C2748 C2746 1.478 . S
C2748 C2750 1.381 . S
C2748 C2754 1.383 . S
C2749 C2745 1.495 . S
C2749 H2755 0.959 . S
C2749 H2756 0.961 . S
C2749 H2757 0.960 . S
C2750 C2748 1.381 . S
C2750 C2751 1.394 . S
C2750 H2758 0.930 . S
C2751 C2750 1.394 . S
C2751 C2752 1.383 . S
C2751 H2759 0.929 . S
C2752 C2751 1.383 . S
C2752 C2753 1.377 . S
C2753 H2737 0.930 . S
C2753 C2752 1.377 . S
C2753 C2754 1.379 . S
C2754 H2738 0.931 . S
C2754 C2748 1.383 . S
C2754 C2753 1.379 . S
H2755 C2749 0.959 . S
H2756 C2749 0.961 . S
H2757 C2749 0.960 . S
H2758 C2750 0.930 . S
H2759 C2751 0.929 . S
H2760 C2768 0.929 . S
H2761 C2770 0.930 . S
H2762 C2772 0.930 . S
H2763 C2775 0.929 . S
H2764 C2778 0.930 . S
H2765 C2780 0.960 . S
H2766 C2780 0.960 . S
H2767 C2780 0.960 . S
C2768 H2760 0.929 . S
C2768 C2769 1.377 . S
C2768 C2770 1.384 . S
C2769 C2768 1.377 . S
C2769 C2775 1.390 . S
C2770 H2761 0.930 . S
C2770 C2768 1.384 . S
C2770 C2771 1.372 . S
C2771 C2770 1.372 . S
C2771 C2772 1.400 . S
C2771 C2776 1.490 . S
C2772 H2762 0.930 . S
C2772 C2771 1.400 . S
C2772 C2775 1.386 . S
H2773 C2789 0.930 . S
H2774 C2790 0.931 . S
C2775 H2763 0.929 . S
C2775 C2769 1.390 . S
C2775 C2772 1.386 . S
C2776 C2771 1.490 . S
C2776 C2778 1.395 . S
C2776 C2779 1.403 . S
H2777 C2783 0.930 . S
C2778 H2764 0.930 . S
C2778 C2776 1.395 . S
C2778 C2781 1.403 . S
C2779 C2776 1.403 . S
C2779 C2780 1.524 . S
C2779 C2783 1.400 . S
C2780 H2765 0.960 . S
C2780 H2766 0.960 . S
C2780 H2767 0.960 . S
C2780 C2779 1.524 . S
C2781 C2778 1.403 . S
C2781 C2782 1.392 . S
C2781 C2785 1.495 . S
C2782 C2781 1.392 . S
C2782 C2783 1.385 . S
C2782 C2784 1.478 . S
C2783 H2777 0.930 . S
C2783 C2779 1.400 . S
C2783 C2782 1.385 . S
C2784 C2782 1.478 . S
C2784 C2786 1.381 . S
C2784 C2790 1.383 . S
C2785 C2781 1.495 . S
C2785 H2791 0.959 . S
C2785 H2792 0.961 . S
C2785 H2793 0.960 1_556 S
C2786 C2784 1.381 . S
C2786 C2787 1.394 1_556 S
C2786 H2794 0.930 1_556 S
C2787 C2786 1.394 1_554 S
C2787 C2788 1.398 . S
C2787 H2795 0.929 . S
C2788 C2787 1.398 . S
C2788 C2789 1.374 1_564 S
C2789 H2773 0.930 . S
C2789 C2788 1.374 1_546 S
C2789 C2790 1.379 1_545 S
C2790 H2774 0.931 . S
C2790 C2784 1.383 . S
C2790 C2789 1.379 1_565 S
H2791 C2785 0.959 . S
H2792 C2785 0.961 . S
H2793 C2785 0.960 1_554 S
H2794 C2786 0.930 1_554 S
H2795 C2787 0.929 . S
H2796 C2804 0.929 . S
H2797 C2806 0.930 . S
H2798 C2808 0.930 . S
H2799 C2811 0.929 . S
H2800 C2814 0.930 . S
H2801 C2816 0.960 . S
H2802 C2816 0.960 . S
H2803 C2816 0.960 . S
C2804 H2796 0.929 . S
C2804 C2805 1.377 . S
C2804 C2806 1.384 . S
C2805 C2804 1.377 . S
C2805 C2811 1.390 . S
C2806 H2797 0.930 . S
C2806 C2804 1.384 . S
C2806 C2807 1.372 . S
C2807 C2806 1.372 . S
C2807 C2808 1.400 . S
C2807 C2812 1.490 . S
C2808 H2798 0.930 . S
C2808 C2807 1.400 . S
C2808 C2811 1.386 . S
H2809 C2825 0.930 . S
H2810 C2826 0.931 . S
C2811 H2799 0.929 . S
C2811 C2805 1.390 . S
C2811 C2808 1.386 . S
C2812 C2807 1.490 . S
C2812 C2814 1.395 . S
C2812 C2815 1.403 . S
H2813 C2819 0.930 . S
C2814 H2800 0.930 . S
C2814 C2812 1.395 . S
C2814 C2817 1.403 . S
C2815 C2812 1.403 . S
C2815 C2816 1.524 . S
C2815 C2819 1.400 . S
C2816 H2801 0.960 . S
C2816 H2802 0.960 . S
C2816 H2803 0.960 . S
C2816 C2815 1.524 . S
C2817 C2814 1.403 . S
C2817 C2818 1.392 . S
C2817 C2821 1.495 . S
C2818 C2817 1.392 . S
C2818 C2819 1.385 . S
C2818 C2820 1.478 . S
C2819 H2813 0.930 . S
C2819 C2815 1.400 . S
C2819 C2818 1.385 . S
C2820 C2818 1.478 . S
C2820 C2822 1.381 . S
C2820 C2826 1.383 . S
C2821 C2817 1.495 . S
C2821 H2827 0.959 . S
C2821 H2828 0.961 . S
C2821 H2829 0.960 . S
C2822 C2820 1.381 . S
C2822 C2823 1.394 . S
C2822 H2830 0.930 . S
C2823 C2822 1.394 . S
C2823 C2824 1.383 . S
C2823 H2831 0.929 . S
C2824 C2823 1.383 . S
C2824 C2825 1.377 . S
C2825 H2809 0.930 . S
C2825 C2824 1.377 . S
C2825 C2826 1.379 . S
C2826 H2810 0.931 . S
C2826 C2820 1.383 . S
C2826 C2825 1.379 . S
H2827 C2821 0.959 . S
H2828 C2821 0.961 . S
H2829 C2821 0.960 . S
H2830 C2822 0.930 . S
H2831 C2823 0.929 . S
H2832 C2840 0.929 . S
H2833 C2842 0.930 . S
H2834 C2844 0.930 . S
H2835 C2847 0.929 . S
H2836 C2850 0.930 1_565 S
H2837 C2852 0.960 . S
H2838 C2852 0.960 . S
H2839 C2852 0.960 . S
C2840 H2832 0.929 . S
C2840 C2841 1.377 . S
C2840 C2842 1.384 . S
C2841 C2840 1.377 . S
C2841 C2847 1.390 . S
C2842 H2833 0.930 . S
C2842 C2840 1.384 . S
C2842 C2843 1.372 . S
C2843 C2842 1.372 . S
C2843 C2844 1.400 . S
C2843 C2848 1.490 . S
C2844 H2834 0.930 . S
C2844 C2843 1.400 . S
C2844 C2847 1.386 . S
H2845 C2861 0.930 . S
H2846 C2862 0.931 . S
C2847 H2835 0.929 . S
C2847 C2841 1.390 . S
C2847 C2844 1.386 . S
C2848 C2843 1.490 . S
C2848 C2850 1.395 . S
C2848 C2851 1.403 . S
H2849 C2855 0.930 . S
C2850 H2836 0.930 1_545 S
C2850 C2848 1.395 . S
C2850 C2853 1.403 . S
C2851 C2848 1.403 . S
C2851 C2852 1.524 . S
C2851 C2855 1.400 . S
C2852 H2837 0.960 . S
C2852 H2838 0.960 . S
C2852 H2839 0.960 . S
C2852 C2851 1.524 . S
C2853 C2850 1.403 . S
C2853 C2854 1.392 . S
C2853 C2857 1.495 1_545 S
C2854 C2853 1.392 . S
C2854 C2855 1.385 . S
C2854 C2856 1.478 . S
C2855 H2849 0.930 . S
C2855 C2851 1.400 . S
C2855 C2854 1.385 . S
C2856 C2854 1.478 . S
C2856 C2858 1.381 . S
C2856 C2862 1.383 . S
C2857 C2853 1.495 1_565 S
C2857 H2863 0.959 . S
C2857 H2864 0.961 . S
C2857 H2865 0.960 . S
C2858 C2856 1.381 . S
C2858 C2859 1.394 . S
C2858 H2866 0.930 . S
C2859 C2858 1.394 . S
C2859 C2860 1.383 . S
C2859 H2867 0.929 . S
C2860 C2859 1.383 . S
C2860 C2861 1.377 . S
C2861 H2845 0.930 . S
C2861 C2860 1.377 . S
C2861 C2862 1.379 . S
C2862 H2846 0.931 . S
C2862 C2856 1.383 . S
C2862 C2861 1.379 . S
H2863 C2857 0.959 . S
H2864 C2857 0.961 . S
H2865 C2857 0.960 . S
H2866 C2858 0.930 . S
H2867 C2859 0.929 . S
H2868 C2876 0.929 . S
H2869 C2878 0.930 . S
H2870 C2880 0.930 . S
H2871 C2883 0.929 . S
H2872 C2886 0.930 . S
H2873 C2888 0.960 . S
H2874 C2888 0.960 . S
H2875 C2888 0.960 . S
C2876 H2868 0.929 . S
C2876 C2877 1.377 . S
C2876 C2878 1.384 . S
C2877 C2876 1.377 . S
C2877 C2883 1.390 . S
C2878 H2869 0.930 . S
C2878 C2876 1.384 . S
C2878 C2879 1.372 . S
C2879 C2878 1.372 . S
C2879 C2880 1.400 . S
C2879 C2884 1.490 . S
C2880 H2870 0.930 . S
C2880 C2879 1.400 . S
C2880 C2883 1.386 . S
H2881 C2897 0.930 . S
H2882 C2898 0.931 . S
C2883 H2871 0.929 . S
C2883 C2877 1.390 . S
C2883 C2880 1.386 . S
C2884 C2879 1.490 . S
C2884 C2886 1.395 . S
C2884 C2887 1.403 . S
H2885 C2891 0.930 . S
C2886 H2872 0.930 . S
C2886 C2884 1.395 . S
C2886 C2889 1.403 . S
C2887 C2884 1.403 . S
C2887 C2888 1.524 . S
C2887 C2891 1.400 . S
C2888 H2873 0.960 . S
C2888 H2874 0.960 . S
C2888 H2875 0.960 . S
C2888 C2887 1.524 . S
C2889 C2886 1.403 . S
C2889 C2890 1.392 . S
C2889 C2893 1.495 . S
C2890 C2889 1.392 . S
C2890 C2891 1.385 . S
C2890 C2892 1.478 . S
C2891 H2885 0.930 . S
C2891 C2887 1.400 . S
C2891 C2890 1.385 . S
C2892 C2890 1.478 . S
C2892 C2894 1.381 . S
C2892 C2898 1.383 . S
C2893 C2889 1.495 . S
C2893 H2899 0.959 . S
C2893 H2900 0.961 . S
C2893 H2901 0.960 . S
C2894 C2892 1.381 . S
C2894 C2895 1.394 . S
C2894 H2902 0.930 . S
C2895 C2894 1.394 . S
C2895 C2896 1.383 . S
C2895 H2903 0.929 . S
C2896 C2895 1.383 . S
C2896 C2897 1.377 . S
C2897 H2881 0.930 . S
C2897 C2896 1.377 . S
C2897 C2898 1.379 . S
C2898 H2882 0.931 . S
C2898 C2892 1.383 . S
C2898 C2897 1.379 . S
H2899 C2893 0.959 . S
H2900 C2893 0.961 . S
H2901 C2893 0.960 . S
H2902 C2894 0.930 . S
H2903 C2895 0.929 . S
H2904 C2912 0.929 . S
H2905 C2914 0.930 . S
H2906 C2916 0.930 . S
H2907 C2919 0.929 . S
H2908 C2922 0.930 . S
H2909 C2924 0.960 . S
H2910 C2924 0.960 . S
H2911 C2924 0.960 . S
C2912 H2904 0.929 . S
C2912 C2913 1.377 . S
C2912 C2914 1.384 . S
C2913 C2912 1.377 . S
C2913 C2919 1.390 . S
C2914 H2905 0.930 . S
C2914 C2912 1.384 . S
C2914 C2915 1.372 . S
C2915 C2914 1.372 . S
C2915 C2916 1.400 . S
C2915 C2920 1.490 . S
C2916 H2906 0.930 . S
C2916 C2915 1.400 . S
C2916 C2919 1.386 . S
H2917 C2933 0.930 . S
H2918 C2934 0.931 . S
C2919 H2907 0.929 . S
C2919 C2913 1.390 . S
C2919 C2916 1.386 . S
C2920 C2915 1.490 . S
C2920 C2922 1.395 . S
C2920 C2923 1.403 . S
H2921 C2927 0.930 . S
C2922 H2908 0.930 . S
C2922 C2920 1.395 . S
C2922 C2925 1.403 . S
C2923 C2920 1.403 . S
C2923 C2924 1.524 . S
C2923 C2927 1.400 . S
C2924 H2909 0.960 . S
C2924 H2910 0.960 . S
C2924 H2911 0.960 . S
C2924 C2923 1.524 . S
C2925 C2922 1.403 . S
C2925 C2926 1.392 . S
C2925 C2929 1.495 . S
C2926 C2925 1.392 . S
C2926 C2927 1.385 . S
C2926 C2928 1.478 . S
C2927 H2921 0.930 . S
C2927 C2923 1.400 . S
C2927 C2926 1.385 . S
C2928 C2926 1.478 . S
C2928 C2930 1.381 . S
C2928 C2934 1.383 . S
C2929 C2925 1.495 . S
C2929 H2935 0.959 . S
C2929 H2936 0.961 . S
C2929 H2937 0.960 . S
C2930 C2928 1.381 . S
C2930 C2931 1.394 . S
C2930 H2938 0.930 . S
C2931 C2930 1.394 . S
C2931 C2932 1.383 . S
C2931 H2939 0.929 . S
C2932 C2931 1.383 . S
C2932 C2933 1.377 . S
C2933 H2917 0.930 . S
C2933 C2932 1.377 . S
C2933 C2934 1.379 . S
C2934 H2918 0.931 . S
C2934 C2928 1.383 . S
C2934 C2933 1.379 . S
H2935 C2929 0.959 . S
H2936 C2929 0.961 . S
H2937 C2929 0.960 . S
H2938 C2930 0.930 . S
H2939 C2931 0.929 . S
H2940 C2948 0.929 . S
H2941 C2950 0.930 . S
H2942 C2952 0.930 . S
H2943 C2955 0.929 . S
H2944 C2958 0.930 . S
H2945 C2960 0.960 . S
H2946 C2960 0.960 . S
H2947 C2960 0.960 . S
C2948 H2940 0.929 . S
C2948 C2949 1.377 . S
C2948 C2950 1.384 . S
C2949 C2948 1.377 . S
C2949 C2955 1.390 . S
C2950 H2941 0.930 . S
C2950 C2948 1.384 . S
C2950 C2951 1.372 . S
C2951 C2950 1.372 . S
C2951 C2952 1.400 . S
C2951 C2956 1.490 . S
C2952 H2942 0.930 . S
C2952 C2951 1.400 . S
C2952 C2955 1.386 . S
H2953 C2969 0.930 . S
H2954 C2970 0.931 . S
C2955 H2943 0.929 . S
C2955 C2949 1.390 . S
C2955 C2952 1.386 . S
C2956 C2951 1.490 . S
C2956 C2958 1.395 . S
C2956 C2959 1.403 . S
H2957 C2963 0.930 . S
C2958 H2944 0.930 . S
C2958 C2956 1.395 . S
C2958 C2961 1.403 . S
C2959 C2956 1.403 . S
C2959 C2960 1.524 . S
C2959 C2963 1.400 . S
C2960 H2945 0.960 . S
C2960 H2946 0.960 . S
C2960 H2947 0.960 . S
C2960 C2959 1.524 . S
C2961 C2958 1.403 . S
C2961 C2962 1.392 . S
C2961 C2965 1.495 . S
C2962 C2961 1.392 . S
C2962 C2963 1.385 . S
C2962 C2964 1.478 . S
C2963 H2957 0.930 . S
C2963 C2959 1.400 . S
C2963 C2962 1.385 . S
C2964 C2962 1.478 . S
C2964 C2966 1.381 . S
C2964 C2970 1.383 . S
C2965 C2961 1.495 . S
C2965 H2971 0.959 . S
C2965 H2972 0.961 . S
C2965 H2973 0.960 . S
C2966 C2964 1.381 . S
C2966 C2967 1.394 . S
C2966 H2974 0.930 . S
C2967 C2966 1.394 . S
C2967 C2968 1.383 . S
C2967 H2975 0.929 . S
C2968 C2967 1.383 . S
C2968 C2969 1.377 . S
C2969 H2953 0.930 . S
C2969 C2968 1.377 . S
C2969 C2970 1.379 . S
C2970 H2954 0.931 . S
C2970 C2964 1.383 . S
C2970 C2969 1.379 . S
H2971 C2965 0.959 . S
H2972 C2965 0.961 . S
H2973 C2965 0.960 . S
H2974 C2966 0.930 . S
H2975 C2967 0.929 . S
H2976 C2984 0.929 . S
H2977 C2986 0.930 . S
H2978 C2988 0.930 . S
H2979 C2991 0.929 . S
H2980 C2994 0.930 . S
H2981 C2996 0.960 . S
H2982 C2996 0.960 . S
H2983 C2996 0.960 . S
C2984 H2976 0.929 . S
C2984 C2985 1.377 1_565 S
C2984 C2986 1.384 . S
C2985 C2984 1.377 1_545 S
C2985 C2991 1.390 . S
C2986 H2977 0.930 . S
C2986 C2984 1.384 . S
C2986 C2987 1.372 1_565 S
C2987 C2986 1.372 1_545 S
C2987 C2988 1.400 . S
C2987 C2992 1.490 . S
C2988 H2978 0.930 . S
C2988 C2987 1.400 . S
C2988 C2991 1.386 . S
H2989 C3005 0.930 . S
H2990 C3006 0.931 . S
C2991 H2979 0.929 . S
C2991 C2985 1.390 . S
C2991 C2988 1.386 . S
C2992 C2987 1.490 . S
C2992 C2994 1.395 1_545 S
C2992 C2995 1.403 . S
H2993 C2999 0.930 . S
C2994 H2980 0.930 . S
C2994 C2992 1.395 1_565 S
C2994 C2997 1.421 . S
C2995 C2992 1.403 . S
C2995 C2996 1.524 . S
C2995 C2999 1.400 . S
C2996 H2981 0.960 . S
C2996 H2982 0.960 . S
C2996 H2983 0.960 . S
C2996 C2995 1.524 . S
C2997 C2994 1.421 . S
C2997 C2998 1.351 1_565 S
C2997 C3001 1.520 . S
C2998 C2997 1.351 1_545 S
C2998 C2999 1.385 . S
C2998 C3000 1.478 . S
C2999 H2993 0.930 . S
C2999 C2995 1.400 . S
C2999 C2998 1.385 . S
C3000 C2998 1.478 . S
C3000 C3002 1.381 . S
C3000 C3006 1.383 . S
C3001 C2997 1.520 . S
C3001 H3007 0.959 . S
C3001 H3008 0.961 . S
C3001 H3009 0.960 . S
C3002 C3000 1.381 . S
C3002 C3003 1.394 . S
C3002 H3010 0.930 . S
C3003 C3002 1.394 . S
C3003 C3004 1.383 . S
C3003 H3011 0.929 . S
C3004 C3003 1.383 . S
C3004 C3005 1.377 . S
C3005 H2989 0.930 . S
C3005 C3004 1.377 . S
C3005 C3006 1.379 . S
C3006 H2990 0.931 . S
C3006 C3000 1.383 . S
C3006 C3005 1.379 . S
H3007 C3001 0.959 . S
H3008 C3001 0.961 . S
H3009 C3001 0.960 . S
H3010 C3002 0.930 . S
H3011 C3003 0.929 . S
H3012 C3020 0.929 . S
H3013 C3022 0.930 . S
H3014 C3024 0.930 . S
H3015 C3027 0.929 . S
H3016 C3030 0.930 . S
H3017 C3032 0.960 . S
H3018 C3032 0.960 . S
H3019 C3032 0.960 . S
C3020 H3012 0.929 . S
C3020 C3021 1.377 . S
C3020 C3022 1.384 . S
C3021 C3020 1.377 . S
C3021 C3027 1.390 . S
C3022 H3013 0.930 . S
C3022 C3020 1.384 . S
C3022 C3023 1.372 . S
C3023 C3022 1.372 . S
C3023 C3024 1.400 . S
C3023 C3028 1.490 . S
C3024 H3014 0.930 . S
C3024 C3023 1.400 . S
C3024 C3027 1.386 . S
H3025 C3041 0.930 . S
H3026 C3042 0.931 . S
C3027 H3015 0.929 . S
C3027 C3021 1.390 . S
C3027 C3024 1.386 . S
C3028 C3023 1.490 . S
C3028 C3030 1.395 . S
C3028 C3031 1.403 . S
H3029 C3035 0.930 . S
C3030 H3016 0.930 . S
C3030 C3028 1.395 . S
C3030 C3033 1.403 . S
C3031 C3028 1.403 . S
C3031 C3032 1.524 . S
C3031 C3035 1.400 . S
C3032 H3017 0.960 . S
C3032 H3018 0.960 . S
C3032 H3019 0.960 . S
C3032 C3031 1.524 . S
C3033 C3030 1.403 . S
C3033 C3034 1.392 . S
C3033 C3037 1.495 . S
C3034 C3033 1.392 . S
C3034 C3035 1.385 . S
C3034 C3036 1.478 . S
C3035 H3029 0.930 . S
C3035 C3031 1.400 . S
C3035 C3034 1.385 . S
C3036 C3034 1.478 . S
C3036 C3038 1.381 . S
C3036 C3042 1.383 . S
C3037 C3033 1.495 . S
C3037 H3043 0.959 . S
C3037 H3044 0.961 . S
C3037 H3045 0.960 . S
C3038 C3036 1.381 . S
C3038 C3039 1.394 . S
C3038 H3046 0.930 . S
C3039 C3038 1.394 . S
C3039 C3040 1.383 . S
C3039 H3047 0.929 . S
C3040 C3039 1.383 . S
C3040 C3041 1.377 . S
C3041 H3025 0.930 . S
C3041 C3040 1.377 . S
C3041 C3042 1.379 . S
C3042 H3026 0.931 . S
C3042 C3036 1.383 . S
C3042 C3041 1.379 . S
H3043 C3037 0.959 . S
H3044 C3037 0.961 . S
H3045 C3037 0.960 . S
H3046 C3038 0.930 . S
H3047 C3039 0.929 . S
H3048 C3056 0.929 . S
H3049 C3058 0.930 . S
H3050 C3060 0.930 . S
H3051 C3063 0.929 . S
H3052 C3066 0.930 . S
H3053 C3068 0.960 . S
H3054 C3068 0.960 . S
H3055 C3068 0.960 . S
C3056 H3048 0.929 . S
C3056 C3057 1.377 . S
C3056 C3058 1.384 . S
C3057 C3056 1.377 . S
C3057 C3063 1.390 . S
C3058 H3049 0.930 . S
C3058 C3056 1.384 . S
C3058 C3059 1.372 . S
C3059 C3058 1.372 . S
C3059 C3060 1.400 . S
C3059 C3064 1.490 . S
C3060 H3050 0.930 . S
C3060 C3059 1.400 . S
C3060 C3063 1.386 . S
H3061 C3077 0.930 . S
H3062 C3078 0.931 . S
C3063 H3051 0.929 . S
C3063 C3057 1.390 . S
C3063 C3060 1.386 . S
C3064 C3059 1.490 . S
C3064 C3066 1.395 . S
C3064 C3067 1.403 . S
H3065 C3071 0.930 . S
C3066 H3052 0.930 . S
C3066 C3064 1.395 . S
C3066 C3069 1.403 . S
C3067 C3064 1.403 . S
C3067 C3068 1.524 1_545 S
C3067 C3071 1.400 . S
C3068 H3053 0.960 . S
C3068 H3054 0.960 . S
C3068 H3055 0.960 . S
C3068 C3067 1.524 1_565 S
C3069 C3066 1.403 . S
C3069 C3070 1.392 . S
C3069 C3073 1.495 . S
C3070 C3069 1.392 . S
C3070 C3071 1.385 . S
C3070 C3072 1.478 . S
C3071 H3065 0.930 . S
C3071 C3067 1.400 . S
C3071 C3070 1.385 . S
C3072 C3070 1.478 . S
C3072 C3074 1.381 . S
C3072 C3078 1.383 . S
C3073 C3069 1.495 . S
C3073 H3079 0.959 . S
C3073 H3080 0.961 . S
C3073 H3081 0.960 . S
C3074 C3072 1.381 . S
C3074 C3075 1.394 . S
C3074 H3082 0.930 . S
C3075 C3074 1.394 . S
C3075 C3076 1.383 . S
C3075 H3083 0.929 . S
C3076 C3075 1.383 . S
C3076 C3077 1.377 . S
C3077 H3061 0.930 . S
C3077 C3076 1.377 . S
C3077 C3078 1.379 . S
C3078 H3062 0.931 . S
C3078 C3072 1.383 . S
C3078 C3077 1.379 . S
H3079 C3073 0.959 . S
H3080 C3073 0.961 . S
H3081 C3073 0.960 . S
H3082 C3074 0.930 . S
H3083 C3075 0.929 . S
H3084 C3092 0.929 . S
H3085 C3094 0.930 . S
H3086 C3096 0.930 . S
H3087 C3099 0.929 . S
H3088 C3102 0.930 . S
H3089 C3104 0.960 . S
H3090 C3104 0.960 . S
H3091 C3104 0.960 . S
C3092 H3084 0.929 . S
C3092 C3093 1.377 . S
C3092 C3094 1.384 . S
C3093 C3092 1.377 . S
C3093 C3099 1.390 . S
C3094 H3085 0.930 . S
C3094 C3092 1.384 . S
C3094 C3095 1.372 . S
C3095 C3094 1.372 . S
C3095 C3096 1.400 . S
C3095 C3100 1.490 . S
C3096 H3086 0.930 . S
C3096 C3095 1.400 . S
C3096 C3099 1.386 . S
H3097 C3113 0.930 . S
H3098 C3114 0.931 . S
C3099 H3087 0.929 . S
C3099 C3093 1.390 . S
C3099 C3096 1.386 . S
C3100 C3095 1.490 . S
C3100 C3102 1.395 . S
C3100 C3103 1.403 . S
H3101 C3107 0.930 . S
C3102 H3088 0.930 . S
C3102 C3100 1.395 . S
C3102 C3105 1.403 . S
C3103 C3100 1.403 . S
C3103 C3104 1.524 . S
C3103 C3107 1.400 . S
C3104 H3089 0.960 . S
C3104 H3090 0.960 . S
C3104 H3091 0.960 . S
C3104 C3103 1.524 . S
C3105 C3102 1.403 . S
C3105 C3106 1.392 . S
C3105 C3109 1.495 . S
C3106 C3105 1.392 . S
C3106 C3107 1.385 . S
C3106 C3108 1.478 . S
C3107 H3101 0.930 . S
C3107 C3103 1.400 . S
C3107 C3106 1.385 . S
C3108 C3106 1.478 . S
C3108 C3110 1.381 . S
C3108 C3114 1.383 . S
C3109 C3105 1.495 . S
C3109 H3115 0.959 . S
C3109 H3116 0.961 . S
C3109 H3117 0.960 . S
C3110 C3108 1.381 . S
C3110 C3111 1.394 . S
C3110 H3118 0.930 . S
C3111 C3110 1.394 . S
C3111 C3112 1.383 . S
C3111 H3119 0.929 . S
C3112 C3111 1.383 . S
C3112 C3113 1.377 . S
C3113 H3097 0.930 . S
C3113 C3112 1.377 . S
C3113 C3114 1.379 . S
C3114 H3098 0.931 . S
C3114 C3108 1.383 . S
C3114 C3113 1.379 . S
H3115 C3109 0.959 . S
H3116 C3109 0.961 . S
H3117 C3109 0.960 . S
H3118 C3110 0.930 . S
H3119 C3111 0.929 . S
H3120 C3128 0.929 . S
H3121 C3130 0.930 . S
H3122 C3132 0.930 1_556 S
H3123 C3135 0.929 1_556 S
H3124 C3138 0.930 . S
H3125 C3140 0.960 . S
H3126 C3140 0.960 . S
H3127 C3140 0.960 . S
C3128 H3120 0.929 . S
C3128 C3129 1.377 . S
C3128 C3130 1.384 . S
C3129 C3128 1.377 . S
C3129 C3135 1.390 . S
C3130 H3121 0.930 . S
C3130 C3128 1.384 . S
C3130 C3131 1.372 . S
C3131 C3130 1.372 . S
C3131 C3132 1.400 . S
C3131 C3136 1.490 . S
C3132 H3122 0.930 1_554 S
C3132 C3131 1.400 . S
C3132 C3135 1.386 . S
H3133 C3149 0.979 . S
H3134 C3150 0.894 1_556 S
C3135 H3123 0.929 1_554 S
C3135 C3129 1.390 . S
C3135 C3132 1.386 . S
C3136 C3131 1.490 . S
C3136 C3138 1.395 . S
C3136 C3139 1.403 . S
H3137 C3143 0.930 . S
C3138 H3124 0.930 . S
C3138 C3136 1.395 . S
C3138 C3141 1.403 . S
C3139 C3136 1.403 . S
C3139 C3140 1.524 . S
C3139 C3143 1.400 . S
C3140 H3125 0.960 . S
C3140 H3126 0.960 . S
C3140 H3127 0.960 . S
C3140 C3139 1.524 . S
C3141 C3138 1.403 . S
C3141 C3142 1.392 . S
C3141 C3145 1.495 . S
C3142 C3141 1.392 . S
C3142 C3143 1.385 . S
C3142 C3144 1.478 . S
C3143 H3137 0.930 . S
C3143 C3139 1.400 . S
C3143 C3142 1.385 . S
C3144 C3142 1.478 . S
C3144 C3146 1.381 . S
C3144 C3150 1.423 . S
C3145 C3141 1.495 . S
C3145 H3151 0.959 . S
C3145 H3152 0.961 . S
C3145 H3153 0.960 . S
C3146 C3144 1.381 . S
C3146 C3147 1.394 . S
C3146 H3154 0.930 . S
C3147 C3146 1.394 . S
C3147 C3148 1.383 . S
C3147 H3155 0.929 . S
C3148 C3147 1.383 . S
C3148 C3149 1.332 1_554 S
C3149 H3133 0.979 . S
C3149 C3148 1.332 1_556 S
C3149 C3150 1.376 1_556 S
C3150 H3134 0.894 1_554 S
C3150 C3144 1.423 . S
C3150 C3149 1.376 1_554 S
H3151 C3145 0.959 . S
H3152 C3145 0.961 . S
H3153 C3145 0.960 . S
H3154 C3146 0.930 . S
H3155 C3147 0.929 . S
H3156 C3164 0.929 . S
H3157 C3166 0.930 . S
H3158 C3168 0.930 . S
H3159 C3171 0.929 . S
H3160 C3174 0.930 . S
H3161 C3176 0.960 . S
H3162 C3176 0.960 . S
H3163 C3176 0.960 . S
C3164 H3156 0.929 . S
C3164 C3165 1.377 . S
C3164 C3166 1.384 . S
C3165 C3164 1.377 . S
C3165 C3171 1.390 . S
C3166 H3157 0.930 . S
C3166 C3164 1.384 . S
C3166 C3167 1.372 . S
C3167 C3166 1.372 . S
C3167 C3168 1.400 . S
C3167 C3172 1.490 . S
C3168 H3158 0.930 . S
C3168 C3167 1.400 . S
C3168 C3171 1.386 . S
H3169 C3185 0.930 . S
H3170 C3186 0.931 . S
C3171 H3159 0.929 . S
C3171 C3165 1.390 . S
C3171 C3168 1.386 . S
C3172 C3167 1.490 . S
C3172 C3174 1.395 . S
C3172 C3175 1.403 . S
H3173 C3179 0.930 . S
C3174 H3160 0.930 . S
C3174 C3172 1.395 . S
C3174 C3177 1.403 . S
C3175 C3172 1.403 . S
C3175 C3176 1.524 . S
C3175 C3179 1.400 . S
C3176 H3161 0.960 . S
C3176 H3162 0.960 . S
C3176 H3163 0.960 . S
C3176 C3175 1.524 . S
C3177 C3174 1.403 . S
C3177 C3178 1.392 . S
C3177 C3181 1.495 . S
C3178 C3177 1.392 . S
C3178 C3179 1.385 . S
C3178 C3180 1.478 . S
C3179 H3173 0.930 . S
C3179 C3175 1.400 . S
C3179 C3178 1.385 . S
C3180 C3178 1.478 . S
C3180 C3182 1.381 . S
C3180 C3186 1.383 . S
C3181 C3177 1.495 . S
C3181 H3187 0.959 1_554 S
C3181 H3188 0.961 . S
C3181 H3189 0.960 1_554 S
C3182 C3180 1.381 . S
C3182 C3183 1.394 . S
C3182 H3190 0.930 . S
C3183 C3182 1.394 . S
C3183 C3184 1.383 . S
C3183 H3191 0.929 . S
C3184 C3183 1.383 . S
C3184 C3185 1.377 . S
C3185 H3169 0.930 . S
C3185 C3184 1.377 . S
C3185 C3186 1.379 . S
C3186 H3170 0.931 . S
C3186 C3180 1.383 . S
C3186 C3185 1.379 . S
H3187 C3181 0.959 1_556 S
H3188 C3181 0.961 . S
H3189 C3181 0.960 1_556 S
H3190 C3182 0.930 . S
H3191 C3183 0.929 . S
H3192 C3200 0.929 . S
H3193 C3202 0.930 . S
H3194 C3204 0.930 . S
H3195 C3207 0.929 . S
H3196 C3210 0.930 . S
H3197 C3212 0.960 . S
H3198 C3212 0.960 . S
H3199 C3212 0.960 . S
C3200 H3192 0.929 . S
C3200 C3201 1.377 . S
C3200 C3202 1.384 . S
C3201 C3200 1.377 . S
C3201 C3207 1.390 . S
C3202 H3193 0.930 . S
C3202 C3200 1.384 . S
C3202 C3203 1.372 . S
C3203 C3202 1.372 . S
C3203 C3204 1.400 . S
C3203 C3208 1.490 . S
C3204 H3194 0.930 . S
C3204 C3203 1.400 . S
C3204 C3207 1.386 . S
H3205 C3221 0.930 . S
H3206 C3222 0.931 . S
C3207 H3195 0.929 . S
C3207 C3201 1.390 . S
C3207 C3204 1.386 . S
C3208 C3203 1.490 . S
C3208 C3210 1.395 . S
C3208 C3211 1.403 . S
H3209 C3215 0.930 . S
C3210 H3196 0.930 . S
C3210 C3208 1.395 . S
C3210 C3213 1.403 . S
C3211 C3208 1.403 . S
C3211 C3212 1.524 . S
C3211 C3215 1.400 . S
C3212 H3197 0.960 . S
C3212 H3198 0.960 . S
C3212 H3199 0.960 . S
C3212 C3211 1.524 . S
C3213 C3210 1.403 . S
C3213 C3214 1.392 . S
C3213 C3217 1.495 . S
C3214 C3213 1.392 . S
C3214 C3215 1.385 . S
C3214 C3216 1.478 . S
C3215 H3209 0.930 . S
C3215 C3211 1.400 . S
C3215 C3214 1.385 . S
C3216 C3214 1.478 . S
C3216 C3218 1.381 . S
C3216 C3222 1.383 . S
C3217 C3213 1.495 . S
C3217 H3223 0.959 . S
C3217 H3224 0.961 . S
C3217 H3225 0.960 . S
C3218 C3216 1.381 . S
C3218 C3219 1.394 . S
C3218 H3226 0.930 . S
C3219 C3218 1.394 . S
C3219 C3220 1.383 . S
C3219 H3227 0.929 . S
C3220 C3219 1.383 . S
C3220 C3221 1.377 . S
C3221 H3205 0.930 . S
C3221 C3220 1.377 . S
C3221 C3222 1.379 . S
C3222 H3206 0.931 . S
C3222 C3216 1.383 . S
C3222 C3221 1.379 . S
H3223 C3217 0.959 . S
H3224 C3217 0.961 . S
H3225 C3217 0.960 . S
H3226 C3218 0.930 . S
H3227 C3219 0.929 . S
H3228 C3236 0.929 . S
H3229 C3238 0.930 . S
H3230 C3240 0.930 . S
H3231 C3243 0.929 . S
H3232 C3246 0.930 . S
H3233 C3248 0.960 . S
H3234 C3248 0.960 . S
H3235 C3248 0.960 . S
C3236 H3228 0.929 . S
C3236 C3237 1.377 . S
C3236 C3238 1.384 . S
C3237 C3236 1.377 . S
C3237 C3243 1.390 . S
C3238 H3229 0.930 . S
C3238 C3236 1.384 . S
C3238 C3239 1.372 . S
C3239 C3238 1.372 . S
C3239 C3240 1.400 . S
C3239 C3244 1.490 . S
C3240 H3230 0.930 . S
C3240 C3239 1.400 . S
C3240 C3243 1.386 . S
H3241 C3257 0.930 . S
H3242 C3258 0.931 . S
C3243 H3231 0.929 . S
C3243 C3237 1.390 . S
C3243 C3240 1.386 . S
C3244 C3239 1.490 . S
C3244 C3246 1.395 . S
C3244 C3247 1.403 . S
H3245 C3251 0.930 . S
C3246 H3232 0.930 . S
C3246 C3244 1.395 . S
C3246 C3249 1.403 . S
C3247 C3244 1.403 . S
C3247 C3248 1.524 . S
C3247 C3251 1.400 . S
C3248 H3233 0.960 . S
C3248 H3234 0.960 . S
C3248 H3235 0.960 . S
C3248 C3247 1.524 . S
C3249 C3246 1.403 . S
C3249 C3250 1.392 . S
C3249 C3253 1.495 . S
C3250 C3249 1.392 . S
C3250 C3251 1.385 . S
C3250 C3252 1.478 . S
C3251 H3245 0.930 . S
C3251 C3247 1.400 . S
C3251 C3250 1.385 . S
C3252 C3250 1.478 . S
C3252 C3254 1.381 . S
C3252 C3258 1.383 . S
C3253 C3249 1.495 . S
C3253 H3259 0.959 . S
C3253 H3260 0.961 . S
C3253 H3261 0.960 . S
C3254 C3252 1.381 . S
C3254 C3255 1.394 . S
C3254 H3262 0.930 . S
C3255 C3254 1.394 . S
C3255 C3256 1.383 . S
C3255 H3263 0.929 . S
C3256 C3255 1.383 . S
C3256 C3257 1.377 . S
C3257 H3241 0.930 . S
C3257 C3256 1.377 . S
C3257 C3258 1.379 . S
C3258 H3242 0.931 . S
C3258 C3252 1.383 . S
C3258 C3257 1.379 . S
H3259 C3253 0.959 . S
H3260 C3253 0.961 . S
H3261 C3253 0.960 . S
H3262 C3254 0.930 . S
H3263 C3255 0.929 . S
H3264 C3272 0.929 . S
H3265 C3274 0.930 . S
H3266 C3276 0.930 . S
H3267 C3279 0.929 . S
H3268 C3282 0.930 . S
H3269 C3284 0.960 . S
H3270 C3284 0.960 . S
H3271 C3284 0.960 . S
C3272 H3264 0.929 . S
C3272 C3273 1.360 1_565 S
C3272 C3274 1.384 . S
C3273 C3272 1.360 1_545 S
C3273 C3279 1.388 . S
C3274 H3265 0.930 . S
C3274 C3272 1.384 . S
C3274 C3275 1.372 . S
C3275 C3274 1.372 . S
C3275 C3276 1.400 . S
C3275 C3280 1.490 . S
C3276 H3266 0.930 . S
C3276 C3275 1.400 . S
C3276 C3279 1.386 1_565 S
H3277 C3293 0.930 . S
H3278 C3294 0.931 . S
C3279 H3267 0.929 . S
C3279 C3273 1.388 . S
C3279 C3276 1.386 1_545 S
C3280 C3275 1.490 . S
C3280 C3282 1.395 . S
C3280 C3283 1.403 . S
H3281 C3287 0.930 . S
C3282 H3268 0.930 . S
C3282 C3280 1.395 . S
C3282 C3285 1.403 . S
C3283 C3280 1.403 . S
C3283 C3284 1.524 . S
C3283 C3287 1.400 . S
C3284 H3269 0.960 . S
C3284 H3270 0.960 . S
C3284 H3271 0.960 . S
C3284 C3283 1.524 . S
C3285 C3282 1.403 . S
C3285 C3286 1.392 . S
C3285 C3289 1.495 . S
C3286 C3285 1.392 . S
C3286 C3287 1.385 . S
C3286 C3288 1.478 . S
C3287 H3281 0.930 . S
C3287 C3283 1.400 . S
C3287 C3286 1.385 . S
C3288 C3286 1.478 . S
C3288 C3290 1.381 . S
C3288 C3294 1.383 . S
C3289 C3285 1.495 . S
C3289 H3295 0.959 . S
C3289 H3296 0.961 . S
C3289 H3297 0.960 . S
C3290 C3288 1.381 . S
C3290 C3291 1.394 . S
C3290 H3298 0.930 . S
C3291 C3290 1.394 . S
C3291 C3292 1.383 . S
C3291 H3299 0.929 . S
C3292 C3291 1.383 . S
C3292 C3293 1.377 . S
C3293 H3277 0.930 . S
C3293 C3292 1.377 . S
C3293 C3294 1.379 . S
C3294 H3278 0.931 . S
C3294 C3288 1.383 . S
C3294 C3293 1.379 . S
H3295 C3289 0.959 . S
H3296 C3289 0.961 . S
H3297 C3289 0.960 . S
H3298 C3290 0.930 . S
H3299 C3291 0.929 . S
H3300 C3308 0.929 . S
H3301 C3310 0.930 . S
H3302 C3312 0.930 . S
H3303 C3315 0.929 . S
H3304 C3318 0.930 . S
H3305 C3320 0.960 . S
H3306 C3320 0.960 . S
H3307 C3320 0.960 . S
C3308 H3300 0.929 . S
C3308 C3309 1.377 . S
C3308 C3310 1.384 . S
C3309 C3308 1.377 . S
C3309 C3315 1.390 . S
C3310 H3301 0.930 . S
C3310 C3308 1.384 . S
C3310 C3311 1.372 . S
C3311 C3310 1.372 . S
C3311 C3312 1.400 . S
C3311 C3316 1.490 . S
C3312 H3302 0.930 . S
C3312 C3311 1.400 . S
C3312 C3315 1.386 . S
H3313 C3329 0.930 . S
H3314 C3330 0.931 . S
C3315 H3303 0.929 . S
C3315 C3309 1.390 . S
C3315 C3312 1.386 . S
C3316 C3311 1.490 . S
C3316 C3318 1.395 . S
C3316 C3319 1.403 . S
H3317 C3323 0.930 . S
C3318 H3304 0.930 . S
C3318 C3316 1.395 . S
C3318 C3321 1.403 . S
C3319 C3316 1.403 . S
C3319 C3320 1.524 . S
C3319 C3323 1.400 . S
C3320 H3305 0.960 . S
C3320 H3306 0.960 . S
C3320 H3307 0.960 . S
C3320 C3319 1.524 . S
C3321 C3318 1.403 . S
C3321 C3322 1.392 . S
C3321 C3325 1.495 . S
C3322 C3321 1.392 . S
C3322 C3323 1.385 . S
C3322 C3324 1.478 . S
C3323 H3317 0.930 . S
C3323 C3319 1.400 . S
C3323 C3322 1.385 . S
C3324 C3322 1.478 . S
C3324 C3326 1.381 . S
C3324 C3330 1.383 . S
C3325 C3321 1.495 . S
C3325 H3331 0.959 . S
C3325 H3332 0.961 . S
C3325 H3333 0.960 . S
C3326 C3324 1.381 . S
C3326 C3327 1.436 . S
C3326 H3334 0.930 . S
C3327 C3326 1.436 . S
C3327 C3328 1.386 . S
C3327 H3335 0.888 1_565 S
C3328 C3327 1.386 . S
C3328 C3329 1.377 . S
C3329 H3313 0.930 . S
C3329 C3328 1.377 . S
C3329 C3330 1.379 . S
C3330 H3314 0.931 . S
C3330 C3324 1.383 . S
C3330 C3329 1.379 . S
H3331 C3325 0.959 . S
H3332 C3325 0.961 . S
H3333 C3325 0.960 . S
H3334 C3326 0.930 . S
H3335 C3327 0.888 1_545 S
H3336 C3344 0.929 . S
H3337 C3346 0.930 . S
H3338 C3348 0.930 . S
H3339 C3351 0.929 . S
H3340 C3354 0.930 . S
H3341 C3356 0.960 . S
H3342 C3356 0.960 . S
H3343 C3356 0.960 . S
C3344 H3336 0.929 . S
C3344 C3345 1.377 . S
C3344 C3346 1.384 . S
C3345 C3344 1.377 . S
C3345 C3351 1.390 . S
C3346 H3337 0.930 . S
C3346 C3344 1.384 . S
C3346 C3347 1.372 . S
C3347 C3346 1.372 . S
C3347 C3348 1.400 . S
C3347 C3352 1.490 . S
C3348 H3338 0.930 . S
C3348 C3347 1.400 . S
C3348 C3351 1.386 . S
H3349 C3365 0.930 . S
H3350 C3366 0.931 . S
C3351 H3339 0.929 . S
C3351 C3345 1.390 . S
C3351 C3348 1.386 . S
C3352 C3347 1.490 . S
C3352 C3354 1.395 . S
C3352 C3355 1.403 . S
H3353 C3359 0.930 . S
C3354 H3340 0.930 . S
C3354 C3352 1.395 . S
C3354 C3357 1.403 . S
C3355 C3352 1.403 . S
C3355 C3356 1.524 . S
C3355 C3359 1.400 . S
C3356 H3341 0.960 . S
C3356 H3342 0.960 . S
C3356 H3343 0.960 . S
C3356 C3355 1.524 . S
C3357 C3354 1.403 . S
C3357 C3358 1.392 . S
C3357 C3361 1.495 . S
C3358 C3357 1.392 . S
C3358 C3359 1.385 . S
C3358 C3360 1.478 . S
C3359 H3353 0.930 . S
C3359 C3355 1.400 . S
C3359 C3358 1.385 . S
C3360 C3358 1.478 . S
C3360 C3362 1.381 . S
C3360 C3366 1.383 . S
C3361 C3357 1.495 . S
C3361 H3367 0.959 . S
C3361 H3368 0.961 . S
C3361 H3369 0.960 . S
C3362 C3360 1.381 . S
C3362 C3363 1.394 . S
C3362 H3370 0.930 . S
C3363 C3362 1.394 . S
C3363 C3364 1.383 . S
C3363 H3371 0.929 . S
C3364 C3363 1.383 . S
C3364 C3365 1.377 . S
C3365 H3349 0.930 . S
C3365 C3364 1.377 . S
C3365 C3366 1.379 . S
C3366 H3350 0.931 . S
C3366 C3360 1.383 . S
C3366 C3365 1.379 . S
H3367 C3361 0.959 . S
H3368 C3361 0.961 . S
H3369 C3361 0.960 . S
H3370 C3362 0.930 . S
H3371 C3363 0.929 . S
H3372 C3380 0.929 . S
H3373 C3382 0.930 . S
H3374 C3384 0.930 . S
H3375 C3387 0.929 . S
H3376 C3390 0.930 . S
H3377 C3392 0.960 . S
H3378 C3392 0.960 . S
H3379 C3392 0.960 . S
C3380 H3372 0.929 . S
C3380 C3381 1.377 . S
C3380 C3382 1.384 . S
C3381 C3380 1.377 . S
C3381 C3387 1.390 . S
C3382 H3373 0.930 . S
C3382 C3380 1.384 . S
C3382 C3383 1.372 . S
C3383 C3382 1.372 . S
C3383 C3384 1.400 . S
C3383 C3388 1.490 . S
C3384 H3374 0.930 . S
C3384 C3383 1.400 . S
C3384 C3387 1.386 . S
H3385 C3401 0.930 . S
H3386 C3402 0.931 . S
C3387 H3375 0.929 . S
C3387 C3381 1.390 . S
C3387 C3384 1.386 . S
C3388 C3383 1.490 . S
C3388 C3390 1.395 . S
C3388 C3391 1.403 . S
H3389 C3395 0.930 . S
C3390 H3376 0.930 . S
C3390 C3388 1.395 . S
C3390 C3393 1.403 . S
C3391 C3388 1.403 . S
C3391 C3392 1.524 . S
C3391 C3395 1.400 . S
C3392 H3377 0.960 . S
C3392 H3378 0.960 . S
C3392 H3379 0.960 . S
C3392 C3391 1.524 . S
C3393 C3390 1.403 . S
C3393 C3394 1.392 . S
C3393 C3397 1.495 . S
C3394 C3393 1.392 . S
C3394 C3395 1.385 . S
C3394 C3396 1.478 . S
C3395 H3389 0.930 . S
C3395 C3391 1.400 . S
C3395 C3394 1.385 . S
C3396 C3394 1.478 . S
C3396 C3398 1.381 . S
C3396 C3402 1.383 . S
C3397 C3393 1.495 . S
C3397 H3403 0.959 . S
C3397 H3404 0.961 . S
C3397 H3405 0.960 . S
C3398 C3396 1.381 . S
C3398 C3399 1.394 . S
C3398 H3406 0.930 . S
C3399 C3398 1.394 . S
C3399 C3400 1.383 . S
C3399 H3407 0.929 . S
C3400 C3399 1.383 . S
C3400 C3401 1.377 . S
C3401 H3385 0.930 . S
C3401 C3400 1.377 . S
C3401 C3402 1.379 . S
C3402 H3386 0.931 . S
C3402 C3396 1.383 . S
C3402 C3401 1.379 . S
H3403 C3397 0.959 . S
H3404 C3397 0.961 . S
H3405 C3397 0.960 . S
H3406 C3398 0.930 . S
H3407 C3399 0.929 . S
H3408 C3416 0.929 . S
H3409 C3418 0.930 . S
H3410 C3420 0.930 . S
H3411 C3423 0.929 . S
H3412 C3426 0.930 . S
H3413 C3428 0.960 . S
H3414 C3428 0.960 . S
H3415 C3428 0.960 . S
C3416 H3408 0.929 . S
C3416 C3417 1.377 . S
C3416 C3418 1.384 . S
C3417 C3416 1.377 . S
C3417 C3423 1.390 . S
C3418 H3409 0.930 . S
C3418 C3416 1.384 . S
C3418 C3419 1.372 . S
C3419 C3418 1.372 . S
C3419 C3420 1.400 . S
C3419 C3424 1.490 . S
C3420 H3410 0.930 . S
C3420 C3419 1.400 . S
C3420 C3423 1.386 . S
H3421 C3437 0.930 . S
H3422 C3438 0.931 . S
C3423 H3411 0.929 . S
C3423 C3417 1.390 . S
C3423 C3420 1.386 . S
C3424 C3419 1.490 . S
C3424 C3426 1.395 . S
C3424 C3427 1.403 . S
H3425 C3431 0.930 . S
C3426 H3412 0.930 . S
C3426 C3424 1.395 . S
C3426 C3429 1.403 . S
C3427 C3424 1.403 . S
C3427 C3428 1.524 . S
C3427 C3431 1.400 . S
C3428 H3413 0.960 . S
C3428 H3414 0.960 . S
C3428 H3415 0.960 . S
C3428 C3427 1.524 . S
C3429 C3426 1.403 . S
C3429 C3430 1.392 . S
C3429 C3433 1.495 . S
C3430 C3429 1.392 . S
C3430 C3431 1.385 . S
C3430 C3432 1.478 . S
C3431 H3425 0.930 . S
C3431 C3427 1.400 . S
C3431 C3430 1.385 . S
C3432 C3430 1.478 . S
C3432 C3434 1.381 . S
C3432 C3438 1.383 . S
C3433 C3429 1.495 . S
C3433 H3439 0.959 . S
C3433 H3440 0.961 . S
C3433 H3441 0.960 . S
C3434 C3432 1.381 . S
C3434 C3435 1.394 . S
C3434 H3442 0.930 . S
C3435 C3434 1.394 . S
C3435 C3436 1.383 . S
C3435 H3443 0.929 . S
C3436 C3435 1.383 . S
C3436 C3437 1.377 . S
C3437 H3421 0.930 . S
C3437 C3436 1.377 . S
C3437 C3438 1.379 . S
C3438 H3422 0.931 . S
C3438 C3432 1.383 . S
C3438 C3437 1.379 . S
H3439 C3433 0.959 . S
H3440 C3433 0.961 . S
H3441 C3433 0.960 . S
H3442 C3434 0.930 . S
H3443 C3435 0.929 . S
H3444 C3452 0.929 . S
H3445 C3454 0.930 . S
H3446 C3456 0.930 . S
H3447 C3459 0.929 . S
H3448 C3462 0.930 . S
H3449 C3464 0.960 . S
H3450 C3464 0.960 . S
H3451 C3464 0.960 . S
C3452 H3444 0.929 . S
C3452 C3453 1.377 . S
C3452 C3454 1.384 . S
C3453 C3452 1.377 . S
C3453 C3459 1.390 . S
C3454 H3445 0.930 . S
C3454 C3452 1.384 . S
C3454 C3455 1.372 . S
C3455 C3454 1.372 . S
C3455 C3456 1.400 . S
C3455 C3460 1.490 . S
C3456 H3446 0.930 . S
C3456 C3455 1.400 . S
C3456 C3459 1.386 . S
H3457 C3473 0.930 . S
H3458 C3474 0.931 . S
C3459 H3447 0.929 . S
C3459 C3453 1.390 . S
C3459 C3456 1.386 . S
C3460 C3455 1.490 . S
C3460 C3462 1.395 . S
C3460 C3463 1.403 . S
H3461 C3467 0.930 . S
C3462 H3448 0.930 . S
C3462 C3460 1.395 . S
C3462 C3465 1.403 . S
C3463 C3460 1.403 . S
C3463 C3464 1.524 . S
C3463 C3467 1.400 . S
C3464 H3449 0.960 . S
C3464 H3450 0.960 . S
C3464 H3451 0.960 . S
C3464 C3463 1.524 . S
C3465 C3462 1.403 . S
C3465 C3466 1.392 . S
C3465 C3469 1.495 . S
C3466 C3465 1.392 . S
C3466 C3467 1.385 . S
C3466 C3468 1.478 . S
C3467 H3461 0.930 . S
C3467 C3463 1.400 . S
C3467 C3466 1.385 . S
C3468 C3466 1.478 . S
C3468 C3470 1.381 . S
C3468 C3474 1.383 . S
C3469 C3465 1.495 . S
C3469 H3475 0.959 . S
C3469 H3476 0.961 . S
C3469 H3477 0.960 . S
C3470 C3468 1.381 . S
C3470 C3471 1.394 . S
C3470 H3478 0.930 . S
C3471 C3470 1.394 . S
C3471 C3472 1.383 . S
C3471 H3479 0.929 . S
C3472 C3471 1.383 . S
C3472 C3473 1.377 . S
C3473 H3457 0.930 . S
C3473 C3472 1.377 . S
C3473 C3474 1.379 . S
C3474 H3458 0.931 . S
C3474 C3468 1.383 . S
C3474 C3473 1.379 . S
H3475 C3469 0.959 . S
H3476 C3469 0.961 . S
H3477 C3469 0.960 . S
H3478 C3470 0.930 . S
H3479 C3471 0.929 . S
H3480 C3488 0.929 . S
H3481 C3490 0.930 . S
H3482 C3492 0.930 . S
H3483 C3495 0.929 . S
H3484 C3498 0.930 . S
H3485 C3500 0.960 . S
H3486 C3500 0.960 . S
H3487 C3500 0.960 . S
C3488 H3480 0.929 . S
C3488 C3489 1.377 . S
C3488 C3490 1.384 . S
C3489 C3488 1.377 . S
C3489 C3495 1.390 . S
C3490 H3481 0.930 . S
C3490 C3488 1.384 . S
C3490 C3491 1.372 . S
C3491 C3490 1.372 . S
C3491 C3492 1.400 . S
C3491 C3496 1.490 . S
C3492 H3482 0.930 . S
C3492 C3491 1.400 . S
C3492 C3495 1.386 . S
H3493 C3509 0.930 . S
H3494 C3510 0.931 . S
C3495 H3483 0.929 . S
C3495 C3489 1.390 . S
C3495 C3492 1.386 . S
C3496 C3491 1.490 . S
C3496 C3498 1.395 1_556 S
C3496 C3499 1.403 . S
H3497 C3503 0.930 . S
C3498 H3484 0.930 . S
C3498 C3496 1.395 1_554 S
C3498 C3501 1.403 . S
C3499 C3496 1.403 . S
C3499 C3500 1.524 . S
C3499 C3503 1.400 . S
C3500 H3485 0.960 . S
C3500 H3486 0.960 . S
C3500 H3487 0.960 . S
C3500 C3499 1.524 . S
C3501 C3498 1.403 . S
C3501 C3502 1.392 . S
C3501 C3505 1.495 . S
C3502 C3501 1.392 . S
C3502 C3503 1.385 1_554 S
C3502 C3504 1.478 . S
C3503 H3497 0.930 . S
C3503 C3499 1.400 . S
C3503 C3502 1.385 1_556 S
C3504 C3502 1.478 . S
C3504 C3506 1.381 . S
C3504 C3510 1.383 . S
C3505 C3501 1.495 . S
C3505 H3511 0.959 . S
C3505 H3512 0.961 . S
C3505 H3513 0.960 . S
C3506 C3504 1.381 . S
C3506 C3507 1.394 . S
C3506 H3514 0.930 . S
C3507 C3506 1.394 . S
C3507 C3508 1.383 . S
C3507 H3515 0.929 . S
C3508 C3507 1.383 . S
C3508 C3509 1.377 . S
C3509 H3493 0.930 . S
C3509 C3508 1.377 . S
C3509 C3510 1.379 . S
C3510 H3494 0.931 . S
C3510 C3504 1.383 . S
C3510 C3509 1.379 . S
H3511 C3505 0.959 . S
H3512 C3505 0.961 . S
H3513 C3505 0.960 . S
H3514 C3506 0.930 . S
H3515 C3507 0.929 . S
H3516 C3524 0.929 . S
H3517 C3526 0.891 1_655 S
H3518 C3528 0.930 . S
H3519 C3531 0.929 . S
H3520 C3534 0.930 . S
H3521 C3536 0.960 . S
H3522 C3536 0.960 1_455 S
H3523 C3536 0.960 1_455 S
C3524 H3516 0.929 . S
C3524 C3525 1.377 . S
C3524 C3526 1.431 . S
C3525 C3524 1.377 . S
C3525 C3531 1.390 . S
C3526 H3517 0.891 1_455 S
C3526 C3524 1.431 . S
C3526 C3527 1.365 1_455 S
C3527 C3526 1.365 1_655 S
C3527 C3528 1.400 1_655 S
C3527 C3532 1.490 . S
C3528 H3518 0.930 . S
C3528 C3527 1.400 1_455 S
C3528 C3531 1.386 . S
H3529 C3545 0.930 . S
H3530 C3546 0.931 . S
C3531 H3519 0.929 . S
C3531 C3525 1.390 . S
C3531 C3528 1.386 . S
C3532 C3527 1.490 . S
C3532 C3534 1.395 . S
C3532 C3535 1.403 . S
H3533 C3539 0.930 . S
C3534 H3520 0.930 . S
C3534 C3532 1.395 . S
C3534 C3537 1.403 . S
C3535 C3532 1.403 . S
C3535 C3536 1.524 . S
C3535 C3539 1.400 . S
C3536 H3521 0.960 . S
C3536 H3522 0.960 1_655 S
C3536 H3523 0.960 1_655 S
C3536 C3535 1.524 . S
C3537 C3534 1.403 . S
C3537 C3538 1.392 . S
C3537 C3541 1.495 . S
C3538 C3537 1.392 . S
C3538 C3539 1.385 . S
C3538 C3540 1.478 . S
C3539 H3533 0.930 . S
C3539 C3535 1.400 . S
C3539 C3538 1.385 . S
C3540 C3538 1.478 . S
C3540 C3542 1.381 . S
C3540 C3546 1.383 . S
C3541 C3537 1.495 . S
C3541 H3547 0.959 . S
C3541 H3548 0.961 . S
C3541 H3549 0.960 . S
C3542 C3540 1.381 . S
C3542 C3543 1.394 . S
C3542 H3550 0.930 . S
C3543 C3542 1.394 . S
C3543 C3544 1.383 . S
C3543 H3551 0.929 . S
C3544 C3543 1.383 . S
C3544 C3545 1.377 . S
C3545 H3529 0.930 . S
C3545 C3544 1.377 . S
C3545 C3546 1.379 . S
C3546 H3530 0.931 . S
C3546 C3540 1.383 . S
C3546 C3545 1.379 . S
H3547 C3541 0.959 . S
H3548 C3541 0.961 . S
H3549 C3541 0.960 . S
H3550 C3542 0.930 . S
H3551 C3543 0.929 . S
H3552 C3560 0.929 . S
H3553 C3562 0.930 . S
H3554 C3564 0.930 . S
H3555 C3567 0.929 . S
H3556 C3570 0.930 . S
H3557 C3572 0.960 . S
H3558 C3572 0.960 . S
H3559 C3572 0.960 . S
C3560 H3552 0.929 . S
C3560 C3561 1.377 . S
C3560 C3562 1.384 . S
C3561 C3560 1.377 . S
C3561 C3567 1.390 . S
C3562 H3553 0.930 . S
C3562 C3560 1.384 . S
C3562 C3563 1.372 . S
C3563 C3562 1.372 . S
C3563 C3564 1.400 . S
C3563 C3568 1.490 . S
C3564 H3554 0.930 . S
C3564 C3563 1.400 . S
C3564 C3567 1.386 . S
H3565 C3581 0.930 . S
H3566 C3582 0.931 . S
C3567 H3555 0.929 . S
C3567 C3561 1.390 . S
C3567 C3564 1.386 . S
C3568 C3563 1.490 . S
C3568 C3570 1.395 . S
C3568 C3571 1.403 . S
H3569 C3575 0.930 . S
C3570 H3556 0.930 . S
C3570 C3568 1.395 . S
C3570 C3573 1.403 . S
C3571 C3568 1.403 . S
C3571 C3572 1.524 . S
C3571 C3575 1.400 . S
C3572 H3557 0.960 . S
C3572 H3558 0.960 . S
C3572 H3559 0.960 . S
C3572 C3571 1.524 . S
C3573 C3570 1.403 . S
C3573 C3574 1.392 . S
C3573 C3577 1.495 . S
C3574 C3573 1.392 . S
C3574 C3575 1.385 . S
C3574 C3576 1.478 . S
C3575 H3569 0.930 . S
C3575 C3571 1.400 . S
C3575 C3574 1.385 . S
C3576 C3574 1.478 . S
C3576 C3578 1.381 . S
C3576 C3582 1.383 . S
C3577 C3573 1.495 . S
C3577 H3583 0.959 . S
C3577 H3584 0.961 . S
C3577 H3585 0.960 . S
C3578 C3576 1.381 . S
C3578 C3579 1.394 . S
C3578 H3586 0.930 . S
C3579 C3578 1.394 . S
C3579 C3580 1.383 . S
C3579 H3587 0.929 . S
C3580 C3579 1.383 . S
C3580 C3581 1.377 . S
C3581 H3565 0.930 . S
C3581 C3580 1.377 . S
C3581 C3582 1.379 . S
C3582 H3566 0.931 . S
C3582 C3576 1.383 . S
C3582 C3581 1.379 . S
H3583 C3577 0.959 . S
H3584 C3577 0.961 . S
H3585 C3577 0.960 . S
H3586 C3578 0.930 . S
H3587 C3579 0.929 . S
H3588 C3596 0.929 . S
H3589 C3598 0.930 . S
H3590 C3600 0.930 . S
H3591 C3603 0.929 . S
H3592 C3606 0.930 . S
H3593 C3608 0.960 . S
H3594 C3608 0.960 . S
H3595 C3608 0.960 . S
C3596 H3588 0.929 . S
C3596 C3597 1.377 . S
C3596 C3598 1.384 . S
C3597 C3596 1.377 . S
C3597 C3603 1.390 . S
C3598 H3589 0.930 . S
C3598 C3596 1.384 . S
C3598 C3599 1.372 . S
C3599 C3598 1.372 . S
C3599 C3600 1.400 . S
C3599 C3604 1.490 . S
C3600 H3590 0.930 . S
C3600 C3599 1.400 . S
C3600 C3603 1.386 . S
H3601 C3617 0.930 . S
H3602 C3618 0.931 . S
C3603 H3591 0.929 . S
C3603 C3597 1.390 . S
C3603 C3600 1.386 . S
C3604 C3599 1.490 . S
C3604 C3606 1.395 1_455 S
C3604 C3607 1.403 . S
H3605 C3611 0.930 . S
C3606 H3592 0.930 . S
C3606 C3604 1.395 1_655 S
C3606 C3609 1.403 . S
C3607 C3604 1.403 . S
C3607 C3608 1.524 . S
C3607 C3611 1.400 1_455 S
C3608 H3593 0.960 . S
C3608 H3594 0.960 . S
C3608 H3595 0.960 . S
C3608 C3607 1.524 . S
C3609 C3606 1.403 . S
C3609 C3610 1.392 . S
C3609 C3613 1.495 . S
C3610 C3609 1.392 . S
C3610 C3611 1.385 . S
C3610 C3612 1.478 . S
C3611 H3605 0.930 . S
C3611 C3607 1.400 1_655 S
C3611 C3610 1.385 . S
C3612 C3610 1.478 . S
C3612 C3614 1.381 . S
C3612 C3618 1.383 . S
C3613 C3609 1.495 . S
C3613 H3619 0.959 . S
C3613 H3620 0.961 . S
C3613 H3621 0.960 . S
C3614 C3612 1.381 . S
C3614 C3615 1.394 . S
C3614 H3622 0.930 . S
C3615 C3614 1.394 . S
C3615 C3616 1.383 . S
C3615 H3623 0.929 . S
C3616 C3615 1.383 . S
C3616 C3617 1.377 . S
C3617 H3601 0.930 . S
C3617 C3616 1.377 . S
C3617 C3618 1.379 . S
C3618 H3602 0.931 . S
C3618 C3612 1.383 . S
C3618 C3617 1.379 . S
H3619 C3613 0.959 . S
H3620 C3613 0.961 . S
H3621 C3613 0.960 . S
H3622 C3614 0.930 . S
H3623 C3615 0.929 . S
H3624 C3632 0.929 . S
H3625 C3634 0.930 . S
H3626 C3636 0.930 . S
H3627 C3639 0.929 . S
H3628 C3642 0.930 . S
H3629 C3644 0.960 . S
H3630 C3644 0.960 . S
H3631 C3644 0.960 . S
C3632 H3624 0.929 . S
C3632 C3633 1.377 . S
C3632 C3634 1.384 . S
C3633 C3632 1.377 . S
C3633 C3639 1.390 1_655 S
C3634 H3625 0.930 . S
C3634 C3632 1.384 . S
C3634 C3635 1.372 1_655 S
C3635 C3634 1.372 1_455 S
C3635 C3636 1.400 . S
C3635 C3640 1.490 . S
C3636 H3626 0.930 . S
C3636 C3635 1.400 . S
C3636 C3639 1.386 . S
H3637 C3653 0.930 . S
H3638 C3654 0.931 . S
C3639 H3627 0.929 . S
C3639 C3633 1.390 1_455 S
C3639 C3636 1.386 . S
C3640 C3635 1.490 . S
C3640 C3642 1.395 . S
C3640 C3643 1.403 . S
H3641 C3647 0.930 . S
C3642 H3628 0.930 . S
C3642 C3640 1.395 . S
C3642 C3645 1.403 . S
C3643 C3640 1.403 . S
C3643 C3644 1.524 . S
C3643 C3647 1.400 . S
C3644 H3629 0.960 . S
C3644 H3630 0.960 . S
C3644 H3631 0.960 . S
C3644 C3643 1.524 . S
C3645 C3642 1.403 . S
C3645 C3646 1.392 . S
C3645 C3649 1.495 . S
C3646 C3645 1.392 . S
C3646 C3647 1.385 . S
C3646 C3648 1.478 . S
C3647 H3641 0.930 . S
C3647 C3643 1.400 . S
C3647 C3646 1.385 . S
C3648 C3646 1.478 . S
C3648 C3650 1.381 . S
C3648 C3654 1.383 . S
C3649 C3645 1.495 . S
C3649 H3655 0.959 . S
C3649 H3656 0.961 . S
C3649 H3657 0.960 . S
C3650 C3648 1.381 . S
C3650 C3651 1.394 . S
C3650 H3658 0.930 . S
C3651 C3650 1.394 . S
C3651 C3652 1.383 . S
C3651 H3659 0.929 . S
C3652 C3651 1.383 . S
C3652 C3653 1.377 . S
C3653 H3637 0.930 . S
C3653 C3652 1.377 . S
C3653 C3654 1.379 . S
C3654 H3638 0.931 . S
C3654 C3648 1.383 . S
C3654 C3653 1.379 . S
H3655 C3649 0.959 . S
H3656 C3649 0.961 . S
H3657 C3649 0.960 . S
H3658 C3650 0.930 . S
H3659 C3651 0.929 . S
H3660 C3668 0.929 . S
H3661 C3670 0.930 . S
H3662 C3672 0.930 . S
H3663 C3675 0.929 . S
H3664 C3678 0.930 . S
H3665 C3680 0.960 . S
H3666 C3680 0.960 . S
H3667 C3680 0.960 . S
C3668 H3660 0.929 . S
C3668 C3669 1.377 . S
C3668 C3670 1.384 . S
C3669 C3668 1.377 . S
C3669 C3675 1.390 . S
C3670 H3661 0.930 . S
C3670 C3668 1.384 . S
C3670 C3671 1.372 . S
C3671 C3670 1.372 . S
C3671 C3672 1.400 . S
C3671 C3676 1.490 . S
C3672 H3662 0.930 . S
C3672 C3671 1.400 . S
C3672 C3675 1.386 . S
H3673 C3689 0.930 . S
H3674 C3690 0.931 . S
C3675 H3663 0.929 . S
C3675 C3669 1.390 . S
C3675 C3672 1.386 . S
C3676 C3671 1.490 . S
C3676 C3678 1.395 . S
C3676 C3679 1.403 . S
H3677 C3683 0.930 . S
C3678 H3664 0.930 . S
C3678 C3676 1.395 . S
C3678 C3681 1.403 . S
C3679 C3676 1.403 . S
C3679 C3680 1.524 . S
C3679 C3683 1.400 . S
C3680 H3665 0.960 . S
C3680 H3666 0.960 . S
C3680 H3667 0.960 . S
C3680 C3679 1.524 . S
C3681 C3678 1.403 . S
C3681 C3682 1.392 . S
C3681 C3685 1.495 . S
C3682 C3681 1.392 . S
C3682 C3683 1.385 . S
C3682 C3684 1.478 . S
C3683 H3677 0.930 . S
C3683 C3679 1.400 . S
C3683 C3682 1.385 . S
C3684 C3682 1.478 . S
C3684 C3686 1.381 . S
C3684 C3690 1.383 . S
C3685 C3681 1.495 . S
C3685 H3691 0.959 . S
C3685 H3692 0.961 . S
C3685 H3693 0.960 . S
C3686 C3684 1.381 . S
C3686 C3687 1.394 . S
C3686 H3694 0.930 . S
C3687 C3686 1.394 . S
C3687 C3688 1.383 . S
C3687 H3695 0.929 . S
C3688 C3687 1.383 . S
C3688 C3689 1.377 . S
C3689 H3673 0.930 . S
C3689 C3688 1.377 . S
C3689 C3690 1.379 . S
C3690 H3674 0.931 . S
C3690 C3684 1.383 . S
C3690 C3689 1.379 . S
H3691 C3685 0.959 . S
H3692 C3685 0.961 . S
H3693 C3685 0.960 . S
H3694 C3686 0.930 . S
H3695 C3687 0.929 . S
H3696 C3704 0.929 . S
H3697 C3706 0.930 . S
H3698 C3708 0.930 . S
H3699 C3711 0.929 . S
H3700 C3714 0.930 . S
H3701 C3716 0.960 . S
H3702 C3716 0.960 . S
H3703 C3716 0.960 . S
C3704 H3696 0.929 . S
C3704 C3705 1.377 . S
C3704 C3706 1.384 . S
C3705 C3704 1.377 . S
C3705 C3711 1.390 . S
C3706 H3697 0.930 . S
C3706 C3704 1.384 . S
C3706 C3707 1.372 . S
C3707 C3706 1.372 . S
C3707 C3708 1.400 . S
C3707 C3712 1.490 . S
C3708 H3698 0.930 . S
C3708 C3707 1.400 . S
C3708 C3711 1.386 . S
H3709 C3725 0.930 . S
H3710 C3726 0.931 . S
C3711 H3699 0.929 . S
C3711 C3705 1.390 . S
C3711 C3708 1.386 . S
C3712 C3707 1.490 . S
C3712 C3714 1.395 . S
C3712 C3715 1.403 . S
H3713 C3719 0.930 . S
C3714 H3700 0.930 . S
C3714 C3712 1.395 . S
C3714 C3717 1.403 . S
C3715 C3712 1.403 . S
C3715 C3716 1.524 . S
C3715 C3719 1.400 . S
C3716 H3701 0.960 . S
C3716 H3702 0.960 . S
C3716 H3703 0.960 . S
C3716 C3715 1.524 . S
C3717 C3714 1.403 . S
C3717 C3718 1.392 . S
C3717 C3721 1.495 . S
C3718 C3717 1.392 . S
C3718 C3719 1.385 . S
C3718 C3720 1.478 . S
C3719 H3713 0.930 . S
C3719 C3715 1.400 . S
C3719 C3718 1.385 . S
C3720 C3718 1.478 . S
C3720 C3722 1.381 . S
C3720 C3726 1.383 . S
C3721 C3717 1.495 . S
C3721 H3727 0.959 . S
C3721 H3728 0.961 . S
C3721 H3729 0.960 . S
C3722 C3720 1.381 . S
C3722 C3723 1.394 . S
C3722 H3730 0.930 . S
C3723 C3722 1.394 . S
C3723 C3724 1.383 . S
C3723 H3731 0.929 . S
C3724 C3723 1.383 . S
C3724 C3725 1.377 . S
C3725 H3709 0.930 . S
C3725 C3724 1.377 . S
C3725 C3726 1.379 . S
C3726 H3710 0.931 . S
C3726 C3720 1.383 . S
C3726 C3725 1.379 . S
H3727 C3721 0.959 . S
H3728 C3721 0.961 . S
H3729 C3721 0.960 . S
H3730 C3722 0.930 . S
H3731 C3723 0.929 . S
H3732 C3740 0.929 . S
H3733 C3742 0.930 . S
H3734 C3744 0.930 . S
H3735 C3747 0.929 . S
H3736 C3750 0.930 . S
H3737 C3752 0.960 . S
H3738 C3752 0.960 . S
H3739 C3752 0.960 . S
C3740 H3732 0.929 . S
C3740 C3741 1.377 . S
C3740 C3742 1.384 . S
C3741 C3740 1.377 . S
C3741 C3747 1.390 . S
C3742 H3733 0.930 . S
C3742 C3740 1.384 . S
C3742 C3743 1.372 . S
C3743 C3742 1.372 . S
C3743 C3744 1.400 . S
C3743 C3748 1.490 . S
C3744 H3734 0.930 . S
C3744 C3743 1.400 . S
C3744 C3747 1.386 . S
H3745 C3761 0.930 . S
H3746 C3762 0.931 . S
C3747 H3735 0.929 . S
C3747 C3741 1.390 . S
C3747 C3744 1.386 . S
C3748 C3743 1.490 . S
C3748 C3750 1.395 . S
C3748 C3751 1.403 . S
H3749 C3755 0.930 . S
C3750 H3736 0.930 . S
C3750 C3748 1.395 . S
C3750 C3753 1.403 . S
C3751 C3748 1.403 . S
C3751 C3752 1.524 . S
C3751 C3755 1.400 . S
C3752 H3737 0.960 . S
C3752 H3738 0.960 . S
C3752 H3739 0.960 . S
C3752 C3751 1.524 . S
C3753 C3750 1.403 . S
C3753 C3754 1.392 . S
C3753 C3757 1.495 . S
C3754 C3753 1.392 . S
C3754 C3755 1.385 . S
C3754 C3756 1.478 . S
C3755 H3749 0.930 . S
C3755 C3751 1.400 . S
C3755 C3754 1.385 . S
C3756 C3754 1.478 . S
C3756 C3758 1.381 . S
C3756 C3762 1.383 . S
C3757 C3753 1.495 . S
C3757 H3763 0.959 . S
C3757 H3764 0.961 . S
C3757 H3765 0.960 . S
C3758 C3756 1.381 . S
C3758 C3759 1.394 . S
C3758 H3766 0.930 . S
C3759 C3758 1.394 . S
C3759 C3760 1.383 . S
C3759 H3767 0.929 . S
C3760 C3759 1.383 . S
C3760 C3761 1.377 . S
C3761 H3745 0.930 . S
C3761 C3760 1.377 . S
C3761 C3762 1.379 . S
C3762 H3746 0.931 . S
C3762 C3756 1.383 . S
C3762 C3761 1.379 . S
H3763 C3757 0.959 . S
H3764 C3757 0.961 . S
H3765 C3757 0.960 . S
H3766 C3758 0.930 . S
H3767 C3759 0.929 . S
H3768 C3776 0.929 . S
H3769 C3778 0.930 . S
H3770 C3780 0.930 . S
H3771 C3783 0.929 . S
H3772 C3786 0.930 . S
H3773 C3788 0.960 . S
H3774 C3788 0.960 . S
H3775 C3788 0.960 . S
C3776 H3768 0.929 . S
C3776 C3777 1.377 . S
C3776 C3778 1.384 . S
C3777 C3776 1.377 . S
C3777 C3783 1.390 . S
C3778 H3769 0.930 . S
C3778 C3776 1.384 . S
C3778 C3779 1.372 . S
C3779 C3778 1.372 . S
C3779 C3780 1.400 . S
C3779 C3784 1.490 . S
C3780 H3770 0.930 . S
C3780 C3779 1.400 . S
C3780 C3783 1.386 . S
H3781 C3797 0.930 . S
H3782 C3798 0.931 . S
C3783 H3771 0.929 . S
C3783 C3777 1.390 . S
C3783 C3780 1.386 . S
C3784 C3779 1.490 . S
C3784 C3786 1.395 . S
C3784 C3787 1.403 . S
H3785 C3791 0.930 . S
C3786 H3772 0.930 . S
C3786 C3784 1.395 . S
C3786 C3789 1.403 . S
C3787 C3784 1.403 . S
C3787 C3788 1.524 . S
C3787 C3791 1.400 . S
C3788 H3773 0.960 . S
C3788 H3774 0.960 . S
C3788 H3775 0.960 . S
C3788 C3787 1.524 . S
C3789 C3786 1.403 . S
C3789 C3790 1.392 . S
C3789 C3793 1.495 . S
C3790 C3789 1.392 . S
C3790 C3791 1.385 . S
C3790 C3792 1.478 . S
C3791 H3785 0.930 . S
C3791 C3787 1.400 . S
C3791 C3790 1.385 . S
C3792 C3790 1.478 . S
C3792 C3794 1.381 . S
C3792 C3798 1.383 . S
C3793 C3789 1.495 . S
C3793 H3799 0.959 . S
C3793 H3800 0.961 . S
C3793 H3801 0.960 . S
C3794 C3792 1.381 . S
C3794 C3795 1.394 . S
C3794 H3802 0.930 . S
C3795 C3794 1.394 . S
C3795 C3796 1.383 . S
C3795 H3803 0.929 . S
C3796 C3795 1.383 . S
C3796 C3797 1.377 . S
C3797 H3781 0.930 . S
C3797 C3796 1.377 . S
C3797 C3798 1.379 . S
C3798 H3782 0.931 . S
C3798 C3792 1.383 . S
C3798 C3797 1.379 . S
H3799 C3793 0.959 . S
H3800 C3793 0.961 . S
H3801 C3793 0.960 . S
H3802 C3794 0.930 . S
H3803 C3795 0.929 . S
H3804 C3812 0.929 . S
H3805 C3814 0.930 . S
H3806 C3816 0.930 . S
H3807 C3819 0.929 . S
H3808 C3822 0.930 . S
H3809 C3824 0.960 . S
H3810 C3824 0.960 . S
H3811 C3824 0.960 . S
C3812 H3804 0.929 . S
C3812 C3813 1.377 . S
C3812 C3814 1.384 . S
C3813 C3812 1.377 . S
C3813 C3819 1.390 . S
C3814 H3805 0.930 . S
C3814 C3812 1.384 . S
C3814 C3815 1.372 . S
C3815 C3814 1.372 . S
C3815 C3816 1.400 . S
C3815 C3820 1.490 . S
C3816 H3806 0.930 . S
C3816 C3815 1.400 . S
C3816 C3819 1.386 . S
H3817 C3833 0.930 . S
H3818 C3834 0.931 . S
C3819 H3807 0.929 . S
C3819 C3813 1.390 . S
C3819 C3816 1.386 . S
C3820 C3815 1.490 . S
C3820 C3822 1.395 . S
C3820 C3823 1.403 . S
H3821 C3827 0.930 . S
C3822 H3808 0.930 . S
C3822 C3820 1.395 . S
C3822 C3825 1.403 . S
C3823 C3820 1.403 . S
C3823 C3824 1.524 . S
C3823 C3827 1.400 . S
C3824 H3809 0.960 . S
C3824 H3810 0.960 . S
C3824 H3811 0.960 . S
C3824 C3823 1.524 . S
C3825 C3822 1.403 . S
C3825 C3826 1.392 . S
C3825 C3829 1.495 . S
C3826 C3825 1.392 . S
C3826 C3827 1.385 . S
C3826 C3828 1.478 . S
C3827 H3821 0.930 . S
C3827 C3823 1.400 . S
C3827 C3826 1.385 . S
C3828 C3826 1.478 . S
C3828 C3830 1.381 . S
C3828 C3834 1.383 . S
C3829 C3825 1.495 . S
C3829 H3835 0.959 . S
C3829 H3836 0.961 . S
C3829 H3837 0.960 . S
C3830 C3828 1.381 . S
C3830 C3831 1.394 . S
C3830 H3838 0.930 . S
C3831 C3830 1.394 . S
C3831 C3832 1.383 . S
C3831 H3839 0.929 . S
C3832 C3831 1.383 . S
C3832 C3833 1.377 . S
C3833 H3817 0.930 . S
C3833 C3832 1.377 . S
C3833 C3834 1.379 . S
C3834 H3818 0.931 . S
C3834 C3828 1.383 . S
C3834 C3833 1.379 . S
H3835 C3829 0.959 . S
H3836 C3829 0.961 . S
H3837 C3829 0.960 . S
H3838 C3830 0.930 . S
H3839 C3831 0.929 . S
H3840 C3848 0.929 . S
H3841 C3850 0.930 . S
H3842 C3852 0.930 . S
H3843 C3855 0.929 . S
H3844 C3858 0.930 . S
H3845 C3860 0.960 . S
H3846 C3860 0.960 . S
H3847 C3860 0.960 . S
C3848 H3840 0.929 . S
C3848 C3849 1.377 . S
C3848 C3850 1.384 . S
C3849 C3848 1.377 . S
C3849 C3855 1.390 . S
C3850 H3841 0.930 . S
C3850 C3848 1.384 . S
C3850 C3851 1.372 . S
C3851 C3850 1.372 . S
C3851 C3852 1.400 . S
C3851 C3856 1.490 . S
C3852 H3842 0.930 . S
C3852 C3851 1.400 . S
C3852 C3855 1.386 . S
H3853 C3869 0.930 . S
H3854 C3870 0.931 . S
C3855 H3843 0.929 . S
C3855 C3849 1.390 . S
C3855 C3852 1.386 . S
C3856 C3851 1.490 . S
C3856 C3858 1.395 . S
C3856 C3859 1.403 . S
H3857 C3863 0.930 . S
C3858 H3844 0.930 . S
C3858 C3856 1.395 . S
C3858 C3861 1.403 . S
C3859 C3856 1.403 . S
C3859 C3860 1.524 . S
C3859 C3863 1.400 . S
C3860 H3845 0.960 . S
C3860 H3846 0.960 . S
C3860 H3847 0.960 . S
C3860 C3859 1.524 . S
C3861 C3858 1.403 . S
C3861 C3862 1.392 . S
C3861 C3865 1.495 . S
C3862 C3861 1.392 . S
C3862 C3863 1.385 . S
C3862 C3864 1.478 . S
C3863 H3857 0.930 . S
C3863 C3859 1.400 . S
C3863 C3862 1.385 . S
C3864 C3862 1.478 . S
C3864 C3866 1.381 . S
C3864 C3870 1.383 . S
C3865 C3861 1.495 . S
C3865 H3871 0.959 . S
C3865 H3872 0.961 . S
C3865 H3873 0.960 . S
C3866 C3864 1.381 . S
C3866 C3867 1.394 . S
C3866 H3874 0.930 . S
C3867 C3866 1.394 . S
C3867 C3868 1.383 . S
C3867 H3875 0.929 . S
C3868 C3867 1.383 . S
C3868 C3869 1.377 . S
C3869 H3853 0.930 . S
C3869 C3868 1.377 . S
C3869 C3870 1.379 . S
C3870 H3854 0.931 . S
C3870 C3864 1.383 . S
C3870 C3869 1.379 . S
H3871 C3865 0.959 . S
H3872 C3865 0.961 . S
H3873 C3865 0.960 . S
H3874 C3866 0.930 . S
H3875 C3867 0.929 . S
H3876 C3884 0.929 . S
H3877 C3886 0.930 . S
H3878 C3888 0.930 . S
H3879 C3891 0.929 . S
H3880 C3894 0.930 . S
H3881 C3896 0.960 . S
H3882 C3896 0.960 . S
H3883 C3896 0.960 . S
C3884 H3876 0.929 . S
C3884 C3885 1.377 . S
C3884 C3886 1.384 . S
C3885 C3884 1.377 . S
C3885 C3891 1.390 . S
C3886 H3877 0.930 . S
C3886 C3884 1.384 . S
C3886 C3887 1.372 . S
C3887 C3886 1.372 . S
C3887 C3888 1.400 . S
C3887 C3892 1.490 . S
C3888 H3878 0.930 . S
C3888 C3887 1.400 . S
C3888 C3891 1.386 . S
H3889 C3905 0.930 . S
H3890 C3906 0.931 . S
C3891 H3879 0.929 . S
C3891 C3885 1.390 . S
C3891 C3888 1.386 . S
C3892 C3887 1.490 . S
C3892 C3894 1.395 . S
C3892 C3895 1.403 . S
H3893 C3899 0.930 . S
C3894 H3880 0.930 . S
C3894 C3892 1.395 . S
C3894 C3897 1.403 . S
C3895 C3892 1.403 . S
C3895 C3896 1.524 . S
C3895 C3899 1.400 . S
C3896 H3881 0.960 . S
C3896 H3882 0.960 . S
C3896 H3883 0.960 . S
C3896 C3895 1.524 . S
C3897 C3894 1.403 . S
C3897 C3898 1.392 . S
C3897 C3901 1.495 . S
C3898 C3897 1.392 . S
C3898 C3899 1.385 . S
C3898 C3900 1.478 . S
C3899 H3893 0.930 . S
C3899 C3895 1.400 . S
C3899 C3898 1.385 . S
C3900 C3898 1.478 . S
C3900 C3902 1.381 . S
C3900 C3906 1.383 . S
C3901 C3897 1.495 . S
C3901 H3907 0.959 . S
C3901 H3908 0.961 . S
C3901 H3909 0.960 . S
C3902 C3900 1.381 . S
C3902 C3903 1.394 . S
C3902 H3910 0.930 . S
C3903 C3902 1.394 . S
C3903 C3904 1.383 . S
C3903 H3911 0.929 . S
C3904 C3903 1.383 . S
C3904 C3905 1.377 . S
C3905 H3889 0.930 . S
C3905 C3904 1.377 . S
C3905 C3906 1.379 . S
C3906 H3890 0.931 . S
C3906 C3900 1.383 . S
C3906 C3905 1.379 . S
H3907 C3901 0.959 . S
H3908 C3901 0.961 . S
H3909 C3901 0.960 . S
H3910 C3902 0.930 . S
H3911 C3903 0.929 . S
H3912 C3920 0.929 . S
H3913 C3922 0.930 . S
H3914 C3924 0.930 . S
H3915 C3927 0.929 . S
H3916 C3930 0.930 . S
H3917 C3932 0.960 . S
H3918 C3932 0.960 . S
H3919 C3932 0.960 . S
C3920 H3912 0.929 . S
C3920 C3921 1.377 . S
C3920 C3922 1.384 . S
C3921 C3920 1.377 . S
C3921 C3927 1.390 . S
C3922 H3913 0.930 . S
C3922 C3920 1.384 . S
C3922 C3923 1.372 . S
C3923 C3922 1.372 . S
C3923 C3924 1.400 . S
C3923 C3928 1.490 . S
C3924 H3914 0.930 . S
C3924 C3923 1.400 . S
C3924 C3927 1.386 . S
H3925 C3941 0.930 . S
H3926 C3942 0.931 . S
C3927 H3915 0.929 . S
C3927 C3921 1.390 . S
C3927 C3924 1.386 . S
C3928 C3923 1.490 . S
C3928 C3930 1.395 . S
C3928 C3931 1.403 . S
H3929 C3935 0.930 . S
C3930 H3916 0.930 . S
C3930 C3928 1.395 . S
C3930 C3933 1.403 . S
C3931 C3928 1.403 . S
C3931 C3932 1.524 . S
C3931 C3935 1.400 . S
C3932 H3917 0.960 . S
C3932 H3918 0.960 . S
C3932 H3919 0.960 . S
C3932 C3931 1.524 . S
C3933 C3930 1.403 . S
C3933 C3934 1.392 . S
C3933 C3937 1.495 . S
C3934 C3933 1.392 . S
C3934 C3935 1.385 . S
C3934 C3936 1.478 . S
C3935 H3929 0.930 . S
C3935 C3931 1.400 . S
C3935 C3934 1.385 . S
C3936 C3934 1.478 . S
C3936 C3938 1.381 . S
C3936 C3942 1.383 . S
C3937 C3933 1.495 . S
C3937 H3943 0.959 . S
C3937 H3944 0.961 . S
C3937 H3945 0.960 . S
C3938 C3936 1.381 . S
C3938 C3939 1.394 . S
C3938 H3946 0.930 . S
C3939 C3938 1.394 . S
C3939 C3940 1.383 . S
C3939 H3947 0.929 . S
C3940 C3939 1.383 . S
C3940 C3941 1.377 . S
C3941 H3925 0.930 . S
C3941 C3940 1.377 . S
C3941 C3942 1.379 . S
C3942 H3926 0.931 . S
C3942 C3936 1.383 . S
C3942 C3941 1.379 . S
H3943 C3937 0.959 . S
H3944 C3937 0.961 . S
H3945 C3937 0.960 . S
H3946 C3938 0.930 . S
H3947 C3939 0.929 . S
H3948 C3956 0.929 . S
H3949 C3958 0.930 . S
H3950 C3960 0.930 . S
H3951 C3963 0.929 . S
H3952 C3966 0.930 . S
H3953 C3968 0.960 . S
H3954 C3968 0.960 . S
H3955 C3968 0.960 . S
C3956 H3948 0.929 . S
C3956 C3957 1.377 . S
C3956 C3958 1.384 . S
C3957 C3956 1.377 . S
C3957 C3963 1.390 . S
C3958 H3949 0.930 . S
C3958 C3956 1.384 . S
C3958 C3959 1.372 . S
C3959 C3958 1.372 . S
C3959 C3960 1.400 . S
C3959 C3964 1.490 . S
C3960 H3950 0.930 . S
C3960 C3959 1.400 . S
C3960 C3963 1.386 . S
H3961 C3977 0.930 . S
H3962 C3978 0.931 . S
C3963 H3951 0.929 . S
C3963 C3957 1.390 . S
C3963 C3960 1.386 . S
C3964 C3959 1.490 . S
C3964 C3966 1.395 . S
C3964 C3967 1.403 . S
H3965 C3971 0.930 . S
C3966 H3952 0.930 . S
C3966 C3964 1.395 . S
C3966 C3969 1.403 . S
C3967 C3964 1.403 . S
C3967 C3968 1.524 . S
C3967 C3971 1.400 . S
C3968 H3953 0.960 . S
C3968 H3954 0.960 . S
C3968 H3955 0.960 . S
C3968 C3967 1.524 . S
C3969 C3966 1.403 . S
C3969 C3970 1.392 . S
C3969 C3973 1.495 . S
C3970 C3969 1.392 . S
C3970 C3971 1.385 . S
C3970 C3972 1.478 . S
C3971 H3965 0.930 . S
C3971 C3967 1.400 . S
C3971 C3970 1.385 . S
C3972 C3970 1.478 . S
C3972 C3974 1.381 . S
C3972 C3978 1.383 . S
C3973 C3969 1.495 . S
C3973 H3979 0.959 . S
C3973 H3980 0.961 . S
C3973 H3981 0.960 . S
C3974 C3972 1.381 . S
C3974 C3975 1.394 . S
C3974 H3982 0.930 . S
C3975 C3974 1.394 . S
C3975 C3976 1.383 . S
C3975 H3983 0.929 . S
C3976 C3975 1.383 . S
C3976 C3977 1.377 . S
C3977 H3961 0.930 . S
C3977 C3976 1.377 . S
C3977 C3978 1.379 . S
C3978 H3962 0.931 . S
C3978 C3972 1.383 . S
C3978 C3977 1.379 . S
H3979 C3973 0.959 . S
H3980 C3973 0.961 . S
H3981 C3973 0.960 . S
H3982 C3974 0.930 . S
H3983 C3975 0.929 . S
H3984 C3992 0.929 . S
H3985 C3994 0.930 . S
H3986 C3996 0.930 . S
H3987 C3999 0.929 . S
H3988 C4002 0.930 . S
H3989 C4004 0.960 . S
H3990 C4004 0.960 . S
H3991 C4004 0.960 . S
C3992 H3984 0.929 . S
C3992 C3993 1.377 . S
C3992 C3994 1.384 . S
C3993 C3992 1.377 . S
C3993 C3999 1.390 . S
C3994 H3985 0.930 . S
C3994 C3992 1.384 . S
C3994 C3995 1.372 . S
C3995 C3994 1.372 . S
C3995 C3996 1.400 . S
C3995 C4000 1.490 . S
C3996 H3986 0.930 . S
C3996 C3995 1.400 . S
C3996 C3999 1.386 . S
H3997 C4013 0.930 . S
H3998 C4014 0.931 . S
C3999 H3987 0.929 . S
C3999 C3993 1.390 . S
C3999 C3996 1.386 . S
C4000 C3995 1.490 . S
C4000 C4002 1.395 . S
C4000 C4003 1.403 . S
H4001 C4007 0.930 . S
C4002 H3988 0.930 . S
C4002 C4000 1.395 . S
C4002 C4005 1.403 . S
C4003 C4000 1.403 . S
C4003 C4004 1.524 . S
C4003 C4007 1.400 . S
C4004 H3989 0.960 . S
C4004 H3990 0.960 . S
C4004 H3991 0.960 . S
C4004 C4003 1.524 . S
C4005 C4002 1.403 . S
C4005 C4006 1.392 . S
C4005 C4009 1.495 . S
C4006 C4005 1.392 . S
C4006 C4007 1.385 . S
C4006 C4008 1.478 . S
C4007 H4001 0.930 . S
C4007 C4003 1.400 . S
C4007 C4006 1.385 . S
C4008 C4006 1.478 . S
C4008 C4010 1.381 . S
C4008 C4014 1.383 . S
C4009 C4005 1.495 . S
C4009 H4015 0.959 . S
C4009 H4016 0.961 . S
C4009 H4017 0.960 . S
C4010 C4008 1.381 . S
C4010 C4011 1.394 . S
C4010 H4018 0.930 . S
C4011 C4010 1.394 . S
C4011 C4012 1.383 . S
C4011 H4019 0.929 . S
C4012 C4011 1.383 . S
C4012 C4013 1.377 . S
C4013 H3997 0.930 . S
C4013 C4012 1.377 . S
C4013 C4014 1.379 . S
C4014 H3998 0.931 . S
C4014 C4008 1.383 . S
C4014 C4013 1.379 . S
H4015 C4009 0.959 . S
H4016 C4009 0.961 . S
H4017 C4009 0.960 . S
H4018 C4010 0.930 . S
H4019 C4011 0.929 . S
H4020 C4028 0.929 . S
H4021 C4030 0.930 . S
H4022 C4032 0.930 . S
H4023 C4035 0.929 . S
H4024 C4038 0.930 . S
H4025 C4040 0.960 . S
H4026 C4040 0.960 . S
H4027 C4040 0.960 . S
C4028 H4020 0.929 . S
C4028 C4029 1.377 . S
C4028 C4030 1.384 . S
C4029 C4028 1.377 . S
C4029 C4035 1.390 . S
C4030 H4021 0.930 . S
C4030 C4028 1.384 . S
C4030 C4031 1.372 . S
C4031 C4030 1.372 . S
C4031 C4032 1.400 . S
C4031 C4036 1.490 . S
C4032 H4022 0.930 . S
C4032 C4031 1.400 . S
C4032 C4035 1.386 . S
H4033 C4049 0.930 . S
H4034 C4050 0.931 . S
C4035 H4023 0.929 . S
C4035 C4029 1.390 . S
C4035 C4032 1.386 . S
C4036 C4031 1.490 . S
C4036 C4038 1.395 . S
C4036 C4039 1.403 . S
H4037 C4043 0.930 . S
C4038 H4024 0.930 . S
C4038 C4036 1.395 . S
C4038 C4041 1.403 . S
C4039 C4036 1.403 . S
C4039 C4040 1.524 . S
C4039 C4043 1.400 . S
C4040 H4025 0.960 . S
C4040 H4026 0.960 . S
C4040 H4027 0.960 . S
C4040 C4039 1.524 . S
C4041 C4038 1.403 . S
C4041 C4042 1.392 . S
C4041 C4045 1.495 . S
C4042 C4041 1.392 . S
C4042 C4043 1.385 . S
C4042 C4044 1.478 . S
C4043 H4037 0.930 . S
C4043 C4039 1.400 . S
C4043 C4042 1.385 . S
C4044 C4042 1.478 . S
C4044 C4046 1.381 . S
C4044 C4050 1.383 . S
C4045 C4041 1.495 . S
C4045 H4051 0.959 . S
C4045 H4052 0.961 . S
C4045 H4053 0.960 . S
C4046 C4044 1.381 . S
C4046 C4047 1.394 . S
C4046 H4054 0.930 . S
C4047 C4046 1.394 . S
C4047 C4048 1.383 . S
C4047 H4055 0.929 . S
C4048 C4047 1.383 . S
C4048 C4049 1.377 . S
C4049 H4033 0.930 . S
C4049 C4048 1.377 . S
C4049 C4050 1.379 . S
C4050 H4034 0.931 . S
C4050 C4044 1.383 . S
C4050 C4049 1.379 . S
H4051 C4045 0.959 . S
H4052 C4045 0.961 . S
H4053 C4045 0.960 . S
H4054 C4046 0.930 . S
H4055 C4047 0.929 . S
H4056 C4064 0.929 . S
H4057 C4066 0.930 . S
H4058 C4068 0.930 . S
H4059 C4071 0.929 . S
H4060 C4074 0.930 . S
H4061 C4076 0.960 . S
H4062 C4076 0.960 . S
H4063 C4076 0.960 . S
C4064 H4056 0.929 . S
C4064 C4065 1.377 . S
C4064 C4066 1.384 . S
C4065 C4064 1.377 . S
C4065 C4071 1.390 . S
C4066 H4057 0.930 . S
C4066 C4064 1.384 . S
C4066 C4067 1.372 . S
C4067 C4066 1.372 . S
C4067 C4068 1.400 . S
C4067 C4072 1.490 . S
C4068 H4058 0.930 . S
C4068 C4067 1.400 . S
C4068 C4071 1.386 . S
H4069 C4085 0.930 . S
H4070 C4086 0.931 . S
C4071 H4059 0.929 . S
C4071 C4065 1.390 . S
C4071 C4068 1.386 . S
C4072 C4067 1.490 . S
C4072 C4074 1.395 . S
C4072 C4075 1.403 . S
H4073 C4079 0.930 . S
C4074 H4060 0.930 . S
C4074 C4072 1.395 . S
C4074 C4077 1.403 . S
C4075 C4072 1.403 . S
C4075 C4076 1.524 . S
C4075 C4079 1.400 . S
C4076 H4061 0.960 . S
C4076 H4062 0.960 . S
C4076 H4063 0.960 . S
C4076 C4075 1.524 . S
C4077 C4074 1.403 . S
C4077 C4078 1.392 . S
C4077 C4081 1.495 . S
C4078 C4077 1.392 . S
C4078 C4079 1.385 . S
C4078 C4080 1.478 . S
C4079 H4073 0.930 . S
C4079 C4075 1.400 . S
C4079 C4078 1.385 . S
C4080 C4078 1.478 . S
C4080 C4082 1.381 . S
C4080 C4086 1.383 . S
C4081 C4077 1.495 . S
C4081 H4087 0.959 . S
C4081 H4088 0.961 . S
C4081 H4089 0.960 . S
C4082 C4080 1.381 . S
C4082 C4083 1.394 . S
C4082 H4090 0.930 . S
C4083 C4082 1.394 . S
C4083 C4084 1.383 . S
C4083 H4091 0.929 . S
C4084 C4083 1.383 . S
C4084 C4085 1.377 . S
C4085 H4069 0.930 . S
C4085 C4084 1.377 . S
C4085 C4086 1.379 . S
C4086 H4070 0.931 . S
C4086 C4080 1.383 . S
C4086 C4085 1.379 . S
H4087 C4081 0.959 . S
H4088 C4081 0.961 . S
H4089 C4081 0.960 . S
H4090 C4082 0.930 . S
H4091 C4083 0.929 . S
H4092 C4100 0.929 . S
H4093 C4102 0.930 . S
H4094 C4104 0.930 . S
H4095 C4107 0.929 . S
H4096 C4110 0.930 1_556 S
H4097 C4112 0.960 1_545 S
H4098 C4112 0.960 . S
H4099 C4112 0.953 1_545 S
C4100 H4092 0.929 . S
C4100 C4101 1.377 . S
C4100 C4102 1.384 . S
C4101 C4100 1.377 . S
C4101 C4107 1.390 . S
C4102 H4093 0.930 . S
C4102 C4100 1.384 . S
C4102 C4103 1.372 . S
C4103 C4102 1.372 . S
C4103 C4104 1.400 . S
C4103 C4108 1.490 . S
C4104 H4094 0.930 . S
C4104 C4103 1.400 . S
C4104 C4107 1.386 . S
H4105 C4121 0.930 . S
H4106 C4122 0.931 . S
C4107 H4095 0.929 . S
C4107 C4101 1.390 . S
C4107 C4104 1.386 . S
C4108 C4103 1.490 . S
C4108 C4110 1.395 . S
C4108 C4111 1.403 . S
H4109 C4115 0.910 1_545 S
C4110 H4096 0.930 1_554 S
C4110 C4108 1.395 . S
C4110 C4113 1.403 . S
C4111 C4108 1.403 . S
C4111 C4112 1.524 . S
C4111 C4115 1.408 . S
C4112 H4097 0.960 1_565 S
C4112 H4098 0.960 . S
C4112 H4099 0.953 1_565 S
C4112 C4111 1.524 . S
C4113 C4110 1.403 . S
C4113 C4114 1.392 . S
C4113 C4117 1.495 1_554 S
C4114 C4113 1.392 . S
C4114 C4115 1.397 . S
C4114 C4116 1.478 1_565 S
C4115 H4109 0.910 1_565 S
C4115 C4111 1.408 . S
C4115 C4114 1.397 . S
C4116 C4114 1.478 1_545 S
C4116 C4118 1.381 1_545 S
C4116 C4122 1.383 . S
C4117 C4113 1.495 1_556 S
C4117 H4123 0.959 . S
C4117 H4124 0.961 . S
C4117 H4125 0.960 . S
C4118 C4116 1.381 1_565 S
C4118 C4119 1.394 1_565 S
C4118 H4126 0.930 . S
C4119 C4118 1.394 1_545 S
C4119 C4120 1.383 . S
C4119 H4127 0.929 . S
C4120 C4119 1.383 . S
C4120 C4121 1.377 . S
C4121 H4105 0.930 . S
C4121 C4120 1.377 . S
C4121 C4122 1.379 . S
C4122 H4106 0.931 . S
C4122 C4116 1.383 . S
C4122 C4121 1.379 . S
H4123 C4117 0.959 . S
H4124 C4117 0.961 . S
H4125 C4117 0.960 . S
H4126 C4118 0.930 . S
H4127 C4119 0.929 . S
H4128 C4136 0.929 . S
H4129 C4138 0.930 . S
H4130 C4140 0.930 . S
H4131 C4143 0.929 . S
H4132 C4146 0.930 . S
H4133 C4148 0.960 . S
H4134 C4148 0.960 . S
H4135 C4148 0.960 . S
C4136 H4128 0.929 . S
C4136 C4137 1.377 . S
C4136 C4138 1.384 . S
C4137 C4136 1.377 . S
C4137 C4143 1.390 . S
C4138 H4129 0.930 . S
C4138 C4136 1.384 . S
C4138 C4139 1.372 . S
C4139 C4138 1.372 . S
C4139 C4140 1.400 . S
C4139 C4144 1.490 . S
C4140 H4130 0.930 . S
C4140 C4139 1.400 . S
C4140 C4143 1.386 . S
H4141 C4157 0.930 . S
H4142 C4158 0.931 . S
C4143 H4131 0.929 . S
C4143 C4137 1.390 . S
C4143 C4140 1.386 . S
C4144 C4139 1.490 . S
C4144 C4146 1.395 . S
C4144 C4147 1.403 . S
H4145 C4151 0.930 . S
C4146 H4132 0.930 . S
C4146 C4144 1.395 . S
C4146 C4149 1.403 . S
C4147 C4144 1.403 . S
C4147 C4148 1.524 . S
C4147 C4151 1.400 . S
C4148 H4133 0.960 . S
C4148 H4134 0.960 . S
C4148 H4135 0.960 . S
C4148 C4147 1.524 . S
C4149 C4146 1.403 . S
C4149 C4150 1.392 . S
C4149 C4153 1.495 . S
C4150 C4149 1.392 . S
C4150 C4151 1.385 . S
C4150 C4152 1.478 . S
C4151 H4145 0.930 . S
C4151 C4147 1.400 . S
C4151 C4150 1.385 . S
C4152 C4150 1.478 . S
C4152 C4154 1.381 . S
C4152 C4158 1.383 . S
C4153 C4149 1.495 . S
C4153 H4159 0.959 . S
C4153 H4160 0.961 . S
C4153 H4161 0.960 . S
C4154 C4152 1.381 . S
C4154 C4155 1.394 . S
C4154 H4162 0.930 . S
C4155 C4154 1.394 . S
C4155 C4156 1.383 . S
C4155 H4163 0.929 . S
C4156 C4155 1.383 . S
C4156 C4157 1.377 . S
C4157 H4141 0.930 . S
C4157 C4156 1.377 . S
C4157 C4158 1.379 . S
C4158 H4142 0.931 . S
C4158 C4152 1.383 . S
C4158 C4157 1.379 . S
H4159 C4153 0.959 . S
H4160 C4153 0.961 . S
H4161 C4153 0.960 . S
H4162 C4154 0.930 . S
H4163 C4155 0.929 . S
H4164 C4172 0.929 . S
H4165 C4174 0.930 . S
H4166 C4176 0.930 1_556 S
H4167 C4179 0.929 . S
H4168 C4182 0.930 . S
H4169 C4184 0.960 . S
H4170 C4184 0.960 . S
H4171 C4184 0.960 . S
C4172 H4164 0.929 . S
C4172 C4173 1.377 . S
C4172 C4174 1.384 . S
C4173 C4172 1.377 . S
C4173 C4179 1.390 1_554 S
C4174 H4165 0.930 . S
C4174 C4172 1.384 . S
C4174 C4175 1.372 . S
C4175 C4174 1.372 . S
C4175 C4176 1.400 . S
C4175 C4180 1.490 . S
C4176 H4166 0.930 1_554 S
C4176 C4175 1.400 . S
C4176 C4179 1.386 1_554 S
H4177 C4193 0.930 . S
H4178 C4194 0.931 . S
C4179 H4167 0.929 . S
C4179 C4173 1.390 1_556 S
C4179 C4176 1.386 1_556 S
C4180 C4175 1.490 . S
C4180 C4182 1.395 . S
C4180 C4183 1.403 . S
H4181 C4187 0.930 . S
C4182 H4168 0.930 . S
C4182 C4180 1.395 . S
C4182 C4185 1.403 . S
C4183 C4180 1.403 . S
C4183 C4184 1.524 . S
C4183 C4187 1.400 . S
C4184 H4169 0.960 . S
C4184 H4170 0.960 . S
C4184 H4171 0.960 . S
C4184 C4183 1.524 . S
C4185 C4182 1.403 . S
C4185 C4186 1.392 . S
C4185 C4189 1.495 . S
C4186 C4185 1.392 . S
C4186 C4187 1.385 . S
C4186 C4188 1.478 . S
C4187 H4181 0.930 . S
C4187 C4183 1.400 . S
C4187 C4186 1.385 . S
C4188 C4186 1.478 . S
C4188 C4190 1.381 . S
C4188 C4194 1.383 . S
C4189 C4185 1.495 . S
C4189 H4195 0.959 . S
C4189 H4196 0.961 . S
C4189 H4197 0.960 . S
C4190 C4188 1.381 . S
C4190 C4191 1.394 . S
C4190 H4198 0.930 . S
C4191 C4190 1.394 . S
C4191 C4192 1.383 . S
C4191 H4199 0.929 . S
C4192 C4191 1.383 . S
C4192 C4193 1.377 . S
C4193 H4177 0.930 . S
C4193 C4192 1.377 . S
C4193 C4194 1.379 . S
C4194 H4178 0.931 . S
C4194 C4188 1.383 . S
C4194 C4193 1.379 . S
H4195 C4189 0.959 . S
H4196 C4189 0.961 . S
H4197 C4189 0.960 . S
H4198 C4190 0.930 . S
H4199 C4191 0.929 . S
H4200 C4208 0.929 . S
H4201 C4210 0.930 . S
H4202 C4212 0.930 . S
H4203 C4215 0.929 . S
H4204 C4218 0.930 . S
H4205 C4220 0.960 . S
H4206 C4220 0.960 . S
H4207 C4220 0.960 . S
C4208 H4200 0.929 . S
C4208 C4209 1.377 . S
C4208 C4210 1.384 . S
C4209 C4208 1.377 . S
C4209 C4215 1.390 . S
C4210 H4201 0.930 . S
C4210 C4208 1.384 . S
C4210 C4211 1.372 . S
C4211 C4210 1.372 . S
C4211 C4212 1.400 . S
C4211 C4216 1.490 . S
C4212 H4202 0.930 . S
C4212 C4211 1.400 . S
C4212 C4215 1.386 . S
H4213 C4229 0.930 . S
H4214 C4230 0.931 . S
C4215 H4203 0.929 . S
C4215 C4209 1.390 . S
C4215 C4212 1.386 . S
C4216 C4211 1.490 . S
C4216 C4218 1.395 . S
C4216 C4219 1.403 . S
H4217 C4223 0.930 . S
C4218 H4204 0.930 . S
C4218 C4216 1.395 . S
C4218 C4221 1.403 . S
C4219 C4216 1.403 . S
C4219 C4220 1.524 . S
C4219 C4223 1.400 . S
C4220 H4205 0.960 . S
C4220 H4206 0.960 . S
C4220 H4207 0.960 . S
C4220 C4219 1.524 . S
C4221 C4218 1.403 . S
C4221 C4222 1.392 . S
C4221 C4225 1.495 . S
C4222 C4221 1.392 . S
C4222 C4223 1.385 . S
C4222 C4224 1.478 . S
C4223 H4217 0.930 . S
C4223 C4219 1.400 . S
C4223 C4222 1.385 . S
C4224 C4222 1.478 . S
C4224 C4226 1.381 . S
C4224 C4230 1.383 . S
C4225 C4221 1.495 . S
C4225 H4231 0.959 . S
C4225 H4232 0.961 . S
C4225 H4233 0.960 . S
C4226 C4224 1.381 . S
C4226 C4227 1.394 . S
C4226 H4234 0.930 . S
C4227 C4226 1.394 . S
C4227 C4228 1.383 . S
C4227 H4235 0.929 . S
C4228 C4227 1.383 . S
C4228 C4229 1.377 . S
C4229 H4213 0.930 . S
C4229 C4228 1.377 . S
C4229 C4230 1.379 . S
C4230 H4214 0.931 . S
C4230 C4224 1.383 . S
C4230 C4229 1.379 . S
H4231 C4225 0.959 . S
H4232 C4225 0.961 . S
H4233 C4225 0.960 . S
H4234 C4226 0.930 . S
H4235 C4227 0.929 . S
H4236 C4244 0.929 . S
H4237 C4246 0.930 . S
H4238 C4248 0.930 . S
H4239 C4251 0.929 . S
H4240 C4254 0.930 . S
H4241 C4256 0.960 . S
H4242 C4256 0.960 . S
H4243 C4256 0.960 . S
C4244 H4236 0.929 . S
C4244 C4245 1.377 . S
C4244 C4246 1.384 . S
C4245 C4244 1.377 . S
C4245 C4251 1.390 . S
C4246 H4237 0.930 . S
C4246 C4244 1.384 . S
C4246 C4247 1.372 . S
C4247 C4246 1.372 . S
C4247 C4248 1.400 . S
C4247 C4252 1.490 . S
C4248 H4238 0.930 . S
C4248 C4247 1.400 . S
C4248 C4251 1.386 . S
H4249 C4265 0.930 . S
H4250 C4266 0.931 . S
C4251 H4239 0.929 . S
C4251 C4245 1.390 . S
C4251 C4248 1.386 . S
C4252 C4247 1.490 . S
C4252 C4254 1.395 . S
C4252 C4255 1.403 . S
H4253 C4259 0.930 . S
C4254 H4240 0.930 . S
C4254 C4252 1.395 . S
C4254 C4257 1.403 . S
C4255 C4252 1.403 . S
C4255 C4256 1.524 . S
C4255 C4259 1.400 . S
C4256 H4241 0.960 . S
C4256 H4242 0.960 . S
C4256 H4243 0.960 . S
C4256 C4255 1.524 . S
C4257 C4254 1.403 . S
C4257 C4258 1.392 . S
C4257 C4261 1.495 . S
C4258 C4257 1.392 . S
C4258 C4259 1.385 . S
C4258 C4260 1.478 . S
C4259 H4253 0.930 . S
C4259 C4255 1.400 . S
C4259 C4258 1.385 . S
C4260 C4258 1.478 . S
C4260 C4262 1.381 . S
C4260 C4266 1.383 . S
C4261 C4257 1.495 . S
C4261 H4267 0.959 . S
C4261 H4268 0.961 . S
C4261 H4269 0.960 . S
C4262 C4260 1.381 . S
C4262 C4263 1.394 . S
C4262 H4270 0.930 . S
C4263 C4262 1.394 . S
C4263 C4264 1.383 . S
C4263 H4271 0.929 . S
C4264 C4263 1.383 . S
C4264 C4265 1.377 . S
C4265 H4249 0.930 . S
C4265 C4264 1.377 . S
C4265 C4266 1.379 . S
C4266 H4250 0.931 . S
C4266 C4260 1.383 . S
C4266 C4265 1.379 . S
H4267 C4261 0.959 . S
H4268 C4261 0.961 . S
H4269 C4261 0.960 . S
H4270 C4262 0.930 . S
H4271 C4263 0.929 . S
H4272 C4280 0.929 . S
H4273 C4282 0.930 . S
H4274 C4284 0.930 . S
H4275 C4287 0.929 . S
H4276 C4290 0.930 . S
H4277 C4292 0.960 . S
H4278 C4292 0.960 . S
H4279 C4292 0.960 . S
C4280 H4272 0.929 . S
C4280 C4281 1.377 . S
C4280 C4282 1.384 . S
C4281 C4280 1.377 . S
C4281 C4287 1.390 . S
C4282 H4273 0.930 . S
C4282 C4280 1.384 . S
C4282 C4283 1.372 . S
C4283 C4282 1.372 . S
C4283 C4284 1.400 . S
C4283 C4288 1.490 . S
C4284 H4274 0.930 . S
C4284 C4283 1.400 . S
C4284 C4287 1.386 . S
H4285 C4301 0.930 . S
H4286 C4302 0.931 . S
C4287 H4275 0.929 . S
C4287 C4281 1.390 . S
C4287 C4284 1.386 . S
C4288 C4283 1.490 . S
C4288 C4290 1.395 . S
C4288 C4291 1.403 . S
H4289 C4295 0.930 . S
C4290 H4276 0.930 . S
C4290 C4288 1.395 . S
C4290 C4293 1.403 . S
C4291 C4288 1.403 . S
C4291 C4292 1.524 . S
C4291 C4295 1.400 . S
C4292 H4277 0.960 . S
C4292 H4278 0.960 . S
C4292 H4279 0.960 . S
C4292 C4291 1.524 . S
C4293 C4290 1.403 . S
C4293 C4294 1.392 . S
C4293 C4297 1.495 . S
C4294 C4293 1.392 . S
C4294 C4295 1.385 . S
C4294 C4296 1.478 . S
C4295 H4289 0.930 . S
C4295 C4291 1.400 . S
C4295 C4294 1.385 . S
C4296 C4294 1.478 . S
C4296 C4298 1.381 . S
C4296 C4302 1.383 . S
C4297 C4293 1.495 . S
C4297 H4303 0.959 . S
C4297 H4304 0.961 . S
C4297 H4305 0.960 . S
C4298 C4296 1.381 . S
C4298 C4299 1.394 . S
C4298 H4306 0.930 . S
C4299 C4298 1.394 . S
C4299 C4300 1.383 . S
C4299 H4307 0.929 . S
C4300 C4299 1.383 . S
C4300 C4301 1.377 . S
C4301 H4285 0.930 . S
C4301 C4300 1.377 . S
C4301 C4302 1.379 . S
C4302 H4286 0.931 . S
C4302 C4296 1.383 . S
C4302 C4301 1.379 . S
H4303 C4297 0.959 . S
H4304 C4297 0.961 . S
H4305 C4297 0.960 . S
H4306 C4298 0.930 . S
H4307 C4299 0.929 . S
H4308 C4316 0.929 . S
H4309 C4318 0.930 . S
H4310 C4320 0.930 . S
H4311 C4323 0.929 . S
H4312 C4326 0.930 . S
H4313 C4328 0.960 . S
H4314 C4328 0.960 . S
H4315 C4328 0.960 . S
C4316 H4308 0.929 . S
C4316 C4317 1.377 . S
C4316 C4318 1.384 . S
C4317 C4316 1.377 . S
C4317 C4323 1.390 . S
C4318 H4309 0.930 . S
C4318 C4316 1.384 . S
C4318 C4319 1.372 . S
C4319 C4318 1.372 . S
C4319 C4320 1.400 . S
C4319 C4324 1.490 . S
C4320 H4310 0.930 . S
C4320 C4319 1.400 . S
C4320 C4323 1.386 . S
H4321 C4337 0.930 . S
H4322 C4338 0.931 . S
C4323 H4311 0.929 . S
C4323 C4317 1.390 . S
C4323 C4320 1.386 . S
C4324 C4319 1.490 . S
C4324 C4326 1.395 . S
C4324 C4327 1.403 . S
H4325 C4331 0.930 . S
C4326 H4312 0.930 . S
C4326 C4324 1.395 . S
C4326 C4329 1.403 . S
C4327 C4324 1.403 . S
C4327 C4328 1.524 . S
C4327 C4331 1.400 . S
C4328 H4313 0.960 . S
C4328 H4314 0.960 . S
C4328 H4315 0.960 . S
C4328 C4327 1.524 . S
C4329 C4326 1.403 . S
C4329 C4330 1.392 . S
C4329 C4333 1.495 . S
C4330 C4329 1.392 . S
C4330 C4331 1.385 . S
C4330 C4332 1.478 . S
C4331 H4325 0.930 . S
C4331 C4327 1.400 . S
C4331 C4330 1.385 . S
C4332 C4330 1.478 . S
C4332 C4334 1.381 . S
C4332 C4338 1.383 . S
C4333 C4329 1.495 . S
C4333 H4339 0.959 . S
C4333 H4340 0.961 . S
C4333 H4341 0.960 . S
C4334 C4332 1.381 . S
C4334 C4335 1.394 . S
C4334 H4342 0.930 . S
C4335 C4334 1.394 . S
C4335 C4336 1.383 . S
C4335 H4343 0.929 . S
C4336 C4335 1.383 . S
C4336 C4337 1.377 . S
C4337 H4321 0.930 . S
C4337 C4336 1.377 . S
C4337 C4338 1.379 . S
C4338 H4322 0.931 . S
C4338 C4332 1.383 . S
C4338 C4337 1.379 . S
H4339 C4333 0.959 . S
H4340 C4333 0.961 . S
H4341 C4333 0.960 . S
H4342 C4334 0.930 . S
H4343 C4335 0.929 . S
H4344 C4352 0.929 . S
H4345 C4354 0.930 . S
H4346 C4356 0.930 . S
H4347 C4359 0.929 . S
H4348 C4362 0.930 . S
H4349 C4364 0.960 . S
H4350 C4364 0.960 . S
H4351 C4364 0.960 . S
C4352 H4344 0.929 . S
C4352 C4353 1.377 . S
C4352 C4354 1.384 . S
C4353 C4352 1.377 . S
C4353 C4359 1.390 . S
C4354 H4345 0.930 . S
C4354 C4352 1.384 . S
C4354 C4355 1.372 . S
C4355 C4354 1.372 . S
C4355 C4356 1.400 . S
C4355 C4360 1.490 . S
C4356 H4346 0.930 . S
C4356 C4355 1.400 . S
C4356 C4359 1.386 . S
H4357 C4373 0.930 . S
H4358 C4374 0.931 . S
C4359 H4347 0.929 . S
C4359 C4353 1.390 . S
C4359 C4356 1.386 . S
C4360 C4355 1.490 . S
C4360 C4362 1.395 . S
C4360 C4363 1.403 . S
H4361 C4367 0.930 . S
C4362 H4348 0.930 . S
C4362 C4360 1.395 . S
C4362 C4365 1.403 . S
C4363 C4360 1.403 . S
C4363 C4364 1.524 . S
C4363 C4367 1.400 . S
C4364 H4349 0.960 . S
C4364 H4350 0.960 . S
C4364 H4351 0.960 . S
C4364 C4363 1.524 . S
C4365 C4362 1.403 . S
C4365 C4366 1.392 . S
C4365 C4369 1.495 . S
C4366 C4365 1.392 . S
C4366 C4367 1.385 . S
C4366 C4368 1.478 . S
C4367 H4361 0.930 . S
C4367 C4363 1.400 . S
C4367 C4366 1.385 . S
C4368 C4366 1.478 . S
C4368 C4370 1.381 . S
C4368 C4374 1.383 . S
C4369 C4365 1.495 . S
C4369 H4375 0.959 . S
C4369 H4376 0.961 . S
C4369 H4377 0.960 . S
C4370 C4368 1.381 . S
C4370 C4371 1.394 . S
C4370 H4378 0.930 . S
C4371 C4370 1.394 . S
C4371 C4372 1.383 . S
C4371 H4379 0.929 . S
C4372 C4371 1.383 . S
C4372 C4373 1.377 . S
C4373 H4357 0.930 . S
C4373 C4372 1.377 . S
C4373 C4374 1.379 . S
C4374 H4358 0.931 . S
C4374 C4368 1.383 . S
C4374 C4373 1.379 . S
H4375 C4369 0.959 . S
H4376 C4369 0.961 . S
H4377 C4369 0.960 . S
H4378 C4370 0.930 . S
H4379 C4371 0.929 . S
H4380 C4388 0.929 . S
H4381 C4390 0.930 . S
H4382 C4392 0.930 . S
H4383 C4395 0.929 . S
H4384 C4398 0.930 . S
H4385 C4400 0.960 . S
H4386 C4400 0.960 . S
H4387 C4400 0.960 . S
C4388 H4380 0.929 . S
C4388 C4389 1.377 . S
C4388 C4390 1.384 . S
C4389 C4388 1.377 . S
C4389 C4395 1.390 . S
C4390 H4381 0.930 . S
C4390 C4388 1.384 . S
C4390 C4391 1.372 . S
C4391 C4390 1.372 . S
C4391 C4392 1.400 . S
C4391 C4396 1.490 . S
C4392 H4382 0.930 . S
C4392 C4391 1.400 . S
C4392 C4395 1.386 . S
H4393 C4409 0.930 . S
H4394 C4410 0.931 . S
C4395 H4383 0.929 . S
C4395 C4389 1.390 . S
C4395 C4392 1.386 . S
C4396 C4391 1.490 . S
C4396 C4398 1.395 . S
C4396 C4399 1.403 . S
H4397 C4403 0.930 . S
C4398 H4384 0.930 . S
C4398 C4396 1.395 . S
C4398 C4401 1.403 . S
C4399 C4396 1.403 . S
C4399 C4400 1.524 . S
C4399 C4403 1.400 . S
C4400 H4385 0.960 . S
C4400 H4386 0.960 . S
C4400 H4387 0.960 . S
C4400 C4399 1.524 . S
C4401 C4398 1.403 . S
C4401 C4402 1.392 . S
C4401 C4405 1.495 . S
C4402 C4401 1.392 . S
C4402 C4403 1.385 . S
C4402 C4404 1.478 . S
C4403 H4397 0.930 . S
C4403 C4399 1.400 . S
C4403 C4402 1.385 . S
C4404 C4402 1.478 . S
C4404 C4406 1.381 . S
C4404 C4410 1.383 . S
C4405 C4401 1.495 . S
C4405 H4411 0.959 . S
C4405 H4412 0.961 . S
C4405 H4413 0.960 . S
C4406 C4404 1.381 . S
C4406 C4407 1.394 . S
C4406 H4414 0.930 . S
C4407 C4406 1.394 . S
C4407 C4408 1.383 . S
C4407 H4415 0.929 . S
C4408 C4407 1.383 . S
C4408 C4409 1.377 . S
C4409 H4393 0.930 . S
C4409 C4408 1.377 . S
C4409 C4410 1.379 . S
C4410 H4394 0.931 . S
C4410 C4404 1.383 . S
C4410 C4409 1.379 . S
H4411 C4405 0.959 . S
H4412 C4405 0.961 . S
H4413 C4405 0.960 . S
H4414 C4406 0.930 . S
H4415 C4407 0.929 . S
H4416 C4424 0.929 . S
H4417 C4426 0.930 . S
H4418 C4428 0.930 . S
H4419 C4431 0.929 . S
H4420 C4434 0.930 . S
H4421 C4436 0.960 . S
H4422 C4436 0.960 . S
H4423 C4436 0.960 . S
C4424 H4416 0.929 . S
C4424 C4425 1.377 . S
C4424 C4426 1.384 . S
C4425 C4424 1.377 . S
C4425 C4431 1.390 . S
C4426 H4417 0.930 . S
C4426 C4424 1.384 . S
C4426 C4427 1.372 . S
C4427 C4426 1.372 . S
C4427 C4428 1.400 . S
C4427 C4432 1.490 . S
C4428 H4418 0.930 . S
C4428 C4427 1.400 . S
C4428 C4431 1.386 . S
H4429 C4445 0.930 . S
H4430 C4446 0.931 . S
C4431 H4419 0.929 . S
C4431 C4425 1.390 . S
C4431 C4428 1.386 . S
C4432 C4427 1.490 . S
C4432 C4434 1.395 . S
C4432 C4435 1.403 . S
H4433 C4439 0.930 . S
C4434 H4420 0.930 . S
C4434 C4432 1.395 . S
C4434 C4437 1.403 . S
C4435 C4432 1.403 . S
C4435 C4436 1.524 . S
C4435 C4439 1.400 . S
C4436 H4421 0.960 . S
C4436 H4422 0.960 . S
C4436 H4423 0.960 . S
C4436 C4435 1.524 . S
C4437 C4434 1.403 . S
C4437 C4438 1.392 . S
C4437 C4441 1.495 . S
C4438 C4437 1.392 . S
C4438 C4439 1.385 . S
C4438 C4440 1.478 . S
C4439 H4433 0.930 . S
C4439 C4435 1.400 . S
C4439 C4438 1.385 . S
C4440 C4438 1.478 . S
C4440 C4442 1.381 . S
C4440 C4446 1.383 . S
C4441 C4437 1.495 . S
C4441 H4447 0.959 . S
C4441 H4448 0.961 . S
C4441 H4449 0.925 1_556 S
C4442 C4440 1.381 . S
C4442 C4443 1.370 1_556 S
C4442 H4450 0.930 . S
C4443 C4442 1.370 1_554 S
C4443 C4444 1.377 1_554 S
C4443 H4451 0.960 . S
C4444 C4443 1.377 1_556 S
C4444 C4445 1.377 . S
C4445 H4429 0.930 . S
C4445 C4444 1.377 . S
C4445 C4446 1.379 . S
C4446 H4430 0.931 . S
C4446 C4440 1.383 . S
C4446 C4445 1.379 . S
H4447 C4441 0.959 . S
H4448 C4441 0.961 . S
H4449 C4441 0.925 1_554 S
H4450 C4442 0.930 . S
H4451 C4443 0.960 . S
H4452 C4460 0.929 . S
H4453 C4462 0.930 . S
H4454 C4464 0.930 . S
H4455 C4467 0.929 . S
H4456 C4470 0.930 . S
H4457 C4472 0.960 . S
H4458 C4472 0.960 . S
H4459 C4472 0.960 . S
C4460 H4452 0.929 . S
C4460 C4461 1.377 . S
C4460 C4462 1.384 . S
C4461 C4460 1.377 . S
C4461 C4467 1.390 . S
C4462 H4453 0.930 . S
C4462 C4460 1.384 . S
C4462 C4463 1.372 . S
C4463 C4462 1.372 . S
C4463 C4464 1.400 . S
C4463 C4468 1.490 . S
C4464 H4454 0.930 . S
C4464 C4463 1.400 . S
C4464 C4467 1.386 . S
H4465 C4481 0.930 . S
H4466 C4482 0.931 . S
C4467 H4455 0.929 . S
C4467 C4461 1.390 . S
C4467 C4464 1.386 . S
C4468 C4463 1.490 . S
C4468 C4470 1.395 . S
C4468 C4471 1.403 . S
H4469 C4475 0.930 . S
C4470 H4456 0.930 . S
C4470 C4468 1.395 . S
C4470 C4473 1.403 . S
C4471 C4468 1.403 . S
C4471 C4472 1.524 . S
C4471 C4475 1.400 . S
C4472 H4457 0.960 . S
C4472 H4458 0.960 . S
C4472 H4459 0.960 . S
C4472 C4471 1.524 . S
C4473 C4470 1.403 . S
C4473 C4474 1.392 . S
C4473 C4477 1.495 . S
C4474 C4473 1.392 . S
C4474 C4475 1.385 . S
C4474 C4476 1.478 . S
C4475 H4469 0.930 . S
C4475 C4471 1.400 . S
C4475 C4474 1.385 . S
C4476 C4474 1.478 . S
C4476 C4478 1.381 . S
C4476 C4482 1.383 . S
C4477 C4473 1.495 . S
C4477 H4483 0.959 . S
C4477 H4484 0.961 . S
C4477 H4485 0.960 . S
C4478 C4476 1.381 . S
C4478 C4479 1.394 . S
C4478 H4486 0.930 . S
C4479 C4478 1.394 . S
C4479 C4480 1.383 . S
C4479 H4487 0.929 . S
C4480 C4479 1.383 . S
C4480 C4481 1.377 . S
C4481 H4465 0.930 . S
C4481 C4480 1.377 . S
C4481 C4482 1.379 . S
C4482 H4466 0.931 . S
C4482 C4476 1.383 . S
C4482 C4481 1.379 . S
H4483 C4477 0.959 . S
H4484 C4477 0.961 . S
H4485 C4477 0.960 . S
H4486 C4478 0.930 . S
H4487 C4479 0.929 . S
H4488 C4496 0.929 . S
H4489 C4498 0.930 . S
H4490 C4500 0.930 . S
H4491 C4503 0.929 . S
H4492 C4506 0.930 . S
H4493 C4508 0.960 . S
H4494 C4508 0.960 . S
H4495 C4508 0.960 . S
C4496 H4488 0.929 . S
C4496 C4497 1.377 . S
C4496 C4498 1.384 . S
C4497 C4496 1.377 . S
C4497 C4503 1.390 . S
C4498 H4489 0.930 . S
C4498 C4496 1.384 . S
C4498 C4499 1.372 . S
C4499 C4498 1.372 . S
C4499 C4500 1.400 . S
C4499 C4504 1.490 . S
C4500 H4490 0.930 . S
C4500 C4499 1.400 . S
C4500 C4503 1.386 . S
H4501 C4517 0.930 . S
H4502 C4518 0.931 . S
C4503 H4491 0.929 . S
C4503 C4497 1.390 . S
C4503 C4500 1.386 . S
C4504 C4499 1.490 . S
C4504 C4506 1.395 . S
C4504 C4507 1.403 . S
H4505 C4511 0.930 . S
C4506 H4492 0.930 . S
C4506 C4504 1.395 . S
C4506 C4509 1.403 . S
C4507 C4504 1.403 . S
C4507 C4508 1.524 . S
C4507 C4511 1.400 . S
C4508 H4493 0.960 . S
C4508 H4494 0.960 . S
C4508 H4495 0.960 . S
C4508 C4507 1.524 . S
C4509 C4506 1.403 . S
C4509 C4510 1.392 . S
C4509 C4513 1.495 . S
C4510 C4509 1.392 . S
C4510 C4511 1.385 . S
C4510 C4512 1.478 . S
C4511 H4505 0.930 . S
C4511 C4507 1.400 . S
C4511 C4510 1.385 . S
C4512 C4510 1.478 . S
C4512 C4514 1.381 . S
C4512 C4518 1.383 . S
C4513 C4509 1.495 . S
C4513 H4519 0.959 . S
C4513 H4520 0.961 . S
C4513 H4521 0.960 . S
C4514 C4512 1.381 . S
C4514 C4515 1.394 . S
C4514 H4522 0.930 . S
C4515 C4514 1.394 . S
C4515 C4516 1.383 . S
C4515 H4523 0.929 . S
C4516 C4515 1.383 . S
C4516 C4517 1.377 . S
C4517 H4501 0.930 . S
C4517 C4516 1.377 . S
C4517 C4518 1.379 . S
C4518 H4502 0.931 . S
C4518 C4512 1.383 . S
C4518 C4517 1.379 . S
H4519 C4513 0.959 . S
H4520 C4513 0.961 . S
H4521 C4513 0.960 . S
H4522 C4514 0.930 . S
H4523 C4515 0.929 . S
H4524 C4532 0.929 . S
H4525 C4534 0.930 . S
H4526 C4536 0.930 . S
H4527 C4539 0.929 . S
H4528 C4542 0.930 . S
H4529 C4544 0.960 . S
H4530 C4544 0.960 . S
H4531 C4544 0.960 . S
C4532 H4524 0.929 . S
C4532 C4533 1.377 . S
C4532 C4534 1.384 . S
C4533 C4532 1.377 . S
C4533 C4539 1.390 . S
C4534 H4525 0.930 . S
C4534 C4532 1.384 . S
C4534 C4535 1.372 . S
C4535 C4534 1.372 . S
C4535 C4536 1.400 . S
C4535 C4540 1.490 . S
C4536 H4526 0.930 . S
C4536 C4535 1.400 . S
C4536 C4539 1.386 . S
H4537 C4553 0.930 . S
H4538 C4554 0.931 . S
C4539 H4527 0.929 . S
C4539 C4533 1.390 . S
C4539 C4536 1.386 . S
C4540 C4535 1.490 . S
C4540 C4542 1.395 . S
C4540 C4543 1.403 . S
H4541 C4547 0.930 . S
C4542 H4528 0.930 . S
C4542 C4540 1.395 . S
C4542 C4545 1.403 . S
C4543 C4540 1.403 . S
C4543 C4544 1.524 . S
C4543 C4547 1.400 . S
C4544 H4529 0.960 . S
C4544 H4530 0.960 . S
C4544 H4531 0.960 . S
C4544 C4543 1.524 . S
C4545 C4542 1.403 . S
C4545 C4546 1.392 . S
C4545 C4549 1.495 . S
C4546 C4545 1.392 . S
C4546 C4547 1.385 . S
C4546 C4548 1.478 . S
C4547 H4541 0.930 . S
C4547 C4543 1.400 . S
C4547 C4546 1.385 . S
C4548 C4546 1.478 . S
C4548 C4550 1.381 . S
C4548 C4554 1.383 . S
C4549 C4545 1.495 . S
C4549 H4555 0.959 . S
C4549 H4556 0.961 . S
C4549 H4557 0.960 . S
C4550 C4548 1.381 . S
C4550 C4551 1.394 . S
C4550 H4558 0.930 . S
C4551 C4550 1.394 . S
C4551 C4552 1.383 . S
C4551 H4559 0.929 . S
C4552 C4551 1.383 . S
C4552 C4553 1.377 . S
C4553 H4537 0.930 . S
C4553 C4552 1.377 . S
C4553 C4554 1.379 . S
C4554 H4538 0.931 . S
C4554 C4548 1.383 . S
C4554 C4553 1.379 . S
H4555 C4549 0.959 . S
H4556 C4549 0.961 . S
H4557 C4549 0.960 . S
H4558 C4550 0.930 . S
H4559 C4551 0.929 . S
H4560 C4568 0.929 . S
H4561 C4570 0.930 . S
H4562 C4572 0.930 . S
H4563 C4575 0.929 . S
H4564 C4578 0.930 . S
H4565 C4580 0.960 . S
H4566 C4580 0.960 . S
H4567 C4580 0.960 . S
C4568 H4560 0.929 . S
C4568 C4569 1.377 . S
C4568 C4570 1.384 . S
C4569 C4568 1.377 . S
C4569 C4575 1.390 . S
C4570 H4561 0.930 . S
C4570 C4568 1.384 . S
C4570 C4571 1.372 . S
C4571 C4570 1.372 . S
C4571 C4572 1.400 . S
C4571 C4576 1.490 . S
C4572 H4562 0.930 . S
C4572 C4571 1.400 . S
C4572 C4575 1.386 . S
H4573 C4589 0.930 . S
H4574 C4590 0.931 . S
C4575 H4563 0.929 . S
C4575 C4569 1.390 . S
C4575 C4572 1.386 . S
C4576 C4571 1.490 . S
C4576 C4578 1.395 . S
C4576 C4579 1.403 . S
H4577 C4583 0.930 . S
C4578 H4564 0.930 . S
C4578 C4576 1.395 . S
C4578 C4581 1.403 . S
C4579 C4576 1.403 . S
C4579 C4580 1.524 . S
C4579 C4583 1.400 . S
C4580 H4565 0.960 . S
C4580 H4566 0.960 . S
C4580 H4567 0.960 . S
C4580 C4579 1.524 . S
C4581 C4578 1.403 . S
C4581 C4582 1.392 . S
C4581 C4585 1.495 . S
C4582 C4581 1.392 . S
C4582 C4583 1.385 . S
C4582 C4584 1.478 . S
C4583 H4577 0.930 . S
C4583 C4579 1.400 . S
C4583 C4582 1.385 . S
C4584 C4582 1.478 . S
C4584 C4586 1.381 . S
C4584 C4590 1.383 . S
C4585 C4581 1.495 . S
C4585 H4591 0.959 . S
C4585 H4592 0.961 . S
C4585 H4593 0.960 . S
C4586 C4584 1.381 . S
C4586 C4587 1.394 . S
C4586 H4594 0.930 . S
C4587 C4586 1.394 . S
C4587 C4588 1.383 . S
C4587 H4595 0.929 . S
C4588 C4587 1.383 . S
C4588 C4589 1.377 . S
C4589 H4573 0.930 . S
C4589 C4588 1.377 . S
C4589 C4590 1.379 . S
C4590 H4574 0.931 . S
C4590 C4584 1.383 . S
C4590 C4589 1.379 . S
H4591 C4585 0.959 . S
H4592 C4585 0.961 . S
H4593 C4585 0.960 . S
H4594 C4586 0.930 . S
H4595 C4587 0.929 . S
H4596 C4604 0.929 . S
H4597 C4606 0.930 . S
H4598 C4608 0.930 . S
H4599 C4611 0.929 . S
H4600 C4614 0.930 . S
H4601 C4616 0.960 . S
H4602 C4616 0.960 . S
H4603 C4616 0.960 . S
C4604 H4596 0.929 . S
C4604 C4605 1.377 . S
C4604 C4606 1.384 . S
C4605 C4604 1.377 . S
C4605 C4611 1.390 . S
C4606 H4597 0.930 . S
C4606 C4604 1.384 . S
C4606 C4607 1.372 . S
C4607 C4606 1.372 . S
C4607 C4608 1.400 . S
C4607 C4612 1.490 . S
C4608 H4598 0.930 . S
C4608 C4607 1.400 . S
C4608 C4611 1.386 . S
H4609 C4625 0.930 . S
H4610 C4626 0.931 . S
C4611 H4599 0.929 . S
C4611 C4605 1.390 . S
C4611 C4608 1.386 . S
C4612 C4607 1.490 . S
C4612 C4614 1.395 . S
C4612 C4615 1.403 . S
H4613 C4619 0.930 . S
C4614 H4600 0.930 . S
C4614 C4612 1.395 . S
C4614 C4617 1.403 . S
C4615 C4612 1.403 . S
C4615 C4616 1.524 . S
C4615 C4619 1.400 . S
C4616 H4601 0.960 . S
C4616 H4602 0.960 . S
C4616 H4603 0.960 . S
C4616 C4615 1.524 . S
C4617 C4614 1.403 . S
C4617 C4618 1.392 . S
C4617 C4621 1.495 . S
C4618 C4617 1.392 . S
C4618 C4619 1.385 . S
C4618 C4620 1.478 . S
C4619 H4613 0.930 . S
C4619 C4615 1.400 . S
C4619 C4618 1.385 . S
C4620 C4618 1.478 . S
C4620 C4622 1.381 . S
C4620 C4626 1.383 . S
C4621 C4617 1.495 . S
C4621 H4627 0.959 . S
C4621 H4628 0.961 . S
C4621 H4629 0.960 . S
C4622 C4620 1.381 . S
C4622 C4623 1.394 . S
C4622 H4630 0.930 . S
C4623 C4622 1.394 . S
C4623 C4624 1.383 . S
C4623 H4631 0.929 . S
C4624 C4623 1.383 . S
C4624 C4625 1.377 . S
C4625 H4609 0.930 . S
C4625 C4624 1.377 . S
C4625 C4626 1.379 . S
C4626 H4610 0.931 . S
C4626 C4620 1.383 . S
C4626 C4625 1.379 . S
H4627 C4621 0.959 . S
H4628 C4621 0.961 . S
H4629 C4621 0.960 . S
H4630 C4622 0.930 . S
H4631 C4623 0.929 . S
H4632 C4640 0.929 . S
H4633 C4642 0.930 . S
H4634 C4644 0.930 . S
H4635 C4647 0.929 . S
H4636 C4650 0.930 . S
H4637 C4652 0.960 . S
H4638 C4652 0.960 . S
H4639 C4652 0.960 . S
C4640 H4632 0.929 . S
C4640 C4641 1.377 . S
C4640 C4642 1.384 . S
C4641 C4640 1.377 . S
C4641 C4647 1.390 . S
C4642 H4633 0.930 . S
C4642 C4640 1.384 . S
C4642 C4643 1.372 . S
C4643 C4642 1.372 . S
C4643 C4644 1.400 . S
C4643 C4648 1.490 . S
C4644 H4634 0.930 . S
C4644 C4643 1.400 . S
C4644 C4647 1.386 . S
H4645 C4661 0.930 1_554 S
H4646 C4662 0.931 1_655 S
C4647 H4635 0.929 . S
C4647 C4641 1.390 . S
C4647 C4644 1.386 . S
C4648 C4643 1.490 . S
C4648 C4650 1.395 . S
C4648 C4651 1.403 . S
H4649 C4655 0.930 . S
C4650 H4636 0.930 . S
C4650 C4648 1.395 . S
C4650 C4653 1.403 . S
C4651 C4648 1.403 . S
C4651 C4652 1.524 . S
C4651 C4655 1.400 . S
C4652 H4637 0.960 . S
C4652 H4638 0.960 . S
C4652 H4639 0.960 . S
C4652 C4651 1.524 . S
C4653 C4650 1.403 . S
C4653 C4654 1.408 . S
C4653 C4657 1.495 1_655 S
C4654 C4653 1.408 . S
C4654 C4655 1.393 . S
C4654 C4656 1.455 1_655 S
C4655 H4649 0.930 . S
C4655 C4651 1.400 . S
C4655 C4654 1.393 . S
C4656 C4654 1.455 1_455 S
C4656 C4658 1.381 . S
C4656 C4662 1.383 . S
C4657 C4653 1.495 1_455 S
C4657 H4663 0.959 . S
C4657 H4664 0.984 . S
C4657 H4665 0.960 . S
C4658 C4656 1.381 . S
C4658 C4659 1.394 . S
C4658 H4666 0.930 . S
C4659 C4658 1.394 . S
C4659 C4660 1.383 . S
C4659 H4667 0.929 . S
C4660 C4659 1.383 . S
C4660 C4661 1.377 . S
C4661 H4645 0.930 1_556 S
C4661 C4660 1.377 . S
C4661 C4662 1.379 . S
C4662 H4646 0.931 1_455 S
C4662 C4656 1.383 . S
C4662 C4661 1.379 . S
H4663 C4657 0.959 . S
H4664 C4657 0.984 . S
H4665 C4657 0.960 . S
H4666 C4658 0.930 . S
H4667 C4659 0.929 . S
H4668 C4676 0.929 . S
H4669 C4678 0.930 . S
H4670 C4680 0.930 . S
H4671 C4683 0.929 . S
H4672 C4686 0.930 . S
H4673 C4688 0.960 . S
H4674 C4688 0.960 . S
H4675 C4688 0.960 . S
C4676 H4668 0.929 . S
C4676 C4677 1.377 . S
C4676 C4678 1.384 . S
C4677 C4676 1.377 . S
C4677 C4683 1.390 . S
C4678 H4669 0.930 . S
C4678 C4676 1.384 . S
C4678 C4679 1.372 . S
C4679 C4678 1.372 . S
C4679 C4680 1.400 . S
C4679 C4684 1.490 . S
C4680 H4670 0.930 . S
C4680 C4679 1.400 . S
C4680 C4683 1.386 . S
H4681 C4697 0.930 . S
H4682 C4698 0.931 . S
C4683 H4671 0.929 . S
C4683 C4677 1.390 . S
C4683 C4680 1.386 . S
C4684 C4679 1.490 . S
C4684 C4686 1.395 . S
C4684 C4687 1.403 . S
H4685 C4691 0.930 . S
C4686 H4672 0.930 . S
C4686 C4684 1.395 . S
C4686 C4689 1.403 . S
C4687 C4684 1.403 . S
C4687 C4688 1.524 . S
C4687 C4691 1.400 . S
C4688 H4673 0.960 . S
C4688 H4674 0.960 . S
C4688 H4675 0.960 . S
C4688 C4687 1.524 . S
C4689 C4686 1.403 . S
C4689 C4690 1.392 . S
C4689 C4693 1.495 . S
C4690 C4689 1.392 . S
C4690 C4691 1.385 . S
C4690 C4692 1.478 . S
C4691 H4685 0.930 . S
C4691 C4687 1.400 . S
C4691 C4690 1.385 . S
C4692 C4690 1.478 . S
C4692 C4694 1.381 . S
C4692 C4698 1.383 . S
C4693 C4689 1.495 . S
C4693 H4699 0.959 . S
C4693 H4700 0.961 . S
C4693 H4701 0.960 . S
C4694 C4692 1.381 . S
C4694 C4695 1.394 . S
C4694 H4702 0.930 . S
C4695 C4694 1.394 . S
C4695 C4696 1.383 . S
C4695 H4703 0.929 . S
C4696 C4695 1.383 . S
C4696 C4697 1.377 . S
C4697 H4681 0.930 . S
C4697 C4696 1.377 . S
C4697 C4698 1.379 . S
C4698 H4682 0.931 . S
C4698 C4692 1.383 . S
C4698 C4697 1.379 . S
H4699 C4693 0.959 . S
H4700 C4693 0.961 . S
H4701 C4693 0.960 . S
H4702 C4694 0.930 . S
H4703 C4695 0.929 . S
H4704 C4712 0.929 . S
H4705 C4714 0.930 . S
H4706 C4716 0.930 . S
H4707 C4719 0.929 . S
H4708 C4722 0.930 . S
H4709 C4724 0.960 . S
H4710 C4724 0.960 . S
H4711 C4724 0.960 . S
C4712 H4704 0.929 . S
C4712 C4713 1.377 . S
C4712 C4714 1.384 . S
C4713 C4712 1.377 . S
C4713 C4719 1.390 . S
C4714 H4705 0.930 . S
C4714 C4712 1.384 . S
C4714 C4715 1.372 . S
C4715 C4714 1.372 . S
C4715 C4716 1.400 . S
C4715 C4720 1.490 . S
C4716 H4706 0.930 . S
C4716 C4715 1.400 . S
C4716 C4719 1.386 . S
H4717 C4733 0.930 . S
H4718 C4734 0.931 . S
C4719 H4707 0.929 . S
C4719 C4713 1.390 . S
C4719 C4716 1.386 . S
C4720 C4715 1.490 . S
C4720 C4722 1.395 . S
C4720 C4723 1.403 . S
H4721 C4727 0.930 . S
C4722 H4708 0.930 . S
C4722 C4720 1.395 . S
C4722 C4725 1.403 . S
C4723 C4720 1.403 . S
C4723 C4724 1.524 . S
C4723 C4727 1.400 . S
C4724 H4709 0.960 . S
C4724 H4710 0.960 . S
C4724 H4711 0.960 . S
C4724 C4723 1.524 . S
C4725 C4722 1.403 . S
C4725 C4726 1.392 . S
C4725 C4729 1.495 . S
C4726 C4725 1.392 . S
C4726 C4727 1.385 . S
C4726 C4728 1.478 . S
C4727 H4721 0.930 . S
C4727 C4723 1.400 . S
C4727 C4726 1.385 . S
C4728 C4726 1.478 . S
C4728 C4730 1.381 . S
C4728 C4734 1.383 . S
C4729 C4725 1.495 . S
C4729 H4735 0.959 . S
C4729 H4736 0.961 . S
C4729 H4737 0.960 . S
C4730 C4728 1.381 . S
C4730 C4731 1.394 . S
C4730 H4738 0.930 . S
C4731 C4730 1.394 . S
C4731 C4732 1.383 . S
C4731 H4739 0.929 . S
C4732 C4731 1.383 . S
C4732 C4733 1.377 . S
C4733 H4717 0.930 . S
C4733 C4732 1.377 . S
C4733 C4734 1.379 . S
C4734 H4718 0.931 . S
C4734 C4728 1.383 . S
C4734 C4733 1.379 . S
H4735 C4729 0.959 . S
H4736 C4729 0.961 . S
H4737 C4729 0.960 . S
H4738 C4730 0.930 . S
H4739 C4731 0.929 . S
H4740 C4748 0.929 . S
H4741 C4750 0.930 . S
H4742 C4752 0.930 . S
H4743 C4755 0.929 . S
H4744 C4758 0.930 . S
H4745 C4760 0.960 . S
H4746 C4760 0.960 . S
H4747 C4760 0.960 . S
C4748 H4740 0.929 . S
C4748 C4749 1.377 . S
C4748 C4750 1.384 . S
C4749 C4748 1.377 . S
C4749 C4755 1.390 . S
C4750 H4741 0.930 . S
C4750 C4748 1.384 . S
C4750 C4751 1.372 . S
C4751 C4750 1.372 . S
C4751 C4752 1.400 . S
C4751 C4756 1.490 . S
C4752 H4742 0.930 . S
C4752 C4751 1.400 . S
C4752 C4755 1.386 . S
H4753 C4769 0.930 . S
H4754 C4770 0.931 . S
C4755 H4743 0.929 . S
C4755 C4749 1.390 . S
C4755 C4752 1.386 . S
C4756 C4751 1.490 . S
C4756 C4758 1.395 . S
C4756 C4759 1.403 . S
H4757 C4763 0.930 . S
C4758 H4744 0.930 . S
C4758 C4756 1.395 . S
C4758 C4761 1.403 . S
C4759 C4756 1.403 . S
C4759 C4760 1.524 . S
C4759 C4763 1.400 . S
C4760 H4745 0.960 . S
C4760 H4746 0.960 . S
C4760 H4747 0.960 . S
C4760 C4759 1.524 . S
C4761 C4758 1.403 . S
C4761 C4762 1.392 . S
C4761 C4765 1.495 . S
C4762 C4761 1.392 . S
C4762 C4763 1.385 . S
C4762 C4764 1.478 . S
C4763 H4757 0.930 . S
C4763 C4759 1.400 . S
C4763 C4762 1.385 . S
C4764 C4762 1.478 . S
C4764 C4766 1.381 . S
C4764 C4770 1.383 . S
C4765 C4761 1.495 . S
C4765 H4771 0.959 . S
C4765 H4772 0.961 . S
C4765 H4773 0.960 . S
C4766 C4764 1.381 . S
C4766 C4767 1.394 . S
C4766 H4774 0.930 . S
C4767 C4766 1.394 . S
C4767 C4768 1.383 . S
C4767 H4775 0.929 . S
C4768 C4767 1.383 . S
C4768 C4769 1.377 . S
C4769 H4753 0.930 . S
C4769 C4768 1.377 . S
C4769 C4770 1.379 . S
C4770 H4754 0.931 . S
C4770 C4764 1.383 . S
C4770 C4769 1.379 . S
H4771 C4765 0.959 . S
H4772 C4765 0.961 . S
H4773 C4765 0.960 . S
H4774 C4766 0.930 . S
H4775 C4767 0.929 . S
H4776 C4784 0.929 . S
H4777 C4786 0.930 . S
H4778 C4788 0.930 . S
H4779 C4791 0.929 . S
H4780 C4794 0.930 . S
H4781 C4796 0.960 . S
H4782 C4796 0.960 . S
H4783 C4796 0.960 . S
C4784 H4776 0.929 . S
C4784 C4785 1.377 . S
C4784 C4786 1.384 . S
C4785 C4784 1.377 . S
C4785 C4791 1.390 . S
C4786 H4777 0.930 . S
C4786 C4784 1.384 . S
C4786 C4787 1.372 . S
C4787 C4786 1.372 . S
C4787 C4788 1.400 . S
C4787 C4792 1.490 . S
C4788 H4778 0.930 . S
C4788 C4787 1.400 . S
C4788 C4791 1.386 . S
H4789 C4805 0.930 . S
H4790 C4806 0.931 . S
C4791 H4779 0.929 . S
C4791 C4785 1.390 . S
C4791 C4788 1.386 . S
C4792 C4787 1.490 . S
C4792 C4794 1.395 . S
C4792 C4795 1.403 . S
H4793 C4799 0.930 . S
C4794 H4780 0.930 . S
C4794 C4792 1.395 . S
C4794 C4797 1.403 . S
C4795 C4792 1.403 . S
C4795 C4796 1.524 . S
C4795 C4799 1.400 . S
C4796 H4781 0.960 . S
C4796 H4782 0.960 . S
C4796 H4783 0.960 . S
C4796 C4795 1.524 . S
C4797 C4794 1.403 . S
C4797 C4798 1.392 . S
C4797 C4801 1.495 . S
C4798 C4797 1.392 . S
C4798 C4799 1.385 . S
C4798 C4800 1.478 . S
C4799 H4793 0.930 . S
C4799 C4795 1.400 . S
C4799 C4798 1.385 . S
C4800 C4798 1.478 . S
C4800 C4802 1.381 . S
C4800 C4806 1.383 1_655 S
C4801 C4797 1.495 . S
C4801 H4807 0.959 . S
C4801 H4808 0.961 . S
C4801 H4809 0.960 . S
C4802 C4800 1.381 . S
C4802 C4803 1.394 . S
C4802 H4810 0.930 . S
C4803 C4802 1.394 . S
C4803 C4804 1.383 1_655 S
C4803 H4811 0.929 . S
C4804 C4803 1.383 1_455 S
C4804 C4805 1.377 . S
C4805 H4789 0.930 . S
C4805 C4804 1.377 . S
C4805 C4806 1.379 . S
C4806 H4790 0.931 . S
C4806 C4800 1.383 1_455 S
C4806 C4805 1.379 . S
H4807 C4801 0.959 . S
H4808 C4801 0.961 . S
H4809 C4801 0.960 . S
H4810 C4802 0.930 . S
H4811 C4803 0.929 . S
H4812 C4820 0.929 . S
H4813 C4822 0.930 . S
H4814 C4824 0.930 . S
H4815 C4827 0.929 . S
H4816 C4830 0.930 . S
H4817 C4832 0.960 . S
H4818 C4832 0.960 . S
H4819 C4832 0.960 . S
C4820 H4812 0.929 . S
C4820 C4821 1.377 . S
C4820 C4822 1.384 . S
C4821 C4820 1.377 . S
C4821 C4827 1.390 . S
C4822 H4813 0.930 . S
C4822 C4820 1.384 . S
C4822 C4823 1.372 . S
C4823 C4822 1.372 . S
C4823 C4824 1.400 . S
C4823 C4828 1.490 . S
C4824 H4814 0.930 . S
C4824 C4823 1.400 . S
C4824 C4827 1.386 . S
H4825 C4841 0.930 . S
H4826 C4842 0.931 . S
C4827 H4815 0.929 . S
C4827 C4821 1.390 . S
C4827 C4824 1.386 . S
C4828 C4823 1.490 . S
C4828 C4830 1.395 . S
C4828 C4831 1.403 . S
H4829 C4835 0.930 . S
C4830 H4816 0.930 . S
C4830 C4828 1.395 . S
C4830 C4833 1.403 . S
C4831 C4828 1.403 . S
C4831 C4832 1.524 . S
C4831 C4835 1.400 . S
C4832 H4817 0.960 . S
C4832 H4818 0.960 . S
C4832 H4819 0.960 . S
C4832 C4831 1.524 . S
C4833 C4830 1.403 . S
C4833 C4834 1.392 . S
C4833 C4837 1.495 . S
C4834 C4833 1.392 . S
C4834 C4835 1.385 . S
C4834 C4836 1.478 . S
C4835 H4829 0.930 . S
C4835 C4831 1.400 . S
C4835 C4834 1.385 . S
C4836 C4834 1.478 . S
C4836 C4838 1.381 . S
C4836 C4842 1.383 . S
C4837 C4833 1.495 . S
C4837 H4843 0.959 . S
C4837 H4844 0.961 . S
C4837 H4845 0.960 . S
C4838 C4836 1.381 . S
C4838 C4839 1.394 . S
C4838 H4846 0.930 . S
C4839 C4838 1.394 . S
C4839 C4840 1.383 . S
C4839 H4847 0.929 . S
C4840 C4839 1.383 . S
C4840 C4841 1.377 . S
C4841 H4825 0.930 . S
C4841 C4840 1.377 . S
C4841 C4842 1.379 . S
C4842 H4826 0.931 . S
C4842 C4836 1.383 . S
C4842 C4841 1.379 . S
H4843 C4837 0.959 . S
H4844 C4837 0.961 . S
H4845 C4837 0.960 . S
H4846 C4838 0.930 . S
H4847 C4839 0.929 . S
H4848 C4856 0.929 . S
H4849 C4858 0.930 . S
H4850 C4860 0.930 . S
H4851 C4863 0.929 . S
H4852 C4866 0.930 . S
H4853 C4868 0.960 . S
H4854 C4868 0.960 . S
H4855 C4868 0.960 . S
C4856 H4848 0.929 . S
C4856 C4857 1.377 . S
C4856 C4858 1.384 . S
C4857 C4856 1.377 . S
C4857 C4863 1.390 . S
C4858 H4849 0.930 . S
C4858 C4856 1.384 . S
C4858 C4859 1.372 . S
C4859 C4858 1.372 . S
C4859 C4860 1.400 . S
C4859 C4864 1.490 . S
C4860 H4850 0.930 . S
C4860 C4859 1.400 . S
C4860 C4863 1.386 . S
H4861 C4877 0.930 . S
H4862 C4878 0.931 . S
C4863 H4851 0.929 . S
C4863 C4857 1.390 . S
C4863 C4860 1.386 . S
C4864 C4859 1.490 . S
C4864 C4866 1.395 . S
C4864 C4867 1.403 . S
H4865 C4871 0.930 . S
C4866 H4852 0.930 . S
C4866 C4864 1.395 . S
C4866 C4869 1.403 . S
C4867 C4864 1.403 . S
C4867 C4868 1.524 . S
C4867 C4871 1.400 . S
C4868 H4853 0.960 . S
C4868 H4854 0.960 . S
C4868 H4855 0.960 . S
C4868 C4867 1.524 . S
C4869 C4866 1.403 . S
C4869 C4870 1.392 . S
C4869 C4873 1.495 . S
C4870 C4869 1.392 . S
C4870 C4871 1.385 . S
C4870 C4872 1.478 . S
C4871 H4865 0.930 . S
C4871 C4867 1.400 . S
C4871 C4870 1.385 . S
C4872 C4870 1.478 . S
C4872 C4874 1.381 . S
C4872 C4878 1.383 . S
C4873 C4869 1.495 . S
C4873 H4879 0.959 . S
C4873 H4880 0.961 . S
C4873 H4881 0.960 . S
C4874 C4872 1.381 . S
C4874 C4875 1.394 . S
C4874 H4882 0.930 . S
C4875 C4874 1.394 . S
C4875 C4876 1.383 . S
C4875 H4883 0.929 . S
C4876 C4875 1.383 . S
C4876 C4877 1.377 . S
C4877 H4861 0.930 . S
C4877 C4876 1.377 . S
C4877 C4878 1.379 . S
C4878 H4862 0.931 . S
C4878 C4872 1.383 . S
C4878 C4877 1.379 . S
H4879 C4873 0.959 . S
H4880 C4873 0.961 . S
H4881 C4873 0.960 . S
H4882 C4874 0.930 . S
H4883 C4875 0.929 . S
H4884 C4892 0.929 . S
H4885 C4894 0.930 . S
H4886 C4896 0.930 . S
H4887 C4899 0.929 . S
H4888 C4902 0.930 . S
H4889 C4904 0.960 . S
H4890 C4904 0.960 . S
H4891 C4904 0.960 . S
C4892 H4884 0.929 . S
C4892 C4893 1.377 . S
C4892 C4894 1.384 . S
C4893 C4892 1.377 . S
C4893 C4899 1.390 . S
C4894 H4885 0.930 . S
C4894 C4892 1.384 . S
C4894 C4895 1.372 . S
C4895 C4894 1.372 . S
C4895 C4896 1.400 . S
C4895 C4900 1.490 . S
C4896 H4886 0.930 . S
C4896 C4895 1.400 . S
C4896 C4899 1.386 . S
H4897 C4913 0.930 1_455 S
H4898 C4914 0.931 . S
C4899 H4887 0.929 . S
C4899 C4893 1.390 . S
C4899 C4896 1.386 . S
C4900 C4895 1.490 . S
C4900 C4902 1.395 . S
C4900 C4903 1.403 . S
H4901 C4907 0.930 . S
C4902 H4888 0.930 . S
C4902 C4900 1.395 . S
C4902 C4905 1.403 . S
C4903 C4900 1.403 . S
C4903 C4904 1.524 . S
C4903 C4907 1.400 . S
C4904 H4889 0.960 . S
C4904 H4890 0.960 . S
C4904 H4891 0.960 . S
C4904 C4903 1.524 . S
C4905 C4902 1.403 . S
C4905 C4906 1.392 . S
C4905 C4909 1.495 1_565 S
C4906 C4905 1.392 . S
C4906 C4907 1.385 . S
C4906 C4908 1.478 . S
C4907 H4901 0.930 . S
C4907 C4903 1.400 . S
C4907 C4906 1.385 . S
C4908 C4906 1.478 . S
C4908 C4910 1.381 1_565 S
C4908 C4914 1.383 . S
C4909 C4905 1.495 1_545 S
C4909 H4915 0.959 . S
C4909 H4916 0.961 . S
C4909 H4917 0.960 . S
C4910 C4908 1.381 1_545 S
C4910 C4911 1.394 . S
C4910 H4918 0.930 . S
C4911 C4910 1.394 . S
C4911 C4912 1.383 . S
C4911 H4919 0.929 . S
C4912 C4911 1.383 . S
C4912 C4913 1.377 1_545 S
C4913 H4897 0.930 1_655 S
C4913 C4912 1.377 1_565 S
C4913 C4914 1.379 . S
C4914 H4898 0.931 . S
C4914 C4908 1.383 . S
C4914 C4913 1.379 . S
H4915 C4909 0.959 . S
H4916 C4909 0.961 . S
H4917 C4909 0.960 . S
H4918 C4910 0.930 . S
H4919 C4911 0.929 . S
H4920 C4928 0.929 . S
H4921 C4930 0.930 . S
H4922 C4932 0.930 . S
H4923 C4935 0.929 . S
H4924 C4938 0.930 . S
H4925 C4940 0.960 . S
H4926 C4940 0.960 . S
H4927 C4940 0.960 . S
C4928 H4920 0.929 . S
C4928 C4929 1.377 . S
C4928 C4930 1.384 . S
C4929 C4928 1.377 . S
C4929 C4935 1.390 . S
C4930 H4921 0.930 . S
C4930 C4928 1.384 . S
C4930 C4931 1.372 . S
C4931 C4930 1.372 . S
C4931 C4932 1.400 . S
C4931 C4936 1.490 . S
C4932 H4922 0.930 . S
C4932 C4931 1.400 . S
C4932 C4935 1.386 . S
H4933 C4949 0.930 . S
H4934 C4950 0.931 . S
C4935 H4923 0.929 . S
C4935 C4929 1.390 . S
C4935 C4932 1.386 . S
C4936 C4931 1.490 . S
C4936 C4938 1.395 . S
C4936 C4939 1.403 . S
H4937 C4943 0.930 . S
C4938 H4924 0.930 . S
C4938 C4936 1.395 . S
C4938 C4941 1.403 . S
C4939 C4936 1.403 . S
C4939 C4940 1.524 . S
C4939 C4943 1.400 . S
C4940 H4925 0.960 . S
C4940 H4926 0.960 . S
C4940 H4927 0.960 . S
C4940 C4939 1.524 . S
C4941 C4938 1.403 . S
C4941 C4942 1.392 . S
C4941 C4945 1.495 . S
C4942 C4941 1.392 . S
C4942 C4943 1.385 . S
C4942 C4944 1.478 . S
C4943 H4937 0.930 . S
C4943 C4939 1.400 . S
C4943 C4942 1.385 . S
C4944 C4942 1.478 . S
C4944 C4946 1.381 . S
C4944 C4950 1.383 . S
C4945 C4941 1.495 . S
C4945 H4951 0.959 . S
C4945 H4952 0.961 . S
C4945 H4953 0.960 . S
C4946 C4944 1.381 . S
C4946 C4947 1.394 . S
C4946 H4954 0.930 . S
C4947 C4946 1.394 . S
C4947 C4948 1.383 . S
C4947 H4955 0.929 . S
C4948 C4947 1.383 . S
C4948 C4949 1.377 . S
C4949 H4933 0.930 . S
C4949 C4948 1.377 . S
C4949 C4950 1.379 . S
C4950 H4934 0.931 . S
C4950 C4944 1.383 . S
C4950 C4949 1.379 . S
H4951 C4945 0.959 . S
H4952 C4945 0.961 . S
H4953 C4945 0.960 . S
H4954 C4946 0.930 . S
H4955 C4947 0.929 . S
H4956 C4964 0.929 . S
H4957 C4966 0.930 . S
H4958 C4968 0.930 1_556 S
H4959 C4971 0.929 1_556 S
H4960 C4974 0.930 . S
H4961 C4976 0.960 1_556 S
H4962 C4976 0.960 . S
H4963 C4976 0.960 1_556 S
C4964 H4956 0.929 . S
C4964 C4965 1.377 . S
C4964 C4966 1.384 . S
C4965 C4964 1.377 . S
C4965 C4971 1.390 . S
C4966 H4957 0.930 . S
C4966 C4964 1.384 . S
C4966 C4967 1.372 . S
C4967 C4966 1.372 . S
C4967 C4968 1.400 . S
C4967 C4972 1.490 . S
C4968 H4958 0.930 1_554 S
C4968 C4967 1.400 . S
C4968 C4971 1.386 . S
H4969 C4985 0.935 1_556 S
H4970 C4986 0.917 1_556 S
C4971 H4959 0.929 1_554 S
C4971 C4965 1.390 . S
C4971 C4968 1.386 . S
C4972 C4967 1.490 . S
C4972 C4974 1.395 . S
C4972 C4975 1.403 . S
H4973 C4979 0.930 . S
C4974 H4960 0.930 . S
C4974 C4972 1.395 . S
C4974 C4977 1.403 . S
C4975 C4972 1.403 . S
C4975 C4976 1.524 . S
C4975 C4979 1.400 . S
C4976 H4961 0.960 1_554 S
C4976 H4962 0.960 . S
C4976 H4963 0.960 1_554 S
C4976 C4975 1.524 . S
C4977 C4974 1.403 . S
C4977 C4978 1.392 . S
C4977 C4981 1.495 . S
C4978 C4977 1.392 . S
C4978 C4979 1.385 . S
C4978 C4980 1.478 . S
C4979 H4973 0.930 . S
C4979 C4975 1.400 . S
C4979 C4978 1.385 . S
C4980 C4978 1.478 . S
C4980 C4982 1.381 . S
C4980 C4986 1.383 . S
C4981 C4977 1.495 . S
C4981 H4987 0.959 . S
C4981 H4988 0.961 . S
C4981 H4989 0.960 . S
C4982 C4980 1.381 . S
C4982 C4983 1.394 . S
C4982 H4990 0.930 . S
C4983 C4982 1.394 . S
C4983 C4984 1.383 . S
C4983 H4991 0.929 . S
C4984 C4983 1.383 . S
C4984 C4985 1.377 . S
C4985 H4969 0.935 1_554 S
C4985 C4984 1.377 . S
C4985 C4986 1.379 . S
C4986 H4970 0.917 1_554 S
C4986 C4980 1.383 . S
C4986 C4985 1.379 . S
H4987 C4981 0.959 . S
H4988 C4981 0.961 . S
H4989 C4981 0.960 . S
H4990 C4982 0.930 . S
H4991 C4983 0.929 . S
H4992 C5000 0.929 . S
H4993 C5002 0.930 . S
H4994 C5004 0.930 . S
H4995 C5007 0.929 . S
H4996 C5010 0.930 . S
H4997 C5012 0.960 . S
H4998 C5012 0.960 . S
H4999 C5012 0.960 . S
C5000 H4992 0.929 . S
C5000 C5001 1.377 . S
C5000 C5002 1.384 . S
C5001 C5000 1.377 . S
C5001 C5007 1.390 . S
C5002 H4993 0.930 . S
C5002 C5000 1.384 . S
C5002 C5003 1.372 . S
C5003 C5002 1.372 . S
C5003 C5004 1.400 . S
C5003 C5008 1.490 . S
C5004 H4994 0.930 . S
C5004 C5003 1.400 . S
C5004 C5007 1.386 . S
H5005 C5021 0.930 . S
H5006 C5022 0.931 . S
C5007 H4995 0.929 . S
C5007 C5001 1.390 . S
C5007 C5004 1.386 . S
C5008 C5003 1.490 . S
C5008 C5010 1.395 . S
C5008 C5011 1.403 . S
H5009 C5015 0.930 . S
C5010 H4996 0.930 . S
C5010 C5008 1.395 . S
C5010 C5013 1.403 . S
C5011 C5008 1.403 . S
C5011 C5012 1.524 . S
C5011 C5015 1.400 . S
C5012 H4997 0.960 . S
C5012 H4998 0.960 . S
C5012 H4999 0.960 . S
C5012 C5011 1.524 . S
C5013 C5010 1.403 . S
C5013 C5014 1.392 . S
C5013 C5017 1.495 . S
C5014 C5013 1.392 . S
C5014 C5015 1.385 . S
C5014 C5016 1.478 . S
C5015 H5009 0.930 . S
C5015 C5011 1.400 . S
C5015 C5014 1.385 . S
C5016 C5014 1.478 . S
C5016 C5018 1.381 . S
C5016 C5022 1.383 . S
C5017 C5013 1.495 . S
C5017 H5023 0.959 . S
C5017 H5024 0.961 . S
C5017 H5025 0.960 . S
C5018 C5016 1.381 . S
C5018 C5019 1.394 . S
C5018 H5026 0.930 . S
C5019 C5018 1.394 . S
C5019 C5020 1.383 . S
C5019 H5027 0.929 . S
C5020 C5019 1.383 . S
C5020 C5021 1.377 . S
C5021 H5005 0.930 . S
C5021 C5020 1.377 . S
C5021 C5022 1.379 . S
C5022 H5006 0.931 . S
C5022 C5016 1.383 . S
C5022 C5021 1.379 . S
H5023 C5017 0.959 . S
H5024 C5017 0.961 . S
H5025 C5017 0.960 . S
H5026 C5018 0.930 . S
H5027 C5019 0.929 . S
H5028 C5036 0.929 . S
H5029 C5038 0.930 . S
H5030 C5040 0.930 . S
H5031 C5043 0.929 . S
H5032 C5046 0.930 . S
H5033 C5048 0.960 . S
H5034 C5048 0.960 . S
H5035 C5048 0.960 . S
C5036 H5028 0.929 . S
C5036 C5037 1.377 . S
C5036 C5038 1.384 . S
C5037 C5036 1.377 . S
C5037 C5043 1.390 . S
C5038 H5029 0.930 . S
C5038 C5036 1.384 . S
C5038 C5039 1.372 . S
C5039 C5038 1.372 . S
C5039 C5040 1.400 . S
C5039 C5044 1.490 . S
C5040 H5030 0.930 . S
C5040 C5039 1.400 . S
C5040 C5043 1.386 . S
H5041 C5057 0.930 . S
H5042 C5058 0.931 . S
C5043 H5031 0.929 . S
C5043 C5037 1.390 . S
C5043 C5040 1.386 . S
C5044 C5039 1.490 . S
C5044 C5046 1.395 . S
C5044 C5047 1.403 . S
H5045 C5051 0.930 . S
C5046 H5032 0.930 . S
C5046 C5044 1.395 . S
C5046 C5049 1.403 . S
C5047 C5044 1.403 . S
C5047 C5048 1.524 . S
C5047 C5051 1.400 . S
C5048 H5033 0.960 . S
C5048 H5034 0.960 . S
C5048 H5035 0.960 . S
C5048 C5047 1.524 . S
C5049 C5046 1.403 . S
C5049 C5050 1.392 . S
C5049 C5053 1.495 . S
C5050 C5049 1.392 . S
C5050 C5051 1.385 . S
C5050 C5052 1.478 . S
C5051 H5045 0.930 . S
C5051 C5047 1.400 . S
C5051 C5050 1.385 . S
C5052 C5050 1.478 . S
C5052 C5054 1.381 . S
C5052 C5058 1.383 . S
C5053 C5049 1.495 . S
C5053 H5059 0.959 . S
C5053 H5060 0.961 . S
C5053 H5061 0.960 . S
C5054 C5052 1.381 . S
C5054 C5055 1.394 . S
C5054 H5062 0.930 . S
C5055 C5054 1.394 . S
C5055 C5056 1.383 . S
C5055 H5063 0.929 . S
C5056 C5055 1.383 . S
C5056 C5057 1.377 . S
C5057 H5041 0.930 . S
C5057 C5056 1.377 . S
C5057 C5058 1.379 . S
C5058 H5042 0.931 . S
C5058 C5052 1.383 . S
C5058 C5057 1.379 . S
H5059 C5053 0.959 . S
H5060 C5053 0.961 . S
H5061 C5053 0.960 . S
H5062 C5054 0.930 . S
H5063 C5055 0.929 . S
H5064 C5072 0.929 1_545 S
H5065 C5074 0.930 . S
H5066 C5076 0.930 . S
H5067 C5079 0.929 . S
H5068 C5082 0.930 . S
H5069 C5084 0.960 . S
H5070 C5084 0.960 . S
H5071 C5084 0.960 . S
C5072 H5064 0.929 1_565 S
C5072 C5073 1.377 1_565 S
C5072 C5074 1.384 . S
C5073 C5072 1.377 1_545 S
C5073 C5079 1.390 1_545 S
C5074 H5065 0.930 . S
C5074 C5072 1.384 . S
C5074 C5075 1.372 . S
C5075 C5074 1.372 . S
C5075 C5076 1.400 . S
C5075 C5080 1.490 . S
C5076 H5066 0.930 . S
C5076 C5075 1.400 . S
C5076 C5079 1.386 . S
H5077 C5093 0.930 . S
H5078 C5094 0.931 . S
C5079 H5067 0.929 . S
C5079 C5073 1.390 1_565 S
C5079 C5076 1.386 . S
C5080 C5075 1.490 . S
C5080 C5082 1.395 . S
C5080 C5083 1.403 . S
H5081 C5087 0.930 . S
C5082 H5068 0.930 . S
C5082 C5080 1.395 . S
C5082 C5085 1.403 . S
C5083 C5080 1.403 . S
C5083 C5084 1.524 . S
C5083 C5087 1.400 . S
C5084 H5069 0.960 . S
C5084 H5070 0.960 . S
C5084 H5071 0.960 . S
C5084 C5083 1.524 . S
C5085 C5082 1.403 . S
C5085 C5086 1.392 . S
C5085 C5089 1.495 . S
C5086 C5085 1.392 . S
C5086 C5087 1.385 . S
C5086 C5088 1.478 . S
C5087 H5081 0.930 . S
C5087 C5083 1.400 . S
C5087 C5086 1.385 . S
C5088 C5086 1.478 . S
C5088 C5090 1.381 . S
C5088 C5094 1.383 . S
C5089 C5085 1.495 . S
C5089 H5095 0.959 . S
C5089 H5096 0.961 . S
C5089 H5097 0.960 . S
C5090 C5088 1.381 . S
C5090 C5091 1.394 . S
C5090 H5098 0.930 . S
C5091 C5090 1.394 . S
C5091 C5092 1.383 . S
C5091 H5099 0.929 . S
C5092 C5091 1.383 . S
C5092 C5093 1.377 . S
C5093 H5077 0.930 . S
C5093 C5092 1.377 . S
C5093 C5094 1.379 . S
C5094 H5078 0.931 . S
C5094 C5088 1.383 . S
C5094 C5093 1.379 . S
H5095 C5089 0.959 . S
H5096 C5089 0.961 . S
H5097 C5089 0.960 . S
H5098 C5090 0.930 . S
H5099 C5091 0.929 . S
H5100 C5108 0.929 . S
H5101 C5110 0.930 . S
H5102 C5112 0.930 . S
H5103 C5115 0.929 . S
H5104 C5118 0.930 . S
H5105 C5120 0.960 . S
H5106 C5120 0.960 . S
H5107 C5120 0.960 . S
C5108 H5100 0.929 . S
C5108 C5109 1.377 . S
C5108 C5110 1.384 . S
C5109 C5108 1.377 . S
C5109 C5115 1.390 . S
C5110 H5101 0.930 . S
C5110 C5108 1.384 . S
C5110 C5111 1.372 . S
C5111 C5110 1.372 . S
C5111 C5112 1.400 . S
C5111 C5116 1.490 . S
C5112 H5102 0.930 . S
C5112 C5111 1.400 . S
C5112 C5115 1.386 . S
H5113 C5129 0.930 . S
H5114 C5130 0.931 . S
C5115 H5103 0.929 . S
C5115 C5109 1.390 . S
C5115 C5112 1.386 . S
C5116 C5111 1.490 . S
C5116 C5118 1.395 . S
C5116 C5119 1.403 . S
H5117 C5123 0.930 . S
C5118 H5104 0.930 . S
C5118 C5116 1.395 . S
C5118 C5121 1.403 . S
C5119 C5116 1.403 . S
C5119 C5120 1.524 . S
C5119 C5123 1.400 . S
C5120 H5105 0.960 . S
C5120 H5106 0.960 . S
C5120 H5107 0.960 . S
C5120 C5119 1.524 . S
C5121 C5118 1.403 . S
C5121 C5122 1.392 . S
C5121 C5125 1.495 . S
C5122 C5121 1.392 . S
C5122 C5123 1.385 . S
C5122 C5124 1.478 . S
C5123 H5117 0.930 . S
C5123 C5119 1.400 . S
C5123 C5122 1.385 . S
C5124 C5122 1.478 . S
C5124 C5126 1.381 . S
C5124 C5130 1.383 . S
C5125 C5121 1.495 . S
C5125 H5131 0.959 . S
C5125 H5132 0.961 . S
C5125 H5133 0.960 . S
C5126 C5124 1.381 . S
C5126 C5127 1.394 . S
C5126 H5134 0.930 . S
C5127 C5126 1.394 . S
C5127 C5128 1.383 . S
C5127 H5135 0.929 . S
C5128 C5127 1.383 . S
C5128 C5129 1.377 . S
C5129 H5113 0.930 . S
C5129 C5128 1.377 . S
C5129 C5130 1.379 . S
C5130 H5114 0.931 . S
C5130 C5124 1.383 . S
C5130 C5129 1.379 . S
H5131 C5125 0.959 . S
H5132 C5125 0.961 . S
H5133 C5125 0.960 . S
H5134 C5126 0.930 . S
H5135 C5127 0.929 . S
C1689 C106 1.934 . S
C1708 C392 1.806 . S
C1725 C65 2.197 . S
C1744 C483 2.110 . S
C1761 C79 1.768 . S
C1780 C560 1.665 1_565 S
C1816 C658 1.355 . S
C1797 C90 1.416 . S
C1833 C21 1.321 . S
C1852 C742 1.312 . S
C1888 C814 0.921 . S
C1869 C35 0.883 . S
C1924 C903 0.647 . S
C1905 C50 0.637 . S
C1941 C6 1.335 . S
C1960 C980 1.198 . S
C1996 C399 2.138 . S
C1977 C232 2.247 . S
C2013 C245 0.618 . S
C2032 C490 0.605 . S
C2068 C567 1.236 . S
C2049 C274 1.275 . S
C2104 C644 1.495 . S
C2085 C175 1.553 . S
C2121 C231 1.748 . S
C2140 C728 1.632 . S
C2176 C830 1.007 . S
C2157 C246 1.063 . S
C2212 C910 0.641 . S
C2193 C273 0.619 . S
C2248 C987 1.474 . S
C2229 C176 1.563 . S
C2284 C406 1.444 . S
C2265 C160 1.526 . S
C2301 C289 1.978 1_554 S
C2320 C1071 1.944 . S
C2356 C1159 2.215 . S
C2337 C328 2.315 . S
C2392 C1232 0.659 . S
C2373 C317 0.522 . S
C2409 C118 0.814 . S
C2428 C994 0.837 . S
C2445 C132 1.414 . S
C2464 C574 1.387 . S
C2481 C331 2.416 . S
C2500 C1323 2.332 . S
C2536 C1400 0.921 . S
C2517 C303 0.987 . S
C2572 C403 1.459 1_565 S
C2553 C63 1.537 . S
C2608 C1418 2.562 . S
C2589 C107 2.578 . S
C2625 C92 1.589 . S
C2644 C571 1.520 . S
C2661 C78 2.085 . S
C2680 C1318 1.915 . S
C2716 C730 1.785 . S
C2697 C8 1.922 . S
C2733 C51 1.204 . S
C2752 C1162 1.159 . S
C2788 C914 1.137 1_565 S
C2769 C37 1.092 . S
C2824 C1495 1.186 . S
C2805 C20 1.243 . S
C2860 C410 2.017 . S
C2841 C147 2.061 . S
C2896 C1402 0.767 . S
C2877 C316 0.761 . S
C2913 C119 1.135 . S
C2932 C578 1.168 . S
C2949 C288 1.740 . S
C2968 C1327 1.619 . S
C2985 C148 2.260 1_545 S
C3004 C739 2.070 . S
C3040 C1155 1.023 . S
C3021 C315 1.109 . S
C3057 C120 0.928 . S
C3076 C898 0.925 . S
C3093 C287 1.466 . S
C3112 C1502 1.364 . S
C3129 C188 1.393 . S
C3148 C394 1.297 . S
C3165 C177 2.354 . S
C3184 C1082 2.274 . S
C3201 C258 2.462 . S
C3220 C812 2.376 . S
C3237 C247 0.535 . S
C3256 C1243 0.539 . S
C3292 C1486 0.659 . S
C3273 C272 0.600 . S
C3309 C216 1.288 . S
C3328 C562 1.189 1_565 S
C3364 C662 2.582 . S
C3345 C261 2.659 . S
C3400 C487 0.863 . S
C3381 C205 0.908 . S
C3417 C76 1.535 . S
C3436 C1568 1.452 . S
C3472 C1407 2.192 . S
C3453 C93 2.283 . S
C3489 C105 1.368 . S
C3508 C1652 1.303 . S
C3525 C62 1.458 . S
C3544 C1330 1.393 . S
C3561 C49 1.292 . S
C3580 C1078 1.273 . S
C3616 C1150 1.255 . S
C3597 C9 1.292 . S
C3652 C1239 0.585 . S
C3633 C22 0.569 . S
C3688 C1484 1.621 . S
C3669 C36 1.752 . S
C3724 C1575 2.023 . S
C3705 C260 2.146 . S
C3741 C189 0.520 . S
C3760 C1414 0.591 . S
C3796 C1659 1.165 . S
C3777 C204 1.178 . S
C3832 C1316 1.334 . S
C3813 C217 1.378 . S
C3868 C1064 1.925 . S
C3849 C259 2.026 . S
C3885 C190 1.159 . S
C3904 C1166 1.118 . S
C3940 C1246 0.678 . S
C3921 C203 0.737 . S
C3957 C218 1.671 . S
C3976 C1491 1.523 . S
C4012 C1582 1.441 . S
C3993 C314 1.471 . S
C4029 C135 2.108 . S
C4048 C735 2.045 . S
C4084 C823 2.086 . S
C4065 C146 2.201 . S
C4120 C896 0.617 . S
C4101 C163 0.564 . S
C4156 C1498 0.817 . S
C4137 C300 0.822 . S
C4173 C286 1.361 . S
C4192 C1666 1.379 . S
C4228 C651 2.240 . S
C4209 C149 2.313 . S
C4264 C476 0.835 . S
C4245 C121 0.923 1_565 S
C4281 C91 1.509 . S
C4300 C1579 1.428 . S
C4336 C494 2.139 . S
C4317 C77 2.103 . S
C4353 C64 1.553 . S
C4372 C1663 1.483 . S
C4389 C104 1.675 . S
C4408 C646 1.547 . S
C4425 C34 1.489 . S
C4444 C1066 1.420 1_556 S
C4480 C826 1.086 . S
C4461 C23 1.194 . S
C4497 C7 0.776 . S
C4516 C1250 0.821 . S
C4533 C48 1.213 . S
C4552 C991 1.079 . S
C4588 C1586 1.968 . S
C4569 C329 2.045 . S
C4605 C162 0.782 . S
C4624 C478 0.759 . S
C4660 C1670 1.184 1_556 S
C4641 C301 1.136 . S
C4677 C134 1.767 . S
C4696 C655 1.651 . S
C4713 C330 2.234 . S
C4732 C1075 2.089 . S
C4768 C819 1.052 . S
C4749 C161 1.117 . S
C4785 C302 0.967 . S
C4804 C1234 0.967 . S
C4840 C998 1.358 . S
C4821 C133 1.464 . S
C4876 C1570 1.545 . S
C4857 C244 1.616 . S
C4912 C746 2.238 1_655 S
C4893 C219 2.279 . S
C4929 C230 2.103 . S
C4948 C1148 2.020 . S
C4984 C907 0.573 . S
C4965 C191 0.521 . S
C5001 C202 0.755 . S
C5020 C982 0.701 . S
C5037 C174 1.527 . S
C5056 C1654 1.507 . S
C5092 C1334 2.541 . S
C5073 C233 2.610 . S
C5128 C1411 0.922 . S
C5109 C275 0.901 . S
