# Generated by pormake.
# Topology eea, (3,6)-cn, num edge types: 1
# Building blocks:
#     Node 0, Type 0, BuildingBlock: OLANEW_clean_sbu_2, # of connection points: 3
#     Node 1, Type 0, BuildingBlock: OLANEW_clean_sbu_2, # of connection points: 3
#     Node 2, Type 0, BuildingBlock: OLANEW_clean_sbu_2, # of connection points: 3
#     Node 3, Type 0, BuildingBlock: OLANEW_clean_sbu_2, # of connection points: 3
#     Node 4, Type 0, BuildingBlock: OLANEW_clean_sbu_2, # of connection points: 3
#     Node 5, Type 0, BuildingBlock: OLANEW_clean_sbu_2, # of connection points: 3
#     Node 6, Type 0, BuildingBlock: OLANEW_clean_sbu_2, # of connection points: 3
#     Node 7, Type 0, BuildingBlock: OLANEW_clean_sbu_2, # of connection points: 3
#     Node 8, Type 0, BuildingBlock: OLANEW_clean_sbu_2, # of connection points: 3
#     Node 9, Type 0, BuildingBlock: OLANEW_clean_sbu_2, # of connection points: 3
#     Node 10, Type 0, BuildingBlock: OLANEW_clean_sbu_2, # of connection points: 3
#     Node 11, Type 0, BuildingBlock: OLANEW_clean_sbu_2, # of connection points: 3
#     Node 12, Type 0, BuildingBlock: OLANEW_clean_sbu_2, # of connection points: 3
#     Node 13, Type 0, BuildingBlock: OLANEW_clean_sbu_2, # of connection points: 3
#     Node 14, Type 0, BuildingBlock: OLANEW_clean_sbu_2, # of connection points: 3
#     Node 15, Type 0, BuildingBlock: OLANEW_clean_sbu_2, # of connection points: 3
#     Node 16, Type 0, BuildingBlock: OLANEW_clean_sbu_2, # of connection points: 3
#     Node 17, Type 0, BuildingBlock: OLANEW_clean_sbu_2, # of connection points: 3
#     Node 18, Type 1, BuildingBlock: KUMBUR_clean_sbu_0, # of connection points: 6
#     Node 19, Type 1, BuildingBlock: KUMBUR_clean_sbu_0, # of connection points: 6
#     Node 20, Type 1, BuildingBlock: KUMBUR_clean_sbu_0, # of connection points: 6
#     Node 21, Type 1, BuildingBlock: KUMBUR_clean_sbu_0, # of connection points: 6
#     Node 22, Type 1, BuildingBlock: KUMBUR_clean_sbu_0, # of connection points: 6
#     Node 23, Type 1, BuildingBlock: KUMBUR_clean_sbu_0, # of connection points: 6
#     Node 24, Type 1, BuildingBlock: KUMBUR_clean_sbu_0, # of connection points: 6
#     Node 25, Type 1, BuildingBlock: KUMBUR_clean_sbu_0, # of connection points: 6
#     Node 26, Type 1, BuildingBlock: KUMBUR_clean_sbu_0, # of connection points: 6
#     Edge 27, Type (0, 1), BuildingBlock: AJUNOK_clean_linker_0, # of connection points: 2
#     Edge 28, Type (0, 1), BuildingBlock: AJUNOK_clean_linker_0, # of connection points: 2
#     Edge 29, Type (0, 1), BuildingBlock: AJUNOK_clean_linker_0, # of connection points: 2
#     Edge 30, Type (0, 1), BuildingBlock: AJUNOK_clean_linker_0, # of connection points: 2
#     Edge 31, Type (0, 1), BuildingBlock: AJUNOK_clean_linker_0, # of connection points: 2
#     Edge 32, Type (0, 1), BuildingBlock: AJUNOK_clean_linker_0, # of connection points: 2
#     Edge 33, Type (0, 1), BuildingBlock: AJUNOK_clean_linker_0, # of connection points: 2
#     Edge 34, Type (0, 1), BuildingBlock: AJUNOK_clean_linker_0, # of connection points: 2
#     Edge 35, Type (0, 1), BuildingBlock: AJUNOK_clean_linker_0, # of connection points: 2
#     Edge 36, Type (0, 1), BuildingBlock: AJUNOK_clean_linker_0, # of connection points: 2
#     Edge 37, Type (0, 1), BuildingBlock: AJUNOK_clean_linker_0, # of connection points: 2
#     Edge 38, Type (0, 1), BuildingBlock: AJUNOK_clean_linker_0, # of connection points: 2
#     Edge 39, Type (0, 1), BuildingBlock: AJUNOK_clean_linker_0, # of connection points: 2
#     Edge 40, Type (0, 1), BuildingBlock: AJUNOK_clean_linker_0, # of connection points: 2
#     Edge 41, Type (0, 1), BuildingBlock: AJUNOK_clean_linker_0, # of connection points: 2
#     Edge 42, Type (0, 1), BuildingBlock: AJUNOK_clean_linker_0, # of connection points: 2
#     Edge 43, Type (0, 1), BuildingBlock: AJUNOK_clean_linker_0, # of connection points: 2
#     Edge 44, Type (0, 1), BuildingBlock: AJUNOK_clean_linker_0, # of connection points: 2
#     Edge 45, Type (0, 1), BuildingBlock: AJUNOK_clean_linker_0, # of connection points: 2
#     Edge 46, Type (0, 1), BuildingBlock: AJUNOK_clean_linker_0, # of connection points: 2
#     Edge 47, Type (0, 1), BuildingBlock: AJUNOK_clean_linker_0, # of connection points: 2
#     Edge 48, Type (0, 1), BuildingBlock: AJUNOK_clean_linker_0, # of connection points: 2
#     Edge 49, Type (0, 1), BuildingBlock: AJUNOK_clean_linker_0, # of connection points: 2
#     Edge 50, Type (0, 1), BuildingBlock: AJUNOK_clean_linker_0, # of connection points: 2
#     Edge 51, Type (0, 1), BuildingBlock: AJUNOK_clean_linker_0, # of connection points: 2
#     Edge 52, Type (0, 1), BuildingBlock: AJUNOK_clean_linker_0, # of connection points: 2
#     Edge 53, Type (0, 1), BuildingBlock: AJUNOK_clean_linker_0, # of connection points: 2
#     Edge 54, Type (0, 1), BuildingBlock: AJUNOK_clean_linker_0, # of connection points: 2
#     Edge 55, Type (0, 1), BuildingBlock: AJUNOK_clean_linker_0, # of connection points: 2
#     Edge 56, Type (0, 1), BuildingBlock: AJUNOK_clean_linker_0, # of connection points: 2
#     Edge 57, Type (0, 1), BuildingBlock: AJUNOK_clean_linker_0, # of connection points: 2
#     Edge 58, Type (0, 1), BuildingBlock: AJUNOK_clean_linker_0, # of connection points: 2
#     Edge 59, Type (0, 1), BuildingBlock: AJUNOK_clean_linker_0, # of connection points: 2
#     Edge 60, Type (0, 1), BuildingBlock: AJUNOK_clean_linker_0, # of connection points: 2
#     Edge 61, Type (0, 1), BuildingBlock: AJUNOK_clean_linker_0, # of connection points: 2
#     Edge 62, Type (0, 1), BuildingBlock: AJUNOK_clean_linker_0, # of connection points: 2
#     Edge 63, Type (0, 1), BuildingBlock: AJUNOK_clean_linker_0, # of connection points: 2
#     Edge 64, Type (0, 1), BuildingBlock: AJUNOK_clean_linker_0, # of connection points: 2
#     Edge 65, Type (0, 1), BuildingBlock: AJUNOK_clean_linker_0, # of connection points: 2
#     Edge 66, Type (0, 1), BuildingBlock: AJUNOK_clean_linker_0, # of connection points: 2
#     Edge 67, Type (0, 1), BuildingBlock: AJUNOK_clean_linker_0, # of connection points: 2
#     Edge 68, Type (0, 1), BuildingBlock: AJUNOK_clean_linker_0, # of connection points: 2
#     Edge 69, Type (0, 1), BuildingBlock: AJUNOK_clean_linker_0, # of connection points: 2
#     Edge 70, Type (0, 1), BuildingBlock: AJUNOK_clean_linker_0, # of connection points: 2
#     Edge 71, Type (0, 1), BuildingBlock: AJUNOK_clean_linker_0, # of connection points: 2
#     Edge 72, Type (0, 1), BuildingBlock: AJUNOK_clean_linker_0, # of connection points: 2
#     Edge 73, Type (0, 1), BuildingBlock: AJUNOK_clean_linker_0, # of connection points: 2
#     Edge 74, Type (0, 1), BuildingBlock: AJUNOK_clean_linker_0, # of connection points: 2
#     Edge 75, Type (0, 1), BuildingBlock: AJUNOK_clean_linker_0, # of connection points: 2
#     Edge 76, Type (0, 1), BuildingBlock: AJUNOK_clean_linker_0, # of connection points: 2
#     Edge 77, Type (0, 1), BuildingBlock: AJUNOK_clean_linker_0, # of connection points: 2
#     Edge 78, Type (0, 1), BuildingBlock: AJUNOK_clean_linker_0, # of connection points: 2
#     Edge 79, Type (0, 1), BuildingBlock: AJUNOK_clean_linker_0, # of connection points: 2
#     Edge 80, Type (0, 1), BuildingBlock: AJUNOK_clean_linker_0, # of connection points: 2
# Relax obj value: 0.012
# Max RMSD: 0.175
# Mean RMSD: 0.120
data_MOF--net-eea--node1-OLANEW_clean_sbu_2--node2-KUMBUR_clean_sbu_0--edge1-AJUNOK_clean_linker_0
_symmetry_space_group_name_H-M    P1
_symmetry_Int_Tables_number       1
_symmetry_cell_setting            triclinic
loop_
_symmetry_equiv_pos_as_xyz
'x, y, z'
_cell_length_a     45.563863
_cell_length_b     45.324488
_cell_length_c     54.658828
_cell_angle_alpha  94.369434
_cell_angle_beta   90.128425
_cell_angle_gamma 120.88692
loop_
_atom_site_label
_atom_site_type_symbol
_atom_site_fract_x
_atom_site_fract_y
_atom_site_fract_z
_atom_type_partial_charge
O0 O 0.25728 0.15172 0.44012 0.0
Cd1 Cd 0.22929 0.14113 0.39933 0.0
O2 O 0.2806 0.12219 0.42595 0.0
Cd3 Cd 0.25284 0.10108 0.39061 0.0
O4 O 0.23544 0.04977 0.37301 0.0
C5 C 0.20484 0.02525 0.37466 0.0
O6 O 0.18262 0.03184 0.38507 0.0
C7 C 0.27715 0.14022 0.44335 0.0
C8 C 0.21516 0.19132 0.3867 0.0
O9 O 0.19199 0.16351 0.39518 0.0
O10 O 0.24515 0.19574 0.38471 0.0
O11 O 0.92116 0.18661 0.44336 0.0
Cd12 Cd 0.93582 0.17317 0.40235 0.0
O13 O 0.88934 0.13068 0.43807 0.0
Cd14 Cd 0.8506 0.07847 0.44504 0.0
O15 O 0.81016 0.02783 0.43021 0.0
C16 C 0.81526 0.01674 0.40956 0.0
O17 O 0.84456 0.03566 0.39941 0.0
C18 C 0.89773 0.15865 0.45093 0.0
C19 C 0.99747 0.22353 0.38527 0.0
O20 O 0.97019 0.22486 0.38291 0.0
O21 O 0.99564 0.19846 0.39596 0.0
O22 O 0.89964 0.73332 0.43416 0.0
Cd23 Cd 0.91836 0.75435 0.39324 0.0
O24 O 0.85396 0.73446 0.42425 0.0
Cd25 Cd 0.80449 0.73206 0.42224 0.0
O26 O 0.76387 0.73986 0.40806 0.0
C27 C 0.77232 0.76442 0.39453 0.0
O28 O 0.80467 0.78375 0.38959 0.0
C29 C 0.8703 0.72797 0.43984 0.0
C30 C 0.98138 0.76432 0.3778 0.0
O31 O 0.97922 0.78935 0.38834 0.0
O32 O 0.95397 0.73451 0.37509 0.0
O33 O 0.1711 0.27687 0.58715 0.0
Cd34 Cd 0.16043 0.25128 0.62686 0.0
O35 O 0.12351 0.27706 0.57914 0.0
Cd36 Cd 0.0921 0.25526 0.61115 0.0
O37 O 0.04735 0.247 0.63234 0.0
C38 C 0.02475 0.21868 0.64025 0.0
O39 O 0.02819 0.19162 0.63677 0.0
C40 C 0.15326 0.28372 0.57324 0.0
C41 C 0.21171 0.238 0.6417 0.0
O42 O 0.1839 0.21429 0.63033 0.0
O43 O 0.21532 0.26789 0.64611 0.0
O44 O 0.75269 0.87192 0.58984 0.0
Cd45 Cd 0.78923 0.88854 0.62753 0.0
O46 O 0.79565 0.89876 0.56591 0.0
Cd47 Cd 0.83126 0.92396 0.59752 0.0
O48 O 0.8418 0.96907 0.62159 0.0
C49 C 0.819 0.97713 0.61977 0.0
O50 O 0.79204 0.95735 0.6049 0.0
C51 C 0.76366 0.88003 0.56854 0.0
C52 C 0.80263 0.83773 0.63978 0.0
O53 O 0.77537 0.83725 0.64618 0.0
O54 O 0.82386 0.86243 0.62753 0.0
O55 O 0.10516 0.835 0.58447 0.0
Cd56 Cd 0.09052 0.8471 0.62589 0.0
O57 O 0.1157 0.88437 0.57212 0.0
Cd58 Cd 0.11481 0.90705 0.60839 0.0
O59 O 0.15444 0.95334 0.62961 0.0
C60 C 0.15653 0.98208 0.62759 0.0
O61 O 0.1324 0.98268 0.61484 0.0
C62 C 0.11324 0.85527 0.56754 0.0
C63 C 0.02465 0.79723 0.63819 0.0
O64 O 0.0302 0.82503 0.62948 0.0
O65 O 0.0502 0.79312 0.64113 0.0
O66 O 0.86976 0.48506 0.79811 0.0
Cd67 Cd 0.81951 0.46577 0.77073 0.0
O68 O 0.88301 0.45812 0.76976 0.0
Cd69 Cd 0.90797 0.43369 0.75058 0.0
O70 O 0.90213 0.38629 0.73286 0.0
C71 C 0.88073 0.35913 0.74252 0.0
O72 O 0.86541 0.36219 0.76205 0.0
C73 C 0.88985 0.47501 0.79074 0.0
C74 C 0.82644 0.51603 0.74105 0.0
O75 O 0.81401 0.51345 0.76234 0.0
O76 O 0.83588 0.49475 0.73377 0.0
O77 O 0.56555 0.53114 0.77083 0.0
Cd78 Cd 0.57838 0.52925 0.72713 0.0
O79 O 0.55357 0.4778 0.76658 0.0
Cd80 Cd 0.53257 0.42497 0.77588 0.0
O81 O 0.49868 0.37053 0.76437 0.0
C82 C 0.49232 0.36403 0.74132 0.0
O83 O 0.50728 0.38972 0.72734 0.0
C84 C 0.55322 0.50209 0.77954 0.0
C85 C 0.64561 0.57125 0.71362 0.0
O86 O 0.62488 0.58244 0.71538 0.0
O87 O 0.63479 0.54037 0.719 0.0
O88 O 0.56775 0.08349 0.76683 0.0
Cd89 Cd 0.59143 0.10807 0.72756 0.0
O90 O 0.52354 0.09126 0.77105 0.0
Cd91 Cd 0.5178 0.11499 0.73907 0.0
O92 O 0.4827 0.12828 0.7215 0.0
C93 C 0.45121 0.10464 0.71924 0.0
O94 O 0.44244 0.07422 0.7263 0.0
C95 C 0.54268 0.08079 0.77897 0.0
C96 C 0.65525 0.11449 0.71693 0.0
O97 O 0.65365 0.14005 0.72706 0.0
O98 O 0.62694 0.08594 0.71203 0.0
O99 O 0.82679 0.58756 0.90813 0.0
Cd100 Cd 0.81489 0.55815 0.94645 0.0
O101 O 0.78373 0.59701 0.90741 0.0
Cd102 Cd 0.75371 0.57088 0.93883 0.0
O103 O 0.70631 0.551 0.95941 0.0
C104 C 0.69776 0.57226 0.96807 0.0
O105 O 0.71858 0.60525 0.96565 0.0
C106 C 0.81073 0.60009 0.89813 0.0
C107 C 0.86855 0.5498 0.96361 0.0
O108 O 0.84283 0.52518 0.95081 0.0
O109 O 0.86893 0.57814 0.96828 0.0
O110 O 0.39151 0.18626 0.92876 0.0
Cd111 Cd 0.4198 0.19777 0.96961 0.0
O112 O 0.43905 0.21319 0.9091 0.0
Cd113 Cd 0.46969 0.23542 0.94317 0.0
O114 O 0.48483 0.28345 0.96505 0.0
C115 C 0.46591 0.29572 0.96085 0.0
O116 O 0.43935 0.27788 0.94529 0.0
C117 C 0.40656 0.19554 0.90878 0.0
C118 C 0.44554 0.15505 0.97812 0.0
O119 O 0.41384 0.14488 0.98054 0.0
O120 O 0.46516 0.18539 0.97141 0.0
O121 O 0.76299 0.19896 0.91379 0.0
Cd122 Cd 0.74375 0.21204 0.95305 0.0
O123 O 0.80012 0.19046 0.93295 0.0
Cd124 Cd 0.79959 0.22042 0.96587 0.0
O125 O 0.8285 0.27549 0.97805 0.0
C126 C 0.85699 0.29167 0.96793 0.0
O127 O 0.86583 0.27409 0.95261 0.0
C128 C 0.78483 0.18939 0.91313 0.0
C129 C 0.685 0.1551 0.969 0.0
O130 O 0.68299 0.17767 0.9575 0.0
O131 O 0.71474 0.15942 0.97299 0.0
O132 O 0.5348 0.81239 0.133 0.0
Cd133 Cd 0.49616 0.79772 0.09712 0.0
O134 O 0.55134 0.78658 0.10623 0.0
Cd135 Cd 0.57862 0.76275 0.09013 0.0
O136 O 0.57626 0.71705 0.07242 0.0
C137 C 0.54686 0.69311 0.06395 0.0
O138 O 0.52091 0.698 0.06607 0.0
C139 C 0.55396 0.80029 0.12791 0.0
C140 C 0.50622 0.85279 0.07194 0.0
O141 O 0.48139 0.83857 0.08627 0.0
O142 O 0.52681 0.84151 0.06975 0.0
O143 O 0.23685 0.83123 0.09029 0.0
Cd144 Cd 0.25495 0.82425 0.04886 0.0
O145 O 0.23018 0.78254 0.10114 0.0
Cd146 Cd 0.23564 0.76307 0.06475 0.0
O147 O 0.19812 0.71475 0.04399 0.0
C148 C 0.16888 0.702 0.05316 0.0
O149 O 0.16553 0.71914 0.07236 0.0
C150 C 0.22953 0.80997 0.10645 0.0
C151 C 0.31883 0.87947 0.0377 0.0
O152 O 0.29139 0.88033 0.03466 0.0
O153 O 0.3161 0.85256 0.04609 0.0
O154 O 0.23713 0.41247 0.10403 0.0
Cd155 Cd 0.26075 0.43749 0.06478 0.0
O156 O 0.18692 0.40925 0.10132 0.0
Cd157 Cd 0.18302 0.43134 0.06772 0.0
O158 O 0.14392 0.43646 0.04745 0.0
C159 C 0.14682 0.46461 0.0419 0.0
O160 O 0.17613 0.49356 0.04699 0.0
C161 C 0.20811 0.40405 0.11272 0.0
C162 C 0.32481 0.44523 0.05314 0.0
O163 O 0.32285 0.47053 0.06336 0.0
O164 O 0.29676 0.41626 0.04873 0.0
O165 O 0.49739 0.93528 0.24868 0.0
Cd166 Cd 0.48169 0.90837 0.28784 0.0
O167 O 0.45107 0.93784 0.24143 0.0
Cd168 Cd 0.42098 0.91577 0.27355 0.0
O169 O 0.3758 0.90816 0.29325 0.0
C170 C 0.35192 0.87924 0.29936 0.0
O171 O 0.35484 0.85195 0.29511 0.0
C172 C 0.48034 0.94354 0.2352 0.0
C173 C 0.52823 0.89025 0.3049 0.0
O174 O 0.50047 0.86786 0.29281 0.0
O175 O 0.53404 0.92107 0.30885 0.0
O176 O 0.09729 0.53286 0.24753 0.0
Cd177 Cd 0.13208 0.55157 0.28625 0.0
O178 O 0.14 0.56536 0.22493 0.0
Cd179 Cd 0.17365 0.59221 0.2575 0.0
O180 O 0.17936 0.63573 0.28141 0.0
C181 C 0.15371 0.6394 0.27884 0.0
O182 O 0.12804 0.61664 0.26392 0.0
C183 C 0.10852 0.54295 0.22662 0.0
C184 C 0.14477 0.50177 0.302 0.0
O185 O 0.11682 0.50101 0.3065 0.0
O186 O 0.16699 0.52622 0.29002 0.0
O187 O 0.44005 0.52166 0.2433 0.0
Cd188 Cd 0.41736 0.53511 0.28065 0.0
O189 O 0.48396 0.52838 0.26525 0.0
Cd190 Cd 0.47113 0.54644 0.29919 0.0
O191 O 0.49071 0.59819 0.31666 0.0
C192 C 0.49953 0.62096 0.30153 0.0
O193 O 0.49353 0.6108 0.27796 0.0
C194 C 0.46801 0.52174 0.24457 0.0
C195 C 0.35899 0.48004 0.29831 0.0
O196 O 0.35681 0.50111 0.28512 0.0
O197 O 0.38873 0.48464 0.30288 0.0
Tb198 Tb 0.49145 0.991 0.97754 0.0
C199 C 0.5669 0.11662 0.05368 0.0
C200 C 0.62623 0.13277 0.05198 0.0
C201 C 0.61172 0.17669 0.06257 0.0
C202 C 0.59106 0.10765 0.04915 0.0
C203 C 0.57679 0.15111 0.06092 0.0
C204 C 0.63643 0.16751 0.05812 0.0
C205 C 0.51714 0.13185 0.06608 0.0
N206 N 0.5336 0.09106 0.05208 0.0
C207 C 0.5087 0.09798 0.05899 0.0
C208 C 0.55131 0.15863 0.06682 0.0
Tb209 Tb 0.52184 0.03667 0.03866 0.0
N210 N 0.57999 0.07381 0.04352 0.0
C211 C 0.603 0.06297 0.04254 0.0
C212 C 0.64993 0.12201 0.04941 0.0
C213 C 0.63823 0.08686 0.04512 0.0
H214 H 0.48218 0.07756 0.05826 0.0
H215 H 0.65629 0.07813 0.04359 0.0
H216 H 0.66335 0.1873 0.06012 0.0
H217 H 0.49726 0.13729 0.07093 0.0
H218 H 0.59452 0.03602 0.03892 0.0
H219 H 0.35653 0.94661 0.96726 0.0
H220 H 0.67721 0.14048 0.05139 0.0
H221 H 0.53389 0.95099 0.96232 0.0
H222 H 0.41778 0.98975 0.97382 0.0
H223 H 0.52046 0.8917 0.95061 0.0
H224 H 0.61988 0.20341 0.06787 0.0
H225 H 0.33727 0.88467 0.9595 0.0
H226 H 0.35283 0.83894 0.95241 0.0
H227 H 0.55779 0.1848 0.07239 0.0
H228 H 0.39754 0.82399 0.94768 0.0
N229 N 0.43371 0.95298 0.9706 0.0
C230 C 0.41006 0.96298 0.97044 0.0
C231 C 0.36435 0.90359 0.96239 0.0
C232 C 0.38875 0.89364 0.96113 0.0
C233 C 0.37512 0.9385 0.96669 0.0
C234 C 0.42363 0.91932 0.96516 0.0
H235 H 0.46019 0.84359 0.94665 0.0
N236 N 0.4817 0.93687 0.96554 0.0
C237 C 0.49995 0.89674 0.95399 0.0
C238 C 0.44854 0.91094 0.96244 0.0
C239 C 0.50745 0.93042 0.96057 0.0
C240 C 0.46592 0.86962 0.95181 0.0
C241 C 0.43966 0.87661 0.95573 0.0
O242 O 0.52006 0.00372 0.94587 0.0
O243 O 0.53224 0.03307 1.00058 0.0
O244 O 0.51651 0.07088 0.01526 0.0
O245 O 0.47727 0.03071 0.98466 0.0
O246 O 0.54603 0.00856 0.97474 0.0
O247 O 0.47365 0.00514 0.94748 0.0
O248 O 0.49905 0.02871 0.07296 0.0
O249 O 0.48054 0.99667 0.01527 0.0
O250 O 0.49143 0.95543 1.00223 0.0
O251 O 0.53369 0.99528 0.03095 0.0
O252 O 0.46734 0.01814 0.0438 0.0
O253 O 0.53809 0.01641 0.06531 0.0
C254 C 0.55794 0.0338 0.99156 0.0
C255 C 0.49001 0.99377 0.90832 0.0
C256 C 0.49763 0.00133 0.86449 0.0
C257 C 0.50363 0.0154 0.88914 0.0
C258 C 0.4779 0.9653 0.85934 0.0
C259 C 0.47007 0.95793 0.90277 0.0
C260 C 0.46409 0.94382 0.87837 0.0
C261 C 0.4932 0.0617 0.99715 0.0
C262 C 0.49869 0.00898 0.93396 0.0
C263 C 0.40495 0.85059 0.95264 0.0
C264 C 0.37951 0.85911 0.95536 0.0
C265 C 0.45509 0.99511 0.02547 0.0
C266 C 0.53335 0.03148 0.10666 0.0
C267 C 0.52047 0.01016 0.12606 0.0
C268 C 0.53581 0.0222 0.14993 0.0
C269 C 0.56395 0.05606 0.15414 0.0
C270 C 0.56143 0.06516 0.11125 0.0
C271 C 0.57659 0.07735 0.13491 0.0
C272 C 0.51392 0.9633 0.0206 0.0
C273 C 0.51796 0.01768 0.08168 0.0
H274 H 0.51941 0.0431 0.89342 0.0
H275 H 0.47277 0.95381 0.84055 0.0
H276 H 0.45947 0.94089 0.91725 0.0
H277 H 0.44878 0.91612 0.8742 0.0
H278 H 0.49884 0.98405 0.12251 0.0
H279 H 0.57586 0.06625 0.1724 0.0
H280 H 0.57171 0.08191 0.09657 0.0
H281 H 0.59821 0.1034 0.13836 0.0
Tb282 Tb 0.02262 0.50683 0.97269 0.0
C283 C 0.90984 0.46217 0.04778 0.0
C284 C 0.89293 0.50477 0.04825 0.0
C285 C 0.85211 0.44658 0.05831 0.0
C286 C 0.91753 0.49508 0.04426 0.0
C287 C 0.8773 0.43766 0.05538 0.0
C288 C 0.85991 0.4801 0.05472 0.0
C289 C 0.89773 0.39823 0.05804 0.0
N290 N 0.93492 0.45471 0.04481 0.0
C291 C 0.92964 0.4235 0.05056 0.0
C292 C 0.87134 0.40524 0.0603 0.0
Tb293 Tb 0.98641 0.49778 0.03251 0.0
N294 N 0.94987 0.51819 0.03846 0.0
C295 C 0.95997 0.55226 0.0383 0.0
C296 C 0.90262 0.5392 0.04647 0.0
C297 C 0.93648 0.56316 0.04187 0.0
H298 H 0.94971 0.41761 0.0489 0.0
H299 H 0.9445 0.59003 0.04093 0.0
H300 H 0.84055 0.48695 0.05764 0.0
H301 H 0.89353 0.37338 0.06208 0.0
H302 H 0.98585 0.57107 0.03448 0.0
H303 H 0.06278 0.41311 0.96422 0.0
H304 H 0.88449 0.5477 0.04931 0.0
H305 H 0.06051 0.58695 0.95599 0.0
H306 H 0.02187 0.43268 0.97002 0.0
H307 H 0.11754 0.63115 0.94411 0.0
H308 H 0.82682 0.42802 0.06389 0.0
H309 H 0.12326 0.45503 0.95674 0.0
H310 H 0.16819 0.51584 0.94929 0.0
H311 H 0.84668 0.38566 0.06615 0.0
H312 H 0.18308 0.57529 0.94359 0.0
N313 N 0.05852 0.48559 0.96655 0.0
C314 C 0.04795 0.45137 0.96663 0.0
C315 C 0.10531 0.46381 0.95926 0.0
C316 C 0.11553 0.4984 0.95763 0.0
C317 C 0.07119 0.44009 0.96338 0.0
C318 C 0.09113 0.50845 0.96119 0.0
H319 H 0.16419 0.61842 0.94125 0.0
N320 N 0.07453 0.54935 0.96046 0.0
C321 C 0.11285 0.60608 0.94805 0.0
C322 C 0.09943 0.54157 0.95793 0.0
C323 C 0.08043 0.58081 0.95476 0.0
C324 C 0.13913 0.59883 0.9465 0.0
C325 C 0.13248 0.56607 0.95112 0.0
O326 O 0.00573 0.51798 0.94073 0.0
O327 O 0.98411 0.50807 0.99497 0.0
O328 O 0.94751 0.45552 0.0078 0.0
O329 O 0.98287 0.45276 0.97802 0.0
O330 O 0.00621 0.54432 0.97055 0.0
O331 O 0.00268 0.46912 0.94261 0.0
O332 O 0.00396 0.48704 0.06433 0.0
O333 O 0.02487 0.49688 0.01015 0.0
O334 O 0.06147 0.54925 0.99757 0.0
O335 O 0.02645 0.55178 0.02772 0.0
O336 O 0.00413 0.46116 0.03487 0.0
O337 O 0.00455 0.53476 0.06305 0.0
C338 C 0.98344 0.53298 0.9867 0.0
C339 C 0.008 0.49 0.90342 0.0
C340 C 0.99442 0.49023 0.8603 0.0
C341 C 0.9863 0.48968 0.88508 0.0
C342 C 0.02461 0.4909 0.85399 0.0
C343 C 0.0384 0.49128 0.897 0.0
C344 C 0.04659 0.49169 0.87232 0.0
C345 C 0.95348 0.4389 0.98937 0.0
C346 C 0.99775 0.48864 0.92893 0.0
C347 C 0.15744 0.55678 0.9486 0.0
C348 C 0.14897 0.52296 0.95186 0.0
C349 C 0.02667 0.47271 0.01856 0.0
C350 C 0.99901 0.51267 0.10178 0.0
C351 C 0.02144 0.51572 0.12074 0.0
C352 C 0.01174 0.51301 0.14525 0.0
C353 C 0.97902 0.50711 0.15047 0.0
C354 C 0.96638 0.50649 0.10725 0.0
C355 C 0.95648 0.5037 0.13154 0.0
C356 C 0.05595 0.56554 0.01654 0.0
C357 C 0.0104 0.51564 0.07653 0.0
H358 H 0.96267 0.48841 0.89007 0.0
H359 H 0.03127 0.49111 0.83497 0.0
H360 H 0.05557 0.49173 0.91095 0.0
H361 H 0.06995 0.49248 0.86737 0.0
H362 H 0.04652 0.52015 0.11636 0.0
H363 H 0.97108 0.50583 0.16921 0.0
H364 H 0.94873 0.50401 0.09286 0.0
H365 H 0.93138 0.49921 0.13574 0.0
Tb366 Tb 0.5263 0.49295 0.0422 0.0
C367 C 0.44199 0.52625 0.97448 0.0
C368 C 0.3838 0.47876 0.97587 0.0
C369 C 0.39463 0.53581 0.96904 0.0
C370 C 0.4194 0.49214 0.97764 0.0
C371 C 0.42999 0.54846 0.96966 0.0
C372 C 0.37154 0.50097 0.97213 0.0
C373 C 0.48849 0.59298 0.96436 0.0
N374 N 0.4758 0.53723 0.97497 0.0
C375 C 0.49905 0.56983 0.96903 0.0
C376 C 0.45383 0.58239 0.96495 0.0
Tb377 Tb 0.49105 0.4981 0.98408 0.0
N378 N 0.43237 0.47162 0.98098 0.0
C379 C 0.41077 0.4367 0.9808 0.0
C380 C 0.36165 0.44335 0.97711 0.0
C381 C 0.37523 0.42215 0.97916 0.0
H382 H 0.52594 0.57842 0.96867 0.0
H383 H 0.35836 0.3946 0.97971 0.0
H384 H 0.34429 0.49127 0.97098 0.0
H385 H 0.50709 0.61898 0.96029 0.0
H386 H 0.42055 0.41983 0.98269 0.0
H387 H 0.66161 0.58816 0.04554 0.0
H388 H 0.33413 0.43202 0.97589 0.0
H389 H 0.48544 0.41362 0.06066 0.0
H390 H 0.60005 0.5673 0.0426 0.0
H391 H 0.49973 0.37152 0.07343 0.0
H392 H 0.38487 0.55251 0.96556 0.0
H393 H 0.68116 0.54726 0.05145 0.0
H394 H 0.66599 0.48731 0.05976 0.0
H395 H 0.44568 0.6003 0.96119 0.0
H396 H 0.62182 0.42848 0.06836 0.0
N397 N 0.58432 0.51479 0.04525 0.0
C398 C 0.60801 0.54911 0.04494 0.0
C399 C 0.654 0.53792 0.0499 0.0
C400 C 0.62969 0.50331 0.05233 0.0
C401 C 0.64308 0.56108 0.04667 0.0
C402 C 0.59467 0.49252 0.05001 0.0
H403 H 0.55983 0.38549 0.07436 0.0
N404 N 0.53688 0.45131 0.05357 0.0
C405 C 0.51978 0.3962 0.06813 0.0
C406 C 0.57004 0.45967 0.05473 0.0
C407 C 0.5118 0.42028 0.06082 0.0
C408 C 0.55371 0.40415 0.06861 0.0
C409 C 0.57942 0.43634 0.06206 0.0
O410 O 0.50115 0.48312 0.07547 0.0
O411 O 0.48332 0.48865 0.02199 0.0
O412 O 0.49515 0.53904 0.01028 0.0
O413 O 0.53879 0.54609 0.037 0.0
O414 O 0.47225 0.45478 0.0475 0.0
O415 O 0.5482 0.53096 0.07215 0.0
O416 O 0.51422 0.51282 0.95032 0.0
O417 O 0.53478 0.50308 0.00396 0.0
O418 O 0.52164 0.45068 0.01734 0.0
O419 O 0.48093 0.44553 0.98851 0.0
O420 O 0.54411 0.53796 0.97904 0.0
O421 O 0.47377 0.46054 0.95395 0.0
C422 C 0.45863 0.4642 0.03165 0.0
C423 C 0.53691 0.50852 0.11103 0.0
C424 C 0.53077 0.50654 0.15535 0.0
C425 C 0.52067 0.51106 0.13224 0.0
C426 C 0.55668 0.49847 0.15677 0.0
C427 C 0.56336 0.50148 0.11301 0.0
C428 C 0.57297 0.49621 0.13575 0.0
C429 C 0.5203 0.55759 0.02709 0.0
C430 C 0.52494 0.51182 0.08695 0.0
C431 C 0.61412 0.4462 0.06311 0.0
C432 C 0.63924 0.47964 0.05816 0.0
C433 C 0.55856 0.5286 0.99426 0.0
C434 C 0.47868 0.48205 0.91508 0.0
C435 C 0.49687 0.48534 0.8937 0.0
C436 C 0.48248 0.48438 0.87063 0.0
C437 C 0.44998 0.48079 0.86929 0.0
C438 C 0.44623 0.47841 0.91334 0.0
C439 C 0.43205 0.47788 0.89053 0.0
C440 C 0.49844 0.43338 0.99909 0.0
C441 C 0.49401 0.4825 0.93894 0.0
H442 H 0.50051 0.51694 0.13078 0.0
H443 H 0.56436 0.4939 0.17418 0.0
H444 H 0.57648 0.49988 0.09705 0.0
H445 H 0.59311 0.49034 0.13707 0.0
H446 H 0.52193 0.48811 0.89496 0.0
H447 H 0.43856 0.48053 0.8518 0.0
H448 H 0.43181 0.47587 0.92952 0.0
H449 H 0.40704 0.47515 0.88932 0.0
Tb450 Tb 0.16447 0.32344 0.31408 0.0
C451 C 0.24769 0.4513 0.38729 0.0
C452 C 0.30592 0.46407 0.3848 0.0
C453 C 0.29488 0.51059 0.39473 0.0
C454 C 0.27035 0.44033 0.38279 0.0
C455 C 0.25954 0.48645 0.39379 0.0
C456 C 0.31806 0.49938 0.39024 0.0
C457 C 0.20093 0.47072 0.39977 0.0
N458 N 0.21393 0.4271 0.38642 0.0
C459 C 0.19052 0.43613 0.39339 0.0
C460 C 0.23557 0.49609 0.39972 0.0
Tb461 Tb 0.19887 0.37133 0.37409 0.0
N462 N 0.25746 0.406 0.37788 0.0
C463 C 0.27907 0.39342 0.37673 0.0
C464 C 0.32811 0.45144 0.38209 0.0
C465 C 0.31461 0.41589 0.37847 0.0
H466 H 0.16365 0.41686 0.39331 0.0
H467 H 0.33152 0.40575 0.37686 0.0
H468 H 0.34531 0.51811 0.39164 0.0
H469 H 0.1822 0.4778 0.40471 0.0
H470 H 0.26927 0.36612 0.37374 0.0
H471 H 0.03046 0.28356 0.30867 0.0
H472 H 0.35565 0.4688 0.38344 0.0
H473 H 0.20332 0.28036 0.29693 0.0
H474 H 0.09242 0.32499 0.31257 0.0
H475 H 0.18728 0.22016 0.28574 0.0
H476 H 0.30453 0.53776 0.39949 0.0
H477 H 0.00873 0.22093 0.30202 0.0
H478 H 0.02175 0.17338 0.29439 0.0
H479 H 0.24358 0.52282 0.40478 0.0
H480 H 0.06457 0.15614 0.28777 0.0
N481 N 0.10623 0.28676 0.30928 0.0
C482 C 0.08353 0.29797 0.30978 0.0
C483 C 0.03608 0.23914 0.30384 0.0
C484 C 0.05944 0.22789 0.30167 0.0
C485 C 0.04823 0.27443 0.30751 0.0
C486 C 0.09473 0.25272 0.30431 0.0
H487 H 0.12641 0.17351 0.28415 0.0
N488 N 0.15205 0.26827 0.3022 0.0
C489 C 0.16766 0.22624 0.2899 0.0
C490 C 0.11854 0.24309 0.30046 0.0
C491 C 0.17663 0.26045 0.29619 0.0
C492 C 0.13329 0.19995 0.28905 0.0
C493 C 0.10816 0.20828 0.29404 0.0
O494 O 0.19 0.33235 0.28093 0.0
O495 O 0.2071 0.36505 0.33589 0.0
O496 O 0.19533 0.4059 0.3499 0.0
O497 O 0.15335 0.36555 0.32075 0.0
O498 O 0.21828 0.33883 0.30965 0.0
O499 O 0.14695 0.33932 0.28501 0.0
O500 O 0.17534 0.36453 0.40806 0.0
O501 O 0.15582 0.33063 0.35219 0.0
O502 O 0.16565 0.28834 0.33876 0.0
O503 O 0.20869 0.32842 0.3671 0.0
O504 O 0.14562 0.35707 0.3792 0.0
O505 O 0.21452 0.3521 0.40198 0.0
C506 C 0.23176 0.36433 0.32625 0.0
C507 C 0.15723 0.32405 0.24491 0.0
C508 C 0.15993 0.32915 0.20058 0.0
C509 C 0.17171 0.34387 0.22486 0.0
C510 C 0.1337 0.2943 0.19672 0.0
C511 C 0.13125 0.28932 0.24058 0.0
C512 C 0.11962 0.27456 0.21658 0.0
C513 C 0.17149 0.39712 0.33227 0.0
C514 C 0.16957 0.33996 0.27015 0.0
C515 C 0.0731 0.18309 0.29244 0.0
C516 C 0.04875 0.19291 0.29625 0.0
C517 C 0.13171 0.33219 0.36216 0.0
C518 C 0.20818 0.36804 0.4429 0.0
C519 C 0.19453 0.3472 0.46256 0.0
C520 C 0.20866 0.36008 0.48669 0.0
C521 C 0.23621 0.39429 0.49087 0.0
C522 C 0.23567 0.40202 0.4475 0.0
C523 C 0.24952 0.41505 0.4714 0.0
C524 C 0.18913 0.29654 0.35648 0.0
C525 C 0.19384 0.35368 0.41771 0.0
H526 H 0.1916 0.37083 0.22817 0.0
H527 H 0.12416 0.28229 0.17827 0.0
H528 H 0.11989 0.27368 0.25571 0.0
H529 H 0.09951 0.24773 0.21336 0.0
H530 H 0.17332 0.32087 0.45903 0.0
H531 H 0.24722 0.40511 0.50927 0.0
H532 H 0.24645 0.4184 0.43264 0.0
H533 H 0.27068 0.44135 0.47487 0.0
Tb534 Tb 0.66865 0.82816 0.31789 0.0
C535 C 0.55512 0.79781 0.38981 0.0
C536 C 0.54479 0.84449 0.38623 0.0
C537 C 0.49842 0.78867 0.3964 0.0
C538 C 0.56673 0.83112 0.38475 0.0
C539 C 0.52115 0.7764 0.39649 0.0
C540 C 0.51024 0.82274 0.39125 0.0
C541 C 0.53612 0.73441 0.40586 0.0
N542 N 0.57807 0.78733 0.39002 0.0
C543 C 0.5696 0.75682 0.39921 0.0
C544 C 0.51158 0.74397 0.40405 0.0
Tb545 Tb 0.63163 0.82427 0.37696 0.0
N546 N 0.60033 0.85119 0.38034 0.0
C547 C 0.61438 0.88606 0.37981 0.0
C548 C 0.55859 0.87961 0.38374 0.0
C549 C 0.5937 0.90063 0.38111 0.0
H550 H 0.58835 0.74917 0.40071 0.0
H551 H 0.60488 0.92805 0.37988 0.0
H552 H 0.49284 0.83236 0.39211 0.0
H553 H 0.5293 0.70983 0.4124 0.0
H554 H 0.64134 0.90287 0.37753 0.0
H555 H 0.69579 0.72495 0.31644 0.0
H556 H 0.54264 0.89094 0.38473 0.0
H557 H 0.71185 0.9048 0.29627 0.0
H558 H 0.65951 0.75042 0.31979 0.0
H559 H 0.76892 0.94213 0.28064 0.0
H560 H 0.47206 0.77249 0.40115 0.0
H561 H 0.75702 0.76115 0.30789 0.0
H562 H 0.80543 0.81849 0.29699 0.0
H563 H 0.48572 0.72669 0.40936 0.0
H564 H 0.8252 0.87756 0.28654 0.0
N565 N 0.69998 0.80143 0.31453 0.0
C566 C 0.68615 0.76681 0.31618 0.0
C567 C 0.74124 0.77263 0.30954 0.0
C568 C 0.75458 0.80736 0.30586 0.0
C569 C 0.70668 0.75211 0.31427 0.0
C570 C 0.73294 0.82102 0.30836 0.0
H571 H 0.81128 0.9234 0.27944 0.0
N572 N 0.72172 0.86532 0.30433 0.0
C573 C 0.76236 0.9175 0.28695 0.0
C574 C 0.74413 0.85412 0.30279 0.0
C575 C 0.72999 0.89622 0.29588 0.0
C576 C 0.78622 0.90687 0.28633 0.0
C577 C 0.77716 0.8747 0.29415 0.0
O578 O 0.65483 0.83991 0.28479 0.0
O579 O 0.63103 0.83314 0.33881 0.0
O580 O 0.59199 0.77978 0.35428 0.0
O581 O 0.62473 0.77615 0.32239 0.0
O582 O 0.65651 0.8685 0.31412 0.0
O583 O 0.64753 0.78958 0.28847 0.0
O584 O 0.64719 0.81267 0.40933 0.0
O585 O 0.66925 0.81905 0.35603 0.0
O586 O 0.70865 0.87161 0.34154 0.0
O587 O 0.67438 0.87633 0.37138 0.0
O588 O 0.643 0.78338 0.38033 0.0
O589 O 0.65236 0.86221 0.40689 0.0
C590 C 0.63283 0.85872 0.32959 0.0
C591 C 0.65671 0.80916 0.24876 0.0
C592 C 0.64582 0.807 0.20485 0.0
C593 C 0.63684 0.80915 0.22916 0.0
C594 C 0.67525 0.8053 0.20026 0.0
C595 C 0.68626 0.80777 0.24403 0.0
C596 C 0.69548 0.80594 0.21983 0.0
C597 C 0.5963 0.76349 0.33477 0.0
C598 C 0.64528 0.8097 0.27377 0.0
C599 C 0.79953 0.86199 0.29281 0.0
C600 C 0.78829 0.82838 0.29877 0.0
C601 C 0.66704 0.79314 0.3651 0.0
C602 C 0.64657 0.84215 0.44626 0.0
C603 C 0.67036 0.84751 0.46489 0.0
C604 C 0.66282 0.84856 0.48972 0.0
C605 C 0.63034 0.84275 0.49561 0.0
C606 C 0.61435 0.83659 0.45231 0.0
C607 C 0.60626 0.83672 0.47697 0.0
C608 C 0.70405 0.88835 0.36072 0.0
C609 C 0.65648 0.84247 0.4208 0.0
H610 H 0.61386 0.80999 0.23278 0.0
H611 H 0.68256 0.80359 0.1816 0.0
H612 H 0.70192 0.80775 0.25893 0.0
H613 H 0.71821 0.80473 0.21621 0.0
H614 H 0.69487 0.85087 0.45995 0.0
H615 H 0.62379 0.84346 0.5146 0.0
H616 H 0.59562 0.83223 0.43808 0.0
H617 H 0.58139 0.83246 0.48166 0.0
Tb618 Tb 0.18171 0.82091 0.36645 0.0
C619 C 0.10596 0.85902 0.29404 0.0
C620 C 0.04691 0.8126 0.2933 0.0
C621 C 0.06037 0.87036 0.28587 0.0
C622 C 0.08218 0.82498 0.29664 0.0
C623 C 0.09548 0.88209 0.28823 0.0
C624 C 0.0361 0.83564 0.2884 0.0
C625 C 0.15509 0.92592 0.28616 0.0
N626 N 0.13956 0.86923 0.29651 0.0
C627 C 0.16418 0.90197 0.2918 0.0
C628 C 0.12059 0.91605 0.28459 0.0
Tb629 Tb 0.15188 0.82845 0.30693 0.0
N630 N 0.09375 0.80361 0.30118 0.0
C631 C 0.07127 0.76888 0.30075 0.0
C632 C 0.0237 0.77732 0.2943 0.0
C633 C 0.03599 0.75529 0.29768 0.0
H634 H 0.19095 0.9101 0.29306 0.0
H635 H 0.01833 0.72785 0.2981 0.0
H636 H 0.00911 0.82671 0.28599 0.0
H637 H 0.17471 0.95199 0.28305 0.0
H638 H 0.08028 0.75162 0.30372 0.0
H639 H 0.31321 0.92682 0.37751 0.0
H640 H 0.99637 0.76675 0.29191 0.0
H641 H 0.14671 0.74002 0.38072 0.0
H642 H 0.25102 0.90026 0.3718 0.0
H643 H 0.16592 0.7002 0.39038 0.0
H644 H 0.05176 0.88775 0.28162 0.0
H645 H 0.33826 0.89036 0.38267 0.0
H646 H 0.32887 0.83135 0.38742 0.0
H647 H 0.11362 0.93464 0.28019 0.0
H648 H 0.28867 0.76948 0.39108 0.0
N649 N 0.24016 0.8487 0.37293 0.0
C650 C 0.2612 0.8838 0.37407 0.0
C651 C 0.31077 0.87846 0.38014 0.0
C652 C 0.28904 0.8428 0.38049 0.0
C653 C 0.29671 0.8991 0.37733 0.0
C654 C 0.25346 0.82866 0.37699 0.0
H655 H 0.22775 0.72038 0.39258 0.0
N656 N 0.19713 0.78236 0.37677 0.0
C657 C 0.18455 0.72655 0.38712 0.0
C658 C 0.23109 0.79416 0.37904 0.0
C659 C 0.17377 0.74929 0.3817 0.0
C660 C 0.21946 0.73801 0.38828 0.0
C661 C 0.24327 0.77237 0.38462 0.0
O662 O 0.15305 0.80421 0.39786 0.0
O663 O 0.13989 0.81557 0.34415 0.0
O664 O 0.15065 0.8666 0.3327 0.0
O665 O 0.19111 0.87351 0.36239 0.0
O666 O 0.12841 0.7789 0.36766 0.0
O667 O 0.1958 0.85622 0.39777 0.0
O668 O 0.18058 0.84304 0.27538 0.0
O669 O 0.19323 0.83323 0.32934 0.0
O670 O 0.18199 0.78201 0.34049 0.0
O671 O 0.14227 0.77586 0.31038 0.0
O672 O 0.20596 0.86912 0.30514 0.0
O673 O 0.13448 0.79314 0.27538 0.0
C674 C 0.11522 0.78887 0.35186 0.0
C675 C 0.18246 0.83136 0.43568 0.0
C676 C 0.17288 0.83177 0.47958 0.0
C677 C 0.16387 0.83368 0.45538 0.0
C678 C 0.20027 0.82648 0.48367 0.0
C679 C 0.20986 0.82636 0.44008 0.0
C680 C 0.21858 0.82377 0.46401 0.0
C681 C 0.17292 0.88449 0.35127 0.0
C682 C 0.17219 0.83352 0.41075 0.0
C683 C 0.27873 0.78585 0.38702 0.0
C684 C 0.30161 0.82105 0.38493 0.0
C685 C 0.21848 0.85908 0.32139 0.0
C686 C 0.15008 0.81851 0.23756 0.0
C687 C 0.17001 0.81831 0.21807 0.0
C688 C 0.16239 0.82243 0.19405 0.0
C689 C 0.13494 0.82764 0.18998 0.0
C690 C 0.12267 0.82349 0.23313 0.0
C691 C 0.11527 0.82816 0.20943 0.0
C692 C 0.1604 0.76469 0.32134 0.0
C693 C 0.1592 0.81452 0.26238 0.0
H694 H 0.14228 0.83687 0.4518 0.0
H695 H 0.20792 0.82508 0.50212 0.0
H696 H 0.22442 0.82444 0.42511 0.0
H697 H 0.23975 0.81992 0.46735 0.0
H698 H 0.19162 0.81518 0.22168 0.0
H699 H 0.12832 0.83071 0.17168 0.0
H700 H 0.1071 0.82382 0.24792 0.0
H701 H 0.09409 0.83199 0.20607 0.0
Tb702 Tb 0.81702 0.655 0.6427 0.0
C703 C 0.9073 0.78014 0.71741 0.0
C704 C 0.96414 0.78874 0.71601 0.0
C705 C 0.95697 0.83775 0.72622 0.0
C706 C 0.92827 0.767 0.71316 0.0
C707 C 0.92125 0.81556 0.72444 0.0
C708 C 0.9784 0.82433 0.72201 0.0
C709 C 0.86366 0.80385 0.72927 0.0
N710 N 0.87307 0.75776 0.71576 0.0
C711 C 0.85113 0.76889 0.72243 0.0
C712 C 0.89888 0.82739 0.73004 0.0
Tb713 Tb 0.85463 0.70124 0.703 0.0
N714 N 0.91336 0.73249 0.70758 0.0
C715 C 0.93306 0.71769 0.70661 0.0
C716 C 0.98445 0.7739 0.71348 0.0
C717 C 0.9688 0.73813 0.70917 0.0
H718 H 0.82385 0.75106 0.72172 0.0
H719 H 0.9842 0.72626 0.70768 0.0
H720 H 0.00593 0.84154 0.72405 0.0
H721 H 0.84613 0.81262 0.73394 0.0
H722 H 0.92162 0.69013 0.70317 0.0
H723 H 0.6853 0.62342 0.63989 0.0
H724 H 0.01214 0.78968 0.71546 0.0
H725 H 0.85062 0.60849 0.62169 0.0
H726 H 0.74783 0.66187 0.64289 0.0
H727 H 0.8308 0.54766 0.60889 0.0
H728 H 0.96823 0.86509 0.7314 0.0
H729 H 0.65988 0.56019 0.63274 0.0
H730 H 0.6689 0.51013 0.62368 0.0
H731 H 0.90853 0.85441 0.73548 0.0
H732 H 0.70871 0.48947 0.61497 0.0
N733 N 0.75834 0.62124 0.6388 0.0
C734 C 0.73734 0.6345 0.63999 0.0
C735 C 0.68748 0.57706 0.6342 0.0
C736 C 0.70908 0.56376 0.63117 0.0
C737 C 0.70171 0.61269 0.63818 0.0
C738 C 0.74478 0.58689 0.63338 0.0
H739 H 0.76921 0.50341 0.60894 0.0
N740 N 0.80084 0.5991 0.6295 0.0
C741 C 0.81252 0.55507 0.61449 0.0
C742 C 0.7669 0.57535 0.62844 0.0
C743 C 0.82366 0.58964 0.62173 0.0
C744 C 0.77776 0.53013 0.61459 0.0
C745 C 0.75435 0.54023 0.62124 0.0
O746 O 0.84094 0.66346 0.60884 0.0
O747 O 0.86141 0.69416 0.66455 0.0
O748 O 0.85435 0.73769 0.67899 0.0
O749 O 0.80936 0.69906 0.65116 0.0
O750 O 0.86966 0.66738 0.63664 0.0
O751 O 0.80044 0.67386 0.61505 0.0
O752 O 0.83212 0.69567 0.73732 0.0
O753 O 0.80971 0.6624 0.68129 0.0
O754 O 0.81731 0.61824 0.66627 0.0
O755 O 0.86112 0.6566 0.69491 0.0
O756 O 0.80264 0.69019 0.7093 0.0
O757 O 0.86789 0.67888 0.73001 0.0
C758 C 0.88464 0.69171 0.65396 0.0
C759 C 0.80706 0.65783 0.57409 0.0
C760 C 0.80964 0.66243 0.52961 0.0
C761 C 0.82259 0.67679 0.55384 0.0
C762 C 0.78066 0.62894 0.52613 0.0
C763 C 0.77832 0.62448 0.57007 0.0
C764 C 0.76519 0.61021 0.54621 0.0
C765 C 0.82973 0.73041 0.66242 0.0
C766 C 0.82138 0.67305 0.59921 0.0
C767 C 0.71889 0.51663 0.62022 0.0
C768 C 0.69626 0.52841 0.62519 0.0
C769 C 0.78696 0.66553 0.69227 0.0
C770 C 0.86324 0.69417 0.77146 0.0
C771 C 0.84969 0.67153 0.79013 0.0
C772 C 0.86355 0.68264 0.8144 0.0
C773 C 0.89106 0.71651 0.81982 0.0
C774 C 0.89074 0.72792 0.7772 0.0
C775 C 0.90455 0.73897 0.8013 0.0
C776 C 0.83954 0.62508 0.68464 0.0
C777 C 0.84848 0.68197 0.74617 0.0
H778 H 0.84452 0.70275 0.55701 0.0
H779 H 0.77022 0.61698 0.50781 0.0
H780 H 0.76603 0.60951 0.58533 0.0
H781 H 0.74301 0.58441 0.54325 0.0
H782 H 0.82839 0.64541 0.78582 0.0
H783 H 0.90198 0.72559 0.83842 0.0
H784 H 0.90148 0.74563 0.76309 0.0
H785 H 0.92575 0.76506 0.80564 0.0
Tb786 Tb 0.35303 0.17591 0.65059 0.0
C787 C 0.23297 0.14156 0.71659 0.0
C788 C 0.22727 0.19183 0.71861 0.0
C789 C 0.17711 0.13509 0.722 0.0
C790 C 0.24749 0.17659 0.71575 0.0
C791 C 0.19775 0.12037 0.72019 0.0
C792 C 0.19185 0.17079 0.7212 0.0
C793 C 0.20662 0.07237 0.72186 0.0
N794 N 0.25384 0.12847 0.71492 0.0
C795 C 0.24147 0.09454 0.71845 0.0
C796 C 0.18457 0.08526 0.72246 0.0
Tb797 Tb 0.31016 0.16634 0.70803 0.0
N798 N 0.28178 0.19592 0.71339 0.0
C799 C 0.29786 0.23118 0.71562 0.0
C800 C 0.24338 0.22776 0.71947 0.0
C801 C 0.27891 0.24754 0.71837 0.0
H802 H 0.25827 0.08429 0.71782 0.0
H803 H 0.29174 0.27542 0.71946 0.0
H804 H 0.17582 0.18197 0.72318 0.0
H805 H 0.1968 0.04538 0.724 0.0
H806 H 0.32523 0.24706 0.71463 0.0
H807 H 0.37581 0.06962 0.64179 0.0
H808 H 0.22878 0.2405 0.72156 0.0
H809 H 0.40199 0.25528 0.63434 0.0
H810 H 0.34087 0.09665 0.64432 0.0
H811 H 0.46314 0.29536 0.6279 0.0
H812 H 0.1499 0.11924 0.72457 0.0
H813 H 0.43895 0.106 0.64193 0.0
H814 H 0.49114 0.16532 0.64077 0.0
H815 H 0.15761 0.06807 0.7252 0.0
H816 H 0.51519 0.22736 0.63703 0.0
N817 N 0.3834 0.1481 0.64688 0.0
C818 C 0.36823 0.11295 0.64445 0.0
C819 C 0.42365 0.11804 0.64314 0.0
C820 C 0.43894 0.15388 0.64381 0.0
C821 C 0.38805 0.09744 0.64295 0.0
C822 C 0.41779 0.16816 0.64549 0.0
H823 H 0.50478 0.2761 0.63164 0.0
N824 N 0.40911 0.21426 0.64294 0.0
C825 C 0.45457 0.26942 0.63249 0.0
C826 C 0.43124 0.20272 0.64349 0.0
C827 C 0.41992 0.24661 0.63614 0.0
C828 C 0.47802 0.25851 0.63471 0.0
C829 C 0.46631 0.22446 0.63964 0.0
O830 O 0.34472 0.1933 0.61813 0.0
O831 O 0.31554 0.18121 0.6712 0.0
O832 O 0.27198 0.13108 0.67987 0.0
O833 O 0.30722 0.12343 0.65247 0.0
O834 O 0.34238 0.21777 0.6479 0.0
O835 O 0.33423 0.14142 0.61863 0.0
O836 O 0.31534 0.14591 0.7399 0.0
O837 O 0.34836 0.16174 0.6877 0.0
O838 O 0.39111 0.21581 0.67726 0.0
O839 O 0.35602 0.21812 0.70781 0.0
O840 O 0.31992 0.12385 0.70984 0.0
O841 O 0.33032 0.19958 0.7404 0.0
C842 C 0.31852 0.20794 0.66326 0.0
C843 C 0.35303 0.16808 0.5818 0.0
C844 C 0.35123 0.16694 0.53718 0.0
C845 C 0.33514 0.16361 0.55957 0.0
C846 C 0.38569 0.17586 0.53734 0.0
C847 C 0.38716 0.17622 0.58155 0.0
C848 C 0.40347 0.18039 0.55944 0.0
C849 C 0.27687 0.11313 0.6619 0.0
C850 C 0.33592 0.16458 0.60506 0.0
C851 C 0.48805 0.21101 0.63963 0.0
C852 C 0.47437 0.1757 0.64174 0.0
C853 C 0.34494 0.13472 0.69542 0.0
C854 C 0.31348 0.17339 0.7776 0.0
C855 C 0.33367 0.17628 0.79803 0.0
C856 C 0.32202 0.17548 0.82189 0.0
C857 C 0.28925 0.17069 0.82493 0.0
C858 C 0.28098 0.1689 0.78087 0.0
C859 C 0.26889 0.1674 0.80449 0.0
C860 C 0.38576 0.23064 0.69718 0.0
C861 C 0.32724 0.17513 0.75324 0.0
H862 H 0.30858 0.15679 0.55965 0.0
H863 H 0.39874 0.17903 0.52034 0.0
H864 H 0.40118 0.17926 0.59833 0.0
H865 H 0.4299 0.18691 0.55942 0.0
H866 H 0.35852 0.17909 0.79529 0.0
H867 H 0.27963 0.17006 0.8431 0.0
H868 H 0.26507 0.1666 0.76527 0.0
H869 H 0.24379 0.16394 0.807 0.0
Tb870 Tb 0.8547 0.15885 0.71189 0.0
C871 C 0.77777 0.1978 0.64237 0.0
C872 C 0.71954 0.1499 0.64193 0.0
C873 C 0.73054 0.20727 0.63601 0.0
C874 C 0.7551 0.16345 0.64467 0.0
C875 C 0.76592 0.22003 0.63726 0.0
C876 C 0.70734 0.1722 0.63837 0.0
C877 C 0.82455 0.26431 0.63199 0.0
N878 N 0.81158 0.20876 0.64322 0.0
C879 C 0.83492 0.24107 0.63689 0.0
C880 C 0.78992 0.25392 0.63257 0.0
Tb881 Tb 0.82664 0.16971 0.65282 0.0
N882 N 0.76807 0.14285 0.64762 0.0
C883 C 0.74667 0.10776 0.64589 0.0
C884 C 0.69746 0.11423 0.64183 0.0
C885 C 0.71115 0.09302 0.64331 0.0
H886 H 0.86174 0.24931 0.63642 0.0
H887 H 0.69437 0.0653 0.64268 0.0
H888 H 0.6801 0.16238 0.63654 0.0
H889 H 0.84325 0.29017 0.62773 0.0
H890 H 0.75659 0.09087 0.64725 0.0
H891 H 0.98728 0.26235 0.7231 0.0
H892 H 0.66997 0.10275 0.63984 0.0
H893 H 0.81725 0.0772 0.72428 0.0
H894 H 0.92542 0.23741 0.71674 0.0
H895 H 0.83468 0.03634 0.73508 0.0
H896 H 0.72086 0.22399 0.63239 0.0
H897 H 0.01055 0.22463 0.72947 0.0
H898 H 0.99926 0.1652 0.73526 0.0
H899 H 0.7819 0.27185 0.62857 0.0
H900 H 0.95766 0.10371 0.73904 0.0
N901 N 0.91298 0.18534 0.71845 0.0
C902 C 0.93479 0.22033 0.71946 0.0
C903 C 0.98319 0.21339 0.72657 0.0
C904 C 0.96063 0.1779 0.72714 0.0
C905 C 0.97013 0.23474 0.72307 0.0
C906 C 0.92528 0.16461 0.72311 0.0
H907 H 0.89616 0.05553 0.73946 0.0
N908 N 0.86836 0.11906 0.72202 0.0
C909 C 0.85393 0.06267 0.73228 0.0
C910 C 0.90209 0.13026 0.72522 0.0
C911 C 0.84416 0.08596 0.72621 0.0
C912 C 0.88865 0.07359 0.73472 0.0
C913 C 0.91326 0.10787 0.73143 0.0
O914 O 0.827 0.14119 0.74369 0.0
O915 O 0.81407 0.15641 0.68985 0.0
O916 O 0.83021 0.21095 0.67844 0.0
O917 O 0.86534 0.21178 0.71025 0.0
O918 O 0.80038 0.11852 0.71256 0.0
O919 O 0.86874 0.19383 0.74325 0.0
O920 O 0.85433 0.18651 0.62092 0.0
O921 O 0.8675 0.17285 0.67497 0.0
O922 O 0.85552 0.12096 0.68549 0.0
O923 O 0.81698 0.1168 0.65529 0.0
O924 O 0.88072 0.21015 0.65172 0.0
O925 O 0.81117 0.13493 0.62107 0.0
C926 C 0.78841 0.13034 0.69728 0.0
C927 C 0.85692 0.16982 0.78141 0.0
C928 C 0.84796 0.17121 0.82545 0.0
C929 C 0.83696 0.16953 0.80102 0.0
C930 C 0.87877 0.17182 0.82976 0.0
C931 C 0.88748 0.17042 0.78608 0.0
C932 C 0.89819 0.17119 0.81019 0.0
C933 C 0.85029 0.22549 0.69861 0.0
C934 C 0.84579 0.17079 0.75643 0.0
C935 C 0.9485 0.12056 0.73452 0.0
C936 C 0.97218 0.15554 0.73232 0.0
C937 C 0.89297 0.19915 0.66748 0.0
C938 C 0.8222 0.16086 0.58367 0.0
C939 C 0.8392 0.15947 0.56259 0.0
C940 C 0.82831 0.16269 0.53933 0.0
C941 C 0.80066 0.16813 0.53759 0.0
C942 C 0.7943 0.16568 0.58145 0.0
C943 C 0.78374 0.16948 0.55853 0.0
C944 C 0.83471 0.1049 0.66586 0.0
C945 C 0.83414 0.15768 0.6078 0.0
H946 H 0.81295 0.16819 0.79713 0.0
H947 H 0.88825 0.17347 0.8483 0.0
H948 H 0.90319 0.17068 0.77121 0.0
H949 H 0.92191 0.17185 0.81375 0.0
H950 H 0.8606 0.15546 0.56424 0.0
H951 H 0.79225 0.17156 0.52005 0.0
H952 H 0.78072 0.16655 0.59736 0.0
H953 H 0.76238 0.1735 0.55699 0.0
C954 C 0.38088 0.90407 0.02944 0.0
C955 C 0.35282 0.90887 0.03222 0.0
C956 C 0.41376 0.93182 0.02588 0.0
C957 C 0.41983 0.96535 0.02494 0.0
H958 H 0.37758 0.87877 0.03045 0.0
H959 H 0.43473 0.92722 0.02487 0.0
S960 S 0.3556 0.99205 0.03052 0.0
N961 N 0.33349 0.95004 0.033 0.0
N962 N 0.39555 0.00208 0.02683 0.0
C963 C 0.39215 0.97055 0.0274 0.0
C964 C 0.35855 0.94231 0.0307 0.0
C965 C 0.11947 0.49696 0.02771 0.0
C966 C 0.11634 0.46535 0.03262 0.0
C967 C 0.0906 0.49917 0.02191 0.0
C968 C 0.05749 0.46981 0.02065 0.0
H969 H 0.14431 0.52051 0.02914 0.0
H970 H 0.09421 0.52425 0.01939 0.0
S971 S 0.03499 0.38047 0.02948 0.0
N972 N 0.07705 0.40353 0.03391 0.0
N973 N 0.02316 0.40805 0.0233 0.0
C974 C 0.05402 0.43795 0.02457 0.0
C975 C 0.08331 0.43557 0.03031 0.0
C976 C 0.50786 0.63244 0.0458 0.0
C977 C 0.54125 0.65947 0.05317 0.0
C978 C 0.50141 0.59976 0.03685 0.0
C979 C 0.52805 0.59278 0.03517 0.0
H980 H 0.48632 0.63628 0.04729 0.0
H981 H 0.47524 0.5796 0.03179 0.0
S982 S 0.62052 0.6555 0.04881 0.0
N983 N 0.60168 0.67765 0.05598 0.0
N984 N 0.58936 0.61628 0.03906 0.0
C985 C 0.56165 0.61981 0.04148 0.0
C986 C 0.56832 0.65315 0.05049 0.0
C987 C 0.91504 0.34429 0.96765 0.0
C988 C 0.88042 0.32942 0.97327 0.0
C989 C 0.93816 0.37974 0.97241 0.0
C990 C 0.9277 0.40193 0.98295 0.0
H991 H 0.92464 0.32836 0.95981 0.0
H992 H 0.9646 0.38955 0.96822 0.0
S993 S 0.83895 0.37671 0.9984 0.0
N994 N 0.83618 0.34001 0.98837 0.0
N995 N 0.87961 0.4069 0.9969 0.0
C996 C 0.8929 0.38764 0.98797 0.0
C997 C 0.8693 0.35135 0.98326 0.0
C998 C 0.65243 0.58412 0.98271 0.0
C999 C 0.66326 0.56026 0.97798 0.0
C1000 C 0.61886 0.57344 0.98907 0.0
C1001 C 0.59478 0.53858 0.99165 0.0
H1002 H 0.66959 0.61126 0.98057 0.0
H1003 H 0.61142 0.59263 0.99153 0.0
S1004 S 0.60999 0.46577 0.98232 0.0
N1005 N 0.64716 0.50003 0.97724 0.0
N1006 N 0.58395 0.48012 0.98917 0.0
C1007 C 0.60532 0.51448 0.9878 0.0
C1008 C 0.63961 0.52531 0.9811 0.0
C1009 C 0.43632 0.09615 0.98044 0.0
C1010 C 0.45879 0.13212 0.98277 0.0
C1011 C 0.4479 0.07365 0.9847 0.0
C1012 C 0.48226 0.08623 0.99189 0.0
H1013 H 0.40955 0.08518 0.9751 0.0
H1014 H 0.42952 0.04621 0.98286 0.0
S1015 S 0.55139 0.17825 1.00113 0.0
N1016 N 0.51711 0.17938 0.99287 0.0
N1017 N 0.53869 0.13697 1.0013 0.0
C1018 C 0.50499 0.12214 0.99451 0.0
C1019 C 0.49333 0.14511 0.98979 0.0
C1020 C 0.62412 0.12629 0.98123 0.0
C1021 C 0.65371 0.12462 0.97689 0.0
C1022 C 0.59352 0.09721 0.98719 0.0
C1023 C 0.59131 0.06533 0.98879 0.0
H1024 H 0.62446 0.15016 0.97973 0.0
H1025 H 0.57119 0.09944 0.98963 0.0
S1026 S 0.66122 0.04717 0.97965 0.0
N1027 N 0.67894 0.0885 0.9754 0.0
N1028 N 0.62104 0.03368 0.98586 0.0
C1029 C 0.62065 0.06333 0.98472 0.0
C1030 C 0.652 0.09305 0.97913 0.0
C1031 C 0.89246 0.51308 0.97493 0.0
C1032 C 0.89749 0.54601 0.97198 0.0
C1033 C 0.92001 0.50886 0.98124 0.0
C1034 C 0.95358 0.53741 0.98445 0.0
H1035 H 0.86713 0.49032 0.97201 0.0
H1036 H 0.91518 0.48304 0.9826 0.0
S1037 S 0.98055 0.62899 0.97979 0.0
N1038 N 0.93873 0.6077 0.97392 0.0
N1039 N 0.9903 0.59952 0.98488 0.0
C1040 C 0.95884 0.57037 0.98197 0.0
C1041 C 0.93085 0.57477 0.9761 0.0
C1042 C 0.45227 0.34247 0.96722 0.0
C1043 C 0.47444 0.33031 0.97185 0.0
C1044 C 0.46026 0.37564 0.97617 0.0
C1045 C 0.49069 0.39814 0.99027 0.0
H1046 H 0.42855 0.32639 0.95637 0.0
H1047 H 0.44228 0.38357 0.97188 0.0
S1048 S 0.558 0.37909 0.00706 0.0
N1049 N 0.52841 0.34349 0.99123 0.0
N1050 N 0.54348 0.40582 0.00799 0.0
C1051 C 0.51305 0.38622 0.99516 0.0
C1052 C 0.50491 0.35236 0.98598 0.0
C1053 C 0.14429 0.64699 0.02544 0.0
C1054 C 0.13951 0.66796 0.04335 0.0
C1055 C 0.11716 0.61411 0.01682 0.0
C1056 C 0.08403 0.60085 0.02563 0.0
H1057 H 0.16932 0.65576 0.01825 0.0
H1058 H 0.12249 0.59882 0.00342 0.0
S1059 S 0.05765 0.64607 0.07206 0.0
N1060 N 0.09878 0.67341 0.06918 0.0
N1061 N 0.04808 0.61198 0.05307 0.0
C1062 C 0.07886 0.6218 0.04335 0.0
C1063 C 0.10646 0.65523 0.05214 0.0
C1064 C 0.38669 0.4824 0.04328 0.0
C1065 C 0.35845 0.44943 0.04662 0.0
C1066 C 0.41882 0.48706 0.03751 0.0
C1067 C 0.42401 0.45897 0.03499 0.0
H1068 H 0.38399 0.50484 0.04515 0.0
H1069 H 0.43986 0.51293 0.03562 0.0
S1070 S 0.35908 0.36759 0.04208 0.0
N1071 N 0.33818 0.38823 0.04679 0.0
N1072 N 0.39867 0.39731 0.03664 0.0
C1073 C 0.39621 0.42604 0.03848 0.0
C1074 C 0.36339 0.42114 0.04392 0.0
C1075 C 0.48231 0.87529 0.0428 0.0
C1076 C 0.51005 0.88061 0.05763 0.0
C1077 C 0.48467 0.90167 0.02965 0.0
C1078 C 0.51439 0.93475 0.03168 0.0
H1079 H 0.45859 0.85053 0.04137 0.0
H1080 H 0.46252 0.89627 0.01849 0.0
S1081 S 0.59496 0.96076 0.06705 0.0
N1082 N 0.56891 0.92008 0.07238 0.0
N1083 N 0.573 0.97045 0.04857 0.0
C1084 C 0.54269 0.94 0.04597 0.0
C1085 C 0.54058 0.91272 0.05877 0.0
C1086 C 0.05677 0.24374 0.37171 0.0
C1087 C 0.03044 0.25066 0.3766 0.0
C1088 C 0.08918 0.26984 0.36546 0.0
C1089 C 0.09634 0.30367 0.364 0.0
H1090 H 0.05257 0.21816 0.37319 0.0
H1091 H 0.10909 0.26382 0.36287 0.0
S1092 S 0.03645 0.33524 0.37453 0.0
N1093 N 0.01359 0.29376 0.37867 0.0
N1094 N 0.07486 0.34282 0.36771 0.0
C1095 C 0.07019 0.31079 0.36841 0.0
C1096 C 0.03707 0.28422 0.37436 0.0
C1097 C 0.71136 0.74636 0.38396 0.0
C1098 C 0.74634 0.77189 0.38515 0.0
C1099 C 0.68632 0.75343 0.37636 0.0
C1100 C 0.69511 0.78629 0.36967 0.0
H1101 H 0.70316 0.72075 0.38916 0.0
H1102 H 0.65966 0.73307 0.37612 0.0
S1103 S 0.78305 0.8626 0.37075 0.0
N1104 N 0.78851 0.83149 0.37913 0.0
N1105 N 0.74138 0.845 0.36589 0.0
C1106 C 0.72998 0.81205 0.37077 0.0
C1107 C 0.75558 0.80474 0.37816 0.0
C1108 C 0.22145 0.98065 0.36951 0.0
C1109 C 0.19589 0.98923 0.36813 0.0
C1110 C 0.2136 0.9465 0.36477 0.0
C1111 C 0.18001 0.91975 0.35808 0.0
H1112 H 0.24774 0.00041 0.37464 0.0
H1113 H 0.23418 0.94124 0.3658 0.0
S1114 S 0.10382 0.92852 0.35137 0.0
N1115 N 0.13562 0.96818 0.35949 0.0
N1116 N 0.12094 0.90402 0.35014 0.0
C1117 C 0.15423 0.92796 0.35642 0.0
C1118 C 0.16213 0.96268 0.36159 0.0
C1119 C 0.53096 0.66845 0.33506 0.0
C1120 C 0.5206 0.65821 0.31003 0.0
C1121 C 0.55454 0.70295 0.34316 0.0
C1122 C 0.56847 0.7284 0.32657 0.0
H1123 H 0.52189 0.64954 0.34844 0.0
H1124 H 0.56321 0.70927 0.36228 0.0
S1125 S 0.54741 0.71648 0.25974 0.0
N1126 N 0.52436 0.67739 0.26903 0.0
N1127 N 0.56861 0.74212 0.28455 0.0
C1128 C 0.55731 0.71903 0.30178 0.0
C1129 C 0.53327 0.68397 0.29345 0.0
C1130 C 0.29157 0.84249 0.31223 0.0
C1131 C 0.31932 0.87545 0.30825 0.0
C1132 C 0.25925 0.8374 0.31757 0.0
C1133 C 0.25348 0.8651 0.31946 0.0
H1134 H 0.29439 0.82013 0.31035 0.0
H1135 H 0.23845 0.81138 0.31928 0.0
S1136 S 0.31766 0.95685 0.31305 0.0
N1137 N 0.339 0.93666 0.30837 0.0
N1138 N 0.27816 0.9267 0.31825 0.0
C1139 C 0.28108 0.89825 0.3164 0.0
C1140 C 0.31405 0.90357 0.31104 0.0
C1141 C 0.18477 0.48253 0.31484 0.0
C1142 C 0.15108 0.47502 0.31023 0.0
C1143 C 0.1912 0.45744 0.32262 0.0
C1144 C 0.16421 0.42371 0.32534 0.0
H1145 H 0.20633 0.50807 0.31264 0.0
H1146 H 0.21749 0.46431 0.32602 0.0
S1147 S 0.07145 0.39119 0.31649 0.0
N1148 N 0.09044 0.4317 0.30983 0.0
N1149 N 0.10265 0.38464 0.3239 0.0
C1150 C 0.1305 0.41603 0.32103 0.0
C1151 C 0.1239 0.44165 0.31361 0.0
C1152 C 0.29935 0.45454 0.3125 0.0
C1153 C 0.32789 0.45115 0.30776 0.0
C1154 C 0.26878 0.42689 0.31997 0.0
C1155 C 0.26554 0.39478 0.32267 0.0
H1156 H 0.30047 0.47859 0.31009 0.0
H1157 H 0.24718 0.43032 0.32253 0.0
S1158 S 0.33264 0.37261 0.31318 0.0
N1159 N 0.35124 0.41343 0.30726 0.0
N1160 N 0.29323 0.36114 0.32042 0.0
C1161 C 0.29391 0.39116 0.31832 0.0
C1162 C 0.32529 0.41949 0.31124 0.0
C1163 C 0.58844 0.9074 0.3164 0.0
C1164 C 0.55368 0.88139 0.31311 0.0
C1165 C 0.61354 0.89964 0.32234 0.0
C1166 C 0.60484 0.86579 0.32608 0.0
H1167 H 0.59654 0.93388 0.31359 0.0
H1168 H 0.64011 0.92035 0.32395 0.0
S1169 S 0.51752 0.78828 0.32021 0.0
N1170 N 0.51181 0.82027 0.31437 0.0
N1171 N 0.55909 0.80592 0.32577 0.0
C1172 C 0.57019 0.83957 0.32328 0.0
C1173 C 0.54458 0.84735 0.31683 0.0
C1174 C 0.18124 0.69428 0.30675 0.0
C1175 C 0.15372 0.66998 0.29074 0.0
C1176 C 0.1828 0.72443 0.31694 0.0
C1177 C 0.15702 0.73163 0.31142 0.0
H1178 H 0.20206 0.69031 0.31122 0.0
H1179 H 0.20487 0.74258 0.32878 0.0
S1180 S 0.07829 0.67534 0.27179 0.0
N1181 N 0.09915 0.65444 0.27083 0.0
N1182 N 0.10228 0.711 0.28982 0.0
C1183 C 0.12897 0.70716 0.29591 0.0
C1184 C 0.12725 0.67637 0.28566 0.0
C1185 C 0.75404 0.96969 0.40402 0.0
C1186 C 0.78779 0.98419 0.39653 0.0
C1187 C 0.72734 0.93936 0.39187 0.0
C1188 C 0.73312 0.92186 0.37176 0.0
H1189 H 0.74801 0.98196 0.41935 0.0
H1190 H 0.70195 0.92958 0.39862 0.0
S1191 S 0.81742 0.94907 0.34522 0.0
N1192 N 0.82592 0.97895 0.36786 0.0
N1193 N 0.77577 0.92166 0.34512 0.0
C1194 C 0.76688 0.93621 0.36403 0.0
C1195 C 0.79416 0.96736 0.37639 0.0
C1196 C 0.04185 0.8034 0.36602 0.0
C1197 C 0.01461 0.76978 0.36914 0.0
C1198 C 0.074 0.80944 0.35903 0.0
C1199 C 0.08015 0.78213 0.35503 0.0
H1200 H 0.0385 0.82534 0.36935 0.0
H1201 H 0.09447 0.83574 0.35775 0.0
S1202 S 0.01762 0.68938 0.35956 0.0
N1203 N 0.99594 0.7087 0.36653 0.0
N1204 N 0.05657 0.7204 0.35397 0.0
C1205 C 0.05314 0.74846 0.3576 0.0
C1206 C 0.02029 0.74218 0.36437 0.0
C1207 C 0.23386 0.25244 0.38033 0.0
C1208 C 0.20762 0.21755 0.37919 0.0
C1209 C 0.22753 0.27783 0.37322 0.0
C1210 C 0.19489 0.26919 0.36416 0.0
H1211 H 0.25948 0.2603 0.38701 0.0
H1212 H 0.24857 0.30433 0.37449 0.0
S1213 S 0.11752 0.18132 0.35697 0.0
N1214 N 0.14773 0.17558 0.3682 0.0
N1215 N 0.136 0.22313 0.35436 0.0
C1216 C 0.16848 0.23432 0.36269 0.0
C1217 C 0.17478 0.20855 0.37036 0.0
C1218 C 0.69382 0.62916 0.70458 0.0
C1219 C 0.68115 0.59378 0.70602 0.0
C1220 C 0.72781 0.65166 0.69905 0.0
C1221 C 0.75031 0.63968 0.69399 0.0
H1222 H 0.67773 0.63991 0.70852 0.0
H1223 H 0.7368 0.67892 0.69931 0.0
S1224 S 0.73022 0.5495 0.69532 0.0
N1225 N 0.69395 0.5477 0.70167 0.0
N1226 N 0.75791 0.59033 0.6915 0.0
C1227 C 0.73801 0.60437 0.69503 0.0
C1228 C 0.70336 0.58132 0.70085 0.0
C1229 C 0.43249 0.1459 0.70844 0.0
C1230 C 0.42437 0.11179 0.71098 0.0
C1231 C 0.40694 0.15334 0.70273 0.0
C1232 C 0.3724 0.1269 0.69904 0.0
H1233 H 0.45865 0.16718 0.71148 0.0
H1234 H 0.41421 0.18 0.70172 0.0
S1235 S 0.33743 0.03336 0.70202 0.0
N1236 N 0.37892 0.05123 0.70814 0.0
N1237 N 0.33138 0.06553 0.69773 0.0
C1238 C 0.36397 0.09282 0.70118 0.0
C1239 C 0.38982 0.08515 0.70687 0.0
C1240 C 0.88039 0.32049 0.7071 0.0
C1241 C 0.87223 0.32463 0.73149 0.0
C1242 C 0.87232 0.28802 0.69618 0.0
C1243 C 0.85615 0.25879 0.70939 0.0
H1244 H 0.89307 0.34246 0.69631 0.0
H1245 H 0.87967 0.28601 0.6776 0.0
S1246 S 0.82915 0.25513 0.77344 0.0
N1247 N 0.84671 0.29616 0.76835 0.0
N1248 N 0.83189 0.23537 0.74768 0.0
C1249 C 0.84776 0.26236 0.73363 0.0
C1250 C 0.85565 0.29524 0.74472 0.0
C1251 C 0.18561 0.04479 0.64196 0.0
C1252 C 0.18738 0.01481 0.63725 0.0
C1253 C 0.21477 0.07649 0.64995 0.0
C1254 C 0.24693 0.07958 0.65284 0.0
H1255 H 0.16147 0.04375 0.63959 0.0
H1256 H 0.21215 0.09883 0.65365 0.0
S1257 S 0.26527 0.00884 0.64405 0.0
N1258 N 0.2239 0.99009 0.63698 0.0
N1259 N 0.27864 0.0499 0.65164 0.0
C1260 C 0.24907 0.04987 0.64845 0.0
C1261 C 0.21929 0.01741 0.64077 0.0
C1262 C 0.96562 0.18233 0.65569 0.0
C1263 C 0.99289 0.21511 0.6507 0.0
C1264 C 0.93376 0.17743 0.66249 0.0
C1265 C 0.92797 0.20509 0.66487 0.0
H1266 H 0.96832 0.15991 0.65337 0.0
H1267 H 0.91317 0.15156 0.66476 0.0
S1268 S 0.99143 0.29659 0.65681 0.0
N1269 N 0.01236 0.27624 0.65082 0.0
N1270 N 0.95253 0.26667 0.66348 0.0
C1271 C 0.95532 0.23815 0.66111 0.0
C1272 C 0.98777 0.24327 0.65421 0.0
C1273 C 0.84289 0.81648 0.6469 0.0
C1274 C 0.80926 0.81038 0.64619 0.0
C1275 C 0.84957 0.79076 0.65279 0.0
C1276 C 0.82277 0.75786 0.65751 0.0
H1277 H 0.86423 0.84135 0.64303 0.0
H1278 H 0.87575 0.7964 0.6531 0.0
S1279 S 0.7306 0.72907 0.65924 0.0
N1280 N 0.74912 0.76917 0.65174 0.0
N1281 N 0.76182 0.72109 0.66242 0.0
C1282 C 0.78924 0.7516 0.65721 0.0
C1283 C 0.78244 0.7778 0.65164 0.0
C1284 C 0.96429 0.779 0.64828 0.0
C1285 C 0.9896 0.77036 0.64409 0.0
C1286 C 0.9305 0.7537 0.65263 0.0
C1287 C 0.92087 0.71889 0.65285 0.0
H1288 H 0.97051 0.80546 0.64796 0.0
H1289 H 0.91167 0.76131 0.65509 0.0
S1290 S 0.97693 0.68254 0.64321 0.0
N1291 N 0.00246 0.72432 0.64096 0.0
N1292 N 0.93881 0.6769 0.64857 0.0
C1293 C 0.94578 0.70989 0.64879 0.0
C1294 C 0.98024 0.73562 0.64474 0.0
C1295 C 0.2311 0.1969 0.65071 0.0
C1296 C 0.23899 0.23108 0.64904 0.0
C1297 C 0.25664 0.18952 0.65638 0.0
C1298 C 0.29107 0.21599 0.66054 0.0
H1299 H 0.20502 0.17558 0.64735 0.0
H1300 H 0.24944 0.16284 0.65668 0.0
S1301 S 0.32554 0.30965 0.65867 0.0
N1302 N 0.28402 0.2917 0.65253 0.0
N1303 N 0.33185 0.27753 0.66261 0.0
C1304 C 0.29933 0.25017 0.65901 0.0
C1305 C 0.27334 0.25781 0.65361 0.0
C1306 C 0.798 0.01776 0.62933 0.0
C1307 C 0.82327 0.00915 0.63277 0.0
C1308 C 0.80186 0.04861 0.64019 0.0
C1309 C 0.83102 0.07207 0.65512 0.0
H1310 H 0.77509 0.00075 0.61788 0.0
H1311 H 0.78173 0.05402 0.63682 0.0
S1312 S 0.90503 0.06216 0.66983 0.0
N1313 N 0.87863 0.02678 0.65223 0.0
N1314 N 0.88595 0.08477 0.67255 0.0
C1315 C 0.8564 0.0637 0.65895 0.0
C1316 C 0.85251 0.03227 0.64781 0.0
C1317 C 0.45702 0.32398 0.70514 0.0
C1318 C 0.46669 0.32896 0.73032 0.0
C1319 C 0.43124 0.29183 0.69438 0.0
C1320 C 0.41439 0.26346 0.70831 0.0
H1321 H 0.46878 0.34526 0.69368 0.0
H1322 H 0.42357 0.28964 0.67529 0.0
S1323 S 0.43107 0.26152 0.77429 0.0
N1324 N 0.45799 0.30185 0.76861 0.0
N1325 N 0.40965 0.24137 0.74804 0.0
C1326 C 0.42411 0.26762 0.73326 0.0
C1327 C 0.45034 0.30035 0.74433 0.0
C1328 C 0.71798 0.15079 0.70905 0.0
C1329 C 0.68881 0.11794 0.71108 0.0
C1330 C 0.74998 0.15474 0.70382 0.0
C1331 C 0.7541 0.12599 0.70056 0.0
H1332 H 0.71612 0.17371 0.71147 0.0
H1333 H 0.77171 0.18051 0.7028 0.0
S1334 S 0.68648 0.03459 0.70431 0.0
N1335 N 0.66655 0.05616 0.70935 0.0
N1336 N 0.72675 0.06384 0.70017 0.0
C1337 C 0.72538 0.09316 0.70281 0.0
C1338 C 0.69271 0.08903 0.70772 0.0
C1339 C 0.81965 0.56619 0.73487 0.0
C1340 C 0.82972 0.54303 0.72562 0.0
C1341 C 0.82279 0.59238 0.72119 0.0
C1342 C 0.83595 0.59642 0.69771 0.0
H1343 H 0.80936 0.56428 0.75291 0.0
H1344 H 0.81459 0.6095 0.72901 0.0
S1345 S 0.86625 0.54341 0.66481 0.0
N1346 N 0.85347 0.52611 0.69113 0.0
N1347 N 0.85947 0.57593 0.66564 0.0
C1348 C 0.84594 0.57362 0.68801 0.0
C1349 C 0.84283 0.54679 0.70194 0.0
C1350 C 0.47384 0.96588 0.1961 0.0
C1351 C 0.49485 0.96135 0.21254 0.0
C1352 C 0.48705 0.98463 0.17554 0.0
C1353 C 0.52191 -1e-05 0.17064 0.0
H1354 H 0.44693 0.95527 0.19927 0.0
H1355 H 0.47001 0.98803 0.16379 0.0
S1356 S 0.58759 0.99402 0.20652 0.0
N1357 N 0.55223 0.97244 0.22145 0.0
N1358 N 0.57688 0.00775 0.18288 0.0
C1359 C 0.54307 0.99491 0.1864 0.0
C1360 C 0.5296 0.97556 0.20727 0.0
C1361 C 0.09397 0.55271 0.18503 0.0
C1362 C 0.08438 0.53212 0.20493 0.0
C1363 C 0.0705 0.54594 0.1657 0.0
C1364 C 0.0365 0.51814 0.16533 0.0
H1365 H 0.11948 0.57513 0.18477 0.0
H1366 H 0.07884 0.56335 0.15131 0.0
S1367 S 0.99955 0.45371 0.21132 0.0
N1368 N 0.03917 0.48105 0.22205 0.0
N1369 N 0.9953 0.4679 0.18538 0.0
C1370 C 0.02694 0.49639 0.18452 0.0
C1371 C 0.05081 0.50344 0.20435 0.0
C1372 C 0.46384 0.498 0.20071 0.0
C1373 C 0.48396 0.5175 0.22199 0.0
C1374 C 0.47904 0.49457 0.17915 0.0
C1375 C 0.51489 0.51081 0.17806 0.0
H1376 H 0.43618 0.48502 0.2008 0.0
H1377 H 0.46261 0.47879 0.16332 0.0
S1378 S 0.57902 0.56839 0.2277 0.0
N1379 N 0.5417 0.55533 0.23995 0.0
N1380 N 0.57002 0.54954 0.19943 0.0
C1381 C 0.53522 0.5312 0.19898 0.0
C1382 C 0.51983 0.53438 0.22092 0.0
C1383 C 0.93078 0.45789 0.80569 0.0
C1384 C 0.91896 0.48121 0.80704 0.0
C1385 C 0.95631 0.46183 0.82234 0.0
C1386 C 0.97053 0.48888 0.8412 0.0
H1387 H 0.9192 0.43547 0.79253 0.0
H1388 H 0.9639 0.44271 0.82112 0.0
S1389 S 0.95018 0.55805 0.85204 0.0
N1390 N 0.92493 0.53341 0.82816 0.0
N1391 N 0.97237 0.54028 0.85965 0.0
C1392 C 0.95958 0.51279 0.84248 0.0
C1393 C 0.93388 0.50902 0.82541 0.0
C1394 C 0.55129 0.52035 0.82368 0.0
C1395 C 0.53607 0.49601 0.80316 0.0
C1396 C 0.53433 0.51586 0.84578 0.0
C1397 C 0.50125 0.48726 0.84788 0.0
H1398 H 0.5764 0.54309 0.82259 0.0
H1399 H 0.54673 0.53539 0.86107 0.0
S1400 S 0.44996 0.41664 0.79932 0.0
N1401 N 0.48578 0.44272 0.78623 0.0
N1402 N 0.4542 0.43407 0.82772 0.0
C1403 C 0.48591 0.46268 0.82754 0.0
C1404 C 0.50324 0.4671 0.80518 0.0
C1405 C 0.54181 0.03753 0.80564 0.0
C1406 C 0.53397 0.06324 0.80211 0.0
C1407 C 0.53049 0.01803 0.82606 0.0
C1408 C 0.51149 0.02393 0.84399 0.0
H1409 H 0.55573 0.03153 0.79209 0.0
H1410 H 0.53636 0.99792 0.82771 0.0
S1411 S 0.48602 0.08961 0.84433 0.0
N1412 N 0.5072 0.09448 0.81902 0.0
N1413 N 0.48639 0.05811 0.85737 0.0
C1414 C 0.50456 0.05035 0.84118 0.0
C1415 C 0.51564 0.06988 0.82026 0.0
C1416 C 0.14645 0.30453 0.53329 0.0
C1417 C 0.16763 0.30106 0.5503 0.0
C1418 C 0.15961 0.3226 0.51237 0.0
C1419 C 0.19459 0.33833 0.50769 0.0
H1420 H 0.11944 0.29358 0.53628 0.0
H1421 H 0.14245 0.32517 0.50016 0.0
S1422 S 0.2608 0.33517 0.54509 0.0
N1423 N 0.22539 0.31364 0.55996 0.0
N1424 N 0.24986 0.34762 0.52083 0.0
C1425 C 0.21591 0.33432 0.52405 0.0
C1426 C 0.20253 0.31569 0.54525 0.0
C1427 C 0.7049 0.8436 0.54829 0.0
C1428 C 0.73906 0.87078 0.54743 0.0
C1429 C 0.68044 0.83641 0.52954 0.0
C1430 C 0.68914 0.8563 0.50931 0.0
H1431 H 0.6969 0.82785 0.56366 0.0
H1432 H 0.65453 0.81507 0.53088 0.0
S1433 S 0.77451 0.93178 0.49902 0.0
N1434 N 0.78004 0.91824 0.52484 0.0
N1435 N 0.73395 0.90535 0.4901 0.0
C1436 C 0.72316 0.88366 0.50827 0.0
C1437 C 0.74813 0.89072 0.52718 0.0
C1438 C 0.12868 0.8187 0.54018 0.0
C1439 C 0.12395 0.8471 0.54349 0.0
C1440 C 0.14373 0.81344 0.51922 0.0
C1441 C 0.15447 0.83622 0.50065 0.0
H1442 H 0.12185 0.801 0.55428 0.0
H1443 H 0.14748 0.79164 0.51773 0.0
S1444 S 0.14619 0.9134 0.49947 0.0
N1445 N 0.12957 0.89723 0.52547 0.0
N1446 N 0.15837 0.8876 0.48647 0.0
C1447 C 0.14873 0.86394 0.50321 0.0
C1448 C 0.13335 0.8693 0.5245 0.0
C1449 C 0.59533 0.83095 0.16392 0.0
C1450 C 0.57803 0.80177 0.14685 0.0
C1451 C 0.61774 0.83274 0.18242 0.0
C1452 C 0.62368 0.80548 0.18439 0.0
H1453 H 0.59156 0.85258 0.16295 0.0
H1454 H 0.63046 0.85556 0.19532 0.0
S1455 S 0.58158 0.72172 0.14638 0.0
N1456 N 0.56578 0.7436 0.13482 0.0
N1457 N 0.60901 0.74769 0.16892 0.0
C1458 C 0.60628 0.77603 0.16769 0.0
C1459 C 0.58314 0.77398 0.14908 0.0
C1460 C 0.21064 0.84261 0.13496 0.0
C1461 C 0.2164 0.81501 0.13043 0.0
C1462 C 0.19392 0.84528 0.15582 0.0
C1463 C 0.18242 0.82057 0.1731 0.0
H1464 H 0.21812 0.86183 0.12193 0.0
H1465 H 0.18956 0.86665 0.15827 0.0
S1466 S 0.19227 0.74407 0.17067 0.0
N1467 N 0.21045 0.76321 0.14586 0.0
N1468 N 0.17863 0.76805 0.18465 0.0
C1469 C 0.18899 0.7935 0.16929 0.0
C1470 C 0.20606 0.79077 0.1481 0.0
C1471 C 0.16241 0.36852 0.14109 0.0
C1472 C 0.19741 0.38641 0.13588 0.0
C1473 C 0.1508 0.35057 0.16211 0.0
C1474 C 0.17363 0.34999 0.17913 0.0
H1475 H 0.14351 0.36777 0.1286 0.0
H1476 H 0.12359 0.33692 0.16506 0.0
S1477 S 0.26782 0.39314 0.17489 0.0
N1478 N 0.25492 0.40272 0.15002 0.0
N1479 N 0.23294 0.36918 0.18971 0.0
C1480 C 0.20873 0.36821 0.17456 0.0
C1481 C 0.22062 0.38625 0.1529 0.0
C1482 C 0.81066 0.63989 0.86848 0.0
C1483 C 0.82378 0.6195 0.87585 0.0
C1484 C 0.82313 0.65958 0.84826 0.0
C1485 C 0.84899 0.6595 0.83442 0.0
H1486 H 0.79099 0.64126 0.8787 0.0
H1487 H 0.81283 0.67543 0.84363 0.0
S1488 S 0.89099 0.6096 0.84457 0.0
N1489 N 0.86358 0.59979 0.86664 0.0
N1490 N 0.88669 0.63682 0.82864 0.0
C1491 C 0.86192 0.63887 0.84106 0.0
C1492 C 0.8494 0.61888 0.86175 0.0
C1493 C 0.35167 0.1624 0.88313 0.0
C1494 C 0.38624 0.18911 0.88569 0.0
C1495 C 0.33113 0.15793 0.86238 0.0
C1496 C 0.34431 0.18019 0.84351 0.0
H1497 H 0.3403 0.14495 0.89736 0.0
H1498 H 0.30472 0.13691 0.8611 0.0
S1499 S 0.43249 0.25565 0.84215 0.0
N1500 N 0.43243 0.23875 0.86785 0.0
N1501 N 0.39361 0.23091 0.82932 0.0
C1502 C 0.37878 0.20708 0.84591 0.0
C1503 C 0.39979 0.21138 0.86685 0.0
C1504 C 0.80891 0.15897 0.88812 0.0
C1505 C 0.79594 0.18126 0.88941 0.0
C1506 C 0.82439 0.15484 0.86704 0.0
C1507 C 0.82815 0.17335 0.84653 0.0
H1508 H 0.80773 0.14512 0.90375 0.0
H1509 H 0.83411 0.13748 0.86702 0.0
S1510 S 0.79888 0.23555 0.8409 0.0
N1511 N 0.78718 0.22159 0.86827 0.0
N1512 N 0.8176 0.21512 0.8291 0.0
C1513 C 0.81458 0.19521 0.84743 0.0
C1514 C 0.79819 0.19886 0.86874 0.0
C1515 C 0.29654 0.17034 0.486 0.0
C1516 C 0.29577 0.14664 0.46738 0.0
C1517 C 0.3142 0.17663 0.50871 0.0
C1518 C 0.33181 0.15956 0.51352 0.0
H1519 H 0.28364 0.18434 0.48299 0.0
H1520 H 0.31454 0.19534 0.52246 0.0
S1521 S 0.33536 0.0929 0.47214 0.0
N1522 N 0.31275 0.10451 0.45618 0.0
N1523 N 0.34562 0.11649 0.49872 0.0
C1524 C 0.33065 0.13533 0.49538 0.0
C1525 C 0.31273 0.12884 0.47236 0.0
C1526 C 0.89833 0.18026 0.4946 0.0
C1527 C 0.87981 0.15882 0.47343 0.0
C1528 C 0.88161 0.18088 0.51604 0.0
C1529 C 0.84573 0.16052 0.51689 0.0
H1530 H 0.92595 0.1965 0.49463 0.0
H1531 H 0.89679 0.19791 0.53191 0.0
S1532 S 0.78551 0.10109 0.46596 0.0
N1533 N 0.82363 0.11792 0.45429 0.0
N1534 N 0.79234 0.11825 0.49466 0.0
C1535 C 0.827 0.13908 0.49577 0.0
C1536 C 0.84399 0.13843 0.47403 0.0
C1537 C 0.8203 0.6977 0.46687 0.0
C1538 C 0.85574 0.71375 0.46363 0.0
C1539 C 0.80585 0.68205 0.48843 0.0
C1540 C 0.82614 0.68169 0.50777 0.0
H1541 H 0.80327 0.69615 0.45239 0.0
H1542 H 0.77838 0.66973 0.48983 0.0
S1543 S 0.92041 0.72044 0.5089 0.0
N1544 N 0.91095 0.72892 0.48214 0.0
N1545 N 0.88367 0.69897 0.52227 0.0
C1546 C 0.86168 0.69813 0.50501 0.0
C1547 C 0.87645 0.71414 0.48306 0.0
loop_
_geom_bond_atom_site_label_1
_geom_bond_atom_site_label_2
_geom_bond_distance
_geom_bond_site_symmetry_2
_ccdc_geom_bond_type
O0 Cd1 2.300 . S
O0 C7 1.275 . S
Cd1 O0 2.300 . S
Cd1 O9 2.381 . S
Cd1 O10 2.378 . S
O2 Cd3 2.385 . S
O2 C7 1.255 . S
Cd3 O2 2.385 . S
Cd3 O4 2.317 . S
O4 Cd3 2.317 . S
O4 C5 1.232 . S
C5 O4 1.232 . S
C5 O6 1.218 . S
O6 C5 1.218 . S
C7 O0 1.275 . S
C7 O2 1.255 . S
C8 O9 1.258 . S
C8 O10 1.256 . S
O9 Cd1 2.381 . S
O9 C8 1.258 . S
O10 Cd1 2.378 . S
O10 C8 1.256 . S
O11 Cd12 2.300 . S
O11 C18 1.275 . S
Cd12 O11 2.300 . S
Cd12 O20 2.381 . S
Cd12 O21 2.378 . S
O13 Cd14 2.385 . S
O13 C18 1.255 . S
Cd14 O13 2.385 . S
Cd14 O15 2.317 . S
O15 Cd14 2.317 . S
O15 C16 1.232 . S
C16 O15 1.232 . S
C16 O17 1.218 1_545 S
O17 C16 1.218 1_565 S
C18 O11 1.275 . S
C18 O13 1.255 . S
C19 O20 1.258 . S
C19 O21 1.256 . S
O20 Cd12 2.381 . S
O20 C19 1.258 . S
O21 Cd12 2.378 . S
O21 C19 1.256 . S
O22 Cd23 2.300 . S
O22 C29 1.275 . S
Cd23 O22 2.300 . S
Cd23 O31 2.381 . S
Cd23 O32 2.378 . S
O24 Cd25 2.385 . S
O24 C29 1.255 . S
Cd25 O24 2.385 . S
Cd25 O26 2.317 . S
O26 Cd25 2.317 . S
O26 C27 1.232 . S
C27 O26 1.232 . S
C27 O28 1.218 . S
O28 C27 1.218 . S
C29 O22 1.275 . S
C29 O24 1.255 . S
C30 O31 1.258 . S
C30 O32 1.256 . S
O31 Cd23 2.381 . S
O31 C30 1.258 . S
O32 Cd23 2.378 . S
O32 C30 1.256 . S
O33 Cd34 2.300 . S
O33 C40 1.275 . S
Cd34 O33 2.300 . S
Cd34 O42 2.381 . S
Cd34 O43 2.378 . S
O35 Cd36 2.385 . S
O35 C40 1.255 . S
Cd36 O35 2.385 . S
Cd36 O37 2.317 . S
O37 Cd36 2.317 . S
O37 C38 1.232 . S
C38 O37 1.232 . S
C38 O39 1.218 . S
O39 C38 1.218 . S
C40 O33 1.275 . S
C40 O35 1.255 . S
C41 O42 1.258 . S
C41 O43 1.256 . S
O42 Cd34 2.381 . S
O42 C41 1.258 . S
O43 Cd34 2.378 . S
O43 C41 1.256 . S
O44 Cd45 2.300 . S
O44 C51 1.275 . S
Cd45 O44 2.300 . S
Cd45 O53 2.381 . S
Cd45 O54 2.378 . S
O46 Cd47 2.385 . S
O46 C51 1.255 . S
Cd47 O46 2.385 . S
Cd47 O48 2.317 . S
O48 Cd47 2.317 . S
O48 C49 1.232 . S
C49 O48 1.232 . S
C49 O50 1.218 1_565 S
O50 C49 1.218 1_545 S
C51 O44 1.275 . S
C51 O46 1.255 . S
C52 O53 1.258 . S
C52 O54 1.256 . S
O53 Cd45 2.381 . S
O53 C52 1.258 . S
O54 Cd45 2.378 . S
O54 C52 1.256 . S
O55 Cd56 2.300 . S
O55 C62 1.275 . S
Cd56 O55 2.300 . S
Cd56 O64 2.381 . S
Cd56 O65 2.378 . S
O57 Cd58 2.385 . S
O57 C62 1.255 . S
Cd58 O57 2.385 . S
Cd58 O59 2.317 . S
O59 Cd58 2.317 . S
O59 C60 1.232 . S
C60 O59 1.232 . S
C60 O61 1.218 . S
O61 C60 1.218 . S
C62 O55 1.275 . S
C62 O57 1.255 . S
C63 O64 1.258 . S
C63 O65 1.256 . S
O64 Cd56 2.381 . S
O64 C63 1.258 . S
O65 Cd56 2.378 . S
O65 C63 1.256 . S
O66 Cd67 2.300 . S
O66 C73 1.275 . S
Cd67 O66 2.300 . S
Cd67 O75 2.381 . S
Cd67 O76 2.378 . S
O68 Cd69 2.385 . S
O68 C73 1.255 . S
Cd69 O68 2.385 . S
Cd69 O70 2.317 . S
O70 Cd69 2.317 . S
O70 C71 1.232 . S
C71 O70 1.232 . S
C71 O72 1.218 . S
O72 C71 1.218 . S
C73 O66 1.275 . S
C73 O68 1.255 . S
C74 O75 1.258 . S
C74 O76 1.256 . S
O75 Cd67 2.381 . S
O75 C74 1.258 . S
O76 Cd67 2.378 . S
O76 C74 1.256 . S
O77 Cd78 2.300 . S
O77 C84 1.275 . S
Cd78 O77 2.300 . S
Cd78 O86 2.381 . S
Cd78 O87 2.378 . S
O79 Cd80 2.385 . S
O79 C84 1.255 . S
Cd80 O79 2.385 . S
Cd80 O81 2.317 . S
O81 Cd80 2.317 . S
O81 C82 1.232 . S
C82 O81 1.232 . S
C82 O83 1.218 . S
O83 C82 1.218 . S
C84 O77 1.275 . S
C84 O79 1.255 . S
C85 O86 1.258 . S
C85 O87 1.256 . S
O86 Cd78 2.381 . S
O86 C85 1.258 . S
O87 Cd78 2.378 . S
O87 C85 1.256 . S
O88 Cd89 2.300 . S
O88 C95 1.275 . S
Cd89 O88 2.300 . S
Cd89 O97 2.381 . S
Cd89 O98 2.378 . S
O90 Cd91 2.385 . S
O90 C95 1.255 . S
Cd91 O90 2.385 . S
Cd91 O92 2.317 . S
O92 Cd91 2.317 . S
O92 C93 1.232 . S
C93 O92 1.232 . S
C93 O94 1.218 . S
O94 C93 1.218 . S
C95 O88 1.275 . S
C95 O90 1.255 . S
C96 O97 1.258 . S
C96 O98 1.256 . S
O97 Cd89 2.381 . S
O97 C96 1.258 . S
O98 Cd89 2.378 . S
O98 C96 1.256 . S
O99 Cd100 2.300 . S
O99 C106 1.275 . S
Cd100 O99 2.300 . S
Cd100 O108 2.381 . S
Cd100 O109 2.378 . S
O101 Cd102 2.385 . S
O101 C106 1.255 . S
Cd102 O101 2.385 . S
Cd102 O103 2.317 . S
O103 Cd102 2.317 . S
O103 C104 1.232 . S
C104 O103 1.232 . S
C104 O105 1.218 . S
O105 C104 1.218 . S
C106 O99 1.275 . S
C106 O101 1.255 . S
C107 O108 1.258 . S
C107 O109 1.256 . S
O108 Cd100 2.381 . S
O108 C107 1.258 . S
O109 Cd100 2.378 . S
O109 C107 1.256 . S
O110 Cd111 2.300 . S
O110 C117 1.275 . S
Cd111 O110 2.300 . S
Cd111 O119 2.381 . S
Cd111 O120 2.378 . S
O112 Cd113 2.385 . S
O112 C117 1.255 . S
Cd113 O112 2.385 . S
Cd113 O114 2.317 . S
O114 Cd113 2.317 . S
O114 C115 1.232 . S
C115 O114 1.232 . S
C115 O116 1.218 . S
O116 C115 1.218 . S
C117 O110 1.275 . S
C117 O112 1.255 . S
C118 O119 1.258 . S
C118 O120 1.256 . S
O119 Cd111 2.381 . S
O119 C118 1.258 . S
O120 Cd111 2.378 . S
O120 C118 1.256 . S
O121 Cd122 2.300 . S
O121 C128 1.275 . S
Cd122 O121 2.300 . S
Cd122 O130 2.381 . S
Cd122 O131 2.378 . S
O123 Cd124 2.385 . S
O123 C128 1.255 . S
Cd124 O123 2.385 . S
Cd124 O125 2.317 . S
O125 Cd124 2.317 . S
O125 C126 1.232 . S
C126 O125 1.232 . S
C126 O127 1.218 . S
O127 C126 1.218 . S
C128 O121 1.275 . S
C128 O123 1.255 . S
C129 O130 1.258 . S
C129 O131 1.256 . S
O130 Cd122 2.381 . S
O130 C129 1.258 . S
O131 Cd122 2.378 . S
O131 C129 1.256 . S
O132 Cd133 2.300 . S
O132 C139 1.275 . S
Cd133 O132 2.300 . S
Cd133 O141 2.381 . S
Cd133 O142 2.378 . S
O134 Cd135 2.385 . S
O134 C139 1.255 . S
Cd135 O134 2.385 . S
Cd135 O136 2.317 . S
O136 Cd135 2.317 . S
O136 C137 1.232 . S
C137 O136 1.232 . S
C137 O138 1.218 . S
O138 C137 1.218 . S
C139 O132 1.275 . S
C139 O134 1.255 . S
C140 O141 1.258 . S
C140 O142 1.256 . S
O141 Cd133 2.381 . S
O141 C140 1.258 . S
O142 Cd133 2.378 . S
O142 C140 1.256 . S
O143 Cd144 2.300 . S
O143 C150 1.275 . S
Cd144 O143 2.300 . S
Cd144 O152 2.381 . S
Cd144 O153 2.378 . S
O145 Cd146 2.385 . S
O145 C150 1.255 . S
Cd146 O145 2.385 . S
Cd146 O147 2.317 . S
O147 Cd146 2.317 . S
O147 C148 1.232 . S
C148 O147 1.232 . S
C148 O149 1.218 . S
O149 C148 1.218 . S
C150 O143 1.275 . S
C150 O145 1.255 . S
C151 O152 1.258 . S
C151 O153 1.256 . S
O152 Cd144 2.381 . S
O152 C151 1.258 . S
O153 Cd144 2.378 . S
O153 C151 1.256 . S
O154 Cd155 2.300 . S
O154 C161 1.275 . S
Cd155 O154 2.300 . S
Cd155 O163 2.381 . S
Cd155 O164 2.378 . S
O156 Cd157 2.385 . S
O156 C161 1.255 . S
Cd157 O156 2.385 . S
Cd157 O158 2.317 . S
O158 Cd157 2.317 . S
O158 C159 1.232 . S
C159 O158 1.232 . S
C159 O160 1.218 . S
O160 C159 1.218 . S
C161 O154 1.275 . S
C161 O156 1.255 . S
C162 O163 1.258 . S
C162 O164 1.256 . S
O163 Cd155 2.381 . S
O163 C162 1.258 . S
O164 Cd155 2.378 . S
O164 C162 1.256 . S
O165 Cd166 2.300 . S
O165 C172 1.275 . S
Cd166 O165 2.300 . S
Cd166 O174 2.381 . S
Cd166 O175 2.378 . S
O167 Cd168 2.385 . S
O167 C172 1.255 . S
Cd168 O167 2.385 . S
Cd168 O169 2.317 . S
O169 Cd168 2.317 . S
O169 C170 1.232 . S
C170 O169 1.232 . S
C170 O171 1.218 . S
O171 C170 1.218 . S
C172 O165 1.275 . S
C172 O167 1.255 . S
C173 O174 1.258 . S
C173 O175 1.256 . S
O174 Cd166 2.381 . S
O174 C173 1.258 . S
O175 Cd166 2.378 . S
O175 C173 1.256 . S
O176 Cd177 2.300 . S
O176 C183 1.275 . S
Cd177 O176 2.300 . S
Cd177 O185 2.381 . S
Cd177 O186 2.378 . S
O178 Cd179 2.385 . S
O178 C183 1.255 . S
Cd179 O178 2.385 . S
Cd179 O180 2.317 . S
O180 Cd179 2.317 . S
O180 C181 1.232 . S
C181 O180 1.232 . S
C181 O182 1.218 . S
O182 C181 1.218 . S
C183 O176 1.275 . S
C183 O178 1.255 . S
C184 O185 1.258 . S
C184 O186 1.256 . S
O185 Cd177 2.381 . S
O185 C184 1.258 . S
O186 Cd177 2.378 . S
O186 C184 1.256 . S
O187 Cd188 2.300 . S
O187 C194 1.275 . S
Cd188 O187 2.300 . S
Cd188 O196 2.381 . S
Cd188 O197 2.378 . S
O189 Cd190 2.385 . S
O189 C194 1.255 . S
Cd190 O189 2.385 . S
Cd190 O191 2.317 . S
O191 Cd190 2.317 . S
O191 C192 1.232 . S
C192 O191 1.232 . S
C192 O193 1.218 . S
O193 C192 1.218 . S
C194 O187 1.275 . S
C194 O189 1.255 . S
C195 O196 1.258 . S
C195 O197 1.256 . S
O196 Cd188 2.381 . S
O196 C195 1.258 . S
O197 Cd188 2.378 . S
O197 C195 1.256 . S
Tb198 N229 2.660 . S
Tb198 N236 2.600 . S
Tb198 O242 2.546 . S
Tb198 O243 2.610 1_566 S
Tb198 O245 2.320 1_565 S
Tb198 O246 2.552 1_565 S
Tb198 O247 2.395 1_565 S
Tb198 O249 2.362 1_556 S
Tb198 O250 2.421 . S
Tb198 C262 2.833 . S
C199 C202 1.432 . S
C199 C203 1.414 . S
C199 N206 1.359 . S
C200 C202 1.417 . S
C200 C204 1.432 . S
C200 C212 1.410 . S
C201 C203 1.444 . S
C201 C204 1.317 . S
C201 H224 0.929 . S
C202 C199 1.432 . S
C202 C200 1.417 . S
C202 N210 1.360 . S
C203 C199 1.414 . S
C203 C201 1.444 . S
C203 C208 1.385 . S
C204 C200 1.432 . S
C204 C201 1.317 . S
C204 H216 0.930 . S
C205 C207 1.392 . S
C205 C208 1.370 . S
C205 H217 0.931 . S
N206 C199 1.359 . S
N206 C207 1.327 . S
N206 Tb209 2.600 . S
C207 C205 1.392 . S
C207 N206 1.327 . S
C207 H214 0.930 . S
C208 C203 1.385 . S
C208 C205 1.370 . S
C208 H227 0.930 . S
Tb209 N206 2.600 . S
Tb209 N210 2.660 . S
Tb209 O243 2.362 . S
Tb209 O244 2.421 . S
Tb209 O248 2.546 . S
Tb209 O249 2.610 1_545 S
Tb209 O251 2.320 1_545 S
Tb209 O252 2.552 1_545 S
Tb209 O253 2.413 . S
Tb209 C273 2.833 . S
N210 C202 1.360 . S
N210 Tb209 2.660 . S
N210 C211 1.305 . S
C211 N210 1.305 . S
C211 C213 1.407 . S
C211 H218 0.930 . S
C212 C200 1.410 . S
C212 C213 1.345 . S
C212 H220 0.930 . S
C213 C211 1.407 . S
C213 C212 1.345 . S
C213 H215 0.930 . S
H214 C207 0.930 . S
H215 C213 0.930 . S
H216 C204 0.930 . S
H217 C205 0.931 . S
H218 C211 0.930 . S
H219 C233 0.930 . S
H220 C212 0.930 . S
H221 C239 0.930 . S
H222 C230 0.930 . S
H223 C237 0.931 . S
H224 C201 0.929 . S
H225 C231 0.930 . S
H226 C264 0.930 . S
H227 C208 0.930 . S
H228 C263 0.929 . S
N229 Tb198 2.660 . S
N229 C230 1.305 . S
N229 C234 1.360 . S
C230 H222 0.930 . S
C230 N229 1.305 . S
C230 C233 1.407 . S
C231 H225 0.930 . S
C231 C232 1.410 . S
C231 C233 1.345 . S
C232 C231 1.410 . S
C232 C234 1.417 . S
C232 C264 1.432 . S
C233 H219 0.930 . S
C233 C230 1.407 . S
C233 C231 1.345 . S
C234 N229 1.360 . S
C234 C232 1.417 . S
C234 C238 1.432 . S
H235 C240 0.930 . S
N236 Tb198 2.600 . S
N236 C238 1.359 . S
N236 C239 1.327 . S
C237 H223 0.931 . S
C237 C239 1.392 . S
C237 C240 1.370 . S
C238 C234 1.432 . S
C238 N236 1.359 . S
C238 C241 1.414 . S
C239 H221 0.930 . S
C239 N236 1.327 . S
C239 C237 1.392 . S
C240 H235 0.930 . S
C240 C237 1.370 . S
C240 C241 1.385 . S
C241 C238 1.414 . S
C241 C240 1.385 . S
C241 C263 1.444 . S
O242 Tb198 2.546 . S
O242 C262 1.251 . S
O243 Tb198 2.610 1_544 S
O243 Tb209 2.362 . S
O243 C254 1.283 1_554 S
O244 Tb209 2.421 . S
O244 C261 1.262 1_554 S
O245 Tb198 2.320 1_545 S
O245 C261 1.260 . S
O246 Tb198 2.552 1_545 S
O246 C254 1.243 . S
O247 Tb198 2.395 1_545 S
O247 C262 1.227 1_545 S
O248 Tb209 2.546 . S
O248 C273 1.251 . S
O249 Tb198 2.362 1_554 S
O249 Tb209 2.610 1_565 S
O249 C265 1.283 . S
O250 Tb198 2.421 . S
O250 C272 1.262 1_556 S
O251 Tb209 2.320 1_565 S
O251 C272 1.260 . S
O252 Tb209 2.552 1_565 S
O252 C265 1.243 . S
O253 Tb209 2.413 . S
O253 C273 1.256 . S
C254 O243 1.283 1_556 S
C254 O246 1.243 . S
C255 C257 1.382 1_565 S
C255 C259 1.393 . S
C255 C262 1.500 . S
C256 C257 1.400 . S
C256 C258 1.384 . S
C257 C255 1.382 1_545 S
C257 C256 1.400 . S
C257 H274 0.930 . S
C258 C256 1.384 . S
C258 C260 1.392 1_545 S
C258 H275 0.931 . S
C259 C255 1.393 . S
C259 C260 1.401 . S
C259 H276 0.930 . S
C260 C258 1.392 1_565 S
C260 C259 1.401 . S
C260 H277 0.930 . S
C261 O244 1.262 1_556 S
C261 O245 1.260 . S
C262 Tb198 2.833 . S
C262 O242 1.251 . S
C262 O247 1.227 1_565 S
C262 C255 1.500 . S
C263 H228 0.929 . S
C263 C241 1.444 . S
C263 C264 1.317 . S
C264 H226 0.930 . S
C264 C232 1.432 . S
C264 C263 1.317 . S
C265 O249 1.283 . S
C265 O252 1.243 . S
C266 C267 1.382 1_545 S
C266 C270 1.393 . S
C266 C273 1.500 . S
C267 C266 1.382 1_565 S
C267 C268 1.400 . S
C267 H278 0.930 . S
C268 C267 1.400 . S
C268 C269 1.384 . S
C269 C268 1.384 . S
C269 C271 1.392 1_565 S
C269 H279 0.931 . S
C270 C266 1.393 . S
C270 C271 1.401 . S
C270 H280 0.930 . S
C271 C269 1.392 1_545 S
C271 C270 1.401 . S
C271 H281 0.930 . S
C272 O250 1.262 1_554 S
C272 O251 1.260 . S
C273 Tb209 2.833 . S
C273 O248 1.251 . S
C273 O253 1.256 . S
C273 C266 1.500 . S
H274 C257 0.930 . S
H275 C258 0.931 . S
H276 C259 0.930 . S
H277 C260 0.930 . S
H278 C267 0.930 . S
H279 C269 0.931 . S
H280 C270 0.930 . S
H281 C271 0.930 . S
Tb282 N313 2.660 . S
Tb282 N320 2.600 . S
Tb282 O326 2.546 . S
Tb282 O327 2.610 1_456 S
Tb282 O329 2.320 1_455 S
Tb282 O330 2.552 1_455 S
Tb282 O331 2.413 1_455 S
Tb282 O333 2.362 1_556 S
Tb282 O334 2.409 1_556 S
Tb282 C346 2.833 . S
C283 C286 1.432 . S
C283 C287 1.414 . S
C283 N290 1.359 . S
C284 C286 1.417 . S
C284 C288 1.432 . S
C284 C296 1.410 . S
C285 C287 1.444 . S
C285 C288 1.317 . S
C285 H308 0.929 . S
C286 C283 1.432 . S
C286 C284 1.417 . S
C286 N294 1.360 . S
C287 C283 1.414 . S
C287 C285 1.444 . S
C287 C292 1.385 . S
C288 C284 1.432 . S
C288 C285 1.317 . S
C288 H300 0.930 . S
C289 C291 1.392 . S
C289 C292 1.370 . S
C289 H301 0.931 . S
N290 C283 1.359 . S
N290 C291 1.327 . S
N290 Tb293 2.600 . S
C291 C289 1.392 . S
C291 N290 1.327 . S
C291 H298 0.930 . S
C292 C287 1.385 . S
C292 C289 1.370 . S
C292 H311 0.930 . S
Tb293 N290 2.600 . S
Tb293 N294 2.660 . S
Tb293 O327 2.362 . S
Tb293 O328 2.421 . S
Tb293 O332 2.546 . S
Tb293 O333 2.610 1_655 S
Tb293 O335 2.320 1_655 S
Tb293 O336 2.552 1_655 S
Tb293 O337 2.413 1_655 S
Tb293 C357 2.833 . S
N294 C286 1.360 . S
N294 Tb293 2.660 . S
N294 C295 1.305 . S
C295 N294 1.305 . S
C295 C297 1.407 . S
C295 H302 0.930 1_655 S
C296 C284 1.410 . S
C296 C297 1.345 . S
C296 H304 0.930 . S
C297 C295 1.407 . S
C297 C296 1.345 . S
C297 H299 0.930 . S
H298 C291 0.930 . S
H299 C297 0.930 . S
H300 C288 0.930 . S
H301 C289 0.931 . S
H302 C295 0.930 1_455 S
H303 C317 0.930 . S
H304 C296 0.930 . S
H305 C323 0.930 . S
H306 C314 0.930 1_655 S
H307 C321 0.931 . S
H308 C285 0.929 . S
H309 C315 0.930 . S
H310 C348 0.930 . S
H311 C292 0.930 . S
H312 C347 0.929 . S
N313 Tb282 2.660 . S
N313 C314 1.305 . S
N313 C318 1.360 . S
C314 H306 0.930 1_455 S
C314 N313 1.305 . S
C314 C317 1.407 . S
C315 H309 0.930 . S
C315 C316 1.410 . S
C315 C317 1.345 . S
C316 C315 1.410 . S
C316 C318 1.417 . S
C316 C348 1.432 . S
C317 H303 0.930 . S
C317 C314 1.407 . S
C317 C315 1.345 . S
C318 N313 1.360 . S
C318 C316 1.417 . S
C318 C322 1.432 . S
H319 C324 0.930 . S
N320 Tb282 2.600 . S
N320 C322 1.359 . S
N320 C323 1.327 . S
C321 H307 0.931 . S
C321 C323 1.392 . S
C321 C324 1.370 . S
C322 C318 1.432 . S
C322 N320 1.359 . S
C322 C325 1.414 . S
C323 H305 0.930 . S
C323 N320 1.327 . S
C323 C321 1.392 . S
C324 H319 0.930 . S
C324 C321 1.370 . S
C324 C325 1.385 . S
C325 C322 1.414 . S
C325 C324 1.385 . S
C325 C347 1.444 . S
O326 Tb282 2.546 . S
O326 C346 1.251 . S
O327 Tb282 2.610 1_654 S
O327 Tb293 2.362 . S
O327 C338 1.283 1_554 S
O328 Tb293 2.421 . S
O328 C345 1.262 1_554 S
O329 Tb282 2.320 1_655 S
O329 C345 1.260 . S
O330 Tb282 2.552 1_655 S
O330 C338 1.243 . S
O331 Tb282 2.413 1_655 S
O331 C346 1.256 1_655 S
O332 Tb293 2.546 . S
O332 C357 1.251 . S
O333 Tb282 2.362 1_554 S
O333 Tb293 2.610 1_455 S
O333 C349 1.283 . S
O334 Tb282 2.409 1_554 S
O334 C356 1.288 . S
O335 Tb293 2.320 1_455 S
O335 C356 1.260 . S
O336 Tb293 2.552 1_455 S
O336 C349 1.243 . S
O337 Tb293 2.413 1_455 S
O337 C357 1.256 1_455 S
C338 O327 1.283 1_556 S
C338 O330 1.243 . S
C339 C341 1.382 . S
C339 C343 1.393 1_655 S
C339 C346 1.500 1_655 S
C340 C341 1.400 . S
C340 C342 1.384 . S
C341 C339 1.382 . S
C341 C340 1.400 . S
C341 H358 0.930 . S
C342 C340 1.384 . S
C342 C344 1.392 1_655 S
C342 H359 0.931 . S
C343 C339 1.393 1_455 S
C343 C344 1.401 . S
C343 H360 0.930 . S
C344 C342 1.392 1_455 S
C344 C343 1.401 . S
C344 H361 0.930 . S
C345 O328 1.262 1_556 S
C345 O329 1.260 . S
C346 Tb282 2.833 . S
C346 O326 1.251 . S
C346 O331 1.256 1_455 S
C346 C339 1.500 1_455 S
C347 H312 0.929 . S
C347 C325 1.444 . S
C347 C348 1.317 . S
C348 H310 0.930 . S
C348 C316 1.432 . S
C348 C347 1.317 . S
C349 O333 1.283 . S
C349 O336 1.243 . S
C350 C351 1.382 . S
C350 C354 1.393 1_455 S
C350 C357 1.500 1_455 S
C351 C350 1.382 . S
C351 C352 1.400 . S
C351 H362 0.930 . S
C352 C351 1.400 . S
C352 C353 1.384 . S
C353 C352 1.384 . S
C353 C355 1.392 1_455 S
C353 H363 0.931 . S
C354 C350 1.393 1_655 S
C354 C355 1.401 . S
C354 H364 0.930 . S
C355 C353 1.392 1_655 S
C355 C354 1.401 . S
C355 H365 0.930 . S
C356 O334 1.288 . S
C356 O335 1.260 . S
C357 Tb293 2.833 . S
C357 O332 1.251 . S
C357 O337 1.256 1_655 S
C357 C350 1.500 1_655 S
H358 C341 0.930 . S
H359 C342 0.931 . S
H360 C343 0.930 . S
H361 C344 0.930 . S
H362 C351 0.930 . S
H363 C353 0.931 . S
H364 C354 0.930 . S
H365 C355 0.930 . S
Tb366 N397 2.660 . S
Tb366 N404 2.600 . S
Tb366 O410 2.546 . S
Tb366 O411 2.610 . S
Tb366 O413 2.320 . S
Tb366 O414 2.552 . S
Tb366 O415 2.413 . S
Tb366 O417 2.368 . S
Tb366 O418 2.421 . S
Tb366 C430 2.833 . S
C367 C370 1.432 . S
C367 C371 1.414 . S
C367 N374 1.359 . S
C368 C370 1.417 . S
C368 C372 1.432 . S
C368 C380 1.410 . S
C369 C371 1.444 . S
C369 C372 1.317 . S
C369 H392 0.929 . S
C370 C367 1.432 . S
C370 C368 1.417 . S
C370 N378 1.360 . S
C371 C367 1.414 . S
C371 C369 1.444 . S
C371 C376 1.385 . S
C372 C368 1.432 . S
C372 C369 1.317 . S
C372 H384 0.930 . S
C373 C375 1.392 . S
C373 C376 1.370 . S
C373 H385 0.931 . S
N374 C367 1.359 . S
N374 C375 1.327 . S
N374 Tb377 2.600 . S
C375 C373 1.392 . S
C375 N374 1.327 . S
C375 H382 0.930 . S
C376 C371 1.385 . S
C376 C373 1.370 . S
C376 H395 0.930 . S
Tb377 N374 2.600 . S
Tb377 N378 2.660 . S
Tb377 O411 2.362 1_556 S
Tb377 O412 2.421 . S
Tb377 O416 2.546 . S
Tb377 O417 2.605 1_556 S
Tb377 O419 2.320 . S
Tb377 O420 2.552 . S
Tb377 O421 2.413 . S
Tb377 C441 2.833 . S
N378 C370 1.360 . S
N378 Tb377 2.660 . S
N378 C379 1.305 . S
C379 N378 1.305 . S
C379 C381 1.407 . S
C379 H386 0.930 . S
C380 C368 1.410 . S
C380 C381 1.345 . S
C380 H388 0.930 . S
C381 C379 1.407 . S
C381 C380 1.345 . S
C381 H383 0.930 . S
H382 C375 0.930 . S
H383 C381 0.930 . S
H384 C372 0.930 . S
H385 C373 0.931 . S
H386 C379 0.930 . S
H387 C401 0.930 . S
H388 C380 0.930 . S
H389 C407 0.930 . S
H390 C398 0.930 . S
H391 C405 0.931 . S
H392 C369 0.929 . S
H393 C399 0.930 . S
H394 C432 0.930 . S
H395 C376 0.930 . S
H396 C431 0.929 . S
N397 Tb366 2.660 . S
N397 C398 1.305 . S
N397 C402 1.360 . S
C398 H390 0.930 . S
C398 N397 1.305 . S
C398 C401 1.407 . S
C399 H393 0.930 . S
C399 C400 1.410 . S
C399 C401 1.345 . S
C400 C399 1.410 . S
C400 C402 1.417 . S
C400 C432 1.432 . S
C401 H387 0.930 . S
C401 C398 1.407 . S
C401 C399 1.345 . S
C402 N397 1.360 . S
C402 C400 1.417 . S
C402 C406 1.432 . S
H403 C408 0.930 . S
N404 Tb366 2.600 . S
N404 C406 1.359 . S
N404 C407 1.327 . S
C405 H391 0.931 . S
C405 C407 1.392 . S
C405 C408 1.370 . S
C406 C402 1.432 . S
C406 N404 1.359 . S
C406 C409 1.414 . S
C407 H389 0.930 . S
C407 N404 1.327 . S
C407 C405 1.392 . S
C408 H403 0.930 . S
C408 C405 1.370 . S
C408 C409 1.385 . S
C409 C406 1.414 . S
C409 C408 1.385 . S
C409 C431 1.444 . S
O410 Tb366 2.546 . S
O410 C430 1.251 . S
O411 Tb366 2.610 . S
O411 Tb377 2.362 1_554 S
O411 C422 1.283 . S
O412 Tb377 2.421 . S
O412 C429 1.262 1_556 S
O413 Tb366 2.320 . S
O413 C429 1.260 . S
O414 Tb366 2.552 . S
O414 C422 1.243 . S
O415 Tb366 2.413 . S
O415 C430 1.256 . S
O416 Tb377 2.546 . S
O416 C441 1.251 . S
O417 Tb366 2.368 . S
O417 Tb377 2.605 1_554 S
O417 C433 1.278 1_554 S
O418 Tb366 2.421 . S
O418 C440 1.262 1_554 S
O419 Tb377 2.320 . S
O419 C440 1.260 . S
O420 Tb377 2.552 . S
O420 C433 1.243 . S
O421 Tb377 2.413 . S
O421 C441 1.256 . S
C422 O411 1.283 . S
C422 O414 1.243 . S
C423 C425 1.382 . S
C423 C427 1.393 . S
C423 C430 1.500 . S
C424 C425 1.400 . S
C424 C426 1.384 . S
C425 C423 1.382 . S
C425 C424 1.400 . S
C425 H442 0.930 . S
C426 C424 1.384 . S
C426 C428 1.392 . S
C426 H443 0.931 . S
C427 C423 1.393 . S
C427 C428 1.401 . S
C427 H444 0.930 . S
C428 C426 1.392 . S
C428 C427 1.401 . S
C428 H445 0.930 . S
C429 O412 1.262 1_554 S
C429 O413 1.260 . S
C430 Tb366 2.833 . S
C430 O410 1.251 . S
C430 O415 1.256 . S
C430 C423 1.500 . S
C431 H396 0.929 . S
C431 C409 1.444 . S
C431 C432 1.317 . S
C432 H394 0.930 . S
C432 C400 1.432 . S
C432 C431 1.317 . S
C433 O417 1.278 1_556 S
C433 O420 1.243 . S
C434 C435 1.382 . S
C434 C438 1.393 . S
C434 C441 1.500 . S
C435 C434 1.382 . S
C435 C436 1.400 . S
C435 H446 0.930 . S
C436 C435 1.400 . S
C436 C437 1.384 . S
C437 C436 1.384 . S
C437 C439 1.392 . S
C437 H447 0.931 . S
C438 C434 1.393 . S
C438 C439 1.401 . S
C438 H448 0.930 . S
C439 C437 1.392 . S
C439 C438 1.401 . S
C439 H449 0.930 . S
C440 O418 1.262 1_556 S
C440 O419 1.260 . S
C441 Tb377 2.833 . S
C441 O416 1.251 . S
C441 O421 1.256 . S
C441 C434 1.500 . S
H442 C425 0.930 . S
H443 C426 0.931 . S
H444 C427 0.930 . S
H445 C428 0.930 . S
H446 C435 0.930 . S
H447 C437 0.931 . S
H448 C438 0.930 . S
H449 C439 0.930 . S
Tb450 N481 2.660 . S
Tb450 N488 2.600 . S
Tb450 O494 2.546 . S
Tb450 O495 2.610 . S
Tb450 O497 2.320 . S
Tb450 O498 2.552 . S
Tb450 O499 2.413 . S
Tb450 O501 2.362 . S
Tb450 O502 2.421 . S
Tb450 C514 2.833 . S
C451 C454 1.432 . S
C451 C455 1.414 . S
C451 N458 1.359 . S
C452 C454 1.417 . S
C452 C456 1.432 . S
C452 C464 1.410 . S
C453 C455 1.444 . S
C453 C456 1.317 . S
C453 H476 0.929 . S
C454 C451 1.432 . S
C454 C452 1.417 . S
C454 N462 1.360 . S
C455 C451 1.414 . S
C455 C453 1.444 . S
C455 C460 1.385 . S
C456 C452 1.432 . S
C456 C453 1.317 . S
C456 H468 0.930 . S
C457 C459 1.392 . S
C457 C460 1.370 . S
C457 H469 0.931 . S
N458 C451 1.359 . S
N458 C459 1.327 . S
N458 Tb461 2.600 . S
C459 C457 1.392 . S
C459 N458 1.327 . S
C459 H466 0.930 . S
C460 C455 1.385 . S
C460 C457 1.370 . S
C460 H479 0.930 . S
Tb461 N458 2.600 . S
Tb461 N462 2.660 . S
Tb461 O495 2.362 . S
Tb461 O496 2.421 . S
Tb461 O500 2.546 . S
Tb461 O501 2.610 . S
Tb461 O503 2.320 . S
Tb461 O504 2.552 . S
Tb461 O505 2.413 . S
Tb461 C525 2.833 . S
N462 C454 1.360 . S
N462 Tb461 2.660 . S
N462 C463 1.305 . S
C463 N462 1.305 . S
C463 C465 1.407 . S
C463 H470 0.930 . S
C464 C452 1.410 . S
C464 C465 1.345 . S
C464 H472 0.930 . S
C465 C463 1.407 . S
C465 C464 1.345 . S
C465 H467 0.930 . S
H466 C459 0.930 . S
H467 C465 0.930 . S
H468 C456 0.930 . S
H469 C457 0.931 . S
H470 C463 0.930 . S
H471 C485 0.930 . S
H472 C464 0.930 . S
H473 C491 0.930 . S
H474 C482 0.930 . S
H475 C489 0.931 . S
H476 C453 0.929 . S
H477 C483 0.930 1_655 S
H478 C516 0.930 1_655 S
H479 C460 0.930 . S
H480 C515 0.929 . S
N481 Tb450 2.660 . S
N481 C482 1.305 . S
N481 C486 1.360 . S
C482 H474 0.930 . S
C482 N481 1.305 . S
C482 C485 1.407 . S
C483 H477 0.930 1_455 S
C483 C484 1.410 . S
C483 C485 1.345 . S
C484 C483 1.410 . S
C484 C486 1.417 . S
C484 C516 1.432 . S
C485 H471 0.930 . S
C485 C482 1.407 . S
C485 C483 1.345 . S
C486 N481 1.360 . S
C486 C484 1.417 . S
C486 C490 1.432 . S
H487 C492 0.930 . S
N488 Tb450 2.600 . S
N488 C490 1.359 . S
N488 C491 1.327 . S
C489 H475 0.931 . S
C489 C491 1.392 . S
C489 C492 1.370 . S
C490 C486 1.432 . S
C490 N488 1.359 . S
C490 C493 1.414 . S
C491 H473 0.930 . S
C491 N488 1.327 . S
C491 C489 1.392 . S
C492 H487 0.930 . S
C492 C489 1.370 . S
C492 C493 1.385 . S
C493 C490 1.414 . S
C493 C492 1.385 . S
C493 C515 1.444 . S
O494 Tb450 2.546 . S
O494 C514 1.251 . S
O495 Tb450 2.610 . S
O495 Tb461 2.362 . S
O495 C506 1.283 . S
O496 Tb461 2.421 . S
O496 C513 1.262 . S
O497 Tb450 2.320 . S
O497 C513 1.260 . S
O498 Tb450 2.552 . S
O498 C506 1.243 . S
O499 Tb450 2.413 . S
O499 C514 1.256 . S
O500 Tb461 2.546 . S
O500 C525 1.251 . S
O501 Tb450 2.362 . S
O501 Tb461 2.610 . S
O501 C517 1.283 . S
O502 Tb450 2.421 . S
O502 C524 1.262 . S
O503 Tb461 2.320 . S
O503 C524 1.260 . S
O504 Tb461 2.552 . S
O504 C517 1.243 . S
O505 Tb461 2.413 . S
O505 C525 1.256 . S
C506 O495 1.283 . S
C506 O498 1.243 . S
C507 C509 1.382 . S
C507 C511 1.393 . S
C507 C514 1.500 . S
C508 C509 1.400 . S
C508 C510 1.384 . S
C509 C507 1.382 . S
C509 C508 1.400 . S
C509 H526 0.930 . S
C510 C508 1.384 . S
C510 C512 1.392 . S
C510 H527 0.931 . S
C511 C507 1.393 . S
C511 C512 1.401 . S
C511 H528 0.930 . S
C512 C510 1.392 . S
C512 C511 1.401 . S
C512 H529 0.930 . S
C513 O496 1.262 . S
C513 O497 1.260 . S
C514 Tb450 2.833 . S
C514 O494 1.251 . S
C514 O499 1.256 . S
C514 C507 1.500 . S
C515 H480 0.929 . S
C515 C493 1.444 . S
C515 C516 1.317 . S
C516 H478 0.930 1_455 S
C516 C484 1.432 . S
C516 C515 1.317 . S
C517 O501 1.283 . S
C517 O504 1.243 . S
C518 C519 1.382 . S
C518 C522 1.393 . S
C518 C525 1.500 . S
C519 C518 1.382 . S
C519 C520 1.400 . S
C519 H530 0.930 . S
C520 C519 1.400 . S
C520 C521 1.384 . S
C521 C520 1.384 . S
C521 C523 1.392 . S
C521 H531 0.931 . S
C522 C518 1.393 . S
C522 C523 1.401 . S
C522 H532 0.930 . S
C523 C521 1.392 . S
C523 C522 1.401 . S
C523 H533 0.930 . S
C524 O502 1.262 . S
C524 O503 1.260 . S
C525 Tb461 2.833 . S
C525 O500 1.251 . S
C525 O505 1.256 . S
C525 C518 1.500 . S
H526 C509 0.930 . S
H527 C510 0.931 . S
H528 C511 0.930 . S
H529 C512 0.930 . S
H530 C519 0.930 . S
H531 C521 0.931 . S
H532 C522 0.930 . S
H533 C523 0.930 . S
Tb534 N565 2.660 . S
Tb534 N572 2.600 . S
Tb534 O578 2.546 . S
Tb534 O579 2.610 . S
Tb534 O581 2.320 . S
Tb534 O582 2.552 . S
Tb534 O583 2.413 . S
Tb534 O585 2.362 . S
Tb534 O586 2.421 . S
Tb534 C598 2.833 . S
C535 C538 1.432 . S
C535 C539 1.414 . S
C535 N542 1.359 . S
C536 C538 1.417 . S
C536 C540 1.432 . S
C536 C548 1.410 . S
C537 C539 1.444 . S
C537 C540 1.317 . S
C537 H560 0.929 . S
C538 C535 1.432 . S
C538 C536 1.417 . S
C538 N546 1.360 . S
C539 C535 1.414 . S
C539 C537 1.444 . S
C539 C544 1.385 . S
C540 C536 1.432 . S
C540 C537 1.317 . S
C540 H552 0.930 . S
C541 C543 1.392 . S
C541 C544 1.370 . S
C541 H553 0.931 . S
N542 C535 1.359 . S
N542 C543 1.327 . S
N542 Tb545 2.600 . S
C543 C541 1.392 . S
C543 N542 1.327 . S
C543 H550 0.930 . S
C544 C539 1.385 . S
C544 C541 1.370 . S
C544 H563 0.930 . S
Tb545 N542 2.600 . S
Tb545 N546 2.660 . S
Tb545 O579 2.362 . S
Tb545 O580 2.421 . S
Tb545 O584 2.546 . S
Tb545 O585 2.610 . S
Tb545 O587 2.320 . S
Tb545 O588 2.552 . S
Tb545 O589 2.413 . S
Tb545 C609 2.833 . S
N546 C538 1.360 . S
N546 Tb545 2.660 . S
N546 C547 1.305 . S
C547 N546 1.305 . S
C547 C549 1.407 . S
C547 H554 0.930 . S
C548 C536 1.410 . S
C548 C549 1.345 . S
C548 H556 0.930 . S
C549 C547 1.407 . S
C549 C548 1.345 . S
C549 H551 0.930 . S
H550 C543 0.930 . S
H551 C549 0.930 . S
H552 C540 0.930 . S
H553 C541 0.931 . S
H554 C547 0.930 . S
H555 C569 0.930 . S
H556 C548 0.930 . S
H557 C575 0.930 . S
H558 C566 0.930 . S
H559 C573 0.931 . S
H560 C537 0.929 . S
H561 C567 0.930 . S
H562 C600 0.930 . S
H563 C544 0.930 . S
H564 C599 0.929 . S
N565 Tb534 2.660 . S
N565 C566 1.305 . S
N565 C570 1.360 . S
C566 H558 0.930 . S
C566 N565 1.305 . S
C566 C569 1.407 . S
C567 H561 0.930 . S
C567 C568 1.410 . S
C567 C569 1.345 . S
C568 C567 1.410 . S
C568 C570 1.417 . S
C568 C600 1.432 . S
C569 H555 0.930 . S
C569 C566 1.407 . S
C569 C567 1.345 . S
C570 N565 1.360 . S
C570 C568 1.417 . S
C570 C574 1.432 . S
H571 C576 0.930 . S
N572 Tb534 2.600 . S
N572 C574 1.359 . S
N572 C575 1.327 . S
C573 H559 0.931 . S
C573 C575 1.392 . S
C573 C576 1.370 . S
C574 C570 1.432 . S
C574 N572 1.359 . S
C574 C577 1.414 . S
C575 H557 0.930 . S
C575 N572 1.327 . S
C575 C573 1.392 . S
C576 H571 0.930 . S
C576 C573 1.370 . S
C576 C577 1.385 . S
C577 C574 1.414 . S
C577 C576 1.385 . S
C577 C599 1.444 . S
O578 Tb534 2.546 . S
O578 C598 1.251 . S
O579 Tb534 2.610 . S
O579 Tb545 2.362 . S
O579 C590 1.283 . S
O580 Tb545 2.421 . S
O580 C597 1.262 . S
O581 Tb534 2.320 . S
O581 C597 1.260 . S
O582 Tb534 2.552 . S
O582 C590 1.243 . S
O583 Tb534 2.413 . S
O583 C598 1.256 . S
O584 Tb545 2.546 . S
O584 C609 1.251 . S
O585 Tb534 2.362 . S
O585 Tb545 2.610 . S
O585 C601 1.283 . S
O586 Tb534 2.421 . S
O586 C608 1.262 . S
O587 Tb545 2.320 . S
O587 C608 1.260 . S
O588 Tb545 2.552 . S
O588 C601 1.243 . S
O589 Tb545 2.413 . S
O589 C609 1.256 . S
C590 O579 1.283 . S
C590 O582 1.243 . S
C591 C593 1.382 . S
C591 C595 1.393 . S
C591 C598 1.500 . S
C592 C593 1.400 . S
C592 C594 1.384 . S
C593 C591 1.382 . S
C593 C592 1.400 . S
C593 H610 0.930 . S
C594 C592 1.384 . S
C594 C596 1.392 . S
C594 H611 0.931 . S
C595 C591 1.393 . S
C595 C596 1.401 . S
C595 H612 0.930 . S
C596 C594 1.392 . S
C596 C595 1.401 . S
C596 H613 0.930 . S
C597 O580 1.262 . S
C597 O581 1.260 . S
C598 Tb534 2.833 . S
C598 O578 1.251 . S
C598 O583 1.256 . S
C598 C591 1.500 . S
C599 H564 0.929 . S
C599 C577 1.444 . S
C599 C600 1.317 . S
C600 H562 0.930 . S
C600 C568 1.432 . S
C600 C599 1.317 . S
C601 O585 1.283 . S
C601 O588 1.243 . S
C602 C603 1.382 . S
C602 C606 1.393 . S
C602 C609 1.500 . S
C603 C602 1.382 . S
C603 C604 1.400 . S
C603 H614 0.930 . S
C604 C603 1.400 . S
C604 C605 1.384 . S
C605 C604 1.384 . S
C605 C607 1.392 . S
C605 H615 0.931 . S
C606 C602 1.393 . S
C606 C607 1.401 . S
C606 H616 0.930 . S
C607 C605 1.392 . S
C607 C606 1.401 . S
C607 H617 0.930 . S
C608 O586 1.262 . S
C608 O587 1.260 . S
C609 Tb545 2.833 . S
C609 O584 1.251 . S
C609 O589 1.256 . S
C609 C602 1.500 . S
H610 C593 0.930 . S
H611 C594 0.931 . S
H612 C595 0.930 . S
H613 C596 0.930 . S
H614 C603 0.930 . S
H615 C605 0.931 . S
H616 C606 0.930 . S
H617 C607 0.930 . S
Tb618 N649 2.660 . S
Tb618 N656 2.600 . S
Tb618 O662 2.546 . S
Tb618 O663 2.610 . S
Tb618 O665 2.320 . S
Tb618 O666 2.552 . S
Tb618 O667 2.413 . S
Tb618 O669 2.362 . S
Tb618 O670 2.421 . S
Tb618 C682 2.833 . S
C619 C622 1.432 . S
C619 C623 1.414 . S
C619 N626 1.359 . S
C620 C622 1.417 . S
C620 C624 1.432 . S
C620 C632 1.410 . S
C621 C623 1.444 . S
C621 C624 1.317 . S
C621 H644 0.929 . S
C622 C619 1.432 . S
C622 C620 1.417 . S
C622 N630 1.360 . S
C623 C619 1.414 . S
C623 C621 1.444 . S
C623 C628 1.385 . S
C624 C620 1.432 . S
C624 C621 1.317 . S
C624 H636 0.930 . S
C625 C627 1.392 . S
C625 C628 1.370 . S
C625 H637 0.931 . S
N626 C619 1.359 . S
N626 C627 1.327 . S
N626 Tb629 2.600 . S
C627 C625 1.392 . S
C627 N626 1.327 . S
C627 H634 0.930 . S
C628 C623 1.385 . S
C628 C625 1.370 . S
C628 H647 0.930 . S
Tb629 N626 2.600 . S
Tb629 N630 2.660 . S
Tb629 O663 2.362 . S
Tb629 O664 2.421 . S
Tb629 O668 2.546 . S
Tb629 O669 2.610 . S
Tb629 O671 2.320 . S
Tb629 O672 2.552 . S
Tb629 O673 2.413 . S
Tb629 C693 2.833 . S
N630 C622 1.360 . S
N630 Tb629 2.660 . S
N630 C631 1.305 . S
C631 N630 1.305 . S
C631 C633 1.407 . S
C631 H638 0.930 . S
C632 C620 1.410 . S
C632 C633 1.345 . S
C632 H640 0.930 . S
C633 C631 1.407 . S
C633 C632 1.345 . S
C633 H635 0.930 . S
H634 C627 0.930 . S
H635 C633 0.930 . S
H636 C624 0.930 . S
H637 C625 0.931 . S
H638 C631 0.930 . S
H639 C653 0.930 . S
H640 C632 0.930 . S
H641 C659 0.930 . S
H642 C650 0.930 . S
H643 C657 0.931 . S
H644 C621 0.929 . S
H645 C651 0.930 . S
H646 C684 0.930 . S
H647 C628 0.930 . S
H648 C683 0.929 . S
N649 Tb618 2.660 . S
N649 C650 1.305 . S
N649 C654 1.360 . S
C650 H642 0.930 . S
C650 N649 1.305 . S
C650 C653 1.407 . S
C651 H645 0.930 . S
C651 C652 1.410 . S
C651 C653 1.345 . S
C652 C651 1.410 . S
C652 C654 1.417 . S
C652 C684 1.432 . S
C653 H639 0.930 . S
C653 C650 1.407 . S
C653 C651 1.345 . S
C654 N649 1.360 . S
C654 C652 1.417 . S
C654 C658 1.432 . S
H655 C660 0.930 . S
N656 Tb618 2.600 . S
N656 C658 1.359 . S
N656 C659 1.327 . S
C657 H643 0.931 . S
C657 C659 1.392 . S
C657 C660 1.370 . S
C658 C654 1.432 . S
C658 N656 1.359 . S
C658 C661 1.414 . S
C659 H641 0.930 . S
C659 N656 1.327 . S
C659 C657 1.392 . S
C660 H655 0.930 . S
C660 C657 1.370 . S
C660 C661 1.385 . S
C661 C658 1.414 . S
C661 C660 1.385 . S
C661 C683 1.444 . S
O662 Tb618 2.546 . S
O662 C682 1.251 . S
O663 Tb618 2.610 . S
O663 Tb629 2.362 . S
O663 C674 1.283 . S
O664 Tb629 2.421 . S
O664 C681 1.262 . S
O665 Tb618 2.320 . S
O665 C681 1.260 . S
O666 Tb618 2.552 . S
O666 C674 1.243 . S
O667 Tb618 2.413 . S
O667 C682 1.256 . S
O668 Tb629 2.546 . S
O668 C693 1.251 . S
O669 Tb618 2.362 . S
O669 Tb629 2.610 . S
O669 C685 1.283 . S
O670 Tb618 2.421 . S
O670 C692 1.262 . S
O671 Tb629 2.320 . S
O671 C692 1.260 . S
O672 Tb629 2.552 . S
O672 C685 1.243 . S
O673 Tb629 2.413 . S
O673 C693 1.256 . S
C674 O663 1.283 . S
C674 O666 1.243 . S
C675 C677 1.382 . S
C675 C679 1.393 . S
C675 C682 1.500 . S
C676 C677 1.400 . S
C676 C678 1.384 . S
C677 C675 1.382 . S
C677 C676 1.400 . S
C677 H694 0.930 . S
C678 C676 1.384 . S
C678 C680 1.392 . S
C678 H695 0.931 . S
C679 C675 1.393 . S
C679 C680 1.401 . S
C679 H696 0.930 . S
C680 C678 1.392 . S
C680 C679 1.401 . S
C680 H697 0.930 . S
C681 O664 1.262 . S
C681 O665 1.260 . S
C682 Tb618 2.833 . S
C682 O662 1.251 . S
C682 O667 1.256 . S
C682 C675 1.500 . S
C683 H648 0.929 . S
C683 C661 1.444 . S
C683 C684 1.317 . S
C684 H646 0.930 . S
C684 C652 1.432 . S
C684 C683 1.317 . S
C685 O669 1.283 . S
C685 O672 1.243 . S
C686 C687 1.382 . S
C686 C690 1.393 . S
C686 C693 1.500 . S
C687 C686 1.382 . S
C687 C688 1.400 . S
C687 H698 0.930 . S
C688 C687 1.400 . S
C688 C689 1.384 . S
C689 C688 1.384 . S
C689 C691 1.392 . S
C689 H699 0.931 . S
C690 C686 1.393 . S
C690 C691 1.401 . S
C690 H700 0.930 . S
C691 C689 1.392 . S
C691 C690 1.401 . S
C691 H701 0.930 . S
C692 O670 1.262 . S
C692 O671 1.260 . S
C693 Tb629 2.833 . S
C693 O668 1.251 . S
C693 O673 1.256 . S
C693 C686 1.500 . S
H694 C677 0.930 . S
H695 C678 0.931 . S
H696 C679 0.930 . S
H697 C680 0.930 . S
H698 C687 0.930 . S
H699 C689 0.931 . S
H700 C690 0.930 . S
H701 C691 0.930 . S
Tb702 N733 2.660 . S
Tb702 N740 2.600 . S
Tb702 O746 2.546 . S
Tb702 O747 2.610 . S
Tb702 O749 2.320 . S
Tb702 O750 2.552 . S
Tb702 O751 2.413 . S
Tb702 O753 2.362 . S
Tb702 O754 2.421 . S
Tb702 C766 2.833 . S
C703 C706 1.432 . S
C703 C707 1.414 . S
C703 N710 1.359 . S
C704 C706 1.417 . S
C704 C708 1.432 . S
C704 C716 1.410 . S
C705 C707 1.444 . S
C705 C708 1.317 . S
C705 H728 0.929 . S
C706 C703 1.432 . S
C706 C704 1.417 . S
C706 N714 1.360 . S
C707 C703 1.414 . S
C707 C705 1.444 . S
C707 C712 1.385 . S
C708 C704 1.432 . S
C708 C705 1.317 . S
C708 H720 0.930 . S
C709 C711 1.392 . S
C709 C712 1.370 . S
C709 H721 0.931 . S
N710 C703 1.359 . S
N710 C711 1.327 . S
N710 Tb713 2.600 . S
C711 C709 1.392 . S
C711 N710 1.327 . S
C711 H718 0.930 . S
C712 C707 1.385 . S
C712 C709 1.370 . S
C712 H731 0.930 . S
Tb713 N710 2.600 . S
Tb713 N714 2.660 . S
Tb713 O747 2.362 . S
Tb713 O748 2.421 . S
Tb713 O752 2.546 . S
Tb713 O753 2.610 . S
Tb713 O755 2.320 . S
Tb713 O756 2.552 . S
Tb713 O757 2.413 . S
Tb713 C777 2.833 . S
N714 C706 1.360 . S
N714 Tb713 2.660 . S
N714 C715 1.305 . S
C715 N714 1.305 . S
C715 C717 1.407 . S
C715 H722 0.930 . S
C716 C704 1.410 . S
C716 C717 1.345 . S
C716 H724 0.930 . S
C717 C715 1.407 . S
C717 C716 1.345 . S
C717 H719 0.930 . S
H718 C711 0.930 . S
H719 C717 0.930 . S
H720 C708 0.930 . S
H721 C709 0.931 . S
H722 C715 0.930 . S
H723 C737 0.930 . S
H724 C716 0.930 . S
H725 C743 0.930 . S
H726 C734 0.930 . S
H727 C741 0.931 . S
H728 C705 0.929 . S
H729 C735 0.930 . S
H730 C768 0.930 . S
H731 C712 0.930 . S
H732 C767 0.929 . S
N733 Tb702 2.660 . S
N733 C734 1.305 . S
N733 C738 1.360 . S
C734 H726 0.930 . S
C734 N733 1.305 . S
C734 C737 1.407 . S
C735 H729 0.930 . S
C735 C736 1.410 . S
C735 C737 1.345 . S
C736 C735 1.410 . S
C736 C738 1.417 . S
C736 C768 1.432 . S
C737 H723 0.930 . S
C737 C734 1.407 . S
C737 C735 1.345 . S
C738 N733 1.360 . S
C738 C736 1.417 . S
C738 C742 1.432 . S
H739 C744 0.930 . S
N740 Tb702 2.600 . S
N740 C742 1.359 . S
N740 C743 1.327 . S
C741 H727 0.931 . S
C741 C743 1.392 . S
C741 C744 1.370 . S
C742 C738 1.432 . S
C742 N740 1.359 . S
C742 C745 1.414 . S
C743 H725 0.930 . S
C743 N740 1.327 . S
C743 C741 1.392 . S
C744 H739 0.930 . S
C744 C741 1.370 . S
C744 C745 1.385 . S
C745 C742 1.414 . S
C745 C744 1.385 . S
C745 C767 1.444 . S
O746 Tb702 2.546 . S
O746 C766 1.251 . S
O747 Tb702 2.610 . S
O747 Tb713 2.362 . S
O747 C758 1.283 . S
O748 Tb713 2.421 . S
O748 C765 1.262 . S
O749 Tb702 2.320 . S
O749 C765 1.260 . S
O750 Tb702 2.552 . S
O750 C758 1.243 . S
O751 Tb702 2.413 . S
O751 C766 1.256 . S
O752 Tb713 2.546 . S
O752 C777 1.251 . S
O753 Tb702 2.362 . S
O753 Tb713 2.610 . S
O753 C769 1.283 . S
O754 Tb702 2.421 . S
O754 C776 1.262 . S
O755 Tb713 2.320 . S
O755 C776 1.260 . S
O756 Tb713 2.552 . S
O756 C769 1.243 . S
O757 Tb713 2.413 . S
O757 C777 1.256 . S
C758 O747 1.283 . S
C758 O750 1.243 . S
C759 C761 1.382 . S
C759 C763 1.393 . S
C759 C766 1.500 . S
C760 C761 1.400 . S
C760 C762 1.384 . S
C761 C759 1.382 . S
C761 C760 1.400 . S
C761 H778 0.930 . S
C762 C760 1.384 . S
C762 C764 1.392 . S
C762 H779 0.931 . S
C763 C759 1.393 . S
C763 C764 1.401 . S
C763 H780 0.930 . S
C764 C762 1.392 . S
C764 C763 1.401 . S
C764 H781 0.930 . S
C765 O748 1.262 . S
C765 O749 1.260 . S
C766 Tb702 2.833 . S
C766 O746 1.251 . S
C766 O751 1.256 . S
C766 C759 1.500 . S
C767 H732 0.929 . S
C767 C745 1.444 . S
C767 C768 1.317 . S
C768 H730 0.930 . S
C768 C736 1.432 . S
C768 C767 1.317 . S
C769 O753 1.283 . S
C769 O756 1.243 . S
C770 C771 1.382 . S
C770 C774 1.393 . S
C770 C777 1.500 . S
C771 C770 1.382 . S
C771 C772 1.400 . S
C771 H782 0.930 . S
C772 C771 1.400 . S
C772 C773 1.384 . S
C773 C772 1.384 . S
C773 C775 1.392 . S
C773 H783 0.931 . S
C774 C770 1.393 . S
C774 C775 1.401 . S
C774 H784 0.930 . S
C775 C773 1.392 . S
C775 C774 1.401 . S
C775 H785 0.930 . S
C776 O754 1.262 . S
C776 O755 1.260 . S
C777 Tb713 2.833 . S
C777 O752 1.251 . S
C777 O757 1.256 . S
C777 C770 1.500 . S
H778 C761 0.930 . S
H779 C762 0.931 . S
H780 C763 0.930 . S
H781 C764 0.930 . S
H782 C771 0.930 . S
H783 C773 0.931 . S
H784 C774 0.930 . S
H785 C775 0.930 . S
Tb786 N817 2.660 . S
Tb786 N824 2.600 . S
Tb786 O830 2.546 . S
Tb786 O831 2.610 . S
Tb786 O833 2.320 . S
Tb786 O834 2.552 . S
Tb786 O835 2.413 . S
Tb786 O837 2.362 . S
Tb786 O838 2.421 . S
Tb786 C850 2.833 . S
C787 C790 1.432 . S
C787 C791 1.414 . S
C787 N794 1.359 . S
C788 C790 1.417 . S
C788 C792 1.432 . S
C788 C800 1.410 . S
C789 C791 1.444 . S
C789 C792 1.317 . S
C789 H812 0.929 . S
C790 C787 1.432 . S
C790 C788 1.417 . S
C790 N798 1.360 . S
C791 C787 1.414 . S
C791 C789 1.444 . S
C791 C796 1.385 . S
C792 C788 1.432 . S
C792 C789 1.317 . S
C792 H804 0.930 . S
C793 C795 1.392 . S
C793 C796 1.370 . S
C793 H805 0.931 . S
N794 C787 1.359 . S
N794 C795 1.327 . S
N794 Tb797 2.600 . S
C795 C793 1.392 . S
C795 N794 1.327 . S
C795 H802 0.930 . S
C796 C791 1.385 . S
C796 C793 1.370 . S
C796 H815 0.930 . S
Tb797 N794 2.600 . S
Tb797 N798 2.660 . S
Tb797 O831 2.362 . S
Tb797 O832 2.421 . S
Tb797 O836 2.546 . S
Tb797 O837 2.610 . S
Tb797 O839 2.320 . S
Tb797 O840 2.552 . S
Tb797 O841 2.413 . S
Tb797 C861 2.833 . S
N798 C790 1.360 . S
N798 Tb797 2.660 . S
N798 C799 1.305 . S
C799 N798 1.305 . S
C799 C801 1.407 . S
C799 H806 0.930 . S
C800 C788 1.410 . S
C800 C801 1.345 . S
C800 H808 0.930 . S
C801 C799 1.407 . S
C801 C800 1.345 . S
C801 H803 0.930 . S
H802 C795 0.930 . S
H803 C801 0.930 . S
H804 C792 0.930 . S
H805 C793 0.931 . S
H806 C799 0.930 . S
H807 C821 0.930 . S
H808 C800 0.930 . S
H809 C827 0.930 . S
H810 C818 0.930 . S
H811 C825 0.931 . S
H812 C789 0.929 . S
H813 C819 0.930 . S
H814 C852 0.930 . S
H815 C796 0.930 . S
H816 C851 0.929 . S
N817 Tb786 2.660 . S
N817 C818 1.305 . S
N817 C822 1.360 . S
C818 H810 0.930 . S
C818 N817 1.305 . S
C818 C821 1.407 . S
C819 H813 0.930 . S
C819 C820 1.410 . S
C819 C821 1.345 . S
C820 C819 1.410 . S
C820 C822 1.417 . S
C820 C852 1.432 . S
C821 H807 0.930 . S
C821 C818 1.407 . S
C821 C819 1.345 . S
C822 N817 1.360 . S
C822 C820 1.417 . S
C822 C826 1.432 . S
H823 C828 0.930 . S
N824 Tb786 2.600 . S
N824 C826 1.359 . S
N824 C827 1.327 . S
C825 H811 0.931 . S
C825 C827 1.392 . S
C825 C828 1.370 . S
C826 C822 1.432 . S
C826 N824 1.359 . S
C826 C829 1.414 . S
C827 H809 0.930 . S
C827 N824 1.327 . S
C827 C825 1.392 . S
C828 H823 0.930 . S
C828 C825 1.370 . S
C828 C829 1.385 . S
C829 C826 1.414 . S
C829 C828 1.385 . S
C829 C851 1.444 . S
O830 Tb786 2.546 . S
O830 C850 1.251 . S
O831 Tb786 2.610 . S
O831 Tb797 2.362 . S
O831 C842 1.283 . S
O832 Tb797 2.421 . S
O832 C849 1.262 . S
O833 Tb786 2.320 . S
O833 C849 1.260 . S
O834 Tb786 2.552 . S
O834 C842 1.243 . S
O835 Tb786 2.413 . S
O835 C850 1.256 . S
O836 Tb797 2.546 . S
O836 C861 1.251 . S
O837 Tb786 2.362 . S
O837 Tb797 2.610 . S
O837 C853 1.283 . S
O838 Tb786 2.421 . S
O838 C860 1.262 . S
O839 Tb797 2.320 . S
O839 C860 1.260 . S
O840 Tb797 2.552 . S
O840 C853 1.243 . S
O841 Tb797 2.413 . S
O841 C861 1.256 . S
C842 O831 1.283 . S
C842 O834 1.243 . S
C843 C845 1.382 . S
C843 C847 1.393 . S
C843 C850 1.500 . S
C844 C845 1.400 . S
C844 C846 1.384 . S
C845 C843 1.382 . S
C845 C844 1.400 . S
C845 H862 0.930 . S
C846 C844 1.384 . S
C846 C848 1.392 . S
C846 H863 0.931 . S
C847 C843 1.393 . S
C847 C848 1.401 . S
C847 H864 0.930 . S
C848 C846 1.392 . S
C848 C847 1.401 . S
C848 H865 0.930 . S
C849 O832 1.262 . S
C849 O833 1.260 . S
C850 Tb786 2.833 . S
C850 O830 1.251 . S
C850 O835 1.256 . S
C850 C843 1.500 . S
C851 H816 0.929 . S
C851 C829 1.444 . S
C851 C852 1.317 . S
C852 H814 0.930 . S
C852 C820 1.432 . S
C852 C851 1.317 . S
C853 O837 1.283 . S
C853 O840 1.243 . S
C854 C855 1.382 . S
C854 C858 1.393 . S
C854 C861 1.500 . S
C855 C854 1.382 . S
C855 C856 1.400 . S
C855 H866 0.930 . S
C856 C855 1.400 . S
C856 C857 1.384 . S
C857 C856 1.384 . S
C857 C859 1.392 . S
C857 H867 0.931 . S
C858 C854 1.393 . S
C858 C859 1.401 . S
C858 H868 0.930 . S
C859 C857 1.392 . S
C859 C858 1.401 . S
C859 H869 0.930 . S
C860 O838 1.262 . S
C860 O839 1.260 . S
C861 Tb797 2.833 . S
C861 O836 1.251 . S
C861 O841 1.256 . S
C861 C854 1.500 . S
H862 C845 0.930 . S
H863 C846 0.931 . S
H864 C847 0.930 . S
H865 C848 0.930 . S
H866 C855 0.930 . S
H867 C857 0.931 . S
H868 C858 0.930 . S
H869 C859 0.930 . S
Tb870 N901 2.660 . S
Tb870 N908 2.600 . S
Tb870 O914 2.546 . S
Tb870 O915 2.610 . S
Tb870 O917 2.320 . S
Tb870 O918 2.552 . S
Tb870 O919 2.413 . S
Tb870 O921 2.362 . S
Tb870 O922 2.421 . S
Tb870 C934 2.833 . S
C871 C874 1.432 . S
C871 C875 1.414 . S
C871 N878 1.359 . S
C872 C874 1.417 . S
C872 C876 1.432 . S
C872 C884 1.410 . S
C873 C875 1.444 . S
C873 C876 1.317 . S
C873 H896 0.929 . S
C874 C871 1.432 . S
C874 C872 1.417 . S
C874 N882 1.360 . S
C875 C871 1.414 . S
C875 C873 1.444 . S
C875 C880 1.385 . S
C876 C872 1.432 . S
C876 C873 1.317 . S
C876 H888 0.930 . S
C877 C879 1.392 . S
C877 C880 1.370 . S
C877 H889 0.931 . S
N878 C871 1.359 . S
N878 C879 1.327 . S
N878 Tb881 2.600 . S
C879 C877 1.392 . S
C879 N878 1.327 . S
C879 H886 0.930 . S
C880 C875 1.385 . S
C880 C877 1.370 . S
C880 H899 0.930 . S
Tb881 N878 2.600 . S
Tb881 N882 2.660 . S
Tb881 O915 2.362 . S
Tb881 O916 2.421 . S
Tb881 O920 2.546 . S
Tb881 O921 2.610 . S
Tb881 O923 2.320 . S
Tb881 O924 2.552 . S
Tb881 O925 2.413 . S
Tb881 C945 2.833 . S
N882 C874 1.360 . S
N882 Tb881 2.660 . S
N882 C883 1.305 . S
C883 N882 1.305 . S
C883 C885 1.407 . S
C883 H890 0.930 . S
C884 C872 1.410 . S
C884 C885 1.345 . S
C884 H892 0.930 . S
C885 C883 1.407 . S
C885 C884 1.345 . S
C885 H887 0.930 . S
H886 C879 0.930 . S
H887 C885 0.930 . S
H888 C876 0.930 . S
H889 C877 0.931 . S
H890 C883 0.930 . S
H891 C905 0.930 . S
H892 C884 0.930 . S
H893 C911 0.930 . S
H894 C902 0.930 . S
H895 C909 0.931 . S
H896 C873 0.929 . S
H897 C903 0.930 1_455 S
H898 C936 0.930 1_455 S
H899 C880 0.930 . S
H900 C935 0.929 . S
N901 Tb870 2.660 . S
N901 C902 1.305 . S
N901 C906 1.360 . S
C902 H894 0.930 . S
C902 N901 1.305 . S
C902 C905 1.407 . S
C903 H897 0.930 1_655 S
C903 C904 1.410 . S
C903 C905 1.345 . S
C904 C903 1.410 . S
C904 C906 1.417 . S
C904 C936 1.432 . S
C905 H891 0.930 . S
C905 C902 1.407 . S
C905 C903 1.345 . S
C906 N901 1.360 . S
C906 C904 1.417 . S
C906 C910 1.432 . S
H907 C912 0.930 . S
N908 Tb870 2.600 . S
N908 C910 1.359 . S
N908 C911 1.327 . S
C909 H895 0.931 . S
C909 C911 1.392 . S
C909 C912 1.370 . S
C910 C906 1.432 . S
C910 N908 1.359 . S
C910 C913 1.414 . S
C911 H893 0.930 . S
C911 N908 1.327 . S
C911 C909 1.392 . S
C912 H907 0.930 . S
C912 C909 1.370 . S
C912 C913 1.385 . S
C913 C910 1.414 . S
C913 C912 1.385 . S
C913 C935 1.444 . S
O914 Tb870 2.546 . S
O914 C934 1.251 . S
O915 Tb870 2.610 . S
O915 Tb881 2.362 . S
O915 C926 1.283 . S
O916 Tb881 2.421 . S
O916 C933 1.262 . S
O917 Tb870 2.320 . S
O917 C933 1.260 . S
O918 Tb870 2.552 . S
O918 C926 1.243 . S
O919 Tb870 2.413 . S
O919 C934 1.256 . S
O920 Tb881 2.546 . S
O920 C945 1.251 . S
O921 Tb870 2.362 . S
O921 Tb881 2.610 . S
O921 C937 1.283 . S
O922 Tb870 2.421 . S
O922 C944 1.262 . S
O923 Tb881 2.320 . S
O923 C944 1.260 . S
O924 Tb881 2.552 . S
O924 C937 1.243 . S
O925 Tb881 2.413 . S
O925 C945 1.256 . S
C926 O915 1.283 . S
C926 O918 1.243 . S
C927 C929 1.382 . S
C927 C931 1.393 . S
C927 C934 1.500 . S
C928 C929 1.400 . S
C928 C930 1.384 . S
C929 C927 1.382 . S
C929 C928 1.400 . S
C929 H946 0.930 . S
C930 C928 1.384 . S
C930 C932 1.392 . S
C930 H947 0.931 . S
C931 C927 1.393 . S
C931 C932 1.401 . S
C931 H948 0.930 . S
C932 C930 1.392 . S
C932 C931 1.401 . S
C932 H949 0.930 . S
C933 O916 1.262 . S
C933 O917 1.260 . S
C934 Tb870 2.833 . S
C934 O914 1.251 . S
C934 O919 1.256 . S
C934 C927 1.500 . S
C935 H900 0.929 . S
C935 C913 1.444 . S
C935 C936 1.317 . S
C936 H898 0.930 1_655 S
C936 C904 1.432 . S
C936 C935 1.317 . S
C937 O921 1.283 . S
C937 O924 1.243 . S
C938 C939 1.382 . S
C938 C942 1.393 . S
C938 C945 1.500 . S
C939 C938 1.382 . S
C939 C940 1.400 . S
C939 H950 0.930 . S
C940 C939 1.400 . S
C940 C941 1.384 . S
C941 C940 1.384 . S
C941 C943 1.392 . S
C941 H951 0.931 . S
C942 C938 1.393 . S
C942 C943 1.401 . S
C942 H952 0.930 . S
C943 C941 1.392 . S
C943 C942 1.401 . S
C943 H953 0.930 . S
C944 O922 1.262 . S
C944 O923 1.260 . S
C945 Tb881 2.833 . S
C945 O920 1.251 . S
C945 O925 1.256 . S
C945 C938 1.500 . S
H946 C929 0.930 . S
H947 C930 0.931 . S
H948 C931 0.930 . S
H949 C932 0.930 . S
H950 C939 0.930 . S
H951 C941 0.931 . S
H952 C942 0.930 . S
H953 C943 0.930 . S
C954 C955 1.369 . S
C954 C956 1.419 . S
C954 H958 0.930 . S
C955 C954 1.369 . S
C955 C964 1.429 . S
C956 C954 1.419 . S
C956 C957 1.363 . S
C956 H959 0.929 . S
C957 C956 1.363 . S
C957 C963 1.428 . S
H958 C954 0.930 . S
H959 C956 0.929 . S
S960 N961 1.613 . S
S960 N962 1.610 . S
N961 S960 1.613 . S
N961 C964 1.350 . S
N962 S960 1.610 . S
N962 C963 1.351 . S
C963 C957 1.428 . S
C963 N962 1.351 . S
C963 C964 1.434 . S
C964 C955 1.429 . S
C964 N961 1.350 . S
C964 C963 1.434 . S
C965 C966 1.369 . S
C965 C967 1.419 . S
C965 H969 0.930 . S
C966 C965 1.369 . S
C966 C975 1.429 . S
C967 C965 1.419 . S
C967 C968 1.363 . S
C967 H970 0.929 . S
C968 C967 1.363 . S
C968 C974 1.428 . S
H969 C965 0.930 . S
H970 C967 0.929 . S
S971 N972 1.613 1_556 S
S971 N973 1.610 1_556 S
N972 S971 1.613 1_554 S
N972 C975 1.350 . S
N973 S971 1.610 1_554 S
N973 C974 1.351 . S
C974 C968 1.428 . S
C974 N973 1.351 . S
C974 C975 1.434 . S
C975 C966 1.429 . S
C975 N972 1.350 . S
C975 C974 1.434 . S
C976 C977 1.369 . S
C976 C978 1.419 . S
C976 H980 0.930 . S
C977 C976 1.369 . S
C977 C986 1.429 . S
C978 C976 1.419 . S
C978 C979 1.363 . S
C978 H981 0.929 . S
C979 C978 1.363 . S
C979 C985 1.428 . S
H980 C976 0.930 . S
H981 C978 0.929 . S
S982 N983 1.613 . S
S982 N984 1.610 . S
N983 S982 1.613 . S
N983 C986 1.350 1_556 S
N984 S982 1.610 . S
N984 C985 1.351 1_556 S
C985 C979 1.428 . S
C985 N984 1.351 1_554 S
C985 C986 1.434 . S
C986 C977 1.429 . S
C986 N983 1.350 1_554 S
C986 C985 1.434 . S
C987 C988 1.369 . S
C987 C989 1.419 . S
C987 H991 0.930 . S
C988 C987 1.369 . S
C988 C997 1.429 . S
C989 C987 1.419 . S
C989 C990 1.363 . S
C989 H992 0.929 . S
C990 C989 1.363 . S
C990 C996 1.428 1_556 S
H991 C987 0.930 . S
H992 C989 0.929 . S
S993 N994 1.613 . S
S993 N995 1.610 . S
N994 S993 1.613 . S
N994 C997 1.350 1_554 S
N995 S993 1.610 . S
N995 C996 1.351 . S
C996 C990 1.428 1_554 S
C996 N995 1.351 . S
C996 C997 1.434 1_554 S
C997 C988 1.429 . S
C997 N994 1.350 1_556 S
C997 C996 1.434 1_556 S
C998 C999 1.369 . S
C998 C1000 1.419 . S
C998 H1002 0.930 . S
C999 C998 1.369 . S
C999 C1008 1.429 . S
C1000 C998 1.419 . S
C1000 C1001 1.363 . S
C1000 H1003 0.929 . S
C1001 C1000 1.363 . S
C1001 C1007 1.428 . S
H1002 C998 0.930 . S
H1003 C1000 0.929 . S
S1004 N1005 1.613 . S
S1004 N1006 1.610 . S
N1005 S1004 1.613 . S
N1005 C1008 1.350 1_554 S
N1006 S1004 1.610 . S
N1006 C1007 1.351 1_554 S
C1007 C1001 1.428 . S
C1007 N1006 1.351 1_556 S
C1007 C1008 1.434 . S
C1008 C999 1.429 . S
C1008 N1005 1.350 1_556 S
C1008 C1007 1.434 . S
C1009 C1010 1.369 . S
C1009 C1011 1.419 . S
C1009 H1013 0.930 . S
C1010 C1009 1.369 . S
C1010 C1019 1.429 . S
C1011 C1009 1.419 . S
C1011 C1012 1.363 . S
C1011 H1014 0.929 . S
C1012 C1011 1.363 . S
C1012 C1018 1.428 . S
H1013 C1009 0.930 . S
H1014 C1011 0.929 . S
S1015 N1016 1.613 . S
S1015 N1017 1.610 . S
N1016 S1015 1.613 . S
N1016 C1019 1.350 . S
N1017 S1015 1.610 . S
N1017 C1018 1.351 . S
C1018 C1012 1.428 . S
C1018 N1017 1.351 . S
C1018 C1019 1.434 . S
C1019 C1010 1.429 . S
C1019 N1016 1.350 . S
C1019 C1018 1.434 . S
C1020 C1021 1.369 . S
C1020 C1022 1.419 . S
C1020 H1024 0.930 . S
C1021 C1020 1.369 . S
C1021 C1030 1.429 . S
C1022 C1020 1.419 . S
C1022 C1023 1.363 . S
C1022 H1025 0.929 . S
C1023 C1022 1.363 . S
C1023 C1029 1.428 . S
H1024 C1020 0.930 . S
H1025 C1022 0.929 . S
S1026 N1027 1.613 . S
S1026 N1028 1.610 . S
N1027 S1026 1.613 . S
N1027 C1030 1.350 . S
N1028 S1026 1.610 . S
N1028 C1029 1.351 . S
C1029 C1023 1.428 . S
C1029 N1028 1.351 . S
C1029 C1030 1.434 . S
C1030 C1021 1.429 . S
C1030 N1027 1.350 . S
C1030 C1029 1.434 . S
C1031 C1032 1.369 . S
C1031 C1033 1.419 1_556 S
C1031 H1035 0.930 1_556 S
C1032 C1031 1.369 . S
C1032 C1041 1.429 . S
C1033 C1031 1.419 1_554 S
C1033 C1034 1.363 1_554 S
C1033 H1036 0.929 . S
C1034 C1033 1.363 1_556 S
C1034 C1040 1.428 . S
H1035 C1031 0.930 1_554 S
H1036 C1033 0.929 . S
S1037 N1038 1.613 . S
S1037 N1039 1.610 . S
N1038 S1037 1.613 . S
N1038 C1041 1.350 . S
N1039 S1037 1.610 . S
N1039 C1040 1.351 . S
C1040 C1034 1.428 . S
C1040 N1039 1.351 . S
C1040 C1041 1.434 . S
C1041 C1032 1.429 . S
C1041 N1038 1.350 . S
C1041 C1040 1.434 . S
C1042 C1043 1.369 . S
C1042 C1044 1.419 . S
C1042 H1046 0.930 . S
C1043 C1042 1.369 . S
C1043 C1052 1.429 . S
C1044 C1042 1.419 . S
C1044 C1045 1.363 . S
C1044 H1047 0.929 . S
C1045 C1044 1.363 . S
C1045 C1051 1.428 . S
H1046 C1042 0.930 . S
H1047 C1044 0.929 . S
S1048 N1049 1.613 . S
S1048 N1050 1.610 . S
N1049 S1048 1.613 . S
N1049 C1052 1.350 1_554 S
N1050 S1048 1.610 . S
N1050 C1051 1.351 1_554 S
C1051 C1045 1.428 . S
C1051 N1050 1.351 1_556 S
C1051 C1052 1.434 . S
C1052 C1043 1.429 . S
C1052 N1049 1.350 1_556 S
C1052 C1051 1.434 . S
C1053 C1054 1.369 . S
C1053 C1055 1.419 . S
C1053 H1057 0.930 . S
C1054 C1053 1.369 . S
C1054 C1063 1.429 . S
C1055 C1053 1.419 . S
C1055 C1056 1.363 . S
C1055 H1058 0.929 . S
C1056 C1055 1.363 . S
C1056 C1062 1.428 . S
H1057 C1053 0.930 . S
H1058 C1055 0.929 . S
S1059 N1060 1.613 . S
S1059 N1061 1.610 . S
N1060 S1059 1.613 . S
N1060 C1063 1.350 . S
N1061 S1059 1.610 . S
N1061 C1062 1.351 . S
C1062 C1056 1.428 . S
C1062 N1061 1.351 . S
C1062 C1063 1.434 . S
C1063 C1054 1.429 . S
C1063 N1060 1.350 . S
C1063 C1062 1.434 . S
C1064 C1065 1.369 . S
C1064 C1066 1.419 . S
C1064 H1068 0.930 . S
C1065 C1064 1.369 . S
C1065 C1074 1.429 . S
C1066 C1064 1.419 . S
C1066 C1067 1.363 . S
C1066 H1069 0.929 . S
C1067 C1066 1.363 . S
C1067 C1073 1.428 . S
H1068 C1064 0.930 . S
H1069 C1066 0.929 . S
S1070 N1071 1.613 . S
S1070 N1072 1.610 . S
N1071 S1070 1.613 . S
N1071 C1074 1.350 . S
N1072 S1070 1.610 . S
N1072 C1073 1.351 . S
C1073 C1067 1.428 . S
C1073 N1072 1.351 . S
C1073 C1074 1.434 . S
C1074 C1065 1.429 . S
C1074 N1071 1.350 . S
C1074 C1073 1.434 . S
C1075 C1076 1.369 . S
C1075 C1077 1.419 . S
C1075 H1079 0.930 . S
C1076 C1075 1.369 . S
C1076 C1085 1.429 . S
C1077 C1075 1.419 . S
C1077 C1078 1.363 . S
C1077 H1080 0.929 . S
C1078 C1077 1.363 . S
C1078 C1084 1.428 . S
H1079 C1075 0.930 . S
H1080 C1077 0.929 . S
S1081 N1082 1.613 . S
S1081 N1083 1.610 . S
N1082 S1081 1.613 . S
N1082 C1085 1.350 . S
N1083 S1081 1.610 . S
N1083 C1084 1.351 . S
C1084 C1078 1.428 . S
C1084 N1083 1.351 . S
C1084 C1085 1.434 . S
C1085 C1076 1.429 . S
C1085 N1082 1.350 . S
C1085 C1084 1.434 . S
C1086 C1087 1.369 . S
C1086 C1088 1.419 . S
C1086 H1090 0.930 . S
C1087 C1086 1.369 . S
C1087 C1096 1.429 . S
C1088 C1086 1.419 . S
C1088 C1089 1.363 . S
C1088 H1091 0.929 . S
C1089 C1088 1.363 . S
C1089 C1095 1.428 . S
H1090 C1086 0.930 . S
H1091 C1088 0.929 . S
S1092 N1093 1.613 . S
S1092 N1094 1.610 . S
N1093 S1092 1.613 . S
N1093 C1096 1.350 . S
N1094 S1092 1.610 . S
N1094 C1095 1.351 . S
C1095 C1089 1.428 . S
C1095 N1094 1.351 . S
C1095 C1096 1.434 . S
C1096 C1087 1.429 . S
C1096 N1093 1.350 . S
C1096 C1095 1.434 . S
C1097 C1098 1.369 . S
C1097 C1099 1.419 . S
C1097 H1101 0.930 . S
C1098 C1097 1.369 . S
C1098 C1107 1.429 . S
C1099 C1097 1.419 . S
C1099 C1100 1.363 . S
C1099 H1102 0.929 . S
C1100 C1099 1.363 . S
C1100 C1106 1.428 . S
H1101 C1097 0.930 . S
H1102 C1099 0.929 . S
S1103 N1104 1.613 . S
S1103 N1105 1.610 . S
N1104 S1103 1.613 . S
N1104 C1107 1.350 . S
N1105 S1103 1.610 . S
N1105 C1106 1.351 . S
C1106 C1100 1.428 . S
C1106 N1105 1.351 . S
C1106 C1107 1.434 . S
C1107 C1098 1.429 . S
C1107 N1104 1.350 . S
C1107 C1106 1.434 . S
C1108 C1109 1.342 1_565 S
C1108 C1110 1.457 . S
C1108 H1112 0.920 1_565 S
C1109 C1108 1.342 1_545 S
C1109 C1118 1.429 1_545 S
C1110 C1108 1.457 . S
C1110 C1111 1.363 . S
C1110 H1113 0.929 . S
C1111 C1110 1.363 . S
C1111 C1117 1.428 . S
H1112 C1108 0.920 1_545 S
H1113 C1110 0.929 . S
S1114 N1115 1.613 . S
S1114 N1116 1.610 . S
N1115 S1114 1.613 . S
N1115 C1118 1.350 . S
N1116 S1114 1.610 . S
N1116 C1117 1.351 . S
C1117 C1111 1.428 . S
C1117 N1116 1.351 . S
C1117 C1118 1.434 . S
C1118 C1109 1.429 1_565 S
C1118 N1115 1.350 . S
C1118 C1117 1.434 . S
C1119 C1120 1.369 . S
C1119 C1121 1.419 . S
C1119 H1123 0.930 . S
C1120 C1119 1.369 . S
C1120 C1129 1.429 . S
C1121 C1119 1.419 . S
C1121 C1122 1.363 . S
C1121 H1124 0.929 . S
C1122 C1121 1.363 . S
C1122 C1128 1.428 . S
H1123 C1119 0.930 . S
H1124 C1121 0.929 . S
S1125 N1126 1.613 . S
S1125 N1127 1.610 . S
N1126 S1125 1.613 . S
N1126 C1129 1.350 . S
N1127 S1125 1.610 . S
N1127 C1128 1.351 . S
C1128 C1122 1.428 . S
C1128 N1127 1.351 . S
C1128 C1129 1.434 . S
C1129 C1120 1.429 . S
C1129 N1126 1.350 . S
C1129 C1128 1.434 . S
C1130 C1131 1.369 . S
C1130 C1132 1.419 . S
C1130 H1134 0.930 . S
C1131 C1130 1.369 . S
C1131 C1140 1.429 . S
C1132 C1130 1.419 . S
C1132 C1133 1.363 . S
C1132 H1135 0.929 . S
C1133 C1132 1.363 . S
C1133 C1139 1.428 . S
H1134 C1130 0.930 . S
H1135 C1132 0.929 . S
S1136 N1137 1.613 . S
S1136 N1138 1.610 . S
N1137 S1136 1.613 . S
N1137 C1140 1.350 . S
N1138 S1136 1.610 . S
N1138 C1139 1.351 . S
C1139 C1133 1.428 . S
C1139 N1138 1.351 . S
C1139 C1140 1.434 . S
C1140 C1131 1.429 . S
C1140 N1137 1.350 . S
C1140 C1139 1.434 . S
C1141 C1142 1.369 . S
C1141 C1143 1.419 . S
C1141 H1145 0.930 . S
C1142 C1141 1.369 . S
C1142 C1151 1.429 . S
C1143 C1141 1.419 . S
C1143 C1144 1.363 . S
C1143 H1146 0.929 . S
C1144 C1143 1.363 . S
C1144 C1150 1.428 . S
H1145 C1141 0.930 . S
H1146 C1143 0.929 . S
S1147 N1148 1.613 . S
S1147 N1149 1.610 . S
N1148 S1147 1.613 . S
N1148 C1151 1.350 . S
N1149 S1147 1.610 . S
N1149 C1150 1.351 . S
C1150 C1144 1.428 . S
C1150 N1149 1.351 . S
C1150 C1151 1.434 . S
C1151 C1142 1.429 . S
C1151 N1148 1.350 . S
C1151 C1150 1.434 . S
C1152 C1153 1.369 . S
C1152 C1154 1.419 . S
C1152 H1156 0.930 . S
C1153 C1152 1.369 . S
C1153 C1162 1.429 . S
C1154 C1152 1.419 . S
C1154 C1155 1.363 . S
C1154 H1157 0.929 . S
C1155 C1154 1.363 . S
C1155 C1161 1.428 . S
H1156 C1152 0.930 . S
H1157 C1154 0.929 . S
S1158 N1159 1.613 . S
S1158 N1160 1.610 . S
N1159 S1158 1.613 . S
N1159 C1162 1.350 . S
N1160 S1158 1.610 . S
N1160 C1161 1.351 . S
C1161 C1155 1.428 . S
C1161 N1160 1.351 . S
C1161 C1162 1.434 . S
C1162 C1153 1.429 . S
C1162 N1159 1.350 . S
C1162 C1161 1.434 . S
C1163 C1164 1.369 . S
C1163 C1165 1.419 . S
C1163 H1167 0.930 . S
C1164 C1163 1.369 . S
C1164 C1173 1.429 . S
C1165 C1163 1.419 . S
C1165 C1166 1.363 . S
C1165 H1168 0.929 . S
C1166 C1165 1.363 . S
C1166 C1172 1.428 . S
H1167 C1163 0.930 . S
H1168 C1165 0.929 . S
S1169 N1170 1.613 . S
S1169 N1171 1.610 . S
N1170 S1169 1.613 . S
N1170 C1173 1.350 . S
N1171 S1169 1.610 . S
N1171 C1172 1.351 . S
C1172 C1166 1.428 . S
C1172 N1171 1.351 . S
C1172 C1173 1.434 . S
C1173 C1164 1.429 . S
C1173 N1170 1.350 . S
C1173 C1172 1.434 . S
C1174 C1175 1.369 . S
C1174 C1176 1.419 . S
C1174 H1178 0.930 . S
C1175 C1174 1.369 . S
C1175 C1184 1.429 . S
C1176 C1174 1.419 . S
C1176 C1177 1.363 . S
C1176 H1179 0.929 . S
C1177 C1176 1.363 . S
C1177 C1183 1.428 . S
H1178 C1174 0.930 . S
H1179 C1176 0.929 . S
S1180 N1181 1.613 . S
S1180 N1182 1.610 . S
N1181 S1180 1.613 . S
N1181 C1184 1.350 . S
N1182 S1180 1.610 . S
N1182 C1183 1.351 . S
C1183 C1177 1.428 . S
C1183 N1182 1.351 . S
C1183 C1184 1.434 . S
C1184 C1175 1.429 . S
C1184 N1181 1.350 . S
C1184 C1183 1.434 . S
C1185 C1186 1.369 . S
C1185 C1187 1.419 . S
C1185 H1189 0.930 1_565 S
C1186 C1185 1.369 . S
C1186 C1195 1.429 . S
C1187 C1185 1.419 . S
C1187 C1188 1.363 . S
C1187 H1190 0.929 . S
C1188 C1187 1.363 . S
C1188 C1194 1.428 . S
H1189 C1185 0.930 1_545 S
H1190 C1187 0.929 . S
S1191 N1192 1.613 . S
S1191 N1193 1.610 . S
N1192 S1191 1.613 . S
N1192 C1195 1.350 . S
N1193 S1191 1.610 . S
N1193 C1194 1.351 . S
C1194 C1188 1.428 . S
C1194 N1193 1.351 . S
C1194 C1195 1.434 . S
C1195 C1186 1.429 . S
C1195 N1192 1.350 . S
C1195 C1194 1.434 . S
C1196 C1197 1.369 . S
C1196 C1198 1.419 . S
C1196 H1200 0.930 . S
C1197 C1196 1.369 . S
C1197 C1206 1.429 . S
C1198 C1196 1.419 . S
C1198 C1199 1.363 . S
C1198 H1201 0.929 . S
C1199 C1198 1.363 . S
C1199 C1205 1.428 . S
H1200 C1196 0.930 . S
H1201 C1198 0.929 . S
S1202 N1203 1.613 1_455 S
S1202 N1204 1.610 . S
N1203 S1202 1.613 1_655 S
N1203 C1206 1.350 1_655 S
N1204 S1202 1.610 . S
N1204 C1205 1.351 . S
C1205 C1199 1.428 . S
C1205 N1204 1.351 . S
C1205 C1206 1.434 . S
C1206 C1197 1.429 . S
C1206 N1203 1.350 1_455 S
C1206 C1205 1.434 . S
C1207 C1208 1.369 . S
C1207 C1209 1.419 . S
C1207 H1211 0.930 . S
C1208 C1207 1.369 . S
C1208 C1217 1.429 . S
C1209 C1207 1.419 . S
C1209 C1210 1.363 . S
C1209 H1212 0.929 . S
C1210 C1209 1.363 . S
C1210 C1216 1.428 . S
H1211 C1207 0.930 . S
H1212 C1209 0.929 . S
S1213 N1214 1.613 . S
S1213 N1215 1.610 . S
N1214 S1213 1.613 . S
N1214 C1217 1.350 . S
N1215 S1213 1.610 . S
N1215 C1216 1.351 . S
C1216 C1210 1.428 . S
C1216 N1215 1.351 . S
C1216 C1217 1.434 . S
C1217 C1208 1.429 . S
C1217 N1214 1.350 . S
C1217 C1216 1.434 . S
C1218 C1219 1.369 . S
C1218 C1220 1.419 . S
C1218 H1222 0.930 . S
C1219 C1218 1.369 . S
C1219 C1228 1.429 . S
C1220 C1218 1.419 . S
C1220 C1221 1.363 . S
C1220 H1223 0.929 . S
C1221 C1220 1.363 . S
C1221 C1227 1.428 . S
H1222 C1218 0.930 . S
H1223 C1220 0.929 . S
S1224 N1225 1.613 . S
S1224 N1226 1.610 . S
N1225 S1224 1.613 . S
N1225 C1228 1.350 . S
N1226 S1224 1.610 . S
N1226 C1227 1.351 . S
C1227 C1221 1.428 . S
C1227 N1226 1.351 . S
C1227 C1228 1.434 . S
C1228 C1219 1.429 . S
C1228 N1225 1.350 . S
C1228 C1227 1.434 . S
C1229 C1230 1.369 . S
C1229 C1231 1.419 . S
C1229 H1233 0.930 . S
C1230 C1229 1.369 . S
C1230 C1239 1.429 . S
C1231 C1229 1.419 . S
C1231 C1232 1.363 . S
C1231 H1234 0.929 . S
C1232 C1231 1.363 . S
C1232 C1238 1.428 . S
H1233 C1229 0.930 . S
H1234 C1231 0.929 . S
S1235 N1236 1.613 . S
S1235 N1237 1.610 . S
N1236 S1235 1.613 . S
N1236 C1239 1.350 . S
N1237 S1235 1.610 . S
N1237 C1238 1.351 . S
C1238 C1232 1.428 . S
C1238 N1237 1.351 . S
C1238 C1239 1.434 . S
C1239 C1230 1.429 . S
C1239 N1236 1.350 . S
C1239 C1238 1.434 . S
C1240 C1241 1.369 . S
C1240 C1242 1.419 . S
C1240 H1244 0.930 . S
C1241 C1240 1.369 . S
C1241 C1250 1.429 . S
C1242 C1240 1.419 . S
C1242 C1243 1.363 . S
C1242 H1245 0.929 . S
C1243 C1242 1.363 . S
C1243 C1249 1.428 . S
H1244 C1240 0.930 . S
H1245 C1242 0.929 . S
S1246 N1247 1.613 . S
S1246 N1248 1.610 . S
N1247 S1246 1.613 . S
N1247 C1250 1.350 . S
N1248 S1246 1.610 . S
N1248 C1249 1.351 . S
C1249 C1243 1.428 . S
C1249 N1248 1.351 . S
C1249 C1250 1.434 . S
C1250 C1241 1.429 . S
C1250 N1247 1.350 . S
C1250 C1249 1.434 . S
C1251 C1252 1.369 . S
C1251 C1253 1.419 . S
C1251 H1255 0.930 . S
C1252 C1251 1.369 . S
C1252 C1261 1.429 . S
C1253 C1251 1.419 . S
C1253 C1254 1.363 . S
C1253 H1256 0.929 . S
C1254 C1253 1.363 . S
C1254 C1260 1.428 . S
H1255 C1251 0.930 . S
H1256 C1253 0.929 . S
S1257 N1258 1.613 1_545 S
S1257 N1259 1.608 . S
N1258 S1257 1.613 1_565 S
N1258 C1261 1.350 1_565 S
N1259 S1257 1.608 . S
N1259 C1260 1.351 . S
C1260 C1254 1.428 . S
C1260 N1259 1.351 . S
C1260 C1261 1.434 . S
C1261 C1252 1.429 . S
C1261 N1258 1.350 1_545 S
C1261 C1260 1.434 . S
C1262 C1263 1.369 1_655 S
C1262 C1264 1.419 . S
C1262 H1266 0.930 . S
C1263 C1262 1.369 1_455 S
C1263 C1272 1.434 . S
C1264 C1262 1.419 . S
C1264 C1265 1.363 . S
C1264 H1267 0.929 . S
C1265 C1264 1.363 . S
C1265 C1271 1.428 . S
H1266 C1262 0.930 . S
H1267 C1264 0.929 . S
S1268 N1269 1.613 . S
S1268 N1270 1.610 1_455 S
N1269 S1268 1.613 . S
N1269 C1272 1.353 . S
N1270 S1268 1.610 1_655 S
N1270 C1271 1.351 . S
C1271 C1265 1.428 . S
C1271 N1270 1.351 . S
C1271 C1272 1.425 1_655 S
C1272 C1263 1.434 . S
C1272 N1269 1.353 . S
C1272 C1271 1.425 1_455 S
C1273 C1274 1.369 . S
C1273 C1275 1.419 . S
C1273 H1277 0.930 . S
C1274 C1273 1.369 . S
C1274 C1283 1.429 . S
C1275 C1273 1.419 . S
C1275 C1276 1.363 . S
C1275 H1278 0.929 . S
C1276 C1275 1.363 . S
C1276 C1282 1.428 . S
H1277 C1273 0.930 . S
H1278 C1275 0.929 . S
S1279 N1280 1.613 . S
S1279 N1281 1.610 . S
N1280 S1279 1.613 . S
N1280 C1283 1.350 . S
N1281 S1279 1.610 . S
N1281 C1282 1.351 . S
C1282 C1276 1.428 . S
C1282 N1281 1.351 . S
C1282 C1283 1.434 . S
C1283 C1274 1.429 . S
C1283 N1280 1.350 . S
C1283 C1282 1.434 . S
C1284 C1285 1.369 . S
C1284 C1286 1.419 . S
C1284 H1288 0.930 . S
C1285 C1284 1.369 . S
C1285 C1294 1.429 . S
C1286 C1284 1.419 . S
C1286 C1287 1.363 . S
C1286 H1289 0.929 . S
C1287 C1286 1.363 . S
C1287 C1293 1.428 . S
H1288 C1284 0.930 . S
H1289 C1286 0.929 . S
S1290 N1291 1.613 . S
S1290 N1292 1.610 . S
N1291 S1290 1.613 . S
N1291 C1294 1.350 . S
N1292 S1290 1.610 . S
N1292 C1293 1.351 . S
C1293 C1287 1.428 . S
C1293 N1292 1.351 . S
C1293 C1294 1.434 . S
C1294 C1285 1.429 . S
C1294 N1291 1.350 . S
C1294 C1293 1.434 . S
C1295 C1296 1.369 . S
C1295 C1297 1.419 . S
C1295 H1299 0.930 . S
C1296 C1295 1.369 . S
C1296 C1305 1.429 . S
C1297 C1295 1.419 . S
C1297 C1298 1.363 . S
C1297 H1300 0.929 . S
C1298 C1297 1.363 . S
C1298 C1304 1.428 . S
H1299 C1295 0.930 . S
H1300 C1297 0.929 . S
S1301 N1302 1.613 . S
S1301 N1303 1.610 . S
N1302 S1301 1.613 . S
N1302 C1305 1.350 . S
N1303 S1301 1.610 . S
N1303 C1304 1.351 . S
C1304 C1298 1.428 . S
C1304 N1303 1.351 . S
C1304 C1305 1.434 . S
C1305 C1296 1.429 . S
C1305 N1302 1.350 . S
C1305 C1304 1.434 . S
C1306 C1307 1.369 . S
C1306 C1308 1.419 . S
C1306 H1310 0.930 1_545 S
C1307 C1306 1.369 . S
C1307 C1316 1.429 . S
C1308 C1306 1.419 . S
C1308 C1309 1.363 . S
C1308 H1311 0.929 . S
C1309 C1308 1.363 . S
C1309 C1315 1.428 . S
H1310 C1306 0.930 1_565 S
H1311 C1308 0.929 . S
S1312 N1313 1.613 . S
S1312 N1314 1.610 . S
N1313 S1312 1.613 . S
N1313 C1316 1.350 . S
N1314 S1312 1.610 . S
N1314 C1315 1.351 . S
C1315 C1309 1.428 . S
C1315 N1314 1.351 . S
C1315 C1316 1.434 . S
C1316 C1307 1.429 . S
C1316 N1313 1.350 . S
C1316 C1315 1.434 . S
C1317 C1318 1.369 . S
C1317 C1319 1.419 . S
C1317 H1321 0.930 . S
C1318 C1317 1.369 . S
C1318 C1327 1.429 . S
C1319 C1317 1.419 . S
C1319 C1320 1.363 . S
C1319 H1322 0.929 . S
C1320 C1319 1.363 . S
C1320 C1326 1.428 . S
H1321 C1317 0.930 . S
H1322 C1319 0.929 . S
S1323 N1324 1.613 . S
S1323 N1325 1.610 . S
N1324 S1323 1.613 . S
N1324 C1327 1.350 . S
N1325 S1323 1.610 . S
N1325 C1326 1.351 . S
C1326 C1320 1.428 . S
C1326 N1325 1.351 . S
C1326 C1327 1.434 . S
C1327 C1318 1.429 . S
C1327 N1324 1.350 . S
C1327 C1326 1.434 . S
C1328 C1329 1.369 . S
C1328 C1330 1.419 . S
C1328 H1332 0.930 . S
C1329 C1328 1.369 . S
C1329 C1338 1.429 . S
C1330 C1328 1.419 . S
C1330 C1331 1.363 . S
C1330 H1333 0.929 . S
C1331 C1330 1.363 . S
C1331 C1337 1.428 . S
H1332 C1328 0.930 . S
H1333 C1330 0.929 . S
S1334 N1335 1.613 . S
S1334 N1336 1.610 . S
N1335 S1334 1.613 . S
N1335 C1338 1.350 . S
N1336 S1334 1.610 . S
N1336 C1337 1.351 . S
C1337 C1331 1.428 . S
C1337 N1336 1.351 . S
C1337 C1338 1.434 . S
C1338 C1329 1.429 . S
C1338 N1335 1.350 . S
C1338 C1337 1.434 . S
C1339 C1340 1.369 . S
C1339 C1341 1.419 . S
C1339 H1343 0.930 . S
C1340 C1339 1.369 . S
C1340 C1349 1.429 . S
C1341 C1339 1.419 . S
C1341 C1342 1.363 . S
C1341 H1344 0.929 . S
C1342 C1341 1.363 . S
C1342 C1348 1.428 . S
H1343 C1339 0.930 . S
H1344 C1341 0.929 . S
S1345 N1346 1.613 . S
S1345 N1347 1.610 . S
N1346 S1345 1.613 . S
N1346 C1349 1.350 . S
N1347 S1345 1.610 . S
N1347 C1348 1.351 . S
C1348 C1342 1.428 . S
C1348 N1347 1.351 . S
C1348 C1349 1.434 . S
C1349 C1340 1.429 . S
C1349 N1346 1.350 . S
C1349 C1348 1.434 . S
C1350 C1351 1.369 . S
C1350 C1352 1.419 . S
C1350 H1354 0.930 . S
C1351 C1350 1.369 . S
C1351 C1360 1.429 . S
C1352 C1350 1.419 . S
C1352 C1353 1.363 . S
C1352 H1355 0.929 . S
C1353 C1352 1.363 . S
C1353 C1359 1.428 . S
H1354 C1350 0.930 . S
H1355 C1352 0.929 . S
S1356 N1357 1.613 1_545 S
S1356 N1358 1.610 . S
N1357 S1356 1.613 1_565 S
N1357 C1360 1.350 . S
N1358 S1356 1.610 . S
N1358 C1359 1.351 1_545 S
C1359 C1353 1.428 . S
C1359 N1358 1.351 1_565 S
C1359 C1360 1.434 . S
C1360 C1351 1.429 . S
C1360 N1357 1.350 . S
C1360 C1359 1.434 . S
C1361 C1362 1.369 . S
C1361 C1363 1.419 . S
C1361 H1365 0.930 . S
C1362 C1361 1.369 . S
C1362 C1371 1.429 . S
C1363 C1361 1.419 . S
C1363 C1364 1.363 . S
C1363 H1366 0.929 . S
C1364 C1363 1.363 . S
C1364 C1370 1.428 . S
H1365 C1361 0.930 . S
H1366 C1363 0.929 . S
S1367 N1368 1.613 . S
S1367 N1369 1.610 . S
N1368 S1367 1.613 . S
N1368 C1371 1.350 . S
N1369 S1367 1.610 . S
N1369 C1370 1.351 . S
C1370 C1364 1.428 . S
C1370 N1369 1.351 . S
C1370 C1371 1.434 . S
C1371 C1362 1.429 . S
C1371 N1368 1.350 . S
C1371 C1370 1.434 . S
C1372 C1373 1.369 . S
C1372 C1374 1.419 . S
C1372 H1376 0.930 . S
C1373 C1372 1.369 . S
C1373 C1382 1.429 . S
C1374 C1372 1.419 . S
C1374 C1375 1.363 . S
C1374 H1377 0.929 . S
C1375 C1374 1.363 . S
C1375 C1381 1.428 . S
H1376 C1372 0.930 . S
H1377 C1374 0.929 . S
S1378 N1379 1.613 . S
S1378 N1380 1.610 . S
N1379 S1378 1.613 . S
N1379 C1382 1.350 . S
N1380 S1378 1.610 . S
N1380 C1381 1.351 . S
C1381 C1375 1.428 . S
C1381 N1380 1.351 . S
C1381 C1382 1.434 . S
C1382 C1373 1.429 . S
C1382 N1379 1.350 . S
C1382 C1381 1.434 . S
C1383 C1384 1.369 . S
C1383 C1385 1.419 . S
C1383 H1387 0.930 . S
C1384 C1383 1.369 . S
C1384 C1393 1.429 . S
C1385 C1383 1.419 . S
C1385 C1386 1.363 . S
C1385 H1388 0.929 . S
C1386 C1385 1.363 . S
C1386 C1392 1.428 . S
H1387 C1383 0.930 . S
H1388 C1385 0.929 . S
S1389 N1390 1.613 . S
S1389 N1391 1.610 . S
N1390 S1389 1.613 . S
N1390 C1393 1.350 . S
N1391 S1389 1.610 . S
N1391 C1392 1.351 . S
C1392 C1386 1.428 . S
C1392 N1391 1.351 . S
C1392 C1393 1.434 . S
C1393 C1384 1.429 . S
C1393 N1390 1.350 . S
C1393 C1392 1.434 . S
C1394 C1395 1.369 . S
C1394 C1396 1.419 . S
C1394 H1398 0.930 . S
C1395 C1394 1.369 . S
C1395 C1404 1.429 . S
C1396 C1394 1.419 . S
C1396 C1397 1.363 . S
C1396 H1399 0.929 . S
C1397 C1396 1.363 . S
C1397 C1403 1.428 . S
H1398 C1394 0.930 . S
H1399 C1396 0.929 . S
S1400 N1401 1.613 . S
S1400 N1402 1.610 . S
N1401 S1400 1.613 . S
N1401 C1404 1.350 . S
N1402 S1400 1.610 . S
N1402 C1403 1.351 . S
C1403 C1397 1.428 . S
C1403 N1402 1.351 . S
C1403 C1404 1.434 . S
C1404 C1395 1.429 . S
C1404 N1401 1.350 . S
C1404 C1403 1.434 . S
C1405 C1406 1.369 . S
C1405 C1407 1.419 . S
C1405 H1409 0.930 . S
C1406 C1405 1.369 . S
C1406 C1415 1.429 . S
C1407 C1405 1.419 . S
C1407 C1408 1.363 . S
C1407 H1410 0.929 . S
C1408 C1407 1.363 . S
C1408 C1414 1.428 . S
H1409 C1405 0.930 . S
H1410 C1407 0.929 . S
S1411 N1412 1.613 . S
S1411 N1413 1.610 . S
N1412 S1411 1.613 . S
N1412 C1415 1.350 . S
N1413 S1411 1.610 . S
N1413 C1414 1.351 . S
C1414 C1408 1.428 . S
C1414 N1413 1.351 . S
C1414 C1415 1.434 . S
C1415 C1406 1.429 . S
C1415 N1412 1.350 . S
C1415 C1414 1.434 . S
C1416 C1417 1.369 . S
C1416 C1418 1.419 . S
C1416 H1420 0.930 . S
C1417 C1416 1.369 . S
C1417 C1426 1.429 . S
C1418 C1416 1.419 . S
C1418 C1419 1.363 . S
C1418 H1421 0.929 . S
C1419 C1418 1.363 . S
C1419 C1425 1.428 . S
H1420 C1416 0.930 . S
H1421 C1418 0.929 . S
S1422 N1423 1.613 . S
S1422 N1424 1.610 . S
N1423 S1422 1.613 . S
N1423 C1426 1.350 . S
N1424 S1422 1.610 . S
N1424 C1425 1.351 . S
C1425 C1419 1.428 . S
C1425 N1424 1.351 . S
C1425 C1426 1.434 . S
C1426 C1417 1.429 . S
C1426 N1423 1.350 . S
C1426 C1425 1.434 . S
C1427 C1428 1.369 . S
C1427 C1429 1.419 . S
C1427 H1431 0.930 . S
C1428 C1427 1.369 . S
C1428 C1437 1.429 . S
C1429 C1427 1.419 . S
C1429 C1430 1.363 . S
C1429 H1432 0.929 . S
C1430 C1429 1.363 . S
C1430 C1436 1.428 . S
H1431 C1427 0.930 . S
H1432 C1429 0.929 . S
S1433 N1434 1.613 . S
S1433 N1435 1.610 . S
N1434 S1433 1.613 . S
N1434 C1437 1.350 . S
N1435 S1433 1.610 . S
N1435 C1436 1.351 . S
C1436 C1430 1.428 . S
C1436 N1435 1.351 . S
C1436 C1437 1.434 . S
C1437 C1428 1.429 . S
C1437 N1434 1.350 . S
C1437 C1436 1.434 . S
C1438 C1439 1.369 . S
C1438 C1440 1.419 . S
C1438 H1442 0.930 . S
C1439 C1438 1.369 . S
C1439 C1448 1.429 . S
C1440 C1438 1.419 . S
C1440 C1441 1.363 . S
C1440 H1443 0.929 . S
C1441 C1440 1.363 . S
C1441 C1447 1.428 . S
H1442 C1438 0.930 . S
H1443 C1440 0.929 . S
S1444 N1445 1.613 . S
S1444 N1446 1.610 . S
N1445 S1444 1.613 . S
N1445 C1448 1.350 . S
N1446 S1444 1.610 . S
N1446 C1447 1.351 . S
C1447 C1441 1.428 . S
C1447 N1446 1.351 . S
C1447 C1448 1.434 . S
C1448 C1439 1.429 . S
C1448 N1445 1.350 . S
C1448 C1447 1.434 . S
C1449 C1450 1.369 . S
C1449 C1451 1.419 . S
C1449 H1453 0.930 . S
C1450 C1449 1.369 . S
C1450 C1459 1.429 . S
C1451 C1449 1.419 . S
C1451 C1452 1.363 . S
C1451 H1454 0.929 . S
C1452 C1451 1.363 . S
C1452 C1458 1.428 . S
H1453 C1449 0.930 . S
H1454 C1451 0.929 . S
S1455 N1456 1.613 . S
S1455 N1457 1.610 . S
N1456 S1455 1.613 . S
N1456 C1459 1.350 . S
N1457 S1455 1.610 . S
N1457 C1458 1.351 . S
C1458 C1452 1.428 . S
C1458 N1457 1.351 . S
C1458 C1459 1.434 . S
C1459 C1450 1.429 . S
C1459 N1456 1.350 . S
C1459 C1458 1.434 . S
C1460 C1461 1.369 . S
C1460 C1462 1.419 . S
C1460 H1464 0.930 . S
C1461 C1460 1.369 . S
C1461 C1470 1.429 . S
C1462 C1460 1.419 . S
C1462 C1463 1.363 . S
C1462 H1465 0.929 . S
C1463 C1462 1.363 . S
C1463 C1469 1.428 . S
H1464 C1460 0.930 . S
H1465 C1462 0.929 . S
S1466 N1467 1.613 . S
S1466 N1468 1.610 . S
N1467 S1466 1.613 . S
N1467 C1470 1.350 . S
N1468 S1466 1.610 . S
N1468 C1469 1.351 . S
C1469 C1463 1.428 . S
C1469 N1468 1.351 . S
C1469 C1470 1.434 . S
C1470 C1461 1.429 . S
C1470 N1467 1.350 . S
C1470 C1469 1.434 . S
C1471 C1472 1.369 . S
C1471 C1473 1.419 . S
C1471 H1475 0.930 . S
C1472 C1471 1.369 . S
C1472 C1481 1.429 . S
C1473 C1471 1.419 . S
C1473 C1474 1.363 . S
C1473 H1476 0.929 . S
C1474 C1473 1.363 . S
C1474 C1480 1.428 . S
H1475 C1471 0.930 . S
H1476 C1473 0.929 . S
S1477 N1478 1.613 . S
S1477 N1479 1.610 . S
N1478 S1477 1.613 . S
N1478 C1481 1.350 . S
N1479 S1477 1.610 . S
N1479 C1480 1.351 . S
C1480 C1474 1.428 . S
C1480 N1479 1.351 . S
C1480 C1481 1.434 . S
C1481 C1472 1.429 . S
C1481 N1478 1.350 . S
C1481 C1480 1.434 . S
C1482 C1483 1.369 . S
C1482 C1484 1.419 . S
C1482 H1486 0.930 . S
C1483 C1482 1.369 . S
C1483 C1492 1.429 . S
C1484 C1482 1.419 . S
C1484 C1485 1.363 . S
C1484 H1487 0.929 . S
C1485 C1484 1.363 . S
C1485 C1491 1.428 . S
H1486 C1482 0.930 . S
H1487 C1484 0.929 . S
S1488 N1489 1.613 . S
S1488 N1490 1.610 . S
N1489 S1488 1.613 . S
N1489 C1492 1.350 . S
N1490 S1488 1.610 . S
N1490 C1491 1.351 . S
C1491 C1485 1.428 . S
C1491 N1490 1.351 . S
C1491 C1492 1.434 . S
C1492 C1483 1.429 . S
C1492 N1489 1.350 . S
C1492 C1491 1.434 . S
C1493 C1494 1.369 . S
C1493 C1495 1.419 . S
C1493 H1497 0.930 . S
C1494 C1493 1.369 . S
C1494 C1503 1.429 . S
C1495 C1493 1.419 . S
C1495 C1496 1.363 . S
C1495 H1498 0.929 . S
C1496 C1495 1.363 . S
C1496 C1502 1.428 . S
H1497 C1493 0.930 . S
H1498 C1495 0.929 . S
S1499 N1500 1.613 . S
S1499 N1501 1.610 . S
N1500 S1499 1.613 . S
N1500 C1503 1.350 . S
N1501 S1499 1.610 . S
N1501 C1502 1.351 . S
C1502 C1496 1.428 . S
C1502 N1501 1.351 . S
C1502 C1503 1.434 . S
C1503 C1494 1.429 . S
C1503 N1500 1.350 . S
C1503 C1502 1.434 . S
C1504 C1505 1.369 . S
C1504 C1506 1.419 . S
C1504 H1508 0.930 . S
C1505 C1504 1.369 . S
C1505 C1514 1.429 . S
C1506 C1504 1.419 . S
C1506 C1507 1.363 . S
C1506 H1509 0.929 . S
C1507 C1506 1.363 . S
C1507 C1513 1.428 . S
H1508 C1504 0.930 . S
H1509 C1506 0.929 . S
S1510 N1511 1.613 . S
S1510 N1512 1.610 . S
N1511 S1510 1.613 . S
N1511 C1514 1.350 . S
N1512 S1510 1.610 . S
N1512 C1513 1.351 . S
C1513 C1507 1.428 . S
C1513 N1512 1.351 . S
C1513 C1514 1.434 . S
C1514 C1505 1.429 . S
C1514 N1511 1.350 . S
C1514 C1513 1.434 . S
C1515 C1516 1.369 . S
C1515 C1517 1.419 . S
C1515 H1519 0.930 . S
C1516 C1515 1.369 . S
C1516 C1525 1.429 . S
C1517 C1515 1.419 . S
C1517 C1518 1.363 . S
C1517 H1520 0.929 . S
C1518 C1517 1.363 . S
C1518 C1524 1.428 . S
H1519 C1515 0.930 . S
H1520 C1517 0.929 . S
S1521 N1522 1.613 . S
S1521 N1523 1.610 . S
N1522 S1521 1.613 . S
N1522 C1525 1.350 . S
N1523 S1521 1.610 . S
N1523 C1524 1.351 . S
C1524 C1518 1.428 . S
C1524 N1523 1.351 . S
C1524 C1525 1.434 . S
C1525 C1516 1.429 . S
C1525 N1522 1.350 . S
C1525 C1524 1.434 . S
C1526 C1527 1.369 . S
C1526 C1528 1.419 . S
C1526 H1530 0.930 . S
C1527 C1526 1.369 . S
C1527 C1536 1.429 . S
C1528 C1526 1.419 . S
C1528 C1529 1.363 . S
C1528 H1531 0.929 . S
C1529 C1528 1.363 . S
C1529 C1535 1.428 . S
H1530 C1526 0.930 . S
H1531 C1528 0.929 . S
S1532 N1533 1.613 . S
S1532 N1534 1.610 . S
N1533 S1532 1.613 . S
N1533 C1536 1.350 . S
N1534 S1532 1.610 . S
N1534 C1535 1.351 . S
C1535 C1529 1.428 . S
C1535 N1534 1.351 . S
C1535 C1536 1.434 . S
C1536 C1527 1.429 . S
C1536 N1533 1.350 . S
C1536 C1535 1.434 . S
C1537 C1538 1.369 . S
C1537 C1539 1.419 . S
C1537 H1541 0.930 . S
C1538 C1537 1.369 . S
C1538 C1547 1.429 . S
C1539 C1537 1.419 . S
C1539 C1540 1.363 . S
C1539 H1542 0.929 . S
C1540 C1539 1.363 . S
C1540 C1546 1.428 . S
H1541 C1537 0.930 . S
H1542 C1539 0.929 . S
S1543 N1544 1.613 . S
S1543 N1545 1.610 . S
N1544 S1543 1.613 . S
N1544 C1547 1.350 . S
N1545 S1543 1.610 . S
N1545 C1546 1.351 . S
C1546 C1540 1.428 . S
C1546 N1545 1.351 . S
C1546 C1547 1.434 . S
C1547 C1538 1.429 . S
C1547 N1544 1.350 . S
C1547 C1546 1.434 . S
C955 C151 1.205 . S
C957 C265 1.179 . S
C966 C159 1.658 . S
C968 C349 1.736 . S
C977 C137 1.331 . S
C979 C429 1.453 . S
C988 C126 1.294 . S
C990 C345 1.436 . S
C1001 C433 1.696 . S
C999 C104 1.636 . S
C1010 C118 1.168 . S
C1012 C261 1.177 . S
C1023 C254 1.375 . S
C1021 C129 1.433 . S
C1034 C338 1.541 . S
C1032 C107 1.616 . S
C1043 C115 1.257 . S
C1045 C440 1.449 . S
C1054 C148 1.254 . S
C1056 C356 1.428 . S
C1065 C162 1.577 . S
C1067 C422 1.495 . S
C1078 C272 1.377 . S
C1076 C140 1.408 . S
C1089 C517 1.177 . S
C1087 C19 1.203 1_455 S
C1098 C27 1.667 . S
C1100 C601 1.735 . S
C1109 C5 1.339 . S
C1111 C681 1.457 . S
C1120 C192 1.282 . S
C1122 C597 1.434 . S
C1131 C170 1.626 . S
C1133 C685 1.693 . S
C1142 C184 1.172 . S
C1144 C513 1.172 . S
C1153 C195 1.434 . S
C1155 C506 1.373 . S
C1164 C173 1.618 . S
C1166 C590 1.547 . S
C1177 C692 1.449 . S
C1175 C181 1.251 . S
C1186 C16 1.255 1_565 S
C1188 C608 1.430 . S
C1199 C674 1.497 . S
C1197 C30 1.577 1_455 S
C1208 C8 1.411 . S
C1210 C524 1.381 . S
C1221 C769 1.183 . S
C1219 C85 1.205 . S
C1230 C93 1.657 . S
C1232 C853 1.732 . S
C1243 C933 1.455 . S
C1241 C71 1.329 . S
C1254 C849 1.432 . S
C1252 C60 1.279 1_545 S
C1265 C937 1.694 . S
C1263 C38 1.627 . S
C1274 C52 1.169 . S
C1276 C765 1.174 . S
C1285 C63 1.435 1_655 S
C1287 C758 1.374 . S
C1296 C41 1.617 . S
C1298 C842 1.544 . S
C1309 C944 1.453 . S
C1307 C49 1.245 1_545 S
C1318 C82 1.247 . S
C1320 C860 1.432 . S
C1329 C96 1.577 . S
C1331 C926 1.496 . S
C1340 C74 1.409 . S
C1342 C776 1.375 . S
C1351 C172 1.570 . S
C1353 C268 1.460 . S
C1364 C352 1.247 . S
C1362 C183 1.332 . S
C1373 C194 1.477 . S
C1375 C424 1.338 . S
C1384 C73 1.503 . S
C1386 C340 1.347 . S
C1395 C84 1.322 . S
C1397 C436 1.246 . S
C1408 C256 1.455 . S
C1406 C95 1.561 . S
C1417 C40 1.571 . S
C1419 C520 1.460 . S
C1428 C51 1.339 . S
C1430 C604 1.254 . S
C1439 C62 1.477 . S
C1441 C676 1.339 . S
C1450 C139 1.502 . S
C1452 C592 1.338 . S
C1463 C688 1.243 . S
C1461 C150 1.325 . S
C1472 C161 1.556 . S
C1474 C508 1.452 . S
C1483 C106 1.569 . S
C1485 C772 1.467 . S
C1494 C117 1.338 . S
C1496 C856 1.255 . S
C1507 C928 1.339 . S
C1505 C128 1.476 . S
C1516 C7 1.506 . S
C1518 C844 1.344 . S
C1527 C18 1.320 . S
C1529 C940 1.234 . S
C1538 C29 1.559 . S
C1540 C760 1.455 . S
