# Generated by pormake.
# Topology pyr, (3,6)-cn, num edge types: 1
# Building blocks:
#     Node 0, Type 0, BuildingBlock: WUSLED_clean_sbu_0, # of connection points: 3
#     Node 1, Type 0, BuildingBlock: WUSLED_clean_sbu_0, # of connection points: 3
#     Node 2, Type 0, BuildingBlock: WUSLED_clean_sbu_0, # of connection points: 3
#     Node 3, Type 0, BuildingBlock: WUSLED_clean_sbu_0, # of connection points: 3
#     Node 4, Type 0, BuildingBlock: WUSLED_clean_sbu_0, # of connection points: 3
#     Node 5, Type 0, BuildingBlock: WUSLED_clean_sbu_0, # of connection points: 3
#     Node 6, Type 0, BuildingBlock: WUSLED_clean_sbu_0, # of connection points: 3
#     Node 7, Type 0, BuildingBlock: WUSLED_clean_sbu_0, # of connection points: 3
#     Node 8, Type 1, BuildingBlock: VOLQOD_clean_sbu_1, # of connection points: 6
#     Node 9, Type 1, BuildingBlock: VOLQOD_clean_sbu_1, # of connection points: 6
#     Node 10, Type 1, BuildingBlock: VOLQOD_clean_sbu_1, # of connection points: 6
#     Node 11, Type 1, BuildingBlock: VOLQOD_clean_sbu_1, # of connection points: 6
#     Edge 12, Type (0, 1), BuildingBlock: XUDNAN_clean_linker_2, # of connection points: 2
#     Edge 13, Type (0, 1), BuildingBlock: XUDNAN_clean_linker_2, # of connection points: 2
#     Edge 14, Type (0, 1), BuildingBlock: XUDNAN_clean_linker_2, # of connection points: 2
#     Edge 15, Type (0, 1), BuildingBlock: XUDNAN_clean_linker_2, # of connection points: 2
#     Edge 16, Type (0, 1), BuildingBlock: XUDNAN_clean_linker_2, # of connection points: 2
#     Edge 17, Type (0, 1), BuildingBlock: XUDNAN_clean_linker_2, # of connection points: 2
#     Edge 18, Type (0, 1), BuildingBlock: XUDNAN_clean_linker_2, # of connection points: 2
#     Edge 19, Type (0, 1), BuildingBlock: XUDNAN_clean_linker_2, # of connection points: 2
#     Edge 20, Type (0, 1), BuildingBlock: XUDNAN_clean_linker_2, # of connection points: 2
#     Edge 21, Type (0, 1), BuildingBlock: XUDNAN_clean_linker_2, # of connection points: 2
#     Edge 22, Type (0, 1), BuildingBlock: XUDNAN_clean_linker_2, # of connection points: 2
#     Edge 23, Type (0, 1), BuildingBlock: XUDNAN_clean_linker_2, # of connection points: 2
#     Edge 24, Type (0, 1), BuildingBlock: XUDNAN_clean_linker_2, # of connection points: 2
#     Edge 25, Type (0, 1), BuildingBlock: XUDNAN_clean_linker_2, # of connection points: 2
#     Edge 26, Type (0, 1), BuildingBlock: XUDNAN_clean_linker_2, # of connection points: 2
#     Edge 27, Type (0, 1), BuildingBlock: XUDNAN_clean_linker_2, # of connection points: 2
#     Edge 28, Type (0, 1), BuildingBlock: XUDNAN_clean_linker_2, # of connection points: 2
#     Edge 29, Type (0, 1), BuildingBlock: XUDNAN_clean_linker_2, # of connection points: 2
#     Edge 30, Type (0, 1), BuildingBlock: XUDNAN_clean_linker_2, # of connection points: 2
#     Edge 31, Type (0, 1), BuildingBlock: XUDNAN_clean_linker_2, # of connection points: 2
#     Edge 32, Type (0, 1), BuildingBlock: XUDNAN_clean_linker_2, # of connection points: 2
#     Edge 33, Type (0, 1), BuildingBlock: XUDNAN_clean_linker_2, # of connection points: 2
#     Edge 34, Type (0, 1), BuildingBlock: XUDNAN_clean_linker_2, # of connection points: 2
#     Edge 35, Type (0, 1), BuildingBlock: XUDNAN_clean_linker_2, # of connection points: 2
# Relax obj value: 0.035
# Max RMSD: 0.120
# Mean RMSD: 0.046
data_MOF--net-pry--node1-WUSLED_clean_sbu_0--node2-VOLQOD_clean_sbu_1--edge1-XUDNAN_clean_linker_2
_symmetry_space_group_name_H-M    P1
_symmetry_Int_Tables_number       1
_symmetry_cell_setting            triclinic
loop_
_symmetry_equiv_pos_as_xyz
'x, y, z'
_cell_length_a     48.328886
_cell_length_b     48.499733
_cell_length_c     48.594647
_cell_angle_alpha  89.949735
_cell_angle_beta   90.216496
_cell_angle_gamma 90.452742
loop_
_atom_site_label
_atom_site_type_symbol
_atom_site_fract_x
_atom_site_fract_y
_atom_site_fract_z
_atom_type_partial_charge
C0 C 0.12686 0.24225 0.12982 0.0
C1 C 0.09793 0.24026 0.12731 0.0
C2 C 0.09516 0.28954 0.11737 0.0
C3 C 0.08225 0.26367 0.1211 0.0
C4 C 0.12409 0.29143 0.1205 0.0
C5 C 0.13971 0.26805 0.12654 0.0
U6 U 0.14534 0.17528 0.16847 0.0
O7 O 0.1625 0.13646 0.15293 0.0
O8 O 0.18627 0.16125 0.18264 0.0
C9 C 0.18615 0.13988 0.16603 0.0
C10 C 0.1443 0.21786 0.13505 0.0
C11 C 0.21169 0.13556 0.14998 0.0
C12 C 0.23595 0.13055 0.10647 0.0
C13 C 0.2117 0.13611 0.12106 0.0
C14 C 0.2607 0.12437 0.1494 0.0
C15 C 0.26077 0.12448 0.12044 0.0
C16 C 0.23642 0.12976 0.16396 0.0
C17 C 0.10135 0.14762 0.22712 0.0
C18 C 0.11331 0.10477 0.25002 0.0
C19 C 0.07808 0.13418 0.26936 0.0
C20 C 0.08171 0.15276 0.24758 0.0
C21 C 0.09412 0.11012 0.27105 0.0
C22 C 0.11695 0.12339 0.22831 0.0
C23 C 0.10636 0.16817 0.20538 0.0
O24 O 0.15795 0.21787 0.1585 0.0
O25 O 0.13371 0.19361 0.12868 0.0
O26 O 0.10434 0.15901 0.17999 0.0
O27 O 0.12814 0.18408 0.20936 0.0
H28 H 0.08744 0.2206 0.12981 0.0
H29 H 0.06008 0.26135 0.11862 0.0
H30 H 0.13474 0.31103 0.11835 0.0
H31 H 0.16198 0.27011 0.12849 0.0
H32 H 0.23506 0.13048 0.0842 0.0
H33 H 0.19292 0.1405 0.10969 0.0
H34 H 0.27945 0.12026 0.16091 0.0
H35 H 0.23692 0.12923 0.18625 0.0
H36 H 0.12574 0.08629 0.25045 0.0
H37 H 0.06339 0.13915 0.28535 0.0
H38 H 0.06959 0.17146 0.24704 0.0
H39 H 0.13226 0.11909 0.21268 0.0
C40 C 0.31089 0.85583 0.621 0.0
C41 C 0.28974 0.86583 0.63798 0.0
C42 C 0.26735 0.88726 0.59842 0.0
C43 C 0.26805 0.88127 0.62675 0.0
C44 C 0.28849 0.87704 0.58153 0.0
C45 C 0.30997 0.86144 0.59271 0.0
U46 U 0.36585 0.84315 0.67641 0.0
O47 O 0.38254 0.80452 0.69318 0.0
O48 O 0.41006 0.83363 0.67181 0.0
C49 C 0.40723 0.80891 0.68264 0.0
C50 C 0.33448 0.84023 0.63225 0.0
C51 C 0.41985 0.78594 0.66703 0.0
C52 C 0.41901 0.73878 0.64965 0.0
C53 C 0.40598 0.7606 0.66317 0.0
C54 C 0.45978 0.76729 0.64317 0.0
C55 C 0.44618 0.74175 0.63968 0.0
C56 C 0.44682 0.78902 0.65679 0.0
C57 C 0.36623 0.89269 0.73912 0.0
C58 C 0.40353 0.9009 0.77201 0.0
C59 C 0.35925 0.92311 0.77806 0.0
C60 C 0.34916 0.91 0.75447 0.0
C61 C 0.38671 0.91921 0.78681 0.0
C62 C 0.39338 0.88779 0.74823 0.0
C63 C 0.35555 0.88164 0.71291 0.0
O64 O 0.35814 0.85374 0.633 0.0
O65 O 0.32982 0.82559 0.65459 0.0
O66 O 0.34409 0.85699 0.71368 0.0
O67 O 0.37126 0.88562 0.69123 0.0
H68 H 0.2901 0.86199 0.65994 0.0
H69 H 0.2522 0.88907 0.64031 0.0
H70 H 0.28836 0.88105 0.55959 0.0
H71 H 0.32606 0.85392 0.57925 0.0
H72 H 0.408 0.71934 0.64766 0.0
H73 H 0.38522 0.75743 0.67092 0.0
H74 H 0.48051 0.77054 0.63539 0.0
H75 H 0.45806 0.80825 0.65953 0.0
H76 H 0.4248 0.89756 0.77819 0.0
H77 H 0.34561 0.93668 0.78925 0.0
H78 H 0.32813 0.91394 0.74782 0.0
H79 H 0.40688 0.87444 0.73661 0.0
C80 C 0.6233 0.3727 0.80156 0.0
C81 C 0.64459 0.38773 0.78874 0.0
C82 C 0.61255 0.40317 0.75315 0.0
C83 C 0.63931 0.40268 0.76471 0.0
C84 C 0.59126 0.38818 0.76624 0.0
C85 C 0.59663 0.37306 0.79018 0.0
U86 U 0.66381 0.36226 0.86784 0.0
O87 O 0.65034 0.35037 0.90932 0.0
O88 O 0.67963 0.32429 0.887 0.0
C89 C 0.66329 0.32662 0.90842 0.0
C90 C 0.62857 0.35697 0.82695 0.0
C91 C 0.64653 0.30194 0.91498 0.0
C92 C 0.60211 0.27828 0.91783 0.0
C93 C 0.61761 0.30198 0.91202 0.0
C94 C 0.64415 0.25395 0.92939 0.0
C95 C 0.61517 0.25387 0.92638 0.0
C96 C 0.65964 0.27779 0.92381 0.0
C97 C 0.721 0.41597 0.88477 0.0
C98 C 0.76731 0.41488 0.90469 0.0
C99 C 0.74038 0.45672 0.90683 0.0
C100 C 0.71856 0.44346 0.89326 0.0
C101 C 0.7653 0.44284 0.91202 0.0
C102 C 0.74535 0.40154 0.89113 0.0
C103 C 0.6988 0.40387 0.86751 0.0
O104 O 0.65234 0.34399 0.828 0.0
O105 O 0.62259 0.3698 0.84995 0.0
O106 O 0.67356 0.40561 0.87731 0.0
O107 O 0.70383 0.38014 0.8555 0.0
H108 H 0.66533 0.38787 0.79728 0.0
H109 H 0.65631 0.41362 0.75504 0.0
H110 H 0.57032 0.38843 0.75824 0.0
H111 H 0.57989 0.36175 0.79992 0.0
H112 H 0.57982 0.27919 0.91575 0.0
H113 H 0.60692 0.3203 0.90513 0.0
H114 H 0.65497 0.23547 0.93556 0.0
H115 H 0.68194 0.27728 0.9261 0.0
H116 H 0.78629 0.40369 0.90825 0.0
H117 H 0.73802 0.47813 0.91262 0.0
H118 H 0.70001 0.45502 0.88864 0.0
H119 H 0.74783 0.38028 0.88488 0.0
C120 C 0.79853 0.61824 0.3716 0.0
C121 C 0.77388 0.62777 0.35967 0.0
C122 C 0.74656 0.60074 0.39207 0.0
C123 C 0.74824 0.61926 0.36986 0.0
C124 C 0.77117 0.59183 0.40462 0.0
C125 C 0.79692 0.6004 0.39442 0.0
U126 U 0.86668 0.65989 0.36752 0.0
O127 O 0.90802 0.6468 0.35402 0.0
O128 O 0.88628 0.67966 0.33184 0.0
C129 C 0.90789 0.66342 0.33263 0.0
C130 C 0.8254 0.62552 0.35873 0.0
C131 C 0.91561 0.65129 0.30609 0.0
C132 C 0.90544 0.6222 0.26647 0.0
C133 C 0.89902 0.6312 0.29311 0.0
C134 C 0.94539 0.65272 0.26609 0.0
C135 C 0.92832 0.63345 0.25247 0.0
C136 C 0.93908 0.66154 0.29264 0.0
C137 C 0.88443 0.71473 0.42105 0.0
C138 C 0.91673 0.7527 0.41355 0.0
C139 C 0.90261 0.74073 0.45987 0.0
C140 C 0.88586 0.71953 0.44944 0.0
C141 C 0.91815 0.75762 0.44204 0.0
C142 C 0.90013 0.73133 0.40315 0.0
C143 C 0.86626 0.6926 0.41048 0.0
O144 O 0.82703 0.65011 0.34741 0.0
O145 O 0.84805 0.61857 0.37208 0.0
O146 O 0.87658 0.66761 0.41119 0.0
O147 O 0.8532 0.69812 0.38737 0.0
H148 H 0.77436 0.64138 0.34198 0.0
H149 H 0.72966 0.62682 0.35997 0.0
H150 H 0.77055 0.57736 0.42161 0.0
H151 H 0.8155 0.59247 0.404 0.0
H152 H 0.89189 0.60743 0.25639 0.0
H153 H 0.88073 0.62315 0.30324 0.0
H154 H 0.96335 0.66147 0.25593 0.0
H155 H 0.95212 0.67701 0.30237 0.0
H156 H 0.92869 0.76518 0.39935 0.0
H157 H 0.90305 0.74419 0.48188 0.0
H158 H 0.87388 0.70696 0.46355 0.0
H159 H 0.8995 0.72783 0.38114 0.0
C160 C 0.8713 0.81109 0.90472 0.0
C161 C 0.87729 0.791 0.88474 0.0
C162 C 0.90849 0.76788 0.91667 0.0
C163 C 0.89562 0.76953 0.89073 0.0
C164 C 0.90219 0.78779 0.93666 0.0
C165 C 0.88373 0.80904 0.93078 0.0
U166 U 0.85114 0.87643 0.86516 0.0
O167 O 0.81059 0.89134 0.8511 0.0
O168 O 0.83484 0.91563 0.88079 0.0
C169 C 0.81113 0.9127 0.86775 0.0
C170 C 0.85231 0.83429 0.89908 0.0
C171 C 0.78625 0.91644 0.88465 0.0
C172 C 0.75436 0.90027 0.9198 0.0
C173 C 0.77845 0.89671 0.90432 0.0
C174 C 0.74592 0.94355 0.89641 0.0
C175 C 0.73768 0.92366 0.9159 0.0
C176 C 0.76997 0.93993 0.88093 0.0
C177 C 0.9009 0.90145 0.80731 0.0
C178 C 0.90432 0.91316 0.7586 0.0
C179 C 0.93413 0.93603 0.7917 0.0
C180 C 0.92177 0.921 0.81297 0.0
C181 C 0.9261 0.93174 0.76419 0.0
C182 C 0.89194 0.89808 0.77991 0.0
C183 C 0.89133 0.88244 0.82933 0.0
O184 O 0.86192 0.85889 0.90553 0.0
O185 O 0.83875 0.83389 0.87555 0.0
O186 O 0.86888 0.86769 0.82446 0.0
O187 O 0.89278 0.89163 0.85475 0.0
H188 H 0.86802 0.79194 0.86444 0.0
H189 H 0.90016 0.75454 0.87489 0.0
H190 H 0.91141 0.78684 0.95698 0.0
H191 H 0.87928 0.82405 0.94663 0.0
H192 H 0.74883 0.88473 0.93486 0.0
H193 H 0.79089 0.8785 0.90757 0.0
H194 H 0.73342 0.9616 0.89261 0.0
H195 H 0.77571 0.95537 0.86581 0.0
H196 H 0.89785 0.90916 0.7376 0.0
H197 H 0.95063 0.95043 0.79673 0.0
H198 H 0.92937 0.92397 0.83377 0.0
H199 H 0.87616 0.88296 0.77472 0.0
C200 C 0.63045 0.1439 0.30737 0.0
C201 C 0.63491 0.11534 0.30625 0.0
C202 C 0.61325 0.11315 0.26088 0.0
C203 C 0.62628 0.10011 0.28328 0.0
C204 C 0.60996 0.14193 0.26157 0.0
C205 C 0.61839 0.15713 0.28467 0.0
U206 U 0.67297 0.15778 0.37292 0.0
O207 O 0.68544 0.19719 0.39198 0.0
O208 O 0.65863 0.16835 0.41445 0.0
C209 C 0.6696 0.19323 0.41358 0.0
C210 C 0.63675 0.15988 0.3325 0.0
C211 C 0.65054 0.21589 0.41993 0.0
C212 C 0.60741 0.24 0.41163 0.0
C213 C 0.6251 0.21801 0.40614 0.0
C214 C 0.64028 0.25798 0.44496 0.0
C215 C 0.61489 0.26047 0.43087 0.0
C216 C 0.65793 0.23587 0.4395 0.0
C217 C 0.73465 0.10896 0.38783 0.0
C218 C 0.76661 0.11082 0.42668 0.0
C219 C 0.76912 0.07336 0.39386 0.0
C220 C 0.74725 0.08467 0.37897 0.0
C221 C 0.77891 0.08605 0.41807 0.0
C222 C 0.74451 0.12216 0.41169 0.0
C223 C 0.71118 0.11954 0.3717 0.0
O224 O 0.63214 0.14707 0.35591 0.0
O225 O 0.66001 0.17409 0.33247 0.0
O226 O 0.71439 0.14403 0.3605 0.0
O227 O 0.68649 0.11557 0.38228 0.0
H228 H 0.64443 0.1047 0.32342 0.0
H229 H 0.62942 0.07802 0.28322 0.0
H230 H 0.59981 0.15254 0.24476 0.0
H231 H 0.61478 0.17914 0.28511 0.0
H232 H 0.58788 0.24099 0.40069 0.0
H233 H 0.619 0.20276 0.39095 0.0
H234 H 0.64688 0.2735 0.45963 0.0
H235 H 0.67753 0.23459 0.4503 0.0
H236 H 0.77364 0.12103 0.44527 0.0
H237 H 0.77844 0.0546 0.38631 0.0
H238 H 0.74003 0.0743 0.36051 0.0
H239 H 0.735 0.14099 0.41881 0.0
C240 C 0.31247 0.60465 0.14073 0.0
C241 C 0.30995 0.61945 0.11606 0.0
C242 C 0.26603 0.59646 0.10647 0.0
C243 C 0.28697 0.61532 0.09902 0.0
C244 C 0.26932 0.58077 0.13062 0.0
C245 C 0.29236 0.58491 0.14766 0.0
U246 U 0.36814 0.65422 0.16435 0.0
O247 O 0.37682 0.67086 0.20558 0.0
O248 O 0.4088 0.64778 0.18368 0.0
C249 C 0.40115 0.65904 0.20703 0.0
C250 C 0.3343 0.61187 0.16055 0.0
C251 C 0.40546 0.64194 0.23155 0.0
C252 C 0.39524 0.60053 0.25779 0.0
C253 C 0.39099 0.61695 0.23456 0.0
C254 C 0.42817 0.63413 0.27545 0.0
C255 C 0.41401 0.60884 0.27842 0.0
C256 C 0.42393 0.65054 0.25215 0.0
C257 C 0.38138 0.71876 0.12158 0.0
C258 C 0.41086 0.75596 0.13819 0.0
C259 C 0.38876 0.75951 0.09347 0.0
C260 C 0.37667 0.73351 0.09725 0.0
C261 C 0.40569 0.77118 0.11406 0.0
C262 C 0.39881 0.72993 0.1419 0.0
C263 C 0.36717 0.69232 0.126 0.0
O264 O 0.35974 0.61157 0.15104 0.0
O265 O 0.32896 0.63387 0.17529 0.0
O266 O 0.35005 0.69181 0.14694 0.0
O267 O 0.38284 0.67033 0.1246 0.0
H268 H 0.32525 0.6349 0.11049 0.0
H269 H 0.2852 0.62745 0.08038 0.0
H270 H 0.25343 0.56631 0.13708 0.0
H271 H 0.29392 0.57349 0.16677 0.0
H272 H 0.38377 0.58134 0.25963 0.0
H273 H 0.37648 0.61013 0.21888 0.0
H274 H 0.443 0.64094 0.29082 0.0
H275 H 0.43521 0.66982 0.25011 0.0
H276 H 0.42409 0.76424 0.15426 0.0
H277 H 0.38413 0.77083 0.07481 0.0
H278 H 0.36319 0.72515 0.08139 0.0
H279 H 0.40272 0.7187 0.16079 0.0
C280 C 0.10853 0.30254 0.64741 0.0
C281 C 0.11551 0.30155 0.61943 0.0
C282 C 0.09721 0.25468 0.61614 0.0
C283 C 0.10973 0.27795 0.60392 0.0
C284 C 0.08989 0.25595 0.64413 0.0
C285 C 0.0955 0.2797 0.65959 0.0
U286 U 0.15537 0.36399 0.66251 0.0
O287 O 0.14502 0.40619 0.67564 0.0
O288 O 0.1718 0.38038 0.70139 0.0
C289 C 0.15781 0.40344 0.69939 0.0
C290 C 0.11564 0.32684 0.66423 0.0
C291 C 0.14175 0.41084 0.72392 0.0
C292 C 0.11331 0.39746 0.76287 0.0
C293 C 0.12628 0.39082 0.73812 0.0
C294 C 0.12982 0.44459 0.75876 0.0
C295 C 0.11538 0.42428 0.77372 0.0
C296 C 0.14301 0.43786 0.7341 0.0
C297 C 0.21844 0.37669 0.61724 0.0
C298 C 0.24834 0.41667 0.6236 0.0
C299 C 0.26072 0.38136 0.5907 0.0
C300 C 0.23676 0.36651 0.59748 0.0
C301 C 0.2667 0.40671 0.60356 0.0
C302 C 0.22444 0.40175 0.63041 0.0
C303 C 0.19341 0.36082 0.62422 0.0
O304 O 0.13862 0.32482 0.67861 0.0
O305 O 0.11302 0.35086 0.65193 0.0
O306 O 0.16983 0.37375 0.62071 0.0
O307 O 0.19467 0.3472 0.64755 0.0
H308 H 0.12568 0.31892 0.60961 0.0
H309 H 0.11523 0.27792 0.58234 0.0
H310 H 0.08057 0.23834 0.65431 0.0
H311 H 0.0901 0.28005 0.68121 0.0
H312 H 0.10204 0.38149 0.7738 0.0
H313 H 0.12484 0.36988 0.73044 0.0
H314 H 0.13192 0.46536 0.76672 0.0
H315 H 0.15482 0.45358 0.72336 0.0
H316 H 0.25252 0.43593 0.63414 0.0
H317 H 0.27426 0.37327 0.57499 0.0
H318 H 0.23245 0.34713 0.58719 0.0
H319 H 0.21062 0.40978 0.64593 0.0
O320 O 0.02277 0.0666 0.54276 0.0
Zn321 Zn 1.00272 0.02962 0.53748 0.0
O322 O 0.02613 0.00368 0.51634 0.0
Zn323 Zn 0.00694 0.99225 0.48243 0.0
Zn324 Zn 0.06112 0.02109 0.5066 0.0
Zn325 Zn 0.03502 0.97132 0.53859 0.0
O326 O 1.00239 0.95059 0.48095 0.0
O327 O 0.01909 0.93701 0.52137 0.0
O328 O 0.96562 0.0359 0.51804 0.0
O329 O 0.96841 0.00746 0.48222 0.0
O330 O 0.02678 0.00617 0.44789 0.0
O331 O 0.06526 0.02406 0.46584 0.0
O332 O 0.09437 1.00059 0.52075 0.0
O333 O 0.99464 0.01394 0.57578 0.0
O334 O 0.07615 0.96525 0.54331 0.0
O335 O 0.01938 0.97539 0.57641 0.0
C336 C 0.04679 0.07483 0.53536 0.0
C337 C 0.00744 0.93161 0.49841 0.0
C338 C 0.05029 0.01797 0.44511 0.0
C339 C 0.95501 0.02465 0.4967 0.0
C340 C 0.09719 0.97876 0.535 0.0
C341 C 0.00357 0.99256 0.58818 0.0
O342 O 0.06284 0.05924 0.52183 0.0
O343 O 0.50145 0.07422 0.9867 0.0
Zn344 Zn 0.47839 0.04227 0.9997 0.0
O345 O 0.5 0.01812 0.0235 0.0
Zn346 Zn 0.50123 0.9812 0.00672 0.0
Zn347 Zn 0.53779 0.03347 0.02834 0.0
Zn348 Zn 0.48171 0.01567 0.05924 0.0
O349 O 0.48482 0.95214 0.03196 0.0
O350 O 0.4712 0.97659 0.06797 0.0
O351 O 0.46475 0.0222 0.96602 0.0
O352 O 0.48035 0.97953 0.97028 0.0
O353 O 0.54078 0.97097 0.99919 0.0
O354 O 0.56628 0.00679 0.013 0.0
O355 O 0.54646 0.04098 0.06892 0.0
O356 O 0.44511 0.0576 0.0193 0.0
O357 O 0.50745 0.02794 0.08944 0.0
O358 O 0.44691 0.03869 0.06083 0.0
C359 C 0.526 0.08269 0.99148 0.0
C360 C 0.47371 0.9536 0.05565 0.0
C361 C 0.56421 0.98282 1.00231 0.0
C362 C 0.46696 0.99771 0.95688 0.0
C363 C 0.53208 0.03738 0.09062 0.0
C364 C 0.43512 0.05429 0.04331 0.0
O365 O 0.54217 0.06949 0.00746 0.0
O366 O 0.55822 0.5037 0.5641 0.0
Zn367 Zn 0.54393 0.52436 0.5308 0.0
O368 O 0.5134 0.50334 0.51369 0.0
Zn369 Zn 0.52315 0.4937 0.47646 0.0
Zn370 Zn 0.50595 0.46875 0.53387 0.0
Zn371 Zn 0.48052 0.52665 0.51177 0.0
O372 O 0.49474 0.50561 0.44927 0.0
O373 O 0.46854 0.53486 0.47239 0.0
O374 O 0.57518 0.53238 0.50346 0.0
O375 O 0.55833 0.51237 0.46584 0.0
O376 O 0.52816 0.4533 0.47158 0.0
O377 O 0.5169 0.43454 0.51169 0.0
O378 O 0.46499 0.4663 0.54425 0.0
O379 O 0.5301 0.56103 0.54522 0.0
O380 O 0.44905 0.50681 0.52997 0.0
O381 O 0.48612 0.56256 0.53209 0.0
C382 C 0.54962 0.48251 0.57723 0.0
C383 C 0.47532 0.52308 0.45001 0.0
C384 C 0.5252 0.43226 0.48692 0.0
C385 C 0.57699 0.52655 0.47792 0.0
C386 C 0.44528 0.48353 0.54159 0.0
C387 C 0.50688 0.57331 0.54438 0.0
O388 O 0.52919 0.46811 0.56852 0.0
O389 O 0.97399 0.5377 0.06522 0.0
Zn390 Zn 0.98402 0.51298 0.03246 0.0
O391 O 0.01218 0.53137 0.00878 0.0
Zn392 Zn 0.99878 0.53664 0.97087 0.0
Zn393 Zn 0.02146 0.56756 0.02314 0.0
Zn394 Zn 0.04578 0.50934 0.00851 0.0
O395 O 0.02196 0.51536 0.9432 0.0
O396 O 0.05303 0.4955 0.97045 0.0
O397 O 0.94879 0.50556 0.01 0.0
O398 O 0.95998 0.5226 0.96887 0.0
O399 O 0.99609 0.57706 0.95962 0.0
O400 O 0.0118 0.59795 0.99712 0.0
O401 O 0.06183 0.57157 0.03124 0.0
O402 O 0.99846 0.47641 0.04775 0.0
O403 O 0.07957 0.53067 0.02163 0.0
O404 O 0.04156 0.47578 0.03214 0.0
C405 C 0.98238 0.56188 0.07174 0.0
C406 C 0.04255 0.49941 0.94671 0.0
C407 C 1.00196 0.59899 0.97287 0.0
C408 C 0.94269 0.51114 0.98502 0.0
C409 C 0.08242 0.55549 0.02976 0.0
C410 C 0.02203 0.46484 0.04596 0.0
O411 O 1.00026 0.57469 0.05734 0.0
H412 H 0.04719 0.09355 0.29923 0.0
H413 H 0.13662 0.08546 0.29874 0.0
H414 H 0.13416 0.05697 0.3406 0.0
H415 H 0.04057 0.10132 0.371 0.0
H416 H 0.00872 0.08195 0.37377 0.0
H417 H 0.01704 0.09946 0.34216 0.0
H418 H 0.01168 0.05352 0.31545 0.0
H419 H 0.00339 0.03582 0.34704 0.0
H420 H 0.03152 0.02397 0.32598 0.0
H421 H 0.12301 0.0337 0.38466 0.0
H422 H 0.10355 0.0162 0.4282 0.0
H423 H 0.02109 0.03793 0.40062 0.0
C424 C 0.06623 0.08559 0.3078 0.0
C425 C 0.0921 0.09159 0.29545 0.0
C426 C 0.11651 0.08073 0.30738 0.0
C427 C 0.11535 0.0646 0.33127 0.0
C428 C 0.08962 0.0593 0.34301 0.0
C429 C 0.06545 0.06931 0.33167 0.0
C430 C 0.04065 0.06168 0.34928 0.0
C431 C 0.02589 0.08765 0.35967 0.0
C432 C 0.02063 0.04261 0.33349 0.0
C433 C 0.05479 0.04644 0.37265 0.0
C434 C 0.08304 0.04524 0.36845 0.0
C435 C 0.10088 0.03408 0.38798 0.0
C436 C 0.08966 0.02425 0.41265 0.0
C437 C 0.06083 0.0254 0.41757 0.0
C438 C 0.04312 0.03618 0.39707 0.0
H439 H 0.41923 0.90151 0.83033 0.0
H440 H 0.37957 0.97402 0.79631 0.0
H441 H 0.39625 1.00157 0.83564 0.0
H442 H 0.40427 0.91599 0.90101 0.0
H443 H 0.43689 0.90368 0.91403 0.0
H444 H 0.42261 0.88948 0.88277 0.0
H445 H 0.46768 0.90209 0.8568 0.0
H446 H 0.48214 0.91626 0.88801 0.0
H447 H 0.48025 0.93719 0.8574 0.0
H448 H 0.41604 0.02121 0.87857 0.0
H449 H 0.43822 0.03215 0.92288 0.0
H450 H 0.46568 0.94731 0.93002 0.0
C451 C 0.41431 0.92324 0.83108 0.0
C452 C 0.39789 0.93556 0.81031 0.0
C453 C 0.39171 0.96402 0.81216 0.0
C454 C 0.40122 0.9799 0.83434 0.0
C455 C 0.417 0.96711 0.8546 0.0
C456 C 0.42359 0.93947 0.85325 0.0
C457 C 0.4405 0.93089 0.8782 0.0
C458 C 0.42514 0.9087 0.89499 0.0
C459 C 0.46935 0.92103 0.86958 0.0
C460 C 0.44221 0.958 0.89375 0.0
C461 C 0.42853 0.97857 0.87965 0.0
C462 C 0.42689 0.00532 0.88981 0.0
C463 C 0.43957 0.0113 0.91508 0.0
C464 C 0.45376 0.99064 0.93009 0.0
C465 C 0.45506 0.96361 0.91913 0.0
H466 H 0.57805 0.3894 0.70989 0.0
H467 H 0.63401 0.45379 0.73868 0.0
H468 H 0.62513 0.48032 0.69629 0.0
H469 H 0.59509 0.39363 0.63823 0.0
H470 H 0.56002 0.38806 0.62664 0.0
H471 H 0.57136 0.37369 0.65891 0.0
H472 H 0.53136 0.39836 0.68406 0.0
H473 H 0.51984 0.41271 0.65185 0.0
H474 H 0.52766 0.43515 0.68044 0.0
H475 H 0.61007 0.49998 0.65073 0.0
H476 H 0.58867 0.51205 0.60617 0.0
H477 H 0.54119 0.43564 0.60806 0.0
C478 C 0.58829 0.40918 0.70747 0.0
C479 C 0.6069 0.41935 0.72768 0.0
C480 C 0.62009 0.44522 0.72336 0.0
C481 C 0.61505 0.46056 0.69939 0.0
C482 C 0.59666 0.44987 0.67994 0.0
C483 C 0.58337 0.42484 0.68378 0.0
C484 C 0.56416 0.41823 0.65994 0.0
C485 C 0.57321 0.39184 0.64505 0.0
C486 C 0.53397 0.41599 0.66966 0.0
C487 C 0.56867 0.4435 0.64213 0.0
C488 C 0.5876 0.46143 0.65396 0.0
C489 C 0.59518 0.48612 0.64128 0.0
C490 C 0.58294 0.49276 0.61592 0.0
C491 C 0.56319 0.47484 0.60355 0.0
C492 C 0.55613 0.44985 0.61693 0.0
H493 H 0.9305 0.58238 0.22715 0.0
H494 H 0.93774 0.67026 0.21151 0.0
H495 H 0.9488 0.66091 0.16303 0.0
H496 H 0.98678 0.56249 0.1854 0.0
H497 H 0.97089 0.53131 0.17251 0.0
H498 H 0.96114 0.54456 0.20565 0.0
H499 H 0.9098 0.54541 0.19023 0.0
H500 H 0.91941 0.53211 0.157 0.0
H501 H 0.90033 0.5638 0.15939 0.0
H502 H 0.96221 0.64296 0.11797 0.0
H503 H 0.97762 0.61705 0.07753 0.0
H504 H 0.96165 0.53996 0.12039 0.0
C505 C 0.934 0.59957 0.21333 0.0
C506 C 0.93341 0.62707 0.22307 0.0
C507 C 0.93842 0.64907 0.20454 0.0
C508 C 0.94453 0.64398 0.17693 0.0
C509 C 0.94545 0.61674 0.16805 0.0
C510 C 0.94029 0.59483 0.18553 0.0
C511 C 0.94416 0.56755 0.17068 0.0
C512 C 0.96711 0.55048 0.18438 0.0
C513 C 0.91679 0.55126 0.16924 0.0
C514 C 0.95285 0.57768 0.14236 0.0
C515 C 0.95319 0.60616 0.14145 0.0
C516 C 0.96178 0.62065 0.11828 0.0
C517 C 0.97062 0.6057 0.09545 0.0
C518 C 0.97081 0.57648 0.09577 0.0
C519 C 0.96136 0.56226 0.11944 0.0
H520 H 0.3007 0.08608 0.13311 0.0
H521 H 0.27939 0.14837 0.07253 0.0
H522 H 0.32145 0.13717 0.04635 0.0
H523 H 0.37453 0.09946 0.13253 0.0
H524 H 0.38341 0.06367 0.13673 0.0
H525 H 0.35143 0.0764 0.15056 0.0
H526 H 0.32418 0.03917 0.12321 0.0
H527 H 0.35605 0.02637 0.10925 0.0
H528 H 0.32856 0.03685 0.08646 0.0
H529 H 0.36554 0.11871 0.02632 0.0
H530 H 0.40887 0.09505 0.01442 0.0
H531 H 0.40246 0.04605 0.08901 0.0
C532 C 0.30497 0.09765 0.11453 0.0
C533 C 0.28652 0.11809 0.1049 0.0
C534 C 0.29284 0.13232 0.08017 0.0
C535 C 0.31682 0.12624 0.06522 0.0
C536 C 0.33444 0.10597 0.07529 0.0
C537 C 0.3289 0.09197 0.09944 0.0
C538 C 0.35125 0.07112 0.10578 0.0
C539 C 0.36603 0.07809 0.13302 0.0
C540 C 0.33929 0.04163 0.10619 0.0
C541 C 0.37021 0.07552 0.08138 0.0
C542 C 0.36009 0.09566 0.06401 0.0
C543 C 0.37372 0.10299 0.03984 0.0
C544 C 0.39833 0.08938 0.03324 0.0
C545 C 0.40921 0.06871 0.05079 0.0
C546 C 0.39487 0.06185 0.07522 0.0
H547 H 0.21122 0.88388 0.60774 0.0
H548 H 0.27327 0.92994 0.56213 0.0
H549 H 0.23661 0.95855 0.54148 0.0
H550 H 0.15996 0.88277 0.55423 0.0
H551 H 0.13109 0.88663 0.57724 0.0
H552 H 0.16223 0.8702 0.58908 0.0
H553 H 0.16595 0.90512 0.62928 0.0
H554 H 0.13478 0.92163 0.61758 0.0
H555 H 0.16613 0.94156 0.62191 0.0
H556 H 0.19343 0.98217 0.52579 0.0
H557 H 0.14644 0.99854 0.5151 0.0
H558 H 0.11203 0.93674 0.57025 0.0
C559 C 0.21708 0.90015 0.59359 0.0
C560 C 0.24512 0.90467 0.5865 0.0
C561 C 0.25192 0.92592 0.56762 0.0
C562 C 0.23126 0.94238 0.5559 0.0
C563 C 0.20384 0.93729 0.56317 0.0
C564 C 0.19667 0.91667 0.58151 0.0
C565 C 0.16555 0.91513 0.5853 0.0
C566 C 0.15404 0.88701 0.57589 0.0
C567 C 0.15765 0.92123 0.6153 0.0
C568 C 0.15639 0.93808 0.5662 0.0
C569 C 0.17884 0.95067 0.55377 0.0
C570 C 0.17568 0.97247 0.53538 0.0
C571 C 0.14886 0.98164 0.52946 0.0
C572 C 0.12544 0.96894 0.54177 0.0
C573 C 0.12942 0.94685 0.5604 0.0
H574 H 0.80357 0.42653 0.95124 0.0
H575 H 0.78283 0.4938 0.89602 0.0
H576 H 0.8242 0.51934 0.9114 0.0
H577 H 0.83183 0.46978 0.00695 0.0
H578 H 0.85912 0.44601 0.01522 0.0
H579 H 0.82681 0.43335 1.00131 0.0
H580 H 0.85317 0.40927 0.96184 0.0
H581 H 0.88552 0.42184 0.97562 0.0
H582 H 0.8762 0.42928 0.94045 0.0
H583 H 0.86891 0.53604 0.92921 0.0
H584 H 0.91473 0.54405 0.95008 0.0
H585 H 0.90732 0.4672 0.9954 0.0
C586 C 0.80769 0.44672 0.94257 0.0
C587 C 0.78975 0.4583 0.92264 0.0
C588 C 0.79588 0.48474 0.91172 0.0
C589 C 0.81943 0.49938 0.92022 0.0
C590 C 0.83666 0.48741 0.93977 0.0
C591 C 0.83113 0.46179 0.95099 0.0
C592 C 0.85374 0.4535 0.9711 0.0
C593 C 0.84218 0.45049 1.00038 0.0
C594 C 0.868 0.4269 0.96168 0.0
C595 C 0.87305 0.47825 0.96891 0.0
C596 C 0.86263 0.49749 0.95067 0.0
C597 C 0.87717 0.52134 0.94379 0.0
C598 C 0.90321 0.52563 0.95566 0.0
C599 C 0.91442 0.50632 0.97442 0.0
C600 C 0.89897 0.48248 0.98145 0.0
H601 H 0.72668 0.59213 0.44481 0.0
H602 H 0.70488 0.58304 0.35848 0.0
H603 H 0.65954 0.56385 0.37155 0.0
H604 H 0.69375 0.52906 0.46788 0.0
H605 H 0.68176 0.5434 0.49986 0.0
H606 H 0.71269 0.55688 0.48402 0.0
H607 H 0.69181 0.60591 0.48429 0.0
H608 H 0.66082 0.59257 0.50012 0.0
H609 H 0.65861 0.61162 0.46833 0.0
H610 H 0.61752 0.54494 0.39306 0.0
H611 H 0.57969 0.52791 0.4221 0.0
H612 H 0.62716 0.54903 0.49538 0.0
C613 C 0.71235 0.58602 0.42871 0.0
C614 C 0.71926 0.58934 0.40059 0.0
C615 C 0.6999 0.5812 0.38012 0.0
C616 C 0.67415 0.5701 0.38733 0.0
C617 C 0.66795 0.56722 0.41512 0.0
C618 C 0.68635 0.57494 0.43556 0.0
C619 C 0.67418 0.56952 0.46387 0.0
C620 C 0.69164 0.54846 0.47985 0.0
C621 C 0.67118 0.59652 0.4801 0.0
C622 C 0.64612 0.55752 0.45601 0.0
C623 C 0.64318 0.55635 0.42774 0.0
C624 C 0.6195 0.54576 0.41523 0.0
C625 C 0.59813 0.53605 0.432 0.0
C626 C 0.60037 0.53705 0.46111 0.0
C627 C 0.62475 0.54807 0.47324 0.0
H628 H 0.10962 0.33086 0.08134 0.0
H629 H 0.04358 0.30467 0.13598 0.0
H630 H 0.01692 0.34613 0.12326 0.0
H631 H 0.1058 0.40291 0.09695 0.0
H632 H 0.11339 0.4136 0.06224 0.0
H633 H 0.12659 0.38143 0.07509 0.0
H634 H 0.10343 0.35557 0.03429 0.0
H635 H 0.09013 0.38766 0.02134 0.0
H636 H 0.06682 0.35933 0.02831 0.0
H637 H 0.99768 0.39147 0.10449 0.0
H638 H 0.98812 0.43621 0.08183 0.0
H639 H 0.06779 0.43238 0.04108 0.0
C640 C 0.08968 0.33386 0.09091 0.0
C641 C 0.07879 0.31439 0.10974 0.0
C642 C 0.05229 0.31903 0.12125 0.0
C643 C 0.03704 0.34263 0.11427 0.0
C644 C 0.04854 0.36145 0.09576 0.0
C645 C 0.0743 0.35727 0.08429 0.0
C646 C 0.0823 0.38061 0.06517 0.0
C647 C 0.10857 0.39552 0.07549 0.0
C648 C 0.08587 0.37016 0.03552 0.0
C649 C 0.05709 0.39871 0.06772 0.0
C650 C 0.03774 0.38736 0.08534 0.0
C651 C 0.01274 0.40052 0.09068 0.0
C652 C 0.00747 0.42593 0.07771 0.0
C653 C 0.02719 0.43796 0.05971 0.0
C654 C 0.05226 0.42396 0.05478 0.0
H655 H 0.62307 0.21473 0.96692 0.0
H656 H 0.56979 0.23509 0.89772 0.0
H657 H 0.54138 0.19381 0.90713 0.0
H658 H 0.62194 0.14076 0.95538 0.0
H659 H 0.6221 0.13251 0.99156 0.0
H660 H 0.6382 0.16393 0.97964 0.0
H661 H 0.60771 0.19213 0.01294 0.0
H662 H 0.59146 0.16082 0.02489 0.0
H663 H 0.5706 0.18836 0.01135 0.0
H664 H 0.51804 0.15123 0.92451 0.0
H665 H 0.50222 0.10879 0.94767 0.0
H666 H 0.57186 0.11443 0.00423 0.0
C667 C 0.60564 0.21039 0.95351 0.0
C668 C 0.59858 0.22843 0.93171 0.0
C669 C 0.57534 0.22202 0.91492 0.0
C670 C 0.55916 0.19848 0.91996 0.0
C671 C 0.5666 0.18133 0.94169 0.0
C672 C 0.58938 0.18682 0.95809 0.0
C673 C 0.59288 0.16485 0.98002 0.0
C674 C 0.62042 0.14961 0.97642 0.0
C675 C 0.59051 0.17729 0.00902 0.0
C676 C 0.5684 0.14626 0.97345 0.0
C677 C 0.55348 0.15625 0.95133 0.0
C678 C 0.52963 0.1431 0.94177 0.0
C679 C 0.52077 0.11903 0.95513 0.0
C680 C 0.53582 0.1082 0.97774 0.0
C681 C 0.56001 0.12205 0.98689 0.0
H682 H 0.9227 0.81088 0.42303 0.0
H683 H 0.95295 0.75567 0.4865 0.0
H684 H 0.98074 0.79372 0.5064 0.0
H685 H 0.98685 0.8504 0.41432 0.0
H686 H 0.96914 0.88261 0.40939 0.0
H687 H 0.9527 0.8507 0.39927 0.0
H688 H 0.91051 0.86218 0.42982 0.0
H689 H 0.92682 0.89407 0.44005 0.0
H690 H 0.91581 0.86962 0.46581 0.0
H691 H 0.00371 0.83788 0.52044 0.0
H692 H 0.01997 0.88549 0.52829 0.0
H693 H 0.97503 0.91235 0.45558 0.0
C694 C 0.93551 0.80671 0.44086 0.0
C695 C 0.93569 0.7803 0.45322 0.0
C696 C 0.95231 0.7758 0.47685 0.0
C697 C 0.96829 0.79723 0.48819 0.0
C698 C 0.96745 0.82306 0.47566 0.0
C699 C 0.95152 0.82792 0.45252 0.0
C700 C 0.95346 0.85789 0.44376 0.0
C701 C 0.96631 0.86055 0.41498 0.0
C702 C 0.92496 0.87175 0.44495 0.0
C703 C 0.97277 0.86915 0.46576 0.0
C704 C 0.98069 0.84865 0.48385 0.0
C705 C 0.99779 0.85409 0.50634 0.0
C706 C 0.00689 0.88126 0.51062 0.0
C707 C 0.99886 0.90275 0.49254 0.0
C708 C 0.98175 0.89642 0.46967 0.0
H709 H 0.4245 0.70253 0.60422 0.0
H710 H 0.50064 0.72709 0.64552 0.0
H711 H 0.52474 0.68805 0.6241 0.0
H712 H 0.43377 0.62974 0.61267 0.0
H713 H 0.41909 0.621 0.57962 0.0
H714 H 0.40807 0.65166 0.5972 0.0
H715 H 0.42102 0.68105 0.55453 0.0
H716 H 0.43217 0.65048 0.53685 0.0
H717 H 0.4556 0.67931 0.54088 0.0
H718 H 0.54046 0.64561 0.59918 0.0
H719 H 0.54638 0.60239 0.57319 0.0
H720 H 0.45984 0.60474 0.54886 0.0
C721 C 0.44621 0.69969 0.60888 0.0
C722 C 0.46065 0.71815 0.62646 0.0
C723 C 0.48917 0.71367 0.63173 0.0
C724 C 0.50305 0.69142 0.61978 0.0
C725 C 0.4882 0.67368 0.6026 0.0
C726 C 0.46041 0.67751 0.59718 0.0
C727 C 0.44913 0.65505 0.57846 0.0
C728 C 0.42616 0.63838 0.59286 0.0
C729 C 0.43888 0.66721 0.55105 0.0
C730 C 0.47489 0.63789 0.57439 0.0
C731 C 0.49721 0.64907 0.5884 0.0
C732 C 0.52314 0.6367 0.58807 0.0
C733 C 0.52629 0.61212 0.57321 0.0
C734 C 0.50363 0.60007 0.55889 0.0
C735 C 0.47765 0.61337 0.55945 0.0
H736 H 0.90672 0.95515 0.71592 0.0
H737 H 0.98221 0.93593 0.76044 0.0
H738 H 0.00985 0.95342 0.72166 0.0
H739 H 0.9298 0.93443 0.6506 0.0
H740 H 0.91299 0.96158 0.63168 0.0
H741 H 0.89883 0.94994 0.6639 0.0
H742 H 0.90101 0.99985 0.68275 0.0
H743 H 0.91518 0.01167 0.65053 0.0
H744 H 0.93341 0.01852 0.68226 0.0
H745 H 0.02933 0.96754 0.67678 0.0
H746 H 0.03969 0.9801 0.62865 0.0
H747 H 0.95235 0.99271 0.61287 0.0
C748 C 0.92906 0.95496 0.71759 0.0
C749 C 0.94228 0.94441 0.74139 0.0
C750 C 0.97158 0.94441 0.74273 0.0
C751 C 0.98749 0.95419 0.72073 0.0
C752 C 0.97387 0.96417 0.69754 0.0
C753 C 0.94535 0.96493 0.69583 0.0
C754 C 0.93607 0.97575 0.66797 0.0
C755 C 0.91838 0.95413 0.65264 0.0
C756 C 0.9205 0.00308 0.67107 0.0
C757 C 0.96384 0.98016 0.65407 0.0
C758 C 0.98532 0.97334 0.67162 0.0
C759 C 0.01276 0.97349 0.66301 0.0
C760 C 0.01844 0.98056 0.63568 0.0
C761 C 0.99686 0.98776 0.61736 0.0
C762 C 0.96924 0.98797 0.62676 0.0
H763 H 0.61627 0.12319 0.20494 0.0
H764 H 0.58256 0.06596 0.26505 0.0
H765 H 0.56017 0.03943 0.22776 0.0
H766 H 0.55756 0.12448 0.16067 0.0
H767 H 0.5771 0.12577 0.12917 0.0
H768 H 0.59171 0.13971 0.16039 0.0
H769 H 0.63441 0.10824 0.15501 0.0
H770 H 0.61994 0.09423 0.12373 0.0
H771 H 0.62948 0.07153 0.15152 0.0
H772 H 0.53838 0.02133 0.18493 0.0
H773 H 0.52066 0.01081 0.13844 0.0
H774 H 0.56987 0.07802 0.10493 0.0
C775 C 0.60431 0.10497 0.21018 0.0
C776 C 0.60129 0.09656 0.23794 0.0
C777 C 0.58553 0.07256 0.24396 0.0
C778 C 0.57261 0.05743 0.22292 0.0
C779 C 0.57583 0.06634 0.19587 0.0
C780 C 0.5915 0.08936 0.18934 0.0
C781 C 0.59127 0.09455 0.1585 0.0
C782 C 0.57865 0.1228 0.1518 0.0
C783 C 0.62052 0.09198 0.14649 0.0
C784 C 0.5726 0.07114 0.14883 0.0
C785 C 0.56389 0.05523 0.17082 0.0
C786 C 0.54533 0.03339 0.1675 0.0
C787 C 0.5353 0.02765 0.14102 0.0
C788 C 0.54406 0.04345 0.11807 0.0
C789 C 0.5632 0.06532 0.12204 0.0
H790 H 0.42015 0.6237 0.33281 0.0
H791 H 0.42104 0.55301 0.27808 0.0
H792 H 0.43229 0.5228 0.3173 0.0
H793 H 0.47751 0.60418 0.37305 0.0
H794 H 0.46375 0.61648 0.40516 0.0
H795 H 0.45325 0.63223 0.37329 0.0
H796 H 0.40187 0.62233 0.38509 0.0
H797 H 0.41225 0.60644 0.41701 0.0
H798 H 0.39099 0.58755 0.39286 0.0
H799 H 0.4478 0.5011 0.36089 0.0
H800 H 0.46612 0.48894 0.40671 0.0
H801 H 0.45429 0.57313 0.43408 0.0
C802 C 0.42254 0.60184 0.32914 0.0
C803 C 0.41955 0.59068 0.30239 0.0
C804 C 0.42276 0.56195 0.29844 0.0
C805 C 0.42923 0.54463 0.32057 0.0
C806 C 0.43221 0.5563 0.34659 0.0
C807 C 0.42886 0.58419 0.35106 0.0
C808 C 0.43454 0.5916 0.38088 0.0
C809 C 0.4587 0.61234 0.38322 0.0
C810 C 0.40834 0.60263 0.39478 0.0
C811 C 0.44235 0.56361 0.39227 0.0
C812 C 0.4407 0.54355 0.37211 0.0
C813 C 0.44876 0.5165 0.37698 0.0
C814 C 0.45919 0.50981 0.40302 0.0
C815 C 0.46131 0.53004 0.42393 0.0
C816 C 0.45228 0.55716 0.41863 0.0
H817 H 0.0847 0.46906 0.79018 0.0
H818 H 0.122 0.39359 0.82012 0.0
H819 H 0.10629 0.40428 0.8671 0.0
H820 H 0.10165 0.51095 0.84822 0.0
H821 H 0.06955 0.52962 0.84813 0.0
H822 H 0.08283 0.51576 0.81649 0.0
H823 H 0.03683 0.48909 0.80861 0.0
H824 H 0.02336 0.50294 0.84019 0.0
H825 H 0.02411 0.46616 0.83498 0.0
H826 H 0.0896 0.42421 0.91088 0.0
H827 H 0.06993 0.45079 0.94913 0.0
H828 H 0.0413 0.51283 0.8914 0.0
C829 C 0.08941 0.45477 0.80665 0.0
C830 C 0.10445 0.43041 0.80152 0.0
C831 C 0.11016 0.41214 0.82353 0.0
C832 C 0.10147 0.41811 0.8503 0.0
C833 C 0.08685 0.44231 0.85471 0.0
C834 C 0.08056 0.46025 0.83353 0.0
C835 C 0.06457 0.48488 0.84409 0.0
C836 C 0.08061 0.5119 0.83893 0.0
C837 C 0.03549 0.48581 0.8312 0.0
C838 C 0.06325 0.47812 0.87455 0.0
C839 C 0.07639 0.45352 0.88013 0.0
C840 C 0.07902 0.44337 0.90678 0.0
C841 C 0.06788 0.45871 0.92837 0.0
C842 C 0.054 0.48384 0.92324 0.0
C843 C 0.05153 0.49355 0.8959 0.0
H844 H 0.71615 0.97091 0.93878 0.0
H845 H 0.69912 0.88363 0.92731 0.0
H846 H 0.65434 0.88889 0.9508 0.0
H847 H 0.68368 0.97709 0.00634 0.0
H848 H 0.66998 0.01082 0.99919 0.0
H849 H 0.70155 0.99995 0.98301 0.0
H850 H 0.68029 0.00994 0.93504 0.0
H851 H 0.64869 0.02085 0.95106 0.0
H852 H 0.64787 0.99388 0.92556 0.0
H853 H 0.61014 0.90404 0.97243 0.0
H854 H 0.56975 0.92786 0.99173 0.0
H855 H 0.61522 0.00541 0.98981 0.0
C856 C 0.70304 0.95287 0.94128 0.0
C857 C 0.71128 0.92679 0.93127 0.0
C858 C 0.69355 0.90371 0.93516 0.0
C859 C 0.66798 0.90652 0.94838 0.0
C860 C 0.66043 0.93252 0.95776 0.0
C861 C 0.67746 0.95529 0.95453 0.0
C862 C 0.66399 0.98106 0.96581 0.0
C863 C 0.6808 0.99292 0.99003 0.0
C864 C 0.65997 1.0027 0.943 0.0
C865 C 0.6365 0.96929 0.9754 0.0
C866 C 0.63495 0.94123 0.97061 0.0
C867 C 0.6112 0.92595 0.97653 0.0
C868 C 0.58832 0.93971 0.98743 0.0
C869 C 0.58931 0.96849 0.99244 0.0
C870 C 0.61392 0.98335 0.98659 0.0
H871 H 0.82511 0.11046 0.44202 0.0
H872 H 0.78383 0.03147 0.43038 0.0
H873 H 0.82304 0.00804 0.4525 0.0
H874 H 0.89222 0.08822 0.42751 0.0
H875 H 0.9095 0.10886 0.45329 0.0
H876 H 0.87714 0.12012 0.43887 0.0
H877 H 0.85608 0.12296 0.4877 0.0
H878 H 0.88847 0.11184 0.50231 0.0
H879 H 0.85701 0.09316 0.50986 0.0
H880 H 0.8682 0.9925 0.47033 0.0
H881 H 0.91627 0.98584 0.48608 0.0
H882 H 0.9285 0.07442 0.48953 0.0
C883 C 0.82408 0.08831 0.44473 0.0
C884 C 0.80145 0.07278 0.43421 0.0
C885 C 0.80109 0.04378 0.43782 0.0
C886 C 0.82319 0.03027 0.45054 0.0
C887 C 0.84548 0.04602 0.45995 0.0
C888 C 0.84605 0.07441 0.45758 0.0
C889 C 0.87326 0.08612 0.46841 0.0
C890 C 0.88895 0.10174 0.44566 0.0
C891 C 0.86841 0.10461 0.49357 0.0
C892 C 0.88809 0.05978 0.47649 0.0
C893 C 0.87153 0.03695 0.4714 0.0
C894 C 0.88117 0.0102 0.47495 0.0
C895 C 0.90849 0.00661 0.4838 0.0
C896 C 0.92581 0.02959 0.48936 0.0
C897 C 0.91538 0.05655 0.48603 0.0
H898 H 0.23547 0.55031 0.09219 0.0
H899 H 0.23675 0.63962 0.0857 0.0
H900 H 0.19137 0.63828 0.06254 0.0
H901 H 0.20018 0.53712 0.02603 0.0
H902 H 0.18017 0.50872 0.03959 0.0
H903 H 0.21395 0.51637 0.05358 0.0
H904 H 0.19284 0.52012 0.10235 0.0
H905 H 0.15901 0.5126 0.08852 0.0
H906 H 0.16475 0.54363 0.10819 0.0
H907 H 0.14443 0.62803 0.04443 0.0
H908 H 0.09915 0.60918 0.03008 0.0
H909 H 0.12789 0.52629 0.04718 0.0
C910 C 0.2263 0.56954 0.08563 0.0
C911 C 0.23979 0.59506 0.09055 0.0
C912 C 0.22711 0.61979 0.08167 0.0
C913 C 0.20125 0.61927 0.06864 0.0
C914 C 0.18837 0.59385 0.06444 0.0
C915 C 0.2005 0.56939 0.07241 0.0
C916 C 0.18163 0.54499 0.06635 0.0
C917 C 0.19477 0.52566 0.04512 0.0
C918 C 0.17411 0.52943 0.09294 0.0
C919 C 0.15676 0.55967 0.05437 0.0
C920 C 0.16119 0.58785 0.05344 0.0
C921 C 0.1408 0.60599 0.04469 0.0
C922 C 0.11512 0.59508 0.03672 0.0
C923 C 0.11007 0.56627 0.03739 0.0
C924 C 0.13131 0.54835 0.04608 0.0
H925 H 0.31957 0.38817 0.59362 0.0
H926 H 0.26986 0.46234 0.59495 0.0
H927 H 0.31052 0.48983 0.58081 0.0
H928 H 0.38293 0.41964 0.61938 0.0
H929 H 0.40509 0.39956 0.59753 0.0
H930 H 0.37229 0.38561 0.60856 0.0
H931 H 0.35812 0.37737 0.55774 0.0
H932 H 0.39087 0.39126 0.54656 0.0
H933 H 0.35908 0.40578 0.5338 0.0
H934 H 0.35554 0.50903 0.56494 0.0
H935 H 0.4027 0.51927 0.54894 0.0
H936 H 0.42412 0.43286 0.55787 0.0
C937 C 0.31724 0.41019 0.59088 0.0
C938 C 0.29151 0.42312 0.59553 0.0
C939 C 0.28941 0.45203 0.59195 0.0
C940 C 0.31236 0.4678 0.58377 0.0
C941 C 0.33733 0.45442 0.57933 0.0
C942 C 0.34001 0.4263 0.58282 0.0
C943 C 0.36923 0.4171 0.57637 0.0
C944 C 0.38321 0.40475 0.60199 0.0
C945 C 0.36932 0.39667 0.55218 0.0
C946 C 0.38244 0.44443 0.56843 0.0
C947 C 0.3636 0.46562 0.57033 0.0
C948 C 0.37053 0.49264 0.56348 0.0
C949 C 0.39742 0.49821 0.55433 0.0
C950 C 0.41723 0.47689 0.55213 0.0
C951 C 0.40958 0.44965 0.5595 0.0
H952 H 0.90383 0.71221 0.90598 0.0
H953 H 0.95861 0.77364 0.94216 0.0
H954 H 0.99097 0.73701 0.95592 0.0
H955 H 0.91199 0.66248 0.95752 0.0
H956 H 0.91121 0.63308 0.93485 0.0
H957 H 0.89373 0.66425 0.92515 0.0
H958 H 0.92162 0.66604 0.87975 0.0
H959 H 0.93923 0.63483 0.88936 0.0
H960 H 0.95889 0.66543 0.88103 0.0
H961 H 0.01495 0.69408 0.96977 0.0
H962 H 0.02899 0.64721 0.98332 0.0
H963 H 0.95974 0.61284 0.93741 0.0
C964 C 0.92295 0.71795 0.91624 0.0
C965 C 0.92871 0.74579 0.92301 0.0
C966 C 0.95365 0.75245 0.93699 0.0
C967 C 0.97227 0.73181 0.94469 0.0
C968 C 0.96577 0.70455 0.93815 0.0
C969 C 0.94179 0.69753 0.92417 0.0
C970 C 0.93891 0.66645 0.92146 0.0
C971 C 0.91239 0.65596 0.9356 0.0
C972 C 0.93972 0.65768 0.89109 0.0
C973 C 0.96465 0.65714 0.93673 0.0
C974 C 0.97994 0.67953 0.94594 0.0
C975 C 0.00343 0.67637 0.96229 0.0
C976 C 0.01122 0.64968 0.96992 0.0
C977 C 0.99567 0.62641 0.96114 0.0
C978 C 0.97241 0.63021 0.94383 0.0
H979 H 0.42856 0.79504 0.06793 0.0
H980 H 0.40738 0.81179 0.15301 0.0
H981 H 0.42377 0.85978 0.14756 0.0
H982 H 0.49063 0.83793 0.0659 0.0
H983 H 0.48446 0.84944 0.03115 0.0
H984 H 0.47216 0.81601 0.04204 0.0
H985 H 0.4224 0.82893 0.02704 0.0
H986 H 0.43453 0.8624 0.01618 0.0
H987 H 0.4068 0.85961 0.04076 0.0
H988 H 0.44007 0.90629 0.13242 0.0
H989 H 0.4569 0.94822 0.10905 0.0
H990 H 0.46783 0.90149 0.03367 0.0
C991 C 0.42742 0.8088 0.08542 0.0
C992 C 0.4168 0.79963 0.11095 0.0
C993 C 0.41584 0.81822 0.13339 0.0
C994 C 0.42494 0.84556 0.13046 0.0
C995 C 0.43506 0.85397 0.10498 0.0
C996 C 0.43652 0.83615 0.08288 0.0
C997 C 0.44792 0.8506 0.05763 0.0
C998 C 0.47543 0.83773 0.04866 0.0
C999 C 0.42664 0.85037 0.03401 0.0
C1000 C 0.4523 0.87942 0.06893 0.0
C1001 C 0.44474 0.88086 0.09628 0.0
C1002 C 0.44623 0.9054 0.11105 0.0
C1003 C 0.45575 0.92914 0.09753 0.0
C1004 C 0.46376 0.9282 0.0695 0.0
C1005 C 0.46204 0.9029 0.05512 0.0
H1006 H 0.05311 0.21792 0.61799 0.0
H1007 H 0.13229 0.23247 0.57824 0.0
H1008 H 0.12628 0.18965 0.55176 0.0
H1009 H 0.06113 0.145 0.62548 0.0
H1010 H 0.02524 0.13691 0.61892 0.0
H1011 H 0.03473 0.16969 0.63371 0.0
H1012 H 0.00904 0.19484 0.59424 0.0
H1013 H 0.99952 0.16212 0.57927 0.0
H1014 H 0.0179 0.18741 0.55903 0.0
H1015 H 0.11305 0.14501 0.53083 0.0
H1016 H 0.09382 0.10009 0.51706 0.0
H1017 H 0.02338 0.1128 0.57083 0.0
C1018 C 0.0692 0.2121 0.60374 0.0
C1019 C 0.09305 0.22886 0.60002 0.0
C1020 C 0.11353 0.22045 0.58104 0.0
C1021 C 0.11041 0.19603 0.56599 0.0
C1022 C 0.08672 0.18009 0.57014 0.0
C1023 C 0.06647 0.18765 0.58855 0.0
C1024 C 0.04349 0.16615 0.58964 0.0
C1025 C 0.04101 0.1537 0.61866 0.0
C1026 C 0.01585 0.17837 0.57997 0.0
C1027 C 0.05423 0.1452 0.5692 0.0
C1028 C 0.07913 0.15386 0.55814 0.0
C1029 C 0.09353 0.13801 0.53926 0.0
C1030 C 0.08238 0.11244 0.53161 0.0
C1031 C 0.05703 0.10278 0.54285 0.0
C1032 C 0.04268 0.11961 0.56173 0.0
H1033 H 0.60319 0.2877 0.47953 0.0
H1034 H 0.5865 0.28932 0.39165 0.0
H1035 H 0.55804 0.33068 0.3977 0.0
H1036 H 0.53516 0.31273 0.50168 0.0
H1037 H 0.54943 0.33346 0.52912 0.0
H1038 H 0.56674 0.30246 0.51854 0.0
H1039 H 0.61179 0.33044 0.51008 0.0
H1040 H 0.59466 0.36145 0.52073 0.0
H1041 H 0.61098 0.35993 0.48748 0.0
H1042 H 0.53489 0.37364 0.41204 0.0
H1043 H 0.51836 0.41618 0.43398 0.0
H1044 H 0.54901 0.38762 0.51297 0.0
C1045 C 0.59343 0.29667 0.46158 0.0
C1046 C 0.59692 0.28496 0.43511 0.0
C1047 C 0.58372 0.29741 0.4122 0.0
C1048 C 0.56757 0.32103 0.41541 0.0
C1049 C 0.56466 0.33204 0.44167 0.0
C1050 C 0.57713 0.32032 0.46441 0.0
C1051 C 0.57165 0.33721 0.49012 0.0
C1052 C 0.55473 0.32046 0.51111 0.0
C1053 C 0.59889 0.34789 0.50284 0.0
C1054 C 0.55473 0.36059 0.4781 0.0
C1055 C 0.55085 0.35699 0.45012 0.0
C1056 C 0.53745 0.37652 0.43399 0.0
C1057 C 0.52817 0.40064 0.44663 0.0
C1058 C 0.53215 0.40505 0.47519 0.0
C1059 C 0.54515 0.38449 0.49122 0.0
loop_
_geom_bond_atom_site_label_1
_geom_bond_atom_site_label_2
_geom_bond_distance
_geom_bond_site_symmetry_2
_ccdc_geom_bond_type
C0 C1 1.264 . S
C0 C5 1.479 . S
C0 C10 1.465 . S
C1 C0 1.264 . S
C1 C3 1.339 . S
C1 H28 0.931 . S
C2 C3 1.395 . S
C2 C4 1.320 . S
C3 C1 1.339 . S
C3 C2 1.395 . S
C3 H29 0.929 . S
C4 C2 1.320 . S
C4 C5 1.405 . S
C4 H30 0.930 . S
C5 C0 1.479 . S
C5 C4 1.405 . S
C5 H31 0.931 . S
U6 O7 2.454 . S
U6 O8 2.458 . S
U6 C9 2.984 . S
U6 C10 2.847 . S
U6 C23 2.882 . S
U6 O24 2.441 . S
U6 O25 2.420 . S
U6 O26 2.455 . S
U6 O27 2.449 . S
O7 U6 2.454 . S
O7 C9 1.353 . S
O8 U6 2.458 . S
O8 C9 1.286 . S
C9 U6 2.984 . S
C9 O7 1.353 . S
C9 O8 1.286 . S
C9 C11 1.363 . S
C10 C0 1.465 . S
C10 U6 2.847 . S
C10 O24 1.249 . S
C10 O25 1.202 . S
C11 C9 1.363 . S
C11 C13 1.408 . S
C11 C16 1.342 . S
C12 C13 1.310 . S
C12 C15 1.461 . S
C12 H32 0.932 . S
C13 C11 1.408 . S
C13 C12 1.310 . S
C13 H33 0.930 . S
C14 C15 1.474 . S
C14 C16 1.285 . S
C14 H34 0.929 . S
C15 C12 1.461 . S
C15 C14 1.474 . S
C16 C11 1.342 . S
C16 C14 1.285 . S
C16 H35 0.930 . S
C17 C20 1.424 . S
C17 C22 1.245 . S
C17 C23 1.428 . S
C18 C21 1.260 . S
C18 C22 1.477 . S
C18 H36 0.932 . S
C19 C20 1.384 . S
C19 C21 1.479 . S
C19 H37 0.929 . S
C20 C17 1.424 . S
C20 C19 1.384 . S
C20 H38 0.928 . S
C21 C18 1.260 . S
C21 C19 1.479 . S
C22 C17 1.245 . S
C22 C18 1.477 . S
C22 H39 0.932 . S
C23 U6 2.882 . S
C23 C17 1.428 . S
C23 O26 1.301 . S
C23 O27 1.282 . S
O24 U6 2.441 . S
O24 C10 1.249 . S
O25 U6 2.420 . S
O25 C10 1.202 . S
O26 U6 2.455 . S
O26 C23 1.301 . S
O27 U6 2.449 . S
O27 C23 1.282 . S
H28 C1 0.931 . S
H29 C3 0.929 . S
H30 C4 0.930 . S
H31 C5 0.931 . S
H32 C12 0.932 . S
H33 C13 0.930 . S
H34 C14 0.929 . S
H35 C16 0.930 . S
H36 C18 0.932 . S
H37 C19 0.929 . S
H38 C20 0.928 . S
H39 C22 0.932 . S
C40 C41 1.264 . S
C40 C45 1.479 . S
C40 C50 1.465 . S
C41 C40 1.264 . S
C41 C43 1.339 . S
C41 H68 0.931 . S
C42 C43 1.395 . S
C42 C44 1.320 . S
C43 C41 1.339 . S
C43 C42 1.395 . S
C43 H69 0.929 . S
C44 C42 1.320 . S
C44 C45 1.405 . S
C44 H70 0.930 . S
C45 C40 1.479 . S
C45 C44 1.405 . S
C45 H71 0.931 . S
U46 O47 2.454 . S
U46 O48 2.458 . S
U46 C49 2.984 . S
U46 C50 2.847 . S
U46 C63 2.882 . S
U46 O64 2.441 . S
U46 O65 2.420 . S
U46 O66 2.455 . S
U46 O67 2.449 . S
O47 U46 2.454 . S
O47 C49 1.353 . S
O48 U46 2.458 . S
O48 C49 1.286 . S
C49 U46 2.984 . S
C49 O47 1.353 . S
C49 O48 1.286 . S
C49 C51 1.363 . S
C50 C40 1.465 . S
C50 U46 2.847 . S
C50 O64 1.249 . S
C50 O65 1.202 . S
C51 C49 1.363 . S
C51 C53 1.408 . S
C51 C56 1.342 . S
C52 C53 1.310 . S
C52 C55 1.461 . S
C52 H72 0.932 . S
C53 C51 1.408 . S
C53 C52 1.310 . S
C53 H73 0.930 . S
C54 C55 1.474 . S
C54 C56 1.285 . S
C54 H74 0.929 . S
C55 C52 1.461 . S
C55 C54 1.474 . S
C56 C51 1.342 . S
C56 C54 1.285 . S
C56 H75 0.930 . S
C57 C60 1.424 . S
C57 C62 1.245 . S
C57 C63 1.428 . S
C58 C61 1.260 . S
C58 C62 1.477 . S
C58 H76 0.932 . S
C59 C60 1.384 . S
C59 C61 1.479 . S
C59 H77 0.929 . S
C60 C57 1.424 . S
C60 C59 1.384 . S
C60 H78 0.928 . S
C61 C58 1.260 . S
C61 C59 1.479 . S
C62 C57 1.245 . S
C62 C58 1.477 . S
C62 H79 0.932 . S
C63 U46 2.882 . S
C63 C57 1.428 . S
C63 O66 1.301 . S
C63 O67 1.282 . S
O64 U46 2.441 . S
O64 C50 1.249 . S
O65 U46 2.420 . S
O65 C50 1.202 . S
O66 U46 2.455 . S
O66 C63 1.301 . S
O67 U46 2.449 . S
O67 C63 1.282 . S
H68 C41 0.931 . S
H69 C43 0.929 . S
H70 C44 0.930 . S
H71 C45 0.931 . S
H72 C52 0.932 . S
H73 C53 0.930 . S
H74 C54 0.929 . S
H75 C56 0.930 . S
H76 C58 0.932 . S
H77 C59 0.929 . S
H78 C60 0.928 . S
H79 C62 0.932 . S
C80 C81 1.264 . S
C80 C85 1.479 . S
C80 C90 1.465 . S
C81 C80 1.264 . S
C81 C83 1.339 . S
C81 H108 0.931 . S
C82 C83 1.395 . S
C82 C84 1.320 . S
C83 C81 1.339 . S
C83 C82 1.395 . S
C83 H109 0.929 . S
C84 C82 1.320 . S
C84 C85 1.405 . S
C84 H110 0.930 . S
C85 C80 1.479 . S
C85 C84 1.405 . S
C85 H111 0.931 . S
U86 O87 2.454 . S
U86 O88 2.458 . S
U86 C89 2.984 . S
U86 C90 2.847 . S
U86 C103 2.882 . S
U86 O104 2.441 . S
U86 O105 2.420 . S
U86 O106 2.455 . S
U86 O107 2.449 . S
O87 U86 2.454 . S
O87 C89 1.353 . S
O88 U86 2.458 . S
O88 C89 1.286 . S
C89 U86 2.984 . S
C89 O87 1.353 . S
C89 O88 1.286 . S
C89 C91 1.363 . S
C90 C80 1.465 . S
C90 U86 2.847 . S
C90 O104 1.249 . S
C90 O105 1.202 . S
C91 C89 1.363 . S
C91 C93 1.408 . S
C91 C96 1.342 . S
C92 C93 1.310 . S
C92 C95 1.461 . S
C92 H112 0.932 . S
C93 C91 1.408 . S
C93 C92 1.310 . S
C93 H113 0.930 . S
C94 C95 1.474 . S
C94 C96 1.285 . S
C94 H114 0.929 . S
C95 C92 1.461 . S
C95 C94 1.474 . S
C96 C91 1.342 . S
C96 C94 1.285 . S
C96 H115 0.930 . S
C97 C100 1.424 . S
C97 C102 1.245 . S
C97 C103 1.428 . S
C98 C101 1.260 . S
C98 C102 1.477 . S
C98 H116 0.932 . S
C99 C100 1.384 . S
C99 C101 1.479 . S
C99 H117 0.929 . S
C100 C97 1.424 . S
C100 C99 1.384 . S
C100 H118 0.928 . S
C101 C98 1.260 . S
C101 C99 1.479 . S
C102 C97 1.245 . S
C102 C98 1.477 . S
C102 H119 0.932 . S
C103 U86 2.882 . S
C103 C97 1.428 . S
C103 O106 1.301 . S
C103 O107 1.282 . S
O104 U86 2.441 . S
O104 C90 1.249 . S
O105 U86 2.420 . S
O105 C90 1.202 . S
O106 U86 2.455 . S
O106 C103 1.301 . S
O107 U86 2.449 . S
O107 C103 1.282 . S
H108 C81 0.931 . S
H109 C83 0.929 . S
H110 C84 0.930 . S
H111 C85 0.931 . S
H112 C92 0.932 . S
H113 C93 0.930 . S
H114 C94 0.929 . S
H115 C96 0.930 . S
H116 C98 0.932 . S
H117 C99 0.929 . S
H118 C100 0.928 . S
H119 C102 0.932 . S
C120 C121 1.264 . S
C120 C125 1.479 . S
C120 C130 1.465 . S
C121 C120 1.264 . S
C121 C123 1.339 . S
C121 H148 0.931 . S
C122 C123 1.395 . S
C122 C124 1.320 . S
C123 C121 1.339 . S
C123 C122 1.395 . S
C123 H149 0.929 . S
C124 C122 1.320 . S
C124 C125 1.405 . S
C124 H150 0.930 . S
C125 C120 1.479 . S
C125 C124 1.405 . S
C125 H151 0.931 . S
U126 O127 2.454 . S
U126 O128 2.458 . S
U126 C129 2.984 . S
U126 C130 2.847 . S
U126 C143 2.882 . S
U126 O144 2.441 . S
U126 O145 2.420 . S
U126 O146 2.455 . S
U126 O147 2.449 . S
O127 U126 2.454 . S
O127 C129 1.353 . S
O128 U126 2.458 . S
O128 C129 1.286 . S
C129 U126 2.984 . S
C129 O127 1.353 . S
C129 O128 1.286 . S
C129 C131 1.363 . S
C130 C120 1.465 . S
C130 U126 2.847 . S
C130 O144 1.249 . S
C130 O145 1.202 . S
C131 C129 1.363 . S
C131 C133 1.408 . S
C131 C136 1.342 . S
C132 C133 1.310 . S
C132 C135 1.461 . S
C132 H152 0.932 . S
C133 C131 1.408 . S
C133 C132 1.310 . S
C133 H153 0.930 . S
C134 C135 1.474 . S
C134 C136 1.285 . S
C134 H154 0.929 . S
C135 C132 1.461 . S
C135 C134 1.474 . S
C136 C131 1.342 . S
C136 C134 1.285 . S
C136 H155 0.930 . S
C137 C140 1.424 . S
C137 C142 1.245 . S
C137 C143 1.428 . S
C138 C141 1.260 . S
C138 C142 1.477 . S
C138 H156 0.932 . S
C139 C140 1.384 . S
C139 C141 1.479 . S
C139 H157 0.929 . S
C140 C137 1.424 . S
C140 C139 1.384 . S
C140 H158 0.928 . S
C141 C138 1.260 . S
C141 C139 1.479 . S
C142 C137 1.245 . S
C142 C138 1.477 . S
C142 H159 0.932 . S
C143 U126 2.882 . S
C143 C137 1.428 . S
C143 O146 1.301 . S
C143 O147 1.282 . S
O144 U126 2.441 . S
O144 C130 1.249 . S
O145 U126 2.420 . S
O145 C130 1.202 . S
O146 U126 2.455 . S
O146 C143 1.301 . S
O147 U126 2.449 . S
O147 C143 1.282 . S
H148 C121 0.931 . S
H149 C123 0.929 . S
H150 C124 0.930 . S
H151 C125 0.931 . S
H152 C132 0.932 . S
H153 C133 0.930 . S
H154 C134 0.929 . S
H155 C136 0.930 . S
H156 C138 0.932 . S
H157 C139 0.929 . S
H158 C140 0.928 . S
H159 C142 0.932 . S
C160 C161 1.264 . S
C160 C165 1.479 . S
C160 C170 1.465 . S
C161 C160 1.264 . S
C161 C163 1.339 . S
C161 H188 0.931 . S
C162 C163 1.395 . S
C162 C164 1.320 . S
C163 C161 1.339 . S
C163 C162 1.395 . S
C163 H189 0.929 . S
C164 C162 1.320 . S
C164 C165 1.405 . S
C164 H190 0.930 . S
C165 C160 1.479 . S
C165 C164 1.405 . S
C165 H191 0.931 . S
U166 O167 2.454 . S
U166 O168 2.458 . S
U166 C169 2.984 . S
U166 C170 2.847 . S
U166 C183 2.882 . S
U166 O184 2.441 . S
U166 O185 2.420 . S
U166 O186 2.455 . S
U166 O187 2.449 . S
O167 U166 2.454 . S
O167 C169 1.353 . S
O168 U166 2.458 . S
O168 C169 1.286 . S
C169 U166 2.984 . S
C169 O167 1.353 . S
C169 O168 1.286 . S
C169 C171 1.363 . S
C170 C160 1.465 . S
C170 U166 2.847 . S
C170 O184 1.249 . S
C170 O185 1.202 . S
C171 C169 1.363 . S
C171 C173 1.408 . S
C171 C176 1.342 . S
C172 C173 1.310 . S
C172 C175 1.461 . S
C172 H192 0.942 . S
C173 C171 1.408 . S
C173 C172 1.310 . S
C173 H193 0.930 . S
C174 C175 1.474 . S
C174 C176 1.285 . S
C174 H194 0.929 1_565 S
C175 C172 1.461 . S
C175 C174 1.474 . S
C176 C171 1.342 . S
C176 C174 1.285 . S
C176 H195 0.930 . S
C177 C180 1.424 . S
C177 C182 1.245 . S
C177 C183 1.428 . S
C178 C181 1.260 . S
C178 C182 1.477 . S
C178 H196 0.932 1_565 S
C179 C180 1.384 . S
C179 C181 1.479 . S
C179 H197 0.929 . S
C180 C177 1.424 . S
C180 C179 1.384 . S
C180 H198 0.928 . S
C181 C178 1.260 . S
C181 C179 1.479 . S
C182 C177 1.245 . S
C182 C178 1.477 . S
C182 H199 0.932 . S
C183 U166 2.882 . S
C183 C177 1.428 . S
C183 O186 1.301 . S
C183 O187 1.282 . S
O184 U166 2.441 . S
O184 C170 1.249 . S
O185 U166 2.420 . S
O185 C170 1.202 . S
O186 U166 2.455 . S
O186 C183 1.301 . S
O187 U166 2.449 . S
O187 C183 1.282 . S
H188 C161 0.931 . S
H189 C163 0.929 . S
H190 C164 0.930 . S
H191 C165 0.931 . S
H192 C172 0.942 . S
H193 C173 0.930 . S
H194 C174 0.929 1_545 S
H195 C176 0.930 . S
H196 C178 0.932 1_545 S
H197 C179 0.929 . S
H198 C180 0.928 . S
H199 C182 0.932 . S
C200 C201 1.264 . S
C200 C205 1.479 . S
C200 C210 1.465 . S
C201 C200 1.264 . S
C201 C203 1.339 . S
C201 H228 0.931 . S
C202 C203 1.395 . S
C202 C204 1.320 . S
C203 C201 1.339 . S
C203 C202 1.395 . S
C203 H229 0.929 . S
C204 C202 1.320 . S
C204 C205 1.405 . S
C204 H230 0.930 . S
C205 C200 1.479 . S
C205 C204 1.405 . S
C205 H231 0.931 . S
U206 O207 2.454 . S
U206 O208 2.458 . S
U206 C209 2.984 . S
U206 C210 2.847 . S
U206 C223 2.882 . S
U206 O224 2.441 . S
U206 O225 2.420 . S
U206 O226 2.455 . S
U206 O227 2.449 . S
O207 U206 2.454 . S
O207 C209 1.353 . S
O208 U206 2.458 . S
O208 C209 1.286 . S
C209 U206 2.984 . S
C209 O207 1.353 . S
C209 O208 1.286 . S
C209 C211 1.363 . S
C210 C200 1.465 . S
C210 U206 2.847 . S
C210 O224 1.249 . S
C210 O225 1.202 . S
C211 C209 1.363 . S
C211 C213 1.408 . S
C211 C216 1.342 . S
C212 C213 1.310 . S
C212 C215 1.461 . S
C212 H232 0.932 . S
C213 C211 1.408 . S
C213 C212 1.310 . S
C213 H233 0.930 . S
C214 C215 1.474 . S
C214 C216 1.285 . S
C214 H234 0.929 . S
C215 C212 1.461 . S
C215 C214 1.474 . S
C216 C211 1.342 . S
C216 C214 1.285 . S
C216 H235 0.930 . S
C217 C220 1.424 . S
C217 C222 1.245 . S
C217 C223 1.428 . S
C218 C221 1.260 . S
C218 C222 1.477 . S
C218 H236 0.932 . S
C219 C220 1.384 . S
C219 C221 1.479 . S
C219 H237 0.929 . S
C220 C217 1.424 . S
C220 C219 1.384 . S
C220 H238 0.928 . S
C221 C218 1.260 . S
C221 C219 1.479 . S
C222 C217 1.245 . S
C222 C218 1.477 . S
C222 H239 0.932 . S
C223 U206 2.882 . S
C223 C217 1.428 . S
C223 O226 1.301 . S
C223 O227 1.282 . S
O224 U206 2.441 . S
O224 C210 1.249 . S
O225 U206 2.420 . S
O225 C210 1.202 . S
O226 U206 2.455 . S
O226 C223 1.301 . S
O227 U206 2.449 . S
O227 C223 1.282 . S
H228 C201 0.931 . S
H229 C203 0.929 . S
H230 C204 0.930 . S
H231 C205 0.931 . S
H232 C212 0.932 . S
H233 C213 0.930 . S
H234 C214 0.929 . S
H235 C216 0.930 . S
H236 C218 0.932 . S
H237 C219 0.929 . S
H238 C220 0.928 . S
H239 C222 0.932 . S
C240 C241 1.264 . S
C240 C245 1.479 . S
C240 C250 1.465 . S
C241 C240 1.264 . S
C241 C243 1.339 . S
C241 H268 0.931 . S
C242 C243 1.395 . S
C242 C244 1.320 . S
C243 C241 1.339 . S
C243 C242 1.395 . S
C243 H269 0.929 . S
C244 C242 1.320 . S
C244 C245 1.405 . S
C244 H270 0.930 . S
C245 C240 1.479 . S
C245 C244 1.405 . S
C245 H271 0.931 . S
U246 O247 2.454 . S
U246 O248 2.458 . S
U246 C249 2.984 . S
U246 C250 2.847 . S
U246 C263 2.882 . S
U246 O264 2.441 . S
U246 O265 2.420 . S
U246 O266 2.455 . S
U246 O267 2.449 . S
O247 U246 2.454 . S
O247 C249 1.353 . S
O248 U246 2.458 . S
O248 C249 1.286 . S
C249 U246 2.984 . S
C249 O247 1.353 . S
C249 O248 1.286 . S
C249 C251 1.363 . S
C250 C240 1.465 . S
C250 U246 2.847 . S
C250 O264 1.249 . S
C250 O265 1.202 . S
C251 C249 1.363 . S
C251 C253 1.408 . S
C251 C256 1.342 . S
C252 C253 1.310 . S
C252 C255 1.461 . S
C252 H272 0.932 . S
C253 C251 1.408 . S
C253 C252 1.310 . S
C253 H273 0.930 . S
C254 C255 1.474 . S
C254 C256 1.285 . S
C254 H274 0.929 . S
C255 C252 1.461 . S
C255 C254 1.474 . S
C256 C251 1.342 . S
C256 C254 1.285 . S
C256 H275 0.930 . S
C257 C260 1.424 . S
C257 C262 1.245 . S
C257 C263 1.428 . S
C258 C261 1.260 . S
C258 C262 1.477 . S
C258 H276 0.932 . S
C259 C260 1.384 . S
C259 C261 1.479 . S
C259 H277 0.929 . S
C260 C257 1.424 . S
C260 C259 1.384 . S
C260 H278 0.928 . S
C261 C258 1.260 . S
C261 C259 1.479 . S
C262 C257 1.245 . S
C262 C258 1.477 . S
C262 H279 0.932 . S
C263 U246 2.882 . S
C263 C257 1.428 . S
C263 O266 1.301 . S
C263 O267 1.282 . S
O264 U246 2.441 . S
O264 C250 1.249 . S
O265 U246 2.420 . S
O265 C250 1.202 . S
O266 U246 2.455 . S
O266 C263 1.301 . S
O267 U246 2.449 . S
O267 C263 1.282 . S
H268 C241 0.931 . S
H269 C243 0.929 . S
H270 C244 0.930 . S
H271 C245 0.931 . S
H272 C252 0.932 . S
H273 C253 0.930 . S
H274 C254 0.929 . S
H275 C256 0.930 . S
H276 C258 0.932 . S
H277 C259 0.929 . S
H278 C260 0.928 . S
H279 C262 0.932 . S
C280 C281 1.264 . S
C280 C285 1.479 . S
C280 C290 1.465 . S
C281 C280 1.264 . S
C281 C283 1.339 . S
C281 H308 0.931 . S
C282 C283 1.395 . S
C282 C284 1.320 . S
C283 C281 1.339 . S
C283 C282 1.395 . S
C283 H309 0.929 . S
C284 C282 1.320 . S
C284 C285 1.405 . S
C284 H310 0.930 . S
C285 C280 1.479 . S
C285 C284 1.405 . S
C285 H311 0.931 . S
U286 O287 2.454 . S
U286 O288 2.458 . S
U286 C289 2.984 . S
U286 C290 2.847 . S
U286 C303 2.882 . S
U286 O304 2.441 . S
U286 O305 2.420 . S
U286 O306 2.455 . S
U286 O307 2.449 . S
O287 U286 2.454 . S
O287 C289 1.353 . S
O288 U286 2.458 . S
O288 C289 1.286 . S
C289 U286 2.984 . S
C289 O287 1.353 . S
C289 O288 1.286 . S
C289 C291 1.363 . S
C290 C280 1.465 . S
C290 U286 2.847 . S
C290 O304 1.249 . S
C290 O305 1.202 . S
C291 C289 1.363 . S
C291 C293 1.408 . S
C291 C296 1.342 . S
C292 C293 1.310 . S
C292 C295 1.461 . S
C292 H312 0.932 . S
C293 C291 1.408 . S
C293 C292 1.310 . S
C293 H313 0.930 . S
C294 C295 1.474 . S
C294 C296 1.285 . S
C294 H314 0.929 . S
C295 C292 1.461 . S
C295 C294 1.474 . S
C296 C291 1.342 . S
C296 C294 1.285 . S
C296 H315 0.930 . S
C297 C300 1.424 . S
C297 C302 1.245 . S
C297 C303 1.428 . S
C298 C301 1.260 . S
C298 C302 1.477 . S
C298 H316 0.932 . S
C299 C300 1.384 . S
C299 C301 1.479 . S
C299 H317 0.929 . S
C300 C297 1.424 . S
C300 C299 1.384 . S
C300 H318 0.928 . S
C301 C298 1.260 . S
C301 C299 1.479 . S
C302 C297 1.245 . S
C302 C298 1.477 . S
C302 H319 0.932 . S
C303 U286 2.882 . S
C303 C297 1.428 . S
C303 O306 1.301 . S
C303 O307 1.282 . S
O304 U286 2.441 . S
O304 C290 1.249 . S
O305 U286 2.420 . S
O305 C290 1.202 . S
O306 U286 2.455 . S
O306 C303 1.301 . S
O307 U286 2.449 . S
O307 C303 1.282 . S
H308 C281 0.931 . S
H309 C283 0.929 . S
H310 C284 0.930 . S
H311 C285 0.931 . S
H312 C292 0.932 . S
H313 C293 0.930 . S
H314 C294 0.929 . S
H315 C296 0.930 . S
H316 C298 0.932 . S
H317 C299 0.929 . S
H318 C300 0.928 . S
H319 C302 0.932 . S
O320 Zn321 1.956 . S
O320 C336 1.218 1_655 S
Zn321 O320 1.956 . S
Zn321 O322 1.949 1_655 S
Zn321 O328 1.919 . S
Zn321 O333 1.924 . S
O322 Zn321 1.949 1_455 S
O322 Zn323 1.923 1_445 S
O322 Zn324 1.950 . S
O322 Zn325 1.945 1_545 S
Zn323 O322 1.923 1_665 S
Zn323 O326 1.933 . S
Zn323 O329 1.941 1_565 S
Zn323 O330 1.965 1_665 S
Zn324 O322 1.950 . S
Zn324 O331 1.938 . S
Zn324 O332 1.906 . S
Zn324 O342 1.953 . S
Zn325 O322 1.945 1_565 S
Zn325 O327 1.932 1_455 S
Zn325 O334 1.977 . S
Zn325 O335 1.910 1_455 S
O326 Zn323 1.933 . S
O326 C337 1.226 . S
O327 Zn325 1.932 1_655 S
O327 C337 1.307 . S
O328 Zn321 1.919 . S
O328 C339 1.253 . S
O329 Zn323 1.941 1_545 S
O329 C339 1.283 . S
O330 Zn323 1.965 1_445 S
O330 C338 1.303 . S
O331 Zn324 1.938 . S
O331 C338 1.247 . S
O332 Zn324 1.906 . S
O332 C340 1.304 1_545 S
O333 Zn321 1.924 . S
O333 C341 1.311 . S
O334 Zn325 1.977 . S
O334 C340 1.272 . S
O335 Zn325 1.910 1_655 S
O335 C341 1.231 1_565 S
C336 O320 1.218 1_455 S
C336 O342 1.298 . S
C337 O326 1.226 . S
C337 O327 1.307 . S
C338 O330 1.303 . S
C338 O331 1.247 . S
C339 O328 1.253 . S
C339 O329 1.283 . S
C340 O332 1.304 1_565 S
C340 O334 1.272 . S
C341 O333 1.311 . S
C341 O335 1.231 1_545 S
O342 Zn324 1.953 . S
O342 C336 1.298 . S
O343 Zn344 1.953 . S
O343 C359 1.225 . S
Zn344 O343 1.953 . S
Zn344 O345 1.949 1_556 S
Zn344 O351 1.919 . S
Zn344 O356 1.924 1_556 S
O345 Zn344 1.949 1_554 S
O345 Zn346 1.923 1_545 S
O345 Zn347 1.950 . S
O345 Zn348 1.945 1_545 S
Zn346 O345 1.923 1_565 S
Zn346 O349 1.933 . S
Zn346 O352 1.941 1_554 S
Zn346 O353 1.965 . S
Zn347 O345 1.950 . S
Zn347 O354 1.938 . S
Zn347 O355 1.906 . S
Zn347 O365 1.953 . S
Zn348 O345 1.945 1_565 S
Zn348 O350 1.932 . S
Zn348 O357 1.977 1_565 S
Zn348 O358 1.910 1_565 S
O349 Zn346 1.933 . S
O349 C360 1.226 . S
O350 Zn348 1.932 . S
O350 C360 1.307 . S
O351 Zn344 1.919 . S
O351 C362 1.253 1_545 S
O352 Zn346 1.941 1_556 S
O352 C362 1.283 . S
O353 Zn346 1.965 . S
O353 C361 1.303 . S
O354 Zn347 1.938 . S
O354 C361 1.247 1_545 S
O355 Zn347 1.906 . S
O355 C363 1.304 . S
O356 Zn344 1.924 1_554 S
O356 C364 1.311 . S
O357 Zn348 1.977 1_545 S
O357 C363 1.272 . S
O358 Zn348 1.910 1_545 S
O358 C364 1.231 . S
C359 O343 1.225 . S
C359 O365 1.298 1_556 S
C360 O349 1.226 . S
C360 O350 1.307 . S
C361 O353 1.303 . S
C361 O354 1.247 1_565 S
C362 O351 1.253 1_565 S
C362 O352 1.283 . S
C363 O355 1.304 . S
C363 O357 1.272 . S
C364 O356 1.311 . S
C364 O358 1.231 . S
O365 Zn347 1.953 . S
O365 C359 1.298 1_554 S
O366 Zn367 1.953 . S
O366 C382 1.225 . S
Zn367 O366 1.953 . S
Zn367 O368 1.949 . S
Zn367 O374 1.919 . S
Zn367 O379 1.924 . S
O368 Zn367 1.949 . S
O368 Zn369 1.923 . S
O368 Zn370 1.950 . S
O368 Zn371 1.945 . S
Zn369 O368 1.923 . S
Zn369 O372 1.933 . S
Zn369 O375 1.941 . S
Zn369 O376 1.965 . S
Zn370 O368 1.950 . S
Zn370 O377 1.938 . S
Zn370 O378 1.906 . S
Zn370 O388 1.953 . S
Zn371 O368 1.945 . S
Zn371 O373 1.932 . S
Zn371 O380 1.977 . S
Zn371 O381 1.910 . S
O372 Zn369 1.933 . S
O372 C383 1.226 . S
O373 Zn371 1.932 . S
O373 C383 1.307 . S
O374 Zn367 1.919 . S
O374 C385 1.253 . S
O375 Zn369 1.941 . S
O375 C385 1.283 . S
O376 Zn369 1.965 . S
O376 C384 1.303 . S
O377 Zn370 1.938 . S
O377 C384 1.247 . S
O378 Zn370 1.906 . S
O378 C386 1.304 . S
O379 Zn367 1.924 . S
O379 C387 1.311 . S
O380 Zn371 1.977 . S
O380 C386 1.272 . S
O381 Zn371 1.910 . S
O381 C387 1.231 . S
C382 O366 1.225 . S
C382 O388 1.298 . S
C383 O372 1.226 . S
C383 O373 1.307 . S
C384 O376 1.303 . S
C384 O377 1.247 . S
C385 O374 1.253 . S
C385 O375 1.283 . S
C386 O378 1.304 . S
C386 O380 1.272 . S
C387 O379 1.311 . S
C387 O381 1.231 . S
O388 Zn370 1.953 . S
O388 C382 1.298 . S
O389 Zn390 1.953 . S
O389 C405 1.225 . S
Zn390 O389 1.953 . S
Zn390 O391 1.949 1_655 S
Zn390 O397 1.919 . S
Zn390 O402 1.924 . S
O391 Zn390 1.949 1_455 S
O391 Zn392 1.923 1_454 S
O391 Zn393 1.950 . S
O391 Zn394 1.945 1_554 S
Zn392 O391 1.923 1_656 S
Zn392 O395 1.933 1_655 S
Zn392 O398 1.941 . S
Zn392 O399 1.965 . S
Zn393 O391 1.950 . S
Zn393 O400 1.938 . S
Zn393 O401 1.906 . S
Zn393 O411 1.953 . S
Zn394 O391 1.945 1_556 S
Zn394 O396 1.932 . S
Zn394 O403 1.977 1_556 S
Zn394 O404 1.910 1_556 S
O395 Zn392 1.933 1_455 S
O395 C406 1.226 . S
O396 Zn394 1.932 . S
O396 C406 1.307 . S
O397 Zn390 1.919 . S
O397 C408 1.253 1_554 S
O398 Zn392 1.941 . S
O398 C408 1.283 . S
O399 Zn392 1.965 . S
O399 C407 1.303 . S
O400 Zn393 1.938 . S
O400 C407 1.247 1_454 S
O401 Zn393 1.906 . S
O401 C409 1.304 . S
O402 Zn390 1.924 . S
O402 C410 1.311 1_655 S
O403 Zn394 1.977 1_554 S
O403 C409 1.272 . S
O404 Zn394 1.910 1_554 S
O404 C410 1.231 . S
C405 O389 1.225 . S
C405 O411 1.298 1_655 S
C406 O395 1.226 . S
C406 O396 1.307 . S
C407 O399 1.303 . S
C407 O400 1.247 1_656 S
C408 O397 1.253 1_556 S
C408 O398 1.283 . S
C409 O401 1.304 . S
C409 O403 1.272 . S
C410 O402 1.311 1_455 S
C410 O404 1.231 . S
O411 Zn393 1.953 . S
O411 C405 1.298 1_455 S
H412 C424 0.930 . S
H413 C426 0.930 . S
H414 C427 0.930 . S
H415 C431 0.959 . S
H416 C431 0.959 1_655 S
H417 C431 0.961 1_655 S
H418 C432 0.960 1_655 S
H419 C432 0.961 1_655 S
H420 C432 0.959 . S
H421 C435 0.929 . S
H422 C436 0.931 . S
H423 C438 0.930 . S
C424 H412 0.930 . S
C424 C425 1.399 . S
C424 C429 1.399 . S
C425 C424 1.399 . S
C425 C426 1.376 . S
C426 H413 0.930 . S
C426 C425 1.376 . S
C426 C427 1.388 . S
C427 H414 0.930 . S
C427 C426 1.388 . S
C427 C428 1.390 . S
C428 C427 1.390 . S
C428 C429 1.394 . S
C428 C434 1.465 . S
C429 C424 1.399 . S
C429 C428 1.394 . S
C429 C430 1.516 . S
C430 C429 1.516 . S
C430 C431 1.502 . S
C430 C432 1.561 . S
C430 C433 1.526 . S
C431 H415 0.959 . S
C431 H416 0.959 1_455 S
C431 H417 0.961 1_455 S
C431 C430 1.502 . S
C432 H418 0.960 1_455 S
C432 H419 0.961 1_455 S
C432 H420 0.959 . S
C432 C430 1.561 . S
C433 C430 1.526 . S
C433 C434 1.396 . S
C433 C438 1.390 . S
C434 C428 1.465 . S
C434 C433 1.396 . S
C434 C435 1.399 . S
C435 H421 0.929 . S
C435 C434 1.399 . S
C435 C436 1.385 . S
C436 H422 0.931 . S
C436 C435 1.385 . S
C436 C437 1.389 . S
C437 C436 1.389 . S
C437 C438 1.387 . S
C438 H423 0.930 . S
C438 C433 1.390 . S
C438 C437 1.387 . S
H439 C451 0.930 . S
H440 C453 0.930 . S
H441 C454 0.930 . S
H442 C458 0.959 . S
H443 C458 0.959 . S
H444 C458 0.961 . S
H445 C459 0.960 . S
H446 C459 0.961 . S
H447 C459 0.959 . S
H448 C462 0.929 . S
H449 C463 0.931 1_545 S
H450 C465 0.930 . S
C451 H439 0.930 . S
C451 C452 1.399 . S
C451 C456 1.399 . S
C452 C451 1.399 . S
C452 C453 1.376 . S
C453 H440 0.930 . S
C453 C452 1.376 . S
C453 C454 1.388 . S
C454 H441 0.930 . S
C454 C453 1.388 . S
C454 C455 1.390 . S
C455 C454 1.390 . S
C455 C456 1.394 . S
C455 C461 1.465 . S
C456 C451 1.399 . S
C456 C455 1.394 . S
C456 C457 1.516 . S
C457 C456 1.516 . S
C457 C458 1.502 . S
C457 C459 1.561 . S
C457 C460 1.526 . S
C458 H442 0.959 . S
C458 H443 0.959 . S
C458 H444 0.961 . S
C458 C457 1.502 . S
C459 H445 0.960 . S
C459 H446 0.961 . S
C459 H447 0.959 . S
C459 C457 1.561 . S
C460 C457 1.526 . S
C460 C461 1.396 . S
C460 C465 1.390 . S
C461 C455 1.465 . S
C461 C460 1.396 . S
C461 C462 1.399 . S
C462 H448 0.929 . S
C462 C461 1.399 . S
C462 C463 1.385 . S
C463 H449 0.931 1_565 S
C463 C462 1.385 . S
C463 C464 1.389 . S
C464 C463 1.389 . S
C464 C465 1.387 . S
C465 H450 0.930 . S
C465 C460 1.390 . S
C465 C464 1.387 . S
H466 C478 0.930 . S
H467 C480 0.930 . S
H468 C481 0.930 . S
H469 C485 0.959 . S
H470 C485 0.959 . S
H471 C485 0.961 . S
H472 C486 0.960 . S
H473 C486 0.961 . S
H474 C486 0.959 . S
H475 C489 0.929 . S
H476 C490 0.931 . S
H477 C492 0.930 . S
C478 H466 0.930 . S
C478 C479 1.399 . S
C478 C483 1.399 . S
C479 C478 1.399 . S
C479 C480 1.376 . S
C480 H467 0.930 . S
C480 C479 1.376 . S
C480 C481 1.388 . S
C481 H468 0.930 . S
C481 C480 1.388 . S
C481 C482 1.390 . S
C482 C481 1.390 . S
C482 C483 1.394 . S
C482 C488 1.465 . S
C483 C478 1.399 . S
C483 C482 1.394 . S
C483 C484 1.516 . S
C484 C483 1.516 . S
C484 C485 1.502 . S
C484 C486 1.561 . S
C484 C487 1.526 . S
C485 H469 0.959 . S
C485 H470 0.959 . S
C485 H471 0.961 . S
C485 C484 1.502 . S
C486 H472 0.960 . S
C486 H473 0.961 . S
C486 H474 0.959 . S
C486 C484 1.561 . S
C487 C484 1.526 . S
C487 C488 1.396 . S
C487 C492 1.390 . S
C488 C482 1.465 . S
C488 C487 1.396 . S
C488 C489 1.399 . S
C489 H475 0.929 . S
C489 C488 1.399 . S
C489 C490 1.385 . S
C490 H476 0.931 . S
C490 C489 1.385 . S
C490 C491 1.389 . S
C491 C490 1.389 . S
C491 C492 1.387 . S
C492 H477 0.930 . S
C492 C487 1.390 . S
C492 C491 1.387 . S
H493 C505 0.930 . S
H494 C507 0.930 . S
H495 C508 0.930 . S
H496 C512 0.959 1_455 S
H497 C512 0.953 1_455 S
H498 C512 0.961 . S
H499 C513 0.960 . S
H500 C513 0.961 . S
H501 C513 0.959 . S
H502 C516 0.929 . S
H503 C517 0.931 . S
H504 C519 0.930 . S
C505 H493 0.930 . S
C505 C506 1.399 . S
C505 C510 1.399 . S
C506 C505 1.399 . S
C506 C507 1.376 . S
C507 H494 0.930 . S
C507 C506 1.376 . S
C507 C508 1.388 . S
C508 H495 0.930 . S
C508 C507 1.388 . S
C508 C509 1.390 . S
C509 C508 1.390 . S
C509 C510 1.394 . S
C509 C515 1.465 . S
C510 C505 1.399 . S
C510 C509 1.394 . S
C510 C511 1.516 . S
C511 C510 1.516 . S
C511 C512 1.502 . S
C511 C513 1.561 . S
C511 C514 1.526 . S
C512 H496 0.959 1_655 S
C512 H497 0.953 1_655 S
C512 H498 0.961 . S
C512 C511 1.502 . S
C513 H499 0.960 . S
C513 H500 0.961 . S
C513 H501 0.959 . S
C513 C511 1.561 . S
C514 C511 1.526 . S
C514 C515 1.396 . S
C514 C519 1.390 . S
C515 C509 1.465 . S
C515 C514 1.396 . S
C515 C516 1.399 . S
C516 H502 0.929 . S
C516 C515 1.399 . S
C516 C517 1.385 . S
C517 H503 0.931 . S
C517 C516 1.385 . S
C517 C518 1.389 . S
C518 C517 1.389 . S
C518 C519 1.387 . S
C519 H504 0.930 . S
C519 C514 1.390 . S
C519 C518 1.387 . S
H520 C532 0.930 . S
H521 C534 0.930 . S
H522 C535 0.930 . S
H523 C539 0.959 . S
H524 C539 0.959 . S
H525 C539 0.961 . S
H526 C540 0.960 . S
H527 C540 0.961 . S
H528 C540 0.959 . S
H529 C543 0.929 . S
H530 C544 0.931 . S
H531 C546 0.930 . S
C532 H520 0.930 . S
C532 C533 1.399 . S
C532 C537 1.399 . S
C533 C532 1.399 . S
C533 C534 1.376 . S
C534 H521 0.930 . S
C534 C533 1.376 . S
C534 C535 1.388 . S
C535 H522 0.930 . S
C535 C534 1.388 . S
C535 C536 1.390 . S
C536 C535 1.390 . S
C536 C537 1.394 . S
C536 C542 1.465 . S
C537 C532 1.399 . S
C537 C536 1.394 . S
C537 C538 1.516 . S
C538 C537 1.516 . S
C538 C539 1.502 . S
C538 C540 1.561 . S
C538 C541 1.526 . S
C539 H523 0.959 . S
C539 H524 0.959 . S
C539 H525 0.961 . S
C539 C538 1.502 . S
C540 H526 0.960 . S
C540 H527 0.961 . S
C540 H528 0.959 . S
C540 C538 1.561 . S
C541 C538 1.526 . S
C541 C542 1.396 . S
C541 C546 1.390 . S
C542 C536 1.465 . S
C542 C541 1.396 . S
C542 C543 1.399 . S
C543 H529 0.929 . S
C543 C542 1.399 . S
C543 C544 1.385 . S
C544 H530 0.931 . S
C544 C543 1.385 . S
C544 C545 1.389 . S
C545 C544 1.389 . S
C545 C546 1.387 . S
C546 H531 0.930 . S
C546 C541 1.390 . S
C546 C545 1.387 . S
H547 C559 0.930 . S
H548 C561 0.930 . S
H549 C562 0.930 . S
H550 C566 0.959 . S
H551 C566 0.959 . S
H552 C566 0.961 . S
H553 C567 0.960 . S
H554 C567 0.961 . S
H555 C567 0.959 . S
H556 C570 0.929 . S
H557 C571 0.931 . S
H558 C573 0.930 . S
C559 H547 0.930 . S
C559 C560 1.399 . S
C559 C564 1.399 . S
C560 C559 1.399 . S
C560 C561 1.376 . S
C561 H548 0.930 . S
C561 C560 1.376 . S
C561 C562 1.388 . S
C562 H549 0.930 . S
C562 C561 1.388 . S
C562 C563 1.390 . S
C563 C562 1.390 . S
C563 C564 1.394 . S
C563 C569 1.465 . S
C564 C559 1.399 . S
C564 C563 1.394 . S
C564 C565 1.516 . S
C565 C564 1.516 . S
C565 C566 1.502 . S
C565 C567 1.561 1_565 S
C565 C568 1.526 . S
C566 H550 0.959 . S
C566 H551 0.959 . S
C566 H552 0.961 . S
C566 C565 1.502 . S
C567 H553 0.960 . S
C567 H554 0.961 . S
C567 H555 0.959 . S
C567 C565 1.561 1_545 S
C568 C565 1.526 . S
C568 C569 1.396 . S
C568 C573 1.390 . S
C569 C563 1.465 . S
C569 C568 1.396 . S
C569 C570 1.399 . S
C570 H556 0.929 . S
C570 C569 1.399 . S
C570 C571 1.385 . S
C571 H557 0.931 . S
C571 C570 1.385 . S
C571 C572 1.389 . S
C572 C571 1.389 . S
C572 C573 1.387 . S
C573 H558 0.930 . S
C573 C568 1.390 . S
C573 C572 1.387 . S
H574 C586 0.930 . S
H575 C588 0.930 . S
H576 C589 0.930 . S
H577 C593 0.965 . S
H578 C593 0.959 . S
H579 C593 0.961 . S
H580 C594 0.960 . S
H581 C594 0.961 . S
H582 C594 0.959 1_556 S
H583 C597 0.929 . S
H584 C598 0.931 . S
H585 C600 0.930 1_554 S
C586 H574 0.930 . S
C586 C587 1.399 . S
C586 C591 1.399 . S
C587 C586 1.399 . S
C587 C588 1.376 . S
C588 H575 0.930 . S
C588 C587 1.376 . S
C588 C589 1.388 . S
C589 H576 0.930 . S
C589 C588 1.388 . S
C589 C590 1.390 . S
C590 C589 1.390 . S
C590 C591 1.394 . S
C590 C596 1.465 . S
C591 C586 1.399 . S
C591 C590 1.394 . S
C591 C592 1.516 . S
C592 C591 1.516 . S
C592 C593 1.502 1_556 S
C592 C594 1.561 1_556 S
C592 C595 1.526 . S
C593 H577 0.965 . S
C593 H578 0.959 . S
C593 H579 0.961 . S
C593 C592 1.502 1_554 S
C594 H580 0.960 . S
C594 H581 0.961 . S
C594 H582 0.959 1_554 S
C594 C592 1.561 1_554 S
C595 C592 1.526 . S
C595 C596 1.396 . S
C595 C600 1.390 . S
C596 C590 1.465 . S
C596 C595 1.396 . S
C596 C597 1.399 . S
C597 H583 0.929 . S
C597 C596 1.399 . S
C597 C598 1.385 . S
C598 H584 0.931 . S
C598 C597 1.385 . S
C598 C599 1.389 . S
C599 C598 1.389 . S
C599 C600 1.387 . S
C600 H585 0.930 1_556 S
C600 C595 1.390 . S
C600 C599 1.387 . S
H601 C613 0.930 . S
H602 C615 0.930 . S
H603 C616 0.930 . S
H604 C620 0.959 . S
H605 C620 0.959 . S
H606 C620 0.961 . S
H607 C621 0.960 . S
H608 C621 0.961 . S
H609 C621 0.959 . S
H610 C624 0.929 . S
H611 C625 0.931 . S
H612 C627 0.930 . S
C613 H601 0.930 . S
C613 C614 1.399 . S
C613 C618 1.399 . S
C614 C613 1.399 . S
C614 C615 1.376 . S
C615 H602 0.930 . S
C615 C614 1.376 . S
C615 C616 1.388 . S
C616 H603 0.930 . S
C616 C615 1.388 . S
C616 C617 1.390 . S
C617 C616 1.390 . S
C617 C618 1.394 . S
C617 C623 1.465 . S
C618 C613 1.399 . S
C618 C617 1.394 . S
C618 C619 1.516 . S
C619 C618 1.516 . S
C619 C620 1.502 . S
C619 C621 1.561 . S
C619 C622 1.526 . S
C620 H604 0.959 . S
C620 H605 0.959 . S
C620 H606 0.961 . S
C620 C619 1.502 . S
C621 H607 0.960 . S
C621 H608 0.961 . S
C621 H609 0.959 . S
C621 C619 1.561 . S
C622 C619 1.526 . S
C622 C623 1.396 . S
C622 C627 1.390 . S
C623 C617 1.465 . S
C623 C622 1.396 . S
C623 C624 1.399 . S
C624 H610 0.929 . S
C624 C623 1.399 . S
C624 C625 1.385 . S
C625 H611 0.931 . S
C625 C624 1.385 . S
C625 C626 1.389 . S
C626 C625 1.389 . S
C626 C627 1.387 . S
C627 H612 0.930 . S
C627 C622 1.390 . S
C627 C626 1.387 . S
H628 C640 0.930 . S
H629 C642 0.930 . S
H630 C643 0.930 . S
H631 C647 0.959 . S
H632 C647 0.959 . S
H633 C647 0.961 . S
H634 C648 0.960 . S
H635 C648 0.961 1_556 S
H636 C648 0.959 . S
H637 C651 0.929 . S
H638 C652 0.931 . S
H639 C654 0.930 . S
C640 H628 0.930 . S
C640 C641 1.399 . S
C640 C645 1.399 . S
C641 C640 1.399 . S
C641 C642 1.376 . S
C642 H629 0.930 . S
C642 C641 1.376 . S
C642 C643 1.388 . S
C643 H630 0.930 . S
C643 C642 1.388 . S
C643 C644 1.390 . S
C644 C643 1.390 . S
C644 C645 1.394 . S
C644 C650 1.465 . S
C645 C640 1.399 . S
C645 C644 1.394 . S
C645 C646 1.516 . S
C646 C645 1.516 . S
C646 C647 1.502 . S
C646 C648 1.561 . S
C646 C649 1.526 . S
C647 H631 0.959 . S
C647 H632 0.959 . S
C647 H633 0.961 . S
C647 C646 1.502 . S
C648 H634 0.960 . S
C648 H635 0.961 1_554 S
C648 H636 0.959 . S
C648 C646 1.561 . S
C649 C646 1.526 . S
C649 C650 1.396 . S
C649 C654 1.390 . S
C650 C644 1.465 . S
C650 C649 1.396 . S
C650 C651 1.399 . S
C651 H637 0.929 . S
C651 C650 1.399 . S
C651 C652 1.385 . S
C652 H638 0.931 . S
C652 C651 1.385 . S
C652 C653 1.389 . S
C653 C652 1.389 . S
C653 C654 1.387 . S
C654 H639 0.930 . S
C654 C649 1.390 . S
C654 C653 1.387 . S
H655 C667 0.930 . S
H656 C669 0.930 . S
H657 C670 0.930 . S
H658 C674 0.959 . S
H659 C674 0.959 . S
H660 C674 0.961 . S
H661 C675 0.960 . S
H662 C675 0.961 . S
H663 C675 0.959 . S
H664 C678 0.929 . S
H665 C679 0.931 . S
H666 C681 0.930 . S
C667 H655 0.930 . S
C667 C668 1.399 . S
C667 C672 1.399 . S
C668 C667 1.399 . S
C668 C669 1.376 . S
C669 H656 0.930 . S
C669 C668 1.376 . S
C669 C670 1.388 . S
C670 H657 0.930 . S
C670 C669 1.388 . S
C670 C671 1.390 . S
C671 C670 1.390 . S
C671 C672 1.394 . S
C671 C677 1.465 . S
C672 C667 1.399 . S
C672 C671 1.394 . S
C672 C673 1.516 1_556 S
C673 C672 1.516 1_554 S
C673 C674 1.502 . S
C673 C675 1.561 . S
C673 C676 1.526 1_554 S
C674 H658 0.959 . S
C674 H659 0.959 . S
C674 H660 0.961 . S
C674 C673 1.502 . S
C675 H661 0.960 . S
C675 H662 0.961 . S
C675 H663 0.959 . S
C675 C673 1.561 . S
C676 C673 1.526 1_556 S
C676 C677 1.396 . S
C676 C681 1.390 1_556 S
C677 C671 1.465 . S
C677 C676 1.396 . S
C677 C678 1.399 . S
C678 H664 0.929 . S
C678 C677 1.399 . S
C678 C679 1.385 . S
C679 H665 0.931 . S
C679 C678 1.385 . S
C679 C680 1.389 . S
C680 C679 1.389 . S
C680 C681 1.387 1_556 S
C681 H666 0.930 . S
C681 C676 1.390 1_554 S
C681 C680 1.387 1_554 S
H682 C694 0.930 . S
H683 C696 0.930 . S
H684 C697 0.930 . S
H685 C701 0.959 . S
H686 C701 0.959 . S
H687 C701 0.961 . S
H688 C702 0.960 . S
H689 C702 0.961 . S
H690 C702 0.959 . S
H691 C705 0.929 . S
H692 C706 0.931 . S
H693 C708 0.930 . S
C694 H682 0.930 . S
C694 C695 1.399 . S
C694 C699 1.399 . S
C695 C694 1.399 . S
C695 C696 1.376 . S
C696 H683 0.930 . S
C696 C695 1.376 . S
C696 C697 1.388 . S
C697 H684 0.930 . S
C697 C696 1.388 . S
C697 C698 1.390 . S
C698 C697 1.390 . S
C698 C699 1.394 . S
C698 C704 1.465 . S
C699 C694 1.399 . S
C699 C698 1.394 . S
C699 C700 1.516 . S
C700 C699 1.516 . S
C700 C701 1.502 1_655 S
C700 C702 1.561 . S
C700 C703 1.526 . S
C701 H685 0.959 . S
C701 H686 0.959 . S
C701 H687 0.961 . S
C701 C700 1.502 1_455 S
C702 H688 0.960 . S
C702 H689 0.961 . S
C702 H690 0.959 . S
C702 C700 1.561 . S
C703 C700 1.526 . S
C703 C704 1.396 . S
C703 C708 1.390 . S
C704 C698 1.465 . S
C704 C703 1.396 . S
C704 C705 1.399 . S
C705 H691 0.929 . S
C705 C704 1.399 . S
C705 C706 1.385 . S
C706 H692 0.931 . S
C706 C705 1.385 . S
C706 C707 1.389 . S
C707 C706 1.389 . S
C707 C708 1.387 . S
C708 H693 0.930 . S
C708 C703 1.390 . S
C708 C707 1.387 . S
H709 C721 0.930 . S
H710 C723 0.930 . S
H711 C724 0.930 . S
H712 C728 0.959 . S
H713 C728 0.959 . S
H714 C728 0.961 . S
H715 C729 0.960 . S
H716 C729 0.961 . S
H717 C729 0.959 . S
H718 C732 0.929 . S
H719 C733 0.931 . S
H720 C735 0.930 . S
C721 H709 0.930 . S
C721 C722 1.399 . S
C721 C726 1.399 . S
C722 C721 1.399 . S
C722 C723 1.376 . S
C723 H710 0.930 . S
C723 C722 1.376 . S
C723 C724 1.388 . S
C724 H711 0.930 . S
C724 C723 1.388 . S
C724 C725 1.390 . S
C725 C724 1.390 . S
C725 C726 1.394 . S
C725 C731 1.465 . S
C726 C721 1.399 . S
C726 C725 1.394 . S
C726 C727 1.516 . S
C727 C726 1.516 . S
C727 C728 1.502 . S
C727 C729 1.561 . S
C727 C730 1.526 . S
C728 H712 0.959 . S
C728 H713 0.959 . S
C728 H714 0.961 . S
C728 C727 1.502 . S
C729 H715 0.960 . S
C729 H716 0.961 . S
C729 H717 0.959 . S
C729 C727 1.561 . S
C730 C727 1.526 . S
C730 C731 1.396 . S
C730 C735 1.390 . S
C731 C725 1.465 . S
C731 C730 1.396 . S
C731 C732 1.399 . S
C732 H718 0.929 . S
C732 C731 1.399 . S
C732 C733 1.385 . S
C733 H719 0.931 . S
C733 C732 1.385 . S
C733 C734 1.389 . S
C734 C733 1.389 . S
C734 C735 1.387 . S
C735 H720 0.930 . S
C735 C730 1.390 . S
C735 C734 1.387 . S
H736 C748 0.930 . S
H737 C750 0.930 . S
H738 C751 0.942 . S
H739 C755 0.959 . S
H740 C755 0.959 . S
H741 C755 0.961 . S
H742 C756 0.960 . S
H743 C756 0.961 . S
H744 C756 0.959 1_455 S
H745 C759 0.929 1_455 S
H746 C760 0.931 1_455 S
H747 C762 0.930 . S
C748 H736 0.930 . S
C748 C749 1.399 1_545 S
C748 C753 1.399 . S
C749 C748 1.399 1_565 S
C749 C750 1.376 . S
C750 H737 0.930 . S
C750 C749 1.376 . S
C750 C751 1.388 . S
C751 H738 0.942 . S
C751 C750 1.388 . S
C751 C752 1.390 . S
C752 C751 1.390 . S
C752 C753 1.394 1_565 S
C752 C758 1.465 . S
C753 C748 1.399 . S
C753 C752 1.394 1_545 S
C753 C754 1.516 . S
C754 C753 1.516 . S
C754 C755 1.502 . S
C754 C756 1.561 . S
C754 C757 1.526 . S
C755 H739 0.959 . S
C755 H740 0.959 . S
C755 H741 0.961 . S
C755 C754 1.502 . S
C756 H742 0.960 . S
C756 H743 0.961 . S
C756 H744 0.959 1_655 S
C756 C754 1.561 . S
C757 C754 1.526 . S
C757 C758 1.396 1_545 S
C757 C762 1.390 . S
C758 C752 1.465 . S
C758 C757 1.396 1_565 S
C758 C759 1.399 . S
C759 H745 0.929 1_655 S
C759 C758 1.399 . S
C759 C760 1.385 . S
C760 H746 0.931 1_655 S
C760 C759 1.385 . S
C760 C761 1.378 1_565 S
C761 C760 1.378 1_545 S
C761 C762 1.395 . S
C762 H747 0.930 . S
C762 C757 1.390 . S
C762 C761 1.395 . S
H763 C775 0.930 . S
H764 C777 0.930 . S
H765 C778 0.930 . S
H766 C782 0.959 . S
H767 C782 0.959 . S
H768 C782 0.961 . S
H769 C783 0.960 . S
H770 C783 0.961 . S
H771 C783 0.959 . S
H772 C786 0.929 . S
H773 C787 0.931 . S
H774 C789 0.930 . S
C775 H763 0.930 . S
C775 C776 1.399 . S
C775 C780 1.399 . S
C776 C775 1.399 . S
C776 C777 1.376 1_545 S
C777 H764 0.930 . S
C777 C776 1.376 1_565 S
C777 C778 1.388 . S
C778 H765 0.930 . S
C778 C777 1.388 . S
C778 C779 1.390 1_565 S
C779 C778 1.390 1_545 S
C779 C780 1.394 . S
C779 C785 1.465 . S
C780 C775 1.399 . S
C780 C779 1.394 . S
C780 C781 1.516 . S
C781 C780 1.516 . S
C781 C782 1.502 . S
C781 C783 1.561 . S
C781 C784 1.526 . S
C782 H766 0.959 . S
C782 H767 0.959 . S
C782 H768 0.961 . S
C782 C781 1.502 . S
C783 H769 0.960 . S
C783 H770 0.961 . S
C783 H771 0.959 . S
C783 C781 1.561 . S
C784 C781 1.526 . S
C784 C785 1.396 . S
C784 C789 1.390 . S
C785 C779 1.465 . S
C785 C784 1.396 . S
C785 C786 1.399 1_545 S
C786 H772 0.929 . S
C786 C785 1.399 1_565 S
C786 C787 1.385 . S
C787 H773 0.931 . S
C787 C786 1.385 . S
C787 C788 1.389 1_565 S
C788 C787 1.389 1_545 S
C788 C789 1.387 . S
C789 H774 0.930 . S
C789 C784 1.390 . S
C789 C788 1.387 . S
H790 C802 0.930 . S
H791 C804 0.930 . S
H792 C805 0.930 . S
H793 C809 0.959 . S
H794 C809 0.959 . S
H795 C809 0.961 . S
H796 C810 0.960 . S
H797 C810 0.961 . S
H798 C810 0.959 . S
H799 C813 0.929 . S
H800 C814 0.931 . S
H801 C816 0.930 . S
C802 H790 0.930 . S
C802 C803 1.399 . S
C802 C807 1.399 . S
C803 C802 1.399 . S
C803 C804 1.376 . S
C804 H791 0.930 . S
C804 C803 1.376 . S
C804 C805 1.388 . S
C805 H792 0.930 . S
C805 C804 1.388 . S
C805 C806 1.390 . S
C806 C805 1.390 . S
C806 C807 1.394 . S
C806 C812 1.465 . S
C807 C802 1.399 . S
C807 C806 1.394 . S
C807 C808 1.516 . S
C808 C807 1.516 . S
C808 C809 1.502 . S
C808 C810 1.561 . S
C808 C811 1.526 . S
C809 H793 0.959 . S
C809 H794 0.959 . S
C809 H795 0.961 . S
C809 C808 1.502 . S
C810 H796 0.960 . S
C810 H797 0.961 . S
C810 H798 0.959 . S
C810 C808 1.561 . S
C811 C808 1.526 . S
C811 C812 1.396 . S
C811 C816 1.390 . S
C812 C806 1.465 . S
C812 C811 1.396 . S
C812 C813 1.399 . S
C813 H799 0.929 . S
C813 C812 1.399 . S
C813 C814 1.385 . S
C814 H800 0.931 . S
C814 C813 1.385 . S
C814 C815 1.389 . S
C815 C814 1.389 . S
C815 C816 1.387 . S
C816 H801 0.930 . S
C816 C811 1.390 . S
C816 C815 1.387 . S
H817 C829 0.930 . S
H818 C831 0.930 . S
H819 C832 0.930 . S
H820 C836 0.959 . S
H821 C836 0.959 . S
H822 C836 0.961 . S
H823 C837 0.960 . S
H824 C837 0.961 . S
H825 C837 0.959 . S
H826 C840 0.929 . S
H827 C841 0.931 . S
H828 C843 0.930 . S
C829 H817 0.930 . S
C829 C830 1.399 . S
C829 C834 1.399 . S
C830 C829 1.399 . S
C830 C831 1.376 . S
C831 H818 0.930 . S
C831 C830 1.376 . S
C831 C832 1.388 . S
C832 H819 0.930 . S
C832 C831 1.388 . S
C832 C833 1.390 . S
C833 C832 1.390 . S
C833 C834 1.394 . S
C833 C839 1.465 . S
C834 C829 1.399 . S
C834 C833 1.394 . S
C834 C835 1.516 . S
C835 C834 1.516 . S
C835 C836 1.502 . S
C835 C837 1.561 . S
C835 C838 1.526 . S
C836 H820 0.959 . S
C836 H821 0.959 . S
C836 H822 0.961 . S
C836 C835 1.502 . S
C837 H823 0.960 . S
C837 H824 0.961 . S
C837 H825 0.959 . S
C837 C835 1.561 . S
C838 C835 1.526 . S
C838 C839 1.396 . S
C838 C843 1.390 . S
C839 C833 1.465 . S
C839 C838 1.396 . S
C839 C840 1.399 . S
C840 H826 0.929 . S
C840 C839 1.399 . S
C840 C841 1.385 . S
C841 H827 0.931 . S
C841 C840 1.385 . S
C841 C842 1.389 . S
C842 C841 1.389 . S
C842 C843 1.387 . S
C843 H828 0.930 . S
C843 C838 1.390 . S
C843 C842 1.387 . S
H844 C856 0.930 . S
H845 C858 0.930 . S
H846 C859 0.930 . S
H847 C863 0.954 1_554 S
H848 C863 0.960 . S
H849 C863 0.962 . S
H850 C864 0.960 . S
H851 C864 0.961 . S
H852 C864 0.959 . S
H853 C867 0.929 . S
H854 C868 0.931 . S
H855 C870 0.930 . S
C856 H844 0.930 . S
C856 C857 1.399 1_545 S
C856 C861 1.399 . S
C857 C856 1.399 1_565 S
C857 C858 1.376 . S
C858 H845 0.930 . S
C858 C857 1.376 . S
C858 C859 1.388 . S
C859 H846 0.930 . S
C859 C858 1.388 . S
C859 C860 1.390 . S
C860 C859 1.390 . S
C860 C861 1.394 1_565 S
C860 C866 1.465 . S
C861 C856 1.399 . S
C861 C860 1.394 1_545 S
C861 C862 1.516 . S
C862 C861 1.516 . S
C862 C863 1.506 . S
C862 C864 1.561 . S
C862 C865 1.526 . S
C863 H847 0.954 1_556 S
C863 H848 0.960 . S
C863 H849 0.962 . S
C863 C862 1.506 . S
C864 H850 0.960 . S
C864 H851 0.961 . S
C864 H852 0.959 . S
C864 C862 1.561 . S
C865 C862 1.526 . S
C865 C866 1.396 1_545 S
C865 C870 1.390 . S
C866 C860 1.465 . S
C866 C865 1.396 1_565 S
C866 C867 1.399 . S
C867 H853 0.929 . S
C867 C866 1.399 . S
C867 C868 1.385 . S
C868 H854 0.931 . S
C868 C867 1.385 . S
C868 C869 1.389 . S
C869 C868 1.389 . S
C869 C870 1.387 1_565 S
C870 H855 0.930 . S
C870 C865 1.390 . S
C870 C869 1.387 1_545 S
H871 C883 0.930 . S
H872 C885 0.930 . S
H873 C886 0.930 . S
H874 C890 0.959 . S
H875 C890 0.959 . S
H876 C890 0.961 . S
H877 C891 0.960 . S
H878 C891 0.961 . S
H879 C891 0.959 . S
H880 C894 0.929 . S
H881 C895 0.931 . S
H882 C897 0.930 . S
C883 H871 0.930 . S
C883 C884 1.399 . S
C883 C888 1.399 . S
C884 C883 1.399 . S
C884 C885 1.376 1_545 S
C885 H872 0.930 . S
C885 C884 1.376 1_565 S
C885 C886 1.388 . S
C886 H873 0.930 . S
C886 C885 1.388 . S
C886 C887 1.390 1_565 S
C887 C886 1.390 1_545 S
C887 C888 1.394 . S
C887 C893 1.465 . S
C888 C883 1.399 . S
C888 C887 1.394 . S
C888 C889 1.516 . S
C889 C888 1.516 . S
C889 C890 1.502 . S
C889 C891 1.561 . S
C889 C892 1.526 . S
C890 H874 0.959 . S
C890 H875 0.959 . S
C890 H876 0.961 . S
C890 C889 1.502 . S
C891 H877 0.960 . S
C891 H878 0.961 . S
C891 H879 0.959 . S
C891 C889 1.561 . S
C892 C889 1.526 . S
C892 C893 1.396 . S
C892 C897 1.390 . S
C893 C887 1.465 . S
C893 C892 1.396 . S
C893 C894 1.399 1_545 S
C894 H880 0.929 . S
C894 C893 1.399 1_565 S
C894 C895 1.385 . S
C895 H881 0.931 . S
C895 C894 1.385 . S
C895 C896 1.389 1_565 S
C896 C895 1.389 1_545 S
C896 C897 1.387 . S
C897 H882 0.930 . S
C897 C892 1.390 . S
C897 C896 1.387 . S
H898 C910 0.930 . S
H899 C912 0.930 . S
H900 C913 0.930 . S
H901 C917 0.959 . S
H902 C917 0.959 . S
H903 C917 0.961 . S
H904 C918 0.960 . S
H905 C918 0.961 . S
H906 C918 0.959 . S
H907 C921 0.929 . S
H908 C922 0.931 . S
H909 C924 0.916 1_556 S
C910 H898 0.930 . S
C910 C911 1.399 . S
C910 C915 1.399 . S
C911 C910 1.399 . S
C911 C912 1.376 . S
C912 H899 0.930 . S
C912 C911 1.376 . S
C912 C913 1.388 . S
C913 H900 0.930 . S
C913 C912 1.388 . S
C913 C914 1.390 . S
C914 C913 1.390 . S
C914 C915 1.394 . S
C914 C920 1.465 . S
C915 C910 1.399 . S
C915 C914 1.394 . S
C915 C916 1.516 . S
C916 C915 1.516 . S
C916 C917 1.502 1_554 S
C916 C918 1.561 . S
C916 C919 1.526 . S
C917 H901 0.959 . S
C917 H902 0.959 . S
C917 H903 0.961 . S
C917 C916 1.502 1_556 S
C918 H904 0.960 . S
C918 H905 0.961 . S
C918 H906 0.959 . S
C918 C916 1.561 . S
C919 C916 1.526 . S
C919 C920 1.396 . S
C919 C924 1.390 . S
C920 C914 1.465 . S
C920 C919 1.396 . S
C920 C921 1.399 . S
C921 H907 0.929 . S
C921 C920 1.399 . S
C921 C922 1.385 . S
C922 H908 0.931 . S
C922 C921 1.385 . S
C922 C923 1.389 . S
C923 C922 1.389 . S
C923 C924 1.387 . S
C924 H909 0.916 1_554 S
C924 C919 1.390 . S
C924 C923 1.387 . S
H925 C937 0.930 . S
H926 C939 0.930 . S
H927 C940 0.930 . S
H928 C944 0.959 . S
H929 C944 0.959 . S
H930 C944 0.961 . S
H931 C945 0.960 . S
H932 C945 0.961 . S
H933 C945 0.959 . S
H934 C948 0.929 . S
H935 C949 0.931 . S
H936 C951 0.930 . S
C937 H925 0.930 . S
C937 C938 1.399 . S
C937 C942 1.399 . S
C938 C937 1.399 . S
C938 C939 1.376 . S
C939 H926 0.930 . S
C939 C938 1.376 . S
C939 C940 1.388 . S
C940 H927 0.930 . S
C940 C939 1.388 . S
C940 C941 1.390 . S
C941 C940 1.390 . S
C941 C942 1.394 . S
C941 C947 1.465 . S
C942 C937 1.399 . S
C942 C941 1.394 . S
C942 C943 1.516 . S
C943 C942 1.516 . S
C943 C944 1.502 . S
C943 C945 1.561 . S
C943 C946 1.526 . S
C944 H928 0.959 . S
C944 H929 0.959 . S
C944 H930 0.961 . S
C944 C943 1.502 . S
C945 H931 0.960 . S
C945 H932 0.961 . S
C945 H933 0.959 . S
C945 C943 1.561 . S
C946 C943 1.526 . S
C946 C947 1.396 . S
C946 C951 1.390 . S
C947 C941 1.465 . S
C947 C946 1.396 . S
C947 C948 1.399 . S
C948 H934 0.929 . S
C948 C947 1.399 . S
C948 C949 1.385 . S
C949 H935 0.931 . S
C949 C948 1.385 . S
C949 C950 1.389 . S
C950 C949 1.389 . S
C950 C951 1.387 . S
C951 H936 0.930 . S
C951 C946 1.390 . S
C951 C950 1.387 . S
H952 C964 0.930 . S
H953 C966 0.930 . S
H954 C967 0.930 1_455 S
H955 C971 0.959 . S
H956 C971 0.959 . S
H957 C971 0.961 . S
H958 C972 0.960 . S
H959 C972 0.961 . S
H960 C972 0.959 1_455 S
H961 C975 0.929 1_455 S
H962 C976 0.931 1_455 S
H963 C978 0.930 . S
C964 H952 0.930 . S
C964 C965 1.399 . S
C964 C969 1.399 . S
C965 C964 1.399 . S
C965 C966 1.376 1_556 S
C966 H953 0.930 . S
C966 C965 1.376 1_554 S
C966 C967 1.388 . S
C967 H954 0.930 1_655 S
C967 C966 1.388 . S
C967 C968 1.390 1_554 S
C968 C967 1.390 1_556 S
C968 C969 1.394 . S
C968 C974 1.465 . S
C969 C964 1.399 . S
C969 C968 1.394 . S
C969 C970 1.516 . S
C970 C969 1.516 . S
C970 C971 1.502 . S
C970 C972 1.561 . S
C970 C973 1.526 . S
C971 H955 0.959 . S
C971 H956 0.959 . S
C971 H957 0.961 . S
C971 C970 1.502 . S
C972 H958 0.960 . S
C972 H959 0.961 . S
C972 H960 0.959 1_655 S
C972 C970 1.561 . S
C973 C970 1.526 . S
C973 C974 1.396 . S
C973 C978 1.390 . S
C974 C968 1.465 . S
C974 C973 1.396 . S
C974 C975 1.399 1_556 S
C975 H961 0.929 1_655 S
C975 C974 1.399 1_554 S
C975 C976 1.385 . S
C976 H962 0.931 1_655 S
C976 C975 1.385 . S
C976 C977 1.389 1_554 S
C977 C976 1.389 1_556 S
C977 C978 1.387 . S
C978 H963 0.930 . S
C978 C973 1.390 . S
C978 C977 1.387 . S
H979 C991 0.930 . S
H980 C993 0.930 . S
H981 C994 0.930 . S
H982 C998 0.959 . S
H983 C998 0.959 1_556 S
H984 C998 0.945 1_556 S
H985 C999 0.960 . S
H986 C999 0.961 . S
H987 C999 0.959 . S
H988 C1002 0.929 . S
H989 C1003 0.931 . S
H990 C1005 0.930 . S
C991 H979 0.930 . S
C991 C992 1.399 . S
C991 C996 1.399 . S
C992 C991 1.399 . S
C992 C993 1.376 . S
C993 H980 0.930 . S
C993 C992 1.376 . S
C993 C994 1.388 . S
C994 H981 0.930 . S
C994 C993 1.388 . S
C994 C995 1.390 . S
C995 C994 1.390 . S
C995 C996 1.394 . S
C995 C1001 1.465 . S
C996 C991 1.399 . S
C996 C995 1.394 . S
C996 C997 1.516 . S
C997 C996 1.516 . S
C997 C998 1.502 . S
C997 C999 1.561 1_554 S
C997 C1000 1.526 . S
C998 H982 0.959 . S
C998 H983 0.959 1_554 S
C998 H984 0.945 1_554 S
C998 C997 1.502 . S
C999 H985 0.960 . S
C999 H986 0.961 . S
C999 H987 0.959 . S
C999 C997 1.561 1_556 S
C1000 C997 1.526 . S
C1000 C1001 1.396 . S
C1000 C1005 1.390 . S
C1001 C995 1.465 . S
C1001 C1000 1.396 . S
C1001 C1002 1.399 . S
C1002 H988 0.929 . S
C1002 C1001 1.399 . S
C1002 C1003 1.385 . S
C1003 H989 0.931 . S
C1003 C1002 1.385 . S
C1003 C1004 1.389 . S
C1004 C1003 1.389 . S
C1004 C1005 1.387 . S
C1005 H990 0.930 . S
C1005 C1000 1.390 . S
C1005 C1004 1.387 . S
H1006 C1018 0.930 . S
H1007 C1020 0.930 . S
H1008 C1021 0.930 . S
H1009 C1025 0.959 . S
H1010 C1025 0.959 . S
H1011 C1025 0.961 . S
H1012 C1026 0.960 . S
H1013 C1026 0.961 . S
H1014 C1026 0.959 . S
H1015 C1029 0.929 . S
H1016 C1030 0.931 . S
H1017 C1032 0.930 . S
C1018 H1006 0.930 . S
C1018 C1019 1.399 . S
C1018 C1023 1.399 . S
C1019 C1018 1.399 . S
C1019 C1020 1.376 . S
C1020 H1007 0.930 . S
C1020 C1019 1.376 . S
C1020 C1021 1.388 . S
C1021 H1008 0.930 . S
C1021 C1020 1.388 . S
C1021 C1022 1.390 . S
C1022 C1021 1.390 . S
C1022 C1023 1.394 . S
C1022 C1028 1.465 . S
C1023 C1018 1.399 . S
C1023 C1022 1.394 . S
C1023 C1024 1.516 . S
C1024 C1023 1.516 . S
C1024 C1025 1.502 1_455 S
C1024 C1026 1.561 . S
C1024 C1027 1.526 . S
C1025 H1009 0.959 . S
C1025 H1010 0.959 . S
C1025 H1011 0.961 . S
C1025 C1024 1.502 1_655 S
C1026 H1012 0.960 . S
C1026 H1013 0.961 . S
C1026 H1014 0.959 . S
C1026 C1024 1.561 . S
C1027 C1024 1.526 . S
C1027 C1028 1.396 . S
C1027 C1032 1.390 . S
C1028 C1022 1.465 . S
C1028 C1027 1.396 . S
C1028 C1029 1.399 . S
C1029 H1015 0.929 . S
C1029 C1028 1.399 . S
C1029 C1030 1.385 . S
C1030 H1016 0.931 . S
C1030 C1029 1.385 . S
C1030 C1031 1.389 . S
C1031 C1030 1.389 . S
C1031 C1032 1.387 . S
C1032 H1017 0.930 . S
C1032 C1027 1.390 . S
C1032 C1031 1.387 . S
H1033 C1045 0.930 . S
H1034 C1047 0.930 . S
H1035 C1048 0.930 . S
H1036 C1052 0.959 . S
H1037 C1052 0.959 . S
H1038 C1052 0.961 . S
H1039 C1053 0.960 . S
H1040 C1053 0.961 . S
H1041 C1053 0.959 . S
H1042 C1056 0.929 . S
H1043 C1057 0.931 . S
H1044 C1059 0.930 . S
C1045 H1033 0.930 . S
C1045 C1046 1.399 . S
C1045 C1050 1.399 . S
C1046 C1045 1.399 . S
C1046 C1047 1.376 . S
C1047 H1034 0.930 . S
C1047 C1046 1.376 . S
C1047 C1048 1.388 . S
C1048 H1035 0.930 . S
C1048 C1047 1.388 . S
C1048 C1049 1.390 . S
C1049 C1048 1.390 . S
C1049 C1050 1.394 . S
C1049 C1055 1.465 . S
C1050 C1045 1.399 . S
C1050 C1049 1.394 . S
C1050 C1051 1.516 . S
C1051 C1050 1.516 . S
C1051 C1052 1.502 . S
C1051 C1053 1.561 . S
C1051 C1054 1.526 . S
C1052 H1036 0.959 . S
C1052 H1037 0.959 . S
C1052 H1038 0.961 . S
C1052 C1051 1.502 . S
C1053 H1039 0.960 . S
C1053 H1040 0.961 . S
C1053 H1041 0.959 . S
C1053 C1051 1.561 . S
C1054 C1051 1.526 . S
C1054 C1055 1.396 . S
C1054 C1059 1.390 . S
C1055 C1049 1.465 . S
C1055 C1054 1.396 . S
C1055 C1056 1.399 . S
C1056 H1042 0.929 . S
C1056 C1055 1.399 . S
C1056 C1057 1.385 . S
C1057 H1043 0.931 . S
C1057 C1056 1.385 . S
C1057 C1058 1.389 . S
C1058 C1057 1.389 . S
C1058 C1059 1.387 . S
C1059 H1044 0.930 . S
C1059 C1054 1.390 . S
C1059 C1058 1.387 . S
C425 C21 1.651 . S
C437 C338 1.617 . S
C452 C61 1.627 . S
C464 C362 1.566 . S
C491 C382 1.398 . S
C479 C82 1.416 . S
C506 C135 1.444 . S
C518 C405 1.496 . S
C545 C364 1.707 . S
C533 C15 1.711 . S
C572 C340 1.722 . S
C560 C42 1.698 . S
C599 C408 1.648 . S
C587 C101 1.677 . S
C626 C385 1.602 . S
C614 C122 1.617 . S
C641 C2 1.440 . S
C653 C410 1.421 . S
C680 C359 1.643 . S
C668 C95 1.616 . S
C695 C141 1.694 . S
C707 C337 1.695 . S
C722 C55 1.367 . S
C734 C387 1.377 . S
C761 C341 1.807 . S
C749 C181 1.703 . S
C776 C202 1.653 . S
C788 C363 1.752 . S
C803 C255 1.814 . S
C815 C383 1.854 . S
C830 C295 1.832 . S
C842 C406 1.871 . S
C857 C175 1.625 . S
C869 C361 1.663 1_556 S
C896 C339 1.748 . S
C884 C221 1.667 . S
C923 C409 1.519 . S
C911 C242 1.429 . S
C950 C386 1.598 . S
C938 C301 1.672 . S
C965 C162 1.949 . S
C977 C407 1.953 . S
C1004 C360 1.669 . S
C992 C261 1.507 . S
C1031 C336 1.692 . S
C1019 C282 1.655 . S
C1046 C215 1.957 . S
C1058 C384 1.993 . S
