# Generated by pormake.
# Topology iac, (4,6)-cn, num edge types: 1
# Building blocks:
#     Node 0, Type 0, BuildingBlock: KUFVIS_clean_sbu_0, # of connection points: 4
#     Node 1, Type 0, BuildingBlock: KUFVIS_clean_sbu_0, # of connection points: 4
#     Node 2, Type 0, BuildingBlock: KUFVIS_clean_sbu_0, # of connection points: 4
#     Node 3, Type 0, BuildingBlock: KUFVIS_clean_sbu_0, # of connection points: 4
#     Node 4, Type 0, BuildingBlock: KUFVIS_clean_sbu_0, # of connection points: 4
#     Node 5, Type 0, BuildingBlock: KUFVIS_clean_sbu_0, # of connection points: 4
#     Node 6, Type 0, BuildingBlock: KUFVIS_clean_sbu_0, # of connection points: 4
#     Node 7, Type 0, BuildingBlock: KUFVIS_clean_sbu_0, # of connection points: 4
#     Node 8, Type 0, BuildingBlock: KUFVIS_clean_sbu_0, # of connection points: 4
#     Node 9, Type 0, BuildingBlock: KUFVIS_clean_sbu_0, # of connection points: 4
#     Node 10, Type 0, BuildingBlock: KUFVIS_clean_sbu_0, # of connection points: 4
#     Node 11, Type 0, BuildingBlock: KUFVIS_clean_sbu_0, # of connection points: 4
#     Node 12, Type 0, BuildingBlock: KUFVIS_clean_sbu_0, # of connection points: 4
#     Node 13, Type 0, BuildingBlock: KUFVIS_clean_sbu_0, # of connection points: 4
#     Node 14, Type 0, BuildingBlock: KUFVIS_clean_sbu_0, # of connection points: 4
#     Node 15, Type 0, BuildingBlock: KUFVIS_clean_sbu_0, # of connection points: 4
#     Node 16, Type 0, BuildingBlock: KUFVIS_clean_sbu_0, # of connection points: 4
#     Node 17, Type 0, BuildingBlock: KUFVIS_clean_sbu_0, # of connection points: 4
#     Node 18, Type 0, BuildingBlock: KUFVIS_clean_sbu_0, # of connection points: 4
#     Node 19, Type 0, BuildingBlock: KUFVIS_clean_sbu_0, # of connection points: 4
#     Node 20, Type 0, BuildingBlock: KUFVIS_clean_sbu_0, # of connection points: 4
#     Node 21, Type 0, BuildingBlock: KUFVIS_clean_sbu_0, # of connection points: 4
#     Node 22, Type 0, BuildingBlock: KUFVIS_clean_sbu_0, # of connection points: 4
#     Node 23, Type 0, BuildingBlock: KUFVIS_clean_sbu_0, # of connection points: 4
#     Node 24, Type 1, BuildingBlock: FUNLAD_clean_sbu_0, # of connection points: 6
#     Node 25, Type 1, BuildingBlock: FUNLAD_clean_sbu_0, # of connection points: 6
#     Node 26, Type 1, BuildingBlock: FUNLAD_clean_sbu_0, # of connection points: 6
#     Node 27, Type 1, BuildingBlock: FUNLAD_clean_sbu_0, # of connection points: 6
#     Node 28, Type 1, BuildingBlock: FUNLAD_clean_sbu_0, # of connection points: 6
#     Node 29, Type 1, BuildingBlock: FUNLAD_clean_sbu_0, # of connection points: 6
#     Node 30, Type 1, BuildingBlock: FUNLAD_clean_sbu_0, # of connection points: 6
#     Node 31, Type 1, BuildingBlock: FUNLAD_clean_sbu_0, # of connection points: 6
#     Node 32, Type 1, BuildingBlock: FUNLAD_clean_sbu_0, # of connection points: 6
#     Node 33, Type 1, BuildingBlock: FUNLAD_clean_sbu_0, # of connection points: 6
#     Node 34, Type 1, BuildingBlock: FUNLAD_clean_sbu_0, # of connection points: 6
#     Node 35, Type 1, BuildingBlock: FUNLAD_clean_sbu_0, # of connection points: 6
#     Node 36, Type 1, BuildingBlock: FUNLAD_clean_sbu_0, # of connection points: 6
#     Node 37, Type 1, BuildingBlock: FUNLAD_clean_sbu_0, # of connection points: 6
#     Node 38, Type 1, BuildingBlock: FUNLAD_clean_sbu_0, # of connection points: 6
#     Node 39, Type 1, BuildingBlock: FUNLAD_clean_sbu_0, # of connection points: 6
#     Edge 40, Type (0, 1), BuildingBlock: CIFDUS_clean_linker_0, # of connection points: 2
#     Edge 41, Type (0, 1), BuildingBlock: CIFDUS_clean_linker_0, # of connection points: 2
#     Edge 42, Type (0, 1), BuildingBlock: CIFDUS_clean_linker_0, # of connection points: 2
#     Edge 43, Type (0, 1), BuildingBlock: CIFDUS_clean_linker_0, # of connection points: 2
#     Edge 44, Type (0, 1), BuildingBlock: CIFDUS_clean_linker_0, # of connection points: 2
#     Edge 45, Type (0, 1), BuildingBlock: CIFDUS_clean_linker_0, # of connection points: 2
#     Edge 46, Type (0, 1), BuildingBlock: CIFDUS_clean_linker_0, # of connection points: 2
#     Edge 47, Type (0, 1), BuildingBlock: CIFDUS_clean_linker_0, # of connection points: 2
#     Edge 48, Type (0, 1), BuildingBlock: CIFDUS_clean_linker_0, # of connection points: 2
#     Edge 49, Type (0, 1), BuildingBlock: CIFDUS_clean_linker_0, # of connection points: 2
#     Edge 50, Type (0, 1), BuildingBlock: CIFDUS_clean_linker_0, # of connection points: 2
#     Edge 51, Type (0, 1), BuildingBlock: CIFDUS_clean_linker_0, # of connection points: 2
#     Edge 52, Type (0, 1), BuildingBlock: CIFDUS_clean_linker_0, # of connection points: 2
#     Edge 53, Type (0, 1), BuildingBlock: CIFDUS_clean_linker_0, # of connection points: 2
#     Edge 54, Type (0, 1), BuildingBlock: CIFDUS_clean_linker_0, # of connection points: 2
#     Edge 55, Type (0, 1), BuildingBlock: CIFDUS_clean_linker_0, # of connection points: 2
#     Edge 56, Type (0, 1), BuildingBlock: CIFDUS_clean_linker_0, # of connection points: 2
#     Edge 57, Type (0, 1), BuildingBlock: CIFDUS_clean_linker_0, # of connection points: 2
#     Edge 58, Type (0, 1), BuildingBlock: CIFDUS_clean_linker_0, # of connection points: 2
#     Edge 59, Type (0, 1), BuildingBlock: CIFDUS_clean_linker_0, # of connection points: 2
#     Edge 60, Type (0, 1), BuildingBlock: CIFDUS_clean_linker_0, # of connection points: 2
#     Edge 61, Type (0, 1), BuildingBlock: CIFDUS_clean_linker_0, # of connection points: 2
#     Edge 62, Type (0, 1), BuildingBlock: CIFDUS_clean_linker_0, # of connection points: 2
#     Edge 63, Type (0, 1), BuildingBlock: CIFDUS_clean_linker_0, # of connection points: 2
#     Edge 64, Type (0, 1), BuildingBlock: CIFDUS_clean_linker_0, # of connection points: 2
#     Edge 65, Type (0, 1), BuildingBlock: CIFDUS_clean_linker_0, # of connection points: 2
#     Edge 66, Type (0, 1), BuildingBlock: CIFDUS_clean_linker_0, # of connection points: 2
#     Edge 67, Type (0, 1), BuildingBlock: CIFDUS_clean_linker_0, # of connection points: 2
#     Edge 68, Type (0, 1), BuildingBlock: CIFDUS_clean_linker_0, # of connection points: 2
#     Edge 69, Type (0, 1), BuildingBlock: CIFDUS_clean_linker_0, # of connection points: 2
#     Edge 70, Type (0, 1), BuildingBlock: CIFDUS_clean_linker_0, # of connection points: 2
#     Edge 71, Type (0, 1), BuildingBlock: CIFDUS_clean_linker_0, # of connection points: 2
#     Edge 72, Type (0, 1), BuildingBlock: CIFDUS_clean_linker_0, # of connection points: 2
#     Edge 73, Type (0, 1), BuildingBlock: CIFDUS_clean_linker_0, # of connection points: 2
#     Edge 74, Type (0, 1), BuildingBlock: CIFDUS_clean_linker_0, # of connection points: 2
#     Edge 75, Type (0, 1), BuildingBlock: CIFDUS_clean_linker_0, # of connection points: 2
#     Edge 76, Type (0, 1), BuildingBlock: CIFDUS_clean_linker_0, # of connection points: 2
#     Edge 77, Type (0, 1), BuildingBlock: CIFDUS_clean_linker_0, # of connection points: 2
#     Edge 78, Type (0, 1), BuildingBlock: CIFDUS_clean_linker_0, # of connection points: 2
#     Edge 79, Type (0, 1), BuildingBlock: CIFDUS_clean_linker_0, # of connection points: 2
#     Edge 80, Type (0, 1), BuildingBlock: CIFDUS_clean_linker_0, # of connection points: 2
#     Edge 81, Type (0, 1), BuildingBlock: CIFDUS_clean_linker_0, # of connection points: 2
#     Edge 82, Type (0, 1), BuildingBlock: CIFDUS_clean_linker_0, # of connection points: 2
#     Edge 83, Type (0, 1), BuildingBlock: CIFDUS_clean_linker_0, # of connection points: 2
#     Edge 84, Type (0, 1), BuildingBlock: CIFDUS_clean_linker_0, # of connection points: 2
#     Edge 85, Type (0, 1), BuildingBlock: CIFDUS_clean_linker_0, # of connection points: 2
#     Edge 86, Type (0, 1), BuildingBlock: CIFDUS_clean_linker_0, # of connection points: 2
#     Edge 87, Type (0, 1), BuildingBlock: CIFDUS_clean_linker_0, # of connection points: 2
#     Edge 88, Type (0, 1), BuildingBlock: CIFDUS_clean_linker_0, # of connection points: 2
#     Edge 89, Type (0, 1), BuildingBlock: CIFDUS_clean_linker_0, # of connection points: 2
#     Edge 90, Type (0, 1), BuildingBlock: CIFDUS_clean_linker_0, # of connection points: 2
#     Edge 91, Type (0, 1), BuildingBlock: CIFDUS_clean_linker_0, # of connection points: 2
#     Edge 92, Type (0, 1), BuildingBlock: CIFDUS_clean_linker_0, # of connection points: 2
#     Edge 93, Type (0, 1), BuildingBlock: CIFDUS_clean_linker_0, # of connection points: 2
#     Edge 94, Type (0, 1), BuildingBlock: CIFDUS_clean_linker_0, # of connection points: 2
#     Edge 95, Type (0, 1), BuildingBlock: CIFDUS_clean_linker_0, # of connection points: 2
#     Edge 96, Type (0, 1), BuildingBlock: CIFDUS_clean_linker_0, # of connection points: 2
#     Edge 97, Type (0, 1), BuildingBlock: CIFDUS_clean_linker_0, # of connection points: 2
#     Edge 98, Type (0, 1), BuildingBlock: CIFDUS_clean_linker_0, # of connection points: 2
#     Edge 99, Type (0, 1), BuildingBlock: CIFDUS_clean_linker_0, # of connection points: 2
#     Edge 100, Type (0, 1), BuildingBlock: CIFDUS_clean_linker_0, # of connection points: 2
#     Edge 101, Type (0, 1), BuildingBlock: CIFDUS_clean_linker_0, # of connection points: 2
#     Edge 102, Type (0, 1), BuildingBlock: CIFDUS_clean_linker_0, # of connection points: 2
#     Edge 103, Type (0, 1), BuildingBlock: CIFDUS_clean_linker_0, # of connection points: 2
#     Edge 104, Type (0, 1), BuildingBlock: CIFDUS_clean_linker_0, # of connection points: 2
#     Edge 105, Type (0, 1), BuildingBlock: CIFDUS_clean_linker_0, # of connection points: 2
#     Edge 106, Type (0, 1), BuildingBlock: CIFDUS_clean_linker_0, # of connection points: 2
#     Edge 107, Type (0, 1), BuildingBlock: CIFDUS_clean_linker_0, # of connection points: 2
#     Edge 108, Type (0, 1), BuildingBlock: CIFDUS_clean_linker_0, # of connection points: 2
#     Edge 109, Type (0, 1), BuildingBlock: CIFDUS_clean_linker_0, # of connection points: 2
#     Edge 110, Type (0, 1), BuildingBlock: CIFDUS_clean_linker_0, # of connection points: 2
#     Edge 111, Type (0, 1), BuildingBlock: CIFDUS_clean_linker_0, # of connection points: 2
#     Edge 112, Type (0, 1), BuildingBlock: CIFDUS_clean_linker_0, # of connection points: 2
#     Edge 113, Type (0, 1), BuildingBlock: CIFDUS_clean_linker_0, # of connection points: 2
#     Edge 114, Type (0, 1), BuildingBlock: CIFDUS_clean_linker_0, # of connection points: 2
#     Edge 115, Type (0, 1), BuildingBlock: CIFDUS_clean_linker_0, # of connection points: 2
#     Edge 116, Type (0, 1), BuildingBlock: CIFDUS_clean_linker_0, # of connection points: 2
#     Edge 117, Type (0, 1), BuildingBlock: CIFDUS_clean_linker_0, # of connection points: 2
#     Edge 118, Type (0, 1), BuildingBlock: CIFDUS_clean_linker_0, # of connection points: 2
#     Edge 119, Type (0, 1), BuildingBlock: CIFDUS_clean_linker_0, # of connection points: 2
#     Edge 120, Type (0, 1), BuildingBlock: CIFDUS_clean_linker_0, # of connection points: 2
#     Edge 121, Type (0, 1), BuildingBlock: CIFDUS_clean_linker_0, # of connection points: 2
#     Edge 122, Type (0, 1), BuildingBlock: CIFDUS_clean_linker_0, # of connection points: 2
#     Edge 123, Type (0, 1), BuildingBlock: CIFDUS_clean_linker_0, # of connection points: 2
#     Edge 124, Type (0, 1), BuildingBlock: CIFDUS_clean_linker_0, # of connection points: 2
#     Edge 125, Type (0, 1), BuildingBlock: CIFDUS_clean_linker_0, # of connection points: 2
#     Edge 126, Type (0, 1), BuildingBlock: CIFDUS_clean_linker_0, # of connection points: 2
#     Edge 127, Type (0, 1), BuildingBlock: CIFDUS_clean_linker_0, # of connection points: 2
#     Edge 128, Type (0, 1), BuildingBlock: CIFDUS_clean_linker_0, # of connection points: 2
#     Edge 129, Type (0, 1), BuildingBlock: CIFDUS_clean_linker_0, # of connection points: 2
#     Edge 130, Type (0, 1), BuildingBlock: CIFDUS_clean_linker_0, # of connection points: 2
#     Edge 131, Type (0, 1), BuildingBlock: CIFDUS_clean_linker_0, # of connection points: 2
#     Edge 132, Type (0, 1), BuildingBlock: CIFDUS_clean_linker_0, # of connection points: 2
#     Edge 133, Type (0, 1), BuildingBlock: CIFDUS_clean_linker_0, # of connection points: 2
#     Edge 134, Type (0, 1), BuildingBlock: CIFDUS_clean_linker_0, # of connection points: 2
#     Edge 135, Type (0, 1), BuildingBlock: CIFDUS_clean_linker_0, # of connection points: 2
# Relax obj value: 0.338
# Max RMSD: 0.298
# Mean RMSD: 0.128
data_MOF--net-iac--node1-KUFVIS_clean_sbu_0--node2-FUNLAD_clean_sbu_0--edge1-CIFDUS_clean_linker_0
_symmetry_space_group_name_H-M    P1
_symmetry_Int_Tables_number       1
_symmetry_cell_setting            triclinic
loop_
_symmetry_equiv_pos_as_xyz
'x, y, z'
_cell_length_a     48.015806
_cell_length_b     45.539691
_cell_length_c     53.423416
_cell_angle_alpha  89.894119
_cell_angle_beta   92.056205
_cell_angle_gamma 90.230833
loop_
_atom_site_label
_atom_site_type_symbol
_atom_site_fract_x
_atom_site_fract_y
_atom_site_fract_z
_atom_type_partial_charge
Mn0 Mn 0.07707 0.2189 0.16825 0.0
Mn1 Mn 0.04161 0.20748 0.11437 0.0
C2 C 0.08051 0.17366 0.14994 0.0
C3 C 0.11626 0.24024 0.18649 0.0
C4 C 0.01544 0.21255 0.16517 0.0
O5 O 0.0645 0.25901 0.15632 0.0
O6 O 0.05449 0.24883 0.11581 0.0
C7 C 0.08347 0.2166 0.07566 0.0
N8 N 0.06389 0.19943 0.08633 0.0
C9 C 0.06457 0.16497 0.0523 0.0
C10 C 0.08456 0.18244 0.04079 0.0
C11 C 0.0943 0.20819 0.05269 0.0
C12 C 0.05498 0.1742 0.07541 0.0
H13 H 0.0906 0.23659 0.08457 0.0
C14 C 0.06032 0.26676 0.13367 0.0
O15 O 0.09372 0.23697 0.19903 0.0
O16 O 0.1161 0.23031 0.16377 0.0
N17 N 0.02867 0.16793 0.11075 0.0
C18 C 0.0118 0.15205 0.1257 0.0
C19 C 1.00265 0.12412 0.11794 0.0
C20 C 0.01029 0.11322 0.09463 0.0
C21 C 0.02721 0.13017 0.07934 0.0
C22 C 0.0365 0.15737 0.08847 0.0
H23 H 0.00548 0.16046 0.14344 0.0
O24 O 0.08829 0.17715 0.17328 0.0
O25 O 0.07193 0.19693 0.13798 0.0
O26 O 0.0376 0.20982 0.17879 0.0
O27 O 0.01556 0.21513 0.14137 0.0
C28 C 0.03556 0.12105 0.05556 0.0
C29 C 0.05409 0.13853 0.04197 0.0
H30 H 0.0928 0.17611 0.02298 0.0
H31 H 0.10986 0.22169 0.04402 0.0
H32 H 0.9896 0.1111 0.12982 0.0
H33 H 1.00339 0.09163 0.08894 0.0
H34 H 0.02836 0.10039 0.04774 0.0
H35 H 0.06086 0.13095 0.02398 0.0
Mn36 Mn 0.04336 0.77857 0.39765 0.0
Mn37 Mn 1.00175 0.7823 0.44786 0.0
C38 C 0.03608 0.82418 0.41808 0.0
C39 C 0.08664 0.76991 0.37741 0.0
C40 C 0.97893 0.77557 0.39401 0.0
O41 O 0.04102 0.7351 0.40995 0.0
O42 O 0.01743 0.74236 0.44512 0.0
C43 C 0.04347 0.77335 0.48936 0.0
N44 N 0.02237 0.78931 0.47851 0.0
C45 C 0.02044 0.82081 0.5145 0.0
C46 C 0.04193 0.80449 0.52622 0.0
C47 C 0.05367 0.78083 0.51349 0.0
C48 C 0.01138 0.81252 0.49034 0.0
H49 H 0.05237 0.75504 0.47967 0.0
C50 C 0.03117 0.72588 0.43066 0.0
O51 O 0.06243 0.76682 0.36633 0.0
O52 O 0.08611 0.77786 0.40079 0.0
N53 N 0.98505 0.81969 0.45344 0.0
C54 C 0.9662 0.83463 0.43867 0.0
C55 C 0.95382 0.86011 0.44792 0.0
C56 C 0.96046 0.86957 0.47244 0.0
C57 C 0.97959 0.85359 0.48743 0.0
C58 C 0.99151 0.82858 0.47709 0.0
H59 H 0.96067 0.82719 0.41996 0.0
O60 O 0.04416 0.8231 0.39513 0.0
O61 O 0.03264 0.79872 0.42858 0.0
O62 O 1.00233 0.77768 0.38348 0.0
O63 O 0.97715 0.77546 0.4178 0.0
C64 C 0.98764 0.86172 0.51209 0.0
C65 C 0.00802 0.84531 0.52564 0.0
H66 H 0.04981 0.81014 0.54485 0.0
H67 H 0.0704 0.76827 0.52233 0.0
H68 H 0.93905 0.87231 0.43625 0.0
H69 H 0.95086 0.88923 0.47951 0.0
H70 H 0.97874 0.88092 0.52062 0.0
H71 H 0.0145 0.85217 0.54437 0.0
Mn72 Mn 0.58715 0.70664 0.63026 0.0
Mn73 Mn 0.53873 0.69084 0.58528 0.0
C74 C 0.59225 0.66461 0.60763 0.0
C75 C 0.62773 0.73158 0.64094 0.0
C76 C 0.52883 0.68463 0.64105 0.0
O77 O 0.56743 0.74462 0.62451 0.0
O78 O 0.53904 0.73421 0.59133 0.0
C79 C 0.56185 0.72093 0.5414 0.0
N80 N 0.55241 0.69599 0.55242 0.0
C81 C 0.55699 0.66843 0.51441 0.0
C82 C 0.56659 0.69387 0.50259 0.0
C83 C 0.56909 0.72021 0.51618 0.0
C84 C 0.54969 0.67059 0.53948 0.0
H85 H 0.56376 0.74122 0.55177 0.0
C86 C 0.55011 0.75223 0.60727 0.0
O87 O 0.60991 0.72491 0.65786 0.0
O88 O 0.62203 0.72372 0.61809 0.0
N89 N 0.53693 0.65004 0.57729 0.0
C90 C 0.53217 0.62682 0.59264 0.0
C91 C 0.53223 0.59833 0.58277 0.0
C92 C 0.53651 0.59404 0.55715 0.0
C93 C 0.54135 0.61829 0.54173 0.0
C94 C 0.54165 0.64616 0.55272 0.0
H95 H 0.52909 0.63001 0.61236 0.0
O96 O 0.60428 0.66733 0.62966 0.0
O97 O 0.57687 0.68659 0.59969 0.0
O98 O 0.55339 0.69132 0.64913 0.0
O99 O 0.52157 0.68431 0.61785 0.0
C100 C 0.54757 0.61572 0.51625 0.0
C101 C 0.55527 0.64082 0.50256 0.0
H102 H 0.57248 0.69334 0.48322 0.0
H103 H 0.57663 0.73989 0.50722 0.0
H104 H 0.52938 0.57978 0.595 0.0
H105 H 0.53694 0.57205 0.54961 0.0
H106 H 0.54738 0.59442 0.50724 0.0
H107 H 0.56071 0.63848 0.48317 0.0
Mn108 Mn 0.54682 0.27594 0.90022 0.0
Mn109 Mn 0.50086 0.27929 0.94716 0.0
C110 C 0.53722 0.32155 0.91976 0.0
C111 C 0.59275 0.26841 0.88452 0.0
C112 C 0.48265 0.27151 0.89208 0.0
O113 O 0.5439 0.23263 0.91259 0.0
O114 O 0.51795 0.23954 0.94652 0.0
C115 C 0.53975 0.27333 0.99121 0.0
N116 N 0.51874 0.28791 0.97883 0.0
C117 C 0.51389 0.32123 0.01329 0.0
C118 C 0.53489 0.30599 0.02673 0.0
C119 C 0.54811 0.28215 0.01552 0.0
C120 C 0.50649 0.31144 0.98912 0.0
H121 H 0.55017 0.25533 0.98247 0.0
C122 C 0.53303 0.22336 0.93285 0.0
O123 O 0.57022 0.26447 0.87087 0.0
O124 O 0.58874 0.27626 0.90751 0.0
N125 N 0.48303 0.31654 0.95052 0.0
C126 C 0.46561 0.33086 0.93395 0.0
C127 C 0.45261 0.35686 0.94132 0.0
C128 C 0.45728 0.36761 0.96575 0.0
C129 C 0.47509 0.35237 0.98254 0.0
C130 C 0.4876 0.32668 0.97409 0.0
H131 H 0.46172 0.32259 0.91523 0.0
O132 O 0.54733 0.32051 0.89754 0.0
O133 O 0.53296 0.29605 0.92989 0.0
O134 O 0.507 0.27424 0.88327 0.0
O135 O 0.47882 0.27102 0.91563 0.0
C136 C 0.48137 0.36197 0.00717 0.0
C137 C 0.50066 0.34633 0.02258 0.0
H138 H 0.54149 0.31282 0.04544 0.0
H139 H 0.56472 0.27064 0.02557 0.0
H140 H 0.43893 0.36853 0.92824 0.0
H141 H 0.44728 0.38772 0.97134 0.0
H142 H 0.47196 0.38173 0.01425 0.0
H143 H 0.50586 0.35436 0.04125 0.0
Mn144 Mn 0.16397 0.02434 0.25495 0.0
Mn145 Mn 0.21987 0.03144 0.29512 0.0
C146 C 0.18456 0.06999 0.26133 0.0
C147 C 0.14515 0.01186 0.21543 0.0
C148 C 0.16035 0.02603 0.31192 0.0
O149 O 0.17687 0.982 0.26027 0.0
O150 O 0.21625 0.99082 0.283 0.0
C151 C 0.26346 0.02069 0.25842 0.0
N152 N 0.25262 0.03779 0.27653 0.0
C153 C 0.29063 0.07217 0.27439 0.0
C154 C 0.3023 0.05486 0.25581 0.0
C155 C 0.28856 0.0291 0.2477 0.0
C156 C 0.26532 0.06295 0.28405 0.0
H157 H 0.253 0.00082 0.25221 0.0
C158 C 0.19973 0.97359 0.27079 0.0
O159 O 0.13049 0.01034 0.23533 0.0
O160 O 0.17073 0.02099 0.21844 0.0
N161 N 0.22698 0.06964 0.30889 0.0
C162 C 0.2135 0.08331 0.32762 0.0
C163 C 0.22517 0.10868 0.33869 0.0
C164 C 0.25075 0.11957 0.33066 0.0
C165 C 0.26456 0.10484 0.31175 0.0
C166 C 0.2521 0.07943 0.30164 0.0
H167 H 0.19412 0.07479 0.3343 0.0
O168 O 0.15949 0.06803 0.25155 0.0
O169 O 0.19716 0.04542 0.26622 0.0
O170 O 0.14865 0.02585 0.2901 0.0
O171 O 0.18679 0.02611 0.31579 0.0
C172 C 0.29026 0.11432 0.3026 0.0
C173 C 0.30311 0.09819 0.2837 0.0
H174 H 0.32176 0.06116 0.24763 0.0
H175 H 0.29738 0.01567 0.23331 0.0
H176 H 0.21447 0.11981 0.35341 0.0
H177 H 0.25958 0.13927 0.33912 0.0
H178 H 0.3002 0.1341 0.30983 0.0
H179 H 0.32271 0.10586 0.27662 0.0
Mn180 Mn 0.29339 0.90903 0.56329 0.0
Mn181 Mn 0.29654 0.96945 0.5258 0.0
C182 C 0.33662 0.92999 0.55476 0.0
C183 C 0.28802 0.88637 0.60281 0.0
C184 C 0.29144 0.90772 0.50536 0.0
O185 O 0.2523 0.92266 0.56122 0.0
O186 O 0.25824 0.96198 0.53659 0.0
C187 C 0.28409 0.01226 0.56545 0.0
N188 N 0.30048 0.0033 0.54667 0.0
C189 C 0.32889 0.04679 0.55047 0.0
C190 C 0.31226 0.05659 0.5698 0.0
C191 C 0.28987 0.03914 0.57744 0.0
C192 C 0.32244 0.01956 0.53959 0.0
H193 H 0.26671 0.99902 0.57116 0.0
C194 C 0.2428 0.9449 0.54908 0.0
O195 O 0.28313 0.87242 0.58196 0.0
O196 O 0.29514 0.9138 0.60078 0.0
N197 N 0.33147 0.98092 0.51263 0.0
C198 C 0.34527 0.96844 0.49351 0.0
C199 C 0.36804 0.98322 0.48344 0.0
C200 C 0.37585 0.01108 0.49255 0.0
C201 C 0.36079 0.02392 0.51167 0.0
C202 C 0.33841 0.00806 0.52109 0.0
H203 H 0.33893 0.94737 0.48597 0.0
O204 O 0.33463 0.90349 0.5634 0.0
O205 O 0.31332 0.94468 0.55275 0.0
O206 O 0.29069 0.89441 0.5265 0.0
O207 O 0.29321 0.93559 0.50314 0.0
C208 C 0.36728 0.05172 0.52192 0.0
C209 C 0.35153 0.063 0.5415 0.0
H210 H 0.31648 0.07744 0.57892 0.0
H211 H 0.27698 0.04652 0.59238 0.0
H212 H 0.37942 0.97325 0.46856 0.0
H213 H 0.39346 0.02238 0.48478 0.0
H214 H 0.3846 0.06441 0.51514 0.0
H215 H 0.35696 0.08421 0.54947 0.0
Mn216 Mn 0.41487 0.01065 0.73616 0.0
Mn217 Mn 0.35479 0.99703 0.76605 0.0
C218 C 0.39826 0.96276 0.73972 0.0
C219 C 0.44039 0.02295 0.70099 0.0
C220 C 0.41031 0.00703 0.79333 0.0
O221 O 0.39751 0.05184 0.73839 0.0
O222 O 0.35786 0.03881 0.75657 0.0
C223 C 0.31684 0.00794 0.72211 0.0
N224 N 0.32578 0.99019 0.74128 0.0
C225 C 0.29117 0.95365 0.73023 0.0
C226 C 0.28152 0.97158 0.71041 0.0
C227 C 0.2945 0.99878 0.70627 0.0
C228 C 0.31381 0.96373 0.74511 0.0
H229 H 0.32672 0.0289 0.71893 0.0
C230 C 0.3737 0.05807 0.74696 0.0
O231 O 0.45034 0.02684 0.72359 0.0
O232 O 0.41504 0.01295 0.69857 0.0
N233 N 0.34771 0.95771 0.77694 0.0
C234 C 0.35857 0.94374 0.79766 0.0
C235 C 0.34705 0.91687 0.80518 0.0
C236 C 0.32419 0.90483 0.7916 0.0
C237 C 0.31283 0.91997 0.7708 0.0
C238 C 0.32495 0.94688 0.76441 0.0
H239 H 0.37582 0.95308 0.80849 0.0
O240 O 0.42408 0.96781 0.73484 0.0
O241 O 0.38235 0.98571 0.74133 0.0
O242 O 0.42432 0.01072 0.77373 0.0
O243 O 0.38396 0.00275 0.79277 0.0
C244 C 0.28986 0.90949 0.75623 0.0
C245 C 0.27918 0.92622 0.73583 0.0
H246 H 0.26418 0.96467 0.69826 0.0
H247 H 0.28722 0.01271 0.69098 0.0
H248 H 0.35578 0.90547 0.8214 0.0
H249 H 0.31551 0.88399 0.79734 0.0
H250 H 0.28028 0.88859 0.76052 0.0
H251 H 0.26156 0.91791 0.72472 0.0
Mn252 Mn 0.28895 0.09667 0.04815 0.0
Mn253 Mn 0.3156 0.0461 0.00891 0.0
C254 C 0.2689 0.05092 0.04561 0.0
C255 C 0.29225 0.12378 0.08455 0.0
C256 C 0.27526 0.093 0.99145 0.0
O257 O 0.32549 0.11507 0.03913 0.0
O258 O 0.34074 0.08004 0.01385 0.0
C259 C 0.36141 0.02958 0.04477 0.0
N260 N 0.33858 0.02183 0.03035 0.0
C261 C 0.34099 0.97204 0.0454 0.0
C262 C 0.3645 0.97953 0.06041 0.0
C263 C 0.37475 0.00845 0.06008 0.0
C264 C 0.32826 0.9942 0.03088 0.0
H265 H 0.36937 0.05173 0.04467 0.0
C266 C 0.34331 0.10484 0.0247 0.0
O267 O 0.27972 0.13385 0.06446 0.0
O268 O 0.30143 0.09693 0.08411 0.0
N269 N 0.2952 0.01089 1.00137 0.0
C270 C 0.27887 0.00555 0.98045 0.0
C271 C 0.26859 0.97706 0.9759 0.0
C272 C 0.2764 0.95406 0.99218 0.0
C273 C 0.29594 0.95941 0.01177 0.0
C274 C 0.30553 0.98827 0.01523 0.0
H275 H 0.27335 0.02312 0.96761 0.0
O276 O 0.25602 0.07252 0.05589 0.0
O277 O 0.29426 0.05602 0.03873 0.0
O278 O 0.27314 0.10461 0.01304 0.0
O279 O 0.29065 0.07069 0.98711 0.0
C280 C 0.30778 0.93691 0.02678 0.0
C281 C 0.33015 0.94328 0.04376 0.0
H282 H 0.37504 0.96318 0.07201 0.0
H283 H 0.39294 0.01442 0.07153 0.0
H284 H 0.25476 0.97283 0.95986 0.0
H285 H 0.26851 0.93209 0.98859 0.0
H286 H 0.30052 0.91446 0.02477 0.0
H287 H 0.3395 0.9257 0.05481 0.0
Mn288 Mn 0.79538 0.41183 0.0645 0.0
Mn289 Mn 0.80691 0.47103 0.02732 0.0
C290 C 0.84125 0.42696 0.05742 0.0
C291 C 0.78509 0.39108 0.10375 0.0
C292 C 0.7944 0.41025 0.00679 0.0
O293 O 0.75627 0.43067 0.06095 0.0
O294 O 0.76788 0.4698 0.03803 0.0
C295 C 0.80021 0.5162 0.06639 0.0
N296 N 0.81539 0.50431 0.04793 0.0
C297 C 0.84946 0.54308 0.05147 0.0
C298 C 0.83415 0.55584 0.07048 0.0
C299 C 0.80952 0.54223 0.07808 0.0
C300 C 0.83941 0.51686 0.04086 0.0
H301 H 0.78111 0.50594 0.07204 0.0
C302 C 0.74996 0.4546 0.04959 0.0
O303 O 0.77991 0.37726 0.0829 0.0
O304 O 0.79584 0.41718 0.10187 0.0
N305 N 0.84325 0.47655 0.01451 0.0
C306 C 0.85567 0.46128 0.99606 0.0
C307 C 0.88059 0.4719 0.98635 0.0
C308 C 0.89203 0.49855 0.99513 0.0
C309 C 0.87846 0.51433 0.01359 0.0
C310 C 0.85384 0.50251 0.02273 0.0
H311 H 0.84663 0.44114 0.98879 0.0
O312 O 0.83583 0.40104 0.06607 0.0
O313 O 0.81982 0.4444 0.05455 0.0
O314 O 0.79242 0.39709 0.02786 0.0
O315 O 0.79901 0.43778 0.00467 0.0
C316 C 0.88857 0.54115 0.02349 0.0
C317 C 0.87424 0.55536 0.04261 0.0
H318 H 0.84113 0.57606 0.07937 0.0
H319 H 0.79762 0.55191 0.09275 0.0
H320 H 0.89084 0.45968 0.972 0.0
H321 H 0.91128 0.50664 0.98763 0.0
H322 H 0.90763 0.55076 0.01687 0.0
H323 H 0.88246 0.57571 0.05037 0.0
Mn324 Mn 0.92093 0.51556 0.24026 0.0
Mn325 Mn 0.86568 0.50784 0.27791 0.0
C326 C 0.90472 0.46876 0.25062 0.0
C327 C 0.93951 0.52268 0.20037 0.0
C328 C 0.92444 0.52119 0.29753 0.0
O329 O 0.90382 0.55701 0.24005 0.0
O330 O 0.86653 0.54731 0.26289 0.0
C331 C 0.82032 0.51187 0.23903 0.0
N332 N 0.83274 0.49753 0.2588 0.0
C333 C 0.79442 0.46355 0.26098 0.0
C334 C 0.78117 0.47793 0.24062 0.0
C335 C 0.79429 0.50204 0.22947 0.0
C336 C 0.82063 0.47389 0.26926 0.0
H337 H 0.83012 0.53077 0.23078 0.0
C338 C 0.88096 0.56466 0.2497 0.0
O339 O 0.95333 0.52996 0.22073 0.0
O340 O 0.91472 0.51192 0.2031 0.0
N341 N 0.86109 0.47093 0.29444 0.0
C342 C 0.8771 0.4589 0.31336 0.0
C343 C 0.86729 0.43416 0.32614 0.0
C344 C 0.84078 0.42262 0.31991 0.0
C345 C 0.82438 0.43579 0.3008 0.0
C346 C 0.83545 0.46009 0.28844 0.0
H347 H 0.89718 0.46816 0.31871 0.0
O348 O 0.92961 0.47248 0.24241 0.0
O349 O 0.88946 0.49222 0.25171 0.0
O350 O 0.93639 0.52091 0.27654 0.0
O351 O 0.89824 0.51776 0.29962 0.0
C352 C 0.79755 0.42567 0.29342 0.0
C353 C 0.78267 0.43939 0.27339 0.0
H354 H 0.76095 0.47063 0.23338 0.0
H355 H 0.78419 0.51325 0.21376 0.0
H356 H 0.88001 0.42423 0.34096 0.0
H357 H 0.83324 0.40361 0.32987 0.0
H358 H 0.78842 0.40694 0.30266 0.0
H359 H 0.76232 0.43101 0.26753 0.0
Mn360 Mn 0.78065 0.59789 0.53384 0.0
Mn361 Mn 0.77512 0.55388 0.48317 0.0
C362 C 0.74301 0.56698 0.5294 0.0
C363 C 0.80084 0.60821 0.57251 0.0
C364 C 0.7649 0.6196 0.48208 0.0
O365 O 0.81896 0.59867 0.51961 0.0
O366 O 0.81494 0.56232 0.4913 0.0
C367 C 0.80225 0.49974 0.5026 0.0
N368 N 0.77989 0.51333 0.49137 0.0
C369 C 0.75724 0.46706 0.48268 0.0
C370 C 0.7801 0.45252 0.49402 0.0
C371 C 0.80259 0.46895 0.50422 0.0
C372 C 0.7579 0.49778 0.482 0.0
H373 H 0.81974 0.5123 0.51013 0.0
C374 C 0.82945 0.58051 0.5046 0.0
O375 O 0.79237 0.62886 0.55739 0.0
O376 O 0.79642 0.58111 0.56579 0.0
N377 N 0.73772 0.54319 0.47335 0.0
C378 C 0.71634 0.56063 0.46507 0.0
C379 C 0.6916 0.54771 0.45545 0.0
C380 C 0.68927 0.51699 0.45409 0.0
C381 C 0.71159 0.49947 0.46268 0.0
C382 C 0.73558 0.5136 0.47232 0.0
H383 H 0.71806 0.58417 0.46605 0.0
O384 O 0.74204 0.58942 0.54435 0.0
O385 O 0.76611 0.56287 0.51802 0.0
O386 O 0.76623 0.62386 0.50552 0.0
O387 O 0.76939 0.59488 0.47182 0.0
C388 C 0.71083 0.46853 0.46237 0.0
C389 C 0.73367 0.45233 0.47234 0.0
H390 H 0.7805 0.42878 0.49518 0.0
H391 H 0.82026 0.4579 0.51309 0.0
H392 H 0.6744 0.5614 0.44905 0.0
H393 H 0.67015 0.50709 0.44669 0.0
H394 H 0.69257 0.45698 0.45498 0.0
H395 H 0.7326 0.42857 0.47247 0.0
Mn396 Mn 0.65826 0.51478 0.75564 0.0
Mn397 Mn 0.71556 0.53867 0.78904 0.0
C398 C 0.67152 0.56353 0.75367 0.0
C399 C 0.63521 0.49322 0.72105 0.0
C400 C 0.6595 0.52995 0.81166 0.0
O401 O 0.67818 0.47657 0.7649 0.0
O402 O 0.71527 0.49541 0.7863 0.0
C403 C 0.75688 0.52133 0.75202 0.0
N404 N 0.74587 0.54213 0.767 0.0
C405 C 0.78106 0.5772 0.75617 0.0
C406 C 0.79285 0.55615 0.74066 0.0
C407 C 0.78058 0.52817 0.73844 0.0
C408 C 0.75706 0.56934 0.76874 0.0
H409 H 0.74769 0.49969 0.75052 0.0
C410 C 0.70116 0.47378 0.77738 0.0
O411 O 0.62482 0.49308 0.74307 0.0
O412 O 0.65966 0.50528 0.71903 0.0
N413 N 0.72003 0.58004 0.79412 0.0
C414 C 0.70646 0.59763 0.81029 0.0
C415 C 0.71643 0.62619 0.81507 0.0
C416 C 0.74068 0.63613 0.80375 0.0
C417 C 0.75476 0.6174 0.78774 0.0
C418 C 0.74376 0.58921 0.7836 0.0
H419 H 0.68823 0.5899 0.8196 0.0
O420 O 0.64625 0.55561 0.7474 0.0
O421 O 0.68893 0.5427 0.76002 0.0
O422 O 0.64705 0.52086 0.79169 0.0
O423 O 0.68534 0.53665 0.81306 0.0
C424 C 0.77934 0.62554 0.77582 0.0
C425 C 0.79228 0.60559 0.75979 0.0
H426 H 0.81133 0.56123 0.7304 0.0
H427 H 0.78953 0.51181 0.72649 0.0
H428 H 0.70557 0.64042 0.82762 0.0
H429 H 0.74831 0.65816 0.80749 0.0
H430 H 0.78824 0.64725 0.77857 0.0
H431 H 0.81092 0.61227 0.75041 0.0
Mn432 Mn 0.00788 0.82086 0.87879 0.0
Mn433 Mn 0.97092 0.79588 0.92719 0.0
C434 C 0.9963 0.85185 0.91114 0.0
C435 C 0.05024 0.82695 0.85963 0.0
C436 C 0.94669 0.80435 0.87476 0.0
O437 O 0.01191 0.77637 0.87656 0.0
O438 O 0.99178 0.76341 0.91271 0.0
C439 C 0.01695 0.78033 0.96301 0.0
N440 N 0.99329 0.79575 0.95746 0.0
C441 C 0.99278 0.81554 0.99917 0.0
C442 C 0.01715 0.79985 0.00536 0.0
C443 C 0.02936 0.78229 0.98717 0.0
C444 C 0.98155 0.81296 0.97473 0.0
H445 H 0.02622 0.76663 0.94909 0.0
C446 C 0.00496 0.75752 0.89292 0.0
O447 O 0.02686 0.82578 0.84673 0.0
O448 O 0.04905 0.8254 0.88386 0.0
N449 N 0.94976 0.82584 0.94273 0.0
C450 C 0.92717 0.84073 0.93329 0.0
C451 C 0.91277 0.85973 0.94894 0.0
C452 C 0.92155 0.86292 0.97416 0.0
C453 C 0.94478 0.84724 0.98348 0.0
C454 C 0.95832 0.82868 0.96699 0.0
H455 H 0.9201 0.83802 0.91401 0.0
O456 O 1.00279 0.86291 0.88965 0.0
O457 O 0.9966 0.82362 0.91253 0.0
O458 O 0.9677 0.8173 0.86582 0.0
O459 O 0.94595 0.79511 0.89726 0.0
C460 C 0.95538 0.84971 0.00833 0.0
C461 C 0.97942 0.83396 0.01615 0.0
H462 H 0.02676 0.80127 0.02398 0.0
H463 H 0.0482 0.77018 0.99179 0.0
H464 H 0.89487 0.87177 0.94162 0.0
H465 H 0.91046 0.87768 0.98614 0.0
H466 H 0.94548 0.86406 0.02147 0.0
H467 H 0.98764 0.83643 0.03517 0.0
Mn468 Mn 0.0352 0.26108 0.66611 0.0
Mn469 Mn 0.98891 0.25272 0.61723 0.0
C470 C 0.02609 0.21422 0.64864 0.0
C471 C 0.08173 0.26778 0.68286 0.0
C472 C 0.97108 0.26487 0.67095 0.0
O473 O 0.03241 0.30326 0.65076 0.0
O474 O 0.00465 0.2932 0.61676 0.0
C475 C 0.02669 0.25794 0.57475 0.0
N476 N 0.00709 0.24256 0.58719 0.0
C477 C 0.00611 0.20449 0.55595 0.0
C478 C 0.02594 0.22018 0.54262 0.0
C479 C 0.0364 0.24692 0.55215 0.0
C480 C 0.99719 0.21659 0.57837 0.0
H481 H 0.03494 0.27838 0.58209 0.0
C482 C 0.02037 0.31074 0.62972 0.0
O483 O 0.06 0.27351 0.69572 0.0
O484 O 0.07654 0.25964 0.6599 0.0
N485 N 0.97266 0.21426 0.61511 0.0
C486 C 0.9554 0.20069 0.63126 0.0
C487 C 0.94434 0.1729 0.6252 0.0
C488 C 0.95093 0.15944 0.60254 0.0
C489 C 0.9686 0.17388 0.58615 0.0
C490 C 0.97895 0.20159 0.59316 0.0
H491 H 0.9502 0.21089 0.64868 0.0
O492 O 0.03575 0.21693 0.67152 0.0
O493 O 0.02138 0.2388 0.63701 0.0
O494 O 0.99555 0.26426 0.68138 0.0
O495 O 0.96725 0.26226 0.64721 0.0
C496 C 0.97672 0.16164 0.56335 0.0
C497 C 0.99542 0.17696 0.54823 0.0
H498 H 0.03361 0.21167 0.52525 0.0
H499 H 0.05194 0.25899 0.54211 0.0
H500 H 0.93077 0.16186 0.63798 0.0
H501 H 0.9425 0.13792 0.59801 0.0
H502 H 0.96908 0.14023 0.55745 0.0
H503 H 1.00194 0.16706 0.53099 0.0
Mn504 Mn 0.51739 0.3198 0.40248 0.0
Mn505 Mn 0.48121 0.35805 0.35891 0.0
C506 C 0.47877 0.29817 0.38404 0.0
C507 C 0.55351 0.28963 0.41545 0.0
C508 C 0.48024 0.37048 0.41452 0.0
O509 O 0.54316 0.35284 0.39299 0.0
O510 O 0.52144 0.37021 0.358 0.0
C511 C 0.50457 0.33678 0.3117 0.0
N512 N 0.48225 0.34098 0.32629 0.0
C513 C 0.45078 0.32174 0.29422 0.0
C514 C 0.47339 0.3177 0.2787 0.0
C515 C 0.50041 0.32512 0.28754 0.0
C516 C 0.45616 0.33384 0.318 0.0
H517 H 0.52538 0.34216 0.3185 0.0
C518 C 0.54293 0.36809 0.37297 0.0
O519 O 0.54281 0.30862 0.43034 0.0
O520 O 0.5445 0.28969 0.39218 0.0
N521 N 0.44263 0.34707 0.3578 0.0
C522 C 0.42403 0.3477 0.37647 0.0
C523 C 0.39697 0.33681 0.37194 0.0
C524 C 0.38896 0.32642 0.34802 0.0
C525 C 0.40815 0.32677 0.32889 0.0
C526 C 0.43519 0.33683 0.33477 0.0
H527 H 0.42994 0.35554 0.39493 0.0
O528 O 0.48872 0.28863 0.40543 0.0
O529 O 0.49219 0.31983 0.37379 0.0
O530 O 0.49325 0.3475 0.42113 0.0
O531 O 0.47729 0.37852 0.39167 0.0
C532 C 0.40199 0.31569 0.30471 0.0
C533 C 0.42329 0.31332 0.28733 0.0
H534 H 0.47031 0.30841 0.26015 0.0
H535 H 0.51801 0.32174 0.27579 0.0
H536 H 0.38229 0.33636 0.38685 0.0
H537 H 0.3683 0.31734 0.34479 0.0
H538 H 0.38119 0.30798 0.2996 0.0
H539 H 0.41849 0.304 0.26903 0.0
Mn540 Mn 0.53847 0.76135 0.16512 0.0
Mn541 Mn 0.48572 0.75226 0.12194 0.0
C542 C 0.52853 0.71464 0.14812 0.0
C543 C 0.58596 0.76985 0.17771 0.0
C544 C 0.47582 0.76272 0.17747 0.0
O545 O 0.53226 0.80349 0.15106 0.0
O546 O 0.4992 0.79373 0.12101 0.0
C547 C 0.51626 0.76151 0.07535 0.0
N548 N 0.49996 0.74423 0.0897 0.0
C549 C 0.49779 0.70654 0.05814 0.0
C550 C 0.5144 0.72402 0.04298 0.0
C551 C 0.52374 0.75158 0.05165 0.0
C552 C 0.49095 0.71762 0.08157 0.0
H553 H 0.52353 0.78268 0.08195 0.0
C554 C 0.5163 0.81139 0.13236 0.0
O555 O 0.56561 0.77454 0.19246 0.0
O556 O 0.57878 0.76166 0.1551 0.0
N557 N 0.47135 0.71297 0.12059 0.0
C558 C 0.45712 0.69797 0.13819 0.0
C559 C 0.44727 0.6695 0.13284 0.0
C560 C 0.452 0.65682 0.10943 0.0
C561 C 0.46655 0.67274 0.09157 0.0
C562 C 0.47575 0.70108 0.09791 0.0
H563 H 0.45342 0.70757 0.15623 0.0
O564 O 0.54108 0.71736 0.16992 0.0
O565 O 0.52143 0.7392 0.13731 0.0
O566 O 0.50161 0.76304 0.18439 0.0
O567 O 0.46792 0.75972 0.1545 0.0
C568 C 0.4727 0.66138 0.06789 0.0
C569 C 0.48828 0.67829 0.05118 0.0
H570 H 0.52036 0.71637 0.02475 0.0
H571 H 0.5367 0.76512 0.04011 0.0
H572 H 0.43611 0.65733 0.14675 0.0
H573 H 0.44455 0.63478 0.10545 0.0
H574 H 0.46593 0.6395 0.06249 0.0
H575 H 0.49328 0.66913 0.03319 0.0
Mn576 Mn 0.91451 0.00101 0.81205 0.0
Mn577 Mn 0.86792 0.99275 0.85744 0.0
C578 C 0.8935 0.95596 0.81829 0.0
C579 C 0.92558 0.00894 0.7702 0.0
C580 C 0.92996 0.00093 0.86808 0.0
O581 O 0.90129 0.04299 0.81795 0.0
O582 O 0.8686 0.03472 0.84693 0.0
C583 C 0.81433 0.00636 0.83092 0.0
N584 N 0.83086 0.98707 0.84403 0.0
C585 C 0.79447 0.95052 0.84335 0.0
C586 C 0.77709 0.96997 0.8298 0.0
C587 C 0.78706 0.998 0.82357 0.0
C588 C 0.82134 0.96018 0.85043 0.0
H589 H 0.82192 0.02791 0.82607 0.0
C590 C 0.88204 0.05161 0.83227 0.0
O591 O 0.94394 0.01286 0.78834 0.0
O592 O 0.90048 0.00243 0.7765 0.0
N593 N 0.86571 0.95265 0.86813 0.0
C594 C 0.88575 0.93584 0.87972 0.0
C595 C 0.87952 0.90676 0.88635 0.0
C596 C 0.85277 0.89526 0.88098 0.0
C597 C 0.83253 0.91296 0.86897 0.0
C598 C 0.83989 0.94185 0.86298 0.0
H599 H 0.90636 0.94455 0.8838 0.0
O600 O 0.91803 0.95751 0.80889 0.0
O601 O 0.88314 0.98075 0.82547 0.0
O602 O 0.93737 0.00104 0.84541 0.0
O603 O 0.9047 0.99824 0.87422 0.0
C604 C 0.80551 0.90288 0.86225 0.0
C605 C 0.78645 0.92167 0.84954 0.0
H606 H 0.75614 0.96352 0.82388 0.0
H607 H 0.77378 0.01311 0.81306 0.0
H608 H 0.89532 0.89319 0.89548 0.0
H609 H 0.84809 0.87276 0.88599 0.0
H610 H 0.79935 0.88058 0.86642 0.0
H611 H 0.76586 0.91353 0.84423 0.0
Mn612 Mn 0.7797 0.14468 0.50513 0.0
Mn613 Mn 0.77248 0.08926 0.46398 0.0
C614 C 0.73702 0.12093 0.50028 0.0
C615 C 0.78877 0.16346 0.54506 0.0
C616 C 0.77614 0.15364 0.44835 0.0
O617 O 0.82012 0.13215 0.49987 0.0
O618 O 0.81277 0.0925 0.47507 0.0
C619 C 0.78718 0.03887 0.49691 0.0
N620 N 0.76866 0.05249 0.4809 0.0
C621 C 0.7351 0.01367 0.48558 0.0
C622 C 0.75413 0.99887 0.50157 0.0
C623 C 0.78025 0.01159 0.50731 0.0
C624 C 0.74345 0.04045 0.47521 0.0
H625 H 0.80693 0.0489 0.502 0.0
C626 C 0.82888 0.1095 0.48833 0.0
O627 O 0.7911 0.17958 0.52519 0.0
O628 O 0.7833 0.13578 0.54163 0.0
N629 N 0.73436 0.08365 0.45306 0.0
C630 C 0.71689 0.10286 0.44087 0.0
C631 C 0.68887 0.09495 0.43618 0.0
C632 C 0.6792 0.06731 0.44367 0.0
C633 C 0.69747 0.04802 0.45636 0.0
C634 C 0.72516 0.05708 0.46065 0.0
H635 H 0.72407 0.12433 0.43536 0.0
O636 O 0.73852 0.14771 0.50844 0.0
O637 O 0.76063 0.10918 0.49442 0.0
O638 O 0.77664 0.16388 0.47047 0.0
O639 O 0.77568 0.1261 0.44369 0.0
C640 C 0.68886 0.02089 0.46619 0.0
C641 C 0.70771 0.00359 0.48058 0.0
H642 H 0.74863 0.97811 0.51004 0.0
H643 H 0.79487 0.00058 0.52001 0.0
H644 H 0.6746 0.1103 0.42716 0.0
H645 H 0.6575 0.06147 0.44023 0.0
H646 H 0.6675 0.01363 0.46361 0.0
H647 H 0.70061 0.98309 0.48851 0.0
Mn648 Mn 0.66402 0.02831 0.30894 0.0
Mn649 Mn 0.71526 0.0408 0.35191 0.0
C650 C 0.6826 0.07492 0.31318 0.0
C651 C 0.65005 0.01646 0.2682 0.0
C652 C 0.65486 0.02809 0.3647 0.0
O653 O 0.67942 0.98744 0.31671 0.0
O654 O 0.71797 0.9992 0.34048 0.0
C655 C 0.76661 0.03422 0.3234 0.0
N656 N 0.74966 0.05125 0.33718 0.0
C657 C 0.78073 0.09262 0.3341 0.0
C658 C 0.79848 0.07551 0.31986 0.0
C659 C 0.7914 0.04617 0.31454 0.0
C660 C 0.75656 0.07934 0.34286 0.0
H661 H 0.76123 0.01172 0.31917 0.0
C662 C 0.70251 0.98084 0.32803 0.0
O663 O 0.63326 0.01319 0.28655 0.0
O664 O 0.67529 0.02497 0.27371 0.0
N665 N 0.71426 0.08091 0.36276 0.0
C666 C 0.69323 0.09549 0.37378 0.0
C667 C 0.69606 0.12568 0.37867 0.0
C668 C 0.72045 0.14056 0.37228 0.0
C669 C 0.74161 0.12524 0.36059 0.0
C670 C 0.73766 0.09516 0.35616 0.0
H671 H 0.67426 0.08429 0.37845 0.0
O672 O 0.6576 0.07127 0.30365 0.0
O673 O 0.69525 0.05117 0.32073 0.0
O674 O 0.6446 0.02945 0.34243 0.0
O675 O 0.68096 0.03052 0.36993 0.0
C676 C 0.76589 0.13895 0.35216 0.0
C677 C 0.78557 0.1226 0.33912 0.0
H678 H 0.8174 0.08477 0.31266 0.0
H679 H 0.80494 0.03284 0.3035 0.0
H680 H 0.67937 0.13752 0.38718 0.0
H681 H 0.72241 0.16388 0.37588 0.0
H682 H 0.76929 0.16222 0.35503 0.0
H683 H 0.80395 0.13352 0.33241 0.0
Mn684 Mn 0.79271 0.92254 0.00679 0.0
Mn685 Mn 0.77554 0.97845 0.96786 0.0
C686 C 0.8258 0.95524 0.99378 0.0
C687 C 0.79891 0.90433 0.04721 0.0
C688 C 0.77845 0.91522 0.9512 0.0
O689 O 0.75086 0.92546 0.01001 0.0
O690 O 0.74203 0.96497 0.98513 0.0
C691 C 0.76214 0.02274 0.00599 0.0
N692 N 0.7777 0.01425 0.98647 0.0
C693 C 0.80553 0.05824 0.98955 0.0
C694 C 0.78968 0.06754 0.00957 0.0
C695 C 0.76788 0.04971 0.01781 0.0
C696 C 0.79864 0.03129 0.9783 0.0
H697 H 0.74563 0.0089 0.01262 0.0
C698 C 0.73451 0.94459 1.00009 0.0
O699 O 0.79504 0.88679 0.02823 0.0
O700 O 0.79867 0.93231 0.04272 0.0
N701 N 0.80707 0.99314 0.95068 0.0
C702 C 0.82167 0.98001 0.9324 0.0
C703 C 0.84464 0.99467 0.92257 0.0
C704 C 0.85239 0.02257 0.93159 0.0
C705 C 0.83704 0.03564 0.9504 0.0
C706 C 0.8141 0.0202 0.95925 0.0
H707 H 0.81598 0.95843 0.92555 0.0
O708 O 0.83325 0.92925 1.00144 0.0
O709 O 0.7994 0.96041 0.9934 0.0
O710 O 0.7871 0.90461 0.97215 0.0
O711 O 0.77333 0.94243 0.94746 0.0
C712 C 0.84409 0.063 0.96117 0.0
C713 C 0.82836 0.07428 0.98075 0.0
H714 H 0.79425 0.08818 0.01893 0.0
H715 H 0.75569 0.05664 0.03338 0.0
H716 H 0.85658 0.98441 0.90829 0.0
H717 H 0.87035 0.03359 0.92417 0.0
H718 H 0.86181 0.07536 0.95479 0.0
H719 H 0.83424 0.09514 0.98915 0.0
Mn720 Mn 0.28111 0.64739 0.00832 0.0
Mn721 Mn 0.27489 0.59062 0.9683 0.0
C722 C 0.23739 0.62944 0.99705 0.0
C723 C 0.2847 0.6665 0.04884 0.0
C724 C 0.28758 0.65288 0.95131 0.0
O725 O 0.32011 0.62951 0.01006 0.0
O726 O 0.31393 0.59162 0.9832 0.0
C727 C 0.28168 0.54188 0.00476 0.0
N728 N 0.266 0.55595 0.98671 0.0
C729 C 0.22837 0.52139 0.99087 0.0
C730 C 0.24421 0.50644 0.00935 0.0
C731 C 0.27099 0.51673 0.01631 0.0
C732 C 0.24028 0.54609 0.97973 0.0
H733 H 0.30216 0.54985 0.01041 0.0
C734 C 0.32901 0.60673 0.99888 0.0
O735 O 0.29249 0.68161 0.02964 0.0
O736 O 0.27655 0.63973 0.04466 0.0
N737 N 0.23805 0.58696 0.9535 0.0
C738 C 0.22425 0.60564 0.93747 0.0
C739 C 0.19647 0.59952 0.93002 0.0
C740 C 0.18336 0.57402 0.93861 0.0
C741 C 0.19791 0.55518 0.95512 0.0
C742 C 0.22548 0.56249 0.96213 0.0
H743 H 0.2341 0.62547 0.93099 0.0
O744 O 0.24058 0.65624 0.00477 0.0
O745 O 0.26017 0.6141 0.99563 0.0
O746 O 0.2872 0.66424 0.97313 0.0
O747 O 0.28351 0.62549 0.94725 0.0
C748 C 0.1857 0.53013 0.96575 0.0
C749 C 0.20094 0.5132 0.98356 0.0
H750 H 0.23591 0.48724 0.01853 0.0
H751 H 0.28328 0.50542 0.03068 0.0
H752 H 0.18491 0.61471 0.91814 0.0
H753 H 0.16187 0.56953 0.93291 0.0
H754 H 0.16439 0.52406 0.96077 0.0
H755 H 0.19116 0.49427 0.99192 0.0
Mn756 Mn 0.15851 0.52711 0.80232 0.0
Mn757 Mn 0.21089 0.53107 0.84572 0.0
C758 C 0.18381 0.57019 0.80699 0.0
C759 C 0.14094 0.51902 0.76166 0.0
C760 C 0.14971 0.5289 0.85872 0.0
O761 O 0.16884 0.48407 0.80844 0.0
O762 O 0.20608 0.48915 0.8354 0.0
C763 C 0.25959 0.51316 0.81702 0.0
N764 N 0.24635 0.53374 0.83068 0.0
C765 C 0.28443 0.5678 0.82684 0.0
C766 C 0.2985 0.54691 0.81283 0.0
C767 C 0.28604 0.51947 0.80793 0.0
C768 C 0.25838 0.56003 0.83591 0.0
H769 H 0.25003 0.49211 0.81302 0.0
C770 C 0.18958 0.47353 0.8213 0.0
O771 O 0.12509 0.51731 0.78079 0.0
O772 O 0.16731 0.52361 0.7663 0.0
N773 N 0.2173 0.57101 0.85571 0.0
C774 C 0.19929 0.59012 0.8661 0.0
C775 C 0.20751 0.61944 0.87007 0.0
C776 C 0.23421 0.62873 0.86363 0.0
C777 C 0.25221 0.60882 0.85259 0.0
C778 C 0.24285 0.57992 0.84889 0.0
H779 H 0.17858 0.5832 0.87079 0.0
O780 O 0.15821 0.57078 0.7983 0.0
O781 O 0.19302 0.54454 0.81409 0.0
O782 O 0.14008 0.52997 0.83625 0.0
O783 O 0.17577 0.5285 0.86431 0.0
C784 C 0.2785 0.61696 0.84395 0.0
C785 C 0.29473 0.5964 0.83129 0.0
H786 H 0.3187 0.55188 0.80541 0.0
H787 H 0.2967 0.5033 0.79701 0.0
H788 H 0.19319 0.63497 0.87782 0.0
H789 H 0.24039 0.65141 0.8666 0.0
H790 H 0.28606 0.63922 0.84631 0.0
H791 H 0.31471 0.6031 0.82435 0.0
Mn792 Mn 0.29481 0.44698 0.54942 0.0
Mn793 Mn 0.31879 0.49561 0.50788 0.0
C794 C 0.34097 0.45792 0.54912 0.0
C795 C 0.28027 0.43219 0.58797 0.0
C796 C 0.30143 0.43436 0.49406 0.0
O797 O 0.26061 0.46972 0.53985 0.0
O798 O 0.27752 0.50025 0.51035 0.0
C799 C 0.30835 0.55044 0.53572 0.0
N800 N 0.32644 0.53194 0.52473 0.0
C801 C 0.36535 0.56352 0.53558 0.0
C802 C 0.3471 0.58297 0.54692 0.0
C803 C 0.3185 0.57637 0.54703 0.0
C804 C 0.35403 0.53807 0.52454 0.0
H805 H 0.28637 0.54543 0.53592 0.0
C806 C 0.25773 0.48986 0.52336 0.0
O807 O 0.27416 0.41715 0.56789 0.0
O808 O 0.29233 0.45753 0.58532 0.0
N809 N 0.35826 0.49315 0.50443 0.0
C810 C 0.37322 0.47146 0.4937 0.0
C811 C 0.40226 0.47433 0.49261 0.0
C812 C 0.41564 0.4994 0.50259 0.0
C813 C 0.39979 0.52147 0.51345 0.0
C814 C 0.37088 0.51751 0.51382 0.0
H815 H 0.36308 0.4521 0.48606 0.0
O816 O 0.33293 0.43224 0.55668 0.0
O817 O 0.32173 0.47544 0.54027 0.0
O818 O 0.29337 0.4274 0.51557 0.0
O819 O 0.31237 0.45901 0.48878 0.0
C820 C 0.41157 0.54714 0.52406 0.0
C821 C 0.39438 0.56813 0.53517 0.0
H822 H 0.35486 0.6029 0.55579 0.0
H823 H 0.30431 0.59121 0.55585 0.0
H824 H 0.41425 0.45724 0.48407 0.0
H825 H 0.43805 0.50148 0.50186 0.0
H826 H 0.43385 0.55087 0.52386 0.0
H827 H 0.40373 0.58761 0.54356 0.0
Mn828 Mn 0.42682 0.50574 0.31408 0.0
Mn829 Mn 0.37921 0.50706 0.35884 0.0
C830 C 0.40856 0.46173 0.32847 0.0
C831 C 0.43662 0.50698 0.27164 0.0
C832 C 0.44112 0.51811 0.36876 0.0
O833 O 0.4137 0.54858 0.31422 0.0
O834 O 0.37667 0.54341 0.33867 0.0
C835 C 0.32896 0.50316 0.32522 0.0
N836 N 0.34409 0.49323 0.34553 0.0
C837 C 0.3104 0.45523 0.35294 0.0
C838 C 0.29407 0.46558 0.33253 0.0
C839 C 0.30351 0.48951 0.31848 0.0
C840 C 0.33563 0.46965 0.35867 0.0
H841 H 0.33648 0.52104 0.31405 0.0
C842 C 0.39132 0.55815 0.32354 0.0
O843 O 0.45543 0.51399 0.28871 0.0
O844 O 0.41195 0.50066 0.27919 0.0
N845 N 0.37859 0.47319 0.38012 0.0
C846 C 0.39718 0.46533 0.39884 0.0
C847 C 0.39098 0.44163 0.41458 0.0
C848 C 0.36561 0.4265 0.41118 0.0
C849 C 0.34639 0.43553 0.39236 0.0
C850 C 0.35355 0.45957 0.37746 0.0
H851 H 0.41659 0.477 0.40185 0.0
O852 O 0.43171 0.46218 0.31673 0.0
O853 O 0.397 0.48712 0.3313 0.0
O854 O 0.44896 0.51153 0.34692 0.0
O855 O 0.41547 0.52028 0.37433 0.0
C856 C 0.32075 0.42116 0.38734 0.0
C857 C 0.30288 0.43084 0.36752 0.0
H858 H 0.27447 0.45505 0.32724 0.0
H859 H 0.29128 0.4973 0.30242 0.0
H860 H 0.40573 0.43503 0.4293 0.0
H861 H 0.36122 0.4079 0.42303 0.0
H862 H 0.31483 0.40221 0.39818 0.0
H863 H 0.2835 0.41922 0.36353 0.0
C864 C 0.01532 0.01707 0.99786 0.0
N865 N 0.98421 0.02281 0.0683 0.0
C866 C 0.97885 0.05076 0.06053 0.0
C867 C 0.95216 0.06213 0.06162 0.0
C868 C 0.93089 0.04374 0.06958 0.0
C869 C 0.93798 0.01748 0.0821 0.0
C870 C 0.96513 0.00695 0.08078 0.0
Zn871 Zn 0.01748 0.00386 0.05294 0.0
C872 C 0.00884 0.94707 0.03166 0.0
N873 N 0.0892 0.9745 0.01836 0.0
C874 C 0.09925 0.99169 0.99999 0.0
C875 C 0.10306 0.95016 0.02663 0.0
C876 C 0.12974 0.94431 0.01822 0.0
C877 C 0.14202 0.964 1.00146 0.0
C878 C 0.12539 0.9866 0.99098 0.0
Zn879 Zn 0.05541 0.9907 0.03482 0.0
O880 O 1.00384 0.02248 0.0183 0.0
C881 C 0.06523 0.04658 0.05671 0.0
O882 O 0.0384 0.00361 0.99862 0.0
H883 H 0.09436 0.93655 0.04103 0.0
H884 H 0.99426 0.06291 0.05052 0.0
H885 H 0.08815 0.01113 0.99383 0.0
O886 O 0.04085 0.04012 0.06316 0.0
O887 O 0.07708 0.0309 0.04075 0.0
H888 H 0.96991 0.98479 0.08679 0.0
O889 O 0.07126 0.97793 0.07095 0.0
O890 O 0.03077 0.98536 0.08766 0.0
O891 O 0.03485 0.95108 0.02962 0.0
O892 O 0.99437 0.96649 0.04213 0.0
C893 C 0.05632 0.97826 0.09016 0.0
H894 H 0.94734 0.08246 0.05184 0.0
H895 H 0.9219 0.00276 0.08847 0.0
H896 H 0.1414 0.92616 0.02636 0.0
H897 H 0.13341 0.00277 0.97822 0.0
C898 C 0.33845 0.76756 0.2622 0.0
N899 N 0.25918 0.73993 0.23789 0.0
C900 C 0.26745 0.75642 0.21823 0.0
C901 C 0.26669 0.74498 0.19407 0.0
C902 C 0.25645 0.71641 0.18958 0.0
C903 C 0.24534 0.70102 0.20995 0.0
C904 C 0.24732 0.71305 0.23412 0.0
Zn905 Zn 0.2752 0.75351 0.27222 0.0
C906 C 0.30493 0.70437 0.29901 0.0
N907 N 0.31826 0.7828 0.33901 0.0
C908 C 0.32831 0.81064 0.34183 0.0
C909 C 0.31224 0.76614 0.35935 0.0
C910 C 0.31427 0.77802 0.38344 0.0
C911 C 0.32222 0.80747 0.3867 0.0
C912 C 0.33036 0.8235 0.36563 0.0
Zn913 Zn 0.3019 0.76858 0.30486 0.0
O914 O 0.31441 0.75953 0.25395 0.0
C915 C 0.27341 0.81788 0.27783 0.0
O916 O 0.34135 0.77412 0.28539 0.0
H917 H 0.30359 0.74436 0.35681 0.0
H918 H 0.27718 0.77757 0.2215 0.0
H919 H 0.33279 0.82369 0.32552 0.0
O920 O 0.26324 0.79748 0.26412 0.0
O921 O 0.29039 0.81165 0.29577 0.0
H922 H 0.24108 0.70011 0.24999 0.0
O923 O 0.26166 0.76317 0.32344 0.0
O924 O 0.23625 0.7481 0.29104 0.0
O925 O 0.31393 0.72523 0.31282 0.0
O926 O 0.28745 0.70958 0.28111 0.0
C927 C 0.23786 0.75541 0.31411 0.0
H928 H 0.27605 0.75791 0.17959 0.0
H929 H 0.23635 0.67934 0.2076 0.0
H930 H 0.30756 0.76495 0.39909 0.0
H931 H 0.33694 0.8462 0.36738 0.0
C932 C 0.51629 0.04646 0.57158 0.0
N933 N 0.55234 0.97265 0.53843 0.0
C934 C 0.55766 0.96575 0.56289 0.0
C935 C 0.55545 0.93675 0.57095 0.0
C936 C 0.54888 0.91441 0.55348 0.0
C937 C 0.54659 0.92198 0.52801 0.0
C938 C 0.54767 0.95131 0.52096 0.0
Zn939 Zn 0.54119 0.01431 0.52879 0.0
C940 C 0.47711 0.01252 0.51856 0.0
N941 N 0.50958 0.09602 0.50584 0.0
C942 C 0.52467 0.11761 0.51745 0.0
C943 C 0.49731 0.10016 0.48283 0.0
C944 C 0.50376 0.12511 0.46902 0.0
C945 C 0.52384 0.14518 0.47871 0.0
C946 C 0.53284 0.14205 0.50396 0.0
Zn947 Zn 0.52056 0.05513 0.51656 0.0
O948 O 0.53 0.02347 0.56669 0.0
C949 C 0.58467 0.05766 0.52711 0.0
O950 O 0.51142 0.06501 0.55421 0.0
H951 H 0.48522 0.08266 0.47405 0.0
H952 H 0.56158 0.98284 0.57656 0.0
H953 H 0.53407 0.11383 0.53587 0.0
O954 O 0.58319 0.03114 0.53457 0.0
O955 O 0.56229 0.07058 0.52035 0.0
H956 H 0.54278 0.95687 0.50167 0.0
O957 O 0.52918 0.0455 0.47835 0.0
O958 O 0.55235 0.00675 0.49091 0.0
O959 O 0.47961 0.03953 0.51309 0.0
O960 O 0.49895 0.99737 0.52317 0.0
C961 C 0.54502 0.02421 0.47337 0.0
H962 H 0.55732 0.93243 0.59085 0.0
H963 H 0.54269 0.90564 0.51362 0.0
H964 H 0.49463 0.1273 0.45032 0.0
H965 H 0.5481 0.15646 0.51284 0.0
C966 C 0.29729 0.20994 0.77291 0.0
N967 N 0.25277 0.22897 0.83562 0.0
C968 C 0.23884 0.204 0.8287 0.0
C969 C 0.23372 0.18228 0.84631 0.0
C970 C 0.2426 0.18668 0.87123 0.0
C971 C 0.25456 0.21375 0.87832 0.0
C972 C 0.25969 0.23473 0.86 0.0
Zn973 Zn 0.26917 0.25295 0.80783 0.0
C974 C 0.33052 0.26732 0.8198 0.0
N975 N 0.30418 0.29514 0.74639 0.0
C976 C 0.29925 0.2825 0.72365 0.0
C977 C 0.31458 0.32287 0.74864 0.0
C978 C 0.31878 0.33973 0.72723 0.0
C979 C 0.31231 0.32766 0.70355 0.0
C980 C 0.30329 0.29838 0.70191 0.0
Zn981 Zn 0.28909 0.2733 0.77581 0.0
O982 O 0.28177 0.2125 0.79151 0.0
C983 C 0.22708 0.25943 0.76497 0.0
O984 O 0.30495 0.23294 0.76163 0.0
H985 H 0.31815 0.33245 0.76699 0.0
H986 H 0.23357 0.19986 0.80918 0.0
H987 H 0.29041 0.26068 0.7223 0.0
O988 O 0.22975 0.25141 0.78773 0.0
O989 O 0.24887 0.26814 0.75412 0.0
H990 H 0.27094 0.25464 0.86496 0.0
O991 O 0.27296 0.31364 0.79019 0.0
O992 O 0.25672 0.29319 0.824 0.0
O993 O 0.32888 0.2784 0.79779 0.0
O994 O 0.30877 0.25528 0.82828 0.0
C995 C 0.26039 0.31592 0.81066 0.0
H996 H 0.22439 0.16165 0.84031 0.0
H997 H 0.26189 0.21769 0.89744 0.0
H998 H 0.32594 0.36222 0.72917 0.0
H999 H 0.29754 0.2884 0.68406 0.0
C1000 C 0.08442 1.00004 0.55095 0.0
N1001 N 0.05636 0.04428 0.48602 0.0
C1002 C 0.08187 0.05739 0.48703 0.0
C1003 C 0.09728 0.05981 0.46541 0.0
C1004 C 0.08656 0.04811 0.44265 0.0
C1005 C 0.05926 0.03676 0.44194 0.0
C1006 C 0.04442 0.03529 0.46387 0.0
Zn1007 Zn 0.03907 0.02941 0.51807 0.0
C1008 C 0.02602 0.96359 0.51051 0.0
N1009 N 0.00584 0.99355 0.58487 0.0
C1010 C 0.01761 0.9732 0.60066 0.0
C1011 C 0.98475 0.01094 0.59256 0.0
C1012 C 0.9755 0.0092 0.61693 0.0
C1013 C 0.98806 0.98952 0.63406 0.0
C1014 C 0.00898 0.97081 0.62546 0.0
Zn1015 Zn 0.02338 0.00713 0.55181 0.0
O1016 O 0.07903 0.01344 0.53044 0.0
C1017 C 0.03754 0.07273 0.55926 0.0
O1018 O 0.06475 0.99569 0.56592 0.0
H1019 H 0.97629 0.02791 0.58042 0.0
H1020 H 0.09103 0.06425 0.50488 0.0
H1021 H 0.0347 0.95993 0.59453 0.0
O1022 O 0.04634 0.07081 0.53709 0.0
O1023 O 0.02694 0.05001 0.56906 0.0
H1024 H 0.02415 0.02483 0.46348 0.0
O1025 O 0.98219 0.01839 0.53615 0.0
O1026 O 0.999 0.04511 0.50594 0.0
O1027 O 0.02105 0.9642 0.53387 0.0
O1028 O 0.03186 0.98754 0.49954 0.0
C1029 C 0.97818 0.03573 0.51763 0.0
H1030 H 0.11789 0.06952 0.46683 0.0
H1031 H 0.05001 0.02717 0.42507 0.0
H1032 H 0.95983 0.02458 0.62266 0.0
H1033 H 0.01916 0.95513 0.63796 0.0
C1034 C 0.29404 0.78394 0.72582 0.0
N1035 N 0.35355 0.72247 0.75328 0.0
C1036 C 0.35342 0.71266 0.72922 0.0
C1037 C 0.37822 0.70356 0.71859 0.0
C1038 C 0.40343 0.70425 0.73292 0.0
C1039 C 0.40239 0.71231 0.75825 0.0
C1040 C 0.37732 0.7217 0.76796 0.0
Zn1041 Zn 0.32041 0.746 0.76657 0.0
C1042 C 0.34111 0.80747 0.78017 0.0
N1043 N 0.25593 0.80042 0.79485 0.0
C1044 C 0.23364 0.80592 0.77912 0.0
C1045 C 0.25525 0.8074 0.81959 0.0
C1046 C 0.23077 0.81795 0.82971 0.0
C1047 C 0.20687 0.8223 0.81411 0.0
C1048 C 0.20917 0.81751 0.78825 0.0
Zn1049 Zn 0.28845 0.7762 0.78158 0.0
O1050 O 0.31049 0.76231 0.72924 0.0
C1051 C 0.26689 0.7151 0.76863 0.0
O1052 O 0.28149 0.79411 0.74446 0.0
H1053 H 0.27318 0.80334 0.83188 0.0
H1054 H 0.33444 0.71355 0.71772 0.0
H1055 H 0.23417 0.80007 0.75957 0.0
O1056 O 0.29179 0.71001 0.76232 0.0
O1057 O 0.26032 0.74099 0.77501 0.0
H1058 H 0.37733 0.73003 0.78688 0.0
O1059 O 0.29639 0.7577 0.81839 0.0
O1060 O 0.32906 0.72975 0.8039 0.0
O1061 O 0.31663 0.81093 0.78792 0.0
O1062 O 0.34813 0.78279 0.77133 0.0
C1063 C 0.31438 0.73757 0.82209 0.0
H1064 H 0.37781 0.69781 0.69894 0.0
H1065 H 0.42101 0.71261 0.77029 0.0
H1066 H 0.23036 0.82108 0.84975 0.0
H1067 H 0.19191 0.82151 0.77514 0.0
C1068 C 0.51707 0.96299 0.05334 0.0
N1069 N 0.55789 0.03561 0.08388 0.0
C1070 C 0.5407 0.03021 0.10308 0.0
C1071 C 0.55048 0.03213 0.12776 0.0
C1072 C 0.57837 0.03963 0.1331 0.0
C1073 C 0.59571 0.04583 0.11304 0.0
C1074 C 0.58494 0.04368 0.08834 0.0
Zn1075 Zn 0.54099 0.02493 0.04939 0.0
C1076 C 0.57981 0.99227 0.01783 0.0
N1077 N 0.5025 0.99821 0.97983 0.0
C1078 C 0.47649 0.98621 0.97872 0.0
C1079 C 0.51515 0.00699 0.9587 0.0
C1080 C 0.50095 0.00569 0.93552 0.0
C1081 C 0.47356 0.9946 0.93378 0.0
C1082 C 0.46169 0.98393 0.95576 0.0
Zn1083 Zn 0.52119 0.00941 0.01348 0.0
O1084 O 0.52969 0.98339 0.06534 0.0
C1085 C 0.48296 0.04405 0.04365 0.0
O1086 O 0.5096 0.96763 0.03049 0.0
H1087 H 0.53582 0.01649 0.95995 0.0
H1088 H 0.51953 0.02291 0.09935 0.0
H1089 H 0.46676 0.97953 0.99578 0.0
O1090 O 0.50342 0.04464 0.05922 0.0
O1091 O 0.48438 0.02928 0.02365 0.0
H1092 H 0.59838 0.04743 0.07282 0.0
O1093 O 0.53291 0.05106 0.99741 0.0
O1094 O 0.55208 0.06672 0.03281 0.0
O1095 O 0.5585 0.99076 0.00314 0.0
O1096 O 0.57854 0.00564 0.03864 0.0
C1097 C 0.54501 0.0715 0.00987 0.0
H1098 H 0.53651 0.02642 0.1425 0.0
H1099 H 0.61739 0.05177 0.11638 0.0
H1100 H 0.51103 0.0147 0.91941 0.0
H1101 H 0.44093 0.97457 0.95542 0.0
C1102 C 0.26085 0.21741 0.30273 0.0
N1103 N 0.31635 0.2485 0.25203 0.0
C1104 C 0.33066 0.22284 0.25445 0.0
C1105 C 0.33498 0.20537 0.23361 0.0
C1106 C 0.32349 0.21372 0.21014 0.0
C1107 C 0.31105 0.24162 0.20787 0.0
C1108 C 0.30806 0.2589 0.22911 0.0
Zn1109 Zn 0.29901 0.26489 0.28334 0.0
C1110 C 0.24244 0.28899 0.27219 0.0
N1111 N 0.25893 0.29077 0.34872 0.0
C1112 C 0.2634 0.27614 0.37072 0.0
C1113 C 0.24728 0.31796 0.34796 0.0
C1114 C 0.242 0.3326 0.37007 0.0
C1115 C 0.24939 0.31927 0.39294 0.0
C1116 C 0.25906 0.2903 0.39333 0.0
Zn1117 Zn 0.27645 0.27604 0.31733 0.0
O1118 O 0.27955 0.22366 0.28736 0.0
C1119 C 0.33335 0.25227 0.3291 0.0
O1120 O 0.25521 0.23575 0.31966 0.0
H1121 H 0.24436 0.3294 0.33032 0.0
H1122 H 0.33677 0.21451 0.27276 0.0
H1123 H 0.27255 0.25449 0.37082 0.0
O1124 O 0.33425 0.25202 0.30541 0.0
O1125 O 0.311 0.2601 0.33913 0.0
H1126 H 0.29692 0.27942 0.22746 0.0
O1127 O 0.2975 0.31676 0.3142 0.0
O1128 O 0.31732 0.30638 0.27882 0.0
O1129 O 0.24242 0.29174 0.29576 0.0
O1130 O 0.26371 0.27839 0.26214 0.0
C1131 C 0.31287 0.32434 0.29638 0.0
H1132 H 0.34561 0.18462 0.23627 0.0
H1133 H 0.30166 0.24925 0.19035 0.0
H1134 H 0.23504 0.35521 0.36929 0.0
H1135 H 0.26525 0.27971 0.41082 0.0
C1136 C 0.58821 0.50141 0.05048 0.0
N1137 N 0.5583 0.54436 0.98587 0.0
C1138 C 0.58237 0.56023 0.98709 0.0
C1139 C 0.59743 0.56486 0.96554 0.0
C1140 C 0.58785 0.55255 0.94265 0.0
C1141 C 0.56194 0.53798 0.94182 0.0
C1142 C 0.54736 0.53439 0.96366 0.0
Zn1143 Zn 0.54169 0.52849 0.01763 0.0
C1144 C 0.52946 0.4627 0.01072 0.0
N1145 N 0.51047 0.49265 0.08517 0.0
C1146 C 0.52256 0.47134 0.09977 0.0
C1147 C 0.48985 0.50978 0.09405 0.0
C1148 C 0.48133 0.50669 0.11851 0.0
C1149 C 0.49429 0.48601 0.13445 0.0
C1150 C 0.51479 0.4677 0.12468 0.0
Zn1151 Zn 0.52668 0.50706 0.05206 0.0
O1152 O 0.58259 0.51594 0.0306 0.0
C1153 C 0.53939 0.57266 0.05892 0.0
O1154 O 0.56838 0.49468 0.06465 0.0
H1155 H 0.48116 0.52746 0.08284 0.0
H1156 H 0.59071 0.56786 0.00501 0.0
H1157 H 0.53923 0.45824 0.09262 0.0
O1158 O 0.54604 0.57085 0.03608 0.0
O1159 O 0.53134 0.54947 0.06984 0.0
H1160 H 0.5282 0.52182 0.96313 0.0
O1161 O 0.48513 0.51997 0.03828 0.0
O1162 O 0.50101 0.54062 0.00451 0.0
O1163 O 0.52289 0.46424 0.03367 0.0
O1164 O 0.53709 0.48603 0.99972 0.0
C1165 C 0.48062 0.53424 0.01802 0.0
H1166 H 0.61692 0.57687 0.96705 0.0
H1167 H 0.5537 0.52767 0.92488 0.0
H1168 H 0.46595 0.52176 0.12531 0.0
H1169 H 0.52528 0.4514 0.13637 0.0
C1170 C 0.77183 0.29555 0.22916 0.0
N1171 N 0.83153 0.24015 0.26308 0.0
C1172 C 0.83006 0.22256 0.24254 0.0
C1173 C 0.85419 0.20975 0.23379 0.0
C1174 C 0.87995 0.2153 0.24627 0.0
C1175 C 0.88044 0.23182 0.26841 0.0
C1176 C 0.85586 0.24414 0.27649 0.0
Zn1177 Zn 0.79835 0.26435 0.27288 0.0
C1178 C 0.81553 0.3269 0.28201 0.0
N1179 N 0.73036 0.31712 0.29494 0.0
C1180 C 0.7061 0.31315 0.28143 0.0
C1181 C 0.73224 0.33704 0.31389 0.0
C1182 C 0.70888 0.35342 0.32021 0.0
C1183 C 0.68322 0.34902 0.30709 0.0
C1184 C 0.68225 0.32865 0.28732 0.0
Zn1185 Zn 0.76374 0.29209 0.28528 0.0
O1186 O 0.78967 0.27576 0.23459 0.0
C1187 C 0.74644 0.22983 0.27577 0.0
O1188 O 0.7574 0.30606 0.24655 0.0
H1189 H 0.7518 0.34006 0.32425 0.0
H1190 H 0.81041 0.2196 0.2323 0.0
H1191 H 0.70507 0.29751 0.26623 0.0
O1192 O 0.7719 0.22711 0.27045 0.0
O1193 O 0.73714 0.25514 0.28076 0.0
H1194 H 0.85652 0.25823 0.29277 0.0
O1195 O 0.77086 0.27694 0.32406 0.0
O1196 O 0.80662 0.25258 0.3107 0.0
O1197 O 0.7907 0.32882 0.28933 0.0
O1198 O 0.82468 0.30215 0.27529 0.0
C1199 C 0.7908 0.25894 0.32843 0.0
H1200 H 0.85293 0.19684 0.21678 0.0
H1201 H 0.89985 0.23695 0.27843 0.0
H1202 H 0.71091 0.36912 0.33535 0.0
H1203 H 0.66302 0.32385 0.27691 0.0
C1204 C 0.03515 0.45763 0.54547 0.0
N1205 N 0.0418 0.53912 0.58069 0.0
C1206 C 0.02543 0.52605 0.5978 0.0
C1207 C 0.0328 0.5273 0.62331 0.0
C1208 C 0.05728 0.54207 0.63123 0.0
C1209 C 0.07232 0.5576 0.61337 0.0
C1210 C 0.06415 0.55586 0.58806 0.0
Zn1211 Zn 0.03855 0.52457 0.54442 0.0
C1212 C 0.0957 0.51104 0.52673 0.0
N1213 N 0.03639 0.49067 0.46969 0.0
C1214 C 0.01363 0.47452 0.46237 0.0
C1215 C 0.05276 0.50365 0.4525 0.0
C1216 C 0.04493 0.50306 0.42702 0.0
C1217 C 0.01989 0.4893 0.41937 0.0
C1218 C 0.00483 0.47376 0.43717 0.0
Zn1219 Zn 0.03963 0.50508 0.50615 0.0
O1220 O 0.03549 0.48061 0.55894 0.0
C1221 C 0.98263 0.52019 0.52333 0.0
O1222 O 0.03658 0.46059 0.52172 0.0
H1223 H 0.07052 0.51677 0.45869 0.0
H1224 H 0.00795 0.51256 0.59156 0.0
H1225 H 1.00082 0.46444 0.47627 0.0
O1226 O 0.99519 0.52902 0.54326 0.0
O1227 O 0.99629 0.50888 0.50596 0.0
H1228 H 0.07695 0.56599 0.57417 0.0
O1229 O 0.0421 0.54971 0.49171 0.0
O1230 O 0.04155 0.5683 0.52948 0.0
O1231 O 0.08326 0.50221 0.50674 0.0
O1232 O 0.08171 0.52049 0.54469 0.0
C1233 C 0.04231 0.57218 0.50586 0.0
H1234 H 0.02064 0.51493 0.6364 0.0
H1235 H 0.09104 0.56971 0.61877 0.0
H1236 H 0.05697 0.51541 0.41381 0.0
H1237 H 0.98545 0.46277 0.43186 0.0
C1238 C 0.80458 0.71875 0.26238 0.0
N1239 N 0.76465 0.75248 0.32407 0.0
C1240 C 0.74986 0.72701 0.32256 0.0
C1241 C 0.74056 0.71362 0.34411 0.0
C1242 C 0.74602 0.72683 0.36754 0.0
C1243 C 0.75971 0.75421 0.36834 0.0
C1244 C 0.76918 0.76655 0.34627 0.0
Zn1245 Zn 0.78087 0.76799 0.29222 0.0
C1246 C 0.84282 0.78119 0.29953 0.0
N1247 N 0.81355 0.79786 0.2239 0.0
C1248 C 0.80599 0.78146 0.2035 0.0
C1249 C 0.82702 0.824 0.22151 0.0
C1250 C 0.83218 0.83517 0.19768 0.0
C1251 C 0.82341 0.81917 0.17628 0.0
C1252 C 0.81081 0.79166 0.1795 0.0
Zn1253 Zn 0.79912 0.78336 0.25715 0.0
O1254 O 0.79137 0.72454 0.28191 0.0
C1255 C 0.7365 0.77014 0.25112 0.0
O1256 O 0.81082 0.7395 0.24771 0.0
H1257 H 0.83269 0.83674 0.23799 0.0
H1258 H 0.74615 0.71641 0.30465 0.0
H1259 H 0.79484 0.76101 0.20574 0.0
O1260 O 0.74079 0.76396 0.27412 0.0
O1261 O 0.7573 0.77811 0.23852 0.0
H1262 H 0.78079 0.78695 0.34696 0.0
O1263 O 0.7879 0.82726 0.26733 0.0
O1264 O 0.77037 0.81114 0.30216 0.0
O1265 O 0.84004 0.78839 0.27642 0.0
O1266 O 0.82135 0.77231 0.31073 0.0
C1267 C 0.77556 0.83233 0.28757 0.0
H1268 H 0.73056 0.69235 0.34241 0.0
H1269 H 0.76391 0.76553 0.38588 0.0
H1270 H 0.84214 0.85642 0.196 0.0
H1271 H 0.8032 0.77882 0.16361 0.0
C1272 C 0.8417 0.26897 0.76588 0.0
N1273 N 0.76666 0.23722 0.73435 0.0
C1274 C 0.77613 0.25327 0.71491 0.0
C1275 C 0.77624 0.24147 0.69092 0.0
C1276 C 0.76568 0.21304 0.68641 0.0
C1277 C 0.75375 0.19796 0.70651 0.0
C1278 C 0.7548 0.21035 0.73051 0.0
Zn1279 Zn 0.77928 0.25175 0.76918 0.0
C1280 C 0.80692 0.20305 0.79858 0.0
N1281 N 0.81129 0.28188 0.84033 0.0
C1282 C 0.82181 0.30952 0.84312 0.0
C1283 C 0.80406 0.26572 0.86059 0.0
C1284 C 0.80571 0.27786 0.88461 0.0
C1285 C 0.81467 0.30704 0.88785 0.0
C1286 C 0.82366 0.32258 0.86682 0.0
Zn1287 Zn 0.79835 0.26685 0.8055 0.0
O1288 O 0.81991 0.26008 0.75391 0.0
C1289 C 0.77051 0.31512 0.77538 0.0
O1290 O 0.83973 0.27467 0.7892 0.0
H1291 H 0.79523 0.24402 0.85798 0.0
H1292 H 0.7857 0.27449 0.71829 0.0
H1293 H 0.82726 0.32209 0.8268 0.0
O1294 O 0.76577 0.29436 0.76 0.0
O1295 O 0.78459 0.30998 0.79554 0.0
H1296 H 0.74758 0.19784 0.74626 0.0
O1297 O 0.75695 0.25923 0.82084 0.0
O1298 O 0.73854 0.24391 0.7851 0.0
O1299 O 0.81167 0.22321 0.81465 0.0
O1300 O 0.79302 0.20905 0.77855 0.0
C1301 C 0.73553 0.2504 0.80813 0.0
H1302 H 0.78621 0.25406 0.67655 0.0
H1303 H 0.74464 0.17634 0.70403 0.0
H1304 H 0.79836 0.26514 0.90021 0.0
H1305 H 0.83109 0.345 0.86853 0.0
C1306 C 0.75361 0.71381 0.75143 0.0
N1307 N 0.82742 0.73872 0.72001 0.0
C1308 C 0.83723 0.7115 0.72604 0.0
C1309 C 0.84983 0.6944 0.70816 0.0
C1310 C 0.85131 0.70492 0.68356 0.0
C1311 C 0.8437 0.73424 0.67857 0.0
C1312 C 0.83186 0.75092 0.69727 0.0
Zn1313 Zn 0.80026 0.75733 0.74356 0.0
C1314 C 0.75335 0.78759 0.71812 0.0
N1315 N 0.74246 0.78928 0.79451 0.0
C1316 C 0.73641 0.77474 0.81589 0.0
C1317 C 0.7364 0.81823 0.79137 0.0
C1318 C 0.72746 0.83466 0.81142 0.0
C1319 C 0.72498 0.82105 0.8348 0.0
C1320 C 0.72743 0.79037 0.83648 0.0
Zn1321 Zn 0.76922 0.77145 0.77055 0.0
O1322 O 0.77602 0.719 0.74033 0.0
C1323 C 0.81665 0.74397 0.79659 0.0
O1324 O 0.74486 0.73246 0.76697 0.0
H1325 H 0.7415 0.82935 0.77422 0.0
H1326 H 0.83329 0.70189 0.74407 0.0
H1327 H 0.7413 0.75167 0.81785 0.0
O1328 O 0.82336 0.74066 0.77406 0.0
O1329 O 0.7929 0.75431 0.80108 0.0
H1330 H 0.82411 0.77267 0.69293 0.0
O1331 O 0.79413 0.80999 0.77384 0.0
O1332 O 0.82498 0.79536 0.74721 0.0
O1333 O 0.74633 0.78924 0.74069 0.0
O1334 O 0.77617 0.77522 0.71309 0.0
C1335 C 0.81685 0.81411 0.76288 0.0
H1336 H 0.85599 0.67219 0.713 0.0
H1337 H 0.8443 0.74336 0.65987 0.0
H1338 H 0.72593 0.85828 0.80936 0.0
H1339 H 0.72532 0.77912 0.8542 0.0
C1340 C 0.52464 0.50604 0.49911 0.0
N1341 N 0.50698 0.52425 0.57453 0.0
C1342 C 0.48796 0.54212 0.56269 0.0
C1343 C 0.46776 0.55614 0.57631 0.0
C1344 C 0.46481 0.54773 0.6013 0.0
C1345 C 0.48813 0.53599 0.61413 0.0
C1346 C 0.50919 0.5239 0.60011 0.0
Zn1347 Zn 0.53034 0.49526 0.55394 0.0
C1348 C 0.50114 0.44243 0.53749 0.0
N1349 N 0.58348 0.43824 0.51381 0.0
C1350 C 0.59161 0.44664 0.4907 0.0
C1351 C 0.59994 0.42004 0.52815 0.0
C1352 C 0.62838 0.41883 0.52386 0.0
C1353 C 0.63849 0.43554 0.50411 0.0
C1354 C 0.61953 0.44415 0.48488 0.0
Zn1355 Zn 0.5585 0.4669 0.53282 0.0
O1356 O 0.51888 0.51687 0.52014 0.0
C1357 C 0.58715 0.52012 0.54829 0.0
O1358 O 0.54069 0.48395 0.49856 0.0
H1359 H 0.59247 0.41081 0.54529 0.0
H1360 H 0.48681 0.54409 0.54261 0.0
H1361 H 0.57815 0.45966 0.47855 0.0
O1362 O 0.56425 0.52243 0.55919 0.0
O1363 O 0.59102 0.49904 0.53332 0.0
H1364 H 0.52575 0.51229 0.60992 0.0
O1365 O 0.576 0.45198 0.56766 0.0
O1366 O 0.54255 0.47278 0.58747 0.0
O1367 O 0.52614 0.43575 0.5328 0.0
O1368 O 0.49593 0.46716 0.54722 0.0
C1369 C 0.56489 0.45805 0.58813 0.0
H1370 H 0.45093 0.56714 0.56611 0.0
H1371 H 0.48739 0.53074 0.63389 0.0
H1372 H 0.64233 0.41018 0.53843 0.0
H1373 H 0.62674 0.4557 0.46856 0.0
C1374 C 0.02648 0.54025 0.0759 0.0
N1375 N 0.06999 0.4675 0.05044 0.0
C1376 C 0.08469 0.46919 0.07264 0.0
C1377 C 0.09578 0.44385 0.0836 0.0
C1378 C 0.09197 0.41698 0.0712 0.0
C1379 C 0.07801 0.4162 0.04772 0.0
C1380 C 0.06688 0.44185 0.03773 0.0
Zn1381 Zn 0.05167 0.50298 0.03552 0.0
C1382 C 0.99096 0.4947 0.02708 0.0
N1383 N 0.01523 0.57816 0.00352 0.0
C1384 C 0.02573 0.60578 0.00613 0.0
C1385 C 0.99748 0.57088 0.98404 0.0
C1386 C 0.99138 0.59102 0.96512 0.0
C1387 C 1.0039 0.61877 0.96617 0.0
C1388 C 0.0203 0.62663 0.98745 0.0
Zn1389 Zn 0.03343 0.54375 0.02136 0.0
O1390 O 0.03823 0.51596 0.07138 0.0
C1391 C 0.09395 0.5518 0.0311 0.0
O1392 O 0.02312 0.559 0.05828 0.0
H1393 H 0.99011 0.54859 0.98173 0.0
H1394 H 0.08701 0.49003 0.08218 0.0
H1395 H 0.04002 0.61096 0.02162 0.0
O1396 O 0.0905 0.5261 0.03982 0.0
O1397 O 0.07281 0.5657 0.02248 0.0
H1398 H 0.05492 0.44111 0.02021 0.0
O1399 O 0.04436 0.52891 0.98442 0.0
O1400 O 0.0653 0.49025 0.99978 0.0
O1401 O 0.99415 0.5215 0.02122 0.0
O1402 O 0.01252 0.47921 0.03166 0.0
C1403 C 0.0599 0.50686 0.98119 0.0
H1404 H 0.1062 0.44497 0.1019 0.0
H1405 H 0.07408 0.39566 0.03798 0.0
H1406 H 0.97873 0.58416 0.94895 0.0
H1407 H 0.02983 0.64817 0.98906 0.0
H1408 H 0.10651 0.16161 0.10715 0.0
H1409 H 0.06216 0.12211 0.16743 0.0
H1410 H 0.06045 0.07524 0.14526 0.0
H1411 H 0.06278 0.04975 0.10581 0.0
H1412 H 0.10317 0.08932 0.04332 0.0
H1413 H 0.11708 0.13154 0.06979 0.0
C1414 C 0.09668 0.14255 0.11531 0.0
C1415 C 0.08312 0.14517 0.13803 0.0
C1416 C 0.0954 0.11593 0.10223 0.0
C1417 C 0.07181 0.12041 0.14946 0.0
C1418 C 0.07093 0.09375 0.13688 0.0
C1419 C 0.0749 0.06755 0.09803 0.0
C1420 C 0.08072 0.06763 0.0725 0.0
C1421 C 0.08123 0.0919 0.11274 0.0
C1422 C 0.09787 0.08951 0.06285 0.0
C1423 C 0.10554 0.11361 0.07791 0.0
H1424 H 0.14255 0.77554 0.39341 0.0
H1425 H 0.09036 0.7528 0.32886 0.0
H1426 H 0.13135 0.74537 0.3042 0.0
H1427 H 0.18245 0.74625 0.29993 0.0
H1428 H 0.23521 0.76905 0.36404 0.0
H1429 H 0.19423 0.77521 0.38933 0.0
C1430 C 0.14012 0.76886 0.37399 0.0
C1431 C 0.11296 0.76487 0.36325 0.0
C1432 C 0.16418 0.76453 0.35954 0.0
C1433 C 0.11066 0.75618 0.33791 0.0
C1434 C 0.13426 0.75186 0.32363 0.0
C1435 C 0.1851 0.75232 0.31948 0.0
C1436 C 0.21229 0.75704 0.32982 0.0
C1437 C 0.1612 0.75608 0.33411 0.0
C1438 C 0.21483 0.76513 0.35531 0.0
C1439 C 0.19124 0.76876 0.36991 0.0
H1440 H 0.52 0.78055 0.57017 0.0
H1441 H 0.57242 0.79597 0.63643 0.0
H1442 H 0.57649 0.84736 0.62558 0.0
H1443 H 0.57051 0.88609 0.59486 0.0
H1444 H 0.51357 0.87342 0.53115 0.0
H1445 H 0.50704 0.82245 0.54309 0.0
C1446 C 0.5318 0.79526 0.58252 0.0
C1447 C 0.54642 0.78413 0.60368 0.0
C1448 C 0.5341 0.82508 0.57629 0.0
C1449 C 0.56128 0.80367 0.61971 0.0
C1450 C 0.56381 0.83316 0.6135 0.0
C1451 C 0.55603 0.8727 0.5838 0.0
C1452 C 0.54327 0.88378 0.5617 0.0
C1453 C 0.55115 0.84382 0.59138 0.0
C1454 C 0.52485 0.86542 0.54767 0.0
C1455 C 0.52064 0.83627 0.55468 0.0
H1456 H 0.42801 0.26225 0.90379 0.0
H1457 H 0.47918 0.27915 0.84059 0.0
H1458 H 0.43743 0.28036 0.81282 0.0
H1459 H 0.38553 0.27699 0.80628 0.0
H1460 H 0.33561 0.2587 0.87012 0.0
H1461 H 0.3773 0.25791 0.89736 0.0
C1462 C 0.43025 0.26607 0.88392 0.0
C1463 C 0.45716 0.27052 0.87455 0.0
C1464 C 0.40603 0.2667 0.86795 0.0
C1465 C 0.45906 0.27546 0.84859 0.0
C1466 C 0.43503 0.27629 0.83262 0.0
C1467 C 0.38375 0.27297 0.82616 0.0
C1468 C 0.35703 0.26803 0.83592 0.0
C1469 C 0.40826 0.27207 0.84204 0.0
C1470 C 0.35555 0.26257 0.86182 0.0
C1471 C 0.37954 0.26208 0.87756 0.0
H1472 H 0.05642 0.83922 0.4649 0.0
H1473 H 0.01058 0.87418 0.40095 0.0
H1474 H 1.00343 0.92033 0.42345 0.0
H1475 H 0.00877 0.9504 0.46222 0.0
H1476 H 0.0516 0.91367 0.52716 0.0
H1477 H 0.0617 0.86916 0.50354 0.0
C1478 C 0.04461 0.85685 0.45601 0.0
C1479 C 0.03317 0.85279 0.43155 0.0
C1480 C 0.04006 0.88316 0.46935 0.0
C1481 C 0.01911 0.87643 0.4199 0.0
C1482 C 0.01493 0.90282 0.43284 0.0
C1483 C 0.01985 0.9324 0.47132 0.0
C1484 C 0.02891 0.93525 0.49668 0.0
C1485 C 0.02485 0.9063 0.45777 0.0
C1486 C 0.04377 0.91189 0.50795 0.0
C1487 C 0.0498 0.88648 0.49433 0.0
H1488 H 0.52262 0.71091 0.68618 0.0
H1489 H 0.48422 0.64786 0.63555 0.0
H1490 H 0.44294 0.64605 0.66095 0.0
H1491 H 0.41589 0.66603 0.69517 0.0
H1492 H 0.45299 0.73261 0.74341 0.0
H1493 H 0.49648 0.72884 0.72181 0.0
C1494 C 0.50549 0.69625 0.68108 0.0
C1495 C 0.50652 0.67952 0.65905 0.0
C1496 C 0.48133 0.69613 0.69528 0.0
C1497 C 0.48393 0.661 0.65243 0.0
C1498 C 0.46025 0.66005 0.66688 0.0
C1499 C 0.43344 0.67973 0.70102 0.0
C1500 C 0.43083 0.69958 0.72101 0.0
C1501 C 0.45835 0.67821 0.68793 0.0
C1502 C 0.45421 0.71671 0.72846 0.0
C1503 C 0.47918 0.71482 0.71592 0.0
H1504 H 0.54015 0.20609 0.98127 0.0
H1505 H 0.53806 0.17163 0.90617 0.0
H1506 H 0.54251 0.12149 0.92313 0.0
H1507 H 0.54434 0.08727 0.95988 0.0
H1508 H 0.5502 0.12367 0.03445 0.0
H1509 H 0.54742 0.17318 0.01709 0.0
C1510 C 0.54103 0.18777 0.96847 0.0
C1511 C 0.53857 0.19285 0.94237 0.0
C1512 C 0.54429 0.15922 0.97835 0.0
C1513 C 0.53993 0.16854 0.92627 0.0
C1514 C 0.54238 0.13983 0.93602 0.0
C1515 C 0.54542 0.10606 0.97232 0.0
C1516 C 0.5474 0.10152 0.99859 0.0
C1517 C 0.54423 0.13484 0.9621 0.0
C1518 C 0.54887 0.12626 0.01428 0.0
C1519 C 0.54708 0.15469 0.00434 0.0
H1520 H 0.12163 0.2683 0.23116 0.0
H1521 H 0.1668 0.245 0.16565 0.0
H1522 H 0.20965 0.26455 0.1849 0.0
H1523 H 0.23518 0.28142 0.2223 0.0
H1524 H 0.19083 0.30245 0.28881 0.0
H1525 H 0.14656 0.29182 0.26677 0.0
C1526 C 0.14081 0.26776 0.22105 0.0
C1527 C 0.14127 0.25461 0.19735 0.0
C1528 C 0.16545 0.27882 0.2323 0.0
C1529 C 0.16606 0.25459 0.18415 0.0
C1530 C 0.19056 0.26584 0.19508 0.0
C1531 C 0.2158 0.28438 0.23183 0.0
C1532 C 0.21627 0.29193 0.25728 0.0
C1533 C 0.19064 0.27708 0.21944 0.0
C1534 C 0.19101 0.29626 0.26925 0.0
C1535 C 0.16571 0.2899 0.25676 0.0
H1536 H 0.09235 0.99301 0.20385 0.0
H1537 H 0.1713 0.01154 0.17088 0.0
H1538 H 0.15149 0.99896 0.12953 0.0
H1539 H 0.11113 0.98585 0.10243 0.0
H1540 H 0.03149 0.96973 0.13492 0.0
H1541 H 0.05237 0.97756 0.17683 0.0
C1542 C 0.10527 0.99416 0.18764 0.0
C1543 C 0.13324 0.00339 0.19047 0.0
C1544 C 0.09368 0.98709 0.16385 0.0
C1545 C 0.14969 0.00467 0.16925 0.0
C1546 C 0.13839 0.9974 0.14559 0.0
C1547 C 0.09844 0.98333 0.1187 0.0
C1548 C 0.0698 0.97697 0.11553 0.0
C1549 C 0.11035 0.98888 0.14263 0.0
C1550 C 0.05361 0.97439 0.13683 0.0
C1551 C 0.06549 0.97911 0.16078 0.0
H1552 H 0.31241 0.8525 0.49846 0.0
H1553 H 0.27318 0.92505 0.45907 0.0
H1554 H 0.27993 0.90085 0.41916 0.0
H1555 H 0.29817 0.86004 0.39513 0.0
H1556 H 0.33783 0.78725 0.43361 0.0
H1557 H 0.3298 0.81051 0.47405 0.0
C1558 C 0.30491 0.86272 0.48116 0.0
C1559 C 0.29223 0.89054 0.48182 0.0
C1560 C 0.30932 0.84885 0.45804 0.0
C1561 C 0.28303 0.90368 0.45916 0.0
C1562 C 0.28698 0.88992 0.43627 0.0
C1563 C 0.30541 0.84942 0.41235 0.0
C1564 C 0.31893 0.82214 0.41132 0.0
C1565 C 0.30049 0.86277 0.43545 0.0
C1566 C 0.32746 0.80832 0.43387 0.0
C1567 C 0.32282 0.82159 0.457 0.0
H1568 H 0.42886 0.05218 0.65714 0.0
H1569 H 0.49258 0.00228 0.69663 0.0
H1570 H 0.52256 0.0058 0.66064 0.0
H1571 H 0.52987 0.02134 0.617 0.0
H1572 H 0.46804 0.07556 0.57917 0.0
H1573 H 0.4385 0.07251 0.61528 0.0
C1574 C 0.44936 0.04223 0.65779 0.0
C1575 C 0.45843 0.02672 0.67931 0.0
C1576 C 0.46695 0.04528 0.63733 0.0
C1577 C 0.48518 0.01429 0.68019 0.0
C1578 C 0.50233 0.01629 0.65962 0.0
C1579 C 0.51018 0.03293 0.61687 0.0
C1580 C 0.50127 0.04864 0.59536 0.0
C1581 C 0.49339 0.03156 0.63799 0.0
C1582 C 0.47563 0.06353 0.59553 0.0
C1583 C 0.45853 0.06159 0.61613 0.0
H1584 H 0.27979 0.08333 0.94128 0.0
H1585 H 0.23665 0.13639 0.99445 0.0
H1586 H 0.2193 0.16812 0.96094 0.0
H1587 H 0.22244 0.18539 0.91774 0.0
H1588 H 0.26547 0.13309 0.86435 0.0
H1589 H 0.27631 0.09627 0.89656 0.0
C1590 C 0.26616 0.10147 0.94547 0.0
C1591 C 0.26034 0.10795 0.97043 0.0
C1592 C 0.25636 0.11997 0.92609 0.0
C1593 C 0.24216 0.13126 0.97547 0.0
C1594 C 0.23214 0.1495 0.95632 0.0
C1595 C 0.23364 0.16557 0.91314 0.0
C1596 C 0.24343 0.16195 0.889 0.0
C1597 C 0.2401 0.14481 0.93176 0.0
C1598 C 0.25769 0.13618 0.88295 0.0
C1599 C 0.26409 0.11527 0.90137 0.0
H1600 H 0.17638 0.02445 0.36141 0.0
H1601 H 0.10397 0.03496 0.31187 0.0
H1602 H 0.0753 0.04446 0.34766 0.0
H1603 H 0.07089 0.05105 0.39282 0.0
H1604 H 0.14275 0.03735 0.44248 0.0
H1605 H 0.17157 0.02911 0.40669 0.0
C1606 C 0.15429 0.02859 0.35838 0.0
C1607 C 0.14246 0.02892 0.33387 0.0
C1608 C 0.13784 0.03413 0.37904 0.0
C1609 C 0.11374 0.03437 0.33045 0.0
C1610 C 0.09729 0.04002 0.35093 0.0
C1611 C 0.09278 0.04598 0.39595 0.0
C1612 C 0.10446 0.04508 0.42052 0.0
C1613 C 0.10916 0.04015 0.37529 0.0
C1614 C 0.1331 0.039 0.42391 0.0
C1615 C 0.14963 0.03383 0.40341 0.0
H1616 H 0.29111 0.82755 0.61276 0.0
H1617 H 0.28293 0.91148 0.64894 0.0
H1618 H 0.28233 0.88719 0.68983 0.0
H1619 H 0.28502 0.84203 0.71564 0.0
H1620 H 0.29775 0.75868 0.67973 0.0
H1621 H 0.29537 0.78262 0.63862 0.0
C1622 C 0.28894 0.84052 0.62957 0.0
C1623 C 0.28678 0.87135 0.62765 0.0
C1624 C 0.28934 0.82642 0.65318 0.0
C1625 C 0.28451 0.88777 0.64976 0.0
C1626 C 0.28414 0.87386 0.6732 0.0
C1627 C 0.28699 0.82906 0.69879 0.0
C1628 C 0.29119 0.79846 0.70079 0.0
C1629 C 0.2866 0.84319 0.67519 0.0
C1630 C 0.29434 0.78217 0.67876 0.0
C1631 C 0.29301 0.79589 0.65523 0.0
H1632 H 0.38961 0.00975 0.84033 0.0
H1633 H 0.46618 0.99937 0.80126 0.0
H1634 H 0.49185 0.99269 0.84092 0.0
H1635 H 0.4927 0.98887 0.88642 0.0
H1636 H 0.41719 0.00364 0.92614 0.0
H1637 H 0.39097 0.00825 0.88647 0.0
C1638 C 0.41193 0.00619 0.84049 0.0
C1639 C 0.42587 0.00519 0.81776 0.0
C1640 C 0.42677 0.0026 0.86347 0.0
C1641 C 0.45485 0.00056 0.8184 0.0
C1642 C 0.46959 0.99652 0.8411 0.0
C1643 C 0.4706 0.99353 0.88658 0.0
C1644 C 0.45716 0.99585 0.9095 0.0
C1645 C 0.45577 0.99743 0.86372 0.0
C1646 C 0.42823 0.00109 0.90897 0.0
C1647 C 0.41317 0.00414 0.88622 0.0
H1648 H 0.30089 0.10959 0.13373 0.0
H1649 H 0.29918 0.18247 0.08199 0.0
H1650 H 0.3122 0.21618 0.11579 0.0
H1651 H 0.32321 0.22515 0.15987 0.0
H1652 H 0.31816 0.15357 0.21286 0.0
H1653 H 0.31006 0.11917 0.17871 0.0
C1654 C 0.30332 0.13287 0.12999 0.0
C1655 C 0.29892 0.14362 0.10557 0.0
C1656 C 0.31011 0.15233 0.14965 0.0
C1657 C 0.30208 0.17378 0.10079 0.0
C1658 C 0.30973 0.19305 0.12004 0.0
C1659 C 0.32004 0.20214 0.16414 0.0
C1660 C 0.32142 0.1923 0.1891 0.0
C1661 C 0.31359 0.1826 0.14457 0.0
C1662 C 0.318 0.16204 0.19391 0.0
C1663 C 0.31287 0.14223 0.17437 0.0
H1664 H 0.24043 0.04406 0.00256 0.0
H1665 H 0.25895 0.00231 0.07346 0.0
H1666 H 0.22327 0.96466 0.06391 0.0
H1667 H 0.18212 0.95022 0.03774 0.0
H1668 H 0.17291 0.98436 0.96239 0.0
H1669 H 0.21177 0.01778 0.97064 0.0
C1670 C 0.23756 0.02593 0.0154 0.0
C1671 C 0.25265 0.02515 0.03821 0.0
C1672 C 0.21895 0.00338 0.00897 0.0
C1673 C 0.248 0.00251 0.05537 0.0
C1674 C 0.22773 0.98109 0.0499 0.0
C1675 C 0.18929 0.96368 0.02251 0.0
C1676 C 0.17281 0.96703 1.00028 0.0
C1677 C 0.21255 0.98186 0.02693 0.0
C1678 C 0.18385 0.98322 0.98044 0.0
C1679 C 0.20587 0.00257 0.98517 0.0
H1680 H 0.70437 0.43933 0.0781 0.0
H1681 H 0.72896 0.49547 0.0173 0.0
H1682 H 0.68242 0.5152 0.01327 0.0
H1683 H 0.63441 0.51669 0.02581 0.0
H1684 H 0.60764 0.4619 0.08636 0.0
H1685 H 0.65497 0.44202 0.09173 0.0
C1686 C 0.69951 0.45584 0.06399 0.0
C1687 C 0.72057 0.46572 0.04811 0.0
C1688 C 0.67217 0.46762 0.0617 0.0
C1689 C 0.71362 0.48733 0.03001 0.0
C1690 C 0.68681 0.49877 0.02757 0.0
C1691 C 0.63882 0.50052 0.04034 0.0
C1692 C 0.61732 0.49089 0.05563 0.0
C1693 C 0.66593 0.48912 0.04322 0.0
C1694 C 0.62372 0.46991 0.07436 0.0
C1695 C 0.65082 0.45839 0.07735 0.0
H1696 H 0.85655 0.44455 0.2336 0.0
H1697 H 0.93003 0.42636 0.27937 0.0
H1698 H 0.90987 0.37933 0.29247 0.0
H1699 H 0.86898 0.34545 0.29372 0.0
H1700 H 0.79453 0.36699 0.25028 0.0
H1701 H 0.81743 0.40988 0.23282 0.0
C1702 C 0.8681 0.43017 0.24639 0.0
C1703 C 0.89413 0.43916 0.25633 0.0
C1704 C 0.85612 0.40369 0.2542 0.0
C1705 C 0.90958 0.41999 0.272 0.0
C1706 C 0.89802 0.39322 0.27954 0.0
C1707 C 0.85782 0.35986 0.2807 0.0
C1708 C 0.8299 0.35368 0.27378 0.0
C1709 C 0.87087 0.38528 0.27143 0.0
C1710 C 0.81581 0.37185 0.2563 0.0
C1711 C 0.82896 0.39622 0.24617 0.0
H1712 H 0.85916 0.53641 0.48467 0.0
H1713 H 0.86805 0.61509 0.52946 0.0
H1714 H 0.91611 0.60214 0.54053 0.0
H1715 H 0.95454 0.56695 0.53965 0.0
H1716 H 0.94572 0.4887 0.49463 0.0
H1717 H 0.89809 0.50259 0.48214 0.0
C1718 C 0.87166 0.55103 0.49653 0.0
C1719 C 0.85989 0.5765 0.50641 0.0
C1720 C 0.89895 0.54309 0.5034 0.0
C1721 C 0.87654 0.59525 0.52164 0.0
C1722 C 0.90394 0.58773 0.52822 0.0
C1723 C 0.94195 0.55275 0.52745 0.0
C1724 C 0.95314 0.52661 0.51845 0.0
C1725 C 0.91504 0.5613 0.51979 0.0
C1726 C 0.93716 0.50875 0.50203 0.0
C1727 C 0.91014 0.5168 0.49471 0.0
H1728 H 0.1714 0.11583 0.29064 0.0
H1729 H 0.22958 0.08694 0.23643 0.0
H1730 H 0.25777 0.13125 0.24349 0.0
H1731 H 0.26844 0.17491 0.2684 0.0
H1732 H 0.21254 0.20225 0.32538 0.0
H1733 H 0.18116 0.16145 0.31445 0.0
C1734 C 0.19003 0.11968 0.28018 0.0
C1735 C 0.19894 0.09829 0.26346 0.0
C1736 C 0.20676 0.14447 0.28525 0.0
C1737 C 0.22282 0.10317 0.2497 0.0
C1738 C 0.23888 0.12838 0.25377 0.0
C1739 C 0.24944 0.17197 0.27853 0.0
C1740 C 0.24311 0.1913 0.298 0.0
C1741 C 0.23161 0.14855 0.2722 0.0
C1742 C 0.21822 0.1873 0.31068 0.0
C1743 C 0.20007 0.16424 0.30421 0.0
H1744 H 0.36274 0.98138 0.56756 0.0
H1745 H 0.37269 0.90182 0.5255 0.0
H1746 H 0.41763 0.91935 0.51094 0.0
H1747 H 0.45333 0.95873 0.50852 0.0
H1748 H 0.44074 0.04006 0.54756 0.0
H1749 H 0.39829 0.02051 0.56523 0.0
C1750 C 0.37471 0.9681 0.55503 0.0
C1751 C 0.36401 0.94092 0.5468 0.0
C1752 C 0.40021 0.97867 0.54623 0.0
C1753 C 0.38025 0.92321 0.53154 0.0
C1754 C 0.40591 0.93324 0.52318 0.0
C1755 C 0.44094 0.97227 0.5205 0.0
C1756 C 0.44978 0.00104 0.52621 0.0
C1757 C 0.41586 0.96124 0.52994 0.0
C1758 C 0.43393 0.01814 0.5423 0.0
C1759 C 0.40982 0.00686 0.55267 0.0
H1760 H 0.83067 0.58416 0.26333 0.0
H1761 H 0.90587 0.61368 0.22893 0.0
H1762 H 0.88759 0.66402 0.22752 0.0
H1763 H 0.85132 0.70013 0.23916 0.0
H1764 H 0.77833 0.66905 0.27614 0.0
H1765 H 0.79476 0.61867 0.27334 0.0
C1766 C 0.84328 0.60143 0.25543 0.0
C1767 C 0.86988 0.59502 0.24652 0.0
C1768 C 0.83297 0.63011 0.2552 0.0
C1769 C 0.88543 0.61789 0.23604 0.0
C1770 C 0.87499 0.6467 0.2353 0.0
C1771 C 0.83889 0.6822 0.24622 0.0
C1772 C 0.8136 0.68826 0.25783 0.0
C1773 C 0.84893 0.65315 0.24523 0.0
C1774 C 0.79785 0.66495 0.26721 0.0
C1775 C 0.80725 0.63615 0.26565 0.0
H1776 H 0.69979 0.4274 0.74519 0.0
H1777 H 0.731 0.45502 0.81816 0.0
H1778 H 0.75617 0.40892 0.82358 0.0
H1779 H 0.77012 0.36128 0.80741 0.0
H1780 H 0.74002 0.33348 0.73408 0.0
H1781 H 0.71408 0.37924 0.72882 0.0
C1782 C 0.71178 0.42304 0.76239 0.0
C1783 C 0.71341 0.44441 0.78131 0.0
C1784 C 0.72681 0.3967 0.76515 0.0
C1785 C 0.72943 0.43882 0.80334 0.0
C1786 C 0.74393 0.41254 0.80642 0.0
C1787 C 0.75811 0.3653 0.79016 0.0
C1788 C 0.75713 0.34401 0.77116 0.0
C1789 C 0.74304 0.39149 0.78734 0.0
C1790 C 0.74125 0.34955 0.749 0.0
C1791 C 0.72625 0.37565 0.74602 0.0
H1792 H 0.96462 0.89558 0.93067 0.0
H1793 H 0.03901 0.84402 0.94305 0.0
H1794 H 0.04575 0.86431 0.9849 0.0
H1795 H 0.03111 0.89659 0.01759 0.0
H1796 H 0.9589 0.95143 0.00567 0.0
H1797 H 0.94923 0.92831 0.96489 0.0
C1798 C 0.98239 0.88929 0.94255 0.0
C1799 C 1.00124 0.86836 0.9342 0.0
C1800 C 0.98588 0.90067 0.96692 0.0
C1801 C 0.02429 0.86013 0.94943 0.0
C1802 C 0.028 0.87143 0.97336 0.0
C1803 C 0.01276 0.90283 0.00637 0.0
C1804 C 0.99584 0.92558 0.01449 0.0
C1805 C 0.00871 0.89127 0.98241 0.0
C1806 C 0.97205 0.93356 0.99993 0.0
C1807 C 0.96701 0.92102 0.97629 0.0
H1808 H 0.96537 0.27262 0.723 0.0
H1809 H 0.91702 0.26175 0.65379 0.0
H1810 H 0.87432 0.26268 0.67643 0.0
H1811 H 0.84954 0.26528 0.71554 0.0
H1812 H 0.89565 0.27716 0.78549 0.0
H1813 H 0.93953 0.27733 0.7631 0.0
C1814 C 0.94553 0.27061 0.71283 0.0
C1815 C 0.9451 0.26707 0.68635 0.0
C1816 C 0.92021 0.27133 0.72618 0.0
C1817 C 0.91873 0.26455 0.67391 0.0
C1818 C 0.89394 0.26503 0.68693 0.0
C1819 C 0.86911 0.26807 0.72605 0.0
C1820 C 0.86889 0.27116 0.7524 0.0
C1821 C 0.89432 0.26823 0.71302 0.0
C1822 C 0.89481 0.27483 0.76531 0.0
C1823 C 0.92006 0.27482 0.75243 0.0
H1824 H 0.55626 0.23508 0.39564 0.0
H1825 H 0.58045 0.28586 0.46097 0.0
H1826 H 0.57498 0.24283 0.48746 0.0
H1827 H 0.55009 0.19696 0.49249 0.0
H1828 H 0.52873 0.14392 0.42728 0.0
H1829 H 0.54467 0.18289 0.40033 0.0
C1830 C 0.56171 0.23638 0.4155 0.0
C1831 C 0.56724 0.26378 0.42663 0.0
C1832 C 0.55713 0.21193 0.43077 0.0
C1833 C 0.57525 0.26503 0.45216 0.0
C1834 C 0.57155 0.24059 0.46739 0.0
C1835 C 0.54964 0.19296 0.47254 0.0
C1836 C 0.53667 0.16768 0.46226 0.0
C1837 C 0.56019 0.21477 0.45704 0.0
C1838 C 0.53669 0.16377 0.43605 0.0
C1839 C 0.5465 0.18581 0.42046 0.0
H1840 H 0.60604 0.76953 0.2261 0.0
H1841 H 0.63339 0.77313 0.15022 0.0
H1842 H 0.68217 0.77402 0.16566 0.0
H1843 H 0.71757 0.77317 0.20123 0.0
H1844 H 0.68873 0.76652 0.27667 0.0
H1845 H 0.64064 0.76731 0.26095 0.0
C1846 C 0.62262 0.77073 0.21287 0.0
C1847 C 0.61583 0.77156 0.18697 0.0
C1848 C 0.65067 0.77049 0.22188 0.0
C1849 C 0.63782 0.77261 0.17024 0.0
C1850 C 0.66582 0.77306 0.1791 0.0
C1851 C 0.70077 0.77184 0.21421 0.0
C1852 C 0.70716 0.76977 0.24023 0.0
C1853 C 0.67261 0.77188 0.20495 0.0
C1854 C 0.68483 0.76798 0.25661 0.0
C1855 C 0.65711 0.76853 0.24763 0.0
H1856 H 0.05118 0.20114 0.60522 0.0
H1857 H 1.0033 0.16219 0.66334 0.0
H1858 H 1.00309 0.11495 0.64125 0.0
H1859 H 0.01521 0.08513 0.60459 0.0
H1860 H 0.06295 0.12441 0.54625 0.0
H1861 H 0.06457 0.17088 0.56916 0.0
C1862 C 0.04056 0.1823 0.61293 0.0
C1863 C 0.02649 0.18538 0.6355 0.0
C1864 C 0.0406 0.1552 0.60008 0.0
C1865 C 0.01379 0.16053 0.64578 0.0
C1866 C 0.01367 0.13353 0.63312 0.0
C1867 C 0.02607 0.10379 0.59685 0.0
C1868 C 0.03895 0.10105 0.57356 0.0
C1869 C 0.02675 0.13066 0.61009 0.0
C1870 C 0.05283 0.12568 0.56401 0.0
C1871 C 0.05382 0.15233 0.57717 0.0
H1872 H 0.55875 0.38104 0.32542 0.0
H1873 H 0.58989 0.37719 0.40216 0.0
H1874 H 0.6375 0.37507 0.38819 0.0
H1875 H 0.66876 0.36326 0.35461 0.0
H1876 H 0.63833 0.36748 0.27762 0.0
H1877 H 0.59201 0.37993 0.29138 0.0
C1878 C 0.57594 0.3806 0.33912 0.0
C1879 C 0.5706 0.37818 0.36477 0.0
C1880 C 0.6034 0.37843 0.33094 0.0
C1881 C 0.59329 0.37837 0.38224 0.0
C1882 C 0.6206 0.37691 0.37427 0.0
C1883 C 0.65238 0.36783 0.34068 0.0
C1884 C 0.65704 0.36336 0.31509 0.0
C1885 C 0.62574 0.37515 0.34868 0.0
C1886 C 0.63524 0.36953 0.29751 0.0
C1887 C 0.60869 0.37691 0.30534 0.0
H1888 H 0.49174 0.83274 0.089 0.0
H1889 H 0.54534 0.85941 0.15157 0.0
H1890 H 0.54931 0.90855 0.13322 0.0
H1891 H 0.53853 0.94374 0.09879 0.0
H1892 H 0.48623 0.916 0.03574 0.0
H1893 H 0.48079 0.86765 0.05501 0.0
C1894 C 0.5042 0.84924 0.09887 0.0
C1895 C 0.51814 0.84204 0.1219 0.0
C1896 C 0.50668 0.8774 0.08802 0.0
C1897 C 0.53432 0.86401 0.13397 0.0
C1898 C 0.53661 0.89221 0.12342 0.0
C1899 C 0.52576 0.92722 0.08927 0.0
C1900 C 0.51272 0.93379 0.06571 0.0
C1901 C 0.52301 0.89914 0.10037 0.0
C1902 C 0.49649 0.91181 0.05377 0.0
C1903 C 0.49339 0.88406 0.06482 0.0
H1904 H 0.89488 0.78484 0.88615 0.0
H1905 H 0.94787 0.80234 0.82403 0.0
H1906 H 0.91406 0.77928 0.79544 0.0
H1907 H 0.87008 0.75482 0.78787 0.0
H1908 H 0.81331 0.74261 0.84789 0.0
H1909 H 0.84889 0.76146 0.87797 0.0
C1910 C 0.89886 0.78385 0.86631 0.0
C1911 C 0.9239 0.79526 0.85727 0.0
C1912 C 0.87919 0.77066 0.84983 0.0
C1913 C 0.92871 0.794 0.83151 0.0
C1914 C 0.90957 0.78043 0.81516 0.0
C1915 C 0.86556 0.75552 0.80761 0.0
C1916 C 0.83925 0.74688 0.81574 0.0
C1917 C 0.88498 0.76847 0.82418 0.0
C1918 C 0.83363 0.74865 0.84131 0.0
C1919 C 0.85374 0.75991 0.85836 0.0
H1920 H 0.92317 0.02838 0.91205 0.0
H1921 H 0.98427 0.98194 0.87035 0.0
H1922 H 0.0175 0.98504 0.9063 0.0
H1923 H 0.02766 0.99799 0.95081 0.0
H1924 H 0.96615 0.04587 0.99121 0.0
H1925 H 0.93478 0.04542 0.95447 0.0
C1926 C 0.94382 0.01905 0.91076 0.0
C1927 C 0.95116 0.00464 0.8887 0.0
C1928 C 0.96278 0.02125 0.93128 0.0
C1929 C 0.97814 0.99312 0.88715 0.0
C1930 C 0.99709 0.99484 0.90772 0.0
C1931 C 0.00767 0.00891 0.95139 0.0
C1932 C 0.9993 0.02178 0.9739 0.0
C1933 C 0.9895 0.00854 0.93004 0.0
C1934 C 0.97319 0.03569 0.97427 0.0
C1935 C 0.95511 0.03535 0.95325 0.0
H1936 H 0.7873 0.13573 0.59032 0.0
H1937 H 0.78685 0.22165 0.55601 0.0
H1938 H 0.77763 0.24413 0.59618 0.0
H1939 H 0.76716 0.23933 0.6402 0.0
H1940 H 0.77265 0.1542 0.67603 0.0
H1941 H 0.78091 0.13148 0.63581 0.0
C1942 C 0.78558 0.1594 0.59173 0.0
C1943 C 0.78773 0.17695 0.57016 0.0
C1944 C 0.78038 0.17231 0.61499 0.0
C1945 C 0.78546 0.2076 0.5723 0.0
C1946 C 0.77992 0.22049 0.59524 0.0
C1947 C 0.77071 0.21587 0.63957 0.0
C1948 C 0.76915 0.19875 0.6615 0.0
C1949 C 0.77697 0.20303 0.61662 0.0
C1950 C 0.77296 0.16816 0.65963 0.0
C1951 C 0.77817 0.15507 0.6366 0.0
H1952 H 0.60215 0.0491 0.37045 0.0
H1953 H 0.66507 0.99401 0.40566 0.0
H1954 H 0.63451 0.984 0.44029 0.0
H1955 H 0.59217 0.99469 0.4627 0.0
H1956 H 0.53054 0.05311 0.42972 0.0
H1957 H 0.55834 0.05828 0.39241 0.0
C1958 C 0.60911 0.03493 0.38575 0.0
C1959 C 0.63591 0.02243 0.38554 0.0
C1960 C 0.59182 0.0302 0.40621 0.0
C1961 C 0.6447 0.00418 0.40551 0.0
C1962 C 0.62724 0.99846 0.42533 0.0
C1963 C 0.58445 0.00807 0.44715 0.0
C1964 C 0.55911 0.02328 0.449 0.0
C1965 C 0.60104 0.01184 0.42618 0.0
C1966 C 0.54983 0.04096 0.42877 0.0
C1967 C 0.56585 0.04411 0.40749 0.0
H1968 H 0.81672 0.85006 0.0612 0.0
H1969 H 0.79266 0.93396 0.09074 0.0
H1970 H 0.80031 0.91571 0.13344 0.0
H1971 H 0.81139 0.87517 0.16227 0.0
H1972 H 0.83708 0.79171 0.1329 0.0
H1973 H 0.83144 0.81062 0.09021 0.0
C1974 C 0.81314 0.86429 0.07701 0.0
C1975 C 0.80384 0.89315 0.07289 0.0
C1976 C 0.81798 0.8538 0.1015 0.0
C1977 C 0.79971 0.91158 0.09348 0.0
C1978 C 0.80411 0.90119 0.11789 0.0
C1979 C 0.81641 0.86131 0.14659 0.0
C1980 C 0.82447 0.83202 0.15078 0.0
C1981 C 0.81306 0.87228 0.12212 0.0
C1982 C 0.83048 0.81425 0.13016 0.0
C1983 C 0.82725 0.82502 0.10576 0.0
H1984 H 0.97733 0.00196 0.7516 0.0
H1985 H 0.89086 0.01305 0.72897 0.0
H1986 H 0.90231 0.00669 0.68515 0.0
H1987 H 0.93657 0.99681 0.6533 0.0
H1988 H 0.02315 0.98553 0.6756 0.0
H1989 H 0.01182 0.99213 0.71946 0.0
C1990 C 0.96107 0.00339 0.73704 0.0
C1991 C 0.9333 0.00828 0.74356 0.0
C1992 C 0.96773 0.99904 0.71183 0.0
C1993 C 0.91241 0.0095 0.72448 0.0
C1994 C 0.91892 0.0057 0.69941 0.0
C1995 C 0.95303 0.9959 0.66771 0.0
C1996 C 0.98071 0.99066 0.661 0.0
C1997 C 0.94645 1.0002 0.69288 0.0
C1998 C 1.00161 0.98905 0.6801 0.0
C1999 C 0.9952 0.99319 0.70522 0.0
H2000 H 0.81476 0.16343 0.41301 0.0
H2001 H 0.73482 0.19242 0.437 0.0
H2002 H 0.73261 0.22915 0.40332 0.0
H2003 H 0.75312 0.25242 0.36607 0.0
H2004 H 0.83431 0.2244 0.34371 0.0
H2005 H 0.83652 0.18875 0.37769 0.0
C2006 C 0.79687 0.17778 0.41076 0.0
C2007 C 0.77483 0.17501 0.42725 0.0
C2008 C 0.79615 0.19949 0.39178 0.0
C2009 C 0.75196 0.19404 0.42441 0.0
C2010 C 0.75075 0.21514 0.40521 0.0
C2011 C 0.77156 0.239 0.36896 0.0
C2012 C 0.79353 0.24142 0.35219 0.0
C2013 C 0.77275 0.21815 0.38872 0.0
C2014 C 0.81705 0.22332 0.3562 0.0
C2015 C 0.81832 0.20267 0.37564 0.0
H2016 H 0.6005 0.03527 0.25003 0.0
H2017 H 0.67791 0.99757 0.22775 0.0
H2018 H 0.66297 0.00212 0.18352 0.0
H2019 H 0.6279 0.01766 0.15133 0.0
H2020 H 0.55262 0.05985 0.1743 0.0
H2021 H 0.56683 0.05305 0.21813 0.0
C2022 C 0.61383 0.02757 0.23545 0.0
C2023 C 0.63992 0.01551 0.24195 0.0
C2024 C 0.60567 0.03154 0.21023 0.0
C2025 C 0.65751 0.0065 0.22302 0.0
C2026 C 0.64908 0.00933 0.19781 0.0
C2027 C 0.61486 0.02583 0.16592 0.0
C2028 C 0.58911 0.03898 0.1595 0.0
C2029 C 0.62331 0.02216 0.19118 0.0
C2030 C 0.57233 0.04919 0.1787 0.0
C2031 C 0.58041 0.04531 0.20378 0.0
H2032 H 0.73883 0.92145 0.91444 0.0
H2033 H 0.80242 0.86224 0.943 0.0
H2034 H 0.78881 0.82621 0.91099 0.0
H2035 H 0.76026 0.81261 0.87425 0.0
H2036 H 0.69656 0.8714 0.84533 0.0
H2037 H 0.70851 0.90661 0.87866 0.0
C2038 C 0.74983 0.90074 0.9135 0.0
C2039 C 0.77172 0.89451 0.93083 0.0
C2040 C 0.74155 0.87998 0.89542 0.0
C2041 C 0.78553 0.86746 0.92976 0.0
C2042 C 0.77766 0.84684 0.91161 0.0
C2043 C 0.74831 0.83267 0.87569 0.0
C2044 C 0.72732 0.83929 0.85758 0.0
C2045 C 0.75567 0.85287 0.89443 0.0
C2046 C 0.71268 0.86582 0.85922 0.0
C2047 C 0.71965 0.88598 0.8781 0.0
H2048 H 0.81969 0.99589 0.02826 0.0
H2049 H 0.87486 0.96712 0.97142 0.0
H2050 H 0.91034 0.00241 0.9866 0.0
H2051 H 0.92834 0.03201 0.02133 0.0
H2052 H 0.87688 0.05062 0.08378 0.0
H2053 H 0.83626 0.03 0.06065 0.0
C2054 C 0.83922 0.99811 0.01878 0.0
C2055 C 0.84493 0.97951 0.99871 0.0
C2056 C 0.85984 0.01671 0.02871 0.0
C2057 C 0.87031 0.98159 0.98681 0.0
C2058 C 0.89041 0.00165 0.9955 0.0
C2059 C 0.9079 0.03274 0.02935 0.0
C2060 C 0.90521 0.04289 0.05399 0.0
C2061 C 0.88582 0.01814 0.01718 0.0
C2062 C 0.87906 0.04314 0.06471 0.0
C2063 C 0.85612 0.03097 0.05165 0.0
H2064 H 0.36416 0.57472 0.97025 0.0
H2065 H 0.35814 0.61407 0.04324 0.0
H2066 H 0.40345 0.59371 0.05609 0.0
H2067 H 0.44496 0.56419 0.04684 0.0
H2068 H 0.45332 0.52911 0.9727 0.0
H2069 H 0.40708 0.54792 0.96013 0.0
C2070 C 0.37281 0.57892 0.98894 0.0
C2071 C 0.3576 0.5959 0.00574 0.0
C2072 C 0.39928 0.5676 0.99609 0.0
C2073 C 0.36935 0.6013 0.02982 0.0
C2074 C 0.39525 0.58948 0.03727 0.0
C2075 C 0.43647 0.56049 0.02801 0.0
C2076 C 0.45223 0.5448 0.01083 0.0
C2077 C 0.41036 0.57245 0.02064 0.0
C2078 C 0.44141 0.54085 0.98629 0.0
C2079 C 0.41501 0.55168 0.9791 0.0
H2080 H 0.17454 0.62898 0.80793 0.0
H2081 H 0.23438 0.56446 0.78646 0.0
H2082 H 0.2653 0.60312 0.77193 0.0
H2083 H 0.27549 0.65569 0.76542 0.0
H2084 H 0.21335 0.71987 0.78338 0.0
H2085 H 0.18307 0.68116 0.79836 0.0
C2086 C 0.19451 0.62352 0.80032 0.0
C2087 C 0.20297 0.59406 0.79972 0.0
C2088 C 0.21159 0.64586 0.79084 0.0
C2089 C 0.22825 0.58713 0.78868 0.0
C2090 C 0.24569 0.60921 0.77987 0.0
C2091 C 0.25513 0.66119 0.77218 0.0
C2092 C 0.24687 0.69078 0.7732 0.0
C2093 C 0.23762 0.63872 0.78087 0.0
C2094 C 0.22039 0.69735 0.78223 0.0
C2095 C 0.20303 0.67521 0.79103 0.0
H2096 H 0.22196 0.50272 0.5585 0.0
H2097 H 0.23052 0.50047 0.47853 0.0
H2098 H 0.18012 0.50792 0.47214 0.0
H2099 H 0.13329 0.50974 0.48989 0.0
H2100 H 0.12609 0.51184 0.57026 0.0
H2101 H 0.17648 0.50951 0.57599 0.0
C2102 C 0.21277 0.5044 0.53969 0.0
C2103 C 0.22946 0.50085 0.519 0.0
C2104 C 0.18411 0.50808 0.5363 0.0
C2105 C 0.21777 0.50334 0.49466 0.0
C2106 C 0.18904 0.50723 0.49106 0.0
C2107 C 0.14285 0.5097 0.5086 0.0
C2108 C 0.12613 0.51044 0.52961 0.0
C2109 C 0.17192 0.50865 0.5118 0.0
C2110 C 0.13861 0.51104 0.5538 0.0
C2111 C 0.16738 0.50978 0.55712 0.0
H2112 H 0.90741 0.89866 0.81189 0.0
H2113 H 0.83966 0.95968 0.8021 0.0
H2114 H 0.80917 0.92092 0.78606 0.0
H2115 H 0.80229 0.86989 0.7726 0.0
H2116 H 0.87238 0.81115 0.77357 0.0
H2117 H 0.90181 0.84864 0.79426 0.0
C2118 C 0.88582 0.9032 0.80664 0.0
C2119 C 0.87503 0.93144 0.81034 0.0
C2120 C 0.86916 0.88133 0.79499 0.0
C2121 C 0.84761 0.93754 0.8019 0.0
C2122 C 0.83041 0.91554 0.79189 0.0
C2123 C 0.82412 0.86555 0.77705 0.0
C2124 C 0.83532 0.83808 0.77151 0.0
C2125 C 0.84101 0.88743 0.78815 0.0
C2126 C 0.86355 0.83246 0.77736 0.0
C2127 C 0.88026 0.85374 0.7894 0.0
H2128 H 0.6838 0.13821 0.49242 0.0
H2129 H 0.73312 0.0665 0.52163 0.0
H2130 H 0.69075 0.03981 0.53249 0.0
H2131 H 0.63892 0.0375 0.5344 0.0
H2132 H 0.59115 0.11276 0.5089 0.0
H2133 H 0.63324 0.13731 0.49649 0.0
C2134 C 0.68519 0.11655 0.50086 0.0
C2135 C 0.71144 0.10359 0.50486 0.0
C2136 C 0.66084 0.10209 0.5082 0.0
C2137 C 0.71304 0.07612 0.51689 0.0
C2138 C 0.6888 0.06112 0.52357 0.0
C2139 C 0.63778 0.05939 0.52642 0.0
C2140 C 0.61162 0.07304 0.52273 0.0
C2141 C 0.66246 0.07393 0.5194 0.0
C2142 C 0.61075 0.10147 0.51218 0.0
C2143 C 0.63492 0.11566 0.50486 0.0
H2144 H 0.21911 0.43711 0.85318 0.0
H2145 H 0.17821 0.44013 0.77993 0.0
H2146 H 0.19699 0.39197 0.77014 0.0
H2147 H 0.22731 0.35014 0.78132 0.0
H2148 H 0.26511 0.34458 0.85549 0.0
H2149 H 0.2455 0.39259 0.866 0.0
C2150 C 0.214 0.42703 0.83521 0.0
C2151 C 0.19731 0.44235 0.8173 0.0
C2152 C 0.22465 0.39905 0.82975 0.0
C2153 C 0.19077 0.42884 0.79416 0.0
C2154 C 0.20172 0.40137 0.78843 0.0
C2155 C 0.2312 0.35953 0.79978 0.0
C2156 C 0.24799 0.34429 0.8175 0.0
C2157 C 0.21909 0.38653 0.80588 0.0
C2158 C 0.25241 0.35616 0.84154 0.0
C2159 C 0.24118 0.38354 0.84752 0.0
H2160 H 0.33805 0.57182 0.31202 0.0
H2161 H 0.42027 0.60982 0.31944 0.0
H2162 H 0.40038 0.65904 0.3131 0.0
H2163 H 0.35908 0.69105 0.30751 0.0
H2164 H 0.27758 0.65202 0.29675 0.0
H2165 H 0.29768 0.60297 0.30251 0.0
C2166 C 0.35167 0.59082 0.312 0.0
C2167 C 0.38052 0.58734 0.31636 0.0
C2168 C 0.34014 0.61869 0.30806 0.0
C2169 C 0.398 0.61207 0.316 0.0
C2170 C 0.38661 0.64013 0.31259 0.0
C2171 C 0.34579 0.67172 0.30655 0.0
C2172 C 0.31687 0.6749 0.30228 0.0
C2173 C 0.35765 0.64369 0.30903 0.0
C2174 C 0.29984 0.6499 0.3003 0.0
C2175 C 0.31133 0.62198 0.30354 0.0
H2176 H 0.60783 0.61045 0.6223 0.0
H2177 H 0.60261 0.66672 0.55769 0.0
H2178 H 0.60981 0.62451 0.53012 0.0
H2179 H 0.604 0.57019 0.52568 0.0
H2180 H 0.61753 0.51571 0.59086 0.0
H2181 H 0.62211 0.559 0.61733 0.0
C2182 C 0.60844 0.61348 0.60217 0.0
C2183 C 0.6011 0.6406 0.59144 0.0
C2184 C 0.61436 0.58962 0.58683 0.0
C2185 C 0.60469 0.64503 0.56578 0.0
C2186 C 0.60965 0.62116 0.55019 0.0
C2187 C 0.61002 0.56789 0.54535 0.0
C2188 C 0.60933 0.54009 0.55663 0.0
C2189 C 0.61241 0.59296 0.5605 0.0
C2190 C 0.6176 0.53714 0.58198 0.0
C2191 C 0.61949 0.56187 0.59723 0.0
H2192 H 0.60732 0.24979 0.83747 0.0
H2193 H 0.64353 0.27939 0.90807 0.0
H2194 H 0.69018 0.27564 0.89138 0.0
H2195 H 0.72124 0.26519 0.85629 0.0
H2196 H 0.68502 0.23526 0.78576 0.0
H2197 H 0.63851 0.23775 0.80281 0.0
C2198 C 0.62538 0.25534 0.8493 0.0
C2199 C 0.6215 0.26496 0.87417 0.0
C2200 C 0.65248 0.25305 0.83952 0.0
C2201 C 0.64549 0.27193 0.88897 0.0
C2202 C 0.67235 0.2698 0.87938 0.0
C2203 C 0.70325 0.25895 0.84463 0.0
C2204 C 0.70709 0.24995 0.81956 0.0
C2205 C 0.6762 0.26053 0.85462 0.0
C2206 C 0.68314 0.24216 0.80501 0.0
C2207 C 0.65633 0.24367 0.81479 0.0
H2208 H 0.09167 0.28482 0.09636 0.0
H2209 H 0.04468 0.31607 0.15807 0.0
H2210 H 0.05558 0.36699 0.14676 0.0
H2211 H 0.07386 0.40178 0.11625 0.0
H2212 H 0.12022 0.36984 0.05429 0.0
H2213 H 0.11512 0.31943 0.06933 0.0
C2214 C 0.08369 0.30279 0.10719 0.0
C2215 C 0.06663 0.29713 0.12734 0.0
C2216 C 0.09041 0.33156 0.10084 0.0
C2217 C 0.05735 0.32032 0.14207 0.0
C2218 C 0.06372 0.34924 0.13573 0.0
C2219 C 0.08374 0.38384 0.10664 0.0
C2220 C 0.09724 0.38914 0.08422 0.0
C2221 C 0.07976 0.35506 0.11483 0.0
C2222 C 0.10972 0.36593 0.07161 0.0
C2223 C 0.1065 0.33723 0.08 0.0
H2224 H 0.96857 0.78899 0.34355 0.0
H2225 H 0.92788 0.75885 0.40972 0.0
H2226 H 0.88325 0.75825 0.38685 0.0
H2227 H 0.85489 0.76669 0.34847 0.0
H2228 H 0.89412 0.79728 0.28186 0.0
H2229 H 0.93955 0.79736 0.30436 0.0
C2230 C 0.94999 0.78207 0.35293 0.0
C2231 C 0.95204 0.77393 0.37856 0.0
C2232 C 0.92379 0.78202 0.33957 0.0
C2233 C 0.92738 0.76532 0.39019 0.0
C2234 C 0.90162 0.76497 0.37708 0.0
C2235 C 0.8733 0.77346 0.33876 0.0
C2236 C 0.87074 0.78205 0.31334 0.0
C2237 C 0.89946 0.77343 0.35183 0.0
C2238 C 0.89515 0.79064 0.30135 0.0
C2239 C 0.92128 0.79062 0.31425 0.0
H2240 H 0.5551 0.33583 0.9675 0.0
H2241 H 0.51379 0.37226 0.90178 0.0
H2242 H 0.50765 0.41897 0.92371 0.0
H2243 H 0.51332 0.44953 0.96217 0.0
H2244 H 0.55129 0.41147 0.02887 0.0
H2245 H 0.55969 0.36585 0.00618 0.0
C2246 C 0.54434 0.35385 0.95813 0.0
C2247 C 0.53401 0.35012 0.93325 0.0
C2248 C 0.54036 0.38053 0.97113 0.0
C2249 C 0.52142 0.37426 0.92103 0.0
C2250 C 0.51784 0.40099 0.93363 0.0
C2251 C 0.52298 0.43103 0.97184 0.0
C2252 C 0.5313 0.43389 0.99739 0.0
C2253 C 0.52692 0.40433 0.95881 0.0
C2254 C 0.54416 0.40979 0.00945 0.0
C2255 C 0.54918 0.38372 0.99637 0.0
H2256 H 1.00349 0.19781 0.21332 0.0
H2257 H 0.96543 0.22645 0.14293 0.0
H2258 H 0.92 0.22675 0.16133 0.0
H2259 H 0.89143 0.22208 0.19767 0.0
H2260 H 0.92822 0.1938 0.26847 0.0
H2261 H 0.97379 0.19004 0.24956 0.0
C2262 C 0.98526 0.20412 0.20204 0.0
C2263 C 0.98801 0.21235 0.17685 0.0
C2264 C 0.95895 0.20423 0.21273 0.0
C2265 C 0.96406 0.22012 0.1624 0.0
C2266 C 0.93798 0.22028 0.17287 0.0
C2267 C 0.90922 0.21431 0.20885 0.0
C2268 C 0.90645 0.20814 0.23438 0.0
C2269 C 0.93523 0.21264 0.19802 0.0
C2270 C 0.9299 0.19881 0.24875 0.0
C2271 C 0.95593 0.19674 0.23798 0.0
H2272 H 0.02919 0.70661 0.47856 0.0
H2273 H 0.04457 0.67551 0.40412 0.0
H2274 H 0.04985 0.62522 0.42064 0.0
H2275 H 0.04847 0.58978 0.45659 0.0
H2276 H 0.03461 0.62345 0.53065 0.0
H2277 H 0.03053 0.67294 0.51382 0.0
C2278 C 0.03378 0.68901 0.46574 0.0
C2279 C 0.0362 0.69511 0.43993 0.0
C2280 C 0.03706 0.66042 0.4754 0.0
C2281 C 0.04252 0.67169 0.42398 0.0
C2282 C 0.04547 0.64287 0.43348 0.0
C2283 C 0.04472 0.60798 0.46906 0.0
C2284 C 0.04175 0.60258 0.495 0.0
C2285 C 0.04255 0.63689 0.45919 0.0
C2286 C 0.03702 0.62663 0.51075 0.0
C2287 C 0.0346 0.65507 0.5011 0.0
H2288 H 0.63584 0.77689 0.67275 0.0
H2289 H 0.6782 0.71935 0.62286 0.0
H2290 H 0.72335 0.73843 0.63817 0.0
H2291 H 0.74995 0.76407 0.67157 0.0
H2292 H 0.70733 0.82169 0.72138 0.0
H2293 H 0.66313 0.81138 0.69927 0.0
C2294 C 0.65502 0.76899 0.66504 0.0
C2295 C 0.6541 0.74628 0.64743 0.0
C2296 C 0.68074 0.78029 0.67368 0.0
C2297 C 0.67874 0.7366 0.63682 0.0
C2298 C 0.70447 0.74751 0.6455 0.0
C2299 C 0.73122 0.77538 0.67687 0.0
C2300 C 0.73161 0.79272 0.69856 0.0
C2301 C 0.70572 0.76844 0.66471 0.0
C2302 C 0.70732 0.80767 0.70501 0.0
C2303 C 0.68198 0.80148 0.69262 0.0
H2304 H 0.65369 0.47394 0.67608 0.0
H2305 H 0.57907 0.48788 0.71704 0.0
H2306 H 0.55035 0.47445 0.68028 0.0
H2307 H 0.54627 0.46349 0.63538 0.0
H2308 H 0.6206 0.44755 0.5945 0.0
H2309 H 0.64938 0.45616 0.63235 0.0
C2310 C 0.63116 0.47374 0.67696 0.0
C2311 C 0.61855 0.48227 0.69914 0.0
C2312 C 0.61464 0.46547 0.65578 0.0
C2313 C 0.58933 0.48149 0.70017 0.0
C2314 C 0.57283 0.47384 0.67914 0.0
C2315 C 0.56872 0.46114 0.6349 0.0
C2316 C 0.58119 0.4551 0.61208 0.0
C2317 C 0.58523 0.46635 0.6567 0.0
C2318 C 0.61035 0.45204 0.61182 0.0
C2319 C 0.62692 0.45731 0.63343 0.0
H2320 H 0.80989 0.35314 0.9997 0.0
H2321 H 0.77725 0.42935 0.96068 0.0
H2322 H 0.78084 0.40426 0.9207 0.0
H2323 H 0.79474 0.36158 0.89652 0.0
H2324 H 0.8285 0.28543 0.9347 0.0
H2325 H 0.82293 0.30948 0.97518 0.0
C2326 C 0.80312 0.36401 0.98247 0.0
C2327 C 0.79323 0.39306 0.98322 0.0
C2328 C 0.80578 0.34962 0.95933 0.0
C2329 C 0.78496 0.40702 0.96066 0.0
C2330 C 0.78711 0.39274 0.93774 0.0
C2331 C 0.80122 0.35035 0.91367 0.0
C2332 C 0.81233 0.32187 0.91252 0.0
C2333 C 0.79792 0.36426 0.93681 0.0
C2334 C 0.81989 0.30736 0.93502 0.0
C2335 C 0.81671 0.32111 0.95818 0.0
H2336 H 0.97893 0.56151 0.18385 0.0
H2337 H 0.92843 0.48719 0.16059 0.0
H2338 H 0.9511 0.48617 0.12042 0.0
H2339 H 0.98684 0.50466 0.09265 0.0
H2340 H 0.03391 0.58225 0.11273 0.0
H2341 H 0.01138 0.58373 0.15345 0.0
C2342 C 0.97283 0.54524 0.16989 0.0
C2343 C 0.95216 0.52424 0.17535 0.0
C2344 C 0.98551 0.54528 0.14637 0.0
C2345 C 0.94421 0.50356 0.15693 0.0
C2346 C 0.95727 0.50288 0.13396 0.0
C2347 C 0.99185 0.52215 0.10582 0.0
C2348 C 0.01201 0.54328 0.09981 0.0
C2349 C 0.97812 0.52338 0.12861 0.0
C2350 C 0.01841 0.5658 0.11698 0.0
C2351 C 0.00557 0.56656 0.14024 0.0
H2352 H 0.72444 0.62827 0.4462 0.0
H2353 H 0.7971 0.66803 0.48188 0.0
H2354 H 0.79572 0.70773 0.45092 0.0
H2355 H 0.77767 0.72656 0.41084 0.0
H2356 H 0.70264 0.68914 0.37678 0.0
H2357 H 0.701 0.65293 0.41035 0.0
C2358 C 0.73965 0.64587 0.44737 0.0
C2359 C 0.76108 0.64523 0.46584 0.0
C2360 C 0.73843 0.66874 0.42982 0.0
C2361 C 0.78049 0.66828 0.46759 0.0
C2362 C 0.77975 0.69084 0.44992 0.0
C2363 C 0.76033 0.71127 0.41106 0.0
C2364 C 0.74079 0.71012 0.39082 0.0
C2365 C 0.75928 0.69077 0.43053 0.0
C2366 C 0.71858 0.6899 0.39163 0.0
C2367 C 0.71754 0.66922 0.41086 0.0
H2368 H 0.67766 0.53552 0.86036 0.0
H2369 H 0.60321 0.53632 0.81251 0.0
H2370 H 0.57504 0.54663 0.84842 0.0
H2371 H 0.57131 0.55474 0.89323 0.0
H2372 H 0.64495 0.54883 0.9419 0.0
H2373 H 0.67367 0.54268 0.90569 0.0
C2374 C 0.65526 0.53789 0.85781 0.0
C2375 C 0.64258 0.53492 0.83381 0.0
C2376 C 0.63904 0.54345 0.87861 0.0
C2377 C 0.61352 0.53809 0.83082 0.0
C2378 C 0.59737 0.54421 0.85131 0.0
C2379 C 0.59359 0.55183 0.89607 0.0
C2380 C 0.60573 0.55217 0.92043 0.0
C2381 C 0.60989 0.54677 0.87529 0.0
C2382 C 0.63486 0.54923 0.92345 0.0
C2383 C 0.65136 0.54527 0.90273 0.0
H2384 H 0.78337 0.33275 0.11557 0.0
H2385 H 0.775 0.41883 0.14781 0.0
H2386 H 0.76695 0.39676 0.18879 0.0
H2387 H 0.76396 0.35291 0.21595 0.0
H2388 H 0.77833 0.26733 0.18477 0.0
H2389 H 0.78171 0.28901 0.14299 0.0
C2390 C 0.77957 0.34666 0.13153 0.0
C2391 C 0.77961 0.37745 0.12853 0.0
C2392 C 0.77584 0.3338 0.15528 0.0
C2393 C 0.77509 0.39512 0.14954 0.0
C2394 C 0.77042 0.38249 0.173 0.0
C2395 C 0.76754 0.33899 0.19996 0.0
C2396 C 0.77058 0.30845 0.20348 0.0
C2397 C 0.77092 0.35184 0.17616 0.0
C2398 C 0.77568 0.29082 0.18258 0.0
C2399 C 0.77775 0.30326 0.15869 0.0
H2400 H 0.97873 0.50417 0.30605 0.0
H2401 H 0.90765 0.53977 0.34272 0.0
H2402 H 0.9311 0.53295 0.3834 0.0
H2403 H 0.97009 0.51368 0.40891 0.0
H2404 H 0.042 0.47884 0.37351 0.0
H2405 H 0.02002 0.48843 0.33201 0.0
C2406 C 0.96868 0.51105 0.32291 0.0
C2407 C 0.94138 0.52235 0.32128 0.0
C2408 C 0.9822 0.50666 0.3465 0.0
C2409 C 0.92856 0.53088 0.34338 0.0
C2410 C 0.94189 0.52685 0.36671 0.0
C2411 C 0.98087 0.50808 0.39207 0.0
C2412 C 0.00727 0.495 0.39412 0.0
C2413 C 0.96834 0.51407 0.36852 0.0
C2414 C 0.02146 0.48859 0.37227 0.0
C2415 C 0.00893 0.49415 0.34861 0.0
H2416 H 0.84046 0.64918 0.57802 0.0
H2417 H 0.79428 0.58479 0.61893 0.0
H2418 H 0.81136 0.60641 0.65865 0.0
H2419 H 0.8312 0.64921 0.68024 0.0
H2420 H 0.87742 0.71392 0.63923 0.0
H2421 H 0.86884 0.6861 0.60068 0.0
C2422 C 0.8347 0.63956 0.59571 0.0
C2423 C 0.81575 0.61605 0.59589 0.0
C2424 C 0.84434 0.65225 0.6182 0.0
C2425 C 0.80873 0.60311 0.61862 0.0
C2426 C 0.81837 0.61555 0.64121 0.0
C2427 C 0.8405 0.65676 0.66318 0.0
C2428 C 0.85436 0.68409 0.66253 0.0
C2429 C 0.83509 0.64096 0.6411 0.0
C2430 C 0.86604 0.69338 0.6401 0.0
C2431 C 0.86111 0.67752 0.61806 0.0
H2432 H 0.74585 0.50849 0.53629 0.0
H2433 H 0.6889 0.57943 0.51977 0.0
H2434 H 0.65137 0.54417 0.51064 0.0
H2435 H 0.63647 0.49413 0.50385 0.0
H2436 H 0.69198 0.42192 0.52074 0.0
H2437 H 0.72881 0.45701 0.5338 0.0
C2438 C 0.72508 0.516 0.53086 0.0
C2439 C 0.72001 0.54612 0.52756 0.0
C2440 C 0.70376 0.49562 0.52567 0.0
C2441 C 0.69307 0.55616 0.52175 0.0
C2442 C 0.67177 0.53609 0.51653 0.0
C2443 C 0.65679 0.48588 0.50984 0.0
C2444 C 0.66208 0.45551 0.51009 0.0
C2445 C 0.67725 0.50589 0.51754 0.0
C2446 C 0.6879 0.44525 0.51952 0.0
C2447 C 0.7087 0.46525 0.52724 0.0
H2448 H 0.2027 0.94688 0.58553 0.0
H2449 H 0.21476 0.95747 0.50635 0.0
H2450 H 0.16751 0.97553 0.50021 0.0
H2451 H 0.12371 0.99099 0.51699 0.0
H2452 H 0.10897 0.98035 0.59559 0.0
H2453 H 0.15601 0.95993 0.6023 0.0
C2454 C 0.1947 0.9526 0.56694 0.0
C2455 C 0.21237 0.95085 0.54642 0.0
C2456 C 0.16713 0.9635 0.56345 0.0
C2457 C 0.20173 0.95871 0.52247 0.0
C2458 C 0.17468 0.96918 0.51891 0.0
C2459 C 0.1307 0.98435 0.53568 0.0
C2460 C 0.11288 0.98771 0.55581 0.0
C2461 C 0.15742 0.97225 0.53926 0.0
C2462 C 0.12229 0.97832 0.57976 0.0
C2463 C 0.14921 0.96654 0.58358 0.0
H2464 H 0.41629 0.92073 0.77225 0.0
H2465 H 0.35787 0.93698 0.71076 0.0
H2466 H 0.33716 0.88824 0.71624 0.0
H2467 H 0.33166 0.84417 0.74217 0.0
H2468 H 0.38793 0.82841 0.80526 0.0
H2469 H 0.41337 0.87401 0.79605 0.0
C2470 C 0.39924 0.91328 0.75995 0.0
C2471 C 0.38787 0.93246 0.74168 0.0
C2472 C 0.38687 0.88567 0.76386 0.0
C2473 C 0.36628 0.92269 0.72538 0.0
C2474 C 0.35455 0.89487 0.72848 0.0
C2475 C 0.34969 0.8507 0.75371 0.0
C2476 C 0.35782 0.83356 0.77455 0.0
C2477 C 0.36391 0.87675 0.7483 0.0
C2478 C 0.38128 0.84169 0.78932 0.0
C2479 C 0.3958 0.8676 0.78396 0.0
H2480 H 0.37476 0.11166 0.06622 0.0
H2481 H 0.37515 0.12153 0.98609 0.0
H2482 H 0.42378 0.10625 0.98609 0.0
H2483 H 0.45931 0.07581 0.00694 0.0
H2484 H 0.45677 0.0594 0.08631 0.0
H2485 H 0.41525 0.09045 0.08874 0.0
C2486 C 0.38612 0.11214 0.04901 0.0
C2487 C 0.37154 0.11669 0.0261 0.0
C2488 C 0.4129 0.10019 0.04895 0.0
C2489 C 0.38615 0.1177 0.00386 0.0
C2490 C 0.41365 0.10815 0.00382 0.0
C2491 C 0.44971 0.07926 0.02479 0.0
C2492 C 0.45991 0.0645 0.04624 0.0
C2493 C 0.42608 0.09678 0.02588 0.0
C2494 C 0.44843 0.06999 0.0695 0.0
C2495 C 0.42497 0.08788 0.07088 0.0
H2496 H 0.7134 0.58533 0.72731 0.0
H2497 H 0.6471 0.61055 0.77483 0.0
H2498 H 0.66491 0.66115 0.77632 0.0
H2499 H 0.70342 0.69589 0.76888 0.0
H2500 H 0.76931 0.66983 0.7207 0.0
H2501 H 0.7474 0.62213 0.71436 0.0
C2502 C 0.70277 0.60211 0.73772 0.0
C2503 C 0.67988 0.5944 0.75184 0.0
C2504 C 0.7131 0.63091 0.73842 0.0
C2505 C 0.66532 0.61619 0.76441 0.0
C2506 C 0.67549 0.645 0.76526 0.0
C2507 C 0.71281 0.67987 0.75682 0.0
C2508 C 0.73839 0.68615 0.74594 0.0
C2509 C 0.70009 0.65228 0.75321 0.0
C2510 C 0.74991 0.66543 0.72977 0.0
C2511 C 0.73734 0.63812 0.72599 0.0
H2512 H 0.87194 0.47499 0.07178 0.0
H2513 H 0.87621 0.39463 0.0299 0.0
H2514 H 0.92367 0.40683 0.01779 0.0
H2515 H 0.9634 0.44224 0.01706 0.0
H2516 H 0.95622 0.52474 0.0557 0.0
H2517 H 0.91142 0.5097 0.07159 0.0
C2518 C 0.88325 0.46033 0.05984 0.0
C2519 C 0.87023 0.43456 0.05091 0.0
C2520 C 0.91032 0.46783 0.05251 0.0
C2521 C 0.88557 0.41503 0.03645 0.0
C2522 C 0.91271 0.42201 0.0295 0.0
C2523 C 0.95183 0.45693 0.02875 0.0
C2524 C 0.96305 0.48471 0.03493 0.0
C2525 C 0.92516 0.4487 0.03695 0.0
C2526 C 0.94791 0.50341 0.05033 0.0
C2527 C 0.92231 0.49477 0.05959 0.0
H2528 H 0.32242 0.07604 0.75941 0.0
H2529 H 0.40087 0.1097 0.73432 0.0
H2530 H 0.38324 0.16007 0.73792 0.0
H2531 H 0.34624 0.19457 0.75124 0.0
H2532 H 0.26969 0.15879 0.77866 0.0
H2533 H 0.28597 0.10918 0.77101 0.0
C2534 C 0.33588 0.09423 0.75462 0.0
C2535 C 0.36317 0.08888 0.74684 0.0
C2536 C 0.32588 0.12286 0.75722 0.0
C2537 C 0.37986 0.11302 0.74044 0.0
C2538 C 0.36978 0.14186 0.74257 0.0
C2539 C 0.33304 0.17586 0.75516 0.0
C2540 C 0.30674 0.18037 0.7655 0.0
C2541 C 0.34293 0.14707 0.75134 0.0
C2542 C 0.29 0.15594 0.7708 0.0
C2543 C 0.29931 0.12754 0.76645 0.0
H2544 H 0.25061 0.9524 0.28327 0.0
H2545 H 0.17023 0.92566 0.25209 0.0
H2546 H 0.1869 0.87492 0.24923 0.0
H2547 H 0.2239 0.83792 0.25798 0.0
H2548 H 0.30306 0.86635 0.29057 0.0
H2549 H 0.28721 0.91704 0.29019 0.0
C2550 C 0.2365 0.93561 0.27587 0.0
C2551 C 0.20902 0.94281 0.26825 0.0
C2552 C 0.24611 0.90684 0.27441 0.0
C2553 C 0.19141 0.92068 0.2583 0.0
C2554 C 0.20095 0.89171 0.25664 0.0
C2555 C 0.23774 0.85535 0.26459 0.0
C2556 C 0.26457 0.84853 0.27433 0.0
C2557 C 0.22821 0.8845 0.2649 0.0
C2558 C 0.28228 0.87113 0.28311 0.0
C2559 C 0.27323 0.90007 0.28295 0.0
H2560 H 0.46736 0.35212 0.46056 0.0
H2561 H 0.46965 0.42997 0.41448 0.0
H2562 H 0.46576 0.46064 0.45184 0.0
H2563 H 0.47529 0.46454 0.4972 0.0
H2564 H 0.48231 0.38626 0.5422 0.0
H2565 H 0.46794 0.35635 0.50598 0.0
C2566 C 0.46648 0.37582 0.4586 0.0
C2567 C 0.46987 0.38884 0.43496 0.0
C2568 C 0.46597 0.39313 0.48015 0.0
C2569 C 0.46767 0.41946 0.43254 0.0
C2570 C 0.46565 0.43697 0.45392 0.0
C2571 C 0.4721 0.44109 0.4993 0.0
C2572 C 0.47961 0.42746 0.52221 0.0
C2573 C 0.46666 0.42401 0.47786 0.0
C2574 C 0.47622 0.39708 0.52478 0.0
C2575 C 0.46857 0.38002 0.50394 0.0
H2576 H 0.41888 0.76223 0.17022 0.0
H2577 H 0.48259 0.769 0.22892 0.0
H2578 H 0.44666 0.77215 0.26024 0.0
H2579 H 0.39628 0.77194 0.2714 0.0
H2580 H 0.33377 0.76476 0.21152 0.0
H2581 H 0.36974 0.76301 0.18088 0.0
C2582 C 0.42511 0.7645 0.18983 0.0
C2583 C 0.45377 0.76535 0.19688 0.0
C2584 C 0.40426 0.76625 0.20787 0.0
C2585 C 0.46091 0.76826 0.22262 0.0
C2586 C 0.44025 0.77007 0.24068 0.0
C2587 C 0.39053 0.77023 0.25165 0.0
C2588 C 0.36195 0.76846 0.24413 0.0
C2589 C 0.41171 0.76899 0.23361 0.0
C2590 C 0.35529 0.76606 0.21826 0.0
C2591 C 0.37598 0.76504 0.2005 0.0
H2592 H 0.97007 0.71281 0.88637 0.0
H2593 H 0.05693 0.73462 0.89686 0.0
H2594 H 0.06533 0.68812 0.91881 0.0
H2595 H 0.04515 0.64914 0.94451 0.0
H2596 H 0.95669 0.63196 0.93872 0.0
H2597 H 0.9514 0.66877 0.90567 0.0
C2598 C 0.99108 0.70644 0.89226 0.0
C2599 C 0.01281 0.72686 0.89049 0.0
C2600 C 0.99504 0.68123 0.90683 0.0
C2601 C 0.04 0.71894 0.89804 0.0
C2602 C 0.04459 0.69276 0.91118 0.0
C2603 C 0.02478 0.6534 0.93585 0.0
C2604 C 1.00119 0.6387 0.94448 0.0
C2605 C 0.02182 0.67507 0.91738 0.0
C2606 C 0.97505 0.64344 0.93259 0.0
C2607 C 0.97203 0.66438 0.91367 0.0
H2608 H 0.09807 0.26413 0.73247 0.0
H2609 H 0.13131 0.27169 0.65889 0.0
H2610 H 0.17889 0.27034 0.67715 0.0
H2611 H 0.21165 0.26625 0.71444 0.0
H2612 H 0.17727 0.25534 0.78745 0.0
H2613 H 0.13028 0.2586 0.76913 0.0
C2614 C 0.1157 0.26573 0.7204 0.0
C2615 C 0.11086 0.26834 0.69426 0.0
C2616 C 0.14315 0.26409 0.73101 0.0
C2617 C 0.13419 0.26982 0.67903 0.0
C2618 C 0.16152 0.26898 0.6895 0.0
C2619 C 0.19389 0.2645 0.72634 0.0
C2620 C 0.19842 0.26048 0.75247 0.0
C2621 C 0.16638 0.26596 0.71552 0.0
C2622 C 0.17484 0.25824 0.76736 0.0
C2623 C 0.14773 0.26022 0.75688 0.0
H2624 H 0.54782 0.70307 0.1018 0.0
H2625 H 0.51079 0.66144 0.16499 0.0
H2626 H 0.51122 0.61396 0.14334 0.0
H2627 H 0.52145 0.58435 0.10607 0.0
H2628 H 0.5585 0.62613 0.0427 0.0
H2629 H 0.55868 0.67324 0.06465 0.0
C2630 C 0.53958 0.68361 0.11069 0.0
C2631 C 0.52844 0.68594 0.13469 0.0
C2632 C 0.54007 0.65632 0.0981 0.0
C2633 C 0.51893 0.66034 0.14637 0.0
C2634 C 0.5192 0.63319 0.13397 0.0
C2635 C 0.52969 0.6037 0.09702 0.0
C2636 C 0.54005 0.60142 0.07264 0.0
C2637 C 0.5296 0.6309 0.10975 0.0
C2638 C 0.55046 0.62697 0.06137 0.0
C2639 C 0.5506 0.65401 0.07397 0.0
H2640 H 0.10029 0.84845 0.87732 0.0
H2641 H 0.06018 0.80552 0.81368 0.0
H2642 H 0.10486 0.80101 0.7938 0.0
H2643 H 0.15519 0.80584 0.7959 0.0
H2644 H 0.19566 0.85357 0.85703 0.0
H2645 H 0.15095 0.85902 0.87669 0.0
C2646 C 0.10141 0.83837 0.85901 0.0
C2647 C 0.07708 0.82713 0.84705 0.0
C2648 C 0.12718 0.83636 0.84738 0.0
C2649 C 0.07863 0.8144 0.82322 0.0
C2650 C 0.10419 0.81169 0.81189 0.0
C2651 C 0.15448 0.8183 0.81311 0.0
C2652 C 0.17923 0.82899 0.82488 0.0
C2653 C 0.12861 0.82225 0.82394 0.0
C2654 C 0.17731 0.84433 0.84765 0.0
C2655 C 0.15163 0.84771 0.85889 0.0
H2656 H 0.0125 0.32675 0.58073 0.0
H2657 H 0.03979 0.3621 0.65241 0.0
H2658 H 0.04667 0.41035 0.63282 0.0
H2659 H 0.04427 0.44278 0.59512 0.0
H2660 H 0.01961 0.40556 0.52342 0.0
H2661 H 0.01263 0.3578 0.54325 0.0
C2662 C 0.02002 0.34487 0.59226 0.0
C2663 C 0.02538 0.3405 0.61827 0.0
C2664 C 0.02447 0.37235 0.58075 0.0
C2665 C 0.03538 0.36454 0.63249 0.0
C2666 C 0.0393 0.39222 0.62123 0.0
C2667 C 0.03744 0.4242 0.58378 0.0
C2668 C 0.03236 0.42804 0.55764 0.0
C2669 C 0.03383 0.39644 0.59535 0.0
C2670 C 0.02376 0.40349 0.5434 0.0
C2671 C 0.01967 0.3761 0.55481 0.0
H2672 H 0.43074 0.28183 0.40425 0.0
H2673 H 0.47666 0.27623 0.33672 0.0
H2674 H 0.43648 0.2532 0.31486 0.0
H2675 H 0.38592 0.24474 0.31304 0.0
H2676 H 0.33919 0.25421 0.38012 0.0
H2677 H 0.38204 0.26504 0.40423 0.0
C2678 C 0.43188 0.27528 0.3848 0.0
C2679 C 0.45568 0.2822 0.37149 0.0
C2680 C 0.40854 0.2628 0.37234 0.0
C2681 C 0.45774 0.27252 0.34675 0.0
C2682 C 0.43495 0.25906 0.33441 0.0
C2683 C 0.38518 0.24824 0.33309 0.0
C2684 C 0.35931 0.24941 0.34463 0.0
C2685 C 0.40975 0.25566 0.34665 0.0
C2686 C 0.35878 0.25364 0.37067 0.0
C2687 C 0.38327 0.26 0.38448 0.0
H2688 H 0.43669 0.54274 0.41496 0.0
H2689 H 0.49356 0.49522 0.36929 0.0
H2690 H 0.52567 0.48916 0.40525 0.0
H2691 H 0.53547 0.49299 0.45063 0.0
H2692 H 0.47916 0.54162 0.49602 0.0
H2693 H 0.44922 0.55166 0.4593 0.0
C2694 C 0.45634 0.53154 0.41276 0.0
C2695 C 0.46255 0.51937 0.38944 0.0
C2696 C 0.47481 0.52808 0.43356 0.0
C2697 C 0.48821 0.505 0.38694 0.0
C2698 C 0.50657 0.50131 0.40757 0.0
C2699 C 0.51694 0.50626 0.45239 0.0
C2700 C 0.50951 0.51629 0.4761 0.0
C2701 C 0.49979 0.51215 0.4311 0.0
C2702 C 0.48546 0.53359 0.47803 0.0
C2703 C 0.46819 0.53926 0.45702 0.0
H2704 H 0.27974 0.63897 0.09375 0.0
H2705 H 0.28181 0.72479 0.05951 0.0
H2706 H 0.27074 0.74743 0.09932 0.0
H2707 H 0.25879 0.74274 0.14313 0.0
H2708 H 0.26261 0.65744 0.1789 0.0
H2709 H 0.27146 0.63476 0.1389 0.0
C2710 C 0.27806 0.66266 0.0951 0.0
C2711 C 0.28163 0.68017 0.0737 0.0
C2712 C 0.272 0.67561 0.11816 0.0
C2713 C 0.27943 0.71082 0.07573 0.0
C2714 C 0.27284 0.72377 0.09845 0.0
C2715 C 0.26208 0.71925 0.14259 0.0
C2716 C 0.25988 0.70215 0.16453 0.0
C2717 C 0.26886 0.70635 0.11974 0.0
C2718 C 0.26335 0.67149 0.1626 0.0
C2719 C 0.26893 0.65838 0.13966 0.0
H2720 H 0.15256 0.4948 0.90063 0.0
H2721 H 0.10142 0.55965 0.86258 0.0
H2722 H 0.06806 0.55757 0.89623 0.0
H2723 H 0.05409 0.53821 0.93729 0.0
H2724 H 0.10385 0.47058 0.97349 0.0
H2725 H 0.13648 0.47237 0.93965 0.0
C2726 C 0.13412 0.50849 0.89976 0.0
C2727 C 0.12964 0.52761 0.87928 0.0
C2728 C 0.11451 0.5064 0.91874 0.0
C2729 C 0.10538 0.54483 0.87818 0.0
C2730 C 0.08628 0.54359 0.8974 0.0
C2731 C 0.07176 0.52345 0.93755 0.0
C2732 C 0.0763 0.50425 0.95806 0.0
C2733 C 0.09061 0.52447 0.91784 0.0
C2734 C 0.09951 0.48542 0.95799 0.0
C2735 C 0.11843 0.4866 0.93868 0.0
H2736 H 0.30114 0.37926 0.59523 0.0
H2737 H 0.26647 0.4524 0.63436 0.0
H2738 H 0.27516 0.42692 0.67459 0.0
H2739 H 0.29196 0.38304 0.6979 0.0
H2740 H 0.33077 0.31276 0.65781 0.0
H2741 H 0.32161 0.33836 0.61833 0.0
C2742 C 0.29504 0.38939 0.61257 0.0
C2743 C 0.28231 0.41702 0.61207 0.0
C2744 C 0.30135 0.37541 0.63526 0.0
C2745 C 0.27564 0.43071 0.63453 0.0
C2746 C 0.28086 0.4163 0.65739 0.0
C2747 C 0.299 0.3737 0.68059 0.0
C2748 C 0.31173 0.3459 0.68068 0.0
C2749 C 0.29381 0.38864 0.65793 0.0
C2750 C 0.32056 0.33392 0.65811 0.0
C2751 C 0.31526 0.34846 0.63556 0.0
H2752 H 0.48763 0.49964 0.25185 0.0
H2753 H 0.40008 0.50653 0.23164 0.0
H2754 H 0.41 0.49856 0.18768 0.0
H2755 H 0.44343 0.48996 0.15494 0.0
H2756 H 0.53102 0.48276 0.17473 0.0
H2757 H 0.52112 0.48951 0.21894 0.0
C2758 C 0.47079 0.49966 0.23776 0.0
C2759 C 0.44319 0.50402 0.24494 0.0
C2760 C 0.47658 0.49446 0.21252 0.0
C2761 C 0.42151 0.50341 0.22657 0.0
C2762 C 0.42714 0.49873 0.20145 0.0
C2763 C 0.46036 0.48978 0.16894 0.0
C2764 C 0.48793 0.48593 0.1615 0.0
C2765 C 0.45457 0.49418 0.19422 0.0
C2766 C 0.50957 0.4853 0.17994 0.0
C2767 C 0.50396 0.48953 0.2052 0.0
H2768 H 0.3174 0.64277 0.9094 0.0
H2769 H 0.26689 0.70792 0.94437 0.0
H2770 H 0.2715 0.74045 0.90824 0.0
H2771 H 0.28851 0.74982 0.86586 0.0
H2772 H 0.34175 0.68605 0.83213 0.0
H2773 H 0.33813 0.65423 0.86868 0.0
C2774 C 0.30751 0.66415 0.90912 0.0
C2775 C 0.29165 0.67278 0.92953 0.0
C2776 C 0.31097 0.68322 0.88853 0.0
C2777 C 0.27926 0.70072 0.92897 0.0
C2778 C 0.28186 0.71935 0.90828 0.0
C2779 C 0.29963 0.72914 0.86661 0.0
C2780 C 0.31533 0.72048 0.84606 0.0
C2781 C 0.29754 0.71081 0.88785 0.0
C2782 C 0.32962 0.69354 0.84757 0.0
C2783 C 0.32743 0.67515 0.86849 0.0
H2784 H 0.08664 0.52584 0.7468 0.0
H2785 H 0.16885 0.51436 0.71831 0.0
H2786 H 0.15019 0.5209 0.67551 0.0
H2787 H 0.11083 0.5312 0.64634 0.0
H2788 H 0.02882 0.54425 0.67476 0.0
H2789 H 0.04711 0.5358 0.71749 0.0
C2790 C 0.10041 0.52437 0.7312 0.0
C2791 C 0.12908 0.51948 0.73572 0.0
C2792 C 0.08964 0.5288 0.70668 0.0
C2793 C 0.1467 0.51801 0.71533 0.0
C2794 C 0.13607 0.5219 0.69087 0.0
C2795 C 0.09701 0.53264 0.6619 0.0
C2796 C 0.06853 0.53867 0.65737 0.0
C2797 C 0.10766 0.52772 0.68636 0.0
C2798 C 0.0508 0.53964 0.67773 0.0
C2799 C 0.06125 0.53479 0.70215 0.0
H2800 H 0.25186 0.41422 0.47774 0.0
H2801 H 0.34008 0.40589 0.4676 0.0
H2802 H 0.3314 0.36595 0.43748 0.0
H2803 H 0.29852 0.33541 0.41284 0.0
H2804 H 0.21014 0.34634 0.4203 0.0
H2805 H 0.21881 0.38358 0.45292 0.0
C2806 C 0.26905 0.40376 0.46862 0.0
C2807 C 0.29646 0.41285 0.4743 0.0
C2808 C 0.26381 0.38144 0.45115 0.0
C2809 C 0.31882 0.39934 0.46288 0.0
C2810 C 0.31386 0.37646 0.44597 0.0
C2811 C 0.28126 0.34557 0.42211 0.0
C2812 C 0.2538 0.33799 0.41493 0.0
C2813 C 0.28645 0.36754 0.43986 0.0
C2814 C 0.23139 0.35171 0.42614 0.0
C2815 C 0.23637 0.37305 0.4445 0.0
H2816 H 0.34588 0.51004 0.57214 0.0
H2817 H 0.39124 0.43151 0.55486 0.0
H2818 H 0.4321 0.45023 0.57861 0.0
H2819 H 0.45568 0.49055 0.5997 0.0
H2820 H 0.41398 0.57339 0.60857 0.0
H2821 H 0.36976 0.55073 0.59425 0.0
C2822 C 0.36499 0.49741 0.57304 0.0
C2823 C 0.36628 0.47011 0.56093 0.0
C2824 C 0.38834 0.50864 0.58609 0.0
C2825 C 0.39036 0.45301 0.56345 0.0
C2826 C 0.41343 0.46354 0.57723 0.0
C2827 C 0.43668 0.5034 0.59952 0.0
C2828 C 0.43787 0.53351 0.6054 0.0
C2829 C 0.41268 0.49145 0.58827 0.0
C2830 C 0.41331 0.55008 0.6046 0.0
C2831 C 0.38835 0.53732 0.59575 0.0
H2832 H 0.85132 0.05457 0.48605 0.0
H2833 H 0.87397 0.14506 0.49957 0.0
H2834 H 0.92246 0.13051 0.50823 0.0
H2835 H 0.95833 0.09156 0.51357 0.0
H2836 H 0.93378 0.0009 0.5054 0.0
H2837 H 0.88618 0.01585 0.49329 0.0
C2838 C 0.86677 0.07121 0.49084 0.0
C2839 C 0.85881 0.10097 0.49204 0.0
C2840 C 0.89436 0.06252 0.4969 0.0
C2841 C 0.87937 0.12204 0.49844 0.0
C2842 C 0.90714 0.1137 0.50344 0.0
C2843 C 0.94251 0.07517 0.50897 0.0
C2844 C 0.94954 0.04515 0.51007 0.0
C2845 C 0.91486 0.08396 0.50297 0.0
C2846 C 0.92883 0.02408 0.50459 0.0
C2847 C 0.90165 0.03266 0.49764 0.0
H2848 H 0.66622 0.13173 0.31611 0.0
H2849 H 0.73244 0.07653 0.29147 0.0
H2850 H 0.7577 0.11936 0.27664 0.0
H2851 H 0.76107 0.17256 0.2708 0.0
H2852 H 0.69351 0.22798 0.29295 0.0
H2853 H 0.66836 0.18511 0.3079 0.0
C2854 C 0.68634 0.12929 0.30775 0.0
C2855 C 0.69828 0.10132 0.30614 0.0
C2856 C 0.70023 0.15399 0.29834 0.0
C2857 C 0.72369 0.0981 0.29425 0.0
C2858 C 0.73788 0.12251 0.28533 0.0
C2859 C 0.74066 0.17527 0.27854 0.0
C2860 C 0.72925 0.2035 0.28068 0.0
C2861 C 0.72637 0.15058 0.2873 0.0
C2862 C 0.70278 0.20652 0.29089 0.0
C2863 C 0.68844 0.18202 0.29967 0.0
H2864 H 0.6902 0.95321 0.96928 0.0
H2865 H 0.7143 0.93765 0.04664 0.0
H2866 H 0.66708 0.9497 0.05922 0.0
H2867 H 0.6209 0.97044 0.04827 0.0
H2868 H 0.59697 0.98472 0.97056 0.0
H2869 H 0.64236 0.96732 0.95789 0.0
C2870 C 0.68484 0.95192 0.98882 0.0
C2871 C 0.7054 0.94496 0.00711 0.0
C2872 C 0.65798 0.95905 0.9958 0.0
C2873 C 0.69852 0.94291 0.03234 0.0
C2874 C 0.67171 0.95008 0.03951 0.0
C2875 C 0.62566 0.9695 0.02858 0.0
C2876 C 0.60607 0.9793 0.01035 0.0
C2877 C 0.6516 0.95916 0.02145 0.0
C2878 C 0.61197 0.97745 0.98487 0.0
C2879 C 0.63785 0.96755 0.97763 0.0
H2880 H 0.3826 0.44113 0.28705 0.0
H2881 H 0.39922 0.42111 0.36477 0.0
H2882 H 0.3635 0.38259 0.36294 0.0
H2883 H 0.33159 0.35133 0.33818 0.0
H2884 H 0.32757 0.36011 0.25779 0.0
H2885 H 0.35546 0.4054 0.26094 0.0
C2886 C 0.37864 0.42786 0.30344 0.0
C2887 C 0.3914 0.43522 0.32667 0.0
C2888 C 0.3613 0.40311 0.30132 0.0
C2889 C 0.3877 0.41716 0.34739 0.0
C2890 C 0.36802 0.39462 0.34608 0.0
C2891 C 0.33691 0.3631 0.32133 0.0
C2892 C 0.32773 0.35255 0.29781 0.0
C2893 C 0.35495 0.3872 0.3231 0.0
C2894 C 0.33462 0.36792 0.27609 0.0
C2895 C 0.35061 0.39362 0.27789 0.0
H2896 H 0.22251 0.58103 0.02301 0.0
H2897 H 0.18931 0.64991 0.97554 0.0
H2898 H 0.14178 0.63266 0.98246 0.0
H2899 H 0.10964 0.5989 0.00314 0.0
H2900 H 0.14298 0.53006 0.05096 0.0
H2901 H 0.19036 0.54633 0.04282 0.0
C2902 C 0.20485 0.59172 0.01368 0.0
C2903 C 0.20934 0.61608 0.9981 0.0
C2904 C 0.17759 0.58203 0.01823 0.0
C2905 C 0.18629 0.63067 0.9871 0.0
C2906 C 0.15915 0.62094 0.99122 0.0
C2907 C 0.12723 0.58765 0.01205 0.0
C2908 C 0.12261 0.56353 0.02798 0.0
C2909 C 0.15452 0.5969 0.00705 0.0
C2910 C 0.1458 0.54891 0.03889 0.0
C2911 C 0.17296 0.55809 0.03414 0.0
H2912 H 0.7455 0.96638 0.29985 0.0
H2913 H 0.68348 0.92928 0.34695 0.0
H2914 H 0.70166 0.8798 0.33953 0.0
H2915 H 0.73467 0.84735 0.31885 0.0
H2916 H 0.79471 0.88449 0.26946 0.0
H2917 H 0.77802 0.93388 0.27864 0.0
C2918 C 0.73626 0.94742 0.30868 0.0
C2919 C 0.71357 0.95121 0.3242 0.0
C2920 C 0.74644 0.9192 0.30384 0.0
C2921 C 0.70113 0.92664 0.33508 0.0
C2922 C 0.71151 0.89848 0.33082 0.0
C2923 C 0.74425 0.86627 0.31024 0.0
C2924 C 0.76604 0.86229 0.29362 0.0
C2925 C 0.7341 0.89451 0.31516 0.0
C2926 C 0.77793 0.88698 0.28231 0.0
C2927 C 0.76841 0.91521 0.28756 0.0
H2928 H 0.86281 0.07833 0.79038 0.0
H2929 H 0.87733 0.09179 0.86951 0.0
H2930 H 0.8555 0.1404 0.86633 0.0
H2931 H 0.8308 0.17837 0.84094 0.0
H2932 H 0.81268 0.16189 0.76243 0.0
H2933 H 0.83691 0.11515 0.7655 0.0
C2934 C 0.86161 0.09224 0.80678 0.0
C2935 C 0.87218 0.08207 0.83 0.0
C2936 C 0.84791 0.11937 0.80498 0.0
C2937 C 0.86971 0.09961 0.85137 0.0
C2938 C 0.85706 0.12722 0.84957 0.0
C2939 C 0.83206 0.16446 0.82456 0.0
C2940 C 0.81988 0.17369 0.80152 0.0
C2941 C 0.84577 0.13721 0.82649 0.0
C2942 C 0.82164 0.15533 0.78048 0.0
C2943 C 0.83569 0.12862 0.78213 0.0
loop_
_geom_bond_atom_site_label_1
_geom_bond_atom_site_label_2
_geom_bond_distance
_geom_bond_site_symmetry_2
_ccdc_geom_bond_type
Mn0 O5 2.095 . S
Mn0 O15 2.162 . S
Mn0 O16 2.297 . S
Mn0 O24 2.385 . S
Mn0 O25 2.209 . S
Mn0 O26 2.094 . S
Mn1 O6 2.121 . S
Mn1 N8 2.257 . S
Mn1 N17 2.282 . S
Mn1 O25 2.215 . S
Mn1 O27 2.117 . S
C2 O24 1.234 . S
C2 O25 1.283 . S
C3 O15 1.281 . S
C3 O16 1.236 . S
C4 O26 1.240 . S
C4 O27 1.264 . S
O5 Mn0 2.095 . S
O5 C14 1.250 . S
O6 Mn1 2.121 . S
O6 C14 1.258 . S
C7 N8 1.326 . S
C7 C11 1.460 . S
C7 H13 0.929 . S
N8 Mn1 2.257 . S
N8 C7 1.326 . S
N8 C12 1.362 . S
C9 C10 1.258 . S
C9 C12 1.431 . S
C9 C29 1.449 . S
C10 C9 1.258 . S
C10 C11 1.477 . S
C10 H30 0.931 . S
C11 C7 1.460 . S
C11 C10 1.477 . S
C11 H31 0.930 . S
C12 N8 1.362 . S
C12 C9 1.431 . S
C12 C22 1.476 . S
H13 C7 0.929 . S
C14 O5 1.250 . S
C14 O6 1.258 . S
O15 Mn0 2.162 . S
O15 C3 1.281 . S
O16 Mn0 2.297 . S
O16 C3 1.236 . S
N17 Mn1 2.282 . S
N17 C18 1.328 1_455 S
N17 C22 1.318 . S
C18 N17 1.328 1_655 S
C18 C19 1.457 . S
C18 H23 0.929 . S
C19 C18 1.457 . S
C19 C20 1.291 . S
C19 H32 0.931 . S
C20 C19 1.291 . S
C20 C21 1.373 . S
C20 H33 0.929 . S
C21 C20 1.373 . S
C21 C22 1.396 1_655 S
C21 C28 1.403 . S
C22 C12 1.476 . S
C22 N17 1.318 . S
C22 C21 1.396 1_455 S
H23 C18 0.929 . S
O24 Mn0 2.385 . S
O24 C2 1.234 . S
O25 Mn0 2.209 . S
O25 Mn1 2.215 . S
O25 C2 1.283 . S
O26 Mn0 2.094 . S
O26 C4 1.240 . S
O27 Mn1 2.117 . S
O27 C4 1.264 . S
C28 C21 1.403 . S
C28 C29 1.399 1_655 S
C28 H34 0.929 . S
C29 C9 1.449 . S
C29 C28 1.399 1_455 S
C29 H35 0.930 . S
H30 C10 0.931 . S
H31 C11 0.930 . S
H32 C19 0.931 . S
H33 C20 0.929 . S
H34 C28 0.929 . S
H35 C29 0.930 . S
Mn36 O41 2.095 . S
Mn36 O51 2.162 . S
Mn36 O52 2.297 . S
Mn36 O60 2.385 . S
Mn36 O61 2.209 . S
Mn36 O62 2.094 . S
Mn37 O42 2.121 1_655 S
Mn37 N44 2.257 1_655 S
Mn37 N53 2.282 . S
Mn37 O61 2.215 1_655 S
Mn37 O63 2.117 . S
C38 O60 1.234 . S
C38 O61 1.283 . S
C39 O51 1.281 . S
C39 O52 1.236 . S
C40 O62 1.240 1_655 S
C40 O63 1.264 . S
O41 Mn36 2.095 . S
O41 C50 1.250 . S
O42 Mn37 2.121 1_455 S
O42 C50 1.258 . S
C43 N44 1.326 . S
C43 C47 1.460 . S
C43 H49 0.929 . S
N44 Mn37 2.257 1_455 S
N44 C43 1.326 . S
N44 C48 1.362 1_455 S
C45 C46 1.258 1_655 S
C45 C48 1.431 . S
C45 C65 1.449 . S
C46 C45 1.258 1_455 S
C46 C47 1.477 . S
C46 H66 0.931 . S
C47 C43 1.460 . S
C47 C46 1.477 . S
C47 H67 0.930 . S
C48 N44 1.362 1_655 S
C48 C45 1.431 . S
C48 C58 1.476 . S
H49 C43 0.929 . S
C50 O41 1.250 . S
C50 O42 1.258 . S
O51 Mn36 2.162 . S
O51 C39 1.281 . S
O52 Mn36 2.297 . S
O52 C39 1.236 . S
N53 Mn37 2.282 . S
N53 C54 1.328 . S
N53 C58 1.318 . S
C54 N53 1.328 . S
C54 C55 1.457 . S
C54 H59 0.929 . S
C55 C54 1.457 . S
C55 C56 1.291 . S
C55 H68 0.931 . S
C56 C55 1.291 . S
C56 C57 1.373 . S
C56 H69 0.929 . S
C57 C56 1.373 . S
C57 C58 1.396 . S
C57 C64 1.403 . S
C58 C48 1.476 . S
C58 N53 1.318 . S
C58 C57 1.396 . S
H59 C54 0.929 . S
O60 Mn36 2.385 . S
O60 C38 1.234 . S
O61 Mn36 2.209 . S
O61 Mn37 2.215 1_455 S
O61 C38 1.283 . S
O62 Mn36 2.094 . S
O62 C40 1.240 1_455 S
O63 Mn37 2.117 . S
O63 C40 1.264 . S
C64 C57 1.403 . S
C64 C65 1.399 . S
C64 H70 0.929 . S
C65 C45 1.449 . S
C65 C64 1.399 . S
C65 H71 0.930 . S
H66 C46 0.931 . S
H67 C47 0.930 . S
H68 C55 0.931 . S
H69 C56 0.929 . S
H70 C64 0.929 . S
H71 C65 0.930 . S
Mn72 O77 2.095 . S
Mn72 O87 2.162 . S
Mn72 O88 2.297 . S
Mn72 O96 2.385 . S
Mn72 O97 2.209 . S
Mn72 O98 2.094 . S
Mn73 O78 2.121 . S
Mn73 N80 2.257 . S
Mn73 N89 2.282 . S
Mn73 O97 2.215 . S
Mn73 O99 2.117 . S
C74 O96 1.234 . S
C74 O97 1.283 . S
C75 O87 1.281 . S
C75 O88 1.236 . S
C76 O98 1.240 . S
C76 O99 1.264 . S
O77 Mn72 2.095 . S
O77 C86 1.250 . S
O78 Mn73 2.121 . S
O78 C86 1.258 . S
C79 N80 1.326 . S
C79 C83 1.460 . S
C79 H85 0.929 . S
N80 Mn73 2.257 . S
N80 C79 1.326 . S
N80 C84 1.362 . S
C81 C82 1.258 . S
C81 C84 1.431 . S
C81 C101 1.449 . S
C82 C81 1.258 . S
C82 C83 1.477 . S
C82 H102 0.931 . S
C83 C79 1.460 . S
C83 C82 1.477 . S
C83 H103 0.930 . S
C84 N80 1.362 . S
C84 C81 1.431 . S
C84 C94 1.476 . S
H85 C79 0.929 . S
C86 O77 1.250 . S
C86 O78 1.258 . S
O87 Mn72 2.162 . S
O87 C75 1.281 . S
O88 Mn72 2.297 . S
O88 C75 1.236 . S
N89 Mn73 2.282 . S
N89 C90 1.328 . S
N89 C94 1.318 . S
C90 N89 1.328 . S
C90 C91 1.457 . S
C90 H95 0.929 . S
C91 C90 1.457 . S
C91 C92 1.291 . S
C91 H104 0.931 . S
C92 C91 1.291 . S
C92 C93 1.373 . S
C92 H105 0.929 . S
C93 C92 1.373 . S
C93 C94 1.396 . S
C93 C100 1.403 . S
C94 C84 1.476 . S
C94 N89 1.318 . S
C94 C93 1.396 . S
H95 C90 0.929 . S
O96 Mn72 2.385 . S
O96 C74 1.234 . S
O97 Mn72 2.209 . S
O97 Mn73 2.215 . S
O97 C74 1.283 . S
O98 Mn72 2.094 . S
O98 C76 1.240 . S
O99 Mn73 2.117 . S
O99 C76 1.264 . S
C100 C93 1.403 . S
C100 C101 1.399 . S
C100 H106 0.929 . S
C101 C81 1.449 . S
C101 C100 1.399 . S
C101 H107 0.930 . S
H102 C82 0.931 . S
H103 C83 0.930 . S
H104 C91 0.931 . S
H105 C92 0.929 . S
H106 C100 0.929 . S
H107 C101 0.930 . S
Mn108 O113 2.095 . S
Mn108 O123 2.162 . S
Mn108 O124 2.297 . S
Mn108 O132 2.385 . S
Mn108 O133 2.209 . S
Mn108 O134 2.094 . S
Mn109 O114 2.121 . S
Mn109 N116 2.257 . S
Mn109 N125 2.282 . S
Mn109 O133 2.215 . S
Mn109 O135 2.117 . S
C110 O132 1.234 . S
C110 O133 1.283 . S
C111 O123 1.281 . S
C111 O124 1.236 . S
C112 O134 1.240 . S
C112 O135 1.264 . S
O113 Mn108 2.095 . S
O113 C122 1.250 . S
O114 Mn109 2.121 . S
O114 C122 1.258 . S
C115 N116 1.326 . S
C115 C119 1.460 1_556 S
C115 H121 0.929 . S
N116 Mn109 2.257 . S
N116 C115 1.326 . S
N116 C120 1.362 . S
C117 C118 1.258 . S
C117 C120 1.431 1_554 S
C117 C137 1.449 . S
C118 C117 1.258 . S
C118 C119 1.477 . S
C118 H138 0.931 . S
C119 C115 1.460 1_554 S
C119 C118 1.477 . S
C119 H139 0.930 . S
C120 N116 1.362 . S
C120 C117 1.431 1_556 S
C120 C130 1.476 . S
H121 C115 0.929 . S
C122 O113 1.250 . S
C122 O114 1.258 . S
O123 Mn108 2.162 . S
O123 C111 1.281 . S
O124 Mn108 2.297 . S
O124 C111 1.236 . S
N125 Mn109 2.282 . S
N125 C126 1.328 . S
N125 C130 1.318 . S
C126 N125 1.328 . S
C126 C127 1.457 . S
C126 H131 0.929 . S
C127 C126 1.457 . S
C127 C128 1.291 . S
C127 H140 0.931 . S
C128 C127 1.291 . S
C128 C129 1.373 . S
C128 H141 0.929 . S
C129 C128 1.373 . S
C129 C130 1.396 . S
C129 C136 1.441 . S
C130 C120 1.476 . S
C130 N125 1.318 . S
C130 C129 1.396 . S
H131 C126 0.929 . S
O132 Mn108 2.385 . S
O132 C110 1.234 . S
O133 Mn108 2.209 . S
O133 Mn109 2.215 . S
O133 C110 1.283 . S
O134 Mn108 2.094 . S
O134 C112 1.240 . S
O135 Mn109 2.117 . S
O135 C112 1.264 . S
C136 C129 1.441 . S
C136 C137 1.371 1_556 S
C136 H142 0.920 1_556 S
C137 C117 1.449 . S
C137 C136 1.371 1_554 S
C137 H143 0.930 . S
H138 C118 0.931 . S
H139 C119 0.930 . S
H140 C127 0.931 . S
H141 C128 0.929 . S
H142 C136 0.920 1_554 S
H143 C137 0.930 . S
Mn144 O149 2.095 1_545 S
Mn144 O159 2.162 . S
Mn144 O160 2.297 . S
Mn144 O168 2.385 . S
Mn144 O169 2.209 . S
Mn144 O170 2.094 . S
Mn145 O150 2.121 1_545 S
Mn145 N152 2.257 . S
Mn145 N161 2.282 . S
Mn145 O169 2.215 . S
Mn145 O171 2.117 . S
C146 O168 1.234 . S
C146 O169 1.283 . S
C147 O159 1.281 . S
C147 O160 1.236 . S
C148 O170 1.240 . S
C148 O171 1.264 . S
O149 Mn144 2.095 1_565 S
O149 C158 1.250 . S
O150 Mn145 2.121 1_565 S
O150 C158 1.258 . S
C151 N152 1.326 . S
C151 C155 1.460 . S
C151 H157 0.929 . S
N152 Mn145 2.257 . S
N152 C151 1.326 . S
N152 C156 1.362 . S
C153 C154 1.258 . S
C153 C156 1.431 . S
C153 C173 1.449 . S
C154 C153 1.258 . S
C154 C155 1.477 . S
C154 H174 0.931 . S
C155 C151 1.460 . S
C155 C154 1.477 . S
C155 H175 0.930 . S
C156 N152 1.362 . S
C156 C153 1.431 . S
C156 C166 1.476 . S
H157 C151 0.929 . S
C158 O149 1.250 . S
C158 O150 1.258 . S
O159 Mn144 2.162 . S
O159 C147 1.281 . S
O160 Mn144 2.297 . S
O160 C147 1.236 . S
N161 Mn145 2.282 . S
N161 C162 1.328 . S
N161 C166 1.318 . S
C162 N161 1.328 . S
C162 C163 1.457 . S
C162 H167 0.929 . S
C163 C162 1.457 . S
C163 C164 1.291 . S
C163 H176 0.931 . S
C164 C163 1.291 . S
C164 C165 1.373 . S
C164 H177 0.929 . S
C165 C164 1.373 . S
C165 C166 1.396 . S
C165 C172 1.403 . S
C166 C156 1.476 . S
C166 N161 1.318 . S
C166 C165 1.396 . S
H167 C162 0.929 . S
O168 Mn144 2.385 . S
O168 C146 1.234 . S
O169 Mn144 2.209 . S
O169 Mn145 2.215 . S
O169 C146 1.283 . S
O170 Mn144 2.094 . S
O170 C148 1.240 . S
O171 Mn145 2.117 . S
O171 C148 1.264 . S
C172 C165 1.403 . S
C172 C173 1.399 . S
C172 H178 0.929 . S
C173 C153 1.449 . S
C173 C172 1.399 . S
C173 H179 0.930 . S
H174 C154 0.931 . S
H175 C155 0.930 . S
H176 C163 0.931 . S
H177 C164 0.929 . S
H178 C172 0.929 . S
H179 C173 0.930 . S
Mn180 O185 2.095 . S
Mn180 O195 2.162 . S
Mn180 O196 2.297 . S
Mn180 O204 2.385 . S
Mn180 O205 2.209 . S
Mn180 O206 2.094 . S
Mn181 O186 2.121 . S
Mn181 N188 2.248 1_565 S
Mn181 N197 2.282 . S
Mn181 O205 2.215 . S
Mn181 O207 2.117 . S
C182 O204 1.234 . S
C182 O205 1.283 . S
C183 O195 1.281 . S
C183 O196 1.236 . S
C184 O206 1.240 . S
C184 O207 1.264 . S
O185 Mn180 2.095 . S
O185 C194 1.250 . S
O186 Mn181 2.121 . S
O186 C194 1.258 . S
C187 N188 1.333 . S
C187 C191 1.460 . S
C187 H193 0.929 . S
N188 Mn181 2.248 1_545 S
N188 C187 1.333 . S
N188 C192 1.365 . S
C189 C190 1.258 . S
C189 C192 1.431 . S
C189 C209 1.449 . S
C190 C189 1.258 . S
C190 C191 1.477 . S
C190 H210 0.931 . S
C191 C187 1.460 . S
C191 C190 1.477 . S
C191 H211 0.930 . S
C192 N188 1.365 . S
C192 C189 1.431 . S
C192 C202 1.476 1_545 S
H193 C187 0.929 . S
C194 O185 1.250 . S
C194 O186 1.258 . S
O195 Mn180 2.162 . S
O195 C183 1.281 . S
O196 Mn180 2.297 . S
O196 C183 1.236 . S
N197 Mn181 2.282 . S
N197 C198 1.328 . S
N197 C202 1.318 . S
C198 N197 1.328 . S
C198 C199 1.457 . S
C198 H203 0.929 . S
C199 C198 1.457 . S
C199 C200 1.291 . S
C199 H212 0.931 . S
C200 C199 1.291 . S
C200 C201 1.373 . S
C200 H213 0.929 . S
C201 C200 1.373 . S
C201 C202 1.396 . S
C201 C208 1.403 1_565 S
C202 C192 1.476 1_565 S
C202 N197 1.318 . S
C202 C201 1.396 . S
H203 C198 0.929 . S
O204 Mn180 2.385 . S
O204 C182 1.234 . S
O205 Mn180 2.209 . S
O205 Mn181 2.215 . S
O205 C182 1.283 . S
O206 Mn180 2.094 . S
O206 C184 1.240 . S
O207 Mn181 2.117 . S
O207 C184 1.264 . S
C208 C201 1.403 1_545 S
C208 C209 1.399 . S
C208 H214 0.929 . S
C209 C189 1.449 . S
C209 C208 1.399 . S
C209 H215 0.930 . S
H210 C190 0.931 . S
H211 C191 0.930 . S
H212 C199 0.931 . S
H213 C200 0.929 . S
H214 C208 0.929 . S
H215 C209 0.930 . S
Mn216 O221 2.095 . S
Mn216 O231 2.162 . S
Mn216 O232 2.297 . S
Mn216 O240 2.385 1_545 S
Mn216 O241 2.209 1_545 S
Mn216 O242 2.094 . S
Mn217 O222 2.121 . S
Mn217 N224 2.257 1_545 S
Mn217 N233 2.282 1_545 S
Mn217 O241 2.215 1_545 S
Mn217 O243 2.117 . S
C218 O240 1.234 . S
C218 O241 1.283 . S
C219 O231 1.281 . S
C219 O232 1.236 . S
C220 O242 1.240 . S
C220 O243 1.264 . S
O221 Mn216 2.095 . S
O221 C230 1.250 . S
O222 Mn217 2.121 . S
O222 C230 1.258 . S
C223 N224 1.326 1_545 S
C223 C227 1.460 . S
C223 H229 0.929 . S
N224 Mn217 2.257 1_565 S
N224 C223 1.326 1_565 S
N224 C228 1.362 . S
C225 C226 1.258 . S
C225 C228 1.431 . S
C225 C245 1.449 . S
C226 C225 1.258 . S
C226 C227 1.477 1_565 S
C226 H246 0.931 . S
C227 C223 1.460 . S
C227 C226 1.477 1_545 S
C227 H247 0.930 . S
C228 N224 1.362 . S
C228 C225 1.431 . S
C228 C238 1.476 . S
H229 C223 0.929 . S
C230 O221 1.250 . S
C230 O222 1.258 . S
O231 Mn216 2.162 . S
O231 C219 1.281 . S
O232 Mn216 2.297 . S
O232 C219 1.236 . S
N233 Mn217 2.282 1_565 S
N233 C234 1.328 . S
N233 C238 1.318 . S
C234 N233 1.328 . S
C234 C235 1.457 . S
C234 H239 0.929 . S
C235 C234 1.457 . S
C235 C236 1.291 . S
C235 H248 0.931 . S
C236 C235 1.291 . S
C236 C237 1.373 . S
C236 H249 0.929 . S
C237 C236 1.373 . S
C237 C238 1.396 . S
C237 C244 1.403 . S
C238 C228 1.476 . S
C238 N233 1.318 . S
C238 C237 1.396 . S
H239 C234 0.929 . S
O240 Mn216 2.385 1_565 S
O240 C218 1.234 . S
O241 Mn216 2.209 1_565 S
O241 Mn217 2.215 1_565 S
O241 C218 1.283 . S
O242 Mn216 2.094 . S
O242 C220 1.240 . S
O243 Mn217 2.117 . S
O243 C220 1.264 . S
C244 C237 1.403 . S
C244 C245 1.399 . S
C244 H250 0.929 . S
C245 C225 1.449 . S
C245 C244 1.399 . S
C245 H251 0.930 . S
H246 C226 0.931 . S
H247 C227 0.930 . S
H248 C235 0.931 . S
H249 C236 0.929 . S
H250 C244 0.929 . S
H251 C245 0.930 . S
Mn252 O257 2.095 . S
Mn252 O267 2.162 . S
Mn252 O268 2.297 . S
Mn252 O276 2.385 . S
Mn252 O277 2.209 . S
Mn252 O278 2.094 1_554 S
Mn253 O258 2.121 1_556 S
Mn253 N260 2.257 . S
Mn253 N269 2.282 . S
Mn253 O277 2.215 1_556 S
Mn253 O279 2.117 . S
C254 O276 1.234 . S
C254 O277 1.283 . S
C255 O267 1.281 . S
C255 O268 1.236 . S
C256 O278 1.240 . S
C256 O279 1.264 . S
O257 Mn252 2.095 . S
O257 C266 1.250 . S
O258 Mn253 2.121 1_554 S
O258 C266 1.258 . S
C259 N260 1.326 1_554 S
C259 C263 1.460 1_545 S
C259 H265 0.929 . S
N260 Mn253 2.257 . S
N260 C259 1.326 1_556 S
N260 C264 1.362 . S
C261 C262 1.258 . S
C261 C264 1.431 1_565 S
C261 C281 1.449 . S
C262 C261 1.258 . S
C262 C263 1.477 1_556 S
C262 H282 0.931 . S
C263 C259 1.460 1_565 S
C263 C262 1.477 1_554 S
C263 H283 0.930 . S
C264 N260 1.362 . S
C264 C261 1.431 1_545 S
C264 C274 1.476 . S
H265 C259 0.929 . S
C266 O257 1.250 . S
C266 O258 1.258 . S
O267 Mn252 2.162 . S
O267 C255 1.281 . S
O268 Mn252 2.297 . S
O268 C255 1.236 . S
N269 Mn253 2.282 . S
N269 C270 1.328 . S
N269 C274 1.318 . S
C270 N269 1.328 . S
C270 C271 1.457 . S
C270 H275 0.929 . S
C271 C270 1.457 . S
C271 C272 1.291 . S
C271 H284 0.931 . S
C272 C271 1.291 . S
C272 C273 1.373 . S
C272 H285 0.929 . S
C273 C272 1.373 . S
C273 C274 1.396 . S
C273 C280 1.441 . S
C274 C264 1.476 . S
C274 N269 1.318 . S
C274 C273 1.396 . S
H275 C270 0.929 . S
O276 Mn252 2.385 . S
O276 C254 1.234 . S
O277 Mn252 2.209 . S
O277 Mn253 2.215 1_554 S
O277 C254 1.283 . S
O278 Mn252 2.094 1_556 S
O278 C256 1.240 . S
O279 Mn253 2.117 . S
O279 C256 1.264 . S
C280 C273 1.441 . S
C280 C281 1.371 1_545 S
C280 H286 0.921 1_545 S
C281 C261 1.449 . S
C281 C280 1.371 1_565 S
C281 H287 0.930 . S
H282 C262 0.931 . S
H283 C263 0.930 . S
H284 C271 0.931 . S
H285 C272 0.929 . S
H286 C280 0.921 1_565 S
H287 C281 0.930 . S
Mn288 O293 2.095 . S
Mn288 O303 2.162 . S
Mn288 O304 2.297 . S
Mn288 O312 2.385 . S
Mn288 O313 2.209 . S
Mn288 O314 2.094 . S
Mn289 O294 2.121 . S
Mn289 N296 2.257 . S
Mn289 N305 2.269 1_554 S
Mn289 O313 2.215 . S
Mn289 O315 2.117 . S
C290 O312 1.234 . S
C290 O313 1.283 . S
C291 O303 1.281 . S
C291 O304 1.236 . S
C292 O314 1.240 . S
C292 O315 1.264 . S
O293 Mn288 2.095 . S
O293 C302 1.250 . S
O294 Mn289 2.121 . S
O294 C302 1.258 . S
C295 N296 1.326 . S
C295 C299 1.460 . S
C295 H301 0.929 . S
N296 Mn289 2.257 . S
N296 C295 1.326 . S
N296 C300 1.362 . S
C297 C298 1.258 . S
C297 C300 1.431 . S
C297 C317 1.449 . S
C298 C297 1.258 . S
C298 C299 1.477 . S
C298 H318 0.931 . S
C299 C295 1.460 . S
C299 C298 1.477 . S
C299 H319 0.930 . S
C300 N296 1.362 . S
C300 C297 1.431 . S
C300 C310 1.492 . S
H301 C295 0.929 . S
C302 O293 1.250 . S
C302 O294 1.258 . S
O303 Mn288 2.162 . S
O303 C291 1.281 . S
O304 Mn288 2.297 . S
O304 C291 1.236 . S
N305 Mn289 2.269 1_556 S
N305 C306 1.340 . S
N305 C310 1.317 1_556 S
C306 N305 1.340 . S
C306 C307 1.457 . S
C306 H311 0.929 . S
C307 C306 1.457 . S
C307 C308 1.291 . S
C307 H320 0.931 . S
C308 C307 1.291 . S
C308 C309 1.373 . S
C308 H321 0.929 . S
C309 C308 1.373 . S
C309 C310 1.383 1_556 S
C309 C316 1.403 . S
C310 C300 1.492 . S
C310 N305 1.317 1_554 S
C310 C309 1.383 1_554 S
H311 C306 0.929 . S
O312 Mn288 2.385 . S
O312 C290 1.234 . S
O313 Mn288 2.209 . S
O313 Mn289 2.215 . S
O313 C290 1.283 . S
O314 Mn288 2.094 . S
O314 C292 1.240 . S
O315 Mn289 2.117 . S
O315 C292 1.264 . S
C316 C309 1.403 . S
C316 C317 1.399 1_556 S
C316 H322 0.929 . S
C317 C297 1.449 . S
C317 C316 1.399 1_554 S
C317 H323 0.930 . S
H318 C298 0.931 . S
H319 C299 0.930 . S
H320 C307 0.931 . S
H321 C308 0.929 . S
H322 C316 0.929 . S
H323 C317 0.930 . S
Mn324 O329 2.095 . S
Mn324 O339 2.162 . S
Mn324 O340 2.297 . S
Mn324 O348 2.385 . S
Mn324 O349 2.209 . S
Mn324 O350 2.094 . S
Mn325 O330 2.121 . S
Mn325 N332 2.257 . S
Mn325 N341 2.282 . S
Mn325 O349 2.215 . S
Mn325 O351 2.117 . S
C326 O348 1.234 . S
C326 O349 1.283 . S
C327 O339 1.281 . S
C327 O340 1.236 . S
C328 O350 1.240 . S
C328 O351 1.264 . S
O329 Mn324 2.095 . S
O329 C338 1.250 . S
O330 Mn325 2.121 . S
O330 C338 1.258 . S
C331 N332 1.326 . S
C331 C335 1.460 . S
C331 H337 0.929 . S
N332 Mn325 2.257 . S
N332 C331 1.326 . S
N332 C336 1.362 . S
C333 C334 1.258 . S
C333 C336 1.431 . S
C333 C353 1.449 . S
C334 C333 1.258 . S
C334 C335 1.477 . S
C334 H354 0.931 . S
C335 C331 1.460 . S
C335 C334 1.477 . S
C335 H355 0.930 . S
C336 N332 1.362 . S
C336 C333 1.431 . S
C336 C346 1.476 . S
H337 C331 0.929 . S
C338 O329 1.250 . S
C338 O330 1.258 . S
O339 Mn324 2.162 . S
O339 C327 1.281 . S
O340 Mn324 2.297 . S
O340 C327 1.236 . S
N341 Mn325 2.282 . S
N341 C342 1.328 . S
N341 C346 1.318 . S
C342 N341 1.328 . S
C342 C343 1.457 . S
C342 H347 0.929 . S
C343 C342 1.457 . S
C343 C344 1.291 . S
C343 H356 0.931 . S
C344 C343 1.291 . S
C344 C345 1.373 . S
C344 H357 0.929 . S
C345 C344 1.373 . S
C345 C346 1.396 . S
C345 C352 1.403 . S
C346 C336 1.476 . S
C346 N341 1.318 . S
C346 C345 1.396 . S
H347 C342 0.929 . S
O348 Mn324 2.385 . S
O348 C326 1.234 . S
O349 Mn324 2.209 . S
O349 Mn325 2.215 . S
O349 C326 1.283 . S
O350 Mn324 2.094 . S
O350 C328 1.240 . S
O351 Mn325 2.117 . S
O351 C328 1.264 . S
C352 C345 1.403 . S
C352 C353 1.399 . S
C352 H358 0.929 . S
C353 C333 1.449 . S
C353 C352 1.399 . S
C353 H359 0.930 . S
H354 C334 0.931 . S
H355 C335 0.930 . S
H356 C343 0.931 . S
H357 C344 0.929 . S
H358 C352 0.929 . S
H359 C353 0.930 . S
Mn360 O365 2.095 . S
Mn360 O375 2.162 . S
Mn360 O376 2.297 . S
Mn360 O384 2.385 . S
Mn360 O385 2.209 . S
Mn360 O386 2.094 . S
Mn361 O366 2.121 . S
Mn361 N368 2.257 . S
Mn361 N377 2.282 . S
Mn361 O385 2.215 . S
Mn361 O387 2.117 . S
C362 O384 1.234 . S
C362 O385 1.283 . S
C363 O375 1.281 . S
C363 O376 1.236 . S
C364 O386 1.240 . S
C364 O387 1.264 . S
O365 Mn360 2.095 . S
O365 C374 1.250 . S
O366 Mn361 2.121 . S
O366 C374 1.258 . S
C367 N368 1.326 . S
C367 C371 1.460 . S
C367 H373 0.929 . S
N368 Mn361 2.257 . S
N368 C367 1.326 . S
N368 C372 1.362 . S
C369 C370 1.258 . S
C369 C372 1.431 . S
C369 C389 1.449 . S
C370 C369 1.258 . S
C370 C371 1.477 . S
C370 H390 0.931 . S
C371 C367 1.460 . S
C371 C370 1.477 . S
C371 H391 0.930 . S
C372 N368 1.362 . S
C372 C369 1.431 . S
C372 C382 1.476 . S
H373 C367 0.929 . S
C374 O365 1.250 . S
C374 O366 1.258 . S
O375 Mn360 2.162 . S
O375 C363 1.281 . S
O376 Mn360 2.297 . S
O376 C363 1.236 . S
N377 Mn361 2.282 . S
N377 C378 1.328 . S
N377 C382 1.318 . S
C378 N377 1.328 . S
C378 C379 1.457 . S
C378 H383 0.929 . S
C379 C378 1.457 . S
C379 C380 1.291 . S
C379 H392 0.931 . S
C380 C379 1.291 . S
C380 C381 1.373 . S
C380 H393 0.929 . S
C381 C380 1.373 . S
C381 C382 1.396 . S
C381 C388 1.403 . S
C382 C372 1.476 . S
C382 N377 1.318 . S
C382 C381 1.396 . S
H383 C378 0.929 . S
O384 Mn360 2.385 . S
O384 C362 1.234 . S
O385 Mn360 2.209 . S
O385 Mn361 2.215 . S
O385 C362 1.283 . S
O386 Mn360 2.094 . S
O386 C364 1.240 . S
O387 Mn361 2.117 . S
O387 C364 1.264 . S
C388 C381 1.403 . S
C388 C389 1.399 . S
C388 H394 0.929 . S
C389 C369 1.449 . S
C389 C388 1.399 . S
C389 H395 0.930 . S
H390 C370 0.931 . S
H391 C371 0.930 . S
H392 C379 0.931 . S
H393 C380 0.929 . S
H394 C388 0.929 . S
H395 C389 0.930 . S
Mn396 O401 2.095 . S
Mn396 O411 2.162 . S
Mn396 O412 2.297 . S
Mn396 O420 2.385 . S
Mn396 O421 2.209 . S
Mn396 O422 2.094 . S
Mn397 O402 2.121 . S
Mn397 N404 2.257 . S
Mn397 N413 2.282 . S
Mn397 O421 2.215 . S
Mn397 O423 2.117 . S
C398 O420 1.234 . S
C398 O421 1.283 . S
C399 O411 1.281 . S
C399 O412 1.236 . S
C400 O422 1.240 . S
C400 O423 1.264 . S
O401 Mn396 2.095 . S
O401 C410 1.250 . S
O402 Mn397 2.121 . S
O402 C410 1.258 . S
C403 N404 1.326 . S
C403 C407 1.460 . S
C403 H409 0.929 . S
N404 Mn397 2.257 . S
N404 C403 1.326 . S
N404 C408 1.362 . S
C405 C406 1.258 . S
C405 C408 1.431 . S
C405 C425 1.449 . S
C406 C405 1.258 . S
C406 C407 1.477 . S
C406 H426 0.931 . S
C407 C403 1.460 . S
C407 C406 1.477 . S
C407 H427 0.930 . S
C408 N404 1.362 . S
C408 C405 1.431 . S
C408 C418 1.476 . S
H409 C403 0.929 . S
C410 O401 1.250 . S
C410 O402 1.258 . S
O411 Mn396 2.162 . S
O411 C399 1.281 . S
O412 Mn396 2.297 . S
O412 C399 1.236 . S
N413 Mn397 2.282 . S
N413 C414 1.328 . S
N413 C418 1.318 . S
C414 N413 1.328 . S
C414 C415 1.457 . S
C414 H419 0.929 . S
C415 C414 1.457 . S
C415 C416 1.291 . S
C415 H428 0.931 . S
C416 C415 1.291 . S
C416 C417 1.373 . S
C416 H429 0.929 . S
C417 C416 1.373 . S
C417 C418 1.396 . S
C417 C424 1.403 . S
C418 C408 1.476 . S
C418 N413 1.318 . S
C418 C417 1.396 . S
H419 C414 0.929 . S
O420 Mn396 2.385 . S
O420 C398 1.234 . S
O421 Mn396 2.209 . S
O421 Mn397 2.215 . S
O421 C398 1.283 . S
O422 Mn396 2.094 . S
O422 C400 1.240 . S
O423 Mn397 2.117 . S
O423 C400 1.264 . S
C424 C417 1.403 . S
C424 C425 1.399 . S
C424 H430 0.929 . S
C425 C405 1.449 . S
C425 C424 1.399 . S
C425 H431 0.930 . S
H426 C406 0.931 . S
H427 C407 0.930 . S
H428 C415 0.931 . S
H429 C416 0.929 . S
H430 C424 0.929 . S
H431 C425 0.930 . S
Mn432 O437 2.095 1_455 S
Mn432 O447 2.162 . S
Mn432 O448 2.297 . S
Mn432 O456 2.385 . S
Mn432 O457 2.209 1_455 S
Mn432 O458 2.094 1_455 S
Mn433 O438 2.121 . S
Mn433 N440 2.257 . S
Mn433 N449 2.282 . S
Mn433 O457 2.215 . S
Mn433 O459 2.117 . S
C434 O456 1.234 . S
C434 O457 1.283 1_455 S
C435 O447 1.281 . S
C435 O448 1.236 . S
C436 O458 1.240 . S
C436 O459 1.264 . S
O437 Mn432 2.095 1_655 S
O437 C446 1.250 . S
O438 Mn433 2.121 . S
O438 C446 1.258 . S
C439 N440 1.326 . S
C439 C443 1.460 1_556 S
C439 H445 0.929 . S
N440 Mn433 2.257 . S
N440 C439 1.326 . S
N440 C444 1.362 . S
C441 C442 1.258 . S
C441 C444 1.431 1_554 S
C441 C461 1.449 . S
C442 C441 1.258 . S
C442 C443 1.477 . S
C442 H462 0.931 . S
C443 C439 1.460 1_554 S
C443 C442 1.477 . S
C443 H463 0.930 . S
C444 N440 1.362 . S
C444 C441 1.431 1_556 S
C444 C454 1.476 . S
H445 C439 0.929 . S
C446 O437 1.250 . S
C446 O438 1.258 . S
O447 Mn432 2.162 . S
O447 C435 1.281 . S
O448 Mn432 2.297 . S
O448 C435 1.236 . S
N449 Mn433 2.282 . S
N449 C450 1.328 . S
N449 C454 1.318 . S
C450 N449 1.328 . S
C450 C451 1.457 . S
C450 H455 0.929 . S
C451 C450 1.457 . S
C451 C452 1.291 . S
C451 H464 0.931 . S
C452 C451 1.291 . S
C452 C453 1.373 . S
C452 H465 0.929 . S
C453 C452 1.373 . S
C453 C454 1.396 . S
C453 C460 1.403 . S
C454 C444 1.476 . S
C454 N449 1.318 . S
C454 C453 1.396 . S
H455 C450 0.929 . S
O456 Mn432 2.385 . S
O456 C434 1.234 . S
O457 Mn432 2.209 1_655 S
O457 Mn433 2.215 . S
O457 C434 1.283 1_655 S
O458 Mn432 2.094 1_655 S
O458 C436 1.240 . S
O459 Mn433 2.117 . S
O459 C436 1.264 . S
C460 C453 1.403 . S
C460 C461 1.399 1_556 S
C460 H466 0.929 . S
C461 C441 1.449 . S
C461 C460 1.399 1_554 S
C461 H467 0.930 . S
H462 C442 0.931 . S
H463 C443 0.930 . S
H464 C451 0.931 . S
H465 C452 0.929 . S
H466 C460 0.929 . S
H467 C461 0.930 . S
Mn468 O473 2.095 . S
Mn468 O483 2.162 . S
Mn468 O484 2.297 . S
Mn468 O492 2.385 . S
Mn468 O493 2.209 . S
Mn468 O494 2.094 . S
Mn469 O474 2.121 1_655 S
Mn469 N476 2.257 . S
Mn469 N485 2.282 . S
Mn469 O493 2.215 1_655 S
Mn469 O495 2.117 . S
C470 O492 1.234 . S
C470 O493 1.283 . S
C471 O483 1.281 . S
C471 O484 1.236 . S
C472 O494 1.240 1_655 S
C472 O495 1.264 . S
O473 Mn468 2.095 . S
O473 C482 1.250 . S
O474 Mn469 2.121 1_455 S
O474 C482 1.258 . S
C475 N476 1.326 1_455 S
C475 C479 1.460 . S
C475 H481 0.929 . S
N476 Mn469 2.257 . S
N476 C475 1.326 1_655 S
N476 C480 1.362 . S
C477 C478 1.258 . S
C477 C480 1.431 . S
C477 C497 1.449 . S
C478 C477 1.258 . S
C478 C479 1.477 1_655 S
C478 H498 0.931 . S
C479 C475 1.460 . S
C479 C478 1.477 1_455 S
C479 H499 0.930 . S
C480 N476 1.362 . S
C480 C477 1.431 . S
C480 C490 1.476 . S
H481 C475 0.929 . S
C482 O473 1.250 . S
C482 O474 1.258 . S
O483 Mn468 2.162 . S
O483 C471 1.281 . S
O484 Mn468 2.297 . S
O484 C471 1.236 . S
N485 Mn469 2.282 . S
N485 C486 1.328 . S
N485 C490 1.318 . S
C486 N485 1.328 . S
C486 C487 1.457 . S
C486 H491 0.929 . S
C487 C486 1.457 . S
C487 C488 1.291 . S
C487 H500 0.931 . S
C488 C487 1.291 . S
C488 C489 1.373 . S
C488 H501 0.929 . S
C489 C488 1.373 . S
C489 C490 1.396 . S
C489 C496 1.403 . S
C490 C480 1.476 . S
C490 N485 1.318 . S
C490 C489 1.396 . S
H491 C486 0.929 . S
O492 Mn468 2.385 . S
O492 C470 1.234 . S
O493 Mn468 2.209 . S
O493 Mn469 2.215 1_455 S
O493 C470 1.283 . S
O494 Mn468 2.094 . S
O494 C472 1.240 1_455 S
O495 Mn469 2.117 . S
O495 C472 1.264 . S
C496 C489 1.403 . S
C496 C497 1.399 . S
C496 H502 0.929 . S
C497 C477 1.449 . S
C497 C496 1.399 . S
C497 H503 0.930 . S
H498 C478 0.931 . S
H499 C479 0.930 . S
H500 C487 0.931 . S
H501 C488 0.929 . S
H502 C496 0.929 . S
H503 C497 0.930 . S
Mn504 O509 2.095 . S
Mn504 O519 2.162 . S
Mn504 O520 2.297 . S
Mn504 O528 2.385 . S
Mn504 O529 2.209 . S
Mn504 O530 2.094 . S
Mn505 O510 2.121 . S
Mn505 N512 2.257 . S
Mn505 N521 2.282 . S
Mn505 O529 2.215 . S
Mn505 O531 2.117 . S
C506 O528 1.234 . S
C506 O529 1.283 . S
C507 O519 1.281 . S
C507 O520 1.236 . S
C508 O530 1.240 . S
C508 O531 1.264 . S
O509 Mn504 2.095 . S
O509 C518 1.250 . S
O510 Mn505 2.121 . S
O510 C518 1.258 . S
C511 N512 1.326 . S
C511 C515 1.460 . S
C511 H517 0.929 . S
N512 Mn505 2.257 . S
N512 C511 1.326 . S
N512 C516 1.362 . S
C513 C514 1.258 . S
C513 C516 1.431 . S
C513 C533 1.449 . S
C514 C513 1.258 . S
C514 C515 1.477 . S
C514 H534 0.931 . S
C515 C511 1.460 . S
C515 C514 1.477 . S
C515 H535 0.930 . S
C516 N512 1.362 . S
C516 C513 1.431 . S
C516 C526 1.476 . S
H517 C511 0.929 . S
C518 O509 1.250 . S
C518 O510 1.258 . S
O519 Mn504 2.162 . S
O519 C507 1.281 . S
O520 Mn504 2.297 . S
O520 C507 1.236 . S
N521 Mn505 2.282 . S
N521 C522 1.328 . S
N521 C526 1.318 . S
C522 N521 1.328 . S
C522 C523 1.457 . S
C522 H527 0.929 . S
C523 C522 1.457 . S
C523 C524 1.291 . S
C523 H536 0.931 . S
C524 C523 1.291 . S
C524 C525 1.373 . S
C524 H537 0.929 . S
C525 C524 1.373 . S
C525 C526 1.396 . S
C525 C532 1.403 . S
C526 C516 1.476 . S
C526 N521 1.318 . S
C526 C525 1.396 . S
H527 C522 0.929 . S
O528 Mn504 2.385 . S
O528 C506 1.234 . S
O529 Mn504 2.209 . S
O529 Mn505 2.215 . S
O529 C506 1.283 . S
O530 Mn504 2.094 . S
O530 C508 1.240 . S
O531 Mn505 2.117 . S
O531 C508 1.264 . S
C532 C525 1.403 . S
C532 C533 1.399 . S
C532 H538 0.929 . S
C533 C513 1.449 . S
C533 C532 1.399 . S
C533 H539 0.930 . S
H534 C514 0.931 . S
H535 C515 0.930 . S
H536 C523 0.931 . S
H537 C524 0.929 . S
H538 C532 0.929 . S
H539 C533 0.930 . S
Mn540 O545 2.095 . S
Mn540 O555 2.162 . S
Mn540 O556 2.297 . S
Mn540 O564 2.385 . S
Mn540 O565 2.209 . S
Mn540 O566 2.094 . S
Mn541 O546 2.121 . S
Mn541 N548 2.257 . S
Mn541 N557 2.282 . S
Mn541 O565 2.215 . S
Mn541 O567 2.117 . S
C542 O564 1.234 . S
C542 O565 1.283 . S
C543 O555 1.281 . S
C543 O556 1.236 . S
C544 O566 1.240 . S
C544 O567 1.264 . S
O545 Mn540 2.095 . S
O545 C554 1.250 . S
O546 Mn541 2.121 . S
O546 C554 1.258 . S
C547 N548 1.326 . S
C547 C551 1.460 . S
C547 H553 0.929 . S
N548 Mn541 2.257 . S
N548 C547 1.326 . S
N548 C552 1.362 . S
C549 C550 1.258 . S
C549 C552 1.431 . S
C549 C569 1.449 . S
C550 C549 1.258 . S
C550 C551 1.477 . S
C550 H570 0.931 . S
C551 C547 1.460 . S
C551 C550 1.477 . S
C551 H571 0.930 . S
C552 N548 1.362 . S
C552 C549 1.431 . S
C552 C562 1.476 . S
H553 C547 0.929 . S
C554 O545 1.250 . S
C554 O546 1.258 . S
O555 Mn540 2.162 . S
O555 C543 1.281 . S
O556 Mn540 2.297 . S
O556 C543 1.236 . S
N557 Mn541 2.282 . S
N557 C558 1.328 . S
N557 C562 1.318 . S
C558 N557 1.328 . S
C558 C559 1.457 . S
C558 H563 0.929 . S
C559 C558 1.457 . S
C559 C560 1.291 . S
C559 H572 0.931 . S
C560 C559 1.291 . S
C560 C561 1.373 . S
C560 H573 0.929 . S
C561 C560 1.373 . S
C561 C562 1.396 . S
C561 C568 1.403 . S
C562 C552 1.476 . S
C562 N557 1.318 . S
C562 C561 1.396 . S
H563 C558 0.929 . S
O564 Mn540 2.385 . S
O564 C542 1.234 . S
O565 Mn540 2.209 . S
O565 Mn541 2.215 . S
O565 C542 1.283 . S
O566 Mn540 2.094 . S
O566 C544 1.240 . S
O567 Mn541 2.117 . S
O567 C544 1.264 . S
C568 C561 1.403 . S
C568 C569 1.399 . S
C568 H574 0.929 . S
C569 C549 1.449 . S
C569 C568 1.399 . S
C569 H575 0.930 . S
H570 C550 0.931 . S
H571 C551 0.930 . S
H572 C559 0.931 . S
H573 C560 0.929 . S
H574 C568 0.929 . S
H575 C569 0.930 . S
Mn576 O581 2.095 . S
Mn576 O591 2.162 . S
Mn576 O592 2.297 . S
Mn576 O600 2.385 1_545 S
Mn576 O601 2.209 1_545 S
Mn576 O602 2.094 . S
Mn577 O582 2.121 . S
Mn577 N584 2.257 1_545 S
Mn577 N593 2.282 1_545 S
Mn577 O601 2.215 1_545 S
Mn577 O603 2.117 . S
C578 O600 1.234 . S
C578 O601 1.283 . S
C579 O591 1.281 . S
C579 O592 1.236 . S
C580 O602 1.240 . S
C580 O603 1.264 . S
O581 Mn576 2.095 . S
O581 C590 1.250 . S
O582 Mn577 2.121 . S
O582 C590 1.258 . S
C583 N584 1.326 1_545 S
C583 C587 1.460 . S
C583 H589 0.929 . S
N584 Mn577 2.257 1_565 S
N584 C583 1.326 1_565 S
N584 C588 1.362 . S
C585 C586 1.258 . S
C585 C588 1.431 . S
C585 C605 1.449 . S
C586 C585 1.258 . S
C586 C587 1.477 1_565 S
C586 H606 0.931 . S
C587 C583 1.460 . S
C587 C586 1.477 1_545 S
C587 H607 0.930 . S
C588 N584 1.362 . S
C588 C585 1.431 . S
C588 C598 1.476 . S
H589 C583 0.929 . S
C590 O581 1.250 . S
C590 O582 1.258 . S
O591 Mn576 2.162 . S
O591 C579 1.281 . S
O592 Mn576 2.297 . S
O592 C579 1.236 . S
N593 Mn577 2.282 1_565 S
N593 C594 1.328 . S
N593 C598 1.318 . S
C594 N593 1.328 . S
C594 C595 1.457 . S
C594 H599 0.929 . S
C595 C594 1.457 . S
C595 C596 1.291 . S
C595 H608 0.931 . S
C596 C595 1.291 . S
C596 C597 1.373 . S
C596 H609 0.929 . S
C597 C596 1.373 . S
C597 C598 1.396 . S
C597 C604 1.403 . S
C598 C588 1.476 . S
C598 N593 1.318 . S
C598 C597 1.396 . S
H599 C594 0.929 . S
O600 Mn576 2.385 1_565 S
O600 C578 1.234 . S
O601 Mn576 2.209 1_565 S
O601 Mn577 2.215 1_565 S
O601 C578 1.283 . S
O602 Mn576 2.094 . S
O602 C580 1.240 . S
O603 Mn577 2.117 . S
O603 C580 1.264 . S
C604 C597 1.403 . S
C604 C605 1.399 . S
C604 H610 0.929 . S
C605 C585 1.449 . S
C605 C604 1.399 . S
C605 H611 0.930 . S
H606 C586 0.931 . S
H607 C587 0.930 . S
H608 C595 0.931 . S
H609 C596 0.929 . S
H610 C604 0.929 . S
H611 C605 0.930 . S
Mn612 O617 2.095 . S
Mn612 O627 2.162 . S
Mn612 O628 2.297 . S
Mn612 O636 2.385 . S
Mn612 O637 2.209 . S
Mn612 O638 2.094 . S
Mn613 O618 2.121 . S
Mn613 N620 2.257 . S
Mn613 N629 2.282 . S
Mn613 O637 2.215 . S
Mn613 O639 2.117 . S
C614 O636 1.234 . S
C614 O637 1.283 . S
C615 O627 1.281 . S
C615 O628 1.236 . S
C616 O638 1.240 . S
C616 O639 1.264 . S
O617 Mn612 2.095 . S
O617 C626 1.250 . S
O618 Mn613 2.121 . S
O618 C626 1.258 . S
C619 N620 1.326 . S
C619 C623 1.460 1_545 S
C619 H625 0.929 . S
N620 Mn613 2.257 . S
N620 C619 1.326 . S
N620 C624 1.362 . S
C621 C622 1.258 . S
C621 C624 1.431 1_565 S
C621 C641 1.449 . S
C622 C621 1.258 . S
C622 C623 1.477 . S
C622 H642 0.931 . S
C623 C619 1.460 1_565 S
C623 C622 1.477 . S
C623 H643 0.930 . S
C624 N620 1.362 . S
C624 C621 1.431 1_545 S
C624 C634 1.476 . S
H625 C619 0.929 . S
C626 O617 1.250 . S
C626 O618 1.258 . S
O627 Mn612 2.162 . S
O627 C615 1.281 . S
O628 Mn612 2.297 . S
O628 C615 1.236 . S
N629 Mn613 2.282 . S
N629 C630 1.328 . S
N629 C634 1.318 . S
C630 N629 1.328 . S
C630 C631 1.457 . S
C630 H635 0.929 . S
C631 C630 1.457 . S
C631 C632 1.291 . S
C631 H644 0.931 . S
C632 C631 1.291 . S
C632 C633 1.373 . S
C632 H645 0.929 . S
C633 C632 1.373 . S
C633 C634 1.396 . S
C633 C640 1.403 . S
C634 C624 1.476 . S
C634 N629 1.318 . S
C634 C633 1.396 . S
H635 C630 0.929 . S
O636 Mn612 2.385 . S
O636 C614 1.234 . S
O637 Mn612 2.209 . S
O637 Mn613 2.215 . S
O637 C614 1.283 . S
O638 Mn612 2.094 . S
O638 C616 1.240 . S
O639 Mn613 2.117 . S
O639 C616 1.264 . S
C640 C633 1.403 . S
C640 C641 1.399 1_545 S
C640 H646 0.936 . S
C641 C621 1.449 . S
C641 C640 1.399 1_565 S
C641 H647 0.930 . S
H642 C622 0.931 . S
H643 C623 0.930 . S
H644 C631 0.931 . S
H645 C632 0.929 . S
H646 C640 0.936 . S
H647 C641 0.930 . S
Mn648 O653 2.095 1_545 S
Mn648 O663 2.162 . S
Mn648 O664 2.297 . S
Mn648 O672 2.385 . S
Mn648 O673 2.209 . S
Mn648 O674 2.094 . S
Mn649 O654 2.121 1_545 S
Mn649 N656 2.257 . S
Mn649 N665 2.282 . S
Mn649 O673 2.215 . S
Mn649 O675 2.117 . S
C650 O672 1.234 . S
C650 O673 1.283 . S
C651 O663 1.281 . S
C651 O664 1.236 . S
C652 O674 1.240 . S
C652 O675 1.264 . S
O653 Mn648 2.095 1_565 S
O653 C662 1.250 . S
O654 Mn649 2.121 1_565 S
O654 C662 1.258 . S
C655 N656 1.326 . S
C655 C659 1.460 . S
C655 H661 0.929 1_545 S
N656 Mn649 2.257 . S
N656 C655 1.326 . S
N656 C660 1.362 . S
C657 C658 1.258 . S
C657 C660 1.431 . S
C657 C677 1.449 . S
C658 C657 1.258 . S
C658 C659 1.477 . S
C658 H678 0.931 . S
C659 C655 1.460 . S
C659 C658 1.477 . S
C659 H679 0.930 . S
C660 N656 1.362 . S
C660 C657 1.431 . S
C660 C670 1.476 . S
H661 C655 0.929 1_565 S
C662 O653 1.250 . S
C662 O654 1.258 . S
O663 Mn648 2.162 . S
O663 C651 1.281 . S
O664 Mn648 2.297 . S
O664 C651 1.236 . S
N665 Mn649 2.282 . S
N665 C666 1.328 . S
N665 C670 1.318 . S
C666 N665 1.328 . S
C666 C667 1.457 . S
C666 H671 0.929 . S
C667 C666 1.457 . S
C667 C668 1.291 . S
C667 H680 0.931 . S
C668 C667 1.291 . S
C668 C669 1.373 . S
C668 H681 0.929 . S
C669 C668 1.373 . S
C669 C670 1.396 . S
C669 C676 1.403 . S
C670 C660 1.476 . S
C670 N665 1.318 . S
C670 C669 1.396 . S
H671 C666 0.929 . S
O672 Mn648 2.385 . S
O672 C650 1.234 . S
O673 Mn648 2.209 . S
O673 Mn649 2.215 . S
O673 C650 1.283 . S
O674 Mn648 2.094 . S
O674 C652 1.240 . S
O675 Mn649 2.117 . S
O675 C652 1.264 . S
C676 C669 1.403 . S
C676 C677 1.399 . S
C676 H682 0.929 . S
C677 C657 1.449 . S
C677 C676 1.399 . S
C677 H683 0.930 . S
H678 C658 0.931 . S
H679 C659 0.930 . S
H680 C667 0.931 . S
H681 C668 0.929 . S
H682 C676 0.929 . S
H683 C677 0.930 . S
Mn684 O689 2.095 . S
Mn684 O699 2.162 . S
Mn684 O700 2.297 . S
Mn684 O708 2.385 . S
Mn684 O709 2.209 . S
Mn684 O710 2.094 1_554 S
Mn685 O690 2.121 1_556 S
Mn685 N692 2.257 1_565 S
Mn685 N701 2.282 . S
Mn685 O709 2.215 1_556 S
Mn685 O711 2.117 . S
C686 O708 1.234 . S
C686 O709 1.283 . S
C687 O699 1.281 . S
C687 O700 1.236 . S
C688 O710 1.240 . S
C688 O711 1.264 . S
O689 Mn684 2.095 . S
O689 C698 1.250 . S
O690 Mn685 2.121 1_554 S
O690 C698 1.258 . S
C691 N692 1.326 1_554 S
C691 C695 1.460 . S
C691 H697 0.929 . S
N692 Mn685 2.257 1_545 S
N692 C691 1.326 1_556 S
N692 C696 1.362 . S
C693 C694 1.258 . S
C693 C696 1.431 . S
C693 C713 1.449 . S
C694 C693 1.258 . S
C694 C695 1.477 1_556 S
C694 H714 0.931 . S
C695 C691 1.460 . S
C695 C694 1.477 1_554 S
C695 H715 0.930 . S
C696 N692 1.362 . S
C696 C693 1.431 . S
C696 C706 1.476 1_545 S
H697 C691 0.929 . S
C698 O689 1.250 . S
C698 O690 1.258 . S
O699 Mn684 2.162 . S
O699 C687 1.281 . S
O700 Mn684 2.297 . S
O700 C687 1.236 . S
N701 Mn685 2.282 . S
N701 C702 1.328 . S
N701 C706 1.318 . S
C702 N701 1.328 . S
C702 C703 1.457 . S
C702 H707 0.929 . S
C703 C702 1.457 . S
C703 C704 1.291 . S
C703 H716 0.931 . S
C704 C703 1.291 . S
C704 C705 1.373 1_565 S
C704 H717 0.929 . S
C705 C704 1.373 1_545 S
C705 C706 1.396 1_545 S
C705 C712 1.403 . S
C706 C696 1.476 1_565 S
C706 N701 1.318 . S
C706 C705 1.396 1_565 S
H707 C702 0.929 . S
O708 Mn684 2.385 . S
O708 C686 1.234 . S
O709 Mn684 2.209 . S
O709 Mn685 2.215 1_554 S
O709 C686 1.283 . S
O710 Mn684 2.094 1_556 S
O710 C688 1.240 . S
O711 Mn685 2.117 . S
O711 C688 1.264 . S
C712 C705 1.403 . S
C712 C713 1.399 . S
C712 H718 0.929 . S
C713 C693 1.449 . S
C713 C712 1.399 . S
C713 H719 0.930 . S
H714 C694 0.931 . S
H715 C695 0.930 . S
H716 C703 0.931 . S
H717 C704 0.929 . S
H718 C712 0.929 . S
H719 C713 0.930 . S
Mn720 O725 2.095 1_554 S
Mn720 O735 2.162 . S
Mn720 O736 2.297 . S
Mn720 O744 2.385 . S
Mn720 O745 2.209 1_554 S
Mn720 O746 2.094 1_554 S
Mn721 O726 2.121 . S
Mn721 N728 2.257 . S
Mn721 N737 2.282 . S
Mn721 O745 2.215 . S
Mn721 O747 2.117 . S
C722 O744 1.237 . S
C722 O745 1.280 1_554 S
C723 O735 1.281 . S
C723 O736 1.236 . S
C724 O746 1.240 . S
C724 O747 1.264 . S
O725 Mn720 2.095 1_556 S
O725 C734 1.250 . S
O726 Mn721 2.121 . S
O726 C734 1.258 . S
C727 N728 1.326 . S
C727 C731 1.460 . S
C727 H733 0.929 . S
N728 Mn721 2.257 . S
N728 C727 1.326 . S
N728 C732 1.362 . S
C729 C730 1.258 . S
C729 C732 1.431 . S
C729 C749 1.449 . S
C730 C729 1.258 . S
C730 C731 1.477 . S
C730 H750 0.931 . S
C731 C727 1.460 . S
C731 C730 1.477 . S
C731 H751 0.930 . S
C732 N728 1.362 . S
C732 C729 1.431 . S
C732 C742 1.476 . S
H733 C727 0.929 . S
C734 O725 1.250 . S
C734 O726 1.258 . S
O735 Mn720 2.162 . S
O735 C723 1.281 . S
O736 Mn720 2.297 . S
O736 C723 1.236 . S
N737 Mn721 2.282 . S
N737 C738 1.328 . S
N737 C742 1.318 . S
C738 N737 1.328 . S
C738 C739 1.457 . S
C738 H743 0.929 . S
C739 C738 1.457 . S
C739 C740 1.291 . S
C739 H752 0.931 . S
C740 C739 1.291 . S
C740 C741 1.373 . S
C740 H753 0.929 . S
C741 C740 1.373 . S
C741 C742 1.396 . S
C741 C748 1.403 . S
C742 C732 1.476 . S
C742 N737 1.318 . S
C742 C741 1.396 . S
H743 C738 0.929 . S
O744 Mn720 2.385 . S
O744 C722 1.237 . S
O745 Mn720 2.209 1_556 S
O745 Mn721 2.215 . S
O745 C722 1.280 1_556 S
O746 Mn720 2.094 1_556 S
O746 C724 1.240 . S
O747 Mn721 2.117 . S
O747 C724 1.264 . S
C748 C741 1.403 . S
C748 C749 1.399 . S
C748 H754 0.929 . S
C749 C729 1.449 . S
C749 C748 1.399 . S
C749 H755 0.930 . S
H750 C730 0.931 . S
H751 C731 0.930 . S
H752 C739 0.931 . S
H753 C740 0.929 . S
H754 C748 0.929 . S
H755 C749 0.930 . S
Mn756 O761 2.095 . S
Mn756 O771 2.162 . S
Mn756 O772 2.297 . S
Mn756 O780 2.385 . S
Mn756 O781 2.209 . S
Mn756 O782 2.094 . S
Mn757 O762 2.121 . S
Mn757 N764 2.257 . S
Mn757 N773 2.282 . S
Mn757 O781 2.215 . S
Mn757 O783 2.117 . S
C758 O780 1.234 . S
C758 O781 1.283 . S
C759 O771 1.281 . S
C759 O772 1.236 . S
C760 O782 1.240 . S
C760 O783 1.264 . S
O761 Mn756 2.095 . S
O761 C770 1.250 . S
O762 Mn757 2.121 . S
O762 C770 1.258 . S
C763 N764 1.326 . S
C763 C767 1.460 . S
C763 H769 0.929 . S
N764 Mn757 2.257 . S
N764 C763 1.326 . S
N764 C768 1.362 . S
C765 C766 1.258 . S
C765 C768 1.431 . S
C765 C785 1.449 . S
C766 C765 1.258 . S
C766 C767 1.477 . S
C766 H786 0.931 . S
C767 C763 1.460 . S
C767 C766 1.477 . S
C767 H787 0.930 . S
C768 N764 1.362 . S
C768 C765 1.431 . S
C768 C778 1.476 . S
H769 C763 0.929 . S
C770 O761 1.250 . S
C770 O762 1.258 . S
O771 Mn756 2.162 . S
O771 C759 1.281 . S
O772 Mn756 2.297 . S
O772 C759 1.236 . S
N773 Mn757 2.282 . S
N773 C774 1.328 . S
N773 C778 1.318 . S
C774 N773 1.328 . S
C774 C775 1.457 . S
C774 H779 0.929 . S
C775 C774 1.457 . S
C775 C776 1.291 . S
C775 H788 0.931 . S
C776 C775 1.291 . S
C776 C777 1.373 . S
C776 H789 0.929 . S
C777 C776 1.373 . S
C777 C778 1.396 . S
C777 C784 1.403 . S
C778 C768 1.476 . S
C778 N773 1.318 . S
C778 C777 1.396 . S
H779 C774 0.929 . S
O780 Mn756 2.385 . S
O780 C758 1.234 . S
O781 Mn756 2.209 . S
O781 Mn757 2.215 . S
O781 C758 1.283 . S
O782 Mn756 2.094 . S
O782 C760 1.240 . S
O783 Mn757 2.117 . S
O783 C760 1.264 . S
C784 C777 1.403 . S
C784 C785 1.399 . S
C784 H790 0.929 . S
C785 C765 1.449 . S
C785 C784 1.399 . S
C785 H791 0.930 . S
H786 C766 0.931 . S
H787 C767 0.930 . S
H788 C775 0.931 . S
H789 C776 0.929 . S
H790 C784 0.929 . S
H791 C785 0.930 . S
Mn792 O797 2.095 . S
Mn792 O807 2.162 . S
Mn792 O808 2.297 . S
Mn792 O816 2.385 . S
Mn792 O817 2.209 . S
Mn792 O818 2.094 . S
Mn793 O798 2.121 . S
Mn793 N800 2.257 . S
Mn793 N809 2.282 . S
Mn793 O817 2.215 . S
Mn793 O819 2.117 . S
C794 O816 1.234 . S
C794 O817 1.283 . S
C795 O807 1.281 . S
C795 O808 1.236 . S
C796 O818 1.240 . S
C796 O819 1.264 . S
O797 Mn792 2.095 . S
O797 C806 1.250 . S
O798 Mn793 2.121 . S
O798 C806 1.258 . S
C799 N800 1.326 . S
C799 C803 1.460 . S
C799 H805 0.929 . S
N800 Mn793 2.257 . S
N800 C799 1.326 . S
N800 C804 1.362 . S
C801 C802 1.258 . S
C801 C804 1.431 . S
C801 C821 1.449 . S
C802 C801 1.258 . S
C802 C803 1.477 . S
C802 H822 0.931 . S
C803 C799 1.460 . S
C803 C802 1.477 . S
C803 H823 0.930 . S
C804 N800 1.362 . S
C804 C801 1.431 . S
C804 C814 1.476 . S
H805 C799 0.929 . S
C806 O797 1.250 . S
C806 O798 1.258 . S
O807 Mn792 2.162 . S
O807 C795 1.281 . S
O808 Mn792 2.297 . S
O808 C795 1.236 . S
N809 Mn793 2.282 . S
N809 C810 1.328 . S
N809 C814 1.318 . S
C810 N809 1.328 . S
C810 C811 1.457 . S
C810 H815 0.929 . S
C811 C810 1.457 . S
C811 C812 1.291 . S
C811 H824 0.931 . S
C812 C811 1.291 . S
C812 C813 1.373 . S
C812 H825 0.929 . S
C813 C812 1.373 . S
C813 C814 1.396 . S
C813 C820 1.403 . S
C814 C804 1.476 . S
C814 N809 1.318 . S
C814 C813 1.396 . S
H815 C810 0.929 . S
O816 Mn792 2.385 . S
O816 C794 1.234 . S
O817 Mn792 2.209 . S
O817 Mn793 2.215 . S
O817 C794 1.283 . S
O818 Mn792 2.094 . S
O818 C796 1.240 . S
O819 Mn793 2.117 . S
O819 C796 1.264 . S
C820 C813 1.403 . S
C820 C821 1.399 . S
C820 H826 0.929 . S
C821 C801 1.449 . S
C821 C820 1.399 . S
C821 H827 0.930 . S
H822 C802 0.931 . S
H823 C803 0.930 . S
H824 C811 0.931 . S
H825 C812 0.929 . S
H826 C820 0.929 . S
H827 C821 0.930 . S
Mn828 O833 2.095 . S
Mn828 O843 2.162 . S
Mn828 O844 2.297 . S
Mn828 O852 2.385 . S
Mn828 O853 2.209 . S
Mn828 O854 2.094 . S
Mn829 O834 2.121 . S
Mn829 N836 2.257 . S
Mn829 N845 2.282 . S
Mn829 O853 2.215 . S
Mn829 O855 2.117 . S
C830 O852 1.234 . S
C830 O853 1.283 . S
C831 O843 1.281 . S
C831 O844 1.236 . S
C832 O854 1.240 . S
C832 O855 1.264 . S
O833 Mn828 2.095 . S
O833 C842 1.250 . S
O834 Mn829 2.121 . S
O834 C842 1.258 . S
C835 N836 1.326 . S
C835 C839 1.460 . S
C835 H841 0.929 . S
N836 Mn829 2.257 . S
N836 C835 1.326 . S
N836 C840 1.362 . S
C837 C838 1.258 . S
C837 C840 1.431 . S
C837 C857 1.449 . S
C838 C837 1.258 . S
C838 C839 1.477 . S
C838 H858 0.931 . S
C839 C835 1.460 . S
C839 C838 1.477 . S
C839 H859 0.930 . S
C840 N836 1.362 . S
C840 C837 1.431 . S
C840 C850 1.476 . S
H841 C835 0.929 . S
C842 O833 1.250 . S
C842 O834 1.258 . S
O843 Mn828 2.162 . S
O843 C831 1.281 . S
O844 Mn828 2.297 . S
O844 C831 1.236 . S
N845 Mn829 2.282 . S
N845 C846 1.328 . S
N845 C850 1.318 . S
C846 N845 1.328 . S
C846 C847 1.457 . S
C846 H851 0.929 . S
C847 C846 1.457 . S
C847 C848 1.291 . S
C847 H860 0.931 . S
C848 C847 1.291 . S
C848 C849 1.373 . S
C848 H861 0.929 . S
C849 C848 1.373 . S
C849 C850 1.396 . S
C849 C856 1.403 . S
C850 C840 1.476 . S
C850 N845 1.318 . S
C850 C849 1.396 . S
H851 C846 0.929 . S
O852 Mn828 2.385 . S
O852 C830 1.234 . S
O853 Mn828 2.209 . S
O853 Mn829 2.215 . S
O853 C830 1.283 . S
O854 Mn828 2.094 . S
O854 C832 1.240 . S
O855 Mn829 2.117 . S
O855 C832 1.264 . S
C856 C849 1.403 . S
C856 C857 1.399 . S
C856 H862 0.929 . S
C857 C837 1.449 . S
C857 C856 1.399 . S
C857 H863 0.930 . S
H858 C838 0.931 . S
H859 C839 0.930 . S
H860 C847 0.931 . S
H861 C848 0.929 . S
H862 C856 0.929 . S
H863 C857 0.930 . S
C864 O880 1.273 1_556 S
C864 O882 1.254 . S
N865 C866 1.333 1_565 S
N865 C870 1.307 . S
N865 Zn871 2.020 1_665 S
C866 N865 1.333 1_545 S
C866 C867 1.379 . S
C866 H884 0.952 . S
C867 C866 1.379 . S
C867 C868 1.390 1_545 S
C867 H894 0.949 . S
C868 C867 1.390 1_565 S
C868 C869 1.357 . S
C869 C868 1.357 . S
C869 C870 1.370 . S
C869 H895 0.950 . S
C870 N865 1.307 . S
C870 C869 1.370 . S
C870 H888 0.948 . S
Zn871 N865 2.020 1_445 S
Zn871 O880 2.045 . S
Zn871 O886 2.034 . S
Zn871 O890 2.025 1_545 S
Zn871 O892 2.024 1_545 S
C872 O891 1.246 . S
C872 O892 1.249 . S
N873 C874 1.307 1_554 S
N873 C875 1.333 . S
N873 Zn879 2.020 . S
C874 N873 1.307 1_556 S
C874 C878 1.370 . S
C874 H885 0.948 . S
C875 N873 1.333 . S
C875 C876 1.379 . S
C875 H883 0.952 . S
C876 C875 1.379 . S
C876 C877 1.390 . S
C876 H896 0.949 . S
C877 C876 1.390 . S
C877 C878 1.357 1_554 S
C878 C874 1.370 . S
C878 C877 1.357 1_556 S
C878 H897 0.950 . S
Zn879 N873 2.020 . S
Zn879 O882 2.025 1_554 S
Zn879 O887 2.024 . S
Zn879 O889 2.039 . S
Zn879 O891 2.034 1_545 S
O880 C864 1.273 1_554 S
O880 Zn871 2.045 . S
C881 O886 1.246 . S
C881 O887 1.249 . S
O882 C864 1.254 . S
O882 Zn879 2.025 1_556 S
H883 C875 0.952 . S
H884 C866 0.952 . S
H885 C874 0.948 . S
O886 Zn871 2.034 . S
O886 C881 1.246 . S
O887 Zn879 2.024 . S
O887 C881 1.249 . S
H888 C870 0.948 . S
O889 Zn879 2.039 . S
O889 C893 1.251 . S
O890 Zn871 2.025 1_565 S
O890 C893 1.254 1_565 S
O891 C872 1.246 . S
O891 Zn879 2.034 1_565 S
O892 Zn871 2.024 1_565 S
O892 C872 1.249 . S
C893 O889 1.251 . S
C893 O890 1.254 1_545 S
H894 C867 0.949 . S
H895 C869 0.950 . S
H896 C876 0.949 . S
H897 C878 0.950 . S
C898 O914 1.251 . S
C898 O916 1.254 . S
N899 C900 1.333 . S
N899 C904 1.307 . S
N899 Zn905 2.020 . S
C900 N899 1.333 . S
C900 C901 1.379 . S
C900 H918 0.952 . S
C901 C900 1.379 . S
C901 C902 1.390 . S
C901 H928 0.949 . S
C902 C901 1.390 . S
C902 C903 1.357 . S
C903 C902 1.357 . S
C903 C904 1.370 . S
C903 H929 0.950 . S
C904 N899 1.307 . S
C904 C903 1.370 . S
C904 H922 0.948 . S
Zn905 N899 2.020 . S
Zn905 O914 2.039 . S
Zn905 O920 2.034 . S
Zn905 O924 2.025 . S
Zn905 O926 2.024 . S
C906 O925 1.246 . S
C906 O926 1.249 . S
N907 C908 1.307 . S
N907 C909 1.333 . S
N907 Zn913 2.020 . S
C908 N907 1.307 . S
C908 C912 1.370 . S
C908 H919 0.948 . S
C909 N907 1.333 . S
C909 C910 1.379 . S
C909 H917 0.952 . S
C910 C909 1.379 . S
C910 C911 1.390 . S
C910 H930 0.949 . S
C911 C910 1.390 . S
C911 C912 1.357 . S
C912 C908 1.370 . S
C912 C911 1.357 . S
C912 H931 0.950 . S
Zn913 N907 2.020 . S
Zn913 O916 2.025 . S
Zn913 O921 2.024 . S
Zn913 O923 2.039 . S
Zn913 O925 2.034 . S
O914 C898 1.251 . S
O914 Zn905 2.039 . S
C915 O920 1.246 . S
C915 O921 1.249 . S
O916 C898 1.254 . S
O916 Zn913 2.025 . S
H917 C909 0.952 . S
H918 C900 0.952 . S
H919 C908 0.948 . S
O920 Zn905 2.034 . S
O920 C915 1.246 . S
O921 Zn913 2.024 . S
O921 C915 1.249 . S
H922 C904 0.948 . S
O923 Zn913 2.039 . S
O923 C927 1.251 . S
O924 Zn905 2.025 . S
O924 C927 1.254 . S
O925 C906 1.246 . S
O925 Zn913 2.034 . S
O926 Zn905 2.024 . S
O926 C906 1.249 . S
C927 O923 1.251 . S
C927 O924 1.254 . S
H928 C901 0.949 . S
H929 C903 0.950 . S
H930 C910 0.949 . S
H931 C912 0.950 . S
C932 O948 1.217 1_545 S
C932 O950 1.254 . S
N933 C934 1.333 . S
N933 C938 1.307 . S
N933 Zn939 2.020 . S
C934 N933 1.333 . S
C934 C935 1.379 . S
C934 H952 0.952 . S
C935 C934 1.379 . S
C935 C936 1.390 . S
C935 H962 0.949 . S
C936 C935 1.390 . S
C936 C937 1.357 . S
C937 C936 1.357 . S
C937 C938 1.370 . S
C937 H963 0.950 . S
C938 N933 1.307 . S
C938 C937 1.370 . S
C938 H956 0.948 . S
Zn939 N933 2.020 . S
Zn939 O948 2.054 . S
Zn939 O954 2.034 1_565 S
Zn939 O958 2.025 . S
Zn939 O960 2.024 . S
C940 O959 1.246 1_565 S
C940 O960 1.249 . S
N941 C942 1.307 . S
N941 C943 1.333 . S
N941 Zn947 2.020 . S
C942 N941 1.307 . S
C942 C946 1.370 . S
C942 H953 0.948 . S
C943 N941 1.333 . S
C943 C944 1.379 . S
C943 H951 0.952 . S
C944 C943 1.379 . S
C944 C945 1.390 . S
C944 H964 0.949 . S
C945 C944 1.390 . S
C945 C946 1.357 . S
C946 C942 1.370 . S
C946 C945 1.357 . S
C946 H965 0.950 . S
Zn947 N941 2.020 . S
Zn947 O950 2.025 . S
Zn947 O955 2.024 . S
Zn947 O957 2.039 . S
Zn947 O959 2.034 . S
O948 C932 1.217 1_565 S
O948 Zn939 2.054 . S
C949 O954 1.246 . S
C949 O955 1.249 . S
O950 C932 1.254 . S
O950 Zn947 2.025 . S
H951 C943 0.952 . S
H952 C934 0.952 . S
H953 C942 0.948 . S
O954 Zn939 2.034 1_545 S
O954 C949 1.246 . S
O955 Zn947 2.024 . S
O955 C949 1.249 . S
H956 C938 0.948 . S
O957 Zn947 2.039 . S
O957 C961 1.251 1_545 S
O958 Zn939 2.025 . S
O958 C961 1.254 . S
O959 C940 1.246 1_545 S
O959 Zn947 2.034 . S
O960 Zn939 2.024 . S
O960 C940 1.249 . S
C961 O957 1.251 1_565 S
C961 O958 1.254 . S
H962 C935 0.949 . S
H963 C937 0.950 . S
H964 C944 0.949 . S
H965 C946 0.950 . S
C966 O982 1.251 . S
C966 O984 1.254 . S
N967 C968 1.333 . S
N967 C972 1.307 . S
N967 Zn973 2.020 . S
C968 N967 1.333 . S
C968 C969 1.379 . S
C968 H986 0.952 . S
C969 C968 1.379 . S
C969 C970 1.390 . S
C969 H996 0.949 . S
C970 C969 1.390 . S
C970 C971 1.357 . S
C971 C970 1.357 . S
C971 C972 1.370 . S
C971 H997 0.950 . S
C972 N967 1.307 . S
C972 C971 1.370 . S
C972 H990 0.948 . S
Zn973 N967 2.020 . S
Zn973 O982 2.039 . S
Zn973 O988 2.034 . S
Zn973 O992 2.025 . S
Zn973 O994 2.024 . S
C974 O993 1.246 . S
C974 O994 1.249 . S
N975 C976 1.307 . S
N975 C977 1.333 . S
N975 Zn981 2.020 . S
C976 N975 1.307 . S
C976 C980 1.370 . S
C976 H987 0.948 . S
C977 N975 1.333 . S
C977 C978 1.379 . S
C977 H985 0.952 . S
C978 C977 1.379 . S
C978 C979 1.390 . S
C978 H998 0.949 . S
C979 C978 1.390 . S
C979 C980 1.357 . S
C980 C976 1.370 . S
C980 C979 1.357 . S
C980 H999 0.950 . S
Zn981 N975 2.020 . S
Zn981 O984 2.025 . S
Zn981 O989 2.024 . S
Zn981 O991 2.039 . S
Zn981 O993 2.034 . S
O982 C966 1.251 . S
O982 Zn973 2.039 . S
C983 O988 1.246 . S
C983 O989 1.249 . S
O984 C966 1.254 . S
O984 Zn981 2.025 . S
H985 C977 0.952 . S
H986 C968 0.952 . S
H987 C976 0.948 . S
O988 Zn973 2.034 . S
O988 C983 1.246 . S
O989 Zn981 2.024 . S
O989 C983 1.249 . S
H990 C972 0.948 . S
O991 Zn981 2.039 . S
O991 C995 1.251 . S
O992 Zn973 2.025 . S
O992 C995 1.254 . S
O993 C974 1.246 . S
O993 Zn981 2.034 . S
O994 Zn973 2.024 . S
O994 C974 1.249 . S
C995 O991 1.251 . S
C995 O992 1.254 . S
H996 C969 0.949 . S
H997 C971 0.950 . S
H998 C978 0.949 . S
H999 C980 0.950 . S
C1000 O1016 1.251 1_565 S
C1000 O1018 1.254 . S
N1001 C1002 1.333 . S
N1001 C1006 1.307 . S
N1001 Zn1007 2.020 . S
C1002 N1001 1.333 . S
C1002 C1003 1.379 . S
C1002 H1020 0.952 . S
C1003 C1002 1.379 . S
C1003 C1004 1.390 . S
C1003 H1030 0.949 . S
C1004 C1003 1.390 . S
C1004 C1005 1.357 . S
C1005 C1004 1.357 . S
C1005 C1006 1.370 . S
C1005 H1031 0.950 . S
C1006 N1001 1.307 . S
C1006 C1005 1.370 . S
C1006 H1024 0.948 . S
Zn1007 N1001 2.020 . S
Zn1007 O1016 2.039 . S
Zn1007 O1022 2.034 . S
Zn1007 O1026 2.025 . S
Zn1007 O1028 2.024 1_545 S
C1008 O1027 1.246 . S
C1008 O1028 1.249 . S
N1009 C1010 1.307 . S
N1009 C1011 1.333 1_455 S
N1009 Zn1015 2.020 1_565 S
C1010 N1009 1.307 . S
C1010 C1014 1.370 . S
C1010 H1021 0.948 1_565 S
C1011 N1009 1.333 1_655 S
C1011 C1012 1.379 . S
C1011 H1019 0.952 . S
C1012 C1011 1.379 . S
C1012 C1013 1.390 . S
C1012 H1032 0.949 . S
C1013 C1012 1.390 . S
C1013 C1014 1.357 1_655 S
C1014 C1010 1.370 . S
C1014 C1013 1.357 1_455 S
C1014 H1033 0.950 . S
Zn1015 N1009 2.020 1_545 S
Zn1015 O1018 2.025 1_545 S
Zn1015 O1023 2.024 . S
Zn1015 O1025 2.039 1_455 S
Zn1015 O1027 2.034 1_545 S
O1016 C1000 1.251 1_545 S
O1016 Zn1007 2.039 . S
C1017 O1022 1.246 . S
C1017 O1023 1.249 . S
O1018 C1000 1.254 . S
O1018 Zn1015 2.025 1_565 S
H1019 C1011 0.952 . S
H1020 C1002 0.952 . S
H1021 C1010 0.948 1_545 S
O1022 Zn1007 2.034 . S
O1022 C1017 1.246 . S
O1023 Zn1015 2.024 . S
O1023 C1017 1.249 . S
H1024 C1006 0.948 . S
O1025 Zn1015 2.039 1_655 S
O1025 C1029 1.251 . S
O1026 Zn1007 2.025 . S
O1026 C1029 1.254 1_455 S
O1027 C1008 1.246 . S
O1027 Zn1015 2.034 1_565 S
O1028 Zn1007 2.024 1_565 S
O1028 C1008 1.249 . S
C1029 O1025 1.251 . S
C1029 O1026 1.254 1_655 S
H1030 C1003 0.949 . S
H1031 C1005 0.950 . S
H1032 C1012 0.949 . S
H1033 C1014 0.950 . S
C1034 O1050 1.251 . S
C1034 O1052 1.254 . S
N1035 C1036 1.333 . S
N1035 C1040 1.307 . S
N1035 Zn1041 2.020 . S
C1036 N1035 1.333 . S
C1036 C1037 1.379 . S
C1036 H1054 0.952 . S
C1037 C1036 1.379 . S
C1037 C1038 1.390 . S
C1037 H1064 0.949 . S
C1038 C1037 1.390 . S
C1038 C1039 1.357 . S
C1039 C1038 1.357 . S
C1039 C1040 1.370 . S
C1039 H1065 0.950 . S
C1040 N1035 1.307 . S
C1040 C1039 1.370 . S
C1040 H1058 0.948 . S
Zn1041 N1035 2.020 . S
Zn1041 O1050 2.039 . S
Zn1041 O1056 2.034 . S
Zn1041 O1060 2.025 . S
Zn1041 O1062 2.024 . S
C1042 O1061 1.246 . S
C1042 O1062 1.249 . S
N1043 C1044 1.307 . S
N1043 C1045 1.333 . S
N1043 Zn1049 2.020 . S
C1044 N1043 1.307 . S
C1044 C1048 1.370 . S
C1044 H1055 0.948 . S
C1045 N1043 1.333 . S
C1045 C1046 1.379 . S
C1045 H1053 0.952 . S
C1046 C1045 1.379 . S
C1046 C1047 1.390 . S
C1046 H1066 0.949 . S
C1047 C1046 1.390 . S
C1047 C1048 1.357 . S
C1048 C1044 1.370 . S
C1048 C1047 1.357 . S
C1048 H1067 0.950 . S
Zn1049 N1043 2.020 . S
Zn1049 O1052 2.025 . S
Zn1049 O1057 2.024 . S
Zn1049 O1059 2.039 . S
Zn1049 O1061 2.034 . S
O1050 C1034 1.251 . S
O1050 Zn1041 2.039 . S
C1051 O1056 1.246 . S
C1051 O1057 1.249 . S
O1052 C1034 1.254 . S
O1052 Zn1049 2.025 . S
H1053 C1045 0.952 . S
H1054 C1036 0.952 . S
H1055 C1044 0.948 . S
O1056 Zn1041 2.034 . S
O1056 C1051 1.246 . S
O1057 Zn1049 2.024 . S
O1057 C1051 1.249 . S
H1058 C1040 0.948 . S
O1059 Zn1049 2.039 . S
O1059 C1063 1.251 . S
O1060 Zn1041 2.025 . S
O1060 C1063 1.254 . S
O1061 C1042 1.246 . S
O1061 Zn1049 2.034 . S
O1062 Zn1041 2.024 . S
O1062 C1042 1.249 . S
C1063 O1059 1.251 . S
C1063 O1060 1.254 . S
H1064 C1037 0.949 . S
H1065 C1039 0.950 . S
H1066 C1046 0.949 . S
H1067 C1048 0.950 . S
C1068 O1084 1.251 . S
C1068 O1086 1.254 . S
N1069 C1070 1.333 . S
N1069 C1074 1.307 . S
N1069 Zn1075 2.020 . S
C1070 N1069 1.333 . S
C1070 C1071 1.379 . S
C1070 H1088 0.952 . S
C1071 C1070 1.379 . S
C1071 C1072 1.390 . S
C1071 H1098 0.949 . S
C1072 C1071 1.390 . S
C1072 C1073 1.357 . S
C1073 C1072 1.357 . S
C1073 C1074 1.370 . S
C1073 H1099 0.950 . S
C1074 N1069 1.307 . S
C1074 C1073 1.370 . S
C1074 H1092 0.948 . S
Zn1075 N1069 2.020 . S
Zn1075 O1084 2.039 1_545 S
Zn1075 O1090 2.034 . S
Zn1075 O1094 2.025 . S
Zn1075 O1096 2.024 . S
C1076 O1095 1.246 . S
C1076 O1096 1.249 1_565 S
N1077 C1078 1.307 . S
N1077 C1079 1.333 1_565 S
N1077 Zn1083 2.020 1_566 S
C1078 N1077 1.307 . S
C1078 C1082 1.370 . S
C1078 H1089 0.948 . S
C1079 N1077 1.333 1_545 S
C1079 C1080 1.379 . S
C1079 H1087 0.952 . S
C1080 C1079 1.379 . S
C1080 C1081 1.390 1_545 S
C1080 H1100 0.949 . S
C1081 C1080 1.390 1_565 S
C1081 C1082 1.357 . S
C1082 C1078 1.370 . S
C1082 C1081 1.357 . S
C1082 H1101 0.950 . S
Zn1083 N1077 2.020 1_544 S
Zn1083 O1086 2.025 1_545 S
Zn1083 O1091 2.024 . S
Zn1083 O1093 2.039 1_554 S
Zn1083 O1095 2.034 1_545 S
O1084 C1068 1.251 . S
O1084 Zn1075 2.039 1_565 S
C1085 O1090 1.246 . S
C1085 O1091 1.249 . S
O1086 C1068 1.254 . S
O1086 Zn1083 2.025 1_565 S
H1087 C1079 0.952 . S
H1088 C1070 0.952 . S
H1089 C1078 0.948 . S
O1090 Zn1075 2.034 . S
O1090 C1085 1.246 . S
O1091 Zn1083 2.024 . S
O1091 C1085 1.249 . S
H1092 C1074 0.948 . S
O1093 Zn1083 2.039 1_556 S
O1093 C1097 1.251 1_556 S
O1094 Zn1075 2.025 . S
O1094 C1097 1.254 . S
O1095 C1076 1.246 . S
O1095 Zn1083 2.034 1_565 S
O1096 Zn1075 2.024 . S
O1096 C1076 1.249 1_545 S
C1097 O1093 1.251 1_554 S
C1097 O1094 1.254 . S
H1098 C1071 0.949 . S
H1099 C1073 0.950 . S
H1100 C1080 0.949 . S
H1101 C1082 0.950 . S
C1102 O1118 1.251 . S
C1102 O1120 1.254 . S
N1103 C1104 1.333 . S
N1103 C1108 1.307 . S
N1103 Zn1109 2.020 . S
C1104 N1103 1.333 . S
C1104 C1105 1.379 . S
C1104 H1122 0.952 . S
C1105 C1104 1.379 . S
C1105 C1106 1.390 . S
C1105 H1132 0.949 . S
C1106 C1105 1.390 . S
C1106 C1107 1.357 . S
C1107 C1106 1.357 . S
C1107 C1108 1.370 . S
C1107 H1133 0.950 . S
C1108 N1103 1.307 . S
C1108 C1107 1.370 . S
C1108 H1126 0.948 . S
Zn1109 N1103 2.020 . S
Zn1109 O1118 2.039 . S
Zn1109 O1124 2.034 . S
Zn1109 O1128 2.025 . S
Zn1109 O1130 2.024 . S
C1110 O1129 1.246 . S
C1110 O1130 1.249 . S
N1111 C1112 1.307 . S
N1111 C1113 1.333 . S
N1111 Zn1117 2.020 . S
C1112 N1111 1.307 . S
C1112 C1116 1.370 . S
C1112 H1123 0.948 . S
C1113 N1111 1.333 . S
C1113 C1114 1.379 . S
C1113 H1121 0.952 . S
C1114 C1113 1.379 . S
C1114 C1115 1.390 . S
C1114 H1134 0.949 . S
C1115 C1114 1.390 . S
C1115 C1116 1.357 . S
C1116 C1112 1.370 . S
C1116 C1115 1.357 . S
C1116 H1135 0.950 . S
Zn1117 N1111 2.020 . S
Zn1117 O1120 2.025 . S
Zn1117 O1125 2.024 . S
Zn1117 O1127 2.039 . S
Zn1117 O1129 2.034 . S
O1118 C1102 1.251 . S
O1118 Zn1109 2.039 . S
C1119 O1124 1.246 . S
C1119 O1125 1.249 . S
O1120 C1102 1.254 . S
O1120 Zn1117 2.025 . S
H1121 C1113 0.952 . S
H1122 C1104 0.952 . S
H1123 C1112 0.948 . S
O1124 Zn1109 2.034 . S
O1124 C1119 1.246 . S
O1125 Zn1117 2.024 . S
O1125 C1119 1.249 . S
H1126 C1108 0.948 . S
O1127 Zn1117 2.039 . S
O1127 C1131 1.251 . S
O1128 Zn1109 2.025 . S
O1128 C1131 1.254 . S
O1129 C1110 1.246 . S
O1129 Zn1117 2.034 . S
O1130 Zn1109 2.024 . S
O1130 C1110 1.249 . S
C1131 O1127 1.251 . S
C1131 O1128 1.254 . S
H1132 C1105 0.949 . S
H1133 C1107 0.950 . S
H1134 C1114 0.949 . S
H1135 C1116 0.950 . S
C1136 O1152 1.251 . S
C1136 O1154 1.254 . S
N1137 C1138 1.333 . S
N1137 C1142 1.307 . S
N1137 Zn1143 2.020 1_556 S
C1138 N1137 1.333 . S
C1138 C1139 1.379 . S
C1138 H1156 0.952 . S
C1139 C1138 1.379 . S
C1139 C1140 1.390 . S
C1139 H1166 0.949 . S
C1140 C1139 1.390 . S
C1140 C1141 1.357 . S
C1141 C1140 1.357 . S
C1141 C1142 1.370 . S
C1141 H1167 0.950 . S
C1142 N1137 1.307 . S
C1142 C1141 1.370 . S
C1142 H1160 0.948 . S
Zn1143 N1137 2.020 1_554 S
Zn1143 O1152 2.039 . S
Zn1143 O1158 2.034 . S
Zn1143 O1162 2.025 1_554 S
Zn1143 O1164 2.024 1_554 S
C1144 O1163 1.246 . S
C1144 O1164 1.249 1_554 S
N1145 C1146 1.307 . S
N1145 C1147 1.333 . S
N1145 Zn1151 2.020 . S
C1146 N1145 1.307 . S
C1146 C1150 1.370 . S
C1146 H1157 0.948 . S
C1147 N1145 1.333 . S
C1147 C1148 1.379 . S
C1147 H1155 0.952 . S
C1148 C1147 1.379 . S
C1148 C1149 1.390 . S
C1148 H1168 0.949 . S
C1149 C1148 1.390 . S
C1149 C1150 1.357 . S
C1150 C1146 1.370 . S
C1150 C1149 1.357 . S
C1150 H1169 0.950 . S
Zn1151 N1145 2.020 . S
Zn1151 O1154 2.025 . S
Zn1151 O1159 2.024 . S
Zn1151 O1161 2.039 . S
Zn1151 O1163 2.034 . S
O1152 C1136 1.251 . S
O1152 Zn1143 2.039 . S
C1153 O1158 1.246 . S
C1153 O1159 1.249 . S
O1154 C1136 1.254 . S
O1154 Zn1151 2.025 . S
H1155 C1147 0.952 . S
H1156 C1138 0.952 . S
H1157 C1146 0.948 . S
O1158 Zn1143 2.034 . S
O1158 C1153 1.246 . S
O1159 Zn1151 2.024 . S
O1159 C1153 1.249 . S
H1160 C1142 0.948 . S
O1161 Zn1151 2.039 . S
O1161 C1165 1.251 . S
O1162 Zn1143 2.025 1_556 S
O1162 C1165 1.252 1_556 S
O1163 C1144 1.246 . S
O1163 Zn1151 2.034 . S
O1164 Zn1143 2.024 1_556 S
O1164 C1144 1.249 1_556 S
C1165 O1161 1.251 . S
C1165 O1162 1.252 1_554 S
H1166 C1139 0.949 . S
H1167 C1141 0.950 . S
H1168 C1148 0.949 . S
H1169 C1150 0.950 . S
C1170 O1186 1.251 . S
C1170 O1188 1.254 . S
N1171 C1172 1.333 . S
N1171 C1176 1.307 . S
N1171 Zn1177 2.020 . S
C1172 N1171 1.333 . S
C1172 C1173 1.379 . S
C1172 H1190 0.952 . S
C1173 C1172 1.379 . S
C1173 C1174 1.390 . S
C1173 H1200 0.949 . S
C1174 C1173 1.390 . S
C1174 C1175 1.357 . S
C1175 C1174 1.357 . S
C1175 C1176 1.370 . S
C1175 H1201 0.950 . S
C1176 N1171 1.307 . S
C1176 C1175 1.370 . S
C1176 H1194 0.948 . S
Zn1177 N1171 2.020 . S
Zn1177 O1186 2.039 . S
Zn1177 O1192 2.034 . S
Zn1177 O1196 2.025 . S
Zn1177 O1198 2.024 . S
C1178 O1197 1.246 . S
C1178 O1198 1.249 . S
N1179 C1180 1.307 . S
N1179 C1181 1.333 . S
N1179 Zn1185 2.020 . S
C1180 N1179 1.307 . S
C1180 C1184 1.370 . S
C1180 H1191 0.948 . S
C1181 N1179 1.333 . S
C1181 C1182 1.379 . S
C1181 H1189 0.952 . S
C1182 C1181 1.379 . S
C1182 C1183 1.390 . S
C1182 H1202 0.949 . S
C1183 C1182 1.390 . S
C1183 C1184 1.357 . S
C1184 C1180 1.370 . S
C1184 C1183 1.357 . S
C1184 H1203 0.950 . S
Zn1185 N1179 2.020 . S
Zn1185 O1188 2.025 . S
Zn1185 O1193 2.024 . S
Zn1185 O1195 2.039 . S
Zn1185 O1197 2.034 . S
O1186 C1170 1.251 . S
O1186 Zn1177 2.039 . S
C1187 O1192 1.246 . S
C1187 O1193 1.249 . S
O1188 C1170 1.254 . S
O1188 Zn1185 2.025 . S
H1189 C1181 0.952 . S
H1190 C1172 0.952 . S
H1191 C1180 0.948 . S
O1192 Zn1177 2.034 . S
O1192 C1187 1.246 . S
O1193 Zn1185 2.024 . S
O1193 C1187 1.249 . S
H1194 C1176 0.948 . S
O1195 Zn1185 2.039 . S
O1195 C1199 1.251 . S
O1196 Zn1177 2.025 . S
O1196 C1199 1.254 . S
O1197 C1178 1.246 . S
O1197 Zn1185 2.034 . S
O1198 Zn1177 2.024 . S
O1198 C1178 1.249 . S
C1199 O1195 1.251 . S
C1199 O1196 1.254 . S
H1200 C1173 0.949 . S
H1201 C1175 0.950 . S
H1202 C1182 0.949 . S
H1203 C1184 0.950 . S
C1204 O1220 1.251 . S
C1204 O1222 1.254 . S
N1205 C1206 1.333 . S
N1205 C1210 1.307 . S
N1205 Zn1211 2.020 . S
C1206 N1205 1.333 . S
C1206 C1207 1.379 . S
C1206 H1224 0.952 . S
C1207 C1206 1.379 . S
C1207 C1208 1.390 . S
C1207 H1234 0.949 . S
C1208 C1207 1.390 . S
C1208 C1209 1.357 . S
C1209 C1208 1.357 . S
C1209 C1210 1.370 . S
C1209 H1235 0.950 . S
C1210 N1205 1.307 . S
C1210 C1209 1.370 . S
C1210 H1228 0.948 . S
Zn1211 N1205 2.020 . S
Zn1211 O1220 2.039 . S
Zn1211 O1226 2.034 . S
Zn1211 O1230 2.025 . S
Zn1211 O1232 2.024 . S
C1212 O1231 1.246 . S
C1212 O1232 1.249 . S
N1213 C1214 1.307 1_455 S
N1213 C1215 1.333 . S
N1213 Zn1219 2.020 . S
C1214 N1213 1.307 1_655 S
C1214 C1218 1.370 . S
C1214 H1225 0.948 . S
C1215 N1213 1.333 . S
C1215 C1216 1.379 . S
C1215 H1223 0.952 . S
C1216 C1215 1.379 . S
C1216 C1217 1.390 1_455 S
C1216 H1236 0.949 . S
C1217 C1216 1.390 1_655 S
C1217 C1218 1.357 . S
C1218 C1214 1.370 . S
C1218 C1217 1.357 . S
C1218 H1237 0.950 . S
Zn1219 N1213 2.020 . S
Zn1219 O1222 2.025 . S
Zn1219 O1227 2.024 1_455 S
Zn1219 O1229 2.039 . S
Zn1219 O1231 2.034 . S
O1220 C1204 1.251 . S
O1220 Zn1211 2.039 . S
C1221 O1226 1.246 1_655 S
C1221 O1227 1.249 . S
O1222 C1204 1.254 . S
O1222 Zn1219 2.025 . S
H1223 C1215 0.952 . S
H1224 C1206 0.952 . S
H1225 C1214 0.948 . S
O1226 Zn1211 2.034 . S
O1226 C1221 1.246 1_455 S
O1227 Zn1219 2.024 1_655 S
O1227 C1221 1.249 . S
H1228 C1210 0.948 . S
O1229 Zn1219 2.039 . S
O1229 C1233 1.251 . S
O1230 Zn1211 2.025 . S
O1230 C1233 1.254 . S
O1231 C1212 1.246 . S
O1231 Zn1219 2.034 . S
O1232 Zn1211 2.024 . S
O1232 C1212 1.249 . S
C1233 O1229 1.251 . S
C1233 O1230 1.254 . S
H1234 C1207 0.949 . S
H1235 C1209 0.950 . S
H1236 C1216 0.949 . S
H1237 C1218 0.950 . S
C1238 O1254 1.251 . S
C1238 O1256 1.254 . S
N1239 C1240 1.333 . S
N1239 C1244 1.307 . S
N1239 Zn1245 2.020 . S
C1240 N1239 1.333 . S
C1240 C1241 1.379 . S
C1240 H1258 0.952 . S
C1241 C1240 1.379 . S
C1241 C1242 1.390 . S
C1241 H1268 0.949 . S
C1242 C1241 1.390 . S
C1242 C1243 1.357 . S
C1243 C1242 1.357 . S
C1243 C1244 1.370 . S
C1243 H1269 0.950 . S
C1244 N1239 1.307 . S
C1244 C1243 1.370 . S
C1244 H1262 0.948 . S
Zn1245 N1239 2.020 . S
Zn1245 O1254 2.039 . S
Zn1245 O1260 2.034 . S
Zn1245 O1264 2.025 . S
Zn1245 O1266 2.024 . S
C1246 O1265 1.246 . S
C1246 O1266 1.249 . S
N1247 C1248 1.307 . S
N1247 C1249 1.333 . S
N1247 Zn1253 2.020 . S
C1248 N1247 1.307 . S
C1248 C1252 1.370 . S
C1248 H1259 0.948 . S
C1249 N1247 1.333 . S
C1249 C1250 1.379 . S
C1249 H1257 0.952 . S
C1250 C1249 1.379 . S
C1250 C1251 1.390 . S
C1250 H1270 0.949 . S
C1251 C1250 1.390 . S
C1251 C1252 1.357 . S
C1252 C1248 1.370 . S
C1252 C1251 1.357 . S
C1252 H1271 0.950 . S
Zn1253 N1247 2.020 . S
Zn1253 O1256 2.025 . S
Zn1253 O1261 2.024 . S
Zn1253 O1263 2.039 . S
Zn1253 O1265 2.034 . S
O1254 C1238 1.251 . S
O1254 Zn1245 2.039 . S
C1255 O1260 1.246 . S
C1255 O1261 1.249 . S
O1256 C1238 1.254 . S
O1256 Zn1253 2.025 . S
H1257 C1249 0.952 . S
H1258 C1240 0.952 . S
H1259 C1248 0.948 . S
O1260 Zn1245 2.034 . S
O1260 C1255 1.246 . S
O1261 Zn1253 2.024 . S
O1261 C1255 1.249 . S
H1262 C1244 0.948 . S
O1263 Zn1253 2.039 . S
O1263 C1267 1.251 . S
O1264 Zn1245 2.025 . S
O1264 C1267 1.254 . S
O1265 C1246 1.246 . S
O1265 Zn1253 2.034 . S
O1266 Zn1245 2.024 . S
O1266 C1246 1.249 . S
C1267 O1263 1.251 . S
C1267 O1264 1.254 . S
H1268 C1241 0.949 . S
H1269 C1243 0.950 . S
H1270 C1250 0.949 . S
H1271 C1252 0.950 . S
C1272 O1288 1.251 . S
C1272 O1290 1.254 . S
N1273 C1274 1.333 . S
N1273 C1278 1.307 . S
N1273 Zn1279 2.020 . S
C1274 N1273 1.333 . S
C1274 C1275 1.379 . S
C1274 H1292 0.952 . S
C1275 C1274 1.379 . S
C1275 C1276 1.390 . S
C1275 H1302 0.949 . S
C1276 C1275 1.390 . S
C1276 C1277 1.357 . S
C1277 C1276 1.357 . S
C1277 C1278 1.370 . S
C1277 H1303 0.950 . S
C1278 N1273 1.307 . S
C1278 C1277 1.370 . S
C1278 H1296 0.948 . S
Zn1279 N1273 2.020 . S
Zn1279 O1288 2.039 . S
Zn1279 O1294 2.034 . S
Zn1279 O1298 2.025 . S
Zn1279 O1300 2.024 . S
C1280 O1299 1.246 . S
C1280 O1300 1.249 . S
N1281 C1282 1.307 . S
N1281 C1283 1.333 . S
N1281 Zn1287 2.020 . S
C1282 N1281 1.307 . S
C1282 C1286 1.370 . S
C1282 H1293 0.948 . S
C1283 N1281 1.333 . S
C1283 C1284 1.379 . S
C1283 H1291 0.952 . S
C1284 C1283 1.379 . S
C1284 C1285 1.390 . S
C1284 H1304 0.949 . S
C1285 C1284 1.390 . S
C1285 C1286 1.357 . S
C1286 C1282 1.370 . S
C1286 C1285 1.357 . S
C1286 H1305 0.950 . S
Zn1287 N1281 2.020 . S
Zn1287 O1290 2.025 . S
Zn1287 O1295 2.024 . S
Zn1287 O1297 2.039 . S
Zn1287 O1299 2.034 . S
O1288 C1272 1.251 . S
O1288 Zn1279 2.039 . S
C1289 O1294 1.246 . S
C1289 O1295 1.249 . S
O1290 C1272 1.254 . S
O1290 Zn1287 2.025 . S
H1291 C1283 0.952 . S
H1292 C1274 0.952 . S
H1293 C1282 0.948 . S
O1294 Zn1279 2.034 . S
O1294 C1289 1.246 . S
O1295 Zn1287 2.024 . S
O1295 C1289 1.249 . S
H1296 C1278 0.948 . S
O1297 Zn1287 2.039 . S
O1297 C1301 1.251 . S
O1298 Zn1279 2.025 . S
O1298 C1301 1.254 . S
O1299 C1280 1.246 . S
O1299 Zn1287 2.034 . S
O1300 Zn1279 2.024 . S
O1300 C1280 1.249 . S
C1301 O1297 1.251 . S
C1301 O1298 1.254 . S
H1302 C1275 0.949 . S
H1303 C1277 0.950 . S
H1304 C1284 0.949 . S
H1305 C1286 0.950 . S
C1306 O1322 1.251 . S
C1306 O1324 1.254 . S
N1307 C1308 1.333 . S
N1307 C1312 1.307 . S
N1307 Zn1313 2.020 . S
C1308 N1307 1.333 . S
C1308 C1309 1.379 . S
C1308 H1326 0.952 . S
C1309 C1308 1.379 . S
C1309 C1310 1.390 . S
C1309 H1336 0.949 . S
C1310 C1309 1.390 . S
C1310 C1311 1.357 . S
C1311 C1310 1.357 . S
C1311 C1312 1.370 . S
C1311 H1337 0.950 . S
C1312 N1307 1.307 . S
C1312 C1311 1.370 . S
C1312 H1330 0.948 . S
Zn1313 N1307 2.020 . S
Zn1313 O1322 2.039 . S
Zn1313 O1328 2.034 . S
Zn1313 O1332 2.025 . S
Zn1313 O1334 2.024 . S
C1314 O1333 1.246 . S
C1314 O1334 1.249 . S
N1315 C1316 1.307 . S
N1315 C1317 1.333 . S
N1315 Zn1321 2.020 . S
C1316 N1315 1.307 . S
C1316 C1320 1.370 . S
C1316 H1327 0.948 . S
C1317 N1315 1.333 . S
C1317 C1318 1.379 . S
C1317 H1325 0.952 . S
C1318 C1317 1.379 . S
C1318 C1319 1.390 . S
C1318 H1338 0.949 . S
C1319 C1318 1.390 . S
C1319 C1320 1.357 . S
C1320 C1316 1.370 . S
C1320 C1319 1.357 . S
C1320 H1339 0.950 . S
Zn1321 N1315 2.020 . S
Zn1321 O1324 2.025 . S
Zn1321 O1329 2.024 . S
Zn1321 O1331 2.039 . S
Zn1321 O1333 2.034 . S
O1322 C1306 1.251 . S
O1322 Zn1313 2.039 . S
C1323 O1328 1.246 . S
C1323 O1329 1.249 . S
O1324 C1306 1.254 . S
O1324 Zn1321 2.025 . S
H1325 C1317 0.952 . S
H1326 C1308 0.952 . S
H1327 C1316 0.948 . S
O1328 Zn1313 2.034 . S
O1328 C1323 1.246 . S
O1329 Zn1321 2.024 . S
O1329 C1323 1.249 . S
H1330 C1312 0.948 . S
O1331 Zn1321 2.039 . S
O1331 C1335 1.251 . S
O1332 Zn1313 2.025 . S
O1332 C1335 1.254 . S
O1333 C1314 1.246 . S
O1333 Zn1321 2.034 . S
O1334 Zn1313 2.024 . S
O1334 C1314 1.249 . S
C1335 O1331 1.251 . S
C1335 O1332 1.254 . S
H1336 C1309 0.949 . S
H1337 C1311 0.950 . S
H1338 C1318 0.949 . S
H1339 C1320 0.950 . S
C1340 O1356 1.251 . S
C1340 O1358 1.254 . S
N1341 C1342 1.333 . S
N1341 C1346 1.307 . S
N1341 Zn1347 2.020 . S
C1342 N1341 1.333 . S
C1342 C1343 1.379 . S
C1342 H1360 0.952 . S
C1343 C1342 1.379 . S
C1343 C1344 1.390 . S
C1343 H1370 0.949 . S
C1344 C1343 1.390 . S
C1344 C1345 1.357 . S
C1345 C1344 1.357 . S
C1345 C1346 1.370 . S
C1345 H1371 0.950 . S
C1346 N1341 1.307 . S
C1346 C1345 1.370 . S
C1346 H1364 0.948 . S
Zn1347 N1341 2.020 . S
Zn1347 O1356 2.039 . S
Zn1347 O1362 2.034 . S
Zn1347 O1366 2.025 . S
Zn1347 O1368 2.024 . S
C1348 O1367 1.246 . S
C1348 O1368 1.249 . S
N1349 C1350 1.307 . S
N1349 C1351 1.333 . S
N1349 Zn1355 2.020 . S
C1350 N1349 1.307 . S
C1350 C1354 1.370 . S
C1350 H1361 0.948 . S
C1351 N1349 1.333 . S
C1351 C1352 1.379 . S
C1351 H1359 0.952 . S
C1352 C1351 1.379 . S
C1352 C1353 1.390 . S
C1352 H1372 0.949 . S
C1353 C1352 1.390 . S
C1353 C1354 1.357 . S
C1354 C1350 1.370 . S
C1354 C1353 1.357 . S
C1354 H1373 0.950 . S
Zn1355 N1349 2.020 . S
Zn1355 O1358 2.025 . S
Zn1355 O1363 2.024 . S
Zn1355 O1365 2.039 . S
Zn1355 O1367 2.034 . S
O1356 C1340 1.251 . S
O1356 Zn1347 2.039 . S
C1357 O1362 1.246 . S
C1357 O1363 1.249 . S
O1358 C1340 1.254 . S
O1358 Zn1355 2.025 . S
H1359 C1351 0.952 . S
H1360 C1342 0.952 . S
H1361 C1350 0.948 . S
O1362 Zn1347 2.034 . S
O1362 C1357 1.246 . S
O1363 Zn1355 2.024 . S
O1363 C1357 1.249 . S
H1364 C1346 0.948 . S
O1365 Zn1355 2.039 . S
O1365 C1369 1.251 . S
O1366 Zn1347 2.025 . S
O1366 C1369 1.254 . S
O1367 C1348 1.246 . S
O1367 Zn1355 2.034 . S
O1368 Zn1347 2.024 . S
O1368 C1348 1.249 . S
C1369 O1365 1.251 . S
C1369 O1366 1.254 . S
H1370 C1343 0.949 . S
H1371 C1345 0.950 . S
H1372 C1352 0.949 . S
H1373 C1354 0.950 . S
C1374 O1390 1.251 . S
C1374 O1392 1.254 . S
N1375 C1376 1.333 . S
N1375 C1380 1.307 . S
N1375 Zn1381 2.020 . S
C1376 N1375 1.333 . S
C1376 C1377 1.379 . S
C1376 H1394 0.952 . S
C1377 C1376 1.379 . S
C1377 C1378 1.390 . S
C1377 H1404 0.949 . S
C1378 C1377 1.390 . S
C1378 C1379 1.357 . S
C1379 C1378 1.357 . S
C1379 C1380 1.370 . S
C1379 H1405 0.950 . S
C1380 N1375 1.307 . S
C1380 C1379 1.370 . S
C1380 H1398 0.948 . S
Zn1381 N1375 2.020 . S
Zn1381 O1390 2.039 . S
Zn1381 O1396 2.034 . S
Zn1381 O1400 2.025 . S
Zn1381 O1402 2.024 . S
C1382 O1401 1.246 . S
C1382 O1402 1.249 1_655 S
N1383 C1384 1.307 . S
N1383 C1385 1.333 1_554 S
N1383 Zn1389 2.020 . S
C1384 N1383 1.307 . S
C1384 C1388 1.370 . S
C1384 H1395 0.948 . S
C1385 N1383 1.333 1_556 S
C1385 C1386 1.372 1_455 S
C1385 H1393 0.952 . S
C1386 C1385 1.372 1_655 S
C1386 C1387 1.393 . S
C1386 H1406 0.955 . S
C1387 C1386 1.393 . S
C1387 C1388 1.357 1_656 S
C1388 C1384 1.370 . S
C1388 C1387 1.357 1_454 S
C1388 H1407 0.950 . S
Zn1389 N1383 2.020 . S
Zn1389 O1392 2.025 . S
Zn1389 O1397 2.024 . S
Zn1389 O1399 2.039 1_554 S
Zn1389 O1401 2.034 1_455 S
O1390 C1374 1.251 . S
O1390 Zn1381 2.039 . S
C1391 O1396 1.246 . S
C1391 O1397 1.249 . S
O1392 C1374 1.254 . S
O1392 Zn1389 2.025 . S
H1393 C1385 0.952 . S
H1394 C1376 0.952 . S
H1395 C1384 0.948 . S
O1396 Zn1381 2.034 . S
O1396 C1391 1.246 . S
O1397 Zn1389 2.024 . S
O1397 C1391 1.249 . S
H1398 C1380 0.948 . S
O1399 Zn1389 2.039 1_556 S
O1399 C1403 1.251 . S
O1400 Zn1381 2.025 . S
O1400 C1403 1.254 1_554 S
O1401 C1382 1.246 . S
O1401 Zn1389 2.034 1_655 S
O1402 Zn1381 2.024 . S
O1402 C1382 1.249 1_455 S
C1403 O1399 1.251 . S
C1403 O1400 1.254 1_556 S
H1404 C1377 0.949 . S
H1405 C1379 0.950 . S
H1406 C1386 0.955 . S
H1407 C1388 0.950 . S
H1408 C1414 0.930 . S
H1409 C1417 0.930 . S
H1410 C1418 0.930 . S
H1411 C1419 0.930 . S
H1412 C1422 0.930 . S
H1413 C1423 0.930 . S
C1414 H1408 0.930 . S
C1414 C1415 1.355 . S
C1414 C1416 1.415 . S
C1415 C1414 1.355 . S
C1415 C1417 1.419 . S
C1416 C1414 1.415 . S
C1416 C1421 1.425 . S
C1416 C1423 1.409 . S
C1417 H1409 0.930 . S
C1417 C1415 1.419 . S
C1417 C1418 1.362 . S
C1418 H1410 0.930 . S
C1418 C1417 1.362 . S
C1418 C1421 1.409 . S
C1419 H1411 0.930 . S
C1419 C1420 1.355 . S
C1419 C1421 1.415 . S
C1420 C1419 1.355 . S
C1420 C1422 1.419 . S
C1421 C1416 1.425 . S
C1421 C1418 1.409 . S
C1421 C1419 1.415 . S
C1422 H1412 0.930 . S
C1422 C1420 1.419 . S
C1422 C1423 1.362 . S
C1423 H1413 0.930 . S
C1423 C1416 1.409 . S
C1423 C1422 1.362 . S
H1424 C1430 0.930 . S
H1425 C1433 0.930 . S
H1426 C1434 0.930 . S
H1427 C1435 0.930 . S
H1428 C1438 0.930 . S
H1429 C1439 0.930 . S
C1430 H1424 0.930 . S
C1430 C1431 1.355 . S
C1430 C1432 1.415 . S
C1431 C1430 1.355 . S
C1431 C1433 1.419 . S
C1432 C1430 1.415 . S
C1432 C1437 1.425 . S
C1432 C1439 1.409 . S
C1433 H1425 0.930 . S
C1433 C1431 1.419 . S
C1433 C1434 1.362 . S
C1434 H1426 0.930 . S
C1434 C1433 1.362 . S
C1434 C1437 1.409 . S
C1435 H1427 0.930 . S
C1435 C1436 1.355 . S
C1435 C1437 1.415 . S
C1436 C1435 1.355 . S
C1436 C1438 1.419 . S
C1437 C1432 1.425 . S
C1437 C1434 1.409 . S
C1437 C1435 1.415 . S
C1438 H1428 0.930 . S
C1438 C1436 1.419 . S
C1438 C1439 1.362 . S
C1439 H1429 0.930 . S
C1439 C1432 1.409 . S
C1439 C1438 1.362 . S
H1440 C1446 0.930 . S
H1441 C1449 0.930 . S
H1442 C1450 0.930 . S
H1443 C1451 0.930 . S
H1444 C1454 0.930 . S
H1445 C1455 0.930 . S
C1446 H1440 0.930 . S
C1446 C1447 1.355 . S
C1446 C1448 1.415 . S
C1447 C1446 1.355 . S
C1447 C1449 1.419 . S
C1448 C1446 1.415 . S
C1448 C1453 1.425 . S
C1448 C1455 1.409 . S
C1449 H1441 0.930 . S
C1449 C1447 1.419 . S
C1449 C1450 1.362 . S
C1450 H1442 0.930 . S
C1450 C1449 1.362 . S
C1450 C1453 1.409 . S
C1451 H1443 0.930 . S
C1451 C1452 1.355 . S
C1451 C1453 1.415 . S
C1452 C1451 1.355 . S
C1452 C1454 1.419 . S
C1453 C1448 1.425 . S
C1453 C1450 1.409 . S
C1453 C1451 1.415 . S
C1454 H1444 0.930 . S
C1454 C1452 1.419 . S
C1454 C1455 1.362 . S
C1455 H1445 0.930 . S
C1455 C1448 1.409 . S
C1455 C1454 1.362 . S
H1456 C1462 0.930 . S
H1457 C1465 0.930 . S
H1458 C1466 0.930 . S
H1459 C1467 0.930 . S
H1460 C1470 0.930 . S
H1461 C1471 0.930 . S
C1462 H1456 0.930 . S
C1462 C1463 1.355 . S
C1462 C1464 1.415 . S
C1463 C1462 1.355 . S
C1463 C1465 1.419 . S
C1464 C1462 1.415 . S
C1464 C1469 1.425 . S
C1464 C1471 1.409 . S
C1465 H1457 0.930 . S
C1465 C1463 1.419 . S
C1465 C1466 1.362 . S
C1466 H1458 0.930 . S
C1466 C1465 1.362 . S
C1466 C1469 1.409 . S
C1467 H1459 0.930 . S
C1467 C1468 1.355 . S
C1467 C1469 1.415 . S
C1468 C1467 1.355 . S
C1468 C1470 1.419 . S
C1469 C1464 1.425 . S
C1469 C1466 1.409 . S
C1469 C1467 1.415 . S
C1470 H1460 0.930 . S
C1470 C1468 1.419 . S
C1470 C1471 1.362 . S
C1471 H1461 0.930 . S
C1471 C1464 1.409 . S
C1471 C1470 1.362 . S
H1472 C1478 0.930 . S
H1473 C1481 0.930 . S
H1474 C1482 0.930 . S
H1475 C1483 0.930 . S
H1476 C1486 0.930 . S
H1477 C1487 0.930 . S
C1478 H1472 0.930 . S
C1478 C1479 1.355 . S
C1478 C1480 1.415 . S
C1479 C1478 1.355 . S
C1479 C1481 1.419 . S
C1480 C1478 1.415 . S
C1480 C1485 1.425 . S
C1480 C1487 1.409 . S
C1481 H1473 0.930 . S
C1481 C1479 1.419 . S
C1481 C1482 1.362 . S
C1482 H1474 0.930 . S
C1482 C1481 1.362 . S
C1482 C1485 1.409 . S
C1483 H1475 0.930 . S
C1483 C1484 1.355 . S
C1483 C1485 1.415 . S
C1484 C1483 1.355 . S
C1484 C1486 1.419 . S
C1485 C1480 1.425 . S
C1485 C1482 1.409 . S
C1485 C1483 1.415 . S
C1486 H1476 0.930 . S
C1486 C1484 1.419 . S
C1486 C1487 1.362 . S
C1487 H1477 0.930 . S
C1487 C1480 1.409 . S
C1487 C1486 1.362 . S
H1488 C1494 0.930 . S
H1489 C1497 0.930 . S
H1490 C1498 0.930 . S
H1491 C1499 0.930 . S
H1492 C1502 0.930 . S
H1493 C1503 0.930 . S
C1494 H1488 0.930 . S
C1494 C1495 1.355 . S
C1494 C1496 1.415 . S
C1495 C1494 1.355 . S
C1495 C1497 1.419 . S
C1496 C1494 1.415 . S
C1496 C1501 1.425 . S
C1496 C1503 1.409 . S
C1497 H1489 0.930 . S
C1497 C1495 1.419 . S
C1497 C1498 1.362 . S
C1498 H1490 0.930 . S
C1498 C1497 1.362 . S
C1498 C1501 1.409 . S
C1499 H1491 0.930 . S
C1499 C1500 1.355 . S
C1499 C1501 1.415 . S
C1500 C1499 1.355 . S
C1500 C1502 1.419 . S
C1501 C1496 1.425 . S
C1501 C1498 1.409 . S
C1501 C1499 1.415 . S
C1502 H1492 0.930 . S
C1502 C1500 1.419 . S
C1502 C1503 1.362 . S
C1503 H1493 0.930 . S
C1503 C1496 1.409 . S
C1503 C1502 1.362 . S
H1504 C1510 0.930 . S
H1505 C1513 0.930 . S
H1506 C1514 0.930 . S
H1507 C1515 0.930 . S
H1508 C1518 0.930 . S
H1509 C1519 0.930 . S
C1510 H1504 0.930 . S
C1510 C1511 1.355 . S
C1510 C1512 1.415 . S
C1511 C1510 1.355 . S
C1511 C1513 1.419 . S
C1512 C1510 1.415 . S
C1512 C1517 1.425 . S
C1512 C1519 1.409 . S
C1513 H1505 0.930 . S
C1513 C1511 1.419 . S
C1513 C1514 1.362 . S
C1514 H1506 0.930 . S
C1514 C1513 1.362 . S
C1514 C1517 1.409 . S
C1515 H1507 0.930 . S
C1515 C1516 1.355 . S
C1515 C1517 1.415 . S
C1516 C1515 1.355 . S
C1516 C1518 1.419 . S
C1517 C1512 1.425 . S
C1517 C1514 1.409 . S
C1517 C1515 1.415 . S
C1518 H1508 0.930 . S
C1518 C1516 1.419 . S
C1518 C1519 1.362 . S
C1519 H1509 0.930 . S
C1519 C1512 1.409 . S
C1519 C1518 1.362 . S
H1520 C1526 0.930 . S
H1521 C1529 0.930 . S
H1522 C1530 0.930 . S
H1523 C1531 0.930 . S
H1524 C1534 0.930 . S
H1525 C1535 0.930 . S
C1526 H1520 0.930 . S
C1526 C1527 1.355 . S
C1526 C1528 1.415 . S
C1527 C1526 1.355 . S
C1527 C1529 1.419 . S
C1528 C1526 1.415 . S
C1528 C1533 1.425 . S
C1528 C1535 1.409 . S
C1529 H1521 0.930 . S
C1529 C1527 1.419 . S
C1529 C1530 1.362 . S
C1530 H1522 0.930 . S
C1530 C1529 1.362 . S
C1530 C1533 1.409 . S
C1531 H1523 0.930 . S
C1531 C1532 1.355 . S
C1531 C1533 1.415 . S
C1532 C1531 1.355 . S
C1532 C1534 1.419 . S
C1533 C1528 1.425 . S
C1533 C1530 1.409 . S
C1533 C1531 1.415 . S
C1534 H1524 0.930 . S
C1534 C1532 1.419 . S
C1534 C1535 1.362 . S
C1535 H1525 0.930 . S
C1535 C1528 1.409 . S
C1535 C1534 1.362 . S
H1536 C1542 0.930 . S
H1537 C1545 0.944 . S
H1538 C1546 0.930 . S
H1539 C1547 0.930 . S
H1540 C1550 0.930 . S
H1541 C1551 0.930 . S
C1542 H1536 0.930 . S
C1542 C1543 1.355 . S
C1542 C1544 1.415 . S
C1543 C1542 1.355 . S
C1543 C1545 1.394 1_545 S
C1544 C1542 1.415 . S
C1544 C1549 1.453 . S
C1544 C1551 1.409 . S
C1545 H1537 0.944 . S
C1545 C1543 1.394 1_565 S
C1545 C1546 1.374 . S
C1546 H1538 0.930 . S
C1546 C1545 1.374 . S
C1546 C1549 1.394 1_565 S
C1547 H1539 0.930 . S
C1547 C1548 1.355 1_565 S
C1547 C1549 1.404 1_565 S
C1548 C1547 1.355 1_545 S
C1548 C1550 1.419 . S
C1549 C1544 1.453 . S
C1549 C1546 1.394 1_545 S
C1549 C1547 1.404 1_545 S
C1550 H1540 0.930 . S
C1550 C1548 1.419 . S
C1550 C1551 1.362 . S
C1551 H1541 0.930 . S
C1551 C1544 1.409 . S
C1551 C1550 1.362 . S
H1552 C1558 0.930 . S
H1553 C1561 0.930 . S
H1554 C1562 0.930 . S
H1555 C1563 0.930 . S
H1556 C1566 0.930 . S
H1557 C1567 0.930 . S
C1558 H1552 0.930 . S
C1558 C1559 1.355 . S
C1558 C1560 1.415 . S
C1559 C1558 1.355 . S
C1559 C1561 1.419 . S
C1560 C1558 1.415 . S
C1560 C1565 1.425 . S
C1560 C1567 1.409 . S
C1561 H1553 0.930 . S
C1561 C1559 1.419 . S
C1561 C1562 1.362 . S
C1562 H1554 0.930 . S
C1562 C1561 1.362 . S
C1562 C1565 1.409 . S
C1563 H1555 0.930 . S
C1563 C1564 1.355 . S
C1563 C1565 1.415 . S
C1564 C1563 1.355 . S
C1564 C1566 1.419 . S
C1565 C1560 1.425 . S
C1565 C1562 1.409 . S
C1565 C1563 1.415 . S
C1566 H1556 0.930 . S
C1566 C1564 1.419 . S
C1566 C1567 1.362 . S
C1567 H1557 0.930 . S
C1567 C1560 1.409 . S
C1567 C1566 1.362 . S
H1568 C1574 0.930 1_565 S
H1569 C1577 0.930 . S
H1570 C1578 0.930 . S
H1571 C1579 0.930 . S
H1572 C1582 0.930 . S
H1573 C1583 0.930 1_565 S
C1574 H1568 0.930 1_545 S
C1574 C1575 1.355 . S
C1574 C1576 1.415 . S
C1575 C1574 1.355 . S
C1575 C1577 1.419 . S
C1576 C1574 1.415 . S
C1576 C1581 1.425 . S
C1576 C1583 1.409 . S
C1577 H1569 0.930 . S
C1577 C1575 1.419 . S
C1577 C1578 1.362 . S
C1578 H1570 0.930 . S
C1578 C1577 1.362 . S
C1578 C1581 1.409 . S
C1579 H1571 0.930 . S
C1579 C1580 1.355 . S
C1579 C1581 1.415 . S
C1580 C1579 1.355 . S
C1580 C1582 1.419 . S
C1581 C1576 1.425 . S
C1581 C1578 1.409 . S
C1581 C1579 1.415 . S
C1582 H1572 0.930 . S
C1582 C1580 1.419 . S
C1582 C1583 1.362 . S
C1583 H1573 0.930 1_545 S
C1583 C1576 1.409 . S
C1583 C1582 1.362 . S
H1584 C1590 0.930 . S
H1585 C1593 0.930 . S
H1586 C1594 0.930 . S
H1587 C1595 0.930 . S
H1588 C1598 0.930 . S
H1589 C1599 0.930 . S
C1590 H1584 0.930 . S
C1590 C1591 1.355 . S
C1590 C1592 1.415 . S
C1591 C1590 1.355 . S
C1591 C1593 1.419 . S
C1592 C1590 1.415 . S
C1592 C1597 1.425 . S
C1592 C1599 1.409 . S
C1593 H1585 0.930 . S
C1593 C1591 1.419 . S
C1593 C1594 1.362 . S
C1594 H1586 0.930 . S
C1594 C1593 1.362 . S
C1594 C1597 1.409 . S
C1595 H1587 0.930 . S
C1595 C1596 1.355 . S
C1595 C1597 1.415 . S
C1596 C1595 1.355 . S
C1596 C1598 1.419 . S
C1597 C1592 1.425 . S
C1597 C1594 1.409 . S
C1597 C1595 1.415 . S
C1598 H1588 0.930 . S
C1598 C1596 1.419 . S
C1598 C1599 1.362 . S
C1599 H1589 0.930 . S
C1599 C1592 1.409 . S
C1599 C1598 1.362 . S
H1600 C1606 0.930 1_565 S
H1601 C1609 0.930 . S
H1602 C1610 0.930 . S
H1603 C1611 0.930 . S
H1604 C1614 0.930 . S
H1605 C1615 0.930 1_565 S
C1606 H1600 0.930 1_545 S
C1606 C1607 1.355 . S
C1606 C1608 1.415 . S
C1607 C1606 1.355 . S
C1607 C1609 1.419 . S
C1608 C1606 1.415 . S
C1608 C1613 1.425 . S
C1608 C1615 1.409 . S
C1609 H1601 0.930 . S
C1609 C1607 1.419 . S
C1609 C1610 1.362 . S
C1610 H1602 0.930 . S
C1610 C1609 1.362 . S
C1610 C1613 1.409 . S
C1611 H1603 0.930 . S
C1611 C1612 1.355 . S
C1611 C1613 1.415 . S
C1612 C1611 1.355 . S
C1612 C1614 1.419 . S
C1613 C1608 1.425 . S
C1613 C1610 1.409 . S
C1613 C1611 1.415 . S
C1614 H1604 0.930 . S
C1614 C1612 1.419 . S
C1614 C1615 1.362 . S
C1615 H1605 0.930 1_545 S
C1615 C1608 1.409 . S
C1615 C1614 1.362 . S
H1616 C1622 0.930 . S
H1617 C1625 0.930 . S
H1618 C1626 0.930 . S
H1619 C1627 0.930 . S
H1620 C1630 0.930 . S
H1621 C1631 0.930 . S
C1622 H1616 0.930 . S
C1622 C1623 1.355 . S
C1622 C1624 1.415 . S
C1623 C1622 1.355 . S
C1623 C1625 1.419 . S
C1624 C1622 1.415 . S
C1624 C1629 1.425 . S
C1624 C1631 1.409 . S
C1625 H1617 0.930 . S
C1625 C1623 1.419 . S
C1625 C1626 1.362 . S
C1626 H1618 0.930 . S
C1626 C1625 1.362 . S
C1626 C1629 1.409 . S
C1627 H1619 0.930 . S
C1627 C1628 1.355 . S
C1627 C1629 1.415 . S
C1628 C1627 1.355 . S
C1628 C1630 1.419 . S
C1629 C1624 1.425 . S
C1629 C1626 1.409 . S
C1629 C1627 1.415 . S
C1630 H1620 0.930 . S
C1630 C1628 1.419 . S
C1630 C1631 1.362 . S
C1631 H1621 0.930 . S
C1631 C1624 1.409 . S
C1631 C1630 1.362 . S
H1632 C1638 0.930 . S
H1633 C1641 0.930 . S
H1634 C1642 0.930 . S
H1635 C1643 0.930 . S
H1636 C1646 0.930 . S
H1637 C1647 0.930 . S
C1638 H1632 0.930 . S
C1638 C1639 1.355 . S
C1638 C1640 1.415 1_545 S
C1639 C1638 1.355 . S
C1639 C1641 1.419 . S
C1640 C1638 1.415 1_565 S
C1640 C1645 1.425 . S
C1640 C1647 1.409 . S
C1641 H1633 0.930 . S
C1641 C1639 1.419 . S
C1641 C1642 1.362 . S
C1642 H1634 0.930 . S
C1642 C1641 1.362 . S
C1642 C1645 1.409 1_545 S
C1643 H1635 0.930 . S
C1643 C1644 1.355 . S
C1643 C1645 1.415 . S
C1644 C1643 1.355 . S
C1644 C1646 1.419 . S
C1645 C1640 1.425 . S
C1645 C1642 1.409 1_565 S
C1645 C1643 1.415 . S
C1646 H1636 0.930 . S
C1646 C1644 1.419 . S
C1646 C1647 1.362 . S
C1647 H1637 0.930 . S
C1647 C1640 1.409 . S
C1647 C1646 1.362 . S
H1648 C1654 0.930 . S
H1649 C1657 0.930 . S
H1650 C1658 0.930 . S
H1651 C1659 0.930 . S
H1652 C1662 0.930 . S
H1653 C1663 0.930 . S
C1654 H1648 0.930 . S
C1654 C1655 1.355 . S
C1654 C1656 1.415 . S
C1655 C1654 1.355 . S
C1655 C1657 1.419 . S
C1656 C1654 1.415 . S
C1656 C1661 1.425 . S
C1656 C1663 1.409 . S
C1657 H1649 0.930 . S
C1657 C1655 1.419 . S
C1657 C1658 1.362 . S
C1658 H1650 0.930 . S
C1658 C1657 1.362 . S
C1658 C1661 1.409 . S
C1659 H1651 0.930 . S
C1659 C1660 1.355 . S
C1659 C1661 1.415 . S
C1660 C1659 1.355 . S
C1660 C1662 1.419 . S
C1661 C1656 1.425 . S
C1661 C1658 1.409 . S
C1661 C1659 1.415 . S
C1662 H1652 0.930 . S
C1662 C1660 1.419 . S
C1662 C1663 1.362 . S
C1663 H1653 0.930 . S
C1663 C1656 1.409 . S
C1663 C1662 1.362 . S
H1664 C1670 0.930 1_556 S
H1665 C1673 0.930 . S
H1666 C1674 0.930 . S
H1667 C1675 0.930 . S
H1668 C1678 0.930 . S
H1669 C1679 0.930 . S
C1670 H1664 0.930 1_554 S
C1670 C1671 1.355 . S
C1670 C1672 1.415 . S
C1671 C1670 1.355 . S
C1671 C1673 1.419 . S
C1672 C1670 1.415 . S
C1672 C1677 1.425 . S
C1672 C1679 1.409 1_554 S
C1673 H1665 0.930 . S
C1673 C1671 1.419 . S
C1673 C1674 1.362 . S
C1674 H1666 0.930 . S
C1674 C1673 1.362 . S
C1674 C1677 1.409 . S
C1675 H1667 0.930 . S
C1675 C1676 1.355 1_554 S
C1675 C1677 1.415 . S
C1676 C1675 1.355 1_556 S
C1676 C1678 1.419 . S
C1677 C1672 1.425 . S
C1677 C1674 1.409 . S
C1677 C1675 1.415 . S
C1678 H1668 0.930 . S
C1678 C1676 1.419 . S
C1678 C1679 1.362 . S
C1679 H1669 0.930 . S
C1679 C1672 1.409 1_556 S
C1679 C1678 1.362 . S
H1680 C1686 0.930 . S
H1681 C1689 0.930 . S
H1682 C1690 0.930 . S
H1683 C1691 0.930 . S
H1684 C1694 0.930 . S
H1685 C1695 0.930 . S
C1686 H1680 0.930 . S
C1686 C1687 1.355 . S
C1686 C1688 1.415 . S
C1687 C1686 1.355 . S
C1687 C1689 1.419 . S
C1688 C1686 1.415 . S
C1688 C1693 1.425 . S
C1688 C1695 1.409 . S
C1689 H1681 0.930 . S
C1689 C1687 1.419 . S
C1689 C1690 1.362 . S
C1690 H1682 0.930 . S
C1690 C1689 1.362 . S
C1690 C1693 1.409 . S
C1691 H1683 0.930 . S
C1691 C1692 1.355 . S
C1691 C1693 1.415 . S
C1692 C1691 1.355 . S
C1692 C1694 1.419 . S
C1693 C1688 1.425 . S
C1693 C1690 1.409 . S
C1693 C1691 1.415 . S
C1694 H1684 0.930 . S
C1694 C1692 1.419 . S
C1694 C1695 1.362 . S
C1695 H1685 0.930 . S
C1695 C1688 1.409 . S
C1695 C1694 1.362 . S
H1696 C1702 0.930 . S
H1697 C1705 0.930 . S
H1698 C1706 0.930 . S
H1699 C1707 0.930 . S
H1700 C1710 0.930 . S
H1701 C1711 0.930 . S
C1702 H1696 0.930 . S
C1702 C1703 1.355 . S
C1702 C1704 1.415 . S
C1703 C1702 1.355 . S
C1703 C1705 1.419 . S
C1704 C1702 1.415 . S
C1704 C1709 1.425 . S
C1704 C1711 1.409 . S
C1705 H1697 0.930 . S
C1705 C1703 1.419 . S
C1705 C1706 1.362 . S
C1706 H1698 0.930 . S
C1706 C1705 1.362 . S
C1706 C1709 1.409 . S
C1707 H1699 0.930 . S
C1707 C1708 1.355 . S
C1707 C1709 1.415 . S
C1708 C1707 1.355 . S
C1708 C1710 1.419 . S
C1709 C1704 1.425 . S
C1709 C1706 1.409 . S
C1709 C1707 1.415 . S
C1710 H1700 0.930 . S
C1710 C1708 1.419 . S
C1710 C1711 1.362 . S
C1711 H1701 0.930 . S
C1711 C1704 1.409 . S
C1711 C1710 1.362 . S
H1712 C1718 0.930 . S
H1713 C1721 0.930 . S
H1714 C1722 0.930 . S
H1715 C1723 0.930 . S
H1716 C1726 0.930 . S
H1717 C1727 0.930 . S
C1718 H1712 0.930 . S
C1718 C1719 1.355 . S
C1718 C1720 1.415 . S
C1719 C1718 1.355 . S
C1719 C1721 1.419 . S
C1720 C1718 1.415 . S
C1720 C1725 1.425 . S
C1720 C1727 1.409 . S
C1721 H1713 0.930 . S
C1721 C1719 1.419 . S
C1721 C1722 1.362 . S
C1722 H1714 0.930 . S
C1722 C1721 1.362 . S
C1722 C1725 1.409 . S
C1723 H1715 0.930 . S
C1723 C1724 1.355 . S
C1723 C1725 1.415 . S
C1724 C1723 1.355 . S
C1724 C1726 1.419 . S
C1725 C1720 1.425 . S
C1725 C1722 1.409 . S
C1725 C1723 1.415 . S
C1726 H1716 0.930 . S
C1726 C1724 1.419 . S
C1726 C1727 1.362 . S
C1727 H1717 0.930 . S
C1727 C1720 1.409 . S
C1727 C1726 1.362 . S
H1728 C1734 0.930 . S
H1729 C1737 0.930 . S
H1730 C1738 0.930 . S
H1731 C1739 0.930 . S
H1732 C1742 0.930 . S
H1733 C1743 0.930 . S
C1734 H1728 0.930 . S
C1734 C1735 1.355 . S
C1734 C1736 1.415 . S
C1735 C1734 1.355 . S
C1735 C1737 1.419 . S
C1736 C1734 1.415 . S
C1736 C1741 1.425 . S
C1736 C1743 1.409 . S
C1737 H1729 0.930 . S
C1737 C1735 1.419 . S
C1737 C1738 1.362 . S
C1738 H1730 0.930 . S
C1738 C1737 1.362 . S
C1738 C1741 1.409 . S
C1739 H1731 0.930 . S
C1739 C1740 1.355 . S
C1739 C1741 1.415 . S
C1740 C1739 1.355 . S
C1740 C1742 1.419 . S
C1741 C1736 1.425 . S
C1741 C1738 1.409 . S
C1741 C1739 1.415 . S
C1742 H1732 0.930 . S
C1742 C1740 1.419 . S
C1742 C1743 1.362 . S
C1743 H1733 0.930 . S
C1743 C1736 1.409 . S
C1743 C1742 1.362 . S
H1744 C1750 0.930 . S
H1745 C1753 0.930 . S
H1746 C1754 0.930 . S
H1747 C1755 0.930 . S
H1748 C1758 0.930 . S
H1749 C1759 0.930 . S
C1750 H1744 0.930 . S
C1750 C1751 1.355 . S
C1750 C1752 1.415 . S
C1751 C1750 1.355 . S
C1751 C1753 1.419 . S
C1752 C1750 1.415 . S
C1752 C1757 1.425 . S
C1752 C1759 1.409 . S
C1753 H1745 0.930 . S
C1753 C1751 1.419 . S
C1753 C1754 1.362 . S
C1754 H1746 0.930 . S
C1754 C1753 1.362 . S
C1754 C1757 1.409 . S
C1755 H1747 0.930 . S
C1755 C1756 1.355 . S
C1755 C1757 1.415 . S
C1756 C1755 1.355 . S
C1756 C1758 1.419 . S
C1757 C1752 1.425 . S
C1757 C1754 1.409 . S
C1757 C1755 1.415 . S
C1758 H1748 0.930 . S
C1758 C1756 1.419 . S
C1758 C1759 1.362 . S
C1759 H1749 0.930 . S
C1759 C1752 1.409 . S
C1759 C1758 1.362 . S
H1760 C1766 0.930 . S
H1761 C1769 0.930 . S
H1762 C1770 0.930 . S
H1763 C1771 0.930 . S
H1764 C1774 0.930 . S
H1765 C1775 0.930 . S
C1766 H1760 0.930 . S
C1766 C1767 1.355 . S
C1766 C1768 1.415 . S
C1767 C1766 1.355 . S
C1767 C1769 1.419 . S
C1768 C1766 1.415 . S
C1768 C1773 1.425 . S
C1768 C1775 1.409 . S
C1769 H1761 0.930 . S
C1769 C1767 1.419 . S
C1769 C1770 1.362 . S
C1770 H1762 0.930 . S
C1770 C1769 1.362 . S
C1770 C1773 1.409 . S
C1771 H1763 0.930 . S
C1771 C1772 1.355 . S
C1771 C1773 1.415 . S
C1772 C1771 1.355 . S
C1772 C1774 1.419 . S
C1773 C1768 1.425 . S
C1773 C1770 1.409 . S
C1773 C1771 1.415 . S
C1774 H1764 0.930 . S
C1774 C1772 1.419 . S
C1774 C1775 1.362 . S
C1775 H1765 0.930 . S
C1775 C1768 1.409 . S
C1775 C1774 1.362 . S
H1776 C1782 0.930 . S
H1777 C1785 0.930 . S
H1778 C1786 0.930 . S
H1779 C1787 0.930 . S
H1780 C1790 0.930 . S
H1781 C1791 0.930 . S
C1782 H1776 0.930 . S
C1782 C1783 1.355 . S
C1782 C1784 1.415 . S
C1783 C1782 1.355 . S
C1783 C1785 1.419 . S
C1784 C1782 1.415 . S
C1784 C1789 1.425 . S
C1784 C1791 1.409 . S
C1785 H1777 0.930 . S
C1785 C1783 1.419 . S
C1785 C1786 1.362 . S
C1786 H1778 0.930 . S
C1786 C1785 1.362 . S
C1786 C1789 1.409 . S
C1787 H1779 0.930 . S
C1787 C1788 1.355 . S
C1787 C1789 1.415 . S
C1788 C1787 1.355 . S
C1788 C1790 1.419 . S
C1789 C1784 1.425 . S
C1789 C1786 1.409 . S
C1789 C1787 1.415 . S
C1790 H1780 0.930 . S
C1790 C1788 1.419 . S
C1790 C1791 1.362 . S
C1791 H1781 0.930 . S
C1791 C1784 1.409 . S
C1791 C1790 1.362 . S
H1792 C1798 0.930 . S
H1793 C1801 0.930 . S
H1794 C1802 0.930 . S
H1795 C1803 0.930 . S
H1796 C1806 0.946 1_554 S
H1797 C1807 0.930 . S
C1798 H1792 0.930 . S
C1798 C1799 1.355 1_655 S
C1798 C1800 1.415 1_655 S
C1799 C1798 1.355 1_455 S
C1799 C1801 1.419 . S
C1800 C1798 1.415 1_455 S
C1800 C1805 1.425 . S
C1800 C1807 1.409 1_455 S
C1801 H1793 0.930 . S
C1801 C1799 1.419 . S
C1801 C1802 1.362 . S
C1802 H1794 0.930 . S
C1802 C1801 1.362 . S
C1802 C1805 1.409 . S
C1803 H1795 0.930 . S
C1803 C1804 1.355 . S
C1803 C1805 1.415 . S
C1804 C1803 1.355 . S
C1804 C1806 1.419 . S
C1805 C1800 1.425 . S
C1805 C1802 1.409 . S
C1805 C1803 1.415 . S
C1806 H1796 0.946 1_556 S
C1806 C1804 1.419 . S
C1806 C1807 1.362 1_455 S
C1807 H1797 0.930 . S
C1807 C1800 1.409 1_655 S
C1807 C1806 1.362 1_655 S
H1808 C1814 0.930 . S
H1809 C1817 0.930 . S
H1810 C1818 0.930 . S
H1811 C1819 0.930 . S
H1812 C1822 0.930 . S
H1813 C1823 0.930 . S
C1814 H1808 0.930 . S
C1814 C1815 1.355 . S
C1814 C1816 1.415 . S
C1815 C1814 1.355 . S
C1815 C1817 1.419 . S
C1816 C1814 1.415 . S
C1816 C1821 1.425 . S
C1816 C1823 1.409 . S
C1817 H1809 0.930 . S
C1817 C1815 1.419 . S
C1817 C1818 1.362 . S
C1818 H1810 0.930 . S
C1818 C1817 1.362 . S
C1818 C1821 1.409 . S
C1819 H1811 0.930 . S
C1819 C1820 1.355 . S
C1819 C1821 1.415 . S
C1820 C1819 1.355 . S
C1820 C1822 1.419 . S
C1821 C1816 1.425 . S
C1821 C1818 1.409 . S
C1821 C1819 1.415 . S
C1822 H1812 0.930 . S
C1822 C1820 1.419 . S
C1822 C1823 1.362 . S
C1823 H1813 0.930 . S
C1823 C1816 1.409 . S
C1823 C1822 1.362 . S
H1824 C1830 0.930 . S
H1825 C1833 0.930 . S
H1826 C1834 0.930 . S
H1827 C1835 0.930 . S
H1828 C1838 0.930 . S
H1829 C1839 0.930 . S
C1830 H1824 0.930 . S
C1830 C1831 1.355 . S
C1830 C1832 1.415 . S
C1831 C1830 1.355 . S
C1831 C1833 1.419 . S
C1832 C1830 1.415 . S
C1832 C1837 1.425 . S
C1832 C1839 1.409 . S
C1833 H1825 0.930 . S
C1833 C1831 1.419 . S
C1833 C1834 1.362 . S
C1834 H1826 0.930 . S
C1834 C1833 1.362 . S
C1834 C1837 1.409 . S
C1835 H1827 0.930 . S
C1835 C1836 1.355 . S
C1835 C1837 1.415 . S
C1836 C1835 1.355 . S
C1836 C1838 1.419 . S
C1837 C1832 1.425 . S
C1837 C1834 1.409 . S
C1837 C1835 1.415 . S
C1838 H1828 0.930 . S
C1838 C1836 1.419 . S
C1838 C1839 1.362 . S
C1839 H1829 0.930 . S
C1839 C1832 1.409 . S
C1839 C1838 1.362 . S
H1840 C1846 0.930 . S
H1841 C1849 0.930 . S
H1842 C1850 0.930 . S
H1843 C1851 0.930 . S
H1844 C1854 0.930 . S
H1845 C1855 0.930 . S
C1846 H1840 0.930 . S
C1846 C1847 1.355 . S
C1846 C1848 1.415 . S
C1847 C1846 1.355 . S
C1847 C1849 1.419 . S
C1848 C1846 1.415 . S
C1848 C1853 1.425 . S
C1848 C1855 1.409 . S
C1849 H1841 0.930 . S
C1849 C1847 1.419 . S
C1849 C1850 1.362 . S
C1850 H1842 0.930 . S
C1850 C1849 1.362 . S
C1850 C1853 1.409 . S
C1851 H1843 0.930 . S
C1851 C1852 1.355 . S
C1851 C1853 1.415 . S
C1852 C1851 1.355 . S
C1852 C1854 1.419 . S
C1853 C1848 1.425 . S
C1853 C1850 1.409 . S
C1853 C1851 1.415 . S
C1854 H1844 0.930 . S
C1854 C1852 1.419 . S
C1854 C1855 1.362 . S
C1855 H1845 0.930 . S
C1855 C1848 1.409 . S
C1855 C1854 1.362 . S
H1856 C1862 0.930 . S
H1857 C1865 0.930 . S
H1858 C1866 0.932 1_655 S
H1859 C1867 0.930 . S
H1860 C1870 0.930 . S
H1861 C1871 0.930 . S
C1862 H1856 0.930 . S
C1862 C1863 1.355 . S
C1862 C1864 1.415 . S
C1863 C1862 1.355 . S
C1863 C1865 1.419 . S
C1864 C1862 1.415 . S
C1864 C1869 1.425 . S
C1864 C1871 1.409 . S
C1865 H1857 0.930 . S
C1865 C1863 1.419 . S
C1865 C1866 1.362 . S
C1866 H1858 0.932 1_455 S
C1866 C1865 1.362 . S
C1866 C1869 1.409 . S
C1867 H1859 0.930 . S
C1867 C1868 1.355 . S
C1867 C1869 1.415 . S
C1868 C1867 1.355 . S
C1868 C1870 1.419 . S
C1869 C1864 1.425 . S
C1869 C1866 1.409 . S
C1869 C1867 1.415 . S
C1870 H1860 0.930 . S
C1870 C1868 1.419 . S
C1870 C1871 1.362 . S
C1871 H1861 0.930 . S
C1871 C1864 1.409 . S
C1871 C1870 1.362 . S
H1872 C1878 0.930 . S
H1873 C1881 0.930 . S
H1874 C1882 0.930 . S
H1875 C1883 0.930 . S
H1876 C1886 0.930 . S
H1877 C1887 0.930 . S
C1878 H1872 0.930 . S
C1878 C1879 1.355 . S
C1878 C1880 1.415 . S
C1879 C1878 1.355 . S
C1879 C1881 1.419 . S
C1880 C1878 1.415 . S
C1880 C1885 1.425 . S
C1880 C1887 1.409 . S
C1881 H1873 0.930 . S
C1881 C1879 1.419 . S
C1881 C1882 1.362 . S
C1882 H1874 0.930 . S
C1882 C1881 1.362 . S
C1882 C1885 1.409 . S
C1883 H1875 0.930 . S
C1883 C1884 1.355 . S
C1883 C1885 1.415 . S
C1884 C1883 1.355 . S
C1884 C1886 1.419 . S
C1885 C1880 1.425 . S
C1885 C1882 1.409 . S
C1885 C1883 1.415 . S
C1886 H1876 0.930 . S
C1886 C1884 1.419 . S
C1886 C1887 1.362 . S
C1887 H1877 0.930 . S
C1887 C1880 1.409 . S
C1887 C1886 1.362 . S
H1888 C1894 0.930 . S
H1889 C1897 0.930 . S
H1890 C1898 0.930 . S
H1891 C1899 0.930 . S
H1892 C1902 0.930 . S
H1893 C1903 0.930 . S
C1894 H1888 0.930 . S
C1894 C1895 1.355 . S
C1894 C1896 1.415 . S
C1895 C1894 1.355 . S
C1895 C1897 1.419 . S
C1896 C1894 1.415 . S
C1896 C1901 1.425 . S
C1896 C1903 1.409 . S
C1897 H1889 0.930 . S
C1897 C1895 1.419 . S
C1897 C1898 1.362 . S
C1898 H1890 0.930 . S
C1898 C1897 1.362 . S
C1898 C1901 1.409 . S
C1899 H1891 0.930 . S
C1899 C1900 1.355 . S
C1899 C1901 1.415 . S
C1900 C1899 1.355 . S
C1900 C1902 1.419 . S
C1901 C1896 1.425 . S
C1901 C1898 1.409 . S
C1901 C1899 1.415 . S
C1902 H1892 0.930 . S
C1902 C1900 1.419 . S
C1902 C1903 1.362 . S
C1903 H1893 0.930 . S
C1903 C1896 1.409 . S
C1903 C1902 1.362 . S
H1904 C1910 0.930 . S
H1905 C1913 0.930 . S
H1906 C1914 0.930 . S
H1907 C1915 0.930 . S
H1908 C1918 0.930 . S
H1909 C1919 0.930 . S
C1910 H1904 0.930 . S
C1910 C1911 1.355 . S
C1910 C1912 1.415 . S
C1911 C1910 1.355 . S
C1911 C1913 1.419 . S
C1912 C1910 1.415 . S
C1912 C1917 1.425 . S
C1912 C1919 1.409 . S
C1913 H1905 0.930 . S
C1913 C1911 1.419 . S
C1913 C1914 1.362 . S
C1914 H1906 0.930 . S
C1914 C1913 1.362 . S
C1914 C1917 1.409 . S
C1915 H1907 0.930 . S
C1915 C1916 1.355 . S
C1915 C1917 1.415 . S
C1916 C1915 1.355 . S
C1916 C1918 1.419 . S
C1917 C1912 1.425 . S
C1917 C1914 1.409 . S
C1917 C1915 1.415 . S
C1918 H1908 0.930 . S
C1918 C1916 1.419 . S
C1918 C1919 1.362 . S
C1919 H1909 0.930 . S
C1919 C1912 1.409 . S
C1919 C1918 1.362 . S
H1920 C1926 0.930 1_565 S
H1921 C1929 0.930 . S
H1922 C1930 0.930 . S
H1923 C1931 0.930 . S
H1924 C1934 0.930 1_565 S
H1925 C1935 0.930 . S
C1926 H1920 0.930 1_545 S
C1926 C1927 1.355 . S
C1926 C1928 1.415 . S
C1927 C1926 1.355 . S
C1927 C1929 1.419 . S
C1928 C1926 1.415 . S
C1928 C1933 1.425 . S
C1928 C1935 1.409 1_545 S
C1929 H1921 0.930 . S
C1929 C1927 1.419 . S
C1929 C1930 1.362 . S
C1930 H1922 0.930 . S
C1930 C1929 1.362 . S
C1930 C1933 1.409 . S
C1931 H1923 0.930 . S
C1931 C1932 1.355 . S
C1931 C1933 1.415 1_455 S
C1932 C1931 1.355 . S
C1932 C1934 1.419 1_455 S
C1933 C1928 1.425 . S
C1933 C1930 1.409 . S
C1933 C1931 1.415 1_655 S
C1934 H1924 0.930 1_545 S
C1934 C1932 1.419 1_655 S
C1934 C1935 1.362 1_545 S
C1935 H1925 0.930 . S
C1935 C1928 1.409 1_565 S
C1935 C1934 1.362 1_565 S
H1936 C1942 0.930 . S
H1937 C1945 0.930 . S
H1938 C1946 0.930 . S
H1939 C1947 0.930 . S
H1940 C1950 0.930 . S
H1941 C1951 0.930 . S
C1942 H1936 0.930 . S
C1942 C1943 1.355 . S
C1942 C1944 1.415 . S
C1943 C1942 1.355 . S
C1943 C1945 1.419 . S
C1944 C1942 1.415 . S
C1944 C1949 1.425 . S
C1944 C1951 1.409 . S
C1945 H1937 0.930 . S
C1945 C1943 1.419 . S
C1945 C1946 1.362 . S
C1946 H1938 0.930 . S
C1946 C1945 1.362 . S
C1946 C1949 1.409 . S
C1947 H1939 0.930 . S
C1947 C1948 1.355 . S
C1947 C1949 1.415 . S
C1948 C1947 1.355 . S
C1948 C1950 1.419 . S
C1949 C1944 1.425 . S
C1949 C1946 1.409 . S
C1949 C1947 1.415 . S
C1950 H1940 0.930 . S
C1950 C1948 1.419 . S
C1950 C1951 1.362 . S
C1951 H1941 0.930 . S
C1951 C1944 1.409 . S
C1951 C1950 1.362 . S
H1952 C1958 0.930 . S
H1953 C1961 0.930 . S
H1954 C1962 0.930 . S
H1955 C1963 0.930 . S
H1956 C1966 0.930 . S
H1957 C1967 0.930 . S
C1958 H1952 0.930 . S
C1958 C1959 1.355 . S
C1958 C1960 1.415 . S
C1959 C1958 1.355 . S
C1959 C1961 1.419 1_545 S
C1960 C1958 1.415 . S
C1960 C1965 1.425 1_545 S
C1960 C1967 1.409 . S
C1961 H1953 0.930 . S
C1961 C1959 1.419 1_565 S
C1961 C1962 1.362 . S
C1962 H1954 0.930 . S
C1962 C1961 1.362 . S
C1962 C1965 1.409 . S
C1963 H1955 0.930 . S
C1963 C1964 1.351 1_565 S
C1963 C1965 1.415 . S
C1964 C1963 1.351 1_545 S
C1964 C1966 1.425 . S
C1965 C1960 1.425 1_565 S
C1965 C1962 1.409 . S
C1965 C1963 1.415 . S
C1966 H1956 0.930 . S
C1966 C1964 1.425 . S
C1966 C1967 1.362 . S
C1967 H1957 0.930 . S
C1967 C1960 1.409 . S
C1967 C1966 1.362 . S
H1968 C1974 0.930 . S
H1969 C1977 0.930 . S
H1970 C1978 0.930 . S
H1971 C1979 0.930 . S
H1972 C1982 0.930 . S
H1973 C1983 0.930 . S
C1974 H1968 0.930 . S
C1974 C1975 1.355 . S
C1974 C1976 1.415 . S
C1975 C1974 1.355 . S
C1975 C1977 1.419 . S
C1976 C1974 1.415 . S
C1976 C1981 1.425 . S
C1976 C1983 1.409 . S
C1977 H1969 0.930 . S
C1977 C1975 1.419 . S
C1977 C1978 1.362 . S
C1978 H1970 0.930 . S
C1978 C1977 1.362 . S
C1978 C1981 1.409 . S
C1979 H1971 0.930 . S
C1979 C1980 1.355 . S
C1979 C1981 1.415 . S
C1980 C1979 1.355 . S
C1980 C1982 1.419 . S
C1981 C1976 1.425 . S
C1981 C1978 1.409 . S
C1981 C1979 1.415 . S
C1982 H1972 0.930 . S
C1982 C1980 1.419 . S
C1982 C1983 1.362 . S
C1983 H1973 0.930 . S
C1983 C1976 1.409 . S
C1983 C1982 1.362 . S
H1984 C1990 0.930 . S
H1985 C1993 0.930 . S
H1986 C1994 0.930 . S
H1987 C1995 0.930 . S
H1988 C1998 0.930 1_545 S
H1989 C1999 0.930 1_455 S
C1990 H1984 0.930 . S
C1990 C1991 1.355 . S
C1990 C1992 1.414 . S
C1991 C1990 1.355 . S
C1991 C1993 1.419 1_545 S
C1992 C1990 1.414 . S
C1992 C1997 1.426 1_545 S
C1992 C1999 1.409 . S
C1993 H1985 0.930 . S
C1993 C1991 1.419 1_565 S
C1993 C1994 1.362 . S
C1994 H1986 0.930 . S
C1994 C1993 1.362 . S
C1994 C1997 1.409 . S
C1995 H1987 0.930 . S
C1995 C1996 1.355 . S
C1995 C1997 1.415 . S
C1996 C1995 1.355 . S
C1996 C1998 1.419 1_655 S
C1997 C1992 1.426 1_565 S
C1997 C1994 1.409 . S
C1997 C1995 1.415 . S
C1998 H1988 0.930 1_565 S
C1998 C1996 1.419 1_455 S
C1998 C1999 1.362 1_465 S
C1999 H1989 0.930 1_655 S
C1999 C1992 1.409 . S
C1999 C1998 1.362 1_645 S
H2000 C2006 0.930 . S
H2001 C2009 0.930 . S
H2002 C2010 0.930 . S
H2003 C2011 0.930 . S
H2004 C2014 0.930 . S
H2005 C2015 0.930 . S
C2006 H2000 0.930 . S
C2006 C2007 1.355 . S
C2006 C2008 1.415 . S
C2007 C2006 1.355 . S
C2007 C2009 1.419 . S
C2008 C2006 1.415 . S
C2008 C2013 1.425 . S
C2008 C2015 1.409 . S
C2009 H2001 0.930 . S
C2009 C2007 1.419 . S
C2009 C2010 1.362 . S
C2010 H2002 0.930 . S
C2010 C2009 1.362 . S
C2010 C2013 1.409 . S
C2011 H2003 0.930 . S
C2011 C2012 1.355 . S
C2011 C2013 1.415 . S
C2012 C2011 1.355 . S
C2012 C2014 1.419 . S
C2013 C2008 1.425 . S
C2013 C2010 1.409 . S
C2013 C2011 1.415 . S
C2014 H2004 0.930 . S
C2014 C2012 1.419 . S
C2014 C2015 1.362 . S
C2015 H2005 0.930 . S
C2015 C2008 1.409 . S
C2015 C2014 1.362 . S
H2016 C2022 0.930 . S
H2017 C2025 0.930 . S
H2018 C2026 0.930 . S
H2019 C2027 0.930 . S
H2020 C2030 0.930 . S
H2021 C2031 0.930 . S
C2022 H2016 0.930 . S
C2022 C2023 1.355 . S
C2022 C2024 1.415 . S
C2023 C2022 1.355 . S
C2023 C2025 1.419 . S
C2024 C2022 1.415 . S
C2024 C2029 1.425 . S
C2024 C2031 1.409 . S
C2025 H2017 0.930 . S
C2025 C2023 1.419 . S
C2025 C2026 1.362 . S
C2026 H2018 0.930 . S
C2026 C2025 1.362 . S
C2026 C2029 1.409 . S
C2027 H2019 0.930 . S
C2027 C2028 1.355 . S
C2027 C2029 1.415 . S
C2028 C2027 1.355 . S
C2028 C2030 1.419 . S
C2029 C2024 1.425 . S
C2029 C2026 1.409 . S
C2029 C2027 1.415 . S
C2030 H2020 0.930 . S
C2030 C2028 1.419 . S
C2030 C2031 1.362 . S
C2031 H2021 0.930 . S
C2031 C2024 1.409 . S
C2031 C2030 1.362 . S
H2032 C2038 0.930 . S
H2033 C2041 0.930 . S
H2034 C2042 0.930 . S
H2035 C2043 0.930 . S
H2036 C2046 0.930 . S
H2037 C2047 0.930 . S
C2038 H2032 0.930 . S
C2038 C2039 1.355 . S
C2038 C2040 1.415 . S
C2039 C2038 1.355 . S
C2039 C2041 1.419 . S
C2040 C2038 1.415 . S
C2040 C2045 1.425 . S
C2040 C2047 1.409 . S
C2041 H2033 0.930 . S
C2041 C2039 1.419 . S
C2041 C2042 1.362 . S
C2042 H2034 0.930 . S
C2042 C2041 1.362 . S
C2042 C2045 1.409 . S
C2043 H2035 0.930 . S
C2043 C2044 1.355 . S
C2043 C2045 1.415 . S
C2044 C2043 1.355 . S
C2044 C2046 1.419 . S
C2045 C2040 1.425 . S
C2045 C2042 1.409 . S
C2045 C2043 1.415 . S
C2046 H2036 0.930 . S
C2046 C2044 1.419 . S
C2046 C2047 1.362 . S
C2047 H2037 0.930 . S
C2047 C2040 1.409 . S
C2047 C2046 1.362 . S
H2048 C2054 0.930 . S
H2049 C2057 0.930 1_556 S
H2050 C2058 0.916 1_556 S
H2051 C2059 0.930 . S
H2052 C2062 0.946 . S
H2053 C2063 0.930 . S
C2054 H2048 0.930 . S
C2054 C2055 1.355 . S
C2054 C2056 1.415 . S
C2055 C2054 1.355 . S
C2055 C2057 1.419 . S
C2056 C2054 1.415 . S
C2056 C2061 1.425 . S
C2056 C2063 1.409 . S
C2057 H2049 0.930 1_554 S
C2057 C2055 1.419 . S
C2057 C2058 1.362 . S
C2058 H2050 0.916 1_554 S
C2058 C2057 1.362 . S
C2058 C2061 1.409 . S
C2059 H2051 0.930 . S
C2059 C2060 1.355 . S
C2059 C2061 1.415 . S
C2060 C2059 1.355 . S
C2060 C2062 1.419 . S
C2061 C2056 1.425 . S
C2061 C2058 1.409 . S
C2061 C2059 1.415 . S
C2062 H2052 0.946 . S
C2062 C2060 1.419 . S
C2062 C2063 1.362 . S
C2063 H2053 0.930 . S
C2063 C2056 1.409 . S
C2063 C2062 1.362 . S
H2064 C2070 0.930 . S
H2065 C2073 0.930 . S
H2066 C2074 0.930 . S
H2067 C2075 0.930 . S
H2068 C2078 0.930 . S
H2069 C2079 0.930 . S
C2070 H2064 0.930 . S
C2070 C2071 1.355 . S
C2070 C2072 1.415 . S
C2071 C2070 1.355 . S
C2071 C2073 1.419 . S
C2072 C2070 1.415 . S
C2072 C2077 1.425 . S
C2072 C2079 1.409 . S
C2073 H2065 0.930 . S
C2073 C2071 1.419 . S
C2073 C2074 1.362 . S
C2074 H2066 0.930 . S
C2074 C2073 1.362 . S
C2074 C2077 1.409 . S
C2075 H2067 0.930 . S
C2075 C2076 1.355 . S
C2075 C2077 1.415 . S
C2076 C2075 1.355 . S
C2076 C2078 1.419 . S
C2077 C2072 1.425 . S
C2077 C2074 1.409 . S
C2077 C2075 1.415 . S
C2078 H2068 0.930 . S
C2078 C2076 1.419 . S
C2078 C2079 1.362 . S
C2079 H2069 0.930 . S
C2079 C2072 1.409 . S
C2079 C2078 1.362 . S
H2080 C2086 0.930 . S
H2081 C2089 0.930 . S
H2082 C2090 0.930 . S
H2083 C2091 0.930 . S
H2084 C2094 0.930 . S
H2085 C2095 0.930 . S
C2086 H2080 0.930 . S
C2086 C2087 1.355 . S
C2086 C2088 1.415 . S
C2087 C2086 1.355 . S
C2087 C2089 1.419 . S
C2088 C2086 1.415 . S
C2088 C2093 1.425 . S
C2088 C2095 1.409 . S
C2089 H2081 0.930 . S
C2089 C2087 1.419 . S
C2089 C2090 1.362 . S
C2090 H2082 0.930 . S
C2090 C2089 1.362 . S
C2090 C2093 1.409 . S
C2091 H2083 0.930 . S
C2091 C2092 1.355 . S
C2091 C2093 1.415 . S
C2092 C2091 1.355 . S
C2092 C2094 1.419 . S
C2093 C2088 1.425 . S
C2093 C2090 1.409 . S
C2093 C2091 1.415 . S
C2094 H2084 0.930 . S
C2094 C2092 1.419 . S
C2094 C2095 1.362 . S
C2095 H2085 0.930 . S
C2095 C2088 1.409 . S
C2095 C2094 1.362 . S
H2096 C2102 0.930 . S
H2097 C2105 0.930 . S
H2098 C2106 0.930 . S
H2099 C2107 0.930 . S
H2100 C2110 0.930 . S
H2101 C2111 0.930 . S
C2102 H2096 0.930 . S
C2102 C2103 1.355 . S
C2102 C2104 1.415 . S
C2103 C2102 1.355 . S
C2103 C2105 1.419 . S
C2104 C2102 1.415 . S
C2104 C2109 1.425 . S
C2104 C2111 1.409 . S
C2105 H2097 0.930 . S
C2105 C2103 1.419 . S
C2105 C2106 1.362 . S
C2106 H2098 0.930 . S
C2106 C2105 1.362 . S
C2106 C2109 1.409 . S
C2107 H2099 0.930 . S
C2107 C2108 1.355 . S
C2107 C2109 1.415 . S
C2108 C2107 1.355 . S
C2108 C2110 1.419 . S
C2109 C2104 1.425 . S
C2109 C2106 1.409 . S
C2109 C2107 1.415 . S
C2110 H2100 0.930 . S
C2110 C2108 1.419 . S
C2110 C2111 1.362 . S
C2111 H2101 0.930 . S
C2111 C2104 1.409 . S
C2111 C2110 1.362 . S
H2112 C2118 0.930 . S
H2113 C2121 0.930 . S
H2114 C2122 0.930 . S
H2115 C2123 0.930 . S
H2116 C2126 0.930 . S
H2117 C2127 0.930 . S
C2118 H2112 0.930 . S
C2118 C2119 1.355 . S
C2118 C2120 1.415 . S
C2119 C2118 1.355 . S
C2119 C2121 1.419 . S
C2120 C2118 1.415 . S
C2120 C2125 1.425 . S
C2120 C2127 1.409 . S
C2121 H2113 0.930 . S
C2121 C2119 1.419 . S
C2121 C2122 1.362 . S
C2122 H2114 0.930 . S
C2122 C2121 1.362 . S
C2122 C2125 1.409 . S
C2123 H2115 0.930 . S
C2123 C2124 1.355 . S
C2123 C2125 1.415 . S
C2124 C2123 1.355 . S
C2124 C2126 1.419 . S
C2125 C2120 1.425 . S
C2125 C2122 1.409 . S
C2125 C2123 1.415 . S
C2126 H2116 0.930 . S
C2126 C2124 1.419 . S
C2126 C2127 1.362 . S
C2127 H2117 0.930 . S
C2127 C2120 1.409 . S
C2127 C2126 1.362 . S
H2128 C2134 0.930 . S
H2129 C2137 0.930 . S
H2130 C2138 0.930 . S
H2131 C2139 0.930 . S
H2132 C2142 0.930 . S
H2133 C2143 0.930 . S
C2134 H2128 0.930 . S
C2134 C2135 1.355 . S
C2134 C2136 1.415 . S
C2135 C2134 1.355 . S
C2135 C2137 1.419 . S
C2136 C2134 1.415 . S
C2136 C2141 1.425 . S
C2136 C2143 1.409 . S
C2137 H2129 0.930 . S
C2137 C2135 1.419 . S
C2137 C2138 1.362 . S
C2138 H2130 0.930 . S
C2138 C2137 1.362 . S
C2138 C2141 1.409 . S
C2139 H2131 0.930 . S
C2139 C2140 1.355 . S
C2139 C2141 1.415 . S
C2140 C2139 1.355 . S
C2140 C2142 1.419 . S
C2141 C2136 1.425 . S
C2141 C2138 1.409 . S
C2141 C2139 1.415 . S
C2142 H2132 0.930 . S
C2142 C2140 1.419 . S
C2142 C2143 1.362 . S
C2143 H2133 0.930 . S
C2143 C2136 1.409 . S
C2143 C2142 1.362 . S
H2144 C2150 0.930 . S
H2145 C2153 0.930 . S
H2146 C2154 0.930 . S
H2147 C2155 0.930 . S
H2148 C2158 0.930 . S
H2149 C2159 0.930 . S
C2150 H2144 0.930 . S
C2150 C2151 1.355 . S
C2150 C2152 1.415 . S
C2151 C2150 1.355 . S
C2151 C2153 1.419 . S
C2152 C2150 1.415 . S
C2152 C2157 1.425 . S
C2152 C2159 1.409 . S
C2153 H2145 0.930 . S
C2153 C2151 1.419 . S
C2153 C2154 1.362 . S
C2154 H2146 0.930 . S
C2154 C2153 1.362 . S
C2154 C2157 1.409 . S
C2155 H2147 0.930 . S
C2155 C2156 1.355 . S
C2155 C2157 1.415 . S
C2156 C2155 1.355 . S
C2156 C2158 1.419 . S
C2157 C2152 1.425 . S
C2157 C2154 1.409 . S
C2157 C2155 1.415 . S
C2158 H2148 0.930 . S
C2158 C2156 1.419 . S
C2158 C2159 1.362 . S
C2159 H2149 0.930 . S
C2159 C2152 1.409 . S
C2159 C2158 1.362 . S
H2160 C2166 0.930 . S
H2161 C2169 0.930 . S
H2162 C2170 0.930 . S
H2163 C2171 0.930 . S
H2164 C2174 0.930 . S
H2165 C2175 0.930 . S
C2166 H2160 0.930 . S
C2166 C2167 1.355 . S
C2166 C2168 1.415 . S
C2167 C2166 1.355 . S
C2167 C2169 1.419 . S
C2168 C2166 1.415 . S
C2168 C2173 1.425 . S
C2168 C2175 1.409 . S
C2169 H2161 0.930 . S
C2169 C2167 1.419 . S
C2169 C2170 1.362 . S
C2170 H2162 0.930 . S
C2170 C2169 1.362 . S
C2170 C2173 1.409 . S
C2171 H2163 0.930 . S
C2171 C2172 1.355 . S
C2171 C2173 1.415 . S
C2172 C2171 1.355 . S
C2172 C2174 1.419 . S
C2173 C2168 1.425 . S
C2173 C2170 1.409 . S
C2173 C2171 1.415 . S
C2174 H2164 0.930 . S
C2174 C2172 1.419 . S
C2174 C2175 1.362 . S
C2175 H2165 0.930 . S
C2175 C2168 1.409 . S
C2175 C2174 1.362 . S
H2176 C2182 0.930 . S
H2177 C2185 0.930 . S
H2178 C2186 0.930 . S
H2179 C2187 0.930 . S
H2180 C2190 0.930 . S
H2181 C2191 0.930 . S
C2182 H2176 0.930 . S
C2182 C2183 1.355 . S
C2182 C2184 1.415 . S
C2183 C2182 1.355 . S
C2183 C2185 1.419 . S
C2184 C2182 1.415 . S
C2184 C2189 1.425 . S
C2184 C2191 1.409 . S
C2185 H2177 0.930 . S
C2185 C2183 1.419 . S
C2185 C2186 1.362 . S
C2186 H2178 0.930 . S
C2186 C2185 1.362 . S
C2186 C2189 1.409 . S
C2187 H2179 0.930 . S
C2187 C2188 1.355 . S
C2187 C2189 1.415 . S
C2188 C2187 1.355 . S
C2188 C2190 1.419 . S
C2189 C2184 1.425 . S
C2189 C2186 1.409 . S
C2189 C2187 1.415 . S
C2190 H2180 0.930 . S
C2190 C2188 1.419 . S
C2190 C2191 1.362 . S
C2191 H2181 0.930 . S
C2191 C2184 1.409 . S
C2191 C2190 1.362 . S
H2192 C2198 0.930 . S
H2193 C2201 0.930 . S
H2194 C2202 0.930 . S
H2195 C2203 0.930 . S
H2196 C2206 0.930 . S
H2197 C2207 0.930 . S
C2198 H2192 0.930 . S
C2198 C2199 1.355 . S
C2198 C2200 1.415 . S
C2199 C2198 1.355 . S
C2199 C2201 1.419 . S
C2200 C2198 1.415 . S
C2200 C2205 1.425 . S
C2200 C2207 1.409 . S
C2201 H2193 0.930 . S
C2201 C2199 1.419 . S
C2201 C2202 1.362 . S
C2202 H2194 0.930 . S
C2202 C2201 1.362 . S
C2202 C2205 1.409 . S
C2203 H2195 0.930 . S
C2203 C2204 1.355 . S
C2203 C2205 1.415 . S
C2204 C2203 1.355 . S
C2204 C2206 1.419 . S
C2205 C2200 1.425 . S
C2205 C2202 1.409 . S
C2205 C2203 1.415 . S
C2206 H2196 0.930 . S
C2206 C2204 1.419 . S
C2206 C2207 1.362 . S
C2207 H2197 0.930 . S
C2207 C2200 1.409 . S
C2207 C2206 1.362 . S
H2208 C2214 0.930 . S
H2209 C2217 0.930 . S
H2210 C2218 0.930 . S
H2211 C2219 0.930 . S
H2212 C2222 0.930 . S
H2213 C2223 0.930 . S
C2214 H2208 0.930 . S
C2214 C2215 1.355 . S
C2214 C2216 1.415 . S
C2215 C2214 1.355 . S
C2215 C2217 1.419 . S
C2216 C2214 1.415 . S
C2216 C2221 1.425 . S
C2216 C2223 1.409 . S
C2217 H2209 0.930 . S
C2217 C2215 1.419 . S
C2217 C2218 1.362 . S
C2218 H2210 0.930 . S
C2218 C2217 1.362 . S
C2218 C2221 1.409 . S
C2219 H2211 0.930 . S
C2219 C2220 1.355 . S
C2219 C2221 1.415 . S
C2220 C2219 1.355 . S
C2220 C2222 1.419 . S
C2221 C2216 1.425 . S
C2221 C2218 1.409 . S
C2221 C2219 1.415 . S
C2222 H2212 0.930 . S
C2222 C2220 1.419 . S
C2222 C2223 1.362 . S
C2223 H2213 0.930 . S
C2223 C2216 1.409 . S
C2223 C2222 1.362 . S
H2224 C2230 0.930 . S
H2225 C2233 0.930 . S
H2226 C2234 0.930 . S
H2227 C2235 0.930 . S
H2228 C2238 0.930 . S
H2229 C2239 0.930 . S
C2230 H2224 0.930 . S
C2230 C2231 1.355 . S
C2230 C2232 1.415 . S
C2231 C2230 1.355 . S
C2231 C2233 1.419 . S
C2232 C2230 1.415 . S
C2232 C2237 1.425 . S
C2232 C2239 1.409 . S
C2233 H2225 0.930 . S
C2233 C2231 1.419 . S
C2233 C2234 1.362 . S
C2234 H2226 0.930 . S
C2234 C2233 1.362 . S
C2234 C2237 1.409 . S
C2235 H2227 0.930 . S
C2235 C2236 1.355 . S
C2235 C2237 1.415 . S
C2236 C2235 1.355 . S
C2236 C2238 1.419 . S
C2237 C2232 1.425 . S
C2237 C2234 1.409 . S
C2237 C2235 1.415 . S
C2238 H2228 0.930 . S
C2238 C2236 1.419 . S
C2238 C2239 1.362 . S
C2239 H2229 0.930 . S
C2239 C2232 1.409 . S
C2239 C2238 1.362 . S
H2240 C2246 0.930 . S
H2241 C2249 0.930 . S
H2242 C2250 0.930 . S
H2243 C2251 0.930 . S
H2244 C2254 0.930 . S
H2245 C2255 0.930 . S
C2246 H2240 0.930 . S
C2246 C2247 1.355 . S
C2246 C2248 1.415 . S
C2247 C2246 1.355 . S
C2247 C2249 1.419 . S
C2248 C2246 1.415 . S
C2248 C2253 1.425 . S
C2248 C2255 1.409 1_556 S
C2249 H2241 0.930 . S
C2249 C2247 1.419 . S
C2249 C2250 1.362 . S
C2250 H2242 0.930 . S
C2250 C2249 1.362 . S
C2250 C2253 1.409 . S
C2251 H2243 0.930 . S
C2251 C2252 1.355 . S
C2251 C2253 1.415 . S
C2252 C2251 1.355 . S
C2252 C2254 1.419 1_556 S
C2253 C2248 1.425 . S
C2253 C2250 1.409 . S
C2253 C2251 1.415 . S
C2254 H2244 0.930 . S
C2254 C2252 1.419 1_554 S
C2254 C2255 1.362 . S
C2255 H2245 0.930 . S
C2255 C2248 1.409 1_554 S
C2255 C2254 1.362 . S
H2256 C2262 0.930 1_455 S
H2257 C2265 0.930 . S
H2258 C2266 0.930 . S
H2259 C2267 0.930 . S
H2260 C2270 0.930 . S
H2261 C2271 0.930 . S
C2262 H2256 0.930 1_655 S
C2262 C2263 1.355 1_655 S
C2262 C2264 1.415 . S
C2263 C2262 1.355 1_455 S
C2263 C2265 1.419 1_455 S
C2264 C2262 1.415 . S
C2264 C2269 1.425 . S
C2264 C2271 1.409 . S
C2265 H2257 0.930 . S
C2265 C2263 1.419 1_655 S
C2265 C2266 1.362 . S
C2266 H2258 0.930 . S
C2266 C2265 1.362 . S
C2266 C2269 1.409 . S
C2267 H2259 0.930 . S
C2267 C2268 1.355 . S
C2267 C2269 1.415 . S
C2268 C2267 1.355 . S
C2268 C2270 1.419 . S
C2269 C2264 1.425 . S
C2269 C2266 1.409 . S
C2269 C2267 1.415 . S
C2270 H2260 0.930 . S
C2270 C2268 1.419 . S
C2270 C2271 1.362 . S
C2271 H2261 0.930 . S
C2271 C2264 1.409 . S
C2271 C2270 1.362 . S
H2272 C2278 0.930 . S
H2273 C2281 0.930 . S
H2274 C2282 0.930 . S
H2275 C2283 0.930 . S
H2276 C2286 0.930 . S
H2277 C2287 0.930 . S
C2278 H2272 0.930 . S
C2278 C2279 1.355 . S
C2278 C2280 1.415 . S
C2279 C2278 1.355 . S
C2279 C2281 1.419 . S
C2280 C2278 1.415 . S
C2280 C2285 1.425 . S
C2280 C2287 1.409 . S
C2281 H2273 0.930 . S
C2281 C2279 1.419 . S
C2281 C2282 1.362 . S
C2282 H2274 0.930 . S
C2282 C2281 1.362 . S
C2282 C2285 1.409 . S
C2283 H2275 0.930 . S
C2283 C2284 1.355 . S
C2283 C2285 1.415 . S
C2284 C2283 1.355 . S
C2284 C2286 1.419 . S
C2285 C2280 1.425 . S
C2285 C2282 1.409 . S
C2285 C2283 1.415 . S
C2286 H2276 0.930 . S
C2286 C2284 1.419 . S
C2286 C2287 1.362 . S
C2287 H2277 0.930 . S
C2287 C2280 1.409 . S
C2287 C2286 1.362 . S
H2288 C2294 0.930 . S
H2289 C2297 0.930 . S
H2290 C2298 0.930 . S
H2291 C2299 0.930 . S
H2292 C2302 0.930 . S
H2293 C2303 0.930 . S
C2294 H2288 0.930 . S
C2294 C2295 1.355 . S
C2294 C2296 1.415 . S
C2295 C2294 1.355 . S
C2295 C2297 1.419 . S
C2296 C2294 1.415 . S
C2296 C2301 1.425 . S
C2296 C2303 1.409 . S
C2297 H2289 0.930 . S
C2297 C2295 1.419 . S
C2297 C2298 1.362 . S
C2298 H2290 0.930 . S
C2298 C2297 1.362 . S
C2298 C2301 1.409 . S
C2299 H2291 0.930 . S
C2299 C2300 1.355 . S
C2299 C2301 1.415 . S
C2300 C2299 1.355 . S
C2300 C2302 1.419 . S
C2301 C2296 1.425 . S
C2301 C2298 1.409 . S
C2301 C2299 1.415 . S
C2302 H2292 0.930 . S
C2302 C2300 1.419 . S
C2302 C2303 1.362 . S
C2303 H2293 0.930 . S
C2303 C2296 1.409 . S
C2303 C2302 1.362 . S
H2304 C2310 0.930 . S
H2305 C2313 0.930 . S
H2306 C2314 0.930 . S
H2307 C2315 0.930 . S
H2308 C2318 0.930 . S
H2309 C2319 0.930 . S
C2310 H2304 0.930 . S
C2310 C2311 1.355 . S
C2310 C2312 1.415 . S
C2311 C2310 1.355 . S
C2311 C2313 1.419 . S
C2312 C2310 1.415 . S
C2312 C2317 1.425 . S
C2312 C2319 1.409 . S
C2313 H2305 0.930 . S
C2313 C2311 1.419 . S
C2313 C2314 1.362 . S
C2314 H2306 0.930 . S
C2314 C2313 1.362 . S
C2314 C2317 1.409 . S
C2315 H2307 0.930 . S
C2315 C2316 1.355 . S
C2315 C2317 1.415 . S
C2316 C2315 1.355 . S
C2316 C2318 1.419 . S
C2317 C2312 1.425 . S
C2317 C2314 1.409 . S
C2317 C2315 1.415 . S
C2318 H2308 0.930 . S
C2318 C2316 1.419 . S
C2318 C2319 1.362 . S
C2319 H2309 0.930 . S
C2319 C2312 1.409 . S
C2319 C2318 1.362 . S
H2320 C2326 0.930 . S
H2321 C2329 0.930 . S
H2322 C2330 0.930 . S
H2323 C2331 0.930 . S
H2324 C2334 0.930 . S
H2325 C2335 0.930 . S
C2326 H2320 0.930 . S
C2326 C2327 1.355 . S
C2326 C2328 1.415 . S
C2327 C2326 1.355 . S
C2327 C2329 1.419 . S
C2328 C2326 1.415 . S
C2328 C2333 1.425 . S
C2328 C2335 1.409 . S
C2329 H2321 0.930 . S
C2329 C2327 1.419 . S
C2329 C2330 1.362 . S
C2330 H2322 0.930 . S
C2330 C2329 1.362 . S
C2330 C2333 1.409 . S
C2331 H2323 0.930 . S
C2331 C2332 1.355 . S
C2331 C2333 1.415 . S
C2332 C2331 1.355 . S
C2332 C2334 1.419 . S
C2333 C2328 1.425 . S
C2333 C2330 1.409 . S
C2333 C2331 1.415 . S
C2334 H2324 0.930 . S
C2334 C2332 1.419 . S
C2334 C2335 1.362 . S
C2335 H2325 0.930 . S
C2335 C2328 1.409 . S
C2335 C2334 1.362 . S
H2336 C2342 0.930 . S
H2337 C2345 0.930 . S
H2338 C2346 0.930 . S
H2339 C2347 0.930 . S
H2340 C2350 0.930 . S
H2341 C2351 0.939 . S
C2342 H2336 0.930 . S
C2342 C2343 1.355 . S
C2342 C2344 1.415 . S
C2343 C2342 1.355 . S
C2343 C2345 1.419 . S
C2344 C2342 1.415 . S
C2344 C2349 1.425 . S
C2344 C2351 1.388 1_655 S
C2345 H2337 0.930 . S
C2345 C2343 1.419 . S
C2345 C2346 1.362 . S
C2346 H2338 0.930 . S
C2346 C2345 1.362 . S
C2346 C2349 1.409 . S
C2347 H2339 0.930 . S
C2347 C2348 1.355 1_655 S
C2347 C2349 1.415 . S
C2348 C2347 1.355 1_455 S
C2348 C2350 1.419 . S
C2349 C2344 1.425 . S
C2349 C2346 1.409 . S
C2349 C2347 1.415 . S
C2350 H2340 0.930 . S
C2350 C2348 1.419 . S
C2350 C2351 1.375 . S
C2351 H2341 0.939 . S
C2351 C2344 1.388 1_455 S
C2351 C2350 1.375 . S
H2352 C2358 0.930 . S
H2353 C2361 0.930 . S
H2354 C2362 0.930 . S
H2355 C2363 0.930 . S
H2356 C2366 0.930 . S
H2357 C2367 0.930 . S
C2358 H2352 0.930 . S
C2358 C2359 1.355 . S
C2358 C2360 1.415 . S
C2359 C2358 1.355 . S
C2359 C2361 1.419 . S
C2360 C2358 1.415 . S
C2360 C2365 1.425 . S
C2360 C2367 1.409 . S
C2361 H2353 0.930 . S
C2361 C2359 1.419 . S
C2361 C2362 1.362 . S
C2362 H2354 0.930 . S
C2362 C2361 1.362 . S
C2362 C2365 1.409 . S
C2363 H2355 0.930 . S
C2363 C2364 1.355 . S
C2363 C2365 1.415 . S
C2364 C2363 1.355 . S
C2364 C2366 1.419 . S
C2365 C2360 1.425 . S
C2365 C2362 1.409 . S
C2365 C2363 1.415 . S
C2366 H2356 0.930 . S
C2366 C2364 1.419 . S
C2366 C2367 1.362 . S
C2367 H2357 0.930 . S
C2367 C2360 1.409 . S
C2367 C2366 1.362 . S
H2368 C2374 0.930 . S
H2369 C2377 0.930 . S
H2370 C2378 0.930 . S
H2371 C2379 0.930 . S
H2372 C2382 0.930 . S
H2373 C2383 0.930 . S
C2374 H2368 0.930 . S
C2374 C2375 1.355 . S
C2374 C2376 1.415 . S
C2375 C2374 1.355 . S
C2375 C2377 1.419 . S
C2376 C2374 1.415 . S
C2376 C2381 1.425 . S
C2376 C2383 1.409 . S
C2377 H2369 0.930 . S
C2377 C2375 1.419 . S
C2377 C2378 1.362 . S
C2378 H2370 0.930 . S
C2378 C2377 1.362 . S
C2378 C2381 1.409 . S
C2379 H2371 0.930 . S
C2379 C2380 1.355 . S
C2379 C2381 1.415 . S
C2380 C2379 1.355 . S
C2380 C2382 1.419 . S
C2381 C2376 1.425 . S
C2381 C2378 1.409 . S
C2381 C2379 1.415 . S
C2382 H2372 0.930 . S
C2382 C2380 1.419 . S
C2382 C2383 1.362 . S
C2383 H2373 0.930 . S
C2383 C2376 1.409 . S
C2383 C2382 1.362 . S
H2384 C2390 0.930 . S
H2385 C2393 0.930 . S
H2386 C2394 0.930 . S
H2387 C2395 0.930 . S
H2388 C2398 0.930 . S
H2389 C2399 0.930 . S
C2390 H2384 0.930 . S
C2390 C2391 1.355 . S
C2390 C2392 1.415 . S
C2391 C2390 1.355 . S
C2391 C2393 1.419 . S
C2392 C2390 1.415 . S
C2392 C2397 1.425 . S
C2392 C2399 1.409 . S
C2393 H2385 0.930 . S
C2393 C2391 1.419 . S
C2393 C2394 1.362 . S
C2394 H2386 0.930 . S
C2394 C2393 1.362 . S
C2394 C2397 1.409 . S
C2395 H2387 0.930 . S
C2395 C2396 1.355 . S
C2395 C2397 1.415 . S
C2396 C2395 1.355 . S
C2396 C2398 1.419 . S
C2397 C2392 1.425 . S
C2397 C2394 1.409 . S
C2397 C2395 1.415 . S
C2398 H2388 0.930 . S
C2398 C2396 1.419 . S
C2398 C2399 1.362 . S
C2399 H2389 0.930 . S
C2399 C2392 1.409 . S
C2399 C2398 1.362 . S
H2400 C2406 0.930 . S
H2401 C2409 0.930 . S
H2402 C2410 0.930 . S
H2403 C2411 0.930 . S
H2404 C2414 0.930 . S
H2405 C2415 0.930 1_455 S
C2406 H2400 0.930 . S
C2406 C2407 1.355 . S
C2406 C2408 1.415 . S
C2407 C2406 1.355 . S
C2407 C2409 1.419 . S
C2408 C2406 1.415 . S
C2408 C2413 1.425 . S
C2408 C2415 1.409 . S
C2409 H2401 0.930 . S
C2409 C2407 1.419 . S
C2409 C2410 1.362 . S
C2410 H2402 0.930 . S
C2410 C2409 1.362 . S
C2410 C2413 1.409 . S
C2411 H2403 0.930 . S
C2411 C2412 1.355 . S
C2411 C2413 1.415 . S
C2412 C2411 1.355 . S
C2412 C2414 1.419 1_655 S
C2413 C2408 1.425 . S
C2413 C2410 1.409 . S
C2413 C2411 1.415 . S
C2414 H2404 0.930 . S
C2414 C2412 1.419 1_455 S
C2414 C2415 1.362 1_455 S
C2415 H2405 0.930 1_655 S
C2415 C2408 1.409 . S
C2415 C2414 1.362 1_655 S
H2416 C2422 0.930 . S
H2417 C2425 0.930 . S
H2418 C2426 0.930 . S
H2419 C2427 0.930 . S
H2420 C2430 0.930 . S
H2421 C2431 0.930 . S
C2422 H2416 0.930 . S
C2422 C2423 1.355 . S
C2422 C2424 1.415 . S
C2423 C2422 1.355 . S
C2423 C2425 1.419 . S
C2424 C2422 1.415 . S
C2424 C2429 1.425 . S
C2424 C2431 1.409 . S
C2425 H2417 0.930 . S
C2425 C2423 1.419 . S
C2425 C2426 1.362 . S
C2426 H2418 0.930 . S
C2426 C2425 1.362 . S
C2426 C2429 1.409 . S
C2427 H2419 0.930 . S
C2427 C2428 1.355 . S
C2427 C2429 1.415 . S
C2428 C2427 1.355 . S
C2428 C2430 1.419 . S
C2429 C2424 1.425 . S
C2429 C2426 1.409 . S
C2429 C2427 1.415 . S
C2430 H2420 0.930 . S
C2430 C2428 1.419 . S
C2430 C2431 1.362 . S
C2431 H2421 0.930 . S
C2431 C2424 1.409 . S
C2431 C2430 1.362 . S
H2432 C2438 0.930 . S
H2433 C2441 0.930 . S
H2434 C2442 0.930 . S
H2435 C2443 0.930 . S
H2436 C2446 0.930 . S
H2437 C2447 0.930 . S
C2438 H2432 0.930 . S
C2438 C2439 1.355 . S
C2438 C2440 1.415 . S
C2439 C2438 1.355 . S
C2439 C2441 1.419 . S
C2440 C2438 1.415 . S
C2440 C2445 1.425 . S
C2440 C2447 1.409 . S
C2441 H2433 0.930 . S
C2441 C2439 1.419 . S
C2441 C2442 1.362 . S
C2442 H2434 0.930 . S
C2442 C2441 1.362 . S
C2442 C2445 1.409 . S
C2443 H2435 0.930 . S
C2443 C2444 1.355 . S
C2443 C2445 1.415 . S
C2444 C2443 1.355 . S
C2444 C2446 1.419 . S
C2445 C2440 1.425 . S
C2445 C2442 1.409 . S
C2445 C2443 1.415 . S
C2446 H2436 0.930 . S
C2446 C2444 1.419 . S
C2446 C2447 1.362 . S
C2447 H2437 0.930 . S
C2447 C2440 1.409 . S
C2447 C2446 1.362 . S
H2448 C2454 0.930 . S
H2449 C2457 0.930 . S
H2450 C2458 0.930 1_545 S
H2451 C2459 0.930 1_545 S
H2452 C2462 0.930 . S
H2453 C2463 0.930 . S
C2454 H2448 0.930 . S
C2454 C2455 1.355 . S
C2454 C2456 1.415 . S
C2455 C2454 1.355 . S
C2455 C2457 1.419 . S
C2456 C2454 1.415 . S
C2456 C2461 1.425 . S
C2456 C2463 1.409 . S
C2457 H2449 0.930 . S
C2457 C2455 1.419 . S
C2457 C2458 1.362 . S
C2458 H2450 0.930 1_565 S
C2458 C2457 1.362 . S
C2458 C2461 1.409 . S
C2459 H2451 0.930 1_565 S
C2459 C2460 1.355 . S
C2459 C2461 1.415 . S
C2460 C2459 1.355 . S
C2460 C2462 1.419 . S
C2461 C2456 1.425 . S
C2461 C2458 1.409 . S
C2461 C2459 1.415 . S
C2462 H2452 0.930 . S
C2462 C2460 1.419 . S
C2462 C2463 1.362 . S
C2463 H2453 0.930 . S
C2463 C2456 1.409 . S
C2463 C2462 1.362 . S
H2464 C2470 0.930 . S
H2465 C2473 0.930 . S
H2466 C2474 0.930 . S
H2467 C2475 0.930 . S
H2468 C2478 0.930 . S
H2469 C2479 0.930 . S
C2470 H2464 0.930 . S
C2470 C2471 1.355 . S
C2470 C2472 1.415 . S
C2471 C2470 1.355 . S
C2471 C2473 1.419 . S
C2472 C2470 1.415 . S
C2472 C2477 1.425 . S
C2472 C2479 1.409 . S
C2473 H2465 0.930 . S
C2473 C2471 1.419 . S
C2473 C2474 1.362 . S
C2474 H2466 0.930 . S
C2474 C2473 1.362 . S
C2474 C2477 1.409 . S
C2475 H2467 0.930 . S
C2475 C2476 1.355 . S
C2475 C2477 1.415 . S
C2476 C2475 1.355 . S
C2476 C2478 1.419 . S
C2477 C2472 1.425 . S
C2477 C2474 1.409 . S
C2477 C2475 1.415 . S
C2478 H2468 0.930 . S
C2478 C2476 1.419 . S
C2478 C2479 1.362 . S
C2479 H2469 0.930 . S
C2479 C2472 1.409 . S
C2479 C2478 1.362 . S
H2480 C2486 0.930 . S
H2481 C2489 0.930 1_556 S
H2482 C2490 0.930 1_556 S
H2483 C2491 0.930 . S
H2484 C2494 0.930 . S
H2485 C2495 0.930 . S
C2486 H2480 0.930 . S
C2486 C2487 1.355 . S
C2486 C2488 1.415 . S
C2487 C2486 1.355 . S
C2487 C2489 1.419 . S
C2488 C2486 1.415 . S
C2488 C2493 1.425 . S
C2488 C2495 1.409 . S
C2489 H2481 0.930 1_554 S
C2489 C2487 1.419 . S
C2489 C2490 1.362 . S
C2490 H2482 0.930 1_554 S
C2490 C2489 1.362 . S
C2490 C2493 1.409 . S
C2491 H2483 0.930 . S
C2491 C2492 1.355 . S
C2491 C2493 1.415 . S
C2492 C2491 1.355 . S
C2492 C2494 1.419 . S
C2493 C2488 1.425 . S
C2493 C2490 1.409 . S
C2493 C2491 1.415 . S
C2494 H2484 0.930 . S
C2494 C2492 1.419 . S
C2494 C2495 1.362 . S
C2495 H2485 0.930 . S
C2495 C2488 1.409 . S
C2495 C2494 1.362 . S
H2496 C2502 0.930 . S
H2497 C2505 0.930 . S
H2498 C2506 0.930 . S
H2499 C2507 0.930 . S
H2500 C2510 0.930 . S
H2501 C2511 0.930 . S
C2502 H2496 0.930 . S
C2502 C2503 1.355 . S
C2502 C2504 1.415 . S
C2503 C2502 1.355 . S
C2503 C2505 1.419 . S
C2504 C2502 1.415 . S
C2504 C2509 1.425 . S
C2504 C2511 1.409 . S
C2505 H2497 0.930 . S
C2505 C2503 1.419 . S
C2505 C2506 1.362 . S
C2506 H2498 0.930 . S
C2506 C2505 1.362 . S
C2506 C2509 1.409 . S
C2507 H2499 0.930 . S
C2507 C2508 1.355 . S
C2507 C2509 1.415 . S
C2508 C2507 1.355 . S
C2508 C2510 1.419 . S
C2509 C2504 1.425 . S
C2509 C2506 1.409 . S
C2509 C2507 1.415 . S
C2510 H2500 0.930 . S
C2510 C2508 1.419 . S
C2510 C2511 1.362 . S
C2511 H2501 0.930 . S
C2511 C2504 1.409 . S
C2511 C2510 1.362 . S
H2512 C2518 0.930 . S
H2513 C2521 0.930 . S
H2514 C2522 0.930 . S
H2515 C2523 0.930 . S
H2516 C2526 0.930 . S
H2517 C2527 0.930 . S
C2518 H2512 0.930 . S
C2518 C2519 1.355 . S
C2518 C2520 1.415 . S
C2519 C2518 1.355 . S
C2519 C2521 1.419 . S
C2520 C2518 1.415 . S
C2520 C2525 1.425 . S
C2520 C2527 1.409 . S
C2521 H2513 0.930 . S
C2521 C2519 1.419 . S
C2521 C2522 1.362 . S
C2522 H2514 0.930 . S
C2522 C2521 1.362 . S
C2522 C2525 1.409 . S
C2523 H2515 0.930 . S
C2523 C2524 1.355 . S
C2523 C2525 1.415 . S
C2524 C2523 1.355 . S
C2524 C2526 1.419 . S
C2525 C2520 1.425 . S
C2525 C2522 1.409 . S
C2525 C2523 1.415 . S
C2526 H2516 0.930 . S
C2526 C2524 1.419 . S
C2526 C2527 1.362 . S
C2527 H2517 0.930 . S
C2527 C2520 1.409 . S
C2527 C2526 1.362 . S
H2528 C2534 0.930 . S
H2529 C2537 0.930 . S
H2530 C2538 0.930 . S
H2531 C2539 0.930 . S
H2532 C2542 0.930 . S
H2533 C2543 0.930 . S
C2534 H2528 0.930 . S
C2534 C2535 1.355 . S
C2534 C2536 1.415 . S
C2535 C2534 1.355 . S
C2535 C2537 1.419 . S
C2536 C2534 1.415 . S
C2536 C2541 1.425 . S
C2536 C2543 1.409 . S
C2537 H2529 0.930 . S
C2537 C2535 1.419 . S
C2537 C2538 1.362 . S
C2538 H2530 0.930 . S
C2538 C2537 1.362 . S
C2538 C2541 1.409 . S
C2539 H2531 0.930 . S
C2539 C2540 1.355 . S
C2539 C2541 1.415 . S
C2540 C2539 1.355 . S
C2540 C2542 1.419 . S
C2541 C2536 1.425 . S
C2541 C2538 1.409 . S
C2541 C2539 1.415 . S
C2542 H2532 0.930 . S
C2542 C2540 1.419 . S
C2542 C2543 1.362 . S
C2543 H2533 0.930 . S
C2543 C2536 1.409 . S
C2543 C2542 1.362 . S
H2544 C2550 0.930 . S
H2545 C2553 0.930 . S
H2546 C2554 0.930 . S
H2547 C2555 0.930 . S
H2548 C2558 0.930 . S
H2549 C2559 0.930 . S
C2550 H2544 0.930 . S
C2550 C2551 1.355 . S
C2550 C2552 1.415 . S
C2551 C2550 1.355 . S
C2551 C2553 1.419 . S
C2552 C2550 1.415 . S
C2552 C2557 1.425 . S
C2552 C2559 1.409 . S
C2553 H2545 0.930 . S
C2553 C2551 1.419 . S
C2553 C2554 1.362 . S
C2554 H2546 0.930 . S
C2554 C2553 1.362 . S
C2554 C2557 1.409 . S
C2555 H2547 0.930 . S
C2555 C2556 1.355 . S
C2555 C2557 1.415 . S
C2556 C2555 1.355 . S
C2556 C2558 1.419 . S
C2557 C2552 1.425 . S
C2557 C2554 1.409 . S
C2557 C2555 1.415 . S
C2558 H2548 0.930 . S
C2558 C2556 1.419 . S
C2558 C2559 1.362 . S
C2559 H2549 0.930 . S
C2559 C2552 1.409 . S
C2559 C2558 1.362 . S
H2560 C2566 0.930 . S
H2561 C2569 0.930 . S
H2562 C2570 0.930 . S
H2563 C2571 0.930 . S
H2564 C2574 0.930 . S
H2565 C2575 0.930 . S
C2566 H2560 0.930 . S
C2566 C2567 1.355 . S
C2566 C2568 1.415 . S
C2567 C2566 1.355 . S
C2567 C2569 1.419 . S
C2568 C2566 1.415 . S
C2568 C2573 1.425 . S
C2568 C2575 1.409 . S
C2569 H2561 0.930 . S
C2569 C2567 1.419 . S
C2569 C2570 1.362 . S
C2570 H2562 0.930 . S
C2570 C2569 1.362 . S
C2570 C2573 1.409 . S
C2571 H2563 0.930 . S
C2571 C2572 1.355 . S
C2571 C2573 1.415 . S
C2572 C2571 1.355 . S
C2572 C2574 1.419 . S
C2573 C2568 1.425 . S
C2573 C2570 1.409 . S
C2573 C2571 1.415 . S
C2574 H2564 0.930 . S
C2574 C2572 1.419 . S
C2574 C2575 1.362 . S
C2575 H2565 0.930 . S
C2575 C2568 1.409 . S
C2575 C2574 1.362 . S
H2576 C2582 0.930 . S
H2577 C2585 0.930 . S
H2578 C2586 0.930 . S
H2579 C2587 0.930 . S
H2580 C2590 0.930 . S
H2581 C2591 0.930 . S
C2582 H2576 0.930 . S
C2582 C2583 1.355 . S
C2582 C2584 1.415 . S
C2583 C2582 1.355 . S
C2583 C2585 1.419 . S
C2584 C2582 1.415 . S
C2584 C2589 1.425 . S
C2584 C2591 1.409 . S
C2585 H2577 0.930 . S
C2585 C2583 1.419 . S
C2585 C2586 1.362 . S
C2586 H2578 0.930 . S
C2586 C2585 1.362 . S
C2586 C2589 1.409 . S
C2587 H2579 0.930 . S
C2587 C2588 1.355 . S
C2587 C2589 1.415 . S
C2588 C2587 1.355 . S
C2588 C2590 1.419 . S
C2589 C2584 1.425 . S
C2589 C2586 1.409 . S
C2589 C2587 1.415 . S
C2590 H2580 0.930 . S
C2590 C2588 1.419 . S
C2590 C2591 1.362 . S
C2591 H2581 0.930 . S
C2591 C2584 1.409 . S
C2591 C2590 1.362 . S
H2592 C2598 0.930 . S
H2593 C2601 0.930 . S
H2594 C2602 0.930 . S
H2595 C2603 0.930 . S
H2596 C2606 0.930 . S
H2597 C2607 0.930 . S
C2598 H2592 0.930 . S
C2598 C2599 1.355 1_655 S
C2598 C2600 1.415 . S
C2599 C2598 1.355 1_455 S
C2599 C2601 1.419 . S
C2600 C2598 1.415 . S
C2600 C2605 1.425 1_655 S
C2600 C2607 1.409 . S
C2601 H2593 0.930 . S
C2601 C2599 1.419 . S
C2601 C2602 1.362 . S
C2602 H2594 0.930 . S
C2602 C2601 1.362 . S
C2602 C2605 1.409 . S
C2603 H2595 0.930 . S
C2603 C2604 1.355 1_455 S
C2603 C2605 1.415 . S
C2604 C2603 1.355 1_655 S
C2604 C2606 1.419 . S
C2605 C2600 1.425 1_455 S
C2605 C2602 1.409 . S
C2605 C2603 1.415 . S
C2606 H2596 0.930 . S
C2606 C2604 1.419 . S
C2606 C2607 1.362 . S
C2607 H2597 0.930 . S
C2607 C2600 1.409 . S
C2607 C2606 1.362 . S
H2608 C2614 0.930 . S
H2609 C2617 0.930 . S
H2610 C2618 0.930 . S
H2611 C2619 0.930 . S
H2612 C2622 0.930 . S
H2613 C2623 0.930 . S
C2614 H2608 0.930 . S
C2614 C2615 1.355 . S
C2614 C2616 1.415 . S
C2615 C2614 1.355 . S
C2615 C2617 1.419 . S
C2616 C2614 1.415 . S
C2616 C2621 1.425 . S
C2616 C2623 1.409 . S
C2617 H2609 0.930 . S
C2617 C2615 1.419 . S
C2617 C2618 1.362 . S
C2618 H2610 0.930 . S
C2618 C2617 1.362 . S
C2618 C2621 1.409 . S
C2619 H2611 0.930 . S
C2619 C2620 1.355 . S
C2619 C2621 1.415 . S
C2620 C2619 1.355 . S
C2620 C2622 1.419 . S
C2621 C2616 1.425 . S
C2621 C2618 1.409 . S
C2621 C2619 1.415 . S
C2622 H2612 0.930 . S
C2622 C2620 1.419 . S
C2622 C2623 1.362 . S
C2623 H2613 0.930 . S
C2623 C2616 1.409 . S
C2623 C2622 1.362 . S
H2624 C2630 0.930 . S
H2625 C2633 0.930 . S
H2626 C2634 0.930 . S
H2627 C2635 0.930 . S
H2628 C2638 0.930 . S
H2629 C2639 0.930 . S
C2630 H2624 0.930 . S
C2630 C2631 1.355 . S
C2630 C2632 1.415 . S
C2631 C2630 1.355 . S
C2631 C2633 1.419 . S
C2632 C2630 1.415 . S
C2632 C2637 1.425 . S
C2632 C2639 1.409 . S
C2633 H2625 0.930 . S
C2633 C2631 1.419 . S
C2633 C2634 1.362 . S
C2634 H2626 0.930 . S
C2634 C2633 1.362 . S
C2634 C2637 1.409 . S
C2635 H2627 0.930 . S
C2635 C2636 1.355 . S
C2635 C2637 1.415 . S
C2636 C2635 1.355 . S
C2636 C2638 1.419 . S
C2637 C2632 1.425 . S
C2637 C2634 1.409 . S
C2637 C2635 1.415 . S
C2638 H2628 0.930 . S
C2638 C2636 1.419 . S
C2638 C2639 1.362 . S
C2639 H2629 0.930 . S
C2639 C2632 1.409 . S
C2639 C2638 1.362 . S
H2640 C2646 0.930 . S
H2641 C2649 0.930 . S
H2642 C2650 0.930 . S
H2643 C2651 0.930 . S
H2644 C2654 0.930 . S
H2645 C2655 0.930 . S
C2646 H2640 0.930 . S
C2646 C2647 1.355 . S
C2646 C2648 1.415 . S
C2647 C2646 1.355 . S
C2647 C2649 1.419 . S
C2648 C2646 1.415 . S
C2648 C2653 1.425 . S
C2648 C2655 1.409 . S
C2649 H2641 0.930 . S
C2649 C2647 1.419 . S
C2649 C2650 1.362 . S
C2650 H2642 0.930 . S
C2650 C2649 1.362 . S
C2650 C2653 1.409 . S
C2651 H2643 0.930 . S
C2651 C2652 1.355 . S
C2651 C2653 1.415 . S
C2652 C2651 1.355 . S
C2652 C2654 1.419 . S
C2653 C2648 1.425 . S
C2653 C2650 1.409 . S
C2653 C2651 1.415 . S
C2654 H2644 0.930 . S
C2654 C2652 1.419 . S
C2654 C2655 1.362 . S
C2655 H2645 0.930 . S
C2655 C2648 1.409 . S
C2655 C2654 1.362 . S
H2656 C2662 0.930 . S
H2657 C2665 0.930 . S
H2658 C2666 0.930 . S
H2659 C2667 0.930 . S
H2660 C2670 0.930 . S
H2661 C2671 0.930 . S
C2662 H2656 0.930 . S
C2662 C2663 1.355 . S
C2662 C2664 1.415 . S
C2663 C2662 1.355 . S
C2663 C2665 1.419 . S
C2664 C2662 1.415 . S
C2664 C2669 1.425 . S
C2664 C2671 1.409 . S
C2665 H2657 0.930 . S
C2665 C2663 1.419 . S
C2665 C2666 1.362 . S
C2666 H2658 0.930 . S
C2666 C2665 1.362 . S
C2666 C2669 1.409 . S
C2667 H2659 0.930 . S
C2667 C2668 1.355 . S
C2667 C2669 1.415 . S
C2668 C2667 1.355 . S
C2668 C2670 1.419 . S
C2669 C2664 1.425 . S
C2669 C2666 1.409 . S
C2669 C2667 1.415 . S
C2670 H2660 0.930 . S
C2670 C2668 1.419 . S
C2670 C2671 1.362 . S
C2671 H2661 0.930 . S
C2671 C2664 1.409 . S
C2671 C2670 1.362 . S
H2672 C2678 0.930 . S
H2673 C2681 0.930 . S
H2674 C2682 0.930 . S
H2675 C2683 0.930 . S
H2676 C2686 0.930 . S
H2677 C2687 0.930 . S
C2678 H2672 0.930 . S
C2678 C2679 1.355 . S
C2678 C2680 1.415 . S
C2679 C2678 1.355 . S
C2679 C2681 1.419 . S
C2680 C2678 1.415 . S
C2680 C2685 1.425 . S
C2680 C2687 1.409 . S
C2681 H2673 0.930 . S
C2681 C2679 1.419 . S
C2681 C2682 1.362 . S
C2682 H2674 0.930 . S
C2682 C2681 1.362 . S
C2682 C2685 1.409 . S
C2683 H2675 0.930 . S
C2683 C2684 1.355 . S
C2683 C2685 1.415 . S
C2684 C2683 1.355 . S
C2684 C2686 1.419 . S
C2685 C2680 1.425 . S
C2685 C2682 1.409 . S
C2685 C2683 1.415 . S
C2686 H2676 0.930 . S
C2686 C2684 1.419 . S
C2686 C2687 1.362 . S
C2687 H2677 0.930 . S
C2687 C2680 1.409 . S
C2687 C2686 1.362 . S
H2688 C2694 0.930 . S
H2689 C2697 0.930 . S
H2690 C2698 0.930 . S
H2691 C2699 0.930 . S
H2692 C2702 0.930 . S
H2693 C2703 0.930 . S
C2694 H2688 0.930 . S
C2694 C2695 1.355 . S
C2694 C2696 1.415 . S
C2695 C2694 1.355 . S
C2695 C2697 1.419 . S
C2696 C2694 1.415 . S
C2696 C2701 1.425 . S
C2696 C2703 1.409 . S
C2697 H2689 0.930 . S
C2697 C2695 1.419 . S
C2697 C2698 1.362 . S
C2698 H2690 0.930 . S
C2698 C2697 1.362 . S
C2698 C2701 1.409 . S
C2699 H2691 0.930 . S
C2699 C2700 1.355 . S
C2699 C2701 1.415 . S
C2700 C2699 1.355 . S
C2700 C2702 1.419 . S
C2701 C2696 1.425 . S
C2701 C2698 1.409 . S
C2701 C2699 1.415 . S
C2702 H2692 0.930 . S
C2702 C2700 1.419 . S
C2702 C2703 1.362 . S
C2703 H2693 0.930 . S
C2703 C2696 1.409 . S
C2703 C2702 1.362 . S
H2704 C2710 0.930 . S
H2705 C2713 0.930 . S
H2706 C2714 0.930 . S
H2707 C2715 0.930 . S
H2708 C2718 0.930 . S
H2709 C2719 0.930 . S
C2710 H2704 0.930 . S
C2710 C2711 1.355 . S
C2710 C2712 1.415 . S
C2711 C2710 1.355 . S
C2711 C2713 1.419 . S
C2712 C2710 1.415 . S
C2712 C2717 1.425 . S
C2712 C2719 1.409 . S
C2713 H2705 0.930 . S
C2713 C2711 1.419 . S
C2713 C2714 1.362 . S
C2714 H2706 0.930 . S
C2714 C2713 1.362 . S
C2714 C2717 1.409 . S
C2715 H2707 0.930 . S
C2715 C2716 1.355 . S
C2715 C2717 1.415 . S
C2716 C2715 1.355 . S
C2716 C2718 1.419 . S
C2717 C2712 1.425 . S
C2717 C2714 1.409 . S
C2717 C2715 1.415 . S
C2718 H2708 0.930 . S
C2718 C2716 1.419 . S
C2718 C2719 1.362 . S
C2719 H2709 0.930 . S
C2719 C2712 1.409 . S
C2719 C2718 1.362 . S
H2720 C2726 0.930 . S
H2721 C2729 0.930 . S
H2722 C2730 0.930 . S
H2723 C2731 0.930 . S
H2724 C2734 0.930 . S
H2725 C2735 0.930 . S
C2726 H2720 0.930 . S
C2726 C2727 1.355 . S
C2726 C2728 1.415 . S
C2727 C2726 1.355 . S
C2727 C2729 1.419 . S
C2728 C2726 1.415 . S
C2728 C2733 1.425 . S
C2728 C2735 1.409 . S
C2729 H2721 0.930 . S
C2729 C2727 1.419 . S
C2729 C2730 1.362 . S
C2730 H2722 0.930 . S
C2730 C2729 1.362 . S
C2730 C2733 1.409 . S
C2731 H2723 0.930 . S
C2731 C2732 1.355 . S
C2731 C2733 1.415 . S
C2732 C2731 1.355 . S
C2732 C2734 1.419 . S
C2733 C2728 1.425 . S
C2733 C2730 1.409 . S
C2733 C2731 1.415 . S
C2734 H2724 0.930 . S
C2734 C2732 1.419 . S
C2734 C2735 1.362 . S
C2735 H2725 0.930 . S
C2735 C2728 1.409 . S
C2735 C2734 1.362 . S
H2736 C2742 0.930 . S
H2737 C2745 0.930 . S
H2738 C2746 0.930 . S
H2739 C2747 0.930 . S
H2740 C2750 0.930 . S
H2741 C2751 0.930 . S
C2742 H2736 0.930 . S
C2742 C2743 1.355 . S
C2742 C2744 1.415 . S
C2743 C2742 1.355 . S
C2743 C2745 1.419 . S
C2744 C2742 1.415 . S
C2744 C2749 1.425 . S
C2744 C2751 1.409 . S
C2745 H2737 0.930 . S
C2745 C2743 1.419 . S
C2745 C2746 1.362 . S
C2746 H2738 0.930 . S
C2746 C2745 1.362 . S
C2746 C2749 1.409 . S
C2747 H2739 0.930 . S
C2747 C2748 1.355 . S
C2747 C2749 1.415 . S
C2748 C2747 1.355 . S
C2748 C2750 1.419 . S
C2749 C2744 1.425 . S
C2749 C2746 1.409 . S
C2749 C2747 1.415 . S
C2750 H2740 0.930 . S
C2750 C2748 1.419 . S
C2750 C2751 1.362 . S
C2751 H2741 0.930 . S
C2751 C2744 1.409 . S
C2751 C2750 1.362 . S
H2752 C2758 0.930 . S
H2753 C2761 0.930 . S
H2754 C2762 0.930 . S
H2755 C2763 0.930 . S
H2756 C2766 0.930 . S
H2757 C2767 0.930 . S
C2758 H2752 0.930 . S
C2758 C2759 1.355 . S
C2758 C2760 1.415 . S
C2759 C2758 1.355 . S
C2759 C2761 1.419 . S
C2760 C2758 1.415 . S
C2760 C2765 1.425 . S
C2760 C2767 1.409 . S
C2761 H2753 0.930 . S
C2761 C2759 1.419 . S
C2761 C2762 1.362 . S
C2762 H2754 0.930 . S
C2762 C2761 1.362 . S
C2762 C2765 1.409 . S
C2763 H2755 0.930 . S
C2763 C2764 1.355 . S
C2763 C2765 1.415 . S
C2764 C2763 1.355 . S
C2764 C2766 1.419 . S
C2765 C2760 1.425 . S
C2765 C2762 1.409 . S
C2765 C2763 1.415 . S
C2766 H2756 0.930 . S
C2766 C2764 1.419 . S
C2766 C2767 1.362 . S
C2767 H2757 0.930 . S
C2767 C2760 1.409 . S
C2767 C2766 1.362 . S
H2768 C2774 0.930 . S
H2769 C2777 0.930 . S
H2770 C2778 0.930 . S
H2771 C2779 0.930 . S
H2772 C2782 0.930 . S
H2773 C2783 0.930 . S
C2774 H2768 0.930 . S
C2774 C2775 1.355 . S
C2774 C2776 1.415 . S
C2775 C2774 1.355 . S
C2775 C2777 1.419 . S
C2776 C2774 1.415 . S
C2776 C2781 1.425 . S
C2776 C2783 1.409 . S
C2777 H2769 0.930 . S
C2777 C2775 1.419 . S
C2777 C2778 1.362 . S
C2778 H2770 0.930 . S
C2778 C2777 1.362 . S
C2778 C2781 1.409 . S
C2779 H2771 0.930 . S
C2779 C2780 1.355 . S
C2779 C2781 1.415 . S
C2780 C2779 1.355 . S
C2780 C2782 1.419 . S
C2781 C2776 1.425 . S
C2781 C2778 1.409 . S
C2781 C2779 1.415 . S
C2782 H2772 0.930 . S
C2782 C2780 1.419 . S
C2782 C2783 1.362 . S
C2783 H2773 0.930 . S
C2783 C2776 1.409 . S
C2783 C2782 1.362 . S
H2784 C2790 0.930 . S
H2785 C2793 0.930 . S
H2786 C2794 0.930 . S
H2787 C2795 0.930 . S
H2788 C2798 0.930 . S
H2789 C2799 0.930 . S
C2790 H2784 0.930 . S
C2790 C2791 1.355 . S
C2790 C2792 1.415 . S
C2791 C2790 1.355 . S
C2791 C2793 1.419 . S
C2792 C2790 1.415 . S
C2792 C2797 1.425 . S
C2792 C2799 1.409 . S
C2793 H2785 0.930 . S
C2793 C2791 1.419 . S
C2793 C2794 1.362 . S
C2794 H2786 0.930 . S
C2794 C2793 1.362 . S
C2794 C2797 1.409 . S
C2795 H2787 0.930 . S
C2795 C2796 1.355 . S
C2795 C2797 1.415 . S
C2796 C2795 1.355 . S
C2796 C2798 1.419 . S
C2797 C2792 1.425 . S
C2797 C2794 1.409 . S
C2797 C2795 1.415 . S
C2798 H2788 0.930 . S
C2798 C2796 1.419 . S
C2798 C2799 1.362 . S
C2799 H2789 0.930 . S
C2799 C2792 1.409 . S
C2799 C2798 1.362 . S
H2800 C2806 0.930 . S
H2801 C2809 0.930 . S
H2802 C2810 0.930 . S
H2803 C2811 0.930 . S
H2804 C2814 0.930 . S
H2805 C2815 0.930 . S
C2806 H2800 0.930 . S
C2806 C2807 1.355 . S
C2806 C2808 1.415 . S
C2807 C2806 1.355 . S
C2807 C2809 1.419 . S
C2808 C2806 1.415 . S
C2808 C2813 1.425 . S
C2808 C2815 1.409 . S
C2809 H2801 0.930 . S
C2809 C2807 1.419 . S
C2809 C2810 1.362 . S
C2810 H2802 0.930 . S
C2810 C2809 1.362 . S
C2810 C2813 1.409 . S
C2811 H2803 0.930 . S
C2811 C2812 1.355 . S
C2811 C2813 1.415 . S
C2812 C2811 1.355 . S
C2812 C2814 1.419 . S
C2813 C2808 1.425 . S
C2813 C2810 1.409 . S
C2813 C2811 1.415 . S
C2814 H2804 0.930 . S
C2814 C2812 1.419 . S
C2814 C2815 1.362 . S
C2815 H2805 0.930 . S
C2815 C2808 1.409 . S
C2815 C2814 1.362 . S
H2816 C2822 0.930 . S
H2817 C2825 0.930 . S
H2818 C2826 0.930 . S
H2819 C2827 0.930 . S
H2820 C2830 0.930 . S
H2821 C2831 0.930 . S
C2822 H2816 0.930 . S
C2822 C2823 1.355 . S
C2822 C2824 1.415 . S
C2823 C2822 1.355 . S
C2823 C2825 1.419 . S
C2824 C2822 1.415 . S
C2824 C2829 1.425 . S
C2824 C2831 1.409 . S
C2825 H2817 0.930 . S
C2825 C2823 1.419 . S
C2825 C2826 1.362 . S
C2826 H2818 0.930 . S
C2826 C2825 1.362 . S
C2826 C2829 1.409 . S
C2827 H2819 0.930 . S
C2827 C2828 1.355 . S
C2827 C2829 1.415 . S
C2828 C2827 1.355 . S
C2828 C2830 1.419 . S
C2829 C2824 1.425 . S
C2829 C2826 1.409 . S
C2829 C2827 1.415 . S
C2830 H2820 0.930 . S
C2830 C2828 1.419 . S
C2830 C2831 1.362 . S
C2831 H2821 0.930 . S
C2831 C2824 1.409 . S
C2831 C2830 1.362 . S
H2832 C2838 0.930 . S
H2833 C2841 0.930 . S
H2834 C2842 0.930 . S
H2835 C2843 0.930 . S
H2836 C2846 0.909 1_565 S
H2837 C2847 0.930 . S
C2838 H2832 0.930 . S
C2838 C2839 1.355 . S
C2838 C2840 1.415 . S
C2839 C2838 1.355 . S
C2839 C2841 1.419 . S
C2840 C2838 1.415 . S
C2840 C2845 1.425 . S
C2840 C2847 1.409 . S
C2841 H2833 0.930 . S
C2841 C2839 1.419 . S
C2841 C2842 1.362 . S
C2842 H2834 0.930 . S
C2842 C2841 1.362 . S
C2842 C2845 1.409 . S
C2843 H2835 0.930 . S
C2843 C2844 1.355 . S
C2843 C2845 1.415 . S
C2844 C2843 1.355 . S
C2844 C2846 1.419 . S
C2845 C2840 1.425 . S
C2845 C2842 1.409 . S
C2845 C2843 1.415 . S
C2846 H2836 0.909 1_545 S
C2846 C2844 1.419 . S
C2846 C2847 1.362 . S
C2847 H2837 0.930 . S
C2847 C2840 1.409 . S
C2847 C2846 1.362 . S
H2848 C2854 0.930 . S
H2849 C2857 0.930 . S
H2850 C2858 0.930 . S
H2851 C2859 0.930 . S
H2852 C2862 0.930 . S
H2853 C2863 0.930 . S
C2854 H2848 0.930 . S
C2854 C2855 1.355 . S
C2854 C2856 1.415 . S
C2855 C2854 1.355 . S
C2855 C2857 1.419 . S
C2856 C2854 1.415 . S
C2856 C2861 1.425 . S
C2856 C2863 1.409 . S
C2857 H2849 0.930 . S
C2857 C2855 1.419 . S
C2857 C2858 1.362 . S
C2858 H2850 0.930 . S
C2858 C2857 1.362 . S
C2858 C2861 1.409 . S
C2859 H2851 0.930 . S
C2859 C2860 1.355 . S
C2859 C2861 1.415 . S
C2860 C2859 1.355 . S
C2860 C2862 1.419 . S
C2861 C2856 1.425 . S
C2861 C2858 1.409 . S
C2861 C2859 1.415 . S
C2862 H2852 0.930 . S
C2862 C2860 1.419 . S
C2862 C2863 1.362 . S
C2863 H2853 0.930 . S
C2863 C2856 1.409 . S
C2863 C2862 1.362 . S
H2864 C2870 0.930 . S
H2865 C2873 0.930 . S
H2866 C2874 0.930 . S
H2867 C2875 0.930 . S
H2868 C2878 0.930 . S
H2869 C2879 0.936 . S
C2870 H2864 0.930 . S
C2870 C2871 1.355 . S
C2870 C2872 1.415 . S
C2871 C2870 1.355 . S
C2871 C2873 1.419 . S
C2872 C2870 1.415 . S
C2872 C2877 1.425 . S
C2872 C2879 1.400 1_564 S
C2873 H2865 0.930 . S
C2873 C2871 1.419 . S
C2873 C2874 1.362 . S
C2874 H2866 0.930 . S
C2874 C2873 1.362 . S
C2874 C2877 1.409 . S
C2875 H2867 0.930 . S
C2875 C2876 1.355 . S
C2875 C2877 1.415 . S
C2876 C2875 1.355 . S
C2876 C2878 1.419 1_564 S
C2877 C2872 1.425 . S
C2877 C2874 1.409 . S
C2877 C2875 1.415 . S
C2878 H2868 0.930 . S
C2878 C2876 1.419 1_546 S
C2878 C2879 1.366 . S
C2879 H2869 0.936 . S
C2879 C2872 1.400 1_546 S
C2879 C2878 1.366 . S
H2880 C2886 0.930 . S
H2881 C2889 0.930 . S
H2882 C2890 0.930 . S
H2883 C2891 0.930 . S
H2884 C2894 0.930 . S
H2885 C2895 0.930 . S
C2886 H2880 0.930 . S
C2886 C2887 1.355 . S
C2886 C2888 1.415 . S
C2887 C2886 1.355 . S
C2887 C2889 1.419 . S
C2888 C2886 1.415 . S
C2888 C2893 1.425 . S
C2888 C2895 1.409 . S
C2889 H2881 0.930 . S
C2889 C2887 1.419 . S
C2889 C2890 1.362 . S
C2890 H2882 0.930 . S
C2890 C2889 1.362 . S
C2890 C2893 1.409 . S
C2891 H2883 0.930 . S
C2891 C2892 1.355 . S
C2891 C2893 1.415 . S
C2892 C2891 1.355 . S
C2892 C2894 1.419 . S
C2893 C2888 1.425 . S
C2893 C2890 1.409 . S
C2893 C2891 1.415 . S
C2894 H2884 0.930 . S
C2894 C2892 1.419 . S
C2894 C2895 1.362 . S
C2895 H2885 0.930 . S
C2895 C2888 1.409 . S
C2895 C2894 1.362 . S
H2896 C2902 0.930 . S
H2897 C2905 0.930 . S
H2898 C2906 0.930 . S
H2899 C2907 0.933 . S
H2900 C2910 0.930 . S
H2901 C2911 0.930 . S
C2902 H2896 0.930 . S
C2902 C2903 1.355 . S
C2902 C2904 1.415 . S
C2903 C2902 1.355 . S
C2903 C2905 1.419 1_554 S
C2904 C2902 1.415 . S
C2904 C2909 1.425 . S
C2904 C2911 1.409 . S
C2905 H2897 0.930 . S
C2905 C2903 1.419 1_556 S
C2905 C2906 1.362 . S
C2906 H2898 0.930 . S
C2906 C2905 1.362 . S
C2906 C2909 1.409 1_556 S
C2907 H2899 0.933 . S
C2907 C2908 1.355 . S
C2907 C2909 1.415 . S
C2908 C2907 1.355 . S
C2908 C2910 1.419 . S
C2909 C2904 1.425 . S
C2909 C2906 1.409 1_554 S
C2909 C2907 1.415 . S
C2910 H2900 0.930 . S
C2910 C2908 1.419 . S
C2910 C2911 1.362 . S
C2911 H2901 0.930 . S
C2911 C2904 1.409 . S
C2911 C2910 1.362 . S
H2912 C2918 0.930 . S
H2913 C2921 0.930 . S
H2914 C2922 0.930 . S
H2915 C2923 0.930 . S
H2916 C2926 0.930 . S
H2917 C2927 0.930 . S
C2918 H2912 0.930 . S
C2918 C2919 1.355 . S
C2918 C2920 1.415 . S
C2919 C2918 1.355 . S
C2919 C2921 1.419 . S
C2920 C2918 1.415 . S
C2920 C2925 1.425 . S
C2920 C2927 1.409 . S
C2921 H2913 0.930 . S
C2921 C2919 1.419 . S
C2921 C2922 1.362 . S
C2922 H2914 0.930 . S
C2922 C2921 1.362 . S
C2922 C2925 1.409 . S
C2923 H2915 0.930 . S
C2923 C2924 1.355 . S
C2923 C2925 1.415 . S
C2924 C2923 1.355 . S
C2924 C2926 1.419 . S
C2925 C2920 1.425 . S
C2925 C2922 1.409 . S
C2925 C2923 1.415 . S
C2926 H2916 0.930 . S
C2926 C2924 1.419 . S
C2926 C2927 1.362 . S
C2927 H2917 0.930 . S
C2927 C2920 1.409 . S
C2927 C2926 1.362 . S
H2928 C2934 0.930 . S
H2929 C2937 0.930 . S
H2930 C2938 0.930 . S
H2931 C2939 0.930 . S
H2932 C2942 0.930 . S
H2933 C2943 0.930 . S
C2934 H2928 0.930 . S
C2934 C2935 1.355 . S
C2934 C2936 1.415 . S
C2935 C2934 1.355 . S
C2935 C2937 1.419 . S
C2936 C2934 1.415 . S
C2936 C2941 1.425 . S
C2936 C2943 1.409 . S
C2937 H2929 0.930 . S
C2937 C2935 1.419 . S
C2937 C2938 1.362 . S
C2938 H2930 0.930 . S
C2938 C2937 1.362 . S
C2938 C2941 1.409 . S
C2939 H2931 0.930 . S
C2939 C2940 1.355 . S
C2939 C2941 1.415 . S
C2940 C2939 1.355 . S
C2940 C2942 1.419 . S
C2941 C2936 1.425 . S
C2941 C2938 1.409 . S
C2941 C2939 1.415 . S
C2942 H2932 0.930 . S
C2942 C2940 1.419 . S
C2942 C2943 1.362 . S
C2943 H2933 0.930 . S
C2943 C2936 1.409 . S
C2943 C2942 1.362 . S
C1420 C881 1.071 . S
C1415 C2 1.105 . S
C1431 C39 1.806 . S
C1436 C927 1.796 . S
C1447 C86 0.946 . S
C1452 C936 0.879 . S
C1468 C974 1.567 . S
C1463 C112 1.629 . S
C1479 C38 1.684 . S
C1484 C1008 1.677 . S
C1500 C1038 0.779 . S
C1495 C76 0.808 . S
C1516 C1097 1.630 1_556 S
C1511 C122 1.566 . S
C1527 C3 1.101 . S
C1532 C1110 1.105 . S
C1543 C147 1.434 . S
C1548 C893 1.400 . S
C1559 C184 1.174 . S
C1564 C911 1.193 . S
C1580 C932 1.676 . S
C1575 C219 1.694 . S
C1596 C970 0.901 . S
C1591 C256 0.921 . S
C1607 C148 1.296 . S
C1612 C1004 1.261 . S
C1628 C1034 1.653 . S
C1623 C183 1.662 . S
C1644 C1081 1.255 . S
C1639 C220 1.292 . S
C1660 C1106 0.731 . S
C1655 C255 0.723 . S
C1676 C877 0.827 1_556 S
C1671 C254 0.809 . S
C1692 C1136 1.637 . S
C1687 C302 1.555 . S
C1703 C326 1.438 . S
C1708 C1178 1.448 . S
C1724 C1221 0.539 . S
C1719 C374 0.602 . S
C1735 C146 1.438 . S
C1740 C1102 1.393 . S
C1756 C940 1.522 . S
C1751 C182 1.519 . S
C1767 C338 1.299 . S
C1772 C1238 1.371 . S
C1788 C1289 1.617 . S
C1783 C410 1.527 . S
C1799 C434 1.149 . S
C1804 C872 1.119 1_556 S
C1820 C1272 1.867 . S
C1815 C472 1.877 . S
C1831 C507 0.902 . S
C1836 C945 0.879 . S
C1847 C543 1.676 . S
C1852 C1255 1.642 . S
C1868 C1017 1.701 . S
C1863 C470 1.722 . S
C1884 C1183 0.923 . S
C1879 C518 0.938 . S
C1900 C1068 1.634 . S
C1895 C554 1.580 . S
C1916 C1323 0.965 . S
C1911 C436 1.013 . S
C1932 C864 1.437 . S
C1927 C580 1.498 . S
C1943 C615 1.220 . S
C1948 C1276 1.183 . S
C1964 C961 1.712 1_545 S
C1959 C652 1.748 . S
C1975 C687 0.989 . S
C1980 C1251 0.976 . S
C1991 C579 1.346 . S
C1996 C1013 1.296 . S
C2007 C616 1.719 . S
C2012 C1199 1.684 . S
C2028 C1072 1.284 . S
C2023 C651 1.308 . S
C2039 C688 0.757 . S
C2044 C1319 0.788 . S
C2055 C686 0.818 . S
C2060 C868 0.848 . S
C2071 C734 1.635 1_554 S
C2076 C1165 1.672 . S
C2087 C758 1.512 . S
C2092 C1051 1.484 . S
C2103 C806 0.635 . S
C2108 C1212 0.582 . S
C2124 C1335 1.381 . S
C2119 C578 1.436 . S
C2140 C949 1.575 . S
C2135 C614 1.566 . S
C2156 C995 1.408 . S
C2151 C770 1.393 . S
C2172 C906 1.597 . S
C2167 C842 1.552 . S
C2183 C74 1.042 . S
C2188 C1357 1.007 . S
C2204 C1301 1.825 . S
C2199 C111 1.832 . S
C2220 C1378 0.952 . S
C2215 C14 0.965 . S
C2231 C40 1.618 . S
C2236 C1246 1.595 . S
C2247 C110 1.678 . S
C2252 C1144 1.670 1_556 S
C2268 C1174 0.862 . S
C2263 C4 0.848 . S
C2284 C1233 1.607 . S
C2279 C50 1.610 . S
C2300 C1314 1.049 . S
C2295 C75 1.048 . S
C2316 C1369 1.397 . S
C2311 C399 1.426 . S
C2327 C292 1.169 1_556 S
C2332 C1285 1.184 . S
C2343 C327 1.725 . S
C2348 C1374 1.712 . S
C2364 C1242 0.953 . S
C2359 C364 0.965 . S
C2380 C1140 1.254 . S
C2375 C400 1.286 . S
C2391 C291 1.662 . S
C2396 C1170 1.653 . S
C2412 C1217 1.275 . S
C2407 C328 1.264 . S
C2423 C363 0.769 . S
C2428 C1310 0.758 . S
C2444 C1353 0.811 . S
C2439 C362 0.754 . S
C2460 C1000 1.647 . S
C2455 C194 1.559 . S
C2476 C1042 1.479 . S
C2471 C218 1.472 . S
C2487 C266 0.524 . S
C2492 C1085 0.574 . S
C2508 C1306 1.380 . S
C2503 C398 1.377 . S
C2519 C290 1.520 . S
C2524 C1382 1.554 . S
C2540 C966 1.393 . S
C2535 C230 1.302 . S
C2556 C915 1.576 . S
C2551 C158 1.557 . S
C2567 C508 1.158 . S
C2572 C1348 1.154 . S
C2588 C898 1.839 . S
C2583 C544 1.880 . S
C2604 C1387 0.970 . S
C2599 C446 0.943 1_455 S
C2615 C471 1.684 . S
C2620 C983 1.663 . S
C2631 C542 1.708 . S
C2636 C1153 1.694 . S
C2647 C435 0.824 . S
C2652 C1047 0.829 . S
C2663 C482 1.541 . S
C2668 C1204 1.615 . S
C2679 C506 1.075 . S
C2684 C1119 1.033 . S
C2700 C1340 1.428 . S
C2695 C832 1.491 . S
C2711 C723 1.220 . S
C2716 C902 1.197 . S
C2732 C1403 1.753 . S
C2727 C760 1.768 . S
C2743 C795 0.992 . S
C2748 C979 0.987 . S
C2759 C831 1.342 . S
C2764 C1149 1.290 . S
C2780 C1063 1.650 . S
C2775 C724 1.698 . S
C2791 C759 1.328 . S
C2796 C1208 1.319 . S
C2812 C1115 0.818 . S
C2807 C796 0.768 . S
C2828 C1344 0.845 . S
C2823 C794 0.800 . S
C2844 C1029 1.689 . S
C2839 C626 1.674 . S
C2855 C650 1.510 . S
C2860 C1187 1.485 . S
C2876 C1076 0.629 . S
C2871 C698 0.695 . S
C2892 C1131 1.433 . S
C2887 C830 1.428 . S
C2903 C722 1.612 . S
C2908 C1391 1.612 . S
C2924 C1267 1.400 . S
C2919 C662 1.396 . S
C2940 C1280 1.615 . S
C2935 C590 1.568 . S
