# Generated by pormake.
# Topology cml, (3,6)-cn, num edge types: 1
# Building blocks:
#     Node 0, Type 0, BuildingBlock: WUSLED_clean_sbu_0, # of connection points: 3
#     Node 1, Type 0, BuildingBlock: WUSLED_clean_sbu_0, # of connection points: 3
#     Node 2, Type 0, BuildingBlock: WUSLED_clean_sbu_0, # of connection points: 3
#     Node 3, Type 0, BuildingBlock: WUSLED_clean_sbu_0, # of connection points: 3
#     Node 4, Type 0, BuildingBlock: WUSLED_clean_sbu_0, # of connection points: 3
#     Node 5, Type 0, BuildingBlock: WUSLED_clean_sbu_0, # of connection points: 3
#     Node 6, Type 0, BuildingBlock: WUSLED_clean_sbu_0, # of connection points: 3
#     Node 7, Type 0, BuildingBlock: WUSLED_clean_sbu_0, # of connection points: 3
#     Node 8, Type 1, BuildingBlock: IZENUY_clean_sbu_0, # of connection points: 6
#     Node 9, Type 1, BuildingBlock: IZENUY_clean_sbu_0, # of connection points: 6
#     Node 10, Type 1, BuildingBlock: IZENUY_clean_sbu_0, # of connection points: 6
#     Node 11, Type 1, BuildingBlock: IZENUY_clean_sbu_0, # of connection points: 6
#     Edge 12, Type (0, 1), BuildingBlock: TEMPAE_clean_linker_10, # of connection points: 2
#     Edge 13, Type (0, 1), BuildingBlock: TEMPAE_clean_linker_10, # of connection points: 2
#     Edge 14, Type (0, 1), BuildingBlock: TEMPAE_clean_linker_10, # of connection points: 2
#     Edge 15, Type (0, 1), BuildingBlock: TEMPAE_clean_linker_10, # of connection points: 2
#     Edge 16, Type (0, 1), BuildingBlock: TEMPAE_clean_linker_10, # of connection points: 2
#     Edge 17, Type (0, 1), BuildingBlock: TEMPAE_clean_linker_10, # of connection points: 2
#     Edge 18, Type (0, 1), BuildingBlock: TEMPAE_clean_linker_10, # of connection points: 2
#     Edge 19, Type (0, 1), BuildingBlock: TEMPAE_clean_linker_10, # of connection points: 2
#     Edge 20, Type (0, 1), BuildingBlock: TEMPAE_clean_linker_10, # of connection points: 2
#     Edge 21, Type (0, 1), BuildingBlock: TEMPAE_clean_linker_10, # of connection points: 2
#     Edge 22, Type (0, 1), BuildingBlock: TEMPAE_clean_linker_10, # of connection points: 2
#     Edge 23, Type (0, 1), BuildingBlock: TEMPAE_clean_linker_10, # of connection points: 2
#     Edge 24, Type (0, 1), BuildingBlock: TEMPAE_clean_linker_10, # of connection points: 2
#     Edge 25, Type (0, 1), BuildingBlock: TEMPAE_clean_linker_10, # of connection points: 2
#     Edge 26, Type (0, 1), BuildingBlock: TEMPAE_clean_linker_10, # of connection points: 2
#     Edge 27, Type (0, 1), BuildingBlock: TEMPAE_clean_linker_10, # of connection points: 2
#     Edge 28, Type (0, 1), BuildingBlock: TEMPAE_clean_linker_10, # of connection points: 2
#     Edge 29, Type (0, 1), BuildingBlock: TEMPAE_clean_linker_10, # of connection points: 2
#     Edge 30, Type (0, 1), BuildingBlock: TEMPAE_clean_linker_10, # of connection points: 2
#     Edge 31, Type (0, 1), BuildingBlock: TEMPAE_clean_linker_10, # of connection points: 2
#     Edge 32, Type (0, 1), BuildingBlock: TEMPAE_clean_linker_10, # of connection points: 2
#     Edge 33, Type (0, 1), BuildingBlock: TEMPAE_clean_linker_10, # of connection points: 2
#     Edge 34, Type (0, 1), BuildingBlock: TEMPAE_clean_linker_10, # of connection points: 2
#     Edge 35, Type (0, 1), BuildingBlock: TEMPAE_clean_linker_10, # of connection points: 2
# Relax obj value: 0.052
# Max RMSD: 0.067
# Mean RMSD: 0.065
data_MOF--net-cml--node1-WUSLED_clean_sbu_0--node2-IZENUY_clean_sbu_0--edge1-TEMPAE_clean_linker_10
_symmetry_space_group_name_H-M    P1
_symmetry_Int_Tables_number       1
_symmetry_cell_setting            triclinic
loop_
_symmetry_equiv_pos_as_xyz
'x, y, z'
_cell_length_a     46.233843
_cell_length_b     53.565368
_cell_length_c     49.423027
_cell_angle_alpha  90.3543
_cell_angle_beta   90.167413
_cell_angle_gamma 90.170618
loop_
_atom_site_label
_atom_site_type_symbol
_atom_site_fract_x
_atom_site_fract_y
_atom_site_fract_z
_atom_type_partial_charge
C0 C 0.31823 0.4313 0.95339 0.0
C1 C 0.32024 0.45292 0.96961 0.0
C2 C 0.34874 0.47376 0.93492 0.0
C3 C 0.33523 0.47397 0.96039 0.0
C4 C 0.34676 0.45208 0.91881 0.0
C5 C 0.33157 0.43114 0.92792 0.0
U6 U 0.30103 0.38137 1.00633 0.0
O7 O 0.25972 0.36393 0.01762 0.0
O8 O 0.29474 0.34079 1.00127 0.0
C9 C 0.26764 0.34166 1.00915 0.0
C10 C 0.30245 0.40878 0.96247 0.0
C11 C 0.24662 0.328 0.99209 0.0
C12 C 0.21066 0.32642 0.95603 0.0
C13 C 0.23138 0.33974 0.97111 0.0
C14 C 0.22062 0.28945 0.98239 0.0
C15 C 0.20495 0.30111 0.96157 0.0
C16 C 0.24119 0.30277 0.99746 0.0
C17 C 0.34118 0.38488 0.07529 0.0
C18 C 0.3636 0.35486 0.10565 0.0
C19 C 0.34663 0.39442 0.12329 0.0
C20 C 0.33724 0.40109 0.0974 0.0
C21 C 0.36041 0.37141 0.12765 0.0
C22 C 0.35404 0.36148 0.07975 0.0
C23 C 0.33404 0.39372 0.04771 0.0
O24 O 0.31825 0.38864 0.96559 0.0
O25 O 0.28332 0.41193 0.98184 0.0
O26 O 0.30792 0.40278 0.0441 0.0
O27 O 0.34299 0.37997 0.02727 0.0
H28 H 0.31034 0.45356 0.98943 0.0
H29 H 0.33665 0.49029 0.97339 0.0
H30 H 0.3567 0.45141 0.899 0.0
H31 H 0.33026 0.41473 0.91504 0.0
H32 H 0.19919 0.3359 0.93997 0.0
H33 H 0.23535 0.35921 0.96655 0.0
H34 H 0.21652 0.27012 0.98748 0.0
H35 H 0.25266 0.2934 0.01362 0.0
H36 H 0.37388 0.3369 0.10839 0.0
H37 H 0.34417 0.40775 0.13968 0.0
H38 H 0.32765 0.41932 0.0945 0.0
H39 H 0.35739 0.34851 0.06317 0.0
C40 C 0.7086 0.66476 0.59052 0.0
C41 C 0.68978 0.64472 0.5955 0.0
C42 C 0.67618 0.66309 0.63888 0.0
C43 C 0.67375 0.64387 0.61944 0.0
C44 C 0.69536 0.68301 0.63389 0.0
C45 C 0.71139 0.68384 0.60988 0.0
U46 U 0.72437 0.63712 0.52178 0.0
O47 O 0.72935 0.65461 0.48179 0.0
O48 O 0.76479 0.63252 0.49893 0.0
C49 C 0.75635 0.64735 0.47933 0.0
C50 C 0.72466 0.66602 0.56487 0.0
C51 C 0.7772 0.6667 0.47081 0.0
C52 C 0.8142 0.69791 0.48082 0.0
C53 C 0.79395 0.6802 0.48965 0.0
C54 C 0.80081 0.68915 0.43432 0.0
C55 C 0.81793 0.70256 0.45301 0.0
C56 C 0.78071 0.67141 0.44314 0.0
C57 C 0.68 0.57633 0.50693 0.0
C58 C 0.67672 0.55233 0.46507 0.0
C59 C 0.64958 0.53936 0.50445 0.0
C60 C 0.66096 0.55946 0.51913 0.0
C61 C 0.657 0.53569 0.47715 0.0
C62 C 0.68808 0.5726 0.47985 0.0
C63 C 0.69005 0.5979 0.52298 0.0
O64 O 0.74355 0.64807 0.56094 0.0
O65 O 0.70866 0.67041 0.54342 0.0
O66 O 0.68171 0.61999 0.51466 0.0
O67 O 0.71703 0.59749 0.53139 0.0
H68 H 0.68736 0.62978 0.58077 0.0
H69 H 0.65952 0.6281 0.62277 0.0
H70 H 0.69751 0.69825 0.64826 0.0
H71 H 0.72572 0.6995 0.60632 0.0
H72 H 0.82679 0.70809 0.49577 0.0
H73 H 0.79148 0.67697 0.51113 0.0
H74 H 0.80333 0.69199 0.41278 0.0
H75 H 0.76805 0.66116 0.42828 0.0
H76 H 0.68273 0.55006 0.44404 0.0
H77 H 0.63486 0.52669 0.51449 0.0
H78 H 0.65457 0.562 0.54005 0.0
H79 H 0.70277 0.5855 0.47011 0.0
C80 C 0.7077 0.44151 0.95995 0.0
C81 C 0.67741 0.44213 0.96226 0.0
C82 C 0.67633 0.48468 0.94487 0.0
C83 C 0.66193 0.46337 0.95466 0.0
C84 C 0.70671 0.48407 0.94288 0.0
C85 C 0.72218 0.4627 0.95026 0.0
U86 U 0.7239 0.38947 1.00979 0.0
O87 O 0.73171 0.34939 1.00361 0.0
O88 O 0.76512 0.37269 0.02293 0.0
C89 C 0.75824 0.35054 0.01322 0.0
C90 C 0.72441 0.4191 0.96771 0.0
C91 C 0.78071 0.33755 0.99733 0.0
C92 C 0.80107 0.32332 0.95455 0.0
C93 C 0.78047 0.33726 0.9689 0.0
C94 C 0.82269 0.31029 0.99682 0.0
C95 C 0.82234 0.30951 0.96835 0.0
C96 C 0.8021 0.32413 1.0111 0.0
C97 C 0.67754 0.39039 0.07573 0.0
C98 C 0.68144 0.39023 0.12497 0.0
C99 C 0.63878 0.37308 0.10323 0.0
C100 C 0.65042 0.37867 0.07789 0.0
C101 C 0.65385 0.37929 0.12712 0.0
C102 C 0.69312 0.3958 0.09958 0.0
C103 C 0.68737 0.39961 0.04902 0.0
O104 O 0.74204 0.42197 0.98842 0.0
O105 O 0.70996 0.39792 0.9683 0.0
O106 O 0.68051 0.38601 0.02769 0.0
O107 O 0.7135 0.40928 0.04763 0.0
H108 H 0.6656 0.42614 0.9698 0.0
H109 H 0.63857 0.46289 0.95608 0.0
H110 H 0.71863 0.50019 0.93582 0.0
H111 H 0.74553 0.46274 0.94847 0.0
H112 H 0.80036 0.32337 0.93264 0.0
H113 H 0.76419 0.34755 0.95783 0.0
H114 H 0.83846 0.29966 1.00815 0.0
H115 H 0.80258 0.32399 0.03302 0.0
H116 H 0.69352 0.39548 0.14294 0.0
H117 H 0.61767 0.36431 0.10412 0.0
H118 H 0.6377 0.37451 0.05996 0.0
H119 H 0.7139 0.40513 0.09875 0.0
C120 C 0.31475 0.67295 0.58516 0.0
C121 C 0.318 0.6511 0.60051 0.0
C122 C 0.3447 0.6742 0.63518 0.0
C123 C 0.33268 0.65176 0.62531 0.0
C124 C 0.34145 0.69601 0.61979 0.0
C125 C 0.32652 0.6954 0.5951 0.0
U126 U 0.30275 0.6449 0.51482 0.0
O127 O 0.26273 0.63762 0.4917 0.0
O128 O 0.2958 0.66286 0.47545 0.0
C129 C 0.26966 0.65346 0.47255 0.0
C130 C 0.29965 0.67265 0.55868 0.0
C131 C 0.2468 0.67107 0.46442 0.0
C132 C 0.22288 0.7114 0.46753 0.0
C133 C 0.2444 0.69487 0.47626 0.0
C134 C 0.20572 0.68037 0.4354 0.0
C135 C 0.20329 0.70435 0.44695 0.0
C136 C 0.22726 0.66395 0.44404 0.0
C137 C 0.35084 0.5883 0.49594 0.0
C138 C 0.34453 0.5593 0.45826 0.0
C139 C 0.38895 0.55905 0.48438 0.0
C140 C 0.37837 0.57837 0.50062 0.0
C141 C 0.37218 0.54921 0.46301 0.0
C142 C 0.33396 0.57877 0.47456 0.0
C143 C 0.34035 0.60819 0.5141 0.0
O144 O 0.3156 0.67864 0.53771 0.0
O145 O 0.28235 0.65358 0.55389 0.0
O146 O 0.31381 0.60578 0.52322 0.0
O147 O 0.34683 0.63115 0.5071 0.0
H148 H 0.30941 0.63343 0.59329 0.0
H149 H 0.33516 0.63458 0.63652 0.0
H150 H 0.3503 0.71361 0.62693 0.0
H151 H 0.32429 0.71247 0.58365 0.0
H152 H 0.22141 0.72962 0.47706 0.0
H153 H 0.2592 0.70069 0.49213 0.0
H154 H 0.19126 0.67443 0.41931 0.0
H155 H 0.2288 0.64568 0.43462 0.0
H156 H 0.33117 0.55227 0.44186 0.0
H157 H 0.41009 0.55148 0.48893 0.0
H158 H 0.39166 0.58542 0.5171 0.0
H159 H 0.31265 0.58627 0.47058 0.0
C160 C 0.81954 0.92969 0.95451 0.0
C161 C 0.84044 0.92747 0.93405 0.0
C162 C 0.84952 0.97232 0.93544 0.0
C163 C 0.85534 0.94848 0.92472 0.0
C164 C 0.82831 0.97463 0.95564 0.0
C165 C 0.81349 0.95358 0.96508 0.0
U166 U 0.80548 0.879 1.00745 0.0
O167 O 0.76498 0.86153 0.02106 0.0
O168 O 0.79868 0.83853 1.00223 0.0
C169 C 0.77214 0.83938 0.01163 0.0
C170 C 0.80396 0.90711 0.9641 0.0
C171 C 0.75004 0.82633 0.99522 0.0
C172 C 0.71355 0.82564 0.9596 0.0
C173 C 0.73482 0.83847 0.97451 0.0
C174 C 0.72284 0.78836 0.98567 0.0
C175 C 0.70729 0.8004 0.96502 0.0
C176 C 0.74396 0.80121 1.00059 0.0
C177 C 0.85209 0.88255 0.07287 0.0
C178 C 0.8458 0.85907 0.11448 0.0
C179 C 0.88869 0.88442 0.10815 0.0
C180 C 0.87861 0.8915 0.08269 0.0
C181 C 0.87246 0.86813 0.12443 0.0
C182 C 0.83571 0.86618 0.08883 0.0
C183 C 0.84211 0.89113 0.04618 0.0
O184 O 0.81944 0.88662 0.96576 0.0
O185 O 0.78626 0.91004 0.98467 0.0
O186 O 0.81558 0.89982 0.04483 0.0
O187 O 0.84906 0.87699 0.0254 0.0
H188 H 0.8453 0.90941 0.9252 0.0
H189 H 0.87122 0.94608 0.90885 0.0
H190 H 0.82345 0.99269 0.96446 0.0
H191 H 0.79739 0.95608 0.98072 0.0
H192 H 0.70218 0.8354 0.94368 0.0
H193 H 0.73932 0.85785 0.96994 0.0
H194 H 0.71833 0.76908 0.99066 0.0
H195 H 0.75544 0.79153 0.01651 0.0
H196 H 0.83285 0.8464 0.12643 0.0
H197 H 0.90901 0.89215 0.11531 0.0
H198 H 0.89148 0.90424 0.07072 0.0
H199 H 0.81516 0.85902 0.08154 0.0
C200 C 0.2074 0.16414 0.58773 0.0
C201 C 0.18854 0.14407 0.59243 0.0
C202 C 0.17473 0.16213 0.6359 0.0
C203 C 0.17237 0.14307 0.61627 0.0
C204 C 0.19385 0.18213 0.63112 0.0
C205 C 0.21002 0.18312 0.60722 0.0
U206 U 0.22651 0.13598 0.51981 0.0
O207 O 0.23299 0.15295 0.47986 0.0
O208 O 0.26834 0.13208 0.49889 0.0
C209 C 0.26047 0.14668 0.47889 0.0
C210 C 0.22411 0.16537 0.56246 0.0
C211 C 0.28136 0.16647 0.47124 0.0
C212 C 0.29357 0.21 0.4625 0.0
C213 C 0.2738 0.1919 0.47126 0.0
C214 C 0.32898 0.17771 0.4541 0.0
C215 C 0.32138 0.20312 0.4537 0.0
C216 C 0.30916 0.15962 0.46268 0.0
C217 C 0.18515 0.07361 0.50431 0.0
C218 C 0.17453 0.05253 0.46164 0.0
C219 C 0.16259 0.0326 0.50404 0.0
C220 C 0.17395 0.05303 0.5182 0.0
C221 C 0.16221 0.03228 0.4756 0.0
C222 C 0.18584 0.07312 0.4759 0.0
C223 C 0.19371 0.0958 0.52021 0.0
O224 O 0.24371 0.14786 0.55944 0.0
O225 O 0.20868 0.16901 0.54047 0.0
O226 O 0.18494 0.11755 0.5112 0.0
O227 O 0.22021 0.09627 0.52989 0.0
H228 H 0.18631 0.1292 0.5776 0.0
H229 H 0.15816 0.12724 0.61943 0.0
H230 H 0.19594 0.19727 0.64563 0.0
H231 H 0.22443 0.19879 0.60389 0.0
H232 H 0.28714 0.22943 0.46272 0.0
H233 H 0.25255 0.19782 0.47782 0.0
H234 H 0.35006 0.17171 0.44717 0.0
H235 H 0.31547 0.14015 0.46229 0.0
H236 H 0.17442 0.05286 0.43973 0.0
H237 H 0.15367 0.01715 0.51539 0.0
H238 H 0.17325 0.05306 0.54012 0.0
H239 H 0.19437 0.08887 0.46479 0.0
C240 C 0.20595 0.94022 0.9601 0.0
C241 C 0.18598 0.95115 0.97789 0.0
C242 C 0.17402 0.98267 0.94423 0.0
C243 C 0.17018 0.97218 0.97004 0.0
C244 C 0.19428 0.97168 0.92659 0.0
C245 C 0.21006 0.95066 0.93447 0.0
U246 U 0.22155 0.88883 1.01068 0.0
O247 O 0.22909 0.84864 1.00482 0.0
O248 O 0.26267 0.87195 0.02387 0.0
C249 C 0.25565 0.84976 0.01437 0.0
C250 C 0.22219 0.91776 0.96795 0.0
C251 C 0.27811 0.83659 0.99863 0.0
C252 C 0.29874 0.82214 0.95604 0.0
C253 C 0.2779 0.83598 0.97021 0.0
C254 C 0.3205 0.80979 0.9985 0.0
C255 C 0.32024 0.80876 0.97004 0.0
C256 C 0.29967 0.82353 0.01259 0.0
C257 C 0.1764 0.89059 0.07724 0.0
C258 C 0.14153 0.86816 0.10499 0.0
C259 C 0.17722 0.89489 0.12641 0.0
C260 C 0.1886 0.90076 0.10099 0.0
C261 C 0.15318 0.87891 0.12867 0.0
C262 C 0.15293 0.87398 0.07959 0.0
C263 C 0.18568 0.89965 0.05025 0.0
O264 O 0.23998 0.92064 0.98854 0.0
O265 O 0.20681 0.89714 0.96933 0.0
O266 O 0.17841 0.88597 0.02909 0.0
O267 O 0.21184 0.90918 0.04841 0.0
H268 H 0.18254 0.94334 0.9978 0.0
H269 H 0.15505 0.98029 0.98426 0.0
H270 H 0.19751 0.97901 0.90645 0.0
H271 H 0.22531 0.94241 0.92044 0.0
H272 H 0.29809 0.82198 0.93414 0.0
H273 H 0.26151 0.846 0.95899 0.0
H274 H 0.33643 0.79948 1.00998 0.0
H275 H 0.30014 0.82365 0.03451 0.0
H276 H 0.12322 0.85554 0.10604 0.0
H277 H 0.1865 0.90374 0.1442 0.0
H278 H 0.20634 0.91397 0.09994 0.0
H279 H 0.14273 0.86601 0.06176 0.0
C280 C 0.81338 0.16979 0.58288 0.0
C281 C 0.83963 0.15682 0.58484 0.0
C282 C 0.84496 0.16995 0.63194 0.0
C283 C 0.85533 0.15698 0.6091 0.0
C284 C 0.81846 0.18269 0.62992 0.0
C285 C 0.80286 0.18264 0.60558 0.0
U286 U 0.79659 0.14138 0.5139 0.0
O287 O 0.75511 0.13533 0.49273 0.0
O288 O 0.78861 0.1589 0.47447 0.0
C289 C 0.76195 0.15038 0.47284 0.0
C290 C 0.79679 0.16987 0.55735 0.0
C291 C 0.73963 0.16853 0.46484 0.0
C292 C 0.71759 0.20969 0.46726 0.0
C293 C 0.73856 0.19266 0.47604 0.0
C294 C 0.69836 0.17851 0.43634 0.0
C295 C 0.69726 0.20282 0.44724 0.0
C296 C 0.71933 0.16159 0.44505 0.0
C297 C 0.83975 0.08226 0.49342 0.0
C298 C 0.86235 0.06671 0.45218 0.0
C299 C 0.8469 0.03764 0.48658 0.0
C300 C 0.83692 0.05755 0.50239 0.0
C301 C 0.86019 0.042 0.46149 0.0
C302 C 0.8522 0.08664 0.46794 0.0
C303 C 0.83177 0.10298 0.51192 0.0
O304 O 0.81179 0.17497 0.5355 0.0
O305 O 0.77882 0.15105 0.55394 0.0
O306 O 0.80582 0.10189 0.52264 0.0
O307 O 0.83936 0.12568 0.50477 0.0
H308 H 0.84799 0.14657 0.5676 0.0
H309 H 0.87543 0.14669 0.61008 0.0
H310 H 0.81 0.19301 0.64706 0.0
H311 H 0.78261 0.19271 0.60446 0.0
H312 H 0.71715 0.22816 0.47628 0.0
H313 H 0.75399 0.19835 0.49144 0.0
H314 H 0.68333 0.17268 0.42066 0.0
H315 H 0.71987 0.14308 0.43609 0.0
H316 H 0.87223 0.07065 0.43281 0.0
H317 H 0.84523 0.01889 0.49452 0.0
H318 H 0.82767 0.05367 0.52205 0.0
H319 H 0.85471 0.10545 0.4604 0.0
Fe320 Fe 1.00833 0.83041 0.33623 0.0
Fe321 Fe 1.00882 0.85933 0.39024 0.0
O322 O 1.00816 0.85917 0.35433 0.0
Fe323 Fe 1.00746 0.88785 0.33661 0.0
O324 O 0.98591 0.8759 0.30817 0.0
O325 O 0.97441 0.83745 0.3191 0.0
O326 O 0.98693 0.81335 0.36161 0.0
C327 C 0.97074 0.82093 0.38064 0.0
C328 C 0.0452 0.86164 0.30484 0.0
O329 O 0.97517 0.84186 0.39181 0.0
C330 C 0.04588 0.89807 0.38041 0.0
O331 O 0.04236 0.82119 0.35163 0.0
O332 O 0.03057 0.83081 0.39338 0.0
O333 O 0.04104 0.88078 0.31933 0.0
O334 O 0.02963 0.8423 0.30764 0.0
C335 C 0.97047 0.89919 0.37778 0.0
O336 O 0.04255 0.87695 0.3912 0.0
O337 O 0.02899 0.90517 0.36178 0.0
C338 C 0.04705 0.81982 0.37673 0.0
O339 O 0.98722 0.88791 0.39391 0.0
O340 O 0.97375 0.89707 0.35253 0.0
C341 C 0.97013 0.85674 0.3051 0.0
Fe342 Fe 1.00694 0.15773 0.88534 0.0
Fe343 Fe 1.00716 0.13162 0.82977 0.0
O344 O 1.00705 0.15941 0.84947 0.0
Fe345 Fe 1.00714 0.18893 0.83328 0.0
O346 O 0.04097 0.19776 0.84951 0.0
O347 O 0.02868 0.18624 0.8905 0.0
O348 O 0.04065 0.14032 0.88596 0.0
C349 C 0.04479 0.11994 0.8736 0.0
C350 C 0.96903 0.19633 0.87771 0.0
O351 O 0.02866 0.11352 0.85398 0.0
C352 C 0.96939 0.16352 0.80036 0.0
O353 O 0.9853 0.1289 0.88679 0.0
O354 O 0.97343 0.12097 0.84451 0.0
O355 O 0.98557 0.20478 0.8595 0.0
O356 O 0.9732 0.17491 0.88746 0.0
C357 C 0.04499 0.15996 0.80047 0.0
O358 O 0.98565 0.14457 0.8019 0.0
O359 O 0.9734 0.18217 0.81569 0.0
C360 C 0.96933 0.11794 0.86951 0.0
O361 O 0.04095 0.1401 0.81354 0.0
O362 O 0.02866 0.17864 0.80406 0.0
C363 C 0.04535 0.19803 0.87472 0.0
Fe364 Fe 0.50737 0.33312 0.33434 0.0
Fe365 Fe 0.50824 0.36192 0.38844 0.0
O366 O 0.5082 0.36184 0.35251 0.0
Fe367 Fe 0.50914 0.39049 0.33473 0.0
O368 O 0.48751 0.37919 0.30601 0.0
O369 O 0.47387 0.3413 0.31709 0.0
O370 O 0.4852 0.31656 0.35944 0.0
C371 C 0.46912 0.32439 0.3784 0.0
C372 C 0.54602 0.36303 0.3034 0.0
O373 O 0.47402 0.34522 0.38961 0.0
C374 C 0.54697 0.39967 0.37922 0.0
O375 O 0.54087 0.32288 0.35002 0.0
O376 O 0.52908 0.33292 0.39171 0.0
O377 O 0.54271 0.38222 0.318 0.0
O378 O 0.52931 0.34438 0.3059 0.0
C379 C 0.47177 0.40298 0.37534 0.0
O380 O 0.54246 0.37875 0.39009 0.0
O381 O 0.53096 0.40716 0.36012 0.0
C382 C 0.5453 0.32148 0.37518 0.0
O383 O 0.48748 0.39098 0.39177 0.0
O384 O 0.47564 0.40097 0.35015 0.0
C385 C 0.47073 0.36066 0.30292 0.0
Fe386 Fe 0.50815 0.65918 0.88778 0.0
Fe387 Fe 0.50776 0.63335 0.83218 0.0
O388 O 0.50789 0.66107 0.85195 0.0
Fe389 Fe 0.50785 0.69062 0.83592 0.0
O390 O 0.5417 0.69954 0.85211 0.0
O391 O 0.52969 0.68774 0.89304 0.0
O392 O 0.54203 0.64193 0.88784 0.0
C393 C 0.54566 0.62141 0.87563 0.0
C394 C 0.46986 0.6976 0.88055 0.0
O395 O 0.52901 0.61501 0.85639 0.0
C396 C 0.47028 0.66539 0.8027 0.0
O397 O 0.4867 0.63021 0.88914 0.0
O398 O 0.47387 0.62298 0.84698 0.0
O399 O 0.48621 0.70623 0.86226 0.0
O400 O 0.47433 0.67621 0.89028 0.0
C401 C 0.54577 0.66166 0.80307 0.0
O402 O 0.48655 0.64647 0.80424 0.0
O403 O 0.47404 0.68384 0.81835 0.0
C404 C 0.47024 0.6196 0.872 0.0
O405 O 0.54163 0.64173 0.81603 0.0
O406 O 0.52946 0.68038 0.80668 0.0
C407 C 0.54623 0.69967 0.8773 0.0
C408 C 0.15537 0.29783 0.94068 0.0
C409 C 0.18229 0.28695 0.94629 0.0
C410 C 0.13318 0.28411 0.92788 0.0
C411 C 0.138 0.25887 0.92044 0.0
C412 C 0.16536 0.24798 0.92542 0.0
C413 C 0.18713 0.26212 0.93826 0.0
C414 C 0.10432 0.29641 0.92299 0.0
C415 C 0.17148 0.22121 0.91766 0.0
C416 C 0.07322 0.21515 0.9144 0.0
C417 C 0.06902 0.21374 0.88628 0.0
C418 C 0.09543 0.22985 0.92572 0.0
C419 C 0.11407 0.24351 0.90856 0.0
C420 C 0.11 0.24222 0.88016 0.0
C421 C 0.08756 0.22737 0.86937 0.0
C422 C 0.09901 0.23069 0.9561 0.0
C423 C 0.12943 0.25647 0.86118 0.0
H424 H 0.15131 0.3169 0.94705 0.0
H425 H 0.208 0.25367 0.94213 0.0
H426 H 0.09813 0.29464 0.90135 0.0
H427 H 0.08736 0.28684 0.93495 0.0
H428 H 0.1045 0.31651 0.92865 0.0
H429 H 0.19424 0.21584 0.92185 0.0
H430 H 0.15697 0.20856 0.92907 0.0
H431 H 0.16696 0.21818 0.89583 0.0
H432 H 0.0591 0.20472 0.9277 0.0
H433 H 0.0846 0.22642 0.84762 0.0
H434 H 0.09735 0.25023 0.96348 0.0
H435 H 0.1208 0.22382 0.96177 0.0
H436 H 0.08253 0.21921 0.96666 0.0
H437 H 0.12852 0.27672 0.86593 0.0
H438 H 0.12331 0.25364 0.83962 0.0
H439 H 0.15219 0.25048 0.86396 0.0
C440 C 0.83331 0.73729 0.42207 0.0
C441 C 0.83985 0.721 0.44338 0.0
C442 C 0.85406 0.75409 0.41207 0.0
C443 C 0.88217 0.75464 0.42354 0.0
C444 C 0.88883 0.73847 0.44527 0.0
C445 C 0.86761 0.72191 0.45494 0.0
C446 C 0.84597 0.77111 0.38903 0.0
C447 C 0.91855 0.73837 0.45801 0.0
C448 C 0.94406 0.77994 0.38078 0.0
C449 C 0.9478 0.80412 0.39142 0.0
C450 C 0.92285 0.7637 0.39105 0.0
C451 C 0.90476 0.77177 0.41245 0.0
C452 C 0.90827 0.79617 0.42319 0.0
C453 C 0.9297 0.81202 0.41258 0.0
C454 C 0.91987 0.73783 0.37902 0.0
C455 C 0.88939 0.80555 0.44593 0.0
H456 H 0.81182 0.73698 0.41325 0.0
H457 H 0.873 0.70922 0.47117 0.0
H458 H 0.84961 0.79087 0.39501 0.0
H459 H 0.85998 0.76724 0.37131 0.0
H460 H 0.82303 0.7688 0.38274 0.0
H461 H 0.92008 0.72513 0.47516 0.0
H462 H 0.93491 0.73313 0.44263 0.0
H463 H 0.92419 0.75735 0.46546 0.0
H464 H 0.95784 0.77357 0.36445 0.0
H465 H 0.93228 0.83064 0.42096 0.0
H466 H 0.8977 0.73514 0.37085 0.0
H467 H 0.92317 0.72362 0.39496 0.0
H468 H 0.93562 0.73437 0.36249 0.0
H469 H 0.86631 0.80468 0.43978 0.0
H470 H 0.89469 0.82506 0.45193 0.0
H471 H 0.89192 0.7934 0.46388 0.0
C472 C 0.87272 0.29295 0.96177 0.0
C473 C 0.84371 0.29385 0.95335 0.0
C474 C 0.8928 0.27733 0.94876 0.0
C475 C 0.88376 0.26216 0.92672 0.0
C476 C 0.85464 0.26327 0.9178 0.0
C477 C 0.835 0.27908 0.93119 0.0
C478 C 0.92367 0.27688 0.95882 0.0
C479 C 0.8441 0.24741 0.89439 0.0
C480 C 0.9422 0.23706 0.87968 0.0
C481 C 0.94633 0.21277 0.88953 0.0
C482 C 0.92166 0.25318 0.8913 0.0
C483 C 0.90472 0.24489 0.91333 0.0
C484 C 0.9084 0.22027 0.92309 0.0
C485 C 0.9291 0.20454 0.91108 0.0
C486 C 0.91838 0.27923 0.88022 0.0
C487 C 0.89077 0.21067 0.94651 0.0
H488 H 0.87979 0.30455 0.97859 0.0
H489 H 0.81259 0.2794 0.92471 0.0
H490 H 0.92928 0.2578 0.96563 0.0
H491 H 0.93865 0.28169 0.94214 0.0
H492 H 0.92738 0.29012 0.97588 0.0
H493 H 0.82105 0.25099 0.88937 0.0
H494 H 0.8574 0.25105 0.87618 0.0
H495 H 0.84657 0.22735 0.89935 0.0
H496 H 0.95526 0.24365 0.86299 0.0
H497 H 0.93197 0.18583 0.91884 0.0
H498 H 0.92384 0.29315 0.89617 0.0
H499 H 0.89559 0.28252 0.87417 0.0
H500 H 0.93251 0.28257 0.86246 0.0
H501 H 0.89524 0.22213 0.96484 0.0
H502 H 0.89556 0.19084 0.95116 0.0
H503 H 0.86735 0.2124 0.94195 0.0
C504 C 0.15233 0.71327 0.43208 0.0
C505 C 0.18051 0.72189 0.43732 0.0
C506 C 0.13081 0.72937 0.4223 0.0
C507 C 0.13756 0.75477 0.41754 0.0
C508 C 0.16591 0.76365 0.42293 0.0
C509 C 0.187 0.74714 0.43279 0.0
C510 C 0.10082 0.71917 0.41704 0.0
C511 C 0.17401 0.79057 0.41804 0.0
C512 C 0.08874 0.79052 0.36914 0.0
C513 C 0.07068 0.80359 0.38706 0.0
C514 C 0.11076 0.77479 0.37876 0.0
C515 C 0.11489 0.77201 0.407 0.0
C516 C 0.09696 0.78534 0.42519 0.0
C517 C 0.07515 0.80095 0.41503 0.0
C518 C 0.12945 0.76096 0.35869 0.0
C519 C 0.10063 0.78292 0.45543 0.0
H520 H 0.147 0.69388 0.43587 0.0
H521 H 0.20879 0.7539 0.43646 0.0
H522 H 0.08479 0.72955 0.42939 0.0
H523 H 0.09489 0.72185 0.39549 0.0
H524 H 0.09904 0.69899 0.42184 0.0
H525 H 0.19691 0.7946 0.42344 0.0
H526 H 0.17061 0.79521 0.39642 0.0
H527 H 0.15987 0.80306 0.4301 0.0
H528 H 0.0856 0.79245 0.34751 0.0
H529 H 0.06145 0.81099 0.42911 0.0
H530 H 0.12687 0.74053 0.36146 0.0
H531 H 0.15257 0.7655 0.3623 0.0
H532 H 0.12396 0.76559 0.33741 0.0
H533 H 0.09721 0.76322 0.46149 0.0
H534 H 0.08528 0.79487 0.46687 0.0
H535 H 0.12301 0.78812 0.4614 0.0
C536 C 0.65761 0.79795 0.94419 0.0
C537 C 0.68435 0.78667 0.94966 0.0
C538 C 0.63521 0.78465 0.9312 0.0
C539 C 0.63962 0.75945 0.92339 0.0
C540 C 0.6668 0.74817 0.92821 0.0
C541 C 0.68878 0.76188 0.94128 0.0
C542 C 0.60654 0.79735 0.92651 0.0
C543 C 0.67249 0.72142 0.92006 0.0
C544 C 0.57429 0.71639 0.91704 0.0
C545 C 0.57 0.71524 0.88891 0.0
C546 C 0.59667 0.73082 0.92845 0.0
C547 C 0.61541 0.74448 0.91139 0.0
C548 C 0.61122 0.74349 0.88299 0.0
C549 C 0.5886 0.7289 0.8721 0.0
C550 C 0.60035 0.73134 0.95883 0.0
C551 C 0.63076 0.75775 0.86411 0.0
H552 H 0.65388 0.817 0.95081 0.0
H553 H 0.7095 0.75314 0.94503 0.0
H554 H 0.60028 0.79588 0.90487 0.0
H555 H 0.58945 0.78787 0.93839 0.0
H556 H 0.60706 0.81739 0.93241 0.0
H557 H 0.69518 0.71576 0.9241 0.0
H558 H 0.65784 0.7088 0.93134 0.0
H559 H 0.66785 0.71871 0.8982 0.0
H560 H 0.56013 0.70593 0.93028 0.0
H561 H 0.58557 0.72815 0.85035 0.0
H562 H 0.59906 0.75084 0.96643 0.0
H563 H 0.62204 0.72413 0.96436 0.0
H564 H 0.58371 0.71999 0.96931 0.0
H565 H 0.63021 0.77795 0.86916 0.0
H566 H 0.62447 0.75525 0.84255 0.0
H567 H 0.65343 0.75145 0.86668 0.0
C568 C 0.37153 0.22127 0.45112 0.0
C569 C 0.34225 0.22221 0.44362 0.0
C570 C 0.39166 0.23857 0.44099 0.0
C571 C 0.38239 0.25723 0.42275 0.0
C572 C 0.3528 0.25848 0.41534 0.0
C573 C 0.3331 0.24102 0.42591 0.0
C574 C 0.42293 0.2367 0.44962 0.0
C575 C 0.34205 0.27794 0.39581 0.0
C576 C 0.43096 0.31416 0.41291 0.0
C577 C 0.44605 0.30776 0.38923 0.0
C578 C 0.41004 0.29803 0.42391 0.0
C579 C 0.40384 0.27499 0.41088 0.0
C580 C 0.41858 0.26864 0.38673 0.0
C581 C 0.4395 0.28503 0.37626 0.0
C582 C 0.39488 0.30549 0.44972 0.0
C583 C 0.41251 0.24435 0.37208 0.0
H584 H 0.37872 0.20701 0.46505 0.0
H585 H 0.3106 0.24172 0.41976 0.0
H586 H 0.43672 0.23301 0.43171 0.0
H587 H 0.43023 0.25467 0.45864 0.0
H588 H 0.4265 0.22162 0.46459 0.0
H589 H 0.31827 0.2769 0.39271 0.0
H590 H 0.34769 0.2969 0.40334 0.0
H591 H 0.35282 0.27548 0.37595 0.0
H592 H 0.43579 0.33164 0.42314 0.0
H593 H 0.45085 0.2799 0.35791 0.0
H594 H 0.39955 0.29166 0.46576 0.0
H595 H 0.37112 0.30552 0.44653 0.0
H596 H 0.40166 0.32427 0.45707 0.0
H597 H 0.41784 0.22841 0.3854 0.0
H598 H 0.42515 0.24251 0.3531 0.0
H599 H 0.38916 0.24291 0.36706 0.0
C600 C 0.37104 0.79306 0.96378 0.0
C601 C 0.34204 0.79335 0.95526 0.0
C602 C 0.39156 0.77773 0.95097 0.0
C603 C 0.38298 0.76224 0.92903 0.0
C604 C 0.35387 0.76273 0.92001 0.0
C605 C 0.33378 0.77827 0.9332 0.0
C606 C 0.4224 0.77793 0.96113 0.0
C607 C 0.34382 0.74651 0.89671 0.0
C608 C 0.44218 0.73793 0.88231 0.0
C609 C 0.44686 0.71377 0.89232 0.0
C610 C 0.42123 0.75374 0.89378 0.0
C611 C 0.40445 0.74528 0.91584 0.0
C612 C 0.40872 0.72081 0.92579 0.0
C613 C 0.42981 0.70537 0.91393 0.0
C614 C 0.41733 0.77965 0.8825 0.0
C615 C 0.39128 0.71103 0.94926 0.0
H616 H 0.37776 0.80491 0.98052 0.0
H617 H 0.31139 0.77813 0.92664 0.0
H618 H 0.42848 0.75901 0.96811 0.0
H619 H 0.43731 0.78293 0.94446 0.0
H620 H 0.42571 0.79134 0.9781 0.0
H621 H 0.3207 0.7496 0.8916 0.0
H622 H 0.35707 0.7503 0.8785 0.0
H623 H 0.34682 0.72655 0.90183 0.0
H624 H 0.45508 0.74464 0.86557 0.0
H625 H 0.43311 0.68676 0.92182 0.0
H626 H 0.42233 0.79377 0.89836 0.0
H627 H 0.39449 0.78245 0.87631 0.0
H628 H 0.43146 0.78316 0.86477 0.0
H629 H 0.39538 0.72272 0.96749 0.0
H630 H 0.3966 0.69135 0.95411 0.0
H631 H 0.36784 0.71226 0.94462 0.0
C632 C 0.68266 0.24578 0.43211 0.0
C633 C 0.67513 0.22088 0.43743 0.0
C634 C 0.66218 0.26272 0.42197 0.0
C635 C 0.63342 0.25463 0.41708 0.0
C636 C 0.62562 0.2296 0.42266 0.0
C637 C 0.64653 0.21307 0.43274 0.0
C638 C 0.67138 0.28923 0.41625 0.0
C639 C 0.59517 0.22025 0.41794 0.0
C640 C 0.57295 0.30262 0.41375 0.0
C641 C 0.56834 0.30476 0.38575 0.0
C642 C 0.5942 0.28661 0.42418 0.0
C643 C 0.6114 0.27232 0.40623 0.0
C644 C 0.60712 0.27456 0.37795 0.0
C645 C 0.58568 0.29073 0.36805 0.0
C646 C 0.59808 0.28481 0.45446 0.0
C647 C 0.62501 0.25966 0.35813 0.0
H648 H 0.70476 0.25191 0.43536 0.0
H649 H 0.6404 0.19398 0.43714 0.0
H650 H 0.66801 0.29343 0.39452 0.0
H651 H 0.65786 0.30246 0.42801 0.0
H652 H 0.69447 0.29266 0.42138 0.0
H653 H 0.59257 0.20027 0.42333 0.0
H654 H 0.57972 0.23143 0.43011 0.0
H655 H 0.58914 0.2226 0.39636 0.0
H656 H 0.55981 0.3134 0.42766 0.0
H657 H 0.58242 0.29225 0.3464 0.0
H658 H 0.62072 0.28943 0.46009 0.0
H659 H 0.59388 0.2654 0.46111 0.0
H660 H 0.58337 0.29753 0.46567 0.0
H661 H 0.64834 0.26356 0.36142 0.0
H662 H 0.6195 0.26394 0.33676 0.0
H663 H 0.62162 0.23941 0.36151 0.0
C664 C 0.3536 0.52004 0.9279 0.0
C665 C 0.36515 0.49595 0.92526 0.0
C666 C 0.36896 0.5411 0.91889 0.0
C667 C 0.39669 0.53804 0.90724 0.0
C668 C 0.40845 0.51376 0.90453 0.0
C669 C 0.39249 0.49303 0.91345 0.0
C670 C 0.35556 0.56663 0.9219 0.0
C671 C 0.43809 0.5097 0.89256 0.0
C672 C 0.43031 0.58852 0.86319 0.0
C673 C 0.4496 0.60012 0.88134 0.0
C674 C 0.41235 0.56876 0.87151 0.0
C675 C 0.41388 0.56022 0.89856 0.0
C676 C 0.43278 0.57224 0.91711 0.0
C677 C 0.45025 0.59208 0.90834 0.0
C678 C 0.39222 0.55665 0.8512 0.0
C679 C 0.43524 0.56364 0.94607 0.0
H680 H 0.33234 0.52239 0.93674 0.0
H681 H 0.40169 0.47451 0.91164 0.0
H682 H 0.36931 0.57854 0.93516 0.0
H683 H 0.35434 0.57587 0.90191 0.0
H684 H 0.33347 0.56578 0.93065 0.0
H685 H 0.444 0.48962 0.89158 0.0
H686 H 0.43897 0.51747 0.87182 0.0
H687 H 0.45458 0.51973 0.90486 0.0
H688 H 0.4295 0.59464 0.84234 0.0
H689 H 0.46505 0.60084 0.92258 0.0
H690 H 0.36981 0.55634 0.85917 0.0
H691 H 0.39877 0.53698 0.84773 0.0
H692 H 0.39222 0.56647 0.83147 0.0
H693 H 0.41368 0.56377 0.95584 0.0
H694 H 0.45018 0.57554 0.95823 0.0
H695 H 0.44324 0.54414 0.94654 0.0
C696 C 0.61361 0.51026 0.46396 0.0
C697 C 0.64335 0.51495 0.46142 0.0
C698 C 0.60022 0.49053 0.44991 0.0
C699 C 0.61694 0.47497 0.43281 0.0
C700 C 0.64697 0.47961 0.43001 0.0
C701 C 0.65982 0.49962 0.44428 0.0
C702 C 0.56808 0.48645 0.45324 0.0
C703 C 0.66551 0.46341 0.41203 0.0
C704 C 0.58175 0.41236 0.41617 0.0
C705 C 0.56813 0.41748 0.39141 0.0
C706 C 0.5989 0.43051 0.42932 0.0
C707 C 0.60254 0.45432 0.41743 0.0
C708 C 0.59009 0.45911 0.3918 0.0
C709 C 0.5731 0.44068 0.37913 0.0
C710 C 0.61195 0.42461 0.45656 0.0
C711 C 0.59348 0.48419 0.37834 0.0
H712 H 0.60065 0.52226 0.47682 0.0
H713 H 0.68284 0.50302 0.44239 0.0
H714 H 0.55705 0.48817 0.43337 0.0
H715 H 0.56387 0.4673 0.46072 0.0
H716 H 0.55825 0.50002 0.46757 0.0
H717 H 0.68855 0.46933 0.41221 0.0
H718 H 0.66418 0.44369 0.41867 0.0
H719 H 0.65736 0.46404 0.39091 0.0
H720 H 0.57819 0.39449 0.4258 0.0
H721 H 0.56296 0.4448 0.35987 0.0
H722 H 0.60107 0.43587 0.47245 0.0
H723 H 0.63522 0.4297 0.45696 0.0
H724 H 0.60971 0.40455 0.46175 0.0
H725 H 0.58185 0.49861 0.39026 0.0
H726 H 0.58477 0.48417 0.35737 0.0
H727 H 0.6166 0.48974 0.37775 0.0
C728 C 0.66781 0.52083 0.9134 0.0
C729 C 0.65957 0.50715 0.93631 0.0
C730 C 0.65124 0.54108 0.90423 0.0
C731 C 0.62554 0.54768 0.91803 0.0
C732 C 0.61751 0.53443 0.94155 0.0
C733 C 0.63468 0.51449 0.95049 0.0
C734 C 0.66071 0.55486 0.8792 0.0
C735 C 0.5902 0.54075 0.95679 0.0
C736 C 0.58848 0.61002 0.90467 0.0
C737 C 0.567 0.60303 0.88595 0.0
C738 C 0.60806 0.59234 0.91498 0.0
C739 C 0.60585 0.56703 0.90666 0.0
C740 C 0.5843 0.55994 0.88769 0.0
C741 C 0.56534 0.578 0.87746 0.0
C742 C 0.631 0.6007 0.93487 0.0
C743 C 0.58092 0.53313 0.8785 0.0
H744 H 0.68677 0.51526 0.90206 0.0
H745 H 0.6284 0.50448 0.96854 0.0
H746 H 0.64512 0.55122 0.86252 0.0
H747 H 0.66086 0.57529 0.88305 0.0
H748 H 0.68258 0.5491 0.87237 0.0
H749 H 0.58776 0.52954 0.97549 0.0
H750 H 0.59005 0.56083 0.96237 0.0
H751 H 0.57111 0.53728 0.94361 0.0
H752 H 0.59002 0.62932 0.91126 0.0
H753 H 0.54877 0.57231 0.86312 0.0
H754 H 0.65274 0.59547 0.92728 0.0
H755 H 0.6279 0.59107 0.95446 0.0
H756 H 0.63057 0.62118 0.93852 0.0
H757 H 0.60131 0.52646 0.86921 0.0
H758 H 0.56311 0.53069 0.86356 0.0
H759 H 0.57643 0.52106 0.89617 0.0
C760 C 0.41269 0.52799 0.43835 0.0
C761 C 0.38358 0.52817 0.44633 0.0
C762 C 0.42463 0.50733 0.42488 0.0
C763 C 0.40703 0.48626 0.41908 0.0
C764 C 0.37734 0.4867 0.42606 0.0
C765 C 0.36596 0.50765 0.43961 0.0
C766 C 0.45636 0.50771 0.41771 0.0
C767 C 0.35786 0.46466 0.42016 0.0
C768 C 0.4386 0.43967 0.36876 0.0
C769 C 0.45202 0.42252 0.3861 0.0
C770 C 0.42283 0.46 0.37914 0.0
C771 C 0.4204 0.46325 0.40751 0.0
C772 C 0.43272 0.44536 0.42504 0.0
C773 C 0.4483 0.42525 0.41415 0.0
C774 C 0.40984 0.47857 0.35977 0.0
C775 C 0.43056 0.44804 0.45541 0.0
H776 H 0.42632 0.54396 0.443 0.0
H777 H 0.34351 0.50754 0.44585 0.0
H778 H 0.46792 0.4931 0.42929 0.0
H779 H 0.45926 0.50339 0.39591 0.0
H780 H 0.46667 0.52604 0.4222 0.0
H781 H 0.3348 0.46882 0.42447 0.0
H782 H 0.35985 0.45884 0.39867 0.0
H783 H 0.36457 0.44858 0.43272 0.0
H784 H 0.44122 0.43773 0.34706 0.0
H785 H 0.45834 0.41204 0.42776 0.0
H786 H 0.42154 0.49662 0.36157 0.0
H787 H 0.38688 0.48213 0.36493 0.0
H788 H 0.41105 0.47208 0.33842 0.0
H789 H 0.44262 0.46493 0.46213 0.0
H790 H 0.43948 0.43162 0.46618 0.0
H791 H 0.40768 0.45054 0.46152 0.0
C792 C 0.89567 0.99341 0.92156 0.0
C793 C 0.86569 0.99461 0.92566 0.0
C794 C 0.91128 0.01419 0.91228 0.0
C795 C 0.89658 0.03679 0.90687 0.0
C796 C 0.86632 0.03816 0.91096 0.0
C797 C 0.85125 0.01709 0.92035 0.0
C798 C 0.94356 0.01198 0.90839 0.0
C799 C 0.84985 0.06187 0.90534 0.0
C800 C 0.94308 0.09551 0.90653 0.0
C801 C 0.94842 0.09866 0.8788 0.0
C802 C 0.92554 0.07593 0.91588 0.0
C803 C 0.91306 0.05896 0.89709 0.0
C804 C 0.91755 0.0625 0.86903 0.0
C805 C 0.93508 0.08233 0.86022 0.0
C806 C 0.92112 0.07295 0.94595 0.0
C807 C 0.90463 0.04483 0.84834 0.0
H808 H 0.90706 0.97624 0.92597 0.0
H809 H 0.82804 0.01809 0.92318 0.0
H810 H 0.94925 0.01619 0.88711 0.0
H811 H 0.95495 0.02583 0.92139 0.0
H812 H 0.95172 0.99306 0.91336 0.0
H813 H 0.82637 0.05993 0.90961 0.0
H814 H 0.85867 0.07739 0.91787 0.0
H815 H 0.85257 0.06722 0.88384 0.0
H816 H 0.95308 0.10809 0.92107 0.0
H817 H 0.939 0.08456 0.83876 0.0
H818 H 0.93107 0.05523 0.95275 0.0
H819 H 0.8977 0.07185 0.95062 0.0
H820 H 0.93078 0.08859 0.95779 0.0
H821 H 0.91398 0.02594 0.85094 0.0
H822 H 0.90869 0.05099 0.82726 0.0
H823 H 0.88094 0.04316 0.85139 0.0
C824 C 0.16028 1.00014 0.43819 0.0
C825 C 0.14751 0.01148 0.46084 0.0
C826 C 0.14623 0.98053 0.42425 0.0
C827 C 0.11863 0.97234 0.43297 0.0
C828 C 0.10571 0.98374 0.45583 0.0
C829 C 0.12031 1.00307 0.46949 0.0
C830 C 0.16081 0.96871 0.4001 0.0
C831 C 0.07614 0.97587 0.46559 0.0
C832 C 0.06605 0.94141 0.38393 0.0
C833 C 0.06672 0.91637 0.39222 0.0
C834 C 0.08351 0.95961 0.39643 0.0
C835 C 0.10246 0.95267 0.41761 0.0
C836 C 0.10421 0.92728 0.42533 0.0
C837 C 0.08621 0.90944 0.41264 0.0
C838 C 0.08074 0.98648 0.38771 0.0
C839 C 0.1244 0.91908 0.44759 0.0
H840 H 0.18138 1.00643 0.43154 0.0
H841 H 0.11012 0.012 0.48673 0.0
H842 H 0.16255 0.94824 0.40299 0.0
H843 H 0.14757 0.97172 0.38167 0.0
H844 H 0.1828 0.97645 0.39662 0.0
H845 H 0.06938 0.98624 0.48403 0.0
H846 H 0.05985 0.97906 0.44945 0.0
H847 H 0.07598 0.95561 0.4701 0.0
H848 H 0.05116 0.94705 0.36815 0.0
H849 H 0.08707 0.89015 0.41908 0.0
H850 H 0.1023 0.9943 0.38271 0.0
H851 H 0.07187 0.99782 0.4046 0.0
H852 H 0.06634 0.98859 0.36984 0.0
H853 H 0.14659 0.92618 0.44382 0.0
H854 H 0.12522 0.89844 0.44948 0.0
H855 H 0.11717 0.92709 0.46718 0.0
C856 C 0.12693 1.00594 0.94159 0.0
C857 C 0.15652 1.00458 0.93545 0.0
C858 C 0.10986 0.02587 0.93245 0.0
C859 C 0.12259 0.04496 0.91669 0.0
C860 C 0.15255 0.044 0.91089 0.0
C861 C 0.16913 0.02385 0.92033 0.0
C862 C 0.07799 0.02614 0.93905 0.0
C863 C 0.16698 0.06399 0.89424 0.0
C864 C 0.072 0.07974 0.86939 0.0
C865 C 0.0664 0.10179 0.88396 0.0
C866 C 0.09068 0.06142 0.87957 0.0
C867 C 0.10418 0.06509 0.90503 0.0
C868 C 0.09924 0.08755 0.91959 0.0
C869 C 0.08048 0.10566 0.90886 0.0
C870 C 0.09547 0.03785 0.86328 0.0
C871 C 0.11322 0.09218 0.94681 0.0
H872 H 0.11687 0.99103 0.95295 0.0
H873 H 0.19205 0.02319 0.91583 0.0
H874 H 0.07208 0.04415 0.94874 0.0
H875 H 0.06515 0.02444 0.92013 0.0
H876 H 0.07173 1.0107 0.95277 0.0
H877 H 0.19072 0.0612 0.89264 0.0
H878 H 0.15761 0.06404 0.87355 0.0
H879 H 0.16291 0.08266 0.90327 0.0
H880 H 0.06145 0.07658 0.85005 0.0
H881 H 0.07634 0.12259 0.92031 0.0
H882 H 0.08743 0.02149 0.87472 0.0
H883 H 0.11893 0.03499 0.8598 0.0
H884 H 0.08429 0.03828 0.84336 0.0
H885 H 0.10542 0.07811 0.96149 0.0
H886 H 0.1084 0.11109 0.95492 0.0
H887 H 0.13702 0.09003 0.94529 0.0
C888 C 0.90119 0.02341 0.43519 0.0
C889 C 0.87332 0.02097 0.44602 0.0
C890 C 0.91499 1.00314 0.42259 0.0
C891 C 0.90053 0.97984 0.4206 0.0
C892 C 0.87201 0.97748 0.43065 0.0
C893 C 0.85879 0.99803 0.44334 0.0
C894 C 0.94549 1.00641 0.41232 0.0
C895 C 0.85577 0.95304 0.42869 0.0
C896 C 0.93287 0.93257 0.37144 0.0
C897 C 0.95011 0.91814 0.38875 0.0
C898 C 0.91582 0.95221 0.38159 0.0
C899 C 0.91611 0.95763 0.40967 0.0
C900 C 0.93265 0.94259 0.42733 0.0
C901 C 0.94932 0.92302 0.41669 0.0
C902 C 0.89823 0.96766 0.36215 0.0
C903 C 0.93362 0.94773 0.45741 0.0
H904 H 0.9127 0.04095 0.43748 0.0
H905 H 0.83712 0.99611 0.45139 0.0
H906 H 0.9604 0.99437 0.42404 0.0
H907 H 0.94688 1.00047 0.39083 0.0
H908 H 0.95312 0.02605 0.41404 0.0
H909 H 0.83299 0.95479 0.43553 0.0
H910 H 0.85586 0.94601 0.40753 0.0
H911 H 0.86669 0.93882 0.44132 0.0
H912 H 0.93319 0.92893 0.34985 0.0
H913 H 0.96242 0.91198 0.43032 0.0
H914 H 0.90704 0.98694 0.36152 0.0
H915 H 0.8755 0.96898 0.36913 0.0
H916 H 0.8984 0.95979 0.3413 0.0
H917 H 0.94335 0.96638 0.46123 0.0
H918 H 0.94643 0.93357 0.46854 0.0
H919 H 0.91139 0.94805 0.46579 0.0
C920 C 0.40136 0.3561 0.15646 0.0
C921 C 0.37318 0.36563 0.15461 0.0
C922 C 0.41503 0.35313 0.18165 0.0
C923 C 0.40015 0.35973 0.20566 0.0
C924 C 0.37121 0.36821 0.20402 0.0
C925 C 0.35813 0.37117 0.17852 0.0
C926 C 0.44597 0.3442 0.18244 0.0
C927 C 0.35449 0.37519 0.22912 0.0
C928 C 0.43443 0.33929 0.27227 0.0
C929 C 0.45021 0.36073 0.27966 0.0
C930 C 0.41727 0.33884 0.24866 0.0
C931 C 0.41596 0.36027 0.23203 0.0
C932 C 0.43105 0.38218 0.23991 0.0
C933 C 0.44782 0.38216 0.26358 0.0
C934 C 0.40125 0.31521 0.24108 0.0
C935 C 0.43029 0.40547 0.22282 0.0
H936 H 0.41327 0.35203 0.13811 0.0
H937 H 0.33622 0.37822 0.17726 0.0
H938 H 0.46025 0.35961 0.18953 0.0
H939 H 0.44829 0.32864 0.19699 0.0
H940 H 0.45363 0.33779 0.16229 0.0
H941 H 0.3313 0.37873 0.22469 0.0
H942 H 0.35605 0.36016 0.24439 0.0
H943 H 0.36397 0.39232 0.2383 0.0
H944 H 0.43603 0.32265 0.28455 0.0
H945 H 0.4597 0.39892 0.2691 0.0
H946 H 0.41059 0.30721 0.22229 0.0
H947 H 0.37819 0.31936 0.23685 0.0
H948 H 0.40244 0.30093 0.25724 0.0
H949 H 0.43993 0.40151 0.20271 0.0
H950 H 0.44232 0.42125 0.23229 0.0
H951 H 0.40761 0.41137 0.21937 0.0
C952 C 0.62916 0.65528 0.66278 0.0
C953 C 0.65834 0.66256 0.66398 0.0
C954 C 0.6119 0.65492 0.68612 0.0
C955 C 0.62403 0.66203 0.71137 0.0
C956 C 0.65349 0.66926 0.71279 0.0
C957 C 0.67027 0.66946 0.68909 0.0
C958 C 0.58055 0.64719 0.68368 0.0
C959 C 0.66725 0.6769 0.73933 0.0
C960 C 0.57106 0.6838 0.76526 0.0
C961 C 0.56746 0.66219 0.78089 0.0
C962 C 0.58987 0.68415 0.743 0.0
C963 C 0.6056 0.6624 0.73611 0.0
C964 C 0.60273 0.64074 0.75221 0.0
C965 C 0.58373 0.6409 0.77439 0.0
C966 C 0.59234 0.70765 0.72643 0.0
C967 C 0.61919 0.61719 0.74559 0.0
H968 H 0.61961 0.65028 0.64343 0.0
H969 H 0.69287 0.67481 0.69028 0.0
H970 H 0.57605 0.63127 0.69729 0.0
H971 H 0.56641 0.66283 0.69012 0.0
H972 H 0.57458 0.64167 0.66269 0.0
H973 H 0.69052 0.68166 0.73711 0.0
H974 H 0.65583 0.69334 0.74785 0.0
H975 H 0.66516 0.66157 0.7542 0.0
H976 H 0.55874 0.70041 0.77011 0.0
H977 H 0.58124 0.62412 0.78632 0.0
H978 H 0.58445 0.704 0.70555 0.0
H979 H 0.61531 0.7135 0.72492 0.0
H980 H 0.57969 0.72333 0.73517 0.0
H981 H 0.61216 0.60988 0.72556 0.0
H982 H 0.61581 0.6024 0.76092 0.0
H983 H 0.64268 0.62126 0.74421 0.0
C984 C 0.61082 0.38172 0.15778 0.0
C985 C 0.64007 0.3757 0.15407 0.0
C986 C 0.59745 0.37903 0.18306 0.0
C987 C 0.61368 0.37014 0.20532 0.0
C988 C 0.64322 0.364 0.20178 0.0
C989 C 0.65607 0.36688 0.17621 0.0
C990 C 0.56592 0.38586 0.18595 0.0
C991 C 0.6612 0.35436 0.225 0.0
C992 C 0.58203 0.38565 0.27436 0.0
C993 C 0.56636 0.36384 0.28015 0.0
C994 C 0.59854 0.3876 0.25061 0.0
C995 C 0.59947 0.36725 0.23219 0.0
C996 C 0.58486 0.34479 0.23854 0.0
C997 C 0.56853 0.34334 0.2624 0.0
C998 C 0.61392 0.41184 0.24466 0.0
C999 C 0.58538 0.32262 0.21952 0.0
H1000 H 0.5984 0.389 0.14097 0.0
H1001 H 0.67861 0.362 0.17348 0.0
H1002 H 0.55338 0.36947 0.193 0.0
H1003 H 0.56348 0.4008 0.20143 0.0
H1004 H 0.55632 0.39244 0.16665 0.0
H1005 H 0.68389 0.35053 0.21897 0.0
H1006 H 0.66134 0.36817 0.24182 0.0
H1007 H 0.65151 0.33691 0.23292 0.0
H1008 H 0.58067 0.40156 0.28795 0.0
H1009 H 0.5567 0.32633 0.2667 0.0
H1010 H 0.60369 0.42088 0.22692 0.0
H1011 H 0.63686 0.40829 0.23942 0.0
H1012 H 0.61319 0.42507 0.26205 0.0
H1013 H 0.57367 0.32729 0.20059 0.0
H1014 H 0.57512 0.30582 0.22849 0.0
H1015 H 0.60795 0.318 0.21389 0.0
C1016 C 0.35045 0.66238 0.68403 0.0
C1017 C 0.36117 0.67465 0.66112 0.0
C1018 C 0.36638 0.66178 0.70829 0.0
C1019 C 0.39387 0.67348 0.70962 0.0
C1020 C 0.40458 0.68626 0.6867 0.0
C1021 C 0.38805 0.68679 0.6628 0.0
C1022 C 0.35404 0.6482 0.73234 0.0
C1023 C 0.43393 0.6987 0.68714 0.0
C1024 C 0.43017 0.68716 0.77759 0.0
C1025 C 0.44935 0.667 0.77985 0.0
C1026 C 0.41153 0.6893 0.75513 0.0
C1027 C 0.41228 0.67099 0.73432 0.0
C1028 C 0.43126 0.65044 0.73671 0.0
C1029 C 0.44938 0.64863 0.75943 0.0
C1030 C 0.39134 0.71133 0.75348 0.0
C1031 C 0.43292 0.63057 0.71493 0.0
H1032 H 0.32953 0.65322 0.68295 0.0
H1033 H 0.39659 0.69609 0.64511 0.0
H1034 H 0.36775 0.63185 0.73717 0.0
H1035 H 0.35412 0.6606 0.7504 0.0
H1036 H 0.33159 0.64155 0.72863 0.0
H1037 H 0.43856 0.70883 0.66808 0.0
H1038 H 0.4354 0.71209 0.7043 0.0
H1039 H 0.45097 0.68444 0.69021 0.0
H1040 H 0.42986 0.7014 0.79326 0.0
H1041 H 0.46408 0.63297 0.76086 0.0
H1042 H 0.36875 0.70476 0.75058 0.0
H1043 H 0.39695 0.72289 0.73569 0.0
H1044 H 0.39233 0.72328 0.77191 0.0
H1045 H 0.41132 0.622 0.71165 0.0
H1046 H 0.44852 0.61557 0.72004 0.0
H1047 H 0.43959 0.63913 0.69552 0.0
C1048 C 0.91281 0.85663 0.156 0.0
C1049 C 0.88329 0.86141 0.1519 0.0
C1050 C 0.92417 0.85331 0.18209 0.0
C1051 C 0.90556 0.8546 0.20477 0.0
C1052 C 0.87548 0.85799 0.2007 0.0
C1053 C 0.8647 0.86141 0.17431 0.0
C1054 C 0.95637 0.84966 0.18544 0.0
C1055 C 0.85489 0.8593 0.2243 0.0
C1056 C 0.93914 0.83338 0.27131 0.0
C1057 C 0.94975 0.85606 0.28178 0.0
C1058 C 0.92343 0.83263 0.24684 0.0
C1059 C 0.91821 0.85507 0.23259 0.0
C1060 C 0.92745 0.8781 0.24391 0.0
C1061 C 0.94303 0.8783 0.26829 0.0
C1062 C 0.91372 0.80773 0.23557 0.0
C1063 C 0.92223 0.9025 0.22955 0.0
H1064 H 0.92724 0.85605 0.13876 0.0
H1065 H 0.84189 0.86519 0.17139 0.0
H1066 H 0.96589 0.86615 0.1959 0.0
H1067 H 0.96075 0.83313 0.19822 0.0
H1068 H 0.96753 0.84714 0.16574 0.0
H1069 H 0.83192 0.85863 0.21767 0.0
H1070 H 0.85889 0.8437 0.23848 0.0
H1071 H 0.85854 0.87696 0.23567 0.0
H1072 H 0.94416 0.8161 0.28157 0.0
H1073 H 0.9508 0.89597 0.27635 0.0
H1074 H 0.9269 0.80295 0.21756 0.0
H1075 H 0.89081 0.80862 0.2289 0.0
H1076 H 0.91602 0.79252 0.25059 0.0
H1077 H 0.93467 0.90281 0.21038 0.0
H1078 H 0.92882 0.9189 0.242 0.0
H1079 H 0.89903 0.9044 0.22422 0.0
C1080 C 0.16902 0.16802 0.68618 0.0
C1081 C 0.15698 0.16132 0.66104 0.0
C1082 C 0.15234 0.16763 0.70992 0.0
C1083 C 0.12288 0.16039 0.70853 0.0
C1084 C 0.11066 0.15344 0.68327 0.0
C1085 C 0.12783 0.15399 0.65987 0.0
C1086 C 0.16619 0.1751 0.73647 0.0
C1087 C 0.07931 0.14571 0.68088 0.0
C1088 C 0.08278 0.13916 0.77162 0.0
C1089 C 0.0666 0.16049 0.77823 0.0
C1090 C 0.10167 0.13902 0.74936 0.0
C1091 C 0.10452 0.16071 0.73332 0.0
C1092 C 0.08889 0.18248 0.74032 0.0
C1093 C 0.07018 0.18212 0.76265 0.0
C1094 C 0.11803 0.11545 0.74261 0.0
C1095 C 0.09136 0.20602 0.72381 0.0
H1096 H 0.19161 0.17339 0.68734 0.0
H1097 H 0.11821 0.14912 0.64052 0.0
H1098 H 0.15488 0.19156 0.74509 0.0
H1099 H 0.16405 0.15973 0.75128 0.0
H1100 H 0.18948 0.17978 0.73423 0.0
H1101 H 0.0733 0.14023 0.65988 0.0
H1102 H 0.07483 0.12976 0.69446 0.0
H1103 H 0.06518 0.16134 0.68737 0.0
H1104 H 0.08028 0.12237 0.78352 0.0
H1105 H 0.05794 0.19875 0.76759 0.0
H1106 H 0.14153 0.11948 0.74117 0.0
H1107 H 0.11092 0.10822 0.72258 0.0
H1108 H 0.11466 0.10062 0.7579 0.0
H1109 H 0.11434 0.21185 0.72228 0.0
H1110 H 0.07875 0.22169 0.73261 0.0
H1111 H 0.08343 0.20242 0.70293 0.0
C1112 C 0.15596 0.87074 0.17876 0.0
C1113 C 0.13923 0.87468 0.15542 0.0
C1114 C 0.1429 0.86773 0.20421 0.0
C1115 C 0.11239 0.86886 0.20643 0.0
C1116 C 0.0954 0.87261 0.18292 0.0
C1117 C 0.109 0.87543 0.15776 0.0
C1118 C 0.16173 0.86353 0.22875 0.0
C1119 C 0.06281 0.87406 0.18439 0.0
C1120 C 0.07189 0.8416 0.26633 0.0
C1121 C 0.06533 0.86309 0.28149 0.0
C1122 C 0.08823 0.84305 0.24245 0.0
C1123 C 0.09805 0.86659 0.23332 0.0
C1124 C 0.09244 0.88823 0.24904 0.0
C1125 C 0.07631 0.88621 0.27299 0.0
C1126 C 0.09405 0.81949 0.22647 0.0
C1127 C 0.1024 0.91371 0.23997 0.0
H1128 H 0.17931 0.8699 0.17709 0.0
H1129 H 0.09592 0.87887 0.13994 0.0
H1130 H 0.15865 0.87894 0.24356 0.0
H1131 H 0.15531 0.84596 0.23892 0.0
H1132 H 0.18505 0.86245 0.22353 0.0
H1133 H 0.05271 0.87672 0.1642 0.0
H1134 H 0.05396 0.85673 0.19338 0.0
H1135 H 0.05637 0.88982 0.19774 0.0
H1136 H 0.06372 0.82362 0.2728 0.0
H1137 H 0.07138 0.90295 0.2845 0.0
H1138 H 0.11741 0.81802 0.22168 0.0
H1139 H 0.08215 0.82011 0.20696 0.0
H1140 H 0.08727 0.80246 0.23751 0.0
H1141 H 0.12594 0.91353 0.23571 0.0
H1142 H 0.09795 0.92844 0.25531 0.0
H1143 H 0.0912 0.91871 0.22088 0.0
C1144 C 0.84791 0.16649 0.68261 0.0
C1145 C 0.86178 0.17016 0.65771 0.0
C1146 C 0.86371 0.16598 0.70696 0.0
C1147 C 0.8941 0.16937 0.70646 0.0
C1148 C 0.90814 0.1735 0.68144 0.0
C1149 C 0.89185 0.17377 0.6574 0.0
C1150 C 0.84796 0.1613 0.73317 0.0
C1151 C 0.94047 0.17739 0.68001 0.0
C1152 C 0.93543 0.18765 0.77048 0.0
C1153 C 0.94804 0.16486 0.77785 0.0
C1154 C 0.91732 0.18933 0.74763 0.0
C1155 C 0.91146 0.16769 0.7319 0.0
C1156 C 0.92328 0.14449 0.73981 0.0
C1157 C 0.94144 0.14338 0.76258 0.0
C1158 C 0.90521 0.21442 0.73982 0.0
C1159 C 0.91737 0.12091 0.72379 0.0
H1160 H 0.82473 0.16345 0.68298 0.0
H1161 H 0.90266 0.17697 0.6383 0.0
H1162 H 0.85577 0.14369 0.74232 0.0
H1163 H 0.85259 0.17655 0.74785 0.0
H1164 H 0.82417 0.1599 0.73026 0.0
H1165 H 0.94795 0.18125 0.65911 0.0
H1166 H 0.947 0.19321 0.69329 0.0
H1167 H 0.95177 0.16052 0.68748 0.0
H1168 H 0.94038 0.20436 0.78209 0.0
H1169 H 0.95085 0.12563 0.7682 0.0
H1170 H 0.88136 0.21325 0.73761 0.0
H1171 H 0.91406 0.22006 0.71992 0.0
H1172 H 0.9105 0.2292 0.75493 0.0
H1173 H 0.89372 0.11803 0.72142 0.0
H1174 H 0.92678 0.10413 0.73351 0.0
H1175 H 0.92661 0.12266 0.70319 0.0
loop_
_geom_bond_atom_site_label_1
_geom_bond_atom_site_label_2
_geom_bond_distance
_geom_bond_site_symmetry_2
_ccdc_geom_bond_type
C0 C1 1.264 . S
C0 C5 1.479 . S
C0 C10 1.465 . S
C1 C0 1.264 . S
C1 C3 1.339 . S
C1 H28 0.964 . S
C2 C3 1.395 . S
C2 C4 1.320 . S
C3 C1 1.339 . S
C3 C2 1.395 . S
C3 H29 0.929 . S
C4 C2 1.320 . S
C4 C5 1.405 . S
C4 H30 0.930 . S
C5 C0 1.479 . S
C5 C4 1.405 . S
C5 H31 0.931 . S
U6 O7 2.454 1_554 S
U6 O8 2.458 . S
U6 C9 2.984 1_554 S
U6 C10 2.847 1_554 S
U6 C23 2.882 . S
U6 O24 2.441 1_554 S
U6 O25 2.420 . S
U6 O26 2.455 . S
U6 O27 2.449 . S
O7 U6 2.454 1_556 S
O7 C9 1.353 . S
O8 U6 2.458 . S
O8 C9 1.286 1_554 S
C9 U6 2.984 1_556 S
C9 O7 1.353 . S
C9 O8 1.286 1_556 S
C9 C11 1.363 . S
C10 C0 1.465 . S
C10 U6 2.847 1_556 S
C10 O24 1.249 . S
C10 O25 1.202 1_556 S
C11 C9 1.363 . S
C11 C13 1.408 . S
C11 C16 1.342 . S
C12 C13 1.310 . S
C12 C15 1.461 . S
C12 H32 0.932 . S
C13 C11 1.408 . S
C13 C12 1.310 . S
C13 H33 0.930 . S
C14 C15 1.474 . S
C14 C16 1.285 . S
C14 H34 0.929 . S
C15 C12 1.461 . S
C15 C14 1.474 . S
C16 C11 1.342 . S
C16 C14 1.285 . S
C16 H35 0.930 1_556 S
C17 C20 1.424 . S
C17 C22 1.245 . S
C17 C23 1.428 . S
C18 C21 1.260 . S
C18 C22 1.477 . S
C18 H36 0.932 . S
C19 C20 1.384 . S
C19 C21 1.479 . S
C19 H37 0.929 . S
C20 C17 1.424 . S
C20 C19 1.384 . S
C20 H38 0.928 . S
C21 C18 1.260 . S
C21 C19 1.479 . S
C22 C17 1.245 . S
C22 C18 1.477 . S
C22 H39 0.932 . S
C23 U6 2.882 . S
C23 C17 1.428 . S
C23 O26 1.301 . S
C23 O27 1.282 . S
O24 U6 2.441 1_556 S
O24 C10 1.249 . S
O25 U6 2.420 . S
O25 C10 1.202 1_554 S
O26 U6 2.455 . S
O26 C23 1.301 . S
O27 U6 2.449 . S
O27 C23 1.282 . S
H28 C1 0.964 . S
H29 C3 0.929 . S
H30 C4 0.930 . S
H31 C5 0.931 . S
H32 C12 0.932 . S
H33 C13 0.930 . S
H34 C14 0.929 . S
H35 C16 0.930 1_554 S
H36 C18 0.932 . S
H37 C19 0.929 . S
H38 C20 0.928 . S
H39 C22 0.932 . S
C40 C41 1.264 . S
C40 C45 1.479 . S
C40 C50 1.465 . S
C41 C40 1.264 . S
C41 C43 1.339 . S
C41 H68 0.931 . S
C42 C43 1.395 . S
C42 C44 1.320 . S
C43 C41 1.339 . S
C43 C42 1.395 . S
C43 H69 0.929 . S
C44 C42 1.320 . S
C44 C45 1.405 . S
C44 H70 0.930 . S
C45 C40 1.479 . S
C45 C44 1.405 . S
C45 H71 0.931 . S
U46 O47 2.454 . S
U46 O48 2.458 . S
U46 C49 2.984 . S
U46 C50 2.847 . S
U46 C63 2.882 . S
U46 O64 2.441 . S
U46 O65 2.420 . S
U46 O66 2.455 . S
U46 O67 2.449 . S
O47 U46 2.454 . S
O47 C49 1.353 . S
O48 U46 2.458 . S
O48 C49 1.286 . S
C49 U46 2.984 . S
C49 O47 1.353 . S
C49 O48 1.286 . S
C49 C51 1.363 . S
C50 C40 1.465 . S
C50 U46 2.847 . S
C50 O64 1.249 . S
C50 O65 1.202 . S
C51 C49 1.363 . S
C51 C53 1.408 . S
C51 C56 1.342 . S
C52 C53 1.310 . S
C52 C55 1.461 . S
C52 H72 0.932 . S
C53 C51 1.408 . S
C53 C52 1.310 . S
C53 H73 0.930 . S
C54 C55 1.474 . S
C54 C56 1.285 . S
C54 H74 0.929 . S
C55 C52 1.461 . S
C55 C54 1.474 . S
C56 C51 1.342 . S
C56 C54 1.285 . S
C56 H75 0.930 . S
C57 C60 1.424 . S
C57 C62 1.245 . S
C57 C63 1.428 . S
C58 C61 1.260 . S
C58 C62 1.477 . S
C58 H76 0.932 . S
C59 C60 1.384 . S
C59 C61 1.479 . S
C59 H77 0.929 . S
C60 C57 1.424 . S
C60 C59 1.384 . S
C60 H78 0.928 . S
C61 C58 1.260 . S
C61 C59 1.479 . S
C62 C57 1.245 . S
C62 C58 1.477 . S
C62 H79 0.932 . S
C63 U46 2.882 . S
C63 C57 1.428 . S
C63 O66 1.301 . S
C63 O67 1.282 . S
O64 U46 2.441 . S
O64 C50 1.249 . S
O65 U46 2.420 . S
O65 C50 1.202 . S
O66 U46 2.455 . S
O66 C63 1.301 . S
O67 U46 2.449 . S
O67 C63 1.282 . S
H68 C41 0.931 . S
H69 C43 0.929 . S
H70 C44 0.930 . S
H71 C45 0.931 . S
H72 C52 0.932 . S
H73 C53 0.930 . S
H74 C54 0.929 . S
H75 C56 0.930 . S
H76 C58 0.932 . S
H77 C59 0.929 . S
H78 C60 0.928 . S
H79 C62 0.932 . S
C80 C81 1.264 . S
C80 C85 1.479 . S
C80 C90 1.465 . S
C81 C80 1.264 . S
C81 C83 1.339 . S
C81 H108 0.931 . S
C82 C83 1.395 . S
C82 C84 1.320 . S
C83 C81 1.339 . S
C83 C82 1.395 . S
C83 H109 0.929 . S
C84 C82 1.320 . S
C84 C85 1.405 . S
C84 H110 0.930 . S
C85 C80 1.479 . S
C85 C84 1.405 . S
C85 H111 0.931 . S
U86 O87 2.455 . S
U86 O88 2.457 1_556 S
U86 C89 2.985 . S
U86 C90 2.848 . S
U86 C103 2.880 1_556 S
U86 O104 2.443 . S
U86 O105 2.421 . S
U86 O106 2.453 1_556 S
U86 O107 2.447 1_556 S
O87 U86 2.455 . S
O87 C89 1.353 . S
O88 U86 2.457 1_554 S
O88 C89 1.286 1_554 S
C89 U86 2.985 . S
C89 O87 1.353 . S
C89 O88 1.286 1_556 S
C89 C91 1.363 . S
C90 C80 1.465 . S
C90 U86 2.848 . S
C90 O104 1.249 . S
C90 O105 1.202 . S
C91 C89 1.363 . S
C91 C93 1.408 . S
C91 C96 1.342 . S
C92 C93 1.310 . S
C92 C95 1.461 . S
C92 H112 0.932 . S
C93 C91 1.408 . S
C93 C92 1.310 . S
C93 H113 0.930 . S
C94 C95 1.474 . S
C94 C96 1.285 . S
C94 H114 0.929 . S
C95 C92 1.461 . S
C95 C94 1.474 . S
C96 C91 1.342 . S
C96 C94 1.285 . S
C96 H115 0.930 1_556 S
C97 C100 1.424 . S
C97 C102 1.245 . S
C97 C103 1.428 . S
C98 C101 1.260 . S
C98 C102 1.477 . S
C98 H116 0.932 . S
C99 C100 1.384 . S
C99 C101 1.479 . S
C99 H117 0.929 . S
C100 C97 1.424 . S
C100 C99 1.384 . S
C100 H118 0.928 . S
C101 C98 1.260 . S
C101 C99 1.479 . S
C102 C97 1.245 . S
C102 C98 1.477 . S
C102 H119 0.932 . S
C103 U86 2.880 1_554 S
C103 C97 1.428 . S
C103 O106 1.301 . S
C103 O107 1.282 . S
O104 U86 2.443 . S
O104 C90 1.249 . S
O105 U86 2.421 . S
O105 C90 1.202 . S
O106 U86 2.453 1_554 S
O106 C103 1.301 . S
O107 U86 2.447 1_554 S
O107 C103 1.282 . S
H108 C81 0.931 . S
H109 C83 0.929 . S
H110 C84 0.930 . S
H111 C85 0.931 . S
H112 C92 0.932 . S
H113 C93 0.930 . S
H114 C94 0.929 . S
H115 C96 0.930 1_554 S
H116 C98 0.932 . S
H117 C99 0.929 . S
H118 C100 0.928 . S
H119 C102 0.932 . S
C120 C121 1.264 . S
C120 C125 1.479 . S
C120 C130 1.465 . S
C121 C120 1.264 . S
C121 C123 1.339 . S
C121 H148 0.931 . S
C122 C123 1.395 . S
C122 C124 1.320 . S
C123 C121 1.339 . S
C123 C122 1.395 . S
C123 H149 0.929 . S
C124 C122 1.320 . S
C124 C125 1.405 . S
C124 H150 0.930 . S
C125 C120 1.479 . S
C125 C124 1.405 . S
C125 H151 0.931 . S
U126 O127 2.454 . S
U126 O128 2.458 . S
U126 C129 2.984 . S
U126 C130 2.847 . S
U126 C143 2.882 . S
U126 O144 2.441 . S
U126 O145 2.420 . S
U126 O146 2.455 . S
U126 O147 2.449 . S
O127 U126 2.454 . S
O127 C129 1.353 . S
O128 U126 2.458 . S
O128 C129 1.286 . S
C129 U126 2.984 . S
C129 O127 1.353 . S
C129 O128 1.286 . S
C129 C131 1.363 . S
C130 C120 1.465 . S
C130 U126 2.847 . S
C130 O144 1.249 . S
C130 O145 1.202 . S
C131 C129 1.363 . S
C131 C133 1.408 . S
C131 C136 1.342 . S
C132 C133 1.310 . S
C132 C135 1.461 . S
C132 H152 0.932 . S
C133 C131 1.408 . S
C133 C132 1.310 . S
C133 H153 0.930 . S
C134 C135 1.474 . S
C134 C136 1.285 . S
C134 H154 0.929 . S
C135 C132 1.461 . S
C135 C134 1.474 . S
C136 C131 1.342 . S
C136 C134 1.285 . S
C136 H155 0.930 . S
C137 C140 1.424 . S
C137 C142 1.245 . S
C137 C143 1.428 . S
C138 C141 1.260 . S
C138 C142 1.477 . S
C138 H156 0.932 . S
C139 C140 1.384 . S
C139 C141 1.479 . S
C139 H157 0.929 . S
C140 C137 1.424 . S
C140 C139 1.384 . S
C140 H158 0.928 . S
C141 C138 1.260 . S
C141 C139 1.479 . S
C142 C137 1.245 . S
C142 C138 1.477 . S
C142 H159 0.932 . S
C143 U126 2.882 . S
C143 C137 1.428 . S
C143 O146 1.301 . S
C143 O147 1.282 . S
O144 U126 2.441 . S
O144 C130 1.249 . S
O145 U126 2.420 . S
O145 C130 1.202 . S
O146 U126 2.455 . S
O146 C143 1.301 . S
O147 U126 2.449 . S
O147 C143 1.282 . S
H148 C121 0.931 . S
H149 C123 0.929 . S
H150 C124 0.930 . S
H151 C125 0.931 . S
H152 C132 0.932 . S
H153 C133 0.930 . S
H154 C134 0.929 . S
H155 C136 0.930 . S
H156 C138 0.932 . S
H157 C139 0.929 . S
H158 C140 0.928 . S
H159 C142 0.932 . S
C160 C161 1.264 . S
C160 C165 1.479 . S
C160 C170 1.465 . S
C161 C160 1.264 . S
C161 C163 1.339 . S
C161 H188 0.964 . S
C162 C163 1.402 . S
C162 C164 1.345 . S
C163 C161 1.339 . S
C163 C162 1.402 . S
C163 H189 0.929 1_565 S
C164 C162 1.345 . S
C164 C165 1.405 . S
C164 H190 0.930 . S
C165 C160 1.479 . S
C165 C164 1.405 . S
C165 H191 0.931 . S
U166 O167 2.454 1_554 S
U166 O168 2.458 . S
U166 C169 2.984 1_554 S
U166 C170 2.847 1_554 S
U166 C183 2.882 . S
U166 O184 2.441 1_554 S
U166 O185 2.420 . S
U166 O186 2.455 . S
U166 O187 2.449 . S
O167 U166 2.454 1_556 S
O167 C169 1.353 . S
O168 U166 2.458 . S
O168 C169 1.286 1_554 S
C169 U166 2.984 1_556 S
C169 O167 1.353 . S
C169 O168 1.286 1_556 S
C169 C171 1.363 . S
C170 C160 1.465 . S
C170 U166 2.847 1_556 S
C170 O184 1.249 . S
C170 O185 1.202 1_556 S
C171 C169 1.363 . S
C171 C173 1.408 . S
C171 C176 1.342 . S
C172 C173 1.310 . S
C172 C175 1.461 . S
C172 H192 0.932 . S
C173 C171 1.408 . S
C173 C172 1.310 . S
C173 H193 0.930 . S
C174 C175 1.474 . S
C174 C176 1.285 . S
C174 H194 0.929 . S
C175 C172 1.461 . S
C175 C174 1.474 . S
C176 C171 1.342 . S
C176 C174 1.285 . S
C176 H195 0.930 1_556 S
C177 C180 1.424 . S
C177 C182 1.245 . S
C177 C183 1.428 . S
C178 C181 1.260 . S
C178 C182 1.477 . S
C178 H196 0.932 . S
C179 C180 1.384 . S
C179 C181 1.479 . S
C179 H197 0.929 . S
C180 C177 1.424 . S
C180 C179 1.384 . S
C180 H198 0.928 . S
C181 C178 1.260 . S
C181 C179 1.479 . S
C182 C177 1.245 . S
C182 C178 1.477 . S
C182 H199 0.932 . S
C183 U166 2.882 . S
C183 C177 1.428 . S
C183 O186 1.301 . S
C183 O187 1.282 . S
O184 U166 2.441 1_556 S
O184 C170 1.249 . S
O185 U166 2.420 . S
O185 C170 1.202 1_554 S
O186 U166 2.455 . S
O186 C183 1.301 . S
O187 U166 2.449 . S
O187 C183 1.282 . S
H188 C161 0.964 . S
H189 C163 0.929 1_545 S
H190 C164 0.930 . S
H191 C165 0.931 . S
H192 C172 0.932 . S
H193 C173 0.930 . S
H194 C174 0.929 . S
H195 C176 0.930 1_554 S
H196 C178 0.932 . S
H197 C179 0.929 . S
H198 C180 0.928 . S
H199 C182 0.932 . S
C200 C201 1.264 . S
C200 C205 1.479 . S
C200 C210 1.465 . S
C201 C200 1.264 . S
C201 C203 1.339 . S
C201 H228 0.931 . S
C202 C203 1.395 . S
C202 C204 1.320 . S
C203 C201 1.339 . S
C203 C202 1.395 . S
C203 H229 0.929 . S
C204 C202 1.320 . S
C204 C205 1.405 . S
C204 H230 0.930 . S
C205 C200 1.479 . S
C205 C204 1.405 . S
C205 H231 0.931 . S
U206 O207 2.454 . S
U206 O208 2.458 . S
U206 C209 2.984 . S
U206 C210 2.847 . S
U206 C223 2.882 . S
U206 O224 2.441 . S
U206 O225 2.420 . S
U206 O226 2.455 . S
U206 O227 2.449 . S
O207 U206 2.454 . S
O207 C209 1.353 . S
O208 U206 2.458 . S
O208 C209 1.286 . S
C209 U206 2.984 . S
C209 O207 1.353 . S
C209 O208 1.286 . S
C209 C211 1.363 . S
C210 C200 1.465 . S
C210 U206 2.847 . S
C210 O224 1.249 . S
C210 O225 1.202 . S
C211 C209 1.363 . S
C211 C213 1.408 . S
C211 C216 1.342 . S
C212 C213 1.310 . S
C212 C215 1.461 . S
C212 H232 0.932 . S
C213 C211 1.408 . S
C213 C212 1.310 . S
C213 H233 0.930 . S
C214 C215 1.474 . S
C214 C216 1.285 . S
C214 H234 0.929 . S
C215 C212 1.461 . S
C215 C214 1.474 . S
C216 C211 1.342 . S
C216 C214 1.285 . S
C216 H235 0.930 . S
C217 C220 1.424 . S
C217 C222 1.245 . S
C217 C223 1.428 . S
C218 C221 1.260 . S
C218 C222 1.477 . S
C218 H236 0.932 . S
C219 C220 1.384 . S
C219 C221 1.479 . S
C219 H237 0.929 . S
C220 C217 1.424 . S
C220 C219 1.384 . S
C220 H238 0.928 . S
C221 C218 1.260 . S
C221 C219 1.479 . S
C222 C217 1.245 . S
C222 C218 1.477 . S
C222 H239 0.932 . S
C223 U206 2.882 . S
C223 C217 1.428 . S
C223 O226 1.301 . S
C223 O227 1.282 . S
O224 U206 2.441 . S
O224 C210 1.249 . S
O225 U206 2.420 . S
O225 C210 1.202 . S
O226 U206 2.455 . S
O226 C223 1.301 . S
O227 U206 2.449 . S
O227 C223 1.282 . S
H228 C201 0.931 . S
H229 C203 0.929 . S
H230 C204 0.930 . S
H231 C205 0.931 . S
H232 C212 0.932 . S
H233 C213 0.930 . S
H234 C214 0.929 . S
H235 C216 0.930 . S
H236 C218 0.932 . S
H237 C219 0.929 . S
H238 C220 0.928 . S
H239 C222 0.932 . S
C240 C241 1.264 . S
C240 C245 1.479 . S
C240 C250 1.465 . S
C241 C240 1.264 . S
C241 C243 1.339 . S
C241 H268 0.931 . S
C242 C243 1.413 . S
C242 C244 1.345 . S
C243 C241 1.339 . S
C243 C242 1.413 . S
C243 H269 0.929 . S
C244 C242 1.345 . S
C244 C245 1.405 . S
C244 H270 0.930 . S
C245 C240 1.479 . S
C245 C244 1.405 . S
C245 H271 0.931 . S
U246 O247 2.455 . S
U246 O248 2.458 1_556 S
U246 C249 2.985 . S
U246 C250 2.848 . S
U246 C263 2.880 1_556 S
U246 O264 2.443 . S
U246 O265 2.421 . S
U246 O266 2.453 1_556 S
U246 O267 2.447 1_556 S
O247 U246 2.455 . S
O247 C249 1.353 . S
O248 U246 2.458 1_554 S
O248 C249 1.286 1_554 S
C249 U246 2.985 . S
C249 O247 1.353 . S
C249 O248 1.286 1_556 S
C249 C251 1.363 . S
C250 C240 1.465 . S
C250 U246 2.848 . S
C250 O264 1.249 . S
C250 O265 1.202 . S
C251 C249 1.363 . S
C251 C253 1.408 . S
C251 C256 1.342 . S
C252 C253 1.310 . S
C252 C255 1.461 . S
C252 H272 0.932 . S
C253 C251 1.408 . S
C253 C252 1.310 . S
C253 H273 0.930 . S
C254 C255 1.474 . S
C254 C256 1.285 . S
C254 H274 0.929 . S
C255 C252 1.461 . S
C255 C254 1.474 . S
C256 C251 1.342 . S
C256 C254 1.285 . S
C256 H275 0.930 1_556 S
C257 C260 1.424 . S
C257 C262 1.245 . S
C257 C263 1.428 . S
C258 C261 1.260 . S
C258 C262 1.477 . S
C258 H276 0.932 . S
C259 C260 1.384 . S
C259 C261 1.479 . S
C259 H277 0.929 . S
C260 C257 1.424 . S
C260 C259 1.384 . S
C260 H278 0.928 . S
C261 C258 1.260 . S
C261 C259 1.479 . S
C262 C257 1.245 . S
C262 C258 1.477 . S
C262 H279 0.932 . S
C263 U246 2.880 1_554 S
C263 C257 1.428 . S
C263 O266 1.301 . S
C263 O267 1.282 . S
O264 U246 2.443 . S
O264 C250 1.249 . S
O265 U246 2.421 . S
O265 C250 1.202 . S
O266 U246 2.453 1_554 S
O266 C263 1.301 . S
O267 U246 2.447 1_554 S
O267 C263 1.282 . S
H268 C241 0.931 . S
H269 C243 0.929 . S
H270 C244 0.930 . S
H271 C245 0.931 . S
H272 C252 0.932 . S
H273 C253 0.930 . S
H274 C254 0.929 . S
H275 C256 0.930 1_554 S
H276 C258 0.932 . S
H277 C259 0.929 . S
H278 C260 0.928 . S
H279 C262 0.932 . S
C280 C281 1.264 . S
C280 C285 1.479 . S
C280 C290 1.465 . S
C281 C280 1.264 . S
C281 C283 1.339 . S
C281 H308 0.931 . S
C282 C283 1.395 . S
C282 C284 1.320 . S
C283 C281 1.339 . S
C283 C282 1.395 . S
C283 H309 0.929 . S
C284 C282 1.320 . S
C284 C285 1.405 . S
C284 H310 0.930 . S
C285 C280 1.479 . S
C285 C284 1.405 . S
C285 H311 0.931 . S
U286 O287 2.454 . S
U286 O288 2.458 . S
U286 C289 2.984 . S
U286 C290 2.847 . S
U286 C303 2.882 . S
U286 O304 2.441 . S
U286 O305 2.420 . S
U286 O306 2.455 . S
U286 O307 2.449 . S
O287 U286 2.454 . S
O287 C289 1.353 . S
O288 U286 2.458 . S
O288 C289 1.286 . S
C289 U286 2.984 . S
C289 O287 1.353 . S
C289 O288 1.286 . S
C289 C291 1.363 . S
C290 C280 1.465 . S
C290 U286 2.847 . S
C290 O304 1.249 . S
C290 O305 1.202 . S
C291 C289 1.363 . S
C291 C293 1.408 . S
C291 C296 1.342 . S
C292 C293 1.310 . S
C292 C295 1.461 . S
C292 H312 0.932 . S
C293 C291 1.408 . S
C293 C292 1.310 . S
C293 H313 0.930 . S
C294 C295 1.474 . S
C294 C296 1.285 . S
C294 H314 0.929 . S
C295 C292 1.461 . S
C295 C294 1.474 . S
C296 C291 1.342 . S
C296 C294 1.285 . S
C296 H315 0.930 . S
C297 C300 1.424 . S
C297 C302 1.245 . S
C297 C303 1.428 . S
C298 C301 1.244 1_545 S
C298 C302 1.477 . S
C298 H316 0.932 . S
C299 C300 1.384 . S
C299 C301 1.474 1_545 S
C299 H317 0.929 1_545 S
C300 C297 1.424 . S
C300 C299 1.384 . S
C300 H318 0.928 . S
C301 C298 1.244 1_565 S
C301 C299 1.474 1_565 S
C302 C297 1.245 . S
C302 C298 1.477 . S
C302 H319 0.932 . S
C303 U286 2.882 . S
C303 C297 1.428 . S
C303 O306 1.301 . S
C303 O307 1.282 . S
O304 U286 2.441 . S
O304 C290 1.249 . S
O305 U286 2.420 . S
O305 C290 1.202 . S
O306 U286 2.455 . S
O306 C303 1.301 . S
O307 U286 2.449 . S
O307 C303 1.282 . S
H308 C281 0.931 . S
H309 C283 0.929 . S
H310 C284 0.930 . S
H311 C285 0.931 . S
H312 C292 0.932 . S
H313 C293 0.930 . S
H314 C294 0.929 . S
H315 C296 0.930 . S
H316 C298 0.932 . S
H317 C299 0.929 1_565 S
H318 C300 0.928 . S
H319 C302 0.932 . S
Fe320 O322 1.918 . S
Fe320 O325 1.997 1_455 S
Fe320 O326 2.002 1_455 S
Fe320 O331 1.976 . S
Fe320 O334 1.996 . S
Fe321 O322 1.918 . S
Fe321 O329 1.997 1_455 S
Fe321 O332 1.996 . S
Fe321 O336 1.976 . S
Fe321 O339 2.002 1_455 S
O322 Fe320 1.918 . S
O322 Fe321 1.918 . S
O322 Fe323 1.918 . S
Fe323 O322 1.918 . S
Fe323 O324 2.002 1_455 S
Fe323 O333 1.976 . S
Fe323 O337 1.996 . S
Fe323 O340 1.997 1_455 S
O324 Fe323 2.002 1_655 S
O324 C341 1.295 . S
O325 Fe320 1.997 1_655 S
O325 C341 1.235 . S
O326 Fe320 2.002 1_655 S
O326 C327 1.295 . S
C327 O326 1.295 . S
C327 O329 1.235 . S
C328 O333 1.287 . S
C328 O334 1.255 . S
O329 Fe321 1.997 1_655 S
O329 C327 1.235 . S
C330 O336 1.287 . S
C330 O337 1.255 . S
O331 Fe320 1.976 . S
O331 C338 1.287 . S
O332 Fe321 1.996 . S
O332 C338 1.255 . S
O333 Fe323 1.976 . S
O333 C328 1.287 . S
O334 Fe320 1.996 . S
O334 C328 1.255 . S
C335 O339 1.295 . S
C335 O340 1.235 . S
O336 Fe321 1.976 . S
O336 C330 1.287 . S
O337 Fe323 1.996 . S
O337 C330 1.255 . S
C338 O331 1.287 . S
C338 O332 1.255 . S
O339 Fe321 2.002 1_655 S
O339 C335 1.295 . S
O340 Fe323 1.997 1_655 S
O340 C335 1.235 . S
C341 O324 1.295 . S
C341 O325 1.235 . S
Fe342 O344 1.919 . S
Fe342 O347 1.980 1_655 S
Fe342 O348 1.986 1_655 S
Fe342 O353 1.992 . S
Fe342 O356 2.012 . S
Fe343 O344 1.919 . S
Fe343 O351 1.981 1_655 S
Fe343 O354 2.011 . S
Fe343 O358 1.992 . S
Fe343 O361 1.986 1_655 S
O344 Fe342 1.919 . S
O344 Fe343 1.919 . S
O344 Fe345 1.919 . S
Fe345 O344 1.919 . S
Fe345 O346 1.987 1_655 S
Fe345 O355 1.991 . S
Fe345 O359 2.011 . S
Fe345 O362 1.981 1_655 S
O346 Fe345 1.987 1_455 S
O346 C363 1.295 . S
O347 Fe342 1.980 1_455 S
O347 C363 1.235 . S
O348 Fe342 1.986 1_455 S
O348 C349 1.295 . S
C349 O348 1.295 . S
C349 O351 1.235 . S
C350 O355 1.287 . S
C350 O356 1.255 . S
O351 Fe343 1.981 1_455 S
O351 C349 1.235 . S
C352 O358 1.287 . S
C352 O359 1.255 . S
O353 Fe342 1.992 . S
O353 C360 1.287 . S
O354 Fe343 2.011 . S
O354 C360 1.255 . S
O355 Fe345 1.991 . S
O355 C350 1.287 . S
O356 Fe342 2.012 . S
O356 C350 1.255 . S
C357 O361 1.295 . S
C357 O362 1.235 . S
O358 Fe343 1.992 . S
O358 C352 1.287 . S
O359 Fe345 2.011 . S
O359 C352 1.255 . S
C360 O353 1.287 . S
C360 O354 1.255 . S
O361 Fe343 1.986 1_455 S
O361 C357 1.295 . S
O362 Fe345 1.981 1_455 S
O362 C357 1.235 . S
C363 O346 1.295 . S
C363 O347 1.235 . S
Fe364 O366 1.918 . S
Fe364 O369 1.997 . S
Fe364 O370 2.002 . S
Fe364 O375 1.976 . S
Fe364 O378 1.996 . S
Fe365 O366 1.918 . S
Fe365 O373 1.997 . S
Fe365 O376 1.996 . S
Fe365 O380 1.976 . S
Fe365 O383 2.002 . S
O366 Fe364 1.918 . S
O366 Fe365 1.918 . S
O366 Fe367 1.918 . S
Fe367 O366 1.918 . S
Fe367 O368 2.002 . S
Fe367 O377 1.976 . S
Fe367 O381 1.996 . S
Fe367 O384 1.997 . S
O368 Fe367 2.002 . S
O368 C385 1.295 . S
O369 Fe364 1.997 . S
O369 C385 1.235 . S
O370 Fe364 2.002 . S
O370 C371 1.295 . S
C371 O370 1.295 . S
C371 O373 1.235 . S
C372 O377 1.287 . S
C372 O378 1.255 . S
O373 Fe365 1.997 . S
O373 C371 1.235 . S
C374 O380 1.287 . S
C374 O381 1.255 . S
O375 Fe364 1.976 . S
O375 C382 1.287 . S
O376 Fe365 1.996 . S
O376 C382 1.255 . S
O377 Fe367 1.976 . S
O377 C372 1.287 . S
O378 Fe364 1.996 . S
O378 C372 1.255 . S
C379 O383 1.295 . S
C379 O384 1.235 . S
O380 Fe365 1.976 . S
O380 C374 1.287 . S
O381 Fe367 1.996 . S
O381 C374 1.255 . S
C382 O375 1.287 . S
C382 O376 1.255 . S
O383 Fe365 2.002 . S
O383 C379 1.295 . S
O384 Fe367 1.997 . S
O384 C379 1.235 . S
C385 O368 1.295 . S
C385 O369 1.235 . S
Fe386 O388 1.918 . S
Fe386 O391 1.997 . S
Fe386 O392 2.002 . S
Fe386 O397 1.976 . S
Fe386 O400 1.996 . S
Fe387 O388 1.918 . S
Fe387 O395 1.997 . S
Fe387 O398 1.996 . S
Fe387 O402 1.976 . S
Fe387 O405 2.002 . S
O388 Fe386 1.918 . S
O388 Fe387 1.918 . S
O388 Fe389 1.918 . S
Fe389 O388 1.918 . S
Fe389 O390 2.002 . S
Fe389 O399 1.976 . S
Fe389 O403 1.996 . S
Fe389 O406 1.997 . S
O390 Fe389 2.002 . S
O390 C407 1.295 . S
O391 Fe386 1.997 . S
O391 C407 1.235 . S
O392 Fe386 2.002 . S
O392 C393 1.295 . S
C393 O392 1.295 . S
C393 O395 1.235 . S
C394 O399 1.287 . S
C394 O400 1.255 . S
O395 Fe387 1.997 . S
O395 C393 1.235 . S
C396 O402 1.287 . S
C396 O403 1.255 . S
O397 Fe386 1.976 . S
O397 C404 1.287 . S
O398 Fe387 1.996 . S
O398 C404 1.255 . S
O399 Fe389 1.976 . S
O399 C394 1.287 . S
O400 Fe386 1.996 . S
O400 C394 1.255 . S
C401 O405 1.295 . S
C401 O406 1.235 . S
O402 Fe387 1.976 . S
O402 C396 1.287 . S
O403 Fe389 1.996 . S
O403 C396 1.255 . S
C404 O397 1.287 . S
C404 O398 1.255 . S
O405 Fe387 2.002 . S
O405 C401 1.295 . S
O406 Fe389 1.997 . S
O406 C401 1.235 . S
C407 O390 1.295 . S
C407 O391 1.235 . S
C408 C409 1.391 . S
C408 C410 1.394 . S
C408 H424 0.931 . S
C409 C408 1.391 . S
C409 C413 1.376 . S
C410 C408 1.394 . S
C410 C411 1.369 . S
C410 C414 1.531 . S
C411 C410 1.369 . S
C411 C412 1.410 . S
C411 C419 1.503 . S
C412 C411 1.410 . S
C412 C413 1.392 . S
C412 C415 1.511 . S
C413 C409 1.376 . S
C413 C412 1.392 . S
C413 H425 0.929 . S
C414 C410 1.531 . S
C414 H426 0.960 . S
C414 H427 0.962 . S
C414 H428 0.960 . S
C415 C412 1.511 . S
C415 H429 0.961 . S
C415 H430 0.961 . S
C415 H431 0.961 . S
C416 C417 1.370 . S
C416 C418 1.363 . S
C416 H432 0.931 . S
C417 C416 1.370 . S
C417 C421 1.408 . S
C418 C416 1.363 . S
C418 C419 1.370 . S
C418 C422 1.524 . S
C419 C411 1.503 . S
C419 C418 1.370 . S
C419 C420 1.403 . S
C420 C419 1.403 . S
C420 C421 1.404 . S
C420 C423 1.539 . S
C421 C417 1.408 . S
C421 C420 1.404 . S
C421 H433 0.930 . S
C422 C418 1.524 . S
C422 H434 0.956 . S
C422 H435 0.961 . S
C422 H436 0.961 . S
C423 C420 1.539 . S
C423 H437 0.958 . S
C423 H438 0.961 . S
C423 H439 0.960 . S
H424 C408 0.931 . S
H425 C413 0.929 . S
H426 C414 0.960 . S
H427 C414 0.962 . S
H428 C414 0.960 . S
H429 C415 0.961 . S
H430 C415 0.961 . S
H431 C415 0.961 . S
H432 C416 0.931 . S
H433 C421 0.930 . S
H434 C422 0.956 . S
H435 C422 0.961 . S
H436 C422 0.961 . S
H437 C423 0.958 . S
H438 C423 0.961 . S
H439 C423 0.960 . S
C440 C441 1.391 . S
C440 C442 1.394 . S
C440 H456 0.931 . S
C441 C440 1.391 . S
C441 C445 1.376 . S
C442 C440 1.394 . S
C442 C443 1.369 . S
C442 C446 1.531 . S
C443 C442 1.369 . S
C443 C444 1.410 . S
C443 C451 1.503 . S
C444 C443 1.410 . S
C444 C445 1.392 . S
C444 C447 1.511 . S
C445 C441 1.376 . S
C445 C444 1.392 . S
C445 H457 0.929 . S
C446 C442 1.531 . S
C446 H458 0.960 . S
C446 H459 0.962 . S
C446 H460 0.960 . S
C447 C444 1.511 . S
C447 H461 0.961 . S
C447 H462 0.961 . S
C447 H463 0.961 . S
C448 C449 1.370 . S
C448 C450 1.363 . S
C448 H464 0.931 . S
C449 C448 1.370 . S
C449 C453 1.408 . S
C450 C448 1.363 . S
C450 C451 1.370 . S
C450 C454 1.524 . S
C451 C443 1.503 . S
C451 C450 1.370 . S
C451 C452 1.403 . S
C452 C451 1.403 . S
C452 C453 1.404 . S
C452 C455 1.539 . S
C453 C449 1.408 . S
C453 C452 1.404 . S
C453 H465 0.930 . S
C454 C450 1.524 . S
C454 H466 0.956 . S
C454 H467 0.961 . S
C454 H468 0.961 . S
C455 C452 1.539 . S
C455 H469 0.958 . S
C455 H470 0.961 . S
C455 H471 0.960 . S
H456 C440 0.931 . S
H457 C445 0.929 . S
H458 C446 0.960 . S
H459 C446 0.962 . S
H460 C446 0.960 . S
H461 C447 0.961 . S
H462 C447 0.961 . S
H463 C447 0.961 . S
H464 C448 0.931 . S
H465 C453 0.930 . S
H466 C454 0.956 . S
H467 C454 0.961 . S
H468 C454 0.961 . S
H469 C455 0.958 . S
H470 C455 0.961 . S
H471 C455 0.960 . S
C472 C473 1.391 . S
C472 C474 1.394 . S
C472 H488 0.931 . S
C473 C472 1.391 . S
C473 C477 1.376 . S
C474 C472 1.394 . S
C474 C475 1.369 . S
C474 C478 1.531 . S
C475 C474 1.369 . S
C475 C476 1.410 . S
C475 C483 1.503 . S
C476 C475 1.410 . S
C476 C477 1.392 . S
C476 C479 1.511 . S
C477 C473 1.376 . S
C477 C476 1.392 . S
C477 H489 0.929 . S
C478 C474 1.531 . S
C478 H490 0.960 . S
C478 H491 0.962 . S
C478 H492 0.960 . S
C479 C476 1.511 . S
C479 H493 0.961 . S
C479 H494 0.961 . S
C479 H495 0.961 . S
C480 C481 1.370 . S
C480 C482 1.363 . S
C480 H496 0.931 . S
C481 C480 1.370 . S
C481 C485 1.408 . S
C482 C480 1.363 . S
C482 C483 1.370 . S
C482 C486 1.524 . S
C483 C475 1.503 . S
C483 C482 1.370 . S
C483 C484 1.403 . S
C484 C483 1.403 . S
C484 C485 1.404 . S
C484 C487 1.539 . S
C485 C481 1.408 . S
C485 C484 1.404 . S
C485 H497 0.930 . S
C486 C482 1.524 . S
C486 H498 0.956 . S
C486 H499 0.961 . S
C486 H500 0.961 . S
C487 C484 1.539 . S
C487 H501 0.958 . S
C487 H502 0.961 . S
C487 H503 0.960 . S
H488 C472 0.931 . S
H489 C477 0.929 . S
H490 C478 0.960 . S
H491 C478 0.962 . S
H492 C478 0.960 . S
H493 C479 0.961 . S
H494 C479 0.961 . S
H495 C479 0.961 . S
H496 C480 0.931 . S
H497 C485 0.930 . S
H498 C486 0.956 . S
H499 C486 0.961 . S
H500 C486 0.961 . S
H501 C487 0.958 . S
H502 C487 0.961 . S
H503 C487 0.960 . S
C504 C505 1.391 . S
C504 C506 1.394 . S
C504 H520 0.931 . S
C505 C504 1.391 . S
C505 C509 1.376 . S
C506 C504 1.394 . S
C506 C507 1.369 . S
C506 C510 1.531 . S
C507 C506 1.369 . S
C507 C508 1.410 . S
C507 C515 1.503 . S
C508 C507 1.410 . S
C508 C509 1.392 . S
C508 C511 1.511 . S
C509 C505 1.376 . S
C509 C508 1.392 . S
C509 H521 0.929 . S
C510 C506 1.531 . S
C510 H522 0.960 . S
C510 H523 0.962 . S
C510 H524 0.960 . S
C511 C508 1.511 . S
C511 H525 0.961 . S
C511 H526 0.961 . S
C511 H527 0.961 . S
C512 C513 1.370 . S
C512 C514 1.363 . S
C512 H528 0.931 . S
C513 C512 1.370 . S
C513 C517 1.408 . S
C514 C512 1.363 . S
C514 C515 1.370 . S
C514 C518 1.524 . S
C515 C507 1.503 . S
C515 C514 1.370 . S
C515 C516 1.403 . S
C516 C515 1.403 . S
C516 C517 1.404 . S
C516 C519 1.539 . S
C517 C513 1.408 . S
C517 C516 1.404 . S
C517 H529 0.930 . S
C518 C514 1.524 . S
C518 H530 0.956 . S
C518 H531 0.961 . S
C518 H532 0.961 . S
C519 C516 1.539 . S
C519 H533 0.958 . S
C519 H534 0.961 . S
C519 H535 0.960 . S
H520 C504 0.931 . S
H521 C509 0.929 . S
H522 C510 0.960 . S
H523 C510 0.962 . S
H524 C510 0.960 . S
H525 C511 0.961 . S
H526 C511 0.961 . S
H527 C511 0.961 . S
H528 C512 0.931 . S
H529 C517 0.930 . S
H530 C518 0.956 . S
H531 C518 0.961 . S
H532 C518 0.961 . S
H533 C519 0.958 . S
H534 C519 0.961 . S
H535 C519 0.960 . S
C536 C537 1.391 . S
C536 C538 1.394 . S
C536 H552 0.931 . S
C537 C536 1.391 . S
C537 C541 1.376 . S
C538 C536 1.394 . S
C538 C539 1.369 . S
C538 C542 1.531 . S
C539 C538 1.369 . S
C539 C540 1.410 . S
C539 C547 1.503 . S
C540 C539 1.410 . S
C540 C541 1.392 . S
C540 C543 1.511 . S
C541 C537 1.376 . S
C541 C540 1.392 . S
C541 H553 0.929 . S
C542 C538 1.531 . S
C542 H554 0.960 . S
C542 H555 0.962 . S
C542 H556 0.960 . S
C543 C540 1.511 . S
C543 H557 0.961 . S
C543 H558 0.961 . S
C543 H559 0.961 . S
C544 C545 1.370 . S
C544 C546 1.363 . S
C544 H560 0.931 . S
C545 C544 1.370 . S
C545 C549 1.408 . S
C546 C544 1.363 . S
C546 C547 1.370 . S
C546 C550 1.524 . S
C547 C539 1.503 . S
C547 C546 1.370 . S
C547 C548 1.403 . S
C548 C547 1.403 . S
C548 C549 1.404 . S
C548 C551 1.539 . S
C549 C545 1.408 . S
C549 C548 1.404 . S
C549 H561 0.930 . S
C550 C546 1.524 . S
C550 H562 0.956 . S
C550 H563 0.961 . S
C550 H564 0.961 . S
C551 C548 1.539 . S
C551 H565 0.958 . S
C551 H566 0.961 . S
C551 H567 0.960 . S
H552 C536 0.931 . S
H553 C541 0.929 . S
H554 C542 0.960 . S
H555 C542 0.962 . S
H556 C542 0.960 . S
H557 C543 0.961 . S
H558 C543 0.961 . S
H559 C543 0.961 . S
H560 C544 0.931 . S
H561 C549 0.930 . S
H562 C550 0.956 . S
H563 C550 0.961 . S
H564 C550 0.961 . S
H565 C551 0.958 . S
H566 C551 0.961 . S
H567 C551 0.960 . S
C568 C569 1.391 . S
C568 C570 1.394 . S
C568 H584 0.931 . S
C569 C568 1.391 . S
C569 C573 1.376 . S
C570 C568 1.394 . S
C570 C571 1.369 . S
C570 C574 1.531 . S
C571 C570 1.369 . S
C571 C572 1.410 . S
C571 C579 1.503 . S
C572 C571 1.410 . S
C572 C573 1.392 . S
C572 C575 1.511 . S
C573 C569 1.376 . S
C573 C572 1.392 . S
C573 H585 0.929 . S
C574 C570 1.531 . S
C574 H586 0.960 . S
C574 H587 0.962 . S
C574 H588 0.960 . S
C575 C572 1.511 . S
C575 H589 0.961 . S
C575 H590 0.961 . S
C575 H591 0.961 . S
C576 C577 1.370 . S
C576 C578 1.363 . S
C576 H592 0.931 . S
C577 C576 1.370 . S
C577 C581 1.408 . S
C578 C576 1.363 . S
C578 C579 1.370 . S
C578 C582 1.524 . S
C579 C571 1.503 . S
C579 C578 1.370 . S
C579 C580 1.403 . S
C580 C579 1.403 . S
C580 C581 1.404 . S
C580 C583 1.539 . S
C581 C577 1.408 . S
C581 C580 1.404 . S
C581 H593 0.930 . S
C582 C578 1.524 . S
C582 H594 0.956 . S
C582 H595 0.961 . S
C582 H596 0.961 . S
C583 C580 1.539 . S
C583 H597 0.958 . S
C583 H598 0.961 . S
C583 H599 0.960 . S
H584 C568 0.931 . S
H585 C573 0.929 . S
H586 C574 0.960 . S
H587 C574 0.962 . S
H588 C574 0.960 . S
H589 C575 0.961 . S
H590 C575 0.961 . S
H591 C575 0.961 . S
H592 C576 0.931 . S
H593 C581 0.930 . S
H594 C582 0.956 . S
H595 C582 0.961 . S
H596 C582 0.961 . S
H597 C583 0.958 . S
H598 C583 0.961 . S
H599 C583 0.960 . S
C600 C601 1.391 . S
C600 C602 1.394 . S
C600 H616 0.931 . S
C601 C600 1.391 . S
C601 C605 1.376 . S
C602 C600 1.394 . S
C602 C603 1.369 . S
C602 C606 1.531 . S
C603 C602 1.369 . S
C603 C604 1.410 . S
C603 C611 1.503 . S
C604 C603 1.410 . S
C604 C605 1.392 . S
C604 C607 1.511 . S
C605 C601 1.376 . S
C605 C604 1.392 . S
C605 H617 0.929 . S
C606 C602 1.531 . S
C606 H618 0.960 . S
C606 H619 0.962 . S
C606 H620 0.960 . S
C607 C604 1.511 . S
C607 H621 0.961 . S
C607 H622 0.961 . S
C607 H623 0.961 . S
C608 C609 1.370 . S
C608 C610 1.363 . S
C608 H624 0.931 . S
C609 C608 1.370 . S
C609 C613 1.408 . S
C610 C608 1.363 . S
C610 C611 1.370 . S
C610 C614 1.524 . S
C611 C603 1.503 . S
C611 C610 1.370 . S
C611 C612 1.403 . S
C612 C611 1.403 . S
C612 C613 1.404 . S
C612 C615 1.539 . S
C613 C609 1.408 . S
C613 C612 1.404 . S
C613 H625 0.930 . S
C614 C610 1.524 . S
C614 H626 0.956 . S
C614 H627 0.961 . S
C614 H628 0.961 . S
C615 C612 1.539 . S
C615 H629 0.958 . S
C615 H630 0.961 . S
C615 H631 0.960 . S
H616 C600 0.931 . S
H617 C605 0.929 . S
H618 C606 0.960 . S
H619 C606 0.962 . S
H620 C606 0.960 . S
H621 C607 0.961 . S
H622 C607 0.961 . S
H623 C607 0.961 . S
H624 C608 0.931 . S
H625 C613 0.930 . S
H626 C614 0.956 . S
H627 C614 0.961 . S
H628 C614 0.961 . S
H629 C615 0.958 . S
H630 C615 0.961 . S
H631 C615 0.960 . S
C632 C633 1.391 . S
C632 C634 1.394 . S
C632 H648 0.931 . S
C633 C632 1.391 . S
C633 C637 1.376 . S
C634 C632 1.394 . S
C634 C635 1.369 . S
C634 C638 1.531 . S
C635 C634 1.369 . S
C635 C636 1.410 . S
C635 C643 1.503 . S
C636 C635 1.410 . S
C636 C637 1.392 . S
C636 C639 1.511 . S
C637 C633 1.376 . S
C637 C636 1.392 . S
C637 H649 0.929 . S
C638 C634 1.531 . S
C638 H650 0.960 . S
C638 H651 0.962 . S
C638 H652 0.960 . S
C639 C636 1.511 . S
C639 H653 0.961 . S
C639 H654 0.961 . S
C639 H655 0.961 . S
C640 C641 1.370 . S
C640 C642 1.363 . S
C640 H656 0.931 . S
C641 C640 1.370 . S
C641 C645 1.408 . S
C642 C640 1.363 . S
C642 C643 1.370 . S
C642 C646 1.524 . S
C643 C635 1.503 . S
C643 C642 1.370 . S
C643 C644 1.403 . S
C644 C643 1.403 . S
C644 C645 1.404 . S
C644 C647 1.539 . S
C645 C641 1.408 . S
C645 C644 1.404 . S
C645 H657 0.930 . S
C646 C642 1.524 . S
C646 H658 0.956 . S
C646 H659 0.961 . S
C646 H660 0.961 . S
C647 C644 1.539 . S
C647 H661 0.958 . S
C647 H662 0.961 . S
C647 H663 0.960 . S
H648 C632 0.931 . S
H649 C637 0.929 . S
H650 C638 0.960 . S
H651 C638 0.962 . S
H652 C638 0.960 . S
H653 C639 0.961 . S
H654 C639 0.961 . S
H655 C639 0.961 . S
H656 C640 0.931 . S
H657 C645 0.930 . S
H658 C646 0.956 . S
H659 C646 0.961 . S
H660 C646 0.961 . S
H661 C647 0.958 . S
H662 C647 0.961 . S
H663 C647 0.960 . S
C664 C665 1.391 . S
C664 C666 1.394 . S
C664 H680 0.931 . S
C665 C664 1.391 . S
C665 C669 1.376 . S
C666 C664 1.394 . S
C666 C667 1.369 . S
C666 C670 1.531 . S
C667 C666 1.369 . S
C667 C668 1.410 . S
C667 C675 1.503 . S
C668 C667 1.410 . S
C668 C669 1.392 . S
C668 C671 1.511 . S
C669 C665 1.376 . S
C669 C668 1.392 . S
C669 H681 0.929 . S
C670 C666 1.531 . S
C670 H682 0.960 . S
C670 H683 0.962 . S
C670 H684 0.960 . S
C671 C668 1.511 . S
C671 H685 0.961 . S
C671 H686 0.961 . S
C671 H687 0.961 . S
C672 C673 1.370 . S
C672 C674 1.363 . S
C672 H688 0.931 . S
C673 C672 1.370 . S
C673 C677 1.408 . S
C674 C672 1.363 . S
C674 C675 1.370 . S
C674 C678 1.524 . S
C675 C667 1.503 . S
C675 C674 1.370 . S
C675 C676 1.403 . S
C676 C675 1.403 . S
C676 C677 1.404 . S
C676 C679 1.539 . S
C677 C673 1.408 . S
C677 C676 1.404 . S
C677 H689 0.930 . S
C678 C674 1.524 . S
C678 H690 0.956 . S
C678 H691 0.961 . S
C678 H692 0.961 . S
C679 C676 1.539 . S
C679 H693 0.958 . S
C679 H694 0.961 . S
C679 H695 0.960 . S
H680 C664 0.931 . S
H681 C669 0.929 . S
H682 C670 0.960 . S
H683 C670 0.962 . S
H684 C670 0.960 . S
H685 C671 0.961 . S
H686 C671 0.961 . S
H687 C671 0.961 . S
H688 C672 0.931 . S
H689 C677 0.930 . S
H690 C678 0.956 . S
H691 C678 0.961 . S
H692 C678 0.961 . S
H693 C679 0.958 . S
H694 C679 0.961 . S
H695 C679 0.960 . S
C696 C697 1.391 . S
C696 C698 1.394 . S
C696 H712 0.931 . S
C697 C696 1.391 . S
C697 C701 1.376 . S
C698 C696 1.394 . S
C698 C699 1.369 . S
C698 C702 1.531 . S
C699 C698 1.369 . S
C699 C700 1.410 . S
C699 C707 1.503 . S
C700 C699 1.410 . S
C700 C701 1.392 . S
C700 C703 1.511 . S
C701 C697 1.376 . S
C701 C700 1.392 . S
C701 H713 0.929 . S
C702 C698 1.531 . S
C702 H714 0.960 . S
C702 H715 0.962 . S
C702 H716 0.960 . S
C703 C700 1.511 . S
C703 H717 0.961 . S
C703 H718 0.961 . S
C703 H719 0.961 . S
C704 C705 1.370 . S
C704 C706 1.363 . S
C704 H720 0.931 . S
C705 C704 1.370 . S
C705 C709 1.408 . S
C706 C704 1.363 . S
C706 C707 1.370 . S
C706 C710 1.524 . S
C707 C699 1.503 . S
C707 C706 1.370 . S
C707 C708 1.403 . S
C708 C707 1.403 . S
C708 C709 1.404 . S
C708 C711 1.539 . S
C709 C705 1.408 . S
C709 C708 1.404 . S
C709 H721 0.930 . S
C710 C706 1.524 . S
C710 H722 0.956 . S
C710 H723 0.961 . S
C710 H724 0.961 . S
C711 C708 1.539 . S
C711 H725 0.958 . S
C711 H726 0.961 . S
C711 H727 0.960 . S
H712 C696 0.931 . S
H713 C701 0.929 . S
H714 C702 0.960 . S
H715 C702 0.962 . S
H716 C702 0.960 . S
H717 C703 0.961 . S
H718 C703 0.961 . S
H719 C703 0.961 . S
H720 C704 0.931 . S
H721 C709 0.930 . S
H722 C710 0.956 . S
H723 C710 0.961 . S
H724 C710 0.961 . S
H725 C711 0.958 . S
H726 C711 0.961 . S
H727 C711 0.960 . S
C728 C729 1.391 . S
C728 C730 1.394 . S
C728 H744 0.931 . S
C729 C728 1.391 . S
C729 C733 1.376 . S
C730 C728 1.394 . S
C730 C731 1.369 . S
C730 C734 1.531 . S
C731 C730 1.369 . S
C731 C732 1.410 . S
C731 C739 1.503 . S
C732 C731 1.410 . S
C732 C733 1.392 . S
C732 C735 1.511 . S
C733 C729 1.376 . S
C733 C732 1.392 . S
C733 H745 0.929 . S
C734 C730 1.531 . S
C734 H746 0.960 . S
C734 H747 0.962 . S
C734 H748 0.960 . S
C735 C732 1.511 . S
C735 H749 0.961 . S
C735 H750 0.961 . S
C735 H751 0.961 . S
C736 C737 1.370 . S
C736 C738 1.363 . S
C736 H752 0.931 . S
C737 C736 1.370 . S
C737 C741 1.408 . S
C738 C736 1.363 . S
C738 C739 1.370 . S
C738 C742 1.524 . S
C739 C731 1.503 . S
C739 C738 1.370 . S
C739 C740 1.403 . S
C740 C739 1.403 . S
C740 C741 1.404 . S
C740 C743 1.539 . S
C741 C737 1.408 . S
C741 C740 1.404 . S
C741 H753 0.930 . S
C742 C738 1.524 . S
C742 H754 0.956 . S
C742 H755 0.961 . S
C742 H756 0.961 . S
C743 C740 1.539 . S
C743 H757 0.958 . S
C743 H758 0.961 . S
C743 H759 0.960 . S
H744 C728 0.931 . S
H745 C733 0.929 . S
H746 C734 0.960 . S
H747 C734 0.962 . S
H748 C734 0.960 . S
H749 C735 0.961 . S
H750 C735 0.961 . S
H751 C735 0.961 . S
H752 C736 0.931 . S
H753 C741 0.930 . S
H754 C742 0.956 . S
H755 C742 0.961 . S
H756 C742 0.961 . S
H757 C743 0.958 . S
H758 C743 0.961 . S
H759 C743 0.960 . S
C760 C761 1.391 . S
C760 C762 1.394 . S
C760 H776 0.931 . S
C761 C760 1.391 . S
C761 C765 1.376 . S
C762 C760 1.394 . S
C762 C763 1.369 . S
C762 C766 1.531 . S
C763 C762 1.369 . S
C763 C764 1.410 . S
C763 C771 1.503 . S
C764 C763 1.410 . S
C764 C765 1.392 . S
C764 C767 1.511 . S
C765 C761 1.376 . S
C765 C764 1.392 . S
C765 H777 0.929 . S
C766 C762 1.531 . S
C766 H778 0.960 . S
C766 H779 0.962 . S
C766 H780 0.960 . S
C767 C764 1.511 . S
C767 H781 0.961 . S
C767 H782 0.961 . S
C767 H783 0.961 . S
C768 C769 1.370 . S
C768 C770 1.363 . S
C768 H784 0.931 . S
C769 C768 1.370 . S
C769 C773 1.408 . S
C770 C768 1.363 . S
C770 C771 1.370 . S
C770 C774 1.524 . S
C771 C763 1.503 . S
C771 C770 1.370 . S
C771 C772 1.403 . S
C772 C771 1.403 . S
C772 C773 1.404 . S
C772 C775 1.539 . S
C773 C769 1.408 . S
C773 C772 1.404 . S
C773 H785 0.930 . S
C774 C770 1.524 . S
C774 H786 0.956 . S
C774 H787 0.961 . S
C774 H788 0.961 . S
C775 C772 1.539 . S
C775 H789 0.958 . S
C775 H790 0.961 . S
C775 H791 0.960 . S
H776 C760 0.931 . S
H777 C765 0.929 . S
H778 C766 0.960 . S
H779 C766 0.962 . S
H780 C766 0.960 . S
H781 C767 0.961 . S
H782 C767 0.961 . S
H783 C767 0.961 . S
H784 C768 0.931 . S
H785 C773 0.930 . S
H786 C774 0.956 . S
H787 C774 0.961 . S
H788 C774 0.961 . S
H789 C775 0.958 . S
H790 C775 0.961 . S
H791 C775 0.960 . S
C792 C793 1.391 . S
C792 C794 1.394 . S
C792 H808 0.931 . S
C793 C792 1.391 . S
C793 C797 1.376 . S
C794 C792 1.394 . S
C794 C795 1.369 . S
C794 C798 1.531 . S
C795 C794 1.369 . S
C795 C796 1.410 . S
C795 C803 1.503 . S
C796 C795 1.410 . S
C796 C797 1.392 . S
C796 C799 1.511 . S
C797 C793 1.376 . S
C797 C796 1.392 . S
C797 H809 0.929 . S
C798 C794 1.531 . S
C798 H810 0.960 . S
C798 H811 0.962 . S
C798 H812 0.960 . S
C799 C796 1.511 . S
C799 H813 0.961 . S
C799 H814 0.961 . S
C799 H815 0.961 . S
C800 C801 1.370 . S
C800 C802 1.363 . S
C800 H816 0.931 . S
C801 C800 1.370 . S
C801 C805 1.408 . S
C802 C800 1.363 . S
C802 C803 1.370 . S
C802 C806 1.524 . S
C803 C795 1.503 . S
C803 C802 1.370 . S
C803 C804 1.403 . S
C804 C803 1.403 . S
C804 C805 1.404 . S
C804 C807 1.539 . S
C805 C801 1.408 . S
C805 C804 1.404 . S
C805 H817 0.930 . S
C806 C802 1.524 . S
C806 H818 0.956 . S
C806 H819 0.961 . S
C806 H820 0.961 . S
C807 C804 1.539 . S
C807 H821 0.958 . S
C807 H822 0.961 . S
C807 H823 0.960 . S
H808 C792 0.931 . S
H809 C797 0.929 . S
H810 C798 0.960 . S
H811 C798 0.962 . S
H812 C798 0.960 . S
H813 C799 0.961 . S
H814 C799 0.961 . S
H815 C799 0.961 . S
H816 C800 0.931 . S
H817 C805 0.930 . S
H818 C806 0.956 . S
H819 C806 0.961 . S
H820 C806 0.961 . S
H821 C807 0.958 . S
H822 C807 0.961 . S
H823 C807 0.960 . S
C824 C825 1.391 . S
C824 C826 1.394 . S
C824 H840 0.931 . S
C825 C824 1.391 . S
C825 C829 1.376 . S
C826 C824 1.394 . S
C826 C827 1.369 . S
C826 C830 1.531 . S
C827 C826 1.369 . S
C827 C828 1.410 . S
C827 C835 1.503 . S
C828 C827 1.410 . S
C828 C829 1.392 . S
C828 C831 1.511 . S
C829 C825 1.376 . S
C829 C828 1.392 . S
C829 H841 0.929 . S
C830 C826 1.531 . S
C830 H842 0.960 . S
C830 H843 0.962 . S
C830 H844 0.960 . S
C831 C828 1.511 . S
C831 H845 0.961 . S
C831 H846 0.961 . S
C831 H847 0.961 . S
C832 C833 1.370 . S
C832 C834 1.363 . S
C832 H848 0.931 . S
C833 C832 1.370 . S
C833 C837 1.408 . S
C834 C832 1.363 . S
C834 C835 1.370 . S
C834 C838 1.524 . S
C835 C827 1.503 . S
C835 C834 1.370 . S
C835 C836 1.403 . S
C836 C835 1.403 . S
C836 C837 1.404 . S
C836 C839 1.539 . S
C837 C833 1.408 . S
C837 C836 1.404 . S
C837 H849 0.930 . S
C838 C834 1.524 . S
C838 H850 0.956 . S
C838 H851 0.961 . S
C838 H852 0.961 . S
C839 C836 1.539 . S
C839 H853 0.958 . S
C839 H854 0.961 . S
C839 H855 0.960 . S
H840 C824 0.931 . S
H841 C829 0.929 . S
H842 C830 0.960 . S
H843 C830 0.962 . S
H844 C830 0.960 . S
H845 C831 0.961 . S
H846 C831 0.961 . S
H847 C831 0.961 . S
H848 C832 0.931 . S
H849 C837 0.930 . S
H850 C838 0.956 . S
H851 C838 0.961 . S
H852 C838 0.961 . S
H853 C839 0.958 . S
H854 C839 0.961 . S
H855 C839 0.960 . S
C856 C857 1.391 . S
C856 C858 1.394 . S
C856 H872 0.931 1_545 S
C857 C856 1.391 . S
C857 C861 1.376 . S
C858 C856 1.394 . S
C858 C859 1.369 . S
C858 C862 1.531 . S
C859 C858 1.369 . S
C859 C860 1.410 . S
C859 C867 1.503 . S
C860 C859 1.410 . S
C860 C861 1.392 . S
C860 C863 1.511 . S
C861 C857 1.376 . S
C861 C860 1.392 . S
C861 H873 0.929 . S
C862 C858 1.531 . S
C862 H874 0.960 . S
C862 H875 0.962 . S
C862 H876 0.960 . S
C863 C860 1.511 . S
C863 H877 0.961 . S
C863 H878 0.961 . S
C863 H879 0.961 . S
C864 C865 1.370 . S
C864 C866 1.363 . S
C864 H880 0.931 . S
C865 C864 1.370 . S
C865 C869 1.408 . S
C866 C864 1.363 . S
C866 C867 1.370 . S
C866 C870 1.524 . S
C867 C859 1.503 . S
C867 C866 1.370 . S
C867 C868 1.403 . S
C868 C867 1.403 . S
C868 C869 1.404 . S
C868 C871 1.539 . S
C869 C865 1.408 . S
C869 C868 1.404 . S
C869 H881 0.930 . S
C870 C866 1.524 . S
C870 H882 0.956 . S
C870 H883 0.961 . S
C870 H884 0.961 . S
C871 C868 1.539 . S
C871 H885 0.958 . S
C871 H886 0.961 . S
C871 H887 0.960 . S
H872 C856 0.931 1_565 S
H873 C861 0.929 . S
H874 C862 0.960 . S
H875 C862 0.962 . S
H876 C862 0.960 . S
H877 C863 0.961 . S
H878 C863 0.961 . S
H879 C863 0.961 . S
H880 C864 0.931 . S
H881 C869 0.930 . S
H882 C870 0.956 . S
H883 C870 0.961 . S
H884 C870 0.961 . S
H885 C871 0.958 . S
H886 C871 0.961 . S
H887 C871 0.960 . S
C888 C889 1.391 . S
C888 C890 1.394 . S
C888 H904 0.931 1_565 S
C889 C888 1.391 . S
C889 C893 1.376 . S
C890 C888 1.394 . S
C890 C891 1.369 . S
C890 C894 1.531 . S
C891 C890 1.369 . S
C891 C892 1.410 . S
C891 C899 1.503 . S
C892 C891 1.410 . S
C892 C893 1.392 . S
C892 C895 1.511 . S
C893 C889 1.376 . S
C893 C892 1.392 . S
C893 H905 0.929 . S
C894 C890 1.531 . S
C894 H906 0.960 . S
C894 H907 0.962 . S
C894 H908 0.960 1_565 S
C895 C892 1.511 . S
C895 H909 0.961 . S
C895 H910 0.961 . S
C895 H911 0.961 . S
C896 C897 1.370 . S
C896 C898 1.363 . S
C896 H912 0.931 . S
C897 C896 1.370 . S
C897 C901 1.408 . S
C898 C896 1.363 . S
C898 C899 1.370 . S
C898 C902 1.524 . S
C899 C891 1.503 . S
C899 C898 1.370 . S
C899 C900 1.403 . S
C900 C899 1.403 . S
C900 C901 1.404 . S
C900 C903 1.539 . S
C901 C897 1.408 . S
C901 C900 1.404 . S
C901 H913 0.930 . S
C902 C898 1.524 . S
C902 H914 0.956 . S
C902 H915 0.961 . S
C902 H916 0.961 . S
C903 C900 1.539 . S
C903 H917 0.958 . S
C903 H918 0.961 . S
C903 H919 0.960 . S
H904 C888 0.931 1_545 S
H905 C893 0.929 . S
H906 C894 0.960 . S
H907 C894 0.962 . S
H908 C894 0.960 1_545 S
H909 C895 0.961 . S
H910 C895 0.961 . S
H911 C895 0.961 . S
H912 C896 0.931 . S
H913 C901 0.930 . S
H914 C902 0.956 . S
H915 C902 0.961 . S
H916 C902 0.961 . S
H917 C903 0.958 . S
H918 C903 0.961 . S
H919 C903 0.960 . S
C920 C921 1.391 . S
C920 C922 1.394 . S
C920 H936 0.931 . S
C921 C920 1.391 . S
C921 C925 1.376 . S
C922 C920 1.394 . S
C922 C923 1.369 . S
C922 C926 1.531 . S
C923 C922 1.369 . S
C923 C924 1.410 . S
C923 C931 1.503 . S
C924 C923 1.410 . S
C924 C925 1.392 . S
C924 C927 1.511 . S
C925 C921 1.376 . S
C925 C924 1.392 . S
C925 H937 0.929 . S
C926 C922 1.531 . S
C926 H938 0.960 . S
C926 H939 0.962 . S
C926 H940 0.960 . S
C927 C924 1.511 . S
C927 H941 0.961 . S
C927 H942 0.961 . S
C927 H943 0.961 . S
C928 C929 1.370 . S
C928 C930 1.363 . S
C928 H944 0.931 . S
C929 C928 1.370 . S
C929 C933 1.408 . S
C930 C928 1.363 . S
C930 C931 1.370 . S
C930 C934 1.524 . S
C931 C923 1.503 . S
C931 C930 1.370 . S
C931 C932 1.403 . S
C932 C931 1.403 . S
C932 C933 1.404 . S
C932 C935 1.539 . S
C933 C929 1.408 . S
C933 C932 1.404 . S
C933 H945 0.930 . S
C934 C930 1.524 . S
C934 H946 0.956 . S
C934 H947 0.961 . S
C934 H948 0.961 . S
C935 C932 1.539 . S
C935 H949 0.958 . S
C935 H950 0.961 . S
C935 H951 0.960 . S
H936 C920 0.931 . S
H937 C925 0.929 . S
H938 C926 0.960 . S
H939 C926 0.962 . S
H940 C926 0.960 . S
H941 C927 0.961 . S
H942 C927 0.961 . S
H943 C927 0.961 . S
H944 C928 0.931 . S
H945 C933 0.930 . S
H946 C934 0.956 . S
H947 C934 0.961 . S
H948 C934 0.961 . S
H949 C935 0.958 . S
H950 C935 0.961 . S
H951 C935 0.960 . S
C952 C953 1.391 . S
C952 C954 1.394 . S
C952 H968 0.931 . S
C953 C952 1.391 . S
C953 C957 1.376 . S
C954 C952 1.394 . S
C954 C955 1.369 . S
C954 C958 1.531 . S
C955 C954 1.369 . S
C955 C956 1.410 . S
C955 C963 1.503 . S
C956 C955 1.410 . S
C956 C957 1.392 . S
C956 C959 1.511 . S
C957 C953 1.376 . S
C957 C956 1.392 . S
C957 H969 0.929 . S
C958 C954 1.531 . S
C958 H970 0.960 . S
C958 H971 0.962 . S
C958 H972 0.960 . S
C959 C956 1.511 . S
C959 H973 0.961 . S
C959 H974 0.961 . S
C959 H975 0.961 . S
C960 C961 1.370 . S
C960 C962 1.363 . S
C960 H976 0.931 . S
C961 C960 1.370 . S
C961 C965 1.408 . S
C962 C960 1.363 . S
C962 C963 1.370 . S
C962 C966 1.524 . S
C963 C955 1.503 . S
C963 C962 1.370 . S
C963 C964 1.403 . S
C964 C963 1.403 . S
C964 C965 1.404 . S
C964 C967 1.539 . S
C965 C961 1.408 . S
C965 C964 1.404 . S
C965 H977 0.930 . S
C966 C962 1.524 . S
C966 H978 0.956 . S
C966 H979 0.961 . S
C966 H980 0.961 . S
C967 C964 1.539 . S
C967 H981 0.958 . S
C967 H982 0.961 . S
C967 H983 0.960 . S
H968 C952 0.931 . S
H969 C957 0.929 . S
H970 C958 0.960 . S
H971 C958 0.962 . S
H972 C958 0.960 . S
H973 C959 0.961 . S
H974 C959 0.961 . S
H975 C959 0.961 . S
H976 C960 0.931 . S
H977 C965 0.930 . S
H978 C966 0.956 . S
H979 C966 0.961 . S
H980 C966 0.961 . S
H981 C967 0.958 . S
H982 C967 0.961 . S
H983 C967 0.960 . S
C984 C985 1.391 . S
C984 C986 1.394 . S
C984 H1000 0.931 . S
C985 C984 1.391 . S
C985 C989 1.376 . S
C986 C984 1.394 . S
C986 C987 1.369 . S
C986 C990 1.531 . S
C987 C986 1.369 . S
C987 C988 1.410 . S
C987 C995 1.503 . S
C988 C987 1.410 . S
C988 C989 1.392 . S
C988 C991 1.511 . S
C989 C985 1.376 . S
C989 C988 1.392 . S
C989 H1001 0.929 . S
C990 C986 1.531 . S
C990 H1002 0.960 . S
C990 H1003 0.962 . S
C990 H1004 0.960 . S
C991 C988 1.511 . S
C991 H1005 0.961 . S
C991 H1006 0.961 . S
C991 H1007 0.961 . S
C992 C993 1.370 . S
C992 C994 1.363 . S
C992 H1008 0.931 . S
C993 C992 1.370 . S
C993 C997 1.408 . S
C994 C992 1.363 . S
C994 C995 1.370 . S
C994 C998 1.524 . S
C995 C987 1.503 . S
C995 C994 1.370 . S
C995 C996 1.403 . S
C996 C995 1.403 . S
C996 C997 1.404 . S
C996 C999 1.539 . S
C997 C993 1.408 . S
C997 C996 1.404 . S
C997 H1009 0.930 . S
C998 C994 1.524 . S
C998 H1010 0.956 . S
C998 H1011 0.961 . S
C998 H1012 0.961 . S
C999 C996 1.539 . S
C999 H1013 0.958 . S
C999 H1014 0.961 . S
C999 H1015 0.960 . S
H1000 C984 0.931 . S
H1001 C989 0.929 . S
H1002 C990 0.960 . S
H1003 C990 0.962 . S
H1004 C990 0.960 . S
H1005 C991 0.961 . S
H1006 C991 0.961 . S
H1007 C991 0.961 . S
H1008 C992 0.931 . S
H1009 C997 0.930 . S
H1010 C998 0.956 . S
H1011 C998 0.961 . S
H1012 C998 0.961 . S
H1013 C999 0.958 . S
H1014 C999 0.961 . S
H1015 C999 0.960 . S
C1016 C1017 1.391 . S
C1016 C1018 1.394 . S
C1016 H1032 0.931 . S
C1017 C1016 1.391 . S
C1017 C1021 1.376 . S
C1018 C1016 1.394 . S
C1018 C1019 1.369 . S
C1018 C1022 1.531 . S
C1019 C1018 1.369 . S
C1019 C1020 1.410 . S
C1019 C1027 1.503 . S
C1020 C1019 1.410 . S
C1020 C1021 1.392 . S
C1020 C1023 1.511 . S
C1021 C1017 1.376 . S
C1021 C1020 1.392 . S
C1021 H1033 0.929 . S
C1022 C1018 1.531 . S
C1022 H1034 0.960 . S
C1022 H1035 0.962 . S
C1022 H1036 0.960 . S
C1023 C1020 1.511 . S
C1023 H1037 0.961 . S
C1023 H1038 0.961 . S
C1023 H1039 0.961 . S
C1024 C1025 1.370 . S
C1024 C1026 1.363 . S
C1024 H1040 0.931 . S
C1025 C1024 1.370 . S
C1025 C1029 1.408 . S
C1026 C1024 1.363 . S
C1026 C1027 1.370 . S
C1026 C1030 1.524 . S
C1027 C1019 1.503 . S
C1027 C1026 1.370 . S
C1027 C1028 1.403 . S
C1028 C1027 1.403 . S
C1028 C1029 1.404 . S
C1028 C1031 1.539 . S
C1029 C1025 1.408 . S
C1029 C1028 1.404 . S
C1029 H1041 0.930 . S
C1030 C1026 1.524 . S
C1030 H1042 0.956 . S
C1030 H1043 0.961 . S
C1030 H1044 0.961 . S
C1031 C1028 1.539 . S
C1031 H1045 0.958 . S
C1031 H1046 0.961 . S
C1031 H1047 0.960 . S
H1032 C1016 0.931 . S
H1033 C1021 0.929 . S
H1034 C1022 0.960 . S
H1035 C1022 0.962 . S
H1036 C1022 0.960 . S
H1037 C1023 0.961 . S
H1038 C1023 0.961 . S
H1039 C1023 0.961 . S
H1040 C1024 0.931 . S
H1041 C1029 0.930 . S
H1042 C1030 0.956 . S
H1043 C1030 0.961 . S
H1044 C1030 0.961 . S
H1045 C1031 0.958 . S
H1046 C1031 0.961 . S
H1047 C1031 0.960 . S
C1048 C1049 1.391 . S
C1048 C1050 1.394 . S
C1048 H1064 0.931 . S
C1049 C1048 1.391 . S
C1049 C1053 1.376 . S
C1050 C1048 1.394 . S
C1050 C1051 1.369 . S
C1050 C1054 1.531 . S
C1051 C1050 1.369 . S
C1051 C1052 1.410 . S
C1051 C1059 1.503 . S
C1052 C1051 1.410 . S
C1052 C1053 1.392 . S
C1052 C1055 1.511 . S
C1053 C1049 1.376 . S
C1053 C1052 1.392 . S
C1053 H1065 0.929 . S
C1054 C1050 1.531 . S
C1054 H1066 0.960 . S
C1054 H1067 0.962 . S
C1054 H1068 0.960 . S
C1055 C1052 1.511 . S
C1055 H1069 0.961 . S
C1055 H1070 0.961 . S
C1055 H1071 0.961 . S
C1056 C1057 1.370 . S
C1056 C1058 1.363 . S
C1056 H1072 0.931 . S
C1057 C1056 1.370 . S
C1057 C1061 1.408 . S
C1058 C1056 1.363 . S
C1058 C1059 1.370 . S
C1058 C1062 1.524 . S
C1059 C1051 1.503 . S
C1059 C1058 1.370 . S
C1059 C1060 1.403 . S
C1060 C1059 1.403 . S
C1060 C1061 1.404 . S
C1060 C1063 1.539 . S
C1061 C1057 1.408 . S
C1061 C1060 1.404 . S
C1061 H1073 0.930 . S
C1062 C1058 1.524 . S
C1062 H1074 0.956 . S
C1062 H1075 0.961 . S
C1062 H1076 0.961 . S
C1063 C1060 1.539 . S
C1063 H1077 0.958 . S
C1063 H1078 0.961 . S
C1063 H1079 0.960 . S
H1064 C1048 0.931 . S
H1065 C1053 0.929 . S
H1066 C1054 0.960 . S
H1067 C1054 0.962 . S
H1068 C1054 0.960 . S
H1069 C1055 0.961 . S
H1070 C1055 0.961 . S
H1071 C1055 0.961 . S
H1072 C1056 0.931 . S
H1073 C1061 0.930 . S
H1074 C1062 0.956 . S
H1075 C1062 0.961 . S
H1076 C1062 0.961 . S
H1077 C1063 0.958 . S
H1078 C1063 0.961 . S
H1079 C1063 0.960 . S
C1080 C1081 1.391 . S
C1080 C1082 1.394 . S
C1080 H1096 0.931 . S
C1081 C1080 1.391 . S
C1081 C1085 1.376 . S
C1082 C1080 1.394 . S
C1082 C1083 1.369 . S
C1082 C1086 1.531 . S
C1083 C1082 1.369 . S
C1083 C1084 1.410 . S
C1083 C1091 1.503 . S
C1084 C1083 1.410 . S
C1084 C1085 1.392 . S
C1084 C1087 1.511 . S
C1085 C1081 1.376 . S
C1085 C1084 1.392 . S
C1085 H1097 0.929 . S
C1086 C1082 1.531 . S
C1086 H1098 0.960 . S
C1086 H1099 0.962 . S
C1086 H1100 0.960 . S
C1087 C1084 1.511 . S
C1087 H1101 0.961 . S
C1087 H1102 0.961 . S
C1087 H1103 0.961 . S
C1088 C1089 1.370 . S
C1088 C1090 1.363 . S
C1088 H1104 0.931 . S
C1089 C1088 1.370 . S
C1089 C1093 1.408 . S
C1090 C1088 1.363 . S
C1090 C1091 1.370 . S
C1090 C1094 1.524 . S
C1091 C1083 1.503 . S
C1091 C1090 1.370 . S
C1091 C1092 1.403 . S
C1092 C1091 1.403 . S
C1092 C1093 1.404 . S
C1092 C1095 1.539 . S
C1093 C1089 1.408 . S
C1093 C1092 1.404 . S
C1093 H1105 0.930 . S
C1094 C1090 1.524 . S
C1094 H1106 0.956 . S
C1094 H1107 0.961 . S
C1094 H1108 0.961 . S
C1095 C1092 1.539 . S
C1095 H1109 0.958 . S
C1095 H1110 0.961 . S
C1095 H1111 0.960 . S
H1096 C1080 0.931 . S
H1097 C1085 0.929 . S
H1098 C1086 0.960 . S
H1099 C1086 0.962 . S
H1100 C1086 0.960 . S
H1101 C1087 0.961 . S
H1102 C1087 0.961 . S
H1103 C1087 0.961 . S
H1104 C1088 0.931 . S
H1105 C1093 0.930 . S
H1106 C1094 0.956 . S
H1107 C1094 0.961 . S
H1108 C1094 0.961 . S
H1109 C1095 0.958 . S
H1110 C1095 0.961 . S
H1111 C1095 0.960 . S
C1112 C1113 1.391 . S
C1112 C1114 1.394 . S
C1112 H1128 0.931 . S
C1113 C1112 1.391 . S
C1113 C1117 1.376 . S
C1114 C1112 1.394 . S
C1114 C1115 1.369 . S
C1114 C1118 1.531 . S
C1115 C1114 1.369 . S
C1115 C1116 1.410 . S
C1115 C1123 1.503 . S
C1116 C1115 1.410 . S
C1116 C1117 1.392 . S
C1116 C1119 1.511 . S
C1117 C1113 1.376 . S
C1117 C1116 1.392 . S
C1117 H1129 0.929 . S
C1118 C1114 1.531 . S
C1118 H1130 0.960 . S
C1118 H1131 0.962 . S
C1118 H1132 0.960 . S
C1119 C1116 1.511 . S
C1119 H1133 0.961 . S
C1119 H1134 0.961 . S
C1119 H1135 0.961 . S
C1120 C1121 1.370 . S
C1120 C1122 1.363 . S
C1120 H1136 0.931 . S
C1121 C1120 1.370 . S
C1121 C1125 1.408 . S
C1122 C1120 1.363 . S
C1122 C1123 1.370 . S
C1122 C1126 1.524 . S
C1123 C1115 1.503 . S
C1123 C1122 1.370 . S
C1123 C1124 1.403 . S
C1124 C1123 1.403 . S
C1124 C1125 1.404 . S
C1124 C1127 1.539 . S
C1125 C1121 1.408 . S
C1125 C1124 1.404 . S
C1125 H1137 0.930 . S
C1126 C1122 1.524 . S
C1126 H1138 0.956 . S
C1126 H1139 0.961 . S
C1126 H1140 0.961 . S
C1127 C1124 1.539 . S
C1127 H1141 0.958 . S
C1127 H1142 0.961 . S
C1127 H1143 0.960 . S
H1128 C1112 0.931 . S
H1129 C1117 0.929 . S
H1130 C1118 0.960 . S
H1131 C1118 0.962 . S
H1132 C1118 0.960 . S
H1133 C1119 0.961 . S
H1134 C1119 0.961 . S
H1135 C1119 0.961 . S
H1136 C1120 0.931 . S
H1137 C1125 0.930 . S
H1138 C1126 0.956 . S
H1139 C1126 0.961 . S
H1140 C1126 0.961 . S
H1141 C1127 0.958 . S
H1142 C1127 0.961 . S
H1143 C1127 0.960 . S
C1144 C1145 1.391 . S
C1144 C1146 1.394 . S
C1144 H1160 0.931 . S
C1145 C1144 1.391 . S
C1145 C1149 1.376 . S
C1146 C1144 1.394 . S
C1146 C1147 1.369 . S
C1146 C1150 1.531 . S
C1147 C1146 1.369 . S
C1147 C1148 1.410 . S
C1147 C1155 1.503 . S
C1148 C1147 1.410 . S
C1148 C1149 1.392 . S
C1148 C1151 1.511 . S
C1149 C1145 1.376 . S
C1149 C1148 1.392 . S
C1149 H1161 0.929 . S
C1150 C1146 1.531 . S
C1150 H1162 0.960 . S
C1150 H1163 0.962 . S
C1150 H1164 0.960 . S
C1151 C1148 1.511 . S
C1151 H1165 0.961 . S
C1151 H1166 0.961 . S
C1151 H1167 0.961 . S
C1152 C1153 1.370 . S
C1152 C1154 1.363 . S
C1152 H1168 0.931 . S
C1153 C1152 1.370 . S
C1153 C1157 1.408 . S
C1154 C1152 1.363 . S
C1154 C1155 1.370 . S
C1154 C1158 1.524 . S
C1155 C1147 1.503 . S
C1155 C1154 1.370 . S
C1155 C1156 1.403 . S
C1156 C1155 1.403 . S
C1156 C1157 1.404 . S
C1156 C1159 1.539 . S
C1157 C1153 1.408 . S
C1157 C1156 1.404 . S
C1157 H1169 0.930 . S
C1158 C1154 1.524 . S
C1158 H1170 0.956 . S
C1158 H1171 0.961 . S
C1158 H1172 0.961 . S
C1159 C1156 1.539 . S
C1159 H1173 0.958 . S
C1159 H1174 0.961 . S
C1159 H1175 0.960 . S
H1160 C1144 0.931 . S
H1161 C1149 0.929 . S
H1162 C1150 0.960 . S
H1163 C1150 0.962 . S
H1164 C1150 0.960 . S
H1165 C1151 0.961 . S
H1166 C1151 0.961 . S
H1167 C1151 0.961 . S
H1168 C1152 0.931 . S
H1169 C1157 0.930 . S
H1170 C1158 0.956 . S
H1171 C1158 0.961 . S
H1172 C1158 0.961 . S
H1173 C1159 0.958 . S
H1174 C1159 0.961 . S
H1175 C1159 0.960 . S
C409 C15 1.533 . S
C417 C363 1.542 . S
C449 C327 1.578 . S
C441 C55 1.582 . S
C481 C350 1.531 . S
C473 C95 1.508 . S
C513 C338 1.570 . S
C505 C135 1.574 . S
C545 C407 1.540 . S
C537 C175 1.536 . S
C577 C371 1.580 . S
C569 C215 1.588 . S
C601 C255 1.506 . S
C609 C394 1.532 . S
C641 C382 1.577 . S
C633 C295 1.566 . S
C665 C2 1.507 . S
C673 C404 1.519 . S
C705 C374 1.591 . S
C697 C61 1.528 . S
C729 C82 1.476 . S
C737 C393 1.550 . S
C761 C141 1.596 . S
C769 C379 1.626 . S
C801 C360 1.518 . S
C793 C162 1.484 1_545 S
C825 C221 1.544 1_565 S
C833 C330 1.593 . S
C865 C349 1.552 . S
C857 C242 1.467 1_545 S
C897 C335 1.623 . S
C889 C301 1.612 . S
C929 C385 1.560 . S
C921 C21 1.538 . S
C961 C401 1.561 . S
C953 C42 1.539 . S
C985 C101 1.427 . S
C993 C372 1.536 . S
C1025 C396 1.529 . S
C1017 C122 1.521 . S
C1057 C341 1.565 . S
C1049 C181 1.552 . S
C1081 C202 1.496 . S
C1089 C357 1.562 . S
C1113 C261 1.431 . S
C1121 C328 1.535 . S
C1145 C282 1.523 . S
C1153 C352 1.529 . S
