# Generated by pormake.
# Topology ocu, (6,8)-cn, num edge types: 1
# Building blocks:
#     Node 0, Type 0, BuildingBlock: KUMBUR_clean_sbu_1, # of connection points: 6
#     Node 1, Type 0, BuildingBlock: KUMBUR_clean_sbu_1, # of connection points: 6
#     Node 2, Type 0, BuildingBlock: KUMBUR_clean_sbu_1, # of connection points: 6
#     Node 3, Type 0, BuildingBlock: KUMBUR_clean_sbu_1, # of connection points: 6
#     Node 4, Type 0, BuildingBlock: KUMBUR_clean_sbu_1, # of connection points: 6
#     Node 5, Type 0, BuildingBlock: KUMBUR_clean_sbu_1, # of connection points: 6
#     Node 6, Type 0, BuildingBlock: KUMBUR_clean_sbu_1, # of connection points: 6
#     Node 7, Type 0, BuildingBlock: KUMBUR_clean_sbu_1, # of connection points: 6
#     Node 8, Type 1, BuildingBlock: AJUNOK_clean_sbu_0, # of connection points: 8
#     Node 9, Type 1, BuildingBlock: AJUNOK_clean_sbu_0, # of connection points: 8
#     Node 10, Type 1, BuildingBlock: AJUNOK_clean_sbu_0, # of connection points: 8
#     Node 11, Type 1, BuildingBlock: AJUNOK_clean_sbu_0, # of connection points: 8
#     Node 12, Type 1, BuildingBlock: AJUNOK_clean_sbu_0, # of connection points: 8
#     Node 13, Type 1, BuildingBlock: AJUNOK_clean_sbu_0, # of connection points: 8
#     Edge 14, Type (0, 1), BuildingBlock: XUDNAN_clean_linker_2, # of connection points: 2
#     Edge 15, Type (0, 1), BuildingBlock: XUDNAN_clean_linker_2, # of connection points: 2
#     Edge 16, Type (0, 1), BuildingBlock: XUDNAN_clean_linker_2, # of connection points: 2
#     Edge 17, Type (0, 1), BuildingBlock: XUDNAN_clean_linker_2, # of connection points: 2
#     Edge 18, Type (0, 1), BuildingBlock: XUDNAN_clean_linker_2, # of connection points: 2
#     Edge 19, Type (0, 1), BuildingBlock: XUDNAN_clean_linker_2, # of connection points: 2
#     Edge 20, Type (0, 1), BuildingBlock: XUDNAN_clean_linker_2, # of connection points: 2
#     Edge 21, Type (0, 1), BuildingBlock: XUDNAN_clean_linker_2, # of connection points: 2
#     Edge 22, Type (0, 1), BuildingBlock: XUDNAN_clean_linker_2, # of connection points: 2
#     Edge 23, Type (0, 1), BuildingBlock: XUDNAN_clean_linker_2, # of connection points: 2
#     Edge 24, Type (0, 1), BuildingBlock: XUDNAN_clean_linker_2, # of connection points: 2
#     Edge 25, Type (0, 1), BuildingBlock: XUDNAN_clean_linker_2, # of connection points: 2
#     Edge 26, Type (0, 1), BuildingBlock: XUDNAN_clean_linker_2, # of connection points: 2
#     Edge 27, Type (0, 1), BuildingBlock: XUDNAN_clean_linker_2, # of connection points: 2
#     Edge 28, Type (0, 1), BuildingBlock: XUDNAN_clean_linker_2, # of connection points: 2
#     Edge 29, Type (0, 1), BuildingBlock: XUDNAN_clean_linker_2, # of connection points: 2
#     Edge 30, Type (0, 1), BuildingBlock: XUDNAN_clean_linker_2, # of connection points: 2
#     Edge 31, Type (0, 1), BuildingBlock: XUDNAN_clean_linker_2, # of connection points: 2
#     Edge 32, Type (0, 1), BuildingBlock: XUDNAN_clean_linker_2, # of connection points: 2
#     Edge 33, Type (0, 1), BuildingBlock: XUDNAN_clean_linker_2, # of connection points: 2
#     Edge 34, Type (0, 1), BuildingBlock: XUDNAN_clean_linker_2, # of connection points: 2
#     Edge 35, Type (0, 1), BuildingBlock: XUDNAN_clean_linker_2, # of connection points: 2
#     Edge 36, Type (0, 1), BuildingBlock: XUDNAN_clean_linker_2, # of connection points: 2
#     Edge 37, Type (0, 1), BuildingBlock: XUDNAN_clean_linker_2, # of connection points: 2
#     Edge 38, Type (0, 1), BuildingBlock: XUDNAN_clean_linker_2, # of connection points: 2
#     Edge 39, Type (0, 1), BuildingBlock: XUDNAN_clean_linker_2, # of connection points: 2
#     Edge 40, Type (0, 1), BuildingBlock: XUDNAN_clean_linker_2, # of connection points: 2
#     Edge 41, Type (0, 1), BuildingBlock: XUDNAN_clean_linker_2, # of connection points: 2
#     Edge 42, Type (0, 1), BuildingBlock: XUDNAN_clean_linker_2, # of connection points: 2
#     Edge 43, Type (0, 1), BuildingBlock: XUDNAN_clean_linker_2, # of connection points: 2
#     Edge 44, Type (0, 1), BuildingBlock: XUDNAN_clean_linker_2, # of connection points: 2
#     Edge 45, Type (0, 1), BuildingBlock: XUDNAN_clean_linker_2, # of connection points: 2
#     Edge 46, Type (0, 1), BuildingBlock: XUDNAN_clean_linker_2, # of connection points: 2
#     Edge 47, Type (0, 1), BuildingBlock: XUDNAN_clean_linker_2, # of connection points: 2
#     Edge 48, Type (0, 1), BuildingBlock: XUDNAN_clean_linker_2, # of connection points: 2
#     Edge 49, Type (0, 1), BuildingBlock: XUDNAN_clean_linker_2, # of connection points: 2
#     Edge 50, Type (0, 1), BuildingBlock: XUDNAN_clean_linker_2, # of connection points: 2
#     Edge 51, Type (0, 1), BuildingBlock: XUDNAN_clean_linker_2, # of connection points: 2
#     Edge 52, Type (0, 1), BuildingBlock: XUDNAN_clean_linker_2, # of connection points: 2
#     Edge 53, Type (0, 1), BuildingBlock: XUDNAN_clean_linker_2, # of connection points: 2
#     Edge 54, Type (0, 1), BuildingBlock: XUDNAN_clean_linker_2, # of connection points: 2
#     Edge 55, Type (0, 1), BuildingBlock: XUDNAN_clean_linker_2, # of connection points: 2
#     Edge 56, Type (0, 1), BuildingBlock: XUDNAN_clean_linker_2, # of connection points: 2
#     Edge 57, Type (0, 1), BuildingBlock: XUDNAN_clean_linker_2, # of connection points: 2
#     Edge 58, Type (0, 1), BuildingBlock: XUDNAN_clean_linker_2, # of connection points: 2
#     Edge 59, Type (0, 1), BuildingBlock: XUDNAN_clean_linker_2, # of connection points: 2
#     Edge 60, Type (0, 1), BuildingBlock: XUDNAN_clean_linker_2, # of connection points: 2
#     Edge 61, Type (0, 1), BuildingBlock: XUDNAN_clean_linker_2, # of connection points: 2
# Relax obj value: 0.131
# Max RMSD: 0.182
# Mean RMSD: 0.157
data_MOF--net-ocu--node1-KUMBUR_clean_sbu_1--node2-AJUNOK_clean_sbu_0--edge1-XUDNAN_clean_linker_2
_symmetry_space_group_name_H-M    P1
_symmetry_Int_Tables_number       1
_symmetry_cell_setting            triclinic
loop_
_symmetry_equiv_pos_as_xyz
'x, y, z'
_cell_length_a     44.058967
_cell_length_b     44.677347
_cell_length_c     39.172758
_cell_angle_alpha  104.22773
_cell_angle_beta   87.892636
_cell_angle_gamma 113.19285
loop_
_atom_site_label
_atom_site_type_symbol
_atom_site_fract_x
_atom_site_fract_y
_atom_site_fract_z
_atom_type_partial_charge
Tb0 Tb 0.23373 0.23794 0.2055 0.0
C1 C 0.33129 0.33453 0.33627 0.0
N2 N 0.33888 0.31755 0.30555 0.0
C3 C 0.38817 0.3663 0.30478 0.0
C4 C 0.35155 0.36843 0.35196 0.0
C5 C 0.36762 0.33253 0.29048 0.0
C6 C 0.37992 0.38444 0.33541 0.0
C7 C 0.29629 0.33341 0.3858 0.0
C8 C 0.30391 0.31732 0.35303 0.0
C9 C 0.31588 0.36746 0.40099 0.0
C10 C 0.34337 0.38495 0.38406 0.0
Tb11 Tb 0.30255 0.26279 0.28559 0.0
N12 N 0.28488 0.28456 0.33716 0.0
C13 C 0.26966 0.3145 0.40263 0.0
C14 C 0.26051 0.26543 0.35449 0.0
C15 C 0.25209 0.28023 0.38721 0.0
H16 H 0.3752 0.31847 0.26775 0.0
H17 H 0.2325 0.26517 0.40083 0.0
H18 H 0.15999 0.18578 0.22531 0.0
H19 H 0.30243 0.22867 0.08995 0.0
H20 H 0.24824 0.23875 0.34341 0.0
H21 H 0.26315 0.32584 0.42802 0.0
H22 H 0.28726 0.25795 0.14627 0.0
H23 H 0.41063 0.37818 0.29246 0.0
H24 H 0.31032 0.38035 0.4261 0.0
H25 H 0.35858 0.41105 0.39642 0.0
H26 H 0.12257 0.12632 0.20266 0.0
H27 H 0.39612 0.41049 0.34661 0.0
H28 H 0.27001 0.1678 0.06507 0.0
N29 N 0.19568 0.18372 0.18744 0.0
C30 C 0.20251 0.16517 0.15734 0.0
C31 C 0.14516 0.13685 0.18992 0.0
C32 C 0.18115 0.13139 0.14282 0.0
C33 C 0.16679 0.17046 0.20304 0.0
C34 C 0.15253 0.11713 0.15992 0.0
N35 N 0.24998 0.21354 0.15444 0.0
C36 C 0.27451 0.23122 0.13622 0.0
C37 C 0.237 0.16307 0.10764 0.0
C38 C 0.23012 0.18073 0.1399 0.0
C39 C 0.26396 0.18042 0.09004 0.0
C40 C 0.28245 0.21479 0.10411 0.0
H41 H 0.13549 0.09123 0.14961 0.0
H42 H 0.17244 0.08725 0.09973 0.0
H43 H 0.22124 0.115 0.06892 0.0
O44 O 0.23298 0.27724 0.18457 0.0
O45 O 0.26645 0.20981 0.20109 0.0
O46 O 0.31677 0.23965 0.23481 0.0
O47 O 0.19269 0.22895 0.17324 0.0
O48 O 0.27663 0.28592 0.22025 0.0
O49 O 0.32238 0.2805 0.23918 0.0
O50 O 0.30459 0.22326 0.30549 0.0
O51 O 0.26894 0.29025 0.29106 0.0
O52 O 0.21936 0.26206 0.25577 0.0
O53 O 0.344 0.27213 0.31737 0.0
O54 O 0.2595 0.21483 0.27114 0.0
O55 O 0.21438 0.22157 0.25237 0.0
C56 C 0.2972 0.21459 0.20934 0.0
C57 C 0.17846 0.27461 0.17691 0.0
C58 C 0.14762 0.30428 0.15942 0.0
C59 C 0.12563 0.29512 0.18569 0.0
C60 C 0.15688 0.26723 0.2038 0.0
C61 C 0.13038 0.27698 0.20768 0.0
C62 C 0.17387 0.2933 0.1547 0.0
C63 C 0.30805 0.29152 0.21925 0.0
C64 C 0.20313 0.25949 0.16996 0.0
C65 C 0.18851 0.11329 0.11122 0.0
C66 C 0.21631 0.1291 0.09364 0.0
C67 C 0.23865 0.28656 0.28198 0.0
C68 C 0.35946 0.22748 0.31754 0.0
C69 C 0.38764 0.19776 0.33998 0.0
C70 C 0.41409 0.21013 0.31917 0.0
C71 C 0.38588 0.23851 0.2962 0.0
C72 C 0.36012 0.20642 0.33899 0.0
C73 C 0.41301 0.23001 0.29722 0.0
C74 C 0.22823 0.20992 0.27198 0.0
C75 C 0.33394 0.24175 0.32108 0.0
H76 H 0.10438 0.30177 0.18915 0.0
H77 H 0.15975 0.25273 0.22099 0.0
H78 H 0.11304 0.26994 0.22743 0.0
H79 H 0.19053 0.29915 0.13399 0.0
H80 H 0.43537 0.2037 0.31927 0.0
H81 H 0.38605 0.25465 0.27951 0.0
H82 H 0.33989 0.19765 0.35552 0.0
H83 H 0.43345 0.23912 0.2811 0.0
Tb84 Tb 0.73078 0.27725 0.25543 0.0
C85 C 0.83796 0.21092 0.17439 0.0
N86 N 0.8062 0.19806 0.18369 0.0
C87 C 0.79011 0.15859 0.12689 0.0
C88 C 0.84674 0.19891 0.14038 0.0
C89 C 0.78257 0.17143 0.16088 0.0
C90 C 0.82226 0.17257 0.11646 0.0
C91 C 0.89435 0.25228 0.18978 0.0
C92 C 0.8616 0.23702 0.19887 0.0
C93 C 0.90325 0.24035 0.15592 0.0
C94 C 0.87952 0.21371 0.13132 0.0
Tb95 Tb 0.79749 0.22149 0.24001 0.0
N96 N 0.85161 0.2491 0.23072 0.0
C97 C 0.91689 0.27959 0.21474 0.0
C98 C 0.87347 0.27538 0.25536 0.0
C99 C 0.90642 0.29111 0.24768 0.0
H100 H 0.75805 0.15927 0.16886 0.0
H101 H 0.92371 0.31221 0.26708 0.0
H102 H 0.77285 0.34416 0.32045 0.0
H103 H 0.6038 0.18772 0.23874 0.0
H104 H 0.86547 0.28438 0.28078 0.0
H105 H 0.94232 0.29209 0.20877 0.0
H106 H 0.66039 0.21426 0.22016 0.0
H107 H 0.77117 0.1377 0.10886 0.0
H108 H 0.92832 0.25177 0.14837 0.0
H109 H 0.88671 0.20491 0.10526 0.0
H110 H 0.76414 0.36902 0.38153 0.0
H111 H 0.82799 0.16261 0.09006 0.0
H112 H 0.58941 0.20997 0.29861 0.0
N113 N 0.72553 0.30365 0.31175 0.0
C114 C 0.69486 0.29123 0.3239 0.0
C115 C 0.74459 0.34678 0.36582 0.0
C116 C 0.68832 0.30515 0.35827 0.0
C117 C 0.7498 0.33208 0.33148 0.0
C118 C 0.71384 0.33299 0.37947 0.0
N119 N 0.67776 0.25072 0.26924 0.0
C120 C 0.65432 0.22413 0.2463 0.0
C121 C 0.63814 0.2498 0.31351 0.0
C122 C 0.66993 0.26425 0.30171 0.0
C123 C 0.61417 0.22187 0.29053 0.0
C124 C 0.62225 0.20914 0.25673 0.0
H125 H 0.70985 0.34447 0.40606 0.0
H126 H 0.6511 0.30119 0.39663 0.0
H127 H 0.60729 0.25253 0.35758 0.0
O128 O 0.70675 0.28556 0.21512 0.0
O129 O 0.71389 0.23857 0.28567 0.0
O130 O 0.75506 0.22793 0.26371 0.0
O131 O 0.7369 0.3265 0.25741 0.0
O132 O 0.72061 0.23475 0.20771 0.0
O133 O 0.74693 0.19874 0.21538 0.0
O134 O 0.81899 0.21086 0.28046 0.0
O135 O 0.81473 0.26016 0.21004 0.0
O136 O 0.77212 0.26924 0.23007 0.0
O137 O 0.7885 0.17102 0.23585 0.0
O138 O 0.80372 0.26092 0.28943 0.0
O139 O 0.78255 0.29864 0.27791 0.0
C140 C 0.73057 0.22006 0.28401 0.0
C141 C 0.73061 0.33979 0.20401 0.0
C142 C 0.71812 0.36441 0.16036 0.0
C143 C 0.75186 0.38515 0.16121 0.0
C144 C 0.76334 0.36364 0.20756 0.0
C145 C 0.77435 0.3849 0.18498 0.0
C146 C 0.70782 0.3404 0.18033 0.0
C147 C 0.72498 0.20591 0.20007 0.0
C148 C 0.71869 0.31793 0.22847 0.0
C149 C 0.65657 0.29097 0.37021 0.0
C150 C 0.63157 0.26333 0.34792 0.0
C151 C 0.79754 0.27802 0.21106 0.0
C152 C 0.8098 0.15313 0.2796 0.0
C153 C 0.8382 0.13807 0.32013 0.0
C154 C 0.81875 0.10388 0.30545 0.0
C155 C 0.7902 0.11887 0.26529 0.0
C156 C 0.83345 0.16265 0.30745 0.0
C157 C 0.79464 0.09439 0.27832 0.0
C158 C 0.79689 0.28826 0.2992 0.0
C159 C 0.80564 0.17876 0.26535 0.0
H160 H 0.76022 0.40367 0.14579 0.0
H161 H 0.77981 0.36713 0.22909 0.0
H162 H 0.79983 0.40281 0.18756 0.0
H163 H 0.68174 0.32458 0.18001 0.0
H164 H 0.82227 0.0846 0.31501 0.0
H165 H 0.77151 0.11099 0.24404 0.0
H166 H 0.84884 0.18901 0.31856 0.0
H167 H 0.77957 0.06802 0.26717 0.0
Tb168 Tb 0.75973 0.71901 0.28263 0.0
C169 C 0.83048 0.80442 0.17029 0.0
N170 N 0.82004 0.81436 0.20257 0.0
C171 C 0.87165 0.86272 0.2171 0.0
C172 C 0.86251 0.82234 0.16079 0.0
C173 C 0.83951 0.84429 0.22511 0.0
C174 C 0.88347 0.85134 0.18511 0.0
C175 C 0.81691 0.76756 0.11117 0.0
C176 C 0.80814 0.77747 0.14581 0.0
C177 C 0.84932 0.78416 0.10213 0.0
C178 C 0.87212 0.81147 0.12694 0.0
Tb179 Tb 0.76751 0.78041 0.21315 0.0
N180 N 0.77733 0.76153 0.15584 0.0
C181 C 0.79259 0.74186 0.08653 0.0
C182 C 0.75305 0.73786 0.13146 0.0
C183 C 0.76032 0.72739 0.09658 0.0
H184 H 0.83039 0.85458 0.24915 0.0
H185 H 0.74106 0.70819 0.07752 0.0
H186 H 0.70309 0.64111 0.24626 0.0
H187 H 0.77172 0.80513 0.40993 0.0
H188 H 0.72802 0.72746 0.13876 0.0
H189 H 0.79826 0.73358 0.05959 0.0
H190 H 0.78992 0.78492 0.35178 0.0
H191 H 0.88711 0.88599 0.23543 0.0
H192 H 0.85675 0.77663 0.07582 0.0
H193 H 0.89678 0.82466 0.11935 0.0
H194 H 0.648 0.60474 0.26 0.0
H195 H 0.90826 0.86585 0.17886 0.0
H196 H 0.71655 0.77194 0.42753 0.0
N197 N 0.70904 0.68147 0.29159 0.0
C198 C 0.69667 0.69151 0.32267 0.0
C199 C 0.66129 0.62923 0.27765 0.0
C200 C 0.6656 0.67092 0.332 0.0
C201 C 0.69239 0.65026 0.26969 0.0
C202 C 0.64768 0.63973 0.30873 0.0
N203 N 0.74535 0.74171 0.33601 0.0
C204 C 0.76574 0.77071 0.35884 0.0
C205 C 0.70405 0.73274 0.37877 0.0
C206 C 0.71558 0.72221 0.34582 0.0
C207 C 0.7244 0.76312 0.40185 0.0
C208 C 0.75551 0.782 0.39196 0.0
H209 H 0.62369 0.62324 0.3149 0.0
H210 H 0.6298 0.66632 0.37193 0.0
H211 H 0.66354 0.72026 0.41294 0.0
O212 O 0.79824 0.72577 0.31756 0.0
O213 O 0.72946 0.74998 0.28975 0.0
O214 O 0.75411 0.79734 0.26722 0.0
O215 O 0.76375 0.67591 0.29118 0.0
O216 O 0.80316 0.75903 0.271 0.0
O217 O 0.79626 0.80458 0.26402 0.0
O218 O 0.72527 0.77842 0.18637 0.0
O219 O 0.78926 0.74178 0.19544 0.0
O220 O 0.78471 0.70766 0.23452 0.0
O221 O 0.76592 0.8253 0.20848 0.0
O222 O 0.72454 0.73605 0.21943 0.0
O223 O 0.73425 0.6928 0.23118 0.0
C224 C 0.73299 0.78028 0.28726 0.0
C225 C 0.79335 0.68145 0.3434 0.0
C226 C 0.82032 0.65448 0.37171 0.0
C227 C 0.80221 0.65868 0.40146 0.0
C228 C 0.77512 0.68507 0.37306 0.0
C229 C 0.77961 0.67371 0.40197 0.0
C230 C 0.81576 0.66605 0.34278 0.0
C231 C 0.80951 0.79086 0.28172 0.0
C232 C 0.79001 0.69357 0.31268 0.0
C233 C 0.65367 0.68177 0.36443 0.0
C234 C 0.67289 0.71251 0.3878 0.0
C235 C 0.79482 0.71776 0.20539 0.0
C236 C 0.73529 0.82445 0.15987 0.0
C237 C 0.70354 0.84549 0.12858 0.0
C238 C 0.73316 0.86357 0.11453 0.0
C239 C 0.76393 0.84178 0.1443 0.0
C240 C 0.70504 0.82539 0.15091 0.0
C241 C 0.76275 0.86112 0.12177 0.0
C242 C 0.72245 0.70497 0.21012 0.0
C243 C 0.73774 0.81083 0.19007 0.0
H244 H 0.80487 0.64951 0.42387 0.0
H245 H 0.75757 0.69663 0.37388 0.0
H246 H 0.76537 0.67636 0.42479 0.0
H247 H 0.82972 0.66305 0.31971 0.0
H248 H 0.7341 0.8806 0.09874 0.0
H249 H 0.78757 0.84168 0.15082 0.0
H250 H 0.6831 0.81131 0.1626 0.0
H251 H 0.78522 0.87537 0.1109 0.0
Tb252 Tb 0.23504 0.77163 0.23447 0.0
C253 C 0.28767 0.69282 0.31524 0.0
N254 N 0.30499 0.72338 0.30886 0.0
C255 C 0.33321 0.74335 0.3663 0.0
C256 C 0.2904 0.68715 0.34858 0.0
C257 C 0.32945 0.74771 0.33276 0.0
C258 C 0.31296 0.71325 0.37457 0.0
C259 C 0.25214 0.63387 0.29233 0.0
C260 C 0.26945 0.66636 0.28732 0.0
C261 C 0.25237 0.62874 0.32628 0.0
C262 C 0.2717 0.65527 0.35431 0.0
Tb263 Tb 0.29396 0.72741 0.25414 0.0
N264 N 0.27051 0.67214 0.25478 0.0
C265 C 0.23612 0.6074 0.26285 0.0
C266 C 0.25709 0.64608 0.22561 0.0
C267 C 0.23913 0.61344 0.22927 0.0
H268 H 0.34527 0.77083 0.32622 0.0
H269 H 0.22776 0.59295 0.20619 0.0
H270 H 0.18654 0.72353 0.16287 0.0
H271 H 0.31453 0.90628 0.27101 0.0
H272 H 0.25987 0.65036 0.19956 0.0
H273 H 0.2224 0.58207 0.26558 0.0
H274 H 0.28369 0.8524 0.28359 0.0
H275 H 0.35173 0.76315 0.38568 0.0
H276 H 0.23878 0.60407 0.33083 0.0
H277 H 0.27288 0.65058 0.37998 0.0
H278 H 0.17433 0.72909 0.10454 0.0
H279 H 0.31598 0.70988 0.4005 0.0
H280 H 0.30812 0.91474 0.21227 0.0
N281 N 0.22322 0.77354 0.17933 0.0
C282 C 0.23765 0.8041 0.17203 0.0
C283 C 0.19247 0.75028 0.12309 0.0
C284 C 0.23054 0.80863 0.1393 0.0
C285 C 0.19992 0.74709 0.15604 0.0
C286 C 0.20806 0.78111 0.11455 0.0
N287 N 0.2634 0.82646 0.23017 0.0
C288 C 0.28205 0.85371 0.2567 0.0
C289 C 0.27419 0.86314 0.1908 0.0
C290 C 0.25886 0.83116 0.19787 0.0
C291 C 0.29543 0.88999 0.21697 0.0
C292 C 0.29917 0.88528 0.2501 0.0
H293 H 0.20196 0.78362 0.08913 0.0
H294 H 0.24009 0.84453 0.10768 0.0
H295 H 0.27851 0.89215 0.1526 0.0
O296 O 0.20696 0.8006 0.24824 0.0
O297 O 0.2716 0.77039 0.19573 0.0
O298 O 0.30869 0.77399 0.23615 0.0
O299 O 0.18334 0.74637 0.23326 0.0
O300 O 0.27279 0.79827 0.27947 0.0
O301 O 0.28598 0.76091 0.30096 0.0
O302 O 0.32681 0.7036 0.24072 0.0
O303 O 0.24023 0.7029 0.25487 0.0
O304 O 0.22569 0.74708 0.27839 0.0
O305 O 0.34394 0.75749 0.25036 0.0
O306 O 0.27176 0.70865 0.19967 0.0
O307 O 0.22403 0.71991 0.20389 0.0
C308 C 0.30216 0.77705 0.20497 0.0
C309 C 0.1581 0.77502 0.27482 0.0
C310 C 0.15095 0.80222 0.33461 0.0
C311 C 0.11635 0.78438 0.32791 0.0
C312 C 0.12382 0.75738 0.26863 0.0
C313 C 0.10306 0.76155 0.29542 0.0
C314 C 0.17159 0.7957 0.30833 0.0
C315 C 0.28714 0.79109 0.30364 0.0
C316 C 0.17931 0.77428 0.24536 0.0
C317 C 0.24534 0.84054 0.13262 0.0
C318 C 0.2672 0.86767 0.15823 0.0
C319 C 0.22284 0.7162 0.27631 0.0
C320 C 0.36377 0.72986 0.2022 0.0
C321 C 0.35803 0.69836 0.14114 0.0
C322 C 0.39037 0.72042 0.13663 0.0
C323 C 0.39583 0.75168 0.1977 0.0
C324 C 0.34417 0.70554 0.1731 0.0
C325 C 0.4087 0.74752 0.16455 0.0
C326 C 0.24274 0.70489 0.187 0.0
C327 C 0.35055 0.73127 0.23707 0.0
H328 H 0.09923 0.78905 0.34686 0.0
H329 H 0.11312 0.74112 0.24285 0.0
H330 H 0.0765 0.74833 0.29044 0.0
H331 H 0.19823 0.80825 0.31311 0.0
H332 H 0.40243 0.71578 0.11252 0.0
H333 H 0.41095 0.77139 0.21979 0.0
H334 H 0.31881 0.6899 0.17628 0.0
H335 H 0.43363 0.76408 0.16105 0.0
Tb336 Tb 0.23643 0.77431 0.7543 0.0
C337 C 0.33247 0.72698 0.67208 0.0
N338 N 0.30229 0.70836 0.6818 0.0
C339 C 0.28756 0.67448 0.62215 0.0
C340 C 0.34061 0.7213 0.63658 0.0
C341 C 0.28086 0.68103 0.65775 0.0
C342 C 0.31733 0.69512 0.61137 0.0
C343 C 0.38744 0.77077 0.68945 0.0
C344 C 0.35582 0.75097 0.69811 0.0
C345 C 0.3953 0.76599 0.65398 0.0
C346 C 0.37197 0.74124 0.62761 0.0
Tb347 Tb 0.29434 0.72174 0.74092 0.0
N348 N 0.34698 0.75548 0.73205 0.0
C349 C 0.41015 0.79468 0.71676 0.0
C350 C 0.3695 0.77756 0.75899 0.0
C351 C 0.40122 0.79788 0.7517 0.0
H352 H 0.25949 0.66318 0.66614 0.0
H353 H 0.41879 0.81592 0.77301 0.0
H354 H 0.27268 0.8384 0.82352 0.0
H355 H 0.11134 0.67789 0.72828 0.0
H356 H 0.36285 0.77982 0.78602 0.0
H357 H 0.43472 0.81048 0.71121 0.0
H358 H 0.16622 0.7112 0.7119 0.0
H359 H 0.27012 0.65299 0.60324 0.0
H360 H 0.41945 0.78104 0.6467 0.0
H361 H 0.37859 0.73741 0.60044 0.0
H362 H 0.2599 0.85805 0.88449 0.0
H363 H 0.32265 0.68979 0.58384 0.0
H364 H 0.09523 0.69198 0.78936 0.0
N365 N 0.22721 0.79517 0.81099 0.0
C366 C 0.19665 0.77896 0.82146 0.0
C367 C 0.24203 0.83552 0.8672 0.0
C368 C 0.1881 0.78958 0.856 0.0
C369 C 0.24939 0.82395 0.83272 0.0
C370 C 0.21139 0.81806 0.87905 0.0
N371 N 0.18307 0.74235 0.76397 0.0
C372 C 0.16054 0.71696 0.73902 0.0
C373 C 0.14225 0.73362 0.80754 0.0
C374 C 0.17399 0.75144 0.79734 0.0
C375 C 0.11982 0.70641 0.78254 0.0
C376 C 0.12889 0.69829 0.74807 0.0
H377 H 0.20574 0.82709 0.90579 0.0
H378 H 0.14962 0.77936 0.89278 0.0
H379 H 0.10955 0.73024 0.85048 0.0
O380 O 0.20394 0.79349 0.73927 0.0
O381 O 0.23605 0.74625 0.79308 0.0
O382 O 0.24549 0.70009 0.76192 0.0
O383 O 0.25522 0.82552 0.75507 0.0
O384 O 0.22416 0.73353 0.70541 0.0
O385 O 0.24343 0.69569 0.71846 0.0
O386 O 0.31659 0.70865 0.77912 0.0
O387 O 0.31018 0.77063 0.72889 0.0
O388 O 0.26327 0.76963 0.70621 0.0
O389 O 0.30302 0.67797 0.72492 0.0
O390 O 0.30005 0.7558 0.79307 0.0
O391 O 0.28654 0.79704 0.77948 0.0
C392 C 0.23249 0.71495 0.788 0.0
C393 C 0.22885 0.83801 0.71216 0.0
C394 C 0.20093 0.85482 0.67312 0.0
C395 C 0.22977 0.8659 0.65515 0.0
C396 C 0.25793 0.84994 0.69462 0.0
C397 C 0.25833 0.86358 0.66609 0.0
C398 C 0.20048 0.84089 0.70144 0.0
C399 C 0.22458 0.70327 0.69969 0.0
C400 C 0.22737 0.82317 0.74206 0.0
C401 C 0.15662 0.77167 0.8663 0.0
C402 C 0.13381 0.7437 0.84218 0.0
C403 C 0.29547 0.77922 0.70697 0.0
C404 C 0.32755 0.65734 0.7626 0.0
C405 C 0.35032 0.63651 0.80263 0.0
C406 C 0.34844 0.60906 0.77457 0.0
C407 C 0.3255 0.62954 0.73504 0.0
C408 C 0.34012 0.66086 0.79641 0.0
C409 C 0.336 0.60561 0.74106 0.0
C410 C 0.29977 0.78607 0.80079 0.0
C411 C 0.3156 0.6818 0.75584 0.0
H412 H 0.23036 0.87709 0.6334 0.0
H413 H 0.28033 0.84912 0.70309 0.0
H414 H 0.28088 0.87274 0.6528 0.0
H415 H 0.17806 0.83254 0.71527 0.0
H416 H 0.3568 0.59028 0.77847 0.0
H417 H 0.31572 0.62617 0.70876 0.0
H418 H 0.3413 0.68197 0.8179 0.0
H419 H 0.33447 0.58432 0.7197 0.0
Tb420 Tb 0.25525 0.21971 0.78772 0.0
C421 C 0.33297 0.30349 0.67217 0.0
N422 N 0.31974 0.31453 0.70217 0.0
C423 C 0.36873 0.36577 0.71685 0.0
C424 C 0.36525 0.32265 0.66422 0.0
C425 C 0.33639 0.34627 0.72322 0.0
C426 C 0.38347 0.35365 0.68759 0.0
C427 C 0.32505 0.26336 0.61523 0.0
C428 C 0.31321 0.27412 0.64791 0.0
C429 C 0.35773 0.28147 0.60808 0.0
C430 C 0.37781 0.31099 0.63255 0.0
Tb431 Tb 0.26741 0.27822 0.70975 0.0
N432 N 0.28172 0.25699 0.65563 0.0
C433 C 0.30327 0.23547 0.59021 0.0
C434 C 0.25969 0.23165 0.6303 0.0
C435 C 0.27024 0.22 0.59752 0.0
H436 H 0.32491 0.35692 0.745 0.0
H437 H 0.2528 0.19948 0.57774 0.0
H438 H 0.19394 0.14342 0.75064 0.0
H439 H 0.27528 0.29222 0.92283 0.0
H440 H 0.2339 0.22096 0.63505 0.0
H441 H 0.31134 0.22658 0.56469 0.0
H442 H 0.29192 0.27129 0.86384 0.0
H443 H 0.38209 0.3904 0.73422 0.0
H444 H 0.36739 0.2734 0.58326 0.0
H445 H 0.40265 0.32524 0.62619 0.0
H446 H 0.13633 0.11236 0.76173 0.0
H447 H 0.40836 0.36906 0.68246 0.0
H448 H 0.21648 0.26855 0.93643 0.0
N449 N 0.20182 0.18543 0.79502 0.0
C450 C 0.18975 0.19629 0.82598 0.0
C451 C 0.15087 0.13629 0.77967 0.0
C452 C 0.15712 0.17839 0.83406 0.0
C453 C 0.18354 0.15457 0.7731 0.0
C454 C 0.13735 0.1486 0.80989 0.0
N455 N 0.24285 0.23928 0.84332 0.0
C456 C 0.26613 0.26213 0.86909 0.0
C457 C 0.20041 0.23417 0.88465 0.0
C458 C 0.21106 0.22381 0.85111 0.0
C459 C 0.22364 0.25994 0.9103 0.0
C460 C 0.25682 0.27345 0.9027 0.0
H461 H 0.11218 0.1341 0.81513 0.0
H462 H 0.12067 0.17661 0.8731 0.0
H463 H 0.15862 0.22552 0.91738 0.0
O464 O 0.29693 0.22419 0.81715 0.0
O465 O 0.23735 0.26184 0.80346 0.0
O466 O 0.24449 0.29091 0.75883 0.0
O467 O 0.25704 0.17605 0.79655 0.0
O468 O 0.29693 0.25985 0.77307 0.0
O469 O 0.29571 0.30572 0.7602 0.0
O470 O 0.22593 0.27111 0.67852 0.0
O471 O 0.2881 0.23824 0.69691 0.0
O472 O 0.27879 0.20654 0.73947 0.0
O473 O 0.26345 0.32063 0.69951 0.0
O474 O 0.22626 0.23947 0.72632 0.0
O475 O 0.22802 0.19306 0.73643 0.0
C476 C 0.23427 0.28528 0.78988 0.0
C477 C 0.29093 0.17976 0.84421 0.0
C478 C 0.32345 0.15671 0.87126 0.0
C479 C 0.29791 0.1469 0.89408 0.0
C480 C 0.26609 0.16996 0.86741 0.0
C481 C 0.26975 0.15382 0.89235 0.0
C482 C 0.31975 0.17377 0.84673 0.0
C483 C 0.30301 0.29182 0.78264 0.0
C484 C 0.28571 0.19193 0.81412 0.0
C485 C 0.14577 0.18985 0.86665 0.0
C486 C 0.16738 0.21767 0.89191 0.0
C487 C 0.291 0.21446 0.70996 0.0
C488 C 0.23074 0.31338 0.64923 0.0
C489 C 0.20447 0.34056 0.62025 0.0
C490 C 0.22142 0.33448 0.59004 0.0
C491 C 0.24792 0.30805 0.61906 0.0
C492 C 0.20926 0.32993 0.64983 0.0
C493 C 0.24315 0.31849 0.58958 0.0
C494 C 0.21918 0.20744 0.71564 0.0
C495 C 0.23545 0.30314 0.68092 0.0
H496 H 0.29901 0.1329 0.91262 0.0
H497 H 0.24353 0.17392 0.86556 0.0
H498 H 0.25021 0.14573 0.90979 0.0
H499 H 0.33883 0.1817 0.82874 0.0
H500 H 0.21856 0.34298 0.56719 0.0
H501 H 0.26514 0.29613 0.61839 0.0
H502 H 0.19649 0.33481 0.67341 0.0
H503 H 0.25663 0.31452 0.56642 0.0
Tb504 Tb 0.72832 0.27091 0.73379 0.0
C505 C 0.78784 0.19914 0.81808 0.0
N506 N 0.80332 0.22786 0.80743 0.0
C507 C 0.83665 0.2536 0.86214 0.0
C508 C 0.79415 0.19745 0.85243 0.0
C509 C 0.82978 0.25365 0.82757 0.0
C510 C 0.81795 0.22578 0.87507 0.0
C511 C 0.75544 0.13905 0.8017 0.0
C512 C 0.76892 0.17034 0.79305 0.0
C513 C 0.75911 0.1377 0.8367 0.0
C514 C 0.77837 0.16692 0.8621 0.0
Tb515 Tb 0.7879 0.22572 0.75136 0.0
N516 N 0.76637 0.17259 0.75946 0.0
C517 C 0.74001 0.10996 0.7746 0.0
C518 C 0.7513 0.14429 0.73297 0.0
C519 C 0.7379 0.11261 0.74009 0.0
H520 H 0.84509 0.27449 0.81711 0.0
H521 H 0.72611 0.09024 0.71893 0.0
H522 H 0.67735 0.24016 0.66345 0.0
H523 H 0.79076 0.40487 0.79893 0.0
H524 H 0.74969 0.14596 0.70635 0.0
H525 H 0.73021 0.08531 0.77989 0.0
H526 H 0.75641 0.34569 0.79797 0.0
H527 H 0.85672 0.27469 0.87851 0.0
H528 H 0.74831 0.11398 0.84404 0.0
H529 H 0.78236 0.16525 0.88858 0.0
H530 H 0.67514 0.25392 0.60596 0.0
H531 H 0.82363 0.22554 0.90165 0.0
H532 H 0.80381 0.42219 0.74293 0.0
N533 N 0.71975 0.28435 0.68398 0.0
C534 C 0.73941 0.31547 0.681 0.0
C535 C 0.69394 0.27117 0.62653 0.0
C536 C 0.73923 0.32494 0.64934 0.0
C537 C 0.69543 0.26317 0.65866 0.0
C538 C 0.71677 0.3018 0.62138 0.0
N539 N 0.75282 0.32873 0.7417 0.0
C540 C 0.76244 0.35265 0.77323 0.0
C541 C 0.7754 0.37233 0.71035 0.0
C542 C 0.75688 0.33865 0.71109 0.0
C543 C 0.78907 0.39607 0.7423 0.0
C544 C 0.78171 0.38637 0.77395 0.0
H545 H 0.71559 0.30806 0.59658 0.0
H546 H 0.761 0.36531 0.62316 0.0
H547 H 0.7932 0.40688 0.67666 0.0
O548 O 0.69234 0.29094 0.74554 0.0
O549 O 0.76249 0.26675 0.69353 0.0
O550 O 0.80291 0.27138 0.7313 0.0
O551 O 0.67895 0.23734 0.73458 0.0
O552 O 0.77037 0.29824 0.77429 0.0
O553 O 0.78092 0.26044 0.79744 0.0
O554 O 0.8209 0.20206 0.73882 0.0
O555 O 0.73399 0.20316 0.74887 0.0
O556 O 0.72177 0.24705 0.77744 0.0
O557 O 0.83617 0.25477 0.74081 0.0
O558 O 0.76272 0.20176 0.69811 0.0
O559 O 0.72299 0.2241 0.69307 0.0
C560 C 0.79378 0.27591 0.7019 0.0
C561 C 0.65307 0.26086 0.78046 0.0
C562 C 0.65107 0.2867 0.84264 0.0
C563 C 0.62121 0.25936 0.8437 0.0
C564 C 0.62325 0.23388 0.78189 0.0
C565 C 0.60764 0.23296 0.81355 0.0
C566 C 0.6674 0.28648 0.8112 0.0
C567 C 0.78457 0.29109 0.79852 0.0
C568 C 0.6696 0.26192 0.74721 0.0
C569 C 0.76004 0.35765 0.6475 0.0
C570 C 0.7783 0.38132 0.678 0.0
C571 C 0.7183 0.21581 0.77326 0.0
C572 C 0.85586 0.2235 0.69593 0.0
C573 C 0.85378 0.18515 0.63948 0.0
C574 C 0.88275 0.20975 0.63113 0.0
C575 C 0.88473 0.24796 0.68769 0.0
C576 C 0.83926 0.19346 0.67065 0.0
C577 C 0.89761 0.24136 0.65487 0.0
C578 C 0.7374 0.20243 0.68136 0.0
C579 C 0.84342 0.22854 0.73109 0.0
H580 H 0.60761 0.25895 0.86729 0.0
H581 H 0.61207 0.21359 0.75856 0.0
H582 H 0.5845 0.21218 0.81448 0.0
H583 H 0.69095 0.30691 0.81047 0.0
H584 H 0.89487 0.20416 0.60732 0.0
H585 H 0.89744 0.2718 0.70671 0.0
H586 H 0.81605 0.17522 0.67633 0.0
H587 H 0.92005 0.26011 0.64857 0.0
Tb588 Tb 0.7312 0.73924 0.70301 0.0
C589 C 0.83163 0.82764 0.83892 0.0
N590 N 0.83694 0.81179 0.80628 0.0
C591 C 0.88501 0.86142 0.80434 0.0
C592 C 0.85142 0.86177 0.85435 0.0
C593 C 0.86479 0.82749 0.79022 0.0
C594 C 0.87778 0.8789 0.83607 0.0
C595 C 0.80232 0.82395 0.89251 0.0
C596 C 0.80767 0.80897 0.85802 0.0
C597 C 0.82061 0.85842 0.90709 0.0
C598 C 0.84512 0.8773 0.88806 0.0
Tb599 Tb 0.80007 0.75691 0.78589 0.0
N600 N 0.78989 0.77583 0.84281 0.0
C601 C 0.77927 0.80361 0.9115 0.0
C602 C 0.76926 0.75545 0.86202 0.0
C603 C 0.76317 0.76906 0.89644 0.0
H604 H 0.87183 0.81416 0.76651 0.0
H605 H 0.7462 0.7529 0.91135 0.0
H606 H 0.6625 0.67992 0.72627 0.0
H607 H 0.78507 0.73893 0.57738 0.0
H608 H 0.75763 0.72864 0.85079 0.0
H609 H 0.77449 0.81411 0.93814 0.0
H610 H 0.77399 0.7649 0.63755 0.0
H611 H 0.90636 0.87397 0.79086 0.0
H612 H 0.81659 0.87053 0.9334 0.0
H613 H 0.85975 0.90363 0.90008 0.0
H614 H 0.63083 0.61953 0.70486 0.0
H615 H 0.89359 0.90512 0.84701 0.0
H616 H 0.75803 0.67737 0.55317 0.0
N617 N 0.69756 0.68278 0.68637 0.0
C618 C 0.70322 0.66623 0.65423 0.0
C619 C 0.65161 0.63218 0.69074 0.0
C620 C 0.68428 0.63159 0.64005 0.0
C621 C 0.67057 0.66661 0.7034 0.0
C622 C 0.65887 0.61444 0.65928 0.0
N623 N 0.74299 0.71814 0.64762 0.0
C624 C 0.7628 0.73794 0.62729 0.0
C625 C 0.73143 0.66875 0.5998 0.0
C626 C 0.7263 0.68452 0.63406 0.0
C627 C 0.75347 0.68856 0.57964 0.0
C628 C 0.76884 0.72337 0.59325 0.0
H629 H 0.64372 0.58788 0.64924 0.0
H630 H 0.67602 0.58887 0.59533 0.0
H631 H 0.71746 0.62138 0.56021 0.0
O632 O 0.72825 0.77439 0.6769 0.0
O633 O 0.77282 0.72264 0.68848 0.0
O634 O 0.77724 0.71308 0.7411 0.0
O635 O 0.68439 0.73562 0.68857 0.0
O636 O 0.77435 0.78583 0.72343 0.0
O637 O 0.81893 0.77718 0.74037 0.0
O638 O 0.80788 0.7271 0.81596 0.0
O639 O 0.76622 0.78451 0.80033 0.0
O640 O 0.72825 0.77287 0.75303 0.0
O641 O 0.8454 0.75107 0.78358 0.0
O642 O 0.75359 0.71267 0.77171 0.0
O643 O 0.7116 0.72286 0.75082 0.0
C644 C 0.78603 0.71077 0.7086 0.0
C645 C 0.678 0.75964 0.64335 0.0
C646 C 0.64846 0.78544 0.6166 0.0
C647 C 0.63411 0.75503 0.59039 0.0
C648 C 0.66361 0.72968 0.61696 0.0
C649 C 0.64198 0.72758 0.59042 0.0
C650 C 0.6711 0.78755 0.64251 0.0
C651 C 0.80534 0.78988 0.7216 0.0
C652 C 0.6961 0.76136 0.67499 0.0
C653 C 0.69022 0.61548 0.60647 0.0
C654 C 0.71375 0.634 0.58641 0.0
C655 C 0.74176 0.78865 0.78548 0.0
C656 C 0.86286 0.7377 0.83288 0.0
C657 C 0.89056 0.71305 0.8645 0.0
C658 C 0.91405 0.7459 0.87944 0.0
C659 C 0.88624 0.76995 0.84865 0.0
C660 C 0.86455 0.70958 0.8416 0.0
C661 C 0.91156 0.77393 0.87195 0.0
C662 C 0.72409 0.71312 0.77393 0.0
C663 C 0.83743 0.7322 0.80583 0.0
H664 H 0.616 0.75195 0.57046 0.0
H665 H 0.66829 0.70774 0.6175 0.0
H666 H 0.63042 0.70422 0.5704 0.0
H667 H 0.68264 0.8106 0.66299 0.0
H668 H 0.93509 0.75027 0.89623 0.0
H669 H 0.88524 0.79192 0.84253 0.0
H670 H 0.84561 0.68499 0.82994 0.0
H671 H 0.92989 0.79888 0.88366 0.0
Cd672 Cd 0.99201 0.96978 0.53711 0.0
Cd673 Cd 0.04071 0.03345 0.45576 0.0
C674 C 0.05358 0.95237 0.52768 0.0
N675 N 0.02032 0.93561 0.52167 0.0
C676 C 0.02238 0.88643 0.5329 0.0
C677 C 0.05575 0.90501 0.54453 0.0
C678 C 0.07208 0.93724 0.53898 0.0
C679 C 1.00479 0.90252 0.52138 0.0
H680 H 0.06498 0.97881 0.52844 0.0
H681 H 0.97818 0.89006 0.51699 0.0
C682 C 0.98064 0.96621 0.44609 0.0
C683 C 0.97966 0.05339 0.46498 0.0
C684 C 0.963 0.07385 0.4639 0.0
C685 C 0.98077 0.10879 0.47177 0.0
C686 C 1.01384 0.12275 0.4849 0.0
C687 C 0.0295 0.10124 0.48609 0.0
N688 N 1.01258 0.06741 0.47433 0.0
H689 H 0.96701 0.02644 0.45538 0.0
H690 H 0.05581 0.11152 0.49292 0.0
C691 C 0.0663 0.97666 0.45076 0.0
N692 N 0.07742 0.01059 0.4618 0.0
C693 C 0.13189 0.01549 0.47478 0.0
C694 C 0.12078 0.98032 0.46452 0.0
C695 C 0.08762 0.96093 0.45181 0.0
C696 C 0.10958 0.03026 0.4728 0.0
H697 H 0.04104 0.9618 0.4404 0.0
H698 H 0.1178 0.05735 0.48016 0.0
C699 C 0.05209 0.03928 0.54838 0.0
C700 C 0.94984 0.93871 0.58513 0.0
N701 N 0.95549 0.99 0.52419 0.0
C702 C 0.96299 0.02346 0.53598 0.0
C703 C 0.93836 0.03545 0.53567 0.0
C704 C 0.90604 0.01246 0.5237 0.0
C705 C 0.89941 0.97841 0.50974 0.0
C706 C 0.92485 0.96756 0.51031 0.0
C707 C 0.07869 0.06525 0.40704 0.0
O708 O 0.99362 0.97607 0.47729 0.0
O709 O 0.99384 0.98435 0.42501 0.0
O710 O 0.04053 0.0297 0.51663 0.0
O711 O 0.03777 0.02082 0.56893 0.0
O712 O 0.94676 0.92379 0.5525 0.0
O713 O 0.97278 0.9679 0.59514 0.0
O714 O 0.08276 0.08054 0.43964 0.0
O715 O 0.05649 0.03563 0.39756 0.0
H716 H 0.9874 0.04041 0.54779 0.0
H717 H 0.91975 0.94101 0.502 0.0
H718 H 1.00917 0.86161 0.53722 0.0
H719 H 0.09789 0.95212 0.54779 0.0
H720 H 0.93749 0.06246 0.45326 0.0
H721 H 0.02819 0.14964 0.49054 0.0
H722 H 0.1574 0.03131 0.48403 0.0
H723 H 0.07829 0.93384 0.44186 0.0
H724 H 0.94382 0.0618 0.54746 0.0
H725 H 0.87444 0.96021 0.50116 0.0
Cd726 Cd 0.47475 0.99356 0.04473 0.0
Cd727 Cd 0.55906 0.01062 0.94619 0.0
C728 C 0.51798 0.97277 0.09292 0.0
N729 N 0.50795 0.96728 0.05868 0.0
C730 C 0.53198 0.92669 0.04029 0.0
C731 C 0.54181 0.93121 0.07551 0.0
C732 C 0.53486 0.95483 0.10196 0.0
C733 C 0.51471 0.94484 0.03247 0.0
H734 H 0.51255 0.99083 0.11334 0.0
H735 H 0.50609 0.9404 0.00552 0.0
C736 C 0.48047 0.96347 0.95042 0.0
C737 C 0.50859 0.02115 0.89478 0.0
C738 C 0.48866 0.0358 0.88482 0.0
C739 C 0.48513 0.06341 0.90856 0.0
C740 C 0.50136 0.07485 0.94239 0.0
C741 C 0.5207 0.05916 0.95139 0.0
N742 N 0.52403 0.0329 0.92766 0.0
H743 H 0.5117 0.00034 0.87628 0.0
H744 H 0.53357 0.06829 0.97724 0.0
C745 C 0.56693 0.93916 0.90635 0.0
N746 N 0.58459 0.97016 0.92773 0.0
C747 C 0.63398 0.95852 0.9216 0.0
C748 C 0.61632 0.92618 0.89966 0.0
C749 C 0.58222 0.9169 0.89215 0.0
C750 C 0.61766 0.98007 0.93531 0.0
H751 H 0.54098 0.93184 0.89958 0.0
H752 H 0.63164 0.00505 0.95163 0.0
C753 C 0.55308 0.03793 0.0402 0.0
C754 C 0.43084 0.94994 0.08284 0.0
N755 N 0.44931 0.03365 0.05762 0.0
C756 C 0.46382 0.0642 0.08123 0.0
C757 C 0.44536 0.08356 0.09484 0.0
C758 C 0.41146 0.07112 0.08465 0.0
C759 C 0.3976 0.04017 0.05922 0.0
C760 C 0.41696 0.02188 0.04601 0.0
C761 C 0.60729 0.06257 0.92159 0.0
O762 O 0.48721 0.97972 0.98248 0.0
O763 O 0.5034 0.96775 0.92899 0.0
O764 O 0.54495 0.02354 0.00785 0.0
O765 O 0.53089 0.03479 0.06249 0.0
O766 O 0.42793 0.94112 0.04919 0.0
O767 O 0.45158 0.97942 0.09729 0.0
O768 O 0.6064 0.06498 0.95474 0.0
O769 O 0.587 0.03566 0.90121 0.0
H770 H 0.48922 0.07274 0.09112 0.0
H771 H 0.40558 0.99724 0.02801 0.0
H772 H 0.53666 0.90858 0.01915 0.0
H773 H 0.54248 0.95947 0.12939 0.0
H774 H 0.47614 0.02551 0.85872 0.0
H775 H 0.49984 0.09624 0.96148 0.0
H776 H 0.66014 0.96705 0.92845 0.0
H777 H 0.56736 0.89273 0.87481 0.0
H778 H 0.45695 0.10697 0.11481 0.0
H779 H 0.37157 0.02952 0.05066 0.0
Cd780 Cd 0.97527 0.49417 0.0552 0.0
Cd781 Cd 0.05774 0.50926 0.95672 0.0
C782 C 0.03273 0.47976 0.0892 0.0
N783 N 1.01225 0.46873 0.05962 0.0
C784 C 0.03143 0.4249 0.03656 0.0
C785 C 0.05297 0.43573 0.06685 0.0
C786 C 0.05389 0.46418 0.09296 0.0
C787 C 1.01134 0.44192 0.03343 0.0
H788 H 0.03255 0.50064 0.11007 0.0
H789 H 0.9943 0.43305 0.01051 0.0
C790 C 0.9703 0.45965 0.95954 0.0
C791 C 1.01163 0.52309 0.90193 0.0
C792 C 0.99102 0.53719 0.89204 0.0
C793 C 0.98068 0.55881 0.91782 0.0
C794 C 0.99185 0.56559 0.95316 0.0
C795 C 1.0128 0.55144 0.96175 0.0
N796 N 0.02214 0.53045 0.93636 0.0
H797 H 0.01944 0.50651 0.88208 0.0
H798 H 0.02158 0.55726 0.98892 0.0
C799 C 0.06952 0.44532 0.90373 0.0
N800 N 0.07691 0.46383 0.93791 0.0
C801 C 0.11533 0.439 0.94508 0.0
C802 C 0.10928 0.42085 0.90943 0.0
C803 C 0.0855 0.42382 0.88897 0.0
C804 C 0.09895 0.4605 0.95879 0.0
H805 H 0.05259 0.44869 0.8872 0.0
H806 H 0.10529 0.47595 0.98559 0.0
C807 C 0.05203 0.54228 0.04784 0.0
C808 C 0.93147 0.45384 0.09685 0.0
N809 N 0.9509 0.5353 0.06752 0.0
C810 C 0.96029 0.55981 0.09836 0.0
C811 C 0.94314 0.58093 0.10928 0.0
C812 C 0.91568 0.57694 0.08853 0.0
C813 C 0.90684 0.5515 0.05661 0.0
C814 C 0.9247 0.53099 0.04667 0.0
C815 C 0.10728 0.55928 0.92972 0.0
O816 O 0.96178 0.4666 0.99108 0.0
O817 O 0.99988 0.47303 0.95103 0.0
O818 O 0.04322 0.52325 0.01708 0.0
O819 O 0.03071 0.5395 0.07089 0.0
O820 O 0.92943 0.44394 0.06343 0.0
O821 O 0.95365 0.48264 0.11084 0.0
O822 O 0.10794 0.56074 0.96265 0.0
O823 O 0.08476 0.5338 0.9099 0.0
H824 H 0.98062 0.56241 0.11512 0.0
H825 H 0.91687 0.51079 0.0228 0.0
H826 H 0.02912 0.40281 0.01596 0.0
H827 H 0.07048 0.47425 0.11645 0.0
H828 H 0.98385 0.53157 0.86433 0.0
H829 H 0.98437 0.58148 0.97423 0.0
H830 H 0.13411 0.43828 0.96157 0.0
H831 H 0.08055 0.4109 0.86121 0.0
H832 H 0.95141 0.60017 0.13387 0.0
H833 H 0.88558 0.54659 0.03981 0.0
Cd834 Cd 0.48556 0.47075 0.03537 0.0
Cd835 Cd 0.54663 0.52735 0.95651 0.0
C836 C 0.50265 0.41676 0.05862 0.0
N837 N 0.50881 0.43261 0.03211 0.0
C838 C 0.55269 0.41515 0.0142 0.0
C839 C 0.54914 0.40194 0.04373 0.0
C840 C 0.52254 0.4008 0.06476 0.0
C841 C 0.5319 0.43059 0.00883 0.0
H842 H 0.48446 0.41925 0.07707 0.0
H843 H 0.536 0.44355 0.98825 0.0
C844 C 0.4883 0.4571 0.94039 0.0
C845 C 0.48593 0.53842 0.93234 0.0
C846 C 0.46437 0.55355 0.92949 0.0
C847 C 0.46492 0.58116 0.95641 0.0
C848 C 0.4869 0.59234 0.98631 0.0
C849 C 0.50813 0.57618 0.98816 0.0
N850 N 0.5073 0.54996 0.96116 0.0
H851 H 0.48668 0.51841 0.91073 0.0
H852 H 0.52601 0.58526 0.01042 0.0
C853 C 0.5754 0.47126 0.94263 0.0
N854 N 0.58323 0.50371 0.96057 0.0
C855 C 0.63518 0.50836 0.98243 0.0
C856 C 0.62682 0.47451 0.96537 0.0
C857 C 0.59683 0.45595 0.94501 0.0
C858 C 0.61275 0.52273 0.97936 0.0
H859 H 0.55243 0.45708 0.9267 0.0
H860 H 0.61881 0.54901 0.99176 0.0
C861 C 0.55124 0.53212 0.0489 0.0
C862 C 0.43464 0.44207 0.07708 0.0
N863 N 0.4653 0.50834 0.02796 0.0
C864 C 0.46816 0.53229 0.05811 0.0
C865 C 0.44687 0.54873 0.06243 0.0
C866 C 0.42289 0.54014 0.03529 0.0
C867 C 0.42302 0.51841 0.00295 0.0
C868 C 0.44462 0.50231 -0.00012 0.0
C869 C 0.59188 0.57609 0.92663 0.0
O870 O 0.49467 0.46929 0.97336 0.0
O871 O 0.50627 0.47426 0.92022 0.0
O872 O 0.54017 0.52311 0.01703 0.0
O873 O 0.53453 0.51511 0.06968 0.0
O874 O 0.43323 0.42796 0.04434 0.0
O875 O 0.45915 0.46952 0.08948 0.0
O876 O 0.58778 0.58272 0.95953 0.0
O877 O 0.57476 0.5467 0.908 0.0
H878 H 0.48456 0.53605 0.08006 0.0
H879 H 0.44287 0.4833 0.9762 0.0
H880 H 0.57336 0.41672 -0.00208 0.0
H881 H 0.51982 0.39153 0.08828 0.0
H882 H 0.44863 0.54472 0.90545 0.0
H883 H 0.4881 0.61363 0.00752 0.0
H884 H 0.65875 0.52345 -0.00269 0.0
H885 H 0.59032 0.42994 0.9307 0.0
H886 H 0.44729 0.56582 0.08758 0.0
H887 H 0.40482 0.51181 0.98156 0.0
Cd888 Cd 0.97496 0.49515 0.54741 0.0
Cd889 Cd 0.05406 0.50516 0.44244 0.0
C890 C 0.02489 0.48476 0.59886 0.0
N891 N 1.01226 0.47458 0.56486 0.0
C892 C 0.04265 0.43942 0.54927 0.0
C893 C 0.05664 0.44998 0.58407 0.0
C894 C 0.04706 0.47269 0.60906 0.0
C895 C 0.02038 0.45201 0.54025 0.0
H896 H 0.0179 0.50248 0.61806 0.0
H897 H 1.00979 0.44398 0.51343 0.0
C898 C 0.97496 0.45996 0.45249 0.0
C899 C 1.00838 0.51809 0.38819 0.0
C900 C 0.9863 0.53014 0.37776 0.0
C901 C 0.97234 0.5483 0.40336 0.0
C902 C 0.98191 0.55441 0.43908 0.0
C903 C 1.00457 0.5425 0.44826 0.0
N904 N 0.01698 0.52436 0.42297 0.0
H905 H 0.01869 0.50376 0.36854 0.0
H906 H 1.01192 0.54742 0.47574 0.0
C907 C 0.06747 0.43697 0.39794 0.0
N908 N 0.07903 0.46429 0.42623 0.0
C909 C 0.12824 0.4543 0.43188 0.0
C910 C 0.11785 0.42685 0.40177 0.0
C911 C 0.0864 0.41777 0.38541 0.0
C912 C 0.10863 0.47269 0.44348 0.0
H913 H 0.04423 0.4309 0.38399 0.0
H914 H 0.11777 0.49468 0.46554 0.0
C915 C 0.05244 0.53902 0.5356 0.0
C916 C 0.92997 0.45048 0.58435 0.0
N917 N 0.95113 0.53746 0.56359 0.0
C918 C 0.95882 0.55635 0.59757 0.0
C919 C 0.94156 0.57631 0.61302 0.0
C920 C 0.91575 0.57728 0.59369 0.0
C921 C 0.90953 0.55909 0.55796 0.0
C922 C 0.92735 0.53906 0.54348 0.0
C923 C 0.10294 0.55733 0.41693 0.0
O924 O 0.98328 0.47699 0.4842 0.0
O925 O 0.99669 0.46304 0.42959 0.0
O926 O 0.04239 0.52099 0.50457 0.0
O927 O 0.03191 0.53775 0.55957 0.0
O928 O 0.92814 0.44184 0.55068 0.0
O929 O 0.95136 0.47943 0.59928 0.0
O930 O 0.10188 0.55946 0.45001 0.0
O931 O 0.08237 0.53064 0.39652 0.0
H932 H 0.97725 0.55449 0.61349 0.0
H933 H 0.92087 0.52344 0.51675 0.0
H934 H 0.04936 0.42221 0.52897 0.0
H935 H 0.05652 0.48108 0.63637 0.0
H936 H 0.98048 0.52537 0.34984 0.0
H937 H 0.97166 0.56773 0.45993 0.0
H938 H 0.15184 0.46218 0.44607 0.0
H939 H 0.07716 0.3971 0.36205 0.0
H940 H 0.94748 0.58984 0.64056 0.0
H941 H 0.88971 0.55863 0.54202 0.0
Cd942 Cd 0.48134 0.00199 0.55906 0.0
Cd943 Cd 0.55809 0.00796 0.44613 0.0
C944 C 0.54116 0.9943 0.59749 0.0
N945 N 0.51816 0.97894 0.56974 0.0
C946 C 0.53167 0.93065 0.55683 0.0
C947 C 0.55535 0.94563 0.5857 0.0
C948 C 0.56057 0.97835 0.60548 0.0
C949 C 0.5134 0.94792 0.54922 0.0
H950 H 0.54402 0.01869 0.61389 0.0
H951 H 0.49442 0.93602 0.52776 0.0
C952 C 0.47111 0.96281 0.4665 0.0
C953 C 0.50387 0.01753 0.3965 0.0
C954 C 0.48257 0.03226 0.38985 0.0
C955 C 0.48076 0.06001 0.41515 0.0
C956 C 0.50116 0.07246 0.44644 0.0
C957 C 0.52199 0.05701 0.45197 0.0
N958 N 0.52279 0.02989 0.42738 0.0
H959 H 0.5051 0.99617 0.37718 0.0
H960 H 0.53737 0.06643 0.4763 0.0
C961 C 0.56478 0.94026 0.3951 0.0
N962 N 0.57683 0.96253 0.42695 0.0
C963 C 0.61792 0.93993 0.43063 0.0
C964 C 0.6059 0.91647 0.39777 0.0
C965 C 0.57883 0.9171 0.38014 0.0
C966 C 0.60307 0.96276 0.4447 0.0
H967 H 0.54484 0.94118 0.38063 0.0
H968 H 0.61315 0.98132 0.46944 0.0
C969 C 0.55815 0.04175 0.53598 0.0
C970 C 0.43849 0.96021 0.60071 0.0
N971 N 0.45762 0.04344 0.57246 0.0
C972 C 0.4703 0.07257 0.59851 0.0
C973 C 0.45165 0.09221 0.60991 0.0
C974 C 0.41945 0.08153 0.59475 0.0
C975 C 0.40786 0.05223 0.5668 0.0
C976 C 0.42727 0.03357 0.55615 0.0
C977 C 0.60712 0.0543 0.41498 0.0
O978 O 0.46165 0.96961 0.49754 0.0
O979 O 0.5008 0.97819 0.45946 0.0
O980 O 0.54545 0.0202 0.50739 0.0
O981 O 0.53984 0.04404 0.56163 0.0
O982 O 0.4364 0.95089 0.56722 0.0
O983 O 0.45998 0.98949 0.61493 0.0
O984 O 0.60725 0.06055 0.44874 0.0
O985 O 0.58458 0.02737 0.39711 0.0
H986 H 0.49416 0.07971 0.61176 0.0
H987 H 0.41734 0.01011 0.53599 0.0
H988 H 0.52621 0.90532 0.54113 0.0
H989 H 0.57895 0.99133 0.62749 0.0
H990 H 0.46784 0.02212 0.36501 0.0
H991 H 0.50056 0.0935 0.46686 0.0
H992 H 0.63856 0.94063 0.44546 0.0
H993 H 0.56896 0.90034 0.3544 0.0
H994 H 0.46148 0.11432 0.6318 0.0
H995 H 0.38329 0.04297 0.55417 0.0
H996 H 0.19033 0.21592 0.32654 0.0
H997 H 0.21601 0.1438 0.24855 0.0
H998 H 0.17715 0.09751 0.27273 0.0
H999 H 0.19108 0.17798 0.39671 0.0
H1000 H 0.158 0.18731 0.41874 0.0
H1001 H 0.18438 0.21439 0.39306 0.0
H1002 H 0.13418 0.20703 0.35513 0.0
H1003 H 0.107 0.18041 0.38086 0.0
H1004 H 0.10522 0.16528 0.33356 0.0
H1005 H 0.13529 0.05994 0.30496 0.0
H1006 H 0.09791 0.03345 0.34746 0.0
H1007 H 0.10597 0.13169 0.40885 0.0
C1008 C 0.18779 0.19034 0.31484 0.0
C1009 C 0.20598 0.18289 0.28626 0.0
C1010 C 0.20223 0.14947 0.27094 0.0
C1011 C 0.18023 0.12325 0.2843 0.0
C1012 C 0.1631 0.13143 0.31326 0.0
C1013 C 0.16713 0.16422 0.32877 0.0
C1014 C 0.14821 0.16668 0.3615 0.0
C1015 C 0.17184 0.18782 0.39445 0.0
C1016 C 0.12209 0.18066 0.35749 0.0
C1017 C 0.13243 0.13004 0.36167 0.0
C1018 C 0.14088 0.11007 0.33332 0.0
C1019 C 0.12867 0.07526 0.32743 0.0
C1020 C 0.10747 0.06051 0.35152 0.0
C1021 C 0.09953 0.08077 0.38125 0.0
C1022 C 0.11208 0.11586 0.38639 0.0
H1023 H 0.89089 0.12149 0.31315 0.0
H1024 H 0.84385 0.17534 0.3881 0.0
H1025 H 0.88437 0.18407 0.43576 0.0
H1026 H 0.90061 0.07573 0.36347 0.0
H1027 H 0.94036 0.0766 0.34958 0.0
H1028 H 0.91344 0.08203 0.32063 0.0
H1029 H 0.95938 0.13896 0.31627 0.0
H1030 H 0.98674 0.13344 0.34501 0.0
H1031 H 0.97871 0.17113 0.35603 0.0
H1032 H 0.92311 0.17732 0.47633 0.0
H1033 H 0.95535 0.15458 0.5056 0.0
H1034 H 0.97606 0.10536 0.40332 0.0
C1035 C 0.88992 0.136 0.33945 0.0
C1036 C 0.86463 0.14776 0.34738 0.0
C1037 C 0.86345 0.16641 0.38186 0.0
C1038 C 0.8864 0.17159 0.40888 0.0
C1039 C 0.91057 0.15859 0.40051 0.0
C1040 C 0.91272 0.1416 0.36639 0.0
C1041 C 0.93789 0.12628 0.36472 0.0
C1042 C 0.92211 0.08791 0.34871 0.0
C1043 C 0.96743 0.14349 0.3443 0.0
C1044 C 0.94772 0.13498 0.40351 0.0
C1045 C 0.93263 0.15453 0.42381 0.0
C1046 C 0.93568 0.16272 0.46069 0.0
C1047 C 0.95383 0.14973 0.47711 0.0
C1048 C 0.96773 0.12839 0.45641 0.0
C1049 C 0.96569 0.12201 0.41943 0.0
H1050 H 0.82473 0.85702 0.31474 0.0
H1051 H 0.85169 0.77333 0.31402 0.0
H1052 H 0.88965 0.80713 0.36644 0.0
H1053 H 0.90618 0.91547 0.32927 0.0
H1054 H 0.89678 0.94957 0.35565 0.0
H1055 H 0.86628 0.91657 0.32335 0.0
H1056 H 0.82471 0.90552 0.372 0.0
H1057 H 0.85539 0.93817 0.40471 0.0
H1058 H 0.83583 0.89618 0.41077 0.0
H1059 H 0.92703 0.85039 0.41641 0.0
H1060 H 0.97071 0.9034 0.45048 0.0
H1061 H 0.9252 0.96061 0.41331 0.0
C1062 C 0.83837 0.8457 0.32584 0.0
C1063 C 0.83423 0.81208 0.31122 0.0
C1064 C 0.85325 0.79849 0.32582 0.0
C1065 C 0.87488 0.8175 0.35565 0.0
C1066 C 0.87789 0.85035 0.36997 0.0
C1067 C 0.86088 0.86468 0.35493 0.0
C1068 C 0.87298 0.90207 0.37128 0.0
C1069 C 0.88637 0.92209 0.34323 0.0
C1070 C 0.84559 0.91099 0.39085 0.0
C1071 C 0.90034 0.90667 0.39684 0.0
C1072 C 0.90177 0.87631 0.39682 0.0
C1073 C 0.92608 0.87434 0.41694 0.0
C1074 C 0.95063 0.90439 0.43626 0.0
C1075 C 0.95091 0.93557 0.43419 0.0
C1076 C 0.92503 0.93678 0.41528 0.0
H1077 H 0.12651 0.81035 0.40019 0.0
H1078 H 0.20642 0.8611 0.3398 0.0
H1079 H 0.22003 0.91357 0.38486 0.0
H1080 H 0.0956 0.86662 0.40633 0.0
H1081 H 0.07921 0.86535 0.44906 0.0
H1082 H 0.08516 0.82958 0.42258 0.0
H1083 H 0.12195 0.83144 0.47335 0.0
H1084 H 0.11679 0.86809 0.50024 0.0
H1085 H 0.15772 0.86924 0.49218 0.0
H1086 H 0.21257 0.9623 0.42094 0.0
H1087 H 0.18385 -9e-05 0.44248 0.0
H1088 H 0.10815 0.92135 0.4811 0.0
C1089 C 0.1475 0.83223 0.39688 0.0
C1090 C 0.16501 0.83114 0.3661 0.0
C1091 C 0.19269 0.86046 0.36325 0.0
C1092 C 0.20069 0.89082 0.3889 0.0
C1093 C 0.18065 0.89179 0.41707 0.0
C1094 C 0.15462 0.86309 0.42126 0.0
C1095 C 0.13143 0.87171 0.44733 0.0
C1096 C 0.09582 0.85752 0.43029 0.0
C1097 C 0.13205 0.85938 0.48028 0.0
C1098 C 0.14722 0.90961 0.4555 0.0
C1099 C 0.17611 0.92089 0.43854 0.0
C1100 C 0.19079 0.95404 0.43559 0.0
C1101 C 0.17436 0.97539 0.44806 0.0
C1102 C 0.14368 0.96334 0.46328 0.0
C1103 C 0.13166 0.93113 0.46968 0.0
H1104 H 0.15872 0.82092 0.61501 0.0
H1105 H 0.1793 0.90076 0.71071 0.0
H1106 H 0.13505 0.91527 0.69184 0.0
H1107 H 0.14774 0.85994 0.55676 0.0
H1108 H 0.11348 0.8239 0.53117 0.0
H1109 H 0.14233 0.81769 0.55655 0.0
H1110 H 0.09103 0.78167 0.58559 0.0
H1111 H 0.06371 0.79123 0.56097 0.0
H1112 H 0.06432 0.80074 0.60845 0.0
H1113 H 0.09994 0.92917 0.65789 0.0
H1114 H 0.07226 0.94015 0.6119 0.0
H1115 H 0.07115 0.84983 0.53785 0.0
C1116 C 0.15292 0.84069 0.63222 0.0
C1117 C 0.17192 0.85997 0.664 0.0
C1118 C 0.16452 0.88587 0.68627 0.0
C1119 C 0.1394 0.89403 0.6759 0.0
C1120 C 0.12165 0.87537 0.64369 0.0
C1121 C 0.12745 0.84869 0.62249 0.0
C1122 C 0.10722 0.83513 0.58759 0.0
C1123 C 0.12912 0.83427 0.55621 0.0
C1124 C 0.07995 0.80012 0.58555 0.0
C1125 C 0.09258 0.8611 0.59065 0.0
C1126 C 0.10028 0.88322 0.62384 0.0
C1127 C 0.09292 0.91157 0.63217 0.0
C1128 C 0.07766 0.91782 0.60581 0.0
C1129 C 0.0702 0.89599 0.57151 0.0
C1130 C 0.07676 0.86673 0.564 0.0
H1131 H 0.16205 0.20423 0.68635 0.0
H1132 H 0.23744 0.16425 0.66762 0.0
H1133 H 0.20742 0.12512 0.6129 0.0
H1134 H 0.09829 0.12907 0.66628 0.0
H1135 H 0.07018 0.1401 0.64474 0.0
H1136 H 0.10184 0.17199 0.67661 0.0
H1137 H 0.12388 0.20693 0.63045 0.0
H1138 H 0.0921 0.17505 0.59825 0.0
H1139 H 0.13501 0.18791 0.58847 0.0
H1140 H 0.16503 0.08215 0.57099 0.0
H1141 H 0.1121 0.03748 0.54371 0.0
H1142 H 0.0615 0.10297 0.58469 0.0
C1143 C 0.1726 0.18801 0.66984 0.0
C1144 C 0.20239 0.18737 0.6809 0.0
C1145 C 0.21483 0.16494 0.65973 0.0
C1146 C 0.19806 0.14297 0.62819 0.0
C1147 C 0.16819 0.14317 0.61841 0.0
C1148 C 0.15538 0.16506 0.63846 0.0
C1149 C 0.12003 0.15565 0.6254 0.0
C1150 C 0.0962 0.14879 0.65501 0.0
C1151 C 0.11762 0.18302 0.6097 0.0
C1152 C 0.11437 0.12371 0.59685 0.0
C1153 C 0.14294 0.11768 0.59264 0.0
C1154 C 0.14291 0.08728 0.57248 0.0
C1155 C 0.11285 0.06212 0.55672 0.0
C1156 C 0.08354 0.06786 0.5602 0.0
C1157 C 0.0842 0.09902 0.5802 0.0
H1158 H 0.85283 0.15879 0.56816 0.0
H1159 H 0.8309 0.13076 0.66762 0.0
H1160 H 0.82263 0.07332 0.6386 0.0
H1161 H 0.8014 0.06622 0.50797 0.0
H1162 H 0.83298 0.07325 0.47678 0.0
H1163 H 0.82192 0.10737 0.49998 0.0
H1164 H 0.88338 0.14303 0.52183 0.0
H1165 H 0.89402 0.10892 0.49919 0.0
H1166 H 0.90471 0.1266 0.54594 0.0
H1167 H 0.8346 0.02701 0.60728 0.0
H1168 H 0.86788 0.99696 0.57651 0.0
H1169 H 0.88721 0.05386 0.49768 0.0
C1170 C 0.84494 0.1401 0.58332 0.0
C1171 C 0.84201 0.14936 0.61993 0.0
C1172 C 0.83217 0.12439 0.63924 0.0
C1173 C 0.82732 0.09134 0.62291 0.0
C1174 C 0.83247 0.08339 0.58722 0.0
C1175 C 0.84065 0.10693 0.56739 0.0
C1176 C 0.8521 0.09422 0.53199 0.0
C1177 C 0.82551 0.0847 0.50243 0.0
C1178 C 0.88557 0.11975 0.52443 0.0
C1179 C 0.85462 0.063 0.53771 0.0
C1180 C 0.84077 0.05588 0.56859 0.0
C1181 C 0.84414 0.03128 0.58228 0.0
C1182 C 0.86309 0.01437 0.56473 0.0
C1183 C 0.87893 0.02278 0.53443 0.0
C1184 C 0.87398 0.04649 0.52009 0.0
H1185 H 0.82905 0.78488 0.65669 0.0
H1186 H 0.83021 0.8563 0.75451 0.0
H1187 H 0.86758 0.9032 0.73022 0.0
H1188 H 0.90846 0.82268 0.63124 0.0
H1189 H 0.89681 0.815 0.58525 0.0
H1190 H 0.87122 0.78737 0.61092 0.0
H1191 H 0.82056 0.79813 0.59439 0.0
H1192 H 0.84599 0.82539 0.56822 0.0
H1193 H 0.82343 0.84063 0.60259 0.0
H1194 H 0.90716 0.94118 0.69599 0.0
H1195 H 0.9425 0.96862 0.65284 0.0
H1196 H 0.90839 0.87259 0.57464 0.0
C1197 C 0.83679 0.81046 0.67264 0.0
C1198 C 0.8274 0.81737 0.70737 0.0
C1199 C 0.83798 0.85089 0.72795 0.0
C1200 C 0.85886 0.87752 0.71431 0.0
C1201 C 0.86751 0.86999 0.67963 0.0
C1202 C 0.85613 0.83736 0.65879 0.0
C1203 C 0.86732 0.8362 0.62175 0.0
C1204 C 0.88715 0.81401 0.61174 0.0
C1205 C 0.83757 0.82439 0.59516 0.0
C1206 C 0.88882 0.87298 0.62574 0.0
C1207 C 0.88836 0.89212 0.65921 0.0
C1208 C 0.90736 0.92658 0.66953 0.0
C1209 C 0.92741 0.94188 0.64493 0.0
C1210 C 0.92802 0.92268 0.61047 0.0
C1211 C 0.9082 0.8879 0.60073 0.0
H1212 H 0.35104 0.22175 0.16818 0.0
H1213 H 0.26989 0.14859 0.20786 0.0
H1214 H 0.28968 0.10427 0.17949 0.0
H1215 H 0.34713 0.16056 0.08218 0.0
H1216 H 0.39118 0.17896 0.07841 0.0
H1217 H 0.37021 0.20483 0.10105 0.0
H1218 H 0.40988 0.22406 0.15645 0.0
H1219 H 0.43086 0.19811 0.1343 0.0
H1220 H 0.41362 0.19298 0.176 0.0
H1221 H 0.31936 0.06838 0.14919 0.0
H1222 H 0.3557 0.04242 0.11705 0.0
H1223 H 0.41794 0.13757 0.09485 0.0
C1224 C 0.33759 0.19635 0.17079 0.0
C1225 C 0.30918 0.18854 0.19063 0.0
C1226 C 0.29173 0.155 0.19291 0.0
C1227 C 0.3028 0.1297 0.17686 0.0
C1228 C 0.33101 0.13807 0.15776 0.0
C1229 C 0.3479 0.17043 0.15406 0.0
C1230 C 0.37691 0.17216 0.13105 0.0
C1231 C 0.37102 0.17958 0.09611 0.0
C1232 C 0.40977 0.19838 0.15065 0.0
C1233 C 0.37517 0.13643 0.12468 0.0
C1234 C 0.34795 0.11708 0.13969 0.0
C1235 C 0.34059 0.08324 0.13713 0.0
C1236 C 0.36138 0.06866 0.11872 0.0
C1237 C 0.38966 0.08779 0.10328 0.0
C1238 C 0.39663 0.12228 0.10648 0.0
H1239 H 0.81688 0.2821 0.14535 0.0
H1240 H 0.81478 0.34271 0.24937 0.0
H1241 H 0.84818 0.39413 0.231 0.0
H1242 H 0.90151 0.33395 0.13613 0.0
H1243 H 0.89609 0.32797 0.08921 0.0
H1244 H 0.87031 0.29575 0.11 0.0
H1245 H 0.81793 0.29766 0.08427 0.0
H1246 H 0.84353 0.32988 0.06341 0.0
H1247 H 0.81329 0.33714 0.09283 0.0
H1248 H 0.88069 0.43903 0.20138 0.0
H1249 H 0.91585 0.47452 0.16396 0.0
H1250 H 0.89809 0.38526 0.07879 0.0
C1251 C 0.82228 0.30636 0.16368 0.0
C1252 C 0.81143 0.30863 0.19825 0.0
C1253 C 0.82147 0.3404 0.22247 0.0
C1254 C 0.84067 0.36982 0.21225 0.0
C1255 C 0.84984 0.3669 0.17765 0.0
C1256 C 0.84146 0.33598 0.15379 0.0
C1257 C 0.85755 0.33975 0.11936 0.0
C1258 C 0.88285 0.32338 0.11332 0.0
C1259 C 0.8315 0.32526 0.08812 0.0
C1260 C 0.87472 0.37776 0.12705 0.0
C1261 C 0.87018 0.39284 0.16099 0.0
C1262 C 0.88452 0.42758 0.17475 0.0
C1263 C 0.90443 0.4475 0.15336 0.0
C1264 C 0.90952 0.43261 0.11855 0.0
C1265 C 0.89424 0.39731 0.10518 0.0
H1266 H 0.68502 0.86406 0.07207 0.0
H1267 H 0.65027 0.83841 0.17082 0.0
H1268 H 0.60163 0.85001 0.16273 0.0
H1269 H 0.66667 0.93579 0.09061 0.0
H1270 H 0.6552 0.93178 0.04551 0.0
H1271 H 0.6843 0.91527 0.0549 0.0
H1272 H 0.64736 0.85656 0.01585 0.0
H1273 H 0.61815 0.87302 0.00644 0.0
H1274 H 0.60454 0.83696 0.0248 0.0
H1275 H 0.55962 0.87027 0.14824 0.0
H1276 H 0.52884 0.89973 0.12917 0.0
H1277 H 0.59319 0.91763 0.04332 0.0
C1278 C 0.66746 0.86077 0.09225 0.0
C1279 C 0.67218 0.84987 0.1221 0.0
C1280 C 0.64755 0.8456 0.14709 0.0
C1281 C 0.61964 0.85246 0.14294 0.0
C1282 C 0.61659 0.86412 0.11395 0.0
C1283 C 0.6399 0.86845 0.0891 0.0
C1284 C 0.63273 0.88498 0.06259 0.0
C1285 C 0.66143 0.91896 0.06348 0.0
C1286 C 0.62524 0.86146 0.0252 0.0
C1287 C 0.60209 0.88982 0.07691 0.0
C1288 C 0.59293 0.87713 0.10624 0.0
C1289 C 0.56647 0.88016 0.12521 0.0
C1290 C 0.54931 0.89716 0.11435 0.0
C1291 C 0.55876 0.91115 0.08493 0.0
C1292 C 0.58515 0.90684 0.06564 0.0
H1293 H 0.20332 0.64113 0.18425 0.0
H1294 H 0.24366 0.71204 0.1201 0.0
H1295 H 0.20219 0.67302 0.07123 0.0
H1296 H 0.17818 0.56084 0.10804 0.0
H1297 H 0.1419 0.54091 0.13009 0.0
H1298 H 0.17966 0.57047 0.15558 0.0
H1299 H 0.14765 0.60496 0.18965 0.0
H1300 H 0.1101 0.57638 0.16387 0.0
H1301 H 0.12562 0.62056 0.16544 0.0
H1302 H 0.1482 0.63291 0.03667 0.0
H1303 H 0.09043 0.59224 0.01705 0.0
H1304 H 0.08903 0.54643 0.10261 0.0
C1305 C 0.20501 0.6472 0.15897 0.0
C1306 C 0.2272 0.67863 0.15508 0.0
C1307 C 0.22732 0.68731 0.12274 0.0
C1308 C 0.20382 0.6654 0.09503 0.0
C1309 C 0.18114 0.63485 0.10019 0.0
C1310 C 0.18226 0.62539 0.1311 0.0
C1311 C 0.1529 0.59362 0.13237 0.0
C1312 C 0.16382 0.56474 0.13144 0.0
C1313 C 0.13292 0.59927 0.16473 0.0
C1314 C 0.13395 0.58779 0.0985 0.0
C1315 C 0.1506 0.61145 0.07991 0.0
C1316 C 0.13563 0.61337 0.05013 0.0
C1317 C 0.10304 0.59023 0.03904 0.0
C1318 C 0.08627 0.56578 0.0577 0.0
C1319 C 0.10189 0.56454 0.08756 0.0
H1320 H 0.34818 0.84466 0.79877 0.0
H1321 H 0.29976 0.78216 0.86941 0.0
H1322 H 0.33643 0.82615 0.91967 0.0
H1323 H 0.42624 0.87027 0.83369 0.0
H1324 H 0.44087 0.91196 0.82675 0.0
H1325 H 0.40746 0.87806 0.79852 0.0
H1326 H 0.37036 0.91173 0.81375 0.0
H1327 H 0.40368 0.94601 0.84214 0.0
H1328 H 0.36393 0.92731 0.85927 0.0
H1329 H 0.3826 0.87459 0.95985 0.0
H1330 H 0.43629 0.92072 0.98523 0.0
H1331 H 0.45165 0.95018 0.88661 0.0
C1332 C 0.34439 0.84079 0.82493 0.0
C1333 C 0.32088 0.81087 0.83076 0.0
C1334 C 0.31776 0.80541 0.86493 0.0
C1335 C 0.33813 0.83028 0.89346 0.0
C1336 C 0.36116 0.85995 0.88676 0.0
C1337 C 0.36436 0.86506 0.85317 0.0
C1338 C 0.39341 0.89667 0.85142 0.0
C1339 C 0.41846 0.88875 0.82613 0.0
C1340 C 0.38215 0.92193 0.84106 0.0
C1341 C 0.40671 0.90845 0.88926 0.0
C1342 C 0.38767 0.88738 0.90952 0.0
C1343 C 0.39725 0.89174 0.94453 0.0
C1344 C 0.42748 0.91796 0.95882 0.0
C1345 C 0.44734 0.93885 0.93785 0.0
C1346 C 0.43652 0.9345 0.9031 0.0
H1347 H 0.18853 0.28033 0.84394 0.0
H1348 H 0.25071 0.34839 0.78321 0.0
H1349 H 0.22619 0.38853 0.80792 0.0
H1350 H 0.11633 0.29645 0.83761 0.0
H1351 H 0.10537 0.2973 0.88253 0.0
H1352 H 0.12858 0.27311 0.86191 0.0
H1353 H 0.17443 0.305 0.91231 0.0
H1354 H 0.15136 0.32922 0.93344 0.0
H1355 H 0.19346 0.35032 0.92311 0.0
H1356 H 0.19254 0.41967 0.83306 0.0
H1357 H 0.15461 0.44388 0.86409 0.0
H1358 H 0.11483 0.36112 0.91425 0.0
C1359 C 0.19737 0.30394 0.83643 0.0
C1360 C 0.22137 0.31045 0.81079 0.0
C1361 C 0.232 0.34191 0.80194 0.0
C1362 C 0.21826 0.36526 0.81601 0.0
C1363 C 0.19406 0.35775 0.83989 0.0
C1364 C 0.18401 0.32834 0.85086 0.0
C1365 C 0.15744 0.32757 0.87739 0.0
C1366 C 0.125 0.29677 0.86405 0.0
C1367 C 0.16991 0.32805 0.91373 0.0
C1368 C 0.15358 0.36044 0.8783 0.0
C1369 C 0.17518 0.37718 0.85627 0.0
C1370 C 0.17584 0.40712 0.85086 0.0
C1371 C 0.1541 0.42068 0.86852 0.0
C1372 C 0.13189 0.40472 0.89177 0.0
C1373 C 0.13176 0.37413 0.8969 0.0
H1374 H 0.67738 0.15039 0.76561 0.0
H1375 H 0.73038 0.24315 0.8444 0.0
H1376 H 0.71008 0.2136 0.8918 0.0
H1377 H 0.60556 0.12649 0.81585 0.0
H1378 H 0.59571 0.08202 0.80092 0.0
H1379 H 0.61674 0.10939 0.77297 0.0
H1380 H 0.66663 0.09005 0.76934 0.0
H1381 H 0.64191 0.06074 0.79385 0.0
H1382 H 0.68338 0.08888 0.81031 0.0
H1383 H 0.68434 0.1728 0.93053 0.0
H1384 H 0.65104 0.12588 0.95705 0.0
H1385 H 0.61202 0.06207 0.85224 0.0
C1386 C 0.68479 0.16431 0.79288 0.0
C1387 C 0.70557 0.19879 0.80159 0.0
C1388 C 0.7144 0.21662 0.83741 0.0
C1389 C 0.70316 0.20003 0.86441 0.0
C1390 C 0.68252 0.1659 0.85502 0.0
C1391 C 0.673 0.14839 0.8201 0.0
C1392 C 0.64814 0.11282 0.81709 0.0
C1393 C 0.61455 0.10738 0.80075 0.0
C1394 C 0.66085 0.08664 0.79632 0.0
C1395 C 0.6463 0.1126 0.85558 0.0
C1396 C 0.66626 0.14331 0.87718 0.0
C1397 C 0.66859 0.14865 0.91382 0.0
C1398 C 0.64978 0.12187 0.92863 0.0
C1399 C 0.62909 0.09033 0.90671 0.0
C1400 C 0.62765 0.08582 0.86978 0.0
H1401 H 0.9227 0.70831 0.92204 0.0
H1402 H 0.86858 0.64814 0.82112 0.0
H1403 H 0.87907 0.60036 0.82888 0.0
H1404 H 0.98743 0.68237 0.90694 0.0
H1405 H 0.99437 0.68201 0.95188 0.0
H1406 H 0.97665 0.70954 0.94294 0.0
H1407 H 0.92624 0.68362 0.97817 0.0
H1408 H 0.94395 0.65603 0.9873 0.0
H1409 H 0.90276 0.63874 0.96655 0.0
H1410 H 0.89989 0.56014 0.84398 0.0
H1411 H 0.93209 0.53244 0.86345 0.0
H1412 H 0.97938 0.62114 0.94975 0.0
C1413 C 0.91284 0.68525 0.90139 0.0
C1414 C 0.89446 0.68273 0.87093 0.0
C1415 C 0.88185 0.6513 0.84527 0.0
C1416 C 0.8879 0.62371 0.84927 0.0
C1417 C 0.90699 0.62763 0.87886 0.0
C1418 C 0.91938 0.65765 0.90447 0.0
C1419 C 0.94239 0.65647 0.93162 0.0
C1420 C 0.97727 0.68423 0.93342 0.0
C1421 C 0.92796 0.65885 0.96807 0.0
C1422 C 0.94222 0.62172 0.9162 0.0
C1423 C 0.92081 0.60513 0.88643 0.0
C1424 C 0.91684 0.57297 0.86722 0.0
C1425 C 0.93567 0.55758 0.8783 0.0
C1426 C 0.95894 0.57455 0.90791 0.0
C1427 C 0.9617 0.60698 0.92729 0.0
H1428 H 0.1304 0.3575 0.18284 0.0
H1429 H 0.15167 0.29811 0.0871 0.0
H1430 H 0.13416 0.32864 0.05192 0.0
H1431 H 0.05618 0.35174 0.14864 0.0
H1432 H 0.0607 0.39313 0.17352 0.0
H1433 H 0.08006 0.37057 0.19045 0.0
H1434 H 0.13721 0.42048 0.19512 0.0
H1435 H 0.11786 0.44326 0.17836 0.0
H1436 H 0.15197 0.43587 0.15665 0.0
H1437 H 0.10925 0.36421 0.02748 0.0
H1438 H 0.08002 0.39873 0.01696 0.0
H1439 H 0.0701 0.4278 0.12972 0.0
C1440 C 0.13174 0.35098 0.15447 0.0
C1441 C 0.14223 0.32523 0.13779 0.0
C1442 C 0.14401 0.31796 0.10059 0.0
C1443 C 0.13392 0.33507 0.0804 0.0
C1444 C 0.12221 0.35932 0.09787 0.0
C1445 C 0.12124 0.36713 0.13417 0.0
C1446 C 0.10496 0.39154 0.14698 0.0
C1447 C 0.07363 0.3758 0.166 0.0
C1448 C 0.12947 0.42475 0.17067 0.0
C1449 C 0.09648 0.39627 0.11229 0.0
C1450 C 0.10692 0.37802 0.08412 0.0
C1451 C 0.10106 0.37852 0.04951 0.0
C1452 C 0.0841 0.39803 0.04378 0.0
C1453 C 0.07263 0.41637 0.07248 0.0
C1454 C 0.07911 0.41515 0.10706 0.0
H1455 H 0.18203 0.65292 0.77763 0.0
H1456 H 0.24624 0.7377 0.8587 0.0
H1457 H 0.2217 0.70715 0.90438 0.0
H1458 H 0.11045 0.63548 0.83331 0.0
H1459 H 0.09486 0.59075 0.81416 0.0
H1460 H 0.11769 0.61958 0.78823 0.0
H1461 H 0.15867 0.59018 0.77524 0.0
H1462 H 0.13623 0.56148 0.80134 0.0
H1463 H 0.17989 0.58648 0.81149 0.0
H1464 H 0.19266 0.66542 0.94042 0.0
H1465 H 0.15683 0.61837 0.96519 0.0
H1466 H 0.1088 0.56264 0.86089 0.0
C1467 C 0.19086 0.66483 0.80504 0.0
C1468 C 0.21652 0.69713 0.81487 0.0
C1469 C 0.22693 0.71267 0.85089 0.0
C1470 C 0.21311 0.69555 0.87691 0.0
C1471 C 0.18818 0.66338 0.86643 0.0
C1472 C 0.17655 0.64853 0.83147 0.0
C1473 C 0.14836 0.61449 0.82748 0.0
C1474 C 0.11592 0.61511 0.81506 0.0
C1475 C 0.15629 0.58651 0.80241 0.0
C1476 C 0.14744 0.61157 0.86526 0.0
C1477 C 0.17037 0.64014 0.88741 0.0
C1478 C 0.17438 0.64303 0.9234 0.0
C1479 C 0.15407 0.61613 0.9372 0.0
C1480 C 0.13014 0.58679 0.915 0.0
C1481 C 0.12697 0.58464 0.87857 0.0
H1482 H 0.35407 0.14933 0.92777 0.0
H1483 H 0.35856 0.14076 0.81482 0.0
H1484 H 0.40375 0.12168 0.81405 0.0
H1485 H 0.44302 0.17397 0.94824 0.0
H1486 H 0.43539 0.14884 0.97973 0.0
H1487 H 0.4065 0.1666 0.97284 0.0
H1488 H 0.35908 0.1072 0.95888 0.0
H1489 H 0.38786 0.08938 0.96572 0.0
H1490 H 0.36312 0.07396 0.92459 0.0
H1491 H 0.44575 0.09969 0.82393 0.0
H1492 H 0.48033 0.07445 0.84351 0.0
H1493 H 0.44548 0.09183 0.94885 0.0
C1494 C 0.36447 0.14357 0.90279 0.0
C1495 C 0.35252 0.14711 0.87143 0.0
C1496 C 0.36747 0.13941 0.83954 0.0
C1497 C 0.39316 0.12822 0.8387 0.0
C1498 C 0.40372 0.12447 0.86985 0.0
C1499 C 0.38986 0.13183 0.90133 0.0
C1500 C 0.40418 0.12319 0.93047 0.0
C1501 C 0.42341 0.15505 0.95953 0.0
C1502 C 0.37694 0.09686 0.9458 0.0
C1503 C 0.42737 0.10873 0.91005 0.0
C1504 C 0.42715 0.11038 0.87531 0.0
C1505 C 0.44605 0.09817 0.85106 0.0
C1506 C 0.46537 0.08348 0.8624 0.0
C1507 C 0.46542 0.08054 0.89763 0.0
C1508 C 0.44634 0.09382 0.92181 0.0
H1509 H 0.79459 0.31923 0.87037 0.0
H1510 H 0.84341 0.31841 0.77244 0.0
H1511 H 0.89429 0.36226 0.80285 0.0
H1512 H 0.83494 0.40668 0.91341 0.0
H1513 H 0.84155 0.40096 0.9561 0.0
H1514 H 0.80712 0.3699 0.9266 0.0
H1515 H 0.82742 0.32296 0.92945 0.0
H1516 H 0.86082 0.35429 0.96016 0.0
H1517 H 0.86971 0.32943 0.92064 0.0
H1518 H 0.93907 0.40565 0.8416 0.0
H1519 H 0.97912 0.4462 0.8894 0.0
H1520 H 0.90562 0.41815 0.96585 0.0
C1521 C 0.81592 0.32905 0.85555 0.0
C1522 C 0.81424 0.31784 0.81843 0.0
C1523 C 0.84297 0.32932 0.79999 0.0
C1524 C 0.87249 0.35351 0.81735 0.0
C1525 C 0.87326 0.365 0.85359 0.0
C1526 C 0.84622 0.35289 0.87287 0.0
C1527 C 0.85519 0.36881 0.91204 0.0
C1528 C 0.8334 0.38773 0.92796 0.0
C1529 C 0.85313 0.34227 0.93172 0.0
C1530 C 0.89084 0.39274 0.91107 0.0
C1531 C 0.90057 0.38952 0.87696 0.0
C1532 C 0.93203 0.40846 0.86859 0.0
C1533 C 0.95456 0.4315 0.89601 0.0
C1534 C 0.94547 0.43546 0.93138 0.0
C1535 C 0.91315 0.4158 0.93903 0.0
H1536 H 0.75681 0.85776 0.81467 0.0
H1537 H 0.67835 0.75858 0.7992 0.0
H1538 H 0.64158 0.78276 0.83196 0.0
H1539 H 0.73714 0.90249 0.89826 0.0
H1540 H 0.74189 0.93915 0.88342 0.0
H1541 H 0.76499 0.9143 0.86444 0.0
H1542 H 0.74115 0.90679 0.80214 0.0
H1543 H 0.71785 0.9315 0.8209 0.0
H1544 H 0.69695 0.88963 0.79313 0.0
H1545 H 0.61256 0.81645 0.8661 0.0
H1546 H 0.58919 0.85799 0.89134 0.0
H1547 H 0.6806 0.93811 0.87627 0.0
C1548 C 0.73233 0.84125 0.81957 0.0
C1549 C 0.7218 0.80566 0.80775 0.0
C1550 C 0.68835 0.78533 0.81132 0.0
C1551 C 0.66688 0.79899 0.82928 0.0
C1552 C 0.67803 0.83374 0.84148 0.0
C1553 C 0.7095 0.85484 0.83578 0.0
C1554 C 0.71255 0.89133 0.84635 0.0
C1555 C 0.74083 0.91311 0.87484 0.0
C1556 C 0.71743 0.90567 0.8137 0.0
C1557 C 0.67867 0.88726 0.86072 0.0
C1558 C 0.65939 0.85364 0.85746 0.0
C1559 C 0.62724 0.84287 0.86835 0.0
C1560 C 0.61402 0.86684 0.8825 0.0
C1561 C 0.63248 0.90165 0.88552 0.0
C1562 C 0.66561 0.91188 0.87465 0.0
H1563 H 0.83353 0.68772 0.22396 0.0
H1564 H 0.79439 0.70297 0.13297 0.0
H1565 H 0.82129 0.66983 0.09361 0.0
H1566 H 0.9127 0.69261 0.18957 0.0
H1567 H 0.91438 0.66056 0.20888 0.0
H1568 H 0.89264 0.68625 0.22967 0.0
H1569 H 0.83965 0.63277 0.22743 0.0
H1570 H 0.86112 0.60685 0.20659 0.0
H1571 H 0.82326 0.60246 0.18575 0.0
H1572 H 0.85229 0.63394 0.06402 0.0
H1573 H 0.88468 0.59927 0.0464 0.0
H1574 H 0.90269 0.6052 0.15667 0.0
C1575 C 0.83076 0.68427 0.19573 0.0
C1576 C 0.81225 0.69879 0.18158 0.0
C1577 C 0.80922 0.69332 0.14451 0.0
C1578 C 0.82417 0.67408 0.12193 0.0
C1579 C 0.84231 0.66028 0.13674 0.0
C1580 C 0.84572 0.66522 0.17284 0.0
C1581 C 0.86647 0.64757 0.18203 0.0
C1582 C 0.89845 0.67328 0.20383 0.0
C1583 C 0.84642 0.62082 0.2016 0.0
C1584 C 0.87389 0.63154 0.14542 0.0
C1585 C 0.85976 0.63931 0.11972 0.0
C1586 C 0.8633 0.62762 0.08399 0.0
C1587 C 0.88166 0.60757 0.0742 0.0
C1588 C 0.89639 0.59889 0.09987 0.0
C1589 C 0.89228 0.61135 0.1361 0.0
H1590 H 0.30058 0.78621 0.13748 0.0
H1591 H 0.36592 0.81921 0.23137 0.0
H1592 H 0.40218 0.86881 0.21241 0.0
H1593 H 0.37874 0.81019 0.08626 0.0
H1594 H 0.3591 0.81832 0.05209 0.0
H1595 H 0.33517 0.78641 0.07424 0.0
H1596 H 0.29391 0.81649 0.09388 0.0
H1597 H 0.31719 0.84449 0.06738 0.0
H1598 H 0.31215 0.86158 0.11257 0.0
H1599 H 0.42566 0.91873 0.18812 0.0
H1600 H 0.4477 0.95868 0.15131 0.0
H1601 H 0.37827 0.88728 0.06423 0.0
C1602 C 0.32263 0.80386 0.15392 0.0
C1603 C 0.32834 0.80085 0.18815 0.0
C1604 C 0.35864 0.82299 0.20748 0.0
C1605 C 0.38004 0.8509 0.19633 0.0
C1606 C 0.37258 0.85449 0.16386 0.0
C1607 C 0.346 0.83049 0.1417 0.0
C1608 C 0.34756 0.83804 0.10563 0.0
C1609 C 0.35562 0.81167 0.07791 0.0
C1610 C 0.31569 0.84017 0.09427 0.0
C1611 C 0.37649 0.87216 0.11295 0.0
C1612 C 0.39046 0.88084 0.1468 0.0
C1613 C 0.41569 0.91194 0.16116 0.0
C1614 C 0.42772 0.93463 0.1401 0.0
C1615 C 0.4148 0.92612 0.10481 0.0
C1616 C 0.38876 0.89439 0.09103 0.0
H1617 H 0.69735 0.20287 0.13654 0.0
H1618 H 0.69886 0.1431 0.20822 0.0
H1619 H 0.66686 0.09147 0.16397 0.0
H1620 H 0.61517 0.15754 0.10737 0.0
H1621 H 0.61999 0.1598 0.06202 0.0
H1622 H 0.64908 0.19187 0.09618 0.0
H1623 H 0.69674 0.18019 0.06262 0.0
H1624 H 0.66736 0.14718 0.02894 0.0
H1625 H 0.69611 0.13835 0.05221 0.0
H1626 H 0.6331 0.04745 0.11669 0.0
H1627 H 0.58369 0.01375 0.0763 0.0
H1628 H 0.59754 0.09956 0.03535 0.0
C1629 C 0.69084 0.17879 0.1426 0.0
C1630 C 0.7012 0.17668 0.17519 0.0
C1631 C 0.69181 0.14503 0.18289 0.0
C1632 C 0.67415 0.11555 0.15775 0.0
C1633 C 0.66559 0.1181 0.12519 0.0
C1634 C 0.67252 0.14877 0.11776 0.0
C1635 C 0.65516 0.144 0.08295 0.0
C1636 C 0.63354 0.16449 0.08744 0.0
C1637 C 0.68034 0.15297 0.05503 0.0
C1638 C 0.63472 0.10637 0.07435 0.0
C1639 C 0.64324 0.09187 0.09782 0.0
C1640 C 0.62639 0.05822 0.09777 0.0
C1641 C 0.5984 0.03932 0.0749 0.0
C1642 C 0.58743 0.05446 0.05323 0.0
C1643 C 0.6064 0.08769 0.05139 0.0
H1644 H 0.69666 0.6465 0.77268 0.0
H1645 H 0.70761 0.74522 0.83433 0.0
H1646 H 0.67604 0.72095 0.88068 0.0
H1647 H 0.61394 0.60076 0.79499 0.0
H1648 H 0.62172 0.56477 0.79811 0.0
H1649 H 0.64468 0.59016 0.76914 0.0
H1650 H 0.69954 0.59911 0.80035 0.0
H1651 H 0.67676 0.57414 0.82979 0.0
H1652 H 0.70664 0.61644 0.84744 0.0
H1653 H 0.64658 0.68717 0.9215 0.0
H1654 H 0.61344 0.64384 0.95199 0.0
H1655 H 0.62054 0.56611 0.86433 0.0
C1656 C 0.69174 0.66269 0.79575 0.0
C1657 C 0.70289 0.69755 0.79945 0.0
C1658 C 0.69685 0.71829 0.82996 0.0
C1659 C 0.67994 0.7048 0.85694 0.0
C1660 C 0.66937 0.67041 0.85282 0.0
C1661 C 0.67463 0.64945 0.82293 0.0
C1662 C 0.66011 0.61325 0.82526 0.0
C1663 C 0.63352 0.59093 0.79509 0.0
C1664 C 0.68739 0.59997 0.82574 0.0
C1665 C 0.64525 0.61729 0.86071 0.0
C1666 C 0.65171 0.65061 0.87647 0.0
C1667 C 0.64111 0.6609 0.9095 0.0
C1668 C 0.62248 0.63622 0.92663 0.0
C1669 C 0.61435 0.60185 0.91025 0.0
C1670 C 0.62626 0.59231 0.87717 0.0
H1671 H 0.3345 0.58624 0.83537 0.0
H1672 H 0.39539 0.69225 0.84893 0.0
H1673 H 0.42384 0.69256 0.90245 0.0
H1674 H 0.32814 0.58186 0.9247 0.0
H1675 H 0.3368 0.54481 0.92044 0.0
H1676 H 0.31557 0.5492 0.88469 0.0
H1677 H 0.35595 0.54454 0.83871 0.0
H1678 H 0.37633 0.53344 0.86936 0.0
H1679 H 0.39978 0.56737 0.84958 0.0
H1680 H 0.45443 0.67763 0.94398 0.0
H1681 H 0.48347 0.64946 0.96859 0.0
H1682 H 0.40131 0.55359 0.92936 0.0
C1683 C 0.3532 0.60976 0.85018 0.0
C1684 C 0.36291 0.63913 0.83811 0.0
C1685 C 0.38741 0.6695 0.85807 0.0
C1686 C 0.40367 0.66986 0.88845 0.0
C1687 C 0.39484 0.63974 0.89843 0.0
C1688 C 0.36999 0.6103 0.87979 0.0
C1689 C 0.36881 0.58007 0.89123 0.0
C1690 C 0.33545 0.56301 0.90628 0.0
C1691 C 0.37564 0.55493 0.86041 0.0
C1692 C 0.39725 0.59685 0.91908 0.0
C1693 C 0.41205 0.6313 0.92301 0.0
C1694 C 0.44245 0.65093 0.94213 0.0
C1695 C 0.45877 0.63475 0.95613 0.0
C1696 C 0.44454 0.59936 0.95083 0.0
C1697 C 0.41262 0.58071 0.93391 0.0
H1698 H 0.36964 0.31532 0.78264 0.0
H1699 H 0.28942 0.32149 0.84696 0.0
H1700 H 0.32933 0.35581 0.89851 0.0
H1701 H 0.42956 0.32113 0.84833 0.0
H1702 H 0.46404 0.35081 0.83179 0.0
H1703 H 0.4292 0.32065 0.80219 0.0
H1704 H 0.42135 0.3689 0.783 0.0
H1705 H 0.45644 0.3991 0.81203 0.0
H1706 H 0.41704 0.40268 0.81619 0.0
H1707 H 0.37847 0.38616 0.94351 0.0
H1708 H 0.43192 0.42859 0.9732 0.0
H1709 H 0.47914 0.41506 0.87476 0.0
C1710 C 0.36068 0.32328 0.80796 0.0
C1711 C 0.32664 0.31369 0.81227 0.0
C1712 C 0.31547 0.32685 0.84436 0.0
C1713 C 0.33787 0.34623 0.87361 0.0
C1714 C 0.37142 0.35401 0.86921 0.0
C1715 C 0.38286 0.34446 0.83668 0.0
C1716 C 0.41997 0.36237 0.83684 0.0
C1717 C 0.43667 0.33723 0.82935 0.0
C1718 C 0.42924 0.38459 0.81047 0.0
C1719 C 0.42763 0.38328 0.87462 0.0
C1720 C 0.39949 0.37684 0.89325 0.0
C1721 C 0.40055 0.39218 0.92898 0.0
C1722 C 0.43095 0.41632 0.94554 0.0
C1723 C 0.4591 0.42617 0.92572 0.0
C1724 C 0.4577 0.4085 0.89024 0.0
H1725 H 0.67628 0.35133 0.83751 0.0
H1726 H 0.65016 0.29156 0.91437 0.0
H1727 H 0.65837 0.34275 0.96156 0.0
H1728 H 0.73619 0.43477 0.89865 0.0
H1729 H 0.72022 0.45743 0.87718 0.0
H1730 H 0.72323 0.41908 0.85227 0.0
H1731 H 0.66085 0.39476 0.83241 0.0
H1732 H 0.65772 0.43258 0.85733 0.0
H1733 H 0.63099 0.3928 0.86545 0.0
H1734 H 0.65321 0.39467 0.99562 0.0
H1735 H 0.63417 0.44114 0.01184 0.0
H1736 H 0.66673 0.46839 0.91435 0.0
C1737 C 0.67416 0.34917 0.8645 0.0
C1738 C 0.6628 0.31746 0.87225 0.0
C1739 C 0.65874 0.3156 0.90778 0.0
C1740 C 0.66379 0.34464 0.93481 0.0
C1741 C 0.67337 0.37534 0.92593 0.0
C1742 C 0.67901 0.37779 0.89153 0.0
C1743 C 0.68238 0.41161 0.88714 0.0
C1744 C 0.71762 0.43191 0.8783 0.0
C1745 C 0.65644 0.40766 0.85899 0.0
C1746 C 0.67549 0.42701 0.92382 0.0
C1747 C 0.67116 0.40615 0.94621 0.0
C1748 C 0.65801 0.41193 0.97901 0.0
C1749 C 0.64736 0.43841 0.98817 0.0
C1750 C 0.65004 0.45845 0.96453 0.0
C1751 C 0.66608 0.45408 0.93325 0.0
H1752 H 0.66625 0.32547 0.10957 0.0
H1753 H 0.71494 0.42469 0.1804 0.0
H1754 H 0.67755 0.44432 0.15636 0.0
H1755 H 0.65335 0.35352 0.03533 0.0
H1756 H 0.61271 0.32113 0.02113 0.0
H1757 H 0.64204 0.31289 0.04422 0.0
H1758 H 0.60052 0.29614 0.09165 0.0
H1759 H 0.57069 0.3034 0.06823 0.0
H1760 H 0.58237 0.32477 0.11414 0.0
H1761 H 0.63959 0.45512 0.12328 0.0
H1762 H 0.59482 0.45461 0.08705 0.0
H1763 H 0.56728 0.34845 0.0381 0.0
C1764 C 0.66875 0.35121 0.11989 0.0
C1765 C 0.69388 0.37398 0.14607 0.0
C1766 C 0.69636 0.40732 0.15959 0.0
C1767 C 0.67524 0.41864 0.14625 0.0
C1768 C 0.65164 0.39622 0.11953 0.0
C1769 C 0.64765 0.36307 0.10674 0.0
C1770 C 0.61978 0.34466 0.07793 0.0
C1771 C 0.63275 0.33232 0.04256 0.0
C1772 C 0.59168 0.31552 0.08865 0.0
C1773 C 0.60909 0.37279 0.07675 0.0
C1774 C 0.62828 0.40232 0.10077 0.0
C1775 C 0.62416 0.43219 0.10451 0.0
C1776 C 0.59896 0.43172 0.08377 0.0
C1777 C 0.57814 0.40156 0.06006 0.0
C1778 C 0.58329 0.37174 0.05602 0.0
H1779 H 0.6677 0.7017 0.17536 0.0
H1780 H 0.7381 0.65523 0.17076 0.0
H1781 H 0.70655 0.61119 0.11897 0.0
H1782 H 0.59905 0.63136 0.16011 0.0
H1783 H 0.57551 0.64217 0.1321 0.0
H1784 H 0.60752 0.67486 0.16301 0.0
H1785 H 0.63621 0.70123 0.11245 0.0
H1786 H 0.60407 0.66864 0.08114 0.0
H1787 H 0.64684 0.6758 0.07461 0.0
H1788 H 0.66173 0.56561 0.08076 0.0
H1789 H 0.6076 0.52309 0.05309 0.0
H1790 H 0.56657 0.59877 0.07597 0.0
C1791 C 0.67686 0.6828 0.16254 0.0
C1792 C 0.70527 0.68178 0.17674 0.0
C1793 C 0.71639 0.65642 0.1601 0.0
C1794 C 0.6988 0.63145 0.13048 0.0
C1795 C 0.67023 0.63231 0.11766 0.0
C1796 C 0.65952 0.65759 0.13264 0.0
C1797 C 0.62585 0.65011 0.1163 0.0
C1798 C 0.60051 0.64957 0.14456 0.0
C1799 C 0.6284 0.67545 0.09484 0.0
C1800 C 0.61813 0.61533 0.09234 0.0
C1801 C 0.64447 0.60594 0.09307 0.0
C1802 C 0.64151 0.57309 0.07833 0.0
C1803 C 0.6108 0.54913 0.06271 0.0
C1804 C 0.58395 0.55842 0.06087 0.0
C1805 C 0.58758 0.59186 0.07552 0.0
H1806 H 0.36196 0.67935 0.06959 0.0
H1807 H 0.31948 0.63935 0.15875 0.0
H1808 H 0.31279 0.58374 0.12595 0.0
H1809 H 0.32268 0.58988 -0.00346 0.0
H1810 H 0.36144 0.60205 0.97612 0.0
H1811 H 0.34478 0.63303 0.99449 0.0
H1812 H 0.40012 0.66955 0.03107 0.0
H1813 H 0.41647 0.63868 0.01349 0.0
H1814 H 0.41528 0.65241 0.06058 0.0
H1815 H 0.33509 0.54355 0.10122 0.0
H1816 H 0.37673 0.52031 0.08109 0.0
H1817 H 0.4089 0.58321 0.00805 0.0
C1818 C 0.34989 0.65851 0.08143 0.0
C1819 C 0.34208 0.66429 0.11693 0.0
C1820 C 0.32563 0.63629 0.13148 0.0
C1821 C 0.32168 0.60404 0.11288 0.0
C1822 C 0.33439 0.59999 0.07989 0.0
C1823 C 0.34721 0.62629 0.06359 0.0
C1824 C 0.36691 0.61815 0.03298 0.0
C1825 C 0.34768 0.61034 -0.00204 0.0
C1826 C 0.40173 0.64635 0.03476 0.0
C1827 C 0.36825 0.58653 0.03877 0.0
C1828 C 0.34774 0.57534 0.06463 0.0
C1829 C 0.34981 0.55086 0.07964 0.0
C1830 C 0.37374 0.53812 0.06849 0.0
C1831 C 0.39512 0.54997 0.04272 0.0
C1832 C 0.39167 0.57333 0.02679 0.0
H1833 H 0.34145 0.28834 0.15996 0.0
H1834 H 0.32205 0.35741 0.24796 0.0
H1835 H 0.35272 0.40471 0.22092 0.0
H1836 H 0.41997 0.34191 0.13798 0.0
H1837 H 0.40995 0.32653 0.09102 0.0
H1838 H 0.39046 0.29951 0.11974 0.0
H1839 H 0.33288 0.28972 0.09442 0.0
H1840 H 0.35207 0.31705 0.06589 0.0
H1841 H 0.32266 0.32528 0.09593 0.0
H1842 H 0.38517 0.44362 0.18384 0.0
H1843 H 0.41595 0.47173 0.13865 0.0
H1844 H 0.40486 0.3749 0.07068 0.0
C1845 C 0.34349 0.31339 0.1733 0.0
C1846 C 0.32932 0.31963 0.20555 0.0
C1847 C 0.33295 0.35263 0.22301 0.0
C1848 C 0.35011 0.3794 0.20785 0.0
C1849 C 0.3623 0.37219 0.17487 0.0
C1850 C 0.35885 0.33994 0.15764 0.0
C1851 C 0.37143 0.3383 0.12114 0.0
C1852 C 0.39964 0.32585 0.11727 0.0
C1853 C 0.34307 0.31628 0.09267 0.0
C1854 C 0.38364 0.37492 0.12098 0.0
C1855 C 0.3783 0.39409 0.15227 0.0
C1856 C 0.38904 0.42887 0.15899 0.0
C1857 C 0.40629 0.44455 0.13322 0.0
C1858 C 0.41195 0.42525 0.1011 0.0
C1859 C 0.39992 0.39002 0.09465 0.0
H1860 H 0.81648 0.702 0.64392 0.0
H1861 H 0.79453 0.66623 0.73927 0.0
H1862 H 0.82212 0.62782 0.71813 0.0
H1863 H 0.80728 0.62063 0.58351 0.0
H1864 H 0.84171 0.63867 0.55824 0.0
H1865 H 0.81865 0.66292 0.57931 0.0
H1866 H 0.87262 0.71019 0.61162 0.0
H1867 H 0.89586 0.6861 0.59075 0.0
H1868 H 0.8983 0.70042 0.63818 0.0
H1869 H 0.85281 0.59421 0.68941 0.0
H1870 H 0.88719 0.56769 0.6546 0.0
H1871 H 0.89272 0.62304 0.57607 0.0
C1872 C 0.81736 0.6859 0.66016 0.0
C1873 C 0.80303 0.68745 0.69352 0.0
C1874 C 0.80513 0.666 0.71387 0.0
C1875 C 0.82077 0.6438 0.70199 0.0
C1876 C 0.83478 0.64301 0.66953 0.0
C1877 C 0.83349 0.66344 0.64874 0.0
C1878 C 0.85209 0.65787 0.61547 0.0
C1879 C 0.82853 0.64421 0.58215 0.0
C1880 C 0.88146 0.6906 0.61392 0.0
C1881 C 0.86404 0.63139 0.62122 0.0
C1882 C 0.85338 0.62333 0.65265 0.0
C1883 C 0.86138 0.60036 0.66478 0.0
C1884 C 0.88117 0.58548 0.64479 0.0
C1885 C 0.89321 0.59328 0.61264 0.0
C1886 C 0.88396 0.61634 0.60043 0.0
H1887 H 0.31299 0.78616 0.64007 0.0
H1888 H 0.32463 0.84144 0.74949 0.0
H1889 H 0.36255 0.89317 0.73444 0.0
H1890 H 0.39849 0.82979 0.62228 0.0
H1891 H 0.38899 0.82985 0.57794 0.0
H1892 H 0.36221 0.79677 0.59711 0.0
H1893 H 0.31216 0.81004 0.58476 0.0
H1894 H 0.33865 0.84304 0.56533 0.0
H1895 H 0.31426 0.85226 0.60118 0.0
H1896 H 0.39803 0.93903 0.70792 0.0
H1897 H 0.43173 0.97647 0.67161 0.0
H1898 H 0.39809 0.89274 0.57829 0.0
C1899 C 0.32321 0.80937 0.66059 0.0
C1900 C 0.31583 0.81005 0.6961 0.0
C1901 C 0.33061 0.84038 0.72249 0.0
C1902 C 0.35178 0.87 0.71402 0.0
C1903 C 0.35841 0.86879 0.67886 0.0
C1904 C 0.34486 0.83932 0.6525 0.0
C1905 C 0.35756 0.84501 0.61709 0.0
C1906 C 0.37803 0.82412 0.60276 0.0
C1907 C 0.32894 0.83713 0.59053 0.0
C1908 C 0.37937 0.88244 0.62764 0.0
C1909 C 0.37957 0.89548 0.66348 0.0
C1910 C 0.39812 0.9292 0.67978 0.0
C1911 C 0.41719 0.95029 0.65894 0.0
C1912 C 0.41747 0.93766 0.62212 0.0
C1913 C 0.39818 0.90323 0.60633 0.0
H1914 H 0.14632 0.32326 0.58172 0.0
H1915 H 0.21739 0.40297 0.6618 0.0
H1916 H 0.18712 0.43924 0.66125 0.0
H1917 H 0.13301 0.37351 0.53175 0.0
H1918 H 0.08899 0.34972 0.52331 0.0
H1919 H 0.11534 0.32935 0.53064 0.0
H1920 H 0.08058 0.30954 0.58168 0.0
H1921 H 0.05385 0.32947 0.57414 0.0
H1922 H 0.07381 0.34003 0.61733 0.0
H1923 H 0.15238 0.46828 0.64852 0.0
H1924 H 0.1116 0.48688 0.62962 0.0
H1925 H 0.0595 0.38711 0.56086 0.0
C1926 C 0.15516 0.34824 0.59933 0.0
C1927 C 0.18417 0.36053 0.62181 0.0
C1928 C 0.19513 0.39321 0.6446 0.0
C1929 C 0.17817 0.41395 0.64434 0.0
C1930 C 0.14994 0.40139 0.62157 0.0
C1931 C 0.13804 0.36908 0.59997 0.0
C1932 C 0.10673 0.36177 0.57851 0.0
C1933 C 0.11131 0.35309 0.53869 0.0
C1934 C 0.07698 0.33353 0.58852 0.0
C1935 C 0.10359 0.39541 0.5906 0.0
C1936 C 0.12884 0.41781 0.61541 0.0
C1937 C 0.13206 0.45076 0.6297 0.0
C1938 C 0.10856 0.46102 0.61892 0.0
C1939 C 0.08176 0.4384 0.59427 0.0
C1940 C 0.07956 0.40514 0.57976 0.0
H1941 H 0.69773 0.20536 0.63216 0.0
H1942 H 0.74796 0.1443 0.64991 0.0
H1943 H 0.71364 0.09834 0.60029 0.0
H1944 H 0.62306 0.15083 0.62507 0.0
H1945 H 0.60624 0.16138 0.59061 0.0
H1946 H 0.64147 0.19253 0.61799 0.0
H1947 H 0.67541 0.20186 0.56312 0.0
H1948 H 0.63948 0.17114 0.53536 0.0
H1949 H 0.67831 0.16638 0.53157 0.0
H1950 H 0.66492 0.05531 0.55998 0.0
H1951 H 0.60715 0.02016 0.53623 0.0
H1952 H 0.58748 0.10944 0.54786 0.0
C1953 C 0.7019 0.18271 0.62561 0.0
C1954 C 0.72394 0.1779 0.64668 0.0
C1955 C 0.72995 0.14819 0.63558 0.0
C1956 C 0.71098 0.12213 0.60683 0.0
C1957 C 0.6871 0.1268 0.58872 0.0
C1958 C 0.68312 0.15686 0.59736 0.0
C1959 C 0.65251 0.15435 0.57855 0.0
C1960 C 0.6295 0.16536 0.60463 0.0
C1961 C 0.66199 0.17463 0.55048 0.0
C1962 C 0.63753 0.11712 0.56146 0.0
C1963 C 0.65871 0.10193 0.56576 0.0
C1964 C 0.64864 0.06707 0.55559 0.0
C1965 C 0.61585 0.04733 0.54222 0.0
C1966 C 0.59353 0.06257 0.54027 0.0
C1967 C 0.60465 0.09769 0.54873 0.0
H1968 H 0.83556 0.35372 0.30502 0.0
H1969 H 0.80125 0.27768 0.36401 0.0
H1970 H 0.83634 0.31918 0.41651 0.0
H1971 H 0.91526 0.38481 0.33228 0.0
H1972 H 0.92416 0.42819 0.33406 0.0
H1973 H 0.89092 0.39531 0.30486 0.0
H1974 H 0.8501 0.42134 0.33375 0.0
H1975 H 0.88336 0.45445 0.36333 0.0
H1976 H 0.84653 0.42883 0.38079 0.0
H1977 H 0.88115 0.36595 0.45854 0.0
H1978 H 0.93507 0.41158 0.48398 0.0
H1979 H 0.93974 0.45559 0.39607 0.0
C1980 C 0.83454 0.34616 0.32932 0.0
C1981 C 0.81548 0.31299 0.331 0.0
C1982 C 0.81567 0.30334 0.36269 0.0
C1983 C 0.83514 0.32677 0.39258 0.0
C1984 C 0.85403 0.35947 0.38998 0.0
C1985 C 0.85382 0.36908 0.35902 0.0
C1986 C 0.87989 0.4037 0.36077 0.0
C1987 C 0.90397 0.40291 0.33128 0.0
C1988 C 0.86401 0.42855 0.35961 0.0
C1989 C 0.89637 0.41125 0.39668 0.0
C1990 C 0.88048 0.38609 0.41378 0.0
C1991 C 0.89336 0.38617 0.44583 0.0
C1992 C 0.92382 0.41204 0.46011 0.0
C1993 C 0.94091 0.43666 0.44174 0.0
C1994 C 0.92665 0.43688 0.41042 0.0
H1995 H 0.74701 0.84368 0.33273 0.0
H1996 H 0.66629 0.74974 0.28308 0.0
H1997 H 0.62601 0.7739 0.30746 0.0
H1998 H 0.70129 0.85907 0.41446 0.0
H1999 H 0.71953 0.90407 0.42072 0.0
H2000 H 0.74229 0.87914 0.40069 0.0
H2001 H 0.74976 0.90425 0.34674 0.0
H2002 H 0.72675 0.92896 0.36626 0.0
H2003 H 0.71385 0.90086 0.32283 0.0
H2004 H 0.59448 0.80898 0.3324 0.0
H2005 H 0.57256 0.85098 0.36097 0.0
H2006 H 0.67234 0.92318 0.39866 0.0
C2007 C 0.7208 0.82821 0.32738 0.0
C2008 C 0.7097 0.79477 0.30567 0.0
C2009 C 0.67531 0.77522 0.29962 0.0
C2010 C 0.65225 0.78882 0.31333 0.0
C2011 C 0.66378 0.82186 0.33411 0.0
C2012 C 0.6972 0.84114 0.34198 0.0
C2013 C 0.70248 0.87569 0.36599 0.0
C2014 C 0.71728 0.87973 0.40263 0.0
C2015 C 0.7245 0.90411 0.34944 0.0
C2016 C 0.66696 0.87356 0.36807 0.0
C2017 C 0.6452 0.842 0.3498 0.0
C2018 C 0.61127 0.8337 0.347 0.0
C2019 C 0.59903 0.85804 0.36315 0.0
C2020 C 0.62042 0.89087 0.38202 0.0
C2021 C 0.65503 0.89843 0.38474 0.0
H2022 H 0.16935 0.65705 0.26788 0.0
H2023 H 0.24219 0.73656 0.34641 0.0
H2024 H 0.22073 0.70397 0.39116 0.0
H2025 H 0.10307 0.63963 0.32986 0.0
H2026 H 0.08513 0.59528 0.30867 0.0
H2027 H 0.10637 0.62512 0.28324 0.0
H2028 H 0.14505 0.5938 0.2622 0.0
H2029 H 0.12374 0.56395 0.28753 0.0
H2030 H 0.16794 0.58691 0.2946 0.0
H2031 H 0.19203 0.66121 0.42679 0.0
H2032 H 0.15602 0.61394 0.45131 0.0
H2033 H 0.10056 0.56394 0.34974 0.0
C2034 C 0.18029 0.66774 0.29471 0.0
C2035 C 0.20715 0.69928 0.30398 0.0
C2036 C 0.22123 0.71259 0.33908 0.0
C2037 C 0.20932 0.69418 0.36456 0.0
C2038 C 0.18284 0.66292 0.3546 0.0
C2039 C 0.16807 0.65015 0.32067 0.0
C2040 C 0.13919 0.61661 0.31702 0.0
C2041 C 0.10651 0.61933 0.30924 0.0
C2042 C 0.14432 0.58868 0.28865 0.0
C2043 C 0.14095 0.61174 0.3537 0.0
C2044 C 0.16611 0.63879 0.37513 0.0
C2045 C 0.17216 0.63998 0.41028 0.0
C2046 C 0.15165 0.61302 0.42397 0.0
C2047 C 0.12562 0.58518 0.40243 0.0
C2048 C 0.12047 0.58466 0.36683 0.0
H2049 H 0.43489 0.20914 0.39082 0.0
H2050 H 0.34473 0.13279 0.33296 0.0
H2051 H 0.355 0.08941 0.35374 0.0
H2052 H 0.4842 0.16893 0.37286 0.0
H2053 H 0.50585 0.18126 0.41549 0.0
H2054 H 0.48775 0.20747 0.40415 0.0
H2055 H 0.45377 0.2047 0.45939 0.0
H2056 H 0.47238 0.17898 0.47143 0.0
H2057 H 0.428 0.16437 0.46691 0.0
H2058 H 0.38089 0.05351 0.3696 0.0
H2059 H 0.41768 0.02802 0.38389 0.0
H2060 H 0.49136 0.1275 0.43239 0.0
C2061 C 0.41662 0.18347 0.38393 0.0
C2062 C 0.38885 0.17424 0.3605 0.0
C2063 C 0.36576 0.14041 0.35135 0.0
C2064 C 0.3715 0.11561 0.36296 0.0
C2065 C 0.40001 0.12519 0.38451 0.0
C2066 C 0.4217 0.15851 0.39593 0.0
C2067 C 0.45182 0.16169 0.41665 0.0
C2068 C 0.4843 0.18094 0.40132 0.0
C2069 C 0.45147 0.17843 0.45592 0.0
C2070 C 0.44552 0.12485 0.41144 0.0
C2071 C 0.41497 0.10427 0.39393 0.0
C2072 C 0.40457 0.06938 0.38391 0.0
C2073 C 0.4259 0.05513 0.39172 0.0
C2074 C 0.45764 0.07562 0.40904 0.0
C2075 C 0.46715 0.11099 0.41956 0.0
H2076 H 0.63036 0.8054 0.56158 0.0
H2077 H 0.64188 0.82981 0.67617 0.0
H2078 H 0.62343 0.87554 0.67989 0.0
H2079 H 0.65409 0.89048 0.55181 0.0
H2080 H 0.62286 0.87784 0.5167 0.0
H2081 H 0.64011 0.84884 0.52262 0.0
H2082 H 0.58111 0.80518 0.5268 0.0
H2083 H 0.56379 0.83416 0.52109 0.0
H2084 H 0.55492 0.8169 0.5591 0.0
H2085 H 0.59997 0.91578 0.67209 0.0
H2086 H 0.57308 0.94831 0.65315 0.0
H2087 H 0.57597 0.89836 0.54351 0.0
C2088 C 0.62907 0.82028 0.58751 0.0
C2089 C 0.63819 0.81396 0.61852 0.0
C2090 C 0.63612 0.83442 0.65185 0.0
C2091 C 0.62532 0.86041 0.65433 0.0
C2092 C 0.61628 0.86561 0.62334 0.0
C2093 C 0.61794 0.84616 0.59054 0.0
C2094 C 0.60494 0.85594 0.56149 0.0
C2095 C 0.63214 0.86906 0.5367 0.0
C2096 C 0.57438 0.82628 0.54091 0.0
C2097 C 0.59569 0.88388 0.58321 0.0
C2098 C 0.60252 0.889 0.6188 0.0
C2099 C 0.59497 0.9124 0.64425 0.0
C2100 C 0.57992 0.93103 0.63311 0.0
C2101 C 0.57273 0.92649 0.59671 0.0
C2102 C 0.58097 0.90256 0.57152 0.0
H2103 H 0.69591 0.21761 0.34239 0.0
H2104 H 0.73711 0.15944 0.26497 0.0
H2105 H 0.71445 0.11252 0.29385 0.0
H2106 H 0.70405 0.18852 0.41873 0.0
H2107 H 0.66414 0.18627 0.43351 0.0
H2108 H 0.68697 0.21635 0.40891 0.0
H2109 H 0.637 0.19238 0.36312 0.0
H2110 H 0.61395 0.16216 0.38744 0.0
H2111 H 0.61989 0.14812 0.34145 0.0
H2112 H 0.68241 0.07016 0.32806 0.0
H2113 H 0.64487 0.03592 0.36526 0.0
H2114 H 0.62346 0.1214 0.42029 0.0
C2115 C 0.70093 0.19531 0.33208 0.0
C2116 C 0.72009 0.19284 0.30255 0.0
C2117 C 0.72482 0.16279 0.28895 0.0
C2118 C 0.71127 0.13574 0.30482 0.0
C2119 C 0.69252 0.13905 0.33397 0.0
C2120 C 0.68723 0.16807 0.34736 0.0
C2121 C 0.66394 0.16439 0.37699 0.0
C2122 C 0.6808 0.19043 0.41159 0.0
C2123 C 0.6318 0.16691 0.36663 0.0
C2124 C 0.65764 0.129 0.37902 0.0
C2125 C 0.67399 0.11467 0.35359 0.0
C2126 C 0.67004 0.08134 0.34847 0.0
C2127 C 0.64879 0.06214 0.36975 0.0
C2128 C 0.63222 0.07643 0.39623 0.0
C2129 C 0.63687 0.11035 0.40109 0.0
H2130 H 0.87126 0.66654 0.41906 0.0
H2131 H 0.81837 0.60059 0.31996 0.0
H2132 H 0.85169 0.56685 0.31746 0.0
H2133 H 0.95224 0.66488 0.39426 0.0
H2134 H 0.96439 0.66615 0.4382 0.0
H2135 H 0.93678 0.68554 0.43199 0.0
H2136 H 0.89414 0.64976 0.46863 0.0
H2137 H 0.92148 0.62999 0.47449 0.0
H2138 H 0.87987 0.60457 0.45553 0.0
H2139 H 0.88642 0.53735 0.32816 0.0
H2140 H 0.92598 0.51747 0.34713 0.0
H2141 H 0.96136 0.60556 0.43629 0.0
C2142 C 0.86689 0.64505 0.39683 0.0
C2143 C 0.84211 0.63594 0.36975 0.0
C2144 C 0.83727 0.60796 0.34086 0.0
C2145 C 0.85596 0.5886 0.3393 0.0
C2146 C 0.87983 0.59787 0.36655 0.0
C2147 C 0.8859 0.62579 0.39445 0.0
C2148 C 0.91371 0.63048 0.41974 0.0
C2149 C 0.94354 0.66373 0.42111 0.0
C2150 C 0.90156 0.62857 0.45678 0.0
C2151 C 0.92161 0.60034 0.40201 0.0
C2152 C 0.90155 0.58183 0.37156 0.0
C2153 C 0.9029 0.55207 0.35147 0.0
C2154 C 0.92578 0.54113 0.36237 0.0
C2155 C 0.94762 0.56017 0.39281 0.0
C2156 C 0.9452 0.59019 0.41292 0.0
H2157 H 0.29514 0.82169 0.37633 0.0
H2158 H 0.34401 0.82153 0.27912 0.0
H2159 H 0.39643 0.86199 0.31012 0.0
H2160 H 0.3383 0.91211 0.41434 0.0
H2161 H 0.34221 0.90862 0.4587 0.0
H2162 H 0.308 0.87751 0.42894 0.0
H2163 H 0.32431 0.83053 0.43924 0.0
H2164 H 0.35875 0.86155 0.46883 0.0
H2165 H 0.36563 0.83278 0.4313 0.0
H2166 H 0.44269 0.90193 0.34965 0.0
H2167 H 0.48253 0.94347 0.39754 0.0
H2168 H 0.40543 0.92378 0.47172 0.0
C2169 C 0.31689 0.83078 0.36183 0.0
C2170 C 0.31583 0.81869 0.3248 0.0
C2171 C 0.34459 0.83065 0.30686 0.0
C2172 C 0.37446 0.85363 0.32449 0.0
C2173 C 0.37503 0.8654 0.36062 0.0
C2174 C 0.34717 0.85498 0.37939 0.0
C2175 C 0.35541 0.87307 0.41826 0.0
C2176 C 0.33475 0.89408 0.43078 0.0
C2177 C 0.35075 0.84799 0.44074 0.0
C2178 C 0.39183 0.89538 0.41763 0.0
C2179 C 0.40245 0.88991 0.38404 0.0
C2180 C 0.43484 0.90682 0.3762 0.0
C2181 C 0.45724 0.93049 0.40355 0.0
C2182 C 0.44702 0.93731 0.43821 0.0
C2183 C 0.41389 0.91932 0.44538 0.0
H2184 H 0.17359 0.27721 0.29722 0.0
H2185 H 0.27448 0.35224 0.31474 0.0
H2186 H 0.25465 0.39482 0.34777 0.0
H2187 H 0.1331 0.32796 0.28508 0.0
H2188 H 0.09805 0.31192 0.3105 0.0
H2189 H 0.11913 0.28555 0.29005 0.0
H2190 H 0.12988 0.27514 0.34896 0.0
H2191 H 0.10771 0.30022 0.37034 0.0
H2192 H 0.14935 0.3104 0.38624 0.0
H2193 H 0.22395 0.43056 0.37514 0.0
H2194 H 0.18529 0.45643 0.39926 0.0
H2195 H 0.10318 0.35883 0.36816 0.0
C2196 C 0.19146 0.30261 0.30809 0.0
C2197 C 0.22574 0.31132 0.30313 0.0
C2198 C 0.24825 0.34476 0.31824 0.0
C2199 C 0.23715 0.36925 0.33699 0.0
C2200 C 0.20335 0.36004 0.34113 0.0
C2201 C 0.1808 0.32742 0.32771 0.0
C2202 C 0.14591 0.32434 0.33703 0.0
C2203 C 0.12269 0.31174 0.30364 0.0
C2204 C 0.13241 0.30115 0.36213 0.0
C2205 C 0.15217 0.36069 0.35588 0.0
C2206 C 0.18561 0.38063 0.35824 0.0
C2207 C 0.19777 0.41505 0.37395 0.0
C2208 C 0.17543 0.42953 0.38789 0.0
C2209 C 0.14088 0.40991 0.38646 0.0
C2210 C 0.12927 0.37482 0.36989 0.0
H2211 H 0.35141 0.22833 0.6769 0.0
H2212 H 0.26557 0.14724 0.70024 0.0
H2213 H 0.2875 0.10624 0.6697 0.0
H2214 H 0.37101 0.18366 0.593 0.0
H2215 H 0.41494 0.20075 0.60408 0.0
H2216 H 0.39086 0.22453 0.62312 0.0
H2217 H 0.41202 0.22905 0.68562 0.0
H2218 H 0.436 0.20509 0.66687 0.0
H2219 H 0.40637 0.19125 0.69854 0.0
H2220 H 0.31689 0.07313 0.63732 0.0
H2221 H 0.35658 0.04944 0.61114 0.0
H2222 H 0.42949 0.15 0.61493 0.0
C2223 C 0.33693 0.20184 0.67455 0.0
C2224 C 0.30545 0.19096 0.68898 0.0
C2225 C 0.2886 0.15626 0.68765 0.0
C2226 C 0.30103 0.13259 0.67059 0.0
C2227 C 0.33165 0.1438 0.65647 0.0
C2228 C 0.35005 0.17757 0.65908 0.0
C2229 C 0.38435 0.18239 0.6458 0.0
C2230 C 0.39066 0.1988 0.61463 0.0
C2231 C 0.41128 0.20319 0.676 0.0
C2232 C 0.3815 0.14599 0.6342 0.0
C2233 C 0.3506 0.12441 0.64055 0.0
C2234 C 0.34126 0.08972 0.63227 0.0
C2235 C 0.36401 0.07645 0.61716 0.0
C2236 C 0.39619 0.09761 0.61055 0.0
C2237 C 0.40512 0.13307 0.61956 0.0
H2238 H 0.81109 0.27845 0.6339 0.0
H2239 H 0.82287 0.34 0.74069 0.0
H2240 H 0.86057 0.38947 0.72226 0.0
H2241 H 0.89407 0.32142 0.60721 0.0
H2242 H 0.88017 0.3196 0.56374 0.0
H2243 H 0.8564 0.28757 0.58575 0.0
H2244 H 0.80453 0.29992 0.57837 0.0
H2245 H 0.82825 0.33183 0.55618 0.0
H2246 H 0.80699 0.34227 0.59451 0.0
H2247 H 0.89513 0.43224 0.69345 0.0
H2248 H 0.92526 0.4682 0.65484 0.0
H2249 H 0.88911 0.38222 0.56366 0.0
C2250 C 0.82225 0.30231 0.65331 0.0
C2251 C 0.81637 0.30494 0.68945 0.0
C2252 C 0.82993 0.33671 0.71385 0.0
C2253 C 0.85057 0.36524 0.70331 0.0
C2254 C 0.85651 0.36188 0.66781 0.0
C2255 C 0.84262 0.33147 0.64294 0.0
C2256 C 0.85202 0.33585 0.60617 0.0
C2257 C 0.87185 0.31487 0.58976 0.0
C2258 C 0.8211 0.32693 0.5824 0.0
C2259 C 0.87347 0.3734 0.61461 0.0
C2260 C 0.87548 0.38761 0.65043 0.0
C2261 C 0.89375 0.42157 0.66529 0.0
C2262 C 0.91077 0.4418 0.64303 0.0
C2263 C 0.90948 0.42814 0.60615 0.0
C2264 C 0.89033 0.39343 0.59169 0.0
H2265 H 0.18895 0.70503 0.64373 0.0
H2266 H 0.2067 0.63682 0.69478 0.0
H2267 H 0.17671 0.58938 0.64541 0.0
H2268 H 0.10581 0.65126 0.62169 0.0
H2269 H 0.1031 0.66183 0.58066 0.0
H2270 H 0.13289 0.69176 0.61548 0.0
H2271 H 0.17918 0.69518 0.57173 0.0
H2272 H 0.14938 0.66405 0.5372 0.0
H2273 H 0.18477 0.65742 0.54965 0.0
H2274 H 0.14453 0.54905 0.59357 0.0
H2275 H 0.0937 0.51509 0.55501 0.0
H2276 H 0.08739 0.60581 0.5415 0.0
C2277 C 0.18681 0.68014 0.64417 0.0
C2278 C 0.2019 0.67498 0.67211 0.0
C2279 C 0.1968 0.64176 0.67285 0.0
C2280 C 0.18018 0.61457 0.64465 0.0
C2281 C 0.16726 0.62058 0.61652 0.0
C2282 C 0.16877 0.65216 0.61678 0.0
C2283 C 0.14605 0.65006 0.58738 0.0
C2284 C 0.12044 0.66455 0.6022 0.0
C2285 C 0.16605 0.66774 0.55986 0.0
C2286 C 0.13021 0.61224 0.57227 0.0
C2287 C 0.14467 0.59612 0.58801 0.0
C2288 C 0.13314 0.56123 0.58068 0.0
C2289 C 0.10442 0.54215 0.5587 0.0
C2290 C 0.08739 0.5582 0.54543 0.0
C2291 C 0.10093 0.5934 0.55084 0.0
loop_
_geom_bond_atom_site_label_1
_geom_bond_atom_site_label_2
_geom_bond_distance
_geom_bond_site_symmetry_2
_ccdc_geom_bond_type
Tb0 N29 2.617 . S
Tb0 N35 2.572 . S
Tb0 O44 2.465 . S
Tb0 O45 2.387 . S
Tb0 O47 2.428 . S
Tb0 O48 2.308 . S
Tb0 O52 2.349 . S
Tb0 O55 2.393 . S
Tb0 C64 2.802 . S
C1 N2 1.379 . S
C1 C4 1.416 . S
C1 C8 1.424 . S
N2 C1 1.379 . S
N2 C5 1.334 . S
N2 Tb11 2.617 . S
C3 C5 1.390 . S
C3 C6 1.339 . S
C3 H23 0.930 . S
C4 C1 1.416 . S
C4 C6 1.416 . S
C4 C10 1.448 . S
C5 N2 1.334 . S
C5 C3 1.390 . S
C5 H16 0.930 . S
C6 C3 1.339 . S
C6 C4 1.416 . S
C6 H27 0.930 . S
C7 C8 1.413 . S
C7 C9 1.427 . S
C7 C13 1.416 . S
C8 C1 1.424 . S
C8 C7 1.413 . S
C8 N12 1.361 . S
C9 C7 1.427 . S
C9 C10 1.328 . S
C9 H24 0.929 . S
C10 C4 1.448 . S
C10 C9 1.328 . S
C10 H25 0.930 . S
Tb11 N2 2.617 . S
Tb11 N12 2.572 . S
Tb11 O46 2.349 . S
Tb11 O49 2.393 . S
Tb11 O50 2.465 . S
Tb11 O51 2.387 . S
Tb11 O53 2.428 . S
Tb11 O54 2.308 . S
Tb11 C75 2.802 . S
N12 C8 1.361 . S
N12 Tb11 2.572 . S
N12 C14 1.340 . S
C13 C7 1.416 . S
C13 C15 1.332 . S
C13 H21 0.931 . S
C14 N12 1.340 . S
C14 C15 1.407 . S
C14 H20 0.930 . S
C15 C13 1.332 . S
C15 C14 1.407 . S
C15 H17 0.929 . S
H16 C5 0.930 . S
H17 C15 0.929 . S
H18 C33 0.930 . S
H19 C40 0.929 . S
H20 C14 0.930 . S
H21 C13 0.931 . S
H22 C36 0.930 . S
H23 C3 0.930 . S
H24 C9 0.929 . S
H25 C10 0.930 . S
H26 C31 0.930 . S
H27 C6 0.930 . S
H28 C39 0.931 . S
N29 Tb0 2.617 . S
N29 C30 1.379 . S
N29 C33 1.334 . S
C30 N29 1.379 . S
C30 C32 1.416 . S
C30 C38 1.424 . S
C31 H26 0.930 . S
C31 C33 1.390 . S
C31 C34 1.339 . S
C32 C30 1.416 . S
C32 C34 1.416 . S
C32 C65 1.448 . S
C33 H18 0.930 . S
C33 N29 1.334 . S
C33 C31 1.390 . S
C34 C31 1.339 . S
C34 C32 1.416 . S
C34 H41 0.930 . S
N35 Tb0 2.572 . S
N35 C36 1.340 . S
N35 C38 1.361 . S
C36 H22 0.930 . S
C36 N35 1.340 . S
C36 C40 1.407 . S
C37 C38 1.413 . S
C37 C39 1.416 . S
C37 C66 1.427 . S
C38 C30 1.424 . S
C38 N35 1.361 . S
C38 C37 1.413 . S
C39 H28 0.931 . S
C39 C37 1.416 . S
C39 C40 1.332 . S
C40 H19 0.929 . S
C40 C36 1.407 . S
C40 C39 1.332 . S
H41 C34 0.930 . S
H42 C65 0.930 . S
H43 C66 0.929 . S
O44 Tb0 2.465 . S
O44 C64 1.264 . S
O45 Tb0 2.387 . S
O45 C56 1.264 . S
O46 Tb11 2.349 . S
O46 C56 1.243 . S
O47 Tb0 2.428 . S
O47 C64 1.256 . S
O48 Tb0 2.308 . S
O48 C63 1.266 . S
O49 Tb11 2.393 . S
O49 C63 1.248 . S
O50 Tb11 2.465 . S
O50 C75 1.264 . S
O51 Tb11 2.387 . S
O51 C67 1.264 . S
O52 Tb0 2.349 . S
O52 C67 1.243 . S
O53 Tb11 2.428 . S
O53 C75 1.256 . S
O54 Tb11 2.308 . S
O54 C74 1.266 . S
O55 Tb0 2.393 . S
O55 C74 1.248 . S
C56 O45 1.264 . S
C56 O46 1.243 . S
C57 C60 1.399 . S
C57 C62 1.383 . S
C57 C64 1.496 . S
C58 C59 1.399 . S
C58 C62 1.389 . S
C59 C58 1.399 . S
C59 C61 1.380 . S
C59 H76 0.929 . S
C60 C57 1.399 . S
C60 C61 1.392 . S
C60 H77 0.929 . S
C61 C59 1.380 . S
C61 C60 1.392 . S
C61 H78 0.929 . S
C62 C57 1.383 . S
C62 C58 1.389 . S
C62 H79 0.931 . S
C63 O48 1.266 . S
C63 O49 1.248 . S
C64 Tb0 2.802 . S
C64 O44 1.264 . S
C64 O47 1.256 . S
C64 C57 1.496 . S
C65 C32 1.448 . S
C65 H42 0.930 . S
C65 C66 1.328 . S
C66 C37 1.427 . S
C66 H43 0.929 . S
C66 C65 1.328 . S
C67 O51 1.264 . S
C67 O52 1.243 . S
C68 C71 1.399 . S
C68 C72 1.383 . S
C68 C75 1.496 . S
C69 C70 1.399 . S
C69 C72 1.389 . S
C70 C69 1.399 . S
C70 C73 1.380 . S
C70 H80 0.929 . S
C71 C68 1.399 . S
C71 C73 1.392 . S
C71 H81 0.929 . S
C72 C68 1.383 . S
C72 C69 1.389 . S
C72 H82 0.931 . S
C73 C70 1.380 . S
C73 C71 1.392 . S
C73 H83 0.929 . S
C74 O54 1.266 . S
C74 O55 1.248 . S
C75 Tb11 2.802 . S
C75 O50 1.264 . S
C75 O53 1.256 . S
C75 C68 1.496 . S
H76 C59 0.929 . S
H77 C60 0.929 . S
H78 C61 0.929 . S
H79 C62 0.931 . S
H80 C70 0.929 . S
H81 C71 0.929 . S
H82 C72 0.931 . S
H83 C73 0.929 . S
Tb84 N113 2.617 . S
Tb84 N119 2.572 . S
Tb84 O128 2.465 . S
Tb84 O129 2.387 . S
Tb84 O131 2.428 . S
Tb84 O132 2.308 . S
Tb84 O136 2.349 . S
Tb84 O139 2.393 . S
Tb84 C148 2.802 . S
C85 N86 1.379 . S
C85 C88 1.416 . S
C85 C92 1.424 . S
N86 C85 1.379 . S
N86 C89 1.334 . S
N86 Tb95 2.617 . S
C87 C89 1.390 . S
C87 C90 1.339 . S
C87 H107 0.930 . S
C88 C85 1.416 . S
C88 C90 1.416 . S
C88 C94 1.448 . S
C89 N86 1.334 . S
C89 C87 1.390 . S
C89 H100 0.930 . S
C90 C87 1.339 . S
C90 C88 1.416 . S
C90 H111 0.930 . S
C91 C92 1.413 . S
C91 C93 1.427 . S
C91 C97 1.416 . S
C92 C85 1.424 . S
C92 C91 1.413 . S
C92 N96 1.361 . S
C93 C91 1.427 . S
C93 C94 1.328 . S
C93 H108 0.929 . S
C94 C88 1.448 . S
C94 C93 1.328 . S
C94 H109 0.930 . S
Tb95 N86 2.617 . S
Tb95 N96 2.572 . S
Tb95 O130 2.349 . S
Tb95 O133 2.393 . S
Tb95 O134 2.465 . S
Tb95 O135 2.387 . S
Tb95 O137 2.428 . S
Tb95 O138 2.308 . S
Tb95 C159 2.802 . S
N96 C92 1.361 . S
N96 Tb95 2.572 . S
N96 C98 1.340 . S
C97 C91 1.416 . S
C97 C99 1.332 . S
C97 H105 0.931 . S
C98 N96 1.340 . S
C98 C99 1.407 . S
C98 H104 0.930 . S
C99 C97 1.332 . S
C99 C98 1.407 . S
C99 H101 0.929 . S
H100 C89 0.930 . S
H101 C99 0.929 . S
H102 C117 0.930 . S
H103 C124 0.929 . S
H104 C98 0.930 . S
H105 C97 0.931 . S
H106 C120 0.930 . S
H107 C87 0.930 . S
H108 C93 0.929 . S
H109 C94 0.930 . S
H110 C115 0.930 . S
H111 C90 0.930 . S
H112 C123 0.931 . S
N113 Tb84 2.617 . S
N113 C114 1.379 . S
N113 C117 1.334 . S
C114 N113 1.379 . S
C114 C116 1.416 . S
C114 C122 1.424 . S
C115 H110 0.930 . S
C115 C117 1.390 . S
C115 C118 1.339 . S
C116 C114 1.416 . S
C116 C118 1.416 . S
C116 C149 1.448 . S
C117 H102 0.930 . S
C117 N113 1.334 . S
C117 C115 1.390 . S
C118 C115 1.339 . S
C118 C116 1.416 . S
C118 H125 0.930 . S
N119 Tb84 2.572 . S
N119 C120 1.340 . S
N119 C122 1.361 . S
C120 H106 0.930 . S
C120 N119 1.340 . S
C120 C124 1.407 . S
C121 C122 1.413 . S
C121 C123 1.416 . S
C121 C150 1.427 . S
C122 C114 1.424 . S
C122 N119 1.361 . S
C122 C121 1.413 . S
C123 H112 0.931 . S
C123 C121 1.416 . S
C123 C124 1.332 . S
C124 H103 0.929 . S
C124 C120 1.407 . S
C124 C123 1.332 . S
H125 C118 0.930 . S
H126 C149 0.930 . S
H127 C150 0.929 . S
O128 Tb84 2.465 . S
O128 C148 1.264 . S
O129 Tb84 2.387 . S
O129 C140 1.264 . S
O130 Tb95 2.349 . S
O130 C140 1.243 . S
O131 Tb84 2.428 . S
O131 C148 1.256 . S
O132 Tb84 2.308 . S
O132 C147 1.266 . S
O133 Tb95 2.393 . S
O133 C147 1.248 . S
O134 Tb95 2.465 . S
O134 C159 1.264 . S
O135 Tb95 2.387 . S
O135 C151 1.264 . S
O136 Tb84 2.349 . S
O136 C151 1.243 . S
O137 Tb95 2.428 . S
O137 C159 1.256 . S
O138 Tb95 2.308 . S
O138 C158 1.266 . S
O139 Tb84 2.393 . S
O139 C158 1.248 . S
C140 O129 1.264 . S
C140 O130 1.243 . S
C141 C144 1.399 . S
C141 C146 1.383 . S
C141 C148 1.496 . S
C142 C143 1.399 . S
C142 C146 1.389 . S
C143 C142 1.399 . S
C143 C145 1.380 . S
C143 H160 0.929 . S
C144 C141 1.399 . S
C144 C145 1.392 . S
C144 H161 0.929 . S
C145 C143 1.380 . S
C145 C144 1.392 . S
C145 H162 0.929 . S
C146 C141 1.383 . S
C146 C142 1.389 . S
C146 H163 0.931 . S
C147 O132 1.266 . S
C147 O133 1.248 . S
C148 Tb84 2.802 . S
C148 O128 1.264 . S
C148 O131 1.256 . S
C148 C141 1.496 . S
C149 C116 1.448 . S
C149 H126 0.930 . S
C149 C150 1.328 . S
C150 C121 1.427 . S
C150 H127 0.929 . S
C150 C149 1.328 . S
C151 O135 1.264 . S
C151 O136 1.243 . S
C152 C155 1.399 . S
C152 C156 1.383 . S
C152 C159 1.496 . S
C153 C154 1.399 . S
C153 C156 1.389 . S
C154 C153 1.399 . S
C154 C157 1.380 . S
C154 H164 0.929 . S
C155 C152 1.399 . S
C155 C157 1.392 . S
C155 H165 0.929 . S
C156 C152 1.383 . S
C156 C153 1.389 . S
C156 H166 0.931 . S
C157 C154 1.380 . S
C157 C155 1.392 . S
C157 H167 0.929 . S
C158 O138 1.266 . S
C158 O139 1.248 . S
C159 Tb95 2.802 . S
C159 O134 1.264 . S
C159 O137 1.256 . S
C159 C152 1.496 . S
H160 C143 0.929 . S
H161 C144 0.929 . S
H162 C145 0.929 . S
H163 C146 0.931 . S
H164 C154 0.929 . S
H165 C155 0.929 . S
H166 C156 0.931 . S
H167 C157 0.929 . S
Tb168 N197 2.617 . S
Tb168 N203 2.572 . S
Tb168 O212 2.465 . S
Tb168 O213 2.387 . S
Tb168 O215 2.428 . S
Tb168 O216 2.308 . S
Tb168 O220 2.349 . S
Tb168 O223 2.393 . S
Tb168 C232 2.802 . S
C169 N170 1.379 . S
C169 C172 1.416 . S
C169 C176 1.424 . S
N170 C169 1.379 . S
N170 C173 1.334 . S
N170 Tb179 2.617 . S
C171 C173 1.390 . S
C171 C174 1.339 . S
C171 H191 0.930 . S
C172 C169 1.416 . S
C172 C174 1.416 . S
C172 C178 1.448 . S
C173 N170 1.334 . S
C173 C171 1.390 . S
C173 H184 0.930 . S
C174 C171 1.339 . S
C174 C172 1.416 . S
C174 H195 0.930 . S
C175 C176 1.413 . S
C175 C177 1.427 . S
C175 C181 1.416 . S
C176 C169 1.424 . S
C176 C175 1.413 . S
C176 N180 1.361 . S
C177 C175 1.427 . S
C177 C178 1.328 . S
C177 H192 0.929 . S
C178 C172 1.448 . S
C178 C177 1.328 . S
C178 H193 0.930 . S
Tb179 N170 2.617 . S
Tb179 N180 2.572 . S
Tb179 O214 2.349 . S
Tb179 O217 2.393 . S
Tb179 O218 2.465 . S
Tb179 O219 2.387 . S
Tb179 O221 2.428 . S
Tb179 O222 2.308 . S
Tb179 C243 2.802 . S
N180 C176 1.361 . S
N180 Tb179 2.572 . S
N180 C182 1.340 . S
C181 C175 1.416 . S
C181 C183 1.332 . S
C181 H189 0.931 . S
C182 N180 1.340 . S
C182 C183 1.407 . S
C182 H188 0.930 . S
C183 C181 1.332 . S
C183 C182 1.407 . S
C183 H185 0.929 . S
H184 C173 0.930 . S
H185 C183 0.929 . S
H186 C201 0.930 . S
H187 C208 0.929 . S
H188 C182 0.930 . S
H189 C181 0.931 . S
H190 C204 0.930 . S
H191 C171 0.930 . S
H192 C177 0.929 . S
H193 C178 0.930 . S
H194 C199 0.930 . S
H195 C174 0.930 . S
H196 C207 0.931 . S
N197 Tb168 2.617 . S
N197 C198 1.379 . S
N197 C201 1.334 . S
C198 N197 1.379 . S
C198 C200 1.416 . S
C198 C206 1.424 . S
C199 H194 0.930 . S
C199 C201 1.390 . S
C199 C202 1.339 . S
C200 C198 1.416 . S
C200 C202 1.416 . S
C200 C233 1.448 . S
C201 H186 0.930 . S
C201 N197 1.334 . S
C201 C199 1.390 . S
C202 C199 1.339 . S
C202 C200 1.416 . S
C202 H209 0.930 . S
N203 Tb168 2.572 . S
N203 C204 1.340 . S
N203 C206 1.361 . S
C204 H190 0.930 . S
C204 N203 1.340 . S
C204 C208 1.407 . S
C205 C206 1.413 . S
C205 C207 1.416 . S
C205 C234 1.427 . S
C206 C198 1.424 . S
C206 N203 1.361 . S
C206 C205 1.413 . S
C207 H196 0.931 . S
C207 C205 1.416 . S
C207 C208 1.332 . S
C208 H187 0.929 . S
C208 C204 1.407 . S
C208 C207 1.332 . S
H209 C202 0.930 . S
H210 C233 0.930 . S
H211 C234 0.929 . S
O212 Tb168 2.465 . S
O212 C232 1.264 . S
O213 Tb168 2.387 . S
O213 C224 1.264 . S
O214 Tb179 2.349 . S
O214 C224 1.243 . S
O215 Tb168 2.428 . S
O215 C232 1.256 . S
O216 Tb168 2.308 . S
O216 C231 1.266 . S
O217 Tb179 2.393 . S
O217 C231 1.248 . S
O218 Tb179 2.465 . S
O218 C243 1.264 . S
O219 Tb179 2.387 . S
O219 C235 1.264 . S
O220 Tb168 2.349 . S
O220 C235 1.243 . S
O221 Tb179 2.428 . S
O221 C243 1.256 . S
O222 Tb179 2.308 . S
O222 C242 1.266 . S
O223 Tb168 2.393 . S
O223 C242 1.248 . S
C224 O213 1.264 . S
C224 O214 1.243 . S
C225 C228 1.399 . S
C225 C230 1.383 . S
C225 C232 1.496 . S
C226 C227 1.399 . S
C226 C230 1.389 . S
C227 C226 1.399 . S
C227 C229 1.380 . S
C227 H244 0.929 . S
C228 C225 1.399 . S
C228 C229 1.392 . S
C228 H245 0.929 . S
C229 C227 1.380 . S
C229 C228 1.392 . S
C229 H246 0.929 . S
C230 C225 1.383 . S
C230 C226 1.389 . S
C230 H247 0.931 . S
C231 O216 1.266 . S
C231 O217 1.248 . S
C232 Tb168 2.802 . S
C232 O212 1.264 . S
C232 O215 1.256 . S
C232 C225 1.496 . S
C233 C200 1.448 . S
C233 H210 0.930 . S
C233 C234 1.328 . S
C234 C205 1.427 . S
C234 H211 0.929 . S
C234 C233 1.328 . S
C235 O219 1.264 . S
C235 O220 1.243 . S
C236 C239 1.399 . S
C236 C240 1.383 . S
C236 C243 1.496 . S
C237 C238 1.399 . S
C237 C240 1.389 . S
C238 C237 1.399 . S
C238 C241 1.380 . S
C238 H248 0.929 . S
C239 C236 1.399 . S
C239 C241 1.392 . S
C239 H249 0.929 . S
C240 C236 1.383 . S
C240 C237 1.389 . S
C240 H250 0.931 . S
C241 C238 1.380 . S
C241 C239 1.392 . S
C241 H251 0.929 . S
C242 O222 1.266 . S
C242 O223 1.248 . S
C243 Tb179 2.802 . S
C243 O218 1.264 . S
C243 O221 1.256 . S
C243 C236 1.496 . S
H244 C227 0.929 . S
H245 C228 0.929 . S
H246 C229 0.929 . S
H247 C230 0.931 . S
H248 C238 0.929 . S
H249 C239 0.929 . S
H250 C240 0.931 . S
H251 C241 0.929 . S
Tb252 N281 2.617 . S
Tb252 N287 2.572 . S
Tb252 O296 2.465 . S
Tb252 O297 2.387 . S
Tb252 O299 2.428 . S
Tb252 O300 2.308 . S
Tb252 O304 2.349 . S
Tb252 O307 2.393 . S
Tb252 C316 2.802 . S
C253 N254 1.379 . S
C253 C256 1.416 . S
C253 C260 1.424 . S
N254 C253 1.379 . S
N254 C257 1.334 . S
N254 Tb263 2.617 . S
C255 C257 1.390 . S
C255 C258 1.339 . S
C255 H275 0.930 . S
C256 C253 1.416 . S
C256 C258 1.416 . S
C256 C262 1.448 . S
C257 N254 1.334 . S
C257 C255 1.390 . S
C257 H268 0.930 . S
C258 C255 1.339 . S
C258 C256 1.416 . S
C258 H279 0.930 . S
C259 C260 1.413 . S
C259 C261 1.427 . S
C259 C265 1.416 . S
C260 C253 1.424 . S
C260 C259 1.413 . S
C260 N264 1.361 . S
C261 C259 1.427 . S
C261 C262 1.328 . S
C261 H276 0.929 . S
C262 C256 1.448 . S
C262 C261 1.328 . S
C262 H277 0.930 . S
Tb263 N254 2.617 . S
Tb263 N264 2.572 . S
Tb263 O298 2.349 . S
Tb263 O301 2.393 . S
Tb263 O302 2.465 . S
Tb263 O303 2.387 . S
Tb263 O305 2.428 . S
Tb263 O306 2.308 . S
Tb263 C327 2.802 . S
N264 C260 1.361 . S
N264 Tb263 2.572 . S
N264 C266 1.340 . S
C265 C259 1.416 . S
C265 C267 1.332 . S
C265 H273 0.931 . S
C266 N264 1.340 . S
C266 C267 1.407 . S
C266 H272 0.930 . S
C267 C265 1.332 . S
C267 C266 1.407 . S
C267 H269 0.929 . S
H268 C257 0.930 . S
H269 C267 0.929 . S
H270 C285 0.930 . S
H271 C292 0.929 . S
H272 C266 0.930 . S
H273 C265 0.931 . S
H274 C288 0.930 . S
H275 C255 0.930 . S
H276 C261 0.929 . S
H277 C262 0.930 . S
H278 C283 0.930 . S
H279 C258 0.930 . S
H280 C291 0.931 . S
N281 Tb252 2.617 . S
N281 C282 1.379 . S
N281 C285 1.334 . S
C282 N281 1.379 . S
C282 C284 1.416 . S
C282 C290 1.424 . S
C283 H278 0.930 . S
C283 C285 1.390 . S
C283 C286 1.339 . S
C284 C282 1.416 . S
C284 C286 1.416 . S
C284 C317 1.448 . S
C285 H270 0.930 . S
C285 N281 1.334 . S
C285 C283 1.390 . S
C286 C283 1.339 . S
C286 C284 1.416 . S
C286 H293 0.930 . S
N287 Tb252 2.572 . S
N287 C288 1.340 . S
N287 C290 1.361 . S
C288 H274 0.930 . S
C288 N287 1.340 . S
C288 C292 1.407 . S
C289 C290 1.413 . S
C289 C291 1.416 . S
C289 C318 1.427 . S
C290 C282 1.424 . S
C290 N287 1.361 . S
C290 C289 1.413 . S
C291 H280 0.931 . S
C291 C289 1.416 . S
C291 C292 1.332 . S
C292 H271 0.929 . S
C292 C288 1.407 . S
C292 C291 1.332 . S
H293 C286 0.930 . S
H294 C317 0.930 . S
H295 C318 0.929 . S
O296 Tb252 2.465 . S
O296 C316 1.264 . S
O297 Tb252 2.387 . S
O297 C308 1.264 . S
O298 Tb263 2.349 . S
O298 C308 1.243 . S
O299 Tb252 2.428 . S
O299 C316 1.256 . S
O300 Tb252 2.308 . S
O300 C315 1.266 . S
O301 Tb263 2.393 . S
O301 C315 1.248 . S
O302 Tb263 2.465 . S
O302 C327 1.264 . S
O303 Tb263 2.387 . S
O303 C319 1.264 . S
O304 Tb252 2.349 . S
O304 C319 1.243 . S
O305 Tb263 2.428 . S
O305 C327 1.256 . S
O306 Tb263 2.308 . S
O306 C326 1.266 . S
O307 Tb252 2.393 . S
O307 C326 1.248 . S
C308 O297 1.264 . S
C308 O298 1.243 . S
C309 C312 1.399 . S
C309 C314 1.383 . S
C309 C316 1.496 . S
C310 C311 1.399 . S
C310 C314 1.389 . S
C311 C310 1.399 . S
C311 C313 1.380 . S
C311 H328 0.929 . S
C312 C309 1.399 . S
C312 C313 1.392 . S
C312 H329 0.929 . S
C313 C311 1.380 . S
C313 C312 1.392 . S
C313 H330 0.929 . S
C314 C309 1.383 . S
C314 C310 1.389 . S
C314 H331 0.931 . S
C315 O300 1.266 . S
C315 O301 1.248 . S
C316 Tb252 2.802 . S
C316 O296 1.264 . S
C316 O299 1.256 . S
C316 C309 1.496 . S
C317 C284 1.448 . S
C317 H294 0.930 . S
C317 C318 1.328 . S
C318 C289 1.427 . S
C318 H295 0.929 . S
C318 C317 1.328 . S
C319 O303 1.264 . S
C319 O304 1.243 . S
C320 C323 1.399 . S
C320 C324 1.383 . S
C320 C327 1.496 . S
C321 C322 1.399 . S
C321 C324 1.389 . S
C322 C321 1.399 . S
C322 C325 1.380 . S
C322 H332 0.929 . S
C323 C320 1.399 . S
C323 C325 1.392 . S
C323 H333 0.929 . S
C324 C320 1.383 . S
C324 C321 1.389 . S
C324 H334 0.931 . S
C325 C322 1.380 . S
C325 C323 1.392 . S
C325 H335 0.929 . S
C326 O306 1.266 . S
C326 O307 1.248 . S
C327 Tb263 2.802 . S
C327 O302 1.264 . S
C327 O305 1.256 . S
C327 C320 1.496 . S
H328 C311 0.929 . S
H329 C312 0.929 . S
H330 C313 0.929 . S
H331 C314 0.931 . S
H332 C322 0.929 . S
H333 C323 0.929 . S
H334 C324 0.931 . S
H335 C325 0.929 . S
Tb336 N365 2.617 . S
Tb336 N371 2.572 . S
Tb336 O380 2.465 . S
Tb336 O381 2.387 . S
Tb336 O383 2.428 . S
Tb336 O384 2.308 . S
Tb336 O388 2.349 . S
Tb336 O391 2.393 . S
Tb336 C400 2.802 . S
C337 N338 1.379 . S
C337 C340 1.416 . S
C337 C344 1.424 . S
N338 C337 1.379 . S
N338 C341 1.334 . S
N338 Tb347 2.617 . S
C339 C341 1.390 . S
C339 C342 1.339 . S
C339 H359 0.930 . S
C340 C337 1.416 . S
C340 C342 1.416 . S
C340 C346 1.448 . S
C341 N338 1.334 . S
C341 C339 1.390 . S
C341 H352 0.930 . S
C342 C339 1.339 . S
C342 C340 1.416 . S
C342 H363 0.930 . S
C343 C344 1.413 . S
C343 C345 1.427 . S
C343 C349 1.416 . S
C344 C337 1.424 . S
C344 C343 1.413 . S
C344 N348 1.361 . S
C345 C343 1.427 . S
C345 C346 1.328 . S
C345 H360 0.929 . S
C346 C340 1.448 . S
C346 C345 1.328 . S
C346 H361 0.930 . S
Tb347 N338 2.617 . S
Tb347 N348 2.572 . S
Tb347 O382 2.349 . S
Tb347 O385 2.393 . S
Tb347 O386 2.465 . S
Tb347 O387 2.387 . S
Tb347 O389 2.428 . S
Tb347 O390 2.308 . S
Tb347 C411 2.802 . S
N348 C344 1.361 . S
N348 Tb347 2.572 . S
N348 C350 1.340 . S
C349 C343 1.416 . S
C349 C351 1.332 . S
C349 H357 0.931 . S
C350 N348 1.340 . S
C350 C351 1.407 . S
C350 H356 0.930 . S
C351 C349 1.332 . S
C351 C350 1.407 . S
C351 H353 0.929 . S
H352 C341 0.930 . S
H353 C351 0.929 . S
H354 C369 0.930 . S
H355 C376 0.929 . S
H356 C350 0.930 . S
H357 C349 0.931 . S
H358 C372 0.930 . S
H359 C339 0.930 . S
H360 C345 0.929 . S
H361 C346 0.930 . S
H362 C367 0.930 . S
H363 C342 0.930 . S
H364 C375 0.931 . S
N365 Tb336 2.617 . S
N365 C366 1.379 . S
N365 C369 1.334 . S
C366 N365 1.379 . S
C366 C368 1.416 . S
C366 C374 1.424 . S
C367 H362 0.930 . S
C367 C369 1.390 . S
C367 C370 1.339 . S
C368 C366 1.416 . S
C368 C370 1.416 . S
C368 C401 1.448 . S
C369 H354 0.930 . S
C369 N365 1.334 . S
C369 C367 1.390 . S
C370 C367 1.339 . S
C370 C368 1.416 . S
C370 H377 0.930 . S
N371 Tb336 2.572 . S
N371 C372 1.340 . S
N371 C374 1.361 . S
C372 H358 0.930 . S
C372 N371 1.340 . S
C372 C376 1.407 . S
C373 C374 1.413 . S
C373 C375 1.416 . S
C373 C402 1.427 . S
C374 C366 1.424 . S
C374 N371 1.361 . S
C374 C373 1.413 . S
C375 H364 0.931 . S
C375 C373 1.416 . S
C375 C376 1.332 . S
C376 H355 0.929 . S
C376 C372 1.407 . S
C376 C375 1.332 . S
H377 C370 0.930 . S
H378 C401 0.930 . S
H379 C402 0.929 . S
O380 Tb336 2.465 . S
O380 C400 1.264 . S
O381 Tb336 2.387 . S
O381 C392 1.264 . S
O382 Tb347 2.349 . S
O382 C392 1.243 . S
O383 Tb336 2.428 . S
O383 C400 1.256 . S
O384 Tb336 2.308 . S
O384 C399 1.266 . S
O385 Tb347 2.393 . S
O385 C399 1.248 . S
O386 Tb347 2.465 . S
O386 C411 1.264 . S
O387 Tb347 2.387 . S
O387 C403 1.264 . S
O388 Tb336 2.349 . S
O388 C403 1.243 . S
O389 Tb347 2.428 . S
O389 C411 1.256 . S
O390 Tb347 2.308 . S
O390 C410 1.266 . S
O391 Tb336 2.393 . S
O391 C410 1.248 . S
C392 O381 1.264 . S
C392 O382 1.243 . S
C393 C396 1.399 . S
C393 C398 1.383 . S
C393 C400 1.496 . S
C394 C395 1.399 . S
C394 C398 1.389 . S
C395 C394 1.399 . S
C395 C397 1.380 . S
C395 H412 0.929 . S
C396 C393 1.399 . S
C396 C397 1.392 . S
C396 H413 0.929 . S
C397 C395 1.380 . S
C397 C396 1.392 . S
C397 H414 0.929 . S
C398 C393 1.383 . S
C398 C394 1.389 . S
C398 H415 0.931 . S
C399 O384 1.266 . S
C399 O385 1.248 . S
C400 Tb336 2.802 . S
C400 O380 1.264 . S
C400 O383 1.256 . S
C400 C393 1.496 . S
C401 C368 1.448 . S
C401 H378 0.930 . S
C401 C402 1.328 . S
C402 C373 1.427 . S
C402 H379 0.929 . S
C402 C401 1.328 . S
C403 O387 1.264 . S
C403 O388 1.243 . S
C404 C407 1.399 . S
C404 C408 1.383 . S
C404 C411 1.496 . S
C405 C406 1.399 . S
C405 C408 1.389 . S
C406 C405 1.399 . S
C406 C409 1.380 . S
C406 H416 0.929 . S
C407 C404 1.399 . S
C407 C409 1.392 . S
C407 H417 0.929 . S
C408 C404 1.383 . S
C408 C405 1.389 . S
C408 H418 0.931 . S
C409 C406 1.380 . S
C409 C407 1.392 . S
C409 H419 0.929 . S
C410 O390 1.266 . S
C410 O391 1.248 . S
C411 Tb347 2.802 . S
C411 O386 1.264 . S
C411 O389 1.256 . S
C411 C404 1.496 . S
H412 C395 0.929 . S
H413 C396 0.929 . S
H414 C397 0.929 . S
H415 C398 0.931 . S
H416 C406 0.929 . S
H417 C407 0.929 . S
H418 C408 0.931 . S
H419 C409 0.929 . S
Tb420 N449 2.617 . S
Tb420 N455 2.572 . S
Tb420 O464 2.465 . S
Tb420 O465 2.387 . S
Tb420 O467 2.428 . S
Tb420 O468 2.308 . S
Tb420 O472 2.349 . S
Tb420 O475 2.393 . S
Tb420 C484 2.802 . S
C421 N422 1.379 . S
C421 C424 1.416 . S
C421 C428 1.424 . S
N422 C421 1.379 . S
N422 C425 1.334 . S
N422 Tb431 2.617 . S
C423 C425 1.390 . S
C423 C426 1.339 . S
C423 H443 0.930 . S
C424 C421 1.416 . S
C424 C426 1.416 . S
C424 C430 1.448 . S
C425 N422 1.334 . S
C425 C423 1.390 . S
C425 H436 0.930 . S
C426 C423 1.339 . S
C426 C424 1.416 . S
C426 H447 0.930 . S
C427 C428 1.413 . S
C427 C429 1.427 . S
C427 C433 1.416 . S
C428 C421 1.424 . S
C428 C427 1.413 . S
C428 N432 1.361 . S
C429 C427 1.427 . S
C429 C430 1.328 . S
C429 H444 0.929 . S
C430 C424 1.448 . S
C430 C429 1.328 . S
C430 H445 0.930 . S
Tb431 N422 2.617 . S
Tb431 N432 2.572 . S
Tb431 O466 2.349 . S
Tb431 O469 2.393 . S
Tb431 O470 2.465 . S
Tb431 O471 2.387 . S
Tb431 O473 2.428 . S
Tb431 O474 2.308 . S
Tb431 C495 2.802 . S
N432 C428 1.361 . S
N432 Tb431 2.572 . S
N432 C434 1.340 . S
C433 C427 1.416 . S
C433 C435 1.332 . S
C433 H441 0.931 . S
C434 N432 1.340 . S
C434 C435 1.407 . S
C434 H440 0.930 . S
C435 C433 1.332 . S
C435 C434 1.407 . S
C435 H437 0.929 . S
H436 C425 0.930 . S
H437 C435 0.929 . S
H438 C453 0.930 . S
H439 C460 0.929 . S
H440 C434 0.930 . S
H441 C433 0.931 . S
H442 C456 0.930 . S
H443 C423 0.930 . S
H444 C429 0.929 . S
H445 C430 0.930 . S
H446 C451 0.930 . S
H447 C426 0.930 . S
H448 C459 0.931 . S
N449 Tb420 2.617 . S
N449 C450 1.379 . S
N449 C453 1.334 . S
C450 N449 1.379 . S
C450 C452 1.416 . S
C450 C458 1.424 . S
C451 H446 0.930 . S
C451 C453 1.390 . S
C451 C454 1.339 . S
C452 C450 1.416 . S
C452 C454 1.416 . S
C452 C485 1.448 . S
C453 H438 0.930 . S
C453 N449 1.334 . S
C453 C451 1.390 . S
C454 C451 1.339 . S
C454 C452 1.416 . S
C454 H461 0.930 . S
N455 Tb420 2.572 . S
N455 C456 1.340 . S
N455 C458 1.361 . S
C456 H442 0.930 . S
C456 N455 1.340 . S
C456 C460 1.407 . S
C457 C458 1.413 . S
C457 C459 1.416 . S
C457 C486 1.427 . S
C458 C450 1.424 . S
C458 N455 1.361 . S
C458 C457 1.413 . S
C459 H448 0.931 . S
C459 C457 1.416 . S
C459 C460 1.332 . S
C460 H439 0.929 . S
C460 C456 1.407 . S
C460 C459 1.332 . S
H461 C454 0.930 . S
H462 C485 0.930 . S
H463 C486 0.929 . S
O464 Tb420 2.465 . S
O464 C484 1.264 . S
O465 Tb420 2.387 . S
O465 C476 1.264 . S
O466 Tb431 2.349 . S
O466 C476 1.243 . S
O467 Tb420 2.428 . S
O467 C484 1.256 . S
O468 Tb420 2.308 . S
O468 C483 1.266 . S
O469 Tb431 2.393 . S
O469 C483 1.248 . S
O470 Tb431 2.465 . S
O470 C495 1.264 . S
O471 Tb431 2.387 . S
O471 C487 1.264 . S
O472 Tb420 2.349 . S
O472 C487 1.243 . S
O473 Tb431 2.428 . S
O473 C495 1.256 . S
O474 Tb431 2.308 . S
O474 C494 1.266 . S
O475 Tb420 2.393 . S
O475 C494 1.248 . S
C476 O465 1.264 . S
C476 O466 1.243 . S
C477 C480 1.399 . S
C477 C482 1.383 . S
C477 C484 1.496 . S
C478 C479 1.399 . S
C478 C482 1.389 . S
C479 C478 1.399 . S
C479 C481 1.380 . S
C479 H496 0.929 . S
C480 C477 1.399 . S
C480 C481 1.392 . S
C480 H497 0.929 . S
C481 C479 1.380 . S
C481 C480 1.392 . S
C481 H498 0.929 . S
C482 C477 1.383 . S
C482 C478 1.389 . S
C482 H499 0.931 . S
C483 O468 1.266 . S
C483 O469 1.248 . S
C484 Tb420 2.802 . S
C484 O464 1.264 . S
C484 O467 1.256 . S
C484 C477 1.496 . S
C485 C452 1.448 . S
C485 H462 0.930 . S
C485 C486 1.328 . S
C486 C457 1.427 . S
C486 H463 0.929 . S
C486 C485 1.328 . S
C487 O471 1.264 . S
C487 O472 1.243 . S
C488 C491 1.399 . S
C488 C492 1.383 . S
C488 C495 1.496 . S
C489 C490 1.399 . S
C489 C492 1.389 . S
C490 C489 1.399 . S
C490 C493 1.380 . S
C490 H500 0.929 . S
C491 C488 1.399 . S
C491 C493 1.392 . S
C491 H501 0.929 . S
C492 C488 1.383 . S
C492 C489 1.389 . S
C492 H502 0.931 . S
C493 C490 1.380 . S
C493 C491 1.392 . S
C493 H503 0.929 . S
C494 O474 1.266 . S
C494 O475 1.248 . S
C495 Tb431 2.802 . S
C495 O470 1.264 . S
C495 O473 1.256 . S
C495 C488 1.496 . S
H496 C479 0.929 . S
H497 C480 0.929 . S
H498 C481 0.929 . S
H499 C482 0.931 . S
H500 C490 0.929 . S
H501 C491 0.929 . S
H502 C492 0.931 . S
H503 C493 0.929 . S
Tb504 N533 2.617 . S
Tb504 N539 2.572 . S
Tb504 O548 2.465 . S
Tb504 O549 2.387 . S
Tb504 O551 2.428 . S
Tb504 O552 2.308 . S
Tb504 O556 2.349 . S
Tb504 O559 2.393 . S
Tb504 C568 2.802 . S
C505 N506 1.379 . S
C505 C508 1.416 . S
C505 C512 1.424 . S
N506 C505 1.379 . S
N506 C509 1.334 . S
N506 Tb515 2.617 . S
C507 C509 1.390 . S
C507 C510 1.339 . S
C507 H527 0.930 . S
C508 C505 1.416 . S
C508 C510 1.416 . S
C508 C514 1.448 . S
C509 N506 1.334 . S
C509 C507 1.390 . S
C509 H520 0.930 . S
C510 C507 1.339 . S
C510 C508 1.416 . S
C510 H531 0.930 . S
C511 C512 1.413 . S
C511 C513 1.427 . S
C511 C517 1.416 . S
C512 C505 1.424 . S
C512 C511 1.413 . S
C512 N516 1.361 . S
C513 C511 1.427 . S
C513 C514 1.328 . S
C513 H528 0.929 . S
C514 C508 1.448 . S
C514 C513 1.328 . S
C514 H529 0.930 . S
Tb515 N506 2.617 . S
Tb515 N516 2.572 . S
Tb515 O550 2.349 . S
Tb515 O553 2.393 . S
Tb515 O554 2.465 . S
Tb515 O555 2.387 . S
Tb515 O557 2.428 . S
Tb515 O558 2.308 . S
Tb515 C579 2.802 . S
N516 C512 1.361 . S
N516 Tb515 2.572 . S
N516 C518 1.340 . S
C517 C511 1.416 . S
C517 C519 1.332 . S
C517 H525 0.931 . S
C518 N516 1.340 . S
C518 C519 1.407 . S
C518 H524 0.930 . S
C519 C517 1.332 . S
C519 C518 1.407 . S
C519 H521 0.929 . S
H520 C509 0.930 . S
H521 C519 0.929 . S
H522 C537 0.930 . S
H523 C544 0.929 . S
H524 C518 0.930 . S
H525 C517 0.931 . S
H526 C540 0.930 . S
H527 C507 0.930 . S
H528 C513 0.929 . S
H529 C514 0.930 . S
H530 C535 0.930 . S
H531 C510 0.930 . S
H532 C543 0.931 . S
N533 Tb504 2.617 . S
N533 C534 1.379 . S
N533 C537 1.334 . S
C534 N533 1.379 . S
C534 C536 1.416 . S
C534 C542 1.424 . S
C535 H530 0.930 . S
C535 C537 1.390 . S
C535 C538 1.339 . S
C536 C534 1.416 . S
C536 C538 1.416 . S
C536 C569 1.448 . S
C537 H522 0.930 . S
C537 N533 1.334 . S
C537 C535 1.390 . S
C538 C535 1.339 . S
C538 C536 1.416 . S
C538 H545 0.930 . S
N539 Tb504 2.572 . S
N539 C540 1.340 . S
N539 C542 1.361 . S
C540 H526 0.930 . S
C540 N539 1.340 . S
C540 C544 1.407 . S
C541 C542 1.413 . S
C541 C543 1.416 . S
C541 C570 1.427 . S
C542 C534 1.424 . S
C542 N539 1.361 . S
C542 C541 1.413 . S
C543 H532 0.931 . S
C543 C541 1.416 . S
C543 C544 1.332 . S
C544 H523 0.929 . S
C544 C540 1.407 . S
C544 C543 1.332 . S
H545 C538 0.930 . S
H546 C569 0.930 . S
H547 C570 0.929 . S
O548 Tb504 2.465 . S
O548 C568 1.264 . S
O549 Tb504 2.387 . S
O549 C560 1.264 . S
O550 Tb515 2.349 . S
O550 C560 1.243 . S
O551 Tb504 2.428 . S
O551 C568 1.256 . S
O552 Tb504 2.308 . S
O552 C567 1.266 . S
O553 Tb515 2.393 . S
O553 C567 1.248 . S
O554 Tb515 2.465 . S
O554 C579 1.264 . S
O555 Tb515 2.387 . S
O555 C571 1.264 . S
O556 Tb504 2.349 . S
O556 C571 1.243 . S
O557 Tb515 2.428 . S
O557 C579 1.256 . S
O558 Tb515 2.308 . S
O558 C578 1.266 . S
O559 Tb504 2.393 . S
O559 C578 1.248 . S
C560 O549 1.264 . S
C560 O550 1.243 . S
C561 C564 1.399 . S
C561 C566 1.383 . S
C561 C568 1.496 . S
C562 C563 1.399 . S
C562 C566 1.389 . S
C563 C562 1.399 . S
C563 C565 1.380 . S
C563 H580 0.929 . S
C564 C561 1.399 . S
C564 C565 1.392 . S
C564 H581 0.929 . S
C565 C563 1.380 . S
C565 C564 1.392 . S
C565 H582 0.929 . S
C566 C561 1.383 . S
C566 C562 1.389 . S
C566 H583 0.931 . S
C567 O552 1.266 . S
C567 O553 1.248 . S
C568 Tb504 2.802 . S
C568 O548 1.264 . S
C568 O551 1.256 . S
C568 C561 1.496 . S
C569 C536 1.448 . S
C569 H546 0.930 . S
C569 C570 1.328 . S
C570 C541 1.427 . S
C570 H547 0.929 . S
C570 C569 1.328 . S
C571 O555 1.264 . S
C571 O556 1.243 . S
C572 C575 1.399 . S
C572 C576 1.383 . S
C572 C579 1.496 . S
C573 C574 1.399 . S
C573 C576 1.389 . S
C574 C573 1.399 . S
C574 C577 1.380 . S
C574 H584 0.929 . S
C575 C572 1.399 . S
C575 C577 1.392 . S
C575 H585 0.929 . S
C576 C572 1.383 . S
C576 C573 1.389 . S
C576 H586 0.931 . S
C577 C574 1.380 . S
C577 C575 1.392 . S
C577 H587 0.929 . S
C578 O558 1.266 . S
C578 O559 1.248 . S
C579 Tb515 2.802 . S
C579 O554 1.264 . S
C579 O557 1.256 . S
C579 C572 1.496 . S
H580 C563 0.929 . S
H581 C564 0.929 . S
H582 C565 0.929 . S
H583 C566 0.931 . S
H584 C574 0.929 . S
H585 C575 0.929 . S
H586 C576 0.931 . S
H587 C577 0.929 . S
Tb588 N617 2.617 . S
Tb588 N623 2.572 . S
Tb588 O632 2.465 . S
Tb588 O633 2.387 . S
Tb588 O635 2.428 . S
Tb588 O636 2.308 . S
Tb588 O640 2.349 . S
Tb588 O643 2.393 . S
Tb588 C652 2.802 . S
C589 N590 1.379 . S
C589 C592 1.416 . S
C589 C596 1.424 . S
N590 C589 1.379 . S
N590 C593 1.334 . S
N590 Tb599 2.617 . S
C591 C593 1.390 . S
C591 C594 1.339 . S
C591 H611 0.930 . S
C592 C589 1.416 . S
C592 C594 1.416 . S
C592 C598 1.448 . S
C593 N590 1.334 . S
C593 C591 1.390 . S
C593 H604 0.930 . S
C594 C591 1.339 . S
C594 C592 1.416 . S
C594 H615 0.930 . S
C595 C596 1.413 . S
C595 C597 1.427 . S
C595 C601 1.416 . S
C596 C589 1.424 . S
C596 C595 1.413 . S
C596 N600 1.361 . S
C597 C595 1.427 . S
C597 C598 1.328 . S
C597 H612 0.929 . S
C598 C592 1.448 . S
C598 C597 1.328 . S
C598 H613 0.930 . S
Tb599 N590 2.617 . S
Tb599 N600 2.572 . S
Tb599 O634 2.349 . S
Tb599 O637 2.393 . S
Tb599 O638 2.465 . S
Tb599 O639 2.387 . S
Tb599 O641 2.428 . S
Tb599 O642 2.308 . S
Tb599 C663 2.802 . S
N600 C596 1.361 . S
N600 Tb599 2.572 . S
N600 C602 1.340 . S
C601 C595 1.416 . S
C601 C603 1.332 . S
C601 H609 0.931 . S
C602 N600 1.340 . S
C602 C603 1.407 . S
C602 H608 0.930 . S
C603 C601 1.332 . S
C603 C602 1.407 . S
C603 H605 0.929 . S
H604 C593 0.930 . S
H605 C603 0.929 . S
H606 C621 0.930 . S
H607 C628 0.929 . S
H608 C602 0.930 . S
H609 C601 0.931 . S
H610 C624 0.930 . S
H611 C591 0.930 . S
H612 C597 0.929 . S
H613 C598 0.930 . S
H614 C619 0.930 . S
H615 C594 0.930 . S
H616 C627 0.931 . S
N617 Tb588 2.617 . S
N617 C618 1.379 . S
N617 C621 1.334 . S
C618 N617 1.379 . S
C618 C620 1.416 . S
C618 C626 1.424 . S
C619 H614 0.930 . S
C619 C621 1.390 . S
C619 C622 1.339 . S
C620 C618 1.416 . S
C620 C622 1.416 . S
C620 C653 1.448 . S
C621 H606 0.930 . S
C621 N617 1.334 . S
C621 C619 1.390 . S
C622 C619 1.339 . S
C622 C620 1.416 . S
C622 H629 0.930 . S
N623 Tb588 2.572 . S
N623 C624 1.340 . S
N623 C626 1.361 . S
C624 H610 0.930 . S
C624 N623 1.340 . S
C624 C628 1.407 . S
C625 C626 1.413 . S
C625 C627 1.416 . S
C625 C654 1.427 . S
C626 C618 1.424 . S
C626 N623 1.361 . S
C626 C625 1.413 . S
C627 H616 0.931 . S
C627 C625 1.416 . S
C627 C628 1.332 . S
C628 H607 0.929 . S
C628 C624 1.407 . S
C628 C627 1.332 . S
H629 C622 0.930 . S
H630 C653 0.930 . S
H631 C654 0.929 . S
O632 Tb588 2.465 . S
O632 C652 1.264 . S
O633 Tb588 2.387 . S
O633 C644 1.264 . S
O634 Tb599 2.349 . S
O634 C644 1.243 . S
O635 Tb588 2.428 . S
O635 C652 1.256 . S
O636 Tb588 2.308 . S
O636 C651 1.266 . S
O637 Tb599 2.393 . S
O637 C651 1.248 . S
O638 Tb599 2.465 . S
O638 C663 1.264 . S
O639 Tb599 2.387 . S
O639 C655 1.264 . S
O640 Tb588 2.349 . S
O640 C655 1.243 . S
O641 Tb599 2.428 . S
O641 C663 1.256 . S
O642 Tb599 2.308 . S
O642 C662 1.266 . S
O643 Tb588 2.393 . S
O643 C662 1.248 . S
C644 O633 1.264 . S
C644 O634 1.243 . S
C645 C648 1.399 . S
C645 C650 1.383 . S
C645 C652 1.496 . S
C646 C647 1.399 . S
C646 C650 1.389 . S
C647 C646 1.399 . S
C647 C649 1.380 . S
C647 H664 0.929 . S
C648 C645 1.399 . S
C648 C649 1.392 . S
C648 H665 0.929 . S
C649 C647 1.380 . S
C649 C648 1.392 . S
C649 H666 0.929 . S
C650 C645 1.383 . S
C650 C646 1.389 . S
C650 H667 0.931 . S
C651 O636 1.266 . S
C651 O637 1.248 . S
C652 Tb588 2.802 . S
C652 O632 1.264 . S
C652 O635 1.256 . S
C652 C645 1.496 . S
C653 C620 1.448 . S
C653 H630 0.930 . S
C653 C654 1.328 . S
C654 C625 1.427 . S
C654 H631 0.929 . S
C654 C653 1.328 . S
C655 O639 1.264 . S
C655 O640 1.243 . S
C656 C659 1.399 . S
C656 C660 1.383 . S
C656 C663 1.496 . S
C657 C658 1.399 . S
C657 C660 1.389 . S
C658 C657 1.399 . S
C658 C661 1.380 . S
C658 H668 0.929 . S
C659 C656 1.399 . S
C659 C661 1.392 . S
C659 H669 0.929 . S
C660 C656 1.383 . S
C660 C657 1.389 . S
C660 H670 0.931 . S
C661 C658 1.380 . S
C661 C659 1.392 . S
C661 H671 0.929 . S
C662 O642 1.266 . S
C662 O643 1.248 . S
C663 Tb599 2.802 . S
C663 O638 1.264 . S
C663 O641 1.256 . S
C663 C656 1.496 . S
H664 C647 0.929 . S
H665 C648 0.929 . S
H666 C649 0.929 . S
H667 C650 0.931 . S
H668 C658 0.929 . S
H669 C659 0.929 . S
H670 C660 0.931 . S
H671 C661 0.929 . S
Cd672 N675 2.334 1_655 S
Cd672 N701 2.304 1_565 S
Cd672 O708 2.268 . S
Cd672 O711 2.273 1_665 S
Cd672 O712 2.417 . S
Cd672 O713 2.330 . S
Cd673 N688 2.304 1_455 S
Cd673 N692 2.334 1_545 S
Cd673 O709 2.273 1_445 S
Cd673 O710 2.268 . S
Cd673 O714 2.417 . S
Cd673 O715 2.330 . S
C674 N675 1.332 . S
C674 C678 1.381 . S
C674 H680 0.931 . S
N675 Cd672 2.334 1_455 S
N675 C674 1.332 . S
N675 C679 1.328 . S
C676 C677 1.396 . S
C676 C679 1.378 . S
C676 H718 0.931 . S
C677 C676 1.396 . S
C677 C678 1.382 . S
C678 C674 1.381 . S
C678 C677 1.382 . S
C678 H719 0.930 . S
C679 N675 1.328 . S
C679 C676 1.378 . S
C679 H681 0.930 1_455 S
H680 C674 0.931 . S
H681 C679 0.930 1_655 S
C682 O708 1.238 . S
C682 O709 1.253 . S
C683 C684 1.379 . S
C683 N688 1.337 . S
C683 H689 0.929 . S
C684 C683 1.379 . S
C684 C685 1.380 . S
C684 H720 0.929 . S
C685 C684 1.380 . S
C685 C686 1.399 . S
C686 C685 1.399 . S
C686 C687 1.382 . S
C686 H721 0.931 . S
C687 C686 1.382 . S
C687 N688 1.337 . S
C687 H690 0.925 1_655 S
N688 Cd673 2.304 1_655 S
N688 C683 1.337 . S
N688 C687 1.337 . S
H689 C683 0.929 . S
H690 C687 0.925 1_455 S
C691 N692 1.332 . S
C691 C695 1.381 . S
C691 H697 0.931 . S
N692 Cd673 2.334 1_565 S
N692 C691 1.332 . S
N692 C696 1.328 . S
C693 C694 1.396 . S
C693 C696 1.378 . S
C693 H722 0.931 . S
C694 C693 1.396 . S
C694 C695 1.382 . S
C695 C691 1.381 . S
C695 C694 1.382 . S
C695 H723 0.930 . S
C696 N692 1.328 . S
C696 C693 1.378 . S
C696 H698 0.930 1_565 S
H697 C691 0.931 . S
H698 C696 0.930 1_545 S
C699 O710 1.238 . S
C699 O711 1.253 . S
C700 O712 1.239 . S
C700 O713 1.230 . S
N701 Cd672 2.304 1_545 S
N701 C702 1.337 . S
N701 C706 1.338 . S
C702 N701 1.337 . S
C702 C703 1.379 . S
C702 H716 0.929 . S
C703 C702 1.379 . S
C703 C704 1.380 . S
C703 H724 0.929 . S
C704 C703 1.380 . S
C704 C705 1.399 . S
C705 C704 1.399 . S
C705 C706 1.376 . S
C705 H725 0.931 . S
C706 N701 1.338 . S
C706 C705 1.376 . S
C706 H717 0.930 1_545 S
C707 O714 1.239 . S
C707 O715 1.230 . S
O708 Cd672 2.268 . S
O708 C682 1.238 . S
O709 Cd673 2.273 1_665 S
O709 C682 1.253 . S
O710 Cd673 2.268 . S
O710 C699 1.238 . S
O711 Cd672 2.273 1_445 S
O711 C699 1.253 . S
O712 Cd672 2.417 . S
O712 C700 1.239 . S
O713 Cd672 2.330 . S
O713 C700 1.230 . S
O714 Cd673 2.417 . S
O714 C707 1.239 . S
O715 Cd673 2.330 . S
O715 C707 1.230 . S
H716 C702 0.929 . S
H717 C706 0.930 1_565 S
H718 C676 0.931 . S
H719 C678 0.930 . S
H720 C684 0.929 . S
H721 C686 0.931 . S
H722 C693 0.931 . S
H723 C695 0.930 . S
H724 C703 0.929 . S
H725 C705 0.931 . S
Cd726 N729 2.334 . S
Cd726 N755 2.304 1_565 S
Cd726 O762 2.268 1_554 S
Cd726 O765 2.273 1_565 S
Cd726 O766 2.417 . S
Cd726 O767 2.330 . S
Cd727 N742 2.304 . S
Cd727 N746 2.334 1_545 S
Cd727 O763 2.273 1_545 S
Cd727 O764 2.268 1_556 S
Cd727 O768 2.417 . S
Cd727 O769 2.330 . S
C728 N729 1.332 . S
C728 C732 1.381 . S
C728 H734 0.931 . S
N729 Cd726 2.334 . S
N729 C728 1.332 . S
N729 C733 1.328 . S
C730 C731 1.396 . S
C730 C733 1.378 . S
C730 H772 0.931 1_554 S
C731 C730 1.396 . S
C731 C732 1.382 . S
C732 C728 1.381 . S
C732 C731 1.382 . S
C732 H773 0.930 . S
C733 N729 1.328 . S
C733 C730 1.378 . S
C733 H735 0.930 1_554 S
H734 C728 0.931 . S
H735 C733 0.930 1_556 S
C736 O762 1.238 . S
C736 O763 1.253 . S
C737 C738 1.379 . S
C737 N742 1.337 . S
C737 H743 0.929 . S
C738 C737 1.379 . S
C738 C739 1.380 . S
C738 H774 0.929 . S
C739 C738 1.380 . S
C739 C740 1.399 . S
C740 C739 1.399 . S
C740 C741 1.376 . S
C740 H775 0.931 1_556 S
C741 C740 1.376 . S
C741 N742 1.338 . S
C741 H744 0.930 1_556 S
N742 Cd727 2.304 . S
N742 C737 1.337 . S
N742 C741 1.338 . S
H743 C737 0.929 . S
H744 C741 0.930 1_554 S
C745 N746 1.332 . S
C745 C749 1.381 . S
C745 H751 0.931 . S
N746 Cd727 2.334 1_565 S
N746 C745 1.332 . S
N746 C750 1.328 . S
C747 C748 1.396 . S
C747 C750 1.378 . S
C747 H776 0.931 . S
C748 C747 1.396 . S
C748 C749 1.382 . S
C749 C745 1.381 . S
C749 C748 1.382 . S
C749 H777 0.930 . S
C750 N746 1.328 . S
C750 C747 1.378 . S
C750 H752 0.930 1_566 S
H751 C745 0.931 . S
H752 C750 0.930 1_544 S
C753 O764 1.238 . S
C753 O765 1.253 . S
C754 O766 1.239 . S
C754 O767 1.230 . S
N755 Cd726 2.304 1_545 S
N755 C756 1.337 . S
N755 C760 1.338 . S
C756 N755 1.337 . S
C756 C757 1.379 . S
C756 H770 0.929 . S
C757 C756 1.379 . S
C757 C758 1.380 . S
C757 H778 0.929 . S
C758 C757 1.380 . S
C758 C759 1.399 . S
C759 C758 1.399 . S
C759 C760 1.376 . S
C759 H779 0.931 . S
C760 N755 1.338 . S
C760 C759 1.376 . S
C760 H771 0.930 1_544 S
C761 O768 1.239 . S
C761 O769 1.230 . S
O762 Cd726 2.268 1_556 S
O762 C736 1.238 . S
O763 Cd727 2.273 1_565 S
O763 C736 1.253 . S
O764 Cd727 2.268 1_554 S
O764 C753 1.238 . S
O765 Cd726 2.273 1_545 S
O765 C753 1.253 . S
O766 Cd726 2.417 . S
O766 C754 1.239 . S
O767 Cd726 2.330 . S
O767 C754 1.230 . S
O768 Cd727 2.417 . S
O768 C761 1.239 . S
O769 Cd727 2.330 . S
O769 C761 1.230 . S
H770 C756 0.929 . S
H771 C760 0.930 1_566 S
H772 C730 0.931 1_556 S
H773 C732 0.930 . S
H774 C738 0.929 . S
H775 C740 0.931 1_554 S
H776 C747 0.931 . S
H777 C749 0.930 . S
H778 C757 0.929 . S
H779 C759 0.931 . S
Cd780 N783 2.334 1_655 S
Cd780 N809 2.304 . S
Cd780 O816 2.268 1_554 S
Cd780 O819 2.273 1_655 S
Cd780 O820 2.417 . S
Cd780 O821 2.330 . S
Cd781 N796 2.304 1_455 S
Cd781 N800 2.334 . S
Cd781 O817 2.273 1_455 S
Cd781 O818 2.268 1_556 S
Cd781 O822 2.417 . S
Cd781 O823 2.330 . S
C782 N783 1.332 . S
C782 C786 1.381 . S
C782 H788 0.931 . S
N783 Cd780 2.334 1_455 S
N783 C782 1.332 . S
N783 C787 1.328 . S
C784 C785 1.396 . S
C784 C787 1.378 . S
C784 H826 0.931 1_554 S
C785 C784 1.396 . S
C785 C786 1.382 . S
C786 C782 1.381 . S
C786 C785 1.382 . S
C786 H827 0.930 . S
C787 N783 1.328 . S
C787 C784 1.378 . S
C787 H789 0.930 1_454 S
H788 C782 0.931 . S
H789 C787 0.930 1_656 S
C790 O816 1.238 . S
C790 O817 1.253 . S
C791 C792 1.379 . S
C791 N796 1.337 . S
C791 H797 0.929 . S
C792 C791 1.379 . S
C792 C793 1.380 . S
C792 H828 0.929 . S
C793 C792 1.380 . S
C793 C794 1.399 . S
C794 C793 1.399 . S
C794 C795 1.386 . S
C794 H829 0.931 1_556 S
C795 C794 1.386 . S
C795 N796 1.336 . S
C795 H798 0.921 1_656 S
N796 Cd781 2.304 1_655 S
N796 C791 1.337 . S
N796 C795 1.336 . S
H797 C791 0.929 . S
H798 C795 0.921 1_454 S
C799 N800 1.332 . S
C799 C803 1.381 . S
C799 H805 0.931 . S
N800 Cd781 2.334 . S
N800 C799 1.332 . S
N800 C804 1.328 . S
C801 C802 1.396 . S
C801 C804 1.378 . S
C801 H830 0.931 . S
C802 C801 1.396 . S
C802 C803 1.382 . S
C803 C799 1.381 . S
C803 C802 1.382 . S
C803 H831 0.930 . S
C804 N800 1.328 . S
C804 C801 1.378 . S
C804 H806 0.930 1_556 S
H805 C799 0.931 . S
H806 C804 0.930 1_554 S
C807 O818 1.238 . S
C807 O819 1.253 . S
C808 O820 1.239 . S
C808 O821 1.230 . S
N809 Cd780 2.304 . S
N809 C810 1.337 . S
N809 C814 1.338 . S
C810 N809 1.337 . S
C810 C811 1.379 . S
C810 H824 0.929 . S
C811 C810 1.379 . S
C811 C812 1.380 . S
C811 H832 0.929 . S
C812 C811 1.380 . S
C812 C813 1.399 . S
C813 C812 1.399 . S
C813 C814 1.376 . S
C813 H833 0.931 . S
C814 N809 1.338 . S
C814 C813 1.376 . S
C814 H825 0.930 1_554 S
C815 O822 1.239 . S
C815 O823 1.230 . S
O816 Cd780 2.268 1_556 S
O816 C790 1.238 . S
O817 Cd781 2.273 1_655 S
O817 C790 1.253 . S
O818 Cd781 2.268 1_554 S
O818 C807 1.238 . S
O819 Cd780 2.273 1_455 S
O819 C807 1.253 . S
O820 Cd780 2.417 . S
O820 C808 1.239 . S
O821 Cd780 2.330 . S
O821 C808 1.230 . S
O822 Cd781 2.417 . S
O822 C815 1.239 . S
O823 Cd781 2.330 . S
O823 C815 1.230 . S
H824 C810 0.929 . S
H825 C814 0.930 1_556 S
H826 C784 0.931 1_556 S
H827 C786 0.930 . S
H828 C792 0.929 . S
H829 C794 0.931 1_554 S
H830 C801 0.931 . S
H831 C803 0.930 . S
H832 C811 0.929 . S
H833 C813 0.931 . S
Cd834 N837 2.334 . S
Cd834 N863 2.304 . S
Cd834 O870 2.268 1_554 S
Cd834 O873 2.273 . S
Cd834 O874 2.417 . S
Cd834 O875 2.330 . S
Cd835 N850 2.304 . S
Cd835 N854 2.334 . S
Cd835 O871 2.273 . S
Cd835 O872 2.268 1_556 S
Cd835 O876 2.417 . S
Cd835 O877 2.330 . S
C836 N837 1.332 . S
C836 C840 1.381 . S
C836 H842 0.931 . S
N837 Cd834 2.334 . S
N837 C836 1.332 . S
N837 C841 1.328 . S
C838 C839 1.396 . S
C838 C841 1.378 . S
C838 H880 0.931 1_554 S
C839 C838 1.396 . S
C839 C840 1.382 . S
C840 C836 1.381 . S
C840 C839 1.382 . S
C840 H881 0.930 . S
C841 N837 1.328 . S
C841 C838 1.378 . S
C841 H843 0.930 1_554 S
H842 C836 0.931 . S
H843 C841 0.930 1_556 S
C844 O870 1.238 . S
C844 O871 1.253 . S
C845 C846 1.379 . S
C845 N850 1.337 . S
C845 H851 0.929 . S
C846 C845 1.379 . S
C846 C847 1.380 . S
C846 H882 0.929 . S
C847 C846 1.380 . S
C847 C848 1.399 . S
C848 C847 1.399 . S
C848 C849 1.376 . S
C848 H883 0.931 1_556 S
C849 C848 1.376 . S
C849 N850 1.338 . S
C849 H852 0.930 1_556 S
N850 Cd835 2.304 . S
N850 C845 1.337 . S
N850 C849 1.338 . S
H851 C845 0.929 . S
H852 C849 0.930 1_554 S
C853 N854 1.332 . S
C853 C857 1.381 . S
C853 H859 0.931 . S
N854 Cd835 2.334 . S
N854 C853 1.332 . S
N854 C858 1.328 . S
C855 C856 1.396 . S
C855 C858 1.378 . S
C855 H884 0.931 . S
C856 C855 1.396 . S
C856 C857 1.382 . S
C857 C853 1.381 . S
C857 C856 1.382 . S
C857 H885 0.930 . S
C858 N854 1.328 . S
C858 C855 1.378 . S
C858 H860 0.930 1_556 S
H859 C853 0.931 . S
H860 C858 0.930 1_554 S
C861 O872 1.238 . S
C861 O873 1.253 . S
C862 O874 1.239 . S
C862 O875 1.230 . S
N863 Cd834 2.304 . S
N863 C864 1.337 . S
N863 C868 1.338 . S
C864 N863 1.337 . S
C864 C865 1.379 . S
C864 H878 0.929 . S
C865 C864 1.379 . S
C865 C866 1.380 . S
C865 H886 0.929 . S
C866 C865 1.380 . S
C866 C867 1.399 . S
C867 C866 1.399 . S
C867 C868 1.376 . S
C867 H887 0.931 . S
C868 N863 1.338 . S
C868 C867 1.376 . S
C868 H879 0.930 1_554 S
C869 O876 1.239 . S
C869 O877 1.230 . S
O870 Cd834 2.268 1_556 S
O870 C844 1.238 . S
O871 Cd835 2.273 . S
O871 C844 1.253 . S
O872 Cd835 2.268 1_554 S
O872 C861 1.238 . S
O873 Cd834 2.273 . S
O873 C861 1.253 . S
O874 Cd834 2.417 . S
O874 C862 1.239 . S
O875 Cd834 2.330 . S
O875 C862 1.230 . S
O876 Cd835 2.417 . S
O876 C869 1.239 . S
O877 Cd835 2.330 . S
O877 C869 1.230 . S
H878 C864 0.929 . S
H879 C868 0.930 1_556 S
H880 C838 0.931 1_556 S
H881 C840 0.930 . S
H882 C846 0.929 . S
H883 C848 0.931 1_554 S
H884 C855 0.931 . S
H885 C857 0.930 . S
H886 C865 0.929 . S
H887 C867 0.931 . S
Cd888 N891 2.334 1_655 S
Cd888 N917 2.304 . S
Cd888 O924 2.268 . S
Cd888 O927 2.273 1_655 S
Cd888 O928 2.417 . S
Cd888 O929 2.330 . S
Cd889 N904 2.304 1_455 S
Cd889 N908 2.334 . S
Cd889 O925 2.273 1_455 S
Cd889 O926 2.268 . S
Cd889 O930 2.417 . S
Cd889 O931 2.330 . S
C890 N891 1.332 . S
C890 C894 1.381 . S
C890 H896 0.931 . S
N891 Cd888 2.334 1_455 S
N891 C890 1.332 . S
N891 C895 1.328 . S
C892 C893 1.396 . S
C892 C895 1.378 . S
C892 H934 0.931 . S
C893 C892 1.396 . S
C893 C894 1.382 . S
C894 C890 1.381 . S
C894 C893 1.382 . S
C894 H935 0.930 . S
C895 N891 1.328 . S
C895 C892 1.378 . S
C895 H897 0.930 1_455 S
H896 C890 0.931 . S
H897 C895 0.930 1_655 S
C898 O924 1.238 . S
C898 O925 1.253 . S
C899 C900 1.379 . S
C899 N904 1.337 . S
C899 H905 0.929 . S
C900 C899 1.379 . S
C900 C901 1.380 . S
C900 H936 0.929 . S
C901 C900 1.380 . S
C901 C902 1.399 . S
C902 C901 1.399 . S
C902 C903 1.385 . S
C902 H937 0.931 . S
C903 C902 1.385 . S
C903 N904 1.336 . S
C903 H906 0.922 1_655 S
N904 Cd889 2.304 1_655 S
N904 C899 1.337 . S
N904 C903 1.336 . S
H905 C899 0.929 . S
H906 C903 0.922 1_455 S
C907 N908 1.332 . S
C907 C911 1.381 . S
C907 H913 0.931 . S
N908 Cd889 2.334 . S
N908 C907 1.332 . S
N908 C912 1.328 . S
C909 C910 1.396 . S
C909 C912 1.378 . S
C909 H938 0.931 . S
C910 C909 1.396 . S
C910 C911 1.382 . S
C911 C907 1.381 . S
C911 C910 1.382 . S
C911 H939 0.930 . S
C912 N908 1.328 . S
C912 C909 1.378 . S
C912 H914 0.930 . S
H913 C907 0.931 . S
H914 C912 0.930 . S
C915 O926 1.238 . S
C915 O927 1.253 . S
C916 O928 1.239 . S
C916 O929 1.230 . S
N917 Cd888 2.304 . S
N917 C918 1.337 . S
N917 C922 1.338 . S
C918 N917 1.337 . S
C918 C919 1.379 . S
C918 H932 0.929 . S
C919 C918 1.379 . S
C919 C920 1.380 . S
C919 H940 0.929 . S
C920 C919 1.380 . S
C920 C921 1.399 . S
C921 C920 1.399 . S
C921 C922 1.376 . S
C921 H941 0.931 . S
C922 N917 1.338 . S
C922 C921 1.376 . S
C922 H933 0.930 . S
C923 O930 1.239 . S
C923 O931 1.230 . S
O924 Cd888 2.268 . S
O924 C898 1.238 . S
O925 Cd889 2.273 1_655 S
O925 C898 1.253 . S
O926 Cd889 2.268 . S
O926 C915 1.238 . S
O927 Cd888 2.273 1_455 S
O927 C915 1.253 . S
O928 Cd888 2.417 . S
O928 C916 1.239 . S
O929 Cd888 2.330 . S
O929 C916 1.230 . S
O930 Cd889 2.417 . S
O930 C923 1.239 . S
O931 Cd889 2.330 . S
O931 C923 1.230 . S
H932 C918 0.929 . S
H933 C922 0.930 . S
H934 C892 0.931 . S
H935 C894 0.930 . S
H936 C900 0.929 . S
H937 C902 0.931 . S
H938 C909 0.931 . S
H939 C911 0.930 . S
H940 C919 0.929 . S
H941 C921 0.931 . S
Cd942 N945 2.334 . S
Cd942 N971 2.304 1_565 S
Cd942 O978 2.268 . S
Cd942 O981 2.273 1_565 S
Cd942 O982 2.417 . S
Cd942 O983 2.330 . S
Cd943 N958 2.304 . S
Cd943 N962 2.334 1_545 S
Cd943 O979 2.273 1_545 S
Cd943 O980 2.268 . S
Cd943 O984 2.417 . S
Cd943 O985 2.330 . S
C944 N945 1.332 . S
C944 C948 1.381 . S
C944 H950 0.931 . S
N945 Cd942 2.334 . S
N945 C944 1.332 . S
N945 C949 1.328 . S
C946 C947 1.396 . S
C946 C949 1.378 . S
C946 H988 0.931 . S
C947 C946 1.396 . S
C947 C948 1.382 . S
C948 C944 1.381 . S
C948 C947 1.382 . S
C948 H989 0.930 . S
C949 N945 1.328 . S
C949 C946 1.378 . S
C949 H951 0.930 . S
H950 C944 0.931 . S
H951 C949 0.930 . S
C952 O978 1.238 . S
C952 O979 1.253 . S
C953 C954 1.379 . S
C953 N958 1.337 . S
C953 H959 0.929 . S
C954 C953 1.379 . S
C954 C955 1.380 . S
C954 H990 0.929 . S
C955 C954 1.380 . S
C955 C956 1.399 . S
C956 C955 1.399 . S
C956 C957 1.376 . S
C956 H991 0.931 . S
C957 C956 1.376 . S
C957 N958 1.338 . S
C957 H960 0.930 . S
N958 Cd943 2.304 . S
N958 C953 1.337 . S
N958 C957 1.338 . S
H959 C953 0.929 . S
H960 C957 0.930 . S
C961 N962 1.332 . S
C961 C965 1.381 . S
C961 H967 0.931 . S
N962 Cd943 2.334 1_565 S
N962 C961 1.332 . S
N962 C966 1.328 . S
C963 C964 1.396 . S
C963 C966 1.378 . S
C963 H992 0.931 . S
C964 C963 1.396 . S
C964 C965 1.382 . S
C965 C961 1.381 . S
C965 C964 1.382 . S
C965 H993 0.930 . S
C966 N962 1.328 . S
C966 C963 1.378 . S
C966 H968 0.930 1_565 S
H967 C961 0.931 . S
H968 C966 0.930 1_545 S
C969 O980 1.238 . S
C969 O981 1.253 . S
C970 O982 1.239 . S
C970 O983 1.230 . S
N971 Cd942 2.304 1_545 S
N971 C972 1.337 . S
N971 C976 1.338 . S
C972 N971 1.337 . S
C972 C973 1.379 . S
C972 H986 0.929 . S
C973 C972 1.379 . S
C973 C974 1.380 . S
C973 H994 0.929 . S
C974 C973 1.380 . S
C974 C975 1.399 . S
C975 C974 1.399 . S
C975 C976 1.376 . S
C975 H995 0.931 . S
C976 N971 1.338 . S
C976 C975 1.376 . S
C976 H987 0.930 1_545 S
C977 O984 1.239 . S
C977 O985 1.230 . S
O978 Cd942 2.268 . S
O978 C952 1.238 . S
O979 Cd943 2.273 1_565 S
O979 C952 1.253 . S
O980 Cd943 2.268 . S
O980 C969 1.238 . S
O981 Cd942 2.273 1_545 S
O981 C969 1.253 . S
O982 Cd942 2.417 . S
O982 C970 1.239 . S
O983 Cd942 2.330 . S
O983 C970 1.230 . S
O984 Cd943 2.417 . S
O984 C977 1.239 . S
O985 Cd943 2.330 . S
O985 C977 1.230 . S
H986 C972 0.929 . S
H987 C976 0.930 1_565 S
H988 C946 0.931 . S
H989 C948 0.930 . S
H990 C954 0.929 . S
H991 C956 0.931 . S
H992 C963 0.931 . S
H993 C965 0.930 . S
H994 C973 0.929 . S
H995 C975 0.931 . S
H996 C1008 0.930 . S
H997 C1010 0.930 . S
H998 C1011 0.930 . S
H999 C1015 0.959 . S
H1000 C1015 0.959 . S
H1001 C1015 0.961 . S
H1002 C1016 0.960 . S
H1003 C1016 0.961 . S
H1004 C1016 0.959 . S
H1005 C1019 0.929 . S
H1006 C1020 0.931 . S
H1007 C1022 0.930 . S
C1008 H996 0.930 . S
C1008 C1009 1.399 . S
C1008 C1013 1.399 . S
C1009 C1008 1.399 . S
C1009 C1010 1.376 . S
C1010 H997 0.930 . S
C1010 C1009 1.376 . S
C1010 C1011 1.388 . S
C1011 H998 0.930 . S
C1011 C1010 1.388 . S
C1011 C1012 1.390 . S
C1012 C1011 1.390 . S
C1012 C1013 1.394 . S
C1012 C1018 1.465 . S
C1013 C1008 1.399 . S
C1013 C1012 1.394 . S
C1013 C1014 1.516 . S
C1014 C1013 1.516 . S
C1014 C1015 1.502 . S
C1014 C1016 1.561 . S
C1014 C1017 1.526 . S
C1015 H999 0.959 . S
C1015 H1000 0.959 . S
C1015 H1001 0.961 . S
C1015 C1014 1.502 . S
C1016 H1002 0.960 . S
C1016 H1003 0.961 . S
C1016 H1004 0.959 . S
C1016 C1014 1.561 . S
C1017 C1014 1.526 . S
C1017 C1018 1.396 . S
C1017 C1022 1.390 . S
C1018 C1012 1.465 . S
C1018 C1017 1.396 . S
C1018 C1019 1.399 . S
C1019 H1005 0.929 . S
C1019 C1018 1.399 . S
C1019 C1020 1.385 . S
C1020 H1006 0.931 . S
C1020 C1019 1.385 . S
C1020 C1021 1.389 . S
C1021 C1020 1.389 . S
C1021 C1022 1.387 . S
C1022 H1007 0.930 . S
C1022 C1017 1.390 . S
C1022 C1021 1.387 . S
H1023 C1035 0.930 . S
H1024 C1037 0.930 . S
H1025 C1038 0.930 . S
H1026 C1042 0.959 . S
H1027 C1042 0.959 . S
H1028 C1042 0.961 . S
H1029 C1043 0.960 . S
H1030 C1043 0.961 . S
H1031 C1043 0.959 . S
H1032 C1046 0.929 . S
H1033 C1047 0.931 . S
H1034 C1049 0.930 . S
C1035 H1023 0.930 . S
C1035 C1036 1.399 . S
C1035 C1040 1.399 . S
C1036 C1035 1.399 . S
C1036 C1037 1.376 . S
C1037 H1024 0.930 . S
C1037 C1036 1.376 . S
C1037 C1038 1.388 . S
C1038 H1025 0.930 . S
C1038 C1037 1.388 . S
C1038 C1039 1.390 . S
C1039 C1038 1.390 . S
C1039 C1040 1.394 . S
C1039 C1045 1.465 . S
C1040 C1035 1.399 . S
C1040 C1039 1.394 . S
C1040 C1041 1.516 . S
C1041 C1040 1.516 . S
C1041 C1042 1.502 . S
C1041 C1043 1.561 . S
C1041 C1044 1.526 . S
C1042 H1026 0.959 . S
C1042 H1027 0.959 . S
C1042 H1028 0.961 . S
C1042 C1041 1.502 . S
C1043 H1029 0.960 . S
C1043 H1030 0.961 . S
C1043 H1031 0.959 . S
C1043 C1041 1.561 . S
C1044 C1041 1.526 . S
C1044 C1045 1.396 . S
C1044 C1049 1.390 . S
C1045 C1039 1.465 . S
C1045 C1044 1.396 . S
C1045 C1046 1.399 . S
C1046 H1032 0.929 . S
C1046 C1045 1.399 . S
C1046 C1047 1.385 . S
C1047 H1033 0.931 . S
C1047 C1046 1.385 . S
C1047 C1048 1.389 . S
C1048 C1047 1.389 . S
C1048 C1049 1.387 . S
C1049 H1034 0.930 . S
C1049 C1044 1.390 . S
C1049 C1048 1.387 . S
H1050 C1062 0.930 . S
H1051 C1064 0.930 . S
H1052 C1065 0.930 . S
H1053 C1069 0.959 . S
H1054 C1069 0.959 . S
H1055 C1069 0.961 . S
H1056 C1070 0.960 . S
H1057 C1070 0.961 . S
H1058 C1070 0.959 . S
H1059 C1073 0.929 . S
H1060 C1074 0.931 . S
H1061 C1076 0.930 . S
C1062 H1050 0.930 . S
C1062 C1063 1.399 . S
C1062 C1067 1.399 . S
C1063 C1062 1.399 . S
C1063 C1064 1.376 . S
C1064 H1051 0.930 . S
C1064 C1063 1.376 . S
C1064 C1065 1.388 . S
C1065 H1052 0.930 . S
C1065 C1064 1.388 . S
C1065 C1066 1.390 . S
C1066 C1065 1.390 . S
C1066 C1067 1.394 . S
C1066 C1072 1.465 . S
C1067 C1062 1.399 . S
C1067 C1066 1.394 . S
C1067 C1068 1.516 . S
C1068 C1067 1.516 . S
C1068 C1069 1.502 . S
C1068 C1070 1.561 . S
C1068 C1071 1.526 . S
C1069 H1053 0.959 . S
C1069 H1054 0.959 . S
C1069 H1055 0.961 . S
C1069 C1068 1.502 . S
C1070 H1056 0.960 . S
C1070 H1057 0.961 . S
C1070 H1058 0.959 . S
C1070 C1068 1.561 . S
C1071 C1068 1.526 . S
C1071 C1072 1.396 . S
C1071 C1076 1.390 . S
C1072 C1066 1.465 . S
C1072 C1071 1.396 . S
C1072 C1073 1.399 . S
C1073 H1059 0.929 . S
C1073 C1072 1.399 . S
C1073 C1074 1.385 . S
C1074 H1060 0.931 . S
C1074 C1073 1.385 . S
C1074 C1075 1.389 . S
C1075 C1074 1.389 . S
C1075 C1076 1.387 . S
C1076 H1061 0.930 . S
C1076 C1071 1.390 . S
C1076 C1075 1.387 . S
H1077 C1089 0.930 . S
H1078 C1091 0.930 . S
H1079 C1092 0.930 . S
H1080 C1096 0.959 . S
H1081 C1096 0.959 . S
H1082 C1096 0.961 . S
H1083 C1097 0.960 . S
H1084 C1097 0.961 . S
H1085 C1097 0.959 . S
H1086 C1100 0.929 . S
H1087 C1101 0.931 . S
H1088 C1103 0.930 . S
C1089 H1077 0.930 . S
C1089 C1090 1.399 . S
C1089 C1094 1.399 . S
C1090 C1089 1.399 . S
C1090 C1091 1.376 . S
C1091 H1078 0.930 . S
C1091 C1090 1.376 . S
C1091 C1092 1.388 . S
C1092 H1079 0.930 . S
C1092 C1091 1.388 . S
C1092 C1093 1.390 . S
C1093 C1092 1.390 . S
C1093 C1094 1.394 . S
C1093 C1099 1.465 . S
C1094 C1089 1.399 . S
C1094 C1093 1.394 . S
C1094 C1095 1.516 . S
C1095 C1094 1.516 . S
C1095 C1096 1.502 . S
C1095 C1097 1.561 . S
C1095 C1098 1.526 . S
C1096 H1080 0.959 . S
C1096 H1081 0.959 . S
C1096 H1082 0.961 . S
C1096 C1095 1.502 . S
C1097 H1083 0.960 . S
C1097 H1084 0.961 . S
C1097 H1085 0.959 . S
C1097 C1095 1.561 . S
C1098 C1095 1.526 . S
C1098 C1099 1.396 . S
C1098 C1103 1.390 . S
C1099 C1093 1.465 . S
C1099 C1098 1.396 . S
C1099 C1100 1.399 . S
C1100 H1086 0.929 . S
C1100 C1099 1.399 . S
C1100 C1101 1.385 . S
C1101 H1087 0.931 . S
C1101 C1100 1.385 . S
C1101 C1102 1.389 . S
C1102 C1101 1.389 . S
C1102 C1103 1.387 . S
C1103 H1088 0.930 . S
C1103 C1098 1.390 . S
C1103 C1102 1.387 . S
H1104 C1116 0.930 . S
H1105 C1118 0.930 . S
H1106 C1119 0.930 . S
H1107 C1123 0.959 . S
H1108 C1123 0.959 . S
H1109 C1123 0.961 . S
H1110 C1124 0.960 . S
H1111 C1124 0.961 . S
H1112 C1124 0.959 . S
H1113 C1127 0.929 . S
H1114 C1128 0.931 . S
H1115 C1130 0.930 . S
C1116 H1104 0.930 . S
C1116 C1117 1.399 . S
C1116 C1121 1.399 . S
C1117 C1116 1.399 . S
C1117 C1118 1.376 . S
C1118 H1105 0.930 . S
C1118 C1117 1.376 . S
C1118 C1119 1.388 . S
C1119 H1106 0.930 . S
C1119 C1118 1.388 . S
C1119 C1120 1.390 . S
C1120 C1119 1.390 . S
C1120 C1121 1.394 . S
C1120 C1126 1.465 . S
C1121 C1116 1.399 . S
C1121 C1120 1.394 . S
C1121 C1122 1.516 . S
C1122 C1121 1.516 . S
C1122 C1123 1.502 . S
C1122 C1124 1.561 . S
C1122 C1125 1.526 . S
C1123 H1107 0.959 . S
C1123 H1108 0.959 . S
C1123 H1109 0.961 . S
C1123 C1122 1.502 . S
C1124 H1110 0.960 . S
C1124 H1111 0.961 . S
C1124 H1112 0.959 . S
C1124 C1122 1.561 . S
C1125 C1122 1.526 . S
C1125 C1126 1.396 . S
C1125 C1130 1.390 . S
C1126 C1120 1.465 . S
C1126 C1125 1.396 . S
C1126 C1127 1.399 . S
C1127 H1113 0.929 . S
C1127 C1126 1.399 . S
C1127 C1128 1.385 . S
C1128 H1114 0.931 . S
C1128 C1127 1.385 . S
C1128 C1129 1.389 . S
C1129 C1128 1.389 . S
C1129 C1130 1.387 . S
C1130 H1115 0.930 . S
C1130 C1125 1.390 . S
C1130 C1129 1.387 . S
H1131 C1143 0.930 . S
H1132 C1145 0.930 . S
H1133 C1146 0.930 . S
H1134 C1150 0.959 . S
H1135 C1150 0.959 . S
H1136 C1150 0.961 . S
H1137 C1151 0.960 . S
H1138 C1151 0.961 . S
H1139 C1151 0.959 . S
H1140 C1154 0.929 . S
H1141 C1155 0.931 . S
H1142 C1157 0.930 . S
C1143 H1131 0.930 . S
C1143 C1144 1.399 . S
C1143 C1148 1.399 . S
C1144 C1143 1.399 . S
C1144 C1145 1.376 . S
C1145 H1132 0.930 . S
C1145 C1144 1.376 . S
C1145 C1146 1.388 . S
C1146 H1133 0.930 . S
C1146 C1145 1.388 . S
C1146 C1147 1.390 . S
C1147 C1146 1.390 . S
C1147 C1148 1.394 . S
C1147 C1153 1.465 . S
C1148 C1143 1.399 . S
C1148 C1147 1.394 . S
C1148 C1149 1.516 . S
C1149 C1148 1.516 . S
C1149 C1150 1.502 . S
C1149 C1151 1.561 . S
C1149 C1152 1.526 . S
C1150 H1134 0.959 . S
C1150 H1135 0.959 . S
C1150 H1136 0.961 . S
C1150 C1149 1.502 . S
C1151 H1137 0.960 . S
C1151 H1138 0.961 . S
C1151 H1139 0.959 . S
C1151 C1149 1.561 . S
C1152 C1149 1.526 . S
C1152 C1153 1.396 . S
C1152 C1157 1.390 . S
C1153 C1147 1.465 . S
C1153 C1152 1.396 . S
C1153 C1154 1.399 . S
C1154 H1140 0.929 . S
C1154 C1153 1.399 . S
C1154 C1155 1.385 . S
C1155 H1141 0.931 . S
C1155 C1154 1.385 . S
C1155 C1156 1.389 . S
C1156 C1155 1.389 . S
C1156 C1157 1.387 . S
C1157 H1142 0.930 . S
C1157 C1152 1.390 . S
C1157 C1156 1.387 . S
H1158 C1170 0.930 . S
H1159 C1172 0.930 . S
H1160 C1173 0.930 . S
H1161 C1177 0.959 . S
H1162 C1177 0.959 . S
H1163 C1177 0.961 . S
H1164 C1178 0.960 . S
H1165 C1178 0.961 . S
H1166 C1178 0.959 . S
H1167 C1181 0.929 . S
H1168 C1182 0.931 . S
H1169 C1184 0.930 . S
C1170 H1158 0.930 . S
C1170 C1171 1.399 . S
C1170 C1175 1.399 . S
C1171 C1170 1.399 . S
C1171 C1172 1.376 . S
C1172 H1159 0.930 . S
C1172 C1171 1.376 . S
C1172 C1173 1.388 . S
C1173 H1160 0.930 . S
C1173 C1172 1.388 . S
C1173 C1174 1.390 . S
C1174 C1173 1.390 . S
C1174 C1175 1.394 . S
C1174 C1180 1.465 . S
C1175 C1170 1.399 . S
C1175 C1174 1.394 . S
C1175 C1176 1.516 . S
C1176 C1175 1.516 . S
C1176 C1177 1.502 . S
C1176 C1178 1.561 . S
C1176 C1179 1.526 . S
C1177 H1161 0.959 . S
C1177 H1162 0.959 . S
C1177 H1163 0.961 . S
C1177 C1176 1.502 . S
C1178 H1164 0.960 . S
C1178 H1165 0.961 . S
C1178 H1166 0.959 . S
C1178 C1176 1.561 . S
C1179 C1176 1.526 . S
C1179 C1180 1.396 . S
C1179 C1184 1.390 . S
C1180 C1174 1.465 . S
C1180 C1179 1.396 . S
C1180 C1181 1.399 . S
C1181 H1167 0.929 . S
C1181 C1180 1.399 . S
C1181 C1182 1.385 . S
C1182 H1168 0.931 . S
C1182 C1181 1.385 . S
C1182 C1183 1.389 . S
C1183 C1182 1.389 . S
C1183 C1184 1.387 . S
C1184 H1169 0.930 . S
C1184 C1179 1.390 . S
C1184 C1183 1.387 . S
H1185 C1197 0.930 . S
H1186 C1199 0.930 . S
H1187 C1200 0.930 . S
H1188 C1204 0.959 . S
H1189 C1204 0.959 . S
H1190 C1204 0.961 . S
H1191 C1205 0.960 . S
H1192 C1205 0.961 . S
H1193 C1205 0.959 . S
H1194 C1208 0.929 . S
H1195 C1209 0.931 . S
H1196 C1211 0.930 . S
C1197 H1185 0.930 . S
C1197 C1198 1.399 . S
C1197 C1202 1.399 . S
C1198 C1197 1.399 . S
C1198 C1199 1.376 . S
C1199 H1186 0.930 . S
C1199 C1198 1.376 . S
C1199 C1200 1.388 . S
C1200 H1187 0.930 . S
C1200 C1199 1.388 . S
C1200 C1201 1.390 . S
C1201 C1200 1.390 . S
C1201 C1202 1.394 . S
C1201 C1207 1.465 . S
C1202 C1197 1.399 . S
C1202 C1201 1.394 . S
C1202 C1203 1.516 . S
C1203 C1202 1.516 . S
C1203 C1204 1.502 . S
C1203 C1205 1.561 . S
C1203 C1206 1.526 . S
C1204 H1188 0.959 . S
C1204 H1189 0.959 . S
C1204 H1190 0.961 . S
C1204 C1203 1.502 . S
C1205 H1191 0.960 . S
C1205 H1192 0.961 . S
C1205 H1193 0.959 . S
C1205 C1203 1.561 . S
C1206 C1203 1.526 . S
C1206 C1207 1.396 . S
C1206 C1211 1.390 . S
C1207 C1201 1.465 . S
C1207 C1206 1.396 . S
C1207 C1208 1.399 . S
C1208 H1194 0.929 . S
C1208 C1207 1.399 . S
C1208 C1209 1.385 . S
C1209 H1195 0.931 . S
C1209 C1208 1.385 . S
C1209 C1210 1.389 . S
C1210 C1209 1.389 . S
C1210 C1211 1.387 . S
C1211 H1196 0.930 . S
C1211 C1206 1.390 . S
C1211 C1210 1.387 . S
H1212 C1224 0.930 . S
H1213 C1226 0.930 . S
H1214 C1227 0.930 . S
H1215 C1231 0.959 . S
H1216 C1231 0.959 . S
H1217 C1231 0.961 . S
H1218 C1232 0.960 . S
H1219 C1232 0.961 . S
H1220 C1232 0.959 . S
H1221 C1235 0.929 . S
H1222 C1236 0.931 . S
H1223 C1238 0.930 . S
C1224 H1212 0.930 . S
C1224 C1225 1.399 . S
C1224 C1229 1.399 . S
C1225 C1224 1.399 . S
C1225 C1226 1.376 . S
C1226 H1213 0.930 . S
C1226 C1225 1.376 . S
C1226 C1227 1.388 . S
C1227 H1214 0.930 . S
C1227 C1226 1.388 . S
C1227 C1228 1.390 . S
C1228 C1227 1.390 . S
C1228 C1229 1.394 . S
C1228 C1234 1.465 . S
C1229 C1224 1.399 . S
C1229 C1228 1.394 . S
C1229 C1230 1.516 . S
C1230 C1229 1.516 . S
C1230 C1231 1.502 . S
C1230 C1232 1.561 . S
C1230 C1233 1.526 . S
C1231 H1215 0.959 . S
C1231 H1216 0.959 . S
C1231 H1217 0.961 . S
C1231 C1230 1.502 . S
C1232 H1218 0.960 . S
C1232 H1219 0.961 . S
C1232 H1220 0.959 . S
C1232 C1230 1.561 . S
C1233 C1230 1.526 . S
C1233 C1234 1.396 . S
C1233 C1238 1.390 . S
C1234 C1228 1.465 . S
C1234 C1233 1.396 . S
C1234 C1235 1.399 . S
C1235 H1221 0.929 . S
C1235 C1234 1.399 . S
C1235 C1236 1.385 . S
C1236 H1222 0.931 . S
C1236 C1235 1.385 . S
C1236 C1237 1.389 . S
C1237 C1236 1.389 . S
C1237 C1238 1.387 . S
C1238 H1223 0.930 . S
C1238 C1233 1.390 . S
C1238 C1237 1.387 . S
H1239 C1251 0.930 . S
H1240 C1253 0.930 . S
H1241 C1254 0.930 . S
H1242 C1258 0.959 . S
H1243 C1258 0.959 . S
H1244 C1258 0.961 . S
H1245 C1259 0.960 . S
H1246 C1259 0.961 . S
H1247 C1259 0.959 . S
H1248 C1262 0.929 . S
H1249 C1263 0.931 . S
H1250 C1265 0.930 . S
C1251 H1239 0.930 . S
C1251 C1252 1.399 . S
C1251 C1256 1.399 . S
C1252 C1251 1.399 . S
C1252 C1253 1.376 . S
C1253 H1240 0.930 . S
C1253 C1252 1.376 . S
C1253 C1254 1.388 . S
C1254 H1241 0.930 . S
C1254 C1253 1.388 . S
C1254 C1255 1.390 . S
C1255 C1254 1.390 . S
C1255 C1256 1.394 . S
C1255 C1261 1.465 . S
C1256 C1251 1.399 . S
C1256 C1255 1.394 . S
C1256 C1257 1.516 . S
C1257 C1256 1.516 . S
C1257 C1258 1.502 . S
C1257 C1259 1.561 . S
C1257 C1260 1.526 . S
C1258 H1242 0.959 . S
C1258 H1243 0.959 . S
C1258 H1244 0.961 . S
C1258 C1257 1.502 . S
C1259 H1245 0.960 . S
C1259 H1246 0.961 . S
C1259 H1247 0.959 . S
C1259 C1257 1.561 . S
C1260 C1257 1.526 . S
C1260 C1261 1.396 . S
C1260 C1265 1.390 . S
C1261 C1255 1.465 . S
C1261 C1260 1.396 . S
C1261 C1262 1.399 . S
C1262 H1248 0.929 . S
C1262 C1261 1.399 . S
C1262 C1263 1.385 . S
C1263 H1249 0.931 . S
C1263 C1262 1.385 . S
C1263 C1264 1.389 . S
C1264 C1263 1.389 . S
C1264 C1265 1.387 . S
C1265 H1250 0.930 . S
C1265 C1260 1.390 . S
C1265 C1264 1.387 . S
H1266 C1278 0.930 . S
H1267 C1280 0.930 . S
H1268 C1281 0.930 . S
H1269 C1285 0.959 . S
H1270 C1285 0.959 . S
H1271 C1285 0.961 . S
H1272 C1286 0.960 . S
H1273 C1286 0.961 1_556 S
H1274 C1286 0.959 . S
H1275 C1289 0.929 . S
H1276 C1290 0.931 . S
H1277 C1292 0.930 . S
C1278 H1266 0.930 . S
C1278 C1279 1.399 . S
C1278 C1283 1.399 . S
C1279 C1278 1.399 . S
C1279 C1280 1.376 . S
C1280 H1267 0.930 . S
C1280 C1279 1.376 . S
C1280 C1281 1.388 . S
C1281 H1268 0.930 . S
C1281 C1280 1.388 . S
C1281 C1282 1.390 . S
C1282 C1281 1.390 . S
C1282 C1283 1.394 . S
C1282 C1288 1.465 . S
C1283 C1278 1.399 . S
C1283 C1282 1.394 . S
C1283 C1284 1.516 . S
C1284 C1283 1.516 . S
C1284 C1285 1.502 . S
C1284 C1286 1.561 . S
C1284 C1287 1.526 . S
C1285 H1269 0.959 . S
C1285 H1270 0.959 . S
C1285 H1271 0.961 . S
C1285 C1284 1.502 . S
C1286 H1272 0.960 . S
C1286 H1273 0.961 1_554 S
C1286 H1274 0.959 . S
C1286 C1284 1.561 . S
C1287 C1284 1.526 . S
C1287 C1288 1.396 . S
C1287 C1292 1.390 . S
C1288 C1282 1.465 . S
C1288 C1287 1.396 . S
C1288 C1289 1.399 . S
C1289 H1275 0.929 . S
C1289 C1288 1.399 . S
C1289 C1290 1.385 . S
C1290 H1276 0.931 . S
C1290 C1289 1.385 . S
C1290 C1291 1.389 . S
C1291 C1290 1.389 . S
C1291 C1292 1.387 . S
C1292 H1277 0.930 . S
C1292 C1287 1.390 . S
C1292 C1291 1.387 . S
H1293 C1305 0.930 . S
H1294 C1307 0.930 . S
H1295 C1308 0.930 . S
H1296 C1312 0.959 . S
H1297 C1312 0.959 . S
H1298 C1312 0.961 . S
H1299 C1313 0.960 . S
H1300 C1313 0.961 . S
H1301 C1313 0.959 . S
H1302 C1316 0.929 . S
H1303 C1317 0.931 . S
H1304 C1319 0.930 . S
C1305 H1293 0.930 . S
C1305 C1306 1.399 . S
C1305 C1310 1.399 . S
C1306 C1305 1.399 . S
C1306 C1307 1.376 . S
C1307 H1294 0.930 . S
C1307 C1306 1.376 . S
C1307 C1308 1.388 . S
C1308 H1295 0.930 . S
C1308 C1307 1.388 . S
C1308 C1309 1.390 . S
C1309 C1308 1.390 . S
C1309 C1310 1.394 . S
C1309 C1315 1.465 . S
C1310 C1305 1.399 . S
C1310 C1309 1.394 . S
C1310 C1311 1.516 . S
C1311 C1310 1.516 . S
C1311 C1312 1.502 . S
C1311 C1313 1.561 . S
C1311 C1314 1.526 . S
C1312 H1296 0.959 . S
C1312 H1297 0.959 . S
C1312 H1298 0.961 . S
C1312 C1311 1.502 . S
C1313 H1299 0.960 . S
C1313 H1300 0.961 . S
C1313 H1301 0.959 . S
C1313 C1311 1.561 . S
C1314 C1311 1.526 . S
C1314 C1315 1.396 . S
C1314 C1319 1.390 . S
C1315 C1309 1.465 . S
C1315 C1314 1.396 . S
C1315 C1316 1.399 . S
C1316 H1302 0.929 . S
C1316 C1315 1.399 . S
C1316 C1317 1.385 . S
C1317 H1303 0.931 . S
C1317 C1316 1.385 . S
C1317 C1318 1.389 . S
C1318 C1317 1.389 . S
C1318 C1319 1.387 . S
C1319 H1304 0.930 . S
C1319 C1314 1.390 . S
C1319 C1318 1.387 . S
H1320 C1332 0.930 . S
H1321 C1334 0.930 . S
H1322 C1335 0.930 . S
H1323 C1339 0.959 . S
H1324 C1339 0.959 . S
H1325 C1339 0.961 . S
H1326 C1340 0.960 . S
H1327 C1340 0.961 . S
H1328 C1340 0.959 . S
H1329 C1343 0.929 . S
H1330 C1344 0.931 . S
H1331 C1346 0.930 . S
C1332 H1320 0.930 . S
C1332 C1333 1.399 . S
C1332 C1337 1.399 . S
C1333 C1332 1.399 . S
C1333 C1334 1.376 . S
C1334 H1321 0.930 . S
C1334 C1333 1.376 . S
C1334 C1335 1.388 . S
C1335 H1322 0.930 . S
C1335 C1334 1.388 . S
C1335 C1336 1.390 . S
C1336 C1335 1.390 . S
C1336 C1337 1.394 . S
C1336 C1342 1.465 . S
C1337 C1332 1.399 . S
C1337 C1336 1.394 . S
C1337 C1338 1.516 . S
C1338 C1337 1.516 . S
C1338 C1339 1.502 . S
C1338 C1340 1.561 . S
C1338 C1341 1.526 . S
C1339 H1323 0.959 . S
C1339 H1324 0.959 . S
C1339 H1325 0.961 . S
C1339 C1338 1.502 . S
C1340 H1326 0.960 . S
C1340 H1327 0.961 . S
C1340 H1328 0.959 . S
C1340 C1338 1.561 . S
C1341 C1338 1.526 . S
C1341 C1342 1.396 . S
C1341 C1346 1.390 . S
C1342 C1336 1.465 . S
C1342 C1341 1.396 . S
C1342 C1343 1.399 . S
C1343 H1329 0.929 . S
C1343 C1342 1.399 . S
C1343 C1344 1.385 . S
C1344 H1330 0.931 . S
C1344 C1343 1.385 . S
C1344 C1345 1.389 . S
C1345 C1344 1.389 . S
C1345 C1346 1.387 . S
C1346 H1331 0.930 . S
C1346 C1341 1.390 . S
C1346 C1345 1.387 . S
H1347 C1359 0.930 . S
H1348 C1361 0.930 . S
H1349 C1362 0.930 . S
H1350 C1366 0.959 . S
H1351 C1366 0.959 . S
H1352 C1366 0.961 . S
H1353 C1367 0.960 . S
H1354 C1367 0.961 . S
H1355 C1367 0.959 . S
H1356 C1370 0.929 . S
H1357 C1371 0.931 . S
H1358 C1373 0.930 . S
C1359 H1347 0.930 . S
C1359 C1360 1.399 . S
C1359 C1364 1.399 . S
C1360 C1359 1.399 . S
C1360 C1361 1.376 . S
C1361 H1348 0.930 . S
C1361 C1360 1.376 . S
C1361 C1362 1.388 . S
C1362 H1349 0.930 . S
C1362 C1361 1.388 . S
C1362 C1363 1.390 . S
C1363 C1362 1.390 . S
C1363 C1364 1.394 . S
C1363 C1369 1.465 . S
C1364 C1359 1.399 . S
C1364 C1363 1.394 . S
C1364 C1365 1.516 . S
C1365 C1364 1.516 . S
C1365 C1366 1.502 . S
C1365 C1367 1.561 . S
C1365 C1368 1.526 . S
C1366 H1350 0.959 . S
C1366 H1351 0.959 . S
C1366 H1352 0.961 . S
C1366 C1365 1.502 . S
C1367 H1353 0.960 . S
C1367 H1354 0.961 . S
C1367 H1355 0.959 . S
C1367 C1365 1.561 . S
C1368 C1365 1.526 . S
C1368 C1369 1.396 . S
C1368 C1373 1.390 . S
C1369 C1363 1.465 . S
C1369 C1368 1.396 . S
C1369 C1370 1.399 . S
C1370 H1356 0.929 . S
C1370 C1369 1.399 . S
C1370 C1371 1.385 . S
C1371 H1357 0.931 . S
C1371 C1370 1.385 . S
C1371 C1372 1.389 . S
C1372 C1371 1.389 . S
C1372 C1373 1.387 . S
C1373 H1358 0.930 . S
C1373 C1368 1.390 . S
C1373 C1372 1.387 . S
H1374 C1386 0.930 . S
H1375 C1388 0.930 . S
H1376 C1389 0.930 . S
H1377 C1393 0.959 . S
H1378 C1393 0.959 . S
H1379 C1393 0.961 . S
H1380 C1394 0.960 . S
H1381 C1394 0.961 . S
H1382 C1394 0.959 . S
H1383 C1397 0.929 . S
H1384 C1398 0.931 . S
H1385 C1400 0.930 . S
C1386 H1374 0.930 . S
C1386 C1387 1.399 . S
C1386 C1391 1.399 . S
C1387 C1386 1.399 . S
C1387 C1388 1.376 . S
C1388 H1375 0.930 . S
C1388 C1387 1.376 . S
C1388 C1389 1.388 . S
C1389 H1376 0.930 . S
C1389 C1388 1.388 . S
C1389 C1390 1.390 . S
C1390 C1389 1.390 . S
C1390 C1391 1.394 . S
C1390 C1396 1.465 . S
C1391 C1386 1.399 . S
C1391 C1390 1.394 . S
C1391 C1392 1.516 . S
C1392 C1391 1.516 . S
C1392 C1393 1.502 . S
C1392 C1394 1.561 . S
C1392 C1395 1.526 . S
C1393 H1377 0.959 . S
C1393 H1378 0.959 . S
C1393 H1379 0.961 . S
C1393 C1392 1.502 . S
C1394 H1380 0.960 . S
C1394 H1381 0.961 . S
C1394 H1382 0.959 . S
C1394 C1392 1.561 . S
C1395 C1392 1.526 . S
C1395 C1396 1.396 . S
C1395 C1400 1.390 . S
C1396 C1390 1.465 . S
C1396 C1395 1.396 . S
C1396 C1397 1.399 . S
C1397 H1383 0.929 . S
C1397 C1396 1.399 . S
C1397 C1398 1.385 . S
C1398 H1384 0.931 . S
C1398 C1397 1.385 . S
C1398 C1399 1.389 . S
C1399 C1398 1.389 . S
C1399 C1400 1.387 . S
C1400 H1385 0.930 . S
C1400 C1395 1.390 . S
C1400 C1399 1.387 . S
H1401 C1413 0.930 . S
H1402 C1415 0.930 . S
H1403 C1416 0.930 . S
H1404 C1420 0.959 . S
H1405 C1420 0.959 . S
H1406 C1420 0.961 . S
H1407 C1421 0.960 . S
H1408 C1421 0.961 1_554 S
H1409 C1421 0.959 . S
H1410 C1424 0.929 . S
H1411 C1425 0.931 . S
H1412 C1427 0.930 . S
C1413 H1401 0.930 . S
C1413 C1414 1.399 . S
C1413 C1418 1.399 . S
C1414 C1413 1.399 . S
C1414 C1415 1.376 . S
C1415 H1402 0.930 . S
C1415 C1414 1.376 . S
C1415 C1416 1.388 . S
C1416 H1403 0.930 . S
C1416 C1415 1.388 . S
C1416 C1417 1.390 . S
C1417 C1416 1.390 . S
C1417 C1418 1.394 . S
C1417 C1423 1.465 . S
C1418 C1413 1.399 . S
C1418 C1417 1.394 . S
C1418 C1419 1.516 . S
C1419 C1418 1.516 . S
C1419 C1420 1.502 . S
C1419 C1421 1.561 . S
C1419 C1422 1.526 . S
C1420 H1404 0.959 . S
C1420 H1405 0.959 . S
C1420 H1406 0.961 . S
C1420 C1419 1.502 . S
C1421 H1407 0.960 . S
C1421 H1408 0.961 1_556 S
C1421 H1409 0.959 . S
C1421 C1419 1.561 . S
C1422 C1419 1.526 . S
C1422 C1423 1.396 . S
C1422 C1427 1.390 . S
C1423 C1417 1.465 . S
C1423 C1422 1.396 . S
C1423 C1424 1.399 . S
C1424 H1410 0.929 . S
C1424 C1423 1.399 . S
C1424 C1425 1.385 . S
C1425 H1411 0.931 . S
C1425 C1424 1.385 . S
C1425 C1426 1.389 . S
C1426 C1425 1.389 . S
C1426 C1427 1.387 . S
C1427 H1412 0.930 . S
C1427 C1422 1.390 . S
C1427 C1426 1.387 . S
H1428 C1440 0.930 . S
H1429 C1442 0.930 . S
H1430 C1443 0.930 . S
H1431 C1447 0.959 . S
H1432 C1447 0.959 . S
H1433 C1447 0.961 . S
H1434 C1448 0.960 . S
H1435 C1448 0.961 . S
H1436 C1448 0.959 . S
H1437 C1451 0.929 . S
H1438 C1452 0.931 1_556 S
H1439 C1454 0.930 . S
C1440 H1428 0.930 . S
C1440 C1441 1.399 . S
C1440 C1445 1.399 . S
C1441 C1440 1.399 . S
C1441 C1442 1.376 . S
C1442 H1429 0.930 . S
C1442 C1441 1.376 . S
C1442 C1443 1.388 . S
C1443 H1430 0.930 . S
C1443 C1442 1.388 . S
C1443 C1444 1.390 . S
C1444 C1443 1.390 . S
C1444 C1445 1.394 . S
C1444 C1450 1.465 . S
C1445 C1440 1.399 . S
C1445 C1444 1.394 . S
C1445 C1446 1.516 . S
C1446 C1445 1.516 . S
C1446 C1447 1.502 . S
C1446 C1448 1.561 . S
C1446 C1449 1.526 . S
C1447 H1431 0.959 . S
C1447 H1432 0.959 . S
C1447 H1433 0.961 . S
C1447 C1446 1.502 . S
C1448 H1434 0.960 . S
C1448 H1435 0.961 . S
C1448 H1436 0.959 . S
C1448 C1446 1.561 . S
C1449 C1446 1.526 . S
C1449 C1450 1.396 . S
C1449 C1454 1.390 . S
C1450 C1444 1.465 . S
C1450 C1449 1.396 . S
C1450 C1451 1.399 . S
C1451 H1437 0.929 . S
C1451 C1450 1.399 . S
C1451 C1452 1.385 . S
C1452 H1438 0.931 1_554 S
C1452 C1451 1.385 . S
C1452 C1453 1.389 . S
C1453 C1452 1.389 . S
C1453 C1454 1.387 . S
C1454 H1439 0.930 . S
C1454 C1449 1.390 . S
C1454 C1453 1.387 . S
H1455 C1467 0.930 . S
H1456 C1469 0.930 . S
H1457 C1470 0.930 . S
H1458 C1474 0.959 . S
H1459 C1474 0.959 . S
H1460 C1474 0.961 . S
H1461 C1475 0.960 . S
H1462 C1475 0.961 . S
H1463 C1475 0.959 . S
H1464 C1478 0.929 . S
H1465 C1479 0.931 . S
H1466 C1481 0.930 . S
C1467 H1455 0.930 . S
C1467 C1468 1.399 . S
C1467 C1472 1.399 . S
C1468 C1467 1.399 . S
C1468 C1469 1.376 . S
C1469 H1456 0.930 . S
C1469 C1468 1.376 . S
C1469 C1470 1.388 . S
C1470 H1457 0.930 . S
C1470 C1469 1.388 . S
C1470 C1471 1.390 . S
C1471 C1470 1.390 . S
C1471 C1472 1.394 . S
C1471 C1477 1.465 . S
C1472 C1467 1.399 . S
C1472 C1471 1.394 . S
C1472 C1473 1.516 . S
C1473 C1472 1.516 . S
C1473 C1474 1.502 . S
C1473 C1475 1.561 . S
C1473 C1476 1.526 . S
C1474 H1458 0.959 . S
C1474 H1459 0.959 . S
C1474 H1460 0.961 . S
C1474 C1473 1.502 . S
C1475 H1461 0.960 . S
C1475 H1462 0.961 . S
C1475 H1463 0.959 . S
C1475 C1473 1.561 . S
C1476 C1473 1.526 . S
C1476 C1477 1.396 . S
C1476 C1481 1.390 . S
C1477 C1471 1.465 . S
C1477 C1476 1.396 . S
C1477 C1478 1.399 . S
C1478 H1464 0.929 . S
C1478 C1477 1.399 . S
C1478 C1479 1.385 . S
C1479 H1465 0.931 . S
C1479 C1478 1.385 . S
C1479 C1480 1.389 . S
C1480 C1479 1.389 . S
C1480 C1481 1.387 . S
C1481 H1466 0.930 . S
C1481 C1476 1.390 . S
C1481 C1480 1.387 . S
H1482 C1494 0.930 . S
H1483 C1496 0.930 . S
H1484 C1497 0.930 . S
H1485 C1501 0.959 . S
H1486 C1501 0.959 1_554 S
H1487 C1501 0.961 . S
H1488 C1502 0.960 . S
H1489 C1502 0.961 1_554 S
H1490 C1502 0.959 . S
H1491 C1505 0.929 . S
H1492 C1506 0.931 . S
H1493 C1508 0.930 . S
C1494 H1482 0.930 . S
C1494 C1495 1.399 . S
C1494 C1499 1.399 . S
C1495 C1494 1.399 . S
C1495 C1496 1.376 . S
C1496 H1483 0.930 . S
C1496 C1495 1.376 . S
C1496 C1497 1.388 . S
C1497 H1484 0.930 . S
C1497 C1496 1.388 . S
C1497 C1498 1.390 . S
C1498 C1497 1.390 . S
C1498 C1499 1.394 . S
C1498 C1504 1.465 . S
C1499 C1494 1.399 . S
C1499 C1498 1.394 . S
C1499 C1500 1.516 . S
C1500 C1499 1.516 . S
C1500 C1501 1.502 . S
C1500 C1502 1.561 . S
C1500 C1503 1.526 . S
C1501 H1485 0.959 . S
C1501 H1486 0.959 1_556 S
C1501 H1487 0.961 . S
C1501 C1500 1.502 . S
C1502 H1488 0.960 . S
C1502 H1489 0.961 1_556 S
C1502 H1490 0.959 . S
C1502 C1500 1.561 . S
C1503 C1500 1.526 . S
C1503 C1504 1.396 . S
C1503 C1508 1.390 . S
C1504 C1498 1.465 . S
C1504 C1503 1.396 . S
C1504 C1505 1.399 . S
C1505 H1491 0.929 . S
C1505 C1504 1.399 . S
C1505 C1506 1.385 . S
C1506 H1492 0.931 . S
C1506 C1505 1.385 . S
C1506 C1507 1.389 . S
C1507 C1506 1.389 . S
C1507 C1508 1.387 . S
C1508 H1493 0.930 . S
C1508 C1503 1.390 . S
C1508 C1507 1.387 . S
H1509 C1521 0.930 . S
H1510 C1523 0.930 . S
H1511 C1524 0.930 . S
H1512 C1528 0.959 . S
H1513 C1528 0.959 . S
H1514 C1528 0.961 . S
H1515 C1529 0.960 . S
H1516 C1529 0.961 . S
H1517 C1529 0.959 . S
H1518 C1532 0.929 . S
H1519 C1533 0.931 . S
H1520 C1535 0.930 . S
C1521 H1509 0.930 . S
C1521 C1522 1.399 . S
C1521 C1526 1.399 . S
C1522 C1521 1.399 . S
C1522 C1523 1.376 . S
C1523 H1510 0.930 . S
C1523 C1522 1.376 . S
C1523 C1524 1.388 . S
C1524 H1511 0.930 . S
C1524 C1523 1.388 . S
C1524 C1525 1.390 . S
C1525 C1524 1.390 . S
C1525 C1526 1.394 . S
C1525 C1531 1.465 . S
C1526 C1521 1.399 . S
C1526 C1525 1.394 . S
C1526 C1527 1.516 . S
C1527 C1526 1.516 . S
C1527 C1528 1.502 . S
C1527 C1529 1.561 . S
C1527 C1530 1.526 . S
C1528 H1512 0.959 . S
C1528 H1513 0.959 . S
C1528 H1514 0.961 . S
C1528 C1527 1.502 . S
C1529 H1515 0.960 . S
C1529 H1516 0.961 . S
C1529 H1517 0.959 . S
C1529 C1527 1.561 . S
C1530 C1527 1.526 . S
C1530 C1531 1.396 . S
C1530 C1535 1.390 . S
C1531 C1525 1.465 . S
C1531 C1530 1.396 . S
C1531 C1532 1.399 . S
C1532 H1518 0.929 . S
C1532 C1531 1.399 . S
C1532 C1533 1.385 . S
C1533 H1519 0.931 . S
C1533 C1532 1.385 . S
C1533 C1534 1.389 . S
C1534 C1533 1.389 . S
C1534 C1535 1.387 . S
C1535 H1520 0.930 . S
C1535 C1530 1.390 . S
C1535 C1534 1.387 . S
H1536 C1548 0.930 . S
H1537 C1550 0.930 . S
H1538 C1551 0.930 . S
H1539 C1555 0.959 . S
H1540 C1555 0.959 . S
H1541 C1555 0.961 . S
H1542 C1556 0.960 . S
H1543 C1556 0.961 . S
H1544 C1556 0.959 . S
H1545 C1559 0.929 . S
H1546 C1560 0.931 . S
H1547 C1562 0.930 . S
C1548 H1536 0.930 . S
C1548 C1549 1.399 . S
C1548 C1553 1.399 . S
C1549 C1548 1.399 . S
C1549 C1550 1.376 . S
C1550 H1537 0.930 . S
C1550 C1549 1.376 . S
C1550 C1551 1.388 . S
C1551 H1538 0.930 . S
C1551 C1550 1.388 . S
C1551 C1552 1.390 . S
C1552 C1551 1.390 . S
C1552 C1553 1.394 . S
C1552 C1558 1.465 . S
C1553 C1548 1.399 . S
C1553 C1552 1.394 . S
C1553 C1554 1.516 . S
C1554 C1553 1.516 . S
C1554 C1555 1.502 . S
C1554 C1556 1.561 . S
C1554 C1557 1.526 . S
C1555 H1539 0.959 . S
C1555 H1540 0.959 . S
C1555 H1541 0.961 . S
C1555 C1554 1.502 . S
C1556 H1542 0.960 . S
C1556 H1543 0.961 . S
C1556 H1544 0.959 . S
C1556 C1554 1.561 . S
C1557 C1554 1.526 . S
C1557 C1558 1.396 . S
C1557 C1562 1.390 . S
C1558 C1552 1.465 . S
C1558 C1557 1.396 . S
C1558 C1559 1.399 . S
C1559 H1545 0.929 . S
C1559 C1558 1.399 . S
C1559 C1560 1.385 . S
C1560 H1546 0.931 . S
C1560 C1559 1.385 . S
C1560 C1561 1.389 . S
C1561 C1560 1.389 . S
C1561 C1562 1.387 . S
C1562 H1547 0.930 . S
C1562 C1557 1.390 . S
C1562 C1561 1.387 . S
H1563 C1575 0.930 . S
H1564 C1577 0.930 . S
H1565 C1578 0.930 . S
H1566 C1582 0.959 . S
H1567 C1582 0.959 . S
H1568 C1582 0.961 . S
H1569 C1583 0.960 . S
H1570 C1583 0.961 . S
H1571 C1583 0.959 . S
H1572 C1586 0.929 . S
H1573 C1587 0.931 . S
H1574 C1589 0.930 . S
C1575 H1563 0.930 . S
C1575 C1576 1.399 . S
C1575 C1580 1.399 . S
C1576 C1575 1.399 . S
C1576 C1577 1.376 . S
C1577 H1564 0.930 . S
C1577 C1576 1.376 . S
C1577 C1578 1.388 . S
C1578 H1565 0.930 . S
C1578 C1577 1.388 . S
C1578 C1579 1.390 . S
C1579 C1578 1.390 . S
C1579 C1580 1.394 . S
C1579 C1585 1.465 . S
C1580 C1575 1.399 . S
C1580 C1579 1.394 . S
C1580 C1581 1.516 . S
C1581 C1580 1.516 . S
C1581 C1582 1.502 . S
C1581 C1583 1.561 . S
C1581 C1584 1.526 . S
C1582 H1566 0.959 . S
C1582 H1567 0.959 . S
C1582 H1568 0.961 . S
C1582 C1581 1.502 . S
C1583 H1569 0.960 . S
C1583 H1570 0.961 . S
C1583 H1571 0.959 . S
C1583 C1581 1.561 . S
C1584 C1581 1.526 . S
C1584 C1585 1.396 . S
C1584 C1589 1.390 . S
C1585 C1579 1.465 . S
C1585 C1584 1.396 . S
C1585 C1586 1.399 . S
C1586 H1572 0.929 . S
C1586 C1585 1.399 . S
C1586 C1587 1.385 . S
C1587 H1573 0.931 . S
C1587 C1586 1.385 . S
C1587 C1588 1.389 . S
C1588 C1587 1.389 . S
C1588 C1589 1.387 . S
C1589 H1574 0.930 . S
C1589 C1584 1.390 . S
C1589 C1588 1.387 . S
H1590 C1602 0.930 . S
H1591 C1604 0.930 . S
H1592 C1605 0.930 . S
H1593 C1609 0.959 . S
H1594 C1609 0.959 . S
H1595 C1609 0.961 . S
H1596 C1610 0.960 . S
H1597 C1610 0.961 . S
H1598 C1610 0.959 . S
H1599 C1613 0.929 . S
H1600 C1614 0.931 . S
H1601 C1616 0.930 . S
C1602 H1590 0.930 . S
C1602 C1603 1.399 . S
C1602 C1607 1.399 . S
C1603 C1602 1.399 . S
C1603 C1604 1.376 . S
C1604 H1591 0.930 . S
C1604 C1603 1.376 . S
C1604 C1605 1.388 . S
C1605 H1592 0.930 . S
C1605 C1604 1.388 . S
C1605 C1606 1.390 . S
C1606 C1605 1.390 . S
C1606 C1607 1.394 . S
C1606 C1612 1.465 . S
C1607 C1602 1.399 . S
C1607 C1606 1.394 . S
C1607 C1608 1.516 . S
C1608 C1607 1.516 . S
C1608 C1609 1.502 . S
C1608 C1610 1.561 . S
C1608 C1611 1.526 . S
C1609 H1593 0.959 . S
C1609 H1594 0.959 . S
C1609 H1595 0.961 . S
C1609 C1608 1.502 . S
C1610 H1596 0.960 . S
C1610 H1597 0.961 . S
C1610 H1598 0.959 . S
C1610 C1608 1.561 . S
C1611 C1608 1.526 . S
C1611 C1612 1.396 . S
C1611 C1616 1.390 . S
C1612 C1606 1.465 . S
C1612 C1611 1.396 . S
C1612 C1613 1.399 . S
C1613 H1599 0.929 . S
C1613 C1612 1.399 . S
C1613 C1614 1.385 . S
C1614 H1600 0.931 . S
C1614 C1613 1.385 . S
C1614 C1615 1.389 . S
C1615 C1614 1.389 . S
C1615 C1616 1.387 . S
C1616 H1601 0.930 . S
C1616 C1611 1.390 . S
C1616 C1615 1.387 . S
H1617 C1629 0.930 . S
H1618 C1631 0.930 . S
H1619 C1632 0.930 . S
H1620 C1636 0.959 . S
H1621 C1636 0.959 . S
H1622 C1636 0.961 . S
H1623 C1637 0.960 . S
H1624 C1637 0.961 . S
H1625 C1637 0.959 . S
H1626 C1640 0.929 . S
H1627 C1641 0.931 . S
H1628 C1643 0.930 . S
C1629 H1617 0.930 . S
C1629 C1630 1.399 . S
C1629 C1634 1.399 . S
C1630 C1629 1.399 . S
C1630 C1631 1.376 . S
C1631 H1618 0.930 . S
C1631 C1630 1.376 . S
C1631 C1632 1.388 . S
C1632 H1619 0.930 . S
C1632 C1631 1.388 . S
C1632 C1633 1.390 . S
C1633 C1632 1.390 . S
C1633 C1634 1.394 . S
C1633 C1639 1.465 . S
C1634 C1629 1.399 . S
C1634 C1633 1.394 . S
C1634 C1635 1.516 . S
C1635 C1634 1.516 . S
C1635 C1636 1.502 . S
C1635 C1637 1.561 . S
C1635 C1638 1.526 . S
C1636 H1620 0.959 . S
C1636 H1621 0.959 . S
C1636 H1622 0.961 . S
C1636 C1635 1.502 . S
C1637 H1623 0.960 . S
C1637 H1624 0.961 . S
C1637 H1625 0.959 . S
C1637 C1635 1.561 . S
C1638 C1635 1.526 . S
C1638 C1639 1.396 . S
C1638 C1643 1.390 . S
C1639 C1633 1.465 . S
C1639 C1638 1.396 . S
C1639 C1640 1.399 . S
C1640 H1626 0.929 . S
C1640 C1639 1.399 . S
C1640 C1641 1.385 . S
C1641 H1627 0.931 . S
C1641 C1640 1.385 . S
C1641 C1642 1.389 . S
C1642 C1641 1.389 . S
C1642 C1643 1.387 . S
C1643 H1628 0.930 . S
C1643 C1638 1.390 . S
C1643 C1642 1.387 . S
H1644 C1656 0.930 . S
H1645 C1658 0.930 . S
H1646 C1659 0.930 . S
H1647 C1663 0.959 . S
H1648 C1663 0.959 . S
H1649 C1663 0.961 . S
H1650 C1664 0.960 . S
H1651 C1664 0.961 . S
H1652 C1664 0.959 . S
H1653 C1667 0.929 . S
H1654 C1668 0.931 . S
H1655 C1670 0.930 . S
C1656 H1644 0.930 . S
C1656 C1657 1.399 . S
C1656 C1661 1.399 . S
C1657 C1656 1.399 . S
C1657 C1658 1.376 . S
C1658 H1645 0.930 . S
C1658 C1657 1.376 . S
C1658 C1659 1.388 . S
C1659 H1646 0.930 . S
C1659 C1658 1.388 . S
C1659 C1660 1.390 . S
C1660 C1659 1.390 . S
C1660 C1661 1.394 . S
C1660 C1666 1.465 . S
C1661 C1656 1.399 . S
C1661 C1660 1.394 . S
C1661 C1662 1.516 . S
C1662 C1661 1.516 . S
C1662 C1663 1.502 . S
C1662 C1664 1.561 . S
C1662 C1665 1.526 . S
C1663 H1647 0.959 . S
C1663 H1648 0.959 . S
C1663 H1649 0.961 . S
C1663 C1662 1.502 . S
C1664 H1650 0.960 . S
C1664 H1651 0.961 . S
C1664 H1652 0.959 . S
C1664 C1662 1.561 . S
C1665 C1662 1.526 . S
C1665 C1666 1.396 . S
C1665 C1670 1.390 . S
C1666 C1660 1.465 . S
C1666 C1665 1.396 . S
C1666 C1667 1.399 . S
C1667 H1653 0.929 . S
C1667 C1666 1.399 . S
C1667 C1668 1.385 . S
C1668 H1654 0.931 . S
C1668 C1667 1.385 . S
C1668 C1669 1.389 . S
C1669 C1668 1.389 . S
C1669 C1670 1.387 . S
C1670 H1655 0.930 . S
C1670 C1665 1.390 . S
C1670 C1669 1.387 . S
H1671 C1683 0.930 . S
H1672 C1685 0.930 . S
H1673 C1686 0.930 . S
H1674 C1690 0.959 . S
H1675 C1690 0.959 . S
H1676 C1690 0.961 . S
H1677 C1691 0.960 . S
H1678 C1691 0.961 . S
H1679 C1691 0.959 . S
H1680 C1694 0.929 . S
H1681 C1695 0.931 . S
H1682 C1697 0.930 . S
C1683 H1671 0.930 . S
C1683 C1684 1.399 . S
C1683 C1688 1.399 . S
C1684 C1683 1.399 . S
C1684 C1685 1.376 . S
C1685 H1672 0.930 . S
C1685 C1684 1.376 . S
C1685 C1686 1.388 . S
C1686 H1673 0.930 . S
C1686 C1685 1.388 . S
C1686 C1687 1.390 . S
C1687 C1686 1.390 . S
C1687 C1688 1.394 . S
C1687 C1693 1.465 . S
C1688 C1683 1.399 . S
C1688 C1687 1.394 . S
C1688 C1689 1.516 . S
C1689 C1688 1.516 . S
C1689 C1690 1.502 . S
C1689 C1691 1.561 . S
C1689 C1692 1.526 . S
C1690 H1674 0.959 . S
C1690 H1675 0.959 . S
C1690 H1676 0.961 . S
C1690 C1689 1.502 . S
C1691 H1677 0.960 . S
C1691 H1678 0.961 . S
C1691 H1679 0.959 . S
C1691 C1689 1.561 . S
C1692 C1689 1.526 . S
C1692 C1693 1.396 . S
C1692 C1697 1.390 . S
C1693 C1687 1.465 . S
C1693 C1692 1.396 . S
C1693 C1694 1.399 . S
C1694 H1680 0.929 . S
C1694 C1693 1.399 . S
C1694 C1695 1.385 . S
C1695 H1681 0.931 . S
C1695 C1694 1.385 . S
C1695 C1696 1.389 . S
C1696 C1695 1.389 . S
C1696 C1697 1.387 . S
C1697 H1682 0.930 . S
C1697 C1692 1.390 . S
C1697 C1696 1.387 . S
H1698 C1710 0.930 . S
H1699 C1712 0.930 . S
H1700 C1713 0.930 . S
H1701 C1717 0.959 . S
H1702 C1717 0.959 . S
H1703 C1717 0.961 . S
H1704 C1718 0.960 . S
H1705 C1718 0.961 . S
H1706 C1718 0.959 . S
H1707 C1721 0.929 . S
H1708 C1722 0.931 . S
H1709 C1724 0.930 . S
C1710 H1698 0.930 . S
C1710 C1711 1.399 . S
C1710 C1715 1.399 . S
C1711 C1710 1.399 . S
C1711 C1712 1.376 . S
C1712 H1699 0.930 . S
C1712 C1711 1.376 . S
C1712 C1713 1.388 . S
C1713 H1700 0.930 . S
C1713 C1712 1.388 . S
C1713 C1714 1.390 . S
C1714 C1713 1.390 . S
C1714 C1715 1.394 . S
C1714 C1720 1.465 . S
C1715 C1710 1.399 . S
C1715 C1714 1.394 . S
C1715 C1716 1.516 . S
C1716 C1715 1.516 . S
C1716 C1717 1.502 . S
C1716 C1718 1.561 . S
C1716 C1719 1.526 . S
C1717 H1701 0.959 . S
C1717 H1702 0.959 . S
C1717 H1703 0.961 . S
C1717 C1716 1.502 . S
C1718 H1704 0.960 . S
C1718 H1705 0.961 . S
C1718 H1706 0.959 . S
C1718 C1716 1.561 . S
C1719 C1716 1.526 . S
C1719 C1720 1.396 . S
C1719 C1724 1.390 . S
C1720 C1714 1.465 . S
C1720 C1719 1.396 . S
C1720 C1721 1.399 . S
C1721 H1707 0.929 . S
C1721 C1720 1.399 . S
C1721 C1722 1.385 . S
C1722 H1708 0.931 . S
C1722 C1721 1.385 . S
C1722 C1723 1.389 . S
C1723 C1722 1.389 . S
C1723 C1724 1.387 . S
C1724 H1709 0.930 . S
C1724 C1719 1.390 . S
C1724 C1723 1.387 . S
H1725 C1737 0.930 . S
H1726 C1739 0.930 . S
H1727 C1740 0.930 . S
H1728 C1744 0.959 . S
H1729 C1744 0.959 . S
H1730 C1744 0.961 . S
H1731 C1745 0.960 . S
H1732 C1745 0.961 . S
H1733 C1745 0.959 . S
H1734 C1748 0.929 . S
H1735 C1749 0.929 . S
H1736 C1751 0.930 . S
C1737 H1725 0.930 . S
C1737 C1738 1.399 . S
C1737 C1742 1.399 . S
C1738 C1737 1.399 . S
C1738 C1739 1.376 . S
C1739 H1726 0.930 . S
C1739 C1738 1.376 . S
C1739 C1740 1.388 . S
C1740 H1727 0.930 . S
C1740 C1739 1.388 . S
C1740 C1741 1.390 . S
C1741 C1740 1.390 . S
C1741 C1742 1.394 . S
C1741 C1747 1.465 . S
C1742 C1737 1.399 . S
C1742 C1741 1.394 . S
C1742 C1743 1.516 . S
C1743 C1742 1.516 . S
C1743 C1744 1.502 . S
C1743 C1745 1.561 . S
C1743 C1746 1.526 . S
C1744 H1728 0.959 . S
C1744 H1729 0.959 . S
C1744 H1730 0.961 . S
C1744 C1743 1.502 . S
C1745 H1731 0.960 . S
C1745 H1732 0.961 . S
C1745 H1733 0.959 . S
C1745 C1743 1.561 . S
C1746 C1743 1.526 . S
C1746 C1747 1.396 . S
C1746 C1751 1.390 . S
C1747 C1741 1.465 . S
C1747 C1746 1.396 . S
C1747 C1748 1.399 . S
C1748 H1734 0.929 . S
C1748 C1747 1.399 . S
C1748 C1749 1.385 . S
C1749 H1735 0.929 . S
C1749 C1748 1.385 . S
C1749 C1750 1.389 . S
C1750 C1749 1.389 . S
C1750 C1751 1.387 . S
C1751 H1736 0.930 . S
C1751 C1746 1.390 . S
C1751 C1750 1.387 . S
H1752 C1764 0.930 . S
H1753 C1766 0.930 . S
H1754 C1767 0.930 . S
H1755 C1771 0.959 . S
H1756 C1771 0.959 . S
H1757 C1771 0.961 . S
H1758 C1772 0.960 . S
H1759 C1772 0.961 . S
H1760 C1772 0.959 . S
H1761 C1775 0.929 . S
H1762 C1776 0.931 . S
H1763 C1778 0.930 . S
C1764 H1752 0.930 . S
C1764 C1765 1.399 . S
C1764 C1769 1.399 . S
C1765 C1764 1.399 . S
C1765 C1766 1.376 . S
C1766 H1753 0.930 . S
C1766 C1765 1.376 . S
C1766 C1767 1.388 . S
C1767 H1754 0.930 . S
C1767 C1766 1.388 . S
C1767 C1768 1.390 . S
C1768 C1767 1.390 . S
C1768 C1769 1.394 . S
C1768 C1774 1.465 . S
C1769 C1764 1.399 . S
C1769 C1768 1.394 . S
C1769 C1770 1.516 . S
C1770 C1769 1.516 . S
C1770 C1771 1.502 . S
C1770 C1772 1.561 . S
C1770 C1773 1.526 . S
C1771 H1755 0.959 . S
C1771 H1756 0.959 . S
C1771 H1757 0.961 . S
C1771 C1770 1.502 . S
C1772 H1758 0.960 . S
C1772 H1759 0.961 . S
C1772 H1760 0.959 . S
C1772 C1770 1.561 . S
C1773 C1770 1.526 . S
C1773 C1774 1.396 . S
C1773 C1778 1.390 . S
C1774 C1768 1.465 . S
C1774 C1773 1.396 . S
C1774 C1775 1.399 . S
C1775 H1761 0.929 . S
C1775 C1774 1.399 . S
C1775 C1776 1.385 . S
C1776 H1762 0.931 . S
C1776 C1775 1.385 . S
C1776 C1777 1.389 . S
C1777 C1776 1.389 . S
C1777 C1778 1.387 . S
C1778 H1763 0.930 . S
C1778 C1773 1.390 . S
C1778 C1777 1.387 . S
H1779 C1791 0.930 . S
H1780 C1793 0.930 . S
H1781 C1794 0.930 . S
H1782 C1798 0.959 . S
H1783 C1798 0.959 . S
H1784 C1798 0.961 . S
H1785 C1799 0.960 . S
H1786 C1799 0.961 . S
H1787 C1799 0.959 . S
H1788 C1802 0.929 . S
H1789 C1803 0.931 . S
H1790 C1805 0.930 . S
C1791 H1779 0.930 . S
C1791 C1792 1.399 . S
C1791 C1796 1.399 . S
C1792 C1791 1.399 . S
C1792 C1793 1.376 . S
C1793 H1780 0.930 . S
C1793 C1792 1.376 . S
C1793 C1794 1.388 . S
C1794 H1781 0.930 . S
C1794 C1793 1.388 . S
C1794 C1795 1.390 . S
C1795 C1794 1.390 . S
C1795 C1796 1.394 . S
C1795 C1801 1.465 . S
C1796 C1791 1.399 . S
C1796 C1795 1.394 . S
C1796 C1797 1.516 . S
C1797 C1796 1.516 . S
C1797 C1798 1.502 . S
C1797 C1799 1.561 . S
C1797 C1800 1.526 . S
C1798 H1782 0.959 . S
C1798 H1783 0.959 . S
C1798 H1784 0.961 . S
C1798 C1797 1.502 . S
C1799 H1785 0.960 . S
C1799 H1786 0.961 . S
C1799 H1787 0.959 . S
C1799 C1797 1.561 . S
C1800 C1797 1.526 . S
C1800 C1801 1.396 . S
C1800 C1805 1.390 . S
C1801 C1795 1.465 . S
C1801 C1800 1.396 . S
C1801 C1802 1.399 . S
C1802 H1788 0.929 . S
C1802 C1801 1.399 . S
C1802 C1803 1.385 . S
C1803 H1789 0.931 . S
C1803 C1802 1.385 . S
C1803 C1804 1.389 . S
C1804 C1803 1.389 . S
C1804 C1805 1.387 . S
C1805 H1790 0.930 . S
C1805 C1800 1.390 . S
C1805 C1804 1.387 . S
H1806 C1818 0.930 . S
H1807 C1820 0.930 . S
H1808 C1821 0.930 . S
H1809 C1825 0.959 . S
H1810 C1825 0.959 1_556 S
H1811 C1825 0.961 . S
H1812 C1826 0.960 . S
H1813 C1826 0.961 . S
H1814 C1826 0.959 . S
H1815 C1829 0.929 . S
H1816 C1830 0.931 . S
H1817 C1832 0.930 . S
C1818 H1806 0.930 . S
C1818 C1819 1.399 . S
C1818 C1823 1.399 . S
C1819 C1818 1.399 . S
C1819 C1820 1.376 . S
C1820 H1807 0.930 . S
C1820 C1819 1.376 . S
C1820 C1821 1.388 . S
C1821 H1808 0.930 . S
C1821 C1820 1.388 . S
C1821 C1822 1.390 . S
C1822 C1821 1.390 . S
C1822 C1823 1.394 . S
C1822 C1828 1.465 . S
C1823 C1818 1.399 . S
C1823 C1822 1.394 . S
C1823 C1824 1.516 . S
C1824 C1823 1.516 . S
C1824 C1825 1.502 . S
C1824 C1826 1.561 . S
C1824 C1827 1.526 . S
C1825 H1809 0.959 . S
C1825 H1810 0.959 1_554 S
C1825 H1811 0.961 . S
C1825 C1824 1.502 . S
C1826 H1812 0.960 . S
C1826 H1813 0.961 . S
C1826 H1814 0.959 . S
C1826 C1824 1.561 . S
C1827 C1824 1.526 . S
C1827 C1828 1.396 . S
C1827 C1832 1.390 . S
C1828 C1822 1.465 . S
C1828 C1827 1.396 . S
C1828 C1829 1.399 . S
C1829 H1815 0.929 . S
C1829 C1828 1.399 . S
C1829 C1830 1.385 . S
C1830 H1816 0.931 . S
C1830 C1829 1.385 . S
C1830 C1831 1.389 . S
C1831 C1830 1.389 . S
C1831 C1832 1.387 . S
C1832 H1817 0.930 . S
C1832 C1827 1.390 . S
C1832 C1831 1.387 . S
H1833 C1845 0.930 . S
H1834 C1847 0.930 . S
H1835 C1848 0.930 . S
H1836 C1852 0.959 . S
H1837 C1852 0.959 . S
H1838 C1852 0.961 . S
H1839 C1853 0.960 . S
H1840 C1853 0.961 . S
H1841 C1853 0.959 . S
H1842 C1856 0.929 . S
H1843 C1857 0.931 . S
H1844 C1859 0.930 . S
C1845 H1833 0.930 . S
C1845 C1846 1.399 . S
C1845 C1850 1.399 . S
C1846 C1845 1.399 . S
C1846 C1847 1.376 . S
C1847 H1834 0.930 . S
C1847 C1846 1.376 . S
C1847 C1848 1.388 . S
C1848 H1835 0.930 . S
C1848 C1847 1.388 . S
C1848 C1849 1.390 . S
C1849 C1848 1.390 . S
C1849 C1850 1.394 . S
C1849 C1855 1.465 . S
C1850 C1845 1.399 . S
C1850 C1849 1.394 . S
C1850 C1851 1.516 . S
C1851 C1850 1.516 . S
C1851 C1852 1.502 . S
C1851 C1853 1.561 . S
C1851 C1854 1.526 . S
C1852 H1836 0.959 . S
C1852 H1837 0.959 . S
C1852 H1838 0.961 . S
C1852 C1851 1.502 . S
C1853 H1839 0.960 . S
C1853 H1840 0.961 . S
C1853 H1841 0.959 . S
C1853 C1851 1.561 . S
C1854 C1851 1.526 . S
C1854 C1855 1.396 . S
C1854 C1859 1.390 . S
C1855 C1849 1.465 . S
C1855 C1854 1.396 . S
C1855 C1856 1.399 . S
C1856 H1842 0.929 . S
C1856 C1855 1.399 . S
C1856 C1857 1.385 . S
C1857 H1843 0.931 . S
C1857 C1856 1.385 . S
C1857 C1858 1.389 . S
C1858 C1857 1.389 . S
C1858 C1859 1.387 . S
C1859 H1844 0.930 . S
C1859 C1854 1.390 . S
C1859 C1858 1.387 . S
H1860 C1872 0.930 . S
H1861 C1874 0.930 . S
H1862 C1875 0.930 . S
H1863 C1879 0.959 . S
H1864 C1879 0.959 . S
H1865 C1879 0.961 . S
H1866 C1880 0.960 . S
H1867 C1880 0.961 . S
H1868 C1880 0.959 . S
H1869 C1883 0.929 . S
H1870 C1884 0.931 . S
H1871 C1886 0.930 . S
C1872 H1860 0.930 . S
C1872 C1873 1.399 . S
C1872 C1877 1.399 . S
C1873 C1872 1.399 . S
C1873 C1874 1.376 . S
C1874 H1861 0.930 . S
C1874 C1873 1.376 . S
C1874 C1875 1.388 . S
C1875 H1862 0.930 . S
C1875 C1874 1.388 . S
C1875 C1876 1.390 . S
C1876 C1875 1.390 . S
C1876 C1877 1.394 . S
C1876 C1882 1.465 . S
C1877 C1872 1.399 . S
C1877 C1876 1.394 . S
C1877 C1878 1.516 . S
C1878 C1877 1.516 . S
C1878 C1879 1.502 . S
C1878 C1880 1.561 . S
C1878 C1881 1.526 . S
C1879 H1863 0.959 . S
C1879 H1864 0.959 . S
C1879 H1865 0.961 . S
C1879 C1878 1.502 . S
C1880 H1866 0.960 . S
C1880 H1867 0.961 . S
C1880 H1868 0.959 . S
C1880 C1878 1.561 . S
C1881 C1878 1.526 . S
C1881 C1882 1.396 . S
C1881 C1886 1.390 . S
C1882 C1876 1.465 . S
C1882 C1881 1.396 . S
C1882 C1883 1.399 . S
C1883 H1869 0.929 . S
C1883 C1882 1.399 . S
C1883 C1884 1.385 . S
C1884 H1870 0.931 . S
C1884 C1883 1.385 . S
C1884 C1885 1.389 . S
C1885 C1884 1.389 . S
C1885 C1886 1.387 . S
C1886 H1871 0.930 . S
C1886 C1881 1.390 . S
C1886 C1885 1.387 . S
H1887 C1899 0.930 . S
H1888 C1901 0.930 . S
H1889 C1902 0.930 . S
H1890 C1906 0.959 . S
H1891 C1906 0.959 . S
H1892 C1906 0.961 . S
H1893 C1907 0.960 . S
H1894 C1907 0.961 . S
H1895 C1907 0.959 . S
H1896 C1910 0.929 . S
H1897 C1911 0.931 . S
H1898 C1913 0.930 . S
C1899 H1887 0.930 . S
C1899 C1900 1.399 . S
C1899 C1904 1.399 . S
C1900 C1899 1.399 . S
C1900 C1901 1.376 . S
C1901 H1888 0.930 . S
C1901 C1900 1.376 . S
C1901 C1902 1.388 . S
C1902 H1889 0.930 . S
C1902 C1901 1.388 . S
C1902 C1903 1.390 . S
C1903 C1902 1.390 . S
C1903 C1904 1.394 . S
C1903 C1909 1.465 . S
C1904 C1899 1.399 . S
C1904 C1903 1.394 . S
C1904 C1905 1.516 . S
C1905 C1904 1.516 . S
C1905 C1906 1.502 . S
C1905 C1907 1.561 . S
C1905 C1908 1.526 . S
C1906 H1890 0.959 . S
C1906 H1891 0.959 . S
C1906 H1892 0.961 . S
C1906 C1905 1.502 . S
C1907 H1893 0.960 . S
C1907 H1894 0.961 . S
C1907 H1895 0.959 . S
C1907 C1905 1.561 . S
C1908 C1905 1.526 . S
C1908 C1909 1.396 . S
C1908 C1913 1.390 . S
C1909 C1903 1.465 . S
C1909 C1908 1.396 . S
C1909 C1910 1.399 . S
C1910 H1896 0.929 . S
C1910 C1909 1.399 . S
C1910 C1911 1.385 . S
C1911 H1897 0.931 . S
C1911 C1910 1.385 . S
C1911 C1912 1.389 . S
C1912 C1911 1.389 . S
C1912 C1913 1.387 . S
C1913 H1898 0.930 . S
C1913 C1908 1.390 . S
C1913 C1912 1.387 . S
H1914 C1926 0.930 . S
H1915 C1928 0.930 . S
H1916 C1929 0.930 . S
H1917 C1933 0.959 . S
H1918 C1933 0.959 . S
H1919 C1933 0.961 . S
H1920 C1934 0.960 . S
H1921 C1934 0.961 . S
H1922 C1934 0.959 . S
H1923 C1937 0.929 . S
H1924 C1938 0.931 . S
H1925 C1940 0.930 . S
C1926 H1914 0.930 . S
C1926 C1927 1.399 . S
C1926 C1931 1.399 . S
C1927 C1926 1.399 . S
C1927 C1928 1.376 . S
C1928 H1915 0.930 . S
C1928 C1927 1.376 . S
C1928 C1929 1.388 . S
C1929 H1916 0.930 . S
C1929 C1928 1.388 . S
C1929 C1930 1.390 . S
C1930 C1929 1.390 . S
C1930 C1931 1.394 . S
C1930 C1936 1.465 . S
C1931 C1926 1.399 . S
C1931 C1930 1.394 . S
C1931 C1932 1.516 . S
C1932 C1931 1.516 . S
C1932 C1933 1.502 . S
C1932 C1934 1.561 . S
C1932 C1935 1.526 . S
C1933 H1917 0.959 . S
C1933 H1918 0.959 . S
C1933 H1919 0.961 . S
C1933 C1932 1.502 . S
C1934 H1920 0.960 . S
C1934 H1921 0.961 . S
C1934 H1922 0.959 . S
C1934 C1932 1.561 . S
C1935 C1932 1.526 . S
C1935 C1936 1.396 . S
C1935 C1940 1.390 . S
C1936 C1930 1.465 . S
C1936 C1935 1.396 . S
C1936 C1937 1.399 . S
C1937 H1923 0.929 . S
C1937 C1936 1.399 . S
C1937 C1938 1.385 . S
C1938 H1924 0.931 . S
C1938 C1937 1.385 . S
C1938 C1939 1.389 . S
C1939 C1938 1.389 . S
C1939 C1940 1.387 . S
C1940 H1925 0.930 . S
C1940 C1935 1.390 . S
C1940 C1939 1.387 . S
H1941 C1953 0.930 . S
H1942 C1955 0.930 . S
H1943 C1956 0.930 . S
H1944 C1960 0.959 . S
H1945 C1960 0.959 . S
H1946 C1960 0.961 . S
H1947 C1961 0.960 . S
H1948 C1961 0.961 . S
H1949 C1961 0.959 . S
H1950 C1964 0.929 . S
H1951 C1965 0.931 . S
H1952 C1967 0.930 . S
C1953 H1941 0.930 . S
C1953 C1954 1.399 . S
C1953 C1958 1.399 . S
C1954 C1953 1.399 . S
C1954 C1955 1.376 . S
C1955 H1942 0.930 . S
C1955 C1954 1.376 . S
C1955 C1956 1.388 . S
C1956 H1943 0.930 . S
C1956 C1955 1.388 . S
C1956 C1957 1.390 . S
C1957 C1956 1.390 . S
C1957 C1958 1.394 . S
C1957 C1963 1.465 . S
C1958 C1953 1.399 . S
C1958 C1957 1.394 . S
C1958 C1959 1.516 . S
C1959 C1958 1.516 . S
C1959 C1960 1.502 . S
C1959 C1961 1.561 . S
C1959 C1962 1.526 . S
C1960 H1944 0.959 . S
C1960 H1945 0.959 . S
C1960 H1946 0.961 . S
C1960 C1959 1.502 . S
C1961 H1947 0.960 . S
C1961 H1948 0.961 . S
C1961 H1949 0.959 . S
C1961 C1959 1.561 . S
C1962 C1959 1.526 . S
C1962 C1963 1.396 . S
C1962 C1967 1.390 . S
C1963 C1957 1.465 . S
C1963 C1962 1.396 . S
C1963 C1964 1.399 . S
C1964 H1950 0.929 . S
C1964 C1963 1.399 . S
C1964 C1965 1.385 . S
C1965 H1951 0.931 . S
C1965 C1964 1.385 . S
C1965 C1966 1.389 . S
C1966 C1965 1.389 . S
C1966 C1967 1.387 . S
C1967 H1952 0.930 . S
C1967 C1962 1.390 . S
C1967 C1966 1.387 . S
H1968 C1980 0.930 . S
H1969 C1982 0.930 . S
H1970 C1983 0.930 . S
H1971 C1987 0.959 . S
H1972 C1987 0.959 . S
H1973 C1987 0.961 . S
H1974 C1988 0.960 . S
H1975 C1988 0.961 . S
H1976 C1988 0.959 . S
H1977 C1991 0.929 . S
H1978 C1992 0.931 . S
H1979 C1994 0.930 . S
C1980 H1968 0.930 . S
C1980 C1981 1.399 . S
C1980 C1985 1.399 . S
C1981 C1980 1.399 . S
C1981 C1982 1.376 . S
C1982 H1969 0.930 . S
C1982 C1981 1.376 . S
C1982 C1983 1.388 . S
C1983 H1970 0.930 . S
C1983 C1982 1.388 . S
C1983 C1984 1.390 . S
C1984 C1983 1.390 . S
C1984 C1985 1.394 . S
C1984 C1990 1.465 . S
C1985 C1980 1.399 . S
C1985 C1984 1.394 . S
C1985 C1986 1.516 . S
C1986 C1985 1.516 . S
C1986 C1987 1.502 . S
C1986 C1988 1.561 . S
C1986 C1989 1.526 . S
C1987 H1971 0.959 . S
C1987 H1972 0.959 . S
C1987 H1973 0.961 . S
C1987 C1986 1.502 . S
C1988 H1974 0.960 . S
C1988 H1975 0.961 . S
C1988 H1976 0.959 . S
C1988 C1986 1.561 . S
C1989 C1986 1.526 . S
C1989 C1990 1.396 . S
C1989 C1994 1.390 . S
C1990 C1984 1.465 . S
C1990 C1989 1.396 . S
C1990 C1991 1.399 . S
C1991 H1977 0.929 . S
C1991 C1990 1.399 . S
C1991 C1992 1.385 . S
C1992 H1978 0.931 . S
C1992 C1991 1.385 . S
C1992 C1993 1.389 . S
C1993 C1992 1.389 . S
C1993 C1994 1.387 . S
C1994 H1979 0.930 . S
C1994 C1989 1.390 . S
C1994 C1993 1.387 . S
H1995 C2007 0.930 . S
H1996 C2009 0.930 . S
H1997 C2010 0.930 . S
H1998 C2014 0.959 . S
H1999 C2014 0.959 . S
H2000 C2014 0.961 . S
H2001 C2015 0.960 . S
H2002 C2015 0.961 . S
H2003 C2015 0.959 . S
H2004 C2018 0.929 . S
H2005 C2019 0.931 . S
H2006 C2021 0.930 . S
C2007 H1995 0.930 . S
C2007 C2008 1.399 . S
C2007 C2012 1.399 . S
C2008 C2007 1.399 . S
C2008 C2009 1.376 . S
C2009 H1996 0.930 . S
C2009 C2008 1.376 . S
C2009 C2010 1.388 . S
C2010 H1997 0.930 . S
C2010 C2009 1.388 . S
C2010 C2011 1.390 . S
C2011 C2010 1.390 . S
C2011 C2012 1.394 . S
C2011 C2017 1.465 . S
C2012 C2007 1.399 . S
C2012 C2011 1.394 . S
C2012 C2013 1.516 . S
C2013 C2012 1.516 . S
C2013 C2014 1.502 . S
C2013 C2015 1.561 . S
C2013 C2016 1.526 . S
C2014 H1998 0.959 . S
C2014 H1999 0.959 . S
C2014 H2000 0.961 . S
C2014 C2013 1.502 . S
C2015 H2001 0.960 . S
C2015 H2002 0.961 . S
C2015 H2003 0.959 . S
C2015 C2013 1.561 . S
C2016 C2013 1.526 . S
C2016 C2017 1.396 . S
C2016 C2021 1.390 . S
C2017 C2011 1.465 . S
C2017 C2016 1.396 . S
C2017 C2018 1.399 . S
C2018 H2004 0.929 . S
C2018 C2017 1.399 . S
C2018 C2019 1.385 . S
C2019 H2005 0.931 . S
C2019 C2018 1.385 . S
C2019 C2020 1.389 . S
C2020 C2019 1.389 . S
C2020 C2021 1.387 . S
C2021 H2006 0.930 . S
C2021 C2016 1.390 . S
C2021 C2020 1.387 . S
H2022 C2034 0.930 . S
H2023 C2036 0.930 . S
H2024 C2037 0.930 . S
H2025 C2041 0.959 . S
H2026 C2041 0.959 . S
H2027 C2041 0.961 . S
H2028 C2042 0.960 . S
H2029 C2042 0.961 . S
H2030 C2042 0.959 . S
H2031 C2045 0.929 . S
H2032 C2046 0.931 . S
H2033 C2048 0.930 . S
C2034 H2022 0.930 . S
C2034 C2035 1.399 . S
C2034 C2039 1.399 . S
C2035 C2034 1.399 . S
C2035 C2036 1.376 . S
C2036 H2023 0.930 . S
C2036 C2035 1.376 . S
C2036 C2037 1.388 . S
C2037 H2024 0.930 . S
C2037 C2036 1.388 . S
C2037 C2038 1.390 . S
C2038 C2037 1.390 . S
C2038 C2039 1.394 . S
C2038 C2044 1.465 . S
C2039 C2034 1.399 . S
C2039 C2038 1.394 . S
C2039 C2040 1.516 . S
C2040 C2039 1.516 . S
C2040 C2041 1.502 . S
C2040 C2042 1.561 . S
C2040 C2043 1.526 . S
C2041 H2025 0.959 . S
C2041 H2026 0.959 . S
C2041 H2027 0.961 . S
C2041 C2040 1.502 . S
C2042 H2028 0.960 . S
C2042 H2029 0.961 . S
C2042 H2030 0.959 . S
C2042 C2040 1.561 . S
C2043 C2040 1.526 . S
C2043 C2044 1.396 . S
C2043 C2048 1.390 . S
C2044 C2038 1.465 . S
C2044 C2043 1.396 . S
C2044 C2045 1.399 . S
C2045 H2031 0.929 . S
C2045 C2044 1.399 . S
C2045 C2046 1.385 . S
C2046 H2032 0.931 . S
C2046 C2045 1.385 . S
C2046 C2047 1.389 . S
C2047 C2046 1.389 . S
C2047 C2048 1.387 . S
C2048 H2033 0.930 . S
C2048 C2043 1.390 . S
C2048 C2047 1.387 . S
H2049 C2061 0.930 . S
H2050 C2063 0.930 . S
H2051 C2064 0.930 . S
H2052 C2068 0.959 . S
H2053 C2068 0.959 . S
H2054 C2068 0.961 . S
H2055 C2069 0.960 . S
H2056 C2069 0.961 . S
H2057 C2069 0.959 . S
H2058 C2072 0.929 . S
H2059 C2073 0.931 . S
H2060 C2075 0.930 . S
C2061 H2049 0.930 . S
C2061 C2062 1.399 . S
C2061 C2066 1.399 . S
C2062 C2061 1.399 . S
C2062 C2063 1.376 . S
C2063 H2050 0.930 . S
C2063 C2062 1.376 . S
C2063 C2064 1.388 . S
C2064 H2051 0.930 . S
C2064 C2063 1.388 . S
C2064 C2065 1.390 . S
C2065 C2064 1.390 . S
C2065 C2066 1.394 . S
C2065 C2071 1.465 . S
C2066 C2061 1.399 . S
C2066 C2065 1.394 . S
C2066 C2067 1.516 . S
C2067 C2066 1.516 . S
C2067 C2068 1.502 . S
C2067 C2069 1.561 . S
C2067 C2070 1.526 . S
C2068 H2052 0.959 . S
C2068 H2053 0.959 . S
C2068 H2054 0.961 . S
C2068 C2067 1.502 . S
C2069 H2055 0.960 . S
C2069 H2056 0.961 . S
C2069 H2057 0.959 . S
C2069 C2067 1.561 . S
C2070 C2067 1.526 . S
C2070 C2071 1.396 . S
C2070 C2075 1.390 . S
C2071 C2065 1.465 . S
C2071 C2070 1.396 . S
C2071 C2072 1.399 . S
C2072 H2058 0.929 . S
C2072 C2071 1.399 . S
C2072 C2073 1.385 . S
C2073 H2059 0.931 . S
C2073 C2072 1.385 . S
C2073 C2074 1.389 . S
C2074 C2073 1.389 . S
C2074 C2075 1.387 . S
C2075 H2060 0.930 . S
C2075 C2070 1.390 . S
C2075 C2074 1.387 . S
H2076 C2088 0.930 . S
H2077 C2090 0.930 . S
H2078 C2091 0.930 . S
H2079 C2095 0.959 . S
H2080 C2095 0.959 . S
H2081 C2095 0.961 . S
H2082 C2096 0.960 . S
H2083 C2096 0.961 . S
H2084 C2096 0.959 . S
H2085 C2099 0.929 . S
H2086 C2100 0.931 . S
H2087 C2102 0.930 . S
C2088 H2076 0.930 . S
C2088 C2089 1.399 . S
C2088 C2093 1.399 . S
C2089 C2088 1.399 . S
C2089 C2090 1.376 . S
C2090 H2077 0.930 . S
C2090 C2089 1.376 . S
C2090 C2091 1.388 . S
C2091 H2078 0.930 . S
C2091 C2090 1.388 . S
C2091 C2092 1.390 . S
C2092 C2091 1.390 . S
C2092 C2093 1.394 . S
C2092 C2098 1.465 . S
C2093 C2088 1.399 . S
C2093 C2092 1.394 . S
C2093 C2094 1.516 . S
C2094 C2093 1.516 . S
C2094 C2095 1.502 . S
C2094 C2096 1.561 . S
C2094 C2097 1.526 . S
C2095 H2079 0.959 . S
C2095 H2080 0.959 . S
C2095 H2081 0.961 . S
C2095 C2094 1.502 . S
C2096 H2082 0.960 . S
C2096 H2083 0.961 . S
C2096 H2084 0.959 . S
C2096 C2094 1.561 . S
C2097 C2094 1.526 . S
C2097 C2098 1.396 . S
C2097 C2102 1.390 . S
C2098 C2092 1.465 . S
C2098 C2097 1.396 . S
C2098 C2099 1.399 . S
C2099 H2085 0.929 . S
C2099 C2098 1.399 . S
C2099 C2100 1.385 . S
C2100 H2086 0.931 . S
C2100 C2099 1.385 . S
C2100 C2101 1.389 . S
C2101 C2100 1.389 . S
C2101 C2102 1.387 . S
C2102 H2087 0.930 . S
C2102 C2097 1.390 . S
C2102 C2101 1.387 . S
H2103 C2115 0.930 . S
H2104 C2117 0.930 . S
H2105 C2118 0.930 . S
H2106 C2122 0.959 . S
H2107 C2122 0.959 . S
H2108 C2122 0.961 . S
H2109 C2123 0.960 . S
H2110 C2123 0.961 . S
H2111 C2123 0.959 . S
H2112 C2126 0.929 . S
H2113 C2127 0.931 . S
H2114 C2129 0.930 . S
C2115 H2103 0.930 . S
C2115 C2116 1.399 . S
C2115 C2120 1.399 . S
C2116 C2115 1.399 . S
C2116 C2117 1.376 . S
C2117 H2104 0.930 . S
C2117 C2116 1.376 . S
C2117 C2118 1.388 . S
C2118 H2105 0.930 . S
C2118 C2117 1.388 . S
C2118 C2119 1.390 . S
C2119 C2118 1.390 . S
C2119 C2120 1.394 . S
C2119 C2125 1.465 . S
C2120 C2115 1.399 . S
C2120 C2119 1.394 . S
C2120 C2121 1.516 . S
C2121 C2120 1.516 . S
C2121 C2122 1.502 . S
C2121 C2123 1.561 . S
C2121 C2124 1.526 . S
C2122 H2106 0.959 . S
C2122 H2107 0.959 . S
C2122 H2108 0.961 . S
C2122 C2121 1.502 . S
C2123 H2109 0.960 . S
C2123 H2110 0.961 . S
C2123 H2111 0.959 . S
C2123 C2121 1.561 . S
C2124 C2121 1.526 . S
C2124 C2125 1.396 . S
C2124 C2129 1.390 . S
C2125 C2119 1.465 . S
C2125 C2124 1.396 . S
C2125 C2126 1.399 . S
C2126 H2112 0.929 . S
C2126 C2125 1.399 . S
C2126 C2127 1.385 . S
C2127 H2113 0.931 . S
C2127 C2126 1.385 . S
C2127 C2128 1.389 . S
C2128 C2127 1.389 . S
C2128 C2129 1.387 . S
C2129 H2114 0.930 . S
C2129 C2124 1.390 . S
C2129 C2128 1.387 . S
H2130 C2142 0.930 . S
H2131 C2144 0.930 . S
H2132 C2145 0.930 . S
H2133 C2149 0.959 . S
H2134 C2149 0.959 . S
H2135 C2149 0.961 . S
H2136 C2150 0.960 . S
H2137 C2150 0.961 . S
H2138 C2150 0.959 . S
H2139 C2153 0.929 . S
H2140 C2154 0.931 . S
H2141 C2156 0.930 . S
C2142 H2130 0.930 . S
C2142 C2143 1.399 . S
C2142 C2147 1.399 . S
C2143 C2142 1.399 . S
C2143 C2144 1.376 . S
C2144 H2131 0.930 . S
C2144 C2143 1.376 . S
C2144 C2145 1.388 . S
C2145 H2132 0.930 . S
C2145 C2144 1.388 . S
C2145 C2146 1.390 . S
C2146 C2145 1.390 . S
C2146 C2147 1.394 . S
C2146 C2152 1.465 . S
C2147 C2142 1.399 . S
C2147 C2146 1.394 . S
C2147 C2148 1.516 . S
C2148 C2147 1.516 . S
C2148 C2149 1.502 . S
C2148 C2150 1.561 . S
C2148 C2151 1.526 . S
C2149 H2133 0.959 . S
C2149 H2134 0.959 . S
C2149 H2135 0.961 . S
C2149 C2148 1.502 . S
C2150 H2136 0.960 . S
C2150 H2137 0.961 . S
C2150 H2138 0.959 . S
C2150 C2148 1.561 . S
C2151 C2148 1.526 . S
C2151 C2152 1.396 . S
C2151 C2156 1.390 . S
C2152 C2146 1.465 . S
C2152 C2151 1.396 . S
C2152 C2153 1.399 . S
C2153 H2139 0.929 . S
C2153 C2152 1.399 . S
C2153 C2154 1.385 . S
C2154 H2140 0.931 . S
C2154 C2153 1.385 . S
C2154 C2155 1.389 . S
C2155 C2154 1.389 . S
C2155 C2156 1.387 . S
C2156 H2141 0.930 . S
C2156 C2151 1.390 . S
C2156 C2155 1.387 . S
H2157 C2169 0.930 . S
H2158 C2171 0.930 . S
H2159 C2172 0.930 . S
H2160 C2176 0.959 . S
H2161 C2176 0.959 . S
H2162 C2176 0.961 . S
H2163 C2177 0.960 . S
H2164 C2177 0.961 . S
H2165 C2177 0.959 . S
H2166 C2180 0.929 . S
H2167 C2181 0.931 . S
H2168 C2183 0.930 . S
C2169 H2157 0.930 . S
C2169 C2170 1.399 . S
C2169 C2174 1.399 . S
C2170 C2169 1.399 . S
C2170 C2171 1.376 . S
C2171 H2158 0.930 . S
C2171 C2170 1.376 . S
C2171 C2172 1.388 . S
C2172 H2159 0.930 . S
C2172 C2171 1.388 . S
C2172 C2173 1.390 . S
C2173 C2172 1.390 . S
C2173 C2174 1.394 . S
C2173 C2179 1.465 . S
C2174 C2169 1.399 . S
C2174 C2173 1.394 . S
C2174 C2175 1.516 . S
C2175 C2174 1.516 . S
C2175 C2176 1.502 . S
C2175 C2177 1.561 . S
C2175 C2178 1.526 . S
C2176 H2160 0.959 . S
C2176 H2161 0.959 . S
C2176 H2162 0.961 . S
C2176 C2175 1.502 . S
C2177 H2163 0.960 . S
C2177 H2164 0.961 . S
C2177 H2165 0.959 . S
C2177 C2175 1.561 . S
C2178 C2175 1.526 . S
C2178 C2179 1.396 . S
C2178 C2183 1.390 . S
C2179 C2173 1.465 . S
C2179 C2178 1.396 . S
C2179 C2180 1.399 . S
C2180 H2166 0.929 . S
C2180 C2179 1.399 . S
C2180 C2181 1.385 . S
C2181 H2167 0.931 . S
C2181 C2180 1.385 . S
C2181 C2182 1.389 . S
C2182 C2181 1.389 . S
C2182 C2183 1.387 . S
C2183 H2168 0.930 . S
C2183 C2178 1.390 . S
C2183 C2182 1.387 . S
H2184 C2196 0.930 . S
H2185 C2198 0.930 . S
H2186 C2199 0.930 . S
H2187 C2203 0.959 . S
H2188 C2203 0.959 . S
H2189 C2203 0.961 . S
H2190 C2204 0.960 . S
H2191 C2204 0.961 . S
H2192 C2204 0.959 . S
H2193 C2207 0.929 . S
H2194 C2208 0.931 . S
H2195 C2210 0.930 . S
C2196 H2184 0.930 . S
C2196 C2197 1.399 . S
C2196 C2201 1.399 . S
C2197 C2196 1.399 . S
C2197 C2198 1.376 . S
C2198 H2185 0.930 . S
C2198 C2197 1.376 . S
C2198 C2199 1.388 . S
C2199 H2186 0.930 . S
C2199 C2198 1.388 . S
C2199 C2200 1.390 . S
C2200 C2199 1.390 . S
C2200 C2201 1.394 . S
C2200 C2206 1.465 . S
C2201 C2196 1.399 . S
C2201 C2200 1.394 . S
C2201 C2202 1.516 . S
C2202 C2201 1.516 . S
C2202 C2203 1.502 . S
C2202 C2204 1.561 . S
C2202 C2205 1.526 . S
C2203 H2187 0.959 . S
C2203 H2188 0.959 . S
C2203 H2189 0.961 . S
C2203 C2202 1.502 . S
C2204 H2190 0.960 . S
C2204 H2191 0.961 . S
C2204 H2192 0.959 . S
C2204 C2202 1.561 . S
C2205 C2202 1.526 . S
C2205 C2206 1.396 . S
C2205 C2210 1.390 . S
C2206 C2200 1.465 . S
C2206 C2205 1.396 . S
C2206 C2207 1.399 . S
C2207 H2193 0.929 . S
C2207 C2206 1.399 . S
C2207 C2208 1.385 . S
C2208 H2194 0.931 . S
C2208 C2207 1.385 . S
C2208 C2209 1.389 . S
C2209 C2208 1.389 . S
C2209 C2210 1.387 . S
C2210 H2195 0.930 . S
C2210 C2205 1.390 . S
C2210 C2209 1.387 . S
H2211 C2223 0.930 . S
H2212 C2225 0.930 . S
H2213 C2226 0.930 . S
H2214 C2230 0.959 . S
H2215 C2230 0.959 . S
H2216 C2230 0.961 . S
H2217 C2231 0.960 . S
H2218 C2231 0.961 . S
H2219 C2231 0.959 . S
H2220 C2234 0.929 . S
H2221 C2235 0.931 . S
H2222 C2237 0.930 . S
C2223 H2211 0.930 . S
C2223 C2224 1.399 . S
C2223 C2228 1.399 . S
C2224 C2223 1.399 . S
C2224 C2225 1.376 . S
C2225 H2212 0.930 . S
C2225 C2224 1.376 . S
C2225 C2226 1.388 . S
C2226 H2213 0.930 . S
C2226 C2225 1.388 . S
C2226 C2227 1.390 . S
C2227 C2226 1.390 . S
C2227 C2228 1.394 . S
C2227 C2233 1.465 . S
C2228 C2223 1.399 . S
C2228 C2227 1.394 . S
C2228 C2229 1.516 . S
C2229 C2228 1.516 . S
C2229 C2230 1.502 . S
C2229 C2231 1.561 . S
C2229 C2232 1.526 . S
C2230 H2214 0.959 . S
C2230 H2215 0.959 . S
C2230 H2216 0.961 . S
C2230 C2229 1.502 . S
C2231 H2217 0.960 . S
C2231 H2218 0.961 . S
C2231 H2219 0.959 . S
C2231 C2229 1.561 . S
C2232 C2229 1.526 . S
C2232 C2233 1.396 . S
C2232 C2237 1.390 . S
C2233 C2227 1.465 . S
C2233 C2232 1.396 . S
C2233 C2234 1.399 . S
C2234 H2220 0.929 . S
C2234 C2233 1.399 . S
C2234 C2235 1.385 . S
C2235 H2221 0.931 . S
C2235 C2234 1.385 . S
C2235 C2236 1.389 . S
C2236 C2235 1.389 . S
C2236 C2237 1.387 . S
C2237 H2222 0.930 . S
C2237 C2232 1.390 . S
C2237 C2236 1.387 . S
H2238 C2250 0.930 . S
H2239 C2252 0.930 . S
H2240 C2253 0.930 . S
H2241 C2257 0.959 . S
H2242 C2257 0.959 . S
H2243 C2257 0.961 . S
H2244 C2258 0.960 . S
H2245 C2258 0.961 . S
H2246 C2258 0.959 . S
H2247 C2261 0.929 . S
H2248 C2262 0.931 . S
H2249 C2264 0.930 . S
C2250 H2238 0.930 . S
C2250 C2251 1.399 . S
C2250 C2255 1.399 . S
C2251 C2250 1.399 . S
C2251 C2252 1.376 . S
C2252 H2239 0.930 . S
C2252 C2251 1.376 . S
C2252 C2253 1.388 . S
C2253 H2240 0.930 . S
C2253 C2252 1.388 . S
C2253 C2254 1.390 . S
C2254 C2253 1.390 . S
C2254 C2255 1.394 . S
C2254 C2260 1.465 . S
C2255 C2250 1.399 . S
C2255 C2254 1.394 . S
C2255 C2256 1.516 . S
C2256 C2255 1.516 . S
C2256 C2257 1.502 . S
C2256 C2258 1.561 . S
C2256 C2259 1.526 . S
C2257 H2241 0.959 . S
C2257 H2242 0.959 . S
C2257 H2243 0.961 . S
C2257 C2256 1.502 . S
C2258 H2244 0.960 . S
C2258 H2245 0.961 . S
C2258 H2246 0.959 . S
C2258 C2256 1.561 . S
C2259 C2256 1.526 . S
C2259 C2260 1.396 . S
C2259 C2264 1.390 . S
C2260 C2254 1.465 . S
C2260 C2259 1.396 . S
C2260 C2261 1.399 . S
C2261 H2247 0.929 . S
C2261 C2260 1.399 . S
C2261 C2262 1.385 . S
C2262 H2248 0.931 . S
C2262 C2261 1.385 . S
C2262 C2263 1.389 . S
C2263 C2262 1.389 . S
C2263 C2264 1.387 . S
C2264 H2249 0.930 . S
C2264 C2259 1.390 . S
C2264 C2263 1.387 . S
H2265 C2277 0.930 . S
H2266 C2279 0.930 . S
H2267 C2280 0.930 . S
H2268 C2284 0.959 . S
H2269 C2284 0.959 . S
H2270 C2284 0.961 . S
H2271 C2285 0.960 . S
H2272 C2285 0.961 . S
H2273 C2285 0.959 . S
H2274 C2288 0.929 . S
H2275 C2289 0.931 . S
H2276 C2291 0.930 . S
C2277 H2265 0.930 . S
C2277 C2278 1.399 . S
C2277 C2282 1.399 . S
C2278 C2277 1.399 . S
C2278 C2279 1.376 . S
C2279 H2266 0.930 . S
C2279 C2278 1.376 . S
C2279 C2280 1.388 . S
C2280 H2267 0.930 . S
C2280 C2279 1.388 . S
C2280 C2281 1.390 . S
C2281 C2280 1.390 . S
C2281 C2282 1.394 . S
C2281 C2287 1.465 . S
C2282 C2277 1.399 . S
C2282 C2281 1.394 . S
C2282 C2283 1.516 . S
C2283 C2282 1.516 . S
C2283 C2284 1.502 . S
C2283 C2285 1.561 . S
C2283 C2286 1.526 . S
C2284 H2268 0.959 . S
C2284 H2269 0.959 . S
C2284 H2270 0.961 . S
C2284 C2283 1.502 . S
C2285 H2271 0.960 . S
C2285 H2272 0.961 . S
C2285 H2273 0.959 . S
C2285 C2283 1.561 . S
C2286 C2283 1.526 . S
C2286 C2287 1.396 . S
C2286 C2291 1.390 . S
C2287 C2281 1.465 . S
C2287 C2286 1.396 . S
C2287 C2288 1.399 . S
C2288 H2274 0.929 . S
C2288 C2287 1.399 . S
C2288 C2289 1.385 . S
C2289 H2275 0.931 . S
C2289 C2288 1.385 . S
C2289 C2290 1.389 . S
C2290 C2289 1.389 . S
C2290 C2291 1.387 . S
C2291 H2276 0.930 . S
C2291 C2286 1.390 . S
C2291 C2290 1.387 . S
C1021 C707 1.420 . S
C1009 C74 1.384 . S
C1048 C685 1.586 . S
C1036 C153 1.553 . S
C1075 C682 0.958 . S
C1063 C231 0.949 . S
C1090 C310 0.748 . S
C1102 C694 0.328 . S
C1117 C394 1.464 . S
C1129 C677 1.498 . S
C1156 C699 0.941 . S
C1144 C494 0.886 . S
C1171 C573 0.501 . S
C1183 C704 0.214 . S
C1198 C651 1.397 . S
C1210 C700 1.418 . S
C1237 C758 2.704 . S
C1225 C56 2.783 . S
C1252 C151 1.376 . S
C1264 C808 1.388 . S
C1291 C731 1.532 . S
C1279 C237 1.525 . S
C1318 C807 0.985 . S
C1306 C326 0.910 . S
C1333 C410 0.949 . S
C1345 C736 0.959 . S
C1372 C802 2.711 . S
C1360 C476 2.782 . S
C1387 C571 1.399 . S
C1399 C761 1.377 . S
C1414 C657 1.530 . S
C1426 C793 1.545 . S
C1441 C58 1.535 . S
C1453 C785 1.603 . S
C1468 C392 1.395 . S
C1480 C815 1.368 . S
C1507 C739 1.542 . S
C1495 C478 1.463 . S
C1534 C790 0.946 . S
C1522 C567 0.875 . S
C1549 C655 2.785 . S
C1561 C748 2.728 . S
C1576 C235 2.799 . S
C1588 C812 2.755 . S
C1615 C754 1.414 . S
C1603 C308 1.393 . S
C1630 C147 0.878 . S
C1642 C753 0.919 . S
C1657 C662 1.369 . S
C1669 C869 1.402 . S
C1684 C405 1.548 . S
C1696 C847 1.562 . S
C1723 C844 0.955 . S
C1711 C483 0.880 . S
C1750 C856 0.425 . S
C1738 C562 0.655 . S
C1765 C142 1.455 . S
C1777 C839 1.505 . S
C1804 C861 0.935 . S
C1792 C242 0.880 . S
C1819 C321 0.501 . S
C1831 C866 0.211 . S
C1846 C63 1.406 . S
C1858 C862 1.418 . S
C1873 C644 2.782 . S
C1885 C920 2.701 . S
C1912 C970 1.390 . S
C1900 C403 1.374 . S
C1927 C489 1.450 . S
C1939 C893 1.538 . S
C1954 C578 0.976 . S
C1966 C969 0.931 . S
C1993 C898 0.960 . S
C1981 C158 0.964 . S
C2008 C224 2.785 . S
C2020 C964 2.707 . S
C2047 C923 1.384 . S
C2035 C319 1.392 . S
C2074 C955 1.558 . S
C2062 C69 1.542 . S
C2101 C947 1.532 . S
C2089 C646 1.461 . S
C2116 C140 1.383 . S
C2128 C977 1.398 . S
C2143 C226 1.456 . S
C2155 C901 1.552 . S
C2182 C952 0.947 . S
C2170 C315 0.875 . S
C2197 C67 2.790 . S
C2209 C910 2.719 . S
C2224 C487 2.795 . S
C2236 C974 2.737 . S
C2263 C916 1.417 . S
C2251 C560 1.390 . S
C2290 C915 0.926 . S
C2278 C399 0.890 . S
