# Generated by pormake.
# Topology gar, (4,6)-cn, num edge types: 1
# Building blocks:
#     Node 0, Type 0, BuildingBlock: NAHDIM_clean_sbu_0, # of connection points: 4
#     Node 1, Type 0, BuildingBlock: NAHDIM_clean_sbu_0, # of connection points: 4
#     Node 2, Type 0, BuildingBlock: NAHDIM_clean_sbu_0, # of connection points: 4
#     Node 3, Type 0, BuildingBlock: NAHDIM_clean_sbu_0, # of connection points: 4
#     Node 4, Type 0, BuildingBlock: NAHDIM_clean_sbu_0, # of connection points: 4
#     Node 5, Type 0, BuildingBlock: NAHDIM_clean_sbu_0, # of connection points: 4
#     Node 6, Type 0, BuildingBlock: NAHDIM_clean_sbu_0, # of connection points: 4
#     Node 7, Type 0, BuildingBlock: NAHDIM_clean_sbu_0, # of connection points: 4
#     Node 8, Type 0, BuildingBlock: NAHDIM_clean_sbu_0, # of connection points: 4
#     Node 9, Type 0, BuildingBlock: NAHDIM_clean_sbu_0, # of connection points: 4
#     Node 10, Type 0, BuildingBlock: NAHDIM_clean_sbu_0, # of connection points: 4
#     Node 11, Type 0, BuildingBlock: NAHDIM_clean_sbu_0, # of connection points: 4
#     Node 12, Type 0, BuildingBlock: NAHDIM_clean_sbu_0, # of connection points: 4
#     Node 13, Type 0, BuildingBlock: NAHDIM_clean_sbu_0, # of connection points: 4
#     Node 14, Type 0, BuildingBlock: NAHDIM_clean_sbu_0, # of connection points: 4
#     Node 15, Type 0, BuildingBlock: NAHDIM_clean_sbu_0, # of connection points: 4
#     Node 16, Type 0, BuildingBlock: NAHDIM_clean_sbu_0, # of connection points: 4
#     Node 17, Type 0, BuildingBlock: NAHDIM_clean_sbu_0, # of connection points: 4
#     Node 18, Type 0, BuildingBlock: NAHDIM_clean_sbu_0, # of connection points: 4
#     Node 19, Type 0, BuildingBlock: NAHDIM_clean_sbu_0, # of connection points: 4
#     Node 20, Type 0, BuildingBlock: NAHDIM_clean_sbu_0, # of connection points: 4
#     Node 21, Type 0, BuildingBlock: NAHDIM_clean_sbu_0, # of connection points: 4
#     Node 22, Type 0, BuildingBlock: NAHDIM_clean_sbu_0, # of connection points: 4
#     Node 23, Type 0, BuildingBlock: NAHDIM_clean_sbu_0, # of connection points: 4
#     Node 24, Type 1, BuildingBlock: PAMTOO_clean_sbu_0, # of connection points: 6
#     Node 25, Type 1, BuildingBlock: PAMTOO_clean_sbu_0, # of connection points: 6
#     Node 26, Type 1, BuildingBlock: PAMTOO_clean_sbu_0, # of connection points: 6
#     Node 27, Type 1, BuildingBlock: PAMTOO_clean_sbu_0, # of connection points: 6
#     Node 28, Type 1, BuildingBlock: PAMTOO_clean_sbu_0, # of connection points: 6
#     Node 29, Type 1, BuildingBlock: PAMTOO_clean_sbu_0, # of connection points: 6
#     Node 30, Type 1, BuildingBlock: PAMTOO_clean_sbu_0, # of connection points: 6
#     Node 31, Type 1, BuildingBlock: PAMTOO_clean_sbu_0, # of connection points: 6
#     Node 32, Type 1, BuildingBlock: PAMTOO_clean_sbu_0, # of connection points: 6
#     Node 33, Type 1, BuildingBlock: PAMTOO_clean_sbu_0, # of connection points: 6
#     Node 34, Type 1, BuildingBlock: PAMTOO_clean_sbu_0, # of connection points: 6
#     Node 35, Type 1, BuildingBlock: PAMTOO_clean_sbu_0, # of connection points: 6
#     Node 36, Type 1, BuildingBlock: PAMTOO_clean_sbu_0, # of connection points: 6
#     Node 37, Type 1, BuildingBlock: PAMTOO_clean_sbu_0, # of connection points: 6
#     Node 38, Type 1, BuildingBlock: PAMTOO_clean_sbu_0, # of connection points: 6
#     Node 39, Type 1, BuildingBlock: PAMTOO_clean_sbu_0, # of connection points: 6
#     Edge 40, Type (0, 1), BuildingBlock: UVAHIK_clean_linker_0, # of connection points: 2
#     Edge 41, Type (0, 1), BuildingBlock: UVAHIK_clean_linker_0, # of connection points: 2
#     Edge 42, Type (0, 1), BuildingBlock: UVAHIK_clean_linker_0, # of connection points: 2
#     Edge 43, Type (0, 1), BuildingBlock: UVAHIK_clean_linker_0, # of connection points: 2
#     Edge 44, Type (0, 1), BuildingBlock: UVAHIK_clean_linker_0, # of connection points: 2
#     Edge 45, Type (0, 1), BuildingBlock: UVAHIK_clean_linker_0, # of connection points: 2
#     Edge 46, Type (0, 1), BuildingBlock: UVAHIK_clean_linker_0, # of connection points: 2
#     Edge 47, Type (0, 1), BuildingBlock: UVAHIK_clean_linker_0, # of connection points: 2
#     Edge 48, Type (0, 1), BuildingBlock: UVAHIK_clean_linker_0, # of connection points: 2
#     Edge 49, Type (0, 1), BuildingBlock: UVAHIK_clean_linker_0, # of connection points: 2
#     Edge 50, Type (0, 1), BuildingBlock: UVAHIK_clean_linker_0, # of connection points: 2
#     Edge 51, Type (0, 1), BuildingBlock: UVAHIK_clean_linker_0, # of connection points: 2
#     Edge 52, Type (0, 1), BuildingBlock: UVAHIK_clean_linker_0, # of connection points: 2
#     Edge 53, Type (0, 1), BuildingBlock: UVAHIK_clean_linker_0, # of connection points: 2
#     Edge 54, Type (0, 1), BuildingBlock: UVAHIK_clean_linker_0, # of connection points: 2
#     Edge 55, Type (0, 1), BuildingBlock: UVAHIK_clean_linker_0, # of connection points: 2
#     Edge 56, Type (0, 1), BuildingBlock: UVAHIK_clean_linker_0, # of connection points: 2
#     Edge 57, Type (0, 1), BuildingBlock: UVAHIK_clean_linker_0, # of connection points: 2
#     Edge 58, Type (0, 1), BuildingBlock: UVAHIK_clean_linker_0, # of connection points: 2
#     Edge 59, Type (0, 1), BuildingBlock: UVAHIK_clean_linker_0, # of connection points: 2
#     Edge 60, Type (0, 1), BuildingBlock: UVAHIK_clean_linker_0, # of connection points: 2
#     Edge 61, Type (0, 1), BuildingBlock: UVAHIK_clean_linker_0, # of connection points: 2
#     Edge 62, Type (0, 1), BuildingBlock: UVAHIK_clean_linker_0, # of connection points: 2
#     Edge 63, Type (0, 1), BuildingBlock: UVAHIK_clean_linker_0, # of connection points: 2
#     Edge 64, Type (0, 1), BuildingBlock: UVAHIK_clean_linker_0, # of connection points: 2
#     Edge 65, Type (0, 1), BuildingBlock: UVAHIK_clean_linker_0, # of connection points: 2
#     Edge 66, Type (0, 1), BuildingBlock: UVAHIK_clean_linker_0, # of connection points: 2
#     Edge 67, Type (0, 1), BuildingBlock: UVAHIK_clean_linker_0, # of connection points: 2
#     Edge 68, Type (0, 1), BuildingBlock: UVAHIK_clean_linker_0, # of connection points: 2
#     Edge 69, Type (0, 1), BuildingBlock: UVAHIK_clean_linker_0, # of connection points: 2
#     Edge 70, Type (0, 1), BuildingBlock: UVAHIK_clean_linker_0, # of connection points: 2
#     Edge 71, Type (0, 1), BuildingBlock: UVAHIK_clean_linker_0, # of connection points: 2
#     Edge 72, Type (0, 1), BuildingBlock: UVAHIK_clean_linker_0, # of connection points: 2
#     Edge 73, Type (0, 1), BuildingBlock: UVAHIK_clean_linker_0, # of connection points: 2
#     Edge 74, Type (0, 1), BuildingBlock: UVAHIK_clean_linker_0, # of connection points: 2
#     Edge 75, Type (0, 1), BuildingBlock: UVAHIK_clean_linker_0, # of connection points: 2
#     Edge 76, Type (0, 1), BuildingBlock: UVAHIK_clean_linker_0, # of connection points: 2
#     Edge 77, Type (0, 1), BuildingBlock: UVAHIK_clean_linker_0, # of connection points: 2
#     Edge 78, Type (0, 1), BuildingBlock: UVAHIK_clean_linker_0, # of connection points: 2
#     Edge 79, Type (0, 1), BuildingBlock: UVAHIK_clean_linker_0, # of connection points: 2
#     Edge 80, Type (0, 1), BuildingBlock: UVAHIK_clean_linker_0, # of connection points: 2
#     Edge 81, Type (0, 1), BuildingBlock: UVAHIK_clean_linker_0, # of connection points: 2
#     Edge 82, Type (0, 1), BuildingBlock: UVAHIK_clean_linker_0, # of connection points: 2
#     Edge 83, Type (0, 1), BuildingBlock: UVAHIK_clean_linker_0, # of connection points: 2
#     Edge 84, Type (0, 1), BuildingBlock: UVAHIK_clean_linker_0, # of connection points: 2
#     Edge 85, Type (0, 1), BuildingBlock: UVAHIK_clean_linker_0, # of connection points: 2
#     Edge 86, Type (0, 1), BuildingBlock: UVAHIK_clean_linker_0, # of connection points: 2
#     Edge 87, Type (0, 1), BuildingBlock: UVAHIK_clean_linker_0, # of connection points: 2
#     Edge 88, Type (0, 1), BuildingBlock: UVAHIK_clean_linker_0, # of connection points: 2
#     Edge 89, Type (0, 1), BuildingBlock: UVAHIK_clean_linker_0, # of connection points: 2
#     Edge 90, Type (0, 1), BuildingBlock: UVAHIK_clean_linker_0, # of connection points: 2
#     Edge 91, Type (0, 1), BuildingBlock: UVAHIK_clean_linker_0, # of connection points: 2
#     Edge 92, Type (0, 1), BuildingBlock: UVAHIK_clean_linker_0, # of connection points: 2
#     Edge 93, Type (0, 1), BuildingBlock: UVAHIK_clean_linker_0, # of connection points: 2
#     Edge 94, Type (0, 1), BuildingBlock: UVAHIK_clean_linker_0, # of connection points: 2
#     Edge 95, Type (0, 1), BuildingBlock: UVAHIK_clean_linker_0, # of connection points: 2
#     Edge 96, Type (0, 1), BuildingBlock: UVAHIK_clean_linker_0, # of connection points: 2
#     Edge 97, Type (0, 1), BuildingBlock: UVAHIK_clean_linker_0, # of connection points: 2
#     Edge 98, Type (0, 1), BuildingBlock: UVAHIK_clean_linker_0, # of connection points: 2
#     Edge 99, Type (0, 1), BuildingBlock: UVAHIK_clean_linker_0, # of connection points: 2
#     Edge 100, Type (0, 1), BuildingBlock: UVAHIK_clean_linker_0, # of connection points: 2
#     Edge 101, Type (0, 1), BuildingBlock: UVAHIK_clean_linker_0, # of connection points: 2
#     Edge 102, Type (0, 1), BuildingBlock: UVAHIK_clean_linker_0, # of connection points: 2
#     Edge 103, Type (0, 1), BuildingBlock: UVAHIK_clean_linker_0, # of connection points: 2
#     Edge 104, Type (0, 1), BuildingBlock: UVAHIK_clean_linker_0, # of connection points: 2
#     Edge 105, Type (0, 1), BuildingBlock: UVAHIK_clean_linker_0, # of connection points: 2
#     Edge 106, Type (0, 1), BuildingBlock: UVAHIK_clean_linker_0, # of connection points: 2
#     Edge 107, Type (0, 1), BuildingBlock: UVAHIK_clean_linker_0, # of connection points: 2
#     Edge 108, Type (0, 1), BuildingBlock: UVAHIK_clean_linker_0, # of connection points: 2
#     Edge 109, Type (0, 1), BuildingBlock: UVAHIK_clean_linker_0, # of connection points: 2
#     Edge 110, Type (0, 1), BuildingBlock: UVAHIK_clean_linker_0, # of connection points: 2
#     Edge 111, Type (0, 1), BuildingBlock: UVAHIK_clean_linker_0, # of connection points: 2
#     Edge 112, Type (0, 1), BuildingBlock: UVAHIK_clean_linker_0, # of connection points: 2
#     Edge 113, Type (0, 1), BuildingBlock: UVAHIK_clean_linker_0, # of connection points: 2
#     Edge 114, Type (0, 1), BuildingBlock: UVAHIK_clean_linker_0, # of connection points: 2
#     Edge 115, Type (0, 1), BuildingBlock: UVAHIK_clean_linker_0, # of connection points: 2
#     Edge 116, Type (0, 1), BuildingBlock: UVAHIK_clean_linker_0, # of connection points: 2
#     Edge 117, Type (0, 1), BuildingBlock: UVAHIK_clean_linker_0, # of connection points: 2
#     Edge 118, Type (0, 1), BuildingBlock: UVAHIK_clean_linker_0, # of connection points: 2
#     Edge 119, Type (0, 1), BuildingBlock: UVAHIK_clean_linker_0, # of connection points: 2
#     Edge 120, Type (0, 1), BuildingBlock: UVAHIK_clean_linker_0, # of connection points: 2
#     Edge 121, Type (0, 1), BuildingBlock: UVAHIK_clean_linker_0, # of connection points: 2
#     Edge 122, Type (0, 1), BuildingBlock: UVAHIK_clean_linker_0, # of connection points: 2
#     Edge 123, Type (0, 1), BuildingBlock: UVAHIK_clean_linker_0, # of connection points: 2
#     Edge 124, Type (0, 1), BuildingBlock: UVAHIK_clean_linker_0, # of connection points: 2
#     Edge 125, Type (0, 1), BuildingBlock: UVAHIK_clean_linker_0, # of connection points: 2
#     Edge 126, Type (0, 1), BuildingBlock: UVAHIK_clean_linker_0, # of connection points: 2
#     Edge 127, Type (0, 1), BuildingBlock: UVAHIK_clean_linker_0, # of connection points: 2
#     Edge 128, Type (0, 1), BuildingBlock: UVAHIK_clean_linker_0, # of connection points: 2
#     Edge 129, Type (0, 1), BuildingBlock: UVAHIK_clean_linker_0, # of connection points: 2
#     Edge 130, Type (0, 1), BuildingBlock: UVAHIK_clean_linker_0, # of connection points: 2
#     Edge 131, Type (0, 1), BuildingBlock: UVAHIK_clean_linker_0, # of connection points: 2
#     Edge 132, Type (0, 1), BuildingBlock: UVAHIK_clean_linker_0, # of connection points: 2
#     Edge 133, Type (0, 1), BuildingBlock: UVAHIK_clean_linker_0, # of connection points: 2
#     Edge 134, Type (0, 1), BuildingBlock: UVAHIK_clean_linker_0, # of connection points: 2
#     Edge 135, Type (0, 1), BuildingBlock: UVAHIK_clean_linker_0, # of connection points: 2
# Relax obj value: 0.139
# Max RMSD: 0.255
# Mean RMSD: 0.178
data_MOF--net-gar--node1-NAHDIM_clean_sbu_0--node2-PAMTOO_clean_sbu_0--edge1-UVAHIK_clean_linker_0
_symmetry_space_group_name_H-M    P1
_symmetry_Int_Tables_number       1
_symmetry_cell_setting            triclinic
loop_
_symmetry_equiv_pos_as_xyz
'x, y, z'
_cell_length_a     77.756683
_cell_length_b     76.682391
_cell_length_c     73.246413
_cell_angle_alpha  96.349652
_cell_angle_beta   95.943971
_cell_angle_gamma 104.08984
loop_
_atom_site_label
_atom_site_type_symbol
_atom_site_fract_x
_atom_site_fract_y
_atom_site_fract_z
_atom_type_partial_charge
C0 C 0.0641 0.29419 0.34166 0.0
O1 O 0.06689 0.29986 0.35957 0.0
O2 O 0.02339 0.26826 0.36368 0.0
Zn3 Zn 0.02571 0.29028 0.34901 0.0
O4 O 0.03044 0.31421 0.36781 0.0
C5 C 0.98575 0.27839 0.33769 0.0
O6 O 0.98697 0.26902 0.35152 0.0
O7 O 0.04785 0.2899 0.33356 0.0
C8 C 0.02394 0.32729 0.36363 0.0
O9 O 0.01529 0.32578 0.34691 0.0
C10 C 0.02192 0.26893 0.38093 0.0
O11 O 0.0217 0.28449 0.3903 0.0
O12 O 0.00031 0.28786 0.33316 0.0
C13 C 0.96758 0.75499 0.68997 0.0
O14 O 0.97549 0.76995 0.68382 0.0
O15 O -0.00585 0.71686 0.65756 0.0
Zn16 Zn -0.00225 0.742 0.67387 0.0
O17 O -0.00136 0.76181 0.65641 0.0
C18 C 0.03203 0.7349 0.69123 0.0
O19 O 0.02342 0.7181 0.68445 0.0
O20 O 0.97478 0.74156 0.6883 0.0
C21 C 0.01148 0.77619 0.65834 0.0
O22 O 0.02481 0.77839 0.67166 0.0
C23 C 0.0027 0.71534 0.64372 0.0
O24 O 0.01308 0.73014 0.63938 0.0
O25 O 0.02364 0.74731 0.68979 0.0
C26 C 0.55356 0.77903 0.82786 0.0
O27 O 0.54324 0.76282 0.8285 0.0
O28 O 0.52212 0.76994 0.86308 0.0
Zn29 Zn 0.52493 0.7917 0.84803 0.0
O30 O 0.52881 0.81601 0.86588 0.0
C31 C 0.48536 0.78111 0.83724 0.0
O32 O 0.48674 0.77411 0.85273 0.0
O33 O 0.54837 0.79291 0.83428 0.0
C34 C 0.52006 0.81745 0.87958 0.0
O35 O 0.50882 0.80281 0.88313 0.0
C36 C 0.53143 0.7703 0.87861 0.0
O37 O 0.54359 0.78531 0.88574 0.0
O38 O 0.4999 0.78888 0.83132 0.0
C39 C 0.46898 0.25625 0.18925 0.0
O40 O 0.47658 0.27133 0.18313 0.0
O41 O 0.49633 0.21862 0.15683 0.0
Zn42 Zn 0.49925 0.24389 0.17268 0.0
O43 O 0.49953 0.26377 0.15543 0.0
C44 C 0.53356 0.23754 0.19035 0.0
O45 O 0.52493 0.22065 0.18397 0.0
O46 O 0.47639 0.24298 0.18736 0.0
C47 C 0.51376 0.27305 0.15032 0.0
O48 O 0.52906 0.26951 0.15567 0.0
C49 C 0.49759 0.21597 0.13953 0.0
O50 O 0.49974 0.2299 0.13026 0.0
O51 O 0.52519 0.24991 0.18852 0.0
C52 C 0.00063 0.78042 0.11418 0.0
O53 O -0.00394 0.77771 0.09612 0.0
O54 O 0.03068 0.75718 0.08876 0.0
Zn55 Zn 0.03639 0.78404 0.10288 0.0
O56 O 0.035 0.80548 0.08677 0.0
C57 C 0.074 0.78248 0.11414 0.0
O58 O 0.07206 0.77455 0.09696 0.0
O59 O 0.01717 0.78355 0.12055 0.0
C60 C 0.03951 0.82205 0.09469 0.0
O61 O 0.04579 0.82516 0.11242 0.0
C62 C 0.03614 0.75083 0.07415 0.0
O63 O 0.04585 0.76227 0.0648 0.0
O64 O 0.06114 0.78848 0.1196 0.0
C65 C 0.52043 0.76682 0.40079 0.0
O66 O 0.52305 0.77873 0.4158 0.0
O67 O 0.48631 0.72807 0.42629 0.0
Zn68 Zn 0.48514 0.75176 0.41356 0.0
O69 O 0.48877 0.7768 0.431 0.0
C70 C 0.44642 0.74911 0.40101 0.0
O71 O 0.44558 0.75165 0.4189 0.0
O72 O 0.50558 0.75465 0.39706 0.0
C73 C 0.48359 0.78949 0.42378 0.0
O74 O 0.47645 0.78608 0.4063 0.0
C75 C 0.47924 0.72128 0.43985 0.0
O76 O 0.46917 0.72987 0.44868 0.0
O77 O 0.46128 0.74789 0.39566 0.0
C78 C 0.49734 0.27959 0.61427 0.0
O79 O 0.49296 0.2786 0.5963 0.0
O80 O 0.52705 0.25578 0.5875 0.0
Zn81 Zn 0.53321 0.28194 0.60322 0.0
O82 O 0.53295 0.30415 0.58792 0.0
C83 C 0.5732 0.29002 0.61669 0.0
O84 O 0.57563 0.29611 0.60082 0.0
O85 O 0.51368 0.28119 0.62052 0.0
C86 C 0.53727 0.32062 0.59607 0.0
O87 O 0.54287 0.3235 0.61396 0.0
C88 C 0.53898 0.24794 0.5826 0.0
O89 O 0.55581 0.25728 0.58586 0.0
O90 O 0.55722 0.2845 0.62035 0.0
C91 C 0.01891 0.26415 0.90323 0.0
O92 O 0.02301 0.27082 0.92089 0.0
O93 O 0.98479 0.22989 0.92703 0.0
Zn94 Zn 0.9827 0.25315 0.91405 0.0
O95 O 0.98669 0.27833 0.93119 0.0
C96 C 0.94545 0.25506 0.90179 0.0
O97 O 0.94719 0.26348 0.91876 0.0
O98 O 0.00259 0.25626 0.89701 0.0
C99 C 0.98689 0.29211 0.92268 0.0
O100 O 0.98495 0.28937 0.90447 0.0
C101 C 0.97573 0.22146 0.93855 0.0
O102 O 0.96281 0.22781 0.94463 0.0
O103 O 0.95834 0.2488 0.89685 0.0
C104 C 0.36962 0.05802 0.26462 0.0
O105 O 0.38537 0.05827 0.25954 0.0
O106 O 0.38931 0.02134 0.25985 0.0
Zn107 Zn 0.37346 0.0254 0.27899 0.0
O108 O 0.38822 0.02942 0.30396 0.0
C109 C 0.34585 -0.00487 0.26089 0.0
O110 O 0.34982 0.00327 0.24643 0.0
O111 O 0.36244 0.04576 0.27385 0.0
C112 C 0.39565 0.01668 0.3066 0.0
O113 O 0.39222 0.00243 0.29376 0.0
C114 C 0.40609 0.02847 0.2625 0.0
O115 O 0.4133 0.03962 0.2778 0.0
O116 O 0.35403 0.00247 0.27684 0.0
C117 C 0.28302 0.14677 0.51492 0.0
O118 O 0.27373 0.14664 0.52893 0.0
O119 O 0.26322 0.18475 0.52731 0.0
Zn120 Zn 0.26 0.16898 0.50208 0.0
O121 O 0.26133 0.1837 0.48024 0.0
C122 C 0.22131 0.15296 0.4926 0.0
O123 O 0.22165 0.16821 0.48587 0.0
O124 O 0.27961 0.1555 0.50179 0.0
C125 C 0.25688 0.17503 0.46387 0.0
O126 O 0.25124 0.15724 0.46183 0.0
C127 C 0.25245 0.19415 0.53173 0.0
O128 O 0.23938 0.19488 0.51919 0.0
O129 O 0.23594 0.15027 0.49966 0.0
C130 C 0.12497 0.98517 0.77134 0.0
O131 O 0.10746 0.97908 0.76811 0.0
O132 O 0.10349 0.0189 0.74892 0.0
Zn133 Zn 0.11737 0.02107 0.77484 0.0
O134 O 0.10178 0.01868 0.7959 0.0
C135 C 0.13004 0.06006 0.77756 0.0
O136 O 0.11285 0.05855 0.77339 0.0
O137 O 0.13187 0.00223 0.77461 0.0
C138 C 0.10974 0.01907 0.81213 0.0
O139 O 0.12708 0.02075 0.81418 0.0
C140 C 0.08819 0.02188 0.74507 0.0
O141 O 0.07942 0.02586 0.75868 0.0
O142 O 0.13525 0.0458 0.77946 0.0
C143 C 0.22648 0.91798 0.9868 0.0
O144 O 0.22059 0.90184 0.97687 0.0
O145 O 0.26033 0.89395 0.01262 0.0
Zn146 Zn 0.25991 0.90802 -0.00877 0.0
O147 O 0.25297 0.89038 0.96772 0.0
C148 C 0.29202 0.93373 0.00689 0.0
O149 O 0.28347 0.933 0.02146 0.0
O150 O 0.24277 0.92337 -0.00604 0.0
C151 C 0.25753 0.87552 0.96722 0.0
O152 O 0.26715 0.87246 0.98176 0.0
C153 C 0.247 0.88123 0.01451 0.0
O154 O 0.23227 0.8779 0.00274 0.0
O155 O 0.28438 0.92406 -0.00834 0.0
C156 C 0.23201 0.38423 0.02412 0.0
O157 O 0.22722 0.36781 0.02871 0.0
O158 O 0.26582 0.3653 0.0486 0.0
Zn159 Zn 0.26716 0.37641 0.02426 0.0
O160 O 0.26376 0.35806 0.00053 0.0
C161 C 0.30555 0.39295 0.03512 0.0
O162 O 0.30448 0.37914 0.04447 0.0
O163 O 0.24817 0.39056 0.02156 0.0
C164 C 0.27711 0.35441 -0.00634 0.0
O165 O 0.29319 0.36127 0.0029 0.0
C166 C 0.26067 0.34854 0.05029 0.0
O167 O 0.25563 0.3365 0.03527 0.0
O168 O 0.29143 0.39461 0.02578 0.0
C169 C 0.7997 0.12536 0.01752 0.0
O170 O 0.80179 0.14086 0.01087 0.0
O171 O 0.77773 0.15038 0.06005 0.0
Zn172 Zn 0.77186 0.13732 0.03408 0.0
O173 O 0.77277 0.15514 0.01599 0.0
C174 C 0.74166 0.10753 0.03731 0.0
O175 O 0.75357 0.10171 0.04731 0.0
O176 O 0.78805 0.12123 0.02836 0.0
C177 C 0.76511 0.16796 0.01791 0.0
O178 O 0.757 0.17009 0.03255 0.0
C179 C 0.78964 0.1653 0.06451 0.0
O180 O 0.79931 0.17195 0.05198 0.0
O181 O 0.7466 0.12219 0.03053 0.0
C182 C 0.15381 0.4792 0.25059 0.0
O183 O 0.13873 0.47847 0.25745 0.0
O184 O 0.12817 0.5013 0.21091 0.0
Zn185 Zn 0.14491 0.50877 0.2346 0.0
O186 O 0.13064 0.51199 0.25524 0.0
C187 C 0.15891 0.54367 0.22311 0.0
O188 O 0.14455 0.53852 0.2107 0.0
O189 O 0.15879 0.49069 0.23971 0.0
C190 C 0.11908 0.52115 0.25419 0.0
O191 O 0.1164 0.52859 0.23919 0.0
C192 C 0.11321 0.48958 0.20933 0.0
O193 O 0.1091 0.48058 0.2232 0.0
O194 O 0.16198 0.53294 0.23432 0.0
C195 C 0.73093 0.88414 0.52126 0.0
O196 O 0.72609 0.86732 0.52476 0.0
O197 O 0.76503 0.86455 0.54482 0.0
Zn198 Zn 0.76611 0.87661 0.52104 0.0
O199 O 0.76273 0.85976 0.49632 0.0
C200 C 0.80477 0.89031 0.52792 0.0
O201 O 0.80371 0.87383 0.53192 0.0
O202 O 0.74719 0.89088 0.51931 0.0
C203 C 0.77071 0.84746 0.49221 0.0
O204 O 0.78147 0.84346 0.5052 0.0
C205 C 0.75726 0.84829 0.54663 0.0
O206 O 0.74894 0.83692 0.53182 0.0
O207 O 0.79041 0.89477 0.52316 0.0
C208 C 0.90647 0.04947 0.24735 0.0
O209 O 0.9192 0.05157 0.23669 0.0
O210 O 0.92884 0.01595 0.23051 0.0
Zn211 Zn 0.9173 0.01621 0.25447 0.0
O212 O 0.93467 0.01962 0.27839 0.0
C213 C 0.89979 0.97753 0.24409 0.0
O214 O 0.9133 0.97774 0.23466 0.0
O215 O 0.90365 0.03584 0.25614 0.0
C216 C 0.94122 0.00692 0.28343 0.0
O217 O 0.93801 -0.00839 0.27213 0.0
C218 C 0.94369 0.02617 0.22789 0.0
O219 O 0.95343 0.03795 0.24176 0.0
O220 O 0.89881 -0.00779 0.25337 0.0
C221 C 0.28878 0.6046 0.53325 0.0
O222 O 0.28117 0.60684 0.54823 0.0
O223 O 0.28044 0.64962 0.54686 0.0
Zn224 Zn 0.27247 0.63225 0.52331 0.0
O225 O 0.27291 0.64614 0.50181 0.0
C226 C 0.23944 0.61521 0.53707 0.0
O227 O 0.24856 0.62114 0.55364 0.0
O228 O 0.28735 0.61453 0.52071 0.0
C229 C 0.26354 0.63819 0.48658 0.0
O230 O 0.25529 0.62087 0.48514 0.0
C231 C 0.27408 0.6634 0.54847 0.0
O232 O 0.26307 0.66574 0.53464 0.0
O233 O 0.24703 0.61838 0.52282 0.0
C234 C 0.40431 0.55264 0.76164 0.0
O235 O 0.42064 0.5576 0.77063 0.0
O236 O 0.42471 0.51732 0.72926 0.0
Zn237 Zn 0.41217 0.51712 0.75257 0.0
O238 O 0.42908 0.52057 0.77695 0.0
C239 C 0.39461 0.47839 0.74126 0.0
O240 O 0.40806 0.47883 0.7317 0.0
O241 O 0.39834 0.53652 0.75317 0.0
C242 C 0.43301 0.50688 0.78306 0.0
O243 O 0.42718 0.49092 0.77279 0.0
C244 C 0.4363 0.53086 0.72552 0.0
O245 O 0.44149 0.5457 0.73765 0.0
O246 O 0.39366 0.49292 0.75086 0.0
C247 C 0.65193 0.9803 0.75134 0.0
O248 O 0.64105 0.9826 0.76344 0.0
O249 O 0.61636 -0.00406 0.71335 0.0
Zn250 Zn 0.63712 0.00596 0.73352 0.0
O251 O 0.62873 0.01323 0.75746 0.0
C252 C 0.66889 0.03424 0.73511 0.0
O253 O 0.67519 0.02424 0.74621 0.0
O254 O 0.65184 -0.01175 0.73704 0.0
C255 C 0.62497 0.02843 0.76043 0.0
O256 O 0.62613 0.03902 0.74744 0.0
C257 C 0.60019 -0.00681 0.71642 0.0
O258 O 0.59671 -0.00374 0.73347 0.0
O259 O 0.65285 0.02864 0.72715 0.0
C260 C 0.78508 0.64877 0.01373 0.0
O261 O 0.77842 0.65204 0.02914 0.0
O262 O 0.76151 0.68263 0.02447 0.0
Zn263 Zn 0.75981 0.66814 -0.00134 0.0
O264 O 0.76311 0.68348 0.97728 0.0
C265 C 0.7222 0.65337 0.00045 0.0
O266 O 0.72424 0.66978 0.00923 0.0
O267 O 0.77923 0.65433 -0.00084 0.0
C268 C 0.75057 0.68798 0.96784 0.0
O269 O 0.73439 0.68369 0.97257 0.0
C270 C 0.76054 0.69889 0.02885 0.0
O271 O 0.75906 0.70901 0.01573 0.0
O272 O 0.73555 0.64942 -0.00607 0.0
C273 C 0.86466 0.55016 0.7842 0.0
O274 O 0.87944 0.55517 0.79604 0.0
O275 O 0.8859 0.51232 0.75752 0.0
Zn276 Zn 0.8724 0.51486 0.77894 0.0
O277 O 0.88994 0.52078 0.80211 0.0
C278 C 0.8411 0.48654 0.76653 0.0
O279 O 0.83945 0.49703 0.75379 0.0
O280 O 0.85956 0.534 0.77587 0.0
C281 C 0.90194 0.51212 0.80288 0.0
O282 O 0.90173 0.49957 0.78904 0.0
C283 C 0.8996 0.52494 0.75644 0.0
O284 O 0.90386 0.53957 0.76885 0.0
O285 O 0.85447 0.49147 0.77916 0.0
C286 C 0.72692 0.41466 0.4944 0.0
O287 O 0.72582 0.39914 0.5008 0.0
O288 O 0.76109 0.39364 0.5048 0.0
Zn289 Zn 0.75983 0.40862 0.48407 0.0
O290 O 0.75717 0.39252 0.4599 0.0
C291 C 0.79076 0.43432 0.50349 0.0
O292 O 0.78264 0.42945 0.51768 0.0
O293 O 0.74002 0.42102 0.48595 0.0
C294 C 0.76976 0.38479 0.45819 0.0
O295 O 0.78316 0.38828 0.47169 0.0
C296 C 0.75438 0.3766 0.50319 0.0
O297 O 0.74548 0.36783 0.48726 0.0
O298 O 0.7832 0.42751 0.48717 0.0
C299 C 0.62175 0.48848 0.27801 0.0
O300 O 0.60844 0.48626 0.28793 0.0
O301 O 0.59525 0.52232 0.25106 0.0
Zn302 Zn 0.61352 0.52337 0.27385 0.0
O303 O 0.60292 0.52299 0.29832 0.0
C304 C 0.62827 0.56131 0.27207 0.0
O305 O 0.61126 0.56045 0.26751 0.0
O306 O 0.62594 0.50289 0.27056 0.0
C307 C 0.58667 0.51597 0.3001 0.0
O308 O 0.5752 0.50855 0.28519 0.0
C309 C 0.59625 0.51354 0.23555 0.0
O310 O 0.60832 0.50421 0.23477 0.0
O311 O 0.63267 0.54702 0.27573 0.0
Dy312 Dy 0.02854 0.03061 0.02136 0.0
Dy313 Dy -0.01057 0.00829 0.00024 0.0
C314 C 0.0235 0.01489 0.9788 0.0
O315 O 0.01896 0.05147 0.00649 0.0
O316 O -0.01117 0.03777 0.00035 0.0
O317 O 0.05511 0.04739 0.02064 0.0
O318 O 0.04704 0.03963 0.04664 0.0
O319 O 0.98834 0.01003 0.03086 0.0
O320 O 0.00907 0.03696 0.03975 0.0
O321 O 0.00291 0.98602 0.00598 0.0
O322 O 0.02468 0.00232 0.02936 0.0
O323 O 0.96166 -0.00367 0.00193 0.0
O324 O 0.97161 -0.00613 0.97558 0.0
C325 C 0.00247 0.05211 0.00089 0.0
O326 O 0.03322 0.01602 -0.00516 0.0
O327 O 0.00668 0.01528 0.97808 0.0
C328 C 0.07611 0.03893 0.04066 0.0
C329 C 0.10397 0.02163 0.03843 0.0
C330 C 0.0881 0.01303 0.04487 0.0
C331 C 0.07427 0.02155 0.04588 0.0
C332 C 0.0924 0.04807 0.03546 0.0
C333 C 0.10627 0.03948 0.03437 0.0
C334 C 0.06039 0.04625 0.03786 0.0
C335 C -0.00444 0.02438 0.04322 0.0
C336 C 0.01515 0.98659 0.02011 0.0
C337 C 0.94237 -0.00248 0.97597 0.0
C338 C 0.91228 0.01114 0.96858 0.0
C339 C 0.92968 0.02264 0.9703 0.0
C340 C 0.94459 0.01586 0.97394 0.0
C341 C 0.92518 0.98573 0.97297 0.0
C342 C 0.91022 -0.00754 0.96918 0.0
C343 C 0.9575 -0.00857 0.98412 0.0
H344 H 0.08609 -0.00061 0.04839 0.0
H345 H 0.06182 0.01412 0.04987 0.0
H346 H 0.09402 0.06141 0.03125 0.0
H347 H 0.11832 0.04638 0.02927 0.0
H348 H 0.93182 0.03711 0.97015 0.0
H349 H 0.9578 0.02514 0.9763 0.0
H350 H 0.92327 0.97153 0.97455 0.0
H351 H 0.89703 0.9832 0.9676 0.0
Dy352 Dy 0.27203 0.76482 0.23804 0.0
Dy353 Dy 0.253 0.77348 0.27444 0.0
C354 C 0.27356 0.80538 0.25436 0.0
O355 O 0.29389 0.77052 0.26227 0.0
O356 O 0.27639 0.76314 0.28497 0.0
O357 O 0.29303 0.77216 0.22101 0.0
O358 O 0.27279 0.74656 0.21376 0.0
O359 O 0.24146 0.7441 0.26373 0.0
O360 O 0.26515 0.73902 0.25001 0.0
O361 O 0.23633 0.78066 0.25093 0.0
O362 O 0.24317 0.76257 0.2272 0.0
O363 O 0.22909 0.77182 0.28738 0.0
O364 O 0.25501 0.78533 0.30299 0.0
C365 C 0.29211 0.76612 0.27898 0.0
O366 O 0.27137 0.79381 0.2392 0.0
O367 O 0.27084 0.79986 0.27038 0.0
C368 C 0.28255 0.76226 0.18953 0.0
C369 C 0.27673 0.77254 0.15424 0.0
C370 C 0.29284 0.76832 0.16017 0.0
C371 C 0.29571 0.76316 0.17772 0.0
C372 C 0.26639 0.76623 0.18356 0.0
C373 C 0.26346 0.77125 0.16603 0.0
C374 C 0.28594 0.75811 0.20839 0.0
C375 C 0.25022 0.73295 0.25673 0.0
C376 C 0.23272 0.77225 0.23379 0.0
C377 C 0.23394 0.76765 0.31848 0.0
C378 C 0.22921 0.7468 0.34764 0.0
C379 C 0.23148 0.7389 0.33011 0.0
C380 C 0.23389 0.74925 0.31568 0.0
C381 C 0.23123 0.77553 0.33576 0.0
C382 C 0.2289 0.76517 0.3503 0.0
C383 C 0.23801 0.77874 0.3037 0.0
H384 H 0.30325 0.76918 0.15132 0.0
H385 H 0.30829 0.7602 0.1822 0.0
H386 H 0.25617 0.76583 0.19261 0.0
H387 H 0.25107 0.77476 0.16199 0.0
H388 H 0.23214 0.72489 0.32773 0.0
H389 H 0.23619 0.74302 0.30245 0.0
H390 H 0.23133 0.78976 0.33812 0.0
H391 H 0.22711 0.77156 0.36366 0.0
Dy392 Dy 0.48613 0.01275 0.5128 0.0
Dy393 Dy 0.52934 0.01973 0.51039 0.0
C394 C 0.50217 0.02413 0.47713 0.0
O395 O 0.48944 0.98656 0.49759 0.0
O396 O 0.51903 -0.01064 0.50801 0.0
O397 O 0.45875 0.00494 0.49936 0.0
O398 O 0.46455 0.01294 0.52913 0.0
O399 O 0.52477 0.02142 0.54004 0.0
O400 O 0.49762 0.00092 0.53607 0.0
O401 O 0.5252 0.04801 0.51404 0.0
O402 O 0.49858 0.04171 0.52625 0.0
O403 O 0.55616 0.02421 0.52461 0.0
O404 O 0.55187 0.02272 0.49484 0.0
C405 C 0.50321 0.97937 0.49997 0.0
O406 O 0.49222 0.02824 0.48942 0.0
O407 O 0.51509 0.01649 0.48155 0.0
C408 C 0.43961 0.02027 0.51376 0.0
C409 C 0.41515 0.04223 0.51324 0.0
C410 C 0.43206 0.04823 0.50743 0.0
C411 C 0.44421 0.03737 0.50775 0.0
C412 C 0.42277 0.01419 0.51942 0.0
C413 C 0.41067 0.02503 0.51918 0.0
C414 C 0.45231 0.0088 0.51464 0.0
C415 C 0.51262 0.00953 0.54649 0.0
C416 C 0.51291 0.05346 0.52268 0.0
C417 C 0.57591 0.01206 0.50799 0.0
C418 C 0.60043 -0.00984 0.50719 0.0
C419 C 0.60639 0.00903 0.51291 0.0
C420 C 0.59426 0.01983 0.51329 0.0
C421 C 0.5698 -0.00673 0.50221 0.0
C422 C 0.58195 0.98242 0.50177 0.0
C423 C 0.5634 0.02369 0.50939 0.0
H424 H 0.43604 0.06145 0.50297 0.0
H425 H 0.45723 0.04237 0.50345 0.0
H426 H 0.41899 0.00104 0.52411 0.0
H427 H 0.3977 0.01985 0.52349 0.0
H428 H 0.62042 0.01546 0.51752 0.0
H429 H 0.59922 0.03428 0.51797 0.0
H430 H 0.55565 -0.01301 0.49815 0.0
H431 H 0.57686 0.968 0.49711 0.0
Dy432 Dy 0.28123 0.26548 0.76507 0.0
Dy433 Dy 0.24176 0.27639 0.76143 0.0
C434 C 0.27813 0.30412 0.75564 0.0
O435 O 0.27937 0.27993 0.79303 0.0
O436 O 0.24881 0.27378 0.79113 0.0
O437 O 0.3099 0.27407 0.77328 0.0
O438 O 0.2976 0.24677 0.75955 0.0
O439 O 0.23591 0.2464 0.76064 0.0
O440 O 0.26225 0.24256 0.77508 0.0
O441 O 0.24779 0.2723 0.73202 0.0
O442 O 0.26722 0.25429 0.73653 0.0
O443 O 0.2134 0.27052 0.75143 0.0
O444 O 0.22642 0.29521 0.76998 0.0
C445 C 0.26477 0.27922 0.80089 0.0
O446 O 0.28451 0.29018 0.751 0.0
O447 O 0.26335 0.30219 0.7633 0.0
C448 C 0.32684 0.26071 0.75336 0.0
C449 C 0.35485 0.26438 0.73079 0.0
C450 C 0.3405 0.27233 0.72711 0.0
C451 C 0.32667 0.27052 0.73826 0.0
C452 C 0.34097 0.25265 0.757 0.0
C453 C 0.35478 0.25444 0.74589 0.0
C454 C 0.3126 0.25897 0.76558 0.0
C455 C 0.24496 0.23657 0.76921 0.0
C456 C 0.25678 0.26096 0.7255 0.0
C457 C 0.19598 0.28175 0.77306 0.0
C458 C 0.16653 0.27752 0.79384 0.0
C459 C 0.16928 0.26259 0.78254 0.0
C460 C 0.18381 0.26466 0.77231 0.0
C461 C 0.19319 0.29665 0.78429 0.0
C462 C 0.17875 0.29457 0.79456 0.0
C463 C 0.21119 0.28454 0.76186 0.0
H464 H 0.3401 0.28025 0.71579 0.0
H465 H 0.31591 0.27688 0.73517 0.0
H466 H 0.34136 0.24497 0.76853 0.0
H467 H 0.36534 0.24784 0.74904 0.0
H468 H 0.16029 0.24922 0.78174 0.0
H469 H 0.18547 0.25286 0.76379 0.0
H470 H 0.20215 0.31003 0.78502 0.0
H471 H 0.17698 0.30646 0.80283 0.0
Dy472 Dy 0.02097 -0.00092 0.51355 0.0
Dy473 Dy 0.01043 0.03936 0.51666 0.0
C474 C 0.98148 0.0026 0.52059 0.0
O475 O 0.01709 0.00453 0.48396 0.0
O476 O 0.00028 0.02536 0.48785 0.0
O477 O 0.01559 0.97026 0.50383 0.0
O478 O 0.03936 0.98376 0.52303 0.0
O479 O 0.03485 0.0423 0.50266 0.0
O480 O 0.04651 0.02099 0.51528 0.0
O481 O 0.0245 0.03759 0.54466 0.0
O482 O 0.0174 0.0066 0.54294 0.0
O483 O 0.01912 0.06852 0.52446 0.0
O484 O -0.008 0.056 0.51143 0.0
C485 C 0.00661 0.01415 0.47716 0.0
O486 O -0.00863 -0.00697 0.51277 0.0
O487 O 0.98728 0.02025 0.52598 0.0
C488 C 0.02621 0.9529 0.52566 0.0
C489 C 0.02158 0.92372 0.54715 0.0
C490 C 0.00764 0.93212 0.54314 0.0
C491 C 0.00995 0.94659 0.53259 0.0
C492 C 0.04006 0.9445 0.52955 0.0
C493 C 0.0378 0.93015 0.54014 0.0
C494 C 0.02925 0.96824 0.51457 0.0
C495 C 0.04853 0.03586 0.50746 0.0
C496 C 0.02307 0.02282 0.55265 0.0
C497 C 0.00541 0.08571 0.50508 0.0
C498 C 0.00817 0.11444 0.48311 0.0
C499 C 0.01775 0.10116 0.48007 0.0
C500 C 0.01639 0.08697 0.49093 0.0
C501 C -0.00432 0.09872 0.50798 0.0
C502 C -0.00299 0.11286 0.49716 0.0
C503 C 0.00412 0.07123 0.51717 0.0
H504 H -0.00498 0.92773 0.54843 0.0
H505 H -0.00093 0.9529 0.52994 0.0
H506 H 0.05272 0.94907 0.52437 0.0
H507 H 0.04877 0.92393 0.54266 0.0
H508 H 0.0266 0.10192 0.46954 0.0
H509 H 0.02403 0.07708 0.48839 0.0
H510 H 0.98705 0.09799 0.51873 0.0
H511 H -0.01087 0.12251 0.49976 0.0
Dy512 Dy 0.26478 0.7877 0.75549 0.0
Dy513 Dy 0.25798 0.74522 0.76421 0.0
C514 C 0.25185 0.77605 0.79383 0.0
O515 O 0.29267 0.78339 0.76102 0.0
O516 O 0.28611 0.7594 0.77759 0.0
O517 O 0.27641 0.81656 0.76349 0.0
O518 O 0.26007 0.80658 0.73694 0.0
O519 O 0.27346 0.74785 0.74037 0.0
O520 O 0.26327 0.77029 0.72856 0.0
O521 O 0.23139 0.74697 0.74936 0.0
O522 O 0.23492 0.77782 0.75452 0.0
O523 O 0.24963 0.71661 0.75345 0.0
O524 O 0.25957 0.72533 0.78259 0.0
C525 C 0.29791 0.77253 0.772 0.0
O526 O 0.2612 0.78852 0.78528 0.0
O527 O 0.24701 0.75876 0.78703 0.0
C528 C 0.25754 0.83416 0.75248 0.0
C529 C 0.2365 0.85921 0.75772 0.0
C530 C 0.23204 0.84234 0.76435 0.0
C531 C 0.24246 0.82995 0.76176 0.0
C532 C 0.26216 0.85098 0.746 0.0
C533 C 0.25177 0.8634 0.7486 0.0
C534 C 0.26806 0.82083 0.74895 0.0
C535 C 0.27045 0.75655 0.72651 0.0
C536 C 0.22461 0.76123 0.74949 0.0
C537 C 0.26691 0.69955 0.76823 0.0
C538 C 0.2898 0.67601 0.76648 0.0
C539 C 0.29609 0.69443 0.76439 0.0
C540 C 0.28474 0.70608 0.76523 0.0
C541 C 0.26056 0.68125 0.77032 0.0
C542 C 0.27188 0.66958 0.76945 0.0
C543 C 0.25491 0.71173 0.76916 0.0
H544 H 0.22053 0.83873 0.77164 0.0
H545 H 0.23867 0.81701 0.76687 0.0
H546 H 0.27369 0.85442 0.7387 0.0
H547 H 0.25549 0.87613 0.7431 0.0
H548 H 0.30972 0.69981 0.76185 0.0
H549 H 0.28987 0.72018 0.76351 0.0
H550 H 0.24685 0.67599 0.77269 0.0
H551 H 0.26664 0.65557 0.77137 0.0
Dy552 Dy 0.51357 0.02666 -0.00412 0.0
Dy553 Dy 0.51922 0.00732 0.03279 0.0
C554 C 0.51845 0.98635 -0.00792 0.0
O555 O 0.4867 0.00947 -0.00103 0.0
O556 O 0.49094 0.00891 0.03027 0.0
O557 O 0.50322 0.02469 0.967 0.0
O558 O 0.51705 0.05084 0.98272 0.0
O559 O 0.52113 0.03658 0.04371 0.0
O560 O 0.50612 0.04442 0.01854 0.0
O561 O 0.54559 0.01329 0.02237 0.0
O562 O 0.54242 0.03714 0.00739 0.0
O563 O 0.5339 0.00718 0.05947 0.0
O564 O 0.51184 0.98424 0.04727 0.0
C565 C 0.48034 0.00689 0.01465 0.0
O566 O 0.52316 0.00222 0.98623 0.0
O567 O 0.51288 0.98513 0.00836 0.0
C568 C 0.52207 0.04536 0.95196 0.0
C569 C 0.54395 0.05048 0.92377 0.0
C570 C 0.5502 0.04529 0.94051 0.0
C571 C 0.53933 0.04269 0.95446 0.0
C572 C 0.51587 0.05089 0.9355 0.0
C573 C 0.52674 0.05346 0.92148 0.0
C574 C 0.51048 0.0418 0.96634 0.0
C575 C 0.51292 0.04773 0.03616 0.0
C576 C 0.55253 0.02784 0.01512 0.0
C577 C 0.51563 -0.00778 0.07949 0.0
C578 C 0.50099 -0.00728 0.11295 0.0
C579 C 0.4927 -0.00178 0.09742 0.0
C580 C 0.50001 -0.00195 0.08084 0.0
C581 C 0.52403 0.9868 0.09493 0.0
C582 C 0.51679 -0.01289 0.11162 0.0
C583 C 0.5232 -0.00807 0.06202 0.0
H584 H 0.56347 0.04312 0.94278 0.0
H585 H 0.5443 0.03841 0.96714 0.0
H586 H 0.50253 0.05293 0.93339 0.0
H587 H 0.52149 0.05725 0.90865 0.0
H588 H 0.48069 0.00291 0.09817 0.0
H589 H 0.49347 0.00247 0.06907 0.0
H590 H 0.53615 0.98233 0.09407 0.0
H591 H 0.52339 0.98277 0.12339 0.0
Dy592 Dy 0.25314 0.24881 0.25052 0.0
Dy593 Dy 0.2735 0.28886 0.27236 0.0
C594 C 0.26665 0.25483 0.29377 0.0
O595 O 0.22994 0.26079 0.2563 0.0
O596 O 0.24486 0.28486 0.2784 0.0
O597 O 0.24431 0.22002 0.25092 0.0
O598 O 0.2387 0.23105 0.22573 0.0
O599 O 0.26087 0.29388 0.2451 0.0
O600 O 0.26039 0.26659 0.22883 0.0
O601 O 0.295 0.27999 0.25815 0.0
O602 O 0.28263 0.24928 0.25171 0.0
O603 O 0.29237 0.31488 0.27369 0.0
O604 O 0.27889 0.30822 0.29738 0.0
C605 C 0.22976 0.27392 0.26954 0.0
O606 O 0.25314 0.2473 0.2808 0.0
O607 O 0.27891 0.26912 0.29121 0.0
C608 C 0.24609 0.20289 0.22334 0.0
C609 C 0.26263 0.17523 0.21291 0.0
C610 C 0.27257 0.19352 0.21631 0.0
C611 C 0.26433 0.20723 0.22141 0.0
C612 C 0.23582 0.18493 0.21858 0.0
C613 C 0.244 0.17119 0.21322 0.0
C614 C 0.23864 0.2164 0.23322 0.0
C615 C 0.25989 0.2836 0.22924 0.0
C616 C 0.29643 0.26352 0.25261 0.0
C617 C 0.28383 0.33835 0.29128 0.0
C618 C 0.2707 0.3695 0.29437 0.0
C619 C 0.27189 0.3607 0.27685 0.0
C620 C 0.27831 0.34523 0.27531 0.0
C621 C 0.28328 0.3475 0.30881 0.0
C622 C 0.27668 0.36292 0.31035 0.0
C623 C 0.2888 0.32098 0.28982 0.0
H624 H 0.28693 0.1972 0.21639 0.0
H625 H 0.27244 0.22107 0.22502 0.0
H626 H 0.22171 0.18138 0.22 0.0
H627 H 0.23589 0.1573 0.21029 0.0
H628 H 0.26709 0.36528 0.26429 0.0
H629 H 0.2784 0.33836 0.26159 0.0
H630 H 0.28745 0.34238 0.32129 0.0
H631 H 0.27594 0.36951 0.32401 0.0
Dy632 Dy 0.51931 0.49908 0.01047 0.0
Dy633 Dy 0.50971 0.53978 0.01443 0.0
C634 C 0.48116 0.50326 0.01948 0.0
O635 O 0.5055 0.50131 0.9826 0.0
O636 O 0.51252 0.53237 0.98473 0.0
O637 O 0.51047 0.46996 0.00234 0.0
O638 O 0.53754 0.48222 0.0156 0.0
O639 O 0.53932 0.54469 0.01651 0.0
O640 O 0.54234 0.51816 0.0008 0.0
O641 O 0.51248 0.5332 0.04374 0.0
O642 O 0.52965 0.51284 0.0393 0.0
O643 O 0.51648 0.56874 0.02445 0.0
O644 O 0.49206 0.55612 0.00595 0.0
C645 C 0.50674 0.5162 0.97486 0.0
O646 O 0.49443 0.49603 0.02383 0.0
O647 O 0.48375 0.51854 0.01236 0.0
C648 C 0.52388 0.45242 0.02154 0.0
C649 C 0.52109 0.42366 0.04347 0.0
C650 C 0.51178 0.43712 0.04675 0.0
C651 C 0.51319 0.45136 0.03594 0.0
C652 C 0.53318 0.43909 0.01825 0.0
C653 C 0.53182 0.42491 0.02904 0.0
C654 C 0.52538 0.46708 0.00964 0.0
C655 C 0.54884 0.53546 0.00761 0.0
C656 C 0.52296 0.52346 0.0503 0.0
C657 C 0.5063 0.58672 0.00318 0.0
C658 C 0.51107 0.6162 0.98207 0.0
C659 C 0.51047 0.5985 0.97382 0.0
C660 C 0.50816 0.58397 0.98426 0.0
C661 C 0.50708 0.60434 0.01149 0.0
C662 C 0.50946 0.61889 0.00111 0.0
C663 C 0.50283 0.57137 0.01424 0.0
H664 H 0.50355 0.4368 0.05782 0.0
H665 H 0.50593 0.46153 0.03881 0.0
H666 H 0.54145 0.43956 0.0072 0.0
H667 H 0.53899 0.41474 0.02584 0.0
H668 H 0.51189 0.59587 0.9593 0.0
H669 H 0.50769 0.57055 0.9775 0.0
H670 H 0.5056 0.60683 0.02602 0.0
H671 H 0.50963 0.6322 0.00796 0.0
Dy672 Dy 0.76596 0.29263 0.2624 0.0
Dy673 Dy 0.7586 0.24151 0.25861 0.0
C674 C 0.75929 0.26232 0.29249 0.0
O675 O 0.79315 0.28664 0.2702 0.0
O676 O 0.78792 0.25472 0.2697 0.0
O677 O 0.75885 0.30947 0.28448 0.0
O678 O 0.77475 0.32183 0.26424 0.0
O679 O 0.76321 0.26474 0.24328 0.0
O680 O 0.7699 0.28968 0.23221 0.0
O681 O 0.73141 0.24767 0.25141 0.0
O682 O 0.73662 0.27949 0.25101 0.0
O683 O 0.76608 0.22459 0.23696 0.0
O684 O 0.74909 0.21231 0.25643 0.0
C685 C 0.79862 0.27161 0.27253 0.0
O686 O 0.76051 0.26907 0.27708 0.0
O687 O 0.75685 0.24482 0.28939 0.0
C688 C 0.7544 0.33726 0.27669 0.0
C689 C 0.7319 0.36119 0.27497 0.0
C690 C 0.73836 0.35688 0.29211 0.0
C691 C 0.74952 0.34509 0.29294 0.0
C692 C 0.74797 0.34149 0.25952 0.0
C693 C 0.7369 0.35342 0.25868 0.0
C694 C 0.76583 0.32448 0.27808 0.0
C695 C 0.76724 0.27217 0.2287 0.0
C696 C 0.72589 0.26262 0.24875 0.0
C697 C 0.76945 0.19646 0.24463 0.0
C698 C 0.79182 0.17246 0.24687 0.0
C699 C 0.78558 0.17671 0.22962 0.0
C700 C 0.77451 0.18855 0.22853 0.0
C701 C 0.77556 0.19221 0.26191 0.0
C702 C 0.78657 0.18024 0.263 0.0
C703 C 0.75843 0.20957 0.24297 0.0
H704 H 0.73495 0.36278 0.30493 0.0
H705 H 0.7543 0.34202 0.30634 0.0
H706 H 0.75138 0.33551 0.24673 0.0
H707 H 0.732 0.35631 0.24525 0.0
H708 H 0.78918 0.17079 0.21691 0.0
H709 H 0.76999 0.19167 0.21506 0.0
H710 H 0.77202 0.19828 0.27458 0.0
H711 H 0.79129 0.17739 0.27651 0.0
Dy712 Dy 0.01263 0.52684 0.49514 0.0
Dy713 Dy 0.01833 0.50645 0.53139 0.0
C714 C 0.01783 0.48617 0.49028 0.0
O715 O 0.98612 0.52077 0.50528 0.0
O716 O -0.01083 0.49731 0.52116 0.0
O717 O -0.00264 0.52869 0.46946 0.0
O718 O 0.02184 0.54936 0.48025 0.0
O719 O 0.00948 0.5309 0.54277 0.0
O720 O 0.01717 0.5484 0.5199 0.0
O721 O 0.04367 0.5269 0.52996 0.0
O722 O 0.04117 0.52576 0.49865 0.0
O723 O 0.03497 0.50486 0.55628 0.0
O724 O 0.0102 0.48428 0.54713 0.0
C725 C 0.97925 0.50675 0.51335 0.0
O726 O 0.00964 0.49767 0.4835 0.0
O727 O 0.02497 0.4889 0.5078 0.0
C728 C 0.01567 0.54103 0.44811 0.0
C729 C 0.02996 0.53856 0.4145 0.0
C730 C 0.02754 0.524 0.4249 0.0
C731 C 0.02056 0.52527 0.44162 0.0
C732 C 0.01773 0.55547 0.43769 0.0
C733 C 0.02482 0.55425 0.42097 0.0
C734 C 0.00933 0.54275 0.46618 0.0
C735 C 0.01268 0.54676 0.53662 0.0
C736 C 0.05103 0.52934 0.51488 0.0
C737 C 0.01818 0.49334 0.57909 0.0
C738 C 0.00597 0.49699 0.61373 0.0
C739 C 0.00893 0.51162 0.60346 0.0
C740 C 0.01491 0.50979 0.58625 0.0
C741 C 0.01555 0.47879 0.58938 0.0
C742 C 0.00944 0.48058 0.60661 0.0
C743 C 0.02335 0.49107 0.56049 0.0
H744 H 0.03109 0.51162 0.42016 0.0
H745 H 0.01916 0.51402 0.44958 0.0
H746 H 0.01414 0.56778 0.44265 0.0
H747 H 0.02671 0.56576 0.41337 0.0
H748 H 0.00605 0.5243 0.60844 0.0
H749 H 0.01667 0.52111 0.57839 0.0
H750 H 0.01793 0.46599 0.58396 0.0
H751 H 0.00731 0.46912 0.61428 0.0
Dy752 Dy 0.78303 0.76539 0.26278 0.0
Dy753 Dy 0.74343 0.77613 0.25916 0.0
C754 C 0.77994 0.80417 0.25399 0.0
O755 O 0.7808 0.77973 0.29067 0.0
O756 O 0.75023 0.77226 0.28856 0.0
O757 O 0.81162 0.77394 0.27154 0.0
O758 O 0.7995 0.74678 0.25734 0.0
O759 O 0.73768 0.74605 0.25668 0.0
O760 O 0.76367 0.74194 0.27157 0.0
O761 O 0.74942 0.77266 0.22965 0.0
O762 O 0.77019 0.75587 0.23353 0.0
O763 O 0.71502 0.77035 0.24953 0.0
O764 O 0.7282 0.79494 0.26817 0.0
C765 C 0.76608 0.77816 0.29849 0.0
O766 O 0.78649 0.79038 0.24926 0.0
O767 O 0.76506 0.80203 0.26148 0.0
C768 C 0.82889 0.76092 0.25176 0.0
C769 C 0.85721 0.76499 0.22958 0.0
C770 C 0.84205 0.77145 0.22482 0.0
C771 C 0.82807 0.76945 0.23579 0.0
C772 C 0.84386 0.75437 0.2565 0.0
C773 C 0.85783 0.75635 0.24557 0.0
C774 C 0.81444 0.75894 0.26372 0.0
C775 C 0.74653 0.73593 0.26501 0.0
C776 C 0.75927 0.76234 0.22284 0.0
C777 C 0.69776 0.78176 0.27106 0.0
C778 C 0.66859 0.77771 0.29218 0.0
C779 C 0.67571 0.76291 0.28704 0.0
C780 C 0.69016 0.76492 0.27667 0.0
C781 C 0.69066 0.79649 0.27614 0.0
C782 C 0.67633 0.79453 0.28655 0.0
C783 C 0.71294 0.78444 0.25994 0.0
H784 H 0.8411 0.77835 0.21278 0.0
H785 H 0.81666 0.77466 0.23187 0.0
H786 H 0.84477 0.74769 0.26872 0.0
H787 H 0.86904 0.75091 0.24958 0.0
H788 H 0.67028 0.7498 0.29125 0.0
H789 H 0.6954 0.75332 0.27308 0.0
H790 H 0.69621 0.8096 0.27197 0.0
H791 H 0.67112 0.80618 0.28996 0.0
Dy792 Dy 0.768 0.25968 0.73659 0.0
Dy793 Dy 0.7469 0.26365 0.7727 0.0
C794 C 0.76544 0.29822 0.75517 0.0
O795 O 0.78523 0.25282 0.75989 0.0
O796 O 0.77591 0.26789 0.78421 0.0
O797 O 0.79191 0.2666 0.72348 0.0
O798 O 0.76799 0.24757 0.70856 0.0
O799 O 0.74912 0.23509 0.76934 0.0
O800 O 0.75149 0.232 0.73834 0.0
O801 O 0.72567 0.25811 0.74788 0.0
O802 O 0.7434 0.26809 0.72604 0.0
O803 O 0.7255 0.25338 0.7884 0.0
O804 O 0.74429 0.27958 0.79788 0.0
C805 C 0.78761 0.25997 0.77745 0.0
O806 O 0.77599 0.28903 0.74822 0.0
O807 O 0.75122 0.2902 0.7621 0.0
C808 C 0.78511 0.26769 0.6917 0.0
C809 C 0.78426 0.28571 0.66035 0.0
C810 C 0.77961 0.29301 0.67704 0.0
C811 C 0.77998 0.28404 0.69257 0.0
C812 C 0.7901 0.26051 0.67525 0.0
C813 C 0.78968 0.26945 0.65965 0.0
C814 C 0.78394 0.2575 0.70748 0.0
C815 C 0.74816 0.22492 0.75348 0.0
C816 C 0.72754 0.2637 0.73164 0.0
C817 C 0.73359 0.26194 0.8205 0.0
C818 C 0.73771 0.25165 0.85603 0.0
C819 C 0.75189 0.25374 0.84533 0.0
C820 C 0.74982 0.25876 0.82766 0.0
C821 C 0.71946 0.26003 0.83114 0.0
C822 C 0.72148 0.25487 0.84878 0.0
C823 C 0.73123 0.26691 0.80184 0.0
H824 H 0.77512 0.30535 0.67792 0.0
H825 H 0.77585 0.28963 0.70514 0.0
H826 H 0.79398 0.24783 0.67437 0.0
H827 H 0.79346 0.2636 0.64701 0.0
H828 H 0.76444 0.25107 0.85045 0.0
H829 H 0.76082 0.26002 0.81953 0.0
H830 H 0.70684 0.26241 0.82576 0.0
H831 H 0.71037 0.25344 0.85678 0.0
Dy832 Dy 0.75115 0.74956 0.7477 0.0
Dy833 Dy 0.77137 0.78989 0.76943 0.0
C834 C 0.76616 0.75534 0.79122 0.0
O835 O 0.72818 0.76197 0.75278 0.0
O836 O 0.74263 0.78585 0.77521 0.0
O837 O 0.72964 0.72507 0.74415 0.0
O838 O 0.74967 0.72791 0.72555 0.0
O839 O 0.75943 0.79562 0.74217 0.0
O840 O 0.75408 0.76727 0.7254 0.0
O841 O 0.7924 0.78067 0.75468 0.0
O842 O 0.78067 0.74996 0.75081 0.0
O843 O 0.79195 0.81486 0.77146 0.0
O844 O 0.77544 0.81042 0.79336 0.0
C845 C 0.72769 0.77485 0.7661 0.0
O846 O 0.75393 0.74603 0.77763 0.0
O847 O 0.77678 0.77105 0.78939 0.0
C848 C 0.74063 0.69971 0.73572 0.0
C849 C 0.75552 0.67117 0.74414 0.0
C850 C 0.75127 0.68258 0.75835 0.0
C851 C 0.74397 0.69677 0.7542 0.0
C852 C 0.74373 0.6876 0.72141 0.0
C853 C 0.75111 0.67338 0.72558 0.0
C854 C 0.73674 0.71678 0.73163 0.0
C855 C 0.75576 0.7848 0.72624 0.0
C856 C 0.79422 0.76413 0.75056 0.0
C857 C 0.78372 0.83999 0.7859 0.0
C858 C 0.77374 0.87281 0.78551 0.0
C859 C 0.77202 0.86097 0.76897 0.0
C860 C 0.77687 0.84467 0.76917 0.0
C861 C 0.78601 0.85201 0.80236 0.0
C862 C 0.78099 0.86831 0.8022 0.0
C863 C 0.78723 0.8221 0.78645 0.0
H864 H 0.75427 0.68099 0.77276 0.0
H865 H 0.74181 0.70597 0.76554 0.0
H866 H 0.74139 0.68976 0.70709 0.0
H867 H 0.75435 0.66483 0.71435 0.0
H868 H 0.76614 0.8639 0.75597 0.0
H869 H 0.77476 0.83549 0.75632 0.0
H870 H 0.7912 0.84855 0.8154 0.0
H871 H 0.78246 0.87722 0.81512 0.0
Dy872 Dy 0.52956 0.52948 0.52235 0.0
Dy873 Dy 0.49006 0.50728 0.5017 0.0
C874 C 0.52387 0.51221 0.47944 0.0
O875 O 0.52005 0.5503 0.50744 0.0
O876 O 0.48984 0.53699 0.50249 0.0
O877 O 0.55629 0.5459 0.52157 0.0
O878 O 0.54835 0.53789 0.54747 0.0
O879 O 0.48765 0.51158 0.53191 0.0
O880 O 0.51069 0.53693 0.54114 0.0
O881 O 0.50462 0.48553 0.50614 0.0
O882 O 0.52478 0.50139 0.53081 0.0
O883 O 0.46743 0.48404 0.49959 0.0
O884 O 0.46723 0.50387 0.48086 0.0
C885 C 0.50354 0.55113 0.50237 0.0
O886 O 0.53446 0.51572 0.49534 0.0
O887 O 0.50666 0.51073 0.47876 0.0
C888 C 0.57719 0.53711 0.54135 0.0
C889 C 0.60661 0.52178 0.54229 0.0
C890 C 0.58912 0.51069 0.54105 0.0
C891 C 0.57457 0.51827 0.54052 0.0
C892 C 0.5946 0.54833 0.54307 0.0
C893 C 0.60925 0.54071 0.54353 0.0
C894 C 0.56165 0.54466 0.53872 0.0
C895 C 0.49603 0.52558 0.54427 0.0
C896 C 0.51597 0.48578 0.5209 0.0
C897 C 0.44021 0.49096 0.49134 0.0
C898 C 0.40678 0.49578 0.49867 0.0
C899 C 0.42187 0.50215 0.51225 0.0
C900 C 0.43846 0.49982 0.50858 0.0
C901 C 0.42515 0.48412 0.47793 0.0
C902 C 0.40852 0.48653 0.48155 0.0
C903 C 0.45789 0.48977 0.48705 0.0
H904 H 0.58658 0.49604 0.53968 0.0
H905 H 0.56121 0.50934 0.53889 0.0
H906 H 0.59683 0.5629 0.54357 0.0
H907 H 0.62259 0.54958 0.54457 0.0
H908 H 0.42103 0.50962 0.52543 0.0
H909 H 0.45002 0.50534 0.51904 0.0
H910 H 0.42634 0.47728 0.46453 0.0
H911 H 0.39708 0.48142 0.47088 0.0
Dy912 Dy -0.01098 0.51534 0.01328 0.0
Dy913 Dy 0.0319 0.5219 0.00876 0.0
C914 C 0.00356 0.52645 0.97652 0.0
O915 O -0.0084 0.48878 -0.00176 0.0
O916 O 0.02148 0.4916 0.00715 0.0
O917 O 0.96125 0.50719 0.00113 0.0
O918 O 0.96833 0.51669 0.03059 0.0
O919 O 0.02882 0.52284 0.03871 0.0
O920 O 0.00107 0.50345 0.03621 0.0
O921 O 0.02758 0.55015 0.01183 0.0
O922 O 0.0025 0.54413 0.02658 0.0
O923 O 0.05967 0.52974 0.02133 0.0
O924 O 0.05297 0.52095 -0.00813 0.0
C925 C 0.00541 0.48157 -7e-05 0.0
O926 O -0.00635 0.53009 -0.01093 0.0
O927 O 0.01694 0.51932 0.98051 0.0
C928 C 0.94279 0.52343 0.01564 0.0
C929 C 0.91814 0.5452 0.01461 0.0
C930 C 0.93295 0.54877 0.00474 0.0
C931 C 0.9452 0.53803 0.00531 0.0
C932 C 0.92805 0.51981 0.02542 0.0
C933 C 0.91587 0.53056 0.02494 0.0
C934 C 0.95554 0.51199 0.01659 0.0
C935 C 0.01671 0.51147 0.04578 0.0
C936 C 0.01615 0.5558 0.02167 0.0
C937 C 0.07818 0.51359 0.00703 0.0
C938 C 0.10288 0.49188 0.00898 0.0
C939 C 0.10859 0.51084 0.01417 0.0
C940 C 0.09637 0.52155 0.01318 0.0
C941 C 0.07232 0.49467 0.002 0.0
C942 C 0.08454 0.48393 0.00292 0.0
C943 C 0.06558 0.52522 0.00598 0.0
H944 H 0.93523 0.56004 -0.00318 0.0
H945 H 0.95658 0.54117 -0.00224 0.0
H946 H 0.92595 0.50862 0.03347 0.0
H947 H 0.90452 0.52725 0.03249 0.0
H948 H 0.1225 0.51744 0.01923 0.0
H949 H 0.10116 0.53611 0.01725 0.0
H950 H 0.05831 0.4882 -0.00275 0.0
H951 H 0.07964 0.46943 -0.00138 0.0
C952 C 0.9701 0.19634 0.95881 0.0
C953 C 0.97918 0.2043 0.94487 0.0
C954 C 0.97269 0.18013 0.96461 0.0
C955 C 0.00328 0.14839 0.96254 0.0
H956 H 0.96416 0.1161 0.98054 0.0
C957 C 0.0137 0.08524 -0.00365 0.0
C958 C -0.00056 0.06949 -0.00528 0.0
C959 C 0.01119 0.10136 -0.0098 0.0
C960 C 0.97528 0.12474 0.97541 0.0
H961 H -0.0017 0.20088 0.9262 0.0
H962 H 0.00262 0.17254 0.93593 0.0
H963 H 0.95996 0.14374 0.9696 0.0
H964 H 0.97111 0.05887 0.98507 0.0
H965 H 0.96675 0.08659 0.97406 0.0
H966 H 0.0184 0.12907 0.96777 0.0
C967 C -0.00638 0.17902 0.94274 0.0
C968 C 0.97293 0.14097 0.96932 0.0
C969 C -0.00891 0.19537 0.937 0.0
C970 C 0.98248 0.07057 0.98672 0.0
C971 C 0.97998 0.0867 0.98045 0.0
C972 C 0.0056 0.13211 0.96855 0.0
C973 C 0.98441 0.17097 0.95664 0.0
C974 C 0.9869 0.15325 0.96284 0.0
C975 C -0.00571 0.10248 0.98201 0.0
C976 C -0.00832 0.11993 0.97523 0.0
H977 H 0.96087 0.20271 0.96541 0.0
H978 H 0.96556 0.17492 0.97559 0.0
H979 H 0.01455 0.15729 0.9579 0.0
H980 H 0.02699 0.08518 0.00246 0.0
H981 H 0.0226 0.11306 -0.00786 0.0
C982 C 0.10396 0.77558 0.12027 0.0
C983 C 0.09057 0.78305 0.12696 0.0
C984 C 0.11912 0.77493 0.13207 0.0
C985 C 0.14671 0.7946 0.17785 0.0
H986 H 0.1641 0.7514 0.17048 0.0
C987 C 0.20442 0.78289 0.22884 0.0
C988 C 0.21651 0.77381 0.22166 0.0
C989 C 0.18913 0.78427 0.21761 0.0
C990 C 0.15967 0.76372 0.17265 0.0
H991 H 0.08307 0.79603 0.15161 0.0
H992 H 0.10962 0.79494 0.17229 0.0
H993 H 0.13769 0.75352 0.15085 0.0
H994 H 0.22184 0.75923 0.19669 0.0
H995 H 0.19552 0.76188 0.17709 0.0
H996 H 0.1688 0.80485 0.19959 0.0
C997 C 0.10836 0.78962 0.15776 0.0
C998 C 0.14439 0.76493 0.16133 0.0
C999 C 0.09306 0.7902 0.14589 0.0
C1000 C 0.21286 0.76624 0.20282 0.0
C1001 C 0.19761 0.76768 0.19156 0.0
C1002 C 0.16207 0.79342 0.18915 0.0
C1003 C 0.12155 0.78176 0.15107 0.0
C1004 C 0.13767 0.78041 0.16365 0.0
C1005 C 0.18541 0.77667 0.19875 0.0
C1006 C 0.16888 0.77797 0.18672 0.0
H1007 H 0.1027 0.76999 0.10581 0.0
H1008 H 0.12904 0.76911 0.12621 0.0
H1009 H 0.14216 0.80684 0.18 0.0
H1010 H 0.20664 0.78886 0.24327 0.0
H1011 H 0.18007 0.79106 0.22387 0.0
C1012 C 0.47355 0.81826 0.42807 0.0
C1013 C 0.48522 0.80801 0.4342 0.0
C1014 C 0.47548 0.83622 0.43616 0.0
C1015 C 0.49924 0.87187 0.47683 0.0
H1016 H 0.48451 0.90406 0.44474 0.0
C1017 C 0.51459 0.95091 0.49827 0.0
C1018 C 0.50103 0.95952 0.49331 0.0
C1019 C 0.51276 0.93243 0.49185 0.0
C1020 C 0.48854 0.89529 0.45402 0.0
H1021 H 0.5081 0.80891 0.45412 0.0
H1022 H 0.51192 0.84052 0.46799 0.0
H1023 H 0.48171 0.87262 0.43246 0.0
H1024 H 0.47481 0.95498 0.47751 0.0
H1025 H 0.47173 0.92299 0.46617 0.0
H1026 H 0.5066 0.89499 0.49824 0.0
C1027 C 0.50091 0.83451 0.45706 0.0
C1028 C 0.48685 0.87703 0.44697 0.0
C1029 C 0.49876 0.81628 0.44908 0.0
C1030 C 0.48557 0.94896 0.4817 0.0
C1031 C 0.48384 0.93055 0.47508 0.0
C1032 C 0.50115 0.89027 0.48384 0.0
C1033 C 0.48944 0.84496 0.45054 0.0
C1034 C 0.49195 0.86481 0.45824 0.0
C1035 C 0.49741 0.92194 0.48002 0.0
C1036 C 0.49567 0.90227 0.47259 0.0
H1037 H 0.4628 0.81238 0.41681 0.0
H1038 H 0.46589 0.84322 0.43098 0.0
H1039 H 0.5032 0.86313 0.48618 0.0
H1040 H 0.52673 0.95845 0.50716 0.0
H1041 H 0.5236 0.92647 0.49588 0.0
C1042 C 0.46536 0.27693 0.61952 0.0
C1043 C 0.48325 0.27861 0.62685 0.0
C1044 C 0.45193 0.27583 0.63105 0.0
C1045 C 0.44116 0.26523 0.67771 0.0
H1046 H 0.40317 0.28875 0.66696 0.0
C1047 C 0.3876 0.26851 0.72707 0.0
C1048 C 0.36981 0.26645 0.71907 0.0
C1049 C 0.40157 0.27028 0.71614 0.0
C1050 C 0.41353 0.2819 0.67008 0.0
H1051 H 0.50091 0.28047 0.6523 0.0
H1052 H 0.47752 0.2787 0.67247 0.0
H1053 H 0.42717 0.29146 0.64773 0.0
H1054 H 0.353 0.26446 0.69298 0.0
H1055 H 0.37726 0.26756 0.67401 0.0
H1056 H 0.42747 0.25565 0.70006 0.0
C1057 C 0.47383 0.27803 0.65769 0.0
C1058 C 0.42737 0.28346 0.659 0.0
C1059 C 0.48731 0.27916 0.64612 0.0
C1060 C 0.36649 0.2663 0.69977 0.0
C1061 C 0.38048 0.26808 0.68884 0.0
C1062 C 0.42731 0.26367 0.6888 0.0
C1063 C 0.45591 0.27636 0.65033 0.0
C1064 C 0.44138 0.27508 0.66256 0.0
C1065 C 0.39825 0.27007 0.69683 0.0
C1066 C 0.41321 0.27191 0.68512 0.0
H1067 H 0.46163 0.27638 0.60476 0.0
H1068 H 0.43832 0.27425 0.62474 0.0
H1069 H 0.45151 0.25834 0.68079 0.0
H1070 H 0.39084 0.26904 0.74189 0.0
H1071 H 0.41507 0.27209 0.72292 0.0
C1072 C -0.00328 0.78994 0.63298 0.0
C1073 C 0.01147 0.79067 0.64619 0.0
C1074 C -0.00314 0.80403 0.62213 0.0
C1075 C 0.02047 0.85268 0.62086 0.0
H1076 H -0.00064 0.84277 0.56928 0.0
C1077 C 0.03356 0.90743 0.57179 0.0
C1078 C 0.01939 0.90846 0.55866 0.0
C1079 C 0.03175 0.89308 0.58238 0.0
C1080 C 0.00515 0.84584 0.58373 0.0
H1081 H 0.0381 0.8068 0.65794 0.0
H1082 H 0.03847 0.83091 0.63902 0.0
H1083 H -0.00227 0.81776 0.58758 0.0
H1084 H -0.00787 0.89488 0.5465 0.0
H1085 H -0.01107 0.86993 0.56507 0.0
H1086 H 0.02805 0.88068 0.61701 0.0
C1087 C 0.02657 0.81973 0.63723 0.0
C1088 C 0.0042 0.83144 0.59427 0.0
C1089 C 0.02641 0.80574 0.64805 0.0
C1090 C 0.0033 0.89468 0.55654 0.0
C1091 C 0.00153 0.88022 0.56708 0.0
C1092 C 0.02147 0.86702 0.61033 0.0
C1093 C 0.01176 0.81924 0.62419 0.0
C1094 C 0.01202 0.83461 0.61297 0.0
C1095 C 0.01573 0.87921 0.58019 0.0
C1096 C 0.01398 0.86384 0.59155 0.0
H1097 H 0.98496 0.77859 0.63116 0.0
H1098 H 0.98512 0.80315 0.61238 0.0
H1099 H 0.02628 0.85585 0.63529 0.0
H1100 H 0.04609 0.91783 0.57402 0.0
H1101 H 0.04308 0.89274 0.59215 0.0
C1102 C 0.46356 0.79138 0.81447 0.0
C1103 C 0.46684 0.78024 0.82782 0.0
C1104 C 0.44582 0.79104 0.80717 0.0
C1105 C 0.39817 0.7623 0.80223 0.0
H1106 H 0.38479 0.80668 0.79462 0.0
C1107 C 0.32315 0.76284 0.78955 0.0
C1108 C 0.31761 0.77447 0.77787 0.0
C1109 C 0.3414 0.764 0.7947 0.0
C1110 C 0.38822 0.79405 0.79641 0.0
H1111 H 0.45357 0.75979 0.84354 0.0
H1112 H 0.42331 0.75913 0.83098 0.0
H1113 H 0.41613 0.80769 0.80446 0.0
H1114 H 0.32758 0.79661 0.76259 0.0
H1115 H 0.35933 0.79852 0.77137 0.0
H1116 H 0.37048 0.74858 0.79415 0.0
C1117 C 0.43426 0.76811 0.82593 0.0
C1118 C 0.40634 0.79466 0.8021 0.0
C1119 C 0.45182 0.76858 0.83329 0.0
C1120 C 0.33114 0.78743 0.77165 0.0
C1121 C 0.34949 0.78857 0.7768 0.0
C1122 C 0.38015 0.76168 0.7965 0.0
C1123 C 0.43081 0.77936 0.81279 0.0
C1124 C 0.41165 0.7788 0.80538 0.0
C1125 C 0.35501 0.77678 0.78835 0.0
C1126 C 0.37468 0.77756 0.79372 0.0
H1127 H 0.47466 0.80064 0.80994 0.0
H1128 H 0.44389 0.79986 0.79701 0.0
H1129 H 0.40155 0.74966 0.80412 0.0
H1130 H 0.31333 0.75268 0.79476 0.0
H1131 H 0.34479 0.75486 0.80389 0.0
C1132 C 0.50023 0.18361 0.13989 0.0
C1133 C 0.49768 0.19768 0.12992 0.0
C1134 C 0.50138 0.16689 0.13061 0.0
C1135 C 0.48965 0.13775 0.08452 0.0
H1136 H 0.5267 0.11553 0.10235 0.0
C1137 C 0.50513 0.07793 0.03923 0.0
C1138 C 0.51104 0.06443 0.04771 0.0
C1139 C 0.50324 0.09361 0.04981 0.0
C1140 C 0.51606 0.12131 0.09725 0.0
H1141 H 0.49406 0.20485 0.10222 0.0
H1142 H 0.49577 0.17587 0.08619 0.0
H1143 H 0.52345 0.14332 0.11981 0.0
H1144 H 0.51949 0.05705 0.07426 0.0
H1145 H 0.51579 0.08412 0.09276 0.0
H1146 H 0.482 0.11577 0.06216 0.0
C1147 C 0.4969 0.17767 0.10118 0.0
C1148 C 0.51423 0.13736 0.10731 0.0
C1149 C 0.496 0.1944 0.11043 0.0
C1150 C 0.51499 0.06714 0.06718 0.0
C1151 C 0.51295 0.08281 0.07782 0.0
C1152 C 0.49135 0.12165 0.07457 0.0
C1153 C 0.49973 0.16367 0.11109 0.0
C1154 C 0.50113 0.14596 0.10098 0.0
C1155 C 0.507 0.09635 0.06933 0.0
C1156 C 0.50474 0.11322 0.08058 0.0
H1157 H 0.50168 0.18561 0.15489 0.0
H1158 H 0.50343 0.15642 0.13874 0.0
H1159 H 0.47919 0.14373 0.07933 0.0
H1160 H 0.50208 0.0765 0.02429 0.0
H1161 H 0.49904 0.10374 0.04255 0.0
C1162 C 0.07853 0.28216 0.31433 0.0
C1163 C 0.08007 0.29261 0.33184 0.0
C1164 C 0.09395 0.28007 0.30636 0.0
C1165 C 0.14382 0.30107 0.30968 0.0
H1166 H 0.14554 0.25463 0.28427 0.0
C1167 C 0.21171 0.28884 0.2907 0.0
C1168 C 0.21208 0.27623 0.27527 0.0
C1169 C 0.19543 0.29074 0.29657 0.0
C1170 C 0.1454 0.26784 0.29106 0.0
H1171 H 0.09957 0.3092 0.3543 0.0
H1172 H 0.12588 0.3058 0.34056 0.0
H1173 H 0.11791 0.25818 0.29555 0.0
H1174 H 0.1949 0.25576 0.25395 0.0
H1175 H 0.16668 0.25931 0.26378 0.0
H1176 H 0.17105 0.31092 0.30507 0.0
C1177 C 0.11286 0.29918 0.33281 0.0
C1178 C 0.12936 0.26987 0.29762 0.0
C1179 C 0.09757 0.30107 0.34082 0.0
C1180 C 0.19539 0.26564 0.26588 0.0
C1181 C 0.17904 0.26761 0.2717 0.0
C1182 C 0.15975 0.2991 0.30302 0.0
C1183 C 0.11147 0.28858 0.31546 0.0
C1184 C 0.12828 0.28649 0.30729 0.0
C1185 C 0.17865 0.28021 0.28723 0.0
C1186 C 0.16107 0.28239 0.29374 0.0
H1187 H 0.06541 0.2753 0.30693 0.0
H1188 H 0.09212 0.27187 0.29294 0.0
H1189 H 0.14368 0.31424 0.31664 0.0
H1190 H 0.2241 0.29722 0.29852 0.0
H1191 H 0.19614 0.30035 0.30878 0.0
C1192 C 0.93913 0.01285 0.19417 0.0
C1193 C 0.94931 0.02565 0.20903 0.0
C1194 C 0.94406 0.01281 0.17629 0.0
C1195 C 0.97047 0.04225 0.14666 0.0
H1196 H 0.96687 -0.00327 0.1158 0.0
C1197 C -0.00123 0.03918 0.07632 0.0
C1198 C -0.01061 0.02554 0.06181 0.0
C1199 C -0.00635 0.03948 0.09414 0.0
C1200 C 0.96773 0.00959 0.12409 0.0
H1201 H 0.97281 0.04835 0.21662 0.0
H1202 H 0.98142 0.04821 0.18551 0.0
H1203 H 0.95861 -0.0035 0.14697 0.0
H1204 H 0.96689 0.00176 0.05466 0.0
H1205 H 0.95776 0.00249 0.08549 0.0
H1206 H 0.97948 0.05535 0.12375 0.0
C1207 C 0.96951 0.03831 0.18764 0.0
C1208 C 0.96301 0.00944 0.14204 0.0
C1209 C 0.96463 0.0383 0.20554 0.0
C1210 C 0.97451 0.01243 0.06549 0.0
C1211 C 0.96935 0.01276 0.08327 0.0
C1212 C 0.97512 0.0424 0.12867 0.0
C1213 C 0.95926 0.02561 0.17274 0.0
C1214 C 0.96433 0.02577 0.15359 0.0
C1215 C 0.97895 0.02617 0.09793 0.0
C1216 C 0.97384 0.02607 0.1171 0.0
H1217 H 0.92723 0.00293 0.1963 0.0
H1218 H 0.93574 0.00294 0.16515 0.0
H1219 H 0.9714 0.05509 0.15503 0.0
H1220 H 0.01036 0.04945 0.07406 0.0
H1221 H 0.00153 0.0499 0.10505 0.0
C1222 C 0.26775 0.66763 0.47384 0.0
C1223 C 0.26006 0.64881 0.47164 0.0
C1224 C 0.26309 0.67799 0.46057 0.0
C1225 C 0.24344 0.67489 0.41206 0.0
H1226 H 0.23465 0.72126 0.42916 0.0
C1227 C 0.219 0.71784 0.36082 0.0
C1228 C 0.22869 0.73616 0.36334 0.0
C1229 C 0.22066 0.70707 0.37472 0.0
C1230 C 0.23713 0.70838 0.4242 0.0
H1231 H 0.24184 0.62602 0.45356 0.0
H1232 H 0.23368 0.64415 0.43041 0.0
H1233 H 0.24275 0.70246 0.45172 0.0
H1234 H 0.2471 0.75778 0.38264 0.0
H1235 H 0.24998 0.73898 0.40692 0.0
H1236 H 0.23805 0.68088 0.38456 0.0
C1237 C 0.24338 0.65086 0.44235 0.0
C1238 C 0.24182 0.69765 0.43709 0.0
C1239 C 0.24803 0.64048 0.45564 0.0
C1240 C 0.23931 0.74375 0.38039 0.0
C1241 C 0.24098 0.73298 0.39429 0.0
C1242 C 0.23874 0.68561 0.39918 0.0
C1243 C 0.25067 0.66975 0.44482 0.0
C1244 C 0.2452 0.68088 0.43114 0.0
C1245 C 0.23205 0.71441 0.39139 0.0
C1246 C 0.23569 0.70253 0.40512 0.0
H1247 H 0.27711 0.67445 0.486 0.0
H1248 H 0.26919 0.69248 0.46267 0.0
H1249 H 0.24616 0.66213 0.40707 0.0
H1250 H 0.21049 0.71172 0.34791 0.0
H1251 H 0.21336 0.69288 0.37225 0.0
C1252 C 0.58895 0.98316 0.6828 0.0
C1253 C 0.58567 -0.01113 0.70069 0.0
C1254 C 0.57609 0.98148 0.66751 0.0
C1255 C 0.54389 0.97381 0.63762 0.0
H1256 H 0.52975 0.01875 0.63525 0.0
C1257 C 0.50685 -0.01051 0.57114 0.0
C1258 C 0.51611 0.00579 0.56564 0.0
C1259 C 0.5112 0.98549 0.58893 0.0
C1260 C 0.5334 0.00603 0.63582 0.0
H1261 H 0.56596 -0.00368 0.71675 0.0
H1262 H 0.54355 -0.00635 0.68989 0.0
H1263 H 0.54476 0.01349 0.66431 0.0
H1264 H 0.53662 0.03097 0.57459 0.0
H1265 H 0.54401 0.02408 0.60565 0.0
H1266 H 0.53327 0.96676 0.60884 0.0
C1267 C 0.55609 -0.00954 0.68777 0.0
C1268 C 0.54184 0.00295 0.65246 0.0
C1269 C 0.56889 -0.00807 0.70311 0.0
C1270 C 0.52931 0.01827 0.57841 0.0
C1271 C 0.53344 0.0144 0.59624 0.0
C1272 C 0.53526 0.9768 0.62102 0.0
C1273 C 0.55976 0.98565 0.6698 0.0
C1274 C 0.54772 -0.01291 0.65334 0.0
C1275 C 0.52462 -0.00213 0.60158 0.0
C1276 C 0.53052 -0.00677 0.61983 0.0
H1277 H 0.60172 0.98059 0.68052 0.0
H1278 H 0.57935 0.97792 0.65379 0.0
H1279 H 0.54822 0.96143 0.63799 0.0
H1280 H 0.49663 0.97961 0.56153 0.0
H1281 H 0.50423 0.97265 0.59276 0.0
C1282 C 0.29019 0.34153 0.96695 0.0
C1283 C 0.27502 0.34416 0.97468 0.0
C1284 C 0.28869 0.33324 0.94864 0.0
C1285 C 0.25859 0.32313 0.90379 0.0
H1286 H 0.28947 0.29259 0.88961 0.0
C1287 C 0.25042 0.28526 0.82934 0.0
C1288 C 0.26603 0.28509 0.82122 0.0
C1289 C 0.25138 0.29158 0.84819 0.0
C1290 C 0.28086 0.30123 0.89329 0.0
H1291 H 0.24623 0.33959 0.96917 0.0
H1292 H 0.24354 0.32481 0.93729 0.0
H1293 H 0.29089 0.30455 0.92216 0.0
H1294 H 0.29496 0.29127 0.82686 0.0
H1295 H 0.29665 0.30231 0.85982 0.0
H1296 H 0.24855 0.31977 0.87492 0.0
C1297 C 0.2567 0.32948 0.94533 0.0
C1298 C 0.28167 0.30811 0.91201 0.0
C1299 C 0.25821 0.33784 0.96369 0.0
C1300 C 0.28266 0.29115 0.8326 0.0
C1301 C 0.28361 0.29742 0.85154 0.0
C1302 C 0.25774 0.31618 0.8851 0.0
C1303 C 0.27196 0.32725 0.93745 0.0
C1304 C 0.2706 0.31925 0.91755 0.0
C1305 C 0.26798 0.29789 0.85955 0.0
C1306 C 0.2689 0.30518 0.87956 0.0
H1307 H 0.30339 0.34625 0.97492 0.0
H1308 H 0.3008 0.33203 0.9431 0.0
H1309 H 0.2501 0.3319 0.90738 0.0
H1310 H 0.23734 0.28068 0.82111 0.0
H1311 H 0.23905 0.29144 0.85388 0.0
C1312 C 0.95132 0.0234 0.31595 0.0
C1313 C 0.9506 0.00849 0.30258 0.0
C1314 C 0.95857 0.02394 0.33441 0.0
C1315 C 0.98737 0.00399 0.36524 0.0
H1316 H 0.96046 0.01933 0.40282 0.0
C1317 C 0.00393 -0.0012 0.44406 0.0
C1318 C 0.00169 0.01298 0.45675 0.0
C1319 C -0.00158 -0.00218 0.42496 0.0
C1320 C 0.96832 0.01523 0.39257 0.0
H1321 H 0.95759 0.98277 0.29813 0.0
H1322 H 0.97025 0.98378 0.33025 0.0
H1323 H 0.9502 0.01916 0.37031 0.0
H1324 H -0.00735 0.03772 0.45905 0.0
H1325 H 0.98355 0.0362 0.42623 0.0
H1326 H 0.0056 0.00019 0.38764 0.0
C1327 C 0.96524 -0.00493 0.32647 0.0
C1328 C 0.9624 0.01514 0.37386 0.0
C1329 C 0.95789 -0.00553 0.30803 0.0
C1330 C -0.00569 0.02637 0.44982 0.0
C1331 C -0.01103 0.02546 0.43088 0.0
C1332 C -0.00661 0.00418 0.38405 0.0
C1333 C 0.96538 0.00965 0.33998 0.0
C1334 C 0.97189 0.00965 0.35993 0.0
C1335 C -0.00935 0.01105 0.41815 0.0
C1336 C 0.98402 0.00997 0.398 0.0
H1337 H 0.94588 0.03446 0.31229 0.0
H1338 H 0.95871 0.03553 0.34438 0.0
H1339 H -0.00494 -0.00024 0.35488 0.0
H1340 H 0.00959 -0.01171 0.4489 0.0
H1341 H -0.00011 0.98648 0.4156 0.0
C1342 C 0.28859 0.67258 0.58139 0.0
C1343 C 0.27783 0.67579 0.56615 0.0
C1344 C 0.29085 0.68335 0.59855 0.0
C1345 C 0.28523 0.72651 0.62203 0.0
H1346 H 0.27793 0.69941 0.66348 0.0
C1347 C 0.26798 0.75592 0.69204 0.0
C1348 C 0.27483 0.75024 0.70821 0.0
C1349 C 0.27086 0.74854 0.67464 0.0
C1350 C 0.28033 0.70726 0.65216 0.0
H1351 H 0.26165 0.69331 0.55675 0.0
H1352 H 0.26546 0.71198 0.58678 0.0
H1353 H 0.27881 0.68355 0.63316 0.0
H1354 H 0.29097 0.73323 0.71894 0.0
H1355 H 0.29625 0.72068 0.68872 0.0
H1356 H 0.28646 0.75022 0.6411 0.0
C1357 C 0.27225 0.70123 0.58542 0.0
C1358 C 0.28083 0.69815 0.63476 0.0
C1359 C 0.26998 0.69045 0.56824 0.0
C1360 C 0.28529 0.7377 0.70672 0.0
C1361 C 0.28826 0.73044 0.68939 0.0
C1362 C 0.28479 0.73567 0.63951 0.0
C1363 C 0.28242 0.69755 0.60083 0.0
C1364 C 0.28314 0.70763 0.61948 0.0
C1365 C 0.28073 0.73544 0.67313 0.0
C1366 C 0.2822 0.7261 0.65473 0.0
H1367 H 0.29494 0.66148 0.58019 0.0
H1368 H 0.29898 0.68037 0.61014 0.0
H1369 H 0.28719 0.73418 0.61052 0.0
H1370 H 0.25988 0.76557 0.69275 0.0
H1371 H 0.26475 0.75256 0.66237 0.0
C1372 C 0.61382 0.05017 0.78122 0.0
C1373 C 0.61918 0.03398 0.77824 0.0
C1374 C 0.60794 0.05513 0.79795 0.0
C1375 C 0.60865 0.04621 0.84649 0.0
H1376 H 0.56372 0.05991 0.8438 0.0
C1377 C 0.5643 0.03868 0.90427 0.0
C1378 C 0.55502 0.05188 0.90845 0.0
C1379 C 0.57415 0.03941 0.88941 0.0
C1380 C 0.57645 0.05646 0.84484 0.0
H1381 H 0.62293 0.01046 0.79055 0.0
H1382 H 0.61257 0.01904 0.8196 0.0
H1383 H 0.57748 0.05595 0.81572 0.0
H1384 H 0.54915 0.07649 0.90062 0.0
H1385 H 0.56638 0.07774 0.87448 0.0
H1386 H 0.60742 0.04628 0.87553 0.0
C1387 C 0.61307 0.028 0.80912 0.0
C1388 C 0.58432 0.05418 0.82876 0.0
C1389 C 0.61886 0.02301 0.7924 0.0
C1390 C 0.556 0.066 0.89758 0.0
C1391 C 0.56587 0.06673 0.88266 0.0
C1392 C 0.60081 0.04852 0.86257 0.0
C1393 C 0.60743 0.04404 0.81202 0.0
C1394 C 0.60027 0.0486 0.82936 0.0
C1395 C 0.57494 0.05336 0.87836 0.0
C1396 C 0.58441 0.05323 0.86183 0.0
H1397 H 0.61399 0.05895 0.77059 0.0
H1398 H 0.60379 0.06763 0.79987 0.0
H1399 H 0.62113 0.04223 0.84741 0.0
H1400 H 0.56354 0.02743 0.91217 0.0
H1401 H 0.58068 0.02869 0.88622 0.0
C1402 C 0.26502 0.35535 0.08528 0.0
C1403 C 0.26038 0.3426 0.06903 0.0
C1404 C 0.26479 0.34966 0.10286 0.0
C1405 C 0.26657 0.30972 0.12672 0.0
H1406 H 0.24798 0.33459 0.16609 0.0
C1407 C 0.2552 0.27948 0.19444 0.0
C1408 C 0.25893 0.2912 0.21137 0.0
C1409 C 0.25515 0.28632 0.17751 0.0
C1410 C 0.25344 0.3276 0.15535 0.0
H1411 H 0.25171 0.3138 0.05871 0.0
H1412 H 0.2513 0.30394 0.08921 0.0
H1413 H 0.24849 0.34543 0.13594 0.0
H1414 H 0.26527 0.31945 0.22358 0.0
H1415 H 0.26548 0.33147 0.19397 0.0
H1416 H 0.27173 0.29202 0.14601 0.0
C1417 C 0.2553 0.31836 0.08841 0.0
C1418 C 0.25371 0.33382 0.13801 0.0
C1419 C 0.25545 0.32403 0.07086 0.0
C1420 C 0.26229 0.31001 0.21084 0.0
C1421 C 0.26235 0.31689 0.19381 0.0
C1422 C 0.26639 0.30357 0.14403 0.0
C1423 C 0.26002 0.33107 0.10468 0.0
C1424 C 0.26013 0.32486 0.12339 0.0
C1425 C 0.25897 0.30514 0.17687 0.0
C1426 C 0.25966 0.31227 0.15859 0.0
H1427 H 0.26889 0.36976 0.08444 0.0
H1428 H 0.26866 0.35985 0.11504 0.0
H1429 H 0.27198 0.30268 0.11597 0.0
H1430 H 0.25236 0.26491 0.19422 0.0
H1431 H 0.25203 0.27675 0.16485 0.0
C1432 C 0.19562 0.92255 0.98536 0.0
C1433 C 0.21414 0.92938 -0.00931 0.0
C1434 C 0.18392 0.93296 -0.00979 0.0
C1435 C 0.18156 0.97966 0.00498 0.0
H1436 H 0.13982 0.95587 0.02611 0.0
C1437 C 0.13562 0.01922 0.03846 0.0
C1438 C 0.11715 0.01127 0.03413 0.0
C1439 C 0.14785 0.00945 0.03352 0.0
C1440 C 0.15132 0.96267 0.02007 0.0
H1441 H 0.23499 0.95267 0.00475 0.0
H1442 H 0.21455 0.97079 0.01318 0.0
H1443 H 0.16017 0.93842 0.01569 0.0
H1444 H 0.09699 -0.01291 0.02086 0.0
H1445 H 0.11823 0.97015 0.01225 0.0
H1446 H 0.17262 0.0039 0.00924 0.0
C1447 C 0.20909 0.95743 0.00523 0.0
C1448 C 0.16294 0.95267 0.01408 0.0
C1449 C 0.22077 0.947 0.00048 0.0
C1450 C 0.11114 -0.00657 0.02479 0.0
C1451 C 0.12332 0.98372 0.01983 0.0
C1452 C 0.16988 -0.01033 0.01091 0.0
C1453 C 0.19055 0.95042 0.00036 0.0
C1454 C 0.17813 0.96105 0.00643 0.0
C1455 C 0.1418 -0.00839 0.02411 0.0
C1456 C 0.1546 0.98125 0.01846 0.0
H1457 H 0.19011 0.90904 0.97777 0.0
H1458 H 0.16968 0.92733 0.98608 0.0
H1459 H 0.19311 0.98642 -0.00101 0.0
H1460 H 0.14059 0.03292 0.04572 0.0
H1461 H 0.16203 0.01581 0.03718 0.0
C1462 C 0.7022 0.62169 -0.00966 0.0
C1463 C 0.70487 0.63953 -0.00066 0.0
C1464 C 0.68606 0.60858 -0.00963 0.0
C1465 C 0.64821 0.59858 0.01742 0.0
H1466 H 0.62195 0.56658 0.97338 0.0
C1467 C 0.57416 0.56349 0.01388 0.0
C1468 C 0.56748 0.54524 0.00574 0.0
C1469 C 0.59159 0.57307 0.01264 0.0
C1470 C 0.62927 0.57522 0.98586 0.0
H1471 H 0.69239 0.65761 0.015 0.0
H1472 H 0.6645 0.63493 0.01503 0.0
H1473 H 0.65125 0.58708 0.97181 0.0
H1474 H 0.57405 0.5229 -0.01043 0.0
H1475 H 0.60482 0.53984 0.98739 0.0
H1476 H 0.62634 0.58705 0.03147 0.0
C1477 C 0.67491 0.63095 0.00814 0.0
C1478 C 0.64603 0.58698 0.98495 0.0
C1479 C 0.69091 0.64401 0.00802 0.0
C1480 C 0.57876 0.5369 -0.00394 0.0
C1481 C 0.59634 0.54661 -0.00526 0.0
C1482 C 0.63159 0.58687 0.01834 0.0
C1483 C 0.67234 0.61301 -0.00045 0.0
C1484 C 0.65546 0.59914 0.00063 0.0
C1485 C 0.60299 0.56478 0.00322 0.0
C1486 C 0.62167 0.57539 0.00248 0.0
H1487 H 0.71267 0.61778 0.9835 0.0
H1488 H 0.68449 0.59487 0.98365 0.0
H1489 H 0.65532 0.60743 0.02987 0.0
H1490 H 0.56594 0.57052 0.02135 0.0
H1491 H 0.59609 0.58714 0.01899 0.0
C1492 C 0.6286 0.45964 0.28593 0.0
C1493 C 0.63228 0.47473 0.27631 0.0
C1494 C 0.63897 0.44708 0.28506 0.0
C1495 C 0.67027 0.42994 0.25753 0.0
H1496 H 0.68498 0.41328 0.30328 0.0
C1497 C 0.72248 0.38734 0.26263 0.0
C1498 C 0.71994 0.3737 0.27418 0.0
C1499 C 0.71155 0.39942 0.26237 0.0
C1500 C 0.6808 0.41756 0.2903 0.0
H1501 H 0.64961 0.4882 0.25791 0.0
H1502 H 0.66771 0.46625 0.2564 0.0
H1503 H 0.66628 0.43453 0.3036 0.0
H1504 H 0.70352 0.36169 0.29402 0.0
H1505 H 0.68435 0.3825 0.29338 0.0
H1506 H 0.68471 0.41287 0.2442 0.0
C1507 C 0.65673 0.46411 0.26456 0.0
C1508 C 0.67008 0.42979 0.29051 0.0
C1509 C 0.6464 0.47675 0.2655 0.0
C1510 C 0.70604 0.37224 0.28521 0.0
C1511 C 0.69506 0.38423 0.28486 0.0
C1512 C 0.68094 0.41761 0.2573 0.0
C1513 C 0.65325 0.44922 0.27448 0.0
C1514 C 0.66465 0.43614 0.27413 0.0
C1515 C 0.69774 0.39809 0.27356 0.0
C1516 C 0.68635 0.41123 0.27369 0.0
H1517 H 0.6178 0.4576 0.29434 0.0
H1518 H 0.63575 0.43563 0.29265 0.0
H1519 H 0.66617 0.43439 0.24463 0.0
H1520 H 0.73319 0.38895 0.25411 0.0
H1521 H 0.71421 0.41005 0.25368 0.0
C1522 C 0.81981 0.44806 0.52382 0.0
C1523 C 0.80932 0.44576 0.50649 0.0
C1524 C 0.83799 0.45697 0.52611 0.0
C1525 C 0.87277 0.48841 0.50752 0.0
H1526 H 0.90372 0.45902 0.5244 0.0
C1527 C 0.94804 0.50607 0.50046 0.0
C1528 C 0.95981 0.50155 0.51389 0.0
C1529 C 0.92957 0.50069 0.50073 0.0
C1530 C 0.89537 0.46764 0.52005 0.0
H1531 H 0.80932 0.45187 0.47827 0.0
H1532 H 0.8411 0.4678 0.48243 0.0
H1533 H 0.87152 0.44805 0.52344 0.0
H1534 H 0.96166 0.48856 0.53858 0.0
H1535 H 0.92957 0.47983 0.53956 0.0
H1536 H 0.89656 0.50818 0.50441 0.0
C1537 C 0.83524 0.46255 0.49415 0.0
C1538 C 0.8769 0.46127 0.51943 0.0
C1539 C 0.81711 0.45337 0.49176 0.0
C1540 C 0.95285 0.49198 0.52788 0.0
C1541 C 0.93443 0.4869 0.52837 0.0
C1542 C 0.89131 0.49496 0.50845 0.0
C1543 C 0.84589 0.464 0.5112 0.0
C1544 C 0.86545 0.47151 0.51299 0.0
C1545 C 0.92252 0.49096 0.51465 0.0
C1546 C 0.90284 0.48455 0.51453 0.0
H1547 H 0.81419 0.44233 0.53543 0.0
H1548 H 0.84596 0.45804 0.53941 0.0
H1549 H 0.86416 0.49656 0.50259 0.0
H1550 H 0.95306 0.51339 0.48947 0.0
H1551 H 0.92085 0.5038 0.48975 0.0
C1552 C 0.34181 0.06895 0.26169 0.0
C1553 C 0.3594 0.07049 0.25784 0.0
C1554 C 0.33156 0.07959 0.25397 0.0
C1555 C 0.33456 0.12151 0.23318 0.0
H1556 H 0.28454 0.09881 0.21493 0.0
C1557 C 0.2878 0.16235 0.20346 0.0
C1558 C 0.27206 0.16052 0.21181 0.0
C1559 C 0.29831 0.15007 0.20547 0.0
C1560 C 0.29849 0.10532 0.21995 0.0
H1561 H 0.38021 0.08476 0.24325 0.0
H1562 H 0.36226 0.10337 0.22978 0.0
H1563 H 0.30374 0.08045 0.22647 0.0
H1564 H 0.25473 0.1438 0.22813 0.0
H1565 H 0.27275 0.12235 0.23121 0.0
H1566 H 0.32918 0.14647 0.22705 0.0
C1567 C 0.35643 0.09394 0.2388 0.0
C1568 C 0.30946 0.09484 0.22663 0.0
C1569 C 0.3667 0.08325 0.2465 0.0
C1570 C 0.26654 0.1455 0.22119 0.0
C1571 C 0.27694 0.13319 0.22305 0.0
C1572 C 0.32358 0.132 0.22648 0.0
C1573 C 0.33867 0.09202 0.24225 0.0
C1574 C 0.3275 0.1029 0.23371 0.0
C1575 C 0.29319 0.13564 0.21568 0.0
C1576 C 0.30534 0.12408 0.22018 0.0
H1577 H 0.3358 0.05929 0.27042 0.0
H1578 H 0.31804 0.07807 0.2572 0.0
H1579 H 0.34838 0.12812 0.23866 0.0
H1580 H 0.2923 0.17359 0.19588 0.0
H1581 H 0.31067 0.15213 0.19942 0.0
C1582 C 0.30074 0.12712 0.52908 0.0
C1583 C 0.29707 0.13663 0.51442 0.0
C1584 C 0.31372 0.1173 0.52862 0.0
C1585 C 0.35339 0.11252 0.50631 0.0
H1586 H 0.34347 0.06568 0.52389 0.0
C1587 C 0.3997 0.06363 0.49854 0.0
C1588 C 0.40223 0.0538 0.51327 0.0
C1589 C 0.38714 0.07402 0.4984 0.0
C1590 C 0.34659 0.07883 0.51913 0.0
H1591 H 0.30436 0.14332 0.48777 0.0
H1592 H 0.32693 0.12605 0.48689 0.0
H1593 H 0.3212 0.08314 0.52409 0.0
H1594 H 0.39393 0.04779 0.53974 0.0
H1595 H 0.3722 0.0659 0.53956 0.0
H1596 H 0.37884 0.10818 0.5014 0.0
C1597 C 0.31987 0.12635 0.49886 0.0
C1598 C 0.33378 0.08886 0.51924 0.0
C1599 C 0.30685 0.13618 0.49932 0.0
C1600 C 0.3921 0.05488 0.52799 0.0
C1601 C 0.37959 0.06527 0.52787 0.0
C1602 C 0.36625 0.10248 0.50623 0.0
C1603 C 0.32341 0.11669 0.51347 0.0
C1604 C 0.33702 0.10589 0.51294 0.0
C1605 C 0.37682 0.07488 0.51301 0.0
C1606 C 0.36306 0.08553 0.51274 0.0
H1607 H 0.29357 0.12722 0.54099 0.0
H1608 H 0.31627 0.1103 0.54026 0.0
H1609 H 0.35645 0.12567 0.50155 0.0
H1610 H 0.40714 0.06297 0.48688 0.0
H1611 H 0.38525 0.08106 0.48662 0.0
C1612 C 0.66027 0.58013 0.27813 0.0
C1613 C 0.64208 0.57853 0.2722 0.0
C1614 C 0.67322 0.59634 0.27768 0.0
C1615 C 0.68064 0.63703 0.25412 0.0
H1616 H 0.71728 0.65963 0.29576 0.0
C1617 C 0.71787 0.71171 0.26084 0.0
C1618 C 0.73643 0.71717 0.26669 0.0
C1619 C 0.70803 0.69409 0.26165 0.0
C1620 C 0.70732 0.65334 0.28391 0.0
H1621 H 0.62326 0.59285 0.26139 0.0
H1622 H 0.64573 0.62093 0.26058 0.0
H1623 H 0.69683 0.62999 0.29698 0.0
H1624 H 0.75909 0.70832 0.27842 0.0
H1625 H 0.7417 0.67721 0.27979 0.0
H1626 H 0.69086 0.66026 0.24108 0.0
C1627 C 0.65004 0.60964 0.26542 0.0
C1628 C 0.69559 0.6364 0.28462 0.0
C1629 C 0.63713 0.59355 0.266 0.0
C1630 C 0.74484 0.70455 0.27375 0.0
C1631 C 0.73488 0.68677 0.27459 0.0
C1632 C 0.69234 0.65384 0.25339 0.0
C1633 C 0.66825 0.6112 0.27111 0.0
C1634 C 0.68185 0.62829 0.2699 0.0
C1635 C 0.71638 0.68131 0.26829 0.0
C1636 C 0.70552 0.66244 0.26845 0.0
H1637 H 0.66453 0.56883 0.28302 0.0
H1638 H 0.68715 0.59711 0.28209 0.0
H1639 H 0.67049 0.63095 0.24237 0.0
H1640 H 0.71079 0.72103 0.25555 0.0
H1641 H 0.69374 0.69051 0.25712 0.0
C1642 C 0.81508 0.46179 0.7501 0.0
C1643 C 0.82832 0.46864 0.76551 0.0
C1644 C 0.80412 0.44415 0.74842 0.0
C1645 C 0.7895 0.4056 0.77442 0.0
H1646 H 0.78792 0.37598 0.72748 0.0
C1647 C 0.75874 0.32825 0.76295 0.0
C1648 C 0.76942 0.31799 0.75484 0.0
C1649 C 0.76268 0.34699 0.76293 0.0
C1650 C 0.7882 0.3841 0.74064 0.0
H1651 H 0.83985 0.46278 0.79169 0.0
H1652 H 0.82088 0.43206 0.78867 0.0
H1653 H 0.80027 0.40877 0.7307 0.0
H1654 H 0.79233 0.31929 0.73996 0.0
H1655 H 0.79935 0.35203 0.74019 0.0
H1656 H 0.77829 0.38084 0.78465 0.0
C1657 C 0.81885 0.4403 0.77794 0.0
C1658 C 0.79506 0.40288 0.74242 0.0
C1659 C 0.82984 0.45786 0.77959 0.0
C1660 C 0.78389 0.32681 0.7464 0.0
C1661 C 0.7878 0.34554 0.74637 0.0
C1662 C 0.78262 0.38682 0.77264 0.0
C1663 C 0.80614 0.43313 0.76217 0.0
C1664 C 0.79624 0.41375 0.75949 0.0
C1665 C 0.77733 0.35584 0.75476 0.0
C1666 C 0.78237 0.37585 0.75588 0.0
H1667 H 0.81353 0.46983 0.73908 0.0
H1668 H 0.7943 0.43901 0.7362 0.0
H1669 H 0.79007 0.41369 0.78768 0.0
H1670 H 0.74741 0.32185 0.76946 0.0
H1671 H 0.75428 0.35458 0.76936 0.0
C1672 C 0.04552 0.85585 0.09374 0.0
C1673 C 0.03742 0.83799 0.0849 0.0
C1674 C 0.04304 0.87112 0.08585 0.0
C1675 C 0.02632 0.88686 0.04163 0.0
H1676 H 0.02685 0.92952 0.07563 0.0
C1677 C 0.00842 0.95189 0.01675 0.0
C1678 C 0.01791 0.96912 0.02632 0.0
C1679 C 0.01066 0.93568 0.02306 0.0
C1680 C 0.02686 0.91788 0.06581 0.0
H1681 H 0.02036 0.82261 0.06023 0.0
H1682 H 0.01576 0.84925 0.04649 0.0
H1683 H 0.03055 0.90223 0.08766 0.0
H1684 H 0.03749 0.98231 0.05018 0.0
H1685 H 0.04135 0.95441 0.06104 0.0
H1686 H 0.0223 0.90266 0.01976 0.0
C1687 C 0.02432 0.85146 0.0596 0.0
C1688 C 0.02905 0.90202 0.07278 0.0
C1689 C 0.02692 0.83605 0.06752 0.0
C1690 C 0.02983 0.96947 0.04234 0.0
C1691 C 0.03197 0.95331 0.0487 0.0
C1692 C 0.02401 0.90276 0.03463 0.0
C1693 C 0.03216 0.86937 0.06874 0.0
C1694 C 0.02906 0.88618 0.0609 0.0
C1695 C 0.02236 0.93604 0.03929 0.0
C1696 C 0.02441 0.91869 0.0466 0.0
H1697 H 0.05386 0.85814 0.10702 0.0
H1698 H 0.04986 0.88441 0.09328 0.0
H1699 H 0.02636 0.87522 0.03184 0.0
H1700 H -0.00091 0.95088 0.0044 0.0
H1701 H 0.00286 0.92282 0.01539 0.0
C1702 C 0.92709 0.24663 0.86972 0.0
C1703 C 0.92901 0.25398 0.88854 0.0
C1704 C 0.91183 0.2465 0.85742 0.0
C1705 C 0.8647 0.25119 0.85655 0.0
H1706 H 0.8695 0.261 0.80631 0.0
C1707 C 0.80641 0.26564 0.80899 0.0
C1708 C 0.80382 0.25894 0.78994 0.0
C1709 C 0.82154 0.26456 0.82069 0.0
C1710 C 0.8678 0.25802 0.82022 0.0
H1711 H 0.91606 0.2669 0.90898 0.0
H1712 H 0.88987 0.26681 0.88778 0.0
H1713 H 0.89573 0.25957 0.82691 0.0
H1714 H 0.81546 0.24579 0.76844 0.0
H1715 H 0.84164 0.24381 0.78874 0.0
H1716 H 0.83683 0.2497 0.84993 0.0
C1717 C 0.89995 0.26087 0.88243 0.0
C1718 C 0.88294 0.25717 0.83209 0.0
C1719 C 0.91514 0.26102 0.89466 0.0
C1720 C 0.81691 0.25116 0.78298 0.0
C1721 C 0.83207 0.25012 0.79467 0.0
C1722 C 0.8496 0.25205 0.8447 0.0
C1723 C 0.89799 0.25366 0.86357 0.0
C1724 C 0.88169 0.25386 0.85053 0.0
C1725 C 0.83466 0.25678 0.81375 0.0
C1726 C 0.85087 0.25558 0.82634 0.0
H1727 H 0.93745 0.2411 0.86444 0.0
H1728 H 0.91084 0.24064 0.84308 0.0
H1729 H 0.86298 0.24824 0.87046 0.0
H1730 H 0.79671 0.27175 0.81495 0.0
H1731 H 0.82305 0.27009 0.83519 0.0
C1732 C 0.54793 0.22082 0.56758 0.0
C1733 C 0.53458 0.22815 0.57461 0.0
C1734 C 0.54472 0.20218 0.56129 0.0
C1735 C 0.51501 0.15677 0.56517 0.0
H1736 H 0.53649 0.14071 0.52313 0.0
C1737 C 0.50128 0.07976 0.53585 0.0
C1738 C 0.51504 0.07346 0.52842 0.0
C1739 C 0.50311 0.09844 0.54107 0.0
C1740 C 0.53056 0.14483 0.53507 0.0
H1741 H 0.50714 0.22115 0.58027 0.0
H1742 H 0.50146 0.18856 0.56926 0.0
H1743 H 0.54021 0.17301 0.53247 0.0
H1744 H 0.54168 0.08233 0.52086 0.0
H1745 H 0.54503 0.11465 0.53022 0.0
H1746 H 0.50554 0.12859 0.56793 0.0
C1747 C 0.51456 0.19735 0.56872 0.0
C1748 C 0.53267 0.16352 0.54044 0.0
C1749 C 0.51775 0.21613 0.57491 0.0
C1750 C 0.53072 0.08652 0.52643 0.0
C1751 C 0.53259 0.10521 0.53172 0.0
C1752 C 0.51296 0.13805 0.55985 0.0
C1753 C 0.52804 0.19002 0.56187 0.0
C1754 C 0.52503 0.16988 0.55566 0.0
C1755 C 0.5188 0.11157 0.53913 0.0
C1756 C 0.52078 0.13169 0.54474 0.0
H1757 H 0.5611 0.2295 0.56713 0.0
H1758 H 0.55558 0.19724 0.55642 0.0
H1759 H 0.5091 0.16098 0.5771 0.0
H1760 H 0.48892 0.07026 0.53751 0.0
H1761 H 0.49201 0.10256 0.54637 0.0
C1762 C 0.53367 0.75361 0.37393 0.0
C1763 C 0.53491 0.76747 0.38871 0.0
C1764 C 0.54765 0.75422 0.36305 0.0
C1765 C 0.58741 0.78617 0.34997 0.0
H1766 H 0.60247 0.74264 0.33549 0.0
C1767 C 0.65274 0.78973 0.31732 0.0
C1768 C 0.6532 0.77577 0.30331 0.0
C1769 C 0.63817 0.78827 0.32738 0.0
C1770 C 0.59834 0.75492 0.33917 0.0
H1771 H 0.55199 0.7929 0.40342 0.0
H1772 H 0.57613 0.79396 0.38457 0.0
H1773 H 0.57726 0.74094 0.35312 0.0
H1774 H 0.63841 0.74922 0.28907 0.0
H1775 H 0.61296 0.74673 0.30645 0.0
H1776 H 0.60831 0.80017 0.33597 0.0
C1777 C 0.56433 0.78265 0.38124 0.0
C1778 C 0.58382 0.75393 0.34933 0.0
C1779 C 0.55046 0.78198 0.39217 0.0
C1780 C 0.63868 0.76018 0.29986 0.0
C1781 C 0.62404 0.75875 0.30989 0.0
C1782 C 0.60184 0.78715 0.33975 0.0
C1783 C 0.56319 0.76878 0.36653 0.0
C1784 C 0.57823 0.76958 0.35503 0.0
C1785 C 0.62347 0.77283 0.32375 0.0
C1786 C 0.60768 0.77158 0.3343 0.0
H1787 H 0.52194 0.74221 0.37083 0.0
H1788 H 0.54618 0.74336 0.35176 0.0
H1789 H 0.58334 0.79847 0.35376 0.0
H1790 H 0.66378 0.8018 0.32068 0.0
H1791 H 0.63856 0.79925 0.33819 0.0
C1792 C 0.01866 0.25361 0.40955 0.0
C1793 C 0.0204 0.25247 0.39054 0.0
C1794 C 0.0172 0.23836 0.41879 0.0
C1795 C 0.0256 0.19227 0.41567 0.0
H1796 H -0.0058 0.18605 0.45357 0.0
C1797 C 0.01146 0.12754 0.45286 0.0
C1798 C 0.00987 0.12995 0.47191 0.0
C1799 C 0.01268 0.14205 0.44244 0.0
C1800 C 0.00322 0.18763 0.44319 0.0
H1801 H 0.02197 0.23411 0.36642 0.0
H1802 H 0.01928 0.20743 0.38251 0.0
H1803 H -0.00375 0.2117 0.43637 0.0
H1804 H 0.00896 0.15 0.4949 0.0
H1805 H 0.01103 0.17505 0.47688 0.0
H1806 H 0.03255 0.16813 0.42257 0.0
C1807 C 0.01923 0.22024 0.39034 0.0
C1808 C 0.0044 0.20242 0.43327 0.0
C1809 C 0.02068 0.23556 0.38105 0.0
C1810 C 0.00976 0.14739 0.48022 0.0
C1811 C 0.01095 0.16185 0.46983 0.0
C1812 C 0.02441 0.17743 0.42561 0.0
C1813 C 0.0174 0.22139 0.40937 0.0
C1814 C 0.01572 0.2051 0.41945 0.0
C1815 C 0.01233 0.15943 0.45074 0.0
C1816 C 0.0133 0.17495 0.43965 0.0
H1817 H 0.01847 0.26637 0.41741 0.0
H1818 H 0.01614 0.23998 0.43347 0.0
H1819 H 0.03463 0.19391 0.40531 0.0
H1820 H 0.01139 0.11433 0.44584 0.0
H1821 H 0.01353 0.13952 0.42776 0.0
C1822 C 0.56464 0.25927 0.20141 0.0
C1823 C 0.55312 0.24159 0.19816 0.0
C1824 C 0.58322 0.26222 0.20719 0.0
C1825 C 0.61966 0.2372 0.2087 0.0
H1826 H 0.6474 0.27969 0.24213 0.0
C1827 C 0.69369 0.24326 0.23976 0.0
C1828 C 0.70612 0.26044 0.24283 0.0
C1829 C 0.67527 0.24138 0.23444 0.0
C1830 C 0.63999 0.2678 0.2326 0.0
H1831 H 0.55253 0.21328 0.19917 0.0
H1832 H 0.58422 0.21837 0.20938 0.0
H1833 H 0.61548 0.27609 0.23291 0.0
H1834 H 0.70829 0.28917 0.24254 0.0
H1835 H 0.67655 0.28588 0.23318 0.0
H1836 H 0.64406 0.22889 0.20832 0.0
C1837 C 0.5792 0.23004 0.20708 0.0
C1838 C 0.62152 0.26572 0.22727 0.0
C1839 C 0.56078 0.22711 0.20132 0.0
C1840 C 0.69935 0.27566 0.24038 0.0
C1841 C 0.68094 0.27378 0.2351 0.0
C1842 C 0.63807 0.23926 0.21402 0.0
C1843 C 0.59091 0.24759 0.20988 0.0
C1844 C 0.61092 0.2503 0.2153 0.0
C1845 C 0.66848 0.2566 0.23199 0.0
C1846 C 0.64864 0.25455 0.22617 0.0
H1847 H 0.55939 0.2708 0.19906 0.0
H1848 H 0.59162 0.27597 0.20906 0.0
H1849 H 0.61231 0.22531 0.19912 0.0
H1850 H 0.69814 0.23116 0.24153 0.0
H1851 H 0.66629 0.2279 0.23252 0.0
C1852 C 0.51355 0.83598 0.9074 0.0
C1853 C 0.52175 0.83536 0.89114 0.0
C1854 C 0.5143 0.85258 0.91807 0.0
C1855 C 0.52121 0.90202 0.9159 0.0
H1856 H 0.52718 0.90566 0.96948 0.0
C1857 C 0.52696 0.97027 0.96352 0.0
C1858 C 0.51945 0.96945 0.98021 0.0
C1859 C 0.52797 0.95436 0.95255 0.0
C1860 C 0.52523 0.90491 0.95454 0.0
H1861 H 0.53726 0.85205 0.87353 0.0
H1862 H 0.53852 0.8811 0.89216 0.0
H1863 H 0.52781 0.87758 0.95084 0.0
H1864 H 0.5069 0.95092 -0.00186 0.0
H1865 H 0.50827 0.9234 0.97901 0.0
H1866 H 0.51834 0.92927 0.91959 0.0
C1867 C 0.53143 0.86863 0.89659 0.0
C1868 C 0.52566 0.88872 0.94379 0.0
C1869 C 0.53082 0.85194 0.88595 0.0
C1870 C 0.51289 0.95222 0.98549 0.0
C1871 C 0.51381 0.93633 0.9745 0.0
C1872 C 0.52067 0.91823 0.92667 0.0
C1873 C 0.52317 0.86921 0.91284 0.0
C1874 C 0.52353 0.88692 0.92428 0.0
C1875 C 0.52144 0.93708 0.95785 0.0
C1876 C 0.52253 0.91993 0.94621 0.0
H1877 H 0.50639 0.82358 0.9119 0.0
H1878 H 0.50755 0.85236 0.93029 0.0
H1879 H 0.51932 0.90117 0.90094 0.0
H1880 H 0.53222 0.98325 0.95896 0.0
H1881 H 0.53416 0.95569 0.94002 0.0
C1882 C 0.94466 0.77038 0.70166 0.0
C1883 C 0.95008 0.75423 0.6978 0.0
C1884 C 0.928 0.77032 0.70763 0.0
C1885 C 0.88836 0.74184 0.72642 0.0
H1886 H 0.86604 0.77888 0.7113 0.0
C1887 C 0.81524 0.74451 0.741 0.0
C1888 C 0.81195 0.76175 0.74511 0.0
C1889 C 0.83174 0.74267 0.73546 0.0
C1890 C 0.87205 0.76853 0.71594 0.0
H1891 H 0.94164 0.72515 0.69771 0.0
H1892 H 0.91242 0.72494 0.70793 0.0
H1893 H 0.89449 0.77717 0.70146 0.0
H1894 H 0.82414 0.79058 0.74659 0.0
H1895 H 0.85243 0.78743 0.73714 0.0
H1896 H 0.86554 0.7331 0.74071 0.0
C1897 C 0.92128 0.73785 0.7065 0.0
C1898 C 0.88862 0.76754 0.71026 0.0
C1899 C 0.93815 0.73793 0.70057 0.0
C1900 C 0.82588 0.77702 0.74356 0.0
C1901 C 0.84225 0.77519 0.73794 0.0
C1902 C 0.87164 0.74277 0.73205 0.0
C1903 C 0.91572 0.75407 0.70991 0.0
C1904 C 0.89735 0.75435 0.71554 0.0
C1905 C 0.84557 0.75799 0.73364 0.0
C1906 C 0.86322 0.7563 0.72712 0.0
H1907 H 0.95333 0.78332 0.69997 0.0
H1908 H 0.92484 0.78325 0.71053 0.0
H1909 H 0.89441 0.7315 0.73102 0.0
H1910 H 0.80499 0.73235 0.74194 0.0
H1911 H 0.8335 0.72914 0.73222 0.0
C1912 C 0.08156 0.01684 0.82728 0.0
C1913 C 0.1 0.01795 0.82865 0.0
C1914 C 0.07278 0.01614 0.84314 0.0
C1915 C 0.08198 0.02671 0.89473 0.0
H1916 H 0.0343 -0.00449 0.89318 0.0
C1917 C 0.05004 0.01459 0.96176 0.0
C1918 C 0.03177 0.01401 0.96133 0.0
C1919 C 0.05797 0.01466 0.94541 0.0
C1920 C 0.04755 0.00445 0.89384 0.0
H1921 H 0.12351 0.01891 0.84788 0.0
H1922 H 0.1083 0.01749 0.87521 0.0
H1923 H 0.04858 -0.00336 0.86501 0.0
H1924 H 0.00752 0.01281 0.94313 0.0
H1925 H 0.02134 0.01304 0.91474 0.0
H1926 H 0.08101 0.03453 0.9235 0.0
C1927 C 0.10061 0.01749 0.86201 0.0
C1928 C 0.05575 0.00512 0.87764 0.0
C1929 C 0.10934 0.01817 0.84623 0.0
C1930 C 0.02161 0.01322 0.94405 0.0
C1931 C 0.02954 0.01326 0.92769 0.0
C1932 C 0.07381 0.02603 0.9109 0.0
C1933 C 0.08222 0.01657 0.86077 0.0
C1934 C 0.07314 0.01618 0.87786 0.0
C1935 C 0.04787 0.01414 0.92813 0.0
C1936 C 0.05651 0.01484 0.91075 0.0
H1937 H 0.07394 0.01665 0.81399 0.0
H1938 H 0.05865 0.01559 0.84163 0.0
H1939 H 0.09523 0.03568 0.89543 0.0
H1940 H 0.0583 0.01517 0.97477 0.0
H1941 H 0.07205 0.01505 0.94631 0.0
C1942 C 0.76589 0.37646 0.53629 0.0
C1943 C 0.75698 0.36681 0.5191 0.0
C1944 C 0.76875 0.36731 0.55128 0.0
C1945 C 0.77209 0.32281 0.56297 0.0
H1946 H 0.76476 0.34229 0.61187 0.0
C1947 C 0.77458 0.28433 0.6264 0.0
C1948 C 0.78264 0.29465 0.64357 0.0
C1949 C 0.77182 0.29287 0.61087 0.0
C1950 C 0.76709 0.3368 0.59835 0.0
H1951 H 0.74402 0.33998 0.50419 0.0
H1952 H 0.74897 0.32397 0.53049 0.0
H1953 H 0.75864 0.35755 0.58542 0.0
H1954 H 0.79479 0.32192 0.65777 0.0
H1955 H 0.7901 0.33683 0.63063 0.0
H1956 H 0.78061 0.30209 0.57594 0.0
C1957 C 0.75386 0.33862 0.53226 0.0
C1958 C 0.76354 0.34552 0.5832 0.0
C1959 C 0.75093 0.3478 0.51725 0.0
C1960 C 0.7883 0.31364 0.64478 0.0
C1961 C 0.78558 0.32217 0.62926 0.0
C1962 C 0.77567 0.31409 0.57815 0.0
C1963 C 0.76281 0.3483 0.54942 0.0
C1964 C 0.76608 0.33867 0.56537 0.0
C1965 C 0.77709 0.31189 0.6122 0.0
C1966 C 0.77329 0.32105 0.59601 0.0
H1967 H 0.77077 0.39112 0.53817 0.0
H1968 H 0.77589 0.37511 0.56426 0.0
H1969 H 0.77438 0.31735 0.54941 0.0
H1970 H 0.76986 0.26969 0.62511 0.0
H1971 H 0.76507 0.28459 0.59798 0.0
C1972 C 0.41971 0.006 0.32368 0.0
C1973 C 0.40911 0.01842 0.32291 0.0
C1974 C 0.43284 0.0078 0.33875 0.0
C1975 C 0.45934 0.04055 0.37887 0.0
H1976 H 0.46392 -0.00311 0.39888 0.0
C1977 C 0.48713 0.03898 0.45409 0.0
C1978 C 0.49734 0.02668 0.4578 0.0
C1979 C 0.48003 0.03957 0.43597 0.0
C1980 C 0.46308 0.00918 0.39324 0.0
H1981 H 0.4039 0.04245 0.33736 0.0
H1982 H 0.42647 0.04529 0.36401 0.0
H1983 H 0.4435 -0.00558 0.37066 0.0
H1984 H 0.50901 0.00603 0.44547 0.0
H1985 H 0.49634 0.00689 0.41362 0.0
H1986 H 0.47838 0.0553 0.40205 0.0
C1987 C 0.42494 0.0344 0.35274 0.0
C1988 C 0.45134 0.00778 0.37707 0.0
C1989 C 0.41188 0.03268 0.33756 0.0
C1990 C 0.50119 0.01565 0.44297 0.0
C1991 C 0.49387 0.01607 0.4248 0.0
C1992 C 0.47098 0.04195 0.39513 0.0
C1993 C 0.43558 0.02198 0.3535 0.0
C1994 C 0.44909 0.02347 0.36988 0.0
C1995 C 0.48286 0.02772 0.42122 0.0
C1996 C 0.47271 0.02628 0.40264 0.0
H1997 H 0.41804 -0.00504 0.31251 0.0
H1998 H 0.44096 -0.00184 0.33876 0.0
H1999 H 0.45821 0.05288 0.37349 0.0
H2000 H 0.48405 0.04772 0.46526 0.0
H2001 H 0.47149 0.04857 0.43366 0.0
C2002 C 0.76089 0.72433 0.05403 0.0
C2003 C 0.76003 0.70592 0.04856 0.0
C2004 C 0.7601 0.73081 0.07255 0.0
C2005 C 0.76577 0.7186 0.12043 0.0
H2006 H 0.74305 0.75731 0.1327 0.0
C2007 C 0.77341 0.75276 0.19564 0.0
C2008 C 0.75877 0.75776 0.20244 0.0
C2009 C 0.77306 0.74723 0.17676 0.0
C2010 C 0.74931 0.74637 0.12956 0.0
H2011 H 0.75732 0.67986 0.05838 0.0
H2012 H 0.75553 0.69095 0.09035 0.0
H2013 H 0.74296 0.74574 0.10025 0.0
H2014 H 0.73239 0.76135 0.19446 0.0
H2015 H 0.73153 0.75122 0.16128 0.0
H2016 H 0.77162 0.71872 0.14958 0.0
C2017 C 0.75728 0.70058 0.08051 0.0
C2018 C 0.74948 0.73988 0.11087 0.0
C2019 C 0.75823 0.69415 0.06207 0.0
C2020 C 0.74389 0.75758 0.18968 0.0
C2021 C 0.74344 0.75181 0.17065 0.0
C2022 C 0.7655 0.72498 0.13902 0.0
C2023 C 0.7583 0.71904 0.08611 0.0
C2024 C 0.7578 0.72593 0.10601 0.0
C2025 C 0.75795 0.74626 0.16397 0.0
C2026 C 0.75744 0.7391 0.14393 0.0
H2027 H 0.76229 0.73381 0.04403 0.0
H2028 H 0.7612 0.74514 0.07625 0.0
H2029 H 0.77253 0.70804 0.11742 0.0
H2030 H 0.78528 0.75307 0.20496 0.0
H2031 H 0.78474 0.74369 0.17223 0.0
C2032 C 0.09122 0.02039 0.71102 0.0
C2033 C 0.08084 0.02199 0.72546 0.0
C2034 C 0.08457 0.02127 0.69269 0.0
C2035 C 0.04242 0.01557 0.66134 0.0
H2036 H 0.07355 0.04234 0.63017 0.0
C2037 C 0.0241 0.00847 0.5818 0.0
C2038 C 0.02833 0.02411 0.57302 0.0
C2039 C 0.02988 0.00911 0.60066 0.0
C2040 C 0.06462 0.03494 0.63872 0.0
H2041 H 0.05519 0.02564 0.73176 0.0
H2042 H 0.04359 0.02706 0.69984 0.0
H2043 H 0.08492 0.0416 0.66239 0.0
H2044 H 0.04187 0.0528 0.57744 0.0
H2045 H 0.05203 0.05391 0.61047 0.0
H2046 H 0.02214 0.00889 0.6377 0.0
C2047 C 0.05687 0.02505 0.70268 0.0
C2048 C 0.07121 0.03433 0.65715 0.0
C2049 C 0.06356 0.0243 0.72103 0.0
C2050 C 0.03832 0.04051 0.58373 0.0
C2051 C 0.04425 0.04111 0.60264 0.0
C2052 C 0.03589 0.01606 0.64289 0.0
C2053 C 0.06731 0.02364 0.68826 0.0
C2054 C 0.06022 0.02457 0.6687 0.0
C2055 C 0.04017 0.02538 0.61133 0.0
C2056 C 0.04692 0.02566 0.63128 0.0
H2057 H 0.10459 0.01861 0.71388 0.0
H2058 H 0.09292 0.01989 0.68194 0.0
H2059 H 0.0336 0.00782 0.66975 0.0
H2060 H 0.01645 -0.00443 0.57406 0.0
H2061 H 0.02664 -0.00332 0.60678 0.0
C2062 C 0.7549 0.36768 0.42716 0.0
C2063 C 0.76903 0.37143 0.44179 0.0
C2064 C 0.75419 0.35482 0.41183 0.0
C2065 C 0.75076 0.31983 0.38618 0.0
H2066 H 0.79452 0.31894 0.36549 0.0
C2067 C 0.75271 0.26618 0.32506 0.0
C2068 C 0.76188 0.2731 0.31086 0.0
C2069 C 0.75421 0.27711 0.34206 0.0
C2070 C 0.78218 0.31904 0.37108 0.0
H2071 H 0.79344 0.36453 0.45189 0.0
H2072 H 0.79208 0.342 0.42529 0.0
H2073 H 0.79546 0.34059 0.39276 0.0
H2074 H 0.78094 0.29603 0.30356 0.0
H2075 H 0.78323 0.31534 0.33291 0.0
H2076 H 0.73739 0.29868 0.36409 0.0
C2077 C 0.78169 0.34917 0.42551 0.0
C2078 C 0.78274 0.33133 0.38682 0.0
C2079 C 0.78241 0.36204 0.4408 0.0
C2080 C 0.77327 0.29067 0.31413 0.0
C2081 C 0.7748 0.30159 0.33105 0.0
C2082 C 0.75019 0.30754 0.37042 0.0
C2083 C 0.76759 0.34543 0.41084 0.0
C2084 C 0.76702 0.33197 0.39445 0.0
C2085 C 0.76508 0.29503 0.34511 0.0
C2086 C 0.76587 0.30715 0.36259 0.0
H2087 H 0.74439 0.3747 0.42751 0.0
H2088 H 0.74328 0.35242 0.40063 0.0
H2089 H 0.73845 0.31983 0.39188 0.0
H2090 H 0.744 0.25254 0.32285 0.0
H2091 H 0.7468 0.27158 0.35274 0.0
C2092 C 0.43614 0.02992 0.25245 0.0
C2093 C 0.4174 0.02362 0.24882 0.0
C2094 C 0.4468 0.02495 0.23963 0.0
C2095 C 0.44573 -0.00884 0.19903 0.0
H2096 H 0.48475 0.02846 0.18706 0.0
C2097 C 0.4747 0.98643 0.13034 0.0
C2098 C 0.49321 -0.00683 0.13051 0.0
C2099 C 0.46704 -0.01179 0.14659 0.0
C2100 C 0.47412 0.01781 0.19049 0.0
H2101 H 0.39515 0.00725 0.22892 0.0
H2102 H 0.41371 -0.00109 0.20645 0.0
H2103 H 0.46822 0.03566 0.21212 0.0
H2104 H 0.51832 0.00653 0.14783 0.0
H2105 H 0.50486 0.00966 0.17639 0.0
H2106 H 0.45127 0.9735 0.17694 0.0
C2107 C 0.4202 0.00737 0.21933 0.0
C2108 C 0.46464 0.02193 0.20483 0.0
C2109 C 0.40955 0.01229 0.23214 0.0
C2110 C 0.50402 0.00116 0.14736 0.0
C2111 C 0.49632 0.00307 0.16363 0.0
C2112 C 0.45516 -0.01294 0.18465 0.0
C2113 C 0.43893 0.01362 0.22294 0.0
C2114 C 0.4501 0.00876 0.20899 0.0
C2115 C 0.47772 -0.00315 0.16333 0.0
C2116 C 0.46921 0.00045 0.18 0.0
H2117 H 0.44259 0.03857 0.26524 0.0
H2118 H 0.46121 0.02985 0.24286 0.0
H2119 H 0.43482 0.98062 0.20217 0.0
H2120 H 0.4661 0.98004 0.11755 0.0
H2121 H 0.45264 0.98345 0.1459 0.0
C2122 C 0.77004 0.69841 0.94352 0.0
C2123 C 0.75373 0.69663 0.95079 0.0
C2124 C 0.77241 0.70533 0.92671 0.0
C2125 C 0.74606 0.71259 0.88397 0.0
H2126 H 0.79172 0.74204 0.87513 0.0
C2127 C 0.75722 0.73061 0.81092 0.0
C2128 C 0.76712 0.74826 0.80939 0.0
C2129 C 0.75669 0.72438 0.82817 0.0
C2130 C 0.77882 0.73394 0.87737 0.0
H2131 H 0.72736 0.7014 0.94626 0.0
H2132 H 0.73157 0.71377 0.91738 0.0
H2133 H 0.78853 0.732 0.90538 0.0
H2134 H 0.78461 0.77301 0.82498 0.0
H2135 H 0.78348 0.76225 0.85512 0.0
H2136 H 0.73616 0.71489 0.85623 0.0
C2137 C 0.74244 0.70941 0.92435 0.0
C2138 C 0.77704 0.72798 0.89471 0.0
C2139 C 0.74006 0.70242 0.94106 0.0
C2140 C 0.7769 0.75932 0.82558 0.0
C2141 C 0.77629 0.7531 0.84291 0.0
C2142 C 0.74782 0.71856 0.8667 0.0
C2143 C 0.75855 0.71073 0.91674 0.0
C2144 C 0.76061 0.71723 0.89829 0.0
C2145 C 0.76593 0.73563 0.84451 0.0
C2146 C 0.76423 0.72929 0.86307 0.0
H2147 H 0.78087 0.69404 0.95057 0.0
H2148 H 0.78494 0.70595 0.92129 0.0
H2149 H 0.73324 0.70413 0.88598 0.0
H2150 H 0.74962 0.72161 0.79879 0.0
H2151 H 0.7489 0.7107 0.82868 0.0
C2152 C 0.82192 0.1164 -0.00148 0.0
C2153 C 0.80993 0.11236 0.01149 0.0
C2154 C 0.83108 0.10384 -0.00774 0.0
C2155 C 0.84622 0.06463 0.00527 0.0
H2156 H 0.85231 0.0566 0.95337 0.0
C2157 C 0.88338 0.01288 0.97992 0.0
C2158 C 0.89666 0.01908 0.96879 0.0
C2159 C 0.87045 0.02229 0.98296 0.0
C2160 C 0.85077 0.05876 0.96791 0.0
H2161 H 0.79817 0.09198 0.02809 0.0
H2162 H 0.81418 0.07008 0.01715 0.0
H2163 H 0.83471 0.07737 0.96351 0.0
H2164 H 0.90586 0.03921 0.95095 0.0
H2165 H 0.88358 0.05595 0.95669 0.0
H2166 H 0.86255 0.04642 0.00983 0.0
C2167 C 0.81657 0.08301 0.01192 0.0
C2168 C 0.84073 0.07066 0.97372 0.0
C2169 C 0.80737 0.09555 0.01815 0.0
C2170 C 0.89599 0.03424 0.95983 0.0
C2171 C 0.8831 0.04373 0.96297 0.0
C2172 C 0.85626 0.05279 -0.00051 0.0
C2173 C 0.82849 0.08701 -0.00112 0.0
C2174 C 0.83848 0.07383 -0.00751 0.0
C2175 C 0.87057 0.03819 0.97507 0.0
C2176 C 0.85877 0.0498 0.98077 0.0
H2177 H 0.82419 0.12924 -0.00689 0.0
H2178 H 0.84038 0.10742 0.98242 0.0
H2179 H 0.84495 0.067 0.01987 0.0
H2180 H 0.88353 0.00136 0.98719 0.0
H2181 H 0.86076 0.01747 -0.00793 0.0
C2182 C 0.3245 0.42086 0.02502 0.0
C2183 C 0.32317 0.40579 0.03463 0.0
C2184 C 0.34122 0.43259 0.02415 0.0
C2185 C 0.38865 0.44605 0.04669 0.0
H2186 H 0.39817 0.46429 0.00046 0.0
C2187 C 0.46014 0.47829 0.03172 0.0
C2188 C 0.46283 0.49364 0.02243 0.0
C2189 C 0.44288 0.46872 0.03391 0.0
C2190 C 0.39567 0.45951 0.01355 0.0
H2191 H 0.33845 0.39132 0.05091 0.0
H2192 H 0.36749 0.4115 0.04914 0.0
H2193 H 0.36854 0.44546 0.00291 0.0
H2194 H 0.44936 0.51103 0.0083 0.0
H2195 H 0.41921 0.49428 0.01212 0.0
H2196 H 0.4159 0.45983 0.05719 0.0
C2197 C 0.35563 0.41451 0.04253 0.0
C2198 C 0.37865 0.44871 0.01498 0.0
C2199 C 0.33894 0.40283 0.04346 0.0
C2200 C 0.4478 0.49928 0.01554 0.0
C2201 C 0.4305 0.48961 0.01762 0.0
C2202 C 0.40568 0.45677 0.04523 0.0
C2203 C 0.35703 0.42953 0.03283 0.0
C2204 C 0.37494 0.4417 0.03153 0.0
C2205 C 0.42783 0.47417 0.02678 0.0
C2206 C 0.40945 0.46351 0.0286 0.0
H2207 H 0.31263 0.42359 0.01811 0.0
H2208 H 0.34172 0.44415 0.01677 0.0
H2209 H 0.38623 0.44123 0.05978 0.0
H2210 H 0.47136 0.47351 0.03721 0.0
H2211 H 0.44131 0.45678 0.04085 0.0
C2212 C 0.37511 0.56015 0.75268 0.0
C2213 C 0.39284 0.56559 0.76165 0.0
C2214 C 0.36423 0.57227 0.75293 0.0
C2215 C 0.35974 0.61505 0.77877 0.0
H2216 H 0.32715 0.61517 0.73501 0.0
C2217 C 0.31981 0.66946 0.77397 0.0
C2218 C 0.30187 0.66356 0.7656 0.0
C2219 C 0.33106 0.65772 0.7733 0.0
C2220 C 0.33603 0.61519 0.74742 0.0
H2221 H 0.41305 0.58819 0.77779 0.0
H2222 H 0.39417 0.60934 0.77804 0.0
H2223 H 0.34645 0.59443 0.73414 0.0
H2224 H 0.28185 0.64067 0.74969 0.0
H2225 H 0.30135 0.62013 0.74879 0.0
H2226 H 0.34931 0.63581 0.79205 0.0
C2227 C 0.38856 0.59561 0.77103 0.0
C2228 C 0.34711 0.60328 0.74692 0.0
C2229 C 0.39944 0.58349 0.77079 0.0
C2230 C 0.29552 0.64563 0.75647 0.0
C2231 C 0.30678 0.6339 0.75576 0.0
C2232 C 0.34867 0.62698 0.77926 0.0
C2233 C 0.37078 0.59016 0.76215 0.0
C2234 C 0.3591 0.60301 0.76261 0.0
C2235 C 0.32469 0.63977 0.7642 0.0
C2236 C 0.33664 0.62719 0.76361 0.0
H2237 H 0.36954 0.54646 0.74555 0.0
H2238 H 0.35055 0.56749 0.74615 0.0
H2239 H 0.36857 0.61504 0.79121 0.0
H2240 H 0.32512 0.68311 0.78128 0.0
H2241 H 0.34481 0.66277 0.77979 0.0
C2242 C 0.21053 0.59997 0.51699 0.0
C2243 C 0.22035 0.60529 0.5348 0.0
C2244 C 0.19239 0.59098 0.51472 0.0
C2245 C 0.15317 0.58395 0.53968 0.0
H2246 H 0.13277 0.54428 0.49972 0.0
C2247 C 0.08093 0.54073 0.53411 0.0
C2248 C 0.07059 0.53689 0.51654 0.0
C2249 C 0.0993 0.54846 0.53605 0.0
C2250 C 0.13827 0.55546 0.51082 0.0
H2251 H 0.21893 0.60508 0.5642 0.0
H2252 H 0.18724 0.58915 0.56021 0.0
H2253 H 0.16487 0.55869 0.504 0.0
H2254 H 0.07149 0.53782 0.48715 0.0
H2255 H 0.10376 0.55147 0.49059 0.0
H2256 H 0.12661 0.58072 0.54652 0.0
C2257 C 0.19354 0.59219 0.54802 0.0
C2258 C 0.15662 0.56369 0.51329 0.0
C2259 C 0.21171 0.60123 0.5503 0.0
C2260 C 0.0791 0.54064 0.50088 0.0
C2261 C 0.09756 0.54837 0.50283 0.0
C2262 C 0.13485 0.57569 0.53724 0.0
C2263 C 0.18368 0.58706 0.5302 0.0
C2264 C 0.16426 0.57803 0.52776 0.0
C2265 C 0.10779 0.55252 0.52047 0.0
C2266 C 0.12722 0.56135 0.52281 0.0
H2267 H 0.21678 0.60292 0.50474 0.0
H2268 H 0.18512 0.58743 0.50083 0.0
H2269 H 0.15858 0.59519 0.55073 0.0
H2270 H 0.07485 0.5379 0.54648 0.0
H2271 H 0.10689 0.55123 0.54978 0.0
C2272 C 0.66614 0.96178 0.77129 0.0
C2273 C 0.66549 0.97019 0.75524 0.0
C2274 C 0.67969 0.95323 0.77552 0.0
C2275 C 0.71238 0.93306 0.75407 0.0
H2276 H 0.73509 0.93812 0.80478 0.0
C2277 C 0.76883 0.89957 0.7711 0.0
C2278 C 0.76628 0.88878 0.78537 0.0
C2279 C 0.75905 0.91238 0.76886 0.0
C2280 C 0.72885 0.93659 0.79057 0.0
H2281 H 0.67847 0.97617 0.73097 0.0
H2282 H 0.70212 0.96138 0.73841 0.0
H2283 H 0.71216 0.95411 0.79755 0.0
H2284 H 0.75241 0.88371 0.80922 0.0
H2285 H 0.73529 0.90607 0.8053 0.0
H2286 H 0.72877 0.91535 0.74708 0.0
C2287 C 0.69207 0.96121 0.74763 0.0
C2288 C 0.71568 0.94566 0.78645 0.0
C2289 C 0.67852 0.96971 0.74339 0.0
C2290 C 0.75475 0.89195 0.79818 0.0
C2291 C 0.74494 0.90475 0.79593 0.0
C2292 C 0.72553 0.92405 0.75817 0.0
C2293 C 0.69284 0.95294 0.76377 0.0
C2294 C 0.70721 0.94384 0.76817 0.0
C2295 C 0.74652 0.9146 0.78084 0.0
C2296 C 0.7338 0.92559 0.77648 0.0
H2297 H 0.65629 0.96192 0.78069 0.0
H2298 H 0.67979 0.94671 0.7879 0.0
H2299 H 0.70591 0.93116 0.73991 0.0
H2300 H 0.77787 0.89758 0.76121 0.0
H2301 H 0.7608 0.92007 0.75734 0.0
C2302 C 0.72223 0.91253 0.51435 0.0
C2303 C 0.71754 0.89499 0.51942 0.0
C2304 C 0.70953 0.92263 0.51248 0.0
C2305 C 0.66033 0.91785 0.50629 0.0
H2306 H 0.67447 0.96974 0.52277 0.0
C2307 C 0.60908 0.96131 0.51285 0.0
C2308 C 0.61346 0.97867 0.50727 0.0
C2309 C 0.62159 0.9509 0.51367 0.0
C2310 C 0.67033 0.95529 0.5179 0.0
H2311 H 0.69573 0.87442 0.52659 0.0
H2312 H 0.67373 0.89211 0.52366 0.0
H2313 H 0.69659 0.95216 0.52567 0.0
H2314 H 0.63441 -0.0017 0.49755 0.0
H2315 H 0.65621 0.98026 0.49916 0.0
H2316 H 0.63399 0.92101 0.49874 0.0
C2317 C 0.68714 0.89797 0.52079 0.0
C2318 C 0.68304 0.94519 0.51955 0.0
C2319 C 0.69982 0.88785 0.5226 0.0
C2320 C 0.63063 0.98518 0.50227 0.0
C2321 C 0.64316 0.97481 0.50318 0.0
C2322 C 0.64759 0.92795 0.50473 0.0
C2323 C 0.69179 0.91551 0.51568 0.0
C2324 C 0.67823 0.92632 0.51378 0.0
C2325 C 0.63886 0.95759 0.50901 0.0
C2326 C 0.65242 0.94681 0.51052 0.0
H2327 H 0.73572 0.91844 0.51171 0.0
H2328 H 0.71358 0.93597 0.50827 0.0
H2329 H 0.65615 0.90342 0.5014 0.0
H2330 H 0.59611 0.95592 0.51707 0.0
H2331 H 0.61788 0.93779 0.51843 0.0
C2332 C 0.3664 0.46043 0.75124 0.0
C2333 C 0.38117 0.46098 0.74153 0.0
C2334 C 0.35402 0.44391 0.75187 0.0
C2335 C 0.33824 0.39607 0.72856 0.0
H2336 H 0.32002 0.38709 0.7749 0.0
C2337 C 0.30312 0.32437 0.74287 0.0
C2338 C 0.28819 0.32242 0.75253 0.0
C2339 C 0.31323 0.34158 0.74068 0.0
C2340 C 0.32479 0.38947 0.76178 0.0
H2341 H 0.39443 0.44453 0.72482 0.0
H2342 H 0.37309 0.41579 0.72617 0.0
H2343 H 0.34003 0.41648 0.77276 0.0
H2344 H 0.27206 0.33714 0.76723 0.0
H2345 H 0.28976 0.36723 0.76339 0.0
H2346 H 0.32325 0.3689 0.71773 0.0
C2347 C 0.37085 0.42813 0.73304 0.0
C2348 C 0.33627 0.40634 0.76054 0.0
C2349 C 0.38318 0.44464 0.73236 0.0
C2350 C 0.28347 0.33813 0.75971 0.0
C2351 C 0.29368 0.35539 0.75762 0.0
C2352 C 0.32683 0.37918 0.72984 0.0
C2353 C 0.35613 0.42752 0.74286 0.0
C2354 C 0.34327 0.40982 0.74395 0.0
C2355 C 0.30874 0.35731 0.74816 0.0
C2356 C 0.32008 0.37562 0.74651 0.0
H2357 H 0.36439 0.47276 0.7584 0.0
H2358 H 0.34273 0.44402 0.75934 0.0
H2359 H 0.34307 0.39836 0.71546 0.0
H2360 H 0.30718 0.31259 0.73715 0.0
H2361 H 0.32486 0.34257 0.7335 0.0
C2362 C 0.16671 0.57463 0.21348 0.0
C2363 C 0.17041 0.5624 0.22531 0.0
C2364 C 0.17654 0.59277 0.21664 0.0
C2365 C 0.21823 0.62423 0.24179 0.0
H2366 H 0.19092 0.66009 0.238 0.0
C2367 C 0.25086 0.70103 0.24601 0.0
C2368 C 0.2426 0.71315 0.25526 0.0
C2369 C 0.24285 0.68239 0.24313 0.0
C2370 C 0.19871 0.65025 0.2393 0.0
H2371 H 0.18777 0.55945 0.24933 0.0
H2372 H 0.20477 0.59114 0.25495 0.0
H2373 H 0.17569 0.62795 0.23064 0.0
H2374 H 0.21987 0.71514 0.26948 0.0
H2375 H 0.206 0.68257 0.26461 0.0
H2376 H 0.24121 0.64659 0.25083 0.0
C2377 C 0.19438 0.58668 0.24313 0.0
C2378 C 0.19003 0.63184 0.23481 0.0
C2379 C 0.18457 0.56854 0.23996 0.0
C2380 C 0.2265 0.70618 0.26216 0.0
C2381 C 0.2185 0.68754 0.25928 0.0
C2382 C 0.22693 0.64267 0.24629 0.0
C2383 C 0.19026 0.59907 0.2317 0.0
C2384 C 0.19968 0.61862 0.236 0.0
C2385 C 0.22643 0.67548 0.24945 0.0
C2386 C 0.21725 0.65587 0.24511 0.0
H2387 H 0.15597 0.57029 0.20199 0.0
H2388 H 0.17327 0.60193 0.20739 0.0
H2389 H 0.22605 0.61436 0.24273 0.0
H2390 H 0.26328 0.70594 0.24052 0.0
H2391 H 0.24922 0.67347 0.23538 0.0
C2392 C 0.4918 0.69325 0.43626 0.0
C2393 C 0.482 0.7037 0.44578 0.0
C2394 C 0.49399 0.67676 0.44194 0.0
C2395 C 0.47529 0.64108 0.47194 0.0
H2396 H 0.51859 0.62601 0.46564 0.0
C2397 C 0.48342 0.57009 0.48935 0.0
C2398 C 0.50056 0.56852 0.49612 0.0
C2399 C 0.48098 0.58622 0.483 0.0
C2400 C 0.50641 0.62996 0.46773 0.0
H2401 H 0.46701 0.70454 0.46908 0.0
H2402 H 0.471 0.67641 0.47903 0.0
H2403 H 0.51506 0.65427 0.45548 0.0
H2404 H 0.52856 0.58333 0.50149 0.0
H2405 H 0.52434 0.61116 0.49089 0.0
H2406 H 0.46684 0.61702 0.48462 0.0
C2407 C 0.47677 0.68062 0.4669 0.0
C2408 C 0.50426 0.64624 0.46158 0.0
C2409 C 0.47458 0.69703 0.46121 0.0
C2410 C 0.51511 0.58377 0.49639 0.0
C2411 C 0.51269 0.59986 0.49008 0.0
C2412 C 0.47745 0.62481 0.47809 0.0
C2413 C 0.48646 0.67003 0.45738 0.0
C2414 C 0.48868 0.65224 0.46362 0.0
C2415 C 0.49558 0.60147 0.48315 0.0
C2416 C 0.49309 0.61888 0.47621 0.0
H2417 H 0.49772 0.69775 0.42429 0.0
H2418 H 0.50138 0.66914 0.43396 0.0
H2419 H 0.46292 0.64479 0.47362 0.0
H2420 H 0.47183 0.55875 0.48875 0.0
H2421 H 0.46758 0.58655 0.47763 0.0
C2422 C 0.60636 0.29328 0.62458 0.0
C2423 C 0.58892 0.28812 0.62935 0.0
C2424 C 0.62107 0.29068 0.63578 0.0
C2425 C 0.63627 0.2821 0.6834 0.0
H2426 H 0.67341 0.26689 0.65943 0.0
C2427 C 0.69429 0.26122 0.72525 0.0
C2428 C 0.71147 0.26588 0.71975 0.0
C2429 C 0.67932 0.26374 0.71436 0.0
C2430 C 0.66333 0.27137 0.66645 0.0
H2431 H 0.57354 0.27629 0.65002 0.0
H2432 H 0.59913 0.27171 0.66951 0.0
H2433 H 0.64773 0.27181 0.64068 0.0
H2434 H 0.72612 0.27694 0.69821 0.0
H2435 H 0.70023 0.2815 0.67944 0.0
H2436 H 0.65191 0.28173 0.70919 0.0
C2437 C 0.60148 0.27794 0.65713 0.0
C2438 C 0.6485 0.2742 0.65562 0.0
C2439 C 0.58672 0.28051 0.64587 0.0
C2440 C 0.71316 0.27307 0.70294 0.0
C2441 C 0.6982 0.27561 0.69206 0.0
C2442 C 0.65113 0.2793 0.69425 0.0
C2443 C 0.6189 0.28284 0.65219 0.0
C2444 C 0.63471 0.27966 0.66388 0.0
C2445 C 0.681 0.27104 0.69759 0.0
C2446 C 0.66496 0.27391 0.68597 0.0
H2447 H 0.60869 0.29923 0.61203 0.0
H2448 H 0.63422 0.29496 0.63158 0.0
H2449 H 0.62614 0.28654 0.69038 0.0
H2450 H 0.69236 0.25562 0.73805 0.0
H2451 H 0.66637 0.25976 0.71906 0.0
C2452 C 0.98835 0.3252 0.92171 0.0
C2453 C -0.01121 0.31104 0.93238 0.0
C2454 C -0.01023 0.34298 0.93002 0.0
C2455 C 0.00444 0.37498 0.9745 0.0
H2456 H 0.97707 0.40329 0.94909 0.0
C2457 C 0.01745 0.45363 -0.00481 0.0
C2458 C 0.00293 0.46162 -0.00656 0.0
C2459 C 0.01533 0.4351 -0.01121 0.0
C2460 C 0.98474 0.39566 0.95657 0.0
H2461 H -0.00871 0.30501 0.96058 0.0
H2462 H -0.00624 0.33617 0.97519 0.0
H2463 H 0.97383 0.37174 0.93673 0.0
H2464 H 0.9746 0.45583 0.98357 0.0
H2465 H 0.97085 0.4237 0.97262 0.0
H2466 H 0.01518 0.39894 -0.00552 0.0
C2467 C -0.00762 0.3334 0.96022 0.0
C2468 C 0.98304 0.37745 0.94929 0.0
C2469 C -0.00911 0.31544 0.95183 0.0
C2470 C 0.98616 0.45034 0.98517 0.0
C2471 C 0.98404 0.43181 0.97874 0.0
C2472 C 0.00619 0.39327 0.98178 0.0
C2473 C -0.00829 0.34748 0.94941 0.0
C2474 C -0.00703 0.36677 0.95798 0.0
C2475 C -0.0014 0.42381 0.98033 0.0
C2476 C -0.00356 0.40401 0.97289 0.0
H2477 H 0.98687 0.3226 0.90672 0.0
H2478 H -0.01043 0.35329 0.92109 0.0
H2479 H 0.01243 0.36741 0.98164 0.0
H2480 H 0.03062 0.46172 0.00142 0.0
H2481 H 0.02698 0.42974 -0.00987 0.0
C2482 C 0.9684 0.77623 0.11917 0.0
C2483 C 0.98649 0.77956 0.12671 0.0
C2484 C 0.95492 0.77521 0.13063 0.0
C2485 C 0.94495 0.76784 0.17832 0.0
H2486 H 0.90466 0.78733 0.1645 0.0
C2487 C 0.89023 0.77095 0.22633 0.0
C2488 C 0.8723 0.76722 0.21801 0.0
C2489 C 0.90432 0.77283 0.21555 0.0
C2490 C 0.91568 0.78161 0.1685 0.0
H2491 H 0.00446 0.78445 0.15248 0.0
H2492 H 0.98095 0.7828 0.17252 0.0
H2493 H 0.92883 0.7901 0.14548 0.0
H2494 H 0.8554 0.76238 0.19152 0.0
H2495 H 0.87986 0.76567 0.17281 0.0
H2496 H 0.93175 0.75932 0.20134 0.0
C2497 C 0.97717 0.78079 0.15764 0.0
C2498 C 0.92962 0.78321 0.15755 0.0
C2499 C -0.0093 0.78185 0.14614 0.0
C2500 C 0.86897 0.76553 0.19853 0.0
C2501 C 0.88307 0.76742 0.18775 0.0
C2502 C 0.931 0.76624 0.1893 0.0
C2503 C 0.95904 0.77748 0.15006 0.0
C2504 C 0.94444 0.77626 0.1622 0.0
C2505 C 0.90099 0.77108 0.19607 0.0
C2506 C 0.91608 0.77302 0.18452 0.0
H2507 H 0.96455 0.77432 0.1043 0.0
H2508 H 0.94118 0.77233 0.12416 0.0
H2509 H 0.95595 0.76208 0.18228 0.0
H2510 H 0.89345 0.77269 0.24126 0.0
H2511 H 0.9179 0.77595 0.22256 0.0
C2512 C 0.52922 0.29751 0.13288 0.0
C2513 C 0.51339 0.28799 0.13884 0.0
C2514 C 0.52926 0.31177 0.12242 0.0
C2515 C 0.50368 0.34511 0.11021 0.0
H2516 H 0.53361 0.35074 0.07099 0.0
C2517 C 0.50331 0.39987 0.06064 0.0
C2518 C 0.51967 0.40834 0.0549 0.0
C2519 C 0.50196 0.38515 0.07079 0.0
C2520 C 0.52533 0.34958 0.08204 0.0
H2521 H 0.4851 0.28623 0.13833 0.0
H2522 H 0.48512 0.31108 0.11997 0.0
H2523 H 0.53213 0.32528 0.08838 0.0
H2524 H 0.54761 0.40813 0.05612 0.0
H2525 H 0.5453 0.38274 0.07373 0.0
H2526 H 0.49696 0.36952 0.10388 0.0
C2527 C 0.49759 0.30756 0.12354 0.0
C2528 C 0.52446 0.33488 0.09205 0.0
C2529 C 0.49755 0.2932 0.13399 0.0
C2530 C 0.53468 0.40179 0.05989 0.0
C2531 C 0.53334 0.38714 0.07003 0.0
C2532 C 0.50457 0.35987 0.10019 0.0
C2533 C 0.51347 0.31707 0.11757 0.0
C2534 C 0.51374 0.33246 0.10641 0.0
C2535 C 0.51694 0.37845 0.07554 0.0
C2536 C 0.51553 0.36244 0.08602 0.0
H2537 H 0.54173 0.29401 0.13636 0.0
H2538 H 0.54182 0.31886 0.11841 0.0
H2539 H 0.49543 0.3439 0.12127 0.0
H2540 H 0.49139 0.40431 0.05692 0.0
H2541 H 0.48904 0.37877 0.07454 0.0
C2542 C 0.95257 0.26391 0.33046 0.0
C2543 C 0.96733 0.27815 0.32856 0.0
C2544 C 0.93496 0.26395 0.32379 0.0
C2545 C 0.90703 0.28693 0.29369 0.0
H2546 H 0.86976 0.26322 0.32066 0.0
C2547 C 0.83153 0.28975 0.27871 0.0
C2548 C 0.81824 0.27355 0.27895 0.0
C2549 C 0.84984 0.29111 0.28438 0.0
C2550 C 0.8799 0.26978 0.31279 0.0
H2551 H 0.97474 0.30365 0.31767 0.0
H2552 H 0.94398 0.30401 0.30635 0.0
H2553 H 0.90074 0.26429 0.33088 0.0
H2554 H 0.81437 0.24611 0.28567 0.0
H2555 H 0.84581 0.24856 0.29561 0.0
H2556 H 0.88588 0.29274 0.27586 0.0
C2557 C 0.94604 0.29251 0.31277 0.0
C2558 C 0.89788 0.27034 0.31863 0.0
C2559 C 0.96382 0.29234 0.3193 0.0
C2560 C 0.82398 0.25887 0.2852 0.0
C2561 C 0.84217 0.2603 0.29106 0.0
C2562 C 0.88896 0.28653 0.28795 0.0
C2563 C 0.93118 0.27841 0.31515 0.0
C2564 C 0.91188 0.27867 0.30908 0.0
C2565 C 0.85549 0.27642 0.29077 0.0
C2566 C 0.87502 0.27773 0.29726 0.0
H2567 H 0.95458 0.25261 0.33731 0.0
H2568 H 0.92428 0.25246 0.32549 0.0
H2569 H 0.91712 0.29338 0.28573 0.0
H2570 H 0.82783 0.30139 0.27398 0.0
H2571 H 0.85955 0.30382 0.28401 0.0
C2572 C -0.00548 0.68075 0.63945 0.0
C2573 C 0.00211 0.69725 0.63313 0.0
C2574 C -0.00478 0.664 0.62983 0.0
C2575 C 0.02008 0.64472 0.59457 0.0
H2576 H 0.98163 0.60099 0.59103 0.0
C2577 C 0.01664 0.58063 0.54298 0.0
C2578 C 0.01128 0.56339 0.54866 0.0
C2579 C 0.0154 0.59634 0.554 0.0
C2580 C -0.0074 0.61302 0.59203 0.0
H2581 H 0.01589 0.70875 0.61126 0.0
H2582 H 0.01669 0.67994 0.59444 0.0
H2583 H 0.97938 0.62923 0.60858 0.0
H2584 H 0.00022 0.5494 0.57064 0.0
H2585 H -0.00203 0.57684 0.58985 0.0
H2586 H 0.03318 0.62865 0.57786 0.0
C2587 C 0.01063 0.67978 0.6071 0.0
C2588 C -0.00868 0.62929 0.60215 0.0
C2589 C 0.01002 0.69643 0.61672 0.0
C2590 C 0.00451 0.56238 0.56575 0.0
C2591 C 0.00312 0.57815 0.57675 0.0
C2592 C 0.02129 0.62854 0.58439 0.0
C2593 C 0.00349 0.66324 0.61357 0.0
C2594 C 0.00496 0.64551 0.60343 0.0
C2595 C 0.00864 0.59541 0.57108 0.0
C2596 C 0.00751 0.61245 0.58277 0.0
H2597 H 0.98838 0.6808 0.65206 0.0
H2598 H -0.01035 0.65167 0.63543 0.0
H2599 H 0.03115 0.65664 0.59555 0.0
H2600 H 0.02188 0.58208 0.52994 0.0
H2601 H 0.01955 0.60927 0.54896 0.0
C2602 C 0.5743 0.76519 0.80985 0.0
C2603 C 0.57129 0.78046 0.82037 0.0
C2604 C 0.59095 0.76546 0.80373 0.0
C2605 C 0.63618 0.79656 0.79866 0.0
H2606 H 0.64919 0.75085 0.7916 0.0
C2607 C 0.70835 0.79144 0.78399 0.0
C2608 C 0.70976 0.77659 0.7715 0.0
C2609 C 0.69173 0.79259 0.78963 0.0
C2610 C 0.64582 0.76377 0.79326 0.0
H2611 H 0.58408 0.80825 0.83244 0.0
H2612 H 0.61325 0.8087 0.82224 0.0
H2613 H 0.62078 0.75173 0.80211 0.0
H2614 H 0.69414 0.75128 0.75527 0.0
H2615 H 0.66549 0.75319 0.76511 0.0
H2616 H 0.66167 0.80857 0.79023 0.0
C2617 C 0.60253 0.79644 0.81833 0.0
C2618 C 0.62926 0.76431 0.7993 0.0
C2619 C 0.58567 0.79621 0.82429 0.0
C2620 C 0.69383 0.76299 0.76484 0.0
C2621 C 0.67727 0.76402 0.77065 0.0
C2622 C 0.65289 0.79604 0.7928 0.0
C2623 C 0.60564 0.78096 0.80805 0.0
C2624 C 0.62388 0.78068 0.80198 0.0
C2625 C 0.67584 0.7788 0.78324 0.0
C2626 C 0.65801 0.77959 0.78982 0.0
H2627 H 0.56367 0.75278 0.8063 0.0
H2628 H 0.59216 0.75334 0.79544 0.0
H2629 H 0.63283 0.80949 0.80022 0.0
H2630 H 0.72017 0.80222 0.78956 0.0
H2631 H 0.69145 0.80415 0.79941 0.0
C2632 C 0.43572 0.51563 0.69306 0.0
C2633 C 0.44315 0.53029 0.70724 0.0
C2634 C 0.44164 0.51552 0.67561 0.0
C2635 C 0.46639 0.54618 0.64532 0.0
H2636 H 0.46831 0.50077 0.61759 0.0
C2637 C 0.4984 0.54178 0.57681 0.0
C2638 C 0.48938 0.52764 0.56258 0.0
C2639 C 0.49277 0.5427 0.59443 0.0
C2640 C 0.4677 0.51357 0.62506 0.0
H2641 H 0.46296 0.5562 0.71418 0.0
H2642 H 0.47358 0.5558 0.68402 0.0
H2643 H 0.45896 0.50097 0.64831 0.0
H2644 H 0.467 0.50367 0.55575 0.0
H2645 H 0.4573 0.50532 0.58627 0.0
H2646 H 0.47539 0.55875 0.62204 0.0
C2647 C 0.46286 0.54455 0.68618 0.0
C2648 C 0.46228 0.51368 0.64272 0.0
C2649 C 0.45685 0.54471 0.70358 0.0
C2650 C 0.47438 0.51472 0.56633 0.0
C2651 C 0.46885 0.51558 0.58392 0.0
C2652 C 0.47194 0.54607 0.62768 0.0
C2653 C 0.45527 0.53 0.67186 0.0
C2654 C 0.46143 0.52997 0.65311 0.0
C2655 C 0.47808 0.52944 0.59829 0.0
C2656 C 0.47254 0.52974 0.61726 0.0
H2657 H 0.42507 0.50434 0.69531 0.0
H2658 H 0.43523 0.50419 0.66494 0.0
H2659 H 0.46567 0.55897 0.65268 0.0
H2660 H 0.51001 0.55195 0.57447 0.0
H2661 H 0.50025 0.55352 0.60518 0.0
C2662 C 0.77045 0.17503 0.98619 0.0
C2663 C 0.76394 0.17916 0.0029 0.0
C2664 C 0.76789 0.18438 0.9713 0.0
C2665 C 0.75818 0.22589 0.9578 0.0
H2666 H 0.73897 0.19565 0.91054 0.0
C2667 C 0.75536 0.25283 0.88697 0.0
C2668 C 0.73968 0.24543 0.87436 0.0
C2669 C 0.75771 0.24604 0.90372 0.0
C2670 C 0.7442 0.20426 0.92367 0.0
H2671 H 0.75035 0.19693 0.01737 0.0
H2672 H 0.74598 0.21341 -0.00877 0.0
H2673 H 0.74499 0.18153 0.9379 0.0
H2674 H 0.71405 0.2254 0.8695 0.0
H2675 H 0.71817 0.21352 0.89877 0.0
H2676 H 0.75745 0.24865 0.94342 0.0
C2677 C 0.75302 0.20286 -0.01026 0.0
C2678 C 0.74782 0.1962 0.93927 0.0
C2679 C 0.75546 0.19338 0.00465 0.0
C2680 C 0.72621 0.23143 0.87901 0.0
C2681 C 0.72863 0.22455 0.89567 0.0
C2682 C 0.75471 0.23399 0.94211 0.0
C2683 C 0.75888 0.19816 0.97282 0.0
C2684 C 0.75491 0.20692 0.95646 0.0
C2685 C 0.7445 0.23162 0.90806 0.0
C2686 C 0.7477 0.22322 0.9249 0.0
H2687 H 0.77714 0.16422 0.98441 0.0
H2688 H 0.77277 0.18068 0.95848 0.0
H2689 H 0.76369 0.23444 0.9709 0.0
H2690 H 0.76588 0.26375 0.88379 0.0
H2691 H 0.77012 0.25165 0.91297 0.0
C2692 C 0.08311 0.47524 0.19059 0.0
C2693 C 0.09964 0.48841 0.19327 0.0
C2694 C 0.06974 0.47549 0.17631 0.0
C2695 C 0.05427 0.50704 0.1495 0.0
H2696 H 0.03666 0.4679 0.10854 0.0
C2697 C 0.03552 0.51981 0.07654 0.0
C2698 C 0.02101 0.50787 0.06485 0.0
C2699 C 0.04054 0.51612 0.09419 0.0
C2700 C 0.04105 0.47876 0.1201 0.0
H2701 H 0.11524 0.51183 0.1828 0.0
H2702 H 0.09194 0.51234 0.15826 0.0
H2703 H 0.0545 0.46305 0.13624 0.0
H2704 H 0.0001 0.48286 0.06256 0.0
H2705 H 0.00914 0.47623 0.09363 0.0
H2706 H 0.04159 0.52303 0.13323 0.0
C2707 C 0.08931 0.5019 0.16719 0.0
C2708 C 0.05127 0.47599 0.13588 0.0
C2709 C 0.10268 0.5015 0.18117 0.0
C2710 C 0.01132 0.49232 0.07133 0.0
C2711 C 0.01651 0.48849 0.08903 0.0
C2712 C 0.04401 0.50977 0.13386 0.0
C2713 C 0.07266 0.48911 0.16482 0.0
C2714 C 0.05861 0.4904 0.15028 0.0
C2715 C 0.03125 0.50034 0.10056 0.0
C2716 C 0.03805 0.49595 0.11865 0.0
H2717 H 0.0804 0.46497 0.19968 0.0
H2718 H 0.057 0.46543 0.17458 0.0
H2719 H 0.05962 0.51825 0.1606 0.0
H2720 H 0.04321 0.53195 0.07199 0.0
H2721 H 0.05215 0.52535 0.10262 0.0
C2722 C 0.77729 0.8248 0.46803 0.0
C2723 C 0.76918 0.83893 0.47258 0.0
C2724 C 0.77681 0.81754 0.44948 0.0
C2725 C 0.78306 0.81149 0.4091 0.0
H2726 H 0.74164 0.80792 0.37325 0.0
C2727 C 0.78316 0.79378 0.32963 0.0
C2728 C 0.76708 0.78363 0.31884 0.0
C2729 C 0.78358 0.79996 0.34851 0.0
C2730 C 0.75328 0.8086 0.38305 0.0
H2731 H 0.75407 0.85639 0.46099 0.0
H2732 H 0.75351 0.84403 0.42879 0.0
H2733 H 0.74149 0.81898 0.40559 0.0
H2734 H 0.73895 0.77151 0.31978 0.0
H2735 H 0.73979 0.78172 0.35252 0.0
H2736 H 0.79462 0.80057 0.3866 0.0
C2737 C 0.75998 0.83825 0.43952 0.0
C2738 C 0.7533 0.81524 0.40166 0.0
C2739 C 0.76037 0.84543 0.45807 0.0
C2740 C 0.75157 0.77942 0.32755 0.0
C2741 C 0.75202 0.78544 0.3464 0.0
C2742 C 0.783 0.80474 0.39048 0.0
C2743 C 0.76829 0.82425 0.4349 0.0
C2744 C 0.7682 0.81685 0.41501 0.0
C2745 C 0.76796 0.79604 0.35715 0.0
C2746 C 0.76811 0.80319 0.37713 0.0
H2747 H 0.78416 0.81939 0.4788 0.0
H2748 H 0.78308 0.80656 0.44661 0.0
H2749 H 0.79491 0.81271 0.41883 0.0
H2750 H 0.79535 0.79738 0.3234 0.0
H2751 H 0.79609 0.80822 0.35619 0.0
C2752 C 0.44517 0.49265 0.80905 0.0
C2753 C 0.44264 0.50836 0.80207 0.0
C2754 C 0.45309 0.49355 0.82729 0.0
C2755 C 0.48156 0.52484 0.86716 0.0
H2756 H 0.45958 0.48788 0.89576 0.0
C2757 C 0.50127 0.53084 0.9465 0.0
C2758 C 0.50105 0.51498 0.95457 0.0
C2759 C 0.495 0.52989 0.92771 0.0
C2760 C 0.46611 0.49816 0.88795 0.0
H2761 H 0.44688 0.53747 0.80887 0.0
H2762 H 0.46083 0.53906 0.84078 0.0
H2763 H 0.44726 0.48676 0.86358 0.0
H2764 H 0.49439 0.48559 0.94886 0.0
H2765 H 0.48384 0.48391 0.91597 0.0
H2766 H 0.50051 0.53619 0.89146 0.0
C2767 C 0.45669 0.52602 0.83203 0.0
C2768 C 0.45898 0.49755 0.86945 0.0
C2769 C 0.44864 0.5251 0.81375 0.0
C2770 C 0.49471 0.4981 0.94319 0.0
C2771 C 0.48851 0.49715 0.92431 0.0
C2772 C 0.48878 0.5254 0.88564 0.0
C2773 C 0.4588 0.5102 0.83911 0.0
C2774 C 0.46656 0.5109 0.85881 0.0
C2775 C 0.48841 0.51304 0.91632 0.0
C2776 C 0.48112 0.51211 0.89636 0.0
H2777 H 0.44079 0.47951 0.8005 0.0
H2778 H 0.45475 0.48115 0.83215 0.0
H2779 H 0.48789 0.53521 0.85933 0.0
H2780 H 0.50601 0.5441 0.95475 0.0
H2781 H 0.49493 0.54244 0.92225 0.0
C2782 C 0.80231 0.19367 0.08724 0.0
C2783 C 0.79093 0.17605 0.08289 0.0
C2784 C 0.80202 0.20449 0.10382 0.0
C2785 C 0.78638 0.20277 0.14996 0.0
H2786 H 0.78452 0.25239 0.14636 0.0
C2787 C 0.76021 0.24451 0.2054 0.0
C2788 C 0.77028 0.26238 0.21146 0.0
C2789 C 0.76404 0.23451 0.18996 0.0
C2790 C 0.78524 0.23864 0.14763 0.0
H2791 H 0.77084 0.15569 0.09286 0.0
H2792 H 0.77019 0.17454 0.12155 0.0
H2793 H 0.7899 0.23364 0.11948 0.0
H2794 H 0.79145 0.2844 0.20571 0.0
H2795 H 0.79813 0.26697 0.17843 0.0
H2796 H 0.7813 0.20766 0.17798 0.0
C2797 C 0.77948 0.18 0.1123 0.0
C2798 C 0.78839 0.22791 0.13227 0.0
C2799 C 0.77978 0.16921 0.09577 0.0
C2800 C 0.78361 0.27054 0.2013 0.0
C2801 C 0.78741 0.26058 0.18575 0.0
C2802 C 0.78317 0.21347 0.16527 0.0
C2803 C 0.79036 0.19787 0.11638 0.0
C2804 C 0.78873 0.20977 0.13318 0.0
C2805 C 0.77788 0.24235 0.18014 0.0
C2806 C 0.7823 0.23142 0.16418 0.0
H2807 H 0.81112 0.19931 0.07763 0.0
H2808 H 0.81075 0.21811 0.10669 0.0
H2809 H 0.78689 0.18896 0.15122 0.0
H2810 H 0.74936 0.23826 0.21263 0.0
H2811 H 0.75614 0.22066 0.18566 0.0
C2812 C 0.11251 0.51599 0.28605 0.0
C2813 C 0.10881 0.52327 0.26976 0.0
C2814 C 0.10285 0.51781 0.3008 0.0
C2815 C 0.07483 0.54501 0.32114 0.0
H2816 H 0.06151 0.50411 0.34819 0.0
C2817 C 0.03178 0.54412 0.38149 0.0
C2818 C 0.03825 0.53745 0.39723 0.0
C2819 C 0.03948 0.54264 0.36516 0.0
C2820 C 0.06522 0.51567 0.34081 0.0
H2821 H 0.09209 0.53824 0.25617 0.0
H2822 H 0.07499 0.54124 0.28199 0.0
H2823 H 0.07635 0.50086 0.3208 0.0
H2824 H 0.0583 0.5247 0.40838 0.0
H2825 H 0.0715 0.52191 0.37987 0.0
H2826 H 0.06366 0.55978 0.34132 0.0
C2827 C 0.08553 0.53429 0.28336 0.0
C2828 C 0.07373 0.51383 0.32516 0.0
C2829 C 0.09526 0.5325 0.26856 0.0
C2830 C 0.05272 0.52957 0.39638 0.0
C2831 C 0.06031 0.528 0.38007 0.0
C2832 C 0.0662 0.54682 0.3368 0.0
C2833 C 0.08919 0.52688 0.2996 0.0
C2834 C 0.07892 0.52856 0.31535 0.0
C2835 C 0.05369 0.53439 0.36427 0.0
C2836 C 0.06162 0.53225 0.34694 0.0
H2837 H 0.12294 0.5089 0.28747 0.0
H2838 H 0.10622 0.51226 0.31326 0.0
H2839 H 0.07879 0.55664 0.31395 0.0
H2840 H 0.02055 0.55013 0.38167 0.0
H2841 H 0.03407 0.54759 0.35311 0.0
C2842 C 0.7646 0.8548 0.58153 0.0
C2843 C 0.75721 0.84235 0.56538 0.0
C2844 C 0.76427 0.84922 0.59915 0.0
C2845 C 0.7599 0.80816 0.62268 0.0
H2846 H 0.74872 0.83806 0.66371 0.0
C2847 C 0.7477 0.7807 0.69164 0.0
C2848 C 0.75431 0.79243 0.70841 0.0
C2849 C 0.74769 0.78736 0.67461 0.0
C2850 C 0.75209 0.82962 0.6525 0.0
H2851 H 0.74366 0.81417 0.55528 0.0
H2852 H 0.74312 0.80447 0.58586 0.0
H2853 H 0.74974 0.84851 0.63341 0.0
H2854 H 0.76572 0.8206 0.72024 0.0
H2855 H 0.76595 0.83224 0.69045 0.0
H2856 H 0.76246 0.78937 0.64165 0.0
C2857 C 0.74931 0.81856 0.58494 0.0
C2858 C 0.75266 0.83562 0.63507 0.0
C2859 C 0.74954 0.82416 0.56735 0.0
C2860 C 0.76046 0.81116 0.70765 0.0
C2861 C 0.76056 0.81784 0.69051 0.0
C2862 C 0.75942 0.80221 0.64008 0.0
C2863 C 0.75666 0.831 0.60111 0.0
C2864 C 0.75644 0.8249 0.61986 0.0
C2865 C 0.75443 0.80598 0.6737 0.0
C2866 C 0.75535 0.81274 0.65525 0.0
H2867 H 0.77061 0.86893 0.5806 0.0
H2868 H 0.77022 0.85915 0.61123 0.0
H2869 H 0.76322 0.79968 0.61145 0.0
H2870 H 0.74267 0.76622 0.69161 0.0
H2871 H 0.74241 0.77781 0.6621 0.0
C2872 C 0.70138 0.41978 0.51045 0.0
C2873 C 0.71418 0.4255 0.4987 0.0
C2874 C 0.69029 0.43071 0.51578 0.0
C2875 C 0.68738 0.47832 0.51998 0.0
H2876 H 0.63763 0.45677 0.52416 0.0
C2877 C 0.63443 0.51911 0.52899 0.0
C2878 C 0.62169 0.51327 0.54079 0.0
C2879 C 0.64697 0.50933 0.52532 0.0
C2880 C 0.65156 0.46296 0.5233 0.0
H2881 H 0.72503 0.44694 0.48286 0.0
H2882 H 0.70539 0.46583 0.49184 0.0
H2883 H 0.6563 0.43742 0.51371 0.0
H2884 H 0.61296 0.49343 0.55907 0.0
H2885 H 0.63481 0.47632 0.55259 0.0
H2886 H 0.68245 0.50393 0.52929 0.0
C2887 C 0.7042 0.45308 0.49727 0.0
C2888 C 0.66226 0.45188 0.51729 0.0
C2889 C 0.71535 0.44217 0.492 0.0
C2890 C 0.6224 0.49806 0.54965 0.0
C2891 C 0.63488 0.48826 0.54593 0.0
C2892 C 0.67663 0.48943 0.5259 0.0
C2893 C 0.69169 0.44756 0.50939 0.0
C2894 C 0.68029 0.45941 0.51557 0.0
C2895 C 0.64696 0.49351 0.53335 0.0
C2896 C 0.65863 0.48184 0.52765 0.0
H2897 H 0.70018 0.40705 0.51593 0.0
H2898 H 0.68093 0.42614 0.5253 0.0
H2899 H 0.7013 0.48451 0.51909 0.0
H2900 H 0.63411 0.53066 0.52181 0.0
H2901 H 0.65607 0.51363 0.51548 0.0
C2902 C 0.20322 0.12371 0.50108 0.0
C2903 C 0.20397 0.13957 0.49285 0.0
C2904 C 0.18673 0.11162 0.5021 0.0
C2905 C 0.13868 0.11005 0.50117 0.0
H2906 H 0.13158 0.0578 0.49309 0.0
C2907 C 0.06856 0.06167 0.49547 0.0
C2908 C 0.06663 0.04618 0.50452 0.0
C2909 C 0.08551 0.07223 0.49364 0.0
C2910 C 0.13339 0.07236 0.49558 0.0
H2911 H 0.18789 0.15485 0.47881 0.0
H2912 H 0.15928 0.13376 0.48041 0.0
H2913 H 0.16077 0.07774 0.49056 0.0
H2914 H 0.08117 0.02947 0.51836 0.0
H2915 H 0.11085 0.04805 0.51528 0.0
H2916 H 0.11144 0.10479 0.50624 0.0
C2917 C 0.1714 0.13079 0.48637 0.0
C2918 C 0.15013 0.0838 0.49412 0.0
C2919 C 0.18785 0.14284 0.48534 0.0
C2920 C 0.08214 0.04128 0.5113 0.0
C2921 C 0.09917 0.05191 0.50947 0.0
C2922 C 0.12201 0.09866 0.50262 0.0
C2923 C 0.17059 0.11512 0.49494 0.0
C2924 C 0.15294 0.1028 0.49676 0.0
C2925 C 0.10106 0.06767 0.50085 0.0
C2926 C 0.11907 0.07966 0.49971 0.0
H2927 H 0.21537 0.12076 0.50701 0.0
H2928 H 0.18662 0.09977 0.50892 0.0
H2929 H 0.14044 0.1246 0.50371 0.0
H2930 H 0.05696 0.06582 0.48992 0.0
H2931 H 0.08641 0.08404 0.48658 0.0
C2932 C 0.15531 0.97875 0.77391 0.0
C2933 C 0.13654 0.97231 0.77081 0.0
C2934 C 0.16619 0.96664 0.77307 0.0
C2935 C 0.16565 0.9183 0.7751 0.0
H2936 H 0.20844 0.93022 0.75127 0.0
C2937 C 0.20635 0.86603 0.75769 0.0
C2938 C 0.22513 0.87225 0.76003 0.0
C2939 C 0.19568 0.87827 0.75948 0.0
C2940 C 0.19667 0.92676 0.75818 0.0
H2941 H 0.11457 0.948 0.76447 0.0
H2942 H 0.13351 0.92694 0.76286 0.0
H2943 H 0.18969 0.95141 0.75355 0.0
H2944 H 0.24735 0.89633 0.76654 0.0
H2945 H 0.22878 0.91764 0.76968 0.0
H2946 H 0.17261 0.89362 0.77968 0.0
C2947 C 0.13984 0.94135 0.76616 0.0
C2948 C 0.1859 0.93893 0.7595 0.0
C2949 C 0.12895 0.95346 0.76698 0.0
C2950 C 0.23294 0.89105 0.76434 0.0
C2951 C 0.22227 0.90329 0.76614 0.0
C2952 C 0.17643 0.90612 0.77379 0.0
C2953 C 0.15861 0.94777 0.76912 0.0
C2954 C 0.17021 0.93487 0.76794 0.0
C2955 C 0.20348 0.89708 0.76367 0.0
C2956 C 0.19208 0.91016 0.76528 0.0
H2957 H 0.16163 -0.00683 0.77696 0.0
H2958 H 0.18057 0.97209 0.77568 0.0
H2959 H 0.15384 0.91482 0.78195 0.0
H2960 H 0.19984 0.85169 0.75407 0.0
H2961 H 0.18127 0.87298 0.7572 0.0
C2962 C 0.31933 0.94658 -0.0074 0.0
C2963 C 0.31068 0.94472 0.00846 0.0
C2964 C 0.33732 0.95594 -0.00581 0.0
C2965 C 0.3783 0.96735 0.0268 0.0
H2966 H 0.39694 -0.0003 -0.00771 0.0
C2967 C 0.45362 0.00137 0.03158 0.0
C2968 C 0.46078 0.00177 0.01474 0.0
C2969 C 0.43513 -0.00358 0.03167 0.0
C2970 C 0.39194 -0.00941 0.00194 0.0
H2971 H 0.31394 0.95169 0.03837 0.0
H2972 H 0.34547 0.96796 0.04113 0.0
H2973 H 0.36465 -0.01228 -0.00913 0.0
H2974 H 0.45417 -0.00265 0.98479 0.0
H2975 H 0.42196 -0.0117 0.98494 0.0
H2976 H 0.4055 0.96967 0.03751 0.0
C2977 C 0.3383 0.96209 0.0275 0.0
C2978 C 0.37348 0.9838 0.00116 0.0
C2979 C 0.32025 0.95284 0.0259 0.0
C2980 C 0.44908 -0.00276 -0.002 0.0
C2981 C 0.4306 -0.00782 -0.00191 0.0
C2982 C 0.39675 0.97404 0.02751 0.0
C2983 C 0.34705 0.96352 0.01168 0.0
C2984 C 0.3665 0.97195 0.01344 0.0
C2985 C 0.42341 -0.00835 0.01492 0.0
C2986 C 0.40379 0.98555 0.01494 0.0
H2987 H 0.31229 0.94053 0.97896 0.0
H2988 H 0.34379 0.9567 0.98179 0.0
H2989 H 0.37328 0.95803 0.03627 0.0
H2990 H 0.46227 0.00493 0.04474 0.0
H2991 H 0.43002 -0.00361 0.04487 0.0
C2992 C 0.8386 0.55752 0.76695 0.0
C2993 C 0.8539 0.56305 0.78032 0.0
C2994 C 0.82826 0.56949 0.76313 0.0
C2995 C 0.817 0.6104 0.78312 0.0
H2996 H 0.79957 0.61267 0.73207 0.0
C2997 C 0.78093 0.66393 0.76275 0.0
C2998 C 0.76612 0.65828 0.74879 0.0
C2999 C 0.79158 0.65228 0.76675 0.0
C3000 C 0.80415 0.61201 0.7464 0.0
H3001 H 0.87039 0.5855 0.80016 0.0
H3002 H 0.85223 0.60653 0.79342 0.0
H3003 H 0.81891 0.59281 0.73873 0.0
H3004 H 0.75072 0.63599 0.72817 0.0
H3005 H 0.76931 0.61543 0.73529 0.0
H3006 H 0.80214 0.6295 0.79081 0.0
C3007 C 0.84824 0.59284 0.78601 0.0
C3008 C 0.81526 0.60071 0.7502 0.0
C3009 C 0.85866 0.58085 0.78981 0.0
C3010 C 0.76212 0.6407 0.73893 0.0
C3011 C 0.77277 0.62899 0.74297 0.0
C3012 C 0.80585 0.62168 0.77932 0.0
C3013 C 0.83296 0.58725 0.77261 0.0
C3014 C 0.82174 0.59975 0.7686 0.0
C3015 C 0.78766 0.63471 0.75688 0.0
C3016 C 0.79928 0.62256 0.76092 0.0
H3017 H 0.83453 0.54388 0.7594 0.0
H3018 H 0.81642 0.56474 0.75292 0.0
H3019 H 0.8216 0.60972 0.79744 0.0
H3020 H 0.78458 0.67756 0.7703 0.0
H3021 H 0.80314 0.65719 0.77729 0.0
C3022 C 0.80583 0.63423 -0.00315 0.0
C3023 C 0.79911 0.63859 0.01339 0.0
C3024 C 0.81888 0.62442 -0.00338 0.0
C3025 C 0.83826 0.59363 0.02332 0.0
H3026 H 0.87731 0.6059 -0.00576 0.0
C3027 C 0.89815 0.56162 0.03042 0.0
C3028 C 0.90508 0.55663 0.01421 0.0
C3029 C 0.88551 0.57187 0.03004 0.0
C3030 C 0.86638 0.60214 0.00228 0.0
H3031 H 0.80109 0.63621 0.04273 0.0
H3032 H 0.82388 0.61937 0.04237 0.0
H3033 H 0.85475 0.62317 -0.00598 0.0
H3034 H 0.90409 0.55864 0.98485 0.0
H3035 H 0.88197 0.57645 0.98415 0.0
H3036 H 0.84981 0.57261 0.03157 0.0
C3037 C 0.81889 0.62324 0.02948 0.0
C3038 C 0.85343 0.61207 0.00215 0.0
C3039 C 0.80586 0.63302 0.0297 0.0
C3040 C 0.8992 0.5624 -0.00236 0.0
C3041 C 0.88651 0.57263 -0.00276 0.0
C3042 C 0.85118 0.58372 0.02344 0.0
C3043 C 0.82553 0.61872 0.01293 0.0
C3044 C 0.83923 0.608 0.01274 0.0
C3045 C 0.87939 0.5774 0.01342 0.0
C3046 C 0.86549 0.58788 0.01301 0.0
H3047 H 0.80092 0.63826 0.98401 0.0
H3048 H 0.82353 0.62104 0.98358 0.0
H3049 H 0.82735 0.58985 0.03136 0.0
H3050 H 0.90262 0.55773 0.04351 0.0
H3051 H 0.88065 0.57558 0.04286 0.0
C3052 C 0.16166 0.07986 0.78286 0.0
C3053 C 0.14316 0.07795 0.77865 0.0
C3054 C 0.17397 0.09658 0.78273 0.0
C3055 C 0.17794 0.13883 0.76212 0.0
H3056 H 0.21843 0.15957 0.80038 0.0
C3057 C 0.21609 0.21327 0.76834 0.0
C3058 C 0.2349 0.21811 0.7719 0.0
C3059 C 0.20622 0.19581 0.76973 0.0
C3060 C 0.20733 0.15383 0.78946 0.0
H3061 H 0.12312 0.09231 0.77151 0.0
H3062 H 0.14447 0.1213 0.77131 0.0
H3063 H 0.1986 0.12968 0.80194 0.0
H3064 H 0.25802 0.20835 0.78031 0.0
H3065 H 0.2406 0.1775 0.78263 0.0
H3066 H 0.18648 0.16278 0.7496 0.0
C3067 C 0.14952 0.10985 0.77449 0.0
C3068 C 0.19596 0.13674 0.79037 0.0
C3069 C 0.13725 0.09322 0.77472 0.0
C3070 C 0.24356 0.20507 0.77743 0.0
C3071 C 0.23359 0.18742 0.7788 0.0
C3072 C 0.18927 0.15579 0.76118 0.0
C3073 C 0.16803 0.11169 0.77824 0.0
C3074 C 0.18092 0.12923 0.77688 0.0
C3075 C 0.21479 0.18253 0.77464 0.0
C3076 C 0.20388 0.16371 0.77503 0.0
H3077 H 0.16667 0.06837 0.78598 0.0
H3078 H 0.18814 0.09754 0.78561 0.0
H3079 H 0.16675 0.13324 0.75125 0.0
H3080 H 0.20886 0.22298 0.76435 0.0
H3081 H 0.19176 0.1927 0.76692 0.0
C3082 C 0.32927 0.96818 0.27396 0.0
C3083 C 0.3336 0.97675 0.25844 0.0
C3084 C 0.31939 0.95009 0.27171 0.0
C3085 C 0.31119 0.90839 0.23942 0.0
H3086 H 0.27632 0.88945 0.27125 0.0
C3087 C 0.28171 0.83767 0.26953 0.0
C3088 C 0.2785 0.82507 0.25331 0.0
C3089 C 0.28609 0.85627 0.26859 0.0
C3090 C 0.2861 0.89454 0.26232 0.0
H3091 H 0.33019 0.97335 0.22837 0.0
H3092 H 0.31294 0.94168 0.22446 0.0
H3093 H 0.28747 0.92223 0.27229 0.0
H3094 H 0.27716 0.82213 0.22334 0.0
H3095 H 0.28469 0.85466 0.22172 0.0
H3096 H 0.31032 0.88077 0.22989 0.0
C3097 C 0.31735 0.94896 0.23835 0.0
C3098 C 0.29242 0.91328 0.26288 0.0
C3099 C 0.32715 0.9671 0.24061 0.0
C3100 C 0.27968 0.83148 0.23611 0.0
C3101 C 0.28402 0.85012 0.23518 0.0
C3102 C 0.30491 0.88964 0.23891 0.0
C3103 C 0.31369 0.94017 0.25389 0.0
C3104 C 0.30529 0.9204 0.2517 0.0
C3105 C 0.28729 0.86271 0.25142 0.0
C3106 C 0.29258 0.88252 0.25063 0.0
H3107 H 0.33398 0.97526 0.28789 0.0
H3108 H 0.31693 0.94364 0.28395 0.0
H3109 H 0.32128 0.91347 0.23081 0.0
H3110 H 0.28096 0.8332 0.28301 0.0
H3111 H 0.28886 0.86561 0.28139 0.0
C3112 C 0.54328 0.35449 0.5955 0.0
C3113 C 0.5356 0.33669 0.58631 0.0
C3114 C 0.54114 0.36983 0.58752 0.0
C3115 C 0.52642 0.38591 0.54274 0.0
H3116 H 0.52512 0.42812 0.5764 0.0
C3117 C 0.50945 0.45107 0.51706 0.0
C3118 C 0.51851 0.46823 0.52707 0.0
C3119 C 0.51142 0.43479 0.52341 0.0
C3120 C 0.52566 0.41661 0.56669 0.0
H3121 H 0.51967 0.32148 0.56095 0.0
H3122 H 0.51563 0.34821 0.54706 0.0
H3123 H 0.52836 0.40076 0.5886 0.0
H3124 H 0.53706 0.48124 0.55174 0.0
H3125 H 0.54047 0.45324 0.56267 0.0
H3126 H 0.52338 0.40191 0.52079 0.0
C3127 C 0.52361 0.35033 0.56052 0.0
C3128 C 0.52759 0.40072 0.57376 0.0
C3129 C 0.52588 0.33487 0.56852 0.0
C3130 C 0.52974 0.46845 0.54356 0.0
C3131 C 0.53162 0.45223 0.54996 0.0
C3132 C 0.52437 0.40185 0.53563 0.0
C3133 C 0.53103 0.36819 0.56998 0.0
C3134 C 0.52823 0.38503 0.562 0.0
C3135 C 0.52241 0.43502 0.54012 0.0
C3136 C 0.52413 0.41761 0.54749 0.0
H3137 H 0.55103 0.35668 0.6091 0.0
H3138 H 0.5476 0.38309 0.59524 0.0
H3139 H 0.52698 0.3744 0.53305 0.0
H3140 H 0.50065 0.45017 0.50434 0.0
H3141 H 0.50396 0.42197 0.5154 0.0
C3142 C 0.43187 0.75046 0.36863 0.0
C3143 C 0.43054 0.74919 0.3875 0.0
C3144 C 0.4171 0.75171 0.35642 0.0
C3145 C 0.36718 0.74331 0.35115 0.0
H3146 H 0.37436 0.77695 0.3152 0.0
C3147 C 0.30694 0.76055 0.3095 0.0
C3148 C 0.30808 0.76406 0.29113 0.0
C3149 C 0.32186 0.75848 0.32084 0.0
C3150 C 0.37203 0.76727 0.32494 0.0
H3151 H 0.4123 0.74802 0.40808 0.0
H3152 H 0.38677 0.75007 0.38697 0.0
H3153 H 0.40006 0.77334 0.3351 0.0
H3154 H 0.32613 0.768 0.27041 0.0
H3155 H 0.3519 0.76409 0.28991 0.0
H3156 H 0.33921 0.7371 0.34099 0.0
C3157 C 0.39916 0.75001 0.38148 0.0
C3158 C 0.38687 0.76521 0.33643 0.0
C3159 C 0.41392 0.74891 0.39368 0.0
C3160 C 0.32466 0.76542 0.28448 0.0
C3161 C 0.33956 0.76327 0.29578 0.0
C3162 C 0.35235 0.74529 0.33961 0.0
C3163 C 0.4005 0.75156 0.36267 0.0
C3164 C 0.3847 0.75328 0.34983 0.0
C3165 C 0.33846 0.75975 0.31419 0.0
C3166 C 0.35446 0.7574 0.32636 0.0
H3167 H 0.44442 0.75078 0.36332 0.0
H3168 H 0.41868 0.7527 0.34203 0.0
H3169 H 0.36488 0.73375 0.36103 0.0
H3170 H 0.29449 0.75947 0.31523 0.0
H3171 H 0.32038 0.75612 0.33496 0.0
C3172 C 0.02213 0.71779 0.07753 0.0
C3173 C 0.03304 0.73067 0.0685 0.0
C3174 C 0.01994 0.69898 0.07247 0.0
C3175 C 0.02768 0.66481 0.03462 0.0
H3176 H 0.02062 0.6325 0.07181 0.0
C3177 C 0.03093 0.58906 0.02019 0.0
C3178 C 0.01839 0.57585 0.02729 0.0
C3179 C 0.03259 0.60777 0.02516 0.0
C3180 C 0.02243 0.64125 0.06115 0.0
H3181 H 0.05029 0.73342 0.04698 0.0
H3182 H 0.04691 0.70113 0.03857 0.0
H3183 H 0.02349 0.66481 0.08041 0.0
H3184 H -0.00215 0.57241 0.04546 0.0
H3185 H 0.00084 0.60476 0.05418 0.0
H3186 H 0.02692 0.64122 0.01546 0.0
C3187 C 0.03957 0.70534 0.04928 0.0
C3188 C 0.02402 0.65994 0.0661 0.0
C3189 C 0.04163 0.72407 0.05423 0.0
C3190 C 0.0077 0.58203 0.03966 0.0
C3191 C 0.00949 0.60071 0.04478 0.0
C3192 C 0.02626 0.64617 0.02973 0.0
C3193 C 0.02869 0.69235 0.05827 0.0
C3194 C 0.0267 0.67215 0.05294 0.0
C3195 C 0.02191 0.61395 0.03757 0.0
C3196 C 0.02359 0.63401 0.04289 0.0
H3197 H 0.01525 0.72223 0.08857 0.0
H3198 H 0.0112 0.68965 0.07965 0.0
H3199 H 0.02932 0.67342 0.02384 0.0
H3200 H 0.03942 0.58496 0.01062 0.0
H3201 H 0.04245 0.61742 0.01941 0.0
C3202 C 0.05097 0.27551 0.89799 0.0
C3203 C 0.03334 0.26555 0.89103 0.0
C3204 C 0.06476 0.2767 0.88691 0.0
C3205 C 0.07778 0.25393 0.84499 0.0
H3206 H 0.11372 0.29959 0.84849 0.0
C3207 C 0.13393 0.26438 0.79713 0.0
C3208 C 0.15098 0.27548 0.80473 0.0
C3209 C 0.1193 0.26297 0.80716 0.0
C3210 C 0.10397 0.28663 0.84747 0.0
H3211 H 0.01652 0.24898 0.86674 0.0
H3212 H 0.04062 0.25105 0.84737 0.0
H3213 H 0.08888 0.29763 0.86649 0.0
H3214 H 0.16594 0.2933 0.82926 0.0
H3215 H 0.14066 0.29072 0.84673 0.0
H3216 H 0.093 0.24288 0.8261 0.0
C3217 C 0.04377 0.25789 0.86151 0.0
C3218 C 0.08963 0.28552 0.85782 0.0
C3219 C 0.02991 0.25679 0.87259 0.0
C3220 C 0.15299 0.28489 0.82276 0.0
C3221 C 0.13841 0.28343 0.83281 0.0
C3222 C 0.09219 0.25502 0.83467 0.0
C3223 C 0.06142 0.26789 0.86851 0.0
C3224 C 0.07636 0.26913 0.85685 0.0
C3225 C 0.12127 0.27256 0.82514 0.0
C3226 C 0.1056 0.27137 0.83584 0.0
H3227 H 0.05421 0.28242 0.9121 0.0
H3228 H 0.07816 0.28431 0.89293 0.0
H3229 H 0.06797 0.24102 0.84401 0.0
H3230 H 0.13176 0.25709 0.78321 0.0
H3231 H 0.10634 0.25464 0.80061 0.0
C3232 C 0.5169 0.73732 0.88085 0.0
C3233 C 0.52869 0.75412 0.88873 0.0
C3234 C 0.51462 0.72221 0.89051 0.0
C3235 C 0.521 0.70971 0.93814 0.0
H3236 H 0.5178 0.66182 0.91247 0.0
C3237 C 0.52373 0.6492 0.9785 0.0
C3238 C 0.51315 0.63174 0.9709 0.0
C3239 C 0.5254 0.66381 0.96824 0.0
C3240 C 0.51843 0.67503 0.91988 0.0
H3241 H 0.54729 0.768 0.91309 0.0
H3242 H 0.54334 0.74187 0.92978 0.0
H3243 H 0.52071 0.68757 0.89513 0.0
H3244 H 0.4959 0.61622 0.94633 0.0
H3245 H 0.49866 0.64161 0.92855 0.0
H3246 H 0.5186 0.69726 0.96284 0.0
C3247 C 0.5357 0.74033 0.91621 0.0
C3248 C 0.52012 0.68986 0.90989 0.0
C3249 C 0.53806 0.75535 0.90653 0.0
C3250 C 0.50438 0.62936 0.95262 0.0
C3251 C 0.50599 0.644 0.94238 0.0
C3252 C 0.51924 0.6949 0.94811 0.0
C3253 C 0.52395 0.7235 0.90838 0.0
C3254 C 0.52156 0.70747 0.91888 0.0
C3255 C 0.51647 0.66151 0.95003 0.0
C3256 C 0.51804 0.6773 0.9392 0.0
H3257 H 0.50944 0.73581 0.86719 0.0
H3258 H 0.50533 0.70956 0.88406 0.0
H3259 H 0.52173 0.72295 0.94556 0.0
H3260 H 0.53096 0.65158 -0.00763 0.0
H3261 H 0.53391 0.67691 0.97458 0.0
C3262 C 0.05957 0.72433 0.70075 0.0
C3263 C 0.05161 0.73887 0.69899 0.0
C3264 C 0.07799 0.72731 0.70654 0.0
C3265 C 0.11953 0.76236 0.72975 0.0
H3266 H 0.14339 0.72836 0.70712 0.0
C3267 C 0.1975 0.77392 0.74364 0.0
C3268 C 0.20478 0.75877 0.74392 0.0
C3269 C 0.17905 0.77184 0.7384 0.0
C3270 C 0.13704 0.73791 0.71387 0.0
H3271 H 0.05737 0.76821 0.70244 0.0
H3272 H 0.0896 0.77348 0.71259 0.0
H3273 H 0.11162 0.72458 0.69787 0.0
H3274 H 0.19774 0.72937 0.73887 0.0
H3275 H 0.16575 0.7257 0.73003 0.0
H3276 H 0.14502 0.77567 0.7458 0.0
C3277 C 0.08142 0.75963 0.70954 0.0
C3278 C 0.11861 0.73574 0.70849 0.0
C3279 C 0.06284 0.75662 0.70367 0.0
C3280 C 0.19283 0.74143 0.7388 0.0
C3281 C 0.17435 0.73934 0.73358 0.0
C3282 C 0.13801 0.76452 0.73517 0.0
C3283 C 0.0894 0.74498 0.71084 0.0
C3284 C 0.10941 0.74783 0.71638 0.0
C3285 C 0.16705 0.75451 0.73323 0.0
C3286 C 0.14716 0.75229 0.7274 0.0
H3287 H 0.05155 0.71042 0.69744 0.0
H3288 H 0.08325 0.71559 0.7077 0.0
H3289 H 0.11311 0.77191 0.7364 0.0
H3290 H 0.20609 0.78755 0.74739 0.0
H3291 H 0.17429 0.78397 0.73813 0.0
C3292 C 0.01808 0.35791 0.37175 0.0
C3293 C 0.02511 0.34376 0.37735 0.0
C3294 C 0.01831 0.37317 0.38434 0.0
C3295 C 0.02226 0.38995 0.4349 0.0
H3296 H 0.02926 0.43687 0.41767 0.0
C3297 C 0.02716 0.45674 0.48464 0.0
C3298 C 0.01924 0.46981 0.47776 0.0
C3299 C 0.02849 0.44144 0.47287 0.0
C3300 C 0.02706 0.42388 0.42274 0.0
H3301 H 0.03799 0.33486 0.40095 0.0
H3302 H 0.03856 0.36163 0.42297 0.0
H3303 H 0.03092 0.41055 0.39678 0.0
H3304 H 0.00648 0.47675 0.45281 0.0
H3305 H 0.00867 0.45022 0.43246 0.0
H3306 H 0.01837 0.40337 0.46089 0.0
C3307 C 0.03269 0.3608 0.40874 0.0
C3308 C 0.02803 0.40867 0.41068 0.0
C3309 C 0.03249 0.34545 0.39606 0.0
C3310 C 0.0127 0.46708 0.45871 0.0
C3311 C 0.01408 0.45183 0.44695 0.0
C3312 C 0.0213 0.40521 0.44699 0.0
C3313 C 0.02558 0.37494 0.40308 0.0
C3314 C 0.02547 0.39137 0.41645 0.0
C3315 C 0.02201 0.43873 0.45379 0.0
C3316 C 0.02352 0.42242 0.44107 0.0
H3317 H 0.01217 0.35719 0.35754 0.0
H3318 H 0.01239 0.38346 0.37936 0.0
H3319 H 0.01999 0.37692 0.4399 0.0
H3320 H 0.0324 0.45829 0.49918 0.0
H3321 H 0.03488 0.43188 0.47873 0.0
C3322 C 0.4462 0.27123 0.20198 0.0
C3323 C 0.45165 0.25518 0.19748 0.0
C3324 C 0.42977 0.27091 0.20861 0.0
C3325 C 0.38406 0.24099 0.21095 0.0
H3326 H 0.38187 0.28066 0.24751 0.0
C3327 C 0.31709 0.24411 0.24156 0.0
C3328 C 0.31412 0.26129 0.24691 0.0
C3329 C 0.33365 0.24242 0.23605 0.0
C3330 C 0.38196 0.26955 0.23706 0.0
H3331 H 0.44338 0.22599 0.19663 0.0
H3332 H 0.41459 0.22538 0.20817 0.0
H3333 H 0.41032 0.2793 0.23737 0.0
H3334 H 0.32673 0.29017 0.25017 0.0
H3335 H 0.35492 0.28732 0.2404 0.0
H3336 H 0.35558 0.23138 0.21049 0.0
C3337 C 0.42321 0.23834 0.2065 0.0
C3338 C 0.39852 0.26874 0.23123 0.0
C3339 C 0.43988 0.23869 0.2 0.0
C3340 C 0.32832 0.27664 0.24641 0.0
C3341 C 0.34476 0.27497 0.24085 0.0
C3342 C 0.36739 0.24187 0.21672 0.0
C3343 C 0.41782 0.2545 0.21096 0.0
C3344 C 0.39997 0.25457 0.21789 0.0
C3345 C 0.34792 0.25784 0.23561 0.0
C3346 C 0.36591 0.2563 0.22978 0.0
H3347 H 0.45465 0.28427 0.20025 0.0
H3348 H 0.42628 0.28367 0.2115 0.0
H3349 H 0.38436 0.22989 0.20058 0.0
H3350 H 0.30663 0.23188 0.24168 0.0
H3351 H 0.33528 0.22891 0.23238 0.0
C3352 C 0.59329 0.52213 0.335 0.0
C3353 C 0.58085 0.51565 0.31884 0.0
C3354 C 0.58779 0.52154 0.35262 0.0
C3355 C 0.5476 0.5184 0.37656 0.0
H3356 H 0.57575 0.50398 0.41625 0.0
C3357 C 0.51981 0.50456 0.44482 0.0
C3358 C 0.53139 0.51071 0.4616 0.0
C3359 C 0.52644 0.50471 0.42779 0.0
C3360 C 0.56782 0.50824 0.40541 0.0
H3361 H 0.5528 0.50342 0.30869 0.0
H3362 H 0.54324 0.50237 0.33929 0.0
H3363 H 0.58614 0.50547 0.38594 0.0
H3364 H 0.55921 0.52137 0.47351 0.0
H3365 H 0.57081 0.52182 0.4437 0.0
H3366 H 0.52936 0.52132 0.39591 0.0
C3367 C 0.55725 0.50808 0.33837 0.0
C3368 C 0.57378 0.50909 0.38799 0.0
C3369 C 0.56276 0.5086 0.32078 0.0
C3370 C 0.5499 0.51648 0.46088 0.0
C3371 C 0.55655 0.5167 0.44376 0.0
C3372 C 0.54169 0.51761 0.39393 0.0
C3373 C 0.56967 0.51454 0.35455 0.0
C3374 C 0.56367 0.51405 0.37329 0.0
C3375 C 0.54486 0.51112 0.42695 0.0
C3376 C 0.5516 0.51236 0.40858 0.0
H3377 H 0.60734 0.52764 0.33406 0.0
H3378 H 0.5977 0.5268 0.36474 0.0
H3379 H 0.53964 0.52264 0.36572 0.0
H3380 H 0.50549 0.49984 0.44477 0.0
H3381 H 0.51703 0.49986 0.41522 0.0
C3382 C 0.23498 0.85371 0.02937 0.0
C3383 C 0.24897 0.86895 0.02828 0.0
C3384 C 0.23745 0.84136 0.04142 0.0
C3385 C 0.27293 0.82544 0.06641 0.0
H3386 H 0.23708 0.80793 0.09774 0.0
C3387 C 0.2877 0.79337 0.13162 0.0
C3388 C 0.27412 0.77962 0.13646 0.0
C3389 C 0.28443 0.80192 0.11626 0.0
C3390 C 0.24708 0.8124 0.08883 0.0
H3391 H 0.27636 0.88343 0.03932 0.0
H3392 H 0.28056 0.862 0.06042 0.0
H3393 H 0.23137 0.82792 0.07549 0.0
H3394 H 0.2469 0.76316 0.12837 0.0
H3395 H 0.24121 0.778 0.10138 0.0
H3396 H 0.28876 0.81015 0.07992 0.0
C3397 C 0.2678 0.85944 0.05174 0.0
C3398 C 0.24382 0.8239 0.07614 0.0
C3399 C 0.26533 0.87179 0.03976 0.0
C3400 C 0.25752 0.77392 0.12509 0.0
C3401 C 0.25426 0.78243 0.10969 0.0
C3402 C 0.27618 0.81391 0.07906 0.0
C3403 C 0.25396 0.844 0.05254 0.0
C3404 C 0.25685 0.83078 0.06504 0.0
C3405 C 0.26753 0.79685 0.1054 0.0
C3406 C 0.26341 0.80751 0.09062 0.0
H3407 H 0.22223 0.85113 0.02067 0.0
H3408 H 0.22657 0.82953 0.04173 0.0
H3409 H 0.28307 0.83029 0.05776 0.0
H3410 H 0.30056 0.79819 0.14025 0.0
H3411 H 0.29487 0.81313 0.11346 0.0
C3412 C 0.9155 0.52842 0.83449 0.0
C3413 C 0.9161 0.51624 0.81892 0.0
C3414 C 0.92868 0.53195 0.84983 0.0
C3415 C 0.96123 0.51118 0.87279 0.0
H3416 H 0.97713 0.55838 0.90315 0.0
C3417 C 0.00586 0.5215 0.94261 0.0
C3418 C -0.00132 0.52933 0.9573 0.0
C3419 C -0.00045 0.52241 0.92427 0.0
C3420 C 0.97286 0.54516 0.89474 0.0
H3421 H 0.9313 0.49868 0.80693 0.0
H3422 H 0.95443 0.50501 0.83364 0.0
H3423 H 0.95869 0.55503 0.87324 0.0
H3424 H 0.98013 0.54525 0.96438 0.0
H3425 H 0.96913 0.54678 0.93245 0.0
H3426 H 0.97498 0.50121 0.89448 0.0
C3427 C 0.9436 0.51159 0.83412 0.0
C3428 C 0.96227 0.54321 0.87768 0.0
C3429 C 0.93037 0.50799 0.81881 0.0
C3430 C 0.98583 0.53896 0.95335 0.0
C3431 C 0.97964 0.53998 0.93506 0.0
C3432 C 0.97189 0.51315 0.88978 0.0
C3433 C 0.94279 0.52345 0.84988 0.0
C3434 C 0.95593 0.52609 0.86676 0.0
C3435 C 0.98609 0.53132 0.92034 0.0
C3436 C 0.9774 0.53004 0.90114 0.0
H3437 H 0.90467 0.535 0.83498 0.0
H3438 H 0.9275 0.54092 0.86187 0.0
H3439 H 0.9564 0.49777 0.86483 0.0
H3440 H 0.01584 0.51405 0.94522 0.0
H3441 H 0.00484 0.51575 0.91315 0.0
C3442 C 0.26588 0.20011 0.56536 0.0
C3443 C 0.2536 0.20289 0.55119 0.0
C3444 C 0.26597 0.2072 0.58386 0.0
C3445 C 0.25096 0.24141 0.61399 0.0
H3446 H 0.25613 0.21003 0.65106 0.0
C3447 C 0.24355 0.25999 0.69208 0.0
C3448 C 0.2556 0.25529 0.70516 0.0
C3449 C 0.24269 0.25412 0.67302 0.0
C3450 C 0.25486 0.21909 0.64096 0.0
H3451 H 0.23209 0.21581 0.54543 0.0
H3452 H 0.23228 0.22815 0.57764 0.0
H3453 H 0.2565 0.1993 0.61864 0.0
H3454 H 0.27658 0.24112 0.70817 0.0
H3455 H 0.2752 0.23127 0.67545 0.0
H3456 H 0.24944 0.26125 0.63646 0.0
C3457 C 0.2419 0.22054 0.57445 0.0
C3458 C 0.2551 0.21292 0.62231 0.0
C3459 C 0.24175 0.21337 0.55596 0.0
C3460 C 0.26691 0.24486 0.69866 0.0
C3461 C 0.26607 0.23907 0.67977 0.0
C3462 C 0.25079 0.24763 0.63273 0.0
C3463 C 0.25384 0.21734 0.5887 0.0
C3464 C 0.25332 0.22402 0.60856 0.0
C3465 C 0.25385 0.24342 0.66664 0.0
C3466 C 0.25294 0.23662 0.6465 0.0
H3467 H 0.27523 0.19215 0.56223 0.0
H3468 H 0.27556 0.2047 0.59441 0.0
H3469 H 0.24966 0.25038 0.6038 0.0
H3470 H 0.23468 0.26803 0.69655 0.0
H3471 H 0.23306 0.25768 0.66332 0.0
C3472 C 0.57585 0.52837 0.21713 0.0
C3473 C 0.58498 0.51467 0.21822 0.0
C3474 C 0.56646 0.53004 0.20021 0.0
C3475 C 0.54616 0.50416 0.15393 0.0
H3476 H 0.55391 0.55113 0.13667 0.0
C3477 C 0.53514 0.51017 0.07685 0.0
C3478 C 0.5274 0.52363 0.07065 0.0
C3479 C 0.53968 0.50982 0.0957 0.0
C3480 C 0.55133 0.53796 0.1414 0.0
H3481 H 0.59101 0.49179 0.20241 0.0
H3482 H 0.57462 0.49457 0.17323 0.0
H3483 H 0.56625 0.54897 0.16828 0.0
H3484 H 0.51834 0.54733 0.07973 0.0
H3485 H 0.52648 0.54679 0.11304 0.0
H3486 H 0.5316 0.49304 0.12708 0.0
C3487 C 0.57463 0.50402 0.18537 0.0
C3488 C 0.55842 0.53672 0.15952 0.0
C3489 C 0.58414 0.50249 0.20213 0.0
C3490 C 0.52427 0.53678 0.08399 0.0
C3491 C 0.529 0.53651 0.10305 0.0
C3492 C 0.53907 0.5054 0.13592 0.0
C3493 C 0.56577 0.51789 0.1841 0.0
C3494 C 0.55635 0.51971 0.16582 0.0
C3495 C 0.53668 0.52292 0.10911 0.0
C3496 C 0.542 0.52223 0.12919 0.0
H3497 H 0.57631 0.53805 0.22923 0.0
H3498 H 0.55972 0.54082 0.19975 0.0
H3499 H 0.54394 0.4909 0.15843 0.0
H3500 H 0.53773 0.49971 0.06711 0.0
H3501 H 0.54585 0.49935 0.09974 0.0
C3502 C 0.24557 0.86641 0.93362 0.0
C3503 C 0.25215 0.86182 0.9505 0.0
C3504 C 0.2413 0.85367 0.91762 0.0
C3505 C 0.25213 0.81196 0.89795 0.0
H3506 H 0.21596 0.81347 0.85793 0.0
C3507 C 0.24454 0.77048 0.8255 0.0
C3508 C 0.24672 0.78198 0.81179 0.0
C3509 C 0.24124 0.77692 0.84308 0.0
C3510 C 0.22597 0.81278 0.86908 0.0
H3511 H 0.25859 0.84006 0.96415 0.0
H3512 H 0.25072 0.81767 0.93632 0.0
H3513 H 0.21737 0.83088 0.8883 0.0
H3514 H 0.24608 0.80872 0.80518 0.0
H3515 H 0.24003 0.81981 0.8357 0.0
H3516 H 0.26088 0.79409 0.87855 0.0
C3517 C 0.24931 0.83124 0.93529 0.0
C3518 C 0.22689 0.82283 0.88641 0.0
C3519 C 0.25378 0.84406 0.95125 0.0
C3520 C 0.24464 0.79964 0.81558 0.0
C3521 C 0.241 0.80593 0.83296 0.0
C3522 C 0.25105 0.80173 0.88069 0.0
C3523 C 0.24331 0.83598 0.91822 0.0
C3524 C 0.2404 0.82306 0.90084 0.0
C3525 C 0.23964 0.79477 0.84697 0.0
C3526 C 0.23836 0.80256 0.86597 0.0
H3527 H 0.24418 0.88001 0.93263 0.0
H3528 H 0.23704 0.85793 0.90467 0.0
H3529 H 0.26284 0.81194 0.90864 0.0
H3530 H 0.24608 0.7568 0.82288 0.0
H3531 H 0.24024 0.7681 0.85371 0.0
C3532 C 0.92723 0.53585 0.74187 0.0
C3533 C 0.91144 0.52243 0.74244 0.0
C3534 C 0.93888 0.53303 0.72924 0.0
C3535 C 0.95128 0.49671 0.70047 0.0
H3536 H 0.97119 0.53518 0.67259 0.0
C3537 C 0.98363 0.48494 0.63444 0.0
C3538 C -0.00182 0.49864 0.63122 0.0
C3539 C 0.97477 0.4875 0.64975 0.0
C3540 C 0.966 0.5244 0.6805 0.0
H3541 H 0.89536 0.49561 0.73007 0.0
H3542 H 0.91561 0.4908 0.70792 0.0
H3543 H 0.95196 0.54062 0.69563 0.0
H3544 H 0.01565 0.52522 0.64205 0.0
H3545 H 0.00028 0.52963 0.66892 0.0
H3546 H 0.96514 0.48042 0.68514 0.0
C3547 C 0.9191 0.50338 0.71741 0.0
C3548 C 0.95495 0.52751 0.69366 0.0
C3549 C 0.90744 0.50621 0.73 0.0
C3550 C 0.00428 0.51456 0.64407 0.0
C3551 C -0.00453 0.51709 0.6594 0.0
C3552 C 0.96235 0.4936 0.68732 0.0
C3553 C 0.93498 0.51672 0.71698 0.0
C3554 C 0.94733 0.51364 0.70363 0.0
C3555 C 0.98035 0.50378 0.66214 0.0
C3556 C 0.96969 0.50737 0.67707 0.0
H3557 H 0.93071 0.54846 0.75132 0.0
H3558 H 0.9511 0.54349 0.7293 0.0
H3559 H 0.9458 0.48587 0.70818 0.0
H3560 H 0.97852 0.47262 0.62464 0.0
H3561 H 0.96305 0.47707 0.65137 0.0
C3562 C 0.26775 0.20285 0.44839 0.0
C3563 C 0.25836 0.1845 0.44717 0.0
C3564 C 0.26975 0.21123 0.43233 0.0
C3565 C 0.26652 0.19975 0.38082 0.0
H3566 H 0.26572 0.25005 0.3804 0.0
C3567 C 0.2567 0.22998 0.31292 0.0
C3568 C 0.26749 0.24731 0.31165 0.0
C3569 C 0.25686 0.22293 0.32975 0.0
C3570 C 0.26617 0.23604 0.38035 0.0
H3571 H 0.24322 0.16079 0.42807 0.0
H3572 H 0.2462 0.17537 0.40039 0.0
H3573 H 0.26318 0.23678 0.40919 0.0
H3574 H 0.2869 0.27084 0.32723 0.0
H3575 H 0.28702 0.25857 0.35677 0.0
H3576 H 0.26903 0.19888 0.3519 0.0
C3577 C 0.25256 0.18325 0.4136 0.0
C3578 C 0.26474 0.22841 0.39688 0.0
C3579 C 0.25071 0.17489 0.42957 0.0
C3580 C 0.27849 0.25742 0.32769 0.0
C3581 C 0.27846 0.25044 0.34465 0.0
C3582 C 0.26776 0.20731 0.36431 0.0
C3583 C 0.26231 0.20148 0.41465 0.0
C3584 C 0.26468 0.21006 0.39731 0.0
C3585 C 0.26766 0.23309 0.34586 0.0
C3586 C 0.26741 0.22549 0.36379 0.0
H3587 H 0.27387 0.21065 0.46172 0.0
H3588 H 0.27747 0.22522 0.43377 0.0
H3589 H 0.26704 0.18575 0.38059 0.0
H3590 H 0.24806 0.22179 0.30088 0.0
H3591 H 0.24824 0.20961 0.33021 0.0
C3592 C 0.30103 0.57992 0.54483 0.0
C3593 C 0.29815 0.59012 0.53054 0.0
C3594 C 0.30974 0.5661 0.54209 0.0
C3595 C 0.32188 0.53606 0.50548 0.0
H3596 H 0.36194 0.53667 0.54198 0.0
C3597 C 0.38061 0.50741 0.4882 0.0
C3598 C 0.3898 0.50033 0.50189 0.0
C3599 C 0.36625 0.51443 0.49212 0.0
C3600 C 0.35054 0.53598 0.53183 0.0
H3601 H 0.30196 0.59372 0.50212 0.0
H3602 H 0.3172 0.56971 0.4974 0.0
H3603 H 0.34285 0.55686 0.54837 0.0
H3604 H 0.39034 0.49375 0.52994 0.0
H3605 H 0.36508 0.50591 0.53678 0.0
H3606 H 0.32985 0.51551 0.48873 0.0
C3607 C 0.31258 0.57227 0.51065 0.0
C3608 C 0.33964 0.5476 0.53549 0.0
C3609 C 0.30401 0.58614 0.51343 0.0
C3610 C 0.38365 0.4994 0.51922 0.0
C3611 C 0.36923 0.50637 0.52314 0.0
C3612 C 0.33273 0.52436 0.50186 0.0
C3613 C 0.31557 0.56214 0.52495 0.0
C3614 C 0.32553 0.54812 0.52213 0.0
C3615 C 0.36073 0.51446 0.50981 0.0
C3616 C 0.34748 0.52457 0.51478 0.0
H3617 H 0.29662 0.58264 0.55816 0.0
H3618 H 0.31185 0.55845 0.55332 0.0
H3619 H 0.31088 0.53597 0.49508 0.0
H3620 H 0.38517 0.50853 0.47479 0.0
H3621 H 0.36017 0.52078 0.48162 0.0
C3622 C 0.83816 0.89701 0.53009 0.0
C3623 C 0.82254 0.90317 0.52823 0.0
C3624 C 0.8549 0.90879 0.52966 0.0
C3625 C 0.88011 0.95676 0.53672 0.0
H3626 H 0.9114 0.93911 0.50558 0.0
C3627 C 0.94946 0.00155 0.525 0.0
C3628 C 0.96317 -0.00731 0.5232 0.0
C3629 C 0.93193 -0.00844 0.52597 0.0
C3630 C 0.90298 0.94422 0.51458 0.0
H3631 H 0.81236 0.92674 0.52493 0.0
H3632 H 0.84176 0.94743 0.52442 0.0
H3633 H 0.88172 0.92002 0.50682 0.0
H3634 H 0.96941 0.96654 0.5221 0.0
H3635 H 0.93931 0.94938 0.52436 0.0
H3636 H 0.90159 0.98086 0.54479 0.0
C3637 C 0.84095 0.93341 0.52614 0.0
C3638 C 0.88591 0.93326 0.51521 0.0
C3639 C 0.82412 0.92154 0.52634 0.0
C3640 C 0.95913 0.97379 0.52313 0.0
C3641 C 0.94177 0.9639 0.52431 0.0
C3642 C 0.89734 0.96772 0.53624 0.0
C3643 C 0.85649 0.92709 0.52756 0.0
C3644 C 0.87434 0.93929 0.52643 0.0
C3645 C 0.92781 0.97253 0.52533 0.0
C3646 C 0.9091 0.96147 0.52533 0.0
H3647 H 0.83747 0.88297 0.5316 0.0
H3648 H 0.86665 0.90356 0.53103 0.0
H3649 H 0.8715 0.96175 0.54556 0.0
H3650 H 0.95215 0.0161 0.52507 0.0
H3651 H 0.92153 -0.00132 0.52669 0.0
C3652 C 0.88111 0.06023 0.25944 0.0
C3653 C 0.89512 0.0625 0.2485 0.0
C3654 C 0.8701 0.07223 0.25996 0.0
C3655 C 0.85503 0.10506 0.23292 0.0
H3656 H 0.83996 0.1222 0.27889 0.0
C3657 C 0.81797 0.16169 0.23708 0.0
C3658 C 0.80393 0.16012 0.24794 0.0
C3659 C 0.82915 0.14992 0.23769 0.0
C3660 C 0.84386 0.11738 0.26589 0.0
H3661 H 0.9087 0.07943 0.22978 0.0
H3662 H 0.88964 0.10035 0.23078 0.0
H3663 H 0.85929 0.10143 0.27902 0.0
H3664 H 0.79068 0.1449 0.26802 0.0
H3665 H 0.81007 0.12418 0.26897 0.0
H3666 H 0.83955 0.12082 0.21971 0.0
C3667 C 0.88698 0.08915 0.23877 0.0
C3668 C 0.85497 0.10547 0.26597 0.0
C3669 C 0.89799 0.07719 0.23829 0.0
C3670 C 0.80148 0.14659 0.25961 0.0
C3671 C 0.81263 0.13473 0.26017 0.0
C3672 C 0.8439 0.11689 0.23282 0.0
C3673 C 0.87281 0.08676 0.2495 0.0
C3674 C 0.86078 0.09924 0.24949 0.0
C3675 C 0.82656 0.13617 0.24912 0.0
C3676 C 0.83823 0.12331 0.2493 0.0
H3677 H 0.8785 0.04905 0.26747 0.0
H3678 H 0.85922 0.0699 0.26825 0.0
H3679 H 0.85895 0.10026 0.21991 0.0
H3680 H 0.82045 0.17218 0.22819 0.0
H3681 H 0.83995 0.15172 0.22929 0.0
C3682 C 0.71664 0.08136 0.04179 0.0
C3683 C 0.72261 0.09734 0.03401 0.0
C3684 C 0.69852 0.07203 0.03882 0.0
C3685 C 0.65638 0.0671 0.00786 0.0
H3686 H 0.63365 0.05081 0.04983 0.0
C3687 C 0.57997 0.04895 0.00739 0.0
C3688 C 0.57217 0.03397 0.01591 0.0
C3689 C 0.59856 0.0551 0.00868 0.0
C3690 C 0.63985 0.05504 0.03791 0.0
H3691 H 0.71426 0.11599 0.0169 0.0
H3692 H 0.68277 0.09987 0.01193 0.0
H3693 H 0.66586 0.06426 0.05379 0.0
H3694 H 0.57777 0.01348 0.03217 0.0
H3695 H 0.61019 0.02421 0.03433 0.0
H3696 H 0.63032 0.05816 -0.00795 0.0
C3697 C 0.69208 0.09438 0.0201 0.0
C3698 C 0.6583 0.06272 0.04018 0.0
C3699 C 0.71013 0.1037 0.02308 0.0
C3700 C 0.58334 0.02511 0.0255 0.0
C3701 C 0.60192 0.0313 0.02683 0.0
C3702 C 0.63794 0.05943 0.00559 0.0
C3703 C 0.68605 0.07848 0.02797 0.0
C3704 C 0.66672 0.06906 0.02524 0.0
C3705 C 0.60973 0.04643 0.01855 0.0
C3706 C 0.62945 0.05353 0.02065 0.0
H3707 H 0.72593 0.07608 0.05023 0.0
H3708 H 0.69428 0.05972 0.04494 0.0
H3709 H 0.66254 0.07157 -0.004 0.0
H3710 H 0.57175 0.05606 -0.00015 0.0
H3711 H 0.60418 0.06693 0.00232 0.0
C3712 C 0.16149 0.45718 0.27079 0.0
C3713 C 0.16578 0.46819 0.25695 0.0
C3714 C 0.17347 0.44783 0.27776 0.0
C3715 C 0.22124 0.44802 0.28165 0.0
H3716 H 0.204 0.39773 0.28885 0.0
C3717 C 0.26529 0.39794 0.28409 0.0
C3718 C 0.26173 0.38443 0.29566 0.0
C3719 C 0.25473 0.41021 0.28297 0.0
C3720 C 0.209 0.41188 0.28728 0.0
H3721 H 0.18579 0.47768 0.23922 0.0
H3722 H 0.20651 0.46112 0.25114 0.0
H3723 H 0.18267 0.41457 0.27911 0.0
H3724 H 0.24505 0.37375 0.3159 0.0
H3725 H 0.22668 0.39536 0.31408 0.0
H3726 H 0.24763 0.44513 0.28931 0.0
C3727 C 0.19407 0.46003 0.2569 0.0
C3728 C 0.19678 0.42151 0.28165 0.0
C3729 C 0.18211 0.46937 0.24995 0.0
C3730 C 0.24814 0.3841 0.30694 0.0
C3731 C 0.23752 0.39633 0.30576 0.0
C3732 C 0.23347 0.43839 0.28725 0.0
C3733 C 0.18996 0.44931 0.27101 0.0
C3734 C 0.2028 0.43956 0.27842 0.0
C3735 C 0.24039 0.40915 0.29335 0.0
C3736 C 0.22748 0.42012 0.28979 0.0
H3737 H 0.14903 0.45604 0.27652 0.0
H3738 H 0.16998 0.43974 0.2887 0.0
H3739 H 0.22625 0.46205 0.27963 0.0
H3740 H 0.2758 0.39858 0.27538 0.0
H3741 H 0.2572 0.41986 0.27319 0.0
C3742 C 0.22356 0.41259 0.01664 0.0
C3743 C 0.21874 0.39521 0.02205 0.0
C3744 C 0.21103 0.42291 0.0148 0.0
C3745 C 0.162 0.41898 0.00931 0.0
H3746 H 0.17699 0.47089 0.02555 0.0
C3747 C 0.11147 0.46323 0.01561 0.0
C3748 C 0.11602 0.48051 0.00989 0.0
C3749 C 0.12389 0.45273 0.01669 0.0
C3750 C 0.1726 0.45644 0.02075 0.0
H3751 H 0.19687 0.3751 0.02979 0.0
H3752 H 0.17517 0.39314 0.02684 0.0
H3753 H 0.19877 0.4529 0.02819 0.0
H3754 H 0.13723 0.49998 0.00034 0.0
H3755 H 0.15886 0.48178 0.00238 0.0
H3756 H 0.13578 0.42254 0.00202 0.0
C3757 C 0.18855 0.39873 0.02372 0.0
C3758 C 0.18512 0.4461 0.02225 0.0
C3759 C 0.20106 0.3884 0.02553 0.0
C3760 C 0.13332 0.48692 0.00516 0.0
C3761 C 0.14575 0.47645 0.0063 0.0
C3762 C 0.14946 0.42932 0.00787 0.0
C3763 C 0.19335 0.41614 0.01834 0.0
C3764 C 0.18001 0.42721 0.01657 0.0
C3765 C 0.14123 0.45924 0.01213 0.0
C3766 C 0.15459 0.44819 0.01358 0.0
H3767 H 0.23702 0.41825 0.01377 0.0
H3768 H 0.21518 0.43613 0.01037 0.0
H3769 H 0.15759 0.40453 0.0045 0.0
H3770 H 0.0984 0.45792 0.01963 0.0
H3771 H 0.12001 0.43964 0.02147 0.0
C3772 C 0.88768 0.94391 0.23479 0.0
C3773 C 0.88604 0.96031 0.24418 0.0
C3774 C 0.87489 0.92762 0.23506 0.0
C3775 C 0.83945 0.90605 0.26162 0.0
H3776 H 0.82572 0.86984 0.21778 0.0
C3777 C 0.78552 0.83821 0.25893 0.0
C3778 C 0.79007 0.82257 0.25127 0.0
C3779 C 0.79591 0.85553 0.25728 0.0
C3780 C 0.82949 0.87978 0.23017 0.0
H3781 H 0.8695 0.97242 0.26109 0.0
H3782 H 0.84708 0.94403 0.26137 0.0
H3783 H 0.84635 0.89909 0.21646 0.0
H3784 H 0.8089 0.81291 0.23549 0.0
H3785 H 0.82688 0.84296 0.23265 0.0
H3786 H 0.82263 0.88664 0.27533 0.0
C3787 C 0.8584 0.94372 0.254 0.0
C3788 C 0.84135 0.89654 0.22944 0.0
C3789 C 0.87122 0.96003 0.25376 0.0
C3790 C 0.80497 0.82464 0.24158 0.0
C3791 C 0.81525 0.8419 0.23983 0.0
C3792 C 0.82753 0.88929 0.26234 0.0
C3793 C 0.86009 0.92729 0.24469 0.0
C3794 C 0.84668 0.90982 0.24521 0.0
C3795 C 0.81097 0.85756 0.24781 0.0
C3796 C 0.82258 0.87587 0.24669 0.0
H3797 H 0.89895 0.9436 0.22733 0.0
H3798 H 0.8768 0.9152 0.22798 0.0
H3799 H 0.84342 0.91585 0.27411 0.0
H3800 H 0.77414 0.83711 0.2665 0.0
H3801 H 0.79216 0.86734 0.26343 0.0
C3802 C 0.69717 0.05915 0.74269 0.0
C3803 C 0.67931 0.0529 0.7342 0.0
C3804 C 0.70624 0.07746 0.74398 0.0
C3805 C 0.69685 0.1217 0.74724 0.0
H3806 H 0.7454 0.13982 0.73679 0.0
C3807 C 0.73516 0.19678 0.76694 0.0
C3808 C 0.74275 0.20496 0.7524 0.0
C3809 C 0.72893 0.17791 0.76527 0.0
C3810 C 0.73185 0.1349 0.73978 0.0
H3811 H 0.65725 0.06074 0.71958 0.0
H3812 H 0.67308 0.09268 0.72195 0.0
H3813 H 0.73136 0.10706 0.73135 0.0
H3814 H 0.75049 0.19978 0.72508 0.0
H3815 H 0.73967 0.16686 0.72226 0.0
H3816 H 0.69723 0.14942 0.7556 0.0
C3817 C 0.67998 0.08343 0.72771 0.0
C3818 C 0.72387 0.11622 0.73673 0.0
C3819 C 0.67098 0.06513 0.72626 0.0
C3820 C 0.74459 0.19389 0.73647 0.0
C3821 C 0.73853 0.17504 0.7349 0.0
C3822 C 0.70488 0.1403 0.75047 0.0
C3823 C 0.69753 0.08982 0.73695 0.0
C3824 C 0.70623 0.1095 0.74026 0.0
C3825 C 0.73037 0.1669 0.74914 0.0
C3826 C 0.72239 0.14709 0.74666 0.0
H3827 H 0.70397 0.05003 0.74886 0.0
H3828 H 0.71977 0.08209 0.75119 0.0
H3829 H 0.68331 0.11683 0.7503 0.0
H3830 H 0.73361 0.20494 0.77941 0.0
H3831 H 0.72282 0.17193 0.77652 0.0
loop_
_geom_bond_atom_site_label_1
_geom_bond_atom_site_label_2
_geom_bond_distance
_geom_bond_site_symmetry_2
_ccdc_geom_bond_type
C0 O1 1.160 . S
C0 O7 1.185 . S
O1 C0 1.160 . S
O2 Zn3 1.899 . S
O2 C10 1.284 . S
Zn3 O2 1.899 . S
Zn3 O4 2.032 . S
Zn3 O7 2.086 . S
Zn3 O12 1.977 . S
O4 Zn3 2.032 . S
O4 C8 1.278 . S
C5 O6 1.203 . S
C5 O12 1.267 1_655 S
O6 C5 1.203 . S
O7 C0 1.185 . S
O7 Zn3 2.086 . S
C8 O4 1.278 . S
C8 O9 1.211 . S
O9 C8 1.211 . S
C10 O2 1.284 . S
C10 O11 1.273 . S
O11 C10 1.273 . S
O12 Zn3 1.977 . S
O12 C5 1.267 1_455 S
C13 O14 1.160 . S
C13 O20 1.234 . S
O14 C13 1.160 . S
O15 Zn16 1.899 . S
O15 C23 1.284 . S
Zn16 O15 1.899 . S
Zn16 O17 2.032 . S
Zn16 O20 2.045 1_455 S
Zn16 O25 1.977 . S
O17 Zn16 2.032 . S
O17 C21 1.278 . S
C18 O19 1.203 . S
C18 O25 1.267 . S
O19 C18 1.203 . S
O20 C13 1.234 . S
O20 Zn16 2.045 1_655 S
C21 O17 1.278 . S
C21 O22 1.211 . S
O22 C21 1.211 . S
C23 O15 1.284 . S
C23 O24 1.273 . S
O24 C23 1.273 . S
O25 Zn16 1.977 . S
O25 C18 1.267 . S
C26 O27 1.160 . S
C26 O33 1.185 . S
O27 C26 1.160 . S
O28 Zn29 1.899 . S
O28 C36 1.284 . S
Zn29 O28 1.899 . S
Zn29 O30 2.032 . S
Zn29 O33 2.086 . S
Zn29 O38 1.977 . S
O30 Zn29 2.032 . S
O30 C34 1.278 . S
C31 O32 1.203 . S
C31 O38 1.267 . S
O32 C31 1.203 . S
O33 C26 1.185 . S
O33 Zn29 2.086 . S
C34 O30 1.278 . S
C34 O35 1.211 . S
O35 C34 1.211 . S
C36 O28 1.284 . S
C36 O37 1.273 . S
O37 C36 1.273 . S
O38 Zn29 1.977 . S
O38 C31 1.267 . S
C39 O40 1.160 . S
C39 O46 1.185 . S
O40 C39 1.160 . S
O41 Zn42 1.899 . S
O41 C49 1.284 . S
Zn42 O41 1.899 . S
Zn42 O43 2.032 . S
Zn42 O46 2.086 . S
Zn42 O51 1.977 . S
O43 Zn42 2.032 . S
O43 C47 1.278 . S
C44 O45 1.203 . S
C44 O51 1.267 . S
O45 C44 1.203 . S
O46 C39 1.185 . S
O46 Zn42 2.086 . S
C47 O43 1.278 . S
C47 O48 1.211 . S
O48 C47 1.211 . S
C49 O41 1.284 . S
C49 O50 1.273 . S
O50 C49 1.273 . S
O51 Zn42 1.977 . S
O51 C44 1.267 . S
C52 O53 1.160 . S
C52 O59 1.185 . S
O53 C52 1.160 . S
O54 Zn55 1.899 . S
O54 C62 1.284 . S
Zn55 O54 1.899 . S
Zn55 O56 2.032 . S
Zn55 O59 2.086 . S
Zn55 O64 1.977 . S
O56 Zn55 2.032 . S
O56 C60 1.278 . S
C57 O58 1.203 . S
C57 O64 1.267 . S
O58 C57 1.203 . S
O59 C52 1.185 . S
O59 Zn55 2.086 . S
C60 O56 1.278 . S
C60 O61 1.211 . S
O61 C60 1.211 . S
C62 O54 1.284 . S
C62 O63 1.273 . S
O63 C62 1.273 . S
O64 Zn55 1.977 . S
O64 C57 1.267 . S
C65 O66 1.160 . S
C65 O72 1.185 . S
O66 C65 1.160 . S
O67 Zn68 1.899 . S
O67 C75 1.284 . S
Zn68 O67 1.899 . S
Zn68 O69 2.032 . S
Zn68 O72 2.086 . S
Zn68 O77 1.977 . S
O69 Zn68 2.032 . S
O69 C73 1.278 . S
C70 O71 1.203 . S
C70 O77 1.267 . S
O71 C70 1.203 . S
O72 C65 1.185 . S
O72 Zn68 2.086 . S
C73 O69 1.278 . S
C73 O74 1.211 . S
O74 C73 1.211 . S
C75 O67 1.284 . S
C75 O76 1.273 . S
O76 C75 1.273 . S
O77 Zn68 1.977 . S
O77 C70 1.267 . S
C78 O79 1.160 . S
C78 O85 1.185 . S
O79 C78 1.160 . S
O80 Zn81 1.899 . S
O80 C88 1.284 . S
Zn81 O80 1.899 . S
Zn81 O82 2.032 . S
Zn81 O85 2.086 . S
Zn81 O90 1.977 . S
O82 Zn81 2.032 . S
O82 C86 1.278 . S
C83 O84 1.203 . S
C83 O90 1.267 . S
O84 C83 1.203 . S
O85 C78 1.185 . S
O85 Zn81 2.086 . S
C86 O82 1.278 . S
C86 O87 1.211 . S
O87 C86 1.211 . S
C88 O80 1.284 . S
C88 O89 1.273 . S
O89 C88 1.273 . S
O90 Zn81 1.977 . S
O90 C83 1.267 . S
C91 O92 1.160 . S
C91 O98 1.185 . S
O92 C91 1.160 . S
O93 Zn94 1.909 1_655 S
O93 C101 1.303 . S
Zn94 O93 1.909 1_455 S
Zn94 O95 2.032 . S
Zn94 O98 2.086 . S
Zn94 O103 1.977 1_455 S
O95 Zn94 2.032 . S
O95 C99 1.278 . S
C96 O97 1.203 . S
C96 O103 1.267 . S
O97 C96 1.203 . S
O98 C91 1.185 . S
O98 Zn94 2.086 . S
C99 O95 1.278 . S
C99 O100 1.211 1_455 S
O100 C99 1.211 1_655 S
C101 O93 1.303 . S
C101 O102 1.273 . S
O102 C101 1.273 . S
O103 Zn94 1.977 1_655 S
O103 C96 1.267 . S
C104 O105 1.160 . S
C104 O111 1.185 . S
O105 C104 1.160 . S
O106 Zn107 1.899 . S
O106 C114 1.284 . S
Zn107 O106 1.899 . S
Zn107 O108 2.032 . S
Zn107 O111 2.086 . S
Zn107 O116 1.977 1_545 S
O108 Zn107 2.032 . S
O108 C112 1.278 . S
C109 O110 1.203 . S
C109 O116 1.267 . S
O110 C109 1.203 . S
O111 C104 1.185 . S
O111 Zn107 2.086 . S
C112 O108 1.278 . S
C112 O113 1.211 1_545 S
O113 C112 1.211 1_565 S
C114 O106 1.284 . S
C114 O115 1.273 1_545 S
O115 C114 1.273 1_565 S
O116 Zn107 1.977 1_565 S
O116 C109 1.267 . S
C117 O118 1.160 . S
C117 O124 1.185 . S
O118 C117 1.160 . S
O119 Zn120 1.899 . S
O119 C127 1.284 . S
Zn120 O119 1.899 . S
Zn120 O121 2.032 . S
Zn120 O124 2.086 . S
Zn120 O129 1.977 . S
O121 Zn120 2.032 . S
O121 C125 1.278 . S
C122 O123 1.203 . S
C122 O129 1.267 . S
O123 C122 1.203 . S
O124 C117 1.185 . S
O124 Zn120 2.086 . S
C125 O121 1.278 . S
C125 O126 1.211 . S
O126 C125 1.211 . S
C127 O119 1.284 . S
C127 O128 1.273 . S
O128 C127 1.273 . S
O129 Zn120 1.977 . S
O129 C122 1.267 . S
C130 O131 1.155 1_545 S
C130 O137 1.210 . S
O131 C130 1.155 1_565 S
O132 Zn133 1.899 . S
O132 C140 1.284 . S
Zn133 O132 1.899 . S
Zn133 O134 2.032 . S
Zn133 O137 2.086 . S
Zn133 O142 1.977 . S
O134 Zn133 2.032 . S
O134 C138 1.278 . S
C135 O136 1.203 . S
C135 O142 1.267 . S
O136 C135 1.203 . S
O137 C130 1.210 . S
O137 Zn133 2.086 . S
C138 O134 1.278 . S
C138 O139 1.211 . S
O139 C138 1.211 . S
C140 O132 1.284 . S
C140 O141 1.273 . S
O141 C140 1.273 . S
O142 Zn133 1.977 . S
O142 C135 1.267 . S
C143 O144 1.160 . S
C143 O150 1.185 1_554 S
O144 C143 1.160 . S
O145 Zn146 1.899 . S
O145 C153 1.284 . S
Zn146 O145 1.899 . S
Zn146 O147 2.032 1_554 S
Zn146 O150 2.086 1_554 S
Zn146 O155 1.986 . S
O147 Zn146 2.032 1_556 S
O147 C151 1.278 . S
C148 O149 1.203 . S
C148 O155 1.276 . S
O149 C148 1.203 . S
O150 C143 1.185 1_556 S
O150 Zn146 2.086 1_556 S
C151 O147 1.278 . S
C151 O152 1.211 . S
O152 C151 1.211 . S
C153 O145 1.284 . S
C153 O154 1.273 . S
O154 C153 1.273 . S
O155 Zn146 1.986 . S
O155 C148 1.276 . S
C156 O157 1.160 . S
C156 O163 1.185 . S
O157 C156 1.160 . S
O158 Zn159 1.899 . S
O158 C166 1.284 . S
Zn159 O158 1.899 . S
Zn159 O160 2.032 . S
Zn159 O163 2.086 . S
Zn159 O168 1.977 . S
O160 Zn159 2.032 . S
O160 C164 1.278 1_554 S
C161 O162 1.203 . S
C161 O168 1.267 . S
O162 C161 1.203 . S
O163 C156 1.185 . S
O163 Zn159 2.086 . S
C164 O160 1.278 1_556 S
C164 O165 1.211 . S
O165 C164 1.211 . S
C166 O158 1.284 . S
C166 O167 1.273 . S
O167 C166 1.273 . S
O168 Zn159 1.977 . S
O168 C161 1.267 . S
C169 O170 1.160 . S
C169 O176 1.185 . S
O170 C169 1.160 . S
O171 Zn172 1.899 . S
O171 C179 1.284 . S
Zn172 O171 1.899 . S
Zn172 O173 2.032 . S
Zn172 O176 2.086 . S
Zn172 O181 1.977 . S
O173 Zn172 2.032 . S
O173 C177 1.278 . S
C174 O175 1.203 . S
C174 O181 1.267 . S
O175 C174 1.203 . S
O176 C169 1.185 . S
O176 Zn172 2.086 . S
C177 O173 1.278 . S
C177 O178 1.211 . S
O178 C177 1.211 . S
C179 O171 1.284 . S
C179 O180 1.273 . S
O180 C179 1.273 . S
O181 Zn172 1.977 . S
O181 C174 1.267 . S
C182 O183 1.160 . S
C182 O189 1.185 . S
O183 C182 1.160 . S
O184 Zn185 1.899 . S
O184 C192 1.284 . S
Zn185 O184 1.899 . S
Zn185 O186 2.032 . S
Zn185 O189 2.086 . S
Zn185 O194 1.977 . S
O186 Zn185 2.032 . S
O186 C190 1.278 . S
C187 O188 1.203 . S
C187 O194 1.267 . S
O188 C187 1.203 . S
O189 C182 1.185 . S
O189 Zn185 2.086 . S
C190 O186 1.278 . S
C190 O191 1.211 . S
O191 C190 1.211 . S
C192 O184 1.284 . S
C192 O193 1.273 . S
O193 C192 1.273 . S
O194 Zn185 1.977 . S
O194 C187 1.267 . S
C195 O196 1.160 . S
C195 O202 1.185 . S
O196 C195 1.160 . S
O197 Zn198 1.899 . S
O197 C205 1.284 . S
Zn198 O197 1.899 . S
Zn198 O199 2.032 . S
Zn198 O202 2.086 . S
Zn198 O207 1.977 . S
O199 Zn198 2.032 . S
O199 C203 1.278 . S
C200 O201 1.203 . S
C200 O207 1.267 . S
O201 C200 1.203 . S
O202 C195 1.185 . S
O202 Zn198 2.086 . S
C203 O199 1.278 . S
C203 O204 1.211 . S
O204 C203 1.211 . S
C205 O197 1.284 . S
C205 O206 1.273 . S
O206 C205 1.273 . S
O207 Zn198 1.977 . S
O207 C200 1.267 . S
C208 O209 1.160 . S
C208 O215 1.185 . S
O209 C208 1.160 . S
O210 Zn211 1.899 . S
O210 C218 1.284 . S
Zn211 O210 1.899 . S
Zn211 O212 2.032 . S
Zn211 O215 2.086 . S
Zn211 O220 1.977 . S
O212 Zn211 2.032 . S
O212 C216 1.278 . S
C213 O214 1.203 . S
C213 O220 1.267 1_565 S
O214 C213 1.203 . S
O215 C208 1.185 . S
O215 Zn211 2.086 . S
C216 O212 1.278 . S
C216 O217 1.211 . S
O217 C216 1.211 . S
C218 O210 1.284 . S
C218 O219 1.273 . S
O219 C218 1.273 . S
O220 Zn211 1.977 . S
O220 C213 1.267 1_545 S
C221 O222 1.160 . S
C221 O228 1.185 . S
O222 C221 1.160 . S
O223 Zn224 1.899 . S
O223 C231 1.284 . S
Zn224 O223 1.899 . S
Zn224 O225 2.032 . S
Zn224 O228 2.086 . S
Zn224 O233 1.977 . S
O225 Zn224 2.032 . S
O225 C229 1.278 . S
C226 O227 1.203 . S
C226 O233 1.267 . S
O227 C226 1.203 . S
O228 C221 1.185 . S
O228 Zn224 2.086 . S
C229 O225 1.278 . S
C229 O230 1.211 . S
O230 C229 1.211 . S
C231 O223 1.284 . S
C231 O232 1.273 . S
O232 C231 1.273 . S
O233 Zn224 1.977 . S
O233 C226 1.267 . S
C234 O235 1.160 . S
C234 O241 1.185 . S
O235 C234 1.160 . S
O236 Zn237 1.899 . S
O236 C244 1.284 . S
Zn237 O236 1.899 . S
Zn237 O238 2.032 . S
Zn237 O241 2.086 . S
Zn237 O246 1.977 . S
O238 Zn237 2.032 . S
O238 C242 1.278 . S
C239 O240 1.203 . S
C239 O246 1.267 . S
O240 C239 1.203 . S
O241 C234 1.185 . S
O241 Zn237 2.086 . S
C242 O238 1.278 . S
C242 O243 1.211 . S
O243 C242 1.211 . S
C244 O236 1.284 . S
C244 O245 1.273 . S
O245 C244 1.273 . S
O246 Zn237 1.977 . S
O246 C239 1.267 . S
C247 O248 1.160 . S
C247 O254 1.185 . S
O248 C247 1.160 . S
O249 Zn250 1.899 . S
O249 C257 1.284 . S
Zn250 O249 1.899 . S
Zn250 O251 2.032 . S
Zn250 O254 2.086 . S
Zn250 O259 1.977 . S
O251 Zn250 2.032 . S
O251 C255 1.278 . S
C252 O253 1.203 . S
C252 O259 1.267 . S
O253 C252 1.203 . S
O254 C247 1.185 . S
O254 Zn250 2.086 . S
C255 O251 1.278 . S
C255 O256 1.211 . S
O256 C255 1.211 . S
C257 O249 1.284 . S
C257 O258 1.273 . S
O258 C257 1.273 . S
O259 Zn250 1.977 . S
O259 C252 1.267 . S
C260 O261 1.160 . S
C260 O267 1.185 . S
O261 C260 1.160 . S
O262 Zn263 1.899 . S
O262 C270 1.284 . S
Zn263 O262 1.899 . S
Zn263 O264 2.016 1_554 S
Zn263 O267 2.086 . S
Zn263 O272 1.977 . S
O264 Zn263 2.016 1_556 S
O264 C268 1.287 . S
C265 O266 1.203 . S
C265 O272 1.267 . S
O266 C265 1.203 . S
O267 C260 1.185 . S
O267 Zn263 2.086 . S
C268 O264 1.287 . S
C268 O269 1.211 . S
O269 C268 1.211 . S
C270 O262 1.284 . S
C270 O271 1.273 . S
O271 C270 1.273 . S
O272 Zn263 1.977 . S
O272 C265 1.267 . S
C273 O274 1.160 . S
C273 O280 1.185 . S
O274 C273 1.160 . S
O275 Zn276 1.899 . S
O275 C283 1.284 . S
Zn276 O275 1.899 . S
Zn276 O277 2.032 . S
Zn276 O280 2.086 . S
Zn276 O285 1.977 . S
O277 Zn276 2.032 . S
O277 C281 1.278 . S
C278 O279 1.203 . S
C278 O285 1.267 . S
O279 C278 1.203 . S
O280 C273 1.185 . S
O280 Zn276 2.086 . S
C281 O277 1.278 . S
C281 O282 1.211 . S
O282 C281 1.211 . S
C283 O275 1.284 . S
C283 O284 1.273 . S
O284 C283 1.273 . S
O285 Zn276 1.977 . S
O285 C278 1.267 . S
C286 O287 1.160 . S
C286 O293 1.185 . S
O287 C286 1.160 . S
O288 Zn289 1.899 . S
O288 C296 1.284 . S
Zn289 O288 1.899 . S
Zn289 O290 2.032 . S
Zn289 O293 2.086 . S
Zn289 O298 1.977 . S
O290 Zn289 2.032 . S
O290 C294 1.278 . S
C291 O292 1.203 . S
C291 O298 1.267 . S
O292 C291 1.203 . S
O293 C286 1.185 . S
O293 Zn289 2.086 . S
C294 O290 1.278 . S
C294 O295 1.211 . S
O295 C294 1.211 . S
C296 O288 1.284 . S
C296 O297 1.273 . S
O297 C296 1.273 . S
O298 Zn289 1.977 . S
O298 C291 1.267 . S
C299 O300 1.160 . S
C299 O306 1.185 . S
O300 C299 1.160 . S
O301 Zn302 1.899 . S
O301 C309 1.284 . S
Zn302 O301 1.899 . S
Zn302 O303 2.032 . S
Zn302 O306 2.086 . S
Zn302 O311 1.977 . S
O303 Zn302 2.032 . S
O303 C307 1.278 . S
C304 O305 1.203 . S
C304 O311 1.267 . S
O305 C304 1.203 . S
O306 C299 1.185 . S
O306 Zn302 2.086 . S
C307 O303 1.278 . S
C307 O308 1.211 . S
O308 C307 1.211 . S
C309 O301 1.284 . S
C309 O310 1.273 . S
O310 C309 1.273 . S
O311 Zn302 1.977 . S
O311 C304 1.267 . S
Dy312 O315 2.307 . S
Dy312 O317 2.395 . S
Dy312 O318 2.379 . S
Dy312 O320 2.339 . S
Dy312 O322 2.298 . S
Dy312 O326 2.253 1_554 S
Dy312 C334 2.738 . S
Dy313 O316 2.298 1_655 S
Dy313 O319 2.275 1_655 S
Dy313 O321 2.307 1_645 S
Dy313 O323 2.395 . S
Dy313 O324 2.379 1_554 S
Dy313 O327 2.339 1_654 S
Dy313 C343 2.738 . S
C314 O326 1.277 . S
C314 O327 1.257 . S
O315 Dy312 2.307 . S
O315 C325 1.266 . S
O316 Dy313 2.298 1_455 S
O316 C325 1.236 . S
O317 Dy312 2.395 . S
O317 C334 1.255 . S
O318 Dy312 2.379 . S
O318 C334 1.249 . S
O319 Dy313 2.275 1_455 S
O319 C335 1.254 . S
O320 Dy312 2.339 . S
O320 C335 1.257 . S
O321 Dy313 2.307 1_465 S
O321 C336 1.266 . S
O322 Dy312 2.298 . S
O322 C336 1.236 1_545 S
O323 Dy313 2.395 . S
O323 C343 1.255 . S
O324 Dy313 2.379 1_556 S
O324 C343 1.249 1_556 S
C325 O315 1.266 . S
C325 O316 1.236 . S
O326 Dy312 2.253 1_556 S
O326 C314 1.277 . S
O327 Dy313 2.339 1_456 S
O327 C314 1.257 . S
C328 C331 1.344 . S
C328 C332 1.328 . S
C328 C334 1.516 . S
C329 C330 1.310 1_545 S
C329 C333 1.360 . S
C330 C329 1.310 1_565 S
C330 C331 1.371 1_565 S
C330 H344 0.930 . S
C331 C328 1.344 . S
C331 C330 1.371 1_545 S
C331 H345 0.932 1_545 S
C332 C328 1.328 . S
C332 C333 1.433 . S
C332 H346 0.931 . S
C333 C329 1.360 . S
C333 C332 1.433 . S
C333 H347 0.933 . S
C334 Dy312 2.738 . S
C334 O317 1.255 . S
C334 O318 1.249 . S
C334 C328 1.516 . S
C335 O319 1.254 . S
C335 O320 1.257 . S
C336 O321 1.266 . S
C336 O322 1.236 1_565 S
C337 C340 1.344 . S
C337 C341 1.328 1_554 S
C337 C343 1.516 . S
C338 C339 1.309 1_556 S
C338 C342 1.319 . S
C339 C338 1.309 1_554 S
C339 C340 1.371 . S
C339 H348 0.930 . S
C340 C337 1.344 . S
C340 C339 1.371 . S
C340 H349 0.931 . S
C341 C337 1.328 1_556 S
C341 C342 1.433 . S
C341 H350 0.931 . S
C342 C338 1.319 . S
C342 C341 1.433 . S
C342 H351 0.933 . S
C343 Dy313 2.738 . S
C343 O323 1.255 . S
C343 O324 1.249 1_554 S
C343 C337 1.516 . S
H344 C330 0.930 . S
H345 C331 0.932 1_565 S
H346 C332 0.931 . S
H347 C333 0.933 . S
H348 C339 0.930 . S
H349 C340 0.931 . S
H350 C341 0.931 . S
H351 C342 0.933 . S
Dy352 O355 2.307 . S
Dy352 O357 2.395 . S
Dy352 O358 2.379 . S
Dy352 O360 2.339 . S
Dy352 O362 2.298 . S
Dy352 O366 2.275 . S
Dy352 C374 2.738 . S
Dy353 O356 2.298 . S
Dy353 O359 2.275 . S
Dy353 O361 2.307 . S
Dy353 O363 2.395 . S
Dy353 O364 2.379 . S
Dy353 O367 2.339 . S
Dy353 C383 2.738 . S
C354 O366 1.254 . S
C354 O367 1.257 . S
O355 Dy352 2.307 . S
O355 C365 1.266 . S
O356 Dy353 2.298 . S
O356 C365 1.236 . S
O357 Dy352 2.395 . S
O357 C374 1.255 . S
O358 Dy352 2.379 . S
O358 C374 1.249 . S
O359 Dy353 2.275 . S
O359 C375 1.254 . S
O360 Dy352 2.339 . S
O360 C375 1.257 . S
O361 Dy353 2.307 . S
O361 C376 1.266 . S
O362 Dy352 2.298 . S
O362 C376 1.236 . S
O363 Dy353 2.395 . S
O363 C383 1.255 . S
O364 Dy353 2.379 . S
O364 C383 1.249 . S
C365 O355 1.266 . S
C365 O356 1.236 . S
O366 Dy352 2.275 . S
O366 C354 1.254 . S
O367 Dy353 2.339 . S
O367 C354 1.257 . S
C368 C371 1.344 . S
C368 C372 1.328 . S
C368 C374 1.516 . S
C369 C370 1.304 . S
C369 C373 1.323 . S
C370 C369 1.304 . S
C370 C371 1.371 . S
C370 H384 0.930 . S
C371 C368 1.344 . S
C371 C370 1.371 . S
C371 H385 0.931 . S
C372 C368 1.328 . S
C372 C373 1.433 . S
C372 H386 0.931 . S
C373 C369 1.323 . S
C373 C372 1.433 . S
C373 H387 0.933 . S
C374 Dy352 2.738 . S
C374 O357 1.255 . S
C374 O358 1.249 . S
C374 C368 1.516 . S
C375 O359 1.254 . S
C375 O360 1.257 . S
C376 O361 1.266 . S
C376 O362 1.236 . S
C377 C380 1.344 . S
C377 C381 1.328 . S
C377 C383 1.516 . S
C378 C379 1.304 . S
C378 C382 1.323 . S
C379 C378 1.304 . S
C379 C380 1.371 . S
C379 H388 0.930 . S
C380 C377 1.344 . S
C380 C379 1.371 . S
C380 H389 0.931 . S
C381 C377 1.328 . S
C381 C382 1.433 . S
C381 H390 0.931 . S
C382 C378 1.323 . S
C382 C381 1.433 . S
C382 H391 0.933 . S
C383 Dy353 2.738 . S
C383 O363 1.255 . S
C383 O364 1.249 . S
C383 C377 1.516 . S
H384 C370 0.930 . S
H385 C371 0.931 . S
H386 C372 0.931 . S
H387 C373 0.933 . S
H388 C379 0.930 . S
H389 C380 0.931 . S
H390 C381 0.931 . S
H391 C382 0.933 . S
Dy392 O395 2.307 . S
Dy392 O397 2.395 . S
Dy392 O398 2.379 . S
Dy392 O400 2.339 . S
Dy392 O402 2.298 . S
Dy392 O406 2.275 . S
Dy392 C414 2.738 . S
Dy393 O396 2.298 . S
Dy393 O399 2.275 . S
Dy393 O401 2.307 . S
Dy393 O403 2.395 . S
Dy393 O404 2.379 . S
Dy393 O407 2.339 . S
Dy393 C423 2.738 . S
C394 O406 1.254 . S
C394 O407 1.257 . S
O395 Dy392 2.307 . S
O395 C405 1.266 1_545 S
O396 Dy393 2.298 . S
O396 C405 1.236 1_545 S
O397 Dy392 2.395 . S
O397 C414 1.255 . S
O398 Dy392 2.379 . S
O398 C414 1.249 . S
O399 Dy393 2.275 . S
O399 C415 1.254 . S
O400 Dy392 2.339 . S
O400 C415 1.257 . S
O401 Dy393 2.307 . S
O401 C416 1.266 . S
O402 Dy392 2.298 . S
O402 C416 1.236 . S
O403 Dy393 2.395 . S
O403 C423 1.255 . S
O404 Dy393 2.379 . S
O404 C423 1.249 . S
C405 O395 1.266 1_565 S
C405 O396 1.236 1_565 S
O406 Dy392 2.275 . S
O406 C394 1.254 . S
O407 Dy393 2.339 . S
O407 C394 1.257 . S
C408 C411 1.344 . S
C408 C412 1.328 . S
C408 C414 1.516 . S
C409 C410 1.304 . S
C409 C413 1.323 . S
C410 C409 1.304 . S
C410 C411 1.371 . S
C410 H424 0.930 . S
C411 C408 1.344 . S
C411 C410 1.371 . S
C411 H425 0.931 . S
C412 C408 1.328 . S
C412 C413 1.433 . S
C412 H426 0.931 . S
C413 C409 1.323 . S
C413 C412 1.433 . S
C413 H427 0.933 . S
C414 Dy392 2.738 . S
C414 O397 1.255 . S
C414 O398 1.249 . S
C414 C408 1.516 . S
C415 O399 1.254 . S
C415 O400 1.257 . S
C416 O401 1.266 . S
C416 O402 1.236 . S
C417 C420 1.344 1_545 S
C417 C421 1.328 . S
C417 C423 1.516 . S
C418 C419 1.304 . S
C418 C422 1.323 . S
C419 C418 1.304 . S
C419 C420 1.371 . S
C419 H428 0.930 . S
C420 C417 1.344 1_565 S
C420 C419 1.371 . S
C420 H429 0.931 . S
C421 C417 1.328 . S
C421 C422 1.433 1_545 S
C421 H430 0.931 . S
C422 C418 1.323 . S
C422 C421 1.433 1_565 S
C422 H431 0.933 . S
C423 Dy393 2.738 . S
C423 O403 1.255 . S
C423 O404 1.249 . S
C423 C417 1.516 . S
H424 C410 0.930 . S
H425 C411 0.931 . S
H426 C412 0.931 . S
H427 C413 0.933 . S
H428 C419 0.930 . S
H429 C420 0.931 . S
H430 C421 0.931 . S
H431 C422 0.933 . S
Dy432 O435 2.307 . S
Dy432 O437 2.395 . S
Dy432 O438 2.379 . S
Dy432 O440 2.339 . S
Dy432 O442 2.298 . S
Dy432 O446 2.275 . S
Dy432 C454 2.738 . S
Dy433 O436 2.298 . S
Dy433 O439 2.275 . S
Dy433 O441 2.307 . S
Dy433 O443 2.395 . S
Dy433 O444 2.379 . S
Dy433 O447 2.339 . S
Dy433 C463 2.738 . S
C434 O446 1.254 . S
C434 O447 1.257 . S
O435 Dy432 2.307 . S
O435 C445 1.266 . S
O436 Dy433 2.298 . S
O436 C445 1.236 . S
O437 Dy432 2.395 . S
O437 C454 1.255 . S
O438 Dy432 2.379 . S
O438 C454 1.249 . S
O439 Dy433 2.275 . S
O439 C455 1.254 . S
O440 Dy432 2.339 . S
O440 C455 1.257 . S
O441 Dy433 2.307 . S
O441 C456 1.266 . S
O442 Dy432 2.298 . S
O442 C456 1.236 . S
O443 Dy433 2.395 . S
O443 C463 1.255 . S
O444 Dy433 2.379 . S
O444 C463 1.249 . S
C445 O435 1.266 . S
C445 O436 1.236 . S
O446 Dy432 2.275 . S
O446 C434 1.254 . S
O447 Dy433 2.339 . S
O447 C434 1.257 . S
C448 C451 1.344 . S
C448 C452 1.328 . S
C448 C454 1.516 . S
C449 C450 1.304 . S
C449 C453 1.323 . S
C450 C449 1.304 . S
C450 C451 1.371 . S
C450 H464 0.930 . S
C451 C448 1.344 . S
C451 C450 1.371 . S
C451 H465 0.931 . S
C452 C448 1.328 . S
C452 C453 1.433 . S
C452 H466 0.931 . S
C453 C449 1.323 . S
C453 C452 1.433 . S
C453 H467 0.933 . S
C454 Dy432 2.738 . S
C454 O437 1.255 . S
C454 O438 1.249 . S
C454 C448 1.516 . S
C455 O439 1.254 . S
C455 O440 1.257 . S
C456 O441 1.266 . S
C456 O442 1.236 . S
C457 C460 1.344 . S
C457 C461 1.328 . S
C457 C463 1.516 . S
C458 C459 1.304 . S
C458 C462 1.323 . S
C459 C458 1.304 . S
C459 C460 1.371 . S
C459 H468 0.930 . S
C460 C457 1.344 . S
C460 C459 1.371 . S
C460 H469 0.931 . S
C461 C457 1.328 . S
C461 C462 1.433 . S
C461 H470 0.931 . S
C462 C458 1.323 . S
C462 C461 1.433 . S
C462 H471 0.933 . S
C463 Dy433 2.738 . S
C463 O443 1.255 . S
C463 O444 1.249 . S
C463 C457 1.516 . S
H464 C450 0.930 . S
H465 C451 0.931 . S
H466 C452 0.931 . S
H467 C453 0.933 . S
H468 C459 0.930 . S
H469 C460 0.931 . S
H470 C461 0.931 . S
H471 C462 0.933 . S
Dy472 O475 2.307 . S
Dy472 O477 2.395 1_545 S
Dy472 O478 2.379 1_545 S
Dy472 O480 2.339 . S
Dy472 O482 2.298 . S
Dy472 O486 2.275 . S
Dy472 C494 2.738 1_545 S
Dy473 O476 2.298 . S
Dy473 O479 2.275 . S
Dy473 O481 2.307 . S
Dy473 O483 2.395 . S
Dy473 O484 2.379 1_455 S
Dy473 O487 2.339 1_455 S
Dy473 C503 2.738 . S
C474 O486 1.254 1_655 S
C474 O487 1.257 . S
O475 Dy472 2.307 . S
O475 C485 1.266 . S
O476 Dy473 2.298 . S
O476 C485 1.236 . S
O477 Dy472 2.395 1_565 S
O477 C494 1.255 . S
O478 Dy472 2.379 1_565 S
O478 C494 1.249 . S
O479 Dy473 2.275 . S
O479 C495 1.254 . S
O480 Dy472 2.339 . S
O480 C495 1.257 . S
O481 Dy473 2.307 . S
O481 C496 1.266 . S
O482 Dy472 2.298 . S
O482 C496 1.236 . S
O483 Dy473 2.395 . S
O483 C503 1.255 . S
O484 Dy473 2.379 1_655 S
O484 C503 1.249 1_655 S
C485 O475 1.266 . S
C485 O476 1.236 . S
O486 Dy472 2.275 . S
O486 C474 1.254 1_455 S
O487 Dy473 2.339 1_655 S
O487 C474 1.257 . S
C488 C491 1.344 . S
C488 C492 1.328 . S
C488 C494 1.516 . S
C489 C490 1.304 . S
C489 C493 1.323 . S
C490 C489 1.304 . S
C490 C491 1.371 . S
C490 H504 0.930 . S
C491 C488 1.344 . S
C491 C490 1.371 . S
C491 H505 0.931 . S
C492 C488 1.328 . S
C492 C493 1.433 . S
C492 H506 0.931 . S
C493 C489 1.323 . S
C493 C492 1.433 . S
C493 H507 0.933 . S
C494 Dy472 2.738 1_565 S
C494 O477 1.255 . S
C494 O478 1.249 . S
C494 C488 1.516 . S
C495 O479 1.254 . S
C495 O480 1.257 . S
C496 O481 1.266 . S
C496 O482 1.236 . S
C497 C500 1.344 . S
C497 C501 1.328 1_455 S
C497 C503 1.516 . S
C498 C499 1.304 . S
C498 C502 1.323 1_455 S
C499 C498 1.304 . S
C499 C500 1.371 . S
C499 H508 0.930 . S
C500 C497 1.344 . S
C500 C499 1.371 . S
C500 H509 0.931 . S
C501 C497 1.328 1_655 S
C501 C502 1.433 . S
C501 H510 0.931 . S
C502 C498 1.323 1_655 S
C502 C501 1.433 . S
C502 H511 0.933 . S
C503 Dy473 2.738 . S
C503 O483 1.255 . S
C503 O484 1.249 1_455 S
C503 C497 1.516 . S
H504 C490 0.930 . S
H505 C491 0.931 . S
H506 C492 0.931 . S
H507 C493 0.933 . S
H508 C499 0.930 . S
H509 C500 0.931 . S
H510 C501 0.931 . S
H511 C502 0.933 . S
Dy512 O515 2.307 . S
Dy512 O517 2.395 . S
Dy512 O518 2.379 . S
Dy512 O520 2.339 . S
Dy512 O522 2.298 . S
Dy512 O526 2.275 . S
Dy512 C534 2.738 . S
Dy513 O516 2.298 . S
Dy513 O519 2.275 . S
Dy513 O521 2.307 . S
Dy513 O523 2.395 . S
Dy513 O524 2.379 . S
Dy513 O527 2.339 . S
Dy513 C543 2.738 . S
C514 O526 1.254 . S
C514 O527 1.257 . S
O515 Dy512 2.307 . S
O515 C525 1.266 . S
O516 Dy513 2.298 . S
O516 C525 1.236 . S
O517 Dy512 2.395 . S
O517 C534 1.255 . S
O518 Dy512 2.379 . S
O518 C534 1.249 . S
O519 Dy513 2.275 . S
O519 C535 1.254 . S
O520 Dy512 2.339 . S
O520 C535 1.257 . S
O521 Dy513 2.307 . S
O521 C536 1.266 . S
O522 Dy512 2.298 . S
O522 C536 1.236 . S
O523 Dy513 2.395 . S
O523 C543 1.255 . S
O524 Dy513 2.379 . S
O524 C543 1.249 . S
C525 O515 1.266 . S
C525 O516 1.236 . S
O526 Dy512 2.275 . S
O526 C514 1.254 . S
O527 Dy513 2.339 . S
O527 C514 1.257 . S
C528 C531 1.344 . S
C528 C532 1.328 . S
C528 C534 1.516 . S
C529 C530 1.304 . S
C529 C533 1.323 . S
C530 C529 1.304 . S
C530 C531 1.371 . S
C530 H544 0.930 . S
C531 C528 1.344 . S
C531 C530 1.371 . S
C531 H545 0.931 . S
C532 C528 1.328 . S
C532 C533 1.433 . S
C532 H546 0.931 . S
C533 C529 1.323 . S
C533 C532 1.433 . S
C533 H547 0.933 . S
C534 Dy512 2.738 . S
C534 O517 1.255 . S
C534 O518 1.249 . S
C534 C528 1.516 . S
C535 O519 1.254 . S
C535 O520 1.257 . S
C536 O521 1.266 . S
C536 O522 1.236 . S
C537 C540 1.344 . S
C537 C541 1.328 . S
C537 C543 1.516 . S
C538 C539 1.304 . S
C538 C542 1.323 . S
C539 C538 1.304 . S
C539 C540 1.371 . S
C539 H548 0.930 . S
C540 C537 1.344 . S
C540 C539 1.371 . S
C540 H549 0.931 . S
C541 C537 1.328 . S
C541 C542 1.433 . S
C541 H550 0.931 . S
C542 C538 1.323 . S
C542 C541 1.433 . S
C542 H551 0.933 . S
C543 Dy513 2.738 . S
C543 O523 1.255 . S
C543 O524 1.249 . S
C543 C537 1.516 . S
H544 C530 0.930 . S
H545 C531 0.931 . S
H546 C532 0.931 . S
H547 C533 0.933 . S
H548 C539 0.930 . S
H549 C540 0.931 . S
H550 C541 0.931 . S
H551 C542 0.933 . S
Dy552 O555 2.310 . S
Dy552 O557 2.390 1_554 S
Dy552 O558 2.374 1_554 S
Dy552 O560 2.342 . S
Dy552 O562 2.300 . S
Dy552 O566 2.278 . S
Dy552 C574 2.733 1_554 S
Dy553 O556 2.298 . S
Dy553 O559 2.275 . S
Dy553 O561 2.307 . S
Dy553 O563 2.395 . S
Dy553 O564 2.379 1_545 S
Dy553 O567 2.339 1_545 S
Dy553 C583 2.738 . S
C554 O566 1.254 1_565 S
C554 O567 1.257 . S
O555 Dy552 2.310 . S
O555 C565 1.266 . S
O556 Dy553 2.298 . S
O556 C565 1.236 . S
O557 Dy552 2.390 1_556 S
O557 C574 1.255 . S
O558 Dy552 2.374 1_556 S
O558 C574 1.249 . S
O559 Dy553 2.275 . S
O559 C575 1.254 . S
O560 Dy552 2.342 . S
O560 C575 1.257 . S
O561 Dy553 2.307 . S
O561 C576 1.266 . S
O562 Dy552 2.300 . S
O562 C576 1.236 . S
O563 Dy553 2.395 . S
O563 C583 1.255 . S
O564 Dy553 2.379 1_565 S
O564 C583 1.249 1_565 S
C565 O555 1.266 . S
C565 O556 1.236 . S
O566 Dy552 2.278 . S
O566 C554 1.254 1_545 S
O567 Dy553 2.339 1_565 S
O567 C554 1.257 . S
C568 C571 1.344 . S
C568 C572 1.328 . S
C568 C574 1.516 . S
C569 C570 1.304 . S
C569 C573 1.323 . S
C570 C569 1.304 . S
C570 C571 1.371 . S
C570 H584 0.930 . S
C571 C568 1.344 . S
C571 C570 1.371 . S
C571 H585 0.931 . S
C572 C568 1.328 . S
C572 C573 1.433 . S
C572 H586 0.931 . S
C573 C569 1.323 . S
C573 C572 1.433 . S
C573 H587 0.933 . S
C574 Dy552 2.733 1_556 S
C574 O557 1.255 . S
C574 O558 1.249 . S
C574 C568 1.516 . S
C575 O559 1.254 . S
C575 O560 1.257 . S
C576 O561 1.266 . S
C576 O562 1.236 . S
C577 C580 1.344 . S
C577 C581 1.328 1_545 S
C577 C583 1.516 . S
C578 C579 1.304 1_565 S
C578 C582 1.323 . S
C579 C578 1.304 1_545 S
C579 C580 1.371 . S
C579 H588 0.930 . S
C580 C577 1.344 . S
C580 C579 1.371 . S
C580 H589 0.931 . S
C581 C577 1.328 1_565 S
C581 C582 1.433 . S
C581 H590 0.931 . S
C582 C578 1.323 . S
C582 C581 1.433 . S
C582 H591 0.933 . S
C583 Dy553 2.738 . S
C583 O563 1.255 . S
C583 O564 1.249 1_545 S
C583 C577 1.516 . S
H584 C570 0.930 . S
H585 C571 0.931 . S
H586 C572 0.931 . S
H587 C573 0.933 . S
H588 C579 0.930 . S
H589 C580 0.931 . S
H590 C581 0.931 . S
H591 C582 0.933 . S
Dy592 O595 2.307 . S
Dy592 O597 2.395 . S
Dy592 O598 2.379 . S
Dy592 O600 2.339 . S
Dy592 O602 2.298 . S
Dy592 O606 2.275 . S
Dy592 C614 2.738 . S
Dy593 O596 2.298 . S
Dy593 O599 2.275 . S
Dy593 O601 2.307 . S
Dy593 O603 2.395 . S
Dy593 O604 2.379 . S
Dy593 O607 2.339 . S
Dy593 C623 2.738 . S
C594 O606 1.254 . S
C594 O607 1.257 . S
O595 Dy592 2.307 . S
O595 C605 1.266 . S
O596 Dy593 2.298 . S
O596 C605 1.236 . S
O597 Dy592 2.395 . S
O597 C614 1.255 . S
O598 Dy592 2.379 . S
O598 C614 1.249 . S
O599 Dy593 2.275 . S
O599 C615 1.254 . S
O600 Dy592 2.339 . S
O600 C615 1.257 . S
O601 Dy593 2.307 . S
O601 C616 1.266 . S
O602 Dy592 2.298 . S
O602 C616 1.236 . S
O603 Dy593 2.395 . S
O603 C623 1.255 . S
O604 Dy593 2.379 . S
O604 C623 1.249 . S
C605 O595 1.266 . S
C605 O596 1.236 . S
O606 Dy592 2.275 . S
O606 C594 1.254 . S
O607 Dy593 2.339 . S
O607 C594 1.257 . S
C608 C611 1.344 . S
C608 C612 1.328 . S
C608 C614 1.516 . S
C609 C610 1.304 . S
C609 C613 1.323 . S
C610 C609 1.304 . S
C610 C611 1.371 . S
C610 H624 0.930 . S
C611 C608 1.344 . S
C611 C610 1.371 . S
C611 H625 0.931 . S
C612 C608 1.328 . S
C612 C613 1.433 . S
C612 H626 0.931 . S
C613 C609 1.323 . S
C613 C612 1.433 . S
C613 H627 0.933 . S
C614 Dy592 2.738 . S
C614 O597 1.255 . S
C614 O598 1.249 . S
C614 C608 1.516 . S
C615 O599 1.254 . S
C615 O600 1.257 . S
C616 O601 1.266 . S
C616 O602 1.236 . S
C617 C620 1.344 . S
C617 C621 1.328 . S
C617 C623 1.516 . S
C618 C619 1.304 . S
C618 C622 1.323 . S
C619 C618 1.304 . S
C619 C620 1.371 . S
C619 H628 0.930 . S
C620 C617 1.344 . S
C620 C619 1.371 . S
C620 H629 0.931 . S
C621 C617 1.328 . S
C621 C622 1.433 . S
C621 H630 0.931 . S
C622 C618 1.323 . S
C622 C621 1.433 . S
C622 H631 0.933 . S
C623 Dy593 2.738 . S
C623 O603 1.255 . S
C623 O604 1.249 . S
C623 C617 1.516 . S
H624 C610 0.930 . S
H625 C611 0.931 . S
H626 C612 0.931 . S
H627 C613 0.933 . S
H628 C619 0.930 . S
H629 C620 0.931 . S
H630 C621 0.931 . S
H631 C622 0.933 . S
Dy632 O635 2.307 1_554 S
Dy632 O637 2.395 . S
Dy632 O638 2.379 . S
Dy632 O640 2.339 . S
Dy632 O642 2.298 . S
Dy632 O646 2.275 . S
Dy632 C654 2.738 . S
Dy633 O636 2.298 1_554 S
Dy633 O639 2.275 . S
Dy633 O641 2.307 . S
Dy633 O643 2.395 . S
Dy633 O644 2.379 . S
Dy633 O647 2.339 . S
Dy633 C663 2.738 . S
C634 O646 1.254 . S
C634 O647 1.257 . S
O635 Dy632 2.307 1_556 S
O635 C645 1.266 . S
O636 Dy633 2.298 1_556 S
O636 C645 1.236 . S
O637 Dy632 2.395 . S
O637 C654 1.255 . S
O638 Dy632 2.379 . S
O638 C654 1.249 . S
O639 Dy633 2.275 . S
O639 C655 1.254 . S
O640 Dy632 2.339 . S
O640 C655 1.257 . S
O641 Dy633 2.307 . S
O641 C656 1.266 . S
O642 Dy632 2.298 . S
O642 C656 1.236 . S
O643 Dy633 2.395 . S
O643 C663 1.255 . S
O644 Dy633 2.379 . S
O644 C663 1.249 . S
C645 O635 1.266 . S
C645 O636 1.236 . S
O646 Dy632 2.275 . S
O646 C634 1.254 . S
O647 Dy633 2.339 . S
O647 C634 1.257 . S
C648 C651 1.344 . S
C648 C652 1.328 . S
C648 C654 1.516 . S
C649 C650 1.304 . S
C649 C653 1.323 . S
C650 C649 1.304 . S
C650 C651 1.371 . S
C650 H664 0.930 . S
C651 C648 1.344 . S
C651 C650 1.371 . S
C651 H665 0.931 . S
C652 C648 1.328 . S
C652 C653 1.433 . S
C652 H666 0.931 . S
C653 C649 1.323 . S
C653 C652 1.433 . S
C653 H667 0.933 . S
C654 Dy632 2.738 . S
C654 O637 1.255 . S
C654 O638 1.249 . S
C654 C648 1.516 . S
C655 O639 1.254 . S
C655 O640 1.257 . S
C656 O641 1.266 . S
C656 O642 1.236 . S
C657 C660 1.344 . S
C657 C661 1.328 . S
C657 C663 1.516 1_556 S
C658 C659 1.304 . S
C658 C662 1.323 . S
C659 C658 1.304 . S
C659 C660 1.371 . S
C659 H668 0.930 . S
C660 C657 1.344 . S
C660 C659 1.371 . S
C660 H669 0.931 . S
C661 C657 1.328 . S
C661 C662 1.433 . S
C661 H670 0.931 1_556 S
C662 C658 1.323 . S
C662 C661 1.433 . S
C662 H671 0.933 . S
C663 Dy633 2.738 . S
C663 O643 1.255 . S
C663 O644 1.249 . S
C663 C657 1.516 1_554 S
H664 C650 0.930 . S
H665 C651 0.931 . S
H666 C652 0.931 . S
H667 C653 0.933 . S
H668 C659 0.930 . S
H669 C660 0.931 . S
H670 C661 0.931 1_554 S
H671 C662 0.933 . S
Dy672 O675 2.307 . S
Dy672 O677 2.395 . S
Dy672 O678 2.379 . S
Dy672 O680 2.339 . S
Dy672 O682 2.298 . S
Dy672 O686 2.275 . S
Dy672 C694 2.738 . S
Dy673 O676 2.298 . S
Dy673 O679 2.275 . S
Dy673 O681 2.307 . S
Dy673 O683 2.395 . S
Dy673 O684 2.379 . S
Dy673 O687 2.339 . S
Dy673 C703 2.738 . S
C674 O686 1.254 . S
C674 O687 1.257 . S
O675 Dy672 2.307 . S
O675 C685 1.266 . S
O676 Dy673 2.298 . S
O676 C685 1.236 . S
O677 Dy672 2.395 . S
O677 C694 1.255 . S
O678 Dy672 2.379 . S
O678 C694 1.249 . S
O679 Dy673 2.275 . S
O679 C695 1.254 . S
O680 Dy672 2.339 . S
O680 C695 1.257 . S
O681 Dy673 2.307 . S
O681 C696 1.266 . S
O682 Dy672 2.298 . S
O682 C696 1.236 . S
O683 Dy673 2.395 . S
O683 C703 1.255 . S
O684 Dy673 2.379 . S
O684 C703 1.249 . S
C685 O675 1.266 . S
C685 O676 1.236 . S
O686 Dy672 2.275 . S
O686 C674 1.254 . S
O687 Dy673 2.339 . S
O687 C674 1.257 . S
C688 C691 1.344 . S
C688 C692 1.328 . S
C688 C694 1.516 . S
C689 C690 1.304 . S
C689 C693 1.323 . S
C690 C689 1.304 . S
C690 C691 1.371 . S
C690 H704 0.930 . S
C691 C688 1.344 . S
C691 C690 1.371 . S
C691 H705 0.931 . S
C692 C688 1.328 . S
C692 C693 1.433 . S
C692 H706 0.931 . S
C693 C689 1.323 . S
C693 C692 1.433 . S
C693 H707 0.933 . S
C694 Dy672 2.738 . S
C694 O677 1.255 . S
C694 O678 1.249 . S
C694 C688 1.516 . S
C695 O679 1.254 . S
C695 O680 1.257 . S
C696 O681 1.266 . S
C696 O682 1.236 . S
C697 C700 1.344 . S
C697 C701 1.328 . S
C697 C703 1.516 . S
C698 C699 1.304 . S
C698 C702 1.323 . S
C699 C698 1.304 . S
C699 C700 1.371 . S
C699 H708 0.930 . S
C700 C697 1.344 . S
C700 C699 1.371 . S
C700 H709 0.931 . S
C701 C697 1.328 . S
C701 C702 1.433 . S
C701 H710 0.931 . S
C702 C698 1.323 . S
C702 C701 1.433 . S
C702 H711 0.933 . S
C703 Dy673 2.738 . S
C703 O683 1.255 . S
C703 O684 1.249 . S
C703 C697 1.516 . S
H704 C690 0.930 . S
H705 C691 0.931 . S
H706 C692 0.931 . S
H707 C693 0.933 . S
H708 C699 0.930 . S
H709 C700 0.931 . S
H710 C701 0.931 . S
H711 C702 0.933 . S
Dy712 O715 2.307 1_455 S
Dy712 O717 2.395 . S
Dy712 O718 2.379 . S
Dy712 O720 2.339 . S
Dy712 O722 2.298 . S
Dy712 O726 2.275 . S
Dy712 C734 2.738 . S
Dy713 O716 2.298 1_455 S
Dy713 O719 2.275 . S
Dy713 O721 2.307 . S
Dy713 O723 2.395 . S
Dy713 O724 2.379 . S
Dy713 O727 2.339 . S
Dy713 C743 2.738 . S
C714 O726 1.254 . S
C714 O727 1.257 . S
O715 Dy712 2.307 1_655 S
O715 C725 1.266 . S
O716 Dy713 2.298 1_655 S
O716 C725 1.236 . S
O717 Dy712 2.395 . S
O717 C734 1.255 . S
O718 Dy712 2.379 . S
O718 C734 1.249 . S
O719 Dy713 2.275 . S
O719 C735 1.254 . S
O720 Dy712 2.339 . S
O720 C735 1.257 . S
O721 Dy713 2.307 . S
O721 C736 1.266 . S
O722 Dy712 2.298 . S
O722 C736 1.236 . S
O723 Dy713 2.395 . S
O723 C743 1.255 . S
O724 Dy713 2.379 . S
O724 C743 1.249 . S
C725 O715 1.266 . S
C725 O716 1.236 . S
O726 Dy712 2.275 . S
O726 C714 1.254 . S
O727 Dy713 2.339 . S
O727 C714 1.257 . S
C728 C731 1.344 . S
C728 C732 1.328 . S
C728 C734 1.516 . S
C729 C730 1.304 . S
C729 C733 1.323 . S
C730 C729 1.304 . S
C730 C731 1.371 . S
C730 H744 0.930 . S
C731 C728 1.344 . S
C731 C730 1.371 . S
C731 H745 0.931 . S
C732 C728 1.328 . S
C732 C733 1.433 . S
C732 H746 0.931 . S
C733 C729 1.323 . S
C733 C732 1.433 . S
C733 H747 0.933 . S
C734 Dy712 2.738 . S
C734 O717 1.255 . S
C734 O718 1.249 . S
C734 C728 1.516 . S
C735 O719 1.254 . S
C735 O720 1.257 . S
C736 O721 1.266 . S
C736 O722 1.236 . S
C737 C740 1.344 . S
C737 C741 1.328 . S
C737 C743 1.516 1_655 S
C738 C739 1.304 . S
C738 C742 1.323 . S
C739 C738 1.304 . S
C739 C740 1.371 . S
C739 H748 0.930 . S
C740 C737 1.344 . S
C740 C739 1.371 . S
C740 H749 0.931 . S
C741 C737 1.328 . S
C741 C742 1.433 . S
C741 H750 0.931 1_655 S
C742 C738 1.323 . S
C742 C741 1.433 . S
C742 H751 0.933 . S
C743 Dy713 2.738 . S
C743 O723 1.255 . S
C743 O724 1.249 . S
C743 C737 1.516 1_455 S
H744 C730 0.930 . S
H745 C731 0.931 . S
H746 C732 0.931 . S
H747 C733 0.933 . S
H748 C739 0.930 . S
H749 C740 0.931 . S
H750 C741 0.931 1_455 S
H751 C742 0.933 . S
Dy752 O755 2.307 . S
Dy752 O757 2.395 . S
Dy752 O758 2.379 . S
Dy752 O760 2.339 . S
Dy752 O762 2.298 . S
Dy752 O766 2.275 . S
Dy752 C774 2.738 . S
Dy753 O756 2.298 . S
Dy753 O759 2.275 . S
Dy753 O761 2.307 . S
Dy753 O763 2.395 . S
Dy753 O764 2.379 . S
Dy753 O767 2.339 . S
Dy753 C783 2.738 . S
C754 O766 1.254 . S
C754 O767 1.257 . S
O755 Dy752 2.307 . S
O755 C765 1.266 . S
O756 Dy753 2.298 . S
O756 C765 1.236 . S
O757 Dy752 2.395 . S
O757 C774 1.255 . S
O758 Dy752 2.379 . S
O758 C774 1.249 . S
O759 Dy753 2.275 . S
O759 C775 1.254 . S
O760 Dy752 2.339 . S
O760 C775 1.257 . S
O761 Dy753 2.307 . S
O761 C776 1.266 . S
O762 Dy752 2.298 . S
O762 C776 1.236 . S
O763 Dy753 2.395 . S
O763 C783 1.255 . S
O764 Dy753 2.379 . S
O764 C783 1.249 . S
C765 O755 1.266 . S
C765 O756 1.236 . S
O766 Dy752 2.275 . S
O766 C754 1.254 . S
O767 Dy753 2.339 . S
O767 C754 1.257 . S
C768 C771 1.344 . S
C768 C772 1.328 . S
C768 C774 1.516 . S
C769 C770 1.304 . S
C769 C773 1.323 . S
C770 C769 1.304 . S
C770 C771 1.371 . S
C770 H784 0.930 . S
C771 C768 1.344 . S
C771 C770 1.371 . S
C771 H785 0.931 . S
C772 C768 1.328 . S
C772 C773 1.433 . S
C772 H786 0.931 . S
C773 C769 1.323 . S
C773 C772 1.433 . S
C773 H787 0.933 . S
C774 Dy752 2.738 . S
C774 O757 1.255 . S
C774 O758 1.249 . S
C774 C768 1.516 . S
C775 O759 1.254 . S
C775 O760 1.257 . S
C776 O761 1.266 . S
C776 O762 1.236 . S
C777 C780 1.344 . S
C777 C781 1.328 . S
C777 C783 1.516 . S
C778 C779 1.304 . S
C778 C782 1.323 . S
C779 C778 1.304 . S
C779 C780 1.371 . S
C779 H788 0.930 . S
C780 C777 1.344 . S
C780 C779 1.371 . S
C780 H789 0.931 . S
C781 C777 1.328 . S
C781 C782 1.433 . S
C781 H790 0.931 . S
C782 C778 1.323 . S
C782 C781 1.433 . S
C782 H791 0.933 . S
C783 Dy753 2.738 . S
C783 O763 1.255 . S
C783 O764 1.249 . S
C783 C777 1.516 . S
H784 C770 0.930 . S
H785 C771 0.931 . S
H786 C772 0.931 . S
H787 C773 0.933 . S
H788 C779 0.930 . S
H789 C780 0.931 . S
H790 C781 0.931 . S
H791 C782 0.933 . S
Dy792 O795 2.307 . S
Dy792 O797 2.395 . S
Dy792 O798 2.379 . S
Dy792 O800 2.339 . S
Dy792 O802 2.298 . S
Dy792 O806 2.275 . S
Dy792 C814 2.738 . S
Dy793 O796 2.298 . S
Dy793 O799 2.275 . S
Dy793 O801 2.307 . S
Dy793 O803 2.395 . S
Dy793 O804 2.379 . S
Dy793 O807 2.339 . S
Dy793 C823 2.738 . S
C794 O806 1.254 . S
C794 O807 1.257 . S
O795 Dy792 2.307 . S
O795 C805 1.266 . S
O796 Dy793 2.298 . S
O796 C805 1.236 . S
O797 Dy792 2.395 . S
O797 C814 1.255 . S
O798 Dy792 2.379 . S
O798 C814 1.249 . S
O799 Dy793 2.275 . S
O799 C815 1.254 . S
O800 Dy792 2.339 . S
O800 C815 1.257 . S
O801 Dy793 2.307 . S
O801 C816 1.266 . S
O802 Dy792 2.298 . S
O802 C816 1.236 . S
O803 Dy793 2.395 . S
O803 C823 1.255 . S
O804 Dy793 2.379 . S
O804 C823 1.249 . S
C805 O795 1.266 . S
C805 O796 1.236 . S
O806 Dy792 2.275 . S
O806 C794 1.254 . S
O807 Dy793 2.339 . S
O807 C794 1.257 . S
C808 C811 1.344 . S
C808 C812 1.328 . S
C808 C814 1.516 . S
C809 C810 1.304 . S
C809 C813 1.323 . S
C810 C809 1.304 . S
C810 C811 1.371 . S
C810 H824 0.930 . S
C811 C808 1.344 . S
C811 C810 1.371 . S
C811 H825 0.931 . S
C812 C808 1.328 . S
C812 C813 1.433 . S
C812 H826 0.931 . S
C813 C809 1.323 . S
C813 C812 1.433 . S
C813 H827 0.933 . S
C814 Dy792 2.738 . S
C814 O797 1.255 . S
C814 O798 1.249 . S
C814 C808 1.516 . S
C815 O799 1.254 . S
C815 O800 1.257 . S
C816 O801 1.266 . S
C816 O802 1.236 . S
C817 C820 1.344 . S
C817 C821 1.328 . S
C817 C823 1.516 . S
C818 C819 1.304 . S
C818 C822 1.323 . S
C819 C818 1.304 . S
C819 C820 1.371 . S
C819 H828 0.930 . S
C820 C817 1.344 . S
C820 C819 1.371 . S
C820 H829 0.931 . S
C821 C817 1.328 . S
C821 C822 1.433 . S
C821 H830 0.931 . S
C822 C818 1.323 . S
C822 C821 1.433 . S
C822 H831 0.933 . S
C823 Dy793 2.738 . S
C823 O803 1.255 . S
C823 O804 1.249 . S
C823 C817 1.516 . S
H824 C810 0.930 . S
H825 C811 0.931 . S
H826 C812 0.931 . S
H827 C813 0.933 . S
H828 C819 0.930 . S
H829 C820 0.931 . S
H830 C821 0.931 . S
H831 C822 0.933 . S
Dy832 O835 2.307 . S
Dy832 O837 2.395 . S
Dy832 O838 2.379 . S
Dy832 O840 2.339 . S
Dy832 O842 2.298 . S
Dy832 O846 2.275 . S
Dy832 C854 2.738 . S
Dy833 O836 2.298 . S
Dy833 O839 2.275 . S
Dy833 O841 2.307 . S
Dy833 O843 2.395 . S
Dy833 O844 2.379 . S
Dy833 O847 2.339 . S
Dy833 C863 2.738 . S
C834 O846 1.254 . S
C834 O847 1.257 . S
O835 Dy832 2.307 . S
O835 C845 1.266 . S
O836 Dy833 2.298 . S
O836 C845 1.236 . S
O837 Dy832 2.395 . S
O837 C854 1.255 . S
O838 Dy832 2.379 . S
O838 C854 1.249 . S
O839 Dy833 2.275 . S
O839 C855 1.254 . S
O840 Dy832 2.339 . S
O840 C855 1.257 . S
O841 Dy833 2.307 . S
O841 C856 1.266 . S
O842 Dy832 2.298 . S
O842 C856 1.236 . S
O843 Dy833 2.395 . S
O843 C863 1.255 . S
O844 Dy833 2.379 . S
O844 C863 1.249 . S
C845 O835 1.266 . S
C845 O836 1.236 . S
O846 Dy832 2.275 . S
O846 C834 1.254 . S
O847 Dy833 2.339 . S
O847 C834 1.257 . S
C848 C851 1.344 . S
C848 C852 1.328 . S
C848 C854 1.516 . S
C849 C850 1.304 . S
C849 C853 1.323 . S
C850 C849 1.304 . S
C850 C851 1.371 . S
C850 H864 0.930 . S
C851 C848 1.344 . S
C851 C850 1.371 . S
C851 H865 0.931 . S
C852 C848 1.328 . S
C852 C853 1.433 . S
C852 H866 0.931 . S
C853 C849 1.323 . S
C853 C852 1.433 . S
C853 H867 0.933 . S
C854 Dy832 2.738 . S
C854 O837 1.255 . S
C854 O838 1.249 . S
C854 C848 1.516 . S
C855 O839 1.254 . S
C855 O840 1.257 . S
C856 O841 1.266 . S
C856 O842 1.236 . S
C857 C860 1.344 . S
C857 C861 1.328 . S
C857 C863 1.516 . S
C858 C859 1.304 . S
C858 C862 1.323 . S
C859 C858 1.304 . S
C859 C860 1.371 . S
C859 H868 0.930 . S
C860 C857 1.344 . S
C860 C859 1.371 . S
C860 H869 0.931 . S
C861 C857 1.328 . S
C861 C862 1.433 . S
C861 H870 0.931 . S
C862 C858 1.323 . S
C862 C861 1.433 . S
C862 H871 0.933 . S
C863 Dy833 2.738 . S
C863 O843 1.255 . S
C863 O844 1.249 . S
C863 C857 1.516 . S
H864 C850 0.930 . S
H865 C851 0.931 . S
H866 C852 0.931 . S
H867 C853 0.933 . S
H868 C859 0.930 . S
H869 C860 0.931 . S
H870 C861 0.931 . S
H871 C862 0.933 . S
Dy872 O875 2.307 . S
Dy872 O877 2.395 . S
Dy872 O878 2.379 . S
Dy872 O880 2.339 . S
Dy872 O882 2.298 . S
Dy872 O886 2.275 . S
Dy872 C894 2.738 . S
Dy873 O876 2.298 . S
Dy873 O879 2.275 . S
Dy873 O881 2.307 . S
Dy873 O883 2.395 . S
Dy873 O884 2.379 . S
Dy873 O887 2.339 . S
Dy873 C903 2.738 . S
C874 O886 1.254 . S
C874 O887 1.257 . S
O875 Dy872 2.307 . S
O875 C885 1.266 . S
O876 Dy873 2.298 . S
O876 C885 1.236 . S
O877 Dy872 2.395 . S
O877 C894 1.255 . S
O878 Dy872 2.379 . S
O878 C894 1.249 . S
O879 Dy873 2.275 . S
O879 C895 1.254 . S
O880 Dy872 2.339 . S
O880 C895 1.257 . S
O881 Dy873 2.307 . S
O881 C896 1.266 . S
O882 Dy872 2.298 . S
O882 C896 1.236 . S
O883 Dy873 2.395 . S
O883 C903 1.255 . S
O884 Dy873 2.379 . S
O884 C903 1.249 . S
C885 O875 1.266 . S
C885 O876 1.236 . S
O886 Dy872 2.275 . S
O886 C874 1.254 . S
O887 Dy873 2.339 . S
O887 C874 1.257 . S
C888 C891 1.344 . S
C888 C892 1.328 . S
C888 C894 1.516 . S
C889 C890 1.304 . S
C889 C893 1.323 . S
C890 C889 1.304 . S
C890 C891 1.371 . S
C890 H904 0.930 . S
C891 C888 1.344 . S
C891 C890 1.371 . S
C891 H905 0.931 . S
C892 C888 1.328 . S
C892 C893 1.433 . S
C892 H906 0.931 . S
C893 C889 1.323 . S
C893 C892 1.433 . S
C893 H907 0.933 . S
C894 Dy872 2.738 . S
C894 O877 1.255 . S
C894 O878 1.249 . S
C894 C888 1.516 . S
C895 O879 1.254 . S
C895 O880 1.257 . S
C896 O881 1.266 . S
C896 O882 1.236 . S
C897 C900 1.344 . S
C897 C901 1.328 . S
C897 C903 1.516 . S
C898 C899 1.304 . S
C898 C902 1.323 . S
C899 C898 1.304 . S
C899 C900 1.371 . S
C899 H908 0.930 . S
C900 C897 1.344 . S
C900 C899 1.371 . S
C900 H909 0.931 . S
C901 C897 1.328 . S
C901 C902 1.433 . S
C901 H910 0.931 . S
C902 C898 1.323 . S
C902 C901 1.433 . S
C902 H911 0.933 . S
C903 Dy873 2.738 . S
C903 O883 1.255 . S
C903 O884 1.249 . S
C903 C897 1.516 . S
H904 C890 0.930 . S
H905 C891 0.931 . S
H906 C892 0.931 . S
H907 C893 0.933 . S
H908 C899 0.930 . S
H909 C900 0.931 . S
H910 C901 0.931 . S
H911 C902 0.933 . S
Dy912 O915 2.307 . S
Dy912 O917 2.395 1_455 S
Dy912 O918 2.379 1_455 S
Dy912 O920 2.339 . S
Dy912 O922 2.298 . S
Dy912 O926 2.242 1_554 S
Dy912 C934 2.738 1_455 S
Dy913 O916 2.298 . S
Dy913 O919 2.275 . S
Dy913 O921 2.307 . S
Dy913 O923 2.395 . S
Dy913 O924 2.379 1_554 S
Dy913 O927 2.339 1_554 S
Dy913 C943 2.738 . S
C914 O926 1.288 . S
C914 O927 1.257 . S
O915 Dy912 2.307 . S
O915 C925 1.266 . S
O916 Dy913 2.298 . S
O916 C925 1.236 . S
O917 Dy912 2.395 1_655 S
O917 C934 1.255 . S
O918 Dy912 2.379 1_655 S
O918 C934 1.249 . S
O919 Dy913 2.275 . S
O919 C935 1.254 . S
O920 Dy912 2.339 . S
O920 C935 1.257 . S
O921 Dy913 2.307 . S
O921 C936 1.266 . S
O922 Dy912 2.298 . S
O922 C936 1.236 . S
O923 Dy913 2.395 . S
O923 C943 1.255 . S
O924 Dy913 2.379 1_556 S
O924 C943 1.249 1_556 S
C925 O915 1.266 . S
C925 O916 1.236 . S
O926 Dy912 2.242 1_556 S
O926 C914 1.288 . S
O927 Dy913 2.339 1_556 S
O927 C914 1.257 . S
C928 C931 1.344 . S
C928 C932 1.328 . S
C928 C934 1.516 . S
C929 C930 1.304 . S
C929 C933 1.323 . S
C930 C929 1.304 . S
C930 C931 1.371 . S
C930 H944 0.930 . S
C931 C928 1.344 . S
C931 C930 1.371 . S
C931 H945 0.931 . S
C932 C928 1.328 . S
C932 C933 1.433 . S
C932 H946 0.931 . S
C933 C929 1.323 . S
C933 C932 1.433 . S
C933 H947 0.933 . S
C934 Dy912 2.738 1_655 S
C934 O917 1.255 . S
C934 O918 1.249 . S
C934 C928 1.516 . S
C935 O919 1.254 . S
C935 O920 1.257 . S
C936 O921 1.266 . S
C936 O922 1.236 . S
C937 C940 1.344 1_556 S
C937 C941 1.328 . S
C937 C943 1.516 1_556 S
C938 C939 1.304 1_556 S
C938 C942 1.323 . S
C939 C938 1.304 1_554 S
C939 C940 1.371 . S
C939 H948 0.930 . S
C940 C937 1.344 1_554 S
C940 C939 1.371 . S
C940 H949 0.931 . S
C941 C937 1.328 . S
C941 C942 1.433 . S
C941 H950 0.931 . S
C942 C938 1.323 . S
C942 C941 1.433 . S
C942 H951 0.933 . S
C943 Dy913 2.738 . S
C943 O923 1.255 . S
C943 O924 1.249 1_554 S
C943 C937 1.516 1_554 S
H944 C930 0.930 . S
H945 C931 0.931 . S
H946 C932 0.931 . S
H947 C933 0.933 . S
H948 C939 0.930 . S
H949 C940 0.931 . S
H950 C941 0.931 . S
H951 C942 0.933 . S
C952 C953 1.349 . S
C952 C954 1.327 . S
C952 H977 0.950 . S
C953 C952 1.349 . S
C953 C969 1.349 1_655 S
C954 C952 1.327 . S
C954 C973 1.429 1_655 S
C954 H978 0.950 . S
C955 C972 1.574 . S
C955 C974 1.368 . S
C955 H979 0.949 . S
H956 C960 0.949 . S
C957 C958 1.349 . S
C957 C959 1.310 1_554 S
C957 H980 0.951 1_554 S
C958 C957 1.349 . S
C958 C970 1.349 . S
C959 C957 1.310 1_556 S
C959 C975 1.413 1_556 S
C959 H981 0.985 . S
C960 H956 0.949 . S
C960 C968 1.574 . S
C960 C976 1.359 1_654 S
H961 C969 0.950 . S
H962 C967 0.950 . S
H963 C968 0.949 . S
H964 C970 0.950 1_655 S
H965 C971 0.907 1_655 S
H966 C972 0.949 . S
C967 H962 0.950 . S
C967 C969 1.327 . S
C967 C973 1.429 . S
C968 C960 1.574 . S
C968 H963 0.949 . S
C968 C974 1.368 1_654 S
C969 C953 1.349 1_455 S
C969 H961 0.950 . S
C969 C967 1.327 . S
C970 C958 1.349 . S
C970 H964 0.950 1_455 S
C970 C971 1.345 . S
C971 H965 0.907 1_455 S
C971 C970 1.345 . S
C971 C975 1.454 . S
C972 C955 1.574 . S
C972 H966 0.949 . S
C972 C976 1.384 . S
C973 C954 1.429 1_455 S
C973 C967 1.429 . S
C973 C974 1.523 . S
C974 C955 1.368 . S
C974 C968 1.368 1_456 S
C974 C973 1.523 . S
C975 C959 1.413 1_554 S
C975 C971 1.454 . S
C975 C976 1.515 1_554 S
C976 C960 1.359 1_456 S
C976 C972 1.384 . S
C976 C975 1.515 1_556 S
H977 C952 0.950 . S
H978 C954 0.950 . S
H979 C955 0.949 . S
H980 C957 0.951 1_556 S
H981 C959 0.985 . S
C982 C983 1.349 . S
C982 C984 1.327 . S
C982 H1007 0.950 . S
C983 C982 1.349 . S
C983 C999 1.349 . S
C984 C982 1.327 . S
C984 C1003 1.429 . S
C984 H1008 0.950 . S
C985 C1002 1.574 . S
C985 C1004 1.368 . S
C985 H1009 0.949 . S
H986 C990 0.949 . S
C987 C988 1.349 . S
C987 C989 1.327 . S
C987 H1010 0.950 . S
C988 C987 1.349 . S
C988 C1000 1.349 . S
C989 C987 1.327 . S
C989 C1005 1.429 . S
C989 H1011 0.950 . S
C990 H986 0.949 . S
C990 C998 1.574 . S
C990 C1006 1.368 . S
H991 C999 0.950 . S
H992 C997 0.950 . S
H993 C998 0.949 . S
H994 C1000 0.950 . S
H995 C1001 0.950 . S
H996 C1002 0.949 . S
C997 H992 0.950 . S
C997 C999 1.327 . S
C997 C1003 1.429 . S
C998 C990 1.574 . S
C998 H993 0.949 . S
C998 C1004 1.368 . S
C999 C983 1.349 . S
C999 H991 0.950 . S
C999 C997 1.327 . S
C1000 C988 1.349 . S
C1000 H994 0.950 . S
C1000 C1001 1.327 . S
C1001 H995 0.950 . S
C1001 C1000 1.327 . S
C1001 C1005 1.429 . S
C1002 C985 1.574 . S
C1002 H996 0.949 . S
C1002 C1006 1.368 . S
C1003 C984 1.429 . S
C1003 C997 1.429 . S
C1003 C1004 1.523 . S
C1004 C985 1.368 . S
C1004 C998 1.368 . S
C1004 C1003 1.523 . S
C1005 C989 1.429 . S
C1005 C1001 1.429 . S
C1005 C1006 1.523 . S
C1006 C990 1.368 . S
C1006 C1002 1.368 . S
C1006 C1005 1.523 . S
H1007 C982 0.950 . S
H1008 C984 0.950 . S
H1009 C985 0.949 . S
H1010 C987 0.950 . S
H1011 C989 0.950 . S
C1012 C1013 1.349 . S
C1012 C1014 1.327 . S
C1012 H1037 0.950 . S
C1013 C1012 1.349 . S
C1013 C1029 1.349 . S
C1014 C1012 1.327 . S
C1014 C1033 1.429 . S
C1014 H1038 0.950 . S
C1015 C1032 1.574 . S
C1015 C1034 1.368 . S
C1015 H1039 0.949 . S
H1016 C1020 0.949 . S
C1017 C1018 1.349 . S
C1017 C1019 1.327 . S
C1017 H1040 0.950 . S
C1018 C1017 1.349 . S
C1018 C1030 1.349 . S
C1019 C1017 1.327 . S
C1019 C1035 1.429 . S
C1019 H1041 0.950 . S
C1020 H1016 0.949 . S
C1020 C1028 1.574 . S
C1020 C1036 1.368 . S
H1021 C1029 0.950 . S
H1022 C1027 0.950 . S
H1023 C1028 0.949 . S
H1024 C1030 0.950 . S
H1025 C1031 0.950 . S
H1026 C1032 0.949 . S
C1027 H1022 0.950 . S
C1027 C1029 1.327 . S
C1027 C1033 1.429 . S
C1028 C1020 1.574 . S
C1028 H1023 0.949 . S
C1028 C1034 1.368 . S
C1029 C1013 1.349 . S
C1029 H1021 0.950 . S
C1029 C1027 1.327 . S
C1030 C1018 1.349 . S
C1030 H1024 0.950 . S
C1030 C1031 1.327 . S
C1031 H1025 0.950 . S
C1031 C1030 1.327 . S
C1031 C1035 1.429 . S
C1032 C1015 1.574 . S
C1032 H1026 0.949 . S
C1032 C1036 1.368 . S
C1033 C1014 1.429 . S
C1033 C1027 1.429 . S
C1033 C1034 1.523 . S
C1034 C1015 1.368 . S
C1034 C1028 1.368 . S
C1034 C1033 1.523 . S
C1035 C1019 1.429 . S
C1035 C1031 1.429 . S
C1035 C1036 1.523 . S
C1036 C1020 1.368 . S
C1036 C1032 1.368 . S
C1036 C1035 1.523 . S
H1037 C1012 0.950 . S
H1038 C1014 0.950 . S
H1039 C1015 0.949 . S
H1040 C1017 0.950 . S
H1041 C1019 0.950 . S
C1042 C1043 1.349 . S
C1042 C1044 1.327 . S
C1042 H1067 0.950 . S
C1043 C1042 1.349 . S
C1043 C1059 1.349 . S
C1044 C1042 1.327 . S
C1044 C1063 1.429 . S
C1044 H1068 0.950 . S
C1045 C1062 1.574 . S
C1045 C1064 1.368 . S
C1045 H1069 0.949 . S
H1046 C1050 0.949 . S
C1047 C1048 1.349 . S
C1047 C1049 1.327 . S
C1047 H1070 0.950 . S
C1048 C1047 1.349 . S
C1048 C1060 1.349 . S
C1049 C1047 1.327 . S
C1049 C1065 1.429 . S
C1049 H1071 0.950 . S
C1050 H1046 0.949 . S
C1050 C1058 1.574 . S
C1050 C1066 1.368 . S
H1051 C1059 0.950 . S
H1052 C1057 0.950 . S
H1053 C1058 0.949 . S
H1054 C1060 0.950 . S
H1055 C1061 0.950 . S
H1056 C1062 0.949 . S
C1057 H1052 0.950 . S
C1057 C1059 1.327 . S
C1057 C1063 1.429 . S
C1058 C1050 1.574 . S
C1058 H1053 0.949 . S
C1058 C1064 1.368 . S
C1059 C1043 1.349 . S
C1059 H1051 0.950 . S
C1059 C1057 1.327 . S
C1060 C1048 1.349 . S
C1060 H1054 0.950 . S
C1060 C1061 1.327 . S
C1061 H1055 0.950 . S
C1061 C1060 1.327 . S
C1061 C1065 1.429 . S
C1062 C1045 1.574 . S
C1062 H1056 0.949 . S
C1062 C1066 1.368 . S
C1063 C1044 1.429 . S
C1063 C1057 1.429 . S
C1063 C1064 1.523 . S
C1064 C1045 1.368 . S
C1064 C1058 1.368 . S
C1064 C1063 1.523 . S
C1065 C1049 1.429 . S
C1065 C1061 1.429 . S
C1065 C1066 1.523 . S
C1066 C1050 1.368 . S
C1066 C1062 1.368 . S
C1066 C1065 1.523 . S
H1067 C1042 0.950 . S
H1068 C1044 0.950 . S
H1069 C1045 0.949 . S
H1070 C1047 0.950 . S
H1071 C1049 0.950 . S
C1072 C1073 1.349 . S
C1072 C1074 1.327 . S
C1072 H1097 0.950 . S
C1073 C1072 1.349 . S
C1073 C1089 1.349 . S
C1074 C1072 1.327 . S
C1074 C1093 1.429 . S
C1074 H1098 0.950 . S
C1075 C1092 1.574 . S
C1075 C1094 1.368 . S
C1075 H1099 0.949 . S
H1076 C1080 0.949 . S
C1077 C1078 1.349 . S
C1077 C1079 1.327 . S
C1077 H1100 0.950 . S
C1078 C1077 1.349 . S
C1078 C1090 1.349 . S
C1079 C1077 1.327 . S
C1079 C1095 1.429 . S
C1079 H1101 0.950 . S
C1080 H1076 0.949 . S
C1080 C1088 1.574 . S
C1080 C1096 1.368 . S
H1081 C1089 0.950 . S
H1082 C1087 0.950 . S
H1083 C1088 0.949 . S
H1084 C1090 0.950 . S
H1085 C1091 0.950 . S
H1086 C1092 0.949 . S
C1087 H1082 0.950 . S
C1087 C1089 1.327 . S
C1087 C1093 1.429 . S
C1088 C1080 1.574 . S
C1088 H1083 0.949 . S
C1088 C1094 1.368 . S
C1089 C1073 1.349 . S
C1089 H1081 0.950 . S
C1089 C1087 1.327 . S
C1090 C1078 1.349 . S
C1090 H1084 0.950 . S
C1090 C1091 1.327 . S
C1091 H1085 0.950 . S
C1091 C1090 1.327 . S
C1091 C1095 1.429 . S
C1092 C1075 1.574 . S
C1092 H1086 0.949 . S
C1092 C1096 1.368 . S
C1093 C1074 1.429 . S
C1093 C1087 1.429 . S
C1093 C1094 1.523 . S
C1094 C1075 1.368 . S
C1094 C1088 1.368 . S
C1094 C1093 1.523 . S
C1095 C1079 1.429 . S
C1095 C1091 1.429 . S
C1095 C1096 1.523 . S
C1096 C1080 1.368 . S
C1096 C1092 1.368 . S
C1096 C1095 1.523 . S
H1097 C1072 0.950 . S
H1098 C1074 0.950 . S
H1099 C1075 0.949 . S
H1100 C1077 0.950 . S
H1101 C1079 0.950 . S
C1102 C1103 1.349 . S
C1102 C1104 1.327 . S
C1102 H1127 0.950 . S
C1103 C1102 1.349 . S
C1103 C1119 1.349 . S
C1104 C1102 1.327 . S
C1104 C1123 1.429 . S
C1104 H1128 0.950 . S
C1105 C1122 1.574 . S
C1105 C1124 1.368 . S
C1105 H1129 0.949 . S
H1106 C1110 0.949 . S
C1107 C1108 1.349 . S
C1107 C1109 1.327 . S
C1107 H1130 0.950 . S
C1108 C1107 1.349 . S
C1108 C1120 1.349 . S
C1109 C1107 1.327 . S
C1109 C1125 1.429 . S
C1109 H1131 0.950 . S
C1110 H1106 0.949 . S
C1110 C1118 1.574 . S
C1110 C1126 1.368 . S
H1111 C1119 0.950 . S
H1112 C1117 0.950 . S
H1113 C1118 0.949 . S
H1114 C1120 0.950 . S
H1115 C1121 0.950 . S
H1116 C1122 0.949 . S
C1117 H1112 0.950 . S
C1117 C1119 1.327 . S
C1117 C1123 1.429 . S
C1118 C1110 1.574 . S
C1118 H1113 0.949 . S
C1118 C1124 1.368 . S
C1119 C1103 1.349 . S
C1119 H1111 0.950 . S
C1119 C1117 1.327 . S
C1120 C1108 1.349 . S
C1120 H1114 0.950 . S
C1120 C1121 1.327 . S
C1121 H1115 0.950 . S
C1121 C1120 1.327 . S
C1121 C1125 1.429 . S
C1122 C1105 1.574 . S
C1122 H1116 0.949 . S
C1122 C1126 1.368 . S
C1123 C1104 1.429 . S
C1123 C1117 1.429 . S
C1123 C1124 1.523 . S
C1124 C1105 1.368 . S
C1124 C1118 1.368 . S
C1124 C1123 1.523 . S
C1125 C1109 1.429 . S
C1125 C1121 1.429 . S
C1125 C1126 1.523 . S
C1126 C1110 1.368 . S
C1126 C1122 1.368 . S
C1126 C1125 1.523 . S
H1127 C1102 0.950 . S
H1128 C1104 0.950 . S
H1129 C1105 0.949 . S
H1130 C1107 0.950 . S
H1131 C1109 0.950 . S
C1132 C1133 1.349 . S
C1132 C1134 1.327 . S
C1132 H1157 0.950 . S
C1133 C1132 1.349 . S
C1133 C1149 1.349 . S
C1134 C1132 1.327 . S
C1134 C1153 1.429 . S
C1134 H1158 0.950 . S
C1135 C1152 1.574 . S
C1135 C1154 1.368 . S
C1135 H1159 0.949 . S
H1136 C1140 0.949 . S
C1137 C1138 1.349 . S
C1137 C1139 1.327 . S
C1137 H1160 0.950 . S
C1138 C1137 1.349 . S
C1138 C1150 1.349 . S
C1139 C1137 1.327 . S
C1139 C1155 1.429 . S
C1139 H1161 0.950 . S
C1140 H1136 0.949 . S
C1140 C1148 1.574 . S
C1140 C1156 1.368 . S
H1141 C1149 0.950 . S
H1142 C1147 0.950 . S
H1143 C1148 0.949 . S
H1144 C1150 0.950 . S
H1145 C1151 0.950 . S
H1146 C1152 0.949 . S
C1147 H1142 0.950 . S
C1147 C1149 1.327 . S
C1147 C1153 1.429 . S
C1148 C1140 1.574 . S
C1148 H1143 0.949 . S
C1148 C1154 1.368 . S
C1149 C1133 1.349 . S
C1149 H1141 0.950 . S
C1149 C1147 1.327 . S
C1150 C1138 1.349 . S
C1150 H1144 0.950 . S
C1150 C1151 1.327 . S
C1151 H1145 0.950 . S
C1151 C1150 1.327 . S
C1151 C1155 1.429 . S
C1152 C1135 1.574 . S
C1152 H1146 0.949 . S
C1152 C1156 1.368 . S
C1153 C1134 1.429 . S
C1153 C1147 1.429 . S
C1153 C1154 1.523 . S
C1154 C1135 1.368 . S
C1154 C1148 1.368 . S
C1154 C1153 1.523 . S
C1155 C1139 1.429 . S
C1155 C1151 1.429 . S
C1155 C1156 1.523 . S
C1156 C1140 1.368 . S
C1156 C1152 1.368 . S
C1156 C1155 1.523 . S
H1157 C1132 0.950 . S
H1158 C1134 0.950 . S
H1159 C1135 0.949 . S
H1160 C1137 0.950 . S
H1161 C1139 0.950 . S
C1162 C1163 1.349 . S
C1162 C1164 1.327 . S
C1162 H1187 0.950 . S
C1163 C1162 1.349 . S
C1163 C1179 1.349 . S
C1164 C1162 1.327 . S
C1164 C1183 1.429 . S
C1164 H1188 0.950 . S
C1165 C1182 1.574 . S
C1165 C1184 1.368 . S
C1165 H1189 0.949 . S
H1166 C1170 0.949 . S
C1167 C1168 1.349 . S
C1167 C1169 1.327 . S
C1167 H1190 0.950 . S
C1168 C1167 1.349 . S
C1168 C1180 1.349 . S
C1169 C1167 1.327 . S
C1169 C1185 1.429 . S
C1169 H1191 0.950 . S
C1170 H1166 0.949 . S
C1170 C1178 1.574 . S
C1170 C1186 1.368 . S
H1171 C1179 0.950 . S
H1172 C1177 0.950 . S
H1173 C1178 0.949 . S
H1174 C1180 0.950 . S
H1175 C1181 0.950 . S
H1176 C1182 0.949 . S
C1177 H1172 0.950 . S
C1177 C1179 1.327 . S
C1177 C1183 1.429 . S
C1178 C1170 1.574 . S
C1178 H1173 0.949 . S
C1178 C1184 1.368 . S
C1179 C1163 1.349 . S
C1179 H1171 0.950 . S
C1179 C1177 1.327 . S
C1180 C1168 1.349 . S
C1180 H1174 0.950 . S
C1180 C1181 1.327 . S
C1181 H1175 0.950 . S
C1181 C1180 1.327 . S
C1181 C1185 1.429 . S
C1182 C1165 1.574 . S
C1182 H1176 0.949 . S
C1182 C1186 1.368 . S
C1183 C1164 1.429 . S
C1183 C1177 1.429 . S
C1183 C1184 1.523 . S
C1184 C1165 1.368 . S
C1184 C1178 1.368 . S
C1184 C1183 1.523 . S
C1185 C1169 1.429 . S
C1185 C1181 1.429 . S
C1185 C1186 1.523 . S
C1186 C1170 1.368 . S
C1186 C1182 1.368 . S
C1186 C1185 1.523 . S
H1187 C1162 0.950 . S
H1188 C1164 0.950 . S
H1189 C1165 0.949 . S
H1190 C1167 0.950 . S
H1191 C1169 0.950 . S
C1192 C1193 1.349 . S
C1192 C1194 1.327 . S
C1192 H1217 0.950 . S
C1193 C1192 1.349 . S
C1193 C1209 1.349 . S
C1194 C1192 1.327 . S
C1194 C1213 1.429 . S
C1194 H1218 0.950 . S
C1195 C1212 1.574 . S
C1195 C1214 1.368 . S
C1195 H1219 0.949 . S
H1196 C1200 0.949 . S
C1197 C1198 1.349 . S
C1197 C1199 1.327 . S
C1197 H1220 0.950 . S
C1198 C1197 1.349 . S
C1198 C1210 1.349 1_455 S
C1199 C1197 1.327 . S
C1199 C1215 1.429 1_455 S
C1199 H1221 0.950 . S
C1200 H1196 0.949 . S
C1200 C1208 1.574 . S
C1200 C1216 1.368 . S
H1201 C1209 0.950 . S
H1202 C1207 0.950 . S
H1203 C1208 0.949 . S
H1204 C1210 0.950 . S
H1205 C1211 0.950 . S
H1206 C1212 0.949 1_455 S
C1207 H1202 0.950 . S
C1207 C1209 1.327 . S
C1207 C1213 1.429 . S
C1208 C1200 1.574 . S
C1208 H1203 0.949 . S
C1208 C1214 1.368 . S
C1209 C1193 1.349 . S
C1209 H1201 0.950 . S
C1209 C1207 1.327 . S
C1210 C1198 1.349 1_655 S
C1210 H1204 0.950 . S
C1210 C1211 1.327 . S
C1211 H1205 0.950 . S
C1211 C1210 1.327 . S
C1211 C1215 1.429 . S
C1212 C1195 1.574 . S
C1212 H1206 0.949 1_655 S
C1212 C1216 1.368 . S
C1213 C1194 1.429 . S
C1213 C1207 1.429 . S
C1213 C1214 1.523 . S
C1214 C1195 1.368 . S
C1214 C1208 1.368 . S
C1214 C1213 1.523 . S
C1215 C1199 1.429 1_655 S
C1215 C1211 1.429 . S
C1215 C1216 1.523 . S
C1216 C1200 1.368 . S
C1216 C1212 1.368 . S
C1216 C1215 1.523 . S
H1217 C1192 0.950 . S
H1218 C1194 0.950 . S
H1219 C1195 0.949 . S
H1220 C1197 0.950 . S
H1221 C1199 0.950 . S
C1222 C1223 1.349 . S
C1222 C1224 1.327 . S
C1222 H1247 0.950 . S
C1223 C1222 1.349 . S
C1223 C1239 1.349 . S
C1224 C1222 1.327 . S
C1224 C1243 1.429 . S
C1224 H1248 0.950 . S
C1225 C1242 1.574 . S
C1225 C1244 1.368 . S
C1225 H1249 0.949 . S
H1226 C1230 0.949 . S
C1227 C1228 1.349 . S
C1227 C1229 1.327 . S
C1227 H1250 0.950 . S
C1228 C1227 1.349 . S
C1228 C1240 1.349 . S
C1229 C1227 1.327 . S
C1229 C1245 1.429 . S
C1229 H1251 0.950 . S
C1230 H1226 0.949 . S
C1230 C1238 1.574 . S
C1230 C1246 1.368 . S
H1231 C1239 0.950 . S
H1232 C1237 0.950 . S
H1233 C1238 0.949 . S
H1234 C1240 0.950 . S
H1235 C1241 0.950 . S
H1236 C1242 0.949 . S
C1237 H1232 0.950 . S
C1237 C1239 1.327 . S
C1237 C1243 1.429 . S
C1238 C1230 1.574 . S
C1238 H1233 0.949 . S
C1238 C1244 1.368 . S
C1239 C1223 1.349 . S
C1239 H1231 0.950 . S
C1239 C1237 1.327 . S
C1240 C1228 1.349 . S
C1240 H1234 0.950 . S
C1240 C1241 1.327 . S
C1241 H1235 0.950 . S
C1241 C1240 1.327 . S
C1241 C1245 1.429 . S
C1242 C1225 1.574 . S
C1242 H1236 0.949 . S
C1242 C1246 1.368 . S
C1243 C1224 1.429 . S
C1243 C1237 1.429 . S
C1243 C1244 1.523 . S
C1244 C1225 1.368 . S
C1244 C1238 1.368 . S
C1244 C1243 1.523 . S
C1245 C1229 1.429 . S
C1245 C1241 1.429 . S
C1245 C1246 1.523 . S
C1246 C1230 1.368 . S
C1246 C1242 1.368 . S
C1246 C1245 1.523 . S
H1247 C1222 0.950 . S
H1248 C1224 0.950 . S
H1249 C1225 0.949 . S
H1250 C1227 0.950 . S
H1251 C1229 0.950 . S
C1252 C1253 1.349 . S
C1252 C1254 1.327 . S
C1252 H1277 0.950 . S
C1253 C1252 1.349 . S
C1253 C1269 1.349 . S
C1254 C1252 1.327 . S
C1254 C1273 1.429 . S
C1254 H1278 0.950 . S
C1255 C1272 1.574 . S
C1255 C1274 1.368 . S
C1255 H1279 0.949 . S
H1256 C1260 0.949 . S
C1257 C1258 1.349 . S
C1257 C1259 1.327 . S
C1257 H1280 0.950 . S
C1258 C1257 1.349 . S
C1258 C1270 1.349 . S
C1259 C1257 1.327 . S
C1259 C1275 1.429 . S
C1259 H1281 0.950 . S
C1260 H1256 0.949 . S
C1260 C1268 1.574 . S
C1260 C1276 1.368 . S
H1261 C1269 0.950 . S
H1262 C1267 0.950 . S
H1263 C1268 0.949 . S
H1264 C1270 0.950 . S
H1265 C1271 0.950 . S
H1266 C1272 0.949 . S
C1267 H1262 0.950 . S
C1267 C1269 1.327 . S
C1267 C1273 1.429 . S
C1268 C1260 1.574 . S
C1268 H1263 0.949 . S
C1268 C1274 1.368 . S
C1269 C1253 1.349 . S
C1269 H1261 0.950 . S
C1269 C1267 1.327 . S
C1270 C1258 1.349 . S
C1270 H1264 0.950 . S
C1270 C1271 1.327 . S
C1271 H1265 0.950 . S
C1271 C1270 1.327 . S
C1271 C1275 1.429 . S
C1272 C1255 1.574 . S
C1272 H1266 0.949 . S
C1272 C1276 1.368 . S
C1273 C1254 1.429 . S
C1273 C1267 1.429 . S
C1273 C1274 1.523 . S
C1274 C1255 1.368 . S
C1274 C1268 1.368 . S
C1274 C1273 1.523 . S
C1275 C1259 1.429 . S
C1275 C1271 1.429 . S
C1275 C1276 1.523 . S
C1276 C1260 1.368 . S
C1276 C1272 1.368 . S
C1276 C1275 1.523 . S
H1277 C1252 0.950 . S
H1278 C1254 0.950 . S
H1279 C1255 0.949 . S
H1280 C1257 0.950 . S
H1281 C1259 0.950 . S
C1282 C1283 1.349 . S
C1282 C1284 1.327 . S
C1282 H1307 0.950 . S
C1283 C1282 1.349 . S
C1283 C1299 1.349 . S
C1284 C1282 1.327 . S
C1284 C1303 1.429 . S
C1284 H1308 0.950 . S
C1285 C1302 1.574 . S
C1285 C1304 1.368 . S
C1285 H1309 0.949 . S
H1286 C1290 0.949 . S
C1287 C1288 1.349 . S
C1287 C1289 1.327 . S
C1287 H1310 0.950 . S
C1288 C1287 1.349 . S
C1288 C1300 1.349 . S
C1289 C1287 1.327 . S
C1289 C1305 1.429 . S
C1289 H1311 0.950 . S
C1290 H1286 0.949 . S
C1290 C1298 1.574 . S
C1290 C1306 1.368 . S
H1291 C1299 0.950 . S
H1292 C1297 0.950 . S
H1293 C1298 0.949 . S
H1294 C1300 0.950 . S
H1295 C1301 0.950 . S
H1296 C1302 0.949 . S
C1297 H1292 0.950 . S
C1297 C1299 1.327 . S
C1297 C1303 1.429 . S
C1298 C1290 1.574 . S
C1298 H1293 0.949 . S
C1298 C1304 1.368 . S
C1299 C1283 1.349 . S
C1299 H1291 0.950 . S
C1299 C1297 1.327 . S
C1300 C1288 1.349 . S
C1300 H1294 0.950 . S
C1300 C1301 1.327 . S
C1301 H1295 0.950 . S
C1301 C1300 1.327 . S
C1301 C1305 1.429 . S
C1302 C1285 1.574 . S
C1302 H1296 0.949 . S
C1302 C1306 1.368 . S
C1303 C1284 1.429 . S
C1303 C1297 1.429 . S
C1303 C1304 1.523 . S
C1304 C1285 1.368 . S
C1304 C1298 1.368 . S
C1304 C1303 1.523 . S
C1305 C1289 1.429 . S
C1305 C1301 1.429 . S
C1305 C1306 1.523 . S
C1306 C1290 1.368 . S
C1306 C1302 1.368 . S
C1306 C1305 1.523 . S
H1307 C1282 0.950 . S
H1308 C1284 0.950 . S
H1309 C1285 0.949 . S
H1310 C1287 0.950 . S
H1311 C1289 0.950 . S
C1312 C1313 1.349 . S
C1312 C1314 1.327 . S
C1312 H1337 0.950 . S
C1313 C1312 1.349 . S
C1313 C1329 1.349 . S
C1314 C1312 1.327 . S
C1314 C1333 1.429 . S
C1314 H1338 0.950 . S
C1315 C1332 1.574 . S
C1315 C1334 1.368 . S
C1315 H1339 0.949 . S
H1316 C1320 0.949 . S
C1317 C1318 1.349 1_655 S
C1317 C1319 1.327 . S
C1317 H1340 0.950 . S
C1318 C1317 1.349 1_455 S
C1318 C1330 1.349 . S
C1319 C1317 1.327 . S
C1319 C1335 1.429 . S
C1319 H1341 0.950 . S
C1320 H1316 0.949 . S
C1320 C1328 1.574 1_455 S
C1320 C1336 1.368 1_455 S
H1321 C1329 0.950 . S
H1322 C1327 0.950 . S
H1323 C1328 0.945 1_455 S
H1324 C1330 0.950 . S
H1325 C1331 0.950 . S
H1326 C1332 0.949 . S
C1327 H1322 0.950 . S
C1327 C1329 1.327 . S
C1327 C1333 1.429 . S
C1328 C1320 1.574 1_655 S
C1328 H1323 0.945 1_655 S
C1328 C1334 1.368 . S
C1329 C1313 1.349 . S
C1329 H1321 0.950 . S
C1329 C1327 1.327 . S
C1330 C1318 1.349 . S
C1330 H1324 0.950 . S
C1330 C1331 1.327 . S
C1331 H1325 0.950 . S
C1331 C1330 1.327 . S
C1331 C1335 1.429 1_455 S
C1332 C1315 1.574 . S
C1332 H1326 0.949 . S
C1332 C1336 1.368 . S
C1333 C1314 1.429 . S
C1333 C1327 1.429 . S
C1333 C1334 1.523 . S
C1334 C1315 1.368 . S
C1334 C1328 1.368 . S
C1334 C1333 1.523 . S
C1335 C1319 1.429 . S
C1335 C1331 1.429 1_655 S
C1335 C1336 1.523 . S
C1336 C1320 1.368 1_655 S
C1336 C1332 1.368 . S
C1336 C1335 1.523 . S
H1337 C1312 0.950 . S
H1338 C1314 0.950 . S
H1339 C1315 0.949 . S
H1340 C1317 0.950 . S
H1341 C1319 0.950 . S
C1342 C1343 1.349 . S
C1342 C1344 1.327 . S
C1342 H1367 0.950 . S
C1343 C1342 1.349 . S
C1343 C1359 1.349 . S
C1344 C1342 1.327 . S
C1344 C1363 1.429 . S
C1344 H1368 0.950 . S
C1345 C1362 1.574 . S
C1345 C1364 1.368 . S
C1345 H1369 0.949 . S
H1346 C1350 0.949 . S
C1347 C1348 1.349 . S
C1347 C1349 1.327 . S
C1347 H1370 0.950 . S
C1348 C1347 1.349 . S
C1348 C1360 1.349 . S
C1349 C1347 1.327 . S
C1349 C1365 1.429 . S
C1349 H1371 0.950 . S
C1350 H1346 0.949 . S
C1350 C1358 1.574 . S
C1350 C1366 1.368 . S
H1351 C1359 0.950 . S
H1352 C1357 0.950 . S
H1353 C1358 0.949 . S
H1354 C1360 0.950 . S
H1355 C1361 0.950 . S
H1356 C1362 0.949 . S
C1357 H1352 0.950 . S
C1357 C1359 1.327 . S
C1357 C1363 1.429 . S
C1358 C1350 1.574 . S
C1358 H1353 0.949 . S
C1358 C1364 1.368 . S
C1359 C1343 1.349 . S
C1359 H1351 0.950 . S
C1359 C1357 1.327 . S
C1360 C1348 1.349 . S
C1360 H1354 0.950 . S
C1360 C1361 1.327 . S
C1361 H1355 0.950 . S
C1361 C1360 1.327 . S
C1361 C1365 1.429 . S
C1362 C1345 1.574 . S
C1362 H1356 0.949 . S
C1362 C1366 1.368 . S
C1363 C1344 1.429 . S
C1363 C1357 1.429 . S
C1363 C1364 1.523 . S
C1364 C1345 1.368 . S
C1364 C1358 1.368 . S
C1364 C1363 1.523 . S
C1365 C1349 1.429 . S
C1365 C1361 1.429 . S
C1365 C1366 1.523 . S
C1366 C1350 1.368 . S
C1366 C1362 1.368 . S
C1366 C1365 1.523 . S
H1367 C1342 0.950 . S
H1368 C1344 0.950 . S
H1369 C1345 0.949 . S
H1370 C1347 0.950 . S
H1371 C1349 0.950 . S
C1372 C1373 1.349 . S
C1372 C1374 1.327 . S
C1372 H1397 0.950 . S
C1373 C1372 1.349 . S
C1373 C1389 1.349 . S
C1374 C1372 1.327 . S
C1374 C1393 1.429 . S
C1374 H1398 0.950 . S
C1375 C1392 1.574 . S
C1375 C1394 1.368 . S
C1375 H1399 0.949 . S
H1376 C1380 0.949 . S
C1377 C1378 1.349 . S
C1377 C1379 1.327 . S
C1377 H1400 0.950 . S
C1378 C1377 1.349 . S
C1378 C1390 1.349 . S
C1379 C1377 1.327 . S
C1379 C1395 1.429 . S
C1379 H1401 0.950 . S
C1380 H1376 0.949 . S
C1380 C1388 1.574 . S
C1380 C1396 1.368 . S
H1381 C1389 0.950 . S
H1382 C1387 0.950 . S
H1383 C1388 0.949 . S
H1384 C1390 0.950 . S
H1385 C1391 0.950 . S
H1386 C1392 0.949 . S
C1387 H1382 0.950 . S
C1387 C1389 1.327 . S
C1387 C1393 1.429 . S
C1388 C1380 1.574 . S
C1388 H1383 0.949 . S
C1388 C1394 1.368 . S
C1389 C1373 1.349 . S
C1389 H1381 0.950 . S
C1389 C1387 1.327 . S
C1390 C1378 1.349 . S
C1390 H1384 0.950 . S
C1390 C1391 1.327 . S
C1391 H1385 0.950 . S
C1391 C1390 1.327 . S
C1391 C1395 1.429 . S
C1392 C1375 1.574 . S
C1392 H1386 0.949 . S
C1392 C1396 1.368 . S
C1393 C1374 1.429 . S
C1393 C1387 1.429 . S
C1393 C1394 1.523 . S
C1394 C1375 1.368 . S
C1394 C1388 1.368 . S
C1394 C1393 1.523 . S
C1395 C1379 1.429 . S
C1395 C1391 1.429 . S
C1395 C1396 1.523 . S
C1396 C1380 1.368 . S
C1396 C1392 1.368 . S
C1396 C1395 1.523 . S
H1397 C1372 0.950 . S
H1398 C1374 0.950 . S
H1399 C1375 0.949 . S
H1400 C1377 0.950 . S
H1401 C1379 0.950 . S
C1402 C1403 1.349 . S
C1402 C1404 1.327 . S
C1402 H1427 0.950 . S
C1403 C1402 1.349 . S
C1403 C1419 1.349 . S
C1404 C1402 1.327 . S
C1404 C1423 1.429 . S
C1404 H1428 0.950 . S
C1405 C1422 1.574 . S
C1405 C1424 1.368 . S
C1405 H1429 0.949 . S
H1406 C1410 0.949 . S
C1407 C1408 1.349 . S
C1407 C1409 1.327 . S
C1407 H1430 0.950 . S
C1408 C1407 1.349 . S
C1408 C1420 1.349 . S
C1409 C1407 1.327 . S
C1409 C1425 1.429 . S
C1409 H1431 0.950 . S
C1410 H1406 0.949 . S
C1410 C1418 1.574 . S
C1410 C1426 1.368 . S
H1411 C1419 0.950 . S
H1412 C1417 0.950 . S
H1413 C1418 0.949 . S
H1414 C1420 0.950 . S
H1415 C1421 0.950 . S
H1416 C1422 0.949 . S
C1417 H1412 0.950 . S
C1417 C1419 1.327 . S
C1417 C1423 1.429 . S
C1418 C1410 1.574 . S
C1418 H1413 0.949 . S
C1418 C1424 1.368 . S
C1419 C1403 1.349 . S
C1419 H1411 0.950 . S
C1419 C1417 1.327 . S
C1420 C1408 1.349 . S
C1420 H1414 0.950 . S
C1420 C1421 1.327 . S
C1421 H1415 0.950 . S
C1421 C1420 1.327 . S
C1421 C1425 1.429 . S
C1422 C1405 1.574 . S
C1422 H1416 0.949 . S
C1422 C1426 1.368 . S
C1423 C1404 1.429 . S
C1423 C1417 1.429 . S
C1423 C1424 1.523 . S
C1424 C1405 1.368 . S
C1424 C1418 1.368 . S
C1424 C1423 1.523 . S
C1425 C1409 1.429 . S
C1425 C1421 1.429 . S
C1425 C1426 1.523 . S
C1426 C1410 1.368 . S
C1426 C1422 1.368 . S
C1426 C1425 1.523 . S
H1427 C1402 0.950 . S
H1428 C1404 0.950 . S
H1429 C1405 0.949 . S
H1430 C1407 0.950 . S
H1431 C1409 0.950 . S
C1432 C1433 1.349 . S
C1432 C1434 1.327 . S
C1432 H1457 0.950 . S
C1433 C1432 1.349 . S
C1433 C1449 1.349 1_556 S
C1434 C1432 1.327 . S
C1434 C1453 1.429 1_556 S
C1434 H1458 0.950 . S
C1435 C1452 1.574 . S
C1435 C1454 1.368 . S
C1435 H1459 0.949 . S
H1436 C1440 0.949 1_556 S
C1437 C1438 1.349 . S
C1437 C1439 1.327 . S
C1437 H1460 0.950 1_565 S
C1438 C1437 1.349 . S
C1438 C1450 1.349 . S
C1439 C1437 1.327 . S
C1439 C1455 1.429 . S
C1439 H1461 0.950 . S
C1440 H1436 0.949 1_554 S
C1440 C1448 1.568 1_554 S
C1440 C1456 1.368 . S
H1441 C1449 0.950 . S
H1442 C1447 0.950 . S
H1443 C1448 0.966 . S
H1444 C1450 0.950 . S
H1445 C1451 0.950 . S
H1446 C1452 0.949 . S
C1447 H1442 0.950 . S
C1447 C1449 1.327 . S
C1447 C1453 1.429 . S
C1448 C1440 1.568 1_556 S
C1448 H1443 0.966 . S
C1448 C1454 1.356 1_556 S
C1449 C1433 1.349 1_554 S
C1449 H1441 0.950 . S
C1449 C1447 1.327 . S
C1450 C1438 1.349 . S
C1450 H1444 0.950 . S
C1450 C1451 1.327 . S
C1451 H1445 0.950 . S
C1451 C1450 1.327 . S
C1451 C1455 1.429 . S
C1452 C1435 1.574 . S
C1452 H1446 0.949 . S
C1452 C1456 1.368 . S
C1453 C1434 1.429 1_554 S
C1453 C1447 1.429 . S
C1453 C1454 1.523 . S
C1454 C1435 1.368 . S
C1454 C1448 1.356 1_554 S
C1454 C1453 1.523 . S
C1455 C1439 1.429 . S
C1455 C1451 1.429 . S
C1455 C1456 1.523 . S
C1456 C1440 1.368 . S
C1456 C1452 1.368 . S
C1456 C1455 1.523 . S
H1457 C1432 0.950 . S
H1458 C1434 0.950 . S
H1459 C1435 0.949 . S
H1460 C1437 0.950 1_545 S
H1461 C1439 0.950 . S
C1462 C1463 1.348 1_556 S
C1462 C1464 1.328 . S
C1462 H1487 0.950 . S
C1463 C1462 1.348 1_554 S
C1463 C1479 1.349 . S
C1464 C1462 1.328 . S
C1464 C1483 1.421 1_556 S
C1464 H1488 0.956 . S
C1465 C1482 1.574 . S
C1465 C1484 1.368 . S
C1465 H1489 0.949 . S
H1466 C1470 0.950 . S
C1467 C1468 1.349 . S
C1467 C1469 1.327 . S
C1467 H1490 0.950 . S
C1468 C1467 1.349 . S
C1468 C1480 1.349 . S
C1469 C1467 1.327 . S
C1469 C1485 1.429 . S
C1469 H1491 0.950 . S
C1470 H1466 0.950 . S
C1470 C1478 1.569 . S
C1470 C1486 1.367 1_556 S
H1471 C1479 0.950 . S
H1472 C1477 0.950 . S
H1473 C1478 0.971 . S
H1474 C1480 0.950 1_556 S
H1475 C1481 0.950 1_556 S
H1476 C1482 0.949 . S
C1477 H1472 0.950 . S
C1477 C1479 1.327 . S
C1477 C1483 1.429 . S
C1478 C1470 1.569 . S
C1478 H1473 0.971 . S
C1478 C1484 1.349 1_556 S
C1479 C1463 1.349 . S
C1479 H1471 0.950 . S
C1479 C1477 1.327 . S
C1480 C1468 1.349 . S
C1480 H1474 0.950 1_554 S
C1480 C1481 1.327 . S
C1481 H1475 0.950 1_554 S
C1481 C1480 1.327 . S
C1481 C1485 1.429 . S
C1482 C1465 1.574 . S
C1482 H1476 0.949 . S
C1482 C1486 1.368 . S
C1483 C1464 1.421 1_554 S
C1483 C1477 1.429 . S
C1483 C1484 1.523 . S
C1484 C1465 1.368 . S
C1484 C1478 1.349 1_554 S
C1484 C1483 1.523 . S
C1485 C1469 1.429 . S
C1485 C1481 1.429 . S
C1485 C1486 1.523 . S
C1486 C1470 1.367 1_554 S
C1486 C1482 1.368 . S
C1486 C1485 1.523 . S
H1487 C1462 0.950 . S
H1488 C1464 0.956 . S
H1489 C1465 0.949 . S
H1490 C1467 0.950 . S
H1491 C1469 0.950 . S
C1492 C1493 1.349 . S
C1492 C1494 1.327 . S
C1492 H1517 0.950 . S
C1493 C1492 1.349 . S
C1493 C1509 1.349 . S
C1494 C1492 1.327 . S
C1494 C1513 1.429 . S
C1494 H1518 0.950 . S
C1495 C1512 1.574 . S
C1495 C1514 1.368 . S
C1495 H1519 0.949 . S
H1496 C1500 0.949 . S
C1497 C1498 1.349 . S
C1497 C1499 1.327 . S
C1497 H1520 0.950 . S
C1498 C1497 1.349 . S
C1498 C1510 1.349 . S
C1499 C1497 1.327 . S
C1499 C1515 1.429 . S
C1499 H1521 0.950 . S
C1500 H1496 0.949 . S
C1500 C1508 1.574 . S
C1500 C1516 1.368 . S
H1501 C1509 0.950 . S
H1502 C1507 0.950 . S
H1503 C1508 0.949 . S
H1504 C1510 0.950 . S
H1505 C1511 0.950 . S
H1506 C1512 0.949 . S
C1507 H1502 0.950 . S
C1507 C1509 1.327 . S
C1507 C1513 1.429 . S
C1508 C1500 1.574 . S
C1508 H1503 0.949 . S
C1508 C1514 1.368 . S
C1509 C1493 1.349 . S
C1509 H1501 0.950 . S
C1509 C1507 1.327 . S
C1510 C1498 1.349 . S
C1510 H1504 0.950 . S
C1510 C1511 1.327 . S
C1511 H1505 0.950 . S
C1511 C1510 1.327 . S
C1511 C1515 1.429 . S
C1512 C1495 1.574 . S
C1512 H1506 0.949 . S
C1512 C1516 1.368 . S
C1513 C1494 1.429 . S
C1513 C1507 1.429 . S
C1513 C1514 1.523 . S
C1514 C1495 1.368 . S
C1514 C1508 1.368 . S
C1514 C1513 1.523 . S
C1515 C1499 1.429 . S
C1515 C1511 1.429 . S
C1515 C1516 1.523 . S
C1516 C1500 1.368 . S
C1516 C1512 1.368 . S
C1516 C1515 1.523 . S
H1517 C1492 0.950 . S
H1518 C1494 0.950 . S
H1519 C1495 0.949 . S
H1520 C1497 0.950 . S
H1521 C1499 0.950 . S
C1522 C1523 1.349 . S
C1522 C1524 1.327 . S
C1522 H1547 0.950 . S
C1523 C1522 1.349 . S
C1523 C1539 1.349 . S
C1524 C1522 1.327 . S
C1524 C1543 1.429 . S
C1524 H1548 0.950 . S
C1525 C1542 1.574 . S
C1525 C1544 1.368 . S
C1525 H1549 0.949 . S
H1526 C1530 0.949 . S
C1527 C1528 1.349 . S
C1527 C1529 1.327 . S
C1527 H1550 0.950 . S
C1528 C1527 1.349 . S
C1528 C1540 1.349 . S
C1529 C1527 1.327 . S
C1529 C1545 1.429 . S
C1529 H1551 0.950 . S
C1530 H1526 0.949 . S
C1530 C1538 1.574 . S
C1530 C1546 1.368 . S
H1531 C1539 0.950 . S
H1532 C1537 0.950 . S
H1533 C1538 0.949 . S
H1534 C1540 0.950 . S
H1535 C1541 0.950 . S
H1536 C1542 0.949 . S
C1537 H1532 0.950 . S
C1537 C1539 1.327 . S
C1537 C1543 1.429 . S
C1538 C1530 1.574 . S
C1538 H1533 0.949 . S
C1538 C1544 1.368 . S
C1539 C1523 1.349 . S
C1539 H1531 0.950 . S
C1539 C1537 1.327 . S
C1540 C1528 1.349 . S
C1540 H1534 0.950 . S
C1540 C1541 1.327 . S
C1541 H1535 0.950 . S
C1541 C1540 1.327 . S
C1541 C1545 1.429 . S
C1542 C1525 1.574 . S
C1542 H1536 0.949 . S
C1542 C1546 1.368 . S
C1543 C1524 1.429 . S
C1543 C1537 1.429 . S
C1543 C1544 1.523 . S
C1544 C1525 1.368 . S
C1544 C1538 1.368 . S
C1544 C1543 1.523 . S
C1545 C1529 1.429 . S
C1545 C1541 1.429 . S
C1545 C1546 1.523 . S
C1546 C1530 1.368 . S
C1546 C1542 1.368 . S
C1546 C1545 1.523 . S
H1547 C1522 0.950 . S
H1548 C1524 0.950 . S
H1549 C1525 0.949 . S
H1550 C1527 0.950 . S
H1551 C1529 0.950 . S
C1552 C1553 1.349 . S
C1552 C1554 1.327 . S
C1552 H1577 0.950 . S
C1553 C1552 1.349 . S
C1553 C1569 1.349 . S
C1554 C1552 1.327 . S
C1554 C1573 1.429 . S
C1554 H1578 0.950 . S
C1555 C1572 1.574 . S
C1555 C1574 1.368 . S
C1555 H1579 0.949 . S
H1556 C1560 0.949 . S
C1557 C1558 1.349 . S
C1557 C1559 1.327 . S
C1557 H1580 0.950 . S
C1558 C1557 1.349 . S
C1558 C1570 1.349 . S
C1559 C1557 1.327 . S
C1559 C1575 1.429 . S
C1559 H1581 0.950 . S
C1560 H1556 0.949 . S
C1560 C1568 1.574 . S
C1560 C1576 1.368 . S
H1561 C1569 0.950 . S
H1562 C1567 0.950 . S
H1563 C1568 0.949 . S
H1564 C1570 0.950 . S
H1565 C1571 0.950 . S
H1566 C1572 0.949 . S
C1567 H1562 0.950 . S
C1567 C1569 1.327 . S
C1567 C1573 1.429 . S
C1568 C1560 1.574 . S
C1568 H1563 0.949 . S
C1568 C1574 1.368 . S
C1569 C1553 1.349 . S
C1569 H1561 0.950 . S
C1569 C1567 1.327 . S
C1570 C1558 1.349 . S
C1570 H1564 0.950 . S
C1570 C1571 1.327 . S
C1571 H1565 0.950 . S
C1571 C1570 1.327 . S
C1571 C1575 1.429 . S
C1572 C1555 1.574 . S
C1572 H1566 0.949 . S
C1572 C1576 1.368 . S
C1573 C1554 1.429 . S
C1573 C1567 1.429 . S
C1573 C1574 1.523 . S
C1574 C1555 1.368 . S
C1574 C1568 1.368 . S
C1574 C1573 1.523 . S
C1575 C1559 1.429 . S
C1575 C1571 1.429 . S
C1575 C1576 1.523 . S
C1576 C1560 1.368 . S
C1576 C1572 1.368 . S
C1576 C1575 1.523 . S
H1577 C1552 0.950 . S
H1578 C1554 0.950 . S
H1579 C1555 0.949 . S
H1580 C1557 0.950 . S
H1581 C1559 0.950 . S
C1582 C1583 1.349 . S
C1582 C1584 1.327 . S
C1582 H1607 0.950 . S
C1583 C1582 1.349 . S
C1583 C1599 1.349 . S
C1584 C1582 1.327 . S
C1584 C1603 1.429 . S
C1584 H1608 0.950 . S
C1585 C1602 1.574 . S
C1585 C1604 1.368 . S
C1585 H1609 0.949 . S
H1586 C1590 0.949 . S
C1587 C1588 1.349 . S
C1587 C1589 1.327 . S
C1587 H1610 0.950 . S
C1588 C1587 1.349 . S
C1588 C1600 1.349 . S
C1589 C1587 1.327 . S
C1589 C1605 1.429 . S
C1589 H1611 0.950 . S
C1590 H1586 0.949 . S
C1590 C1598 1.574 . S
C1590 C1606 1.368 . S
H1591 C1599 0.950 . S
H1592 C1597 0.950 . S
H1593 C1598 0.949 . S
H1594 C1600 0.950 . S
H1595 C1601 0.950 . S
H1596 C1602 0.949 . S
C1597 H1592 0.950 . S
C1597 C1599 1.327 . S
C1597 C1603 1.429 . S
C1598 C1590 1.574 . S
C1598 H1593 0.949 . S
C1598 C1604 1.368 . S
C1599 C1583 1.349 . S
C1599 H1591 0.950 . S
C1599 C1597 1.327 . S
C1600 C1588 1.349 . S
C1600 H1594 0.950 . S
C1600 C1601 1.327 . S
C1601 H1595 0.950 . S
C1601 C1600 1.327 . S
C1601 C1605 1.429 . S
C1602 C1585 1.574 . S
C1602 H1596 0.949 . S
C1602 C1606 1.368 . S
C1603 C1584 1.429 . S
C1603 C1597 1.429 . S
C1603 C1604 1.523 . S
C1604 C1585 1.368 . S
C1604 C1598 1.368 . S
C1604 C1603 1.523 . S
C1605 C1589 1.429 . S
C1605 C1601 1.429 . S
C1605 C1606 1.523 . S
C1606 C1590 1.368 . S
C1606 C1602 1.368 . S
C1606 C1605 1.523 . S
H1607 C1582 0.950 . S
H1608 C1584 0.950 . S
H1609 C1585 0.949 . S
H1610 C1587 0.950 . S
H1611 C1589 0.950 . S
C1612 C1613 1.349 . S
C1612 C1614 1.327 . S
C1612 H1637 0.950 . S
C1613 C1612 1.349 . S
C1613 C1629 1.349 . S
C1614 C1612 1.327 . S
C1614 C1633 1.429 . S
C1614 H1638 0.950 . S
C1615 C1632 1.574 . S
C1615 C1634 1.368 . S
C1615 H1639 0.949 . S
H1616 C1620 0.949 . S
C1617 C1618 1.349 . S
C1617 C1619 1.327 . S
C1617 H1640 0.950 . S
C1618 C1617 1.349 . S
C1618 C1630 1.349 . S
C1619 C1617 1.327 . S
C1619 C1635 1.429 . S
C1619 H1641 0.950 . S
C1620 H1616 0.949 . S
C1620 C1628 1.574 . S
C1620 C1636 1.368 . S
H1621 C1629 0.950 . S
H1622 C1627 0.950 . S
H1623 C1628 0.949 . S
H1624 C1630 0.950 . S
H1625 C1631 0.950 . S
H1626 C1632 0.949 . S
C1627 H1622 0.950 . S
C1627 C1629 1.327 . S
C1627 C1633 1.429 . S
C1628 C1620 1.574 . S
C1628 H1623 0.949 . S
C1628 C1634 1.368 . S
C1629 C1613 1.349 . S
C1629 H1621 0.950 . S
C1629 C1627 1.327 . S
C1630 C1618 1.349 . S
C1630 H1624 0.950 . S
C1630 C1631 1.327 . S
C1631 H1625 0.950 . S
C1631 C1630 1.327 . S
C1631 C1635 1.429 . S
C1632 C1615 1.574 . S
C1632 H1626 0.949 . S
C1632 C1636 1.368 . S
C1633 C1614 1.429 . S
C1633 C1627 1.429 . S
C1633 C1634 1.523 . S
C1634 C1615 1.368 . S
C1634 C1628 1.368 . S
C1634 C1633 1.523 . S
C1635 C1619 1.429 . S
C1635 C1631 1.429 . S
C1635 C1636 1.523 . S
C1636 C1620 1.368 . S
C1636 C1632 1.368 . S
C1636 C1635 1.523 . S
H1637 C1612 0.950 . S
H1638 C1614 0.950 . S
H1639 C1615 0.949 . S
H1640 C1617 0.950 . S
H1641 C1619 0.950 . S
C1642 C1643 1.349 . S
C1642 C1644 1.327 . S
C1642 H1667 0.950 . S
C1643 C1642 1.349 . S
C1643 C1659 1.349 . S
C1644 C1642 1.327 . S
C1644 C1663 1.429 . S
C1644 H1668 0.950 . S
C1645 C1662 1.574 . S
C1645 C1664 1.368 . S
C1645 H1669 0.949 . S
H1646 C1650 0.949 . S
C1647 C1648 1.349 . S
C1647 C1649 1.327 . S
C1647 H1670 0.950 . S
C1648 C1647 1.349 . S
C1648 C1660 1.349 . S
C1649 C1647 1.327 . S
C1649 C1665 1.429 . S
C1649 H1671 0.950 . S
C1650 H1646 0.949 . S
C1650 C1658 1.574 . S
C1650 C1666 1.368 . S
H1651 C1659 0.950 . S
H1652 C1657 0.950 . S
H1653 C1658 0.949 . S
H1654 C1660 0.950 . S
H1655 C1661 0.950 . S
H1656 C1662 0.949 . S
C1657 H1652 0.950 . S
C1657 C1659 1.327 . S
C1657 C1663 1.429 . S
C1658 C1650 1.574 . S
C1658 H1653 0.949 . S
C1658 C1664 1.368 . S
C1659 C1643 1.349 . S
C1659 H1651 0.950 . S
C1659 C1657 1.327 . S
C1660 C1648 1.349 . S
C1660 H1654 0.950 . S
C1660 C1661 1.327 . S
C1661 H1655 0.950 . S
C1661 C1660 1.327 . S
C1661 C1665 1.429 . S
C1662 C1645 1.574 . S
C1662 H1656 0.949 . S
C1662 C1666 1.368 . S
C1663 C1644 1.429 . S
C1663 C1657 1.429 . S
C1663 C1664 1.523 . S
C1664 C1645 1.368 . S
C1664 C1658 1.368 . S
C1664 C1663 1.523 . S
C1665 C1649 1.429 . S
C1665 C1661 1.429 . S
C1665 C1666 1.523 . S
C1666 C1650 1.368 . S
C1666 C1662 1.368 . S
C1666 C1665 1.523 . S
H1667 C1642 0.950 . S
H1668 C1644 0.950 . S
H1669 C1645 0.949 . S
H1670 C1647 0.950 . S
H1671 C1649 0.950 . S
C1672 C1673 1.349 . S
C1672 C1674 1.327 . S
C1672 H1697 0.950 . S
C1673 C1672 1.349 . S
C1673 C1689 1.349 . S
C1674 C1672 1.327 . S
C1674 C1693 1.429 . S
C1674 H1698 0.950 . S
C1675 C1692 1.574 . S
C1675 C1694 1.368 . S
C1675 H1699 0.949 . S
H1676 C1680 0.949 . S
C1677 C1678 1.349 . S
C1677 C1679 1.327 . S
C1677 H1700 0.950 . S
C1678 C1677 1.349 . S
C1678 C1690 1.349 . S
C1679 C1677 1.327 . S
C1679 C1695 1.429 . S
C1679 H1701 0.950 . S
C1680 H1676 0.949 . S
C1680 C1688 1.574 . S
C1680 C1696 1.368 . S
H1681 C1689 0.950 . S
H1682 C1687 0.950 . S
H1683 C1688 0.949 . S
H1684 C1690 0.950 . S
H1685 C1691 0.950 . S
H1686 C1692 0.949 . S
C1687 H1682 0.950 . S
C1687 C1689 1.327 . S
C1687 C1693 1.429 . S
C1688 C1680 1.574 . S
C1688 H1683 0.949 . S
C1688 C1694 1.368 . S
C1689 C1673 1.349 . S
C1689 H1681 0.950 . S
C1689 C1687 1.327 . S
C1690 C1678 1.349 . S
C1690 H1684 0.950 . S
C1690 C1691 1.327 . S
C1691 H1685 0.950 . S
C1691 C1690 1.327 . S
C1691 C1695 1.429 . S
C1692 C1675 1.574 . S
C1692 H1686 0.949 . S
C1692 C1696 1.368 . S
C1693 C1674 1.429 . S
C1693 C1687 1.429 . S
C1693 C1694 1.523 . S
C1694 C1675 1.368 . S
C1694 C1688 1.368 . S
C1694 C1693 1.523 . S
C1695 C1679 1.429 . S
C1695 C1691 1.429 . S
C1695 C1696 1.523 . S
C1696 C1680 1.368 . S
C1696 C1692 1.368 . S
C1696 C1695 1.523 . S
H1697 C1672 0.950 . S
H1698 C1674 0.950 . S
H1699 C1675 0.949 . S
H1700 C1677 0.950 . S
H1701 C1679 0.950 . S
C1702 C1703 1.349 . S
C1702 C1704 1.327 . S
C1702 H1727 0.950 . S
C1703 C1702 1.349 . S
C1703 C1719 1.349 . S
C1704 C1702 1.327 . S
C1704 C1723 1.429 . S
C1704 H1728 0.950 . S
C1705 C1722 1.574 . S
C1705 C1724 1.368 . S
C1705 H1729 0.949 . S
H1706 C1710 0.949 . S
C1707 C1708 1.349 . S
C1707 C1709 1.327 . S
C1707 H1730 0.950 . S
C1708 C1707 1.349 . S
C1708 C1720 1.349 . S
C1709 C1707 1.327 . S
C1709 C1725 1.429 . S
C1709 H1731 0.950 . S
C1710 H1706 0.949 . S
C1710 C1718 1.574 . S
C1710 C1726 1.368 . S
H1711 C1719 0.950 . S
H1712 C1717 0.950 . S
H1713 C1718 0.949 . S
H1714 C1720 0.950 . S
H1715 C1721 0.950 . S
H1716 C1722 0.949 . S
C1717 H1712 0.950 . S
C1717 C1719 1.327 . S
C1717 C1723 1.429 . S
C1718 C1710 1.574 . S
C1718 H1713 0.949 . S
C1718 C1724 1.368 . S
C1719 C1703 1.349 . S
C1719 H1711 0.950 . S
C1719 C1717 1.327 . S
C1720 C1708 1.349 . S
C1720 H1714 0.950 . S
C1720 C1721 1.327 . S
C1721 H1715 0.950 . S
C1721 C1720 1.327 . S
C1721 C1725 1.429 . S
C1722 C1705 1.574 . S
C1722 H1716 0.949 . S
C1722 C1726 1.368 . S
C1723 C1704 1.429 . S
C1723 C1717 1.429 . S
C1723 C1724 1.523 . S
C1724 C1705 1.368 . S
C1724 C1718 1.368 . S
C1724 C1723 1.523 . S
C1725 C1709 1.429 . S
C1725 C1721 1.429 . S
C1725 C1726 1.523 . S
C1726 C1710 1.368 . S
C1726 C1722 1.368 . S
C1726 C1725 1.523 . S
H1727 C1702 0.950 . S
H1728 C1704 0.950 . S
H1729 C1705 0.949 . S
H1730 C1707 0.950 . S
H1731 C1709 0.950 . S
C1732 C1733 1.349 . S
C1732 C1734 1.327 . S
C1732 H1757 0.950 . S
C1733 C1732 1.349 . S
C1733 C1749 1.349 . S
C1734 C1732 1.327 . S
C1734 C1753 1.429 . S
C1734 H1758 0.950 . S
C1735 C1752 1.574 . S
C1735 C1754 1.368 . S
C1735 H1759 0.949 . S
H1736 C1740 0.949 . S
C1737 C1738 1.349 . S
C1737 C1739 1.327 . S
C1737 H1760 0.950 . S
C1738 C1737 1.349 . S
C1738 C1750 1.349 . S
C1739 C1737 1.327 . S
C1739 C1755 1.429 . S
C1739 H1761 0.950 . S
C1740 H1736 0.949 . S
C1740 C1748 1.574 . S
C1740 C1756 1.368 . S
H1741 C1749 0.950 . S
H1742 C1747 0.950 . S
H1743 C1748 0.949 . S
H1744 C1750 0.950 . S
H1745 C1751 0.950 . S
H1746 C1752 0.949 . S
C1747 H1742 0.950 . S
C1747 C1749 1.327 . S
C1747 C1753 1.429 . S
C1748 C1740 1.574 . S
C1748 H1743 0.949 . S
C1748 C1754 1.368 . S
C1749 C1733 1.349 . S
C1749 H1741 0.950 . S
C1749 C1747 1.327 . S
C1750 C1738 1.349 . S
C1750 H1744 0.950 . S
C1750 C1751 1.327 . S
C1751 H1745 0.950 . S
C1751 C1750 1.327 . S
C1751 C1755 1.429 . S
C1752 C1735 1.574 . S
C1752 H1746 0.949 . S
C1752 C1756 1.368 . S
C1753 C1734 1.429 . S
C1753 C1747 1.429 . S
C1753 C1754 1.523 . S
C1754 C1735 1.368 . S
C1754 C1748 1.368 . S
C1754 C1753 1.523 . S
C1755 C1739 1.429 . S
C1755 C1751 1.429 . S
C1755 C1756 1.523 . S
C1756 C1740 1.368 . S
C1756 C1752 1.368 . S
C1756 C1755 1.523 . S
H1757 C1732 0.950 . S
H1758 C1734 0.950 . S
H1759 C1735 0.949 . S
H1760 C1737 0.950 . S
H1761 C1739 0.950 . S
C1762 C1763 1.349 . S
C1762 C1764 1.327 . S
C1762 H1787 0.950 . S
C1763 C1762 1.349 . S
C1763 C1779 1.349 . S
C1764 C1762 1.327 . S
C1764 C1783 1.429 . S
C1764 H1788 0.950 . S
C1765 C1782 1.574 . S
C1765 C1784 1.368 . S
C1765 H1789 0.949 . S
H1766 C1770 0.949 . S
C1767 C1768 1.349 . S
C1767 C1769 1.327 . S
C1767 H1790 0.950 . S
C1768 C1767 1.349 . S
C1768 C1780 1.349 . S
C1769 C1767 1.327 . S
C1769 C1785 1.429 . S
C1769 H1791 0.950 . S
C1770 H1766 0.949 . S
C1770 C1778 1.574 . S
C1770 C1786 1.368 . S
H1771 C1779 0.950 . S
H1772 C1777 0.950 . S
H1773 C1778 0.949 . S
H1774 C1780 0.950 . S
H1775 C1781 0.950 . S
H1776 C1782 0.949 . S
C1777 H1772 0.950 . S
C1777 C1779 1.327 . S
C1777 C1783 1.429 . S
C1778 C1770 1.574 . S
C1778 H1773 0.949 . S
C1778 C1784 1.368 . S
C1779 C1763 1.349 . S
C1779 H1771 0.950 . S
C1779 C1777 1.327 . S
C1780 C1768 1.349 . S
C1780 H1774 0.950 . S
C1780 C1781 1.327 . S
C1781 H1775 0.950 . S
C1781 C1780 1.327 . S
C1781 C1785 1.429 . S
C1782 C1765 1.574 . S
C1782 H1776 0.949 . S
C1782 C1786 1.368 . S
C1783 C1764 1.429 . S
C1783 C1777 1.429 . S
C1783 C1784 1.523 . S
C1784 C1765 1.368 . S
C1784 C1778 1.368 . S
C1784 C1783 1.523 . S
C1785 C1769 1.429 . S
C1785 C1781 1.429 . S
C1785 C1786 1.523 . S
C1786 C1770 1.368 . S
C1786 C1782 1.368 . S
C1786 C1785 1.523 . S
H1787 C1762 0.950 . S
H1788 C1764 0.950 . S
H1789 C1765 0.949 . S
H1790 C1767 0.950 . S
H1791 C1769 0.950 . S
C1792 C1793 1.349 . S
C1792 C1794 1.327 . S
C1792 H1817 0.950 . S
C1793 C1792 1.349 . S
C1793 C1809 1.349 . S
C1794 C1792 1.327 . S
C1794 C1813 1.429 . S
C1794 H1818 0.950 . S
C1795 C1812 1.574 . S
C1795 C1814 1.368 . S
C1795 H1819 0.949 . S
H1796 C1800 0.949 1_655 S
C1797 C1798 1.349 . S
C1797 C1799 1.327 . S
C1797 H1820 0.950 . S
C1798 C1797 1.349 . S
C1798 C1810 1.349 1_455 S
C1799 C1797 1.327 . S
C1799 C1815 1.429 . S
C1799 H1821 0.950 . S
C1800 H1796 0.949 1_455 S
C1800 C1808 1.574 . S
C1800 C1816 1.368 . S
H1801 C1809 0.950 . S
H1802 C1807 0.950 . S
H1803 C1808 0.957 . S
H1804 C1810 0.950 . S
H1805 C1811 0.950 . S
H1806 C1812 0.949 . S
C1807 H1802 0.950 . S
C1807 C1809 1.327 . S
C1807 C1813 1.429 . S
C1808 C1800 1.574 . S
C1808 H1803 0.957 . S
C1808 C1814 1.368 . S
C1809 C1793 1.349 . S
C1809 H1801 0.950 . S
C1809 C1807 1.327 . S
C1810 C1798 1.349 1_655 S
C1810 H1804 0.950 . S
C1810 C1811 1.327 . S
C1811 H1805 0.950 . S
C1811 C1810 1.327 . S
C1811 C1815 1.429 1_655 S
C1812 C1795 1.574 . S
C1812 H1806 0.949 . S
C1812 C1816 1.368 . S
C1813 C1794 1.429 . S
C1813 C1807 1.429 . S
C1813 C1814 1.523 . S
C1814 C1795 1.368 . S
C1814 C1808 1.368 . S
C1814 C1813 1.523 . S
C1815 C1799 1.429 . S
C1815 C1811 1.429 1_455 S
C1815 C1816 1.523 . S
C1816 C1800 1.368 . S
C1816 C1812 1.368 . S
C1816 C1815 1.523 . S
H1817 C1792 0.950 . S
H1818 C1794 0.950 . S
H1819 C1795 0.949 . S
H1820 C1797 0.950 . S
H1821 C1799 0.950 . S
C1822 C1823 1.349 . S
C1822 C1824 1.327 . S
C1822 H1847 0.950 . S
C1823 C1822 1.349 . S
C1823 C1839 1.349 . S
C1824 C1822 1.327 . S
C1824 C1843 1.429 . S
C1824 H1848 0.950 . S
C1825 C1842 1.574 . S
C1825 C1844 1.368 . S
C1825 H1849 0.949 . S
H1826 C1830 0.949 . S
C1827 C1828 1.349 . S
C1827 C1829 1.327 . S
C1827 H1850 0.950 . S
C1828 C1827 1.349 . S
C1828 C1840 1.349 . S
C1829 C1827 1.327 . S
C1829 C1845 1.429 . S
C1829 H1851 0.950 . S
C1830 H1826 0.949 . S
C1830 C1838 1.574 . S
C1830 C1846 1.368 . S
H1831 C1839 0.950 . S
H1832 C1837 0.950 . S
H1833 C1838 0.949 . S
H1834 C1840 0.950 . S
H1835 C1841 0.950 . S
H1836 C1842 0.949 . S
C1837 H1832 0.950 . S
C1837 C1839 1.327 . S
C1837 C1843 1.429 . S
C1838 C1830 1.574 . S
C1838 H1833 0.949 . S
C1838 C1844 1.368 . S
C1839 C1823 1.349 . S
C1839 H1831 0.950 . S
C1839 C1837 1.327 . S
C1840 C1828 1.349 . S
C1840 H1834 0.950 . S
C1840 C1841 1.327 . S
C1841 H1835 0.950 . S
C1841 C1840 1.327 . S
C1841 C1845 1.429 . S
C1842 C1825 1.574 . S
C1842 H1836 0.949 . S
C1842 C1846 1.368 . S
C1843 C1824 1.429 . S
C1843 C1837 1.429 . S
C1843 C1844 1.523 . S
C1844 C1825 1.368 . S
C1844 C1838 1.368 . S
C1844 C1843 1.523 . S
C1845 C1829 1.429 . S
C1845 C1841 1.429 . S
C1845 C1846 1.523 . S
C1846 C1830 1.368 . S
C1846 C1842 1.368 . S
C1846 C1845 1.523 . S
H1847 C1822 0.950 . S
H1848 C1824 0.950 . S
H1849 C1825 0.949 . S
H1850 C1827 0.950 . S
H1851 C1829 0.950 . S
C1852 C1853 1.349 . S
C1852 C1854 1.327 . S
C1852 H1877 0.950 . S
C1853 C1852 1.349 . S
C1853 C1869 1.349 . S
C1854 C1852 1.327 . S
C1854 C1873 1.429 . S
C1854 H1878 0.950 . S
C1855 C1872 1.574 . S
C1855 C1874 1.368 . S
C1855 H1879 0.949 . S
H1856 C1860 0.949 . S
C1857 C1858 1.349 . S
C1857 C1859 1.327 . S
C1857 H1880 0.950 . S
C1858 C1857 1.349 . S
C1858 C1870 1.349 1_556 S
C1859 C1857 1.327 . S
C1859 C1875 1.429 . S
C1859 H1881 0.950 . S
C1860 H1856 0.949 . S
C1860 C1868 1.574 . S
C1860 C1876 1.368 . S
H1861 C1869 0.950 . S
H1862 C1867 0.950 . S
H1863 C1868 0.949 . S
H1864 C1870 0.950 . S
H1865 C1871 0.950 . S
H1866 C1872 0.949 . S
C1867 H1862 0.950 . S
C1867 C1869 1.327 . S
C1867 C1873 1.429 . S
C1868 C1860 1.574 . S
C1868 H1863 0.949 . S
C1868 C1874 1.368 . S
C1869 C1853 1.349 . S
C1869 H1861 0.950 . S
C1869 C1867 1.327 . S
C1870 C1858 1.349 1_554 S
C1870 H1864 0.950 . S
C1870 C1871 1.327 1_554 S
C1871 H1865 0.950 . S
C1871 C1870 1.327 1_556 S
C1871 C1875 1.429 . S
C1872 C1855 1.574 . S
C1872 H1866 0.949 . S
C1872 C1876 1.368 . S
C1873 C1854 1.429 . S
C1873 C1867 1.429 . S
C1873 C1874 1.523 . S
C1874 C1855 1.368 . S
C1874 C1868 1.368 . S
C1874 C1873 1.523 . S
C1875 C1859 1.429 . S
C1875 C1871 1.429 . S
C1875 C1876 1.523 . S
C1876 C1860 1.368 . S
C1876 C1872 1.368 . S
C1876 C1875 1.523 . S
H1877 C1852 0.950 . S
H1878 C1854 0.950 . S
H1879 C1855 0.949 . S
H1880 C1857 0.950 . S
H1881 C1859 0.950 . S
C1882 C1883 1.349 . S
C1882 C1884 1.327 . S
C1882 H1907 0.950 . S
C1883 C1882 1.349 . S
C1883 C1899 1.349 . S
C1884 C1882 1.327 . S
C1884 C1903 1.429 . S
C1884 H1908 0.950 . S
C1885 C1902 1.574 . S
C1885 C1904 1.368 . S
C1885 H1909 0.949 . S
H1886 C1890 0.949 . S
C1887 C1888 1.349 . S
C1887 C1889 1.327 . S
C1887 H1910 0.950 . S
C1888 C1887 1.349 . S
C1888 C1900 1.349 . S
C1889 C1887 1.327 . S
C1889 C1905 1.429 . S
C1889 H1911 0.950 . S
C1890 H1886 0.949 . S
C1890 C1898 1.574 . S
C1890 C1906 1.368 . S
H1891 C1899 0.950 . S
H1892 C1897 0.950 . S
H1893 C1898 0.949 . S
H1894 C1900 0.950 . S
H1895 C1901 0.950 . S
H1896 C1902 0.949 . S
C1897 H1892 0.950 . S
C1897 C1899 1.327 . S
C1897 C1903 1.429 . S
C1898 C1890 1.574 . S
C1898 H1893 0.949 . S
C1898 C1904 1.368 . S
C1899 C1883 1.349 . S
C1899 H1891 0.950 . S
C1899 C1897 1.327 . S
C1900 C1888 1.349 . S
C1900 H1894 0.950 . S
C1900 C1901 1.327 . S
C1901 H1895 0.950 . S
C1901 C1900 1.327 . S
C1901 C1905 1.429 . S
C1902 C1885 1.574 . S
C1902 H1896 0.949 . S
C1902 C1906 1.368 . S
C1903 C1884 1.429 . S
C1903 C1897 1.429 . S
C1903 C1904 1.523 . S
C1904 C1885 1.368 . S
C1904 C1898 1.368 . S
C1904 C1903 1.523 . S
C1905 C1889 1.429 . S
C1905 C1901 1.429 . S
C1905 C1906 1.523 . S
C1906 C1890 1.368 . S
C1906 C1902 1.368 . S
C1906 C1905 1.523 . S
H1907 C1882 0.950 . S
H1908 C1884 0.950 . S
H1909 C1885 0.949 . S
H1910 C1887 0.950 . S
H1911 C1889 0.950 . S
C1912 C1913 1.349 . S
C1912 C1914 1.327 . S
C1912 H1937 0.950 . S
C1913 C1912 1.349 . S
C1913 C1929 1.349 . S
C1914 C1912 1.327 . S
C1914 C1933 1.429 . S
C1914 H1938 0.950 . S
C1915 C1932 1.574 . S
C1915 C1934 1.368 . S
C1915 H1939 0.949 . S
H1916 C1920 0.949 . S
C1917 C1918 1.349 . S
C1917 C1919 1.327 . S
C1917 H1940 0.950 . S
C1918 C1917 1.349 . S
C1918 C1930 1.349 . S
C1919 C1917 1.327 . S
C1919 C1935 1.429 . S
C1919 H1941 0.950 . S
C1920 H1916 0.949 . S
C1920 C1928 1.574 . S
C1920 C1936 1.368 . S
H1921 C1929 0.950 . S
H1922 C1927 0.950 . S
H1923 C1928 0.949 . S
H1924 C1930 0.950 . S
H1925 C1931 0.950 . S
H1926 C1932 0.949 . S
C1927 H1922 0.950 . S
C1927 C1929 1.327 . S
C1927 C1933 1.429 . S
C1928 C1920 1.574 . S
C1928 H1923 0.949 . S
C1928 C1934 1.368 . S
C1929 C1913 1.349 . S
C1929 H1921 0.950 . S
C1929 C1927 1.327 . S
C1930 C1918 1.349 . S
C1930 H1924 0.950 . S
C1930 C1931 1.327 . S
C1931 H1925 0.950 . S
C1931 C1930 1.327 . S
C1931 C1935 1.429 . S
C1932 C1915 1.574 . S
C1932 H1926 0.949 . S
C1932 C1936 1.368 . S
C1933 C1914 1.429 . S
C1933 C1927 1.429 . S
C1933 C1934 1.523 . S
C1934 C1915 1.368 . S
C1934 C1928 1.368 . S
C1934 C1933 1.523 . S
C1935 C1919 1.429 . S
C1935 C1931 1.429 . S
C1935 C1936 1.523 . S
C1936 C1920 1.368 . S
C1936 C1932 1.368 . S
C1936 C1935 1.523 . S
H1937 C1912 0.950 . S
H1938 C1914 0.950 . S
H1939 C1915 0.949 . S
H1940 C1917 0.950 . S
H1941 C1919 0.950 . S
C1942 C1943 1.349 . S
C1942 C1944 1.327 . S
C1942 H1967 0.950 . S
C1943 C1942 1.349 . S
C1943 C1959 1.349 . S
C1944 C1942 1.327 . S
C1944 C1963 1.429 . S
C1944 H1968 0.950 . S
C1945 C1962 1.574 . S
C1945 C1964 1.368 . S
C1945 H1969 0.949 . S
H1946 C1950 0.949 . S
C1947 C1948 1.349 . S
C1947 C1949 1.327 . S
C1947 H1970 0.950 . S
C1948 C1947 1.349 . S
C1948 C1960 1.349 . S
C1949 C1947 1.327 . S
C1949 C1965 1.429 . S
C1949 H1971 0.950 . S
C1950 H1946 0.949 . S
C1950 C1958 1.574 . S
C1950 C1966 1.368 . S
H1951 C1959 0.950 . S
H1952 C1957 0.950 . S
H1953 C1958 0.949 . S
H1954 C1960 0.950 . S
H1955 C1961 0.950 . S
H1956 C1962 0.949 . S
C1957 H1952 0.950 . S
C1957 C1959 1.327 . S
C1957 C1963 1.429 . S
C1958 C1950 1.574 . S
C1958 H1953 0.949 . S
C1958 C1964 1.368 . S
C1959 C1943 1.349 . S
C1959 H1951 0.950 . S
C1959 C1957 1.327 . S
C1960 C1948 1.349 . S
C1960 H1954 0.950 . S
C1960 C1961 1.327 . S
C1961 H1955 0.950 . S
C1961 C1960 1.327 . S
C1961 C1965 1.429 . S
C1962 C1945 1.574 . S
C1962 H1956 0.949 . S
C1962 C1966 1.368 . S
C1963 C1944 1.429 . S
C1963 C1957 1.429 . S
C1963 C1964 1.523 . S
C1964 C1945 1.368 . S
C1964 C1958 1.368 . S
C1964 C1963 1.523 . S
C1965 C1949 1.429 . S
C1965 C1961 1.429 . S
C1965 C1966 1.523 . S
C1966 C1950 1.368 . S
C1966 C1962 1.368 . S
C1966 C1965 1.523 . S
H1967 C1942 0.950 . S
H1968 C1944 0.950 . S
H1969 C1945 0.949 . S
H1970 C1947 0.950 . S
H1971 C1949 0.950 . S
C1972 C1973 1.349 1_565 S
C1972 C1974 1.333 1_565 S
C1972 H1997 0.950 . S
C1973 C1972 1.349 1_545 S
C1973 C1989 1.349 . S
C1974 C1972 1.333 1_545 S
C1974 C1993 1.455 . S
C1974 H1998 0.918 1_545 S
C1975 C1992 1.574 . S
C1975 C1994 1.368 . S
C1975 H1999 0.949 . S
H1976 C1980 0.949 . S
C1977 C1978 1.349 . S
C1977 C1979 1.327 . S
C1977 H2000 0.950 . S
C1978 C1977 1.349 . S
C1978 C1990 1.349 . S
C1979 C1977 1.327 . S
C1979 C1995 1.429 . S
C1979 H2001 0.950 . S
C1980 H1976 0.949 . S
C1980 C1988 1.574 . S
C1980 C1996 1.368 . S
H1981 C1989 0.950 . S
H1982 C1987 0.950 . S
H1983 C1988 0.949 1_565 S
H1984 C1990 0.950 . S
H1985 C1991 0.950 . S
H1986 C1992 0.949 . S
C1987 H1982 0.950 . S
C1987 C1989 1.327 . S
C1987 C1993 1.429 . S
C1988 C1980 1.574 . S
C1988 H1983 0.949 1_545 S
C1988 C1994 1.368 . S
C1989 C1973 1.349 . S
C1989 H1981 0.950 . S
C1989 C1987 1.327 . S
C1990 C1978 1.349 . S
C1990 H1984 0.950 . S
C1990 C1991 1.327 . S
C1991 H1985 0.950 . S
C1991 C1990 1.327 . S
C1991 C1995 1.429 . S
C1992 C1975 1.574 . S
C1992 H1986 0.949 . S
C1992 C1996 1.368 . S
C1993 C1974 1.455 . S
C1993 C1987 1.429 . S
C1993 C1994 1.523 . S
C1994 C1975 1.368 . S
C1994 C1988 1.368 . S
C1994 C1993 1.523 . S
C1995 C1979 1.429 . S
C1995 C1991 1.429 . S
C1995 C1996 1.523 . S
C1996 C1980 1.368 . S
C1996 C1992 1.368 . S
C1996 C1995 1.523 . S
H1997 C1972 0.950 . S
H1998 C1974 0.918 1_565 S
H1999 C1975 0.949 . S
H2000 C1977 0.950 . S
H2001 C1979 0.950 . S
C2002 C2003 1.349 . S
C2002 C2004 1.327 . S
C2002 H2027 0.950 . S
C2003 C2002 1.349 . S
C2003 C2019 1.349 . S
C2004 C2002 1.327 . S
C2004 C2023 1.429 . S
C2004 H2028 0.950 . S
C2005 C2022 1.574 . S
C2005 C2024 1.368 . S
C2005 H2029 0.949 . S
H2006 C2010 0.949 . S
C2007 C2008 1.349 . S
C2007 C2009 1.327 . S
C2007 H2030 0.950 . S
C2008 C2007 1.349 . S
C2008 C2020 1.349 . S
C2009 C2007 1.327 . S
C2009 C2025 1.429 . S
C2009 H2031 0.950 . S
C2010 H2006 0.949 . S
C2010 C2018 1.574 . S
C2010 C2026 1.368 . S
H2011 C2019 0.950 . S
H2012 C2017 0.950 . S
H2013 C2018 0.949 . S
H2014 C2020 0.950 . S
H2015 C2021 0.950 . S
H2016 C2022 0.949 . S
C2017 H2012 0.950 . S
C2017 C2019 1.327 . S
C2017 C2023 1.429 . S
C2018 C2010 1.574 . S
C2018 H2013 0.949 . S
C2018 C2024 1.368 . S
C2019 C2003 1.349 . S
C2019 H2011 0.950 . S
C2019 C2017 1.327 . S
C2020 C2008 1.349 . S
C2020 H2014 0.950 . S
C2020 C2021 1.327 . S
C2021 H2015 0.950 . S
C2021 C2020 1.327 . S
C2021 C2025 1.429 . S
C2022 C2005 1.574 . S
C2022 H2016 0.949 . S
C2022 C2026 1.368 . S
C2023 C2004 1.429 . S
C2023 C2017 1.429 . S
C2023 C2024 1.523 . S
C2024 C2005 1.368 . S
C2024 C2018 1.368 . S
C2024 C2023 1.523 . S
C2025 C2009 1.429 . S
C2025 C2021 1.429 . S
C2025 C2026 1.523 . S
C2026 C2010 1.368 . S
C2026 C2022 1.368 . S
C2026 C2025 1.523 . S
H2027 C2002 0.950 . S
H2028 C2004 0.950 . S
H2029 C2005 0.949 . S
H2030 C2007 0.950 . S
H2031 C2009 0.950 . S
C2032 C2033 1.349 . S
C2032 C2034 1.327 . S
C2032 H2057 0.950 . S
C2033 C2032 1.349 . S
C2033 C2049 1.349 . S
C2034 C2032 1.327 . S
C2034 C2053 1.429 . S
C2034 H2058 0.950 . S
C2035 C2052 1.574 . S
C2035 C2054 1.368 . S
C2035 H2059 0.949 . S
H2036 C2040 0.949 . S
C2037 C2038 1.349 . S
C2037 C2039 1.327 . S
C2037 H2060 0.950 . S
C2038 C2037 1.349 . S
C2038 C2050 1.349 . S
C2039 C2037 1.327 . S
C2039 C2055 1.429 . S
C2039 H2061 0.950 . S
C2040 H2036 0.949 . S
C2040 C2048 1.574 . S
C2040 C2056 1.368 . S
H2041 C2049 0.950 . S
H2042 C2047 0.950 . S
H2043 C2048 0.949 . S
H2044 C2050 0.950 . S
H2045 C2051 0.950 . S
H2046 C2052 0.949 . S
C2047 H2042 0.950 . S
C2047 C2049 1.327 . S
C2047 C2053 1.429 . S
C2048 C2040 1.574 . S
C2048 H2043 0.949 . S
C2048 C2054 1.368 . S
C2049 C2033 1.349 . S
C2049 H2041 0.950 . S
C2049 C2047 1.327 . S
C2050 C2038 1.349 . S
C2050 H2044 0.950 . S
C2050 C2051 1.327 . S
C2051 H2045 0.950 . S
C2051 C2050 1.327 . S
C2051 C2055 1.429 . S
C2052 C2035 1.574 . S
C2052 H2046 0.949 . S
C2052 C2056 1.368 . S
C2053 C2034 1.429 . S
C2053 C2047 1.429 . S
C2053 C2054 1.523 . S
C2054 C2035 1.368 . S
C2054 C2048 1.368 . S
C2054 C2053 1.523 . S
C2055 C2039 1.429 . S
C2055 C2051 1.429 . S
C2055 C2056 1.523 . S
C2056 C2040 1.368 . S
C2056 C2052 1.368 . S
C2056 C2055 1.523 . S
H2057 C2032 0.950 . S
H2058 C2034 0.950 . S
H2059 C2035 0.949 . S
H2060 C2037 0.950 . S
H2061 C2039 0.950 . S
C2062 C2063 1.349 . S
C2062 C2064 1.327 . S
C2062 H2087 0.950 . S
C2063 C2062 1.349 . S
C2063 C2079 1.349 . S
C2064 C2062 1.327 . S
C2064 C2083 1.429 . S
C2064 H2088 0.950 . S
C2065 C2082 1.574 . S
C2065 C2084 1.368 . S
C2065 H2089 0.949 . S
H2066 C2070 0.949 . S
C2067 C2068 1.349 . S
C2067 C2069 1.327 . S
C2067 H2090 0.950 . S
C2068 C2067 1.349 . S
C2068 C2080 1.349 . S
C2069 C2067 1.327 . S
C2069 C2085 1.429 . S
C2069 H2091 0.950 . S
C2070 H2066 0.949 . S
C2070 C2078 1.574 . S
C2070 C2086 1.368 . S
H2071 C2079 0.950 . S
H2072 C2077 0.950 . S
H2073 C2078 0.949 . S
H2074 C2080 0.950 . S
H2075 C2081 0.950 . S
H2076 C2082 0.949 . S
C2077 H2072 0.950 . S
C2077 C2079 1.327 . S
C2077 C2083 1.429 . S
C2078 C2070 1.574 . S
C2078 H2073 0.949 . S
C2078 C2084 1.368 . S
C2079 C2063 1.349 . S
C2079 H2071 0.950 . S
C2079 C2077 1.327 . S
C2080 C2068 1.349 . S
C2080 H2074 0.950 . S
C2080 C2081 1.327 . S
C2081 H2075 0.950 . S
C2081 C2080 1.327 . S
C2081 C2085 1.429 . S
C2082 C2065 1.574 . S
C2082 H2076 0.949 . S
C2082 C2086 1.368 . S
C2083 C2064 1.429 . S
C2083 C2077 1.429 . S
C2083 C2084 1.523 . S
C2084 C2065 1.368 . S
C2084 C2078 1.368 . S
C2084 C2083 1.523 . S
C2085 C2069 1.429 . S
C2085 C2081 1.429 . S
C2085 C2086 1.523 . S
C2086 C2070 1.368 . S
C2086 C2082 1.368 . S
C2086 C2085 1.523 . S
H2087 C2062 0.950 . S
H2088 C2064 0.950 . S
H2089 C2065 0.949 . S
H2090 C2067 0.950 . S
H2091 C2069 0.950 . S
C2092 C2093 1.349 . S
C2092 C2094 1.327 . S
C2092 H2117 0.950 . S
C2093 C2092 1.349 . S
C2093 C2109 1.349 1_545 S
C2094 C2092 1.327 . S
C2094 C2113 1.429 1_545 S
C2094 H2118 0.950 . S
C2095 C2112 1.574 . S
C2095 C2114 1.368 . S
C2095 H2119 0.949 . S
H2096 C2100 0.949 . S
C2097 C2098 1.349 . S
C2097 C2099 1.327 . S
C2097 H2120 0.950 . S
C2098 C2097 1.349 . S
C2098 C2110 1.349 1_565 S
C2099 C2097 1.327 . S
C2099 C2115 1.429 . S
C2099 H2121 0.950 . S
C2100 H2096 0.949 . S
C2100 C2108 1.574 . S
C2100 C2116 1.368 1_545 S
H2101 C2109 0.950 . S
H2102 C2107 0.950 . S
H2103 C2108 0.949 . S
H2104 C2110 0.950 . S
H2105 C2111 0.950 . S
H2106 C2112 0.949 . S
C2107 H2102 0.950 . S
C2107 C2109 1.327 . S
C2107 C2113 1.429 . S
C2108 C2100 1.574 . S
C2108 H2103 0.949 . S
C2108 C2114 1.368 1_545 S
C2109 C2093 1.349 1_565 S
C2109 H2101 0.950 . S
C2109 C2107 1.327 . S
C2110 C2098 1.349 1_545 S
C2110 H2104 0.950 . S
C2110 C2111 1.327 . S
C2111 H2105 0.950 . S
C2111 C2110 1.327 . S
C2111 C2115 1.429 1_545 S
C2112 C2095 1.574 . S
C2112 H2106 0.949 . S
C2112 C2116 1.368 . S
C2113 C2094 1.429 1_565 S
C2113 C2107 1.429 . S
C2113 C2114 1.523 . S
C2114 C2095 1.368 . S
C2114 C2108 1.368 1_565 S
C2114 C2113 1.523 . S
C2115 C2099 1.429 . S
C2115 C2111 1.429 1_565 S
C2115 C2116 1.523 . S
C2116 C2100 1.368 1_565 S
C2116 C2112 1.368 . S
C2116 C2115 1.523 . S
H2117 C2092 0.950 . S
H2118 C2094 0.950 . S
H2119 C2095 0.949 . S
H2120 C2097 0.950 . S
H2121 C2099 0.950 . S
C2122 C2123 1.349 . S
C2122 C2124 1.327 . S
C2122 H2147 0.950 . S
C2123 C2122 1.349 . S
C2123 C2139 1.349 . S
C2124 C2122 1.327 . S
C2124 C2143 1.429 . S
C2124 H2148 0.950 . S
C2125 C2142 1.574 . S
C2125 C2144 1.368 . S
C2125 H2149 0.949 . S
H2126 C2130 0.949 . S
C2127 C2128 1.349 . S
C2127 C2129 1.327 . S
C2127 H2150 0.950 . S
C2128 C2127 1.349 . S
C2128 C2140 1.349 . S
C2129 C2127 1.327 . S
C2129 C2145 1.429 . S
C2129 H2151 0.950 . S
C2130 H2126 0.949 . S
C2130 C2138 1.574 . S
C2130 C2146 1.368 . S
H2131 C2139 0.950 . S
H2132 C2137 0.950 . S
H2133 C2138 0.949 . S
H2134 C2140 0.950 . S
H2135 C2141 0.950 . S
H2136 C2142 0.949 . S
C2137 H2132 0.950 . S
C2137 C2139 1.327 . S
C2137 C2143 1.429 . S
C2138 C2130 1.574 . S
C2138 H2133 0.949 . S
C2138 C2144 1.368 . S
C2139 C2123 1.349 . S
C2139 H2131 0.950 . S
C2139 C2137 1.327 . S
C2140 C2128 1.349 . S
C2140 H2134 0.950 . S
C2140 C2141 1.327 . S
C2141 H2135 0.950 . S
C2141 C2140 1.327 . S
C2141 C2145 1.429 . S
C2142 C2125 1.574 . S
C2142 H2136 0.949 . S
C2142 C2146 1.368 . S
C2143 C2124 1.429 . S
C2143 C2137 1.429 . S
C2143 C2144 1.523 . S
C2144 C2125 1.368 . S
C2144 C2138 1.368 . S
C2144 C2143 1.523 . S
C2145 C2129 1.429 . S
C2145 C2141 1.429 . S
C2145 C2146 1.523 . S
C2146 C2130 1.368 . S
C2146 C2142 1.368 . S
C2146 C2145 1.523 . S
H2147 C2122 0.950 . S
H2148 C2124 0.950 . S
H2149 C2125 0.949 . S
H2150 C2127 0.950 . S
H2151 C2129 0.950 . S
C2152 C2153 1.349 . S
C2152 C2154 1.327 . S
C2152 H2177 0.950 . S
C2153 C2152 1.349 . S
C2153 C2169 1.349 . S
C2154 C2152 1.327 . S
C2154 C2173 1.429 . S
C2154 H2178 0.950 . S
C2155 C2172 1.574 . S
C2155 C2174 1.368 . S
C2155 H2179 0.949 . S
H2156 C2160 0.949 1_556 S
C2157 C2158 1.349 1_554 S
C2157 C2159 1.327 . S
C2157 H2180 0.950 . S
C2158 C2157 1.349 1_556 S
C2158 C2170 1.349 . S
C2159 C2157 1.327 . S
C2159 C2175 1.429 . S
C2159 H2181 0.950 . S
C2160 H2156 0.949 1_554 S
C2160 C2168 1.574 . S
C2160 C2176 1.368 . S
H2161 C2169 0.950 . S
H2162 C2167 0.950 . S
H2163 C2168 0.973 . S
H2164 C2170 0.950 . S
H2165 C2171 0.950 . S
H2166 C2172 0.949 . S
C2167 H2162 0.950 . S
C2167 C2169 1.327 . S
C2167 C2173 1.429 . S
C2168 C2160 1.574 . S
C2168 H2163 0.973 . S
C2168 C2174 1.368 . S
C2169 C2153 1.349 . S
C2169 H2161 0.950 . S
C2169 C2167 1.327 . S
C2170 C2158 1.349 . S
C2170 H2164 0.950 . S
C2170 C2171 1.327 . S
C2171 H2165 0.950 . S
C2171 C2170 1.327 . S
C2171 C2175 1.429 1_556 S
C2172 C2155 1.574 . S
C2172 H2166 0.949 . S
C2172 C2176 1.368 . S
C2173 C2154 1.429 . S
C2173 C2167 1.429 . S
C2173 C2174 1.523 . S
C2174 C2155 1.368 . S
C2174 C2168 1.368 . S
C2174 C2173 1.523 . S
C2175 C2159 1.429 . S
C2175 C2171 1.429 1_554 S
C2175 C2176 1.523 . S
C2176 C2160 1.368 . S
C2176 C2172 1.368 . S
C2176 C2175 1.523 . S
H2177 C2152 0.950 . S
H2178 C2154 0.950 . S
H2179 C2155 0.949 . S
H2180 C2157 0.950 . S
H2181 C2159 0.950 . S
C2182 C2183 1.349 . S
C2182 C2184 1.327 . S
C2182 H2207 0.950 . S
C2183 C2182 1.349 . S
C2183 C2199 1.349 . S
C2184 C2182 1.327 . S
C2184 C2203 1.429 . S
C2184 H2208 0.950 . S
C2185 C2202 1.574 . S
C2185 C2204 1.368 . S
C2185 H2209 0.949 . S
H2186 C2190 0.949 . S
C2187 C2188 1.349 . S
C2187 C2189 1.327 . S
C2187 H2210 0.950 . S
C2188 C2187 1.349 . S
C2188 C2200 1.349 . S
C2189 C2187 1.327 . S
C2189 C2205 1.429 . S
C2189 H2211 0.950 . S
C2190 H2186 0.949 . S
C2190 C2198 1.574 . S
C2190 C2206 1.368 . S
H2191 C2199 0.950 . S
H2192 C2197 0.950 . S
H2193 C2198 0.949 . S
H2194 C2200 0.950 . S
H2195 C2201 0.950 . S
H2196 C2202 0.949 . S
C2197 H2192 0.950 . S
C2197 C2199 1.327 . S
C2197 C2203 1.429 . S
C2198 C2190 1.574 . S
C2198 H2193 0.949 . S
C2198 C2204 1.368 . S
C2199 C2183 1.349 . S
C2199 H2191 0.950 . S
C2199 C2197 1.327 . S
C2200 C2188 1.349 . S
C2200 H2194 0.950 . S
C2200 C2201 1.327 . S
C2201 H2195 0.950 . S
C2201 C2200 1.327 . S
C2201 C2205 1.429 . S
C2202 C2185 1.574 . S
C2202 H2196 0.949 . S
C2202 C2206 1.368 . S
C2203 C2184 1.429 . S
C2203 C2197 1.429 . S
C2203 C2204 1.523 . S
C2204 C2185 1.368 . S
C2204 C2198 1.368 . S
C2204 C2203 1.523 . S
C2205 C2189 1.429 . S
C2205 C2201 1.429 . S
C2205 C2206 1.523 . S
C2206 C2190 1.368 . S
C2206 C2202 1.368 . S
C2206 C2205 1.523 . S
H2207 C2182 0.950 . S
H2208 C2184 0.950 . S
H2209 C2185 0.949 . S
H2210 C2187 0.950 . S
H2211 C2189 0.950 . S
C2212 C2213 1.349 . S
C2212 C2214 1.327 . S
C2212 H2237 0.950 . S
C2213 C2212 1.349 . S
C2213 C2229 1.349 . S
C2214 C2212 1.327 . S
C2214 C2233 1.429 . S
C2214 H2238 0.950 . S
C2215 C2232 1.574 . S
C2215 C2234 1.368 . S
C2215 H2239 0.949 . S
H2216 C2220 0.949 . S
C2217 C2218 1.349 . S
C2217 C2219 1.327 . S
C2217 H2240 0.950 . S
C2218 C2217 1.349 . S
C2218 C2230 1.349 . S
C2219 C2217 1.327 . S
C2219 C2235 1.429 . S
C2219 H2241 0.950 . S
C2220 H2216 0.949 . S
C2220 C2228 1.574 . S
C2220 C2236 1.368 . S
H2221 C2229 0.950 . S
H2222 C2227 0.950 . S
H2223 C2228 0.949 . S
H2224 C2230 0.950 . S
H2225 C2231 0.950 . S
H2226 C2232 0.949 . S
C2227 H2222 0.950 . S
C2227 C2229 1.327 . S
C2227 C2233 1.429 . S
C2228 C2220 1.574 . S
C2228 H2223 0.949 . S
C2228 C2234 1.368 . S
C2229 C2213 1.349 . S
C2229 H2221 0.950 . S
C2229 C2227 1.327 . S
C2230 C2218 1.349 . S
C2230 H2224 0.950 . S
C2230 C2231 1.327 . S
C2231 H2225 0.950 . S
C2231 C2230 1.327 . S
C2231 C2235 1.429 . S
C2232 C2215 1.574 . S
C2232 H2226 0.949 . S
C2232 C2236 1.368 . S
C2233 C2214 1.429 . S
C2233 C2227 1.429 . S
C2233 C2234 1.523 . S
C2234 C2215 1.368 . S
C2234 C2228 1.368 . S
C2234 C2233 1.523 . S
C2235 C2219 1.429 . S
C2235 C2231 1.429 . S
C2235 C2236 1.523 . S
C2236 C2220 1.368 . S
C2236 C2232 1.368 . S
C2236 C2235 1.523 . S
H2237 C2212 0.950 . S
H2238 C2214 0.950 . S
H2239 C2215 0.949 . S
H2240 C2217 0.950 . S
H2241 C2219 0.950 . S
C2242 C2243 1.349 . S
C2242 C2244 1.327 . S
C2242 H2267 0.950 . S
C2243 C2242 1.349 . S
C2243 C2259 1.349 . S
C2244 C2242 1.327 . S
C2244 C2263 1.429 . S
C2244 H2268 0.950 . S
C2245 C2262 1.574 . S
C2245 C2264 1.368 . S
C2245 H2269 0.949 . S
H2246 C2250 0.949 . S
C2247 C2248 1.349 . S
C2247 C2249 1.327 . S
C2247 H2270 0.950 . S
C2248 C2247 1.349 . S
C2248 C2260 1.349 . S
C2249 C2247 1.327 . S
C2249 C2265 1.429 . S
C2249 H2271 0.950 . S
C2250 H2246 0.949 . S
C2250 C2258 1.574 . S
C2250 C2266 1.368 . S
H2251 C2259 0.950 . S
H2252 C2257 0.950 . S
H2253 C2258 0.949 . S
H2254 C2260 0.950 . S
H2255 C2261 0.950 . S
H2256 C2262 0.949 . S
C2257 H2252 0.950 . S
C2257 C2259 1.327 . S
C2257 C2263 1.429 . S
C2258 C2250 1.574 . S
C2258 H2253 0.949 . S
C2258 C2264 1.368 . S
C2259 C2243 1.349 . S
C2259 H2251 0.950 . S
C2259 C2257 1.327 . S
C2260 C2248 1.349 . S
C2260 H2254 0.950 . S
C2260 C2261 1.327 . S
C2261 H2255 0.950 . S
C2261 C2260 1.327 . S
C2261 C2265 1.429 . S
C2262 C2245 1.574 . S
C2262 H2256 0.949 . S
C2262 C2266 1.368 . S
C2263 C2244 1.429 . S
C2263 C2257 1.429 . S
C2263 C2264 1.523 . S
C2264 C2245 1.368 . S
C2264 C2258 1.368 . S
C2264 C2263 1.523 . S
C2265 C2249 1.429 . S
C2265 C2261 1.429 . S
C2265 C2266 1.523 . S
C2266 C2250 1.368 . S
C2266 C2262 1.368 . S
C2266 C2265 1.523 . S
H2267 C2242 0.950 . S
H2268 C2244 0.950 . S
H2269 C2245 0.949 . S
H2270 C2247 0.950 . S
H2271 C2249 0.950 . S
C2272 C2273 1.349 . S
C2272 C2274 1.326 1_545 S
C2272 H2297 0.950 . S
C2273 C2272 1.349 . S
C2273 C2289 1.349 . S
C2274 C2272 1.326 1_565 S
C2274 C2293 1.429 . S
C2274 H2298 0.950 . S
C2275 C2292 1.574 . S
C2275 C2294 1.368 . S
C2275 H2299 0.949 . S
H2276 C2280 0.949 . S
C2277 C2278 1.349 . S
C2277 C2279 1.327 . S
C2277 H2300 0.950 . S
C2278 C2277 1.349 . S
C2278 C2290 1.349 . S
C2279 C2277 1.327 . S
C2279 C2295 1.429 . S
C2279 H2301 0.950 . S
C2280 H2276 0.949 . S
C2280 C2288 1.574 . S
C2280 C2296 1.368 . S
H2281 C2289 0.950 . S
H2282 C2287 0.950 . S
H2283 C2288 0.949 . S
H2284 C2290 0.950 . S
H2285 C2291 0.950 . S
H2286 C2292 0.949 . S
C2287 H2282 0.950 . S
C2287 C2289 1.327 1_565 S
C2287 C2293 1.429 . S
C2288 C2280 1.574 . S
C2288 H2283 0.949 . S
C2288 C2294 1.368 . S
C2289 C2273 1.349 . S
C2289 H2281 0.950 . S
C2289 C2287 1.327 1_545 S
C2290 C2278 1.349 . S
C2290 H2284 0.950 . S
C2290 C2291 1.327 . S
C2291 H2285 0.950 . S
C2291 C2290 1.327 . S
C2291 C2295 1.429 . S
C2292 C2275 1.574 . S
C2292 H2286 0.949 . S
C2292 C2296 1.368 . S
C2293 C2274 1.429 . S
C2293 C2287 1.429 . S
C2293 C2294 1.523 . S
C2294 C2275 1.368 . S
C2294 C2288 1.368 . S
C2294 C2293 1.523 . S
C2295 C2279 1.429 . S
C2295 C2291 1.429 . S
C2295 C2296 1.523 . S
C2296 C2280 1.368 . S
C2296 C2292 1.368 . S
C2296 C2295 1.523 . S
H2297 C2272 0.950 . S
H2298 C2274 0.950 . S
H2299 C2275 0.949 . S
H2300 C2277 0.950 . S
H2301 C2279 0.950 . S
C2302 C2303 1.349 . S
C2302 C2304 1.327 . S
C2302 H2327 0.950 . S
C2303 C2302 1.349 . S
C2303 C2319 1.349 . S
C2304 C2302 1.327 . S
C2304 C2323 1.429 . S
C2304 H2328 0.950 . S
C2305 C2322 1.574 . S
C2305 C2324 1.368 . S
C2305 H2329 0.949 . S
H2306 C2310 0.949 . S
C2307 C2308 1.349 . S
C2307 C2309 1.327 . S
C2307 H2330 0.950 . S
C2308 C2307 1.349 . S
C2308 C2320 1.349 . S
C2309 C2307 1.327 . S
C2309 C2325 1.429 . S
C2309 H2331 0.950 . S
C2310 H2306 0.949 . S
C2310 C2318 1.574 . S
C2310 C2326 1.368 . S
H2311 C2319 0.950 . S
H2312 C2317 0.950 . S
H2313 C2318 0.949 . S
H2314 C2320 0.952 1_545 S
H2315 C2321 0.950 . S
H2316 C2322 0.949 . S
C2317 H2312 0.950 . S
C2317 C2319 1.327 . S
C2317 C2323 1.429 . S
C2318 C2310 1.574 . S
C2318 H2313 0.949 . S
C2318 C2324 1.368 . S
C2319 C2303 1.349 . S
C2319 H2311 0.950 . S
C2319 C2317 1.327 . S
C2320 C2308 1.349 . S
C2320 H2314 0.952 1_565 S
C2320 C2321 1.327 . S
C2321 H2315 0.950 . S
C2321 C2320 1.327 . S
C2321 C2325 1.429 . S
C2322 C2305 1.574 . S
C2322 H2316 0.949 . S
C2322 C2326 1.368 . S
C2323 C2304 1.429 . S
C2323 C2317 1.429 . S
C2323 C2324 1.523 . S
C2324 C2305 1.368 . S
C2324 C2318 1.368 . S
C2324 C2323 1.523 . S
C2325 C2309 1.429 . S
C2325 C2321 1.429 . S
C2325 C2326 1.523 . S
C2326 C2310 1.368 . S
C2326 C2322 1.368 . S
C2326 C2325 1.523 . S
H2327 C2302 0.950 . S
H2328 C2304 0.950 . S
H2329 C2305 0.949 . S
H2330 C2307 0.950 . S
H2331 C2309 0.950 . S
C2332 C2333 1.349 . S
C2332 C2334 1.327 . S
C2332 H2357 0.950 . S
C2333 C2332 1.349 . S
C2333 C2349 1.349 . S
C2334 C2332 1.327 . S
C2334 C2353 1.429 . S
C2334 H2358 0.950 . S
C2335 C2352 1.574 . S
C2335 C2354 1.368 . S
C2335 H2359 0.949 . S
H2336 C2340 0.949 . S
C2337 C2338 1.349 . S
C2337 C2339 1.327 . S
C2337 H2360 0.950 . S
C2338 C2337 1.349 . S
C2338 C2350 1.349 . S
C2339 C2337 1.327 . S
C2339 C2355 1.429 . S
C2339 H2361 0.950 . S
C2340 H2336 0.949 . S
C2340 C2348 1.574 . S
C2340 C2356 1.368 . S
H2341 C2349 0.950 . S
H2342 C2347 0.950 . S
H2343 C2348 0.949 . S
H2344 C2350 0.950 . S
H2345 C2351 0.950 . S
H2346 C2352 0.949 . S
C2347 H2342 0.950 . S
C2347 C2349 1.327 . S
C2347 C2353 1.429 . S
C2348 C2340 1.574 . S
C2348 H2343 0.949 . S
C2348 C2354 1.368 . S
C2349 C2333 1.349 . S
C2349 H2341 0.950 . S
C2349 C2347 1.327 . S
C2350 C2338 1.349 . S
C2350 H2344 0.950 . S
C2350 C2351 1.327 . S
C2351 H2345 0.950 . S
C2351 C2350 1.327 . S
C2351 C2355 1.429 . S
C2352 C2335 1.574 . S
C2352 H2346 0.949 . S
C2352 C2356 1.368 . S
C2353 C2334 1.429 . S
C2353 C2347 1.429 . S
C2353 C2354 1.523 . S
C2354 C2335 1.368 . S
C2354 C2348 1.368 . S
C2354 C2353 1.523 . S
C2355 C2339 1.429 . S
C2355 C2351 1.429 . S
C2355 C2356 1.523 . S
C2356 C2340 1.368 . S
C2356 C2352 1.368 . S
C2356 C2355 1.523 . S
H2357 C2332 0.950 . S
H2358 C2334 0.950 . S
H2359 C2335 0.949 . S
H2360 C2337 0.950 . S
H2361 C2339 0.950 . S
C2362 C2363 1.349 . S
C2362 C2364 1.327 . S
C2362 H2387 0.950 . S
C2363 C2362 1.349 . S
C2363 C2379 1.349 . S
C2364 C2362 1.327 . S
C2364 C2383 1.429 . S
C2364 H2388 0.950 . S
C2365 C2382 1.574 . S
C2365 C2384 1.368 . S
C2365 H2389 0.949 . S
H2366 C2370 0.949 . S
C2367 C2368 1.349 . S
C2367 C2369 1.327 . S
C2367 H2390 0.950 . S
C2368 C2367 1.349 . S
C2368 C2380 1.349 . S
C2369 C2367 1.327 . S
C2369 C2385 1.429 . S
C2369 H2391 0.950 . S
C2370 H2366 0.949 . S
C2370 C2378 1.574 . S
C2370 C2386 1.368 . S
H2371 C2379 0.950 . S
H2372 C2377 0.950 . S
H2373 C2378 0.949 . S
H2374 C2380 0.950 . S
H2375 C2381 0.950 . S
H2376 C2382 0.949 . S
C2377 H2372 0.950 . S
C2377 C2379 1.327 . S
C2377 C2383 1.429 . S
C2378 C2370 1.574 . S
C2378 H2373 0.949 . S
C2378 C2384 1.368 . S
C2379 C2363 1.349 . S
C2379 H2371 0.950 . S
C2379 C2377 1.327 . S
C2380 C2368 1.349 . S
C2380 H2374 0.950 . S
C2380 C2381 1.327 . S
C2381 H2375 0.950 . S
C2381 C2380 1.327 . S
C2381 C2385 1.429 . S
C2382 C2365 1.574 . S
C2382 H2376 0.949 . S
C2382 C2386 1.368 . S
C2383 C2364 1.429 . S
C2383 C2377 1.429 . S
C2383 C2384 1.523 . S
C2384 C2365 1.368 . S
C2384 C2378 1.368 . S
C2384 C2383 1.523 . S
C2385 C2369 1.429 . S
C2385 C2381 1.429 . S
C2385 C2386 1.523 . S
C2386 C2370 1.368 . S
C2386 C2382 1.368 . S
C2386 C2385 1.523 . S
H2387 C2362 0.950 . S
H2388 C2364 0.950 . S
H2389 C2365 0.949 . S
H2390 C2367 0.950 . S
H2391 C2369 0.950 . S
C2392 C2393 1.349 . S
C2392 C2394 1.327 . S
C2392 H2417 0.950 . S
C2393 C2392 1.349 . S
C2393 C2409 1.349 . S
C2394 C2392 1.327 . S
C2394 C2413 1.429 . S
C2394 H2418 0.950 . S
C2395 C2412 1.574 . S
C2395 C2414 1.368 . S
C2395 H2419 0.949 . S
H2396 C2400 0.949 . S
C2397 C2398 1.349 . S
C2397 C2399 1.327 . S
C2397 H2420 0.950 . S
C2398 C2397 1.349 . S
C2398 C2410 1.349 . S
C2399 C2397 1.327 . S
C2399 C2415 1.429 . S
C2399 H2421 0.950 . S
C2400 H2396 0.949 . S
C2400 C2408 1.574 . S
C2400 C2416 1.368 . S
H2401 C2409 0.950 . S
H2402 C2407 0.950 . S
H2403 C2408 0.949 . S
H2404 C2410 0.950 . S
H2405 C2411 0.950 . S
H2406 C2412 0.949 . S
C2407 H2402 0.950 . S
C2407 C2409 1.327 . S
C2407 C2413 1.429 . S
C2408 C2400 1.574 . S
C2408 H2403 0.949 . S
C2408 C2414 1.368 . S
C2409 C2393 1.349 . S
C2409 H2401 0.950 . S
C2409 C2407 1.327 . S
C2410 C2398 1.349 . S
C2410 H2404 0.950 . S
C2410 C2411 1.327 . S
C2411 H2405 0.950 . S
C2411 C2410 1.327 . S
C2411 C2415 1.429 . S
C2412 C2395 1.574 . S
C2412 H2406 0.949 . S
C2412 C2416 1.368 . S
C2413 C2394 1.429 . S
C2413 C2407 1.429 . S
C2413 C2414 1.523 . S
C2414 C2395 1.368 . S
C2414 C2408 1.368 . S
C2414 C2413 1.523 . S
C2415 C2399 1.429 . S
C2415 C2411 1.429 . S
C2415 C2416 1.523 . S
C2416 C2400 1.368 . S
C2416 C2412 1.368 . S
C2416 C2415 1.523 . S
H2417 C2392 0.950 . S
H2418 C2394 0.950 . S
H2419 C2395 0.949 . S
H2420 C2397 0.950 . S
H2421 C2399 0.950 . S
C2422 C2423 1.349 . S
C2422 C2424 1.327 . S
C2422 H2447 0.950 . S
C2423 C2422 1.349 . S
C2423 C2439 1.349 . S
C2424 C2422 1.327 . S
C2424 C2443 1.429 . S
C2424 H2448 0.950 . S
C2425 C2442 1.574 . S
C2425 C2444 1.368 . S
C2425 H2449 0.949 . S
H2426 C2430 0.949 . S
C2427 C2428 1.349 . S
C2427 C2429 1.327 . S
C2427 H2450 0.950 . S
C2428 C2427 1.349 . S
C2428 C2440 1.349 . S
C2429 C2427 1.327 . S
C2429 C2445 1.429 . S
C2429 H2451 0.950 . S
C2430 H2426 0.949 . S
C2430 C2438 1.574 . S
C2430 C2446 1.368 . S
H2431 C2439 0.950 . S
H2432 C2437 0.950 . S
H2433 C2438 0.949 . S
H2434 C2440 0.950 . S
H2435 C2441 0.950 . S
H2436 C2442 0.949 . S
C2437 H2432 0.950 . S
C2437 C2439 1.327 . S
C2437 C2443 1.429 . S
C2438 C2430 1.574 . S
C2438 H2433 0.949 . S
C2438 C2444 1.368 . S
C2439 C2423 1.349 . S
C2439 H2431 0.950 . S
C2439 C2437 1.327 . S
C2440 C2428 1.349 . S
C2440 H2434 0.950 . S
C2440 C2441 1.327 . S
C2441 H2435 0.950 . S
C2441 C2440 1.327 . S
C2441 C2445 1.429 . S
C2442 C2425 1.574 . S
C2442 H2436 0.949 . S
C2442 C2446 1.368 . S
C2443 C2424 1.429 . S
C2443 C2437 1.429 . S
C2443 C2444 1.523 . S
C2444 C2425 1.368 . S
C2444 C2438 1.368 . S
C2444 C2443 1.523 . S
C2445 C2429 1.429 . S
C2445 C2441 1.429 . S
C2445 C2446 1.523 . S
C2446 C2430 1.368 . S
C2446 C2442 1.368 . S
C2446 C2445 1.523 . S
H2447 C2422 0.950 . S
H2448 C2424 0.950 . S
H2449 C2425 0.949 . S
H2450 C2427 0.950 . S
H2451 C2429 0.950 . S
C2452 C2453 1.349 1_655 S
C2452 C2454 1.327 . S
C2452 H2477 0.950 . S
C2453 C2452 1.349 1_455 S
C2453 C2469 1.349 . S
C2454 C2452 1.327 . S
C2454 C2473 1.429 1_655 S
C2454 H2478 0.950 . S
C2455 C2472 1.574 . S
C2455 C2474 1.368 1_554 S
C2455 H2479 0.949 . S
H2456 C2460 0.949 1_655 S
C2457 C2458 1.349 . S
C2457 C2459 1.327 . S
C2457 H2480 0.950 . S
C2458 C2457 1.349 . S
C2458 C2470 1.349 1_554 S
C2459 C2457 1.327 . S
C2459 C2475 1.429 . S
C2459 H2481 0.950 . S
C2460 H2456 0.949 1_455 S
C2460 C2468 1.574 . S
C2460 C2476 1.407 . S
H2461 C2469 0.950 . S
H2462 C2467 0.950 1_554 S
H2463 C2468 0.949 1_655 S
H2464 C2470 0.959 . S
H2465 C2471 0.950 1_655 S
H2466 C2472 0.949 . S
C2467 H2462 0.950 1_556 S
C2467 C2469 1.327 . S
C2467 C2473 1.429 . S
C2468 C2460 1.574 . S
C2468 H2463 0.949 1_455 S
C2468 C2474 1.368 . S
C2469 C2453 1.349 . S
C2469 H2461 0.950 . S
C2469 C2467 1.327 . S
C2470 C2458 1.349 1_556 S
C2470 H2464 0.959 . S
C2470 C2471 1.327 . S
C2471 H2465 0.950 1_455 S
C2471 C2470 1.327 . S
C2471 C2475 1.429 1_556 S
C2472 C2455 1.574 . S
C2472 H2466 0.949 . S
C2472 C2476 1.335 1_554 S
C2473 C2454 1.429 1_455 S
C2473 C2467 1.429 . S
C2473 C2474 1.523 . S
C2474 C2455 1.368 1_556 S
C2474 C2468 1.368 . S
C2474 C2473 1.523 . S
C2475 C2459 1.429 . S
C2475 C2471 1.429 1_554 S
C2475 C2476 1.518 1_554 S
C2476 C2460 1.407 . S
C2476 C2472 1.335 1_556 S
C2476 C2475 1.518 1_556 S
H2477 C2452 0.950 . S
H2478 C2454 0.950 . S
H2479 C2455 0.949 . S
H2480 C2457 0.950 . S
H2481 C2459 0.950 . S
C2482 C2483 1.349 . S
C2482 C2484 1.327 . S
C2482 H2507 0.950 . S
C2483 C2482 1.349 . S
C2483 C2499 1.349 . S
C2484 C2482 1.327 . S
C2484 C2503 1.429 . S
C2484 H2508 0.950 . S
C2485 C2502 1.574 . S
C2485 C2504 1.368 . S
C2485 H2509 0.949 . S
H2486 C2490 0.949 . S
C2487 C2488 1.349 . S
C2487 C2489 1.327 . S
C2487 H2510 0.950 . S
C2488 C2487 1.349 . S
C2488 C2500 1.349 . S
C2489 C2487 1.327 . S
C2489 C2505 1.429 . S
C2489 H2511 0.950 . S
C2490 H2486 0.949 . S
C2490 C2498 1.574 . S
C2490 C2506 1.368 . S
H2491 C2499 0.950 1_455 S
H2492 C2497 0.950 . S
H2493 C2498 0.949 . S
H2494 C2500 0.950 . S
H2495 C2501 0.950 . S
H2496 C2502 0.949 . S
C2497 H2492 0.950 . S
C2497 C2499 1.327 . S
C2497 C2503 1.429 . S
C2498 C2490 1.574 . S
C2498 H2493 0.949 . S
C2498 C2504 1.368 . S
C2499 C2483 1.349 . S
C2499 H2491 0.950 1_655 S
C2499 C2497 1.327 . S
C2500 C2488 1.349 . S
C2500 H2494 0.950 . S
C2500 C2501 1.327 . S
C2501 H2495 0.950 . S
C2501 C2500 1.327 . S
C2501 C2505 1.429 . S
C2502 C2485 1.574 . S
C2502 H2496 0.949 . S
C2502 C2506 1.368 . S
C2503 C2484 1.429 . S
C2503 C2497 1.429 . S
C2503 C2504 1.523 . S
C2504 C2485 1.368 . S
C2504 C2498 1.368 . S
C2504 C2503 1.523 . S
C2505 C2489 1.429 . S
C2505 C2501 1.429 . S
C2505 C2506 1.523 . S
C2506 C2490 1.368 . S
C2506 C2502 1.368 . S
C2506 C2505 1.523 . S
H2507 C2482 0.950 . S
H2508 C2484 0.950 . S
H2509 C2485 0.949 . S
H2510 C2487 0.950 . S
H2511 C2489 0.950 . S
C2512 C2513 1.349 . S
C2512 C2514 1.327 . S
C2512 H2537 0.950 . S
C2513 C2512 1.349 . S
C2513 C2529 1.349 . S
C2514 C2512 1.327 . S
C2514 C2533 1.429 . S
C2514 H2538 0.950 . S
C2515 C2532 1.574 . S
C2515 C2534 1.368 . S
C2515 H2539 0.949 . S
H2516 C2520 0.949 . S
C2517 C2518 1.349 . S
C2517 C2519 1.327 . S
C2517 H2540 0.950 . S
C2518 C2517 1.349 . S
C2518 C2530 1.349 . S
C2519 C2517 1.327 . S
C2519 C2535 1.429 . S
C2519 H2541 0.950 . S
C2520 H2516 0.949 . S
C2520 C2528 1.574 . S
C2520 C2536 1.368 . S
H2521 C2529 0.950 . S
H2522 C2527 0.950 . S
H2523 C2528 0.949 . S
H2524 C2530 0.950 . S
H2525 C2531 0.950 . S
H2526 C2532 0.949 . S
C2527 H2522 0.950 . S
C2527 C2529 1.327 . S
C2527 C2533 1.429 . S
C2528 C2520 1.574 . S
C2528 H2523 0.949 . S
C2528 C2534 1.368 . S
C2529 C2513 1.349 . S
C2529 H2521 0.950 . S
C2529 C2527 1.327 . S
C2530 C2518 1.349 . S
C2530 H2524 0.950 . S
C2530 C2531 1.327 . S
C2531 H2525 0.950 . S
C2531 C2530 1.327 . S
C2531 C2535 1.429 . S
C2532 C2515 1.574 . S
C2532 H2526 0.949 . S
C2532 C2536 1.368 . S
C2533 C2514 1.429 . S
C2533 C2527 1.429 . S
C2533 C2534 1.523 . S
C2534 C2515 1.368 . S
C2534 C2528 1.368 . S
C2534 C2533 1.523 . S
C2535 C2519 1.429 . S
C2535 C2531 1.429 . S
C2535 C2536 1.523 . S
C2536 C2520 1.368 . S
C2536 C2532 1.368 . S
C2536 C2535 1.523 . S
H2537 C2512 0.950 . S
H2538 C2514 0.950 . S
H2539 C2515 0.949 . S
H2540 C2517 0.950 . S
H2541 C2519 0.950 . S
C2542 C2543 1.349 . S
C2542 C2544 1.327 . S
C2542 H2567 0.950 . S
C2543 C2542 1.349 . S
C2543 C2559 1.349 . S
C2544 C2542 1.327 . S
C2544 C2563 1.429 . S
C2544 H2568 0.950 . S
C2545 C2562 1.574 . S
C2545 C2564 1.368 . S
C2545 H2569 0.949 . S
H2546 C2550 0.949 . S
C2547 C2548 1.349 . S
C2547 C2549 1.327 . S
C2547 H2570 0.950 . S
C2548 C2547 1.349 . S
C2548 C2560 1.349 . S
C2549 C2547 1.327 . S
C2549 C2565 1.429 . S
C2549 H2571 0.950 . S
C2550 H2546 0.949 . S
C2550 C2558 1.574 . S
C2550 C2566 1.368 . S
H2551 C2559 0.950 . S
H2552 C2557 0.950 . S
H2553 C2558 0.949 . S
H2554 C2560 0.950 . S
H2555 C2561 0.950 . S
H2556 C2562 0.949 . S
C2557 H2552 0.950 . S
C2557 C2559 1.327 . S
C2557 C2563 1.429 . S
C2558 C2550 1.574 . S
C2558 H2553 0.949 . S
C2558 C2564 1.368 . S
C2559 C2543 1.349 . S
C2559 H2551 0.950 . S
C2559 C2557 1.327 . S
C2560 C2548 1.349 . S
C2560 H2554 0.950 . S
C2560 C2561 1.327 . S
C2561 H2555 0.950 . S
C2561 C2560 1.327 . S
C2561 C2565 1.429 . S
C2562 C2545 1.574 . S
C2562 H2556 0.949 . S
C2562 C2566 1.368 . S
C2563 C2544 1.429 . S
C2563 C2557 1.429 . S
C2563 C2564 1.523 . S
C2564 C2545 1.368 . S
C2564 C2558 1.368 . S
C2564 C2563 1.523 . S
C2565 C2549 1.429 . S
C2565 C2561 1.429 . S
C2565 C2566 1.523 . S
C2566 C2550 1.368 . S
C2566 C2562 1.368 . S
C2566 C2565 1.523 . S
H2567 C2542 0.950 . S
H2568 C2544 0.950 . S
H2569 C2545 0.949 . S
H2570 C2547 0.950 . S
H2571 C2549 0.950 . S
C2572 C2573 1.349 1_655 S
C2572 C2574 1.345 . S
C2572 H2597 0.950 . S
C2573 C2572 1.349 1_455 S
C2573 C2589 1.349 . S
C2574 C2572 1.345 . S
C2574 C2593 1.379 1_655 S
C2574 H2598 0.985 . S
C2575 C2592 1.574 . S
C2575 C2594 1.368 . S
C2575 H2599 0.949 . S
H2576 C2580 0.925 1_655 S
C2577 C2578 1.349 . S
C2577 C2579 1.327 . S
C2577 H2600 0.950 . S
C2578 C2577 1.349 . S
C2578 C2590 1.349 . S
C2579 C2577 1.327 . S
C2579 C2595 1.429 . S
C2579 H2601 0.950 . S
C2580 H2576 0.925 1_455 S
C2580 C2588 1.559 1_455 S
C2580 C2596 1.411 . S
H2581 C2589 0.950 . S
H2582 C2587 0.950 . S
H2583 C2588 0.951 . S
H2584 C2590 0.950 1_655 S
H2585 C2591 0.950 1_655 S
H2586 C2592 0.949 . S
C2587 H2582 0.950 . S
C2587 C2589 1.327 . S
C2587 C2593 1.429 . S
C2588 C2580 1.559 1_655 S
C2588 H2583 0.951 . S
C2588 C2594 1.367 1_655 S
C2589 C2573 1.349 . S
C2589 H2581 0.950 . S
C2589 C2587 1.327 . S
C2590 C2578 1.349 . S
C2590 H2584 0.950 1_455 S
C2590 C2591 1.327 . S
C2591 H2585 0.950 1_455 S
C2591 C2590 1.327 . S
C2591 C2595 1.429 . S
C2592 C2575 1.574 . S
C2592 H2586 0.949 . S
C2592 C2596 1.368 . S
C2593 C2574 1.379 1_455 S
C2593 C2587 1.429 . S
C2593 C2594 1.523 . S
C2594 C2575 1.368 . S
C2594 C2588 1.367 1_455 S
C2594 C2593 1.523 . S
C2595 C2579 1.429 . S
C2595 C2591 1.429 . S
C2595 C2596 1.523 . S
C2596 C2580 1.411 . S
C2596 C2592 1.368 . S
C2596 C2595 1.523 . S
H2597 C2572 0.950 . S
H2598 C2574 0.985 . S
H2599 C2575 0.949 . S
H2600 C2577 0.950 . S
H2601 C2579 0.950 . S
C2602 C2603 1.349 . S
C2602 C2604 1.327 . S
C2602 H2627 0.950 . S
C2603 C2602 1.349 . S
C2603 C2619 1.349 . S
C2604 C2602 1.327 . S
C2604 C2623 1.429 . S
C2604 H2628 0.950 . S
C2605 C2622 1.574 . S
C2605 C2624 1.368 . S
C2605 H2629 0.949 . S
H2606 C2610 0.949 . S
C2607 C2608 1.349 . S
C2607 C2609 1.327 . S
C2607 H2630 0.950 . S
C2608 C2607 1.349 . S
C2608 C2620 1.349 . S
C2609 C2607 1.327 . S
C2609 C2625 1.429 . S
C2609 H2631 0.950 . S
C2610 H2606 0.949 . S
C2610 C2618 1.574 . S
C2610 C2626 1.368 . S
H2611 C2619 0.950 . S
H2612 C2617 0.950 . S
H2613 C2618 0.949 . S
H2614 C2620 0.950 . S
H2615 C2621 0.950 . S
H2616 C2622 0.949 . S
C2617 H2612 0.950 . S
C2617 C2619 1.327 . S
C2617 C2623 1.429 . S
C2618 C2610 1.574 . S
C2618 H2613 0.949 . S
C2618 C2624 1.368 . S
C2619 C2603 1.349 . S
C2619 H2611 0.950 . S
C2619 C2617 1.327 . S
C2620 C2608 1.349 . S
C2620 H2614 0.950 . S
C2620 C2621 1.327 . S
C2621 H2615 0.950 . S
C2621 C2620 1.327 . S
C2621 C2625 1.429 . S
C2622 C2605 1.574 . S
C2622 H2616 0.949 . S
C2622 C2626 1.368 . S
C2623 C2604 1.429 . S
C2623 C2617 1.429 . S
C2623 C2624 1.523 . S
C2624 C2605 1.368 . S
C2624 C2618 1.368 . S
C2624 C2623 1.523 . S
C2625 C2609 1.429 . S
C2625 C2621 1.429 . S
C2625 C2626 1.523 . S
C2626 C2610 1.368 . S
C2626 C2622 1.368 . S
C2626 C2625 1.523 . S
H2627 C2602 0.950 . S
H2628 C2604 0.950 . S
H2629 C2605 0.949 . S
H2630 C2607 0.950 . S
H2631 C2609 0.950 . S
C2632 C2633 1.349 . S
C2632 C2634 1.327 . S
C2632 H2657 0.950 . S
C2633 C2632 1.349 . S
C2633 C2649 1.349 . S
C2634 C2632 1.327 . S
C2634 C2653 1.429 . S
C2634 H2658 0.950 . S
C2635 C2652 1.574 . S
C2635 C2654 1.368 . S
C2635 H2659 0.949 . S
H2636 C2640 0.949 . S
C2637 C2638 1.349 . S
C2637 C2639 1.327 . S
C2637 H2660 0.950 . S
C2638 C2637 1.349 . S
C2638 C2650 1.349 . S
C2639 C2637 1.327 . S
C2639 C2655 1.429 . S
C2639 H2661 0.950 . S
C2640 H2636 0.949 . S
C2640 C2648 1.574 . S
C2640 C2656 1.368 . S
H2641 C2649 0.950 . S
H2642 C2647 0.950 . S
H2643 C2648 0.949 . S
H2644 C2650 0.950 . S
H2645 C2651 0.950 . S
H2646 C2652 0.949 . S
C2647 H2642 0.950 . S
C2647 C2649 1.327 . S
C2647 C2653 1.429 . S
C2648 C2640 1.574 . S
C2648 H2643 0.949 . S
C2648 C2654 1.368 . S
C2649 C2633 1.349 . S
C2649 H2641 0.950 . S
C2649 C2647 1.327 . S
C2650 C2638 1.349 . S
C2650 H2644 0.950 . S
C2650 C2651 1.327 . S
C2651 H2645 0.950 . S
C2651 C2650 1.327 . S
C2651 C2655 1.429 . S
C2652 C2635 1.574 . S
C2652 H2646 0.949 . S
C2652 C2656 1.368 . S
C2653 C2634 1.429 . S
C2653 C2647 1.429 . S
C2653 C2654 1.523 . S
C2654 C2635 1.368 . S
C2654 C2648 1.368 . S
C2654 C2653 1.523 . S
C2655 C2639 1.429 . S
C2655 C2651 1.429 . S
C2655 C2656 1.523 . S
C2656 C2640 1.368 . S
C2656 C2652 1.368 . S
C2656 C2655 1.523 . S
H2657 C2632 0.950 . S
H2658 C2634 0.950 . S
H2659 C2635 0.949 . S
H2660 C2637 0.950 . S
H2661 C2639 0.950 . S
C2662 C2663 1.349 1_556 S
C2662 C2664 1.327 . S
C2662 H2687 0.950 . S
C2663 C2662 1.349 1_554 S
C2663 C2679 1.349 . S
C2664 C2662 1.327 . S
C2664 C2683 1.429 . S
C2664 H2688 0.950 . S
C2665 C2682 1.574 . S
C2665 C2684 1.368 . S
C2665 H2689 0.949 . S
H2666 C2670 0.949 . S
C2667 C2668 1.349 . S
C2667 C2669 1.327 . S
C2667 H2690 0.950 . S
C2668 C2667 1.349 . S
C2668 C2680 1.349 . S
C2669 C2667 1.327 . S
C2669 C2685 1.429 . S
C2669 H2691 0.950 . S
C2670 H2666 0.949 . S
C2670 C2678 1.574 . S
C2670 C2686 1.368 . S
H2671 C2679 0.950 . S
H2672 C2677 0.950 . S
H2673 C2678 0.949 . S
H2674 C2680 0.950 . S
H2675 C2681 0.950 . S
H2676 C2682 0.949 . S
C2677 H2672 0.950 . S
C2677 C2679 1.327 . S
C2677 C2683 1.429 1_554 S
C2678 C2670 1.574 . S
C2678 H2673 0.949 . S
C2678 C2684 1.368 . S
C2679 C2663 1.349 . S
C2679 H2671 0.950 . S
C2679 C2677 1.327 . S
C2680 C2668 1.349 . S
C2680 H2674 0.950 . S
C2680 C2681 1.327 . S
C2681 H2675 0.950 . S
C2681 C2680 1.327 . S
C2681 C2685 1.429 . S
C2682 C2665 1.574 . S
C2682 H2676 0.949 . S
C2682 C2686 1.368 . S
C2683 C2664 1.429 . S
C2683 C2677 1.429 1_556 S
C2683 C2684 1.523 . S
C2684 C2665 1.368 . S
C2684 C2678 1.368 . S
C2684 C2683 1.523 . S
C2685 C2669 1.429 . S
C2685 C2681 1.429 . S
C2685 C2686 1.523 . S
C2686 C2670 1.368 . S
C2686 C2682 1.368 . S
C2686 C2685 1.523 . S
H2687 C2662 0.950 . S
H2688 C2664 0.950 . S
H2689 C2665 0.949 . S
H2690 C2667 0.950 . S
H2691 C2669 0.950 . S
C2692 C2693 1.349 . S
C2692 C2694 1.327 . S
C2692 H2717 0.950 . S
C2693 C2692 1.349 . S
C2693 C2709 1.349 . S
C2694 C2692 1.327 . S
C2694 C2713 1.429 . S
C2694 H2718 0.950 . S
C2695 C2712 1.574 . S
C2695 C2714 1.368 . S
C2695 H2719 0.949 . S
H2696 C2700 0.949 . S
C2697 C2698 1.349 . S
C2697 C2699 1.327 . S
C2697 H2720 0.950 . S
C2698 C2697 1.349 . S
C2698 C2710 1.349 . S
C2699 C2697 1.327 . S
C2699 C2715 1.429 . S
C2699 H2721 0.950 . S
C2700 H2696 0.949 . S
C2700 C2708 1.574 . S
C2700 C2716 1.368 . S
H2701 C2709 0.950 . S
H2702 C2707 0.950 . S
H2703 C2708 0.949 . S
H2704 C2710 0.950 . S
H2705 C2711 0.950 . S
H2706 C2712 0.949 . S
C2707 H2702 0.950 . S
C2707 C2709 1.327 . S
C2707 C2713 1.429 . S
C2708 C2700 1.574 . S
C2708 H2703 0.949 . S
C2708 C2714 1.368 . S
C2709 C2693 1.349 . S
C2709 H2701 0.950 . S
C2709 C2707 1.327 . S
C2710 C2698 1.349 . S
C2710 H2704 0.950 . S
C2710 C2711 1.327 . S
C2711 H2705 0.950 . S
C2711 C2710 1.327 . S
C2711 C2715 1.429 . S
C2712 C2695 1.574 . S
C2712 H2706 0.949 . S
C2712 C2716 1.368 . S
C2713 C2694 1.429 . S
C2713 C2707 1.429 . S
C2713 C2714 1.523 . S
C2714 C2695 1.368 . S
C2714 C2708 1.368 . S
C2714 C2713 1.523 . S
C2715 C2699 1.429 . S
C2715 C2711 1.429 . S
C2715 C2716 1.523 . S
C2716 C2700 1.368 . S
C2716 C2712 1.368 . S
C2716 C2715 1.523 . S
H2717 C2692 0.950 . S
H2718 C2694 0.950 . S
H2719 C2695 0.949 . S
H2720 C2697 0.950 . S
H2721 C2699 0.950 . S
C2722 C2723 1.349 . S
C2722 C2724 1.327 . S
C2722 H2747 0.950 . S
C2723 C2722 1.349 . S
C2723 C2739 1.349 . S
C2724 C2722 1.327 . S
C2724 C2743 1.429 . S
C2724 H2748 0.950 . S
C2725 C2742 1.574 . S
C2725 C2744 1.368 . S
C2725 H2749 0.949 . S
H2726 C2730 0.949 . S
C2727 C2728 1.349 . S
C2727 C2729 1.327 . S
C2727 H2750 0.950 . S
C2728 C2727 1.349 . S
C2728 C2740 1.349 . S
C2729 C2727 1.327 . S
C2729 C2745 1.429 . S
C2729 H2751 0.950 . S
C2730 H2726 0.949 . S
C2730 C2738 1.574 . S
C2730 C2746 1.368 . S
H2731 C2739 0.950 . S
H2732 C2737 0.950 . S
H2733 C2738 0.949 . S
H2734 C2740 0.950 . S
H2735 C2741 0.950 . S
H2736 C2742 0.949 . S
C2737 H2732 0.950 . S
C2737 C2739 1.327 . S
C2737 C2743 1.429 . S
C2738 C2730 1.574 . S
C2738 H2733 0.949 . S
C2738 C2744 1.368 . S
C2739 C2723 1.349 . S
C2739 H2731 0.950 . S
C2739 C2737 1.327 . S
C2740 C2728 1.349 . S
C2740 H2734 0.950 . S
C2740 C2741 1.327 . S
C2741 H2735 0.950 . S
C2741 C2740 1.327 . S
C2741 C2745 1.429 . S
C2742 C2725 1.574 . S
C2742 H2736 0.949 . S
C2742 C2746 1.368 . S
C2743 C2724 1.429 . S
C2743 C2737 1.429 . S
C2743 C2744 1.523 . S
C2744 C2725 1.368 . S
C2744 C2738 1.368 . S
C2744 C2743 1.523 . S
C2745 C2729 1.429 . S
C2745 C2741 1.429 . S
C2745 C2746 1.523 . S
C2746 C2730 1.368 . S
C2746 C2742 1.368 . S
C2746 C2745 1.523 . S
H2747 C2722 0.950 . S
H2748 C2724 0.950 . S
H2749 C2725 0.949 . S
H2750 C2727 0.950 . S
H2751 C2729 0.950 . S
C2752 C2753 1.349 . S
C2752 C2754 1.327 . S
C2752 H2777 0.950 . S
C2753 C2752 1.349 . S
C2753 C2769 1.349 . S
C2754 C2752 1.327 . S
C2754 C2773 1.429 . S
C2754 H2778 0.950 . S
C2755 C2772 1.574 . S
C2755 C2774 1.368 . S
C2755 H2779 0.949 . S
H2756 C2760 0.949 . S
C2757 C2758 1.349 . S
C2757 C2759 1.327 . S
C2757 H2780 0.950 . S
C2758 C2757 1.349 . S
C2758 C2770 1.349 . S
C2759 C2757 1.327 . S
C2759 C2775 1.429 . S
C2759 H2781 0.950 . S
C2760 H2756 0.949 . S
C2760 C2768 1.574 . S
C2760 C2776 1.368 . S
H2761 C2769 0.950 . S
H2762 C2767 0.950 . S
H2763 C2768 0.949 . S
H2764 C2770 0.950 . S
H2765 C2771 0.950 . S
H2766 C2772 0.949 . S
C2767 H2762 0.950 . S
C2767 C2769 1.327 . S
C2767 C2773 1.429 . S
C2768 C2760 1.574 . S
C2768 H2763 0.949 . S
C2768 C2774 1.368 . S
C2769 C2753 1.349 . S
C2769 H2761 0.950 . S
C2769 C2767 1.327 . S
C2770 C2758 1.349 . S
C2770 H2764 0.950 . S
C2770 C2771 1.327 . S
C2771 H2765 0.950 . S
C2771 C2770 1.327 . S
C2771 C2775 1.429 . S
C2772 C2755 1.574 . S
C2772 H2766 0.949 . S
C2772 C2776 1.368 . S
C2773 C2754 1.429 . S
C2773 C2767 1.429 . S
C2773 C2774 1.523 . S
C2774 C2755 1.368 . S
C2774 C2768 1.368 . S
C2774 C2773 1.523 . S
C2775 C2759 1.429 . S
C2775 C2771 1.429 . S
C2775 C2776 1.523 . S
C2776 C2760 1.368 . S
C2776 C2772 1.368 . S
C2776 C2775 1.523 . S
H2777 C2752 0.950 . S
H2778 C2754 0.950 . S
H2779 C2755 0.949 . S
H2780 C2757 0.950 . S
H2781 C2759 0.950 . S
C2782 C2783 1.349 . S
C2782 C2784 1.327 . S
C2782 H2807 0.950 . S
C2783 C2782 1.349 . S
C2783 C2799 1.349 . S
C2784 C2782 1.327 . S
C2784 C2803 1.429 . S
C2784 H2808 0.950 . S
C2785 C2802 1.574 . S
C2785 C2804 1.368 . S
C2785 H2809 0.949 . S
H2786 C2790 0.949 . S
C2787 C2788 1.349 . S
C2787 C2789 1.327 . S
C2787 H2810 0.950 . S
C2788 C2787 1.349 . S
C2788 C2800 1.349 . S
C2789 C2787 1.327 . S
C2789 C2805 1.429 . S
C2789 H2811 0.950 . S
C2790 H2786 0.949 . S
C2790 C2798 1.574 . S
C2790 C2806 1.368 . S
H2791 C2799 0.950 . S
H2792 C2797 0.950 . S
H2793 C2798 0.949 . S
H2794 C2800 0.950 . S
H2795 C2801 0.950 . S
H2796 C2802 0.949 . S
C2797 H2792 0.950 . S
C2797 C2799 1.327 . S
C2797 C2803 1.429 . S
C2798 C2790 1.574 . S
C2798 H2793 0.949 . S
C2798 C2804 1.368 . S
C2799 C2783 1.349 . S
C2799 H2791 0.950 . S
C2799 C2797 1.327 . S
C2800 C2788 1.349 . S
C2800 H2794 0.950 . S
C2800 C2801 1.327 . S
C2801 H2795 0.950 . S
C2801 C2800 1.327 . S
C2801 C2805 1.429 . S
C2802 C2785 1.574 . S
C2802 H2796 0.949 . S
C2802 C2806 1.368 . S
C2803 C2784 1.429 . S
C2803 C2797 1.429 . S
C2803 C2804 1.523 . S
C2804 C2785 1.368 . S
C2804 C2798 1.368 . S
C2804 C2803 1.523 . S
C2805 C2789 1.429 . S
C2805 C2801 1.429 . S
C2805 C2806 1.523 . S
C2806 C2790 1.368 . S
C2806 C2802 1.368 . S
C2806 C2805 1.523 . S
H2807 C2782 0.950 . S
H2808 C2784 0.950 . S
H2809 C2785 0.949 . S
H2810 C2787 0.950 . S
H2811 C2789 0.950 . S
C2812 C2813 1.349 . S
C2812 C2814 1.327 . S
C2812 H2837 0.950 . S
C2813 C2812 1.349 . S
C2813 C2829 1.349 . S
C2814 C2812 1.327 . S
C2814 C2833 1.429 . S
C2814 H2838 0.950 . S
C2815 C2832 1.574 . S
C2815 C2834 1.368 . S
C2815 H2839 0.949 . S
H2816 C2820 0.949 . S
C2817 C2818 1.349 . S
C2817 C2819 1.327 . S
C2817 H2840 0.950 . S
C2818 C2817 1.349 . S
C2818 C2830 1.349 . S
C2819 C2817 1.327 . S
C2819 C2835 1.429 . S
C2819 H2841 0.950 . S
C2820 H2816 0.949 . S
C2820 C2828 1.574 . S
C2820 C2836 1.368 . S
H2821 C2829 0.950 . S
H2822 C2827 0.950 . S
H2823 C2828 0.949 . S
H2824 C2830 0.950 . S
H2825 C2831 0.950 . S
H2826 C2832 0.949 . S
C2827 H2822 0.950 . S
C2827 C2829 1.327 . S
C2827 C2833 1.429 . S
C2828 C2820 1.574 . S
C2828 H2823 0.949 . S
C2828 C2834 1.368 . S
C2829 C2813 1.349 . S
C2829 H2821 0.950 . S
C2829 C2827 1.327 . S
C2830 C2818 1.349 . S
C2830 H2824 0.950 . S
C2830 C2831 1.327 . S
C2831 H2825 0.950 . S
C2831 C2830 1.327 . S
C2831 C2835 1.429 . S
C2832 C2815 1.574 . S
C2832 H2826 0.949 . S
C2832 C2836 1.368 . S
C2833 C2814 1.429 . S
C2833 C2827 1.429 . S
C2833 C2834 1.523 . S
C2834 C2815 1.368 . S
C2834 C2828 1.368 . S
C2834 C2833 1.523 . S
C2835 C2819 1.429 . S
C2835 C2831 1.429 . S
C2835 C2836 1.523 . S
C2836 C2820 1.368 . S
C2836 C2832 1.368 . S
C2836 C2835 1.523 . S
H2837 C2812 0.950 . S
H2838 C2814 0.950 . S
H2839 C2815 0.949 . S
H2840 C2817 0.950 . S
H2841 C2819 0.950 . S
C2842 C2843 1.349 . S
C2842 C2844 1.327 . S
C2842 H2867 0.950 . S
C2843 C2842 1.349 . S
C2843 C2859 1.349 . S
C2844 C2842 1.327 . S
C2844 C2863 1.429 . S
C2844 H2868 0.950 . S
C2845 C2862 1.574 . S
C2845 C2864 1.368 . S
C2845 H2869 0.949 . S
H2846 C2850 0.949 . S
C2847 C2848 1.349 . S
C2847 C2849 1.327 . S
C2847 H2870 0.950 . S
C2848 C2847 1.349 . S
C2848 C2860 1.349 . S
C2849 C2847 1.327 . S
C2849 C2865 1.429 . S
C2849 H2871 0.950 . S
C2850 H2846 0.949 . S
C2850 C2858 1.574 . S
C2850 C2866 1.368 . S
H2851 C2859 0.950 . S
H2852 C2857 0.950 . S
H2853 C2858 0.949 . S
H2854 C2860 0.950 . S
H2855 C2861 0.950 . S
H2856 C2862 0.949 . S
C2857 H2852 0.950 . S
C2857 C2859 1.327 . S
C2857 C2863 1.429 . S
C2858 C2850 1.574 . S
C2858 H2853 0.949 . S
C2858 C2864 1.368 . S
C2859 C2843 1.349 . S
C2859 H2851 0.950 . S
C2859 C2857 1.327 . S
C2860 C2848 1.349 . S
C2860 H2854 0.950 . S
C2860 C2861 1.327 . S
C2861 H2855 0.950 . S
C2861 C2860 1.327 . S
C2861 C2865 1.429 . S
C2862 C2845 1.574 . S
C2862 H2856 0.949 . S
C2862 C2866 1.368 . S
C2863 C2844 1.429 . S
C2863 C2857 1.429 . S
C2863 C2864 1.523 . S
C2864 C2845 1.368 . S
C2864 C2858 1.368 . S
C2864 C2863 1.523 . S
C2865 C2849 1.429 . S
C2865 C2861 1.429 . S
C2865 C2866 1.523 . S
C2866 C2850 1.368 . S
C2866 C2862 1.368 . S
C2866 C2865 1.523 . S
H2867 C2842 0.950 . S
H2868 C2844 0.950 . S
H2869 C2845 0.949 . S
H2870 C2847 0.950 . S
H2871 C2849 0.950 . S
C2872 C2873 1.349 . S
C2872 C2874 1.327 . S
C2872 H2897 0.950 . S
C2873 C2872 1.349 . S
C2873 C2889 1.349 . S
C2874 C2872 1.327 . S
C2874 C2893 1.429 . S
C2874 H2898 0.950 . S
C2875 C2892 1.574 . S
C2875 C2894 1.368 . S
C2875 H2899 0.949 . S
H2876 C2880 0.949 . S
C2877 C2878 1.349 . S
C2877 C2879 1.327 . S
C2877 H2900 0.950 . S
C2878 C2877 1.349 . S
C2878 C2890 1.349 . S
C2879 C2877 1.327 . S
C2879 C2895 1.429 . S
C2879 H2901 0.950 . S
C2880 H2876 0.949 . S
C2880 C2888 1.574 . S
C2880 C2896 1.368 . S
H2881 C2889 0.950 . S
H2882 C2887 0.950 . S
H2883 C2888 0.949 . S
H2884 C2890 0.950 . S
H2885 C2891 0.950 . S
H2886 C2892 0.949 . S
C2887 H2882 0.950 . S
C2887 C2889 1.327 . S
C2887 C2893 1.429 . S
C2888 C2880 1.574 . S
C2888 H2883 0.949 . S
C2888 C2894 1.368 . S
C2889 C2873 1.349 . S
C2889 H2881 0.950 . S
C2889 C2887 1.327 . S
C2890 C2878 1.349 . S
C2890 H2884 0.950 . S
C2890 C2891 1.327 . S
C2891 H2885 0.950 . S
C2891 C2890 1.327 . S
C2891 C2895 1.429 . S
C2892 C2875 1.574 . S
C2892 H2886 0.949 . S
C2892 C2896 1.368 . S
C2893 C2874 1.429 . S
C2893 C2887 1.429 . S
C2893 C2894 1.523 . S
C2894 C2875 1.368 . S
C2894 C2888 1.368 . S
C2894 C2893 1.523 . S
C2895 C2879 1.429 . S
C2895 C2891 1.429 . S
C2895 C2896 1.523 . S
C2896 C2880 1.368 . S
C2896 C2892 1.368 . S
C2896 C2895 1.523 . S
H2897 C2872 0.950 . S
H2898 C2874 0.950 . S
H2899 C2875 0.949 . S
H2900 C2877 0.950 . S
H2901 C2879 0.950 . S
C2902 C2903 1.349 . S
C2902 C2904 1.327 . S
C2902 H2927 0.950 . S
C2903 C2902 1.349 . S
C2903 C2919 1.349 . S
C2904 C2902 1.327 . S
C2904 C2923 1.429 . S
C2904 H2928 0.950 . S
C2905 C2922 1.574 . S
C2905 C2924 1.368 . S
C2905 H2929 0.949 . S
H2906 C2910 0.949 . S
C2907 C2908 1.349 . S
C2907 C2909 1.327 . S
C2907 H2930 0.950 . S
C2908 C2907 1.349 . S
C2908 C2920 1.349 . S
C2909 C2907 1.327 . S
C2909 C2925 1.429 . S
C2909 H2931 0.950 . S
C2910 H2906 0.949 . S
C2910 C2918 1.574 . S
C2910 C2926 1.368 . S
H2911 C2919 0.950 . S
H2912 C2917 0.950 . S
H2913 C2918 0.949 . S
H2914 C2920 0.950 . S
H2915 C2921 0.950 . S
H2916 C2922 0.949 . S
C2917 H2912 0.950 . S
C2917 C2919 1.327 . S
C2917 C2923 1.429 . S
C2918 C2910 1.574 . S
C2918 H2913 0.949 . S
C2918 C2924 1.368 . S
C2919 C2903 1.349 . S
C2919 H2911 0.950 . S
C2919 C2917 1.327 . S
C2920 C2908 1.349 . S
C2920 H2914 0.950 . S
C2920 C2921 1.327 . S
C2921 H2915 0.950 . S
C2921 C2920 1.327 . S
C2921 C2925 1.429 . S
C2922 C2905 1.574 . S
C2922 H2916 0.949 . S
C2922 C2926 1.368 . S
C2923 C2904 1.429 . S
C2923 C2917 1.429 . S
C2923 C2924 1.523 . S
C2924 C2905 1.368 . S
C2924 C2918 1.368 . S
C2924 C2923 1.523 . S
C2925 C2909 1.429 . S
C2925 C2921 1.429 . S
C2925 C2926 1.523 . S
C2926 C2910 1.368 . S
C2926 C2922 1.368 . S
C2926 C2925 1.523 . S
H2927 C2902 0.950 . S
H2928 C2904 0.950 . S
H2929 C2905 0.949 . S
H2930 C2907 0.950 . S
H2931 C2909 0.950 . S
C2932 C2933 1.349 . S
C2932 C2934 1.327 . S
C2932 H2957 0.950 1_565 S
C2933 C2932 1.349 . S
C2933 C2949 1.349 . S
C2934 C2932 1.327 . S
C2934 C2953 1.429 . S
C2934 H2958 0.950 . S
C2935 C2952 1.574 . S
C2935 C2954 1.368 . S
C2935 H2959 0.949 . S
H2936 C2940 0.949 . S
C2937 C2938 1.349 . S
C2937 C2939 1.327 . S
C2937 H2960 0.950 . S
C2938 C2937 1.349 . S
C2938 C2950 1.349 . S
C2939 C2937 1.327 . S
C2939 C2955 1.429 . S
C2939 H2961 0.950 . S
C2940 H2936 0.949 . S
C2940 C2948 1.574 . S
C2940 C2956 1.368 . S
H2941 C2949 0.950 . S
H2942 C2947 0.950 . S
H2943 C2948 0.949 . S
H2944 C2950 0.950 . S
H2945 C2951 0.950 . S
H2946 C2952 0.949 . S
C2947 H2942 0.950 . S
C2947 C2949 1.327 . S
C2947 C2953 1.429 . S
C2948 C2940 1.574 . S
C2948 H2943 0.949 . S
C2948 C2954 1.368 . S
C2949 C2933 1.349 . S
C2949 H2941 0.950 . S
C2949 C2947 1.327 . S
C2950 C2938 1.349 . S
C2950 H2944 0.950 . S
C2950 C2951 1.327 . S
C2951 H2945 0.950 . S
C2951 C2950 1.327 . S
C2951 C2955 1.429 . S
C2952 C2935 1.574 . S
C2952 H2946 0.949 . S
C2952 C2956 1.368 . S
C2953 C2934 1.429 . S
C2953 C2947 1.429 . S
C2953 C2954 1.523 . S
C2954 C2935 1.368 . S
C2954 C2948 1.368 . S
C2954 C2953 1.523 . S
C2955 C2939 1.429 . S
C2955 C2951 1.429 . S
C2955 C2956 1.523 . S
C2956 C2940 1.368 . S
C2956 C2952 1.368 . S
C2956 C2955 1.523 . S
H2957 C2932 0.950 1_545 S
H2958 C2934 0.950 . S
H2959 C2935 0.949 . S
H2960 C2937 0.950 . S
H2961 C2939 0.950 . S
C2962 C2963 1.349 1_556 S
C2962 C2964 1.327 . S
C2962 H2987 0.950 . S
C2963 C2962 1.349 1_554 S
C2963 C2979 1.349 . S
C2964 C2962 1.327 . S
C2964 C2983 1.429 1_556 S
C2964 H2988 0.950 . S
C2965 C2982 1.574 . S
C2965 C2984 1.368 . S
C2965 H2989 0.949 . S
H2966 C2970 0.906 1_556 S
C2967 C2968 1.349 . S
C2967 C2969 1.327 1_545 S
C2967 H2990 0.951 1_545 S
C2968 C2967 1.349 . S
C2968 C2980 1.349 . S
C2969 C2967 1.327 1_565 S
C2969 C2985 1.429 . S
C2969 H2991 0.950 . S
C2970 H2966 0.906 1_554 S
C2970 C2978 1.578 1_554 S
C2970 C2986 1.415 . S
H2971 C2979 0.950 . S
H2972 C2977 0.950 . S
H2973 C2978 0.949 . S
H2974 C2980 0.925 1_556 S
H2975 C2981 0.950 1_556 S
H2976 C2982 0.949 . S
C2977 H2972 0.950 . S
C2977 C2979 1.327 . S
C2977 C2983 1.429 . S
C2978 C2970 1.578 1_556 S
C2978 H2973 0.949 . S
C2978 C2984 1.368 1_556 S
C2979 C2963 1.349 . S
C2979 H2971 0.950 . S
C2979 C2977 1.327 . S
C2980 C2968 1.349 . S
C2980 H2974 0.925 1_554 S
C2980 C2981 1.327 . S
C2981 H2975 0.950 1_554 S
C2981 C2980 1.327 . S
C2981 C2985 1.429 1_545 S
C2982 C2965 1.574 . S
C2982 H2976 0.949 . S
C2982 C2986 1.368 . S
C2983 C2964 1.429 1_554 S
C2983 C2977 1.429 . S
C2983 C2984 1.523 . S
C2984 C2965 1.368 . S
C2984 C2978 1.368 1_554 S
C2984 C2983 1.523 . S
C2985 C2969 1.429 . S
C2985 C2981 1.429 1_565 S
C2985 C2986 1.523 . S
C2986 C2970 1.415 . S
C2986 C2982 1.368 . S
C2986 C2985 1.523 . S
H2987 C2962 0.950 . S
H2988 C2964 0.950 . S
H2989 C2965 0.949 . S
H2990 C2967 0.951 1_565 S
H2991 C2969 0.950 . S
C2992 C2993 1.349 . S
C2992 C2994 1.327 . S
C2992 H3017 0.950 . S
C2993 C2992 1.349 . S
C2993 C3009 1.349 . S
C2994 C2992 1.327 . S
C2994 C3013 1.429 . S
C2994 H3018 0.950 . S
C2995 C3012 1.574 . S
C2995 C3014 1.368 . S
C2995 H3019 0.949 . S
H2996 C3000 0.949 . S
C2997 C2998 1.349 . S
C2997 C2999 1.327 . S
C2997 H3020 0.950 . S
C2998 C2997 1.349 . S
C2998 C3010 1.349 . S
C2999 C2997 1.327 . S
C2999 C3015 1.429 . S
C2999 H3021 0.950 . S
C3000 H2996 0.949 . S
C3000 C3008 1.574 . S
C3000 C3016 1.368 . S
H3001 C3009 0.950 . S
H3002 C3007 0.950 . S
H3003 C3008 0.949 . S
H3004 C3010 0.950 . S
H3005 C3011 0.950 . S
H3006 C3012 0.949 . S
C3007 H3002 0.950 . S
C3007 C3009 1.327 . S
C3007 C3013 1.429 . S
C3008 C3000 1.574 . S
C3008 H3003 0.949 . S
C3008 C3014 1.368 . S
C3009 C2993 1.349 . S
C3009 H3001 0.950 . S
C3009 C3007 1.327 . S
C3010 C2998 1.349 . S
C3010 H3004 0.950 . S
C3010 C3011 1.327 . S
C3011 H3005 0.950 . S
C3011 C3010 1.327 . S
C3011 C3015 1.429 . S
C3012 C2995 1.574 . S
C3012 H3006 0.949 . S
C3012 C3016 1.368 . S
C3013 C2994 1.429 . S
C3013 C3007 1.429 . S
C3013 C3014 1.523 . S
C3014 C2995 1.368 . S
C3014 C3008 1.368 . S
C3014 C3013 1.523 . S
C3015 C2999 1.429 . S
C3015 C3011 1.429 . S
C3015 C3016 1.523 . S
C3016 C3000 1.368 . S
C3016 C3012 1.368 . S
C3016 C3015 1.523 . S
H3017 C2992 0.950 . S
H3018 C2994 0.950 . S
H3019 C2995 0.949 . S
H3020 C2997 0.950 . S
H3021 C2999 0.950 . S
C3022 C3023 1.349 . S
C3022 C3024 1.327 . S
C3022 H3047 0.950 1_554 S
C3023 C3022 1.349 . S
C3023 C3039 1.349 . S
C3024 C3022 1.327 . S
C3024 C3043 1.429 . S
C3024 H3048 0.950 1_554 S
C3025 C3042 1.574 . S
C3025 C3044 1.368 . S
C3025 H3049 0.949 . S
H3026 C3030 0.949 . S
C3027 C3028 1.349 . S
C3027 C3029 1.327 . S
C3027 H3050 0.950 . S
C3028 C3027 1.349 . S
C3028 C3040 1.349 . S
C3029 C3027 1.327 . S
C3029 C3045 1.429 . S
C3029 H3051 0.950 . S
C3030 H3026 0.949 . S
C3030 C3038 1.574 . S
C3030 C3046 1.368 . S
H3031 C3039 0.950 . S
H3032 C3037 0.950 . S
H3033 C3038 0.946 1_556 S
H3034 C3040 0.950 . S
H3035 C3041 0.950 . S
H3036 C3042 0.949 . S
C3037 H3032 0.950 . S
C3037 C3039 1.327 . S
C3037 C3043 1.429 . S
C3038 C3030 1.574 . S
C3038 H3033 0.946 1_554 S
C3038 C3044 1.368 . S
C3039 C3023 1.349 . S
C3039 H3031 0.950 . S
C3039 C3037 1.327 . S
C3040 C3028 1.349 . S
C3040 H3034 0.950 . S
C3040 C3041 1.327 . S
C3041 H3035 0.950 . S
C3041 C3040 1.327 . S
C3041 C3045 1.429 . S
C3042 C3025 1.574 . S
C3042 H3036 0.949 . S
C3042 C3046 1.368 . S
C3043 C3024 1.429 . S
C3043 C3037 1.429 . S
C3043 C3044 1.523 . S
C3044 C3025 1.368 . S
C3044 C3038 1.368 . S
C3044 C3043 1.523 . S
C3045 C3029 1.429 . S
C3045 C3041 1.429 . S
C3045 C3046 1.523 . S
C3046 C3030 1.368 . S
C3046 C3042 1.368 . S
C3046 C3045 1.523 . S
H3047 C3022 0.950 1_556 S
H3048 C3024 0.950 1_556 S
H3049 C3025 0.949 . S
H3050 C3027 0.950 . S
H3051 C3029 0.950 . S
C3052 C3053 1.349 . S
C3052 C3054 1.327 . S
C3052 H3077 0.950 . S
C3053 C3052 1.349 . S
C3053 C3069 1.349 . S
C3054 C3052 1.327 . S
C3054 C3073 1.429 . S
C3054 H3078 0.950 . S
C3055 C3072 1.574 . S
C3055 C3074 1.368 . S
C3055 H3079 0.949 . S
H3056 C3060 0.949 . S
C3057 C3058 1.349 . S
C3057 C3059 1.327 . S
C3057 H3080 0.950 . S
C3058 C3057 1.349 . S
C3058 C3070 1.349 . S
C3059 C3057 1.327 . S
C3059 C3075 1.429 . S
C3059 H3081 0.950 . S
C3060 H3056 0.949 . S
C3060 C3068 1.574 . S
C3060 C3076 1.368 . S
H3061 C3069 0.950 . S
H3062 C3067 0.950 . S
H3063 C3068 0.949 . S
H3064 C3070 0.950 . S
H3065 C3071 0.950 . S
H3066 C3072 0.949 . S
C3067 H3062 0.950 . S
C3067 C3069 1.327 . S
C3067 C3073 1.429 . S
C3068 C3060 1.574 . S
C3068 H3063 0.949 . S
C3068 C3074 1.368 . S
C3069 C3053 1.349 . S
C3069 H3061 0.950 . S
C3069 C3067 1.327 . S
C3070 C3058 1.349 . S
C3070 H3064 0.950 . S
C3070 C3071 1.327 . S
C3071 H3065 0.950 . S
C3071 C3070 1.327 . S
C3071 C3075 1.429 . S
C3072 C3055 1.574 . S
C3072 H3066 0.949 . S
C3072 C3076 1.368 . S
C3073 C3054 1.429 . S
C3073 C3067 1.429 . S
C3073 C3074 1.523 . S
C3074 C3055 1.368 . S
C3074 C3068 1.368 . S
C3074 C3073 1.523 . S
C3075 C3059 1.429 . S
C3075 C3071 1.429 . S
C3075 C3076 1.523 . S
C3076 C3060 1.368 . S
C3076 C3072 1.368 . S
C3076 C3075 1.523 . S
H3077 C3052 0.950 . S
H3078 C3054 0.950 . S
H3079 C3055 0.949 . S
H3080 C3057 0.950 . S
H3081 C3059 0.950 . S
C3082 C3083 1.349 . S
C3082 C3084 1.327 . S
C3082 H3107 0.950 . S
C3083 C3082 1.349 . S
C3083 C3099 1.349 . S
C3084 C3082 1.327 . S
C3084 C3103 1.429 . S
C3084 H3108 0.950 . S
C3085 C3102 1.574 . S
C3085 C3104 1.368 . S
C3085 H3109 0.949 . S
H3086 C3090 0.949 . S
C3087 C3088 1.349 . S
C3087 C3089 1.327 . S
C3087 H3110 0.950 . S
C3088 C3087 1.349 . S
C3088 C3100 1.349 . S
C3089 C3087 1.327 . S
C3089 C3105 1.429 . S
C3089 H3111 0.950 . S
C3090 H3086 0.949 . S
C3090 C3098 1.574 . S
C3090 C3106 1.368 . S
H3091 C3099 0.950 . S
H3092 C3097 0.950 . S
H3093 C3098 0.949 . S
H3094 C3100 0.950 . S
H3095 C3101 0.950 . S
H3096 C3102 0.949 . S
C3097 H3092 0.950 . S
C3097 C3099 1.327 . S
C3097 C3103 1.429 . S
C3098 C3090 1.574 . S
C3098 H3093 0.949 . S
C3098 C3104 1.368 . S
C3099 C3083 1.349 . S
C3099 H3091 0.950 . S
C3099 C3097 1.327 . S
C3100 C3088 1.349 . S
C3100 H3094 0.950 . S
C3100 C3101 1.327 . S
C3101 H3095 0.950 . S
C3101 C3100 1.327 . S
C3101 C3105 1.429 . S
C3102 C3085 1.574 . S
C3102 H3096 0.949 . S
C3102 C3106 1.368 . S
C3103 C3084 1.429 . S
C3103 C3097 1.429 . S
C3103 C3104 1.523 . S
C3104 C3085 1.368 . S
C3104 C3098 1.368 . S
C3104 C3103 1.523 . S
C3105 C3089 1.429 . S
C3105 C3101 1.429 . S
C3105 C3106 1.523 . S
C3106 C3090 1.368 . S
C3106 C3102 1.368 . S
C3106 C3105 1.523 . S
H3107 C3082 0.950 . S
H3108 C3084 0.950 . S
H3109 C3085 0.949 . S
H3110 C3087 0.950 . S
H3111 C3089 0.950 . S
C3112 C3113 1.349 . S
C3112 C3114 1.327 . S
C3112 H3137 0.950 . S
C3113 C3112 1.349 . S
C3113 C3129 1.349 . S
C3114 C3112 1.327 . S
C3114 C3133 1.429 . S
C3114 H3138 0.950 . S
C3115 C3132 1.574 . S
C3115 C3134 1.368 . S
C3115 H3139 0.949 . S
H3116 C3120 0.949 . S
C3117 C3118 1.349 . S
C3117 C3119 1.327 . S
C3117 H3140 0.950 . S
C3118 C3117 1.349 . S
C3118 C3130 1.349 . S
C3119 C3117 1.327 . S
C3119 C3135 1.429 . S
C3119 H3141 0.950 . S
C3120 H3116 0.949 . S
C3120 C3128 1.574 . S
C3120 C3136 1.368 . S
H3121 C3129 0.950 . S
H3122 C3127 0.950 . S
H3123 C3128 0.949 . S
H3124 C3130 0.950 . S
H3125 C3131 0.950 . S
H3126 C3132 0.949 . S
C3127 H3122 0.950 . S
C3127 C3129 1.327 . S
C3127 C3133 1.429 . S
C3128 C3120 1.574 . S
C3128 H3123 0.949 . S
C3128 C3134 1.368 . S
C3129 C3113 1.349 . S
C3129 H3121 0.950 . S
C3129 C3127 1.327 . S
C3130 C3118 1.349 . S
C3130 H3124 0.950 . S
C3130 C3131 1.327 . S
C3131 H3125 0.950 . S
C3131 C3130 1.327 . S
C3131 C3135 1.429 . S
C3132 C3115 1.574 . S
C3132 H3126 0.949 . S
C3132 C3136 1.368 . S
C3133 C3114 1.429 . S
C3133 C3127 1.429 . S
C3133 C3134 1.523 . S
C3134 C3115 1.368 . S
C3134 C3128 1.368 . S
C3134 C3133 1.523 . S
C3135 C3119 1.429 . S
C3135 C3131 1.429 . S
C3135 C3136 1.523 . S
C3136 C3120 1.368 . S
C3136 C3132 1.368 . S
C3136 C3135 1.523 . S
H3137 C3112 0.950 . S
H3138 C3114 0.950 . S
H3139 C3115 0.949 . S
H3140 C3117 0.950 . S
H3141 C3119 0.950 . S
C3142 C3143 1.349 . S
C3142 C3144 1.327 . S
C3142 H3167 0.950 . S
C3143 C3142 1.349 . S
C3143 C3159 1.349 . S
C3144 C3142 1.327 . S
C3144 C3163 1.429 . S
C3144 H3168 0.950 . S
C3145 C3162 1.574 . S
C3145 C3164 1.368 . S
C3145 H3169 0.949 . S
H3146 C3150 0.949 . S
C3147 C3148 1.349 . S
C3147 C3149 1.327 . S
C3147 H3170 0.950 . S
C3148 C3147 1.349 . S
C3148 C3160 1.349 . S
C3149 C3147 1.327 . S
C3149 C3165 1.429 . S
C3149 H3171 0.950 . S
C3150 H3146 0.949 . S
C3150 C3158 1.574 . S
C3150 C3166 1.368 . S
H3151 C3159 0.950 . S
H3152 C3157 0.950 . S
H3153 C3158 0.949 . S
H3154 C3160 0.950 . S
H3155 C3161 0.950 . S
H3156 C3162 0.949 . S
C3157 H3152 0.950 . S
C3157 C3159 1.327 . S
C3157 C3163 1.429 . S
C3158 C3150 1.574 . S
C3158 H3153 0.949 . S
C3158 C3164 1.368 . S
C3159 C3143 1.349 . S
C3159 H3151 0.950 . S
C3159 C3157 1.327 . S
C3160 C3148 1.349 . S
C3160 H3154 0.950 . S
C3160 C3161 1.327 . S
C3161 H3155 0.950 . S
C3161 C3160 1.327 . S
C3161 C3165 1.429 . S
C3162 C3145 1.574 . S
C3162 H3156 0.949 . S
C3162 C3166 1.368 . S
C3163 C3144 1.429 . S
C3163 C3157 1.429 . S
C3163 C3164 1.523 . S
C3164 C3145 1.368 . S
C3164 C3158 1.368 . S
C3164 C3163 1.523 . S
C3165 C3149 1.429 . S
C3165 C3161 1.429 . S
C3165 C3166 1.523 . S
C3166 C3150 1.368 . S
C3166 C3162 1.368 . S
C3166 C3165 1.523 . S
H3167 C3142 0.950 . S
H3168 C3144 0.950 . S
H3169 C3145 0.949 . S
H3170 C3147 0.950 . S
H3171 C3149 0.950 . S
C3172 C3173 1.349 . S
C3172 C3174 1.327 . S
C3172 H3197 0.950 . S
C3173 C3172 1.349 . S
C3173 C3189 1.349 . S
C3174 C3172 1.327 . S
C3174 C3193 1.429 . S
C3174 H3198 0.950 . S
C3175 C3192 1.574 . S
C3175 C3194 1.368 . S
C3175 H3199 0.949 . S
H3176 C3180 0.949 . S
C3177 C3178 1.349 . S
C3177 C3179 1.327 . S
C3177 H3200 0.950 . S
C3178 C3177 1.349 . S
C3178 C3190 1.349 . S
C3179 C3177 1.327 . S
C3179 C3195 1.429 . S
C3179 H3201 0.950 . S
C3180 H3176 0.949 . S
C3180 C3188 1.574 . S
C3180 C3196 1.368 . S
H3181 C3189 0.950 . S
H3182 C3187 0.950 . S
H3183 C3188 0.949 . S
H3184 C3190 0.950 . S
H3185 C3191 0.950 . S
H3186 C3192 0.949 . S
C3187 H3182 0.950 . S
C3187 C3189 1.327 . S
C3187 C3193 1.429 . S
C3188 C3180 1.574 . S
C3188 H3183 0.949 . S
C3188 C3194 1.368 . S
C3189 C3173 1.349 . S
C3189 H3181 0.950 . S
C3189 C3187 1.327 . S
C3190 C3178 1.349 . S
C3190 H3184 0.950 . S
C3190 C3191 1.327 . S
C3191 H3185 0.950 . S
C3191 C3190 1.327 . S
C3191 C3195 1.429 . S
C3192 C3175 1.574 . S
C3192 H3186 0.949 . S
C3192 C3196 1.368 . S
C3193 C3174 1.429 . S
C3193 C3187 1.429 . S
C3193 C3194 1.523 . S
C3194 C3175 1.368 . S
C3194 C3188 1.368 . S
C3194 C3193 1.523 . S
C3195 C3179 1.429 . S
C3195 C3191 1.429 . S
C3195 C3196 1.523 . S
C3196 C3180 1.368 . S
C3196 C3192 1.368 . S
C3196 C3195 1.523 . S
H3197 C3172 0.950 . S
H3198 C3174 0.950 . S
H3199 C3175 0.949 . S
H3200 C3177 0.950 . S
H3201 C3179 0.950 . S
C3202 C3203 1.349 . S
C3202 C3204 1.327 . S
C3202 H3227 0.950 . S
C3203 C3202 1.349 . S
C3203 C3219 1.349 . S
C3204 C3202 1.327 . S
C3204 C3223 1.429 . S
C3204 H3228 0.950 . S
C3205 C3222 1.574 . S
C3205 C3224 1.368 . S
C3205 H3229 0.949 . S
H3206 C3210 0.949 . S
C3207 C3208 1.349 . S
C3207 C3209 1.327 . S
C3207 H3230 0.950 . S
C3208 C3207 1.349 . S
C3208 C3220 1.349 . S
C3209 C3207 1.327 . S
C3209 C3225 1.429 . S
C3209 H3231 0.950 . S
C3210 H3206 0.949 . S
C3210 C3218 1.574 . S
C3210 C3226 1.368 . S
H3211 C3219 0.950 . S
H3212 C3217 0.950 . S
H3213 C3218 0.949 . S
H3214 C3220 0.950 . S
H3215 C3221 0.950 . S
H3216 C3222 0.949 . S
C3217 H3212 0.950 . S
C3217 C3219 1.327 . S
C3217 C3223 1.429 . S
C3218 C3210 1.574 . S
C3218 H3213 0.949 . S
C3218 C3224 1.368 . S
C3219 C3203 1.349 . S
C3219 H3211 0.950 . S
C3219 C3217 1.327 . S
C3220 C3208 1.349 . S
C3220 H3214 0.950 . S
C3220 C3221 1.327 . S
C3221 H3215 0.950 . S
C3221 C3220 1.327 . S
C3221 C3225 1.429 . S
C3222 C3205 1.574 . S
C3222 H3216 0.949 . S
C3222 C3226 1.368 . S
C3223 C3204 1.429 . S
C3223 C3217 1.429 . S
C3223 C3224 1.523 . S
C3224 C3205 1.368 . S
C3224 C3218 1.368 . S
C3224 C3223 1.523 . S
C3225 C3209 1.429 . S
C3225 C3221 1.429 . S
C3225 C3226 1.523 . S
C3226 C3210 1.368 . S
C3226 C3222 1.368 . S
C3226 C3225 1.523 . S
H3227 C3202 0.950 . S
H3228 C3204 0.950 . S
H3229 C3205 0.949 . S
H3230 C3207 0.950 . S
H3231 C3209 0.950 . S
C3232 C3233 1.349 . S
C3232 C3234 1.327 . S
C3232 H3257 0.950 . S
C3233 C3232 1.349 . S
C3233 C3249 1.349 . S
C3234 C3232 1.327 . S
C3234 C3253 1.429 . S
C3234 H3258 0.950 . S
C3235 C3252 1.574 . S
C3235 C3254 1.368 . S
C3235 H3259 0.949 . S
H3236 C3240 0.949 . S
C3237 C3238 1.349 . S
C3237 C3239 1.327 . S
C3237 H3260 0.950 . S
C3238 C3237 1.349 . S
C3238 C3250 1.349 . S
C3239 C3237 1.327 . S
C3239 C3255 1.429 . S
C3239 H3261 0.950 . S
C3240 H3236 0.949 . S
C3240 C3248 1.574 . S
C3240 C3256 1.368 . S
H3241 C3249 0.950 . S
H3242 C3247 0.950 . S
H3243 C3248 0.949 . S
H3244 C3250 0.950 . S
H3245 C3251 0.950 . S
H3246 C3252 0.949 . S
C3247 H3242 0.950 . S
C3247 C3249 1.327 . S
C3247 C3253 1.429 . S
C3248 C3240 1.574 . S
C3248 H3243 0.949 . S
C3248 C3254 1.368 . S
C3249 C3233 1.349 . S
C3249 H3241 0.950 . S
C3249 C3247 1.327 . S
C3250 C3238 1.349 . S
C3250 H3244 0.950 . S
C3250 C3251 1.327 . S
C3251 H3245 0.950 . S
C3251 C3250 1.327 . S
C3251 C3255 1.429 . S
C3252 C3235 1.574 . S
C3252 H3246 0.949 . S
C3252 C3256 1.368 . S
C3253 C3234 1.429 . S
C3253 C3247 1.429 . S
C3253 C3254 1.523 . S
C3254 C3235 1.368 . S
C3254 C3248 1.368 . S
C3254 C3253 1.523 . S
C3255 C3239 1.429 . S
C3255 C3251 1.429 . S
C3255 C3256 1.523 . S
C3256 C3240 1.368 . S
C3256 C3252 1.368 . S
C3256 C3255 1.523 . S
H3257 C3232 0.950 . S
H3258 C3234 0.950 . S
H3259 C3235 0.949 . S
H3260 C3237 0.950 . S
H3261 C3239 0.950 . S
C3262 C3263 1.349 . S
C3262 C3264 1.327 . S
C3262 H3287 0.950 . S
C3263 C3262 1.349 . S
C3263 C3279 1.349 . S
C3264 C3262 1.327 . S
C3264 C3283 1.429 . S
C3264 H3288 0.950 . S
C3265 C3282 1.574 . S
C3265 C3284 1.368 . S
C3265 H3289 0.949 . S
H3266 C3270 0.949 . S
C3267 C3268 1.349 . S
C3267 C3269 1.327 . S
C3267 H3290 0.950 . S
C3268 C3267 1.349 . S
C3268 C3280 1.349 . S
C3269 C3267 1.327 . S
C3269 C3285 1.429 . S
C3269 H3291 0.950 . S
C3270 H3266 0.949 . S
C3270 C3278 1.574 . S
C3270 C3286 1.368 . S
H3271 C3279 0.950 . S
H3272 C3277 0.950 . S
H3273 C3278 0.949 . S
H3274 C3280 0.950 . S
H3275 C3281 0.950 . S
H3276 C3282 0.949 . S
C3277 H3272 0.950 . S
C3277 C3279 1.327 . S
C3277 C3283 1.429 . S
C3278 C3270 1.574 . S
C3278 H3273 0.949 . S
C3278 C3284 1.368 . S
C3279 C3263 1.349 . S
C3279 H3271 0.950 . S
C3279 C3277 1.327 . S
C3280 C3268 1.349 . S
C3280 H3274 0.950 . S
C3280 C3281 1.327 . S
C3281 H3275 0.950 . S
C3281 C3280 1.327 . S
C3281 C3285 1.429 . S
C3282 C3265 1.574 . S
C3282 H3276 0.949 . S
C3282 C3286 1.368 . S
C3283 C3264 1.429 . S
C3283 C3277 1.429 . S
C3283 C3284 1.523 . S
C3284 C3265 1.368 . S
C3284 C3278 1.368 . S
C3284 C3283 1.523 . S
C3285 C3269 1.429 . S
C3285 C3281 1.429 . S
C3285 C3286 1.523 . S
C3286 C3270 1.368 . S
C3286 C3282 1.368 . S
C3286 C3285 1.523 . S
H3287 C3262 0.950 . S
H3288 C3264 0.950 . S
H3289 C3265 0.949 . S
H3290 C3267 0.950 . S
H3291 C3269 0.950 . S
C3292 C3293 1.349 . S
C3292 C3294 1.327 . S
C3292 H3317 0.950 . S
C3293 C3292 1.349 . S
C3293 C3309 1.349 . S
C3294 C3292 1.327 . S
C3294 C3313 1.429 . S
C3294 H3318 0.950 . S
C3295 C3312 1.574 . S
C3295 C3314 1.368 . S
C3295 H3319 0.949 . S
H3296 C3300 0.949 . S
C3297 C3298 1.349 . S
C3297 C3299 1.327 . S
C3297 H3320 0.950 . S
C3298 C3297 1.349 . S
C3298 C3310 1.349 . S
C3299 C3297 1.327 . S
C3299 C3315 1.429 . S
C3299 H3321 0.950 . S
C3300 H3296 0.949 . S
C3300 C3308 1.574 . S
C3300 C3316 1.368 . S
H3301 C3309 0.950 . S
H3302 C3307 0.950 . S
H3303 C3308 0.949 . S
H3304 C3310 0.950 . S
H3305 C3311 0.950 . S
H3306 C3312 0.949 . S
C3307 H3302 0.950 . S
C3307 C3309 1.327 . S
C3307 C3313 1.429 . S
C3308 C3300 1.574 . S
C3308 H3303 0.949 . S
C3308 C3314 1.368 . S
C3309 C3293 1.349 . S
C3309 H3301 0.950 . S
C3309 C3307 1.327 . S
C3310 C3298 1.349 . S
C3310 H3304 0.950 . S
C3310 C3311 1.327 . S
C3311 H3305 0.950 . S
C3311 C3310 1.327 . S
C3311 C3315 1.429 . S
C3312 C3295 1.574 . S
C3312 H3306 0.949 . S
C3312 C3316 1.368 . S
C3313 C3294 1.429 . S
C3313 C3307 1.429 . S
C3313 C3314 1.523 . S
C3314 C3295 1.368 . S
C3314 C3308 1.368 . S
C3314 C3313 1.523 . S
C3315 C3299 1.429 . S
C3315 C3311 1.429 . S
C3315 C3316 1.523 . S
C3316 C3300 1.368 . S
C3316 C3312 1.368 . S
C3316 C3315 1.523 . S
H3317 C3292 0.950 . S
H3318 C3294 0.950 . S
H3319 C3295 0.949 . S
H3320 C3297 0.950 . S
H3321 C3299 0.950 . S
C3322 C3323 1.349 . S
C3322 C3324 1.327 . S
C3322 H3347 0.950 . S
C3323 C3322 1.349 . S
C3323 C3339 1.349 . S
C3324 C3322 1.327 . S
C3324 C3343 1.429 . S
C3324 H3348 0.950 . S
C3325 C3342 1.574 . S
C3325 C3344 1.368 . S
C3325 H3349 0.949 . S
H3326 C3330 0.949 . S
C3327 C3328 1.349 . S
C3327 C3329 1.327 . S
C3327 H3350 0.950 . S
C3328 C3327 1.349 . S
C3328 C3340 1.349 . S
C3329 C3327 1.327 . S
C3329 C3345 1.429 . S
C3329 H3351 0.950 . S
C3330 H3326 0.949 . S
C3330 C3338 1.574 . S
C3330 C3346 1.368 . S
H3331 C3339 0.950 . S
H3332 C3337 0.950 . S
H3333 C3338 0.949 . S
H3334 C3340 0.950 . S
H3335 C3341 0.950 . S
H3336 C3342 0.949 . S
C3337 H3332 0.950 . S
C3337 C3339 1.327 . S
C3337 C3343 1.429 . S
C3338 C3330 1.574 . S
C3338 H3333 0.949 . S
C3338 C3344 1.368 . S
C3339 C3323 1.349 . S
C3339 H3331 0.950 . S
C3339 C3337 1.327 . S
C3340 C3328 1.349 . S
C3340 H3334 0.950 . S
C3340 C3341 1.327 . S
C3341 H3335 0.950 . S
C3341 C3340 1.327 . S
C3341 C3345 1.429 . S
C3342 C3325 1.574 . S
C3342 H3336 0.949 . S
C3342 C3346 1.368 . S
C3343 C3324 1.429 . S
C3343 C3337 1.429 . S
C3343 C3344 1.523 . S
C3344 C3325 1.368 . S
C3344 C3338 1.368 . S
C3344 C3343 1.523 . S
C3345 C3329 1.429 . S
C3345 C3341 1.429 . S
C3345 C3346 1.523 . S
C3346 C3330 1.368 . S
C3346 C3342 1.368 . S
C3346 C3345 1.523 . S
H3347 C3322 0.950 . S
H3348 C3324 0.950 . S
H3349 C3325 0.949 . S
H3350 C3327 0.950 . S
H3351 C3329 0.950 . S
C3352 C3353 1.349 . S
C3352 C3354 1.327 . S
C3352 H3377 0.950 . S
C3353 C3352 1.349 . S
C3353 C3369 1.349 . S
C3354 C3352 1.327 . S
C3354 C3373 1.429 . S
C3354 H3378 0.950 . S
C3355 C3372 1.574 . S
C3355 C3374 1.368 . S
C3355 H3379 0.949 . S
H3356 C3360 0.949 . S
C3357 C3358 1.349 . S
C3357 C3359 1.327 . S
C3357 H3380 0.950 . S
C3358 C3357 1.349 . S
C3358 C3370 1.349 . S
C3359 C3357 1.327 . S
C3359 C3375 1.429 . S
C3359 H3381 0.950 . S
C3360 H3356 0.949 . S
C3360 C3368 1.574 . S
C3360 C3376 1.368 . S
H3361 C3369 0.950 . S
H3362 C3367 0.950 . S
H3363 C3368 0.949 . S
H3364 C3370 0.950 . S
H3365 C3371 0.950 . S
H3366 C3372 0.949 . S
C3367 H3362 0.950 . S
C3367 C3369 1.327 . S
C3367 C3373 1.429 . S
C3368 C3360 1.574 . S
C3368 H3363 0.949 . S
C3368 C3374 1.368 . S
C3369 C3353 1.349 . S
C3369 H3361 0.950 . S
C3369 C3367 1.327 . S
C3370 C3358 1.349 . S
C3370 H3364 0.950 . S
C3370 C3371 1.327 . S
C3371 H3365 0.950 . S
C3371 C3370 1.327 . S
C3371 C3375 1.429 . S
C3372 C3355 1.574 . S
C3372 H3366 0.949 . S
C3372 C3376 1.368 . S
C3373 C3354 1.429 . S
C3373 C3367 1.429 . S
C3373 C3374 1.523 . S
C3374 C3355 1.368 . S
C3374 C3368 1.368 . S
C3374 C3373 1.523 . S
C3375 C3359 1.429 . S
C3375 C3371 1.429 . S
C3375 C3376 1.523 . S
C3376 C3360 1.368 . S
C3376 C3372 1.368 . S
C3376 C3375 1.523 . S
H3377 C3352 0.950 . S
H3378 C3354 0.950 . S
H3379 C3355 0.949 . S
H3380 C3357 0.950 . S
H3381 C3359 0.950 . S
C3382 C3383 1.349 . S
C3382 C3384 1.327 . S
C3382 H3407 0.950 . S
C3383 C3382 1.349 . S
C3383 C3399 1.349 . S
C3384 C3382 1.327 . S
C3384 C3403 1.429 . S
C3384 H3408 0.950 . S
C3385 C3402 1.574 . S
C3385 C3404 1.368 . S
C3385 H3409 0.949 . S
H3386 C3390 0.949 . S
C3387 C3388 1.349 . S
C3387 C3389 1.327 . S
C3387 H3410 0.950 . S
C3388 C3387 1.349 . S
C3388 C3400 1.349 . S
C3389 C3387 1.327 . S
C3389 C3405 1.429 . S
C3389 H3411 0.950 . S
C3390 H3386 0.949 . S
C3390 C3398 1.574 . S
C3390 C3406 1.368 . S
H3391 C3399 0.950 . S
H3392 C3397 0.950 . S
H3393 C3398 0.949 . S
H3394 C3400 0.950 . S
H3395 C3401 0.950 . S
H3396 C3402 0.949 . S
C3397 H3392 0.950 . S
C3397 C3399 1.327 . S
C3397 C3403 1.429 . S
C3398 C3390 1.574 . S
C3398 H3393 0.949 . S
C3398 C3404 1.368 . S
C3399 C3383 1.349 . S
C3399 H3391 0.950 . S
C3399 C3397 1.327 . S
C3400 C3388 1.349 . S
C3400 H3394 0.950 . S
C3400 C3401 1.327 . S
C3401 H3395 0.950 . S
C3401 C3400 1.327 . S
C3401 C3405 1.429 . S
C3402 C3385 1.574 . S
C3402 H3396 0.949 . S
C3402 C3406 1.368 . S
C3403 C3384 1.429 . S
C3403 C3397 1.429 . S
C3403 C3404 1.523 . S
C3404 C3385 1.368 . S
C3404 C3398 1.368 . S
C3404 C3403 1.523 . S
C3405 C3389 1.429 . S
C3405 C3401 1.429 . S
C3405 C3406 1.523 . S
C3406 C3390 1.368 . S
C3406 C3402 1.368 . S
C3406 C3405 1.523 . S
H3407 C3382 0.950 . S
H3408 C3384 0.950 . S
H3409 C3385 0.949 . S
H3410 C3387 0.950 . S
H3411 C3389 0.950 . S
C3412 C3413 1.349 . S
C3412 C3414 1.327 . S
C3412 H3437 0.950 . S
C3413 C3412 1.349 . S
C3413 C3429 1.349 . S
C3414 C3412 1.327 . S
C3414 C3433 1.429 . S
C3414 H3438 0.950 . S
C3415 C3432 1.574 . S
C3415 C3434 1.368 . S
C3415 H3439 0.949 . S
H3416 C3420 0.949 . S
C3417 C3418 1.349 . S
C3417 C3419 1.327 1_455 S
C3417 H3440 0.950 . S
C3418 C3417 1.349 . S
C3418 C3430 1.349 1_455 S
C3419 C3417 1.327 1_655 S
C3419 C3435 1.429 . S
C3419 H3441 0.950 . S
C3420 H3416 0.949 . S
C3420 C3428 1.574 . S
C3420 C3436 1.368 . S
H3421 C3429 0.950 . S
H3422 C3427 0.950 . S
H3423 C3428 0.949 . S
H3424 C3430 0.950 . S
H3425 C3431 0.950 . S
H3426 C3432 0.949 . S
C3427 H3422 0.950 . S
C3427 C3429 1.327 . S
C3427 C3433 1.429 . S
C3428 C3420 1.574 . S
C3428 H3423 0.949 . S
C3428 C3434 1.368 . S
C3429 C3413 1.349 . S
C3429 H3421 0.950 . S
C3429 C3427 1.327 . S
C3430 C3418 1.349 1_655 S
C3430 H3424 0.950 . S
C3430 C3431 1.327 . S
C3431 H3425 0.950 . S
C3431 C3430 1.327 . S
C3431 C3435 1.429 . S
C3432 C3415 1.574 . S
C3432 H3426 0.949 . S
C3432 C3436 1.368 . S
C3433 C3414 1.429 . S
C3433 C3427 1.429 . S
C3433 C3434 1.523 . S
C3434 C3415 1.368 . S
C3434 C3428 1.368 . S
C3434 C3433 1.523 . S
C3435 C3419 1.429 . S
C3435 C3431 1.429 . S
C3435 C3436 1.523 . S
C3436 C3420 1.368 . S
C3436 C3432 1.368 . S
C3436 C3435 1.523 . S
H3437 C3412 0.950 . S
H3438 C3414 0.950 . S
H3439 C3415 0.949 . S
H3440 C3417 0.950 . S
H3441 C3419 0.950 . S
C3442 C3443 1.349 . S
C3442 C3444 1.327 . S
C3442 H3467 0.950 . S
C3443 C3442 1.349 . S
C3443 C3459 1.349 . S
C3444 C3442 1.327 . S
C3444 C3463 1.429 . S
C3444 H3468 0.950 . S
C3445 C3462 1.574 . S
C3445 C3464 1.368 . S
C3445 H3469 0.949 . S
H3446 C3450 0.949 . S
C3447 C3448 1.349 . S
C3447 C3449 1.327 . S
C3447 H3470 0.950 . S
C3448 C3447 1.349 . S
C3448 C3460 1.349 . S
C3449 C3447 1.327 . S
C3449 C3465 1.429 . S
C3449 H3471 0.950 . S
C3450 H3446 0.949 . S
C3450 C3458 1.574 . S
C3450 C3466 1.368 . S
H3451 C3459 0.950 . S
H3452 C3457 0.950 . S
H3453 C3458 0.949 . S
H3454 C3460 0.950 . S
H3455 C3461 0.950 . S
H3456 C3462 0.949 . S
C3457 H3452 0.950 . S
C3457 C3459 1.327 . S
C3457 C3463 1.429 . S
C3458 C3450 1.574 . S
C3458 H3453 0.949 . S
C3458 C3464 1.368 . S
C3459 C3443 1.349 . S
C3459 H3451 0.950 . S
C3459 C3457 1.327 . S
C3460 C3448 1.349 . S
C3460 H3454 0.950 . S
C3460 C3461 1.327 . S
C3461 H3455 0.950 . S
C3461 C3460 1.327 . S
C3461 C3465 1.429 . S
C3462 C3445 1.574 . S
C3462 H3456 0.949 . S
C3462 C3466 1.368 . S
C3463 C3444 1.429 . S
C3463 C3457 1.429 . S
C3463 C3464 1.523 . S
C3464 C3445 1.368 . S
C3464 C3458 1.368 . S
C3464 C3463 1.523 . S
C3465 C3449 1.429 . S
C3465 C3461 1.429 . S
C3465 C3466 1.523 . S
C3466 C3450 1.368 . S
C3466 C3462 1.368 . S
C3466 C3465 1.523 . S
H3467 C3442 0.950 . S
H3468 C3444 0.950 . S
H3469 C3445 0.949 . S
H3470 C3447 0.950 . S
H3471 C3449 0.950 . S
C3472 C3473 1.349 . S
C3472 C3474 1.327 . S
C3472 H3497 0.950 . S
C3473 C3472 1.349 . S
C3473 C3489 1.349 . S
C3474 C3472 1.327 . S
C3474 C3493 1.429 . S
C3474 H3498 0.950 . S
C3475 C3492 1.574 . S
C3475 C3494 1.368 . S
C3475 H3499 0.949 . S
H3476 C3480 0.949 . S
C3477 C3478 1.349 . S
C3477 C3479 1.327 . S
C3477 H3500 0.950 . S
C3478 C3477 1.349 . S
C3478 C3490 1.349 . S
C3479 C3477 1.327 . S
C3479 C3495 1.429 . S
C3479 H3501 0.950 . S
C3480 H3476 0.949 . S
C3480 C3488 1.574 . S
C3480 C3496 1.368 . S
H3481 C3489 0.950 . S
H3482 C3487 0.950 . S
H3483 C3488 0.949 . S
H3484 C3490 0.950 . S
H3485 C3491 0.950 . S
H3486 C3492 0.949 . S
C3487 H3482 0.950 . S
C3487 C3489 1.327 . S
C3487 C3493 1.429 . S
C3488 C3480 1.574 . S
C3488 H3483 0.949 . S
C3488 C3494 1.368 . S
C3489 C3473 1.349 . S
C3489 H3481 0.950 . S
C3489 C3487 1.327 . S
C3490 C3478 1.349 . S
C3490 H3484 0.950 . S
C3490 C3491 1.327 . S
C3491 H3485 0.950 . S
C3491 C3490 1.327 . S
C3491 C3495 1.429 . S
C3492 C3475 1.574 . S
C3492 H3486 0.949 . S
C3492 C3496 1.368 . S
C3493 C3474 1.429 . S
C3493 C3487 1.429 . S
C3493 C3494 1.523 . S
C3494 C3475 1.368 . S
C3494 C3488 1.368 . S
C3494 C3493 1.523 . S
C3495 C3479 1.429 . S
C3495 C3491 1.429 . S
C3495 C3496 1.523 . S
C3496 C3480 1.368 . S
C3496 C3492 1.368 . S
C3496 C3495 1.523 . S
H3497 C3472 0.950 . S
H3498 C3474 0.950 . S
H3499 C3475 0.949 . S
H3500 C3477 0.950 . S
H3501 C3479 0.950 . S
C3502 C3503 1.349 . S
C3502 C3504 1.327 . S
C3502 H3527 0.950 . S
C3503 C3502 1.349 . S
C3503 C3519 1.349 . S
C3504 C3502 1.327 . S
C3504 C3523 1.429 . S
C3504 H3528 0.950 . S
C3505 C3522 1.574 . S
C3505 C3524 1.368 . S
C3505 H3529 0.949 . S
H3506 C3510 0.949 . S
C3507 C3508 1.349 . S
C3507 C3509 1.327 . S
C3507 H3530 0.950 . S
C3508 C3507 1.349 . S
C3508 C3520 1.349 . S
C3509 C3507 1.327 . S
C3509 C3525 1.429 . S
C3509 H3531 0.950 . S
C3510 H3506 0.949 . S
C3510 C3518 1.574 . S
C3510 C3526 1.368 . S
H3511 C3519 0.950 . S
H3512 C3517 0.950 . S
H3513 C3518 0.949 . S
H3514 C3520 0.950 . S
H3515 C3521 0.950 . S
H3516 C3522 0.949 . S
C3517 H3512 0.950 . S
C3517 C3519 1.327 . S
C3517 C3523 1.429 . S
C3518 C3510 1.574 . S
C3518 H3513 0.949 . S
C3518 C3524 1.368 . S
C3519 C3503 1.349 . S
C3519 H3511 0.950 . S
C3519 C3517 1.327 . S
C3520 C3508 1.349 . S
C3520 H3514 0.950 . S
C3520 C3521 1.327 . S
C3521 H3515 0.950 . S
C3521 C3520 1.327 . S
C3521 C3525 1.429 . S
C3522 C3505 1.574 . S
C3522 H3516 0.949 . S
C3522 C3526 1.368 . S
C3523 C3504 1.429 . S
C3523 C3517 1.429 . S
C3523 C3524 1.523 . S
C3524 C3505 1.368 . S
C3524 C3518 1.368 . S
C3524 C3523 1.523 . S
C3525 C3509 1.429 . S
C3525 C3521 1.429 . S
C3525 C3526 1.523 . S
C3526 C3510 1.368 . S
C3526 C3522 1.368 . S
C3526 C3525 1.523 . S
H3527 C3502 0.950 . S
H3528 C3504 0.950 . S
H3529 C3505 0.949 . S
H3530 C3507 0.950 . S
H3531 C3509 0.950 . S
C3532 C3533 1.349 . S
C3532 C3534 1.327 . S
C3532 H3557 0.950 . S
C3533 C3532 1.349 . S
C3533 C3549 1.349 . S
C3534 C3532 1.327 . S
C3534 C3553 1.429 . S
C3534 H3558 0.950 . S
C3535 C3552 1.574 . S
C3535 C3554 1.368 . S
C3535 H3559 0.949 . S
H3536 C3540 0.949 . S
C3537 C3538 1.349 . S
C3537 C3539 1.327 . S
C3537 H3560 0.950 . S
C3538 C3537 1.349 . S
C3538 C3550 1.349 . S
C3539 C3537 1.327 . S
C3539 C3555 1.429 . S
C3539 H3561 0.950 . S
C3540 H3536 0.949 . S
C3540 C3548 1.574 . S
C3540 C3556 1.368 . S
H3541 C3549 0.950 . S
H3542 C3547 0.950 . S
H3543 C3548 0.949 . S
H3544 C3550 0.950 . S
H3545 C3551 0.950 . S
H3546 C3552 0.949 . S
C3547 H3542 0.950 . S
C3547 C3549 1.327 . S
C3547 C3553 1.429 . S
C3548 C3540 1.574 . S
C3548 H3543 0.949 . S
C3548 C3554 1.368 . S
C3549 C3533 1.349 . S
C3549 H3541 0.950 . S
C3549 C3547 1.327 . S
C3550 C3538 1.349 . S
C3550 H3544 0.950 . S
C3550 C3551 1.327 . S
C3551 H3545 0.950 . S
C3551 C3550 1.327 . S
C3551 C3555 1.429 . S
C3552 C3535 1.574 . S
C3552 H3546 0.949 . S
C3552 C3556 1.368 . S
C3553 C3534 1.429 . S
C3553 C3547 1.429 . S
C3553 C3554 1.523 . S
C3554 C3535 1.368 . S
C3554 C3548 1.368 . S
C3554 C3553 1.523 . S
C3555 C3539 1.429 . S
C3555 C3551 1.429 . S
C3555 C3556 1.523 . S
C3556 C3540 1.368 . S
C3556 C3552 1.368 . S
C3556 C3555 1.523 . S
H3557 C3532 0.950 . S
H3558 C3534 0.950 . S
H3559 C3535 0.949 . S
H3560 C3537 0.950 . S
H3561 C3539 0.950 . S
C3562 C3563 1.349 . S
C3562 C3564 1.327 . S
C3562 H3587 0.950 . S
C3563 C3562 1.349 . S
C3563 C3579 1.349 . S
C3564 C3562 1.327 . S
C3564 C3583 1.429 . S
C3564 H3588 0.950 . S
C3565 C3582 1.574 . S
C3565 C3584 1.368 . S
C3565 H3589 0.949 . S
H3566 C3570 0.949 . S
C3567 C3568 1.349 . S
C3567 C3569 1.327 . S
C3567 H3590 0.950 . S
C3568 C3567 1.349 . S
C3568 C3580 1.349 . S
C3569 C3567 1.327 . S
C3569 C3585 1.429 . S
C3569 H3591 0.950 . S
C3570 H3566 0.949 . S
C3570 C3578 1.574 . S
C3570 C3586 1.368 . S
H3571 C3579 0.950 . S
H3572 C3577 0.950 . S
H3573 C3578 0.949 . S
H3574 C3580 0.950 . S
H3575 C3581 0.950 . S
H3576 C3582 0.949 . S
C3577 H3572 0.950 . S
C3577 C3579 1.327 . S
C3577 C3583 1.429 . S
C3578 C3570 1.574 . S
C3578 H3573 0.949 . S
C3578 C3584 1.368 . S
C3579 C3563 1.349 . S
C3579 H3571 0.950 . S
C3579 C3577 1.327 . S
C3580 C3568 1.349 . S
C3580 H3574 0.950 . S
C3580 C3581 1.327 . S
C3581 H3575 0.950 . S
C3581 C3580 1.327 . S
C3581 C3585 1.429 . S
C3582 C3565 1.574 . S
C3582 H3576 0.949 . S
C3582 C3586 1.368 . S
C3583 C3564 1.429 . S
C3583 C3577 1.429 . S
C3583 C3584 1.523 . S
C3584 C3565 1.368 . S
C3584 C3578 1.368 . S
C3584 C3583 1.523 . S
C3585 C3569 1.429 . S
C3585 C3581 1.429 . S
C3585 C3586 1.523 . S
C3586 C3570 1.368 . S
C3586 C3582 1.368 . S
C3586 C3585 1.523 . S
H3587 C3562 0.950 . S
H3588 C3564 0.950 . S
H3589 C3565 0.949 . S
H3590 C3567 0.950 . S
H3591 C3569 0.950 . S
C3592 C3593 1.349 . S
C3592 C3594 1.327 . S
C3592 H3617 0.950 . S
C3593 C3592 1.349 . S
C3593 C3609 1.349 . S
C3594 C3592 1.327 . S
C3594 C3613 1.429 . S
C3594 H3618 0.950 . S
C3595 C3612 1.574 . S
C3595 C3614 1.368 . S
C3595 H3619 0.949 . S
H3596 C3600 0.949 . S
C3597 C3598 1.349 . S
C3597 C3599 1.327 . S
C3597 H3620 0.950 . S
C3598 C3597 1.349 . S
C3598 C3610 1.349 . S
C3599 C3597 1.327 . S
C3599 C3615 1.429 . S
C3599 H3621 0.950 . S
C3600 H3596 0.949 . S
C3600 C3608 1.574 . S
C3600 C3616 1.368 . S
H3601 C3609 0.950 . S
H3602 C3607 0.950 . S
H3603 C3608 0.949 . S
H3604 C3610 0.950 . S
H3605 C3611 0.950 . S
H3606 C3612 0.949 . S
C3607 H3602 0.950 . S
C3607 C3609 1.327 . S
C3607 C3613 1.429 . S
C3608 C3600 1.574 . S
C3608 H3603 0.949 . S
C3608 C3614 1.368 . S
C3609 C3593 1.349 . S
C3609 H3601 0.950 . S
C3609 C3607 1.327 . S
C3610 C3598 1.349 . S
C3610 H3604 0.950 . S
C3610 C3611 1.327 . S
C3611 H3605 0.950 . S
C3611 C3610 1.327 . S
C3611 C3615 1.429 . S
C3612 C3595 1.574 . S
C3612 H3606 0.949 . S
C3612 C3616 1.368 . S
C3613 C3594 1.429 . S
C3613 C3607 1.429 . S
C3613 C3614 1.523 . S
C3614 C3595 1.368 . S
C3614 C3608 1.368 . S
C3614 C3613 1.523 . S
C3615 C3599 1.429 . S
C3615 C3611 1.429 . S
C3615 C3616 1.523 . S
C3616 C3600 1.368 . S
C3616 C3612 1.368 . S
C3616 C3615 1.523 . S
H3617 C3592 0.950 . S
H3618 C3594 0.950 . S
H3619 C3595 0.949 . S
H3620 C3597 0.950 . S
H3621 C3599 0.950 . S
C3622 C3623 1.349 . S
C3622 C3624 1.327 . S
C3622 H3647 0.950 . S
C3623 C3622 1.349 . S
C3623 C3639 1.349 . S
C3624 C3622 1.327 . S
C3624 C3643 1.429 . S
C3624 H3648 0.950 . S
C3625 C3642 1.574 . S
C3625 C3644 1.368 . S
C3625 H3649 0.949 . S
H3626 C3630 0.949 . S
C3627 C3628 1.349 . S
C3627 C3629 1.329 . S
C3627 H3650 0.950 . S
C3628 C3627 1.349 . S
C3628 C3640 1.349 1_545 S
C3629 C3627 1.329 . S
C3629 C3645 1.425 1_545 S
C3629 H3651 0.952 . S
C3630 H3626 0.949 . S
C3630 C3638 1.574 . S
C3630 C3646 1.368 . S
H3631 C3639 0.950 . S
H3632 C3637 0.950 . S
H3633 C3638 0.949 . S
H3634 C3640 0.950 . S
H3635 C3641 0.950 . S
H3636 C3642 0.949 . S
C3637 H3632 0.950 . S
C3637 C3639 1.327 . S
C3637 C3643 1.429 . S
C3638 C3630 1.574 . S
C3638 H3633 0.949 . S
C3638 C3644 1.368 . S
C3639 C3623 1.349 . S
C3639 H3631 0.950 . S
C3639 C3637 1.327 . S
C3640 C3628 1.349 1_565 S
C3640 H3634 0.950 . S
C3640 C3641 1.327 . S
C3641 H3635 0.950 . S
C3641 C3640 1.327 . S
C3641 C3645 1.429 . S
C3642 C3625 1.574 . S
C3642 H3636 0.949 . S
C3642 C3646 1.368 . S
C3643 C3624 1.429 . S
C3643 C3637 1.429 . S
C3643 C3644 1.523 . S
C3644 C3625 1.368 . S
C3644 C3638 1.368 . S
C3644 C3643 1.523 . S
C3645 C3629 1.425 1_565 S
C3645 C3641 1.429 . S
C3645 C3646 1.523 . S
C3646 C3630 1.368 . S
C3646 C3642 1.368 . S
C3646 C3645 1.523 . S
H3647 C3622 0.950 . S
H3648 C3624 0.950 . S
H3649 C3625 0.949 . S
H3650 C3627 0.950 . S
H3651 C3629 0.952 . S
C3652 C3653 1.349 . S
C3652 C3654 1.327 . S
C3652 H3677 0.950 . S
C3653 C3652 1.349 . S
C3653 C3669 1.349 . S
C3654 C3652 1.327 . S
C3654 C3673 1.429 . S
C3654 H3678 0.950 . S
C3655 C3672 1.574 . S
C3655 C3674 1.368 . S
C3655 H3679 0.949 . S
H3656 C3660 0.949 . S
C3657 C3658 1.349 . S
C3657 C3659 1.327 . S
C3657 H3680 0.950 . S
C3658 C3657 1.349 . S
C3658 C3670 1.349 . S
C3659 C3657 1.327 . S
C3659 C3675 1.429 . S
C3659 H3681 0.950 . S
C3660 H3656 0.949 . S
C3660 C3668 1.574 . S
C3660 C3676 1.368 . S
H3661 C3669 0.950 . S
H3662 C3667 0.950 . S
H3663 C3668 0.949 . S
H3664 C3670 0.950 . S
H3665 C3671 0.950 . S
H3666 C3672 0.949 . S
C3667 H3662 0.950 . S
C3667 C3669 1.327 . S
C3667 C3673 1.429 . S
C3668 C3660 1.574 . S
C3668 H3663 0.949 . S
C3668 C3674 1.368 . S
C3669 C3653 1.349 . S
C3669 H3661 0.950 . S
C3669 C3667 1.327 . S
C3670 C3658 1.349 . S
C3670 H3664 0.950 . S
C3670 C3671 1.327 . S
C3671 H3665 0.950 . S
C3671 C3670 1.327 . S
C3671 C3675 1.429 . S
C3672 C3655 1.574 . S
C3672 H3666 0.949 . S
C3672 C3676 1.368 . S
C3673 C3654 1.429 . S
C3673 C3667 1.429 . S
C3673 C3674 1.523 . S
C3674 C3655 1.368 . S
C3674 C3668 1.368 . S
C3674 C3673 1.523 . S
C3675 C3659 1.429 . S
C3675 C3671 1.429 . S
C3675 C3676 1.523 . S
C3676 C3660 1.368 . S
C3676 C3672 1.368 . S
C3676 C3675 1.523 . S
H3677 C3652 0.950 . S
H3678 C3654 0.950 . S
H3679 C3655 0.949 . S
H3680 C3657 0.950 . S
H3681 C3659 0.950 . S
C3682 C3683 1.349 . S
C3682 C3684 1.327 . S
C3682 H3707 0.950 . S
C3683 C3682 1.349 . S
C3683 C3699 1.349 . S
C3684 C3682 1.327 . S
C3684 C3703 1.429 . S
C3684 H3708 0.950 . S
C3685 C3702 1.574 . S
C3685 C3704 1.368 . S
C3685 H3709 0.949 . S
H3686 C3690 0.949 . S
C3687 C3688 1.349 . S
C3687 C3689 1.327 . S
C3687 H3710 0.950 . S
C3688 C3687 1.349 . S
C3688 C3700 1.349 . S
C3689 C3687 1.327 . S
C3689 C3705 1.429 . S
C3689 H3711 0.950 . S
C3690 H3686 0.949 . S
C3690 C3698 1.574 . S
C3690 C3706 1.368 . S
H3691 C3699 0.950 . S
H3692 C3697 0.950 . S
H3693 C3698 0.949 . S
H3694 C3700 0.950 . S
H3695 C3701 0.950 . S
H3696 C3702 0.949 . S
C3697 H3692 0.950 . S
C3697 C3699 1.327 . S
C3697 C3703 1.429 . S
C3698 C3690 1.574 . S
C3698 H3693 0.949 . S
C3698 C3704 1.368 . S
C3699 C3683 1.349 . S
C3699 H3691 0.950 . S
C3699 C3697 1.327 . S
C3700 C3688 1.349 . S
C3700 H3694 0.950 . S
C3700 C3701 1.327 . S
C3701 H3695 0.950 . S
C3701 C3700 1.327 . S
C3701 C3705 1.429 . S
C3702 C3685 1.574 . S
C3702 H3696 0.949 . S
C3702 C3706 1.368 . S
C3703 C3684 1.429 . S
C3703 C3697 1.429 . S
C3703 C3704 1.523 . S
C3704 C3685 1.368 . S
C3704 C3698 1.368 . S
C3704 C3703 1.523 . S
C3705 C3689 1.429 . S
C3705 C3701 1.429 . S
C3705 C3706 1.523 . S
C3706 C3690 1.368 . S
C3706 C3702 1.368 . S
C3706 C3705 1.523 . S
H3707 C3682 0.950 . S
H3708 C3684 0.950 . S
H3709 C3685 0.949 . S
H3710 C3687 0.950 . S
H3711 C3689 0.950 . S
C3712 C3713 1.349 . S
C3712 C3714 1.327 . S
C3712 H3737 0.950 . S
C3713 C3712 1.349 . S
C3713 C3729 1.349 . S
C3714 C3712 1.327 . S
C3714 C3733 1.429 . S
C3714 H3738 0.950 . S
C3715 C3732 1.574 . S
C3715 C3734 1.368 . S
C3715 H3739 0.949 . S
H3716 C3720 0.949 . S
C3717 C3718 1.349 . S
C3717 C3719 1.327 . S
C3717 H3740 0.950 . S
C3718 C3717 1.349 . S
C3718 C3730 1.349 . S
C3719 C3717 1.327 . S
C3719 C3735 1.429 . S
C3719 H3741 0.950 . S
C3720 H3716 0.949 . S
C3720 C3728 1.574 . S
C3720 C3736 1.368 . S
H3721 C3729 0.950 . S
H3722 C3727 0.950 . S
H3723 C3728 0.949 . S
H3724 C3730 0.950 . S
H3725 C3731 0.950 . S
H3726 C3732 0.949 . S
C3727 H3722 0.950 . S
C3727 C3729 1.327 . S
C3727 C3733 1.429 . S
C3728 C3720 1.574 . S
C3728 H3723 0.949 . S
C3728 C3734 1.368 . S
C3729 C3713 1.349 . S
C3729 H3721 0.950 . S
C3729 C3727 1.327 . S
C3730 C3718 1.349 . S
C3730 H3724 0.950 . S
C3730 C3731 1.327 . S
C3731 H3725 0.950 . S
C3731 C3730 1.327 . S
C3731 C3735 1.429 . S
C3732 C3715 1.574 . S
C3732 H3726 0.949 . S
C3732 C3736 1.368 . S
C3733 C3714 1.429 . S
C3733 C3727 1.429 . S
C3733 C3734 1.523 . S
C3734 C3715 1.368 . S
C3734 C3728 1.368 . S
C3734 C3733 1.523 . S
C3735 C3719 1.429 . S
C3735 C3731 1.429 . S
C3735 C3736 1.523 . S
C3736 C3720 1.368 . S
C3736 C3732 1.368 . S
C3736 C3735 1.523 . S
H3737 C3712 0.950 . S
H3738 C3714 0.950 . S
H3739 C3715 0.949 . S
H3740 C3717 0.950 . S
H3741 C3719 0.950 . S
C3742 C3743 1.349 . S
C3742 C3744 1.327 . S
C3742 H3767 0.950 . S
C3743 C3742 1.349 . S
C3743 C3759 1.349 . S
C3744 C3742 1.327 . S
C3744 C3763 1.429 . S
C3744 H3768 0.950 . S
C3745 C3762 1.574 . S
C3745 C3764 1.368 1_556 S
C3745 H3769 0.949 . S
H3746 C3750 0.949 . S
C3747 C3748 1.349 . S
C3747 C3749 1.327 . S
C3747 H3770 0.950 . S
C3748 C3747 1.349 . S
C3748 C3760 1.349 1_556 S
C3749 C3747 1.327 . S
C3749 C3765 1.408 1_556 S
C3749 H3771 0.950 . S
C3750 H3746 0.949 . S
C3750 C3758 1.574 . S
C3750 C3766 1.368 . S
H3751 C3759 0.950 . S
H3752 C3757 0.950 1_556 S
H3753 C3758 0.949 . S
H3754 C3760 0.950 . S
H3755 C3761 0.950 . S
H3756 C3762 0.949 . S
C3757 H3752 0.950 1_554 S
C3757 C3759 1.327 . S
C3757 C3763 1.429 . S
C3758 C3750 1.574 . S
C3758 H3753 0.949 . S
C3758 C3764 1.368 . S
C3759 C3743 1.349 . S
C3759 H3751 0.950 . S
C3759 C3757 1.327 . S
C3760 C3748 1.349 1_554 S
C3760 H3754 0.950 . S
C3760 C3761 1.327 . S
C3761 H3755 0.950 . S
C3761 C3760 1.327 . S
C3761 C3765 1.443 . S
C3762 C3745 1.574 . S
C3762 H3756 0.949 . S
C3762 C3766 1.368 1_556 S
C3763 C3744 1.429 . S
C3763 C3757 1.429 . S
C3763 C3764 1.523 . S
C3764 C3745 1.368 1_554 S
C3764 C3758 1.368 . S
C3764 C3763 1.523 . S
C3765 C3749 1.408 1_554 S
C3765 C3761 1.443 . S
C3765 C3766 1.529 . S
C3766 C3750 1.368 . S
C3766 C3762 1.368 1_554 S
C3766 C3765 1.529 . S
H3767 C3742 0.950 . S
H3768 C3744 0.950 . S
H3769 C3745 0.949 . S
H3770 C3747 0.950 . S
H3771 C3749 0.950 . S
C3772 C3773 1.349 . S
C3772 C3774 1.327 . S
C3772 H3797 0.950 . S
C3773 C3772 1.349 . S
C3773 C3789 1.349 . S
C3774 C3772 1.327 . S
C3774 C3793 1.429 . S
C3774 H3798 0.950 . S
C3775 C3792 1.574 . S
C3775 C3794 1.368 . S
C3775 H3799 0.949 . S
H3776 C3780 0.949 . S
C3777 C3778 1.349 . S
C3777 C3779 1.327 . S
C3777 H3800 0.950 . S
C3778 C3777 1.349 . S
C3778 C3790 1.349 . S
C3779 C3777 1.327 . S
C3779 C3795 1.429 . S
C3779 H3801 0.950 . S
C3780 H3776 0.949 . S
C3780 C3788 1.574 . S
C3780 C3796 1.368 . S
H3781 C3789 0.950 . S
H3782 C3787 0.950 . S
H3783 C3788 0.949 . S
H3784 C3790 0.950 . S
H3785 C3791 0.950 . S
H3786 C3792 0.949 . S
C3787 H3782 0.950 . S
C3787 C3789 1.327 . S
C3787 C3793 1.429 . S
C3788 C3780 1.574 . S
C3788 H3783 0.949 . S
C3788 C3794 1.368 . S
C3789 C3773 1.349 . S
C3789 H3781 0.950 . S
C3789 C3787 1.327 . S
C3790 C3778 1.349 . S
C3790 H3784 0.950 . S
C3790 C3791 1.327 . S
C3791 H3785 0.950 . S
C3791 C3790 1.327 . S
C3791 C3795 1.429 . S
C3792 C3775 1.574 . S
C3792 H3786 0.949 . S
C3792 C3796 1.368 . S
C3793 C3774 1.429 . S
C3793 C3787 1.429 . S
C3793 C3794 1.523 . S
C3794 C3775 1.368 . S
C3794 C3788 1.368 . S
C3794 C3793 1.523 . S
C3795 C3779 1.429 . S
C3795 C3791 1.429 . S
C3795 C3796 1.523 . S
C3796 C3780 1.368 . S
C3796 C3792 1.368 . S
C3796 C3795 1.523 . S
H3797 C3772 0.950 . S
H3798 C3774 0.950 . S
H3799 C3775 0.949 . S
H3800 C3777 0.950 . S
H3801 C3779 0.950 . S
C3802 C3803 1.349 . S
C3802 C3804 1.327 . S
C3802 H3827 0.950 . S
C3803 C3802 1.349 . S
C3803 C3819 1.349 . S
C3804 C3802 1.327 . S
C3804 C3823 1.429 . S
C3804 H3828 0.950 . S
C3805 C3822 1.574 . S
C3805 C3824 1.368 . S
C3805 H3829 0.949 . S
H3806 C3810 0.949 . S
C3807 C3808 1.349 . S
C3807 C3809 1.327 . S
C3807 H3830 0.950 . S
C3808 C3807 1.349 . S
C3808 C3820 1.349 . S
C3809 C3807 1.327 . S
C3809 C3825 1.429 . S
C3809 H3831 0.950 . S
C3810 H3806 0.949 . S
C3810 C3818 1.574 . S
C3810 C3826 1.368 . S
H3811 C3819 0.950 . S
H3812 C3817 0.950 . S
H3813 C3818 0.949 . S
H3814 C3820 0.950 . S
H3815 C3821 0.950 . S
H3816 C3822 0.949 . S
C3817 H3812 0.950 . S
C3817 C3819 1.327 . S
C3817 C3823 1.429 . S
C3818 C3810 1.574 . S
C3818 H3813 0.949 . S
C3818 C3824 1.368 . S
C3819 C3803 1.349 . S
C3819 H3811 0.950 . S
C3819 C3817 1.327 . S
C3820 C3808 1.349 . S
C3820 H3814 0.950 . S
C3820 C3821 1.327 . S
C3821 H3815 0.950 . S
C3821 C3820 1.327 . S
C3821 C3825 1.429 . S
C3822 C3805 1.574 . S
C3822 H3816 0.949 . S
C3822 C3826 1.368 . S
C3823 C3804 1.429 . S
C3823 C3817 1.429 . S
C3823 C3824 1.523 . S
C3824 C3805 1.368 . S
C3824 C3818 1.368 . S
C3824 C3823 1.523 . S
C3825 C3809 1.429 . S
C3825 C3821 1.429 . S
C3825 C3826 1.523 . S
C3826 C3810 1.368 . S
C3826 C3822 1.368 . S
C3826 C3825 1.523 . S
H3827 C3802 0.950 . S
H3828 C3804 0.950 . S
H3829 C3805 0.949 . S
H3830 C3807 0.950 . S
H3831 C3809 0.950 . S
C953 C101 2.073 . S
C958 C325 2.062 . S
C983 C57 2.033 . S
C988 C376 2.051 . S
C1013 C73 1.453 . S
C1018 C405 1.530 . S
C1048 C449 1.425 . S
C1043 C78 1.427 . S
C1073 C21 1.396 . S
C1078 C489 1.397 . S
C1108 C525 1.514 . S
C1103 C31 1.456 . S
C1138 C575 1.787 . S
C1133 C49 1.776 . S
C1163 C0 2.038 . S
C1168 C605 2.133 . S
C1198 C335 1.798 . S
C1193 C218 1.828 . S
C1223 C229 0.435 . S
C1228 C378 0.442 . S
C1258 C415 1.173 . S
C1253 C257 1.178 . S
C1288 C445 1.302 . S
C1283 C164 1.242 . S
C1313 C216 1.285 . S
C1318 C485 1.344 . S
C1348 C535 0.857 . S
C1343 C231 0.859 . S
C1378 C569 0.693 . S
C1373 C255 0.694 . S
C1408 C615 1.765 . S
C1403 C166 1.795 . S
C1438 C329 0.871 1_565 S
C1433 C143 0.894 1_556 S
C1463 C265 1.684 . S
C1468 C655 1.697 . S
C1498 C689 1.295 . S
C1493 C299 1.292 . S
C1528 C725 0.855 . S
C1523 C291 0.849 . S
C1553 C104 1.128 . S
C1558 C609 1.157 . S
C1583 C117 1.385 . S
C1588 C409 1.390 . S
C1613 C304 1.535 . S
C1618 C775 1.548 . S
C1648 C794 0.206 . S
C1643 C278 0.378 . S
C1678 C336 1.987 . S
C1673 C60 1.990 . S
C1708 C805 1.928 . S
C1703 C96 1.947 . S
C1733 C88 1.400 . S
C1738 C416 1.386 . S
C1763 C65 1.387 . S
C1768 C778 1.360 . S
C1798 C498 1.318 . S
C1793 C10 1.340 . S
C1823 C44 1.349 . S
C1828 C696 1.400 . S
C1858 C554 1.684 1_556 S
C1853 C34 1.630 . S
C1888 C856 2.055 . S
C1883 C13 2.060 . S
C1918 C314 1.704 . S
C1913 C138 1.693 . S
C1948 C809 0.422 . S
C1943 C296 0.351 . S
C1973 C112 1.070 . S
C1978 C394 1.078 . S
C2003 C270 1.191 . S
C2008 C776 1.181 . S
C2033 C140 1.222 . S
C2038 C496 1.210 . S
C2068 C674 0.752 . S
C2063 C294 0.752 . S
C2093 C114 0.619 . S
C2098 C578 0.636 . S
C2123 C268 1.662 . S
C2128 C834 1.676 . S
C2153 C169 0.925 . S
C2158 C338 0.900 . S
C2183 C161 1.603 . S
C2188 C634 1.601 . S
C2213 C234 1.320 . S
C2218 C538 1.280 . S
C2243 C226 0.765 . S
C2248 C736 0.765 . S
C2278 C858 1.130 . S
C2273 C247 1.165 . S
C2303 C195 1.416 . S
C2308 C418 1.365 . S
C2338 C434 1.443 . S
C2333 C239 1.445 . S
C2368 C375 0.270 . S
C2363 C187 0.409 . S
C2393 C75 2.073 . S
C2398 C885 2.063 . S
C2428 C816 2.051 . S
C2423 C83 2.032 . S
C2453 C99 1.454 . S
C2458 C925 1.531 . S
C2483 C52 1.427 1_655 S
C2488 C769 1.425 . S
C2513 C47 1.396 . S
C2518 C649 1.397 . S
C2548 C685 1.514 . S
C2543 C5 1.456 . S
C2578 C735 1.787 . S
C2573 C23 1.776 . S
C2608 C845 2.132 . S
C2603 C26 2.037 . S
C2638 C895 1.798 . S
C2633 C244 1.828 . S
C2663 C177 0.435 . S
C2668 C818 0.442 . S
C2698 C935 1.174 . S
C2693 C192 1.179 . S
C2728 C765 1.302 . S
C2723 C203 1.242 . S
C2758 C645 1.344 . S
C2753 C242 1.285 . S
C2783 C179 0.860 . S
C2788 C695 0.857 . S
C2818 C729 0.693 . S
C2813 C190 0.694 . S
C2843 C205 1.795 . S
C2848 C855 1.765 . S
C2878 C889 0.902 . S
C2873 C286 0.893 . S
C2903 C122 1.683 . S
C2908 C495 1.697 . S
C2938 C529 1.295 . S
C2933 C130 1.268 1_565 S
C2968 C565 0.855 . S
C2963 C148 0.850 . S
C2998 C849 1.156 . S
C2993 C273 1.128 . S
C3023 C260 1.385 . S
C3028 C929 1.390 . S
C3058 C455 1.548 . S
C3053 C135 1.535 . S
C3088 C354 0.206 . S
C3083 C109 0.378 . S
C3113 C86 1.990 . S
C3118 C896 1.987 . S
C3148 C365 1.928 . S
C3143 C70 1.946 . S
C3173 C62 1.400 . S
C3178 C936 1.386 . S
C3203 C91 1.387 . S
C3208 C458 1.359 . S
C3233 C36 1.340 . S
C3238 C658 1.318 . S
C3268 C536 1.400 . S
C3263 C18 1.349 . S
C3293 C8 1.630 . S
C3298 C714 1.684 . S
C3323 C39 2.060 . S
C3328 C616 2.055 . S
C3358 C874 1.704 . S
C3353 C307 1.693 . S
C3383 C153 0.350 . S
C3388 C369 0.415 . S
C3418 C914 1.078 . S
C3413 C281 1.071 . S
C3443 C127 1.191 . S
C3448 C456 1.181 . S
C3473 C309 1.222 . S
C3478 C656 1.210 . S
C3508 C514 0.753 . S
C3503 C151 0.757 . S
C3533 C283 0.619 . S
C3538 C738 0.636 . S
C3568 C594 1.676 . S
C3563 C125 1.662 . S
C3598 C898 0.901 . S
C3593 C221 0.925 . S
C3628 C474 1.601 . S
C3623 C200 1.603 . S
C3653 C208 1.320 . S
C3658 C698 1.279 . S
C3688 C576 0.765 . S
C3683 C174 0.765 . S
C3713 C182 1.166 . S
C3718 C618 1.130 . S
C3743 C156 1.416 . S
C3748 C938 1.365 . S
C3778 C754 1.443 . S
C3773 C213 1.445 . S
C3808 C815 0.270 . S
C3803 C252 0.409 . S
