# Generated by pormake.
# Topology gar, (4,6)-cn, num edge types: 1
# Building blocks:
#     Node 0, Type 0, BuildingBlock: GALJAG_clean_sbu_0, # of connection points: 4
#     Node 1, Type 0, BuildingBlock: GALJAG_clean_sbu_0, # of connection points: 4
#     Node 2, Type 0, BuildingBlock: GALJAG_clean_sbu_0, # of connection points: 4
#     Node 3, Type 0, BuildingBlock: GALJAG_clean_sbu_0, # of connection points: 4
#     Node 4, Type 0, BuildingBlock: GALJAG_clean_sbu_0, # of connection points: 4
#     Node 5, Type 0, BuildingBlock: GALJAG_clean_sbu_0, # of connection points: 4
#     Node 6, Type 0, BuildingBlock: GALJAG_clean_sbu_0, # of connection points: 4
#     Node 7, Type 0, BuildingBlock: GALJAG_clean_sbu_0, # of connection points: 4
#     Node 8, Type 0, BuildingBlock: GALJAG_clean_sbu_0, # of connection points: 4
#     Node 9, Type 0, BuildingBlock: GALJAG_clean_sbu_0, # of connection points: 4
#     Node 10, Type 0, BuildingBlock: GALJAG_clean_sbu_0, # of connection points: 4
#     Node 11, Type 0, BuildingBlock: GALJAG_clean_sbu_0, # of connection points: 4
#     Node 12, Type 0, BuildingBlock: GALJAG_clean_sbu_0, # of connection points: 4
#     Node 13, Type 0, BuildingBlock: GALJAG_clean_sbu_0, # of connection points: 4
#     Node 14, Type 0, BuildingBlock: GALJAG_clean_sbu_0, # of connection points: 4
#     Node 15, Type 0, BuildingBlock: GALJAG_clean_sbu_0, # of connection points: 4
#     Node 16, Type 0, BuildingBlock: GALJAG_clean_sbu_0, # of connection points: 4
#     Node 17, Type 0, BuildingBlock: GALJAG_clean_sbu_0, # of connection points: 4
#     Node 18, Type 0, BuildingBlock: GALJAG_clean_sbu_0, # of connection points: 4
#     Node 19, Type 0, BuildingBlock: GALJAG_clean_sbu_0, # of connection points: 4
#     Node 20, Type 0, BuildingBlock: GALJAG_clean_sbu_0, # of connection points: 4
#     Node 21, Type 0, BuildingBlock: GALJAG_clean_sbu_0, # of connection points: 4
#     Node 22, Type 0, BuildingBlock: GALJAG_clean_sbu_0, # of connection points: 4
#     Node 23, Type 0, BuildingBlock: GALJAG_clean_sbu_0, # of connection points: 4
#     Node 24, Type 1, BuildingBlock: CUKXOW_clean_sbu_0, # of connection points: 6
#     Node 25, Type 1, BuildingBlock: CUKXOW_clean_sbu_0, # of connection points: 6
#     Node 26, Type 1, BuildingBlock: CUKXOW_clean_sbu_0, # of connection points: 6
#     Node 27, Type 1, BuildingBlock: CUKXOW_clean_sbu_0, # of connection points: 6
#     Node 28, Type 1, BuildingBlock: CUKXOW_clean_sbu_0, # of connection points: 6
#     Node 29, Type 1, BuildingBlock: CUKXOW_clean_sbu_0, # of connection points: 6
#     Node 30, Type 1, BuildingBlock: CUKXOW_clean_sbu_0, # of connection points: 6
#     Node 31, Type 1, BuildingBlock: CUKXOW_clean_sbu_0, # of connection points: 6
#     Node 32, Type 1, BuildingBlock: CUKXOW_clean_sbu_0, # of connection points: 6
#     Node 33, Type 1, BuildingBlock: CUKXOW_clean_sbu_0, # of connection points: 6
#     Node 34, Type 1, BuildingBlock: CUKXOW_clean_sbu_0, # of connection points: 6
#     Node 35, Type 1, BuildingBlock: CUKXOW_clean_sbu_0, # of connection points: 6
#     Node 36, Type 1, BuildingBlock: CUKXOW_clean_sbu_0, # of connection points: 6
#     Node 37, Type 1, BuildingBlock: CUKXOW_clean_sbu_0, # of connection points: 6
#     Node 38, Type 1, BuildingBlock: CUKXOW_clean_sbu_0, # of connection points: 6
#     Node 39, Type 1, BuildingBlock: CUKXOW_clean_sbu_0, # of connection points: 6
#     Edge 40, Type (0, 1), BuildingBlock: XIVTED_clean_linker_0, # of connection points: 2
#     Edge 41, Type (0, 1), BuildingBlock: XIVTED_clean_linker_0, # of connection points: 2
#     Edge 42, Type (0, 1), BuildingBlock: XIVTED_clean_linker_0, # of connection points: 2
#     Edge 43, Type (0, 1), BuildingBlock: XIVTED_clean_linker_0, # of connection points: 2
#     Edge 44, Type (0, 1), BuildingBlock: XIVTED_clean_linker_0, # of connection points: 2
#     Edge 45, Type (0, 1), BuildingBlock: XIVTED_clean_linker_0, # of connection points: 2
#     Edge 46, Type (0, 1), BuildingBlock: XIVTED_clean_linker_0, # of connection points: 2
#     Edge 47, Type (0, 1), BuildingBlock: XIVTED_clean_linker_0, # of connection points: 2
#     Edge 48, Type (0, 1), BuildingBlock: XIVTED_clean_linker_0, # of connection points: 2
#     Edge 49, Type (0, 1), BuildingBlock: XIVTED_clean_linker_0, # of connection points: 2
#     Edge 50, Type (0, 1), BuildingBlock: XIVTED_clean_linker_0, # of connection points: 2
#     Edge 51, Type (0, 1), BuildingBlock: XIVTED_clean_linker_0, # of connection points: 2
#     Edge 52, Type (0, 1), BuildingBlock: XIVTED_clean_linker_0, # of connection points: 2
#     Edge 53, Type (0, 1), BuildingBlock: XIVTED_clean_linker_0, # of connection points: 2
#     Edge 54, Type (0, 1), BuildingBlock: XIVTED_clean_linker_0, # of connection points: 2
#     Edge 55, Type (0, 1), BuildingBlock: XIVTED_clean_linker_0, # of connection points: 2
#     Edge 56, Type (0, 1), BuildingBlock: XIVTED_clean_linker_0, # of connection points: 2
#     Edge 57, Type (0, 1), BuildingBlock: XIVTED_clean_linker_0, # of connection points: 2
#     Edge 58, Type (0, 1), BuildingBlock: XIVTED_clean_linker_0, # of connection points: 2
#     Edge 59, Type (0, 1), BuildingBlock: XIVTED_clean_linker_0, # of connection points: 2
#     Edge 60, Type (0, 1), BuildingBlock: XIVTED_clean_linker_0, # of connection points: 2
#     Edge 61, Type (0, 1), BuildingBlock: XIVTED_clean_linker_0, # of connection points: 2
#     Edge 62, Type (0, 1), BuildingBlock: XIVTED_clean_linker_0, # of connection points: 2
#     Edge 63, Type (0, 1), BuildingBlock: XIVTED_clean_linker_0, # of connection points: 2
#     Edge 64, Type (0, 1), BuildingBlock: XIVTED_clean_linker_0, # of connection points: 2
#     Edge 65, Type (0, 1), BuildingBlock: XIVTED_clean_linker_0, # of connection points: 2
#     Edge 66, Type (0, 1), BuildingBlock: XIVTED_clean_linker_0, # of connection points: 2
#     Edge 67, Type (0, 1), BuildingBlock: XIVTED_clean_linker_0, # of connection points: 2
#     Edge 68, Type (0, 1), BuildingBlock: XIVTED_clean_linker_0, # of connection points: 2
#     Edge 69, Type (0, 1), BuildingBlock: XIVTED_clean_linker_0, # of connection points: 2
#     Edge 70, Type (0, 1), BuildingBlock: XIVTED_clean_linker_0, # of connection points: 2
#     Edge 71, Type (0, 1), BuildingBlock: XIVTED_clean_linker_0, # of connection points: 2
#     Edge 72, Type (0, 1), BuildingBlock: XIVTED_clean_linker_0, # of connection points: 2
#     Edge 73, Type (0, 1), BuildingBlock: XIVTED_clean_linker_0, # of connection points: 2
#     Edge 74, Type (0, 1), BuildingBlock: XIVTED_clean_linker_0, # of connection points: 2
#     Edge 75, Type (0, 1), BuildingBlock: XIVTED_clean_linker_0, # of connection points: 2
#     Edge 76, Type (0, 1), BuildingBlock: XIVTED_clean_linker_0, # of connection points: 2
#     Edge 77, Type (0, 1), BuildingBlock: XIVTED_clean_linker_0, # of connection points: 2
#     Edge 78, Type (0, 1), BuildingBlock: XIVTED_clean_linker_0, # of connection points: 2
#     Edge 79, Type (0, 1), BuildingBlock: XIVTED_clean_linker_0, # of connection points: 2
#     Edge 80, Type (0, 1), BuildingBlock: XIVTED_clean_linker_0, # of connection points: 2
#     Edge 81, Type (0, 1), BuildingBlock: XIVTED_clean_linker_0, # of connection points: 2
#     Edge 82, Type (0, 1), BuildingBlock: XIVTED_clean_linker_0, # of connection points: 2
#     Edge 83, Type (0, 1), BuildingBlock: XIVTED_clean_linker_0, # of connection points: 2
#     Edge 84, Type (0, 1), BuildingBlock: XIVTED_clean_linker_0, # of connection points: 2
#     Edge 85, Type (0, 1), BuildingBlock: XIVTED_clean_linker_0, # of connection points: 2
#     Edge 86, Type (0, 1), BuildingBlock: XIVTED_clean_linker_0, # of connection points: 2
#     Edge 87, Type (0, 1), BuildingBlock: XIVTED_clean_linker_0, # of connection points: 2
#     Edge 88, Type (0, 1), BuildingBlock: XIVTED_clean_linker_0, # of connection points: 2
#     Edge 89, Type (0, 1), BuildingBlock: XIVTED_clean_linker_0, # of connection points: 2
#     Edge 90, Type (0, 1), BuildingBlock: XIVTED_clean_linker_0, # of connection points: 2
#     Edge 91, Type (0, 1), BuildingBlock: XIVTED_clean_linker_0, # of connection points: 2
#     Edge 92, Type (0, 1), BuildingBlock: XIVTED_clean_linker_0, # of connection points: 2
#     Edge 93, Type (0, 1), BuildingBlock: XIVTED_clean_linker_0, # of connection points: 2
#     Edge 94, Type (0, 1), BuildingBlock: XIVTED_clean_linker_0, # of connection points: 2
#     Edge 95, Type (0, 1), BuildingBlock: XIVTED_clean_linker_0, # of connection points: 2
#     Edge 96, Type (0, 1), BuildingBlock: XIVTED_clean_linker_0, # of connection points: 2
#     Edge 97, Type (0, 1), BuildingBlock: XIVTED_clean_linker_0, # of connection points: 2
#     Edge 98, Type (0, 1), BuildingBlock: XIVTED_clean_linker_0, # of connection points: 2
#     Edge 99, Type (0, 1), BuildingBlock: XIVTED_clean_linker_0, # of connection points: 2
#     Edge 100, Type (0, 1), BuildingBlock: XIVTED_clean_linker_0, # of connection points: 2
#     Edge 101, Type (0, 1), BuildingBlock: XIVTED_clean_linker_0, # of connection points: 2
#     Edge 102, Type (0, 1), BuildingBlock: XIVTED_clean_linker_0, # of connection points: 2
#     Edge 103, Type (0, 1), BuildingBlock: XIVTED_clean_linker_0, # of connection points: 2
#     Edge 104, Type (0, 1), BuildingBlock: XIVTED_clean_linker_0, # of connection points: 2
#     Edge 105, Type (0, 1), BuildingBlock: XIVTED_clean_linker_0, # of connection points: 2
#     Edge 106, Type (0, 1), BuildingBlock: XIVTED_clean_linker_0, # of connection points: 2
#     Edge 107, Type (0, 1), BuildingBlock: XIVTED_clean_linker_0, # of connection points: 2
#     Edge 108, Type (0, 1), BuildingBlock: XIVTED_clean_linker_0, # of connection points: 2
#     Edge 109, Type (0, 1), BuildingBlock: XIVTED_clean_linker_0, # of connection points: 2
#     Edge 110, Type (0, 1), BuildingBlock: XIVTED_clean_linker_0, # of connection points: 2
#     Edge 111, Type (0, 1), BuildingBlock: XIVTED_clean_linker_0, # of connection points: 2
#     Edge 112, Type (0, 1), BuildingBlock: XIVTED_clean_linker_0, # of connection points: 2
#     Edge 113, Type (0, 1), BuildingBlock: XIVTED_clean_linker_0, # of connection points: 2
#     Edge 114, Type (0, 1), BuildingBlock: XIVTED_clean_linker_0, # of connection points: 2
#     Edge 115, Type (0, 1), BuildingBlock: XIVTED_clean_linker_0, # of connection points: 2
#     Edge 116, Type (0, 1), BuildingBlock: XIVTED_clean_linker_0, # of connection points: 2
#     Edge 117, Type (0, 1), BuildingBlock: XIVTED_clean_linker_0, # of connection points: 2
#     Edge 118, Type (0, 1), BuildingBlock: XIVTED_clean_linker_0, # of connection points: 2
#     Edge 119, Type (0, 1), BuildingBlock: XIVTED_clean_linker_0, # of connection points: 2
#     Edge 120, Type (0, 1), BuildingBlock: XIVTED_clean_linker_0, # of connection points: 2
#     Edge 121, Type (0, 1), BuildingBlock: XIVTED_clean_linker_0, # of connection points: 2
#     Edge 122, Type (0, 1), BuildingBlock: XIVTED_clean_linker_0, # of connection points: 2
#     Edge 123, Type (0, 1), BuildingBlock: XIVTED_clean_linker_0, # of connection points: 2
#     Edge 124, Type (0, 1), BuildingBlock: XIVTED_clean_linker_0, # of connection points: 2
#     Edge 125, Type (0, 1), BuildingBlock: XIVTED_clean_linker_0, # of connection points: 2
#     Edge 126, Type (0, 1), BuildingBlock: XIVTED_clean_linker_0, # of connection points: 2
#     Edge 127, Type (0, 1), BuildingBlock: XIVTED_clean_linker_0, # of connection points: 2
#     Edge 128, Type (0, 1), BuildingBlock: XIVTED_clean_linker_0, # of connection points: 2
#     Edge 129, Type (0, 1), BuildingBlock: XIVTED_clean_linker_0, # of connection points: 2
#     Edge 130, Type (0, 1), BuildingBlock: XIVTED_clean_linker_0, # of connection points: 2
#     Edge 131, Type (0, 1), BuildingBlock: XIVTED_clean_linker_0, # of connection points: 2
#     Edge 132, Type (0, 1), BuildingBlock: XIVTED_clean_linker_0, # of connection points: 2
#     Edge 133, Type (0, 1), BuildingBlock: XIVTED_clean_linker_0, # of connection points: 2
#     Edge 134, Type (0, 1), BuildingBlock: XIVTED_clean_linker_0, # of connection points: 2
#     Edge 135, Type (0, 1), BuildingBlock: XIVTED_clean_linker_0, # of connection points: 2
# Relax obj value: 0.128
# Max RMSD: 0.222
# Mean RMSD: 0.145
data_MOF--net-gar--node1-GALJAG_clean_sbu_0--node2-CUKXOW_clean_sbu_0--edge1-XIVTED_clean_linker_0
_symmetry_space_group_name_H-M    P1
_symmetry_Int_Tables_number       1
_symmetry_cell_setting            triclinic
loop_
_symmetry_equiv_pos_as_xyz
'x, y, z'
_cell_length_a     55.718473
_cell_length_b     54.131599
_cell_length_c     54.311642
_cell_angle_alpha  93.716316
_cell_angle_beta   95.332623
_cell_angle_gamma 98.94638
loop_
_atom_site_label
_atom_site_type_symbol
_atom_site_fract_x
_atom_site_fract_y
_atom_site_fract_z
_atom_type_partial_charge
In0 In 0.0371 0.26927 0.42839 0.0
O1 O 0.0546 0.24697 0.40011 0.0
O2 O 0.06399 0.28669 0.40273 0.0
C3 C 0.99609 0.26893 0.39798 0.0
C4 C 0.03864 0.23104 0.45724 0.0
C5 C 0.04321 0.3084 0.46295 0.0
O6 O 0.012 0.28831 0.40303 0.0
O7 O 1.00069 0.24993 0.40858 0.0
O8 O 0.02293 0.29457 0.45662 0.0
O9 O 0.06073 0.30239 0.45201 0.0
C10 C 0.06622 0.266 0.39184 0.0
O11 O 0.01902 0.23763 0.44865 0.0
O12 O 0.05791 0.24412 0.45164 0.0
In13 In 0.99306 0.77914 0.61023 0.0
O14 O 0.97499 0.8026 0.58284 0.0
O15 O 0.01365 0.81057 0.59152 0.0
C16 C 0.98925 0.7391 0.57703 0.0
C17 C 0.03184 0.78136 0.64427 0.0
C18 C 0.95961 0.78413 0.64213 0.0
O19 O 0.00904 0.75365 0.58366 0.0
O20 O 0.97108 0.74477 0.58704 0.0
O21 O 0.96576 0.76328 0.63618 0.0
O22 O 0.96976 0.80229 0.63143 0.0
C23 C 0.99492 0.81612 0.57967 0.0
O24 O 0.01699 0.76139 0.63813 0.0
O25 O 0.02719 0.80005 0.63315 0.0
In26 In 0.53551 0.77667 0.92747 0.0
O27 O 0.55206 0.78714 0.89214 0.0
O28 O 0.57099 0.76551 0.91612 0.0
C29 C 0.49272 0.77651 0.9001 0.0
C30 C 0.53339 0.73367 0.94943 0.0
C31 C 0.54238 0.81558 0.96219 0.0
O32 O 0.51031 0.79437 0.90098 0.0
O33 O 0.49653 0.75902 0.91342 0.0
O34 O 0.52255 0.8006 0.95757 0.0
O35 O 0.55909 0.81101 0.94923 0.0
C36 C 0.56976 0.77547 0.89579 0.0
O37 O 0.53861 0.75479 0.96163 0.0
O38 O 0.52946 0.73434 0.92625 0.0
In39 In 0.49636 0.27947 0.11497 0.0
O40 O 0.50951 0.25418 0.08608 0.0
O41 O 0.47186 0.24693 0.09162 0.0
C42 C 0.49891 0.32202 0.0921 0.0
C43 C 0.46046 0.27816 0.14484 0.0
C44 C 0.53821 0.28139 0.14461 0.0
O45 O 0.49876 0.30102 0.08048 0.0
O46 O 0.49769 0.32143 0.11515 0.0
O47 O 0.53368 0.29935 0.13231 0.0
O48 O 0.52192 0.26222 0.14153 0.0
C49 C 0.48892 0.24082 0.08002 0.0
O50 O 0.47776 0.2659 0.1483 0.0
O51 O 0.46073 0.29023 0.12576 0.0
In52 In 1.00063 0.76448 0.16457 0.0
O53 O 0.01658 0.74309 0.13417 0.0
O54 O 0.98829 0.72283 0.15192 0.0
C55 C 0.99937 0.8031 0.13563 0.0
C56 C 0.95996 0.76371 0.18895 0.0
C57 C 0.04354 0.77113 0.19424 0.0
O58 O 0.99156 0.78063 0.12753 0.0
O59 O 0.00753 0.80606 0.15829 0.0
O60 O 0.03639 0.78831 0.18232 0.0
O61 O 0.02884 0.75068 0.19167 0.0
C62 C 0.00312 0.7224 0.13576 0.0
O63 O 0.98064 0.76254 0.19994 0.0
O64 O 0.95983 0.76522 0.16593 0.0
In65 In 0.53089 0.78993 0.37679 0.0
O66 O 0.55143 0.77861 0.34442 0.0
O67 O 0.57102 0.80505 0.37256 0.0
C68 C 0.48725 0.77948 0.34828 0.0
C69 C 0.5332 0.75167 0.40618 0.0
C70 C 0.53048 0.83491 0.40173 0.0
O71 O 0.50493 0.79496 0.34279 0.0
O72 O 0.49174 0.76883 0.36776 0.0
O73 O 0.54092 0.81813 0.41109 0.0
O74 O 0.52079 0.8292 0.3798 0.0
C75 C 0.57153 0.79205 0.35253 0.0
O76 O 0.52138 0.76917 0.41099 0.0
O77 O 0.54359 0.7534 0.38656 0.0
In78 In 0.49916 0.26591 0.66371 0.0
O79 O 0.49036 0.23805 0.62891 0.0
O80 O 0.50852 0.22618 0.66084 0.0
C81 C 0.49849 0.30012 0.62949 0.0
C82 C 0.46029 0.26811 0.69025 0.0
C83 C 0.54164 0.27678 0.69427 0.0
O84 O 0.48019 0.29267 0.6407 0.0
O85 O 0.51708 0.29029 0.63547 0.0
O86 O 0.53601 0.29049 0.67743 0.0
O87 O 0.5255 0.25811 0.69629 0.0
C88 C 0.49987 0.22087 0.63856 0.0
O89 O 0.47959 0.28408 0.69376 0.0
O90 O 0.46075 0.25075 0.67376 0.0
In91 In 0.02801 0.28923 0.87431 0.0
O92 O 0.01864 0.26934 0.90898 0.0
O93 O 0.0406 0.25277 0.88485 0.0
C94 C 0.02676 0.33406 0.89913 0.0
C95 C 0.06894 0.29211 0.85029 0.0
C96 C 0.98434 0.2783 0.84576 0.0
O97 O 0.0378 0.31766 0.90841 0.0
O98 O 0.01694 0.32808 0.87727 0.0
O99 O 0.00179 0.29417 0.84043 0.0
O100 O 0.98912 0.2674 0.86501 0.0
C101 C 0.03031 0.25163 0.90457 0.0
O102 O 0.04916 0.278 0.84231 0.0
O103 O 0.06797 0.30528 0.87008 0.0
In104 In 0.40206 0.06986 0.25677 0.0
O105 O 0.43529 0.08288 0.23535 0.0
O106 O 0.40563 0.05718 0.21659 0.0
C107 C 0.4307 0.07251 0.30088 0.0
C108 C 0.3716 0.10451 0.25075 0.0
C109 C 0.37442 0.02433 0.25856 0.0
O110 O 0.43261 0.05766 0.28258 0.0
O111 O 0.41525 0.08682 0.2966 0.0
O112 O 0.37502 0.04213 0.27492 0.0
O113 O 0.38784 0.02945 0.24153 0.0
C114 C 0.42658 0.06954 0.2156 0.0
O115 O 0.36439 0.08163 0.25291 0.0
O116 O 0.39449 0.11028 0.25122 0.0
In117 In 0.27297 0.14943 0.50071 0.0
O118 O 0.28898 0.18391 0.52633 0.0
O119 O 0.25144 0.16873 0.52727 0.0
C120 C 0.27613 0.17717 0.46171 0.0
C121 C 0.3093 0.12433 0.5138 0.0
C122 C 0.23483 0.11192 0.49549 0.0
O123 O 0.25766 0.17394 0.47352 0.0
O124 O 0.29322 0.16575 0.46913 0.0
O125 O 0.24219 0.12317 0.47729 0.0
O126 O 0.24669 0.11963 0.51618 0.0
C127 C 0.26923 0.18553 0.53548 0.0
O128 O 0.29684 0.11999 0.49291 0.0
O129 O 0.30403 0.14191 0.52756 0.0
In130 In 0.15725 0.00817 0.79963 0.0
O131 O 0.14785 0.9936 0.75896 0.0
O132 O 0.12128 0.01022 0.77672 0.0
C133 C 0.12792 0.00911 0.83669 0.0
C134 C 0.18267 0.96972 0.80324 0.0
C135 C 0.18715 0.05222 0.79656 0.0
O136 O 0.13992 0.99154 0.83296 0.0
O137 O 0.13145 0.02646 0.82241 0.0
O138 O 0.17718 0.0381 0.77788 0.0
O139 O 0.18267 0.04387 0.81712 0.0
C140 C 0.12693 0.99983 0.75714 0.0
O141 O 0.1924 0.99214 0.80987 0.0
O142 O 0.16024 0.96687 0.7957 0.0
In143 In 0.22258 0.88871 0.03523 0.0
O144 O 0.21253 0.85342 0.05687 0.0
O145 O 0.23406 0.88572 0.07625 0.0
C146 C 0.22147 0.86029 0.9912 0.0
C147 C 0.18644 0.91722 0.04047 0.0
C148 C 0.26665 0.91751 0.03352 0.0
O149 O 0.23535 0.85806 0.01034 0.0
O150 O 0.20734 0.87601 0.99447 0.0
O151 O 0.24862 0.91846 0.01792 0.0
O152 O 0.26229 0.9024 0.04983 0.0
C153 C 0.22427 0.86325 0.07711 0.0
O154 O 0.20886 0.92622 0.04305 0.0
O155 O 0.18206 0.89375 0.0354 0.0
In156 In 0.26239 0.42759 0.03977 0.0
O157 O 0.27599 0.40306 0.06821 0.0
O158 O 0.23997 0.41104 0.06978 0.0
C159 C 0.26636 0.3905 0.00599 0.0
C160 C 0.22607 0.45209 0.025 0.0
C161 C 0.30095 0.46475 0.04487 0.0
O162 O 0.24637 0.39319 0.01409 0.0
O163 O 0.2844 0.40676 0.01471 0.0
O164 O 0.28944 0.45646 0.02417 0.0
O165 O 0.29291 0.45438 0.06329 0.0
C166 C 0.2564 0.39931 0.07824 0.0
O167 O 0.23755 0.4565 0.04641 0.0
O168 O 0.2327 0.43518 0.01143 0.0
In169 In 0.80367 0.16773 0.01348 0.0
O170 O 0.81935 0.13126 0.01763 0.0
O171 O 0.84374 0.16253 0.00878 0.0
C172 C 0.76013 0.13749 0.01435 0.0
C173 C 0.80385 0.19904 0.05521 0.0
C174 C 0.80136 0.19193 0.97091 0.0
O175 O 0.76665 0.14737 0.99515 0.0
O176 O 0.77577 0.14235 0.03306 0.0
O177 O 0.8108 0.20298 0.99158 0.0
O178 O 0.79397 0.1688 0.97164 0.0
C179 C 0.84075 0.13973 0.01326 0.0
O180 O 0.7875 0.19658 0.03715 0.0
O181 O 0.82088 0.18671 0.05182 0.0
In182 In 0.11736 0.48435 0.27902 0.0
O183 O 0.1535 0.4701 0.27672 0.0
O184 O 0.12368 0.44364 0.28473 0.0
C185 C 0.14961 0.5271 0.27901 0.0
C186 C 0.08747 0.48041 0.23562 0.0
C187 C 0.09349 0.4885 0.32039 0.0
O188 O 0.1479 0.51464 0.29781 0.0
O189 O 0.1351 0.518 0.26023 0.0
O190 O 0.09246 0.46782 0.30782 0.0
O191 O 0.10596 0.50677 0.31183 0.0
C192 C 0.14593 0.44782 0.28098 0.0
O193 O 0.08401 0.4934 0.2547 0.0
O194 O 0.10514 0.46863 0.23879 0.0
In195 In 0.76633 0.92498 0.54703 0.0
O196 O 0.77943 0.89722 0.57207 0.0
O197 O 0.74452 0.90699 0.5768 0.0
C198 C 0.77319 0.89229 0.51022 0.0
C199 C 0.7288 0.94799 0.53257 0.0
C200 C 0.80491 0.96197 0.55594 0.0
O201 O 0.75373 0.89041 0.52055 0.0
O202 O 0.7892 0.91086 0.51832 0.0
O203 O 0.79196 0.95762 0.53538 0.0
O204 O 0.79799 0.94802 0.57254 0.0
C205 C 0.76037 0.89357 0.58297 0.0
O206 O 0.74089 0.95347 0.55361 0.0
O207 O 0.73526 0.93064 0.51948 0.0
In208 In 0.87536 0.05538 0.24678 0.0
O209 O 0.89846 0.07586 0.21888 0.0
O210 O 0.89304 0.03613 0.21644 0.0
C211 C 0.91206 0.05787 0.28338 0.0
C212 C 0.84809 0.0924 0.25079 0.0
C213 C 0.84224 0.01359 0.2498 0.0
O214 O 0.90318 0.07693 0.27737 0.0
O215 O 0.90269 0.03778 0.27074 0.0
O216 O 0.85366 0.02666 0.26854 0.0
O217 O 0.84666 0.02216 0.22933 0.0
C218 C 0.90301 0.05596 0.20821 0.0
O219 O 0.84918 0.0804 0.23026 0.0
O220 O 0.86034 0.08542 0.26896 0.0
In221 In 0.30751 0.67005 0.51588 0.0
O222 O 0.32348 0.63398 0.52146 0.0
O223 O 0.34735 0.66434 0.51019 0.0
C224 C 0.2646 0.6385 0.51553 0.0
C225 C 0.30614 0.70105 0.55752 0.0
C226 C 0.30471 0.69464 0.47353 0.0
O227 O 0.2787 0.64551 0.5351 0.0
O228 O 0.27234 0.64698 0.49616 0.0
O229 O 0.31649 0.70497 0.49357 0.0
O230 O 0.29516 0.67217 0.47486 0.0
C231 C 0.34455 0.64191 0.51586 0.0
O232 O 0.32348 0.689 0.55463 0.0
O233 O 0.29033 0.69857 0.53898 0.0
In234 In 0.3723 0.55542 0.74179 0.0
O235 O 0.33944 0.57444 0.7296 0.0
O236 O 0.3698 0.59627 0.75164 0.0
C237 C 0.34053 0.51274 0.74543 0.0
C238 C 0.40064 0.5532 0.70395 0.0
C239 C 0.40365 0.55951 0.78326 0.0
O240 O 0.35227 0.5259 0.76391 0.0
O241 O 0.34398 0.52156 0.72486 0.0
O242 O 0.40827 0.54994 0.76281 0.0
O243 O 0.38339 0.56715 0.78271 0.0
C244 C 0.34858 0.59538 0.741 0.0
O245 O 0.39343 0.5732 0.71106 0.0
O246 O 0.39304 0.53452 0.71539 0.0
In247 In 0.6154 0.98262 0.78395 0.0
O248 O 0.64922 0.96626 0.79751 0.0
O249 O 0.61987 0.94111 0.77756 0.0
C250 C 0.64229 0.0281 0.78129 0.0
C251 C 0.59171 0.97944 0.73735 0.0
C252 C 0.5922 0.98625 0.82592 0.0
O253 O 0.65189 0.00929 0.78687 0.0
O254 O 0.61931 0.02387 0.77704 0.0
O255 O 0.58551 0.96848 0.80925 0.0
O256 O 0.61025 0.00163 0.82137 0.0
C257 C 0.64127 0.94416 0.78847 0.0
O258 O 0.5809 0.98199 0.7566 0.0
O259 O 0.61395 0.97754 0.7417 0.0
In260 In 0.76431 0.64726 0.99941 0.0
O261 O 0.79339 0.63654 0.02668 0.0
O262 O 0.78869 0.61859 0.99011 0.0
C263 C 0.72633 0.60969 0.99656 0.0
C264 C 0.76339 0.68505 0.03345 0.0
C265 C 0.76732 0.67518 0.96045 0.0
O266 O 0.73487 0.61807 0.97746 0.0
O267 O 0.73668 0.62055 0.01689 0.0
O268 O 0.78529 0.66597 0.9696 0.0
O269 O 0.7478 0.6693 0.97022 0.0
C270 C 0.79969 0.62058 0.01172 0.0
O271 O 0.74434 0.67004 0.02486 0.0
O272 O 0.7828 0.68079 0.02498 0.0
In273 In 0.90589 0.57072 0.75248 0.0
O274 O 0.87297 0.58686 0.73599 0.0
O275 O 0.90153 0.61233 0.75681 0.0
C276 C 0.87791 0.52581 0.75524 0.0
C277 C 0.93004 0.56772 0.71134 0.0
C278 C 0.93017 0.57306 0.79877 0.0
O279 O 0.87034 0.54623 0.75985 0.0
O280 O 0.89947 0.52811 0.74939 0.0
O281 O 0.93997 0.56819 0.77938 0.0
O282 O 0.90875 0.57763 0.79471 0.0
C283 C 0.88063 0.60911 0.74476 0.0
O284 O 0.93794 0.58358 0.72956 0.0
O285 O 0.91004 0.55414 0.71379 0.0
In286 In 0.72703 0.39086 0.53384 0.0
O287 O 0.7252 0.35353 0.5527 0.0
O288 O 0.73102 0.38713 0.57595 0.0
C289 C 0.72473 0.371 0.48593 0.0
C290 C 0.68958 0.41822 0.53516 0.0
C291 C 0.77412 0.41368 0.53774 0.0
O292 O 0.71374 0.35942 0.50218 0.0
O293 O 0.73546 0.39278 0.49348 0.0
O294 O 0.75692 0.4254 0.5423 0.0
O295 O 0.76761 0.39053 0.53177 0.0
C296 C 0.72904 0.36359 0.5746 0.0
O297 O 0.71181 0.42775 0.53926 0.0
O298 O 0.68598 0.39476 0.53002 0.0
In299 In 0.66168 0.50957 0.3006 0.0
O300 O 0.69167 0.48793 0.31537 0.0
O301 O 0.66838 0.47221 0.28322 0.0
C302 C 0.69307 0.55371 0.30506 0.0
C303 C 0.63513 0.50951 0.25658 0.0
C304 C 0.62936 0.50735 0.33511 0.0
O305 O 0.67753 0.54843 0.32022 0.0
O306 O 0.69366 0.53624 0.28874 0.0
O307 O 0.62849 0.52092 0.31716 0.0
O308 O 0.64693 0.49514 0.3361 0.0
C309 C 0.68623 0.47018 0.29853 0.0
O310 O 0.62978 0.49302 0.27144 0.0
O311 O 0.65358 0.5257 0.26401 0.0
Tb312 Tb 0.0253 0.05636 0.01915 0.0
C313 C 0.02079 0.01585 0.97267 0.0
Tb314 Tb 0.00478 1.00027 0.02447 0.0
O315 O 0.05927 0.05243 0.04265 0.0
O316 O 0.03865 0.0223 0.02161 0.0
O317 O 0.02242 0.03988 0.98089 0.0
C318 C 0.00611 0.95447 0.03882 0.0
O319 O 0.01511 0.99687 0.98669 0.0
C320 C 0.9713 0.02948 0.01895 0.0
C321 C 0.00654 0.04123 0.06908 0.0
O322 O 0.99082 0.95965 0.02086 0.0
O323 O 0.02034 0.97486 0.04805 0.0
O324 O 0.9678 0.008 0.0286 0.0
O325 O 0.99161 0.03174 0.01004 0.0
O326 O 0.00936 0.01796 0.06231 0.0
O327 O 0.00956 0.05951 0.05407 0.0
C328 C 0.03288 0.10273 0.00411 0.0
O329 O 0.04708 0.08609 1.00142 0.0
O330 O 0.01469 0.09343 0.01576 0.0
C331 C 0.05677 0.02827 0.03741 0.0
Tb332 Tb 0.27216 0.80295 0.27499 0.0
C333 C 0.31371 0.76995 0.27719 0.0
Tb334 Tb 0.25747 0.74615 0.26987 0.0
O335 O 0.28903 0.80236 0.31288 0.0
O336 O 0.2596 0.77489 0.2988 0.0
O337 O 0.30779 0.79196 0.27183 0.0
C338 C 0.24723 0.69695 0.27488 0.0
O339 O 0.29702 0.75003 0.27932 0.0
C340 C 0.25359 0.76807 0.22805 0.0
C341 C 0.21589 0.77878 0.2685 0.0
O342 O 0.25548 0.70695 0.25562 0.0
O343 O 0.24516 0.71465 0.29141 0.0
O344 O 0.24005 0.74736 0.23224 0.0
O345 O 0.26994 0.77424 0.24611 0.0
O346 O 0.22211 0.75701 0.27426 0.0
O347 O 0.23241 0.7987 0.26572 0.0
C348 C 0.28286 0.8517 0.26806 0.0
O349 O 0.27311 0.84269 0.28708 0.0
O350 O 0.2861 0.83329 0.25296 0.0
C351 C 0.27577 0.78143 0.31696 0.0
Tb352 Tb 0.54009 0.02984 0.51271 0.0
C353 C 0.52816 0.01221 0.56491 0.0
Tb354 Tb 0.48813 0.02661 0.52475 0.0
O355 O 0.55132 0.06179 0.54023 0.0
O356 O 0.51661 0.05601 0.52059 0.0
O357 O 0.54332 0.01196 0.54744 0.0
C358 C 0.44717 0.03514 0.5429 0.0
O359 O 0.50619 0.01879 0.5606 0.0
C360 C 0.49771 0.98712 0.49965 0.0
C361 C 0.50002 0.04322 0.47226 0.0
O362 O 0.44932 0.0157 0.52855 0.0
O363 O 0.46819 0.04958 0.54726 0.0
O364 O 0.47652 0.99432 0.4977 0.0
O365 O 0.5115 0.00046 0.51677 0.0
O366 O 0.48521 0.04459 0.48995 0.0
O367 O 0.52169 0.03601 0.47654 0.0
C368 C 0.58207 0.02291 0.49577 0.0
O369 O 0.56211 0.00668 0.49303 0.0
O370 O 0.57822 0.0432 0.50768 0.0
C371 C 0.53028 0.06926 0.53785 0.0
Tb372 Tb 0.27237 0.28821 0.8002 0.0
C373 C 0.27544 0.33381 0.76775 0.0
Tb374 Tb 0.26056 0.27686 0.7457 0.0
O375 O 0.31085 0.30024 0.79551 0.0
O376 O 0.28969 0.27177 0.77151 0.0
O377 O 0.27252 0.32652 0.79028 0.0
C378 C 0.26281 0.27274 0.69697 0.0
O379 O 0.27333 0.31746 0.74806 0.0
C380 C 0.22242 0.2788 0.76998 0.0
C381 C 0.25667 0.2313 0.77831 0.0
O382 O 0.28143 0.27579 0.71365 0.0
O383 O 0.24291 0.27176 0.70769 0.0
O384 O 0.22222 0.26444 0.74987 0.0
O385 O 0.24289 0.29293 0.77439 0.0
O386 O 0.25972 0.23845 0.75572 0.0
O387 O 0.25914 0.24772 0.798 0.0
C388 C 0.27109 0.29314 0.84912 0.0
O389 O 0.25216 0.28936 0.83277 0.0
O390 O 0.29072 0.29422 0.83794 0.0
C391 C 0.31031 0.28551 0.7756 0.0
Tb392 Tb 0.01114 0.02577 0.49103 0.0
C393 C 0.97469 0.02016 0.53109 0.0
Tb394 Tb 0.03159 0.02116 0.54468 0.0
O395 O 0.99146 0.98724 0.48871 0.0
O396 O 0.02445 0.99788 0.51127 0.0
O397 O 0.97881 0.02914 0.50944 0.0
C398 C 0.04258 0.00754 0.59004 0.0
O399 O 0.99202 0.0127 0.54599 0.0
C400 C 0.03574 0.06667 0.53051 0.0
C401 C 0.06825 0.02783 0.50502 0.0
O402 O 0.03387 0.02769 0.58497 0.0
O403 O 0.04513 0.99497 0.56954 0.0
O404 O 0.05106 0.0599 0.54725 0.0
O405 O 0.01835 0.04898 0.52444 0.0
O406 O 0.06418 0.01874 0.5266 0.0
O407 O 0.05072 0.03448 0.48976 0.0
C408 C 1.00063 0.03864 0.44526 0.0
O409 O 0.00755 0.01775 0.45087 0.0
O410 O 0.9995 0.05239 0.46548 0.0
C411 C 0.00693 0.98031 0.50518 0.0
Tb412 Tb 0.28813 0.78115 0.78467 0.0
C413 C 0.24913 0.78855 0.82166 0.0
Tb414 Tb 0.23438 0.77651 0.76326 0.0
O415 O 0.29079 0.82099 0.79661 0.0
O416 O 0.26574 0.80448 0.76703 0.0
O417 O 0.27082 0.78187 0.81912 0.0
C418 C 0.1897 0.78281 0.74595 0.0
O419 O 0.23302 0.78987 0.80225 0.0
C420 C 0.25054 0.73368 0.76656 0.0
C421 C 0.27387 0.76948 0.72644 0.0
O422 O 0.19461 0.76804 0.76298 0.0
O423 O 0.20985 0.79398 0.73875 0.0
O424 O 0.23232 0.73689 0.75112 0.0
O425 O 0.25666 0.75324 0.78112 0.0
O426 O 0.25206 0.7759 0.72888 0.0
O427 O 0.28986 0.76817 0.74588 0.0
C428 C 0.33284 0.77405 0.80076 0.0
O429 O 0.31271 0.76105 0.80613 0.0
O430 O 0.32785 0.79105 0.78618 0.0
C431 C 0.27226 0.82409 0.78153 0.0
Tb432 Tb 0.48652 0.01469 0.02066 0.0
C433 C 0.52671 0.98155 0.03061 0.0
Tb434 Tb 0.53977 0.0401 0.02584 0.0
O435 O 0.49126 0.99234 0.98704 0.0
O436 O 0.51232 0.02775 0.99589 0.0
O437 O 0.50377 0.98393 0.03346 0.0
C438 C 0.58714 0.05567 0.02183 0.0
O439 O 0.54301 0.0004 0.02502 0.0
C440 C 0.51651 0.04624 0.06528 0.0
C441 C 0.4998 0.0731 0.01512 0.0
O442 O 0.57809 0.04831 0.04178 0.0
O443 O 0.56954 0.05419 0.00414 0.0
O444 O 0.53445 0.0624 0.0595 0.0
O445 O 0.51397 0.02686 0.05046 0.0
O446 O 0.52264 0.07049 0.0122 0.0
O447 O 0.48352 0.05452 0.02132 0.0
C448 C 0.43922 0.99941 0.02498 0.0
O449 O 0.44801 0.00775 0.00526 0.0
O450 O 0.45703 0.99972 0.0422 0.0
C451 C 0.5094 0.00819 0.9812 0.0
Tb452 Tb 0.22786 0.26324 0.25987 0.0
C453 C 0.26447 0.26424 0.30762 0.0
Tb454 Tb 0.28166 0.28249 0.25735 0.0
O455 O 0.23469 0.22454 0.26099 0.0
O456 O 0.25693 0.25024 0.24274 0.0
O457 O 0.24168 0.26561 0.29892 0.0
C458 C 0.32954 0.28758 0.25389 0.0
O459 O 0.28302 0.26842 0.29403 0.0
C460 C 0.25501 0.31715 0.26738 0.0
C461 C 0.24547 0.28197 0.20983 0.0
O462 O 0.31595 0.26742 0.25933 0.0
O463 O 0.31622 0.30497 0.25098 0.0
O464 O 0.27474 0.32115 0.25636 0.0
O465 O 0.2527 0.29537 0.27464 0.0
O466 O 0.26793 0.27923 0.21834 0.0
O467 O 0.22686 0.27825 0.22346 0.0
C468 C 0.18014 0.25947 0.2645 0.0
O469 O 0.19454 0.27975 0.26073 0.0
O470 O 0.19253 0.24109 0.26479 0.0
C471 C 0.25452 0.22848 0.25009 0.0
Tb472 Tb 0.5082 0.52487 0.99022 0.0
C473 C 0.47067 0.53011 0.03098 0.0
Tb474 Tb 0.5258 0.52797 0.04561 0.0
O475 O 0.50983 0.48461 0.98566 0.0
O476 O 0.50363 0.50154 0.01949 0.0
O477 O 0.47545 0.53157 0.00747 0.0
C478 C 0.54619 0.52279 0.09083 0.0
O479 O 0.48711 0.52611 0.04899 0.0
C480 C 0.52421 0.57061 0.02627 0.0
C481 C 0.56271 0.52225 0.00566 0.0
O482 O 0.55111 0.54207 0.07817 0.0
O483 O 0.52955 0.50619 0.07809 0.0
O484 O 0.52074 0.56729 0.04921 0.0
O485 O 0.53024 0.5513 0.0162 0.0
O486 O 0.55631 0.51618 0.02772 0.0
O487 O 0.54744 0.53058 0.98917 0.0
C488 C 0.49142 0.5362 0.9456 0.0
O489 O 0.50145 0.51665 0.95001 0.0
O490 O 0.49063 0.54925 0.96629 0.0
C491 C 0.50815 0.48173 0.009 0.0
Tb492 Tb 0.79455 0.28405 0.28285 0.0
C493 C 0.75702 0.29377 0.32083 0.0
Tb494 Tb 0.74091 0.28021 0.26287 0.0
O495 O 0.79727 0.32388 0.29423 0.0
O496 O 0.77277 0.30724 0.26418 0.0
O497 O 0.77887 0.28759 0.31807 0.0
C498 C 0.6958 0.28724 0.24831 0.0
O499 O 0.74018 0.29372 0.30178 0.0
C500 C 0.75641 0.23728 0.26705 0.0
C501 C 0.77848 0.27178 0.2247 0.0
O502 O 0.71563 0.30161 0.24414 0.0
O503 O 0.70134 0.26893 0.26081 0.0
O504 O 0.7388 0.24062 0.25089 0.0
O505 O 0.76274 0.25696 0.28144 0.0
O506 O 0.75689 0.27849 0.22767 0.0
O507 O 0.79497 0.27071 0.24381 0.0
C508 C 0.83922 0.27569 0.29744 0.0
O509 O 0.81906 0.26202 0.30187 0.0
O510 O 0.83425 0.29406 0.28468 0.0
C511 C 0.77941 0.32707 0.27827 0.0
Tb512 Tb 0.99264 0.51188 0.519 0.0
C513 C 0.03159 0.47772 0.52906 0.0
Tb514 Tb 0.04596 0.53609 0.52441 0.0
O515 O 0.99761 0.49016 0.48507 0.0
O516 O 0.01842 0.52561 0.49434 0.0
O517 O 0.00924 0.48127 0.53317 0.0
C518 C 0.09355 0.55079 0.521 0.0
O519 O 0.04805 0.49599 0.52264 0.0
C520 C 0.02305 0.54192 0.56396 0.0
C521 C 0.00671 0.57046 0.51373 0.0
O522 O 0.08409 0.54355 0.54078 0.0
O523 O 0.07622 0.54959 0.50305 0.0
O524 O 0.04104 0.55802 0.55822 0.0
O525 O 0.02017 0.52258 0.54899 0.0
O526 O 0.02983 0.56779 0.51229 0.0
O527 O 0.98957 0.55159 0.51771 0.0
C528 C 0.9452 0.4962 0.52271 0.0
O529 O 0.95603 0.49442 0.50273 0.0
O530 O 0.96102 0.50709 0.54067 0.0
C531 C 0.01544 0.50636 0.47925 0.0
Tb532 Tb 0.77516 0.78824 0.29995 0.0
C533 C 0.77581 0.83376 0.26598 0.0
Tb534 Tb 0.76086 0.77673 0.24505 0.0
O535 O 0.80707 0.76916 0.29753 0.0
O536 O 0.79395 0.78728 0.26793 0.0
O537 O 0.77721 0.82649 0.28891 0.0
C538 C 0.76221 0.77016 0.1965 0.0
O539 O 0.7705 0.81758 0.24598 0.0
C540 C 0.72378 0.77531 0.27162 0.0
C541 C 0.758 0.73249 0.27988 0.0
O542 O 0.74585 0.78051 0.20706 0.0
O543 O 0.7774 0.76321 0.2132 0.0
O544 O 0.72326 0.76189 0.25082 0.0
O545 O 0.74376 0.79025 0.2754 0.0
O546 O 0.76277 0.73924 0.25752 0.0
O547 O 0.75817 0.74929 0.29871 0.0
C548 C 0.77916 0.80264 0.34786 0.0
O549 O 0.76001 0.78914 0.33551 0.0
O550 O 0.79596 0.80826 0.33321 0.0
C551 C 0.80928 0.7737 0.27464 0.0
Tb552 Tb 0.77028 0.30749 0.77707 0.0
C553 C 0.81008 0.2712 0.77797 0.0
Tb554 Tb 0.75394 0.24844 0.76883 0.0
O555 O 0.78391 0.30554 0.81576 0.0
O556 O 0.75683 0.27727 0.79824 0.0
O557 O 0.8048 0.29376 0.77351 0.0
C558 C 0.7348 0.2007 0.77227 0.0
O559 O 0.79314 0.25116 0.77917 0.0
C560 C 0.75909 0.27064 0.72664 0.0
C561 C 0.71425 0.28438 0.76817 0.0
O562 O 0.75572 0.21171 0.78362 0.0
O563 O 0.72511 0.21649 0.75923 0.0
O564 O 0.75299 0.24658 0.72741 0.0
O565 O 0.76328 0.27907 0.7488 0.0
O566 O 0.71996 0.26248 0.7744 0.0
O567 O 0.73108 0.30421 0.76587 0.0
C568 C 0.78466 0.35506 0.76872 0.0
O569 O 0.77011 0.34774 0.78523 0.0
O570 O 0.79077 0.33567 0.75707 0.0
C571 C 0.7717 0.28334 0.81756 0.0
Tb572 Tb 0.73237 0.76135 0.76297 0.0
C573 C 0.76686 0.77335 0.81407 0.0
Tb574 Tb 0.78511 0.78776 0.76421 0.0
O575 O 0.74094 0.72773 0.74296 0.0
O576 O 0.7673 0.75092 0.76747 0.0
O577 O 0.74434 0.77029 0.80259 0.0
C578 C 0.83162 0.79753 0.75487 0.0
O579 O 0.78656 0.77799 0.80217 0.0
C580 C 0.75368 0.8169 0.77566 0.0
C581 C 0.75019 0.7769 0.71327 0.0
O582 O 0.82118 0.77717 0.76326 0.0
O583 O 0.81594 0.81281 0.75225 0.0
O584 O 0.77672 0.82151 0.78414 0.0
O585 O 0.75021 0.79825 0.75992 0.0
O586 O 0.7728 0.77981 0.72453 0.0
O587 O 0.73059 0.7718 0.72525 0.0
C588 C 0.68627 0.75035 0.77335 0.0
O589 O 0.69549 0.77015 0.76317 0.0
O590 O 0.7029 0.73627 0.77694 0.0
C591 C 0.76389 0.73229 0.75172 0.0
Tb592 Tb 0.52539 0.55365 0.51657 0.0
C593 C 0.52077 0.51375 0.46973 0.0
Tb594 Tb 0.50444 0.49763 0.52143 0.0
O595 O 0.55925 0.54947 0.53999 0.0
O596 O 0.53854 0.51945 0.51885 0.0
O597 O 0.52277 0.53775 0.47814 0.0
C598 C 0.504 0.45052 0.53275 0.0
O599 O 0.51466 0.4947 0.48354 0.0
C600 C 0.47141 0.52743 0.51627 0.0
C601 C 0.50637 0.53795 0.56644 0.0
O602 O 0.48809 0.45767 0.51666 0.0
O603 O 0.51986 0.46975 0.54204 0.0
O604 O 0.46782 0.50611 0.52618 0.0
O605 O 0.49159 0.52937 0.50713 0.0
O606 O 0.50902 0.51463 0.55956 0.0
O607 O 0.50968 0.55633 0.55155 0.0
C608 C 0.53287 0.60046 0.50271 0.0
O609 O 0.51481 0.59083 0.51437 0.0
O610 O 0.54698 0.58386 0.49929 0.0
C611 C 0.55667 0.52532 0.53468 0.0
Tb612 Tb 0.03227 0.52629 0.01173 0.0
C613 C 0.01961 0.50884 0.06387 0.0
Tb614 Tb 0.97981 0.52284 0.02342 0.0
O615 O 0.04418 0.5586 0.03858 0.0
O616 O 0.00875 0.55218 0.02038 0.0
O617 O 0.03492 0.50835 0.04652 0.0
C618 C 0.93788 0.53085 0.0399 0.0
O619 O 0.99769 0.51551 0.05944 0.0
C620 C 0.98999 0.48381 0.99795 0.0
C621 C 0.99257 0.54055 0.97147 0.0
O622 O 0.95837 0.54619 0.04352 0.0
O623 O 0.94106 0.5107 0.02721 0.0
O624 O 0.96879 0.49097 0.9957 0.0
O625 O 0.00347 0.49703 0.01535 0.0
O626 O 0.97745 0.54127 0.98893 0.0
O627 O 0.01426 0.5334 0.97574 0.0
C628 C 0.07413 0.51937 0.99453 0.0
O629 O 0.07041 0.53953 0.00677 0.0
O630 O 0.05416 0.50315 0.99175 0.0
C631 C 0.02273 0.56513 0.03767 0.0
H632 H 0.00557 0.24193 0.94508 0.0
H633 H 0.06692 0.12109 0.97416 0.0
H634 H 0.05841 0.21467 0.90159 0.0
H635 H 0.00336 0.13845 0.007 0.0
H636 H 0.06766 0.1587 0.95135 0.0
H637 H 0.00779 0.2072 0.97155 0.0
C638 C 0.01769 0.22868 0.94116 0.0
C639 C 0.03174 0.23109 0.92105 0.0
C640 C 0.05364 0.15439 0.96367 0.0
C641 C 0.03449 0.19147 0.9513 0.0
C642 C 0.0533 0.13301 0.97678 0.0
C643 C 0.03503 0.1267 0.99242 0.0
C644 C 0.03563 0.16961 0.96629 0.0
C645 C 0.01776 0.1427 0.9951 0.0
C646 C 0.01893 0.20886 0.95625 0.0
C647 C 0.04716 0.21343 0.91682 0.0
N648 N 0.01842 0.1634 0.98209 0.0
N649 N 0.04813 0.19438 0.93182 0.0
H650 H 0.07929 0.81255 0.20004 0.0
H651 H 0.17673 0.74286 0.27406 0.0
H652 H 0.06324 0.73679 0.22127 0.0
H653 H 0.1948 0.81671 0.24852 0.0
H654 H 0.13406 0.74238 0.259 0.0
H655 H 0.12047 0.81627 0.22151 0.0
C656 C 0.08436 0.79676 0.2094 0.0
C657 C 0.06783 0.77427 0.20877 0.0
C658 C 0.14729 0.75879 0.25687 0.0
C659 C 0.115 0.77839 0.23334 0.0
C660 C 0.17173 0.75914 0.26555 0.0
C661 C 0.18953 0.77982 0.26247 0.0
C662 C 0.14045 0.77924 0.2449 0.0
C663 C 0.18178 0.80035 0.25132 0.0
C664 C 0.1079 0.79889 0.22163 0.0
C665 C 0.0754 0.75445 0.22122 0.0
N666 N 0.15788 0.79945 0.24277 0.0
N667 N 0.09844 0.75693 0.23288 0.0
H668 H 0.55222 0.85347 0.44809 0.0
H669 H 0.47347 0.96424 0.45658 0.0
H670 H 0.50355 0.87037 0.38722 0.0
H671 H 0.53613 0.96165 0.5087 0.0
H672 H 0.48316 0.92836 0.43202 0.0
H673 H 0.54591 0.89177 0.47167 0.0
C674 C 0.54035 0.86531 0.43964 0.0
C675 C 0.52833 0.85871 0.4157 0.0
C676 C 0.49491 0.93568 0.44875 0.0
C677 C 0.52084 0.90227 0.44258 0.0
C678 C 0.48931 0.95608 0.46281 0.0
C679 C 0.50403 0.96584 0.48465 0.0
C680 C 0.5152 0.92468 0.45675 0.0
C681 C 0.5244 0.95468 0.49188 0.0
C682 C 0.53678 0.88716 0.45308 0.0
C683 C 0.51317 0.87472 0.40562 0.0
N684 N 0.52932 0.93453 0.47804 0.0
N685 N 0.50971 0.89561 0.41918 0.0
H686 H 0.45518 0.30381 0.72659 0.0
H687 H 0.31449 0.24975 0.7387 0.0
H688 H 0.4157 0.23749 0.68396 0.0
H689 H 0.35535 0.31442 0.78276 0.0
H690 H 0.35098 0.24512 0.7179 0.0
H691 H 0.41863 0.308 0.74715 0.0
C692 C 0.43884 0.29006 0.72162 0.0
C693 C 0.43853 0.27025 0.70354 0.0
C694 C 0.35197 0.26034 0.7321 0.0
C695 C 0.39645 0.275 0.72695 0.0
C696 C 0.33112 0.26303 0.7439 0.0
C697 C 0.33191 0.28254 0.76242 0.0
C698 C 0.37378 0.27727 0.73891 0.0
C699 C 0.35396 0.2991 0.76859 0.0
C700 C 0.41794 0.29248 0.73335 0.0
C701 C 0.41679 0.25303 0.69782 0.0
N702 N 0.37398 0.2961 0.75689 0.0
N703 N 0.39663 0.25582 0.70944 0.0
H704 H 0.95735 0.83414 0.55421 0.0
H705 H 0.0431 0.9607 0.52997 0.0
H706 H 0.03563 0.84833 0.5722 0.0
H707 H 0.96737 0.94297 0.50031 0.0
H708 H 0.04029 0.91928 0.54565 0.0
H709 H 0.96017 0.87338 0.53372 0.0
C710 C 0.97513 0.84538 0.5536 0.0
C711 C 0.99627 0.83812 0.56502 0.0
C712 C 0.02426 0.92433 0.53564 0.0
C713 C 0.9996 0.88291 0.54195 0.0
C714 C 0.02584 0.94804 0.52686 0.0
C715 C 0.00536 0.9552 0.51411 0.0
C716 C 0.00199 0.90773 0.53174 0.0
C717 C 0.98353 0.93804 0.51015 0.0
C718 C 0.97672 0.86774 0.54196 0.0
C719 C 0.01885 0.8533 0.56373 0.0
N720 N 0.98234 0.91505 0.51909 0.0
N721 N 0.01989 0.87506 0.55259 0.0
H722 H 0.48127 0.8105 0.86775 0.0
H723 H 0.34508 0.7385 0.83043 0.0
H724 H 0.45224 0.74044 0.89588 0.0
H725 H 0.37571 0.80501 0.79732 0.0
H726 H 0.38487 0.7379 0.85323 0.0
H727 H 0.44313 0.80835 0.84094 0.0
C728 C 0.46683 0.79469 0.86829 0.0
C729 C 0.46978 0.77568 0.88411 0.0
C730 C 0.38298 0.75253 0.84083 0.0
C731 C 0.42627 0.77303 0.8535 0.0
C732 C 0.36031 0.75283 0.82781 0.0
C733 C 0.35723 0.77192 0.81218 0.0
C734 C 0.40259 0.77159 0.83831 0.0
C735 C 0.37743 0.79001 0.80929 0.0
C736 C 0.44513 0.79341 0.85292 0.0
C737 C 0.45062 0.75554 0.88401 0.0
N738 N 0.39928 0.78954 0.82244 0.0
N739 N 0.42963 0.75479 0.86899 0.0
H740 H 0.44905 0.20383 0.0701 0.0
H741 H 0.52653 0.11528 1.0003 0.0
H742 H 0.5216 0.22732 0.04959 0.0
H743 H 0.45825 0.08881 0.02904 0.0
H744 H 0.51952 0.15827 0.00808 0.0
H745 H 0.44707 0.16388 0.04551 0.0
C746 C 0.46437 0.20073 0.06006 0.0
C747 C 0.48572 0.21859 0.06224 0.0
C748 C 0.50587 0.14305 0.01232 0.0
C749 C 0.48363 0.17316 0.03425 0.0
C750 C 0.50985 0.11847 0.00787 0.0
C751 C 0.49326 0.09845 0.01463 0.0
C752 C 0.48528 0.14764 0.02383 0.0
C753 C 0.47175 0.1037 0.02392 0.0
C754 C 0.46325 0.17796 0.04606 0.0
C755 C 0.50497 0.21381 0.04874 0.0
N756 N 0.46859 0.12785 0.0287 0.0
N757 N 0.50359 0.19141 0.03557 0.0
H758 H 0.07425 0.22353 0.36614 0.0
H759 H 0.15738 0.29932 0.27494 0.0
H760 H 0.0892 0.30433 0.36797 0.0
H761 H 0.15117 0.21943 0.28008 0.0
H762 H 0.12572 0.30051 0.30305 0.0
H763 H 0.09685 0.22095 0.32983 0.0
C764 C 0.08233 0.24073 0.3589 0.0
C765 C 0.08014 0.26419 0.37022 0.0
C766 C 0.13096 0.28264 0.2977 0.0
C767 C 0.10571 0.26138 0.32856 0.0
C768 C 0.14885 0.28192 0.28147 0.0
C769 C 0.15701 0.25927 0.27548 0.0
C770 C 0.12129 0.26056 0.30799 0.0
C771 C 0.14545 0.23729 0.28443 0.0
C772 C 0.09511 0.23924 0.33811 0.0
C773 C 0.09071 0.28587 0.35995 0.0
N774 N 0.12838 0.23852 0.30056 0.0
N775 N 0.10313 0.28394 0.33974 0.0
H776 H 0.92454 0.09549 0.18418 0.0
H777 H 0.9984 0.0087 0.10504 0.0
H778 H 0.91988 0.01554 0.18803 0.0
H779 H 0.9905 0.08379 0.08711 0.0
H780 H 0.97502 0.01359 0.14023 0.0
H781 H 0.95306 0.09379 0.1524 0.0
C782 C 0.92949 0.07761 0.17832 0.0
C783 C 0.91973 0.0556 0.18863 0.0
C784 C 0.97856 0.0291 0.12873 0.0
C785 C 0.95249 0.05358 0.15273 0.0
C786 C 0.99208 0.02639 0.10867 0.0
C787 C 0.9963 0.04579 0.09289 0.0
C788 C 0.96913 0.05138 0.13317 0.0
C789 C 0.98767 0.0683 0.09872 0.0
C790 C 0.94577 0.07666 0.16026 0.0
C791 C 0.92683 0.03295 0.18048 0.0
N792 N 0.97431 0.07041 0.11828 0.0
N793 N 0.94277 0.03255 0.16309 0.0
H794 H 0.32719 0.74126 0.46295 0.0
H795 H 0.24634 0.7408 0.33259 0.0
H796 H 0.27394 0.67792 0.43161 0.0
H797 H 0.31321 0.79241 0.35387 0.0
H798 H 0.25382 0.71927 0.37034 0.0
H799 H 0.32008 0.76232 0.42482 0.0
C800 C 0.31405 0.73178 0.44807 0.0
C801 C 0.30122 0.70775 0.4505 0.0
C802 C 0.26692 0.73524 0.36668 0.0
C803 C 0.29274 0.73185 0.40687 0.0
C804 C 0.26272 0.7474 0.34502 0.0
C805 C 0.27937 0.76814 0.33981 0.0
C806 C 0.28772 0.74415 0.3835 0.0
C807 C 0.29991 0.77643 0.35708 0.0
C808 C 0.31 0.74378 0.42628 0.0
C809 C 0.28434 0.69639 0.43056 0.0
N810 N 0.30346 0.7645 0.37811 0.0
N811 N 0.28052 0.70854 0.40972 0.0
H812 H 0.54565 0.98918 0.72272 0.0
H813 H 0.57047 0.99498 0.5798 0.0
H814 H 0.61167 0.97352 0.69372 0.0
H815 H 0.50434 0.01253 0.60729 0.0
H816 H 0.58445 0.98467 0.62113 0.0
H817 H 0.52881 0.99521 0.68051 0.0
C818 C 0.5565 0.98675 0.70747 0.0
C819 C 0.58014 0.98087 0.71181 0.0
C820 C 0.56683 0.99068 0.61818 0.0
C821 C 0.56106 0.98793 0.66347 0.0
C822 C 0.55878 0.99659 0.59448 0.0
C823 C 0.53616 0.00474 0.58992 0.0
C824 C 0.55226 0.99294 0.63772 0.0
C825 C 0.52191 0.00635 0.60985 0.0
C826 C 0.54691 0.99028 0.68338 0.0
C827 C 0.59339 0.97807 0.69132 0.0
N828 N 0.53022 0.00061 0.63287 0.0
N829 N 0.58374 0.98171 0.66815 0.0
H830 H 0.30742 0.3797 0.98672 0.0
H831 H 0.23111 0.29277 0.87436 0.0
H832 H 0.22939 0.35599 0.98198 0.0
H833 H 0.30987 0.3086 0.88379 0.0
H834 H 0.23046 0.31082 0.91665 0.0
H835 H 0.30929 0.34933 0.95196 0.0
C836 C 0.29072 0.36792 0.97849 0.0
C837 C 0.26817 0.37059 0.98687 0.0
C838 C 0.24791 0.30999 0.90966 0.0
C839 C 0.2701 0.33596 0.94717 0.0
C840 C 0.24827 0.29967 0.88555 0.0
C841 C 0.27056 0.29964 0.87563 0.0
C842 C 0.27002 0.32059 0.92367 0.0
C843 C 0.2923 0.30859 0.89079 0.0
C844 C 0.29179 0.35053 0.95872 0.0
C845 C 0.24711 0.3547 0.97582 0.0
N846 N 0.29149 0.31911 0.91399 0.0
N847 N 0.24855 0.33827 0.95629 0.0
H848 H 0.92843 0.09627 0.31919 0.0
H849 H 0.00161 0.01031 0.4024 0.0
H850 H 0.93704 0.02054 0.29651 0.0
H851 H 0.98231 0.08007 0.43076 0.0
H852 H 0.98485 0.01771 0.3609 0.0
H853 H 0.95484 0.09443 0.35751 0.0
C854 C 0.93617 0.07941 0.32213 0.0
C855 C 0.93037 0.05841 0.30486 0.0
C856 C 0.98444 0.03153 0.37613 0.0
C857 C 0.96041 0.05617 0.34846 0.0
C858 C 0.99403 0.02732 0.39979 0.0
C859 C 0.99301 0.04447 0.41996 0.0
C860 C 0.97369 0.05302 0.37264 0.0
C861 C 0.98321 0.06631 0.41563 0.0
C862 C 0.95115 0.07834 0.34399 0.0
C863 C 0.94087 0.03705 0.30949 0.0
N864 N 0.97368 0.06988 0.39241 0.0
N865 N 0.95524 0.03642 0.33093 0.0
H866 H 0.26885 0.72612 0.56852 0.0
H867 H 0.31521 0.75192 0.71379 0.0
H868 H 0.33599 0.70634 0.60148 0.0
H869 H 0.2469 0.76955 0.68118 0.0
H870 H 0.32427 0.7376 0.67259 0.0
H871 H 0.26187 0.74465 0.60904 0.0
C872 C 0.28229 0.7259 0.58423 0.0
C873 C 0.30306 0.71462 0.58151 0.0
C874 C 0.30736 0.74472 0.67439 0.0
C875 C 0.29503 0.73568 0.62825 0.0
C876 C 0.30215 0.753 0.69799 0.0
C877 C 0.2802 0.76206 0.70115 0.0
C878 C 0.29055 0.74542 0.65358 0.0
C879 C 0.26404 0.76278 0.6798 0.0
C880 C 0.27823 0.73642 0.60743 0.0
C881 C 0.31974 0.71484 0.60263 0.0
N882 N 0.2695 0.75454 0.65703 0.0
N883 N 0.31531 0.72507 0.62506 0.0
H884 H 0.60188 0.02553 0.86134 0.0
H885 H 0.50478 0.96605 0.94986 0.0
H886 H 0.55506 0.95416 0.84299 0.0
H887 H 0.54244 0.04236 0.9611 0.0
H888 H 0.52479 0.96029 0.91214 0.0
H889 H 0.58221 0.0309 0.89922 0.0
C890 C 0.58744 0.01094 0.86528 0.0
C891 C 0.5801 0.98934 0.84891 0.0
C892 C 0.52875 0.97829 0.92285 0.0
C893 C 0.55747 0.99539 0.8925 0.0
C894 C 0.51735 0.9816 0.94442 0.0
C895 C 0.52207 0.0047 0.95873 0.0
C896 C 0.54512 0.99822 0.9155 0.0
C897 C 0.53853 0.02416 0.95082 0.0
C898 C 0.57618 0.01407 0.88694 0.0
C899 C 0.56127 0.97112 0.85504 0.0
N900 N 0.54947 0.02048 0.92976 0.0
N901 N 0.55065 0.97453 0.87636 0.0
H902 H 0.21603 0.38699 0.1031 0.0
H903 H 0.27493 0.28162 0.17259 0.0
H904 H 0.28751 0.36848 0.09421 0.0
H905 H 0.20904 0.30691 0.19256 0.0
H906 H 0.2751 0.30785 0.13786 0.0
H907 H 0.20954 0.35367 0.13154 0.0
C908 C 0.23036 0.37601 0.10724 0.0
C909 C 0.25242 0.38061 0.09654 0.0
C910 C 0.26041 0.30746 0.14963 0.0
C911 C 0.24497 0.34237 0.1284 0.0
C912 C 0.26021 0.29234 0.16936 0.0
C913 C 0.24215 0.29241 0.18565 0.0
C914 C 0.24255 0.32295 0.14631 0.0
C915 C 0.22337 0.30642 0.18045 0.0
C916 C 0.22659 0.35694 0.12329 0.0
C917 C 0.27032 0.36573 0.10224 0.0
N918 N 0.22427 0.32153 0.16141 0.0
N919 N 0.26618 0.3473 0.11777 0.0
H920 H 0.13691 0.90335 0.02949 0.0
H921 H 0.10266 0.03961 0.06393 0.0
H922 H 0.19157 0.96735 0.0559 0.0
H923 H 0.05497 0.98025 0.01842 0.0
H924 H 0.13439 0.01245 0.06666 0.0
H925 H 0.1054 0.93013 0.03109 0.0
C926 C 0.14229 0.92301 0.03576 0.0
C927 C 0.16698 0.93309 0.04245 0.0
C928 C 0.11685 0.00536 0.05631 0.0
C929 C 0.13085 0.96402 0.04442 0.0
C930 C 0.09873 0.02082 0.05484 0.0
C931 C 0.07595 0.01212 0.04124 0.0
C932 C 0.11205 0.98098 0.04426 0.0
C933 C 0.07199 0.98766 0.02956 0.0
C934 C 0.12428 0.93835 0.03661 0.0
C935 C 0.17279 0.95877 0.05045 0.0
N936 N 0.08973 0.97304 0.03139 0.0
N937 N 0.1549 0.97333 0.05122 0.0
H938 H 0.69616 0.5883 0.9556 0.0
H939 H 0.60156 0.51665 0.03845 0.0
H940 H 0.70871 0.58502 0.03485 0.0
H941 H 0.58308 0.53339 0.963 0.0
H942 H 0.64457 0.53063 0.0339 0.0
H943 H 0.65846 0.55811 0.95509 0.0
C944 C 0.69112 0.58096 0.97282 0.0
C945 C 0.70522 0.58947 0.99537 0.0
C946 C 0.63112 0.53082 0.0182 0.0
C947 C 0.66242 0.55501 0.99492 0.0
C948 C 0.60655 0.52273 0.02073 0.0
C949 C 0.58865 0.52452 1.00128 0.0
C950 C 0.63775 0.54075 0.9961 0.0
C951 C 0.59625 0.53224 0.97867 0.0
C952 C 0.66967 0.56375 0.97252 0.0
C953 C 0.69808 0.57925 0.01713 0.0
N954 N 0.62023 0.54051 0.97683 0.0
N955 N 0.67702 0.56273 0.0164 0.0
H956 H 0.72419 0.45992 0.33002 0.0
H957 H 0.74682 0.34176 0.24345 0.0
H958 H 0.67964 0.4324 0.26156 0.0
H959 H 0.78212 0.36126 0.3177 0.0
H960 H 0.72344 0.37627 0.24861 0.0
H961 H 0.7472 0.4252 0.32488 0.0
C962 C 0.71923 0.44654 0.31395 0.0
C963 C 0.69999 0.44903 0.29621 0.0
C964 C 0.73625 0.37295 0.26381 0.0
C965 C 0.72629 0.40939 0.29009 0.0
C966 C 0.74942 0.35316 0.2609 0.0
C967 C 0.76602 0.34844 0.28031 0.0
C968 C 0.73999 0.38826 0.28622 0.0
C969 C 0.76945 0.36429 0.30226 0.0
C970 C 0.73235 0.42673 0.31101 0.0
C971 C 0.69434 0.43118 0.27571 0.0
N972 N 0.75653 0.38347 0.30464 0.0
N973 N 0.70747 0.41217 0.27318 0.0
H974 H 0.79612 0.45938 0.56051 0.0
H975 H 0.91449 0.46403 0.48915 0.0
H976 H 0.8097 0.39671 0.5136 0.0
H977 H 0.91798 0.50349 0.56131 0.0
H978 H 0.87279 0.44409 0.49368 0.0
H979 H 0.83809 0.48046 0.5575 0.0
C980 C 0.80796 0.45006 0.54967 0.0
C981 C 0.79954 0.42627 0.53735 0.0
C982 C 0.88268 0.45714 0.50851 0.0
C983 C 0.84701 0.45036 0.53341 0.0
C984 C 0.90638 0.46862 0.50588 0.0
C985 C 0.91962 0.48534 0.52493 0.0
C986 C 0.87198 0.46277 0.53014 0.0
C987 C 0.90831 0.49062 0.54625 0.0
C988 C 0.83182 0.46204 0.54801 0.0
C989 C 0.81554 0.41498 0.52353 0.0
N990 N 0.885 0.47944 0.54827 0.0
N991 N 0.83842 0.42723 0.52172 0.0
H992 H 0.32333 0.09658 0.25744 0.0
H993 H 0.29595 0.23219 0.22548 0.0
H994 H 0.38052 0.15413 0.24001 0.0
H995 H 0.25237 0.18351 0.26991 0.0
H996 H 0.32531 0.20255 0.22498 0.0
H997 H 0.29499 0.12666 0.25592 0.0
C998 C 0.32993 0.11555 0.25317 0.0
C999 C 0.35439 0.12284 0.24893 0.0
C1000 C 0.30933 0.19845 0.23485 0.0
C1001 C 0.32183 0.15752 0.24705 0.0
C1002 C 0.29265 0.21537 0.23524 0.0
C1003 C 0.27194 0.21052 0.24816 0.0
C1004 C 0.30486 0.17624 0.24693 0.0
C1005 C 0.26815 0.18809 0.25984 0.0
C1006 C 0.31372 0.13277 0.2524 0.0
C1007 C 0.36184 0.14775 0.24349 0.0
N1008 N 0.28437 0.17181 0.25889 0.0
N1009 N 0.34559 0.16421 0.24263 0.0
H1010 H 0.34269 0.13423 0.55461 0.0
H1011 H 0.40157 0.01185 0.52475 0.0
H1012 H 0.31735 0.07988 0.49229 0.0
H1013 H 0.44017 0.07737 0.56936 0.0
H1014 H 0.36474 0.03132 0.52202 0.0
H1015 H 0.37337 0.10876 0.56813 0.0
C1016 C 0.34357 0.1169 0.54383 0.0
C1017 C 0.32779 0.10926 0.52211 0.0
C1018 C 0.38115 0.0412 0.53281 0.0
C1019 C 0.36232 0.07998 0.53769 0.0
C1020 C 0.40207 0.03004 0.53454 0.0
C1021 C 0.4239 0.04329 0.54694 0.0
C1022 C 0.38222 0.06566 0.54362 0.0
C1023 C 0.42366 0.06672 0.5594 0.0
C1024 C 0.36096 0.10237 0.55161 0.0
C1025 C 0.32946 0.08659 0.50893 0.0
N1026 N 0.40317 0.07739 0.55712 0.0
N1027 N 0.34651 0.07274 0.51691 0.0
H1028 H 0.69511 0.59487 0.33782 0.0
H1029 H 0.75756 0.69091 0.24755 0.0
H1030 H 0.72146 0.57101 0.26941 0.0
H1031 H 0.74304 0.71258 0.32195 0.0
H1032 H 0.74471 0.64686 0.25504 0.0
H1033 H 0.71326 0.63812 0.33256 0.0
C1034 C 0.70501 0.59868 0.32188 0.0
C1035 C 0.70676 0.57931 0.30404 0.0
C1036 C 0.74451 0.66128 0.26976 0.0
C1037 C 0.72722 0.62885 0.29761 0.0
C1038 C 0.75179 0.68645 0.26546 0.0
C1039 C 0.75133 0.70556 0.28408 0.0
C1040 C 0.73652 0.65519 0.29277 0.0
C1041 C 0.7437 0.69858 0.30697 0.0
C1042 C 0.71531 0.6234 0.31882 0.0
C1043 C 0.71971 0.58536 0.28366 0.0
N1044 N 0.73649 0.67405 0.31059 0.0
N1045 N 0.72923 0.60961 0.28087 0.0
H1046 H 0.88698 0.48058 0.73719 0.0
H1047 H 0.77689 0.39863 0.79343 0.0
H1048 H 0.83455 0.51488 0.77548 0.0
H1049 H 0.81643 0.37044 0.73601 0.0
H1050 H 0.7982 0.44128 0.78916 0.0
H1051 H 0.86225 0.4396 0.73906 0.0
C1052 C 0.87023 0.47945 0.74602 0.0
C1053 C 0.86279 0.50109 0.75623 0.0
C1054 C 0.80198 0.42573 0.77737 0.0
C1055 C 0.83437 0.4542 0.75853 0.0
C1056 C 0.78985 0.40148 0.77979 0.0
C1057 C 0.79509 0.38109 0.76515 0.0
C1058 C 0.81955 0.42934 0.7604 0.0
C1059 C 0.81199 0.38566 0.74777 0.0
C1060 C 0.85604 0.45606 0.74698 0.0
C1061 C 0.84087 0.49858 0.76735 0.0
N1062 N 0.82376 0.40925 0.74603 0.0
N1063 N 0.82745 0.47547 0.76838 0.0
H1064 H 0.97646 0.80349 0.08863 0.0
H1065 H 0.03917 0.94401 0.07443 0.0
H1066 H 0.02342 0.85083 0.14644 0.0
H1067 H 0.97355 0.91008 0.02837 0.0
H1068 H 0.03771 0.90631 0.09658 0.0
H1069 H 0.97844 0.83919 0.06262 0.0
C1070 C 0.98716 0.82137 0.09583 0.0
C1071 C 0.99978 0.82427 0.11974 0.0
C1072 C 0.02363 0.90698 0.08159 0.0
C1073 C 0.00237 0.86479 0.09009 0.0
C1074 C 0.0245 0.92847 0.06883 0.0
C1075 C 0.0063 0.93023 0.0497 0.0
C1076 C 0.00445 0.88689 0.07519 0.0
C1077 C 0.98788 0.90943 0.04309 0.0
C1078 C 0.98824 0.84167 0.08101 0.0
C1079 C 0.01335 0.84778 0.12819 0.0
N1080 N 0.98733 0.88854 0.05595 0.0
N1081 N 0.01438 0.86705 0.11334 0.0
H1082 H 0.96773 0.30458 0.80811 0.0
H1083 H 0.8294 0.23344 0.80019 0.0
H1084 H 0.94459 0.24348 0.8522 0.0
H1085 H 0.85048 0.30423 0.76949 0.0
H1086 H 0.87242 0.23279 0.81384 0.0
H1087 H 0.92582 0.30061 0.78839 0.0
C1088 C 0.95389 0.29014 0.81344 0.0
C1089 C 0.95965 0.27442 0.83192 0.0
C1090 C 0.86763 0.24835 0.80392 0.0
C1091 C 0.91158 0.2698 0.80946 0.0
C1092 C 0.84306 0.24867 0.79598 0.0
C1093 C 0.83622 0.26898 0.78374 0.0
C1094 C 0.88556 0.26838 0.79946 0.0
C1095 C 0.85481 0.28825 0.77899 0.0
C1096 C 0.92994 0.28794 0.80224 0.0
C1097 C 0.94094 0.25606 0.83811 0.0
N1098 N 0.87856 0.28751 0.78692 0.0
N1099 N 0.91775 0.25432 0.82698 0.0
H1100 H 0.52538 0.18457 0.6539 0.0
H1101 H 0.49188 0.09465 0.52847 0.0
H1102 H 0.47963 0.20306 0.59148 0.0
H1103 H 0.55411 0.09215 0.5812 0.0
H1104 H 0.48247 0.13066 0.55364 0.0
H1105 H 0.53122 0.14662 0.62988 0.0
C1106 C 0.51641 0.18055 0.63518 0.0
C1107 C 0.50209 0.19706 0.62462 0.0
C1108 C 0.49816 0.12218 0.55967 0.0
C1109 C 0.5087 0.15359 0.597 0.0
C1110 C 0.50347 0.10164 0.54539 0.0
C1111 C 0.52383 0.09054 0.5528 0.0
C1112 C 0.51319 0.13143 0.58159 0.0
C1113 C 0.53832 0.10028 0.57479 0.0
C1114 C 0.51983 0.15892 0.62145 0.0
C1115 C 0.4909 0.19087 0.60028 0.0
N1116 N 0.53269 0.12012 0.58844 0.0
N1117 N 0.49445 0.16961 0.58726 0.0
H1118 H 0.61737 0.81871 0.36665 0.0
H1119 H 0.67882 0.74699 0.26155 0.0
H1120 H 0.57738 0.76294 0.31125 0.0
H1121 H 0.7189 0.80824 0.31091 0.0
H1122 H 0.64191 0.75161 0.28111 0.0
H1123 H 0.655 0.81473 0.34768 0.0
C1124 C 0.61648 0.80575 0.35041 0.0
C1125 C 0.59419 0.79115 0.34049 0.0
C1126 C 0.65874 0.76406 0.28774 0.0
C1127 C 0.63718 0.78632 0.31887 0.0
C1128 C 0.67985 0.76138 0.27661 0.0
C1129 C 0.7019 0.77731 0.28458 0.0
C1130 C 0.65961 0.78281 0.30709 0.0
C1131 C 0.70223 0.79557 0.30423 0.0
C1132 C 0.63797 0.80345 0.33963 0.0
C1133 C 0.59412 0.7746 0.31949 0.0
N1134 N 0.68136 0.79786 0.31481 0.0
N1135 N 0.61526 0.77259 0.30947 0.0
H1136 H 0.99914 0.19955 0.46873 0.0
H1137 H 0.07525 0.10411 0.53459 0.0
H1138 H 0.078 0.21137 0.47715 0.0
H1139 H 0.99913 0.0861 0.50638 0.0
H1140 H 0.07664 0.14587 0.5189 0.0
H1141 H 0.9988 0.16043 0.48846 0.0
C1142 C 0.01642 0.19399 0.47492 0.0
C1143 C 0.03865 0.2086 0.47117 0.0
C1144 C 0.05967 0.13273 0.51618 0.0
C1145 C 0.03838 0.16372 0.49367 0.0
C1146 C 0.05887 0.10902 0.52514 0.0
C1147 C 0.03709 0.09177 0.52156 0.0
C1148 C 0.03844 0.13911 0.50392 0.0
C1149 C 0.01634 0.09884 0.50924 0.0
C1150 C 0.01621 0.17159 0.4861 0.0
C1151 C 0.06048 0.20054 0.47963 0.0
N1152 N 0.01751 0.12201 0.5009 0.0
N1153 N 0.05982 0.17851 0.49045 0.0
H1154 H 0.5505 0.24642 0.17536 0.0
H1155 H 0.68225 0.3246 0.22176 0.0
H1156 H 0.57626 0.32022 0.1532 0.0
H1157 H 0.65392 0.25403 0.24921 0.0
H1158 H 0.64255 0.32463 0.19848 0.0
H1159 H 0.58758 0.24963 0.20396 0.0
C1160 C 0.564 0.26329 0.17653 0.0
C1161 C 0.56047 0.28301 0.16181 0.0
C1162 C 0.64491 0.30926 0.20979 0.0
C1163 C 0.60279 0.28689 0.19447 0.0
C1164 C 0.66752 0.30928 0.22309 0.0
C1165 C 0.67126 0.28918 0.23716 0.0
C1166 C 0.62607 0.28887 0.21046 0.0
C1167 C 0.65169 0.26981 0.23844 0.0
C1168 C 0.58509 0.26517 0.19292 0.0
C1169 C 0.57838 0.30453 0.16414 0.0
N1170 N 0.62994 0.26999 0.225 0.0
N1171 N 0.59886 0.30585 0.18009 0.0
H1172 H 0.58047 0.85475 0.97092 0.0
H1173 H 0.49947 0.93803 0.0422 0.0
H1174 H 0.50987 0.82678 0.99387 0.0
H1175 H 0.56924 0.96723 0.01794 0.0
H1176 H 0.50742 0.89557 0.03301 0.0
H1177 H 0.58094 0.89417 0.9959 0.0
C1178 C 0.56527 0.85677 0.98154 0.0
C1179 C 0.54489 0.83775 0.97998 0.0
C1180 C 0.52117 0.91126 0.03006 0.0
C1181 C 0.54521 0.88263 0.0084 0.0
C1182 C 0.51665 0.93555 0.03535 0.0
C1183 C 0.53345 0.95623 0.03028 0.0
C1184 C 0.54252 0.90765 0.0194 0.0
C1185 C 0.55557 0.95184 0.02176 0.0
C1186 C 0.56552 0.87925 0.99578 0.0
C1187 C 0.52576 0.84118 0.99423 0.0
N1188 N 0.55927 0.92801 0.01614 0.0
N1189 N 0.52624 0.86333 0.00758 0.0
H1190 H 0.94035 0.74931 0.67202 0.0
H1191 H 0.8525 0.83544 0.72903 0.0
H1192 H 0.94079 0.82622 0.65521 0.0
H1193 H 0.86284 0.76378 0.75493 0.0
H1194 H 0.88647 0.8339 0.70368 0.0
H1195 H 0.91271 0.755 0.70347 0.0
C1196 C 0.93457 0.76739 0.67494 0.0
C1197 C 0.94267 0.78727 0.6609 0.0
C1198 C 0.88156 0.81871 0.71523 0.0
C1199 C 0.91116 0.79399 0.69691 0.0
C1200 C 0.8623 0.81968 0.72978 0.0
C1201 C 0.85485 0.79963 0.74386 0.0
C1202 C 0.89316 0.79743 0.71469 0.0
C1203 C 0.86799 0.77957 0.74418 0.0
C1204 C 0.91893 0.77069 0.69301 0.0
C1205 C 0.93483 0.81037 0.66557 0.0
N1206 N 0.88632 0.77882 0.72952 0.0
N1207 N 0.91935 0.81306 0.6831 0.0
H1208 H 0.09956 0.04452 0.84664 0.0
H1209 H 0.03758 0.97364 0.95525 0.0
H1210 H 0.11515 0.97292 0.86838 0.0
H1211 H 0.02601 0.04714 0.93535 0.0
H1212 H 0.06158 0.97022 0.92001 0.0
H1213 H 0.06924 0.04357 0.87633 0.0
C1214 C 0.09664 0.0286 0.85773 0.0
C1215 C 0.11005 0.00887 0.85519 0.0
C1216 C 0.05347 0.98693 0.92315 0.0
C1217 C 0.07512 0.00753 0.88917 0.0
C1218 C 0.03952 0.98879 0.94312 0.0
C1219 C 0.02992 0.01081 0.94841 0.0
C1220 C 0.05779 0.00722 0.90839 0.0
C1221 C 0.03325 0.0299 0.93215 0.0
C1222 C 0.07922 0.02801 0.87462 0.0
C1223 C 0.10534 0.98863 0.86991 0.0
N1224 N 0.0471 0.02777 0.91307 0.0
N1225 N 0.08831 0.98851 0.88634 0.0
H1226 H 0.72945 0.31302 0.57638 0.0
H1227 H 0.75503 0.32034 0.72489 0.0
H1228 H 0.7369 0.38164 0.62346 0.0
H1229 H 0.75457 0.25307 0.67786 0.0
H1230 H 0.74789 0.34296 0.68806 0.0
H1231 H 0.73734 0.29041 0.61322 0.0
C1232 C 0.7326 0.32332 0.59447 0.0
C1233 C 0.73247 0.34928 0.5968 0.0
C1234 C 0.74959 0.32331 0.68571 0.0
C1235 C 0.74166 0.32352 0.63914 0.0
C1236 C 0.75403 0.31048 0.7068 0.0
C1237 C 0.75609 0.28496 0.70446 0.0
C1238 C 0.74689 0.31049 0.662 0.0
C1239 C 0.75338 0.27282 0.68049 0.0
C1240 C 0.7372 0.31041 0.61551 0.0
C1241 C 0.73678 0.36163 0.62074 0.0
N1242 N 0.74893 0.28566 0.66022 0.0
N1243 N 0.7412 0.34868 0.64091 0.0
H1244 H 0.42331 0.09673 0.34471 0.0
H1245 H 0.5195 0.03353 0.42864 0.0
H1246 H 0.4669 0.04537 0.31432 0.0
H1247 H 0.46203 0.06774 0.45795 0.0
H1248 H 0.50457 0.04265 0.38686 0.0
H1249 H 0.44162 0.09145 0.38641 0.0
C1250 C 0.43696 0.08456 0.34677 0.0
C1251 C 0.44354 0.07143 0.32595 0.0
C1252 C 0.49531 0.04824 0.40246 0.0
C1253 C 0.46456 0.06524 0.37377 0.0
C1254 C 0.50388 0.04314 0.42637 0.0
C1255 C 0.492 0.04982 0.44694 0.0
C1256 C 0.47484 0.06038 0.39903 0.0
C1257 C 0.47174 0.06212 0.44271 0.0
C1258 C 0.4473 0.08145 0.37062 0.0
C1259 C 0.46125 0.05583 0.32982 0.0
N1260 N 0.46385 0.06701 0.4193 0.0
N1261 N 0.47111 0.05314 0.35323 0.0
H1262 H 0.80273 0.71602 0.05794 0.0
H1263 H 0.72525 0.76934 0.15957 0.0
H1264 H 0.72408 0.69899 0.054 0.0
H1265 H 0.80074 0.76011 0.1731 0.0
H1266 H 0.7257 0.75528 0.11568 0.0
H1267 H 0.80296 0.74434 0.09486 0.0
C1268 C 0.78548 0.71853 0.06465 0.0
C1269 C 0.76338 0.70479 0.05331 0.0
C1270 C 0.74223 0.75676 0.12824 0.0
C1271 C 0.76355 0.73706 0.09534 0.0
C1272 C 0.74199 0.76478 0.15315 0.0
C1273 C 0.76287 0.76538 0.16979 0.0
C1274 C 0.7636 0.74973 0.12016 0.0
C1275 C 0.78417 0.75945 0.16078 0.0
C1276 C 0.78564 0.73466 0.08568 0.0
C1277 C 0.74154 0.70896 0.06252 0.0
N1278 N 0.78395 0.75168 0.13653 0.0
N1279 N 0.74218 0.72455 0.08326 0.0
H1280 H 0.08396 0.01728 0.74735 0.0
H1281 H 0.06936 0.97135 0.60295 0.0
H1282 H 0.13359 0.97501 0.71351 0.0
H1283 H 0.03462 0.03038 0.63387 0.0
H1284 H 0.08693 0.96531 0.64482 0.0
H1285 H 0.05964 0.01501 0.70717 0.0
C1286 C 0.08959 0.00731 0.7315 0.0
C1287 C 0.11094 0.99657 0.73362 0.0
C1288 C 0.07526 0.9794 0.64243 0.0
C1289 C 0.08326 0.99388 0.68774 0.0
C1290 C 0.06519 0.98278 0.61862 0.0
C1291 C 0.0508 0.00155 0.61509 0.0
C1292 C 0.07067 0.99479 0.66272 0.0
C1293 C 0.04584 0.01585 0.63588 0.0
C1294 C 0.07575 0.00607 0.70859 0.0
C1295 C 0.11736 0.98376 0.71257 0.0
N1296 N 0.05589 0.01227 0.65884 0.0
N1297 N 0.10364 0.98289 0.69042 0.0
H1298 H 0.69636 0.32955 0.4596 0.0
H1299 H 0.78982 0.31709 0.35904 0.0
H1300 H 0.75992 0.38535 0.4558 0.0
H1301 H 0.71259 0.2925 0.33952 0.0
H1302 H 0.78105 0.33562 0.39893 0.0
H1303 H 0.70349 0.30964 0.41932 0.0
C1304 C 0.71171 0.33766 0.45027 0.0
C1305 C 0.72746 0.35926 0.46101 0.0
C1306 C 0.76604 0.32602 0.38597 0.0
C1307 C 0.73609 0.33621 0.41548 0.0
C1308 C 0.77103 0.31525 0.36327 0.0
C1309 C 0.75192 0.30313 0.34589 0.0
C1310 C 0.74179 0.32425 0.39168 0.0
C1311 C 0.72788 0.30168 0.35234 0.0
C1312 C 0.71575 0.32632 0.42734 0.0
C1313 C 0.74716 0.36889 0.44815 0.0
N1314 N 0.72349 0.31195 0.37478 0.0
N1315 N 0.75106 0.35717 0.42628 0.0
H1316 H 0.46887 0.09868 0.20482 0.0
H1317 H 0.48287 0.01167 0.08387 0.0
H1318 H 0.41498 0.03492 0.1758 0.0
H1319 H 0.52011 0.08799 0.09731 0.0
H1320 H 0.46053 0.01793 0.11998 0.0
H1321 H 0.49081 0.09333 0.16806 0.0
C1322 C 0.46164 0.08361 0.19073 0.0
C1323 C 0.44002 0.06728 0.19338 0.0
C1324 C 0.47349 0.03336 0.11495 0.0
C1325 C 0.46516 0.06082 0.1515 0.0
C1326 C 0.48611 0.02983 0.09422 0.0
C1327 C 0.50301 0.04946 0.08727 0.0
C1328 C 0.47815 0.05657 0.12919 0.0
C1329 C 0.50713 0.07237 0.10194 0.0
C1330 C 0.47414 0.08058 0.16975 0.0
C1331 C 0.43151 0.04804 0.17452 0.0
N1332 N 0.49488 0.07528 0.12223 0.0
N1333 N 0.44415 0.04525 0.15453 0.0
H1334 H 0.80731 0.69197 0.93675 0.0
H1335 H 0.73228 0.7699 0.84667 0.0
H1336 H 0.73157 0.69897 0.9404 0.0
H1337 H 0.80747 0.76201 0.84041 0.0
H1338 H 0.73408 0.74981 0.88547 0.0
H1339 H 0.80964 0.72202 0.90487 0.0
C1340 C 0.79119 0.69981 0.9308 0.0
C1341 C 0.76914 0.69278 0.94093 0.0
C1342 C 0.75032 0.75277 0.87582 0.0
C1343 C 0.77172 0.72727 0.90489 0.0
C1344 C 0.74933 0.76437 0.85371 0.0
C1345 C 0.76962 0.76721 0.84008 0.0
C1346 C 0.77166 0.74372 0.88421 0.0
C1347 C 0.79132 0.76 0.85023 0.0
C1348 C 0.79256 0.71706 0.91276 0.0
C1349 C 0.74887 0.70367 0.93285 0.0
N1350 N 0.79165 0.74814 0.87151 0.0
N1351 N 0.75063 0.72028 0.91523 0.0
H1352 H 0.83913 0.09266 0.02877 0.0
H1353 H 0.97187 0.07254 0.9939 0.0
H1354 H 0.88738 0.15091 0.99908 0.0
H1355 H 0.92934 0.02613 0.04098 0.0
H1356 H 0.94089 0.10052 0.99269 0.0
H1357 H 0.87128 0.06678 0.03006 0.0
C1358 C 0.85652 0.10003 0.02247 0.0
C1359 C 0.86051 0.12406 0.01383 0.0
C1360 C 0.93845 0.08426 0.00337 0.0
C1361 C 0.89768 0.09426 0.01517 0.0
C1362 C 0.95619 0.06839 0.00417 0.0
C1363 C 0.95331 0.04709 0.01775 0.0
C1364 C 0.91754 0.07855 0.01595 0.0
C1365 C 0.93233 0.04229 0.03025 0.0
C1366 C 0.87495 0.08523 0.02328 0.0
C1367 C 0.88351 0.13253 0.00594 0.0
N1368 N 0.91531 0.05777 0.02897 0.0
N1369 N 0.9012 0.11763 0.0067 0.0
H1370 H 0.3348 0.47826 0.08524 0.0
H1371 H 0.43239 0.54093 1.00055 0.0
H1372 H 0.31864 0.49277 0.00878 0.0
H1373 H 0.45085 0.51884 0.07405 0.0
H1374 H 0.38936 0.53331 0.00734 0.0
H1375 H 0.37564 0.50275 0.08532 0.0
C1376 C 0.33969 0.48702 0.06864 0.0
C1377 C 0.3236 0.48311 0.04681 0.0
C1378 C 0.40284 0.53046 0.02213 0.0
C1379 C 0.3701 0.51091 0.04671 0.0
C1380 C 0.42745 0.53478 0.01825 0.0
C1381 C 0.44521 0.5299 0.03652 0.0
C1382 C 0.39594 0.52097 0.04433 0.0
C1383 C 0.43774 0.52245 0.05928 0.0
C1384 C 0.36299 0.50094 0.06867 0.0
C1385 C 0.33071 0.49498 0.02587 0.0
N1386 N 0.4136 0.51778 0.06238 0.0
N1387 N 0.35356 0.50807 0.02623 0.0
H1388 H 0.36107 0.63758 0.77264 0.0
H1389 H 0.24697 0.70078 0.72605 0.0
H1390 H 0.30497 0.60132 0.71597 0.0
H1391 H 0.28575 0.7192 0.79896 0.0
H1392 H 0.2711 0.66744 0.7191 0.0
H1393 H 0.33723 0.67131 0.77918 0.0
C1394 C 0.34382 0.63682 0.76141 0.0
C1395 C 0.33497 0.61661 0.7437 0.0
C1396 C 0.27441 0.67882 0.7366 0.0
C1397 C 0.30765 0.65517 0.75114 0.0
C1398 C 0.26063 0.69783 0.74062 0.0
C1399 C 0.26474 0.71309 0.76299 0.0
C1400 C 0.29256 0.6751 0.75502 0.0
C1401 C 0.28265 0.70845 0.78117 0.0
C1402 C 0.33017 0.656 0.76529 0.0
C1403 C 0.31245 0.61654 0.7298 0.0
N1404 N 0.29604 0.68993 0.77675 0.0
N1405 N 0.29958 0.63559 0.73376 0.0
H1406 H 0.2301 0.62369 0.47604 0.0
H1407 H 0.13076 0.55654 0.55828 0.0
H1408 H 0.24389 0.61776 0.55476 0.0
H1409 H 0.1153 0.56776 0.4809 0.0
H1410 H 0.17333 0.57562 0.55656 0.0
H1411 H 0.18909 0.59999 0.47666 0.0
C1412 C 0.22455 0.61723 0.49344 0.0
C1413 C 0.24039 0.62277 0.51541 0.0
C1414 C 0.16068 0.57381 0.53991 0.0
C1415 C 0.19342 0.5957 0.51628 0.0
C1416 C 0.13641 0.56289 0.54089 0.0
C1417 C 0.11955 0.56071 0.51972 0.0
C1418 C 0.16813 0.58261 0.5176 0.0
C1419 C 0.12776 0.56918 0.49765 0.0
C1420 C 0.20111 0.60374 0.49379 0.0
C1421 C 0.23224 0.61396 0.53741 0.0
N1422 N 0.15146 0.57986 0.49718 0.0
N1423 N 0.20929 0.60094 0.5373 0.0
H1424 H 0.68626 0.94586 0.81389 0.0
H1425 H 0.70876 0.81532 0.75009 0.0
H1426 H 0.63139 0.8969 0.76448 0.0
H1427 H 0.7584 0.85814 0.80874 0.0
H1428 H 0.68006 0.84467 0.75527 0.0
H1429 H 0.71276 0.9139 0.8125 0.0
C1430 C 0.6797 0.92829 0.80288 0.0
C1431 C 0.65658 0.92407 0.78923 0.0
C1432 C 0.69712 0.84756 0.76718 0.0
C1433 C 0.68699 0.88741 0.78735 0.0
C1434 C 0.71346 0.83069 0.76434 0.0
C1435 C 0.73587 0.83412 0.77924 0.0
C1436 C 0.70335 0.86827 0.78484 0.0
C1437 C 0.74129 0.85479 0.79691 0.0
C1438 C 0.69487 0.91004 0.80209 0.0
C1439 C 0.64907 0.90094 0.7753 0.0
N1440 N 0.72521 0.87115 0.79915 0.0
N1441 N 0.66429 0.88357 0.77457 0.0
H1442 H 0.69648 0.93458 0.49145 0.0
H1443 H 0.62607 0.05025 0.51379 0.0
H1444 H 0.71659 0.99148 0.55246 0.0
H1445 H 0.59291 0.98054 0.47263 0.0
H1446 H 0.66484 0.0343 0.51891 0.0
H1447 H 0.66339 0.95633 0.47641 0.0
C1448 C 0.69396 0.95171 0.50163 0.0
C1449 C 0.70902 0.96114 0.52341 0.0
C1450 C 0.64918 0.02273 0.50836 0.0
C1451 C 0.67159 0.98619 0.50609 0.0
C1452 C 0.62716 0.03187 0.50523 0.0
C1453 C 0.60632 0.01647 0.49309 0.0
C1454 C 0.65024 0.99817 0.49908 0.0
C1455 C 0.6086 0.99284 0.48233 0.0
C1456 C 0.67516 0.96411 0.49299 0.0
C1457 C 0.70514 0.98346 0.53578 0.0
N1458 N 0.63016 0.98424 0.48584 0.0
N1459 N 0.6867 0.99525 0.52696 0.0
H1460 H 0.31964 0.47686 0.70837 0.0
H1461 H 0.28348 0.37333 0.80343 0.0
H1462 H 0.32924 0.4916 0.78799 0.0
H1463 H 0.28102 0.35637 0.72435 0.0
H1464 H 0.29563 0.41771 0.79762 0.0
H1465 H 0.30055 0.43376 0.71336 0.0
C1466 C 0.31741 0.47113 0.72687 0.0
C1467 C 0.32615 0.48778 0.74779 0.0
C1468 C 0.2923 0.4043 0.78152 0.0
C1469 C 0.30455 0.43851 0.75368 0.0
C1470 C 0.28533 0.37891 0.78481 0.0
C1471 C 0.28135 0.36098 0.76437 0.0
C1472 C 0.29533 0.41192 0.75759 0.0
C1473 C 0.28401 0.36944 0.74069 0.0
C1474 C 0.30664 0.4465 0.72973 0.0
C1475 C 0.32287 0.47935 0.77134 0.0
N1476 N 0.29093 0.39426 0.73798 0.0
N1477 N 0.31248 0.45529 0.77365 0.0
H1478 H 0.17627 0.55519 0.31887 0.0
H1479 H 0.23976 0.65972 0.23734 0.0
H1480 H 0.16243 0.55256 0.23917 0.0
H1481 H 0.23232 0.67365 0.31514 0.0
H1482 H 0.21851 0.61669 0.23858 0.0
H1483 H 0.20359 0.59527 0.31851 0.0
C1484 C 0.17912 0.56297 0.3013 0.0
C1485 C 0.16697 0.55067 0.27903 0.0
C1486 C 0.22175 0.6291 0.25542 0.0
C1487 C 0.19828 0.59626 0.27848 0.0
C1488 C 0.23399 0.65356 0.25476 0.0
C1489 C 0.23762 0.67019 0.27615 0.0
C1490 C 0.21334 0.62122 0.27768 0.0
C1491 C 0.22974 0.66137 0.29823 0.0
C1492 C 0.19465 0.58583 0.30112 0.0
C1493 C 0.17131 0.56155 0.25677 0.0
N1494 N 0.21788 0.63747 0.29842 0.0
N1495 N 0.18662 0.58373 0.25706 0.0
H1496 H 0.5616 0.71517 0.40206 0.0
H1497 H 0.50363 0.63621 0.50746 0.0
H1498 H 0.50831 0.74038 0.44632 0.0
H1499 H 0.56645 0.61972 0.4727 0.0
H1500 H 0.50493 0.67456 0.48562 0.0
H1501 H 0.56333 0.67994 0.4277 0.0
C1502 C 0.55028 0.7133 0.41723 0.0
C1503 C 0.53471 0.73066 0.42202 0.0
C1504 C 0.51858 0.66269 0.48296 0.0
C1505 C 0.53655 0.69029 0.45145 0.0
C1506 C 0.51787 0.64085 0.49545 0.0
C1507 C 0.53496 0.62484 0.49182 0.0
C1508 C 0.53637 0.66836 0.46655 0.0
C1509 C 0.55295 0.6316 0.47599 0.0
C1510 C 0.55134 0.69322 0.43192 0.0
C1511 C 0.52054 0.72738 0.44197 0.0
N1512 N 0.55307 0.65274 0.46379 0.0
N1513 N 0.52167 0.70748 0.45587 0.0
H1514 H 0.57963 0.31534 0.69281 0.0
H1515 H 0.67431 0.25042 0.77602 0.0
H1516 H 0.55935 0.24744 0.72858 0.0
H1517 H 0.69416 0.32152 0.74546 0.0
H1518 H 0.63169 0.25061 0.76109 0.0
H1519 H 0.62101 0.31951 0.714 0.0
C1520 C 0.58381 0.30145 0.70533 0.0
C1521 C 0.566 0.28095 0.70885 0.0
C1522 C 0.6453 0.26632 0.75784 0.0
C1523 C 0.61344 0.28549 0.73303 0.0
C1524 C 0.66972 0.26625 0.76641 0.0
C1525 C 0.68799 0.28596 0.76195 0.0
C1526 C 0.63896 0.28612 0.74447 0.0
C1527 C 0.68077 0.30594 0.7494 0.0
C1528 C 0.60746 0.30383 0.71741 0.0
C1529 C 0.57248 0.26352 0.72527 0.0
N1530 N 0.65688 0.30539 0.74091 0.0
N1531 N 0.59567 0.26608 0.73658 0.0
H1532 H 0.04813 0.3528 0.94553 0.0
H1533 H 0.96669 0.46143 0.95421 0.0
H1534 H 0.99884 0.36876 0.88473 0.0
H1535 H 0.02848 0.45862 0.0074 0.0
H1536 H 0.97733 0.4262 0.92939 0.0
H1537 H 0.04072 0.39048 0.96933 0.0
C1538 C 0.0359 0.36432 0.93714 0.0
C1539 C 0.02403 0.35762 0.91315 0.0
C1540 C 0.98868 0.43333 0.94641 0.0
C1541 C 0.01528 0.40048 0.9403 0.0
C1542 C 0.98254 0.45336 0.96062 0.0
C1543 C 0.99676 0.46288 0.98281 0.0
C1544 C 0.00902 0.42249 0.95462 0.0
C1545 C 0.01714 0.45185 0.99028 0.0
C1546 C 0.03169 0.38581 0.95071 0.0
C1547 C 0.00837 0.37321 0.90316 0.0
N1548 N 0.02261 0.43209 0.97627 0.0
N1549 N 0.00431 0.39377 0.91684 0.0
H1550 H 0.95372 0.75457 0.2373 0.0
H1551 H 0.81966 0.79012 0.22984 0.0
H1552 H 0.91545 0.77281 0.16986 0.0
H1553 H 0.84797 0.75048 0.28952 0.0
H1554 H 0.85575 0.7861 0.20864 0.0
H1555 H 0.91647 0.75533 0.25804 0.0
C1556 C 0.93749 0.75871 0.22687 0.0
C1557 C 0.93768 0.76368 0.20184 0.0
C1558 C 0.85403 0.77808 0.22627 0.0
C1559 C 0.89516 0.76472 0.22542 0.0
C1560 C 0.83333 0.78023 0.23832 0.0
C1561 C 0.83065 0.7703 0.26131 0.0
C1562 C 0.87249 0.7663 0.23746 0.0
C1563 C 0.84928 0.75828 0.27174 0.0
C1564 C 0.91624 0.75905 0.23868 0.0
C1565 C 0.91613 0.76887 0.18917 0.0
N1566 N 0.86952 0.75674 0.25981 0.0
N1567 N 0.89582 0.7694 0.20113 0.0
H1568 H 0.49611 0.36843 0.11285 0.0
H1569 H 0.51911 0.43758 0.98951 0.0
H1570 H 0.50552 0.32899 0.04363 0.0
H1571 H 0.49469 0.47194 0.05452 0.0
H1572 H 0.51727 0.3981 0.00961 0.0
H1573 H 0.49888 0.4074 0.09243 0.0
C1574 C 0.49876 0.368 0.09332 0.0
C1575 C 0.50053 0.34552 0.07985 0.0
C1576 C 0.51239 0.41433 0.01946 0.0
C1577 C 0.50376 0.38998 0.05638 0.0
C1578 C 0.51345 0.43677 0.00803 0.0
C1579 C 0.50731 0.45796 0.02057 0.0
C1580 C 0.50519 0.41328 0.04354 0.0
C1581 C 0.50002 0.45611 0.04446 0.0
C1582 C 0.5003 0.39023 0.08166 0.0
C1583 C 0.50399 0.34598 0.05463 0.0
N1584 N 0.49921 0.43414 0.0552 0.0
N1585 N 0.50553 0.36793 0.04366 0.0
H1586 H 0.95813 0.23032 0.38675 0.0
H1587 H 0.88207 0.30725 0.29575 0.0
H1588 H 0.98375 0.30628 0.37028 0.0
H1589 H 0.85164 0.23755 0.32354 0.0
H1590 H 0.92174 0.30436 0.31791 0.0
H1591 H 0.921 0.2301 0.35896 0.0
C1592 C 0.95594 0.24693 0.37723 0.0
C1593 C 0.97388 0.26843 0.38093 0.0
C1594 C 0.90643 0.2896 0.319 0.0
C1595 C 0.9316 0.26827 0.34909 0.0
C1596 C 0.88387 0.29119 0.30629 0.0
C1597 C 0.86366 0.27271 0.30808 0.0
C1598 C 0.90868 0.26934 0.33347 0.0
C1599 C 0.86683 0.25227 0.32189 0.0
C1600 C 0.93477 0.24679 0.36138 0.0
C1601 C 0.97023 0.28939 0.36806 0.0
N1602 N 0.88892 0.25119 0.33421 0.0
N1603 N 0.94944 0.28881 0.35273 0.0
H1604 H 0.95097 0.70042 0.56579 0.0
H1605 H 0.03548 0.61359 0.50353 0.0
H1606 H 0.0251 0.72569 0.55072 0.0
H1607 H 0.96402 0.58579 0.52473 0.0
H1608 H 0.02817 0.65636 0.51221 0.0
H1609 H 0.9519 0.66016 0.54284 0.0
C1610 C 0.96729 0.69762 0.55733 0.0
C1611 C 0.98812 0.71621 0.56046 0.0
C1612 C 0.01393 0.64091 0.51462 0.0
C1613 C 0.98936 0.67035 0.53432 0.0
C1614 C 0.01807 0.61645 0.50961 0.0
C1615 C 1.00053 0.59603 0.51386 0.0
C1616 C 0.99217 0.64503 0.52414 0.0
C1617 C 0.97819 0.60094 0.52145 0.0
C1618 C 0.96783 0.67465 0.54427 0.0
C1619 C 0.00875 0.71171 0.54903 0.0
N1620 N 0.97481 0.62495 0.52674 0.0
N1621 N 0.00894 0.68915 0.53669 0.0
H1622 H 0.57188 0.79678 0.85173 0.0
H1623 H 0.67124 0.71701 0.80645 0.0
H1624 H 0.60378 0.74425 0.89578 0.0
H1625 H 0.65198 0.781 0.77046 0.0
H1626 H 0.64064 0.72153 0.83523 0.0
H1627 H 0.59659 0.78718 0.81854 0.0
C1628 C 0.58423 0.78336 0.85447 0.0
C1629 C 0.58599 0.77143 0.87657 0.0
C1630 C 0.64287 0.73435 0.8208 0.0
C1631 C 0.61387 0.76002 0.83859 0.0
C1632 C 0.66011 0.7316 0.80422 0.0
C1633 C 0.66417 0.74879 0.78626 0.0
C1634 C 0.62966 0.75438 0.81926 0.0
C1635 C 0.64941 0.76743 0.78417 0.0
C1636 C 0.5982 0.77778 0.83548 0.0
C1637 C 0.60207 0.75403 0.8791 0.0
N1638 N 0.63294 0.76992 0.8007 0.0
N1639 N 0.61539 0.74881 0.86029 0.0
H1640 H 0.42029 0.51259 0.68851 0.0
H1641 H 0.49188 0.58126 0.58452 0.0
H1642 H 0.41996 0.59042 0.67592 0.0
H1643 H 0.49535 0.50498 0.60156 0.0
H1644 H 0.46768 0.58604 0.61929 0.0
H1645 H 0.44901 0.51021 0.65755 0.0
C1646 C 0.42623 0.5292 0.67916 0.0
C1647 C 0.41761 0.55171 0.68471 0.0
C1648 C 0.47399 0.56836 0.61559 0.0
C1649 C 0.4507 0.54916 0.6492 0.0
C1650 C 0.48797 0.56564 0.5958 0.0
C1651 C 0.49562 0.54261 0.58995 0.0
C1652 C 0.46751 0.54789 0.6296 0.0
C1653 C 0.48982 0.52305 0.60523 0.0
C1654 C 0.44274 0.52786 0.66154 0.0
C1655 C 0.42606 0.57266 0.67211 0.0
N1656 N 0.47595 0.52607 0.62417 0.0
N1657 N 0.44209 0.57086 0.65487 0.0
H1658 H 0.81878 0.24078 0.96307 0.0
H1659 H 0.74803 0.23624 0.82646 0.0
H1660 H 0.77558 0.17313 0.92639 0.0
H1661 H 0.80371 0.29708 0.85855 0.0
H1662 H 0.75568 0.21319 0.86335 0.0
H1663 H 0.81138 0.26233 0.92549 0.0
C1664 C 0.80781 0.23043 0.94708 0.0
C1665 C 0.79788 0.20508 0.94791 0.0
C1666 C 0.76624 0.23158 0.86224 0.0
C1667 C 0.78904 0.22974 0.90472 0.0
C1668 C 0.76188 0.24468 0.84117 0.0
C1669 C 0.77531 0.26857 0.83936 0.0
C1670 C 0.78395 0.2426 0.8817 0.0
C1671 C 0.79289 0.27874 0.85911 0.0
C1672 C 0.80356 0.24274 0.92559 0.0
C1673 C 0.78371 0.19266 0.92657 0.0
N1674 N 0.79662 0.2658 0.87938 0.0
N1675 N 0.77962 0.2051 0.90593 0.0
H1676 H 0.04889 0.50497 0.22335 0.0
H1677 H 0.05768 0.48446 0.07763 0.0
H1678 H 0.09584 0.45827 0.19127 0.0
H1679 H 0.99964 0.51721 0.10756 0.0
H1680 H 0.07187 0.47505 0.11933 0.0
H1681 H 0.03029 0.50974 0.18151 0.0
C1682 C 0.05508 0.49548 0.20755 0.0
C1683 C 0.074 0.48124 0.21084 0.0
C1684 C 0.05592 0.48414 0.1168 0.0
C1685 C 0.05305 0.48691 0.16289 0.0
C1686 C 0.04782 0.4896 0.09295 0.0
C1687 C 0.02742 0.5017 0.089 0.0
C1688 C 0.04379 0.49109 0.13708 0.0
C1689 C 0.01539 0.50778 0.10966 0.0
C1690 C 0.04449 0.49824 0.18366 0.0
C1691 C 0.08134 0.46943 0.18966 0.0
N1692 N 0.02387 0.50261 0.13282 0.0
N1693 N 0.07103 0.47271 0.16665 0.0
H1694 H 0.74131 0.85116 0.48998 0.0
H1695 H 0.81767 0.83216 0.37514 0.0
H1696 H 0.81226 0.89386 0.48326 0.0
H1697 H 0.74471 0.79329 0.3798 0.0
H1698 H 0.81879 0.85012 0.41779 0.0
H1699 H 0.74506 0.82491 0.45276 0.0
C1700 C 0.75777 0.85485 0.48076 0.0
C1701 C 0.77636 0.87488 0.48939 0.0
C1702 C 0.80262 0.83747 0.40957 0.0
C1703 C 0.78072 0.8451 0.44687 0.0
C1704 C 0.80199 0.82726 0.38529 0.0
C1705 C 0.78095 0.81157 0.37404 0.0
C1706 C 0.78201 0.83197 0.4225 0.0
C1707 C 0.76118 0.80556 0.38787 0.0
C1708 C 0.75991 0.83987 0.45954 0.0
C1709 C 0.7974 0.87874 0.47699 0.0
N1710 N 0.76209 0.81598 0.41138 0.0
N1711 N 0.79892 0.86411 0.45614 0.0
H1712 H 0.40004 0.58365 0.82805 0.0
H1713 H 0.49513 0.51227 0.90082 0.0
H1714 H 0.4435 0.53627 0.79115 0.0
H1715 H 0.46565 0.57362 0.93483 0.0
H1716 H 0.4767 0.52099 0.8603 0.0
H1717 H 0.42428 0.58078 0.86731 0.0
C1718 C 0.41485 0.57283 0.8282 0.0
C1719 C 0.4197 0.56001 0.80643 0.0
C1720 C 0.47443 0.53269 0.87659 0.0
C1721 C 0.44728 0.55643 0.8512 0.0
C1722 C 0.48486 0.52766 0.89967 0.0
C1723 C 0.48166 0.54215 0.92106 0.0
C1724 C 0.4605 0.55215 0.87502 0.0
C1725 C 0.46837 0.56195 0.9187 0.0
C1726 C 0.42869 0.57123 0.85059 0.0
C1727 C 0.43914 0.54636 0.80758 0.0
N1728 N 0.45805 0.56624 0.89607 0.0
N1729 N 0.45207 0.54468 0.82969 0.0
H1730 H 0.7676 0.22517 0.06714 0.0
H1731 H 0.81897 0.25324 0.211 0.0
H1732 H 0.83505 0.20454 0.09825 0.0
H1733 H 0.7503 0.27154 0.18016 0.0
H1734 H 0.82644 0.23783 0.16955 0.0
H1735 H 0.7624 0.24481 0.10775 0.0
C1736 C 0.78147 0.22498 0.08245 0.0
C1737 C 0.8018 0.21314 0.07921 0.0
C1738 C 0.80979 0.24534 0.1718 0.0
C1739 C 0.79583 0.23549 0.12604 0.0
C1740 C 0.80551 0.25424 0.19553 0.0
C1741 C 0.78393 0.26379 0.19925 0.0
C1742 C 0.79241 0.24592 0.15145 0.0
C1743 C 0.76719 0.26439 0.17833 0.0
C1744 C 0.77844 0.23615 0.1057 0.0
C1745 C 0.8191 0.21345 0.09983 0.0
N1746 N 0.77175 0.25554 0.15544 0.0
N1747 N 0.81567 0.22431 0.12233 0.0
H1748 H 0.09571 0.53107 0.351 0.0
H1749 H 0.01221 0.46433 0.4481 0.0
H1750 H 0.06507 0.45238 0.34319 0.0
H1751 H 0.04649 0.54188 0.45839 0.0
H1752 H 0.0312 0.4597 0.40961 0.0
H1753 H 0.0775 0.53552 0.38996 0.0
C1754 C 0.08507 0.51471 0.35744 0.0
C1755 C 0.08188 0.4913 0.34374 0.0
C1756 C 0.03467 0.47773 0.42027 0.0
C1757 C 0.06096 0.49629 0.38854 0.0
C1758 C 0.02382 0.4804 0.44227 0.0
C1759 C 0.0278 0.50353 0.45647 0.0
C1760 C 0.04958 0.4984 0.41225 0.0
C1761 C 0.04306 0.52368 0.44808 0.0
C1762 C 0.07472 0.51727 0.37976 0.0
C1763 C 0.06798 0.47078 0.35309 0.0
N1764 N 0.05333 0.52067 0.42648 0.0
N1765 N 0.05803 0.47376 0.37487 0.0
H1766 H 0.71997 0.87918 0.60712 0.0
H1767 H 0.78314 0.77882 0.67907 0.0
H1768 H 0.7914 0.86161 0.59624 0.0
H1769 H 0.71104 0.79417 0.69037 0.0
H1770 H 0.78307 0.80362 0.64324 0.0
H1771 H 0.71372 0.84433 0.63374 0.0
C1772 C 0.73433 0.86805 0.61042 0.0
C1773 C 0.75635 0.87346 0.59981 0.0
C1774 C 0.76705 0.80123 0.65326 0.0
C1775 C 0.74924 0.83349 0.62971 0.0
C1776 C 0.76703 0.78691 0.67362 0.0
C1777 C 0.74727 0.78486 0.68794 0.0
C1778 C 0.74732 0.81388 0.64746 0.0
C1779 C 0.72675 0.79546 0.67992 0.0
C1780 C 0.73069 0.84805 0.62539 0.0
C1781 C 0.77425 0.85828 0.60432 0.0
N1782 N 0.72752 0.81003 0.66048 0.0
N1783 N 0.77034 0.83908 0.61901 0.0
H1784 H 0.64036 0.40333 0.52214 0.0
H1785 H 0.60252 0.53694 0.56099 0.0
H1786 H 0.69317 0.46786 0.5514 0.0
H1787 H 0.55563 0.47782 0.5144 0.0
H1788 H 0.63495 0.51067 0.56254 0.0
H1789 H 0.60793 0.42902 0.52406 0.0
C1790 C 0.64514 0.42289 0.52902 0.0
C1791 C 0.66957 0.43344 0.53649 0.0
C1792 C 0.61744 0.50341 0.5522 0.0
C1793 C 0.63242 0.46305 0.53892 0.0
C1794 C 0.59891 0.51836 0.55142 0.0
C1795 C 0.57615 0.50947 0.53787 0.0
C1796 C 0.6131 0.47936 0.53946 0.0
C1797 C 0.57263 0.48531 0.52554 0.0
C1798 C 0.62661 0.43758 0.53009 0.0
C1799 C 0.67462 0.45894 0.54531 0.0
N1800 N 0.59078 0.47118 0.52667 0.0
N1801 N 0.65625 0.47284 0.54631 0.0
H1802 H 0.21997 0.08019 0.52991 0.0
H1803 H 0.0853 0.04874 0.46404 0.0
H1804 H 0.19984 0.10011 0.45603 0.0
H1805 H 0.10924 0.01828 0.53198 0.0
H1806 H 0.12791 0.06291 0.45787 0.0
H1807 H 0.18071 0.05274 0.52837 0.0
C1808 C 0.20735 0.07851 0.51323 0.0
C1809 C 0.21288 0.09268 0.49323 0.0
C1810 C 0.12383 0.05276 0.47391 0.0
C1811 C 0.16785 0.06163 0.49141 0.0
C1812 C 0.09949 0.04469 0.47748 0.0
C1813 C 0.09368 0.03279 0.49885 0.0
C1814 C 0.1424 0.04909 0.49196 0.0
C1815 C 0.11283 0.02779 0.51545 0.0
C1816 C 0.18496 0.0628 0.51232 0.0
C1817 C 0.19609 0.08964 0.47194 0.0
N1818 N 0.13633 0.03631 0.51185 0.0
N1819 N 0.17408 0.07474 0.47175 0.0
H1820 H 0.23197 0.97064 0.8146 0.0
H1821 H 0.2235 0.82491 0.77203 0.0
H1822 H 0.1648 0.92059 0.78957 0.0
H1823 H 0.29129 0.8721 0.79922 0.0
H1824 H 0.20198 0.86023 0.7779 0.0
H1825 H 0.25439 0.93529 0.80969 0.0
C1826 C 0.22194 0.9522 0.80829 0.0
C1827 C 0.1965 0.94854 0.80245 0.0
C1828 C 0.22162 0.86308 0.78236 0.0
C1829 C 0.22195 0.9082 0.79658 0.0
C1830 C 0.23393 0.84289 0.77844 0.0
C1831 C 0.25922 0.84572 0.78414 0.0
C1832 C 0.23473 0.88643 0.79226 0.0
C1833 C 0.27173 0.86924 0.79423 0.0
C1834 C 0.23473 0.93207 0.80541 0.0
C1835 C 0.1844 0.9243 0.79425 0.0
N1836 N 0.25938 0.88878 0.79789 0.0
N1837 N 0.19723 0.90513 0.79148 0.0
H1838 H 0.28304 0.94688 0.99718 0.0
H1839 H 0.41958 0.97996 0.06496 0.0
H1840 H 0.30618 0.92127 0.06779 0.0
H1841 H 0.40014 0.99699 0.98995 0.0
H1842 H 0.37695 0.96208 0.06775 0.0
H1843 H 0.32474 0.969 0.99553 0.0
C1844 C 0.29685 0.94606 0.01239 0.0
C1845 C 0.2912 0.93216 0.0326 0.0
C1846 C 0.38194 0.96978 0.05068 0.0
C1847 C 0.33879 0.95733 0.03087 0.0
C1848 C 0.40627 0.98001 0.04911 0.0
C1849 C 0.41333 0.9898 0.02716 0.0
C1850 C 0.36452 0.96936 0.03014 0.0
C1851 C 0.39538 0.98951 0.00719 0.0
C1852 C 0.32063 0.95862 0.01142 0.0
C1853 C 0.30976 0.93167 0.0518 0.0
N1854 N 0.37177 0.97937 0.00912 0.0
N1855 N 0.33269 0.94402 0.05043 0.0
H1856 H 0.89001 0.65678 0.76759 0.0
H1857 H 0.7603 0.69191 0.71764 0.0
H1858 H 0.83611 0.60683 0.71802 0.0
H1859 H 0.80792 0.73324 0.77865 0.0
H1860 H 0.7899 0.66304 0.71356 0.0
H1861 H 0.86249 0.68793 0.76745 0.0
C1862 C 0.8725 0.65247 0.75646 0.0
C1863 C 0.86531 0.62913 0.74289 0.0
C1864 C 0.79395 0.67857 0.7277 0.0
C1865 C 0.83362 0.66464 0.74273 0.0
C1866 C 0.77707 0.69503 0.73001 0.0
C1867 C 0.78182 0.71518 0.7483 0.0
C1868 C 0.81573 0.68235 0.74377 0.0
C1869 C 0.80378 0.71831 0.76393 0.0
C1870 C 0.85673 0.67021 0.75648 0.0
C1871 C 0.84236 0.62455 0.72883 0.0
N1872 N 0.81989 0.70211 0.76131 0.0
N1873 N 0.82731 0.64209 0.72918 0.0
H1874 H 0.83062 0.62669 0.05433 0.0
H1875 H 0.89322 0.50831 0.01798 0.0
H1876 H 0.80971 0.5786 0.98675 0.0
H1877 H 0.92906 0.57122 0.06786 0.0
H1878 H 0.85618 0.52755 0.0146 0.0
H1879 H 0.86113 0.60061 0.06663 0.0
C1880 C 0.83242 0.61058 0.04213 0.0
C1881 C 0.81793 0.60492 0.01934 0.0
C1882 C 0.87201 0.53686 0.02666 0.0
C1883 C 0.85233 0.57491 0.03347 0.0
C1884 C 0.89302 0.5258 0.02878 0.0
C1885 C 0.91416 0.53845 0.04296 0.0
C1886 C 0.87228 0.56052 0.039 0.0
C1887 C 0.9131 0.56107 0.05655 0.0
C1888 C 0.84973 0.59571 0.0492 0.0
C1889 C 0.8208 0.58377 0.00431 0.0
N1890 N 0.89253 0.57158 0.05402 0.0
N1891 N 0.83775 0.56951 0.01163 0.0
H1892 H 0.20017 0.07271 0.7542 0.0
H1893 H 0.25037 0.20913 0.82178 0.0
H1894 H 0.2058 0.08909 0.83352 0.0
H1895 H 0.24727 0.19162 0.74272 0.0
H1896 H 0.23649 0.16487 0.82677 0.0
H1897 H 0.21989 0.11556 0.75001 0.0
C1898 C 0.20577 0.08528 0.77078 0.0
C1899 C 0.20124 0.07735 0.79425 0.0
C1900 C 0.23899 0.17067 0.80835 0.0
C1901 C 0.22368 0.12661 0.78956 0.0
C1902 C 0.24693 0.19599 0.80545 0.0
C1903 C 0.2499 0.20422 0.78174 0.0
C1904 C 0.23385 0.15337 0.78739 0.0
C1905 C 0.2452 0.18622 0.76134 0.0
C1906 C 0.21701 0.10978 0.76837 0.0
C1907 C 0.20892 0.09443 0.81508 0.0
N1908 N 0.23728 0.16171 0.76463 0.0
N1909 N 0.2196 0.11831 0.81223 0.0
H1910 H 0.36874 0.98441 0.22407 0.0
H1911 H 0.28338 0.8922 0.30125 0.0
H1912 H 0.34523 0.00787 0.29411 0.0
H1913 H 0.30453 0.87137 0.22937 0.0
H1914 H 0.30393 0.9353 0.29834 0.0
H1915 H 0.34384 0.94333 0.22521 0.0
C1916 C 0.3583 0.98091 0.2397 0.0
C1917 C 0.35913 0.99953 0.25908 0.0
C1918 C 0.30388 0.92134 0.28312 0.0
C1919 C 0.3305 0.95246 0.26054 0.0
C1920 C 0.29208 0.89681 0.28474 0.0
C1921 C 0.2924 0.87828 0.26557 0.0
C1922 C 0.31609 0.92723 0.2622 0.0
C1923 C 0.30396 0.88512 0.24461 0.0
C1924 C 0.34402 0.95745 0.24032 0.0
C1925 C 0.34515 0.99399 0.27882 0.0
N1926 N 0.31547 0.90899 0.24356 0.0
N1927 N 0.33147 0.9709 0.2791 0.0
H1928 H 0.45947 0.31979 0.60909 0.0
H1929 H 0.54199 0.43156 0.55453 0.0
H1930 H 0.53748 0.32465 0.60905 0.0
H1931 H 0.4647 0.41272 0.53189 0.0
H1932 H 0.5405 0.39247 0.57478 0.0
H1933 H 0.46045 0.35382 0.58131 0.0
C1934 C 0.47677 0.32792 0.60311 0.0
C1935 C 0.49846 0.31951 0.61151 0.0
C1936 C 0.52389 0.39664 0.56513 0.0
C1937 C 0.49972 0.35848 0.57993 0.0
C1938 C 0.52474 0.41895 0.55357 0.0
C1939 C 0.50342 0.42529 0.5416 0.0
C1940 C 0.50144 0.38076 0.56521 0.0
C1941 C 0.48154 0.40837 0.54087 0.0
C1942 C 0.47729 0.34724 0.58718 0.0
C1943 C 0.52035 0.3306 0.60309 0.0
N1944 N 0.48102 0.38698 0.55289 0.0
N1945 N 0.52045 0.34968 0.588 0.0
H1946 H 0.47111 0.80559 0.31026 0.0
H1947 H 0.33338 0.73265 0.29967 0.0
H1948 H 0.44743 0.7447 0.35439 0.0
H1949 H 0.35386 0.80382 0.26944 0.0
H1950 H 0.37627 0.73281 0.3142 0.0
H1951 H 0.42945 0.80121 0.28972 0.0
C1952 C 0.4572 0.79112 0.31544 0.0
C1953 C 0.46272 0.77556 0.33415 0.0
C1954 C 0.37139 0.74828 0.30419 0.0
C1955 C 0.41501 0.77046 0.31073 0.0
C1956 C 0.3469 0.74815 0.29574 0.0
C1957 C 0.33991 0.76832 0.28337 0.0
C1958 C 0.38913 0.76864 0.30013 0.0
C1959 C 0.35832 0.78793 0.279 0.0
C1960 C 0.43341 0.78869 0.30377 0.0
C1961 C 0.44396 0.75716 0.34014 0.0
N1962 N 0.38204 0.78764 0.28744 0.0
N1963 N 0.42095 0.75517 0.32853 0.0
H1964 H 0.03232 0.71788 0.09861 0.0
H1965 H 0.99286 0.56901 0.0741 0.0
H1966 H 0.97801 0.6749 0.13732 0.0
H1967 H 0.04282 0.61303 0.03184 0.0
H1968 H 0.98626 0.60756 0.09684 0.0
H1969 H 0.03585 0.67976 0.07352 0.0
C1970 C 0.0211 0.7004 0.1018 0.0
C1971 C 0.0049 0.69952 0.12012 0.0
C1972 C 0.99842 0.60888 0.08238 0.0
C1973 C 0.00888 0.65575 0.0915 0.0
C1974 C 0.00189 0.58691 0.06919 0.0
C1975 C 0.01772 0.58811 0.05062 0.0
C1976 C 0.01124 0.63211 0.07714 0.0
C1977 C 0.03018 0.61153 0.04586 0.0
C1978 C 0.0231 0.67863 0.08744 0.0
C1979 C 0.99076 0.67639 0.12341 0.0
N1980 N 0.02667 0.63265 0.05904 0.0
N1981 N 0.99314 0.65539 0.10929 0.0
H1982 H 0.11415 0.32039 0.8641 0.0
H1983 H 0.17779 0.25011 0.75986 0.0
H1984 H 0.07573 0.26317 0.80924 0.0
H1985 H 0.21651 0.31291 0.80813 0.0
H1986 H 0.14065 0.25418 0.77905 0.0
H1987 H 0.15202 0.31786 0.84498 0.0
C1988 C 0.11365 0.30741 0.84795 0.0
C1989 C 0.09173 0.29196 0.83824 0.0
C1990 C 0.1572 0.26712 0.78553 0.0
C1991 C 0.13499 0.28883 0.81642 0.0
C1992 C 0.17847 0.26477 0.77458 0.0
C1993 C 0.20027 0.28119 0.78242 0.0
C1994 C 0.15761 0.28602 0.80461 0.0
C1995 C 0.20008 0.2998 0.80162 0.0
C1996 C 0.13527 0.30595 0.83708 0.0
C1997 C 0.09217 0.27545 0.81735 0.0
N1998 N 0.17905 0.30172 0.8121 0.0
N1999 N 0.11341 0.27427 0.80723 0.0
H2000 H 0.53419 0.72684 0.99888 0.0
H2001 H 0.53419 0.57987 0.97945 0.0
H2002 H 0.52877 0.68663 0.92677 0.0
H2003 H 0.51569 0.61522 0.04707 0.0
H2004 H 0.53574 0.6197 0.9606 0.0
H2005 H 0.5311 0.68682 0.01792 0.0
C2006 C 0.53239 0.70958 0.9871 0.0
C2007 C 0.53176 0.70993 0.96126 0.0
C2008 C 0.5312 0.61874 0.97952 0.0
C2009 C 0.5283 0.66439 0.98279 0.0
C2010 C 0.53027 0.59603 0.99025 0.0
C2011 C 0.52461 0.59435 0.01473 0.0
C2012 C 0.52682 0.63996 0.99354 0.0
C2013 C 0.52004 0.61584 0.02808 0.0
C2014 C 0.53052 0.68681 0.99793 0.0
C2015 C 0.52931 0.68713 0.94677 0.0
N2016 N 0.52136 0.6379 0.01733 0.0
N2017 N 0.52778 0.66525 0.95776 0.0
H2018 H 0.04384 0.74504 0.67367 0.0
H2019 H 0.17761 0.81814 0.71608 0.0
H2020 H 0.06879 0.82078 0.65611 0.0
H2021 H 0.14651 0.75259 0.75035 0.0
H2022 H 0.13762 0.81948 0.69411 0.0
H2023 H 0.08109 0.74712 0.70197 0.0
C2024 C 0.05711 0.76214 0.67589 0.0
C2025 C 0.0534 0.7827 0.66242 0.0
C2026 C 0.13943 0.80494 0.70662 0.0
C2027 C 0.09591 0.78517 0.69455 0.0
C2028 C 0.16224 0.80416 0.71911 0.0
C2029 C 0.16523 0.78513 0.73483 0.0
C2030 C 0.11961 0.7863 0.70962 0.0
C2031 C 0.14483 0.76752 0.73829 0.0
C2032 C 0.07828 0.76335 0.69209 0.0
C2033 C 0.07103 0.80445 0.66606 0.0
N2034 N 0.12285 0.76833 0.7255 0.0
N2035 N 0.09165 0.80503 0.68161 0.0
H2036 H 0.08249 0.34611 0.47341 0.0
H2037 H 0.00278 0.43504 0.5404 0.0
H2038 H 0.00897 0.32243 0.49118 0.0
H2039 H 0.07304 0.46136 0.51564 0.0
H2040 H 0.00893 0.39196 0.53108 0.0
H2041 H 0.08323 0.38642 0.49697 0.0
C2042 C 0.06667 0.34925 0.48262 0.0
C2043 C 0.0455 0.33112 0.48005 0.0
C2044 C 0.02317 0.40715 0.52802 0.0
C2045 C 0.04616 0.37706 0.50686 0.0
C2046 C 0.0197 0.4318 0.5334 0.0
C2047 C 0.03721 0.45189 0.52834 0.0
C2048 C 0.04423 0.40254 0.51736 0.0
C2049 C 0.05889 0.44648 0.51954 0.0
C2050 C 0.06708 0.37225 0.49601 0.0
C2051 C 0.02555 0.33606 0.49242 0.0
N2052 N 0.06162 0.42231 0.51395 0.0
N2053 N 0.02627 0.35866 0.50506 0.0
H2054 H 0.42883 0.31151 0.14709 0.0
H2055 H 0.35682 0.24989 0.25187 0.0
H2056 H 0.45186 0.24937 0.18363 0.0
H2057 H 0.35615 0.32644 0.23443 0.0
H2058 H 0.39157 0.24842 0.22755 0.0
H2059 H 0.40058 0.31585 0.17821 0.0
C2060 C 0.42781 0.29869 0.16161 0.0
C2061 C 0.44252 0.27996 0.16277 0.0
C2062 C 0.38411 0.26568 0.2295 0.0
C2063 C 0.41043 0.28491 0.19848 0.0
C2064 C 0.36442 0.26657 0.24345 0.0
C2065 C 0.3536 0.28825 0.24488 0.0
C2066 C 0.3926 0.28649 0.21671 0.0
C2067 C 0.36394 0.30932 0.2336 0.0
C2068 C 0.41189 0.30134 0.17951 0.0
C2069 C 0.4407 0.26399 0.18209 0.0
N2070 N 0.38264 0.30778 0.2196 0.0
N2071 N 0.42475 0.2667 0.19915 0.0
H2072 H 0.62376 0.47568 0.37236 0.0
H2073 H 0.52327 0.54363 0.43108 0.0
H2074 H 0.59289 0.53529 0.33873 0.0
H2075 H 0.54077 0.47314 0.45405 0.0
H2076 H 0.54731 0.53987 0.39607 0.0
H2077 H 0.59313 0.47389 0.4021 0.0
C2078 C 0.61053 0.48837 0.37123 0.0
C2079 C 0.61097 0.50578 0.35317 0.0
C2080 C 0.54557 0.52499 0.40849 0.0
C2081 C 0.57588 0.50382 0.38704 0.0
C2082 C 0.53173 0.52707 0.42844 0.0
C2083 C 0.53003 0.5087 0.44555 0.0
C2084 C 0.55822 0.50461 0.40587 0.0
C2085 C 0.54144 0.48768 0.44123 0.0
C2086 C 0.59296 0.48724 0.3881 0.0
C2087 C 0.5933 0.52165 0.35242 0.0
N2088 N 0.5554 0.48641 0.42205 0.0
N2089 N 0.57661 0.52042 0.36922 0.0
H2090 H 0.25597 0.87859 0.11862 0.0
H2091 H 0.21413 0.75952 0.19334 0.0
H2092 H 0.20127 0.81652 0.08716 0.0
H2093 H 0.28341 0.80798 0.21154 0.0
H2094 H 0.20653 0.78237 0.1567 0.0
H2095 H 0.26335 0.85561 0.15516 0.0
C2096 C 0.24537 0.86016 0.11943 0.0
C2097 C 0.22791 0.8495 0.09972 0.0
C2098 C 0.22336 0.7881 0.16874 0.0
C2099 C 0.23631 0.82304 0.14177 0.0
C2100 C 0.22774 0.77507 0.1897 0.0
C2101 C 0.2493 0.78212 0.20583 0.0
C2102 C 0.24057 0.80855 0.16385 0.0
C2103 C 0.26625 0.80238 0.20009 0.0
C2104 C 0.24972 0.847 0.1403 0.0
C2105 C 0.21489 0.82548 0.10187 0.0
N2106 N 0.26148 0.81496 0.17967 0.0
N2107 N 0.21926 0.81312 0.12254 0.0
H2108 H 0.97449 0.559 0.81298 0.0
H2109 H 0.95147 0.55998 0.95665 0.0
H2110 H 0.91194 0.58298 0.84264 0.0
H2111 H 0.01574 0.53782 0.9289 0.0
H2112 H 0.93787 0.57014 0.91512 0.0
H2113 H 0.99113 0.55299 0.85524 0.0
C2114 C 0.96439 0.56325 0.82839 0.0
C2115 C 0.94176 0.57147 0.82424 0.0
C2116 C 0.95502 0.56317 0.91807 0.0
C2117 C 0.96058 0.56444 0.87263 0.0
C2118 C 0.96283 0.55732 0.94187 0.0
C2119 C 0.98481 0.54794 0.9464 0.0
C2120 C 0.96916 0.55954 0.89843 0.0
C2121 C 0.99869 0.54501 0.92636 0.0
C2122 C 0.97386 0.55974 0.85251 0.0
C2123 C 0.92942 0.57658 0.84491 0.0
N2124 N 0.99058 0.55066 0.90327 0.0
N2125 N 0.93891 0.57288 0.86811 0.0
H2126 H 0.2281 0.1955 0.55493 0.0
H2127 H 0.3034 0.27375 0.67261 0.0
H2128 H 0.30621 0.21904 0.56096 0.0
H2129 H 0.22465 0.26029 0.6611 0.0
H2130 H 0.30471 0.25891 0.62938 0.0
H2131 H 0.22605 0.22385 0.59119 0.0
C2132 C 0.24478 0.20686 0.56377 0.0
C2133 C 0.26741 0.20466 0.55532 0.0
C2134 C 0.28713 0.25958 0.63616 0.0
C2135 C 0.26527 0.23692 0.5968 0.0
C2136 C 0.28641 0.26802 0.6608 0.0
C2137 C 0.26389 0.26777 0.67033 0.0
C2138 C 0.26517 0.25056 0.6212 0.0
C2139 C 0.24237 0.26043 0.6544 0.0
C2140 C 0.24361 0.2231 0.5844 0.0
C2141 C 0.28844 0.22 0.56715 0.0
N2142 N 0.24353 0.25171 0.63064 0.0
N2143 N 0.28692 0.23524 0.58758 0.0
H2144 H 0.59414 0.47744 0.23551 0.0
H2145 H 0.58314 0.55553 0.11604 0.0
H2146 H 0.64454 0.54319 0.22252 0.0
H2147 H 0.53721 0.48453 0.12126 0.0
H2148 H 0.6043 0.55172 0.15643 0.0
H2149 H 0.57153 0.47991 0.1949 0.0
C2150 C 0.60043 0.49234 0.22411 0.0
C2151 C 0.62117 0.51017 0.23234 0.0
C2152 C 0.58961 0.5369 0.14886 0.0
C2153 C 0.59558 0.51311 0.18623 0.0
C2154 C 0.57749 0.53912 0.1258 0.0
C2155 C 0.55847 0.52031 0.11542 0.0
C2156 C 0.58262 0.51573 0.16175 0.0
C2157 C 0.55186 0.49941 0.12876 0.0
C2158 C 0.58757 0.49372 0.201 0.0
C2159 C 0.62861 0.52908 0.21694 0.0
N2160 N 0.56396 0.49766 0.15137 0.0
N2161 N 0.61581 0.53005 0.19469 0.0
H2162 H 0.19358 0.86213 0.94702 0.0
H2163 H 0.27485 0.78441 0.86657 0.0
H2164 H 0.2536 0.829 0.9789 0.0
H2165 H 0.2107 0.81125 0.83501 0.0
H2166 H 0.26681 0.79994 0.90778 0.0
H2167 H 0.19887 0.84303 0.90608 0.0
C2168 C 0.20774 0.85067 0.94547 0.0
C2169 C 0.22315 0.8472 0.96652 0.0
C2170 C 0.25438 0.80231 0.89188 0.0
C2171 C 0.2295 0.82538 0.91949 0.0
C2172 C 0.25896 0.79341 0.86825 0.0
C2173 C 0.24343 0.79642 0.8471 0.0
C2174 C 0.23419 0.81456 0.8946 0.0
C2175 C 0.22315 0.80833 0.85067 0.0
C2176 C 0.21079 0.83978 0.92204 0.0
C2177 C 0.24125 0.83219 0.96326 0.0
N2178 N 0.21922 0.81705 0.87386 0.0
N2179 N 0.24399 0.822 0.94027 0.0
H2180 H 0.91936 0.53016 0.67411 0.0
H2181 H 0.02644 0.58443 0.59447 0.0
H2182 H 0.97106 0.59717 0.69823 0.0
H2183 H 0.98866 0.50817 0.58292 0.0
H2184 H 0.00388 0.59114 0.63022 0.0
H2185 H 0.94177 0.52368 0.63825 0.0
C2186 C 0.9354 0.54359 0.67182 0.0
C2187 C 0.94334 0.56427 0.68924 0.0
C2188 C 1.00047 0.57294 0.61987 0.0
C2189 C 0.96911 0.55693 0.64805 0.0
C2190 C 0.01332 0.56909 0.59943 0.0
C2191 C 0.00923 0.54576 0.58554 0.0
C2192 C 0.98321 0.55337 0.62644 0.0
C2193 C 0.99205 0.52657 0.59283 0.0
C2194 C 0.94824 0.5398 0.65137 0.0
C2195 C 0.9643 0.58098 0.6853 0.0
N2196 N 0.97958 0.53082 0.61271 0.0
N2197 N 0.9764 0.577 0.66509 0.0
H2198 H 0.31233 0.18586 0.43085 0.0
H2199 H 0.23424 0.26423 0.34429 0.0
H2200 H 0.24267 0.20555 0.44595 0.0
H2201 H 0.30499 0.24781 0.32871 0.0
H2202 H 0.23961 0.24686 0.38424 0.0
H2203 H 0.31237 0.21192 0.39554 0.0
C2204 C 0.29714 0.19575 0.42678 0.0
C2205 C 0.27732 0.19334 0.44104 0.0
C2206 C 0.25411 0.24726 0.37223 0.0
C2207 C 0.27727 0.22309 0.40108 0.0
C2208 C 0.25103 0.25718 0.3494 0.0
C2209 C 0.26907 0.25715 0.33308 0.0
C2210 C 0.27523 0.23693 0.37864 0.0
C2211 C 0.29058 0.24808 0.34075 0.0
C2212 C 0.29719 0.21065 0.40674 0.0
C2213 C 0.25818 0.20665 0.43522 0.0
N2214 N 0.29294 0.23798 0.36291 0.0
N2215 N 0.25857 0.22083 0.4156 0.0
H2216 H 0.34323 0.59567 0.53321 0.0
H2217 H 0.47213 0.57049 0.49118 0.0
H2218 H 0.39024 0.65143 0.499 0.0
H2219 H 0.43084 0.52575 0.54046 0.0
H2220 H 0.44228 0.59967 0.49152 0.0
H2221 H 0.37459 0.56891 0.5334 0.0
C2222 C 0.36019 0.60233 0.52572 0.0
C2223 C 0.36405 0.6259 0.5161 0.0
C2224 C 0.43986 0.58352 0.50233 0.0
C2225 C 0.40032 0.59504 0.51613 0.0
C2226 C 0.45696 0.56695 0.50225 0.0
C2227 C 0.45409 0.54575 0.51597 0.0
C2228 C 0.41959 0.57863 0.51599 0.0
C2229 C 0.43379 0.54179 0.52955 0.0
C2230 C 0.37818 0.58701 0.52588 0.0
C2231 C 0.38649 0.63343 0.50666 0.0
N2232 N 0.41737 0.55794 0.52914 0.0
N2233 N 0.40374 0.61802 0.50681 0.0
H2234 H 0.84257 0.96518 0.59272 0.0
H2235 H 0.93512 0.03654 0.50781 0.0
H2236 H 0.82095 0.99682 0.52482 0.0
H2237 H 0.95751 0.9992 0.57196 0.0
H2238 H 0.89338 0.02985 0.51889 0.0
H2239 H 0.8846 0.98589 0.59091 0.0
C2240 C 0.84657 0.97701 0.57779 0.0
C2241 C 0.82846 0.97896 0.55863 0.0
C2242 C 0.90746 0.02332 0.53069 0.0
C2243 C 0.87631 0.00229 0.55624 0.0
C2244 C 0.93131 0.02705 0.52431 0.0
C2245 C 0.94977 0.01799 0.53872 0.0
C2246 C 0.90196 0.0103 0.55152 0.0
C2247 C 0.9438 0.00621 0.56012 0.0
C2248 C 0.87056 0.98869 0.57667 0.0
C2249 C 0.83452 0.99453 0.53975 0.0
N2250 N 0.92032 0.00242 0.56571 0.0
N2251 N 0.85803 0.0053 0.53882 0.0
H2252 H 0.84575 0.12202 0.29283 0.0
H2253 H 0.75596 0.20527 0.22647 0.0
H2254 H 0.81918 0.11092 0.21508 0.0
H2255 H 0.787 0.22061 0.30266 0.0
H2256 H 0.77812 0.16996 0.22237 0.0
H2257 H 0.82364 0.1574 0.29717 0.0
C2258 C 0.83519 0.12699 0.27666 0.0
C2259 C 0.83427 0.11347 0.25354 0.0
C2260 C 0.78019 0.18103 0.24 0.0
C2261 C 0.8089 0.15402 0.25841 0.0
C2262 C 0.76747 0.20114 0.24238 0.0
C2263 C 0.76984 0.21594 0.26492 0.0
C2264 C 0.79527 0.17547 0.26037 0.0
C2265 C 0.78504 0.20988 0.28487 0.0
C2266 C 0.82261 0.14724 0.27916 0.0
C2267 C 0.82037 0.1208 0.23324 0.0
N2268 N 0.79718 0.19005 0.28216 0.0
N2269 N 0.80821 0.14056 0.23616 0.0
H2270 H 0.74105 0.11581 0.05398 0.0
H2271 H 0.60783 0.07185 0.98095 0.0
H2272 H 0.72323 0.12579 0.97663 0.0
H2273 H 0.6253 0.06164 0.05827 0.0
H2274 H 0.6506 0.08971 0.9785 0.0
H2275 H 0.69939 0.09388 0.05546 0.0
C2276 C 0.72842 0.11322 0.03727 0.0
C2277 C 0.73559 0.12269 0.01517 0.0
C2278 C 0.64514 0.08348 0.99599 0.0
C2279 C 0.68785 0.09775 0.01674 0.0
C2280 C 0.62074 0.07329 0.99738 0.0
C2281 C 0.61308 0.06538 0.01986 0.0
C2282 C 0.66201 0.08583 0.01727 0.0
C2283 C 0.6305 0.06759 0.04059 0.0
C2284 C 0.70463 0.10074 0.03813 0.0
C2285 C 0.71847 0.11883 0.99407 0.0
N2286 N 0.65414 0.07771 0.03883 0.0
N2287 N 0.69539 0.10677 0.99541 0.0
H2288 H 0.19196 0.45256 0.26724 0.0
H2289 H 0.21571 0.31463 0.2951 0.0
H2290 H 0.13644 0.39877 0.2934 0.0
H2291 H 0.25695 0.36212 0.24784 0.0
H2292 H 0.18825 0.34588 0.29902 0.0
H2293 H 0.21815 0.42063 0.26492 0.0
C2294 C 0.18528 0.434 0.2726 0.0
C2295 C 0.16192 0.42833 0.28046 0.0
C2296 C 0.20329 0.34936 0.28776 0.0
C2297 C 0.19202 0.39147 0.27788 0.0
C2298 C 0.21887 0.33152 0.28543 0.0
C2299 C 0.23841 0.33566 0.27083 0.0
C2300 C 0.20767 0.37167 0.27581 0.0
C2301 C 0.24208 0.35812 0.25922 0.0
C2302 C 0.20026 0.41572 0.27118 0.0
C2303 C 0.15431 0.40391 0.28717 0.0
N2304 N 0.22694 0.37525 0.26201 0.0
N2305 N 0.16936 0.38634 0.28577 0.0
H2306 H 0.21381 0.49481 0.04631 0.0
H2307 H 0.08491 0.47728 0.97069 0.0
H2308 H 0.19324 0.43935 0.98412 0.0
H2309 H 0.11813 0.54765 0.01054 0.0
H2310 H 0.12485 0.46363 0.97339 0.0
H2311 H 0.17909 0.51504 0.03276 0.0
C2312 C 0.20203 0.487 0.02974 0.0
C2313 C 0.20613 0.46528 0.01645 0.0
C2314 C 0.1235 0.48227 0.98105 0.0
C2315 C 0.16653 0.48814 1.00092 0.0
C2316 C 0.10075 0.49006 0.97946 0.0
C2317 C 0.09833 0.51343 0.9907 0.0
C2318 C 0.14367 0.49784 0.9944 0.0
C2319 C 0.1193 0.52937 1.00183 0.0
C2320 C 0.18238 0.49864 0.0219 0.0
C2321 C 0.19055 0.45601 0.99497 0.0
N2322 N 0.14108 0.52106 0.00387 0.0
N2323 N 0.17117 0.4673 0.98804 0.0
H2324 H 0.82943 0.99247 0.29193 0.0
H2325 H 0.77821 0.857 0.22246 0.0
H2326 H 0.82175 0.97798 0.21231 0.0
H2327 H 0.78631 0.87282 0.30203 0.0
H2328 H 0.79048 0.90175 0.21793 0.0
H2329 H 0.80976 0.9495 0.29551 0.0
C2330 C 0.82331 0.98032 0.27516 0.0
C2331 C 0.82735 0.98878 0.25179 0.0
C2332 C 0.78939 0.89543 0.23636 0.0
C2333 C 0.80505 0.93932 0.25575 0.0
C2334 C 0.78236 0.86985 0.23898 0.0
C2335 C 0.78137 0.861 0.26269 0.0
C2336 C 0.79551 0.91233 0.25759 0.0
C2337 C 0.78694 0.87864 0.28338 0.0
C2338 C 0.81213 0.95573 0.27721 0.0
C2339 C 0.81901 0.97221 0.23069 0.0
N2340 N 0.79388 0.90336 0.28034 0.0
N2341 N 0.80846 0.94818 0.23318 0.0
H2342 H 0.62576 0.06915 0.76437 0.0
H2343 H 0.75204 0.16331 0.7975 0.0
H2344 H 0.69118 0.04421 0.79533 0.0
H2345 H 0.69016 0.17929 0.75097 0.0
H2346 H 0.73014 0.12042 0.79989 0.0
H2347 H 0.64905 0.11079 0.76248 0.0
C2348 C 0.64508 0.07246 0.77077 0.0
C2349 C 0.65658 0.05322 0.77998 0.0
C2350 C 0.72148 0.13337 0.78912 0.0
C2351 C 0.68346 0.10099 0.77795 0.0
C2352 C 0.73392 0.15776 0.78779 0.0
C2353 C 0.72283 0.17475 0.77404 0.0
C2354 C 0.69782 0.12626 0.77678 0.0
C2355 C 0.69937 0.16677 0.76179 0.0
C2356 C 0.65841 0.09625 0.76965 0.0
C2357 C 0.68167 0.05857 0.78802 0.0
N2358 N 0.68766 0.14318 0.76353 0.0
N2359 N 0.69432 0.08204 0.78691 0.0
loop_
_geom_bond_atom_site_label_1
_geom_bond_atom_site_label_2
_geom_bond_distance
_geom_bond_site_symmetry_2
_ccdc_geom_bond_type
In0 O1 2.294 . S
In0 O2 2.326 . S
In0 O6 2.266 1_455 S
In0 O7 2.326 1_455 S
In0 O8 2.266 . S
In0 O9 2.326 . S
In0 O11 2.294 . S
In0 O12 2.326 . S
O1 In0 2.294 . S
O1 C10 1.240 . S
O2 In0 2.326 . S
O2 C10 1.252 . S
C3 O6 1.252 . S
C3 O7 1.260 . S
C4 O11 1.240 . S
C4 O12 1.252 . S
C5 O8 1.252 . S
C5 O9 1.260 . S
O6 In0 2.266 1_655 S
O6 C3 1.252 . S
O7 In0 2.326 1_655 S
O7 C3 1.260 . S
O8 In0 2.266 . S
O8 C5 1.252 . S
O9 In0 2.326 . S
O9 C5 1.260 . S
C10 O1 1.240 . S
C10 O2 1.252 . S
O11 In0 2.294 . S
O11 C4 1.240 . S
O12 In0 2.326 . S
O12 C4 1.252 . S
In13 O14 2.294 . S
In13 O15 2.326 . S
In13 O19 2.266 1_455 S
In13 O20 2.325 . S
In13 O21 2.266 1_455 S
In13 O22 2.326 1_455 S
In13 O24 2.294 . S
In13 O25 2.326 . S
O14 In13 2.294 . S
O14 C23 1.240 . S
O15 In13 2.326 . S
O15 C23 1.252 . S
C16 O19 1.252 . S
C16 O20 1.259 1_655 S
C17 O24 1.240 . S
C17 O25 1.252 . S
C18 O21 1.252 . S
C18 O22 1.260 . S
O19 In13 2.266 1_655 S
O19 C16 1.252 . S
O20 In13 2.325 . S
O20 C16 1.259 1_455 S
O21 In13 2.266 1_655 S
O21 C18 1.252 . S
O22 In13 2.326 1_655 S
O22 C18 1.260 . S
C23 O14 1.240 . S
C23 O15 1.252 . S
O24 In13 2.294 . S
O24 C17 1.240 . S
O25 In13 2.326 . S
O25 C17 1.252 . S
In26 O27 2.294 . S
In26 O28 2.326 . S
In26 O32 2.266 . S
In26 O33 2.326 . S
In26 O34 2.266 . S
In26 O35 2.326 . S
In26 O37 2.294 . S
In26 O38 2.326 . S
O27 In26 2.294 . S
O27 C36 1.240 . S
O28 In26 2.326 . S
O28 C36 1.252 . S
C29 O32 1.252 . S
C29 O33 1.260 . S
C30 O37 1.240 . S
C30 O38 1.252 . S
C31 O34 1.252 . S
C31 O35 1.260 . S
O32 In26 2.266 . S
O32 C29 1.252 . S
O33 In26 2.326 . S
O33 C29 1.260 . S
O34 In26 2.266 . S
O34 C31 1.252 . S
O35 In26 2.326 . S
O35 C31 1.260 . S
C36 O27 1.240 . S
C36 O28 1.252 . S
O37 In26 2.294 . S
O37 C30 1.240 . S
O38 In26 2.326 . S
O38 C30 1.252 . S
In39 O40 2.294 . S
In39 O41 2.326 . S
In39 O45 2.266 . S
In39 O46 2.326 . S
In39 O47 2.266 . S
In39 O48 2.326 . S
In39 O50 2.294 . S
In39 O51 2.326 . S
O40 In39 2.294 . S
O40 C49 1.240 . S
O41 In39 2.326 . S
O41 C49 1.252 . S
C42 O45 1.252 . S
C42 O46 1.260 . S
C43 O50 1.240 . S
C43 O51 1.252 . S
C44 O47 1.252 . S
C44 O48 1.260 . S
O45 In39 2.266 . S
O45 C42 1.252 . S
O46 In39 2.326 . S
O46 C42 1.260 . S
O47 In39 2.266 . S
O47 C44 1.252 . S
O48 In39 2.326 . S
O48 C44 1.260 . S
C49 O40 1.240 . S
C49 O41 1.252 . S
O50 In39 2.294 . S
O50 C43 1.240 . S
O51 In39 2.326 . S
O51 C43 1.252 . S
In52 O53 2.294 . S
In52 O54 2.326 . S
In52 O58 2.266 . S
In52 O59 2.326 . S
In52 O60 2.266 . S
In52 O61 2.326 . S
In52 O63 2.294 1_455 S
In52 O64 2.326 1_455 S
O53 In52 2.294 . S
O53 C62 1.240 . S
O54 In52 2.326 . S
O54 C62 1.252 . S
C55 O58 1.252 . S
C55 O59 1.260 . S
C56 O63 1.240 . S
C56 O64 1.252 . S
C57 O60 1.252 . S
C57 O61 1.260 . S
O58 In52 2.266 . S
O58 C55 1.252 . S
O59 In52 2.326 . S
O59 C55 1.260 . S
O60 In52 2.266 . S
O60 C57 1.252 . S
O61 In52 2.326 . S
O61 C57 1.260 . S
C62 O53 1.240 . S
C62 O54 1.252 . S
O63 In52 2.294 1_655 S
O63 C56 1.240 . S
O64 In52 2.326 1_655 S
O64 C56 1.252 . S
In65 O66 2.294 . S
In65 O67 2.326 . S
In65 O71 2.266 . S
In65 O72 2.326 . S
In65 O73 2.266 . S
In65 O74 2.326 . S
In65 O76 2.294 . S
In65 O77 2.326 . S
O66 In65 2.294 . S
O66 C75 1.240 . S
O67 In65 2.326 . S
O67 C75 1.252 . S
C68 O71 1.252 . S
C68 O72 1.260 . S
C69 O76 1.240 . S
C69 O77 1.252 . S
C70 O73 1.252 . S
C70 O74 1.260 . S
O71 In65 2.266 . S
O71 C68 1.252 . S
O72 In65 2.326 . S
O72 C68 1.260 . S
O73 In65 2.266 . S
O73 C70 1.252 . S
O74 In65 2.326 . S
O74 C70 1.260 . S
C75 O66 1.240 . S
C75 O67 1.252 . S
O76 In65 2.294 . S
O76 C69 1.240 . S
O77 In65 2.326 . S
O77 C69 1.252 . S
In78 O79 2.294 . S
In78 O80 2.326 . S
In78 O84 2.266 . S
In78 O85 2.326 . S
In78 O86 2.266 . S
In78 O87 2.326 . S
In78 O89 2.294 . S
In78 O90 2.326 . S
O79 In78 2.294 . S
O79 C88 1.240 . S
O80 In78 2.326 . S
O80 C88 1.252 . S
C81 O84 1.252 . S
C81 O85 1.260 . S
C82 O89 1.240 . S
C82 O90 1.252 . S
C83 O86 1.252 . S
C83 O87 1.260 . S
O84 In78 2.266 . S
O84 C81 1.252 . S
O85 In78 2.326 . S
O85 C81 1.260 . S
O86 In78 2.266 . S
O86 C83 1.252 . S
O87 In78 2.326 . S
O87 C83 1.260 . S
C88 O79 1.240 . S
C88 O80 1.252 . S
O89 In78 2.294 . S
O89 C82 1.240 . S
O90 In78 2.326 . S
O90 C82 1.252 . S
In91 O92 2.294 . S
In91 O93 2.326 . S
In91 O97 2.266 . S
In91 O98 2.326 . S
In91 O99 2.266 1_455 S
In91 O100 2.326 1_455 S
In91 O102 2.294 . S
In91 O103 2.326 . S
O92 In91 2.294 . S
O92 C101 1.240 . S
O93 In91 2.326 . S
O93 C101 1.252 . S
C94 O97 1.252 . S
C94 O98 1.260 . S
C95 O102 1.240 . S
C95 O103 1.252 . S
C96 O99 1.252 . S
C96 O100 1.260 . S
O97 In91 2.266 . S
O97 C94 1.252 . S
O98 In91 2.326 . S
O98 C94 1.260 . S
O99 In91 2.266 1_655 S
O99 C96 1.252 . S
O100 In91 2.326 1_655 S
O100 C96 1.260 . S
C101 O92 1.240 . S
C101 O93 1.252 . S
O102 In91 2.294 . S
O102 C95 1.240 . S
O103 In91 2.326 . S
O103 C95 1.252 . S
In104 O105 2.294 . S
In104 O106 2.326 . S
In104 O110 2.266 . S
In104 O111 2.326 . S
In104 O112 2.266 . S
In104 O113 2.369 . S
In104 O115 2.294 . S
In104 O116 2.326 . S
O105 In104 2.294 . S
O105 C114 1.240 . S
O106 In104 2.326 . S
O106 C114 1.252 . S
C107 O110 1.252 . S
C107 O111 1.260 . S
C108 O115 1.240 . S
C108 O116 1.252 . S
C109 O112 1.252 1_565 S
C109 O113 1.257 1_565 S
O110 In104 2.266 . S
O110 C107 1.252 . S
O111 In104 2.326 . S
O111 C107 1.260 . S
O112 In104 2.266 . S
O112 C109 1.252 1_545 S
O113 In104 2.369 . S
O113 C109 1.257 1_545 S
C114 O105 1.240 . S
C114 O106 1.252 . S
O115 In104 2.294 . S
O115 C108 1.240 . S
O116 In104 2.326 . S
O116 C108 1.252 . S
In117 O118 2.294 . S
In117 O119 2.326 . S
In117 O123 2.266 . S
In117 O124 2.326 . S
In117 O125 2.266 . S
In117 O126 2.326 . S
In117 O128 2.294 . S
In117 O129 2.326 . S
O118 In117 2.294 . S
O118 C127 1.240 . S
O119 In117 2.326 . S
O119 C127 1.252 . S
C120 O123 1.252 . S
C120 O124 1.260 . S
C121 O128 1.240 . S
C121 O129 1.252 . S
C122 O125 1.252 . S
C122 O126 1.260 . S
O123 In117 2.266 . S
O123 C120 1.252 . S
O124 In117 2.326 . S
O124 C120 1.260 . S
O125 In117 2.266 . S
O125 C122 1.252 . S
O126 In117 2.326 . S
O126 C122 1.260 . S
C127 O118 1.240 . S
C127 O119 1.252 . S
O128 In117 2.294 . S
O128 C121 1.240 . S
O129 In117 2.326 . S
O129 C121 1.252 . S
In130 O131 2.294 1_545 S
In130 O132 2.326 1_545 S
In130 O136 2.266 . S
In130 O137 2.325 . S
In130 O138 2.264 . S
In130 O139 2.322 . S
In130 O141 2.296 1_545 S
In130 O142 2.330 1_545 S
O131 In130 2.294 1_565 S
O131 C140 1.240 . S
O132 In130 2.326 1_565 S
O132 C140 1.252 . S
C133 O136 1.252 . S
C133 O137 1.260 . S
C134 O141 1.240 . S
C134 O142 1.252 . S
C135 O138 1.252 . S
C135 O139 1.260 . S
O136 In130 2.266 . S
O136 C133 1.252 . S
O137 In130 2.325 . S
O137 C133 1.260 . S
O138 In130 2.264 . S
O138 C135 1.252 . S
O139 In130 2.322 . S
O139 C135 1.260 . S
C140 O131 1.240 . S
C140 O132 1.252 . S
O141 In130 2.296 1_565 S
O141 C134 1.240 . S
O142 In130 2.330 1_565 S
O142 C134 1.252 . S
In143 O144 2.294 . S
In143 O145 2.326 . S
In143 O149 2.266 . S
In143 O150 2.326 1_554 S
In143 O151 2.266 . S
In143 O152 2.326 . S
In143 O154 2.294 . S
In143 O155 2.326 . S
O144 In143 2.294 . S
O144 C153 1.240 . S
O145 In143 2.326 . S
O145 C153 1.252 . S
C146 O149 1.252 1_556 S
C146 O150 1.260 . S
C147 O154 1.240 . S
C147 O155 1.252 . S
C148 O151 1.252 . S
C148 O152 1.260 . S
O149 In143 2.266 . S
O149 C146 1.252 1_554 S
O150 In143 2.326 1_556 S
O150 C146 1.260 . S
O151 In143 2.266 . S
O151 C148 1.252 . S
O152 In143 2.326 . S
O152 C148 1.260 . S
C153 O144 1.240 . S
C153 O145 1.252 . S
O154 In143 2.294 . S
O154 C147 1.240 . S
O155 In143 2.326 . S
O155 C147 1.252 . S
In156 O157 2.294 . S
In156 O158 2.326 . S
In156 O162 2.298 . S
In156 O163 2.326 1_554 S
In156 O164 2.266 . S
In156 O165 2.326 . S
In156 O167 2.294 . S
In156 O168 2.326 . S
O157 In156 2.294 . S
O157 C166 1.240 . S
O158 In156 2.326 . S
O158 C166 1.252 . S
C159 O162 1.213 1_556 S
C159 O163 1.260 . S
C160 O167 1.240 . S
C160 O168 1.252 . S
C161 O164 1.252 . S
C161 O165 1.260 . S
O162 In156 2.298 . S
O162 C159 1.213 1_554 S
O163 In156 2.326 1_556 S
O163 C159 1.260 . S
O164 In156 2.266 . S
O164 C161 1.252 . S
O165 In156 2.326 . S
O165 C161 1.260 . S
C166 O157 1.240 . S
C166 O158 1.252 . S
O167 In156 2.294 . S
O167 C160 1.240 . S
O168 In156 2.326 . S
O168 C160 1.252 . S
In169 O170 2.294 . S
In169 O171 2.326 . S
In169 O175 2.266 1_554 S
In169 O176 2.326 . S
In169 O177 2.266 1_554 S
In169 O178 2.326 1_554 S
In169 O180 2.294 . S
In169 O181 2.326 . S
O170 In169 2.294 . S
O170 C179 1.240 . S
O171 In169 2.326 . S
O171 C179 1.252 . S
C172 O175 1.252 . S
C172 O176 1.258 1_556 S
C173 O180 1.240 . S
C173 O181 1.252 . S
C174 O177 1.252 . S
C174 O178 1.260 . S
O175 In169 2.266 1_556 S
O175 C172 1.252 . S
O176 In169 2.326 . S
O176 C172 1.258 1_554 S
O177 In169 2.266 1_556 S
O177 C174 1.252 . S
O178 In169 2.326 1_556 S
O178 C174 1.260 . S
C179 O170 1.240 . S
C179 O171 1.252 . S
O180 In169 2.294 . S
O180 C173 1.240 . S
O181 In169 2.326 . S
O181 C173 1.252 . S
In182 O183 2.294 . S
In182 O184 2.326 . S
In182 O188 2.266 . S
In182 O189 2.326 . S
In182 O190 2.266 . S
In182 O191 2.326 . S
In182 O193 2.294 . S
In182 O194 2.326 . S
O183 In182 2.294 . S
O183 C192 1.240 . S
O184 In182 2.326 . S
O184 C192 1.252 . S
C185 O188 1.252 . S
C185 O189 1.260 . S
C186 O193 1.240 . S
C186 O194 1.252 . S
C187 O190 1.252 . S
C187 O191 1.260 . S
O188 In182 2.266 . S
O188 C185 1.252 . S
O189 In182 2.326 . S
O189 C185 1.260 . S
O190 In182 2.266 . S
O190 C187 1.252 . S
O191 In182 2.326 . S
O191 C187 1.260 . S
C192 O183 1.240 . S
C192 O184 1.252 . S
O193 In182 2.294 . S
O193 C186 1.240 . S
O194 In182 2.326 . S
O194 C186 1.252 . S
In195 O196 2.294 . S
In195 O197 2.326 . S
In195 O201 2.266 . S
In195 O202 2.326 . S
In195 O203 2.266 . S
In195 O204 2.326 . S
In195 O206 2.294 . S
In195 O207 2.326 . S
O196 In195 2.294 . S
O196 C205 1.240 . S
O197 In195 2.326 . S
O197 C205 1.252 . S
C198 O201 1.252 . S
C198 O202 1.260 . S
C199 O206 1.240 . S
C199 O207 1.252 . S
C200 O203 1.252 . S
C200 O204 1.260 . S
O201 In195 2.266 . S
O201 C198 1.252 . S
O202 In195 2.326 . S
O202 C198 1.260 . S
O203 In195 2.266 . S
O203 C200 1.252 . S
O204 In195 2.326 . S
O204 C200 1.260 . S
C205 O196 1.240 . S
C205 O197 1.252 . S
O206 In195 2.294 . S
O206 C199 1.240 . S
O207 In195 2.326 . S
O207 C199 1.252 . S
In208 O209 2.294 . S
In208 O210 2.326 . S
In208 O214 2.266 . S
In208 O215 2.326 . S
In208 O216 2.266 . S
In208 O217 2.326 . S
In208 O219 2.294 . S
In208 O220 2.326 . S
O209 In208 2.294 . S
O209 C218 1.240 . S
O210 In208 2.326 . S
O210 C218 1.252 . S
C211 O214 1.252 . S
C211 O215 1.260 . S
C212 O219 1.240 . S
C212 O220 1.252 . S
C213 O216 1.252 . S
C213 O217 1.260 . S
O214 In208 2.266 . S
O214 C211 1.252 . S
O215 In208 2.326 . S
O215 C211 1.260 . S
O216 In208 2.266 . S
O216 C213 1.252 . S
O217 In208 2.326 . S
O217 C213 1.260 . S
C218 O209 1.240 . S
C218 O210 1.252 . S
O219 In208 2.294 . S
O219 C212 1.240 . S
O220 In208 2.326 . S
O220 C212 1.252 . S
In221 O222 2.294 . S
In221 O223 2.326 . S
In221 O227 2.266 . S
In221 O228 2.326 . S
In221 O229 2.266 . S
In221 O230 2.326 . S
In221 O232 2.294 . S
In221 O233 2.326 . S
O222 In221 2.294 . S
O222 C231 1.240 . S
O223 In221 2.326 . S
O223 C231 1.252 . S
C224 O227 1.252 . S
C224 O228 1.260 . S
C225 O232 1.240 . S
C225 O233 1.252 . S
C226 O229 1.252 . S
C226 O230 1.260 . S
O227 In221 2.266 . S
O227 C224 1.252 . S
O228 In221 2.326 . S
O228 C224 1.260 . S
O229 In221 2.266 . S
O229 C226 1.252 . S
O230 In221 2.326 . S
O230 C226 1.260 . S
C231 O222 1.240 . S
C231 O223 1.252 . S
O232 In221 2.294 . S
O232 C225 1.240 . S
O233 In221 2.326 . S
O233 C225 1.252 . S
In234 O235 2.294 . S
In234 O236 2.326 . S
In234 O240 2.266 . S
In234 O241 2.326 . S
In234 O242 2.266 . S
In234 O243 2.326 . S
In234 O245 2.294 . S
In234 O246 2.326 . S
O235 In234 2.294 . S
O235 C244 1.240 . S
O236 In234 2.326 . S
O236 C244 1.252 . S
C237 O240 1.252 . S
C237 O241 1.260 . S
C238 O245 1.240 . S
C238 O246 1.252 . S
C239 O242 1.252 . S
C239 O243 1.260 . S
O240 In234 2.266 . S
O240 C237 1.252 . S
O241 In234 2.326 . S
O241 C237 1.260 . S
O242 In234 2.266 . S
O242 C239 1.252 . S
O243 In234 2.326 . S
O243 C239 1.260 . S
C244 O235 1.240 . S
C244 O236 1.252 . S
O245 In234 2.294 . S
O245 C238 1.240 . S
O246 In234 2.326 . S
O246 C238 1.252 . S
In247 O248 2.294 1_545 S
In247 O249 2.326 1_545 S
In247 O253 2.266 . S
In247 O254 2.326 . S
In247 O255 2.266 . S
In247 O256 2.326 . S
In247 O258 2.294 1_545 S
In247 O259 2.326 . S
O248 In247 2.294 1_565 S
O248 C257 1.240 . S
O249 In247 2.326 1_565 S
O249 C257 1.252 . S
C250 O253 1.252 . S
C250 O254 1.260 . S
C251 O258 1.241 1_545 S
C251 O259 1.253 . S
C252 O255 1.252 . S
C252 O256 1.260 . S
O253 In247 2.266 . S
O253 C250 1.252 . S
O254 In247 2.326 . S
O254 C250 1.260 . S
O255 In247 2.266 . S
O255 C252 1.252 . S
O256 In247 2.326 . S
O256 C252 1.260 . S
C257 O248 1.240 . S
C257 O249 1.252 . S
O258 In247 2.294 1_565 S
O258 C251 1.241 1_565 S
O259 In247 2.326 . S
O259 C251 1.253 . S
In260 O261 2.294 . S
In260 O262 2.326 . S
In260 O266 2.266 1_554 S
In260 O267 2.326 . S
In260 O268 2.266 1_554 S
In260 O269 2.326 1_554 S
In260 O271 2.294 . S
In260 O272 2.326 . S
O261 In260 2.294 . S
O261 C270 1.240 . S
O262 In260 2.326 . S
O262 C270 1.252 . S
C263 O266 1.252 . S
C263 O267 1.260 1_556 S
C264 O271 1.240 . S
C264 O272 1.252 . S
C265 O268 1.252 . S
C265 O269 1.260 . S
O266 In260 2.266 1_556 S
O266 C263 1.252 . S
O267 In260 2.326 . S
O267 C263 1.260 1_554 S
O268 In260 2.266 1_556 S
O268 C265 1.252 . S
O269 In260 2.326 1_556 S
O269 C265 1.260 . S
C270 O261 1.240 . S
C270 O262 1.252 . S
O271 In260 2.294 . S
O271 C264 1.240 . S
O272 In260 2.326 . S
O272 C264 1.252 . S
In273 O274 2.294 . S
In273 O275 2.326 . S
In273 O279 2.266 . S
In273 O280 2.326 . S
In273 O281 2.266 . S
In273 O282 2.326 . S
In273 O284 2.294 . S
In273 O285 2.326 . S
O274 In273 2.294 . S
O274 C283 1.240 . S
O275 In273 2.326 . S
O275 C283 1.252 . S
C276 O279 1.252 . S
C276 O280 1.260 . S
C277 O284 1.240 . S
C277 O285 1.252 . S
C278 O281 1.252 . S
C278 O282 1.260 . S
O279 In273 2.266 . S
O279 C276 1.252 . S
O280 In273 2.326 . S
O280 C276 1.260 . S
O281 In273 2.266 . S
O281 C278 1.252 . S
O282 In273 2.326 . S
O282 C278 1.260 . S
C283 O274 1.240 . S
C283 O275 1.252 . S
O284 In273 2.294 . S
O284 C277 1.240 . S
O285 In273 2.326 . S
O285 C277 1.252 . S
In286 O287 2.294 . S
In286 O288 2.326 . S
In286 O292 2.266 . S
In286 O293 2.326 . S
In286 O294 2.266 . S
In286 O295 2.326 . S
In286 O297 2.294 . S
In286 O298 2.326 . S
O287 In286 2.294 . S
O287 C296 1.240 . S
O288 In286 2.326 . S
O288 C296 1.252 . S
C289 O292 1.252 . S
C289 O293 1.260 . S
C290 O297 1.240 . S
C290 O298 1.252 . S
C291 O294 1.252 . S
C291 O295 1.260 . S
O292 In286 2.266 . S
O292 C289 1.252 . S
O293 In286 2.326 . S
O293 C289 1.260 . S
O294 In286 2.266 . S
O294 C291 1.252 . S
O295 In286 2.326 . S
O295 C291 1.260 . S
C296 O287 1.240 . S
C296 O288 1.252 . S
O297 In286 2.294 . S
O297 C290 1.240 . S
O298 In286 2.326 . S
O298 C290 1.252 . S
In299 O300 2.294 . S
In299 O301 2.326 . S
In299 O305 2.266 . S
In299 O306 2.326 . S
In299 O307 2.266 . S
In299 O308 2.326 . S
In299 O310 2.294 . S
In299 O311 2.326 . S
O300 In299 2.294 . S
O300 C309 1.240 . S
O301 In299 2.326 . S
O301 C309 1.252 . S
C302 O305 1.252 . S
C302 O306 1.260 . S
C303 O310 1.240 . S
C303 O311 1.252 . S
C304 O307 1.252 . S
C304 O308 1.260 . S
O305 In299 2.266 . S
O305 C302 1.252 . S
O306 In299 2.326 . S
O306 C302 1.260 . S
O307 In299 2.266 . S
O307 C304 1.252 . S
O308 In299 2.326 . S
O308 C304 1.260 . S
C309 O300 1.240 . S
C309 O301 1.252 . S
O310 In299 2.294 . S
O310 C303 1.240 . S
O311 In299 2.326 . S
O311 C303 1.252 . S
Tb312 O315 2.453 . S
Tb312 O316 2.596 . S
Tb312 O317 2.374 1_554 S
Tb312 O325 2.343 . S
Tb312 O327 2.353 . S
Tb312 O329 2.427 . S
Tb312 O330 2.513 . S
C313 O317 1.251 . S
C313 O319 1.263 . S
Tb314 O316 2.343 . S
Tb314 O319 2.353 1_554 S
Tb314 O322 2.427 1_545 S
Tb314 O323 2.513 1_545 S
Tb314 O324 2.453 1_455 S
Tb314 O325 2.596 . S
Tb314 O326 2.374 . S
O315 Tb312 2.453 . S
O315 C331 1.245 . S
O316 Tb312 2.596 . S
O316 Tb314 2.343 . S
O316 C331 1.259 . S
O317 Tb312 2.374 1_556 S
O317 C313 1.251 . S
C318 O322 1.275 . S
C318 O323 1.246 . S
O319 C313 1.263 . S
O319 Tb314 2.353 1_556 S
C320 O324 1.245 . S
C320 O325 1.259 1_655 S
C321 O326 1.250 . S
C321 O327 1.263 . S
O322 Tb314 2.427 1_565 S
O322 C318 1.275 . S
O323 Tb314 2.513 1_565 S
O323 C318 1.246 . S
O324 Tb314 2.453 1_655 S
O324 C320 1.245 . S
O325 Tb312 2.343 . S
O325 Tb314 2.596 . S
O325 C320 1.259 1_455 S
O326 Tb314 2.374 . S
O326 C321 1.250 . S
O327 Tb312 2.353 . S
O327 C321 1.263 . S
C328 O329 1.275 . S
C328 O330 1.246 . S
O329 Tb312 2.427 . S
O329 C328 1.275 . S
O330 Tb312 2.513 . S
O330 C328 1.246 . S
C331 O315 1.245 . S
C331 O316 1.259 . S
Tb332 O335 2.453 . S
Tb332 O336 2.596 . S
Tb332 O337 2.374 . S
Tb332 O345 2.343 . S
Tb332 O347 2.353 . S
Tb332 O349 2.427 . S
Tb332 O350 2.513 . S
C333 O337 1.251 . S
C333 O339 1.263 . S
Tb334 O336 2.343 . S
Tb334 O339 2.353 . S
Tb334 O342 2.427 . S
Tb334 O343 2.513 . S
Tb334 O344 2.453 . S
Tb334 O345 2.596 . S
Tb334 O346 2.374 . S
O335 Tb332 2.453 . S
O335 C351 1.245 . S
O336 Tb332 2.596 . S
O336 Tb334 2.343 . S
O336 C351 1.259 . S
O337 Tb332 2.374 . S
O337 C333 1.251 . S
C338 O342 1.275 . S
C338 O343 1.246 . S
O339 C333 1.263 . S
O339 Tb334 2.353 . S
C340 O344 1.245 . S
C340 O345 1.259 . S
C341 O346 1.250 . S
C341 O347 1.263 . S
O342 Tb334 2.427 . S
O342 C338 1.275 . S
O343 Tb334 2.513 . S
O343 C338 1.246 . S
O344 Tb334 2.453 . S
O344 C340 1.245 . S
O345 Tb332 2.343 . S
O345 Tb334 2.596 . S
O345 C340 1.259 . S
O346 Tb334 2.374 . S
O346 C341 1.250 . S
O347 Tb332 2.353 . S
O347 C341 1.263 . S
C348 O349 1.275 . S
C348 O350 1.246 . S
O349 Tb332 2.427 . S
O349 C348 1.275 . S
O350 Tb332 2.513 . S
O350 C348 1.246 . S
C351 O335 1.245 . S
C351 O336 1.259 . S
Tb352 O355 2.453 . S
Tb352 O356 2.596 . S
Tb352 O357 2.374 . S
Tb352 O365 2.343 1_545 S
Tb352 O367 2.353 . S
Tb352 O369 2.427 . S
Tb352 O370 2.513 1_545 S
C353 O357 1.251 . S
C353 O359 1.263 . S
Tb354 O356 2.343 . S
Tb354 O359 2.353 . S
Tb354 O362 2.427 . S
Tb354 O363 2.513 . S
Tb354 O364 2.453 1_545 S
Tb354 O365 2.596 1_545 S
Tb354 O366 2.374 . S
O355 Tb352 2.453 . S
O355 C371 1.245 . S
O356 Tb352 2.596 . S
O356 Tb354 2.343 . S
O356 C371 1.259 . S
O357 Tb352 2.374 . S
O357 C353 1.251 . S
C358 O362 1.275 . S
C358 O363 1.246 . S
O359 C353 1.263 . S
O359 Tb354 2.353 . S
C360 O364 1.245 . S
C360 O365 1.259 . S
C361 O366 1.250 . S
C361 O367 1.263 . S
O362 Tb354 2.427 . S
O362 C358 1.275 . S
O363 Tb354 2.513 . S
O363 C358 1.246 . S
O364 Tb354 2.453 1_565 S
O364 C360 1.245 . S
O365 Tb352 2.343 1_565 S
O365 Tb354 2.596 1_565 S
O365 C360 1.259 . S
O366 Tb354 2.374 . S
O366 C361 1.250 . S
O367 Tb352 2.353 . S
O367 C361 1.263 . S
C368 O369 1.275 1_565 S
C368 O370 1.246 . S
O369 Tb352 2.427 . S
O369 C368 1.275 1_545 S
O370 Tb352 2.513 1_565 S
O370 C368 1.246 . S
C371 O355 1.245 . S
C371 O356 1.259 . S
Tb372 O375 2.453 . S
Tb372 O376 2.596 . S
Tb372 O377 2.374 . S
Tb372 O385 2.343 . S
Tb372 O387 2.353 . S
Tb372 O389 2.427 . S
Tb372 O390 2.513 . S
C373 O377 1.251 . S
C373 O379 1.263 . S
Tb374 O376 2.343 . S
Tb374 O379 2.353 . S
Tb374 O382 2.427 . S
Tb374 O383 2.513 . S
Tb374 O384 2.453 . S
Tb374 O385 2.596 . S
Tb374 O386 2.374 . S
O375 Tb372 2.453 . S
O375 C391 1.245 . S
O376 Tb372 2.596 . S
O376 Tb374 2.343 . S
O376 C391 1.259 . S
O377 Tb372 2.374 . S
O377 C373 1.251 . S
C378 O382 1.275 . S
C378 O383 1.246 . S
O379 C373 1.263 . S
O379 Tb374 2.353 . S
C380 O384 1.245 . S
C380 O385 1.259 . S
C381 O386 1.250 . S
C381 O387 1.263 . S
O382 Tb374 2.427 . S
O382 C378 1.275 . S
O383 Tb374 2.513 . S
O383 C378 1.246 . S
O384 Tb374 2.453 . S
O384 C380 1.245 . S
O385 Tb372 2.343 . S
O385 Tb374 2.596 . S
O385 C380 1.259 . S
O386 Tb374 2.374 . S
O386 C381 1.250 . S
O387 Tb372 2.353 . S
O387 C381 1.263 . S
C388 O389 1.275 . S
C388 O390 1.246 . S
O389 Tb372 2.427 . S
O389 C388 1.275 . S
O390 Tb372 2.513 . S
O390 C388 1.246 . S
C391 O375 1.245 . S
C391 O376 1.259 . S
Tb392 O395 2.453 . S
Tb392 O396 2.596 . S
Tb392 O397 2.374 1_455 S
Tb392 O405 2.343 1_565 S
Tb392 O407 2.353 1_565 S
Tb392 O409 2.427 1_565 S
Tb392 O410 2.513 1_465 S
C393 O397 1.249 1_545 S
C393 O399 1.267 . S
Tb394 O396 2.343 1_545 S
Tb394 O399 2.353 1_455 S
Tb394 O402 2.427 . S
Tb394 O403 2.513 . S
Tb394 O404 2.453 . S
Tb394 O405 2.596 . S
Tb394 O406 2.374 . S
O395 Tb392 2.453 . S
O395 C411 1.245 . S
O396 Tb392 2.596 . S
O396 Tb394 2.343 1_565 S
O396 C411 1.259 . S
O397 Tb392 2.374 1_655 S
O397 C393 1.249 1_565 S
C398 O402 1.275 . S
C398 O403 1.246 . S
O399 C393 1.267 . S
O399 Tb394 2.353 1_655 S
C400 O404 1.245 . S
C400 O405 1.259 . S
C401 O406 1.250 . S
C401 O407 1.263 . S
O402 Tb394 2.427 . S
O402 C398 1.275 . S
O403 Tb394 2.513 . S
O403 C398 1.246 . S
O404 Tb394 2.453 . S
O404 C400 1.245 . S
O405 Tb392 2.343 1_545 S
O405 Tb394 2.596 . S
O405 C400 1.259 . S
O406 Tb394 2.374 . S
O406 C401 1.250 . S
O407 Tb392 2.353 1_545 S
O407 C401 1.263 . S
C408 O409 1.275 . S
C408 O410 1.246 1_455 S
O409 Tb392 2.427 1_545 S
O409 C408 1.275 . S
O410 Tb392 2.513 1_645 S
O410 C408 1.246 1_655 S
C411 O395 1.245 . S
C411 O396 1.259 . S
Tb412 O415 2.453 . S
Tb412 O416 2.596 . S
Tb412 O417 2.374 . S
Tb412 O425 2.343 . S
Tb412 O427 2.353 . S
Tb412 O429 2.427 . S
Tb412 O430 2.513 . S
C413 O417 1.251 . S
C413 O419 1.263 . S
Tb414 O416 2.343 . S
Tb414 O419 2.353 . S
Tb414 O422 2.427 . S
Tb414 O423 2.513 . S
Tb414 O424 2.453 . S
Tb414 O425 2.596 . S
Tb414 O426 2.374 . S
O415 Tb412 2.453 . S
O415 C431 1.245 . S
O416 Tb412 2.596 . S
O416 Tb414 2.343 . S
O416 C431 1.259 . S
O417 Tb412 2.374 . S
O417 C413 1.251 . S
C418 O422 1.275 . S
C418 O423 1.246 . S
O419 C413 1.263 . S
O419 Tb414 2.353 . S
C420 O424 1.245 . S
C420 O425 1.259 . S
C421 O426 1.250 . S
C421 O427 1.263 . S
O422 Tb414 2.427 . S
O422 C418 1.275 . S
O423 Tb414 2.513 . S
O423 C418 1.246 . S
O424 Tb414 2.453 . S
O424 C420 1.245 . S
O425 Tb412 2.343 . S
O425 Tb414 2.596 . S
O425 C420 1.259 . S
O426 Tb414 2.374 . S
O426 C421 1.250 . S
O427 Tb412 2.353 . S
O427 C421 1.263 . S
C428 O429 1.275 . S
C428 O430 1.246 . S
O429 Tb412 2.427 . S
O429 C428 1.275 . S
O430 Tb412 2.513 . S
O430 C428 1.246 . S
C431 O415 1.245 . S
C431 O416 1.259 . S
Tb432 O435 2.453 . S
Tb432 O436 2.596 . S
Tb432 O437 2.374 1_545 S
Tb432 O445 2.343 1_556 S
Tb432 O447 2.353 1_556 S
Tb432 O449 2.427 1_556 S
Tb432 O450 2.513 1_546 S
C433 O437 1.251 . S
C433 O439 1.263 1_556 S
Tb434 O436 2.343 1_554 S
Tb434 O439 2.353 1_545 S
Tb434 O442 2.427 . S
Tb434 O443 2.513 . S
Tb434 O444 2.453 . S
Tb434 O445 2.596 . S
Tb434 O446 2.374 . S
O435 Tb432 2.453 . S
O435 C451 1.245 . S
O436 Tb432 2.596 . S
O436 Tb434 2.343 1_556 S
O436 C451 1.259 . S
O437 Tb432 2.374 1_565 S
O437 C433 1.251 . S
C438 O442 1.275 . S
C438 O443 1.246 . S
O439 C433 1.263 1_554 S
O439 Tb434 2.353 1_565 S
C440 O444 1.245 . S
C440 O445 1.259 . S
C441 O446 1.250 . S
C441 O447 1.263 . S
O442 Tb434 2.427 . S
O442 C438 1.275 . S
O443 Tb434 2.513 . S
O443 C438 1.246 . S
O444 Tb434 2.453 . S
O444 C440 1.245 . S
O445 Tb432 2.343 1_554 S
O445 Tb434 2.596 . S
O445 C440 1.259 . S
O446 Tb434 2.374 . S
O446 C441 1.250 . S
O447 Tb432 2.353 1_554 S
O447 C441 1.263 . S
C448 O449 1.275 . S
C448 O450 1.246 1_545 S
O449 Tb432 2.427 1_554 S
O449 C448 1.275 . S
O450 Tb432 2.513 1_564 S
O450 C448 1.246 1_565 S
C451 O435 1.245 . S
C451 O436 1.259 . S
Tb452 O455 2.453 . S
Tb452 O456 2.596 . S
Tb452 O457 2.374 . S
Tb452 O465 2.343 . S
Tb452 O467 2.353 . S
Tb452 O469 2.427 . S
Tb452 O470 2.513 . S
C453 O457 1.251 . S
C453 O459 1.263 . S
Tb454 O456 2.343 . S
Tb454 O459 2.353 . S
Tb454 O462 2.427 . S
Tb454 O463 2.513 . S
Tb454 O464 2.453 . S
Tb454 O465 2.596 . S
Tb454 O466 2.374 . S
O455 Tb452 2.453 . S
O455 C471 1.245 . S
O456 Tb452 2.596 . S
O456 Tb454 2.343 . S
O456 C471 1.259 . S
O457 Tb452 2.374 . S
O457 C453 1.251 . S
C458 O462 1.275 . S
C458 O463 1.246 . S
O459 C453 1.263 . S
O459 Tb454 2.353 . S
C460 O464 1.245 . S
C460 O465 1.259 . S
C461 O466 1.250 . S
C461 O467 1.263 . S
O462 Tb454 2.427 . S
O462 C458 1.275 . S
O463 Tb454 2.513 . S
O463 C458 1.246 . S
O464 Tb454 2.453 . S
O464 C460 1.245 . S
O465 Tb452 2.343 . S
O465 Tb454 2.596 . S
O465 C460 1.259 . S
O466 Tb454 2.374 . S
O466 C461 1.250 . S
O467 Tb452 2.353 . S
O467 C461 1.263 . S
C468 O469 1.275 . S
C468 O470 1.246 . S
O469 Tb452 2.427 . S
O469 C468 1.275 . S
O470 Tb452 2.513 . S
O470 C468 1.246 . S
C471 O455 1.245 . S
C471 O456 1.259 . S
Tb472 O475 2.456 . S
Tb472 O476 2.596 1_556 S
Tb472 O477 2.374 . S
Tb472 O485 2.343 . S
Tb472 O487 2.353 . S
Tb472 O489 2.427 . S
Tb472 O490 2.513 . S
C473 O477 1.251 1_554 S
C473 O479 1.263 . S
Tb474 O476 2.343 . S
Tb474 O479 2.353 . S
Tb474 O482 2.427 . S
Tb474 O483 2.513 . S
Tb474 O484 2.453 . S
Tb474 O485 2.596 1_554 S
Tb474 O486 2.374 . S
O475 Tb472 2.456 . S
O475 C491 1.239 1_556 S
O476 Tb472 2.596 1_554 S
O476 Tb474 2.343 . S
O476 C491 1.259 . S
O477 Tb472 2.374 . S
O477 C473 1.251 1_556 S
C478 O482 1.275 . S
C478 O483 1.246 . S
O479 C473 1.263 . S
O479 Tb474 2.353 . S
C480 O484 1.245 1_556 S
C480 O485 1.259 . S
C481 O486 1.250 . S
C481 O487 1.263 1_554 S
O482 Tb474 2.427 . S
O482 C478 1.275 . S
O483 Tb474 2.513 . S
O483 C478 1.246 . S
O484 Tb474 2.453 . S
O484 C480 1.245 1_554 S
O485 Tb472 2.343 . S
O485 Tb474 2.596 1_556 S
O485 C480 1.259 . S
O486 Tb474 2.374 . S
O486 C481 1.250 . S
O487 Tb472 2.353 . S
O487 C481 1.263 1_556 S
C488 O489 1.275 . S
C488 O490 1.246 . S
O489 Tb472 2.427 . S
O489 C488 1.275 . S
O490 Tb472 2.513 . S
O490 C488 1.246 . S
C491 O475 1.239 1_554 S
C491 O476 1.259 . S
Tb492 O495 2.453 . S
Tb492 O496 2.596 . S
Tb492 O497 2.374 . S
Tb492 O505 2.343 . S
Tb492 O507 2.353 . S
Tb492 O509 2.427 . S
Tb492 O510 2.513 . S
C493 O497 1.251 . S
C493 O499 1.263 . S
Tb494 O496 2.343 . S
Tb494 O499 2.353 . S
Tb494 O502 2.427 . S
Tb494 O503 2.513 . S
Tb494 O504 2.453 . S
Tb494 O505 2.596 . S
Tb494 O506 2.374 . S
O495 Tb492 2.453 . S
O495 C511 1.245 . S
O496 Tb492 2.596 . S
O496 Tb494 2.343 . S
O496 C511 1.259 . S
O497 Tb492 2.374 . S
O497 C493 1.251 . S
C498 O502 1.275 . S
C498 O503 1.246 . S
O499 C493 1.263 . S
O499 Tb494 2.353 . S
C500 O504 1.245 . S
C500 O505 1.259 . S
C501 O506 1.250 . S
C501 O507 1.263 . S
O502 Tb494 2.427 . S
O502 C498 1.275 . S
O503 Tb494 2.513 . S
O503 C498 1.246 . S
O504 Tb494 2.453 . S
O504 C500 1.245 . S
O505 Tb492 2.343 . S
O505 Tb494 2.596 . S
O505 C500 1.259 . S
O506 Tb494 2.374 . S
O506 C501 1.250 . S
O507 Tb492 2.353 . S
O507 C501 1.263 . S
C508 O509 1.275 . S
C508 O510 1.246 . S
O509 Tb492 2.427 . S
O509 C508 1.275 . S
O510 Tb492 2.513 . S
O510 C508 1.246 . S
C511 O495 1.245 . S
C511 O496 1.259 . S
Tb512 O515 2.453 . S
Tb512 O516 2.596 1_655 S
Tb512 O517 2.374 . S
Tb512 O525 2.343 . S
Tb512 O527 2.353 . S
Tb512 O529 2.427 . S
Tb512 O530 2.513 . S
C513 O517 1.251 1_455 S
C513 O519 1.263 . S
Tb514 O516 2.343 . S
Tb514 O519 2.353 . S
Tb514 O522 2.427 . S
Tb514 O523 2.513 . S
Tb514 O524 2.453 . S
Tb514 O525 2.596 1_455 S
Tb514 O526 2.374 . S
O515 Tb512 2.453 . S
O515 C531 1.245 1_655 S
O516 Tb512 2.596 1_455 S
O516 Tb514 2.343 . S
O516 C531 1.259 . S
O517 Tb512 2.374 . S
O517 C513 1.251 1_655 S
C518 O522 1.275 . S
C518 O523 1.246 . S
O519 C513 1.263 . S
O519 Tb514 2.353 . S
C520 O524 1.245 1_655 S
C520 O525 1.259 . S
C521 O526 1.215 1_655 S
C521 O527 1.284 . S
O522 Tb514 2.427 . S
O522 C518 1.275 . S
O523 Tb514 2.513 . S
O523 C518 1.246 . S
O524 Tb514 2.453 . S
O524 C520 1.245 1_455 S
O525 Tb512 2.343 . S
O525 Tb514 2.596 1_655 S
O525 C520 1.259 . S
O526 Tb514 2.374 . S
O526 C521 1.215 1_455 S
O527 Tb512 2.353 . S
O527 C521 1.284 . S
C528 O529 1.275 . S
C528 O530 1.246 . S
O529 Tb512 2.427 . S
O529 C528 1.275 . S
O530 Tb512 2.513 . S
O530 C528 1.246 . S
C531 O515 1.245 1_455 S
C531 O516 1.259 . S
Tb532 O535 2.453 . S
Tb532 O536 2.596 . S
Tb532 O537 2.374 . S
Tb532 O545 2.343 . S
Tb532 O547 2.353 . S
Tb532 O549 2.427 . S
Tb532 O550 2.513 . S
C533 O537 1.251 . S
C533 O539 1.263 . S
Tb534 O536 2.343 . S
Tb534 O539 2.353 . S
Tb534 O542 2.427 . S
Tb534 O543 2.513 . S
Tb534 O544 2.453 . S
Tb534 O545 2.596 . S
Tb534 O546 2.374 . S
O535 Tb532 2.453 . S
O535 C551 1.245 . S
O536 Tb532 2.596 . S
O536 Tb534 2.343 . S
O536 C551 1.259 . S
O537 Tb532 2.374 . S
O537 C533 1.251 . S
C538 O542 1.275 . S
C538 O543 1.246 . S
O539 C533 1.263 . S
O539 Tb534 2.353 . S
C540 O544 1.245 . S
C540 O545 1.259 . S
C541 O546 1.250 . S
C541 O547 1.263 . S
O542 Tb534 2.427 . S
O542 C538 1.275 . S
O543 Tb534 2.513 . S
O543 C538 1.246 . S
O544 Tb534 2.453 . S
O544 C540 1.245 . S
O545 Tb532 2.343 . S
O545 Tb534 2.596 . S
O545 C540 1.259 . S
O546 Tb534 2.374 . S
O546 C541 1.250 . S
O547 Tb532 2.353 . S
O547 C541 1.263 . S
C548 O549 1.275 . S
C548 O550 1.246 . S
O549 Tb532 2.427 . S
O549 C548 1.275 . S
O550 Tb532 2.513 . S
O550 C548 1.246 . S
C551 O535 1.245 . S
C551 O536 1.259 . S
Tb552 O555 2.453 . S
Tb552 O556 2.596 . S
Tb552 O557 2.374 . S
Tb552 O565 2.343 . S
Tb552 O567 2.353 . S
Tb552 O569 2.427 . S
Tb552 O570 2.513 . S
C553 O557 1.251 . S
C553 O559 1.263 . S
Tb554 O556 2.343 . S
Tb554 O559 2.353 . S
Tb554 O562 2.427 . S
Tb554 O563 2.513 . S
Tb554 O564 2.453 . S
Tb554 O565 2.596 . S
Tb554 O566 2.374 . S
O555 Tb552 2.453 . S
O555 C571 1.245 . S
O556 Tb552 2.596 . S
O556 Tb554 2.343 . S
O556 C571 1.259 . S
O557 Tb552 2.374 . S
O557 C553 1.251 . S
C558 O562 1.275 . S
C558 O563 1.246 . S
O559 C553 1.263 . S
O559 Tb554 2.353 . S
C560 O564 1.245 . S
C560 O565 1.259 . S
C561 O566 1.250 . S
C561 O567 1.263 . S
O562 Tb554 2.427 . S
O562 C558 1.275 . S
O563 Tb554 2.513 . S
O563 C558 1.246 . S
O564 Tb554 2.453 . S
O564 C560 1.245 . S
O565 Tb552 2.343 . S
O565 Tb554 2.596 . S
O565 C560 1.259 . S
O566 Tb554 2.374 . S
O566 C561 1.250 . S
O567 Tb552 2.353 . S
O567 C561 1.263 . S
C568 O569 1.275 . S
C568 O570 1.246 . S
O569 Tb552 2.427 . S
O569 C568 1.275 . S
O570 Tb552 2.513 . S
O570 C568 1.246 . S
C571 O555 1.245 . S
C571 O556 1.259 . S
Tb572 O575 2.453 . S
Tb572 O576 2.596 . S
Tb572 O577 2.374 . S
Tb572 O585 2.343 . S
Tb572 O587 2.353 . S
Tb572 O589 2.427 . S
Tb572 O590 2.513 . S
C573 O577 1.251 . S
C573 O579 1.263 . S
Tb574 O576 2.343 . S
Tb574 O579 2.353 . S
Tb574 O582 2.427 . S
Tb574 O583 2.513 . S
Tb574 O584 2.453 . S
Tb574 O585 2.596 . S
Tb574 O586 2.374 . S
O575 Tb572 2.453 . S
O575 C591 1.245 . S
O576 Tb572 2.596 . S
O576 Tb574 2.343 . S
O576 C591 1.259 . S
O577 Tb572 2.374 . S
O577 C573 1.251 . S
C578 O582 1.275 . S
C578 O583 1.246 . S
O579 C573 1.263 . S
O579 Tb574 2.353 . S
C580 O584 1.245 . S
C580 O585 1.259 . S
C581 O586 1.250 . S
C581 O587 1.263 . S
O582 Tb574 2.427 . S
O582 C578 1.275 . S
O583 Tb574 2.513 . S
O583 C578 1.246 . S
O584 Tb574 2.453 . S
O584 C580 1.245 . S
O585 Tb572 2.343 . S
O585 Tb574 2.596 . S
O585 C580 1.259 . S
O586 Tb574 2.374 . S
O586 C581 1.250 . S
O587 Tb572 2.353 . S
O587 C581 1.263 . S
C588 O589 1.275 . S
C588 O590 1.246 . S
O589 Tb572 2.427 . S
O589 C588 1.275 . S
O590 Tb572 2.513 . S
O590 C588 1.246 . S
C591 O575 1.245 . S
C591 O576 1.259 . S
Tb592 O595 2.453 . S
Tb592 O596 2.596 . S
Tb592 O597 2.374 . S
Tb592 O605 2.343 . S
Tb592 O607 2.353 . S
Tb592 O609 2.427 . S
Tb592 O610 2.513 . S
C593 O597 1.251 . S
C593 O599 1.263 . S
Tb594 O596 2.343 . S
Tb594 O599 2.353 . S
Tb594 O602 2.427 . S
Tb594 O603 2.513 . S
Tb594 O604 2.453 . S
Tb594 O605 2.596 . S
Tb594 O606 2.374 . S
O595 Tb592 2.453 . S
O595 C611 1.245 . S
O596 Tb592 2.596 . S
O596 Tb594 2.343 . S
O596 C611 1.259 . S
O597 Tb592 2.374 . S
O597 C593 1.251 . S
C598 O602 1.275 . S
C598 O603 1.246 . S
O599 C593 1.263 . S
O599 Tb594 2.353 . S
C600 O604 1.245 . S
C600 O605 1.259 . S
C601 O606 1.250 . S
C601 O607 1.263 . S
O602 Tb594 2.427 . S
O602 C598 1.275 . S
O603 Tb594 2.513 . S
O603 C598 1.246 . S
O604 Tb594 2.453 . S
O604 C600 1.245 . S
O605 Tb592 2.343 . S
O605 Tb594 2.596 . S
O605 C600 1.259 . S
O606 Tb594 2.374 . S
O606 C601 1.250 . S
O607 Tb592 2.353 . S
O607 C601 1.263 . S
C608 O609 1.275 . S
C608 O610 1.246 . S
O609 Tb592 2.427 . S
O609 C608 1.275 . S
O610 Tb592 2.513 . S
O610 C608 1.246 . S
C611 O595 1.245 . S
C611 O596 1.259 . S
Tb612 O615 2.453 . S
Tb612 O616 2.596 1_455 S
Tb612 O617 2.374 . S
Tb612 O625 2.343 . S
Tb612 O627 2.353 1_554 S
Tb612 O629 2.427 1_554 S
Tb612 O630 2.513 . S
C613 O617 1.251 . S
C613 O619 1.263 1_455 S
Tb614 O616 2.343 . S
Tb614 O619 2.353 . S
Tb614 O622 2.427 . S
Tb614 O623 2.513 . S
Tb614 O624 2.453 . S
Tb614 O625 2.596 1_655 S
Tb614 O626 2.374 1_554 S
O615 Tb612 2.453 . S
O615 C631 1.245 . S
O616 Tb612 2.596 1_655 S
O616 Tb614 2.343 . S
O616 C631 1.259 1_655 S
O617 Tb612 2.374 . S
O617 C613 1.251 . S
C618 O622 1.275 . S
C618 O623 1.246 . S
O619 C613 1.263 1_655 S
O619 Tb614 2.353 . S
C620 O624 1.245 . S
C620 O625 1.259 1_655 S
C621 O626 1.250 . S
C621 O627 1.263 1_655 S
O622 Tb614 2.427 . S
O622 C618 1.275 . S
O623 Tb614 2.513 . S
O623 C618 1.246 . S
O624 Tb614 2.453 . S
O624 C620 1.245 . S
O625 Tb612 2.343 . S
O625 Tb614 2.596 1_455 S
O625 C620 1.259 1_455 S
O626 Tb614 2.374 1_556 S
O626 C621 1.250 . S
O627 Tb612 2.353 1_556 S
O627 C621 1.263 1_455 S
C628 O629 1.275 1_554 S
C628 O630 1.246 . S
O629 Tb612 2.427 1_556 S
O629 C628 1.275 1_556 S
O630 Tb612 2.513 . S
O630 C628 1.246 . S
C631 O615 1.245 . S
C631 O616 1.259 1_455 S
H632 C638 0.930 1_655 S
H633 C642 0.930 . S
H634 C647 0.929 . S
H635 C645 0.929 1_655 S
H636 C640 0.929 . S
H637 C646 0.929 1_655 S
C638 H632 0.930 1_455 S
C638 C639 1.367 . S
C638 C646 1.378 . S
C639 C638 1.367 . S
C639 C647 1.433 . S
C640 H636 0.929 . S
C640 C642 1.378 . S
C640 C644 1.350 . S
C641 C644 1.463 . S
C641 C646 1.350 . S
C641 N649 1.427 . S
C642 H633 0.930 . S
C642 C640 1.378 . S
C642 C643 1.367 1_556 S
C643 C642 1.367 1_554 S
C643 C645 1.433 . S
C644 C640 1.350 . S
C644 C641 1.463 . S
C644 N648 1.427 . S
C645 H635 0.929 1_455 S
C645 C643 1.433 . S
C645 N648 1.384 1_554 S
C646 H637 0.929 1_455 S
C646 C638 1.378 . S
C646 C641 1.350 . S
C647 H634 0.929 . S
C647 C639 1.433 . S
C647 N649 1.384 . S
N648 C644 1.427 . S
N648 C645 1.384 1_556 S
N649 C641 1.427 . S
N649 C647 1.384 . S
H650 C656 0.930 . S
H651 C660 0.930 . S
H652 C665 0.929 . S
H653 C663 0.929 . S
H654 C658 0.929 . S
H655 C664 0.929 . S
C656 H650 0.930 . S
C656 C657 1.367 . S
C656 C664 1.378 . S
C657 C656 1.367 . S
C657 C665 1.433 . S
C658 H654 0.929 . S
C658 C660 1.378 . S
C658 C662 1.350 . S
C659 C662 1.463 . S
C659 C664 1.350 . S
C659 N667 1.427 . S
C660 H651 0.930 . S
C660 C658 1.378 . S
C660 C661 1.367 . S
C661 C660 1.367 . S
C661 C663 1.433 . S
C662 C658 1.350 . S
C662 C659 1.463 . S
C662 N666 1.427 . S
C663 H653 0.929 . S
C663 C661 1.433 . S
C663 N666 1.384 . S
C664 H655 0.929 . S
C664 C656 1.378 . S
C664 C659 1.350 . S
C665 H652 0.929 . S
C665 C657 1.433 . S
C665 N667 1.384 . S
N666 C662 1.427 . S
N666 C663 1.384 . S
N667 C659 1.427 . S
N667 C665 1.384 . S
H668 C674 0.930 . S
H669 C678 0.930 . S
H670 C683 0.929 . S
H671 C681 0.929 . S
H672 C676 0.929 . S
H673 C682 0.929 . S
C674 H668 0.930 . S
C674 C675 1.367 . S
C674 C682 1.378 . S
C675 C674 1.367 . S
C675 C683 1.433 . S
C676 H672 0.929 . S
C676 C678 1.378 . S
C676 C680 1.350 . S
C677 C680 1.463 . S
C677 C682 1.350 . S
C677 N685 1.427 . S
C678 H669 0.930 . S
C678 C676 1.378 . S
C678 C679 1.367 . S
C679 C678 1.367 . S
C679 C681 1.433 . S
C680 C676 1.350 . S
C680 C677 1.463 . S
C680 N684 1.427 . S
C681 H671 0.929 . S
C681 C679 1.433 . S
C681 N684 1.384 . S
C682 H673 0.929 . S
C682 C674 1.378 . S
C682 C677 1.350 . S
C683 H670 0.929 . S
C683 C675 1.433 . S
C683 N685 1.384 . S
N684 C680 1.427 . S
N684 C681 1.384 . S
N685 C677 1.427 . S
N685 C683 1.384 . S
H686 C692 0.930 . S
H687 C696 0.930 . S
H688 C701 0.929 . S
H689 C699 0.929 . S
H690 C694 0.929 . S
H691 C700 0.929 . S
C692 H686 0.930 . S
C692 C693 1.367 . S
C692 C700 1.378 . S
C693 C692 1.367 . S
C693 C701 1.433 . S
C694 H690 0.929 . S
C694 C696 1.378 . S
C694 C698 1.350 . S
C695 C698 1.463 . S
C695 C700 1.350 . S
C695 N703 1.427 . S
C696 H687 0.930 . S
C696 C694 1.378 . S
C696 C697 1.367 . S
C697 C696 1.367 . S
C697 C699 1.433 . S
C698 C694 1.350 . S
C698 C695 1.463 . S
C698 N702 1.427 . S
C699 H689 0.929 . S
C699 C697 1.433 . S
C699 N702 1.384 . S
C700 H691 0.929 . S
C700 C692 1.378 . S
C700 C695 1.350 . S
C701 H688 0.929 . S
C701 C693 1.433 . S
C701 N703 1.384 . S
N702 C698 1.427 . S
N702 C699 1.384 . S
N703 C695 1.427 . S
N703 C701 1.384 . S
H704 C710 0.915 1_655 S
H705 C714 0.930 . S
H706 C719 0.929 . S
H707 C717 0.929 1_655 S
H708 C712 0.929 . S
H709 C718 0.929 1_655 S
C710 H704 0.915 1_455 S
C710 C711 1.383 . S
C710 C718 1.378 . S
C711 C710 1.383 . S
C711 C719 1.433 . S
C712 H708 0.929 . S
C712 C714 1.378 . S
C712 C716 1.350 . S
C713 C716 1.463 . S
C713 C718 1.350 . S
C713 N721 1.427 . S
C714 H705 0.930 . S
C714 C712 1.378 . S
C714 C715 1.367 . S
C715 C714 1.367 . S
C715 C717 1.433 . S
C716 C712 1.350 . S
C716 C713 1.463 . S
C716 N720 1.427 . S
C717 H707 0.929 1_455 S
C717 C715 1.433 . S
C717 N720 1.384 . S
C718 H709 0.929 1_455 S
C718 C710 1.378 . S
C718 C713 1.350 . S
C719 H706 0.929 . S
C719 C711 1.433 . S
C719 N721 1.384 . S
N720 C716 1.427 . S
N720 C717 1.384 . S
N721 C713 1.427 . S
N721 C719 1.384 . S
H722 C728 0.930 . S
H723 C732 0.930 . S
H724 C737 0.929 . S
H725 C735 0.929 . S
H726 C730 0.929 . S
H727 C736 0.929 . S
C728 H722 0.930 . S
C728 C729 1.367 . S
C728 C736 1.378 . S
C729 C728 1.367 . S
C729 C737 1.433 . S
C730 H726 0.929 . S
C730 C732 1.378 . S
C730 C734 1.350 . S
C731 C734 1.463 . S
C731 C736 1.350 . S
C731 N739 1.427 . S
C732 H723 0.930 . S
C732 C730 1.378 . S
C732 C733 1.367 . S
C733 C732 1.367 . S
C733 C735 1.433 . S
C734 C730 1.350 . S
C734 C731 1.463 . S
C734 N738 1.427 . S
C735 H725 0.929 . S
C735 C733 1.433 . S
C735 N738 1.384 . S
C736 H727 0.929 . S
C736 C728 1.378 . S
C736 C731 1.350 . S
C737 H724 0.929 . S
C737 C729 1.433 . S
C737 N739 1.384 . S
N738 C734 1.427 . S
N738 C735 1.384 . S
N739 C731 1.427 . S
N739 C737 1.384 . S
H740 C746 0.930 . S
H741 C750 0.930 . S
H742 C755 0.929 . S
H743 C753 0.929 . S
H744 C748 0.929 . S
H745 C754 0.929 . S
C746 H740 0.930 . S
C746 C747 1.367 . S
C746 C754 1.378 . S
C747 C746 1.367 . S
C747 C755 1.433 . S
C748 H744 0.929 . S
C748 C750 1.378 . S
C748 C752 1.350 . S
C749 C752 1.463 . S
C749 C754 1.350 . S
C749 N757 1.427 . S
C750 H741 0.930 . S
C750 C748 1.378 . S
C750 C751 1.367 . S
C751 C750 1.367 . S
C751 C753 1.433 . S
C752 C748 1.350 . S
C752 C749 1.463 . S
C752 N756 1.427 . S
C753 H743 0.929 . S
C753 C751 1.433 . S
C753 N756 1.384 . S
C754 H745 0.929 . S
C754 C746 1.378 . S
C754 C749 1.350 . S
C755 H742 0.929 . S
C755 C747 1.433 . S
C755 N757 1.384 . S
N756 C752 1.427 . S
N756 C753 1.384 . S
N757 C749 1.427 . S
N757 C755 1.384 . S
H758 C764 0.930 . S
H759 C768 0.930 . S
H760 C773 0.929 . S
H761 C771 0.929 . S
H762 C766 0.929 . S
H763 C772 0.929 . S
C764 H758 0.930 . S
C764 C765 1.367 . S
C764 C772 1.378 . S
C765 C764 1.367 . S
C765 C773 1.433 . S
C766 H762 0.929 . S
C766 C768 1.378 . S
C766 C770 1.350 . S
C767 C770 1.463 . S
C767 C772 1.350 . S
C767 N775 1.427 . S
C768 H759 0.930 . S
C768 C766 1.378 . S
C768 C769 1.367 . S
C769 C768 1.367 . S
C769 C771 1.433 . S
C770 C766 1.350 . S
C770 C767 1.463 . S
C770 N774 1.427 . S
C771 H761 0.929 . S
C771 C769 1.433 . S
C771 N774 1.384 . S
C772 H763 0.929 . S
C772 C764 1.378 . S
C772 C767 1.350 . S
C773 H760 0.929 . S
C773 C765 1.433 . S
C773 N775 1.384 . S
N774 C770 1.427 . S
N774 C771 1.384 . S
N775 C767 1.427 . S
N775 C773 1.384 . S
H776 C782 0.930 . S
H777 C786 0.930 . S
H778 C791 0.929 . S
H779 C789 0.929 . S
H780 C784 0.929 . S
H781 C790 0.929 . S
C782 H776 0.930 . S
C782 C783 1.367 . S
C782 C790 1.378 . S
C783 C782 1.367 . S
C783 C791 1.433 . S
C784 H780 0.929 . S
C784 C786 1.378 . S
C784 C788 1.350 . S
C785 C788 1.463 . S
C785 C790 1.350 . S
C785 N793 1.427 . S
C786 H777 0.930 . S
C786 C784 1.378 . S
C786 C787 1.367 1_655 S
C787 C786 1.367 1_455 S
C787 C789 1.433 . S
C788 C784 1.350 . S
C788 C785 1.463 . S
C788 N792 1.427 . S
C789 H779 0.929 . S
C789 C787 1.433 . S
C789 N792 1.384 1_455 S
C790 H781 0.929 . S
C790 C782 1.378 . S
C790 C785 1.350 . S
C791 H778 0.929 . S
C791 C783 1.433 . S
C791 N793 1.384 . S
N792 C788 1.427 . S
N792 C789 1.384 1_655 S
N793 C785 1.427 . S
N793 C791 1.384 . S
H794 C800 0.930 . S
H795 C804 0.930 . S
H796 C809 0.929 . S
H797 C807 0.929 . S
H798 C802 0.929 . S
H799 C808 0.929 . S
C800 H794 0.930 . S
C800 C801 1.367 . S
C800 C808 1.378 . S
C801 C800 1.367 . S
C801 C809 1.433 . S
C802 H798 0.929 . S
C802 C804 1.378 . S
C802 C806 1.350 . S
C803 C806 1.463 . S
C803 C808 1.350 . S
C803 N811 1.427 . S
C804 H795 0.930 . S
C804 C802 1.378 . S
C804 C805 1.367 . S
C805 C804 1.367 . S
C805 C807 1.433 . S
C806 C802 1.350 . S
C806 C803 1.463 . S
C806 N810 1.427 . S
C807 H797 0.929 . S
C807 C805 1.433 . S
C807 N810 1.384 . S
C808 H799 0.929 . S
C808 C800 1.378 . S
C808 C803 1.350 . S
C809 H796 0.929 . S
C809 C801 1.433 . S
C809 N811 1.384 . S
N810 C806 1.427 . S
N810 C807 1.384 . S
N811 C803 1.427 . S
N811 C809 1.384 . S
H812 C818 0.930 . S
H813 C822 0.930 . S
H814 C827 0.929 . S
H815 C825 0.929 1_565 S
H816 C820 0.929 . S
H817 C826 0.929 . S
C818 H812 0.930 . S
C818 C819 1.365 1_565 S
C818 C826 1.378 . S
C819 C818 1.365 1_545 S
C819 C827 1.438 . S
C820 H816 0.929 . S
C820 C822 1.378 . S
C820 C824 1.350 . S
C821 C824 1.463 . S
C821 C826 1.350 1_545 S
C821 N829 1.427 . S
C822 H813 0.930 . S
C822 C820 1.378 . S
C822 C823 1.367 . S
C823 C822 1.367 . S
C823 C825 1.433 . S
C824 C820 1.350 . S
C824 C821 1.463 . S
C824 N828 1.430 . S
C825 H815 0.929 1_545 S
C825 C823 1.433 . S
C825 N828 1.389 . S
C826 H817 0.929 . S
C826 C818 1.378 . S
C826 C821 1.350 1_565 S
C827 H814 0.929 . S
C827 C819 1.438 . S
C827 N829 1.384 . S
N828 C824 1.430 . S
N828 C825 1.389 . S
N829 C821 1.427 . S
N829 C827 1.384 . S
H830 C836 0.930 . S
H831 C840 0.930 . S
H832 C845 0.929 . S
H833 C843 0.929 . S
H834 C838 0.929 . S
H835 C844 0.929 . S
C836 H830 0.930 . S
C836 C837 1.367 . S
C836 C844 1.378 . S
C837 C836 1.367 . S
C837 C845 1.433 . S
C838 H834 0.929 . S
C838 C840 1.378 . S
C838 C842 1.350 . S
C839 C842 1.463 . S
C839 C844 1.350 . S
C839 N847 1.427 . S
C840 H831 0.930 . S
C840 C838 1.378 . S
C840 C841 1.367 . S
C841 C840 1.367 . S
C841 C843 1.433 . S
C842 C838 1.350 . S
C842 C839 1.463 . S
C842 N846 1.427 . S
C843 H833 0.929 . S
C843 C841 1.433 . S
C843 N846 1.384 . S
C844 H835 0.929 . S
C844 C836 1.378 . S
C844 C839 1.350 . S
C845 H832 0.929 . S
C845 C837 1.433 . S
C845 N847 1.384 . S
N846 C842 1.427 . S
N846 C843 1.384 . S
N847 C839 1.427 . S
N847 C845 1.384 . S
H848 C854 0.930 . S
H849 C858 0.930 1_565 S
H850 C863 0.929 . S
H851 C861 0.929 . S
H852 C856 0.929 . S
H853 C862 0.929 . S
C854 H848 0.930 . S
C854 C855 1.367 . S
C854 C862 1.378 . S
C855 C854 1.367 . S
C855 C863 1.433 . S
C856 H852 0.929 . S
C856 C858 1.378 . S
C856 C860 1.350 . S
C857 C860 1.463 . S
C857 C862 1.350 . S
C857 N865 1.427 . S
C858 H849 0.930 1_545 S
C858 C856 1.378 . S
C858 C859 1.367 . S
C859 C858 1.367 . S
C859 C861 1.433 1_655 S
C860 C856 1.350 . S
C860 C857 1.463 . S
C860 N864 1.427 . S
C861 H851 0.929 . S
C861 C859 1.433 1_455 S
C861 N864 1.384 1_455 S
C862 H853 0.929 . S
C862 C854 1.378 . S
C862 C857 1.350 . S
C863 H850 0.929 . S
C863 C855 1.433 . S
C863 N865 1.384 . S
N864 C860 1.427 . S
N864 C861 1.384 1_655 S
N865 C857 1.427 . S
N865 C863 1.384 . S
H866 C872 0.930 . S
H867 C876 0.930 . S
H868 C881 0.929 . S
H869 C879 0.929 . S
H870 C874 0.929 . S
H871 C880 0.929 . S
C872 H866 0.930 . S
C872 C873 1.367 . S
C872 C880 1.378 . S
C873 C872 1.367 . S
C873 C881 1.433 . S
C874 H870 0.929 . S
C874 C876 1.378 . S
C874 C878 1.350 . S
C875 C878 1.463 . S
C875 C880 1.350 . S
C875 N883 1.427 . S
C876 H867 0.930 . S
C876 C874 1.378 . S
C876 C877 1.367 . S
C877 C876 1.367 . S
C877 C879 1.433 . S
C878 C874 1.350 . S
C878 C875 1.463 . S
C878 N882 1.427 . S
C879 H869 0.929 . S
C879 C877 1.433 . S
C879 N882 1.384 . S
C880 H871 0.929 . S
C880 C872 1.378 . S
C880 C875 1.350 . S
C881 H868 0.929 . S
C881 C873 1.433 . S
C881 N883 1.384 . S
N882 C878 1.427 . S
N882 C879 1.384 . S
N883 C875 1.427 . S
N883 C881 1.384 . S
H884 C890 0.930 . S
H885 C894 0.930 . S
H886 C899 0.929 . S
H887 C897 0.929 . S
H888 C892 0.929 . S
H889 C898 0.929 . S
C890 H884 0.930 . S
C890 C891 1.367 . S
C890 C898 1.378 . S
C891 C890 1.367 . S
C891 C899 1.433 . S
C892 H888 0.929 . S
C892 C894 1.378 . S
C892 C896 1.350 . S
C893 C896 1.463 . S
C893 C898 1.350 . S
C893 N901 1.427 . S
C894 H885 0.930 . S
C894 C892 1.378 . S
C894 C895 1.367 . S
C895 C894 1.367 . S
C895 C897 1.433 . S
C896 C892 1.350 . S
C896 C893 1.463 . S
C896 N900 1.427 . S
C897 H887 0.929 . S
C897 C895 1.433 . S
C897 N900 1.384 . S
C898 H889 0.929 . S
C898 C890 1.378 . S
C898 C893 1.350 . S
C899 H886 0.929 . S
C899 C891 1.433 . S
C899 N901 1.384 . S
N900 C896 1.427 . S
N900 C897 1.384 . S
N901 C893 1.427 . S
N901 C899 1.384 . S
H902 C908 0.930 . S
H903 C912 0.930 . S
H904 C917 0.929 . S
H905 C915 0.929 . S
H906 C910 0.929 . S
H907 C916 0.929 . S
C908 H902 0.930 . S
C908 C909 1.367 . S
C908 C916 1.378 . S
C909 C908 1.367 . S
C909 C917 1.433 . S
C910 H906 0.929 . S
C910 C912 1.378 . S
C910 C914 1.350 . S
C911 C914 1.463 . S
C911 C916 1.350 . S
C911 N919 1.427 . S
C912 H903 0.930 . S
C912 C910 1.378 . S
C912 C913 1.367 . S
C913 C912 1.367 . S
C913 C915 1.433 . S
C914 C910 1.350 . S
C914 C911 1.463 . S
C914 N918 1.427 . S
C915 H905 0.929 . S
C915 C913 1.433 . S
C915 N918 1.384 . S
C916 H907 0.929 . S
C916 C908 1.378 . S
C916 C911 1.350 . S
C917 H904 0.929 . S
C917 C909 1.433 . S
C917 N919 1.384 . S
N918 C914 1.427 . S
N918 C915 1.384 . S
N919 C911 1.427 . S
N919 C917 1.384 . S
H920 C926 0.930 . S
H921 C930 0.930 . S
H922 C935 0.929 . S
H923 C933 0.929 . S
H924 C928 0.929 . S
H925 C934 0.929 . S
C926 H920 0.930 . S
C926 C927 1.367 . S
C926 C934 1.378 . S
C927 C926 1.367 . S
C927 C935 1.433 . S
C928 H924 0.929 . S
C928 C930 1.378 1_565 S
C928 C932 1.350 . S
C929 C932 1.463 . S
C929 C934 1.350 . S
C929 N937 1.427 . S
C930 H921 0.930 . S
C930 C928 1.378 1_545 S
C930 C931 1.367 . S
C931 C930 1.367 . S
C931 C933 1.433 . S
C932 C928 1.350 . S
C932 C929 1.463 . S
C932 N936 1.427 . S
C933 H923 0.929 . S
C933 C931 1.433 . S
C933 N936 1.384 1_545 S
C934 H925 0.929 . S
C934 C926 1.378 . S
C934 C929 1.350 . S
C935 H922 0.929 . S
C935 C927 1.433 . S
C935 N937 1.384 . S
N936 C932 1.427 . S
N936 C933 1.384 1_565 S
N937 C929 1.427 . S
N937 C935 1.384 . S
H938 C944 0.930 . S
H939 C948 0.930 . S
H940 C953 0.929 . S
H941 C951 0.929 . S
H942 C946 0.929 . S
H943 C952 0.929 . S
C944 H938 0.930 . S
C944 C945 1.367 . S
C944 C952 1.378 . S
C945 C944 1.367 . S
C945 C953 1.433 1_556 S
C946 H942 0.929 . S
C946 C948 1.378 . S
C946 C950 1.350 1_554 S
C947 C950 1.463 . S
C947 C952 1.350 . S
C947 N955 1.427 1_556 S
C948 H939 0.930 . S
C948 C946 1.378 . S
C948 C949 1.367 1_554 S
C949 C948 1.367 1_556 S
C949 C951 1.433 . S
C950 C946 1.350 1_556 S
C950 C947 1.463 . S
C950 N954 1.427 . S
C951 H941 0.929 . S
C951 C949 1.433 . S
C951 N954 1.384 . S
C952 H943 0.929 . S
C952 C944 1.378 . S
C952 C947 1.350 . S
C953 H940 0.929 . S
C953 C945 1.433 1_554 S
C953 N955 1.384 . S
N954 C950 1.427 . S
N954 C951 1.384 . S
N955 C947 1.427 1_554 S
N955 C953 1.384 . S
H956 C962 0.930 . S
H957 C966 0.930 . S
H958 C971 0.929 . S
H959 C969 0.929 . S
H960 C964 0.929 . S
H961 C970 0.929 . S
C962 H956 0.930 . S
C962 C963 1.367 . S
C962 C970 1.378 . S
C963 C962 1.367 . S
C963 C971 1.433 . S
C964 H960 0.929 . S
C964 C966 1.378 . S
C964 C968 1.350 . S
C965 C968 1.463 . S
C965 C970 1.350 . S
C965 N973 1.427 . S
C966 H957 0.930 . S
C966 C964 1.378 . S
C966 C967 1.367 . S
C967 C966 1.367 . S
C967 C969 1.433 . S
C968 C964 1.350 . S
C968 C965 1.463 . S
C968 N972 1.427 . S
C969 H959 0.929 . S
C969 C967 1.433 . S
C969 N972 1.384 . S
C970 H961 0.929 . S
C970 C962 1.378 . S
C970 C965 1.350 . S
C971 H958 0.929 . S
C971 C963 1.433 . S
C971 N973 1.384 . S
N972 C968 1.427 . S
N972 C969 1.384 . S
N973 C965 1.427 . S
N973 C971 1.384 . S
H974 C980 0.930 . S
H975 C984 0.930 . S
H976 C989 0.929 . S
H977 C987 0.929 . S
H978 C982 0.929 . S
H979 C988 0.929 . S
C980 H974 0.930 . S
C980 C981 1.367 . S
C980 C988 1.378 . S
C981 C980 1.367 . S
C981 C989 1.433 . S
C982 H978 0.929 . S
C982 C984 1.378 . S
C982 C986 1.350 . S
C983 C986 1.463 . S
C983 C988 1.350 . S
C983 N991 1.427 . S
C984 H975 0.930 . S
C984 C982 1.378 . S
C984 C985 1.367 . S
C985 C984 1.367 . S
C985 C987 1.433 . S
C986 C982 1.350 . S
C986 C983 1.463 . S
C986 N990 1.427 . S
C987 H977 0.929 . S
C987 C985 1.433 . S
C987 N990 1.384 . S
C988 H979 0.929 . S
C988 C980 1.378 . S
C988 C983 1.350 . S
C989 H976 0.929 . S
C989 C981 1.433 . S
C989 N991 1.384 . S
N990 C986 1.427 . S
N990 C987 1.384 . S
N991 C983 1.427 . S
N991 C989 1.384 . S
H992 C998 0.930 . S
H993 C1002 0.930 . S
H994 C1007 0.929 . S
H995 C1005 0.929 . S
H996 C1000 0.929 . S
H997 C1006 0.929 . S
C998 H992 0.930 . S
C998 C999 1.367 . S
C998 C1006 1.378 . S
C999 C998 1.367 . S
C999 C1007 1.433 . S
C1000 H996 0.929 . S
C1000 C1002 1.378 . S
C1000 C1004 1.350 . S
C1001 C1004 1.463 . S
C1001 C1006 1.350 . S
C1001 N1009 1.427 . S
C1002 H993 0.930 . S
C1002 C1000 1.378 . S
C1002 C1003 1.367 . S
C1003 C1002 1.367 . S
C1003 C1005 1.433 . S
C1004 C1000 1.350 . S
C1004 C1001 1.463 . S
C1004 N1008 1.427 . S
C1005 H995 0.929 . S
C1005 C1003 1.433 . S
C1005 N1008 1.384 . S
C1006 H997 0.929 . S
C1006 C998 1.378 . S
C1006 C1001 1.350 . S
C1007 H994 0.929 . S
C1007 C999 1.433 . S
C1007 N1009 1.384 . S
N1008 C1004 1.427 . S
N1008 C1005 1.384 . S
N1009 C1001 1.427 . S
N1009 C1007 1.384 . S
H1010 C1016 0.930 . S
H1011 C1020 0.930 . S
H1012 C1025 0.929 . S
H1013 C1023 0.929 . S
H1014 C1018 0.929 . S
H1015 C1024 0.929 . S
C1016 H1010 0.930 . S
C1016 C1017 1.367 . S
C1016 C1024 1.378 . S
C1017 C1016 1.367 . S
C1017 C1025 1.433 . S
C1018 H1014 0.929 . S
C1018 C1020 1.378 . S
C1018 C1022 1.350 . S
C1019 C1022 1.463 . S
C1019 C1024 1.350 . S
C1019 N1027 1.427 . S
C1020 H1011 0.930 . S
C1020 C1018 1.378 . S
C1020 C1021 1.367 . S
C1021 C1020 1.367 . S
C1021 C1023 1.433 . S
C1022 C1018 1.350 . S
C1022 C1019 1.463 . S
C1022 N1026 1.427 . S
C1023 H1013 0.929 . S
C1023 C1021 1.433 . S
C1023 N1026 1.384 . S
C1024 H1015 0.929 . S
C1024 C1016 1.378 . S
C1024 C1019 1.350 . S
C1025 H1012 0.929 . S
C1025 C1017 1.433 . S
C1025 N1027 1.384 . S
N1026 C1022 1.427 . S
N1026 C1023 1.384 . S
N1027 C1019 1.427 . S
N1027 C1025 1.384 . S
H1028 C1034 0.930 . S
H1029 C1038 0.930 . S
H1030 C1043 0.929 . S
H1031 C1041 0.929 . S
H1032 C1036 0.929 . S
H1033 C1042 0.929 . S
C1034 H1028 0.930 . S
C1034 C1035 1.367 . S
C1034 C1042 1.378 . S
C1035 C1034 1.367 . S
C1035 C1043 1.433 . S
C1036 H1032 0.929 . S
C1036 C1038 1.378 . S
C1036 C1040 1.350 . S
C1037 C1040 1.463 . S
C1037 C1042 1.350 . S
C1037 N1045 1.427 . S
C1038 H1029 0.930 . S
C1038 C1036 1.378 . S
C1038 C1039 1.367 . S
C1039 C1038 1.367 . S
C1039 C1041 1.433 . S
C1040 C1036 1.350 . S
C1040 C1037 1.463 . S
C1040 N1044 1.427 . S
C1041 H1031 0.929 . S
C1041 C1039 1.433 . S
C1041 N1044 1.384 . S
C1042 H1033 0.929 . S
C1042 C1034 1.378 . S
C1042 C1037 1.350 . S
C1043 H1030 0.929 . S
C1043 C1035 1.433 . S
C1043 N1045 1.384 . S
N1044 C1040 1.427 . S
N1044 C1041 1.384 . S
N1045 C1037 1.427 . S
N1045 C1043 1.384 . S
H1046 C1052 0.930 . S
H1047 C1056 0.930 . S
H1048 C1061 0.929 . S
H1049 C1059 0.929 . S
H1050 C1054 0.929 . S
H1051 C1060 0.929 . S
C1052 H1046 0.930 . S
C1052 C1053 1.367 . S
C1052 C1060 1.378 . S
C1053 C1052 1.367 . S
C1053 C1061 1.433 . S
C1054 H1050 0.929 . S
C1054 C1056 1.378 . S
C1054 C1058 1.350 . S
C1055 C1058 1.463 . S
C1055 C1060 1.350 . S
C1055 N1063 1.427 . S
C1056 H1047 0.930 . S
C1056 C1054 1.378 . S
C1056 C1057 1.367 . S
C1057 C1056 1.367 . S
C1057 C1059 1.433 . S
C1058 C1054 1.350 . S
C1058 C1055 1.463 . S
C1058 N1062 1.427 . S
C1059 H1049 0.929 . S
C1059 C1057 1.433 . S
C1059 N1062 1.384 . S
C1060 H1051 0.929 . S
C1060 C1052 1.378 . S
C1060 C1055 1.350 . S
C1061 H1048 0.929 . S
C1061 C1053 1.433 . S
C1061 N1063 1.384 . S
N1062 C1058 1.427 . S
N1062 C1059 1.384 . S
N1063 C1055 1.427 . S
N1063 C1061 1.384 . S
H1064 C1070 0.930 1_655 S
H1065 C1074 0.930 . S
H1066 C1079 0.929 . S
H1067 C1077 0.929 1_655 S
H1068 C1072 0.929 . S
H1069 C1078 0.929 1_655 S
C1070 H1064 0.930 1_455 S
C1070 C1071 1.367 . S
C1070 C1078 1.378 . S
C1071 C1070 1.367 . S
C1071 C1079 1.433 . S
C1072 H1068 0.929 . S
C1072 C1074 1.378 . S
C1072 C1076 1.350 . S
C1073 C1076 1.463 . S
C1073 C1078 1.350 . S
C1073 N1081 1.427 . S
C1074 H1065 0.930 . S
C1074 C1072 1.378 . S
C1074 C1075 1.367 . S
C1075 C1074 1.367 . S
C1075 C1077 1.433 . S
C1076 C1072 1.350 . S
C1076 C1073 1.463 . S
C1076 N1080 1.427 . S
C1077 H1067 0.929 1_455 S
C1077 C1075 1.433 . S
C1077 N1080 1.384 . S
C1078 H1069 0.929 1_455 S
C1078 C1070 1.378 . S
C1078 C1073 1.350 . S
C1079 H1066 0.929 . S
C1079 C1071 1.433 . S
C1079 N1081 1.384 . S
N1080 C1076 1.427 . S
N1080 C1077 1.384 . S
N1081 C1073 1.427 . S
N1081 C1079 1.384 . S
H1082 C1088 0.930 . S
H1083 C1092 0.930 . S
H1084 C1097 0.929 . S
H1085 C1095 0.929 . S
H1086 C1090 0.929 . S
H1087 C1096 0.929 . S
C1088 H1082 0.930 . S
C1088 C1089 1.367 . S
C1088 C1096 1.378 . S
C1089 C1088 1.367 . S
C1089 C1097 1.433 . S
C1090 H1086 0.929 . S
C1090 C1092 1.378 . S
C1090 C1094 1.350 . S
C1091 C1094 1.463 . S
C1091 C1096 1.350 . S
C1091 N1099 1.427 . S
C1092 H1083 0.930 . S
C1092 C1090 1.378 . S
C1092 C1093 1.367 . S
C1093 C1092 1.367 . S
C1093 C1095 1.433 . S
C1094 C1090 1.350 . S
C1094 C1091 1.463 . S
C1094 N1098 1.427 . S
C1095 H1085 0.929 . S
C1095 C1093 1.433 . S
C1095 N1098 1.384 . S
C1096 H1087 0.929 . S
C1096 C1088 1.378 . S
C1096 C1091 1.350 . S
C1097 H1084 0.929 . S
C1097 C1089 1.433 . S
C1097 N1099 1.384 . S
N1098 C1094 1.427 . S
N1098 C1095 1.384 . S
N1099 C1091 1.427 . S
N1099 C1097 1.384 . S
H1100 C1106 0.930 . S
H1101 C1110 0.930 . S
H1102 C1115 0.929 . S
H1103 C1113 0.929 . S
H1104 C1108 0.929 . S
H1105 C1114 0.929 . S
C1106 H1100 0.930 . S
C1106 C1107 1.367 . S
C1106 C1114 1.378 . S
C1107 C1106 1.367 . S
C1107 C1115 1.433 . S
C1108 H1104 0.929 . S
C1108 C1110 1.378 . S
C1108 C1112 1.350 . S
C1109 C1112 1.463 . S
C1109 C1114 1.350 . S
C1109 N1117 1.427 . S
C1110 H1101 0.930 . S
C1110 C1108 1.378 . S
C1110 C1111 1.367 . S
C1111 C1110 1.367 . S
C1111 C1113 1.433 . S
C1112 C1108 1.350 . S
C1112 C1109 1.463 . S
C1112 N1116 1.427 . S
C1113 H1103 0.929 . S
C1113 C1111 1.433 . S
C1113 N1116 1.384 . S
C1114 H1105 0.929 . S
C1114 C1106 1.378 . S
C1114 C1109 1.350 . S
C1115 H1102 0.929 . S
C1115 C1107 1.433 . S
C1115 N1117 1.384 . S
N1116 C1112 1.427 . S
N1116 C1113 1.384 . S
N1117 C1109 1.427 . S
N1117 C1115 1.384 . S
H1118 C1124 0.930 . S
H1119 C1128 0.930 . S
H1120 C1133 0.929 . S
H1121 C1131 0.929 . S
H1122 C1126 0.929 . S
H1123 C1132 0.929 . S
C1124 H1118 0.930 . S
C1124 C1125 1.367 . S
C1124 C1132 1.378 . S
C1125 C1124 1.367 . S
C1125 C1133 1.433 . S
C1126 H1122 0.929 . S
C1126 C1128 1.378 . S
C1126 C1130 1.350 . S
C1127 C1130 1.463 . S
C1127 C1132 1.350 . S
C1127 N1135 1.427 . S
C1128 H1119 0.930 . S
C1128 C1126 1.378 . S
C1128 C1129 1.367 . S
C1129 C1128 1.367 . S
C1129 C1131 1.433 . S
C1130 C1126 1.350 . S
C1130 C1127 1.463 . S
C1130 N1134 1.427 . S
C1131 H1121 0.929 . S
C1131 C1129 1.433 . S
C1131 N1134 1.384 . S
C1132 H1123 0.929 . S
C1132 C1124 1.378 . S
C1132 C1127 1.350 . S
C1133 H1120 0.929 . S
C1133 C1125 1.433 . S
C1133 N1135 1.384 . S
N1134 C1130 1.427 . S
N1134 C1131 1.384 . S
N1135 C1127 1.427 . S
N1135 C1133 1.384 . S
H1136 C1142 0.930 . S
H1137 C1146 0.930 . S
H1138 C1151 0.929 . S
H1139 C1149 0.929 1_655 S
H1140 C1144 0.929 . S
H1141 C1150 0.904 1_655 S
C1142 H1136 0.930 . S
C1142 C1143 1.367 . S
C1142 C1150 1.378 . S
C1143 C1142 1.367 . S
C1143 C1151 1.433 . S
C1144 H1140 0.929 . S
C1144 C1146 1.378 . S
C1144 C1148 1.350 . S
C1145 C1148 1.463 . S
C1145 C1150 1.350 . S
C1145 N1153 1.427 . S
C1146 H1137 0.930 . S
C1146 C1144 1.378 . S
C1146 C1147 1.367 . S
C1147 C1146 1.367 . S
C1147 C1149 1.433 . S
C1148 C1144 1.350 . S
C1148 C1145 1.463 . S
C1148 N1152 1.427 . S
C1149 H1139 0.929 1_455 S
C1149 C1147 1.433 . S
C1149 N1152 1.384 . S
C1150 H1141 0.904 1_455 S
C1150 C1142 1.378 . S
C1150 C1145 1.350 . S
C1151 H1138 0.929 . S
C1151 C1143 1.433 . S
C1151 N1153 1.384 . S
N1152 C1148 1.427 . S
N1152 C1149 1.384 . S
N1153 C1145 1.427 . S
N1153 C1151 1.384 . S
H1154 C1160 0.930 . S
H1155 C1164 0.930 . S
H1156 C1169 0.929 . S
H1157 C1167 0.929 . S
H1158 C1162 0.929 . S
H1159 C1168 0.929 . S
C1160 H1154 0.930 . S
C1160 C1161 1.367 . S
C1160 C1168 1.378 . S
C1161 C1160 1.367 . S
C1161 C1169 1.433 . S
C1162 H1158 0.929 . S
C1162 C1164 1.378 . S
C1162 C1166 1.350 . S
C1163 C1166 1.463 . S
C1163 C1168 1.350 . S
C1163 N1171 1.427 . S
C1164 H1155 0.930 . S
C1164 C1162 1.378 . S
C1164 C1165 1.367 . S
C1165 C1164 1.367 . S
C1165 C1167 1.433 . S
C1166 C1162 1.350 . S
C1166 C1163 1.463 . S
C1166 N1170 1.427 . S
C1167 H1157 0.929 . S
C1167 C1165 1.433 . S
C1167 N1170 1.384 . S
C1168 H1159 0.929 . S
C1168 C1160 1.378 . S
C1168 C1163 1.350 . S
C1169 H1156 0.929 . S
C1169 C1161 1.433 . S
C1169 N1171 1.384 . S
N1170 C1166 1.427 . S
N1170 C1167 1.384 . S
N1171 C1163 1.427 . S
N1171 C1169 1.384 . S
H1172 C1178 0.930 . S
H1173 C1182 0.930 . S
H1174 C1187 0.929 . S
H1175 C1185 0.929 . S
H1176 C1180 0.929 . S
H1177 C1186 0.929 . S
C1178 H1172 0.930 . S
C1178 C1179 1.367 . S
C1178 C1186 1.378 . S
C1179 C1178 1.367 . S
C1179 C1187 1.433 . S
C1180 H1176 0.929 . S
C1180 C1182 1.378 . S
C1180 C1184 1.350 . S
C1181 C1184 1.463 . S
C1181 C1186 1.350 . S
C1181 N1189 1.427 . S
C1182 H1173 0.930 . S
C1182 C1180 1.378 . S
C1182 C1183 1.367 . S
C1183 C1182 1.367 . S
C1183 C1185 1.433 . S
C1184 C1180 1.350 . S
C1184 C1181 1.463 . S
C1184 N1188 1.427 . S
C1185 H1175 0.929 . S
C1185 C1183 1.433 . S
C1185 N1188 1.384 . S
C1186 H1177 0.929 . S
C1186 C1178 1.378 . S
C1186 C1181 1.350 . S
C1187 H1174 0.929 . S
C1187 C1179 1.433 . S
C1187 N1189 1.384 . S
N1188 C1184 1.427 . S
N1188 C1185 1.384 . S
N1189 C1181 1.427 . S
N1189 C1187 1.384 . S
H1190 C1196 0.930 . S
H1191 C1200 0.930 . S
H1192 C1205 0.929 . S
H1193 C1203 0.929 . S
H1194 C1198 0.929 . S
H1195 C1204 0.929 . S
C1196 H1190 0.930 . S
C1196 C1197 1.367 . S
C1196 C1204 1.378 . S
C1197 C1196 1.367 . S
C1197 C1205 1.433 . S
C1198 H1194 0.929 . S
C1198 C1200 1.378 . S
C1198 C1202 1.350 . S
C1199 C1202 1.463 . S
C1199 C1204 1.350 . S
C1199 N1207 1.427 . S
C1200 H1191 0.930 . S
C1200 C1198 1.378 . S
C1200 C1201 1.367 . S
C1201 C1200 1.367 . S
C1201 C1203 1.433 . S
C1202 C1198 1.350 . S
C1202 C1199 1.463 . S
C1202 N1206 1.427 . S
C1203 H1193 0.929 . S
C1203 C1201 1.433 . S
C1203 N1206 1.384 . S
C1204 H1195 0.929 . S
C1204 C1196 1.378 . S
C1204 C1199 1.350 . S
C1205 H1192 0.929 . S
C1205 C1197 1.433 . S
C1205 N1207 1.384 . S
N1206 C1202 1.427 . S
N1206 C1203 1.384 . S
N1207 C1199 1.427 . S
N1207 C1205 1.384 . S
H1208 C1214 0.930 . S
H1209 C1218 0.930 . S
H1210 C1223 0.929 1_565 S
H1211 C1221 0.929 . S
H1212 C1216 0.929 . S
H1213 C1222 0.929 . S
C1214 H1208 0.930 . S
C1214 C1215 1.367 . S
C1214 C1222 1.378 . S
C1215 C1214 1.367 . S
C1215 C1223 1.433 . S
C1216 H1212 0.929 . S
C1216 C1218 1.378 . S
C1216 C1220 1.350 . S
C1217 C1220 1.463 . S
C1217 C1222 1.350 . S
C1217 N1225 1.427 . S
C1218 H1209 0.930 . S
C1218 C1216 1.378 . S
C1218 C1219 1.367 . S
C1219 C1218 1.367 . S
C1219 C1221 1.433 . S
C1220 C1216 1.350 . S
C1220 C1217 1.463 . S
C1220 N1224 1.427 . S
C1221 H1211 0.929 . S
C1221 C1219 1.433 . S
C1221 N1224 1.384 . S
C1222 H1213 0.929 . S
C1222 C1214 1.378 . S
C1222 C1217 1.350 . S
C1223 H1210 0.929 1_545 S
C1223 C1215 1.433 . S
C1223 N1225 1.384 . S
N1224 C1220 1.427 . S
N1224 C1221 1.384 . S
N1225 C1217 1.427 . S
N1225 C1223 1.384 . S
H1226 C1232 0.930 . S
H1227 C1236 0.930 . S
H1228 C1241 0.929 . S
H1229 C1239 0.929 . S
H1230 C1234 0.929 . S
H1231 C1240 0.929 . S
C1232 H1226 0.930 . S
C1232 C1233 1.367 . S
C1232 C1240 1.378 . S
C1233 C1232 1.367 . S
C1233 C1241 1.433 . S
C1234 H1230 0.929 . S
C1234 C1236 1.378 . S
C1234 C1238 1.350 . S
C1235 C1238 1.463 . S
C1235 C1240 1.350 . S
C1235 N1243 1.427 . S
C1236 H1227 0.930 . S
C1236 C1234 1.378 . S
C1236 C1237 1.367 . S
C1237 C1236 1.367 . S
C1237 C1239 1.433 . S
C1238 C1234 1.350 . S
C1238 C1235 1.463 . S
C1238 N1242 1.427 . S
C1239 H1229 0.929 . S
C1239 C1237 1.433 . S
C1239 N1242 1.384 . S
C1240 H1231 0.929 . S
C1240 C1232 1.378 . S
C1240 C1235 1.350 . S
C1241 H1228 0.929 . S
C1241 C1233 1.433 . S
C1241 N1243 1.384 . S
N1242 C1238 1.427 . S
N1242 C1239 1.384 . S
N1243 C1235 1.427 . S
N1243 C1241 1.384 . S
H1244 C1250 0.930 . S
H1245 C1254 0.930 1_565 S
H1246 C1259 0.929 . S
H1247 C1257 0.929 . S
H1248 C1252 0.914 1_565 S
H1249 C1258 0.929 . S
C1250 H1244 0.930 . S
C1250 C1251 1.367 . S
C1250 C1258 1.378 . S
C1251 C1250 1.367 . S
C1251 C1259 1.433 . S
C1252 H1248 0.914 1_545 S
C1252 C1254 1.378 . S
C1252 C1256 1.350 . S
C1253 C1256 1.463 . S
C1253 C1258 1.350 . S
C1253 N1261 1.427 . S
C1254 H1245 0.930 1_545 S
C1254 C1252 1.378 . S
C1254 C1255 1.367 . S
C1255 C1254 1.367 . S
C1255 C1257 1.433 . S
C1256 C1252 1.350 . S
C1256 C1253 1.463 . S
C1256 N1260 1.427 . S
C1257 H1247 0.929 . S
C1257 C1255 1.433 . S
C1257 N1260 1.384 . S
C1258 H1249 0.929 . S
C1258 C1250 1.378 . S
C1258 C1253 1.350 . S
C1259 H1246 0.929 . S
C1259 C1251 1.433 . S
C1259 N1261 1.384 . S
N1260 C1256 1.427 . S
N1260 C1257 1.384 . S
N1261 C1253 1.427 . S
N1261 C1259 1.384 . S
H1262 C1268 0.930 . S
H1263 C1272 0.930 . S
H1264 C1277 0.929 . S
H1265 C1275 0.929 . S
H1266 C1270 0.929 . S
H1267 C1276 0.929 . S
C1268 H1262 0.930 . S
C1268 C1269 1.367 . S
C1268 C1276 1.378 . S
C1269 C1268 1.367 . S
C1269 C1277 1.433 . S
C1270 H1266 0.929 . S
C1270 C1272 1.378 . S
C1270 C1274 1.350 . S
C1271 C1274 1.463 . S
C1271 C1276 1.350 . S
C1271 N1279 1.427 . S
C1272 H1263 0.930 . S
C1272 C1270 1.378 . S
C1272 C1273 1.367 . S
C1273 C1272 1.367 . S
C1273 C1275 1.433 . S
C1274 C1270 1.350 . S
C1274 C1271 1.463 . S
C1274 N1278 1.427 . S
C1275 H1265 0.929 . S
C1275 C1273 1.433 . S
C1275 N1278 1.384 . S
C1276 H1267 0.929 . S
C1276 C1268 1.378 . S
C1276 C1271 1.350 . S
C1277 H1264 0.929 . S
C1277 C1269 1.433 . S
C1277 N1279 1.384 . S
N1278 C1274 1.427 . S
N1278 C1275 1.384 . S
N1279 C1271 1.427 . S
N1279 C1277 1.384 . S
H1280 C1286 0.930 . S
H1281 C1290 0.930 . S
H1282 C1295 0.929 . S
H1283 C1293 0.929 . S
H1284 C1288 0.929 . S
H1285 C1294 0.929 . S
C1286 H1280 0.930 . S
C1286 C1287 1.367 1_545 S
C1286 C1294 1.378 . S
C1287 C1286 1.367 1_565 S
C1287 C1295 1.433 . S
C1288 H1284 0.929 . S
C1288 C1290 1.378 . S
C1288 C1292 1.362 . S
C1289 C1292 1.466 . S
C1289 C1294 1.350 1_565 S
C1289 N1297 1.427 . S
C1290 H1281 0.930 . S
C1290 C1288 1.378 . S
C1290 C1291 1.367 1_565 S
C1291 C1290 1.367 1_545 S
C1291 C1293 1.433 . S
C1292 C1288 1.362 . S
C1292 C1289 1.466 . S
C1292 N1296 1.411 1_565 S
C1293 H1283 0.929 . S
C1293 C1291 1.433 . S
C1293 N1296 1.384 . S
C1294 H1285 0.929 . S
C1294 C1286 1.378 . S
C1294 C1289 1.350 1_545 S
C1295 H1282 0.929 . S
C1295 C1287 1.433 . S
C1295 N1297 1.384 . S
N1296 C1292 1.411 1_545 S
N1296 C1293 1.384 . S
N1297 C1289 1.427 . S
N1297 C1295 1.384 . S
H1298 C1304 0.930 . S
H1299 C1308 0.930 . S
H1300 C1313 0.929 . S
H1301 C1311 0.929 . S
H1302 C1306 0.929 . S
H1303 C1312 0.929 . S
C1304 H1298 0.930 . S
C1304 C1305 1.367 . S
C1304 C1312 1.378 . S
C1305 C1304 1.367 . S
C1305 C1313 1.433 . S
C1306 H1302 0.929 . S
C1306 C1308 1.378 . S
C1306 C1310 1.350 . S
C1307 C1310 1.463 . S
C1307 C1312 1.350 . S
C1307 N1315 1.427 . S
C1308 H1299 0.930 . S
C1308 C1306 1.378 . S
C1308 C1309 1.367 . S
C1309 C1308 1.367 . S
C1309 C1311 1.433 . S
C1310 C1306 1.350 . S
C1310 C1307 1.463 . S
C1310 N1314 1.427 . S
C1311 H1301 0.929 . S
C1311 C1309 1.433 . S
C1311 N1314 1.384 . S
C1312 H1303 0.929 . S
C1312 C1304 1.378 . S
C1312 C1307 1.350 . S
C1313 H1300 0.929 . S
C1313 C1305 1.433 . S
C1313 N1315 1.384 . S
N1314 C1310 1.427 . S
N1314 C1311 1.384 . S
N1315 C1307 1.427 . S
N1315 C1313 1.384 . S
H1316 C1322 0.930 . S
H1317 C1326 0.930 1_565 S
H1318 C1331 0.929 . S
H1319 C1329 0.929 . S
H1320 C1324 0.897 1_565 S
H1321 C1330 0.929 . S
C1322 H1316 0.930 . S
C1322 C1323 1.367 . S
C1322 C1330 1.378 . S
C1323 C1322 1.367 . S
C1323 C1331 1.433 . S
C1324 H1320 0.897 1_545 S
C1324 C1326 1.378 . S
C1324 C1328 1.350 . S
C1325 C1328 1.463 . S
C1325 C1330 1.350 . S
C1325 N1333 1.427 . S
C1326 H1317 0.930 1_545 S
C1326 C1324 1.378 . S
C1326 C1327 1.367 . S
C1327 C1326 1.367 . S
C1327 C1329 1.433 . S
C1328 C1324 1.350 . S
C1328 C1325 1.463 . S
C1328 N1332 1.427 . S
C1329 H1319 0.929 . S
C1329 C1327 1.433 . S
C1329 N1332 1.384 . S
C1330 H1321 0.929 . S
C1330 C1322 1.378 . S
C1330 C1325 1.350 . S
C1331 H1318 0.929 . S
C1331 C1323 1.433 . S
C1331 N1333 1.384 . S
N1332 C1328 1.427 . S
N1332 C1329 1.384 . S
N1333 C1325 1.427 . S
N1333 C1331 1.384 . S
H1334 C1340 0.930 . S
H1335 C1344 0.930 . S
H1336 C1349 0.929 . S
H1337 C1347 0.929 . S
H1338 C1342 0.929 . S
H1339 C1348 0.929 . S
C1340 H1334 0.930 . S
C1340 C1341 1.367 . S
C1340 C1348 1.378 . S
C1341 C1340 1.367 . S
C1341 C1349 1.433 . S
C1342 H1338 0.929 . S
C1342 C1344 1.378 . S
C1342 C1346 1.350 . S
C1343 C1346 1.463 . S
C1343 C1348 1.350 . S
C1343 N1351 1.427 . S
C1344 H1335 0.930 . S
C1344 C1342 1.378 . S
C1344 C1345 1.367 . S
C1345 C1344 1.367 . S
C1345 C1347 1.433 . S
C1346 C1342 1.350 . S
C1346 C1343 1.463 . S
C1346 N1350 1.427 . S
C1347 H1337 0.929 . S
C1347 C1345 1.433 . S
C1347 N1350 1.384 . S
C1348 H1339 0.929 . S
C1348 C1340 1.378 . S
C1348 C1343 1.350 . S
C1349 H1336 0.929 . S
C1349 C1341 1.433 . S
C1349 N1351 1.384 . S
N1350 C1346 1.427 . S
N1350 C1347 1.384 . S
N1351 C1343 1.427 . S
N1351 C1349 1.384 . S
H1352 C1358 0.930 . S
H1353 C1362 0.930 . S
H1354 C1367 0.929 . S
H1355 C1365 0.929 . S
H1356 C1360 0.929 . S
H1357 C1366 0.929 . S
C1358 H1352 0.930 . S
C1358 C1359 1.367 . S
C1358 C1366 1.378 . S
C1359 C1358 1.367 . S
C1359 C1367 1.433 1_554 S
C1360 H1356 0.929 . S
C1360 C1362 1.378 . S
C1360 C1364 1.350 1_556 S
C1361 C1364 1.463 . S
C1361 C1366 1.350 . S
C1361 N1369 1.427 1_554 S
C1362 H1353 0.930 . S
C1362 C1360 1.378 . S
C1362 C1363 1.367 1_556 S
C1363 C1362 1.367 1_554 S
C1363 C1365 1.433 . S
C1364 C1360 1.350 1_554 S
C1364 C1361 1.463 . S
C1364 N1368 1.427 . S
C1365 H1355 0.929 . S
C1365 C1363 1.433 . S
C1365 N1368 1.384 . S
C1366 H1357 0.929 . S
C1366 C1358 1.378 . S
C1366 C1361 1.350 . S
C1367 H1354 0.929 . S
C1367 C1359 1.433 1_556 S
C1367 N1369 1.384 . S
N1368 C1364 1.427 . S
N1368 C1365 1.384 . S
N1369 C1361 1.427 1_556 S
N1369 C1367 1.384 . S
H1370 C1376 0.930 . S
H1371 C1380 0.930 1_556 S
H1372 C1385 0.929 1_556 S
H1373 C1383 0.929 . S
H1374 C1378 0.929 1_556 S
H1375 C1384 0.929 . S
C1376 H1370 0.930 . S
C1376 C1377 1.367 . S
C1376 C1384 1.378 . S
C1377 C1376 1.367 . S
C1377 C1385 1.433 . S
C1378 H1374 0.929 1_554 S
C1378 C1380 1.378 . S
C1378 C1382 1.350 . S
C1379 C1382 1.463 . S
C1379 C1384 1.350 . S
C1379 N1387 1.427 . S
C1380 H1371 0.930 1_554 S
C1380 C1378 1.378 . S
C1380 C1381 1.367 . S
C1381 C1380 1.367 . S
C1381 C1383 1.433 . S
C1382 C1378 1.350 . S
C1382 C1379 1.463 . S
C1382 N1386 1.427 . S
C1383 H1373 0.929 . S
C1383 C1381 1.433 . S
C1383 N1386 1.384 . S
C1384 H1375 0.929 . S
C1384 C1376 1.378 . S
C1384 C1379 1.350 . S
C1385 H1372 0.929 1_554 S
C1385 C1377 1.433 . S
C1385 N1387 1.384 . S
N1386 C1382 1.427 . S
N1386 C1383 1.384 . S
N1387 C1379 1.427 . S
N1387 C1385 1.384 . S
H1388 C1394 0.930 . S
H1389 C1398 0.930 . S
H1390 C1403 0.929 . S
H1391 C1401 0.929 . S
H1392 C1396 0.929 . S
H1393 C1402 0.929 . S
C1394 H1388 0.930 . S
C1394 C1395 1.367 . S
C1394 C1402 1.378 . S
C1395 C1394 1.367 . S
C1395 C1403 1.433 . S
C1396 H1392 0.929 . S
C1396 C1398 1.378 . S
C1396 C1400 1.350 . S
C1397 C1400 1.463 . S
C1397 C1402 1.350 . S
C1397 N1405 1.427 . S
C1398 H1389 0.930 . S
C1398 C1396 1.378 . S
C1398 C1399 1.367 . S
C1399 C1398 1.367 . S
C1399 C1401 1.433 . S
C1400 C1396 1.350 . S
C1400 C1397 1.463 . S
C1400 N1404 1.427 . S
C1401 H1391 0.929 . S
C1401 C1399 1.433 . S
C1401 N1404 1.384 . S
C1402 H1393 0.929 . S
C1402 C1394 1.378 . S
C1402 C1397 1.350 . S
C1403 H1390 0.929 . S
C1403 C1395 1.433 . S
C1403 N1405 1.384 . S
N1404 C1400 1.427 . S
N1404 C1401 1.384 . S
N1405 C1397 1.427 . S
N1405 C1403 1.384 . S
H1406 C1412 0.930 . S
H1407 C1416 0.930 . S
H1408 C1421 0.929 . S
H1409 C1419 0.929 . S
H1410 C1414 0.929 . S
H1411 C1420 0.929 . S
C1412 H1406 0.930 . S
C1412 C1413 1.367 . S
C1412 C1420 1.378 . S
C1413 C1412 1.367 . S
C1413 C1421 1.433 . S
C1414 H1410 0.929 . S
C1414 C1416 1.378 . S
C1414 C1418 1.350 . S
C1415 C1418 1.463 . S
C1415 C1420 1.350 . S
C1415 N1423 1.427 . S
C1416 H1407 0.930 . S
C1416 C1414 1.378 . S
C1416 C1417 1.367 . S
C1417 C1416 1.367 . S
C1417 C1419 1.433 . S
C1418 C1414 1.350 . S
C1418 C1415 1.463 . S
C1418 N1422 1.427 . S
C1419 H1409 0.929 . S
C1419 C1417 1.433 . S
C1419 N1422 1.384 . S
C1420 H1411 0.929 . S
C1420 C1412 1.378 . S
C1420 C1415 1.350 . S
C1421 H1408 0.929 . S
C1421 C1413 1.433 . S
C1421 N1423 1.384 . S
N1422 C1418 1.427 . S
N1422 C1419 1.384 . S
N1423 C1415 1.427 . S
N1423 C1421 1.384 . S
H1424 C1430 0.930 . S
H1425 C1434 0.930 . S
H1426 C1439 0.929 . S
H1427 C1437 0.929 . S
H1428 C1432 0.929 . S
H1429 C1438 0.929 . S
C1430 H1424 0.930 . S
C1430 C1431 1.367 . S
C1430 C1438 1.378 . S
C1431 C1430 1.367 . S
C1431 C1439 1.433 . S
C1432 H1428 0.929 . S
C1432 C1434 1.378 . S
C1432 C1436 1.350 . S
C1433 C1436 1.463 . S
C1433 C1438 1.350 . S
C1433 N1441 1.427 . S
C1434 H1425 0.930 . S
C1434 C1432 1.378 . S
C1434 C1435 1.367 . S
C1435 C1434 1.367 . S
C1435 C1437 1.433 . S
C1436 C1432 1.350 . S
C1436 C1433 1.463 . S
C1436 N1440 1.427 . S
C1437 H1427 0.929 . S
C1437 C1435 1.433 . S
C1437 N1440 1.384 . S
C1438 H1429 0.929 . S
C1438 C1430 1.378 . S
C1438 C1433 1.350 . S
C1439 H1426 0.929 . S
C1439 C1431 1.433 . S
C1439 N1441 1.384 . S
N1440 C1436 1.427 . S
N1440 C1437 1.384 . S
N1441 C1433 1.427 . S
N1441 C1439 1.384 . S
H1442 C1448 0.930 . S
H1443 C1452 0.930 . S
H1444 C1457 0.929 . S
H1445 C1455 0.929 . S
H1446 C1450 0.929 . S
H1447 C1456 0.929 . S
C1448 H1442 0.930 . S
C1448 C1449 1.367 . S
C1448 C1456 1.378 . S
C1449 C1448 1.367 . S
C1449 C1457 1.433 . S
C1450 H1446 0.929 . S
C1450 C1452 1.378 . S
C1450 C1454 1.350 . S
C1451 C1454 1.463 . S
C1451 C1456 1.350 . S
C1451 N1459 1.427 . S
C1452 H1443 0.930 . S
C1452 C1450 1.378 . S
C1452 C1453 1.367 . S
C1453 C1452 1.367 . S
C1453 C1455 1.433 . S
C1454 C1450 1.350 . S
C1454 C1451 1.463 . S
C1454 N1458 1.427 . S
C1455 H1445 0.929 . S
C1455 C1453 1.433 . S
C1455 N1458 1.384 . S
C1456 H1447 0.929 . S
C1456 C1448 1.378 . S
C1456 C1451 1.350 . S
C1457 H1444 0.929 . S
C1457 C1449 1.433 . S
C1457 N1459 1.384 . S
N1458 C1454 1.427 . S
N1458 C1455 1.384 . S
N1459 C1451 1.427 . S
N1459 C1457 1.384 . S
H1460 C1466 0.930 . S
H1461 C1470 0.930 . S
H1462 C1475 0.929 . S
H1463 C1473 0.929 . S
H1464 C1468 0.929 . S
H1465 C1474 0.929 . S
C1466 H1460 0.930 . S
C1466 C1467 1.367 . S
C1466 C1474 1.378 . S
C1467 C1466 1.367 . S
C1467 C1475 1.433 . S
C1468 H1464 0.929 . S
C1468 C1470 1.378 . S
C1468 C1472 1.350 . S
C1469 C1472 1.463 . S
C1469 C1474 1.350 . S
C1469 N1477 1.427 . S
C1470 H1461 0.930 . S
C1470 C1468 1.378 . S
C1470 C1471 1.367 . S
C1471 C1470 1.367 . S
C1471 C1473 1.433 . S
C1472 C1468 1.350 . S
C1472 C1469 1.463 . S
C1472 N1476 1.427 . S
C1473 H1463 0.929 . S
C1473 C1471 1.433 . S
C1473 N1476 1.384 . S
C1474 H1465 0.929 . S
C1474 C1466 1.378 . S
C1474 C1469 1.350 . S
C1475 H1462 0.929 . S
C1475 C1467 1.433 . S
C1475 N1477 1.384 . S
N1476 C1472 1.427 . S
N1476 C1473 1.384 . S
N1477 C1469 1.427 . S
N1477 C1475 1.384 . S
H1478 C1484 0.930 . S
H1479 C1488 0.930 . S
H1480 C1493 0.929 . S
H1481 C1491 0.929 . S
H1482 C1486 0.929 . S
H1483 C1492 0.929 . S
C1484 H1478 0.930 . S
C1484 C1485 1.367 . S
C1484 C1492 1.378 . S
C1485 C1484 1.367 . S
C1485 C1493 1.433 . S
C1486 H1482 0.929 . S
C1486 C1488 1.378 . S
C1486 C1490 1.350 . S
C1487 C1490 1.463 . S
C1487 C1492 1.350 . S
C1487 N1495 1.427 . S
C1488 H1479 0.930 . S
C1488 C1486 1.378 . S
C1488 C1489 1.367 . S
C1489 C1488 1.367 . S
C1489 C1491 1.433 . S
C1490 C1486 1.350 . S
C1490 C1487 1.463 . S
C1490 N1494 1.427 . S
C1491 H1481 0.929 . S
C1491 C1489 1.433 . S
C1491 N1494 1.384 . S
C1492 H1483 0.929 . S
C1492 C1484 1.378 . S
C1492 C1487 1.350 . S
C1493 H1480 0.929 . S
C1493 C1485 1.433 . S
C1493 N1495 1.384 . S
N1494 C1490 1.427 . S
N1494 C1491 1.384 . S
N1495 C1487 1.427 . S
N1495 C1493 1.384 . S
H1496 C1502 0.930 . S
H1497 C1506 0.930 . S
H1498 C1511 0.929 . S
H1499 C1509 0.929 . S
H1500 C1504 0.929 . S
H1501 C1510 0.929 . S
C1502 H1496 0.930 . S
C1502 C1503 1.367 . S
C1502 C1510 1.378 . S
C1503 C1502 1.367 . S
C1503 C1511 1.433 . S
C1504 H1500 0.929 . S
C1504 C1506 1.378 . S
C1504 C1508 1.350 . S
C1505 C1508 1.463 . S
C1505 C1510 1.350 . S
C1505 N1513 1.427 . S
C1506 H1497 0.930 . S
C1506 C1504 1.378 . S
C1506 C1507 1.367 . S
C1507 C1506 1.367 . S
C1507 C1509 1.433 . S
C1508 C1504 1.350 . S
C1508 C1505 1.463 . S
C1508 N1512 1.427 . S
C1509 H1499 0.929 . S
C1509 C1507 1.433 . S
C1509 N1512 1.384 . S
C1510 H1501 0.929 . S
C1510 C1502 1.378 . S
C1510 C1505 1.350 . S
C1511 H1498 0.929 . S
C1511 C1503 1.433 . S
C1511 N1513 1.384 . S
N1512 C1508 1.427 . S
N1512 C1509 1.384 . S
N1513 C1505 1.427 . S
N1513 C1511 1.384 . S
H1514 C1520 0.930 . S
H1515 C1524 0.930 . S
H1516 C1529 0.929 . S
H1517 C1527 0.929 . S
H1518 C1522 0.929 . S
H1519 C1528 0.929 . S
C1520 H1514 0.930 . S
C1520 C1521 1.367 . S
C1520 C1528 1.378 . S
C1521 C1520 1.367 . S
C1521 C1529 1.433 . S
C1522 H1518 0.929 . S
C1522 C1524 1.378 . S
C1522 C1526 1.350 . S
C1523 C1526 1.463 . S
C1523 C1528 1.350 . S
C1523 N1531 1.427 . S
C1524 H1515 0.930 . S
C1524 C1522 1.378 . S
C1524 C1525 1.367 . S
C1525 C1524 1.367 . S
C1525 C1527 1.433 . S
C1526 C1522 1.350 . S
C1526 C1523 1.463 . S
C1526 N1530 1.427 . S
C1527 H1517 0.929 . S
C1527 C1525 1.433 . S
C1527 N1530 1.384 . S
C1528 H1519 0.929 . S
C1528 C1520 1.378 . S
C1528 C1523 1.350 . S
C1529 H1516 0.929 . S
C1529 C1521 1.433 . S
C1529 N1531 1.384 . S
N1530 C1526 1.427 . S
N1530 C1527 1.384 . S
N1531 C1523 1.427 . S
N1531 C1529 1.384 . S
H1532 C1538 0.930 . S
H1533 C1542 0.930 . S
H1534 C1547 0.929 . S
H1535 C1545 0.929 1_554 S
H1536 C1540 0.929 . S
H1537 C1546 0.929 . S
C1538 H1532 0.930 . S
C1538 C1539 1.367 . S
C1538 C1546 1.378 . S
C1539 C1538 1.367 . S
C1539 C1547 1.433 1_455 S
C1540 H1536 0.929 . S
C1540 C1542 1.378 . S
C1540 C1544 1.350 1_655 S
C1541 C1544 1.463 . S
C1541 C1546 1.350 . S
C1541 N1549 1.427 1_455 S
C1542 H1533 0.930 . S
C1542 C1540 1.378 . S
C1542 C1543 1.399 . S
C1543 C1542 1.399 . S
C1543 C1545 1.388 1_655 S
C1544 C1540 1.350 1_455 S
C1544 C1541 1.463 . S
C1544 N1548 1.427 . S
C1545 H1535 0.929 1_556 S
C1545 C1543 1.388 1_455 S
C1545 N1548 1.384 . S
C1546 H1537 0.929 . S
C1546 C1538 1.378 . S
C1546 C1541 1.350 . S
C1547 H1534 0.929 . S
C1547 C1539 1.433 1_655 S
C1547 N1549 1.384 . S
N1548 C1544 1.427 . S
N1548 C1545 1.384 . S
N1549 C1541 1.427 1_655 S
N1549 C1547 1.384 . S
H1550 C1556 0.930 . S
H1551 C1560 0.930 . S
H1552 C1565 0.929 . S
H1553 C1563 0.929 . S
H1554 C1558 0.929 . S
H1555 C1564 0.929 . S
C1556 H1550 0.930 . S
C1556 C1557 1.367 . S
C1556 C1564 1.378 . S
C1557 C1556 1.367 . S
C1557 C1565 1.433 . S
C1558 H1554 0.929 . S
C1558 C1560 1.378 . S
C1558 C1562 1.350 . S
C1559 C1562 1.463 . S
C1559 C1564 1.350 . S
C1559 N1567 1.427 . S
C1560 H1551 0.930 . S
C1560 C1558 1.378 . S
C1560 C1561 1.367 . S
C1561 C1560 1.367 . S
C1561 C1563 1.433 . S
C1562 C1558 1.350 . S
C1562 C1559 1.463 . S
C1562 N1566 1.427 . S
C1563 H1553 0.929 . S
C1563 C1561 1.433 . S
C1563 N1566 1.384 . S
C1564 H1555 0.929 . S
C1564 C1556 1.378 . S
C1564 C1559 1.350 . S
C1565 H1552 0.929 . S
C1565 C1557 1.433 . S
C1565 N1567 1.384 . S
N1566 C1562 1.427 . S
N1566 C1563 1.384 . S
N1567 C1559 1.427 . S
N1567 C1565 1.384 . S
H1568 C1574 0.930 . S
H1569 C1578 0.930 . S
H1570 C1583 0.929 . S
H1571 C1581 0.929 . S
H1572 C1576 0.929 . S
H1573 C1582 0.929 . S
C1574 H1568 0.930 . S
C1574 C1575 1.367 . S
C1574 C1582 1.378 . S
C1575 C1574 1.367 . S
C1575 C1583 1.433 . S
C1576 H1572 0.929 . S
C1576 C1578 1.378 . S
C1576 C1580 1.350 . S
C1577 C1580 1.463 . S
C1577 C1582 1.350 . S
C1577 N1585 1.427 . S
C1578 H1569 0.930 . S
C1578 C1576 1.378 . S
C1578 C1579 1.367 . S
C1579 C1578 1.367 . S
C1579 C1581 1.433 . S
C1580 C1576 1.350 . S
C1580 C1577 1.463 . S
C1580 N1584 1.427 . S
C1581 H1571 0.929 . S
C1581 C1579 1.433 . S
C1581 N1584 1.384 . S
C1582 H1573 0.929 . S
C1582 C1574 1.378 . S
C1582 C1577 1.350 . S
C1583 H1570 0.929 . S
C1583 C1575 1.433 . S
C1583 N1585 1.384 . S
N1584 C1580 1.427 . S
N1584 C1581 1.384 . S
N1585 C1577 1.427 . S
N1585 C1583 1.384 . S
H1586 C1592 0.930 . S
H1587 C1596 0.930 . S
H1588 C1601 0.929 . S
H1589 C1599 0.929 . S
H1590 C1594 0.929 . S
H1591 C1600 0.929 . S
C1592 H1586 0.930 . S
C1592 C1593 1.367 . S
C1592 C1600 1.378 . S
C1593 C1592 1.367 . S
C1593 C1601 1.433 . S
C1594 H1590 0.929 . S
C1594 C1596 1.378 . S
C1594 C1598 1.350 . S
C1595 C1598 1.463 . S
C1595 C1600 1.350 . S
C1595 N1603 1.427 . S
C1596 H1587 0.930 . S
C1596 C1594 1.378 . S
C1596 C1597 1.367 . S
C1597 C1596 1.367 . S
C1597 C1599 1.433 . S
C1598 C1594 1.350 . S
C1598 C1595 1.463 . S
C1598 N1602 1.427 . S
C1599 H1589 0.929 . S
C1599 C1597 1.433 . S
C1599 N1602 1.384 . S
C1600 H1591 0.929 . S
C1600 C1592 1.378 . S
C1600 C1595 1.350 . S
C1601 H1588 0.929 . S
C1601 C1593 1.433 . S
C1601 N1603 1.384 . S
N1602 C1598 1.427 . S
N1602 C1599 1.384 . S
N1603 C1595 1.427 . S
N1603 C1601 1.384 . S
H1604 C1610 0.930 . S
H1605 C1614 0.930 . S
H1606 C1619 0.929 . S
H1607 C1617 0.929 . S
H1608 C1612 0.929 . S
H1609 C1618 0.929 . S
C1610 H1604 0.930 . S
C1610 C1611 1.367 . S
C1610 C1618 1.378 . S
C1611 C1610 1.367 . S
C1611 C1619 1.433 1_655 S
C1612 H1608 0.929 . S
C1612 C1614 1.378 . S
C1612 C1616 1.350 1_455 S
C1613 C1616 1.463 . S
C1613 C1618 1.350 . S
C1613 N1621 1.427 1_655 S
C1614 H1605 0.930 . S
C1614 C1612 1.378 . S
C1614 C1615 1.367 1_455 S
C1615 C1614 1.367 1_655 S
C1615 C1617 1.433 . S
C1616 C1612 1.350 1_655 S
C1616 C1613 1.463 . S
C1616 N1620 1.427 . S
C1617 H1607 0.929 . S
C1617 C1615 1.433 . S
C1617 N1620 1.384 . S
C1618 H1609 0.929 . S
C1618 C1610 1.378 . S
C1618 C1613 1.350 . S
C1619 H1606 0.929 . S
C1619 C1611 1.433 1_455 S
C1619 N1621 1.384 . S
N1620 C1616 1.427 . S
N1620 C1617 1.384 . S
N1621 C1613 1.427 1_455 S
N1621 C1619 1.384 . S
H1622 C1628 0.930 . S
H1623 C1632 0.930 . S
H1624 C1637 0.929 . S
H1625 C1635 0.929 . S
H1626 C1630 0.929 . S
H1627 C1636 0.929 . S
C1628 H1622 0.930 . S
C1628 C1629 1.367 . S
C1628 C1636 1.378 . S
C1629 C1628 1.367 . S
C1629 C1637 1.433 . S
C1630 H1626 0.929 . S
C1630 C1632 1.378 . S
C1630 C1634 1.350 . S
C1631 C1634 1.463 . S
C1631 C1636 1.350 . S
C1631 N1639 1.427 . S
C1632 H1623 0.930 . S
C1632 C1630 1.378 . S
C1632 C1633 1.367 . S
C1633 C1632 1.367 . S
C1633 C1635 1.433 . S
C1634 C1630 1.350 . S
C1634 C1631 1.463 . S
C1634 N1638 1.427 . S
C1635 H1625 0.929 . S
C1635 C1633 1.433 . S
C1635 N1638 1.384 . S
C1636 H1627 0.929 . S
C1636 C1628 1.378 . S
C1636 C1631 1.350 . S
C1637 H1624 0.929 . S
C1637 C1629 1.433 . S
C1637 N1639 1.384 . S
N1638 C1634 1.427 . S
N1638 C1635 1.384 . S
N1639 C1631 1.427 . S
N1639 C1637 1.384 . S
H1640 C1646 0.930 . S
H1641 C1650 0.930 . S
H1642 C1655 0.929 . S
H1643 C1653 0.929 . S
H1644 C1648 0.929 . S
H1645 C1654 0.929 . S
C1646 H1640 0.930 . S
C1646 C1647 1.367 . S
C1646 C1654 1.378 . S
C1647 C1646 1.367 . S
C1647 C1655 1.433 . S
C1648 H1644 0.929 . S
C1648 C1650 1.378 . S
C1648 C1652 1.350 . S
C1649 C1652 1.463 . S
C1649 C1654 1.350 . S
C1649 N1657 1.427 . S
C1650 H1641 0.930 . S
C1650 C1648 1.378 . S
C1650 C1651 1.367 . S
C1651 C1650 1.367 . S
C1651 C1653 1.433 . S
C1652 C1648 1.350 . S
C1652 C1649 1.463 . S
C1652 N1656 1.427 . S
C1653 H1643 0.929 . S
C1653 C1651 1.433 . S
C1653 N1656 1.384 . S
C1654 H1645 0.929 . S
C1654 C1646 1.378 . S
C1654 C1649 1.350 . S
C1655 H1642 0.929 . S
C1655 C1647 1.433 . S
C1655 N1657 1.384 . S
N1656 C1652 1.427 . S
N1656 C1653 1.384 . S
N1657 C1649 1.427 . S
N1657 C1655 1.384 . S
H1658 C1664 0.930 . S
H1659 C1668 0.930 . S
H1660 C1673 0.929 . S
H1661 C1671 0.929 . S
H1662 C1666 0.929 . S
H1663 C1672 0.929 . S
C1664 H1658 0.930 . S
C1664 C1665 1.367 . S
C1664 C1672 1.378 . S
C1665 C1664 1.367 . S
C1665 C1673 1.433 . S
C1666 H1662 0.929 . S
C1666 C1668 1.378 . S
C1666 C1670 1.350 . S
C1667 C1670 1.463 . S
C1667 C1672 1.350 . S
C1667 N1675 1.427 . S
C1668 H1659 0.930 . S
C1668 C1666 1.378 . S
C1668 C1669 1.367 . S
C1669 C1668 1.367 . S
C1669 C1671 1.433 . S
C1670 C1666 1.350 . S
C1670 C1667 1.463 . S
C1670 N1674 1.427 . S
C1671 H1661 0.929 . S
C1671 C1669 1.433 . S
C1671 N1674 1.384 . S
C1672 H1663 0.929 . S
C1672 C1664 1.378 . S
C1672 C1667 1.350 . S
C1673 H1660 0.929 . S
C1673 C1665 1.433 . S
C1673 N1675 1.384 . S
N1674 C1670 1.427 . S
N1674 C1671 1.384 . S
N1675 C1667 1.427 . S
N1675 C1673 1.384 . S
H1676 C1682 0.930 . S
H1677 C1686 0.930 . S
H1678 C1691 0.929 . S
H1679 C1689 0.904 1_655 S
H1680 C1684 0.929 . S
H1681 C1690 0.929 . S
C1682 H1676 0.930 . S
C1682 C1683 1.367 . S
C1682 C1690 1.378 . S
C1683 C1682 1.367 . S
C1683 C1691 1.433 . S
C1684 H1680 0.929 . S
C1684 C1686 1.378 . S
C1684 C1688 1.350 . S
C1685 C1688 1.463 . S
C1685 C1690 1.350 . S
C1685 N1693 1.427 . S
C1686 H1677 0.930 . S
C1686 C1684 1.378 . S
C1686 C1687 1.367 . S
C1687 C1686 1.367 . S
C1687 C1689 1.433 . S
C1688 C1684 1.350 . S
C1688 C1685 1.463 . S
C1688 N1692 1.427 . S
C1689 H1679 0.904 1_455 S
C1689 C1687 1.433 . S
C1689 N1692 1.384 . S
C1690 H1681 0.929 . S
C1690 C1682 1.378 . S
C1690 C1685 1.350 . S
C1691 H1678 0.929 . S
C1691 C1683 1.433 . S
C1691 N1693 1.384 . S
N1692 C1688 1.427 . S
N1692 C1689 1.384 . S
N1693 C1685 1.427 . S
N1693 C1691 1.384 . S
H1694 C1700 0.930 . S
H1695 C1704 0.930 . S
H1696 C1709 0.929 . S
H1697 C1707 0.929 . S
H1698 C1702 0.929 . S
H1699 C1708 0.929 . S
C1700 H1694 0.930 . S
C1700 C1701 1.367 . S
C1700 C1708 1.378 . S
C1701 C1700 1.367 . S
C1701 C1709 1.433 . S
C1702 H1698 0.929 . S
C1702 C1704 1.378 . S
C1702 C1706 1.350 . S
C1703 C1706 1.463 . S
C1703 C1708 1.350 . S
C1703 N1711 1.427 . S
C1704 H1695 0.930 . S
C1704 C1702 1.378 . S
C1704 C1705 1.367 . S
C1705 C1704 1.367 . S
C1705 C1707 1.433 . S
C1706 C1702 1.350 . S
C1706 C1703 1.463 . S
C1706 N1710 1.427 . S
C1707 H1697 0.929 . S
C1707 C1705 1.433 . S
C1707 N1710 1.384 . S
C1708 H1699 0.929 . S
C1708 C1700 1.378 . S
C1708 C1703 1.350 . S
C1709 H1696 0.929 . S
C1709 C1701 1.433 . S
C1709 N1711 1.384 . S
N1710 C1706 1.427 . S
N1710 C1707 1.384 . S
N1711 C1703 1.427 . S
N1711 C1709 1.384 . S
H1712 C1718 0.930 . S
H1713 C1722 0.930 . S
H1714 C1727 0.929 . S
H1715 C1725 0.929 . S
H1716 C1720 0.929 . S
H1717 C1726 0.929 . S
C1718 H1712 0.930 . S
C1718 C1719 1.367 . S
C1718 C1726 1.378 . S
C1719 C1718 1.367 . S
C1719 C1727 1.433 . S
C1720 H1716 0.929 . S
C1720 C1722 1.378 . S
C1720 C1724 1.350 . S
C1721 C1724 1.463 . S
C1721 C1726 1.350 . S
C1721 N1729 1.427 . S
C1722 H1713 0.930 . S
C1722 C1720 1.378 . S
C1722 C1723 1.367 . S
C1723 C1722 1.367 . S
C1723 C1725 1.433 . S
C1724 C1720 1.350 . S
C1724 C1721 1.463 . S
C1724 N1728 1.427 . S
C1725 H1715 0.929 . S
C1725 C1723 1.433 . S
C1725 N1728 1.384 . S
C1726 H1717 0.929 . S
C1726 C1718 1.378 . S
C1726 C1721 1.350 . S
C1727 H1714 0.929 . S
C1727 C1719 1.433 . S
C1727 N1729 1.384 . S
N1728 C1724 1.427 . S
N1728 C1725 1.384 . S
N1729 C1721 1.427 . S
N1729 C1727 1.384 . S
H1730 C1736 0.930 . S
H1731 C1740 0.930 . S
H1732 C1745 0.929 . S
H1733 C1743 0.929 . S
H1734 C1738 0.929 . S
H1735 C1744 0.929 . S
C1736 H1730 0.930 . S
C1736 C1737 1.367 . S
C1736 C1744 1.378 . S
C1737 C1736 1.367 . S
C1737 C1745 1.433 . S
C1738 H1734 0.929 . S
C1738 C1740 1.378 . S
C1738 C1742 1.350 . S
C1739 C1742 1.463 . S
C1739 C1744 1.350 . S
C1739 N1747 1.427 . S
C1740 H1731 0.930 . S
C1740 C1738 1.378 . S
C1740 C1741 1.367 . S
C1741 C1740 1.367 . S
C1741 C1743 1.433 . S
C1742 C1738 1.350 . S
C1742 C1739 1.463 . S
C1742 N1746 1.427 . S
C1743 H1733 0.929 . S
C1743 C1741 1.433 . S
C1743 N1746 1.384 . S
C1744 H1735 0.929 . S
C1744 C1736 1.378 . S
C1744 C1739 1.350 . S
C1745 H1732 0.929 . S
C1745 C1737 1.433 . S
C1745 N1747 1.384 . S
N1746 C1742 1.427 . S
N1746 C1743 1.384 . S
N1747 C1739 1.427 . S
N1747 C1745 1.384 . S
H1748 C1754 0.930 . S
H1749 C1758 0.930 . S
H1750 C1763 0.929 . S
H1751 C1761 0.929 . S
H1752 C1756 0.929 . S
H1753 C1762 0.929 . S
C1754 H1748 0.930 . S
C1754 C1755 1.367 . S
C1754 C1762 1.378 . S
C1755 C1754 1.367 . S
C1755 C1763 1.433 . S
C1756 H1752 0.929 . S
C1756 C1758 1.378 . S
C1756 C1760 1.350 . S
C1757 C1760 1.463 . S
C1757 C1762 1.350 . S
C1757 N1765 1.427 . S
C1758 H1749 0.930 . S
C1758 C1756 1.378 . S
C1758 C1759 1.367 . S
C1759 C1758 1.367 . S
C1759 C1761 1.433 . S
C1760 C1756 1.350 . S
C1760 C1757 1.463 . S
C1760 N1764 1.427 . S
C1761 H1751 0.929 . S
C1761 C1759 1.433 . S
C1761 N1764 1.384 . S
C1762 H1753 0.929 . S
C1762 C1754 1.378 . S
C1762 C1757 1.350 . S
C1763 H1750 0.929 . S
C1763 C1755 1.433 . S
C1763 N1765 1.384 . S
N1764 C1760 1.427 . S
N1764 C1761 1.384 . S
N1765 C1757 1.427 . S
N1765 C1763 1.384 . S
H1766 C1772 0.930 . S
H1767 C1776 0.930 . S
H1768 C1781 0.929 . S
H1769 C1779 0.929 . S
H1770 C1774 0.929 . S
H1771 C1780 0.929 . S
C1772 H1766 0.930 . S
C1772 C1773 1.367 . S
C1772 C1780 1.378 . S
C1773 C1772 1.367 . S
C1773 C1781 1.433 . S
C1774 H1770 0.929 . S
C1774 C1776 1.378 . S
C1774 C1778 1.350 . S
C1775 C1778 1.463 . S
C1775 C1780 1.350 . S
C1775 N1783 1.427 . S
C1776 H1767 0.930 . S
C1776 C1774 1.378 . S
C1776 C1777 1.367 . S
C1777 C1776 1.367 . S
C1777 C1779 1.433 . S
C1778 C1774 1.350 . S
C1778 C1775 1.463 . S
C1778 N1782 1.427 . S
C1779 H1769 0.929 . S
C1779 C1777 1.433 . S
C1779 N1782 1.384 . S
C1780 H1771 0.929 . S
C1780 C1772 1.378 . S
C1780 C1775 1.350 . S
C1781 H1768 0.929 . S
C1781 C1773 1.433 . S
C1781 N1783 1.384 . S
N1782 C1778 1.427 . S
N1782 C1779 1.384 . S
N1783 C1775 1.427 . S
N1783 C1781 1.384 . S
H1784 C1790 0.930 . S
H1785 C1794 0.930 . S
H1786 C1799 0.929 . S
H1787 C1797 0.929 . S
H1788 C1792 0.929 . S
H1789 C1798 0.929 . S
C1790 H1784 0.930 . S
C1790 C1791 1.367 . S
C1790 C1798 1.378 . S
C1791 C1790 1.367 . S
C1791 C1799 1.433 . S
C1792 H1788 0.929 . S
C1792 C1794 1.378 . S
C1792 C1796 1.350 . S
C1793 C1796 1.463 . S
C1793 C1798 1.350 . S
C1793 N1801 1.427 . S
C1794 H1785 0.930 . S
C1794 C1792 1.378 . S
C1794 C1795 1.367 . S
C1795 C1794 1.367 . S
C1795 C1797 1.433 . S
C1796 C1792 1.350 . S
C1796 C1793 1.463 . S
C1796 N1800 1.427 . S
C1797 H1787 0.929 . S
C1797 C1795 1.433 . S
C1797 N1800 1.384 . S
C1798 H1789 0.929 . S
C1798 C1790 1.378 . S
C1798 C1793 1.350 . S
C1799 H1786 0.929 . S
C1799 C1791 1.433 . S
C1799 N1801 1.384 . S
N1800 C1796 1.427 . S
N1800 C1797 1.384 . S
N1801 C1793 1.427 . S
N1801 C1799 1.384 . S
H1802 C1808 0.930 . S
H1803 C1812 0.930 . S
H1804 C1817 0.929 . S
H1805 C1815 0.929 . S
H1806 C1810 0.929 . S
H1807 C1816 0.929 . S
C1808 H1802 0.930 . S
C1808 C1809 1.367 . S
C1808 C1816 1.378 . S
C1809 C1808 1.367 . S
C1809 C1817 1.433 . S
C1810 H1806 0.929 . S
C1810 C1812 1.378 . S
C1810 C1814 1.350 . S
C1811 C1814 1.463 . S
C1811 C1816 1.350 . S
C1811 N1819 1.427 . S
C1812 H1803 0.930 . S
C1812 C1810 1.378 . S
C1812 C1813 1.367 . S
C1813 C1812 1.367 . S
C1813 C1815 1.433 . S
C1814 C1810 1.350 . S
C1814 C1811 1.463 . S
C1814 N1818 1.427 . S
C1815 H1805 0.929 . S
C1815 C1813 1.433 . S
C1815 N1818 1.384 . S
C1816 H1807 0.929 . S
C1816 C1808 1.378 . S
C1816 C1811 1.350 . S
C1817 H1804 0.929 . S
C1817 C1809 1.433 . S
C1817 N1819 1.384 . S
N1818 C1814 1.427 . S
N1818 C1815 1.384 . S
N1819 C1811 1.427 . S
N1819 C1817 1.384 . S
H1820 C1826 0.930 . S
H1821 C1830 0.930 . S
H1822 C1835 0.929 . S
H1823 C1833 0.929 . S
H1824 C1828 0.929 . S
H1825 C1834 0.929 . S
C1826 H1820 0.930 . S
C1826 C1827 1.367 . S
C1826 C1834 1.378 . S
C1827 C1826 1.367 . S
C1827 C1835 1.433 . S
C1828 H1824 0.929 . S
C1828 C1830 1.378 . S
C1828 C1832 1.350 . S
C1829 C1832 1.463 . S
C1829 C1834 1.350 . S
C1829 N1837 1.427 . S
C1830 H1821 0.930 . S
C1830 C1828 1.378 . S
C1830 C1831 1.367 . S
C1831 C1830 1.367 . S
C1831 C1833 1.433 . S
C1832 C1828 1.350 . S
C1832 C1829 1.463 . S
C1832 N1836 1.427 . S
C1833 H1823 0.929 . S
C1833 C1831 1.433 . S
C1833 N1836 1.384 . S
C1834 H1825 0.929 . S
C1834 C1826 1.378 . S
C1834 C1829 1.350 . S
C1835 H1822 0.929 . S
C1835 C1827 1.433 . S
C1835 N1837 1.384 . S
N1836 C1832 1.427 . S
N1836 C1833 1.384 . S
N1837 C1829 1.427 . S
N1837 C1835 1.384 . S
H1838 C1844 0.930 1_556 S
H1839 C1848 0.926 1_545 S
H1840 C1853 0.929 . S
H1841 C1851 0.927 1_545 S
H1842 C1846 0.929 . S
H1843 C1852 0.929 1_556 S
C1844 H1838 0.930 1_554 S
C1844 C1845 1.367 . S
C1844 C1852 1.378 . S
C1845 C1844 1.367 . S
C1845 C1853 1.433 . S
C1846 H1842 0.929 . S
C1846 C1848 1.397 . S
C1846 C1850 1.350 . S
C1847 C1850 1.463 . S
C1847 C1852 1.350 . S
C1847 N1855 1.427 . S
C1848 H1839 0.926 1_565 S
C1848 C1846 1.397 . S
C1848 C1849 1.353 1_565 S
C1849 C1848 1.353 1_545 S
C1849 C1851 1.433 1_544 S
C1850 C1846 1.350 . S
C1850 C1847 1.463 . S
C1850 N1854 1.427 1_554 S
C1851 H1841 0.927 1_565 S
C1851 C1849 1.433 1_566 S
C1851 N1854 1.387 . S
C1852 H1843 0.929 1_554 S
C1852 C1844 1.378 . S
C1852 C1847 1.350 . S
C1853 H1840 0.929 . S
C1853 C1845 1.433 . S
C1853 N1855 1.384 . S
N1854 C1850 1.427 1_556 S
N1854 C1851 1.387 . S
N1855 C1847 1.427 . S
N1855 C1853 1.384 . S
H1856 C1862 0.930 . S
H1857 C1866 0.930 . S
H1858 C1871 0.929 . S
H1859 C1869 0.929 . S
H1860 C1864 0.929 . S
H1861 C1870 0.929 . S
C1862 H1856 0.930 . S
C1862 C1863 1.367 . S
C1862 C1870 1.378 . S
C1863 C1862 1.367 . S
C1863 C1871 1.433 . S
C1864 H1860 0.929 . S
C1864 C1866 1.378 . S
C1864 C1868 1.350 . S
C1865 C1868 1.463 . S
C1865 C1870 1.350 . S
C1865 N1873 1.427 . S
C1866 H1857 0.930 . S
C1866 C1864 1.378 . S
C1866 C1867 1.367 . S
C1867 C1866 1.367 . S
C1867 C1869 1.433 . S
C1868 C1864 1.350 . S
C1868 C1865 1.463 . S
C1868 N1872 1.427 . S
C1869 H1859 0.929 . S
C1869 C1867 1.433 . S
C1869 N1872 1.384 . S
C1870 H1861 0.929 . S
C1870 C1862 1.378 . S
C1870 C1865 1.350 . S
C1871 H1858 0.929 . S
C1871 C1863 1.433 . S
C1871 N1873 1.384 . S
N1872 C1868 1.427 . S
N1872 C1869 1.384 . S
N1873 C1865 1.427 . S
N1873 C1871 1.384 . S
H1874 C1880 0.930 . S
H1875 C1884 0.930 . S
H1876 C1889 0.929 . S
H1877 C1887 0.929 . S
H1878 C1882 0.929 1_556 S
H1879 C1888 0.929 . S
C1880 H1874 0.930 . S
C1880 C1881 1.367 . S
C1880 C1888 1.378 . S
C1881 C1880 1.367 . S
C1881 C1889 1.433 1_554 S
C1882 H1878 0.929 1_554 S
C1882 C1884 1.378 . S
C1882 C1886 1.350 . S
C1883 C1886 1.463 . S
C1883 C1888 1.350 . S
C1883 N1891 1.427 . S
C1884 H1875 0.930 . S
C1884 C1882 1.378 . S
C1884 C1885 1.367 . S
C1885 C1884 1.367 . S
C1885 C1887 1.433 . S
C1886 C1882 1.350 . S
C1886 C1883 1.463 . S
C1886 N1890 1.427 . S
C1887 H1877 0.929 . S
C1887 C1885 1.433 . S
C1887 N1890 1.384 . S
C1888 H1879 0.929 . S
C1888 C1880 1.378 . S
C1888 C1883 1.350 . S
C1889 H1876 0.929 . S
C1889 C1881 1.433 1_556 S
C1889 N1891 1.384 1_556 S
N1890 C1886 1.427 . S
N1890 C1887 1.384 . S
N1891 C1883 1.427 . S
N1891 C1889 1.384 1_554 S
H1892 C1898 0.930 . S
H1893 C1902 0.930 . S
H1894 C1907 0.929 . S
H1895 C1905 0.929 . S
H1896 C1900 0.929 . S
H1897 C1906 0.929 . S
C1898 H1892 0.930 . S
C1898 C1899 1.367 . S
C1898 C1906 1.378 . S
C1899 C1898 1.367 . S
C1899 C1907 1.433 . S
C1900 H1896 0.929 . S
C1900 C1902 1.378 . S
C1900 C1904 1.350 . S
C1901 C1904 1.463 . S
C1901 C1906 1.350 . S
C1901 N1909 1.427 . S
C1902 H1893 0.930 . S
C1902 C1900 1.378 . S
C1902 C1903 1.367 . S
C1903 C1902 1.367 . S
C1903 C1905 1.433 . S
C1904 C1900 1.350 . S
C1904 C1901 1.463 . S
C1904 N1908 1.427 . S
C1905 H1895 0.929 . S
C1905 C1903 1.433 . S
C1905 N1908 1.384 . S
C1906 H1897 0.929 . S
C1906 C1898 1.378 . S
C1906 C1901 1.350 . S
C1907 H1894 0.929 . S
C1907 C1899 1.433 . S
C1907 N1909 1.384 . S
N1908 C1904 1.427 . S
N1908 C1905 1.384 . S
N1909 C1901 1.427 . S
N1909 C1907 1.384 . S
H1910 C1916 0.930 . S
H1911 C1920 0.930 . S
H1912 C1925 0.929 . S
H1913 C1923 0.929 . S
H1914 C1918 0.929 . S
H1915 C1924 0.929 . S
C1916 H1910 0.930 . S
C1916 C1917 1.367 . S
C1916 C1924 1.378 . S
C1917 C1916 1.367 . S
C1917 C1925 1.433 . S
C1918 H1914 0.929 . S
C1918 C1920 1.378 . S
C1918 C1922 1.350 . S
C1919 C1922 1.463 . S
C1919 C1924 1.350 . S
C1919 N1927 1.427 . S
C1920 H1911 0.930 . S
C1920 C1918 1.378 . S
C1920 C1921 1.367 . S
C1921 C1920 1.367 . S
C1921 C1923 1.433 . S
C1922 C1918 1.350 . S
C1922 C1919 1.463 . S
C1922 N1926 1.427 . S
C1923 H1913 0.929 . S
C1923 C1921 1.433 . S
C1923 N1926 1.384 . S
C1924 H1915 0.929 . S
C1924 C1916 1.378 . S
C1924 C1919 1.350 . S
C1925 H1912 0.929 . S
C1925 C1917 1.433 . S
C1925 N1927 1.384 . S
N1926 C1922 1.427 . S
N1926 C1923 1.384 . S
N1927 C1919 1.427 . S
N1927 C1925 1.384 . S
H1928 C1934 0.930 . S
H1929 C1938 0.930 . S
H1930 C1943 0.929 . S
H1931 C1941 0.929 . S
H1932 C1936 0.929 . S
H1933 C1942 0.929 . S
C1934 H1928 0.930 . S
C1934 C1935 1.367 . S
C1934 C1942 1.378 . S
C1935 C1934 1.367 . S
C1935 C1943 1.433 . S
C1936 H1932 0.929 . S
C1936 C1938 1.378 . S
C1936 C1940 1.350 . S
C1937 C1940 1.463 . S
C1937 C1942 1.350 . S
C1937 N1945 1.427 . S
C1938 H1929 0.930 . S
C1938 C1936 1.378 . S
C1938 C1939 1.367 . S
C1939 C1938 1.367 . S
C1939 C1941 1.433 . S
C1940 C1936 1.350 . S
C1940 C1937 1.463 . S
C1940 N1944 1.427 . S
C1941 H1931 0.929 . S
C1941 C1939 1.433 . S
C1941 N1944 1.384 . S
C1942 H1933 0.929 . S
C1942 C1934 1.378 . S
C1942 C1937 1.350 . S
C1943 H1930 0.929 . S
C1943 C1935 1.433 . S
C1943 N1945 1.384 . S
N1944 C1940 1.427 . S
N1944 C1941 1.384 . S
N1945 C1937 1.427 . S
N1945 C1943 1.384 . S
H1946 C1952 0.930 . S
H1947 C1956 0.930 . S
H1948 C1961 0.929 . S
H1949 C1959 0.929 . S
H1950 C1954 0.929 . S
H1951 C1960 0.929 . S
C1952 H1946 0.930 . S
C1952 C1953 1.367 . S
C1952 C1960 1.378 . S
C1953 C1952 1.367 . S
C1953 C1961 1.433 . S
C1954 H1950 0.929 . S
C1954 C1956 1.378 . S
C1954 C1958 1.350 . S
C1955 C1958 1.463 . S
C1955 C1960 1.350 . S
C1955 N1963 1.427 . S
C1956 H1947 0.930 . S
C1956 C1954 1.378 . S
C1956 C1957 1.367 . S
C1957 C1956 1.367 . S
C1957 C1959 1.433 . S
C1958 C1954 1.350 . S
C1958 C1955 1.463 . S
C1958 N1962 1.427 . S
C1959 H1949 0.929 . S
C1959 C1957 1.433 . S
C1959 N1962 1.384 . S
C1960 H1951 0.929 . S
C1960 C1952 1.378 . S
C1960 C1955 1.350 . S
C1961 H1948 0.929 . S
C1961 C1953 1.433 . S
C1961 N1963 1.384 . S
N1962 C1958 1.427 . S
N1962 C1959 1.384 . S
N1963 C1955 1.427 . S
N1963 C1961 1.384 . S
H1964 C1970 0.930 . S
H1965 C1974 0.930 . S
H1966 C1979 0.929 . S
H1967 C1977 0.929 . S
H1968 C1972 0.929 . S
H1969 C1978 0.929 . S
C1970 H1964 0.930 . S
C1970 C1971 1.380 . S
C1970 C1978 1.378 . S
C1971 C1970 1.380 . S
C1971 C1979 1.427 1_455 S
C1972 H1968 0.929 . S
C1972 C1974 1.378 . S
C1972 C1976 1.350 1_655 S
C1973 C1976 1.463 . S
C1973 C1978 1.350 . S
C1973 N1981 1.427 1_455 S
C1974 H1965 0.930 . S
C1974 C1972 1.378 . S
C1974 C1975 1.367 1_655 S
C1975 C1974 1.367 1_455 S
C1975 C1977 1.433 . S
C1976 C1972 1.350 1_455 S
C1976 C1973 1.463 . S
C1976 N1980 1.427 . S
C1977 H1967 0.929 . S
C1977 C1975 1.433 . S
C1977 N1980 1.384 . S
C1978 H1969 0.929 . S
C1978 C1970 1.378 . S
C1978 C1973 1.350 . S
C1979 H1966 0.929 . S
C1979 C1971 1.427 1_655 S
C1979 N1981 1.384 . S
N1980 C1976 1.427 . S
N1980 C1977 1.384 . S
N1981 C1973 1.427 1_655 S
N1981 C1979 1.384 . S
H1982 C1988 0.930 . S
H1983 C1992 0.930 . S
H1984 C1997 0.929 . S
H1985 C1995 0.929 . S
H1986 C1990 0.929 . S
H1987 C1996 0.929 . S
C1988 H1982 0.930 . S
C1988 C1989 1.367 . S
C1988 C1996 1.378 . S
C1989 C1988 1.367 . S
C1989 C1997 1.433 . S
C1990 H1986 0.929 . S
C1990 C1992 1.378 . S
C1990 C1994 1.350 . S
C1991 C1994 1.463 . S
C1991 C1996 1.350 . S
C1991 N1999 1.427 . S
C1992 H1983 0.930 . S
C1992 C1990 1.378 . S
C1992 C1993 1.367 . S
C1993 C1992 1.367 . S
C1993 C1995 1.433 . S
C1994 C1990 1.350 . S
C1994 C1991 1.463 . S
C1994 N1998 1.427 . S
C1995 H1985 0.929 . S
C1995 C1993 1.433 . S
C1995 N1998 1.384 . S
C1996 H1987 0.929 . S
C1996 C1988 1.378 . S
C1996 C1991 1.350 . S
C1997 H1984 0.929 . S
C1997 C1989 1.433 . S
C1997 N1999 1.384 . S
N1998 C1994 1.427 . S
N1998 C1995 1.384 . S
N1999 C1991 1.427 . S
N1999 C1997 1.384 . S
H2000 C2006 0.930 . S
H2001 C2010 0.930 . S
H2002 C2015 0.929 . S
H2003 C2013 0.929 1_554 S
H2004 C2008 0.929 . S
H2005 C2014 0.929 . S
C2006 H2000 0.930 . S
C2006 C2007 1.367 . S
C2006 C2014 1.378 . S
C2007 C2006 1.367 . S
C2007 C2015 1.433 . S
C2008 H2004 0.929 . S
C2008 C2010 1.378 . S
C2008 C2012 1.350 . S
C2009 C2012 1.463 . S
C2009 C2014 1.350 . S
C2009 N2017 1.427 . S
C2010 H2001 0.930 . S
C2010 C2008 1.378 . S
C2010 C2011 1.367 . S
C2011 C2010 1.367 . S
C2011 C2013 1.433 . S
C2012 C2008 1.350 . S
C2012 C2009 1.463 . S
C2012 N2016 1.427 . S
C2013 H2003 0.929 1_556 S
C2013 C2011 1.433 . S
C2013 N2016 1.384 . S
C2014 H2005 0.929 . S
C2014 C2006 1.378 . S
C2014 C2009 1.350 . S
C2015 H2002 0.929 . S
C2015 C2007 1.433 . S
C2015 N2017 1.384 . S
N2016 C2012 1.427 . S
N2016 C2013 1.384 . S
N2017 C2009 1.427 . S
N2017 C2015 1.384 . S
H2018 C2024 0.930 . S
H2019 C2028 0.930 . S
H2020 C2033 0.929 . S
H2021 C2031 0.929 . S
H2022 C2026 0.929 . S
H2023 C2032 0.929 . S
C2024 H2018 0.930 . S
C2024 C2025 1.367 . S
C2024 C2032 1.378 . S
C2025 C2024 1.367 . S
C2025 C2033 1.433 . S
C2026 H2022 0.929 . S
C2026 C2028 1.378 . S
C2026 C2030 1.350 . S
C2027 C2030 1.463 . S
C2027 C2032 1.350 . S
C2027 N2035 1.427 . S
C2028 H2019 0.930 . S
C2028 C2026 1.378 . S
C2028 C2029 1.367 . S
C2029 C2028 1.367 . S
C2029 C2031 1.433 . S
C2030 C2026 1.350 . S
C2030 C2027 1.463 . S
C2030 N2034 1.427 . S
C2031 H2021 0.929 . S
C2031 C2029 1.433 . S
C2031 N2034 1.384 . S
C2032 H2023 0.929 . S
C2032 C2024 1.378 . S
C2032 C2027 1.350 . S
C2033 H2020 0.929 . S
C2033 C2025 1.433 . S
C2033 N2035 1.384 . S
N2034 C2030 1.427 . S
N2034 C2031 1.384 . S
N2035 C2027 1.427 . S
N2035 C2033 1.384 . S
H2036 C2042 0.930 . S
H2037 C2046 0.930 . S
H2038 C2051 0.930 1_655 S
H2039 C2049 0.929 . S
H2040 C2044 0.929 . S
H2041 C2050 0.929 . S
C2042 H2036 0.930 . S
C2042 C2043 1.367 . S
C2042 C2050 1.378 . S
C2043 C2042 1.367 . S
C2043 C2051 1.432 . S
C2044 H2040 0.929 . S
C2044 C2046 1.378 . S
C2044 C2048 1.350 1_655 S
C2045 C2048 1.463 . S
C2045 C2050 1.350 . S
C2045 N2053 1.427 1_455 S
C2046 H2037 0.930 . S
C2046 C2044 1.378 . S
C2046 C2047 1.367 1_655 S
C2047 C2046 1.367 1_455 S
C2047 C2049 1.433 . S
C2048 C2044 1.350 1_455 S
C2048 C2045 1.463 . S
C2048 N2052 1.427 . S
C2049 H2039 0.929 . S
C2049 C2047 1.433 . S
C2049 N2052 1.384 . S
C2050 H2041 0.929 . S
C2050 C2042 1.378 . S
C2050 C2045 1.350 . S
C2051 H2038 0.930 1_455 S
C2051 C2043 1.432 . S
C2051 N2053 1.384 1_455 S
N2052 C2048 1.427 . S
N2052 C2049 1.384 . S
N2053 C2045 1.427 1_655 S
N2053 C2051 1.384 1_655 S
H2054 C2060 0.930 . S
H2055 C2064 0.930 . S
H2056 C2069 0.929 . S
H2057 C2067 0.929 . S
H2058 C2062 0.929 . S
H2059 C2068 0.929 . S
C2060 H2054 0.930 . S
C2060 C2061 1.367 . S
C2060 C2068 1.378 . S
C2061 C2060 1.367 . S
C2061 C2069 1.433 . S
C2062 H2058 0.929 . S
C2062 C2064 1.378 . S
C2062 C2066 1.350 . S
C2063 C2066 1.463 . S
C2063 C2068 1.350 . S
C2063 N2071 1.427 . S
C2064 H2055 0.930 . S
C2064 C2062 1.378 . S
C2064 C2065 1.367 . S
C2065 C2064 1.367 . S
C2065 C2067 1.433 . S
C2066 C2062 1.350 . S
C2066 C2063 1.463 . S
C2066 N2070 1.427 . S
C2067 H2057 0.929 . S
C2067 C2065 1.433 . S
C2067 N2070 1.384 . S
C2068 H2059 0.929 . S
C2068 C2060 1.378 . S
C2068 C2063 1.350 . S
C2069 H2056 0.929 . S
C2069 C2061 1.433 . S
C2069 N2071 1.384 . S
N2070 C2066 1.427 . S
N2070 C2067 1.384 . S
N2071 C2063 1.427 . S
N2071 C2069 1.384 . S
H2072 C2078 0.930 . S
H2073 C2082 0.930 . S
H2074 C2087 0.929 . S
H2075 C2085 0.929 . S
H2076 C2080 0.929 . S
H2077 C2086 0.929 . S
C2078 H2072 0.930 . S
C2078 C2079 1.367 . S
C2078 C2086 1.378 . S
C2079 C2078 1.367 . S
C2079 C2087 1.433 . S
C2080 H2076 0.929 . S
C2080 C2082 1.378 . S
C2080 C2084 1.350 . S
C2081 C2084 1.463 . S
C2081 C2086 1.350 . S
C2081 N2089 1.427 . S
C2082 H2073 0.930 . S
C2082 C2080 1.378 . S
C2082 C2083 1.367 . S
C2083 C2082 1.367 . S
C2083 C2085 1.433 . S
C2084 C2080 1.350 . S
C2084 C2081 1.463 . S
C2084 N2088 1.427 . S
C2085 H2075 0.929 . S
C2085 C2083 1.433 . S
C2085 N2088 1.384 . S
C2086 H2077 0.929 . S
C2086 C2078 1.378 . S
C2086 C2081 1.350 . S
C2087 H2074 0.929 . S
C2087 C2079 1.433 . S
C2087 N2089 1.384 . S
N2088 C2084 1.427 . S
N2088 C2085 1.384 . S
N2089 C2081 1.427 . S
N2089 C2087 1.384 . S
H2090 C2096 0.930 . S
H2091 C2100 0.930 . S
H2092 C2105 0.929 . S
H2093 C2103 0.929 . S
H2094 C2098 0.929 . S
H2095 C2104 0.929 . S
C2096 H2090 0.930 . S
C2096 C2097 1.367 . S
C2096 C2104 1.378 . S
C2097 C2096 1.367 . S
C2097 C2105 1.433 . S
C2098 H2094 0.929 . S
C2098 C2100 1.378 . S
C2098 C2102 1.350 . S
C2099 C2102 1.463 . S
C2099 C2104 1.350 . S
C2099 N2107 1.427 . S
C2100 H2091 0.930 . S
C2100 C2098 1.378 . S
C2100 C2101 1.367 . S
C2101 C2100 1.367 . S
C2101 C2103 1.433 . S
C2102 C2098 1.350 . S
C2102 C2099 1.463 . S
C2102 N2106 1.427 . S
C2103 H2093 0.929 . S
C2103 C2101 1.433 . S
C2103 N2106 1.384 . S
C2104 H2095 0.929 . S
C2104 C2096 1.378 . S
C2104 C2099 1.350 . S
C2105 H2092 0.929 . S
C2105 C2097 1.433 . S
C2105 N2107 1.384 . S
N2106 C2102 1.427 . S
N2106 C2103 1.384 . S
N2107 C2099 1.427 . S
N2107 C2105 1.384 . S
H2108 C2114 0.930 . S
H2109 C2118 0.930 . S
H2110 C2123 0.929 . S
H2111 C2121 0.929 1_455 S
H2112 C2116 0.929 . S
H2113 C2122 0.929 . S
C2114 H2108 0.930 . S
C2114 C2115 1.367 . S
C2114 C2122 1.378 . S
C2115 C2114 1.367 . S
C2115 C2123 1.433 . S
C2116 H2112 0.929 . S
C2116 C2118 1.378 . S
C2116 C2120 1.350 . S
C2117 C2120 1.463 . S
C2117 C2122 1.350 . S
C2117 N2125 1.427 . S
C2118 H2109 0.930 . S
C2118 C2116 1.378 . S
C2118 C2119 1.367 . S
C2119 C2118 1.367 . S
C2119 C2121 1.433 . S
C2120 C2116 1.350 . S
C2120 C2117 1.463 . S
C2120 N2124 1.427 . S
C2121 H2111 0.929 1_655 S
C2121 C2119 1.433 . S
C2121 N2124 1.384 . S
C2122 H2113 0.929 . S
C2122 C2114 1.378 . S
C2122 C2117 1.350 . S
C2123 H2110 0.929 . S
C2123 C2115 1.433 . S
C2123 N2125 1.384 . S
N2124 C2120 1.427 . S
N2124 C2121 1.384 . S
N2125 C2117 1.427 . S
N2125 C2123 1.384 . S
H2126 C2132 0.930 . S
H2127 C2136 0.930 . S
H2128 C2141 0.929 . S
H2129 C2139 0.929 . S
H2130 C2134 0.929 . S
H2131 C2140 0.929 . S
C2132 H2126 0.930 . S
C2132 C2133 1.367 . S
C2132 C2140 1.378 . S
C2133 C2132 1.367 . S
C2133 C2141 1.433 . S
C2134 H2130 0.929 . S
C2134 C2136 1.378 . S
C2134 C2138 1.350 . S
C2135 C2138 1.463 . S
C2135 C2140 1.350 . S
C2135 N2143 1.427 . S
C2136 H2127 0.930 . S
C2136 C2134 1.378 . S
C2136 C2137 1.367 . S
C2137 C2136 1.367 . S
C2137 C2139 1.433 . S
C2138 C2134 1.350 . S
C2138 C2135 1.463 . S
C2138 N2142 1.427 . S
C2139 H2129 0.929 . S
C2139 C2137 1.433 . S
C2139 N2142 1.384 . S
C2140 H2131 0.929 . S
C2140 C2132 1.378 . S
C2140 C2135 1.350 . S
C2141 H2128 0.929 . S
C2141 C2133 1.433 . S
C2141 N2143 1.384 . S
N2142 C2138 1.427 . S
N2142 C2139 1.384 . S
N2143 C2135 1.427 . S
N2143 C2141 1.384 . S
H2144 C2150 0.930 . S
H2145 C2154 0.930 . S
H2146 C2159 0.929 . S
H2147 C2157 0.929 . S
H2148 C2152 0.929 . S
H2149 C2158 0.929 . S
C2150 H2144 0.930 . S
C2150 C2151 1.367 . S
C2150 C2158 1.378 . S
C2151 C2150 1.367 . S
C2151 C2159 1.433 . S
C2152 H2148 0.929 . S
C2152 C2154 1.378 . S
C2152 C2156 1.350 . S
C2153 C2156 1.463 . S
C2153 C2158 1.350 . S
C2153 N2161 1.427 . S
C2154 H2145 0.930 . S
C2154 C2152 1.378 . S
C2154 C2155 1.367 . S
C2155 C2154 1.367 . S
C2155 C2157 1.433 . S
C2156 C2152 1.350 . S
C2156 C2153 1.463 . S
C2156 N2160 1.427 . S
C2157 H2147 0.929 . S
C2157 C2155 1.433 . S
C2157 N2160 1.384 . S
C2158 H2149 0.929 . S
C2158 C2150 1.378 . S
C2158 C2153 1.350 . S
C2159 H2146 0.929 . S
C2159 C2151 1.433 . S
C2159 N2161 1.384 . S
N2160 C2156 1.427 . S
N2160 C2157 1.384 . S
N2161 C2153 1.427 . S
N2161 C2159 1.384 . S
H2162 C2168 0.930 . S
H2163 C2172 0.930 . S
H2164 C2177 0.929 . S
H2165 C2175 0.929 . S
H2166 C2170 0.929 . S
H2167 C2176 0.929 . S
C2168 H2162 0.930 . S
C2168 C2169 1.367 . S
C2168 C2176 1.378 . S
C2169 C2168 1.367 . S
C2169 C2177 1.433 . S
C2170 H2166 0.929 . S
C2170 C2172 1.378 . S
C2170 C2174 1.350 . S
C2171 C2174 1.463 . S
C2171 C2176 1.350 . S
C2171 N2179 1.427 . S
C2172 H2163 0.930 . S
C2172 C2170 1.378 . S
C2172 C2173 1.367 . S
C2173 C2172 1.367 . S
C2173 C2175 1.433 . S
C2174 C2170 1.350 . S
C2174 C2171 1.463 . S
C2174 N2178 1.427 . S
C2175 H2165 0.929 . S
C2175 C2173 1.433 . S
C2175 N2178 1.384 . S
C2176 H2167 0.929 . S
C2176 C2168 1.378 . S
C2176 C2171 1.350 . S
C2177 H2164 0.929 . S
C2177 C2169 1.433 . S
C2177 N2179 1.384 . S
N2178 C2174 1.427 . S
N2178 C2175 1.384 . S
N2179 C2171 1.427 . S
N2179 C2177 1.384 . S
H2180 C2186 0.930 . S
H2181 C2190 0.930 1_455 S
H2182 C2195 0.929 . S
H2183 C2193 0.929 . S
H2184 C2188 0.929 . S
H2185 C2194 0.929 . S
C2186 H2180 0.930 . S
C2186 C2187 1.367 . S
C2186 C2194 1.378 . S
C2187 C2186 1.367 . S
C2187 C2195 1.433 . S
C2188 H2184 0.929 . S
C2188 C2190 1.378 . S
C2188 C2192 1.350 . S
C2189 C2192 1.463 . S
C2189 C2194 1.350 . S
C2189 N2197 1.427 . S
C2190 H2181 0.930 1_655 S
C2190 C2188 1.378 . S
C2190 C2191 1.367 . S
C2191 C2190 1.367 . S
C2191 C2193 1.433 . S
C2192 C2188 1.350 . S
C2192 C2189 1.463 . S
C2192 N2196 1.427 . S
C2193 H2183 0.929 . S
C2193 C2191 1.433 . S
C2193 N2196 1.384 . S
C2194 H2185 0.929 . S
C2194 C2186 1.378 . S
C2194 C2189 1.350 . S
C2195 H2182 0.929 . S
C2195 C2187 1.433 . S
C2195 N2197 1.384 . S
N2196 C2192 1.427 . S
N2196 C2193 1.384 . S
N2197 C2189 1.427 . S
N2197 C2195 1.384 . S
H2198 C2204 0.930 . S
H2199 C2208 0.930 . S
H2200 C2213 0.929 . S
H2201 C2211 0.929 . S
H2202 C2206 0.929 . S
H2203 C2212 0.929 . S
C2204 H2198 0.930 . S
C2204 C2205 1.367 . S
C2204 C2212 1.378 . S
C2205 C2204 1.367 . S
C2205 C2213 1.433 . S
C2206 H2202 0.929 . S
C2206 C2208 1.378 . S
C2206 C2210 1.350 . S
C2207 C2210 1.463 . S
C2207 C2212 1.350 . S
C2207 N2215 1.427 . S
C2208 H2199 0.930 . S
C2208 C2206 1.378 . S
C2208 C2209 1.367 . S
C2209 C2208 1.367 . S
C2209 C2211 1.433 . S
C2210 C2206 1.350 . S
C2210 C2207 1.463 . S
C2210 N2214 1.427 . S
C2211 H2201 0.929 . S
C2211 C2209 1.433 . S
C2211 N2214 1.384 . S
C2212 H2203 0.929 . S
C2212 C2204 1.378 . S
C2212 C2207 1.350 . S
C2213 H2200 0.929 . S
C2213 C2205 1.433 . S
C2213 N2215 1.384 . S
N2214 C2210 1.427 . S
N2214 C2211 1.384 . S
N2215 C2207 1.427 . S
N2215 C2213 1.384 . S
H2216 C2222 0.930 . S
H2217 C2226 0.930 . S
H2218 C2231 0.929 . S
H2219 C2229 0.929 . S
H2220 C2224 0.929 . S
H2221 C2230 0.929 . S
C2222 H2216 0.930 . S
C2222 C2223 1.367 . S
C2222 C2230 1.378 . S
C2223 C2222 1.367 . S
C2223 C2231 1.433 . S
C2224 H2220 0.929 . S
C2224 C2226 1.378 . S
C2224 C2228 1.350 . S
C2225 C2228 1.463 . S
C2225 C2230 1.350 . S
C2225 N2233 1.427 . S
C2226 H2217 0.930 . S
C2226 C2224 1.378 . S
C2226 C2227 1.367 . S
C2227 C2226 1.367 . S
C2227 C2229 1.433 . S
C2228 C2224 1.350 . S
C2228 C2225 1.463 . S
C2228 N2232 1.427 . S
C2229 H2219 0.929 . S
C2229 C2227 1.433 . S
C2229 N2232 1.384 . S
C2230 H2221 0.929 . S
C2230 C2222 1.378 . S
C2230 C2225 1.350 . S
C2231 H2218 0.929 . S
C2231 C2223 1.433 . S
C2231 N2233 1.384 . S
N2232 C2228 1.427 . S
N2232 C2229 1.384 . S
N2233 C2225 1.427 . S
N2233 C2231 1.384 . S
H2234 C2240 0.930 . S
H2235 C2244 0.930 1_545 S
H2236 C2249 0.929 . S
H2237 C2247 0.929 . S
H2238 C2242 0.929 . S
H2239 C2248 0.929 . S
C2240 H2234 0.930 . S
C2240 C2241 1.367 . S
C2240 C2248 1.378 . S
C2241 C2240 1.367 . S
C2241 C2249 1.433 . S
C2242 H2238 0.929 . S
C2242 C2244 1.378 . S
C2242 C2246 1.350 . S
C2243 C2246 1.463 . S
C2243 C2248 1.350 . S
C2243 N2251 1.427 . S
C2244 H2235 0.930 1_565 S
C2244 C2242 1.378 . S
C2244 C2245 1.367 . S
C2245 C2244 1.367 . S
C2245 C2247 1.433 . S
C2246 C2242 1.350 . S
C2246 C2243 1.463 . S
C2246 N2250 1.427 . S
C2247 H2237 0.929 . S
C2247 C2245 1.433 . S
C2247 N2250 1.384 . S
C2248 H2239 0.929 . S
C2248 C2240 1.378 . S
C2248 C2243 1.350 . S
C2249 H2236 0.929 . S
C2249 C2241 1.433 . S
C2249 N2251 1.384 . S
N2250 C2246 1.427 . S
N2250 C2247 1.384 . S
N2251 C2243 1.427 . S
N2251 C2249 1.384 . S
H2252 C2258 0.930 . S
H2253 C2262 0.930 . S
H2254 C2267 0.929 . S
H2255 C2265 0.929 . S
H2256 C2260 0.929 . S
H2257 C2266 0.929 . S
C2258 H2252 0.930 . S
C2258 C2259 1.367 . S
C2258 C2266 1.378 . S
C2259 C2258 1.367 . S
C2259 C2267 1.433 . S
C2260 H2256 0.929 . S
C2260 C2262 1.378 . S
C2260 C2264 1.350 . S
C2261 C2264 1.463 . S
C2261 C2266 1.350 . S
C2261 N2269 1.427 . S
C2262 H2253 0.930 . S
C2262 C2260 1.378 . S
C2262 C2263 1.367 . S
C2263 C2262 1.367 . S
C2263 C2265 1.433 . S
C2264 C2260 1.350 . S
C2264 C2261 1.463 . S
C2264 N2268 1.427 . S
C2265 H2255 0.929 . S
C2265 C2263 1.433 . S
C2265 N2268 1.384 . S
C2266 H2257 0.929 . S
C2266 C2258 1.378 . S
C2266 C2261 1.350 . S
C2267 H2254 0.929 . S
C2267 C2259 1.433 . S
C2267 N2269 1.384 . S
N2268 C2264 1.427 . S
N2268 C2265 1.384 . S
N2269 C2261 1.427 . S
N2269 C2267 1.384 . S
H2270 C2276 0.930 . S
H2271 C2280 0.930 . S
H2272 C2285 0.929 . S
H2273 C2283 0.929 . S
H2274 C2278 0.929 . S
H2275 C2284 0.929 . S
C2276 H2270 0.930 . S
C2276 C2277 1.367 1_554 S
C2276 C2284 1.378 . S
C2277 C2276 1.367 1_556 S
C2277 C2285 1.433 . S
C2278 H2274 0.929 . S
C2278 C2280 1.378 . S
C2278 C2282 1.350 . S
C2279 C2282 1.463 . S
C2279 C2284 1.350 1_556 S
C2279 N2287 1.427 . S
C2280 H2271 0.930 . S
C2280 C2278 1.378 . S
C2280 C2281 1.367 . S
C2281 C2280 1.367 . S
C2281 C2283 1.433 1_556 S
C2282 C2278 1.350 . S
C2282 C2279 1.463 . S
C2282 N2286 1.427 1_556 S
C2283 H2273 0.929 . S
C2283 C2281 1.433 1_554 S
C2283 N2286 1.384 . S
C2284 H2275 0.929 . S
C2284 C2276 1.378 . S
C2284 C2279 1.350 1_554 S
C2285 H2272 0.929 . S
C2285 C2277 1.433 . S
C2285 N2287 1.384 . S
N2286 C2282 1.427 1_554 S
N2286 C2283 1.384 . S
N2287 C2279 1.427 . S
N2287 C2285 1.384 . S
H2288 C2294 0.930 . S
H2289 C2298 0.930 . S
H2290 C2303 0.929 . S
H2291 C2301 0.929 . S
H2292 C2296 0.929 . S
H2293 C2302 0.929 . S
C2294 H2288 0.930 . S
C2294 C2295 1.367 . S
C2294 C2302 1.378 . S
C2295 C2294 1.367 . S
C2295 C2303 1.433 . S
C2296 H2292 0.929 . S
C2296 C2298 1.378 . S
C2296 C2300 1.350 . S
C2297 C2300 1.463 . S
C2297 C2302 1.350 . S
C2297 N2305 1.427 . S
C2298 H2289 0.930 . S
C2298 C2296 1.378 . S
C2298 C2299 1.367 . S
C2299 C2298 1.367 . S
C2299 C2301 1.433 . S
C2300 C2296 1.350 . S
C2300 C2297 1.463 . S
C2300 N2304 1.427 . S
C2301 H2291 0.929 . S
C2301 C2299 1.433 . S
C2301 N2304 1.384 . S
C2302 H2293 0.929 . S
C2302 C2294 1.378 . S
C2302 C2297 1.350 . S
C2303 H2290 0.929 . S
C2303 C2295 1.433 . S
C2303 N2305 1.384 . S
N2304 C2300 1.427 . S
N2304 C2301 1.384 . S
N2305 C2297 1.427 . S
N2305 C2303 1.384 . S
H2306 C2312 0.930 1_556 S
H2307 C2316 0.930 . S
H2308 C2321 0.929 . S
H2309 C2319 0.929 . S
H2310 C2314 0.929 . S
H2311 C2320 0.929 1_556 S
C2312 H2306 0.930 1_554 S
C2312 C2313 1.367 . S
C2312 C2320 1.378 . S
C2313 C2312 1.367 . S
C2313 C2321 1.433 . S
C2314 H2310 0.929 . S
C2314 C2316 1.378 . S
C2314 C2318 1.350 . S
C2315 C2318 1.463 . S
C2315 C2320 1.350 . S
C2315 N2323 1.427 . S
C2316 H2307 0.930 . S
C2316 C2314 1.378 . S
C2316 C2317 1.367 . S
C2317 C2316 1.367 . S
C2317 C2319 1.433 1_554 S
C2318 C2314 1.350 . S
C2318 C2315 1.463 . S
C2318 N2322 1.427 1_554 S
C2319 H2309 0.929 . S
C2319 C2317 1.433 1_556 S
C2319 N2322 1.384 . S
C2320 H2311 0.929 1_554 S
C2320 C2312 1.378 . S
C2320 C2315 1.350 . S
C2321 H2308 0.929 . S
C2321 C2313 1.433 . S
C2321 N2323 1.384 . S
N2322 C2318 1.427 1_556 S
N2322 C2319 1.384 . S
N2323 C2315 1.427 . S
N2323 C2321 1.384 . S
H2324 C2330 0.930 . S
H2325 C2334 0.930 . S
H2326 C2339 0.929 . S
H2327 C2337 0.929 . S
H2328 C2332 0.929 . S
H2329 C2338 0.929 . S
C2330 H2324 0.930 . S
C2330 C2331 1.367 . S
C2330 C2338 1.378 . S
C2331 C2330 1.367 . S
C2331 C2339 1.433 . S
C2332 H2328 0.929 . S
C2332 C2334 1.378 . S
C2332 C2336 1.350 . S
C2333 C2336 1.463 . S
C2333 C2338 1.350 . S
C2333 N2341 1.427 . S
C2334 H2325 0.930 . S
C2334 C2332 1.378 . S
C2334 C2335 1.367 . S
C2335 C2334 1.367 . S
C2335 C2337 1.433 . S
C2336 C2332 1.350 . S
C2336 C2333 1.463 . S
C2336 N2340 1.427 . S
C2337 H2327 0.929 . S
C2337 C2335 1.433 . S
C2337 N2340 1.384 . S
C2338 H2329 0.929 . S
C2338 C2330 1.378 . S
C2338 C2333 1.350 . S
C2339 H2326 0.929 . S
C2339 C2331 1.433 . S
C2339 N2341 1.384 . S
N2340 C2336 1.427 . S
N2340 C2337 1.384 . S
N2341 C2333 1.427 . S
N2341 C2339 1.384 . S
H2342 C2348 0.930 . S
H2343 C2352 0.930 . S
H2344 C2357 0.929 . S
H2345 C2355 0.929 . S
H2346 C2350 0.929 . S
H2347 C2356 0.929 . S
C2348 H2342 0.930 . S
C2348 C2349 1.367 . S
C2348 C2356 1.378 . S
C2349 C2348 1.367 . S
C2349 C2357 1.433 . S
C2350 H2346 0.929 . S
C2350 C2352 1.378 . S
C2350 C2354 1.350 . S
C2351 C2354 1.463 . S
C2351 C2356 1.350 . S
C2351 N2359 1.427 . S
C2352 H2343 0.930 . S
C2352 C2350 1.378 . S
C2352 C2353 1.367 . S
C2353 C2352 1.367 . S
C2353 C2355 1.433 . S
C2354 C2350 1.350 . S
C2354 C2351 1.463 . S
C2354 N2358 1.427 . S
C2355 H2345 0.929 . S
C2355 C2353 1.433 . S
C2355 N2358 1.384 . S
C2356 H2347 0.929 . S
C2356 C2348 1.378 . S
C2356 C2351 1.350 . S
C2357 H2344 0.929 . S
C2357 C2349 1.433 . S
C2357 N2359 1.384 . S
N2358 C2354 1.427 . S
N2358 C2355 1.384 . S
N2359 C2351 1.427 . S
N2359 C2357 1.384 . S
C639 C101 1.217 . S
C643 C328 1.176 . S
C657 C57 1.311 . S
C661 C341 1.286 . S
C675 C70 1.231 . S
C679 C360 1.221 . S
C697 C391 1.883 . S
C693 C82 1.901 . S
C711 C23 1.713 . S
C715 C411 1.713 . S
C733 C428 0.787 . S
C729 C29 0.784 . S
C751 C441 1.475 . S
C747 C49 1.479 . S
C765 C10 1.016 . S
C769 C468 0.995 . S
C787 C321 1.193 . S
C783 C218 1.209 . S
C801 C226 1.416 . S
C805 C351 1.416 . S
C823 C353 1.618 . S
C819 C251 1.680 . S
C841 C388 0.778 . S
C837 C159 0.768 . S
C855 C211 1.067 . S
C859 C408 1.048 1_655 S
C877 C421 1.759 . S
C873 C225 1.755 . S
C895 C451 1.236 . S
C891 C252 1.257 . S
C913 C461 1.163 . S
C909 C166 1.190 . S
C931 C331 1.575 . S
C927 C147 1.573 . S
C945 C263 1.743 . S
C949 C481 1.730 1_556 S
C967 C511 1.622 . S
C963 C309 1.603 . S
C985 C528 1.089 . S
C981 C291 1.118 . S
C999 C108 1.909 . S
C1003 C471 1.926 . S
C1017 C121 1.274 . S
C1021 C358 1.242 . S
C1035 C302 1.802 . S
C1039 C541 1.794 . S
C1057 C568 0.919 . S
C1053 C276 0.944 . S
C1075 C318 1.371 . S
C1071 C55 1.411 . S
C1093 C553 1.454 . S
C1089 C96 1.470 . S
C1107 C88 1.517 . S
C1111 C371 1.494 . S
C1125 C75 2.138 . S
C1129 C540 2.077 . S
C1147 C400 1.874 . S
C1143 C4 1.913 . S
C1161 C44 1.050 . S
C1165 C498 1.046 . S
C1183 C433 1.593 . S
C1179 C31 1.604 . S
C1201 C578 1.150 . S
C1197 C18 1.193 . S
C1219 C313 1.383 . S
C1215 C133 1.401 . S
C1237 C560 1.637 . S
C1233 C296 1.670 . S
C1251 C107 1.885 . S
C1255 C361 1.840 . S
C1269 C264 1.095 . S
C1273 C538 1.077 . S
C1287 C140 1.333 . S
C1291 C398 1.329 . S
C1309 C493 1.900 . S
C1305 C289 1.903 . S
C1323 C114 1.511 . S
C1327 C440 1.469 . S
C1341 C265 1.387 . S
C1345 C573 1.356 . S
C1359 C179 1.819 . S
C1363 C320 1.770 . S
C1377 C161 1.917 . S
C1381 C473 1.893 . S
C1395 C244 1.830 . S
C1399 C420 1.799 . S
C1413 C224 1.400 . S
C1417 C518 1.364 . S
C1435 C580 2.059 . S
C1431 C257 2.099 . S
C1449 C199 1.407 . S
C1453 C368 1.356 . S
C1471 C373 1.965 . S
C1467 C237 1.988 . S
C1489 C338 1.138 . S
C1485 C185 1.178 . S
C1503 C69 1.227 . S
C1507 C608 1.196 . S
C1525 C561 1.286 . S
C1521 C83 1.310 . S
C1539 C94 1.233 . S
C1543 C620 1.243 1_556 S
C1557 C56 1.903 . S
C1561 C551 1.881 . S
C1575 C42 1.727 . S
C1579 C491 1.715 . S
C1597 C508 0.794 . S
C1593 C3 0.798 . S
C1615 C521 1.498 . S
C1611 C16 1.489 . S
C1633 C588 0.988 . S
C1629 C36 1.015 . S
C1651 C601 1.206 . S
C1647 C238 1.208 . S
C1665 C174 1.417 . S
C1669 C571 1.416 . S
C1687 C613 1.622 . S
C1683 C186 1.681 . S
C1705 C548 0.758 . S
C1701 C198 0.765 . S
C1723 C488 1.053 . S
C1719 C239 1.071 . S
C1737 C173 1.752 . S
C1741 C501 1.758 . S
C1759 C531 1.242 . S
C1755 C187 1.258 . S
C1773 C205 1.190 . S
C1777 C581 1.159 . S
C1795 C611 1.572 . S
C1791 C290 1.574 . S
C1809 C122 1.742 . S
C1813 C401 1.736 . S
C1831 C431 1.623 . S
C1827 C134 1.607 . S
C1849 C448 1.102 . S
C1845 C148 1.116 . S
C1867 C591 1.917 . S
C1863 C283 1.910 . S
C1881 C270 1.271 . S
C1885 C618 1.242 . S
C1903 C381 1.799 . S
C1899 C135 1.792 . S
C1921 C348 0.920 . S
C1917 C109 0.944 . S
C1935 C81 1.410 . S
C1939 C598 1.367 . S
C1957 C333 1.453 . S
C1953 C68 1.470 . S
C1971 C62 1.514 . S
C1975 C631 1.494 . S
C1989 C95 2.138 . S
C1993 C380 2.075 . S
C2007 C30 1.913 . S
C2011 C480 1.875 . S
C2029 C418 1.033 . S
C2025 C17 1.042 . S
C2043 C5 1.605 . S
C2047 C513 1.593 . S
C2061 C43 1.188 . S
C2065 C458 1.154 . S
C2083 C593 1.379 . S
C2079 C304 1.402 . S
C2097 C153 1.673 . S
C2101 C340 1.625 . S
C2119 C621 1.830 . S
C2115 C278 1.884 . S
C2133 C127 1.088 . S
C2137 C378 1.085 . S
C2151 C303 1.337 . S
C2155 C478 1.317 . S
C2173 C413 1.895 . S
C2169 C146 1.902 . S
C2187 C277 1.505 . S
C2191 C520 1.455 . S
C2209 C453 1.349 . S
C2205 C120 1.384 . S
C2227 C600 1.769 . S
C2223 C231 1.819 . S
C2245 C393 1.890 1_565 S
C2241 C200 1.916 . S
C2259 C212 1.832 . S
C2263 C500 1.801 . S
C2281 C438 1.375 1_556 S
C2277 C172 1.395 . S
C2295 C192 2.097 . S
C2299 C460 2.056 . S
C2313 C160 1.406 . S
C2317 C628 1.359 . S
C2335 C533 1.973 . S
C2331 C213 1.988 1_565 S
C2353 C558 1.158 . S
C2349 C250 1.175 . S
