# Generated by pormake.
# Topology anh, (6,3)-cn, num edge types: 1
# Building blocks:
#     Node 0, Type 0, BuildingBlock: MIFKUJ_clean_sbu_0, # of connection points: 6
#     Node 1, Type 0, BuildingBlock: MIFKUJ_clean_sbu_0, # of connection points: 6
#     Node 2, Type 0, BuildingBlock: MIFKUJ_clean_sbu_0, # of connection points: 6
#     Node 3, Type 1, BuildingBlock: OLANEW_clean_sbu_2, # of connection points: 3
#     Node 4, Type 1, BuildingBlock: OLANEW_clean_sbu_2, # of connection points: 3
#     Node 5, Type 1, BuildingBlock: OLANEW_clean_sbu_2, # of connection points: 3
#     Node 6, Type 1, BuildingBlock: OLANEW_clean_sbu_2, # of connection points: 3
#     Node 7, Type 1, BuildingBlock: OLANEW_clean_sbu_2, # of connection points: 3
#     Node 8, Type 1, BuildingBlock: OLANEW_clean_sbu_2, # of connection points: 3
#     Edge 9, Type (0, 1), BuildingBlock: ZUJKAS_clean_linker_0, # of connection points: 2
#     Edge 10, Type (0, 1), BuildingBlock: ZUJKAS_clean_linker_0, # of connection points: 2
#     Edge 11, Type (0, 1), BuildingBlock: ZUJKAS_clean_linker_0, # of connection points: 2
#     Edge 12, Type (0, 1), BuildingBlock: ZUJKAS_clean_linker_0, # of connection points: 2
#     Edge 13, Type (0, 1), BuildingBlock: ZUJKAS_clean_linker_0, # of connection points: 2
#     Edge 14, Type (0, 1), BuildingBlock: ZUJKAS_clean_linker_0, # of connection points: 2
#     Edge 15, Type (0, 1), BuildingBlock: ZUJKAS_clean_linker_0, # of connection points: 2
#     Edge 16, Type (0, 1), BuildingBlock: ZUJKAS_clean_linker_0, # of connection points: 2
#     Edge 17, Type (0, 1), BuildingBlock: ZUJKAS_clean_linker_0, # of connection points: 2
#     Edge 18, Type (0, 1), BuildingBlock: ZUJKAS_clean_linker_0, # of connection points: 2
#     Edge 19, Type (0, 1), BuildingBlock: ZUJKAS_clean_linker_0, # of connection points: 2
#     Edge 20, Type (0, 1), BuildingBlock: ZUJKAS_clean_linker_0, # of connection points: 2
#     Edge 21, Type (0, 1), BuildingBlock: ZUJKAS_clean_linker_0, # of connection points: 2
#     Edge 22, Type (0, 1), BuildingBlock: ZUJKAS_clean_linker_0, # of connection points: 2
#     Edge 23, Type (0, 1), BuildingBlock: ZUJKAS_clean_linker_0, # of connection points: 2
#     Edge 24, Type (0, 1), BuildingBlock: ZUJKAS_clean_linker_0, # of connection points: 2
#     Edge 25, Type (0, 1), BuildingBlock: ZUJKAS_clean_linker_0, # of connection points: 2
#     Edge 26, Type (0, 1), BuildingBlock: ZUJKAS_clean_linker_0, # of connection points: 2
# Relax obj value: 0.071
# Max RMSD: 0.125
# Mean RMSD: 0.106
data_MOF--net-anh--node1-MIFKUJ_clean_sbu_0--node2-OLANEW_clean_sbu_2--edge1-ZUJKAS_clean_linker_0
_symmetry_space_group_name_H-M    P1
_symmetry_Int_Tables_number       1
_symmetry_cell_setting            triclinic
loop_
_symmetry_equiv_pos_as_xyz
'x, y, z'
_cell_length_a     42.80948
_cell_length_b     43.025405
_cell_length_c     63.451503
_cell_angle_alpha  93.424909
_cell_angle_beta   90.732236
_cell_angle_gamma 120.18036
loop_
_atom_site_label
_atom_site_type_symbol
_atom_site_fract_x
_atom_site_fract_y
_atom_site_fract_z
_atom_type_partial_charge
Zn0 Zn 0.02924 0.55577 0.1676 0.0
Zn1 Zn 0.96332 0.47932 0.1659 0.0
C2 C 0.08367 0.54179 0.18179 0.0
O3 O 0.088 0.56709 0.19619 0.0
C4 C 0.91014 0.49506 0.15183 0.0
O5 O 0.90643 0.47078 0.13687 0.0
O6 O 0.06687 0.6084 0.16758 0.0
O7 O 0.00094 0.54279 0.13976 0.0
O8 O 0.98907 0.4868 0.13874 0.0
C9 C 0.08814 0.61727 0.15242 0.0
O10 O 0.08321 0.59239 0.13756 0.0
O11 O 0.05839 0.53073 0.16758 0.0
C12 C 0.90296 0.41783 0.18011 0.0
O13 O 0.9081 0.44224 0.19535 0.0
O14 O 0.92481 0.4269 0.16525 0.0
O15 O 0.99168 0.49158 0.19362 0.0
O16 O 0.00441 0.54796 0.19516 0.0
O17 O 0.93495 0.50521 0.16624 0.0
C18 C 0.99579 0.51446 0.12918 0.0
C19 C 0.9988 0.52037 0.20448 0.0
Zn20 Zn 0.52063 0.05041 0.50471 0.0
Zn21 Zn 0.5325 0.9859 0.50336 0.0
C22 C 0.59159 0.10484 0.51936 0.0
O23 O 0.57242 0.11098 0.53324 0.0
C24 C 0.46097 0.93209 0.48738 0.0
O25 O 0.47866 0.93215 0.47059 0.0
O26 O 0.50709 0.08895 0.5047 0.0
O27 O 0.50226 0.02205 0.47662 0.0
O28 O 0.54707 0.01109 0.47635 0.0
C29 C 0.51908 0.10985 0.48978 0.0
O30 O 0.53735 0.10379 0.47523 0.0
O31 O 0.57532 0.07835 0.50556 0.0
C32 C 0.54304 0.93042 0.5176 0.0
O33 O 0.52676 0.93527 0.53382 0.0
O34 O 0.55003 0.95044 0.50236 0.0
O35 O 0.5492 0.01438 0.53171 0.0
O36 O 0.50412 0.02506 0.53145 0.0
O37 O 0.47814 0.95421 0.50319 0.0
C38 C 0.5247 0.01678 0.46641 0.0
C39 C 0.52637 0.01949 0.54165 0.0
Zn40 Zn 0.56676 0.53647 0.83189 0.0
Zn41 Zn 0.48866 0.51424 0.8313 0.0
C42 C 0.55651 0.46791 0.84068 0.0
O43 O 0.58089 0.4877 0.85588 0.0
C44 C 0.502 0.58193 0.8193 0.0
O45 O 0.48193 0.56122 0.80278 0.0
O46 O 0.62039 0.55485 0.83241 0.0
O47 O 0.55306 0.55047 0.80512 0.0
O48 O 0.50089 0.49978 0.80315 0.0
C49 C 0.63566 0.55476 0.81536 0.0
O50 O 0.61674 0.54548 0.7973 0.0
O51 O 0.54486 0.48287 0.82872 0.0
C52 C 0.42425 0.508 0.84602 0.0
O53 O 0.44741 0.5275 0.8618 0.0
O54 O 0.43512 0.49637 0.83055 0.0
O55 O 0.50177 0.50024 0.85828 0.0
O56 O 0.5548 0.55 0.86033 0.0
O57 O 0.51031 0.56799 0.83386 0.0
C58 C 0.52714 0.52447 0.79401 0.0
C59 C 0.52848 0.52528 0.86941 0.0
O60 O 0.49643 0.03325 0.23185 0.0
Cd61 Cd 0.49307 0.03703 0.19368 0.0
O62 O 0.52526 0.00309 0.22878 0.0
Cd63 Cd 0.50554 0.98675 0.19587 0.0
O64 O 0.45495 0.94901 0.17826 0.0
C65 C 0.42679 0.94282 0.18793 0.0
O66 O 0.43077 0.96065 0.20626 0.0
C67 C 0.51376 0.02 0.24036 0.0
C68 C 0.55926 0.0943 0.18305 0.0
O69 O 0.53282 0.09903 0.1877 0.0
O70 O 0.55404 0.06222 0.18279 0.0
O71 O 0.56559 0.53076 0.55911 0.0
Cd72 Cd 0.57002 0.52894 0.52079 0.0
O73 O 0.50662 0.50754 0.55649 0.0
Cd74 Cd 0.50937 0.52318 0.52424 0.0
O75 O 0.52098 0.57209 0.50944 0.0
C76 C 0.54669 0.60094 0.51863 0.0
O77 O 0.56511 0.59845 0.53452 0.0
C78 C 0.53531 0.51739 0.56776 0.0
C79 C 0.55691 0.46017 0.50793 0.0
O80 O 0.58917 0.48637 0.51232 0.0
O81 O 0.53092 0.46683 0.50889 0.0
O82 O 0.04638 0.55252 0.89626 0.0
Cd83 Cd 0.05311 0.5556 0.85813 0.0
O84 O 0.00618 0.49464 0.89259 0.0
Cd85 Cd 0.99241 0.49805 0.85992 0.0
O86 O 0.95154 0.50372 0.84239 0.0
C87 C 0.95716 0.53441 0.83777 0.0
O88 O 0.98941 0.56286 0.8419 0.0
C89 C 0.0272 0.52274 0.90443 0.0
C90 C 0.10894 0.54235 0.84822 0.0
O91 O 0.11527 0.57448 0.85281 0.0
O92 O 0.07601 0.51651 0.84772 0.0
O93 O 0.03327 0.54728 0.44261 0.0
Cd94 Cd 0.04023 0.55702 0.48108 0.0
O95 O 0.00138 0.48784 0.43816 0.0
Cd96 Cd 0.98982 0.47443 0.47088 0.0
O97 O 0.94972 0.43002 0.48813 0.0
C98 C 0.94021 0.39861 0.47996 0.0
O99 O 0.9565 0.3956 0.4632 0.0
C100 C 0.01809 0.51842 0.43051 0.0
C101 C 0.10603 0.62079 0.49063 0.0
O102 O 0.10391 0.58999 0.49059 0.0
O103 O 0.07687 0.62139 0.48686 0.0
O104 O 0.49423 0.96624 0.77441 0.0
Cd105 Cd 0.49829 0.96989 0.81298 0.0
O106 O 0.52941 0.02447 0.77957 0.0
Cd107 Cd 0.55557 0.07983 0.77085 0.0
O108 O 0.55964 0.13222 0.77335 0.0
C109 C 0.52987 0.13167 0.77527 0.0
O110 O 0.49969 0.10036 0.77451 0.0
C111 C 0.5124 0.99662 0.76681 0.0
C112 C 0.50832 0.9151 0.82608 0.0
O113 O 0.47675 0.91158 0.82524 0.0
O114 O 0.53525 0.94491 0.82117 0.0
O115 O 0.5332 0.53625 0.10755 0.0
Cd116 Cd 0.53602 0.53625 0.14598 0.0
O117 O 0.47851 0.52829 0.10243 0.0
Cd118 Cd 0.46246 0.52572 0.13507 0.0
O119 O 0.41631 0.51974 0.15253 0.0
C120 C 0.38549 0.49507 0.14488 0.0
O121 O 0.38411 0.47405 0.12855 0.0
C122 C 0.50785 0.53262 0.09514 0.0
C123 C 0.59965 0.53658 0.15675 0.0
O124 O 0.56957 0.50693 0.15324 0.0
O125 O 0.59941 0.56615 0.15594 0.0
H126 H 0.08375 0.49079 0.15382 0.0
H127 H 0.13095 0.47481 0.15048 0.0
H128 H 0.19133 0.54963 0.20381 0.0
H129 H 0.14407 0.56516 0.20755 0.0
H130 H 0.20034 0.52119 0.14186 0.0
H131 H 0.19839 0.46284 0.21764 0.0
H132 H 0.162 0.46918 0.2085 0.0
H133 H 0.20245 0.50643 0.22123 0.0
C134 C 0.10676 0.50336 0.16508 0.0
C135 C 0.11017 0.52928 0.18094 0.0
C136 C 0.13371 0.4942 0.16314 0.0
C137 C 0.16446 0.51066 0.17707 0.0
C138 C 0.16747 0.53591 0.19321 0.0
H139 H 0.37843 0.53791 0.17603 0.0
H140 H 0.32318 0.53864 0.18477 0.0
C141 C 0.1405 0.54497 0.19522 0.0
C142 C 0.19492 0.50412 0.17349 0.0
H143 H 0.25095 0.48027 0.19747 0.0
C144 C 0.21109 0.51179 0.15393 0.0
C145 C 0.20908 0.49208 0.18931 0.0
C146 C 0.19186 0.48182 0.21028 0.0
C147 C 0.24156 0.50865 0.14993 0.0
C148 C 0.25602 0.49716 0.16584 0.0
C149 C 0.23976 0.48914 0.18534 0.0
C150 C 0.28839 0.4939 0.16239 0.0
C151 C 0.25869 0.5186 0.1289 0.0
C152 C 0.28677 0.46777 0.14742 0.0
C153 C 0.31818 0.46724 0.1424 0.0
C154 C 0.35181 0.49287 0.15228 0.0
C155 C 0.35301 0.5179 0.16807 0.0
C156 C 0.32149 0.51835 0.17311 0.0
H157 H 0.24861 0.53355 0.12001 0.0
H158 H 0.28859 0.53539 0.13114 0.0
H159 H 0.25227 0.49365 0.11913 0.0
H160 H 0.26135 0.44843 0.13917 0.0
H161 H 0.31621 0.44743 0.13028 0.0
H162 H 0.63208 0.16843 0.54326 0.0
H163 H 0.69456 0.21504 0.53856 0.0
H164 H 0.70248 0.14733 0.48853 0.0
H165 H 0.63959 0.10076 0.49277 0.0
H166 H 0.76031 0.21733 0.5404 0.0
H167 H 0.72691 0.23808 0.45946 0.0
H168 H 0.69258 0.21162 0.47731 0.0
H169 H 0.71595 0.19269 0.46307 0.0
C170 C 0.64715 0.16325 0.53136 0.0
C171 C 0.63069 0.13104 0.5182 0.0
C172 C 0.68292 0.18995 0.52873 0.0
C173 C 0.70293 0.18497 0.51291 0.0
C174 C 0.68723 0.15207 0.5005 0.0
H175 H 0.91221 0.3287 0.46448 0.0
H176 H 0.8567 0.27589 0.47413 0.0
C177 C 0.65136 0.1254 0.50303 0.0
C178 C 0.73956 0.21488 0.50886 0.0
H179 H 0.78841 0.27117 0.47125 0.0
C180 C 0.76651 0.2291 0.52528 0.0
C181 C 0.74748 0.23038 0.48917 0.0
C182 C 0.71916 0.2177 0.47129 0.0
C183 C 0.80132 0.25814 0.52243 0.0
C184 C 0.80918 0.2735 0.50273 0.0
C185 C 0.78232 0.25916 0.4863 0.0
C186 C 0.84485 0.30488 0.49874 0.0
C187 C 0.82955 0.27193 0.54039 0.0
C188 C 0.85681 0.33868 0.50955 0.0
C189 C 0.88858 0.36907 0.50404 0.0
C190 C 0.90882 0.36615 0.48754 0.0
C191 C 0.89729 0.33198 0.47724 0.0
C192 C 0.86555 0.30171 0.48272 0.0
H193 H 0.82202 0.25215 0.55257 0.0
H194 H 0.85627 0.27822 0.5345 0.0
H195 H 0.83239 0.29715 0.54806 0.0
H196 H 0.84089 0.34182 0.52173 0.0
H197 H 0.89664 0.39499 0.51225 0.0
H198 H 0.52132 0.6252 0.85601 0.0
H199 H 0.5268 0.68464 0.86108 0.0
H200 H 0.50882 0.68369 0.79393 0.0
H201 H 0.50206 0.62382 0.78883 0.0
H202 H 0.56964 0.7507 0.84666 0.0
H203 H 0.42764 0.69504 0.81755 0.0
H204 H 0.44605 0.66669 0.82322 0.0
H205 H 0.45383 0.68712 0.79842 0.0
C206 C 0.51896 0.63788 0.8423 0.0
C207 C 0.51071 0.61973 0.82205 0.0
C208 C 0.52207 0.67178 0.84523 0.0
C209 C 0.51725 0.68806 0.82795 0.0
C210 C 0.51154 0.67105 0.80755 0.0
H211 H 0.56457 0.905 0.81652 0.0
H212 H 0.56823 0.85081 0.82034 0.0
C213 C 0.50789 0.63698 0.80464 0.0
C214 C 0.51642 0.72195 0.83127 0.0
H215 H 0.46439 0.75908 0.82098 0.0
C216 C 0.54655 0.75257 0.84123 0.0
C217 C 0.48583 0.724 0.82472 0.0
C218 C 0.45137 0.69135 0.8156 0.0
C219 C 0.54746 0.78564 0.84405 0.0
C220 C 0.51784 0.78824 0.83616 0.0
C221 C 0.48726 0.75724 0.82689 0.0
C222 C 0.51816 0.82287 0.83643 0.0
C223 C 0.57997 0.81723 0.85562 0.0
C224 C 0.48864 0.82517 0.84401 0.0
C225 C 0.48601 0.85574 0.84131 0.0
C226 C 0.51309 0.88473 0.83121 0.0
C227 C 0.54346 0.88316 0.82454 0.0
C228 C 0.54574 0.85229 0.82688 0.0
H229 H 0.59315 0.80804 0.86691 0.0
H230 H 0.60017 0.83282 0.84402 0.0
H231 H 0.57252 0.83543 0.86445 0.0
H232 H 0.467 0.80278 0.8514 0.0
H233 H 0.46238 0.85633 0.84668 0.0
H234 H 0.90493 0.53913 0.18295 0.0
H235 H 0.85654 0.55351 0.18646 0.0
H236 H 0.8057 0.4916 0.12751 0.0
H237 H 0.85399 0.47751 0.12372 0.0
H238 H 0.80696 0.55743 0.13186 0.0
H239 H 0.75385 0.47887 0.20238 0.0
H240 H 0.8008 0.51337 0.2045 0.0
H241 H 0.78588 0.47499 0.18582 0.0
C242 C 0.88364 0.52889 0.17063 0.0
C243 C 0.88317 0.50694 0.15313 0.0
C244 C 0.8559 0.53694 0.17273 0.0
C245 C 0.82723 0.52309 0.15742 0.0
C246 C 0.8275 0.50241 0.13956 0.0
H247 H 0.60901 0.47833 0.15748 0.0
H248 H 0.6661 0.47843 0.15944 0.0
C249 C 0.85513 0.49435 0.13743 0.0
C250 C 0.79625 0.52906 0.1601 0.0
H251 H 0.72339 0.50762 0.19009 0.0
C252 C 0.78885 0.54687 0.14469 0.0
C253 C 0.77248 0.51482 0.17673 0.0
C254 C 0.77832 0.49417 0.19324 0.0
C255 C 0.75796 0.55033 0.14526 0.0
C256 C 0.73416 0.53608 0.16189 0.0
C257 C 0.74187 0.51877 0.17748 0.0
C258 C 0.69979 0.53656 0.16247 0.0
C259 C 0.75028 0.5679 0.12758 0.0
C260 C 0.69978 0.56922 0.16411 0.0
C261 C 0.66715 0.56928 0.16294 0.0
C262 C 0.63396 0.53662 0.16023 0.0
C263 C 0.63407 0.50395 0.1595 0.0
C264 C 0.66668 0.50394 0.16064 0.0
H265 H 0.76697 0.57045 0.11381 0.0
H266 H 0.72128 0.55224 0.12217 0.0
H267 H 0.75654 0.59536 0.1334 0.0
H268 H 0.72504 0.59468 0.16593 0.0
H269 H 0.66801 0.59491 0.16367 0.0
H270 H 0.4224 0.91019 0.52291 0.0
H271 H 0.36142 0.85867 0.52538 0.0
H272 H 0.35155 0.83921 0.45748 0.0
H273 H 0.41299 0.8898 0.45496 0.0
H274 H 0.29554 0.8411 0.51108 0.0
H275 H 0.3301 0.7427 0.47482 0.0
H276 H 0.36397 0.7888 0.4825 0.0
H277 H 0.33828 0.77744 0.45771 0.0
C278 C 0.40714 0.89508 0.50849 0.0
C279 C 0.42265 0.90378 0.48875 0.0
C280 C 0.37229 0.8656 0.50993 0.0
C281 C 0.35223 0.84444 0.49166 0.0
C282 C 0.36694 0.85437 0.47185 0.0
H283 H 0.12227 0.68825 0.48124 0.0
H284 H 0.18173 0.74287 0.48308 0.0
C285 C 0.40196 0.88348 0.47042 0.0
C286 C 0.31625 0.81167 0.49336 0.0
H287 H 0.26749 0.72144 0.47885 0.0
C288 C 0.28944 0.81488 0.50415 0.0
C289 C 0.30852 0.77726 0.48475 0.0
C290 C 0.33686 0.77121 0.47451 0.0
C291 C 0.25489 0.78482 0.50612 0.0
C292 C 0.24656 0.75081 0.49646 0.0
C293 C 0.27365 0.74752 0.48608 0.0
C294 C 0.20994 0.71824 0.49664 0.0
C295 C 0.22802 0.78982 0.51888 0.0
C296 C 0.20591 0.68584 0.50321 0.0
C297 C 0.17201 0.65432 0.50171 0.0
C298 C 0.14138 0.65463 0.49377 0.0
C299 C 0.14527 0.68723 0.48766 0.0
C300 C 0.17927 0.7186 0.48885 0.0
H301 H 0.24189 0.81326 0.53078 0.0
H302 H 0.21085 0.79514 0.50815 0.0
H303 H 0.21024 0.76544 0.52721 0.0
H304 H 0.22915 0.6848 0.50921 0.0
H305 H 0.16989 0.62964 0.50654 0.0
H306 H 0.58228 0.42977 0.86014 0.0
H307 H 0.57206 0.37 0.84859 0.0
H308 H 0.49821 0.36054 0.7984 0.0
H309 H 0.50854 0.42046 0.80963 0.0
H310 H 0.50858 0.30104 0.8425 0.0
H311 H 0.57732 0.35004 0.76772 0.0
H312 H 0.58026 0.38025 0.78966 0.0
H313 H 0.54021 0.3575 0.77245 0.0
C314 C 0.56352 0.41483 0.8468 0.0
C315 C 0.54657 0.43002 0.83563 0.0
C316 C 0.55772 0.3807 0.84024 0.0
C317 C 0.53495 0.3613 0.82243 0.0
C318 C 0.51643 0.37549 0.81195 0.0
H319 H 0.47089 0.13924 0.7812 0.0
H320 H 0.47039 0.19452 0.79193 0.0
C321 C 0.52225 0.40963 0.81846 0.0
C322 C 0.53206 0.32705 0.81425 0.0
H323 H 0.55239 0.28807 0.77231 0.0
C324 C 0.51796 0.29805 0.82713 0.0
C325 C 0.54487 0.32362 0.7943 0.0
C326 C 0.56182 0.35455 0.78026 0.0
C327 C 0.5163 0.26552 0.82055 0.0
C328 C 0.52862 0.26192 0.80047 0.0
C329 C 0.5427 0.29092 0.78761 0.0
C330 C 0.52861 0.22878 0.79291 0.0
C331 C 0.50235 0.23567 0.83537 0.0
C332 C 0.56146 0.23009 0.7892 0.0
C333 C 0.56187 0.19865 0.78292 0.0
C334 C 0.52936 0.16539 0.78021 0.0
C335 C 0.49641 0.1644 0.7833 0.0
C336 C 0.49605 0.19588 0.78955 0.0
H337 H 0.50167 0.24559 0.85184 0.0
H338 H 0.4744 0.21461 0.83003 0.0
H339 H 0.51939 0.22294 0.83536 0.0
H340 H 0.58686 0.25535 0.7916 0.0
H341 H 0.58768 0.20033 0.78062 0.0
H342 H 0.53538 0.88581 0.54838 0.0
H343 H 0.54144 0.83226 0.5453 0.0
H344 H 0.57055 0.85133 0.48057 0.0
H345 H 0.56524 0.90544 0.48362 0.0
H346 H 0.50125 0.77283 0.5181 0.0
H347 H 0.6475 0.83183 0.50422 0.0
H348 H 0.62851 0.85873 0.514 0.0
H349 H 0.62357 0.8444 0.48637 0.0
C350 C 0.54356 0.87894 0.53357 0.0
C351 C 0.54983 0.89989 0.51625 0.0
C352 C 0.54697 0.84829 0.53183 0.0
C353 C 0.55673 0.83797 0.51277 0.0
C354 C 0.56368 0.85918 0.49555 0.0
H355 H 0.51134 0.61615 0.48815 0.0
H356 H 0.51547 0.67425 0.48373 0.0
C357 C 0.56046 0.89001 0.4973 0.0
C358 C 0.55723 0.80374 0.51066 0.0
H359 H 0.61159 0.76802 0.50107 0.0
C360 C 0.52535 0.77175 0.51433 0.0
C361 C 0.58877 0.80249 0.50583 0.0
C362 C 0.62415 0.8362 0.50256 0.0
C363 C 0.5242 0.73856 0.51359 0.0
C364 C 0.55561 0.73719 0.50854 0.0
C365 C 0.58745 0.76913 0.50467 0.0
C366 C 0.55655 0.70326 0.50891 0.0
C367 C 0.48971 0.70551 0.51901 0.0
C368 C 0.57963 0.70081 0.52373 0.0
C369 C 0.57762 0.66782 0.52614 0.0
C370 C 0.5524 0.63661 0.51378 0.0
C371 C 0.53078 0.63959 0.49806 0.0
C372 C 0.53297 0.67272 0.49559 0.0
H373 H 0.47107 0.71263 0.52714 0.0
H374 H 0.47548 0.68873 0.50426 0.0
H375 H 0.49562 0.68896 0.52935 0.0
H376 H 0.59816 0.7241 0.53408 0.0
H377 H 0.59486 0.66655 0.53829 0.0
H378 H 0.68003 0.56671 0.78249 0.0
H379 H 0.73852 0.56941 0.78303 0.0
H380 H 0.73253 0.55612 0.84998 0.0
H381 H 0.67477 0.55469 0.84971 0.0
H382 H 0.79975 0.60423 0.84037 0.0
H383 H 0.74775 0.48122 0.78556 0.0
H384 H 0.74441 0.51704 0.77468 0.0
H385 H 0.71851 0.49585 0.79697 0.0
C386 C 0.69137 0.56473 0.79736 0.0
C387 C 0.67266 0.56021 0.81603 0.0
C388 C 0.72467 0.566 0.79761 0.0
C389 C 0.73948 0.56203 0.81643 0.0
C390 C 0.72153 0.55902 0.83524 0.0
H391 H 0.88515 0.48412 0.83652 0.0
H392 H 0.83434 0.4933 0.82956 0.0
C393 C 0.68851 0.55824 0.83506 0.0
C394 C 0.77308 0.55996 0.8166 0.0
H395 H 0.8097 0.51077 0.79622 0.0
C396 C 0.80202 0.5839 0.83066 0.0
C397 C 0.77579 0.5331 0.8041 0.0
C398 C 0.74487 0.50511 0.78963 0.0
C399 C 0.83335 0.58138 0.83284 0.0
C400 C 0.83628 0.55486 0.82012 0.0
C401 C 0.80758 0.53133 0.8058 0.0
C402 C 0.86751 0.5491 0.82264 0.0
C403 C 0.86221 0.60613 0.84944 0.0
C404 C 0.90311 0.57708 0.82043 0.0
C405 C 0.93236 0.57203 0.82466 0.0
C406 C 0.92646 0.53869 0.83082 0.0
C407 C 0.8907 0.51016 0.83186 0.0
C408 C 0.86157 0.51537 0.82788 0.0
H409 H 0.85177 0.61827 0.86129 0.0
H410 H 0.87315 0.59148 0.85786 0.0
H411 H 0.88478 0.62843 0.84172 0.0
H412 H 0.90833 0.60302 0.8158 0.0
H413 H 0.95957 0.59443 0.82351 0.0
H414 H 0.10871 0.67438 0.18175 0.0
H415 H 0.16438 0.73313 0.1832 0.0
H416 H 0.19529 0.70204 0.12478 0.0
H417 H 0.1399 0.6432 0.12323 0.0
H418 H 0.24823 0.72761 0.1579 0.0
H419 H 0.1964 0.82131 0.14849 0.0
H420 H 0.17509 0.79015 0.1684 0.0
H421 H 0.16952 0.7735 0.14114 0.0
C422 C 0.12708 0.68022 0.16904 0.0
C423 C 0.11991 0.65406 0.1524 0.0
C424 C 0.15877 0.71389 0.16983 0.0
C425 C 0.18373 0.72205 0.15397 0.0
C426 C 0.17625 0.69632 0.13711 0.0
H427 H 0.40842 0.89901 0.15121 0.0
H428 H 0.34909 0.84682 0.14035 0.0
C429 C 0.14457 0.6627 0.13627 0.0
C430 C 0.21904 0.75609 0.15594 0.0
H431 H 0.25818 0.84775 0.16057 0.0
C432 C 0.25051 0.75392 0.15822 0.0
C433 C 0.2218 0.79027 0.15643 0.0
C434 C 0.18895 0.79411 0.1533 0.0
C435 C 0.28465 0.78503 0.16178 0.0
C436 C 0.28742 0.81929 0.16259 0.0
C437 C 0.25599 0.82147 0.15987 0.0
C438 C 0.32241 0.85296 0.1677 0.0
C439 C 0.3172 0.78086 0.16557 0.0
C440 C 0.32664 0.87462 0.18614 0.0
C441 C 0.36031 0.90458 0.19226 0.0
C442 C 0.39048 0.91348 0.18005 0.0
C443 C 0.38581 0.89269 0.16106 0.0
C444 C 0.35198 0.86276 0.15489 0.0
H445 H 0.30931 0.75298 0.16924 0.0
H446 H 0.33299 0.78696 0.15114 0.0
H447 H 0.33508 0.79985 0.17882 0.0
H448 H 0.30413 0.86764 0.19621 0.0
H449 H 0.36287 0.92011 0.20692 0.0
H450 H 0.4859 0.13254 0.5184 0.0
H451 H 0.48509 0.18912 0.51974 0.0
H452 H 0.54489 0.21786 0.46306 0.0
H453 H 0.54527 0.16128 0.46136 0.0
H454 H 0.54442 0.25635 0.5241 0.0
H455 H 0.46589 0.24081 0.45026 0.0
H456 H 0.46614 0.20325 0.46137 0.0
H457 H 0.50278 0.23298 0.44585 0.0
C458 C 0.49836 0.15064 0.50603 0.0
C459 C 0.51565 0.14239 0.48977 0.0
C460 C 0.4979 0.18296 0.50683 0.0
C461 C 0.51451 0.20748 0.49135 0.0
C462 C 0.53116 0.19898 0.4749 0.0
H463 H 0.60631 0.43791 0.50436 0.0
H464 H 0.59428 0.37597 0.49981 0.0
C465 C 0.53157 0.16669 0.47405 0.0
C466 C 0.51717 0.24325 0.49333 0.0
H467 H 0.50107 0.30087 0.46668 0.0
C468 C 0.53461 0.26594 0.51164 0.0
C469 C 0.50405 0.2556 0.47715 0.0
C470 C 0.48334 0.23175 0.45764 0.0
C471 C 0.54028 0.30105 0.51393 0.0
C472 C 0.52883 0.31404 0.49729 0.0
C473 C 0.5103 0.29099 0.47928 0.0
C474 C 0.53601 0.35157 0.49837 0.0
C475 C 0.55836 0.32386 0.53421 0.0
C476 C 0.50723 0.35839 0.49816 0.0
C477 C 0.51401 0.39381 0.5006 0.0
C478 C 0.54972 0.42298 0.50321 0.0
C479 C 0.5785 0.41605 0.50255 0.0
C480 C 0.57168 0.38067 0.50007 0.0
H481 H 0.55651 0.30708 0.54731 0.0
H482 H 0.58745 0.34238 0.53177 0.0
H483 H 0.54606 0.3404 0.53907 0.0
H484 H 0.47951 0.33627 0.49672 0.0
H485 H 0.49125 0.39823 0.50098 0.0
H486 H 0.3721 0.47694 0.81365 0.0
H487 H 0.31444 0.47605 0.81136 0.0
H488 H 0.33669 0.52953 0.87397 0.0
H489 H 0.39389 0.5301 0.87654 0.0
H490 H 0.26524 0.47327 0.86684 0.0
H491 H 0.30877 0.56716 0.8027 0.0
H492 H 0.31121 0.52696 0.79735 0.0
H493 H 0.34012 0.55994 0.81796 0.0
C494 C 0.36452 0.48814 0.82702 0.0
C495 C 0.38772 0.50382 0.84522 0.0
C496 C 0.33169 0.48784 0.82562 0.0
C497 C 0.32162 0.5033 0.84235 0.0
C498 C 0.34404 0.51761 0.86084 0.0
H499 H 0.18146 0.59113 0.85028 0.0
H500 H 0.23111 0.57878 0.84725 0.0
C501 C 0.37677 0.51794 0.86226 0.0
C502 C 0.28834 0.50569 0.84059 0.0
H503 H 0.25003 0.54641 0.81449 0.0
C504 C 0.2617 0.48898 0.85529 0.0
C505 C 0.28412 0.52664 0.82567 0.0
C506 C 0.31264 0.5465 0.81011 0.0
C507 C 0.23115 0.49304 0.85566 0.0
C508 C 0.22686 0.51389 0.8407 0.0
C509 C 0.25326 0.5302 0.82582 0.0
C510 C 0.19642 0.52109 0.84115 0.0
C511 C 0.20449 0.47619 0.87262 0.0
C512 C 0.16042 0.49282 0.83823 0.0
C513 C 0.13191 0.49977 0.84003 0.0
C514 C 0.13895 0.53518 0.84463 0.0
C515 C 0.17508 0.56355 0.84678 0.0
C516 C 0.20351 0.55655 0.84504 0.0
H517 H 0.21582 0.468 0.88561 0.0
H518 H 0.19619 0.49515 0.87946 0.0
H519 H 0.17993 0.45174 0.86559 0.0
H520 H 0.15436 0.46533 0.8348 0.0
H521 H 0.1044 0.47734 0.83815 0.0
H522 H 0.88021 0.36273 0.14903 0.0
H523 H 0.82388 0.30433 0.14699 0.0
H524 H 0.79556 0.3326 0.20721 0.0
H525 H 0.85178 0.39069 0.20952 0.0
H526 H 0.78369 0.26185 0.20291 0.0
H527 H 0.72326 0.29229 0.13467 0.0
H528 H 0.76694 0.29694 0.13095 0.0
H529 H 0.76248 0.32672 0.15012 0.0
C530 C 0.86211 0.3564 0.16191 0.0
C531 C 0.87039 0.38145 0.17939 0.0
C532 C 0.82986 0.32313 0.16065 0.0
C533 C 0.80534 0.31443 0.1768 0.0
C534 C 0.81407 0.33889 0.19453 0.0
H535 H 0.57887 0.16538 0.18348 0.0
H536 H 0.63946 0.21699 0.18035 0.0
C537 C 0.84622 0.37211 0.19581 0.0
C538 C 0.77023 0.28015 0.17524 0.0
H539 H 0.68851 0.23502 0.14772 0.0
C540 C 0.76295 0.25578 0.19076 0.0
C541 C 0.74315 0.27263 0.15949 0.0
C542 C 0.74905 0.29857 0.14293 0.0
C543 C 0.72911 0.22422 0.19111 0.0
C544 C 0.70204 0.21663 0.17533 0.0
C545 C 0.70945 0.2408 0.15967 0.0
C546 C 0.66513 0.18494 0.17566 0.0
C547 C 0.72215 0.19993 0.20882 0.0
C548 C 0.65935 0.14976 0.17353 0.0
C549 C 0.62473 0.12016 0.17535 0.0
C550 C 0.59526 0.12526 0.17923 0.0
C551 C 0.60097 0.1605 0.18056 0.0
C552 C 0.63557 0.19004 0.17875 0.0
H553 H 0.74295 0.21343 0.22202 0.0
H554 H 0.69511 0.19112 0.21513 0.0
H555 H 0.7227 0.17553 0.20268 0.0
H556 H 0.68172 0.14524 0.17077 0.0
H557 H 0.62121 0.09335 0.17413 0.0
H558 H 0.02036 0.57175 0.10478 0.0
H559 H 0.02692 0.57151 0.06653 0.0
H560 H 0.98524 0.45684 0.06286 0.0
H561 H 0.97864 0.4567 0.10114 0.0
H562 H 0.0687 0.54312 0.04265 0.0
H563 H 0.92211 0.47504 0.01872 0.0
H564 H 0.93985 0.49805 0.04457 0.0
H565 H 0.93539 0.45475 0.03831 0.0
C566 C 0.0124 0.54642 0.09585 0.0
C567 C 0.99887 0.5142 0.10599 0.0
C568 C 0.01629 0.54639 0.07403 0.0
C569 C 0.00634 0.51414 0.06195 0.0
C570 C 0.99275 0.48193 0.07195 0.0
H571 H 0.99556 0.46269 0.92672 0.0
H572 H 0.99314 0.46024 0.96508 0.0
C573 C 0.98909 0.48194 0.09381 0.0
C574 C 0.01059 0.51431 0.03889 0.0
H575 H 0.96277 0.48774 0.99148 0.0
C576 C 0.04562 0.53105 0.0314 0.0
C577 C 0.98035 0.49833 0.0244 0.0
C578 C 0.94222 0.48067 0.03178 0.0
C579 C 0.05124 0.53194 0.00964 0.0
C580 C 0.02098 0.51648 0.99508 0.0
C581 C 0.98594 0.49954 0.00266 0.0
C582 C 0.02487 0.51808 0.97193 0.0
C583 C 0.08949 0.54881 0.0025 0.0
C584 C 0.04363 0.55141 0.96303 0.0
C585 C 0.04534 0.55289 0.94111 0.0
C586 C 0.02782 0.52107 0.92765 0.0
C587 C 0.00933 0.4877 0.93663 0.0
C588 C 0.00789 0.48625 0.95855 0.0
H589 H 0.10821 0.54914 0.01492 0.0
H590 H 0.09103 0.53418 0.98789 0.0
H591 H 0.09908 0.57715 -0.00088 0.0
H592 H 0.05617 0.57636 0.97302 0.0
H593 H 0.05954 0.57904 0.93472 0.0
H594 H 0.56356 -0.00077 0.4393 0.0
H595 H 0.56489 0.00194 0.40087 0.0
H596 H 0.48854 0.03944 0.40252 0.0
H597 H 0.48703 0.03693 0.44093 0.0
H598 H 0.50332 0.96499 0.3707 0.0
H599 H 0.57429 0.11414 0.36927 0.0
H600 H 0.57508 0.09205 0.39244 0.0
H601 H 0.53577 0.09475 0.38546 0.0
C602 C 0.54712 0.00815 0.43151 0.0
C603 C 0.52525 0.01795 0.44317 0.0
C604 C 0.54791 0.00966 0.40957 0.0
C605 C 0.52719 0.02134 0.39897 0.0
C606 C 0.50515 0.0309 0.41051 0.0
H607 H 0.4863 0.0476 0.26979 0.0
H608 H 0.49117 0.04805 0.30823 0.0
C609 C 0.50417 0.02922 0.43242 0.0
C610 C 0.52782 0.0226 0.37575 0.0
H611 H 0.55042 0.07993 0.33642 0.0
C612 C 0.51382 0.99009 0.36315 0.0
C613 C 0.54146 0.05542 0.36607 0.0
C614 C 0.5578 0.09117 0.37895 0.0
C615 C 0.51221 0.9894 0.34102 0.0
C616 C 0.52578 0.02225 0.33129 0.0
C617 C 0.5401 0.05481 0.34393 0.0
C618 C 0.5244 0.02329 0.30802 0.0
C619 C 0.49491 0.95343 0.3283 0.0
C620 C 0.54219 0.00998 0.29519 0.0
C621 C 0.53929 0.00947 0.27319 0.0
C622 C 0.51887 0.02266 0.26365 0.0
C623 C 0.50216 0.03715 0.27661 0.0
C624 C 0.50492 0.03745 0.29859 0.0
H625 H 0.47772 0.93085 0.33807 0.0
H626 H 0.47803 0.95287 0.31468 0.0
H627 H 0.51641 0.94874 0.32206 0.0
H628 H 0.55809 -0.00028 0.30219 0.0
H629 H 0.55277 0.99843 0.26368 0.0
H630 H 0.47947 0.46988 0.76577 0.0
H631 H 0.48092 0.46698 0.72719 0.0
H632 H 0.57716 0.57205 0.73087 0.0
H633 H 0.57598 0.57532 0.76946 0.0
H634 H 0.51998 0.56138 0.70112 0.0
H635 H 0.55579 0.45384 0.6918 0.0
H636 H 0.51816 0.44427 0.70791 0.0
H637 H 0.56268 0.47998 0.71657 0.0
C638 C 0.50097 0.49238 0.75839 0.0
C639 C 0.52767 0.52281 0.77068 0.0
C640 C 0.50184 0.49057 0.73637 0.0
C641 C 0.52938 0.51912 0.72628 0.0
C642 C 0.55581 0.54969 0.73844 0.0
H643 H 0.59056 0.53231 0.5962 0.0
H644 H 0.58846 0.53173 0.63471 0.0
C645 C 0.55508 0.55147 0.76047 0.0
C646 C 0.5302 0.51746 0.70298 0.0
H647 H 0.54162 0.47238 0.66042 0.0
C648 C 0.52472 0.54197 0.69219 0.0
C649 C 0.53671 0.49227 0.69149 0.0
C650 C 0.54397 0.46622 0.70247 0.0
C651 C 0.52513 0.54165 0.67008 0.0
C652 C 0.53092 0.51599 0.65856 0.0
C653 C 0.53689 0.49179 0.66936 0.0
C654 C 0.53153 0.51442 0.63525 0.0
C655 C 0.51987 0.56905 0.65921 0.0
C656 C 0.49999 0.50414 0.62288 0.0
C657 C 0.50102 0.50431 0.60089 0.0
C658 C 0.53367 0.51484 0.59092 0.0
C659 C 0.56502 0.52422 0.60339 0.0
C660 C 0.56389 0.52387 0.62537 0.0
H661 H 0.52299 0.59132 0.67048 0.0
H662 H 0.53952 0.58072 0.64667 0.0
H663 H 0.49223 0.55561 0.65161 0.0
H664 H 0.47466 0.49632 0.63027 0.0
H665 H 0.47637 0.49682 0.59177 0.0
H666 H 0.47921 0.02627 0.56757 0.0
H667 H 0.4766 0.02283 0.60586 0.0
H668 H 0.56822 0.00674 0.60672 0.0
H669 H 0.57068 0.00947 0.56836 0.0
H670 H 0.5127 0.95903 0.62994 0.0
H671 H 0.54468 0.0993 0.65118 0.0
H672 H 0.50703 0.07465 0.6324 0.0
H673 H 0.5515 0.08473 0.62525 0.0
C674 C 0.49895 0.02218 0.5759 0.0
C675 C 0.52527 0.01831 0.56491 0.0
C676 C 0.49752 0.02042 0.59781 0.0
C677 C 0.52256 0.0151 0.60916 0.0
C678 C 0.54875 0.01105 0.59825 0.0
H679 H 0.56761 0.04519 0.74447 0.0
H680 H 0.5691 0.0492 0.7062 0.0
C681 C 0.55015 0.01269 0.57633 0.0
C682 C 0.52091 0.01279 0.63236 0.0
H683 H 0.52531 0.05957 0.67877 0.0
C684 C 0.51553 0.98102 0.64064 0.0
C685 C 0.52502 0.04169 0.64627 0.0
C686 C 0.53273 0.07716 0.63839 0.0
C687 C 0.51381 0.97721 0.66248 0.0
C688 C 0.51684 0.00571 0.67634 0.0
C689 C 0.52259 0.03762 0.66808 0.0
C690 C 0.51525 0.00343 0.69955 0.0
C691 C 0.50955 0.94304 0.67052 0.0
C692 C 0.48431 0.9766 0.70852 0.0
C693 C 0.48332 0.97441 0.73042 0.0
C694 C 0.51302 -0.00059 0.74372 0.0
C695 C 0.54385 0.02634 0.7347 0.0
C696 C 0.54489 0.02842 0.71282 0.0
H697 H 0.51707 0.92824 0.65862 0.0
H698 H 0.52645 0.94896 0.68527 0.0
H699 H 0.48085 0.92503 0.67406 0.0
H700 H 0.46089 0.95743 0.69859 0.0
H701 H 0.45923 0.95336 0.73698 0.0
H702 H 0.5809 0.57507 0.89784 0.0
H703 H 0.58059 0.57671 0.93643 0.0
H704 H 0.47617 0.47945 0.93242 0.0
H705 H 0.47629 0.47736 0.89383 0.0
H706 H 0.5293 0.58041 0.96214 0.0
H707 H 0.53701 0.45736 0.97318 0.0
H708 H 0.54774 0.47937 0.94877 0.0
H709 H 0.50137 0.45055 0.95487 0.0
C710 C 0.55794 0.55389 0.90514 0.0
C711 C 0.52866 0.526 0.89275 0.0
C712 C 0.55783 0.5549 0.92719 0.0
C713 C 0.5286 0.52795 0.93723 0.0
C714 C 0.49931 0.50013 0.92495 0.0
H715 H 0.46104 0.52985 0.06435 0.0
H716 H 0.46804 0.53016 0.02622 0.0
C717 C 0.49935 0.49909 0.9029 0.0
C718 C 0.52812 0.52969 0.96057 0.0
H719 H 0.52365 0.48341 0.00337 0.0
C720 C 0.52828 0.55933 0.97119 0.0
C721 C 0.52721 0.50234 0.9723 0.0
C722 C 0.52866 0.47074 0.96176 0.0
C723 C 0.5266 0.56189 0.99324 0.0
C724 C 0.5243 0.53386 0.00489 0.0
C725 C 0.52511 0.50469 0.99434 0.0
C726 C 0.52039 0.53403 0.02801 0.0
C727 C 0.52746 0.59461 0.00393 0.0
C728 C 0.54726 0.53546 0.04159 0.0
C729 C 0.54336 0.53524 0.06343 0.0
C730 C 0.51232 0.53324 0.07203 0.0
C731 C 0.48534 0.53153 0.05829 0.0
C732 C 0.48935 0.53189 0.03649 0.0
H733 H 0.53828 0.61744 0.99361 0.0
H734 H 0.49954 0.58765 0.00769 0.0
H735 H 0.54423 0.60358 0.01895 0.0
H736 H 0.57133 0.53692 0.03528 0.0
H737 H 0.56458 0.53645 0.07354 0.0
H738 H 0.981 0.46459 0.22924 0.0
H739 H 0.9861 0.46711 0.26776 0.0
H740 H 0.02871 0.58199 0.27109 0.0
H741 H 0.02309 0.57966 0.23253 0.0
H742 H 0.04715 0.50491 0.29422 0.0
H743 H 0.94773 0.54857 0.31221 0.0
H744 H 0.951 0.53176 0.28608 0.0
H745 H 0.98299 0.57736 0.29572 0.0
C746 C 0.99131 0.4904 0.23814 0.0
C747 C 0.00149 0.52192 0.22782 0.0
C748 C 0.99422 0.49177 0.26016 0.0
C749 C 0.00731 0.52463 0.27229 0.0
C750 C 0.01779 0.55622 0.26205 0.0
H751 H 0.04532 0.57873 0.40833 0.0
H752 H 0.04493 0.58141 0.3699 0.0
C753 C 0.01471 0.55486 0.24001 0.0
C754 C 0.01078 0.52579 0.29562 0.0
H755 H 0.98157 0.54637 0.34133 0.0
C756 C 0.03279 0.51393 0.30453 0.0
C757 C 0.99206 0.53766 0.30901 0.0
C758 C 0.96685 0.54926 0.30032 0.0
C759 C 0.03665 0.5137 0.32649 0.0
C760 C 0.01771 0.52528 0.33984 0.0
C761 C 0.99611 0.53761 0.33099 0.0
C762 C 0.01902 0.52369 0.36303 0.0
C763 C 0.06117 0.50134 0.33527 0.0
C764 C 0.00437 0.49031 0.37182 0.0
C765 C 0.00443 0.48863 0.39373 0.0
C766 C 0.0191 0.52035 0.40727 0.0
C767 C 0.03392 0.5538 0.39837 0.0
C768 C 0.03368 0.55541 0.37643 0.0
H769 H 0.08029 0.50173 0.32347 0.0
H770 H 0.07694 0.51859 0.34961 0.0
H771 H 0.04449 0.47327 0.33982 0.0
H772 H 0.99241 0.4655 0.36171 0.0
H773 H 0.99271 0.46242 0.40002 0.0
loop_
_geom_bond_atom_site_label_1
_geom_bond_atom_site_label_2
_geom_bond_distance
_geom_bond_site_symmetry_2
_ccdc_geom_bond_type
Zn0 O6 1.969 . S
Zn0 O7 1.965 . S
Zn0 O11 2.024 . S
Zn0 O16 1.969 . S
Zn1 O8 1.969 . S
Zn1 O14 1.969 . S
Zn1 O15 1.965 . S
Zn1 O17 2.024 . S
C2 O3 1.229 . S
C2 O11 1.058 . S
O3 C2 1.229 . S
C4 O5 1.229 . S
C4 O17 1.058 . S
O5 C4 1.229 . S
O6 Zn0 1.969 . S
O6 C9 1.267 . S
O7 Zn0 1.965 . S
O7 C18 1.260 1_455 S
O8 Zn1 1.969 . S
O8 C18 1.258 . S
C9 O6 1.267 . S
C9 O10 1.228 . S
O10 C9 1.228 . S
O11 Zn0 2.024 . S
O11 C2 1.058 . S
C12 O13 1.228 . S
C12 O14 1.267 . S
O13 C12 1.228 . S
O14 Zn1 1.969 . S
O14 C12 1.267 . S
O15 Zn1 1.965 . S
O15 C19 1.260 1_655 S
O16 Zn0 1.969 . S
O16 C19 1.258 . S
O17 Zn1 2.024 . S
O17 C4 1.058 . S
C18 O7 1.260 1_655 S
C18 O8 1.258 . S
C19 O15 1.260 1_455 S
C19 O16 1.258 . S
Zn20 O26 1.969 . S
Zn20 O27 1.965 . S
Zn20 O31 2.024 . S
Zn20 O36 1.969 . S
Zn21 O28 1.969 . S
Zn21 O34 1.969 . S
Zn21 O35 1.965 . S
Zn21 O37 2.024 . S
C22 O23 1.229 . S
C22 O31 1.058 . S
O23 C22 1.229 . S
C24 O25 1.229 . S
C24 O37 1.058 . S
O25 C24 1.229 . S
O26 Zn20 1.969 . S
O26 C29 1.267 . S
O27 Zn20 1.965 . S
O27 C38 1.260 . S
O28 Zn21 1.969 . S
O28 C38 1.258 1_565 S
C29 O26 1.267 . S
C29 O30 1.228 . S
O30 C29 1.228 . S
O31 Zn20 2.024 . S
O31 C22 1.058 . S
C32 O33 1.228 . S
C32 O34 1.267 . S
O33 C32 1.228 . S
O34 Zn21 1.969 . S
O34 C32 1.267 . S
O35 Zn21 1.965 . S
O35 C39 1.260 1_565 S
O36 Zn20 1.969 . S
O36 C39 1.258 . S
O37 Zn21 2.024 . S
O37 C24 1.058 . S
C38 O27 1.260 . S
C38 O28 1.258 1_545 S
C39 O35 1.260 1_545 S
C39 O36 1.258 . S
Zn40 O46 1.969 . S
Zn40 O47 1.965 . S
Zn40 O51 2.024 . S
Zn40 O56 1.969 . S
Zn41 O48 1.969 . S
Zn41 O54 1.969 . S
Zn41 O55 1.965 . S
Zn41 O57 2.024 . S
C42 O43 1.229 . S
C42 O51 1.058 . S
O43 C42 1.229 . S
C44 O45 1.229 . S
C44 O57 1.058 . S
O45 C44 1.229 . S
O46 Zn40 1.969 . S
O46 C49 1.267 . S
O47 Zn40 1.965 . S
O47 C58 1.260 . S
O48 Zn41 1.969 . S
O48 C58 1.258 . S
C49 O46 1.267 . S
C49 O50 1.228 . S
O50 C49 1.228 . S
O51 Zn40 2.024 . S
O51 C42 1.058 . S
C52 O53 1.228 . S
C52 O54 1.267 . S
O53 C52 1.228 . S
O54 Zn41 1.969 . S
O54 C52 1.267 . S
O55 Zn41 1.965 . S
O55 C59 1.260 . S
O56 Zn40 1.969 . S
O56 C59 1.258 . S
O57 Zn41 2.024 . S
O57 C44 1.058 . S
C58 O47 1.260 . S
C58 O48 1.258 . S
C59 O55 1.260 . S
C59 O56 1.258 . S
O60 Cd61 2.300 . S
O60 C67 1.275 . S
Cd61 O60 2.300 . S
Cd61 O69 2.381 . S
Cd61 O70 2.378 . S
O62 Cd63 2.385 1_545 S
O62 C67 1.255 . S
Cd63 O62 2.385 1_565 S
Cd63 O64 2.317 . S
O64 Cd63 2.317 . S
O64 C65 1.232 . S
C65 O64 1.232 . S
C65 O66 1.218 . S
O66 C65 1.218 . S
C67 O60 1.275 . S
C67 O62 1.255 . S
C68 O69 1.258 . S
C68 O70 1.256 . S
O69 Cd61 2.381 . S
O69 C68 1.258 . S
O70 Cd61 2.378 . S
O70 C68 1.256 . S
O71 Cd72 2.300 . S
O71 C78 1.275 . S
Cd72 O71 2.300 . S
Cd72 O80 2.381 . S
Cd72 O81 2.378 . S
O73 Cd74 2.385 . S
O73 C78 1.255 . S
Cd74 O73 2.385 . S
Cd74 O75 2.317 . S
O75 Cd74 2.317 . S
O75 C76 1.232 . S
C76 O75 1.232 . S
C76 O77 1.218 . S
O77 C76 1.218 . S
C78 O71 1.275 . S
C78 O73 1.255 . S
C79 O80 1.258 . S
C79 O81 1.256 . S
O80 Cd72 2.381 . S
O80 C79 1.258 . S
O81 Cd72 2.378 . S
O81 C79 1.256 . S
O82 Cd83 2.300 . S
O82 C89 1.275 . S
Cd83 O82 2.300 . S
Cd83 O91 2.381 . S
Cd83 O92 2.378 . S
O84 Cd85 2.385 1_455 S
O84 C89 1.255 . S
Cd85 O84 2.385 1_655 S
Cd85 O86 2.317 . S
O86 Cd85 2.317 . S
O86 C87 1.232 . S
C87 O86 1.232 . S
C87 O88 1.218 . S
O88 C87 1.218 . S
C89 O82 1.275 . S
C89 O84 1.255 . S
C90 O91 1.258 . S
C90 O92 1.256 . S
O91 Cd83 2.381 . S
O91 C90 1.258 . S
O92 Cd83 2.378 . S
O92 C90 1.256 . S
O93 Cd94 2.300 . S
O93 C100 1.275 . S
Cd94 O93 2.300 . S
Cd94 O102 2.381 . S
Cd94 O103 2.378 . S
O95 Cd96 2.385 . S
O95 C100 1.255 1_655 S
Cd96 O95 2.385 . S
Cd96 O97 2.317 . S
O97 Cd96 2.317 . S
O97 C98 1.232 . S
C98 O97 1.232 . S
C98 O99 1.218 . S
O99 C98 1.218 . S
C100 O93 1.275 . S
C100 O95 1.255 1_455 S
C101 O102 1.258 . S
C101 O103 1.256 . S
O102 Cd94 2.381 . S
O102 C101 1.258 . S
O103 Cd94 2.378 . S
O103 C101 1.256 . S
O104 Cd105 2.297 . S
O104 C111 1.275 1_565 S
Cd105 O104 2.297 . S
Cd105 O113 2.402 . S
Cd105 O114 2.394 . S
O106 Cd107 2.385 . S
O106 C111 1.255 . S
Cd107 O106 2.385 . S
Cd107 O108 2.317 . S
O108 Cd107 2.317 . S
O108 C109 1.232 . S
C109 O108 1.232 . S
C109 O110 1.218 . S
O110 C109 1.218 . S
C111 O104 1.275 1_545 S
C111 O106 1.255 . S
C112 O113 1.258 . S
C112 O114 1.256 . S
O113 Cd105 2.402 . S
O113 C112 1.258 . S
O114 Cd105 2.394 . S
O114 C112 1.256 . S
O115 Cd116 2.300 . S
O115 C122 1.275 . S
Cd116 O115 2.300 . S
Cd116 O124 2.381 . S
Cd116 O125 2.378 . S
O117 Cd118 2.385 . S
O117 C122 1.255 . S
Cd118 O117 2.385 . S
Cd118 O119 2.317 . S
O119 Cd118 2.317 . S
O119 C120 1.232 . S
C120 O119 1.232 . S
C120 O121 1.218 . S
O121 C120 1.218 . S
C122 O115 1.275 . S
C122 O117 1.255 . S
C123 O124 1.258 . S
C123 O125 1.256 . S
O124 Cd116 2.381 . S
O124 C123 1.258 . S
O125 Cd116 2.378 . S
O125 C123 1.256 . S
H126 C134 0.929 . S
H127 C136 0.930 . S
H128 C138 0.930 . S
H129 C141 0.929 . S
H130 C144 0.930 . S
H131 C146 0.960 . S
H132 C146 0.960 . S
H133 C146 0.960 . S
C134 H126 0.929 . S
C134 C135 1.377 . S
C134 C136 1.384 . S
C135 C134 1.377 . S
C135 C141 1.390 . S
C136 H127 0.930 . S
C136 C134 1.384 . S
C136 C137 1.372 . S
C137 C136 1.372 . S
C137 C138 1.400 . S
C137 C142 1.490 . S
C138 H128 0.930 . S
C138 C137 1.400 . S
C138 C141 1.386 . S
H139 C155 0.930 . S
H140 C156 0.931 . S
C141 H129 0.929 . S
C141 C135 1.390 . S
C141 C138 1.386 . S
C142 C137 1.490 . S
C142 C144 1.395 . S
C142 C145 1.403 . S
H143 C149 0.930 . S
C144 H130 0.930 . S
C144 C142 1.395 . S
C144 C147 1.403 . S
C145 C142 1.403 . S
C145 C146 1.524 . S
C145 C149 1.400 . S
C146 H131 0.960 . S
C146 H132 0.960 . S
C146 H133 0.960 . S
C146 C145 1.524 . S
C147 C144 1.403 . S
C147 C148 1.392 . S
C147 C151 1.495 . S
C148 C147 1.392 . S
C148 C149 1.385 . S
C148 C150 1.478 . S
C149 H143 0.930 . S
C149 C145 1.400 . S
C149 C148 1.385 . S
C150 C148 1.478 . S
C150 C152 1.381 . S
C150 C156 1.383 . S
C151 C147 1.495 . S
C151 H157 0.959 . S
C151 H158 0.961 . S
C151 H159 0.960 . S
C152 C150 1.381 . S
C152 C153 1.394 . S
C152 H160 0.930 . S
C153 C152 1.394 . S
C153 C154 1.383 . S
C153 H161 0.929 . S
C154 C153 1.383 . S
C154 C155 1.377 . S
C155 H139 0.930 . S
C155 C154 1.377 . S
C155 C156 1.379 . S
C156 H140 0.931 . S
C156 C150 1.383 . S
C156 C155 1.379 . S
H157 C151 0.959 . S
H158 C151 0.961 . S
H159 C151 0.960 . S
H160 C152 0.930 . S
H161 C153 0.929 . S
H162 C170 0.929 . S
H163 C172 0.930 . S
H164 C174 0.930 . S
H165 C177 0.929 . S
H166 C180 0.930 . S
H167 C182 0.960 . S
H168 C182 0.960 . S
H169 C182 0.960 . S
C170 H162 0.929 . S
C170 C171 1.377 . S
C170 C172 1.384 . S
C171 C170 1.377 . S
C171 C177 1.390 . S
C172 H163 0.930 . S
C172 C170 1.384 . S
C172 C173 1.372 . S
C173 C172 1.372 . S
C173 C174 1.400 . S
C173 C178 1.490 . S
C174 H164 0.930 . S
C174 C173 1.400 . S
C174 C177 1.386 . S
H175 C191 0.930 . S
H176 C192 0.931 . S
C177 H165 0.929 . S
C177 C171 1.390 . S
C177 C174 1.386 . S
C178 C173 1.490 . S
C178 C180 1.395 . S
C178 C181 1.403 . S
H179 C185 0.930 . S
C180 H166 0.930 . S
C180 C178 1.395 . S
C180 C183 1.403 . S
C181 C178 1.403 . S
C181 C182 1.524 . S
C181 C185 1.400 . S
C182 H167 0.960 . S
C182 H168 0.960 . S
C182 H169 0.960 . S
C182 C181 1.524 . S
C183 C180 1.403 . S
C183 C184 1.392 . S
C183 C187 1.495 . S
C184 C183 1.392 . S
C184 C185 1.385 . S
C184 C186 1.478 . S
C185 H179 0.930 . S
C185 C181 1.400 . S
C185 C184 1.385 . S
C186 C184 1.478 . S
C186 C188 1.381 . S
C186 C192 1.383 . S
C187 C183 1.495 . S
C187 H193 0.959 . S
C187 H194 0.961 . S
C187 H195 0.960 . S
C188 C186 1.381 . S
C188 C189 1.394 . S
C188 H196 0.930 . S
C189 C188 1.394 . S
C189 C190 1.383 . S
C189 H197 0.929 . S
C190 C189 1.383 . S
C190 C191 1.377 . S
C191 H175 0.930 . S
C191 C190 1.377 . S
C191 C192 1.379 . S
C192 H176 0.931 . S
C192 C186 1.383 . S
C192 C191 1.379 . S
H193 C187 0.959 . S
H194 C187 0.961 . S
H195 C187 0.960 . S
H196 C188 0.930 . S
H197 C189 0.929 . S
H198 C206 0.929 . S
H199 C208 0.930 . S
H200 C210 0.930 . S
H201 C213 0.929 . S
H202 C216 0.930 . S
H203 C218 0.960 . S
H204 C218 0.960 . S
H205 C218 0.960 . S
C206 H198 0.929 . S
C206 C207 1.377 . S
C206 C208 1.384 . S
C207 C206 1.377 . S
C207 C213 1.390 . S
C208 H199 0.930 . S
C208 C206 1.384 . S
C208 C209 1.372 . S
C209 C208 1.372 . S
C209 C210 1.400 . S
C209 C214 1.490 . S
C210 H200 0.930 . S
C210 C209 1.400 . S
C210 C213 1.386 . S
H211 C227 0.930 . S
H212 C228 0.931 . S
C213 H201 0.929 . S
C213 C207 1.390 . S
C213 C210 1.386 . S
C214 C209 1.490 . S
C214 C216 1.395 . S
C214 C217 1.403 . S
H215 C221 0.930 . S
C216 H202 0.930 . S
C216 C214 1.395 . S
C216 C219 1.403 . S
C217 C214 1.403 . S
C217 C218 1.524 . S
C217 C221 1.400 . S
C218 H203 0.960 . S
C218 H204 0.960 . S
C218 H205 0.960 . S
C218 C217 1.524 . S
C219 C216 1.403 . S
C219 C220 1.392 . S
C219 C223 1.495 . S
C220 C219 1.392 . S
C220 C221 1.385 . S
C220 C222 1.478 . S
C221 H215 0.930 . S
C221 C217 1.400 . S
C221 C220 1.385 . S
C222 C220 1.478 . S
C222 C224 1.381 . S
C222 C228 1.383 . S
C223 C219 1.495 . S
C223 H229 0.959 . S
C223 H230 0.961 . S
C223 H231 0.960 . S
C224 C222 1.381 . S
C224 C225 1.394 . S
C224 H232 0.930 . S
C225 C224 1.394 . S
C225 C226 1.383 . S
C225 H233 0.929 . S
C226 C225 1.383 . S
C226 C227 1.377 . S
C227 H211 0.930 . S
C227 C226 1.377 . S
C227 C228 1.379 . S
C228 H212 0.931 . S
C228 C222 1.383 . S
C228 C227 1.379 . S
H229 C223 0.959 . S
H230 C223 0.961 . S
H231 C223 0.960 . S
H232 C224 0.930 . S
H233 C225 0.929 . S
H234 C242 0.929 . S
H235 C244 0.930 . S
H236 C246 0.930 . S
H237 C249 0.929 . S
H238 C252 0.930 . S
H239 C254 0.960 . S
H240 C254 0.960 . S
H241 C254 0.960 . S
C242 H234 0.929 . S
C242 C243 1.377 . S
C242 C244 1.384 . S
C243 C242 1.377 . S
C243 C249 1.390 . S
C244 H235 0.930 . S
C244 C242 1.384 . S
C244 C245 1.372 . S
C245 C244 1.372 . S
C245 C246 1.400 . S
C245 C250 1.490 . S
C246 H236 0.930 . S
C246 C245 1.400 . S
C246 C249 1.386 . S
H247 C263 0.930 . S
H248 C264 0.931 . S
C249 H237 0.929 . S
C249 C243 1.390 . S
C249 C246 1.386 . S
C250 C245 1.490 . S
C250 C252 1.395 . S
C250 C253 1.403 . S
H251 C257 0.930 . S
C252 H238 0.930 . S
C252 C250 1.395 . S
C252 C255 1.403 . S
C253 C250 1.403 . S
C253 C254 1.524 . S
C253 C257 1.400 . S
C254 H239 0.960 . S
C254 H240 0.960 . S
C254 H241 0.960 . S
C254 C253 1.524 . S
C255 C252 1.403 . S
C255 C256 1.392 . S
C255 C259 1.495 . S
C256 C255 1.392 . S
C256 C257 1.385 . S
C256 C258 1.478 . S
C257 H251 0.930 . S
C257 C253 1.400 . S
C257 C256 1.385 . S
C258 C256 1.478 . S
C258 C260 1.381 . S
C258 C264 1.383 . S
C259 C255 1.495 . S
C259 H265 0.959 . S
C259 H266 0.961 . S
C259 H267 0.960 . S
C260 C258 1.381 . S
C260 C261 1.394 . S
C260 H268 0.930 . S
C261 C260 1.394 . S
C261 C262 1.383 . S
C261 H269 0.929 . S
C262 C261 1.383 . S
C262 C263 1.377 . S
C263 H247 0.930 . S
C263 C262 1.377 . S
C263 C264 1.379 . S
C264 H248 0.931 . S
C264 C258 1.383 . S
C264 C263 1.379 . S
H265 C259 0.959 . S
H266 C259 0.961 . S
H267 C259 0.960 . S
H268 C260 0.930 . S
H269 C261 0.929 . S
H270 C278 0.929 . S
H271 C280 0.930 . S
H272 C282 0.930 . S
H273 C285 0.929 . S
H274 C288 0.930 . S
H275 C290 0.960 . S
H276 C290 0.960 . S
H277 C290 0.960 . S
C278 H270 0.929 . S
C278 C279 1.377 . S
C278 C280 1.384 . S
C279 C278 1.377 . S
C279 C285 1.390 . S
C280 H271 0.930 . S
C280 C278 1.384 . S
C280 C281 1.372 . S
C281 C280 1.372 . S
C281 C282 1.400 . S
C281 C286 1.490 . S
C282 H272 0.930 . S
C282 C281 1.400 . S
C282 C285 1.386 . S
H283 C299 0.930 . S
H284 C300 0.931 . S
C285 H273 0.929 . S
C285 C279 1.390 . S
C285 C282 1.386 . S
C286 C281 1.490 . S
C286 C288 1.395 . S
C286 C289 1.403 . S
H287 C293 0.930 . S
C288 H274 0.930 . S
C288 C286 1.395 . S
C288 C291 1.403 . S
C289 C286 1.403 . S
C289 C290 1.524 . S
C289 C293 1.400 . S
C290 H275 0.960 . S
C290 H276 0.960 . S
C290 H277 0.960 . S
C290 C289 1.524 . S
C291 C288 1.403 . S
C291 C292 1.392 . S
C291 C295 1.495 . S
C292 C291 1.392 . S
C292 C293 1.385 . S
C292 C294 1.478 . S
C293 H287 0.930 . S
C293 C289 1.400 . S
C293 C292 1.385 . S
C294 C292 1.478 . S
C294 C296 1.381 . S
C294 C300 1.383 . S
C295 C291 1.495 . S
C295 H301 0.959 . S
C295 H302 0.961 . S
C295 H303 0.960 . S
C296 C294 1.381 . S
C296 C297 1.394 . S
C296 H304 0.930 . S
C297 C296 1.394 . S
C297 C298 1.383 . S
C297 H305 0.929 . S
C298 C297 1.383 . S
C298 C299 1.377 . S
C299 H283 0.930 . S
C299 C298 1.377 . S
C299 C300 1.379 . S
C300 H284 0.931 . S
C300 C294 1.383 . S
C300 C299 1.379 . S
H301 C295 0.959 . S
H302 C295 0.961 . S
H303 C295 0.960 . S
H304 C296 0.930 . S
H305 C297 0.929 . S
H306 C314 0.929 . S
H307 C316 0.930 . S
H308 C318 0.930 . S
H309 C321 0.929 . S
H310 C324 0.930 . S
H311 C326 0.960 . S
H312 C326 0.960 . S
H313 C326 0.960 . S
C314 H306 0.929 . S
C314 C315 1.377 . S
C314 C316 1.384 . S
C315 C314 1.377 . S
C315 C321 1.390 . S
C316 H307 0.930 . S
C316 C314 1.384 . S
C316 C317 1.372 . S
C317 C316 1.372 . S
C317 C318 1.400 . S
C317 C322 1.490 . S
C318 H308 0.930 . S
C318 C317 1.400 . S
C318 C321 1.386 . S
H319 C335 0.930 . S
H320 C336 0.931 . S
C321 H309 0.929 . S
C321 C315 1.390 . S
C321 C318 1.386 . S
C322 C317 1.490 . S
C322 C324 1.395 . S
C322 C325 1.403 . S
H323 C329 0.930 . S
C324 H310 0.930 . S
C324 C322 1.395 . S
C324 C327 1.403 . S
C325 C322 1.403 . S
C325 C326 1.524 . S
C325 C329 1.400 . S
C326 H311 0.960 . S
C326 H312 0.960 . S
C326 H313 0.960 . S
C326 C325 1.524 . S
C327 C324 1.403 . S
C327 C328 1.392 . S
C327 C331 1.495 . S
C328 C327 1.392 . S
C328 C329 1.385 . S
C328 C330 1.478 . S
C329 H323 0.930 . S
C329 C325 1.400 . S
C329 C328 1.385 . S
C330 C328 1.478 . S
C330 C332 1.381 . S
C330 C336 1.383 . S
C331 C327 1.495 . S
C331 H337 0.959 . S
C331 H338 0.961 . S
C331 H339 0.960 . S
C332 C330 1.381 . S
C332 C333 1.394 . S
C332 H340 0.930 . S
C333 C332 1.394 . S
C333 C334 1.383 . S
C333 H341 0.929 . S
C334 C333 1.383 . S
C334 C335 1.377 . S
C335 H319 0.930 . S
C335 C334 1.377 . S
C335 C336 1.379 . S
C336 H320 0.931 . S
C336 C330 1.383 . S
C336 C335 1.379 . S
H337 C331 0.959 . S
H338 C331 0.961 . S
H339 C331 0.960 . S
H340 C332 0.930 . S
H341 C333 0.929 . S
H342 C350 0.929 . S
H343 C352 0.930 . S
H344 C354 0.930 . S
H345 C357 0.929 . S
H346 C360 0.930 . S
H347 C362 0.960 . S
H348 C362 0.960 . S
H349 C362 0.960 . S
C350 H342 0.929 . S
C350 C351 1.377 . S
C350 C352 1.384 . S
C351 C350 1.377 . S
C351 C357 1.390 . S
C352 H343 0.930 . S
C352 C350 1.384 . S
C352 C353 1.372 . S
C353 C352 1.372 . S
C353 C354 1.400 . S
C353 C358 1.490 . S
C354 H344 0.930 . S
C354 C353 1.400 . S
C354 C357 1.386 . S
H355 C371 0.930 . S
H356 C372 0.931 . S
C357 H345 0.929 . S
C357 C351 1.390 . S
C357 C354 1.386 . S
C358 C353 1.490 . S
C358 C360 1.395 . S
C358 C361 1.403 . S
H359 C365 0.930 . S
C360 H346 0.930 . S
C360 C358 1.395 . S
C360 C363 1.403 . S
C361 C358 1.403 . S
C361 C362 1.524 . S
C361 C365 1.400 . S
C362 H347 0.960 . S
C362 H348 0.960 . S
C362 H349 0.960 . S
C362 C361 1.524 . S
C363 C360 1.403 . S
C363 C364 1.392 . S
C363 C367 1.495 . S
C364 C363 1.392 . S
C364 C365 1.385 . S
C364 C366 1.478 . S
C365 H359 0.930 . S
C365 C361 1.400 . S
C365 C364 1.385 . S
C366 C364 1.478 . S
C366 C368 1.381 . S
C366 C372 1.383 . S
C367 C363 1.495 . S
C367 H373 0.959 . S
C367 H374 0.961 . S
C367 H375 0.960 . S
C368 C366 1.381 . S
C368 C369 1.394 . S
C368 H376 0.930 . S
C369 C368 1.394 . S
C369 C370 1.383 . S
C369 H377 0.929 . S
C370 C369 1.383 . S
C370 C371 1.377 . S
C371 H355 0.930 . S
C371 C370 1.377 . S
C371 C372 1.379 . S
C372 H356 0.931 . S
C372 C366 1.383 . S
C372 C371 1.379 . S
H373 C367 0.959 . S
H374 C367 0.961 . S
H375 C367 0.960 . S
H376 C368 0.930 . S
H377 C369 0.929 . S
H378 C386 0.929 . S
H379 C388 0.930 . S
H380 C390 0.930 . S
H381 C393 0.929 . S
H382 C396 0.930 . S
H383 C398 0.960 . S
H384 C398 0.960 . S
H385 C398 0.960 . S
C386 H378 0.929 . S
C386 C387 1.377 . S
C386 C388 1.384 . S
C387 C386 1.377 . S
C387 C393 1.390 . S
C388 H379 0.930 . S
C388 C386 1.384 . S
C388 C389 1.372 . S
C389 C388 1.372 . S
C389 C390 1.400 . S
C389 C394 1.490 . S
C390 H380 0.930 . S
C390 C389 1.400 . S
C390 C393 1.386 . S
H391 C407 0.930 . S
H392 C408 0.931 . S
C393 H381 0.929 . S
C393 C387 1.390 . S
C393 C390 1.386 . S
C394 C389 1.490 . S
C394 C396 1.395 . S
C394 C397 1.403 . S
H395 C401 0.930 . S
C396 H382 0.930 . S
C396 C394 1.395 . S
C396 C399 1.403 . S
C397 C394 1.403 . S
C397 C398 1.524 . S
C397 C401 1.400 . S
C398 H383 0.960 . S
C398 H384 0.960 . S
C398 H385 0.960 . S
C398 C397 1.524 . S
C399 C396 1.403 . S
C399 C400 1.392 . S
C399 C403 1.495 . S
C400 C399 1.392 . S
C400 C401 1.385 . S
C400 C402 1.478 . S
C401 H395 0.930 . S
C401 C397 1.400 . S
C401 C400 1.385 . S
C402 C400 1.478 . S
C402 C404 1.381 . S
C402 C408 1.383 . S
C403 C399 1.495 . S
C403 H409 0.959 . S
C403 H410 0.961 . S
C403 H411 0.960 . S
C404 C402 1.381 . S
C404 C405 1.394 . S
C404 H412 0.930 . S
C405 C404 1.394 . S
C405 C406 1.383 . S
C405 H413 0.929 . S
C406 C405 1.383 . S
C406 C407 1.377 . S
C407 H391 0.930 . S
C407 C406 1.377 . S
C407 C408 1.379 . S
C408 H392 0.931 . S
C408 C402 1.383 . S
C408 C407 1.379 . S
H409 C403 0.959 . S
H410 C403 0.961 . S
H411 C403 0.960 . S
H412 C404 0.930 . S
H413 C405 0.929 . S
H414 C422 0.929 . S
H415 C424 0.930 . S
H416 C426 0.930 . S
H417 C429 0.929 . S
H418 C432 0.930 . S
H419 C434 0.960 . S
H420 C434 0.960 . S
H421 C434 0.960 . S
C422 H414 0.929 . S
C422 C423 1.377 . S
C422 C424 1.384 . S
C423 C422 1.377 . S
C423 C429 1.390 . S
C424 H415 0.930 . S
C424 C422 1.384 . S
C424 C425 1.372 . S
C425 C424 1.372 . S
C425 C426 1.400 . S
C425 C430 1.490 . S
C426 H416 0.930 . S
C426 C425 1.400 . S
C426 C429 1.386 . S
H427 C443 0.930 . S
H428 C444 0.931 . S
C429 H417 0.929 . S
C429 C423 1.390 . S
C429 C426 1.386 . S
C430 C425 1.490 . S
C430 C432 1.395 . S
C430 C433 1.403 . S
H431 C437 0.930 . S
C432 H418 0.930 . S
C432 C430 1.395 . S
C432 C435 1.403 . S
C433 C430 1.403 . S
C433 C434 1.524 . S
C433 C437 1.400 . S
C434 H419 0.960 . S
C434 H420 0.960 . S
C434 H421 0.960 . S
C434 C433 1.524 . S
C435 C432 1.403 . S
C435 C436 1.392 . S
C435 C439 1.495 . S
C436 C435 1.392 . S
C436 C437 1.385 . S
C436 C438 1.478 . S
C437 H431 0.930 . S
C437 C433 1.400 . S
C437 C436 1.385 . S
C438 C436 1.478 . S
C438 C440 1.381 . S
C438 C444 1.383 . S
C439 C435 1.495 . S
C439 H445 0.959 . S
C439 H446 0.961 . S
C439 H447 0.960 . S
C440 C438 1.381 . S
C440 C441 1.394 . S
C440 H448 0.930 . S
C441 C440 1.394 . S
C441 C442 1.383 . S
C441 H449 0.929 . S
C442 C441 1.383 . S
C442 C443 1.377 . S
C443 H427 0.930 . S
C443 C442 1.377 . S
C443 C444 1.379 . S
C444 H428 0.931 . S
C444 C438 1.383 . S
C444 C443 1.379 . S
H445 C439 0.959 . S
H446 C439 0.961 . S
H447 C439 0.960 . S
H448 C440 0.930 . S
H449 C441 0.929 . S
H450 C458 0.929 . S
H451 C460 0.930 . S
H452 C462 0.930 . S
H453 C465 0.929 . S
H454 C468 0.930 . S
H455 C470 0.960 . S
H456 C470 0.960 . S
H457 C470 0.960 . S
C458 H450 0.929 . S
C458 C459 1.377 . S
C458 C460 1.384 . S
C459 C458 1.377 . S
C459 C465 1.390 . S
C460 H451 0.930 . S
C460 C458 1.384 . S
C460 C461 1.372 . S
C461 C460 1.372 . S
C461 C462 1.400 . S
C461 C466 1.490 . S
C462 H452 0.930 . S
C462 C461 1.400 . S
C462 C465 1.386 . S
H463 C479 0.930 . S
H464 C480 0.931 . S
C465 H453 0.929 . S
C465 C459 1.390 . S
C465 C462 1.386 . S
C466 C461 1.490 . S
C466 C468 1.395 . S
C466 C469 1.403 . S
H467 C473 0.930 . S
C468 H454 0.930 . S
C468 C466 1.395 . S
C468 C471 1.403 . S
C469 C466 1.403 . S
C469 C470 1.524 . S
C469 C473 1.400 . S
C470 H455 0.960 . S
C470 H456 0.960 . S
C470 H457 0.960 . S
C470 C469 1.524 . S
C471 C468 1.403 . S
C471 C472 1.392 . S
C471 C475 1.495 . S
C472 C471 1.392 . S
C472 C473 1.385 . S
C472 C474 1.478 . S
C473 H467 0.930 . S
C473 C469 1.400 . S
C473 C472 1.385 . S
C474 C472 1.478 . S
C474 C476 1.381 . S
C474 C480 1.383 . S
C475 C471 1.495 . S
C475 H481 0.959 . S
C475 H482 0.961 . S
C475 H483 0.960 . S
C476 C474 1.381 . S
C476 C477 1.394 . S
C476 H484 0.930 . S
C477 C476 1.394 . S
C477 C478 1.383 . S
C477 H485 0.929 . S
C478 C477 1.383 . S
C478 C479 1.377 . S
C479 H463 0.930 . S
C479 C478 1.377 . S
C479 C480 1.379 . S
C480 H464 0.931 . S
C480 C474 1.383 . S
C480 C479 1.379 . S
H481 C475 0.959 . S
H482 C475 0.961 . S
H483 C475 0.960 . S
H484 C476 0.930 . S
H485 C477 0.929 . S
H486 C494 0.929 . S
H487 C496 0.930 . S
H488 C498 0.930 . S
H489 C501 0.929 . S
H490 C504 0.930 . S
H491 C506 0.960 . S
H492 C506 0.960 . S
H493 C506 0.960 . S
C494 H486 0.929 . S
C494 C495 1.377 . S
C494 C496 1.384 . S
C495 C494 1.377 . S
C495 C501 1.390 . S
C496 H487 0.930 . S
C496 C494 1.384 . S
C496 C497 1.372 . S
C497 C496 1.372 . S
C497 C498 1.400 . S
C497 C502 1.490 . S
C498 H488 0.930 . S
C498 C497 1.400 . S
C498 C501 1.386 . S
H499 C515 0.930 . S
H500 C516 0.931 . S
C501 H489 0.929 . S
C501 C495 1.390 . S
C501 C498 1.386 . S
C502 C497 1.490 . S
C502 C504 1.395 . S
C502 C505 1.403 . S
H503 C509 0.930 . S
C504 H490 0.930 . S
C504 C502 1.395 . S
C504 C507 1.403 . S
C505 C502 1.403 . S
C505 C506 1.524 . S
C505 C509 1.400 . S
C506 H491 0.960 . S
C506 H492 0.960 . S
C506 H493 0.960 . S
C506 C505 1.524 . S
C507 C504 1.403 . S
C507 C508 1.392 . S
C507 C511 1.495 . S
C508 C507 1.392 . S
C508 C509 1.385 . S
C508 C510 1.478 . S
C509 H503 0.930 . S
C509 C505 1.400 . S
C509 C508 1.385 . S
C510 C508 1.478 . S
C510 C512 1.381 . S
C510 C516 1.383 . S
C511 C507 1.495 . S
C511 H517 0.959 . S
C511 H518 0.961 . S
C511 H519 0.960 . S
C512 C510 1.381 . S
C512 C513 1.394 . S
C512 H520 0.930 . S
C513 C512 1.394 . S
C513 C514 1.383 . S
C513 H521 0.929 . S
C514 C513 1.383 . S
C514 C515 1.377 . S
C515 H499 0.930 . S
C515 C514 1.377 . S
C515 C516 1.379 . S
C516 H500 0.931 . S
C516 C510 1.383 . S
C516 C515 1.379 . S
H517 C511 0.959 . S
H518 C511 0.961 . S
H519 C511 0.960 . S
H520 C512 0.930 . S
H521 C513 0.929 . S
H522 C530 0.929 . S
H523 C532 0.930 . S
H524 C534 0.930 . S
H525 C537 0.929 . S
H526 C540 0.930 . S
H527 C542 0.960 . S
H528 C542 0.960 . S
H529 C542 0.960 . S
C530 H522 0.929 . S
C530 C531 1.377 . S
C530 C532 1.384 . S
C531 C530 1.377 . S
C531 C537 1.390 . S
C532 H523 0.930 . S
C532 C530 1.384 . S
C532 C533 1.372 . S
C533 C532 1.372 . S
C533 C534 1.400 . S
C533 C538 1.490 . S
C534 H524 0.930 . S
C534 C533 1.400 . S
C534 C537 1.386 . S
H535 C551 0.930 . S
H536 C552 0.931 . S
C537 H525 0.929 . S
C537 C531 1.390 . S
C537 C534 1.386 . S
C538 C533 1.490 . S
C538 C540 1.395 . S
C538 C541 1.403 . S
H539 C545 0.930 . S
C540 H526 0.930 . S
C540 C538 1.395 . S
C540 C543 1.403 . S
C541 C538 1.403 . S
C541 C542 1.524 . S
C541 C545 1.400 . S
C542 H527 0.960 . S
C542 H528 0.960 . S
C542 H529 0.960 . S
C542 C541 1.524 . S
C543 C540 1.403 . S
C543 C544 1.392 . S
C543 C547 1.495 . S
C544 C543 1.392 . S
C544 C545 1.385 . S
C544 C546 1.478 . S
C545 H539 0.930 . S
C545 C541 1.400 . S
C545 C544 1.385 . S
C546 C544 1.478 . S
C546 C548 1.381 . S
C546 C552 1.383 . S
C547 C543 1.495 . S
C547 H553 0.959 . S
C547 H554 0.961 . S
C547 H555 0.960 . S
C548 C546 1.381 . S
C548 C549 1.394 . S
C548 H556 0.930 . S
C549 C548 1.394 . S
C549 C550 1.383 . S
C549 H557 0.929 . S
C550 C549 1.383 . S
C550 C551 1.377 . S
C551 H535 0.930 . S
C551 C550 1.377 . S
C551 C552 1.379 . S
C552 H536 0.931 . S
C552 C546 1.383 . S
C552 C551 1.379 . S
H553 C547 0.959 . S
H554 C547 0.961 . S
H555 C547 0.960 . S
H556 C548 0.930 . S
H557 C549 0.929 . S
H558 C566 0.929 . S
H559 C568 0.930 . S
H560 C570 0.930 . S
H561 C573 0.929 . S
H562 C576 0.930 . S
H563 C578 0.960 . S
H564 C578 0.960 . S
H565 C578 0.960 . S
C566 H558 0.929 . S
C566 C567 1.377 . S
C566 C568 1.384 . S
C567 C566 1.377 . S
C567 C573 1.390 1_455 S
C568 H559 0.930 . S
C568 C566 1.384 . S
C568 C569 1.372 . S
C569 C568 1.372 . S
C569 C570 1.400 1_455 S
C569 C574 1.490 . S
C570 H560 0.930 . S
C570 C569 1.400 1_655 S
C570 C573 1.386 . S
H571 C587 0.930 1_655 S
H572 C588 0.931 1_655 S
C573 H561 0.929 . S
C573 C567 1.390 1_655 S
C573 C570 1.386 . S
C574 C569 1.490 . S
C574 C576 1.395 . S
C574 C577 1.403 1_455 S
H575 C581 0.916 1_556 S
C576 H562 0.930 . S
C576 C574 1.395 . S
C576 C579 1.403 . S
C577 C574 1.403 1_655 S
C577 C578 1.524 . S
C577 C581 1.400 . S
C578 H563 0.960 . S
C578 H564 0.960 . S
C578 H565 0.960 . S
C578 C577 1.524 . S
C579 C576 1.403 . S
C579 C580 1.403 . S
C579 C583 1.495 . S
C580 C579 1.403 . S
C580 C581 1.393 1_455 S
C580 C582 1.460 1_554 S
C581 H575 0.916 1_554 S
C581 C577 1.400 . S
C581 C580 1.393 1_655 S
C582 C580 1.460 1_556 S
C582 C584 1.381 . S
C582 C588 1.383 . S
C583 C579 1.495 . S
C583 H589 0.959 . S
C583 H590 0.961 1_554 S
C583 H591 0.960 1_554 S
C584 C582 1.381 . S
C584 C585 1.394 . S
C584 H592 0.930 . S
C585 C584 1.394 . S
C585 C586 1.383 . S
C585 H593 0.929 . S
C586 C585 1.383 . S
C586 C587 1.377 . S
C587 H571 0.930 1_455 S
C587 C586 1.377 . S
C587 C588 1.379 . S
C588 H572 0.931 1_455 S
C588 C582 1.383 . S
C588 C587 1.379 . S
H589 C583 0.959 . S
H590 C583 0.961 1_556 S
H591 C583 0.960 1_556 S
H592 C584 0.930 . S
H593 C585 0.929 . S
H594 C602 0.929 . S
H595 C604 0.930 . S
H596 C606 0.930 . S
H597 C609 0.929 . S
H598 C612 0.930 . S
H599 C614 0.960 . S
H600 C614 0.960 . S
H601 C614 0.960 . S
C602 H594 0.929 . S
C602 C603 1.377 1_565 S
C602 C604 1.384 . S
C603 C602 1.377 1_545 S
C603 C609 1.390 . S
C604 H595 0.930 . S
C604 C602 1.384 . S
C604 C605 1.372 1_565 S
C605 C604 1.372 1_545 S
C605 C606 1.400 . S
C605 C610 1.490 . S
C606 H596 0.930 . S
C606 C605 1.400 . S
C606 C609 1.386 . S
H607 C623 0.930 . S
H608 C624 0.931 . S
C609 H597 0.929 . S
C609 C603 1.390 . S
C609 C606 1.386 . S
C610 C605 1.490 . S
C610 C612 1.395 1_545 S
C610 C613 1.403 . S
H611 C617 0.930 . S
C612 H598 0.930 . S
C612 C610 1.395 1_565 S
C612 C615 1.403 . S
C613 C610 1.403 . S
C613 C614 1.524 . S
C613 C617 1.400 . S
C614 H599 0.960 . S
C614 H600 0.960 . S
C614 H601 0.960 . S
C614 C613 1.524 . S
C615 C612 1.403 . S
C615 C616 1.392 1_565 S
C615 C619 1.495 . S
C616 C615 1.392 1_545 S
C616 C617 1.385 . S
C616 C618 1.478 . S
C617 H611 0.930 . S
C617 C613 1.400 . S
C617 C616 1.385 . S
C618 C616 1.478 . S
C618 C620 1.381 1_545 S
C618 C624 1.383 . S
C619 C615 1.495 . S
C619 H625 0.959 . S
C619 H626 0.961 . S
C619 H627 0.960 . S
C620 C618 1.381 1_565 S
C620 C621 1.399 . S
C620 H628 0.930 . S
C621 C620 1.399 . S
C621 C622 1.361 1_565 S
C621 H629 0.947 . S
C622 C621 1.361 1_545 S
C622 C623 1.377 . S
C623 H607 0.930 . S
C623 C622 1.377 . S
C623 C624 1.379 . S
C624 H608 0.931 . S
C624 C618 1.383 . S
C624 C623 1.379 . S
H625 C619 0.959 . S
H626 C619 0.961 . S
H627 C619 0.960 . S
H628 C620 0.930 . S
H629 C621 0.947 . S
H630 C638 0.929 . S
H631 C640 0.930 . S
H632 C642 0.930 . S
H633 C645 0.929 . S
H634 C648 0.930 . S
H635 C650 0.960 . S
H636 C650 0.960 . S
H637 C650 0.960 . S
C638 H630 0.929 . S
C638 C639 1.377 . S
C638 C640 1.384 . S
C639 C638 1.377 . S
C639 C645 1.390 . S
C640 H631 0.930 . S
C640 C638 1.384 . S
C640 C641 1.372 . S
C641 C640 1.372 . S
C641 C642 1.400 . S
C641 C646 1.490 . S
C642 H632 0.930 . S
C642 C641 1.400 . S
C642 C645 1.386 . S
H643 C659 0.930 . S
H644 C660 0.931 . S
C645 H633 0.929 . S
C645 C639 1.390 . S
C645 C642 1.386 . S
C646 C641 1.490 . S
C646 C648 1.395 . S
C646 C649 1.403 . S
H647 C653 0.930 . S
C648 H634 0.930 . S
C648 C646 1.395 . S
C648 C651 1.403 . S
C649 C646 1.403 . S
C649 C650 1.524 . S
C649 C653 1.400 . S
C650 H635 0.960 . S
C650 H636 0.960 . S
C650 H637 0.960 . S
C650 C649 1.524 . S
C651 C648 1.403 . S
C651 C652 1.392 . S
C651 C655 1.495 . S
C652 C651 1.392 . S
C652 C653 1.385 . S
C652 C654 1.478 . S
C653 H647 0.930 . S
C653 C649 1.400 . S
C653 C652 1.385 . S
C654 C652 1.478 . S
C654 C656 1.381 . S
C654 C660 1.383 . S
C655 C651 1.495 . S
C655 H661 0.959 . S
C655 H662 0.961 . S
C655 H663 0.960 . S
C656 C654 1.381 . S
C656 C657 1.394 . S
C656 H664 0.930 . S
C657 C656 1.394 . S
C657 C658 1.383 . S
C657 H665 0.929 . S
C658 C657 1.383 . S
C658 C659 1.377 . S
C659 H643 0.930 . S
C659 C658 1.377 . S
C659 C660 1.379 . S
C660 H644 0.931 . S
C660 C654 1.383 . S
C660 C659 1.379 . S
H661 C655 0.959 . S
H662 C655 0.961 . S
H663 C655 0.960 . S
H664 C656 0.930 . S
H665 C657 0.929 . S
H666 C674 0.930 1_565 S
H667 C676 0.923 . S
H668 C678 0.930 . S
H669 C681 0.929 . S
H670 C684 0.930 . S
H671 C686 0.960 . S
H672 C686 0.960 . S
H673 C686 0.960 . S
C674 H666 0.930 1_545 S
C674 C675 1.377 . S
C674 C676 1.384 . S
C675 C674 1.377 . S
C675 C681 1.390 . S
C676 H667 0.923 . S
C676 C674 1.384 . S
C676 C677 1.372 . S
C677 C676 1.372 . S
C677 C678 1.400 . S
C677 C682 1.490 . S
C678 H668 0.930 . S
C678 C677 1.400 . S
C678 C681 1.386 . S
H679 C695 0.930 . S
H680 C696 0.931 . S
C681 H669 0.929 . S
C681 C675 1.390 . S
C681 C678 1.386 . S
C682 C677 1.490 . S
C682 C684 1.395 1_545 S
C682 C685 1.403 . S
H683 C689 0.930 . S
C684 H670 0.930 . S
C684 C682 1.395 1_565 S
C684 C687 1.403 . S
C685 C682 1.403 . S
C685 C686 1.524 . S
C685 C689 1.400 . S
C686 H671 0.960 . S
C686 H672 0.960 . S
C686 H673 0.960 . S
C686 C685 1.524 . S
C687 C684 1.403 . S
C687 C688 1.392 1_565 S
C687 C691 1.495 . S
C688 C687 1.392 1_545 S
C688 C689 1.385 . S
C688 C690 1.478 . S
C689 H683 0.930 . S
C689 C685 1.400 . S
C689 C688 1.385 . S
C690 C688 1.478 . S
C690 C692 1.381 . S
C690 C696 1.383 . S
C691 C687 1.495 . S
C691 H697 0.959 . S
C691 H698 0.961 . S
C691 H699 0.960 . S
C692 C690 1.381 . S
C692 C693 1.394 . S
C692 H700 0.930 . S
C693 C692 1.394 . S
C693 C694 1.383 . S
C693 H701 0.929 . S
C694 C693 1.383 . S
C694 C695 1.377 . S
C695 H679 0.930 . S
C695 C694 1.377 . S
C695 C696 1.379 . S
C696 H680 0.931 . S
C696 C690 1.383 . S
C696 C695 1.379 . S
H697 C691 0.959 . S
H698 C691 0.961 . S
H699 C691 0.960 . S
H700 C692 0.930 . S
H701 C693 0.929 . S
H702 C710 0.929 . S
H703 C712 0.930 . S
H704 C714 0.930 . S
H705 C717 0.929 . S
H706 C720 0.930 . S
H707 C722 0.960 . S
H708 C722 0.960 . S
H709 C722 0.960 . S
C710 H702 0.929 . S
C710 C711 1.377 . S
C710 C712 1.384 . S
C711 C710 1.377 . S
C711 C717 1.390 . S
C712 H703 0.930 . S
C712 C710 1.384 . S
C712 C713 1.372 . S
C713 C712 1.372 . S
C713 C714 1.400 . S
C713 C718 1.490 . S
C714 H704 0.930 . S
C714 C713 1.400 . S
C714 C717 1.386 . S
H715 C731 0.930 . S
H716 C732 0.931 . S
C717 H705 0.929 . S
C717 C711 1.390 . S
C717 C714 1.386 . S
C718 C713 1.490 . S
C718 C720 1.395 . S
C718 C721 1.403 . S
H719 C725 0.930 . S
C720 H706 0.930 . S
C720 C718 1.395 . S
C720 C723 1.403 . S
C721 C718 1.403 . S
C721 C722 1.524 . S
C721 C725 1.400 . S
C722 H707 0.960 . S
C722 H708 0.960 . S
C722 H709 0.960 . S
C722 C721 1.524 . S
C723 C720 1.403 . S
C723 C724 1.395 1_556 S
C723 C727 1.495 1_556 S
C724 C723 1.395 1_554 S
C724 C725 1.388 1_554 S
C724 C726 1.473 . S
C725 H719 0.930 . S
C725 C721 1.400 . S
C725 C724 1.388 1_556 S
C726 C724 1.473 . S
C726 C728 1.381 . S
C726 C732 1.383 . S
C727 C723 1.495 1_554 S
C727 H733 0.959 1_554 S
C727 H734 0.961 . S
C727 H735 0.960 . S
C728 C726 1.381 . S
C728 C729 1.394 . S
C728 H736 0.930 . S
C729 C728 1.394 . S
C729 C730 1.383 . S
C729 H737 0.929 . S
C730 C729 1.383 . S
C730 C731 1.377 . S
C731 H715 0.930 . S
C731 C730 1.377 . S
C731 C732 1.379 . S
C732 H716 0.931 . S
C732 C726 1.383 . S
C732 C731 1.379 . S
H733 C727 0.959 1_556 S
H734 C727 0.961 . S
H735 C727 0.960 . S
H736 C728 0.930 . S
H737 C729 0.929 . S
H738 C746 0.929 . S
H739 C748 0.930 . S
H740 C750 0.930 . S
H741 C753 0.929 . S
H742 C756 0.930 . S
H743 C758 0.960 . S
H744 C758 0.960 . S
H745 C758 0.960 . S
C746 H738 0.929 . S
C746 C747 1.377 . S
C746 C748 1.384 . S
C747 C746 1.377 . S
C747 C753 1.390 1_655 S
C748 H739 0.930 . S
C748 C746 1.384 . S
C748 C749 1.372 . S
C749 C748 1.372 . S
C749 C750 1.400 1_655 S
C749 C754 1.490 . S
C750 H740 0.930 . S
C750 C749 1.400 1_455 S
C750 C753 1.386 . S
H751 C767 0.930 . S
H752 C768 0.931 . S
C753 H741 0.929 . S
C753 C747 1.390 1_455 S
C753 C750 1.386 . S
C754 C749 1.490 . S
C754 C756 1.395 . S
C754 C757 1.403 1_655 S
H755 C761 0.930 . S
C756 H742 0.930 . S
C756 C754 1.395 . S
C756 C759 1.403 . S
C757 C754 1.403 1_455 S
C757 C758 1.524 . S
C757 C761 1.400 . S
C758 H743 0.960 . S
C758 H744 0.960 . S
C758 H745 0.960 . S
C758 C757 1.524 . S
C759 C756 1.403 . S
C759 C760 1.392 . S
C759 C763 1.495 . S
C760 C759 1.392 . S
C760 C761 1.385 1_655 S
C760 C762 1.479 . S
C761 H755 0.930 . S
C761 C757 1.400 . S
C761 C760 1.385 1_455 S
C762 C760 1.479 . S
C762 C764 1.403 . S
C762 C768 1.360 1_655 S
C763 C759 1.495 . S
C763 H769 0.959 . S
C763 H770 0.961 . S
C763 H771 0.960 . S
C764 C762 1.403 . S
C764 C765 1.394 . S
C764 H772 0.930 . S
C765 C764 1.394 . S
C765 C766 1.383 1_655 S
C765 H773 0.929 . S
C766 C765 1.383 1_455 S
C766 C767 1.377 . S
C767 H751 0.930 . S
C767 C766 1.377 . S
C767 C768 1.379 . S
C768 H752 0.931 . S
C768 C762 1.360 1_455 S
C768 C767 1.379 . S
H769 C763 0.959 . S
H770 C763 0.961 . S
H771 C763 0.960 . S
H772 C764 0.930 . S
H773 C765 0.929 . S
C135 C2 1.502 . S
C154 C120 1.327 . S
C171 C22 1.489 . S
C190 C98 1.392 . S
C207 C44 1.187 . S
C226 C112 1.261 . S
C243 C4 1.356 . S
C262 C123 1.373 . S
C298 C101 1.407 . S
C279 C24 1.354 . S
C334 C109 1.513 . S
C315 C42 1.624 . S
C351 C32 1.486 . S
C370 C76 1.213 . S
C387 C49 1.378 . S
C406 C87 1.209 . S
C423 C9 1.375 . S
C442 C65 1.144 . S
C478 C79 0.970 . S
C459 C29 1.005 . S
C514 C90 1.091 . S
C495 C52 1.087 . S
C531 C12 1.088 . S
C550 C68 1.060 . S
C586 C89 1.398 . S
C567 C18 1.463 1_455 S
C603 C38 1.466 . S
C622 C67 1.436 . S
C639 C58 1.480 . S
C658 C78 1.450 . S
C694 C111 1.451 . S
C675 C39 1.504 . S
C730 C122 1.439 . S
C711 C59 1.511 . S
C747 C19 1.520 1_655 S
C766 C100 1.496 . S
