# Generated by pormake.
# Topology pth, (4,4)-cn, num edge types: 1
# Building blocks:
#     Node 0, Type 0, BuildingBlock: GALJAG_clean_sbu_0, # of connection points: 4
#     Node 1, Type 0, BuildingBlock: GALJAG_clean_sbu_0, # of connection points: 4
#     Node 2, Type 0, BuildingBlock: GALJAG_clean_sbu_0, # of connection points: 4
#     Node 3, Type 1, BuildingBlock: KOZSID_clean_sbu_0, # of connection points: 4
#     Node 4, Type 1, BuildingBlock: KOZSID_clean_sbu_0, # of connection points: 4
#     Node 5, Type 1, BuildingBlock: KOZSID_clean_sbu_0, # of connection points: 4
#     Edge 6, Type (0, 1), BuildingBlock: FUNLAD_clean_linker_1, # of connection points: 2
#     Edge 7, Type (0, 1), BuildingBlock: FUNLAD_clean_linker_1, # of connection points: 2
#     Edge 8, Type (0, 1), BuildingBlock: FUNLAD_clean_linker_1, # of connection points: 2
#     Edge 9, Type (0, 1), BuildingBlock: FUNLAD_clean_linker_1, # of connection points: 2
#     Edge 10, Type (0, 1), BuildingBlock: FUNLAD_clean_linker_1, # of connection points: 2
#     Edge 11, Type (0, 1), BuildingBlock: FUNLAD_clean_linker_1, # of connection points: 2
#     Edge 12, Type (0, 1), BuildingBlock: FUNLAD_clean_linker_1, # of connection points: 2
#     Edge 13, Type (0, 1), BuildingBlock: FUNLAD_clean_linker_1, # of connection points: 2
#     Edge 14, Type (0, 1), BuildingBlock: FUNLAD_clean_linker_1, # of connection points: 2
#     Edge 15, Type (0, 1), BuildingBlock: FUNLAD_clean_linker_1, # of connection points: 2
#     Edge 16, Type (0, 1), BuildingBlock: FUNLAD_clean_linker_1, # of connection points: 2
#     Edge 17, Type (0, 1), BuildingBlock: FUNLAD_clean_linker_1, # of connection points: 2
# Relax obj value: 0.002
# Max RMSD: 0.043
# Mean RMSD: 0.025
data_MOF--net-pth--node1-GALJAG_clean_sbu_0--node2-KOZSID_clean_sbu_0--edge1-FUNLAD_clean_linker_1
_symmetry_space_group_name_H-M    P1
_symmetry_Int_Tables_number       1
_symmetry_cell_setting            triclinic
loop_
_symmetry_equiv_pos_as_xyz
'x, y, z'
_cell_length_a     27.945119
_cell_length_b     28.021359
_cell_length_c     60.795801
_cell_angle_alpha  87.676078
_cell_angle_beta   87.616087
_cell_angle_gamma 119.93321
loop_
_atom_site_label
_atom_site_type_symbol
_atom_site_fract_x
_atom_site_fract_y
_atom_site_fract_z
_atom_type_partial_charge
In0 In 0.08148 0.04648 0.04538 0.0
O1 O 0.04595 0.09753 0.06042 0.0
O2 O 0.11846 0.10438 0.07316 0.0
C3 C 0.99466 0.98008 0.02167 0.0
C4 C 0.16421 0.11837 0.01551 0.0
C5 C 0.0896 0.96985 0.07141 0.0
O6 O 0.99007 0.00533 0.03757 0.0
O7 O 0.04297 0.98861 0.01745 0.0
O8 O 0.12556 1.00001 0.05625 0.0
O9 O 0.04922 0.97804 0.07364 0.0
C10 C 0.08287 0.11945 0.0739 0.0
O11 O 0.16692 0.08166 0.02714 0.0
O12 O 0.11938 0.11862 0.01854 0.0
In13 In 0.04483 0.06524 0.37559 0.0
O14 O 0.10092 0.15814 0.36552 0.0
O15 O 0.03277 0.11188 0.34651 0.0
C16 C 0.1175 0.06467 0.40392 0.0
C17 C 0.95569 0.05915 0.39805 0.0
C18 C 0.02775 0.97719 0.35273 0.0
O19 O 0.13178 0.08334 0.38404 0.0
O20 O 0.06727 0.04715 0.40956 0.0
O21 O 0.99795 0.97269 0.36971 0.0
O22 O 0.06578 0.0258 0.34716 0.0
C23 C 0.07359 0.15832 0.34956 0.0
O24 O 0.95199 0.03492 0.38061 0.0
O25 O 1.0041 0.08599 0.40436 0.0
In26 In 0.06707 0.05372 0.71169 0.0
O27 O 0.0369 0.96655 0.72736 0.0
O28 O 0.99447 0.00795 0.73778 0.0
C29 C 0.1466 0.05974 0.68254 0.0
C30 C 0.98792 0.04724 0.68567 0.0
C31 C 0.13186 0.13979 0.73605 0.0
O32 O 0.12718 0.02498 0.69904 0.0
O33 O 0.12584 0.09043 0.68076 0.0
O34 O 0.11044 0.14533 0.71901 0.0
O35 O 0.11942 0.09076 0.74132 0.0
C36 C 0.99765 0.96455 0.73923 0.0
O37 O 0.00739 0.08227 0.70005 0.0
O38 O 0.00851 0.01629 0.68436 0.0
C39 C 0.09338 0.63198 0.17187 0.0
C40 C 0.14276 0.66419 0.15911 0.0
C41 C 0.18284 0.6598 0.16956 0.0
C42 C 0.15557 0.62369 0.18758 0.0
N43 N 0.10028 0.60346 0.18885 0.0
Co44 Co 0.04445 0.54601 0.21124 0.0
N45 N 0.1037 0.54416 0.22814 0.0
C46 C 0.15898 0.57711 0.224 0.0
C47 C 0.18931 0.56966 0.23949 0.0
C48 C 0.15113 0.52824 0.25397 0.0
C49 C 0.09956 0.51114 0.24597 0.0
N50 N 0.98863 0.48875 0.23374 0.0
C51 C 0.9957 0.46166 0.25122 0.0
C52 C 0.94548 0.42704 0.26321 0.0
C53 C 0.90549 0.43051 0.25235 0.0
C54 C 0.93315 0.4673 0.23459 0.0
N55 N 0.98521 0.54775 0.19427 0.0
C56 C 0.92991 0.51568 0.19869 0.0
C57 C 0.89937 0.52475 0.18382 0.0
C58 C 0.93737 0.56622 0.16936 0.0
C59 C 0.98942 0.58075 0.17641 0.0
N60 N 0.04079 0.48634 0.19328 0.0
C61 C 0.03546 0.40221 0.16741 0.0
C62 C 0.98745 0.40071 0.17582 0.0
C63 C 0.99094 0.44238 0.18876 0.0
C64 C 0.08639 0.4466 0.17229 0.0
C65 C 0.08801 0.4876 0.1852 0.0
N66 N 0.04821 0.60571 0.22917 0.0
C67 C 1.003 0.64505 0.25064 0.0
C68 C 0.05403 0.6909 0.25446 0.0
C69 C 0.10184 0.69313 0.24536 0.0
C70 C 0.09809 0.65085 0.23278 0.0
C71 C 1.00112 0.60356 0.23798 0.0
H72 H 0.13619 0.65595 0.22599 0.0
H73 H 0.96101 0.57024 0.23548 0.0
H74 H 0.95268 0.43787 0.19501 0.0
H75 H 0.12807 0.51985 0.18844 0.0
C76 C 0.18097 0.61178 0.20463 0.0
C77 C 0.04103 0.63025 0.16775 0.0
C78 C 0.04774 0.46265 0.25522 0.0
C79 C 0.90803 0.48013 0.21776 0.0
H80 H 0.14956 0.68923 0.14402 0.0
H81 H 0.22682 0.6815 0.1649 0.0
H82 H 0.23389 0.59102 0.23996 0.0
H83 H 0.16054 0.51196 0.26856 0.0
H84 H 0.9377 0.40063 0.27795 0.0
H85 H 0.8613 0.40767 0.25655 0.0
H86 H 0.85474 0.50488 0.18391 0.0
H87 H 0.9272 0.58447 0.15565 0.0
H88 H 0.94702 0.36709 0.17257 0.0
H89 H 0.12513 0.45076 0.16595 0.0
H90 H 0.96441 0.64028 0.25751 0.0
H91 H 0.14233 0.7278 0.24779 0.0
C92 C 0.46097 0.99966 0.58102 0.0
C93 C 0.42179 0.94691 0.58991 0.0
C94 C 0.42957 0.91029 0.57851 0.0
C95 C 0.47241 0.94201 0.56324 0.0
N96 N 0.49313 0.99697 0.56419 0.0
Co97 Co 0.55495 0.05676 0.54417 0.0
N98 N 0.56782 1.00216 0.5284 0.0
C99 C 0.53805 0.94654 0.53183 0.0
C100 C 0.55737 0.91935 0.51938 0.0
C101 C 0.60305 0.95997 0.50755 0.0
C102 C 0.60942 0.01013 0.51361 0.0
N103 N 0.61653 0.11643 0.52391 0.0
C104 C 0.65254 0.11413 0.50868 0.0
C105 C 0.69132 0.1669 0.49985 0.0
C106 C 0.67907 0.20298 0.50934 0.0
C107 C 0.63433 0.17108 0.52376 0.0
N108 N 0.54289 0.11148 0.56037 0.0
C109 C 0.57329 0.16706 0.55701 0.0
C110 C 0.56087 0.19469 0.57214 0.0
C111 C 0.51939 0.15435 0.58585 0.0
C112 C 0.50706 0.10404 0.57779 0.0
N113 N 0.60959 0.06249 0.56547 0.0
C114 C 0.68885 0.0708 0.59482 0.0
C115 C 0.69018 0.11782 0.58554 0.0
C116 C 0.65101 0.11287 0.57087 0.0
C117 C 0.64653 0.01925 0.58941 0.0
C118 C 0.60751 0.01611 0.5749 0.0
N119 N 0.50015 0.05124 0.5228 0.0
C120 C 0.45961 0.09495 0.50116 0.0
C121 C 0.421 0.04447 0.49352 0.0
C122 C 0.42347 0.99767 0.50044 0.0
C123 C 0.4626 1.00178 0.5151 0.0
C124 C 0.49842 0.09734 0.51555 0.0
H125 H 0.46138 0.96429 0.51997 0.0
H126 H 0.52663 0.13719 0.52053 0.0
H127 H 0.65544 0.15047 0.564 0.0
H128 H 0.57606 0.97572 0.5715 0.0
C129 C 0.49454 0.92117 0.54803 0.0
C130 C 0.46246 0.05036 0.5877 0.0
C131 C 0.65492 0.0638 0.50428 0.0
C132 C 0.61381 0.19209 0.53962 0.0
H133 H 0.38955 0.93508 0.6029 0.0
H134 H 0.40628 0.8657 0.58092 0.0
H135 H 0.54107 0.87527 0.51936 0.0
H136 H 0.62897 0.95308 0.49595 0.0
H137 H 0.72715 0.17974 0.48879 0.0
H138 H 0.70248 0.2476 0.5071 0.0
H139 H 0.5805 0.23886 0.57337 0.0
H140 H 0.50163 0.16154 0.6005 0.0
H141 H 0.72211 0.1586 0.58931 0.0
H142 H 0.6427 0.98139 0.59657 0.0
H143 H 0.46092 0.13291 0.49579 0.0
H144 H 0.39473 0.9577 0.49478 0.0
C145 C 0.65998 0.60444 0.84308 0.0
C146 C 0.70231 0.59514 0.83563 0.0
C147 C 0.69247 0.54677 0.84593 0.0
C148 C 0.64598 0.52963 0.85958 0.0
N149 N 0.62444 0.56343 0.85835 0.0
Co150 Co 0.56358 0.55862 0.879 0.0
N151 N 0.5541 0.49118 0.89599 0.0
C152 C 0.58357 0.4657 0.89234 0.0
C153 C 0.56999 0.42209 0.90719 0.0
C154 C 0.52783 0.4182 0.9207 0.0
C155 C 0.51669 0.45866 0.91278 0.0
N156 N 0.50518 0.55592 0.90025 0.0
C157 C 0.47498 0.51938 0.91758 0.0
C158 C 0.44193 0.53601 0.92885 0.0
C159 C 0.44965 0.58275 0.91766 0.0
C160 C 0.48733 0.59273 0.90048 0.0
N161 N 0.57101 0.62437 0.86158 0.0
C162 C 0.53821 0.64675 0.86418 0.0
C163 C 0.55225 0.691 0.84959 0.0
C164 C 0.59743 0.69804 0.83723 0.0
C165 C 0.60911 0.65803 0.84526 0.0
N166 N 0.50576 0.50879 0.85961 0.0
C167 C 0.4192 0.43078 0.83572 0.0
C168 C 0.41314 0.46986 0.84711 0.0
C169 C 0.45677 0.50871 0.85852 0.0
C170 C 0.46985 0.43207 0.83607 0.0
C171 C 0.51205 0.47085 0.84813 0.0
N172 N 0.62117 0.60832 0.89848 0.0
C173 C 0.66532 0.69323 0.91724 0.0
C174 C 0.70531 0.68145 0.92475 0.0
C175 C 0.70162 0.63195 0.91906 0.0
C176 C 0.65978 0.59638 0.90609 0.0
C177 C 0.62422 0.65654 0.90426 0.0
H178 H 0.65993 0.55972 0.90231 0.0
H179 H 0.59556 0.66841 0.89893 0.0
H180 H 0.4493 0.53753 0.86671 0.0
H181 H 0.54886 0.46832 0.84836 0.0
C182 C 0.62508 0.48511 0.87532 0.0
C183 C 0.65773 0.655 0.83717 0.0
C184 C 0.47058 0.46517 0.92167 0.0
C185 C 0.50172 0.63203 0.88286 0.0
H186 H 0.73898 0.62131 0.82505 0.0
H187 H 0.71835 0.52823 0.84471 0.0
H188 H 0.58882 0.39648 0.90821 0.0
H189 H 0.50786 0.38885 0.93481 0.0
H190 H 0.41335 0.5158 0.94317 0.0
H191 H 0.4284 0.60533 0.9211 0.0
H192 H 0.53383 0.717 0.84885 0.0
H193 H 0.62026 0.73021 0.82422 0.0
H194 H 0.37462 0.47041 0.84727 0.0
H195 H 0.4763 0.40195 0.82785 0.0
H196 H 0.66501 0.73034 0.92114 0.0
H197 H 0.73133 0.62068 0.9245 0.0
H198 H 0.12124 0.1793 0.09915 0.0
C199 C 0.08608 0.16086 0.08901 0.0
H200 H 0.01205 0.15813 0.0808 0.0
H201 H 0.99587 0.25677 0.17219 0.0
H202 H 0.92824 0.1602 0.18083 0.0
H203 H 0.91667 0.09009 0.15502 0.0
H204 H 0.97327 0.11616 0.12047 0.0
C205 C 0.04827 0.17714 0.09034 0.0
C206 C 0.05378 0.22017 0.10543 0.0
C207 C 0.0193 0.20467 0.12524 0.0
C208 C 0.02506 0.24539 0.13989 0.0
C209 C 0.99201 0.22806 0.16009 0.0
C210 C 0.95327 0.17261 0.16534 0.0
C211 C 0.94683 0.13312 0.15083 0.0
C212 C 0.9795 0.14867 0.13104 0.0
H213 H 0.99141 0.33357 0.1458 0.0
C214 C 0.0305 0.35793 0.1532 0.0
H215 H 0.11016 0.3682 0.15671 0.0
H216 H 0.12437 0.26455 0.06828 0.0
H217 H 0.19169 0.3612 0.05944 0.0
H218 H 0.2014 0.43182 0.08465 0.0
H219 H 0.1438 0.40626 0.11885 0.0
C220 C 0.07071 0.34535 0.1495 0.0
C221 C 0.06426 0.30196 0.13439 0.0
C222 C 0.09864 0.31743 0.11453 0.0
C223 C 0.09327 0.27661 0.10002 0.0
C224 C 0.12731 0.2936 0.08008 0.0
C225 C 0.16597 0.34902 0.07474 0.0
C226 C 0.17142 0.38878 0.08893 0.0
C227 C 0.13817 0.37348 0.10856 0.0
H228 H 0.87 0.04377 0.40054 0.0
C229 C 0.90723 0.05805 0.40939 0.0
H230 H 0.94579 0.08949 0.43858 0.0
H231 H 0.80838 0.19404 0.47353 0.0
H232 H 0.90056 0.27331 0.4673 0.0
H233 H 0.97555 0.26529 0.44819 0.0
H234 H 0.95891 0.17789 0.43554 0.0
C235 C 0.90819 0.07469 0.42993 0.0
C236 C 0.86131 0.07908 0.44063 0.0
C237 C 0.87129 0.13094 0.4475 0.0
C238 C 0.82761 0.13595 0.45805 0.0
C239 C 0.83953 0.18795 0.46522 0.0
C240 C 0.8924 0.23388 0.46174 0.0
C241 C 0.93462 0.22935 0.45102 0.0
C242 C 0.92446 0.1787 0.44392 0.0
H243 H 0.7119 0.0341 0.49848 0.0
C244 C 0.70115 0.06474 0.49299 0.0
H245 H 0.714 0.12009 0.46446 0.0
H246 H 0.82853 0.97134 0.4332 0.0
H247 H 0.73467 0.89395 0.43676 0.0
H248 H 0.65685 0.9061 0.44976 0.0
H249 H 0.67294 0.99543 0.46001 0.0
C250 C 0.72794 0.09483 0.47284 0.0
C251 C 0.77339 0.0895 0.46127 0.0
C252 C 0.7629 0.03824 0.4535 0.0
C253 C 0.80722 0.03235 0.44419 0.0
C254 C 0.79611 0.97917 0.43891 0.0
C255 C 0.74242 0.93417 0.44109 0.0
C256 C 0.69866 0.94093 0.44853 0.0
C257 C 0.70854 0.99226 0.45464 0.0
H258 H 0.96421 0.87933 0.7539 0.0
C259 C 0.95706 0.91406 0.7528 0.0
H260 H 0.90162 0.94241 0.76058 0.0
H261 H 0.68807 0.70602 0.77207 0.0
H262 H 0.67729 0.7379 0.73592 0.0
H263 H 0.75268 0.82352 0.7167 0.0
H264 H 0.8393 0.878 0.73353 0.0
C265 C 0.91036 0.90884 0.76254 0.0
C266 C 0.86616 0.85559 0.77392 0.0
C267 C 0.81583 0.82387 0.76382 0.0
C268 C 0.77254 0.77399 0.77479 0.0
C269 C 0.72258 0.74371 0.76437 0.0
C270 C 0.71575 0.76163 0.74364 0.0
C271 C 0.75817 0.8099 0.73283 0.0
C272 C 0.80767 0.84082 0.74271 0.0
H273 H 0.70859 0.74304 0.82969 0.0
C274 C 0.7023 0.70294 0.82566 0.0
H275 H 0.72116 0.66527 0.79889 0.0
H276 H 0.95566 0.90781 0.79857 0.0
H277 H 0.96701 0.87533 0.8345 0.0
H278 H 0.89349 0.78731 0.85291 0.0
H279 H 0.80794 0.73143 0.83563 0.0
C280 C 0.73415 0.70297 0.80719 0.0
C281 C 0.77945 0.75575 0.7959 0.0
C282 C 0.82987 0.78737 0.80599 0.0
C283 C 0.873 0.83753 0.79509 0.0
C284 C 0.92212 0.86892 0.80587 0.0
C285 C 0.92911 0.85084 0.82653 0.0
C286 C 0.88766 0.80132 0.83692 0.0
C287 C 0.83861 0.76974 0.82684 0.0
H288 H 0.13145 0.92441 0.08175 0.0
C289 C 0.09487 0.92796 0.08504 0.0
H290 H 0.02006 0.89792 0.10464 0.0
H291 H 0.08247 0.69625 0.11395 0.0
H292 H 0.06986 0.68834 0.07482 0.0
H293 H 0.05085 0.75291 0.05337 0.0
H294 H 0.04556 0.82647 0.07081 0.0
C295 C 0.05604 0.89373 0.10076 0.0
C296 C 0.06219 0.85113 0.11403 0.0
C297 C 0.06264 0.80668 0.10376 0.0
C298 C 0.07065 0.76756 0.11639 0.0
C299 C 0.07419 0.72568 0.10541 0.0
C300 C 0.06736 0.72084 0.0829 0.0
C301 C 0.0569 0.75733 0.0708 0.0
C302 C 0.05444 0.79973 0.08101 0.0
H303 H 0.99961 0.66657 0.15006 0.0
C304 C 0.03853 0.67406 0.15608 0.0
H305 H 0.11886 0.7434 0.16191 0.0
H306 H 0.06191 0.92993 0.13912 0.0
H307 H 0.06885 0.93438 0.17872 0.0
H308 H 0.07826 0.8641 0.20081 0.0
H309 H 0.08115 0.78907 0.18346 0.0
C310 C 0.08192 0.72909 0.15293 0.0
C311 C 0.07533 0.77111 0.13951 0.0
C312 C 0.07339 0.81462 0.14988 0.0
C313 C 0.06702 0.8547 0.13715 0.0
C314 C 0.06594 0.89799 0.14798 0.0
C315 C 0.06999 0.90111 0.17071 0.0
C316 C 0.07535 0.86158 0.18315 0.0
C317 C 0.07708 0.81878 0.17296 0.0
H318 H 0.14202 0.05462 0.43707 0.0
C319 C 0.15582 0.06311 0.41965 0.0
H320 H 0.21972 0.07895 0.39576 0.0
H321 H 0.41868 0.1676 0.45651 0.0
H322 H 0.44429 0.24739 0.43147 0.0
H323 H 0.37878 0.2474 0.40553 0.0
H324 H 0.28749 0.16743 0.40428 0.0
C325 C 0.20567 0.06999 0.41316 0.0
C326 C 0.24462 0.06952 0.42931 0.0
C327 C 0.29768 0.11704 0.43015 0.0
C328 C 0.33504 0.11756 0.44554 0.0
C329 C 0.38817 0.16522 0.44554 0.0
C330 C 0.40356 0.21134 0.43119 0.0
C331 C 0.36672 0.21131 0.41655 0.0
C332 C 0.3144 0.16493 0.41598 0.0
H333 H 0.36505 0.00675 0.46667 0.0
C334 C 0.37953 0.03987 0.4778 0.0
H335 H 0.37133 0.10641 0.48849 0.0
H336 H 0.15089 0.96779 0.42962 0.0
H337 H 0.12328 0.88975 0.45593 0.0
H338 H 0.18319 0.89476 0.48546 0.0
H339 H 0.2718 0.97719 0.48842 0.0
C340 C 0.35812 0.07368 0.47724 0.0
C341 C 0.31914 0.07101 0.46049 0.0
C342 C 0.26587 0.02359 0.4598 0.0
C343 C 0.22949 0.02212 0.4437 0.0
C344 C 0.17867 0.97252 0.44228 0.0
C345 C 0.1625 0.92714 0.45717 0.0
C346 C 0.19636 0.92985 0.47372 0.0
C347 C 0.24742 0.97737 0.47511 0.0
H348 H 0.19006 0.22843 0.73893 0.0
C349 C 0.17229 0.1878 0.74751 0.0
H350 H 0.17165 0.14161 0.77573 0.0
H351 H 0.40684 0.29415 0.80741 0.0
H352 H 0.40787 0.21023 0.80055 0.0
H353 H 0.33187 0.13522 0.78239 0.0
H354 H 0.25391 0.1432 0.77135 0.0
C355 C 0.18927 0.18252 0.76742 0.0
C356 C 0.23631 0.22991 0.77753 0.0
C357 C 0.28281 0.22547 0.78326 0.0
C358 C 0.32781 0.26971 0.79301 0.0
C359 C 0.37231 0.26276 0.79939 0.0
C360 C 0.3734 0.21462 0.79563 0.0
C361 C 0.33055 0.17235 0.78546 0.0
C362 C 0.28579 0.17746 0.7793 0.0
H363 H 0.32997 0.3732 0.83257 0.0
C364 C 0.37114 0.38731 0.82495 0.0
H365 H 0.41715 0.38041 0.79818 0.0
H366 H 0.15014 0.24938 0.77285 0.0
H367 H 0.15229 0.33605 0.77688 0.0
H368 H 0.23612 0.41745 0.78811 0.0
H369 H 0.31742 0.41198 0.7962 0.0
C370 C 0.37623 0.36599 0.80609 0.0
C371 C 0.32768 0.31954 0.7963 0.0
C372 C 0.28197 0.32468 0.78993 0.0
C373 C 0.23526 0.27903 0.78158 0.0
C374 C 0.18811 0.28371 0.77768 0.0
C375 C 0.18855 0.33311 0.78017 0.0
C376 C 0.2356 0.37883 0.78663 0.0
C377 C 0.28186 0.37492 0.79145 0.0
H378 H 0.92936 0.00885 0.66004 0.0
C379 C 0.94381 0.04126 0.6715 0.0
H380 H 0.93576 0.10708 0.68318 0.0
H381 H 0.83484 0.12881 0.59326 0.0
H382 H 0.92711 0.20831 0.58796 0.0
H383 H 0.99718 0.22416 0.61448 0.0
H384 H 0.97543 0.15998 0.64634 0.0
C385 C 0.9208 0.07339 0.67233 0.0
C386 C 0.87667 0.06585 0.65744 0.0
C387 C 0.88921 0.10473 0.63935 0.0
C388 C 0.84815 0.09645 0.62442 0.0
C389 C 0.86331 0.13417 0.6057 0.0
C390 C 0.91645 0.17979 0.60231 0.0
C391 C 0.95594 0.18865 0.61721 0.0
C392 C 0.94284 0.15154 0.63545 0.0
H393 H 0.75075 0.1149 0.619 0.0
C394 C 0.73138 0.07733 0.61027 0.0
H395 H 0.73191 0.00389 0.60407 0.0
H396 H 0.8377 0.98518 0.69122 0.0
H397 H 0.74508 0.90597 0.69688 0.0
H398 H 0.67361 0.89196 0.67132 0.0
H399 H 0.69424 0.95714 0.63997 0.0
C400 C 0.74978 0.04135 0.61281 0.0
C401 C 0.7937 0.05029 0.62811 0.0
C402 C 0.78115 0.01157 0.64632 0.0
C403 C 0.82253 0.01943 0.66101 0.0
C404 C 0.80829 0.9807 0.6793 0.0
C405 C 0.75515 0.93517 0.68283 0.0
C406 C 0.7149 0.92732 0.66845 0.0
C407 C 0.7274 0.96501 0.65045 0.0
H408 H 0.90654 0.93795 0.01436 0.0
C409 C 0.94663 0.94273 0.00945 0.0
H410 H 0.99091 0.91979 0.98747 0.0
H411 H 0.73116 0.71534 0.98237 0.0
H412 H 0.73732 0.69032 0.02033 0.0
H413 H 0.81947 0.74904 0.04034 0.0
H414 H 0.89554 0.83366 0.02263 0.0
C415 C 0.95076 0.91412 0.99293 0.0
C416 C 0.90191 0.87672 0.98064 0.0
C417 C 0.85851 0.8263 0.99099 0.0
C418 C 0.81207 0.79113 0.97912 0.0
C419 C 0.76825 0.74253 0.99027 0.0
C420 C 0.77109 0.72781 0.01213 0.0
C421 C 0.81726 0.76097 0.02342 0.0
C422 C 0.86055 0.80964 0.01307 0.0
H423 H 0.77872 0.70455 0.94396 0.0
C424 C 0.7512 0.7188 0.93837 0.0
H425 H 0.73702 0.78651 0.93807 0.0
H426 H 0.97768 0.96985 0.95577 0.0
H427 H 0.97327 0.99316 0.91733 0.0
H428 H 0.89471 0.9307 0.89639 0.0
H429 H 0.81986 0.8447 0.91375 0.0
C430 C 0.76146 0.76904 0.94393 0.0
C431 C 0.80999 0.8053 0.95662 0.0
C432 C 0.85378 0.85531 0.94621 0.0
C433 C 0.8996 0.89101 0.95822 0.0
C434 C 0.94227 0.94091 0.94739 0.0
C435 C 0.94023 0.95487 0.92534 0.0
C436 C 0.89595 0.91975 0.91355 0.0
C437 C 0.85316 0.87053 0.92376 0.0
H438 H 0.98342 0.88888 0.34601 0.0
C439 C 0.01873 0.92898 0.34059 0.0
H440 H 0.08779 0.97345 0.31771 0.0
H441 H 0.02926 0.71198 0.31207 0.0
H442 H 0.05087 0.71534 0.35037 0.0
H443 H 0.07198 0.79707 0.37083 0.0
H444 H 0.07048 0.87539 0.35326 0.0
C445 C 0.05319 0.93322 0.3235 0.0
C446 C 0.04369 0.88468 0.311 0.0
C447 C 0.04693 0.84003 0.3213 0.0
C448 C 0.0374 0.79393 0.30918 0.0
C449 C 0.03811 0.74882 0.32022 0.0
C450 C 0.0502 0.75008 0.34225 0.0
C451 C 0.06188 0.79601 0.35379 0.0
C452 C 0.06044 0.84058 0.34353 0.0
H453 H 0.10032 0.76432 0.27355 0.0
C454 C 0.05956 0.73633 0.26809 0.0
H455 H 0.97754 0.72153 0.26722 0.0
H456 H 0.03495 0.96319 0.28604 0.0
H457 H 0.01837 0.96189 0.24718 0.0
H458 H 1.00623 0.88409 0.22582 0.0
H459 H 0.01014 0.80682 0.24322 0.0
C460 C 0.01796 0.74584 0.27352 0.0
C461 C 0.02717 0.79355 0.28649 0.0
C462 C 0.02512 0.83865 0.27608 0.0
C463 C 0.03315 0.88406 0.28834 0.0
C464 C 0.03005 0.92806 0.2775 0.0
C465 C 0.0204 0.9278 0.25519 0.0
C466 C 0.01348 0.88395 0.24317 0.0
C467 C 0.01571 0.83979 0.25339 0.0
H468 H 0.20434 0.09783 0.65306 0.0
C469 C 0.19117 0.06629 0.66657 0.0
H470 H 0.20379 0.00434 0.68139 0.0
H471 H 0.31881 0.98446 0.59198 0.0
H472 H 0.23253 0.89739 0.59487 0.0
H473 H 0.15961 0.87759 0.62397 0.0
H474 H 0.17248 0.94515 0.65026 0.0
C475 C 0.21717 0.03701 0.66837 0.0
C476 C 0.26356 0.04734 0.65207 0.0
C477 C 0.25634 0.00683 0.63724 0.0
C478 C 0.29919 0.01768 0.62083 0.0
C479 C 0.28906 0.97761 0.60543 0.0
C480 C 0.23933 0.92759 0.60672 0.0
C481 C 0.19822 0.9165 0.62307 0.0
C482 C 0.20622 0.95561 0.6381 0.0
H483 H 0.40252 0.01096 0.61579 0.0
C484 C 0.42127 0.04587 0.60366 0.0
H485 H 0.40965 0.11239 0.59055 0.0
H486 H 0.29386 0.13169 0.67941 0.0
H487 H 0.37953 0.21943 0.67629 0.0
H488 H 0.45215 0.23985 0.64696 0.0
H489 H 0.43959 0.17238 0.62083 0.0
C490 C 0.39673 0.07923 0.60329 0.0
C491 C 0.35021 0.06851 0.61968 0.0
C492 C 0.35704 0.10928 0.63436 0.0
C493 C 0.31429 0.09827 0.65083 0.0
C494 C 0.32386 0.13859 0.66605 0.0
C495 C 0.3731 0.18904 0.66458 0.0
C496 C 0.41403 0.20046 0.64812 0.0
C497 C 0.40638 0.16118 0.63322 0.0
H498 H 0.24831 0.15532 0.99923 0.0
C499 C 0.21131 0.15889 1.00039 0.0
H500 H 0.17394 0.20427 0.98951 0.0
H501 H 0.44452 0.38338 0.97106 0.0
H502 H 0.44672 0.38005 0.01085 0.0
H503 H 0.36336 0.31583 0.03464 0.0
H504 H 0.27764 0.25377 0.01876 0.0
C505 C 0.21105 0.20089 0.98895 0.0
C506 C 0.26054 0.24293 0.97472 0.0
C507 C 0.30982 0.28067 0.98431 0.0
C508 C 0.35719 0.31972 0.9706 0.0
C509 C 0.40665 0.35457 0.98064 0.0
C510 C 0.40863 0.35284 1.00349 0.0
C511 C 0.36177 0.31654 0.01688 0.0
C512 C 0.31286 0.28083 0.00751 0.0
H513 H 0.39597 0.43135 0.94368 0.0
C514 C 0.4227 0.42165 0.93379 0.0
H515 H 0.42077 0.35023 0.92034 0.0
H516 H 0.17294 0.17747 0.95095 0.0
H517 H 0.1694 0.18364 0.91118 0.0
H518 H 0.25005 0.25385 0.88758 0.0
H519 H 0.33491 0.31812 0.90355 0.0
C520 C 0.40365 0.36492 0.93294 0.0
C521 C 0.35457 0.32289 0.94734 0.0
C522 C 0.30505 0.2858 0.9378 0.0
C523 C 0.25813 0.24578 0.95147 0.0
C524 C 0.20953 0.20901 0.9414 0.0
C525 C 0.20695 0.21205 0.91858 0.0
C526 C 0.25239 0.25153 0.90529 0.0
C527 C 0.30093 0.2881 0.91468 0.0
H528 H 0.12522 0.2471 0.3388 0.0
C529 C 0.08738 0.20927 0.33603 0.0
H530 H 0.0159 0.17217 0.3182 0.0
H531 H 0.09405 0.4398 0.30599 0.0
H532 H 0.08129 0.43602 0.34581 0.0
H533 H 0.05816 0.35147 0.36861 0.0
H534 H 0.0491 0.27084 0.3518 0.0
C535 C 0.05324 0.21024 0.32123 0.0
C536 C 0.06549 0.2614 0.30768 0.0
C537 C 0.06805 0.30742 0.31777 0.0
C538 C 0.07804 0.3551 0.30452 0.0
C539 C 0.08388 0.40162 0.31513 0.0
C540 C 0.07706 0.40018 0.33801 0.0
C541 C 0.06429 0.35268 0.35085 0.0
C542 C 0.05968 0.30673 0.34096 0.0
H543 H 0.00798 0.3872 0.27668 0.0
C544 C 0.04594 0.41703 0.26735 0.0
H545 H 0.12368 0.42452 0.25518 0.0
H546 H 0.06451 0.18152 0.28291 0.0
H547 H 0.07193 0.18347 0.24297 0.0
H548 H 0.08319 0.26356 0.22005 0.0
H549 H 0.08777 0.3425 0.2369 0.0
C550 C 0.08836 0.40385 0.26715 0.0
C551 C 0.08208 0.35559 0.28114 0.0
C552 C 0.07911 0.30951 0.27105 0.0
C553 C 0.07128 0.26268 0.28431 0.0
C554 C 0.06932 0.2177 0.2737 0.0
C555 C 0.07371 0.21832 0.25077 0.0
C556 C 0.08017 0.26346 0.23786 0.0
C557 C 0.08287 0.30861 0.24778 0.0
loop_
_geom_bond_atom_site_label_1
_geom_bond_atom_site_label_2
_geom_bond_distance
_geom_bond_site_symmetry_2
_ccdc_geom_bond_type
In0 O1 2.294 . S
In0 O2 2.326 . S
In0 O6 2.266 1_445 S
In0 O7 2.326 1_545 S
In0 O8 2.266 1_545 S
In0 O9 2.326 1_545 S
In0 O11 2.294 . S
In0 O12 2.326 . S
O1 In0 2.294 . S
O1 C10 1.240 . S
O2 In0 2.326 . S
O2 C10 1.252 . S
C3 O6 1.251 . S
C3 O7 1.260 1_655 S
C4 O11 1.240 . S
C4 O12 1.252 . S
C5 O8 1.252 . S
C5 O9 1.260 . S
O6 In0 2.266 1_665 S
O6 C3 1.251 . S
O7 In0 2.326 1_565 S
O7 C3 1.260 1_455 S
O8 In0 2.266 1_565 S
O8 C5 1.252 . S
O9 In0 2.326 1_565 S
O9 C5 1.260 . S
C10 O1 1.240 . S
C10 O2 1.252 . S
O11 In0 2.294 . S
O11 C4 1.240 . S
O12 In0 2.326 . S
O12 C4 1.252 . S
In13 O14 2.294 . S
In13 O15 2.326 1_455 S
In13 O19 2.266 . S
In13 O20 2.326 . S
In13 O21 2.266 1_445 S
In13 O22 2.326 . S
In13 O24 2.294 1_455 S
In13 O25 2.326 . S
O14 In13 2.294 . S
O14 C23 1.240 . S
O15 In13 2.326 1_655 S
O15 C23 1.252 1_655 S
C16 O19 1.252 . S
C16 O20 1.260 . S
C17 O24 1.240 . S
C17 O25 1.252 1_655 S
C18 O21 1.252 1_445 S
C18 O22 1.260 . S
O19 In13 2.266 . S
O19 C16 1.252 . S
O20 In13 2.326 . S
O20 C16 1.260 . S
O21 In13 2.266 1_665 S
O21 C18 1.252 1_665 S
O22 In13 2.326 . S
O22 C18 1.260 . S
C23 O14 1.240 . S
C23 O15 1.252 1_455 S
O24 In13 2.294 1_655 S
O24 C17 1.240 . S
O25 In13 2.326 . S
O25 C17 1.252 1_455 S
In26 O27 2.294 1_545 S
In26 O28 2.326 1_455 S
In26 O32 2.266 . S
In26 O33 2.326 . S
In26 O34 2.266 . S
In26 O35 2.326 . S
In26 O37 2.294 . S
In26 O38 2.326 1_445 S
O27 In26 2.294 1_565 S
O27 C36 1.240 1_455 S
O28 In26 2.326 1_655 S
O28 C36 1.252 1_545 S
C29 O32 1.252 . S
C29 O33 1.260 . S
C30 O37 1.240 1_655 S
C30 O38 1.252 1_545 S
C31 O34 1.252 . S
C31 O35 1.260 . S
O32 In26 2.266 . S
O32 C29 1.252 . S
O33 In26 2.326 . S
O33 C29 1.260 . S
O34 In26 2.266 . S
O34 C31 1.252 . S
O35 In26 2.326 . S
O35 C31 1.260 . S
C36 O27 1.240 1_655 S
C36 O28 1.252 1_565 S
O37 In26 2.294 . S
O37 C30 1.240 1_455 S
O38 In26 2.326 1_665 S
O38 C30 1.252 1_565 S
C39 C40 1.443 . S
C39 N43 1.376 . S
C39 C77 1.389 . S
C40 C39 1.443 . S
C40 C41 1.340 . S
C40 H80 0.951 . S
C41 C40 1.340 . S
C41 C42 1.439 . S
C41 H81 0.950 . S
C42 C41 1.439 . S
C42 N43 1.374 . S
C42 C76 1.395 . S
N43 C39 1.376 . S
N43 C42 1.374 . S
N43 Co44 2.008 . S
Co44 N43 2.008 . S
Co44 N45 1.995 . S
Co44 N50 2.008 1_455 S
Co44 N55 1.995 1_455 S
Co44 N60 2.282 . S
Co44 N66 2.282 . S
N45 Co44 1.995 . S
N45 C46 1.376 . S
N45 C49 1.383 . S
C46 N45 1.376 . S
C46 C47 1.446 . S
C46 C76 1.391 . S
C47 C46 1.446 . S
C47 C48 1.339 . S
C47 H82 0.949 . S
C48 C47 1.339 . S
C48 C49 1.439 . S
C48 H83 0.950 . S
C49 N45 1.383 . S
C49 C48 1.439 . S
C49 C78 1.392 . S
N50 Co44 2.008 1_655 S
N50 C51 1.376 . S
N50 C54 1.374 . S
C51 N50 1.376 . S
C51 C52 1.443 . S
C51 C78 1.389 1_655 S
C52 C51 1.443 . S
C52 C53 1.340 . S
C52 H84 0.951 . S
C53 C52 1.340 . S
C53 C54 1.439 . S
C53 H85 0.950 . S
C54 N50 1.374 . S
C54 C53 1.439 . S
C54 C79 1.395 . S
N55 Co44 1.995 1_655 S
N55 C56 1.376 . S
N55 C59 1.383 . S
C56 N55 1.376 . S
C56 C57 1.446 . S
C56 C79 1.391 . S
C57 C56 1.446 . S
C57 C58 1.339 . S
C57 H86 0.949 . S
C58 C57 1.339 . S
C58 C59 1.439 . S
C58 H87 0.950 . S
C59 N55 1.383 . S
C59 C58 1.439 . S
C59 C77 1.392 1_655 S
N60 Co44 2.282 . S
N60 C63 1.332 . S
N60 C65 1.332 . S
C61 C62 1.386 . S
C61 C64 1.388 . S
C62 C61 1.386 . S
C62 C63 1.382 . S
C62 H88 0.950 1_455 S
C63 N60 1.332 . S
C63 C62 1.382 . S
C63 H74 0.952 1_455 S
C64 C61 1.388 . S
C64 C65 1.382 . S
C64 H89 0.950 . S
C65 N60 1.332 . S
C65 C64 1.382 . S
C65 H75 0.948 . S
N66 Co44 2.282 . S
N66 C70 1.332 . S
N66 C71 1.332 1_455 S
C67 C68 1.388 1_655 S
C67 C71 1.382 . S
C67 H90 0.950 . S
C68 C67 1.388 1_455 S
C68 C69 1.386 . S
C69 C68 1.386 . S
C69 C70 1.382 . S
C69 H91 0.950 . S
C70 N66 1.332 . S
C70 C69 1.382 . S
C70 H72 0.952 . S
C71 N66 1.332 1_655 S
C71 C67 1.382 . S
C71 H73 0.948 . S
H72 C70 0.952 . S
H73 C71 0.948 . S
H74 C63 0.952 1_655 S
H75 C65 0.948 . S
C76 C42 1.395 . S
C76 C46 1.391 . S
C77 C39 1.389 . S
C77 C59 1.392 1_455 S
C78 C49 1.392 . S
C78 C51 1.389 1_455 S
C79 C54 1.395 . S
C79 C56 1.391 . S
H80 C40 0.951 . S
H81 C41 0.950 . S
H82 C47 0.949 . S
H83 C48 0.950 . S
H84 C52 0.951 . S
H85 C53 0.950 . S
H86 C57 0.949 . S
H87 C58 0.950 . S
H88 C62 0.950 1_655 S
H89 C64 0.950 . S
H90 C67 0.950 . S
H91 C69 0.950 . S
C92 C93 1.443 1_545 S
C92 N96 1.376 . S
C92 C130 1.389 . S
C93 C92 1.443 1_565 S
C93 C94 1.340 . S
C93 H133 0.951 . S
C94 C93 1.340 . S
C94 C95 1.439 . S
C94 H134 0.950 . S
C95 C94 1.439 . S
C95 N96 1.374 1_565 S
C95 C129 1.395 . S
N96 C92 1.376 . S
N96 C95 1.374 1_545 S
N96 Co97 2.008 . S
Co97 N96 2.008 . S
Co97 N98 1.995 . S
Co97 N103 2.008 . S
Co97 N108 1.995 . S
Co97 N113 2.282 . S
Co97 N119 2.282 . S
N98 Co97 1.995 . S
N98 C99 1.376 1_545 S
N98 C102 1.383 . S
C99 N98 1.376 1_565 S
C99 C100 1.446 . S
C99 C129 1.391 . S
C100 C99 1.446 . S
C100 C101 1.339 . S
C100 H135 0.949 . S
C101 C100 1.339 . S
C101 C102 1.439 1_565 S
C101 H136 0.950 . S
C102 N98 1.383 . S
C102 C101 1.439 1_545 S
C102 C131 1.392 . S
N103 Co97 2.008 . S
N103 C104 1.376 . S
N103 C107 1.374 . S
C104 N103 1.376 . S
C104 C105 1.443 . S
C104 C131 1.389 . S
C105 C104 1.443 . S
C105 C106 1.340 . S
C105 H137 0.951 . S
C106 C105 1.340 . S
C106 C107 1.439 . S
C106 H138 0.950 . S
C107 N103 1.374 . S
C107 C106 1.439 . S
C107 C132 1.395 . S
N108 Co97 1.995 . S
N108 C109 1.376 . S
N108 C112 1.383 . S
C109 N108 1.376 . S
C109 C110 1.446 . S
C109 C132 1.391 . S
C110 C109 1.446 . S
C110 C111 1.339 . S
C110 H139 0.949 . S
C111 C110 1.339 . S
C111 C112 1.439 . S
C111 H140 0.950 . S
C112 N108 1.383 . S
C112 C111 1.439 . S
C112 C130 1.392 . S
N113 Co97 2.282 . S
N113 C116 1.332 . S
N113 C118 1.332 . S
C114 C115 1.386 . S
C114 C117 1.388 . S
C115 C114 1.386 . S
C115 C116 1.382 . S
C115 H141 0.950 . S
C116 N113 1.332 . S
C116 C115 1.382 . S
C116 H127 0.952 . S
C117 C114 1.388 . S
C117 C118 1.382 . S
C117 H142 0.950 1_545 S
C118 N113 1.332 . S
C118 C117 1.382 . S
C118 H128 0.948 1_545 S
N119 Co97 2.282 . S
N119 C123 1.332 . S
N119 C124 1.332 . S
C120 C121 1.388 . S
C120 C124 1.382 . S
C120 H143 0.950 . S
C121 C120 1.388 . S
C121 C122 1.386 . S
C122 C121 1.386 . S
C122 C123 1.382 . S
C122 H144 0.950 1_545 S
C123 N119 1.332 . S
C123 C122 1.382 . S
C123 H125 0.952 1_545 S
C124 N119 1.332 . S
C124 C120 1.382 . S
C124 H126 0.948 . S
H125 C123 0.952 1_565 S
H126 C124 0.948 . S
H127 C116 0.952 . S
H128 C118 0.948 1_565 S
C129 C95 1.395 . S
C129 C99 1.391 . S
C130 C92 1.389 . S
C130 C112 1.392 . S
C131 C102 1.392 . S
C131 C104 1.389 . S
C132 C107 1.395 . S
C132 C109 1.391 . S
H133 C93 0.951 . S
H134 C94 0.950 . S
H135 C100 0.949 . S
H136 C101 0.950 . S
H137 C105 0.951 . S
H138 C106 0.950 . S
H139 C110 0.949 . S
H140 C111 0.950 . S
H141 C115 0.950 . S
H142 C117 0.950 1_565 S
H143 C120 0.950 . S
H144 C122 0.950 1_565 S
C145 C146 1.443 . S
C145 N149 1.376 . S
C145 C183 1.389 . S
C146 C145 1.443 . S
C146 C147 1.340 . S
C146 H186 0.951 . S
C147 C146 1.340 . S
C147 C148 1.439 . S
C147 H187 0.950 . S
C148 C147 1.439 . S
C148 N149 1.374 . S
C148 C182 1.395 . S
N149 C145 1.376 . S
N149 C148 1.374 . S
N149 Co150 2.008 . S
Co150 N149 2.008 . S
Co150 N151 1.995 . S
Co150 N156 2.008 . S
Co150 N161 1.995 . S
Co150 N166 2.282 . S
Co150 N172 2.282 . S
N151 Co150 1.995 . S
N151 C152 1.376 . S
N151 C155 1.383 . S
C152 N151 1.376 . S
C152 C153 1.446 . S
C152 C182 1.391 . S
C153 C152 1.446 . S
C153 C154 1.339 . S
C153 H188 0.949 . S
C154 C153 1.339 . S
C154 C155 1.439 . S
C154 H189 0.950 . S
C155 N151 1.383 . S
C155 C154 1.439 . S
C155 C184 1.392 . S
N156 Co150 2.008 . S
N156 C157 1.376 . S
N156 C160 1.374 . S
C157 N156 1.376 . S
C157 C158 1.443 . S
C157 C184 1.389 . S
C158 C157 1.443 . S
C158 C159 1.340 . S
C158 H190 0.951 . S
C159 C158 1.340 . S
C159 C160 1.439 . S
C159 H191 0.950 . S
C160 N156 1.374 . S
C160 C159 1.439 . S
C160 C185 1.395 . S
N161 Co150 1.995 . S
N161 C162 1.376 . S
N161 C165 1.383 . S
C162 N161 1.376 . S
C162 C163 1.446 . S
C162 C185 1.391 . S
C163 C162 1.446 . S
C163 C164 1.339 . S
C163 H192 0.949 . S
C164 C163 1.339 . S
C164 C165 1.439 . S
C164 H193 0.950 . S
C165 N161 1.383 . S
C165 C164 1.439 . S
C165 C183 1.392 . S
N166 Co150 2.282 . S
N166 C169 1.332 . S
N166 C171 1.332 . S
C167 C168 1.386 . S
C167 C170 1.388 . S
C168 C167 1.386 . S
C168 C169 1.382 . S
C168 H194 0.950 . S
C169 N166 1.332 . S
C169 C168 1.382 . S
C169 H180 0.952 . S
C170 C167 1.388 . S
C170 C171 1.382 . S
C170 H195 0.950 . S
C171 N166 1.332 . S
C171 C170 1.382 . S
C171 H181 0.948 . S
N172 Co150 2.282 . S
N172 C176 1.332 . S
N172 C177 1.332 . S
C173 C174 1.388 . S
C173 C177 1.382 . S
C173 H196 0.950 . S
C174 C173 1.388 . S
C174 C175 1.386 . S
C175 C174 1.386 . S
C175 C176 1.382 . S
C175 H197 0.950 . S
C176 N172 1.332 . S
C176 C175 1.382 . S
C176 H178 0.952 . S
C177 N172 1.332 . S
C177 C173 1.382 . S
C177 H179 0.948 . S
H178 C176 0.952 . S
H179 C177 0.948 . S
H180 C169 0.952 . S
H181 C171 0.948 . S
C182 C148 1.395 . S
C182 C152 1.391 . S
C183 C145 1.389 . S
C183 C165 1.392 . S
C184 C155 1.392 . S
C184 C157 1.389 . S
C185 C160 1.395 . S
C185 C162 1.391 . S
H186 C146 0.951 . S
H187 C147 0.950 . S
H188 C153 0.949 . S
H189 C154 0.950 . S
H190 C158 0.951 . S
H191 C159 0.950 . S
H192 C163 0.949 . S
H193 C164 0.950 . S
H194 C168 0.950 . S
H195 C170 0.950 . S
H196 C173 0.950 . S
H197 C175 0.950 . S
H198 C199 0.951 . S
C199 H198 0.951 . S
C199 C205 1.265 . S
H200 C205 0.950 . S
H201 C209 0.949 . S
H202 C210 0.950 . S
H203 C211 0.951 . S
H204 C212 0.951 . S
C205 C199 1.265 . S
C205 H200 0.950 . S
C205 C206 1.478 . S
C206 C205 1.478 . S
C206 C207 1.397 . S
C206 C223 1.394 . S
C207 C206 1.397 . S
C207 C208 1.438 . S
C207 C212 1.429 1_455 S
C208 C207 1.438 . S
C208 C209 1.428 1_455 S
C208 C221 1.394 . S
C209 H201 0.949 . S
C209 C208 1.428 1_655 S
C209 C210 1.345 . S
C210 H202 0.950 . S
C210 C209 1.345 . S
C210 C211 1.424 . S
C211 H203 0.951 . S
C211 C210 1.424 . S
C211 C212 1.347 . S
C212 H204 0.951 . S
C212 C207 1.429 1_655 S
C212 C211 1.347 . S
H213 C214 0.951 . S
C214 H213 0.951 . S
C214 C220 1.265 . S
H215 C220 0.950 . S
H216 C224 0.949 . S
H217 C225 0.950 . S
H218 C226 0.951 . S
H219 C227 0.951 . S
C220 C214 1.265 . S
C220 H215 0.950 . S
C220 C221 1.478 . S
C221 C208 1.394 . S
C221 C220 1.478 . S
C221 C222 1.397 . S
C222 C221 1.397 . S
C222 C223 1.438 . S
C222 C227 1.429 . S
C223 C206 1.394 . S
C223 C222 1.438 . S
C223 C224 1.428 . S
C224 H216 0.949 . S
C224 C223 1.428 . S
C224 C225 1.345 . S
C225 H217 0.950 . S
C225 C224 1.345 . S
C225 C226 1.424 . S
C226 H218 0.951 . S
C226 C225 1.424 . S
C226 C227 1.347 . S
C227 H219 0.951 . S
C227 C222 1.429 . S
C227 C226 1.347 . S
H228 C229 0.951 . S
C229 H228 0.951 . S
C229 C235 1.265 . S
H230 C235 0.950 . S
H231 C239 0.949 . S
H232 C240 0.950 . S
H233 C241 0.951 . S
H234 C242 0.951 . S
C235 C229 1.265 . S
C235 H230 0.950 . S
C235 C236 1.478 . S
C236 C235 1.478 . S
C236 C237 1.397 . S
C236 C253 1.394 . S
C237 C236 1.397 . S
C237 C238 1.438 . S
C237 C242 1.429 . S
C238 C237 1.438 . S
C238 C239 1.428 . S
C238 C251 1.394 . S
C239 H231 0.949 . S
C239 C238 1.428 . S
C239 C240 1.345 . S
C240 H232 0.950 . S
C240 C239 1.345 . S
C240 C241 1.424 . S
C241 H233 0.951 . S
C241 C240 1.424 . S
C241 C242 1.347 . S
C242 H234 0.951 . S
C242 C237 1.429 . S
C242 C241 1.347 . S
H243 C244 0.951 . S
C244 H243 0.951 . S
C244 C250 1.265 . S
H245 C250 0.950 . S
H246 C254 0.949 . S
H247 C255 0.950 . S
H248 C256 0.951 . S
H249 C257 0.951 . S
C250 C244 1.265 . S
C250 H245 0.950 . S
C250 C251 1.478 . S
C251 C238 1.394 . S
C251 C250 1.478 . S
C251 C252 1.397 . S
C252 C251 1.397 . S
C252 C253 1.438 . S
C252 C257 1.429 1_545 S
C253 C236 1.394 . S
C253 C252 1.438 . S
C253 C254 1.428 1_545 S
C254 H246 0.949 . S
C254 C253 1.428 1_565 S
C254 C255 1.345 . S
C255 H247 0.950 . S
C255 C254 1.345 . S
C255 C256 1.424 . S
C256 H248 0.951 . S
C256 C255 1.424 . S
C256 C257 1.347 . S
C257 H249 0.951 . S
C257 C252 1.429 1_565 S
C257 C256 1.347 . S
H258 C259 0.951 . S
C259 H258 0.951 . S
C259 C265 1.265 . S
H260 C265 0.950 . S
H261 C269 0.949 . S
H262 C270 0.950 . S
H263 C271 0.951 . S
H264 C272 0.951 . S
C265 C259 1.265 . S
C265 H260 0.950 . S
C265 C266 1.478 . S
C266 C265 1.478 . S
C266 C267 1.397 . S
C266 C283 1.394 . S
C267 C266 1.397 . S
C267 C268 1.438 . S
C267 C272 1.429 . S
C268 C267 1.438 . S
C268 C269 1.428 . S
C268 C281 1.394 . S
C269 H261 0.949 . S
C269 C268 1.428 . S
C269 C270 1.345 . S
C270 H262 0.950 . S
C270 C269 1.345 . S
C270 C271 1.424 . S
C271 H263 0.951 . S
C271 C270 1.424 . S
C271 C272 1.347 . S
C272 H264 0.951 . S
C272 C267 1.429 . S
C272 C271 1.347 . S
H273 C274 0.951 . S
C274 H273 0.951 . S
C274 C280 1.265 . S
H275 C280 0.950 . S
H276 C284 0.949 . S
H277 C285 0.950 . S
H278 C286 0.951 . S
H279 C287 0.951 . S
C280 C274 1.265 . S
C280 H275 0.950 . S
C280 C281 1.478 . S
C281 C268 1.394 . S
C281 C280 1.478 . S
C281 C282 1.397 . S
C282 C281 1.397 . S
C282 C283 1.438 . S
C282 C287 1.429 . S
C283 C266 1.394 . S
C283 C282 1.438 . S
C283 C284 1.428 . S
C284 H276 0.949 . S
C284 C283 1.428 . S
C284 C285 1.345 . S
C285 H277 0.950 . S
C285 C284 1.345 . S
C285 C286 1.424 . S
C286 H278 0.951 . S
C286 C285 1.424 . S
C286 C287 1.347 . S
C287 H279 0.951 . S
C287 C282 1.429 . S
C287 C286 1.347 . S
H288 C289 0.951 . S
C289 H288 0.951 . S
C289 C295 1.265 . S
H290 C295 0.950 1_655 S
H291 C299 0.949 . S
H292 C300 0.950 . S
H293 C301 0.951 . S
H294 C302 0.951 . S
C295 C289 1.265 . S
C295 H290 0.950 1_455 S
C295 C296 1.478 . S
C296 C295 1.478 . S
C296 C297 1.397 . S
C296 C313 1.394 . S
C297 C296 1.397 . S
C297 C298 1.438 . S
C297 C302 1.429 . S
C298 C297 1.438 . S
C298 C299 1.428 . S
C298 C311 1.394 . S
C299 H291 0.949 . S
C299 C298 1.428 . S
C299 C300 1.345 . S
C300 H292 0.950 . S
C300 C299 1.345 . S
C300 C301 1.424 . S
C301 H293 0.951 . S
C301 C300 1.424 . S
C301 C302 1.347 . S
C302 H294 0.951 . S
C302 C297 1.429 . S
C302 C301 1.347 . S
H303 C304 0.951 . S
C304 H303 0.951 . S
C304 C310 1.265 . S
H305 C310 0.950 . S
H306 C314 0.949 . S
H307 C315 0.950 . S
H308 C316 0.951 . S
H309 C317 0.951 . S
C310 C304 1.265 . S
C310 H305 0.950 . S
C310 C311 1.478 . S
C311 C298 1.394 . S
C311 C310 1.478 . S
C311 C312 1.397 . S
C312 C311 1.397 . S
C312 C313 1.438 . S
C312 C317 1.429 . S
C313 C296 1.394 . S
C313 C312 1.438 . S
C313 C314 1.428 . S
C314 H306 0.949 . S
C314 C313 1.428 . S
C314 C315 1.345 . S
C315 H307 0.950 . S
C315 C314 1.345 . S
C315 C316 1.424 . S
C316 H308 0.951 . S
C316 C315 1.424 . S
C316 C317 1.347 . S
C317 H309 0.951 . S
C317 C312 1.429 . S
C317 C316 1.347 . S
H318 C319 0.951 . S
C319 H318 0.951 . S
C319 C325 1.265 . S
H320 C325 0.950 . S
H321 C329 0.949 . S
H322 C330 0.950 . S
H323 C331 0.951 . S
H324 C332 0.951 . S
C325 C319 1.265 . S
C325 H320 0.950 . S
C325 C326 1.478 . S
C326 C325 1.478 . S
C326 C327 1.397 . S
C326 C343 1.394 . S
C327 C326 1.397 . S
C327 C328 1.438 . S
C327 C332 1.429 . S
C328 C327 1.438 . S
C328 C329 1.428 . S
C328 C341 1.394 . S
C329 H321 0.949 . S
C329 C328 1.428 . S
C329 C330 1.345 . S
C330 H322 0.950 . S
C330 C329 1.345 . S
C330 C331 1.424 . S
C331 H323 0.951 . S
C331 C330 1.424 . S
C331 C332 1.347 . S
C332 H324 0.951 . S
C332 C327 1.429 . S
C332 C331 1.347 . S
H333 C334 0.951 . S
C334 H333 0.951 . S
C334 C340 1.265 . S
H335 C340 0.950 . S
H336 C344 0.949 . S
H337 C345 0.950 . S
H338 C346 0.951 . S
H339 C347 0.951 . S
C340 C334 1.265 . S
C340 H335 0.950 . S
C340 C341 1.478 . S
C341 C328 1.394 . S
C341 C340 1.478 . S
C341 C342 1.397 . S
C342 C341 1.397 . S
C342 C343 1.438 . S
C342 C347 1.429 1_545 S
C343 C326 1.394 . S
C343 C342 1.438 . S
C343 C344 1.428 1_545 S
C344 H336 0.949 . S
C344 C343 1.428 1_565 S
C344 C345 1.345 . S
C345 H337 0.950 . S
C345 C344 1.345 . S
C345 C346 1.424 . S
C346 H338 0.951 . S
C346 C345 1.424 . S
C346 C347 1.347 . S
C347 H339 0.951 . S
C347 C342 1.429 1_565 S
C347 C346 1.347 . S
H348 C349 0.951 . S
C349 H348 0.951 . S
C349 C355 1.265 . S
H350 C355 0.950 . S
H351 C359 0.949 . S
H352 C360 0.950 . S
H353 C361 0.951 . S
H354 C362 0.951 . S
C355 C349 1.265 . S
C355 H350 0.950 . S
C355 C356 1.478 . S
C356 C355 1.478 . S
C356 C357 1.397 . S
C356 C373 1.394 . S
C357 C356 1.397 . S
C357 C358 1.438 . S
C357 C362 1.429 . S
C358 C357 1.438 . S
C358 C359 1.428 . S
C358 C371 1.394 . S
C359 H351 0.949 . S
C359 C358 1.428 . S
C359 C360 1.345 . S
C360 H352 0.950 . S
C360 C359 1.345 . S
C360 C361 1.424 . S
C361 H353 0.951 . S
C361 C360 1.424 . S
C361 C362 1.347 . S
C362 H354 0.951 . S
C362 C357 1.429 . S
C362 C361 1.347 . S
H363 C364 0.951 . S
C364 H363 0.951 . S
C364 C370 1.265 . S
H365 C370 0.950 . S
H366 C374 0.949 . S
H367 C375 0.950 . S
H368 C376 0.951 . S
H369 C377 0.951 . S
C370 C364 1.265 . S
C370 H365 0.950 . S
C370 C371 1.478 . S
C371 C358 1.394 . S
C371 C370 1.478 . S
C371 C372 1.397 . S
C372 C371 1.397 . S
C372 C373 1.438 . S
C372 C377 1.429 . S
C373 C356 1.394 . S
C373 C372 1.438 . S
C373 C374 1.428 . S
C374 H366 0.949 . S
C374 C373 1.428 . S
C374 C375 1.345 . S
C375 H367 0.950 . S
C375 C374 1.345 . S
C375 C376 1.424 . S
C376 H368 0.951 . S
C376 C375 1.424 . S
C376 C377 1.347 . S
C377 H369 0.951 . S
C377 C372 1.429 . S
C377 C376 1.347 . S
H378 C379 0.951 . S
C379 H378 0.951 . S
C379 C385 1.265 . S
H380 C385 0.950 . S
H381 C389 0.949 . S
H382 C390 0.950 . S
H383 C391 0.951 . S
H384 C392 0.951 . S
C385 C379 1.265 . S
C385 H380 0.950 . S
C385 C386 1.478 . S
C386 C385 1.478 . S
C386 C387 1.397 . S
C386 C403 1.402 . S
C387 C386 1.397 . S
C387 C388 1.438 . S
C387 C392 1.429 . S
C388 C387 1.438 . S
C388 C389 1.428 . S
C388 C401 1.394 . S
C389 H381 0.949 . S
C389 C388 1.428 . S
C389 C390 1.345 . S
C390 H382 0.950 . S
C390 C389 1.345 . S
C390 C391 1.424 . S
C391 H383 0.951 . S
C391 C390 1.424 . S
C391 C392 1.347 . S
C392 H384 0.951 . S
C392 C387 1.429 . S
C392 C391 1.347 . S
H393 C394 0.951 . S
C394 H393 0.951 . S
C394 C400 1.265 . S
H395 C400 0.950 . S
H396 C404 0.949 . S
H397 C405 0.950 . S
H398 C406 0.951 . S
H399 C407 0.951 . S
C400 C394 1.265 . S
C400 H395 0.950 . S
C400 C401 1.478 . S
C401 C388 1.394 . S
C401 C400 1.478 . S
C401 C402 1.397 . S
C402 C401 1.397 . S
C402 C403 1.442 . S
C402 C407 1.429 1_545 S
C403 C386 1.402 . S
C403 C402 1.442 . S
C403 C404 1.416 1_545 S
C404 H396 0.949 . S
C404 C403 1.416 1_565 S
C404 C405 1.345 . S
C405 H397 0.950 . S
C405 C404 1.345 . S
C405 C406 1.424 . S
C406 H398 0.951 . S
C406 C405 1.424 . S
C406 C407 1.347 . S
C407 H399 0.951 . S
C407 C402 1.429 1_565 S
C407 C406 1.347 . S
H408 C409 0.942 1_556 S
C409 H408 0.942 1_554 S
C409 C415 1.244 1_554 S
H410 C415 0.950 . S
H411 C419 0.949 . S
H412 C420 0.950 . S
H413 C421 0.951 . S
H414 C422 0.951 . S
C415 C409 1.244 1_556 S
C415 H410 0.950 . S
C415 C416 1.478 . S
C416 C415 1.478 . S
C416 C417 1.397 . S
C416 C433 1.394 . S
C417 C416 1.397 . S
C417 C418 1.438 . S
C417 C422 1.429 1_556 S
C418 C417 1.438 . S
C418 C419 1.428 . S
C418 C431 1.394 . S
C419 H411 0.949 . S
C419 C418 1.428 . S
C419 C420 1.345 1_556 S
C420 H412 0.950 . S
C420 C419 1.345 1_554 S
C420 C421 1.424 . S
C421 H413 0.951 . S
C421 C420 1.424 . S
C421 C422 1.347 . S
C422 H414 0.951 . S
C422 C417 1.429 1_554 S
C422 C421 1.347 . S
H423 C424 0.951 . S
C424 H423 0.951 . S
C424 C430 1.265 . S
H425 C430 0.950 . S
H426 C434 0.949 . S
H427 C435 0.950 . S
H428 C436 0.951 . S
H429 C437 0.951 . S
C430 C424 1.265 . S
C430 H425 0.950 . S
C430 C431 1.478 . S
C431 C418 1.394 . S
C431 C430 1.478 . S
C431 C432 1.397 . S
C432 C431 1.397 . S
C432 C433 1.438 . S
C432 C437 1.429 . S
C433 C416 1.394 . S
C433 C432 1.438 . S
C433 C434 1.428 . S
C434 H426 0.949 . S
C434 C433 1.428 . S
C434 C435 1.345 . S
C435 H427 0.950 . S
C435 C434 1.345 . S
C435 C436 1.424 . S
C436 H428 0.951 . S
C436 C435 1.424 . S
C436 C437 1.347 . S
C437 H429 0.951 . S
C437 C432 1.429 . S
C437 C436 1.347 . S
H438 C439 0.951 . S
C439 H438 0.951 . S
C439 C445 1.265 . S
H440 C445 0.950 . S
H441 C449 0.949 . S
H442 C450 0.950 . S
H443 C451 0.951 . S
H444 C452 0.951 . S
C445 C439 1.265 . S
C445 H440 0.950 . S
C445 C446 1.478 . S
C446 C445 1.478 . S
C446 C447 1.397 . S
C446 C463 1.394 . S
C447 C446 1.397 . S
C447 C448 1.438 . S
C447 C452 1.429 . S
C448 C447 1.438 . S
C448 C449 1.428 . S
C448 C461 1.394 . S
C449 H441 0.949 . S
C449 C448 1.428 . S
C449 C450 1.345 . S
C450 H442 0.950 . S
C450 C449 1.345 . S
C450 C451 1.424 . S
C451 H443 0.951 . S
C451 C450 1.424 . S
C451 C452 1.347 . S
C452 H444 0.951 . S
C452 C447 1.429 . S
C452 C451 1.347 . S
H453 C454 0.951 . S
C454 H453 0.951 . S
C454 C460 1.265 . S
H455 C460 0.950 1_655 S
H456 C464 0.949 . S
H457 C465 0.950 . S
H458 C466 0.951 . S
H459 C467 0.951 . S
C460 C454 1.265 . S
C460 H455 0.950 1_455 S
C460 C461 1.478 . S
C461 C448 1.394 . S
C461 C460 1.478 . S
C461 C462 1.397 . S
C462 C461 1.397 . S
C462 C463 1.438 . S
C462 C467 1.429 . S
C463 C446 1.394 . S
C463 C462 1.438 . S
C463 C464 1.428 . S
C464 H456 0.949 . S
C464 C463 1.428 . S
C464 C465 1.345 . S
C465 H457 0.950 . S
C465 C464 1.345 . S
C465 C466 1.424 . S
C466 H458 0.951 . S
C466 C465 1.424 . S
C466 C467 1.347 . S
C467 H459 0.951 . S
C467 C462 1.429 . S
C467 C466 1.347 . S
H468 C469 0.951 . S
C469 H468 0.951 . S
C469 C475 1.265 . S
H470 C475 0.950 . S
H471 C479 0.949 . S
H472 C480 0.950 . S
H473 C481 0.951 . S
H474 C482 0.951 . S
C475 C469 1.265 . S
C475 H470 0.950 . S
C475 C476 1.478 . S
C476 C475 1.478 . S
C476 C477 1.397 . S
C476 C493 1.394 . S
C477 C476 1.397 . S
C477 C478 1.438 . S
C477 C482 1.429 1_545 S
C478 C477 1.438 . S
C478 C479 1.428 1_545 S
C478 C491 1.394 . S
C479 H471 0.949 . S
C479 C478 1.428 1_565 S
C479 C480 1.345 . S
C480 H472 0.950 . S
C480 C479 1.345 . S
C480 C481 1.424 . S
C481 H473 0.951 . S
C481 C480 1.424 . S
C481 C482 1.347 . S
C482 H474 0.951 . S
C482 C477 1.429 1_565 S
C482 C481 1.347 . S
H483 C484 0.951 . S
C484 H483 0.951 . S
C484 C490 1.265 . S
H485 C490 0.950 . S
H486 C494 0.949 . S
H487 C495 0.950 . S
H488 C496 0.951 . S
H489 C497 0.951 . S
C490 C484 1.265 . S
C490 H485 0.950 . S
C490 C491 1.478 . S
C491 C478 1.394 . S
C491 C490 1.478 . S
C491 C492 1.397 . S
C492 C491 1.397 . S
C492 C493 1.438 . S
C492 C497 1.429 . S
C493 C476 1.394 . S
C493 C492 1.438 . S
C493 C494 1.428 . S
C494 H486 0.949 . S
C494 C493 1.428 . S
C494 C495 1.345 . S
C495 H487 0.950 . S
C495 C494 1.345 . S
C495 C496 1.424 . S
C496 H488 0.951 . S
C496 C495 1.424 . S
C496 C497 1.347 . S
C497 H489 0.951 . S
C497 C492 1.429 . S
C497 C496 1.347 . S
H498 C499 0.951 . S
C499 H498 0.951 . S
C499 C505 1.265 . S
H500 C505 0.950 1_554 S
H501 C509 0.949 . S
H502 C510 0.950 . S
H503 C511 0.951 . S
H504 C512 0.951 . S
C505 C499 1.265 . S
C505 H500 0.950 1_556 S
C505 C506 1.478 . S
C506 C505 1.478 . S
C506 C507 1.397 . S
C506 C523 1.394 . S
C507 C506 1.397 . S
C507 C508 1.438 . S
C507 C512 1.429 1_556 S
C508 C507 1.438 . S
C508 C509 1.428 . S
C508 C521 1.394 . S
C509 H501 0.949 . S
C509 C508 1.428 . S
C509 C510 1.345 . S
C510 H502 0.950 . S
C510 C509 1.345 . S
C510 C511 1.424 1_556 S
C511 H503 0.951 . S
C511 C510 1.424 1_554 S
C511 C512 1.347 . S
C512 H504 0.951 . S
C512 C507 1.429 1_554 S
C512 C511 1.347 . S
H513 C514 0.951 . S
C514 H513 0.951 . S
C514 C520 1.265 . S
H515 C520 0.950 . S
H516 C524 0.949 . S
H517 C525 0.950 . S
H518 C526 0.951 . S
H519 C527 0.951 . S
C520 C514 1.265 . S
C520 H515 0.950 . S
C520 C521 1.478 . S
C521 C508 1.394 . S
C521 C520 1.478 . S
C521 C522 1.397 . S
C522 C521 1.397 . S
C522 C523 1.438 . S
C522 C527 1.429 . S
C523 C506 1.394 . S
C523 C522 1.438 . S
C523 C524 1.428 . S
C524 H516 0.949 . S
C524 C523 1.428 . S
C524 C525 1.345 . S
C525 H517 0.950 . S
C525 C524 1.345 . S
C525 C526 1.424 . S
C526 H518 0.951 . S
C526 C525 1.424 . S
C526 C527 1.347 . S
C527 H519 0.951 . S
C527 C522 1.429 . S
C527 C526 1.347 . S
H528 C529 0.951 . S
C529 H528 0.951 . S
C529 C535 1.265 . S
H530 C535 0.950 1_655 S
H531 C539 0.949 . S
H532 C540 0.950 . S
H533 C541 0.951 . S
H534 C542 0.951 . S
C535 C529 1.265 . S
C535 H530 0.950 1_455 S
C535 C536 1.478 . S
C536 C535 1.478 . S
C536 C537 1.397 . S
C536 C553 1.394 . S
C537 C536 1.397 . S
C537 C538 1.438 . S
C537 C542 1.429 . S
C538 C537 1.438 . S
C538 C539 1.428 . S
C538 C551 1.394 . S
C539 H531 0.949 . S
C539 C538 1.428 . S
C539 C540 1.345 . S
C540 H532 0.950 . S
C540 C539 1.345 . S
C540 C541 1.424 . S
C541 H533 0.951 . S
C541 C540 1.424 . S
C541 C542 1.347 . S
C542 H534 0.951 . S
C542 C537 1.429 . S
C542 C541 1.347 . S
H543 C544 0.951 . S
C544 H543 0.951 . S
C544 C550 1.265 . S
H545 C550 0.950 . S
H546 C554 0.949 . S
H547 C555 0.950 . S
H548 C556 0.951 1_655 S
H549 C557 0.951 . S
C550 C544 1.265 . S
C550 H545 0.950 . S
C550 C551 1.478 . S
C551 C538 1.394 . S
C551 C550 1.478 . S
C551 C552 1.397 . S
C552 C551 1.397 . S
C552 C553 1.438 . S
C552 C557 1.429 . S
C553 C536 1.394 . S
C553 C552 1.438 . S
C553 C554 1.428 1_455 S
C554 H546 0.949 . S
C554 C553 1.428 1_655 S
C554 C555 1.345 . S
C555 H547 0.950 . S
C555 C554 1.345 . S
C555 C556 1.424 1_655 S
C556 H548 0.951 1_455 S
C556 C555 1.424 1_455 S
C556 C557 1.347 . S
C557 H549 0.951 . S
C557 C552 1.429 . S
C557 C556 1.347 . S
C214 C61 1.509 . S
C199 C10 1.510 . S
C229 C17 1.505 . S
C244 C131 1.513 . S
C259 C36 1.509 . S
C274 C183 1.509 . S
C289 C5 1.510 . S
C304 C77 1.510 . S
C334 C121 1.507 . S
C319 C16 1.510 . S
C349 C31 1.509 . S
C364 C167 1.512 . S
C394 C114 1.505 . S
C379 C30 1.511 . S
C409 C3 1.543 . S
C424 C174 1.513 . S
C454 C68 1.508 . S
C439 C18 1.509 1_565 S
C484 C130 1.506 . S
C469 C29 1.511 . S
C514 C184 1.504 . S
C499 C4 1.512 1_556 S
C529 C23 1.510 . S
C544 C78 1.504 . S
