# Generated by pormake.
# Topology pyr, (3,6)-cn, num edge types: 1
# Building blocks:
#     Node 0, Type 0, BuildingBlock: WUSLED_clean_sbu_0, # of connection points: 3
#     Node 1, Type 0, BuildingBlock: WUSLED_clean_sbu_0, # of connection points: 3
#     Node 2, Type 0, BuildingBlock: WUSLED_clean_sbu_0, # of connection points: 3
#     Node 3, Type 0, BuildingBlock: WUSLED_clean_sbu_0, # of connection points: 3
#     Node 4, Type 0, BuildingBlock: WUSLED_clean_sbu_0, # of connection points: 3
#     Node 5, Type 0, BuildingBlock: WUSLED_clean_sbu_0, # of connection points: 3
#     Node 6, Type 0, BuildingBlock: WUSLED_clean_sbu_0, # of connection points: 3
#     Node 7, Type 0, BuildingBlock: WUSLED_clean_sbu_0, # of connection points: 3
#     Node 8, Type 1, BuildingBlock: LEVNOQ01_clean_sbu_1, # of connection points: 6
#     Node 9, Type 1, BuildingBlock: LEVNOQ01_clean_sbu_1, # of connection points: 6
#     Node 10, Type 1, BuildingBlock: LEVNOQ01_clean_sbu_1, # of connection points: 6
#     Node 11, Type 1, BuildingBlock: LEVNOQ01_clean_sbu_1, # of connection points: 6
#     Edge 12, Type (0, 1), BuildingBlock: ZUJKAS_clean_linker_0, # of connection points: 2
#     Edge 13, Type (0, 1), BuildingBlock: ZUJKAS_clean_linker_0, # of connection points: 2
#     Edge 14, Type (0, 1), BuildingBlock: ZUJKAS_clean_linker_0, # of connection points: 2
#     Edge 15, Type (0, 1), BuildingBlock: ZUJKAS_clean_linker_0, # of connection points: 2
#     Edge 16, Type (0, 1), BuildingBlock: ZUJKAS_clean_linker_0, # of connection points: 2
#     Edge 17, Type (0, 1), BuildingBlock: ZUJKAS_clean_linker_0, # of connection points: 2
#     Edge 18, Type (0, 1), BuildingBlock: ZUJKAS_clean_linker_0, # of connection points: 2
#     Edge 19, Type (0, 1), BuildingBlock: ZUJKAS_clean_linker_0, # of connection points: 2
#     Edge 20, Type (0, 1), BuildingBlock: ZUJKAS_clean_linker_0, # of connection points: 2
#     Edge 21, Type (0, 1), BuildingBlock: ZUJKAS_clean_linker_0, # of connection points: 2
#     Edge 22, Type (0, 1), BuildingBlock: ZUJKAS_clean_linker_0, # of connection points: 2
#     Edge 23, Type (0, 1), BuildingBlock: ZUJKAS_clean_linker_0, # of connection points: 2
#     Edge 24, Type (0, 1), BuildingBlock: ZUJKAS_clean_linker_0, # of connection points: 2
#     Edge 25, Type (0, 1), BuildingBlock: ZUJKAS_clean_linker_0, # of connection points: 2
#     Edge 26, Type (0, 1), BuildingBlock: ZUJKAS_clean_linker_0, # of connection points: 2
#     Edge 27, Type (0, 1), BuildingBlock: ZUJKAS_clean_linker_0, # of connection points: 2
#     Edge 28, Type (0, 1), BuildingBlock: ZUJKAS_clean_linker_0, # of connection points: 2
#     Edge 29, Type (0, 1), BuildingBlock: ZUJKAS_clean_linker_0, # of connection points: 2
#     Edge 30, Type (0, 1), BuildingBlock: ZUJKAS_clean_linker_0, # of connection points: 2
#     Edge 31, Type (0, 1), BuildingBlock: ZUJKAS_clean_linker_0, # of connection points: 2
#     Edge 32, Type (0, 1), BuildingBlock: ZUJKAS_clean_linker_0, # of connection points: 2
#     Edge 33, Type (0, 1), BuildingBlock: ZUJKAS_clean_linker_0, # of connection points: 2
#     Edge 34, Type (0, 1), BuildingBlock: ZUJKAS_clean_linker_0, # of connection points: 2
#     Edge 35, Type (0, 1), BuildingBlock: ZUJKAS_clean_linker_0, # of connection points: 2
# Relax obj value: 0.034
# Max RMSD: 0.110
# Mean RMSD: 0.044
data_MOF--net-pry--node1-WUSLED_clean_sbu_0--node2-LEVNOQ01_clean_sbu_1--edge1-ZUJKAS_clean_linker_0
_symmetry_space_group_name_H-M    P1
_symmetry_Int_Tables_number       1
_symmetry_cell_setting            triclinic
loop_
_symmetry_equiv_pos_as_xyz
'x, y, z'
_cell_length_a     59.349613
_cell_length_b     57.482302
_cell_length_c     57.272137
_cell_angle_alpha  91.769816
_cell_angle_beta   91.492411
_cell_angle_gamma 93.984011
loop_
_atom_site_label
_atom_site_type_symbol
_atom_site_fract_x
_atom_site_fract_y
_atom_site_fract_z
_atom_type_partial_charge
C0 C 0.15598 0.22477 0.12299 0.0
C1 C 0.14198 0.23666 0.13797 0.0
C2 C 0.13136 0.26179 0.10627 0.0
C3 C 0.12977 0.25498 0.12968 0.0
C4 C 0.14525 0.24954 0.09138 0.0
C5 C 0.15738 0.2313 0.09966 0.0
U6 U 0.17402 0.17859 0.16692 0.0
O7 O 0.18421 0.14302 0.15904 0.0
O8 O 0.20837 0.16912 0.17617 0.0
C9 C 0.20519 0.14806 0.16648 0.0
C10 C 0.16968 0.20587 0.13112 0.0
C11 C 0.22341 0.13973 0.15155 0.0
C12 C 0.26157 0.14425 0.13651 0.0
C13 C 0.24366 0.1534 0.14848 0.0
C14 C 0.23933 0.10768 0.12999 0.0
C15 C 0.25979 0.12115 0.12731 0.0
C16 C 0.22146 0.11682 0.14201 0.0
C17 C 0.14306 0.17185 0.22589 0.0
C18 C 0.14019 0.13899 0.25187 0.0
C19 C 0.12874 0.17665 0.2651 0.0
C20 C 0.13459 0.18592 0.24359 0.0
C21 C 0.13116 0.15297 0.26951 0.0
C22 C 0.14606 0.14832 0.23027 0.0
C23 C 0.14744 0.18206 0.20284 0.0
O24 O 0.18361 0.21105 0.14904 0.0
O25 O 0.15922 0.18504 0.13217 0.0
O26 O 0.14224 0.16862 0.18421 0.0
O27 O 0.16652 0.19484 0.20103 0.0
H28 H 0.14066 0.23193 0.15607 0.0
H29 H 0.11942 0.26408 0.14173 0.0
H30 H 0.14665 0.25392 0.0732 0.0
H31 H 0.16801 0.22231 0.08778 0.0
H32 H 0.2771 0.15512 0.13514 0.0
H33 H 0.24595 0.17103 0.15581 0.0
H34 H 0.23711 0.08996 0.12291 0.0
H35 H 0.2062 0.10573 0.14425 0.0
H36 H 0.14216 0.12066 0.2545 0.0
H37 H 0.12227 0.1881 0.27831 0.0
H38 H 0.13217 0.20412 0.24065 0.0
H39 H 0.15257 0.13708 0.21689 0.0
C40 C 0.30143 0.8684 0.60358 0.0
C41 C 0.29855 0.89192 0.60925 0.0
C42 C 0.26178 0.88903 0.58878 0.0
C43 C 0.27896 0.90215 0.60185 0.0
C44 C 0.26472 0.86538 0.58341 0.0
C45 C 0.28436 0.85522 0.59071 0.0
U46 U 0.35255 0.86289 0.64496 0.0
O47 O 0.36745 0.83141 0.65747 0.0
O48 O 0.38762 0.8562 0.63677 0.0
C49 C 0.38645 0.83583 0.64664 0.0
C50 C 0.32213 0.85736 0.61071 0.0
C51 C 0.39441 0.81628 0.63259 0.0
C52 C 0.38919 0.78694 0.60098 0.0
C53 C 0.38142 0.80587 0.61374 0.0
C54 C 0.42309 0.78889 0.62565 0.0
C55 C 0.41008 0.7781 0.6069 0.0
C56 C 0.41531 0.80775 0.63834 0.0
C57 C 0.36071 0.90456 0.69916 0.0
C58 C 0.39441 0.90939 0.72445 0.0
C59 C 0.36028 0.927 0.73582 0.0
C60 C 0.34929 0.91791 0.71529 0.0
C61 C 0.38303 0.92295 0.74068 0.0
C62 C 0.38334 0.90025 0.70389 0.0
C63 C 0.34864 0.89548 0.67758 0.0
O64 O 0.3412 0.87025 0.60927 0.0
O65 O 0.32091 0.84555 0.62997 0.0
O66 O 0.3388 0.87434 0.67844 0.0
O67 O 0.35904 0.89924 0.65792 0.0
H68 H 0.3115 0.90242 0.61924 0.0
H69 H 0.27747 0.92046 0.60608 0.0
H70 H 0.25175 0.85461 0.57376 0.0
H71 H 0.28622 0.837 0.58627 0.0
H72 H 0.37864 0.77896 0.58681 0.0
H73 H 0.36521 0.81225 0.60904 0.0
H74 H 0.4394 0.78286 0.63046 0.0
H75 H 0.42562 0.81564 0.65276 0.0
H76 H 0.41197 0.90609 0.72746 0.0
H77 H 0.35083 0.93696 0.74804 0.0
H78 H 0.33178 0.92133 0.712 0.0
H79 H 0.39246 0.88994 0.69165 0.0
C80 C 0.64085 0.34 0.76933 0.0
C81 C 0.65018 0.36282 0.76658 0.0
C82 C 0.62871 0.36517 0.72989 0.0
C83 C 0.64417 0.3753 0.74701 0.0
C84 C 0.61963 0.34219 0.73273 0.0
C85 C 0.62565 0.32976 0.75226 0.0
U86 U 0.67356 0.33266 0.82702 0.0
O87 O 0.66198 0.31697 0.85952 0.0
O88 O 0.68888 0.30157 0.83997 0.0
C89 C 0.67514 0.2996 0.85753 0.0
C90 C 0.64665 0.32662 0.78984 0.0
C91 C 0.66401 0.27629 0.86055 0.0
C92 C 0.63811 0.24373 0.84705 0.0
C93 C 0.64926 0.26553 0.84327 0.0
C94 C 0.65659 0.24325 0.88525 0.0
C95 C 0.64146 0.23249 0.86822 0.0
C96 C 0.66774 0.26494 0.88143 0.0
C97 C 0.71565 0.38013 0.85275 0.0
C98 C 0.74177 0.373 0.88473 0.0
C99 C 0.73855 0.41234 0.87166 0.0
C100 C 0.72217 0.404 0.85487 0.0
C101 C 0.74879 0.39691 0.88662 0.0
C102 C 0.72531 0.3647 0.86799 0.0
C103 C 0.69903 0.3715 0.83441 0.0
O104 O 0.66731 0.31976 0.7907 0.0
O105 O 0.64013 0.33489 0.81004 0.0
O106 O 0.67799 0.36888 0.84099 0.0
O107 O 0.70502 0.35394 0.82126 0.0
H108 H 0.66196 0.371 0.77964 0.0
H109 H 0.65128 0.39305 0.74553 0.0
H110 H 0.60794 0.33373 0.71977 0.0
H111 H 0.61838 0.31211 0.75407 0.0
H112 H 0.62643 0.23599 0.83369 0.0
H113 H 0.64614 0.27414 0.82705 0.0
H114 H 0.65979 0.23491 0.9016 0.0
H115 H 0.67911 0.27299 0.89492 0.0
H116 H 0.74942 0.36057 0.89574 0.0
H117 H 0.74322 0.43089 0.87286 0.0
H118 H 0.71474 0.41618 0.84338 0.0
H119 H 0.72038 0.34619 0.86668 0.0
C120 C 0.81147 0.62068 0.37089 0.0
C121 C 0.80338 0.63544 0.38826 0.0
C122 C 0.77324 0.60607 0.39644 0.0
C123 C 0.7844 0.62826 0.40084 0.0
C124 C 0.78186 0.59112 0.37942 0.0
C125 C 0.80077 0.5984 0.36673 0.0
U126 U 0.86355 0.66131 0.36334 0.0
O127 O 0.89637 0.65559 0.34786 0.0
O128 O 0.87478 0.6812 0.33305 0.0
C129 C 0.89307 0.6698 0.33073 0.0
C130 C 0.83076 0.62858 0.3568 0.0
C131 C 0.89659 0.66033 0.30704 0.0
C132 C 0.88622 0.63273 0.27488 0.0
C133 C 0.88283 0.64135 0.29757 0.0
C134 C 0.91709 0.66206 0.27088 0.0
C135 C 0.9034 0.64299 0.26123 0.0
C136 C 0.9137 0.67062 0.29356 0.0
C137 C 0.87854 0.70567 0.41472 0.0
C138 C 0.91422 0.72668 0.42658 0.0
C139 C 0.87891 0.74108 0.43904 0.0
C140 C 0.86702 0.72233 0.42713 0.0
C141 C 0.90264 0.7435 0.4389 0.0
C142 C 0.90226 0.70794 0.41449 0.0
C143 C 0.86524 0.68593 0.40284 0.0
O144 O 0.82991 0.6497 0.34879 0.0
O145 O 0.85079 0.6245 0.3654 0.0
O146 O 0.8752 0.66633 0.40003 0.0
O147 O 0.85299 0.69106 0.38451 0.0
H148 H 0.81151 0.65269 0.39182 0.0
H149 H 0.77814 0.64036 0.41357 0.0
H150 H 0.77399 0.57377 0.37585 0.0
H151 H 0.80691 0.5867 0.35352 0.0
H152 H 0.87521 0.6182 0.26794 0.0
H153 H 0.86943 0.63327 0.3077 0.0
H154 H 0.93066 0.67017 0.26102 0.0
H155 H 0.92448 0.6853 0.3006 0.0
H156 H 0.93249 0.72823 0.42595 0.0
H157 H 0.86952 0.75359 0.44858 0.0
H158 H 0.84874 0.7208 0.42767 0.0
H159 H 0.91154 0.69531 0.40499 0.0
C160 C 0.85569 0.80228 0.89909 0.0
C161 C 0.87796 0.7993 0.89246 0.0
C162 C 0.87925 0.76466 0.91624 0.0
C163 C 0.88962 0.78067 0.90093 0.0
C164 C 0.8568 0.76762 0.92244 0.0
C165 C 0.84522 0.78618 0.91399 0.0
U166 U 0.84186 0.85261 0.85806 0.0
O167 O 0.80856 0.86463 0.84837 0.0
O168 O 0.83325 0.88827 0.86808 0.0
C169 C 0.81252 0.88499 0.85937 0.0
C170 C 0.84322 0.8224 0.89171 0.0
C171 C 0.79425 0.89354 0.87391 0.0
C172 C 0.75923 0.88734 0.89502 0.0
C173 C 0.77729 0.8784 0.88305 0.0
C174 C 0.77502 0.92662 0.88934 0.0
C175 C 0.75768 0.91162 0.89808 0.0
C176 C 0.793 0.91769 0.8774 0.0
C177 C 0.87619 0.86291 0.80172 0.0
C178 C 0.86655 0.88351 0.76659 0.0
C179 C 0.90512 0.87399 0.77393 0.0
C180 C 0.89869 0.86356 0.79473 0.0
C181 C 0.88916 0.88408 0.75948 0.0
C182 C 0.86014 0.87307 0.78752 0.0
C183 C 0.87006 0.85072 0.82335 0.0
O184 O 0.85449 0.84294 0.89267 0.0
O185 O 0.82996 0.81912 0.87298 0.0
O186 O 0.85029 0.83886 0.82328 0.0
O187 O 0.87505 0.86222 0.84321 0.0
H188 H 0.88644 0.81152 0.88101 0.0
H189 H 0.90692 0.77912 0.89588 0.0
H190 H 0.84805 0.7555 0.93378 0.0
H191 H 0.82804 0.7881 0.91931 0.0
H192 H 0.74616 0.87521 0.90129 0.0
H193 H 0.77775 0.85968 0.8806 0.0
H194 H 0.77472 0.94536 0.89168 0.0
H195 H 0.80582 0.92975 0.87052 0.0
H196 H 0.85384 0.89131 0.75609 0.0
H197 H 0.92258 0.87371 0.76896 0.0
H198 H 0.91135 0.85569 0.80529 0.0
H199 H 0.84265 0.87285 0.79253 0.0
C200 C 0.62257 0.14366 0.33003 0.0
C201 C 0.63907 0.13607 0.31494 0.0
C202 C 0.60982 0.11642 0.28919 0.0
C203 C 0.63274 0.12269 0.29467 0.0
C204 C 0.59341 0.12359 0.30466 0.0
C205 C 0.59974 0.13713 0.32482 0.0
U206 U 0.66226 0.16291 0.38196 0.0
O207 O 0.67369 0.1982 0.39545 0.0
O208 O 0.65473 0.174 0.41787 0.0
C209 C 0.66379 0.19531 0.41551 0.0
C210 C 0.62874 0.15877 0.35089 0.0
C211 C 0.65039 0.21453 0.42359 0.0
C212 C 0.61472 0.2326 0.4275 0.0
C213 C 0.62698 0.21421 0.41918 0.0
C214 C 0.64915 0.25191 0.44443 0.0
C215 C 0.62565 0.25169 0.44031 0.0
C216 C 0.66134 0.23352 0.43619 0.0
C217 C 0.71607 0.12997 0.39113 0.0
C218 C 0.74397 0.13836 0.4227 0.0
C219 C 0.74961 0.10815 0.39341 0.0
C220 C 0.72921 0.11261 0.38227 0.0
C221 C 0.75734 0.12102 0.41372 0.0
C222 C 0.72351 0.14283 0.41145 0.0
C223 C 0.69477 0.13425 0.37878 0.0
O224 O 0.62802 0.1485 0.37108 0.0
O225 O 0.64656 0.17347 0.34913 0.0
O226 O 0.69468 0.15386 0.3676 0.0
O227 O 0.67619 0.12955 0.39024 0.0
H228 H 0.65683 0.14068 0.31869 0.0
H229 H 0.64581 0.11721 0.28329 0.0
H230 H 0.57562 0.11926 0.30085 0.0
H231 H 0.58674 0.14278 0.33621 0.0
H232 H 0.59664 0.2317 0.42416 0.0
H233 H 0.61819 0.19972 0.40944 0.0
H234 H 0.65826 0.26645 0.45379 0.0
H235 H 0.67941 0.23415 0.43967 0.0
H236 H 0.7495 0.14871 0.43817 0.0
H237 H 0.75922 0.09441 0.38623 0.0
H238 H 0.72368 0.10244 0.36666 0.0
H239 H 0.71355 0.15635 0.41853 0.0
C240 C 0.27695 0.65513 0.1887 0.0
C241 C 0.27377 0.66562 0.16715 0.0
C242 C 0.24181 0.63774 0.15737 0.0
C243 C 0.25638 0.65695 0.15158 0.0
C244 C 0.24518 0.62731 0.17898 0.0
C245 C 0.2626 0.63593 0.19447 0.0
U246 U 0.32243 0.70198 0.20906 0.0
O247 O 0.33203 0.71595 0.24435 0.0
O248 O 0.35683 0.69863 0.22339 0.0
C249 C 0.35218 0.70777 0.24387 0.0
C250 C 0.29502 0.66409 0.20534 0.0
C251 C 0.35895 0.69464 0.26431 0.0
C252 C 0.35025 0.66788 0.29548 0.0
C253 C 0.34333 0.67996 0.27596 0.0
C254 C 0.38848 0.68476 0.29169 0.0
C255 C 0.37294 0.6701 0.30352 0.0
C256 C 0.38152 0.69692 0.27232 0.0
C257 C 0.33133 0.75655 0.17232 0.0
C258 C 0.36269 0.78592 0.17796 0.0
C259 C 0.33319 0.79106 0.1489 0.0
C260 C 0.32213 0.76996 0.15495 0.0
C261 C 0.35377 0.79917 0.16009 0.0
C262 C 0.35155 0.76474 0.18401 0.0
C263 C 0.31985 0.73385 0.17739 0.0
O264 O 0.31553 0.6654 0.19711 0.0
O265 O 0.29063 0.68266 0.21793 0.0
O266 O 0.30756 0.73337 0.19615 0.0
O267 O 0.33206 0.71575 0.17509 0.0
H268 H 0.28466 0.68056 0.16245 0.0
H269 H 0.25411 0.66552 0.13519 0.0
H270 H 0.23447 0.6123 0.18385 0.0
H271 H 0.26485 0.62759 0.211 0.0
H272 H 0.33794 0.65652 0.30405 0.0
H273 H 0.32583 0.6778 0.26996 0.0
H274 H 0.40601 0.68703 0.29757 0.0
H275 H 0.39381 0.70818 0.26359 0.0
H276 H 0.37857 0.79156 0.18679 0.0
H277 H 0.32565 0.801 0.13536 0.0
H278 H 0.30646 0.76395 0.14584 0.0
H279 H 0.35888 0.75457 0.19751 0.0
C280 C 0.11408 0.3296 0.64653 0.0
C281 C 0.12671 0.31978 0.62883 0.0
C282 C 0.09352 0.29554 0.61464 0.0
C283 C 0.11656 0.30286 0.6131 0.0
C284 C 0.08082 0.30601 0.63202 0.0
C285 C 0.09104 0.32283 0.64784 0.0
U286 U 0.16256 0.37337 0.66433 0.0
O287 O 0.16352 0.40735 0.6832 0.0
O288 O 0.18199 0.37899 0.69753 0.0
C289 C 0.17556 0.40023 0.70086 0.0
C290 C 0.12493 0.34656 0.66385 0.0
C291 C 0.16742 0.40577 0.72431 0.0
C292 C 0.13803 0.40465 0.75313 0.0
C293 C 0.14546 0.39862 0.73086 0.0
C294 C 0.17454 0.42469 0.76257 0.0
C295 C 0.15244 0.41792 0.76922 0.0
C296 C 0.18192 0.41868 0.74034 0.0
C297 C 0.2091 0.38413 0.61985 0.0
C298 C 0.24562 0.40468 0.62876 0.0
C299 C 0.23414 0.39496 0.58852 0.0
C300 C 0.2137 0.3846 0.596 0.0
C301 C 0.25044 0.40501 0.6048 0.0
C302 C 0.2251 0.39437 0.63621 0.0
C303 C 0.18762 0.37276 0.62722 0.0
O304 O 0.14405 0.34057 0.67323 0.0
O305 O 0.12573 0.36848 0.65784 0.0
O306 O 0.17099 0.3865 0.62968 0.0
O307 O 0.1891 0.35795 0.64414 0.0
H308 H 0.14453 0.32489 0.62746 0.0
H309 H 0.12696 0.29504 0.60019 0.0
H310 H 0.06297 0.30114 0.6335 0.0
H311 H 0.08098 0.33038 0.66126 0.0
H312 H 0.12084 0.39935 0.75754 0.0
H313 H 0.13404 0.38861 0.71868 0.0
H314 H 0.1862 0.43458 0.77458 0.0
H315 H 0.19897 0.42424 0.73562 0.0
H316 H 0.25786 0.41202 0.64179 0.0
H317 H 0.23709 0.39524 0.56995 0.0
H318 H 0.20146 0.37689 0.58313 0.0
H319 H 0.22179 0.39421 0.65472 0.0
O320 O 1.00072 0.02014 0.57971 0.0
Mg321 Mg 0.02748 0.03665 0.56256 0.0
O322 O 0.9907 1.00106 0.5467 0.0
Mg323 Mg 0.01166 0.01952 0.51575 0.0
O324 O 0.01946 0.05641 0.53467 0.0
O325 O 0.03116 0.07109 0.57015 0.0
O326 O 0.03308 0.03935 0.48544 0.0
O327 O 0.97736 0.03505 0.50457 0.0
Mg328 Mg 1.00208 1.00511 0.47115 0.0
O329 O 1.00276 0.98173 0.49755 0.0
O330 O 0.0321 0.01487 0.45539 0.0
O331 O 0.9746 0.02606 0.46702 0.0
O332 O 0.99292 0.97249 0.46005 0.0
C333 C 0.06091 0.00647 0.54351 0.0
C334 C 0.98834 1.00452 0.56872 0.0
C335 C 0.02471 0.07426 0.54887 0.0
C336 C 0.04021 0.03353 0.46528 0.0
C337 C 0.96712 0.03619 0.48481 0.0
C338 C 0.99668 0.96614 0.48109 0.0
O339 O 0.05772 0.0201 0.56067 0.0
O340 O 0.04625 1.00385 0.52669 0.0
O341 O 0.47754 0.06725 0.02523 0.0
Mg342 Mg 0.51269 0.06657 0.02247 0.0
O343 O 0.47269 0.02872 0.02404 0.0
Mg344 Mg 0.50761 0.01323 0.01308 0.0
O345 O 0.52224 0.04644 0.99499 0.0
O346 O 0.52795 0.08539 0.9971 0.0
O347 O 0.54383 0.99989 1.00161 0.0
O348 O 0.49037 1.00335 0.97605 0.0
Mg349 Mg 0.51094 0.96724 1.00619 0.0
O350 O 0.49084 0.97984 0.03177 0.0
O351 O 0.54516 0.96418 0.01325 0.0
O352 O 0.50009 0.96744 0.97088 0.0
O353 O 0.49269 0.94184 0.0217 0.0
C354 C 0.53341 0.04162 0.06135 0.0
C355 C 0.46479 0.0488 0.02684 0.0
C356 C 0.52997 0.0658 0.986 0.0
C357 C 0.55514 0.98207 1.00513 0.0
C358 C 0.49091 0.98493 0.96309 0.0
C359 C 0.48486 0.95787 0.03477 0.0
O360 O 0.53194 0.06156 0.05289 0.0
O361 O 0.52494 0.02319 0.05034 0.0
O362 O 0.51908 0.57033 0.54149 0.0
Mg363 Mg 0.51032 0.53571 0.54937 0.0
O364 O 0.49987 0.55622 0.51068 0.0
Mg365 Mg 0.51031 0.51672 0.50502 0.0
O366 O 0.53113 0.51026 0.54024 0.0
O367 O 0.52999 0.52684 0.57628 0.0
O368 O 0.51936 0.47732 0.49801 0.0
O369 O 0.54487 0.53156 0.49038 0.0
Mg370 Mg 0.51334 0.50294 0.45327 0.0
O371 O 0.48994 0.52133 0.46998 0.0
O372 O 0.51342 0.46761 0.46069 0.0
O373 O 0.54471 0.52251 0.4525 0.0
O374 O 0.48799 0.51194 0.43168 0.0
C375 C 0.46614 0.50876 0.53825 0.0
C376 C 0.50693 0.57376 0.5238 0.0
C377 C 0.53826 0.51209 0.56203 0.0
C378 C 0.51846 0.46201 0.48123 0.0
C379 C 0.55437 0.53229 0.4706 0.0
C380 C 0.47998 0.5225 0.44952 0.0
O381 O 0.47575 0.52382 0.55257 0.0
O382 O 0.47631 0.50233 0.52005 0.0
O383 O 0.99637 0.46219 0.04666 0.0
Mg384 Mg 1.00564 0.49807 0.05035 0.0
O385 O 0.01773 0.47344 0.01843 0.0
Mg386 Mg 1.00285 0.51091 0.00961 0.0
O387 O 0.98298 0.52252 0.04423 0.0
O388 O 0.9907 0.50827 0.07948 0.0
O389 O 0.98997 0.54794 0.99807 0.0
O390 O 0.96815 0.49 0.99839 0.0
Mg391 Mg 0.99375 0.51198 0.95933 0.0
O392 O 0.0226 0.50181 0.97531 0.0
O393 O 0.9887 0.54749 0.95958 0.0
O394 O 0.9656 0.48818 0.95991 0.0
O395 O 0.01669 0.50285 0.93632 0.0
C396 C 0.04845 0.52532 0.0401 0.0
C397 C 0.01048 0.4572 0.03165 0.0
C398 C 0.97956 0.52172 0.06664 0.0
C399 C 0.98662 0.55826 0.97887 0.0
C400 C 0.95777 0.48271 0.97944 0.0
C401 C 0.02938 0.49843 0.95402 0.0
O402 O 0.04052 0.5099 0.05359 0.0
O403 O 0.03655 0.53087 0.02255 0.0
H404 H 0.09365 0.16228 0.2943 0.0
H405 H 0.08134 0.14609 0.33116 0.0
H406 H 0.1386 0.1039 0.33262 0.0
H407 H 0.15148 0.12061 0.29604 0.0
H408 H 0.0691 0.10097 0.34029 0.0
H409 H 0.14151 0.13244 0.39868 0.0
H410 H 0.13697 0.14389 0.37005 0.0
H411 H 0.14961 0.11656 0.37311 0.0
C412 C 0.10391 0.14987 0.30261 0.0
C413 C 0.12372 0.14294 0.29215 0.0
C414 C 0.09674 0.1405 0.32368 0.0
C415 C 0.1092 0.12404 0.33499 0.0
C416 C 0.12892 0.11695 0.32458 0.0
H417 H 0.06877 0.02054 0.43195 0.0
H418 H 0.08676 0.04491 0.40262 0.0
C419 C 0.13612 0.12631 0.30344 0.0
C420 C 0.10081 0.11339 0.35691 0.0
H421 H 0.11543 0.10341 0.41385 0.0
C422 C 0.07918 0.10176 0.35641 0.0
C423 C 0.11383 0.11449 0.37809 0.0
C424 C 0.13668 0.12771 0.38017 0.0
C425 C 0.07056 0.09063 0.37614 0.0
C426 C 0.08386 0.09104 0.39702 0.0
C427 C 0.10525 0.10313 0.39782 0.0
C428 C 0.07622 0.07732 0.41733 0.0
C429 C 0.04739 0.07801 0.3745 0.0
C430 C 0.06503 0.08759 0.43597 0.0
C431 C 0.05473 0.07361 0.45302 0.0
C432 C 0.05538 0.04918 0.45149 0.0
C433 C 0.06788 0.03928 0.43362 0.0
C434 C 0.07818 0.05318 0.41679 0.0
H435 H 0.03802 0.0818 0.35816 0.0
H436 H 0.0491 0.05891 0.37492 0.0
H437 H 0.03732 0.08298 0.3897 0.0
H438 H 0.06329 0.10623 0.43665 0.0
H439 H 0.04504 0.08173 0.46638 0.0
H440 H 0.41322 0.90221 0.76914 0.0
H441 H 0.43162 0.91799 0.80551 0.0
H442 H 0.39756 0.98136 0.79872 0.0
H443 H 0.37934 0.96592 0.76212 0.0
H444 H 0.45996 0.96005 0.81335 0.0
H445 H 0.38186 0.96013 0.86507 0.0
H446 H 0.38307 0.94379 0.83775 0.0
H447 H 0.3812 0.97482 0.83783 0.0
C448 C 0.40978 0.9196 0.7752 0.0
C449 C 0.39466 0.9327 0.76266 0.0
C450 C 0.42023 0.92855 0.7961 0.0
C451 C 0.41572 0.95072 0.80502 0.0
C452 C 0.40094 0.96402 0.79243 0.0
H453 H 0.46467 0.01595 0.94079 0.0
H454 H 0.44691 0.01112 0.90142 0.0
C455 C 0.39051 0.95512 0.7715 0.0
C456 C 0.42667 0.95985 0.82742 0.0
H457 H 0.41594 0.97408 0.88429 0.0
C458 C 0.45032 0.96326 0.82882 0.0
C459 C 0.41407 0.96428 0.84755 0.0
C460 C 0.38865 0.96045 0.84718 0.0
C461 C 0.46173 0.97051 0.84988 0.0
C462 C 0.44921 0.974 0.87024 0.0
C463 C 0.42551 0.97145 0.86867 0.0
C464 C 0.46047 0.97783 0.89369 0.0
C465 C 0.48716 0.97419 0.85017 0.0
C466 C 0.47375 0.96069 0.90246 0.0
C467 C 0.48377 0.96334 0.92476 0.0
C468 C 0.48071 0.9832 0.93904 0.0
C469 C 0.46745 1.0005 0.93024 0.0
C470 C 0.45728 0.99775 0.90778 0.0
H471 H 0.49344 0.97826 0.83255 0.0
H472 H 0.49327 0.98856 0.86265 0.0
H473 H 0.49458 0.95795 0.85564 0.0
H474 H 0.47608 0.94495 0.89216 0.0
H475 H 0.4938 0.94959 0.93087 0.0
H476 H 0.65507 0.39448 0.70314 0.0
H477 H 0.6428 0.41784 0.67065 0.0
H478 H 0.57429 0.38929 0.67759 0.0
H479 H 0.58623 0.36639 0.71036 0.0
H480 H 0.61825 0.4038 0.62653 0.0
H481 H 0.57144 0.46122 0.68499 0.0
H482 H 0.59221 0.44248 0.69593 0.0
H483 H 0.56435 0.43049 0.68734 0.0
C484 C 0.63738 0.39324 0.69781 0.0
C485 C 0.62162 0.37865 0.70947 0.0
C486 C 0.63045 0.40643 0.67911 0.0
C487 C 0.60763 0.40539 0.67184 0.0
C488 C 0.59196 0.39045 0.68304 0.0
H489 H 0.53932 0.46511 0.55371 0.0
H490 H 0.5592 0.43803 0.57791 0.0
C491 C 0.59886 0.37725 0.70168 0.0
C492 C 0.59993 0.42078 0.65336 0.0
H493 H 0.56714 0.46628 0.64442 0.0
C494 C 0.60712 0.41753 0.63037 0.0
C495 C 0.58559 0.43877 0.65851 0.0
C496 C 0.57805 0.44367 0.68305 0.0
C497 C 0.60006 0.43169 0.61232 0.0
C498 C 0.58538 0.4494 0.61745 0.0
C499 C 0.57838 0.45268 0.64049 0.0
C500 C 0.57714 0.4652 0.59956 0.0
C501 C 0.60859 0.42786 0.58803 0.0
C502 C 0.58109 0.48941 0.60322 0.0
C503 C 0.56972 0.50475 0.58954 0.0
C504 C 0.55431 0.49622 0.57176 0.0
C505 C 0.55157 0.47208 0.56689 0.0
C506 C 0.56284 0.45663 0.5808 0.0
H507 H 0.62367 0.41743 0.58808 0.0
H508 H 0.59511 0.41826 0.57705 0.0
H509 H 0.61297 0.44478 0.57983 0.0
H510 H 0.59202 0.49642 0.61757 0.0
H511 H 0.57204 0.52329 0.5937 0.0
H512 H 0.90233 0.59725 0.246 0.0
H513 H 0.91 0.58192 0.20694 0.0
H514 H 0.92101 0.65203 0.1829 0.0
H515 H 0.91326 0.66756 0.22196 0.0
H516 H 0.889 0.5888 0.16308 0.0
H517 H 0.9794 0.6222 0.16581 0.0
H518 H 0.96262 0.62114 0.19163 0.0
H519 H 0.95913 0.64348 0.17086 0.0
C520 C 0.90614 0.60944 0.23237 0.0
C521 C 0.9073 0.63365 0.2372 0.0
C522 C 0.91059 0.60064 0.21005 0.0
C523 C 0.91637 0.61581 0.19207 0.0
C524 C 0.91703 0.63999 0.19662 0.0
H525 H 0.97193 0.56753 0.05885 0.0
H526 H 0.95256 0.59377 0.0853 0.0
C527 C 0.91262 0.64882 0.21898 0.0
C528 C 0.92213 0.6061 0.16879 0.0
H529 H 0.96631 0.59998 0.13255 0.0
C530 C 0.90583 0.59148 0.15625 0.0
C531 C 0.94403 0.60978 0.15976 0.0
C532 C 0.96241 0.62485 0.17271 0.0
C533 C 0.91107 0.57975 0.13542 0.0
C534 C 0.93329 0.58243 0.12707 0.0
C535 C 0.94925 0.59804 0.13889 0.0
C536 C 0.94135 0.56659 0.10856 0.0
C537 C 0.8929 0.56413 0.12282 0.0
C538 C 0.94107 0.54264 0.11259 0.0
C539 C 0.95215 0.52784 0.09774 0.0
C540 C 0.96373 0.53661 0.07844 0.0
C541 C 0.96287 0.56031 0.07344 0.0
C542 C 0.95195 0.57529 0.0886 0.0
H543 H 0.87585 0.57011 0.12619 0.0
H544 H 0.89542 0.56348 0.10367 0.0
H545 H 0.89341 0.54617 0.12932 0.0
H546 H 0.93345 0.53556 0.12807 0.0
H547 H 0.95264 0.50965 0.10205 0.0
H548 H 0.29059 0.14264 0.09833 0.0
H549 H 0.32342 0.12646 0.0807 0.0
H550 H 0.30648 0.06045 0.11183 0.0
H551 H 0.2738 0.07655 0.12986 0.0
H552 H 0.35996 0.10812 0.10409 0.0
H553 H 0.31654 0.04115 0.04337 0.0
H554 H 0.30206 0.06461 0.05659 0.0
H555 H 0.30837 0.03984 0.07333 0.0
C556 C 0.29381 0.12469 0.10153 0.0
C557 C 0.27937 0.11098 0.11559 0.0
C558 C 0.31257 0.1154 0.09128 0.0
C559 C 0.31733 0.09211 0.09462 0.0
C560 C 0.30293 0.0783 0.10851 0.0
H561 H 0.43532 0.01765 0.04892 0.0
H562 H 0.39872 0.02603 0.06562 0.0
C563 C 0.28418 0.08758 0.11883 0.0
C564 C 0.338 0.08281 0.08455 0.0
H565 H 0.3565 0.04217 0.04582 0.0
C566 C 0.35915 0.09369 0.09137 0.0
C567 C 0.33705 0.06377 0.06813 0.0
C568 C 0.31481 0.05171 0.05972 0.0
C569 C 0.37928 0.08627 0.08215 0.0
C570 C 0.37833 0.06771 0.0652 0.0
C571 C 0.35724 0.05638 0.05878 0.0
C572 C 0.399 0.06115 0.05299 0.0
C573 C 0.40147 0.0984 0.0907 0.0
C574 C 0.4108 0.07765 0.03953 0.0
C575 C 0.43152 0.07296 0.03008 0.0
C576 C 0.441 0.0515 0.03362 0.0
C577 C 0.4285 0.03432 0.04583 0.0
C578 C 0.40764 0.03913 0.05545 0.0
H579 H 0.39993 0.10729 0.10803 0.0
H580 H 0.41483 0.08587 0.09205 0.0
H581 H 0.40692 0.11183 0.07813 0.0
H582 H 0.40428 0.09455 0.03691 0.0
H583 H 0.44049 0.08652 0.02054 0.0
H584 H 0.23812 0.92125 0.61244 0.0
H585 H 0.20437 0.93959 0.59908 0.0
H586 H 0.20388 0.89972 0.53409 0.0
H587 H 0.23805 0.88168 0.54697 0.0
H588 H 0.19977 0.96561 0.55546 0.0
H589 H 0.13844 0.88812 0.56045 0.0
H590 H 0.16515 0.89032 0.57651 0.0
H591 H 0.16438 0.88449 0.54555 0.0
C592 C 0.23103 0.91649 0.5952 0.0
C593 C 0.24092 0.89995 0.58081 0.0
C594 C 0.21163 0.9269 0.58767 0.0
C595 C 0.20152 0.92085 0.5657 0.0
C596 C 0.21123 0.90437 0.55125 0.0
H597 H 0.07384 0.97307 0.5117 0.0
H598 H 0.10851 0.95192 0.51335 0.0
C599 C 0.23074 0.89402 0.55871 0.0
C600 C 0.18114 0.93234 0.55786 0.0
H601 H 0.12397 0.92329 0.54914 0.0
C602 C 0.18323 0.95632 0.55387 0.0
C603 C 0.15964 0.92011 0.5555 0.0
C604 C 0.15655 0.89435 0.55981 0.0
C605 C 0.16428 0.96857 0.5482 0.0
C606 C 0.14258 0.95663 0.54705 0.0
C607 C 0.1406 0.93242 0.55004 0.0
C608 C 0.12171 0.96942 0.54534 0.0
C609 C 0.16767 0.9943 0.54375 0.0
C610 C 0.1175 0.98594 0.5629 0.0
C611 C 0.0979 0.99794 0.56202 0.0
C612 C 0.08181 0.99363 0.54361 0.0
C613 C 0.08592 0.9769 0.52604 0.0
C614 C 0.10568 0.96479 0.52698 0.0
H615 H 0.18496 0.99897 0.53763 0.0
H616 H 0.15519 0.99969 0.53055 0.0
H617 H 0.1655 1.00438 0.56029 0.0
H618 H 0.12933 0.98942 0.57752 0.0
H619 H 0.09536 0.01055 0.57597 0.0
H620 H 0.75709 0.38308 0.93149 0.0
H621 H 0.78913 0.39594 0.95775 0.0
H622 H 0.81462 0.44297 0.90588 0.0
H623 H 0.78306 0.43005 0.8795 0.0
H624 H 0.83447 0.39221 0.9495 0.0
H625 H 0.818 0.48475 0.96496 0.0
H626 H 0.79655 0.4633 0.95342 0.0
H627 H 0.81686 0.47689 0.93437 0.0
C628 C 0.76949 0.3962 0.92569 0.0
C629 C 0.7674 0.40558 0.90335 0.0
C630 C 0.7877 0.40363 0.94079 0.0
C631 C 0.80404 0.42074 0.93397 0.0
C632 C 0.80189 0.43024 0.91181 0.0
H633 H 0.94111 0.45101 0.94644 0.0
H634 H 0.90274 0.43328 0.94216 0.0
C635 C 0.78378 0.4228 0.8967 0.0
C636 C 0.82436 0.42749 0.94899 0.0
H637 H 0.85698 0.47523 0.96989 0.0
C638 C 0.83916 0.4103 0.95445 0.0
C639 C 0.83033 0.451 0.95593 0.0
C640 C 0.81446 0.47 0.95209 0.0
C641 C 0.86057 0.41629 0.96484 0.0
C642 C 0.8674 0.44006 0.9696 0.0
C643 C 0.85185 0.45701 0.96602 0.0
C644 C 0.89141 0.44801 0.97467 0.0
C645 C 0.87602 0.39718 0.96977 0.0
C646 C 0.89796 0.46212 0.99453 0.0
C647 C 0.92014 0.47227 0.9971 0.0
C648 C 0.93583 0.46885 0.97956 0.0
C649 C 0.92939 0.45399 0.96023 0.0
C650 C 0.90747 0.44368 0.95784 0.0
H651 H 0.8662 0.38051 0.97313 0.0
H652 H 0.88643 0.39421 0.95428 0.0
H653 H 0.88753 0.40191 0.98504 0.0
H654 H 0.88574 0.46587 1.00761 0.0
H655 H 0.9246 0.48381 0.01207 0.0
H656 H 0.73528 0.5812 0.37859 0.0
H657 H 0.70028 0.57074 0.39846 0.0
H658 H 0.7278 0.60505 0.4619 0.0
H659 H 0.76334 0.61501 0.44243 0.0
H660 H 0.69671 0.54594 0.44747 0.0
H661 H 0.66416 0.63424 0.44014 0.0
H662 H 0.68393 0.62368 0.41954 0.0
H663 H 0.69324 0.63141 0.44893 0.0
C664 C 0.73415 0.58618 0.39688 0.0
C665 C 0.75222 0.59896 0.40887 0.0
C666 C 0.71406 0.5803 0.40815 0.0
C667 C 0.71151 0.58721 0.43155 0.0
C668 C 0.72948 0.59969 0.44376 0.0
H669 H 0.58691 0.5428 0.50518 0.0
H670 H 0.6262 0.55803 0.49996 0.0
C671 C 0.74969 0.60547 0.43254 0.0
C672 C 0.68972 0.58174 0.44279 0.0
H673 H 0.63917 0.60434 0.45364 0.0
C674 C 0.68425 0.55877 0.44931 0.0
C675 C 0.67358 0.59857 0.44501 0.0
C676 C 0.67882 0.62341 0.43805 0.0
C677 C 0.66266 0.55197 0.45724 0.0
C678 C 0.64622 0.56858 0.45854 0.0
C679 C 0.65194 0.59175 0.4528 0.0
C680 C 0.62227 0.56138 0.46259 0.0
C681 C 0.65707 0.52683 0.46298 0.0
C682 C 0.60712 0.55871 0.44339 0.0
C683 C 0.58491 0.54992 0.44624 0.0
C684 C 0.5773 0.5438 0.46844 0.0
C685 C 0.59227 0.54741 0.48788 0.0
C686 C 0.61468 0.55602 0.48494 0.0
H687 H 0.67159 0.51591 0.4604 0.0
H688 H 0.65196 0.5258 0.48144 0.0
H689 H 0.64257 0.51946 0.45181 0.0
H690 H 0.6127 0.56278 0.42602 0.0
H691 H 0.5738 0.54753 0.43092 0.0
H692 H 0.14594 0.29553 0.07599 0.0
H693 H 0.12533 0.32756 0.06101 0.0
H694 H 0.0677 0.30523 0.10102 0.0
H695 H 0.08815 0.27305 0.11603 0.0
H696 H 0.08527 0.32755 0.03518 0.0
H697 H 0.07743 0.3738 0.12064 0.0
H698 H 0.09617 0.35069 0.11657 0.0
H699 H 0.06645 0.3439 0.12028 0.0
C700 C 0.12882 0.29729 0.08154 0.0
C701 C 0.11879 0.28162 0.09734 0.0
C702 C 0.11707 0.31572 0.07298 0.0
C703 C 0.09503 0.3191 0.08008 0.0
C704 C 0.08486 0.30338 0.09565 0.0
H705 H 0.9952 0.41857 0.05448 0.0
H706 H 0.01574 0.3846 0.06381 0.0
C707 C 0.09661 0.28495 0.10426 0.0
C708 C 0.08269 0.33897 0.07112 0.0
H709 H 0.05622 0.38724 0.0887 0.0
C710 C 0.07901 0.34068 0.04687 0.0
C711 C 0.07461 0.35623 0.0863 0.0
C712 C 0.07903 0.35627 0.11238 0.0
C713 C 0.06694 0.3587 0.03752 0.0
C714 C 0.05856 0.37572 0.05277 0.0
C715 C 0.0625 0.37415 0.07696 0.0
C716 C 0.04524 0.39509 0.04429 0.0
C717 C 0.06272 0.35901 0.01146 0.0
C718 C 0.05466 0.41218 0.02962 0.0
C719 C 0.0428 0.43174 0.02408 0.0
C720 C 0.02138 0.43468 0.03331 0.0
C721 C 0.01166 0.41697 0.04709 0.0
C722 C 0.02344 0.39751 0.05253 0.0
H723 H 0.06539 0.34189 1.00281 0.0
H724 H 0.04525 0.36364 1.00729 0.0
H725 H 0.07462 0.37235 1.00397 0.0
H726 H 0.07158 0.41096 0.0233 0.0
H727 H 0.0509 0.44512 0.01362 0.0
H728 H 0.633 0.19383 0.83894 0.0
H729 H 0.61198 0.15687 0.84768 0.0
H730 H 0.6005 0.1836 0.91721 0.0
H731 H 0.62095 0.22045 0.90856 0.0
H732 H 0.62091 0.12531 0.88421 0.0
H733 H 0.53696 0.16032 0.89206 0.0
H734 H 0.55996 0.17566 0.87759 0.0
H735 H 0.55832 0.17749 0.90894 0.0
C736 C 0.62578 0.19186 0.856 0.0
C737 C 0.62866 0.21006 0.87307 0.0
C738 C 0.6139 0.17073 0.86098 0.0
C739 C 0.60445 0.16763 0.88298 0.0
C740 C 0.60736 0.18575 0.9 0.0
H741 H 0.57475 0.07272 0.98152 0.0
H742 H 0.59291 0.09098 0.94847 0.0
C743 C 0.61927 0.20673 0.8951 0.0
C744 C 0.59195 0.14542 0.8888 0.0
H745 H 0.54281 0.12528 0.91292 0.0
C746 C 0.60364 0.12506 0.88998 0.0
C747 C 0.56924 0.1449 0.89571 0.0
C748 C 0.55531 0.16571 0.89328 0.0
C749 C 0.59384 0.10483 0.89992 0.0
C750 C 0.57199 0.10519 0.90925 0.0
C751 C 0.55963 0.12489 0.90602 0.0
C752 C 0.56305 0.08748 0.92569 0.0
C753 C 0.6073 0.08357 0.90101 0.0
C754 C 0.54039 0.07844 0.92376 0.0
C755 C 0.52995 0.06803 0.94287 0.0
C756 C 0.54209 0.06647 0.96403 0.0
C757 C 0.56524 0.07325 0.96515 0.0
C758 C 0.57564 0.0837 0.94617 0.0
H759 H 0.61796 0.08216 0.88543 0.0
H760 H 0.61881 0.08525 0.91665 0.0
H761 H 0.5962 0.0673 0.90207 0.0
H762 H 0.53027 0.08126 0.90822 0.0
H763 H 0.51193 0.0634 0.94185 0.0
H764 H 0.94085 0.74415 0.4671 0.0
H765 H 0.96118 0.77819 0.48685 0.0
H766 H 0.91313 0.82278 0.45721 0.0
H767 H 0.89268 0.789 0.43794 0.0
H768 H 0.98252 0.81453 0.46939 0.0
H769 H 0.91552 0.8475 0.52308 0.0
H770 H 0.91295 0.81868 0.50939 0.0
H771 H 0.90507 0.84365 0.49351 0.0
C772 C 0.9346 0.76124 0.46496 0.0
C773 C 0.91506 0.76389 0.45112 0.0
C774 C 0.94613 0.78064 0.47636 0.0
C775 C 0.93835 0.80302 0.4741 0.0
C776 C 0.919 0.80565 0.46005 0.0
H777 H 0.99605 0.93062 0.44909 0.0
H778 H 0.9863 0.88964 0.45437 0.0
C779 C 0.90739 0.78631 0.44886 0.0
C780 C 0.95138 0.82406 0.48443 0.0
H781 H 0.94374 0.87733 0.50984 0.0
C782 C 0.97418 0.828 0.47882 0.0
C783 C 0.94093 0.84145 0.4975 0.0
C784 C 0.91735 0.83743 0.50644 0.0
C785 C 0.98595 0.84971 0.48363 0.0
C786 C 0.97443 0.86814 0.49368 0.0
C787 C 0.95249 0.8634 0.50166 0.0
C788 C 0.98304 0.89288 0.49187 0.0
C789 C 0.01032 0.853 0.47683 0.0
C790 C 0.98418 0.9087 0.51121 0.0
C791 C 0.98966 0.9326 0.50817 0.0
C792 C 0.99361 0.94093 0.48571 0.0
C793 C 0.99302 0.92487 0.46664 0.0
C794 C 0.98771 0.90126 0.46967 0.0
H795 H 0.01899 0.83665 0.47906 0.0
H796 H 0.01106 0.85726 0.45808 0.0
H797 H 0.01964 0.86728 0.48736 0.0
H798 H 0.98035 0.90265 0.52848 0.0
H799 H 0.98993 0.94458 0.52315 0.0
H800 H 0.43116 0.74147 0.62489 0.0
H801 H 0.44561 0.70835 0.60383 0.0
H802 H 0.42118 0.73407 0.53864 0.0
H803 H 0.40727 0.76784 0.55956 0.0
H804 H 0.42247 0.67407 0.57589 0.0
H805 H 0.4874 0.72376 0.52542 0.0
H806 H 0.47378 0.73655 0.55003 0.0
H807 H 0.45905 0.73261 0.52224 0.0
C808 C 0.42909 0.74031 0.60604 0.0
C809 C 0.41824 0.75752 0.59393 0.0
C810 C 0.43722 0.72123 0.59403 0.0
C811 C 0.43477 0.71885 0.56961 0.0
C812 C 0.42362 0.73574 0.55744 0.0
H813 H 0.46518 0.58324 0.50632 0.0
H814 H 0.44639 0.6195 0.51216 0.0
C815 C 0.41545 0.7549 0.56946 0.0
C816 C 0.44378 0.69848 0.55723 0.0
H817 H 0.48411 0.68291 0.51931 0.0
C818 C 0.43579 0.67598 0.56333 0.0
C819 C 0.46126 0.70102 0.54096 0.0
C820 C 0.47107 0.72475 0.53434 0.0
C821 C 0.44517 0.65599 0.55413 0.0
C822 C 0.4628 0.65851 0.53799 0.0
C823 C 0.47043 0.68099 0.53145 0.0
C824 C 0.47513 0.6382 0.52991 0.0
C825 C 0.43689 0.63243 0.56273 0.0
C826 C 0.49797 0.63715 0.53648 0.0
C827 C 0.50887 0.61663 0.53269 0.0
C828 C 0.4972 0.59674 0.52213 0.0
C829 C 0.47483 0.59836 0.51397 0.0
C830 C 0.46392 0.61898 0.51772 0.0
H831 H 0.42653 0.63394 0.57852 0.0
H832 H 0.42627 0.62291 0.54882 0.0
H833 H 0.45132 0.62183 0.56695 0.0
H834 H 0.50702 0.65176 0.54582 0.0
H835 H 0.52611 0.61593 0.53922 0.0
H836 H 0.92815 0.91082 0.75128 0.0
H837 H 0.94037 0.92755 0.71463 0.0
H838 H 0.87876 0.89891 0.6801 0.0
H839 H 0.8664 0.88195 0.71678 0.0
H840 H 0.94796 0.90573 0.67197 0.0
H841 H 0.88038 0.96736 0.66272 0.0
H842 H 0.88579 0.9529 0.68962 0.0
H843 H 0.87074 0.9373 0.66571 0.0
C844 C 0.91718 0.90793 0.73591 0.0
C845 C 0.89623 0.89498 0.73712 0.0
C846 C 0.9242 0.9176 0.71492 0.0
C847 C 0.91045 0.91472 0.69455 0.0
C848 C 0.88953 0.90179 0.69562 0.0
H849 H 0.97149 0.95863 0.56072 0.0
H850 H 0.94977 0.93419 0.58811 0.0
C851 C 0.88245 0.89211 0.71667 0.0
C852 C 0.91829 0.92521 0.67235 0.0
H853 H 0.90695 0.96668 0.63294 0.0
C854 C 0.93887 0.91889 0.66328 0.0
C855 C 0.90649 0.94245 0.66102 0.0
C856 C 0.88472 0.95061 0.67029 0.0
C857 C 0.94826 0.92974 0.64369 0.0
C858 C 0.93664 0.94724 0.63257 0.0
C859 C 0.91574 0.95309 0.64124 0.0
C860 C 0.94733 0.96193 0.61422 0.0
C861 C 0.97112 0.92323 0.6358 0.0
C862 C 0.95229 0.98578 0.6192 0.0
C863 C 0.9645 0.99964 0.60367 0.0
C864 C 0.97203 0.99012 0.58255 0.0
C865 C 0.96593 0.9665 0.57679 0.0
C866 C 0.95372 0.95248 0.59256 0.0
H867 H 0.97947 0.9122 0.64855 0.0
H868 H 0.9691 0.91332 0.61885 0.0
H869 H 0.98239 0.93912 0.63318 0.0
H870 H 0.94751 0.99357 0.63566 0.0
H871 H 0.96872 0.01779 0.60862 0.0
H872 H 0.62608 0.12329 0.2455 0.0
H873 H 0.61359 0.10294 0.20882 0.0
H874 H 0.56586 0.05897 0.24601 0.0
H875 H 0.57806 0.07956 0.28277 0.0
H876 H 0.61343 0.05763 0.1937 0.0
H877 H 0.52522 0.0842 0.19677 0.0
H878 H 0.54735 0.09679 0.21638 0.0
H879 H 0.53412 0.06838 0.22151 0.0
C880 C 0.61305 0.10916 0.24592 0.0
C881 C 0.60296 0.10316 0.26706 0.0
C882 C 0.60587 0.09756 0.22491 0.0
C883 C 0.58849 0.07966 0.22453 0.0
C884 C 0.57887 0.07311 0.24572 0.0
H885 H 0.5223 0.01224 0.09698 0.0
H886 H 0.53646 0.01642 0.13787 0.0
C887 C 0.5859 0.08486 0.26674 0.0
C888 C 0.58035 0.06829 0.20183 0.0
H889 H 0.53426 0.06056 0.16458 0.0
C890 C 0.59606 0.05811 0.18745 0.0
C891 C 0.55765 0.06877 0.19363 0.0
C892 C 0.54012 0.08028 0.20774 0.0
C893 C 0.58986 0.04905 0.16494 0.0
C894 C 0.56739 0.05027 0.15649 0.0
C895 C 0.55144 0.05947 0.17119 0.0
C896 C 0.56084 0.04516 0.13155 0.0
C897 C 0.6075 0.03868 0.15012 0.0
C898 C 0.57003 0.05969 0.11449 0.0
C899 C 0.56186 0.05751 0.09141 0.0
C900 C 0.5444 0.04062 0.08478 0.0
C901 C 0.53593 0.02522 0.10157 0.0
C902 C 0.54392 0.02768 0.1249 0.0
H903 H 0.6217 0.03289 0.16102 0.0
H904 H 0.60007 0.02359 0.13925 0.0
H905 H 0.61449 0.05209 0.13824 0.0
H906 H 0.58282 0.07351 0.11925 0.0
H907 H 0.56869 0.06964 0.07886 0.0
H908 H 0.35207 0.6641 0.34537 0.0
H909 H 0.36532 0.64302 0.37914 0.0
H910 H 0.42384 0.62499 0.34123 0.0
H911 H 0.4109 0.64617 0.30772 0.0
H912 H 0.37289 0.59813 0.3843 0.0
H913 H 0.45313 0.65078 0.40146 0.0
H914 H 0.43122 0.66013 0.38219 0.0
H915 H 0.45125 0.64038 0.37161 0.0
C916 C 0.36777 0.65563 0.34428 0.0
C917 C 0.38056 0.65701 0.32396 0.0
C918 C 0.37536 0.64368 0.36362 0.0
C919 C 0.39589 0.63291 0.36298 0.0
C920 C 0.40836 0.63383 0.34249 0.0
H921 H 0.44604 0.51492 0.41728 0.0
H922 H 0.42155 0.54354 0.40241 0.0
C923 C 0.40089 0.64587 0.32328 0.0
C924 C 0.40397 0.61978 0.38319 0.0
H925 H 0.45163 0.61132 0.4155 0.0
C926 C 0.38996 0.6013 0.39147 0.0
C927 C 0.42596 0.62429 0.3932 0.0
C928 C 0.44113 0.64517 0.38683 0.0
C929 C 0.39803 0.58609 0.408 0.0
C930 C 0.42087 0.58906 0.41599 0.0
C931 C 0.43422 0.60871 0.4092 0.0
C932 C 0.43222 0.57052 0.42842 0.0
C933 C 0.38209 0.56668 0.41629 0.0
C934 C 0.44638 0.57586 0.44825 0.0
C935 C 0.46071 0.5594 0.45666 0.0
C936 C 0.46113 0.53745 0.44532 0.0
C937 C 0.44593 0.53166 0.4265 0.0
C938 C 0.43173 0.54801 0.41808 0.0
H939 H 0.36458 0.5723 0.41699 0.0
H940 H 0.38186 0.55158 0.4037 0.0
H941 H 0.38723 0.56091 0.43385 0.0
H942 H 0.44728 0.59318 0.45639 0.0
H943 H 0.47274 0.56446 0.47072 0.0
H944 H 0.16067 0.4602 0.79234 0.0
H945 H 0.14669 0.47265 0.83013 0.0
H946 H 0.11111 0.40525 0.83647 0.0
H947 H 0.12563 0.39236 0.79896 0.0
H948 H 0.10207 0.47531 0.84027 0.0
H949 H 0.14173 0.41593 0.90107 0.0
H950 H 0.15138 0.42021 0.87175 0.0
H951 H 0.1267 0.40123 0.87664 0.0
C952 C 0.15026 0.44782 0.80196 0.0
C953 C 0.14436 0.42522 0.79259 0.0
C954 C 0.1422 0.45501 0.82355 0.0
C955 C 0.12816 0.43978 0.83635 0.0
C956 C 0.12233 0.41715 0.82717 0.0
H957 H 0.03564 0.45294 0.94625 0.0
H958 H 0.06428 0.43842 0.92061 0.0
C959 C 0.13039 0.40992 0.80555 0.0
C960 C 0.11807 0.44828 0.85824 0.0
H961 H 0.11203 0.43754 0.91624 0.0
C962 C 0.1045 0.46725 0.85695 0.0
C963 C 0.12115 0.43765 0.87996 0.0
C964 C 0.1362 0.41776 0.88258 0.0
C965 C 0.09333 0.47543 0.87653 0.0
C966 C 0.09623 0.46471 0.89826 0.0
C967 C 0.11003 0.44589 0.89967 0.0
C968 C 0.08341 0.47174 0.91897 0.0
C969 C 0.0777 0.49483 0.87347 0.0
C970 C 0.08564 0.49483 0.928 0.0
C971 C 0.06927 0.50311 0.94269 0.0
C972 C 0.05077 0.48827 0.94889 0.0
C973 C 0.05006 0.46455 0.94212 0.0
C974 C 0.06631 0.45631 0.92729 0.0
H975 H 0.0736 0.49759 0.85476 0.0
H976 H 0.06165 0.49104 0.88261 0.0
H977 H 0.08596 0.51135 0.88107 0.0
H978 H 0.09892 0.50695 0.92208 0.0
H979 H 0.06988 0.52158 0.94728 0.0
H980 H 0.73523 0.95012 0.88649 0.0
H981 H 0.70329 0.96627 0.90584 0.0
H982 H 0.70244 0.91093 0.95498 0.0
H983 H 0.73493 0.89512 0.93625 0.0
H984 H 0.66063 0.94695 0.91165 0.0
H985 H 0.70163 0.96787 0.99842 0.0
H986 H 0.71748 0.96081 0.97299 0.0
H987 H 0.70337 0.93798 0.98911 0.0
C988 C 0.72854 0.94155 0.90166 0.0
C989 C 0.73793 0.92136 0.90987 0.0
C990 C 0.71011 0.95075 0.91262 0.0
C991 C 0.70061 0.94012 0.93217 0.0
C992 C 0.70972 0.91981 0.94027 0.0
H993 H 0.58465 0.94982 0.01675 0.0
H994 H 0.62053 0.94273 0.99905 0.0
C995 C 0.72818 0.91059 0.92931 0.0
C996 C 0.68073 0.94981 0.94357 0.0
H997 H 0.66147 0.96884 0.99613 0.0
C998 C 0.6609 0.95199 0.93007 0.0
C999 C 0.68103 0.95653 0.9676 0.0
C1000 C 0.70208 0.95592 0.98284 0.0
C1001 C 0.64119 0.95971 0.94008 0.0
C1002 C 0.64133 0.96585 0.96424 0.0
C1003 C 0.66131 0.96419 0.97762 0.0
C1004 C 0.62043 0.97205 0.97631 0.0
C1005 C 0.62008 0.96027 0.92489 0.0
C1006 C 0.60863 0.99148 0.9701 0.0
C1007 C 0.58793 0.99569 0.98034 0.0
C1008 C 0.57866 0.98051 0.99695 0.0
C1009 C 0.59115 0.96182 1.00392 0.0
C1010 C 0.61175 0.95771 0.9938 0.0
H1011 H 0.62148 0.95058 0.90797 0.0
H1012 H 0.60513 0.95267 0.93398 0.0
H1013 H 0.61713 0.97865 0.92111 0.0
H1014 H 0.61518 1.00311 0.95699 0.0
H1015 H 0.5788 0.01024 0.97455 0.0
H1016 H 0.79693 0.11236 0.39278 0.0
H1017 H 0.83226 0.10212 0.41125 0.0
H1018 H 0.80342 0.10947 0.47917 0.0
H1019 H 0.7676 0.11904 0.46073 0.0
H1020 H 0.86118 0.12704 0.44379 0.0
H1021 H 0.82603 0.04367 0.47976 0.0
H1022 H 0.81093 0.05906 0.45801 0.0
H1023 H 0.8122 0.06943 0.48794 0.0
C1024 C 0.79798 0.11162 0.41165 0.0
C1025 C 0.77929 0.11624 0.42524 0.0
C1026 C 0.81828 0.10593 0.4222 0.0
C1027 C 0.82041 0.10467 0.44657 0.0
C1028 C 0.80204 0.10993 0.46031 0.0
H1029 H 0.93981 0.05244 0.51912 0.0
H1030 H 0.90447 0.07189 0.51346 0.0
C1031 C 0.78166 0.11564 0.44974 0.0
C1032 C 0.84187 0.09756 0.45725 0.0
H1033 H 0.86498 0.05302 0.48557 0.0
C1034 C 0.86196 0.111 0.45317 0.0
C1035 C 0.8429 0.07668 0.46963 0.0
C1036 C 0.82193 0.06122 0.47402 0.0
C1037 C 0.88308 0.10374 0.4604 0.0
C1038 C 0.88418 0.08233 0.47176 0.0
C1039 C 0.86406 0.06945 0.4769 0.0
C1040 C 0.90599 0.0717 0.47576 0.0
C1041 C 0.90412 0.11878 0.45534 0.0
C1042 C 0.9184 0.06505 0.45647 0.0
C1043 C 0.93832 0.05387 0.4596 0.0
C1044 C 0.9464 0.04906 0.48214 0.0
C1045 C 0.9341 0.05599 0.50155 0.0
C1046 C 0.91392 0.06704 0.49835 0.0
H1047 H 0.90036 0.13726 0.4531 0.0
H1048 H 0.9171 0.11803 0.46957 0.0
H1049 H 0.91132 0.11234 0.43886 0.0
H1050 H 0.91241 0.06811 0.43887 0.0
H1051 H 0.94731 0.04884 0.44424 0.0
H1052 H 0.24267 0.63089 0.10973 0.0
H1053 H 0.21173 0.61516 0.08332 0.0
H1054 H 0.16788 0.6078 0.14188 0.0
H1055 H 0.19844 0.62392 0.16823 0.0
H1056 H 0.18813 0.57135 0.08442 0.0
H1057 H 0.12994 0.64189 0.09484 0.0
H1058 H 0.15949 0.64562 0.1035 0.0
H1059 H 0.13942 0.63135 0.12232 0.0
C1060 C 0.22634 0.62623 0.11692 0.0
C1061 C 0.22302 0.62868 0.1411 0.0
C1062 C 0.20872 0.61715 0.10182 0.0
C1063 C 0.1874 0.61064 0.11058 0.0
C1064 C 0.18405 0.61312 0.13467 0.0
H1065 H 0.07985 0.51278 0.07195 0.0
H1066 H 0.11509 0.53426 0.08453 0.0
C1067 C 0.20163 0.62209 0.14976 0.0
C1068 C 0.16887 0.60013 0.09489 0.0
H1069 H 0.11342 0.60493 0.07962 0.0
C1070 C 0.1719 0.57887 0.08305 0.0
C1071 C 0.14783 0.61014 0.09274 0.0
C1072 C 0.144 0.63363 0.10383 0.0
C1073 C 0.15402 0.56667 0.07033 0.0
C1074 C 0.1325 0.57584 0.0697 0.0
C1075 C 0.12986 0.59779 0.0803 0.0
C1076 C 0.11207 0.56199 0.0602 0.0
C1077 C 0.15821 0.54384 0.05807 0.0
C1078 C 0.09847 0.57051 0.04238 0.0
C1079 C 0.07813 0.55821 0.0351 0.0
C1080 C 0.07092 0.53738 0.04581 0.0
C1081 C 0.08485 0.52875 0.06332 0.0
C1082 C 0.10514 0.54093 0.07043 0.0
H1083 H 0.17628 0.54305 0.05373 0.0
H1084 H 0.15376 0.52931 0.06979 0.0
H1085 H 0.14773 0.54111 0.04173 0.0
H1086 H 0.10342 0.58685 0.03438 0.0
H1087 H 0.06775 0.56537 0.02165 0.0
H1088 H 0.27413 0.44498 0.62171 0.0
H1089 H 0.31044 0.462 0.60875 0.0
H1090 H 0.3127 0.40644 0.55675 0.0
H1091 H 0.27665 0.38901 0.56984 0.0
H1092 H 0.35232 0.4394 0.60717 0.0
H1093 H 0.32372 0.46711 0.51971 0.0
H1094 H 0.30432 0.46044 0.54275 0.0
H1095 H 0.31613 0.43728 0.52644 0.0
C1096 C 0.28239 0.43627 0.60762 0.0
C1097 C 0.2724 0.41563 0.5968 0.0
C1098 C 0.30307 0.44611 0.60014 0.0
C1099 C 0.31407 0.43565 0.58159 0.0
C1100 C 0.30424 0.41504 0.57078 0.0
H1101 H 0.44204 0.47213 0.51505 0.0
H1102 H 0.40521 0.45377 0.52522 0.0
C1103 C 0.28361 0.40513 0.57829 0.0
C1104 C 0.33623 0.44587 0.57413 0.0
H1105 H 0.36296 0.4718 0.52858 0.0
C1106 C 0.35466 0.44653 0.59001 0.0
C1107 C 0.33922 0.45495 0.55166 0.0
C1108 C 0.31981 0.45513 0.53415 0.0
C1109 C 0.3761 0.45595 0.58401 0.0
C1110 C 0.37904 0.46547 0.56169 0.0
C1111 C 0.36065 0.46454 0.54568 0.0
C1112 C 0.40093 0.47703 0.55496 0.0
C1113 C 0.39549 0.45525 0.6015 0.0
C1114 C 0.41045 0.49652 0.56794 0.0
C1115 C 0.43145 0.50695 0.56228 0.0
C1116 C 0.44332 0.49827 0.54331 0.0
C1117 C 0.4334 0.4792 0.52982 0.0
C1118 C 0.41236 0.46869 0.53559 0.0
H1119 H 0.39211 0.44159 0.61451 0.0
H1120 H 0.41145 0.45189 0.59269 0.0
H1121 H 0.39792 0.47233 0.61112 0.0
H1122 H 0.40166 0.50363 0.58258 0.0
H1123 H 0.43844 0.52177 0.5729 0.0
H1124 H 0.90901 0.73728 0.89398 0.0
H1125 H 0.92852 0.70476 0.90969 0.0
H1126 H 0.89735 0.71492 0.97601 0.0
H1127 H 0.87796 0.74756 0.96058 0.0
H1128 H 0.95881 0.70339 0.94818 0.0
H1129 H 0.88144 0.64557 0.96108 0.0
H1130 H 0.88127 0.67117 0.94362 0.0
H1131 H 0.88171 0.67404 0.97496 0.0
C1132 C 0.90641 0.73276 0.91197 0.0
C1133 C 0.89168 0.74505 0.92588 0.0
C1134 C 0.91752 0.71405 0.92092 0.0
C1135 C 0.91414 0.70705 0.94394 0.0
C1136 C 0.89984 0.71954 0.95803 0.0
H1137 H 0.9647 0.58352 0.01239 0.0
H1138 H 0.9484 0.62146 1.00745 0.0
C1139 C 0.88872 0.73825 0.94912 0.0
C1140 C 0.92572 0.68681 0.95317 0.0
H1141 H 0.91612 0.63163 0.97331 0.0
C1142 C 0.94945 0.68776 0.95376 0.0
C1143 C 0.91359 0.66643 0.96073 0.0
C1144 C 0.8881 0.66403 0.95994 0.0
C1145 C 0.96131 0.66886 0.96134 0.0
C1146 C 0.94918 0.64816 0.96811 0.0
C1147 C 0.92547 0.64748 0.96825 0.0
C1148 C 0.9606 0.62627 0.97249 0.0
C1149 C 0.98679 0.67126 0.96195 0.0
C1150 C 0.97295 0.61637 0.95466 0.0
C1151 C 0.98217 0.59491 0.95743 0.0
C1152 C 0.97927 0.58252 0.97811 0.0
C1153 C 0.96745 0.59267 0.99635 0.0
C1154 C 0.95802 0.61428 0.99347 0.0
H1155 H 0.99325 0.68983 0.96428 0.0
H1156 H 0.99394 0.66118 0.97626 0.0
H1157 H 0.993 0.66456 0.9451 0.0
H1158 H 0.97482 0.62488 0.93814 0.0
H1159 H 0.99114 0.5877 0.94297 0.0
H1160 H 0.35968 0.81307 0.11541 0.0
H1161 H 0.38 0.8484 0.10234 0.0
H1162 H 0.39662 0.86986 0.17388 0.0
H1163 H 0.37611 0.83434 0.18722 0.0
H1164 H 0.37275 0.89555 0.11284 0.0
H1165 H 0.4584 0.87274 0.14269 0.0
H1166 H 0.43461 0.85138 0.1406 0.0
H1167 H 0.43675 0.8729 0.16407 0.0
C1168 C 0.36743 0.82537 0.12844 0.0
C1169 C 0.36619 0.82088 0.15238 0.0
C1170 C 0.37912 0.84555 0.12092 0.0
C1171 C 0.38994 0.86171 0.13711 0.0
C1172 C 0.38867 0.85746 0.16107 0.0
H1173 H 0.4809 0.97436 0.08011 0.0
H1174 H 0.45614 0.95669 0.10982 0.0
C1175 C 0.37697 0.83716 0.16865 0.0
C1176 C 0.4027 0.88268 0.1284 0.0
H1177 H 0.45639 0.90535 0.11938 0.0
C1178 C 0.39101 0.898 0.1147 0.0
C1179 C 0.4265 0.886 0.131 0.0
C1180 C 0.43994 0.86988 0.14526 0.0
C1181 C 0.40259 0.91556 0.1023 0.0
C1182 C 0.42645 0.91774 0.1035 0.0
C1183 C 0.43807 0.90367 0.11862 0.0
C1184 C 0.43952 0.93074 0.08581 0.0
C1185 C 0.38931 0.93086 0.08697 0.0
C1186 C 0.43818 0.92209 0.06265 0.0
C1187 C 0.45237 0.93177 0.04603 0.0
C1188 C 0.46807 0.95052 0.05209 0.0
C1189 C 0.46877 0.96003 0.07502 0.0
C1190 C 0.45475 0.94994 0.09194 0.0
H1191 H 0.37182 0.93206 0.09315 0.0
H1192 H 0.39771 0.94871 0.08643 0.0
H1193 H 0.38821 0.92324 0.0689 0.0
H1194 H 0.42679 0.90711 0.05764 0.0
H1195 H 0.45146 0.92415 0.02845 0.0
H1196 H 0.06268 0.26027 0.62587 0.0
H1197 H 0.04757 0.22721 0.60119 0.0
H1198 H 0.08605 0.25316 0.54353 0.0
H1199 H 0.10094 0.28683 0.56797 0.0
H1200 H 0.02379 0.2258 0.5542 0.0
H1201 H 0.1068 0.18578 0.55577 0.0
H1202 H 0.1005 0.20814 0.57696 0.0
H1203 H 0.10579 0.21562 0.54734 0.0
C1204 C 0.06761 0.25933 0.60781 0.0
C1205 C 0.08313 0.27627 0.59899 0.0
C1206 C 0.05901 0.24032 0.59375 0.0
C1207 C 0.06581 0.23768 0.57061 0.0
C1208 C 0.08076 0.2548 0.56143 0.0
H1209 H 0.04416 0.09532 0.51133 0.0
H1210 H 0.05159 0.13773 0.50757 0.0
C1211 C 0.08933 0.27394 0.57548 0.0
C1212 C 0.05815 0.21616 0.5569 0.0
H1213 H 0.07526 0.16246 0.54171 0.0
C1214 C 0.0351 0.21209 0.55096 0.0
C1215 C 0.07299 0.19846 0.55236 0.0
C1216 C 0.09791 0.202 0.55844 0.0
C1217 C 0.02626 0.19023 0.54198 0.0
C1218 C 0.04077 0.17183 0.53949 0.0
C1219 C 0.06411 0.17652 0.54361 0.0
C1220 C 0.03191 0.147 0.53737 0.0
C1221 C 1.00131 0.18681 0.53612 0.0
C1222 C 0.01782 0.13816 0.5548 0.0
C1223 C 0.0137 0.11419 0.55694 0.0
C1224 C 0.0235 0.0985 0.54168 0.0
C1225 C 0.03611 0.10715 0.52303 0.0
C1226 C 0.04046 0.13133 0.521 0.0
H1227 H 0.99485 0.2031 0.52945 0.0
H1228 H 0.9975 0.17248 0.52286 0.0
H1229 H 0.99209 0.18252 0.55221 0.0
H1230 H 0.0115 0.1497 0.56803 0.0
H1231 H 1.00414 0.10788 0.57161 0.0
H1232 H 0.63159 0.27636 0.48218 0.0
H1233 H 0.61167 0.30987 0.49576 0.0
H1234 H 0.5705 0.30522 0.43246 0.0
H1235 H 0.59058 0.27202 0.41848 0.0
H1236 H 0.60899 0.35264 0.47332 0.0
H1237 H 0.52384 0.30908 0.48423 0.0
H1238 H 0.54892 0.29312 0.48207 0.0
H1239 H 0.5355 0.3033 0.45618 0.0
C1240 C 0.61835 0.28247 0.47106 0.0
C1241 C 0.61275 0.27141 0.44917 0.0
C1242 C 0.60687 0.30155 0.47896 0.0
C1243 C 0.58938 0.30985 0.4653 0.0
C1244 C 0.5836 0.29879 0.44355 0.0
H1245 H 0.50829 0.42383 0.4528 0.0
H1246 H 0.52515 0.38647 0.45346 0.0
C1247 C 0.59511 0.27976 0.43558 0.0
C1248 C 0.57799 0.33088 0.47309 0.0
H1249 H 0.52615 0.35075 0.48351 0.0
C1250 C 0.59093 0.35222 0.47592 0.0
C1251 C 0.55446 0.33025 0.47656 0.0
C1252 C 0.53986 0.30768 0.47483 0.0
C1253 C 0.58078 0.37317 0.48077 0.0
C1254 C 0.55708 0.37269 0.48341 0.0
C1255 C 0.5443 0.35115 0.48154 0.0
C1256 C 0.54497 0.39448 0.48529 0.0
C1257 C 0.59539 0.39577 0.48168 0.0
C1258 C 0.54976 0.41123 0.50351 0.0
C1259 C 0.54013 0.43286 0.50312 0.0
C1260 C 0.52547 0.438 0.48459 0.0
C1261 C 0.51965 0.42057 0.46726 0.0
C1262 C 0.52925 0.39911 0.46762 0.0
H1263 H 0.61242 0.39356 0.47468 0.0
H1264 H 0.58732 0.40928 0.47157 0.0
H1265 H 0.59761 0.40226 0.5001 0.0
H1266 H 0.56147 0.40787 0.51762 0.0
H1267 H 0.54508 0.44594 0.51662 0.0
loop_
_geom_bond_atom_site_label_1
_geom_bond_atom_site_label_2
_geom_bond_distance
_geom_bond_site_symmetry_2
_ccdc_geom_bond_type
C0 C1 1.264 . S
C0 C5 1.479 . S
C0 C10 1.465 . S
C1 C0 1.264 . S
C1 C3 1.339 . S
C1 H28 0.931 . S
C2 C3 1.395 . S
C2 C4 1.320 . S
C3 C1 1.339 . S
C3 C2 1.395 . S
C3 H29 0.929 . S
C4 C2 1.320 . S
C4 C5 1.405 . S
C4 H30 0.930 . S
C5 C0 1.479 . S
C5 C4 1.405 . S
C5 H31 0.931 . S
U6 O7 2.454 . S
U6 O8 2.458 . S
U6 C9 2.984 . S
U6 C10 2.847 . S
U6 C23 2.882 . S
U6 O24 2.441 . S
U6 O25 2.420 . S
U6 O26 2.455 . S
U6 O27 2.449 . S
O7 U6 2.454 . S
O7 C9 1.353 . S
O8 U6 2.458 . S
O8 C9 1.286 . S
C9 U6 2.984 . S
C9 O7 1.353 . S
C9 O8 1.286 . S
C9 C11 1.363 . S
C10 C0 1.465 . S
C10 U6 2.847 . S
C10 O24 1.249 . S
C10 O25 1.202 . S
C11 C9 1.363 . S
C11 C13 1.408 . S
C11 C16 1.342 . S
C12 C13 1.310 . S
C12 C15 1.461 . S
C12 H32 0.932 . S
C13 C11 1.408 . S
C13 C12 1.310 . S
C13 H33 0.930 . S
C14 C15 1.474 . S
C14 C16 1.285 . S
C14 H34 0.929 . S
C15 C12 1.461 . S
C15 C14 1.474 . S
C16 C11 1.342 . S
C16 C14 1.285 . S
C16 H35 0.930 . S
C17 C20 1.424 . S
C17 C22 1.245 . S
C17 C23 1.428 . S
C18 C21 1.260 . S
C18 C22 1.477 . S
C18 H36 0.932 . S
C19 C20 1.384 . S
C19 C21 1.479 . S
C19 H37 0.929 . S
C20 C17 1.424 . S
C20 C19 1.384 . S
C20 H38 0.928 . S
C21 C18 1.260 . S
C21 C19 1.479 . S
C22 C17 1.245 . S
C22 C18 1.477 . S
C22 H39 0.932 . S
C23 U6 2.882 . S
C23 C17 1.428 . S
C23 O26 1.301 . S
C23 O27 1.282 . S
O24 U6 2.441 . S
O24 C10 1.249 . S
O25 U6 2.420 . S
O25 C10 1.202 . S
O26 U6 2.455 . S
O26 C23 1.301 . S
O27 U6 2.449 . S
O27 C23 1.282 . S
H28 C1 0.931 . S
H29 C3 0.929 . S
H30 C4 0.930 . S
H31 C5 0.931 . S
H32 C12 0.932 . S
H33 C13 0.930 . S
H34 C14 0.929 . S
H35 C16 0.930 . S
H36 C18 0.932 . S
H37 C19 0.929 . S
H38 C20 0.928 . S
H39 C22 0.932 . S
C40 C41 1.264 . S
C40 C45 1.479 . S
C40 C50 1.465 . S
C41 C40 1.264 . S
C41 C43 1.339 . S
C41 H68 0.931 . S
C42 C43 1.395 . S
C42 C44 1.320 . S
C43 C41 1.339 . S
C43 C42 1.395 . S
C43 H69 0.929 . S
C44 C42 1.320 . S
C44 C45 1.405 . S
C44 H70 0.930 . S
C45 C40 1.479 . S
C45 C44 1.405 . S
C45 H71 0.931 . S
U46 O47 2.454 . S
U46 O48 2.458 . S
U46 C49 2.984 . S
U46 C50 2.847 . S
U46 C63 2.882 . S
U46 O64 2.441 . S
U46 O65 2.420 . S
U46 O66 2.455 . S
U46 O67 2.449 . S
O47 U46 2.454 . S
O47 C49 1.353 . S
O48 U46 2.458 . S
O48 C49 1.286 . S
C49 U46 2.984 . S
C49 O47 1.353 . S
C49 O48 1.286 . S
C49 C51 1.363 . S
C50 C40 1.465 . S
C50 U46 2.847 . S
C50 O64 1.249 . S
C50 O65 1.202 . S
C51 C49 1.363 . S
C51 C53 1.408 . S
C51 C56 1.342 . S
C52 C53 1.310 . S
C52 C55 1.461 . S
C52 H72 0.932 . S
C53 C51 1.408 . S
C53 C52 1.310 . S
C53 H73 0.930 . S
C54 C55 1.474 . S
C54 C56 1.285 . S
C54 H74 0.929 . S
C55 C52 1.461 . S
C55 C54 1.474 . S
C56 C51 1.342 . S
C56 C54 1.285 . S
C56 H75 0.930 . S
C57 C60 1.424 . S
C57 C62 1.245 . S
C57 C63 1.428 . S
C58 C61 1.260 . S
C58 C62 1.477 . S
C58 H76 0.932 . S
C59 C60 1.384 . S
C59 C61 1.479 . S
C59 H77 0.929 . S
C60 C57 1.424 . S
C60 C59 1.384 . S
C60 H78 0.928 . S
C61 C58 1.260 . S
C61 C59 1.479 . S
C62 C57 1.245 . S
C62 C58 1.477 . S
C62 H79 0.932 . S
C63 U46 2.882 . S
C63 C57 1.428 . S
C63 O66 1.301 . S
C63 O67 1.282 . S
O64 U46 2.441 . S
O64 C50 1.249 . S
O65 U46 2.420 . S
O65 C50 1.202 . S
O66 U46 2.455 . S
O66 C63 1.301 . S
O67 U46 2.449 . S
O67 C63 1.282 . S
H68 C41 0.931 . S
H69 C43 0.929 . S
H70 C44 0.930 . S
H71 C45 0.931 . S
H72 C52 0.932 . S
H73 C53 0.930 . S
H74 C54 0.929 . S
H75 C56 0.930 . S
H76 C58 0.932 . S
H77 C59 0.929 . S
H78 C60 0.928 . S
H79 C62 0.932 . S
C80 C81 1.264 . S
C80 C85 1.479 . S
C80 C90 1.465 . S
C81 C80 1.264 . S
C81 C83 1.339 . S
C81 H108 0.931 . S
C82 C83 1.395 . S
C82 C84 1.320 . S
C83 C81 1.339 . S
C83 C82 1.395 . S
C83 H109 0.929 . S
C84 C82 1.320 . S
C84 C85 1.405 . S
C84 H110 0.930 . S
C85 C80 1.479 . S
C85 C84 1.405 . S
C85 H111 0.931 . S
U86 O87 2.454 . S
U86 O88 2.458 . S
U86 C89 2.984 . S
U86 C90 2.847 . S
U86 C103 2.882 . S
U86 O104 2.441 . S
U86 O105 2.420 . S
U86 O106 2.455 . S
U86 O107 2.449 . S
O87 U86 2.454 . S
O87 C89 1.353 . S
O88 U86 2.458 . S
O88 C89 1.286 . S
C89 U86 2.984 . S
C89 O87 1.353 . S
C89 O88 1.286 . S
C89 C91 1.363 . S
C90 C80 1.465 . S
C90 U86 2.847 . S
C90 O104 1.249 . S
C90 O105 1.202 . S
C91 C89 1.363 . S
C91 C93 1.408 . S
C91 C96 1.342 . S
C92 C93 1.310 . S
C92 C95 1.461 . S
C92 H112 0.932 . S
C93 C91 1.408 . S
C93 C92 1.310 . S
C93 H113 0.930 . S
C94 C95 1.474 . S
C94 C96 1.285 . S
C94 H114 0.929 . S
C95 C92 1.461 . S
C95 C94 1.474 . S
C96 C91 1.342 . S
C96 C94 1.285 . S
C96 H115 0.930 . S
C97 C100 1.424 . S
C97 C102 1.245 . S
C97 C103 1.428 . S
C98 C101 1.260 . S
C98 C102 1.477 . S
C98 H116 0.932 . S
C99 C100 1.384 . S
C99 C101 1.479 . S
C99 H117 0.929 . S
C100 C97 1.424 . S
C100 C99 1.384 . S
C100 H118 0.928 . S
C101 C98 1.260 . S
C101 C99 1.479 . S
C102 C97 1.245 . S
C102 C98 1.477 . S
C102 H119 0.932 . S
C103 U86 2.882 . S
C103 C97 1.428 . S
C103 O106 1.301 . S
C103 O107 1.282 . S
O104 U86 2.441 . S
O104 C90 1.249 . S
O105 U86 2.420 . S
O105 C90 1.202 . S
O106 U86 2.455 . S
O106 C103 1.301 . S
O107 U86 2.449 . S
O107 C103 1.282 . S
H108 C81 0.931 . S
H109 C83 0.929 . S
H110 C84 0.930 . S
H111 C85 0.931 . S
H112 C92 0.932 . S
H113 C93 0.930 . S
H114 C94 0.929 . S
H115 C96 0.930 . S
H116 C98 0.932 . S
H117 C99 0.929 . S
H118 C100 0.928 . S
H119 C102 0.932 . S
C120 C121 1.264 . S
C120 C125 1.479 . S
C120 C130 1.465 . S
C121 C120 1.264 . S
C121 C123 1.339 . S
C121 H148 0.931 . S
C122 C123 1.395 . S
C122 C124 1.320 . S
C123 C121 1.339 . S
C123 C122 1.395 . S
C123 H149 0.929 . S
C124 C122 1.320 . S
C124 C125 1.405 . S
C124 H150 0.930 . S
C125 C120 1.479 . S
C125 C124 1.405 . S
C125 H151 0.931 . S
U126 O127 2.454 . S
U126 O128 2.458 . S
U126 C129 2.984 . S
U126 C130 2.847 . S
U126 C143 2.882 . S
U126 O144 2.441 . S
U126 O145 2.420 . S
U126 O146 2.455 . S
U126 O147 2.449 . S
O127 U126 2.454 . S
O127 C129 1.353 . S
O128 U126 2.458 . S
O128 C129 1.286 . S
C129 U126 2.984 . S
C129 O127 1.353 . S
C129 O128 1.286 . S
C129 C131 1.363 . S
C130 C120 1.465 . S
C130 U126 2.847 . S
C130 O144 1.249 . S
C130 O145 1.202 . S
C131 C129 1.363 . S
C131 C133 1.408 . S
C131 C136 1.342 . S
C132 C133 1.310 . S
C132 C135 1.461 . S
C132 H152 0.932 . S
C133 C131 1.408 . S
C133 C132 1.310 . S
C133 H153 0.930 . S
C134 C135 1.474 . S
C134 C136 1.285 . S
C134 H154 0.929 . S
C135 C132 1.461 . S
C135 C134 1.474 . S
C136 C131 1.342 . S
C136 C134 1.285 . S
C136 H155 0.930 . S
C137 C140 1.424 . S
C137 C142 1.245 . S
C137 C143 1.428 . S
C138 C141 1.260 . S
C138 C142 1.477 . S
C138 H156 0.932 . S
C139 C140 1.384 . S
C139 C141 1.479 . S
C139 H157 0.929 . S
C140 C137 1.424 . S
C140 C139 1.384 . S
C140 H158 0.928 . S
C141 C138 1.260 . S
C141 C139 1.479 . S
C142 C137 1.245 . S
C142 C138 1.477 . S
C142 H159 0.932 . S
C143 U126 2.882 . S
C143 C137 1.428 . S
C143 O146 1.301 . S
C143 O147 1.282 . S
O144 U126 2.441 . S
O144 C130 1.249 . S
O145 U126 2.420 . S
O145 C130 1.202 . S
O146 U126 2.455 . S
O146 C143 1.301 . S
O147 U126 2.449 . S
O147 C143 1.282 . S
H148 C121 0.931 . S
H149 C123 0.929 . S
H150 C124 0.930 . S
H151 C125 0.931 . S
H152 C132 0.932 . S
H153 C133 0.930 . S
H154 C134 0.929 . S
H155 C136 0.930 . S
H156 C138 0.932 . S
H157 C139 0.929 . S
H158 C140 0.928 . S
H159 C142 0.932 . S
C160 C161 1.264 . S
C160 C165 1.479 . S
C160 C170 1.465 . S
C161 C160 1.264 . S
C161 C163 1.339 . S
C161 H188 0.931 . S
C162 C163 1.395 . S
C162 C164 1.320 . S
C163 C161 1.339 . S
C163 C162 1.395 . S
C163 H189 0.929 . S
C164 C162 1.320 . S
C164 C165 1.405 . S
C164 H190 0.930 . S
C165 C160 1.479 . S
C165 C164 1.405 . S
C165 H191 0.931 . S
U166 O167 2.454 . S
U166 O168 2.458 . S
U166 C169 2.984 . S
U166 C170 2.847 . S
U166 C183 2.882 . S
U166 O184 2.441 . S
U166 O185 2.420 . S
U166 O186 2.455 . S
U166 O187 2.449 . S
O167 U166 2.454 . S
O167 C169 1.353 . S
O168 U166 2.458 . S
O168 C169 1.286 . S
C169 U166 2.984 . S
C169 O167 1.353 . S
C169 O168 1.286 . S
C169 C171 1.363 . S
C170 C160 1.465 . S
C170 U166 2.847 . S
C170 O184 1.249 . S
C170 O185 1.202 . S
C171 C169 1.363 . S
C171 C173 1.408 . S
C171 C176 1.342 . S
C172 C173 1.310 . S
C172 C175 1.461 . S
C172 H192 0.932 . S
C173 C171 1.408 . S
C173 C172 1.310 . S
C173 H193 0.930 . S
C174 C175 1.474 . S
C174 C176 1.285 . S
C174 H194 0.929 . S
C175 C172 1.461 . S
C175 C174 1.474 . S
C176 C171 1.342 . S
C176 C174 1.285 . S
C176 H195 0.930 . S
C177 C180 1.424 . S
C177 C182 1.245 . S
C177 C183 1.428 . S
C178 C181 1.260 . S
C178 C182 1.477 . S
C178 H196 0.932 . S
C179 C180 1.384 . S
C179 C181 1.479 . S
C179 H197 0.929 . S
C180 C177 1.424 . S
C180 C179 1.384 . S
C180 H198 0.928 . S
C181 C178 1.260 . S
C181 C179 1.479 . S
C182 C177 1.245 . S
C182 C178 1.477 . S
C182 H199 0.932 . S
C183 U166 2.882 . S
C183 C177 1.428 . S
C183 O186 1.301 . S
C183 O187 1.282 . S
O184 U166 2.441 . S
O184 C170 1.249 . S
O185 U166 2.420 . S
O185 C170 1.202 . S
O186 U166 2.455 . S
O186 C183 1.301 . S
O187 U166 2.449 . S
O187 C183 1.282 . S
H188 C161 0.931 . S
H189 C163 0.929 . S
H190 C164 0.930 . S
H191 C165 0.931 . S
H192 C172 0.932 . S
H193 C173 0.930 . S
H194 C174 0.929 . S
H195 C176 0.930 . S
H196 C178 0.932 . S
H197 C179 0.929 . S
H198 C180 0.928 . S
H199 C182 0.932 . S
C200 C201 1.264 . S
C200 C205 1.479 . S
C200 C210 1.465 . S
C201 C200 1.264 . S
C201 C203 1.339 . S
C201 H228 0.931 . S
C202 C203 1.395 . S
C202 C204 1.320 . S
C203 C201 1.339 . S
C203 C202 1.395 . S
C203 H229 0.929 . S
C204 C202 1.320 . S
C204 C205 1.405 . S
C204 H230 0.930 . S
C205 C200 1.479 . S
C205 C204 1.405 . S
C205 H231 0.931 . S
U206 O207 2.454 . S
U206 O208 2.458 . S
U206 C209 2.984 . S
U206 C210 2.847 . S
U206 C223 2.882 . S
U206 O224 2.441 . S
U206 O225 2.420 . S
U206 O226 2.455 . S
U206 O227 2.449 . S
O207 U206 2.454 . S
O207 C209 1.353 . S
O208 U206 2.458 . S
O208 C209 1.286 . S
C209 U206 2.984 . S
C209 O207 1.353 . S
C209 O208 1.286 . S
C209 C211 1.363 . S
C210 C200 1.465 . S
C210 U206 2.847 . S
C210 O224 1.249 . S
C210 O225 1.202 . S
C211 C209 1.363 . S
C211 C213 1.408 . S
C211 C216 1.342 . S
C212 C213 1.310 . S
C212 C215 1.461 . S
C212 H232 0.932 . S
C213 C211 1.408 . S
C213 C212 1.310 . S
C213 H233 0.930 . S
C214 C215 1.474 . S
C214 C216 1.285 . S
C214 H234 0.929 . S
C215 C212 1.461 . S
C215 C214 1.474 . S
C216 C211 1.342 . S
C216 C214 1.285 . S
C216 H235 0.930 . S
C217 C220 1.424 . S
C217 C222 1.245 . S
C217 C223 1.428 . S
C218 C221 1.260 . S
C218 C222 1.477 . S
C218 H236 0.932 . S
C219 C220 1.384 . S
C219 C221 1.479 . S
C219 H237 0.929 . S
C220 C217 1.424 . S
C220 C219 1.384 . S
C220 H238 0.928 . S
C221 C218 1.260 . S
C221 C219 1.479 . S
C222 C217 1.245 . S
C222 C218 1.477 . S
C222 H239 0.932 . S
C223 U206 2.882 . S
C223 C217 1.428 . S
C223 O226 1.301 . S
C223 O227 1.282 . S
O224 U206 2.441 . S
O224 C210 1.249 . S
O225 U206 2.420 . S
O225 C210 1.202 . S
O226 U206 2.455 . S
O226 C223 1.301 . S
O227 U206 2.449 . S
O227 C223 1.282 . S
H228 C201 0.931 . S
H229 C203 0.929 . S
H230 C204 0.930 . S
H231 C205 0.931 . S
H232 C212 0.932 . S
H233 C213 0.930 . S
H234 C214 0.929 . S
H235 C216 0.930 . S
H236 C218 0.932 . S
H237 C219 0.929 . S
H238 C220 0.928 . S
H239 C222 0.932 . S
C240 C241 1.264 . S
C240 C245 1.479 . S
C240 C250 1.465 . S
C241 C240 1.264 . S
C241 C243 1.339 . S
C241 H268 0.931 . S
C242 C243 1.395 . S
C242 C244 1.320 . S
C243 C241 1.339 . S
C243 C242 1.395 . S
C243 H269 0.929 . S
C244 C242 1.320 . S
C244 C245 1.405 . S
C244 H270 0.930 . S
C245 C240 1.479 . S
C245 C244 1.405 . S
C245 H271 0.931 . S
U246 O247 2.454 . S
U246 O248 2.458 . S
U246 C249 2.984 . S
U246 C250 2.847 . S
U246 C263 2.882 . S
U246 O264 2.441 . S
U246 O265 2.420 . S
U246 O266 2.455 . S
U246 O267 2.449 . S
O247 U246 2.454 . S
O247 C249 1.353 . S
O248 U246 2.458 . S
O248 C249 1.286 . S
C249 U246 2.984 . S
C249 O247 1.353 . S
C249 O248 1.286 . S
C249 C251 1.363 . S
C250 C240 1.465 . S
C250 U246 2.847 . S
C250 O264 1.249 . S
C250 O265 1.202 . S
C251 C249 1.363 . S
C251 C253 1.408 . S
C251 C256 1.342 . S
C252 C253 1.310 . S
C252 C255 1.461 . S
C252 H272 0.932 . S
C253 C251 1.408 . S
C253 C252 1.310 . S
C253 H273 0.930 . S
C254 C255 1.474 . S
C254 C256 1.285 . S
C254 H274 0.929 . S
C255 C252 1.461 . S
C255 C254 1.474 . S
C256 C251 1.342 . S
C256 C254 1.285 . S
C256 H275 0.930 . S
C257 C260 1.424 . S
C257 C262 1.245 . S
C257 C263 1.428 . S
C258 C261 1.260 . S
C258 C262 1.477 . S
C258 H276 0.932 . S
C259 C260 1.384 . S
C259 C261 1.479 . S
C259 H277 0.929 . S
C260 C257 1.424 . S
C260 C259 1.384 . S
C260 H278 0.928 . S
C261 C258 1.260 . S
C261 C259 1.479 . S
C262 C257 1.245 . S
C262 C258 1.477 . S
C262 H279 0.932 . S
C263 U246 2.882 . S
C263 C257 1.428 . S
C263 O266 1.301 . S
C263 O267 1.282 . S
O264 U246 2.441 . S
O264 C250 1.249 . S
O265 U246 2.420 . S
O265 C250 1.202 . S
O266 U246 2.455 . S
O266 C263 1.301 . S
O267 U246 2.449 . S
O267 C263 1.282 . S
H268 C241 0.931 . S
H269 C243 0.929 . S
H270 C244 0.930 . S
H271 C245 0.931 . S
H272 C252 0.932 . S
H273 C253 0.930 . S
H274 C254 0.929 . S
H275 C256 0.930 . S
H276 C258 0.932 . S
H277 C259 0.929 . S
H278 C260 0.928 . S
H279 C262 0.932 . S
C280 C281 1.264 . S
C280 C285 1.479 . S
C280 C290 1.465 . S
C281 C280 1.264 . S
C281 C283 1.339 . S
C281 H308 0.931 . S
C282 C283 1.395 . S
C282 C284 1.320 . S
C283 C281 1.339 . S
C283 C282 1.395 . S
C283 H309 0.929 . S
C284 C282 1.320 . S
C284 C285 1.405 . S
C284 H310 0.930 . S
C285 C280 1.479 . S
C285 C284 1.405 . S
C285 H311 0.931 . S
U286 O287 2.454 . S
U286 O288 2.458 . S
U286 C289 2.984 . S
U286 C290 2.847 . S
U286 C303 2.882 . S
U286 O304 2.441 . S
U286 O305 2.420 . S
U286 O306 2.455 . S
U286 O307 2.449 . S
O287 U286 2.454 . S
O287 C289 1.353 . S
O288 U286 2.458 . S
O288 C289 1.286 . S
C289 U286 2.984 . S
C289 O287 1.353 . S
C289 O288 1.286 . S
C289 C291 1.363 . S
C290 C280 1.465 . S
C290 U286 2.847 . S
C290 O304 1.249 . S
C290 O305 1.202 . S
C291 C289 1.363 . S
C291 C293 1.408 . S
C291 C296 1.342 . S
C292 C293 1.310 . S
C292 C295 1.461 . S
C292 H312 0.932 . S
C293 C291 1.408 . S
C293 C292 1.310 . S
C293 H313 0.930 . S
C294 C295 1.474 . S
C294 C296 1.285 . S
C294 H314 0.929 . S
C295 C292 1.461 . S
C295 C294 1.474 . S
C296 C291 1.342 . S
C296 C294 1.285 . S
C296 H315 0.930 . S
C297 C300 1.424 . S
C297 C302 1.245 . S
C297 C303 1.428 . S
C298 C301 1.260 . S
C298 C302 1.477 . S
C298 H316 0.932 . S
C299 C300 1.384 . S
C299 C301 1.479 . S
C299 H317 0.929 . S
C300 C297 1.424 . S
C300 C299 1.384 . S
C300 H318 0.928 . S
C301 C298 1.260 . S
C301 C299 1.479 . S
C302 C297 1.245 . S
C302 C298 1.477 . S
C302 H319 0.932 . S
C303 U286 2.882 . S
C303 C297 1.428 . S
C303 O306 1.301 . S
C303 O307 1.282 . S
O304 U286 2.441 . S
O304 C290 1.249 . S
O305 U286 2.420 . S
O305 C290 1.202 . S
O306 U286 2.455 . S
O306 C303 1.301 . S
O307 U286 2.449 . S
O307 C303 1.282 . S
H308 C281 0.931 . S
H309 C283 0.929 . S
H310 C284 0.930 . S
H311 C285 0.931 . S
H312 C292 0.932 . S
H313 C293 0.930 . S
H314 C294 0.929 . S
H315 C296 0.930 . S
H316 C298 0.932 . S
H317 C299 0.929 . S
H318 C300 0.928 . S
H319 C302 0.932 . S
O320 Mg321 1.990 . S
O320 C334 1.253 1_445 S
Mg321 O320 1.990 . S
Mg321 O324 2.180 . S
Mg321 O325 2.117 . S
Mg321 O339 1.994 1_545 S
O322 Mg323 2.072 1_665 S
O322 C334 1.260 . S
Mg323 O322 2.072 1_445 S
Mg323 O324 2.099 . S
Mg323 O326 2.079 . S
Mg323 O327 2.072 1_455 S
Mg323 O329 2.099 1_445 S
Mg323 O340 2.079 1_545 S
O324 Mg321 2.180 . S
O324 Mg323 2.099 . S
O324 C335 1.279 . S
O325 Mg321 2.117 . S
O325 C335 1.250 . S
O326 Mg323 2.079 . S
O326 C336 1.264 . S
O327 Mg323 2.072 1_655 S
O327 C337 1.260 . S
Mg328 O329 2.180 . S
Mg328 O330 2.030 1_565 S
Mg328 O331 1.990 1_565 S
Mg328 O332 2.117 . S
O329 Mg323 2.099 1_665 S
O329 Mg328 2.180 . S
O329 C338 1.279 . S
O330 Mg328 2.030 1_545 S
O330 C336 1.248 1_655 S
O331 Mg328 1.990 1_545 S
O331 C337 1.253 . S
O332 Mg328 2.117 . S
O332 C338 1.250 . S
C333 O339 1.265 . S
C333 O340 1.264 . S
C334 O320 1.253 1_665 S
C334 O322 1.260 . S
C335 O324 1.279 . S
C335 O325 1.250 . S
C336 O326 1.264 . S
C336 O330 1.248 1_455 S
C337 O327 1.260 . S
C337 O331 1.253 . S
C338 O329 1.279 . S
C338 O332 1.250 . S
O339 Mg321 1.994 1_565 S
O339 C333 1.265 . S
O340 Mg323 2.079 1_565 S
O340 C333 1.264 . S
O341 Mg342 1.990 . S
O341 C355 1.253 . S
Mg342 O341 1.990 . S
Mg342 O345 2.180 . S
Mg342 O346 2.117 1_554 S
Mg342 O360 2.030 . S
O343 Mg344 2.072 . S
O343 C355 1.260 . S
Mg344 O343 2.072 . S
Mg344 O345 2.099 . S
Mg344 O347 2.079 1_554 S
Mg344 O348 2.072 1_554 S
Mg344 O350 2.099 1_545 S
Mg344 O361 2.079 . S
O345 Mg342 2.180 . S
O345 Mg344 2.099 . S
O345 C356 1.279 1_554 S
O346 Mg342 2.117 1_556 S
O346 C356 1.250 . S
O347 Mg344 2.079 1_556 S
O347 C357 1.264 1_545 S
O348 Mg344 2.072 1_556 S
O348 C358 1.260 1_545 S
Mg349 O350 2.180 1_556 S
Mg349 O351 2.030 . S
Mg349 O352 1.990 . S
Mg349 O353 2.117 1_556 S
O350 Mg344 2.099 1_565 S
O350 Mg349 2.180 1_554 S
O350 C359 1.279 . S
O351 Mg349 2.030 . S
O351 C357 1.248 . S
O352 Mg349 1.990 . S
O352 C358 1.253 . S
O353 Mg349 2.117 1_554 S
O353 C359 1.250 . S
C354 O360 1.248 . S
C354 O361 1.264 . S
C355 O341 1.253 . S
C355 O343 1.260 . S
C356 O345 1.279 1_556 S
C356 O346 1.250 . S
C357 O347 1.264 1_565 S
C357 O351 1.248 . S
C358 O348 1.260 1_565 S
C358 O352 1.253 . S
C359 O350 1.279 . S
C359 O353 1.250 . S
O360 Mg342 2.030 . S
O360 C354 1.248 . S
O361 Mg344 2.079 . S
O361 C354 1.264 . S
O362 Mg363 1.990 . S
O362 C376 1.253 . S
Mg363 O362 1.990 . S
Mg363 O366 2.180 . S
Mg363 O367 2.117 . S
Mg363 O381 2.030 . S
O364 Mg365 2.072 . S
O364 C376 1.260 . S
Mg365 O364 2.072 . S
Mg365 O366 2.099 . S
Mg365 O368 2.079 . S
Mg365 O369 2.072 . S
Mg365 O371 2.099 . S
Mg365 O382 2.079 . S
O366 Mg363 2.180 . S
O366 Mg365 2.099 . S
O366 C377 1.279 . S
O367 Mg363 2.117 . S
O367 C377 1.250 . S
O368 Mg365 2.079 . S
O368 C378 1.264 . S
O369 Mg365 2.072 . S
O369 C379 1.260 . S
Mg370 O371 2.180 . S
Mg370 O372 2.030 . S
Mg370 O373 1.990 . S
Mg370 O374 2.117 . S
O371 Mg365 2.099 . S
O371 Mg370 2.180 . S
O371 C380 1.279 . S
O372 Mg370 2.030 . S
O372 C378 1.248 . S
O373 Mg370 1.990 . S
O373 C379 1.253 . S
O374 Mg370 2.117 . S
O374 C380 1.250 . S
C375 O381 1.248 . S
C375 O382 1.264 . S
C376 O362 1.253 . S
C376 O364 1.260 . S
C377 O366 1.279 . S
C377 O367 1.250 . S
C378 O368 1.264 . S
C378 O372 1.248 . S
C379 O369 1.260 . S
C379 O373 1.253 . S
C380 O371 1.279 . S
C380 O374 1.250 . S
O381 Mg363 2.030 . S
O381 C375 1.248 . S
O382 Mg365 2.079 . S
O382 C375 1.264 . S
O383 Mg384 1.990 . S
O383 C397 1.253 . S
Mg384 O383 1.990 . S
Mg384 O387 2.180 1_455 S
Mg384 O388 2.117 1_455 S
Mg384 O402 2.030 . S
O385 Mg386 2.072 . S
O385 C397 1.260 . S
Mg386 O385 2.072 . S
Mg386 O387 2.099 1_455 S
Mg386 O389 2.079 1_454 S
Mg386 O390 2.072 1_455 S
Mg386 O392 2.099 1_554 S
Mg386 O403 2.079 . S
O387 Mg384 2.180 1_655 S
O387 Mg386 2.099 1_655 S
O387 C398 1.279 . S
O388 Mg384 2.117 1_655 S
O388 C398 1.250 . S
O389 Mg386 2.079 1_656 S
O389 C399 1.264 . S
O390 Mg386 2.072 1_655 S
O390 C400 1.260 1_554 S
Mg391 O392 2.180 1_655 S
Mg391 O393 2.030 . S
Mg391 O394 1.990 . S
Mg391 O395 2.117 . S
O392 Mg386 2.099 1_556 S
O392 Mg391 2.180 1_455 S
O392 C401 1.279 . S
O393 Mg391 2.030 . S
O393 C399 1.248 . S
O394 Mg391 1.990 . S
O394 C400 1.253 . S
O395 Mg391 2.117 . S
O395 C401 1.250 1_655 S
C396 O402 1.248 . S
C396 O403 1.264 . S
C397 O383 1.253 . S
C397 O385 1.260 . S
C398 O387 1.279 . S
C398 O388 1.250 . S
C399 O389 1.264 . S
C399 O393 1.248 . S
C400 O390 1.260 1_556 S
C400 O394 1.253 . S
C401 O392 1.279 . S
C401 O395 1.250 1_455 S
O402 Mg384 2.030 . S
O402 C396 1.248 . S
O403 Mg386 2.079 . S
O403 C396 1.264 . S
H404 C412 0.929 . S
H405 C414 0.930 . S
H406 C416 0.930 . S
H407 C419 0.929 . S
H408 C422 0.930 . S
H409 C424 0.960 . S
H410 C424 0.960 . S
H411 C424 0.960 . S
C412 H404 0.929 . S
C412 C413 1.377 . S
C412 C414 1.384 . S
C413 C412 1.377 . S
C413 C419 1.390 . S
C414 H405 0.930 . S
C414 C412 1.384 . S
C414 C415 1.372 . S
C415 C414 1.372 . S
C415 C416 1.400 . S
C415 C420 1.490 . S
C416 H406 0.930 . S
C416 C415 1.400 . S
C416 C419 1.386 . S
H417 C433 0.930 . S
H418 C434 0.931 . S
C419 H407 0.929 . S
C419 C413 1.390 . S
C419 C416 1.386 . S
C420 C415 1.490 . S
C420 C422 1.395 . S
C420 C423 1.403 . S
H421 C427 0.930 . S
C422 H408 0.930 . S
C422 C420 1.395 . S
C422 C425 1.403 . S
C423 C420 1.403 . S
C423 C424 1.524 . S
C423 C427 1.400 . S
C424 H409 0.960 . S
C424 H410 0.960 . S
C424 H411 0.960 . S
C424 C423 1.524 . S
C425 C422 1.403 . S
C425 C426 1.392 . S
C425 C429 1.495 . S
C426 C425 1.392 . S
C426 C427 1.385 . S
C426 C428 1.478 . S
C427 H421 0.930 . S
C427 C423 1.400 . S
C427 C426 1.385 . S
C428 C426 1.478 . S
C428 C430 1.381 . S
C428 C434 1.383 . S
C429 C425 1.495 . S
C429 H435 0.959 . S
C429 H436 0.961 . S
C429 H437 0.960 . S
C430 C428 1.381 . S
C430 C431 1.394 . S
C430 H438 0.930 . S
C431 C430 1.394 . S
C431 C432 1.383 . S
C431 H439 0.929 1_455 S
C432 C431 1.383 . S
C432 C433 1.377 . S
C433 H417 0.930 . S
C433 C432 1.377 . S
C433 C434 1.379 . S
C434 H418 0.931 . S
C434 C428 1.383 . S
C434 C433 1.379 . S
H435 C429 0.959 . S
H436 C429 0.961 . S
H437 C429 0.960 . S
H438 C430 0.930 . S
H439 C431 0.929 1_655 S
H440 C448 0.929 . S
H441 C450 0.930 . S
H442 C452 0.930 . S
H443 C455 0.929 . S
H444 C458 0.930 . S
H445 C460 0.960 . S
H446 C460 0.960 . S
H447 C460 0.960 . S
C448 H440 0.929 . S
C448 C449 1.377 . S
C448 C450 1.384 . S
C449 C448 1.377 . S
C449 C455 1.390 . S
C450 H441 0.930 . S
C450 C448 1.384 . S
C450 C451 1.372 . S
C451 C450 1.372 . S
C451 C452 1.400 . S
C451 C456 1.490 . S
C452 H442 0.930 . S
C452 C451 1.400 . S
C452 C455 1.386 . S
H453 C469 0.930 . S
H454 C470 0.931 1_545 S
C455 H443 0.929 . S
C455 C449 1.390 . S
C455 C452 1.386 . S
C456 C451 1.490 . S
C456 C458 1.395 . S
C456 C459 1.403 . S
H457 C463 0.930 . S
C458 H444 0.930 . S
C458 C456 1.395 . S
C458 C461 1.403 . S
C459 C456 1.403 . S
C459 C460 1.524 . S
C459 C463 1.400 . S
C460 H445 0.960 . S
C460 H446 0.960 . S
C460 H447 0.960 . S
C460 C459 1.524 . S
C461 C458 1.403 . S
C461 C462 1.392 . S
C461 C465 1.495 . S
C462 C461 1.392 . S
C462 C463 1.385 . S
C462 C464 1.478 . S
C463 H457 0.930 . S
C463 C459 1.400 . S
C463 C462 1.385 . S
C464 C462 1.478 . S
C464 C466 1.381 . S
C464 C470 1.383 . S
C465 C461 1.495 . S
C465 H471 0.959 . S
C465 H472 0.961 . S
C465 H473 0.960 . S
C466 C464 1.381 . S
C466 C467 1.394 . S
C466 H474 0.930 . S
C467 C466 1.394 . S
C467 C468 1.383 . S
C467 H475 0.929 . S
C468 C467 1.383 . S
C468 C469 1.377 1_565 S
C469 H453 0.930 . S
C469 C468 1.377 1_545 S
C469 C470 1.379 1_545 S
C470 H454 0.931 1_565 S
C470 C464 1.383 . S
C470 C469 1.379 1_565 S
H471 C465 0.959 . S
H472 C465 0.961 . S
H473 C465 0.960 . S
H474 C466 0.930 . S
H475 C467 0.929 . S
H476 C484 0.929 . S
H477 C486 0.930 . S
H478 C488 0.930 . S
H479 C491 0.929 . S
H480 C494 0.930 . S
H481 C496 0.960 . S
H482 C496 0.960 . S
H483 C496 0.960 . S
C484 H476 0.929 . S
C484 C485 1.377 . S
C484 C486 1.384 . S
C485 C484 1.377 . S
C485 C491 1.390 . S
C486 H477 0.930 . S
C486 C484 1.384 . S
C486 C487 1.372 . S
C487 C486 1.372 . S
C487 C488 1.400 . S
C487 C492 1.490 . S
C488 H478 0.930 . S
C488 C487 1.400 . S
C488 C491 1.386 . S
H489 C505 0.930 . S
H490 C506 0.931 . S
C491 H479 0.929 . S
C491 C485 1.390 . S
C491 C488 1.386 . S
C492 C487 1.490 . S
C492 C494 1.395 . S
C492 C495 1.403 . S
H493 C499 0.930 . S
C494 H480 0.930 . S
C494 C492 1.395 . S
C494 C497 1.403 . S
C495 C492 1.403 . S
C495 C496 1.524 . S
C495 C499 1.400 . S
C496 H481 0.960 . S
C496 H482 0.960 . S
C496 H483 0.960 . S
C496 C495 1.524 . S
C497 C494 1.403 . S
C497 C498 1.392 . S
C497 C501 1.495 . S
C498 C497 1.392 . S
C498 C499 1.385 . S
C498 C500 1.478 . S
C499 H493 0.930 . S
C499 C495 1.400 . S
C499 C498 1.385 . S
C500 C498 1.478 . S
C500 C502 1.381 . S
C500 C506 1.383 . S
C501 C497 1.495 . S
C501 H507 0.959 . S
C501 H508 0.961 . S
C501 H509 0.960 . S
C502 C500 1.381 . S
C502 C503 1.394 . S
C502 H510 0.930 . S
C503 C502 1.394 . S
C503 C504 1.383 . S
C503 H511 0.929 . S
C504 C503 1.383 . S
C504 C505 1.377 . S
C505 H489 0.930 . S
C505 C504 1.377 . S
C505 C506 1.379 . S
C506 H490 0.931 . S
C506 C500 1.383 . S
C506 C505 1.379 . S
H507 C501 0.959 . S
H508 C501 0.961 . S
H509 C501 0.960 . S
H510 C502 0.930 . S
H511 C503 0.929 . S
H512 C520 0.929 . S
H513 C522 0.930 . S
H514 C524 0.930 . S
H515 C527 0.929 . S
H516 C530 0.930 . S
H517 C532 0.960 . S
H518 C532 0.960 . S
H519 C532 0.960 . S
C520 H512 0.929 . S
C520 C521 1.377 . S
C520 C522 1.384 . S
C521 C520 1.377 . S
C521 C527 1.390 . S
C522 H513 0.930 . S
C522 C520 1.384 . S
C522 C523 1.372 . S
C523 C522 1.372 . S
C523 C524 1.400 . S
C523 C528 1.490 . S
C524 H514 0.930 . S
C524 C523 1.400 . S
C524 C527 1.386 . S
H525 C541 0.930 . S
H526 C542 0.931 . S
C527 H515 0.929 . S
C527 C521 1.390 . S
C527 C524 1.386 . S
C528 C523 1.490 . S
C528 C530 1.395 . S
C528 C531 1.403 . S
H529 C535 0.930 . S
C530 H516 0.930 . S
C530 C528 1.395 . S
C530 C533 1.403 . S
C531 C528 1.403 . S
C531 C532 1.524 . S
C531 C535 1.400 . S
C532 H517 0.960 . S
C532 H518 0.960 . S
C532 H519 0.960 . S
C532 C531 1.524 . S
C533 C530 1.403 . S
C533 C534 1.392 . S
C533 C537 1.495 . S
C534 C533 1.392 . S
C534 C535 1.385 . S
C534 C536 1.478 . S
C535 H529 0.930 . S
C535 C531 1.400 . S
C535 C534 1.385 . S
C536 C534 1.478 . S
C536 C538 1.381 . S
C536 C542 1.383 . S
C537 C533 1.495 . S
C537 H543 0.959 . S
C537 H544 0.961 . S
C537 H545 0.960 . S
C538 C536 1.381 . S
C538 C539 1.394 . S
C538 H546 0.930 . S
C539 C538 1.394 . S
C539 C540 1.383 . S
C539 H547 0.929 . S
C540 C539 1.383 . S
C540 C541 1.377 . S
C541 H525 0.930 . S
C541 C540 1.377 . S
C541 C542 1.379 . S
C542 H526 0.931 . S
C542 C536 1.383 . S
C542 C541 1.379 . S
H543 C537 0.959 . S
H544 C537 0.961 . S
H545 C537 0.960 . S
H546 C538 0.930 . S
H547 C539 0.929 . S
H548 C556 0.929 . S
H549 C558 0.930 . S
H550 C560 0.930 . S
H551 C563 0.929 . S
H552 C566 0.930 . S
H553 C568 0.960 . S
H554 C568 0.960 . S
H555 C568 0.960 . S
C556 H548 0.929 . S
C556 C557 1.377 . S
C556 C558 1.384 . S
C557 C556 1.377 . S
C557 C563 1.390 . S
C558 H549 0.930 . S
C558 C556 1.384 . S
C558 C559 1.372 . S
C559 C558 1.372 . S
C559 C560 1.400 . S
C559 C564 1.490 . S
C560 H550 0.930 . S
C560 C559 1.400 . S
C560 C563 1.386 . S
H561 C577 0.930 . S
H562 C578 0.931 . S
C563 H551 0.929 . S
C563 C557 1.390 . S
C563 C560 1.386 . S
C564 C559 1.490 . S
C564 C566 1.395 . S
C564 C567 1.403 . S
H565 C571 0.930 . S
C566 H552 0.930 . S
C566 C564 1.395 . S
C566 C569 1.403 . S
C567 C564 1.403 . S
C567 C568 1.524 . S
C567 C571 1.400 . S
C568 H553 0.960 . S
C568 H554 0.960 . S
C568 H555 0.960 . S
C568 C567 1.524 . S
C569 C566 1.403 . S
C569 C570 1.392 . S
C569 C573 1.495 . S
C570 C569 1.392 . S
C570 C571 1.385 . S
C570 C572 1.478 . S
C571 H565 0.930 . S
C571 C567 1.400 . S
C571 C570 1.385 . S
C572 C570 1.478 . S
C572 C574 1.381 . S
C572 C578 1.383 . S
C573 C569 1.495 . S
C573 H579 0.959 . S
C573 H580 0.961 . S
C573 H581 0.960 . S
C574 C572 1.381 . S
C574 C575 1.394 . S
C574 H582 0.930 . S
C575 C574 1.394 . S
C575 C576 1.383 . S
C575 H583 0.929 . S
C576 C575 1.383 . S
C576 C577 1.377 . S
C577 H561 0.930 . S
C577 C576 1.377 . S
C577 C578 1.379 . S
C578 H562 0.931 . S
C578 C572 1.383 . S
C578 C577 1.379 . S
H579 C573 0.959 . S
H580 C573 0.961 . S
H581 C573 0.960 . S
H582 C574 0.930 . S
H583 C575 0.929 . S
H584 C592 0.929 . S
H585 C594 0.930 . S
H586 C596 0.930 . S
H587 C599 0.929 . S
H588 C602 0.930 . S
H589 C604 0.960 . S
H590 C604 0.960 . S
H591 C604 0.960 . S
C592 H584 0.929 . S
C592 C593 1.377 . S
C592 C594 1.384 . S
C593 C592 1.377 . S
C593 C599 1.390 . S
C594 H585 0.930 . S
C594 C592 1.384 . S
C594 C595 1.372 . S
C595 C594 1.372 . S
C595 C596 1.400 . S
C595 C600 1.490 . S
C596 H586 0.930 . S
C596 C595 1.400 . S
C596 C599 1.386 . S
H597 C613 0.930 . S
H598 C614 0.931 . S
C599 H587 0.929 . S
C599 C593 1.390 . S
C599 C596 1.386 . S
C600 C595 1.490 . S
C600 C602 1.395 . S
C600 C603 1.403 . S
H601 C607 0.930 . S
C602 H588 0.930 . S
C602 C600 1.395 . S
C602 C605 1.403 . S
C603 C600 1.403 . S
C603 C604 1.524 . S
C603 C607 1.400 . S
C604 H589 0.960 . S
C604 H590 0.960 . S
C604 H591 0.960 . S
C604 C603 1.524 . S
C605 C602 1.403 . S
C605 C606 1.392 . S
C605 C609 1.495 1_565 S
C606 C605 1.392 . S
C606 C607 1.385 . S
C606 C608 1.478 . S
C607 H601 0.930 . S
C607 C603 1.400 . S
C607 C606 1.385 . S
C608 C606 1.478 . S
C608 C610 1.381 . S
C608 C614 1.383 . S
C609 C605 1.495 1_545 S
C609 H615 0.959 . S
C609 H616 0.961 . S
C609 H617 0.960 . S
C610 C608 1.381 . S
C610 C611 1.394 . S
C610 H618 0.930 . S
C611 C610 1.394 . S
C611 C612 1.383 . S
C611 H619 0.929 . S
C612 C611 1.383 . S
C612 C613 1.377 . S
C613 H597 0.930 . S
C613 C612 1.377 . S
C613 C614 1.379 . S
C614 H598 0.931 . S
C614 C608 1.383 . S
C614 C613 1.379 . S
H615 C609 0.959 . S
H616 C609 0.961 . S
H617 C609 0.960 . S
H618 C610 0.930 . S
H619 C611 0.929 . S
H620 C628 0.929 . S
H621 C630 0.930 . S
H622 C632 0.930 . S
H623 C635 0.929 . S
H624 C638 0.930 . S
H625 C640 0.960 . S
H626 C640 0.960 . S
H627 C640 0.960 . S
C628 H620 0.929 . S
C628 C629 1.377 . S
C628 C630 1.384 . S
C629 C628 1.377 . S
C629 C635 1.390 . S
C630 H621 0.930 . S
C630 C628 1.384 . S
C630 C631 1.372 . S
C631 C630 1.372 . S
C631 C632 1.400 . S
C631 C636 1.490 . S
C632 H622 0.930 . S
C632 C631 1.400 . S
C632 C635 1.386 . S
H633 C649 0.930 . S
H634 C650 0.931 . S
C635 H623 0.929 . S
C635 C629 1.390 . S
C635 C632 1.386 . S
C636 C631 1.490 . S
C636 C638 1.395 . S
C636 C639 1.403 . S
H637 C643 0.930 . S
C638 H624 0.930 . S
C638 C636 1.395 . S
C638 C641 1.403 . S
C639 C636 1.403 . S
C639 C640 1.524 . S
C639 C643 1.400 . S
C640 H625 0.960 . S
C640 H626 0.960 . S
C640 H627 0.960 . S
C640 C639 1.524 . S
C641 C638 1.403 . S
C641 C642 1.392 . S
C641 C645 1.495 . S
C642 C641 1.392 . S
C642 C643 1.385 . S
C642 C644 1.478 . S
C643 H637 0.930 . S
C643 C639 1.400 . S
C643 C642 1.385 . S
C644 C642 1.478 . S
C644 C646 1.381 . S
C644 C650 1.383 . S
C645 C641 1.495 . S
C645 H651 0.959 . S
C645 H652 0.961 . S
C645 H653 0.960 1_556 S
C646 C644 1.381 . S
C646 C647 1.394 1_556 S
C646 H654 0.930 1_556 S
C647 C646 1.394 1_554 S
C647 C648 1.383 1_554 S
C647 H655 0.929 . S
C648 C647 1.383 1_556 S
C648 C649 1.377 . S
C649 H633 0.930 . S
C649 C648 1.377 . S
C649 C650 1.379 . S
C650 H634 0.931 . S
C650 C644 1.383 . S
C650 C649 1.379 . S
H651 C645 0.959 . S
H652 C645 0.961 . S
H653 C645 0.960 1_554 S
H654 C646 0.930 1_554 S
H655 C647 0.929 . S
H656 C664 0.929 . S
H657 C666 0.930 . S
H658 C668 0.930 . S
H659 C671 0.929 . S
H660 C674 0.930 . S
H661 C676 0.960 . S
H662 C676 0.960 . S
H663 C676 0.960 . S
C664 H656 0.929 . S
C664 C665 1.377 . S
C664 C666 1.384 . S
C665 C664 1.377 . S
C665 C671 1.390 . S
C666 H657 0.930 . S
C666 C664 1.384 . S
C666 C667 1.372 . S
C667 C666 1.372 . S
C667 C668 1.400 . S
C667 C672 1.490 . S
C668 H658 0.930 . S
C668 C667 1.400 . S
C668 C671 1.386 . S
H669 C685 0.930 . S
H670 C686 0.931 . S
C671 H659 0.929 . S
C671 C665 1.390 . S
C671 C668 1.386 . S
C672 C667 1.490 . S
C672 C674 1.395 . S
C672 C675 1.403 . S
H673 C679 0.930 . S
C674 H660 0.930 . S
C674 C672 1.395 . S
C674 C677 1.403 . S
C675 C672 1.403 . S
C675 C676 1.524 . S
C675 C679 1.400 . S
C676 H661 0.960 . S
C676 H662 0.960 . S
C676 H663 0.960 . S
C676 C675 1.524 . S
C677 C674 1.403 . S
C677 C678 1.392 . S
C677 C681 1.495 . S
C678 C677 1.392 . S
C678 C679 1.385 . S
C678 C680 1.478 . S
C679 H673 0.930 . S
C679 C675 1.400 . S
C679 C678 1.385 . S
C680 C678 1.478 . S
C680 C682 1.381 . S
C680 C686 1.383 . S
C681 C677 1.495 . S
C681 H687 0.959 . S
C681 H688 0.961 . S
C681 H689 0.960 . S
C682 C680 1.381 . S
C682 C683 1.394 . S
C682 H690 0.930 . S
C683 C682 1.394 . S
C683 C684 1.383 . S
C683 H691 0.929 . S
C684 C683 1.383 . S
C684 C685 1.377 . S
C685 H669 0.930 . S
C685 C684 1.377 . S
C685 C686 1.379 . S
C686 H670 0.931 . S
C686 C680 1.383 . S
C686 C685 1.379 . S
H687 C681 0.959 . S
H688 C681 0.961 . S
H689 C681 0.960 . S
H690 C682 0.930 . S
H691 C683 0.929 . S
H692 C700 0.929 . S
H693 C702 0.930 . S
H694 C704 0.930 . S
H695 C707 0.929 . S
H696 C710 0.930 . S
H697 C712 0.960 . S
H698 C712 0.960 . S
H699 C712 0.960 . S
C700 H692 0.929 . S
C700 C701 1.377 . S
C700 C702 1.384 . S
C701 C700 1.377 . S
C701 C707 1.390 . S
C702 H693 0.930 . S
C702 C700 1.384 . S
C702 C703 1.372 . S
C703 C702 1.372 . S
C703 C704 1.400 . S
C703 C708 1.490 . S
C704 H694 0.930 . S
C704 C703 1.400 . S
C704 C707 1.386 . S
H705 C721 0.930 . S
H706 C722 0.931 . S
C707 H695 0.929 . S
C707 C701 1.390 . S
C707 C704 1.386 . S
C708 C703 1.490 . S
C708 C710 1.395 . S
C708 C711 1.403 . S
H709 C715 0.930 . S
C710 H696 0.930 . S
C710 C708 1.395 . S
C710 C713 1.403 . S
C711 C708 1.403 . S
C711 C712 1.524 . S
C711 C715 1.400 . S
C712 H697 0.960 . S
C712 H698 0.960 . S
C712 H699 0.960 . S
C712 C711 1.524 . S
C713 C710 1.403 . S
C713 C714 1.392 . S
C713 C717 1.503 . S
C714 C713 1.392 . S
C714 C715 1.385 . S
C714 C716 1.478 . S
C715 H709 0.930 . S
C715 C711 1.400 . S
C715 C714 1.385 . S
C716 C714 1.478 . S
C716 C718 1.381 . S
C716 C722 1.383 . S
C717 C713 1.503 . S
C717 H723 0.956 1_554 S
C717 H724 0.960 1_554 S
C717 H725 0.956 1_554 S
C718 C716 1.381 . S
C718 C719 1.394 . S
C718 H726 0.930 . S
C719 C718 1.394 . S
C719 C720 1.383 . S
C719 H727 0.929 . S
C720 C719 1.383 . S
C720 C721 1.377 . S
C721 H705 0.930 . S
C721 C720 1.377 . S
C721 C722 1.379 . S
C722 H706 0.931 . S
C722 C716 1.383 . S
C722 C721 1.379 . S
H723 C717 0.956 1_556 S
H724 C717 0.960 1_556 S
H725 C717 0.956 1_556 S
H726 C718 0.930 . S
H727 C719 0.929 . S
H728 C736 0.929 . S
H729 C738 0.930 . S
H730 C740 0.930 . S
H731 C743 0.929 . S
H732 C746 0.930 . S
H733 C748 0.960 . S
H734 C748 0.960 . S
H735 C748 0.960 . S
C736 H728 0.929 . S
C736 C737 1.377 . S
C736 C738 1.384 . S
C737 C736 1.377 . S
C737 C743 1.390 . S
C738 H729 0.930 . S
C738 C736 1.384 . S
C738 C739 1.372 . S
C739 C738 1.372 . S
C739 C740 1.400 . S
C739 C744 1.490 . S
C740 H730 0.930 . S
C740 C739 1.400 . S
C740 C743 1.386 . S
H741 C757 0.930 1_554 S
H742 C758 0.931 . S
C743 H731 0.929 . S
C743 C737 1.390 . S
C743 C740 1.386 . S
C744 C739 1.490 . S
C744 C746 1.395 . S
C744 C747 1.403 . S
H745 C751 0.930 . S
C746 H732 0.930 . S
C746 C744 1.395 . S
C746 C749 1.403 . S
C747 C744 1.403 . S
C747 C748 1.524 . S
C747 C751 1.400 . S
C748 H733 0.960 . S
C748 H734 0.960 . S
C748 H735 0.960 . S
C748 C747 1.524 . S
C749 C746 1.403 . S
C749 C750 1.392 . S
C749 C753 1.495 . S
C750 C749 1.392 . S
C750 C751 1.385 . S
C750 C752 1.478 . S
C751 H745 0.930 . S
C751 C747 1.400 . S
C751 C750 1.385 . S
C752 C750 1.478 . S
C752 C754 1.381 . S
C752 C758 1.383 . S
C753 C749 1.495 . S
C753 H759 0.959 . S
C753 H760 0.961 . S
C753 H761 0.960 . S
C754 C752 1.381 . S
C754 C755 1.394 . S
C754 H762 0.930 . S
C755 C754 1.394 . S
C755 C756 1.383 . S
C755 H763 0.929 . S
C756 C755 1.383 . S
C756 C757 1.377 . S
C757 H741 0.930 1_556 S
C757 C756 1.377 . S
C757 C758 1.379 . S
C758 H742 0.931 . S
C758 C752 1.383 . S
C758 C757 1.379 . S
H759 C753 0.959 . S
H760 C753 0.961 . S
H761 C753 0.960 . S
H762 C754 0.930 . S
H763 C755 0.929 . S
H764 C772 0.929 . S
H765 C774 0.930 . S
H766 C776 0.930 . S
H767 C779 0.929 . S
H768 C782 0.930 . S
H769 C784 0.960 . S
H770 C784 0.960 . S
H771 C784 0.960 . S
C772 H764 0.929 . S
C772 C773 1.377 . S
C772 C774 1.384 . S
C773 C772 1.377 . S
C773 C779 1.390 . S
C774 H765 0.930 . S
C774 C772 1.384 . S
C774 C775 1.372 . S
C775 C774 1.372 . S
C775 C776 1.400 . S
C775 C780 1.490 . S
C776 H766 0.930 . S
C776 C775 1.400 . S
C776 C779 1.386 . S
H777 C793 0.930 . S
H778 C794 0.931 . S
C779 H767 0.929 . S
C779 C773 1.390 . S
C779 C776 1.386 . S
C780 C775 1.490 . S
C780 C782 1.395 . S
C780 C783 1.403 . S
H781 C787 0.930 . S
C782 H768 0.930 . S
C782 C780 1.395 . S
C782 C785 1.403 . S
C783 C780 1.403 . S
C783 C784 1.524 . S
C783 C787 1.400 . S
C784 H769 0.960 . S
C784 H770 0.960 . S
C784 H771 0.960 . S
C784 C783 1.524 . S
C785 C782 1.403 . S
C785 C786 1.392 . S
C785 C789 1.495 1_655 S
C786 C785 1.392 . S
C786 C787 1.385 . S
C786 C788 1.478 . S
C787 H781 0.930 . S
C787 C783 1.400 . S
C787 C786 1.385 . S
C788 C786 1.478 . S
C788 C790 1.381 . S
C788 C794 1.383 . S
C789 C785 1.495 1_455 S
C789 H795 0.959 . S
C789 H796 0.962 . S
C789 H797 0.960 . S
C790 C788 1.381 . S
C790 C791 1.394 . S
C790 H798 0.930 . S
C791 C790 1.394 . S
C791 C792 1.383 . S
C791 H799 0.929 1_655 S
C792 C791 1.383 . S
C792 C793 1.377 . S
C793 H777 0.930 . S
C793 C792 1.377 . S
C793 C794 1.379 . S
C794 H778 0.931 . S
C794 C788 1.383 . S
C794 C793 1.379 . S
H795 C789 0.959 . S
H796 C789 0.962 . S
H797 C789 0.960 . S
H798 C790 0.930 . S
H799 C791 0.929 1_455 S
H800 C808 0.929 . S
H801 C810 0.930 . S
H802 C812 0.930 . S
H803 C815 0.929 . S
H804 C818 0.930 . S
H805 C820 0.960 . S
H806 C820 0.960 . S
H807 C820 0.960 . S
C808 H800 0.929 . S
C808 C809 1.377 . S
C808 C810 1.384 . S
C809 C808 1.377 . S
C809 C815 1.390 . S
C810 H801 0.930 . S
C810 C808 1.384 . S
C810 C811 1.372 . S
C811 C810 1.372 . S
C811 C812 1.400 . S
C811 C816 1.490 . S
C812 H802 0.930 . S
C812 C811 1.400 . S
C812 C815 1.386 . S
H813 C829 0.930 . S
H814 C830 0.931 . S
C815 H803 0.929 . S
C815 C809 1.390 . S
C815 C812 1.386 . S
C816 C811 1.490 . S
C816 C818 1.395 . S
C816 C819 1.403 . S
H817 C823 0.930 . S
C818 H804 0.930 . S
C818 C816 1.395 . S
C818 C821 1.403 . S
C819 C816 1.403 . S
C819 C820 1.524 . S
C819 C823 1.400 . S
C820 H805 0.960 . S
C820 H806 0.960 . S
C820 H807 0.960 . S
C820 C819 1.524 . S
C821 C818 1.403 . S
C821 C822 1.392 . S
C821 C825 1.495 . S
C822 C821 1.392 . S
C822 C823 1.385 . S
C822 C824 1.478 . S
C823 H817 0.930 . S
C823 C819 1.400 . S
C823 C822 1.385 . S
C824 C822 1.478 . S
C824 C826 1.381 . S
C824 C830 1.383 . S
C825 C821 1.495 . S
C825 H831 0.959 . S
C825 H832 0.961 . S
C825 H833 0.960 . S
C826 C824 1.381 . S
C826 C827 1.394 . S
C826 H834 0.930 . S
C827 C826 1.394 . S
C827 C828 1.383 . S
C827 H835 0.929 . S
C828 C827 1.383 . S
C828 C829 1.377 . S
C829 H813 0.930 . S
C829 C828 1.377 . S
C829 C830 1.379 . S
C830 H814 0.931 . S
C830 C824 1.383 . S
C830 C829 1.379 . S
H831 C825 0.959 . S
H832 C825 0.961 . S
H833 C825 0.960 . S
H834 C826 0.930 . S
H835 C827 0.929 . S
H836 C844 0.929 . S
H837 C846 0.930 . S
H838 C848 0.930 . S
H839 C851 0.929 . S
H840 C854 0.930 . S
H841 C856 0.960 . S
H842 C856 0.960 . S
H843 C856 0.960 . S
C844 H836 0.929 . S
C844 C845 1.377 . S
C844 C846 1.384 . S
C845 C844 1.377 . S
C845 C851 1.390 . S
C846 H837 0.930 . S
C846 C844 1.384 . S
C846 C847 1.372 . S
C847 C846 1.372 . S
C847 C848 1.400 . S
C847 C852 1.490 . S
C848 H838 0.930 . S
C848 C847 1.400 . S
C848 C851 1.386 . S
H849 C865 0.930 . S
H850 C866 0.931 . S
C851 H839 0.929 . S
C851 C845 1.390 . S
C851 C848 1.386 . S
C852 C847 1.490 . S
C852 C854 1.395 . S
C852 C855 1.403 . S
H853 C859 0.930 . S
C854 H840 0.930 . S
C854 C852 1.395 . S
C854 C857 1.403 . S
C855 C852 1.403 . S
C855 C856 1.524 . S
C855 C859 1.400 . S
C856 H841 0.960 . S
C856 H842 0.960 . S
C856 H843 0.960 . S
C856 C855 1.524 . S
C857 C854 1.403 . S
C857 C858 1.392 . S
C857 C861 1.495 1_655 S
C858 C857 1.392 . S
C858 C859 1.385 . S
C858 C860 1.478 . S
C859 H853 0.930 . S
C859 C855 1.400 . S
C859 C858 1.385 . S
C860 C858 1.478 . S
C860 C862 1.381 . S
C860 C866 1.383 . S
C861 C857 1.495 1_455 S
C861 H867 0.959 . S
C861 H868 0.961 . S
C861 H869 0.960 . S
C862 C860 1.381 . S
C862 C863 1.394 . S
C862 H870 0.930 . S
C863 C862 1.394 . S
C863 C864 1.383 . S
C863 H871 0.929 1_665 S
C864 C863 1.383 . S
C864 C865 1.377 . S
C865 H849 0.930 . S
C865 C864 1.377 . S
C865 C866 1.379 . S
C866 H850 0.931 . S
C866 C860 1.383 . S
C866 C865 1.379 . S
H867 C861 0.959 . S
H868 C861 0.961 . S
H869 C861 0.960 . S
H870 C862 0.930 . S
H871 C863 0.929 1_445 S
H872 C880 0.929 . S
H873 C882 0.930 . S
H874 C884 0.930 . S
H875 C887 0.929 . S
H876 C890 0.930 . S
H877 C892 0.960 . S
H878 C892 0.960 . S
H879 C892 0.960 . S
C880 H872 0.929 . S
C880 C881 1.377 . S
C880 C882 1.384 . S
C881 C880 1.377 . S
C881 C887 1.390 . S
C882 H873 0.930 . S
C882 C880 1.384 . S
C882 C883 1.372 . S
C883 C882 1.372 . S
C883 C884 1.400 . S
C883 C888 1.490 . S
C884 H874 0.930 . S
C884 C883 1.400 . S
C884 C887 1.386 . S
H885 C901 0.930 . S
H886 C902 0.931 . S
C887 H875 0.929 . S
C887 C881 1.390 . S
C887 C884 1.386 . S
C888 C883 1.490 . S
C888 C890 1.395 . S
C888 C891 1.403 . S
H889 C895 0.930 . S
C890 H876 0.930 . S
C890 C888 1.395 . S
C890 C893 1.403 . S
C891 C888 1.403 . S
C891 C892 1.524 . S
C891 C895 1.400 . S
C892 H877 0.960 . S
C892 H878 0.960 . S
C892 H879 0.960 . S
C892 C891 1.524 . S
C893 C890 1.403 . S
C893 C894 1.392 . S
C893 C897 1.495 . S
C894 C893 1.392 . S
C894 C895 1.385 . S
C894 C896 1.478 . S
C895 H889 0.930 . S
C895 C891 1.400 . S
C895 C894 1.385 . S
C896 C894 1.478 . S
C896 C898 1.381 . S
C896 C902 1.383 . S
C897 C893 1.495 . S
C897 H903 0.959 . S
C897 H904 0.961 . S
C897 H905 0.960 . S
C898 C896 1.381 . S
C898 C899 1.394 . S
C898 H906 0.930 . S
C899 C898 1.394 . S
C899 C900 1.383 . S
C899 H907 0.929 . S
C900 C899 1.383 . S
C900 C901 1.377 . S
C901 H885 0.930 . S
C901 C900 1.377 . S
C901 C902 1.379 . S
C902 H886 0.931 . S
C902 C896 1.383 . S
C902 C901 1.379 . S
H903 C897 0.959 . S
H904 C897 0.961 . S
H905 C897 0.960 . S
H906 C898 0.930 . S
H907 C899 0.929 . S
H908 C916 0.929 . S
H909 C918 0.930 . S
H910 C920 0.930 . S
H911 C923 0.929 . S
H912 C926 0.930 . S
H913 C928 0.960 . S
H914 C928 0.960 . S
H915 C928 0.960 . S
C916 H908 0.929 . S
C916 C917 1.377 . S
C916 C918 1.384 . S
C917 C916 1.377 . S
C917 C923 1.390 . S
C918 H909 0.930 . S
C918 C916 1.384 . S
C918 C919 1.372 . S
C919 C918 1.372 . S
C919 C920 1.400 . S
C919 C924 1.490 . S
C920 H910 0.930 . S
C920 C919 1.400 . S
C920 C923 1.386 . S
H921 C937 0.930 . S
H922 C938 0.931 . S
C923 H911 0.929 . S
C923 C917 1.390 . S
C923 C920 1.386 . S
C924 C919 1.490 . S
C924 C926 1.395 . S
C924 C927 1.403 . S
H925 C931 0.930 . S
C926 H912 0.930 . S
C926 C924 1.395 . S
C926 C929 1.403 . S
C927 C924 1.403 . S
C927 C928 1.524 . S
C927 C931 1.400 . S
C928 H913 0.960 . S
C928 H914 0.960 . S
C928 H915 0.960 . S
C928 C927 1.524 . S
C929 C926 1.403 . S
C929 C930 1.392 . S
C929 C933 1.495 . S
C930 C929 1.392 . S
C930 C931 1.385 . S
C930 C932 1.478 . S
C931 H925 0.930 . S
C931 C927 1.400 . S
C931 C930 1.385 . S
C932 C930 1.478 . S
C932 C934 1.381 . S
C932 C938 1.383 . S
C933 C929 1.495 . S
C933 H939 0.959 . S
C933 H940 0.961 . S
C933 H941 0.960 . S
C934 C932 1.381 . S
C934 C935 1.394 . S
C934 H942 0.930 . S
C935 C934 1.394 . S
C935 C936 1.383 . S
C935 H943 0.929 . S
C936 C935 1.383 . S
C936 C937 1.377 . S
C937 H921 0.930 . S
C937 C936 1.377 . S
C937 C938 1.379 . S
C938 H922 0.931 . S
C938 C932 1.383 . S
C938 C937 1.379 . S
H939 C933 0.959 . S
H940 C933 0.961 . S
H941 C933 0.960 . S
H942 C934 0.930 . S
H943 C935 0.929 . S
H944 C952 0.929 . S
H945 C954 0.930 . S
H946 C956 0.930 . S
H947 C959 0.929 . S
H948 C962 0.930 . S
H949 C964 0.960 . S
H950 C964 0.960 . S
H951 C964 0.960 . S
C952 H944 0.929 . S
C952 C953 1.377 . S
C952 C954 1.384 . S
C953 C952 1.377 . S
C953 C959 1.390 . S
C954 H945 0.930 . S
C954 C952 1.384 . S
C954 C955 1.372 . S
C955 C954 1.372 . S
C955 C956 1.400 . S
C955 C960 1.490 . S
C956 H946 0.930 . S
C956 C955 1.400 . S
C956 C959 1.386 . S
H957 C973 0.930 . S
H958 C974 0.931 . S
C959 H947 0.929 . S
C959 C953 1.390 . S
C959 C956 1.386 . S
C960 C955 1.490 . S
C960 C962 1.395 . S
C960 C963 1.403 . S
H961 C967 0.930 . S
C962 H948 0.930 . S
C962 C960 1.395 . S
C962 C965 1.403 . S
C963 C960 1.403 . S
C963 C964 1.524 . S
C963 C967 1.400 . S
C964 H949 0.960 . S
C964 H950 0.960 . S
C964 H951 0.960 . S
C964 C963 1.524 . S
C965 C962 1.403 . S
C965 C966 1.392 . S
C965 C969 1.495 . S
C966 C965 1.392 . S
C966 C967 1.385 . S
C966 C968 1.478 . S
C967 H961 0.930 . S
C967 C963 1.400 . S
C967 C966 1.385 . S
C968 C966 1.478 . S
C968 C970 1.381 . S
C968 C974 1.383 . S
C969 C965 1.495 . S
C969 H975 0.959 . S
C969 H976 0.961 1_455 S
C969 H977 0.960 . S
C970 C968 1.381 . S
C970 C971 1.394 . S
C970 H978 0.930 . S
C971 C970 1.394 . S
C971 C972 1.383 . S
C971 H979 0.929 . S
C972 C971 1.383 . S
C972 C973 1.377 . S
C973 H957 0.930 . S
C973 C972 1.377 . S
C973 C974 1.379 . S
C974 H958 0.931 . S
C974 C968 1.383 . S
C974 C973 1.379 . S
H975 C969 0.959 . S
H976 C969 0.961 1_655 S
H977 C969 0.960 . S
H978 C970 0.930 . S
H979 C971 0.929 . S
H980 C988 0.929 . S
H981 C990 0.930 . S
H982 C992 0.930 . S
H983 C995 0.929 . S
H984 C998 0.930 . S
H985 C1000 0.960 . S
H986 C1000 0.960 . S
H987 C1000 0.960 . S
C988 H980 0.929 . S
C988 C989 1.377 . S
C988 C990 1.384 . S
C989 C988 1.377 . S
C989 C995 1.390 . S
C990 H981 0.930 . S
C990 C988 1.384 . S
C990 C991 1.372 . S
C991 C990 1.372 . S
C991 C992 1.400 . S
C991 C996 1.490 . S
C992 H982 0.930 . S
C992 C991 1.400 . S
C992 C995 1.386 . S
H993 C1009 0.930 1_554 S
H994 C1010 0.931 . S
C995 H983 0.929 . S
C995 C989 1.390 . S
C995 C992 1.386 . S
C996 C991 1.490 . S
C996 C998 1.395 . S
C996 C999 1.403 . S
H997 C1003 0.930 . S
C998 H984 0.930 . S
C998 C996 1.395 . S
C998 C1001 1.403 . S
C999 C996 1.403 . S
C999 C1000 1.524 . S
C999 C1003 1.400 . S
C1000 H985 0.960 . S
C1000 H986 0.960 . S
C1000 H987 0.960 . S
C1000 C999 1.524 . S
C1001 C998 1.403 . S
C1001 C1002 1.392 . S
C1001 C1005 1.495 . S
C1002 C1001 1.392 . S
C1002 C1003 1.385 . S
C1002 C1004 1.478 . S
C1003 H997 0.930 . S
C1003 C999 1.400 . S
C1003 C1002 1.385 . S
C1004 C1002 1.478 . S
C1004 C1006 1.381 . S
C1004 C1010 1.383 . S
C1005 C1001 1.495 . S
C1005 H1011 0.959 . S
C1005 H1012 0.961 . S
C1005 H1013 0.960 . S
C1006 C1004 1.381 . S
C1006 C1007 1.394 . S
C1006 H1014 0.930 . S
C1007 C1006 1.394 . S
C1007 C1008 1.383 . S
C1007 H1015 0.929 1_565 S
C1008 C1007 1.383 . S
C1008 C1009 1.377 . S
C1009 H993 0.930 1_556 S
C1009 C1008 1.377 . S
C1009 C1010 1.379 . S
C1010 H994 0.931 . S
C1010 C1004 1.383 . S
C1010 C1009 1.379 . S
H1011 C1005 0.959 . S
H1012 C1005 0.961 . S
H1013 C1005 0.960 . S
H1014 C1006 0.930 . S
H1015 C1007 0.929 1_545 S
H1016 C1024 0.929 . S
H1017 C1026 0.930 . S
H1018 C1028 0.930 . S
H1019 C1031 0.929 . S
H1020 C1034 0.930 . S
H1021 C1036 0.960 . S
H1022 C1036 0.960 . S
H1023 C1036 0.960 . S
C1024 H1016 0.929 . S
C1024 C1025 1.377 . S
C1024 C1026 1.384 . S
C1025 C1024 1.377 . S
C1025 C1031 1.390 . S
C1026 H1017 0.930 . S
C1026 C1024 1.384 . S
C1026 C1027 1.372 . S
C1027 C1026 1.372 . S
C1027 C1028 1.400 . S
C1027 C1032 1.490 . S
C1028 H1018 0.930 . S
C1028 C1027 1.400 . S
C1028 C1031 1.386 . S
H1029 C1045 0.930 . S
H1030 C1046 0.931 . S
C1031 H1019 0.929 . S
C1031 C1025 1.390 . S
C1031 C1028 1.386 . S
C1032 C1027 1.490 . S
C1032 C1034 1.395 . S
C1032 C1035 1.403 . S
H1033 C1039 0.930 . S
C1034 H1020 0.930 . S
C1034 C1032 1.395 . S
C1034 C1037 1.403 . S
C1035 C1032 1.403 . S
C1035 C1036 1.524 . S
C1035 C1039 1.400 . S
C1036 H1021 0.960 . S
C1036 H1022 0.960 . S
C1036 H1023 0.960 . S
C1036 C1035 1.524 . S
C1037 C1034 1.403 . S
C1037 C1038 1.392 . S
C1037 C1041 1.495 . S
C1038 C1037 1.392 . S
C1038 C1039 1.385 . S
C1038 C1040 1.478 . S
C1039 H1033 0.930 . S
C1039 C1035 1.400 . S
C1039 C1038 1.385 . S
C1040 C1038 1.478 . S
C1040 C1042 1.381 . S
C1040 C1046 1.383 . S
C1041 C1037 1.495 . S
C1041 H1047 0.959 . S
C1041 H1048 0.961 . S
C1041 H1049 0.960 . S
C1042 C1040 1.381 . S
C1042 C1043 1.394 . S
C1042 H1050 0.930 . S
C1043 C1042 1.394 . S
C1043 C1044 1.383 . S
C1043 H1051 0.929 . S
C1044 C1043 1.383 . S
C1044 C1045 1.377 . S
C1045 H1029 0.930 . S
C1045 C1044 1.377 . S
C1045 C1046 1.379 . S
C1046 H1030 0.931 . S
C1046 C1040 1.383 . S
C1046 C1045 1.379 . S
H1047 C1041 0.959 . S
H1048 C1041 0.961 . S
H1049 C1041 0.960 . S
H1050 C1042 0.930 . S
H1051 C1043 0.929 . S
H1052 C1060 0.929 . S
H1053 C1062 0.930 . S
H1054 C1064 0.930 . S
H1055 C1067 0.929 . S
H1056 C1070 0.930 . S
H1057 C1072 0.960 . S
H1058 C1072 0.960 . S
H1059 C1072 0.960 . S
C1060 H1052 0.929 . S
C1060 C1061 1.377 . S
C1060 C1062 1.384 . S
C1061 C1060 1.377 . S
C1061 C1067 1.390 . S
C1062 H1053 0.930 . S
C1062 C1060 1.384 . S
C1062 C1063 1.372 . S
C1063 C1062 1.372 . S
C1063 C1064 1.400 . S
C1063 C1068 1.490 . S
C1064 H1054 0.930 . S
C1064 C1063 1.400 . S
C1064 C1067 1.386 . S
H1065 C1081 0.930 . S
H1066 C1082 0.931 . S
C1067 H1055 0.929 . S
C1067 C1061 1.390 . S
C1067 C1064 1.386 . S
C1068 C1063 1.490 . S
C1068 C1070 1.395 . S
C1068 C1071 1.403 . S
H1069 C1075 0.930 . S
C1070 H1056 0.930 . S
C1070 C1068 1.395 . S
C1070 C1073 1.403 . S
C1071 C1068 1.403 . S
C1071 C1072 1.524 . S
C1071 C1075 1.400 . S
C1072 H1057 0.960 . S
C1072 H1058 0.960 . S
C1072 H1059 0.960 . S
C1072 C1071 1.524 . S
C1073 C1070 1.403 . S
C1073 C1074 1.392 . S
C1073 C1077 1.495 . S
C1074 C1073 1.392 . S
C1074 C1075 1.385 . S
C1074 C1076 1.478 . S
C1075 H1069 0.930 . S
C1075 C1071 1.400 . S
C1075 C1074 1.385 . S
C1076 C1074 1.478 . S
C1076 C1078 1.381 . S
C1076 C1082 1.383 . S
C1077 C1073 1.495 . S
C1077 H1083 0.967 . S
C1077 H1084 0.961 . S
C1077 H1085 0.960 1_554 S
C1078 C1076 1.381 . S
C1078 C1079 1.394 . S
C1078 H1086 0.930 . S
C1079 C1078 1.394 . S
C1079 C1080 1.383 . S
C1079 H1087 0.929 . S
C1080 C1079 1.383 . S
C1080 C1081 1.377 . S
C1081 H1065 0.930 . S
C1081 C1080 1.377 . S
C1081 C1082 1.379 . S
C1082 H1066 0.931 . S
C1082 C1076 1.383 . S
C1082 C1081 1.379 . S
H1083 C1077 0.967 . S
H1084 C1077 0.961 . S
H1085 C1077 0.960 1_556 S
H1086 C1078 0.930 . S
H1087 C1079 0.929 . S
H1088 C1096 0.929 . S
H1089 C1098 0.930 . S
H1090 C1100 0.930 . S
H1091 C1103 0.929 . S
H1092 C1106 0.930 . S
H1093 C1108 0.960 . S
H1094 C1108 0.960 . S
H1095 C1108 0.960 . S
C1096 H1088 0.929 . S
C1096 C1097 1.377 . S
C1096 C1098 1.384 . S
C1097 C1096 1.377 . S
C1097 C1103 1.390 . S
C1098 H1089 0.930 . S
C1098 C1096 1.384 . S
C1098 C1099 1.372 . S
C1099 C1098 1.372 . S
C1099 C1100 1.400 . S
C1099 C1104 1.490 . S
C1100 H1090 0.930 . S
C1100 C1099 1.400 . S
C1100 C1103 1.386 . S
H1101 C1117 0.930 . S
H1102 C1118 0.931 . S
C1103 H1091 0.929 . S
C1103 C1097 1.390 . S
C1103 C1100 1.386 . S
C1104 C1099 1.490 . S
C1104 C1106 1.395 . S
C1104 C1107 1.403 . S
H1105 C1111 0.930 . S
C1106 H1092 0.930 . S
C1106 C1104 1.395 . S
C1106 C1109 1.403 . S
C1107 C1104 1.403 . S
C1107 C1108 1.524 . S
C1107 C1111 1.400 . S
C1108 H1093 0.960 . S
C1108 H1094 0.960 . S
C1108 H1095 0.960 . S
C1108 C1107 1.524 . S
C1109 C1106 1.403 . S
C1109 C1110 1.392 . S
C1109 C1113 1.495 . S
C1110 C1109 1.392 . S
C1110 C1111 1.385 . S
C1110 C1112 1.478 . S
C1111 H1105 0.930 . S
C1111 C1107 1.400 . S
C1111 C1110 1.385 . S
C1112 C1110 1.478 . S
C1112 C1114 1.381 . S
C1112 C1118 1.383 . S
C1113 C1109 1.495 . S
C1113 H1119 0.959 . S
C1113 H1120 0.961 . S
C1113 H1121 0.960 . S
C1114 C1112 1.381 . S
C1114 C1115 1.394 . S
C1114 H1122 0.930 . S
C1115 C1114 1.394 . S
C1115 C1116 1.383 . S
C1115 H1123 0.929 . S
C1116 C1115 1.383 . S
C1116 C1117 1.377 . S
C1117 H1101 0.930 . S
C1117 C1116 1.377 . S
C1117 C1118 1.379 . S
C1118 H1102 0.931 . S
C1118 C1112 1.383 . S
C1118 C1117 1.379 . S
H1119 C1113 0.959 . S
H1120 C1113 0.961 . S
H1121 C1113 0.960 . S
H1122 C1114 0.930 . S
H1123 C1115 0.929 . S
H1124 C1132 0.929 . S
H1125 C1134 0.930 . S
H1126 C1136 0.930 . S
H1127 C1139 0.929 . S
H1128 C1142 0.930 . S
H1129 C1144 0.960 . S
H1130 C1144 0.960 . S
H1131 C1144 0.960 . S
C1132 H1124 0.929 . S
C1132 C1133 1.377 . S
C1132 C1134 1.384 . S
C1133 C1132 1.377 . S
C1133 C1139 1.390 . S
C1134 H1125 0.930 . S
C1134 C1132 1.384 . S
C1134 C1135 1.372 . S
C1135 C1134 1.372 . S
C1135 C1136 1.400 . S
C1135 C1140 1.490 . S
C1136 H1126 0.930 . S
C1136 C1135 1.400 . S
C1136 C1139 1.386 . S
H1137 C1153 0.930 1_554 S
H1138 C1154 0.931 1_554 S
C1139 H1127 0.929 . S
C1139 C1133 1.390 . S
C1139 C1136 1.386 . S
C1140 C1135 1.490 . S
C1140 C1142 1.395 . S
C1140 C1143 1.403 . S
H1141 C1147 0.930 . S
C1142 H1128 0.930 . S
C1142 C1140 1.395 . S
C1142 C1145 1.403 . S
C1143 C1140 1.403 . S
C1143 C1144 1.524 . S
C1143 C1147 1.400 . S
C1144 H1129 0.960 . S
C1144 H1130 0.960 . S
C1144 H1131 0.960 . S
C1144 C1143 1.524 . S
C1145 C1142 1.403 . S
C1145 C1146 1.392 . S
C1145 C1149 1.495 . S
C1146 C1145 1.392 . S
C1146 C1147 1.385 . S
C1146 C1148 1.478 . S
C1147 H1141 0.930 . S
C1147 C1143 1.400 . S
C1147 C1146 1.385 . S
C1148 C1146 1.478 . S
C1148 C1150 1.381 . S
C1148 C1154 1.383 . S
C1149 C1145 1.495 . S
C1149 H1155 0.959 1_655 S
C1149 H1156 0.961 1_655 S
C1149 H1157 0.960 . S
C1150 C1148 1.381 . S
C1150 C1151 1.394 . S
C1150 H1158 0.930 . S
C1151 C1150 1.394 . S
C1151 C1152 1.383 . S
C1151 H1159 0.929 . S
C1152 C1151 1.383 . S
C1152 C1153 1.377 . S
C1153 H1137 0.930 1_556 S
C1153 C1152 1.377 . S
C1153 C1154 1.379 . S
C1154 H1138 0.931 1_556 S
C1154 C1148 1.383 . S
C1154 C1153 1.379 . S
H1155 C1149 0.959 1_455 S
H1156 C1149 0.961 1_455 S
H1157 C1149 0.960 . S
H1158 C1150 0.930 . S
H1159 C1151 0.929 . S
H1160 C1168 0.929 . S
H1161 C1170 0.930 . S
H1162 C1172 0.930 . S
H1163 C1175 0.929 . S
H1164 C1178 0.930 . S
H1165 C1180 0.960 . S
H1166 C1180 0.960 . S
H1167 C1180 0.960 . S
C1168 H1160 0.929 . S
C1168 C1169 1.377 . S
C1168 C1170 1.384 . S
C1169 C1168 1.377 . S
C1169 C1175 1.390 . S
C1170 H1161 0.930 . S
C1170 C1168 1.384 . S
C1170 C1171 1.372 . S
C1171 C1170 1.372 . S
C1171 C1172 1.400 . S
C1171 C1176 1.490 . S
C1172 H1162 0.930 . S
C1172 C1171 1.400 . S
C1172 C1175 1.386 . S
H1173 C1189 0.930 . S
H1174 C1190 0.931 . S
C1175 H1163 0.929 . S
C1175 C1169 1.390 . S
C1175 C1172 1.386 . S
C1176 C1171 1.490 . S
C1176 C1178 1.395 . S
C1176 C1179 1.403 . S
H1177 C1183 0.930 . S
C1178 H1164 0.930 . S
C1178 C1176 1.395 . S
C1178 C1181 1.403 . S
C1179 C1176 1.403 . S
C1179 C1180 1.524 . S
C1179 C1183 1.400 . S
C1180 H1165 0.960 . S
C1180 H1166 0.960 . S
C1180 H1167 0.960 . S
C1180 C1179 1.524 . S
C1181 C1178 1.403 . S
C1181 C1182 1.392 . S
C1181 C1185 1.495 . S
C1182 C1181 1.392 . S
C1182 C1183 1.385 . S
C1182 C1184 1.478 . S
C1183 H1177 0.930 . S
C1183 C1179 1.400 . S
C1183 C1182 1.385 . S
C1184 C1182 1.478 . S
C1184 C1186 1.381 . S
C1184 C1190 1.383 . S
C1185 C1181 1.495 . S
C1185 H1191 0.959 . S
C1185 H1192 0.961 . S
C1185 H1193 0.960 . S
C1186 C1184 1.381 . S
C1186 C1187 1.394 . S
C1186 H1194 0.930 . S
C1187 C1186 1.394 . S
C1187 C1188 1.383 . S
C1187 H1195 0.929 . S
C1188 C1187 1.383 . S
C1188 C1189 1.377 . S
C1189 H1173 0.930 . S
C1189 C1188 1.377 . S
C1189 C1190 1.379 . S
C1190 H1174 0.931 . S
C1190 C1184 1.383 . S
C1190 C1189 1.379 . S
H1191 C1185 0.959 . S
H1192 C1185 0.961 . S
H1193 C1185 0.960 . S
H1194 C1186 0.930 . S
H1195 C1187 0.929 . S
H1196 C1204 0.929 . S
H1197 C1206 0.930 . S
H1198 C1208 0.930 . S
H1199 C1211 0.929 . S
H1200 C1214 0.930 . S
H1201 C1216 0.960 . S
H1202 C1216 0.960 . S
H1203 C1216 0.960 . S
C1204 H1196 0.929 . S
C1204 C1205 1.377 . S
C1204 C1206 1.384 . S
C1205 C1204 1.377 . S
C1205 C1211 1.390 . S
C1206 H1197 0.930 . S
C1206 C1204 1.384 . S
C1206 C1207 1.372 . S
C1207 C1206 1.372 . S
C1207 C1208 1.400 . S
C1207 C1212 1.490 . S
C1208 H1198 0.930 . S
C1208 C1207 1.400 . S
C1208 C1211 1.386 . S
H1209 C1225 0.930 . S
H1210 C1226 0.931 . S
C1211 H1199 0.929 . S
C1211 C1205 1.390 . S
C1211 C1208 1.386 . S
C1212 C1207 1.490 . S
C1212 C1214 1.395 . S
C1212 C1215 1.403 . S
H1213 C1219 0.930 . S
C1214 H1200 0.930 . S
C1214 C1212 1.395 . S
C1214 C1217 1.403 . S
C1215 C1212 1.403 . S
C1215 C1216 1.524 . S
C1215 C1219 1.400 . S
C1216 H1201 0.960 . S
C1216 H1202 0.960 . S
C1216 H1203 0.960 . S
C1216 C1215 1.524 . S
C1217 C1214 1.403 . S
C1217 C1218 1.392 . S
C1217 C1221 1.495 1_455 S
C1218 C1217 1.392 . S
C1218 C1219 1.385 . S
C1218 C1220 1.478 . S
C1219 H1213 0.930 . S
C1219 C1215 1.400 . S
C1219 C1218 1.385 . S
C1220 C1218 1.478 . S
C1220 C1222 1.381 . S
C1220 C1226 1.383 . S
C1221 C1217 1.495 1_655 S
C1221 H1227 0.959 . S
C1221 H1228 0.961 . S
C1221 H1229 0.960 . S
C1222 C1220 1.381 . S
C1222 C1223 1.394 . S
C1222 H1230 0.930 . S
C1223 C1222 1.394 . S
C1223 C1224 1.383 . S
C1223 H1231 0.906 1_455 S
C1224 C1223 1.383 . S
C1224 C1225 1.377 . S
C1225 H1209 0.930 . S
C1225 C1224 1.377 . S
C1225 C1226 1.379 . S
C1226 H1210 0.931 . S
C1226 C1220 1.383 . S
C1226 C1225 1.379 . S
H1227 C1221 0.959 . S
H1228 C1221 0.961 . S
H1229 C1221 0.960 . S
H1230 C1222 0.930 . S
H1231 C1223 0.906 1_655 S
H1232 C1240 0.929 . S
H1233 C1242 0.930 . S
H1234 C1244 0.930 . S
H1235 C1247 0.929 . S
H1236 C1250 0.930 . S
H1237 C1252 0.960 . S
H1238 C1252 0.960 . S
H1239 C1252 0.960 . S
C1240 H1232 0.929 . S
C1240 C1241 1.377 . S
C1240 C1242 1.384 . S
C1241 C1240 1.377 . S
C1241 C1247 1.390 . S
C1242 H1233 0.930 . S
C1242 C1240 1.384 . S
C1242 C1243 1.372 . S
C1243 C1242 1.372 . S
C1243 C1244 1.400 . S
C1243 C1248 1.490 . S
C1244 H1234 0.930 . S
C1244 C1243 1.400 . S
C1244 C1247 1.386 . S
H1245 C1261 0.930 . S
H1246 C1262 0.931 . S
C1247 H1235 0.929 . S
C1247 C1241 1.390 . S
C1247 C1244 1.386 . S
C1248 C1243 1.490 . S
C1248 C1250 1.395 . S
C1248 C1251 1.403 . S
H1249 C1255 0.930 . S
C1250 H1236 0.930 . S
C1250 C1248 1.395 . S
C1250 C1253 1.403 . S
C1251 C1248 1.403 . S
C1251 C1252 1.524 . S
C1251 C1255 1.400 . S
C1252 H1237 0.960 . S
C1252 H1238 0.960 . S
C1252 H1239 0.960 . S
C1252 C1251 1.524 . S
C1253 C1250 1.403 . S
C1253 C1254 1.392 . S
C1253 C1257 1.495 . S
C1254 C1253 1.392 . S
C1254 C1255 1.385 . S
C1254 C1256 1.478 . S
C1255 H1249 0.930 . S
C1255 C1251 1.400 . S
C1255 C1254 1.385 . S
C1256 C1254 1.478 . S
C1256 C1258 1.381 . S
C1256 C1262 1.383 . S
C1257 C1253 1.495 . S
C1257 H1263 0.959 . S
C1257 H1264 0.961 . S
C1257 H1265 0.960 . S
C1258 C1256 1.381 . S
C1258 C1259 1.394 . S
C1258 H1266 0.930 . S
C1259 C1258 1.394 . S
C1259 C1260 1.383 . S
C1259 H1267 0.929 . S
C1260 C1259 1.383 . S
C1260 C1261 1.377 . S
C1261 H1245 0.930 . S
C1261 C1260 1.377 . S
C1261 C1262 1.379 . S
C1262 H1246 0.931 . S
C1262 C1256 1.383 . S
C1262 C1261 1.379 . S
H1263 C1257 0.959 . S
H1264 C1257 0.961 . S
H1265 C1257 0.960 . S
H1266 C1258 0.930 . S
H1267 C1259 0.929 . S
C413 C21 1.700 . S
C432 C336 1.621 . S
C449 C61 1.491 . S
C468 C358 1.462 . S
C504 C377 1.191 . S
C485 C82 1.360 . S
C521 C135 1.911 . S
C540 C398 1.609 . S
C576 C355 1.829 . S
C557 C15 1.909 . S
C612 C333 1.730 . S
C593 C42 1.759 . S
C648 C400 1.266 . S
C629 C101 1.310 . S
C684 C379 1.371 . S
C665 C122 1.460 . S
C701 C2 1.873 . S
C720 C397 1.829 . S
C756 C356 1.324 . S
C737 C95 1.567 . S
C773 C141 1.768 . S
C792 C338 1.571 . S
C809 C55 1.517 . S
C828 C376 1.504 . S
C864 C334 1.654 . S
C845 C181 1.696 . S
C881 C202 1.257 . S
C900 C354 1.281 . S
C917 C255 1.460 . S
C936 C380 1.250 . S
C953 C295 1.771 . S
C972 C401 1.394 . S
C989 C175 1.829 . S
C1008 C357 1.778 . S
C1044 C337 1.867 . S
C1025 C221 1.874 . S
C1080 C396 1.099 . S
C1061 C242 1.090 . S
C1116 C375 1.551 . S
C1097 C301 1.643 . S
C1133 C162 1.547 . S
C1152 C399 1.541 . S
C1188 C359 1.230 . S
C1169 C261 1.454 . S
C1224 C335 1.354 . S
C1205 C282 1.492 . S
C1241 C215 1.485 . S
C1260 C378 1.479 . S
