# Generated by pormake.
# Topology ocu, (6,8)-cn, num edge types: 1
# Building blocks:
#     Node 0, Type 0, BuildingBlock: NUHQIS_clean_sbu_0, # of connection points: 6
#     Node 1, Type 0, BuildingBlock: NUHQIS_clean_sbu_0, # of connection points: 6
#     Node 2, Type 0, BuildingBlock: NUHQIS_clean_sbu_0, # of connection points: 6
#     Node 3, Type 0, BuildingBlock: NUHQIS_clean_sbu_0, # of connection points: 6
#     Node 4, Type 0, BuildingBlock: NUHQIS_clean_sbu_0, # of connection points: 6
#     Node 5, Type 0, BuildingBlock: NUHQIS_clean_sbu_0, # of connection points: 6
#     Node 6, Type 0, BuildingBlock: NUHQIS_clean_sbu_0, # of connection points: 6
#     Node 7, Type 0, BuildingBlock: NUHQIS_clean_sbu_0, # of connection points: 6
#     Node 8, Type 1, BuildingBlock: TAGTUT_clean_sbu_1, # of connection points: 8
#     Node 9, Type 1, BuildingBlock: TAGTUT_clean_sbu_1, # of connection points: 8
#     Node 10, Type 1, BuildingBlock: TAGTUT_clean_sbu_1, # of connection points: 8
#     Node 11, Type 1, BuildingBlock: TAGTUT_clean_sbu_1, # of connection points: 8
#     Node 12, Type 1, BuildingBlock: TAGTUT_clean_sbu_1, # of connection points: 8
#     Node 13, Type 1, BuildingBlock: TAGTUT_clean_sbu_1, # of connection points: 8
#     Edge 14, Type (0, 1), BuildingBlock: TEMPAE_clean_linker_10, # of connection points: 2
#     Edge 15, Type (0, 1), BuildingBlock: TEMPAE_clean_linker_10, # of connection points: 2
#     Edge 16, Type (0, 1), BuildingBlock: TEMPAE_clean_linker_10, # of connection points: 2
#     Edge 17, Type (0, 1), BuildingBlock: TEMPAE_clean_linker_10, # of connection points: 2
#     Edge 18, Type (0, 1), BuildingBlock: TEMPAE_clean_linker_10, # of connection points: 2
#     Edge 19, Type (0, 1), BuildingBlock: TEMPAE_clean_linker_10, # of connection points: 2
#     Edge 20, Type (0, 1), BuildingBlock: TEMPAE_clean_linker_10, # of connection points: 2
#     Edge 21, Type (0, 1), BuildingBlock: TEMPAE_clean_linker_10, # of connection points: 2
#     Edge 22, Type (0, 1), BuildingBlock: TEMPAE_clean_linker_10, # of connection points: 2
#     Edge 23, Type (0, 1), BuildingBlock: TEMPAE_clean_linker_10, # of connection points: 2
#     Edge 24, Type (0, 1), BuildingBlock: TEMPAE_clean_linker_10, # of connection points: 2
#     Edge 25, Type (0, 1), BuildingBlock: TEMPAE_clean_linker_10, # of connection points: 2
#     Edge 26, Type (0, 1), BuildingBlock: TEMPAE_clean_linker_10, # of connection points: 2
#     Edge 27, Type (0, 1), BuildingBlock: TEMPAE_clean_linker_10, # of connection points: 2
#     Edge 28, Type (0, 1), BuildingBlock: TEMPAE_clean_linker_10, # of connection points: 2
#     Edge 29, Type (0, 1), BuildingBlock: TEMPAE_clean_linker_10, # of connection points: 2
#     Edge 30, Type (0, 1), BuildingBlock: TEMPAE_clean_linker_10, # of connection points: 2
#     Edge 31, Type (0, 1), BuildingBlock: TEMPAE_clean_linker_10, # of connection points: 2
#     Edge 32, Type (0, 1), BuildingBlock: TEMPAE_clean_linker_10, # of connection points: 2
#     Edge 33, Type (0, 1), BuildingBlock: TEMPAE_clean_linker_10, # of connection points: 2
#     Edge 34, Type (0, 1), BuildingBlock: TEMPAE_clean_linker_10, # of connection points: 2
#     Edge 35, Type (0, 1), BuildingBlock: TEMPAE_clean_linker_10, # of connection points: 2
#     Edge 36, Type (0, 1), BuildingBlock: TEMPAE_clean_linker_10, # of connection points: 2
#     Edge 37, Type (0, 1), BuildingBlock: TEMPAE_clean_linker_10, # of connection points: 2
#     Edge 38, Type (0, 1), BuildingBlock: TEMPAE_clean_linker_10, # of connection points: 2
#     Edge 39, Type (0, 1), BuildingBlock: TEMPAE_clean_linker_10, # of connection points: 2
#     Edge 40, Type (0, 1), BuildingBlock: TEMPAE_clean_linker_10, # of connection points: 2
#     Edge 41, Type (0, 1), BuildingBlock: TEMPAE_clean_linker_10, # of connection points: 2
#     Edge 42, Type (0, 1), BuildingBlock: TEMPAE_clean_linker_10, # of connection points: 2
#     Edge 43, Type (0, 1), BuildingBlock: TEMPAE_clean_linker_10, # of connection points: 2
#     Edge 44, Type (0, 1), BuildingBlock: TEMPAE_clean_linker_10, # of connection points: 2
#     Edge 45, Type (0, 1), BuildingBlock: TEMPAE_clean_linker_10, # of connection points: 2
#     Edge 46, Type (0, 1), BuildingBlock: TEMPAE_clean_linker_10, # of connection points: 2
#     Edge 47, Type (0, 1), BuildingBlock: TEMPAE_clean_linker_10, # of connection points: 2
#     Edge 48, Type (0, 1), BuildingBlock: TEMPAE_clean_linker_10, # of connection points: 2
#     Edge 49, Type (0, 1), BuildingBlock: TEMPAE_clean_linker_10, # of connection points: 2
#     Edge 50, Type (0, 1), BuildingBlock: TEMPAE_clean_linker_10, # of connection points: 2
#     Edge 51, Type (0, 1), BuildingBlock: TEMPAE_clean_linker_10, # of connection points: 2
#     Edge 52, Type (0, 1), BuildingBlock: TEMPAE_clean_linker_10, # of connection points: 2
#     Edge 53, Type (0, 1), BuildingBlock: TEMPAE_clean_linker_10, # of connection points: 2
#     Edge 54, Type (0, 1), BuildingBlock: TEMPAE_clean_linker_10, # of connection points: 2
#     Edge 55, Type (0, 1), BuildingBlock: TEMPAE_clean_linker_10, # of connection points: 2
#     Edge 56, Type (0, 1), BuildingBlock: TEMPAE_clean_linker_10, # of connection points: 2
#     Edge 57, Type (0, 1), BuildingBlock: TEMPAE_clean_linker_10, # of connection points: 2
#     Edge 58, Type (0, 1), BuildingBlock: TEMPAE_clean_linker_10, # of connection points: 2
#     Edge 59, Type (0, 1), BuildingBlock: TEMPAE_clean_linker_10, # of connection points: 2
#     Edge 60, Type (0, 1), BuildingBlock: TEMPAE_clean_linker_10, # of connection points: 2
#     Edge 61, Type (0, 1), BuildingBlock: TEMPAE_clean_linker_10, # of connection points: 2
# Relax obj value: 0.136
# Max RMSD: 0.251
# Mean RMSD: 0.126
data_MOF--net-ocu--node1-NUHQIS_clean_sbu_0--node2-TAGTUT_clean_sbu_1--edge1-TEMPAE_clean_linker_10
_symmetry_space_group_name_H-M    P1
_symmetry_Int_Tables_number       1
_symmetry_cell_setting            triclinic
loop_
_symmetry_equiv_pos_as_xyz
'x, y, z'
_cell_length_a     40.242328
_cell_length_b     40.304964
_cell_length_c     42.447823
_cell_angle_alpha  96.774117
_cell_angle_beta   87.468592
_cell_angle_gamma 113.98181
loop_
_atom_site_label
_atom_site_type_symbol
_atom_site_fract_x
_atom_site_fract_y
_atom_site_fract_z
_atom_type_partial_charge
Tb0 Tb 0.26927 0.25283 0.26495 0.0
Eu1 Eu 0.33462 0.29938 0.31181 0.0
C2 C 0.34132 0.23369 0.25609 0.0
C3 C 0.27275 0.22318 0.32914 0.0
C4 C 0.19269 0.23284 0.21258 0.0
C5 C 0.13485 0.23574 0.20384 0.0
C6 C 0.15494 0.21951 0.21699 0.0
C7 C 0.21006 0.26203 0.19434 0.0
C8 C 0.19005 0.27796 0.18108 0.0
C9 C 0.15241 0.2652 0.18597 0.0
C10 C 0.21427 0.21907 0.22981 0.0
O11 O 0.24654 0.28887 0.29679 0.0
O12 O 0.29563 0.32814 0.32668 0.0
O13 O 0.34052 0.33784 0.27627 0.0
O14 O 0.30211 0.29818 0.23775 0.0
C15 C 0.26091 0.31738 0.31905 0.0
O16 O 0.35767 0.32123 0.35897 0.0
O17 O 0.39247 0.33342 0.31788 0.0
O18 O 0.35527 0.25818 0.28134 0.0
O19 O 0.30826 0.22787 0.24629 0.0
O20 O 0.2652 0.21488 0.2988 0.0
O21 O 0.29626 0.25561 0.34013 0.0
C22 C 0.32818 0.32997 0.24725 0.0
O23 O 0.24754 0.22736 0.22018 0.0
O24 O 0.21257 0.22426 0.26055 0.0
C25 C 0.41704 0.32425 0.36378 0.0
C26 C 0.46169 0.29485 0.38798 0.0
C27 C 0.47197 0.31289 0.36057 0.0
C28 C 0.44986 0.32764 0.3486 0.0
C29 C 0.40797 0.30815 0.39224 0.0
C30 C 0.42994 0.29338 0.4041 0.0
C31 C 0.39105 0.33472 0.34872 0.0
H32 H 0.10578 0.22553 0.20779 0.0
H33 H 0.14122 0.19728 0.23132 0.0
H34 H 0.23927 0.27337 0.19104 0.0
H35 H 0.20424 0.30107 0.16779 0.0
H36 H 0.49656 0.31475 0.34796 0.0
H37 H 0.45777 0.34045 0.32685 0.0
H38 H 0.38307 0.30546 0.40469 0.0
H39 H 0.421 0.27918 0.42507 0.0
Tb40 Tb 0.83098 0.27972 0.31219 0.0
Eu41 Eu 0.76 0.26863 0.27229 0.0
C42 C 0.79114 0.2079 0.26819 0.0
C43 C 0.84009 0.30579 0.24476 0.0
C44 C 0.90444 0.26698 0.35018 0.0
C45 C 0.91286 0.21068 0.33802 0.0
C46 C 0.8957 0.23312 0.33197 0.0
C47 C 0.93032 0.27829 0.37445 0.0
C48 C 0.94729 0.25572 0.38069 0.0
C49 C 0.9386 0.22175 0.36254 0.0
C50 C 0.88673 0.29058 0.34373 0.0
O51 O 0.81016 0.32033 0.33021 0.0
O52 O 0.78987 0.3293 0.28431 0.0
O53 O 0.74384 0.2599 0.32302 0.0
O54 O 0.78569 0.23839 0.33451 0.0
C55 C 0.80493 0.34213 0.31227 0.0
O56 O 0.7049 0.26512 0.27331 0.0
O57 O 0.72787 0.25261 0.22853 0.0
O58 O 0.76161 0.21392 0.27292 0.0
O59 O 0.82317 0.23329 0.27672 0.0
O60 O 0.8512 0.3146 0.27435 0.0
O61 O 0.80664 0.28253 0.23755 0.0
C62 C 0.75421 0.24057 0.33988 0.0
O63 O 0.88737 0.29641 0.31419 0.0
O64 O 0.85468 0.28297 0.35621 0.0
C65 C 0.68412 0.27751 0.22734 0.0
C66 C 0.6465 0.31319 0.20178 0.0
C67 C 0.67183 0.3314 0.22631 0.0
C68 C 0.69074 0.31373 0.23892 0.0
C69 C 0.6596 0.25965 0.20229 0.0
C70 C 0.64097 0.27745 0.18944 0.0
C71 C 0.70035 0.25712 0.24271 0.0
H72 H 0.90546 0.1844 0.32404 0.0
H73 H 0.87556 0.22404 0.31319 0.0
H74 H 0.93728 0.30443 0.38859 0.0
H75 H 0.96721 0.26477 0.39966 0.0
H76 H 0.6769 0.35922 0.23574 0.0
H77 H 0.70984 0.32803 0.25816 0.0
H78 H 0.65426 0.23167 0.19319 0.0
H79 H 0.62154 0.26301 0.17046 0.0
Tb80 Tb 0.75841 0.74389 0.29582 0.0
Eu81 Eu 0.83197 0.78714 0.26207 0.0
C82 C 0.77877 0.70654 0.232 0.0
C83 C 0.82806 0.7284 0.31525 0.0
C84 C 0.67479 0.73363 0.33282 0.0
C85 C 0.62318 0.7369 0.36187 0.0
C86 C 0.64178 0.71622 0.34813 0.0
C87 C 0.68852 0.77115 0.33028 0.0
C88 C 0.67001 0.79154 0.34352 0.0
C89 C 0.63765 0.77478 0.35998 0.0
C90 C 0.6973 0.71458 0.32114 0.0
O91 O 0.78883 0.78929 0.3306 0.0
O92 O 0.81896 0.82794 0.29489 0.0
O93 O 0.79309 0.80281 0.23445 0.0
O94 O 0.74469 0.78223 0.26779 0.0
C95 C 0.80905 0.82235 0.32405 0.0
O96 O 0.88671 0.82893 0.27126 0.0
O97 O 0.86904 0.80646 0.223 0.0
O98 O 0.80836 0.73575 0.22803 0.0
O99 O 0.75903 0.70372 0.25767 0.0
O100 O 0.79231 0.71892 0.31632 0.0
O101 O 0.84782 0.75379 0.29653 0.0
C102 C 0.76012 0.80027 0.24278 0.0
O103 O 0.70218 0.71325 0.2906 0.0
O104 O 0.7279 0.72583 0.33642 0.0
C105 C 0.92843 0.81774 0.2358 0.0
C106 C 0.96668 0.77519 0.21509 0.0
C107 C 0.96174 0.79791 0.19471 0.0
C108 C 0.94281 0.81928 0.20513 0.0
C109 C 0.93815 0.79944 0.25753 0.0
C110 C 0.95752 0.77847 0.24723 0.0
C111 C 0.89655 0.82618 0.24172 0.0
H112 H 0.59832 0.72371 0.37481 0.0
H113 H 0.63121 0.68724 0.35038 0.0
H114 H 0.71457 0.78515 0.31944 0.0
H115 H 0.6823 0.82084 0.3426 0.0
H116 H 0.96853 0.796 0.16977 0.0
H117 H 0.93563 0.83339 0.18815 0.0
H118 H 0.92763 0.79811 0.2815 0.0
H119 H 0.96186 0.76184 0.26354 0.0
Tb120 Tb 0.30522 0.75197 0.29932 0.0
Eu121 Eu 0.26723 0.79622 0.26516 0.0
C122 C 0.30668 0.82472 0.33256 0.0
C123 C 0.22324 0.73741 0.31217 0.0
C124 C 0.37689 0.72512 0.30696 0.0
C125 C 0.43732 0.72574 0.30854 0.0
C126 C 0.40422 0.72123 0.32356 0.0
C127 C 0.38304 0.7341 0.27572 0.0
C128 C 0.41593 0.73934 0.26113 0.0
C129 C 0.4434 0.73521 0.27729 0.0
C130 C 0.3434 0.72456 0.32214 0.0
O131 O 0.29154 0.72381 0.25132 0.0
O132 O 0.24436 0.73913 0.24087 0.0
O133 O 0.31282 0.79366 0.23443 0.0
O134 O 0.34695 0.79482 0.27581 0.0
C135 C 0.26184 0.71773 0.23546 0.0
O136 O 0.22135 0.80805 0.25292 0.0
O137 O 0.27486 0.83885 0.23488 0.0
O138 O 0.30327 0.83458 0.30491 0.0
O139 O 0.29729 0.79019 0.33607 0.0
O140 O 0.24796 0.72377 0.30872 0.0
O141 O 0.22879 0.76957 0.3037 0.0
C142 C 0.34444 0.80018 0.24644 0.0
O143 O 0.34504 0.75698 0.33207 0.0
O144 O 0.31374 0.70507 0.30585 0.0
C145 C 0.24036 0.87143 0.25587 0.0
C146 C 0.23344 0.91709 0.30809 0.0
C147 C 0.2681 0.92147 0.29702 0.0
C148 C 0.2716 0.89885 0.27089 0.0
C149 C 0.20615 0.87156 0.26366 0.0
C150 C 0.20269 0.89438 0.28981 0.0
C151 C 0.24226 0.83762 0.24039 0.0
H152 H 0.45802 0.7218 0.32115 0.0
H153 H 0.40002 0.71487 0.34789 0.0
H154 H 0.36235 0.73729 0.26249 0.0
H155 H 0.41936 0.74544 0.23669 0.0
H156 H 0.2921 0.93907 0.31082 0.0
H157 H 0.2985 0.8999 0.2652 0.0
H158 H 0.18176 0.85086 0.25227 0.0
H159 H 0.17568 0.89068 0.2981 0.0
Tb160 Tb 0.31705 0.75219 0.77604 0.0
Eu161 Eu 0.26363 0.79191 0.79797 0.0
C162 C 0.2459 0.73452 0.7338 0.0
C163 C 0.32704 0.82282 0.74838 0.0
C164 C 0.38525 0.71422 0.77918 0.0
C165 C 0.43869 0.70134 0.78234 0.0
C166 C 0.41418 0.70783 0.76433 0.0
C167 C 0.38095 0.71427 0.81209 0.0
C168 C 0.4052 0.70758 0.83003 0.0
C169 C 0.43443 0.70123 0.81538 0.0
C170 C 0.36054 0.72257 0.76068 0.0
O171 O 0.34769 0.79583 0.81394 0.0
O172 O 0.30007 0.80283 0.8408 0.0
O173 O 0.23612 0.73387 0.80897 0.0
O174 O 0.28829 0.72736 0.81767 0.0
C175 C 0.33457 0.80805 0.83975 0.0
O176 O 0.2533 0.84125 0.80378 0.0
O177 O 0.21414 0.79199 0.82114 0.0
O178 O 0.24187 0.76331 0.74882 0.0
O179 O 0.2702 0.72351 0.74343 0.0
O180 O 0.32307 0.78906 0.741 0.0
O181 O 0.31241 0.83183 0.7743 0.0
C182 C 0.25327 0.71754 0.82199 0.0
O183 O 0.32597 0.70433 0.76585 0.0
O184 O 0.36884 0.75733 0.76036 0.0
C185 C 0.19227 0.83057 0.79998 0.0
C186 C 0.14577 0.84855 0.76486 0.0
C187 C 0.15941 0.86826 0.79438 0.0
C188 C 0.18263 0.85934 0.81181 0.0
C189 C 0.17732 0.80968 0.77129 0.0
C190 C 0.15411 0.81854 0.75388 0.0
C191 C 0.22102 0.82525 0.81561 0.0
H192 H 0.46108 0.69673 0.77051 0.0
H193 H 0.41793 0.70815 0.73892 0.0
H194 H 0.35884 0.71948 0.8239 0.0
H195 H 0.40073 0.7069 0.85535 0.0
H196 H 0.15378 0.8918 0.80315 0.0
H197 H 0.19433 0.87588 0.8338 0.0
H198 H 0.18474 0.78748 0.76177 0.0
H199 H 0.14372 0.80276 0.73129 0.0
Tb200 Tb 0.29245 0.29958 0.75926 0.0
Eu201 Eu 0.31783 0.26512 0.81804 0.0
C202 C 0.3497 0.35106 0.81113 0.0
C203 C 0.35404 0.26654 0.74951 0.0
C204 C 0.24465 0.33292 0.70274 0.0
C205 C 0.23608 0.37776 0.67418 0.0
C206 C 0.25907 0.36482 0.68746 0.0
C207 C 0.20664 0.31481 0.70542 0.0
C208 C 0.18361 0.32771 0.69204 0.0
C209 C 0.19806 0.35888 0.67562 0.0
C210 C 0.26938 0.31672 0.71191 0.0
O211 O 0.25207 0.24706 0.77008 0.0
O212 O 0.28837 0.2194 0.78049 0.0
O213 O 0.27171 0.28002 0.83606 0.0
O214 O 0.26449 0.31428 0.79879 0.0
C215 C 0.25936 0.21815 0.76695 0.0
O216 O 0.30654 0.2218 0.84887 0.0
O217 O 0.35374 0.27324 0.85758 0.0
O218 O 0.35705 0.32341 0.81665 0.0
O219 O 0.32396 0.34753 0.79135 0.0
O220 O 0.33483 0.28297 0.73941 0.0
O221 O 0.3527 0.25798 0.77851 0.0
C222 C 0.25801 0.30179 0.82659 0.0
O223 O 0.29912 0.33817 0.72736 0.0
O224 O 0.25463 0.28475 0.72235 0.0
C225 C 0.3579 0.22081 0.87408 0.0
C226 C 0.40125 0.18964 0.89887 0.0
C227 C 0.364 0.17762 0.90622 0.0
C228 C 0.34267 0.1932 0.89411 0.0
C229 C 0.39451 0.23142 0.86504 0.0
C230 C 0.41593 0.21585 0.87722 0.0
C231 C 0.33607 0.24033 0.86566 0.0
H232 H 0.24814 0.40221 0.6622 0.0
H233 H 0.28821 0.37915 0.68485 0.0
H234 H 0.1946 0.28994 0.71683 0.0
H235 H 0.15448 0.31237 0.6934 0.0
H236 H 0.35134 0.15661 0.92191 0.0
H237 H 0.31445 0.18445 0.90124 0.0
H238 H 0.40693 0.2526 0.84945 0.0
H239 H 0.44436 0.22557 0.87073 0.0
Tb240 Tb 0.82898 0.2673 0.79237 0.0
Eu241 Eu 0.75367 0.27008 0.77699 0.0
C242 C 0.80498 0.32763 0.8271 0.0
C243 C 0.75673 0.22755 0.83567 0.0
C244 C 0.92094 0.27595 0.78585 0.0
C245 C 0.95313 0.24528 0.7535 0.0
C246 C 0.93611 0.25004 0.78193 0.0
C247 C 0.92793 0.30077 0.76319 0.0
C248 C 0.9448 0.29594 0.73474 0.0
C249 C 0.95498 0.26642 0.72884 0.0
C250 C 0.8897 0.26959 0.80701 0.0
O251 O 0.8118 0.23131 0.74851 0.0
O252 O 0.75257 0.21454 0.76126 0.0
O253 O 0.79599 0.30856 0.74483 0.0
O254 O 0.84416 0.29249 0.74763 0.0
C255 C 0.77793 0.20835 0.74471 0.0
O256 O 0.70245 0.23992 0.75145 0.0
O257 O 0.71711 0.29634 0.77044 0.0
O258 O 0.77058 0.30708 0.82225 0.0
O259 O 0.82999 0.32042 0.81064 0.0
O260 O 0.78932 0.23078 0.82504 0.0
O261 O 0.73918 0.24419 0.82313 0.0
C262 C 0.82833 0.3107 0.7349 0.0
O263 O 0.88026 0.29693 0.81381 0.0
O264 O 0.86169 0.23925 0.79882 0.0
C265 C 0.65642 0.25631 0.77341 0.0
C266 C 0.5955 0.2529 0.8096 0.0
C267 C 0.59679 0.25749 0.7771 0.0
C268 C 0.62741 0.25963 0.75916 0.0
C269 C 0.65336 0.24741 0.80456 0.0
C270 C 0.62324 0.2458 0.82257 0.0
C271 C 0.6915 0.26627 0.75767 0.0
H272 H 0.9608 0.22229 0.74953 0.0
H273 H 0.93092 0.23064 0.7991 0.0
H274 H 0.91678 0.32129 0.76573 0.0
H275 H 0.94649 0.31289 0.71621 0.0
H276 H 0.57547 0.26216 0.7662 0.0
H277 H 0.62936 0.26603 0.73488 0.0
H278 H 0.67552 0.24451 0.81577 0.0
H279 H 0.62373 0.24255 0.84748 0.0
Tb280 Tb 0.75751 0.76335 0.76041 0.0
Eu281 Eu 0.82739 0.77815 0.80612 0.0
C282 C 0.81358 0.72498 0.7387 0.0
C283 C 0.75132 0.70984 0.81264 0.0
C284 C 0.68634 0.777 0.71726 0.0
C285 C 0.68907 0.82767 0.68981 0.0
C286 C 0.70539 0.80543 0.69856 0.0
C287 C 0.65088 0.77136 0.7271 0.0
C288 C 0.6347 0.79378 0.71857 0.0
C289 C 0.65359 0.82207 0.69977 0.0
C290 C 0.70296 0.75332 0.72716 0.0
O291 O 0.75784 0.80808 0.79653 0.0
O292 O 0.79248 0.80255 0.83539 0.0
O293 O 0.84671 0.82672 0.77797 0.0
O294 O 0.80052 0.80888 0.74133 0.0
C295 C 0.76891 0.8146 0.82643 0.0
O296 O 0.84984 0.78401 0.85323 0.0
O297 O 0.88544 0.79319 0.81251 0.0
O298 O 0.83445 0.74177 0.76367 0.0
O299 O 0.7822 0.72754 0.73491 0.0
O300 O 0.73592 0.72388 0.79464 0.0
O301 O 0.78675 0.72246 0.81583 0.0
C302 C 0.83326 0.83059 0.75168 0.0
O303 O 0.73464 0.75738 0.71546 0.0
O304 O 0.70143 0.74979 0.75729 0.0
C305 C 0.89851 0.76514 0.85316 0.0
C306 C 0.93016 0.71967 0.87164 0.0
C307 C 0.89455 0.71427 0.88089 0.0
C308 C 0.87879 0.73671 0.87166 0.0
C309 C 0.93414 0.77059 0.84402 0.0
C310 C 0.94979 0.74794 0.85304 0.0
C311 C 0.88214 0.78867 0.84256 0.0
H312 H 0.70435 0.84951 0.67552 0.0
H313 H 0.73288 0.81063 0.69075 0.0
H314 H 0.63567 0.74957 0.74147 0.0
H315 H 0.60717 0.78861 0.72627 0.0
H316 H 0.87874 0.69243 0.895 0.0
H317 H 0.85114 0.7316 0.8789 0.0
H318 H 0.94985 0.79234 0.82978 0.0
H319 H 0.97743 0.75286 0.84588 0.0
C320 C 0.98155 0.10801 0.55235 0.0
C321 C 0.02794 0.07972 0.46824 0.0
C322 C 0.98869 0.95009 0.49519 0.0
Mg323 Mg 0.05507 0.10195 0.53634 0.0
O324 O 1.02681 0.05519 0.54785 0.0
Mg325 Mg 0.98011 0.02636 0.52375 0.0
Mg326 Mg 0.05095 0.02121 0.53715 0.0
O327 O 0.07568 0.98786 0.52612 0.0
Mg328 Mg 0.05075 0.93784 0.52982 0.0
Mg329 Mg 0.12071 0.01623 0.55246 0.0
C330 C 0.11409 0.0916 0.57621 0.0
C331 C 0.12268 0.06079 0.49292 0.0
O332 O 0.9634 0.07352 0.54475 0.0
O333 O 1.01629 0.12369 0.55101 0.0
O334 O 0.99976 0.05524 0.47917 0.0
O335 O 0.05532 0.09934 0.48582 0.0
O336 O 0.10381 0.11401 0.56462 0.0
O337 O 0.09625 0.05694 0.57092 0.0
C338 C 0.98232 0.98484 0.58442 0.0
O339 O 1.0149 0.98899 0.57668 0.0
O340 O 0.96407 0.9972 0.56878 0.0
O341 O 0.14134 0.97394 0.52956 0.0
O342 O 0.0937 0.92333 0.51056 0.0
O343 O 0.09695 0.98218 0.59411 0.0
C344 C 0.12803 0.94208 0.51398 0.0
O345 O 0.04681 0.93273 0.57936 0.0
O346 O 1.00227 0.92802 0.50231 0.0
C347 C 0.06974 0.95338 0.60053 0.0
O348 O 1.00387 0.98447 0.50445 0.0
O349 O 0.08887 0.05433 0.49792 0.0
O350 O 0.14014 0.04912 0.51011 0.0
C351 C 0.49225 0.09168 0.12636 0.0
C352 C 0.52989 0.08597 0.02821 0.0
C353 C 0.51102 0.94101 0.02695 0.0
Mg354 Mg 0.56809 0.09457 0.09302 0.0
O355 O 0.55063 0.04317 0.08642 0.0
Mg356 Mg 0.49875 0.01594 0.07261 0.0
Mg357 Mg 0.57704 0.01083 0.06463 0.0
O358 O 0.60358 0.97774 0.04622 0.0
Mg359 Mg 0.58569 0.92622 0.04638 0.0
Mg360 Mg 0.65627 1.00574 0.05967 0.0
C361 C 0.6424 0.07711 0.1037 0.0
C362 C 0.63797 0.05769 1.01131 0.0
O363 O 0.47756 0.05919 0.11032 0.0
O364 O 0.52723 0.10916 0.125 0.0
O365 O 0.50719 0.05431 0.0344 0.0
O366 O 0.55708 0.10562 0.04642 0.0
O367 O 0.62361 0.09708 0.10534 0.0
O368 O 0.62944 0.04318 0.09215 0.0
C369 C 0.52033 0.96871 0.11878 0.0
O370 O 0.55085 0.97523 0.10467 0.0
O371 O 0.49737 0.98104 0.111 0.0
O372 O 0.67236 0.96641 0.01919 0.0
O373 O 0.62072 0.91647 1.00828 0.0
O374 O 0.65674 0.96349 0.09875 0.0
C375 C 0.65456 0.93518 1.0028 0.0
O376 O 0.60858 0.91085 0.08894 0.0
O377 O 0.52982 0.92169 0.0302 0.0
C378 C 0.63864 0.92978 0.10445 0.0
O379 O 0.52302 0.97573 0.03764 0.0
O380 O 0.60527 0.04852 0.02236 0.0
O381 O 0.65961 0.0453 0.02195 0.0
C382 C 0.99712 0.5804 0.07417 0.0
C383 C 1.0265 0.57114 0.97549 0.0
C384 C 0.984 0.43186 0.98343 0.0
Mg385 Mg 0.06391 0.57699 0.03787 0.0
O386 O 0.03541 0.52837 0.04424 0.0
Mg387 Mg 0.98544 0.50633 0.02476 0.0
Mg388 Mg 0.05469 0.49353 0.02426 0.0
O389 O 0.07449 0.45947 1.00274 0.0
Mg390 Mg 0.0467 0.40947 1.00197 0.0
Mg391 Mg 0.12309 0.48106 0.02434 0.0
C392 C 0.12665 0.55672 0.0597 0.0
C393 C 0.11965 0.53603 0.97603 0.0
O394 O 0.97545 0.55021 0.05914 0.0
O395 O 0.03145 0.59507 0.06949 0.0
O396 O 1.00024 0.54382 0.98529 0.0
O397 O 0.05609 0.58741 0.99111 0.0
O398 O 0.11608 0.58143 0.05386 0.0
O399 O 0.1061 0.52251 0.05456 0.0
C400 C 0.99033 0.45296 0.07424 0.0
O401 O 1.02174 0.45622 0.06327 0.0
O402 O 0.97267 0.46923 0.06323 0.0
O403 O 0.13565 0.43813 0.99166 0.0
O404 O 0.08327 0.39196 0.97438 0.0
O405 O 0.103 0.44149 0.06251 0.0
C406 C 0.11806 0.40765 0.97493 0.0
O407 O 0.04845 0.39761 0.04894 0.0
O408 O 0.99595 0.40681 0.98384 0.0
C409 C 0.07487 0.41323 0.06845 0.0
O410 O 1.00304 0.4651 0.99435 0.0
O411 O 0.08771 0.53107 0.98659 0.0
O412 O 0.13816 0.51996 0.98613 0.0
C413 C 0.52418 0.64653 0.08489 0.0
C414 C 0.52761 0.61423 0.9839 0.0
C415 C 0.45483 0.48177 1.00613 0.0
Mg416 Mg 0.57148 0.61737 0.04072 0.0
O417 O 0.53587 0.57438 0.05448 0.0
Mg418 Mg 0.48438 0.56395 0.04286 0.0
Mg419 Mg 0.53847 0.52924 0.03356 0.0
O420 O 0.54012 0.484 0.01246 0.0
Mg421 Mg 0.50246 0.44201 0.02582 0.0
Mg422 Mg 0.59095 0.49305 0.0237 0.0
C423 C 0.62284 0.57831 0.05586 0.0
C424 C 0.59528 0.54963 0.97383 0.0
O425 O 0.49554 0.6177 0.07608 0.0
O426 O 0.5559 0.65204 0.07387 0.0
O427 O 0.50037 0.59539 0.9999 0.0
O428 O 0.55994 0.62434 0.99384 0.0
O429 O 0.61855 0.60691 0.05006 0.0
O430 O 0.59586 0.54675 0.05477 0.0
C431 C 0.47926 0.5059 0.09198 0.0
O432 O 0.50618 0.5014 0.07753 0.0
O433 O 0.46759 0.52885 0.08382 0.0
O434 O 0.57804 0.43759 0.99193 0.0
O435 O 0.51731 0.40579 0.99457 0.0
O436 O 0.57348 0.46231 0.06727 0.0
C437 C 0.54866 0.40916 0.98406 0.0
O438 O 0.51334 0.43395 0.07236 0.0
O439 O 0.45594 0.45208 0.01312 0.0
C440 C 0.54553 0.44351 0.08267 0.0
O441 O 0.48243 0.51249 1.01093 0.0
O442 O 0.57044 0.55638 0.98985 0.0
O443 O 0.60651 0.526 0.98119 0.0
C444 C 0.93141 0.60391 0.56599 0.0
C445 C 0.94846 0.60713 0.46414 0.0
C446 C 0.9679 0.47287 0.45909 0.0
Mg447 Mg 1.00066 0.61207 0.52343 0.0
O448 O 0.98297 0.56043 0.52422 0.0
Mg449 Mg 0.93121 0.53267 0.51048 0.0
Mg450 Mg 1.00927 0.52721 0.50656 0.0
O451 O 0.03903 0.49588 0.48616 0.0
Mg452 Mg 1.02557 0.4445 0.47706 0.0
Mg453 Mg 0.09026 0.52477 0.50155 0.0
C454 C 0.07451 0.5974 0.54517 0.0
C455 C 0.06941 0.57365 0.45616 0.0
O456 O 0.9144 0.57224 0.55005 0.0
O457 O 0.96524 0.62292 0.56076 0.0
O458 O 0.93059 0.57362 0.47039 0.0
O459 O 0.97825 0.62663 0.47987 0.0
O460 O 0.05627 0.61698 0.5409 0.0
O461 O 0.06249 0.56253 0.53519 0.0
C462 C 0.9482 0.48039 0.5594 0.0
O463 O 0.98078 0.48924 0.5483 0.0
O464 O 0.92688 0.49315 0.54875 0.0
O465 O 0.11514 0.48376 0.46434 0.0
O466 O 0.06753 0.43554 0.44297 0.0
O467 O 0.08269 0.4857 0.53893 0.0
C468 C 0.10243 0.45321 0.44519 0.0
O469 O 0.03813 0.43171 0.52253 0.0
O470 O 0.97162 0.44647 0.47095 0.0
C471 C 0.06274 0.45235 0.54272 0.0
O472 O 0.95531 0.49343 0.47664 0.0
O473 O 0.03706 0.56392 0.46737 0.0
O474 O 0.09244 0.56188 0.46488 0.0
C475 C 0.47182 0.1413 0.59497 0.0
C476 C 0.51326 0.12845 0.50104 0.0
C477 C 0.45337 0.98695 0.5134 0.0
Mg478 Mg 0.54084 0.13346 0.56761 0.0
O479 O 0.51013 0.08448 0.56993 0.0
Mg480 Mg 0.46163 0.0645 0.54797 0.0
Mg481 Mg 0.5271 0.04788 0.54953 0.0
O482 O 0.54296 1.01023 0.53052 0.0
Mg483 Mg 0.51085 0.96401 0.54132 0.0
Mg484 Mg 0.59304 0.02996 0.54907 0.0
C485 C 0.6004 0.10786 0.58815 0.0
C486 C 0.59157 0.08427 0.49917 0.0
O487 O 0.45218 0.11018 0.58001 0.0
O488 O 0.50664 0.15534 0.59392 0.0
O489 O 0.48378 0.10268 0.50873 0.0
O490 O 0.54063 0.14297 0.5196 0.0
O491 O 0.59041 0.13405 0.58632 0.0
O492 O 0.57955 0.07457 0.57886 0.0
C493 C 0.46112 1.00898 0.59768 0.0
O494 O 0.49316 0.01325 0.58807 0.0
O495 O 0.4437 0.02548 0.58639 0.0
O496 O 0.59739 0.98185 0.51664 0.0
O497 O 0.53967 0.93905 0.51256 0.0
O498 O 0.57685 0.99422 0.58977 0.0
C499 C 0.57342 0.95057 0.50544 0.0
O500 O 0.51873 0.9554 0.58884 0.0
O501 O 0.46029 0.96112 0.52239 0.0
C502 C 0.54999 0.96956 0.60201 0.0
O503 O 0.47583 0.02059 0.51838 0.0
O504 O 0.56117 0.08301 0.51083 0.0
O505 O 0.6079 0.06605 0.50902 0.0
C506 C 0.21975 0.16646 0.34223 0.0
C507 C 0.25229 0.1963 0.35169 0.0
C508 C 0.19804 0.14306 0.36412 0.0
C509 C 0.20932 0.14922 0.3962 0.0
C510 C 0.24263 0.17867 0.4057 0.0
C511 C 0.26356 0.20193 0.38342 0.0
C512 C 0.16245 0.11242 0.35313 0.0
C513 C 0.25571 0.18619 0.43965 0.0
C514 C 0.13884 0.11389 0.46089 0.0
C515 C 0.14284 0.08225 0.46685 0.0
C516 C 0.15996 0.13568 0.43774 0.0
C517 C 0.18584 0.12564 0.42012 0.0
C518 C 0.19 0.09369 0.42607 0.0
C519 C 0.16853 0.07246 0.44935 0.0
C520 C 0.15474 0.16962 0.43233 0.0
C521 C 0.21749 0.08216 0.40813 0.0
H522 H 0.21053 0.16206 0.31788 0.0
H523 H 0.28858 0.22489 0.39102 0.0
H524 H 0.1614 0.08599 0.35921 0.0
H525 H 0.13959 0.11697 0.3656 0.0
H526 H 0.15824 0.11026 0.32715 0.0
H527 H 0.28299 0.20905 0.44293 0.0
H528 H 0.23617 0.19313 0.45539 0.0
H529 H 0.25697 0.16139 0.44742 0.0
H530 H 0.12042 0.12258 0.47525 0.0
H531 H 0.17198 0.04817 0.45403 0.0
H532 H 0.14085 0.16493 0.4092 0.0
H533 H 0.18127 0.19328 0.43122 0.0
H534 H 0.1382 0.17696 0.45127 0.0
H535 H 0.2104 0.07582 0.38253 0.0
H536 H 0.21883 0.05776 0.41677 0.0
H537 H 0.24492 0.10483 0.4104 0.0
C538 C 0.95495 0.18985 0.40159 0.0
C539 C 0.95515 0.19718 0.37021 0.0
C540 C 0.9703 0.16657 0.40966 0.0
C541 C 0.98647 0.15046 0.38566 0.0
C542 C 0.9865 0.15751 0.35383 0.0
C543 C 0.97064 0.18083 0.34641 0.0
C544 C 0.9693 0.15941 0.44397 0.0
C545 C 1.00381 0.14104 0.32784 0.0
C546 C 0.04938 0.12528 0.42919 0.0
C547 C 1.02493 0.09101 0.43708 0.0
C548 C 0.03908 0.14359 0.40808 0.0
C549 C 1.0037 0.12692 0.39483 0.0
C550 C 0.98169 0.0899 0.39833 0.0
C551 C 0.99282 0.07212 0.41933 0.0
C552 C 0.06365 0.18281 0.4042 0.0
C553 C 0.94398 0.07091 0.38417 0.0
H554 H 0.94238 0.20211 0.41981 0.0
H555 H 0.97083 0.18677 0.32213 0.0
H556 H 0.95555 0.12966 0.44592 0.0
H557 H 0.9974 0.16897 0.45322 0.0
H558 H 0.95481 0.17342 0.4594 0.0
H559 H 0.99768 0.1457 0.30389 0.0
H560 H 0.03374 0.15336 0.3312 0.0
H561 H 0.9944 0.11122 0.32888 0.0
H562 H 0.07459 0.13971 0.44228 0.0
H563 H 0.97427 0.04505 0.42455 0.0
H564 H 0.05441 0.20118 0.42024 0.0
H565 H 0.0625 0.18888 0.37957 0.0
H566 H 0.09231 0.18922 0.4103 0.0
H567 H 0.92475 0.0785 0.39982 0.0
H568 H 0.93456 0.04072 0.38213 0.0
H569 H 0.94288 0.07929 0.36042 0.0
C570 C 0.81454 0.84853 0.38105 0.0
C571 C 0.82815 0.85095 0.35005 0.0
C572 C 0.8364 0.87019 0.40692 0.0
C573 C 0.87304 0.89371 0.40165 0.0
C574 C 0.88585 0.89841 0.37019 0.0
C575 C 0.86303 0.87737 0.34474 0.0
C576 C 0.8212 0.86568 0.44002 0.0
C577 C 0.92487 0.92265 0.3634 0.0
C578 C 0.93891 0.95717 0.46612 0.0
C579 C 0.95614 0.9352 0.47416 0.0
C580 C 0.91045 0.94365 0.44367 0.0
C581 C 0.89963 0.90762 0.4284 0.0
C582 C 0.91622 0.88506 0.43711 0.0
C583 C 0.94385 0.89895 0.46006 0.0
C584 C 0.8929 0.96833 0.43561 0.0
C585 C 0.90604 0.84663 0.42112 0.0
H586 H 0.78741 0.82849 0.38525 0.0
H587 H 0.87378 0.87948 0.32085 0.0
H588 H 0.83097 0.84785 0.45135 0.0
H589 H 0.83063 0.89244 0.45484 0.0
H590 H 0.79098 0.85301 0.43985 0.0
H591 H 0.92937 0.92665 0.33785 0.0
H592 H 0.93313 0.94977 0.37742 0.0
H593 H 0.94293 0.91004 0.37046 0.0
H594 H 0.94799 0.98512 0.47684 0.0
H595 H 0.95681 0.8816 0.46598 0.0
H596 H 0.86293 0.95323 0.43377 0.0
H597 H 0.90289 0.97822 0.41228 0.0
H598 H 0.89931 0.99251 0.45355 0.0
H599 H 0.87661 0.83005 0.42416 0.0
H600 H 0.92152 0.83264 0.43073 0.0
H601 H 0.91132 0.84731 0.39527 0.0
C602 C 0.2394 0.9088 0.36371 0.0
C603 C 0.22865 0.92619 0.34198 0.0
C604 C 0.22983 0.91098 0.39561 0.0
C605 C 0.20831 0.9304 0.40569 0.0
C606 C 0.19865 0.94943 0.38415 0.0
C607 C 0.20881 0.94687 0.35227 0.0
C608 C 0.2404 0.8903 0.41792 0.0
C609 C 0.17552 0.97037 0.39427 0.0
C610 C 0.13813 0.90149 0.46951 0.0
C611 C 0.15278 0.93135 0.49274 0.0
C612 C 0.15734 0.89929 0.44168 0.0
C613 C 0.1921 0.92726 0.43758 0.0
C614 C 0.20911 0.95438 0.46282 0.0
C615 C 0.18923 0.95599 0.49038 0.0
C616 C 0.13871 0.86935 0.4154 0.0
C617 C 0.24662 0.984 0.45945 0.0
H618 H 0.25319 0.89138 0.3553 0.0
H619 H 0.20005 0.95967 0.33517 0.0
H620 H 0.25116 0.9077 0.44051 0.0
H621 H 0.21605 0.86614 0.42377 0.0
H622 H 0.2611 0.88066 0.40744 0.0
H623 H 0.17448 0.98741 0.37589 0.0
H624 H 0.14737 0.95084 0.39883 0.0
H625 H 0.18605 0.98831 0.41666 0.0
H626 H 0.11031 0.88182 0.47151 0.0
H627 H 0.20115 0.9787 0.50861 0.0
H628 H 0.15737 0.857 0.40501 0.0
H629 H 0.13078 0.88113 0.39615 0.0
H630 H 0.11386 0.84738 0.4238 0.0
H631 H 0.26527 0.97259 0.44731 0.0
H632 H 0.25853 0.99854 0.48283 0.0
H633 H 0.24487 1.00425 0.44473 0.0
C634 C 0.09926 0.87309 0.756 0.0
C635 C 0.12646 0.86178 0.74403 0.0
C636 C 0.08306 0.88837 0.73669 0.0
C637 C 0.09477 0.89266 0.70496 0.0
C638 C 0.12182 0.88071 0.69266 0.0
C639 C 0.13727 0.86537 0.71236 0.0
C640 C 0.05422 0.90077 0.75038 0.0
C641 C 0.13524 0.88507 0.65892 0.0
C642 C 0.0462 0.90453 0.63669 0.0
C643 C 0.0682 0.94086 0.63203 0.0
C644 C 0.05179 0.88921 0.66281 0.0
C645 C 0.08017 0.91077 0.68442 0.0
C646 C 0.09943 0.94854 0.68189 0.0
C647 C 0.09303 0.96323 0.65571 0.0
C648 C 0.03023 0.84897 0.66512 0.0
C649 C 0.12982 0.97256 0.70454 0.0
H650 H 0.09087 0.87021 0.78051 0.0
H651 H 0.15881 0.85732 0.70324 0.0
H652 H 0.06475 0.93098 0.75181 0.0
H653 H 0.02991 0.88947 0.7347 0.0
H654 H 0.04577 0.89241 0.77449 0.0
H655 H 0.15589 0.87359 0.65295 0.0
H656 H 0.11216 0.87121 0.64204 0.0
H657 H 0.14752 0.91445 0.65526 0.0
H658 H 1.02675 0.88712 0.61863 0.0
H659 H 0.10952 0.99157 0.6526 0.0
H660 H 1.02252 0.8438 0.69006 0.0
H661 H 0.04723 0.83383 0.65683 0.0
H662 H 1.00518 0.8378 0.65031 0.0
H663 H 0.12313 0.96564 0.7292 0.0
H664 H 0.13589 1.00195 0.70405 0.0
H665 H 0.15481 0.96826 0.69757 0.0
C666 C 0.20352 0.17814 0.73697 0.0
C667 C 0.2409 0.18952 0.74135 0.0
C668 C 0.18662 0.15782 0.70873 0.0
C669 C 0.20799 0.14991 0.68401 0.0
C670 C 0.24551 0.15978 0.68901 0.0
C671 C 0.2615 0.17912 0.71797 0.0
C672 C 0.1463 0.1469 0.70463 0.0
C673 C 0.26915 0.15207 0.66315 0.0
C674 C 0.15039 0.0825 0.6181 0.0
C675 C 0.14465 0.10604 0.59918 0.0
C676 C 0.1735 0.09631 0.6446 0.0
C677 C 0.19132 0.13454 0.65223 0.0
C678 C 0.18848 0.15833 0.63147 0.0
C679 C 0.16506 0.14378 0.6052 0.0
C680 C 0.17585 0.06986 0.66588 0.0
C681 C 0.20783 0.19933 0.63841 0.0
H682 H 0.1878 0.1865 0.75513 0.0
H683 H 0.29061 0.18857 0.7213 0.0
H684 H 0.14179 0.16269 0.68679 0.0
H685 H 0.13275 0.1175 0.69573 0.0
H686 H 0.1331 0.15194 0.72715 0.0
H687 H 0.29761 0.16092 0.67128 0.0
H688 H 0.25802 0.12244 0.65486 0.0
H689 H 0.26931 0.16664 0.64249 0.0
H690 H 0.13501 0.05327 0.61359 0.0
H691 H 0.1613 0.16217 0.59042 0.0
H692 H 0.20253 0.08051 0.67812 0.0
H693 H 0.17128 0.04309 0.65225 0.0
H694 H 0.15441 0.06524 0.68425 0.0
H695 H 0.19451 0.20899 0.65873 0.0
H696 H 0.20722 0.21364 0.61776 0.0
H697 H 0.23658 0.20722 0.64518 0.0
C698 C 0.93209 0.24638 0.67351 0.0
C699 C 0.95907 0.25225 0.69597 0.0
C700 C 0.92994 0.22491 0.64463 0.0
C701 C 0.95531 0.209 0.63835 0.0
C702 C 0.98411 0.21696 0.65999 0.0
C703 C 0.98563 0.23859 0.68861 0.0
C704 C 0.89907 0.21721 0.62205 0.0
C705 C 1.01204 0.2008 0.65385 0.0
C706 C 0.93886 0.11884 0.5916 0.0
C707 C 0.96324 0.1308 0.56676 0.0
C708 C 0.93254 0.14426 0.61375 0.0
C709 C 0.95092 0.18202 0.6104 0.0
C710 C 0.97124 0.19351 0.58278 0.0
C711 C 0.97727 0.16759 0.56119 0.0
C712 C 0.91011 0.13103 0.64274 0.0
C713 C 0.99049 0.23345 0.57805 0.0
H714 H 0.91109 0.25643 0.67938 0.0
H715 H 1.00648 0.24331 0.70598 0.0
H716 H 0.90863 0.21822 0.59712 0.0
H717 H 0.87802 0.18931 0.62401 0.0
H718 H 0.88613 0.23689 0.62742 0.0
H719 H 0.03363 0.21125 0.67236 0.0
H720 H 0.99851 0.17062 0.65322 0.0
H721 H 1.02505 0.2071 0.63046 0.0
H722 H 0.92804 0.09032 0.59577 0.0
H723 H 0.99577 0.17658 0.54156 0.0
H724 H 0.89226 0.14576 0.64887 0.0
H725 H 0.92853 0.13661 0.66324 0.0
H726 H 0.893 0.10121 0.63927 0.0
H727 H 0.97306 0.24834 0.58547 0.0
H728 H 0.99857 0.23726 0.55292 0.0
H729 H 1.01547 0.246 0.59293 0.0
C730 C 0.84396 0.85837 0.70056 0.0
C731 C 0.85678 0.8581 0.73075 0.0
C732 C 0.86667 0.88038 0.67847 0.0
C733 C 0.9031 0.90355 0.6868 0.0
C734 C 0.91612 0.90434 0.71748 0.0
C735 C 0.89287 0.88141 0.73906 0.0
C736 C 0.85194 0.87778 0.64569 0.0
C737 C 0.95477 0.92877 0.72725 0.0
C738 C 0.96717 0.93266 0.61696 0.0
C739 C 0.9651 0.9656 0.61227 0.0
C740 C 0.94797 0.91257 0.64173 0.0
C741 C 0.92725 0.92644 0.66292 0.0
C742 C 0.92659 0.96061 0.65911 0.0
C743 C 0.94502 0.97946 0.63351 0.0
C744 C 0.94894 0.87596 0.64453 0.0
C745 C 0.90546 0.97671 0.68149 0.0
H746 H 0.8163 0.84036 0.69359 0.0
H747 H 0.90322 0.88129 0.76217 0.0
H748 H 0.854 0.90493 0.64068 0.0
H749 H 0.86844 0.86909 0.62762 0.0
H750 H 0.82309 0.85805 0.64284 0.0
H751 H 0.95962 0.92911 0.75288 0.0
H752 H 0.97376 0.91914 0.71334 0.0
H753 H 0.96143 0.95714 0.72209 0.0
H754 H 0.98225 0.92168 0.6003 0.0
H755 H 0.94364 1.0051 0.63003 0.0
H756 H 0.92121 0.85498 0.64808 0.0
H757 H 0.96557 0.87824 0.66547 0.0
H758 H 0.96079 0.86623 0.62317 0.0
H759 H 0.8759 0.95977 0.67842 0.0
H760 H 0.9108 1.00514 0.67734 0.0
H761 H 0.91251 0.97661 0.70645 0.0
C762 C 0.3938 0.20909 0.25047 0.0
C763 C 0.36321 0.21214 0.23767 0.0
C764 C 0.41343 0.18902 0.23378 0.0
C765 C 0.40443 0.17145 0.2018 0.0
C766 C 0.37392 0.17517 0.18859 0.0
C767 C 0.35395 0.19415 0.20636 0.0
C768 C 0.44403 0.18686 0.25142 0.0
C769 C 0.36173 0.15946 0.15501 0.0
C770 C 0.4836 0.14957 0.15486 0.0
C771 C 0.46902 0.11113 0.14589 0.0
C772 C 0.46347 0.16885 0.17178 0.0
C773 C 0.42674 0.15032 0.18245 0.0
C774 C 0.41197 0.11127 0.17387 0.0
C775 C 0.43239 0.09289 0.15574 0.0
C776 C 0.4825 0.20987 0.17768 0.0
C777 C 0.37406 0.08773 0.18387 0.0
H778 H 0.40241 0.22208 0.27428 0.0
H779 H 0.33099 0.19545 0.195 0.0
H780 H 0.45077 0.16363 0.24152 0.0
H781 H 0.46856 0.21266 0.25034 0.0
H782 H 0.43704 0.18417 0.27688 0.0
H783 H 0.35145 0.17697 0.14372 0.0
H784 H 0.38384 0.15634 0.14009 0.0
H785 H 0.3389 0.13225 0.15537 0.0
H786 H 0.51133 0.16539 0.14797 0.0
H787 H 0.41941 0.06356 0.14974 0.0
H788 H 0.49969 0.21724 0.19926 0.0
H789 H 0.46318 0.22329 0.18102 0.0
H790 H 0.50084 0.22106 0.15766 0.0
H791 H 0.3644 0.10102 0.20445 0.0
H792 H 0.37277 0.06121 0.19008 0.0
H793 H 0.35519 0.08157 0.16362 0.0
C794 C 0.85452 0.31616 0.18767 0.0
C795 C 0.86522 0.32446 0.21964 0.0
C796 C 0.87757 0.33519 0.16406 0.0
C797 C 0.91201 0.36328 0.17263 0.0
C798 C 0.92362 0.37061 0.20462 0.0
C799 C 0.90008 0.35122 0.22775 0.0
C800 C 0.86484 0.3258 0.12998 0.0
C801 C 0.96059 0.39955 0.21448 0.0
C802 C 0.97979 0.40061 0.10638 0.0
C803 C 0.97329 0.43106 0.1009 0.0
C804 C 0.96038 0.37825 0.12988 0.0
C805 C 0.93438 0.38705 0.14858 0.0
C806 C 0.92874 0.4185 0.14382 0.0
C807 C 0.94812 0.43996 0.1201 0.0
C808 C 0.9679 0.34532 0.13418 0.0
C809 C 0.90155 0.42912 0.16335 0.0
H810 H 0.82791 0.29516 0.18109 0.0
H811 H 0.90888 0.35758 0.25232 0.0
H812 H 0.86207 0.34954 0.12143 0.0
H813 H 0.88535 0.3198 0.1148 0.0
H814 H 0.83829 0.30185 0.12691 0.0
H815 H 0.96648 0.40039 0.23996 0.0
H816 H 0.982 0.39441 0.19997 0.0
H817 H 0.96221 0.42678 0.21012 0.0
H818 H 0.99894 0.39343 0.09164 0.0
H819 H 0.94322 0.46375 0.11638 0.0
H820 H 0.94646 0.3251 0.14762 0.0
H821 H 0.99404 0.35454 0.14713 0.0
H822 H 0.97068 0.33135 0.11071 0.0
H823 H 0.87387 0.40714 0.15954 0.0
H824 H 0.90111 0.455 0.15724 0.0
H825 H 0.90801 0.43239 0.18897 0.0
C826 C 0.75327 0.83072 0.19323 0.0
C827 C 0.7408 0.819 0.22355 0.0
C828 C 0.73645 0.84787 0.17488 0.0
C829 C 0.70598 0.85552 0.18638 0.0
C830 C 0.6934 0.84409 0.21716 0.0
C831 C 0.71016 0.82601 0.23468 0.0
C832 C 0.75139 0.85748 0.14245 0.0
C833 C 0.66181 0.85103 0.23202 0.0
C834 C 0.68517 0.93102 0.14736 0.0
C835 C 0.6546 0.91116 0.1271 0.0
C836 C 0.70107 0.91387 0.16677 0.0
C837 C 0.68768 0.8749 0.16636 0.0
C838 C 0.65691 0.85478 0.14588 0.0
C839 C 0.641 0.87262 0.12732 0.0
C840 C 0.73265 0.938 0.18807 0.0
C841 C 0.64074 0.81369 0.14311 0.0
H842 H 0.77643 0.82602 0.18329 0.0
H843 H 0.6993 0.81779 0.25767 0.0
H844 H 0.72923 0.84511 0.1245 0.0
H845 H 0.76251 0.88751 0.14203 0.0
H846 H 0.77326 0.84798 0.13543 0.0
H847 H 0.65923 0.8474 0.25769 0.0
H848 H 0.66478 0.87912 0.22912 0.0
H849 H 0.63624 0.83165 0.21997 0.0
H850 H 0.69699 0.96053 0.1482 0.0
H851 H 0.61795 0.85583 0.11214 0.0
H852 H 0.75751 0.93421 0.17972 0.0
H853 H 0.72727 0.93016 0.2126 0.0
H854 H 0.73806 0.96738 0.18863 0.0
H855 H 0.66198 0.80343 0.13576 0.0
H856 H 0.61787 0.80123 0.12583 0.0
H857 H 0.63064 0.80449 0.16659 0.0
C858 C 0.21286 0.67619 0.19816 0.0
C859 C 0.24824 0.68728 0.20975 0.0
C860 C 0.1997 0.64938 0.17238 0.0
C861 C 0.22251 0.63308 0.15761 0.0
C862 C 0.25781 0.64301 0.16993 0.0
C863 C 0.27032 0.6701 0.19596 0.0
C864 C 0.16168 0.63952 0.1603 0.0
C865 C 0.28294 0.62631 0.15497 0.0
C866 C 0.16155 0.55176 0.10449 0.0
C867 C 0.16061 0.5692 0.07809 0.0
C868 C 0.18583 0.57093 0.12965 0.0
C869 C 0.20947 0.60801 0.12791 0.0
C870 C 0.21263 0.62334 0.09902 0.0
C871 C 0.18795 0.60372 0.07442 0.0
C872 C 0.18247 0.55318 0.15965 0.0
C873 C 0.23823 0.66237 0.09572 0.0
H874 H 0.19541 0.68889 0.209 0.0
H875 H 0.29772 0.67853 0.20484 0.0
H876 H 0.16298 0.64713 0.13584 0.0
H877 H 0.14556 0.60962 0.15937 0.0
H878 H 0.14699 0.65357 0.1754 0.0
H879 H 0.30479 0.62944 0.17165 0.0
H880 H 0.26783 0.59687 0.1469 0.0
H881 H 0.29598 0.64025 0.13387 0.0
H882 H 0.14066 0.52486 0.10726 0.0
H883 H 0.18768 0.61692 0.05364 0.0
H884 H 0.16458 0.56135 0.17654 0.0
H885 H 0.20937 0.56217 0.17125 0.0
H886 H 0.17033 0.5229 0.15488 0.0
H887 H 0.22646 0.681 0.10794 0.0
H888 H 0.2427 0.66767 0.07045 0.0
H889 H 0.26488 0.66912 0.10696 0.0
C890 C 0.39708 0.8399 0.86663 0.0
C891 C 0.35907 0.82871 0.86813 0.0
C892 C 0.42008 0.85955 0.893 0.0
C893 C 0.40517 0.86827 0.92226 0.0
C894 C 0.36682 0.857 0.92389 0.0
C895 C 0.34452 0.83776 0.89707 0.0
C896 C 0.46057 0.87088 0.88956 0.0
C897 C 0.34914 0.86484 0.95428 0.0
C898 C 0.46228 0.88484 0.99796 0.0
C899 C 0.47899 0.92325 1.00411 0.0
C900 C 0.43779 0.86694 0.97229 0.0
C901 C 0.4294 0.8875 0.95136 0.0
C902 C 0.44504 0.92629 0.95807 0.0
C903 C 0.46934 0.94357 0.98421 0.0
C904 C 0.42183 0.82574 0.96694 0.0
C905 C 0.43734 0.94976 0.93677 0.0
H906 H 0.40906 0.83346 0.84466 0.0
H907 H 0.31536 0.82946 0.89898 0.0
H908 H 0.47497 0.90081 0.89587 0.0
H909 H 0.47015 0.85736 0.90621 0.0
H910 H 0.46833 0.86373 0.86508 0.0
H911 H 0.3192 0.85512 0.9518 0.0
H912 H 0.35487 0.85135 0.97343 0.0
H913 H 0.36077 0.89463 0.96192 0.0
H914 H 0.46931 0.8685 0.01278 0.0
H915 H 0.48226 0.97313 0.98799 0.0
H916 H 0.43198 0.81675 0.94422 0.0
H917 H 0.39178 0.81487 0.96505 0.0
H918 H 0.42894 0.81347 0.98631 0.0
H919 H 0.44837 0.94631 0.91276 0.0
H920 H 0.44963 0.97919 0.94594 0.0
H921 H 0.40758 0.94101 0.93413 0.0
C922 C 0.21971 0.33671 0.83907 0.0
C923 C 0.23575 0.31458 0.84889 0.0
C924 C 0.20072 0.35144 0.86047 0.0
C925 C 0.19767 0.34365 0.8923 0.0
C926 C 0.21343 0.32112 0.90241 0.0
C927 C 0.23236 0.30676 0.88048 0.0
C928 C 0.18429 0.37565 0.84909 0.0
C929 C 0.21063 0.3126 0.93639 0.0
C930 C 0.17651 0.40909 0.95194 0.0
C931 C 0.13875 0.3905 0.95499 0.0
C932 C 0.19629 0.39375 0.932 0.0
C933 C 0.17772 0.35908 0.91496 0.0
C934 C 0.13983 0.33982 0.91837 0.0
C935 C 0.12071 0.35583 0.9384 0.0
C936 C 0.23679 0.41497 0.92855 0.0
C937 C 0.11942 0.30271 0.90036 0.0
H938 H 0.2223 0.34295 0.8147 0.0
H939 H 0.24498 0.28994 0.88827 0.0
H940 H 0.15453 0.36409 0.85331 0.0
H941 H 0.19598 0.40312 0.8627 0.0
H942 H 0.18914 0.37885 0.82344 0.0
H943 H 0.22404 0.29413 0.94023 0.0
H944 H 0.22342 0.33826 0.95244 0.0
H945 H 0.18164 0.29959 0.94331 0.0
H946 H 0.19062 0.43593 0.96468 0.0
H947 H 0.09156 0.34126 0.94078 0.0
H948 H 0.24317 0.4214 0.90371 0.0
H949 H 0.25159 0.39827 0.9338 0.0
H950 H 0.24727 0.44098 0.94452 0.0
H951 H 0.12164 0.30494 0.87448 0.0
H952 H 0.09014 0.29077 0.90672 0.0
H953 H 0.13164 0.2836 0.90519 0.0
C954 C 0.74359 0.17095 0.86402 0.0
C955 C 0.73853 0.20316 0.86168 0.0
C956 C 0.72551 0.14707 0.88735 0.0
C957 C 0.70256 0.15584 0.91029 0.0
C958 C 0.69789 0.18873 0.90833 0.0
C959 C 0.71509 0.2113 0.8839 0.0
C960 C 0.73068 0.11202 0.88714 0.0
C961 C 0.67518 0.20059 0.93252 0.0
C962 C 0.63273 0.08143 0.95888 0.0
C963 C 0.65264 0.08413 0.98623 0.0
C964 C 0.64846 0.10405 0.93406 0.0
C965 C 0.68473 0.13143 0.9368 0.0
C966 C 0.7043 0.13503 0.96499 0.0
C967 C 0.6885 0.11112 0.98868 0.0
C968 C 0.62652 0.09781 0.90438 0.0
C969 C 0.74223 0.16433 0.97026 0.0
H970 H 0.76109 0.1638 0.84695 0.0
H971 H 0.71079 0.23597 0.88265 0.0
H972 H 0.74506 0.11266 0.90903 0.0
H973 H 0.70383 0.08849 0.88689 0.0
H974 H 0.74658 0.10734 0.86633 0.0
H975 H 0.67598 0.22784 0.92921 0.0
H976 H 0.64649 0.18043 0.93088 0.0
H977 H 0.68497 0.20163 0.95681 0.0
H978 H 0.60525 0.06059 0.95625 0.0
H979 H 0.70435 0.11381 1.00956 0.0
H980 H 0.64183 0.09276 0.8833 0.0
H981 H 0.62188 0.12256 0.90143 0.0
H982 H 0.59972 0.07428 0.90485 0.0
H983 H 0.76107 0.15879 0.9527 0.0
H984 H 0.75266 0.16596 0.99444 0.0
H985 H 0.74261 0.19133 0.96671 0.0
C986 C 0.94458 0.6894 0.91373 0.0
C987 C 0.94703 0.6963 0.88196 0.0
C988 C 0.96049 0.66753 0.92412 0.0
C989 C 0.97913 0.65204 0.9021 0.0
C990 C 0.98165 0.65881 0.86996 0.0
C991 C 0.96564 0.68105 0.86026 0.0
C992 C 0.95737 0.66106 0.95869 0.0
C993 C 1.00094 0.64231 0.84588 0.0
C994 C 0.04265 0.62405 0.94406 0.0
C995 C 1.01943 0.58817 0.94906 0.0
C996 C 0.031 0.64454 0.92631 0.0
C997 C 0.99552 0.62852 0.91313 0.0
C998 C 0.97374 0.59106 0.91496 0.0
C999 C 0.98603 0.57124 0.93287 0.0
C1000 C 0.0552 0.68434 0.92456 0.0
C1001 C 0.93593 0.57278 0.90088 0.0
H1002 H 0.93057 0.70156 0.93058 0.0
H1003 H 0.96721 0.68612 0.8356 0.0
H1004 H 0.94307 0.6314 0.9609 0.0
H1005 H 0.98487 0.67042 0.96922 0.0
H1006 H 0.94235 0.67554 0.97275 0.0
H1007 H 1.00088 0.65065 0.82186 0.0
H1008 H 0.02952 0.65062 0.85339 0.0
H1009 H 0.98765 0.61206 0.84445 0.0
H1010 H 0.0687 0.6372 0.95615 0.0
H1011 H 0.96819 0.54326 0.93611 0.0
H1012 H 0.04512 0.70142 0.94136 0.0
H1013 H 0.05458 0.6921 0.90046 0.0
H1014 H 0.08383 0.6908 0.9309 0.0
H1015 H 0.91705 0.58104 0.91641 0.0
H1016 H 0.92572 0.54251 0.89875 0.0
H1017 H 0.93523 0.58132 0.87711 0.0
C1018 C 0.10972 0.29621 0.1926 0.0
C1019 C 0.13224 0.28383 0.17303 0.0
C1020 C 0.09419 0.31802 0.18134 0.0
C1021 C 0.1018 0.32755 0.15003 0.0
C1022 C 0.12347 0.31392 0.12988 0.0
C1023 C 0.13827 0.29203 0.14165 0.0
C1024 C 0.07102 0.332 0.20325 0.0
C1025 C 0.13196 0.32329 0.09615 0.0
C1026 C 0.05058 0.35866 0.09796 0.0
C1027 C 0.07545 0.39484 0.0962 0.0
C1028 C 0.05641 0.33723 0.1188 0.0
C1029 C 0.08811 0.35235 0.13779 0.0
C1030 C 0.11097 0.38997 0.13885 0.0
C1031 C 0.10422 0.41095 0.11804 0.0
C1032 C 0.03108 0.29733 0.1177 0.0
C1033 C 0.14506 0.40699 0.15893 0.0
H1034 H 0.10544 0.29006 0.21702 0.0
H1035 H 0.15537 0.28197 0.12653 0.0
H1036 H 0.08664 0.36142 0.21103 0.0
H1037 H 0.04626 0.32944 0.19083 0.0
H1038 H 0.06271 0.31719 0.22467 0.0
H1039 H 0.14902 0.31005 0.08369 0.0
H1040 H 0.10641 0.31459 0.08245 0.0
H1041 H 0.14658 0.3533 0.09607 0.0
H1042 H 0.0281 0.34606 0.08131 0.0
H1043 H 0.12318 0.43912 0.11716 0.0
H1044 H 1.02483 0.28911 0.14204 0.0
H1045 H 0.04448 0.28042 0.10501 0.0
H1046 H 1.00519 0.29108 0.10524 0.0
H1047 H 0.13993 0.39733 0.18279 0.0
H1048 H 0.15588 0.43731 0.16167 0.0
H1049 H 0.16627 0.39874 0.14746 0.0
C1050 C 0.19578 0.66865 0.83874 0.0
C1051 C 0.23312 0.68966 0.84338 0.0
C1052 C 0.17586 0.64288 0.85945 0.0
C1053 C 0.19352 0.63884 0.88593 0.0
C1054 C 0.23118 0.66032 0.8909 0.0
C1055 C 0.25067 0.6851 0.86926 0.0
C1056 C 0.13599 0.61983 0.85287 0.0
C1057 C 0.25075 0.65756 0.91938 0.0
C1058 C 0.13605 0.59635 0.95585 0.0
C1059 C 0.13627 0.56148 0.95199 0.0
C1060 C 0.15437 0.62183 0.9344 0.0
C1061 C 0.17279 0.61182 0.90825 0.0
C1062 C 0.17226 0.57623 0.90389 0.0
C1063 C 0.15443 0.55165 0.92611 0.0
C1064 C 0.15482 0.6597 0.94021 0.0
C1065 C 0.1908 0.56422 0.87592 0.0
H1066 H 0.1822 0.67209 0.81865 0.0
H1067 H 0.27944 0.70169 0.87311 0.0
H1068 H 0.13075 0.59042 0.85095 0.0
H1069 H 0.11937 0.62501 0.87282 0.0
H1070 H 0.12665 0.62548 0.83065 0.0
H1071 H 0.27973 0.67719 0.92046 0.0
H1072 H 0.2371 0.66287 0.9415 0.0
H1073 H 0.24958 0.62952 0.91873 0.0
H1074 H 0.12294 0.60424 0.97641 0.0
H1075 H 0.15459 0.52461 0.92323 0.0
H1076 H 0.14148 0.66488 0.92016 0.0
H1077 H 0.1833 0.68046 0.94158 0.0
H1078 H 0.14062 0.66362 0.96247 0.0
H1079 H 0.18095 0.56876 0.85347 0.0
H1080 H 0.18592 0.53493 0.87491 0.0
H1081 H 0.22055 0.58082 0.87729 0.0
C1082 C 0.4185 0.16955 0.94702 0.0
C1083 C 0.42479 0.1762 0.91509 0.0
C1084 C 0.43945 0.15601 0.96273 0.0
C1085 C 0.46808 0.14963 0.94643 0.0
C1086 C 0.47565 0.15758 0.91464 0.0
C1087 C 0.45371 0.17044 0.89922 0.0
C1088 C 0.43072 0.14828 0.99679 0.0
C1089 C 0.50665 0.15213 0.89684 0.0
C1090 C 0.53431 0.14019 1.00219 0.0
C1091 C 0.52044 0.10216 1.00219 0.0
C1092 C 0.51892 0.15622 0.98283 0.0
C1093 C 0.4892 0.13362 0.96269 0.0
C1094 C 0.47696 0.09517 0.96087 0.0
C1095 C 0.4928 0.07993 0.98053 0.0
C1096 C 0.53287 0.19733 0.98644 0.0
C1097 C 0.445 0.07001 0.94019 0.0
H1098 H 0.39717 0.1751 0.95996 0.0
H1099 H 0.45894 0.17544 0.87459 0.0
H1100 H 0.42501 0.11931 0.99903 0.0
H1101 H 0.45451 0.1655 1.01213 0.0
H1102 H 0.40687 0.15373 1.00579 0.0
H1103 H 0.51194 0.16399 0.87387 0.0
H1104 H 0.53185 0.1647 0.91141 0.0
H1105 H 0.5002 0.1225 0.89202 0.0
H1106 H 0.55553 0.1577 0.0189 0.0
H1107 H 0.48203 0.05048 0.98021 0.0
H1108 H 0.52308 0.20649 1.0093 0.0
H1109 H 0.52372 0.20785 0.96715 0.0
H1110 H 0.56307 0.20978 0.98733 0.0
H1111 H 0.41988 0.07254 0.94965 0.0
H1112 H 0.44095 0.04095 0.93925 0.0
H1113 H 0.44873 0.07782 0.91568 0.0
C1114 C 0.85109 0.38676 0.84935 0.0
C1115 C 0.81753 0.35763 0.85287 0.0
C1116 C 0.87197 0.40699 0.87589 0.0
C1117 C 0.85857 0.39774 0.90646 0.0
C1118 C 0.82193 0.3732 0.91004 0.0
C1119 C 0.80168 0.35289 0.88295 0.0
C1120 C 0.91046 0.43397 0.87094 0.0
C1121 C 0.8059 0.36487 0.94241 0.0
C1122 C 0.93084 0.38692 0.95205 0.0
C1123 C 0.94818 0.4218 0.96847 0.0
C1124 C 0.90007 0.37807 0.93339 0.0
C1125 C 0.88543 0.40444 0.93182 0.0
C1126 C 0.90072 0.43853 0.95063 0.0
C1127 C 0.93238 0.44708 0.96833 0.0
C1128 C 0.88512 0.34138 0.91343 0.0
C1129 C 0.88522 0.46693 0.95097 0.0
H1130 H 0.86281 0.391 0.82588 0.0
H1131 H 0.77538 0.33074 0.88566 0.0
H1132 H 0.91665 0.45951 0.887 0.0
H1133 H 0.92979 0.42216 0.87657 0.0
H1134 H 0.91523 0.4409 0.8461 0.0
H1135 H 0.77576 0.35435 0.94174 0.0
H1136 H 0.81324 0.34362 0.95071 0.0
H1137 H 0.81675 0.38958 0.95988 0.0
H1138 H 0.94248 0.36697 0.95223 0.0
H1139 H 0.94515 0.47395 0.98117 0.0
H1140 H 0.88758 0.34537 0.88787 0.0
H1141 H 0.85589 0.3263 0.91855 0.0
H1142 H 0.89959 0.324 0.91776 0.0
H1143 H 0.90123 0.48743 0.93481 0.0
H1144 H 0.88748 0.48174 0.97511 0.0
H1145 H 0.85629 0.45487 0.94339 0.0
C1146 C 0.76241 0.83803 0.88386 0.0
C1147 C 0.75395 0.83522 0.85146 0.0
C1148 C 0.74755 0.85534 0.90805 0.0
C1149 C 0.72354 0.87107 0.90028 0.0
C1150 C 0.71533 0.86894 0.86761 0.0
C1151 C 0.7303 0.85103 0.84383 0.0
C1152 C 0.75702 0.85605 0.9422 0.0
C1153 C 0.69029 0.88534 0.8577 0.0
C1154 C 0.65599 0.88244 0.96403 0.0
C1155 C 0.67298 0.91942 0.97669 0.0
C1156 C 0.67197 0.86667 0.93956 0.0
C1157 C 0.70597 0.88815 0.92638 0.0
C1158 C 0.72326 0.92558 0.93883 0.0
C1159 C 0.70688 0.94057 0.96378 0.0
C1160 C 0.6524 0.82664 0.92799 0.0
C1161 C 0.7592 0.94998 0.92566 0.0
H1162 H 0.78036 0.82599 0.89058 0.0
H1163 H 0.72324 0.84928 0.81917 0.0
H1164 H 0.76898 0.88461 0.95362 0.0
H1165 H 0.73196 0.84118 0.95548 0.0
H1166 H 0.77658 0.8434 0.94455 0.0
H1167 H 0.68808 0.88347 0.8315 0.0
H1168 H 0.66273 0.87103 0.86747 0.0
H1169 H 0.7002 0.91448 0.86755 0.0
H1170 H 0.62998 0.86537 0.97353 0.0
H1171 H 0.72051 0.9691 0.9729 0.0
H1172 H 0.66996 0.81207 0.9314 0.0
H1173 H 0.64668 0.82322 0.90221 0.0
H1174 H 0.62632 0.81343 0.94058 0.0
H1175 H 0.78015 0.93956 0.92951 0.0
H1176 H 0.76871 0.97865 0.93681 0.0
H1177 H 0.75678 0.94964 0.89967 0.0
C1178 C 0.94971 0.70832 0.20981 0.0
C1179 C 0.97278 0.74291 0.20124 0.0
C1180 C 0.94935 0.6765 0.19249 0.0
C1181 C 0.9722 0.67958 0.16587 0.0
C1182 C 0.99659 0.71431 0.15784 0.0
C1183 C 0.99683 0.74566 0.17591 0.0
C1184 C 0.92352 0.63974 0.20183 0.0
C1185 C 1.02149 0.71839 0.12949 0.0
C1186 C 1.00291 0.60833 0.12897 0.0
C1187 C 0.98353 0.5978 0.10036 0.0
C1188 C 0.99691 0.63261 0.15222 0.0
C1189 C 0.97122 0.64669 0.14623 0.0
C1190 C 0.94897 0.63323 0.11869 0.0
C1191 C 0.95536 0.60849 0.09586 0.0
C1192 C 1.02064 0.64594 0.18158 0.0
C1193 C 0.9211 0.64763 0.11185 0.0
H1194 H 0.93043 0.70598 0.22897 0.0
H1195 H 1.01473 0.77238 0.16944 0.0
H1196 H 0.90217 0.62596 0.18335 0.0
H1197 H 0.93816 0.62188 0.20347 0.0
H1198 H 0.91008 0.64215 0.2249 0.0
H1199 H 0.03853 0.74745 0.12642 0.0
H1200 H 0.03971 0.70432 0.13207 0.0
H1201 H 1.00517 0.70532 0.10757 0.0
H1202 H 1.02435 0.59925 0.13231 0.0
H1203 H 0.94049 0.59993 0.07358 0.0
H1204 H 1.00433 0.64744 0.20303 0.0
H1205 H 0.04154 0.67388 0.17943 0.0
H1206 H 0.0348 0.62801 0.185 0.0
H1207 H 0.90479 0.64918 0.13328 0.0
H1208 H 0.9024 0.63035 0.09226 0.0
H1209 H 0.93524 0.67572 0.10492 0.0
C1210 C 0.37463 0.82526 0.19716 0.0
C1211 C 0.37755 0.81734 0.22787 0.0
C1212 C 0.40542 0.84663 0.18096 0.0
C1213 C 0.43988 0.86026 0.19591 0.0
C1214 C 0.44346 0.84942 0.22558 0.0
C1215 C 0.41208 0.82805 0.24138 0.0
C1216 C 0.4006 0.85702 0.14892 0.0
C1217 C 0.48005 0.86243 0.2415 0.0
C1218 C 0.51175 0.91047 0.13884 0.0
C1219 C 0.50958 0.94447 0.14379 0.0
C1220 C 0.49194 0.88303 0.15808 0.0
C1221 C 0.47023 0.89044 0.18271 0.0
C1222 C 0.47198 0.9263 0.19014 0.0
C1223 C 0.49142 0.95286 0.17026 0.0
C1224 C 0.49112 0.84532 0.14952 0.0
C1225 C 0.44982 0.93556 0.21664 0.0
H1226 H 0.34808 0.81632 0.18629 0.0
H1227 H 0.41454 0.8212 0.26486 0.0
H1228 H 0.40609 0.8865 0.15102 0.0
H1229 H 0.42023 0.85247 0.13164 0.0
H1230 H 0.37266 0.84118 0.1393 0.0
H1231 H 0.47891 0.8473 0.26205 0.0
H1232 H 0.50047 0.85929 0.22434 0.0
H1233 H 0.48958 0.89191 0.25006 0.0
H1234 H 0.52602 0.9042 0.11828 0.0
H1235 H 0.49041 0.97953 0.17415 0.0
H1236 H 0.47103 0.83084 0.13016 0.0
H1237 H 0.48318 0.82888 0.16991 0.0
H1238 H 0.51808 0.84692 0.14069 0.0
H1239 H 0.42072 0.92347 0.20953 0.0
H1240 H 0.45852 0.96554 0.22224 0.0
H1241 H 0.45205 0.92396 0.23848 0.0
C1242 C 0.75495 0.14429 0.24745 0.0
C1243 C 0.78746 0.17536 0.24659 0.0
C1244 C 0.74057 0.12114 0.21973 0.0
C1245 C 0.75967 0.12939 0.19088 0.0
C1246 C 0.79591 0.15597 0.19152 0.0
C1247 C 0.80949 0.1792 0.2196 0.0
C1248 C 0.70233 0.09205 0.22047 0.0
C1249 C 0.81822 0.16339 0.16168 0.0
C1250 C 0.69744 0.07129 0.12352 0.0
C1251 C 0.67878 0.09316 0.11882 0.0
C1252 C 0.72725 0.08418 0.14437 0.0
C1253 C 0.73793 0.11936 0.16124 0.0
C1254 C 0.72173 0.14289 0.15381 0.0
C1255 C 0.69266 0.12957 0.1324 0.0
C1256 C 0.74501 0.05885 0.14999 0.0
C1257 C 0.73233 0.18092 0.1709 0.0
H1258 H 0.73842 0.14097 0.2687 0.0
H1259 H 0.83504 0.20292 0.21906 0.0
H1260 H 0.68337 0.10118 0.20954 0.0
H1261 H 0.70057 0.0663 0.20663 0.0
H1262 H 0.69308 0.0863 0.24507 0.0
H1263 H 0.84775 0.175 0.16724 0.0
H1264 H 0.8112 0.13809 0.14503 0.0
H1265 H 0.81272 0.1836 0.14958 0.0
H1266 H 0.68752 0.04332 0.11257 0.0
H1267 H 0.6791 0.14703 0.12819 0.0
H1268 H 0.7279 0.03903 0.16627 0.0
H1269 H 0.7726 0.07379 0.16049 0.0
H1270 H 0.747 0.04283 0.12737 0.0
H1271 H 0.72576 0.17924 0.19649 0.0
H1272 H 0.71797 0.19603 0.16134 0.0
H1273 H 0.76199 0.19707 0.16892 0.0
C1274 C 0.74159 0.67135 0.85749 0.0
C1275 C 0.72721 0.68155 0.83262 0.0
C1276 C 0.71866 0.64852 0.87916 0.0
C1277 C 0.6804 0.63538 0.87585 0.0
C1278 C 0.66569 0.64463 0.85026 0.0
C1279 C 0.68921 0.66748 0.82896 0.0
C1280 C 0.73542 0.63943 0.90625 0.0
C1281 C 0.62506 0.6312 0.84591 0.0
C1282 C 0.62325 0.55401 0.91997 0.0
C1283 C 0.61349 0.57103 0.94734 0.0
C1284 C 0.64401 0.57447 0.89601 0.0
C1285 C 0.65587 0.61295 0.8998 0.0
C1286 C 0.64549 0.63018 0.92717 0.0
C1287 C 0.62445 0.60898 0.95061 0.0
C1288 C 0.65413 0.55501 0.86706 0.0
C1289 C 0.65803 0.67118 0.93242 0.0
H1290 H 0.77081 0.68219 0.86073 0.0
H1291 H 0.67767 0.67507 0.80985 0.0
H1292 H 0.72754 0.6505 0.92916 0.0
H1293 H 0.725 0.60937 0.90628 0.0
H1294 H 0.76558 0.65079 0.90494 0.0
H1295 H 0.6179 0.6413 0.82507 0.0
H1296 H 0.61247 0.6009 0.84285 0.0
H1297 H 0.6129 0.6402 0.86741 0.0
H1298 H 0.61499 0.52465 0.91752 0.0
H1299 H 0.61831 0.62237 0.97229 0.0
H1300 H 0.68405 0.56367 0.8663 0.0
H1301 H 0.64609 0.56253 0.84519 0.0
H1302 H 0.64103 0.52483 0.86684 0.0
H1303 H 0.68786 0.68406 0.9365 0.0
H1304 H 0.64462 0.68001 0.95317 0.0
H1305 H 0.65255 0.68161 0.91107 0.0
C1306 C 0.46931 0.66413 0.82447 0.0
C1307 C 0.45927 0.69312 0.83472 0.0
C1308 C 0.48758 0.65229 0.84493 0.0
C1309 C 0.49527 0.66956 0.87632 0.0
C1310 C 0.48775 0.70061 0.88593 0.0
C1311 C 0.47013 0.71225 0.86483 0.0
C1312 C 0.49583 0.61947 0.83381 0.0
C1313 C 0.49522 0.71953 0.91939 0.0
C1314 C 0.4846 0.61322 0.94346 0.0
C1315 C 0.5206 0.62525 0.95387 0.0
C1316 C 0.47629 0.62605 0.9171 0.0
C1317 C 0.50476 0.65163 0.90071 0.0
C1318 C 0.54137 0.66247 0.90991 0.0
C1319 C 0.54894 0.64904 0.93651 0.0
C1320 C 0.4368 0.6137 0.90798 0.0
C1321 C 0.57223 0.68924 0.8924 0.0
H1322 H 0.46096 0.64924 0.80119 0.0
H1323 H 0.46323 0.7353 0.87249 0.0
H1324 H 0.52301 0.62344 0.84231 0.0
H1325 H 0.47544 0.59503 0.84374 0.0
H1326 H 0.49492 0.61385 0.80753 0.0
H1327 H 0.49159 0.74561 0.92193 0.0
H1328 H 0.47627 0.70132 0.93594 0.0
H1329 H 0.52328 0.72527 0.92679 0.0
H1330 H 0.46252 0.59446 0.95647 0.0
H1331 H 0.57682 0.6581 0.94428 0.0
H1332 H 0.43259 0.60291 0.88255 0.0
H1333 H 0.42901 0.63732 0.91152 0.0
H1334 H 0.41822 0.59213 0.9222 0.0
H1335 H 0.57136 0.67857 0.86699 0.0
H1336 H 0.5992 0.69461 0.90237 0.0
H1337 H 0.5693 0.71555 0.89346 0.0
C1338 C 0.3457 0.40494 0.84391 0.0
C1339 C 0.36622 0.38488 0.83298 0.0
C1340 C 0.35586 0.42958 0.87168 0.0
C1341 C 0.38714 0.43403 0.88871 0.0
C1342 C 0.40972 0.41644 0.87593 0.0
C1343 C 0.399 0.39219 0.84819 0.0
C1344 C 0.33141 0.44823 0.88415 0.0
C1345 C 0.44352 0.42046 0.89309 0.0
C1346 C 0.43707 0.50078 0.95789 0.0
C1347 C 0.42747 0.47729 0.98186 0.0
C1348 C 0.42063 0.48865 0.92774 0.0
C1349 C 0.39411 0.45246 0.92175 0.0
C1350 C 0.38038 0.43103 0.94729 0.0
C1351 C 0.39704 0.44391 0.97717 0.0
C1352 C 0.43481 0.51275 0.90132 0.0
C1353 C 0.3517 0.39242 0.94215 0.0
H1354 H 0.32012 0.39918 0.83239 0.0
H1355 H 0.41501 0.37688 0.83966 0.0
H1356 H 0.34755 0.47669 0.89447 0.0
H1357 H 0.3133 0.44856 0.86528 0.0
H1358 H 0.31407 0.43336 0.90325 0.0
H1359 H 0.45945 0.40719 0.87876 0.0
H1360 H 0.46135 0.44973 0.89916 0.0
H1361 H 0.43571 0.40782 0.91563 0.0
H1362 H 0.46019 0.52689 0.96133 0.0
H1363 H 0.38895 0.42594 0.9958 0.0
H1364 H 0.41193 0.51213 0.88727 0.0
H1365 H 0.45165 0.50244 0.885 0.0
H1366 H 0.45179 0.54144 0.91044 0.0
H1367 H 0.32916 0.39098 0.92718 0.0
H1368 H 0.34024 0.38154 0.9649 0.0
H1369 H 0.36397 0.37442 0.92955 0.0
C1370 C 0.56572 0.29529 0.827 0.0
C1371 C 0.57118 0.26392 0.83153 0.0
C1372 C 0.55519 0.31445 0.8522 0.0
C1373 C 0.55102 0.3024 0.88263 0.0
C1374 C 0.55222 0.26859 0.88653 0.0
C1375 C 0.56118 0.24907 0.86053 0.0
C1376 C 0.55221 0.34956 0.84695 0.0
C1377 C 0.54689 0.25437 0.91851 0.0
C1378 C 0.58294 0.3803 0.94838 0.0
C1379 C 0.54982 0.37999 0.96019 0.0
C1380 C 0.58358 0.35412 0.92383 0.0
C1381 C 0.55034 0.32758 0.9106 0.0
C1382 C 0.51691 0.32649 0.92302 0.0
C1383 C 0.51704 0.35248 0.94788 0.0
C1384 C 0.61982 0.35526 0.91161 0.0
C1385 C 0.48101 0.29831 0.90985 0.0
H1386 H 0.57302 0.30708 0.80474 0.0
H1387 H 0.56382 0.22398 0.86376 0.0
H1388 H 0.52777 0.35117 0.85897 0.0
H1389 H 0.57638 0.37317 0.85733 0.0
H1390 H 0.55069 0.35214 0.82133 0.0
H1391 H 0.55653 0.23221 0.91875 0.0
H1392 H 0.56157 0.27642 0.93744 0.0
H1393 H 0.51754 0.24344 0.92443 0.0
H1394 H 0.6083 0.40123 0.95798 0.0
H1395 H 0.49119 0.35174 0.957 0.0
H1396 H 0.62346 0.36179 0.88668 0.0
H1397 H 0.62064 0.32809 0.91183 0.0
H1398 H 0.64301 0.37598 0.92593 0.0
H1399 H 0.48097 0.29584 0.88353 0.0
H1400 H 0.4577 0.30484 0.91861 0.0
H1401 H 0.47677 0.27136 0.91715 0.0
C1402 C 0.6252 0.33277 0.15629 0.0
C1403 C 0.62595 0.33155 0.189 0.0
C1404 C 0.60726 0.35156 0.14378 0.0
C1405 C 0.58934 0.36904 0.16459 0.0
C1406 C 0.58902 0.3669 0.19759 0.0
C1407 C 0.60768 0.34833 0.2095 0.0
C1408 C 0.60857 0.35372 0.1084 0.0
C1409 C 0.56998 0.38514 0.22025 0.0
C1410 C 0.58474 0.44654 0.12704 0.0
C1411 C 0.5516 0.4287 0.11073 0.0
C1412 C 0.59603 0.4284 0.14747 0.0
C1413 C 0.57343 0.39169 0.15157 0.0
C1414 C 0.53812 0.37509 0.13813 0.0
C1415 C 0.52762 0.39383 0.11756 0.0
C1416 C 0.63387 0.44728 0.16146 0.0
C1417 C 0.51294 0.33631 0.1428 0.0
H1418 H 0.6396 0.31992 0.1406 0.0
H1419 H 0.60808 0.34694 0.23483 0.0
H1420 H 0.5806 0.34346 0.09868 0.0
H1421 H 0.6229 0.38261 0.10354 0.0
H1422 H 0.62277 0.33765 0.09553 0.0
H1423 H 0.56924 0.37784 0.24478 0.0
H1424 H 0.58427 0.41524 0.22073 0.0
H1425 H 0.54171 0.37741 0.21213 0.0
H1426 H 0.6031 0.47377 0.12204 0.0
H1427 H 0.50187 0.38009 0.10504 0.0
H1428 H 0.63556 0.43844 0.18486 0.0
H1429 H 0.64288 0.47741 0.16431 0.0
H1430 H 0.65311 0.44046 0.1452 0.0
H1431 H 0.52168 0.31719 0.12728 0.0
H1432 H 0.48437 0.33035 0.13666 0.0
H1433 H 0.51397 0.33087 0.16767 0.0
C1434 C 0.72487 0.66258 0.20142 0.0
C1435 C 0.76279 0.67802 0.20507 0.0
C1436 C 0.70806 0.63975 0.17415 0.0
C1437 C 0.72952 0.63044 0.15026 0.0
C1438 C 0.76769 0.64359 0.15498 0.0
C1439 C 0.78404 0.66812 0.18196 0.0
C1440 C 0.66752 0.6279 0.17009 0.0
C1441 C 0.7918 0.63304 0.1314 0.0
C1442 C 0.66044 0.56179 0.09205 0.0
C1443 C 0.65783 0.58535 0.07139 0.0
C1444 C 0.68799 0.57471 0.11541 0.0
C1445 C 0.71204 0.61222 0.11895 0.0
C1446 C 0.71248 0.63442 0.09534 0.0
C1447 C 0.6861 0.62028 0.0713 0.0
C1448 C 0.68902 0.54895 0.13795 0.0
C1449 C 0.73767 0.67448 0.09763 0.0
H1450 H 0.70824 0.6703 0.21907 0.0
H1451 H 0.81334 0.67963 0.18483 0.0
H1452 H 0.65354 0.59776 0.16879 0.0
H1453 H 0.65541 0.63977 0.18994 0.0
H1454 H 0.6618 0.63625 0.14763 0.0
H1455 H 0.81139 0.62625 0.1441 0.0
H1456 H 0.77624 0.60936 0.11412 0.0
H1457 H 0.80809 0.6567 0.11834 0.0
H1458 H 0.63946 0.53434 0.09181 0.0
H1459 H 0.68525 0.63825 0.05453 0.0
H1460 H 0.71619 0.55852 0.14922 0.0
H1461 H 0.682 0.52121 0.12526 0.0
H1462 H 0.66849 0.54662 0.15683 0.0
H1463 H 0.73235 0.68894 0.11991 0.0
H1464 H 0.73435 0.68798 0.07736 0.0
H1465 H 0.76633 0.67774 0.09829 0.0
C1466 C 0.48163 0.70361 0.25484 0.0
C1467 C 0.47539 0.73552 0.25895 0.0
C1468 C 0.4993 0.6959 0.22766 0.0
C1469 C 0.51079 0.72088 0.20455 0.0
C1470 C 0.50992 0.75568 0.21125 0.0
C1471 C 0.49218 0.7627 0.23865 0.0
C1472 C 0.50087 0.6589 0.22169 0.0
C1473 C 0.52303 0.78339 0.18755 0.0
C1474 C 0.55289 0.69226 0.13097 0.0
C1475 C 0.52176 0.67139 0.11233 0.0
C1476 C 0.55019 0.71009 0.16067 0.0
C1477 C 0.51569 0.70748 0.17154 0.0
C1478 C 0.48461 0.68891 0.15176 0.0
C1479 C 0.48801 0.67077 0.12242 0.0
C1480 C 0.58375 0.72907 0.18127 0.0
C1481 C 0.44735 0.68628 0.16237 0.0
H1482 H 0.46884 0.68271 0.27067 0.0
H1483 H 0.48775 0.78768 0.24224 0.0
H1484 H 0.47873 0.64078 0.20503 0.0
H1485 H 0.52707 0.66109 0.21064 0.0
H1486 H 0.49741 0.64583 0.24393 0.0
H1487 H 0.52759 0.81121 0.19883 0.0
H1488 H 0.54863 0.7842 0.17612 0.0
H1489 H 0.50224 0.77552 0.16859 0.0
H1490 H 0.57915 0.69275 0.12339 0.0
H1491 H 0.46401 0.65495 0.10794 0.0
H1492 H 0.58382 0.71081 0.19887 0.0
H1493 H 0.58407 0.75454 0.19467 0.0
H1494 H 0.60906 0.73566 0.1671 0.0
H1495 H 0.43833 0.66977 0.18271 0.0
H1496 H 0.4267 0.67341 0.14316 0.0
H1497 H 0.4483 0.71385 0.1705 0.0
C1498 C 0.37036 0.39284 0.23539 0.0
C1499 C 0.3473 0.3568 0.22424 0.0
C1500 C 0.39237 0.41756 0.21462 0.0
C1501 C 0.39172 0.40608 0.18174 0.0
C1502 C 0.36825 0.36988 0.17021 0.0
C1503 C 0.34612 0.34577 0.19153 0.0
C1504 C 0.41695 0.45582 0.22797 0.0
C1505 C 0.36727 0.35634 0.13543 0.0
C1506 C 0.42268 0.4782 0.12387 0.0
C1507 C 0.45833 0.48181 0.11652 0.0
C1508 C 0.401 0.45391 0.14507 0.0
C1509 C 0.41501 0.43231 0.15943 0.0
C1510 C 0.4513 0.43644 0.15289 0.0
C1511 C 0.47249 0.46113 0.13155 0.0
C1512 C 0.36291 0.45127 0.15201 0.0
C1513 C 0.46765 0.41429 0.16779 0.0
H1514 H 0.37167 0.4017 0.2606 0.0
H1515 H 0.32889 0.31788 0.18269 0.0
H1516 H 0.44576 0.46065 0.22296 0.0
H1517 H 0.4111 0.4761 0.21629 0.0
H1518 H 0.41374 0.46079 0.254 0.0
H1519 H 0.34759 0.32751 0.13015 0.0
H1520 H 0.35979 0.37365 0.12115 0.0
H1521 H 0.39473 0.35854 0.12769 0.0
H1522 H 0.41125 0.49395 0.11254 0.0
H1523 H 0.50019 0.46437 0.12682 0.0
H1524 H 0.35967 0.45722 0.17788 0.0
H1525 H 0.34287 0.42306 0.14481 0.0
H1526 H 0.35628 0.47049 0.13944 0.0
H1527 H 0.4588 0.41062 0.19272 0.0
H1528 H 0.49783 0.42726 0.16741 0.0
H1529 H 0.45844 0.38674 0.15432 0.0
C1530 C 0.85211 0.68918 0.72095 0.0
C1531 C 0.82714 0.70347 0.71339 0.0
C1532 C 0.86716 0.67125 0.69741 0.0
C1533 C 0.85822 0.66805 0.66482 0.0
C1534 C 0.83294 0.68237 0.65704 0.0
C1535 C 0.81748 0.69929 0.68121 0.0
C1536 C 0.89314 0.65602 0.70752 0.0
C1537 C 0.82302 0.68086 0.62289 0.0
C1538 C 0.92772 0.65715 0.60278 0.0
C1539 C 0.91188 0.61981 0.591 0.0
C1540 C 0.91051 0.673 0.62609 0.0
C1541 C 0.87642 0.65125 0.63902 0.0
C1542 C 0.86029 0.61347 0.62742 0.0
C1543 C 0.87785 0.59841 0.60357 0.0
C1544 C 0.92896 0.71336 0.63685 0.0
C1545 C 0.82451 0.58871 0.64056 0.0
H1546 H 0.86002 0.69201 0.74554 0.0
H1547 H 0.79875 0.7105 0.67468 0.0
H1548 H 0.88407 0.62689 0.69783 0.0
H1549 H 0.92056 0.67099 0.69778 0.0
H1550 H 0.89539 0.65814 0.73374 0.0
H1551 H 0.8027 0.69256 0.62049 0.0
H1552 H 0.84778 0.69623 0.60949 0.0
H1553 H 0.81186 0.65219 0.61171 0.0
H1554 H 0.95378 0.67442 0.5935 0.0
H1555 H 0.86506 0.56961 0.59511 0.0
H1556 H 0.93525 0.71766 0.66257 0.0
H1557 H 0.91044 0.72685 0.63334 0.0
H1558 H 0.95464 0.72698 0.62383 0.0
H1559 H 0.82688 0.58943 0.66661 0.0
H1560 H 0.81555 0.55997 0.62969 0.0
H1561 H 0.80316 0.59849 0.63641 0.0
C1562 C 0.35811 0.83996 0.69679 0.0
C1563 C 0.34832 0.85069 0.7272 0.0
C1564 C 0.37803 0.8659 0.67626 0.0
C1565 C 0.38871 0.9035 0.68648 0.0
C1566 C 0.37962 0.91456 0.71739 0.0
C1567 C 0.35931 0.888 0.73732 0.0
C1568 C 0.38701 0.85303 0.6434 0.0
C1569 C 0.39109 0.95446 0.72926 0.0
C1570 C 0.46332 0.97239 0.64079 0.0
C1571 C 0.443 0.98304 0.62129 0.0
C1572 C 0.44612 0.94662 0.66228 0.0
C1573 C 0.40767 0.93119 0.66425 0.0
C1574 C 0.38706 0.94207 0.6448 0.0
C1575 C 0.40497 0.96794 0.62366 0.0
C1576 C 0.46906 0.93568 0.6826 0.0
C1577 C 0.346 0.926 0.64601 0.0
H1578 H 0.34975 0.81117 0.68878 0.0
H1579 H 0.35219 0.8965 0.7609 0.0
H1580 H 0.37425 0.86197 0.62534 0.0
H1581 H 0.41682 0.86549 0.63955 0.0
H1582 H 0.37743 0.82284 0.63937 0.0
H1583 H 0.38349 0.9586 0.75444 0.0
H1584 H 0.42098 0.96924 0.72697 0.0
H1585 H 0.37818 0.96699 0.71456 0.0
H1586 H 0.49273 0.98439 0.63945 0.0
H1587 H 0.38905 0.97583 0.60851 0.0
H1588 H 0.46451 0.90681 0.67526 0.0
H1589 H 0.46105 0.93763 0.70787 0.0
H1590 H 0.49856 0.95295 0.6806 0.0
H1591 H 0.33516 0.8959 0.64016 0.0
H1592 H 0.33399 0.93732 0.62925 0.0
H1593 H 0.33683 0.93143 0.67035 0.0
C1594 C 0.18307 0.38174 0.62813 0.0
C1595 C 0.1738 0.37062 0.65858 0.0
C1596 C 0.16088 0.39314 0.61159 0.0
C1597 C 0.12842 0.39336 0.62574 0.0
C1598 C 0.11848 0.38158 0.65623 0.0
C1599 C 0.1413 0.37035 0.67231 0.0
C1600 C 0.17242 0.40531 0.57904 0.0
C1601 C 0.08407 0.38138 0.67203 0.0
C1602 C 0.09766 0.45925 0.59208 0.0
C1603 C 0.07287 0.43627 0.56851 0.0
C1604 C 0.1143 0.44529 0.61223 0.0
C1605 C 0.10591 0.40737 0.60886 0.0
C1606 C 0.07882 0.38365 0.58685 0.0
C1607 C 0.06254 0.39838 0.56695 0.0
C1608 C 0.1428 0.47154 0.63555 0.0
C1609 C 0.06893 0.34301 0.58265 0.0
H1610 H 0.20766 0.38124 0.61702 0.0
H1611 H 0.13401 0.36196 0.69587 0.0
H1612 H 0.15069 0.38892 0.56144 0.0
H1613 H 0.17667 0.4343 0.57919 0.0
H1614 H 0.19795 0.40258 0.57105 0.0
H1615 H 0.07938 0.36995 0.69519 0.0
H1616 H 0.08553 0.40965 0.67598 0.0
H1617 H 0.06028 0.36508 0.65638 0.0
H1618 H 0.10557 0.48853 0.59373 0.0
H1619 H 0.04345 0.38037 0.54885 0.0
H1620 H 0.17007 0.47343 0.62749 0.0
H1621 H 0.13816 0.46152 0.65928 0.0
H1622 H 0.14306 0.49939 0.63792 0.0
H1623 H 0.09174 0.33762 0.57097 0.0
H1624 H 0.0441 0.32785 0.56787 0.0
H1625 H 0.06447 0.33207 0.60598 0.0
C1626 C 0.78215 0.18365 0.68871 0.0
C1627 C 0.76603 0.17851 0.71868 0.0
C1628 C 0.76222 0.16337 0.66143 0.0
C1629 C 0.72559 0.13863 0.66471 0.0
C1630 C 0.71211 0.12883 0.69512 0.0
C1631 C 0.73271 0.14892 0.72186 0.0
C1632 C 0.77859 0.1719 0.62921 0.0
C1633 C 0.67378 0.10132 0.69974 0.0
C1634 C 0.65398 0.15146 0.6198 0.0
C1635 C 0.63599 0.11681 0.60317 0.0
C1636 C 0.68469 0.15954 0.63831 0.0
C1637 C 0.69873 0.13261 0.63946 0.0
C1638 C 0.68269 0.09866 0.6205 0.0
C1639 C 0.65104 0.09089 0.60299 0.0
C1640 C 0.70021 0.19604 0.65853 0.0
C1641 C 0.69746 0.06965 0.61957 0.0
H1642 H 0.80837 0.206 0.68622 0.0
H1643 H 0.72086 0.14423 0.74524 0.0
H1644 H 0.76775 0.14731 0.6116 0.0
H1645 H 0.77156 0.19337 0.62096 0.0
H1646 H 0.80871 0.18222 0.6301 0.0
H1647 H 0.66874 0.09446 0.72459 0.0
H1648 H 0.65412 0.11254 0.69364 0.0
H1649 H 0.66833 0.07581 0.68383 0.0
H1650 H 0.64285 0.17187 0.61992 0.0
H1651 H 0.6378 0.06422 0.58989 0.0
H1652 H 0.7293 0.21106 0.65288 0.0
H1653 H 0.69842 0.19179 0.68403 0.0
H1654 H 0.68571 0.21361 0.65497 0.0
H1655 H 0.72566 0.08052 0.62889 0.0
H1656 H 0.69699 0.05687 0.59484 0.0
H1657 H 0.67964 0.04769 0.63375 0.0
C1658 C 0.8249 0.39568 0.35164 0.0
C1659 C 0.8265 0.38117 0.3204 0.0
C1660 C 0.85564 0.42358 0.36624 0.0
C1661 C 0.88864 0.43674 0.34895 0.0
C1662 C 0.88835 0.42664 0.31586 0.0
C1663 C 0.85692 0.39874 0.30179 0.0
C1664 C 0.8541 0.43443 0.40143 0.0
C1665 C 0.92219 0.44148 0.29606 0.0
C1666 C 0.95535 0.49602 0.41096 0.0
C1667 C 0.96101 0.4687 0.42471 0.0
C1668 C 0.93684 0.48784 0.38195 0.0
C1669 C 0.92309 0.45148 0.36731 0.0
C1670 C 0.93483 0.426 0.37813 0.0
C1671 C 0.9541 0.43515 0.40671 0.0
C1672 C 0.9281 0.51683 0.36938 0.0
C1673 C 0.92226 0.3872 0.36249 0.0
H1674 H 0.80113 0.38205 0.36579 0.0
H1675 H 0.85801 0.38763 0.27741 0.0
H1676 H 0.86946 0.42294 0.41459 0.0
H1677 H 0.86675 0.46455 0.40682 0.0
H1678 H 0.82575 0.42433 0.41044 0.0
H1679 H 0.91513 0.4444 0.27183 0.0
H1680 H 0.94201 0.46831 0.30693 0.0
H1681 H 0.93545 0.42197 0.29347 0.0
H1682 H 0.9625 0.52279 0.42407 0.0
H1683 H 0.95996 0.41445 0.41653 0.0
H1684 H 0.90322 0.51769 0.38109 0.0
H1685 H 0.92325 0.5112 0.34338 0.0
H1686 H 0.95057 0.54421 0.37478 0.0
H1687 H 0.8928 0.37215 0.367 0.0
H1688 H 0.93711 0.37232 0.37166 0.0
H1689 H 0.92615 0.3868 0.33648 0.0
C1690 C 0.61752 0.79542 0.41132 0.0
C1691 C 0.6229 0.79833 0.37883 0.0
C1692 C 0.61106 0.82227 0.43112 0.0
C1693 C 0.61019 0.85245 0.41785 0.0
C1694 C 0.61471 0.85512 0.38495 0.0
C1695 C 0.62068 0.82764 0.36566 0.0
C1696 C 0.60574 0.81866 0.46623 0.0
C1697 C 0.61386 0.88718 0.37034 0.0
C1698 C 0.55648 0.89758 0.46472 0.0
C1699 C 0.58392 0.92707 0.48199 0.0
C1700 C 0.56494 0.87377 0.4429 0.0
C1701 C 0.60172 0.87976 0.43825 0.0
C1702 C 0.62979 0.91017 0.45456 0.0
C1703 C 0.62049 0.9337 0.47645 0.0
C1704 C 0.53442 0.84149 0.42571 0.0
C1705 C 0.66936 0.91713 0.44959 0.0
H1706 H 0.62011 0.77311 0.42146 0.0
H1707 H 0.62502 0.82968 0.34043 0.0
H1708 H 0.62641 0.84279 0.48 0.0
H1709 H 0.57863 0.81784 0.47355 0.0
H1710 H 0.60779 0.79364 0.47269 0.0
H1711 H 0.61914 0.88556 0.34441 0.0
H1712 H 0.58696 0.88844 0.37437 0.0
H1713 H 0.63455 0.91308 0.38186 0.0
H1714 H 0.52812 0.89273 0.46838 0.0
H1715 H 0.64168 0.95672 0.48958 0.0
H1716 H 0.53399 0.81571 0.43286 0.0
H1717 H 0.53884 0.84083 0.39971 0.0
H1718 H 0.50735 0.8421 0.43086 0.0
H1719 H 0.67486 0.89514 0.45868 0.0
H1720 H 0.68784 0.9438 0.46192 0.0
H1721 H 0.67588 0.91659 0.42392 0.0
C1722 C 0.17689 0.67733 0.32311 0.0
C1723 C 0.18856 0.71535 0.3265 0.0
C1724 C 0.14827 0.65568 0.34125 0.0
C1725 C 0.13119 0.67267 0.36343 0.0
C1726 C 0.13997 0.71053 0.3642 0.0
C1727 C 0.16882 0.73165 0.34558 0.0
C1728 C 0.13952 0.61531 0.33939 0.0
C1729 C 0.12163 0.72932 0.387 0.0
C1730 C 0.06027 0.60369 0.41091 0.0
C1731 C 0.0825 0.60215 0.43467 0.0
C1732 C 0.0749 0.62885 0.38848 0.0
C1733 C 0.11222 0.65278 0.39044 0.0
C1734 C 0.13367 0.65323 0.41616 0.0
C1735 C 0.11853 0.62774 0.43782 0.0
C1736 C 0.05111 0.628 0.36165 0.0
C1737 C 0.17349 0.67864 0.41953 0.0
H1738 H 0.1915 0.66462 0.30753 0.0
H1739 H 0.17752 0.76105 0.34774 0.0
H1740 H 0.15105 0.60981 0.36048 0.0
H1741 H 0.10971 0.59914 0.33943 0.0
H1742 H 0.15108 0.60561 0.3178 0.0
H1743 H 0.09236 0.71164 0.38957 0.0
H1744 H 0.13456 0.73517 0.41073 0.0
H1745 H 0.12429 0.75564 0.37918 0.0
H1746 H 0.03216 0.58412 0.40889 0.0
H1747 H 0.13531 0.62717 0.4569 0.0
H1748 H 0.05523 0.61097 0.34062 0.0
H1749 H 0.05824 0.6558 0.35479 0.0
H1750 H 1.02185 0.61594 0.36807 0.0
H1751 H 0.18917 0.67075 0.40014 0.0
H1752 H 0.18513 0.67783 0.44254 0.0
H1753 H 0.17739 0.70718 0.4176 0.0
C1754 C 0.49182 0.25152 0.37643 0.0
C1755 C 0.48168 0.2745 0.39848 0.0
C1756 C 0.50385 0.22646 0.38663 0.0
C1757 C 0.50472 0.22398 0.41947 0.0
C1758 C 0.49701 0.24891 0.44179 0.0
C1759 C 0.48616 0.27431 0.43094 0.0
C1760 C 0.513 0.20103 0.36227 0.0
C1761 C 0.49752 0.24706 0.47715 0.0
C1762 C 0.48096 0.13775 0.45667 0.0
C1763 C 0.51371 0.14583 0.47233 0.0
C1764 C 0.47842 0.16137 0.43624 0.0
C1765 C 0.5096 0.19319 0.43106 0.0
C1766 C 0.54374 0.19865 0.4432 0.0
C1767 C 0.54543 0.17484 0.4639 0.0
C1768 C 0.44144 0.15468 0.42368 0.0
C1769 C 0.57757 0.2318 0.43707 0.0
H1770 H 0.48828 0.2515 0.35126 0.0
H1771 H 0.47915 0.29272 0.44793 0.0
H1772 H 0.53591 0.1955 0.37038 0.0
H1773 H 0.48905 0.17456 0.35849 0.0
H1774 H 0.52019 0.21241 0.33911 0.0
H1775 H 0.4921 0.26939 0.49118 0.0
H1776 H 0.47653 0.22054 0.48317 0.0
H1777 H 0.52425 0.24867 0.48457 0.0
H1778 H 0.45647 0.11495 0.46259 0.0
H1779 H 0.57102 0.18075 0.47538 0.0
H1780 H 0.44304 0.15937 0.39835 0.0
H1781 H 0.43145 0.17416 0.43709 0.0
H1782 H 0.4212 0.12647 0.42613 0.0
H1783 H 0.58056 0.23448 0.41127 0.0
H1784 H 0.60242 0.23052 0.44604 0.0
H1785 H 0.57534 0.25685 0.44894 0.0
C1786 C 0.63784 0.85257 0.65847 0.0
C1787 C 0.63603 0.84523 0.69008 0.0
C1788 C 0.62095 0.87396 0.64872 0.0
C1789 C 0.60195 0.88851 0.67122 0.0
C1790 C 0.60013 0.88132 0.7032 0.0
C1791 C 0.61713 0.85962 0.71226 0.0
C1792 C 0.6234 0.88092 0.6143 0.0
C1793 C 0.58048 0.89677 0.72781 0.0
C1794 C 0.59175 0.96932 0.64333 0.0
C1795 C 0.55796 0.95222 0.62777 0.0
C1796 C 0.60537 0.94941 0.65985 0.0
C1797 C 0.58454 0.91162 0.66095 0.0
C1798 C 0.54879 0.89519 0.64832 0.0
C1799 C 0.53582 0.91579 0.63192 0.0
C1800 C 0.64346 0.96814 0.6733 0.0
C1801 C 0.52559 0.85502 0.64931 0.0
H1802 H 0.65205 0.84109 0.64122 0.0
H1803 H 0.61604 0.85427 0.73681 0.0
H1804 H 0.5957 0.87106 0.60407 0.0
H1805 H 0.63698 0.91069 0.61241 0.0
H1806 H 0.63878 0.86717 0.59979 0.0
H1807 H 0.581 0.88806 0.75159 0.0
H1808 H 0.59317 0.92706 0.72968 0.0
H1809 H 0.55174 0.88799 0.72054 0.0
H1810 H 0.60883 0.99765 0.64057 0.0
H1811 H 0.50959 0.90243 0.62012 0.0
H1812 H 0.6623 0.96055 0.65714 0.0
H1813 H 0.64497 0.95929 0.69677 0.0
H1814 H 0.65313 0.99836 0.67588 0.0
H1815 H 0.53608 0.83889 0.63186 0.0
H1816 H 0.4967 0.84795 0.6434 0.0
H1817 H 0.52685 0.8467 0.67306 0.0
C1818 C 0.69175 0.2116 0.3622 0.0
C1819 C 0.72905 0.21964 0.36388 0.0
C1820 C 0.66714 0.19056 0.3839 0.0
C1821 C 0.68018 0.17767 0.40816 0.0
C1822 C 0.71792 0.18648 0.41047 0.0
C1823 C 0.74188 0.20703 0.38808 0.0
C1824 C 0.62708 0.18137 0.3804 0.0
C1825 C 0.73296 0.17393 0.43647 0.0
C1826 C 0.62174 0.14592 0.48071 0.0
C1827 C 0.60946 0.10798 0.4743 0.0
C1828 C 0.64433 0.16911 0.45913 0.0
C1829 C 0.65424 0.15376 0.43038 0.0
C1830 C 0.64044 0.1153 0.42333 0.0
C1831 C 0.61866 0.09288 0.44564 0.0
C1832 C 0.65933 0.20989 0.46811 0.0
C1833 C 0.64972 0.09783 0.3927 0.0
H1834 H 0.68157 0.22101 0.3434 0.0
H1835 H 0.77069 0.21339 0.38962 0.0
H1836 H 0.6124 0.15164 0.37329 0.0
H1837 H 0.61559 0.18769 0.4034 0.0
H1838 H 0.62168 0.19646 0.36237 0.0
H1839 H 0.76312 0.18457 0.43591 0.0
H1840 H 0.72454 0.18306 0.45998 0.0
H1841 H 0.72171 0.14365 0.43411 0.0
H1842 H 0.61527 0.15748 0.50331 0.0
H1843 H 0.60934 0.06345 0.44098 0.0
H1844 H 0.66021 0.22455 0.44735 0.0
H1845 H 0.68764 0.21943 0.47685 0.0
H1846 H 0.64312 0.21754 0.48719 0.0
H1847 H 0.6434 0.10897 0.37216 0.0
H1848 H 0.63464 0.06765 0.38984 0.0
H1849 H 0.67929 0.10436 0.39205 0.0
C1850 C 0.82819 0.69075 0.36208 0.0
C1851 C 0.84633 0.71022 0.3362 0.0
C1852 C 0.84457 0.67486 0.38224 0.0
C1853 C 0.88063 0.67623 0.37688 0.0
C1854 C 0.89887 0.69539 0.35035 0.0
C1855 C 0.88224 0.71222 0.33133 0.0
C1856 C 0.82244 0.65671 0.40975 0.0
C1857 C 0.93654 0.69845 0.34129 0.0
C1858 C 0.94382 0.66299 0.44062 0.0
C1859 C 0.93244 0.62462 0.44042 0.0
C1860 C 0.92747 0.67958 0.4211 0.0
C1861 C 0.89886 0.65828 0.39869 0.0
C1862 C 0.88783 0.61944 0.3979 0.0
C1863 C 0.90377 0.60361 0.41859 0.0
C1864 C 0.94121 0.72064 0.42532 0.0
C1865 C 0.8587 0.59352 0.37509 0.0
H1866 H 0.80075 0.68837 0.36726 0.0
H1867 H 0.89767 0.72672 0.31198 0.0
H1868 H 0.805 0.62786 0.40147 0.0
H1869 H 0.83978 0.65718 0.42955 0.0
H1870 H 0.80418 0.67015 0.41894 0.0
H1871 H 0.94036 0.69827 0.3152 0.0
H1872 H 0.95671 0.72491 0.35241 0.0
H1873 H 0.94239 0.67605 0.3491 0.0
H1874 H 0.96529 0.68066 0.45701 0.0
H1875 H 0.89358 0.57413 0.41734 0.0
H1876 H 0.9202 0.73015 0.41935 0.0
H1877 H 0.96496 0.73218 0.40962 0.0
H1878 H 0.9505 0.73177 0.4501 0.0
H1879 H 0.83215 0.58419 0.38749 0.0
H1880 H 0.86399 0.56889 0.36694 0.0
H1881 H 0.85657 0.60639 0.35399 0.0
C1882 C 0.32334 0.88739 0.36181 0.0
C1883 C 0.32399 0.85268 0.35959 0.0
C1884 C 0.3397 0.91374 0.38765 0.0
C1885 C 0.35948 0.90605 0.41049 0.0
C1886 C 0.36126 0.87141 0.40764 0.0
C1887 C 0.34266 0.84489 0.38281 0.0
C1888 C 0.33519 0.94937 0.39089 0.0
C1889 C 0.38373 0.86259 0.43027 0.0
C1890 C 0.43838 0.98038 0.45684 0.0
C1891 C 0.42599 0.97587 0.48803 0.0
C1892 C 0.41618 0.95937 0.431 0.0
C1893 C 0.38013 0.93445 0.43652 0.0
C1894 C 0.3663 0.93295 0.4679 0.0
C1895 C 0.38977 0.95288 0.49342 0.0
C1896 C 0.43281 0.96085 0.3983 0.0
C1897 C 0.3276 0.90821 0.47484 0.0
H1898 H 0.30972 0.89378 0.34349 0.0
H1899 H 0.34398 0.81839 0.38088 0.0
H1900 H 0.31975 0.95132 0.41285 0.0
H1901 H 0.36199 0.9729 0.39326 0.0
H1902 H 0.32047 0.95187 0.37038 0.0
H1903 H 0.38469 0.83557 0.42317 0.0
H1904 H 0.41199 0.88382 0.43144 0.0
H1905 H 0.37224 0.86246 0.4545 0.0
H1906 H 0.46671 0.99754 0.45278 0.0
H1907 H 0.38035 0.94905 0.5176 0.0
H1908 H 0.41471 0.96318 0.38055 0.0
H1909 H 0.43635 0.9351 0.39109 0.0
H1910 H 0.45977 0.98411 0.39752 0.0
H1911 H 0.30902 0.90647 0.45561 0.0
H1912 H 0.31819 0.91791 0.49768 0.0
H1913 H 0.32578 0.88029 0.47662 0.0
C1914 C 0.20001 0.31987 0.3439 0.0
C1915 C 0.23752 0.33779 0.33656 0.0
C1916 C 0.17913 0.33792 0.36168 0.0
C1917 C 0.19427 0.37663 0.37201 0.0
C1918 C 0.23203 0.39495 0.36372 0.0
C1919 C 0.25266 0.37571 0.34753 0.0
C1920 C 0.14049 0.31414 0.36968 0.0
C1921 C 0.25175 0.43569 0.37142 0.0
C1922 C 0.11938 0.41818 0.39463 0.0
C1923 C 0.12772 0.43611 0.42601 0.0
C1924 C 0.14067 0.40054 0.37706 0.0
C1925 C 0.17126 0.39742 0.39081 0.0
C1926 C 0.17916 0.41474 0.423 0.0
C1927 C 0.15856 0.43405 0.43929 0.0
C1928 C 0.12956 0.38546 0.34315 0.0
C1929 C 0.20911 0.41253 0.44158 0.0
H1930 H 0.18677 0.2908 0.33662 0.0
H1931 H 0.28119 0.39114 0.34276 0.0
H1932 H 0.12937 0.32699 0.38952 0.0
H1933 H 0.12315 0.30812 0.34836 0.0
H1934 H 0.13868 0.28754 0.37615 0.0
H1935 H 0.27072 0.44763 0.35198 0.0
H1936 H 0.233 0.44972 0.37531 0.0
H1937 H 0.26845 0.4414 0.3931 0.0
H1938 H 0.09596 0.41837 0.38311 0.0
H1939 H 0.16603 0.44642 0.46343 0.0
H1940 H 0.10582 0.3588 0.34285 0.0
H1941 H 0.15173 0.38162 0.32885 0.0
H1942 H 0.12079 0.40391 0.33157 0.0
H1943 H 0.20064 0.40839 0.46659 0.0
H1944 H 0.23326 0.43889 0.44205 0.0
H1945 H 0.21702 0.39014 0.43149 0.0
C1946 C 0.394 0.23353 0.73549 0.0
C1947 C 0.37441 0.25253 0.72592 0.0
C1948 C 0.40904 0.21537 0.71313 0.0
C1949 C 0.40478 0.21675 0.68051 0.0
C1950 C 0.38573 0.23641 0.6706 0.0
C1951 C 0.37071 0.25414 0.69349 0.0
C1952 C 0.4285 0.19377 0.72436 0.0
C1953 C 0.38049 0.23799 0.63588 0.0
C1954 C 0.4735 0.19776 0.6269 0.0
C1955 C 0.45378 0.16116 0.61514 0.0
C1956 C 0.4574 0.21647 0.64755 0.0
C1957 C 0.42092 0.19796 0.65685 0.0
C1958 C 0.40063 0.16119 0.64474 0.0
C1959 C 0.41727 0.1433 0.62369 0.0
C1960 C 0.47961 0.25583 0.65993 0.0
C1961 C 0.36145 0.1406 0.6538 0.0
H1962 H 0.39675 0.23188 0.76048 0.0
H1963 H 0.35518 0.26833 0.68585 0.0
H1964 H 0.4147 0.16465 0.71465 0.0
H1965 H 0.45684 0.204 0.71544 0.0
H1966 H 0.42924 0.19535 0.75065 0.0
H1967 H 0.36691 0.25635 0.6322 0.0
H1968 H 0.40711 0.24759 0.62359 0.0
H1969 H 0.36365 0.2102 0.62452 0.0
H1970 H 0.50166 0.21179 0.62013 0.0
H1971 H 0.40187 0.11502 0.61458 0.0
H1972 H 0.48277 0.25827 0.68605 0.0
H1973 H 0.46533 0.27314 0.65502 0.0
H1974 H 0.5071 0.26673 0.64914 0.0
H1975 H 0.35674 0.14714 0.67929 0.0
H1976 H 0.35274 0.11056 0.64879 0.0
H1977 H 0.34392 0.14858 0.63966 0.0
C1978 C 0.87131 0.32679 0.68734 0.0
C1979 C 0.84769 0.33514 0.70921 0.0
C1980 C 0.88874 0.34915 0.66279 0.0
C1981 C 0.88407 0.38199 0.66038 0.0
C1982 C 0.86108 0.39101 0.68308 0.0
C1983 C 0.84282 0.36738 0.70649 0.0
C1984 C 0.91154 0.33703 0.63891 0.0
C1985 C 0.85593 0.42603 0.68288 0.0
C1986 C 0.95352 0.45661 0.61176 0.0
C1987 C 0.93349 0.45393 0.58448 0.0
C1988 C 0.93801 0.43381 0.63648 0.0
C1989 C 0.90188 0.40617 0.6337 0.0
C1990 C 0.88221 0.40255 0.60556 0.0
C1991 C 0.89775 0.42671 0.58198 0.0
C1992 C 0.96 0.44017 0.66615 0.0
C1993 C 0.84442 0.37301 0.60024 0.0
H1994 H 0.87545 0.30208 0.68886 0.0
H1995 H 0.82514 0.37466 0.72325 0.0
H1996 H 0.90154 0.33526 0.61454 0.0
H1997 H 0.94014 0.3574 0.64024 0.0
H1998 H 0.91107 0.31006 0.64278 0.0
H1999 H 0.84023 0.43106 0.7037 0.0
H2000 H 0.88276 0.44953 0.68278 0.0
H2001 H 0.8413 0.425 0.66101 0.0
H2002 H 0.98092 0.47759 0.61441 0.0
H2003 H 0.88183 0.424 0.56114 0.0
H2004 H 0.96471 0.41548 0.66918 0.0
H2005 H 0.94469 0.44526 0.68722 0.0
H2006 H 0.98677 0.46374 0.66564 0.0
H2007 H 0.84419 0.34614 0.60405 0.0
H2008 H 0.83409 0.37111 0.57596 0.0
H2009 H 0.82538 0.37855 0.61759 0.0
C2010 C 0.18675 0.71093 0.70227 0.0
C2011 C 0.22249 0.71361 0.70507 0.0
C2012 C 0.16428 0.69055 0.67584 0.0
C2013 C 0.17793 0.67322 0.65051 0.0
C2014 C 0.21427 0.67645 0.653 0.0
C2015 C 0.23566 0.69583 0.68026 0.0
C2016 C 0.12562 0.68729 0.6752 0.0
C2017 C 0.23092 0.65997 0.62649 0.0
C2018 C 0.10987 0.59591 0.59282 0.0
C2019 C 0.10589 0.61494 0.56847 0.0
C2020 C 0.13336 0.61418 0.6192 0.0
C2021 C 0.15449 0.65256 0.62133 0.0
C2022 C 0.15208 0.67143 0.59585 0.0
C2023 C 0.12756 0.65272 0.57032 0.0
C2024 C 0.13391 0.59259 0.64574 0.0
C2025 C 0.17471 0.71185 0.59592 0.0
H2026 H 0.17595 0.72414 0.7212 0.0
H2027 H 0.26321 0.69778 0.68181 0.0
H2028 H 0.12176 0.70041 0.65494 0.0
H2029 H 0.10658 0.65806 0.67171 0.0
H2030 H 0.11822 0.70025 0.6974 0.0
H2031 H 0.25969 0.66554 0.63144 0.0
H2032 H 0.21516 0.62997 0.62262 0.0
H2033 H 0.22976 0.6711 0.60406 0.0
H2034 H 0.09283 0.56699 0.59232 0.0
H2035 H 0.1247 0.66798 0.55199 0.0
H2036 H 0.12244 0.60201 0.66749 0.0
H2037 H 0.16222 0.59728 0.65134 0.0
H2038 H 0.11791 0.56278 0.63986 0.0
H2039 H 0.16523 0.72721 0.61497 0.0
H2040 H 0.17306 0.72177 0.57295 0.0
H2041 H 0.20363 0.7182 0.60095 0.0
loop_
_geom_bond_atom_site_label_1
_geom_bond_atom_site_label_2
_geom_bond_distance
_geom_bond_site_symmetry_2
_ccdc_geom_bond_type
Tb0 C10 2.825 . S
Tb0 O11 2.347 . S
Tb0 O14 2.366 . S
Tb0 O19 2.418 . S
Tb0 O20 2.384 . S
Tb0 O23 2.479 . S
Tb0 O24 2.471 . S
Eu1 O12 2.418 . S
Eu1 O13 2.384 . S
Eu1 O16 2.479 . S
Eu1 O17 2.471 . S
Eu1 O18 2.347 . S
Eu1 O21 2.366 . S
Eu1 C31 2.825 . S
C2 O18 1.259 . S
C2 O19 1.265 . S
C3 O20 1.255 . S
C3 O21 1.265 . S
C4 C6 1.380 . S
C4 C7 1.374 . S
C4 C10 1.507 . S
C5 C6 1.384 . S
C5 C9 1.387 . S
C5 H32 0.930 . S
C6 C4 1.380 . S
C6 C5 1.384 . S
C6 H33 0.931 . S
C7 C4 1.374 . S
C7 C8 1.390 . S
C7 H34 0.930 . S
C8 C7 1.390 . S
C8 C9 1.391 . S
C8 H35 0.930 . S
C9 C5 1.387 . S
C9 C8 1.391 . S
C10 Tb0 2.825 . S
C10 C4 1.507 . S
C10 O23 1.238 . S
C10 O24 1.247 . S
O11 Tb0 2.347 . S
O11 C15 1.259 . S
O12 Eu1 2.418 . S
O12 C15 1.265 . S
O13 Eu1 2.384 . S
O13 C22 1.255 . S
O14 Tb0 2.366 . S
O14 C22 1.265 . S
C15 O11 1.259 . S
C15 O12 1.265 . S
O16 Eu1 2.479 . S
O16 C31 1.238 . S
O17 Eu1 2.471 . S
O17 C31 1.247 . S
O18 Eu1 2.347 . S
O18 C2 1.259 . S
O19 Tb0 2.418 . S
O19 C2 1.265 . S
O20 Tb0 2.384 . S
O20 C3 1.255 . S
O21 Eu1 2.366 . S
O21 C3 1.265 . S
C22 O13 1.255 . S
C22 O14 1.265 . S
O23 Tb0 2.479 . S
O23 C10 1.238 . S
O24 Tb0 2.471 . S
O24 C10 1.247 . S
C25 C28 1.380 . S
C25 C29 1.374 . S
C25 C31 1.507 . S
C26 C27 1.387 . S
C26 C30 1.391 . S
C27 C26 1.387 . S
C27 C28 1.384 . S
C27 H36 0.930 . S
C28 C25 1.380 . S
C28 C27 1.384 . S
C28 H37 0.931 . S
C29 C25 1.374 . S
C29 C30 1.390 . S
C29 H38 0.930 . S
C30 C26 1.391 . S
C30 C29 1.390 . S
C30 H39 0.930 . S
C31 Eu1 2.825 . S
C31 O16 1.238 . S
C31 O17 1.247 . S
C31 C25 1.507 . S
H32 C5 0.930 . S
H33 C6 0.931 . S
H34 C7 0.930 . S
H35 C8 0.930 . S
H36 C27 0.930 . S
H37 C28 0.931 . S
H38 C29 0.930 . S
H39 C30 0.930 . S
Tb40 C50 2.825 . S
Tb40 O51 2.347 . S
Tb40 O54 2.366 . S
Tb40 O59 2.418 . S
Tb40 O60 2.384 . S
Tb40 O63 2.479 . S
Tb40 O64 2.471 . S
Eu41 O52 2.418 . S
Eu41 O53 2.384 . S
Eu41 O56 2.479 . S
Eu41 O57 2.471 . S
Eu41 O58 2.347 . S
Eu41 O61 2.366 . S
Eu41 C71 2.825 . S
C42 O58 1.259 . S
C42 O59 1.265 . S
C43 O60 1.255 . S
C43 O61 1.265 . S
C44 C46 1.380 . S
C44 C47 1.374 . S
C44 C50 1.507 . S
C45 C46 1.384 . S
C45 C49 1.387 . S
C45 H72 0.930 . S
C46 C44 1.380 . S
C46 C45 1.384 . S
C46 H73 0.931 . S
C47 C44 1.374 . S
C47 C48 1.390 . S
C47 H74 0.930 . S
C48 C47 1.390 . S
C48 C49 1.391 . S
C48 H75 0.930 . S
C49 C45 1.387 . S
C49 C48 1.391 . S
C50 Tb40 2.825 . S
C50 C44 1.507 . S
C50 O63 1.238 . S
C50 O64 1.247 . S
O51 Tb40 2.347 . S
O51 C55 1.259 . S
O52 Eu41 2.418 . S
O52 C55 1.265 . S
O53 Eu41 2.384 . S
O53 C62 1.255 . S
O54 Tb40 2.366 . S
O54 C62 1.265 . S
C55 O51 1.259 . S
C55 O52 1.265 . S
O56 Eu41 2.479 . S
O56 C71 1.238 . S
O57 Eu41 2.471 . S
O57 C71 1.247 . S
O58 Eu41 2.347 . S
O58 C42 1.259 . S
O59 Tb40 2.418 . S
O59 C42 1.265 . S
O60 Tb40 2.384 . S
O60 C43 1.255 . S
O61 Eu41 2.366 . S
O61 C43 1.265 . S
C62 O53 1.255 . S
C62 O54 1.265 . S
O63 Tb40 2.479 . S
O63 C50 1.238 . S
O64 Tb40 2.471 . S
O64 C50 1.247 . S
C65 C68 1.380 . S
C65 C69 1.374 . S
C65 C71 1.507 . S
C66 C67 1.387 . S
C66 C70 1.391 . S
C67 C66 1.387 . S
C67 C68 1.384 . S
C67 H76 0.930 . S
C68 C65 1.380 . S
C68 C67 1.384 . S
C68 H77 0.931 . S
C69 C65 1.374 . S
C69 C70 1.390 . S
C69 H78 0.930 . S
C70 C66 1.391 . S
C70 C69 1.390 . S
C70 H79 0.930 . S
C71 Eu41 2.825 . S
C71 O56 1.238 . S
C71 O57 1.247 . S
C71 C65 1.507 . S
H72 C45 0.930 . S
H73 C46 0.931 . S
H74 C47 0.930 . S
H75 C48 0.930 . S
H76 C67 0.930 . S
H77 C68 0.931 . S
H78 C69 0.930 . S
H79 C70 0.930 . S
Tb80 C90 2.825 . S
Tb80 O91 2.347 . S
Tb80 O94 2.366 . S
Tb80 O99 2.418 . S
Tb80 O100 2.384 . S
Tb80 O103 2.479 . S
Tb80 O104 2.471 . S
Eu81 O92 2.418 . S
Eu81 O93 2.384 . S
Eu81 O96 2.479 . S
Eu81 O97 2.471 . S
Eu81 O98 2.347 . S
Eu81 O101 2.366 . S
Eu81 C111 2.825 . S
C82 O98 1.259 . S
C82 O99 1.265 . S
C83 O100 1.255 . S
C83 O101 1.265 . S
C84 C86 1.380 . S
C84 C87 1.374 . S
C84 C90 1.507 . S
C85 C86 1.384 . S
C85 C89 1.387 . S
C85 H112 0.930 . S
C86 C84 1.380 . S
C86 C85 1.384 . S
C86 H113 0.931 . S
C87 C84 1.374 . S
C87 C88 1.390 . S
C87 H114 0.930 . S
C88 C87 1.390 . S
C88 C89 1.391 . S
C88 H115 0.930 . S
C89 C85 1.387 . S
C89 C88 1.391 . S
C90 Tb80 2.825 . S
C90 C84 1.507 . S
C90 O103 1.238 . S
C90 O104 1.247 . S
O91 Tb80 2.347 . S
O91 C95 1.259 . S
O92 Eu81 2.418 . S
O92 C95 1.265 . S
O93 Eu81 2.384 . S
O93 C102 1.255 . S
O94 Tb80 2.366 . S
O94 C102 1.265 . S
C95 O91 1.259 . S
C95 O92 1.265 . S
O96 Eu81 2.479 . S
O96 C111 1.238 . S
O97 Eu81 2.471 . S
O97 C111 1.247 . S
O98 Eu81 2.347 . S
O98 C82 1.259 . S
O99 Tb80 2.418 . S
O99 C82 1.265 . S
O100 Tb80 2.384 . S
O100 C83 1.255 . S
O101 Eu81 2.366 . S
O101 C83 1.265 . S
C102 O93 1.255 . S
C102 O94 1.265 . S
O103 Tb80 2.479 . S
O103 C90 1.238 . S
O104 Tb80 2.471 . S
O104 C90 1.247 . S
C105 C108 1.380 . S
C105 C109 1.374 . S
C105 C111 1.507 . S
C106 C107 1.387 . S
C106 C110 1.391 . S
C107 C106 1.387 . S
C107 C108 1.384 . S
C107 H116 0.930 . S
C108 C105 1.380 . S
C108 C107 1.384 . S
C108 H117 0.931 . S
C109 C105 1.374 . S
C109 C110 1.390 . S
C109 H118 0.930 . S
C110 C106 1.391 . S
C110 C109 1.390 . S
C110 H119 0.930 . S
C111 Eu81 2.825 . S
C111 O96 1.238 . S
C111 O97 1.247 . S
C111 C105 1.507 . S
H112 C85 0.930 . S
H113 C86 0.931 . S
H114 C87 0.930 . S
H115 C88 0.930 . S
H116 C107 0.930 . S
H117 C108 0.931 . S
H118 C109 0.930 . S
H119 C110 0.930 . S
Tb120 C130 2.825 . S
Tb120 O131 2.347 . S
Tb120 O134 2.366 . S
Tb120 O139 2.418 . S
Tb120 O140 2.384 . S
Tb120 O143 2.479 . S
Tb120 O144 2.471 . S
Eu121 O132 2.418 . S
Eu121 O133 2.384 . S
Eu121 O136 2.479 . S
Eu121 O137 2.471 . S
Eu121 O138 2.347 . S
Eu121 O141 2.366 . S
Eu121 C151 2.825 . S
C122 O138 1.259 . S
C122 O139 1.265 . S
C123 O140 1.255 . S
C123 O141 1.265 . S
C124 C126 1.380 . S
C124 C127 1.374 . S
C124 C130 1.507 . S
C125 C126 1.384 . S
C125 C129 1.387 . S
C125 H152 0.930 . S
C126 C124 1.380 . S
C126 C125 1.384 . S
C126 H153 0.931 . S
C127 C124 1.374 . S
C127 C128 1.390 . S
C127 H154 0.930 . S
C128 C127 1.390 . S
C128 C129 1.391 . S
C128 H155 0.930 . S
C129 C125 1.387 . S
C129 C128 1.391 . S
C130 Tb120 2.825 . S
C130 C124 1.507 . S
C130 O143 1.238 . S
C130 O144 1.247 . S
O131 Tb120 2.347 . S
O131 C135 1.259 . S
O132 Eu121 2.418 . S
O132 C135 1.265 . S
O133 Eu121 2.384 . S
O133 C142 1.255 . S
O134 Tb120 2.366 . S
O134 C142 1.265 . S
C135 O131 1.259 . S
C135 O132 1.265 . S
O136 Eu121 2.479 . S
O136 C151 1.238 . S
O137 Eu121 2.471 . S
O137 C151 1.247 . S
O138 Eu121 2.347 . S
O138 C122 1.259 . S
O139 Tb120 2.418 . S
O139 C122 1.265 . S
O140 Tb120 2.384 . S
O140 C123 1.255 . S
O141 Eu121 2.366 . S
O141 C123 1.265 . S
C142 O133 1.255 . S
C142 O134 1.265 . S
O143 Tb120 2.479 . S
O143 C130 1.238 . S
O144 Tb120 2.471 . S
O144 C130 1.247 . S
C145 C148 1.380 . S
C145 C149 1.374 . S
C145 C151 1.507 . S
C146 C147 1.387 . S
C146 C150 1.391 . S
C147 C146 1.387 . S
C147 C148 1.384 . S
C147 H156 0.930 . S
C148 C145 1.380 . S
C148 C147 1.384 . S
C148 H157 0.931 . S
C149 C145 1.374 . S
C149 C150 1.390 . S
C149 H158 0.930 . S
C150 C146 1.391 . S
C150 C149 1.390 . S
C150 H159 0.930 . S
C151 Eu121 2.825 . S
C151 O136 1.238 . S
C151 O137 1.247 . S
C151 C145 1.507 . S
H152 C125 0.930 . S
H153 C126 0.931 . S
H154 C127 0.930 . S
H155 C128 0.930 . S
H156 C147 0.930 . S
H157 C148 0.931 . S
H158 C149 0.930 . S
H159 C150 0.930 . S
Tb160 C170 2.825 . S
Tb160 O171 2.347 . S
Tb160 O174 2.366 . S
Tb160 O179 2.418 . S
Tb160 O180 2.384 . S
Tb160 O183 2.479 . S
Tb160 O184 2.471 . S
Eu161 O172 2.418 . S
Eu161 O173 2.384 . S
Eu161 O176 2.479 . S
Eu161 O177 2.471 . S
Eu161 O178 2.347 . S
Eu161 O181 2.366 . S
Eu161 C191 2.825 . S
C162 O178 1.259 . S
C162 O179 1.265 . S
C163 O180 1.255 . S
C163 O181 1.265 . S
C164 C166 1.380 . S
C164 C167 1.374 . S
C164 C170 1.507 . S
C165 C166 1.384 . S
C165 C169 1.387 . S
C165 H192 0.930 . S
C166 C164 1.380 . S
C166 C165 1.384 . S
C166 H193 0.931 . S
C167 C164 1.374 . S
C167 C168 1.390 . S
C167 H194 0.930 . S
C168 C167 1.390 . S
C168 C169 1.391 . S
C168 H195 0.930 . S
C169 C165 1.387 . S
C169 C168 1.391 . S
C170 Tb160 2.825 . S
C170 C164 1.507 . S
C170 O183 1.238 . S
C170 O184 1.247 . S
O171 Tb160 2.347 . S
O171 C175 1.259 . S
O172 Eu161 2.418 . S
O172 C175 1.265 . S
O173 Eu161 2.384 . S
O173 C182 1.255 . S
O174 Tb160 2.366 . S
O174 C182 1.265 . S
C175 O171 1.259 . S
C175 O172 1.265 . S
O176 Eu161 2.479 . S
O176 C191 1.238 . S
O177 Eu161 2.471 . S
O177 C191 1.247 . S
O178 Eu161 2.347 . S
O178 C162 1.259 . S
O179 Tb160 2.418 . S
O179 C162 1.265 . S
O180 Tb160 2.384 . S
O180 C163 1.255 . S
O181 Eu161 2.366 . S
O181 C163 1.265 . S
C182 O173 1.255 . S
C182 O174 1.265 . S
O183 Tb160 2.479 . S
O183 C170 1.238 . S
O184 Tb160 2.471 . S
O184 C170 1.247 . S
C185 C188 1.380 . S
C185 C189 1.374 . S
C185 C191 1.507 . S
C186 C187 1.387 . S
C186 C190 1.391 . S
C187 C186 1.387 . S
C187 C188 1.384 . S
C187 H196 0.930 . S
C188 C185 1.380 . S
C188 C187 1.384 . S
C188 H197 0.931 . S
C189 C185 1.374 . S
C189 C190 1.390 . S
C189 H198 0.930 . S
C190 C186 1.391 . S
C190 C189 1.390 . S
C190 H199 0.930 . S
C191 Eu161 2.825 . S
C191 O176 1.238 . S
C191 O177 1.247 . S
C191 C185 1.507 . S
H192 C165 0.930 . S
H193 C166 0.931 . S
H194 C167 0.930 . S
H195 C168 0.930 . S
H196 C187 0.930 . S
H197 C188 0.931 . S
H198 C189 0.930 . S
H199 C190 0.930 . S
Tb200 C210 2.825 . S
Tb200 O211 2.347 . S
Tb200 O214 2.366 . S
Tb200 O219 2.418 . S
Tb200 O220 2.384 . S
Tb200 O223 2.479 . S
Tb200 O224 2.471 . S
Eu201 O212 2.418 . S
Eu201 O213 2.384 . S
Eu201 O216 2.479 . S
Eu201 O217 2.471 . S
Eu201 O218 2.347 . S
Eu201 O221 2.366 . S
Eu201 C231 2.825 . S
C202 O218 1.259 . S
C202 O219 1.265 . S
C203 O220 1.255 . S
C203 O221 1.265 . S
C204 C206 1.380 . S
C204 C207 1.374 . S
C204 C210 1.507 . S
C205 C206 1.384 . S
C205 C209 1.387 . S
C205 H232 0.930 . S
C206 C204 1.380 . S
C206 C205 1.384 . S
C206 H233 0.931 . S
C207 C204 1.374 . S
C207 C208 1.390 . S
C207 H234 0.930 . S
C208 C207 1.390 . S
C208 C209 1.391 . S
C208 H235 0.930 . S
C209 C205 1.387 . S
C209 C208 1.391 . S
C210 Tb200 2.825 . S
C210 C204 1.507 . S
C210 O223 1.238 . S
C210 O224 1.247 . S
O211 Tb200 2.347 . S
O211 C215 1.259 . S
O212 Eu201 2.418 . S
O212 C215 1.265 . S
O213 Eu201 2.384 . S
O213 C222 1.255 . S
O214 Tb200 2.366 . S
O214 C222 1.265 . S
C215 O211 1.259 . S
C215 O212 1.265 . S
O216 Eu201 2.479 . S
O216 C231 1.238 . S
O217 Eu201 2.471 . S
O217 C231 1.247 . S
O218 Eu201 2.347 . S
O218 C202 1.259 . S
O219 Tb200 2.418 . S
O219 C202 1.265 . S
O220 Tb200 2.384 . S
O220 C203 1.255 . S
O221 Eu201 2.366 . S
O221 C203 1.265 . S
C222 O213 1.255 . S
C222 O214 1.265 . S
O223 Tb200 2.479 . S
O223 C210 1.238 . S
O224 Tb200 2.471 . S
O224 C210 1.247 . S
C225 C228 1.380 . S
C225 C229 1.374 . S
C225 C231 1.507 . S
C226 C227 1.387 . S
C226 C230 1.391 . S
C227 C226 1.387 . S
C227 C228 1.384 . S
C227 H236 0.930 . S
C228 C225 1.380 . S
C228 C227 1.384 . S
C228 H237 0.931 . S
C229 C225 1.374 . S
C229 C230 1.390 . S
C229 H238 0.930 . S
C230 C226 1.391 . S
C230 C229 1.390 . S
C230 H239 0.930 . S
C231 Eu201 2.825 . S
C231 O216 1.238 . S
C231 O217 1.247 . S
C231 C225 1.507 . S
H232 C205 0.930 . S
H233 C206 0.931 . S
H234 C207 0.930 . S
H235 C208 0.930 . S
H236 C227 0.930 . S
H237 C228 0.931 . S
H238 C229 0.930 . S
H239 C230 0.930 . S
Tb240 C250 2.825 . S
Tb240 O251 2.347 . S
Tb240 O254 2.366 . S
Tb240 O259 2.418 . S
Tb240 O260 2.384 . S
Tb240 O263 2.479 . S
Tb240 O264 2.471 . S
Eu241 O252 2.418 . S
Eu241 O253 2.384 . S
Eu241 O256 2.479 . S
Eu241 O257 2.471 . S
Eu241 O258 2.347 . S
Eu241 O261 2.366 . S
Eu241 C271 2.825 . S
C242 O258 1.259 . S
C242 O259 1.265 . S
C243 O260 1.255 . S
C243 O261 1.265 . S
C244 C246 1.380 . S
C244 C247 1.374 . S
C244 C250 1.507 . S
C245 C246 1.384 . S
C245 C249 1.387 . S
C245 H272 0.930 . S
C246 C244 1.380 . S
C246 C245 1.384 . S
C246 H273 0.931 . S
C247 C244 1.374 . S
C247 C248 1.390 . S
C247 H274 0.930 . S
C248 C247 1.390 . S
C248 C249 1.391 . S
C248 H275 0.930 . S
C249 C245 1.387 . S
C249 C248 1.391 . S
C250 Tb240 2.825 . S
C250 C244 1.507 . S
C250 O263 1.238 . S
C250 O264 1.247 . S
O251 Tb240 2.347 . S
O251 C255 1.259 . S
O252 Eu241 2.418 . S
O252 C255 1.265 . S
O253 Eu241 2.384 . S
O253 C262 1.255 . S
O254 Tb240 2.366 . S
O254 C262 1.265 . S
C255 O251 1.259 . S
C255 O252 1.265 . S
O256 Eu241 2.479 . S
O256 C271 1.238 . S
O257 Eu241 2.471 . S
O257 C271 1.247 . S
O258 Eu241 2.347 . S
O258 C242 1.259 . S
O259 Tb240 2.418 . S
O259 C242 1.265 . S
O260 Tb240 2.384 . S
O260 C243 1.255 . S
O261 Eu241 2.366 . S
O261 C243 1.265 . S
C262 O253 1.255 . S
C262 O254 1.265 . S
O263 Tb240 2.479 . S
O263 C250 1.238 . S
O264 Tb240 2.471 . S
O264 C250 1.247 . S
C265 C268 1.380 . S
C265 C269 1.374 . S
C265 C271 1.507 . S
C266 C267 1.387 . S
C266 C270 1.391 . S
C267 C266 1.387 . S
C267 C268 1.384 . S
C267 H276 0.930 . S
C268 C265 1.380 . S
C268 C267 1.384 . S
C268 H277 0.931 . S
C269 C265 1.374 . S
C269 C270 1.390 . S
C269 H278 0.930 . S
C270 C266 1.391 . S
C270 C269 1.390 . S
C270 H279 0.930 . S
C271 Eu241 2.825 . S
C271 O256 1.238 . S
C271 O257 1.247 . S
C271 C265 1.507 . S
H272 C245 0.930 . S
H273 C246 0.931 . S
H274 C247 0.930 . S
H275 C248 0.930 . S
H276 C267 0.930 . S
H277 C268 0.931 . S
H278 C269 0.930 . S
H279 C270 0.930 . S
Tb280 C290 2.825 . S
Tb280 O291 2.347 . S
Tb280 O294 2.366 . S
Tb280 O299 2.418 . S
Tb280 O300 2.384 . S
Tb280 O303 2.479 . S
Tb280 O304 2.471 . S
Eu281 O292 2.418 . S
Eu281 O293 2.384 . S
Eu281 O296 2.479 . S
Eu281 O297 2.471 . S
Eu281 O298 2.347 . S
Eu281 O301 2.366 . S
Eu281 C311 2.825 . S
C282 O298 1.259 . S
C282 O299 1.265 . S
C283 O300 1.255 . S
C283 O301 1.265 . S
C284 C286 1.380 . S
C284 C287 1.374 . S
C284 C290 1.507 . S
C285 C286 1.384 . S
C285 C289 1.387 . S
C285 H312 0.930 . S
C286 C284 1.380 . S
C286 C285 1.384 . S
C286 H313 0.931 . S
C287 C284 1.374 . S
C287 C288 1.390 . S
C287 H314 0.930 . S
C288 C287 1.390 . S
C288 C289 1.391 . S
C288 H315 0.930 . S
C289 C285 1.387 . S
C289 C288 1.391 . S
C290 Tb280 2.825 . S
C290 C284 1.507 . S
C290 O303 1.238 . S
C290 O304 1.247 . S
O291 Tb280 2.347 . S
O291 C295 1.259 . S
O292 Eu281 2.418 . S
O292 C295 1.265 . S
O293 Eu281 2.384 . S
O293 C302 1.255 . S
O294 Tb280 2.366 . S
O294 C302 1.265 . S
C295 O291 1.259 . S
C295 O292 1.265 . S
O296 Eu281 2.479 . S
O296 C311 1.238 . S
O297 Eu281 2.471 . S
O297 C311 1.247 . S
O298 Eu281 2.347 . S
O298 C282 1.259 . S
O299 Tb280 2.418 . S
O299 C282 1.265 . S
O300 Tb280 2.384 . S
O300 C283 1.255 . S
O301 Eu281 2.366 . S
O301 C283 1.265 . S
C302 O293 1.255 . S
C302 O294 1.265 . S
O303 Tb280 2.479 . S
O303 C290 1.238 . S
O304 Tb280 2.471 . S
O304 C290 1.247 . S
C305 C308 1.380 . S
C305 C309 1.374 . S
C305 C311 1.507 . S
C306 C307 1.387 . S
C306 C310 1.391 . S
C307 C306 1.387 . S
C307 C308 1.384 . S
C307 H316 0.930 . S
C308 C305 1.380 . S
C308 C307 1.384 . S
C308 H317 0.931 . S
C309 C305 1.374 . S
C309 C310 1.390 . S
C309 H318 0.930 . S
C310 C306 1.391 . S
C310 C309 1.390 . S
C310 H319 0.930 . S
C311 Eu281 2.825 . S
C311 O296 1.238 . S
C311 O297 1.247 . S
C311 C305 1.507 . S
H312 C285 0.930 . S
H313 C286 0.931 . S
H314 C287 0.930 . S
H315 C288 0.930 . S
H316 C307 0.930 . S
H317 C308 0.931 . S
H318 C309 0.930 . S
H319 C310 0.930 . S
C320 O332 1.241 . S
C320 O333 1.280 . S
C321 O334 1.277 . S
C321 O335 1.245 . S
C322 O346 1.247 . S
C322 O348 1.289 . S
Mg323 O324 1.926 1_455 S
Mg323 O333 1.984 1_455 S
Mg323 O335 1.988 1_455 S
Mg323 O336 2.061 . S
O324 Mg323 1.926 1_655 S
O324 Mg325 1.986 . S
O324 Mg326 1.917 1_655 S
Mg325 O324 1.986 . S
Mg325 O332 2.042 . S
Mg325 O334 2.041 . S
Mg325 O340 2.038 1_545 S
Mg325 O348 2.238 1_545 S
Mg326 O324 1.917 1_455 S
Mg326 O327 1.917 1_545 S
Mg326 O337 2.106 . S
Mg326 O339 2.079 1_445 S
Mg326 O348 2.106 1_445 S
Mg326 O349 2.079 . S
O327 Mg326 1.917 1_565 S
O327 Mg328 1.926 . S
O327 Mg329 1.986 1_565 S
Mg328 O327 1.926 . S
Mg328 O342 1.984 . S
Mg328 O345 1.988 . S
Mg328 O346 2.061 1_455 S
Mg329 O327 1.986 1_545 S
Mg329 O337 2.238 . S
Mg329 O341 2.042 1_545 S
Mg329 O343 2.041 1_545 S
Mg329 O350 2.038 . S
C330 O336 1.247 . S
C330 O337 1.289 . S
C331 O349 1.245 . S
C331 O350 1.274 . S
O332 C320 1.241 . S
O332 Mg325 2.042 . S
O333 C320 1.280 . S
O333 Mg323 1.984 1_655 S
O334 C321 1.277 . S
O334 Mg325 2.041 . S
O335 C321 1.245 . S
O335 Mg323 1.988 1_655 S
O336 Mg323 2.061 . S
O336 C330 1.247 . S
O337 Mg326 2.106 . S
O337 Mg329 2.238 . S
O337 C330 1.289 . S
C338 O339 1.245 . S
C338 O340 1.274 . S
O339 Mg326 2.079 1_665 S
O339 C338 1.245 . S
O340 Mg325 2.038 1_565 S
O340 C338 1.274 . S
O341 Mg329 2.042 1_565 S
O341 C344 1.241 . S
O342 Mg328 1.984 . S
O342 C344 1.280 . S
O343 Mg329 2.041 1_565 S
O343 C347 1.277 . S
C344 O341 1.241 . S
C344 O342 1.280 . S
O345 Mg328 1.988 . S
O345 C347 1.245 . S
O346 C322 1.247 . S
O346 Mg328 2.061 1_655 S
C347 O343 1.277 . S
C347 O345 1.245 . S
O348 C322 1.289 . S
O348 Mg325 2.238 1_565 S
O348 Mg326 2.106 1_665 S
O349 Mg326 2.079 . S
O349 C331 1.245 . S
O350 Mg329 2.038 . S
O350 C331 1.274 . S
C351 O363 1.241 . S
C351 O364 1.280 . S
C352 O365 1.277 1_556 S
C352 O366 1.245 1_556 S
C353 O377 1.247 . S
C353 O379 1.289 1_556 S
Mg354 O355 1.926 . S
Mg354 O364 1.984 . S
Mg354 O366 1.988 . S
Mg354 O367 2.061 . S
O355 Mg354 1.926 . S
O355 Mg356 1.984 1_545 S
O355 Mg357 1.917 . S
Mg356 O355 1.984 1_565 S
Mg356 O363 2.032 1_565 S
Mg356 O365 2.030 1_565 S
Mg356 O371 2.050 . S
Mg356 O379 2.248 . S
Mg357 O355 1.917 . S
Mg357 O358 1.917 1_545 S
Mg357 O368 2.106 . S
Mg357 O370 2.079 1_545 S
Mg357 O379 2.106 1_545 S
Mg357 O380 2.079 . S
O358 Mg357 1.917 1_565 S
O358 Mg359 1.926 . S
O358 Mg360 1.986 1_565 S
Mg359 O358 1.926 . S
Mg359 O373 1.984 1_554 S
Mg359 O376 1.988 . S
Mg359 O377 2.061 1_554 S
Mg360 O358 1.986 1_545 S
Mg360 O368 2.238 . S
Mg360 O372 2.042 1_545 S
Mg360 O374 2.041 1_545 S
Mg360 O381 2.038 . S
C361 O367 1.247 . S
C361 O368 1.289 . S
C362 O380 1.245 1_556 S
C362 O381 1.274 1_556 S
O363 C351 1.241 . S
O363 Mg356 2.032 1_545 S
O364 C351 1.280 . S
O364 Mg354 1.984 . S
O365 C352 1.277 1_554 S
O365 Mg356 2.030 1_545 S
O366 C352 1.245 1_554 S
O366 Mg354 1.988 . S
O367 Mg354 2.061 . S
O367 C361 1.247 . S
O368 Mg357 2.106 . S
O368 Mg360 2.238 . S
O368 C361 1.289 . S
C369 O370 1.245 . S
C369 O371 1.274 . S
O370 Mg357 2.079 1_565 S
O370 C369 1.245 . S
O371 Mg356 2.050 . S
O371 C369 1.274 . S
O372 Mg360 2.042 1_565 S
O372 C375 1.241 1_554 S
O373 Mg359 1.984 1_556 S
O373 C375 1.280 . S
O374 Mg360 2.041 1_565 S
O374 C378 1.277 . S
C375 O372 1.241 1_556 S
C375 O373 1.280 . S
O376 Mg359 1.988 . S
O376 C378 1.245 . S
O377 C353 1.247 . S
O377 Mg359 2.061 1_556 S
C378 O374 1.277 . S
C378 O376 1.245 . S
O379 C353 1.289 1_554 S
O379 Mg356 2.248 . S
O379 Mg357 2.106 1_565 S
O380 Mg357 2.079 . S
O380 C362 1.245 1_554 S
O381 Mg360 2.038 . S
O381 C362 1.274 1_554 S
C382 O394 1.241 . S
C382 O395 1.280 . S
C383 O396 1.277 . S
C383 O397 1.245 1_655 S
C384 O408 1.247 . S
C384 O410 1.289 . S
Mg385 O386 1.926 . S
Mg385 O395 1.984 1_455 S
Mg385 O397 1.988 1_554 S
Mg385 O398 2.061 . S
O386 Mg385 1.926 . S
O386 Mg387 1.986 1_455 S
O386 Mg388 1.917 . S
Mg387 O386 1.986 1_655 S
Mg387 O394 2.042 . S
Mg387 O396 2.041 1_554 S
Mg387 O402 2.038 . S
Mg387 O410 2.238 1_554 S
Mg388 O386 1.917 . S
Mg388 O389 1.917 1_554 S
Mg388 O399 2.106 . S
Mg388 O401 2.079 . S
Mg388 O410 2.106 1_454 S
Mg388 O411 2.079 1_554 S
O389 Mg388 1.917 1_556 S
O389 Mg390 1.926 . S
O389 Mg391 1.980 1_556 S
Mg390 O389 1.926 . S
Mg390 O404 1.984 . S
Mg390 O407 1.988 1_556 S
Mg390 O408 2.061 1_455 S
Mg391 O389 1.980 1_554 S
Mg391 O399 2.256 . S
Mg391 O403 2.021 1_554 S
Mg391 O405 2.069 . S
Mg391 O412 2.012 1_554 S
C392 O398 1.247 . S
C392 O399 1.289 . S
C393 O411 1.245 . S
C393 O412 1.274 . S
O394 C382 1.241 . S
O394 Mg387 2.042 . S
O395 C382 1.280 . S
O395 Mg385 1.984 1_655 S
O396 C383 1.277 . S
O396 Mg387 2.041 1_556 S
O397 C383 1.245 1_455 S
O397 Mg385 1.988 1_556 S
O398 Mg385 2.061 . S
O398 C392 1.247 . S
O399 Mg388 2.106 . S
O399 Mg391 2.256 . S
O399 C392 1.289 . S
C400 O401 1.245 1_655 S
C400 O402 1.274 . S
O401 Mg388 2.079 . S
O401 C400 1.245 1_455 S
O402 Mg387 2.038 . S
O402 C400 1.274 . S
O403 Mg391 2.021 1_556 S
O403 C406 1.241 . S
O404 Mg390 1.984 . S
O404 C406 1.280 . S
O405 Mg391 2.069 . S
O405 C409 1.277 . S
C406 O403 1.241 . S
C406 O404 1.280 . S
O407 Mg390 1.988 1_554 S
O407 C409 1.245 . S
O408 C384 1.247 . S
O408 Mg390 2.061 1_655 S
C409 O405 1.277 . S
C409 O407 1.245 . S
O410 C384 1.289 . S
O410 Mg387 2.238 1_556 S
O410 Mg388 2.106 1_656 S
O411 Mg388 2.079 1_556 S
O411 C393 1.245 . S
O412 Mg391 2.012 1_556 S
O412 C393 1.274 . S
C413 O425 1.241 . S
C413 O426 1.280 . S
C414 O427 1.277 . S
C414 O428 1.259 . S
C415 O439 1.247 . S
C415 O441 1.289 . S
Mg416 O417 1.926 . S
Mg416 O426 1.984 . S
Mg416 O428 1.961 1_554 S
Mg416 O429 2.061 . S
O417 Mg416 1.926 . S
O417 Mg418 1.986 . S
O417 Mg419 1.917 . S
Mg418 O417 1.986 . S
Mg418 O425 2.042 . S
Mg418 O427 2.041 1_554 S
Mg418 O433 2.038 . S
Mg418 O441 2.238 1_554 S
Mg419 O417 1.917 . S
Mg419 O420 1.917 . S
Mg419 O430 2.106 . S
Mg419 O432 2.079 . S
Mg419 O441 2.106 1_554 S
Mg419 O442 2.079 1_554 S
O420 Mg419 1.917 . S
O420 Mg421 1.926 . S
O420 Mg422 1.986 . S
Mg421 O420 1.926 . S
Mg421 O435 1.984 1_554 S
Mg421 O438 1.988 . S
Mg421 O439 2.061 1_554 S
Mg422 O420 1.986 . S
Mg422 O430 2.238 . S
Mg422 O434 2.042 1_554 S
Mg422 O436 2.041 . S
Mg422 O443 2.038 1_554 S
C423 O429 1.247 . S
C423 O430 1.289 . S
C424 O442 1.245 . S
C424 O443 1.274 . S
O425 C413 1.241 . S
O425 Mg418 2.042 . S
O426 C413 1.280 . S
O426 Mg416 1.984 . S
O427 C414 1.277 . S
O427 Mg418 2.041 1_556 S
O428 C414 1.259 . S
O428 Mg416 1.961 1_556 S
O429 Mg416 2.061 . S
O429 C423 1.247 . S
O430 Mg419 2.106 . S
O430 Mg422 2.238 . S
O430 C423 1.289 . S
C431 O432 1.245 . S
C431 O433 1.274 . S
O432 Mg419 2.079 . S
O432 C431 1.245 . S
O433 Mg418 2.038 . S
O433 C431 1.274 . S
O434 Mg422 2.042 1_556 S
O434 C437 1.241 . S
O435 Mg421 1.984 1_556 S
O435 C437 1.280 . S
O436 Mg422 2.041 . S
O436 C440 1.277 . S
C437 O434 1.241 . S
C437 O435 1.280 . S
O438 Mg421 1.988 . S
O438 C440 1.245 . S
O439 C415 1.247 . S
O439 Mg421 2.061 1_556 S
C440 O436 1.277 . S
C440 O438 1.245 . S
O441 C415 1.289 . S
O441 Mg418 2.238 1_556 S
O441 Mg419 2.106 1_556 S
O442 Mg419 2.079 1_556 S
O442 C424 1.245 . S
O443 Mg422 2.038 1_556 S
O443 C424 1.274 . S
C444 O456 1.241 . S
C444 O457 1.280 . S
C445 O458 1.277 . S
C445 O459 1.245 . S
C446 O470 1.247 . S
C446 O472 1.289 . S
Mg447 O448 1.927 1_455 S
Mg447 O457 1.974 1_455 S
Mg447 O459 1.982 1_455 S
Mg447 O460 2.074 . S
O448 Mg447 1.927 1_655 S
O448 Mg449 1.986 . S
O448 Mg450 1.917 1_655 S
Mg449 O448 1.986 . S
Mg449 O456 2.042 . S
Mg449 O458 2.041 . S
Mg449 O464 2.038 . S
Mg449 O472 2.238 . S
Mg450 O448 1.917 1_455 S
Mg450 O451 1.917 . S
Mg450 O461 2.106 . S
Mg450 O463 2.079 1_455 S
Mg450 O472 2.106 1_455 S
Mg450 O473 2.079 . S
O451 Mg450 1.917 . S
O451 Mg452 1.926 . S
O451 Mg453 1.986 . S
Mg452 O451 1.926 . S
Mg452 O466 1.984 . S
Mg452 O469 1.988 . S
Mg452 O470 2.061 1_455 S
Mg453 O451 1.986 . S
Mg453 O461 2.238 . S
Mg453 O465 2.042 . S
Mg453 O467 2.041 . S
Mg453 O474 2.038 . S
C454 O460 1.247 . S
C454 O461 1.289 . S
C455 O473 1.245 . S
C455 O474 1.274 . S
O456 C444 1.241 . S
O456 Mg449 2.042 . S
O457 C444 1.280 . S
O457 Mg447 1.974 1_655 S
O458 C445 1.277 . S
O458 Mg449 2.041 . S
O459 C445 1.245 . S
O459 Mg447 1.982 1_655 S
O460 Mg447 2.074 . S
O460 C454 1.247 . S
O461 Mg450 2.106 . S
O461 Mg453 2.238 . S
O461 C454 1.289 . S
C462 O463 1.245 . S
C462 O464 1.274 . S
O463 Mg450 2.079 1_655 S
O463 C462 1.245 . S
O464 Mg449 2.038 . S
O464 C462 1.274 . S
O465 Mg453 2.042 . S
O465 C468 1.241 . S
O466 Mg452 1.984 . S
O466 C468 1.280 . S
O467 Mg453 2.041 . S
O467 C471 1.277 . S
C468 O465 1.241 . S
C468 O466 1.280 . S
O469 Mg452 1.988 . S
O469 C471 1.245 . S
O470 C446 1.247 . S
O470 Mg452 2.061 1_655 S
C471 O467 1.277 . S
C471 O469 1.245 . S
O472 C446 1.289 . S
O472 Mg449 2.238 . S
O472 Mg450 2.106 1_655 S
O473 Mg450 2.079 . S
O473 C455 1.245 . S
O474 Mg453 2.038 . S
O474 C455 1.274 . S
C475 O487 1.241 . S
C475 O488 1.280 . S
C476 O489 1.277 . S
C476 O490 1.245 . S
C477 O501 1.247 . S
C477 O503 1.289 1_565 S
Mg478 O479 1.926 . S
Mg478 O488 1.984 . S
Mg478 O490 1.988 . S
Mg478 O491 2.061 . S
O479 Mg478 1.926 . S
O479 Mg480 1.986 . S
O479 Mg481 1.917 . S
Mg480 O479 1.986 . S
Mg480 O487 2.042 . S
Mg480 O489 2.041 . S
Mg480 O495 2.038 1_545 S
Mg480 O503 2.238 . S
Mg481 O479 1.917 . S
Mg481 O482 1.917 . S
Mg481 O492 2.106 . S
Mg481 O494 2.098 . S
Mg481 O503 2.106 . S
Mg481 O504 2.079 . S
O482 Mg481 1.917 . S
O482 Mg483 1.926 1_545 S
O482 Mg484 1.986 . S
Mg483 O482 1.926 1_565 S
Mg483 O497 1.984 . S
Mg483 O500 1.988 . S
Mg483 O501 2.061 . S
Mg484 O482 1.986 . S
Mg484 O492 2.238 . S
Mg484 O496 2.042 . S
Mg484 O498 2.041 . S
Mg484 O505 2.038 . S
C485 O491 1.247 . S
C485 O492 1.289 . S
C486 O504 1.245 . S
C486 O505 1.274 . S
O487 C475 1.241 . S
O487 Mg480 2.042 . S
O488 C475 1.280 . S
O488 Mg478 1.984 . S
O489 C476 1.277 . S
O489 Mg480 2.041 . S
O490 C476 1.245 . S
O490 Mg478 1.988 . S
O491 Mg478 2.061 . S
O491 C485 1.247 . S
O492 Mg481 2.106 . S
O492 Mg484 2.238 . S
O492 C485 1.289 . S
C493 O494 1.249 1_565 S
C493 O495 1.274 . S
O494 Mg481 2.098 . S
O494 C493 1.249 1_545 S
O495 Mg480 2.038 1_565 S
O495 C493 1.274 . S
O496 Mg484 2.042 . S
O496 C499 1.241 1_545 S
O497 Mg483 1.984 . S
O497 C499 1.280 . S
O498 Mg484 2.041 . S
O498 C502 1.277 1_545 S
C499 O496 1.241 1_565 S
C499 O497 1.280 . S
O500 Mg483 1.988 . S
O500 C502 1.245 . S
O501 C477 1.247 . S
O501 Mg483 2.061 . S
C502 O498 1.277 1_565 S
C502 O500 1.245 . S
O503 C477 1.289 1_545 S
O503 Mg480 2.238 . S
O503 Mg481 2.106 . S
O504 Mg481 2.079 . S
O504 C486 1.245 . S
O505 Mg484 2.038 . S
O505 C486 1.274 . S
C506 C507 1.391 . S
C506 C508 1.394 . S
C506 H522 0.931 . S
C507 C506 1.391 . S
C507 C511 1.376 . S
C508 C506 1.394 . S
C508 C509 1.369 . S
C508 C512 1.531 . S
C509 C508 1.369 . S
C509 C510 1.410 . S
C509 C517 1.503 . S
C510 C509 1.410 . S
C510 C511 1.392 . S
C510 C513 1.511 . S
C511 C507 1.376 . S
C511 C510 1.392 . S
C511 H523 0.929 . S
C512 C508 1.531 . S
C512 H524 0.960 . S
C512 H525 0.962 . S
C512 H526 0.960 . S
C513 C510 1.511 . S
C513 H527 0.961 . S
C513 H528 0.961 . S
C513 H529 0.961 . S
C514 C515 1.370 . S
C514 C516 1.363 . S
C514 H530 0.931 . S
C515 C514 1.370 . S
C515 C519 1.408 . S
C516 C514 1.363 . S
C516 C517 1.370 . S
C516 C520 1.524 . S
C517 C509 1.503 . S
C517 C516 1.370 . S
C517 C518 1.403 . S
C518 C517 1.403 . S
C518 C519 1.404 . S
C518 C521 1.539 . S
C519 C515 1.408 . S
C519 C518 1.404 . S
C519 H531 0.930 . S
C520 C516 1.524 . S
C520 H532 0.956 . S
C520 H533 0.961 . S
C520 H534 0.961 . S
C521 C518 1.539 . S
C521 H535 0.958 . S
C521 H536 0.961 . S
C521 H537 0.960 . S
H522 C506 0.931 . S
H523 C511 0.929 . S
H524 C512 0.960 . S
H525 C512 0.962 . S
H526 C512 0.960 . S
H527 C513 0.961 . S
H528 C513 0.961 . S
H529 C513 0.961 . S
H530 C514 0.931 . S
H531 C519 0.930 . S
H532 C520 0.956 . S
H533 C520 0.961 . S
H534 C520 0.961 . S
H535 C521 0.958 . S
H536 C521 0.961 . S
H537 C521 0.960 . S
C538 C539 1.391 . S
C538 C540 1.394 . S
C538 H554 0.931 . S
C539 C538 1.391 . S
C539 C543 1.376 . S
C540 C538 1.394 . S
C540 C541 1.369 . S
C540 C544 1.531 . S
C541 C540 1.369 . S
C541 C542 1.410 . S
C541 C549 1.503 . S
C542 C541 1.410 . S
C542 C543 1.392 . S
C542 C545 1.511 . S
C543 C539 1.376 . S
C543 C542 1.392 . S
C543 H555 0.929 . S
C544 C540 1.531 . S
C544 H556 0.960 . S
C544 H557 0.962 . S
C544 H558 0.960 . S
C545 C542 1.511 . S
C545 H559 0.961 . S
C545 H560 0.961 . S
C545 H561 0.961 . S
C546 C547 1.370 . S
C546 C548 1.363 . S
C546 H562 0.931 . S
C547 C546 1.370 . S
C547 C551 1.408 . S
C548 C546 1.363 . S
C548 C549 1.370 . S
C548 C552 1.524 . S
C549 C541 1.503 . S
C549 C548 1.370 . S
C549 C550 1.403 . S
C550 C549 1.403 . S
C550 C551 1.404 . S
C550 C553 1.539 . S
C551 C547 1.408 . S
C551 C550 1.404 . S
C551 H563 0.930 . S
C552 C548 1.524 . S
C552 H564 0.956 . S
C552 H565 0.961 . S
C552 H566 0.961 . S
C553 C550 1.539 . S
C553 H567 0.958 . S
C553 H568 0.961 . S
C553 H569 0.960 . S
H554 C538 0.931 . S
H555 C543 0.929 . S
H556 C544 0.960 . S
H557 C544 0.962 . S
H558 C544 0.960 . S
H559 C545 0.961 . S
H560 C545 0.961 . S
H561 C545 0.961 . S
H562 C546 0.931 . S
H563 C551 0.930 . S
H564 C552 0.956 . S
H565 C552 0.961 . S
H566 C552 0.961 . S
H567 C553 0.958 . S
H568 C553 0.961 . S
H569 C553 0.960 . S
C570 C571 1.391 . S
C570 C572 1.394 . S
C570 H586 0.931 . S
C571 C570 1.391 . S
C571 C575 1.376 . S
C572 C570 1.394 . S
C572 C573 1.369 . S
C572 C576 1.531 . S
C573 C572 1.369 . S
C573 C574 1.410 . S
C573 C581 1.503 . S
C574 C573 1.410 . S
C574 C575 1.392 . S
C574 C577 1.511 . S
C575 C571 1.376 . S
C575 C574 1.392 . S
C575 H587 0.929 . S
C576 C572 1.531 . S
C576 H588 0.960 . S
C576 H589 0.962 . S
C576 H590 0.960 . S
C577 C574 1.511 . S
C577 H591 0.961 . S
C577 H592 0.961 . S
C577 H593 0.961 . S
C578 C579 1.370 . S
C578 C580 1.363 . S
C578 H594 0.931 . S
C579 C578 1.370 . S
C579 C583 1.408 . S
C580 C578 1.363 . S
C580 C581 1.370 . S
C580 C584 1.524 . S
C581 C573 1.503 . S
C581 C580 1.370 . S
C581 C582 1.403 . S
C582 C581 1.403 . S
C582 C583 1.404 . S
C582 C585 1.539 . S
C583 C579 1.408 . S
C583 C582 1.404 . S
C583 H595 0.930 . S
C584 C580 1.524 . S
C584 H596 0.956 . S
C584 H597 0.961 . S
C584 H598 0.961 . S
C585 C582 1.539 . S
C585 H599 0.958 . S
C585 H600 0.961 . S
C585 H601 0.960 . S
H586 C570 0.931 . S
H587 C575 0.929 . S
H588 C576 0.960 . S
H589 C576 0.962 . S
H590 C576 0.960 . S
H591 C577 0.961 . S
H592 C577 0.961 . S
H593 C577 0.961 . S
H594 C578 0.931 . S
H595 C583 0.930 . S
H596 C584 0.956 . S
H597 C584 0.961 . S
H598 C584 0.961 . S
H599 C585 0.958 . S
H600 C585 0.961 . S
H601 C585 0.960 . S
C602 C603 1.391 . S
C602 C604 1.394 . S
C602 H618 0.931 . S
C603 C602 1.391 . S
C603 C607 1.376 . S
C604 C602 1.394 . S
C604 C605 1.369 . S
C604 C608 1.531 . S
C605 C604 1.369 . S
C605 C606 1.410 . S
C605 C613 1.503 . S
C606 C605 1.410 . S
C606 C607 1.392 . S
C606 C609 1.511 . S
C607 C603 1.376 . S
C607 C606 1.392 . S
C607 H619 0.929 . S
C608 C604 1.531 . S
C608 H620 0.960 . S
C608 H621 0.962 . S
C608 H622 0.960 . S
C609 C606 1.511 . S
C609 H623 0.961 . S
C609 H624 0.961 . S
C609 H625 0.961 . S
C610 C611 1.370 . S
C610 C612 1.363 . S
C610 H626 0.931 . S
C611 C610 1.370 . S
C611 C615 1.408 . S
C612 C610 1.363 . S
C612 C613 1.370 . S
C612 C616 1.524 . S
C613 C605 1.503 . S
C613 C612 1.370 . S
C613 C614 1.403 . S
C614 C613 1.403 . S
C614 C615 1.404 . S
C614 C617 1.539 . S
C615 C611 1.408 . S
C615 C614 1.404 . S
C615 H627 0.930 1_565 S
C616 C612 1.524 . S
C616 H628 0.956 . S
C616 H629 0.961 . S
C616 H630 0.961 . S
C617 C614 1.539 . S
C617 H631 0.958 . S
C617 H632 0.961 . S
C617 H633 0.960 . S
H618 C602 0.931 . S
H619 C607 0.929 . S
H620 C608 0.960 . S
H621 C608 0.962 . S
H622 C608 0.960 . S
H623 C609 0.961 . S
H624 C609 0.961 . S
H625 C609 0.961 . S
H626 C610 0.931 . S
H627 C615 0.930 1_545 S
H628 C616 0.956 . S
H629 C616 0.961 . S
H630 C616 0.961 . S
H631 C617 0.958 . S
H632 C617 0.961 . S
H633 C617 0.960 . S
C634 C635 1.391 . S
C634 C636 1.394 . S
C634 H650 0.931 . S
C635 C634 1.391 . S
C635 C639 1.376 . S
C636 C634 1.394 . S
C636 C637 1.369 . S
C636 C640 1.531 . S
C637 C636 1.369 . S
C637 C638 1.410 . S
C637 C645 1.503 . S
C638 C637 1.410 . S
C638 C639 1.392 . S
C638 C641 1.511 . S
C639 C635 1.376 . S
C639 C638 1.392 . S
C639 H651 0.929 . S
C640 C636 1.531 . S
C640 H652 0.960 . S
C640 H653 0.962 . S
C640 H654 0.960 . S
C641 C638 1.511 . S
C641 H655 0.961 . S
C641 H656 0.961 . S
C641 H657 0.961 . S
C642 C643 1.370 . S
C642 C644 1.363 . S
C642 H658 0.931 . S
C643 C642 1.370 . S
C643 C647 1.408 . S
C644 C642 1.363 . S
C644 C645 1.370 . S
C644 C648 1.524 . S
C645 C637 1.503 . S
C645 C644 1.370 . S
C645 C646 1.403 . S
C646 C645 1.403 . S
C646 C647 1.404 . S
C646 C649 1.539 1_565 S
C647 C643 1.408 . S
C647 C646 1.404 . S
C647 H659 0.930 1_565 S
C648 C644 1.524 . S
C648 H660 0.956 . S
C648 H661 0.961 . S
C648 H662 0.961 . S
C649 C646 1.539 1_545 S
C649 H663 0.958 . S
C649 H664 0.961 . S
C649 H665 0.960 1_545 S
H650 C634 0.931 . S
H651 C639 0.929 . S
H652 C640 0.960 . S
H653 C640 0.962 . S
H654 C640 0.960 . S
H655 C641 0.961 . S
H656 C641 0.961 . S
H657 C641 0.961 . S
H658 C642 0.931 . S
H659 C647 0.930 1_545 S
H660 C648 0.956 . S
H661 C648 0.961 . S
H662 C648 0.961 . S
H663 C649 0.958 . S
H664 C649 0.961 . S
H665 C649 0.960 1_565 S
C666 C667 1.391 . S
C666 C668 1.394 . S
C666 H682 0.931 . S
C667 C666 1.391 . S
C667 C671 1.376 . S
C668 C666 1.394 . S
C668 C669 1.369 . S
C668 C672 1.531 . S
C669 C668 1.369 . S
C669 C670 1.410 . S
C669 C677 1.503 . S
C670 C669 1.410 . S
C670 C671 1.392 . S
C670 C673 1.511 . S
C671 C667 1.376 . S
C671 C670 1.392 . S
C671 H683 0.929 . S
C672 C668 1.531 . S
C672 H684 0.960 . S
C672 H685 0.962 . S
C672 H686 0.960 . S
C673 C670 1.511 . S
C673 H687 0.961 . S
C673 H688 0.961 . S
C673 H689 0.961 . S
C674 C675 1.370 . S
C674 C676 1.363 . S
C674 H690 0.931 . S
C675 C674 1.370 . S
C675 C679 1.408 . S
C676 C674 1.363 . S
C676 C677 1.370 . S
C676 C680 1.524 . S
C677 C669 1.503 . S
C677 C676 1.370 . S
C677 C678 1.403 . S
C678 C677 1.403 . S
C678 C679 1.404 . S
C678 C681 1.539 . S
C679 C675 1.408 . S
C679 C678 1.404 . S
C679 H691 0.930 . S
C680 C676 1.524 . S
C680 H692 0.956 . S
C680 H693 0.961 . S
C680 H694 0.961 . S
C681 C678 1.539 . S
C681 H695 0.958 . S
C681 H696 0.961 . S
C681 H697 0.960 . S
H682 C666 0.931 . S
H683 C671 0.929 . S
H684 C672 0.960 . S
H685 C672 0.962 . S
H686 C672 0.960 . S
H687 C673 0.961 . S
H688 C673 0.961 . S
H689 C673 0.961 . S
H690 C674 0.931 . S
H691 C679 0.930 . S
H692 C680 0.956 . S
H693 C680 0.961 . S
H694 C680 0.961 . S
H695 C681 0.958 . S
H696 C681 0.961 . S
H697 C681 0.960 . S
C698 C699 1.391 . S
C698 C700 1.394 . S
C698 H714 0.931 . S
C699 C698 1.391 . S
C699 C703 1.376 . S
C700 C698 1.394 . S
C700 C701 1.369 . S
C700 C704 1.531 . S
C701 C700 1.369 . S
C701 C702 1.410 . S
C701 C709 1.503 . S
C702 C701 1.410 . S
C702 C703 1.392 . S
C702 C705 1.511 . S
C703 C699 1.376 . S
C703 C702 1.392 . S
C703 H715 0.929 . S
C704 C700 1.531 . S
C704 H716 0.960 . S
C704 H717 0.962 . S
C704 H718 0.960 . S
C705 C702 1.511 . S
C705 H719 0.961 . S
C705 H720 0.961 . S
C705 H721 0.961 . S
C706 C707 1.370 . S
C706 C708 1.363 . S
C706 H722 0.931 . S
C707 C706 1.370 . S
C707 C711 1.408 . S
C708 C706 1.363 . S
C708 C709 1.370 . S
C708 C712 1.524 . S
C709 C701 1.503 . S
C709 C708 1.370 . S
C709 C710 1.403 . S
C710 C709 1.403 . S
C710 C711 1.404 . S
C710 C713 1.539 . S
C711 C707 1.408 . S
C711 C710 1.404 . S
C711 H723 0.930 . S
C712 C708 1.524 . S
C712 H724 0.956 . S
C712 H725 0.961 . S
C712 H726 0.961 . S
C713 C710 1.539 . S
C713 H727 0.958 . S
C713 H728 0.961 . S
C713 H729 0.960 . S
H714 C698 0.931 . S
H715 C703 0.929 . S
H716 C704 0.960 . S
H717 C704 0.962 . S
H718 C704 0.960 . S
H719 C705 0.961 . S
H720 C705 0.961 . S
H721 C705 0.961 . S
H722 C706 0.931 . S
H723 C711 0.930 . S
H724 C712 0.956 . S
H725 C712 0.961 . S
H726 C712 0.961 . S
H727 C713 0.958 . S
H728 C713 0.961 . S
H729 C713 0.960 . S
C730 C731 1.391 . S
C730 C732 1.394 . S
C730 H746 0.931 . S
C731 C730 1.391 . S
C731 C735 1.376 . S
C732 C730 1.394 . S
C732 C733 1.369 . S
C732 C736 1.531 . S
C733 C732 1.369 . S
C733 C734 1.410 . S
C733 C741 1.503 . S
C734 C733 1.410 . S
C734 C735 1.392 . S
C734 C737 1.511 . S
C735 C731 1.376 . S
C735 C734 1.392 . S
C735 H747 0.929 . S
C736 C732 1.531 . S
C736 H748 0.960 . S
C736 H749 0.962 . S
C736 H750 0.960 . S
C737 C734 1.511 . S
C737 H751 0.961 . S
C737 H752 0.961 . S
C737 H753 0.961 . S
C738 C739 1.370 . S
C738 C740 1.363 . S
C738 H754 0.931 . S
C739 C738 1.370 . S
C739 C743 1.408 . S
C740 C738 1.363 . S
C740 C741 1.370 . S
C740 C744 1.524 . S
C741 C733 1.503 . S
C741 C740 1.370 . S
C741 C742 1.403 . S
C742 C741 1.403 . S
C742 C743 1.404 . S
C742 C745 1.539 . S
C743 C739 1.408 . S
C743 C742 1.404 . S
C743 H755 0.930 . S
C744 C740 1.524 . S
C744 H756 0.956 . S
C744 H757 0.961 . S
C744 H758 0.961 . S
C745 C742 1.539 . S
C745 H759 0.958 . S
C745 H760 0.961 . S
C745 H761 0.960 . S
H746 C730 0.931 . S
H747 C735 0.929 . S
H748 C736 0.960 . S
H749 C736 0.962 . S
H750 C736 0.960 . S
H751 C737 0.961 . S
H752 C737 0.961 . S
H753 C737 0.961 . S
H754 C738 0.931 . S
H755 C743 0.930 . S
H756 C744 0.956 . S
H757 C744 0.961 . S
H758 C744 0.961 . S
H759 C745 0.958 . S
H760 C745 0.961 . S
H761 C745 0.960 . S
C762 C763 1.391 . S
C762 C764 1.394 . S
C762 H778 0.931 . S
C763 C762 1.391 . S
C763 C767 1.376 . S
C764 C762 1.394 . S
C764 C765 1.369 . S
C764 C768 1.531 . S
C765 C764 1.369 . S
C765 C766 1.410 . S
C765 C773 1.503 . S
C766 C765 1.410 . S
C766 C767 1.392 . S
C766 C769 1.511 . S
C767 C763 1.376 . S
C767 C766 1.392 . S
C767 H779 0.929 . S
C768 C764 1.531 . S
C768 H780 0.960 . S
C768 H781 0.962 . S
C768 H782 0.960 . S
C769 C766 1.511 . S
C769 H783 0.961 . S
C769 H784 0.961 . S
C769 H785 0.961 . S
C770 C771 1.370 . S
C770 C772 1.363 . S
C770 H786 0.931 . S
C771 C770 1.370 . S
C771 C775 1.408 . S
C772 C770 1.363 . S
C772 C773 1.370 . S
C772 C776 1.524 . S
C773 C765 1.503 . S
C773 C772 1.370 . S
C773 C774 1.403 . S
C774 C773 1.403 . S
C774 C775 1.404 . S
C774 C777 1.539 . S
C775 C771 1.408 . S
C775 C774 1.404 . S
C775 H787 0.930 . S
C776 C772 1.524 . S
C776 H788 0.956 . S
C776 H789 0.961 . S
C776 H790 0.961 . S
C777 C774 1.539 . S
C777 H791 0.958 . S
C777 H792 0.961 . S
C777 H793 0.960 . S
H778 C762 0.931 . S
H779 C767 0.929 . S
H780 C768 0.960 . S
H781 C768 0.962 . S
H782 C768 0.960 . S
H783 C769 0.961 . S
H784 C769 0.961 . S
H785 C769 0.961 . S
H786 C770 0.931 . S
H787 C775 0.930 . S
H788 C776 0.956 . S
H789 C776 0.961 . S
H790 C776 0.961 . S
H791 C777 0.958 . S
H792 C777 0.961 . S
H793 C777 0.960 . S
C794 C795 1.391 . S
C794 C796 1.394 . S
C794 H810 0.931 . S
C795 C794 1.391 . S
C795 C799 1.376 . S
C796 C794 1.394 . S
C796 C797 1.369 . S
C796 C800 1.531 . S
C797 C796 1.369 . S
C797 C798 1.410 . S
C797 C805 1.503 . S
C798 C797 1.410 . S
C798 C799 1.392 . S
C798 C801 1.511 . S
C799 C795 1.376 . S
C799 C798 1.392 . S
C799 H811 0.929 . S
C800 C796 1.531 . S
C800 H812 0.960 . S
C800 H813 0.962 . S
C800 H814 0.960 . S
C801 C798 1.511 . S
C801 H815 0.961 . S
C801 H816 0.961 . S
C801 H817 0.961 . S
C802 C803 1.370 . S
C802 C804 1.363 . S
C802 H818 0.931 . S
C803 C802 1.370 . S
C803 C807 1.408 . S
C804 C802 1.363 . S
C804 C805 1.370 . S
C804 C808 1.524 . S
C805 C797 1.503 . S
C805 C804 1.370 . S
C805 C806 1.403 . S
C806 C805 1.403 . S
C806 C807 1.404 . S
C806 C809 1.539 . S
C807 C803 1.408 . S
C807 C806 1.404 . S
C807 H819 0.930 . S
C808 C804 1.524 . S
C808 H820 0.956 . S
C808 H821 0.961 . S
C808 H822 0.961 . S
C809 C806 1.539 . S
C809 H823 0.958 . S
C809 H824 0.961 . S
C809 H825 0.960 . S
H810 C794 0.931 . S
H811 C799 0.929 . S
H812 C800 0.960 . S
H813 C800 0.962 . S
H814 C800 0.960 . S
H815 C801 0.961 . S
H816 C801 0.961 . S
H817 C801 0.961 . S
H818 C802 0.931 . S
H819 C807 0.930 . S
H820 C808 0.956 . S
H821 C808 0.961 . S
H822 C808 0.961 . S
H823 C809 0.958 . S
H824 C809 0.961 . S
H825 C809 0.960 . S
C826 C827 1.391 . S
C826 C828 1.394 . S
C826 H842 0.931 . S
C827 C826 1.391 . S
C827 C831 1.376 . S
C828 C826 1.394 . S
C828 C829 1.369 . S
C828 C832 1.531 . S
C829 C828 1.369 . S
C829 C830 1.410 . S
C829 C837 1.503 . S
C830 C829 1.410 . S
C830 C831 1.392 . S
C830 C833 1.511 . S
C831 C827 1.376 . S
C831 C830 1.392 . S
C831 H843 0.929 . S
C832 C828 1.531 . S
C832 H844 0.960 . S
C832 H845 0.962 . S
C832 H846 0.960 . S
C833 C830 1.511 . S
C833 H847 0.961 . S
C833 H848 0.961 . S
C833 H849 0.961 . S
C834 C835 1.370 . S
C834 C836 1.363 . S
C834 H850 0.931 . S
C835 C834 1.370 . S
C835 C839 1.408 . S
C836 C834 1.363 . S
C836 C837 1.370 . S
C836 C840 1.524 . S
C837 C829 1.503 . S
C837 C836 1.370 . S
C837 C838 1.403 . S
C838 C837 1.403 . S
C838 C839 1.404 . S
C838 C841 1.539 . S
C839 C835 1.408 . S
C839 C838 1.404 . S
C839 H851 0.930 . S
C840 C836 1.524 . S
C840 H852 0.956 . S
C840 H853 0.961 . S
C840 H854 0.961 . S
C841 C838 1.539 . S
C841 H855 0.958 . S
C841 H856 0.961 . S
C841 H857 0.960 . S
H842 C826 0.931 . S
H843 C831 0.929 . S
H844 C832 0.960 . S
H845 C832 0.962 . S
H846 C832 0.960 . S
H847 C833 0.961 . S
H848 C833 0.961 . S
H849 C833 0.961 . S
H850 C834 0.931 . S
H851 C839 0.930 . S
H852 C840 0.956 . S
H853 C840 0.961 . S
H854 C840 0.961 . S
H855 C841 0.958 . S
H856 C841 0.961 . S
H857 C841 0.960 . S
C858 C859 1.391 . S
C858 C860 1.394 . S
C858 H874 0.931 . S
C859 C858 1.391 . S
C859 C863 1.376 . S
C860 C858 1.394 . S
C860 C861 1.369 . S
C860 C864 1.531 . S
C861 C860 1.369 . S
C861 C862 1.410 . S
C861 C869 1.503 . S
C862 C861 1.410 . S
C862 C863 1.392 . S
C862 C865 1.511 . S
C863 C859 1.376 . S
C863 C862 1.392 . S
C863 H875 0.929 . S
C864 C860 1.531 . S
C864 H876 0.960 . S
C864 H877 0.962 . S
C864 H878 0.960 . S
C865 C862 1.511 . S
C865 H879 0.961 . S
C865 H880 0.961 . S
C865 H881 0.961 . S
C866 C867 1.370 . S
C866 C868 1.363 . S
C866 H882 0.931 . S
C867 C866 1.370 . S
C867 C871 1.408 . S
C868 C866 1.363 . S
C868 C869 1.370 . S
C868 C872 1.524 . S
C869 C861 1.503 . S
C869 C868 1.370 . S
C869 C870 1.403 . S
C870 C869 1.403 . S
C870 C871 1.404 . S
C870 C873 1.539 . S
C871 C867 1.408 . S
C871 C870 1.404 . S
C871 H883 0.930 . S
C872 C868 1.524 . S
C872 H884 0.956 . S
C872 H885 0.961 . S
C872 H886 0.961 . S
C873 C870 1.539 . S
C873 H887 0.958 . S
C873 H888 0.961 . S
C873 H889 0.960 . S
H874 C858 0.931 . S
H875 C863 0.929 . S
H876 C864 0.960 . S
H877 C864 0.962 . S
H878 C864 0.960 . S
H879 C865 0.961 . S
H880 C865 0.961 . S
H881 C865 0.961 . S
H882 C866 0.931 . S
H883 C871 0.930 . S
H884 C872 0.956 . S
H885 C872 0.961 . S
H886 C872 0.961 . S
H887 C873 0.958 . S
H888 C873 0.961 . S
H889 C873 0.960 . S
C890 C891 1.391 . S
C890 C892 1.394 . S
C890 H906 0.931 . S
C891 C890 1.391 . S
C891 C895 1.376 . S
C892 C890 1.394 . S
C892 C893 1.369 . S
C892 C896 1.531 . S
C893 C892 1.369 . S
C893 C894 1.410 . S
C893 C901 1.503 . S
C894 C893 1.410 . S
C894 C895 1.392 . S
C894 C897 1.511 . S
C895 C891 1.376 . S
C895 C894 1.392 . S
C895 H907 0.929 . S
C896 C892 1.531 . S
C896 H908 0.960 . S
C896 H909 0.962 . S
C896 H910 0.960 . S
C897 C894 1.511 . S
C897 H911 0.961 . S
C897 H912 0.961 . S
C897 H913 0.961 . S
C898 C899 1.370 . S
C898 C900 1.363 . S
C898 H914 0.931 . S
C899 C898 1.370 . S
C899 C903 1.408 . S
C900 C898 1.363 . S
C900 C901 1.370 . S
C900 C904 1.524 . S
C901 C893 1.503 . S
C901 C900 1.370 . S
C901 C902 1.403 . S
C902 C901 1.403 . S
C902 C903 1.404 . S
C902 C905 1.539 . S
C903 C899 1.408 . S
C903 C902 1.404 . S
C903 H915 0.930 . S
C904 C900 1.524 . S
C904 H916 0.956 . S
C904 H917 0.961 . S
C904 H918 0.961 . S
C905 C902 1.539 . S
C905 H919 0.958 . S
C905 H920 0.961 . S
C905 H921 0.960 . S
H906 C890 0.931 . S
H907 C895 0.929 . S
H908 C896 0.960 . S
H909 C896 0.962 . S
H910 C896 0.960 . S
H911 C897 0.961 . S
H912 C897 0.961 . S
H913 C897 0.961 . S
H914 C898 0.931 . S
H915 C903 0.930 . S
H916 C904 0.956 . S
H917 C904 0.961 . S
H918 C904 0.961 . S
H919 C905 0.958 . S
H920 C905 0.961 . S
H921 C905 0.960 . S
C922 C923 1.391 . S
C922 C924 1.394 . S
C922 H938 0.931 . S
C923 C922 1.391 . S
C923 C927 1.376 . S
C924 C922 1.394 . S
C924 C925 1.369 . S
C924 C928 1.531 . S
C925 C924 1.369 . S
C925 C926 1.410 . S
C925 C933 1.503 . S
C926 C925 1.410 . S
C926 C927 1.392 . S
C926 C929 1.511 . S
C927 C923 1.376 . S
C927 C926 1.392 . S
C927 H939 0.929 . S
C928 C924 1.531 . S
C928 H940 0.960 . S
C928 H941 0.962 . S
C928 H942 0.960 . S
C929 C926 1.511 . S
C929 H943 0.961 . S
C929 H944 0.961 . S
C929 H945 0.961 . S
C930 C931 1.370 . S
C930 C932 1.363 . S
C930 H946 0.931 . S
C931 C930 1.370 . S
C931 C935 1.408 . S
C932 C930 1.363 . S
C932 C933 1.370 . S
C932 C936 1.524 . S
C933 C925 1.503 . S
C933 C932 1.370 . S
C933 C934 1.403 . S
C934 C933 1.403 . S
C934 C935 1.404 . S
C934 C937 1.539 . S
C935 C931 1.408 . S
C935 C934 1.404 . S
C935 H947 0.930 . S
C936 C932 1.524 . S
C936 H948 0.956 . S
C936 H949 0.961 . S
C936 H950 0.961 . S
C937 C934 1.539 . S
C937 H951 0.958 . S
C937 H952 0.961 . S
C937 H953 0.960 . S
H938 C922 0.931 . S
H939 C927 0.929 . S
H940 C928 0.960 . S
H941 C928 0.962 . S
H942 C928 0.960 . S
H943 C929 0.961 . S
H944 C929 0.961 . S
H945 C929 0.961 . S
H946 C930 0.931 . S
H947 C935 0.930 . S
H948 C936 0.956 . S
H949 C936 0.961 . S
H950 C936 0.961 . S
H951 C937 0.958 . S
H952 C937 0.961 . S
H953 C937 0.960 . S
C954 C955 1.391 . S
C954 C956 1.394 . S
C954 H970 0.931 . S
C955 C954 1.391 . S
C955 C959 1.376 . S
C956 C954 1.394 . S
C956 C957 1.369 . S
C956 C960 1.531 . S
C957 C956 1.369 . S
C957 C958 1.410 . S
C957 C965 1.503 . S
C958 C957 1.410 . S
C958 C959 1.392 . S
C958 C961 1.511 . S
C959 C955 1.376 . S
C959 C958 1.392 . S
C959 H971 0.929 . S
C960 C956 1.531 . S
C960 H972 0.960 . S
C960 H973 0.962 . S
C960 H974 0.960 . S
C961 C958 1.511 . S
C961 H975 0.961 . S
C961 H976 0.961 . S
C961 H977 0.961 . S
C962 C963 1.370 . S
C962 C964 1.363 . S
C962 H978 0.931 . S
C963 C962 1.370 . S
C963 C967 1.408 . S
C964 C962 1.363 . S
C964 C965 1.370 . S
C964 C968 1.524 . S
C965 C957 1.503 . S
C965 C964 1.370 . S
C965 C966 1.403 . S
C966 C965 1.403 . S
C966 C967 1.404 . S
C966 C969 1.539 . S
C967 C963 1.408 . S
C967 C966 1.404 . S
C967 H979 0.930 . S
C968 C964 1.524 . S
C968 H980 0.956 . S
C968 H981 0.961 . S
C968 H982 0.961 . S
C969 C966 1.539 . S
C969 H983 0.958 . S
C969 H984 0.961 . S
C969 H985 0.960 . S
H970 C954 0.931 . S
H971 C959 0.929 . S
H972 C960 0.960 . S
H973 C960 0.962 . S
H974 C960 0.960 . S
H975 C961 0.961 . S
H976 C961 0.961 . S
H977 C961 0.961 . S
H978 C962 0.931 . S
H979 C967 0.930 . S
H980 C968 0.956 . S
H981 C968 0.961 . S
H982 C968 0.961 . S
H983 C969 0.958 . S
H984 C969 0.961 . S
H985 C969 0.960 . S
C986 C987 1.391 . S
C986 C988 1.394 . S
C986 H1002 0.931 . S
C987 C986 1.391 . S
C987 C991 1.376 . S
C988 C986 1.394 . S
C988 C989 1.369 . S
C988 C992 1.531 . S
C989 C988 1.369 . S
C989 C990 1.410 . S
C989 C997 1.503 . S
C990 C989 1.410 . S
C990 C991 1.392 . S
C990 C993 1.511 . S
C991 C987 1.376 . S
C991 C990 1.392 . S
C991 H1003 0.929 . S
C992 C988 1.531 . S
C992 H1004 0.960 . S
C992 H1005 0.962 . S
C992 H1006 0.960 . S
C993 C990 1.511 . S
C993 H1007 0.961 . S
C993 H1008 0.961 . S
C993 H1009 0.961 . S
C994 C995 1.370 . S
C994 C996 1.363 . S
C994 H1010 0.940 . S
C995 C994 1.370 . S
C995 C999 1.408 . S
C996 C994 1.363 . S
C996 C997 1.370 . S
C996 C1000 1.524 . S
C997 C989 1.503 . S
C997 C996 1.370 . S
C997 C998 1.403 . S
C998 C997 1.403 . S
C998 C999 1.404 . S
C998 C1001 1.539 . S
C999 C995 1.408 . S
C999 C998 1.404 . S
C999 H1011 0.930 . S
C1000 C996 1.524 . S
C1000 H1012 0.956 . S
C1000 H1013 0.961 . S
C1000 H1014 0.961 . S
C1001 C998 1.539 . S
C1001 H1015 0.958 . S
C1001 H1016 0.961 . S
C1001 H1017 0.960 . S
H1002 C986 0.931 . S
H1003 C991 0.929 . S
H1004 C992 0.960 . S
H1005 C992 0.962 . S
H1006 C992 0.960 . S
H1007 C993 0.961 . S
H1008 C993 0.961 . S
H1009 C993 0.961 . S
H1010 C994 0.940 . S
H1011 C999 0.930 . S
H1012 C1000 0.956 . S
H1013 C1000 0.961 . S
H1014 C1000 0.961 . S
H1015 C1001 0.958 . S
H1016 C1001 0.961 . S
H1017 C1001 0.960 . S
C1018 C1019 1.391 . S
C1018 C1020 1.394 . S
C1018 H1034 0.931 . S
C1019 C1018 1.391 . S
C1019 C1023 1.376 . S
C1020 C1018 1.394 . S
C1020 C1021 1.369 . S
C1020 C1024 1.531 . S
C1021 C1020 1.369 . S
C1021 C1022 1.410 . S
C1021 C1029 1.503 . S
C1022 C1021 1.410 . S
C1022 C1023 1.392 . S
C1022 C1025 1.511 . S
C1023 C1019 1.376 . S
C1023 C1022 1.392 . S
C1023 H1035 0.929 . S
C1024 C1020 1.531 . S
C1024 H1036 0.960 . S
C1024 H1037 0.962 . S
C1024 H1038 0.960 . S
C1025 C1022 1.511 . S
C1025 H1039 0.961 . S
C1025 H1040 0.961 . S
C1025 H1041 0.961 . S
C1026 C1027 1.370 . S
C1026 C1028 1.363 . S
C1026 H1042 0.931 . S
C1027 C1026 1.370 . S
C1027 C1031 1.408 . S
C1028 C1026 1.363 . S
C1028 C1029 1.370 . S
C1028 C1032 1.524 . S
C1029 C1021 1.503 . S
C1029 C1028 1.370 . S
C1029 C1030 1.403 . S
C1030 C1029 1.403 . S
C1030 C1031 1.404 . S
C1030 C1033 1.539 . S
C1031 C1027 1.408 . S
C1031 C1030 1.404 . S
C1031 H1043 0.930 . S
C1032 C1028 1.524 . S
C1032 H1044 0.956 . S
C1032 H1045 0.961 . S
C1032 H1046 0.961 . S
C1033 C1030 1.539 . S
C1033 H1047 0.958 . S
C1033 H1048 0.961 . S
C1033 H1049 0.960 . S
H1034 C1018 0.931 . S
H1035 C1023 0.929 . S
H1036 C1024 0.960 . S
H1037 C1024 0.962 . S
H1038 C1024 0.960 . S
H1039 C1025 0.961 . S
H1040 C1025 0.961 . S
H1041 C1025 0.961 . S
H1042 C1026 0.931 . S
H1043 C1031 0.930 . S
H1044 C1032 0.956 . S
H1045 C1032 0.961 . S
H1046 C1032 0.961 . S
H1047 C1033 0.958 . S
H1048 C1033 0.961 . S
H1049 C1033 0.960 . S
C1050 C1051 1.391 . S
C1050 C1052 1.394 . S
C1050 H1066 0.931 . S
C1051 C1050 1.391 . S
C1051 C1055 1.376 . S
C1052 C1050 1.394 . S
C1052 C1053 1.369 . S
C1052 C1056 1.531 . S
C1053 C1052 1.369 . S
C1053 C1054 1.410 . S
C1053 C1061 1.503 . S
C1054 C1053 1.410 . S
C1054 C1055 1.392 . S
C1054 C1057 1.511 . S
C1055 C1051 1.376 . S
C1055 C1054 1.392 . S
C1055 H1067 0.929 . S
C1056 C1052 1.531 . S
C1056 H1068 0.960 . S
C1056 H1069 0.962 . S
C1056 H1070 0.960 . S
C1057 C1054 1.511 . S
C1057 H1071 0.961 . S
C1057 H1072 0.961 . S
C1057 H1073 0.961 . S
C1058 C1059 1.370 . S
C1058 C1060 1.363 . S
C1058 H1074 0.931 . S
C1059 C1058 1.370 . S
C1059 C1063 1.408 . S
C1060 C1058 1.363 . S
C1060 C1061 1.370 . S
C1060 C1064 1.524 . S
C1061 C1053 1.503 . S
C1061 C1060 1.370 . S
C1061 C1062 1.403 . S
C1062 C1061 1.403 . S
C1062 C1063 1.404 . S
C1062 C1065 1.539 . S
C1063 C1059 1.408 . S
C1063 C1062 1.404 . S
C1063 H1075 0.930 . S
C1064 C1060 1.524 . S
C1064 H1076 0.956 . S
C1064 H1077 0.961 . S
C1064 H1078 0.961 . S
C1065 C1062 1.539 . S
C1065 H1079 0.958 . S
C1065 H1080 0.961 . S
C1065 H1081 0.960 . S
H1066 C1050 0.931 . S
H1067 C1055 0.929 . S
H1068 C1056 0.960 . S
H1069 C1056 0.962 . S
H1070 C1056 0.960 . S
H1071 C1057 0.961 . S
H1072 C1057 0.961 . S
H1073 C1057 0.961 . S
H1074 C1058 0.931 . S
H1075 C1063 0.930 . S
H1076 C1064 0.956 . S
H1077 C1064 0.961 . S
H1078 C1064 0.961 . S
H1079 C1065 0.958 . S
H1080 C1065 0.961 . S
H1081 C1065 0.960 . S
C1082 C1083 1.391 . S
C1082 C1084 1.394 . S
C1082 H1098 0.931 . S
C1083 C1082 1.391 . S
C1083 C1087 1.376 . S
C1084 C1082 1.394 . S
C1084 C1085 1.369 . S
C1084 C1088 1.531 . S
C1085 C1084 1.369 . S
C1085 C1086 1.410 . S
C1085 C1093 1.503 . S
C1086 C1085 1.410 . S
C1086 C1087 1.392 . S
C1086 C1089 1.511 . S
C1087 C1083 1.376 . S
C1087 C1086 1.392 . S
C1087 H1099 0.929 . S
C1088 C1084 1.531 . S
C1088 H1100 0.960 . S
C1088 H1101 0.962 . S
C1088 H1102 0.960 . S
C1089 C1086 1.511 . S
C1089 H1103 0.961 . S
C1089 H1104 0.961 . S
C1089 H1105 0.961 . S
C1090 C1091 1.370 . S
C1090 C1092 1.363 . S
C1090 H1106 0.931 . S
C1091 C1090 1.370 . S
C1091 C1095 1.408 . S
C1092 C1090 1.363 . S
C1092 C1093 1.370 . S
C1092 C1096 1.524 . S
C1093 C1085 1.503 . S
C1093 C1092 1.370 . S
C1093 C1094 1.403 . S
C1094 C1093 1.403 . S
C1094 C1095 1.404 . S
C1094 C1097 1.539 . S
C1095 C1091 1.408 . S
C1095 C1094 1.404 . S
C1095 H1107 0.930 . S
C1096 C1092 1.524 . S
C1096 H1108 0.956 . S
C1096 H1109 0.961 . S
C1096 H1110 0.961 . S
C1097 C1094 1.539 . S
C1097 H1111 0.958 . S
C1097 H1112 0.961 1_545 S
C1097 H1113 0.960 . S
H1098 C1082 0.931 . S
H1099 C1087 0.929 . S
H1100 C1088 0.960 . S
H1101 C1088 0.962 . S
H1102 C1088 0.960 . S
H1103 C1089 0.961 . S
H1104 C1089 0.961 . S
H1105 C1089 0.961 . S
H1106 C1090 0.931 . S
H1107 C1095 0.930 . S
H1108 C1096 0.956 . S
H1109 C1096 0.961 . S
H1110 C1096 0.961 . S
H1111 C1097 0.958 . S
H1112 C1097 0.961 1_565 S
H1113 C1097 0.960 . S
C1114 C1115 1.391 . S
C1114 C1116 1.394 . S
C1114 H1130 0.931 . S
C1115 C1114 1.391 . S
C1115 C1119 1.376 . S
C1116 C1114 1.394 . S
C1116 C1117 1.369 . S
C1116 C1120 1.531 . S
C1117 C1116 1.369 . S
C1117 C1118 1.410 . S
C1117 C1125 1.503 . S
C1118 C1117 1.410 . S
C1118 C1119 1.392 . S
C1118 C1121 1.511 . S
C1119 C1115 1.376 . S
C1119 C1118 1.392 . S
C1119 H1131 0.929 . S
C1120 C1116 1.531 . S
C1120 H1132 0.960 . S
C1120 H1133 0.962 . S
C1120 H1134 0.960 . S
C1121 C1118 1.511 . S
C1121 H1135 0.961 . S
C1121 H1136 0.961 . S
C1121 H1137 0.961 . S
C1122 C1123 1.370 . S
C1122 C1124 1.363 . S
C1122 H1138 0.931 . S
C1123 C1122 1.370 . S
C1123 C1127 1.408 . S
C1124 C1122 1.363 . S
C1124 C1125 1.370 . S
C1124 C1128 1.524 . S
C1125 C1117 1.503 . S
C1125 C1124 1.370 . S
C1125 C1126 1.403 . S
C1126 C1125 1.403 . S
C1126 C1127 1.404 . S
C1126 C1129 1.539 . S
C1127 C1123 1.408 . S
C1127 C1126 1.404 . S
C1127 H1139 0.930 . S
C1128 C1124 1.524 . S
C1128 H1140 0.956 . S
C1128 H1141 0.961 . S
C1128 H1142 0.961 . S
C1129 C1126 1.539 . S
C1129 H1143 0.958 . S
C1129 H1144 0.961 . S
C1129 H1145 0.960 . S
H1130 C1114 0.931 . S
H1131 C1119 0.929 . S
H1132 C1120 0.960 . S
H1133 C1120 0.962 . S
H1134 C1120 0.960 . S
H1135 C1121 0.961 . S
H1136 C1121 0.961 . S
H1137 C1121 0.961 . S
H1138 C1122 0.931 . S
H1139 C1127 0.930 . S
H1140 C1128 0.956 . S
H1141 C1128 0.961 . S
H1142 C1128 0.961 . S
H1143 C1129 0.958 . S
H1144 C1129 0.961 . S
H1145 C1129 0.960 . S
C1146 C1147 1.391 . S
C1146 C1148 1.394 . S
C1146 H1162 0.931 . S
C1147 C1146 1.391 . S
C1147 C1151 1.376 . S
C1148 C1146 1.394 . S
C1148 C1149 1.369 . S
C1148 C1152 1.531 . S
C1149 C1148 1.369 . S
C1149 C1150 1.410 . S
C1149 C1157 1.503 . S
C1150 C1149 1.410 . S
C1150 C1151 1.392 . S
C1150 C1153 1.511 . S
C1151 C1147 1.376 . S
C1151 C1150 1.392 . S
C1151 H1163 0.929 . S
C1152 C1148 1.531 . S
C1152 H1164 0.960 . S
C1152 H1165 0.962 . S
C1152 H1166 0.960 . S
C1153 C1150 1.511 . S
C1153 H1167 0.961 . S
C1153 H1168 0.961 . S
C1153 H1169 0.961 . S
C1154 C1155 1.370 . S
C1154 C1156 1.363 . S
C1154 H1170 0.931 . S
C1155 C1154 1.370 . S
C1155 C1159 1.408 . S
C1156 C1154 1.363 . S
C1156 C1157 1.370 . S
C1156 C1160 1.524 . S
C1157 C1149 1.503 . S
C1157 C1156 1.370 . S
C1157 C1158 1.403 . S
C1158 C1157 1.403 . S
C1158 C1159 1.404 . S
C1158 C1161 1.539 . S
C1159 C1155 1.408 . S
C1159 C1158 1.404 . S
C1159 H1171 0.930 . S
C1160 C1156 1.524 . S
C1160 H1172 0.956 . S
C1160 H1173 0.961 . S
C1160 H1174 0.961 . S
C1161 C1158 1.539 . S
C1161 H1175 0.958 . S
C1161 H1176 0.961 . S
C1161 H1177 0.960 . S
H1162 C1146 0.931 . S
H1163 C1151 0.929 . S
H1164 C1152 0.960 . S
H1165 C1152 0.962 . S
H1166 C1152 0.960 . S
H1167 C1153 0.961 . S
H1168 C1153 0.961 . S
H1169 C1153 0.961 . S
H1170 C1154 0.931 . S
H1171 C1159 0.930 . S
H1172 C1160 0.956 . S
H1173 C1160 0.961 . S
H1174 C1160 0.961 . S
H1175 C1161 0.958 . S
H1176 C1161 0.961 . S
H1177 C1161 0.960 . S
C1178 C1179 1.391 . S
C1178 C1180 1.394 . S
C1178 H1194 0.931 . S
C1179 C1178 1.391 . S
C1179 C1183 1.376 . S
C1180 C1178 1.394 . S
C1180 C1181 1.369 . S
C1180 C1184 1.531 . S
C1181 C1180 1.369 . S
C1181 C1182 1.410 . S
C1181 C1189 1.503 . S
C1182 C1181 1.410 . S
C1182 C1183 1.392 . S
C1182 C1185 1.511 . S
C1183 C1179 1.376 . S
C1183 C1182 1.392 . S
C1183 H1195 0.929 . S
C1184 C1180 1.531 . S
C1184 H1196 0.960 . S
C1184 H1197 0.962 . S
C1184 H1198 0.960 . S
C1185 C1182 1.511 . S
C1185 H1199 0.961 1_655 S
C1185 H1200 0.961 . S
C1185 H1201 0.961 . S
C1186 C1187 1.370 . S
C1186 C1188 1.363 . S
C1186 H1202 0.931 . S
C1187 C1186 1.370 . S
C1187 C1191 1.408 . S
C1188 C1186 1.363 . S
C1188 C1189 1.370 . S
C1188 C1192 1.524 . S
C1189 C1181 1.503 . S
C1189 C1188 1.370 . S
C1189 C1190 1.403 . S
C1190 C1189 1.403 . S
C1190 C1191 1.404 . S
C1190 C1193 1.539 . S
C1191 C1187 1.408 . S
C1191 C1190 1.404 . S
C1191 H1203 0.930 . S
C1192 C1188 1.524 . S
C1192 H1204 0.956 . S
C1192 H1205 0.961 . S
C1192 H1206 0.961 . S
C1193 C1190 1.539 . S
C1193 H1207 0.958 . S
C1193 H1208 0.961 . S
C1193 H1209 0.960 . S
H1194 C1178 0.931 . S
H1195 C1183 0.929 . S
H1196 C1184 0.960 . S
H1197 C1184 0.962 . S
H1198 C1184 0.960 . S
H1199 C1185 0.961 1_455 S
H1200 C1185 0.961 . S
H1201 C1185 0.961 . S
H1202 C1186 0.931 . S
H1203 C1191 0.930 . S
H1204 C1192 0.956 . S
H1205 C1192 0.961 . S
H1206 C1192 0.961 . S
H1207 C1193 0.958 . S
H1208 C1193 0.961 . S
H1209 C1193 0.960 . S
C1210 C1211 1.391 . S
C1210 C1212 1.394 . S
C1210 H1226 0.931 . S
C1211 C1210 1.391 . S
C1211 C1215 1.376 . S
C1212 C1210 1.394 . S
C1212 C1213 1.369 . S
C1212 C1216 1.531 . S
C1213 C1212 1.369 . S
C1213 C1214 1.410 . S
C1213 C1221 1.503 . S
C1214 C1213 1.410 . S
C1214 C1215 1.392 . S
C1214 C1217 1.511 . S
C1215 C1211 1.376 . S
C1215 C1214 1.392 . S
C1215 H1227 0.929 . S
C1216 C1212 1.531 . S
C1216 H1228 0.960 . S
C1216 H1229 0.962 . S
C1216 H1230 0.960 . S
C1217 C1214 1.511 . S
C1217 H1231 0.961 . S
C1217 H1232 0.961 . S
C1217 H1233 0.961 . S
C1218 C1219 1.370 . S
C1218 C1220 1.363 . S
C1218 H1234 0.931 . S
C1219 C1218 1.370 . S
C1219 C1223 1.408 . S
C1220 C1218 1.363 . S
C1220 C1221 1.370 . S
C1220 C1224 1.524 . S
C1221 C1213 1.503 . S
C1221 C1220 1.370 . S
C1221 C1222 1.403 . S
C1222 C1221 1.403 . S
C1222 C1223 1.404 . S
C1222 C1225 1.539 . S
C1223 C1219 1.408 . S
C1223 C1222 1.404 . S
C1223 H1235 0.930 . S
C1224 C1220 1.524 . S
C1224 H1236 0.956 . S
C1224 H1237 0.961 . S
C1224 H1238 0.961 . S
C1225 C1222 1.539 . S
C1225 H1239 0.958 . S
C1225 H1240 0.961 . S
C1225 H1241 0.960 . S
H1226 C1210 0.931 . S
H1227 C1215 0.929 . S
H1228 C1216 0.960 . S
H1229 C1216 0.962 . S
H1230 C1216 0.960 . S
H1231 C1217 0.961 . S
H1232 C1217 0.961 . S
H1233 C1217 0.961 . S
H1234 C1218 0.931 . S
H1235 C1223 0.930 . S
H1236 C1224 0.956 . S
H1237 C1224 0.961 . S
H1238 C1224 0.961 . S
H1239 C1225 0.958 . S
H1240 C1225 0.961 . S
H1241 C1225 0.960 . S
C1242 C1243 1.391 . S
C1242 C1244 1.394 . S
C1242 H1258 0.931 . S
C1243 C1242 1.391 . S
C1243 C1247 1.376 . S
C1244 C1242 1.394 . S
C1244 C1245 1.369 . S
C1244 C1248 1.531 . S
C1245 C1244 1.369 . S
C1245 C1246 1.410 . S
C1245 C1253 1.503 . S
C1246 C1245 1.410 . S
C1246 C1247 1.392 . S
C1246 C1249 1.511 . S
C1247 C1243 1.376 . S
C1247 C1246 1.392 . S
C1247 H1259 0.929 . S
C1248 C1244 1.531 . S
C1248 H1260 0.960 . S
C1248 H1261 0.962 . S
C1248 H1262 0.960 . S
C1249 C1246 1.511 . S
C1249 H1263 0.961 . S
C1249 H1264 0.961 . S
C1249 H1265 0.961 . S
C1250 C1251 1.370 . S
C1250 C1252 1.363 . S
C1250 H1266 0.931 . S
C1251 C1250 1.370 . S
C1251 C1255 1.408 . S
C1252 C1250 1.363 . S
C1252 C1253 1.370 . S
C1252 C1256 1.524 . S
C1253 C1245 1.503 . S
C1253 C1252 1.370 . S
C1253 C1254 1.403 . S
C1254 C1253 1.403 . S
C1254 C1255 1.404 . S
C1254 C1257 1.539 . S
C1255 C1251 1.408 . S
C1255 C1254 1.404 . S
C1255 H1267 0.930 . S
C1256 C1252 1.524 . S
C1256 H1268 0.956 . S
C1256 H1269 0.961 . S
C1256 H1270 0.961 . S
C1257 C1254 1.539 . S
C1257 H1271 0.958 . S
C1257 H1272 0.961 . S
C1257 H1273 0.960 . S
H1258 C1242 0.931 . S
H1259 C1247 0.929 . S
H1260 C1248 0.960 . S
H1261 C1248 0.962 . S
H1262 C1248 0.960 . S
H1263 C1249 0.961 . S
H1264 C1249 0.961 . S
H1265 C1249 0.961 . S
H1266 C1250 0.931 . S
H1267 C1255 0.930 . S
H1268 C1256 0.956 . S
H1269 C1256 0.961 . S
H1270 C1256 0.961 . S
H1271 C1257 0.958 . S
H1272 C1257 0.961 . S
H1273 C1257 0.960 . S
C1274 C1275 1.391 . S
C1274 C1276 1.394 . S
C1274 H1290 0.931 . S
C1275 C1274 1.391 . S
C1275 C1279 1.376 . S
C1276 C1274 1.394 . S
C1276 C1277 1.369 . S
C1276 C1280 1.531 . S
C1277 C1276 1.369 . S
C1277 C1278 1.410 . S
C1277 C1285 1.503 . S
C1278 C1277 1.410 . S
C1278 C1279 1.392 . S
C1278 C1281 1.511 . S
C1279 C1275 1.376 . S
C1279 C1278 1.392 . S
C1279 H1291 0.929 . S
C1280 C1276 1.531 . S
C1280 H1292 0.960 . S
C1280 H1293 0.962 . S
C1280 H1294 0.960 . S
C1281 C1278 1.511 . S
C1281 H1295 0.961 . S
C1281 H1296 0.961 . S
C1281 H1297 0.961 . S
C1282 C1283 1.370 . S
C1282 C1284 1.363 . S
C1282 H1298 0.931 . S
C1283 C1282 1.370 . S
C1283 C1287 1.408 . S
C1284 C1282 1.363 . S
C1284 C1285 1.370 . S
C1284 C1288 1.524 . S
C1285 C1277 1.503 . S
C1285 C1284 1.370 . S
C1285 C1286 1.403 . S
C1286 C1285 1.403 . S
C1286 C1287 1.404 . S
C1286 C1289 1.539 . S
C1287 C1283 1.408 . S
C1287 C1286 1.404 . S
C1287 H1299 0.930 . S
C1288 C1284 1.524 . S
C1288 H1300 0.956 . S
C1288 H1301 0.961 . S
C1288 H1302 0.961 . S
C1289 C1286 1.539 . S
C1289 H1303 0.958 . S
C1289 H1304 0.961 . S
C1289 H1305 0.960 . S
H1290 C1274 0.931 . S
H1291 C1279 0.929 . S
H1292 C1280 0.960 . S
H1293 C1280 0.962 . S
H1294 C1280 0.960 . S
H1295 C1281 0.961 . S
H1296 C1281 0.961 . S
H1297 C1281 0.961 . S
H1298 C1282 0.931 . S
H1299 C1287 0.930 . S
H1300 C1288 0.956 . S
H1301 C1288 0.961 . S
H1302 C1288 0.961 . S
H1303 C1289 0.958 . S
H1304 C1289 0.961 . S
H1305 C1289 0.960 . S
C1306 C1307 1.391 . S
C1306 C1308 1.394 . S
C1306 H1322 0.931 . S
C1307 C1306 1.391 . S
C1307 C1311 1.376 . S
C1308 C1306 1.394 . S
C1308 C1309 1.369 . S
C1308 C1312 1.531 . S
C1309 C1308 1.369 . S
C1309 C1310 1.410 . S
C1309 C1317 1.503 . S
C1310 C1309 1.410 . S
C1310 C1311 1.392 . S
C1310 C1313 1.511 . S
C1311 C1307 1.376 . S
C1311 C1310 1.392 . S
C1311 H1323 0.929 . S
C1312 C1308 1.531 . S
C1312 H1324 0.960 . S
C1312 H1325 0.962 . S
C1312 H1326 0.960 . S
C1313 C1310 1.511 . S
C1313 H1327 0.961 . S
C1313 H1328 0.961 . S
C1313 H1329 0.961 . S
C1314 C1315 1.370 . S
C1314 C1316 1.363 . S
C1314 H1330 0.931 . S
C1315 C1314 1.370 . S
C1315 C1319 1.408 . S
C1316 C1314 1.363 . S
C1316 C1317 1.370 . S
C1316 C1320 1.524 . S
C1317 C1309 1.503 . S
C1317 C1316 1.370 . S
C1317 C1318 1.403 . S
C1318 C1317 1.403 . S
C1318 C1319 1.404 . S
C1318 C1321 1.539 . S
C1319 C1315 1.408 . S
C1319 C1318 1.404 . S
C1319 H1331 0.930 . S
C1320 C1316 1.524 . S
C1320 H1332 0.956 . S
C1320 H1333 0.961 . S
C1320 H1334 0.961 . S
C1321 C1318 1.539 . S
C1321 H1335 0.958 . S
C1321 H1336 0.961 . S
C1321 H1337 0.960 . S
H1322 C1306 0.931 . S
H1323 C1311 0.929 . S
H1324 C1312 0.960 . S
H1325 C1312 0.962 . S
H1326 C1312 0.960 . S
H1327 C1313 0.961 . S
H1328 C1313 0.961 . S
H1329 C1313 0.961 . S
H1330 C1314 0.931 . S
H1331 C1319 0.930 . S
H1332 C1320 0.956 . S
H1333 C1320 0.961 . S
H1334 C1320 0.961 . S
H1335 C1321 0.958 . S
H1336 C1321 0.961 . S
H1337 C1321 0.960 . S
C1338 C1339 1.391 . S
C1338 C1340 1.394 . S
C1338 H1354 0.931 . S
C1339 C1338 1.391 . S
C1339 C1343 1.376 . S
C1340 C1338 1.394 . S
C1340 C1341 1.369 . S
C1340 C1344 1.531 . S
C1341 C1340 1.369 . S
C1341 C1342 1.410 . S
C1341 C1349 1.503 . S
C1342 C1341 1.410 . S
C1342 C1343 1.392 . S
C1342 C1345 1.511 . S
C1343 C1339 1.376 . S
C1343 C1342 1.392 . S
C1343 H1355 0.929 . S
C1344 C1340 1.531 . S
C1344 H1356 0.960 . S
C1344 H1357 0.962 . S
C1344 H1358 0.960 . S
C1345 C1342 1.511 . S
C1345 H1359 0.961 . S
C1345 H1360 0.961 . S
C1345 H1361 0.961 . S
C1346 C1347 1.370 . S
C1346 C1348 1.363 . S
C1346 H1362 0.931 . S
C1347 C1346 1.370 . S
C1347 C1351 1.408 . S
C1348 C1346 1.363 . S
C1348 C1349 1.370 . S
C1348 C1352 1.524 . S
C1349 C1341 1.503 . S
C1349 C1348 1.370 . S
C1349 C1350 1.403 . S
C1350 C1349 1.403 . S
C1350 C1351 1.404 . S
C1350 C1353 1.539 . S
C1351 C1347 1.408 . S
C1351 C1350 1.404 . S
C1351 H1363 0.930 . S
C1352 C1348 1.524 . S
C1352 H1364 0.956 . S
C1352 H1365 0.961 . S
C1352 H1366 0.961 . S
C1353 C1350 1.539 . S
C1353 H1367 0.958 . S
C1353 H1368 0.961 . S
C1353 H1369 0.960 . S
H1354 C1338 0.931 . S
H1355 C1343 0.929 . S
H1356 C1344 0.960 . S
H1357 C1344 0.962 . S
H1358 C1344 0.960 . S
H1359 C1345 0.961 . S
H1360 C1345 0.961 . S
H1361 C1345 0.961 . S
H1362 C1346 0.931 . S
H1363 C1351 0.930 . S
H1364 C1352 0.956 . S
H1365 C1352 0.961 . S
H1366 C1352 0.961 . S
H1367 C1353 0.958 . S
H1368 C1353 0.961 . S
H1369 C1353 0.960 . S
C1370 C1371 1.391 . S
C1370 C1372 1.394 . S
C1370 H1386 0.931 . S
C1371 C1370 1.391 . S
C1371 C1375 1.376 . S
C1372 C1370 1.394 . S
C1372 C1373 1.369 . S
C1372 C1376 1.531 . S
C1373 C1372 1.369 . S
C1373 C1374 1.410 . S
C1373 C1381 1.503 . S
C1374 C1373 1.410 . S
C1374 C1375 1.392 . S
C1374 C1377 1.511 . S
C1375 C1371 1.376 . S
C1375 C1374 1.392 . S
C1375 H1387 0.929 . S
C1376 C1372 1.531 . S
C1376 H1388 0.960 . S
C1376 H1389 0.962 . S
C1376 H1390 0.960 . S
C1377 C1374 1.511 . S
C1377 H1391 0.961 . S
C1377 H1392 0.961 . S
C1377 H1393 0.961 . S
C1378 C1379 1.370 . S
C1378 C1380 1.363 . S
C1378 H1394 0.931 . S
C1379 C1378 1.370 . S
C1379 C1383 1.408 . S
C1380 C1378 1.363 . S
C1380 C1381 1.370 . S
C1380 C1384 1.524 . S
C1381 C1373 1.503 . S
C1381 C1380 1.370 . S
C1381 C1382 1.403 . S
C1382 C1381 1.403 . S
C1382 C1383 1.404 . S
C1382 C1385 1.539 . S
C1383 C1379 1.408 . S
C1383 C1382 1.404 . S
C1383 H1395 0.930 . S
C1384 C1380 1.524 . S
C1384 H1396 0.956 . S
C1384 H1397 0.961 . S
C1384 H1398 0.961 . S
C1385 C1382 1.539 . S
C1385 H1399 0.958 . S
C1385 H1400 0.961 . S
C1385 H1401 0.960 . S
H1386 C1370 0.931 . S
H1387 C1375 0.929 . S
H1388 C1376 0.960 . S
H1389 C1376 0.962 . S
H1390 C1376 0.960 . S
H1391 C1377 0.961 . S
H1392 C1377 0.961 . S
H1393 C1377 0.961 . S
H1394 C1378 0.931 . S
H1395 C1383 0.930 . S
H1396 C1384 0.956 . S
H1397 C1384 0.961 . S
H1398 C1384 0.961 . S
H1399 C1385 0.958 . S
H1400 C1385 0.961 . S
H1401 C1385 0.960 . S
C1402 C1403 1.391 . S
C1402 C1404 1.394 . S
C1402 H1418 0.931 . S
C1403 C1402 1.391 . S
C1403 C1407 1.376 . S
C1404 C1402 1.394 . S
C1404 C1405 1.369 . S
C1404 C1408 1.531 . S
C1405 C1404 1.369 . S
C1405 C1406 1.410 . S
C1405 C1413 1.503 . S
C1406 C1405 1.410 . S
C1406 C1407 1.392 . S
C1406 C1409 1.511 . S
C1407 C1403 1.376 . S
C1407 C1406 1.392 . S
C1407 H1419 0.929 . S
C1408 C1404 1.531 . S
C1408 H1420 0.960 . S
C1408 H1421 0.962 . S
C1408 H1422 0.960 . S
C1409 C1406 1.511 . S
C1409 H1423 0.961 . S
C1409 H1424 0.961 . S
C1409 H1425 0.961 . S
C1410 C1411 1.370 . S
C1410 C1412 1.363 . S
C1410 H1426 0.931 . S
C1411 C1410 1.370 . S
C1411 C1415 1.408 . S
C1412 C1410 1.363 . S
C1412 C1413 1.370 . S
C1412 C1416 1.524 . S
C1413 C1405 1.503 . S
C1413 C1412 1.370 . S
C1413 C1414 1.403 . S
C1414 C1413 1.403 . S
C1414 C1415 1.404 . S
C1414 C1417 1.539 . S
C1415 C1411 1.408 . S
C1415 C1414 1.404 . S
C1415 H1427 0.930 . S
C1416 C1412 1.524 . S
C1416 H1428 0.956 . S
C1416 H1429 0.961 . S
C1416 H1430 0.961 . S
C1417 C1414 1.539 . S
C1417 H1431 0.958 . S
C1417 H1432 0.961 . S
C1417 H1433 0.960 . S
H1418 C1402 0.931 . S
H1419 C1407 0.929 . S
H1420 C1408 0.960 . S
H1421 C1408 0.962 . S
H1422 C1408 0.960 . S
H1423 C1409 0.961 . S
H1424 C1409 0.961 . S
H1425 C1409 0.961 . S
H1426 C1410 0.931 . S
H1427 C1415 0.930 . S
H1428 C1416 0.956 . S
H1429 C1416 0.961 . S
H1430 C1416 0.961 . S
H1431 C1417 0.958 . S
H1432 C1417 0.961 . S
H1433 C1417 0.960 . S
C1434 C1435 1.391 . S
C1434 C1436 1.394 . S
C1434 H1450 0.931 . S
C1435 C1434 1.391 . S
C1435 C1439 1.376 . S
C1436 C1434 1.394 . S
C1436 C1437 1.369 . S
C1436 C1440 1.531 . S
C1437 C1436 1.369 . S
C1437 C1438 1.410 . S
C1437 C1445 1.503 . S
C1438 C1437 1.410 . S
C1438 C1439 1.392 . S
C1438 C1441 1.511 . S
C1439 C1435 1.376 . S
C1439 C1438 1.392 . S
C1439 H1451 0.929 . S
C1440 C1436 1.531 . S
C1440 H1452 0.960 . S
C1440 H1453 0.962 . S
C1440 H1454 0.960 . S
C1441 C1438 1.511 . S
C1441 H1455 0.961 . S
C1441 H1456 0.961 . S
C1441 H1457 0.961 . S
C1442 C1443 1.370 . S
C1442 C1444 1.363 . S
C1442 H1458 0.931 . S
C1443 C1442 1.370 . S
C1443 C1447 1.408 . S
C1444 C1442 1.363 . S
C1444 C1445 1.370 . S
C1444 C1448 1.524 . S
C1445 C1437 1.503 . S
C1445 C1444 1.370 . S
C1445 C1446 1.403 . S
C1446 C1445 1.403 . S
C1446 C1447 1.404 . S
C1446 C1449 1.539 . S
C1447 C1443 1.408 . S
C1447 C1446 1.404 . S
C1447 H1459 0.930 . S
C1448 C1444 1.524 . S
C1448 H1460 0.956 . S
C1448 H1461 0.961 . S
C1448 H1462 0.961 . S
C1449 C1446 1.539 . S
C1449 H1463 0.958 . S
C1449 H1464 0.961 . S
C1449 H1465 0.960 . S
H1450 C1434 0.931 . S
H1451 C1439 0.929 . S
H1452 C1440 0.960 . S
H1453 C1440 0.962 . S
H1454 C1440 0.960 . S
H1455 C1441 0.961 . S
H1456 C1441 0.961 . S
H1457 C1441 0.961 . S
H1458 C1442 0.931 . S
H1459 C1447 0.930 . S
H1460 C1448 0.956 . S
H1461 C1448 0.961 . S
H1462 C1448 0.961 . S
H1463 C1449 0.958 . S
H1464 C1449 0.961 . S
H1465 C1449 0.960 . S
C1466 C1467 1.391 . S
C1466 C1468 1.394 . S
C1466 H1482 0.931 . S
C1467 C1466 1.391 . S
C1467 C1471 1.376 . S
C1468 C1466 1.394 . S
C1468 C1469 1.369 . S
C1468 C1472 1.531 . S
C1469 C1468 1.369 . S
C1469 C1470 1.410 . S
C1469 C1477 1.503 . S
C1470 C1469 1.410 . S
C1470 C1471 1.392 . S
C1470 C1473 1.511 . S
C1471 C1467 1.376 . S
C1471 C1470 1.392 . S
C1471 H1483 0.929 . S
C1472 C1468 1.531 . S
C1472 H1484 0.960 . S
C1472 H1485 0.962 . S
C1472 H1486 0.960 . S
C1473 C1470 1.511 . S
C1473 H1487 0.961 . S
C1473 H1488 0.961 . S
C1473 H1489 0.961 . S
C1474 C1475 1.370 . S
C1474 C1476 1.363 . S
C1474 H1490 0.931 . S
C1475 C1474 1.370 . S
C1475 C1479 1.408 . S
C1476 C1474 1.363 . S
C1476 C1477 1.370 . S
C1476 C1480 1.524 . S
C1477 C1469 1.503 . S
C1477 C1476 1.370 . S
C1477 C1478 1.403 . S
C1478 C1477 1.403 . S
C1478 C1479 1.404 . S
C1478 C1481 1.539 . S
C1479 C1475 1.408 . S
C1479 C1478 1.404 . S
C1479 H1491 0.930 . S
C1480 C1476 1.524 . S
C1480 H1492 0.956 . S
C1480 H1493 0.961 . S
C1480 H1494 0.961 . S
C1481 C1478 1.539 . S
C1481 H1495 0.958 . S
C1481 H1496 0.961 . S
C1481 H1497 0.960 . S
H1482 C1466 0.931 . S
H1483 C1471 0.929 . S
H1484 C1472 0.960 . S
H1485 C1472 0.962 . S
H1486 C1472 0.960 . S
H1487 C1473 0.961 . S
H1488 C1473 0.961 . S
H1489 C1473 0.961 . S
H1490 C1474 0.931 . S
H1491 C1479 0.930 . S
H1492 C1480 0.956 . S
H1493 C1480 0.961 . S
H1494 C1480 0.961 . S
H1495 C1481 0.958 . S
H1496 C1481 0.961 . S
H1497 C1481 0.960 . S
C1498 C1499 1.391 . S
C1498 C1500 1.394 . S
C1498 H1514 0.931 . S
C1499 C1498 1.391 . S
C1499 C1503 1.376 . S
C1500 C1498 1.394 . S
C1500 C1501 1.369 . S
C1500 C1504 1.531 . S
C1501 C1500 1.369 . S
C1501 C1502 1.410 . S
C1501 C1509 1.503 . S
C1502 C1501 1.410 . S
C1502 C1503 1.392 . S
C1502 C1505 1.511 . S
C1503 C1499 1.376 . S
C1503 C1502 1.392 . S
C1503 H1515 0.929 . S
C1504 C1500 1.531 . S
C1504 H1516 0.960 . S
C1504 H1517 0.962 . S
C1504 H1518 0.960 . S
C1505 C1502 1.511 . S
C1505 H1519 0.961 . S
C1505 H1520 0.961 . S
C1505 H1521 0.961 . S
C1506 C1507 1.370 . S
C1506 C1508 1.363 . S
C1506 H1522 0.931 . S
C1507 C1506 1.370 . S
C1507 C1511 1.408 . S
C1508 C1506 1.363 . S
C1508 C1509 1.370 . S
C1508 C1512 1.524 . S
C1509 C1501 1.503 . S
C1509 C1508 1.370 . S
C1509 C1510 1.403 . S
C1510 C1509 1.403 . S
C1510 C1511 1.404 . S
C1510 C1513 1.539 . S
C1511 C1507 1.408 . S
C1511 C1510 1.404 . S
C1511 H1523 0.930 . S
C1512 C1508 1.524 . S
C1512 H1524 0.956 . S
C1512 H1525 0.961 . S
C1512 H1526 0.961 . S
C1513 C1510 1.539 . S
C1513 H1527 0.958 . S
C1513 H1528 0.961 . S
C1513 H1529 0.960 . S
H1514 C1498 0.931 . S
H1515 C1503 0.929 . S
H1516 C1504 0.960 . S
H1517 C1504 0.962 . S
H1518 C1504 0.960 . S
H1519 C1505 0.961 . S
H1520 C1505 0.961 . S
H1521 C1505 0.961 . S
H1522 C1506 0.931 . S
H1523 C1511 0.930 . S
H1524 C1512 0.956 . S
H1525 C1512 0.961 . S
H1526 C1512 0.961 . S
H1527 C1513 0.958 . S
H1528 C1513 0.961 . S
H1529 C1513 0.960 . S
C1530 C1531 1.391 . S
C1530 C1532 1.394 . S
C1530 H1546 0.931 . S
C1531 C1530 1.391 . S
C1531 C1535 1.376 . S
C1532 C1530 1.394 . S
C1532 C1533 1.369 . S
C1532 C1536 1.531 . S
C1533 C1532 1.369 . S
C1533 C1534 1.410 . S
C1533 C1541 1.503 . S
C1534 C1533 1.410 . S
C1534 C1535 1.392 . S
C1534 C1537 1.511 . S
C1535 C1531 1.376 . S
C1535 C1534 1.392 . S
C1535 H1547 0.929 . S
C1536 C1532 1.531 . S
C1536 H1548 0.960 . S
C1536 H1549 0.962 . S
C1536 H1550 0.960 . S
C1537 C1534 1.511 . S
C1537 H1551 0.961 . S
C1537 H1552 0.961 . S
C1537 H1553 0.961 . S
C1538 C1539 1.370 . S
C1538 C1540 1.363 . S
C1538 H1554 0.931 . S
C1539 C1538 1.370 . S
C1539 C1543 1.408 . S
C1540 C1538 1.363 . S
C1540 C1541 1.370 . S
C1540 C1544 1.524 . S
C1541 C1533 1.503 . S
C1541 C1540 1.370 . S
C1541 C1542 1.403 . S
C1542 C1541 1.403 . S
C1542 C1543 1.404 . S
C1542 C1545 1.539 . S
C1543 C1539 1.408 . S
C1543 C1542 1.404 . S
C1543 H1555 0.930 . S
C1544 C1540 1.524 . S
C1544 H1556 0.956 . S
C1544 H1557 0.961 . S
C1544 H1558 0.961 . S
C1545 C1542 1.539 . S
C1545 H1559 0.958 . S
C1545 H1560 0.961 . S
C1545 H1561 0.960 . S
H1546 C1530 0.931 . S
H1547 C1535 0.929 . S
H1548 C1536 0.960 . S
H1549 C1536 0.962 . S
H1550 C1536 0.960 . S
H1551 C1537 0.961 . S
H1552 C1537 0.961 . S
H1553 C1537 0.961 . S
H1554 C1538 0.931 . S
H1555 C1543 0.930 . S
H1556 C1544 0.956 . S
H1557 C1544 0.961 . S
H1558 C1544 0.961 . S
H1559 C1545 0.958 . S
H1560 C1545 0.961 . S
H1561 C1545 0.960 . S
C1562 C1563 1.391 . S
C1562 C1564 1.394 . S
C1562 H1578 0.931 . S
C1563 C1562 1.391 . S
C1563 C1567 1.376 . S
C1564 C1562 1.394 . S
C1564 C1565 1.369 . S
C1564 C1568 1.531 . S
C1565 C1564 1.369 . S
C1565 C1566 1.410 . S
C1565 C1573 1.503 . S
C1566 C1565 1.410 . S
C1566 C1567 1.392 . S
C1566 C1569 1.511 . S
C1567 C1563 1.376 . S
C1567 C1566 1.392 . S
C1567 H1579 0.929 . S
C1568 C1564 1.531 . S
C1568 H1580 0.960 . S
C1568 H1581 0.962 . S
C1568 H1582 0.960 . S
C1569 C1566 1.511 . S
C1569 H1583 0.961 . S
C1569 H1584 0.961 . S
C1569 H1585 0.961 . S
C1570 C1571 1.370 . S
C1570 C1572 1.363 . S
C1570 H1586 0.931 . S
C1571 C1570 1.370 . S
C1571 C1575 1.408 . S
C1572 C1570 1.363 . S
C1572 C1573 1.370 . S
C1572 C1576 1.524 . S
C1573 C1565 1.503 . S
C1573 C1572 1.370 . S
C1573 C1574 1.403 . S
C1574 C1573 1.403 . S
C1574 C1575 1.404 . S
C1574 C1577 1.539 . S
C1575 C1571 1.408 . S
C1575 C1574 1.404 . S
C1575 H1587 0.930 . S
C1576 C1572 1.524 . S
C1576 H1588 0.956 . S
C1576 H1589 0.961 . S
C1576 H1590 0.961 . S
C1577 C1574 1.539 . S
C1577 H1591 0.958 . S
C1577 H1592 0.961 . S
C1577 H1593 0.960 . S
H1578 C1562 0.931 . S
H1579 C1567 0.929 . S
H1580 C1568 0.960 . S
H1581 C1568 0.962 . S
H1582 C1568 0.960 . S
H1583 C1569 0.961 . S
H1584 C1569 0.961 . S
H1585 C1569 0.961 . S
H1586 C1570 0.931 . S
H1587 C1575 0.930 . S
H1588 C1576 0.956 . S
H1589 C1576 0.961 . S
H1590 C1576 0.961 . S
H1591 C1577 0.958 . S
H1592 C1577 0.961 . S
H1593 C1577 0.960 . S
C1594 C1595 1.391 . S
C1594 C1596 1.394 . S
C1594 H1610 0.931 . S
C1595 C1594 1.391 . S
C1595 C1599 1.376 . S
C1596 C1594 1.394 . S
C1596 C1597 1.369 . S
C1596 C1600 1.531 . S
C1597 C1596 1.369 . S
C1597 C1598 1.410 . S
C1597 C1605 1.503 . S
C1598 C1597 1.410 . S
C1598 C1599 1.392 . S
C1598 C1601 1.511 . S
C1599 C1595 1.376 . S
C1599 C1598 1.392 . S
C1599 H1611 0.929 . S
C1600 C1596 1.531 . S
C1600 H1612 0.960 . S
C1600 H1613 0.962 . S
C1600 H1614 0.960 . S
C1601 C1598 1.511 . S
C1601 H1615 0.961 . S
C1601 H1616 0.961 . S
C1601 H1617 0.961 . S
C1602 C1603 1.370 . S
C1602 C1604 1.363 . S
C1602 H1618 0.931 . S
C1603 C1602 1.370 . S
C1603 C1607 1.408 . S
C1604 C1602 1.363 . S
C1604 C1605 1.370 . S
C1604 C1608 1.524 . S
C1605 C1597 1.503 . S
C1605 C1604 1.370 . S
C1605 C1606 1.403 . S
C1606 C1605 1.403 . S
C1606 C1607 1.404 . S
C1606 C1609 1.539 . S
C1607 C1603 1.408 . S
C1607 C1606 1.404 . S
C1607 H1619 0.930 . S
C1608 C1604 1.524 . S
C1608 H1620 0.956 . S
C1608 H1621 0.961 . S
C1608 H1622 0.961 . S
C1609 C1606 1.539 . S
C1609 H1623 0.958 . S
C1609 H1624 0.961 . S
C1609 H1625 0.960 . S
H1610 C1594 0.931 . S
H1611 C1599 0.929 . S
H1612 C1600 0.960 . S
H1613 C1600 0.962 . S
H1614 C1600 0.960 . S
H1615 C1601 0.961 . S
H1616 C1601 0.961 . S
H1617 C1601 0.961 . S
H1618 C1602 0.931 . S
H1619 C1607 0.930 . S
H1620 C1608 0.956 . S
H1621 C1608 0.961 . S
H1622 C1608 0.961 . S
H1623 C1609 0.958 . S
H1624 C1609 0.961 . S
H1625 C1609 0.960 . S
C1626 C1627 1.391 . S
C1626 C1628 1.394 . S
C1626 H1642 0.931 . S
C1627 C1626 1.391 . S
C1627 C1631 1.376 . S
C1628 C1626 1.394 . S
C1628 C1629 1.369 . S
C1628 C1632 1.531 . S
C1629 C1628 1.369 . S
C1629 C1630 1.410 . S
C1629 C1637 1.503 . S
C1630 C1629 1.410 . S
C1630 C1631 1.392 . S
C1630 C1633 1.511 . S
C1631 C1627 1.376 . S
C1631 C1630 1.392 . S
C1631 H1643 0.929 . S
C1632 C1628 1.531 . S
C1632 H1644 0.960 . S
C1632 H1645 0.962 . S
C1632 H1646 0.960 . S
C1633 C1630 1.511 . S
C1633 H1647 0.961 . S
C1633 H1648 0.961 . S
C1633 H1649 0.961 . S
C1634 C1635 1.370 . S
C1634 C1636 1.363 . S
C1634 H1650 0.931 . S
C1635 C1634 1.370 . S
C1635 C1639 1.408 . S
C1636 C1634 1.363 . S
C1636 C1637 1.370 . S
C1636 C1640 1.524 . S
C1637 C1629 1.503 . S
C1637 C1636 1.370 . S
C1637 C1638 1.403 . S
C1638 C1637 1.403 . S
C1638 C1639 1.404 . S
C1638 C1641 1.539 . S
C1639 C1635 1.408 . S
C1639 C1638 1.404 . S
C1639 H1651 0.930 . S
C1640 C1636 1.524 . S
C1640 H1652 0.956 . S
C1640 H1653 0.961 . S
C1640 H1654 0.961 . S
C1641 C1638 1.539 . S
C1641 H1655 0.958 . S
C1641 H1656 0.961 . S
C1641 H1657 0.960 . S
H1642 C1626 0.931 . S
H1643 C1631 0.929 . S
H1644 C1632 0.960 . S
H1645 C1632 0.962 . S
H1646 C1632 0.960 . S
H1647 C1633 0.961 . S
H1648 C1633 0.961 . S
H1649 C1633 0.961 . S
H1650 C1634 0.931 . S
H1651 C1639 0.930 . S
H1652 C1640 0.956 . S
H1653 C1640 0.961 . S
H1654 C1640 0.961 . S
H1655 C1641 0.958 . S
H1656 C1641 0.961 . S
H1657 C1641 0.960 . S
C1658 C1659 1.391 . S
C1658 C1660 1.394 . S
C1658 H1674 0.931 . S
C1659 C1658 1.391 . S
C1659 C1663 1.376 . S
C1660 C1658 1.394 . S
C1660 C1661 1.369 . S
C1660 C1664 1.531 . S
C1661 C1660 1.369 . S
C1661 C1662 1.410 . S
C1661 C1669 1.503 . S
C1662 C1661 1.410 . S
C1662 C1663 1.392 . S
C1662 C1665 1.511 . S
C1663 C1659 1.376 . S
C1663 C1662 1.392 . S
C1663 H1675 0.929 . S
C1664 C1660 1.531 . S
C1664 H1676 0.960 . S
C1664 H1677 0.962 . S
C1664 H1678 0.960 . S
C1665 C1662 1.511 . S
C1665 H1679 0.961 . S
C1665 H1680 0.961 . S
C1665 H1681 0.961 . S
C1666 C1667 1.370 . S
C1666 C1668 1.363 . S
C1666 H1682 0.931 . S
C1667 C1666 1.370 . S
C1667 C1671 1.408 . S
C1668 C1666 1.363 . S
C1668 C1669 1.370 . S
C1668 C1672 1.524 . S
C1669 C1661 1.503 . S
C1669 C1668 1.370 . S
C1669 C1670 1.403 . S
C1670 C1669 1.403 . S
C1670 C1671 1.404 . S
C1670 C1673 1.539 . S
C1671 C1667 1.408 . S
C1671 C1670 1.404 . S
C1671 H1683 0.930 . S
C1672 C1668 1.524 . S
C1672 H1684 0.956 . S
C1672 H1685 0.961 . S
C1672 H1686 0.961 . S
C1673 C1670 1.539 . S
C1673 H1687 0.958 . S
C1673 H1688 0.961 . S
C1673 H1689 0.960 . S
H1674 C1658 0.931 . S
H1675 C1663 0.929 . S
H1676 C1664 0.960 . S
H1677 C1664 0.962 . S
H1678 C1664 0.960 . S
H1679 C1665 0.961 . S
H1680 C1665 0.961 . S
H1681 C1665 0.961 . S
H1682 C1666 0.931 . S
H1683 C1671 0.930 . S
H1684 C1672 0.956 . S
H1685 C1672 0.961 . S
H1686 C1672 0.961 . S
H1687 C1673 0.958 . S
H1688 C1673 0.961 . S
H1689 C1673 0.960 . S
C1690 C1691 1.391 . S
C1690 C1692 1.394 . S
C1690 H1706 0.931 . S
C1691 C1690 1.391 . S
C1691 C1695 1.376 . S
C1692 C1690 1.394 . S
C1692 C1693 1.369 . S
C1692 C1696 1.531 . S
C1693 C1692 1.369 . S
C1693 C1694 1.410 . S
C1693 C1701 1.503 . S
C1694 C1693 1.410 . S
C1694 C1695 1.392 . S
C1694 C1697 1.511 . S
C1695 C1691 1.376 . S
C1695 C1694 1.392 . S
C1695 H1707 0.929 . S
C1696 C1692 1.531 . S
C1696 H1708 0.960 . S
C1696 H1709 0.962 . S
C1696 H1710 0.960 . S
C1697 C1694 1.511 . S
C1697 H1711 0.961 . S
C1697 H1712 0.961 . S
C1697 H1713 0.961 . S
C1698 C1699 1.370 . S
C1698 C1700 1.363 . S
C1698 H1714 0.931 . S
C1699 C1698 1.370 . S
C1699 C1703 1.408 . S
C1700 C1698 1.363 . S
C1700 C1701 1.370 . S
C1700 C1704 1.524 . S
C1701 C1693 1.503 . S
C1701 C1700 1.370 . S
C1701 C1702 1.403 . S
C1702 C1701 1.403 . S
C1702 C1703 1.404 . S
C1702 C1705 1.539 . S
C1703 C1699 1.408 . S
C1703 C1702 1.404 . S
C1703 H1715 0.930 1_565 S
C1704 C1700 1.524 . S
C1704 H1716 0.956 . S
C1704 H1717 0.961 . S
C1704 H1718 0.961 . S
C1705 C1702 1.539 . S
C1705 H1719 0.958 . S
C1705 H1720 0.972 . S
C1705 H1721 0.960 . S
H1706 C1690 0.931 . S
H1707 C1695 0.929 . S
H1708 C1696 0.960 . S
H1709 C1696 0.962 . S
H1710 C1696 0.960 . S
H1711 C1697 0.961 . S
H1712 C1697 0.961 . S
H1713 C1697 0.961 . S
H1714 C1698 0.931 . S
H1715 C1703 0.930 1_545 S
H1716 C1704 0.956 . S
H1717 C1704 0.961 . S
H1718 C1704 0.961 . S
H1719 C1705 0.958 . S
H1720 C1705 0.972 . S
H1721 C1705 0.960 . S
C1722 C1723 1.391 . S
C1722 C1724 1.394 . S
C1722 H1738 0.931 . S
C1723 C1722 1.391 . S
C1723 C1727 1.376 . S
C1724 C1722 1.394 . S
C1724 C1725 1.369 . S
C1724 C1728 1.531 . S
C1725 C1724 1.369 . S
C1725 C1726 1.410 . S
C1725 C1733 1.503 . S
C1726 C1725 1.410 . S
C1726 C1727 1.392 . S
C1726 C1729 1.511 . S
C1727 C1723 1.376 . S
C1727 C1726 1.392 . S
C1727 H1739 0.929 . S
C1728 C1724 1.531 . S
C1728 H1740 0.960 . S
C1728 H1741 0.962 . S
C1728 H1742 0.960 . S
C1729 C1726 1.511 . S
C1729 H1743 0.961 . S
C1729 H1744 0.961 . S
C1729 H1745 0.961 . S
C1730 C1731 1.370 . S
C1730 C1732 1.363 . S
C1730 H1746 0.931 . S
C1731 C1730 1.370 . S
C1731 C1735 1.408 . S
C1732 C1730 1.363 . S
C1732 C1733 1.370 . S
C1732 C1736 1.524 . S
C1733 C1725 1.503 . S
C1733 C1732 1.370 . S
C1733 C1734 1.403 . S
C1734 C1733 1.403 . S
C1734 C1735 1.404 . S
C1734 C1737 1.539 . S
C1735 C1731 1.408 . S
C1735 C1734 1.404 . S
C1735 H1747 0.930 . S
C1736 C1732 1.524 . S
C1736 H1748 0.956 . S
C1736 H1749 0.961 . S
C1736 H1750 0.961 . S
C1737 C1734 1.539 . S
C1737 H1751 0.958 . S
C1737 H1752 0.961 . S
C1737 H1753 0.960 . S
H1738 C1722 0.931 . S
H1739 C1727 0.929 . S
H1740 C1728 0.960 . S
H1741 C1728 0.962 . S
H1742 C1728 0.960 . S
H1743 C1729 0.961 . S
H1744 C1729 0.961 . S
H1745 C1729 0.961 . S
H1746 C1730 0.931 . S
H1747 C1735 0.930 . S
H1748 C1736 0.956 . S
H1749 C1736 0.961 . S
H1750 C1736 0.961 . S
H1751 C1737 0.958 . S
H1752 C1737 0.961 . S
H1753 C1737 0.960 . S
C1754 C1755 1.391 . S
C1754 C1756 1.394 . S
C1754 H1770 0.931 . S
C1755 C1754 1.391 . S
C1755 C1759 1.376 . S
C1756 C1754 1.394 . S
C1756 C1757 1.369 . S
C1756 C1760 1.531 . S
C1757 C1756 1.369 . S
C1757 C1758 1.410 . S
C1757 C1765 1.503 . S
C1758 C1757 1.410 . S
C1758 C1759 1.392 . S
C1758 C1761 1.511 . S
C1759 C1755 1.376 . S
C1759 C1758 1.392 . S
C1759 H1771 0.929 . S
C1760 C1756 1.531 . S
C1760 H1772 0.960 . S
C1760 H1773 0.962 . S
C1760 H1774 0.960 . S
C1761 C1758 1.511 . S
C1761 H1775 0.961 . S
C1761 H1776 0.961 . S
C1761 H1777 0.961 . S
C1762 C1763 1.370 . S
C1762 C1764 1.363 . S
C1762 H1778 0.931 . S
C1763 C1762 1.370 . S
C1763 C1767 1.408 . S
C1764 C1762 1.363 . S
C1764 C1765 1.370 . S
C1764 C1768 1.524 . S
C1765 C1757 1.503 . S
C1765 C1764 1.370 . S
C1765 C1766 1.403 . S
C1766 C1765 1.403 . S
C1766 C1767 1.404 . S
C1766 C1769 1.539 . S
C1767 C1763 1.408 . S
C1767 C1766 1.404 . S
C1767 H1779 0.930 . S
C1768 C1764 1.524 . S
C1768 H1780 0.956 . S
C1768 H1781 0.961 . S
C1768 H1782 0.961 . S
C1769 C1766 1.539 . S
C1769 H1783 0.958 . S
C1769 H1784 0.961 . S
C1769 H1785 0.960 . S
H1770 C1754 0.931 . S
H1771 C1759 0.929 . S
H1772 C1760 0.960 . S
H1773 C1760 0.962 . S
H1774 C1760 0.960 . S
H1775 C1761 0.961 . S
H1776 C1761 0.961 . S
H1777 C1761 0.961 . S
H1778 C1762 0.931 . S
H1779 C1767 0.930 . S
H1780 C1768 0.956 . S
H1781 C1768 0.961 . S
H1782 C1768 0.961 . S
H1783 C1769 0.958 . S
H1784 C1769 0.961 . S
H1785 C1769 0.960 . S
C1786 C1787 1.391 . S
C1786 C1788 1.394 . S
C1786 H1802 0.931 . S
C1787 C1786 1.391 . S
C1787 C1791 1.376 . S
C1788 C1786 1.394 . S
C1788 C1789 1.369 . S
C1788 C1792 1.531 . S
C1789 C1788 1.369 . S
C1789 C1790 1.410 . S
C1789 C1797 1.503 . S
C1790 C1789 1.410 . S
C1790 C1791 1.392 . S
C1790 C1793 1.511 . S
C1791 C1787 1.376 . S
C1791 C1790 1.392 . S
C1791 H1803 0.929 . S
C1792 C1788 1.531 . S
C1792 H1804 0.960 . S
C1792 H1805 0.962 . S
C1792 H1806 0.960 . S
C1793 C1790 1.511 . S
C1793 H1807 0.961 . S
C1793 H1808 0.961 . S
C1793 H1809 0.961 . S
C1794 C1795 1.370 . S
C1794 C1796 1.363 . S
C1794 H1810 0.931 . S
C1795 C1794 1.370 . S
C1795 C1799 1.408 . S
C1796 C1794 1.363 . S
C1796 C1797 1.370 . S
C1796 C1800 1.524 . S
C1797 C1789 1.503 . S
C1797 C1796 1.370 . S
C1797 C1798 1.403 . S
C1798 C1797 1.403 . S
C1798 C1799 1.404 . S
C1798 C1801 1.539 . S
C1799 C1795 1.408 . S
C1799 C1798 1.404 . S
C1799 H1811 0.930 . S
C1800 C1796 1.524 . S
C1800 H1812 0.956 . S
C1800 H1813 0.961 . S
C1800 H1814 0.961 . S
C1801 C1798 1.539 . S
C1801 H1815 0.958 . S
C1801 H1816 0.961 . S
C1801 H1817 0.960 . S
H1802 C1786 0.931 . S
H1803 C1791 0.929 . S
H1804 C1792 0.960 . S
H1805 C1792 0.962 . S
H1806 C1792 0.960 . S
H1807 C1793 0.961 . S
H1808 C1793 0.961 . S
H1809 C1793 0.961 . S
H1810 C1794 0.931 . S
H1811 C1799 0.930 . S
H1812 C1800 0.956 . S
H1813 C1800 0.961 . S
H1814 C1800 0.961 . S
H1815 C1801 0.958 . S
H1816 C1801 0.961 . S
H1817 C1801 0.960 . S
C1818 C1819 1.391 . S
C1818 C1820 1.394 . S
C1818 H1834 0.931 . S
C1819 C1818 1.391 . S
C1819 C1823 1.376 . S
C1820 C1818 1.394 . S
C1820 C1821 1.369 . S
C1820 C1824 1.531 . S
C1821 C1820 1.369 . S
C1821 C1822 1.410 . S
C1821 C1829 1.503 . S
C1822 C1821 1.410 . S
C1822 C1823 1.392 . S
C1822 C1825 1.511 . S
C1823 C1819 1.376 . S
C1823 C1822 1.392 . S
C1823 H1835 0.929 . S
C1824 C1820 1.531 . S
C1824 H1836 0.960 . S
C1824 H1837 0.962 . S
C1824 H1838 0.960 . S
C1825 C1822 1.511 . S
C1825 H1839 0.961 . S
C1825 H1840 0.961 . S
C1825 H1841 0.961 . S
C1826 C1827 1.370 . S
C1826 C1828 1.363 . S
C1826 H1842 0.931 . S
C1827 C1826 1.370 . S
C1827 C1831 1.408 . S
C1828 C1826 1.363 . S
C1828 C1829 1.370 . S
C1828 C1832 1.524 . S
C1829 C1821 1.503 . S
C1829 C1828 1.370 . S
C1829 C1830 1.403 . S
C1830 C1829 1.403 . S
C1830 C1831 1.404 . S
C1830 C1833 1.539 . S
C1831 C1827 1.408 . S
C1831 C1830 1.404 . S
C1831 H1843 0.930 . S
C1832 C1828 1.524 . S
C1832 H1844 0.956 . S
C1832 H1845 0.961 . S
C1832 H1846 0.961 . S
C1833 C1830 1.539 . S
C1833 H1847 0.958 . S
C1833 H1848 0.961 . S
C1833 H1849 0.960 . S
H1834 C1818 0.931 . S
H1835 C1823 0.929 . S
H1836 C1824 0.960 . S
H1837 C1824 0.962 . S
H1838 C1824 0.960 . S
H1839 C1825 0.961 . S
H1840 C1825 0.961 . S
H1841 C1825 0.961 . S
H1842 C1826 0.931 . S
H1843 C1831 0.930 . S
H1844 C1832 0.956 . S
H1845 C1832 0.961 . S
H1846 C1832 0.961 . S
H1847 C1833 0.958 . S
H1848 C1833 0.961 . S
H1849 C1833 0.960 . S
C1850 C1851 1.391 . S
C1850 C1852 1.394 . S
C1850 H1866 0.931 . S
C1851 C1850 1.391 . S
C1851 C1855 1.376 . S
C1852 C1850 1.394 . S
C1852 C1853 1.369 . S
C1852 C1856 1.531 . S
C1853 C1852 1.369 . S
C1853 C1854 1.410 . S
C1853 C1861 1.503 . S
C1854 C1853 1.410 . S
C1854 C1855 1.392 . S
C1854 C1857 1.511 . S
C1855 C1851 1.376 . S
C1855 C1854 1.392 . S
C1855 H1867 0.929 . S
C1856 C1852 1.531 . S
C1856 H1868 0.960 . S
C1856 H1869 0.962 . S
C1856 H1870 0.960 . S
C1857 C1854 1.511 . S
C1857 H1871 0.961 . S
C1857 H1872 0.961 . S
C1857 H1873 0.961 . S
C1858 C1859 1.370 . S
C1858 C1860 1.363 . S
C1858 H1874 0.931 . S
C1859 C1858 1.370 . S
C1859 C1863 1.408 . S
C1860 C1858 1.363 . S
C1860 C1861 1.370 . S
C1860 C1864 1.524 . S
C1861 C1853 1.503 . S
C1861 C1860 1.370 . S
C1861 C1862 1.403 . S
C1862 C1861 1.403 . S
C1862 C1863 1.404 . S
C1862 C1865 1.539 . S
C1863 C1859 1.408 . S
C1863 C1862 1.404 . S
C1863 H1875 0.930 . S
C1864 C1860 1.524 . S
C1864 H1876 0.956 . S
C1864 H1877 0.961 . S
C1864 H1878 0.961 . S
C1865 C1862 1.539 . S
C1865 H1879 0.958 . S
C1865 H1880 0.961 . S
C1865 H1881 0.960 . S
H1866 C1850 0.931 . S
H1867 C1855 0.929 . S
H1868 C1856 0.960 . S
H1869 C1856 0.962 . S
H1870 C1856 0.960 . S
H1871 C1857 0.961 . S
H1872 C1857 0.961 . S
H1873 C1857 0.961 . S
H1874 C1858 0.931 . S
H1875 C1863 0.930 . S
H1876 C1864 0.956 . S
H1877 C1864 0.961 . S
H1878 C1864 0.961 . S
H1879 C1865 0.958 . S
H1880 C1865 0.961 . S
H1881 C1865 0.960 . S
C1882 C1883 1.391 . S
C1882 C1884 1.394 . S
C1882 H1898 0.931 . S
C1883 C1882 1.391 . S
C1883 C1887 1.376 . S
C1884 C1882 1.394 . S
C1884 C1885 1.369 . S
C1884 C1888 1.531 . S
C1885 C1884 1.369 . S
C1885 C1886 1.410 . S
C1885 C1893 1.503 . S
C1886 C1885 1.410 . S
C1886 C1887 1.392 . S
C1886 C1889 1.511 . S
C1887 C1883 1.376 . S
C1887 C1886 1.392 . S
C1887 H1899 0.929 . S
C1888 C1884 1.531 . S
C1888 H1900 0.960 . S
C1888 H1901 0.962 . S
C1888 H1902 0.960 . S
C1889 C1886 1.511 . S
C1889 H1903 0.961 . S
C1889 H1904 0.961 . S
C1889 H1905 0.961 . S
C1890 C1891 1.370 . S
C1890 C1892 1.363 . S
C1890 H1906 0.931 . S
C1891 C1890 1.370 . S
C1891 C1895 1.408 . S
C1892 C1890 1.363 . S
C1892 C1893 1.370 . S
C1892 C1896 1.524 . S
C1893 C1885 1.503 . S
C1893 C1892 1.370 . S
C1893 C1894 1.403 . S
C1894 C1893 1.403 . S
C1894 C1895 1.404 . S
C1894 C1897 1.539 . S
C1895 C1891 1.408 . S
C1895 C1894 1.404 . S
C1895 H1907 0.930 . S
C1896 C1892 1.524 . S
C1896 H1908 0.956 . S
C1896 H1909 0.961 . S
C1896 H1910 0.961 . S
C1897 C1894 1.539 . S
C1897 H1911 0.958 . S
C1897 H1912 0.961 . S
C1897 H1913 0.960 . S
H1898 C1882 0.931 . S
H1899 C1887 0.929 . S
H1900 C1888 0.960 . S
H1901 C1888 0.962 . S
H1902 C1888 0.960 . S
H1903 C1889 0.961 . S
H1904 C1889 0.961 . S
H1905 C1889 0.961 . S
H1906 C1890 0.931 . S
H1907 C1895 0.930 . S
H1908 C1896 0.956 . S
H1909 C1896 0.961 . S
H1910 C1896 0.961 . S
H1911 C1897 0.958 . S
H1912 C1897 0.961 . S
H1913 C1897 0.960 . S
C1914 C1915 1.391 . S
C1914 C1916 1.394 . S
C1914 H1930 0.931 . S
C1915 C1914 1.391 . S
C1915 C1919 1.376 . S
C1916 C1914 1.394 . S
C1916 C1917 1.369 . S
C1916 C1920 1.531 . S
C1917 C1916 1.369 . S
C1917 C1918 1.410 . S
C1917 C1925 1.503 . S
C1918 C1917 1.410 . S
C1918 C1919 1.392 . S
C1918 C1921 1.511 . S
C1919 C1915 1.376 . S
C1919 C1918 1.392 . S
C1919 H1931 0.929 . S
C1920 C1916 1.531 . S
C1920 H1932 0.960 . S
C1920 H1933 0.962 . S
C1920 H1934 0.960 . S
C1921 C1918 1.511 . S
C1921 H1935 0.961 . S
C1921 H1936 0.961 . S
C1921 H1937 0.961 . S
C1922 C1923 1.370 . S
C1922 C1924 1.363 . S
C1922 H1938 0.931 . S
C1923 C1922 1.370 . S
C1923 C1927 1.408 . S
C1924 C1922 1.363 . S
C1924 C1925 1.370 . S
C1924 C1928 1.524 . S
C1925 C1917 1.503 . S
C1925 C1924 1.370 . S
C1925 C1926 1.403 . S
C1926 C1925 1.403 . S
C1926 C1927 1.404 . S
C1926 C1929 1.539 . S
C1927 C1923 1.408 . S
C1927 C1926 1.404 . S
C1927 H1939 0.930 . S
C1928 C1924 1.524 . S
C1928 H1940 0.956 . S
C1928 H1941 0.961 . S
C1928 H1942 0.961 . S
C1929 C1926 1.539 . S
C1929 H1943 0.958 . S
C1929 H1944 0.961 . S
C1929 H1945 0.960 . S
H1930 C1914 0.931 . S
H1931 C1919 0.929 . S
H1932 C1920 0.960 . S
H1933 C1920 0.962 . S
H1934 C1920 0.960 . S
H1935 C1921 0.961 . S
H1936 C1921 0.961 . S
H1937 C1921 0.961 . S
H1938 C1922 0.931 . S
H1939 C1927 0.930 . S
H1940 C1928 0.956 . S
H1941 C1928 0.961 . S
H1942 C1928 0.961 . S
H1943 C1929 0.958 . S
H1944 C1929 0.961 . S
H1945 C1929 0.960 . S
C1946 C1947 1.391 . S
C1946 C1948 1.394 . S
C1946 H1962 0.931 . S
C1947 C1946 1.391 . S
C1947 C1951 1.376 . S
C1948 C1946 1.394 . S
C1948 C1949 1.369 . S
C1948 C1952 1.531 . S
C1949 C1948 1.369 . S
C1949 C1950 1.410 . S
C1949 C1957 1.503 . S
C1950 C1949 1.410 . S
C1950 C1951 1.392 . S
C1950 C1953 1.511 . S
C1951 C1947 1.376 . S
C1951 C1950 1.392 . S
C1951 H1963 0.929 . S
C1952 C1948 1.531 . S
C1952 H1964 0.960 . S
C1952 H1965 0.962 . S
C1952 H1966 0.960 . S
C1953 C1950 1.511 . S
C1953 H1967 0.961 . S
C1953 H1968 0.961 . S
C1953 H1969 0.961 . S
C1954 C1955 1.370 . S
C1954 C1956 1.363 . S
C1954 H1970 0.931 . S
C1955 C1954 1.370 . S
C1955 C1959 1.408 . S
C1956 C1954 1.363 . S
C1956 C1957 1.370 . S
C1956 C1960 1.524 . S
C1957 C1949 1.503 . S
C1957 C1956 1.370 . S
C1957 C1958 1.403 . S
C1958 C1957 1.403 . S
C1958 C1959 1.404 . S
C1958 C1961 1.539 . S
C1959 C1955 1.408 . S
C1959 C1958 1.404 . S
C1959 H1971 0.930 . S
C1960 C1956 1.524 . S
C1960 H1972 0.956 . S
C1960 H1973 0.961 . S
C1960 H1974 0.961 . S
C1961 C1958 1.539 . S
C1961 H1975 0.958 . S
C1961 H1976 0.961 . S
C1961 H1977 0.960 . S
H1962 C1946 0.931 . S
H1963 C1951 0.929 . S
H1964 C1952 0.960 . S
H1965 C1952 0.962 . S
H1966 C1952 0.960 . S
H1967 C1953 0.961 . S
H1968 C1953 0.961 . S
H1969 C1953 0.961 . S
H1970 C1954 0.931 . S
H1971 C1959 0.930 . S
H1972 C1960 0.956 . S
H1973 C1960 0.961 . S
H1974 C1960 0.961 . S
H1975 C1961 0.958 . S
H1976 C1961 0.961 . S
H1977 C1961 0.960 . S
C1978 C1979 1.391 . S
C1978 C1980 1.394 . S
C1978 H1994 0.931 . S
C1979 C1978 1.391 . S
C1979 C1983 1.376 . S
C1980 C1978 1.394 . S
C1980 C1981 1.369 . S
C1980 C1984 1.531 . S
C1981 C1980 1.369 . S
C1981 C1982 1.410 . S
C1981 C1989 1.503 . S
C1982 C1981 1.410 . S
C1982 C1983 1.392 . S
C1982 C1985 1.511 . S
C1983 C1979 1.376 . S
C1983 C1982 1.392 . S
C1983 H1995 0.929 . S
C1984 C1980 1.531 . S
C1984 H1996 0.960 . S
C1984 H1997 0.962 . S
C1984 H1998 0.960 . S
C1985 C1982 1.511 . S
C1985 H1999 0.961 . S
C1985 H2000 0.961 . S
C1985 H2001 0.961 . S
C1986 C1987 1.370 . S
C1986 C1988 1.363 . S
C1986 H2002 0.931 . S
C1987 C1986 1.370 . S
C1987 C1991 1.408 . S
C1988 C1986 1.363 . S
C1988 C1989 1.370 . S
C1988 C1992 1.524 . S
C1989 C1981 1.503 . S
C1989 C1988 1.370 . S
C1989 C1990 1.403 . S
C1990 C1989 1.403 . S
C1990 C1991 1.404 . S
C1990 C1993 1.539 . S
C1991 C1987 1.408 . S
C1991 C1990 1.404 . S
C1991 H2003 0.930 . S
C1992 C1988 1.524 . S
C1992 H2004 0.956 . S
C1992 H2005 0.961 . S
C1992 H2006 0.961 . S
C1993 C1990 1.539 . S
C1993 H2007 0.958 . S
C1993 H2008 0.961 . S
C1993 H2009 0.960 . S
H1994 C1978 0.931 . S
H1995 C1983 0.929 . S
H1996 C1984 0.960 . S
H1997 C1984 0.962 . S
H1998 C1984 0.960 . S
H1999 C1985 0.961 . S
H2000 C1985 0.961 . S
H2001 C1985 0.961 . S
H2002 C1986 0.931 . S
H2003 C1991 0.930 . S
H2004 C1992 0.956 . S
H2005 C1992 0.961 . S
H2006 C1992 0.961 . S
H2007 C1993 0.958 . S
H2008 C1993 0.961 . S
H2009 C1993 0.960 . S
C2010 C2011 1.391 . S
C2010 C2012 1.394 . S
C2010 H2026 0.931 . S
C2011 C2010 1.391 . S
C2011 C2015 1.376 . S
C2012 C2010 1.394 . S
C2012 C2013 1.369 . S
C2012 C2016 1.531 . S
C2013 C2012 1.369 . S
C2013 C2014 1.410 . S
C2013 C2021 1.503 . S
C2014 C2013 1.410 . S
C2014 C2015 1.392 . S
C2014 C2017 1.511 . S
C2015 C2011 1.376 . S
C2015 C2014 1.392 . S
C2015 H2027 0.929 . S
C2016 C2012 1.531 . S
C2016 H2028 0.960 . S
C2016 H2029 0.962 . S
C2016 H2030 0.960 . S
C2017 C2014 1.511 . S
C2017 H2031 0.961 . S
C2017 H2032 0.961 . S
C2017 H2033 0.961 . S
C2018 C2019 1.370 . S
C2018 C2020 1.363 . S
C2018 H2034 0.931 . S
C2019 C2018 1.370 . S
C2019 C2023 1.408 . S
C2020 C2018 1.363 . S
C2020 C2021 1.370 . S
C2020 C2024 1.524 . S
C2021 C2013 1.503 . S
C2021 C2020 1.370 . S
C2021 C2022 1.403 . S
C2022 C2021 1.403 . S
C2022 C2023 1.404 . S
C2022 C2025 1.539 . S
C2023 C2019 1.408 . S
C2023 C2022 1.404 . S
C2023 H2035 0.930 . S
C2024 C2020 1.524 . S
C2024 H2036 0.956 . S
C2024 H2037 0.961 . S
C2024 H2038 0.961 . S
C2025 C2022 1.539 . S
C2025 H2039 0.958 . S
C2025 H2040 0.961 . S
C2025 H2041 0.960 . S
H2026 C2010 0.931 . S
H2027 C2015 0.929 . S
H2028 C2016 0.960 . S
H2029 C2016 0.962 . S
H2030 C2016 0.960 . S
H2031 C2017 0.961 . S
H2032 C2017 0.961 . S
H2033 C2017 0.961 . S
H2034 C2018 0.931 . S
H2035 C2023 0.930 . S
H2036 C2024 0.956 . S
H2037 C2024 0.961 . S
H2038 C2024 0.961 . S
H2039 C2025 0.958 . S
H2040 C2025 0.961 . S
H2041 C2025 0.960 . S
C515 C331 1.921 . S
C507 C3 1.957 . S
C547 C321 0.989 . S
C539 C49 1.001 . S
C579 C322 1.020 . S
C571 C95 1.015 . S
C603 C146 0.358 . S
C611 C344 0.566 . S
C635 C186 1.151 . S
C643 C347 1.107 . S
C675 C330 0.999 . S
C667 C215 1.037 . S
C699 C249 0.540 . S
C707 C320 0.520 . S
C731 C302 1.946 . S
C739 C338 1.923 . S
C771 C351 3.201 . S
C763 C2 3.311 . S
C795 C43 2.195 . S
C803 C400 2.136 . S
C835 C378 3.287 . S
C827 C102 3.313 . S
C867 C392 1.312 . S
C859 C135 1.352 . S
C891 C175 1.327 . S
C899 C353 1.338 . S
C931 C406 2.213 . S
C923 C222 2.283 . S
C955 C243 2.173 . S
C963 C362 2.164 . S
C987 C306 1.472 . S
C995 C383 1.356 . S
C1019 C9 0.959 . S
C1027 C409 0.908 . S
C1051 C182 1.687 . S
C1059 C393 1.654 . S
C1091 C352 1.664 . S
C1083 C226 1.685 . S
C1123 C384 0.731 . S
C1115 C242 0.766 . S
C1147 C295 2.867 . S
C1155 C375 2.814 . S
C1179 C106 0.846 . S
C1187 C382 0.843 . S
C1219 C369 1.658 . S
C1211 C142 1.699 . S
C1243 C42 0.761 . S
C1251 C361 0.708 . S
C1275 C283 1.923 . S
C1283 C424 1.927 . S
C1307 C169 1.111 . S
C1315 C414 1.131 . S
C1347 C415 0.999 . S
C1339 C202 1.040 . S
C1379 C437 0.544 . S
C1371 C266 0.519 . S
C1403 C66 0.952 . S
C1411 C440 0.992 . S
C1443 C423 1.028 . S
C1435 C82 1.050 . S
C1467 C129 0.367 . S
C1475 C413 0.525 . S
C1499 C22 1.940 . S
C1507 C431 1.930 . S
C1531 C282 2.870 . S
C1539 C444 2.815 . S
C1571 C493 1.641 . S
C1563 C163 1.696 . S
C1595 C209 1.647 . S
C1603 C471 1.665 . S
C1627 C255 0.749 . S
C1635 C485 0.739 . S
C1667 C446 0.714 . S
C1659 C55 0.772 . S
C1691 C89 0.840 . S
C1699 C499 0.878 . S
C1731 C455 1.639 . S
C1723 C123 1.697 . S
C1763 C476 0.895 . S
C1755 C26 0.977 . S
C1795 C502 1.384 . S
C1787 C289 1.420 . S
C1819 C62 2.195 . S
C1827 C486 2.133 . S
C1851 C83 3.315 . S
C1859 C445 3.287 . S
C1891 C477 1.340 . S
C1883 C122 1.382 . S
C1915 C15 3.303 . S
C1923 C468 3.190 . S
C1947 C203 2.274 . S
C1955 C475 2.223 . S
C1987 C462 2.164 . S
C1979 C262 2.178 . S
C2019 C454 1.324 . S
C2011 C162 1.340 . S
