# Generated by pormake.
# Topology pyr, (3,6)-cn, num edge types: 1
# Building blocks:
#     Node 0, Type 0, BuildingBlock: OLANEW_clean_sbu_2, # of connection points: 3
#     Node 1, Type 0, BuildingBlock: OLANEW_clean_sbu_2, # of connection points: 3
#     Node 2, Type 0, BuildingBlock: OLANEW_clean_sbu_2, # of connection points: 3
#     Node 3, Type 0, BuildingBlock: OLANEW_clean_sbu_2, # of connection points: 3
#     Node 4, Type 0, BuildingBlock: OLANEW_clean_sbu_2, # of connection points: 3
#     Node 5, Type 0, BuildingBlock: OLANEW_clean_sbu_2, # of connection points: 3
#     Node 6, Type 0, BuildingBlock: OLANEW_clean_sbu_2, # of connection points: 3
#     Node 7, Type 0, BuildingBlock: OLANEW_clean_sbu_2, # of connection points: 3
#     Node 8, Type 1, BuildingBlock: CIFDUS_clean_sbu_1, # of connection points: 6
#     Node 9, Type 1, BuildingBlock: CIFDUS_clean_sbu_1, # of connection points: 6
#     Node 10, Type 1, BuildingBlock: CIFDUS_clean_sbu_1, # of connection points: 6
#     Node 11, Type 1, BuildingBlock: CIFDUS_clean_sbu_1, # of connection points: 6
#     Edge 12, Type (0, 1), BuildingBlock: UVAHIK_clean_linker_0, # of connection points: 2
#     Edge 13, Type (0, 1), BuildingBlock: UVAHIK_clean_linker_0, # of connection points: 2
#     Edge 14, Type (0, 1), BuildingBlock: UVAHIK_clean_linker_0, # of connection points: 2
#     Edge 15, Type (0, 1), BuildingBlock: UVAHIK_clean_linker_0, # of connection points: 2
#     Edge 16, Type (0, 1), BuildingBlock: UVAHIK_clean_linker_0, # of connection points: 2
#     Edge 17, Type (0, 1), BuildingBlock: UVAHIK_clean_linker_0, # of connection points: 2
#     Edge 18, Type (0, 1), BuildingBlock: UVAHIK_clean_linker_0, # of connection points: 2
#     Edge 19, Type (0, 1), BuildingBlock: UVAHIK_clean_linker_0, # of connection points: 2
#     Edge 20, Type (0, 1), BuildingBlock: UVAHIK_clean_linker_0, # of connection points: 2
#     Edge 21, Type (0, 1), BuildingBlock: UVAHIK_clean_linker_0, # of connection points: 2
#     Edge 22, Type (0, 1), BuildingBlock: UVAHIK_clean_linker_0, # of connection points: 2
#     Edge 23, Type (0, 1), BuildingBlock: UVAHIK_clean_linker_0, # of connection points: 2
#     Edge 24, Type (0, 1), BuildingBlock: UVAHIK_clean_linker_0, # of connection points: 2
#     Edge 25, Type (0, 1), BuildingBlock: UVAHIK_clean_linker_0, # of connection points: 2
#     Edge 26, Type (0, 1), BuildingBlock: UVAHIK_clean_linker_0, # of connection points: 2
#     Edge 27, Type (0, 1), BuildingBlock: UVAHIK_clean_linker_0, # of connection points: 2
#     Edge 28, Type (0, 1), BuildingBlock: UVAHIK_clean_linker_0, # of connection points: 2
#     Edge 29, Type (0, 1), BuildingBlock: UVAHIK_clean_linker_0, # of connection points: 2
#     Edge 30, Type (0, 1), BuildingBlock: UVAHIK_clean_linker_0, # of connection points: 2
#     Edge 31, Type (0, 1), BuildingBlock: UVAHIK_clean_linker_0, # of connection points: 2
#     Edge 32, Type (0, 1), BuildingBlock: UVAHIK_clean_linker_0, # of connection points: 2
#     Edge 33, Type (0, 1), BuildingBlock: UVAHIK_clean_linker_0, # of connection points: 2
#     Edge 34, Type (0, 1), BuildingBlock: UVAHIK_clean_linker_0, # of connection points: 2
#     Edge 35, Type (0, 1), BuildingBlock: UVAHIK_clean_linker_0, # of connection points: 2
# Relax obj value: 0.069
# Max RMSD: 0.150
# Mean RMSD: 0.123
data_MOF--net-pry--node1-OLANEW_clean_sbu_2--node2-CIFDUS_clean_sbu_1--edge1-UVAHIK_clean_linker_0
_symmetry_space_group_name_H-M    P1
_symmetry_Int_Tables_number       1
_symmetry_cell_setting            triclinic
loop_
_symmetry_equiv_pos_as_xyz
'x, y, z'
_cell_length_a     50.130665
_cell_length_b     48.75577
_cell_length_c     47.327478
_cell_angle_alpha  96.174118
_cell_angle_beta   90.604245
_cell_angle_gamma 99.066498
loop_
_atom_site_label
_atom_site_type_symbol
_atom_site_fract_x
_atom_site_fract_y
_atom_site_fract_z
_atom_type_partial_charge
O0 O 0.18662 0.15539 0.14992 0.0
Cd1 Cd 0.15268 0.18278 0.17005 0.0
O2 O 0.19135 0.13109 0.18608 0.0
Cd3 Cd 0.16292 0.14538 0.21724 0.0
O4 O 0.14342 0.14158 0.25849 0.0
C5 C 0.12804 0.11869 0.26121 0.0
O6 O 0.12371 0.09962 0.23912 0.0
C7 C 0.19768 0.13727 0.16127 0.0
C8 C 0.13398 0.21762 0.13297 0.0
O9 O 0.15577 0.22563 0.14803 0.0
O10 O 0.1212 0.19301 0.13501 0.0
O11 O 0.45586 0.95195 0.68919 0.0
Cd12 Cd 0.46335 0.94598 0.63799 0.0
O13 O 0.41425 0.95833 0.6817 0.0
Cd14 Cd 0.37199 0.96248 0.68946 0.0
O15 O 0.32915 0.95807 0.67661 0.0
C16 C 0.32349 0.95676 0.65016 0.0
O17 O 0.34336 0.95861 0.63223 0.0
C18 C 0.43338 0.95681 0.69906 0.0
C19 C 0.4762 0.89341 0.6194 0.0
O20 O 0.49454 0.91364 0.62927 0.0
O21 O 0.45175 0.898 0.61836 0.0
O22 O 0.71816 0.35622 0.8237 0.0
Cd23 Cd 0.68231 0.34086 0.78709 0.0
O24 O 0.71513 0.31319 0.83414 0.0
Cd25 Cd 0.72037 0.27827 0.85813 0.0
O26 O 0.70656 0.23838 0.87495 0.0
C27 C 0.68118 0.23011 0.87311 0.0
O28 O 0.66582 0.24572 0.86171 0.0
C29 C 0.72566 0.33879 0.83906 0.0
C30 C 0.6812 0.37552 0.74379 0.0
O31 O 0.67163 0.38168 0.76824 0.0
O32 O 0.69185 0.35322 0.73983 0.0
O33 O 0.00349 0.67499 0.41335 0.0
Cd34 Cd 0.00166 0.63244 0.38022 0.0
O35 O 0.97136 0.65471 0.43872 0.0
Cd36 Cd 0.94033 0.65404 0.47104 0.0
O37 O 0.89979 0.64973 0.48845 0.0
C38 C 0.88238 0.6601 0.47506 0.0
O39 O 0.89012 0.67334 0.45304 0.0
C40 C 0.98859 0.676 0.4349 0.0
C41 C 0.98475 0.63481 0.32408 0.0
O42 O 0.00904 0.64461 0.33275 0.0
O43 O 0.96814 0.6247 0.34215 0.0
O44 O 0.87456 0.85226 0.88637 0.0
Cd45 Cd 0.86125 0.83792 0.93328 0.0
O46 O 0.84204 0.87752 0.88226 0.0
Cd47 Cd 0.82233 0.87618 0.92333 0.0
O48 O 0.79266 0.89275 0.9516 0.0
C49 C 0.78858 0.91748 0.94895 0.0
O50 O 0.8028 0.9316 0.93057 0.0
C51 C 0.86227 0.8674 0.87206 0.0
C52 C 0.88489 0.79299 0.94928 0.0
O53 O 0.86302 0.78887 0.93407 0.0
O54 O 0.89585 0.81835 0.95674 0.0
O55 O 0.62949 0.08717 0.41623 0.0
Cd56 Cd 0.64664 0.10484 0.46473 0.0
O57 O 0.61039 0.12435 0.42207 0.0
Cd58 Cd 0.58809 0.15927 0.41901 0.0
O59 O 0.57814 0.20142 0.4284 0.0
C60 C 0.56977 0.2093 0.45277 0.0
O61 O 0.56596 0.19136 0.47173 0.0
C62 C 0.61418 0.10249 0.40628 0.0
C63 C 0.69619 0.09186 0.48209 0.0
O64 O 0.67391 0.07588 0.48582 0.0
O65 O 0.69514 0.11356 0.4693 0.0
O66 O 0.3405 0.79728 0.29286 0.0
Cd67 Cd 0.32115 0.75533 0.31461 0.0
O68 O 0.31713 0.77782 0.25475 0.0
Cd69 Cd 0.29964 0.76805 0.21128 0.0
O70 O 0.27301 0.74593 0.17613 0.0
C71 C 0.28178 0.73209 0.15486 0.0
O72 O 0.30791 0.732 0.15308 0.0
C73 C 0.33333 0.79847 0.26721 0.0
C74 C 0.35586 0.7343 0.35043 0.0
O75 O 0.35576 0.72825 0.32339 0.0
O76 O 0.33998 0.75085 0.3606 0.0
O77 O 0.15708 0.4669 0.68749 0.0
Cd78 Cd 0.15749 0.4658 0.63563 0.0
O79 O 0.13337 0.42536 0.67878 0.0
Cd80 Cd 0.11061 0.38353 0.68119 0.0
O81 O 0.09356 0.34146 0.66201 0.0
C82 C 0.06924 0.33523 0.65265 0.0
O83 O 0.05321 0.35415 0.65594 0.0
C84 C 0.14447 0.44518 0.6969 0.0
C85 C 0.20969 0.47211 0.61494 0.0
O86 O 0.19711 0.49307 0.61912 0.0
O87 O 0.19758 0.44822 0.62053 0.0
O88 O 0.96684 0.01733 0.56892 0.0
Mn89 Mn 0.00162 0.99848 0.57181 0.0
O90 O 0.93924 0.99083 0.53527 0.0
Mn91 Mn 0.96513 0.97108 0.51999 0.0
O92 O 0.03664 0.98033 0.57566 0.0
O93 O 0.0198 0.03331 0.59453 0.0
Mn94 Mn 0.03404 0.02631 0.62655 0.0
O95 O 0.98591 0.98191 0.60871 0.0
O96 O 0.05839 0.0025 0.61583 0.0
O97 O 0.01669 0.01477 0.53455 0.0
O98 O 0.9907 0.99027 0.49833 0.0
O99 O 0.04259 0.06454 0.62509 0.0
O100 O 0.005 0.01065 0.64632 0.0
C101 C 0.9755 0.93716 0.54073 0.0
C102 C 0.94411 0.01089 0.55507 0.0
C103 C 0.05633 0.98424 0.59413 0.0
C104 C 0.02927 0.0593 0.60106 0.0
C105 C 0.98762 0.99014 0.63557 0.0
C106 C 0.01071 0.00867 0.50778 0.0
O107 O 0.98353 0.96324 0.54909 0.0
O108 O 0.95993 0.93264 0.51819 0.0
O109 O 0.48266 0.0109 0.01602 0.0
Mn110 Mn 0.49184 0.02037 0.05984 0.0
O111 O 0.4787 0.96409 0.00674 0.0
Mn112 Mn 0.48954 0.95679 0.04233 0.0
O113 O 0.50089 0.03004 0.10349 0.0
O114 O 0.50691 0.05956 0.05349 0.0
Mn115 Mn 0.49271 0.08386 0.07636 0.0
O116 O 0.45265 0.03049 0.06553 0.0
O117 O 0.50095 0.07641 0.11289 0.0
O118 O 0.53083 0.01013 0.05394 0.0
O119 O 0.52649 0.96318 0.04938 0.0
O120 O 0.5187 0.10426 0.05605 0.0
O121 O 0.45647 0.07715 0.06598 0.0
C122 C 0.46291 0.96068 0.07733 0.0
C123 C 0.47774 0.98817 0.99889 0.0
C124 C 0.50366 0.05269 0.12075 0.0
C125 C 0.52279 0.08003 0.0446 0.0
C126 C 0.44223 0.05297 0.06494 0.0
C127 C 0.541 0.98733 0.05179 0.0
O128 O 0.47701 0.98121 0.06658 0.0
O129 O 0.46586 0.9364 0.06501 0.0
O130 O 0.58412 0.57211 0.52295 0.0
Mn131 Mn 0.54384 0.55834 0.5322 0.0
O132 O 0.58685 0.56799 0.47518 0.0
Mn133 Mn 0.55292 0.54683 0.46712 0.0
O134 O 0.50354 0.54457 0.5413 0.0
O135 O 0.556 0.55582 0.57247 0.0
Mn136 Mn 0.53432 0.57108 0.59641 0.0
O137 O 0.53834 0.59993 0.54229 0.0
O138 O 0.50063 0.54934 0.58902 0.0
O139 O 0.54875 0.51651 0.52134 0.0
O140 O 0.54998 0.5097 0.4735 0.0
O141 O 0.55998 0.55957 0.61852 0.0
O142 O 0.53719 0.60824 0.58993 0.0
C143 C 0.51858 0.56842 0.472 0.0
C144 C 0.59727 0.57572 0.50008 0.0
C145 C 0.49042 0.54112 0.56417 0.0
C146 C 0.56936 0.55087 0.59439 0.0
C147 C 0.53721 0.61634 0.56524 0.0
C148 C 0.54995 0.5007 0.49787 0.0
O149 O 0.53215 0.56118 0.49235 0.0
O150 O 0.52671 0.56056 0.44705 0.0
O151 O 0.97872 0.47571 1.00394 0.0
Mn152 Mn 0.01832 0.49714 0.01125 0.0
O153 O 0.96726 0.47995 0.95856 0.0
Mn154 Mn 0.99792 0.50428 0.95094 0.0
O155 O 0.05768 0.5186 0.01918 0.0
O156 O 0.01205 0.50011 0.05319 0.0
Mn157 Mn 0.03772 0.48737 0.07109 0.0
O158 O 0.0317 0.45803 0.01177 0.0
O159 O 0.06938 0.5105 0.06336 0.0
O160 O 0.00502 0.53621 0.01022 0.0
O161 O 0.99866 0.54137 0.96403 0.0
O162 O 0.01516 0.49929 0.09876 0.0
O163 O 0.03554 0.45029 0.05749 0.0
C164 C 0.03504 0.4884 0.94483 0.0
C165 C 0.96224 0.47043 0.9823 0.0
C166 C 0.07447 0.52198 0.04054 0.0
C167 C 0.00245 0.50681 0.07769 0.0
C168 C 0.03537 0.44215 0.03108 0.0
C169 C 1.00017 0.55091 0.99021 0.0
O170 O 0.02477 0.49397 0.96927 0.0
O171 O 0.02107 0.49357 0.92345 0.0
C172 C 0.12441 0.13012 0.31423 0.0
C173 C 0.11617 0.1127 0.28895 0.0
C174 C 0.11389 0.1233 0.34042 0.0
C175 C 0.05571 0.0808 0.37079 0.0
H176 H 0.10318 0.08069 0.43606 0.0
C177 C 0.02393 0.0121 0.45753 0.0
C178 C 0.02677 0.02358 0.48619 0.0
C179 C 0.03609 0.02669 0.43614 0.0
C180 C 0.08964 0.08107 0.41816 0.0
H181 H 0.09022 0.07465 0.27147 0.0
H182 H 0.07194 0.06295 0.31674 0.0
H183 H 0.12152 0.09997 0.3931 0.0
H184 H 0.04596 0.05908 0.51484 0.0
H185 H 0.06769 0.0848 0.47688 0.0
H186 H 0.02405 0.06125 0.39525 0.0
C187 C 0.08637 0.08195 0.31644 0.0
C188 C 0.10011 0.09208 0.39358 0.0
C189 C 0.09698 0.0886 0.29043 0.0
C190 C 0.04334 0.04966 0.49299 0.0
C191 C 0.05572 0.06438 0.47131 0.0
C192 C 0.04534 0.06985 0.39518 0.0
C193 C 0.09469 0.09914 0.34178 0.0
C194 C 0.08336 0.09124 0.36931 0.0
C195 C 0.05156 0.05327 0.44259 0.0
C196 C 0.0623 0.06902 0.41881 0.0
H197 H 0.13925 0.14879 0.31384 0.0
H198 H 0.12062 0.13701 0.35955 0.0
H199 H 0.04212 0.08045 0.35275 0.0
H200 H 0.01178 0.99186 0.4514 0.0
H201 H 0.03307 0.01723 0.41432 0.0
C202 C 0.41574 0.98024 0.74342 0.0
C203 C 0.43019 0.96015 0.7302 0.0
C204 C 0.41599 0.98551 0.7732 0.0
C205 C 0.42532 0.95388 0.83821 0.0
H206 H 0.45823 0.027 0.8737 0.0
C207 C 0.47337 0.96594 0.94881 0.0
C208 C 0.47065 0.98903 0.96846 0.0
C209 C 0.46505 0.96484 0.92051 0.0
C210 C 0.44849 0.00663 0.86423 0.0
H211 H 0.45535 0.92919 0.73756 0.0
H212 H 0.45484 0.93753 0.78928 0.0
H213 H 0.44774 0.01996 0.82239 0.0
H214 H 0.45791 0.0297 0.97334 0.0
H215 H 0.44291 0.02764 0.92337 0.0
H216 H 0.42614 0.94023 0.87953 0.0
C217 C 0.44368 0.94949 0.77677 0.0
C218 C 0.44251 0.00262 0.83488 0.0
C219 C 0.44399 0.94474 0.74719 0.0
C220 C 0.46019 0.01157 0.95874 0.0
C221 C 0.45162 0.01038 0.93015 0.0
C222 C 0.43095 0.95792 0.86743 0.0
C223 C 0.43008 0.97019 0.79009 0.0
C224 C 0.43171 0.97596 0.82152 0.0
C225 C 0.45347 0.98667 0.91085 0.0
C226 C 0.4436 0.98405 0.88067 0.0
H227 H 0.40524 0.99265 0.73077 0.0
H228 H 0.40536 1.00158 0.78304 0.0
H229 H 0.41671 0.9332 0.82846 0.0
H230 H 0.48185 0.94841 0.95529 0.0
H231 H 0.46773 0.94669 0.90614 0.0
C232 C 0.67782 0.38151 0.69197 0.0
C233 C 0.67896 0.39312 0.72056 0.0
C234 C 0.67311 0.39762 0.67018 0.0
C235 C 0.67744 0.469 0.65167 0.0
H236 H 0.60967 0.44402 0.60959 0.0
C237 C 0.61289 0.54454 0.61522 0.0
C238 C 0.59281 0.53602 0.59385 0.0
C239 C 0.63061 0.52669 0.6218 0.0
C240 C 0.6291 0.4511 0.62033 0.0
H241 H 0.67729 0.4309 0.7487 0.0
H242 H 0.66998 0.45923 0.71058 0.0
H243 H 0.62747 0.41276 0.6391 0.0
H244 H 0.57691 0.50312 0.561 0.0
H245 H 0.60845 0.47189 0.57176 0.0
H246 H 0.6791 0.50743 0.63336 0.0
C247 C 0.67243 0.43763 0.70508 0.0
C248 C 0.63918 0.43316 0.63743 0.0
C249 C 0.67644 0.42139 0.72687 0.0
C250 C 0.59242 0.51034 0.57726 0.0
C251 C 0.61025 0.49229 0.58384 0.0
C252 C 0.66769 0.48675 0.63414 0.0
C253 C 0.67024 0.42578 0.67659 0.0
C254 C 0.6628 0.44242 0.65418 0.0
C255 C 0.62867 0.49972 0.60718 0.0
C256 C 0.64266 0.47858 0.61936 0.0
H257 H 0.67955 0.35973 0.68651 0.0
H258 H 0.6714 0.38802 0.64836 0.0
H259 H 0.69592 0.47645 0.66413 0.0
H260 H 0.61354 0.56425 0.62841 0.0
H261 H 0.64418 0.5333 0.64006 0.0
C262 C 0.95528 0.61294 0.28203 0.0
C263 C 0.9769 0.63304 0.2936 0.0
C264 C 0.95056 0.60804 0.25259 0.0
C265 C 0.9889 0.61608 0.18678 0.0
H266 H 0.92093 0.57812 0.15164 0.0
C267 C 0.99223 0.55479 0.0802 0.0
C268 C 0.98345 0.52659 0.08356 0.0
C269 C 0.98316 0.57579 0.0984 0.0
C270 C 0.93997 0.58909 0.16102 0.0
H271 H 0.009 0.66552 0.28367 0.0
H272 H 1.00002 0.65802 0.23249 0.0
H273 H 0.92175 0.60142 0.20009 0.0
H274 H 0.95588 0.49807 0.10559 0.0
H275 H 0.93958 0.53439 0.13681 0.0
H276 H 0.00726 0.60302 0.14825 0.0
C277 C 0.98736 0.64511 0.24592 0.0
C278 C 0.94054 0.60222 0.18891 0.0
C279 C 0.99243 0.64958 0.27532 0.0
C280 C 0.96263 0.51971 0.10235 0.0
C281 C 0.9534 0.54063 0.12037 0.0
C282 C 0.98826 0.60333 0.15888 0.0
C283 C 0.96706 0.62349 0.234 0.0
C284 C 0.96522 0.61481 0.20264 0.0
C285 C 0.9652 0.56874 0.12012 0.0
C286 C 0.96401 0.58863 0.14607 0.0
H287 H 0.94298 0.59981 0.29557 0.0
H288 H 0.93495 0.59099 0.24447 0.0
H289 H 0.00841 0.62511 0.19644 0.0
H290 H 0.00867 0.56062 0.06625 0.0
H291 H 0.99231 0.59732 0.09742 0.0
C292 C 0.22921 0.13272 0.12054 0.0
C293 C 0.21886 0.12376 0.14609 0.0
C294 C 0.25046 0.12119 0.10745 0.0
C295 C 0.28842 0.06133 0.1055 0.0
H296 H 0.34725 0.11479 0.08195 0.0
C297 C 0.39706 0.03684 0.08498 0.0
C298 C 0.41266 0.05203 0.06569 0.0
C299 C 0.37071 0.0418 0.09074 0.0
C300 C 0.33085 0.09937 0.0878 0.0
H301 H 0.22221 0.09482 0.17728 0.0
H302 H 0.25922 0.07491 0.15454 0.0
H303 H 0.3064 0.13077 0.09929 0.0
H304 H 0.41229 0.08215 0.03532 0.0
H305 H 0.36615 0.08972 0.04413 0.0
H306 H 0.31318 0.02993 0.09425 0.0
C307 C 0.25083 0.09073 0.14453 0.0
C308 C 0.30737 0.10863 0.09785 0.0
C309 C 0.22971 0.10234 0.15769 0.0
C310 C 0.40074 0.07036 0.0505 0.0
C311 C 0.37439 0.07492 0.05583 0.0
C312 C 0.31195 0.05199 0.09525 0.0
C313 C 0.26177 0.10032 0.1195 0.0
C314 C 0.28593 0.08981 0.10705 0.0
C315 C 0.35946 0.06178 0.07701 0.0
C316 C 0.33357 0.07094 0.08641 0.0
H317 H 0.2213 0.14906 0.11092 0.0
H318 H 0.25822 0.12881 0.08799 0.0
H319 H 0.27217 0.04624 0.11222 0.0
H320 H 0.4059 0.02276 0.09715 0.0
H321 H 0.35989 0.03129 0.10721 0.0
C322 C 0.28922 0.95408 0.61053 0.0
C323 C 0.29506 0.95306 0.63951 0.0
C324 C 0.26247 0.9509 0.6004 0.0
C325 C 0.19193 0.92467 0.61815 0.0
H326 H 0.17345 0.97919 0.57048 0.0
C327 C 0.08787 0.95751 0.61531 0.0
C328 C 0.07836 0.96748 0.591 0.0
C329 C 0.11273 0.94818 0.61549 0.0
C330 C 0.17825 0.9633 0.58315 0.0
H331 H 0.27727 0.94749 0.68048 0.0
H332 H 0.2306 0.94203 0.66282 0.0
H333 H 0.22068 0.9786 0.58265 0.0
H334 H 0.08629 0.97371 0.54713 0.0
H335 H 0.13019 0.95721 0.54728 0.0
H336 H 0.14946 0.90988 0.61932 0.0
C337 C 0.24674 0.94506 0.64788 0.0
C338 C 0.20538 0.96307 0.59027 0.0
C339 C 0.2735 0.94842 0.65806 0.0
C340 C 0.09317 0.96592 0.56606 0.0
C341 C 0.11838 0.95679 0.5663 0.0
C342 C 0.16483 0.9248 0.61092 0.0
C343 C 0.24091 0.94641 0.61895 0.0
C344 C 0.21246 0.94432 0.60856 0.0
C345 C 0.12887 0.94881 0.5914 0.0
C346 C 0.15759 0.94472 0.59409 0.0
H347 H 0.30533 0.95753 0.59562 0.0
H348 H 0.25866 0.95185 0.57798 0.0
H349 H 0.19678 0.90956 0.63178 0.0
H350 H 0.07678 0.95857 0.63483 0.0
H351 H 0.12013 0.94248 0.63528 0.0
C352 C 0.7653 0.33283 0.86944 0.0
C353 C 0.74569 0.34881 0.86253 0.0
C354 C 0.78593 0.34399 0.8896 0.0
C355 C 0.82059 0.41325 0.92271 0.0
H356 H 0.85792 0.36865 0.96802 0.0
C357 C 0.91308 0.46511 0.99034 0.0
C358 C 0.93597 0.45263 0.98405 0.0
C359 C 0.88724 0.45037 0.98309 0.0
C360 C 0.84757 0.38136 0.95559 0.0
H361 H 0.73112 0.38814 0.87249 0.0
H362 H 0.76605 0.40707 0.90849 0.0
H363 H 0.81704 0.34684 0.94044 0.0
H364 H 0.95015 0.41481 0.96677 0.0
H365 H 0.90498 0.3888 0.95435 0.0
H366 H 0.85111 0.44763 0.93754 0.0
C367 C 0.76643 0.38642 0.89765 0.0
C368 C 0.82425 0.36886 0.93961 0.0
C369 C 0.74624 0.37552 0.87713 0.0
C370 C 0.93266 0.42458 0.97236 0.0
C371 C 0.90681 0.40976 0.9652 0.0
C372 C 0.84358 0.42574 0.93889 0.0
C373 C 0.7871 0.37122 0.90358 0.0
C374 C 0.81065 0.38457 0.92258 0.0
C375 C 0.88392 0.42296 0.96924 0.0
C376 C 0.8576 0.40992 0.9552 0.0
H377 H 0.76548 0.31227 0.85829 0.0
H378 H 0.80158 0.3317 0.89326 0.0
H379 H 0.81129 0.42603 0.90941 0.0
H380 H 0.91527 0.4869 0.99887 0.0
H381 H 0.86996 0.46098 0.98674 0.0
C382 C 0.83414 0.66372 0.46479 0.0
C383 C 0.85344 0.65524 0.48227 0.0
C384 C 0.80662 0.65705 0.46974 0.0
C385 C 0.75622 0.63601 0.52221 0.0
H386 H 0.7129 0.60246 0.45534 0.0
C387 C 0.64264 0.58604 0.52555 0.0
C388 C 0.62605 0.58866 0.50217 0.0
C389 C 0.67053 0.59564 0.52552 0.0
C390 C 0.72453 0.61221 0.4742 0.0
H391 H 0.85897 0.63419 0.51954 0.0
H392 H 0.81061 0.62268 0.52829 0.0
H393 H 0.76114 0.61701 0.45123 0.0
H394 H 0.62526 0.60512 0.46146 0.0
H395 H 0.67333 0.62266 0.46183 0.0
H396 H 0.71935 0.63152 0.54511 0.0
C397 C 0.81695 0.63444 0.5107 0.0
C398 C 0.75224 0.62044 0.47182 0.0
C399 C 0.8446 0.64093 0.5056 0.0
C400 C 0.63759 0.60234 0.47955 0.0
C401 C 0.66523 0.61223 0.4797 0.0
C402 C 0.72828 0.62799 0.52457 0.0
C403 C 0.7977 0.64191 0.49241 0.0
C404 C 0.76836 0.63266 0.49569 0.0
C405 C 0.68223 0.60828 0.50223 0.0
C406 C 0.71205 0.61626 0.50048 0.0
H407 H 0.84021 0.67492 0.44675 0.0
H408 H 0.79223 0.66343 0.45554 0.0
H409 H 0.76822 0.64542 0.54095 0.0
H410 H 0.63427 0.57552 0.54327 0.0
H411 H 0.683 0.59217 0.54319 0.0
C412 C 0.13951 0.26168 0.10899 0.0
C413 C 0.12344 0.23658 0.11455 0.0
C414 C 0.12912 0.28025 0.09286 0.0
C415 C 0.06531 0.30225 0.07459 0.0
H416 H 0.10674 0.34076 0.01782 0.0
C417 C 0.02426 0.39036 0.02576 0.0
C418 C 0.04317 0.41447 0.02369 0.0
C419 C 0.03289 0.36495 0.02937 0.0
C420 C 0.09491 0.33038 0.03373 0.0
H421 H 0.08393 0.21115 0.10703 0.0
H422 H 0.06569 0.24381 0.07928 0.0
H423 H 0.12457 0.30406 0.0398 0.0
H424 H 0.08571 0.43092 0.02263 0.0
H425 H 0.10095 0.38705 0.02935 0.0
H426 H 0.03634 0.32928 0.06993 0.0
C427 C 0.08637 0.24904 0.08736 0.0
C428 C 0.10515 0.30927 0.04627 0.0
C429 C 0.09687 0.23029 0.10317 0.0
C430 C 0.07074 0.41239 0.02339 0.0
C431 C 0.07943 0.38713 0.0274 0.0
C432 C 0.05524 0.32358 0.06237 0.0
C433 C 0.1023 0.27435 0.0822 0.0
C434 C 0.09062 0.29522 0.06712 0.0
C435 C 0.06066 0.36331 0.03175 0.0
C436 C 0.07004 0.33829 0.04203 0.0
H437 H 0.16008 0.26716 0.11738 0.0
H438 H 0.14184 0.29968 0.0895 0.0
H439 H 0.05375 0.29207 0.09083 0.0
H440 H 0.00289 0.39163 0.02664 0.0
H441 H 0.01776 0.34698 0.03186 0.0
C442 C 0.68462 0.18521 0.89373 0.0
C443 C 0.66874 0.20403 0.88446 0.0
C444 C 0.67253 0.16124 0.90549 0.0
C445 C 0.60479 0.11881 0.91682 0.0
H446 H 0.63989 0.10395 0.98557 0.0
C447 C 0.56976 0.09581 0.03213 0.0
C448 C 0.54547 0.07758 0.02554 0.0
C449 C 0.5893 0.10004 0.01172 0.0
C450 C 0.62983 0.10764 0.96629 0.0
H451 H 0.62769 0.2121 0.87978 0.0
H452 H 0.60686 0.17134 0.90106 0.0
H453 H 0.66457 0.1349 0.95454 0.0
H454 H 0.52326 0.04753 0.99334 0.0
H455 H 0.5577 0.05483 0.95713 0.0
H456 H 0.56923 0.09377 0.93005 0.0
C457 C 0.62854 0.17435 0.89859 0.0
C458 C 0.64413 0.12523 0.94825 0.0
C459 C 0.64055 0.19804 0.88662 0.0
C460 C 0.54195 0.06163 0.9989 0.0
C461 C 0.56156 0.06605 0.97816 0.0
C462 C 0.59036 0.10159 0.93511 0.0
C463 C 0.64432 0.1557 0.90847 0.0
C464 C 0.63135 0.1322 0.92401 0.0
C465 C 0.58492 0.08631 0.98399 0.0
C466 C 0.60227 0.09701 0.96087 0.0
H467 H 0.70639 0.1891 0.89211 0.0
H468 H 0.68536 0.14724 0.9125 0.0
H469 H 0.59455 0.12287 0.89781 0.0
H470 H 0.5729 0.10829 0.05262 0.0
H471 H 0.60672 0.11599 0.01715 0.0
C472 C 0.99885 0.72789 0.44479 0.0
C473 C 0.99136 0.70182 0.45484 0.0
C474 C 0.00256 0.75239 0.46357 0.0
C475 C 0.98557 0.78081 0.53584 0.0
H476 H 0.03434 0.84509 0.5155 0.0
C477 C 0.01061 0.90993 0.55468 0.0
C478 C 0.98342 0.91349 0.55362 0.0
C479 C 0.01726 0.88306 0.55487 0.0
C480 C 0.02111 0.82735 0.52222 0.0
H481 H 0.98316 0.68076 0.49258 0.0
H482 H 0.98998 0.7235 0.52557 0.0
H483 H 0.03559 0.79954 0.49015 0.0
H484 H 0.94212 0.89295 0.5555 0.0
H485 H 0.9533 0.84658 0.55558 0.0
H486 H 0.97132 0.80864 0.56817 0.0
C487 C 0.99218 0.72518 0.50306 0.0
C488 C 0.02143 0.80117 0.50713 0.0
C489 C 0.9881 0.70066 0.48415 0.0
C490 C 0.96325 0.89063 0.55642 0.0
C491 C 0.9698 0.86392 0.5565 0.0
C492 C 0.9856 0.80695 0.5513 0.0
C493 C 0.99945 0.75142 0.49301 0.0
C494 C 0.00267 0.77785 0.5127 0.0
C495 C 0.99676 0.85949 0.55367 0.0
C496 C 0.00231 0.83088 0.54366 0.0
H497 H 0.00152 0.72938 0.42229 0.0
H498 H 0.00744 0.77213 0.45482 0.0
H499 H 0.97094 0.76338 0.541 0.0
H500 H 0.02651 0.9272 0.55212 0.0
H501 H 0.03831 0.88056 0.55348 0.0
C502 C 0.46388 0.84487 0.59456 0.0
C503 C 0.48307 0.86554 0.60963 0.0
C504 C 0.47029 0.81846 0.58564 0.0
C505 C 0.52857 0.77964 0.57502 0.0
H506 H 0.47372 0.71497 0.58058 0.0
C507 C 0.55129 0.66739 0.57863 0.0
C508 C 0.53372 0.64545 0.56336 0.0
C509 C 0.54597 0.69479 0.57997 0.0
C510 C 0.48914 0.73283 0.5785 0.0
H511 H 0.52404 0.8747 0.62713 0.0
H512 H 0.53497 0.82848 0.61243 0.0
H513 H 0.46256 0.76164 0.59181 0.0
H514 H 0.49655 0.63445 0.53829 0.0
H515 H 0.48727 0.68247 0.5402 0.0
H516 H 0.55539 0.75052 0.56277 0.0
C517 C 0.51517 0.83279 0.6068 0.0
C518 C 0.48275 0.75964 0.58489 0.0
C519 C 0.50884 0.85928 0.61545 0.0
C520 C 0.51088 0.65126 0.54923 0.0
C521 C 0.50538 0.67861 0.55077 0.0
C522 C 0.53503 0.75278 0.56891 0.0
C523 C 0.49596 0.81197 0.59184 0.0
C524 C 0.50244 0.78343 0.58351 0.0
C525 C 0.52266 0.7006 0.56653 0.0
C526 C 0.51543 0.72911 0.57082 0.0
H527 H 0.44391 0.84912 0.58954 0.0
H528 H 0.45512 0.80318 0.57376 0.0
H529 H 0.54412 0.79742 0.57315 0.0
H530 H 0.56879 0.66321 0.59008 0.0
H531 H 0.55944 0.71123 0.59259 0.0
C532 C 0.8555 0.88702 0.82623 0.0
C533 C 0.87174 0.87434 0.84365 0.0
C534 C 0.86491 0.8958 0.8005 0.0
C535 C 0.91842 0.89098 0.74696 0.0
H536 H 0.90394 0.96446 0.73386 0.0
C537 C 0.9574 0.94703 0.64863 0.0
C538 C 0.96976 0.97496 0.65556 0.0
C539 C 0.94272 0.93245 0.66902 0.0
C540 C 0.90814 0.94389 0.73714 0.0
H541 H 0.91033 0.86 0.84699 0.0
H542 H 0.92706 0.87591 0.80219 0.0
H543 H 0.8844 0.94268 0.77428 0.0
H544 H 0.97556 0.00968 0.689 0.0
H545 H 0.95014 0.98456 0.72406 0.0
H546 H 0.94313 0.89295 0.71021 0.0
C547 C 0.90683 0.87871 0.80834 0.0
C548 C 0.8967 0.93123 0.7602 0.0
C549 C 0.89731 0.86971 0.83411 0.0
C550 C 0.96641 0.98817 0.6829 0.0
C551 C 0.95164 0.9738 0.70303 0.0
C552 C 0.92989 0.9037 0.72375 0.0
C553 C 0.89093 0.89239 0.7915 0.0
C554 C 0.90194 0.90476 0.76569 0.0
C555 C 0.93982 0.94571 0.69651 0.0
C556 C 0.92526 0.93055 0.71892 0.0
H557 H 0.83554 0.89058 0.83266 0.0
H558 H 0.85185 0.90566 0.78782 0.0
H559 H 0.92265 0.87046 0.75037 0.0
H560 H 0.9597 0.93622 0.62779 0.0
H561 H 0.9337 0.91085 0.66333 0.0
C562 C 0.58534 0.11164 0.36525 0.0
C563 C 0.60135 0.09453 0.3774 0.0
C564 C 0.57315 0.10364 0.33827 0.0
C565 C 0.5778 0.05805 0.27136 0.0
H566 H 0.5054 0.07304 0.25742 0.0
C567 C 0.523 0.03037 0.16048 0.0
C568 C 0.511 0.05214 0.15117 0.0
C569 C 0.53209 0.03181 0.18886 0.0
C570 C 0.52567 0.06877 0.26092 0.0
H571 H 0.6171 0.05541 0.37025 0.0
H572 H 0.59577 0.04149 0.32329 0.0
H573 H 0.52557 0.08334 0.30521 0.0
H574 H 0.49812 0.09186 0.16479 0.0
H575 H 0.51385 0.09431 0.21368 0.0
H576 H 0.57801 0.04395 0.22686 0.0
C577 C 0.5928 0.06124 0.33462 0.0
C578 C 0.53727 0.07477 0.28832 0.0
C579 C 0.60496 0.06923 0.36165 0.0
C580 C 0.50741 0.07476 0.17108 0.0
C581 C 0.51625 0.07608 0.19929 0.0
C582 C 0.56617 0.05205 0.24389 0.0
C583 C 0.57665 0.0783 0.32262 0.0
C584 C 0.56367 0.07 0.29381 0.0
C585 C 0.52904 0.05487 0.20852 0.0
C586 C 0.54016 0.05788 0.23823 0.0
H587 H 0.58223 0.13131 0.37634 0.0
H588 H 0.56124 0.11757 0.32948 0.0
H589 H 0.59824 0.05428 0.27477 0.0
H590 H 0.5261 0.01267 0.1457 0.0
H591 H 0.54169 0.01501 0.19537 0.0
C592 C 0.39409 0.70822 0.35804 0.0
C593 C 0.37314 0.72171 0.36932 0.0
C594 C 0.40963 0.69517 0.37553 0.0
C595 C 0.40694 0.66079 0.44031 0.0
H596 H 0.48464 0.66863 0.43279 0.0
C597 C 0.5078 0.61617 0.48188 0.0
C598 C 0.49868 0.58748 0.47544 0.0
C599 C 0.49116 0.63555 0.47624 0.0
C600 C 0.46302 0.66652 0.43556 0.0
H601 H 0.35216 0.7322 0.40787 0.0
H602 H 0.37913 0.70889 0.43838 0.0
H603 H 0.45904 0.69747 0.4076 0.0
H604 H 0.46504 0.55622 0.45915 0.0
H605 H 0.43559 0.58994 0.44988 0.0
H606 H 0.41088 0.62904 0.46748 0.0
C607 C 0.38354 0.70862 0.416 0.0
C608 C 0.44834 0.68284 0.42087 0.0
C609 C 0.36823 0.72206 0.39856 0.0
C610 C 0.47216 0.57829 0.46497 0.0
C611 C 0.45539 0.59762 0.45961 0.0
C612 C 0.42162 0.64418 0.45478 0.0
C613 C 0.40436 0.69499 0.40463 0.0
C614 C 0.42011 0.67978 0.42264 0.0
C615 C 0.46513 0.62647 0.46402 0.0
C616 C 0.44978 0.64655 0.45217 0.0
H617 H 0.39839 0.70757 0.33562 0.0
H618 H 0.42536 0.68458 0.36611 0.0
H619 H 0.38516 0.65791 0.44196 0.0
H620 H 0.52845 0.62367 0.48928 0.0
H621 H 0.49915 0.65763 0.48008 0.0
C622 C 0.16037 0.46322 0.74669 0.0
C623 C 0.14289 0.44386 0.72806 0.0
C624 C 0.15767 0.46409 0.77612 0.0
C625 C 0.12511 0.426 0.8339 0.0
H626 H 0.12076 0.50047 0.86948 0.0
C627 C 0.05544 0.44875 0.92428 0.0
C628 C 0.05919 0.47537 0.93963 0.0
C629 C 0.07497 0.44104 0.90554 0.0
C630 C 0.12268 0.47955 0.86044 0.0
H631 H 0.10912 0.40989 0.72609 0.0
H632 H 0.10447 0.41131 0.7774 0.0
H633 H 0.13647 0.49437 0.82145 0.0
H634 H 0.08751 0.51335 0.95062 0.0
H635 H 0.12244 0.49946 0.91897 0.0
H636 H 0.11048 0.41112 0.87274 0.0
C637 C 0.12058 0.42554 0.76918 0.0
C638 C 0.13158 0.47605 0.83262 0.0
C639 C 0.12325 0.4247 0.73967 0.0
C640 C 0.08433 0.49256 0.9392 0.0
C641 C 0.10407 0.48478 0.92058 0.0
C642 C 0.11643 0.42951 0.86193 0.0
C643 C 0.1374 0.44565 0.78772 0.0
C644 C 0.13202 0.4492 0.81867 0.0
C645 C 0.09866 0.4599 0.90184 0.0
C646 C 0.1141 0.45629 0.87521 0.0
H647 H 0.17589 0.47816 0.73853 0.0
H648 H 0.17114 0.47964 0.7898 0.0
H649 H 0.12569 0.40507 0.82388 0.0
H650 H 0.036 0.43533 0.924 0.0
H651 H 0.06988 0.42171 0.89168 0.0
C652 C 0.76234 0.95675 0.96081 0.0
C653 C 0.7671 0.92974 0.96484 0.0
C654 C 0.74109 0.96785 0.9743 0.0
C655 C 0.69291 0.95876 0.03295 0.0
H656 H 0.64753 0.9946 0.98647 0.0
C657 C 0.58215 0.96531 0.05688 0.0
C658 C 0.57061 0.98825 0.04987 0.0
C659 C 0.60898 0.96332 0.05084 0.0
C660 C 0.66027 0.98522 0.99999 0.0
H661 H 0.75358 0.8935 0.98686 0.0
H662 H 0.71637 0.91275 0.01023 0.0
H663 H 0.68888 0.98068 0.96725 0.0
H664 H 0.57868 0.0279 0.03232 0.0
H665 H 0.62589 0.02444 0.02165 0.0
H666 H 0.66389 0.96263 0.06542 0.0
C667 C 0.72926 0.92549 0.99683 0.0
C668 C 0.68398 0.97714 0.98893 0.0
C669 C 0.75051 0.91437 0.98329 0.0
C670 C 0.58701 0.01 0.03804 0.0
C671 C 0.61396 0.00788 0.03171 0.0
C672 C 0.66923 0.96687 0.04402 0.0
C673 C 0.72407 0.95225 0.99223 0.0
C674 C 0.70029 0.96324 0.00504 0.0
C675 C 0.62505 0.98416 0.03745 0.0
C676 C 0.65226 0.97959 0.02744 0.0
H677 H 0.7748 0.96927 0.94687 0.0
H678 H 0.73792 0.98864 0.97058 0.0
H679 H 0.70528 0.94864 0.04615 0.0
H680 H 0.5701 0.94826 0.06615 0.0
H681 H 0.61665 0.94463 0.05531 0.0
C682 C 0.74672 0.10297 0.48837 0.0
C683 C 0.72222 0.08585 0.49309 0.0
C684 C 0.77117 0.09758 0.49938 0.0
C685 C 0.80193 0.04066 0.52553 0.0
H686 H 0.85865 0.10047 0.5559 0.0
C687 C 0.89814 0.01361 0.57188 0.0
C688 C 0.92214 0.02705 0.5613 0.0
C689 C 0.8741 0.02428 0.56923 0.0
C690 C 0.84301 0.08357 0.54744 0.0
H691 H 0.7042 0.04986 0.51344 0.0
H692 H 0.74664 0.04066 0.53283 0.0
H693 H 0.81578 0.11165 0.53881 0.0
H694 H 0.94053 0.06286 0.54118 0.0
H695 H 0.89835 0.08161 0.53623 0.0
H696 H 0.82902 0.0126 0.53363 0.0
C697 C 0.7471 0.058 0.52023 0.0
C698 C 0.8185 0.08995 0.53754 0.0
C699 C 0.72271 0.06332 0.50917 0.0
C700 C 0.92227 0.0525 0.54997 0.0
C701 C 0.89809 0.0631 0.54704 0.0
C702 C 0.82629 0.03431 0.53544 0.0
C703 C 0.77167 0.07497 0.5154 0.0
C704 C 0.79767 0.06853 0.52641 0.0
C705 C 0.87351 0.04831 0.55538 0.0
C706 C 0.84716 0.05563 0.54652 0.0
H707 H 0.74705 0.12053 0.47609 0.0
H708 H 0.78973 0.11086 0.49493 0.0
H709 H 0.78665 0.02366 0.51654 0.0
H710 H 0.89761 0.99377 0.5804 0.0
H711 H 0.85566 0.01275 0.57648 0.0
C712 C 0.27203 0.69741 0.1113 0.0
C713 C 0.26258 0.71414 0.1339 0.0
C714 C 0.25389 0.67847 0.09323 0.0
C715 C 0.18079 0.65809 0.07237 0.0
H716 H 0.19933 0.58364 0.05877 0.0
C717 C 0.10252 0.56446 0.02399 0.0
C718 C 0.10015 0.5417 0.0402 0.0
C719 C 0.125 0.58577 0.02801 0.0
C720 C 0.19388 0.60435 0.06221 0.0
H721 H 0.22654 0.72487 0.15442 0.0
H722 H 0.19506 0.69168 0.12331 0.0
H723 H 0.23283 0.62194 0.08042 0.0
H724 H 0.12041 0.52239 0.07166 0.0
H725 H 0.15928 0.55917 0.07855 0.0
H726 H 0.1413 0.64007 0.05569 0.0
C727 C 0.21644 0.69336 0.11924 0.0
C728 C 0.2132 0.62642 0.07439 0.0
C729 C 0.23455 0.7123 0.13727 0.0
C730 C 0.12151 0.53974 0.05897 0.0
C731 C 0.14396 0.56079 0.06277 0.0
C732 C 0.16145 0.63599 0.0602 0.0
C733 C 0.22588 0.67581 0.09731 0.0
C734 C 0.20666 0.65341 0.08044 0.0
C735 C 0.14564 0.58449 0.04801 0.0
C736 C 0.16751 0.60868 0.05582 0.0
H737 H 0.29348 0.69843 0.10796 0.0
H738 H 0.26186 0.66558 0.07631 0.0
H739 H 0.1752 0.67871 0.07627 0.0
H740 H 0.08638 0.5666 0.0094 0.0
H741 H 0.12584 0.60363 0.01609 0.0
C742 C 0.25421 0.45554 0.60886 0.0
C743 C 0.23761 0.47552 0.60466 0.0
C744 C 0.28114 0.45956 0.60076 0.0
C745 C 0.32947 0.49412 0.5542 0.0
H746 H 0.38178 0.49685 0.61571 0.0
C747 C 0.44331 0.53727 0.54471 0.0
C748 C 0.46193 0.52783 0.56216 0.0
C749 C 0.41558 0.52788 0.54671 0.0
C750 C 0.36764 0.49549 0.59798 0.0
H751 H 0.23582 0.51477 0.58763 0.0
H752 H 0.28289 0.52141 0.57283 0.0
H753 H 0.33394 0.4855 0.62449 0.0
H754 H 0.46683 0.49974 0.59354 0.0
H755 H 0.41889 0.48179 0.5956 0.0
H756 H 0.36308 0.50343 0.5274 0.0
C757 C 0.27501 0.50283 0.58264 0.0
C758 C 0.34015 0.4892 0.60319 0.0
C759 C 0.2482 0.4991 0.59127 0.0
C760 C 0.45271 0.50752 0.58013 0.0
C761 C 0.42518 0.49754 0.58152 0.0
C762 C 0.35709 0.49984 0.54877 0.0
C763 C 0.2918 0.48332 0.58777 0.0
C764 C 0.32084 0.48868 0.58145 0.0
C765 C 0.40609 0.50839 0.56573 0.0
C766 C 0.3766 0.50082 0.57068 0.0
H767 H 0.24662 0.43717 0.61914 0.0
H768 H 0.29376 0.44423 0.60489 0.0
H769 H 0.31485 0.49372 0.53708 0.0
H770 H 0.45006 0.55311 0.53083 0.0
H771 H 0.40165 0.53696 0.53433 0.0
C772 C 0.9189 0.77355 0.97767 0.0
C773 C 0.89707 0.76915 0.95788 0.0
C774 C 0.93055 0.751 0.98537 0.0
C775 C 0.94032 0.68046 0.95734 0.0
H776 H 0.95965 0.67121 0.035 0.0
C777 C 0.00592 0.59974 0.97867 0.0
C778 C 0.99499 0.57992 0.99658 0.0
C779 C 0.99594 0.62482 0.97833 0.0
C780 C 0.95431 0.67356 0.01325 0.0
H781 H 0.87016 0.73748 0.93104 0.0
H782 H 0.89068 0.69832 0.94416 0.0
H783 H 0.93703 0.71064 0.02532 0.0
H784 H 0.96625 0.57157 0.0296 0.0
H785 H 0.94882 0.61601 0.02933 0.0
H786 H 0.95756 0.64373 0.94509 0.0
C787 C 0.8988 0.71921 0.95371 0.0
C788 C 0.94153 0.69617 0.00768 0.0
C789 C 0.88699 0.74167 0.94624 0.0
C790 C 0.97533 0.58669 0.01593 0.0
C791 C 0.96524 0.61201 0.0156 0.0
C792 C 0.95334 0.65824 0.96284 0.0
C793 C 0.92083 0.7236 0.9732 0.0
C794 C 0.93434 0.69978 0.97963 0.0
C795 C 0.97464 0.6307 0.99582 0.0
C796 C 0.9606 0.65454 0.9908 0.0
H797 H 0.92709 0.79444 0.98713 0.0
H798 H 0.94762 0.75508 1.00028 0.0
H799 H 0.93528 0.68276 0.93549 0.0
H800 H 0.02114 0.59507 0.96359 0.0
H801 H 0.00397 0.63904 0.96328 0.0
C802 C 0.36733 0.84147 0.26391 0.0
C803 C 0.34426 0.82317 0.2526 0.0
C804 C 0.37822 0.86453 0.25016 0.0
C805 C 0.36325 0.90846 0.19383 0.0
H806 H 0.44105 0.92047 0.18658 0.0
C807 C 0.4184 0.94902 0.09819 0.0
C808 C 0.44506 0.96305 0.10152 0.0
C809 C 0.40377 0.94146 0.12182 0.0
C810 C 0.41936 0.91801 0.18895 0.0
H811 H 0.31359 0.8161 0.21886 0.0
H812 H 0.33316 0.85532 0.19417 0.0
H813 H 0.42026 0.88716 0.21759 0.0
H814 H 0.47683 0.98217 0.13193 0.0
H815 H 0.45123 0.96894 0.17361 0.0
H816 H 0.36243 0.93833 0.16385 0.0
C817 C 0.34282 0.85201 0.21382 0.0
C818 C 0.40738 0.89875 0.20672 0.0
C819 C 0.33187 0.82903 0.22767 0.0
C820 C 0.4561 0.97176 0.12896 0.0
C821 C 0.44156 0.96385 0.15272 0.0
C822 C 0.37526 0.92766 0.17593 0.0
C823 C 0.36631 0.86992 0.22472 0.0
C824 C 0.37911 0.8931 0.20875 0.0
C825 C 0.41577 0.94734 0.14923 0.0
C826 C 0.4034 0.93204 0.17264 0.0
H827 H 0.37726 0.83781 0.28328 0.0
H828 H 0.39605 0.87808 0.25946 0.0
H829 H 0.34147 0.90513 0.19538 0.0
H830 H 0.40969 0.94178 0.07714 0.0
H831 H 0.38408 0.92862 0.11827 0.0
C832 C 0.07805 0.28957 0.62814 0.0
C833 C 0.05954 0.30735 0.63708 0.0
C834 C 0.06913 0.26334 0.6133 0.0
C835 C 0.0115 0.2077 0.60574 0.0
H836 H 0.05304 0.17712 0.54486 0.0
C837 C 0.00067 0.09005 0.58087 0.0
C838 C 0.02606 0.0819 0.58389 0.0
C839 C 0.99892 0.11735 0.57517 0.0
C840 C 0.04103 0.18536 0.56165 0.0
H841 H 0.01711 0.31159 0.63721 0.0
H842 H 0.00145 0.2653 0.61174 0.0
H843 H 0.06182 0.22714 0.56064 0.0
H844 H 0.06912 0.09416 0.58042 0.0
H845 H 0.0663 0.14125 0.57009 0.0
H846 H 0.99208 0.16582 0.60832 0.0
C847 C 0.0229 0.27189 0.61608 0.0
C848 C 0.04611 0.21399 0.57072 0.0
C849 C 0.03187 0.29835 0.63066 0.0
C850 C 0.04932 0.10004 0.5779 0.0
C851 C 0.04762 0.12708 0.57196 0.0
C852 C 0.00657 0.17902 0.59684 0.0
C853 C 0.04146 0.25412 0.60726 0.0
C854 C 0.03222 0.22522 0.59369 0.0
C855 C 0.02256 0.13666 0.57235 0.0
C856 C 0.02218 0.16732 0.5756 0.0
H857 H 0.09951 0.29588 0.63261 0.0
H858 H 0.08388 0.24994 0.60723 0.0
H859 H 1.00051 0.21574 0.62353 0.0
H860 H 0.98248 0.07642 0.5858 0.0
H861 H 0.97928 0.12396 0.57518 0.0
C862 C 0.55689 0.24765 0.48723 0.0
C863 C 0.56638 0.23883 0.46041 0.0
C864 C 0.55526 0.27587 0.49501 0.0
C865 C 0.58453 0.34605 0.47791 0.0
H866 H 0.52145 0.37036 0.51313 0.0
C867 C 0.56219 0.45641 0.47423 0.0
C868 C 0.55257 0.47086 0.49836 0.0
C869 C 0.56482 0.42839 0.47371 0.0
C870 C 0.5394 0.36386 0.50379 0.0
H871 H 0.58096 0.25272 0.42051 0.0
H872 H 0.57805 0.30175 0.43402 0.0
H873 H 0.52353 0.32031 0.50374 0.0
H874 H 0.53799 0.46688 0.54094 0.0
H875 H 0.54262 0.4173 0.53996 0.0
H876 H 0.60025 0.38936 0.47741 0.0
C877 C 0.57219 0.28692 0.44919 0.0
C878 C 0.54056 0.33524 0.49833 0.0
C879 C 0.57367 0.25876 0.44137 0.0
C880 C 0.54563 0.45641 0.5221 0.0
C881 C 0.54812 0.42804 0.52148 0.0
C882 C 0.5834 0.37452 0.48339 0.0
C883 C 0.56329 0.29586 0.47621 0.0
C884 C 0.56285 0.32606 0.48461 0.0
C885 C 0.55789 0.41382 0.49726 0.0
C886 C 0.56053 0.38376 0.49565 0.0
H887 H 0.55106 0.23283 0.5024 0.0
H888 H 0.54838 0.28213 0.51599 0.0
H889 H 0.60228 0.33967 0.46799 0.0
H890 H 0.56784 0.46677 0.45555 0.0
H891 H 0.57196 0.41797 0.45454 0.0
loop_
_geom_bond_atom_site_label_1
_geom_bond_atom_site_label_2
_geom_bond_distance
_geom_bond_site_symmetry_2
_ccdc_geom_bond_type
O0 Cd1 2.300 . S
O0 C7 1.275 . S
Cd1 O0 2.300 . S
Cd1 O9 2.381 . S
Cd1 O10 2.378 . S
O2 Cd3 2.385 . S
O2 C7 1.255 . S
Cd3 O2 2.385 . S
Cd3 O4 2.317 . S
O4 Cd3 2.317 . S
O4 C5 1.232 . S
C5 O4 1.232 . S
C5 O6 1.218 . S
O6 C5 1.218 . S
C7 O0 1.275 . S
C7 O2 1.255 . S
C8 O9 1.258 . S
C8 O10 1.256 . S
O9 Cd1 2.381 . S
O9 C8 1.258 . S
O10 Cd1 2.378 . S
O10 C8 1.256 . S
O11 Cd12 2.300 . S
O11 C18 1.275 . S
Cd12 O11 2.300 . S
Cd12 O20 2.381 . S
Cd12 O21 2.378 . S
O13 Cd14 2.385 . S
O13 C18 1.255 . S
Cd14 O13 2.385 . S
Cd14 O15 2.317 . S
O15 Cd14 2.317 . S
O15 C16 1.232 . S
C16 O15 1.232 . S
C16 O17 1.218 . S
O17 C16 1.218 . S
C18 O11 1.275 . S
C18 O13 1.255 . S
C19 O20 1.258 . S
C19 O21 1.256 . S
O20 Cd12 2.381 . S
O20 C19 1.258 . S
O21 Cd12 2.378 . S
O21 C19 1.256 . S
O22 Cd23 2.300 . S
O22 C29 1.275 . S
Cd23 O22 2.300 . S
Cd23 O31 2.381 . S
Cd23 O32 2.378 . S
O24 Cd25 2.385 . S
O24 C29 1.255 . S
Cd25 O24 2.385 . S
Cd25 O26 2.317 . S
O26 Cd25 2.317 . S
O26 C27 1.232 . S
C27 O26 1.232 . S
C27 O28 1.218 . S
O28 C27 1.218 . S
C29 O22 1.275 . S
C29 O24 1.255 . S
C30 O31 1.258 . S
C30 O32 1.256 . S
O31 Cd23 2.381 . S
O31 C30 1.258 . S
O32 Cd23 2.378 . S
O32 C30 1.256 . S
O33 Cd34 2.300 . S
O33 C40 1.275 . S
Cd34 O33 2.300 . S
Cd34 O42 2.381 . S
Cd34 O43 2.378 . S
O35 Cd36 2.385 . S
O35 C40 1.255 . S
Cd36 O35 2.385 . S
Cd36 O37 2.317 . S
O37 Cd36 2.317 . S
O37 C38 1.232 . S
C38 O37 1.232 . S
C38 O39 1.218 . S
O39 C38 1.218 . S
C40 O33 1.275 . S
C40 O35 1.255 . S
C41 O42 1.258 . S
C41 O43 1.256 . S
O42 Cd34 2.381 . S
O42 C41 1.258 . S
O43 Cd34 2.378 . S
O43 C41 1.256 . S
O44 Cd45 2.300 . S
O44 C51 1.275 . S
Cd45 O44 2.300 . S
Cd45 O53 2.381 . S
Cd45 O54 2.378 . S
O46 Cd47 2.385 . S
O46 C51 1.255 . S
Cd47 O46 2.385 . S
Cd47 O48 2.317 . S
O48 Cd47 2.317 . S
O48 C49 1.232 . S
C49 O48 1.232 . S
C49 O50 1.218 . S
O50 C49 1.218 . S
C51 O44 1.275 . S
C51 O46 1.255 . S
C52 O53 1.258 . S
C52 O54 1.256 . S
O53 Cd45 2.381 . S
O53 C52 1.258 . S
O54 Cd45 2.378 . S
O54 C52 1.256 . S
O55 Cd56 2.300 . S
O55 C62 1.275 . S
Cd56 O55 2.300 . S
Cd56 O64 2.381 . S
Cd56 O65 2.378 . S
O57 Cd58 2.385 . S
O57 C62 1.255 . S
Cd58 O57 2.385 . S
Cd58 O59 2.317 . S
O59 Cd58 2.317 . S
O59 C60 1.232 . S
C60 O59 1.232 . S
C60 O61 1.218 . S
O61 C60 1.218 . S
C62 O55 1.275 . S
C62 O57 1.255 . S
C63 O64 1.258 . S
C63 O65 1.256 . S
O64 Cd56 2.381 . S
O64 C63 1.258 . S
O65 Cd56 2.378 . S
O65 C63 1.256 . S
O66 Cd67 2.300 . S
O66 C73 1.275 . S
Cd67 O66 2.300 . S
Cd67 O75 2.381 . S
Cd67 O76 2.378 . S
O68 Cd69 2.385 . S
O68 C73 1.255 . S
Cd69 O68 2.385 . S
Cd69 O70 2.317 . S
O70 Cd69 2.317 . S
O70 C71 1.232 . S
C71 O70 1.232 . S
C71 O72 1.218 . S
O72 C71 1.218 . S
C73 O66 1.275 . S
C73 O68 1.255 . S
C74 O75 1.258 . S
C74 O76 1.256 . S
O75 Cd67 2.381 . S
O75 C74 1.258 . S
O76 Cd67 2.378 . S
O76 C74 1.256 . S
O77 Cd78 2.300 . S
O77 C84 1.275 . S
Cd78 O77 2.300 . S
Cd78 O86 2.381 . S
Cd78 O87 2.378 . S
O79 Cd80 2.385 . S
O79 C84 1.255 . S
Cd80 O79 2.385 . S
Cd80 O81 2.317 . S
O81 Cd80 2.317 . S
O81 C82 1.232 . S
C82 O81 1.232 . S
C82 O83 1.218 . S
O83 C82 1.218 . S
C84 O77 1.275 . S
C84 O79 1.255 . S
C85 O86 1.258 . S
C85 O87 1.256 . S
O86 Cd78 2.381 . S
O86 C85 1.258 . S
O87 Cd78 2.378 . S
O87 C85 1.256 . S
O88 Mn89 2.163 1_655 S
O88 C102 1.244 . S
Mn89 O88 2.163 1_455 S
Mn89 O92 2.160 1_545 S
Mn89 O93 2.221 . S
Mn89 O95 2.163 1_445 S
Mn89 O97 2.160 . S
Mn89 O107 2.221 1_445 S
O90 Mn91 2.089 1_545 S
O90 C102 1.253 . S
Mn91 O90 2.089 1_565 S
Mn91 O98 2.089 1_565 S
Mn91 O107 2.290 . S
Mn91 O108 2.251 . S
O92 Mn89 2.160 1_565 S
O92 C103 1.239 . S
O93 Mn89 2.221 . S
O93 Mn94 2.290 . S
O93 C104 1.278 . S
Mn94 O93 2.290 . S
Mn94 O96 2.089 . S
Mn94 O99 2.251 . S
Mn94 O100 2.087 . S
O95 Mn89 2.163 1_665 S
O95 C105 1.244 . S
O96 Mn94 2.089 . S
O96 C103 1.256 1_545 S
O97 Mn89 2.160 . S
O97 C106 1.239 . S
O98 Mn91 2.089 1_545 S
O98 C106 1.256 1_655 S
O99 Mn94 2.251 . S
O99 C104 1.241 . S
O100 Mn94 2.087 . S
O100 C105 1.256 1_445 S
C101 O107 1.278 . S
C101 O108 1.241 . S
C102 O88 1.244 . S
C102 O90 1.253 . S
C103 O92 1.239 . S
C103 O96 1.256 1_565 S
C104 O93 1.278 . S
C104 O99 1.241 . S
C105 O95 1.244 . S
C105 O100 1.256 1_665 S
C106 O97 1.239 . S
C106 O98 1.256 1_455 S
O107 Mn89 2.221 1_665 S
O107 Mn91 2.290 . S
O107 C101 1.278 . S
O108 Mn91 2.251 . S
O108 C101 1.241 . S
O109 Mn110 2.163 . S
O109 C123 1.244 1_554 S
Mn110 O109 2.163 . S
Mn110 O113 2.160 . S
Mn110 O114 2.221 . S
Mn110 O116 2.163 . S
Mn110 O118 2.160 . S
Mn110 O128 2.221 1_545 S
O111 Mn112 2.087 1_556 S
O111 C123 1.256 1_565 S
Mn112 O111 2.087 1_554 S
Mn112 O119 2.089 . S
Mn112 O128 2.290 . S
Mn112 O129 2.251 . S
O113 Mn110 2.160 . S
O113 C124 1.239 . S
O114 Mn110 2.221 . S
O114 Mn115 2.290 . S
O114 C125 1.278 . S
Mn115 O114 2.290 . S
Mn115 O117 2.089 . S
Mn115 O120 2.251 . S
Mn115 O121 2.087 . S
O116 Mn110 2.163 . S
O116 C126 1.244 . S
O117 Mn115 2.089 . S
O117 C124 1.256 . S
O118 Mn110 2.160 . S
O118 C127 1.239 . S
O119 Mn112 2.089 . S
O119 C127 1.256 1_565 S
O120 Mn115 2.251 . S
O120 C125 1.241 . S
O121 Mn115 2.087 . S
O121 C126 1.256 . S
C122 O128 1.278 . S
C122 O129 1.241 . S
C123 O109 1.244 1_556 S
C123 O111 1.256 1_545 S
C124 O113 1.239 . S
C124 O117 1.256 . S
C125 O114 1.278 . S
C125 O120 1.241 . S
C126 O116 1.244 . S
C126 O121 1.256 . S
C127 O118 1.239 . S
C127 O119 1.256 1_545 S
O128 Mn110 2.221 1_565 S
O128 Mn112 2.290 . S
O128 C122 1.278 . S
O129 Mn112 2.251 . S
O129 C122 1.241 . S
O130 Mn131 2.163 . S
O130 C144 1.244 . S
Mn131 O130 2.163 . S
Mn131 O134 2.160 . S
Mn131 O135 2.221 . S
Mn131 O137 2.163 . S
Mn131 O139 2.160 . S
Mn131 O149 2.221 . S
O132 Mn133 2.087 . S
O132 C144 1.256 . S
Mn133 O132 2.087 . S
Mn133 O140 2.089 . S
Mn133 O149 2.290 . S
Mn133 O150 2.251 . S
O134 Mn131 2.160 . S
O134 C145 1.239 . S
O135 Mn131 2.221 . S
O135 Mn136 2.290 . S
O135 C146 1.278 . S
Mn136 O135 2.290 . S
Mn136 O138 2.089 . S
Mn136 O141 2.251 . S
Mn136 O142 2.087 . S
O137 Mn131 2.163 . S
O137 C147 1.244 . S
O138 Mn136 2.089 . S
O138 C145 1.256 . S
O139 Mn131 2.160 . S
O139 C148 1.239 . S
O140 Mn133 2.089 . S
O140 C148 1.256 . S
O141 Mn136 2.251 . S
O141 C146 1.241 . S
O142 Mn136 2.087 . S
O142 C147 1.256 . S
C143 O149 1.278 . S
C143 O150 1.241 . S
C144 O130 1.244 . S
C144 O132 1.256 . S
C145 O134 1.239 . S
C145 O138 1.256 . S
C146 O135 1.278 . S
C146 O141 1.241 . S
C147 O137 1.244 . S
C147 O142 1.256 . S
C148 O139 1.239 . S
C148 O140 1.256 . S
O149 Mn131 2.221 . S
O149 Mn133 2.290 . S
O149 C143 1.278 . S
O150 Mn133 2.251 . S
O150 C143 1.241 . S
O151 Mn152 2.163 1_655 S
O151 C165 1.244 1_554 S
Mn152 O151 2.163 1_455 S
Mn152 O155 2.160 . S
Mn152 O156 2.221 . S
Mn152 O158 2.163 . S
Mn152 O160 2.160 . S
Mn152 O170 2.221 1_554 S
O153 Mn154 2.087 . S
O153 C165 1.256 . S
Mn154 O153 2.087 . S
Mn154 O161 2.089 . S
Mn154 O170 2.290 1_655 S
Mn154 O171 2.251 1_655 S
O155 Mn152 2.160 . S
O155 C166 1.239 . S
O156 Mn152 2.221 . S
O156 Mn157 2.290 . S
O156 C167 1.278 1_455 S
Mn157 O156 2.290 . S
Mn157 O159 2.089 . S
Mn157 O162 2.251 . S
Mn157 O163 2.087 . S
O158 Mn152 2.163 . S
O158 C168 1.244 . S
O159 Mn157 2.089 . S
O159 C166 1.256 . S
O160 Mn152 2.160 . S
O160 C169 1.244 1_554 S
O161 Mn154 2.089 . S
O161 C169 1.252 1_655 S
O162 Mn157 2.251 . S
O162 C167 1.241 1_455 S
O163 Mn157 2.087 . S
O163 C168 1.256 . S
C164 O170 1.278 . S
C164 O171 1.241 . S
C165 O151 1.244 1_556 S
C165 O153 1.256 . S
C166 O155 1.239 . S
C166 O159 1.256 . S
C167 O156 1.278 1_655 S
C167 O162 1.241 1_655 S
C168 O158 1.244 . S
C168 O163 1.256 . S
C169 O160 1.244 1_556 S
C169 O161 1.252 1_455 S
O170 Mn152 2.221 1_556 S
O170 Mn154 2.290 1_455 S
O170 C164 1.278 . S
O171 Mn154 2.251 1_455 S
O171 C164 1.241 . S
C172 C173 1.349 . S
C172 C174 1.327 . S
C172 H197 0.950 . S
C173 C172 1.349 . S
C173 C189 1.349 . S
C174 C172 1.327 . S
C174 C193 1.429 . S
C174 H198 0.950 . S
C175 C192 1.574 . S
C175 C194 1.368 . S
C175 H199 0.949 . S
H176 C180 0.949 . S
C177 C178 1.349 . S
C177 C179 1.327 . S
C177 H200 0.973 . S
C178 C177 1.349 . S
C178 C190 1.349 . S
C179 C177 1.327 . S
C179 C195 1.429 . S
C179 H201 0.950 . S
C180 H176 0.949 . S
C180 C188 1.574 . S
C180 C196 1.368 . S
H181 C189 0.950 . S
H182 C187 0.950 . S
H183 C188 0.949 . S
H184 C190 0.950 . S
H185 C191 0.950 . S
H186 C192 0.949 . S
C187 H182 0.950 . S
C187 C189 1.327 . S
C187 C193 1.429 . S
C188 C180 1.574 . S
C188 H183 0.949 . S
C188 C194 1.368 . S
C189 C173 1.349 . S
C189 H181 0.950 . S
C189 C187 1.327 . S
C190 C178 1.349 . S
C190 H184 0.950 . S
C190 C191 1.327 . S
C191 H185 0.950 . S
C191 C190 1.327 . S
C191 C195 1.429 . S
C192 C175 1.574 . S
C192 H186 0.949 . S
C192 C196 1.368 . S
C193 C174 1.429 . S
C193 C187 1.429 . S
C193 C194 1.523 . S
C194 C175 1.368 . S
C194 C188 1.368 . S
C194 C193 1.523 . S
C195 C179 1.429 . S
C195 C191 1.429 . S
C195 C196 1.523 . S
C196 C180 1.368 . S
C196 C192 1.368 . S
C196 C195 1.523 . S
H197 C172 0.950 . S
H198 C174 0.950 . S
H199 C175 0.949 . S
H200 C177 0.973 . S
H201 C179 0.950 . S
C202 C203 1.349 . S
C202 C204 1.327 . S
C202 H227 0.950 . S
C203 C202 1.349 . S
C203 C219 1.349 . S
C204 C202 1.327 . S
C204 C223 1.429 . S
C204 H228 0.950 . S
C205 C222 1.574 . S
C205 C224 1.368 . S
C205 H229 0.949 . S
H206 C210 0.949 1_545 S
C207 C208 1.349 1_565 S
C207 C209 1.327 . S
C207 H230 0.950 . S
C208 C207 1.349 1_545 S
C208 C220 1.349 . S
C209 C207 1.327 . S
C209 C225 1.429 . S
C209 H231 0.950 . S
C210 H206 0.949 1_565 S
C210 C218 1.574 . S
C210 C226 1.368 . S
H211 C219 0.950 . S
H212 C217 0.950 . S
H213 C218 0.949 . S
H214 C220 0.950 . S
H215 C221 0.950 . S
H216 C222 0.949 . S
C217 H212 0.950 . S
C217 C219 1.327 . S
C217 C223 1.429 . S
C218 C210 1.574 . S
C218 H213 0.949 . S
C218 C224 1.368 . S
C219 C203 1.349 . S
C219 H211 0.950 . S
C219 C217 1.327 . S
C220 C208 1.349 . S
C220 H214 0.950 . S
C220 C221 1.327 . S
C221 H215 0.950 . S
C221 C220 1.327 . S
C221 C225 1.429 1_545 S
C222 C205 1.574 . S
C222 H216 0.949 . S
C222 C226 1.368 . S
C223 C204 1.429 . S
C223 C217 1.429 . S
C223 C224 1.523 . S
C224 C205 1.368 . S
C224 C218 1.368 . S
C224 C223 1.523 . S
C225 C209 1.429 . S
C225 C221 1.429 1_565 S
C225 C226 1.523 . S
C226 C210 1.368 . S
C226 C222 1.368 . S
C226 C225 1.523 . S
H227 C202 0.950 . S
H228 C204 0.950 . S
H229 C205 0.949 . S
H230 C207 0.950 . S
H231 C209 0.950 . S
C232 C233 1.349 . S
C232 C234 1.327 . S
C232 H257 0.950 . S
C233 C232 1.349 . S
C233 C249 1.349 . S
C234 C232 1.327 . S
C234 C253 1.429 . S
C234 H258 0.950 . S
C235 C252 1.574 . S
C235 C254 1.368 . S
C235 H259 0.949 . S
H236 C240 0.949 . S
C237 C238 1.349 . S
C237 C239 1.327 . S
C237 H260 0.950 . S
C238 C237 1.349 . S
C238 C250 1.349 . S
C239 C237 1.327 . S
C239 C255 1.429 . S
C239 H261 0.950 . S
C240 H236 0.949 . S
C240 C248 1.574 . S
C240 C256 1.368 . S
H241 C249 0.950 . S
H242 C247 0.950 . S
H243 C248 0.949 . S
H244 C250 0.950 . S
H245 C251 0.950 . S
H246 C252 0.949 . S
C247 H242 0.950 . S
C247 C249 1.327 . S
C247 C253 1.429 . S
C248 C240 1.574 . S
C248 H243 0.949 . S
C248 C254 1.368 . S
C249 C233 1.349 . S
C249 H241 0.950 . S
C249 C247 1.327 . S
C250 C238 1.349 . S
C250 H244 0.950 . S
C250 C251 1.327 . S
C251 H245 0.950 . S
C251 C250 1.327 . S
C251 C255 1.429 . S
C252 C235 1.574 . S
C252 H246 0.949 . S
C252 C256 1.368 . S
C253 C234 1.429 . S
C253 C247 1.429 . S
C253 C254 1.523 . S
C254 C235 1.368 . S
C254 C248 1.368 . S
C254 C253 1.523 . S
C255 C239 1.429 . S
C255 C251 1.429 . S
C255 C256 1.523 . S
C256 C240 1.368 . S
C256 C252 1.368 . S
C256 C255 1.523 . S
H257 C232 0.950 . S
H258 C234 0.950 . S
H259 C235 0.949 . S
H260 C237 0.950 . S
H261 C239 0.950 . S
C262 C263 1.349 . S
C262 C264 1.327 . S
C262 H287 0.950 . S
C263 C262 1.349 . S
C263 C279 1.349 . S
C264 C262 1.327 . S
C264 C283 1.429 . S
C264 H288 0.950 . S
C265 C282 1.574 . S
C265 C284 1.368 . S
C265 H289 0.949 . S
H266 C270 0.949 . S
C267 C268 1.334 1_455 S
C267 C269 1.321 1_455 S
C267 H290 0.972 . S
C268 C267 1.334 1_655 S
C268 C280 1.349 . S
C269 C267 1.321 1_655 S
C269 C285 1.429 . S
C269 H291 0.950 1_655 S
C270 H266 0.949 . S
C270 C278 1.574 . S
C270 C286 1.368 . S
H271 C279 0.950 . S
H272 C277 0.950 . S
H273 C278 0.949 . S
H274 C280 0.950 . S
H275 C281 0.950 . S
H276 C282 0.949 1_455 S
C277 H272 0.950 . S
C277 C279 1.327 . S
C277 C283 1.429 . S
C278 C270 1.574 . S
C278 H273 0.949 . S
C278 C284 1.368 . S
C279 C263 1.349 . S
C279 H271 0.950 . S
C279 C277 1.327 . S
C280 C268 1.349 . S
C280 H274 0.950 . S
C280 C281 1.327 . S
C281 H275 0.950 . S
C281 C280 1.327 . S
C281 C285 1.429 . S
C282 C265 1.574 . S
C282 H276 0.949 1_655 S
C282 C286 1.368 . S
C283 C264 1.429 . S
C283 C277 1.429 . S
C283 C284 1.523 . S
C284 C265 1.368 . S
C284 C278 1.368 . S
C284 C283 1.523 . S
C285 C269 1.429 . S
C285 C281 1.429 . S
C285 C286 1.523 . S
C286 C270 1.368 . S
C286 C282 1.368 . S
C286 C285 1.523 . S
H287 C262 0.950 . S
H288 C264 0.950 . S
H289 C265 0.949 . S
H290 C267 0.972 . S
H291 C269 0.950 1_455 S
C292 C293 1.349 . S
C292 C294 1.327 . S
C292 H317 0.950 . S
C293 C292 1.349 . S
C293 C309 1.349 . S
C294 C292 1.327 . S
C294 C313 1.429 . S
C294 H318 0.950 . S
C295 C312 1.574 . S
C295 C314 1.368 . S
C295 H319 0.949 . S
H296 C300 0.949 . S
C297 C298 1.349 . S
C297 C299 1.327 . S
C297 H320 0.950 . S
C298 C297 1.349 . S
C298 C310 1.349 . S
C299 C297 1.327 . S
C299 C315 1.429 . S
C299 H321 0.950 . S
C300 H296 0.949 . S
C300 C308 1.574 . S
C300 C316 1.368 . S
H301 C309 0.950 . S
H302 C307 0.950 . S
H303 C308 0.949 . S
H304 C310 0.950 . S
H305 C311 0.950 . S
H306 C312 0.949 . S
C307 H302 0.950 . S
C307 C309 1.327 . S
C307 C313 1.429 . S
C308 C300 1.574 . S
C308 H303 0.949 . S
C308 C314 1.368 . S
C309 C293 1.349 . S
C309 H301 0.950 . S
C309 C307 1.327 . S
C310 C298 1.349 . S
C310 H304 0.950 . S
C310 C311 1.327 . S
C311 H305 0.950 . S
C311 C310 1.327 . S
C311 C315 1.429 . S
C312 C295 1.574 . S
C312 H306 0.949 . S
C312 C316 1.368 . S
C313 C294 1.429 . S
C313 C307 1.429 . S
C313 C314 1.523 . S
C314 C295 1.368 . S
C314 C308 1.368 . S
C314 C313 1.523 . S
C315 C299 1.429 . S
C315 C311 1.429 . S
C315 C316 1.523 . S
C316 C300 1.368 . S
C316 C312 1.368 . S
C316 C315 1.523 . S
H317 C292 0.950 . S
H318 C294 0.950 . S
H319 C295 0.949 . S
H320 C297 0.950 . S
H321 C299 0.950 . S
C322 C323 1.349 . S
C322 C324 1.327 . S
C322 H347 0.950 . S
C323 C322 1.349 . S
C323 C339 1.349 . S
C324 C322 1.327 . S
C324 C343 1.429 . S
C324 H348 0.950 . S
C325 C342 1.574 . S
C325 C344 1.368 . S
C325 H349 0.949 . S
H326 C330 0.949 . S
C327 C328 1.349 . S
C327 C329 1.327 . S
C327 H350 0.950 . S
C328 C327 1.349 . S
C328 C340 1.349 . S
C329 C327 1.327 . S
C329 C345 1.429 . S
C329 H351 0.950 . S
C330 H326 0.949 . S
C330 C338 1.574 . S
C330 C346 1.368 . S
H331 C339 0.950 . S
H332 C337 0.950 . S
H333 C338 0.949 . S
H334 C340 0.950 1_545 S
H335 C341 0.950 . S
H336 C342 0.949 . S
C337 H332 0.950 . S
C337 C339 1.327 . S
C337 C343 1.429 . S
C338 C330 1.574 . S
C338 H333 0.949 . S
C338 C344 1.368 . S
C339 C323 1.349 . S
C339 H331 0.950 . S
C339 C337 1.327 . S
C340 C328 1.349 . S
C340 H334 0.950 1_565 S
C340 C341 1.327 . S
C341 H335 0.950 . S
C341 C340 1.327 . S
C341 C345 1.429 . S
C342 C325 1.574 . S
C342 H336 0.949 . S
C342 C346 1.368 . S
C343 C324 1.429 . S
C343 C337 1.429 . S
C343 C344 1.523 . S
C344 C325 1.368 . S
C344 C338 1.368 . S
C344 C343 1.523 . S
C345 C329 1.429 . S
C345 C341 1.429 . S
C345 C346 1.523 . S
C346 C330 1.368 . S
C346 C342 1.368 . S
C346 C345 1.523 . S
H347 C322 0.950 . S
H348 C324 0.950 . S
H349 C325 0.949 . S
H350 C327 0.950 . S
H351 C329 0.950 . S
C352 C353 1.349 . S
C352 C354 1.327 . S
C352 H377 0.950 . S
C353 C352 1.349 . S
C353 C369 1.349 . S
C354 C352 1.327 . S
C354 C373 1.429 . S
C354 H378 0.950 . S
C355 C372 1.574 . S
C355 C374 1.368 . S
C355 H379 0.949 . S
H356 C360 0.949 . S
C357 C358 1.349 . S
C357 C359 1.327 . S
C357 H380 0.950 . S
C358 C357 1.349 . S
C358 C370 1.349 . S
C359 C357 1.327 . S
C359 C375 1.429 . S
C359 H381 0.950 . S
C360 H356 0.949 . S
C360 C368 1.574 . S
C360 C376 1.368 . S
H361 C369 0.950 . S
H362 C367 0.950 . S
H363 C368 0.949 . S
H364 C370 0.950 1_554 S
H365 C371 0.950 . S
H366 C372 0.949 . S
C367 H362 0.950 . S
C367 C369 1.327 . S
C367 C373 1.429 . S
C368 C360 1.574 . S
C368 H363 0.949 . S
C368 C374 1.368 . S
C369 C353 1.349 . S
C369 H361 0.950 . S
C369 C367 1.327 . S
C370 C358 1.349 . S
C370 H364 0.950 1_556 S
C370 C371 1.327 . S
C371 H365 0.950 . S
C371 C370 1.327 . S
C371 C375 1.429 . S
C372 C355 1.574 . S
C372 H366 0.949 . S
C372 C376 1.368 . S
C373 C354 1.429 . S
C373 C367 1.429 . S
C373 C374 1.523 . S
C374 C355 1.368 . S
C374 C368 1.368 . S
C374 C373 1.523 . S
C375 C359 1.429 . S
C375 C371 1.429 . S
C375 C376 1.523 . S
C376 C360 1.368 . S
C376 C372 1.368 . S
C376 C375 1.523 . S
H377 C352 0.950 . S
H378 C354 0.950 . S
H379 C355 0.949 . S
H380 C357 0.950 . S
H381 C359 0.950 . S
C382 C383 1.349 . S
C382 C384 1.327 . S
C382 H407 0.950 . S
C383 C382 1.349 . S
C383 C399 1.349 . S
C384 C382 1.327 . S
C384 C403 1.429 . S
C384 H408 0.950 . S
C385 C402 1.574 . S
C385 C404 1.368 . S
C385 H409 0.949 . S
H386 C390 0.949 . S
C387 C388 1.349 . S
C387 C389 1.327 . S
C387 H410 0.950 . S
C388 C387 1.349 . S
C388 C400 1.349 . S
C389 C387 1.327 . S
C389 C405 1.429 . S
C389 H411 0.950 . S
C390 H386 0.949 . S
C390 C398 1.574 . S
C390 C406 1.368 . S
H391 C399 0.950 . S
H392 C397 0.950 . S
H393 C398 0.949 . S
H394 C400 0.950 . S
H395 C401 0.950 . S
H396 C402 0.949 . S
C397 H392 0.950 . S
C397 C399 1.327 . S
C397 C403 1.429 . S
C398 C390 1.574 . S
C398 H393 0.949 . S
C398 C404 1.368 . S
C399 C383 1.349 . S
C399 H391 0.950 . S
C399 C397 1.327 . S
C400 C388 1.349 . S
C400 H394 0.950 . S
C400 C401 1.327 . S
C401 H395 0.950 . S
C401 C400 1.327 . S
C401 C405 1.429 . S
C402 C385 1.574 . S
C402 H396 0.949 . S
C402 C406 1.368 . S
C403 C384 1.429 . S
C403 C397 1.429 . S
C403 C404 1.523 . S
C404 C385 1.368 . S
C404 C398 1.368 . S
C404 C403 1.523 . S
C405 C389 1.429 . S
C405 C401 1.429 . S
C405 C406 1.523 . S
C406 C390 1.368 . S
C406 C402 1.368 . S
C406 C405 1.523 . S
H407 C382 0.950 . S
H408 C384 0.950 . S
H409 C385 0.949 . S
H410 C387 0.950 . S
H411 C389 0.950 . S
C412 C413 1.349 . S
C412 C414 1.327 . S
C412 H437 0.950 . S
C413 C412 1.349 . S
C413 C429 1.349 . S
C414 C412 1.327 . S
C414 C433 1.429 . S
C414 H438 0.950 . S
C415 C432 1.574 . S
C415 C434 1.368 . S
C415 H439 0.949 . S
H416 C420 0.949 . S
C417 C418 1.349 . S
C417 C419 1.327 . S
C417 H440 0.950 . S
C418 C417 1.349 . S
C418 C430 1.349 . S
C419 C417 1.327 . S
C419 C435 1.429 . S
C419 H441 0.950 . S
C420 H416 0.949 . S
C420 C428 1.574 . S
C420 C436 1.368 . S
H421 C429 0.950 . S
H422 C427 0.950 . S
H423 C428 0.949 . S
H424 C430 0.950 . S
H425 C431 0.950 . S
H426 C432 0.949 . S
C427 H422 0.950 . S
C427 C429 1.327 . S
C427 C433 1.429 . S
C428 C420 1.574 . S
C428 H423 0.949 . S
C428 C434 1.368 . S
C429 C413 1.349 . S
C429 H421 0.950 . S
C429 C427 1.327 . S
C430 C418 1.349 . S
C430 H424 0.950 . S
C430 C431 1.327 . S
C431 H425 0.950 . S
C431 C430 1.327 . S
C431 C435 1.429 . S
C432 C415 1.574 . S
C432 H426 0.949 . S
C432 C436 1.368 . S
C433 C414 1.429 . S
C433 C427 1.429 . S
C433 C434 1.523 . S
C434 C415 1.368 . S
C434 C428 1.368 . S
C434 C433 1.523 . S
C435 C419 1.429 . S
C435 C431 1.429 . S
C435 C436 1.523 . S
C436 C420 1.368 . S
C436 C432 1.368 . S
C436 C435 1.523 . S
H437 C412 0.950 . S
H438 C414 0.950 . S
H439 C415 0.949 . S
H440 C417 0.950 . S
H441 C419 0.950 . S
C442 C443 1.349 . S
C442 C444 1.327 . S
C442 H467 0.950 . S
C443 C442 1.349 . S
C443 C459 1.349 . S
C444 C442 1.327 . S
C444 C463 1.429 . S
C444 H468 0.950 . S
C445 C462 1.574 1_556 S
C445 C464 1.368 . S
C445 H469 0.949 1_556 S
H446 C450 0.949 . S
C447 C448 1.349 . S
C447 C449 1.327 . S
C447 H470 0.950 . S
C448 C447 1.349 . S
C448 C460 1.349 1_554 S
C449 C447 1.327 . S
C449 C465 1.429 1_554 S
C449 H471 0.950 . S
C450 H446 0.949 . S
C450 C458 1.574 . S
C450 C466 1.368 . S
H451 C459 0.950 . S
H452 C457 0.950 . S
H453 C458 0.949 . S
H454 C460 0.950 . S
H455 C461 0.950 . S
H456 C462 0.949 . S
C457 H452 0.950 . S
C457 C459 1.327 . S
C457 C463 1.429 . S
C458 C450 1.574 . S
C458 H453 0.949 . S
C458 C464 1.368 . S
C459 C443 1.349 . S
C459 H451 0.950 . S
C459 C457 1.327 . S
C460 C448 1.349 1_556 S
C460 H454 0.950 . S
C460 C461 1.327 . S
C461 H455 0.950 . S
C461 C460 1.327 . S
C461 C465 1.429 . S
C462 C445 1.574 1_554 S
C462 H456 0.949 . S
C462 C466 1.368 1_554 S
C463 C444 1.429 . S
C463 C457 1.429 . S
C463 C464 1.523 . S
C464 C445 1.368 . S
C464 C458 1.368 . S
C464 C463 1.523 . S
C465 C449 1.429 1_556 S
C465 C461 1.429 . S
C465 C466 1.523 . S
C466 C450 1.368 . S
C466 C462 1.368 1_556 S
C466 C465 1.523 . S
H467 C442 0.950 . S
H468 C444 0.950 . S
H469 C445 0.949 1_554 S
H470 C447 0.950 . S
H471 C449 0.950 . S
C472 C473 1.349 . S
C472 C474 1.327 . S
C472 H497 0.950 . S
C473 C472 1.349 . S
C473 C489 1.349 . S
C474 C472 1.327 . S
C474 C493 1.429 . S
C474 H498 0.950 . S
C475 C492 1.574 . S
C475 C494 1.368 . S
C475 H499 0.949 . S
H476 C480 0.949 . S
C477 C478 1.349 . S
C477 C479 1.327 . S
C477 H500 0.950 1_655 S
C478 C477 1.349 . S
C478 C490 1.349 . S
C479 C477 1.327 . S
C479 C495 1.429 . S
C479 H501 0.950 . S
C480 H476 0.949 . S
C480 C488 1.574 . S
C480 C496 1.368 . S
H481 C489 0.950 . S
H482 C487 0.950 . S
H483 C488 0.949 . S
H484 C490 0.950 . S
H485 C491 0.950 . S
H486 C492 0.949 . S
C487 H482 0.950 . S
C487 C489 1.327 . S
C487 C493 1.429 . S
C488 C480 1.574 . S
C488 H483 0.949 . S
C488 C494 1.368 . S
C489 C473 1.349 . S
C489 H481 0.950 . S
C489 C487 1.327 . S
C490 C478 1.349 . S
C490 H484 0.950 . S
C490 C491 1.327 . S
C491 H485 0.950 . S
C491 C490 1.327 . S
C491 C495 1.429 . S
C492 C475 1.574 . S
C492 H486 0.949 . S
C492 C496 1.368 . S
C493 C474 1.429 . S
C493 C487 1.429 . S
C493 C494 1.523 . S
C494 C475 1.368 . S
C494 C488 1.368 . S
C494 C493 1.523 . S
C495 C479 1.429 . S
C495 C491 1.429 . S
C495 C496 1.523 . S
C496 C480 1.368 . S
C496 C492 1.368 . S
C496 C495 1.523 . S
H497 C472 0.950 . S
H498 C474 0.950 . S
H499 C475 0.949 . S
H500 C477 0.950 1_455 S
H501 C479 0.950 . S
C502 C503 1.349 . S
C502 C504 1.327 . S
C502 H527 0.950 . S
C503 C502 1.349 . S
C503 C519 1.349 . S
C504 C502 1.327 . S
C504 C523 1.429 . S
C504 H528 0.950 . S
C505 C522 1.574 . S
C505 C524 1.368 . S
C505 H529 0.949 . S
H506 C510 0.949 . S
C507 C508 1.349 . S
C507 C509 1.327 . S
C507 H530 0.950 . S
C508 C507 1.349 . S
C508 C520 1.349 . S
C509 C507 1.327 . S
C509 C525 1.429 . S
C509 H531 0.950 . S
C510 H506 0.949 . S
C510 C518 1.574 . S
C510 C526 1.368 . S
H511 C519 0.950 . S
H512 C517 0.950 . S
H513 C518 0.949 . S
H514 C520 0.950 . S
H515 C521 0.950 . S
H516 C522 0.949 . S
C517 H512 0.950 . S
C517 C519 1.327 . S
C517 C523 1.429 . S
C518 C510 1.574 . S
C518 H513 0.949 . S
C518 C524 1.368 . S
C519 C503 1.349 . S
C519 H511 0.950 . S
C519 C517 1.327 . S
C520 C508 1.349 . S
C520 H514 0.950 . S
C520 C521 1.327 . S
C521 H515 0.950 . S
C521 C520 1.327 . S
C521 C525 1.429 . S
C522 C505 1.574 . S
C522 H516 0.949 . S
C522 C526 1.368 . S
C523 C504 1.429 . S
C523 C517 1.429 . S
C523 C524 1.523 . S
C524 C505 1.368 . S
C524 C518 1.368 . S
C524 C523 1.523 . S
C525 C509 1.429 . S
C525 C521 1.429 . S
C525 C526 1.523 . S
C526 C510 1.368 . S
C526 C522 1.368 . S
C526 C525 1.523 . S
H527 C502 0.950 . S
H528 C504 0.950 . S
H529 C505 0.949 . S
H530 C507 0.950 . S
H531 C509 0.950 . S
C532 C533 1.349 . S
C532 C534 1.327 . S
C532 H557 0.950 . S
C533 C532 1.349 . S
C533 C549 1.349 . S
C534 C532 1.327 . S
C534 C553 1.429 . S
C534 H558 0.950 . S
C535 C552 1.574 . S
C535 C554 1.368 . S
C535 H559 0.949 . S
H536 C540 0.949 . S
C537 C538 1.349 . S
C537 C539 1.327 . S
C537 H560 0.950 . S
C538 C537 1.349 . S
C538 C550 1.349 . S
C539 C537 1.327 . S
C539 C555 1.429 . S
C539 H561 0.950 . S
C540 H536 0.949 . S
C540 C548 1.574 . S
C540 C556 1.368 . S
H541 C549 0.950 . S
H542 C547 0.950 . S
H543 C548 0.949 . S
H544 C550 0.950 1_445 S
H545 C551 0.950 . S
H546 C552 0.949 . S
C547 H542 0.950 . S
C547 C549 1.327 . S
C547 C553 1.429 . S
C548 C540 1.574 . S
C548 H543 0.949 . S
C548 C554 1.368 . S
C549 C533 1.349 . S
C549 H541 0.950 . S
C549 C547 1.327 . S
C550 C538 1.349 . S
C550 H544 0.950 1_665 S
C550 C551 1.327 . S
C551 H545 0.950 . S
C551 C550 1.327 . S
C551 C555 1.429 . S
C552 C535 1.574 . S
C552 H546 0.949 . S
C552 C556 1.368 . S
C553 C534 1.429 . S
C553 C547 1.429 . S
C553 C554 1.523 . S
C554 C535 1.368 . S
C554 C548 1.368 . S
C554 C553 1.523 . S
C555 C539 1.429 . S
C555 C551 1.429 . S
C555 C556 1.523 . S
C556 C540 1.368 . S
C556 C552 1.368 . S
C556 C555 1.523 . S
H557 C532 0.950 . S
H558 C534 0.950 . S
H559 C535 0.949 . S
H560 C537 0.950 . S
H561 C539 0.950 . S
C562 C563 1.349 . S
C562 C564 1.327 . S
C562 H587 0.950 . S
C563 C562 1.349 . S
C563 C579 1.349 . S
C564 C562 1.327 . S
C564 C583 1.429 . S
C564 H588 0.950 . S
C565 C582 1.574 . S
C565 C584 1.368 . S
C565 H589 0.949 . S
H566 C570 0.949 . S
C567 C568 1.349 . S
C567 C569 1.327 . S
C567 H590 0.950 . S
C568 C567 1.349 . S
C568 C580 1.349 . S
C569 C567 1.327 . S
C569 C585 1.429 . S
C569 H591 0.950 . S
C570 H566 0.949 . S
C570 C578 1.574 . S
C570 C586 1.368 . S
H571 C579 0.950 . S
H572 C577 0.950 . S
H573 C578 0.949 . S
H574 C580 0.950 . S
H575 C581 0.950 . S
H576 C582 0.949 . S
C577 H572 0.950 . S
C577 C579 1.327 . S
C577 C583 1.429 . S
C578 C570 1.574 . S
C578 H573 0.949 . S
C578 C584 1.368 . S
C579 C563 1.349 . S
C579 H571 0.950 . S
C579 C577 1.327 . S
C580 C568 1.349 . S
C580 H574 0.950 . S
C580 C581 1.327 . S
C581 H575 0.950 . S
C581 C580 1.327 . S
C581 C585 1.429 . S
C582 C565 1.574 . S
C582 H576 0.949 . S
C582 C586 1.368 . S
C583 C564 1.429 . S
C583 C577 1.429 . S
C583 C584 1.523 . S
C584 C565 1.368 . S
C584 C578 1.368 . S
C584 C583 1.523 . S
C585 C569 1.429 . S
C585 C581 1.429 . S
C585 C586 1.523 . S
C586 C570 1.368 . S
C586 C582 1.368 . S
C586 C585 1.523 . S
H587 C562 0.950 . S
H588 C564 0.950 . S
H589 C565 0.949 . S
H590 C567 0.950 . S
H591 C569 0.950 . S
C592 C593 1.349 . S
C592 C594 1.327 . S
C592 H617 0.950 . S
C593 C592 1.349 . S
C593 C609 1.349 . S
C594 C592 1.327 . S
C594 C613 1.429 . S
C594 H618 0.950 . S
C595 C612 1.574 . S
C595 C614 1.368 . S
C595 H619 0.949 . S
H596 C600 0.949 . S
C597 C598 1.349 . S
C597 C599 1.327 . S
C597 H620 0.950 . S
C598 C597 1.349 . S
C598 C610 1.349 . S
C599 C597 1.327 . S
C599 C615 1.429 . S
C599 H621 0.950 . S
C600 H596 0.949 . S
C600 C608 1.574 . S
C600 C616 1.368 . S
H601 C609 0.950 . S
H602 C607 0.950 . S
H603 C608 0.949 . S
H604 C610 0.950 . S
H605 C611 0.950 . S
H606 C612 0.949 . S
C607 H602 0.950 . S
C607 C609 1.327 . S
C607 C613 1.429 . S
C608 C600 1.574 . S
C608 H603 0.949 . S
C608 C614 1.368 . S
C609 C593 1.349 . S
C609 H601 0.950 . S
C609 C607 1.327 . S
C610 C598 1.349 . S
C610 H604 0.950 . S
C610 C611 1.327 . S
C611 H605 0.950 . S
C611 C610 1.327 . S
C611 C615 1.429 . S
C612 C595 1.574 . S
C612 H606 0.949 . S
C612 C616 1.368 . S
C613 C594 1.429 . S
C613 C607 1.429 . S
C613 C614 1.523 . S
C614 C595 1.368 . S
C614 C608 1.368 . S
C614 C613 1.523 . S
C615 C599 1.429 . S
C615 C611 1.429 . S
C615 C616 1.523 . S
C616 C600 1.368 . S
C616 C612 1.368 . S
C616 C615 1.523 . S
H617 C592 0.950 . S
H618 C594 0.950 . S
H619 C595 0.949 . S
H620 C597 0.950 . S
H621 C599 0.950 . S
C622 C623 1.349 . S
C622 C624 1.327 . S
C622 H647 0.950 . S
C623 C622 1.349 . S
C623 C639 1.349 . S
C624 C622 1.327 . S
C624 C643 1.429 . S
C624 H648 0.950 . S
C625 C642 1.574 . S
C625 C644 1.368 . S
C625 H649 0.949 . S
H626 C630 0.949 . S
C627 C628 1.349 . S
C627 C629 1.327 . S
C627 H650 0.950 . S
C628 C627 1.349 . S
C628 C640 1.349 . S
C629 C627 1.327 . S
C629 C645 1.429 . S
C629 H651 0.950 . S
C630 H626 0.949 . S
C630 C638 1.574 . S
C630 C646 1.368 . S
H631 C639 0.950 . S
H632 C637 0.950 . S
H633 C638 0.949 . S
H634 C640 0.950 . S
H635 C641 0.950 . S
H636 C642 0.949 . S
C637 H632 0.950 . S
C637 C639 1.327 . S
C637 C643 1.429 . S
C638 C630 1.574 . S
C638 H633 0.949 . S
C638 C644 1.368 . S
C639 C623 1.349 . S
C639 H631 0.950 . S
C639 C637 1.327 . S
C640 C628 1.349 . S
C640 H634 0.950 . S
C640 C641 1.327 . S
C641 H635 0.950 . S
C641 C640 1.327 . S
C641 C645 1.429 . S
C642 C625 1.574 . S
C642 H636 0.949 . S
C642 C646 1.368 . S
C643 C624 1.429 . S
C643 C637 1.429 . S
C643 C644 1.523 . S
C644 C625 1.368 . S
C644 C638 1.368 . S
C644 C643 1.523 . S
C645 C629 1.429 . S
C645 C641 1.429 . S
C645 C646 1.523 . S
C646 C630 1.368 . S
C646 C642 1.368 . S
C646 C645 1.523 . S
H647 C622 0.950 . S
H648 C624 0.950 . S
H649 C625 0.949 . S
H650 C627 0.950 . S
H651 C629 0.950 . S
C652 C653 1.349 . S
C652 C654 1.327 . S
C652 H677 0.950 . S
C653 C652 1.349 . S
C653 C669 1.349 . S
C654 C652 1.327 . S
C654 C673 1.429 . S
C654 H678 0.950 . S
C655 C672 1.574 . S
C655 C674 1.368 1_554 S
C655 H679 0.949 . S
H656 C660 0.949 . S
C657 C658 1.349 . S
C657 C659 1.327 . S
C657 H680 0.950 . S
C658 C657 1.349 . S
C658 C670 1.349 1_544 S
C659 C657 1.327 . S
C659 C675 1.440 1_545 S
C659 H681 0.950 . S
C660 H656 0.949 . S
C660 C668 1.574 . S
C660 C676 1.368 . S
H661 C669 0.950 . S
H662 C667 0.928 1_554 S
H663 C668 0.949 . S
H664 C670 0.950 . S
H665 C671 0.950 . S
H666 C672 0.949 1_545 S
C667 H662 0.928 1_556 S
C667 C669 1.327 . S
C667 C673 1.429 . S
C668 C660 1.574 . S
C668 H663 0.949 . S
C668 C674 1.368 . S
C669 C653 1.349 . S
C669 H661 0.950 . S
C669 C667 1.327 . S
C670 C658 1.349 1_566 S
C670 H664 0.950 . S
C670 C671 1.327 . S
C671 H665 0.950 . S
C671 C670 1.327 . S
C671 C675 1.421 1_556 S
C672 C655 1.574 . S
C672 H666 0.949 1_565 S
C672 C676 1.368 1_554 S
C673 C654 1.429 . S
C673 C667 1.429 . S
C673 C674 1.523 . S
C674 C655 1.368 1_556 S
C674 C668 1.368 . S
C674 C673 1.523 . S
C675 C659 1.440 1_565 S
C675 C671 1.421 1_554 S
C675 C676 1.519 1_554 S
C676 C660 1.368 . S
C676 C672 1.368 1_556 S
C676 C675 1.519 1_556 S
H677 C652 0.950 . S
H678 C654 0.950 . S
H679 C655 0.949 . S
H680 C657 0.950 . S
H681 C659 0.950 . S
C682 C683 1.349 . S
C682 C684 1.327 . S
C682 H707 0.950 . S
C683 C682 1.349 . S
C683 C699 1.349 . S
C684 C682 1.327 . S
C684 C703 1.429 . S
C684 H708 0.950 . S
C685 C702 1.574 . S
C685 C704 1.368 . S
C685 H709 0.949 . S
H686 C690 0.949 . S
C687 C688 1.349 . S
C687 C689 1.327 . S
C687 H710 0.950 1_545 S
C688 C687 1.349 . S
C688 C700 1.349 . S
C689 C687 1.327 . S
C689 C705 1.429 . S
C689 H711 0.950 . S
C690 H686 0.949 . S
C690 C698 1.574 . S
C690 C706 1.368 . S
H691 C699 0.950 . S
H692 C697 0.950 . S
H693 C698 0.949 . S
H694 C700 0.950 . S
H695 C701 0.950 . S
H696 C702 0.949 . S
C697 H692 0.950 . S
C697 C699 1.327 . S
C697 C703 1.429 . S
C698 C690 1.574 . S
C698 H693 0.949 . S
C698 C704 1.368 . S
C699 C683 1.349 . S
C699 H691 0.950 . S
C699 C697 1.327 . S
C700 C688 1.349 . S
C700 H694 0.950 . S
C700 C701 1.327 . S
C701 H695 0.950 . S
C701 C700 1.327 . S
C701 C705 1.429 . S
C702 C685 1.574 . S
C702 H696 0.949 . S
C702 C706 1.368 . S
C703 C684 1.429 . S
C703 C697 1.429 . S
C703 C704 1.523 . S
C704 C685 1.368 . S
C704 C698 1.368 . S
C704 C703 1.523 . S
C705 C689 1.429 . S
C705 C701 1.429 . S
C705 C706 1.523 . S
C706 C690 1.368 . S
C706 C702 1.368 . S
C706 C705 1.523 . S
H707 C682 0.950 . S
H708 C684 0.950 . S
H709 C685 0.949 . S
H710 C687 0.950 1_565 S
H711 C689 0.950 . S
C712 C713 1.349 . S
C712 C714 1.327 . S
C712 H737 0.950 . S
C713 C712 1.349 . S
C713 C729 1.349 . S
C714 C712 1.327 . S
C714 C733 1.429 . S
C714 H738 0.950 . S
C715 C732 1.574 . S
C715 C734 1.368 . S
C715 H739 0.949 . S
H716 C720 0.949 . S
C717 C718 1.349 . S
C717 C719 1.327 . S
C717 H740 0.950 . S
C718 C717 1.349 . S
C718 C730 1.349 . S
C719 C717 1.327 . S
C719 C735 1.429 . S
C719 H741 0.950 . S
C720 H716 0.949 . S
C720 C728 1.574 . S
C720 C736 1.368 . S
H721 C729 0.950 . S
H722 C727 0.950 . S
H723 C728 0.949 . S
H724 C730 0.915 1_556 S
H725 C731 0.950 . S
H726 C732 0.949 . S
C727 H722 0.950 . S
C727 C729 1.327 . S
C727 C733 1.429 . S
C728 C720 1.574 . S
C728 H723 0.949 . S
C728 C734 1.368 . S
C729 C713 1.349 . S
C729 H721 0.950 . S
C729 C727 1.327 . S
C730 C718 1.349 . S
C730 H724 0.915 1_554 S
C730 C731 1.327 . S
C731 H725 0.950 . S
C731 C730 1.327 . S
C731 C735 1.429 . S
C732 C715 1.574 . S
C732 H726 0.949 . S
C732 C736 1.368 . S
C733 C714 1.429 . S
C733 C727 1.429 . S
C733 C734 1.523 . S
C734 C715 1.368 . S
C734 C728 1.368 . S
C734 C733 1.523 . S
C735 C719 1.429 . S
C735 C731 1.429 . S
C735 C736 1.523 . S
C736 C720 1.368 . S
C736 C732 1.368 . S
C736 C735 1.523 . S
H737 C712 0.950 . S
H738 C714 0.950 . S
H739 C715 0.949 . S
H740 C717 0.950 . S
H741 C719 0.950 . S
C742 C743 1.349 . S
C742 C744 1.327 . S
C742 H767 0.950 . S
C743 C742 1.349 . S
C743 C759 1.349 . S
C744 C742 1.327 . S
C744 C763 1.429 . S
C744 H768 0.950 . S
C745 C762 1.574 . S
C745 C764 1.368 . S
C745 H769 0.949 . S
H746 C750 0.949 . S
C747 C748 1.349 . S
C747 C749 1.327 . S
C747 H770 0.950 . S
C748 C747 1.349 . S
C748 C760 1.349 . S
C749 C747 1.327 . S
C749 C765 1.429 . S
C749 H771 0.950 . S
C750 H746 0.949 . S
C750 C758 1.574 . S
C750 C766 1.368 . S
H751 C759 0.950 . S
H752 C757 0.950 . S
H753 C758 0.949 . S
H754 C760 0.950 . S
H755 C761 0.950 . S
H756 C762 0.949 . S
C757 H752 0.950 . S
C757 C759 1.327 . S
C757 C763 1.429 . S
C758 C750 1.574 . S
C758 H753 0.949 . S
C758 C764 1.368 . S
C759 C743 1.349 . S
C759 H751 0.950 . S
C759 C757 1.327 . S
C760 C748 1.349 . S
C760 H754 0.950 . S
C760 C761 1.327 . S
C761 H755 0.950 . S
C761 C760 1.327 . S
C761 C765 1.429 . S
C762 C745 1.574 . S
C762 H756 0.949 . S
C762 C766 1.368 . S
C763 C744 1.429 . S
C763 C757 1.429 . S
C763 C764 1.523 . S
C764 C745 1.368 . S
C764 C758 1.368 . S
C764 C763 1.523 . S
C765 C749 1.429 . S
C765 C761 1.429 . S
C765 C766 1.523 . S
C766 C750 1.368 . S
C766 C762 1.368 . S
C766 C765 1.523 . S
H767 C742 0.950 . S
H768 C744 0.950 . S
H769 C745 0.949 . S
H770 C747 0.950 . S
H771 C749 0.950 . S
C772 C773 1.349 . S
C772 C774 1.327 . S
C772 H797 0.950 . S
C773 C772 1.349 . S
C773 C789 1.349 . S
C774 C772 1.327 . S
C774 C793 1.429 . S
C774 H798 0.950 1_556 S
C775 C792 1.574 . S
C775 C794 1.368 . S
C775 H799 0.949 . S
H776 C780 0.925 1_554 S
C777 C778 1.356 . S
C777 C779 1.346 . S
C777 H800 0.924 1_655 S
C778 C777 1.356 . S
C778 C790 1.349 1_556 S
C779 C777 1.346 . S
C779 C795 1.429 . S
C779 H801 0.950 . S
C780 H776 0.925 1_556 S
C780 C788 1.581 . S
C780 C796 1.388 . S
H781 C789 0.950 . S
H782 C787 0.950 . S
H783 C788 0.949 1_554 S
H784 C790 0.950 . S
H785 C791 0.950 . S
H786 C792 0.949 . S
C787 H782 0.950 . S
C787 C789 1.327 . S
C787 C793 1.429 . S
C788 C780 1.581 . S
C788 H783 0.949 1_556 S
C788 C794 1.368 . S
C789 C773 1.349 . S
C789 H781 0.950 . S
C789 C787 1.327 . S
C790 C778 1.349 1_554 S
C790 H784 0.950 . S
C790 C791 1.327 . S
C791 H785 0.950 . S
C791 C790 1.327 . S
C791 C795 1.429 1_554 S
C792 C775 1.574 . S
C792 H786 0.949 . S
C792 C796 1.368 . S
C793 C774 1.429 . S
C793 C787 1.429 . S
C793 C794 1.523 . S
C794 C775 1.368 . S
C794 C788 1.368 . S
C794 C793 1.523 . S
C795 C779 1.429 . S
C795 C791 1.429 1_556 S
C795 C796 1.523 . S
C796 C780 1.388 . S
C796 C792 1.368 . S
C796 C795 1.523 . S
H797 C772 0.950 . S
H798 C774 0.950 1_554 S
H799 C775 0.949 . S
H800 C777 0.924 1_455 S
H801 C779 0.950 . S
C802 C803 1.349 . S
C802 C804 1.327 . S
C802 H827 0.950 . S
C803 C802 1.349 . S
C803 C819 1.349 . S
C804 C802 1.327 . S
C804 C823 1.429 . S
C804 H828 0.950 . S
C805 C822 1.574 . S
C805 C824 1.368 . S
C805 H829 0.949 . S
H806 C810 0.949 . S
C807 C808 1.349 . S
C807 C809 1.327 . S
C807 H830 0.950 . S
C808 C807 1.349 . S
C808 C820 1.349 . S
C809 C807 1.327 . S
C809 C825 1.429 . S
C809 H831 0.950 . S
C810 H806 0.949 . S
C810 C818 1.574 . S
C810 C826 1.368 . S
H811 C819 0.950 . S
H812 C817 0.950 . S
H813 C818 0.949 . S
H814 C820 0.950 . S
H815 C821 0.950 . S
H816 C822 0.949 . S
C817 H812 0.950 . S
C817 C819 1.327 . S
C817 C823 1.429 . S
C818 C810 1.574 . S
C818 H813 0.949 . S
C818 C824 1.368 . S
C819 C803 1.349 . S
C819 H811 0.950 . S
C819 C817 1.327 . S
C820 C808 1.349 . S
C820 H814 0.950 . S
C820 C821 1.327 . S
C821 H815 0.950 . S
C821 C820 1.327 . S
C821 C825 1.429 . S
C822 C805 1.574 . S
C822 H816 0.949 . S
C822 C826 1.368 . S
C823 C804 1.429 . S
C823 C817 1.429 . S
C823 C824 1.523 . S
C824 C805 1.368 . S
C824 C818 1.368 . S
C824 C823 1.523 . S
C825 C809 1.429 . S
C825 C821 1.429 . S
C825 C826 1.523 . S
C826 C810 1.368 . S
C826 C822 1.368 . S
C826 C825 1.523 . S
H827 C802 0.950 . S
H828 C804 0.950 . S
H829 C805 0.949 . S
H830 C807 0.950 . S
H831 C809 0.950 . S
C832 C833 1.349 . S
C832 C834 1.327 . S
C832 H857 0.950 . S
C833 C832 1.349 . S
C833 C849 1.349 . S
C834 C832 1.327 . S
C834 C853 1.429 . S
C834 H858 0.950 . S
C835 C852 1.574 . S
C835 C854 1.368 . S
C835 H859 0.949 . S
H836 C840 0.949 . S
C837 C838 1.349 . S
C837 C839 1.327 . S
C837 H860 0.950 . S
C838 C837 1.349 . S
C838 C850 1.349 . S
C839 C837 1.327 . S
C839 C855 1.429 . S
C839 H861 0.950 . S
C840 H836 0.949 . S
C840 C848 1.574 . S
C840 C856 1.368 . S
H841 C849 0.950 . S
H842 C847 0.950 . S
H843 C848 0.949 . S
H844 C850 0.950 . S
H845 C851 0.950 . S
H846 C852 0.949 . S
C847 H842 0.950 . S
C847 C849 1.327 . S
C847 C853 1.429 . S
C848 C840 1.574 . S
C848 H843 0.949 . S
C848 C854 1.368 . S
C849 C833 1.349 . S
C849 H841 0.950 . S
C849 C847 1.327 . S
C850 C838 1.349 . S
C850 H844 0.950 . S
C850 C851 1.327 . S
C851 H845 0.950 . S
C851 C850 1.327 . S
C851 C855 1.429 . S
C852 C835 1.574 . S
C852 H846 0.949 . S
C852 C856 1.368 . S
C853 C834 1.429 . S
C853 C847 1.429 . S
C853 C854 1.523 . S
C854 C835 1.368 . S
C854 C848 1.368 . S
C854 C853 1.523 . S
C855 C839 1.429 . S
C855 C851 1.429 . S
C855 C856 1.523 . S
C856 C840 1.368 . S
C856 C852 1.368 . S
C856 C855 1.523 . S
H857 C832 0.950 . S
H858 C834 0.950 . S
H859 C835 0.949 . S
H860 C837 0.950 . S
H861 C839 0.950 . S
C862 C863 1.349 . S
C862 C864 1.327 . S
C862 H887 0.950 . S
C863 C862 1.349 . S
C863 C879 1.349 . S
C864 C862 1.327 . S
C864 C883 1.429 . S
C864 H888 0.950 . S
C865 C882 1.574 . S
C865 C884 1.368 . S
C865 H889 0.949 . S
H866 C870 0.949 . S
C867 C868 1.349 . S
C867 C869 1.327 . S
C867 H890 0.950 . S
C868 C867 1.349 . S
C868 C880 1.349 . S
C869 C867 1.327 . S
C869 C885 1.429 . S
C869 H891 0.950 . S
C870 H866 0.949 . S
C870 C878 1.574 . S
C870 C886 1.368 . S
H871 C879 0.950 . S
H872 C877 0.950 . S
H873 C878 0.949 . S
H874 C880 0.950 . S
H875 C881 0.950 . S
H876 C882 0.949 . S
C877 H872 0.950 . S
C877 C879 1.327 . S
C877 C883 1.429 . S
C878 C870 1.574 . S
C878 H873 0.949 . S
C878 C884 1.368 . S
C879 C863 1.349 . S
C879 H871 0.950 . S
C879 C877 1.327 . S
C880 C868 1.349 . S
C880 H874 0.950 . S
C880 C881 1.327 . S
C881 H875 0.950 . S
C881 C880 1.327 . S
C881 C885 1.429 . S
C882 C865 1.574 . S
C882 H876 0.949 . S
C882 C886 1.368 . S
C883 C864 1.429 . S
C883 C877 1.429 . S
C883 C884 1.523 . S
C884 C865 1.368 . S
C884 C878 1.368 . S
C884 C883 1.523 . S
C885 C869 1.429 . S
C885 C881 1.429 . S
C885 C886 1.523 . S
C886 C870 1.368 . S
C886 C882 1.368 . S
C886 C885 1.523 . S
H887 C862 0.950 . S
H888 C864 0.950 . S
H889 C865 0.949 . S
H890 C867 0.950 . S
H891 C869 0.950 . S
C173 C5 1.835 . S
C178 C106 1.931 . S
C203 C18 1.540 . S
C208 C123 1.592 . S
C238 C146 1.040 . S
C233 C30 1.192 . S
C263 C41 1.487 . S
C268 C167 1.200 . S
C298 C126 2.099 . S
C293 C7 2.116 . S
C328 C103 1.911 . S
C323 C16 1.657 . S
C358 C165 1.315 . S
C353 C29 1.288 . S
C388 C144 0.921 . S
C383 C38 0.908 . S
C413 C8 1.907 . S
C418 C168 1.824 . S
C448 C125 1.487 . S
C443 C27 1.465 . S
C473 C40 1.645 . S
C478 C101 1.445 . S
C503 C19 1.112 . S
C508 C147 1.114 . S
C538 C105 1.689 . S
C533 C51 1.694 . S
C563 C62 1.437 . S
C568 C124 1.474 . S
C593 C74 1.377 . S
C598 C143 1.205 . S
C623 C84 1.420 . S
C628 C164 1.261 . S
C653 C49 2.039 . S
C658 C127 2.136 . S
C688 C102 1.723 . S
C683 C63 1.745 . S
C718 C166 1.081 . S
C713 C71 0.978 . S
C748 C145 1.187 . S
C743 C85 1.194 . S
C773 C52 1.646 . S
C778 C169 1.604 1_655 S
C808 C122 1.459 . S
C803 C73 1.678 . S
C838 C104 1.088 . S
C833 C82 0.974 . S
C863 C60 1.288 . S
C868 C148 1.545 . S
