# Generated by pormake.
# Topology fgl, (4,4)-cn, num edge types: 1
# Building blocks:
#     Node 0, Type 0, BuildingBlock: ESEHIV_clean_sbu_0, # of connection points: 4
#     Node 1, Type 0, BuildingBlock: ESEHIV_clean_sbu_0, # of connection points: 4
#     Node 2, Type 0, BuildingBlock: ESEHIV_clean_sbu_0, # of connection points: 4
#     Node 3, Type 0, BuildingBlock: ESEHIV_clean_sbu_0, # of connection points: 4
#     Node 4, Type 0, BuildingBlock: ESEHIV_clean_sbu_0, # of connection points: 4
#     Node 5, Type 0, BuildingBlock: ESEHIV_clean_sbu_0, # of connection points: 4
#     Node 6, Type 0, BuildingBlock: ESEHIV_clean_sbu_0, # of connection points: 4
#     Node 7, Type 0, BuildingBlock: ESEHIV_clean_sbu_0, # of connection points: 4
#     Node 8, Type 0, BuildingBlock: ESEHIV_clean_sbu_0, # of connection points: 4
#     Node 9, Type 0, BuildingBlock: ESEHIV_clean_sbu_0, # of connection points: 4
#     Node 10, Type 0, BuildingBlock: ESEHIV_clean_sbu_0, # of connection points: 4
#     Node 11, Type 0, BuildingBlock: ESEHIV_clean_sbu_0, # of connection points: 4
#     Node 12, Type 0, BuildingBlock: ESEHIV_clean_sbu_0, # of connection points: 4
#     Node 13, Type 0, BuildingBlock: ESEHIV_clean_sbu_0, # of connection points: 4
#     Node 14, Type 0, BuildingBlock: ESEHIV_clean_sbu_0, # of connection points: 4
#     Node 15, Type 0, BuildingBlock: ESEHIV_clean_sbu_0, # of connection points: 4
#     Node 16, Type 0, BuildingBlock: ESEHIV_clean_sbu_0, # of connection points: 4
#     Node 17, Type 0, BuildingBlock: ESEHIV_clean_sbu_0, # of connection points: 4
#     Node 18, Type 1, BuildingBlock: GALJAG_clean_sbu_0, # of connection points: 4
#     Node 19, Type 1, BuildingBlock: GALJAG_clean_sbu_0, # of connection points: 4
#     Node 20, Type 1, BuildingBlock: GALJAG_clean_sbu_0, # of connection points: 4
#     Node 21, Type 1, BuildingBlock: GALJAG_clean_sbu_0, # of connection points: 4
#     Node 22, Type 1, BuildingBlock: GALJAG_clean_sbu_0, # of connection points: 4
#     Node 23, Type 1, BuildingBlock: GALJAG_clean_sbu_0, # of connection points: 4
#     Node 24, Type 1, BuildingBlock: GALJAG_clean_sbu_0, # of connection points: 4
#     Node 25, Type 1, BuildingBlock: GALJAG_clean_sbu_0, # of connection points: 4
#     Node 26, Type 1, BuildingBlock: GALJAG_clean_sbu_0, # of connection points: 4
#     Node 27, Type 1, BuildingBlock: GALJAG_clean_sbu_0, # of connection points: 4
#     Node 28, Type 1, BuildingBlock: GALJAG_clean_sbu_0, # of connection points: 4
#     Node 29, Type 1, BuildingBlock: GALJAG_clean_sbu_0, # of connection points: 4
#     Node 30, Type 1, BuildingBlock: GALJAG_clean_sbu_0, # of connection points: 4
#     Node 31, Type 1, BuildingBlock: GALJAG_clean_sbu_0, # of connection points: 4
#     Node 32, Type 1, BuildingBlock: GALJAG_clean_sbu_0, # of connection points: 4
#     Node 33, Type 1, BuildingBlock: GALJAG_clean_sbu_0, # of connection points: 4
#     Node 34, Type 1, BuildingBlock: GALJAG_clean_sbu_0, # of connection points: 4
#     Node 35, Type 1, BuildingBlock: GALJAG_clean_sbu_0, # of connection points: 4
#     Edge 36, Type (0, 1), BuildingBlock: KIFKEQ_clean_linker_1, # of connection points: 2
#     Edge 37, Type (0, 1), BuildingBlock: KIFKEQ_clean_linker_1, # of connection points: 2
#     Edge 38, Type (0, 1), BuildingBlock: KIFKEQ_clean_linker_1, # of connection points: 2
#     Edge 39, Type (0, 1), BuildingBlock: KIFKEQ_clean_linker_1, # of connection points: 2
#     Edge 40, Type (0, 1), BuildingBlock: KIFKEQ_clean_linker_1, # of connection points: 2
#     Edge 41, Type (0, 1), BuildingBlock: KIFKEQ_clean_linker_1, # of connection points: 2
#     Edge 42, Type (0, 1), BuildingBlock: KIFKEQ_clean_linker_1, # of connection points: 2
#     Edge 43, Type (0, 1), BuildingBlock: KIFKEQ_clean_linker_1, # of connection points: 2
#     Edge 44, Type (0, 1), BuildingBlock: KIFKEQ_clean_linker_1, # of connection points: 2
#     Edge 45, Type (0, 1), BuildingBlock: KIFKEQ_clean_linker_1, # of connection points: 2
#     Edge 46, Type (0, 1), BuildingBlock: KIFKEQ_clean_linker_1, # of connection points: 2
#     Edge 47, Type (0, 1), BuildingBlock: KIFKEQ_clean_linker_1, # of connection points: 2
#     Edge 48, Type (0, 1), BuildingBlock: KIFKEQ_clean_linker_1, # of connection points: 2
#     Edge 49, Type (0, 1), BuildingBlock: KIFKEQ_clean_linker_1, # of connection points: 2
#     Edge 50, Type (0, 1), BuildingBlock: KIFKEQ_clean_linker_1, # of connection points: 2
#     Edge 51, Type (0, 1), BuildingBlock: KIFKEQ_clean_linker_1, # of connection points: 2
#     Edge 52, Type (0, 1), BuildingBlock: KIFKEQ_clean_linker_1, # of connection points: 2
#     Edge 53, Type (0, 1), BuildingBlock: KIFKEQ_clean_linker_1, # of connection points: 2
#     Edge 54, Type (0, 1), BuildingBlock: KIFKEQ_clean_linker_1, # of connection points: 2
#     Edge 55, Type (0, 1), BuildingBlock: KIFKEQ_clean_linker_1, # of connection points: 2
#     Edge 56, Type (0, 1), BuildingBlock: KIFKEQ_clean_linker_1, # of connection points: 2
#     Edge 57, Type (0, 1), BuildingBlock: KIFKEQ_clean_linker_1, # of connection points: 2
#     Edge 58, Type (0, 1), BuildingBlock: KIFKEQ_clean_linker_1, # of connection points: 2
#     Edge 59, Type (0, 1), BuildingBlock: KIFKEQ_clean_linker_1, # of connection points: 2
#     Edge 60, Type (0, 1), BuildingBlock: KIFKEQ_clean_linker_1, # of connection points: 2
#     Edge 61, Type (0, 1), BuildingBlock: KIFKEQ_clean_linker_1, # of connection points: 2
#     Edge 62, Type (0, 1), BuildingBlock: KIFKEQ_clean_linker_1, # of connection points: 2
#     Edge 63, Type (0, 1), BuildingBlock: KIFKEQ_clean_linker_1, # of connection points: 2
#     Edge 64, Type (0, 1), BuildingBlock: KIFKEQ_clean_linker_1, # of connection points: 2
#     Edge 65, Type (0, 1), BuildingBlock: KIFKEQ_clean_linker_1, # of connection points: 2
#     Edge 66, Type (0, 1), BuildingBlock: KIFKEQ_clean_linker_1, # of connection points: 2
#     Edge 67, Type (0, 1), BuildingBlock: KIFKEQ_clean_linker_1, # of connection points: 2
#     Edge 68, Type (0, 1), BuildingBlock: KIFKEQ_clean_linker_1, # of connection points: 2
#     Edge 69, Type (0, 1), BuildingBlock: KIFKEQ_clean_linker_1, # of connection points: 2
#     Edge 70, Type (0, 1), BuildingBlock: KIFKEQ_clean_linker_1, # of connection points: 2
#     Edge 71, Type (0, 1), BuildingBlock: KIFKEQ_clean_linker_1, # of connection points: 2
#     Edge 72, Type (0, 1), BuildingBlock: KIFKEQ_clean_linker_1, # of connection points: 2
#     Edge 73, Type (0, 1), BuildingBlock: KIFKEQ_clean_linker_1, # of connection points: 2
#     Edge 74, Type (0, 1), BuildingBlock: KIFKEQ_clean_linker_1, # of connection points: 2
#     Edge 75, Type (0, 1), BuildingBlock: KIFKEQ_clean_linker_1, # of connection points: 2
#     Edge 76, Type (0, 1), BuildingBlock: KIFKEQ_clean_linker_1, # of connection points: 2
#     Edge 77, Type (0, 1), BuildingBlock: KIFKEQ_clean_linker_1, # of connection points: 2
#     Edge 78, Type (0, 1), BuildingBlock: KIFKEQ_clean_linker_1, # of connection points: 2
#     Edge 79, Type (0, 1), BuildingBlock: KIFKEQ_clean_linker_1, # of connection points: 2
#     Edge 80, Type (0, 1), BuildingBlock: KIFKEQ_clean_linker_1, # of connection points: 2
#     Edge 81, Type (0, 1), BuildingBlock: KIFKEQ_clean_linker_1, # of connection points: 2
#     Edge 82, Type (0, 1), BuildingBlock: KIFKEQ_clean_linker_1, # of connection points: 2
#     Edge 83, Type (0, 1), BuildingBlock: KIFKEQ_clean_linker_1, # of connection points: 2
#     Edge 84, Type (0, 1), BuildingBlock: KIFKEQ_clean_linker_1, # of connection points: 2
#     Edge 85, Type (0, 1), BuildingBlock: KIFKEQ_clean_linker_1, # of connection points: 2
#     Edge 86, Type (0, 1), BuildingBlock: KIFKEQ_clean_linker_1, # of connection points: 2
#     Edge 87, Type (0, 1), BuildingBlock: KIFKEQ_clean_linker_1, # of connection points: 2
#     Edge 88, Type (0, 1), BuildingBlock: KIFKEQ_clean_linker_1, # of connection points: 2
#     Edge 89, Type (0, 1), BuildingBlock: KIFKEQ_clean_linker_1, # of connection points: 2
#     Edge 90, Type (0, 1), BuildingBlock: KIFKEQ_clean_linker_1, # of connection points: 2
#     Edge 91, Type (0, 1), BuildingBlock: KIFKEQ_clean_linker_1, # of connection points: 2
#     Edge 92, Type (0, 1), BuildingBlock: KIFKEQ_clean_linker_1, # of connection points: 2
#     Edge 93, Type (0, 1), BuildingBlock: KIFKEQ_clean_linker_1, # of connection points: 2
#     Edge 94, Type (0, 1), BuildingBlock: KIFKEQ_clean_linker_1, # of connection points: 2
#     Edge 95, Type (0, 1), BuildingBlock: KIFKEQ_clean_linker_1, # of connection points: 2
#     Edge 96, Type (0, 1), BuildingBlock: KIFKEQ_clean_linker_1, # of connection points: 2
#     Edge 97, Type (0, 1), BuildingBlock: KIFKEQ_clean_linker_1, # of connection points: 2
#     Edge 98, Type (0, 1), BuildingBlock: KIFKEQ_clean_linker_1, # of connection points: 2
#     Edge 99, Type (0, 1), BuildingBlock: KIFKEQ_clean_linker_1, # of connection points: 2
#     Edge 100, Type (0, 1), BuildingBlock: KIFKEQ_clean_linker_1, # of connection points: 2
#     Edge 101, Type (0, 1), BuildingBlock: KIFKEQ_clean_linker_1, # of connection points: 2
#     Edge 102, Type (0, 1), BuildingBlock: KIFKEQ_clean_linker_1, # of connection points: 2
#     Edge 103, Type (0, 1), BuildingBlock: KIFKEQ_clean_linker_1, # of connection points: 2
#     Edge 104, Type (0, 1), BuildingBlock: KIFKEQ_clean_linker_1, # of connection points: 2
#     Edge 105, Type (0, 1), BuildingBlock: KIFKEQ_clean_linker_1, # of connection points: 2
#     Edge 106, Type (0, 1), BuildingBlock: KIFKEQ_clean_linker_1, # of connection points: 2
#     Edge 107, Type (0, 1), BuildingBlock: KIFKEQ_clean_linker_1, # of connection points: 2
# Relax obj value: 0.030
# Max RMSD: 0.114
# Mean RMSD: 0.092
data_MOF--net-fgl--node1-ESEHIV_clean_sbu_0--node2-GALJAG_clean_sbu_0--edge1-KIFKEQ_clean_linker_1
_symmetry_space_group_name_H-M    P1
_symmetry_Int_Tables_number       1
_symmetry_cell_setting            triclinic
loop_
_symmetry_equiv_pos_as_xyz
'x, y, z'
_cell_length_a     77.584058
_cell_length_b     77.587016
_cell_length_c     51.609649
_cell_angle_alpha  90.118323
_cell_angle_beta   90.362823
_cell_angle_gamma 119.80379
loop_
_atom_site_label
_atom_site_type_symbol
_atom_site_fract_x
_atom_site_fract_y
_atom_site_fract_z
_atom_type_partial_charge
Cu0 Cu 0.01819 0.54322 0.99733 0.0
N1 N 0.0338 0.56807 0.0137 0.0
N2 N 0.04259 0.59107 0.04524 0.0
C3 C 0.0288 0.57289 0.03653 0.0
C4 C 0.05697 0.59795 0.0271 0.0
C5 C 0.05151 0.58375 1.00768 0.0
O6 O 0.99054 0.53602 1.00187 0.0
C7 C 0.01236 0.50591 0.01362 0.0
O8 O 0.99707 0.49885 0.99765 0.0
H9 H 0.01539 0.56294 0.04684 0.0
H10 H 0.05993 0.58473 0.99058 0.0
N11 N 0.02227 0.53982 0.96176 0.0
N12 N 0.02429 0.52326 0.92696 0.0
C13 C 0.02967 0.52852 0.95208 0.0
C14 C 0.01184 0.5415 0.94188 0.0
C15 C 0.01322 0.5316 0.92058 0.0
C16 C 0.98156 0.54608 1.00303 0.0
O17 O 0.96248 0.53637 1.00816 0.0
H18 H 0.03696 0.52248 0.96392 0.0
H19 H 1.00187 0.54739 0.94332 0.0
O20 O 0.02307 0.5246 0.01654 0.0
H21 H 0.07045 0.61224 0.02773 0.0
H22 H 1.00536 0.52935 0.90238 0.0
Cu23 Cu 0.5437 0.55174 0.01888 0.0
N24 N 0.54623 0.56143 0.98331 0.0
N25 N 0.55968 0.57632 0.94584 0.0
C26 C 0.56217 0.56816 0.96769 0.0
C27 C 0.54152 0.57454 0.94786 0.0
C28 C 0.53327 0.56535 0.97097 0.0
O29 O 0.56359 0.58064 0.03108 0.0
C30 C 0.52148 0.50686 0.013 0.0
O31 O 0.53571 0.50751 0.02763 0.0
H32 H 0.57564 0.568 0.9728 0.0
H33 H 0.51912 0.56237 0.97869 0.0
N34 N 0.54145 0.54234 0.05465 0.0
N35 N 0.52919 0.52843 0.09302 0.0
C36 C 0.5254 0.5345 0.07016 0.0
C37 C 0.5558 0.54131 0.06811 0.0
C38 C 0.54832 0.53279 0.09172 0.0
C39 C 0.58226 0.58786 0.03485 0.0
O40 O 0.59007 0.57645 0.03098 0.0
H41 H 0.51114 0.53269 0.06448 0.0
H42 H 0.57052 0.54592 0.06099 0.0
O43 O 0.5223 0.5232 1.00652 0.0
H44 H 0.53483 0.57982 0.9338 0.0
H45 H 0.55637 0.52996 0.10675 0.0
Cu46 Cu 0.54964 0.07225 0.02828 0.0
N47 N 0.54422 0.08551 1.00205 0.0
N48 N 0.52834 0.08848 0.96754 0.0
C49 C 0.53005 0.0759 0.98396 0.0
C50 C 0.54219 0.10684 0.97556 0.0
C51 C 0.55194 0.10496 0.99695 0.0
O52 O 0.52349 0.05187 0.04062 0.0
C53 C 0.5842 0.07906 1.00671 0.0
O54 O 0.58622 0.09682 0.00931 0.0
H55 H 0.52119 0.05986 0.98294 0.0
H56 H 0.56369 0.11691 1.00802 0.0
N57 N 0.56311 0.08832 0.05674 0.0
N58 N 0.58092 0.09679 0.09344 0.0
C59 C 0.57282 0.08333 0.0741 0.0
C60 C 0.56506 0.10561 0.06528 0.0
C61 C 0.57603 0.11086 0.08804 0.0
C62 C 0.51306 0.05956 0.04783 0.0
O63 O 0.5212 0.07899 0.04717 0.0
H64 H 0.57346 0.06973 0.0728 0.0
H65 H 0.55876 0.11368 0.05589 0.0
O66 O 0.56786 0.06412 0.01386 0.0
H67 H 0.54484 0.12065 0.96695 0.0
H68 H 0.58012 0.124 0.09963 0.0
Cu69 Cu 0.54526 0.05509 0.53677 0.0
N70 N 0.56693 0.07608 0.52044 0.0
N71 N 0.59146 0.09044 0.49167 0.0
C72 C 0.57828 0.07335 0.50315 0.0
C73 C 0.58833 0.10458 0.50226 0.0
C74 C 0.57321 0.09567 0.52017 0.0
O75 O 0.5527 0.03393 0.53613 0.0
C76 C 0.51993 0.06087 0.5 0.0
O77 O 0.53598 0.06987 0.48581 0.0
H78 H 0.57609 0.05886 0.49796 0.0
H79 H 0.56671 0.10278 0.53132 0.0
N80 N 0.54338 0.06145 0.57118 0.0
N81 N 0.52924 0.06138 0.60892 0.0
C82 C 0.52627 0.05425 0.58441 0.0
C83 C 0.55776 0.0736 0.58778 0.0
C84 C 0.54909 0.07362 0.61108 0.0
C85 C 0.55503 0.02571 0.55634 0.0
O86 O 0.54763 0.02732 0.57842 0.0
H87 H 0.51188 0.04419 0.57597 0.0
H88 H 0.57341 0.08183 0.58326 0.0
O89 O 0.52031 0.05152 0.52027 0.0
H90 H 0.59605 0.12012 0.49702 0.0
H91 H 0.55685 0.08187 0.62831 0.0
Cu92 Cu 0.05565 0.55107 0.51723 0.0
N93 N 0.07165 0.5455 0.54001 0.0
N94 N 0.07787 0.5297 0.57229 0.0
C95 C 0.06383 0.5307 0.55769 0.0
C96 C 0.0953 0.54451 0.56337 0.0
C97 C 0.09145 0.55411 0.54343 0.0
O98 O 0.03467 0.52418 0.50837 0.0
C99 C 0.06493 0.58541 0.54151 0.0
O100 O 0.08213 0.58718 0.53534 0.0
H101 H 0.04801 0.52103 0.56007 0.0
H102 H 0.10236 0.56657 0.5324 0.0
N103 N 0.06691 0.56459 0.48579 0.0
N104 N 0.06955 0.58154 0.4491 0.0
C105 C 0.05789 0.57131 0.46935 0.0
C106 C 0.08495 0.57076 0.4756 0.0
C107 C 0.0866 0.58113 0.45309 0.0
C108 C 0.04229 0.51489 0.49712 0.0
O109 O 0.06101 0.52502 0.49025 0.0
H110 H 0.0432 0.56915 0.47268 0.0
H111 H 0.0962 0.56809 0.48405 0.0
O112 O 0.04917 0.56916 0.53577 0.0
H113 H 0.10984 0.54807 0.57057 0.0
H114 H 0.09944 0.58779 0.44062 0.0
Cu115 Cu 0.53903 0.54848 0.52514 0.0
N116 N 0.56298 0.55224 0.51188 0.0
N117 N 0.59466 0.56943 0.49945 0.0
C118 C 0.57916 0.57026 0.50982 0.0
C119 C 0.58785 0.54992 0.49493 0.0
C120 C 0.5683 0.53933 0.50266 0.0
O121 O 0.54694 0.56717 0.55437 0.0
C122 C 0.52066 0.53828 0.47829 0.0
O123 O 0.52796 0.52633 0.4809 0.0
H124 H 0.57947 0.58373 0.51617 0.0
H125 H 0.55867 0.52346 0.50132 0.0
N126 N 0.52304 0.52304 0.5382 0.0
N127 N 0.49544 0.49719 0.55338 0.0
C128 C 0.50385 0.51583 0.54407 0.0
C129 C 0.52706 0.50847 0.5439 0.0
C130 C 0.51 0.49245 0.55325 0.0
C131 C 0.55608 0.56302 0.57175 0.0
O132 O 0.5581 0.54736 0.56811 0.0
H133 H 0.49617 0.52414 0.54116 0.0
H134 H 0.54138 0.50948 0.54176 0.0
O135 O 0.52369 0.55078 0.49634 0.0
H136 H 0.59623 0.54368 0.48621 0.0
H137 H 0.50856 0.47856 0.55985 0.0
Cu138 Cu 0.69458 0.88246 0.34013 0.0
N139 N 0.67483 0.88878 0.33233 0.0
N140 N 0.66275 0.90908 0.32375 0.0
C141 C 0.67801 0.90747 0.33371 0.0
C142 C 0.64935 0.89054 0.31573 0.0
C143 C 0.65686 0.87802 0.32107 0.0
O144 O 0.71088 0.90378 0.3661 0.0
C145 C 0.71765 0.87508 0.29932 0.0
O146 O 0.73123 0.87793 0.31678 0.0
H147 H 0.69184 0.91991 0.3405 0.0
H148 H 0.65009 0.86243 0.31612 0.0
N149 N 0.68443 0.85784 0.35649 0.0
N150 N 0.68547 0.83173 0.37317 0.0
C151 C 0.69422 0.84762 0.35743 0.0
C152 C 0.66858 0.84793 0.37189 0.0
C153 C 0.66915 0.83174 0.38218 0.0
C154 C 0.71308 0.90025 0.38984 0.0
O155 O 0.70966 0.88244 0.39604 0.0
H156 H 0.70794 0.8522 0.34741 0.0
H157 H 0.65792 0.85264 0.37626 0.0
O158 O 0.70371 0.87861 0.30543 0.0
H159 H 0.63535 0.88638 0.30618 0.0
H160 H 0.65889 0.82141 0.39614 0.0
Cu161 Cu 0.213 0.88995 0.37246 0.0
N162 N 0.18893 0.87564 0.35375 0.0
N163 N 0.16296 0.84928 0.33506 0.0
C164 C 0.1789 0.85568 0.35101 0.0
C165 C 0.16293 0.86592 0.32753 0.0
C166 C 0.17888 0.8821 0.3391 0.0
O167 O 0.20852 0.87436 0.40444 0.0
C168 C 0.23456 0.90294 0.328 0.0
O169 O 0.22139 0.90876 0.32547 0.0
H170 H 0.18364 0.84608 0.35993 0.0
H171 H 0.18309 0.8975 0.33635 0.0
N172 N 0.21929 0.91599 0.38184 0.0
N173 N 0.23797 0.94811 0.39316 0.0
C174 C 0.23739 0.93053 0.38979 0.0
C175 C 0.208 0.92467 0.38037 0.0
C176 C 0.21948 0.94445 0.38721 0.0
C177 C 0.19455 0.87364 0.41829 0.0
O178 O 0.1862 0.88392 0.41055 0.0
H179 H 0.25007 0.92839 0.39222 0.0
H180 H 0.19255 0.91724 0.37455 0.0
O181 O 0.23428 0.89358 0.34853 0.0
H182 H 0.15219 0.8664 0.31451 0.0
H183 H 0.21458 0.9553 0.38781 0.0
Cu184 Cu 0.21565 0.41452 0.3551 0.0
N185 N 0.21149 0.42955 0.32993 0.0
N186 N 0.19597 0.43457 0.29659 0.0
C187 C 0.19768 0.42105 0.31108 0.0
C188 C 0.20934 0.45239 0.30664 0.0
C189 C 0.21898 0.44925 0.32717 0.0
O190 O 0.18887 0.39457 0.36555 0.0
C191 C 0.24953 0.4201 0.3327 0.0
O192 O 0.25217 0.43814 0.33464 0.0
H193 H 0.18845 0.40512 0.30879 0.0
H194 H 0.2304 0.46056 0.33932 0.0
N195 N 0.22853 0.42819 0.38541 0.0
N196 N 0.24218 0.43165 0.42473 0.0
C197 C 0.23328 0.4194 0.40438 0.0
C198 C 0.23461 0.44676 0.39399 0.0
C199 C 0.24317 0.44897 0.41826 0.0
C200 C 0.17929 0.4029 0.3738 0.0
O201 O 0.18861 0.42239 0.37529 0.0
H202 H 0.23035 0.40426 0.40307 0.0
H203 H 0.23274 0.45781 0.38368 0.0
O204 O 0.23309 0.40562 0.34037 0.0
H205 H 0.21191 0.46663 0.29975 0.0
H206 H 0.24925 0.46213 0.43037 0.0
Cu207 Cu 0.2051 0.37523 0.88436 0.0
N208 N 0.22559 0.3963 0.86696 0.0
N209 N 0.24689 0.41027 0.83451 0.0
C210 C 0.23713 0.39409 0.8495 0.0
C211 C 0.24137 0.42327 0.84298 0.0
C212 C 0.2282 0.41459 0.86309 0.0
O213 O 0.21543 0.35643 0.8882 0.0
C214 C 0.16339 0.3587 0.86477 0.0
O215 O 0.15676 0.34562 0.88354 0.0
H216 H 0.23676 0.38013 0.84606 0.0
H217 H 0.21986 0.42048 0.87267 0.0
N218 N 0.20186 0.38439 0.91658 0.0
N219 N 0.1881 0.38847 0.95245 0.0
C220 C 0.18519 0.37751 0.93074 0.0
C221 C 0.21583 0.40017 0.92978 0.0
C222 C 0.20744 0.40274 0.95184 0.0
C223 C 0.22084 0.35282 0.9101 0.0
O224 O 0.21542 0.35803 0.93141 0.0
H225 H 0.17122 0.36475 0.92523 0.0
H226 H 0.231 0.4094 0.92352 0.0
O227 O 0.18211 0.36971 0.86179 0.0
H228 H 0.24557 0.43747 0.83422 0.0
H229 H 0.21493 0.4146 0.96586 0.0
Cu230 Cu 0.71977 0.881 0.83982 0.0
N231 N 0.7333 0.86902 0.82579 0.0
N232 N 0.73789 0.84434 0.81179 0.0
C233 C 0.72673 0.8494 0.82643 0.0
C234 C 0.75213 0.86154 0.80156 0.0
C235 C 0.74926 0.87678 0.81027 0.0
O236 O 0.70499 0.86284 0.8692 0.0
C237 C 0.6972 0.89503 0.80704 0.0
O238 O 0.69088 0.89931 0.82831 0.0
H239 H 0.71327 0.83888 0.8362 0.0
H240 H 0.75766 0.89225 0.80484 0.0
N241 N 0.73813 0.90586 0.85347 0.0
N242 N 0.74973 0.93586 0.8716 0.0
C243 C 0.73413 0.92029 0.85998 0.0
C244 C 0.75707 0.91258 0.86097 0.0
C245 C 0.76432 0.93116 0.8721 0.0
C246 C 0.70707 0.86855 0.89296 0.0
O247 O 0.71538 0.88762 0.89802 0.0
H248 H 0.71983 0.91911 0.85694 0.0
H249 H 0.76485 0.90431 0.85921 0.0
O250 O 0.70702 0.88581 0.80884 0.0
H251 H 0.76346 0.86295 0.78823 0.0
H252 H 0.77889 0.94011 0.88074 0.0
Cu253 Cu 0.19415 0.87774 0.87736 0.0
N254 N 0.1846 0.8529 0.86126 0.0
N255 N 0.17138 0.83057 0.82896 0.0
C256 C 0.17547 0.84858 0.83791 0.0
C257 C 0.17832 0.82324 0.8475 0.0
C258 C 0.18646 0.83706 0.86744 0.0
O259 O 0.17538 0.88667 0.86893 0.0
C260 C 0.22955 0.91385 0.86691 0.0
O261 O 0.22221 0.92133 0.8835 0.0
H262 H 0.17256 0.85887 0.82723 0.0
H263 H 0.19361 0.83585 0.88484 0.0
N264 N 0.19819 0.8797 0.91373 0.0
N265 N 0.21433 0.89272 0.95129 0.0
C266 C 0.21569 0.88718 0.9268 0.0
C267 C 0.18564 0.88088 0.93067 0.0
C268 C 0.19543 0.88868 0.9537 0.0
C269 C 0.15642 0.87795 0.86684 0.0
O270 O 0.14863 0.88876 0.85921 0.0
H271 H 0.22956 0.89053 0.91776 0.0
H272 H 0.17099 0.87838 0.92585 0.0
O273 O 0.21958 0.89543 0.86134 0.0
H274 H 0.17771 0.80902 0.84664 0.0
H275 H 0.1896 0.89265 0.97026 0.0
Cu276 Cu 0.35917 0.21254 0.70237 0.0
N277 N 0.3408 0.21791 0.68592 0.0
N278 N 0.32572 0.23422 0.67135 0.0
C279 C 0.34009 0.23489 0.68694 0.0
C280 C 0.31698 0.21605 0.66016 0.0
C281 C 0.32629 0.20602 0.66924 0.0
O282 O 0.36952 0.22924 0.73431 0.0
C283 C 0.37694 0.21492 0.65203 0.0
O284 O 0.36876 0.2255 0.64504 0.0
H285 H 0.35034 0.24772 0.69819 0.0
H286 H 0.32303 0.19125 0.66364 0.0
N287 N 0.34578 0.18673 0.71488 0.0
N288 N 0.34201 0.15794 0.72922 0.0
C289 C 0.35495 0.17658 0.72163 0.0
C290 C 0.32626 0.17414 0.71829 0.0
C291 C 0.32388 0.15626 0.72708 0.0
C292 C 0.37892 0.24814 0.73709 0.0
O293 O 0.3856 0.25936 0.71642 0.0
H294 H 0.37086 0.1827 0.72034 0.0
H295 H 0.31463 0.17764 0.71448 0.0
O296 O 0.37687 0.2107 0.67604 0.0
H297 H 0.30485 0.21045 0.64629 0.0
H298 H 0.30994 0.14315 0.73167 0.0
Cu299 Cu 0.87577 0.19404 0.68632 0.0
N300 N 0.89522 0.19593 0.6633 0.0
N301 N 0.91624 0.20901 0.63014 0.0
C302 C 0.90096 0.20848 0.64314 0.0
C303 C 0.9203 0.19615 0.64267 0.0
C304 C 0.90724 0.18803 0.66312 0.0
O305 O 0.88406 0.22244 0.69283 0.0
C306 C 0.84795 0.15742 0.66744 0.0
O307 O 0.86285 0.15512 0.67518 0.0
H308 H 0.89452 0.21776 0.6389 0.0
H309 H 0.90684 0.17747 0.67707 0.0
N310 N 0.87604 0.18331 0.71871 0.0
N311 N 0.86495 0.17066 0.75808 0.0
C312 C 0.86107 0.17718 0.73574 0.0
C313 C 0.88998 0.18059 0.73058 0.0
C314 C 0.88316 0.17274 0.75484 0.0
C315 C 0.90211 0.23242 0.70102 0.0
O316 O 0.91184 0.22285 0.70526 0.0
H317 H 0.84752 0.17747 0.73162 0.0
H318 H 0.90423 0.18437 0.72245 0.0
O319 O 0.84978 0.17471 0.67023 0.0
H320 H 0.93194 0.19296 0.63761 0.0
H321 H 0.89123 0.1693 0.76916 0.0
Cu322 Cu 0.88975 0.72973 0.68369 0.0
N323 N 0.88706 0.74705 0.6609 0.0
N324 N 0.8752 0.75564 0.62664 0.0
C325 C 0.87519 0.74063 0.63982 0.0
C326 C 0.88764 0.77226 0.64007 0.0
C327 C 0.89498 0.76692 0.66119 0.0
O328 O 0.86252 0.70796 0.68908 0.0
C329 C 0.92628 0.73952 0.66578 0.0
O330 O 0.92804 0.75657 0.67304 0.0
H331 H 0.86633 0.72508 0.6347 0.0
H332 H 0.90534 0.77682 0.67563 0.0
N333 N 0.90017 0.74079 0.7162 0.0
N334 N 0.91527 0.744 0.75439 0.0
C335 C 0.9083 0.7332 0.73241 0.0
C336 C 0.90192 0.75697 0.72832 0.0
C337 C 0.91134 0.75904 0.7519 0.0
C338 C 0.85095 0.71431 0.69638 0.0
O339 O 0.85851 0.73345 0.70045 0.0
H340 H 0.90946 0.7202 0.7278 0.0
H341 H 0.89676 0.76657 0.72064 0.0
O342 O 0.90937 0.72385 0.66837 0.0
H343 H 0.89134 0.78722 0.63493 0.0
H344 H 0.91484 0.77059 0.76616 0.0
Cu345 Cu 0.86419 0.70692 0.17066 0.0
N346 N 0.86542 0.69348 0.14118 0.0
N347 N 0.87982 0.68781 0.1073 0.0
C348 C 0.88226 0.69976 0.12767 0.0
C349 C 0.86057 0.67337 0.10799 0.0
C350 C 0.85173 0.67684 0.12903 0.0
O351 O 0.88989 0.71479 0.18841 0.0
C352 C 0.84151 0.72075 0.14518 0.0
O353 O 0.83322 0.7024 0.13659 0.0
H354 H 0.89602 0.71308 0.1326 0.0
H355 H 0.83642 0.66794 0.13485 0.0
N356 N 0.84419 0.69112 0.19388 0.0
N357 N 0.82563 0.68505 0.2293 0.0
C358 C 0.84064 0.69889 0.21509 0.0
C359 C 0.83091 0.67156 0.19444 0.0
C360 C 0.81937 0.66777 0.21632 0.0
C361 C 0.89101 0.70036 0.19881 0.0
O362 O 0.87516 0.68262 0.1983 0.0
H363 H 0.84885 0.71458 0.21969 0.0
H364 H 0.82978 0.6608 0.18023 0.0
O365 O 0.85681 0.7271 0.16008 0.0
H366 H 0.85343 0.66108 0.09447 0.0
H367 H 0.80754 0.6534 0.22235 0.0
Cu368 Cu 0.38955 0.22274 0.19987 0.0
N369 N 0.40027 0.20764 0.1863 0.0
N370 N 0.40023 0.17987 0.1738 0.0
C371 C 0.39188 0.18779 0.1892 0.0
C372 C 0.41454 0.19545 0.16075 0.0
C373 C 0.41448 0.21252 0.16841 0.0
O374 O 0.37589 0.20775 0.23171 0.0
C375 C 0.37152 0.24096 0.16755 0.0
O376 O 0.37198 0.25082 0.18846 0.0
H377 H 0.37898 0.17915 0.2011 0.0
H378 H 0.42339 0.2272 0.16041 0.0
N379 N 0.40872 0.2484 0.21084 0.0
N380 N 0.41979 0.27915 0.22653 0.0
C381 C 0.40446 0.26033 0.22517 0.0
C382 C 0.42767 0.25995 0.20339 0.0
C383 C 0.43456 0.27891 0.21312 0.0
C384 C 0.38765 0.20868 0.25004 0.0
O385 O 0.40686 0.22003 0.24688 0.0
H386 H 0.38996 0.25545 0.23339 0.0
H387 H 0.43557 0.25528 0.1906 0.0
O388 O 0.37573 0.22698 0.16962 0.0
H389 H 0.42397 0.19455 0.14609 0.0
H390 H 0.44884 0.29179 0.20913 0.0
Cu391 Cu 0.85374 0.23359 0.20118 0.0
N392 N 0.8453 0.20764 0.1903 0.0
N393 N 0.83047 0.18133 0.16385 0.0
C394 C 0.8357 0.20049 0.16765 0.0
C395 C 0.83734 0.17621 0.18488 0.0
C396 C 0.84646 0.19254 0.20131 0.0
O397 O 0.83454 0.24062 0.18767 0.0
C398 C 0.88854 0.26946 0.18959 0.0
O399 O 0.87954 0.27716 0.20278 0.0
H400 H 0.83268 0.20932 0.15412 0.0
H401 H 0.85324 0.19329 0.21996 0.0
N402 N 0.85631 0.23811 0.23706 0.0
N403 N 0.87087 0.25007 0.27553 0.0
C404 C 0.87238 0.24303 0.25215 0.0
C405 C 0.84442 0.24235 0.25137 0.0
C406 C 0.85319 0.24945 0.27511 0.0
C407 C 0.81559 0.23103 0.18522 0.0
O408 O 0.80724 0.24012 0.17359 0.0
H409 H 0.88557 0.24306 0.24536 0.0
H410 H 0.83088 0.2416 0.2444 0.0
O411 O 0.87968 0.25074 0.18608 0.0
H412 H 0.8356 0.16167 0.18834 0.0
H413 H 0.84742 0.25466 0.29043 0.0
In414 In 0.03672 0.67234 0.26123 0.0
O415 O 0.06596 0.70179 0.25606 0.0
O416 O 0.0503 0.69768 0.29115 0.0
C417 C 0.0384 0.65477 0.21577 0.0
C418 C 0.0408 0.6502 0.30014 0.0
C419 C 1.00598 0.67959 0.25085 0.0
O420 O 0.05181 0.67179 0.22302 0.0
O421 O 0.02419 0.64647 0.23149 0.0
O422 O 1.00344 0.66423 0.26269 0.0
O423 O 0.02374 0.69101 0.24445 0.0
C424 C 0.06525 0.70901 0.27775 0.0
O425 O 0.02635 0.65344 0.299 0.0
O426 O 0.05272 0.65765 0.28155 0.0
In427 In 0.41897 0.43897 0.28658 0.0
O428 O 0.42328 0.45452 0.24722 0.0
O429 O 0.44874 0.45704 0.26606 0.0
C430 C 0.38034 0.42883 0.29327 0.0
C431 C 0.41715 0.40344 0.27744 0.0
C432 C 0.43791 0.46332 0.32771 0.0
O433 O 0.39087 0.43965 0.275 0.0
O434 O 0.38928 0.42308 0.30843 0.0
O435 O 0.43986 0.44861 0.32171 0.0
O436 O 0.42613 0.46572 0.31319 0.0
C437 C 0.44179 0.46128 0.24653 0.0
O438 O 0.42393 0.41305 0.29829 0.0
O439 O 0.41094 0.41148 0.26158 0.0
In440 In 0.67404 0.07764 0.28563 0.0
O441 O 0.67696 0.08511 0.32937 0.0
O442 O 0.65067 0.0798 0.3099 0.0
C443 C 0.70978 0.10557 0.26681 0.0
C444 C 0.67115 0.04149 0.29266 0.0
C445 C 0.65233 0.08097 0.24695 0.0
O446 O 0.70366 0.10705 0.28886 0.0
O447 O 0.69835 0.08966 0.2549 0.0
O448 O 0.65348 0.06543 0.25027 0.0
O449 O 0.6619 0.09463 0.26331 0.0
C450 C 0.66023 0.08405 0.33094 0.0
O451 O 0.65665 0.04354 0.2858 0.0
O452 O 0.68718 0.05765 0.29584 0.0
In453 In 0.0406 0.40757 0.76174 0.0
O454 O 0.02289 0.42035 0.78222 0.0
O455 O 0.05055 0.42684 0.79884 0.0
C456 C 1.00645 0.37318 0.74687 0.0
C457 C 0.05233 0.43413 0.72098 0.0
C458 C 0.06693 0.39596 0.77993 0.0
O459 O 0.00866 0.3809 0.76907 0.0
O460 O 0.02113 0.38285 0.73232 0.0
O461 O 0.07118 0.4084 0.76191 0.0
O462 O 0.04961 0.38937 0.78842 0.0
C463 C 0.03558 0.42918 0.80009 0.0
O464 O 0.04805 0.41626 0.71832 0.0
O465 O 0.0513 0.43876 0.74409 0.0
In466 In 0.67546 0.66261 0.75469 0.0
O467 O 0.66634 0.64119 0.78934 0.0
O468 O 0.65012 0.65616 0.78229 0.0
C469 C 0.70836 0.66127 0.73884 0.0
C470 C 0.64765 0.6438 0.71709 0.0
C471 C 0.69077 0.70169 0.76659 0.0
O472 O 0.7022 0.65767 0.76184 0.0
O473 O 0.69763 0.66483 0.72391 0.0
O474 O 0.67986 0.69366 0.747 0.0
O475 O 0.69386 0.69004 0.78023 0.0
C476 C 0.6523 0.644 0.79619 0.0
O477 O 0.65842 0.66247 0.71807 0.0
O478 O 0.6512 0.63465 0.73466 0.0
In479 In 0.40206 0.03636 0.78243 0.0
O480 O 0.4245 0.05912 0.81067 0.0
O481 O 0.42113 0.03019 0.81078 0.0
C482 C 0.38668 0.06014 0.77239 0.0
C483 C 0.42512 0.03822 0.74184 0.0
C484 C 0.36784 1.00477 0.79939 0.0
O485 O 0.39725 0.06223 0.79212 0.0
O486 O 0.38396 0.04608 0.75744 0.0
O487 O 0.37306 1.00647 0.77596 0.0
O488 O 0.38018 0.01839 0.81401 0.0
C489 C 0.42984 0.04755 0.82026 0.0
O490 O 0.41447 0.02222 0.75386 0.0
O491 O 0.42359 0.05274 0.74982 0.0
In492 In 0.69864 0.98852 0.5961 0.0
O493 O 0.73179 0.01361 0.59381 0.0
O494 O 0.71184 0.02076 0.61178 0.0
C495 C 0.70392 0.9716 0.55153 0.0
C496 C 0.69569 0.96596 0.63982 0.0
C497 C 0.66596 0.9927 0.58511 0.0
O498 O 0.71783 0.98184 0.56741 0.0
O499 O 0.68742 0.96966 0.55822 0.0
O500 O 0.66663 0.98272 0.60405 0.0
O501 O 0.68153 1.00031 0.57165 0.0
C502 C 0.72955 0.02672 0.60536 0.0
O503 O 0.70009 0.9839 0.64053 0.0
O504 O 0.69237 0.95898 0.61708 0.0
In505 In 0.09484 0.75764 0.6057 0.0
O506 O 0.10008 0.77567 0.56832 0.0
O507 O 0.12471 0.77432 0.58341 0.0
C508 C 0.05766 0.75157 0.61538 0.0
C509 C 0.08683 0.72035 0.59243 0.0
C510 C 0.11341 0.77472 0.65162 0.0
O511 O 0.06991 0.76537 0.60112 0.0
O512 O 0.0642 0.74099 0.62498 0.0
O513 O 0.1107 0.75819 0.64368 0.0
O514 O 0.10719 0.78304 0.63616 0.0
C515 C 0.11814 0.78081 0.56578 0.0
O516 O 0.09815 0.73014 0.61098 0.0
O517 O 0.07999 0.72957 0.57984 0.0
In518 In 0.31507 0.38943 0.62073 0.0
O519 O 0.30022 0.35524 0.61868 0.0
O520 O 0.32763 0.37139 0.63886 0.0
C521 C 0.2963 0.39668 0.58146 0.0
C522 C 0.3013 0.3957 0.66567 0.0
C523 C 0.35263 0.41328 0.60494 0.0
O524 O 0.29681 0.38069 0.58303 0.0
O525 O 0.3049 0.40873 0.59988 0.0
O526 O 0.34518 0.41763 0.62376 0.0
O527 O 0.34103 0.39702 0.59383 0.0
C528 C 0.31382 0.35467 0.63158 0.0
O529 O 0.31954 0.40345 0.66075 0.0
O530 O 0.28984 0.38473 0.64786 0.0
In531 In 0.70925 0.77072 0.09596 0.0
O532 O 0.6944 0.77883 0.1297 0.0
O533 O 0.72486 0.79833 0.12317 0.0
C534 C 0.67908 0.73216 0.08542 0.0
C535 C 0.70819 0.79155 0.05309 0.0
C536 C 0.74098 0.7648 0.10639 0.0
O537 O 0.68415 0.73897 0.10814 0.0
O538 O 0.68881 0.74471 0.06827 0.0
O539 O 0.74012 0.77389 0.08657 0.0
O540 O 0.726 0.75873 0.12072 0.0
C541 C 0.70993 0.7945 0.13682 0.0
O542 O 0.72119 0.78642 0.05641 0.0
O543 O 0.69606 0.78665 0.07161 0.0
In544 In 0.33805 0.99459 0.13208 0.0
O545 O 0.33536 0.97499 0.16749 0.0
O546 O 0.31223 0.98143 0.16061 0.0
C547 C 0.37315 1.00081 0.11254 0.0
C548 C 0.31189 0.9721 0.09394 0.0
C549 C 0.34912 0.03332 0.14307 0.0
O550 O 0.36682 0.99256 0.13423 0.0
O551 O 0.36183 1.00569 0.10109 0.0
O552 O 0.33907 0.02424 0.12325 0.0
O553 O 0.35325 0.02281 0.15764 0.0
C554 C 0.31884 0.97273 0.17473 0.0
O555 O 0.31132 0.98633 0.10504 0.0
O556 O 0.32544 0.969 0.10228 0.0
In557 In 0.0663 0.38984 0.11669 0.0
O558 O 0.08936 0.41214 0.14508 0.0
O559 O 0.08125 0.3818 0.14916 0.0
C560 C 0.05464 0.41445 0.09581 0.0
C561 C 0.08989 0.38677 0.08057 0.0
C562 C 0.03023 0.36113 0.13337 0.0
O563 O 0.06257 0.41731 0.11799 0.0
O564 O 0.05271 0.39928 0.08415 0.0
O565 O 0.03795 0.35927 0.11282 0.0
O566 O 0.04089 0.3771 0.14562 0.0
C567 C 0.09192 0.39944 0.15715 0.0
O568 O 0.07474 0.37167 0.08934 0.0
O569 O 0.09278 0.40307 0.08974 0.0
In570 In 0.37385 0.33162 0.95429 0.0
O571 O 0.35888 0.31466 0.99214 0.0
O572 O 0.38578 0.31594 0.98172 0.0
C573 C 0.33979 0.33372 0.94415 0.0
C574 C 0.4057 0.36891 0.96641 0.0
C575 C 0.37714 0.31378 0.90917 0.0
O576 O 0.33942 0.31801 0.95137 0.0
O577 O 0.35713 0.34833 0.94249 0.0
O578 O 0.37806 0.33045 0.90982 0.0
O579 O 0.37484 0.30605 0.93127 0.0
C580 C 0.3718 0.30987 0.99792 0.0
O581 O 0.40487 0.35939 0.94613 0.0
O582 O 0.39076 0.35963 0.98072 0.0
In583 In 0.7505 0.09183 0.95132 0.0
O584 O 0.76063 0.06887 0.9551 0.0
O585 O 0.73771 0.06299 0.92792 0.0
C586 C 0.76645 0.10993 0.99719 0.0
C587 C 0.77509 0.11395 0.91252 0.0
C588 C 0.71283 0.08493 0.95787 0.0
O589 O 0.76072 0.09185 0.99289 0.0
O590 O 0.76409 0.11894 0.97834 0.0
O591 O 0.72524 0.09853 0.94345 0.0
O592 O 0.71938 0.07481 0.96886 0.0
C593 C 0.74895 0.05737 0.9379 0.0
O594 O 0.75648 0.10662 0.91121 0.0
O595 O 0.78123 0.11073 0.93361 0.0
In596 In 0.00951 0.71425 0.9368 0.0
O597 O 1.00083 0.72432 0.97408 0.0
O598 O 0.97965 0.69701 0.95643 0.0
C599 C 0.04599 0.745 0.92477 0.0
C600 C 0.01459 0.68301 0.94903 0.0
C601 C 0.98851 0.71895 0.89823 0.0
O602 O 0.03789 0.74395 0.94635 0.0
O603 O 0.03612 0.73026 0.91005 0.0
O604 O 0.99266 0.70509 0.89791 0.0
O605 O 0.99489 0.73017 0.91787 0.0
C606 C 0.98357 0.70926 0.97472 0.0
O607 O 1.00723 0.68416 0.9276 0.0
O608 O 0.02019 0.69797 0.9636 0.0
In609 In 0.3888 0.11597 0.45693 0.0
O610 O 0.37521 0.12066 0.49442 0.0
O611 O 0.40338 0.14404 0.4837 0.0
C612 C 0.35589 0.08053 0.44418 0.0
C613 C 0.38803 0.13709 0.41418 0.0
C614 C 0.41711 0.1048 0.46689 0.0
O615 O 0.35899 0.08788 0.46673 0.0
O616 O 0.36918 0.09104 0.42817 0.0
O617 O 0.42097 0.1204 0.45464 0.0
O618 O 0.39936 0.0952 0.47424 0.0
C619 C 0.38939 0.13775 0.49986 0.0
O620 O 0.39935 0.12976 0.41604 0.0
O621 O 0.37761 0.13437 0.4341 0.0
In622 In 1.00208 0.33749 0.4525 0.0
O623 O 0.99812 0.30986 0.47424 0.0
O624 O 0.9843 0.32526 0.4896 0.0
C625 C 0.03892 0.34789 0.43511 0.0
C626 C 0.97401 0.31677 0.41587 0.0
C627 C 1.00663 0.37357 0.46538 0.0
O628 O 0.03304 0.34055 0.4573 0.0
O629 O 0.02646 0.35033 0.42218 0.0
O630 O 0.99849 0.36464 0.44453 0.0
O631 O 0.01283 0.36451 0.47954 0.0
C632 C 0.98731 0.31079 0.49171 0.0
O633 O 0.97116 0.32553 0.43453 0.0
O634 O 0.99098 0.31837 0.41567 0.0
In635 In 0.7573 0.72021 0.43498 0.0
O636 O 0.77092 0.73532 0.47402 0.0
O637 O 0.78591 0.72342 0.45297 0.0
C638 C 0.74272 0.74403 0.41984 0.0
C639 C 0.7727 0.71353 0.39179 0.0
C640 C 0.72575 0.68704 0.45354 0.0
O641 O 0.75995 0.75077 0.42929 0.0
O642 O 0.73311 0.7254 0.41744 0.0
O643 O 0.73355 0.68759 0.43201 0.0
O644 O 0.73395 0.70322 0.46597 0.0
C645 C 0.78542 0.73231 0.47315 0.0
O646 O 0.76286 0.70026 0.40819 0.0
O647 O 0.77509 0.73049 0.39726 0.0
H648 H 0.04416 0.5158 0.04576 0.0
H649 H 0.99296 0.46528 0.01151 0.0
H650 H 0.05402 0.49363 0.06592 0.0
H651 H 1.00258 0.44307 0.03219 0.0
H652 H 0.0385 0.41178 0.04784 0.0
H653 H 0.0279 0.43375 0.02875 0.0
H654 H 0.04483 0.4688 0.09917 0.0
H655 H 0.05587 0.44705 0.118 0.0
C656 C 0.0349 0.49995 0.04271 0.0
C657 C 0.01779 0.49233 0.02694 0.0
C658 C 0.0405 0.48722 0.0544 0.0
C659 C 0.02913 0.46655 0.05065 0.0
C660 C 0.01186 0.45892 0.03518 0.0
C661 C 1.00626 0.47166 0.02345 0.0
C662 C 0.03996 0.42418 0.05923 0.0
C663 C 0.04806 0.42772 0.08439 0.0
C664 C 0.03375 0.4367 0.04837 0.0
C665 C 0.03547 0.45305 0.06243 0.0
C666 C 0.04352 0.45652 0.08766 0.0
C667 C 0.04977 0.444 0.09851 0.0
H668 H 0.61787 0.60376 0.06078 0.0
H669 H 0.57659 0.62007 0.0285 0.0
H670 H 0.63997 0.63826 0.07401 0.0
H671 H 0.59907 0.65483 0.04119 0.0
H672 H 0.65902 0.71721 0.03952 0.0
H673 H 0.63476 0.68271 0.02842 0.0
H674 H 0.64025 0.66462 0.10555 0.0
H675 H 0.66415 0.69927 0.11689 0.0
C676 C 0.61347 0.61469 0.05649 0.0
C677 C 0.59535 0.609 0.04354 0.0
C678 C 0.62615 0.63451 0.06422 0.0
C679 C 0.62139 0.64943 0.05871 0.0
C680 C 0.60329 0.64379 0.04569 0.0
C681 C 0.59034 0.62382 0.03851 0.0
C682 C 0.65494 0.70592 0.05422 0.0
C683 C 0.66358 0.71113 0.07915 0.0
C684 C 0.64094 0.68611 0.04786 0.0
C685 C 0.63549 0.67077 0.06603 0.0
C686 C 0.64412 0.67598 0.091 0.0
C687 C 0.65778 0.69589 0.09755 0.0
H688 H 0.486 0.07166 0.04627 0.0
H689 H 0.49214 0.02102 0.06676 0.0
H690 H 0.45199 0.0546 0.06077 0.0
H691 H 0.45733 1.00356 0.08151 0.0
H692 H 0.40313 0.99658 0.13523 0.0
H693 H 0.43645 0.00771 0.11787 0.0
H694 H 0.41996 0.02595 0.04739 0.0
H695 H 0.3871 0.01522 0.06468 0.0
C696 C 0.48005 0.05676 0.05379 0.0
C697 C 0.49187 0.04773 0.0554 0.0
C698 C 0.4604 0.04689 0.06196 0.0
C699 C 0.45185 0.02766 0.07216 0.0
C700 C 0.46354 0.01841 0.07376 0.0
C701 C 0.48338 0.02832 0.06518 0.0
C702 C 0.4066 1.00274 0.11591 0.0
C703 C 0.39257 1.0053 0.1015 0.0
C704 C 0.42562 0.00899 0.10591 0.0
C705 C 0.43092 0.01793 0.08137 0.0
C706 C 0.41647 0.01944 0.06653 0.0
C707 C 0.39761 0.01326 0.07646 0.0
H708 H 0.48791 0.05367 0.5309 0.0
H709 H 0.51371 0.07712 0.45639 0.0
H710 H 0.46319 0.06402 0.5233 0.0
H711 H 0.48894 0.08703 0.44855 0.0
H712 H 0.4565 0.12257 0.45283 0.0
H713 H 0.48016 0.11099 0.46077 0.0
H714 H 0.43459 0.05942 0.4999 0.0
H715 H 0.41116 0.07129 0.49242 0.0
C716 C 0.48812 0.06068 0.51269 0.0
C717 C 0.50295 0.06451 0.49432 0.0
C718 C 0.47389 0.06668 0.50828 0.0
C719 C 0.47402 0.0767 0.48536 0.0
C720 C 0.48848 0.07986 0.46671 0.0
C721 C 0.50266 0.07393 0.47112 0.0
C722 C 0.45153 0.10878 0.46318 0.0
C723 C 0.43184 0.09793 0.47194 0.0
C724 C 0.4651 0.10199 0.46761 0.0
C725 C 0.45946 0.08409 0.48094 0.0
C726 C 0.43975 0.07334 0.48985 0.0
C727 C 0.42619 0.08014 0.48541 0.0
H728 H 1.00513 0.48631 0.47952 0.0
H729 H 0.05909 0.49439 0.51517 0.0
H730 H 0.99344 0.45056 0.47431 0.0
H731 H 0.04788 0.45935 0.50978 0.0
H732 H 0.02036 0.39375 0.51112 0.0
H733 H 0.025 0.42629 0.52259 0.0
H734 H 1.00253 0.4302 0.44733 0.0
H735 H 0.99734 0.39732 0.43618 0.0
C736 C 0.01424 0.48036 0.48671 0.0
C737 C 0.033 0.49303 0.49764 0.0
C738 C 1.00771 0.45999 0.48351 0.0
C739 C 0.01975 0.45203 0.49152 0.0
C740 C 0.03804 0.46475 0.50365 0.0
C741 C 0.04456 0.48492 0.50659 0.0
C742 C 0.01629 0.40149 0.49708 0.0
C743 C 0.00872 0.39305 0.47263 0.0
C744 C 0.01896 0.42018 0.50363 0.0
C745 C 0.01429 0.43102 0.48582 0.0
C746 C 1.00609 0.42225 0.46165 0.0
C747 C 1.00331 0.40347 0.45515 0.0
H748 H 0.605 0.60837 0.49531 0.0
H749 H 0.62881 0.56845 0.49123 0.0
H750 H 0.63769 0.63625 0.48668 0.0
H751 H 0.66154 0.59657 0.48187 0.0
H752 H 0.70818 0.64993 0.43232 0.0
H753 H 0.67702 0.62094 0.44511 0.0
H754 H 0.67152 0.6548 0.50782 0.0
H755 H 0.70273 0.68385 0.49503 0.0
C756 C 0.61718 0.60545 0.49289 0.0
C757 C 0.61413 0.586 0.49414 0.0
C758 C 0.63595 0.62152 0.48791 0.0
C759 C 0.65216 0.61858 0.48375 0.0
C760 C 0.64923 0.59922 0.48486 0.0
C761 C 0.63045 0.58311 0.49012 0.0
C762 C 0.70041 0.65112 0.449 0.0
C763 C 0.7078 0.66916 0.46262 0.0
C764 C 0.68264 0.63451 0.45638 0.0
C765 C 0.67184 0.63567 0.47738 0.0
C766 C 0.67948 0.65357 0.4914 0.0
C767 C 0.69736 0.67015 0.48416 0.0
H768 H 0.01443 0.57071 0.97315 0.0
H769 H 0.97058 0.5714 0.02333 0.0
H770 H 0.02537 0.60486 0.96048 0.0
H771 H 0.98212 0.60584 0.01157 0.0
H772 H 0.01886 0.67306 0.99835 0.0
H773 H 0.01433 0.64124 0.01359 0.0
H774 H 1.00548 0.61971 0.93477 0.0
H775 H 0.00954 0.65142 0.91947 0.0
C776 C 1.00714 0.57802 0.98157 0.0
C777 C 0.99123 0.56794 0.9987 0.0
C778 C 0.01352 0.59771 0.97442 0.0
C779 C 1.00445 0.60794 0.98481 0.0
C780 C 0.98941 0.59835 1.00322 0.0
C781 C 0.98278 0.57856 0.00988 0.0
C782 C 0.01626 0.66167 0.98421 0.0
C783 C 0.0145 0.66473 0.95769 0.0
C784 C 0.0136 0.64344 0.99298 0.0
C785 C 0.00954 0.62802 0.97537 0.0
C786 C 0.00875 0.6314 0.94874 0.0
C787 C 0.011 0.64951 0.94001 0.0
H788 H 0.49473 0.49715 0.97211 0.0
H789 H 0.50883 0.47119 0.03691 0.0
H790 H 0.46694 0.46416 0.96025 0.0
H791 H 0.48098 0.43859 0.02548 0.0
H792 H 0.41541 0.38818 0.01345 0.0
H793 H 0.44288 0.42139 0.02407 0.0
H794 H 0.4615 0.42961 0.94435 0.0
H795 H 0.43425 0.39611 0.93383 0.0
C796 C 0.4919 0.48448 0.9839 0.0
C797 C 0.50417 0.48696 1.00547 0.0
C798 C 0.476 0.46553 0.97703 0.0
C799 C 0.4716 0.44861 0.99191 0.0
C800 C 0.48375 0.4512 0.01363 0.0
C801 C 0.49985 0.46998 0.02011 0.0
C802 C 0.42537 0.39701 0.99816 0.0
C803 C 0.42257 0.38931 0.97278 0.0
C804 C 0.44119 0.41609 1.00427 0.0
C805 C 0.45449 0.42832 0.9851 0.0
C806 C 0.45152 0.42074 0.95961 0.0
C807 C 0.43594 0.40145 0.9536 0.0
H808 H 0.61829 0.10881 0.98709 0.0
H809 H 0.58926 0.04609 1.00399 0.0
H810 H 0.6477 0.10822 0.97369 0.0
H811 H 0.61904 0.04535 0.98959 0.0
H812 H 0.68563 0.06044 0.99339 0.0
H813 H 0.65321 0.0569 1.00285 0.0
H814 H 0.66132 0.09758 0.94089 0.0
H815 H 0.69395 0.10163 0.93217 0.0
C816 C 0.61806 0.09474 0.98767 0.0
C817 C 0.60132 0.07748 0.99674 0.0
C818 C 0.635 0.09439 0.97968 0.0
C819 C 0.63584 0.07673 0.98031 0.0
C820 C 0.61899 0.05927 0.98901 0.0
C821 C 0.60187 0.05964 0.99709 0.0
C822 C 0.68041 0.06853 0.98171 0.0
C823 C 0.69248 0.08152 0.96225 0.0
C824 C 0.66172 0.06637 0.987 0.0
C825 C 0.65463 0.07709 0.97285 0.0
C826 C 0.66642 0.08941 0.95262 0.0
C827 C 0.68513 0.09169 0.94751 0.0
H828 H 0.58845 0.03736 0.52688 0.0
H829 H 0.55429 0.99686 0.58749 0.0
H830 H 0.6145 0.02891 0.5331 0.0
H831 H 0.57947 0.98716 0.59266 0.0
H832 H 0.63617 0.98805 0.61781 0.0
H833 H 0.60921 0.9948 0.60942 0.0
H834 H 0.62886 0.00987 0.53022 0.0
H835 H 0.65659 1.00443 0.53952 0.0
C836 C 0.5862 0.02614 0.54101 0.0
C837 C 0.56916 0.01778 0.55661 0.0
C838 C 0.60125 0.02119 0.54467 0.0
C839 C 0.59962 0.00737 0.56374 0.0
C840 C 0.58196 0.99831 0.57836 0.0
C841 C 0.5672 1.00364 0.57511 0.0
C842 C 0.63469 0.99279 0.5986 0.0
C843 C 0.64866 0.99573 0.57942 0.0
C844 C 0.61899 0.99654 0.59358 0.0
C845 C 0.61637 1.00294 0.56894 0.0
C846 C 0.63026 1.00545 0.54962 0.0
C847 C 0.64621 1.00212 0.55487 0.0
H848 H 0.09498 0.61527 0.56807 0.0
H849 H 0.03537 0.5956 0.54051 0.0
H850 H 0.09837 0.64668 0.58144 0.0
H851 H 0.03858 0.6274 0.5547 0.0
H852 H 0.06483 0.69671 0.55157 0.0
H853 H 0.05689 0.66259 0.54204 0.0
H854 H 0.08801 0.66258 0.61175 0.0
H855 H 0.09641 0.69668 0.62072 0.0
C856 C 0.08239 0.61754 0.56528 0.0
C857 C 0.06491 0.60291 0.55314 0.0
C858 C 0.08431 0.6356 0.57315 0.0
C859 C 0.06878 0.6397 0.5692 0.0
C860 C 0.05093 0.62482 0.55782 0.0
C861 C 0.04897 0.60652 0.54997 0.0
C862 C 0.06995 0.68938 0.56481 0.0
C863 C 0.08151 0.69951 0.58669 0.0
C864 C 0.06523 0.66974 0.55951 0.0
C865 C 0.07189 0.65979 0.57602 0.0
C866 C 0.08292 0.66983 0.59831 0.0
C867 C 0.08774 0.68942 0.60349 0.0
H868 H 0.47084 0.50997 0.57094 0.0
H869 H 0.47391 0.45693 0.55449 0.0
H870 H 0.43618 0.48971 0.5828 0.0
H871 H 0.43936 0.43659 0.56752 0.0
H872 H 0.37154 0.40741 0.56439 0.0
H873 H 0.40629 0.42778 0.55218 0.0
H874 H 0.41571 0.46749 0.61635 0.0
H875 H 0.38087 0.44739 0.62812 0.0
C876 C 0.46413 0.49398 0.56983 0.0
C877 C 0.47515 0.48509 0.56155 0.0
C878 C 0.4443 0.48235 0.57696 0.0
C879 C 0.43498 0.46153 0.57608 0.0
C880 C 0.44604 0.45261 0.5681 0.0
C881 C 0.46591 0.46426 0.56093 0.0
C882 C 0.38104 0.42054 0.5758 0.0
C883 C 0.37351 0.42585 0.59716 0.0
C884 C 0.40097 0.43212 0.56894 0.0
C885 C 0.41379 0.44922 0.58335 0.0
C886 C 0.40619 0.45454 0.60466 0.0
C887 C 0.38625 0.44299 0.61147 0.0
H888 H 0.66511 0.79425 0.39265 0.0
H889 H 0.72385 0.84006 0.37061 0.0
H890 H 0.67866 0.77288 0.40484 0.0
H891 H 0.737 0.81854 0.38131 0.0
H892 H 0.75927 0.78399 0.42746 0.0
H893 H 0.74482 0.80483 0.41748 0.0
H894 H 0.69242 0.75373 0.38643 0.0
H895 H 0.7067 0.73279 0.3972 0.0
C896 C 0.68084 0.79978 0.39033 0.0
C897 C 0.69327 0.8189 0.38042 0.0
C898 C 0.6886 0.78744 0.39706 0.0
C899 C 0.70896 0.79396 0.39408 0.0
C900 C 0.72132 0.81307 0.38423 0.0
C901 C 0.71363 0.82536 0.37765 0.0
C902 C 0.74469 0.77723 0.41846 0.0
C903 C 0.73418 0.75678 0.41301 0.0
C904 C 0.7364 0.78918 0.41263 0.0
C905 C 0.71744 0.78101 0.40104 0.0
C906 C 0.70692 0.7605 0.39565 0.0
C907 C 0.71519 0.74853 0.40161 0.0
H908 H 0.24684 0.98458 0.37616 0.0
H909 H 0.2675 0.95451 0.42701 0.0
H910 H 0.27533 0.01659 0.38873 0.0
H911 H 0.29596 0.9866 0.43988 0.0
H912 H 0.33022 0.05088 0.47643 0.0
H913 H 0.30181 0.01857 0.46423 0.0
H914 H 0.31337 0.03404 0.38347 0.0
H915 H 0.34193 0.0661 0.3956 0.0
C916 C 0.25742 0.98483 0.39014 0.0
C917 C 0.25488 0.96699 0.4006 0.0
C918 C 0.27381 1.00315 0.39722 0.0
C919 C 0.28791 1.00416 0.41534 0.0
C920 C 0.2853 0.98634 0.426 0.0
C921 C 0.2691 0.96796 0.4185 0.0
C922 C 0.32668 0.04737 0.45608 0.0
C923 C 0.33834 0.06108 0.43699 0.0
C924 C 0.31048 0.02883 0.4491 0.0
C925 C 0.30532 0.02373 0.42288 0.0
C926 C 0.31686 0.03755 0.40383 0.0
C927 C 0.33327 0.0559 0.41079 0.0
H928 H 0.1537 0.41667 0.36995 0.0
H929 H 0.15658 0.36453 0.3922 0.0
H930 H 0.11943 0.40107 0.38353 0.0
H931 H 0.12162 0.34861 0.40603 0.0
H932 H 0.06878 0.34422 0.45875 0.0
H933 H 0.102 0.35462 0.44178 0.0
H934 H 0.08657 0.37334 0.37085 0.0
H935 H 0.0537 0.36324 0.38776 0.0
C936 C 0.14692 0.40174 0.3776 0.0
C937 C 0.15788 0.39185 0.38009 0.0
C938 C 0.12717 0.39273 0.38524 0.0
C939 C 0.11775 0.37358 0.39581 0.0
C940 C 0.12854 0.36344 0.39803 0.0
C941 C 0.14845 0.37244 0.38996 0.0
C942 C 0.0725 0.35046 0.43948 0.0
C943 C 0.05872 0.35317 0.42474 0.0
C944 C 0.09143 0.35623 0.42968 0.0
C945 C 0.09694 0.3649 0.40503 0.0
C946 C 0.08287 0.36694 0.39003 0.0
C947 C 0.06402 0.36115 0.39975 0.0
H948 H 0.172 0.39032 0.83292 0.0
H949 H 0.12258 0.33647 0.86215 0.0
H950 H 0.14906 0.39885 0.81198 0.0
H951 H 0.09953 0.34446 0.84024 0.0
H952 H 0.06238 0.37386 0.82323 0.0
H953 H 0.08532 0.36445 0.84202 0.0
H954 H 0.12626 0.39399 0.77948 0.0
H955 H 0.10349 0.40415 0.76142 0.0
C956 C 0.15621 0.38006 0.83449 0.0
C957 C 0.14925 0.36268 0.84938 0.0
C958 C 0.14293 0.38493 0.82231 0.0
C959 C 0.12218 0.37251 0.82434 0.0
C960 C 0.11528 0.35477 0.83856 0.0
C961 C 0.12857 0.35002 0.85098 0.0
C962 C 0.07627 0.37835 0.81345 0.0
C963 C 0.08103 0.38982 0.79078 0.0
C964 C 0.08948 0.37278 0.82416 0.0
C965 C 0.10787 0.37827 0.81242 0.0
C966 C 0.11251 0.38964 0.78952 0.0
C967 C 0.09935 0.3954 0.77896 0.0
H968 H 0.72089 0.81254 0.84344 0.0
H969 H 0.74508 0.8309 0.76686 0.0
H970 H 0.71072 0.77816 0.83238 0.0
H971 H 0.7352 0.79653 0.75589 0.0
H972 H 0.68947 0.73039 0.73748 0.0
H973 H 0.70281 0.76538 0.74866 0.0
H974 H 0.72445 0.75609 0.82161 0.0
H975 H 0.71107 0.72107 0.81046 0.0
C976 C 0.72416 0.80924 0.8243 0.0
C977 C 0.73369 0.82443 0.80598 0.0
C978 C 0.71848 0.78958 0.81803 0.0
C979 C 0.72206 0.78461 0.79321 0.0
C980 C 0.73205 0.79987 0.77509 0.0
C981 C 0.7379 0.81958 0.78145 0.0
C982 C 0.69713 0.73584 0.75587 0.0
C983 C 0.69917 0.72297 0.77313 0.0
C984 C 0.70489 0.75591 0.76219 0.0
C985 C 0.7147 0.76351 0.78601 0.0
C986 C 0.71683 0.75064 0.80321 0.0
C987 C 0.70923 0.73061 0.79678 0.0
H988 H 0.25553 0.95295 0.87745 0.0
H989 H 0.24912 0.90354 0.83132 0.0
H990 H 0.28883 0.97363 0.86057 0.0
H991 H 0.28269 0.92427 0.81462 0.0
H992 H 0.33633 0.97609 0.77126 0.0
H993 H 0.30273 0.95346 0.78686 0.0
H994 H 0.32133 0.97628 0.86455 0.0
H995 H 0.3546 0.99891 0.849 0.0
C996 C 0.2612 0.94648 0.86369 0.0
C997 C 0.24962 0.92654 0.85583 0.0
C998 C 0.28039 0.95832 0.85413 0.0
C999 C 0.28854 0.95058 0.8364 0.0
C1000 C 0.27684 0.93074 0.82814 0.0
C1001 C 0.25762 0.91884 0.83781 0.0
C1002 C 0.33326 0.97607 0.79171 0.0
C1003 C 0.34811 0.98937 0.80886 0.0
C1004 C 0.31402 0.9631 0.80066 0.0
C1005 C 0.30925 0.96324 0.82692 0.0
C1006 C 0.32435 0.97606 0.84413 0.0
C1007 C 0.3435 0.98894 0.83523 0.0
H1008 H 0.68107 0.94227 0.35351 0.0
H1009 H 0.6434 0.91748 0.28603 0.0
H1010 H 0.68258 0.97395 0.346 0.0
H1011 H 0.64497 0.9493 0.27835 0.0
H1012 H 0.63814 1.00481 0.28676 0.0
H1013 H 0.63508 0.97239 0.29485 0.0
H1014 H 0.69727 1.00117 0.31595 0.0
H1015 H 0.70019 0.03353 0.30833 0.0
C1016 C 0.67316 0.94359 0.33699 0.0
C1017 C 0.66225 0.92733 0.32026 0.0
C1018 C 0.67406 0.96181 0.33263 0.0
C1019 C 0.66409 0.96432 0.31138 0.0
C1020 C 0.65271 0.94789 0.29503 0.0
C1021 C 0.65178 0.92961 0.29944 0.0
C1022 C 0.65115 1.0042 0.29312 0.0
C1023 C 0.6694 0.02176 0.29697 0.0
C1024 C 0.64942 0.98559 0.29763 0.0
C1025 C 0.66589 0.9841 0.30617 0.0
C1026 C 0.68417 1.00172 0.30981 0.0
C1027 C 0.6859 0.0203 0.30527 0.0
H1028 H 0.15193 0.81555 0.36237 0.0
H1029 H 0.14307 0.837 0.28923 0.0
H1030 H 0.12893 0.7814 0.34862 0.0
H1031 H 0.11992 0.80294 0.2756 0.0
H1032 H 0.09573 0.73801 0.24981 0.0
H1033 H 0.11978 0.77179 0.26376 0.0
H1034 H 0.09282 0.75981 0.33933 0.0
H1035 H 0.0688 0.72605 0.32539 0.0
C1036 C 0.14514 0.81299 0.34333 0.0
C1037 C 0.14935 0.82906 0.32694 0.0
C1038 C 0.13182 0.79342 0.33551 0.0
C1039 C 0.12255 0.78939 0.31098 0.0
C1040 C 0.12691 0.80546 0.29452 0.0
C1041 C 0.14004 0.82503 0.30245 0.0
C1042 C 0.09499 0.74256 0.26943 0.0
C1043 C 0.08032 0.72932 0.28646 0.0
C1044 C 0.10871 0.76197 0.27738 0.0
C1045 C 0.10823 0.76856 0.30267 0.0
C1046 C 0.09375 0.75519 0.31982 0.0
C1047 C 0.07991 0.73586 0.31178 0.0
H1048 H 0.25676 0.38894 0.34053 0.0
H1049 H 0.28059 0.44631 0.30421 0.0
H1050 H 0.28705 0.38806 0.32901 0.0
H1051 H 0.31052 0.44566 0.2933 0.0
H1052 H 0.35734 0.43591 0.2598 0.0
H1053 H 0.32387 0.43019 0.26644 0.0
H1054 H 0.32254 0.40535 0.34174 0.0
H1055 H 0.35599 0.41058 0.33467 0.0
C1056 C 0.26828 0.40117 0.32978 0.0
C1057 C 0.26628 0.4177 0.32333 0.0
C1058 C 0.2857 0.40078 0.3234 0.0
C1059 C 0.30128 0.4168 0.3102 0.0
C1060 C 0.29881 0.43291 0.30308 0.0
C1061 C 0.28162 0.43334 0.30954 0.0
C1062 C 0.34986 0.42906 0.27769 0.0
C1063 C 0.35942 0.42392 0.29684 0.0
C1064 C 0.33066 0.42582 0.28155 0.0
C1065 C 0.32053 0.41753 0.30478 0.0
C1066 C 0.32979 0.41163 0.32354 0.0
C1067 C 0.34903 0.41476 0.31958 0.0
H1068 H 0.24907 0.35695 0.87448 0.0
H1069 H 0.2277 0.33463 0.951 0.0
H1070 H 0.27714 0.3512 0.88137 0.0
H1071 H 0.25551 0.32872 0.95778 0.0
H1072 H 0.30065 0.30636 0.95382 0.0
H1073 H 0.27098 0.30875 0.94367 0.0
H1074 H 0.30786 0.3662 0.90935 0.0
H1075 H 0.33746 0.36389 0.91974 0.0
C1076 C 0.25006 0.35039 0.89253 0.0
C1077 C 0.23597 0.34619 0.91212 0.0
C1078 C 0.26632 0.3473 0.89662 0.0
C1079 C 0.26878 0.33959 0.92024 0.0
C1080 C 0.25415 0.33455 0.9393 0.0
C1081 C 0.23815 0.33796 0.93539 0.0
C1082 C 0.30243 0.3195 0.94409 0.0
C1083 C 0.32153 0.33496 0.93774 0.0
C1084 C 0.2854 0.3209 0.9383 0.0
C1085 C 0.28689 0.33766 0.92557 0.0
C1086 C 0.306 0.35296 0.91886 0.0
C1087 C 0.32304 0.3517 0.92502 0.0
H1088 H 0.78194 0.97234 0.88002 0.0
H1089 H 0.71817 0.93868 0.88846 0.0
H1090 H 0.78201 1.0018 0.89713 0.0
H1091 H 0.71827 0.968 0.90505 0.0
H1092 H 0.72396 0.02965 0.90302 0.0
H1093 H 0.72471 1.00029 0.88763 0.0
H1094 H 0.77492 0.01478 0.93783 0.0
H1095 H 0.77427 0.04431 0.95313 0.0
C1096 C 0.76798 0.97116 0.88565 0.0
C1097 C 0.75004 0.95317 0.88249 0.0
C1098 C 0.76802 0.98803 0.89544 0.0
C1099 C 0.75011 0.98725 0.90219 0.0
C1100 C 0.73226 0.96918 0.89952 0.0
C1101 C 0.73222 0.95236 0.88989 0.0
C1102 C 0.73511 0.02653 0.91085 0.0
C1103 C 0.74901 0.03922 0.92933 0.0
C1104 C 0.7355 0.00968 0.9021 0.0
C1105 C 0.74986 1.00522 0.91156 0.0
C1106 C 0.76379 0.01794 0.93003 0.0
C1107 C 0.76333 0.03475 0.93891 0.0
H1108 H 0.16187 0.85196 0.89886 0.0
H1109 H 0.11913 0.85478 0.84781 0.0
H1110 H 0.13666 0.81908 0.91301 0.0
H1111 H 0.09418 0.82154 0.86115 0.0
H1112 H 0.06 0.75418 0.87555 0.0
H1113 H 0.08829 0.78495 0.86011 0.0
H1114 H 0.1022 0.80704 0.93864 0.0
H1115 H 0.07351 0.77634 0.95417 0.0
C1116 C 0.14727 0.84573 0.89055 0.0
C1117 C 0.14262 0.85651 0.87268 0.0
C1118 C 0.13276 0.82675 0.89862 0.0
C1119 C 0.11338 0.81783 0.88841 0.0
C1120 C 0.10899 0.82803 0.86942 0.0
C1121 C 0.12334 0.84714 0.86184 0.0
C1122 C 0.06921 0.76548 0.8896 0.0
C1123 C 0.06447 0.76283 0.9161 0.0
C1124 C 0.08537 0.78312 0.88072 0.0
C1125 C 0.09743 0.79838 0.89816 0.0
C1126 C 0.09323 0.79545 0.92479 0.0
C1127 C 0.07678 0.77792 0.93366 0.0
H1128 H 0.37593 0.16434 0.75262 0.0
H1129 H 0.31926 0.1179 0.724 0.0
H1130 H 0.38544 0.13976 0.76356 0.0
H1131 H 0.32856 0.09304 0.7358 0.0
H1132 H 0.36455 0.05957 0.73056 0.0
H1133 H 0.35225 0.08249 0.7214 0.0
H1134 H 0.3775 0.11302 0.7938 0.0
H1135 H 0.39008 0.09043 0.80267 0.0
C1136 C 0.36546 0.14885 0.74872 0.0
C1137 C 0.3469 0.1431 0.73725 0.0
C1138 C 0.37083 0.13472 0.75528 0.0
C1139 C 0.35775 0.11443 0.75058 0.0
C1140 C 0.33902 0.10858 0.73946 0.0
C1141 C 0.33361 0.12278 0.73295 0.0
C1142 C 0.36739 0.07115 0.74453 0.0
C1143 C 0.37842 0.07333 0.76721 0.0
C1144 C 0.36023 0.08418 0.73938 0.0
C1145 C 0.36399 0.09964 0.75681 0.0
C1146 C 0.37462 0.10147 0.77978 0.0
C1147 C 0.38177 0.08848 0.78491 0.0
H1148 H 0.93778 0.25625 0.68016 0.0
H1149 H 0.89355 0.25826 0.7281 0.0
H1150 H 0.96105 0.29077 0.69022 0.0
H1151 H 0.917 0.29348 0.73816 0.0
H1152 H 0.97491 0.34632 0.77636 0.0
H1153 H 0.94753 0.31371 0.76306 0.0
H1154 H 0.97018 0.32433 0.68503 0.0
H1155 H 0.99765 0.35643 0.69852 0.0
C1156 C 0.93283 0.26433 0.69233 0.0
C1157 C 0.9137 0.25453 0.70303 0.0
C1158 C 0.94625 0.28426 0.69814 0.0
C1159 C 0.94112 0.2952 0.71511 0.0
C1160 C 0.92164 0.28559 0.72519 0.0
C1161 C 0.90803 0.26548 0.71912 0.0
C1162 C 0.97393 0.34172 0.75633 0.0
C1163 C 0.98867 0.35399 0.73861 0.0
C1164 C 0.95811 0.32302 0.74861 0.0
C1165 C 0.95657 0.31607 0.72293 0.0
C1166 C 0.97095 0.3288 0.70508 0.0
C1167 C 0.98674 0.34736 0.71281 0.0
H1168 H 0.8291 0.67769 0.71972 0.0
H1169 H 0.82372 0.72283 0.6778 0.0
H1170 H 0.79311 0.66044 0.72838 0.0
H1171 H 0.78831 0.7059 0.68614 0.0
H1172 H 0.72331 0.66768 0.68997 0.0
H1173 H 0.75664 0.67593 0.6768 0.0
H1174 H 0.77066 0.66832 0.75554 0.0
H1175 H 0.73704 0.65974 0.76871 0.0
C1176 C 0.82015 0.6836 0.71182 0.0
C1177 C 0.82913 0.70153 0.69804 0.0
C1178 C 0.79963 0.67388 0.71697 0.0
C1179 C 0.78778 0.68177 0.70794 0.0
C1180 C 0.79681 0.6992 0.69311 0.0
C1181 C 0.81717 0.70898 0.6884 0.0
C1182 C 0.73335 0.66741 0.70443 0.0
C1183 C 0.72757 0.66328 0.73046 0.0
C1184 C 0.75251 0.6722 0.69688 0.0
C1185 C 0.76644 0.67304 0.71516 0.0
C1186 C 0.76028 0.66769 0.74092 0.0
C1187 C 0.74104 0.66288 0.7485 0.0
H1188 H 0.82395 0.72069 0.09966 0.0
H1189 H 0.83488 0.74585 0.1766 0.0
H1190 H 0.80163 0.73359 0.09062 0.0
H1191 H 0.81216 0.75876 0.16765 0.0
H1192 H 0.74842 0.75073 0.15138 0.0
H1193 H 0.77528 0.74371 0.16077 0.0
H1194 H 0.79887 0.76369 0.08433 0.0
H1195 H 0.77205 0.77083 0.07501 0.0
C1196 C 0.82194 0.72943 0.1145 0.0
C1197 C 0.83143 0.7324 0.13877 0.0
C1198 C 0.80908 0.73685 0.10929 0.0
C1199 C 0.8049 0.7472 0.12838 0.0
C1200 C 0.81488 0.75075 0.1525 0.0
C1201 C 0.82813 0.74359 0.15755 0.0
C1202 C 0.75941 0.75377 0.1366 0.0
C1203 C 0.75794 0.76128 0.11235 0.0
C1204 C 0.77495 0.74987 0.14209 0.0
C1205 C 0.78937 0.75311 0.12337 0.0
C1206 C 0.78802 0.76086 0.09921 0.0
C1207 C 0.77263 0.76501 0.09386 0.0
H1208 H 0.38207 0.15017 0.20881 0.0
H1209 H 0.40301 0.16185 0.13003 0.0
H1210 H 0.36941 0.11469 0.20179 0.0
H1211 H 0.39069 0.12649 0.12314 0.0
H1212 H 0.34609 0.05998 0.11143 0.0
H1213 H 0.35867 0.09535 0.11925 0.0
H1214 H 0.38094 0.09057 0.19419 0.0
H1215 H 0.36829 0.05516 0.18637 0.0
C1216 C 0.38401 0.14519 0.19001 0.0
C1217 C 0.39357 0.15895 0.17 0.0
C1218 C 0.37689 0.12484 0.18603 0.0
C1219 C 0.37894 0.11765 0.16185 0.0
C1220 C 0.38863 0.13143 0.14192 0.0
C1221 C 0.39592 0.15178 0.14597 0.0
C1222 C 0.3536 0.06645 0.12962 0.0
C1223 C 0.35617 0.05471 0.14827 0.0
C1224 C 0.36095 0.08678 0.13404 0.0
C1225 C 0.37091 0.09589 0.15732 0.0
C1226 C 0.37321 0.08405 0.17613 0.0
C1227 C 0.36602 0.06375 0.17161 0.0
H1228 H 0.91093 0.30986 0.19309 0.0
H1229 H 0.91281 0.25838 0.16483 0.0
H1230 H 0.94498 0.33114 0.17917 0.0
H1231 H 0.94718 0.27971 0.15138 0.0
H1232 H 1.0024 0.32761 0.10779 0.0
H1233 H 0.96806 0.30509 0.12061 0.0
H1234 H 0.97798 0.33902 0.1911 0.0
H1235 H 0.01198 0.36167 0.17801 0.0
C1236 C 0.91861 0.30305 0.18393 0.0
C1237 C 0.9091 0.28238 0.18016 0.0
C1238 C 0.93824 0.31527 0.1761 0.0
C1239 C 0.94897 0.30717 0.16434 0.0
C1240 C 0.93935 0.2865 0.16017 0.0
C1241 C 0.91966 0.27425 0.16799 0.0
C1242 C 0.99724 0.33015 0.12609 0.0
C1243 C 0.00988 0.34648 0.14182 0.0
C1244 C 0.97757 0.31721 0.1335 0.0
C1245 C 0.97013 0.32031 0.1568 0.0
C1246 C 0.98302 0.33638 0.17278 0.0
C1247 C 1.0026 0.3493 0.16536 0.0
H1248 H 0.33181 0.264 0.70421 0.0
H1249 H 0.31034 0.2407 0.62741 0.0
H1250 H 0.32725 0.29225 0.69508 0.0
H1251 H 0.30585 0.26907 0.61818 0.0
H1252 H 0.28607 0.31626 0.61857 0.0
H1253 H 0.28711 0.28596 0.62899 0.0
H1254 H 0.34345 0.32136 0.66819 0.0
H1255 H 0.34221 0.3513 0.65829 0.0
C1256 C 0.32616 0.26492 0.68534 0.0
C1257 C 0.32164 0.25017 0.66647 0.0
C1258 C 0.32354 0.28113 0.68009 0.0
C1259 C 0.31638 0.28305 0.65579 0.0
C1260 C 0.31122 0.26796 0.63718 0.0
C1261 C 0.31381 0.2517 0.64247 0.0
C1262 C 0.29861 0.31748 0.62949 0.0
C1263 C 0.31402 0.33614 0.63769 0.0
C1264 C 0.29926 0.30017 0.63536 0.0
C1265 C 0.3153 0.30122 0.64959 0.0
C1266 C 0.33068 0.31993 0.65765 0.0
C1267 C 0.33003 0.33714 0.65181 0.0
H1268 H 0.81075 0.15241 0.65331 0.0
H1269 H 0.84415 0.12154 0.65612 0.0
H1270 H 0.78185 0.12197 0.63629 0.0
H1271 H 0.81578 0.09167 0.64008 0.0
H1272 H 0.76862 0.04372 0.59104 0.0
H1273 H 0.79626 0.07617 0.6033 0.0
H1274 H 0.75637 0.08835 0.64745 0.0
H1275 H 0.72858 0.05601 0.63442 0.0
C1276 C 0.81202 0.13927 0.65026 0.0
C1277 C 0.82995 0.13964 0.65615 0.0
C1278 C 0.79539 0.12172 0.64064 0.0
C1279 C 0.79633 0.10417 0.63649 0.0
C1280 C 0.81435 0.10479 0.64232 0.0
C1281 C 0.83075 0.12209 0.65187 0.0
C1282 C 0.76569 0.05335 0.60322 0.0
C1283 C 0.74632 0.04708 0.61184 0.0
C1284 C 0.78162 0.07202 0.61044 0.0
C1285 C 0.7788 0.08504 0.62676 0.0
C1286 C 0.75927 0.07897 0.63476 0.0
C1287 C 0.74329 0.06029 0.6274 0.0
H1288 H 0.932 0.70752 0.65585 0.0
H1289 H 0.96141 0.77158 0.65321 0.0
H1290 H 0.96286 0.70891 0.6415 0.0
H1291 H 0.99179 0.77296 0.63968 0.0
H1292 H 0.03978 0.77115 0.59466 0.0
H1293 H 1.00689 0.76625 0.60395 0.0
H1294 H 0.99667 0.71937 0.65738 0.0
H1295 H 0.0295 0.72398 0.6475 0.0
C1296 C 0.94493 0.72183 0.65208 0.0
C1297 C 0.94416 0.7394 0.65571 0.0
C1298 C 0.96265 0.72266 0.64404 0.0
C1299 C 0.97986 0.74107 0.63928 0.0
C1300 C 0.97884 0.7585 0.64263 0.0
C1301 C 0.96133 0.75768 0.65066 0.0
C1302 C 0.03049 0.75973 0.6083 0.0
C1303 C 0.03736 0.7481 0.62052 0.0
C1304 C 0.01162 0.75694 0.61371 0.0
C1305 C 0.99911 0.74251 0.63163 0.0
C1306 C 1.00578 0.73049 0.64332 0.0
C1307 C 0.02468 0.73325 0.63782 0.0
H1308 H 0.89462 0.68267 0.24193 0.0
H1309 H 0.92912 0.72052 0.17934 0.0
H1310 H 0.92266 0.67907 0.25578 0.0
H1311 H 0.95723 0.71625 0.19236 0.0
H1312 H 0.00938 0.71392 0.23121 0.0
H1313 H 0.98308 0.7214 0.22078 0.0
H1314 H 0.93922 0.66233 0.24472 0.0
H1315 H 0.96565 0.65531 0.25613 0.0
C1316 C 0.9084 0.69049 0.23132 0.0
C1317 C 0.90966 0.70205 0.20969 0.0
C1318 C 0.92447 0.68815 0.23901 0.0
C1319 C 0.94234 0.69695 0.22499 0.0
C1320 C 0.9439 0.70929 0.20392 0.0
C1321 C 0.92779 0.71187 0.19644 0.0
C1322 C 0.9941 0.70256 0.23437 0.0
C1323 C 0.98969 0.684 0.24463 0.0
C1324 C 0.97892 0.70681 0.22818 0.0
C1325 C 0.95877 0.69259 0.23187 0.0
C1326 C 0.95444 0.67396 0.24206 0.0
C1327 C 0.96964 0.6698 0.24847 0.0
H1328 H 0.45053 0.31328 0.24591 0.0
H1329 H 0.38778 0.28443 0.22838 0.0
H1330 H 0.44978 0.34319 0.25959 0.0
H1331 H 0.38698 0.31402 0.24227 0.0
H1332 H 0.39956 0.3785 0.23631 0.0
H1333 H 0.40024 0.34823 0.22546 0.0
H1334 H 0.4355 0.35564 0.29402 0.0
H1335 H 0.43479 0.38605 0.30494 0.0
C1336 C 0.43658 0.31327 0.24512 0.0
C1337 C 0.41923 0.29641 0.23611 0.0
C1338 C 0.43611 0.33034 0.25312 0.0
C1339 C 0.41832 0.33102 0.25193 0.0
C1340 C 0.40096 0.31407 0.24322 0.0
C1341 C 0.40138 0.29699 0.23552 0.0
C1342 C 0.40737 0.37364 0.24916 0.0
C1343 C 0.41707 0.38466 0.27153 0.0
C1344 C 0.4077 0.35623 0.24299 0.0
C1345 C 0.41789 0.34948 0.25889 0.0
C1346 C 0.42764 0.36052 0.28127 0.0
C1347 C 0.42712 0.37785 0.28761 0.0
H1348 H 0.77859 0.20443 0.16769 0.0
H1349 H 0.8221 0.21036 0.22458 0.0
H1350 H 0.75469 0.17269 0.18653 0.0
H1351 H 0.79828 0.17898 0.24367 0.0
H1352 H 0.73887 0.13958 0.28976 0.0
H1353 H 0.76617 0.16823 0.26853 0.0
H1354 H 0.74802 0.13763 0.19491 0.0
H1355 H 0.72084 0.10891 0.21614 0.0
C1356 C 0.78323 0.199 0.18411 0.0
C1357 C 0.80241 0.21041 0.19487 0.0
C1358 C 0.76951 0.18071 0.19482 0.0
C1359 C 0.7745 0.17343 0.21682 0.0
C1360 C 0.79386 0.18435 0.22697 0.0
C1361 C 0.80762 0.2025 0.21599 0.0
C1362 C 0.74091 0.13885 0.26913 0.0
C1363 C 0.72768 0.12199 0.25464 0.0
C1364 C 0.75658 0.15522 0.25697 0.0
C1365 C 0.75919 0.15521 0.23002 0.0
C1366 C 0.74629 0.13813 0.21566 0.0
C1367 C 0.7308 0.12165 0.22787 0.0
H1368 H 0.05741 0.52071 0.91767 0.0
H1369 H 0.99472 0.49237 0.90123 0.0
H1370 H 0.06038 0.49776 0.88767 0.0
H1371 H 0.99715 0.4688 0.87254 0.0
H1372 H 0.00919 0.44291 0.80094 0.0
H1373 H 1.00696 0.46516 0.83224 0.0
H1374 H 0.05495 0.46636 0.87678 0.0
H1375 H 0.05775 0.44487 0.84447 0.0
C1376 C 0.04422 0.50931 0.90796 0.0
C1377 C 0.0259 0.50849 0.91157 0.0
C1378 C 0.04583 0.49605 0.89076 0.0
C1379 C 0.02906 0.48137 0.87705 0.0
C1380 C 0.0106 0.48015 0.88179 0.0
C1381 C 0.00911 0.49359 0.89851 0.0
C1382 C 0.01922 0.44787 0.81746 0.0
C1383 C 0.03361 0.44201 0.82014 0.0
C1384 C 0.01788 0.46061 0.83569 0.0
C1385 C 0.03067 0.4677 0.85751 0.0
C1386 C 0.04498 0.46162 0.86023 0.0
C1387 C 0.04649 0.44909 0.84175 0.0
H1388 H 0.58511 0.56576 0.92501 0.0
H1389 H 0.5664 0.60948 0.92069 0.0
H1390 H 0.60769 0.58163 0.88877 0.0
H1391 H 0.5895 0.62603 0.8856 0.0
H1392 H 0.61629 0.64036 0.80624 0.0
H1393 H 0.5943 0.62361 0.8422 0.0
H1394 H 0.63693 0.60844 0.87333 0.0
H1395 H 0.65842 0.62434 0.83622 0.0
C1396 C 0.58606 0.57894 0.91649 0.0
C1397 C 0.57384 0.58625 0.92545 0.0
C1398 C 0.59906 0.58814 0.89576 0.0
C1399 C 0.60041 0.60511 0.88381 0.0
C1400 C 0.58856 0.6127 0.89354 0.0
C1401 C 0.57534 0.60328 0.91384 0.0
C1402 C 0.62095 0.63342 0.82075 0.0
C1403 C 0.63913 0.63374 0.81842 0.0
C1404 C 0.60839 0.62391 0.84161 0.0
C1405 C 0.61378 0.61475 0.86112 0.0
C1406 C 0.63203 0.61504 0.85867 0.0
C1407 C 0.64447 0.62429 0.83746 0.0
H1408 H 0.49248 0.05501 0.96281 0.0
H1409 H 0.53226 0.10981 0.92407 0.0
H1410 H 0.46929 0.04536 0.92659 0.0
H1411 H 0.50885 0.10015 0.88775 0.0
H1412 H 0.45128 0.08442 0.84198 0.0
H1413 H 0.47545 0.0947 0.8774 0.0
H1414 H 0.46679 0.03529 0.88105 0.0
H1415 H 0.44242 0.02494 0.84583 0.0
C1416 C 0.49641 0.06494 0.94646 0.0
C1417 C 0.51437 0.08314 0.94631 0.0
C1418 C 0.48307 0.05939 0.92567 0.0
C1419 C 0.48728 0.0719 0.90419 0.0
C1420 C 0.50509 0.09024 0.90412 0.0
C1421 C 0.5185 0.09579 0.92495 0.0
C1422 C 0.45458 0.07357 0.85032 0.0
C1423 C 0.4449 0.05385 0.8412 0.0
C1424 C 0.46851 0.07949 0.8705 0.0
C1425 C 0.47301 0.06581 0.88209 0.0
C1426 C 0.46346 0.04613 0.87276 0.0
C1427 C 0.44958 0.04022 0.85251 0.0
H1428 H 0.53157 0.08481 0.64948 0.0
H1429 H 0.49278 0.02837 0.61257 0.0
H1430 H 0.50608 0.0782 0.68143 0.0
H1431 H 0.46701 0.02203 0.64412 0.0
H1432 H 0.43341 0.01009 0.72242 0.0
H1433 H 0.45865 0.01503 0.69038 0.0
H1434 H 0.47394 0.07643 0.68264 0.0
H1435 H 0.44909 0.07158 0.71466 0.0
C1436 C 0.51766 0.07094 0.64821 0.0
C1437 C 0.51427 0.05719 0.62829 0.0
C1438 C 0.50293 0.06724 0.66639 0.0
C1439 C 0.48439 0.04964 0.66525 0.0
C1440 C 0.48112 0.03569 0.64567 0.0
C1441 C 0.49585 0.03944 0.62739 0.0
C1442 C 0.4421 0.02458 0.71371 0.0
C1443 C 0.43928 0.04045 0.72115 0.0
C1444 C 0.45653 0.02741 0.69532 0.0
C1445 C 0.46849 0.04619 0.6841 0.0
C1446 C 0.4653 0.06188 0.69122 0.0
C1447 C 0.45091 0.05905 0.70947 0.0
H1448 H 0.10078 0.53646 0.6154 0.0
H1449 H 0.04794 0.49148 0.57683 0.0
H1450 H 0.09534 0.51346 0.65088 0.0
H1451 H 0.04242 0.46847 0.61234 0.0
H1452 H 0.05004 0.4262 0.66867 0.0
H1453 H 0.05656 0.44909 0.63261 0.0
H1454 H 0.07199 0.49698 0.68704 0.0
H1455 H 0.06541 0.4741 0.72301 0.0
C1456 C 0.08805 0.52163 0.6144 0.0
C1457 C 0.07479 0.51592 0.59318 0.0
C1458 C 0.08483 0.50845 0.6349 0.0
C1459 C 0.0684 0.48901 0.63466 0.0
C1460 C 0.0553 0.48322 0.61323 0.0
C1461 C 0.05837 0.4965 0.59292 0.0
C1462 C 0.05492 0.44164 0.67296 0.0
C1463 C 0.05721 0.44825 0.69884 0.0
C1464 C 0.05854 0.45477 0.65224 0.0
C1465 C 0.06481 0.47498 0.65676 0.0
C1466 C 0.06739 0.48162 0.68268 0.0
C1467 C 0.06354 0.46845 0.70338 0.0
H1468 H 0.56646 0.60232 0.58127 0.0
H1469 H 0.56817 0.5522 0.61464 0.0
H1470 H 0.58639 0.6231 0.61802 0.0
H1471 H 0.58836 0.57263 0.64998 0.0
H1472 H 0.61504 0.60721 0.72063 0.0
H1473 H 0.58969 0.58915 0.68782 0.0
H1474 H 0.6197 0.6385 0.63528 0.0
H1475 H 0.64447 0.65706 0.66904 0.0
C1476 C 0.57083 0.59569 0.59654 0.0
C1477 C 0.56576 0.57562 0.59495 0.0
C1478 C 0.58243 0.60761 0.61746 0.0
C1479 C 0.58907 0.59962 0.63716 0.0
C1480 C 0.58332 0.57938 0.6357 0.0
C1481 C 0.57181 0.56761 0.6151 0.0
C1482 C 0.61614 0.61424 0.70213 0.0
C1483 C 0.63191 0.63339 0.69724 0.0
C1484 C 0.60163 0.60387 0.6832 0.0
C1485 C 0.60277 0.61212 0.65853 0.0
C1486 C 0.61819 0.63166 0.65401 0.0
C1487 C 0.63251 0.64224 0.67326 0.0
H1488 H 0.01002 0.58612 0.07105 0.0
H1489 H 0.07406 0.61793 0.07413 0.0
H1490 H 0.00906 0.60154 0.11178 0.0
H1491 H 0.07321 0.63312 0.11519 0.0
H1492 H 0.0658 0.67126 0.17701 0.0
H1493 H 0.06675 0.6564 0.13572 0.0
H1494 H 0.01398 0.60197 0.15686 0.0
H1495 H 0.01274 0.61717 0.19773 0.0
C1496 C 0.02393 0.59627 0.08054 0.0
C1497 C 0.04212 0.60067 0.06922 0.0
C1498 C 0.0234 0.60513 0.10406 0.0
C1499 C 0.04105 0.61861 0.11717 0.0
C1500 C 0.05926 0.6231 0.10568 0.0
C1501 C 0.05978 0.61434 0.08205 0.0
C1502 C 0.0544 0.65612 0.17283 0.0
C1503 C 0.03918 0.64545 0.19075 0.0
C1504 C 0.055 0.64749 0.14913 0.0
C1505 C 0.04045 0.62787 0.14262 0.0
C1506 C 0.02529 0.6172 0.16074 0.0
C1507 C 0.02464 0.62587 0.18437 0.0
H1508 H 0.53009 0.50216 0.12656 0.0
H1509 H 0.4976 0.53228 0.10743 0.0
H1510 H 0.50864 0.48672 0.16341 0.0
H1511 H 0.47603 0.51688 0.14475 0.0
H1512 H 0.42981 0.46899 0.19998 0.0
H1513 H 0.45039 0.48542 0.16227 0.0
H1514 H 0.50257 0.49558 0.2054 0.0
H1515 H 0.482 0.47879 0.24265 0.0
C1516 C 0.51846 0.50565 0.13037 0.0
C1517 C 0.51573 0.51867 0.11418 0.0
C1518 C 0.50614 0.4968 0.15159 0.0
C1519 C 0.49074 0.50074 0.15736 0.0
C1520 C 0.48767 0.51341 0.14083 0.0
C1521 C 0.50002 0.52225 0.11944 0.0
C1522 C 0.4457 0.47484 0.20139 0.0
C1523 C 0.45426 0.47246 0.22422 0.0
C1524 C 0.45751 0.48434 0.17982 0.0
C1525 C 0.47815 0.49166 0.18064 0.0
C1526 C 0.4867 0.48975 0.20382 0.0
C1527 C 0.47491 0.48023 0.22528 0.0
H1528 H 0.60299 0.07864 0.09541 0.0
H1529 H 0.58368 0.11234 0.1415 0.0
H1530 H 0.61986 0.07491 0.133 0.0
H1531 H 0.60058 0.10855 0.17934 0.0
H1532 H 0.65038 0.11404 0.23405 0.0
H1533 H 0.63336 0.1185 0.19695 0.0
H1534 H 0.6119 0.05756 0.17383 0.0
H1535 H 0.62932 0.05328 0.21058 0.0
C1536 C 0.60222 0.08514 0.11363 0.0
C1537 C 0.59182 0.09564 0.11548 0.0
C1538 C 0.61188 0.08297 0.13522 0.0
C1539 C 0.6114 0.09124 0.15927 0.0
C1540 C 0.60137 0.10212 0.16105 0.0
C1541 C 0.59171 0.10432 0.13937 0.0
C1542 C 0.64196 0.10158 0.22108 0.0
C1543 C 0.64123 0.08333 0.22516 0.0
C1544 C 0.63213 0.10411 0.19989 0.0
C1545 C 0.62133 0.08842 0.18233 0.0
C1546 C 0.62036 0.07006 0.18672 0.0
C1547 C 0.63023 0.06755 0.20787 0.0
H1548 H 0.60183 0.11578 0.45114 0.0
H1549 H 0.60979 0.06902 0.48375 0.0
H1550 H 0.62055 0.11631 0.41286 0.0
H1551 H 0.62834 0.06939 0.44546 0.0
H1552 H 0.67436 0.08672 0.38051 0.0
H1553 H 0.65982 0.09046 0.42071 0.0
H1554 H 0.61332 0.09219 0.37639 0.0
H1555 H 0.62773 0.08839 0.33643 0.0
C1556 C 0.60786 0.10585 0.45032 0.0
C1557 C 0.60425 0.09229 0.4704 0.0
C1558 C 0.61842 0.10602 0.42831 0.0
C1559 C 0.62583 0.09281 0.42606 0.0
C1560 C 0.62294 0.07984 0.44665 0.0
C1561 C 0.61218 0.07951 0.46848 0.0
C1562 C 0.66111 0.08803 0.3794 0.0
C1563 C 0.65216 0.0872 0.35532 0.0
C1564 C 0.65275 0.0901 0.4024 0.0
C1565 C 0.63545 0.09167 0.40173 0.0
C1566 C 0.62679 0.09126 0.37757 0.0
C1567 C 0.63498 0.08895 0.35467 0.0
H1568 H 0.03299 0.57349 0.43127 0.0
H1569 H 0.09572 0.61195 0.41867 0.0
H1570 H 0.02555 0.58945 0.39563 0.0
H1571 H 0.08834 0.628 0.38337 0.0
H1572 H 0.07028 0.64074 0.30489 0.0
H1573 H 0.07665 0.62395 0.34036 0.0
H1574 H 0.02565 0.61858 0.3808 0.0
H1575 H 0.01902 0.635 0.34476 0.0
C1576 C 0.04525 0.58545 0.42112 0.0
C1577 C 0.06502 0.59123 0.42804 0.0
C1578 C 0.04096 0.59469 0.40057 0.0
C1579 C 0.05628 0.61008 0.38621 0.0
C1580 C 0.07603 0.61597 0.39336 0.0
C1581 C 0.08031 0.60671 0.41382 0.0
C1582 C 0.06035 0.63592 0.32128 0.0
C1583 C 0.04411 0.63928 0.32182 0.0
C1584 C 0.0641 0.62638 0.34187 0.0
C1585 C 0.05181 0.61989 0.36386 0.0
C1586 C 0.0354 0.62308 0.36424 0.0
C1587 C 0.03162 0.63261 0.34355 0.0
H1588 H 0.48124 0.52725 0.47453 0.0
H1589 H 0.53321 0.54192 0.42929 0.0
H1590 H 0.4601 0.51139 0.4362 0.0
H1591 H 0.51235 0.52638 0.39121 0.0
H1592 H 0.46991 0.46596 0.35299 0.0
H1593 H 0.48952 0.48874 0.38767 0.0
H1594 H 0.45141 0.51452 0.38664 0.0
H1595 H 0.43173 0.49168 0.35126 0.0
C1596 C 0.48817 0.52799 0.45609 0.0
C1597 C 0.50883 0.53594 0.45472 0.0
C1598 C 0.47609 0.51878 0.43423 0.0
C1599 C 0.48458 0.51732 0.41086 0.0
C1600 C 0.50537 0.52701 0.40904 0.0
C1601 C 0.51733 0.53612 0.43074 0.0
C1602 C 0.46566 0.47646 0.36008 0.0
C1603 C 0.44929 0.47703 0.34932 0.0
C1604 C 0.47699 0.48963 0.37985 0.0
C1605 C 0.47215 0.5036 0.38968 0.0
C1606 C 0.45552 0.50396 0.37937 0.0
C1607 C 0.44431 0.49093 0.35914 0.0
H1608 H 0.74541 0.86646 0.27956 0.0
H1609 H 0.68833 0.86042 0.26131 0.0
H1610 H 0.74336 0.84771 0.24059 0.0
H1611 H 0.68635 0.84179 0.22199 0.0
H1612 H 0.67958 0.79019 0.1688 0.0
H1613 H 0.68155 0.81026 0.20659 0.0
H1614 H 0.74449 0.84778 0.1944 0.0
H1615 H 0.74249 0.82758 0.15693 0.0
C1616 C 0.73249 0.86138 0.26709 0.0
C1617 C 0.7171 0.86519 0.27383 0.0
C1618 C 0.73132 0.85058 0.24451 0.0
C1619 C 0.71465 0.84301 0.22777 0.0
C1620 C 0.69935 0.84705 0.23434 0.0
C1621 C 0.70058 0.85798 0.25689 0.0
C1622 C 0.69384 0.80276 0.17412 0.0
C1623 C 0.71087 0.80713 0.15963 0.0
C1624 C 0.69497 0.81442 0.19583 0.0
C1625 C 0.71321 0.83082 0.20395 0.0
C1626 C 0.73019 0.83521 0.18925 0.0
C1627 C 0.72903 0.82363 0.16751 0.0
H1628 H 0.27554 0.92327 0.32944 0.0
H1629 H 0.22515 0.89423 0.27773 0.0
H1630 H 0.29736 0.93888 0.29204 0.0
H1631 H 0.24668 0.90925 0.24065 0.0
H1632 H 0.28159 0.96317 0.18957 0.0
H1633 H 0.26289 0.94374 0.22657 0.0
H1634 H 0.31199 0.93557 0.24938 0.0
H1635 H 0.33095 0.95533 0.21192 0.0
C1636 C 0.26929 0.91957 0.31005 0.0
C1637 C 0.24868 0.90745 0.30644 0.0
C1638 C 0.28173 0.92861 0.28863 0.0
C1639 C 0.27371 0.92568 0.26332 0.0
C1640 C 0.25333 0.91225 0.25983 0.0
C1641 C 0.241 0.90341 0.28107 0.0
C1642 C 0.28846 0.95724 0.20237 0.0
C1643 C 0.30776 0.96077 0.19765 0.0
C1644 C 0.27766 0.94593 0.22357 0.0
C1645 C 0.28579 0.93782 0.24088 0.0
C1646 C 0.30525 0.94158 0.23646 0.0
C1647 C 0.31608 0.95282 0.21496 0.0
H1648 H 0.17808 0.4558 0.28362 0.0
H1649 H 0.18171 0.40385 0.26271 0.0
H1650 H 0.15256 0.44749 0.25038 0.0
H1651 H 0.15668 0.39574 0.22904 0.0
H1652 H 0.09718 0.37462 0.18954 0.0
H1653 H 0.12234 0.38358 0.22333 0.0
H1654 H 0.14618 0.44569 0.20523 0.0
H1655 H 0.12047 0.43666 0.17216 0.0
C1656 C 0.17363 0.44277 0.27164 0.0
C1657 C 0.18183 0.43043 0.27588 0.0
C1658 C 0.159 0.43798 0.25254 0.0
C1659 C 0.15236 0.42082 0.23704 0.0
C1660 C 0.16099 0.40879 0.24096 0.0
C1661 C 0.17543 0.41347 0.26019 0.0
C1662 C 0.10774 0.39019 0.1929 0.0
C1663 C 0.10683 0.40493 0.1782 0.0
C1664 C 0.1223 0.39535 0.21215 0.0
C1665 C 0.13648 0.41539 0.21699 0.0
C1666 C 0.13541 0.43013 0.20236 0.0
C1667 C 0.12072 0.42496 0.18328 0.0
H1668 H 0.1951 0.40304 1.00169 0.0
H1669 H 0.14772 0.36875 0.94694 0.0
H1670 H 0.17089 0.40144 0.03268 0.0
H1671 H 0.1235 0.36685 0.97835 0.0
H1672 H 0.08561 0.35427 0.0535 0.0
H1673 H 0.10908 0.3532 0.02273 0.0
H1674 H 0.14864 0.41604 0.03444 0.0
H1675 H 0.12539 0.41712 0.0649 0.0
C1676 C 0.17958 0.39518 0.99614 0.0
C1677 C 0.17353 0.38625 0.97153 0.0
C1678 C 0.16567 0.39422 0.01402 0.0
C1679 C 0.14529 0.38416 1.0079 0.0
C1680 C 0.13909 0.3746 0.98371 0.0
C1681 C 0.15304 0.37569 0.96568 0.0
C1682 C 0.09932 0.36782 0.04943 0.0
C1683 C 0.10366 0.38577 0.06164 0.0
C1684 C 0.11271 0.36723 0.03178 0.0
C1685 C 0.13078 0.38451 0.0263 0.0
C1686 C 0.135 0.40241 0.03852 0.0
C1687 C 0.12159 0.40304 0.05586 0.0
H1688 H 0.70097 0.87392 0.94368 0.0
H1689 H 0.70605 0.83229 0.89328 0.0
H1690 H 0.70038 0.85474 0.98131 0.0
H1691 H 0.70546 0.81292 0.93122 0.0
H1692 H 0.72931 0.79912 1.00775 0.0
H1693 H 0.72689 0.81571 0.96867 0.0
H1694 H 0.68142 0.82385 1.00482 0.0
H1695 H 0.68387 0.80729 0.04379 0.0
C1696 C 0.7016 0.86043 0.94053 0.0
C1697 C 0.70341 0.85467 0.91522 0.0
C1698 C 0.70124 0.84936 0.96226 0.0
C1699 C 0.70296 0.8322 0.95961 0.0
C1700 C 0.7043 0.82612 0.93421 0.0
C1701 C 0.70437 0.83711 0.91234 0.0
C1702 C 0.71879 0.80445 1.00739 0.0
C1703 C 0.70688 0.8019 0.02915 0.0
C1704 C 0.71727 0.81385 0.9848 0.0
C1705 C 0.70394 0.82123 0.98331 0.0
C1706 C 0.69202 0.81862 1.00513 0.0
C1707 C 0.69338 0.80903 0.02757 0.0
H1708 H 0.2237 0.92888 0.96905 0.0
H1709 H 0.24047 0.88382 0.97396 0.0
H1710 H 0.24819 0.94846 1.00221 0.0
H1711 H 0.26441 0.90271 1.00852 0.0
H1712 H 0.31612 0.94816 0.05849 0.0
H1713 H 0.29407 0.92982 0.02237 0.0
H1714 H 0.25377 0.9502 0.04599 0.0
H1715 H 0.27645 0.96937 0.08096 0.0
C1716 C 0.23274 0.92322 0.97738 0.0
C1717 C 0.23025 0.90489 0.96905 0.0
C1718 C 0.24665 0.9343 0.99668 0.0
C1719 C 0.25821 0.92715 1.00872 0.0
C1720 C 0.25603 0.90894 0.99974 0.0
C1721 C 0.2423 0.89802 0.97996 0.0
C1722 C 0.30254 0.94871 0.05586 0.0
C1723 C 0.29808 0.96029 0.07254 0.0
C1724 C 0.28977 0.93807 0.03518 0.0
C1725 C 0.272 0.93846 0.03085 0.0
C1726 C 0.26748 0.94983 0.04799 0.0
C1727 C 0.28042 0.96073 0.06833 0.0
H1728 H 0.70215 0.92924 0.39131 0.0
H1729 H 0.72846 0.90237 0.43832 0.0
H1730 H 0.70084 0.94756 0.42942 0.0
H1731 H 0.72734 0.92069 0.47616 0.0
H1732 H 0.73634 0.96855 0.53637 0.0
H1733 H 0.74054 0.95374 0.49662 0.0
H1734 H 0.68201 0.93986 0.47087 0.0
H1735 H 0.67778 0.95452 0.5107 0.0
C1736 C 0.70812 0.92759 0.40957 0.0
C1737 C 0.71558 0.91437 0.41151 0.0
C1738 C 0.70713 0.93792 0.43159 0.0
C1739 C 0.71387 0.93563 0.45616 0.0
C1740 C 0.72212 0.92307 0.45772 0.0
C1741 C 0.72278 0.91251 0.43589 0.0
C1742 C 0.72436 0.96237 0.52224 0.0
C1743 C 0.70668 0.96273 0.52697 0.0
C1744 C 0.72675 0.95378 0.49938 0.0
C1745 C 0.71165 0.94554 0.48024 0.0
C1746 C 0.69409 0.94621 0.48485 0.0
C1747 C 0.6916 0.95452 0.50788 0.0
H1748 H 0.16944 0.87488 0.4535 0.0
H1749 H 0.20038 0.84295 0.43595 0.0
H1750 H 0.15237 0.85236 0.48869 0.0
H1751 H 0.18288 0.81994 0.47176 0.0
H1752 H 0.15778 0.79451 0.55562 0.0
H1753 H 0.17784 0.81674 0.52059 0.0
H1754 H 0.12613 0.81797 0.49172 0.0
H1755 H 0.10635 0.79615 0.52654 0.0
C1756 C 0.17271 0.86305 0.45717 0.0
C1757 C 0.18623 0.8607 0.44156 0.0
C1758 C 0.16275 0.84999 0.4774 0.0
C1759 C 0.16587 0.83402 0.48287 0.0
C1760 C 0.18007 0.83206 0.46808 0.0
C1761 C 0.19012 0.84525 0.44757 0.0
C1762 C 0.15073 0.79951 0.54171 0.0
C1763 C 0.13046 0.79366 0.54408 0.0
C1764 C 0.16221 0.81217 0.52154 0.0
C1765 C 0.15371 0.81938 0.5034 0.0
C1766 C 0.13333 0.81308 0.50555 0.0
C1767 C 0.12192 0.80045 0.52552 0.0
H1768 H 0.22691 0.39557 0.44726 0.0
H1769 H 0.27289 0.45684 0.45569 0.0
H1770 H 0.23918 0.387 0.4858 0.0
H1771 H 0.28543 0.44827 0.49421 0.0
H1772 H 0.29194 0.42925 0.57558 0.0
H1773 H 0.27803 0.43775 0.53851 0.0
H1774 H 0.26683 0.38364 0.49983 0.0
H1775 H 0.28024 0.37492 0.53724 0.0
C1776 C 0.23976 0.4072 0.45724 0.0
C1777 C 0.24902 0.42688 0.44826 0.0
C1778 C 0.24682 0.40228 0.47936 0.0
C1779 C 0.2634 0.41689 0.49307 0.0
C1780 C 0.27248 0.43666 0.48434 0.0
C1781 C 0.26532 0.4416 0.46224 0.0
C1782 C 0.28639 0.41912 0.55921 0.0
C1783 C 0.28716 0.4014 0.55934 0.0
C1784 C 0.27855 0.42407 0.53786 0.0
C1785 C 0.27135 0.41144 0.51609 0.0
C1786 C 0.27198 0.39361 0.51638 0.0
C1787 C 0.27975 0.38863 0.53778 0.0
H1788 H 0.24446 0.42591 0.78877 0.0
H1789 H 0.27166 0.39586 0.82683 0.0
H1790 H 0.25846 0.42351 0.74741 0.0
H1791 H 0.28581 0.39357 0.78553 0.0
H1792 H 0.32266 0.41162 0.70999 0.0
H1793 H 0.31076 0.41698 0.75133 0.0
H1794 H 0.25188 0.39319 0.71859 0.0
H1795 H 0.2637 0.38756 0.67727 0.0
C1796 C 0.25378 0.41918 0.78835 0.0
C1797 C 0.25708 0.41113 0.81095 0.0
C1798 C 0.26159 0.41761 0.76469 0.0
C1799 C 0.27312 0.40828 0.76331 0.0
C1800 C 0.27705 0.40092 0.7861 0.0
C1801 C 0.26895 0.40218 0.80965 0.0
C1802 C 0.30719 0.40757 0.71161 0.0
C1803 C 0.29408 0.39915 0.69046 0.0
C1804 C 0.30039 0.41059 0.73526 0.0
C1805 C 0.28045 0.40555 0.73807 0.0
C1806 C 0.26739 0.39737 0.71683 0.0
C1807 C 0.27411 0.39404 0.69328 0.0
H1808 H 0.71077 0.89209 0.75848 0.0
H1809 H 0.6791 0.91713 0.79725 0.0
H1810 H 0.70982 0.90824 0.71815 0.0
H1811 H 0.67797 0.93301 0.75714 0.0
H1812 H 0.69959 0.97786 0.69061 0.0
H1813 H 0.69913 0.95995 0.72959 0.0
H1814 H 0.6897 0.90982 0.68269 0.0
H1815 H 0.69033 0.92798 0.64349 0.0
C1816 C 0.70337 0.9008 0.75842 0.0
C1817 C 0.69503 0.90319 0.78143 0.0
C1818 C 0.70279 0.91009 0.73515 0.0
C1819 C 0.69397 0.92223 0.7341 0.0
C1820 C 0.68525 0.92418 0.757 0.0
C1821 C 0.68574 0.91485 0.78014 0.0
C1822 C 0.69734 0.96299 0.68851 0.0
C1823 C 0.69493 0.95445 0.6637 0.0
C1824 C 0.69696 0.95259 0.71103 0.0
C1825 C 0.69428 0.93323 0.70966 0.0
C1826 C 0.69197 0.9247 0.68477 0.0
C1827 C 0.69219 0.93509 0.66218 0.0
H1828 H 0.17856 0.80578 0.79953 0.0
H1829 H 0.14427 0.83566 0.80175 0.0
H1830 H 0.16513 0.79266 0.75654 0.0
H1831 H 0.13039 0.82222 0.75909 0.0
H1832 H 0.12344 0.75702 0.68996 0.0
H1833 H 0.13683 0.76994 0.73294 0.0
H1834 H 0.1377 0.82469 0.71454 0.0
H1835 H 0.12356 0.81134 0.67183 0.0
C1836 C 0.16793 0.80933 0.79098 0.0
C1837 C 0.16258 0.82186 0.80408 0.0
C1838 C 0.16016 0.80178 0.76626 0.0
C1839 C 0.14665 0.80638 0.75402 0.0
C1840 C 0.14106 0.81865 0.76744 0.0
C1841 C 0.14897 0.82632 0.79203 0.0
C1842 C 0.12653 0.77184 0.69507 0.0
C1843 C 0.12241 0.78314 0.67742 0.0
C1844 C 0.13435 0.77934 0.71975 0.0
C1845 C 0.13843 0.79844 0.72748 0.0
C1846 C 0.13447 0.80981 0.70962 0.0
C1847 C 0.1265 0.80222 0.68498 0.0
H1848 H 0.37897 0.18041 0.65483 0.0
H1849 H 0.38703 0.22666 0.60176 0.0
H1850 H 0.38326 0.16205 0.61903 0.0
H1851 H 0.39151 0.20849 0.56617 0.0
H1852 H 0.41434 0.17738 0.51094 0.0
H1853 H 0.41363 0.19654 0.54836 0.0
H1854 H 0.36388 0.14372 0.57921 0.0
H1855 H 0.36446 0.12467 0.54169 0.0
C1856 C 0.38209 0.1869 0.63568 0.0
C1857 C 0.38274 0.20514 0.63135 0.0
C1858 C 0.38433 0.17624 0.61503 0.0
C1859 C 0.38765 0.18366 0.5895 0.0
C1860 C 0.38913 0.2023 0.58546 0.0
C1861 C 0.38654 0.21276 0.60596 0.0
C1862 C 0.40328 0.16983 0.52573 0.0
C1863 C 0.38942 0.14944 0.52313 0.0
C1864 C 0.40283 0.18085 0.54721 0.0
C1865 C 0.38871 0.17175 0.56701 0.0
C1866 C 0.37511 0.15126 0.56461 0.0
C1867 C 0.37536 0.14033 0.54293 0.0
H1868 H 0.95488 0.22349 0.61649 0.0
H1869 H 0.9012 0.22387 0.59489 0.0
H1870 H 0.97291 0.24782 0.58259 0.0
H1871 H 0.91915 0.24815 0.56145 0.0
H1872 H 0.9616 0.30893 0.52866 0.0
H1873 H 0.94495 0.2835 0.56141 0.0
H1874 H 0.97517 0.25291 0.53424 0.0
H1875 H 0.99203 0.27859 0.50136 0.0
C1876 C 0.94686 0.22854 0.60435 0.0
C1877 C 0.92663 0.22192 0.60871 0.0
C1878 C 0.9572 0.2425 0.58496 0.0
C1879 C 0.94753 0.25016 0.56961 0.0
C1880 C 0.92716 0.24293 0.57335 0.0
C1881 C 0.91686 0.22899 0.59257 0.0
C1882 C 0.96478 0.29684 0.5297 0.0
C1883 C 0.97808 0.29574 0.51235 0.0
C1884 C 0.95514 0.28218 0.54838 0.0
C1885 C 0.95858 0.26606 0.55027 0.0
C1886 C 0.97226 0.26518 0.53334 0.0
C1887 C 0.98185 0.27984 0.51447 0.0
H1888 H 0.86162 0.72622 0.59058 0.0
H1889 H 0.86294 0.78107 0.60987 0.0
H1890 H 0.84083 0.72201 0.55309 0.0
H1891 H 0.84271 0.77726 0.57151 0.0
H1892 H 0.78595 0.74944 0.51971 0.0
H1893 H 0.80886 0.75646 0.55603 0.0
H1894 H 0.84125 0.73512 0.51089 0.0
H1895 H 0.81805 0.72768 0.47488 0.0
C1896 C 0.85753 0.73744 0.58683 0.0
C1897 C 0.86386 0.75391 0.60348 0.0
C1898 C 0.84579 0.73515 0.56504 0.0
C1899 C 0.84008 0.7493 0.55919 0.0
C1900 C 0.84666 0.76597 0.57557 0.0
C1901 C 0.85845 0.76826 0.59743 0.0
C1902 C 0.79805 0.74637 0.51752 0.0
C1903 C 0.80012 0.73789 0.4945 0.0
C1904 C 0.81126 0.75051 0.53828 0.0
C1905 C 0.82687 0.74626 0.53648 0.0
C1906 C 0.82921 0.73827 0.51314 0.0
C1907 C 0.81598 0.73411 0.49242 0.0
H1908 H 0.78856 0.66282 0.24906 0.0
H1909 H 0.84553 0.71497 0.26396 0.0
H1910 H 0.77557 0.66957 0.28847 0.0
H1911 H 0.83254 0.72175 0.30301 0.0
H1912 H 0.79607 0.73971 0.35463 0.0
H1913 H 0.80864 0.73236 0.31526 0.0
H1914 H 0.77951 0.67032 0.336 0.0
H1915 H 0.76681 0.67764 0.37514 0.0
C1916 C 0.79836 0.67561 0.26079 0.0
C1917 C 0.81805 0.68843 0.25313 0.0
C1918 C 0.79092 0.6795 0.28337 0.0
C1919 C 0.80298 0.69631 0.29875 0.0
C1920 C 0.82273 0.70892 0.29131 0.0
C1921 C 0.83017 0.70501 0.26886 0.0
C1922 C 0.79237 0.72452 0.35075 0.0
C1923 C 0.7805 0.70927 0.36799 0.0
C1924 C 0.79963 0.72031 0.32828 0.0
C1925 C 0.79508 0.70075 0.3225 0.0
C1926 C 0.78311 0.6855 0.33972 0.0
C1927 C 0.77594 0.68973 0.36223 0.0
H1928 H 0.37504 0.16904 0.25411 0.0
H1929 H 0.38822 0.22074 0.29971 0.0
H1930 H 0.37393 0.15108 0.29377 0.0
H1931 H 0.38686 0.20285 0.3394 0.0
H1932 H 0.36918 0.15896 0.40818 0.0
H1933 H 0.36579 0.17476 0.3689 0.0
H1934 H 0.39917 0.15346 0.32622 0.0
H1935 H 0.40274 0.13787 0.36556 0.0
C1936 C 0.37687 0.17629 0.2727 0.0
C1937 C 0.38105 0.19613 0.27377 0.0
C1938 C 0.37661 0.16613 0.29546 0.0
C1939 C 0.38041 0.17547 0.32 0.0
C1940 C 0.38366 0.19502 0.32105 0.0
C1941 C 0.38426 0.20526 0.29827 0.0
C1942 C 0.37586 0.15769 0.39045 0.0
C1943 C 0.38634 0.14717 0.39022 0.0
C1944 C 0.37392 0.16679 0.36785 0.0
C1945 C 0.38208 0.16538 0.34414 0.0
C1946 C 0.39243 0.15471 0.34391 0.0
C1947 C 0.39465 0.14588 0.3666 0.0
H1948 H 0.89846 0.24003 0.28949 0.0
H1949 H 0.87787 0.28131 0.30588 0.0
H1950 H 0.92352 0.25527 0.32396 0.0
H1951 H 0.90292 0.29676 0.33962 0.0
H1952 H 0.93529 0.30763 0.41566 0.0
H1953 H 0.9104 0.29054 0.38192 0.0
H1954 H 0.95376 0.28486 0.33603 0.0
H1955 H 0.97849 0.30137 0.37037 0.0
C1956 C 0.8994 0.25243 0.30035 0.0
C1957 C 0.88602 0.25927 0.29525 0.0
C1958 C 0.91375 0.2612 0.32004 0.0
C1959 C 0.91512 0.27712 0.33483 0.0
C1960 C 0.90198 0.28419 0.3292 0.0
C1961 C 0.8876 0.27534 0.30977 0.0
C1962 C 0.93947 0.30266 0.39841 0.0
C1963 C 0.95884 0.30591 0.3956 0.0
C1964 C 0.92524 0.29296 0.37896 0.0
C1965 C 0.93009 0.28646 0.35607 0.0
C1966 C 0.94943 0.28946 0.35348 0.0
C1967 C 0.96364 0.29903 0.37308 0.0
H1968 H 0.36166 0.22991 0.78326 0.0
H1969 H 0.39913 0.28778 0.75039 0.0
H1970 H 0.36161 0.24541 0.82446 0.0
H1971 H 0.39965 0.30328 0.79168 0.0
H1972 H 0.37971 0.32707 0.85936 0.0
H1973 H 0.38072 0.31125 0.81902 0.0
H1974 H 0.37865 0.26269 0.86235 0.0
H1975 H 0.37701 0.27838 0.90273 0.0
C1976 C 0.37015 0.24595 0.78486 0.0
C1977 C 0.38037 0.25749 0.76322 0.0
C1978 C 0.37019 0.25492 0.80869 0.0
C1979 C 0.3805 0.27578 0.81179 0.0
C1980 C 0.39113 0.28725 0.79024 0.0
C1981 C 0.391 0.27829 0.76644 0.0
C1982 C 0.37951 0.31303 0.86033 0.0
C1983 C 0.37829 0.30408 0.88447 0.0
C1984 C 0.38023 0.30393 0.83705 0.0
C1985 C 0.37987 0.28555 0.83699 0.0
C1986 C 0.37871 0.27664 0.86125 0.0
C1987 C 0.3779 0.28574 0.88457 0.0
H1988 H 0.83572 0.1784 0.77222 0.0
H1989 H 0.86545 0.14629 0.7955 0.0
H1990 H 0.81426 0.16575 0.80979 0.0
H1991 H 0.84399 0.13369 0.83314 0.0
H1992 H 0.81531 0.12983 0.91115 0.0
H1993 H 0.83728 0.14435 0.87424 0.0
H1994 H 0.78723 0.13502 0.82686 0.0
H1995 H 0.76529 0.12078 0.864 0.0
C1996 C 0.83762 0.16852 0.78518 0.0
C1997 C 0.85236 0.16335 0.78064 0.0
C1998 C 0.82527 0.16127 0.8068 0.0
C1999 C 0.82735 0.14868 0.82455 0.0
C2000 C 0.84216 0.1436 0.82012 0.0
C2001 C 0.85449 0.15083 0.79847 0.0
C2002 C 0.80902 0.13103 0.89292 0.0
C2003 C 0.78854 0.12413 0.89051 0.0
C2004 C 0.8216 0.13922 0.87167 0.0
C2005 C 0.81404 0.14074 0.84747 0.0
C2006 C 0.79361 0.13426 0.84524 0.0
C2007 C 0.78101 0.12603 0.86651 0.0
H2008 H 0.90978 0.70834 0.7701 0.0
H2009 H 0.94333 0.77118 0.78675 0.0
H2010 H 0.92712 0.70199 0.805 0.0
H2011 H 0.96099 0.76495 0.82144 0.0
H2012 H 0.97513 0.7454 0.89785 0.0
H2013 H 0.9569 0.75115 0.86361 0.0
H2014 H 0.95874 0.70592 0.81661 0.0
H2015 H 0.97648 0.69976 0.85137 0.0
C2016 C 0.92099 0.72083 0.78109 0.0
C2017 C 0.9252 0.74029 0.77558 0.0
C2018 C 0.93099 0.7172 0.80109 0.0
C2019 C 0.94555 0.73294 0.81606 0.0
C2020 C 0.94967 0.75241 0.81063 0.0
C2021 C 0.93956 0.75602 0.79071 0.0
C2022 C 0.9716 0.73665 0.88022 0.0
C2023 C 0.97725 0.72212 0.8773 0.0
C2024 C 0.96125 0.74004 0.86048 0.0
C2025 C 0.95638 0.72909 0.83722 0.0
C2026 C 0.96199 0.71448 0.83437 0.0
C2027 C 0.97226 0.711 0.85422 0.0
H2028 H 0.91958 0.70537 0.11539 0.0
H2029 H 0.87397 0.67606 0.05695 0.0
H2030 H 0.94489 0.71051 0.08382 0.0
H2031 H 0.89927 0.68142 0.02519 0.0
H2032 H 0.94722 0.67657 0.9812 0.0
H2033 H 0.92241 0.67103 0.01365 0.0
H2034 H 0.96125 0.72933 0.04598 0.0
H2035 H 0.98639 0.73461 0.01379 0.0
C2036 C 0.91496 0.70017 0.09573 0.0
C2037 C 0.89472 0.69034 0.08869 0.0
C2038 C 0.9295 0.70316 0.07758 0.0
C2039 C 0.9242 0.69646 0.05186 0.0
C2040 C 0.90392 0.68652 0.04489 0.0
C2041 C 0.88937 0.68344 0.06309 0.0
C2042 C 0.9505 0.68821 0.99527 0.0
C2043 C 0.96877 0.70606 0.99491 0.0
C2044 C 0.93619 0.68508 0.0138 0.0
C2045 C 0.9397 0.69976 0.03242 0.0
C2046 C 0.95809 0.71759 0.03216 0.0
C2047 C 0.97248 0.72068 0.01363 0.0
H2048 H 0.35833 0.26715 0.15759 0.0
H2049 H 0.37966 0.23231 0.11837 0.0
H2050 H 0.35789 0.28257 0.11681 0.0
H2051 H 0.37898 0.24766 0.07713 0.0
H2052 H 0.39732 0.29677 0.01404 0.0
H2053 H 0.39591 0.27873 0.05359 0.0
H2054 H 0.34217 0.27837 0.07566 0.0
H2055 H 0.34379 0.29659 0.03638 0.0
C2056 C 0.36266 0.26249 0.14018 0.0
C2057 C 0.36894 0.2483 0.14155 0.0
C2058 C 0.36234 0.27137 0.11657 0.0
C2059 C 0.36843 0.26655 0.09329 0.0
C2060 C 0.37438 0.25205 0.09453 0.0
C2061 C 0.37455 0.24301 0.11823 0.0
C2062 C 0.38517 0.2928 0.0273 0.0
C2063 C 0.37072 0.2983 0.02188 0.0
C2064 C 0.38426 0.28228 0.05002 0.0
C2065 C 0.36894 0.27698 0.06822 0.0
C2066 C 0.3544 0.28234 0.06255 0.0
C2067 C 0.35526 0.29276 0.03981 0.0
H2068 H 0.8023 0.18376 0.1358 0.0
H2069 H 0.83433 0.15168 0.14174 0.0
H2070 H 0.78624 0.16578 0.09611 0.0
H2071 H 0.81837 0.13367 0.10167 0.0
H2072 H 0.7725 0.09329 0.04043 0.0
H2073 H 0.787 0.10943 0.08187 0.0
H2074 H 0.79535 0.16498 0.05177 0.0
H2075 H 0.78049 0.14873 0.01061 0.0
C2076 C 0.80597 0.1729 0.12852 0.0
C2077 C 0.81979 0.16932 0.14169 0.0
C2078 C 0.79679 0.16261 0.10573 0.0
C2079 C 0.80121 0.14847 0.09544 0.0
C2080 C 0.81452 0.14437 0.10912 0.0
C2081 C 0.82368 0.15466 0.13206 0.0
C2082 C 0.77741 0.10894 0.04271 0.0
C2083 C 0.7753 0.11974 0.02228 0.0
C2084 C 0.78582 0.11822 0.06642 0.0
C2085 C 0.7923 0.13849 0.07023 0.0
C2086 C 0.79023 0.14926 0.04969 0.0
C2087 C 0.78182 0.13999 0.02602 0.0
loop_
_geom_bond_atom_site_label_1
_geom_bond_atom_site_label_2
_geom_bond_distance
_geom_bond_site_symmetry_2
_ccdc_geom_bond_type
Cu0 N1 1.999 . S
Cu0 O6 1.974 1_554 S
Cu0 N11 1.985 1_554 S
Cu0 O20 1.959 . S
N1 Cu0 1.999 . S
N1 C3 1.263 . S
N1 C5 1.389 . S
N2 C3 1.358 . S
N2 C4 1.400 . S
C3 N1 1.263 . S
C3 N2 1.358 . S
C3 H9 0.930 1_455 S
C4 N2 1.400 . S
C4 C5 1.351 . S
C4 H21 0.930 . S
C5 N1 1.389 . S
C5 C4 1.351 . S
C5 H10 0.930 . S
O6 Cu0 1.974 1_556 S
O6 C16 1.282 1_455 S
C7 O8 1.261 1_455 S
C7 O20 1.251 . S
O8 C7 1.261 1_655 S
H9 C3 0.930 1_655 S
H10 C5 0.930 . S
N11 Cu0 1.985 1_556 S
N11 C13 1.335 . S
N11 C14 1.390 1_455 S
N12 C13 1.345 . S
N12 C15 1.336 1_455 S
C13 N11 1.335 . S
C13 N12 1.345 . S
C13 H18 0.930 . S
C14 N11 1.390 1_655 S
C14 C15 1.346 . S
C14 H19 0.930 . S
C15 N12 1.336 1_655 S
C15 C14 1.346 . S
C15 H22 0.929 . S
C16 O6 1.282 1_655 S
C16 O17 1.216 . S
O17 C16 1.216 . S
H18 C13 0.930 . S
H19 C14 0.930 . S
O20 Cu0 1.959 . S
O20 C7 1.251 . S
H21 C4 0.930 . S
H22 C15 0.929 . S
Cu23 N24 1.999 1_554 S
Cu23 O29 1.974 . S
Cu23 N34 1.985 . S
Cu23 O43 1.959 1_554 S
N24 Cu23 1.999 1_556 S
N24 C26 1.263 . S
N24 C28 1.389 . S
N25 C26 1.358 . S
N25 C27 1.400 . S
C26 N24 1.263 . S
C26 N25 1.358 . S
C26 H32 0.930 . S
C27 N25 1.400 . S
C27 C28 1.351 . S
C27 H44 0.930 . S
C28 N24 1.389 . S
C28 C27 1.351 . S
C28 H33 0.930 . S
O29 Cu23 1.974 . S
O29 C39 1.282 . S
C30 O31 1.261 1_556 S
C30 O43 1.251 . S
O31 C30 1.261 1_554 S
H32 C26 0.930 . S
H33 C28 0.930 . S
N34 Cu23 1.985 . S
N34 C36 1.335 . S
N34 C37 1.390 . S
N35 C36 1.345 . S
N35 C38 1.336 . S
C36 N34 1.335 . S
C36 N35 1.345 . S
C36 H41 0.930 . S
C37 N34 1.390 . S
C37 C38 1.346 . S
C37 H42 0.930 . S
C38 N35 1.336 . S
C38 C37 1.346 . S
C38 H45 0.929 . S
C39 O29 1.282 . S
C39 O40 1.216 . S
O40 C39 1.216 . S
H41 C36 0.930 . S
H42 C37 0.930 . S
O43 Cu23 1.959 1_556 S
O43 C30 1.251 . S
H44 C27 0.930 . S
H45 C38 0.929 . S
Cu46 N47 1.999 1_554 S
Cu46 O52 1.974 . S
Cu46 N57 1.985 . S
Cu46 O66 1.959 . S
N47 Cu46 1.999 1_556 S
N47 C49 1.263 . S
N47 C51 1.389 . S
N48 C49 1.358 . S
N48 C50 1.400 . S
C49 N47 1.263 . S
C49 N48 1.358 . S
C49 H55 0.930 . S
C50 N48 1.400 . S
C50 C51 1.351 . S
C50 H67 0.930 . S
C51 N47 1.389 . S
C51 C50 1.351 . S
C51 H56 0.930 . S
O52 Cu46 1.974 . S
O52 C62 1.282 . S
C53 O54 1.260 1_556 S
C53 O66 1.250 1_556 S
O54 C53 1.260 1_554 S
H55 C49 0.930 . S
H56 C51 0.930 . S
N57 Cu46 1.985 . S
N57 C59 1.335 . S
N57 C60 1.390 . S
N58 C59 1.345 . S
N58 C61 1.336 . S
C59 N57 1.335 . S
C59 N58 1.345 . S
C59 H64 0.930 . S
C60 N57 1.390 . S
C60 C61 1.346 . S
C60 H65 0.930 . S
C61 N58 1.336 . S
C61 C60 1.346 . S
C61 H68 0.929 . S
C62 O52 1.282 . S
C62 O63 1.216 . S
O63 C62 1.216 . S
H64 C59 0.930 . S
H65 C60 0.930 . S
O66 Cu46 1.959 . S
O66 C53 1.250 1_554 S
H67 C50 0.930 . S
H68 C61 0.929 . S
Cu69 N70 1.999 . S
Cu69 O75 1.974 . S
Cu69 N80 1.985 . S
Cu69 O89 1.959 . S
N70 Cu69 1.999 . S
N70 C72 1.263 . S
N70 C74 1.389 . S
N71 C72 1.358 . S
N71 C73 1.400 . S
C72 N70 1.263 . S
C72 N71 1.358 . S
C72 H78 0.930 . S
C73 N71 1.400 . S
C73 C74 1.351 . S
C73 H90 0.930 . S
C74 N70 1.389 . S
C74 C73 1.351 . S
C74 H79 0.930 . S
O75 Cu69 1.974 . S
O75 C85 1.282 . S
C76 O77 1.261 . S
C76 O89 1.251 . S
O77 C76 1.261 . S
H78 C72 0.930 . S
H79 C74 0.930 . S
N80 Cu69 1.985 . S
N80 C82 1.335 . S
N80 C83 1.390 . S
N81 C82 1.345 . S
N81 C84 1.336 . S
C82 N80 1.335 . S
C82 N81 1.345 . S
C82 H87 0.930 . S
C83 N80 1.390 . S
C83 C84 1.346 . S
C83 H88 0.930 . S
C84 N81 1.336 . S
C84 C83 1.346 . S
C84 H91 0.929 . S
C85 O75 1.282 . S
C85 O86 1.216 1_545 S
O86 C85 1.216 1_565 S
H87 C82 0.930 . S
H88 C83 0.930 . S
O89 Cu69 1.959 . S
O89 C76 1.251 . S
H90 C73 0.930 . S
H91 C84 0.929 . S
Cu92 N93 1.999 . S
Cu92 O98 1.974 . S
Cu92 N103 1.985 . S
Cu92 O112 1.959 . S
N93 Cu92 1.999 . S
N93 C95 1.263 . S
N93 C97 1.389 . S
N94 C95 1.358 . S
N94 C96 1.400 . S
C95 N93 1.263 . S
C95 N94 1.358 . S
C95 H101 0.930 . S
C96 N94 1.400 . S
C96 C97 1.351 . S
C96 H113 0.930 . S
C97 N93 1.389 . S
C97 C96 1.351 . S
C97 H102 0.930 . S
O98 Cu92 1.974 . S
O98 C108 1.282 . S
C99 O100 1.261 . S
C99 O112 1.251 . S
O100 C99 1.261 . S
H101 C95 0.930 . S
H102 C97 0.930 . S
N103 Cu92 1.985 . S
N103 C105 1.335 . S
N103 C106 1.390 . S
N104 C105 1.345 . S
N104 C107 1.336 . S
C105 N103 1.335 . S
C105 N104 1.345 . S
C105 H110 0.930 . S
C106 N103 1.390 . S
C106 C107 1.346 . S
C106 H111 0.930 . S
C107 N104 1.336 . S
C107 C106 1.346 . S
C107 H114 0.929 . S
C108 O98 1.282 . S
C108 O109 1.216 . S
O109 C108 1.216 . S
H110 C105 0.930 . S
H111 C106 0.930 . S
O112 Cu92 1.959 . S
O112 C99 1.251 . S
H113 C96 0.930 . S
H114 C107 0.929 . S
Cu115 N116 1.999 . S
Cu115 O121 1.974 . S
Cu115 N126 1.985 . S
Cu115 O135 1.959 . S
N116 Cu115 1.999 . S
N116 C118 1.263 . S
N116 C120 1.389 . S
N117 C118 1.358 . S
N117 C119 1.400 . S
C118 N116 1.263 . S
C118 N117 1.358 . S
C118 H124 0.930 . S
C119 N117 1.400 . S
C119 C120 1.351 . S
C119 H136 0.930 . S
C120 N116 1.389 . S
C120 C119 1.351 . S
C120 H125 0.930 . S
O121 Cu115 1.974 . S
O121 C131 1.282 . S
C122 O123 1.261 . S
C122 O135 1.251 . S
O123 C122 1.261 . S
H124 C118 0.930 . S
H125 C120 0.930 . S
N126 Cu115 1.985 . S
N126 C128 1.335 . S
N126 C129 1.390 . S
N127 C128 1.345 . S
N127 C130 1.336 . S
C128 N126 1.335 . S
C128 N127 1.345 . S
C128 H133 0.930 . S
C129 N126 1.390 . S
C129 C130 1.346 . S
C129 H134 0.930 . S
C130 N127 1.336 . S
C130 C129 1.346 . S
C130 H137 0.929 . S
C131 O121 1.282 . S
C131 O132 1.216 . S
O132 C131 1.216 . S
H133 C128 0.930 . S
H134 C129 0.930 . S
O135 Cu115 1.959 . S
O135 C122 1.251 . S
H136 C119 0.930 . S
H137 C130 0.929 . S
Cu138 N139 1.999 . S
Cu138 O144 1.974 . S
Cu138 N149 1.985 . S
Cu138 O158 1.959 . S
N139 Cu138 1.999 . S
N139 C141 1.263 . S
N139 C143 1.389 . S
N140 C141 1.358 . S
N140 C142 1.400 . S
C141 N139 1.263 . S
C141 N140 1.358 . S
C141 H147 0.930 . S
C142 N140 1.400 . S
C142 C143 1.351 . S
C142 H159 0.930 . S
C143 N139 1.389 . S
C143 C142 1.351 . S
C143 H148 0.930 . S
O144 Cu138 1.974 . S
O144 C154 1.282 . S
C145 O146 1.261 . S
C145 O158 1.251 . S
O146 C145 1.261 . S
H147 C141 0.930 . S
H148 C143 0.930 . S
N149 Cu138 1.985 . S
N149 C151 1.335 . S
N149 C152 1.390 . S
N150 C151 1.345 . S
N150 C153 1.336 . S
C151 N149 1.335 . S
C151 N150 1.345 . S
C151 H156 0.930 . S
C152 N149 1.390 . S
C152 C153 1.346 . S
C152 H157 0.930 . S
C153 N150 1.336 . S
C153 C152 1.346 . S
C153 H160 0.929 . S
C154 O144 1.282 . S
C154 O155 1.216 . S
O155 C154 1.216 . S
H156 C151 0.930 . S
H157 C152 0.930 . S
O158 Cu138 1.959 . S
O158 C145 1.251 . S
H159 C142 0.930 . S
H160 C153 0.929 . S
Cu161 N162 1.999 . S
Cu161 O167 1.974 . S
Cu161 N172 1.985 . S
Cu161 O181 1.959 . S
N162 Cu161 1.999 . S
N162 C164 1.263 . S
N162 C166 1.389 . S
N163 C164 1.358 . S
N163 C165 1.400 . S
C164 N162 1.263 . S
C164 N163 1.358 . S
C164 H170 0.930 . S
C165 N163 1.400 . S
C165 C166 1.351 . S
C165 H182 0.930 . S
C166 N162 1.389 . S
C166 C165 1.351 . S
C166 H171 0.930 . S
O167 Cu161 1.974 . S
O167 C177 1.282 . S
C168 O169 1.261 . S
C168 O181 1.251 . S
O169 C168 1.261 . S
H170 C164 0.930 . S
H171 C166 0.930 . S
N172 Cu161 1.985 . S
N172 C174 1.335 . S
N172 C175 1.390 . S
N173 C174 1.345 . S
N173 C176 1.336 . S
C174 N172 1.335 . S
C174 N173 1.345 . S
C174 H179 0.930 . S
C175 N172 1.390 . S
C175 C176 1.346 . S
C175 H180 0.930 . S
C176 N173 1.336 . S
C176 C175 1.346 . S
C176 H183 0.929 . S
C177 O167 1.282 . S
C177 O178 1.216 . S
O178 C177 1.216 . S
H179 C174 0.930 . S
H180 C175 0.930 . S
O181 Cu161 1.959 . S
O181 C168 1.251 . S
H182 C165 0.930 . S
H183 C176 0.929 . S
Cu184 N185 1.999 . S
Cu184 O190 1.974 . S
Cu184 N195 1.985 . S
Cu184 O204 1.959 . S
N185 Cu184 1.999 . S
N185 C187 1.263 . S
N185 C189 1.389 . S
N186 C187 1.358 . S
N186 C188 1.400 . S
C187 N185 1.263 . S
C187 N186 1.358 . S
C187 H193 0.930 . S
C188 N186 1.400 . S
C188 C189 1.351 . S
C188 H205 0.930 . S
C189 N185 1.389 . S
C189 C188 1.351 . S
C189 H194 0.930 . S
O190 Cu184 1.974 . S
O190 C200 1.282 . S
C191 O192 1.261 . S
C191 O204 1.251 . S
O192 C191 1.261 . S
H193 C187 0.930 . S
H194 C189 0.930 . S
N195 Cu184 1.985 . S
N195 C197 1.335 . S
N195 C198 1.390 . S
N196 C197 1.345 . S
N196 C199 1.336 . S
C197 N195 1.335 . S
C197 N196 1.345 . S
C197 H202 0.930 . S
C198 N195 1.390 . S
C198 C199 1.346 . S
C198 H203 0.930 . S
C199 N196 1.336 . S
C199 C198 1.346 . S
C199 H206 0.929 . S
C200 O190 1.282 . S
C200 O201 1.216 . S
O201 C200 1.216 . S
H202 C197 0.930 . S
H203 C198 0.930 . S
O204 Cu184 1.959 . S
O204 C191 1.251 . S
H205 C188 0.930 . S
H206 C199 0.929 . S
Cu207 N208 1.999 . S
Cu207 O213 1.974 . S
Cu207 N218 1.985 . S
Cu207 O227 1.959 . S
N208 Cu207 1.999 . S
N208 C210 1.263 . S
N208 C212 1.389 . S
N209 C210 1.358 . S
N209 C211 1.400 . S
C210 N208 1.263 . S
C210 N209 1.358 . S
C210 H216 0.930 . S
C211 N209 1.400 . S
C211 C212 1.351 . S
C211 H228 0.930 . S
C212 N208 1.389 . S
C212 C211 1.351 . S
C212 H217 0.930 . S
O213 Cu207 1.974 . S
O213 C223 1.282 . S
C214 O215 1.261 . S
C214 O227 1.251 . S
O215 C214 1.261 . S
H216 C210 0.930 . S
H217 C212 0.930 . S
N218 Cu207 1.985 . S
N218 C220 1.335 . S
N218 C221 1.390 . S
N219 C220 1.345 . S
N219 C222 1.336 . S
C220 N218 1.335 . S
C220 N219 1.345 . S
C220 H225 0.930 . S
C221 N218 1.390 . S
C221 C222 1.346 . S
C221 H226 0.930 . S
C222 N219 1.336 . S
C222 C221 1.346 . S
C222 H229 0.929 . S
C223 O213 1.282 . S
C223 O224 1.216 . S
O224 C223 1.216 . S
H225 C220 0.930 . S
H226 C221 0.930 . S
O227 Cu207 1.959 . S
O227 C214 1.251 . S
H228 C211 0.930 . S
H229 C222 0.929 . S
Cu230 N231 1.999 . S
Cu230 O236 1.974 . S
Cu230 N241 1.985 . S
Cu230 O250 1.959 . S
N231 Cu230 1.999 . S
N231 C233 1.263 . S
N231 C235 1.389 . S
N232 C233 1.358 . S
N232 C234 1.400 . S
C233 N231 1.263 . S
C233 N232 1.358 . S
C233 H239 0.930 . S
C234 N232 1.400 . S
C234 C235 1.351 . S
C234 H251 0.930 . S
C235 N231 1.389 . S
C235 C234 1.351 . S
C235 H240 0.930 . S
O236 Cu230 1.974 . S
O236 C246 1.282 . S
C237 O238 1.261 . S
C237 O250 1.251 . S
O238 C237 1.261 . S
H239 C233 0.930 . S
H240 C235 0.930 . S
N241 Cu230 1.985 . S
N241 C243 1.335 . S
N241 C244 1.390 . S
N242 C243 1.345 . S
N242 C245 1.336 . S
C243 N241 1.335 . S
C243 N242 1.345 . S
C243 H248 0.930 . S
C244 N241 1.390 . S
C244 C245 1.346 . S
C244 H249 0.930 . S
C245 N242 1.336 . S
C245 C244 1.346 . S
C245 H252 0.929 . S
C246 O236 1.282 . S
C246 O247 1.216 . S
O247 C246 1.216 . S
H248 C243 0.930 . S
H249 C244 0.930 . S
O250 Cu230 1.959 . S
O250 C237 1.251 . S
H251 C234 0.930 . S
H252 C245 0.929 . S
Cu253 N254 1.999 . S
Cu253 O259 1.974 . S
Cu253 N264 1.985 . S
Cu253 O273 1.959 . S
N254 Cu253 1.999 . S
N254 C256 1.263 . S
N254 C258 1.389 . S
N255 C256 1.358 . S
N255 C257 1.400 . S
C256 N254 1.263 . S
C256 N255 1.358 . S
C256 H262 0.930 . S
C257 N255 1.400 . S
C257 C258 1.351 . S
C257 H274 0.930 . S
C258 N254 1.389 . S
C258 C257 1.351 . S
C258 H263 0.930 . S
O259 Cu253 1.974 . S
O259 C269 1.282 . S
C260 O261 1.261 . S
C260 O273 1.251 . S
O261 C260 1.261 . S
H262 C256 0.930 . S
H263 C258 0.930 . S
N264 Cu253 1.985 . S
N264 C266 1.335 . S
N264 C267 1.390 . S
N265 C266 1.345 . S
N265 C268 1.336 . S
C266 N264 1.335 . S
C266 N265 1.345 . S
C266 H271 0.930 . S
C267 N264 1.390 . S
C267 C268 1.346 . S
C267 H272 0.930 . S
C268 N265 1.336 . S
C268 C267 1.346 . S
C268 H275 0.929 . S
C269 O259 1.282 . S
C269 O270 1.216 . S
O270 C269 1.216 . S
H271 C266 0.930 . S
H272 C267 0.930 . S
O273 Cu253 1.959 . S
O273 C260 1.251 . S
H274 C257 0.930 . S
H275 C268 0.929 . S
Cu276 N277 1.999 . S
Cu276 O282 1.974 . S
Cu276 N287 1.985 . S
Cu276 O296 1.959 . S
N277 Cu276 1.999 . S
N277 C279 1.263 . S
N277 C281 1.389 . S
N278 C279 1.358 . S
N278 C280 1.400 . S
C279 N277 1.263 . S
C279 N278 1.358 . S
C279 H285 0.930 . S
C280 N278 1.400 . S
C280 C281 1.351 . S
C280 H297 0.930 . S
C281 N277 1.389 . S
C281 C280 1.351 . S
C281 H286 0.930 . S
O282 Cu276 1.974 . S
O282 C292 1.282 . S
C283 O284 1.261 . S
C283 O296 1.251 . S
O284 C283 1.261 . S
H285 C279 0.930 . S
H286 C281 0.930 . S
N287 Cu276 1.985 . S
N287 C289 1.335 . S
N287 C290 1.390 . S
N288 C289 1.345 . S
N288 C291 1.336 . S
C289 N287 1.335 . S
C289 N288 1.345 . S
C289 H294 0.930 . S
C290 N287 1.390 . S
C290 C291 1.346 . S
C290 H295 0.930 . S
C291 N288 1.336 . S
C291 C290 1.346 . S
C291 H298 0.929 . S
C292 O282 1.282 . S
C292 O293 1.216 . S
O293 C292 1.216 . S
H294 C289 0.930 . S
H295 C290 0.930 . S
O296 Cu276 1.959 . S
O296 C283 1.251 . S
H297 C280 0.930 . S
H298 C291 0.929 . S
Cu299 N300 1.999 . S
Cu299 O305 1.974 . S
Cu299 N310 1.985 . S
Cu299 O319 1.959 . S
N300 Cu299 1.999 . S
N300 C302 1.263 . S
N300 C304 1.389 . S
N301 C302 1.358 . S
N301 C303 1.400 . S
C302 N300 1.263 . S
C302 N301 1.358 . S
C302 H308 0.930 . S
C303 N301 1.400 . S
C303 C304 1.351 . S
C303 H320 0.930 . S
C304 N300 1.389 . S
C304 C303 1.351 . S
C304 H309 0.930 . S
O305 Cu299 1.974 . S
O305 C315 1.282 . S
C306 O307 1.261 . S
C306 O319 1.251 . S
O307 C306 1.261 . S
H308 C302 0.930 . S
H309 C304 0.930 . S
N310 Cu299 1.985 . S
N310 C312 1.335 . S
N310 C313 1.390 . S
N311 C312 1.345 . S
N311 C314 1.336 . S
C312 N310 1.335 . S
C312 N311 1.345 . S
C312 H317 0.930 . S
C313 N310 1.390 . S
C313 C314 1.346 . S
C313 H318 0.930 . S
C314 N311 1.336 . S
C314 C313 1.346 . S
C314 H321 0.929 . S
C315 O305 1.282 . S
C315 O316 1.216 . S
O316 C315 1.216 . S
H317 C312 0.930 . S
H318 C313 0.930 . S
O319 Cu299 1.959 . S
O319 C306 1.251 . S
H320 C303 0.930 . S
H321 C314 0.929 . S
Cu322 N323 1.999 . S
Cu322 O328 1.974 . S
Cu322 N333 1.985 . S
Cu322 O342 1.959 . S
N323 Cu322 1.999 . S
N323 C325 1.263 . S
N323 C327 1.389 . S
N324 C325 1.358 . S
N324 C326 1.400 . S
C325 N323 1.263 . S
C325 N324 1.358 . S
C325 H331 0.930 . S
C326 N324 1.400 . S
C326 C327 1.351 . S
C326 H343 0.930 . S
C327 N323 1.389 . S
C327 C326 1.351 . S
C327 H332 0.930 . S
O328 Cu322 1.974 . S
O328 C338 1.282 . S
C329 O330 1.261 . S
C329 O342 1.251 . S
O330 C329 1.261 . S
H331 C325 0.930 . S
H332 C327 0.930 . S
N333 Cu322 1.985 . S
N333 C335 1.335 . S
N333 C336 1.390 . S
N334 C335 1.345 . S
N334 C337 1.336 . S
C335 N333 1.335 . S
C335 N334 1.345 . S
C335 H340 0.930 . S
C336 N333 1.390 . S
C336 C337 1.346 . S
C336 H341 0.930 . S
C337 N334 1.336 . S
C337 C336 1.346 . S
C337 H344 0.929 . S
C338 O328 1.282 . S
C338 O339 1.216 . S
O339 C338 1.216 . S
H340 C335 0.930 . S
H341 C336 0.930 . S
O342 Cu322 1.959 . S
O342 C329 1.251 . S
H343 C326 0.930 . S
H344 C337 0.929 . S
Cu345 N346 1.999 . S
Cu345 O351 1.974 . S
Cu345 N356 1.985 . S
Cu345 O365 1.959 . S
N346 Cu345 1.999 . S
N346 C348 1.263 . S
N346 C350 1.389 . S
N347 C348 1.358 . S
N347 C349 1.400 . S
C348 N346 1.263 . S
C348 N347 1.358 . S
C348 H354 0.930 . S
C349 N347 1.400 . S
C349 C350 1.351 . S
C349 H366 0.930 . S
C350 N346 1.389 . S
C350 C349 1.351 . S
C350 H355 0.930 . S
O351 Cu345 1.974 . S
O351 C361 1.282 . S
C352 O353 1.261 . S
C352 O365 1.251 . S
O353 C352 1.261 . S
H354 C348 0.930 . S
H355 C350 0.930 . S
N356 Cu345 1.985 . S
N356 C358 1.335 . S
N356 C359 1.390 . S
N357 C358 1.345 . S
N357 C360 1.336 . S
C358 N356 1.335 . S
C358 N357 1.345 . S
C358 H363 0.930 . S
C359 N356 1.390 . S
C359 C360 1.346 . S
C359 H364 0.930 . S
C360 N357 1.336 . S
C360 C359 1.346 . S
C360 H367 0.929 . S
C361 O351 1.282 . S
C361 O362 1.216 . S
O362 C361 1.216 . S
H363 C358 0.930 . S
H364 C359 0.930 . S
O365 Cu345 1.959 . S
O365 C352 1.251 . S
H366 C349 0.930 . S
H367 C360 0.929 . S
Cu368 N369 1.999 . S
Cu368 O374 1.974 . S
Cu368 N379 1.985 . S
Cu368 O388 1.959 . S
N369 Cu368 1.999 . S
N369 C371 1.263 . S
N369 C373 1.389 . S
N370 C371 1.358 . S
N370 C372 1.400 . S
C371 N369 1.263 . S
C371 N370 1.358 . S
C371 H377 0.930 . S
C372 N370 1.400 . S
C372 C373 1.351 . S
C372 H389 0.930 . S
C373 N369 1.389 . S
C373 C372 1.351 . S
C373 H378 0.930 . S
O374 Cu368 1.974 . S
O374 C384 1.282 . S
C375 O376 1.261 . S
C375 O388 1.251 . S
O376 C375 1.261 . S
H377 C371 0.930 . S
H378 C373 0.930 . S
N379 Cu368 1.985 . S
N379 C381 1.335 . S
N379 C382 1.390 . S
N380 C381 1.345 . S
N380 C383 1.336 . S
C381 N379 1.335 . S
C381 N380 1.345 . S
C381 H386 0.930 . S
C382 N379 1.390 . S
C382 C383 1.346 . S
C382 H387 0.930 . S
C383 N380 1.336 . S
C383 C382 1.346 . S
C383 H390 0.929 . S
C384 O374 1.282 . S
C384 O385 1.216 . S
O385 C384 1.216 . S
H386 C381 0.930 . S
H387 C382 0.930 . S
O388 Cu368 1.959 . S
O388 C375 1.251 . S
H389 C372 0.930 . S
H390 C383 0.929 . S
Cu391 N392 1.999 . S
Cu391 O397 1.974 . S
Cu391 N402 1.985 . S
Cu391 O411 1.959 . S
N392 Cu391 1.999 . S
N392 C394 1.263 . S
N392 C396 1.389 . S
N393 C394 1.358 . S
N393 C395 1.400 . S
C394 N392 1.263 . S
C394 N393 1.358 . S
C394 H400 0.930 . S
C395 N393 1.400 . S
C395 C396 1.351 . S
C395 H412 0.930 . S
C396 N392 1.389 . S
C396 C395 1.351 . S
C396 H401 0.930 . S
O397 Cu391 1.974 . S
O397 C407 1.282 . S
C398 O399 1.261 . S
C398 O411 1.251 . S
O399 C398 1.261 . S
H400 C394 0.930 . S
H401 C396 0.930 . S
N402 Cu391 1.985 . S
N402 C404 1.335 . S
N402 C405 1.390 . S
N403 C404 1.345 . S
N403 C406 1.336 . S
C404 N402 1.335 . S
C404 N403 1.345 . S
C404 H409 0.930 . S
C405 N402 1.390 . S
C405 C406 1.346 . S
C405 H410 0.930 . S
C406 N403 1.336 . S
C406 C405 1.346 . S
C406 H413 0.929 . S
C407 O397 1.282 . S
C407 O408 1.216 . S
O408 C407 1.216 . S
H409 C404 0.930 . S
H410 C405 0.930 . S
O411 Cu391 1.959 . S
O411 C398 1.251 . S
H412 C395 0.930 . S
H413 C406 0.929 . S
In414 O415 2.294 . S
In414 O416 2.326 . S
In414 O420 2.266 . S
In414 O421 2.326 . S
In414 O422 2.266 1_455 S
In414 O423 2.326 . S
In414 O425 2.294 . S
In414 O426 2.326 . S
O415 In414 2.294 . S
O415 C424 1.240 . S
O416 In414 2.326 . S
O416 C424 1.252 . S
C417 O420 1.252 . S
C417 O421 1.260 . S
C418 O425 1.240 . S
C418 O426 1.252 . S
C419 O422 1.252 . S
C419 O423 1.260 1_655 S
O420 In414 2.266 . S
O420 C417 1.252 . S
O421 In414 2.326 . S
O421 C417 1.260 . S
O422 In414 2.266 1_655 S
O422 C419 1.252 . S
O423 In414 2.326 . S
O423 C419 1.260 1_455 S
C424 O415 1.240 . S
C424 O416 1.252 . S
O425 In414 2.294 . S
O425 C418 1.240 . S
O426 In414 2.326 . S
O426 C418 1.252 . S
In427 O428 2.294 . S
In427 O429 2.326 . S
In427 O433 2.266 . S
In427 O434 2.326 . S
In427 O435 2.266 . S
In427 O436 2.326 . S
In427 O438 2.294 . S
In427 O439 2.326 . S
O428 In427 2.294 . S
O428 C437 1.240 . S
O429 In427 2.326 . S
O429 C437 1.252 . S
C430 O433 1.252 . S
C430 O434 1.260 . S
C431 O438 1.240 . S
C431 O439 1.252 . S
C432 O435 1.252 . S
C432 O436 1.260 . S
O433 In427 2.266 . S
O433 C430 1.252 . S
O434 In427 2.326 . S
O434 C430 1.260 . S
O435 In427 2.266 . S
O435 C432 1.252 . S
O436 In427 2.326 . S
O436 C432 1.260 . S
C437 O428 1.240 . S
C437 O429 1.252 . S
O438 In427 2.294 . S
O438 C431 1.240 . S
O439 In427 2.326 . S
O439 C431 1.252 . S
In440 O441 2.294 . S
In440 O442 2.326 . S
In440 O446 2.266 . S
In440 O447 2.326 . S
In440 O448 2.266 . S
In440 O449 2.326 . S
In440 O451 2.294 . S
In440 O452 2.326 . S
O441 In440 2.294 . S
O441 C450 1.240 . S
O442 In440 2.326 . S
O442 C450 1.252 . S
C443 O446 1.252 . S
C443 O447 1.260 . S
C444 O451 1.240 . S
C444 O452 1.252 . S
C445 O448 1.252 . S
C445 O449 1.260 . S
O446 In440 2.266 . S
O446 C443 1.252 . S
O447 In440 2.326 . S
O447 C443 1.260 . S
O448 In440 2.266 . S
O448 C445 1.252 . S
O449 In440 2.326 . S
O449 C445 1.260 . S
C450 O441 1.240 . S
C450 O442 1.252 . S
O451 In440 2.294 . S
O451 C444 1.240 . S
O452 In440 2.326 . S
O452 C444 1.252 . S
In453 O454 2.294 . S
In453 O455 2.326 . S
In453 O459 2.266 . S
In453 O460 2.326 . S
In453 O461 2.266 . S
In453 O462 2.326 . S
In453 O464 2.294 . S
In453 O465 2.326 . S
O454 In453 2.294 . S
O454 C463 1.240 . S
O455 In453 2.326 . S
O455 C463 1.252 . S
C456 O459 1.252 . S
C456 O460 1.260 . S
C457 O464 1.240 . S
C457 O465 1.252 . S
C458 O461 1.252 . S
C458 O462 1.260 . S
O459 In453 2.266 . S
O459 C456 1.252 . S
O460 In453 2.326 . S
O460 C456 1.260 . S
O461 In453 2.266 . S
O461 C458 1.252 . S
O462 In453 2.326 . S
O462 C458 1.260 . S
C463 O454 1.240 . S
C463 O455 1.252 . S
O464 In453 2.294 . S
O464 C457 1.240 . S
O465 In453 2.326 . S
O465 C457 1.252 . S
In466 O467 2.294 . S
In466 O468 2.326 . S
In466 O472 2.266 . S
In466 O473 2.326 . S
In466 O474 2.266 . S
In466 O475 2.326 . S
In466 O477 2.294 . S
In466 O478 2.326 . S
O467 In466 2.294 . S
O467 C476 1.240 . S
O468 In466 2.326 . S
O468 C476 1.252 . S
C469 O472 1.252 . S
C469 O473 1.260 . S
C470 O477 1.240 . S
C470 O478 1.252 . S
C471 O474 1.252 . S
C471 O475 1.260 . S
O472 In466 2.266 . S
O472 C469 1.252 . S
O473 In466 2.326 . S
O473 C469 1.260 . S
O474 In466 2.266 . S
O474 C471 1.252 . S
O475 In466 2.326 . S
O475 C471 1.260 . S
C476 O467 1.240 . S
C476 O468 1.252 . S
O477 In466 2.294 . S
O477 C470 1.240 . S
O478 In466 2.326 . S
O478 C470 1.252 . S
In479 O480 2.294 . S
In479 O481 2.326 . S
In479 O485 2.266 . S
In479 O486 2.326 . S
In479 O487 2.295 . S
In479 O488 2.326 . S
In479 O490 2.294 . S
In479 O491 2.326 . S
O480 In479 2.294 . S
O480 C489 1.240 . S
O481 In479 2.326 . S
O481 C489 1.252 . S
C482 O485 1.252 . S
C482 O486 1.260 . S
C483 O490 1.240 . S
C483 O491 1.252 . S
C484 O487 1.281 . S
C484 O488 1.260 . S
O485 In479 2.266 . S
O485 C482 1.252 . S
O486 In479 2.326 . S
O486 C482 1.260 . S
O487 In479 2.295 . S
O487 C484 1.281 . S
O488 In479 2.326 . S
O488 C484 1.260 . S
C489 O480 1.240 . S
C489 O481 1.252 . S
O490 In479 2.294 . S
O490 C483 1.240 . S
O491 In479 2.326 . S
O491 C483 1.252 . S
In492 O493 2.294 1_565 S
In492 O494 2.326 1_565 S
In492 O498 2.266 . S
In492 O499 2.326 . S
In492 O500 2.266 . S
In492 O501 2.326 1_565 S
In492 O503 2.294 . S
In492 O504 2.326 . S
O493 In492 2.294 1_545 S
O493 C502 1.240 . S
O494 In492 2.326 1_545 S
O494 C502 1.252 . S
C495 O498 1.252 . S
C495 O499 1.260 . S
C496 O503 1.240 . S
C496 O504 1.252 . S
C497 O500 1.252 . S
C497 O501 1.260 1_565 S
O498 In492 2.266 . S
O498 C495 1.252 . S
O499 In492 2.326 . S
O499 C495 1.260 . S
O500 In492 2.266 . S
O500 C497 1.252 . S
O501 In492 2.326 1_545 S
O501 C497 1.260 1_545 S
C502 O493 1.240 . S
C502 O494 1.252 . S
O503 In492 2.294 . S
O503 C496 1.240 . S
O504 In492 2.326 . S
O504 C496 1.252 . S
In505 O506 2.294 . S
In505 O507 2.326 . S
In505 O511 2.266 . S
In505 O512 2.326 . S
In505 O513 2.266 . S
In505 O514 2.326 . S
In505 O516 2.294 . S
In505 O517 2.326 . S
O506 In505 2.294 . S
O506 C515 1.240 . S
O507 In505 2.326 . S
O507 C515 1.252 . S
C508 O511 1.252 . S
C508 O512 1.260 . S
C509 O516 1.240 . S
C509 O517 1.252 . S
C510 O513 1.252 . S
C510 O514 1.260 . S
O511 In505 2.266 . S
O511 C508 1.252 . S
O512 In505 2.326 . S
O512 C508 1.260 . S
O513 In505 2.266 . S
O513 C510 1.252 . S
O514 In505 2.326 . S
O514 C510 1.260 . S
C515 O506 1.240 . S
C515 O507 1.252 . S
O516 In505 2.294 . S
O516 C509 1.240 . S
O517 In505 2.326 . S
O517 C509 1.252 . S
In518 O519 2.294 . S
In518 O520 2.326 . S
In518 O524 2.266 . S
In518 O525 2.326 . S
In518 O526 2.266 . S
In518 O527 2.326 . S
In518 O529 2.294 . S
In518 O530 2.326 . S
O519 In518 2.294 . S
O519 C528 1.240 . S
O520 In518 2.326 . S
O520 C528 1.252 . S
C521 O524 1.252 . S
C521 O525 1.260 . S
C522 O529 1.240 . S
C522 O530 1.252 . S
C523 O526 1.252 . S
C523 O527 1.260 . S
O524 In518 2.266 . S
O524 C521 1.252 . S
O525 In518 2.326 . S
O525 C521 1.260 . S
O526 In518 2.266 . S
O526 C523 1.252 . S
O527 In518 2.326 . S
O527 C523 1.260 . S
C528 O519 1.240 . S
C528 O520 1.252 . S
O529 In518 2.294 . S
O529 C522 1.240 . S
O530 In518 2.326 . S
O530 C522 1.252 . S
In531 O532 2.294 . S
In531 O533 2.326 . S
In531 O537 2.266 . S
In531 O538 2.326 . S
In531 O539 2.266 . S
In531 O540 2.326 . S
In531 O542 2.294 . S
In531 O543 2.326 . S
O532 In531 2.294 . S
O532 C541 1.240 . S
O533 In531 2.326 . S
O533 C541 1.252 . S
C534 O537 1.252 . S
C534 O538 1.260 . S
C535 O542 1.240 . S
C535 O543 1.252 . S
C536 O539 1.252 . S
C536 O540 1.260 . S
O537 In531 2.266 . S
O537 C534 1.252 . S
O538 In531 2.326 . S
O538 C534 1.260 . S
O539 In531 2.266 . S
O539 C536 1.252 . S
O540 In531 2.326 . S
O540 C536 1.260 . S
C541 O532 1.240 . S
C541 O533 1.252 . S
O542 In531 2.294 . S
O542 C535 1.240 . S
O543 In531 2.326 . S
O543 C535 1.252 . S
In544 O545 2.314 . S
In544 O546 2.328 . S
In544 O550 2.279 1_565 S
In544 O551 2.320 1_565 S
In544 O552 2.237 1_565 S
In544 O553 2.309 1_565 S
In544 O555 2.290 . S
In544 O556 2.348 . S
O545 In544 2.314 . S
O545 C554 1.240 . S
O546 In544 2.328 . S
O546 C554 1.252 . S
C547 O550 1.252 . S
C547 O551 1.260 . S
C548 O555 1.240 . S
C548 O556 1.252 . S
C549 O552 1.252 . S
C549 O553 1.260 . S
O550 In544 2.279 1_545 S
O550 C547 1.252 . S
O551 In544 2.320 1_545 S
O551 C547 1.260 . S
O552 In544 2.237 1_545 S
O552 C549 1.252 . S
O553 In544 2.309 1_545 S
O553 C549 1.260 . S
C554 O545 1.240 . S
C554 O546 1.252 . S
O555 In544 2.290 . S
O555 C548 1.240 . S
O556 In544 2.348 . S
O556 C548 1.252 . S
In557 O558 2.294 . S
In557 O559 2.326 . S
In557 O563 2.266 . S
In557 O564 2.326 . S
In557 O565 2.266 . S
In557 O566 2.326 . S
In557 O568 2.294 . S
In557 O569 2.326 . S
O558 In557 2.294 . S
O558 C567 1.240 . S
O559 In557 2.326 . S
O559 C567 1.252 . S
C560 O563 1.252 . S
C560 O564 1.260 . S
C561 O568 1.240 . S
C561 O569 1.252 . S
C562 O565 1.252 . S
C562 O566 1.260 . S
O563 In557 2.266 . S
O563 C560 1.252 . S
O564 In557 2.326 . S
O564 C560 1.260 . S
O565 In557 2.266 . S
O565 C562 1.252 . S
O566 In557 2.326 . S
O566 C562 1.260 . S
C567 O558 1.240 . S
C567 O559 1.252 . S
O568 In557 2.294 . S
O568 C561 1.240 . S
O569 In557 2.326 . S
O569 C561 1.252 . S
In570 O571 2.294 . S
In570 O572 2.326 . S
In570 O576 2.266 . S
In570 O577 2.326 . S
In570 O578 2.266 . S
In570 O579 2.326 . S
In570 O581 2.294 . S
In570 O582 2.326 . S
O571 In570 2.294 . S
O571 C580 1.240 . S
O572 In570 2.326 . S
O572 C580 1.252 . S
C573 O576 1.252 . S
C573 O577 1.260 . S
C574 O581 1.240 . S
C574 O582 1.252 . S
C575 O578 1.252 . S
C575 O579 1.260 . S
O576 In570 2.266 . S
O576 C573 1.252 . S
O577 In570 2.326 . S
O577 C573 1.260 . S
O578 In570 2.266 . S
O578 C575 1.252 . S
O579 In570 2.326 . S
O579 C575 1.260 . S
C580 O571 1.240 . S
C580 O572 1.252 . S
O581 In570 2.294 . S
O581 C574 1.240 . S
O582 In570 2.326 . S
O582 C574 1.252 . S
In583 O584 2.294 . S
In583 O585 2.326 . S
In583 O589 2.266 . S
In583 O590 2.326 . S
In583 O591 2.266 . S
In583 O592 2.326 . S
In583 O594 2.294 . S
In583 O595 2.326 . S
O584 In583 2.294 . S
O584 C593 1.240 . S
O585 In583 2.326 . S
O585 C593 1.252 . S
C586 O589 1.252 . S
C586 O590 1.260 . S
C587 O594 1.240 . S
C587 O595 1.252 . S
C588 O591 1.252 . S
C588 O592 1.260 . S
O589 In583 2.266 . S
O589 C586 1.252 . S
O590 In583 2.326 . S
O590 C586 1.260 . S
O591 In583 2.266 . S
O591 C588 1.252 . S
O592 In583 2.326 . S
O592 C588 1.260 . S
C593 O584 1.240 . S
C593 O585 1.252 . S
O594 In583 2.294 . S
O594 C587 1.240 . S
O595 In583 2.326 . S
O595 C587 1.252 . S
In596 O597 2.294 . S
In596 O598 2.326 . S
In596 O602 2.266 1_655 S
In596 O603 2.326 1_655 S
In596 O604 2.266 . S
In596 O605 2.326 . S
In596 O607 2.294 . S
In596 O608 2.334 . S
O597 In596 2.294 . S
O597 C606 1.240 . S
O598 In596 2.326 . S
O598 C606 1.252 . S
C599 O602 1.252 . S
C599 O603 1.260 . S
C600 O607 1.240 . S
C600 O608 1.252 . S
C601 O604 1.252 . S
C601 O605 1.260 . S
O602 In596 2.266 1_455 S
O602 C599 1.252 . S
O603 In596 2.326 1_455 S
O603 C599 1.260 . S
O604 In596 2.266 . S
O604 C601 1.252 . S
O605 In596 2.326 . S
O605 C601 1.260 . S
C606 O597 1.240 . S
C606 O598 1.252 . S
O607 In596 2.294 . S
O607 C600 1.240 . S
O608 In596 2.334 . S
O608 C600 1.252 . S
In609 O610 2.294 . S
In609 O611 2.326 . S
In609 O615 2.266 . S
In609 O616 2.326 . S
In609 O617 2.266 . S
In609 O618 2.326 . S
In609 O620 2.294 . S
In609 O621 2.326 . S
O610 In609 2.294 . S
O610 C619 1.240 . S
O611 In609 2.326 . S
O611 C619 1.252 . S
C612 O615 1.252 . S
C612 O616 1.260 . S
C613 O620 1.240 . S
C613 O621 1.252 . S
C614 O617 1.252 . S
C614 O618 1.260 . S
O615 In609 2.266 . S
O615 C612 1.252 . S
O616 In609 2.326 . S
O616 C612 1.260 . S
O617 In609 2.266 . S
O617 C614 1.252 . S
O618 In609 2.326 . S
O618 C614 1.260 . S
C619 O610 1.240 . S
C619 O611 1.252 . S
O620 In609 2.294 . S
O620 C613 1.240 . S
O621 In609 2.326 . S
O621 C613 1.252 . S
In622 O623 2.294 . S
In622 O624 2.326 . S
In622 O628 2.266 1_655 S
In622 O629 2.326 1_655 S
In622 O630 2.284 1_655 S
In622 O631 2.326 1_655 S
In622 O633 2.294 . S
In622 O634 2.326 . S
O623 In622 2.294 . S
O623 C632 1.240 . S
O624 In622 2.326 . S
O624 C632 1.252 . S
C625 O628 1.252 . S
C625 O629 1.260 . S
C626 O633 1.240 . S
C626 O634 1.252 . S
C627 O630 1.273 . S
C627 O631 1.260 . S
O628 In622 2.266 1_455 S
O628 C625 1.252 . S
O629 In622 2.326 1_455 S
O629 C625 1.260 . S
O630 In622 2.284 1_455 S
O630 C627 1.273 . S
O631 In622 2.326 1_455 S
O631 C627 1.260 . S
C632 O623 1.240 . S
C632 O624 1.252 . S
O633 In622 2.294 . S
O633 C626 1.240 . S
O634 In622 2.326 . S
O634 C626 1.252 . S
In635 O636 2.294 . S
In635 O637 2.326 . S
In635 O641 2.266 . S
In635 O642 2.326 . S
In635 O643 2.266 . S
In635 O644 2.326 . S
In635 O646 2.294 . S
In635 O647 2.326 . S
O636 In635 2.294 . S
O636 C645 1.240 . S
O637 In635 2.326 . S
O637 C645 1.252 . S
C638 O641 1.252 . S
C638 O642 1.260 . S
C639 O646 1.240 . S
C639 O647 1.252 . S
C640 O643 1.252 . S
C640 O644 1.260 . S
O641 In635 2.266 . S
O641 C638 1.252 . S
O642 In635 2.326 . S
O642 C638 1.260 . S
O643 In635 2.266 . S
O643 C640 1.252 . S
O644 In635 2.326 . S
O644 C640 1.260 . S
C645 O636 1.240 . S
C645 O637 1.252 . S
O646 In635 2.294 . S
O646 C639 1.240 . S
O647 In635 2.326 . S
O647 C639 1.252 . S
H648 C656 0.950 . S
H649 C661 0.950 . S
H650 C658 0.950 . S
H651 C660 0.950 1_655 S
H652 C662 0.950 . S
H653 C664 0.950 . S
H654 C666 0.950 . S
H655 C667 0.950 . S
C656 H648 0.950 . S
C656 C657 1.386 . S
C656 C658 1.391 . S
C657 C656 1.386 . S
C657 C661 1.393 1_455 S
C658 H650 0.950 . S
C658 C656 1.391 . S
C658 C659 1.400 . S
C659 C658 1.400 . S
C659 C660 1.398 . S
C659 C665 1.491 . S
C660 H651 0.950 1_455 S
C660 C659 1.398 . S
C660 C661 1.391 1_455 S
C661 H649 0.950 . S
C661 C657 1.393 1_655 S
C661 C660 1.391 1_655 S
C662 H652 0.950 . S
C662 C663 1.386 . S
C662 C664 1.391 . S
C663 C662 1.386 . S
C663 C667 1.393 . S
C664 H653 0.950 . S
C664 C662 1.391 . S
C664 C665 1.400 . S
C665 C659 1.491 . S
C665 C664 1.400 . S
C665 C666 1.398 . S
C666 H654 0.950 . S
C666 C665 1.398 . S
C666 C667 1.391 . S
C667 H655 0.950 . S
C667 C663 1.393 . S
C667 C666 1.391 . S
H668 C676 0.950 . S
H669 C681 0.947 . S
H670 C678 0.950 . S
H671 C680 0.950 . S
H672 C682 0.950 . S
H673 C684 0.950 . S
H674 C686 0.950 . S
H675 C687 0.950 . S
C676 H668 0.950 . S
C676 C677 1.386 . S
C676 C678 1.391 . S
C677 C676 1.386 . S
C677 C681 1.393 . S
C678 H670 0.950 . S
C678 C676 1.391 . S
C678 C679 1.400 . S
C679 C678 1.400 . S
C679 C680 1.398 . S
C679 C685 1.491 . S
C680 H671 0.950 . S
C680 C679 1.398 . S
C680 C681 1.391 . S
C681 H669 0.947 . S
C681 C677 1.393 . S
C681 C680 1.391 . S
C682 H672 0.950 . S
C682 C683 1.386 . S
C682 C684 1.391 . S
C683 C682 1.386 . S
C683 C687 1.393 . S
C684 H673 0.950 . S
C684 C682 1.391 . S
C684 C685 1.400 . S
C685 C679 1.491 . S
C685 C684 1.400 . S
C685 C686 1.398 . S
C686 H674 0.950 . S
C686 C685 1.398 . S
C686 C687 1.391 . S
C687 H675 0.950 . S
C687 C683 1.393 . S
C687 C686 1.391 . S
H688 C696 0.950 . S
H689 C701 0.950 . S
H690 C698 0.950 . S
H691 C700 0.950 . S
H692 C702 0.950 . S
H693 C704 0.950 . S
H694 C706 0.950 . S
H695 C707 0.950 . S
C696 H688 0.950 . S
C696 C697 1.386 . S
C696 C698 1.391 . S
C697 C696 1.386 . S
C697 C701 1.393 . S
C698 H690 0.950 . S
C698 C696 1.391 . S
C698 C699 1.400 . S
C699 C698 1.400 . S
C699 C700 1.398 . S
C699 C705 1.491 . S
C700 H691 0.950 . S
C700 C699 1.398 . S
C700 C701 1.391 . S
C701 H689 0.950 . S
C701 C697 1.393 . S
C701 C700 1.391 . S
C702 H692 0.950 . S
C702 C703 1.386 . S
C702 C704 1.391 . S
C703 C702 1.386 . S
C703 C707 1.393 . S
C704 H693 0.950 . S
C704 C702 1.391 . S
C704 C705 1.400 . S
C705 C699 1.491 . S
C705 C704 1.400 . S
C705 C706 1.398 . S
C706 H694 0.950 . S
C706 C705 1.398 . S
C706 C707 1.391 . S
C707 H695 0.950 . S
C707 C703 1.393 . S
C707 C706 1.391 . S
H708 C716 0.950 . S
H709 C721 0.950 . S
H710 C718 0.950 . S
H711 C720 0.950 . S
H712 C722 0.950 . S
H713 C724 0.950 . S
H714 C726 0.950 . S
H715 C727 0.950 . S
C716 H708 0.950 . S
C716 C717 1.386 . S
C716 C718 1.391 . S
C717 C716 1.386 . S
C717 C721 1.393 . S
C718 H710 0.950 . S
C718 C716 1.391 . S
C718 C719 1.400 . S
C719 C718 1.400 . S
C719 C720 1.398 . S
C719 C725 1.491 . S
C720 H711 0.950 . S
C720 C719 1.398 . S
C720 C721 1.391 . S
C721 H709 0.950 . S
C721 C717 1.393 . S
C721 C720 1.391 . S
C722 H712 0.950 . S
C722 C723 1.386 . S
C722 C724 1.391 . S
C723 C722 1.386 . S
C723 C727 1.393 . S
C724 H713 0.950 . S
C724 C722 1.391 . S
C724 C725 1.400 . S
C725 C719 1.491 . S
C725 C724 1.400 . S
C725 C726 1.398 . S
C726 H714 0.950 . S
C726 C725 1.398 . S
C726 C727 1.391 . S
C727 H715 0.950 . S
C727 C723 1.393 . S
C727 C726 1.391 . S
H728 C736 0.950 . S
H729 C741 0.950 . S
H730 C738 0.950 . S
H731 C740 0.950 . S
H732 C742 0.950 . S
H733 C744 0.950 . S
H734 C746 0.950 . S
H735 C747 0.950 1_655 S
C736 H728 0.950 . S
C736 C737 1.386 . S
C736 C738 1.391 . S
C737 C736 1.386 . S
C737 C741 1.393 . S
C738 H730 0.950 . S
C738 C736 1.391 . S
C738 C739 1.400 . S
C739 C738 1.400 . S
C739 C740 1.398 . S
C739 C745 1.491 . S
C740 H731 0.950 . S
C740 C739 1.398 . S
C740 C741 1.391 . S
C741 H729 0.950 . S
C741 C737 1.393 . S
C741 C740 1.391 . S
C742 H732 0.950 . S
C742 C743 1.386 . S
C742 C744 1.391 . S
C743 C742 1.386 . S
C743 C747 1.393 . S
C744 H733 0.950 . S
C744 C742 1.391 . S
C744 C745 1.400 . S
C745 C739 1.491 . S
C745 C744 1.400 . S
C745 C746 1.398 . S
C746 H734 0.950 . S
C746 C745 1.398 . S
C746 C747 1.391 . S
C747 H735 0.950 1_455 S
C747 C743 1.393 . S
C747 C746 1.391 . S
H748 C756 0.950 . S
H749 C761 0.950 . S
H750 C758 0.950 . S
H751 C760 0.950 . S
H752 C762 0.950 . S
H753 C764 0.950 . S
H754 C766 0.950 . S
H755 C767 0.950 . S
C756 H748 0.950 . S
C756 C757 1.386 . S
C756 C758 1.391 . S
C757 C756 1.386 . S
C757 C761 1.393 . S
C758 H750 0.950 . S
C758 C756 1.391 . S
C758 C759 1.400 . S
C759 C758 1.400 . S
C759 C760 1.398 . S
C759 C765 1.491 . S
C760 H751 0.950 . S
C760 C759 1.398 . S
C760 C761 1.391 . S
C761 H749 0.950 . S
C761 C757 1.393 . S
C761 C760 1.391 . S
C762 H752 0.950 . S
C762 C763 1.386 . S
C762 C764 1.391 . S
C763 C762 1.386 . S
C763 C767 1.393 . S
C764 H753 0.950 . S
C764 C762 1.391 . S
C764 C765 1.400 . S
C765 C759 1.491 . S
C765 C764 1.400 . S
C765 C766 1.398 . S
C766 H754 0.950 . S
C766 C765 1.398 . S
C766 C767 1.391 . S
C767 H755 0.950 . S
C767 C763 1.393 . S
C767 C766 1.391 . S
H768 C776 0.950 1_455 S
H769 C781 0.950 1_554 S
H770 C778 0.950 1_455 S
H771 C780 0.973 . S
H772 C782 0.950 . S
H773 C784 0.950 . S
H774 C786 0.950 . S
H775 C787 0.950 . S
C776 H768 0.950 1_655 S
C776 C777 1.386 . S
C776 C778 1.391 . S
C777 C776 1.386 . S
C777 C781 1.393 . S
C778 H770 0.950 1_655 S
C778 C776 1.391 . S
C778 C779 1.400 . S
C779 C778 1.400 . S
C779 C780 1.398 . S
C779 C785 1.491 . S
C780 H771 0.973 . S
C780 C779 1.398 . S
C780 C781 1.391 . S
C781 H769 0.950 1_556 S
C781 C777 1.393 . S
C781 C780 1.391 . S
C782 H772 0.950 . S
C782 C783 1.386 . S
C782 C784 1.391 . S
C783 C782 1.386 . S
C783 C787 1.393 1_655 S
C784 H773 0.950 . S
C784 C782 1.391 . S
C784 C785 1.400 . S
C785 C779 1.491 . S
C785 C784 1.400 . S
C785 C786 1.398 1_655 S
C786 H774 0.950 . S
C786 C785 1.398 1_455 S
C786 C787 1.391 . S
C787 H775 0.950 . S
C787 C783 1.393 1_455 S
C787 C786 1.391 . S
H788 C796 0.950 . S
H789 C801 0.950 . S
H790 C798 0.950 . S
H791 C800 0.950 . S
H792 C802 0.950 . S
H793 C804 0.950 1_554 S
H794 C806 0.950 . S
H795 C807 0.950 . S
C796 H788 0.950 . S
C796 C797 1.386 . S
C796 C798 1.391 . S
C797 C796 1.386 . S
C797 C801 1.393 1_556 S
C798 H790 0.950 . S
C798 C796 1.391 . S
C798 C799 1.400 . S
C799 C798 1.400 . S
C799 C800 1.398 1_556 S
C799 C805 1.491 . S
C800 H791 0.950 . S
C800 C799 1.398 1_554 S
C800 C801 1.391 . S
C801 H789 0.950 . S
C801 C797 1.393 1_554 S
C801 C800 1.391 . S
C802 H792 0.950 . S
C802 C803 1.386 . S
C802 C804 1.391 . S
C803 C802 1.386 . S
C803 C807 1.393 . S
C804 H793 0.950 1_556 S
C804 C802 1.391 . S
C804 C805 1.400 . S
C805 C799 1.491 . S
C805 C804 1.400 . S
C805 C806 1.398 . S
C806 H794 0.950 . S
C806 C805 1.398 . S
C806 C807 1.391 . S
C807 H795 0.950 . S
C807 C803 1.393 . S
C807 C806 1.391 . S
H808 C816 0.950 . S
H809 C821 0.950 . S
H810 C818 0.950 . S
H811 C820 0.950 1_554 S
H812 C822 0.950 . S
H813 C824 0.950 . S
H814 C826 0.950 . S
H815 C827 0.950 . S
C816 H808 0.950 . S
C816 C817 1.386 . S
C816 C818 1.391 . S
C817 C816 1.386 . S
C817 C821 1.393 1_556 S
C818 H810 0.950 . S
C818 C816 1.391 . S
C818 C819 1.400 . S
C819 C818 1.400 . S
C819 C820 1.398 . S
C819 C825 1.491 . S
C820 H811 0.950 1_556 S
C820 C819 1.398 . S
C820 C821 1.391 1_556 S
C821 H809 0.950 . S
C821 C817 1.393 1_554 S
C821 C820 1.391 1_554 S
C822 H812 0.950 . S
C822 C823 1.386 . S
C822 C824 1.391 . S
C823 C822 1.386 . S
C823 C827 1.393 . S
C824 H813 0.950 . S
C824 C822 1.391 . S
C824 C825 1.400 . S
C825 C819 1.491 . S
C825 C824 1.400 . S
C825 C826 1.398 . S
C826 H814 0.950 . S
C826 C825 1.398 . S
C826 C827 1.391 . S
C827 H815 0.950 . S
C827 C823 1.393 . S
C827 C826 1.391 . S
H828 C836 0.950 . S
H829 C841 0.950 . S
H830 C838 0.950 . S
H831 C840 0.950 . S
H832 C842 0.950 . S
H833 C844 0.950 . S
H834 C846 0.950 . S
H835 C847 0.950 . S
C836 H828 0.950 . S
C836 C837 1.386 . S
C836 C838 1.391 . S
C837 C836 1.386 . S
C837 C841 1.393 1_545 S
C838 H830 0.950 . S
C838 C836 1.391 . S
C838 C839 1.400 . S
C839 C838 1.400 . S
C839 C840 1.398 1_545 S
C839 C845 1.490 1_545 S
C840 H831 0.950 . S
C840 C839 1.398 1_565 S
C840 C841 1.391 . S
C841 H829 0.950 . S
C841 C837 1.393 1_565 S
C841 C840 1.391 . S
C842 H832 0.950 . S
C842 C843 1.386 . S
C842 C844 1.391 . S
C843 C842 1.386 . S
C843 C847 1.393 1_565 S
C844 H833 0.950 . S
C844 C842 1.391 . S
C844 C845 1.401 . S
C845 C839 1.490 1_565 S
C845 C844 1.401 . S
C845 C846 1.398 1_565 S
C846 H834 0.950 . S
C846 C845 1.398 1_545 S
C846 C847 1.391 . S
C847 H835 0.950 . S
C847 C843 1.393 1_545 S
C847 C846 1.391 . S
H848 C856 0.950 . S
H849 C861 0.950 . S
H850 C858 0.950 . S
H851 C860 0.950 . S
H852 C862 0.950 . S
H853 C864 0.950 . S
H854 C866 0.950 . S
H855 C867 0.950 . S
C856 H848 0.950 . S
C856 C857 1.386 . S
C856 C858 1.391 . S
C857 C856 1.386 . S
C857 C861 1.393 . S
C858 H850 0.950 . S
C858 C856 1.391 . S
C858 C859 1.400 . S
C859 C858 1.400 . S
C859 C860 1.398 . S
C859 C865 1.491 . S
C860 H851 0.950 . S
C860 C859 1.398 . S
C860 C861 1.391 . S
C861 H849 0.950 . S
C861 C857 1.393 . S
C861 C860 1.391 . S
C862 H852 0.950 . S
C862 C863 1.386 . S
C862 C864 1.391 . S
C863 C862 1.386 . S
C863 C867 1.393 . S
C864 H853 0.950 . S
C864 C862 1.391 . S
C864 C865 1.400 . S
C865 C859 1.491 . S
C865 C864 1.400 . S
C865 C866 1.398 . S
C866 H854 0.950 . S
C866 C865 1.398 . S
C866 C867 1.391 . S
C867 H855 0.950 . S
C867 C863 1.393 . S
C867 C866 1.391 . S
H868 C876 0.950 . S
H869 C881 0.950 . S
H870 C878 0.950 . S
H871 C880 0.950 . S
H872 C882 0.950 . S
H873 C884 0.950 . S
H874 C886 0.950 . S
H875 C887 0.950 . S
C876 H868 0.950 . S
C876 C877 1.386 . S
C876 C878 1.391 . S
C877 C876 1.386 . S
C877 C881 1.393 . S
C878 H870 0.950 . S
C878 C876 1.391 . S
C878 C879 1.400 . S
C879 C878 1.400 . S
C879 C880 1.398 . S
C879 C885 1.491 . S
C880 H871 0.950 . S
C880 C879 1.398 . S
C880 C881 1.391 . S
C881 H869 0.950 . S
C881 C877 1.393 . S
C881 C880 1.391 . S
C882 H872 0.950 . S
C882 C883 1.386 . S
C882 C884 1.391 . S
C883 C882 1.386 . S
C883 C887 1.393 . S
C884 H873 0.950 . S
C884 C882 1.391 . S
C884 C885 1.400 . S
C885 C879 1.491 . S
C885 C884 1.400 . S
C885 C886 1.398 . S
C886 H874 0.950 . S
C886 C885 1.398 . S
C886 C887 1.391 . S
C887 H875 0.950 . S
C887 C883 1.393 . S
C887 C886 1.391 . S
H888 C896 0.950 . S
H889 C901 0.950 . S
H890 C898 0.950 . S
H891 C900 0.950 . S
H892 C902 0.950 . S
H893 C904 0.950 . S
H894 C906 0.950 . S
H895 C907 0.950 . S
C896 H888 0.950 . S
C896 C897 1.386 . S
C896 C898 1.391 . S
C897 C896 1.386 . S
C897 C901 1.393 . S
C898 H890 0.950 . S
C898 C896 1.391 . S
C898 C899 1.400 . S
C899 C898 1.400 . S
C899 C900 1.398 . S
C899 C905 1.491 . S
C900 H891 0.950 . S
C900 C899 1.398 . S
C900 C901 1.391 . S
C901 H889 0.950 . S
C901 C897 1.393 . S
C901 C900 1.391 . S
C902 H892 0.950 . S
C902 C903 1.386 . S
C902 C904 1.391 . S
C903 C902 1.386 . S
C903 C907 1.393 . S
C904 H893 0.950 . S
C904 C902 1.391 . S
C904 C905 1.400 . S
C905 C899 1.491 . S
C905 C904 1.400 . S
C905 C906 1.398 . S
C906 H894 0.950 . S
C906 C905 1.398 . S
C906 C907 1.391 . S
C907 H895 0.950 . S
C907 C903 1.393 . S
C907 C906 1.391 . S
H908 C916 0.950 . S
H909 C921 0.950 . S
H910 C918 0.950 . S
H911 C920 0.950 . S
H912 C922 0.950 . S
H913 C924 0.950 1_565 S
H914 C926 0.950 . S
H915 C927 0.950 . S
C916 H908 0.950 . S
C916 C917 1.386 . S
C916 C918 1.391 . S
C917 C916 1.386 . S
C917 C921 1.393 . S
C918 H910 0.950 . S
C918 C916 1.391 . S
C918 C919 1.400 . S
C919 C918 1.400 . S
C919 C920 1.398 . S
C919 C925 1.491 1_565 S
C920 H911 0.950 . S
C920 C919 1.398 . S
C920 C921 1.391 . S
C921 H909 0.950 . S
C921 C917 1.393 . S
C921 C920 1.391 . S
C922 H912 0.950 . S
C922 C923 1.386 . S
C922 C924 1.391 . S
C923 C922 1.386 . S
C923 C927 1.393 . S
C924 H913 0.950 1_545 S
C924 C922 1.391 . S
C924 C925 1.400 . S
C925 C919 1.491 1_545 S
C925 C924 1.400 . S
C925 C926 1.398 . S
C926 H914 0.950 . S
C926 C925 1.398 . S
C926 C927 1.391 . S
C927 H915 0.950 . S
C927 C923 1.393 . S
C927 C926 1.391 . S
H928 C936 0.950 . S
H929 C941 0.950 . S
H930 C938 0.950 . S
H931 C940 0.950 . S
H932 C942 0.950 . S
H933 C944 0.950 . S
H934 C946 0.950 . S
H935 C947 0.950 . S
C936 H928 0.950 . S
C936 C937 1.386 . S
C936 C938 1.391 . S
C937 C936 1.386 . S
C937 C941 1.393 . S
C938 H930 0.950 . S
C938 C936 1.391 . S
C938 C939 1.400 . S
C939 C938 1.400 . S
C939 C940 1.398 . S
C939 C945 1.491 . S
C940 H931 0.950 . S
C940 C939 1.398 . S
C940 C941 1.391 . S
C941 H929 0.950 . S
C941 C937 1.393 . S
C941 C940 1.391 . S
C942 H932 0.950 . S
C942 C943 1.386 . S
C942 C944 1.391 . S
C943 C942 1.386 . S
C943 C947 1.393 . S
C944 H933 0.950 . S
C944 C942 1.391 . S
C944 C945 1.400 . S
C945 C939 1.491 . S
C945 C944 1.400 . S
C945 C946 1.398 . S
C946 H934 0.950 . S
C946 C945 1.398 . S
C946 C947 1.391 . S
C947 H935 0.950 . S
C947 C943 1.393 . S
C947 C946 1.391 . S
H948 C956 0.950 . S
H949 C961 0.950 . S
H950 C958 0.950 . S
H951 C960 0.950 . S
H952 C962 0.950 . S
H953 C964 0.950 . S
H954 C966 0.950 . S
H955 C967 0.950 . S
C956 H948 0.950 . S
C956 C957 1.386 . S
C956 C958 1.391 . S
C957 C956 1.386 . S
C957 C961 1.393 . S
C958 H950 0.950 . S
C958 C956 1.391 . S
C958 C959 1.400 . S
C959 C958 1.400 . S
C959 C960 1.398 . S
C959 C965 1.491 . S
C960 H951 0.950 . S
C960 C959 1.398 . S
C960 C961 1.391 . S
C961 H949 0.950 . S
C961 C957 1.393 . S
C961 C960 1.391 . S
C962 H952 0.950 . S
C962 C963 1.386 . S
C962 C964 1.391 . S
C963 C962 1.386 . S
C963 C967 1.393 . S
C964 H953 0.950 . S
C964 C962 1.391 . S
C964 C965 1.400 . S
C965 C959 1.491 . S
C965 C964 1.400 . S
C965 C966 1.398 . S
C966 H954 0.950 . S
C966 C965 1.398 . S
C966 C967 1.391 . S
C967 H955 0.950 . S
C967 C963 1.393 . S
C967 C966 1.391 . S
H968 C976 0.950 . S
H969 C981 0.950 . S
H970 C978 0.950 . S
H971 C980 0.950 . S
H972 C982 0.950 . S
H973 C984 0.950 . S
H974 C986 0.950 . S
H975 C987 0.950 . S
C976 H968 0.950 . S
C976 C977 1.386 . S
C976 C978 1.391 . S
C977 C976 1.386 . S
C977 C981 1.393 . S
C978 H970 0.950 . S
C978 C976 1.391 . S
C978 C979 1.400 . S
C979 C978 1.400 . S
C979 C980 1.398 . S
C979 C985 1.491 . S
C980 H971 0.950 . S
C980 C979 1.398 . S
C980 C981 1.391 . S
C981 H969 0.950 . S
C981 C977 1.393 . S
C981 C980 1.391 . S
C982 H972 0.950 . S
C982 C983 1.386 . S
C982 C984 1.391 . S
C983 C982 1.386 . S
C983 C987 1.393 . S
C984 H973 0.950 . S
C984 C982 1.391 . S
C984 C985 1.400 . S
C985 C979 1.491 . S
C985 C984 1.400 . S
C985 C986 1.398 . S
C986 H974 0.950 . S
C986 C985 1.398 . S
C986 C987 1.391 . S
C987 H975 0.950 . S
C987 C983 1.393 . S
C987 C986 1.391 . S
H988 C996 0.950 . S
H989 C1001 0.950 . S
H990 C998 0.950 . S
H991 C1000 0.950 . S
H992 C1002 0.950 . S
H993 C1004 0.950 . S
H994 C1006 0.950 . S
H995 C1007 0.950 1_545 S
C996 H988 0.950 . S
C996 C997 1.386 . S
C996 C998 1.391 . S
C997 C996 1.386 . S
C997 C1001 1.393 . S
C998 H990 0.950 . S
C998 C996 1.391 . S
C998 C999 1.400 . S
C999 C998 1.400 . S
C999 C1000 1.398 . S
C999 C1005 1.491 . S
C1000 H991 0.950 . S
C1000 C999 1.398 . S
C1000 C1001 1.391 . S
C1001 H989 0.950 . S
C1001 C997 1.393 . S
C1001 C1000 1.391 . S
C1002 H992 0.950 . S
C1002 C1003 1.386 . S
C1002 C1004 1.391 . S
C1003 C1002 1.386 . S
C1003 C1007 1.393 . S
C1004 H993 0.950 . S
C1004 C1002 1.391 . S
C1004 C1005 1.400 . S
C1005 C999 1.491 . S
C1005 C1004 1.400 . S
C1005 C1006 1.398 . S
C1006 H994 0.950 . S
C1006 C1005 1.398 . S
C1006 C1007 1.391 . S
C1007 H995 0.950 1_565 S
C1007 C1003 1.393 . S
C1007 C1006 1.391 . S
H1008 C1016 0.950 . S
H1009 C1021 0.950 . S
H1010 C1018 0.950 . S
H1011 C1020 0.950 . S
H1012 C1022 0.950 . S
H1013 C1024 0.950 . S
H1014 C1026 0.950 . S
H1015 C1027 0.950 . S
C1016 H1008 0.950 . S
C1016 C1017 1.386 . S
C1016 C1018 1.391 . S
C1017 C1016 1.386 . S
C1017 C1021 1.393 . S
C1018 H1010 0.950 . S
C1018 C1016 1.391 . S
C1018 C1019 1.400 . S
C1019 C1018 1.400 . S
C1019 C1020 1.398 . S
C1019 C1025 1.491 . S
C1020 H1011 0.950 . S
C1020 C1019 1.398 . S
C1020 C1021 1.391 . S
C1021 H1009 0.950 . S
C1021 C1017 1.393 . S
C1021 C1020 1.391 . S
C1022 H1012 0.950 . S
C1022 C1023 1.386 . S
C1022 C1024 1.391 1_545 S
C1023 C1022 1.386 . S
C1023 C1027 1.393 . S
C1024 H1013 0.950 . S
C1024 C1022 1.391 1_565 S
C1024 C1025 1.400 . S
C1025 C1019 1.491 . S
C1025 C1024 1.400 . S
C1025 C1026 1.398 . S
C1026 H1014 0.950 . S
C1026 C1025 1.398 . S
C1026 C1027 1.391 1_565 S
C1027 H1015 0.950 . S
C1027 C1023 1.393 . S
C1027 C1026 1.391 1_545 S
H1028 C1036 0.950 . S
H1029 C1041 0.950 . S
H1030 C1038 0.950 . S
H1031 C1040 0.950 . S
H1032 C1042 0.950 . S
H1033 C1044 0.950 . S
H1034 C1046 0.950 . S
H1035 C1047 0.950 . S
C1036 H1028 0.950 . S
C1036 C1037 1.386 . S
C1036 C1038 1.391 . S
C1037 C1036 1.386 . S
C1037 C1041 1.393 . S
C1038 H1030 0.950 . S
C1038 C1036 1.391 . S
C1038 C1039 1.400 . S
C1039 C1038 1.400 . S
C1039 C1040 1.398 . S
C1039 C1045 1.491 . S
C1040 H1031 0.950 . S
C1040 C1039 1.398 . S
C1040 C1041 1.391 . S
C1041 H1029 0.950 . S
C1041 C1037 1.393 . S
C1041 C1040 1.391 . S
C1042 H1032 0.950 . S
C1042 C1043 1.386 . S
C1042 C1044 1.391 . S
C1043 C1042 1.386 . S
C1043 C1047 1.393 . S
C1044 H1033 0.950 . S
C1044 C1042 1.391 . S
C1044 C1045 1.400 . S
C1045 C1039 1.491 . S
C1045 C1044 1.400 . S
C1045 C1046 1.398 . S
C1046 H1034 0.950 . S
C1046 C1045 1.398 . S
C1046 C1047 1.391 . S
C1047 H1035 0.950 . S
C1047 C1043 1.393 . S
C1047 C1046 1.391 . S
H1048 C1056 0.950 . S
H1049 C1061 0.950 . S
H1050 C1058 0.950 . S
H1051 C1060 0.950 . S
H1052 C1062 0.950 . S
H1053 C1064 0.950 . S
H1054 C1066 0.950 . S
H1055 C1067 0.950 . S
C1056 H1048 0.950 . S
C1056 C1057 1.386 . S
C1056 C1058 1.391 . S
C1057 C1056 1.386 . S
C1057 C1061 1.393 . S
C1058 H1050 0.950 . S
C1058 C1056 1.391 . S
C1058 C1059 1.400 . S
C1059 C1058 1.400 . S
C1059 C1060 1.398 . S
C1059 C1065 1.491 . S
C1060 H1051 0.950 . S
C1060 C1059 1.398 . S
C1060 C1061 1.391 . S
C1061 H1049 0.950 . S
C1061 C1057 1.393 . S
C1061 C1060 1.391 . S
C1062 H1052 0.950 . S
C1062 C1063 1.386 . S
C1062 C1064 1.391 . S
C1063 C1062 1.386 . S
C1063 C1067 1.393 . S
C1064 H1053 0.950 . S
C1064 C1062 1.391 . S
C1064 C1065 1.400 . S
C1065 C1059 1.491 . S
C1065 C1064 1.400 . S
C1065 C1066 1.398 . S
C1066 H1054 0.950 . S
C1066 C1065 1.398 . S
C1066 C1067 1.391 . S
C1067 H1055 0.950 . S
C1067 C1063 1.393 . S
C1067 C1066 1.391 . S
H1068 C1076 0.950 . S
H1069 C1081 0.950 . S
H1070 C1078 0.950 . S
H1071 C1080 0.950 . S
H1072 C1082 0.950 . S
H1073 C1084 0.950 . S
H1074 C1086 0.950 . S
H1075 C1087 0.950 . S
C1076 H1068 0.950 . S
C1076 C1077 1.386 . S
C1076 C1078 1.391 . S
C1077 C1076 1.386 . S
C1077 C1081 1.393 . S
C1078 H1070 0.950 . S
C1078 C1076 1.391 . S
C1078 C1079 1.400 . S
C1079 C1078 1.400 . S
C1079 C1080 1.398 . S
C1079 C1085 1.491 . S
C1080 H1071 0.950 . S
C1080 C1079 1.398 . S
C1080 C1081 1.391 . S
C1081 H1069 0.950 . S
C1081 C1077 1.393 . S
C1081 C1080 1.391 . S
C1082 H1072 0.950 . S
C1082 C1083 1.386 . S
C1082 C1084 1.391 . S
C1083 C1082 1.386 . S
C1083 C1087 1.393 . S
C1084 H1073 0.950 . S
C1084 C1082 1.391 . S
C1084 C1085 1.400 . S
C1085 C1079 1.491 . S
C1085 C1084 1.400 . S
C1085 C1086 1.398 . S
C1086 H1074 0.950 . S
C1086 C1085 1.398 . S
C1086 C1087 1.391 . S
C1087 H1075 0.950 . S
C1087 C1083 1.393 . S
C1087 C1086 1.391 . S
H1088 C1096 0.950 . S
H1089 C1101 0.950 . S
H1090 C1098 0.950 . S
H1091 C1100 0.950 . S
H1092 C1102 0.950 . S
H1093 C1104 0.950 . S
H1094 C1106 0.950 . S
H1095 C1107 0.950 . S
C1096 H1088 0.950 . S
C1096 C1097 1.386 . S
C1096 C1098 1.391 . S
C1097 C1096 1.386 . S
C1097 C1101 1.393 . S
C1098 H1090 0.950 . S
C1098 C1096 1.391 . S
C1098 C1099 1.400 . S
C1099 C1098 1.400 . S
C1099 C1100 1.398 . S
C1099 C1105 1.491 1_565 S
C1100 H1091 0.950 . S
C1100 C1099 1.398 . S
C1100 C1101 1.391 . S
C1101 H1089 0.950 . S
C1101 C1097 1.393 . S
C1101 C1100 1.391 . S
C1102 H1092 0.950 . S
C1102 C1103 1.386 . S
C1102 C1104 1.391 . S
C1103 C1102 1.386 . S
C1103 C1107 1.393 . S
C1104 H1093 0.950 . S
C1104 C1102 1.391 . S
C1104 C1105 1.400 . S
C1105 C1099 1.491 1_545 S
C1105 C1104 1.400 . S
C1105 C1106 1.398 . S
C1106 H1094 0.950 . S
C1106 C1105 1.398 . S
C1106 C1107 1.391 . S
C1107 H1095 0.950 . S
C1107 C1103 1.393 . S
C1107 C1106 1.391 . S
H1108 C1116 0.950 . S
H1109 C1121 0.950 . S
H1110 C1118 0.950 . S
H1111 C1120 0.950 . S
H1112 C1122 0.950 . S
H1113 C1124 0.950 . S
H1114 C1126 0.950 . S
H1115 C1127 0.950 . S
C1116 H1108 0.950 . S
C1116 C1117 1.386 . S
C1116 C1118 1.391 . S
C1117 C1116 1.386 . S
C1117 C1121 1.393 . S
C1118 H1110 0.950 . S
C1118 C1116 1.391 . S
C1118 C1119 1.400 . S
C1119 C1118 1.400 . S
C1119 C1120 1.398 . S
C1119 C1125 1.491 . S
C1120 H1111 0.950 . S
C1120 C1119 1.398 . S
C1120 C1121 1.391 . S
C1121 H1109 0.950 . S
C1121 C1117 1.393 . S
C1121 C1120 1.391 . S
C1122 H1112 0.950 . S
C1122 C1123 1.386 . S
C1122 C1124 1.391 . S
C1123 C1122 1.386 . S
C1123 C1127 1.393 . S
C1124 H1113 0.950 . S
C1124 C1122 1.391 . S
C1124 C1125 1.400 . S
C1125 C1119 1.491 . S
C1125 C1124 1.400 . S
C1125 C1126 1.398 . S
C1126 H1114 0.950 . S
C1126 C1125 1.398 . S
C1126 C1127 1.391 . S
C1127 H1115 0.950 . S
C1127 C1123 1.393 . S
C1127 C1126 1.391 . S
H1128 C1136 0.950 . S
H1129 C1141 0.950 . S
H1130 C1138 0.950 . S
H1131 C1140 0.950 . S
H1132 C1142 0.950 . S
H1133 C1144 0.950 . S
H1134 C1146 0.950 . S
H1135 C1147 0.950 . S
C1136 H1128 0.950 . S
C1136 C1137 1.386 . S
C1136 C1138 1.391 . S
C1137 C1136 1.386 . S
C1137 C1141 1.393 . S
C1138 H1130 0.950 . S
C1138 C1136 1.391 . S
C1138 C1139 1.400 . S
C1139 C1138 1.400 . S
C1139 C1140 1.398 . S
C1139 C1145 1.491 . S
C1140 H1131 0.950 . S
C1140 C1139 1.398 . S
C1140 C1141 1.391 . S
C1141 H1129 0.950 . S
C1141 C1137 1.393 . S
C1141 C1140 1.391 . S
C1142 H1132 0.950 . S
C1142 C1143 1.386 . S
C1142 C1144 1.391 . S
C1143 C1142 1.386 . S
C1143 C1147 1.393 . S
C1144 H1133 0.950 . S
C1144 C1142 1.391 . S
C1144 C1145 1.400 . S
C1145 C1139 1.491 . S
C1145 C1144 1.400 . S
C1145 C1146 1.398 . S
C1146 H1134 0.950 . S
C1146 C1145 1.398 . S
C1146 C1147 1.391 . S
C1147 H1135 0.950 . S
C1147 C1143 1.393 . S
C1147 C1146 1.391 . S
H1148 C1156 0.950 . S
H1149 C1161 0.950 . S
H1150 C1158 0.950 . S
H1151 C1160 0.950 . S
H1152 C1162 0.950 . S
H1153 C1164 0.950 . S
H1154 C1166 0.950 . S
H1155 C1167 1.003 . S
C1156 H1148 0.950 . S
C1156 C1157 1.386 . S
C1156 C1158 1.391 . S
C1157 C1156 1.386 . S
C1157 C1161 1.393 . S
C1158 H1150 0.950 . S
C1158 C1156 1.391 . S
C1158 C1159 1.400 . S
C1159 C1158 1.400 . S
C1159 C1160 1.398 . S
C1159 C1165 1.491 . S
C1160 H1151 0.950 . S
C1160 C1159 1.398 . S
C1160 C1161 1.391 . S
C1161 H1149 0.950 . S
C1161 C1157 1.393 . S
C1161 C1160 1.391 . S
C1162 H1152 0.950 . S
C1162 C1163 1.386 . S
C1162 C1164 1.391 . S
C1163 C1162 1.386 . S
C1163 C1167 1.356 1_655 S
C1164 H1153 0.950 . S
C1164 C1162 1.391 . S
C1164 C1165 1.400 . S
C1165 C1159 1.491 . S
C1165 C1164 1.400 . S
C1165 C1166 1.398 . S
C1166 H1154 0.950 . S
C1166 C1165 1.398 . S
C1166 C1167 1.378 1_655 S
C1167 H1155 1.003 . S
C1167 C1163 1.356 1_455 S
C1167 C1166 1.378 1_455 S
H1168 C1176 0.950 . S
H1169 C1181 0.950 . S
H1170 C1178 0.950 . S
H1171 C1180 0.950 . S
H1172 C1182 0.950 . S
H1173 C1184 0.950 . S
H1174 C1186 0.950 . S
H1175 C1187 0.950 . S
C1176 H1168 0.950 . S
C1176 C1177 1.386 . S
C1176 C1178 1.391 . S
C1177 C1176 1.386 . S
C1177 C1181 1.393 . S
C1178 H1170 0.950 . S
C1178 C1176 1.391 . S
C1178 C1179 1.400 . S
C1179 C1178 1.400 . S
C1179 C1180 1.398 . S
C1179 C1185 1.491 . S
C1180 H1171 0.950 . S
C1180 C1179 1.398 . S
C1180 C1181 1.391 . S
C1181 H1169 0.950 . S
C1181 C1177 1.393 . S
C1181 C1180 1.391 . S
C1182 H1172 0.950 . S
C1182 C1183 1.386 . S
C1182 C1184 1.391 . S
C1183 C1182 1.386 . S
C1183 C1187 1.393 . S
C1184 H1173 0.950 . S
C1184 C1182 1.391 . S
C1184 C1185 1.400 . S
C1185 C1179 1.491 . S
C1185 C1184 1.400 . S
C1185 C1186 1.398 . S
C1186 H1174 0.950 . S
C1186 C1185 1.398 . S
C1186 C1187 1.391 . S
C1187 H1175 0.950 . S
C1187 C1183 1.393 . S
C1187 C1186 1.391 . S
H1188 C1196 0.950 . S
H1189 C1201 0.950 . S
H1190 C1198 0.950 . S
H1191 C1200 0.950 . S
H1192 C1202 0.950 . S
H1193 C1204 0.950 . S
H1194 C1206 0.950 . S
H1195 C1207 0.950 . S
C1196 H1188 0.950 . S
C1196 C1197 1.386 . S
C1196 C1198 1.391 . S
C1197 C1196 1.386 . S
C1197 C1201 1.393 . S
C1198 H1190 0.950 . S
C1198 C1196 1.391 . S
C1198 C1199 1.400 . S
C1199 C1198 1.400 . S
C1199 C1200 1.398 . S
C1199 C1205 1.491 . S
C1200 H1191 0.950 . S
C1200 C1199 1.398 . S
C1200 C1201 1.391 . S
C1201 H1189 0.950 . S
C1201 C1197 1.393 . S
C1201 C1200 1.391 . S
C1202 H1192 0.950 . S
C1202 C1203 1.386 . S
C1202 C1204 1.391 . S
C1203 C1202 1.386 . S
C1203 C1207 1.393 . S
C1204 H1193 0.950 . S
C1204 C1202 1.391 . S
C1204 C1205 1.400 . S
C1205 C1199 1.491 . S
C1205 C1204 1.400 . S
C1205 C1206 1.398 . S
C1206 H1194 0.950 . S
C1206 C1205 1.398 . S
C1206 C1207 1.391 . S
C1207 H1195 0.950 . S
C1207 C1203 1.393 . S
C1207 C1206 1.391 . S
H1208 C1216 0.950 . S
H1209 C1221 0.950 . S
H1210 C1218 0.950 . S
H1211 C1220 0.950 . S
H1212 C1222 0.950 . S
H1213 C1224 0.950 . S
H1214 C1226 0.950 . S
H1215 C1227 0.950 . S
C1216 H1208 0.950 . S
C1216 C1217 1.386 . S
C1216 C1218 1.391 . S
C1217 C1216 1.386 . S
C1217 C1221 1.393 . S
C1218 H1210 0.950 . S
C1218 C1216 1.391 . S
C1218 C1219 1.400 . S
C1219 C1218 1.400 . S
C1219 C1220 1.398 . S
C1219 C1225 1.491 . S
C1220 H1211 0.950 . S
C1220 C1219 1.398 . S
C1220 C1221 1.391 . S
C1221 H1209 0.950 . S
C1221 C1217 1.393 . S
C1221 C1220 1.391 . S
C1222 H1212 0.950 . S
C1222 C1223 1.386 . S
C1222 C1224 1.391 . S
C1223 C1222 1.386 . S
C1223 C1227 1.393 . S
C1224 H1213 0.950 . S
C1224 C1222 1.391 . S
C1224 C1225 1.400 . S
C1225 C1219 1.491 . S
C1225 C1224 1.400 . S
C1225 C1226 1.398 . S
C1226 H1214 0.950 . S
C1226 C1225 1.398 . S
C1226 C1227 1.391 . S
C1227 H1215 0.950 . S
C1227 C1223 1.393 . S
C1227 C1226 1.391 . S
H1228 C1236 0.950 . S
H1229 C1241 0.950 . S
H1230 C1238 0.950 . S
H1231 C1240 0.950 . S
H1232 C1242 0.950 . S
H1233 C1244 0.950 . S
H1234 C1246 0.950 . S
H1235 C1247 0.950 1_455 S
C1236 H1228 0.950 . S
C1236 C1237 1.386 . S
C1236 C1238 1.391 . S
C1237 C1236 1.386 . S
C1237 C1241 1.393 . S
C1238 H1230 0.950 . S
C1238 C1236 1.391 . S
C1238 C1239 1.400 . S
C1239 C1238 1.400 . S
C1239 C1240 1.398 . S
C1239 C1245 1.491 . S
C1240 H1231 0.950 . S
C1240 C1239 1.398 . S
C1240 C1241 1.391 . S
C1241 H1229 0.950 . S
C1241 C1237 1.393 . S
C1241 C1240 1.391 . S
C1242 H1232 0.950 . S
C1242 C1243 1.386 1_655 S
C1242 C1244 1.391 . S
C1243 C1242 1.386 1_455 S
C1243 C1247 1.393 1_455 S
C1244 H1233 0.950 . S
C1244 C1242 1.391 . S
C1244 C1245 1.400 . S
C1245 C1239 1.491 . S
C1245 C1244 1.400 . S
C1245 C1246 1.398 . S
C1246 H1234 0.950 . S
C1246 C1245 1.398 . S
C1246 C1247 1.391 . S
C1247 H1235 0.950 1_655 S
C1247 C1243 1.393 1_655 S
C1247 C1246 1.391 . S
H1248 C1256 0.950 . S
H1249 C1261 0.950 . S
H1250 C1258 0.950 . S
H1251 C1260 0.950 . S
H1252 C1262 0.950 . S
H1253 C1264 0.950 . S
H1254 C1266 0.950 . S
H1255 C1267 0.950 . S
C1256 H1248 0.950 . S
C1256 C1257 1.386 . S
C1256 C1258 1.391 . S
C1257 C1256 1.386 . S
C1257 C1261 1.393 . S
C1258 H1250 0.950 . S
C1258 C1256 1.391 . S
C1258 C1259 1.400 . S
C1259 C1258 1.400 . S
C1259 C1260 1.398 . S
C1259 C1265 1.491 . S
C1260 H1251 0.950 . S
C1260 C1259 1.398 . S
C1260 C1261 1.391 . S
C1261 H1249 0.950 . S
C1261 C1257 1.393 . S
C1261 C1260 1.391 . S
C1262 H1252 0.950 . S
C1262 C1263 1.386 . S
C1262 C1264 1.391 . S
C1263 C1262 1.386 . S
C1263 C1267 1.393 . S
C1264 H1253 0.950 . S
C1264 C1262 1.391 . S
C1264 C1265 1.400 . S
C1265 C1259 1.491 . S
C1265 C1264 1.400 . S
C1265 C1266 1.398 . S
C1266 H1254 0.950 . S
C1266 C1265 1.398 . S
C1266 C1267 1.391 . S
C1267 H1255 0.950 . S
C1267 C1263 1.393 . S
C1267 C1266 1.391 . S
H1268 C1276 0.950 . S
H1269 C1281 0.950 . S
H1270 C1278 0.950 . S
H1271 C1280 0.950 . S
H1272 C1282 0.950 . S
H1273 C1284 0.950 . S
H1274 C1286 0.950 . S
H1275 C1287 0.950 . S
C1276 H1268 0.950 . S
C1276 C1277 1.386 . S
C1276 C1278 1.391 . S
C1277 C1276 1.386 . S
C1277 C1281 1.393 . S
C1278 H1270 0.950 . S
C1278 C1276 1.391 . S
C1278 C1279 1.400 . S
C1279 C1278 1.400 . S
C1279 C1280 1.398 . S
C1279 C1285 1.491 . S
C1280 H1271 0.950 . S
C1280 C1279 1.398 . S
C1280 C1281 1.391 . S
C1281 H1269 0.950 . S
C1281 C1277 1.393 . S
C1281 C1280 1.391 . S
C1282 H1272 0.950 . S
C1282 C1283 1.386 . S
C1282 C1284 1.391 . S
C1283 C1282 1.386 . S
C1283 C1287 1.393 . S
C1284 H1273 0.950 . S
C1284 C1282 1.391 . S
C1284 C1285 1.400 . S
C1285 C1279 1.491 . S
C1285 C1284 1.400 . S
C1285 C1286 1.398 . S
C1286 H1274 0.950 . S
C1286 C1285 1.398 . S
C1286 C1287 1.391 . S
C1287 H1275 0.950 . S
C1287 C1283 1.393 . S
C1287 C1286 1.391 . S
H1288 C1296 0.950 . S
H1289 C1301 0.950 . S
H1290 C1298 0.950 . S
H1291 C1300 0.950 . S
H1292 C1302 0.950 . S
H1293 C1304 0.950 . S
H1294 C1306 0.947 1_655 S
H1295 C1307 0.950 . S
C1296 H1288 0.950 . S
C1296 C1297 1.386 . S
C1296 C1298 1.391 . S
C1297 C1296 1.386 . S
C1297 C1301 1.393 . S
C1298 H1290 0.950 . S
C1298 C1296 1.391 . S
C1298 C1299 1.400 . S
C1299 C1298 1.400 . S
C1299 C1300 1.398 . S
C1299 C1305 1.491 . S
C1300 H1291 0.950 . S
C1300 C1299 1.398 . S
C1300 C1301 1.391 . S
C1301 H1289 0.950 . S
C1301 C1297 1.393 . S
C1301 C1300 1.391 . S
C1302 H1292 0.950 . S
C1302 C1303 1.386 . S
C1302 C1304 1.391 . S
C1303 C1302 1.386 . S
C1303 C1307 1.393 . S
C1304 H1293 0.950 . S
C1304 C1302 1.391 . S
C1304 C1305 1.400 1_455 S
C1305 C1299 1.491 . S
C1305 C1304 1.400 1_655 S
C1305 C1306 1.392 1_655 S
C1306 H1294 0.947 1_455 S
C1306 C1305 1.392 1_455 S
C1306 C1307 1.399 . S
C1307 H1295 0.950 . S
C1307 C1303 1.393 . S
C1307 C1306 1.399 . S
H1308 C1316 0.950 . S
H1309 C1321 0.950 . S
H1310 C1318 0.950 . S
H1311 C1320 0.950 . S
H1312 C1322 0.950 . S
H1313 C1324 0.950 . S
H1314 C1326 0.950 . S
H1315 C1327 0.950 . S
C1316 H1308 0.950 . S
C1316 C1317 1.386 . S
C1316 C1318 1.391 . S
C1317 C1316 1.386 . S
C1317 C1321 1.393 . S
C1318 H1310 0.950 . S
C1318 C1316 1.391 . S
C1318 C1319 1.400 . S
C1319 C1318 1.400 . S
C1319 C1320 1.398 . S
C1319 C1325 1.491 . S
C1320 H1311 0.950 . S
C1320 C1319 1.398 . S
C1320 C1321 1.391 . S
C1321 H1309 0.950 . S
C1321 C1317 1.393 . S
C1321 C1320 1.391 . S
C1322 H1312 0.950 . S
C1322 C1323 1.386 . S
C1322 C1324 1.391 . S
C1323 C1322 1.386 . S
C1323 C1327 1.393 . S
C1324 H1313 0.950 . S
C1324 C1322 1.391 . S
C1324 C1325 1.400 . S
C1325 C1319 1.491 . S
C1325 C1324 1.400 . S
C1325 C1326 1.398 . S
C1326 H1314 0.950 . S
C1326 C1325 1.398 . S
C1326 C1327 1.391 . S
C1327 H1315 0.950 . S
C1327 C1323 1.393 . S
C1327 C1326 1.391 . S
H1328 C1336 0.950 . S
H1329 C1341 0.950 . S
H1330 C1338 0.950 . S
H1331 C1340 0.950 . S
H1332 C1342 0.950 . S
H1333 C1344 0.950 . S
H1334 C1346 0.950 . S
H1335 C1347 0.950 . S
C1336 H1328 0.950 . S
C1336 C1337 1.386 . S
C1336 C1338 1.391 . S
C1337 C1336 1.386 . S
C1337 C1341 1.393 . S
C1338 H1330 0.950 . S
C1338 C1336 1.391 . S
C1338 C1339 1.400 . S
C1339 C1338 1.400 . S
C1339 C1340 1.398 . S
C1339 C1345 1.491 . S
C1340 H1331 0.950 . S
C1340 C1339 1.398 . S
C1340 C1341 1.391 . S
C1341 H1329 0.950 . S
C1341 C1337 1.393 . S
C1341 C1340 1.391 . S
C1342 H1332 0.950 . S
C1342 C1343 1.386 . S
C1342 C1344 1.391 . S
C1343 C1342 1.386 . S
C1343 C1347 1.393 . S
C1344 H1333 0.950 . S
C1344 C1342 1.391 . S
C1344 C1345 1.400 . S
C1345 C1339 1.491 . S
C1345 C1344 1.400 . S
C1345 C1346 1.398 . S
C1346 H1334 0.950 . S
C1346 C1345 1.398 . S
C1346 C1347 1.391 . S
C1347 H1335 0.950 . S
C1347 C1343 1.393 . S
C1347 C1346 1.391 . S
H1348 C1356 0.950 . S
H1349 C1361 0.950 . S
H1350 C1358 0.950 . S
H1351 C1360 0.950 . S
H1352 C1362 0.950 . S
H1353 C1364 0.950 . S
H1354 C1366 0.950 . S
H1355 C1367 0.950 . S
C1356 H1348 0.950 . S
C1356 C1357 1.386 . S
C1356 C1358 1.391 . S
C1357 C1356 1.386 . S
C1357 C1361 1.393 . S
C1358 H1350 0.950 . S
C1358 C1356 1.391 . S
C1358 C1359 1.400 . S
C1359 C1358 1.400 . S
C1359 C1360 1.398 . S
C1359 C1365 1.491 . S
C1360 H1351 0.950 . S
C1360 C1359 1.398 . S
C1360 C1361 1.391 . S
C1361 H1349 0.950 . S
C1361 C1357 1.393 . S
C1361 C1360 1.391 . S
C1362 H1352 0.950 . S
C1362 C1363 1.386 . S
C1362 C1364 1.391 . S
C1363 C1362 1.386 . S
C1363 C1367 1.393 . S
C1364 H1353 0.950 . S
C1364 C1362 1.391 . S
C1364 C1365 1.400 . S
C1365 C1359 1.491 . S
C1365 C1364 1.400 . S
C1365 C1366 1.398 . S
C1366 H1354 0.950 . S
C1366 C1365 1.398 . S
C1366 C1367 1.391 . S
C1367 H1355 0.950 . S
C1367 C1363 1.393 . S
C1367 C1366 1.391 . S
H1368 C1376 0.950 . S
H1369 C1381 0.954 1_655 S
H1370 C1378 0.950 . S
H1371 C1380 0.950 1_655 S
H1372 C1382 0.950 . S
H1373 C1384 0.950 . S
H1374 C1386 0.950 . S
H1375 C1387 0.950 . S
C1376 H1368 0.950 . S
C1376 C1377 1.386 . S
C1376 C1378 1.391 . S
C1377 C1376 1.386 . S
C1377 C1381 1.391 . S
C1378 H1370 0.950 . S
C1378 C1376 1.391 . S
C1378 C1379 1.400 . S
C1379 C1378 1.400 . S
C1379 C1380 1.398 . S
C1379 C1385 1.491 . S
C1380 H1371 0.950 1_455 S
C1380 C1379 1.398 . S
C1380 C1381 1.388 . S
C1381 H1369 0.954 1_455 S
C1381 C1377 1.391 . S
C1381 C1380 1.388 . S
C1382 H1372 0.950 . S
C1382 C1383 1.386 . S
C1382 C1384 1.391 . S
C1383 C1382 1.386 . S
C1383 C1387 1.393 . S
C1384 H1373 0.950 . S
C1384 C1382 1.391 . S
C1384 C1385 1.400 . S
C1385 C1379 1.491 . S
C1385 C1384 1.400 . S
C1385 C1386 1.398 . S
C1386 H1374 0.950 . S
C1386 C1385 1.398 . S
C1386 C1387 1.391 . S
C1387 H1375 0.950 . S
C1387 C1383 1.393 . S
C1387 C1386 1.391 . S
H1388 C1396 0.950 . S
H1389 C1401 0.950 . S
H1390 C1398 0.950 . S
H1391 C1400 0.950 . S
H1392 C1402 0.950 . S
H1393 C1404 0.950 . S
H1394 C1406 0.950 . S
H1395 C1407 0.950 . S
C1396 H1388 0.950 . S
C1396 C1397 1.386 . S
C1396 C1398 1.391 . S
C1397 C1396 1.386 . S
C1397 C1401 1.393 . S
C1398 H1390 0.950 . S
C1398 C1396 1.391 . S
C1398 C1399 1.400 . S
C1399 C1398 1.400 . S
C1399 C1400 1.398 . S
C1399 C1405 1.491 . S
C1400 H1391 0.950 . S
C1400 C1399 1.398 . S
C1400 C1401 1.391 . S
C1401 H1389 0.950 . S
C1401 C1397 1.393 . S
C1401 C1400 1.391 . S
C1402 H1392 0.950 . S
C1402 C1403 1.386 . S
C1402 C1404 1.391 . S
C1403 C1402 1.386 . S
C1403 C1407 1.393 . S
C1404 H1393 0.950 . S
C1404 C1402 1.391 . S
C1404 C1405 1.400 . S
C1405 C1399 1.491 . S
C1405 C1404 1.400 . S
C1405 C1406 1.398 . S
C1406 H1394 0.950 . S
C1406 C1405 1.398 . S
C1406 C1407 1.391 . S
C1407 H1395 0.950 . S
C1407 C1403 1.393 . S
C1407 C1406 1.391 . S
H1408 C1416 0.950 . S
H1409 C1421 0.950 . S
H1410 C1418 0.950 . S
H1411 C1420 0.950 . S
H1412 C1422 0.950 . S
H1413 C1424 0.950 . S
H1414 C1426 0.950 . S
H1415 C1427 0.950 . S
C1416 H1408 0.950 . S
C1416 C1417 1.386 . S
C1416 C1418 1.391 . S
C1417 C1416 1.386 . S
C1417 C1421 1.393 . S
C1418 H1410 0.950 . S
C1418 C1416 1.391 . S
C1418 C1419 1.400 . S
C1419 C1418 1.400 . S
C1419 C1420 1.398 . S
C1419 C1425 1.491 . S
C1420 H1411 0.950 . S
C1420 C1419 1.398 . S
C1420 C1421 1.391 . S
C1421 H1409 0.950 . S
C1421 C1417 1.393 . S
C1421 C1420 1.391 . S
C1422 H1412 0.950 . S
C1422 C1423 1.386 . S
C1422 C1424 1.391 . S
C1423 C1422 1.386 . S
C1423 C1427 1.393 . S
C1424 H1413 0.950 . S
C1424 C1422 1.391 . S
C1424 C1425 1.400 . S
C1425 C1419 1.491 . S
C1425 C1424 1.400 . S
C1425 C1426 1.398 . S
C1426 H1414 0.950 . S
C1426 C1425 1.398 . S
C1426 C1427 1.391 . S
C1427 H1415 0.950 . S
C1427 C1423 1.393 . S
C1427 C1426 1.391 . S
H1428 C1436 0.950 . S
H1429 C1441 0.950 1_565 S
H1430 C1438 0.950 . S
H1431 C1440 0.966 . S
H1432 C1442 0.950 . S
H1433 C1444 0.950 . S
H1434 C1446 0.950 . S
H1435 C1447 0.950 . S
C1436 H1428 0.950 . S
C1436 C1437 1.386 . S
C1436 C1438 1.391 . S
C1437 C1436 1.386 . S
C1437 C1441 1.393 . S
C1438 H1430 0.950 . S
C1438 C1436 1.391 . S
C1438 C1439 1.400 . S
C1439 C1438 1.400 . S
C1439 C1440 1.398 . S
C1439 C1445 1.491 . S
C1440 H1431 0.966 . S
C1440 C1439 1.398 . S
C1440 C1441 1.391 . S
C1441 H1429 0.950 1_545 S
C1441 C1437 1.393 . S
C1441 C1440 1.391 . S
C1442 H1432 0.950 . S
C1442 C1443 1.386 . S
C1442 C1444 1.391 . S
C1443 C1442 1.386 . S
C1443 C1447 1.393 . S
C1444 H1433 0.950 . S
C1444 C1442 1.391 . S
C1444 C1445 1.400 . S
C1445 C1439 1.491 . S
C1445 C1444 1.400 . S
C1445 C1446 1.398 . S
C1446 H1434 0.950 . S
C1446 C1445 1.398 . S
C1446 C1447 1.391 . S
C1447 H1435 0.950 . S
C1447 C1443 1.393 . S
C1447 C1446 1.391 . S
H1448 C1456 0.950 . S
H1449 C1461 0.950 . S
H1450 C1458 0.950 . S
H1451 C1460 0.950 . S
H1452 C1462 0.950 . S
H1453 C1464 0.950 . S
H1454 C1466 0.950 . S
H1455 C1467 0.950 . S
C1456 H1448 0.950 . S
C1456 C1457 1.386 . S
C1456 C1458 1.391 . S
C1457 C1456 1.386 . S
C1457 C1461 1.393 . S
C1458 H1450 0.950 . S
C1458 C1456 1.391 . S
C1458 C1459 1.400 . S
C1459 C1458 1.400 . S
C1459 C1460 1.398 . S
C1459 C1465 1.491 . S
C1460 H1451 0.950 . S
C1460 C1459 1.398 . S
C1460 C1461 1.391 . S
C1461 H1449 0.950 . S
C1461 C1457 1.393 . S
C1461 C1460 1.391 . S
C1462 H1452 0.950 . S
C1462 C1463 1.386 . S
C1462 C1464 1.391 . S
C1463 C1462 1.386 . S
C1463 C1467 1.393 . S
C1464 H1453 0.950 . S
C1464 C1462 1.391 . S
C1464 C1465 1.400 . S
C1465 C1459 1.491 . S
C1465 C1464 1.400 . S
C1465 C1466 1.398 . S
C1466 H1454 0.950 . S
C1466 C1465 1.398 . S
C1466 C1467 1.391 . S
C1467 H1455 0.950 . S
C1467 C1463 1.393 . S
C1467 C1466 1.391 . S
H1468 C1476 0.950 . S
H1469 C1481 0.950 . S
H1470 C1478 0.950 . S
H1471 C1480 0.950 . S
H1472 C1482 0.950 . S
H1473 C1484 0.950 . S
H1474 C1486 0.950 . S
H1475 C1487 0.950 . S
C1476 H1468 0.950 . S
C1476 C1477 1.386 . S
C1476 C1478 1.391 . S
C1477 C1476 1.386 . S
C1477 C1481 1.393 . S
C1478 H1470 0.950 . S
C1478 C1476 1.391 . S
C1478 C1479 1.400 . S
C1479 C1478 1.400 . S
C1479 C1480 1.398 . S
C1479 C1485 1.491 . S
C1480 H1471 0.950 . S
C1480 C1479 1.398 . S
C1480 C1481 1.391 . S
C1481 H1469 0.950 . S
C1481 C1477 1.393 . S
C1481 C1480 1.391 . S
C1482 H1472 0.950 . S
C1482 C1483 1.386 . S
C1482 C1484 1.391 . S
C1483 C1482 1.386 . S
C1483 C1487 1.393 . S
C1484 H1473 0.950 . S
C1484 C1482 1.391 . S
C1484 C1485 1.400 . S
C1485 C1479 1.491 . S
C1485 C1484 1.400 . S
C1485 C1486 1.398 . S
C1486 H1474 0.950 . S
C1486 C1485 1.398 . S
C1486 C1487 1.391 . S
C1487 H1475 0.950 . S
C1487 C1483 1.393 . S
C1487 C1486 1.391 . S
H1488 C1496 0.950 . S
H1489 C1501 0.950 . S
H1490 C1498 0.950 . S
H1491 C1500 0.950 . S
H1492 C1502 0.950 . S
H1493 C1504 0.950 . S
H1494 C1506 0.950 1_655 S
H1495 C1507 0.950 1_655 S
C1496 H1488 0.950 . S
C1496 C1497 1.386 1_655 S
C1496 C1498 1.391 . S
C1497 C1496 1.386 1_455 S
C1497 C1501 1.393 . S
C1498 H1490 0.950 . S
C1498 C1496 1.391 . S
C1498 C1499 1.400 1_655 S
C1499 C1498 1.400 1_455 S
C1499 C1500 1.398 . S
C1499 C1505 1.491 . S
C1500 H1491 0.950 . S
C1500 C1499 1.398 . S
C1500 C1501 1.391 . S
C1501 H1489 0.950 . S
C1501 C1497 1.393 . S
C1501 C1500 1.391 . S
C1502 H1492 0.950 . S
C1502 C1503 1.386 . S
C1502 C1504 1.391 . S
C1503 C1502 1.386 . S
C1503 C1507 1.393 . S
C1504 H1493 0.950 . S
C1504 C1502 1.391 . S
C1504 C1505 1.400 . S
C1505 C1499 1.491 . S
C1505 C1504 1.400 . S
C1505 C1506 1.398 . S
C1506 H1494 0.950 1_455 S
C1506 C1505 1.398 . S
C1506 C1507 1.391 . S
C1507 H1495 0.950 1_455 S
C1507 C1503 1.393 . S
C1507 C1506 1.391 . S
H1508 C1516 0.950 . S
H1509 C1521 0.950 . S
H1510 C1518 0.950 . S
H1511 C1520 0.950 . S
H1512 C1522 0.950 . S
H1513 C1524 0.950 . S
H1514 C1526 0.950 . S
H1515 C1527 0.950 . S
C1516 H1508 0.950 . S
C1516 C1517 1.386 . S
C1516 C1518 1.391 . S
C1517 C1516 1.386 . S
C1517 C1521 1.393 . S
C1518 H1510 0.950 . S
C1518 C1516 1.391 . S
C1518 C1519 1.400 . S
C1519 C1518 1.400 . S
C1519 C1520 1.398 . S
C1519 C1525 1.491 . S
C1520 H1511 0.950 . S
C1520 C1519 1.398 . S
C1520 C1521 1.391 . S
C1521 H1509 0.950 . S
C1521 C1517 1.393 . S
C1521 C1520 1.391 . S
C1522 H1512 0.950 . S
C1522 C1523 1.386 . S
C1522 C1524 1.391 . S
C1523 C1522 1.386 . S
C1523 C1527 1.393 . S
C1524 H1513 0.950 . S
C1524 C1522 1.391 . S
C1524 C1525 1.400 . S
C1525 C1519 1.491 . S
C1525 C1524 1.400 . S
C1525 C1526 1.398 . S
C1526 H1514 0.950 . S
C1526 C1525 1.398 . S
C1526 C1527 1.391 . S
C1527 H1515 0.950 . S
C1527 C1523 1.393 . S
C1527 C1526 1.391 . S
H1528 C1536 0.950 . S
H1529 C1541 0.950 . S
H1530 C1538 0.950 . S
H1531 C1540 0.950 . S
H1532 C1542 0.950 . S
H1533 C1544 0.950 . S
H1534 C1546 0.950 . S
H1535 C1547 0.950 . S
C1536 H1528 0.950 . S
C1536 C1537 1.386 . S
C1536 C1538 1.391 . S
C1537 C1536 1.386 . S
C1537 C1541 1.393 . S
C1538 H1530 0.950 . S
C1538 C1536 1.391 . S
C1538 C1539 1.400 . S
C1539 C1538 1.400 . S
C1539 C1540 1.398 . S
C1539 C1545 1.491 . S
C1540 H1531 0.950 . S
C1540 C1539 1.398 . S
C1540 C1541 1.391 . S
C1541 H1529 0.950 . S
C1541 C1537 1.393 . S
C1541 C1540 1.391 . S
C1542 H1532 0.950 . S
C1542 C1543 1.386 . S
C1542 C1544 1.391 . S
C1543 C1542 1.386 . S
C1543 C1547 1.393 . S
C1544 H1533 0.950 . S
C1544 C1542 1.391 . S
C1544 C1545 1.400 . S
C1545 C1539 1.491 . S
C1545 C1544 1.400 . S
C1545 C1546 1.398 . S
C1546 H1534 0.950 . S
C1546 C1545 1.398 . S
C1546 C1547 1.391 . S
C1547 H1535 0.950 . S
C1547 C1543 1.393 . S
C1547 C1546 1.391 . S
H1548 C1556 0.950 . S
H1549 C1561 0.950 . S
H1550 C1558 0.950 . S
H1551 C1560 0.950 . S
H1552 C1562 0.950 . S
H1553 C1564 0.950 . S
H1554 C1566 0.950 . S
H1555 C1567 0.950 . S
C1556 H1548 0.950 . S
C1556 C1557 1.386 . S
C1556 C1558 1.391 . S
C1557 C1556 1.386 . S
C1557 C1561 1.393 . S
C1558 H1550 0.950 . S
C1558 C1556 1.391 . S
C1558 C1559 1.400 . S
C1559 C1558 1.400 . S
C1559 C1560 1.398 . S
C1559 C1565 1.491 . S
C1560 H1551 0.950 . S
C1560 C1559 1.398 . S
C1560 C1561 1.391 . S
C1561 H1549 0.950 . S
C1561 C1557 1.393 . S
C1561 C1560 1.391 . S
C1562 H1552 0.950 . S
C1562 C1563 1.386 . S
C1562 C1564 1.391 . S
C1563 C1562 1.386 . S
C1563 C1567 1.393 . S
C1564 H1553 0.950 . S
C1564 C1562 1.391 . S
C1564 C1565 1.400 . S
C1565 C1559 1.491 . S
C1565 C1564 1.400 . S
C1565 C1566 1.398 . S
C1566 H1554 0.950 . S
C1566 C1565 1.398 . S
C1566 C1567 1.391 . S
C1567 H1555 0.950 . S
C1567 C1563 1.393 . S
C1567 C1566 1.391 . S
H1568 C1576 0.950 . S
H1569 C1581 0.950 . S
H1570 C1578 0.950 . S
H1571 C1580 0.950 . S
H1572 C1582 0.950 . S
H1573 C1584 0.950 . S
H1574 C1586 0.950 . S
H1575 C1587 0.950 . S
C1576 H1568 0.950 . S
C1576 C1577 1.386 . S
C1576 C1578 1.391 . S
C1577 C1576 1.386 . S
C1577 C1581 1.393 . S
C1578 H1570 0.950 . S
C1578 C1576 1.391 . S
C1578 C1579 1.400 . S
C1579 C1578 1.400 . S
C1579 C1580 1.398 . S
C1579 C1585 1.491 . S
C1580 H1571 0.950 . S
C1580 C1579 1.398 . S
C1580 C1581 1.391 . S
C1581 H1569 0.950 . S
C1581 C1577 1.393 . S
C1581 C1580 1.391 . S
C1582 H1572 0.950 . S
C1582 C1583 1.386 . S
C1582 C1584 1.391 . S
C1583 C1582 1.386 . S
C1583 C1587 1.393 . S
C1584 H1573 0.950 . S
C1584 C1582 1.391 . S
C1584 C1585 1.400 . S
C1585 C1579 1.491 . S
C1585 C1584 1.400 . S
C1585 C1586 1.398 . S
C1586 H1574 0.950 . S
C1586 C1585 1.398 . S
C1586 C1587 1.391 . S
C1587 H1575 0.950 . S
C1587 C1583 1.393 . S
C1587 C1586 1.391 . S
H1588 C1596 0.950 . S
H1589 C1601 0.950 . S
H1590 C1598 0.950 . S
H1591 C1600 0.950 . S
H1592 C1602 0.950 . S
H1593 C1604 0.950 . S
H1594 C1606 0.950 . S
H1595 C1607 0.950 . S
C1596 H1588 0.950 . S
C1596 C1597 1.386 . S
C1596 C1598 1.391 . S
C1597 C1596 1.386 . S
C1597 C1601 1.393 . S
C1598 H1590 0.950 . S
C1598 C1596 1.391 . S
C1598 C1599 1.400 . S
C1599 C1598 1.400 . S
C1599 C1600 1.398 . S
C1599 C1605 1.491 . S
C1600 H1591 0.950 . S
C1600 C1599 1.398 . S
C1600 C1601 1.391 . S
C1601 H1589 0.950 . S
C1601 C1597 1.393 . S
C1601 C1600 1.391 . S
C1602 H1592 0.950 . S
C1602 C1603 1.386 . S
C1602 C1604 1.391 . S
C1603 C1602 1.386 . S
C1603 C1607 1.393 . S
C1604 H1593 0.950 . S
C1604 C1602 1.391 . S
C1604 C1605 1.400 . S
C1605 C1599 1.491 . S
C1605 C1604 1.400 . S
C1605 C1606 1.398 . S
C1606 H1594 0.950 . S
C1606 C1605 1.398 . S
C1606 C1607 1.391 . S
C1607 H1595 0.950 . S
C1607 C1603 1.393 . S
C1607 C1606 1.391 . S
H1608 C1616 0.950 . S
H1609 C1621 0.950 . S
H1610 C1618 0.950 . S
H1611 C1620 0.950 . S
H1612 C1622 0.950 . S
H1613 C1624 0.950 . S
H1614 C1626 0.950 . S
H1615 C1627 0.950 . S
C1616 H1608 0.950 . S
C1616 C1617 1.386 . S
C1616 C1618 1.391 . S
C1617 C1616 1.386 . S
C1617 C1621 1.393 . S
C1618 H1610 0.950 . S
C1618 C1616 1.391 . S
C1618 C1619 1.400 . S
C1619 C1618 1.400 . S
C1619 C1620 1.398 . S
C1619 C1625 1.491 . S
C1620 H1611 0.950 . S
C1620 C1619 1.398 . S
C1620 C1621 1.391 . S
C1621 H1609 0.950 . S
C1621 C1617 1.393 . S
C1621 C1620 1.391 . S
C1622 H1612 0.950 . S
C1622 C1623 1.386 . S
C1622 C1624 1.391 . S
C1623 C1622 1.386 . S
C1623 C1627 1.393 . S
C1624 H1613 0.950 . S
C1624 C1622 1.391 . S
C1624 C1625 1.400 . S
C1625 C1619 1.491 . S
C1625 C1624 1.400 . S
C1625 C1626 1.398 . S
C1626 H1614 0.950 . S
C1626 C1625 1.398 . S
C1626 C1627 1.391 . S
C1627 H1615 0.950 . S
C1627 C1623 1.393 . S
C1627 C1626 1.391 . S
H1628 C1636 0.950 . S
H1629 C1641 0.950 . S
H1630 C1638 0.950 . S
H1631 C1640 0.950 . S
H1632 C1642 0.950 . S
H1633 C1644 0.950 . S
H1634 C1646 0.950 . S
H1635 C1647 0.950 . S
C1636 H1628 0.950 . S
C1636 C1637 1.386 . S
C1636 C1638 1.391 . S
C1637 C1636 1.386 . S
C1637 C1641 1.393 . S
C1638 H1630 0.950 . S
C1638 C1636 1.391 . S
C1638 C1639 1.400 . S
C1639 C1638 1.400 . S
C1639 C1640 1.398 . S
C1639 C1645 1.491 . S
C1640 H1631 0.950 . S
C1640 C1639 1.398 . S
C1640 C1641 1.391 . S
C1641 H1629 0.950 . S
C1641 C1637 1.393 . S
C1641 C1640 1.391 . S
C1642 H1632 0.950 . S
C1642 C1643 1.386 . S
C1642 C1644 1.391 . S
C1643 C1642 1.386 . S
C1643 C1647 1.393 . S
C1644 H1633 0.950 . S
C1644 C1642 1.391 . S
C1644 C1645 1.400 . S
C1645 C1639 1.491 . S
C1645 C1644 1.400 . S
C1645 C1646 1.398 . S
C1646 H1634 0.950 . S
C1646 C1645 1.398 . S
C1646 C1647 1.391 . S
C1647 H1635 0.950 . S
C1647 C1643 1.393 . S
C1647 C1646 1.391 . S
H1648 C1656 0.950 . S
H1649 C1661 0.950 . S
H1650 C1658 0.950 . S
H1651 C1660 0.950 . S
H1652 C1662 0.950 . S
H1653 C1664 0.950 . S
H1654 C1666 0.950 . S
H1655 C1667 0.950 . S
C1656 H1648 0.950 . S
C1656 C1657 1.386 . S
C1656 C1658 1.391 . S
C1657 C1656 1.386 . S
C1657 C1661 1.393 . S
C1658 H1650 0.950 . S
C1658 C1656 1.391 . S
C1658 C1659 1.400 . S
C1659 C1658 1.400 . S
C1659 C1660 1.398 . S
C1659 C1665 1.491 . S
C1660 H1651 0.950 . S
C1660 C1659 1.398 . S
C1660 C1661 1.391 . S
C1661 H1649 0.950 . S
C1661 C1657 1.393 . S
C1661 C1660 1.391 . S
C1662 H1652 0.950 . S
C1662 C1663 1.386 . S
C1662 C1664 1.391 . S
C1663 C1662 1.386 . S
C1663 C1667 1.393 . S
C1664 H1653 0.950 . S
C1664 C1662 1.391 . S
C1664 C1665 1.400 . S
C1665 C1659 1.491 . S
C1665 C1664 1.400 . S
C1665 C1666 1.398 . S
C1666 H1654 0.950 . S
C1666 C1665 1.398 . S
C1666 C1667 1.391 . S
C1667 H1655 0.950 . S
C1667 C1663 1.393 . S
C1667 C1666 1.391 . S
H1668 C1676 0.950 . S
H1669 C1681 0.950 . S
H1670 C1678 0.950 1_554 S
H1671 C1680 0.950 . S
H1672 C1682 0.950 . S
H1673 C1684 0.950 1_556 S
H1674 C1686 0.950 . S
H1675 C1687 0.950 . S
C1676 H1668 0.950 . S
C1676 C1677 1.386 . S
C1676 C1678 1.391 . S
C1677 C1676 1.386 . S
C1677 C1681 1.393 . S
C1678 H1670 0.950 1_556 S
C1678 C1676 1.391 . S
C1678 C1679 1.400 . S
C1679 C1678 1.400 . S
C1679 C1680 1.398 . S
C1679 C1685 1.491 1_556 S
C1680 H1671 0.950 . S
C1680 C1679 1.398 . S
C1680 C1681 1.391 . S
C1681 H1669 0.950 . S
C1681 C1677 1.393 . S
C1681 C1680 1.391 . S
C1682 H1672 0.950 . S
C1682 C1683 1.386 . S
C1682 C1684 1.391 . S
C1683 C1682 1.386 . S
C1683 C1687 1.393 . S
C1684 H1673 0.950 1_554 S
C1684 C1682 1.391 . S
C1684 C1685 1.400 . S
C1685 C1679 1.491 1_554 S
C1685 C1684 1.400 . S
C1685 C1686 1.398 . S
C1686 H1674 0.950 . S
C1686 C1685 1.398 . S
C1686 C1687 1.391 . S
C1687 H1675 0.950 . S
C1687 C1683 1.393 . S
C1687 C1686 1.391 . S
H1688 C1696 0.950 . S
H1689 C1701 0.950 . S
H1690 C1698 0.950 . S
H1691 C1700 0.950 . S
H1692 C1702 0.950 . S
H1693 C1704 0.950 . S
H1694 C1706 0.950 . S
H1695 C1707 0.950 . S
C1696 H1688 0.950 . S
C1696 C1697 1.386 . S
C1696 C1698 1.391 . S
C1697 C1696 1.386 . S
C1697 C1701 1.393 . S
C1698 H1690 0.950 . S
C1698 C1696 1.391 . S
C1698 C1699 1.400 . S
C1699 C1698 1.400 . S
C1699 C1700 1.398 . S
C1699 C1705 1.491 . S
C1700 H1691 0.950 . S
C1700 C1699 1.398 . S
C1700 C1701 1.391 . S
C1701 H1689 0.950 . S
C1701 C1697 1.393 . S
C1701 C1700 1.391 . S
C1702 H1692 0.950 . S
C1702 C1703 1.386 . S
C1702 C1704 1.391 1_554 S
C1703 C1702 1.386 . S
C1703 C1707 1.393 . S
C1704 H1693 0.950 . S
C1704 C1702 1.391 1_556 S
C1704 C1705 1.400 . S
C1705 C1699 1.491 . S
C1705 C1704 1.400 . S
C1705 C1706 1.398 1_556 S
C1706 H1694 0.950 . S
C1706 C1705 1.398 1_554 S
C1706 C1707 1.391 . S
C1707 H1695 0.950 . S
C1707 C1703 1.393 . S
C1707 C1706 1.391 . S
H1708 C1716 0.950 . S
H1709 C1721 0.950 . S
H1710 C1718 0.950 1_554 S
H1711 C1720 0.950 . S
H1712 C1722 0.950 . S
H1713 C1724 0.950 1_556 S
H1714 C1726 0.950 . S
H1715 C1727 0.950 . S
C1716 H1708 0.950 . S
C1716 C1717 1.386 . S
C1716 C1718 1.391 . S
C1717 C1716 1.386 . S
C1717 C1721 1.393 . S
C1718 H1710 0.950 1_556 S
C1718 C1716 1.391 . S
C1718 C1719 1.400 . S
C1719 C1718 1.400 . S
C1719 C1720 1.398 . S
C1719 C1725 1.491 1_556 S
C1720 H1711 0.950 . S
C1720 C1719 1.398 . S
C1720 C1721 1.391 . S
C1721 H1709 0.950 . S
C1721 C1717 1.393 . S
C1721 C1720 1.391 . S
C1722 H1712 0.950 . S
C1722 C1723 1.386 . S
C1722 C1724 1.391 . S
C1723 C1722 1.386 . S
C1723 C1727 1.393 . S
C1724 H1713 0.950 1_554 S
C1724 C1722 1.391 . S
C1724 C1725 1.400 . S
C1725 C1719 1.491 1_554 S
C1725 C1724 1.400 . S
C1725 C1726 1.398 . S
C1726 H1714 0.950 . S
C1726 C1725 1.398 . S
C1726 C1727 1.391 . S
C1727 H1715 0.950 . S
C1727 C1723 1.393 . S
C1727 C1726 1.391 . S
H1728 C1736 0.950 . S
H1729 C1741 0.950 . S
H1730 C1738 0.950 . S
H1731 C1740 0.950 . S
H1732 C1742 0.950 . S
H1733 C1744 0.950 . S
H1734 C1746 0.950 . S
H1735 C1747 0.950 . S
C1736 H1728 0.950 . S
C1736 C1737 1.386 . S
C1736 C1738 1.391 . S
C1737 C1736 1.386 . S
C1737 C1741 1.393 . S
C1738 H1730 0.950 . S
C1738 C1736 1.391 . S
C1738 C1739 1.400 . S
C1739 C1738 1.400 . S
C1739 C1740 1.398 . S
C1739 C1745 1.491 . S
C1740 H1731 0.950 . S
C1740 C1739 1.398 . S
C1740 C1741 1.391 . S
C1741 H1729 0.950 . S
C1741 C1737 1.393 . S
C1741 C1740 1.391 . S
C1742 H1732 0.950 . S
C1742 C1743 1.386 . S
C1742 C1744 1.391 . S
C1743 C1742 1.386 . S
C1743 C1747 1.393 . S
C1744 H1733 0.950 . S
C1744 C1742 1.391 . S
C1744 C1745 1.400 . S
C1745 C1739 1.491 . S
C1745 C1744 1.400 . S
C1745 C1746 1.398 . S
C1746 H1734 0.950 . S
C1746 C1745 1.398 . S
C1746 C1747 1.391 . S
C1747 H1735 0.950 . S
C1747 C1743 1.393 . S
C1747 C1746 1.391 . S
H1748 C1756 0.950 . S
H1749 C1761 0.950 . S
H1750 C1758 0.950 . S
H1751 C1760 0.950 . S
H1752 C1762 0.950 . S
H1753 C1764 0.950 . S
H1754 C1766 0.950 . S
H1755 C1767 0.950 . S
C1756 H1748 0.950 . S
C1756 C1757 1.386 . S
C1756 C1758 1.391 . S
C1757 C1756 1.386 . S
C1757 C1761 1.393 . S
C1758 H1750 0.950 . S
C1758 C1756 1.391 . S
C1758 C1759 1.400 . S
C1759 C1758 1.400 . S
C1759 C1760 1.398 . S
C1759 C1765 1.491 . S
C1760 H1751 0.950 . S
C1760 C1759 1.398 . S
C1760 C1761 1.391 . S
C1761 H1749 0.950 . S
C1761 C1757 1.393 . S
C1761 C1760 1.391 . S
C1762 H1752 0.950 . S
C1762 C1763 1.386 . S
C1762 C1764 1.391 . S
C1763 C1762 1.386 . S
C1763 C1767 1.393 . S
C1764 H1753 0.950 . S
C1764 C1762 1.391 . S
C1764 C1765 1.400 . S
C1765 C1759 1.491 . S
C1765 C1764 1.400 . S
C1765 C1766 1.398 . S
C1766 H1754 0.950 . S
C1766 C1765 1.398 . S
C1766 C1767 1.391 . S
C1767 H1755 0.950 . S
C1767 C1763 1.393 . S
C1767 C1766 1.391 . S
H1768 C1776 0.950 . S
H1769 C1781 0.950 . S
H1770 C1778 0.950 . S
H1771 C1780 0.950 . S
H1772 C1782 0.950 . S
H1773 C1784 0.950 . S
H1774 C1786 0.950 . S
H1775 C1787 0.950 . S
C1776 H1768 0.950 . S
C1776 C1777 1.386 . S
C1776 C1778 1.391 . S
C1777 C1776 1.386 . S
C1777 C1781 1.393 . S
C1778 H1770 0.950 . S
C1778 C1776 1.391 . S
C1778 C1779 1.400 . S
C1779 C1778 1.400 . S
C1779 C1780 1.398 . S
C1779 C1785 1.491 . S
C1780 H1771 0.950 . S
C1780 C1779 1.398 . S
C1780 C1781 1.391 . S
C1781 H1769 0.950 . S
C1781 C1777 1.393 . S
C1781 C1780 1.391 . S
C1782 H1772 0.950 . S
C1782 C1783 1.386 . S
C1782 C1784 1.391 . S
C1783 C1782 1.386 . S
C1783 C1787 1.393 . S
C1784 H1773 0.950 . S
C1784 C1782 1.391 . S
C1784 C1785 1.400 . S
C1785 C1779 1.491 . S
C1785 C1784 1.400 . S
C1785 C1786 1.398 . S
C1786 H1774 0.950 . S
C1786 C1785 1.398 . S
C1786 C1787 1.391 . S
C1787 H1775 0.950 . S
C1787 C1783 1.393 . S
C1787 C1786 1.391 . S
H1788 C1796 0.950 . S
H1789 C1801 0.950 . S
H1790 C1798 0.950 . S
H1791 C1800 0.950 . S
H1792 C1802 0.950 . S
H1793 C1804 0.950 . S
H1794 C1806 0.950 . S
H1795 C1807 0.950 . S
C1796 H1788 0.950 . S
C1796 C1797 1.386 . S
C1796 C1798 1.391 . S
C1797 C1796 1.386 . S
C1797 C1801 1.393 . S
C1798 H1790 0.950 . S
C1798 C1796 1.391 . S
C1798 C1799 1.400 . S
C1799 C1798 1.400 . S
C1799 C1800 1.398 . S
C1799 C1805 1.491 . S
C1800 H1791 0.950 . S
C1800 C1799 1.398 . S
C1800 C1801 1.391 . S
C1801 H1789 0.950 . S
C1801 C1797 1.393 . S
C1801 C1800 1.391 . S
C1802 H1792 0.950 . S
C1802 C1803 1.386 . S
C1802 C1804 1.391 . S
C1803 C1802 1.386 . S
C1803 C1807 1.393 . S
C1804 H1793 0.950 . S
C1804 C1802 1.391 . S
C1804 C1805 1.400 . S
C1805 C1799 1.491 . S
C1805 C1804 1.400 . S
C1805 C1806 1.398 . S
C1806 H1794 0.950 . S
C1806 C1805 1.398 . S
C1806 C1807 1.391 . S
C1807 H1795 0.950 . S
C1807 C1803 1.393 . S
C1807 C1806 1.391 . S
H1808 C1816 0.950 . S
H1809 C1821 0.950 . S
H1810 C1818 0.950 . S
H1811 C1820 0.950 . S
H1812 C1822 0.950 . S
H1813 C1824 0.950 . S
H1814 C1826 0.950 . S
H1815 C1827 0.950 . S
C1816 H1808 0.950 . S
C1816 C1817 1.386 . S
C1816 C1818 1.391 . S
C1817 C1816 1.386 . S
C1817 C1821 1.393 . S
C1818 H1810 0.950 . S
C1818 C1816 1.391 . S
C1818 C1819 1.400 . S
C1819 C1818 1.400 . S
C1819 C1820 1.398 . S
C1819 C1825 1.491 . S
C1820 H1811 0.950 . S
C1820 C1819 1.398 . S
C1820 C1821 1.391 . S
C1821 H1809 0.950 . S
C1821 C1817 1.393 . S
C1821 C1820 1.391 . S
C1822 H1812 0.950 . S
C1822 C1823 1.386 . S
C1822 C1824 1.391 . S
C1823 C1822 1.386 . S
C1823 C1827 1.393 . S
C1824 H1813 0.950 . S
C1824 C1822 1.391 . S
C1824 C1825 1.400 . S
C1825 C1819 1.491 . S
C1825 C1824 1.400 . S
C1825 C1826 1.398 . S
C1826 H1814 0.950 . S
C1826 C1825 1.398 . S
C1826 C1827 1.391 . S
C1827 H1815 0.950 . S
C1827 C1823 1.393 . S
C1827 C1826 1.391 . S
H1828 C1836 0.950 . S
H1829 C1841 0.950 . S
H1830 C1838 0.950 . S
H1831 C1840 0.950 . S
H1832 C1842 0.950 . S
H1833 C1844 0.950 . S
H1834 C1846 0.950 . S
H1835 C1847 0.950 . S
C1836 H1828 0.950 . S
C1836 C1837 1.386 . S
C1836 C1838 1.391 . S
C1837 C1836 1.386 . S
C1837 C1841 1.393 . S
C1838 H1830 0.950 . S
C1838 C1836 1.391 . S
C1838 C1839 1.400 . S
C1839 C1838 1.400 . S
C1839 C1840 1.398 . S
C1839 C1845 1.491 . S
C1840 H1831 0.950 . S
C1840 C1839 1.398 . S
C1840 C1841 1.391 . S
C1841 H1829 0.950 . S
C1841 C1837 1.393 . S
C1841 C1840 1.391 . S
C1842 H1832 0.950 . S
C1842 C1843 1.386 . S
C1842 C1844 1.391 . S
C1843 C1842 1.386 . S
C1843 C1847 1.393 . S
C1844 H1833 0.950 . S
C1844 C1842 1.391 . S
C1844 C1845 1.400 . S
C1845 C1839 1.491 . S
C1845 C1844 1.400 . S
C1845 C1846 1.398 . S
C1846 H1834 0.950 . S
C1846 C1845 1.398 . S
C1846 C1847 1.391 . S
C1847 H1835 0.950 . S
C1847 C1843 1.393 . S
C1847 C1846 1.391 . S
H1848 C1856 0.950 . S
H1849 C1861 0.950 . S
H1850 C1858 0.950 . S
H1851 C1860 0.950 . S
H1852 C1862 0.950 . S
H1853 C1864 0.950 . S
H1854 C1866 0.950 . S
H1855 C1867 0.950 . S
C1856 H1848 0.950 . S
C1856 C1857 1.386 . S
C1856 C1858 1.391 . S
C1857 C1856 1.386 . S
C1857 C1861 1.393 . S
C1858 H1850 0.950 . S
C1858 C1856 1.391 . S
C1858 C1859 1.400 . S
C1859 C1858 1.400 . S
C1859 C1860 1.398 . S
C1859 C1865 1.491 . S
C1860 H1851 0.950 . S
C1860 C1859 1.398 . S
C1860 C1861 1.391 . S
C1861 H1849 0.950 . S
C1861 C1857 1.393 . S
C1861 C1860 1.391 . S
C1862 H1852 0.950 . S
C1862 C1863 1.386 . S
C1862 C1864 1.391 . S
C1863 C1862 1.386 . S
C1863 C1867 1.393 . S
C1864 H1853 0.950 . S
C1864 C1862 1.391 . S
C1864 C1865 1.400 . S
C1865 C1859 1.491 . S
C1865 C1864 1.400 . S
C1865 C1866 1.398 . S
C1866 H1854 0.950 . S
C1866 C1865 1.398 . S
C1866 C1867 1.391 . S
C1867 H1855 0.950 . S
C1867 C1863 1.393 . S
C1867 C1866 1.391 . S
H1868 C1876 0.950 . S
H1869 C1881 0.950 . S
H1870 C1878 0.950 . S
H1871 C1880 0.950 . S
H1872 C1882 0.950 . S
H1873 C1884 0.950 . S
H1874 C1886 0.950 . S
H1875 C1887 0.950 . S
C1876 H1868 0.950 . S
C1876 C1877 1.386 . S
C1876 C1878 1.391 . S
C1877 C1876 1.386 . S
C1877 C1881 1.393 . S
C1878 H1870 0.950 . S
C1878 C1876 1.391 . S
C1878 C1879 1.400 . S
C1879 C1878 1.400 . S
C1879 C1880 1.398 . S
C1879 C1885 1.491 . S
C1880 H1871 0.950 . S
C1880 C1879 1.398 . S
C1880 C1881 1.391 . S
C1881 H1869 0.950 . S
C1881 C1877 1.393 . S
C1881 C1880 1.391 . S
C1882 H1872 0.950 . S
C1882 C1883 1.386 . S
C1882 C1884 1.391 . S
C1883 C1882 1.386 . S
C1883 C1887 1.393 . S
C1884 H1873 0.950 . S
C1884 C1882 1.391 . S
C1884 C1885 1.400 . S
C1885 C1879 1.491 . S
C1885 C1884 1.400 . S
C1885 C1886 1.398 . S
C1886 H1874 0.950 . S
C1886 C1885 1.398 . S
C1886 C1887 1.391 . S
C1887 H1875 0.950 . S
C1887 C1883 1.393 . S
C1887 C1886 1.391 . S
H1888 C1896 0.950 . S
H1889 C1901 0.950 . S
H1890 C1898 0.950 . S
H1891 C1900 0.950 . S
H1892 C1902 0.950 . S
H1893 C1904 0.950 . S
H1894 C1906 0.950 . S
H1895 C1907 0.950 . S
C1896 H1888 0.950 . S
C1896 C1897 1.386 . S
C1896 C1898 1.391 . S
C1897 C1896 1.386 . S
C1897 C1901 1.393 . S
C1898 H1890 0.950 . S
C1898 C1896 1.391 . S
C1898 C1899 1.400 . S
C1899 C1898 1.400 . S
C1899 C1900 1.398 . S
C1899 C1905 1.491 . S
C1900 H1891 0.950 . S
C1900 C1899 1.398 . S
C1900 C1901 1.391 . S
C1901 H1889 0.950 . S
C1901 C1897 1.393 . S
C1901 C1900 1.391 . S
C1902 H1892 0.950 . S
C1902 C1903 1.386 . S
C1902 C1904 1.391 . S
C1903 C1902 1.386 . S
C1903 C1907 1.393 . S
C1904 H1893 0.950 . S
C1904 C1902 1.391 . S
C1904 C1905 1.400 . S
C1905 C1899 1.491 . S
C1905 C1904 1.400 . S
C1905 C1906 1.398 . S
C1906 H1894 0.950 . S
C1906 C1905 1.398 . S
C1906 C1907 1.391 . S
C1907 H1895 0.950 . S
C1907 C1903 1.393 . S
C1907 C1906 1.391 . S
H1908 C1916 0.950 . S
H1909 C1921 0.950 . S
H1910 C1918 0.950 . S
H1911 C1920 0.950 . S
H1912 C1922 0.950 . S
H1913 C1924 0.950 . S
H1914 C1926 0.950 . S
H1915 C1927 0.950 . S
C1916 H1908 0.950 . S
C1916 C1917 1.386 . S
C1916 C1918 1.391 . S
C1917 C1916 1.386 . S
C1917 C1921 1.393 . S
C1918 H1910 0.950 . S
C1918 C1916 1.391 . S
C1918 C1919 1.400 . S
C1919 C1918 1.400 . S
C1919 C1920 1.398 . S
C1919 C1925 1.491 . S
C1920 H1911 0.950 . S
C1920 C1919 1.398 . S
C1920 C1921 1.391 . S
C1921 H1909 0.950 . S
C1921 C1917 1.393 . S
C1921 C1920 1.391 . S
C1922 H1912 0.950 . S
C1922 C1923 1.386 . S
C1922 C1924 1.391 . S
C1923 C1922 1.386 . S
C1923 C1927 1.393 . S
C1924 H1913 0.950 . S
C1924 C1922 1.391 . S
C1924 C1925 1.400 . S
C1925 C1919 1.491 . S
C1925 C1924 1.400 . S
C1925 C1926 1.398 . S
C1926 H1914 0.950 . S
C1926 C1925 1.398 . S
C1926 C1927 1.391 . S
C1927 H1915 0.950 . S
C1927 C1923 1.393 . S
C1927 C1926 1.391 . S
H1928 C1936 0.950 . S
H1929 C1941 0.950 . S
H1930 C1938 0.950 . S
H1931 C1940 0.950 . S
H1932 C1942 0.950 . S
H1933 C1944 0.950 . S
H1934 C1946 0.950 . S
H1935 C1947 0.950 . S
C1936 H1928 0.950 . S
C1936 C1937 1.386 . S
C1936 C1938 1.391 . S
C1937 C1936 1.386 . S
C1937 C1941 1.393 . S
C1938 H1930 0.950 . S
C1938 C1936 1.391 . S
C1938 C1939 1.400 . S
C1939 C1938 1.400 . S
C1939 C1940 1.398 . S
C1939 C1945 1.491 . S
C1940 H1931 0.950 . S
C1940 C1939 1.398 . S
C1940 C1941 1.391 . S
C1941 H1929 0.950 . S
C1941 C1937 1.393 . S
C1941 C1940 1.391 . S
C1942 H1932 0.950 . S
C1942 C1943 1.386 . S
C1942 C1944 1.391 . S
C1943 C1942 1.386 . S
C1943 C1947 1.393 . S
C1944 H1933 0.950 . S
C1944 C1942 1.391 . S
C1944 C1945 1.400 . S
C1945 C1939 1.491 . S
C1945 C1944 1.400 . S
C1945 C1946 1.398 . S
C1946 H1934 0.950 . S
C1946 C1945 1.398 . S
C1946 C1947 1.391 . S
C1947 H1935 0.950 . S
C1947 C1943 1.393 . S
C1947 C1946 1.391 . S
H1948 C1956 0.950 . S
H1949 C1961 0.950 . S
H1950 C1958 0.950 . S
H1951 C1960 0.950 . S
H1952 C1962 0.950 . S
H1953 C1964 0.950 . S
H1954 C1966 0.950 . S
H1955 C1967 0.950 . S
C1956 H1948 0.950 . S
C1956 C1957 1.386 . S
C1956 C1958 1.391 . S
C1957 C1956 1.386 . S
C1957 C1961 1.393 . S
C1958 H1950 0.950 . S
C1958 C1956 1.391 . S
C1958 C1959 1.400 . S
C1959 C1958 1.400 . S
C1959 C1960 1.398 . S
C1959 C1965 1.491 . S
C1960 H1951 0.950 . S
C1960 C1959 1.398 . S
C1960 C1961 1.391 . S
C1961 H1949 0.950 . S
C1961 C1957 1.393 . S
C1961 C1960 1.391 . S
C1962 H1952 0.950 . S
C1962 C1963 1.386 . S
C1962 C1964 1.391 . S
C1963 C1962 1.386 . S
C1963 C1967 1.393 . S
C1964 H1953 0.950 . S
C1964 C1962 1.391 . S
C1964 C1965 1.400 . S
C1965 C1959 1.491 . S
C1965 C1964 1.400 . S
C1965 C1966 1.398 . S
C1966 H1954 0.950 . S
C1966 C1965 1.398 . S
C1966 C1967 1.391 . S
C1967 H1955 0.950 . S
C1967 C1963 1.393 . S
C1967 C1966 1.391 . S
H1968 C1976 0.950 . S
H1969 C1981 0.950 . S
H1970 C1978 0.950 . S
H1971 C1980 0.950 . S
H1972 C1982 0.950 . S
H1973 C1984 0.950 . S
H1974 C1986 0.950 . S
H1975 C1987 0.950 . S
C1976 H1968 0.950 . S
C1976 C1977 1.386 . S
C1976 C1978 1.391 . S
C1977 C1976 1.386 . S
C1977 C1981 1.393 . S
C1978 H1970 0.950 . S
C1978 C1976 1.391 . S
C1978 C1979 1.400 . S
C1979 C1978 1.400 . S
C1979 C1980 1.398 . S
C1979 C1985 1.491 . S
C1980 H1971 0.950 . S
C1980 C1979 1.398 . S
C1980 C1981 1.391 . S
C1981 H1969 0.950 . S
C1981 C1977 1.393 . S
C1981 C1980 1.391 . S
C1982 H1972 0.950 . S
C1982 C1983 1.386 . S
C1982 C1984 1.391 . S
C1983 C1982 1.386 . S
C1983 C1987 1.393 . S
C1984 H1973 0.950 . S
C1984 C1982 1.391 . S
C1984 C1985 1.400 . S
C1985 C1979 1.491 . S
C1985 C1984 1.400 . S
C1985 C1986 1.398 . S
C1986 H1974 0.950 . S
C1986 C1985 1.398 . S
C1986 C1987 1.391 . S
C1987 H1975 0.950 . S
C1987 C1983 1.393 . S
C1987 C1986 1.391 . S
H1988 C1996 0.950 . S
H1989 C2001 0.950 . S
H1990 C1998 0.950 . S
H1991 C2000 0.950 . S
H1992 C2002 0.950 . S
H1993 C2004 0.950 . S
H1994 C2006 0.950 . S
H1995 C2007 0.950 . S
C1996 H1988 0.950 . S
C1996 C1997 1.386 . S
C1996 C1998 1.391 . S
C1997 C1996 1.386 . S
C1997 C2001 1.393 . S
C1998 H1990 0.950 . S
C1998 C1996 1.391 . S
C1998 C1999 1.400 . S
C1999 C1998 1.400 . S
C1999 C2000 1.398 . S
C1999 C2005 1.491 . S
C2000 H1991 0.950 . S
C2000 C1999 1.398 . S
C2000 C2001 1.391 . S
C2001 H1989 0.950 . S
C2001 C1997 1.393 . S
C2001 C2000 1.391 . S
C2002 H1992 0.950 . S
C2002 C2003 1.386 . S
C2002 C2004 1.391 . S
C2003 C2002 1.386 . S
C2003 C2007 1.393 . S
C2004 H1993 0.950 . S
C2004 C2002 1.391 . S
C2004 C2005 1.400 . S
C2005 C1999 1.491 . S
C2005 C2004 1.400 . S
C2005 C2006 1.398 . S
C2006 H1994 0.950 . S
C2006 C2005 1.398 . S
C2006 C2007 1.391 . S
C2007 H1995 0.950 . S
C2007 C2003 1.393 . S
C2007 C2006 1.391 . S
H2008 C2016 0.950 . S
H2009 C2021 0.950 . S
H2010 C2018 0.950 . S
H2011 C2020 0.950 . S
H2012 C2022 0.950 . S
H2013 C2024 0.950 . S
H2014 C2026 0.950 . S
H2015 C2027 0.950 . S
C2016 H2008 0.950 . S
C2016 C2017 1.386 . S
C2016 C2018 1.391 . S
C2017 C2016 1.386 . S
C2017 C2021 1.393 . S
C2018 H2010 0.950 . S
C2018 C2016 1.391 . S
C2018 C2019 1.400 . S
C2019 C2018 1.400 . S
C2019 C2020 1.398 . S
C2019 C2025 1.491 . S
C2020 H2011 0.950 . S
C2020 C2019 1.398 . S
C2020 C2021 1.391 . S
C2021 H2009 0.950 . S
C2021 C2017 1.393 . S
C2021 C2020 1.391 . S
C2022 H2012 0.950 . S
C2022 C2023 1.386 . S
C2022 C2024 1.391 . S
C2023 C2022 1.386 . S
C2023 C2027 1.393 . S
C2024 H2013 0.950 . S
C2024 C2022 1.391 . S
C2024 C2025 1.400 . S
C2025 C2019 1.491 . S
C2025 C2024 1.400 . S
C2025 C2026 1.398 . S
C2026 H2014 0.950 . S
C2026 C2025 1.398 . S
C2026 C2027 1.391 . S
C2027 H2015 0.950 . S
C2027 C2023 1.393 . S
C2027 C2026 1.391 . S
H2028 C2036 0.950 . S
H2029 C2041 0.950 . S
H2030 C2038 0.950 . S
H2031 C2040 0.950 . S
H2032 C2042 0.949 1_556 S
H2033 C2044 0.950 . S
H2034 C2046 0.950 . S
H2035 C2047 0.950 . S
C2036 H2028 0.950 . S
C2036 C2037 1.386 . S
C2036 C2038 1.391 . S
C2037 C2036 1.386 . S
C2037 C2041 1.393 . S
C2038 H2030 0.950 . S
C2038 C2036 1.391 . S
C2038 C2039 1.400 . S
C2039 C2038 1.400 . S
C2039 C2040 1.398 . S
C2039 C2045 1.491 . S
C2040 H2031 0.950 . S
C2040 C2039 1.398 . S
C2040 C2041 1.391 . S
C2041 H2029 0.950 . S
C2041 C2037 1.393 . S
C2041 C2040 1.391 . S
C2042 H2032 0.949 1_554 S
C2042 C2043 1.385 1_554 S
C2042 C2044 1.392 . S
C2043 C2042 1.385 1_556 S
C2043 C2047 1.393 . S
C2044 H2033 0.950 . S
C2044 C2042 1.392 . S
C2044 C2045 1.400 . S
C2045 C2039 1.491 . S
C2045 C2044 1.400 . S
C2045 C2046 1.398 . S
C2046 H2034 0.950 . S
C2046 C2045 1.398 . S
C2046 C2047 1.391 1_554 S
C2047 H2035 0.950 . S
C2047 C2043 1.393 . S
C2047 C2046 1.391 1_556 S
H2048 C2056 0.950 . S
H2049 C2061 0.950 . S
H2050 C2058 0.950 . S
H2051 C2060 0.950 . S
H2052 C2062 0.950 1_556 S
H2053 C2064 0.950 . S
H2054 C2066 0.950 . S
H2055 C2067 0.950 . S
C2056 H2048 0.950 . S
C2056 C2057 1.386 . S
C2056 C2058 1.391 . S
C2057 C2056 1.386 . S
C2057 C2061 1.393 . S
C2058 H2050 0.950 . S
C2058 C2056 1.391 . S
C2058 C2059 1.400 . S
C2059 C2058 1.400 . S
C2059 C2060 1.398 . S
C2059 C2065 1.491 . S
C2060 H2051 0.950 . S
C2060 C2059 1.398 . S
C2060 C2061 1.391 . S
C2061 H2049 0.950 . S
C2061 C2057 1.393 . S
C2061 C2060 1.391 . S
C2062 H2052 0.950 1_554 S
C2062 C2063 1.386 . S
C2062 C2064 1.391 . S
C2063 C2062 1.386 . S
C2063 C2067 1.393 . S
C2064 H2053 0.950 . S
C2064 C2062 1.391 . S
C2064 C2065 1.400 . S
C2065 C2059 1.491 . S
C2065 C2064 1.400 . S
C2065 C2066 1.398 . S
C2066 H2054 0.950 . S
C2066 C2065 1.398 . S
C2066 C2067 1.391 . S
C2067 H2055 0.950 . S
C2067 C2063 1.393 . S
C2067 C2066 1.391 . S
H2068 C2076 0.950 . S
H2069 C2081 0.950 . S
H2070 C2078 0.950 . S
H2071 C2080 0.950 . S
H2072 C2082 0.950 . S
H2073 C2084 0.950 . S
H2074 C2086 0.950 . S
H2075 C2087 0.950 . S
C2076 H2068 0.950 . S
C2076 C2077 1.386 . S
C2076 C2078 1.391 . S
C2077 C2076 1.386 . S
C2077 C2081 1.393 . S
C2078 H2070 0.950 . S
C2078 C2076 1.391 . S
C2078 C2079 1.400 . S
C2079 C2078 1.400 . S
C2079 C2080 1.398 . S
C2079 C2085 1.491 . S
C2080 H2071 0.950 . S
C2080 C2079 1.398 . S
C2080 C2081 1.391 . S
C2081 H2069 0.950 . S
C2081 C2077 1.393 . S
C2081 C2080 1.391 . S
C2082 H2072 0.950 . S
C2082 C2083 1.386 . S
C2082 C2084 1.391 1_556 S
C2083 C2082 1.386 . S
C2083 C2087 1.393 1_556 S
C2084 H2073 0.950 . S
C2084 C2082 1.391 1_554 S
C2084 C2085 1.400 . S
C2085 C2079 1.491 . S
C2085 C2084 1.400 . S
C2085 C2086 1.398 . S
C2086 H2074 0.950 . S
C2086 C2085 1.398 . S
C2086 C2087 1.391 . S
C2087 H2075 0.950 . S
C2087 C2083 1.393 1_554 S
C2087 C2086 1.391 . S
C657 C7 1.556 . S
C663 C560 1.556 . S
C683 C534 1.852 . S
C677 C39 1.849 . S
C703 C547 1.677 . S
C697 C62 1.681 . S
C717 C76 1.859 . S
C723 C614 1.864 . S
C737 C108 1.493 . S
C743 C627 1.495 . S
C757 N117 1.378 . S
C763 C640 1.379 . S
C783 C600 1.441 . S
C777 C16 1.449 . S
C797 C30 1.778 . S
C803 C574 1.777 . S
C823 C588 1.484 . S
C817 C53 1.483 . S
C837 C85 1.745 . S
C843 C497 1.742 . S
C863 C509 1.575 . S
C857 C99 1.574 . S
C877 N127 1.276 . S
C883 C523 1.301 . S
C897 N150 1.212 . S
C903 C638 1.232 . S
C923 C612 1.644 . S
C917 N173 1.589 . S
C943 C625 1.475 . S
C937 C200 1.479 . S
C957 C214 1.668 . S
C963 C458 1.678 . S
C977 N232 1.532 . S
C983 C471 1.554 . S
C997 C260 1.530 . S
C1003 C484 1.536 1_565 S
C1023 C444 1.285 . S
C1017 N140 1.302 . S
C1037 N163 1.388 . S
C1043 C424 1.381 . S
C1063 C430 1.539 . S
C1057 C191 1.535 . S
C1083 C573 1.792 . S
C1077 C223 1.797 . S
C1103 C593 1.430 . S
C1097 N242 1.404 . S
C1123 C599 1.464 . S
C1117 C269 1.467 . S
C1137 N288 1.330 . S
C1143 C482 1.357 . S
C1157 C315 1.584 . S
C1163 C456 1.581 1_655 S
C1177 C338 1.760 . S
C1183 C469 1.761 . S
C1197 C352 1.916 . S
C1203 C536 1.919 . S
C1223 C549 1.577 . S
C1217 N370 1.560 . S
C1243 C562 1.589 . S
C1237 C398 1.581 . S
C1263 C528 1.204 . S
C1257 N278 1.206 . S
C1277 C306 1.666 . S
C1283 C502 1.666 . S
C1297 C329 1.578 . S
C1303 C508 1.582 . S
C1323 C419 1.502 . S
C1317 C361 1.503 . S
C1337 N380 1.445 . S
C1343 C431 1.466 . S
C1363 C443 1.392 . S
C1357 C407 1.398 . S
C1383 C463 1.449 . S
C1377 N12 1.432 . S
C1397 N25 1.515 . S
C1403 C476 1.557 . S
C1423 C489 1.342 . S
C1417 N48 1.308 . S
C1443 C483 1.408 . S
C1437 N81 1.400 . S
C1463 C457 1.619 . S
C1457 N94 1.560 . S
C1483 C470 1.668 . S
C1477 C131 1.650 . S
C1503 C417 1.367 . S
C1497 N2 1.325 . S
C1517 N35 1.418 . S
C1523 C437 1.464 . S
C1537 N58 1.215 . S
C1543 C445 1.235 . S
C1563 C450 1.365 . S
C1557 N71 1.310 . S
C1583 C418 1.452 . S
C1577 N104 1.426 . S
C1603 C432 1.634 . S
C1597 C122 1.633 . S
C1617 C145 1.982 . S
C1623 C541 1.980 . S
C1637 C168 1.676 . S
C1643 C554 1.674 . S
C1657 N186 1.455 . S
C1663 C567 1.513 . S
C1683 C561 1.476 . S
C1677 N219 1.471 . S
C1703 C535 1.858 . S
C1697 C246 1.834 . S
C1723 C548 1.548 . S
C1717 N265 1.534 . S
C1743 C495 1.804 . S
C1737 C154 1.795 . S
C1757 C177 1.710 . S
C1763 C515 1.715 . S
C1777 N196 1.317 . S
C1783 C521 1.342 . S
C1797 N209 1.224 . S
C1803 C522 1.302 . S
C1817 C237 1.830 . S
C1823 C496 1.831 . S
C1843 C510 1.468 . S
C1837 N255 1.404 . S
C1857 C283 1.850 . S
C1863 C619 1.847 . S
C1877 N301 1.473 . S
C1883 C632 1.530 . S
C1897 N324 1.245 . S
C1903 C645 1.281 . S
C1923 C639 1.245 . S
C1917 N357 1.220 . S
C1943 C613 1.822 . S
C1937 C384 1.812 . S
C1957 N403 1.421 . S
C1963 C626 1.430 . S
C1977 C292 1.827 . S
C1983 C575 1.854 . S
C2003 C587 1.409 . S
C1997 N311 1.379 . S
C2017 N334 1.316 . S
C2023 C601 1.340 . S
C2037 N347 1.343 . S
C2043 C606 1.386 . S
C2063 C580 1.881 1_554 S
C2057 C375 1.885 . S
C2077 N393 1.382 . S
C2083 C586 1.436 . S
