# Generated by pormake.
# Topology gar, (4,6)-cn, num edge types: 1
# Building blocks:
#     Node 0, Type 0, BuildingBlock: AZAVOO_clean_sbu_0, # of connection points: 4
#     Node 1, Type 0, BuildingBlock: AZAVOO_clean_sbu_0, # of connection points: 4
#     Node 2, Type 0, BuildingBlock: AZAVOO_clean_sbu_0, # of connection points: 4
#     Node 3, Type 0, BuildingBlock: AZAVOO_clean_sbu_0, # of connection points: 4
#     Node 4, Type 0, BuildingBlock: AZAVOO_clean_sbu_0, # of connection points: 4
#     Node 5, Type 0, BuildingBlock: AZAVOO_clean_sbu_0, # of connection points: 4
#     Node 6, Type 0, BuildingBlock: AZAVOO_clean_sbu_0, # of connection points: 4
#     Node 7, Type 0, BuildingBlock: AZAVOO_clean_sbu_0, # of connection points: 4
#     Node 8, Type 0, BuildingBlock: AZAVOO_clean_sbu_0, # of connection points: 4
#     Node 9, Type 0, BuildingBlock: AZAVOO_clean_sbu_0, # of connection points: 4
#     Node 10, Type 0, BuildingBlock: AZAVOO_clean_sbu_0, # of connection points: 4
#     Node 11, Type 0, BuildingBlock: AZAVOO_clean_sbu_0, # of connection points: 4
#     Node 12, Type 0, BuildingBlock: AZAVOO_clean_sbu_0, # of connection points: 4
#     Node 13, Type 0, BuildingBlock: AZAVOO_clean_sbu_0, # of connection points: 4
#     Node 14, Type 0, BuildingBlock: AZAVOO_clean_sbu_0, # of connection points: 4
#     Node 15, Type 0, BuildingBlock: AZAVOO_clean_sbu_0, # of connection points: 4
#     Node 16, Type 0, BuildingBlock: AZAVOO_clean_sbu_0, # of connection points: 4
#     Node 17, Type 0, BuildingBlock: AZAVOO_clean_sbu_0, # of connection points: 4
#     Node 18, Type 0, BuildingBlock: AZAVOO_clean_sbu_0, # of connection points: 4
#     Node 19, Type 0, BuildingBlock: AZAVOO_clean_sbu_0, # of connection points: 4
#     Node 20, Type 0, BuildingBlock: AZAVOO_clean_sbu_0, # of connection points: 4
#     Node 21, Type 0, BuildingBlock: AZAVOO_clean_sbu_0, # of connection points: 4
#     Node 22, Type 0, BuildingBlock: AZAVOO_clean_sbu_0, # of connection points: 4
#     Node 23, Type 0, BuildingBlock: AZAVOO_clean_sbu_0, # of connection points: 4
#     Node 24, Type 1, BuildingBlock: CUKXOW_clean_sbu_0, # of connection points: 6
#     Node 25, Type 1, BuildingBlock: CUKXOW_clean_sbu_0, # of connection points: 6
#     Node 26, Type 1, BuildingBlock: CUKXOW_clean_sbu_0, # of connection points: 6
#     Node 27, Type 1, BuildingBlock: CUKXOW_clean_sbu_0, # of connection points: 6
#     Node 28, Type 1, BuildingBlock: CUKXOW_clean_sbu_0, # of connection points: 6
#     Node 29, Type 1, BuildingBlock: CUKXOW_clean_sbu_0, # of connection points: 6
#     Node 30, Type 1, BuildingBlock: CUKXOW_clean_sbu_0, # of connection points: 6
#     Node 31, Type 1, BuildingBlock: CUKXOW_clean_sbu_0, # of connection points: 6
#     Node 32, Type 1, BuildingBlock: CUKXOW_clean_sbu_0, # of connection points: 6
#     Node 33, Type 1, BuildingBlock: CUKXOW_clean_sbu_0, # of connection points: 6
#     Node 34, Type 1, BuildingBlock: CUKXOW_clean_sbu_0, # of connection points: 6
#     Node 35, Type 1, BuildingBlock: CUKXOW_clean_sbu_0, # of connection points: 6
#     Node 36, Type 1, BuildingBlock: CUKXOW_clean_sbu_0, # of connection points: 6
#     Node 37, Type 1, BuildingBlock: CUKXOW_clean_sbu_0, # of connection points: 6
#     Node 38, Type 1, BuildingBlock: CUKXOW_clean_sbu_0, # of connection points: 6
#     Node 39, Type 1, BuildingBlock: CUKXOW_clean_sbu_0, # of connection points: 6
#     Edge 40, Type (0, 1), BuildingBlock: XIVTED_clean_linker_0, # of connection points: 2
#     Edge 41, Type (0, 1), BuildingBlock: XIVTED_clean_linker_0, # of connection points: 2
#     Edge 42, Type (0, 1), BuildingBlock: XIVTED_clean_linker_0, # of connection points: 2
#     Edge 43, Type (0, 1), BuildingBlock: XIVTED_clean_linker_0, # of connection points: 2
#     Edge 44, Type (0, 1), BuildingBlock: XIVTED_clean_linker_0, # of connection points: 2
#     Edge 45, Type (0, 1), BuildingBlock: XIVTED_clean_linker_0, # of connection points: 2
#     Edge 46, Type (0, 1), BuildingBlock: XIVTED_clean_linker_0, # of connection points: 2
#     Edge 47, Type (0, 1), BuildingBlock: XIVTED_clean_linker_0, # of connection points: 2
#     Edge 48, Type (0, 1), BuildingBlock: XIVTED_clean_linker_0, # of connection points: 2
#     Edge 49, Type (0, 1), BuildingBlock: XIVTED_clean_linker_0, # of connection points: 2
#     Edge 50, Type (0, 1), BuildingBlock: XIVTED_clean_linker_0, # of connection points: 2
#     Edge 51, Type (0, 1), BuildingBlock: XIVTED_clean_linker_0, # of connection points: 2
#     Edge 52, Type (0, 1), BuildingBlock: XIVTED_clean_linker_0, # of connection points: 2
#     Edge 53, Type (0, 1), BuildingBlock: XIVTED_clean_linker_0, # of connection points: 2
#     Edge 54, Type (0, 1), BuildingBlock: XIVTED_clean_linker_0, # of connection points: 2
#     Edge 55, Type (0, 1), BuildingBlock: XIVTED_clean_linker_0, # of connection points: 2
#     Edge 56, Type (0, 1), BuildingBlock: XIVTED_clean_linker_0, # of connection points: 2
#     Edge 57, Type (0, 1), BuildingBlock: XIVTED_clean_linker_0, # of connection points: 2
#     Edge 58, Type (0, 1), BuildingBlock: XIVTED_clean_linker_0, # of connection points: 2
#     Edge 59, Type (0, 1), BuildingBlock: XIVTED_clean_linker_0, # of connection points: 2
#     Edge 60, Type (0, 1), BuildingBlock: XIVTED_clean_linker_0, # of connection points: 2
#     Edge 61, Type (0, 1), BuildingBlock: XIVTED_clean_linker_0, # of connection points: 2
#     Edge 62, Type (0, 1), BuildingBlock: XIVTED_clean_linker_0, # of connection points: 2
#     Edge 63, Type (0, 1), BuildingBlock: XIVTED_clean_linker_0, # of connection points: 2
#     Edge 64, Type (0, 1), BuildingBlock: XIVTED_clean_linker_0, # of connection points: 2
#     Edge 65, Type (0, 1), BuildingBlock: XIVTED_clean_linker_0, # of connection points: 2
#     Edge 66, Type (0, 1), BuildingBlock: XIVTED_clean_linker_0, # of connection points: 2
#     Edge 67, Type (0, 1), BuildingBlock: XIVTED_clean_linker_0, # of connection points: 2
#     Edge 68, Type (0, 1), BuildingBlock: XIVTED_clean_linker_0, # of connection points: 2
#     Edge 69, Type (0, 1), BuildingBlock: XIVTED_clean_linker_0, # of connection points: 2
#     Edge 70, Type (0, 1), BuildingBlock: XIVTED_clean_linker_0, # of connection points: 2
#     Edge 71, Type (0, 1), BuildingBlock: XIVTED_clean_linker_0, # of connection points: 2
#     Edge 72, Type (0, 1), BuildingBlock: XIVTED_clean_linker_0, # of connection points: 2
#     Edge 73, Type (0, 1), BuildingBlock: XIVTED_clean_linker_0, # of connection points: 2
#     Edge 74, Type (0, 1), BuildingBlock: XIVTED_clean_linker_0, # of connection points: 2
#     Edge 75, Type (0, 1), BuildingBlock: XIVTED_clean_linker_0, # of connection points: 2
#     Edge 76, Type (0, 1), BuildingBlock: XIVTED_clean_linker_0, # of connection points: 2
#     Edge 77, Type (0, 1), BuildingBlock: XIVTED_clean_linker_0, # of connection points: 2
#     Edge 78, Type (0, 1), BuildingBlock: XIVTED_clean_linker_0, # of connection points: 2
#     Edge 79, Type (0, 1), BuildingBlock: XIVTED_clean_linker_0, # of connection points: 2
#     Edge 80, Type (0, 1), BuildingBlock: XIVTED_clean_linker_0, # of connection points: 2
#     Edge 81, Type (0, 1), BuildingBlock: XIVTED_clean_linker_0, # of connection points: 2
#     Edge 82, Type (0, 1), BuildingBlock: XIVTED_clean_linker_0, # of connection points: 2
#     Edge 83, Type (0, 1), BuildingBlock: XIVTED_clean_linker_0, # of connection points: 2
#     Edge 84, Type (0, 1), BuildingBlock: XIVTED_clean_linker_0, # of connection points: 2
#     Edge 85, Type (0, 1), BuildingBlock: XIVTED_clean_linker_0, # of connection points: 2
#     Edge 86, Type (0, 1), BuildingBlock: XIVTED_clean_linker_0, # of connection points: 2
#     Edge 87, Type (0, 1), BuildingBlock: XIVTED_clean_linker_0, # of connection points: 2
#     Edge 88, Type (0, 1), BuildingBlock: XIVTED_clean_linker_0, # of connection points: 2
#     Edge 89, Type (0, 1), BuildingBlock: XIVTED_clean_linker_0, # of connection points: 2
#     Edge 90, Type (0, 1), BuildingBlock: XIVTED_clean_linker_0, # of connection points: 2
#     Edge 91, Type (0, 1), BuildingBlock: XIVTED_clean_linker_0, # of connection points: 2
#     Edge 92, Type (0, 1), BuildingBlock: XIVTED_clean_linker_0, # of connection points: 2
#     Edge 93, Type (0, 1), BuildingBlock: XIVTED_clean_linker_0, # of connection points: 2
#     Edge 94, Type (0, 1), BuildingBlock: XIVTED_clean_linker_0, # of connection points: 2
#     Edge 95, Type (0, 1), BuildingBlock: XIVTED_clean_linker_0, # of connection points: 2
#     Edge 96, Type (0, 1), BuildingBlock: XIVTED_clean_linker_0, # of connection points: 2
#     Edge 97, Type (0, 1), BuildingBlock: XIVTED_clean_linker_0, # of connection points: 2
#     Edge 98, Type (0, 1), BuildingBlock: XIVTED_clean_linker_0, # of connection points: 2
#     Edge 99, Type (0, 1), BuildingBlock: XIVTED_clean_linker_0, # of connection points: 2
#     Edge 100, Type (0, 1), BuildingBlock: XIVTED_clean_linker_0, # of connection points: 2
#     Edge 101, Type (0, 1), BuildingBlock: XIVTED_clean_linker_0, # of connection points: 2
#     Edge 102, Type (0, 1), BuildingBlock: XIVTED_clean_linker_0, # of connection points: 2
#     Edge 103, Type (0, 1), BuildingBlock: XIVTED_clean_linker_0, # of connection points: 2
#     Edge 104, Type (0, 1), BuildingBlock: XIVTED_clean_linker_0, # of connection points: 2
#     Edge 105, Type (0, 1), BuildingBlock: XIVTED_clean_linker_0, # of connection points: 2
#     Edge 106, Type (0, 1), BuildingBlock: XIVTED_clean_linker_0, # of connection points: 2
#     Edge 107, Type (0, 1), BuildingBlock: XIVTED_clean_linker_0, # of connection points: 2
#     Edge 108, Type (0, 1), BuildingBlock: XIVTED_clean_linker_0, # of connection points: 2
#     Edge 109, Type (0, 1), BuildingBlock: XIVTED_clean_linker_0, # of connection points: 2
#     Edge 110, Type (0, 1), BuildingBlock: XIVTED_clean_linker_0, # of connection points: 2
#     Edge 111, Type (0, 1), BuildingBlock: XIVTED_clean_linker_0, # of connection points: 2
#     Edge 112, Type (0, 1), BuildingBlock: XIVTED_clean_linker_0, # of connection points: 2
#     Edge 113, Type (0, 1), BuildingBlock: XIVTED_clean_linker_0, # of connection points: 2
#     Edge 114, Type (0, 1), BuildingBlock: XIVTED_clean_linker_0, # of connection points: 2
#     Edge 115, Type (0, 1), BuildingBlock: XIVTED_clean_linker_0, # of connection points: 2
#     Edge 116, Type (0, 1), BuildingBlock: XIVTED_clean_linker_0, # of connection points: 2
#     Edge 117, Type (0, 1), BuildingBlock: XIVTED_clean_linker_0, # of connection points: 2
#     Edge 118, Type (0, 1), BuildingBlock: XIVTED_clean_linker_0, # of connection points: 2
#     Edge 119, Type (0, 1), BuildingBlock: XIVTED_clean_linker_0, # of connection points: 2
#     Edge 120, Type (0, 1), BuildingBlock: XIVTED_clean_linker_0, # of connection points: 2
#     Edge 121, Type (0, 1), BuildingBlock: XIVTED_clean_linker_0, # of connection points: 2
#     Edge 122, Type (0, 1), BuildingBlock: XIVTED_clean_linker_0, # of connection points: 2
#     Edge 123, Type (0, 1), BuildingBlock: XIVTED_clean_linker_0, # of connection points: 2
#     Edge 124, Type (0, 1), BuildingBlock: XIVTED_clean_linker_0, # of connection points: 2
#     Edge 125, Type (0, 1), BuildingBlock: XIVTED_clean_linker_0, # of connection points: 2
#     Edge 126, Type (0, 1), BuildingBlock: XIVTED_clean_linker_0, # of connection points: 2
#     Edge 127, Type (0, 1), BuildingBlock: XIVTED_clean_linker_0, # of connection points: 2
#     Edge 128, Type (0, 1), BuildingBlock: XIVTED_clean_linker_0, # of connection points: 2
#     Edge 129, Type (0, 1), BuildingBlock: XIVTED_clean_linker_0, # of connection points: 2
#     Edge 130, Type (0, 1), BuildingBlock: XIVTED_clean_linker_0, # of connection points: 2
#     Edge 131, Type (0, 1), BuildingBlock: XIVTED_clean_linker_0, # of connection points: 2
#     Edge 132, Type (0, 1), BuildingBlock: XIVTED_clean_linker_0, # of connection points: 2
#     Edge 133, Type (0, 1), BuildingBlock: XIVTED_clean_linker_0, # of connection points: 2
#     Edge 134, Type (0, 1), BuildingBlock: XIVTED_clean_linker_0, # of connection points: 2
#     Edge 135, Type (0, 1), BuildingBlock: XIVTED_clean_linker_0, # of connection points: 2
# Relax obj value: 0.132
# Max RMSD: 0.231
# Mean RMSD: 0.169
data_MOF--net-gar--node1-AZAVOO_clean_sbu_0--node2-CUKXOW_clean_sbu_0--edge1-XIVTED_clean_linker_0
_symmetry_space_group_name_H-M    P1
_symmetry_Int_Tables_number       1
_symmetry_cell_setting            triclinic
loop_
_symmetry_equiv_pos_as_xyz
'x, y, z'
_cell_length_a     56.328802
_cell_length_b     52.587906
_cell_length_c     54.061923
_cell_angle_alpha  96.266463
_cell_angle_beta   95.231394
_cell_angle_gamma 100.42716
loop_
_atom_site_label
_atom_site_type_symbol
_atom_site_fract_x
_atom_site_fract_y
_atom_site_fract_z
_atom_type_partial_charge
Mg0 Mg 0.00446 0.25706 0.40799 0.0
O1 O 0.00255 0.29565 0.43124 0.0
O2 O 0.96656 0.28976 0.44624 0.0
Mg3 Mg 0.94507 0.24894 0.43129 0.0
C4 C 0.9871 0.30394 0.44432 0.0
C5 C 0.05208 0.28993 0.39617 0.0
O6 O 0.03687 0.30545 0.39136 0.0
O7 O 0.0101 0.23839 0.44335 0.0
O8 O 0.97234 0.23054 0.45425 0.0
O9 O 0.98804 0.2696 0.3736 0.0
O10 O 0.96709 0.24799 0.39994 0.0
C11 C 0.99469 0.22858 0.4573 0.0
C12 C 0.96721 0.25921 0.37995 0.0
O13 O 0.0447 0.26954 0.40608 0.0
Mg14 Mg -0.00028 0.82539 0.6353 0.0
O15 O 0.99239 0.78501 0.61203 0.0
O16 O 0.95573 0.77876 0.5902 0.0
Mg17 Mg 0.93999 0.8153 0.59913 0.0
C18 C 0.97541 0.77106 0.59639 0.0
C19 C 0.05562 0.84259 0.64922 0.0
O20 O 0.05034 0.86574 0.64763 0.0
O21 O 0.00764 0.84355 0.60024 0.0
O22 O 0.97039 0.83736 0.57952 0.0
O23 O 0.98151 0.80913 0.66646 0.0
O24 O 0.96296 0.82459 0.63518 0.0
C25 C 0.99331 0.84589 0.58132 0.0
C26 C 0.96163 0.81356 0.65526 0.0
O27 O 0.03883 0.8225 0.64439 0.0
Mg28 Mg 0.53561 0.781 0.91757 0.0
O29 O 0.51995 0.81205 0.9397 0.0
O30 O 0.48007 0.80031 0.94041 0.0
Mg31 Mg 0.47005 0.75929 0.91801 0.0
C32 C 0.49995 0.81673 0.94644 0.0
C33 C 0.5917 0.81155 0.9259 0.0
O34 O 0.61011 0.82683 0.94003 0.0
O35 O 0.53284 0.7558 0.94928 0.0
O36 O 0.49263 0.74225 0.94715 0.0
O37 O 0.5259 0.79744 0.88189 0.0
O38 O 0.50208 0.76619 0.89702 0.0
C39 C 0.51425 0.74226 0.95669 0.0
C40 C 0.50522 0.78149 0.8802 0.0
O41 O 0.57247 0.80375 0.93566 0.0
Mg42 Mg 0.50109 0.3437 0.13774 0.0
O43 O 0.5044 0.30342 0.11721 0.0
O44 O 0.46581 0.28678 0.10105 0.0
Mg45 Mg 0.43901 0.31206 0.11299 0.0
C46 C 0.48835 0.28552 0.10385 0.0
C47 C 0.56076 0.36182 0.14713 0.0
O48 O 0.58 0.37888 0.14395 0.0
O49 O 0.49375 0.35597 0.10019 0.0
O50 O 0.45484 0.34017 0.08599 0.0
O51 O 0.49657 0.32809 0.17453 0.0
O52 O 0.46711 0.32746 0.14444 0.0
C53 C 0.47566 0.35352 0.0837 0.0
C54 C 0.4738 0.32115 0.1659 0.0
O55 O 0.54018 0.36396 0.13701 0.0
Mg56 Mg 0.98392 0.76872 0.16463 0.0
O57 O 0.98461 0.72912 0.14253 0.0
O58 O 0.94918 0.71507 0.11869 0.0
Mg59 Mg 0.92575 0.74608 0.12556 0.0
C60 C 0.97051 0.71222 0.12645 0.0
C61 C 0.03735 0.79407 0.18838 0.0
O62 O 0.02743 0.81464 0.19278 0.0
O63 O 0.98931 0.78832 0.12928 0.0
O64 O 0.95241 0.77544 0.10771 0.0
O65 O 0.96626 0.75038 0.19562 0.0
O66 O 0.94609 0.76088 0.16259 0.0
C67 C 0.97411 0.78869 0.11029 0.0
C68 C 0.94559 0.75141 0.18353 0.0
O69 O 0.02449 0.77322 0.17644 0.0
Mg70 Mg 0.51323 0.7686 0.35376 0.0
O71 O 0.50915 0.80566 0.37929 0.0
O72 O 0.47252 0.79609 0.39278 0.0
Mg73 Mg 0.45463 0.75391 0.37896 0.0
C74 C 0.49232 0.81197 0.39169 0.0
C75 C 0.56829 0.76917 0.35303 0.0
O76 O 0.56046 0.74597 0.35938 0.0
O77 O 0.52184 0.74902 0.38851 0.0
O78 O 0.48518 0.74012 0.40189 0.0
O79 O 0.49296 0.78142 0.32094 0.0
O80 O 0.47569 0.75646 0.34707 0.0
C81 C 0.50784 0.73943 0.40388 0.0
C82 C 0.47333 0.76898 0.32816 0.0
O83 O 0.5534 0.78451 0.35061 0.0
Mg84 Mg 0.47782 0.26644 0.66856 0.0
O85 O 0.47985 0.22685 0.6474 0.0
O86 O 0.44546 0.21125 0.6224 0.0
Mg87 Mg 0.42066 0.24134 0.62876 0.0
C88 C 0.46683 0.20938 0.63107 0.0
C89 C 0.53043 0.28953 0.69674 0.0
O90 O 0.51955 0.3079 0.70601 0.0
O91 O 0.4829 0.28589 0.63305 0.0
O92 O 0.44617 0.27245 0.61126 0.0
O93 O 0.46032 0.24887 0.69985 0.0
O94 O 0.43967 0.25785 0.66636 0.0
C95 C 0.46761 0.28641 0.61418 0.0
C96 C 0.43949 0.24944 0.68785 0.0
O97 O 0.51851 0.2713 0.68049 0.0
Mg98 Mg 0.00757 0.26869 0.84933 0.0
O99 O 0.00152 0.30643 0.87269 0.0
O100 O 0.96363 0.29676 0.88316 0.0
Mg101 Mg 0.94675 0.25417 0.87025 0.0
C102 C 0.98354 0.31284 0.88309 0.0
C103 C 0.05494 0.29591 0.8299 0.0
O104 O 0.03805 0.30144 0.81411 0.0
O105 O 0.01419 0.25047 0.88559 0.0
O106 O 0.97624 0.24209 0.89593 0.0
O107 O 0.98854 0.27976 0.8144 0.0
O108 O 0.9702 0.25568 0.84046 0.0
C109 C 0.99884 0.24156 0.90009 0.0
C110 C 0.9686 0.26721 0.82085 0.0
O111 O 0.04847 0.28433 0.8484 0.0
Mg112 Mg 0.4169 0.09646 0.27587 0.0
O113 O 0.39205 0.05729 0.27921 0.0
O114 O 0.37938 0.06012 0.31721 0.0
Mg115 Mg 0.39528 0.10067 0.3379 0.0
C116 C 0.37984 0.04741 0.2958 0.0
C117 C 0.42538 0.06352 0.22817 0.0
O118 O 0.43049 0.04942 0.24584 0.0
O119 O 0.38328 0.1153 0.26987 0.0
O120 O 0.37266 0.11758 0.30881 0.0
O121 O 0.44904 0.0826 0.29362 0.0
O122 O 0.42525 0.10369 0.31467 0.0
C123 C 0.36942 0.12171 0.286 0.0
C124 C 0.44315 0.0916 0.31497 0.0
O125 O 0.41744 0.08426 0.23411 0.0
Mg126 Mg 0.29202 0.15056 0.47782 0.0
O127 O 0.29432 0.17327 0.51649 0.0
O128 O 0.33294 0.19236 0.52898 0.0
Mg129 Mg 0.35548 0.17989 0.49821 0.0
C130 C 0.31055 0.18769 0.53256 0.0
C131 C 0.23759 0.137 0.45456 0.0
O132 O 0.24695 0.12865 0.43454 0.0
O133 O 0.29818 0.18829 0.46156 0.0
O134 O 0.33794 0.20426 0.47125 0.0
O135 O 0.296 0.11541 0.4949 0.0
O136 O 0.32694 0.14458 0.48642 0.0
C137 C 0.31707 0.20539 0.46047 0.0
C138 C 0.3192 0.12403 0.49673 0.0
O139 O 0.25162 0.14807 0.47392 0.0
Mg140 Mg 0.13866 0.98129 0.78693 0.0
O141 O 0.15761 0.02425 0.79223 0.0
O142 O 0.17533 0.03444 0.83159 0.0
Mg143 Mg 0.1674 0.99772 0.85117 0.0
C144 C 0.1703 0.04064 0.80979 0.0
C145 C 0.12113 0.96313 0.7308 0.0
O146 O 0.1096 0.94321 0.74044 0.0
O147 O 0.17486 0.96912 0.78574 0.0
O148 O 0.19126 0.97747 0.82569 0.0
O149 O 0.10508 0.99234 0.79922 0.0
O150 O 0.13436 0.98267 0.82463 0.0
C151 C 0.19195 0.96877 0.80277 0.0
C152 C 0.11386 0.99023 0.82174 0.0
O153 O 0.13477 0.9818 0.74521 0.0
Mg154 Mg 0.22326 0.90248 0.02094 0.0
O155 O 0.22743 0.87723 0.98313 0.0
O156 O 0.26389 0.86642 0.99022 0.0
Mg157 Mg 0.28321 0.88394 0.0288 0.0
C158 C 0.24441 0.86579 0.9759 0.0
C159 C 0.17233 0.91134 0.02997 0.0
O160 O 0.18363 0.91241 0.05254 0.0
O161 O 0.21692 0.86723 0.04392 0.0
O162 O 0.25489 0.85975 0.04872 0.0
O163 O 0.24215 0.93865 0.00663 0.0
O164 O 0.26058 0.91338 0.02842 0.0
C165 C 0.23274 0.85501 0.05309 0.0
C166 C 0.26212 0.9335 0.01681 0.0
O167 O 0.18282 0.90412 0.01122 0.0
Mg168 Mg 0.2642 0.43953 0.06065 0.0
O169 O 0.26875 0.41131 0.02665 0.0
O170 O 0.30177 0.39437 0.03517 0.0
Mg171 Mg 0.31696 0.40978 0.07546 0.0
C172 C 0.28347 0.39655 0.02037 0.0
C173 C 0.22595 0.46563 0.03653 0.0
O174 O 0.24463 0.48477 0.04347 0.0
O175 O 0.24816 0.40468 0.0793 0.0
O176 O 0.28134 0.38755 0.08655 0.0
O177 O 0.28878 0.4711 0.04689 0.0
O178 O 0.30149 0.44489 0.07224 0.0
C179 C 0.25863 0.38703 0.08714 0.0
C180 C 0.30663 0.46306 0.05829 0.0
O181 O 0.22735 0.44298 0.04193 0.0
Mg182 Mg 0.80117 0.14824 0.9852 0.0
O183 O 0.80089 0.17492 0.02161 0.0
O184 O 0.83479 0.20492 0.02872 0.0
Mg185 Mg 0.85649 0.19654 0.99528 0.0
C186 C 0.81429 0.19459 0.03502 0.0
C187 C 0.75489 0.12394 0.00694 0.0
O188 O 0.77187 0.1223 0.02471 0.0
O189 O 0.79283 0.17935 0.96134 0.0
O190 O 0.82798 0.20782 0.9662 0.0
O191 O 0.81985 0.12215 0.00595 0.0
O192 O 0.83972 0.15391 0.98779 0.0
C193 C 0.80602 0.20002 0.95607 0.0
C194 C 0.84037 0.13465 0.00068 0.0
O195 O 0.76104 0.13354 0.98736 0.0
Mg196 Mg 0.10122 0.47992 0.27978 0.0
O197 O 0.12645 0.51942 0.28042 0.0
O198 O 0.14952 0.52877 0.31739 0.0
Mg199 Mg 0.1369 0.49668 0.34142 0.0
C200 C 0.14335 0.53417 0.29555 0.0
C201 C 0.07002 0.47403 0.22928 0.0
O202 O 0.05385 0.47047 0.24525 0.0
O203 O 0.13335 0.45891 0.27603 0.0
O204 O 0.15212 0.4679 0.31511 0.0
O205 O 0.07298 0.49995 0.29519 0.0
O206 O 0.10126 0.48665 0.31867 0.0
C207 C 0.15008 0.45638 0.29273 0.0
C208 C 0.08321 0.49858 0.3173 0.0
O209 O 0.09244 0.47774 0.23743 0.0
Mg210 Mg 0.77792 0.93117 0.56878 0.0
O211 O 0.78229 0.90632 0.53227 0.0
O212 O 0.81335 0.88613 0.54033 0.0
Mg213 Mg 0.82848 0.8972 0.58125 0.0
C214 C 0.79634 0.89098 0.52537 0.0
C215 C 0.73999 0.96126 0.54804 0.0
O216 O 0.75913 0.97991 0.55481 0.0
O217 O 0.75998 0.89391 0.58314 0.0
O218 O 0.79201 0.875 0.59032 0.0
O219 O 0.80462 0.96455 0.55948 0.0
O220 O 0.81477 0.93347 0.58027 0.0
C221 C 0.76932 0.87509 0.59011 0.0
C222 C 0.8214 0.95368 0.56926 0.0
O223 O 0.74145 0.93805 0.55158 0.0
Mg224 Mg 0.87059 0.06071 0.24079 0.0
O225 O 0.85261 0.01963 0.2493 0.0
O226 O 0.84492 0.02569 0.28915 0.0
Mg227 Mg 0.8574 0.06809 0.30599 0.0
C228 C 0.84429 0.01089 0.26865 0.0
C229 C 0.87827 0.06643 0.18796 0.0
O230 O 0.88108 0.09025 0.19958 0.0
O231 O 0.83377 0.07321 0.23778 0.0
O232 O 0.82901 0.07936 0.2785 0.0
O233 O 0.90719 0.05452 0.25482 0.0
O234 O 0.883 0.07251 0.27824 0.0
C235 C 0.82188 0.08022 0.25553 0.0
C236 C 0.90304 0.06435 0.27663 0.0
O237 O 0.86953 0.04755 0.19933 0.0
Mg238 Mg 0.30188 0.65619 0.48656 0.0
O239 O 0.30809 0.68526 0.52287 0.0
O240 O 0.34477 0.71025 0.52473 0.0
Mg241 Mg 0.36153 0.69673 0.48934 0.0
C242 C 0.32482 0.70372 0.53397 0.0
C243 C 0.25453 0.63733 0.51072 0.0
O244 O 0.27083 0.63398 0.52844 0.0
O245 O 0.2958 0.68764 0.46225 0.0
O246 O 0.33307 0.71121 0.46264 0.0
O247 O 0.31826 0.62729 0.5058 0.0
O248 O 0.33942 0.65639 0.48576 0.0
C249 C 0.31032 0.70614 0.45492 0.0
C250 C 0.33891 0.63693 0.49854 0.0
O251 O 0.26158 0.64662 0.49131 0.0
Mg252 Mg 0.36335 0.56513 0.73279 0.0
O253 O 0.34271 0.52448 0.73915 0.0
O254 O 0.33345 0.52984 0.77846 0.0
Mg255 Mg 0.34886 0.57106 0.79753 0.0
C256 C 0.33282 0.51559 0.75764 0.0
C257 C 0.37566 0.57182 0.6823 0.0
O258 O 0.3808 0.59499 0.6956 0.0
O259 O 0.32849 0.58155 0.72999 0.0
O260 O 0.32389 0.58781 0.77074 0.0
O261 O 0.39867 0.55584 0.74689 0.0
O262 O 0.37522 0.57489 0.77044 0.0
C263 C 0.31768 0.59032 0.74795 0.0
C264 C 0.39474 0.56574 0.76875 0.0
O265 O 0.36287 0.55333 0.69132 0.0
Mg266 Mg 0.59074 0.97743 0.79385 0.0
O267 O 0.6192 0.01445 0.7929 0.0
O268 O 0.6416 0.02388 0.83016 0.0
Mg269 Mg 0.62748 0.99296 0.85471 0.0
C270 C 0.63646 0.02881 0.80791 0.0
C271 C 0.56036 0.96915 0.74254 0.0
O272 O 0.5434 0.9664 0.75771 0.0
O273 O 0.61969 0.95278 0.79073 0.0
O274 O 0.64075 0.96194 0.82875 0.0
O275 O 0.56527 0.00159 0.80837 0.0
O276 O 0.59165 0.98589 0.83233 0.0
C277 C 0.63674 0.94956 0.80661 0.0
C278 C 0.57534 1.00012 0.83055 0.0
O279 O 0.58251 0.97358 0.75169 0.0
Mg280 Mg 0.78046 0.65584 0.97439 0.0
O281 O 0.78363 0.6776 0.01373 0.0
O282 O 0.82255 0.69662 0.02471 0.0
Mg283 Mg 0.84375 0.68681 0.99196 0.0
C284 C 0.8005 0.69156 0.02944 0.0
C285 C 0.72698 0.63937 0.95229 0.0
O286 O 0.73743 0.63277 0.93245 0.0
O287 O 0.78408 0.69388 0.95903 0.0
O288 O 0.82353 0.71172 0.96736 0.0
O289 O 0.78633 0.62075 0.99027 0.0
O290 O 0.81602 0.65077 0.98079 0.0
C291 C 0.802 0.71209 0.95776 0.0
C292 C 0.80936 0.62987 0.99103 0.0
O293 O 0.74006 0.65132 0.97191 0.0
Mg294 Mg 0.90512 0.58649 0.7569 0.0
O295 O 0.88022 0.5473 0.76072 0.0
O296 O 0.86594 0.5525 0.79786 0.0
Mg297 Mg 0.88012 0.59371 0.81705 0.0
C298 C 0.86734 0.53855 0.77738 0.0
C299 C 0.91825 0.55415 0.71063 0.0
O300 O 0.92444 0.54129 0.72893 0.0
O301 O 0.87149 0.60431 0.74792 0.0
O302 O 0.85763 0.60778 0.78545 0.0
O303 O 0.93661 0.57378 0.77681 0.0
O304 O 0.91169 0.59499 0.79595 0.0
C305 C 0.85599 0.6105 0.7622 0.0
C306 C 0.92964 0.58292 0.79755 0.0
O307 O 0.90791 0.57342 0.71559 0.0
Mg308 Mg 0.72217 0.39166 0.52085 0.0
O309 O 0.71653 0.36364 0.48279 0.0
O310 O 0.74992 0.34608 0.48378 0.0
Mg311 Mg 0.77675 0.36274 0.51837 0.0
C312 C 0.72944 0.34834 0.47292 0.0
C313 C 0.68174 0.41756 0.53542 0.0
O314 O 0.70139 0.4277 0.55087 0.0
O315 O 0.71568 0.35821 0.54574 0.0
O316 O 0.75096 0.34443 0.54463 0.0
O317 O 0.74169 0.42461 0.50239 0.0
O318 O 0.75952 0.39674 0.521 0.0
C319 C 0.73037 0.34376 0.55293 0.0
C320 C 0.76144 0.41653 0.50888 0.0
O321 O 0.68286 0.39876 0.51881 0.0
Mg322 Mg 0.62483 0.48247 0.281 0.0
O323 O 0.65102 0.52202 0.28847 0.0
O324 O 0.66935 0.52666 0.32749 0.0
Mg325 Mg 0.65458 0.48975 0.34469 0.0
C326 C 0.66597 0.53519 0.30648 0.0
C327 C 0.61442 0.46685 0.22309 0.0
O328 O 0.61127 0.44323 0.22961 0.0
O329 O 0.65616 0.46146 0.27715 0.0
O330 O 0.67261 0.46474 0.31687 0.0
O331 O 0.59534 0.50039 0.29571 0.0
O332 O 0.62079 0.48254 0.31873 0.0
C333 C 0.67175 0.45641 0.2936 0.0
C334 C 0.60283 0.49461 0.31739 0.0
O335 O 0.62085 0.4864 0.23987 0.0
Tb336 Tb 0.01694 0.05472 0.01294 0.0
C337 C 0.02118 0.01342 0.96889 0.0
Tb338 Tb 7e-05 0.99654 0.01798 0.0
O339 O 0.05492 0.04975 0.01522 0.0
O340 O 0.02988 0.02631 0.03277 0.0
O341 O 0.01577 0.03674 0.97458 0.0
C342 C -0.00051 0.94728 0.02604 0.0
O343 O 0.01886 0.99544 0.9844 0.0
C344 C 0.96542 0.02148 0.00467 0.0
C345 C 0.9926 0.0383 0.06129 0.0
O346 O 0.98549 0.9545 0.00874 0.0
O347 O 0.0136 0.9677 0.03854 0.0
O348 O 0.9621 0.00082 0.01611 0.0
O349 O 0.98679 0.02508 0.99852 0.0
O350 O 0.99407 0.0136 0.05469 0.0
O351 O 0.00037 0.05742 0.04801 0.0
C352 C 0.02071 0.1048 0.0056 0.0
O353 O 0.00109 0.08951 0.0097 0.0
O354 O 0.03834 0.09203 0.00618 0.0
C355 C 0.05134 0.02954 0.02712 0.0
Tb356 Tb 0.26425 0.81408 0.26559 0.0
C357 C 0.30398 0.7786 0.26174 0.0
Tb358 Tb 0.24785 0.75608 0.25344 0.0
O359 O 0.25684 0.81287 0.30482 0.0
O360 O 0.26616 0.78128 0.28499 0.0
O361 O 0.29884 0.80197 0.25947 0.0
C362 C 0.2269 0.70723 0.25775 0.0
O363 O 0.28665 0.7583 0.26363 0.0
C364 C 0.25304 0.78038 0.21335 0.0
C365 C 0.20825 0.79222 0.25695 0.0
O366 O 0.24462 0.71367 0.24447 0.0
O367 O 0.22114 0.72813 0.26846 0.0
O368 O 0.25495 0.75624 0.21428 0.0
O369 O 0.24583 0.78856 0.23357 0.0
O370 O 0.21345 0.76884 0.25896 0.0
O371 O 0.22555 0.81275 0.25579 0.0
C372 C 0.28358 0.86459 0.26666 0.0
O373 O 0.26997 0.85467 0.28262 0.0
O374 O 0.28616 0.84606 0.24977 0.0
C375 C 0.25876 0.78874 0.30522 0.0
Tb376 Tb 0.53879 0.02055 0.51818 0.0
C377 C 0.51948 0.99924 0.56623 0.0
Tb378 Tb 0.48562 0.02016 0.52602 0.0
O379 O 0.55093 0.05181 0.54997 0.0
O380 O 0.51755 0.04825 0.52877 0.0
O381 O 0.53681 1.00035 0.55111 0.0
C382 C 0.44563 0.03246 0.54276 0.0
O383 O 0.4987 0.007 0.56073 0.0
C384 C 0.4927 0.98145 0.49494 0.0
C385 C 0.50486 0.04126 0.47813 0.0
O386 O 0.4465 0.01081 0.52912 0.0
O387 O 0.46708 0.04692 0.5466 0.0
O388 O 0.47294 0.99095 0.49375 0.0
O389 O 0.5064 0.99188 0.51466 0.0
O390 O 0.48907 0.04269 0.49479 0.0
O391 O 0.52446 0.03079 0.48217 0.0
C392 C 0.58068 0.00959 0.50486 0.0
O393 O 0.57673 0.03283 0.51142 0.0
O394 O 0.56087 0.99277 0.50521 0.0
C395 C 0.5305 0.05994 0.54825 0.0
Tb396 Tb 0.25894 0.28267 0.80088 0.0
C397 C 0.2679 0.32609 0.76502 0.0
Tb398 Tb 0.24885 0.26666 0.74211 0.0
O399 O 0.29819 0.28978 0.79812 0.0
O400 O 0.27446 0.26276 0.77202 0.0
O401 O 0.26327 0.32053 0.78767 0.0
C402 C 0.25893 0.25322 0.69604 0.0
O403 O 0.26602 0.30801 0.74533 0.0
C404 C 0.21148 0.28216 0.76124 0.0
C405 C 0.23526 0.2242 0.77882 0.0
O406 O 0.27279 0.27048 0.71273 0.0
O407 O 0.23914 0.24358 0.70519 0.0
O408 O 0.21162 0.27534 0.73734 0.0
O409 O 0.2318 0.28038 0.77157 0.0
O410 O 0.24044 0.22869 0.75587 0.0
O411 O 0.23892 0.24278 0.79836 0.0
C412 C 0.25588 0.29663 0.84904 0.0
O413 O 0.26954 0.28097 0.84055 0.0
O414 O 0.24379 0.30402 0.83044 0.0
C415 C 0.29624 0.27428 0.77727 0.0
Tb416 Tb 0.01744 0.03202 0.47587 0.0
C417 C 0.98527 0.0099 0.5161 0.0
Tb418 Tb 0.04319 0.02592 0.52666 0.0
O419 O 0.0084 0.98997 0.4655 0.0
O420 O 0.03968 0.00703 0.48961 0.0
O421 O 0.98538 0.01899 0.4941 0.0
C422 C 0.06228 0.00729 0.56607 0.0
O423 O 0.00531 0.0102 0.5313 0.0
C424 C 0.03323 0.07202 0.5228 0.0
C425 C 0.07409 0.04986 0.48743 0.0
O426 O 0.04494 0.9943 0.54961 0.0
O427 O 0.06856 0.03076 0.56055 0.0
O428 O 0.05095 0.06825 0.53815 0.0
O429 O 0.02082 0.05044 0.51304 0.0
O430 O 0.07371 0.03428 0.50516 0.0
O431 O 0.05395 0.05453 0.47568 0.0
C432 C 0.00041 0.04855 0.43442 0.0
O433 O 0.01411 0.03129 0.43538 0.0
O434 O 0.99615 0.05656 0.45687 0.0
C435 C 0.0265 0.98563 0.47999 0.0
Tb436 Tb 0.30966 0.80056 0.76075 0.0
C437 C 0.27218 0.81237 0.79793 0.0
Tb438 Tb 0.25928 0.80553 0.73846 0.0
O439 O 0.31713 0.84152 0.77673 0.0
O440 O 0.29426 0.82907 0.74361 0.0
O441 O 0.29174 0.80193 0.79499 0.0
C442 C 0.21755 0.81951 0.72437 0.0
O443 O 0.25856 0.81797 0.77858 0.0
C444 C 0.26571 0.75781 0.73926 0.0
C445 C 0.29551 0.79039 0.70133 0.0
O446 O 0.23886 0.83177 0.72079 0.0
O447 O 0.21982 0.79957 0.73589 0.0
O448 O 0.25078 0.76464 0.7227 0.0
O449 O 0.27443 0.7769 0.75578 0.0
O450 O 0.27604 0.80106 0.70382 0.0
O451 O 0.3099 0.78654 0.72095 0.0
C452 C 0.35251 0.78904 0.77548 0.0
O453 O 0.34931 0.80882 0.76414 0.0
O454 O 0.33148 0.7754 0.77831 0.0
C455 C 0.3025 0.8484 0.75993 0.0
Tb456 Tb 0.47749 0.0499 0.02006 0.0
C457 C 0.50346 0.00049 0.02045 0.0
Tb458 Tb 0.53238 0.05812 0.03565 0.0
O459 O 0.48355 0.06235 0.98328 0.0
O460 O 0.50852 0.04503 0.00272 0.0
O461 O 0.48284 0.0095 0.02064 0.0
C462 C 0.57963 0.07256 0.03232 0.0
O463 O 0.52508 0.01631 0.02301 0.0
C464 C 0.50498 0.0506 0.07163 0.0
C465 C 0.50612 0.1075 0.03557 0.0
O466 O 0.57053 0.06058 0.05012 0.0
O467 O 0.5622 0.07653 0.01675 0.0
O468 O 0.52662 0.04505 0.07219 0.0
O469 O 0.50135 0.06259 0.05321 0.0
O470 O 0.52688 0.09867 0.03708 0.0
O471 O 0.48446 0.09176 0.03135 0.0
C472 C 0.42986 0.03526 0.02094 0.0
O473 O 0.44005 0.0438 0.00206 0.0
O474 O 0.44646 0.0351 0.03914 0.0
C475 C 0.50506 0.05651 0.98394 0.0
Tb476 Tb 0.22845 0.27795 0.27275 0.0
C477 C 0.27422 0.28163 0.31084 0.0
Tb478 Tb 0.27863 0.28687 0.25358 0.0
O479 O 0.23225 0.23919 0.28143 0.0
O480 O 0.24951 0.25507 0.25259 0.0
O481 O 0.25179 0.28614 0.30796 0.0
C482 C 0.32331 0.28514 0.24195 0.0
O483 O 0.2868 0.27782 0.29161 0.0
C484 C 0.25919 0.32813 0.26233 0.0
C485 C 0.23272 0.2824 0.21519 0.0
O486 O 0.31761 0.30292 0.25764 0.0
O487 O 0.30381 0.26858 0.23249 0.0
O488 O 0.27345 0.32568 0.24501 0.0
O489 O 0.25811 0.30907 0.27452 0.0
O490 O 0.25558 0.27908 0.21823 0.0
O491 O 0.21938 0.28477 0.23407 0.0
C492 C 0.18638 0.28279 0.28975 0.0
O493 O 0.20451 0.30175 0.28931 0.0
O494 O 0.19172 0.26114 0.28003 0.0
C495 C 0.24749 0.23618 0.26522 0.0
Tb496 Tb 0.50665 0.53569 0.96739 0.0
C497 C 0.47237 0.51714 0.00655 0.0
Tb498 Tb 0.52981 0.52496 0.01755 0.0
O499 O 0.48975 0.4948 0.95727 0.0
O500 O 0.52261 0.50564 0.98047 0.0
O501 O 0.47466 0.53043 0.98709 0.0
C502 C 0.54429 0.50724 0.05948 0.0
O503 O 0.49114 0.51038 0.01917 0.0
C504 C 0.52916 0.57395 0.01335 0.0
C505 C 0.56397 0.54489 0.97921 0.0
O506 O 0.54513 0.49607 0.03703 0.0
O507 O 0.53523 0.52806 0.05818 0.0
O508 O 0.54611 0.56651 0.02704 0.0
O509 O 0.51304 0.55452 0.00451 0.0
O510 O 0.56192 0.53099 0.9982 0.0
O511 O 0.54509 0.55142 0.96669 0.0
C512 C 0.49367 0.55445 0.92581 0.0
O513 O 0.50477 0.53504 0.92703 0.0
O514 O 0.48967 0.56338 0.94809 0.0
C515 C 0.506 0.48663 0.97126 0.0
Tb516 Tb 0.76858 0.264 0.25797 0.0
C517 C 0.73116 0.27622 0.29442 0.0
Tb518 Tb 0.717 0.2639 0.23518 0.0
O519 O 0.77462 0.30539 0.27179 0.0
O520 O 0.75065 0.29025 0.23967 0.0
O521 O 0.75075 0.26588 0.29186 0.0
C522 C 0.67346 0.27306 0.21998 0.0
O523 O 0.71711 0.28054 0.27469 0.0
C524 C 0.72709 0.21787 0.23927 0.0
C525 C 0.75585 0.25262 0.19897 0.0
O526 O 0.6784 0.26174 0.2394 0.0
O527 O 0.693 0.27957 0.20935 0.0
O528 O 0.71089 0.22193 0.22235 0.0
O529 O 0.73462 0.2384 0.25411 0.0
O530 O 0.73505 0.26096 0.20091 0.0
O531 O 0.77024 0.24966 0.21887 0.0
C532 C 0.81134 0.25407 0.27475 0.0
O533 O 0.80817 0.27269 0.26169 0.0
O534 O 0.79039 0.24075 0.2781 0.0
C535 C 0.75852 0.31037 0.25523 0.0
Tb536 Tb 0.97574 0.5379 0.50465 0.0
C537 C 0.0062 0.49238 0.50822 0.0
Tb538 Tb 0.03048 0.55145 0.52087 0.0
O539 O 0.98091 0.54915 0.46723 0.0
O540 O 0.00768 0.53535 0.48773 0.0
O541 O 0.98472 0.4995 0.50801 0.0
C542 C 0.07769 0.57026 0.52037 0.0
O543 O 0.02687 0.5096 0.50957 0.0
C544 C 0.0031 0.54217 0.55675 0.0
C545 C -0.00075 0.59696 0.51962 0.0
O546 O 0.06822 0.55883 0.53827 0.0
O547 O 0.06062 0.57105 0.50284 0.0
O548 O 0.02535 0.53841 0.55757 0.0
O549 O 0.99858 0.55334 0.53797 0.0
O550 O 0.0211 0.59043 0.52037 0.0
O551 O 0.9788 0.57925 0.5163 0.0
C552 C 0.92891 0.51742 0.50498 0.0
O553 O 0.93784 0.52973 0.48733 0.0
O554 O 0.94624 0.51697 0.5223 0.0
C555 C 0.0032 0.54555 0.46834 0.0
Tb556 Tb 0.7699 0.77401 0.30466 0.0
C557 C 0.77672 0.82052 0.27065 0.0
Tb558 Tb 0.75574 0.76235 0.24816 0.0
O559 O 0.80212 0.75635 0.30147 0.0
O560 O 0.78829 0.77428 0.27236 0.0
O561 O 0.77467 0.81333 0.29333 0.0
C562 C 0.7592 0.74371 0.20114 0.0
O563 O 0.77304 0.80329 0.25013 0.0
C564 C 0.72178 0.77545 0.27418 0.0
C565 C 0.74714 0.71605 0.28265 0.0
O566 O 0.74321 0.75731 0.2079 0.0
O567 O 0.77263 0.74032 0.22077 0.0
O568 O 0.7227 0.77886 0.25076 0.0
O569 O 0.73744 0.76239 0.28037 0.0
O570 O 0.74869 0.72291 0.25971 0.0
O571 O 0.75197 0.73346 0.3031 0.0
C572 C 0.77224 0.79353 0.35256 0.0
O573 O 0.7876 0.78066 0.34313 0.0
O574 O 0.75543 0.79517 0.33509 0.0
C575 C 0.80362 0.76077 0.27844 0.0
Tb576 Tb 0.75708 0.305 0.76514 0.0
C577 C 0.79731 0.26978 0.75875 0.0
Tb578 Tb 0.74141 0.2464 0.75526 0.0
O579 O 0.75112 0.30576 0.8048 0.0
O580 O 0.75988 0.27338 0.78573 0.0
O581 O 0.79189 0.29341 0.75949 0.0
C582 C 0.72465 0.19699 0.76187 0.0
O583 O 0.78054 0.24843 0.75861 0.0
C584 C 0.74675 0.26952 0.71481 0.0
C585 C 0.70152 0.28184 0.75968 0.0
O586 O 0.72007 0.20722 0.74159 0.0
O587 O 0.73874 0.21445 0.77806 0.0
O588 O 0.75037 0.246 0.71672 0.0
O589 O 0.73863 0.27795 0.73444 0.0
O590 O 0.70736 0.25898 0.76314 0.0
O591 O 0.71816 0.30217 0.75646 0.0
C592 C 0.77507 0.355 0.76214 0.0
O593 O 0.76218 0.34639 0.77923 0.0
O594 O 0.77772 0.33544 0.74651 0.0
C595 C 0.75279 0.28164 0.80595 0.0
Tb596 Tb 0.71126 0.76135 0.76203 0.0
C597 C 0.75539 0.77976 0.80637 0.0
Tb598 Tb 0.7634 0.78137 0.75048 0.0
O599 O 0.71298 0.72116 0.74663 0.0
O600 O 0.74415 0.74771 0.76272 0.0
O601 O 0.73151 0.77519 0.79938 0.0
C602 C 0.80587 0.78867 0.73186 0.0
O603 O 0.77166 0.78034 0.79008 0.0
C604 C 0.73863 0.81713 0.7632 0.0
C605 C 0.72061 0.76232 0.70649 0.0
O606 O 0.78864 0.80143 0.72735 0.0
O607 O 0.79934 0.77198 0.74707 0.0
O608 O 0.76212 0.82074 0.76759 0.0
O609 O 0.73071 0.79536 0.75032 0.0
O610 O 0.74381 0.76302 0.71425 0.0
O611 O 0.70414 0.7641 0.72231 0.0
C612 C 0.66857 0.76191 0.77989 0.0
O613 O 0.67977 0.74234 0.77908 0.0
O614 O 0.68125 0.78066 0.77033 0.0
C615 C 0.73663 0.72533 0.75091 0.0
Tb616 Tb 0.51993 0.55204 0.51663 0.0
C617 C 0.51305 0.51266 0.46694 0.0
Tb618 Tb 0.49507 0.49459 0.51602 0.0
O619 O 0.55203 0.5456 0.53989 0.0
O620 O 0.53062 0.51555 0.51524 0.0
O621 O 0.51254 0.53687 0.47668 0.0
C622 C 0.49173 0.44678 0.52949 0.0
O623 O 0.50976 0.49282 0.48031 0.0
C624 C 0.46599 0.52485 0.49966 0.0
C625 C 0.49509 0.53592 0.5642 0.0
O626 O 0.47671 0.45343 0.51269 0.0
O627 O 0.50827 0.46697 0.53851 0.0
O628 O 0.46135 0.49946 0.49453 0.0
O629 O 0.48423 0.53086 0.51589 0.0
O630 O 0.49179 0.51105 0.55432 0.0
O631 O 0.50488 0.55542 0.55234 0.0
C632 C 0.53183 0.60128 0.50669 0.0
O633 O 0.5417 0.58207 0.49841 0.0
O634 O 0.51565 0.59282 0.52093 0.0
C635 C 0.54811 0.52069 0.53225 0.0
Tb636 Tb 0.0295 0.52146 0.00321 0.0
C637 C 0.0156 0.50531 0.05527 0.0
Tb638 Tb 0.97765 0.52306 0.01655 0.0
O639 O 0.0452 0.55451 0.03228 0.0
O640 O 0.00976 0.54991 0.01527 0.0
O641 O 0.03077 0.50409 0.03792 0.0
C642 C 0.94047 0.5407 0.0345 0.0
O643 O 0.9947 0.51351 0.05149 0.0
C644 C 0.98196 0.48188 0.98687 0.0
C645 C 0.99161 0.53895 0.96447 0.0
O646 O 0.94104 0.51616 0.02864 0.0
O647 O 0.96057 0.55477 0.03013 0.0
O648 O 0.96202 0.49107 0.98707 0.0
O649 O 0.99725 0.49408 0.00465 0.0
O650 O 0.97697 0.54082 0.98218 0.0
O651 O 0.012 0.52969 0.96776 0.0
C652 C 0.06871 0.50818 0.9854 0.0
O653 O 0.06588 0.53191 0.99167 0.0
O654 O 0.04931 0.49213 0.98882 0.0
C655 C 0.0248 0.56262 0.03289 0.0
H656 H 0.97435 0.23088 0.94007 0.0
H657 H 0.05803 0.13372 0.98588 0.0
H658 H 0.04041 0.22141 0.90855 0.0
H659 H 0.98505 0.13348 0.00415 0.0
H660 H 0.05635 0.17243 0.96469 0.0
H661 H 0.98293 0.20242 0.97092 0.0
C662 C 0.99085 0.22305 0.9398 0.0
C663 C 0.00646 0.22818 0.92135 0.0
C664 C 0.04087 0.16413 0.97367 0.0
C665 C 0.01629 0.19526 0.95669 0.0
C666 C 0.04184 0.14215 0.98585 0.0
C667 C 0.02156 0.13037 0.99659 0.0
C668 C 0.0195 0.1744 0.9724 0.0
C669 C 0.00103 0.14194 0.99599 0.0
C670 C 0.99572 0.20674 0.95745 0.0
C671 C 0.02778 0.21782 0.92229 0.0
N672 N 0.00046 0.16319 0.98392 0.0
N673 N 0.0319 0.20151 0.93945 0.0
H674 H 0.06006 0.75255 0.19087 0.0
H675 H 0.18926 0.83583 0.24962 0.0
H676 H 0.07203 0.83605 0.21047 0.0
H677 H 0.16841 0.75272 0.25011 0.0
H678 H 0.1473 0.83702 0.23399 0.0
H679 H 0.10097 0.75282 0.2101 0.0
C680 C 0.07133 0.77099 0.19911 0.0
C681 C 0.06258 0.79433 0.19903 0.0
C682 C 0.15192 0.8186 0.23779 0.0
C683 C 0.10956 0.79474 0.2212 0.0
C684 C 0.17585 0.8179 0.24678 0.0
C685 C 0.18247 0.79411 0.25107 0.0
C686 C 0.13459 0.79531 0.23278 0.0
C687 C 0.16427 0.77151 0.24701 0.0
C688 C 0.09466 0.7711 0.21026 0.0
C689 C 0.07803 0.8176 0.21013 0.0
N690 N 0.14128 0.77264 0.23785 0.0
N691 N 0.10083 0.81725 0.22069 0.0
H692 H 0.53407 0.84482 0.41501 0.0
H693 H 0.46469 0.96044 0.45184 0.0
H694 H 0.45681 0.83963 0.39871 0.0
H695 H 0.52724 0.95034 0.4993 0.0
H696 H 0.46682 0.92079 0.42495 0.0
H697 H 0.53675 0.88804 0.43931 0.0
C698 C 0.51778 0.85288 0.41633 0.0
C699 C 0.49516 0.83864 0.40497 0.0
C700 C 0.48023 0.92735 0.44113 0.0
C701 C 0.49816 0.88776 0.43218 0.0
C702 C 0.47905 0.94999 0.45649 0.0
C703 C 0.49578 0.95865 0.47788 0.0
C704 C 0.49838 0.91322 0.44701 0.0
C705 C 0.51413 0.94443 0.48285 0.0
C706 C 0.51931 0.87737 0.43026 0.0
C707 C 0.47457 0.84984 0.40734 0.0
N708 N 0.51493 0.92227 0.46753 0.0
N709 N 0.47659 0.87373 0.42054 0.0
H710 H 0.39196 0.24085 0.66662 0.0
H711 H 0.34437 0.29474 0.78998 0.0
H712 H 0.43597 0.25201 0.73801 0.0
H713 H 0.29529 0.23906 0.7355 0.0
H714 H 0.37857 0.28432 0.76853 0.0
H715 H 0.35612 0.24404 0.68871 0.0
C716 C 0.39402 0.24347 0.6869 0.0
C717 C 0.41702 0.24613 0.70048 0.0
C718 C 0.36029 0.27444 0.76127 0.0
C719 C 0.37636 0.25069 0.72569 0.0
C720 C 0.34077 0.28046 0.7734 0.0
C721 C 0.31691 0.26812 0.76423 0.0
C722 C 0.35592 0.25632 0.73949 0.0
C723 C 0.31334 0.24955 0.74279 0.0
C724 C 0.37359 0.24535 0.69946 0.0
C725 C 0.41862 0.24969 0.72676 0.0
N726 N 0.33261 0.24445 0.73091 0.0
N727 N 0.39869 0.25237 0.73848 0.0
H728 H 0.97211 0.84457 0.53374 0.0
H729 H 0.06262 0.97211 0.51038 0.0
H730 H 0.03679 0.87992 0.58357 0.0
H731 H 0.99249 0.94138 0.46852 0.0
H732 H 0.05913 0.93243 0.53098 0.0
H733 H 0.98529 0.87343 0.50331 0.0
C734 C 0.98923 0.85825 0.53818 0.0
C735 C 0.0031 0.86031 0.56144 0.0
C736 C 0.04473 0.93421 0.51695 0.0
C737 C 0.01818 0.8936 0.5268 0.0
C738 C 0.04667 0.95683 0.50532 0.0
C739 C 0.02738 0.96028 0.48858 0.0
C740 C 0.02349 0.91497 0.51134 0.0
C741 C 0.00751 0.9397 0.48185 0.0
C742 C 0.99679 0.87469 0.52077 0.0
C743 C 0.02539 0.87796 0.56596 0.0
N744 N 0.0059 0.91806 0.49355 0.0
N745 N 0.03205 0.89433 0.54895 0.0
H746 H 0.4997 0.8181 0.84822 0.0
H747 H 0.36194 0.74904 0.80052 0.0
H748 H 0.46423 0.74462 0.86838 0.0
H749 H 0.39677 0.82041 0.77595 0.0
H750 H 0.40072 0.74558 0.82284 0.0
H751 H 0.46357 0.81813 0.81902 0.0
C752 C 0.48443 0.80194 0.84638 0.0
C753 C 0.4848 0.78156 0.86102 0.0
C754 C 0.39999 0.76191 0.8124 0.0
C755 C 0.44363 0.7814 0.82783 0.0
C756 C 0.37785 0.76382 0.79963 0.0
C757 C 0.37621 0.78509 0.78657 0.0
C758 C 0.42057 0.78156 0.81227 0.0
C759 C 0.39734 0.80373 0.78593 0.0
C760 C 0.46383 0.80195 0.82976 0.0
C761 C 0.46459 0.76101 0.85783 0.0
N762 N 0.41864 0.80168 0.79883 0.0
N763 N 0.44484 0.76155 0.84175 0.0
H764 H 0.529 0.26401 0.11444 0.0
H765 H 0.47128 0.13439 0.02178 0.0
H766 H 0.46337 0.25369 0.06349 0.0
H767 H 0.54226 0.14473 0.06323 0.0
H768 H 0.47007 0.17966 0.03544 0.0
H769 H 0.53647 0.22213 0.09466 0.0
C770 C 0.51638 0.25316 0.09895 0.0
C771 C 0.49532 0.26214 0.0909 0.0
C772 C 0.48607 0.17223 0.04145 0.0
C773 C 0.50366 0.2145 0.06835 0.0
C774 C 0.48673 0.14629 0.03364 0.0
C775 C 0.5068 0.13573 0.04153 0.0
C776 C 0.50548 0.18778 0.05766 0.0
C777 C 0.52642 0.15216 0.05672 0.0
C778 C 0.5206 0.22928 0.08771 0.0
C779 C 0.47959 0.24734 0.07071 0.0
N780 N 0.52515 0.17734 0.0646 0.0
N781 N 0.48398 0.22429 0.06034 0.0
H782 H 0.07411 0.33054 0.37329 0.0
H783 H 0.15403 0.24299 0.30272 0.0
H784 H 0.08149 0.25415 0.3914 0.0
H785 H 0.1722 0.32695 0.30946 0.0
H786 H 0.1229 0.24643 0.33092 0.0
H787 H 0.10729 0.32993 0.34697 0.0
C788 C 0.08294 0.31385 0.37207 0.0
C789 C 0.07487 0.29227 0.38438 0.0
C790 C 0.13366 0.2641 0.32617 0.0
C791 C 0.11221 0.29124 0.35395 0.0
C792 C 0.15119 0.26214 0.30989 0.0
C793 C 0.16559 0.28472 0.30385 0.0
C794 C 0.13032 0.28881 0.3362 0.0
C795 C 0.16137 0.30909 0.31374 0.0
C796 C 0.10177 0.3135 0.357 0.0
C797 C 0.087 0.27118 0.38218 0.0
N798 N 0.14401 0.31053 0.32946 0.0
N799 N 0.10481 0.27104 0.36694 0.0
H800 H 0.89819 0.10209 0.15878 0.0
H801 H 0.97502 0.00522 0.09395 0.0
H802 H 0.88936 0.02045 0.16773 0.0
H803 H 0.97625 0.08327 0.07542 0.0
H804 H 0.94522 0.01154 0.1228 0.0
H805 H 0.92686 0.09599 0.12837 0.0
C806 C 0.90196 0.08277 0.15405 0.0
C807 C 0.89145 0.06178 0.16596 0.0
C808 C 0.9521 0.02735 0.11254 0.0
C809 C 0.92468 0.05482 0.13158 0.0
C810 C 0.96934 0.02387 0.09621 0.0
C811 C 0.97826 0.04376 0.0822 0.0
C812 C 0.94366 0.05092 0.115 0.0
C813 C 0.97007 0.06744 0.08594 0.0
C814 C 0.91846 0.07936 0.1368 0.0
C815 C 0.897 0.0372 0.15905 0.0
N816 N 0.95315 0.07031 0.1019 0.0
N817 N 0.91345 0.03448 0.14253 0.0
H818 H 0.32794 0.75573 0.44426 0.0
H819 H 0.25604 0.73724 0.30973 0.0
H820 H 0.27139 0.68829 0.41948 0.0
H821 H 0.27263 0.81327 0.35321 0.0
H822 H 0.26673 0.71792 0.34757 0.0
H823 H 0.31323 0.77675 0.40889 0.0
C824 C 0.31238 0.74543 0.43152 0.0
C825 C 0.30084 0.72024 0.43493 0.0
C826 C 0.2678 0.7388 0.34884 0.0
C827 C 0.28441 0.74386 0.3942 0.0
C828 C 0.26167 0.74981 0.32731 0.0
C829 C 0.26318 0.77683 0.32842 0.0
C830 C 0.27628 0.75501 0.3715 0.0
C831 C 0.27095 0.7923 0.35162 0.0
C832 C 0.30398 0.75745 0.41142 0.0
C833 C 0.28075 0.70779 0.41775 0.0
N834 N 0.27756 0.78122 0.3722 0.0
N835 N 0.27342 0.71954 0.39797 0.0
H836 H 0.59064 0.97187 0.70567 0.0
H837 H 0.48799 0.99117 0.60163 0.0
H838 H 0.51523 0.96631 0.71771 0.0
H839 H 0.56127 0.98639 0.58689 0.0
H840 H 0.49708 0.97987 0.64357 0.0
H841 H 0.5798 0.97508 0.66151 0.0
C842 C 0.57177 0.97115 0.69899 0.0
C843 C 0.55384 0.96904 0.71544 0.0
C844 C 0.5111 0.98106 0.63108 0.0
C845 C 0.54133 0.97285 0.66495 0.0
C846 C 0.50593 0.98753 0.6071 0.0
C847 C 0.52395 0.98994 0.59074 0.0
C848 C 0.53451 0.97718 0.63885 0.0
C849 C 0.54682 0.98488 0.59887 0.0
C850 C 0.56559 0.97295 0.67376 0.0
C851 C 0.52967 0.96805 0.70572 0.0
N852 N 0.55151 0.97897 0.62243 0.0
N853 N 0.52416 0.97019 0.68115 0.0
H854 H 0.30862 0.36029 0.00147 0.0
H855 H 0.22822 0.32951 0.86835 0.0
H856 H 0.24724 0.3961 0.98266 0.0
H857 H 0.28613 0.28968 0.8891 0.0
H858 H 0.23361 0.35259 0.91083 0.0
H859 H 0.29995 0.33344 0.96084 0.0
C860 C 0.29334 0.36258 0.9888 0.0
C861 C 0.2787 0.38061 0.99551 0.0
C862 C 0.24501 0.33864 0.9062 0.0
C863 C 0.26861 0.34973 0.9489 0.0
C864 C 0.24187 0.32541 0.88199 0.0
C865 C 0.25685 0.30782 0.8753 0.0
C866 C 0.26337 0.33434 0.92374 0.0
C867 C 0.27425 0.30315 0.89359 0.0
C868 C 0.28834 0.34713 0.96561 0.0
C869 C 0.25907 0.38255 0.9783 0.0
N870 N 0.27719 0.31654 0.91696 0.0
N871 N 0.25465 0.36735 0.95577 0.0
H872 H 0.94326 0.0421 0.28082 0.0
H873 H 0.9683 0.08121 0.42926 0.0
H874 H 0.90159 0.08856 0.32355 0.0
H875 H 0.00762 0.03173 0.38698 0.0
H876 H 0.94689 0.08861 0.39 0.0
H877 H 0.97015 0.0422 0.31894 0.0
C878 C 0.9398 0.05235 0.29821 0.0
C879 C 0.91995 0.06495 0.29915 0.0
C880 C 0.96035 0.07632 0.3893 0.0
C881 C 0.95058 0.06524 0.34271 0.0
C882 C 0.97257 0.07216 0.41166 0.0
C883 C 0.98945 0.05564 0.41119 0.0
C884 C 0.9651 0.06376 0.36648 0.0
C885 C 0.99452 0.04444 0.38804 0.0
C886 C 0.95516 0.05244 0.31995 0.0
C887 C 0.91641 0.07815 0.3221 0.0
N888 N 0.98222 0.04852 0.36655 0.0
N889 N 0.93151 0.07783 0.34302 0.0
H890 H 0.35912 0.73412 0.56981 0.0
H891 H 0.26359 0.77817 0.65836 0.0
H892 H 0.28182 0.70562 0.5538 0.0
H893 H 0.33799 0.77872 0.68609 0.0
H894 H 0.27076 0.75796 0.61737 0.0
H895 H 0.35241 0.75662 0.61001 0.0
C896 C 0.34072 0.73267 0.57465 0.0
C897 C 0.32102 0.71785 0.55832 0.0
C898 C 0.28554 0.76264 0.6324 0.0
C899 C 0.31322 0.74388 0.6043 0.0
C900 C 0.28153 0.77437 0.65578 0.0
C901 C 0.30022 0.78024 0.67578 0.0
C902 C 0.30854 0.75706 0.62876 0.0
C903 C 0.32302 0.77453 0.67129 0.0
C904 C 0.33694 0.74545 0.59766 0.0
C905 C 0.29759 0.71667 0.56577 0.0
N906 N 0.32655 0.76338 0.64828 0.0
N907 N 0.29435 0.7296 0.58809 0.0
H908 H 0.54175 0.03185 0.83309 0.0
H909 H 0.54622 0.03686 0.98131 0.0
H910 H 0.59241 0.99971 0.87941 0.0
H911 H 0.49513 0.0705 0.9372 0.0
H912 H 0.56665 0.02848 0.94448 0.0
H913 H 0.52745 0.05094 0.87098 0.0
C914 C 0.55007 0.02906 0.8512 0.0
C915 C 0.5682 0.01401 0.85308 0.0
C916 C 0.55116 0.03797 0.94279 0.0
C917 C 0.55191 0.0357 0.8964 0.0
C918 C 0.53955 0.04293 0.96392 0.0
C919 C 0.51896 0.05441 0.96228 0.0
C920 C 0.5419 0.04414 0.91967 0.0
C921 C 0.51093 0.06154 0.93918 0.0
C922 C 0.5419 0.03997 0.87281 0.0
C923 C 0.57839 0.01111 0.87701 0.0
N924 N 0.52227 0.056 0.91863 0.0
N925 N 0.56997 0.02167 0.89768 0.0
H926 H 0.26473 0.3369 0.08329 0.0
H927 H 0.20091 0.31417 0.20416 0.0
H928 H 0.22075 0.38809 0.1155 0.0
H929 H 0.24467 0.26392 0.16994 0.0
H930 H 0.19729 0.33395 0.16542 0.0
H931 H 0.24726 0.30333 0.10759 0.0
C932 C 0.2511 0.34089 0.0953 0.0
C933 C 0.24459 0.36543 0.09797 0.0
C934 C 0.20707 0.31805 0.16611 0.0
C935 C 0.22491 0.32737 0.12634 0.0
C936 C 0.20898 0.30661 0.18816 0.0
C937 C 0.22361 0.28786 0.19034 0.0
C938 C 0.21995 0.31063 0.14633 0.0
C939 C 0.23369 0.27878 0.16915 0.0
C940 C 0.24105 0.3217 0.10913 0.0
C941 C 0.22646 0.36947 0.11325 0.0
N942 N 0.23207 0.29061 0.14818 0.0
N943 N 0.21767 0.35082 0.12743 0.0
H944 H 0.15348 0.93018 0.98838 0.0
H945 H 0.05617 0.99481 0.06076 0.0
H946 H 0.14196 0.92121 0.065 0.0
H947 H 0.08254 0.01964 0.99324 0.0
H948 H 0.08251 0.96226 0.05969 0.0
H949 H 0.12206 0.95694 0.98665 0.0
C950 C 0.14403 0.93337 0.00467 0.0
C951 C 0.1505 0.9235 0.02691 0.0
C952 C 0.08246 0.97476 0.04505 0.0
C953 C 0.11464 0.95436 0.02514 0.0
C954 C 0.06735 0.99322 0.04561 0.0
C955 C 0.06713 0.00983 0.02703 0.0
C956 C 0.09737 0.97281 0.02567 0.0
C957 C 0.08229 0.00731 0.00803 0.0
C958 C 0.12624 0.94887 0.00375 0.0
C959 C 0.13771 0.92852 0.0475 0.0
N960 N 0.09671 0.98913 0.00779 0.0
N961 N 0.12052 0.94365 0.04615 0.0
H962 H 0.69226 0.61355 0.91453 0.0
H963 H 0.60645 0.55337 0.0099 0.0
H964 H 0.70378 0.63864 0.99426 0.0
H965 H 0.57665 0.56239 0.93559 0.0
H966 H 0.64575 0.57738 0.00197 0.0
H967 H 0.65191 0.58901 0.91969 0.0
C968 C 0.68621 0.61417 0.933 0.0
C969 C 0.70142 0.62799 0.95401 0.0
C970 C 0.6306 0.57395 0.98738 0.0
C971 C 0.65603 0.59963 0.96 0.0
C972 C 0.60828 0.56004 0.99178 0.0
C973 C 0.58833 0.55606 0.9734 0.0
C974 C 0.633 0.58355 0.96435 0.0
C975 C 0.59163 0.56528 0.9503 0.0
C976 C 0.66332 0.60014 0.9359 0.0
C977 C 0.69272 0.62819 0.97753 0.0
N978 N 0.61364 0.57866 0.94637 0.0
N979 N 0.67073 0.6139 0.97993 0.0
H980 H 0.71088 0.44531 0.32127 0.0
H981 H 0.72358 0.32446 0.22353 0.0
H982 H 0.66917 0.42617 0.24836 0.0
H983 H 0.76975 0.3501 0.29317 0.0
H984 H 0.70449 0.36264 0.23094 0.0
H985 H 0.73416 0.41187 0.30993 0.0
C986 C 0.70675 0.43425 0.30278 0.0
C987 C 0.68789 0.43844 0.28584 0.0
C988 C 0.71893 0.35999 0.24448 0.0
C989 C 0.71436 0.39982 0.27278 0.0
C990 C 0.72971 0.33817 0.24029 0.0
C991 C 0.74801 0.33405 0.25789 0.0
C992 C 0.72656 0.37764 0.26646 0.0
C993 C 0.75561 0.35252 0.27916 0.0
C994 C 0.72006 0.41511 0.2963 0.0
C995 C 0.6835 0.42358 0.26206 0.0
N996 N 0.74475 0.37339 0.28292 0.0
N997 N 0.69646 0.40473 0.25634 0.0
H998 H 0.77275 0.45756 0.48153 0.0
H999 H 0.91154 0.48588 0.53807 0.0
H1000 H 0.80531 0.40725 0.52659 0.0
H1001 H 0.88924 0.5174 0.47123 0.0
H1002 H 0.87058 0.46078 0.5368 0.0
H1003 H 0.81361 0.4828 0.47906 0.0
C1004 C 0.78844 0.45162 0.4906 0.0
C1005 C 0.78561 0.43027 0.50429 0.0
C1006 C 0.87458 0.47313 0.52235 0.0
C1007 C 0.83197 0.45916 0.50193 0.0
C1008 C 0.89792 0.48759 0.52316 0.0
C1009 C 0.90371 0.50362 0.50468 0.0
C1010 C 0.85673 0.47487 0.50305 0.0
C1011 C 0.8854 0.50515 0.48578 0.0
C1012 C 0.81167 0.46602 0.48919 0.0
C1013 C 0.80652 0.42345 0.51574 0.0
N1014 N 0.86257 0.49095 0.48546 0.0
N1015 N 0.82872 0.43798 0.5145 0.0
H1016 H 0.36212 0.14755 0.24481 0.0
H1017 H 0.25265 0.20426 0.3005 0.0
H1018 H 0.3307 0.12648 0.3114 0.0
H1019 H 0.27751 0.22311 0.23044 0.0
H1020 H 0.28021 0.17378 0.30289 0.0
H1021 H 0.33049 0.17342 0.23713 0.0
C1022 C 0.34846 0.14809 0.25761 0.0
C1023 C 0.34926 0.13509 0.27895 0.0
C1024 C 0.27975 0.1845 0.28691 0.0
C1025 C 0.31325 0.16457 0.27037 0.0
C1026 C 0.26393 0.20191 0.28554 0.0
C1027 C 0.2632 0.21659 0.26549 0.0
C1028 C 0.29509 0.1817 0.2681 0.0
C1029 C 0.27813 0.21269 0.24658 0.0
C1030 C 0.33048 0.1629 0.25327 0.0
C1031 C 0.3311 0.13646 0.29491 0.0
N1032 N 0.29367 0.19572 0.24841 0.0
N1033 N 0.31403 0.15102 0.29037 0.0
H1034 H 0.36608 0.14396 0.51696 0.0
H1035 H 0.44266 0.07654 0.57231 0.0
H1036 H 0.31029 0.07461 0.50907 0.0
H1037 H 0.39886 0.01146 0.5232 0.0
H1038 H 0.40879 0.09965 0.56973 0.0
H1039 H 0.39414 0.12104 0.53782 0.0
C1040 C 0.35963 0.12402 0.51988 0.0
C1041 C 0.33593 0.11111 0.51102 0.0
C1042 C 0.40651 0.0802 0.55974 0.0
C1043 C 0.36781 0.08475 0.53542 0.0
C1044 C 0.42568 0.06691 0.56142 0.0
C1045 C 0.42361 0.04246 0.54732 0.0
C1046 C 0.38543 0.06901 0.54354 0.0
C1047 C 0.4012 0.03054 0.53394 0.0
C1048 C 0.37557 0.111 0.53222 0.0
C1049 C 0.32851 0.08523 0.51555 0.0
N1050 N 0.383 0.04422 0.53192 0.0
N1051 N 0.34459 0.07267 0.52699 0.0
H1052 H 0.6955 0.5718 0.34162 0.0
H1053 H 0.72733 0.67564 0.2457 0.0
H1054 H 0.66753 0.55821 0.26326 0.0
H1055 H 0.74431 0.69354 0.32595 0.0
H1056 H 0.70889 0.63108 0.25115 0.0
H1057 H 0.71685 0.61503 0.33554 0.0
C1058 C 0.69388 0.57782 0.32311 0.0
C1059 C 0.67956 0.56128 0.30295 0.0
C1060 C 0.71673 0.64475 0.26755 0.0
C1061 C 0.7041 0.61088 0.29587 0.0
C1062 C 0.72735 0.6702 0.26446 0.0
C1063 C 0.73731 0.68848 0.2854 0.0
C1064 C 0.71616 0.63742 0.29175 0.0
C1065 C 0.73675 0.68022 0.30924 0.0
C1066 C 0.70607 0.60257 0.31967 0.0
C1067 C 0.67823 0.57027 0.2794 0.0
N1068 N 0.72634 0.65535 0.31175 0.0
N1069 N 0.69032 0.59443 0.27652 0.0
H1070 H 0.86763 0.49963 0.73877 0.0
H1071 H 0.77013 0.39661 0.79417 0.0
H1072 H 0.83434 0.51586 0.80617 0.0
H1073 H 0.8064 0.37556 0.73028 0.0
H1074 H 0.79152 0.44155 0.79629 0.0
H1075 H 0.84375 0.45502 0.73304 0.0
C1076 C 0.85532 0.49389 0.75231 0.0
C1077 C 0.85312 0.51154 0.77305 0.0
C1078 C 0.7948 0.4272 0.78171 0.0
C1079 C 0.82575 0.46073 0.76654 0.0
C1080 C 0.78253 0.40155 0.78047 0.0
C1081 C 0.78663 0.38243 0.7621 0.0
C1082 C 0.81141 0.43384 0.76448 0.0
C1083 C 0.80282 0.38983 0.74476 0.0
C1084 C 0.84171 0.46844 0.74903 0.0
C1085 C 0.83684 0.503 0.78997 0.0
N1086 N 0.81477 0.415 0.74644 0.0
N1087 N 0.82386 0.4783 0.78633 0.0
H1088 H 0.948 0.79283 0.06612 0.0
H1089 H 0.96833 0.90256 0.00441 0.0
H1090 H 0.01477 0.8272 0.11297 0.0
H1091 H 0.0276 0.93154 0.06267 0.0
H1092 H 0.96382 0.85983 0.01882 0.0
H1093 H 0.95505 0.82767 0.04039 0.0
C1094 C 0.96443 0.80753 0.07077 0.0
C1095 C 0.98062 0.8072 0.09204 0.0
C1096 C 0.97778 0.87534 0.02868 0.0
C1097 C 0.98906 0.84773 0.06231 0.0
C1098 C 0.98045 0.89979 0.02021 0.0
C1099 C 0.99807 0.92062 0.03263 0.0
C1100 C 0.99273 0.87187 0.04995 0.0
C1101 C 0.01353 0.91603 0.05278 0.0
C1102 C 0.96854 0.82762 0.05589 0.0
C1103 C 0.00166 0.82669 0.0969 0.0
N1104 N 0.01034 0.89226 0.06094 0.0
N1105 N 0.00507 0.8463 0.08238 0.0
H1106 H 0.95514 0.30181 0.78994 0.0
H1107 H 0.81645 0.22666 0.76662 0.0
H1108 H 0.92722 0.23183 0.82118 0.0
H1109 H 0.83753 0.30811 0.75809 0.0
H1110 H 0.85902 0.22507 0.7778 0.0
H1111 H 0.91387 0.3014 0.77014 0.0
C1112 C 0.9404 0.28628 0.79243 0.0
C1113 C 0.9445 0.26696 0.80738 0.0
C1114 C 0.85434 0.24323 0.77325 0.0
C1115 C 0.89765 0.26618 0.78467 0.0
C1116 C 0.83002 0.24415 0.76672 0.0
C1117 C 0.82328 0.26765 0.76169 0.0
C1118 C 0.87219 0.26592 0.77465 0.0
C1119 C 0.84182 0.28962 0.76207 0.0
C1120 C 0.91692 0.28609 0.78122 0.0
C1121 C 0.92481 0.24728 0.81004 0.0
N1122 N 0.86543 0.28828 0.76865 0.0
N1123 N 0.9023 0.24739 0.79882 0.0
H1124 H 0.51445 0.20914 0.6253 0.0
H1125 H 0.49991 0.05728 0.58446 0.0
H1126 H 0.44365 0.15909 0.61365 0.0
H1127 H 0.54727 0.11208 0.54869 0.0
H1128 H 0.48433 0.09363 0.60571 0.0
H1129 H 0.53188 0.17278 0.60712 0.0
C1130 C 0.5026 0.19043 0.61914 0.0
C1131 C 0.47753 0.18713 0.62096 0.0
C1132 C 0.49824 0.09766 0.59332 0.0
C1133 C 0.4975 0.14546 0.6007 0.0
C1134 C 0.50708 0.07702 0.5812 0.0
C1135 C 0.52436 0.08178 0.56437 0.0
C1136 C 0.50745 0.12329 0.58922 0.0
C1137 C 0.53377 0.10769 0.56143 0.0
C1138 C 0.51257 0.1698 0.6087 0.0
C1139 C 0.46303 0.1625 0.6125 0.0
N1140 N 0.5252 0.12756 0.57375 0.0
N1141 N 0.47326 0.14252 0.60294 0.0
H1142 H 0.58604 0.80616 0.32365 0.0
H1143 H 0.71274 0.75804 0.31863 0.0
H1144 H 0.60678 0.74614 0.3646 0.0
H1145 H 0.68443 0.80076 0.2628 0.0
H1146 H 0.6774 0.7608 0.34101 0.0
H1147 H 0.62535 0.81156 0.30665 0.0
C1148 C 0.599 0.79444 0.3294 0.0
C1149 C 0.59306 0.77552 0.34542 0.0
C1150 C 0.67895 0.76974 0.32396 0.0
C1151 C 0.63791 0.78158 0.32605 0.0
C1152 C 0.69918 0.76826 0.31121 0.0
C1153 C 0.70141 0.77904 0.28874 0.0
C1154 C 0.66077 0.78217 0.31424 0.0
C1155 C 0.68328 0.79203 0.27999 0.0
C1156 C 0.62134 0.79742 0.31957 0.0
C1157 C 0.6105 0.76079 0.35215 0.0
N1158 N 0.66361 0.79314 0.2927 0.0
N1159 N 0.63206 0.76407 0.34237 0.0
H1160 H 0.04056 0.22043 0.47151 0.0
H1161 H 0.98964 0.08201 0.50548 0.0
H1162 H 0.96528 0.19618 0.48286 0.0
H1163 H 0.06396 0.11931 0.53022 0.0
H1164 H 0.98074 0.12388 0.49592 0.0
H1165 H 0.05049 0.18448 0.49308 0.0
C1166 C 0.02621 0.20791 0.47894 0.0
C1167 C 0.00197 0.21104 0.47492 0.0
C1168 C 0.99893 0.12301 0.50375 0.0
C1169 C 0.01318 0.1698 0.49914 0.0
C1170 C 0.00403 0.09913 0.50899 0.0
C1171 C 0.02755 0.09739 0.51846 0.0
C1172 C 0.01764 0.14514 0.50752 0.0
C1173 C 0.04558 0.12004 0.52292 0.0
C1174 C 0.03191 0.18743 0.49125 0.0
C1175 C 0.98417 0.19436 0.48519 0.0
N1176 N 0.04035 0.14305 0.51702 0.0
N1177 N 0.99005 0.17413 0.49636 0.0
H1178 H 0.55733 0.31134 0.12852 0.0
H1179 H 0.63793 0.28421 0.24808 0.0
H1180 H 0.57366 0.3646 0.19691 0.0
H1181 H 0.655 0.27285 0.17201 0.0
H1182 H 0.60024 0.29795 0.23273 0.0
H1183 H 0.5779 0.28045 0.14889 0.0
C1184 C 0.56417 0.31588 0.1482 0.0
C1185 C 0.56399 0.34033 0.16121 0.0
C1186 C 0.612 0.29173 0.21947 0.0
C1187 C 0.5875 0.30568 0.18426 0.0
C1188 C 0.6334 0.28404 0.22814 0.0
C1189 C 0.64954 0.27792 0.2112 0.0
C1190 C 0.60662 0.29242 0.19372 0.0
C1191 C 0.64308 0.27789 0.1856 0.0
C1192 C 0.57602 0.29844 0.1597 0.0
C1193 C 0.57353 0.34579 0.18645 0.0
N1194 N 0.62209 0.28516 0.17759 0.0
N1195 N 0.58528 0.32869 0.19715 0.0
H1196 H 0.53941 0.8534 0.96743 0.0
H1197 H 0.46277 0.96175 0.00859 0.0
H1198 H 0.46096 0.83884 0.95853 0.0
H1199 H 0.54116 0.9744 0.01685 0.0
H1200 H 0.46134 0.91585 0.99351 0.0
H1201 H 0.53992 0.89673 0.98864 0.0
C1202 C 0.52223 0.85925 0.97001 0.0
C1203 C 0.50008 0.84242 0.96094 0.0
C1204 C 0.47883 0.92864 0.99882 0.0
C1205 C 0.50058 0.89241 0.98532 0.0
C1206 C 0.47969 0.95488 0.00749 0.0
C1207 C 0.50214 0.9721 0.01384 0.0
C1208 C 0.50057 0.91954 0.99645 0.0
C1209 C 0.52342 0.96198 0.01205 0.0
C1210 C 0.52255 0.88407 0.98219 0.0
C1211 C 0.47846 0.85114 0.96512 0.0
N1212 N 0.52209 0.93646 0.00339 0.0
N1213 N 0.47925 0.87562 0.97684 0.0
H1214 H 0.95148 0.78608 0.69454 0.0
H1215 H 0.81885 0.81924 0.69613 0.0
H1216 H 0.91858 0.82632 0.63922 0.0
H1217 H 0.84421 0.76468 0.74129 0.0
H1218 H 0.85638 0.82342 0.67633 0.0
H1219 H 0.91305 0.7787 0.71296 0.0
C1220 C 0.93613 0.79315 0.68615 0.0
C1221 C 0.9382 0.80685 0.66535 0.0
C1222 C 0.85376 0.81048 0.69053 0.0
C1223 C 0.89447 0.79877 0.6864 0.0
C1224 C 0.83241 0.8082 0.70189 0.0
C1225 C 0.82861 0.79168 0.72034 0.0
C1226 C 0.87146 0.79625 0.69784 0.0
C1227 C 0.8466 0.77768 0.72713 0.0
C1228 C 0.91424 0.78894 0.69665 0.0
C1229 C 0.91779 0.81559 0.6552 0.0
N1230 N 0.86738 0.78036 0.71591 0.0
N1231 N 0.89684 0.81156 0.66594 0.0
H1232 H 0.0753 0.01518 0.82373 0.0
H1233 H 0.04749 0.97585 0.95769 0.0
H1234 H 0.12147 0.97641 0.86854 0.0
H1235 H 0.0212 0.03978 0.92783 0.0
H1236 H 0.07006 0.97073 0.92162 0.0
H1237 H 0.05131 0.0203 0.85894 0.0
C1238 C 0.08046 0.00789 0.84101 0.0
C1239 C 0.1004 0.99538 0.84328 0.0
C1240 C 0.05924 0.98578 0.92291 0.0
C1241 C 0.07286 0.00072 0.88323 0.0
C1242 C 0.04615 0.98856 0.94336 0.0
C1243 C 0.03243 0.00827 0.94574 0.0
C1244 C 0.05837 0.0026 0.90456 0.0
C1245 C 0.03161 0.02437 0.92672 0.0
C1246 C 0.06678 0.01081 0.86104 0.0
C1247 C 0.10631 0.98628 0.86605 0.0
N1248 N 0.04441 0.02115 0.90686 0.0
N1249 N 0.09246 0.98894 0.88509 0.0
H1250 H 0.70557 0.35452 0.59323 0.0
H1251 H 0.75809 0.24998 0.66949 0.0
H1252 H 0.74661 0.29958 0.56205 0.0
H1253 H 0.7269 0.3118 0.70463 0.0
H1254 H 0.75 0.26517 0.62896 0.0
H1255 H 0.70786 0.33546 0.63273 0.0
C1256 C 0.71443 0.33798 0.59443 0.0
C1257 C 0.72594 0.32866 0.57429 0.0
C1258 C 0.7449 0.27546 0.6455 0.0
C1259 C 0.72911 0.30716 0.61955 0.0
C1260 C 0.74962 0.26684 0.66867 0.0
C1261 C 0.74325 0.27968 0.69047 0.0
C1262 C 0.7336 0.29709 0.64398 0.0
C1263 C 0.73221 0.30138 0.68828 0.0
C1264 C 0.71604 0.32735 0.6171 0.0
C1265 C 0.73755 0.30747 0.57709 0.0
N1266 N 0.72771 0.30939 0.66546 0.0
N1267 N 0.73897 0.29761 0.59928 0.0
H1268 H 0.43816 0.11293 0.36194 0.0
H1269 H 0.5226 0.03025 0.43316 0.0
H1270 H 0.47571 0.05923 0.32266 0.0
H1271 H 0.47514 0.07524 0.46853 0.0
H1272 H 0.51017 0.04448 0.39295 0.0
H1273 H 0.45603 0.10308 0.40155 0.0
C1274 C 0.45013 0.09897 0.36163 0.0
C1275 C 0.45512 0.08655 0.33894 0.0
C1276 C 0.50266 0.05133 0.4096 0.0
C1277 C 0.47591 0.07527 0.38445 0.0
C1278 C 0.50983 0.04334 0.43254 0.0
C1279 C 0.49975 0.05142 0.45418 0.0
C1280 C 0.48549 0.06765 0.40846 0.0
C1281 C 0.4832 0.06828 0.45231 0.0
C1282 C 0.46044 0.09341 0.38432 0.0
C1283 C 0.47124 0.06909 0.33976 0.0
N1284 N 0.47656 0.07574 0.42989 0.0
N1285 N 0.48098 0.06382 0.36219 0.0
H1286 H 0.8316 0.7098 0.07205 0.0
H1287 H 0.73058 0.74409 0.15733 0.0
H1288 H 0.75556 0.69515 0.04351 0.0
H1289 H 0.79867 0.72627 0.18663 0.0
H1290 H 0.74039 0.73252 0.11458 0.0
H1291 H 0.82096 0.72319 0.11362 0.0
C1292 C 0.81269 0.70959 0.07447 0.0
C1293 C 0.79443 0.70121 0.05431 0.0
C1294 C 0.75308 0.73109 0.13045 0.0
C1295 C 0.78218 0.71653 0.10181 0.0
C1296 C 0.7475 0.73766 0.15472 0.0
C1297 C 0.7638 0.73595 0.17537 0.0
C1298 C 0.77527 0.72331 0.12704 0.0
C1299 C 0.78554 0.72766 0.17115 0.0
C1300 C 0.80663 0.71709 0.09822 0.0
C1301 C 0.7702 0.70129 0.05859 0.0
N1302 N 0.79072 0.7218 0.14745 0.0
N1303 N 0.76475 0.70887 0.08191 0.0
H1304 H 0.14465 0.99963 0.70486 0.0
H1305 H 0.04875 0.95979 0.58226 0.0
H1306 H 0.08667 0.93207 0.69567 0.0
H1307 H 0.10071 0.0322 0.59889 0.0
H1308 H 0.06622 0.94517 0.6203 0.0
H1309 H 0.13309 0.00717 0.66224 0.0
C1310 C 0.12958 0.98623 0.69379 0.0
C1311 C 0.11629 0.96549 0.70398 0.0
C1312 C 0.07387 0.96417 0.61548 0.0
C1313 C 0.10279 0.97417 0.65517 0.0
C1314 C 0.06391 0.9725 0.59387 0.0
C1315 C 0.07317 0.99733 0.58779 0.0
C1316 C 0.09323 0.98082 0.63082 0.0
C1317 C 0.09291 0.01302 0.60315 0.0
C1318 C 0.12297 0.99057 0.66944 0.0
C1319 C 0.09721 0.9485 0.68862 0.0
N1320 N 0.10221 0.00454 0.62403 0.0
N1321 N 0.09079 0.95342 0.66501 0.0
H1322 H 0.70249 0.36221 0.43275 0.0
H1323 H 0.74612 0.25746 0.33689 0.0
H1324 H 0.74131 0.30292 0.45384 0.0
H1325 H 0.7044 0.31266 0.31137 0.0
H1326 H 0.74087 0.27218 0.37986 0.0
H1327 H 0.69886 0.34262 0.38865 0.0
C1328 C 0.70972 0.34475 0.42823 0.0
C1329 C 0.72236 0.3343 0.44708 0.0
C1330 C 0.73266 0.28107 0.36498 0.0
C1331 C 0.7186 0.31206 0.39671 0.0
C1332 C 0.7357 0.27265 0.34031 0.0
C1333 C 0.7258 0.28389 0.32038 0.0
C1334 C 0.71983 0.30125 0.37015 0.0
C1335 C 0.71229 0.30337 0.32613 0.0
C1336 C 0.70783 0.33371 0.40302 0.0
C1337 C 0.73161 0.31184 0.44002 0.0
N1338 N 0.70992 0.31165 0.35051 0.0
N1339 N 0.72971 0.30169 0.41555 0.0
H1340 H 0.44808 0.02426 0.21148 0.0
H1341 H 0.46663 0.07459 0.07888 0.0
H1342 H 0.41904 0.08908 0.18706 0.0
H1343 H 0.50906 0.02372 0.11172 0.0
H1344 H 0.44339 0.07442 0.11499 0.0
H1345 H 0.46451 0.01803 0.17151 0.0
C1346 C 0.44488 0.03701 0.19761 0.0
C1347 C 0.43239 0.05744 0.20278 0.0
C1348 C 0.45767 0.06315 0.11422 0.0
C1349 C 0.45128 0.05041 0.15696 0.0
C1350 C 0.47087 0.06316 0.0936 0.0
C1351 C 0.48983 0.04922 0.09245 0.0
C1352 C 0.46343 0.04902 0.13377 0.0
C1353 C 0.49467 0.03484 0.11202 0.0
C1354 C 0.45438 0.03348 0.17482 0.0
C1355 C 0.42873 0.07322 0.18398 0.0
N1356 N 0.48159 0.03517 0.13195 0.0
N1357 N 0.43828 0.06948 0.16196 0.0
H1358 H 0.75965 0.72916 0.94879 0.0
H1359 H 0.80243 0.78785 0.82826 0.0
H1360 H 0.83399 0.7418 0.93203 0.0
H1361 H 0.72823 0.77446 0.84576 0.0
H1362 H 0.81591 0.7811 0.87077 0.0
H1363 H 0.74979 0.75574 0.9166 0.0
C1364 C 0.77401 0.73795 0.93859 0.0
C1365 C 0.79755 0.73281 0.94265 0.0
C1366 C 0.79672 0.78009 0.86545 0.0
C1367 C 0.7863 0.76289 0.90542 0.0
C1368 C 0.78897 0.78393 0.84114 0.0
C1369 C 0.76407 0.78103 0.83319 0.0
C1370 C 0.77944 0.77314 0.88188 0.0
C1371 C 0.74757 0.77638 0.85086 0.0
C1372 C 0.76837 0.75314 0.9202 0.0
C1373 C 0.81555 0.74506 0.92927 0.0
N1374 N 0.75552 0.77212 0.87424 0.0
N1375 N 0.80943 0.75909 0.91082 0.0
H1376 H 0.88271 0.14334 0.97818 0.0
H1377 H 0.93078 0.02515 0.0358 0.0
H1378 H 0.84853 0.09998 0.03296 0.0
H1379 H 0.96308 0.06177 0.97614 0.0
H1380 H 0.90349 0.05614 0.03787 0.0
H1381 H 0.91546 0.11813 0.98055 0.0
C1382 C 0.88234 0.12895 0.9911 0.0
C1383 C 0.86272 0.1237 0.0053 0.0
C1384 C 0.91652 0.05756 0.0243 0.0
C1385 C 0.89994 0.09455 0.00783 0.0
C1386 C 0.93208 0.03973 0.02303 0.0
C1387 C 0.94918 0.04079 0.00568 0.0
C1388 C 0.91774 0.07663 0.00792 0.0
C1389 C 0.9502 0.06035 0.98985 0.0
C1390 C 0.90093 0.11439 0.99226 0.0
C1391 C 0.86314 0.10464 0.02153 0.0
N1392 N 0.93461 0.07744 0.99124 0.0
N1393 N 0.88126 0.09072 0.02221 0.0
H1394 H 0.34895 0.45102 0.07903 0.0
H1395 H 0.43013 0.53089 0.98871 0.0
H1396 H 0.32123 0.4961 0.02487 0.0
H1397 H 0.45919 0.4866 0.04287 0.0
H1398 H 0.39017 0.51875 0.00251 0.0
H1399 H 0.38974 0.46458 0.06707 0.0
C1400 C 0.35142 0.46374 0.06464 0.0
C1401 C 0.33163 0.4722 0.05273 0.0
C1402 C 0.40528 0.51171 0.01142 0.0
C1403 C 0.37813 0.48787 0.03908 0.0
C1404 C 0.42813 0.51859 0.0035 0.0
C1405 C 0.44806 0.50978 0.01466 0.0
C1406 C 0.40229 0.49582 0.03061 0.0
C1407 C 0.44435 0.49393 0.03379 0.0
C1408 C 0.37471 0.47152 0.05786 0.0
C1409 C 0.33594 0.48899 0.03448 0.0
N1410 N 0.42187 0.48742 0.04115 0.0
N1411 N 0.35869 0.49618 0.02816 0.0
H1412 H 0.29096 0.61169 0.78133 0.0
H1413 H 0.25885 0.72016 0.69947 0.0
H1414 H 0.30728 0.61152 0.70475 0.0
H1415 H 0.28231 0.73516 0.77878 0.0
H1416 H 0.26553 0.67528 0.69941 0.0
H1417 H 0.2746 0.65117 0.77815 0.0
C1418 C 0.29059 0.61953 0.76362 0.0
C1419 C 0.30114 0.60861 0.74345 0.0
C1420 C 0.26905 0.68841 0.71679 0.0
C1421 C 0.2824 0.65378 0.73988 0.0
C1422 C 0.2653 0.7139 0.71688 0.0
C1423 C 0.27014 0.73119 0.73918 0.0
C1424 C 0.27713 0.68015 0.7393 0.0
C1425 C 0.27853 0.72235 0.76122 0.0
C1426 C 0.2814 0.64218 0.76195 0.0
C1427 C 0.29966 0.61945 0.72087 0.0
N1428 N 0.28164 0.6973 0.76076 0.0
N1429 N 0.29079 0.64175 0.71978 0.0
H1430 H 0.21607 0.64042 0.47705 0.0
H1431 H 0.11539 0.57014 0.55595 0.0
H1432 H 0.23314 0.61529 0.54886 0.0
H1433 H 0.09897 0.59424 0.48362 0.0
H1434 H 0.15855 0.58761 0.55438 0.0
H1435 H 0.17298 0.62492 0.47987 0.0
C1436 C 0.21077 0.63173 0.49347 0.0
C1437 C 0.22829 0.62908 0.51272 0.0
C1438 C 0.14552 0.58912 0.53886 0.0
C1439 C 0.17889 0.61118 0.51603 0.0
C1440 C 0.12092 0.57914 0.53976 0.0
C1441 C 0.1037 0.58076 0.51987 0.0
C1442 C 0.15288 0.60078 0.51791 0.0
C1443 C 0.11172 0.59261 0.49934 0.0
C1444 C 0.18613 0.62284 0.49505 0.0
C1445 C 0.2203 0.61769 0.53355 0.0
N1446 N 0.13574 0.60214 0.49887 0.0
N1447 N 0.1962 0.6091 0.53462 0.0
H1448 H 0.6296 0.91343 0.7647 0.0
H1449 H 0.75061 0.85913 0.7991 0.0
H1450 H 0.67868 0.94201 0.83215 0.0
H1451 H 0.69365 0.81995 0.74161 0.0
H1452 H 0.72605 0.89194 0.80953 0.0
H1453 H 0.65449 0.88123 0.75389 0.0
C1454 C 0.64565 0.91303 0.7772 0.0
C1455 C 0.65202 0.93046 0.7994 0.0
C1456 C 0.71888 0.87612 0.7947 0.0
C1457 C 0.68059 0.89364 0.7871 0.0
C1458 C 0.73289 0.85748 0.78873 0.0
C1459 C 0.72395 0.83679 0.76968 0.0
C1460 C 0.69592 0.87416 0.78128 0.0
C1461 C 0.70098 0.83546 0.7567 0.0
C1462 C 0.65979 0.89456 0.77105 0.0
C1463 C 0.673 0.92893 0.81489 0.0
N1464 N 0.68773 0.85395 0.7627 0.0
N1465 N 0.68654 0.91087 0.80842 0.0
H1466 H 0.69686 0.92772 0.53111 0.0
H1467 H 0.62478 0.04257 0.51027 0.0
H1468 H 0.7309 0.00911 0.53973 0.0
H1469 H 0.5913 0.96105 0.4976 0.0
H1470 H 0.66464 0.03041 0.51638 0.0
H1471 H 0.65874 0.93914 0.51487 0.0
C1472 C 0.69636 0.94797 0.52949 0.0
C1473 C 0.71705 0.96751 0.53704 0.0
C1474 C 0.64862 0.01515 0.51191 0.0
C1475 C 0.67349 0.98074 0.51845 0.0
C1476 C 0.6259 0.02211 0.50829 0.0
C1477 C 0.6048 0.00277 0.50365 0.0
C1478 C 0.65015 0.98868 0.51108 0.0
C1479 C 0.60718 0.97655 0.50129 0.0
C1480 C 0.6746 0.95448 0.52015 0.0
C1481 C 0.71537 0.9934 0.53433 0.0
N1482 N 0.62944 0.97026 0.50536 0.0
N1483 N 0.69394 0.99927 0.52545 0.0
H1484 H 0.33323 0.47523 0.7203 0.0
H1485 H 0.26549 0.36836 0.798 0.0
H1486 H 0.30546 0.49215 0.79089 0.0
H1487 H 0.28767 0.34765 0.72529 0.0
H1488 H 0.27933 0.41402 0.79426 0.0
H1489 H 0.31581 0.42881 0.72017 0.0
C1490 C 0.32334 0.46928 0.73563 0.0
C1491 C 0.321 0.48769 0.75574 0.0
C1492 C 0.28116 0.3996 0.77901 0.0
C1493 C 0.30118 0.43473 0.75572 0.0
C1494 C 0.27328 0.37338 0.78117 0.0
C1495 C 0.27552 0.354 0.76199 0.0
C1496 C 0.2916 0.40679 0.75757 0.0
C1497 C 0.28559 0.36192 0.74055 0.0
C1498 C 0.31346 0.44279 0.73556 0.0
C1499 C 0.30799 0.47879 0.77508 0.0
N1500 N 0.29341 0.38774 0.73897 0.0
N1501 N 0.29874 0.45307 0.77462 0.0
H1502 H 0.12408 0.56582 0.26594 0.0
H1503 H 0.24636 0.66307 0.25505 0.0
H1504 H 0.19102 0.55792 0.30727 0.0
H1505 H 0.18057 0.69128 0.26728 0.0
H1506 H 0.22626 0.6194 0.26284 0.0
H1507 H 0.14478 0.6075 0.25463 0.0
C1508 C 0.14318 0.57275 0.2724 0.0
C1509 C 0.15587 0.5586 0.28768 0.0
C1510 C 0.2163 0.63521 0.2636 0.0
C1511 C 0.17958 0.60563 0.27438 0.0
C1512 C 0.22764 0.65994 0.25907 0.0
C1513 C 0.21502 0.68061 0.26063 0.0
C1514 C 0.19206 0.63119 0.2689 0.0
C1515 C 0.19087 0.67577 0.26604 0.0
C1516 C 0.15489 0.59646 0.26602 0.0
C1517 C 0.18058 0.56844 0.29565 0.0
N1518 N 0.18006 0.65146 0.26979 0.0
N1519 N 0.19173 0.59133 0.28876 0.0
H1520 H 0.54864 0.71743 0.4057 0.0
H1521 H 0.50897 0.64116 0.52007 0.0
H1522 H 0.48831 0.72859 0.44675 0.0
H1523 H 0.56032 0.61899 0.47139 0.0
H1524 H 0.50805 0.67995 0.49919 0.0
H1525 H 0.55968 0.68801 0.43517 0.0
C1526 C 0.538 0.71409 0.42115 0.0
C1527 C 0.5173 0.72517 0.42355 0.0
C1528 C 0.51979 0.66682 0.49326 0.0
C1529 C 0.52978 0.6916 0.45721 0.0
C1530 C 0.52039 0.64474 0.50526 0.0
C1531 C 0.53455 0.62679 0.49724 0.0
C1532 C 0.53337 0.67091 0.473 0.0
C1533 C 0.54905 0.63234 0.47801 0.0
C1534 C 0.54424 0.69721 0.43788 0.0
C1535 C 0.50418 0.72016 0.44393 0.0
N1536 N 0.54787 0.65379 0.4663 0.0
N1537 N 0.51052 0.70361 0.45981 0.0
H1538 H 0.55415 0.24864 0.69065 0.0
H1539 H 0.68175 0.32574 0.75934 0.0
H1540 H 0.564 0.32815 0.72582 0.0
H1541 H 0.66225 0.24172 0.74815 0.0
H1542 H 0.63969 0.32793 0.74526 0.0
H1543 H 0.59504 0.24671 0.70872 0.0
C1544 C 0.56495 0.26577 0.70206 0.0
C1545 C 0.55563 0.28863 0.70669 0.0
C1546 C 0.64458 0.30904 0.74618 0.0
C1547 C 0.60251 0.28648 0.72747 0.0
C1548 C 0.66857 0.30775 0.75424 0.0
C1549 C 0.67557 0.2835 0.75489 0.0
C1550 C 0.62756 0.28591 0.73828 0.0
C1551 C 0.6577 0.26084 0.74805 0.0
C1552 C 0.58824 0.26456 0.71253 0.0
C1553 C 0.57045 0.31013 0.72177 0.0
N1554 N 0.6346 0.2626 0.73974 0.0
N1555 N 0.59322 0.30859 0.73151 0.0
H1556 H 0.94697 0.33975 0.88631 0.0
H1557 H 0.01701 0.45182 0.99121 0.0
H1558 H 0.02361 0.34675 0.90861 0.0
H1559 H 0.95254 0.45867 0.94497 0.0
H1560 H 0.0198 0.41252 0.96338 0.0
H1561 H 0.94827 0.38229 0.90988 0.0
C1562 C 0.96415 0.35036 0.8961 0.0
C1563 C 0.98521 0.33968 0.89558 0.0
C1564 C 0.00526 0.42287 0.95918 0.0
C1565 C 0.98676 0.38839 0.92299 0.0
C1566 C 0.00376 0.44537 0.97493 0.0
C1567 C 0.98473 0.4587 0.97014 0.0
C1568 C 0.98727 0.41342 0.93887 0.0
C1569 C 0.9675 0.44896 0.94934 0.0
C1570 C 0.96489 0.3747 0.9095 0.0
C1571 C 0.00699 0.35437 0.90848 0.0
N1572 N 0.96908 0.42683 0.93461 0.0
N1573 N 0.00716 0.37789 0.92199 0.0
H1574 H 0.9003 0.75602 0.16403 0.0
H1575 H 0.83884 0.7328 0.28957 0.0
H1576 H 0.93833 0.7342 0.22899 0.0
H1577 H 0.81299 0.77654 0.23329 0.0
H1578 H 0.87191 0.72525 0.26472 0.0
H1579 H 0.86414 0.75433 0.18585 0.0
C1580 C 0.90096 0.7504 0.18272 0.0
C1581 C 0.92251 0.74549 0.19478 0.0
C1582 C 0.85884 0.73628 0.25775 0.0
C1583 C 0.88113 0.74388 0.22002 0.0
C1584 C 0.84001 0.74061 0.2719 0.0
C1585 C 0.8231 0.75517 0.26337 0.0
C1586 C 0.86058 0.74645 0.23486 0.0
C1587 C 0.82546 0.76493 0.24041 0.0
C1588 C 0.88031 0.74964 0.19525 0.0
C1589 C 0.92217 0.73829 0.21903 0.0
N1590 N 0.84382 0.76037 0.22695 0.0
N1591 N 0.90186 0.73793 0.23097 0.0
H1592 H 0.51861 0.37009 0.06611 0.0
H1593 H 0.46244 0.45422 0.97073 0.0
H1594 H 0.44156 0.36756 0.05079 0.0
H1595 H 0.53898 0.46251 0.99427 0.0
H1596 H 0.45427 0.41608 0.99302 0.0
H1597 H 0.52592 0.39725 0.03302 0.0
C1598 C 0.50316 0.37515 0.05564 0.0
C1599 C 0.47945 0.36707 0.06156 0.0
C1600 C 0.47288 0.42602 0.99304 0.0
C1601 C 0.48777 0.3983 0.02363 0.0
C1602 C 0.47756 0.44768 0.98026 0.0
C1603 C 0.50138 0.46163 0.98119 0.0
C1604 C 0.49221 0.41835 0.00664 0.0
C1605 C 0.52033 0.45249 0.99367 0.0
C1606 C 0.50738 0.39061 0.03669 0.0
C1607 C 0.46013 0.37366 0.04699 0.0
N1608 N 0.51531 0.43151 0.00616 0.0
N1609 N 0.46475 0.38929 0.02887 0.0
H1610 H 0.96109 0.28437 0.33886 0.0
H1611 H 0.81973 0.22103 0.30856 0.0
H1612 H 0.92169 0.23325 0.38488 0.0
H1613 H 0.85591 0.28208 0.27023 0.0
H1614 H 0.85821 0.22164 0.33381 0.0
H1615 H 0.92354 0.28116 0.31123 0.0
C1616 C 0.9445 0.27263 0.34325 0.0
C1617 C 0.94445 0.25917 0.36425 0.0
C1618 C 0.85776 0.23479 0.31976 0.0
C1619 C 0.90161 0.25511 0.33259 0.0
C1620 C 0.83588 0.2343 0.30527 0.0
C1621 C 0.83477 0.25162 0.28748 0.0
C1622 C 0.87858 0.2527 0.31632 0.0
C1623 C 0.8561 0.26848 0.28387 0.0
C1624 C 0.92312 0.27073 0.32743 0.0
C1625 C 0.92251 0.24413 0.369 0.0
N1626 N 0.87716 0.26871 0.2983 0.0
N1627 N 0.90197 0.24244 0.35323 0.0
H1628 H 0.94275 0.73455 0.56423 0.0
H1629 H 0.03536 0.63762 0.54166 0.0
H1630 H 0.01662 0.74995 0.59989 0.0
H1631 H 0.95891 0.61875 0.51467 0.0
H1632 H 0.03022 0.68097 0.55912 0.0
H1633 H 0.94956 0.69374 0.54277 0.0
C1634 C 0.9604 0.72936 0.56763 0.0
C1635 C 0.9791 0.74573 0.58402 0.0
C1636 C 0.01463 0.66739 0.54919 0.0
C1637 C 0.98707 0.69895 0.55926 0.0
C1638 C 0.01759 0.6427 0.53905 0.0
C1639 C 0.99749 0.62443 0.52686 0.0
C1640 C 0.99146 0.67385 0.54701 0.0
C1641 C 0.97488 0.63209 0.52413 0.0
C1642 C 0.96429 0.70603 0.55529 0.0
C1643 C 0.00161 0.73791 0.58755 0.0
N1644 N 0.97246 0.65613 0.53425 0.0
N1645 N 0.00497 0.71508 0.57527 0.0
H1646 H 0.61206 0.84224 0.89351 0.0
H1647 H 0.64447 0.72782 0.80846 0.0
H1648 H 0.5775 0.76319 0.89868 0.0
H1649 H 0.6473 0.80414 0.7853 0.0
H1650 H 0.61767 0.7386 0.83982 0.0
H1651 H 0.62314 0.82807 0.85237 0.0
C1652 C 0.60642 0.82193 0.88567 0.0
C1653 C 0.59399 0.8038 0.89939 0.0
C1654 C 0.62367 0.7527 0.82741 0.0
C1655 C 0.60723 0.78723 0.85273 0.0
C1656 C 0.63894 0.74655 0.80955 0.0
C1657 C 0.64834 0.76528 0.79461 0.0
C1658 C 0.61824 0.77784 0.83046 0.0
C1659 C 0.64066 0.78926 0.7967 0.0
C1660 C 0.6127 0.81383 0.86219 0.0
C1661 C 0.58707 0.77772 0.88852 0.0
N1662 N 0.62646 0.79505 0.81465 0.0
N1663 N 0.59432 0.77002 0.86599 0.0
H1664 H 0.38076 0.52399 0.65984 0.0
H1665 H 0.48998 0.58403 0.58584 0.0
H1666 H 0.40564 0.6066 0.65964 0.0
H1667 H 0.46861 0.50176 0.59084 0.0
H1668 H 0.45988 0.59282 0.61366 0.0
H1669 H 0.41188 0.51542 0.63311 0.0
C1670 C 0.39245 0.54032 0.65381 0.0
C1671 C 0.39066 0.56607 0.66211 0.0
C1672 C 0.46196 0.57286 0.60886 0.0
C1673 C 0.42668 0.55641 0.63199 0.0
C1674 C 0.47936 0.56783 0.59317 0.0
C1675 C 0.48173 0.54207 0.58572 0.0
C1676 C 0.44676 0.552 0.61713 0.0
C1677 C 0.46736 0.52193 0.59587 0.0
C1678 C 0.41043 0.53542 0.63879 0.0
C1679 C 0.40643 0.58644 0.6538 0.0
N1680 N 0.45031 0.5273 0.61081 0.0
N1681 N 0.42387 0.58118 0.63934 0.0
H1682 H 0.76285 0.18537 0.92552 0.0
H1683 H 0.78643 0.30518 0.84499 0.0
H1684 H 0.82671 0.24647 0.94055 0.0
H1685 H 0.73256 0.23545 0.82121 0.0
H1686 H 0.79834 0.2869 0.88313 0.0
H1687 H 0.74856 0.20634 0.89042 0.0
C1688 C 0.77381 0.20334 0.92165 0.0
C1689 C 0.79616 0.21404 0.93611 0.0
C1690 C 0.78389 0.27558 0.86959 0.0
C1691 C 0.77974 0.23822 0.89562 0.0
C1692 C 0.77702 0.28606 0.84792 0.0
C1693 C 0.75872 0.2716 0.82983 0.0
C1694 C 0.77217 0.25056 0.87334 0.0
C1695 C 0.74714 0.24694 0.83442 0.0
C1696 C 0.76564 0.21524 0.90147 0.0
C1697 C 0.80945 0.23739 0.92997 0.0
N1698 N 0.75404 0.23718 0.85571 0.0
N1699 N 0.80108 0.24864 0.91022 0.0
H1700 H 0.09805 0.48004 0.19049 0.0
H1701 H 0.98828 0.49997 0.09456 0.0
H1702 H 0.02387 0.47202 0.20756 0.0
H1703 H 0.0592 0.49398 0.07292 0.0
H1704 H 0.00119 0.49007 0.13619 0.0
H1705 H 0.08443 0.48541 0.14737 0.0
C1706 C 0.0789 0.47925 0.18515 0.0
C1707 C 0.0621 0.47567 0.20271 0.0
C1708 C 0.01388 0.49076 0.12228 0.0
C1709 C 0.04642 0.48198 0.15348 0.0
C1710 C 0.00653 0.49645 0.09848 0.0
C1711 C 0.02267 0.49786 0.08015 0.0
C1712 C 0.03765 0.48668 0.12795 0.0
C1713 C 0.04609 0.49307 0.0864 0.0
C1714 C 0.07113 0.48231 0.16053 0.0
C1715 C 0.0375 0.47479 0.19471 0.0
N1716 N 0.05292 0.48787 0.1098 0.0
N1717 N 0.03044 0.47809 0.17077 0.0
H1718 H 0.75991 0.89189 0.48811 0.0
H1719 H 0.80758 0.7927 0.39004 0.0
H1720 H 0.82378 0.85892 0.50358 0.0
H1721 H 0.74308 0.824 0.37348 0.0
H1722 H 0.81329 0.81663 0.43213 0.0
H1723 H 0.75321 0.86749 0.44605 0.0
C1724 C 0.77257 0.87964 0.48267 0.0
C1725 C 0.79242 0.87745 0.49946 0.0
C1726 C 0.79782 0.81824 0.41936 0.0
C1727 C 0.78477 0.84941 0.45149 0.0
C1728 C 0.79454 0.80452 0.39538 0.0
C1729 C 0.77486 0.80646 0.3784 0.0
C1730 C 0.78131 0.83406 0.42635 0.0
C1731 C 0.75849 0.82204 0.38614 0.0
C1732 C 0.76868 0.86566 0.45869 0.0
C1733 C 0.80819 0.86122 0.49137 0.0
N1734 N 0.76212 0.83535 0.40959 0.0
N1735 N 0.804 0.84784 0.46801 0.0
H1736 H 0.43504 0.54361 0.77268 0.0
H1737 H 0.46411 0.58954 0.91981 0.0
H1738 H 0.39388 0.59075 0.81536 0.0
H1739 H 0.50087 0.53631 0.87879 0.0
H1740 H 0.4427 0.59616 0.88028 0.0
H1741 H 0.46332 0.54579 0.81027 0.0
C1742 C 0.43195 0.55436 0.78996 0.0
C1743 C 0.4119 0.56662 0.79108 0.0
C1744 C 0.45567 0.58327 0.87991 0.0
C1745 C 0.44415 0.56944 0.83391 0.0
C1746 C 0.46792 0.57961 0.90241 0.0
C1747 C 0.48388 0.56209 0.90238 0.0
C1748 C 0.45946 0.56921 0.85744 0.0
C1749 C 0.4884 0.54975 0.87949 0.0
C1750 C 0.44812 0.5557 0.81136 0.0
C1751 C 0.40885 0.58058 0.81381 0.0
N1752 N 0.476 0.55331 0.85788 0.0
N1753 N 0.42476 0.58151 0.83438 0.0
H1754 H 0.84092 0.22728 0.07525 0.0
H1755 H 0.72789 0.23877 0.15315 0.0
H1756 H 0.76801 0.18623 0.04871 0.0
H1757 H 0.80195 0.2516 0.18756 0.0
H1758 H 0.74182 0.226 0.11258 0.0
H1759 H 0.82644 0.24297 0.11446 0.0
C1760 C 0.82186 0.2217 0.07755 0.0
C1761 C 0.80573 0.20529 0.0586 0.0
C1762 C 0.75499 0.23171 0.12904 0.0
C1763 C 0.78897 0.22343 0.10347 0.0
C1764 C 0.74707 0.23913 0.15217 0.0
C1765 C 0.76374 0.24618 0.17386 0.0
C1766 C 0.77981 0.23184 0.1275 0.0
C1767 C 0.78839 0.24614 0.17142 0.0
C1768 C 0.81362 0.23059 0.1 0.0
C1769 C 0.78118 0.1987 0.0628 0.0
N1770 N 0.79565 0.2392 0.14874 0.0
N1771 N 0.77356 0.20783 0.08468 0.0
H1772 H 0.09998 0.49755 0.36629 0.0
H1773 H 0.99208 0.55802 0.42128 0.0
H1774 H 0.0458 0.52523 0.3203 0.0
H1775 H 0.04608 0.5289 0.46604 0.0
H1776 H 0.01372 0.55044 0.38458 0.0
H1777 H 0.0828 0.51321 0.40352 0.0
C1778 C 0.08464 0.50718 0.364 0.0
C1779 C 0.07428 0.50999 0.34009 0.0
C1780 C 0.02096 0.54597 0.4025 0.0
C1781 C 0.05427 0.52775 0.38275 0.0
C1782 C 0.00865 0.55034 0.42342 0.0
C1783 C 0.01726 0.54397 0.44666 0.0
C1784 C 0.04198 0.53511 0.40489 0.0
C1785 C 0.03879 0.53409 0.44847 0.0
C1786 C 0.07476 0.51607 0.38531 0.0
C1787 C 0.05432 0.52255 0.33835 0.0
N1788 N 0.0503 0.5298 0.42785 0.0
N1789 N 0.04485 0.5308 0.35937 0.0
H1790 H 0.72502 0.87285 0.60842 0.0
H1791 H 0.74064 0.74435 0.66571 0.0
H1792 H 0.77839 0.82614 0.5912 0.0
H1793 H 0.68973 0.79203 0.68836 0.0
H1794 H 0.74467 0.76616 0.62835 0.0
H1795 H 0.70349 0.83716 0.62845 0.0
C1796 C 0.73196 0.85494 0.60845 0.0
C1797 C 0.75388 0.85271 0.59876 0.0
C1798 C 0.73208 0.77143 0.6411 0.0
C1799 C 0.72936 0.81188 0.62139 0.0
C1800 C 0.7296 0.75875 0.6623 0.0
C1801 C 0.71523 0.76679 0.68033 0.0
C1802 C 0.72057 0.7927 0.6383 0.0
C1803 C 0.70119 0.78542 0.67498 0.0
C1804 C 0.71966 0.83457 0.61984 0.0
C1805 C 0.76192 0.82899 0.59905 0.0
N1806 N 0.70478 0.79837 0.65478 0.0
N1807 N 0.74985 0.80968 0.61047 0.0
H1808 H 0.63821 0.40538 0.5045 0.0
H1809 H 0.59005 0.53023 0.5646 0.0
H1810 H 0.67563 0.458 0.56878 0.0
H1811 H 0.5474 0.47253 0.50705 0.0
H1812 H 0.6212 0.50325 0.56695 0.0
H1813 H 0.60422 0.42879 0.50549 0.0
C1814 C 0.63922 0.42167 0.51892 0.0
C1815 C 0.65992 0.42976 0.53648 0.0
C1816 C 0.60495 0.49636 0.55393 0.0
C1817 C 0.6212 0.45678 0.53763 0.0
C1818 C 0.58716 0.51178 0.55263 0.0
C1819 C 0.56615 0.50366 0.5356 0.0
C1820 C 0.60182 0.47272 0.53792 0.0
C1821 C 0.56334 0.47955 0.52048 0.0
C1822 C 0.61983 0.43506 0.51947 0.0
C1823 C 0.66017 0.45106 0.55474 0.0
N1824 N 0.58102 0.46505 0.52186 0.0
N1825 N 0.64127 0.46386 0.55472 0.0
H1826 H 0.20118 0.11135 0.41819 0.0
H1827 H 0.1168 0.06198 0.51766 0.0
H1828 H 0.21469 0.14344 0.49636 0.0
H1829 H 0.08466 0.06848 0.44356 0.0
H1830 H 0.15539 0.08636 0.50828 0.0
H1831 H 0.15976 0.09135 0.42506 0.0
C1832 C 0.19536 0.11453 0.43664 0.0
C1833 C 0.21151 0.12878 0.4568 0.0
C1834 C 0.13986 0.08246 0.4941 0.0
C1835 C 0.16476 0.10564 0.46474 0.0
C1836 C 0.11795 0.06836 0.49934 0.0
C1837 C 0.09763 0.06324 0.48133 0.0
C1838 C 0.14155 0.09103 0.47054 0.0
C1839 C 0.09999 0.07216 0.45795 0.0
C1840 C 0.17181 0.10312 0.44051 0.0
C1841 C 0.20299 0.1324 0.4803 0.0
N1842 N 0.12172 0.0855 0.45309 0.0
N1843 N 0.18035 0.1205 0.48372 0.0
H1844 H 0.23038 0.96019 0.83369 0.0
H1845 H 0.27605 0.8702 0.72613 0.0
H1846 H 0.2 0.94862 0.75605 0.0
H1847 H 0.30291 0.87818 0.80438 0.0
H1848 H 0.25194 0.90373 0.7357 0.0
H1849 H 0.26114 0.93517 0.82229 0.0
C1850 C 0.2303 0.95265 0.81421 0.0
C1851 C 0.21235 0.95626 0.79587 0.0
C1852 C 0.26329 0.89832 0.75075 0.0
C1853 C 0.24748 0.92749 0.78271 0.0
C1854 C 0.27688 0.87913 0.74529 0.0
C1855 C 0.2909 0.87108 0.76457 0.0
C1856 C 0.26391 0.90954 0.77569 0.0
C1857 C 0.29213 0.88374 0.78899 0.0
C1858 C 0.24787 0.93832 0.80772 0.0
C1859 C 0.2133 0.94612 0.7709 0.0
N1860 N 0.27856 0.90215 0.79391 0.0
N1861 N 0.23041 0.932 0.76511 0.0
H1862 H 0.27488 0.9712 0.98612 0.0
H1863 H 0.40834 0.01497 0.05898 0.0
H1864 H 0.3036 0.93389 0.04633 0.0
H1865 H 0.39281 0.03053 0.98306 0.0
H1866 H 0.36646 0.99226 0.05783 0.0
H1867 H 0.31525 0.99919 0.98723 0.0
C1868 C 0.28964 0.96888 0.99947 0.0
C1869 C 0.286 0.95012 0.01603 0.0
C1870 C 0.37214 0.00074 0.04143 0.0
C1871 C 0.33156 0.98211 0.01772 0.0
C1872 C 0.39599 0.01379 0.04212 0.0
C1873 C 0.40398 0.02432 0.02099 0.0
C1874 C 0.35612 0.99826 0.01946 0.0
C1875 C 0.38725 0.02245 0.99967 0.0
C1876 C 0.31255 0.98478 9e-05 0.0
C1877 C 0.30562 0.94789 0.03303 0.0
N1878 N 0.36399 0.00945 0.99936 0.0
N1879 N 0.32747 0.96376 0.0335 0.0
H1880 H 0.85889 0.64986 0.73296 0.0
H1881 H 0.72384 0.67366 0.73006 0.0
H1882 H 0.80839 0.59971 0.7702 0.0
H1883 H 0.78487 0.73212 0.76507 0.0
H1884 H 0.75127 0.64189 0.72658 0.0
H1885 H 0.82755 0.67595 0.72469 0.0
C1886 C 0.84098 0.64387 0.73863 0.0
C1887 C 0.83616 0.6228 0.7524 0.0
C1888 C 0.75854 0.66193 0.73442 0.0
C1889 C 0.80043 0.65196 0.74257 0.0
C1890 C 0.74301 0.67997 0.73645 0.0
C1891 C 0.75228 0.70579 0.74722 0.0
C1892 C 0.78342 0.67018 0.74256 0.0
C1893 C 0.77717 0.71286 0.7556 0.0
C1894 C 0.82323 0.65874 0.734 0.0
C1895 C 0.81276 0.61598 0.75966 0.0
N1896 N 0.7919 0.69526 0.75291 0.0
N1897 N 0.79571 0.63061 0.75476 0.0
H1898 H 0.7999 0.58531 0.01291 0.0
H1899 H 0.89282 0.51585 0.02841 0.0
H1900 H 0.85891 0.64509 0.99924 0.0
H1901 H 0.93963 0.59103 0.04992 0.0
H1902 H 0.85793 0.53741 0.02419 0.0
H1903 H 0.82934 0.56256 0.03229 0.0
C1904 C 0.81906 0.59369 0.014 0.0
C1905 C 0.82702 0.61695 0.00406 0.0
C1906 C 0.87567 0.54916 0.03077 0.0
C1907 C 0.8607 0.59086 0.02595 0.0
C1908 C 0.89557 0.5368 0.03316 0.0
C1909 C 0.919 0.55179 0.03913 0.0
C1910 C 0.87953 0.57658 0.03432 0.0
C1911 C 0.92178 0.57887 0.04493 0.0
C1912 C 0.83583 0.58059 0.02497 0.0
C1913 C 0.85198 0.62711 0.00638 0.0
N1914 N 0.90232 0.59047 0.04181 0.0
N1915 N 0.86796 0.61391 0.017 0.0
H1916 H 0.16921 0.05981 0.76448 0.0
H1917 H 0.22892 0.20597 0.82375 0.0
H1918 H 0.19268 0.08303 0.84331 0.0
H1919 H 0.21942 0.18054 0.74415 0.0
H1920 H 0.21306 0.16152 0.83103 0.0
H1921 H 0.18492 0.10432 0.75654 0.0
C1922 C 0.17761 0.07424 0.78015 0.0
C1923 C 0.1796 0.06759 0.80464 0.0
C1924 C 0.21446 0.16562 0.81196 0.0
C1925 C 0.19757 0.11864 0.79561 0.0
C1926 C 0.22347 0.19107 0.80774 0.0
C1927 C 0.22555 0.19711 0.78325 0.0
C1928 C 0.20725 0.14592 0.79158 0.0
C1929 C 0.21822 0.17684 0.76335 0.0
C1930 C 0.18664 0.09964 0.77556 0.0
C1931 C 0.19076 0.08716 0.82413 0.0
N1932 N 0.20933 0.15216 0.76794 0.0
N1933 N 0.19924 0.11176 0.81919 0.0
H1934 H 0.37828 0.01163 0.25413 0.0
H1935 H 0.28001 0.90363 0.30249 0.0
H1936 H 0.34809 0.02185 0.32436 0.0
H1937 H 0.31556 0.88788 0.23671 0.0
H1938 H 0.3027 0.94837 0.30858 0.0
H1939 H 0.35377 0.96743 0.24549 0.0
C1940 C 0.36652 0.00464 0.26773 0.0
C1941 C 0.36533 0.02054 0.29006 0.0
C1942 C 0.30555 0.93523 0.29273 0.0
C1943 C 0.33718 0.97006 0.2802 0.0
C1944 C 0.29252 0.90969 0.28921 0.0
C1945 C 0.296 0.89209 0.26912 0.0
C1946 C 0.32224 0.9433 0.27603 0.0
C1947 C 0.3124 0.90093 0.25246 0.0
C1948 C 0.35255 0.9794 0.26277 0.0
C1949 C 0.34974 0.01038 0.30695 0.0
N1950 N 0.32502 0.92596 0.25633 0.0
N1951 N 0.33632 0.98587 0.30165 0.0
H1952 H 0.43951 0.29487 0.57269 0.0
H1953 H 0.52457 0.43145 0.5617 0.0
H1954 H 0.50914 0.3237 0.61646 0.0
H1955 H 0.45526 0.40348 0.51738 0.0
H1956 H 0.5209 0.38999 0.57875 0.0
H1957 H 0.44682 0.33187 0.5489 0.0
C1958 C 0.45651 0.30873 0.57711 0.0
C1959 C 0.47362 0.3062 0.59689 0.0
C1960 C 0.50653 0.39276 0.56518 0.0
C1961 C 0.48196 0.3489 0.56973 0.0
C1962 C 0.5086 0.41646 0.55545 0.0
C1963 C 0.49008 0.42094 0.53826 0.0
C1964 C 0.48568 0.37333 0.55781 0.0
C1965 C 0.46989 0.40081 0.53068 0.0
C1966 C 0.46062 0.32995 0.56352 0.0
C1967 C 0.49533 0.32482 0.60154 0.0
N1968 N 0.46813 0.37793 0.54066 0.0
N1969 N 0.49874 0.34547 0.58827 0.0
H1970 H 0.43089 0.73649 0.33223 0.0
H1971 H 0.34516 0.81514 0.25947 0.0
H1972 H 0.46009 0.80289 0.29643 0.0
H1973 H 0.32157 0.73666 0.27611 0.0
H1974 H 0.38716 0.81225 0.27329 0.0
H1975 H 0.39039 0.73775 0.313 0.0
C1976 C 0.42877 0.75141 0.32033 0.0
C1977 C 0.44889 0.76972 0.31604 0.0
C1978 C 0.37278 0.79559 0.27362 0.0
C1979 C 0.40239 0.77126 0.29386 0.0
C1980 C 0.3488 0.7972 0.26573 0.0
C1981 C 0.32973 0.77617 0.26679 0.0
C1982 C 0.37765 0.77293 0.28291 0.0
C1983 C 0.33558 0.75342 0.27503 0.0
C1984 C 0.40562 0.752 0.3092 0.0
C1985 C 0.44504 0.78842 0.30022 0.0
N1986 N 0.35894 0.75253 0.28301 0.0
N1987 N 0.42217 0.78887 0.28984 0.0
H1988 H 0.94429 0.66384 0.1076 0.0
H1989 H 0.04788 0.61364 0.03915 0.0
H1990 H 0.01746 0.70862 0.11987 0.0
H1991 H 0.99208 0.56071 0.06709 0.0
H1992 H 0.03616 0.65026 0.06461 0.0
H1993 H 0.95965 0.62687 0.08765 0.0
C1994 C 0.96358 0.66585 0.10616 0.0
C1995 C 0.97963 0.68929 0.11547 0.0
C1996 C 0.02655 0.63056 0.06514 0.0
C1997 C 0.9972 0.64733 0.09225 0.0
C1998 C 0.03324 0.60976 0.05071 0.0
C1999 C 0.02023 0.58433 0.05034 0.0
C2000 C 0.0066 0.62572 0.07897 0.0
C2001 C 0.00168 0.58017 0.06586 0.0
C2002 C 0.97233 0.64476 0.09488 0.0
C2003 C 0.00449 0.69082 0.11311 0.0
N2004 N 0.99508 0.60067 0.0792 0.0
N2005 N 0.0125 0.67024 0.10142 0.0
H2006 H 0.09435 0.28106 0.85454 0.0
H2007 H 0.17326 0.30016 0.7402 0.0
H2008 H 0.07348 0.31762 0.79041 0.0
H2009 H 0.20163 0.27777 0.80956 0.0
H2010 H 0.13695 0.30764 0.75917 0.0
H2011 H 0.13432 0.28118 0.83982 0.0
C2012 C 0.09825 0.28944 0.83759 0.0
C2013 C 0.08038 0.29913 0.8236 0.0
C2014 C 0.15122 0.30143 0.77044 0.0
C2015 C 0.12597 0.29901 0.80649 0.0
C2016 C 0.17193 0.29712 0.75957 0.0
C2017 C 0.19055 0.28866 0.77346 0.0
C2018 C 0.14884 0.29676 0.7953 0.0
C2019 C 0.18789 0.28486 0.79843 0.0
C2020 C 0.12106 0.28944 0.82916 0.0
C2021 C 0.08653 0.30974 0.80175 0.0
N2022 N 0.1673 0.28869 0.80851 0.0
N2023 N 0.10863 0.30914 0.79378 0.0
H2024 H 0.47931 0.71149 0.97787 0.0
H2025 H 0.56607 0.61651 0.02183 0.0
H2026 H 0.55676 0.72786 0.97395 0.0
H2027 H 0.48938 0.59268 0.99759 0.0
H2028 H 0.56344 0.66136 0.01455 0.0
H2029 H 0.48361 0.6725 0.99695 0.0
C2030 C 0.49731 0.7072 0.98143 0.0
C2031 C 0.51764 0.7227 0.97373 0.0
C2032 C 0.54721 0.6463 0.01106 0.0
C2033 C 0.52257 0.67789 0.99544 0.0
C2034 C 0.54869 0.62083 0.01518 0.0
C2035 C 0.52794 0.60103 0.01006 0.0
C2036 C 0.52474 0.65187 0.0022 0.0
C2037 C 0.50583 0.60742 0.00149 0.0
C2038 C 0.4997 0.68483 0.99223 0.0
C2039 C 0.54054 0.71631 0.97928 0.0
N2040 N 0.50481 0.63232 0.99783 0.0
N2041 N 0.54236 0.69411 0.98948 0.0
H2042 H 0.07042 0.79806 0.65959 0.0
H2043 H 0.2093 0.86191 0.70202 0.0
H2044 H 0.09677 0.88073 0.66112 0.0
H2045 H 0.173 0.78991 0.72432 0.0
H2046 H 0.1699 0.86873 0.68301 0.0
H2047 H 0.11011 0.79377 0.67834 0.0
C2048 C 0.0846 0.81533 0.66374 0.0
C2049 C 0.08023 0.83983 0.6589 0.0
C2050 C 0.17065 0.85156 0.69222 0.0
C2051 C 0.1258 0.83499 0.68051 0.0
C2052 C 0.19302 0.84768 0.70301 0.0
C2053 C 0.19424 0.82528 0.71458 0.0
C2054 C 0.14967 0.83267 0.69279 0.0
C2055 C 0.17278 0.80741 0.71551 0.0
C2056 C 0.10724 0.81287 0.6746 0.0
C2057 C 0.09938 0.86149 0.66464 0.0
N2058 N 0.1514 0.81139 0.70456 0.0
N2059 N 0.12144 0.85857 0.67518 0.0
H2060 H 0.02742 0.34197 0.44286 0.0
H2061 H 0.97089 0.45255 0.51635 0.0
H2062 H 0.95952 0.32794 0.475 0.0
H2063 H 0.04136 0.46801 0.48968 0.0
H2064 H 0.96836 0.40617 0.50408 0.0
H2065 H 0.03464 0.38743 0.46217 0.0
C2066 C 0.0141 0.34835 0.45409 0.0
C2067 C 0.99269 0.33109 0.45709 0.0
C2068 C 0.98451 0.4196 0.50107 0.0
C2069 C 0.00088 0.38308 0.4792 0.0
C2070 C 0.98596 0.44614 0.50808 0.0
C2071 C 0.00627 0.46419 0.50381 0.0
C2072 C 0.00338 0.41092 0.48939 0.0
C2073 C 0.02536 0.45473 0.49329 0.0
C2074 C 0.01827 0.37431 0.46513 0.0
C2075 C 0.97617 0.34049 0.47194 0.0
N2076 N 0.02332 0.42871 0.48613 0.0
N2077 N 0.98055 0.36582 0.48227 0.0
H2078 H 0.43458 0.28343 0.14779 0.0
H2079 H 0.36582 0.31636 0.26325 0.0
H2080 H 0.4716 0.32856 0.21629 0.0
H2081 H 0.33635 0.25299 0.20476 0.0
H2082 H 0.40579 0.31852 0.24834 0.0
H2083 H 0.3998 0.26862 0.1699 0.0
C2084 C 0.43548 0.28986 0.16763 0.0
C2085 C 0.45567 0.30756 0.18022 0.0
C2086 C 0.39068 0.30386 0.239 0.0
C2087 C 0.4159 0.29116 0.20554 0.0
C2088 C 0.36788 0.30273 0.24742 0.0
C2089 C 0.34782 0.28476 0.2349 0.0
C2090 C 0.39325 0.28717 0.2177 0.0
C2091 C 0.35138 0.26733 0.2147 0.0
C2092 C 0.41568 0.28136 0.18028 0.0
C2093 C 0.45623 0.31498 0.20597 0.0
N2094 N 0.37362 0.26924 0.20645 0.0
N2095 N 0.43633 0.3072 0.21773 0.0
H2096 H 0.57004 0.52687 0.32361 0.0
H2097 H 0.52875 0.46983 0.44645 0.0
H2098 H 0.60578 0.47323 0.36092 0.0
H2099 H 0.51877 0.54654 0.43167 0.0
H2100 H 0.55029 0.4663 0.40953 0.0
H2101 H 0.54572 0.53098 0.35881 0.0
C2102 C 0.5729 0.51615 0.33928 0.0
C2103 C 0.58995 0.49971 0.33941 0.0
C2104 C 0.5432 0.48381 0.41428 0.0
C2105 C 0.56189 0.50379 0.3791 0.0
C2106 C 0.53066 0.48576 0.43521 0.0
C2107 C 0.52206 0.50861 0.44228 0.0
C2108 C 0.54693 0.50468 0.4001 0.0
C2109 C 0.52523 0.52863 0.42697 0.0
C2110 C 0.55901 0.51847 0.35925 0.0
C2111 C 0.59293 0.48621 0.3601 0.0
N2112 N 0.5375 0.52624 0.40657 0.0
N2113 N 0.57885 0.48835 0.379 0.0
H2114 H 0.2477 0.80954 0.05899 0.0
H2115 H 0.23303 0.82313 0.20514 0.0
H2116 H 0.20796 0.8638 0.09358 0.0
H2117 H 0.26152 0.76096 0.16677 0.0
H2118 H 0.22285 0.83794 0.16466 0.0
H2119 H 0.25046 0.78981 0.09773 0.0
C2120 C 0.23886 0.81675 0.07454 0.0
C2121 C 0.2274 0.8382 0.07296 0.0
C2122 C 0.23127 0.82102 0.16509 0.0
C2123 C 0.23145 0.81644 0.11798 0.0
C2124 C 0.23727 0.81269 0.18822 0.0
C2125 C 0.24825 0.79082 0.18934 0.0
C2126 C 0.23643 0.80752 0.14291 0.0
C2127 C 0.25316 0.77795 0.1668 0.0
C2128 C 0.24068 0.80567 0.09681 0.0
C2129 C 0.21663 0.84704 0.09386 0.0
N2130 N 0.2473 0.78652 0.1446 0.0
N2131 N 0.21928 0.83643 0.11565 0.0
H2132 H 0.96454 0.5538 0.80653 0.0
H2133 H 0.95702 0.56765 0.95413 0.0
H2134 H 0.92003 0.60067 0.84443 0.0
H2135 H 0.00952 0.52958 0.91924 0.0
H2136 H 0.94341 0.57963 0.91381 0.0
H2137 H 0.9814 0.54452 0.8472 0.0
C2138 C 0.95832 0.56217 0.82339 0.0
C2139 C 0.9406 0.57781 0.82202 0.0
C2140 C 0.95799 0.56877 0.91491 0.0
C2141 C 0.95982 0.56722 0.8686 0.0
C2142 C 0.96577 0.56184 0.93799 0.0
C2143 C 0.98441 0.54745 0.94012 0.0
C2144 C 0.96872 0.56113 0.89359 0.0
C2145 C 0.99512 0.5407 0.91849 0.0
C2146 C 0.96798 0.55688 0.84659 0.0
C2147 C 0.93334 0.58821 0.84449 0.0
N2148 N 0.987 0.54745 0.89607 0.0
N2149 N 0.94289 0.58263 0.86679 0.0
H2150 H 0.33875 0.22104 0.57119 0.0
H2151 H 0.23109 0.21909 0.65829 0.0
H2152 H 0.26517 0.17969 0.54805 0.0
H2153 H 0.30207 0.26787 0.67786 0.0
H2154 H 0.2434 0.20403 0.6178 0.0
H2155 H 0.32587 0.23809 0.61058 0.0
C2156 C 0.31989 0.21558 0.57433 0.0
C2157 C 0.30305 0.19884 0.55626 0.0
C2158 C 0.25625 0.21813 0.63089 0.0
C2159 C 0.2882 0.21826 0.60134 0.0
C2160 C 0.24922 0.22669 0.65396 0.0
C2161 C 0.2656 0.24473 0.67127 0.0
C2162 C 0.27987 0.22758 0.62528 0.0
C2163 C 0.28889 0.25399 0.66489 0.0
C2164 C 0.31254 0.22536 0.59682 0.0
C2165 C 0.27883 0.1925 0.5614 0.0
N2166 N 0.29538 0.24523 0.64242 0.0
N2167 N 0.27217 0.20214 0.58348 0.0
H2168 H 0.59655 0.43022 0.18209 0.0
H2169 H 0.55063 0.53509 0.1053 0.0
H2170 H 0.61557 0.51332 0.20511 0.0
H2171 H 0.5608 0.46221 0.06677 0.0
H2172 H 0.56952 0.52424 0.14402 0.0
H2173 H 0.57989 0.43872 0.14081 0.0
C2174 C 0.59749 0.45019 0.1784 0.0
C2175 C 0.60721 0.4711 0.19716 0.0
C2176 C 0.56769 0.5106 0.12712 0.0
C2177 C 0.58799 0.48078 0.15048 0.0
C2178 C 0.55676 0.5167 0.10506 0.0
C2179 C 0.55433 0.49955 0.0829 0.0
C2180 C 0.576 0.48702 0.12713 0.0
C2181 C 0.56253 0.47595 0.08358 0.0
C2182 C 0.58799 0.45498 0.15491 0.0
C2183 C 0.60805 0.49658 0.19137 0.0
N2184 N 0.573 0.47026 0.10549 0.0
N2185 N 0.5983 0.50066 0.16867 0.0
H2186 H 0.26886 0.82854 0.95864 0.0
H2187 H 0.23763 0.84002 0.81295 0.0
H2188 H 0.21873 0.87552 0.93272 0.0
H2189 H 0.29135 0.79867 0.84205 0.0
H2190 H 0.22761 0.85038 0.85565 0.0
H2191 H 0.2736 0.81395 0.91541 0.0
C2192 C 0.25855 0.83557 0.94382 0.0
C2193 C 0.24344 0.85346 0.9495 0.0
C2194 C 0.2415 0.83894 0.85266 0.0
C2195 C 0.24917 0.83695 0.89939 0.0
C2196 C 0.24725 0.83296 0.82824 0.0
C2197 C 0.26543 0.81839 0.82374 0.0
C2198 C 0.25391 0.83023 0.87286 0.0
C2199 C 0.27729 0.80998 0.84445 0.0
C2200 C 0.26138 0.82727 0.91903 0.0
C2201 C 0.23049 0.86166 0.92932 0.0
N2202 N 0.27134 0.81602 0.86796 0.0
N2203 N 0.23384 0.85356 0.90518 0.0
H2204 H 0.90939 0.57691 0.66813 0.0
H2205 H 0.01019 0.51834 0.59844 0.0
H2206 H 0.94655 0.51926 0.69641 0.0
H2207 H 0.96193 0.56175 0.56264 0.0
H2208 H 0.98662 0.51802 0.63435 0.0
H2209 H 0.92763 0.5711 0.62897 0.0
C2210 C 0.92115 0.56283 0.66602 0.0
C2211 C 0.92658 0.54871 0.68569 0.0
C2212 C 0.98104 0.52743 0.61856 0.0
C2213 C 0.94774 0.54219 0.64105 0.0
C2214 C 0.99452 0.52765 0.59811 0.0
C2215 C 0.98805 0.5402 0.57768 0.0
C2216 C 0.96111 0.54013 0.61868 0.0
C2217 C 0.96755 0.5519 0.57809 0.0
C2218 C 0.93157 0.55953 0.64366 0.0
C2219 C 0.94191 0.53068 0.68185 0.0
N2220 N 0.95494 0.5518 0.59838 0.0
N2221 N 0.95214 0.52816 0.66012 0.0
H2222 H 0.27776 0.22757 0.45149 0.0
H2223 H 0.31863 0.26991 0.32485 0.0
H2224 H 0.35068 0.22893 0.43252 0.0
H2225 H 0.25395 0.28736 0.35465 0.0
H2226 H 0.33297 0.25953 0.36587 0.0
H2227 H 0.27082 0.25441 0.41858 0.0
C2228 C 0.29245 0.23395 0.44062 0.0
C2229 C 0.31468 0.22577 0.44438 0.0
C2230 C 0.31586 0.26609 0.36352 0.0
C2231 C 0.30675 0.25597 0.40634 0.0
C2232 C 0.30761 0.27195 0.34008 0.0
C2233 C 0.28482 0.27901 0.33618 0.0
C2234 C 0.30108 0.26706 0.38304 0.0
C2235 C 0.27144 0.28156 0.35665 0.0
C2236 C 0.28852 0.24931 0.42185 0.0
C2237 C 0.33324 0.23477 0.43005 0.0
N2238 N 0.2796 0.2752 0.37909 0.0
N2239 N 0.32868 0.24896 0.41121 0.0
H2240 H 0.3859 0.65152 0.48691 0.0
H2241 H 0.41654 0.50988 0.49509 0.0
H2242 H 0.33871 0.58961 0.51485 0.0
H2243 H 0.47324 0.5776 0.49871 0.0
H2244 H 0.38647 0.53826 0.49585 0.0
H2245 H 0.41745 0.62464 0.48625 0.0
C2246 C 0.38225 0.63247 0.49317 0.0
C2247 C 0.35958 0.6229 0.501 0.0
C2248 C 0.40551 0.54694 0.49643 0.0
C2249 C 0.39528 0.59181 0.49957 0.0
C2250 C 0.42265 0.53072 0.49575 0.0
C2251 C 0.44746 0.54146 0.49706 0.0
C2252 C 0.41316 0.57412 0.49799 0.0
C2253 C 0.45434 0.56863 0.49808 0.0
C2254 C 0.40022 0.61711 0.4927 0.0
C2255 C 0.35587 0.59794 0.50875 0.0
N2256 N 0.43731 0.58405 0.49845 0.0
N2257 N 0.37336 0.58323 0.50757 0.0
H2258 H 0.84775 0.0031 0.57462 0.0
H2259 H 0.9466 0.97564 0.49053 0.0
H2260 H 0.85201 0.92304 0.55196 0.0
H2261 H 0.97074 0.02365 0.56137 0.0
H2262 H 0.90702 0.96103 0.50558 0.0
H2263 H 0.88912 0.01666 0.56317 0.0
C2264 C 0.8575 0.98843 0.56744 0.0
C2265 C 0.84672 0.96193 0.56447 0.0
C2266 C 0.92109 0.97472 0.51774 0.0
C2267 C 0.89306 0.97722 0.55062 0.0
C2268 C 0.94347 0.98308 0.5092 0.0
C2269 C 0.96174 0.00069 0.52487 0.0
C2270 C 0.91686 0.98482 0.54168 0.0
C2271 C 0.95701 0.00986 0.54891 0.0
C2272 C 0.88093 0.99613 0.56099 0.0
C2273 C 0.85986 0.94359 0.55489 0.0
N2274 N 0.9348 0.00211 0.55653 0.0
N2275 N 0.88226 0.9516 0.54787 0.0
H2276 H 0.79036 0.09325 0.28788 0.0
H2277 H 0.72769 0.18043 0.20039 0.0
H2278 H 0.80599 0.09689 0.21142 0.0
H2279 H 0.74757 0.20071 0.27998 0.0
H2280 H 0.7458 0.14129 0.20212 0.0
H2281 H 0.76259 0.12317 0.28243 0.0
C2282 C 0.78765 0.09994 0.26977 0.0
C2283 C 0.80102 0.09304 0.25024 0.0
C2284 C 0.74591 0.15423 0.21916 0.0
C2285 C 0.76917 0.12728 0.24402 0.0
C2286 C 0.73559 0.1764 0.21823 0.0
C2287 C 0.73636 0.19367 0.24009 0.0
C2288 C 0.7564 0.14921 0.24222 0.0
C2289 C 0.74685 0.18788 0.26273 0.0
C2290 C 0.77184 0.11709 0.26675 0.0
C2291 C 0.79631 0.10197 0.22707 0.0
N2292 N 0.75643 0.16606 0.26323 0.0
N2293 N 0.78095 0.119 0.22467 0.0
H2294 H 0.7151 0.12635 0.97483 0.0
H2295 H 0.61872 0.06645 0.06355 0.0
H2296 H 0.73569 0.10269 0.04647 0.0
H2297 H 0.59927 0.09491 0.9941 0.0
H2298 H 0.66174 0.07839 0.05733 0.0
H2299 H 0.67246 0.11351 0.9811 0.0
C2300 C 0.71066 0.11839 0.99186 0.0
C2301 C 0.729 0.11561 0.01016 0.0
C2302 C 0.64805 0.08204 0.04348 0.0
C2303 C 0.68017 0.10091 0.01751 0.0
C2304 C 0.62356 0.07525 0.04704 0.0
C2305 C 0.60557 0.07981 0.02934 0.0
C2306 C 0.65444 0.09336 0.02203 0.0
C2307 C 0.61266 0.09117 0.00824 0.0
C2308 C 0.68629 0.11109 0.99546 0.0
C2309 C 0.72215 0.10519 0.03187 0.0
N2310 N 0.63655 0.09754 0.00516 0.0
N2311 N 0.69828 0.09823 0.03495 0.0
H2312 H 0.15745 0.43288 0.24646 0.0
H2313 H 0.24341 0.34516 0.30566 0.0
H2314 H 0.18197 0.43983 0.32541 0.0
H2315 H 0.24216 0.35731 0.22802 0.0
H2316 H 0.21753 0.37724 0.31224 0.0
H2317 H 0.18537 0.40277 0.23814 0.0
C2318 C 0.16869 0.42818 0.262 0.0
C2319 C 0.16727 0.43891 0.28668 0.0
C2320 C 0.22302 0.37311 0.29377 0.0
C2321 C 0.19894 0.40445 0.27731 0.0
C2322 C 0.23773 0.35476 0.29002 0.0
C2323 C 0.24486 0.34871 0.26631 0.0
C2324 C 0.21513 0.38536 0.27359 0.0
C2325 C 0.23711 0.36168 0.24664 0.0
C2326 C 0.18465 0.4111 0.25722 0.0
C2327 C 0.18235 0.43216 0.30607 0.0
N2328 N 0.22242 0.37932 0.25064 0.0
N2329 N 0.19735 0.41528 0.30097 0.0
H2330 H 0.21895 0.51125 0.02025 0.0
H2331 H 0.07781 0.45898 0.97867 0.0
H2332 H 0.18288 0.43154 0.02073 0.0
H2333 H 0.11279 0.53991 0.98594 0.0
H2334 H 0.11768 0.44693 0.98462 0.0
H2335 H 0.18181 0.52032 0.99937 0.0
C2336 C 0.20323 0.49559 0.01588 0.0
C2337 C 0.20387 0.4707 0.02265 0.0
C2338 C 0.11667 0.46729 0.98445 0.0
C2339 C 0.16127 0.48099 0.99864 0.0
C2340 C 0.09395 0.47415 0.9809 0.0
C2341 C 0.09214 0.50049 0.98228 0.0
C2342 C 0.13759 0.48696 0.9895 0.0
C2343 C 0.11349 0.51939 0.98505 0.0
C2344 C 0.18205 0.50079 0.00385 0.0
C2345 C 0.18306 0.4511 0.01615 0.0
N2346 N 0.13538 0.51228 0.98899 0.0
N2347 N 0.16249 0.45674 0.00472 0.0
H2348 H 0.82529 0.98649 0.30644 0.0
H2349 H 0.79028 0.84349 0.22929 0.0
H2350 H 0.83856 0.97101 0.2293 0.0
H2351 H 0.78285 0.86161 0.30772 0.0
H2352 H 0.80611 0.88986 0.22764 0.0
H2353 H 0.808 0.94076 0.3059 0.0
C2354 C 0.82459 0.9735 0.28929 0.0
C2355 C 0.83353 0.98279 0.26787 0.0
C2356 C 0.80095 0.88363 0.24516 0.0
C2357 C 0.81351 0.92979 0.26719 0.0
C2358 C 0.79184 0.85718 0.24612 0.0
C2359 C 0.78527 0.84855 0.26871 0.0
C2360 C 0.8034 0.90157 0.26692 0.0
C2361 C 0.78775 0.86721 0.2899 0.0
C2362 C 0.81465 0.94724 0.28903 0.0
C2363 C 0.83196 0.96477 0.24627 0.0
N2364 N 0.79661 0.89272 0.28846 0.0
N2365 N 0.82216 0.9391 0.24648 0.0
H2366 H 0.63066 0.04727 0.76247 0.0
H2367 H 0.73385 0.17493 0.8039 0.0
H2368 H 0.67482 0.0639 0.83409 0.0
H2369 H 0.6907 0.15964 0.73187 0.0
H2370 H 0.7138 0.13285 0.81406 0.0
H2371 H 0.6536 0.08692 0.74981 0.0
C2372 C 0.64521 0.05916 0.77552 0.0
C2373 C 0.6507 0.05224 0.79947 0.0
C2374 C 0.70876 0.13854 0.79595 0.0
C2375 C 0.67702 0.09768 0.78504 0.0
C2376 C 0.72025 0.16256 0.79013 0.0
C2377 C 0.71385 0.17071 0.76704 0.0
C2378 C 0.6906 0.12257 0.7786 0.0
C2379 C 0.69612 0.15399 0.74989 0.0
C2380 C 0.6583 0.08181 0.76825 0.0
C2381 C 0.66981 0.06843 0.8155 0.0
N2382 N 0.68498 0.13072 0.75607 0.0
N2383 N 0.68218 0.09038 0.80802 0.0
loop_
_geom_bond_atom_site_label_1
_geom_bond_atom_site_label_2
_geom_bond_distance
_geom_bond_site_symmetry_2
_ccdc_geom_bond_type
Mg0 O1 2.028 . S
Mg0 O7 1.986 . S
Mg0 O9 2.114 1_455 S
Mg0 O10 2.251 1_455 S
Mg0 O13 2.010 . S
O1 Mg0 2.028 . S
O1 C4 1.250 . S
O2 Mg3 2.028 . S
O2 C4 1.248 1_655 S
Mg3 O2 2.028 . S
Mg3 O8 2.032 . S
Mg3 O10 2.079 . S
C4 O1 1.250 . S
C4 O2 1.248 1_455 S
C5 O6 1.264 . S
C5 O13 1.249 . S
O6 C5 1.264 . S
O7 Mg0 1.986 . S
O7 C11 1.246 . S
O8 Mg3 2.032 . S
O8 C11 1.259 1_655 S
O9 Mg0 2.114 1_655 S
O9 C12 1.252 . S
O10 Mg0 2.251 1_655 S
O10 Mg3 2.079 . S
O10 C12 1.273 . S
C11 O7 1.246 . S
C11 O8 1.259 1_455 S
C12 O9 1.252 . S
C12 O10 1.273 . S
O13 Mg0 2.010 . S
O13 C5 1.249 . S
Mg14 O15 2.028 . S
Mg14 O21 1.986 . S
Mg14 O23 2.114 1_455 S
Mg14 O24 2.251 1_455 S
Mg14 O27 2.010 . S
O15 Mg14 2.028 . S
O15 C18 1.250 1_455 S
O16 Mg17 2.028 . S
O16 C18 1.248 . S
Mg17 O16 2.028 . S
Mg17 O22 2.032 . S
Mg17 O24 2.079 . S
C18 O15 1.250 1_655 S
C18 O16 1.248 . S
C19 O20 1.264 . S
C19 O27 1.249 . S
O20 C19 1.264 . S
O21 Mg14 1.986 . S
O21 C25 1.246 1_455 S
O22 Mg17 2.032 . S
O22 C25 1.259 . S
O23 Mg14 2.114 1_655 S
O23 C26 1.252 . S
O24 Mg14 2.251 1_655 S
O24 Mg17 2.079 . S
O24 C26 1.273 . S
C25 O21 1.246 1_655 S
C25 O22 1.259 . S
C26 O23 1.252 . S
C26 O24 1.273 . S
O27 Mg14 2.010 . S
O27 C19 1.249 . S
Mg28 O29 2.028 . S
Mg28 O35 1.986 . S
Mg28 O37 2.114 . S
Mg28 O38 2.251 . S
Mg28 O41 2.010 . S
O29 Mg28 2.028 . S
O29 C32 1.250 . S
O30 Mg31 2.028 . S
O30 C32 1.248 . S
Mg31 O30 2.028 . S
Mg31 O36 2.032 . S
Mg31 O38 2.079 . S
C32 O29 1.250 . S
C32 O30 1.248 . S
C33 O34 1.264 . S
C33 O41 1.249 . S
O34 C33 1.264 . S
O35 Mg28 1.986 . S
O35 C39 1.246 . S
O36 Mg31 2.032 . S
O36 C39 1.259 . S
O37 Mg28 2.114 . S
O37 C40 1.252 . S
O38 Mg28 2.251 . S
O38 Mg31 2.079 . S
O38 C40 1.273 . S
C39 O35 1.246 . S
C39 O36 1.259 . S
C40 O37 1.252 . S
C40 O38 1.273 . S
O41 Mg28 2.010 . S
O41 C33 1.249 . S
Mg42 O43 2.028 . S
Mg42 O49 1.986 . S
Mg42 O51 2.114 . S
Mg42 O52 2.251 . S
Mg42 O55 2.010 . S
O43 Mg42 2.028 . S
O43 C46 1.250 . S
O44 Mg45 2.028 . S
O44 C46 1.248 . S
Mg45 O44 2.028 . S
Mg45 O50 2.032 . S
Mg45 O52 2.079 . S
C46 O43 1.250 . S
C46 O44 1.248 . S
C47 O48 1.264 . S
C47 O55 1.249 . S
O48 C47 1.264 . S
O49 Mg42 1.986 . S
O49 C53 1.246 . S
O50 Mg45 2.032 . S
O50 C53 1.259 . S
O51 Mg42 2.114 . S
O51 C54 1.252 . S
O52 Mg42 2.251 . S
O52 Mg45 2.079 . S
O52 C54 1.273 . S
C53 O49 1.246 . S
C53 O50 1.259 . S
C54 O51 1.252 . S
C54 O52 1.273 . S
O55 Mg42 2.010 . S
O55 C47 1.249 . S
Mg56 O57 2.028 . S
Mg56 O63 1.986 . S
Mg56 O65 2.114 1_455 S
Mg56 O66 2.251 1_455 S
Mg56 O69 2.010 . S
O57 Mg56 2.028 . S
O57 C60 1.230 1_455 S
O58 Mg59 2.028 . S
O58 C60 1.288 . S
Mg59 O58 2.028 . S
Mg59 O64 2.032 . S
Mg59 O66 2.079 . S
C60 O57 1.230 1_655 S
C60 O58 1.288 . S
C61 O62 1.264 . S
C61 O69 1.249 . S
O62 C61 1.264 . S
O63 Mg56 1.986 . S
O63 C67 1.246 . S
O64 Mg59 2.032 . S
O64 C67 1.259 1_655 S
O65 Mg56 2.114 1_655 S
O65 C68 1.252 . S
O66 Mg56 2.251 1_655 S
O66 Mg59 2.079 . S
O66 C68 1.273 . S
C67 O63 1.246 . S
C67 O64 1.259 1_455 S
C68 O65 1.252 . S
C68 O66 1.273 . S
O69 Mg56 2.010 . S
O69 C61 1.249 . S
Mg70 O71 2.028 . S
Mg70 O77 1.986 . S
Mg70 O79 2.114 . S
Mg70 O80 2.251 . S
Mg70 O83 2.010 . S
O71 Mg70 2.028 . S
O71 C74 1.250 . S
O72 Mg73 2.028 . S
O72 C74 1.248 . S
Mg73 O72 2.028 . S
Mg73 O78 2.032 . S
Mg73 O80 2.079 . S
C74 O71 1.250 . S
C74 O72 1.248 . S
C75 O76 1.264 . S
C75 O83 1.249 . S
O76 C75 1.264 . S
O77 Mg70 1.986 . S
O77 C81 1.246 . S
O78 Mg73 2.032 . S
O78 C81 1.259 . S
O79 Mg70 2.114 . S
O79 C82 1.252 . S
O80 Mg70 2.251 . S
O80 Mg73 2.079 . S
O80 C82 1.273 . S
C81 O77 1.246 . S
C81 O78 1.259 . S
C82 O79 1.252 . S
C82 O80 1.273 . S
O83 Mg70 2.010 . S
O83 C75 1.249 . S
Mg84 O85 2.028 . S
Mg84 O91 1.986 . S
Mg84 O93 2.114 . S
Mg84 O94 2.251 . S
Mg84 O97 2.010 . S
O85 Mg84 2.028 . S
O85 C88 1.250 . S
O86 Mg87 2.028 . S
O86 C88 1.248 . S
Mg87 O86 2.028 . S
Mg87 O92 2.032 . S
Mg87 O94 2.079 . S
C88 O85 1.250 . S
C88 O86 1.248 . S
C89 O90 1.264 . S
C89 O97 1.249 . S
O90 C89 1.264 . S
O91 Mg84 1.986 . S
O91 C95 1.246 . S
O92 Mg87 2.032 . S
O92 C95 1.259 . S
O93 Mg84 2.114 . S
O93 C96 1.252 . S
O94 Mg84 2.251 . S
O94 Mg87 2.079 . S
O94 C96 1.273 . S
C95 O91 1.246 . S
C95 O92 1.259 . S
C96 O93 1.252 . S
C96 O94 1.273 . S
O97 Mg84 2.010 . S
O97 C89 1.249 . S
Mg98 O99 2.028 . S
Mg98 O105 1.986 . S
Mg98 O107 2.114 1_455 S
Mg98 O108 2.251 1_455 S
Mg98 O111 2.010 . S
O99 Mg98 2.028 . S
O99 C102 1.250 . S
O100 Mg101 2.028 . S
O100 C102 1.248 1_655 S
Mg101 O100 2.028 . S
Mg101 O106 2.032 . S
Mg101 O108 2.079 . S
C102 O99 1.250 . S
C102 O100 1.248 1_455 S
C103 O104 1.264 . S
C103 O111 1.249 . S
O104 C103 1.264 . S
O105 Mg98 1.986 . S
O105 C109 1.246 . S
O106 Mg101 2.032 . S
O106 C109 1.259 1_655 S
O107 Mg98 2.114 1_655 S
O107 C110 1.252 . S
O108 Mg98 2.251 1_655 S
O108 Mg101 2.079 . S
O108 C110 1.273 . S
C109 O105 1.246 . S
C109 O106 1.259 1_455 S
C110 O107 1.252 . S
C110 O108 1.273 . S
O111 Mg98 2.010 . S
O111 C103 1.249 . S
Mg112 O113 2.028 . S
Mg112 O119 1.986 . S
Mg112 O121 2.114 . S
Mg112 O122 2.251 . S
Mg112 O125 2.010 . S
O113 Mg112 2.028 . S
O113 C116 1.250 . S
O114 Mg115 2.028 . S
O114 C116 1.248 . S
Mg115 O114 2.028 . S
Mg115 O120 2.032 . S
Mg115 O122 2.079 . S
C116 O113 1.250 . S
C116 O114 1.248 . S
C117 O118 1.264 . S
C117 O125 1.249 . S
O118 C117 1.264 . S
O119 Mg112 1.986 . S
O119 C123 1.246 . S
O120 Mg115 2.032 . S
O120 C123 1.259 . S
O121 Mg112 2.114 . S
O121 C124 1.252 . S
O122 Mg112 2.251 . S
O122 Mg115 2.079 . S
O122 C124 1.273 . S
C123 O119 1.246 . S
C123 O120 1.259 . S
C124 O121 1.252 . S
C124 O122 1.273 . S
O125 Mg112 2.010 . S
O125 C117 1.249 . S
Mg126 O127 2.028 . S
Mg126 O133 1.986 . S
Mg126 O135 2.114 . S
Mg126 O136 2.251 . S
Mg126 O139 2.010 . S
O127 Mg126 2.028 . S
O127 C130 1.250 . S
O128 Mg129 2.028 . S
O128 C130 1.248 . S
Mg129 O128 2.028 . S
Mg129 O134 2.032 . S
Mg129 O136 2.079 . S
C130 O127 1.250 . S
C130 O128 1.248 . S
C131 O132 1.264 . S
C131 O139 1.249 . S
O132 C131 1.264 . S
O133 Mg126 1.986 . S
O133 C137 1.246 . S
O134 Mg129 2.032 . S
O134 C137 1.259 . S
O135 Mg126 2.114 . S
O135 C138 1.252 . S
O136 Mg126 2.251 . S
O136 Mg129 2.079 . S
O136 C138 1.273 . S
C137 O133 1.246 . S
C137 O134 1.259 . S
C138 O135 1.252 . S
C138 O136 1.273 . S
O139 Mg126 2.010 . S
O139 C131 1.249 . S
Mg140 O141 2.028 1_565 S
Mg140 O147 1.986 . S
Mg140 O149 2.114 1_565 S
Mg140 O150 2.251 . S
Mg140 O153 2.010 . S
O141 Mg140 2.028 1_545 S
O141 C144 1.250 . S
O142 Mg143 2.028 . S
O142 C144 1.248 . S
Mg143 O142 2.028 . S
Mg143 O148 2.032 1_545 S
Mg143 O150 2.079 1_545 S
C144 O141 1.250 . S
C144 O142 1.248 . S
C145 O146 1.264 . S
C145 O153 1.249 . S
O146 C145 1.264 . S
O147 Mg140 1.986 . S
O147 C151 1.246 . S
O148 Mg143 2.032 1_565 S
O148 C151 1.259 . S
O149 Mg140 2.114 1_545 S
O149 C152 1.252 . S
O150 Mg140 2.251 . S
O150 Mg143 2.079 1_565 S
O150 C152 1.273 1_565 S
C151 O147 1.246 . S
C151 O148 1.259 . S
C152 O149 1.252 . S
C152 O150 1.273 1_545 S
O153 Mg140 2.010 . S
O153 C145 1.249 . S
Mg154 O155 2.028 . S
Mg154 O161 1.986 . S
Mg154 O163 2.114 . S
Mg154 O164 2.251 . S
Mg154 O167 2.010 . S
O155 Mg154 2.028 . S
O155 C158 1.250 1_554 S
O156 Mg157 2.028 . S
O156 C158 1.248 1_554 S
Mg157 O156 2.028 . S
Mg157 O162 2.032 . S
Mg157 O164 2.079 . S
C158 O155 1.250 1_556 S
C158 O156 1.248 1_556 S
C159 O160 1.264 . S
C159 O167 1.249 . S
O160 C159 1.264 . S
O161 Mg154 1.986 . S
O161 C165 1.246 . S
O162 Mg157 2.032 . S
O162 C165 1.259 . S
O163 Mg154 2.114 . S
O163 C166 1.252 . S
O164 Mg154 2.251 . S
O164 Mg157 2.079 . S
O164 C166 1.273 . S
C165 O161 1.246 . S
C165 O162 1.259 . S
C166 O163 1.252 . S
C166 O164 1.273 . S
O167 Mg154 2.010 . S
O167 C159 1.249 . S
Mg168 O169 2.028 . S
Mg168 O175 1.986 . S
Mg168 O177 2.114 . S
Mg168 O178 2.251 . S
Mg168 O181 2.010 . S
O169 Mg168 2.028 . S
O169 C172 1.250 1_554 S
O170 Mg171 2.028 1_556 S
O170 C172 1.248 . S
Mg171 O170 2.028 1_554 S
Mg171 O176 2.032 . S
Mg171 O178 2.079 . S
C172 O169 1.250 1_556 S
C172 O170 1.248 . S
C173 O174 1.264 . S
C173 O181 1.249 . S
O174 C173 1.264 . S
O175 Mg168 1.986 . S
O175 C179 1.246 . S
O176 Mg171 2.032 . S
O176 C179 1.259 . S
O177 Mg168 2.114 . S
O177 C180 1.252 . S
O178 Mg168 2.251 . S
O178 Mg171 2.079 . S
O178 C180 1.273 . S
C179 O175 1.246 . S
C179 O176 1.259 . S
C180 O177 1.252 . S
C180 O178 1.273 . S
O181 Mg168 2.010 . S
O181 C173 1.249 . S
Mg182 O183 2.028 1_556 S
Mg182 O189 1.986 . S
Mg182 O191 2.114 1_556 S
Mg182 O192 2.251 . S
Mg182 O195 2.010 . S
O183 Mg182 2.028 1_554 S
O183 C186 1.250 . S
O184 Mg185 2.028 . S
O184 C186 1.248 . S
Mg185 O184 2.028 . S
Mg185 O190 2.032 1_554 S
Mg185 O192 2.079 1_554 S
C186 O183 1.250 . S
C186 O184 1.248 . S
C187 O188 1.264 . S
C187 O195 1.249 . S
O188 C187 1.264 . S
O189 Mg182 1.986 . S
O189 C193 1.246 . S
O190 Mg185 2.032 1_556 S
O190 C193 1.259 . S
O191 Mg182 2.114 1_554 S
O191 C194 1.252 . S
O192 Mg182 2.251 . S
O192 Mg185 2.079 1_556 S
O192 C194 1.273 1_556 S
C193 O189 1.246 . S
C193 O190 1.259 . S
C194 O191 1.252 . S
C194 O192 1.273 1_554 S
O195 Mg182 2.010 . S
O195 C187 1.249 . S
Mg196 O197 2.028 . S
Mg196 O203 1.986 . S
Mg196 O205 2.114 . S
Mg196 O206 2.251 . S
Mg196 O209 2.010 . S
O197 Mg196 2.028 . S
O197 C200 1.250 . S
O198 Mg199 2.028 . S
O198 C200 1.248 . S
Mg199 O198 2.028 . S
Mg199 O204 2.032 . S
Mg199 O206 2.079 . S
C200 O197 1.250 . S
C200 O198 1.248 . S
C201 O202 1.264 . S
C201 O209 1.249 . S
O202 C201 1.264 . S
O203 Mg196 1.986 . S
O203 C207 1.246 . S
O204 Mg199 2.032 . S
O204 C207 1.259 . S
O205 Mg196 2.114 . S
O205 C208 1.252 . S
O206 Mg196 2.251 . S
O206 Mg199 2.079 . S
O206 C208 1.273 . S
C207 O203 1.246 . S
C207 O204 1.259 . S
C208 O205 1.252 . S
C208 O206 1.273 . S
O209 Mg196 2.010 . S
O209 C201 1.249 . S
Mg210 O211 2.028 . S
Mg210 O217 1.986 . S
Mg210 O219 2.114 . S
Mg210 O220 2.251 . S
Mg210 O223 2.010 . S
O211 Mg210 2.028 . S
O211 C214 1.250 . S
O212 Mg213 2.028 . S
O212 C214 1.248 . S
Mg213 O212 2.028 . S
Mg213 O218 2.032 . S
Mg213 O220 2.079 . S
C214 O211 1.250 . S
C214 O212 1.248 . S
C215 O216 1.264 . S
C215 O223 1.249 . S
O216 C215 1.264 . S
O217 Mg210 1.986 . S
O217 C221 1.246 . S
O218 Mg213 2.032 . S
O218 C221 1.259 . S
O219 Mg210 2.114 . S
O219 C222 1.252 . S
O220 Mg210 2.251 . S
O220 Mg213 2.079 . S
O220 C222 1.273 . S
C221 O217 1.246 . S
C221 O218 1.259 . S
C222 O219 1.252 . S
C222 O220 1.273 . S
O223 Mg210 2.010 . S
O223 C215 1.249 . S
Mg224 O225 2.028 . S
Mg224 O231 1.986 . S
Mg224 O233 2.114 . S
Mg224 O234 2.251 . S
Mg224 O237 2.010 . S
O225 Mg224 2.028 . S
O225 C228 1.250 . S
O226 Mg227 2.028 . S
O226 C228 1.248 . S
Mg227 O226 2.028 . S
Mg227 O232 2.032 . S
Mg227 O234 2.079 . S
C228 O225 1.250 . S
C228 O226 1.248 . S
C229 O230 1.264 . S
C229 O237 1.249 . S
O230 C229 1.264 . S
O231 Mg224 1.986 . S
O231 C235 1.246 . S
O232 Mg227 2.032 . S
O232 C235 1.259 . S
O233 Mg224 2.114 . S
O233 C236 1.252 . S
O234 Mg224 2.251 . S
O234 Mg227 2.079 . S
O234 C236 1.273 . S
C235 O231 1.246 . S
C235 O232 1.259 . S
C236 O233 1.252 . S
C236 O234 1.273 . S
O237 Mg224 2.010 . S
O237 C229 1.249 . S
Mg238 O239 2.028 . S
Mg238 O245 1.986 . S
Mg238 O247 2.114 . S
Mg238 O248 2.251 . S
Mg238 O251 2.010 . S
O239 Mg238 2.028 . S
O239 C242 1.250 . S
O240 Mg241 2.028 . S
O240 C242 1.248 . S
Mg241 O240 2.028 . S
Mg241 O246 2.032 . S
Mg241 O248 2.079 . S
C242 O239 1.250 . S
C242 O240 1.248 . S
C243 O244 1.264 . S
C243 O251 1.249 . S
O244 C243 1.264 . S
O245 Mg238 1.986 . S
O245 C249 1.246 . S
O246 Mg241 2.032 . S
O246 C249 1.259 . S
O247 Mg238 2.114 . S
O247 C250 1.252 . S
O248 Mg238 2.251 . S
O248 Mg241 2.079 . S
O248 C250 1.273 . S
C249 O245 1.246 . S
C249 O246 1.259 . S
C250 O247 1.252 . S
C250 O248 1.273 . S
O251 Mg238 2.010 . S
O251 C243 1.249 . S
Mg252 O253 2.028 . S
Mg252 O259 1.986 . S
Mg252 O261 2.114 . S
Mg252 O262 2.251 . S
Mg252 O265 2.010 . S
O253 Mg252 2.028 . S
O253 C256 1.250 . S
O254 Mg255 2.028 . S
O254 C256 1.248 . S
Mg255 O254 2.028 . S
Mg255 O260 2.032 . S
Mg255 O262 2.079 . S
C256 O253 1.250 . S
C256 O254 1.248 . S
C257 O258 1.264 . S
C257 O265 1.249 . S
O258 C257 1.264 . S
O259 Mg252 1.986 . S
O259 C263 1.246 . S
O260 Mg255 2.032 . S
O260 C263 1.259 . S
O261 Mg252 2.114 . S
O261 C264 1.252 . S
O262 Mg252 2.251 . S
O262 Mg255 2.079 . S
O262 C264 1.273 . S
C263 O259 1.246 . S
C263 O260 1.259 . S
C264 O261 1.252 . S
C264 O262 1.273 . S
O265 Mg252 2.010 . S
O265 C257 1.249 . S
Mg266 O267 2.028 . S
Mg266 O273 1.986 1_545 S
Mg266 O275 2.114 . S
Mg266 O276 2.251 . S
Mg266 O279 2.010 1_545 S
O267 Mg266 2.028 . S
O267 C270 1.250 . S
O268 Mg269 2.028 . S
O268 C270 1.248 . S
Mg269 O268 2.028 . S
Mg269 O274 2.032 1_545 S
Mg269 O276 2.079 . S
C270 O267 1.250 . S
C270 O268 1.248 . S
C271 O272 1.265 1_545 S
C271 O279 1.250 1_545 S
O272 C271 1.265 1_565 S
O273 Mg266 1.986 1_565 S
O273 C277 1.246 . S
O274 Mg269 2.032 1_565 S
O274 C277 1.259 . S
O275 Mg266 2.114 . S
O275 C278 1.252 . S
O276 Mg266 2.251 . S
O276 Mg269 2.079 . S
O276 C278 1.273 . S
C277 O273 1.246 . S
C277 O274 1.259 . S
C278 O275 1.252 . S
C278 O276 1.273 . S
O279 Mg266 2.010 1_565 S
O279 C271 1.250 1_565 S
Mg280 O281 2.028 1_556 S
Mg280 O287 1.986 . S
Mg280 O289 2.114 1_556 S
Mg280 O290 2.251 . S
Mg280 O293 2.010 . S
O281 Mg280 2.028 1_554 S
O281 C284 1.250 . S
O282 Mg283 2.028 . S
O282 C284 1.248 . S
Mg283 O282 2.028 . S
Mg283 O288 2.032 1_554 S
Mg283 O290 2.079 1_554 S
C284 O281 1.250 . S
C284 O282 1.248 . S
C285 O286 1.264 . S
C285 O293 1.249 . S
O286 C285 1.264 . S
O287 Mg280 1.986 . S
O287 C291 1.246 . S
O288 Mg283 2.032 1_556 S
O288 C291 1.259 . S
O289 Mg280 2.114 1_554 S
O289 C292 1.252 . S
O290 Mg280 2.251 . S
O290 Mg283 2.079 1_556 S
O290 C292 1.273 1_556 S
C291 O287 1.246 . S
C291 O288 1.259 . S
C292 O289 1.252 . S
C292 O290 1.273 1_554 S
O293 Mg280 2.010 . S
O293 C285 1.249 . S
Mg294 O295 2.028 . S
Mg294 O301 1.986 . S
Mg294 O303 2.114 . S
Mg294 O304 2.251 . S
Mg294 O307 2.010 . S
O295 Mg294 2.028 . S
O295 C298 1.250 . S
O296 Mg297 2.028 . S
O296 C298 1.248 . S
Mg297 O296 2.028 . S
Mg297 O302 2.032 . S
Mg297 O304 2.079 . S
C298 O295 1.250 . S
C298 O296 1.248 . S
C299 O300 1.264 . S
C299 O307 1.249 . S
O300 C299 1.264 . S
O301 Mg294 1.986 . S
O301 C305 1.246 . S
O302 Mg297 2.032 . S
O302 C305 1.259 . S
O303 Mg294 2.114 . S
O303 C306 1.252 . S
O304 Mg294 2.251 . S
O304 Mg297 2.079 . S
O304 C306 1.273 . S
C305 O301 1.246 . S
C305 O302 1.259 . S
C306 O303 1.252 . S
C306 O304 1.273 . S
O307 Mg294 2.010 . S
O307 C299 1.249 . S
Mg308 O309 2.028 . S
Mg308 O315 1.986 . S
Mg308 O317 2.114 . S
Mg308 O318 2.251 . S
Mg308 O321 2.010 . S
O309 Mg308 2.028 . S
O309 C312 1.250 . S
O310 Mg311 2.028 . S
O310 C312 1.248 . S
Mg311 O310 2.028 . S
Mg311 O316 2.032 . S
Mg311 O318 2.079 . S
C312 O309 1.250 . S
C312 O310 1.248 . S
C313 O314 1.264 . S
C313 O321 1.249 . S
O314 C313 1.264 . S
O315 Mg308 1.986 . S
O315 C319 1.246 . S
O316 Mg311 2.032 . S
O316 C319 1.259 . S
O317 Mg308 2.114 . S
O317 C320 1.252 . S
O318 Mg308 2.251 . S
O318 Mg311 2.079 . S
O318 C320 1.273 . S
C319 O315 1.246 . S
C319 O316 1.259 . S
C320 O317 1.252 . S
C320 O318 1.273 . S
O321 Mg308 2.010 . S
O321 C313 1.249 . S
Mg322 O323 2.028 . S
Mg322 O329 1.986 . S
Mg322 O331 2.114 . S
Mg322 O332 2.251 . S
Mg322 O335 2.010 . S
O323 Mg322 2.028 . S
O323 C326 1.250 . S
O324 Mg325 2.028 . S
O324 C326 1.248 . S
Mg325 O324 2.028 . S
Mg325 O330 2.032 . S
Mg325 O332 2.079 . S
C326 O323 1.250 . S
C326 O324 1.248 . S
C327 O328 1.264 . S
C327 O335 1.249 . S
O328 C327 1.264 . S
O329 Mg322 1.986 . S
O329 C333 1.246 . S
O330 Mg325 2.032 . S
O330 C333 1.259 . S
O331 Mg322 2.114 . S
O331 C334 1.252 . S
O332 Mg322 2.251 . S
O332 Mg325 2.079 . S
O332 C334 1.273 . S
C333 O329 1.246 . S
C333 O330 1.259 . S
C334 O331 1.252 . S
C334 O332 1.273 . S
O335 Mg322 2.010 . S
O335 C327 1.249 . S
Tb336 O339 2.453 . S
Tb336 O340 2.596 . S
Tb336 O341 2.374 1_554 S
Tb336 O349 2.343 1_455 S
Tb336 O351 2.353 . S
Tb336 O353 2.427 . S
Tb336 O354 2.513 1_554 S
C337 O341 1.251 . S
C337 O343 1.263 1_445 S
Tb338 O340 2.343 1_665 S
Tb338 O343 2.353 1_554 S
Tb338 O346 2.427 . S
Tb338 O347 2.513 . S
Tb338 O348 2.453 1_564 S
Tb338 O349 2.596 1_565 S
Tb338 O350 2.374 1_565 S
O339 Tb336 2.453 . S
O339 C355 1.245 . S
O340 Tb336 2.596 . S
O340 Tb338 2.343 1_445 S
O340 C355 1.259 . S
O341 Tb336 2.374 1_556 S
O341 C337 1.251 . S
C342 O346 1.275 1_455 S
C342 O347 1.246 1_455 S
O343 C337 1.263 1_665 S
O343 Tb338 2.353 1_556 S
C344 O348 1.245 . S
C344 O349 1.259 1_556 S
C345 O350 1.250 . S
C345 O351 1.263 1_655 S
O346 Tb338 2.427 . S
O346 C342 1.275 1_655 S
O347 Tb338 2.513 . S
O347 C342 1.246 1_655 S
O348 Tb338 2.453 1_546 S
O348 C344 1.245 . S
O349 Tb336 2.343 1_655 S
O349 Tb338 2.596 1_545 S
O349 C344 1.259 1_554 S
O350 Tb338 2.374 1_545 S
O350 C345 1.250 . S
O351 Tb336 2.353 . S
O351 C345 1.263 1_455 S
C352 O353 1.275 1_556 S
C352 O354 1.246 . S
O353 Tb336 2.427 . S
O353 C352 1.275 1_554 S
O354 Tb336 2.513 1_556 S
O354 C352 1.246 . S
C355 O339 1.245 . S
C355 O340 1.259 . S
Tb356 O359 2.453 . S
Tb356 O360 2.596 . S
Tb356 O361 2.374 . S
Tb356 O369 2.343 . S
Tb356 O371 2.353 . S
Tb356 O373 2.427 . S
Tb356 O374 2.513 . S
C357 O361 1.251 . S
C357 O363 1.263 . S
Tb358 O360 2.343 . S
Tb358 O363 2.353 . S
Tb358 O366 2.427 . S
Tb358 O367 2.513 . S
Tb358 O368 2.453 . S
Tb358 O369 2.596 . S
Tb358 O370 2.374 . S
O359 Tb356 2.453 . S
O359 C375 1.245 . S
O360 Tb356 2.596 . S
O360 Tb358 2.343 . S
O360 C375 1.259 . S
O361 Tb356 2.374 . S
O361 C357 1.251 . S
C362 O366 1.275 . S
C362 O367 1.246 . S
O363 C357 1.263 . S
O363 Tb358 2.353 . S
C364 O368 1.245 . S
C364 O369 1.259 . S
C365 O370 1.250 . S
C365 O371 1.263 . S
O366 Tb358 2.427 . S
O366 C362 1.275 . S
O367 Tb358 2.513 . S
O367 C362 1.246 . S
O368 Tb358 2.453 . S
O368 C364 1.245 . S
O369 Tb356 2.343 . S
O369 Tb358 2.596 . S
O369 C364 1.259 . S
O370 Tb358 2.374 . S
O370 C365 1.250 . S
O371 Tb356 2.353 . S
O371 C365 1.263 . S
C372 O373 1.275 . S
C372 O374 1.246 . S
O373 Tb356 2.427 . S
O373 C372 1.275 . S
O374 Tb356 2.513 . S
O374 C372 1.246 . S
C375 O359 1.245 . S
C375 O360 1.259 . S
Tb376 O379 2.453 . S
Tb376 O380 2.596 . S
Tb376 O381 2.374 . S
Tb376 O389 2.343 . S
Tb376 O391 2.353 . S
Tb376 O393 2.427 . S
Tb376 O394 2.513 . S
C377 O381 1.251 . S
C377 O383 1.263 . S
Tb378 O380 2.343 . S
Tb378 O383 2.353 . S
Tb378 O386 2.427 . S
Tb378 O387 2.513 . S
Tb378 O388 2.453 1_545 S
Tb378 O389 2.596 . S
Tb378 O390 2.374 . S
O379 Tb376 2.453 . S
O379 C395 1.245 . S
O380 Tb376 2.596 . S
O380 Tb378 2.343 . S
O380 C395 1.259 . S
O381 Tb376 2.374 . S
O381 C377 1.251 . S
C382 O386 1.275 . S
C382 O387 1.246 . S
O383 C377 1.263 . S
O383 Tb378 2.353 . S
C384 O388 1.245 . S
C384 O389 1.259 1_565 S
C385 O390 1.250 . S
C385 O391 1.263 . S
O386 Tb378 2.427 . S
O386 C382 1.275 . S
O387 Tb378 2.513 . S
O387 C382 1.246 . S
O388 Tb378 2.453 1_565 S
O388 C384 1.245 . S
O389 Tb376 2.343 . S
O389 Tb378 2.596 . S
O389 C384 1.259 1_545 S
O390 Tb378 2.374 . S
O390 C385 1.250 . S
O391 Tb376 2.353 . S
O391 C385 1.263 . S
C392 O393 1.275 . S
C392 O394 1.246 . S
O393 Tb376 2.427 . S
O393 C392 1.275 . S
O394 Tb376 2.513 . S
O394 C392 1.246 . S
C395 O379 1.245 . S
C395 O380 1.259 . S
Tb396 O399 2.453 . S
Tb396 O400 2.596 . S
Tb396 O401 2.374 . S
Tb396 O409 2.343 . S
Tb396 O411 2.353 . S
Tb396 O413 2.427 . S
Tb396 O414 2.513 . S
C397 O401 1.251 . S
C397 O403 1.263 . S
Tb398 O400 2.343 . S
Tb398 O403 2.353 . S
Tb398 O406 2.427 . S
Tb398 O407 2.513 . S
Tb398 O408 2.453 . S
Tb398 O409 2.596 . S
Tb398 O410 2.374 . S
O399 Tb396 2.453 . S
O399 C415 1.245 . S
O400 Tb396 2.596 . S
O400 Tb398 2.343 . S
O400 C415 1.259 . S
O401 Tb396 2.374 . S
O401 C397 1.251 . S
C402 O406 1.275 . S
C402 O407 1.246 . S
O403 C397 1.263 . S
O403 Tb398 2.353 . S
C404 O408 1.245 . S
C404 O409 1.259 . S
C405 O410 1.250 . S
C405 O411 1.263 . S
O406 Tb398 2.427 . S
O406 C402 1.275 . S
O407 Tb398 2.513 . S
O407 C402 1.246 . S
O408 Tb398 2.453 . S
O408 C404 1.245 . S
O409 Tb396 2.343 . S
O409 Tb398 2.596 . S
O409 C404 1.259 . S
O410 Tb398 2.374 . S
O410 C405 1.250 . S
O411 Tb396 2.353 . S
O411 C405 1.263 . S
C412 O413 1.275 . S
C412 O414 1.246 . S
O413 Tb396 2.427 . S
O413 C412 1.275 . S
O414 Tb396 2.513 . S
O414 C412 1.246 . S
C415 O399 1.245 . S
C415 O400 1.259 . S
Tb416 O419 2.453 1_645 S
Tb416 O420 2.596 1_655 S
Tb416 O421 2.374 . S
Tb416 O429 2.334 . S
Tb416 O431 2.353 1_655 S
Tb416 O433 2.427 1_655 S
Tb416 O434 2.513 . S
C417 O421 1.251 . S
C417 O423 1.263 . S
Tb418 O420 2.343 . S
Tb418 O423 2.353 1_455 S
Tb418 O426 2.427 1_455 S
Tb418 O427 2.513 . S
Tb418 O428 2.453 1_455 S
Tb418 O429 2.591 1_455 S
Tb418 O430 2.374 . S
O419 Tb416 2.453 1_465 S
O419 C435 1.245 . S
O420 Tb416 2.596 1_455 S
O420 Tb418 2.343 . S
O420 C435 1.259 1_545 S
O421 Tb416 2.374 . S
O421 C417 1.251 . S
C422 O426 1.275 1_455 S
C422 O427 1.246 . S
O423 C417 1.263 . S
O423 Tb418 2.353 1_655 S
C424 O428 1.245 . S
C424 O429 1.270 . S
C425 O430 1.250 . S
C425 O431 1.263 . S
O426 Tb418 2.427 1_655 S
O426 C422 1.275 1_655 S
O427 Tb418 2.513 . S
O427 C422 1.246 . S
O428 Tb418 2.453 1_655 S
O428 C424 1.245 . S
O429 Tb416 2.334 . S
O429 Tb418 2.591 1_655 S
O429 C424 1.270 . S
O430 Tb418 2.374 . S
O430 C425 1.250 . S
O431 Tb416 2.353 1_455 S
O431 C425 1.263 . S
C432 O433 1.275 1_655 S
C432 O434 1.246 . S
O433 Tb416 2.427 1_455 S
O433 C432 1.275 1_455 S
O434 Tb416 2.513 . S
O434 C432 1.246 . S
C435 O419 1.245 . S
C435 O420 1.259 1_565 S
Tb436 O439 2.453 . S
Tb436 O440 2.596 . S
Tb436 O441 2.374 . S
Tb436 O449 2.343 . S
Tb436 O451 2.353 . S
Tb436 O453 2.427 . S
Tb436 O454 2.513 . S
C437 O441 1.251 . S
C437 O443 1.263 . S
Tb438 O440 2.343 . S
Tb438 O443 2.353 . S
Tb438 O446 2.427 . S
Tb438 O447 2.513 . S
Tb438 O448 2.453 . S
Tb438 O449 2.596 . S
Tb438 O450 2.374 . S
O439 Tb436 2.453 . S
O439 C455 1.245 . S
O440 Tb436 2.596 . S
O440 Tb438 2.343 . S
O440 C455 1.259 . S
O441 Tb436 2.374 . S
O441 C437 1.251 . S
C442 O446 1.275 . S
C442 O447 1.246 . S
O443 C437 1.263 . S
O443 Tb438 2.353 . S
C444 O448 1.245 . S
C444 O449 1.259 . S
C445 O450 1.250 . S
C445 O451 1.263 . S
O446 Tb438 2.427 . S
O446 C442 1.275 . S
O447 Tb438 2.513 . S
O447 C442 1.246 . S
O448 Tb438 2.453 . S
O448 C444 1.245 . S
O449 Tb436 2.343 . S
O449 Tb438 2.596 . S
O449 C444 1.259 . S
O450 Tb438 2.374 . S
O450 C445 1.250 . S
O451 Tb436 2.353 . S
O451 C445 1.263 . S
C452 O453 1.275 . S
C452 O454 1.246 . S
O453 Tb436 2.427 . S
O453 C452 1.275 . S
O454 Tb436 2.513 . S
O454 C452 1.246 . S
C455 O439 1.245 . S
C455 O440 1.259 . S
Tb456 O459 2.453 . S
Tb456 O460 2.596 . S
Tb456 O461 2.374 1_545 S
Tb456 O469 2.343 1_556 S
Tb456 O471 2.353 1_556 S
Tb456 O473 2.427 1_556 S
Tb456 O474 2.513 1_546 S
C457 O461 1.251 . S
C457 O463 1.263 1_556 S
Tb458 O460 2.343 1_554 S
Tb458 O463 2.353 1_545 S
Tb458 O466 2.427 . S
Tb458 O467 2.513 . S
Tb458 O468 2.453 . S
Tb458 O469 2.596 . S
Tb458 O470 2.374 . S
O459 Tb456 2.453 . S
O459 C475 1.245 . S
O460 Tb456 2.596 . S
O460 Tb458 2.343 1_556 S
O460 C475 1.259 . S
O461 Tb456 2.374 1_565 S
O461 C457 1.251 . S
C462 O466 1.275 . S
C462 O467 1.246 . S
O463 C457 1.263 1_554 S
O463 Tb458 2.353 1_565 S
C464 O468 1.245 . S
C464 O469 1.259 . S
C465 O470 1.250 . S
C465 O471 1.263 . S
O466 Tb458 2.427 . S
O466 C462 1.275 . S
O467 Tb458 2.513 . S
O467 C462 1.246 . S
O468 Tb458 2.453 . S
O468 C464 1.245 . S
O469 Tb456 2.343 1_554 S
O469 Tb458 2.596 . S
O469 C464 1.259 . S
O470 Tb458 2.374 . S
O470 C465 1.250 . S
O471 Tb456 2.353 1_554 S
O471 C465 1.263 . S
C472 O473 1.275 . S
C472 O474 1.246 1_545 S
O473 Tb456 2.427 1_554 S
O473 C472 1.275 . S
O474 Tb456 2.513 1_564 S
O474 C472 1.246 1_565 S
C475 O459 1.245 . S
C475 O460 1.259 . S
Tb476 O479 2.453 . S
Tb476 O480 2.596 . S
Tb476 O481 2.374 . S
Tb476 O489 2.343 . S
Tb476 O491 2.353 . S
Tb476 O493 2.427 . S
Tb476 O494 2.513 . S
C477 O481 1.251 . S
C477 O483 1.263 . S
Tb478 O480 2.343 . S
Tb478 O483 2.353 . S
Tb478 O486 2.427 . S
Tb478 O487 2.513 . S
Tb478 O488 2.453 . S
Tb478 O489 2.596 . S
Tb478 O490 2.374 . S
O479 Tb476 2.453 . S
O479 C495 1.245 . S
O480 Tb476 2.596 . S
O480 Tb478 2.343 . S
O480 C495 1.259 . S
O481 Tb476 2.374 . S
O481 C477 1.251 . S
C482 O486 1.275 . S
C482 O487 1.246 . S
O483 C477 1.263 . S
O483 Tb478 2.353 . S
C484 O488 1.245 . S
C484 O489 1.259 . S
C485 O490 1.250 . S
C485 O491 1.263 . S
O486 Tb478 2.427 . S
O486 C482 1.275 . S
O487 Tb478 2.513 . S
O487 C482 1.246 . S
O488 Tb478 2.453 . S
O488 C484 1.245 . S
O489 Tb476 2.343 . S
O489 Tb478 2.596 . S
O489 C484 1.259 . S
O490 Tb478 2.374 . S
O490 C485 1.250 . S
O491 Tb476 2.353 . S
O491 C485 1.263 . S
C492 O493 1.275 . S
C492 O494 1.246 . S
O493 Tb476 2.427 . S
O493 C492 1.275 . S
O494 Tb476 2.513 . S
O494 C492 1.246 . S
C495 O479 1.245 . S
C495 O480 1.259 . S
Tb496 O499 2.453 1_556 S
Tb496 O500 2.596 1_556 S
Tb496 O501 2.383 . S
Tb496 O509 2.343 . S
Tb496 O511 2.353 . S
Tb496 O513 2.427 . S
Tb496 O514 2.513 . S
C497 O501 1.235 1_554 S
C497 O503 1.263 . S
Tb498 O500 2.343 . S
Tb498 O503 2.353 . S
Tb498 O506 2.427 . S
Tb498 O507 2.513 . S
Tb498 O508 2.453 . S
Tb498 O509 2.596 1_554 S
Tb498 O510 2.374 . S
O499 Tb496 2.453 1_554 S
O499 C515 1.245 . S
O500 Tb496 2.596 1_554 S
O500 Tb498 2.343 . S
O500 C515 1.259 . S
O501 Tb496 2.383 . S
O501 C497 1.235 1_556 S
C502 O506 1.275 . S
C502 O507 1.246 . S
O503 C497 1.263 . S
O503 Tb498 2.353 . S
C504 O508 1.245 . S
C504 O509 1.259 1_554 S
C505 O510 1.250 . S
C505 O511 1.263 1_554 S
O506 Tb498 2.427 . S
O506 C502 1.275 . S
O507 Tb498 2.513 . S
O507 C502 1.246 . S
O508 Tb498 2.453 . S
O508 C504 1.245 . S
O509 Tb496 2.343 . S
O509 Tb498 2.596 1_556 S
O509 C504 1.259 1_556 S
O510 Tb498 2.374 . S
O510 C505 1.250 . S
O511 Tb496 2.353 . S
O511 C505 1.263 1_556 S
C512 O513 1.275 . S
C512 O514 1.246 . S
O513 Tb496 2.427 . S
O513 C512 1.275 . S
O514 Tb496 2.513 . S
O514 C512 1.246 . S
C515 O499 1.245 . S
C515 O500 1.259 . S
Tb516 O519 2.453 . S
Tb516 O520 2.596 . S
Tb516 O521 2.374 . S
Tb516 O529 2.343 . S
Tb516 O531 2.353 . S
Tb516 O533 2.427 . S
Tb516 O534 2.513 . S
C517 O521 1.251 . S
C517 O523 1.263 . S
Tb518 O520 2.343 . S
Tb518 O523 2.353 . S
Tb518 O526 2.427 . S
Tb518 O527 2.513 . S
Tb518 O528 2.453 . S
Tb518 O529 2.596 . S
Tb518 O530 2.374 . S
O519 Tb516 2.453 . S
O519 C535 1.245 . S
O520 Tb516 2.596 . S
O520 Tb518 2.343 . S
O520 C535 1.259 . S
O521 Tb516 2.374 . S
O521 C517 1.251 . S
C522 O526 1.275 . S
C522 O527 1.246 . S
O523 C517 1.263 . S
O523 Tb518 2.353 . S
C524 O528 1.245 . S
C524 O529 1.259 . S
C525 O530 1.250 . S
C525 O531 1.263 . S
O526 Tb518 2.427 . S
O526 C522 1.275 . S
O527 Tb518 2.513 . S
O527 C522 1.246 . S
O528 Tb518 2.453 . S
O528 C524 1.245 . S
O529 Tb516 2.343 . S
O529 Tb518 2.596 . S
O529 C524 1.259 . S
O530 Tb518 2.374 . S
O530 C525 1.250 . S
O531 Tb516 2.353 . S
O531 C525 1.263 . S
C532 O533 1.275 . S
C532 O534 1.246 . S
O533 Tb516 2.427 . S
O533 C532 1.275 . S
O534 Tb516 2.513 . S
O534 C532 1.246 . S
C535 O519 1.245 . S
C535 O520 1.259 . S
Tb536 O539 2.463 . S
Tb536 O540 2.596 1_655 S
Tb536 O541 2.374 . S
Tb536 O549 2.343 . S
Tb536 O551 2.353 . S
Tb536 O553 2.427 . S
Tb536 O554 2.513 . S
C537 O541 1.251 1_455 S
C537 O543 1.263 . S
Tb538 O540 2.343 . S
Tb538 O543 2.353 . S
Tb538 O546 2.427 . S
Tb538 O547 2.513 . S
Tb538 O548 2.453 . S
Tb538 O549 2.596 1_455 S
Tb538 O550 2.374 . S
O539 Tb536 2.463 . S
O539 C555 1.229 1_655 S
O540 Tb536 2.596 1_455 S
O540 Tb538 2.343 . S
O540 C555 1.259 . S
O541 Tb536 2.374 . S
O541 C537 1.251 1_655 S
C542 O546 1.275 . S
C542 O547 1.246 . S
O543 C537 1.263 . S
O543 Tb538 2.353 . S
C544 O548 1.245 1_655 S
C544 O549 1.259 . S
C545 O550 1.250 . S
C545 O551 1.263 1_455 S
O546 Tb538 2.427 . S
O546 C542 1.275 . S
O547 Tb538 2.513 . S
O547 C542 1.246 . S
O548 Tb538 2.453 . S
O548 C544 1.245 1_455 S
O549 Tb536 2.343 . S
O549 Tb538 2.596 1_655 S
O549 C544 1.259 . S
O550 Tb538 2.374 . S
O550 C545 1.250 . S
O551 Tb536 2.353 . S
O551 C545 1.263 1_655 S
C552 O553 1.275 . S
C552 O554 1.246 . S
O553 Tb536 2.427 . S
O553 C552 1.275 . S
O554 Tb536 2.513 . S
O554 C552 1.246 . S
C555 O539 1.229 1_455 S
C555 O540 1.259 . S
Tb556 O559 2.453 . S
Tb556 O560 2.596 . S
Tb556 O561 2.374 . S
Tb556 O569 2.343 . S
Tb556 O571 2.353 . S
Tb556 O573 2.427 . S
Tb556 O574 2.513 . S
C557 O561 1.251 . S
C557 O563 1.263 . S
Tb558 O560 2.343 . S
Tb558 O563 2.353 . S
Tb558 O566 2.427 . S
Tb558 O567 2.513 . S
Tb558 O568 2.453 . S
Tb558 O569 2.596 . S
Tb558 O570 2.374 . S
O559 Tb556 2.453 . S
O559 C575 1.245 . S
O560 Tb556 2.596 . S
O560 Tb558 2.343 . S
O560 C575 1.259 . S
O561 Tb556 2.374 . S
O561 C557 1.251 . S
C562 O566 1.275 . S
C562 O567 1.246 . S
O563 C557 1.263 . S
O563 Tb558 2.353 . S
C564 O568 1.245 . S
C564 O569 1.259 . S
C565 O570 1.250 . S
C565 O571 1.263 . S
O566 Tb558 2.427 . S
O566 C562 1.275 . S
O567 Tb558 2.513 . S
O567 C562 1.246 . S
O568 Tb558 2.453 . S
O568 C564 1.245 . S
O569 Tb556 2.343 . S
O569 Tb558 2.596 . S
O569 C564 1.259 . S
O570 Tb558 2.374 . S
O570 C565 1.250 . S
O571 Tb556 2.353 . S
O571 C565 1.263 . S
C572 O573 1.275 . S
C572 O574 1.246 . S
O573 Tb556 2.427 . S
O573 C572 1.275 . S
O574 Tb556 2.513 . S
O574 C572 1.246 . S
C575 O559 1.245 . S
C575 O560 1.259 . S
Tb576 O579 2.453 . S
Tb576 O580 2.596 . S
Tb576 O581 2.374 . S
Tb576 O589 2.343 . S
Tb576 O591 2.353 . S
Tb576 O593 2.427 . S
Tb576 O594 2.513 . S
C577 O581 1.251 . S
C577 O583 1.263 . S
Tb578 O580 2.343 . S
Tb578 O583 2.353 . S
Tb578 O586 2.427 . S
Tb578 O587 2.513 . S
Tb578 O588 2.453 . S
Tb578 O589 2.596 . S
Tb578 O590 2.374 . S
O579 Tb576 2.453 . S
O579 C595 1.245 . S
O580 Tb576 2.596 . S
O580 Tb578 2.343 . S
O580 C595 1.259 . S
O581 Tb576 2.374 . S
O581 C577 1.251 . S
C582 O586 1.275 . S
C582 O587 1.246 . S
O583 C577 1.263 . S
O583 Tb578 2.353 . S
C584 O588 1.245 . S
C584 O589 1.259 . S
C585 O590 1.250 . S
C585 O591 1.263 . S
O586 Tb578 2.427 . S
O586 C582 1.275 . S
O587 Tb578 2.513 . S
O587 C582 1.246 . S
O588 Tb578 2.453 . S
O588 C584 1.245 . S
O589 Tb576 2.343 . S
O589 Tb578 2.596 . S
O589 C584 1.259 . S
O590 Tb578 2.374 . S
O590 C585 1.250 . S
O591 Tb576 2.353 . S
O591 C585 1.263 . S
C592 O593 1.275 . S
C592 O594 1.246 . S
O593 Tb576 2.427 . S
O593 C592 1.275 . S
O594 Tb576 2.513 . S
O594 C592 1.246 . S
C595 O579 1.245 . S
C595 O580 1.259 . S
Tb596 O599 2.453 . S
Tb596 O600 2.596 . S
Tb596 O601 2.374 . S
Tb596 O609 2.343 . S
Tb596 O611 2.353 . S
Tb596 O613 2.427 . S
Tb596 O614 2.513 . S
C597 O601 1.251 . S
C597 O603 1.263 . S
Tb598 O600 2.343 . S
Tb598 O603 2.353 . S
Tb598 O606 2.427 . S
Tb598 O607 2.513 . S
Tb598 O608 2.453 . S
Tb598 O609 2.596 . S
Tb598 O610 2.374 . S
O599 Tb596 2.453 . S
O599 C615 1.245 . S
O600 Tb596 2.596 . S
O600 Tb598 2.343 . S
O600 C615 1.259 . S
O601 Tb596 2.374 . S
O601 C597 1.251 . S
C602 O606 1.275 . S
C602 O607 1.246 . S
O603 C597 1.263 . S
O603 Tb598 2.353 . S
C604 O608 1.245 . S
C604 O609 1.259 . S
C605 O610 1.250 . S
C605 O611 1.263 . S
O606 Tb598 2.427 . S
O606 C602 1.275 . S
O607 Tb598 2.513 . S
O607 C602 1.246 . S
O608 Tb598 2.453 . S
O608 C604 1.245 . S
O609 Tb596 2.343 . S
O609 Tb598 2.596 . S
O609 C604 1.259 . S
O610 Tb598 2.374 . S
O610 C605 1.250 . S
O611 Tb596 2.353 . S
O611 C605 1.263 . S
C612 O613 1.275 . S
C612 O614 1.246 . S
O613 Tb596 2.427 . S
O613 C612 1.275 . S
O614 Tb596 2.513 . S
O614 C612 1.246 . S
C615 O599 1.245 . S
C615 O600 1.259 . S
Tb616 O619 2.453 . S
Tb616 O620 2.596 . S
Tb616 O621 2.374 . S
Tb616 O629 2.343 . S
Tb616 O631 2.353 . S
Tb616 O633 2.427 . S
Tb616 O634 2.513 . S
C617 O621 1.251 . S
C617 O623 1.263 . S
Tb618 O620 2.343 . S
Tb618 O623 2.353 . S
Tb618 O626 2.427 . S
Tb618 O627 2.513 . S
Tb618 O628 2.453 . S
Tb618 O629 2.596 . S
Tb618 O630 2.374 . S
O619 Tb616 2.453 . S
O619 C635 1.245 . S
O620 Tb616 2.596 . S
O620 Tb618 2.343 . S
O620 C635 1.259 . S
O621 Tb616 2.374 . S
O621 C617 1.251 . S
C622 O626 1.275 . S
C622 O627 1.246 . S
O623 C617 1.263 . S
O623 Tb618 2.353 . S
C624 O628 1.245 . S
C624 O629 1.259 . S
C625 O630 1.250 . S
C625 O631 1.263 . S
O626 Tb618 2.427 . S
O626 C622 1.275 . S
O627 Tb618 2.513 . S
O627 C622 1.246 . S
O628 Tb618 2.453 . S
O628 C624 1.245 . S
O629 Tb616 2.343 . S
O629 Tb618 2.596 . S
O629 C624 1.259 . S
O630 Tb618 2.374 . S
O630 C625 1.250 . S
O631 Tb616 2.353 . S
O631 C625 1.263 . S
C632 O633 1.275 . S
C632 O634 1.246 . S
O633 Tb616 2.427 . S
O633 C632 1.275 . S
O634 Tb616 2.513 . S
O634 C632 1.246 . S
C635 O619 1.245 . S
C635 O620 1.259 . S
Tb636 O639 2.453 . S
Tb636 O640 2.596 . S
Tb636 O641 2.374 . S
Tb636 O649 2.343 . S
Tb636 O651 2.353 1_554 S
Tb636 O653 2.427 1_554 S
Tb636 O654 2.513 . S
C637 O641 1.251 . S
C637 O643 1.263 1_455 S
Tb638 O640 2.343 1_655 S
Tb638 O643 2.353 . S
Tb638 O646 2.427 . S
Tb638 O647 2.513 . S
Tb638 O648 2.456 . S
Tb638 O649 2.596 1_655 S
Tb638 O650 2.374 1_554 S
O639 Tb636 2.453 . S
O639 C655 1.245 . S
O640 Tb636 2.596 . S
O640 Tb638 2.343 1_455 S
O640 C655 1.259 . S
O641 Tb636 2.374 . S
O641 C637 1.251 . S
C642 O646 1.275 . S
C642 O647 1.246 . S
O643 C637 1.263 1_655 S
O643 Tb638 2.353 . S
C644 O648 1.240 1_556 S
C644 O649 1.259 1_656 S
C645 O650 1.250 . S
C645 O651 1.263 1_655 S
O646 Tb638 2.427 . S
O646 C642 1.275 . S
O647 Tb638 2.513 . S
O647 C642 1.246 . S
O648 Tb638 2.456 . S
O648 C644 1.240 1_554 S
O649 Tb636 2.343 . S
O649 Tb638 2.596 1_455 S
O649 C644 1.259 1_454 S
O650 Tb638 2.374 1_556 S
O650 C645 1.250 . S
O651 Tb636 2.353 1_556 S
O651 C645 1.263 1_455 S
C652 O653 1.275 . S
C652 O654 1.246 1_556 S
O653 Tb636 2.427 1_556 S
O653 C652 1.275 . S
O654 Tb636 2.513 . S
O654 C652 1.246 1_554 S
C655 O639 1.245 . S
C655 O640 1.259 . S
H656 C662 0.945 . S
H657 C666 0.930 . S
H658 C671 0.929 . S
H659 C669 0.919 1_554 S
H660 C664 0.929 . S
H661 C670 0.929 . S
C662 H656 0.945 . S
C662 C663 1.356 1_655 S
C662 C670 1.375 . S
C663 C662 1.356 1_455 S
C663 C671 1.433 . S
C664 H660 0.929 . S
C664 C666 1.378 . S
C664 C668 1.350 . S
C665 C668 1.463 . S
C665 C670 1.350 1_455 S
C665 N673 1.427 . S
C666 H657 0.930 . S
C666 C664 1.378 . S
C666 C667 1.367 . S
C667 C666 1.367 . S
C667 C669 1.437 1_455 S
C668 C664 1.350 . S
C668 C665 1.463 . S
C668 N672 1.427 1_455 S
C669 H659 0.919 1_556 S
C669 C667 1.437 1_655 S
C669 N672 1.390 . S
C670 H661 0.929 . S
C670 C662 1.375 . S
C670 C665 1.350 1_655 S
C671 H658 0.929 . S
C671 C663 1.433 . S
C671 N673 1.384 . S
N672 C668 1.427 1_655 S
N672 C669 1.390 . S
N673 C665 1.427 . S
N673 C671 1.384 . S
H674 C680 0.930 . S
H675 C684 0.930 . S
H676 C689 0.929 . S
H677 C687 0.929 . S
H678 C682 0.929 . S
H679 C688 0.929 . S
C680 H674 0.930 . S
C680 C681 1.367 . S
C680 C688 1.378 . S
C681 C680 1.367 . S
C681 C689 1.433 . S
C682 H678 0.929 . S
C682 C684 1.378 . S
C682 C686 1.350 . S
C683 C686 1.463 . S
C683 C688 1.350 . S
C683 N691 1.427 . S
C684 H675 0.930 . S
C684 C682 1.378 . S
C684 C685 1.367 . S
C685 C684 1.367 . S
C685 C687 1.433 . S
C686 C682 1.350 . S
C686 C683 1.463 . S
C686 N690 1.427 . S
C687 H677 0.929 . S
C687 C685 1.433 . S
C687 N690 1.384 . S
C688 H679 0.929 . S
C688 C680 1.378 . S
C688 C683 1.350 . S
C689 H676 0.929 . S
C689 C681 1.433 . S
C689 N691 1.384 . S
N690 C686 1.427 . S
N690 C687 1.384 . S
N691 C683 1.427 . S
N691 C689 1.384 . S
H692 C698 0.930 . S
H693 C702 0.930 . S
H694 C707 0.929 . S
H695 C705 0.929 . S
H696 C700 0.929 . S
H697 C706 0.929 . S
C698 H692 0.930 . S
C698 C699 1.367 . S
C698 C706 1.378 . S
C699 C698 1.367 . S
C699 C707 1.433 . S
C700 H696 0.929 . S
C700 C702 1.378 . S
C700 C704 1.350 . S
C701 C704 1.463 . S
C701 C706 1.350 . S
C701 N709 1.427 . S
C702 H693 0.930 . S
C702 C700 1.378 . S
C702 C703 1.367 . S
C703 C702 1.367 . S
C703 C705 1.433 . S
C704 C700 1.350 . S
C704 C701 1.463 . S
C704 N708 1.427 . S
C705 H695 0.929 . S
C705 C703 1.433 . S
C705 N708 1.384 . S
C706 H697 0.929 . S
C706 C698 1.378 . S
C706 C701 1.350 . S
C707 H694 0.929 . S
C707 C699 1.433 . S
C707 N709 1.384 . S
N708 C704 1.427 . S
N708 C705 1.384 . S
N709 C701 1.427 . S
N709 C707 1.384 . S
H710 C716 0.930 . S
H711 C720 0.930 . S
H712 C725 0.929 . S
H713 C723 0.929 . S
H714 C718 0.929 . S
H715 C724 0.929 . S
C716 H710 0.930 . S
C716 C717 1.367 . S
C716 C724 1.378 . S
C717 C716 1.367 . S
C717 C725 1.433 . S
C718 H714 0.929 . S
C718 C720 1.378 . S
C718 C722 1.350 . S
C719 C722 1.463 . S
C719 C724 1.350 . S
C719 N727 1.427 . S
C720 H711 0.930 . S
C720 C718 1.378 . S
C720 C721 1.367 . S
C721 C720 1.367 . S
C721 C723 1.433 . S
C722 C718 1.350 . S
C722 C719 1.463 . S
C722 N726 1.427 . S
C723 H713 0.929 . S
C723 C721 1.433 . S
C723 N726 1.384 . S
C724 H715 0.929 . S
C724 C716 1.378 . S
C724 C719 1.350 . S
C725 H712 0.929 . S
C725 C717 1.433 . S
C725 N727 1.384 . S
N726 C722 1.427 . S
N726 C723 1.384 . S
N727 C719 1.427 . S
N727 C725 1.384 . S
H728 C734 0.930 . S
H729 C738 0.930 . S
H730 C743 0.929 . S
H731 C741 0.929 . S
H732 C736 0.929 . S
H733 C742 0.929 . S
C734 H728 0.930 . S
C734 C735 1.357 1_655 S
C734 C742 1.378 . S
C735 C734 1.357 1_455 S
C735 C743 1.441 . S
C736 H732 0.929 . S
C736 C738 1.378 . S
C736 C740 1.350 . S
C737 C740 1.463 . S
C737 C742 1.350 1_455 S
C737 N745 1.427 . S
C738 H729 0.930 . S
C738 C736 1.378 . S
C738 C739 1.367 . S
C739 C738 1.367 . S
C739 C741 1.433 1_455 S
C740 C736 1.350 . S
C740 C737 1.463 . S
C740 N744 1.427 1_455 S
C741 H731 0.929 . S
C741 C739 1.433 1_655 S
C741 N744 1.384 . S
C742 H733 0.929 . S
C742 C734 1.378 . S
C742 C737 1.350 1_655 S
C743 H730 0.929 . S
C743 C735 1.441 . S
C743 N745 1.384 . S
N744 C740 1.427 1_655 S
N744 C741 1.384 . S
N745 C737 1.427 . S
N745 C743 1.384 . S
H746 C752 0.930 . S
H747 C756 0.930 . S
H748 C761 0.929 . S
H749 C759 0.929 . S
H750 C754 0.929 . S
H751 C760 0.929 . S
C752 H746 0.930 . S
C752 C753 1.367 . S
C752 C760 1.378 . S
C753 C752 1.367 . S
C753 C761 1.433 . S
C754 H750 0.929 . S
C754 C756 1.378 . S
C754 C758 1.350 . S
C755 C758 1.463 . S
C755 C760 1.350 . S
C755 N763 1.427 . S
C756 H747 0.930 . S
C756 C754 1.378 . S
C756 C757 1.367 . S
C757 C756 1.367 . S
C757 C759 1.433 . S
C758 C754 1.350 . S
C758 C755 1.463 . S
C758 N762 1.427 . S
C759 H749 0.929 . S
C759 C757 1.433 . S
C759 N762 1.384 . S
C760 H751 0.929 . S
C760 C752 1.378 . S
C760 C755 1.350 . S
C761 H748 0.929 . S
C761 C753 1.433 . S
C761 N763 1.384 . S
N762 C758 1.427 . S
N762 C759 1.384 . S
N763 C755 1.427 . S
N763 C761 1.384 . S
H764 C770 0.930 . S
H765 C774 0.930 . S
H766 C779 0.929 . S
H767 C777 0.929 . S
H768 C772 0.929 . S
H769 C778 0.929 . S
C770 H764 0.930 . S
C770 C771 1.367 . S
C770 C778 1.378 . S
C771 C770 1.367 . S
C771 C779 1.433 . S
C772 H768 0.929 . S
C772 C774 1.378 . S
C772 C776 1.350 . S
C773 C776 1.463 . S
C773 C778 1.350 . S
C773 N781 1.427 . S
C774 H765 0.930 . S
C774 C772 1.378 . S
C774 C775 1.367 . S
C775 C774 1.367 . S
C775 C777 1.433 . S
C776 C772 1.350 . S
C776 C773 1.463 . S
C776 N780 1.427 . S
C777 H767 0.929 . S
C777 C775 1.433 . S
C777 N780 1.384 . S
C778 H769 0.929 . S
C778 C770 1.378 . S
C778 C773 1.350 . S
C779 H766 0.929 . S
C779 C771 1.433 . S
C779 N781 1.384 . S
N780 C776 1.427 . S
N780 C777 1.384 . S
N781 C773 1.427 . S
N781 C779 1.384 . S
H782 C788 0.930 . S
H783 C792 0.930 . S
H784 C797 0.929 . S
H785 C795 0.929 . S
H786 C790 0.929 . S
H787 C796 0.929 . S
C788 H782 0.930 . S
C788 C789 1.367 . S
C788 C796 1.378 . S
C789 C788 1.367 . S
C789 C797 1.433 . S
C790 H786 0.929 . S
C790 C792 1.378 . S
C790 C794 1.350 . S
C791 C794 1.463 . S
C791 C796 1.350 . S
C791 N799 1.427 . S
C792 H783 0.930 . S
C792 C790 1.378 . S
C792 C793 1.367 . S
C793 C792 1.367 . S
C793 C795 1.433 . S
C794 C790 1.350 . S
C794 C791 1.463 . S
C794 N798 1.427 . S
C795 H785 0.929 . S
C795 C793 1.433 . S
C795 N798 1.384 . S
C796 H787 0.929 . S
C796 C788 1.378 . S
C796 C791 1.350 . S
C797 H784 0.929 . S
C797 C789 1.433 . S
C797 N799 1.384 . S
N798 C794 1.427 . S
N798 C795 1.384 . S
N799 C791 1.427 . S
N799 C797 1.384 . S
H800 C806 0.930 . S
H801 C810 0.930 . S
H802 C815 0.929 . S
H803 C813 0.929 1_455 S
H804 C808 0.929 . S
H805 C814 0.929 . S
C806 H800 0.930 . S
C806 C807 1.367 . S
C806 C814 1.378 . S
C807 C806 1.367 . S
C807 C815 1.433 . S
C808 H804 0.929 . S
C808 C810 1.378 . S
C808 C812 1.350 . S
C809 C812 1.463 . S
C809 C814 1.350 . S
C809 N817 1.427 . S
C810 H801 0.930 . S
C810 C808 1.378 . S
C810 C811 1.367 . S
C811 C810 1.367 . S
C811 C813 1.433 . S
C812 C808 1.350 . S
C812 C809 1.463 . S
C812 N816 1.427 . S
C813 H803 0.929 1_655 S
C813 C811 1.433 . S
C813 N816 1.384 . S
C814 H805 0.929 . S
C814 C806 1.378 . S
C814 C809 1.350 . S
C815 H802 0.929 . S
C815 C807 1.433 . S
C815 N817 1.384 . S
N816 C812 1.427 . S
N816 C813 1.384 . S
N817 C809 1.427 . S
N817 C815 1.384 . S
H818 C824 0.930 . S
H819 C828 0.930 . S
H820 C833 0.929 . S
H821 C831 0.929 . S
H822 C826 0.929 . S
H823 C832 0.929 . S
C824 H818 0.930 . S
C824 C825 1.367 . S
C824 C832 1.378 . S
C825 C824 1.367 . S
C825 C833 1.433 . S
C826 H822 0.929 . S
C826 C828 1.378 . S
C826 C830 1.350 . S
C827 C830 1.463 . S
C827 C832 1.350 . S
C827 N835 1.427 . S
C828 H819 0.930 . S
C828 C826 1.378 . S
C828 C829 1.367 . S
C829 C828 1.367 . S
C829 C831 1.433 . S
C830 C826 1.350 . S
C830 C827 1.463 . S
C830 N834 1.427 . S
C831 H821 0.929 . S
C831 C829 1.433 . S
C831 N834 1.384 . S
C832 H823 0.929 . S
C832 C824 1.378 . S
C832 C827 1.350 . S
C833 H820 0.929 . S
C833 C825 1.433 . S
C833 N835 1.384 . S
N834 C830 1.427 . S
N834 C831 1.384 . S
N835 C827 1.427 . S
N835 C833 1.384 . S
H836 C842 0.930 . S
H837 C846 0.930 . S
H838 C851 0.929 1_565 S
H839 C849 0.929 . S
H840 C844 0.932 . S
H841 C850 0.929 . S
C842 H836 0.930 . S
C842 C843 1.367 . S
C842 C850 1.378 . S
C843 C842 1.367 . S
C843 C851 1.433 . S
C844 H840 0.932 . S
C844 C846 1.378 . S
C844 C848 1.350 . S
C845 C848 1.463 . S
C845 C850 1.350 . S
C845 N853 1.427 . S
C846 H837 0.930 . S
C846 C844 1.378 . S
C846 C847 1.367 . S
C847 C846 1.367 . S
C847 C849 1.433 . S
C848 C844 1.350 . S
C848 C845 1.463 . S
C848 N852 1.427 . S
C849 H839 0.929 . S
C849 C847 1.433 . S
C849 N852 1.384 . S
C850 H841 0.929 . S
C850 C842 1.378 . S
C850 C845 1.350 . S
C851 H838 0.929 1_545 S
C851 C843 1.433 . S
C851 N853 1.384 . S
N852 C848 1.427 . S
N852 C849 1.384 . S
N853 C845 1.427 . S
N853 C851 1.384 . S
H854 C860 0.930 . S
H855 C864 0.930 . S
H856 C869 0.929 . S
H857 C867 0.929 . S
H858 C862 0.929 . S
H859 C868 0.929 . S
C860 H854 0.930 . S
C860 C861 1.367 . S
C860 C868 1.378 . S
C861 C860 1.367 . S
C861 C869 1.433 . S
C862 H858 0.929 . S
C862 C864 1.378 . S
C862 C866 1.350 . S
C863 C866 1.463 . S
C863 C868 1.350 . S
C863 N871 1.427 . S
C864 H855 0.930 . S
C864 C862 1.378 . S
C864 C865 1.367 . S
C865 C864 1.367 . S
C865 C867 1.433 . S
C866 C862 1.350 . S
C866 C863 1.463 . S
C866 N870 1.427 . S
C867 H857 0.929 . S
C867 C865 1.433 . S
C867 N870 1.384 . S
C868 H859 0.929 . S
C868 C860 1.378 . S
C868 C863 1.350 . S
C869 H856 0.929 . S
C869 C861 1.433 . S
C869 N871 1.384 . S
N870 C866 1.427 . S
N870 C867 1.384 . S
N871 C863 1.427 . S
N871 C869 1.384 . S
H872 C878 0.930 . S
H873 C882 0.930 . S
H874 C887 0.929 . S
H875 C885 0.929 . S
H876 C880 0.929 . S
H877 C886 0.929 . S
C878 H872 0.930 . S
C878 C879 1.367 . S
C878 C886 1.378 . S
C879 C878 1.367 . S
C879 C887 1.433 . S
C880 H876 0.929 . S
C880 C882 1.378 . S
C880 C884 1.350 . S
C881 C884 1.463 . S
C881 C886 1.350 . S
C881 N889 1.427 . S
C882 H873 0.930 . S
C882 C880 1.378 . S
C882 C883 1.367 . S
C883 C882 1.367 . S
C883 C885 1.433 . S
C884 C880 1.350 . S
C884 C881 1.463 . S
C884 N888 1.427 . S
C885 H875 0.929 . S
C885 C883 1.433 . S
C885 N888 1.384 . S
C886 H877 0.929 . S
C886 C878 1.378 . S
C886 C881 1.350 . S
C887 H874 0.929 . S
C887 C879 1.433 . S
C887 N889 1.384 . S
N888 C884 1.427 . S
N888 C885 1.384 . S
N889 C881 1.427 . S
N889 C887 1.384 . S
H890 C896 0.930 . S
H891 C900 0.930 . S
H892 C905 0.929 . S
H893 C903 0.929 . S
H894 C898 0.929 . S
H895 C904 0.929 . S
C896 H890 0.930 . S
C896 C897 1.367 . S
C896 C904 1.378 . S
C897 C896 1.367 . S
C897 C905 1.433 . S
C898 H894 0.929 . S
C898 C900 1.378 . S
C898 C902 1.350 . S
C899 C902 1.463 . S
C899 C904 1.350 . S
C899 N907 1.427 . S
C900 H891 0.930 . S
C900 C898 1.378 . S
C900 C901 1.367 . S
C901 C900 1.367 . S
C901 C903 1.433 . S
C902 C898 1.350 . S
C902 C899 1.463 . S
C902 N906 1.427 . S
C903 H893 0.929 . S
C903 C901 1.433 . S
C903 N906 1.384 . S
C904 H895 0.929 . S
C904 C896 1.378 . S
C904 C899 1.350 . S
C905 H892 0.929 . S
C905 C897 1.433 . S
C905 N907 1.384 . S
N906 C902 1.427 . S
N906 C903 1.384 . S
N907 C899 1.427 . S
N907 C905 1.384 . S
H908 C914 0.930 . S
H909 C918 0.930 1_565 S
H910 C923 0.929 . S
H911 C921 0.929 . S
H912 C916 0.929 1_565 S
H913 C922 0.929 . S
C914 H908 0.930 . S
C914 C915 1.367 . S
C914 C922 1.378 . S
C915 C914 1.367 . S
C915 C923 1.433 1_545 S
C916 H912 0.929 1_545 S
C916 C918 1.378 . S
C916 C920 1.350 . S
C917 C920 1.463 . S
C917 C922 1.350 . S
C917 N925 1.429 . S
C918 H909 0.930 1_545 S
C918 C916 1.378 . S
C918 C919 1.367 . S
C919 C918 1.367 . S
C919 C921 1.433 . S
C920 C916 1.350 . S
C920 C917 1.463 . S
C920 N924 1.427 . S
C921 H911 0.929 . S
C921 C919 1.433 . S
C921 N924 1.384 . S
C922 H913 0.929 . S
C922 C914 1.378 . S
C922 C917 1.350 . S
C923 H910 0.929 . S
C923 C915 1.433 1_565 S
C923 N925 1.383 1_565 S
N924 C920 1.427 . S
N924 C921 1.384 . S
N925 C917 1.429 . S
N925 C923 1.383 1_545 S
H926 C932 0.930 . S
H927 C936 0.930 . S
H928 C941 0.929 . S
H929 C939 0.929 . S
H930 C934 0.929 . S
H931 C940 0.929 . S
C932 H926 0.930 . S
C932 C933 1.367 . S
C932 C940 1.378 . S
C933 C932 1.367 . S
C933 C941 1.433 . S
C934 H930 0.929 . S
C934 C936 1.378 . S
C934 C938 1.350 . S
C935 C938 1.463 . S
C935 C940 1.350 . S
C935 N943 1.427 . S
C936 H927 0.930 . S
C936 C934 1.378 . S
C936 C937 1.367 . S
C937 C936 1.367 . S
C937 C939 1.433 . S
C938 C934 1.350 . S
C938 C935 1.463 . S
C938 N942 1.427 . S
C939 H929 0.929 . S
C939 C937 1.433 . S
C939 N942 1.384 . S
C940 H931 0.929 . S
C940 C932 1.378 . S
C940 C935 1.350 . S
C941 H928 0.929 . S
C941 C933 1.433 . S
C941 N943 1.384 . S
N942 C938 1.427 . S
N942 C939 1.384 . S
N943 C935 1.427 . S
N943 C941 1.384 . S
H944 C950 0.930 1_556 S
H945 C954 0.930 1_545 S
H946 C959 0.929 . S
H947 C957 0.909 1_556 S
H948 C952 0.929 . S
H949 C958 0.929 1_556 S
C950 H944 0.930 1_554 S
C950 C951 1.367 . S
C950 C958 1.378 . S
C951 C950 1.367 . S
C951 C959 1.433 . S
C952 H948 0.929 . S
C952 C954 1.378 . S
C952 C956 1.350 . S
C953 C956 1.463 . S
C953 C958 1.350 . S
C953 N961 1.427 . S
C954 H945 0.930 1_565 S
C954 C952 1.378 . S
C954 C955 1.375 . S
C955 C954 1.375 . S
C955 C957 1.467 . S
C956 C952 1.350 . S
C956 C953 1.463 . S
C956 N960 1.427 . S
C957 H947 0.909 1_554 S
C957 C955 1.467 . S
C957 N960 1.383 . S
C958 H949 0.929 1_554 S
C958 C950 1.378 . S
C958 C953 1.350 . S
C959 H946 0.929 . S
C959 C951 1.433 . S
C959 N961 1.384 . S
N960 C956 1.427 . S
N960 C957 1.383 . S
N961 C953 1.427 . S
N961 C959 1.384 . S
H962 C968 0.930 . S
H963 C972 0.930 . S
H964 C977 0.929 . S
H965 C975 0.929 . S
H966 C970 0.929 . S
H967 C976 0.929 . S
C968 H962 0.930 . S
C968 C969 1.392 . S
C968 C976 1.378 . S
C969 C968 1.392 . S
C969 C977 1.403 1_556 S
C970 H966 0.929 . S
C970 C972 1.378 . S
C970 C974 1.350 . S
C971 C974 1.462 1_556 S
C971 C976 1.352 . S
C971 N979 1.426 1_556 S
C972 H963 0.930 . S
C972 C970 1.378 . S
C972 C973 1.367 . S
C973 C972 1.367 . S
C973 C975 1.433 1_554 S
C974 C970 1.350 . S
C974 C971 1.462 1_554 S
C974 N978 1.427 1_554 S
C975 H965 0.929 . S
C975 C973 1.433 1_556 S
C975 N978 1.384 . S
C976 H967 0.929 . S
C976 C968 1.378 . S
C976 C971 1.352 . S
C977 H964 0.929 . S
C977 C969 1.403 1_554 S
C977 N979 1.384 . S
N978 C974 1.427 1_556 S
N978 C975 1.384 . S
N979 C971 1.426 1_554 S
N979 C977 1.384 . S
H980 C986 0.930 . S
H981 C990 0.930 . S
H982 C995 0.929 . S
H983 C993 0.929 . S
H984 C988 0.929 . S
H985 C994 0.929 . S
C986 H980 0.930 . S
C986 C987 1.367 . S
C986 C994 1.378 . S
C987 C986 1.367 . S
C987 C995 1.433 . S
C988 H984 0.929 . S
C988 C990 1.378 . S
C988 C992 1.350 . S
C989 C992 1.463 . S
C989 C994 1.350 . S
C989 N997 1.427 . S
C990 H981 0.930 . S
C990 C988 1.378 . S
C990 C991 1.367 . S
C991 C990 1.367 . S
C991 C993 1.433 . S
C992 C988 1.350 . S
C992 C989 1.463 . S
C992 N996 1.427 . S
C993 H983 0.929 . S
C993 C991 1.433 . S
C993 N996 1.384 . S
C994 H985 0.929 . S
C994 C986 1.378 . S
C994 C989 1.350 . S
C995 H982 0.929 . S
C995 C987 1.433 . S
C995 N997 1.384 . S
N996 C992 1.427 . S
N996 C993 1.384 . S
N997 C989 1.427 . S
N997 C995 1.384 . S
H998 C1004 0.930 . S
H999 C1008 0.930 . S
H1000 C1013 0.929 . S
H1001 C1011 0.929 . S
H1002 C1006 0.929 . S
H1003 C1012 0.929 . S
C1004 H998 0.930 . S
C1004 C1005 1.367 . S
C1004 C1012 1.378 . S
C1005 C1004 1.367 . S
C1005 C1013 1.433 . S
C1006 H1002 0.929 . S
C1006 C1008 1.378 . S
C1006 C1010 1.350 . S
C1007 C1010 1.463 . S
C1007 C1012 1.350 . S
C1007 N1015 1.427 . S
C1008 H999 0.930 . S
C1008 C1006 1.378 . S
C1008 C1009 1.367 . S
C1009 C1008 1.367 . S
C1009 C1011 1.433 . S
C1010 C1006 1.350 . S
C1010 C1007 1.463 . S
C1010 N1014 1.427 . S
C1011 H1001 0.929 . S
C1011 C1009 1.433 . S
C1011 N1014 1.384 . S
C1012 H1003 0.929 . S
C1012 C1004 1.378 . S
C1012 C1007 1.350 . S
C1013 H1000 0.929 . S
C1013 C1005 1.433 . S
C1013 N1015 1.384 . S
N1014 C1010 1.427 . S
N1014 C1011 1.384 . S
N1015 C1007 1.427 . S
N1015 C1013 1.384 . S
H1016 C1022 0.930 . S
H1017 C1026 0.930 . S
H1018 C1031 0.929 . S
H1019 C1029 0.929 . S
H1020 C1024 0.929 . S
H1021 C1030 0.929 . S
C1022 H1016 0.930 . S
C1022 C1023 1.367 . S
C1022 C1030 1.378 . S
C1023 C1022 1.367 . S
C1023 C1031 1.433 . S
C1024 H1020 0.929 . S
C1024 C1026 1.378 . S
C1024 C1028 1.350 . S
C1025 C1028 1.463 . S
C1025 C1030 1.350 . S
C1025 N1033 1.427 . S
C1026 H1017 0.930 . S
C1026 C1024 1.378 . S
C1026 C1027 1.367 . S
C1027 C1026 1.367 . S
C1027 C1029 1.433 . S
C1028 C1024 1.350 . S
C1028 C1025 1.463 . S
C1028 N1032 1.427 . S
C1029 H1019 0.929 . S
C1029 C1027 1.433 . S
C1029 N1032 1.384 . S
C1030 H1021 0.929 . S
C1030 C1022 1.378 . S
C1030 C1025 1.350 . S
C1031 H1018 0.929 . S
C1031 C1023 1.433 . S
C1031 N1033 1.384 . S
N1032 C1028 1.427 . S
N1032 C1029 1.384 . S
N1033 C1025 1.427 . S
N1033 C1031 1.384 . S
H1034 C1040 0.930 . S
H1035 C1044 0.930 . S
H1036 C1049 0.929 . S
H1037 C1047 0.929 . S
H1038 C1042 0.929 . S
H1039 C1048 0.929 . S
C1040 H1034 0.930 . S
C1040 C1041 1.367 . S
C1040 C1048 1.378 . S
C1041 C1040 1.367 . S
C1041 C1049 1.433 . S
C1042 H1038 0.929 . S
C1042 C1044 1.378 . S
C1042 C1046 1.350 . S
C1043 C1046 1.463 . S
C1043 C1048 1.350 . S
C1043 N1051 1.427 . S
C1044 H1035 0.930 . S
C1044 C1042 1.378 . S
C1044 C1045 1.367 . S
C1045 C1044 1.367 . S
C1045 C1047 1.433 . S
C1046 C1042 1.350 . S
C1046 C1043 1.463 . S
C1046 N1050 1.427 . S
C1047 H1037 0.929 . S
C1047 C1045 1.433 . S
C1047 N1050 1.384 . S
C1048 H1039 0.929 . S
C1048 C1040 1.378 . S
C1048 C1043 1.350 . S
C1049 H1036 0.929 . S
C1049 C1041 1.433 . S
C1049 N1051 1.384 . S
N1050 C1046 1.427 . S
N1050 C1047 1.384 . S
N1051 C1043 1.427 . S
N1051 C1049 1.384 . S
H1052 C1058 0.930 . S
H1053 C1062 0.930 . S
H1054 C1067 0.929 . S
H1055 C1065 0.929 . S
H1056 C1060 0.929 . S
H1057 C1066 0.929 . S
C1058 H1052 0.930 . S
C1058 C1059 1.367 . S
C1058 C1066 1.378 . S
C1059 C1058 1.367 . S
C1059 C1067 1.433 . S
C1060 H1056 0.929 . S
C1060 C1062 1.378 . S
C1060 C1064 1.350 . S
C1061 C1064 1.463 . S
C1061 C1066 1.350 . S
C1061 N1069 1.427 . S
C1062 H1053 0.930 . S
C1062 C1060 1.378 . S
C1062 C1063 1.367 . S
C1063 C1062 1.367 . S
C1063 C1065 1.433 . S
C1064 C1060 1.350 . S
C1064 C1061 1.463 . S
C1064 N1068 1.427 . S
C1065 H1055 0.929 . S
C1065 C1063 1.433 . S
C1065 N1068 1.384 . S
C1066 H1057 0.929 . S
C1066 C1058 1.378 . S
C1066 C1061 1.350 . S
C1067 H1054 0.929 . S
C1067 C1059 1.433 . S
C1067 N1069 1.384 . S
N1068 C1064 1.427 . S
N1068 C1065 1.384 . S
N1069 C1061 1.427 . S
N1069 C1067 1.384 . S
H1070 C1076 0.930 . S
H1071 C1080 0.930 . S
H1072 C1085 0.929 . S
H1073 C1083 0.929 . S
H1074 C1078 0.929 . S
H1075 C1084 0.929 . S
C1076 H1070 0.930 . S
C1076 C1077 1.367 . S
C1076 C1084 1.378 . S
C1077 C1076 1.367 . S
C1077 C1085 1.433 . S
C1078 H1074 0.929 . S
C1078 C1080 1.378 . S
C1078 C1082 1.350 . S
C1079 C1082 1.463 . S
C1079 C1084 1.350 . S
C1079 N1087 1.427 . S
C1080 H1071 0.930 . S
C1080 C1078 1.378 . S
C1080 C1081 1.367 . S
C1081 C1080 1.367 . S
C1081 C1083 1.433 . S
C1082 C1078 1.350 . S
C1082 C1079 1.463 . S
C1082 N1086 1.427 . S
C1083 H1073 0.929 . S
C1083 C1081 1.433 . S
C1083 N1086 1.384 . S
C1084 H1075 0.929 . S
C1084 C1076 1.378 . S
C1084 C1079 1.350 . S
C1085 H1072 0.929 . S
C1085 C1077 1.433 . S
C1085 N1087 1.384 . S
N1086 C1082 1.427 . S
N1086 C1083 1.384 . S
N1087 C1079 1.427 . S
N1087 C1085 1.384 . S
H1088 C1094 0.930 . S
H1089 C1098 0.930 . S
H1090 C1103 0.929 . S
H1091 C1101 0.929 . S
H1092 C1096 0.929 . S
H1093 C1102 0.929 . S
C1094 H1088 0.930 . S
C1094 C1095 1.367 . S
C1094 C1102 1.378 . S
C1095 C1094 1.367 . S
C1095 C1103 1.433 1_455 S
C1096 H1092 0.929 . S
C1096 C1098 1.378 . S
C1096 C1100 1.350 1_655 S
C1097 C1100 1.463 . S
C1097 C1102 1.350 . S
C1097 N1105 1.427 1_455 S
C1098 H1089 0.930 . S
C1098 C1096 1.378 . S
C1098 C1099 1.367 1_655 S
C1099 C1098 1.367 1_455 S
C1099 C1101 1.433 . S
C1100 C1096 1.350 1_455 S
C1100 C1097 1.463 . S
C1100 N1104 1.427 . S
C1101 H1091 0.929 . S
C1101 C1099 1.433 . S
C1101 N1104 1.384 . S
C1102 H1093 0.929 . S
C1102 C1094 1.378 . S
C1102 C1097 1.350 . S
C1103 H1090 0.929 . S
C1103 C1095 1.433 1_655 S
C1103 N1105 1.384 . S
N1104 C1100 1.427 . S
N1104 C1101 1.384 . S
N1105 C1097 1.427 1_655 S
N1105 C1103 1.384 . S
H1106 C1112 0.930 . S
H1107 C1116 0.930 . S
H1108 C1121 0.929 . S
H1109 C1119 0.929 . S
H1110 C1114 0.929 . S
H1111 C1120 0.929 . S
C1112 H1106 0.930 . S
C1112 C1113 1.367 . S
C1112 C1120 1.378 . S
C1113 C1112 1.367 . S
C1113 C1121 1.433 . S
C1114 H1110 0.929 . S
C1114 C1116 1.378 . S
C1114 C1118 1.350 . S
C1115 C1118 1.463 . S
C1115 C1120 1.350 . S
C1115 N1123 1.427 . S
C1116 H1107 0.930 . S
C1116 C1114 1.378 . S
C1116 C1117 1.367 . S
C1117 C1116 1.367 . S
C1117 C1119 1.433 . S
C1118 C1114 1.350 . S
C1118 C1115 1.463 . S
C1118 N1122 1.427 . S
C1119 H1109 0.929 . S
C1119 C1117 1.433 . S
C1119 N1122 1.384 . S
C1120 H1111 0.929 . S
C1120 C1112 1.378 . S
C1120 C1115 1.350 . S
C1121 H1108 0.929 . S
C1121 C1113 1.433 . S
C1121 N1123 1.384 . S
N1122 C1118 1.427 . S
N1122 C1119 1.384 . S
N1123 C1115 1.427 . S
N1123 C1121 1.384 . S
H1124 C1130 0.930 . S
H1125 C1134 0.930 . S
H1126 C1139 0.929 . S
H1127 C1137 0.929 . S
H1128 C1132 0.929 . S
H1129 C1138 0.929 . S
C1130 H1124 0.930 . S
C1130 C1131 1.367 . S
C1130 C1138 1.378 . S
C1131 C1130 1.367 . S
C1131 C1139 1.433 . S
C1132 H1128 0.929 . S
C1132 C1134 1.378 . S
C1132 C1136 1.350 . S
C1133 C1136 1.463 . S
C1133 C1138 1.350 . S
C1133 N1141 1.427 . S
C1134 H1125 0.930 . S
C1134 C1132 1.378 . S
C1134 C1135 1.367 . S
C1135 C1134 1.367 . S
C1135 C1137 1.433 . S
C1136 C1132 1.350 . S
C1136 C1133 1.463 . S
C1136 N1140 1.427 . S
C1137 H1127 0.929 . S
C1137 C1135 1.433 . S
C1137 N1140 1.384 . S
C1138 H1129 0.929 . S
C1138 C1130 1.378 . S
C1138 C1133 1.350 . S
C1139 H1126 0.929 . S
C1139 C1131 1.433 . S
C1139 N1141 1.384 . S
N1140 C1136 1.427 . S
N1140 C1137 1.384 . S
N1141 C1133 1.427 . S
N1141 C1139 1.384 . S
H1142 C1148 0.930 . S
H1143 C1152 0.930 . S
H1144 C1157 0.929 . S
H1145 C1155 0.929 . S
H1146 C1150 0.929 . S
H1147 C1156 0.929 . S
C1148 H1142 0.930 . S
C1148 C1149 1.367 . S
C1148 C1156 1.378 . S
C1149 C1148 1.367 . S
C1149 C1157 1.433 . S
C1150 H1146 0.929 . S
C1150 C1152 1.378 . S
C1150 C1154 1.350 . S
C1151 C1154 1.463 . S
C1151 C1156 1.350 . S
C1151 N1159 1.427 . S
C1152 H1143 0.930 . S
C1152 C1150 1.378 . S
C1152 C1153 1.367 . S
C1153 C1152 1.367 . S
C1153 C1155 1.433 . S
C1154 C1150 1.350 . S
C1154 C1151 1.463 . S
C1154 N1158 1.427 . S
C1155 H1145 0.929 . S
C1155 C1153 1.433 . S
C1155 N1158 1.384 . S
C1156 H1147 0.929 . S
C1156 C1148 1.378 . S
C1156 C1151 1.350 . S
C1157 H1144 0.929 . S
C1157 C1149 1.433 . S
C1157 N1159 1.384 . S
N1158 C1154 1.427 . S
N1158 C1155 1.384 . S
N1159 C1151 1.427 . S
N1159 C1157 1.384 . S
H1160 C1166 0.930 . S
H1161 C1170 0.930 . S
H1162 C1175 0.929 . S
H1163 C1173 0.929 . S
H1164 C1168 0.929 . S
H1165 C1174 0.929 . S
C1166 H1160 0.930 . S
C1166 C1167 1.367 . S
C1166 C1174 1.378 . S
C1167 C1166 1.367 . S
C1167 C1175 1.433 1_455 S
C1168 H1164 0.929 . S
C1168 C1170 1.378 . S
C1168 C1172 1.350 1_655 S
C1169 C1172 1.463 . S
C1169 C1174 1.350 . S
C1169 N1177 1.427 1_455 S
C1170 H1161 0.930 . S
C1170 C1168 1.378 . S
C1170 C1171 1.352 1_655 S
C1171 C1170 1.352 1_455 S
C1171 C1173 1.448 . S
C1172 C1168 1.350 1_455 S
C1172 C1169 1.463 . S
C1172 N1176 1.427 . S
C1173 H1163 0.929 . S
C1173 C1171 1.448 . S
C1173 N1176 1.384 . S
C1174 H1165 0.929 . S
C1174 C1166 1.378 . S
C1174 C1169 1.350 . S
C1175 H1162 0.929 . S
C1175 C1167 1.433 1_655 S
C1175 N1177 1.384 . S
N1176 C1172 1.427 . S
N1176 C1173 1.384 . S
N1177 C1169 1.427 1_655 S
N1177 C1175 1.384 . S
H1178 C1184 0.930 . S
H1179 C1188 0.930 . S
H1180 C1193 0.929 . S
H1181 C1191 0.929 . S
H1182 C1186 0.929 . S
H1183 C1192 0.929 . S
C1184 H1178 0.930 . S
C1184 C1185 1.367 . S
C1184 C1192 1.378 . S
C1185 C1184 1.367 . S
C1185 C1193 1.433 . S
C1186 H1182 0.929 . S
C1186 C1188 1.378 . S
C1186 C1190 1.350 . S
C1187 C1190 1.463 . S
C1187 C1192 1.350 . S
C1187 N1195 1.427 . S
C1188 H1179 0.930 . S
C1188 C1186 1.378 . S
C1188 C1189 1.367 . S
C1189 C1188 1.367 . S
C1189 C1191 1.433 . S
C1190 C1186 1.350 . S
C1190 C1187 1.463 . S
C1190 N1194 1.427 . S
C1191 H1181 0.929 . S
C1191 C1189 1.433 . S
C1191 N1194 1.384 . S
C1192 H1183 0.929 . S
C1192 C1184 1.378 . S
C1192 C1187 1.350 . S
C1193 H1180 0.929 . S
C1193 C1185 1.433 . S
C1193 N1195 1.384 . S
N1194 C1190 1.427 . S
N1194 C1191 1.384 . S
N1195 C1187 1.427 . S
N1195 C1193 1.384 . S
H1196 C1202 0.930 . S
H1197 C1206 0.930 . S
H1198 C1211 0.929 . S
H1199 C1209 0.929 1_554 S
H1200 C1204 0.929 . S
H1201 C1210 0.929 . S
C1202 H1196 0.930 . S
C1202 C1203 1.367 . S
C1202 C1210 1.378 . S
C1203 C1202 1.367 . S
C1203 C1211 1.433 . S
C1204 H1200 0.929 . S
C1204 C1206 1.378 . S
C1204 C1208 1.350 . S
C1205 C1208 1.463 . S
C1205 C1210 1.350 . S
C1205 N1213 1.427 . S
C1206 H1197 0.930 . S
C1206 C1204 1.378 . S
C1206 C1207 1.367 . S
C1207 C1206 1.367 . S
C1207 C1209 1.433 . S
C1208 C1204 1.350 . S
C1208 C1205 1.463 . S
C1208 N1212 1.427 . S
C1209 H1199 0.929 1_556 S
C1209 C1207 1.433 . S
C1209 N1212 1.384 . S
C1210 H1201 0.929 . S
C1210 C1202 1.378 . S
C1210 C1205 1.350 . S
C1211 H1198 0.929 . S
C1211 C1203 1.433 . S
C1211 N1213 1.384 . S
N1212 C1208 1.427 . S
N1212 C1209 1.384 . S
N1213 C1205 1.427 . S
N1213 C1211 1.384 . S
H1214 C1220 0.930 . S
H1215 C1224 0.930 . S
H1216 C1229 0.929 . S
H1217 C1227 0.929 . S
H1218 C1222 0.929 . S
H1219 C1228 0.929 . S
C1220 H1214 0.930 . S
C1220 C1221 1.367 . S
C1220 C1228 1.378 . S
C1221 C1220 1.367 . S
C1221 C1229 1.433 . S
C1222 H1218 0.929 . S
C1222 C1224 1.378 . S
C1222 C1226 1.350 . S
C1223 C1226 1.463 . S
C1223 C1228 1.350 . S
C1223 N1231 1.427 . S
C1224 H1215 0.930 . S
C1224 C1222 1.378 . S
C1224 C1225 1.367 . S
C1225 C1224 1.367 . S
C1225 C1227 1.433 . S
C1226 C1222 1.350 . S
C1226 C1223 1.463 . S
C1226 N1230 1.427 . S
C1227 H1217 0.929 . S
C1227 C1225 1.433 . S
C1227 N1230 1.384 . S
C1228 H1219 0.929 . S
C1228 C1220 1.378 . S
C1228 C1223 1.350 . S
C1229 H1216 0.929 . S
C1229 C1221 1.433 . S
C1229 N1231 1.384 . S
N1230 C1226 1.427 . S
N1230 C1227 1.384 . S
N1231 C1223 1.427 . S
N1231 C1229 1.384 . S
H1232 C1238 0.930 . S
H1233 C1242 0.930 . S
H1234 C1247 0.929 . S
H1235 C1245 0.929 . S
H1236 C1240 0.929 . S
H1237 C1246 0.929 . S
C1238 H1232 0.930 . S
C1238 C1239 1.367 . S
C1238 C1246 1.378 . S
C1239 C1238 1.367 . S
C1239 C1247 1.433 1_545 S
C1240 H1236 0.929 . S
C1240 C1242 1.378 . S
C1240 C1244 1.350 1_565 S
C1241 C1244 1.463 . S
C1241 C1246 1.350 . S
C1241 N1249 1.427 1_545 S
C1242 H1233 0.930 . S
C1242 C1240 1.378 . S
C1242 C1243 1.367 1_565 S
C1243 C1242 1.367 1_545 S
C1243 C1245 1.433 . S
C1244 C1240 1.350 1_545 S
C1244 C1241 1.463 . S
C1244 N1248 1.427 . S
C1245 H1235 0.929 . S
C1245 C1243 1.433 . S
C1245 N1248 1.384 . S
C1246 H1237 0.929 . S
C1246 C1238 1.378 . S
C1246 C1241 1.350 . S
C1247 H1234 0.929 . S
C1247 C1239 1.433 1_565 S
C1247 N1249 1.384 . S
N1248 C1244 1.427 . S
N1248 C1245 1.384 . S
N1249 C1241 1.427 1_565 S
N1249 C1247 1.384 . S
H1250 C1256 0.930 . S
H1251 C1260 0.930 . S
H1252 C1265 0.929 . S
H1253 C1263 0.929 . S
H1254 C1258 0.929 . S
H1255 C1264 0.929 . S
C1256 H1250 0.930 . S
C1256 C1257 1.367 . S
C1256 C1264 1.378 . S
C1257 C1256 1.367 . S
C1257 C1265 1.433 . S
C1258 H1254 0.929 . S
C1258 C1260 1.378 . S
C1258 C1262 1.350 . S
C1259 C1262 1.463 . S
C1259 C1264 1.350 . S
C1259 N1267 1.427 . S
C1260 H1251 0.930 . S
C1260 C1258 1.378 . S
C1260 C1261 1.367 . S
C1261 C1260 1.367 . S
C1261 C1263 1.433 . S
C1262 C1258 1.350 . S
C1262 C1259 1.463 . S
C1262 N1266 1.427 . S
C1263 H1253 0.929 . S
C1263 C1261 1.433 . S
C1263 N1266 1.384 . S
C1264 H1255 0.929 . S
C1264 C1256 1.378 . S
C1264 C1259 1.350 . S
C1265 H1252 0.929 . S
C1265 C1257 1.433 . S
C1265 N1267 1.384 . S
N1266 C1262 1.427 . S
N1266 C1263 1.384 . S
N1267 C1259 1.427 . S
N1267 C1265 1.384 . S
H1268 C1274 0.930 . S
H1269 C1278 0.930 . S
H1270 C1283 0.929 . S
H1271 C1281 0.929 . S
H1272 C1276 0.929 . S
H1273 C1282 0.929 . S
C1274 H1268 0.930 . S
C1274 C1275 1.367 . S
C1274 C1282 1.378 . S
C1275 C1274 1.367 . S
C1275 C1283 1.433 . S
C1276 H1272 0.929 . S
C1276 C1278 1.378 . S
C1276 C1280 1.350 . S
C1277 C1280 1.463 . S
C1277 C1282 1.350 . S
C1277 N1285 1.427 . S
C1278 H1269 0.930 . S
C1278 C1276 1.378 . S
C1278 C1279 1.367 . S
C1279 C1278 1.367 . S
C1279 C1281 1.433 . S
C1280 C1276 1.350 . S
C1280 C1277 1.463 . S
C1280 N1284 1.427 . S
C1281 H1271 0.929 . S
C1281 C1279 1.433 . S
C1281 N1284 1.384 . S
C1282 H1273 0.929 . S
C1282 C1274 1.378 . S
C1282 C1277 1.350 . S
C1283 H1270 0.929 . S
C1283 C1275 1.433 . S
C1283 N1285 1.384 . S
N1284 C1280 1.427 . S
N1284 C1281 1.384 . S
N1285 C1277 1.427 . S
N1285 C1283 1.384 . S
H1286 C1292 0.930 . S
H1287 C1296 0.930 . S
H1288 C1301 0.929 . S
H1289 C1299 0.929 . S
H1290 C1294 0.929 . S
H1291 C1300 0.929 . S
C1292 H1286 0.930 . S
C1292 C1293 1.367 . S
C1292 C1300 1.378 . S
C1293 C1292 1.367 . S
C1293 C1301 1.433 . S
C1294 H1290 0.929 . S
C1294 C1296 1.378 . S
C1294 C1298 1.350 . S
C1295 C1298 1.463 . S
C1295 C1300 1.350 . S
C1295 N1303 1.427 . S
C1296 H1287 0.930 . S
C1296 C1294 1.378 . S
C1296 C1297 1.367 . S
C1297 C1296 1.367 . S
C1297 C1299 1.433 . S
C1298 C1294 1.350 . S
C1298 C1295 1.463 . S
C1298 N1302 1.427 . S
C1299 H1289 0.929 . S
C1299 C1297 1.433 . S
C1299 N1302 1.384 . S
C1300 H1291 0.929 . S
C1300 C1292 1.378 . S
C1300 C1295 1.350 . S
C1301 H1288 0.929 . S
C1301 C1293 1.433 . S
C1301 N1303 1.384 . S
N1302 C1298 1.427 . S
N1302 C1299 1.384 . S
N1303 C1295 1.427 . S
N1303 C1301 1.384 . S
H1304 C1310 0.930 . S
H1305 C1314 0.930 . S
H1306 C1319 0.929 . S
H1307 C1317 0.929 . S
H1308 C1312 0.929 . S
H1309 C1318 0.929 . S
C1310 H1304 0.930 . S
C1310 C1311 1.367 1_545 S
C1310 C1318 1.378 . S
C1311 C1310 1.367 1_565 S
C1311 C1319 1.433 . S
C1312 H1308 0.929 . S
C1312 C1314 1.378 . S
C1312 C1316 1.350 1_565 S
C1313 C1316 1.463 . S
C1313 C1318 1.350 . S
C1313 N1321 1.427 1_545 S
C1314 H1305 0.930 . S
C1314 C1312 1.378 . S
C1314 C1315 1.367 1_565 S
C1315 C1314 1.367 1_545 S
C1315 C1317 1.433 . S
C1316 C1312 1.350 1_545 S
C1316 C1313 1.463 . S
C1316 N1320 1.427 . S
C1317 H1307 0.929 . S
C1317 C1315 1.433 . S
C1317 N1320 1.384 . S
C1318 H1309 0.929 . S
C1318 C1310 1.378 . S
C1318 C1313 1.350 . S
C1319 H1306 0.929 . S
C1319 C1311 1.433 . S
C1319 N1321 1.384 . S
N1320 C1316 1.427 . S
N1320 C1317 1.384 . S
N1321 C1313 1.427 1_565 S
N1321 C1319 1.384 . S
H1322 C1328 0.930 . S
H1323 C1332 0.930 . S
H1324 C1337 0.929 . S
H1325 C1335 0.929 . S
H1326 C1330 0.929 . S
H1327 C1336 0.929 . S
C1328 H1322 0.930 . S
C1328 C1329 1.367 . S
C1328 C1336 1.378 . S
C1329 C1328 1.367 . S
C1329 C1337 1.433 . S
C1330 H1326 0.929 . S
C1330 C1332 1.378 . S
C1330 C1334 1.350 . S
C1331 C1334 1.463 . S
C1331 C1336 1.350 . S
C1331 N1339 1.427 . S
C1332 H1323 0.930 . S
C1332 C1330 1.378 . S
C1332 C1333 1.367 . S
C1333 C1332 1.367 . S
C1333 C1335 1.433 . S
C1334 C1330 1.350 . S
C1334 C1331 1.463 . S
C1334 N1338 1.427 . S
C1335 H1325 0.929 . S
C1335 C1333 1.433 . S
C1335 N1338 1.384 . S
C1336 H1327 0.929 . S
C1336 C1328 1.378 . S
C1336 C1331 1.350 . S
C1337 H1324 0.929 . S
C1337 C1329 1.433 . S
C1337 N1339 1.384 . S
N1338 C1334 1.427 . S
N1338 C1335 1.384 . S
N1339 C1331 1.427 . S
N1339 C1337 1.384 . S
H1340 C1346 0.930 . S
H1341 C1350 0.930 . S
H1342 C1355 0.929 . S
H1343 C1353 0.929 . S
H1344 C1348 0.929 . S
H1345 C1354 0.929 . S
C1346 H1340 0.930 . S
C1346 C1347 1.367 . S
C1346 C1354 1.378 . S
C1347 C1346 1.367 . S
C1347 C1355 1.433 . S
C1348 H1344 0.929 . S
C1348 C1350 1.378 . S
C1348 C1352 1.350 . S
C1349 C1352 1.463 . S
C1349 C1354 1.350 . S
C1349 N1357 1.427 . S
C1350 H1341 0.930 . S
C1350 C1348 1.378 . S
C1350 C1351 1.367 . S
C1351 C1350 1.367 . S
C1351 C1353 1.433 . S
C1352 C1348 1.350 . S
C1352 C1349 1.463 . S
C1352 N1356 1.427 . S
C1353 H1343 0.929 . S
C1353 C1351 1.433 . S
C1353 N1356 1.384 . S
C1354 H1345 0.929 . S
C1354 C1346 1.378 . S
C1354 C1349 1.350 . S
C1355 H1342 0.929 . S
C1355 C1347 1.433 . S
C1355 N1357 1.384 . S
N1356 C1352 1.427 . S
N1356 C1353 1.384 . S
N1357 C1349 1.427 . S
N1357 C1355 1.384 . S
H1358 C1364 0.930 . S
H1359 C1368 0.930 . S
H1360 C1373 0.929 . S
H1361 C1371 0.929 . S
H1362 C1366 0.929 . S
H1363 C1372 0.929 . S
C1364 H1358 0.930 . S
C1364 C1365 1.367 . S
C1364 C1372 1.378 . S
C1365 C1364 1.367 . S
C1365 C1373 1.433 . S
C1366 H1362 0.929 . S
C1366 C1368 1.378 . S
C1366 C1370 1.350 . S
C1367 C1370 1.463 . S
C1367 C1372 1.350 . S
C1367 N1375 1.427 . S
C1368 H1359 0.930 . S
C1368 C1366 1.378 . S
C1368 C1369 1.367 . S
C1369 C1368 1.367 . S
C1369 C1371 1.433 . S
C1370 C1366 1.350 . S
C1370 C1367 1.463 . S
C1370 N1374 1.427 . S
C1371 H1361 0.929 . S
C1371 C1369 1.433 . S
C1371 N1374 1.384 . S
C1372 H1363 0.929 . S
C1372 C1364 1.378 . S
C1372 C1367 1.350 . S
C1373 H1360 0.929 . S
C1373 C1365 1.433 . S
C1373 N1375 1.384 . S
N1374 C1370 1.427 . S
N1374 C1371 1.384 . S
N1375 C1367 1.427 . S
N1375 C1373 1.384 . S
H1376 C1382 0.930 . S
H1377 C1386 0.930 . S
H1378 C1391 0.929 . S
H1379 C1389 0.929 . S
H1380 C1384 0.929 . S
H1381 C1390 0.929 . S
C1382 H1376 0.930 . S
C1382 C1383 1.367 1_556 S
C1382 C1390 1.378 . S
C1383 C1382 1.367 1_554 S
C1383 C1391 1.433 . S
C1384 H1380 0.929 . S
C1384 C1386 1.378 . S
C1384 C1388 1.329 1_554 S
C1385 C1388 1.462 . S
C1385 C1390 1.357 . S
C1385 N1393 1.419 1_556 S
C1386 H1377 0.930 . S
C1386 C1384 1.378 . S
C1386 C1387 1.367 1_554 S
C1387 C1386 1.367 1_556 S
C1387 C1389 1.433 . S
C1388 C1384 1.329 1_556 S
C1388 C1385 1.462 . S
C1388 N1392 1.452 . S
C1389 H1379 0.929 . S
C1389 C1387 1.433 . S
C1389 N1392 1.384 . S
C1390 H1381 0.929 . S
C1390 C1382 1.378 . S
C1390 C1385 1.357 . S
C1391 H1378 0.929 . S
C1391 C1383 1.433 . S
C1391 N1393 1.384 . S
N1392 C1388 1.452 . S
N1392 C1389 1.384 . S
N1393 C1385 1.419 1_554 S
N1393 C1391 1.384 . S
H1394 C1400 0.930 . S
H1395 C1404 0.930 1_556 S
H1396 C1409 0.929 1_556 S
H1397 C1407 0.929 . S
H1398 C1402 0.929 1_556 S
H1399 C1408 0.929 . S
C1400 H1394 0.930 . S
C1400 C1401 1.367 . S
C1400 C1408 1.378 . S
C1401 C1400 1.367 . S
C1401 C1409 1.433 . S
C1402 H1398 0.929 1_554 S
C1402 C1404 1.378 . S
C1402 C1406 1.350 . S
C1403 C1406 1.463 . S
C1403 C1408 1.350 . S
C1403 N1411 1.427 . S
C1404 H1395 0.930 1_554 S
C1404 C1402 1.378 . S
C1404 C1405 1.367 . S
C1405 C1404 1.367 . S
C1405 C1407 1.433 . S
C1406 C1402 1.350 . S
C1406 C1403 1.463 . S
C1406 N1410 1.427 . S
C1407 H1397 0.929 . S
C1407 C1405 1.433 . S
C1407 N1410 1.384 . S
C1408 H1399 0.929 . S
C1408 C1400 1.378 . S
C1408 C1403 1.350 . S
C1409 H1396 0.929 1_554 S
C1409 C1401 1.433 . S
C1409 N1411 1.384 . S
N1410 C1406 1.427 . S
N1410 C1407 1.384 . S
N1411 C1403 1.427 . S
N1411 C1409 1.384 . S
H1412 C1418 0.930 . S
H1413 C1422 0.930 . S
H1414 C1427 0.929 . S
H1415 C1425 0.929 . S
H1416 C1420 0.929 . S
H1417 C1426 0.929 . S
C1418 H1412 0.930 . S
C1418 C1419 1.367 . S
C1418 C1426 1.378 . S
C1419 C1418 1.367 . S
C1419 C1427 1.433 . S
C1420 H1416 0.929 . S
C1420 C1422 1.378 . S
C1420 C1424 1.350 . S
C1421 C1424 1.463 . S
C1421 C1426 1.350 . S
C1421 N1429 1.427 . S
C1422 H1413 0.930 . S
C1422 C1420 1.378 . S
C1422 C1423 1.367 . S
C1423 C1422 1.367 . S
C1423 C1425 1.433 . S
C1424 C1420 1.350 . S
C1424 C1421 1.463 . S
C1424 N1428 1.427 . S
C1425 H1415 0.929 . S
C1425 C1423 1.433 . S
C1425 N1428 1.384 . S
C1426 H1417 0.929 . S
C1426 C1418 1.378 . S
C1426 C1421 1.350 . S
C1427 H1414 0.929 . S
C1427 C1419 1.433 . S
C1427 N1429 1.384 . S
N1428 C1424 1.427 . S
N1428 C1425 1.384 . S
N1429 C1421 1.427 . S
N1429 C1427 1.384 . S
H1430 C1436 0.930 . S
H1431 C1440 0.930 . S
H1432 C1445 0.929 . S
H1433 C1443 0.929 . S
H1434 C1438 0.929 . S
H1435 C1444 0.929 . S
C1436 H1430 0.930 . S
C1436 C1437 1.367 . S
C1436 C1444 1.378 . S
C1437 C1436 1.367 . S
C1437 C1445 1.433 . S
C1438 H1434 0.929 . S
C1438 C1440 1.378 . S
C1438 C1442 1.350 . S
C1439 C1442 1.463 . S
C1439 C1444 1.350 . S
C1439 N1447 1.427 . S
C1440 H1431 0.930 . S
C1440 C1438 1.378 . S
C1440 C1441 1.367 . S
C1441 C1440 1.367 . S
C1441 C1443 1.433 . S
C1442 C1438 1.350 . S
C1442 C1439 1.463 . S
C1442 N1446 1.427 . S
C1443 H1433 0.929 . S
C1443 C1441 1.433 . S
C1443 N1446 1.384 . S
C1444 H1435 0.929 . S
C1444 C1436 1.378 . S
C1444 C1439 1.350 . S
C1445 H1432 0.929 . S
C1445 C1437 1.433 . S
C1445 N1447 1.384 . S
N1446 C1442 1.427 . S
N1446 C1443 1.384 . S
N1447 C1439 1.427 . S
N1447 C1445 1.384 . S
H1448 C1454 0.930 . S
H1449 C1458 0.930 . S
H1450 C1463 0.929 . S
H1451 C1461 0.929 . S
H1452 C1456 0.929 . S
H1453 C1462 0.929 . S
C1454 H1448 0.930 . S
C1454 C1455 1.367 . S
C1454 C1462 1.378 . S
C1455 C1454 1.367 . S
C1455 C1463 1.433 . S
C1456 H1452 0.929 . S
C1456 C1458 1.378 . S
C1456 C1460 1.350 . S
C1457 C1460 1.463 . S
C1457 C1462 1.350 . S
C1457 N1465 1.427 . S
C1458 H1449 0.930 . S
C1458 C1456 1.378 . S
C1458 C1459 1.367 . S
C1459 C1458 1.367 . S
C1459 C1461 1.433 . S
C1460 C1456 1.350 . S
C1460 C1457 1.463 . S
C1460 N1464 1.427 . S
C1461 H1451 0.929 . S
C1461 C1459 1.433 . S
C1461 N1464 1.384 . S
C1462 H1453 0.929 . S
C1462 C1454 1.378 . S
C1462 C1457 1.350 . S
C1463 H1450 0.929 . S
C1463 C1455 1.433 . S
C1463 N1465 1.384 . S
N1464 C1460 1.427 . S
N1464 C1461 1.384 . S
N1465 C1457 1.427 . S
N1465 C1463 1.384 . S
H1466 C1472 0.930 . S
H1467 C1476 0.930 . S
H1468 C1481 0.929 . S
H1469 C1479 0.929 . S
H1470 C1474 0.929 . S
H1471 C1480 0.929 . S
C1472 H1466 0.930 . S
C1472 C1473 1.367 . S
C1472 C1480 1.378 . S
C1473 C1472 1.367 . S
C1473 C1481 1.433 . S
C1474 H1470 0.929 . S
C1474 C1476 1.378 1_565 S
C1474 C1478 1.350 . S
C1475 C1478 1.463 . S
C1475 C1480 1.350 . S
C1475 N1483 1.427 . S
C1476 H1467 0.930 . S
C1476 C1474 1.378 1_545 S
C1476 C1477 1.367 1_545 S
C1477 C1476 1.367 1_565 S
C1477 C1479 1.433 . S
C1478 C1474 1.350 . S
C1478 C1475 1.463 . S
C1478 N1482 1.427 . S
C1479 H1469 0.929 . S
C1479 C1477 1.433 . S
C1479 N1482 1.384 . S
C1480 H1471 0.929 . S
C1480 C1472 1.378 . S
C1480 C1475 1.350 . S
C1481 H1468 0.929 . S
C1481 C1473 1.433 . S
C1481 N1483 1.384 . S
N1482 C1478 1.427 . S
N1482 C1479 1.384 . S
N1483 C1475 1.427 . S
N1483 C1481 1.384 . S
H1484 C1490 0.930 . S
H1485 C1494 0.930 . S
H1486 C1499 0.929 . S
H1487 C1497 0.929 . S
H1488 C1492 0.929 . S
H1489 C1498 0.929 . S
C1490 H1484 0.930 . S
C1490 C1491 1.367 . S
C1490 C1498 1.378 . S
C1491 C1490 1.367 . S
C1491 C1499 1.433 . S
C1492 H1488 0.929 . S
C1492 C1494 1.378 . S
C1492 C1496 1.350 . S
C1493 C1496 1.463 . S
C1493 C1498 1.350 . S
C1493 N1501 1.427 . S
C1494 H1485 0.930 . S
C1494 C1492 1.378 . S
C1494 C1495 1.367 . S
C1495 C1494 1.367 . S
C1495 C1497 1.433 . S
C1496 C1492 1.350 . S
C1496 C1493 1.463 . S
C1496 N1500 1.427 . S
C1497 H1487 0.929 . S
C1497 C1495 1.433 . S
C1497 N1500 1.384 . S
C1498 H1489 0.929 . S
C1498 C1490 1.378 . S
C1498 C1493 1.350 . S
C1499 H1486 0.929 . S
C1499 C1491 1.433 . S
C1499 N1501 1.384 . S
N1500 C1496 1.427 . S
N1500 C1497 1.384 . S
N1501 C1493 1.427 . S
N1501 C1499 1.384 . S
H1502 C1508 0.930 . S
H1503 C1512 0.930 . S
H1504 C1517 0.929 . S
H1505 C1515 0.929 . S
H1506 C1510 0.929 . S
H1507 C1516 0.929 . S
C1508 H1502 0.930 . S
C1508 C1509 1.367 . S
C1508 C1516 1.378 . S
C1509 C1508 1.367 . S
C1509 C1517 1.433 . S
C1510 H1506 0.929 . S
C1510 C1512 1.378 . S
C1510 C1514 1.350 . S
C1511 C1514 1.463 . S
C1511 C1516 1.350 . S
C1511 N1519 1.427 . S
C1512 H1503 0.930 . S
C1512 C1510 1.378 . S
C1512 C1513 1.367 . S
C1513 C1512 1.367 . S
C1513 C1515 1.433 . S
C1514 C1510 1.350 . S
C1514 C1511 1.463 . S
C1514 N1518 1.427 . S
C1515 H1505 0.929 . S
C1515 C1513 1.433 . S
C1515 N1518 1.384 . S
C1516 H1507 0.929 . S
C1516 C1508 1.378 . S
C1516 C1511 1.350 . S
C1517 H1504 0.929 . S
C1517 C1509 1.433 . S
C1517 N1519 1.384 . S
N1518 C1514 1.427 . S
N1518 C1515 1.384 . S
N1519 C1511 1.427 . S
N1519 C1517 1.384 . S
H1520 C1526 0.930 . S
H1521 C1530 0.930 . S
H1522 C1535 0.929 . S
H1523 C1533 0.929 . S
H1524 C1528 0.929 . S
H1525 C1534 0.929 . S
C1526 H1520 0.930 . S
C1526 C1527 1.367 . S
C1526 C1534 1.378 . S
C1527 C1526 1.367 . S
C1527 C1535 1.433 . S
C1528 H1524 0.929 . S
C1528 C1530 1.378 . S
C1528 C1532 1.350 . S
C1529 C1532 1.463 . S
C1529 C1534 1.350 . S
C1529 N1537 1.427 . S
C1530 H1521 0.930 . S
C1530 C1528 1.378 . S
C1530 C1531 1.367 . S
C1531 C1530 1.367 . S
C1531 C1533 1.433 . S
C1532 C1528 1.350 . S
C1532 C1529 1.463 . S
C1532 N1536 1.427 . S
C1533 H1523 0.929 . S
C1533 C1531 1.433 . S
C1533 N1536 1.384 . S
C1534 H1525 0.929 . S
C1534 C1526 1.378 . S
C1534 C1529 1.350 . S
C1535 H1522 0.929 . S
C1535 C1527 1.433 . S
C1535 N1537 1.384 . S
N1536 C1532 1.427 . S
N1536 C1533 1.384 . S
N1537 C1529 1.427 . S
N1537 C1535 1.384 . S
H1538 C1544 0.930 . S
H1539 C1548 0.930 . S
H1540 C1553 0.929 . S
H1541 C1551 0.929 . S
H1542 C1546 0.929 . S
H1543 C1552 0.929 . S
C1544 H1538 0.930 . S
C1544 C1545 1.367 . S
C1544 C1552 1.378 . S
C1545 C1544 1.367 . S
C1545 C1553 1.433 . S
C1546 H1542 0.929 . S
C1546 C1548 1.378 . S
C1546 C1550 1.350 . S
C1547 C1550 1.463 . S
C1547 C1552 1.350 . S
C1547 N1555 1.427 . S
C1548 H1539 0.930 . S
C1548 C1546 1.378 . S
C1548 C1549 1.367 . S
C1549 C1548 1.367 . S
C1549 C1551 1.433 . S
C1550 C1546 1.350 . S
C1550 C1547 1.463 . S
C1550 N1554 1.427 . S
C1551 H1541 0.929 . S
C1551 C1549 1.433 . S
C1551 N1554 1.384 . S
C1552 H1543 0.929 . S
C1552 C1544 1.378 . S
C1552 C1547 1.350 . S
C1553 H1540 0.929 . S
C1553 C1545 1.433 . S
C1553 N1555 1.384 . S
N1554 C1550 1.427 . S
N1554 C1551 1.384 . S
N1555 C1547 1.427 . S
N1555 C1553 1.384 . S
H1556 C1562 0.930 . S
H1557 C1566 0.930 1_554 S
H1558 C1571 0.929 . S
H1559 C1569 0.926 1_655 S
H1560 C1564 0.929 . S
H1561 C1570 0.929 . S
C1562 H1556 0.930 . S
C1562 C1563 1.367 . S
C1562 C1570 1.378 . S
C1563 C1562 1.367 . S
C1563 C1571 1.433 . S
C1564 H1560 0.929 . S
C1564 C1566 1.378 . S
C1564 C1568 1.350 . S
C1565 C1568 1.463 . S
C1565 C1570 1.350 . S
C1565 N1573 1.427 . S
C1566 H1557 0.930 1_556 S
C1566 C1564 1.378 . S
C1566 C1567 1.367 . S
C1567 C1566 1.367 . S
C1567 C1569 1.433 . S
C1568 C1564 1.350 . S
C1568 C1565 1.463 . S
C1568 N1572 1.427 . S
C1569 H1559 0.926 1_455 S
C1569 C1567 1.433 . S
C1569 N1572 1.384 . S
C1570 H1561 0.929 . S
C1570 C1562 1.378 . S
C1570 C1565 1.350 . S
C1571 H1558 0.929 . S
C1571 C1563 1.433 . S
C1571 N1573 1.384 . S
N1572 C1568 1.427 . S
N1572 C1569 1.384 . S
N1573 C1565 1.427 . S
N1573 C1571 1.384 . S
H1574 C1580 0.930 . S
H1575 C1584 0.930 . S
H1576 C1589 0.929 . S
H1577 C1587 0.929 . S
H1578 C1582 0.929 . S
H1579 C1588 0.929 . S
C1580 H1574 0.930 . S
C1580 C1581 1.367 . S
C1580 C1588 1.378 . S
C1581 C1580 1.367 . S
C1581 C1589 1.433 . S
C1582 H1578 0.929 . S
C1582 C1584 1.378 . S
C1582 C1586 1.350 . S
C1583 C1586 1.463 . S
C1583 C1588 1.350 . S
C1583 N1591 1.427 . S
C1584 H1575 0.930 . S
C1584 C1582 1.378 . S
C1584 C1585 1.367 . S
C1585 C1584 1.367 . S
C1585 C1587 1.433 . S
C1586 C1582 1.350 . S
C1586 C1583 1.463 . S
C1586 N1590 1.427 . S
C1587 H1577 0.929 . S
C1587 C1585 1.433 . S
C1587 N1590 1.384 . S
C1588 H1579 0.929 . S
C1588 C1580 1.378 . S
C1588 C1583 1.350 . S
C1589 H1576 0.929 . S
C1589 C1581 1.433 . S
C1589 N1591 1.384 . S
N1590 C1586 1.427 . S
N1590 C1587 1.384 . S
N1591 C1583 1.427 . S
N1591 C1589 1.384 . S
H1592 C1598 0.930 . S
H1593 C1602 0.930 . S
H1594 C1607 0.929 . S
H1595 C1605 0.929 . S
H1596 C1600 0.929 . S
H1597 C1606 0.929 . S
C1598 H1592 0.930 . S
C1598 C1599 1.367 . S
C1598 C1606 1.378 . S
C1599 C1598 1.367 . S
C1599 C1607 1.433 . S
C1600 H1596 0.929 . S
C1600 C1602 1.378 . S
C1600 C1604 1.350 . S
C1601 C1604 1.463 . S
C1601 C1606 1.350 . S
C1601 N1609 1.427 . S
C1602 H1593 0.930 . S
C1602 C1600 1.378 . S
C1602 C1603 1.367 . S
C1603 C1602 1.367 . S
C1603 C1605 1.433 . S
C1604 C1600 1.350 . S
C1604 C1601 1.463 . S
C1604 N1608 1.427 . S
C1605 H1595 0.929 . S
C1605 C1603 1.433 . S
C1605 N1608 1.384 . S
C1606 H1597 0.929 . S
C1606 C1598 1.378 . S
C1606 C1601 1.350 . S
C1607 H1594 0.929 . S
C1607 C1599 1.433 . S
C1607 N1609 1.384 . S
N1608 C1604 1.427 . S
N1608 C1605 1.384 . S
N1609 C1601 1.427 . S
N1609 C1607 1.384 . S
H1610 C1616 0.930 . S
H1611 C1620 0.930 . S
H1612 C1625 0.929 . S
H1613 C1623 0.929 . S
H1614 C1618 0.929 . S
H1615 C1624 0.929 . S
C1616 H1610 0.930 . S
C1616 C1617 1.367 . S
C1616 C1624 1.378 . S
C1617 C1616 1.367 . S
C1617 C1625 1.433 . S
C1618 H1614 0.929 . S
C1618 C1620 1.378 . S
C1618 C1622 1.350 . S
C1619 C1622 1.463 . S
C1619 C1624 1.350 . S
C1619 N1627 1.427 . S
C1620 H1611 0.930 . S
C1620 C1618 1.378 . S
C1620 C1621 1.367 . S
C1621 C1620 1.367 . S
C1621 C1623 1.433 . S
C1622 C1618 1.350 . S
C1622 C1619 1.463 . S
C1622 N1626 1.427 . S
C1623 H1613 0.929 . S
C1623 C1621 1.433 . S
C1623 N1626 1.384 . S
C1624 H1615 0.929 . S
C1624 C1616 1.378 . S
C1624 C1619 1.350 . S
C1625 H1612 0.929 . S
C1625 C1617 1.433 . S
C1625 N1627 1.384 . S
N1626 C1622 1.427 . S
N1626 C1623 1.384 . S
N1627 C1619 1.427 . S
N1627 C1625 1.384 . S
H1628 C1634 0.930 . S
H1629 C1638 0.930 . S
H1630 C1643 0.929 . S
H1631 C1641 0.929 . S
H1632 C1636 0.929 . S
H1633 C1642 0.929 . S
C1634 H1628 0.930 . S
C1634 C1635 1.367 . S
C1634 C1642 1.378 . S
C1635 C1634 1.367 . S
C1635 C1643 1.433 1_655 S
C1636 H1632 0.929 . S
C1636 C1638 1.378 . S
C1636 C1640 1.350 1_455 S
C1637 C1640 1.463 . S
C1637 C1642 1.350 . S
C1637 N1645 1.427 1_655 S
C1638 H1629 0.930 . S
C1638 C1636 1.378 . S
C1638 C1639 1.364 1_455 S
C1639 C1638 1.364 1_655 S
C1639 C1641 1.437 . S
C1640 C1636 1.350 1_655 S
C1640 C1637 1.463 . S
C1640 N1644 1.427 . S
C1641 H1631 0.929 . S
C1641 C1639 1.437 . S
C1641 N1644 1.384 . S
C1642 H1633 0.929 . S
C1642 C1634 1.378 . S
C1642 C1637 1.350 . S
C1643 H1630 0.929 . S
C1643 C1635 1.433 1_455 S
C1643 N1645 1.384 . S
N1644 C1640 1.427 . S
N1644 C1641 1.384 . S
N1645 C1637 1.427 1_455 S
N1645 C1643 1.384 . S
H1646 C1652 0.930 . S
H1647 C1656 0.930 . S
H1648 C1661 0.929 . S
H1649 C1659 0.929 . S
H1650 C1654 0.929 . S
H1651 C1660 0.929 . S
C1652 H1646 0.930 . S
C1652 C1653 1.367 . S
C1652 C1660 1.378 . S
C1653 C1652 1.367 . S
C1653 C1661 1.433 . S
C1654 H1650 0.929 . S
C1654 C1656 1.378 . S
C1654 C1658 1.350 . S
C1655 C1658 1.463 . S
C1655 C1660 1.350 . S
C1655 N1663 1.427 . S
C1656 H1647 0.930 . S
C1656 C1654 1.378 . S
C1656 C1657 1.367 . S
C1657 C1656 1.367 . S
C1657 C1659 1.433 . S
C1658 C1654 1.350 . S
C1658 C1655 1.463 . S
C1658 N1662 1.427 . S
C1659 H1649 0.929 . S
C1659 C1657 1.433 . S
C1659 N1662 1.384 . S
C1660 H1651 0.929 . S
C1660 C1652 1.378 . S
C1660 C1655 1.350 . S
C1661 H1648 0.929 . S
C1661 C1653 1.433 . S
C1661 N1663 1.384 . S
N1662 C1658 1.427 . S
N1662 C1659 1.384 . S
N1663 C1655 1.427 . S
N1663 C1661 1.384 . S
H1664 C1670 0.930 . S
H1665 C1674 0.930 . S
H1666 C1679 0.929 . S
H1667 C1677 0.929 . S
H1668 C1672 0.929 . S
H1669 C1678 0.929 . S
C1670 H1664 0.930 . S
C1670 C1671 1.367 . S
C1670 C1678 1.378 . S
C1671 C1670 1.367 . S
C1671 C1679 1.433 . S
C1672 H1668 0.929 . S
C1672 C1674 1.378 . S
C1672 C1676 1.350 . S
C1673 C1676 1.463 . S
C1673 C1678 1.350 . S
C1673 N1681 1.427 . S
C1674 H1665 0.930 . S
C1674 C1672 1.378 . S
C1674 C1675 1.367 . S
C1675 C1674 1.367 . S
C1675 C1677 1.433 . S
C1676 C1672 1.350 . S
C1676 C1673 1.463 . S
C1676 N1680 1.427 . S
C1677 H1667 0.929 . S
C1677 C1675 1.433 . S
C1677 N1680 1.384 . S
C1678 H1669 0.929 . S
C1678 C1670 1.378 . S
C1678 C1673 1.350 . S
C1679 H1666 0.929 . S
C1679 C1671 1.433 . S
C1679 N1681 1.384 . S
N1680 C1676 1.427 . S
N1680 C1677 1.384 . S
N1681 C1673 1.427 . S
N1681 C1679 1.384 . S
H1682 C1688 0.930 . S
H1683 C1692 0.930 . S
H1684 C1697 0.929 . S
H1685 C1695 0.929 . S
H1686 C1690 0.929 . S
H1687 C1696 0.929 . S
C1688 H1682 0.930 . S
C1688 C1689 1.367 . S
C1688 C1696 1.378 . S
C1689 C1688 1.367 . S
C1689 C1697 1.433 . S
C1690 H1686 0.929 . S
C1690 C1692 1.378 . S
C1690 C1694 1.350 . S
C1691 C1694 1.463 . S
C1691 C1696 1.350 . S
C1691 N1699 1.427 . S
C1692 H1683 0.930 . S
C1692 C1690 1.378 . S
C1692 C1693 1.367 . S
C1693 C1692 1.367 . S
C1693 C1695 1.433 . S
C1694 C1690 1.350 . S
C1694 C1691 1.463 . S
C1694 N1698 1.427 . S
C1695 H1685 0.929 . S
C1695 C1693 1.433 . S
C1695 N1698 1.384 . S
C1696 H1687 0.929 . S
C1696 C1688 1.378 . S
C1696 C1691 1.350 . S
C1697 H1684 0.929 . S
C1697 C1689 1.433 . S
C1697 N1699 1.384 . S
N1698 C1694 1.427 . S
N1698 C1695 1.384 . S
N1699 C1691 1.427 . S
N1699 C1697 1.384 . S
H1700 C1706 0.930 . S
H1701 C1710 0.930 1_655 S
H1702 C1715 0.929 . S
H1703 C1713 0.929 . S
H1704 C1708 0.929 . S
H1705 C1714 0.929 . S
C1706 H1700 0.930 . S
C1706 C1707 1.367 . S
C1706 C1714 1.378 . S
C1707 C1706 1.367 . S
C1707 C1715 1.433 . S
C1708 H1704 0.929 . S
C1708 C1710 1.378 . S
C1708 C1712 1.350 . S
C1709 C1712 1.463 . S
C1709 C1714 1.350 . S
C1709 N1717 1.427 . S
C1710 H1701 0.930 1_455 S
C1710 C1708 1.378 . S
C1710 C1711 1.367 . S
C1711 C1710 1.367 . S
C1711 C1713 1.433 . S
C1712 C1708 1.350 . S
C1712 C1709 1.463 . S
C1712 N1716 1.427 . S
C1713 H1703 0.929 . S
C1713 C1711 1.433 . S
C1713 N1716 1.384 . S
C1714 H1705 0.929 . S
C1714 C1706 1.378 . S
C1714 C1709 1.350 . S
C1715 H1702 0.929 . S
C1715 C1707 1.433 . S
C1715 N1717 1.384 . S
N1716 C1712 1.427 . S
N1716 C1713 1.384 . S
N1717 C1709 1.427 . S
N1717 C1715 1.384 . S
H1718 C1724 0.930 . S
H1719 C1728 0.930 . S
H1720 C1733 0.929 . S
H1721 C1731 0.929 . S
H1722 C1726 0.929 . S
H1723 C1732 0.929 . S
C1724 H1718 0.930 . S
C1724 C1725 1.367 . S
C1724 C1732 1.378 . S
C1725 C1724 1.367 . S
C1725 C1733 1.433 . S
C1726 H1722 0.929 . S
C1726 C1728 1.378 . S
C1726 C1730 1.350 . S
C1727 C1730 1.463 . S
C1727 C1732 1.350 . S
C1727 N1735 1.427 . S
C1728 H1719 0.930 . S
C1728 C1726 1.378 . S
C1728 C1729 1.367 . S
C1729 C1728 1.367 . S
C1729 C1731 1.433 . S
C1730 C1726 1.350 . S
C1730 C1727 1.463 . S
C1730 N1734 1.427 . S
C1731 H1721 0.929 . S
C1731 C1729 1.433 . S
C1731 N1734 1.384 . S
C1732 H1723 0.929 . S
C1732 C1724 1.378 . S
C1732 C1727 1.350 . S
C1733 H1720 0.929 . S
C1733 C1725 1.433 . S
C1733 N1735 1.384 . S
N1734 C1730 1.427 . S
N1734 C1731 1.384 . S
N1735 C1727 1.427 . S
N1735 C1733 1.384 . S
H1736 C1742 0.930 . S
H1737 C1746 0.930 . S
H1738 C1751 0.929 . S
H1739 C1749 0.929 . S
H1740 C1744 0.929 . S
H1741 C1750 0.929 . S
C1742 H1736 0.930 . S
C1742 C1743 1.367 . S
C1742 C1750 1.378 . S
C1743 C1742 1.367 . S
C1743 C1751 1.433 . S
C1744 H1740 0.929 . S
C1744 C1746 1.378 . S
C1744 C1748 1.350 . S
C1745 C1748 1.463 . S
C1745 C1750 1.350 . S
C1745 N1753 1.427 . S
C1746 H1737 0.930 . S
C1746 C1744 1.378 . S
C1746 C1747 1.367 . S
C1747 C1746 1.367 . S
C1747 C1749 1.433 . S
C1748 C1744 1.350 . S
C1748 C1745 1.463 . S
C1748 N1752 1.427 . S
C1749 H1739 0.929 . S
C1749 C1747 1.433 . S
C1749 N1752 1.384 . S
C1750 H1741 0.929 . S
C1750 C1742 1.378 . S
C1750 C1745 1.350 . S
C1751 H1738 0.929 . S
C1751 C1743 1.433 . S
C1751 N1753 1.384 . S
N1752 C1748 1.427 . S
N1752 C1749 1.384 . S
N1753 C1745 1.427 . S
N1753 C1751 1.384 . S
H1754 C1760 0.930 . S
H1755 C1764 0.930 . S
H1756 C1769 0.929 . S
H1757 C1767 0.929 . S
H1758 C1762 0.929 . S
H1759 C1768 0.929 . S
C1760 H1754 0.930 . S
C1760 C1761 1.367 . S
C1760 C1768 1.378 . S
C1761 C1760 1.367 . S
C1761 C1769 1.433 . S
C1762 H1758 0.929 . S
C1762 C1764 1.378 . S
C1762 C1766 1.350 . S
C1763 C1766 1.463 . S
C1763 C1768 1.350 . S
C1763 N1771 1.427 . S
C1764 H1755 0.930 . S
C1764 C1762 1.378 . S
C1764 C1765 1.367 . S
C1765 C1764 1.367 . S
C1765 C1767 1.433 . S
C1766 C1762 1.350 . S
C1766 C1763 1.463 . S
C1766 N1770 1.427 . S
C1767 H1757 0.929 . S
C1767 C1765 1.433 . S
C1767 N1770 1.384 . S
C1768 H1759 0.929 . S
C1768 C1760 1.378 . S
C1768 C1763 1.350 . S
C1769 H1756 0.929 . S
C1769 C1761 1.433 . S
C1769 N1771 1.384 . S
N1770 C1766 1.427 . S
N1770 C1767 1.384 . S
N1771 C1763 1.427 . S
N1771 C1769 1.384 . S
H1772 C1778 0.930 . S
H1773 C1782 0.930 . S
H1774 C1787 0.929 . S
H1775 C1785 0.929 . S
H1776 C1780 0.929 . S
H1777 C1786 0.929 . S
C1778 H1772 0.930 . S
C1778 C1779 1.367 . S
C1778 C1786 1.378 . S
C1779 C1778 1.367 . S
C1779 C1787 1.433 . S
C1780 H1776 0.929 . S
C1780 C1782 1.378 . S
C1780 C1784 1.350 . S
C1781 C1784 1.463 . S
C1781 C1786 1.350 . S
C1781 N1789 1.427 . S
C1782 H1773 0.930 . S
C1782 C1780 1.378 . S
C1782 C1783 1.367 . S
C1783 C1782 1.367 . S
C1783 C1785 1.433 . S
C1784 C1780 1.350 . S
C1784 C1781 1.463 . S
C1784 N1788 1.427 . S
C1785 H1775 0.929 . S
C1785 C1783 1.433 . S
C1785 N1788 1.384 . S
C1786 H1777 0.929 . S
C1786 C1778 1.378 . S
C1786 C1781 1.350 . S
C1787 H1774 0.929 . S
C1787 C1779 1.433 . S
C1787 N1789 1.384 . S
N1788 C1784 1.427 . S
N1788 C1785 1.384 . S
N1789 C1781 1.427 . S
N1789 C1787 1.384 . S
H1790 C1796 0.930 . S
H1791 C1800 0.930 . S
H1792 C1805 0.929 . S
H1793 C1803 0.929 . S
H1794 C1798 0.929 . S
H1795 C1804 0.929 . S
C1796 H1790 0.930 . S
C1796 C1797 1.367 . S
C1796 C1804 1.378 . S
C1797 C1796 1.367 . S
C1797 C1805 1.433 . S
C1798 H1794 0.929 . S
C1798 C1800 1.378 . S
C1798 C1802 1.350 . S
C1799 C1802 1.463 . S
C1799 C1804 1.350 . S
C1799 N1807 1.427 . S
C1800 H1791 0.930 . S
C1800 C1798 1.378 . S
C1800 C1801 1.367 . S
C1801 C1800 1.367 . S
C1801 C1803 1.433 . S
C1802 C1798 1.350 . S
C1802 C1799 1.463 . S
C1802 N1806 1.427 . S
C1803 H1793 0.929 . S
C1803 C1801 1.433 . S
C1803 N1806 1.384 . S
C1804 H1795 0.929 . S
C1804 C1796 1.378 . S
C1804 C1799 1.350 . S
C1805 H1792 0.929 . S
C1805 C1797 1.433 . S
C1805 N1807 1.384 . S
N1806 C1802 1.427 . S
N1806 C1803 1.384 . S
N1807 C1799 1.427 . S
N1807 C1805 1.384 . S
H1808 C1814 0.930 . S
H1809 C1818 0.930 . S
H1810 C1823 0.929 . S
H1811 C1821 0.929 . S
H1812 C1816 0.929 . S
H1813 C1822 0.929 . S
C1814 H1808 0.930 . S
C1814 C1815 1.367 . S
C1814 C1822 1.378 . S
C1815 C1814 1.367 . S
C1815 C1823 1.433 . S
C1816 H1812 0.929 . S
C1816 C1818 1.378 . S
C1816 C1820 1.350 . S
C1817 C1820 1.463 . S
C1817 C1822 1.350 . S
C1817 N1825 1.427 . S
C1818 H1809 0.930 . S
C1818 C1816 1.378 . S
C1818 C1819 1.367 . S
C1819 C1818 1.367 . S
C1819 C1821 1.433 . S
C1820 C1816 1.350 . S
C1820 C1817 1.463 . S
C1820 N1824 1.427 . S
C1821 H1811 0.929 . S
C1821 C1819 1.433 . S
C1821 N1824 1.384 . S
C1822 H1813 0.929 . S
C1822 C1814 1.378 . S
C1822 C1817 1.350 . S
C1823 H1810 0.929 . S
C1823 C1815 1.433 . S
C1823 N1825 1.384 . S
N1824 C1820 1.427 . S
N1824 C1821 1.384 . S
N1825 C1817 1.427 . S
N1825 C1823 1.384 . S
H1826 C1832 0.930 . S
H1827 C1836 0.930 . S
H1828 C1841 0.929 . S
H1829 C1839 0.929 . S
H1830 C1834 0.929 . S
H1831 C1840 0.929 . S
C1832 H1826 0.930 . S
C1832 C1833 1.367 . S
C1832 C1840 1.378 . S
C1833 C1832 1.367 . S
C1833 C1841 1.433 . S
C1834 H1830 0.929 . S
C1834 C1836 1.378 . S
C1834 C1838 1.350 . S
C1835 C1838 1.463 . S
C1835 C1840 1.350 . S
C1835 N1843 1.427 . S
C1836 H1827 0.930 . S
C1836 C1834 1.378 . S
C1836 C1837 1.367 . S
C1837 C1836 1.367 . S
C1837 C1839 1.433 . S
C1838 C1834 1.350 . S
C1838 C1835 1.463 . S
C1838 N1842 1.427 . S
C1839 H1829 0.929 . S
C1839 C1837 1.433 . S
C1839 N1842 1.384 . S
C1840 H1831 0.929 . S
C1840 C1832 1.378 . S
C1840 C1835 1.350 . S
C1841 H1828 0.929 . S
C1841 C1833 1.433 . S
C1841 N1843 1.384 . S
N1842 C1838 1.427 . S
N1842 C1839 1.384 . S
N1843 C1835 1.427 . S
N1843 C1841 1.384 . S
H1844 C1850 0.930 . S
H1845 C1854 0.930 . S
H1846 C1859 0.929 . S
H1847 C1857 0.929 . S
H1848 C1852 0.929 . S
H1849 C1858 0.929 . S
C1850 H1844 0.930 . S
C1850 C1851 1.367 . S
C1850 C1858 1.378 . S
C1851 C1850 1.367 . S
C1851 C1859 1.433 . S
C1852 H1848 0.929 . S
C1852 C1854 1.378 . S
C1852 C1856 1.350 . S
C1853 C1856 1.463 . S
C1853 C1858 1.350 . S
C1853 N1861 1.427 . S
C1854 H1845 0.930 . S
C1854 C1852 1.378 . S
C1854 C1855 1.367 . S
C1855 C1854 1.367 . S
C1855 C1857 1.433 . S
C1856 C1852 1.350 . S
C1856 C1853 1.463 . S
C1856 N1860 1.427 . S
C1857 H1847 0.929 . S
C1857 C1855 1.433 . S
C1857 N1860 1.384 . S
C1858 H1849 0.929 . S
C1858 C1850 1.378 . S
C1858 C1853 1.350 . S
C1859 H1846 0.929 . S
C1859 C1851 1.433 . S
C1859 N1861 1.384 . S
N1860 C1856 1.427 . S
N1860 C1857 1.384 . S
N1861 C1853 1.427 . S
N1861 C1859 1.384 . S
H1862 C1868 0.930 1_556 S
H1863 C1872 0.930 . S
H1864 C1877 0.929 . S
H1865 C1875 0.929 . S
H1866 C1870 0.929 . S
H1867 C1876 0.929 1_556 S
C1868 H1862 0.930 1_554 S
C1868 C1869 1.367 . S
C1868 C1876 1.378 . S
C1869 C1868 1.367 . S
C1869 C1877 1.433 . S
C1870 H1866 0.929 . S
C1870 C1872 1.378 1_565 S
C1870 C1874 1.350 . S
C1871 C1874 1.463 . S
C1871 C1876 1.350 . S
C1871 N1879 1.427 . S
C1872 H1863 0.930 . S
C1872 C1870 1.378 1_545 S
C1872 C1873 1.367 . S
C1873 C1872 1.367 . S
C1873 C1875 1.428 1_544 S
C1874 C1870 1.350 . S
C1874 C1871 1.463 . S
C1874 N1878 1.427 . S
C1875 H1865 0.929 . S
C1875 C1873 1.428 1_566 S
C1875 N1878 1.384 1_556 S
C1876 H1867 0.929 1_554 S
C1876 C1868 1.378 . S
C1876 C1871 1.350 . S
C1877 H1864 0.929 . S
C1877 C1869 1.433 . S
C1877 N1879 1.384 . S
N1878 C1874 1.427 . S
N1878 C1875 1.384 1_554 S
N1879 C1871 1.427 . S
N1879 C1877 1.384 . S
H1880 C1886 0.930 . S
H1881 C1890 0.930 . S
H1882 C1895 0.929 . S
H1883 C1893 0.929 . S
H1884 C1888 0.929 . S
H1885 C1894 0.929 . S
C1886 H1880 0.930 . S
C1886 C1887 1.367 . S
C1886 C1894 1.378 . S
C1887 C1886 1.367 . S
C1887 C1895 1.433 . S
C1888 H1884 0.929 . S
C1888 C1890 1.378 . S
C1888 C1892 1.350 . S
C1889 C1892 1.463 . S
C1889 C1894 1.350 . S
C1889 N1897 1.427 . S
C1890 H1881 0.930 . S
C1890 C1888 1.378 . S
C1890 C1891 1.367 . S
C1891 C1890 1.367 . S
C1891 C1893 1.433 . S
C1892 C1888 1.350 . S
C1892 C1889 1.463 . S
C1892 N1896 1.427 . S
C1893 H1883 0.929 . S
C1893 C1891 1.433 . S
C1893 N1896 1.384 . S
C1894 H1885 0.929 . S
C1894 C1886 1.378 . S
C1894 C1889 1.350 . S
C1895 H1882 0.929 . S
C1895 C1887 1.433 . S
C1895 N1897 1.384 . S
N1896 C1892 1.427 . S
N1896 C1893 1.384 . S
N1897 C1889 1.427 . S
N1897 C1895 1.384 . S
H1898 C1904 0.930 . S
H1899 C1908 0.930 1_556 S
H1900 C1913 0.929 . S
H1901 C1911 0.929 . S
H1902 C1906 0.929 1_556 S
H1903 C1912 0.929 . S
C1904 H1898 0.930 . S
C1904 C1905 1.367 . S
C1904 C1912 1.378 . S
C1905 C1904 1.367 . S
C1905 C1913 1.433 1_554 S
C1906 H1902 0.929 1_554 S
C1906 C1908 1.378 . S
C1906 C1910 1.350 . S
C1907 C1910 1.463 . S
C1907 C1912 1.350 . S
C1907 N1915 1.427 1_554 S
C1908 H1899 0.930 1_554 S
C1908 C1906 1.378 . S
C1908 C1909 1.367 . S
C1909 C1908 1.367 . S
C1909 C1911 1.433 . S
C1910 C1906 1.350 . S
C1910 C1907 1.463 . S
C1910 N1914 1.427 . S
C1911 H1901 0.929 . S
C1911 C1909 1.433 . S
C1911 N1914 1.384 . S
C1912 H1903 0.929 . S
C1912 C1904 1.378 . S
C1912 C1907 1.350 . S
C1913 H1900 0.929 . S
C1913 C1905 1.433 1_556 S
C1913 N1915 1.384 . S
N1914 C1910 1.427 . S
N1914 C1911 1.384 . S
N1915 C1907 1.427 1_556 S
N1915 C1913 1.384 . S
H1916 C1922 0.930 . S
H1917 C1926 0.930 . S
H1918 C1931 0.929 . S
H1919 C1929 0.929 . S
H1920 C1924 0.929 . S
H1921 C1930 0.929 . S
C1922 H1916 0.930 . S
C1922 C1923 1.367 . S
C1922 C1930 1.378 . S
C1923 C1922 1.367 . S
C1923 C1931 1.433 . S
C1924 H1920 0.929 . S
C1924 C1926 1.378 . S
C1924 C1928 1.350 . S
C1925 C1928 1.463 . S
C1925 C1930 1.350 . S
C1925 N1933 1.427 . S
C1926 H1917 0.930 . S
C1926 C1924 1.378 . S
C1926 C1927 1.367 . S
C1927 C1926 1.367 . S
C1927 C1929 1.433 . S
C1928 C1924 1.350 . S
C1928 C1925 1.463 . S
C1928 N1932 1.427 . S
C1929 H1919 0.929 . S
C1929 C1927 1.433 . S
C1929 N1932 1.384 . S
C1930 H1921 0.929 . S
C1930 C1922 1.378 . S
C1930 C1925 1.350 . S
C1931 H1918 0.929 . S
C1931 C1923 1.433 . S
C1931 N1933 1.384 . S
N1932 C1928 1.427 . S
N1932 C1929 1.384 . S
N1933 C1925 1.427 . S
N1933 C1931 1.384 . S
H1934 C1940 0.930 . S
H1935 C1944 0.930 . S
H1936 C1949 0.929 1_545 S
H1937 C1947 0.929 . S
H1938 C1942 0.929 . S
H1939 C1948 0.929 . S
C1940 H1934 0.930 . S
C1940 C1941 1.367 . S
C1940 C1948 1.378 . S
C1941 C1940 1.367 . S
C1941 C1949 1.433 . S
C1942 H1938 0.929 . S
C1942 C1944 1.378 . S
C1942 C1946 1.350 . S
C1943 C1946 1.463 . S
C1943 C1948 1.350 . S
C1943 N1951 1.427 . S
C1944 H1935 0.930 . S
C1944 C1942 1.378 . S
C1944 C1945 1.367 . S
C1945 C1944 1.367 . S
C1945 C1947 1.433 . S
C1946 C1942 1.350 . S
C1946 C1943 1.463 . S
C1946 N1950 1.427 . S
C1947 H1937 0.929 . S
C1947 C1945 1.433 . S
C1947 N1950 1.384 . S
C1948 H1939 0.929 . S
C1948 C1940 1.378 . S
C1948 C1943 1.350 . S
C1949 H1936 0.929 1_565 S
C1949 C1941 1.433 . S
C1949 N1951 1.384 . S
N1950 C1946 1.427 . S
N1950 C1947 1.384 . S
N1951 C1943 1.427 . S
N1951 C1949 1.384 . S
H1952 C1958 0.930 . S
H1953 C1962 0.930 . S
H1954 C1967 0.929 . S
H1955 C1965 0.929 . S
H1956 C1960 0.929 . S
H1957 C1966 0.929 . S
C1958 H1952 0.930 . S
C1958 C1959 1.367 . S
C1958 C1966 1.378 . S
C1959 C1958 1.367 . S
C1959 C1967 1.433 . S
C1960 H1956 0.929 . S
C1960 C1962 1.378 . S
C1960 C1964 1.350 . S
C1961 C1964 1.463 . S
C1961 C1966 1.350 . S
C1961 N1969 1.427 . S
C1962 H1953 0.930 . S
C1962 C1960 1.378 . S
C1962 C1963 1.367 . S
C1963 C1962 1.367 . S
C1963 C1965 1.433 . S
C1964 C1960 1.350 . S
C1964 C1961 1.463 . S
C1964 N1968 1.427 . S
C1965 H1955 0.929 . S
C1965 C1963 1.433 . S
C1965 N1968 1.384 . S
C1966 H1957 0.929 . S
C1966 C1958 1.378 . S
C1966 C1961 1.350 . S
C1967 H1954 0.929 . S
C1967 C1959 1.433 . S
C1967 N1969 1.384 . S
N1968 C1964 1.427 . S
N1968 C1965 1.384 . S
N1969 C1961 1.427 . S
N1969 C1967 1.384 . S
H1970 C1976 0.930 . S
H1971 C1980 0.930 . S
H1972 C1985 0.929 . S
H1973 C1983 0.929 . S
H1974 C1978 0.929 . S
H1975 C1984 0.929 . S
C1976 H1970 0.930 . S
C1976 C1977 1.367 . S
C1976 C1984 1.378 . S
C1977 C1976 1.367 . S
C1977 C1985 1.433 . S
C1978 H1974 0.929 . S
C1978 C1980 1.378 . S
C1978 C1982 1.350 . S
C1979 C1982 1.463 . S
C1979 C1984 1.350 . S
C1979 N1987 1.427 . S
C1980 H1971 0.930 . S
C1980 C1978 1.378 . S
C1980 C1981 1.367 . S
C1981 C1980 1.367 . S
C1981 C1983 1.433 . S
C1982 C1978 1.350 . S
C1982 C1979 1.463 . S
C1982 N1986 1.427 . S
C1983 H1973 0.929 . S
C1983 C1981 1.433 . S
C1983 N1986 1.384 . S
C1984 H1975 0.929 . S
C1984 C1976 1.378 . S
C1984 C1979 1.350 . S
C1985 H1972 0.929 . S
C1985 C1977 1.433 . S
C1985 N1987 1.384 . S
N1986 C1982 1.427 . S
N1986 C1983 1.384 . S
N1987 C1979 1.427 . S
N1987 C1985 1.384 . S
H1988 C1994 0.930 . S
H1989 C1998 0.930 . S
H1990 C2003 0.929 . S
H1991 C2001 0.929 . S
H1992 C1996 0.929 . S
H1993 C2002 0.929 . S
C1994 H1988 0.930 . S
C1994 C1995 1.367 1_655 S
C1994 C2002 1.378 . S
C1995 C1994 1.367 1_455 S
C1995 C2003 1.433 . S
C1996 H1992 0.929 . S
C1996 C1998 1.378 . S
C1996 C2000 1.350 . S
C1997 C2000 1.463 . S
C1997 C2002 1.350 1_455 S
C1997 N2005 1.427 . S
C1998 H1989 0.930 . S
C1998 C1996 1.378 . S
C1998 C1999 1.367 . S
C1999 C1998 1.367 . S
C1999 C2001 1.433 1_455 S
C2000 C1996 1.350 . S
C2000 C1997 1.463 . S
C2000 N2004 1.427 1_455 S
C2001 H1991 0.929 . S
C2001 C1999 1.433 1_655 S
C2001 N2004 1.384 . S
C2002 H1993 0.929 . S
C2002 C1994 1.378 . S
C2002 C1997 1.350 1_655 S
C2003 H1990 0.929 . S
C2003 C1995 1.433 . S
C2003 N2005 1.384 . S
N2004 C2000 1.427 1_655 S
N2004 C2001 1.384 . S
N2005 C1997 1.427 . S
N2005 C2003 1.384 . S
H2006 C2012 0.930 . S
H2007 C2016 0.930 . S
H2008 C2021 0.929 . S
H2009 C2019 0.929 . S
H2010 C2014 0.929 . S
H2011 C2020 0.929 . S
C2012 H2006 0.930 . S
C2012 C2013 1.367 . S
C2012 C2020 1.378 . S
C2013 C2012 1.367 . S
C2013 C2021 1.433 . S
C2014 H2010 0.929 . S
C2014 C2016 1.378 . S
C2014 C2018 1.350 . S
C2015 C2018 1.463 . S
C2015 C2020 1.350 . S
C2015 N2023 1.427 . S
C2016 H2007 0.930 . S
C2016 C2014 1.378 . S
C2016 C2017 1.367 . S
C2017 C2016 1.367 . S
C2017 C2019 1.433 . S
C2018 C2014 1.350 . S
C2018 C2015 1.463 . S
C2018 N2022 1.427 . S
C2019 H2009 0.929 . S
C2019 C2017 1.433 . S
C2019 N2022 1.384 . S
C2020 H2011 0.929 . S
C2020 C2012 1.378 . S
C2020 C2015 1.350 . S
C2021 H2008 0.929 . S
C2021 C2013 1.433 . S
C2021 N2023 1.384 . S
N2022 C2018 1.427 . S
N2022 C2019 1.384 . S
N2023 C2015 1.427 . S
N2023 C2021 1.384 . S
H2024 C2030 0.930 . S
H2025 C2034 0.930 . S
H2026 C2039 0.929 . S
H2027 C2037 0.929 1_554 S
H2028 C2032 0.929 . S
H2029 C2038 0.929 . S
C2030 H2024 0.930 . S
C2030 C2031 1.367 . S
C2030 C2038 1.378 . S
C2031 C2030 1.367 . S
C2031 C2039 1.433 . S
C2032 H2028 0.929 . S
C2032 C2034 1.378 . S
C2032 C2036 1.350 . S
C2033 C2036 1.463 . S
C2033 C2038 1.350 . S
C2033 N2041 1.427 . S
C2034 H2025 0.930 . S
C2034 C2032 1.378 . S
C2034 C2035 1.367 . S
C2035 C2034 1.367 . S
C2035 C2037 1.433 . S
C2036 C2032 1.350 . S
C2036 C2033 1.463 . S
C2036 N2040 1.427 . S
C2037 H2027 0.929 1_556 S
C2037 C2035 1.433 . S
C2037 N2040 1.384 . S
C2038 H2029 0.929 . S
C2038 C2030 1.378 . S
C2038 C2033 1.350 . S
C2039 H2026 0.929 . S
C2039 C2031 1.433 . S
C2039 N2041 1.384 . S
N2040 C2036 1.427 . S
N2040 C2037 1.384 . S
N2041 C2033 1.427 . S
N2041 C2039 1.384 . S
H2042 C2048 0.930 . S
H2043 C2052 0.930 . S
H2044 C2057 0.929 . S
H2045 C2055 0.929 . S
H2046 C2050 0.929 . S
H2047 C2056 0.929 . S
C2048 H2042 0.930 . S
C2048 C2049 1.367 . S
C2048 C2056 1.378 . S
C2049 C2048 1.367 . S
C2049 C2057 1.433 . S
C2050 H2046 0.929 . S
C2050 C2052 1.378 . S
C2050 C2054 1.350 . S
C2051 C2054 1.463 . S
C2051 C2056 1.350 . S
C2051 N2059 1.427 . S
C2052 H2043 0.930 . S
C2052 C2050 1.378 . S
C2052 C2053 1.367 . S
C2053 C2052 1.367 . S
C2053 C2055 1.433 . S
C2054 C2050 1.350 . S
C2054 C2051 1.463 . S
C2054 N2058 1.427 . S
C2055 H2045 0.929 . S
C2055 C2053 1.433 . S
C2055 N2058 1.384 . S
C2056 H2047 0.929 . S
C2056 C2048 1.378 . S
C2056 C2051 1.350 . S
C2057 H2044 0.929 . S
C2057 C2049 1.433 . S
C2057 N2059 1.384 . S
N2058 C2054 1.427 . S
N2058 C2055 1.384 . S
N2059 C2051 1.427 . S
N2059 C2057 1.384 . S
H2060 C2066 0.930 . S
H2061 C2070 0.930 . S
H2062 C2075 0.929 . S
H2063 C2073 0.929 . S
H2064 C2068 0.929 . S
H2065 C2074 0.929 . S
C2066 H2060 0.930 . S
C2066 C2067 1.367 . S
C2066 C2074 1.378 . S
C2067 C2066 1.367 . S
C2067 C2075 1.433 . S
C2068 H2064 0.929 . S
C2068 C2070 1.378 . S
C2068 C2072 1.350 . S
C2069 C2072 1.463 . S
C2069 C2074 1.350 . S
C2069 N2077 1.427 . S
C2070 H2061 0.930 . S
C2070 C2068 1.378 . S
C2070 C2071 1.367 . S
C2071 C2070 1.367 . S
C2071 C2073 1.433 . S
C2072 C2068 1.350 . S
C2072 C2069 1.463 . S
C2072 N2076 1.427 . S
C2073 H2063 0.929 . S
C2073 C2071 1.433 . S
C2073 N2076 1.384 . S
C2074 H2065 0.929 . S
C2074 C2066 1.378 . S
C2074 C2069 1.350 . S
C2075 H2062 0.929 . S
C2075 C2067 1.433 . S
C2075 N2077 1.384 . S
N2076 C2072 1.427 . S
N2076 C2073 1.384 . S
N2077 C2069 1.427 . S
N2077 C2075 1.384 . S
H2078 C2084 0.930 . S
H2079 C2088 0.930 . S
H2080 C2093 0.929 . S
H2081 C2091 0.929 . S
H2082 C2086 0.929 . S
H2083 C2092 0.929 . S
C2084 H2078 0.930 . S
C2084 C2085 1.367 . S
C2084 C2092 1.378 . S
C2085 C2084 1.367 . S
C2085 C2093 1.433 . S
C2086 H2082 0.929 . S
C2086 C2088 1.378 . S
C2086 C2090 1.350 . S
C2087 C2090 1.463 . S
C2087 C2092 1.350 . S
C2087 N2095 1.427 . S
C2088 H2079 0.930 . S
C2088 C2086 1.378 . S
C2088 C2089 1.367 . S
C2089 C2088 1.367 . S
C2089 C2091 1.433 . S
C2090 C2086 1.350 . S
C2090 C2087 1.463 . S
C2090 N2094 1.427 . S
C2091 H2081 0.929 . S
C2091 C2089 1.433 . S
C2091 N2094 1.384 . S
C2092 H2083 0.929 . S
C2092 C2084 1.378 . S
C2092 C2087 1.350 . S
C2093 H2080 0.929 . S
C2093 C2085 1.433 . S
C2093 N2095 1.384 . S
N2094 C2090 1.427 . S
N2094 C2091 1.384 . S
N2095 C2087 1.427 . S
N2095 C2093 1.384 . S
H2096 C2102 0.930 . S
H2097 C2106 0.930 . S
H2098 C2111 0.929 . S
H2099 C2109 0.929 . S
H2100 C2104 0.929 . S
H2101 C2110 0.929 . S
C2102 H2096 0.930 . S
C2102 C2103 1.367 . S
C2102 C2110 1.378 . S
C2103 C2102 1.367 . S
C2103 C2111 1.433 . S
C2104 H2100 0.929 . S
C2104 C2106 1.378 . S
C2104 C2108 1.350 . S
C2105 C2108 1.463 . S
C2105 C2110 1.350 . S
C2105 N2113 1.427 . S
C2106 H2097 0.930 . S
C2106 C2104 1.378 . S
C2106 C2107 1.367 . S
C2107 C2106 1.367 . S
C2107 C2109 1.433 . S
C2108 C2104 1.350 . S
C2108 C2105 1.463 . S
C2108 N2112 1.427 . S
C2109 H2099 0.929 . S
C2109 C2107 1.433 . S
C2109 N2112 1.384 . S
C2110 H2101 0.929 . S
C2110 C2102 1.378 . S
C2110 C2105 1.350 . S
C2111 H2098 0.929 . S
C2111 C2103 1.433 . S
C2111 N2113 1.384 . S
N2112 C2108 1.427 . S
N2112 C2109 1.384 . S
N2113 C2105 1.427 . S
N2113 C2111 1.384 . S
H2114 C2120 0.930 . S
H2115 C2124 0.930 . S
H2116 C2129 0.929 . S
H2117 C2127 0.929 . S
H2118 C2122 0.929 . S
H2119 C2128 0.929 . S
C2120 H2114 0.930 . S
C2120 C2121 1.367 . S
C2120 C2128 1.378 . S
C2121 C2120 1.367 . S
C2121 C2129 1.433 . S
C2122 H2118 0.929 . S
C2122 C2124 1.378 . S
C2122 C2126 1.350 . S
C2123 C2126 1.463 . S
C2123 C2128 1.350 . S
C2123 N2131 1.427 . S
C2124 H2115 0.930 . S
C2124 C2122 1.378 . S
C2124 C2125 1.367 . S
C2125 C2124 1.367 . S
C2125 C2127 1.433 . S
C2126 C2122 1.350 . S
C2126 C2123 1.463 . S
C2126 N2130 1.427 . S
C2127 H2117 0.929 . S
C2127 C2125 1.433 . S
C2127 N2130 1.384 . S
C2128 H2119 0.929 . S
C2128 C2120 1.378 . S
C2128 C2123 1.350 . S
C2129 H2116 0.929 . S
C2129 C2121 1.433 . S
C2129 N2131 1.384 . S
N2130 C2126 1.427 . S
N2130 C2127 1.384 . S
N2131 C2123 1.427 . S
N2131 C2129 1.384 . S
H2132 C2138 0.930 . S
H2133 C2142 0.930 . S
H2134 C2147 0.929 . S
H2135 C2145 0.929 . S
H2136 C2140 0.929 . S
H2137 C2146 0.929 . S
C2138 H2132 0.930 . S
C2138 C2139 1.367 . S
C2138 C2146 1.378 . S
C2139 C2138 1.367 . S
C2139 C2147 1.433 . S
C2140 H2136 0.929 . S
C2140 C2142 1.378 . S
C2140 C2144 1.350 . S
C2141 C2144 1.463 . S
C2141 C2146 1.350 . S
C2141 N2149 1.427 . S
C2142 H2133 0.930 . S
C2142 C2140 1.378 . S
C2142 C2143 1.367 . S
C2143 C2142 1.367 . S
C2143 C2145 1.433 . S
C2144 C2140 1.350 . S
C2144 C2141 1.463 . S
C2144 N2148 1.427 . S
C2145 H2135 0.929 . S
C2145 C2143 1.433 . S
C2145 N2148 1.384 . S
C2146 H2137 0.929 . S
C2146 C2138 1.378 . S
C2146 C2141 1.350 . S
C2147 H2134 0.929 . S
C2147 C2139 1.433 . S
C2147 N2149 1.384 . S
N2148 C2144 1.427 . S
N2148 C2145 1.384 . S
N2149 C2141 1.427 . S
N2149 C2147 1.384 . S
H2150 C2156 0.930 . S
H2151 C2160 0.930 . S
H2152 C2165 0.929 . S
H2153 C2163 0.929 . S
H2154 C2158 0.929 . S
H2155 C2164 0.929 . S
C2156 H2150 0.930 . S
C2156 C2157 1.367 . S
C2156 C2164 1.378 . S
C2157 C2156 1.367 . S
C2157 C2165 1.433 . S
C2158 H2154 0.929 . S
C2158 C2160 1.378 . S
C2158 C2162 1.350 . S
C2159 C2162 1.463 . S
C2159 C2164 1.350 . S
C2159 N2167 1.427 . S
C2160 H2151 0.930 . S
C2160 C2158 1.378 . S
C2160 C2161 1.367 . S
C2161 C2160 1.367 . S
C2161 C2163 1.433 . S
C2162 C2158 1.350 . S
C2162 C2159 1.463 . S
C2162 N2166 1.427 . S
C2163 H2153 0.929 . S
C2163 C2161 1.433 . S
C2163 N2166 1.384 . S
C2164 H2155 0.929 . S
C2164 C2156 1.378 . S
C2164 C2159 1.350 . S
C2165 H2152 0.929 . S
C2165 C2157 1.433 . S
C2165 N2167 1.384 . S
N2166 C2162 1.427 . S
N2166 C2163 1.384 . S
N2167 C2159 1.427 . S
N2167 C2165 1.384 . S
H2168 C2174 0.930 . S
H2169 C2178 0.930 . S
H2170 C2183 0.929 . S
H2171 C2181 0.929 . S
H2172 C2176 0.929 . S
H2173 C2182 0.929 . S
C2174 H2168 0.930 . S
C2174 C2175 1.367 . S
C2174 C2182 1.378 . S
C2175 C2174 1.367 . S
C2175 C2183 1.433 . S
C2176 H2172 0.929 . S
C2176 C2178 1.378 . S
C2176 C2180 1.350 . S
C2177 C2180 1.463 . S
C2177 C2182 1.350 . S
C2177 N2185 1.427 . S
C2178 H2169 0.930 . S
C2178 C2176 1.378 . S
C2178 C2179 1.367 . S
C2179 C2178 1.367 . S
C2179 C2181 1.433 . S
C2180 C2176 1.350 . S
C2180 C2177 1.463 . S
C2180 N2184 1.427 . S
C2181 H2171 0.929 . S
C2181 C2179 1.433 . S
C2181 N2184 1.384 . S
C2182 H2173 0.929 . S
C2182 C2174 1.378 . S
C2182 C2177 1.350 . S
C2183 H2170 0.929 . S
C2183 C2175 1.433 . S
C2183 N2185 1.384 . S
N2184 C2180 1.427 . S
N2184 C2181 1.384 . S
N2185 C2177 1.427 . S
N2185 C2183 1.384 . S
H2186 C2192 0.930 . S
H2187 C2196 0.930 . S
H2188 C2201 0.929 . S
H2189 C2199 0.929 . S
H2190 C2194 0.929 . S
H2191 C2200 0.929 . S
C2192 H2186 0.930 . S
C2192 C2193 1.367 . S
C2192 C2200 1.378 . S
C2193 C2192 1.367 . S
C2193 C2201 1.433 . S
C2194 H2190 0.929 . S
C2194 C2196 1.378 . S
C2194 C2198 1.350 . S
C2195 C2198 1.463 . S
C2195 C2200 1.350 . S
C2195 N2203 1.427 . S
C2196 H2187 0.930 . S
C2196 C2194 1.378 . S
C2196 C2197 1.367 . S
C2197 C2196 1.367 . S
C2197 C2199 1.433 . S
C2198 C2194 1.350 . S
C2198 C2195 1.463 . S
C2198 N2202 1.427 . S
C2199 H2189 0.929 . S
C2199 C2197 1.433 . S
C2199 N2202 1.384 . S
C2200 H2191 0.929 . S
C2200 C2192 1.378 . S
C2200 C2195 1.350 . S
C2201 H2188 0.929 . S
C2201 C2193 1.433 . S
C2201 N2203 1.384 . S
N2202 C2198 1.427 . S
N2202 C2199 1.384 . S
N2203 C2195 1.427 . S
N2203 C2201 1.384 . S
H2204 C2210 0.930 . S
H2205 C2214 0.930 1_455 S
H2206 C2219 0.929 . S
H2207 C2217 0.929 . S
H2208 C2212 0.929 . S
H2209 C2218 0.929 . S
C2210 H2204 0.930 . S
C2210 C2211 1.367 . S
C2210 C2218 1.378 . S
C2211 C2210 1.367 . S
C2211 C2219 1.433 . S
C2212 H2208 0.929 . S
C2212 C2214 1.378 . S
C2212 C2216 1.350 . S
C2213 C2216 1.463 . S
C2213 C2218 1.350 . S
C2213 N2221 1.427 . S
C2214 H2205 0.930 1_655 S
C2214 C2212 1.378 . S
C2214 C2215 1.367 . S
C2215 C2214 1.367 . S
C2215 C2217 1.433 . S
C2216 C2212 1.350 . S
C2216 C2213 1.463 . S
C2216 N2220 1.427 . S
C2217 H2207 0.929 . S
C2217 C2215 1.433 . S
C2217 N2220 1.384 . S
C2218 H2209 0.929 . S
C2218 C2210 1.378 . S
C2218 C2213 1.350 . S
C2219 H2206 0.929 . S
C2219 C2211 1.433 . S
C2219 N2221 1.384 . S
N2220 C2216 1.427 . S
N2220 C2217 1.384 . S
N2221 C2213 1.427 . S
N2221 C2219 1.384 . S
H2222 C2228 0.930 . S
H2223 C2232 0.930 . S
H2224 C2237 0.929 . S
H2225 C2235 0.929 . S
H2226 C2230 0.929 . S
H2227 C2236 0.929 . S
C2228 H2222 0.930 . S
C2228 C2229 1.367 . S
C2228 C2236 1.378 . S
C2229 C2228 1.367 . S
C2229 C2237 1.433 . S
C2230 H2226 0.929 . S
C2230 C2232 1.378 . S
C2230 C2234 1.350 . S
C2231 C2234 1.463 . S
C2231 C2236 1.350 . S
C2231 N2239 1.427 . S
C2232 H2223 0.930 . S
C2232 C2230 1.378 . S
C2232 C2233 1.367 . S
C2233 C2232 1.367 . S
C2233 C2235 1.433 . S
C2234 C2230 1.350 . S
C2234 C2231 1.463 . S
C2234 N2238 1.427 . S
C2235 H2225 0.929 . S
C2235 C2233 1.433 . S
C2235 N2238 1.384 . S
C2236 H2227 0.929 . S
C2236 C2228 1.378 . S
C2236 C2231 1.350 . S
C2237 H2224 0.929 . S
C2237 C2229 1.433 . S
C2237 N2239 1.384 . S
N2238 C2234 1.427 . S
N2238 C2235 1.384 . S
N2239 C2231 1.427 . S
N2239 C2237 1.384 . S
H2240 C2246 0.930 . S
H2241 C2250 0.930 . S
H2242 C2255 0.929 . S
H2243 C2253 0.929 . S
H2244 C2248 0.929 . S
H2245 C2254 0.929 . S
C2246 H2240 0.930 . S
C2246 C2247 1.367 . S
C2246 C2254 1.378 . S
C2247 C2246 1.367 . S
C2247 C2255 1.433 . S
C2248 H2244 0.929 . S
C2248 C2250 1.378 . S
C2248 C2252 1.350 . S
C2249 C2252 1.463 . S
C2249 C2254 1.350 . S
C2249 N2257 1.427 . S
C2250 H2241 0.930 . S
C2250 C2248 1.378 . S
C2250 C2251 1.367 . S
C2251 C2250 1.367 . S
C2251 C2253 1.433 . S
C2252 C2248 1.350 . S
C2252 C2249 1.463 . S
C2252 N2256 1.427 . S
C2253 H2243 0.929 . S
C2253 C2251 1.433 . S
C2253 N2256 1.384 . S
C2254 H2245 0.929 . S
C2254 C2246 1.378 . S
C2254 C2249 1.350 . S
C2255 H2242 0.929 . S
C2255 C2247 1.433 . S
C2255 N2257 1.384 . S
N2256 C2252 1.427 . S
N2256 C2253 1.384 . S
N2257 C2249 1.427 . S
N2257 C2255 1.384 . S
H2258 C2264 0.930 . S
H2259 C2268 0.930 . S
H2260 C2273 0.929 . S
H2261 C2271 0.929 . S
H2262 C2266 0.929 . S
H2263 C2272 0.929 . S
C2264 H2258 0.930 . S
C2264 C2265 1.367 . S
C2264 C2272 1.378 . S
C2265 C2264 1.367 . S
C2265 C2273 1.433 . S
C2266 H2262 0.929 . S
C2266 C2268 1.378 . S
C2266 C2270 1.350 . S
C2267 C2270 1.463 . S
C2267 C2272 1.350 . S
C2267 N2275 1.427 . S
C2268 H2259 0.930 . S
C2268 C2266 1.378 . S
C2268 C2269 1.367 . S
C2269 C2268 1.367 . S
C2269 C2271 1.433 1_565 S
C2270 C2266 1.350 . S
C2270 C2267 1.463 . S
C2270 N2274 1.423 . S
C2271 H2261 0.929 . S
C2271 C2269 1.433 1_545 S
C2271 N2274 1.385 1_545 S
C2272 H2263 0.929 . S
C2272 C2264 1.378 . S
C2272 C2267 1.350 . S
C2273 H2260 0.929 . S
C2273 C2265 1.433 . S
C2273 N2275 1.384 . S
N2274 C2270 1.423 . S
N2274 C2271 1.385 1_565 S
N2275 C2267 1.427 . S
N2275 C2273 1.384 . S
H2276 C2282 0.930 . S
H2277 C2286 0.930 . S
H2278 C2291 0.929 . S
H2279 C2289 0.929 . S
H2280 C2284 0.929 . S
H2281 C2290 0.929 . S
C2282 H2276 0.930 . S
C2282 C2283 1.367 . S
C2282 C2290 1.378 . S
C2283 C2282 1.367 . S
C2283 C2291 1.433 . S
C2284 H2280 0.929 . S
C2284 C2286 1.378 . S
C2284 C2288 1.350 . S
C2285 C2288 1.463 . S
C2285 C2290 1.350 . S
C2285 N2293 1.427 . S
C2286 H2277 0.930 . S
C2286 C2284 1.378 . S
C2286 C2287 1.367 . S
C2287 C2286 1.367 . S
C2287 C2289 1.433 . S
C2288 C2284 1.350 . S
C2288 C2285 1.463 . S
C2288 N2292 1.427 . S
C2289 H2279 0.929 . S
C2289 C2287 1.433 . S
C2289 N2292 1.384 . S
C2290 H2281 0.929 . S
C2290 C2282 1.378 . S
C2290 C2285 1.350 . S
C2291 H2278 0.929 . S
C2291 C2283 1.433 . S
C2291 N2293 1.384 . S
N2292 C2288 1.427 . S
N2292 C2289 1.384 . S
N2293 C2285 1.427 . S
N2293 C2291 1.384 . S
H2294 C2300 0.930 . S
H2295 C2304 0.930 . S
H2296 C2309 0.929 . S
H2297 C2307 0.929 . S
H2298 C2302 0.929 . S
H2299 C2308 0.929 . S
C2300 H2294 0.930 . S
C2300 C2301 1.352 1_554 S
C2300 C2308 1.378 . S
C2301 C2300 1.352 1_556 S
C2301 C2309 1.444 . S
C2302 H2298 0.929 . S
C2302 C2304 1.378 . S
C2302 C2306 1.350 1_556 S
C2303 C2306 1.463 . S
C2303 C2308 1.350 . S
C2303 N2311 1.427 1_554 S
C2304 H2295 0.930 . S
C2304 C2302 1.378 . S
C2304 C2305 1.367 1_556 S
C2305 C2304 1.367 1_554 S
C2305 C2307 1.433 . S
C2306 C2302 1.350 1_554 S
C2306 C2303 1.463 . S
C2306 N2310 1.427 . S
C2307 H2297 0.929 . S
C2307 C2305 1.433 . S
C2307 N2310 1.384 . S
C2308 H2299 0.929 . S
C2308 C2300 1.378 . S
C2308 C2303 1.350 . S
C2309 H2296 0.929 . S
C2309 C2301 1.444 . S
C2309 N2311 1.384 . S
N2310 C2306 1.427 . S
N2310 C2307 1.384 . S
N2311 C2303 1.427 1_556 S
N2311 C2309 1.384 . S
H2312 C2318 0.930 . S
H2313 C2322 0.930 . S
H2314 C2327 0.929 . S
H2315 C2325 0.929 . S
H2316 C2320 0.929 . S
H2317 C2326 0.929 . S
C2318 H2312 0.930 . S
C2318 C2319 1.367 . S
C2318 C2326 1.378 . S
C2319 C2318 1.367 . S
C2319 C2327 1.433 . S
C2320 H2316 0.929 . S
C2320 C2322 1.378 . S
C2320 C2324 1.350 . S
C2321 C2324 1.463 . S
C2321 C2326 1.350 . S
C2321 N2329 1.427 . S
C2322 H2313 0.930 . S
C2322 C2320 1.378 . S
C2322 C2323 1.367 . S
C2323 C2322 1.367 . S
C2323 C2325 1.433 . S
C2324 C2320 1.350 . S
C2324 C2321 1.463 . S
C2324 N2328 1.427 . S
C2325 H2315 0.929 . S
C2325 C2323 1.433 . S
C2325 N2328 1.384 . S
C2326 H2317 0.929 . S
C2326 C2318 1.378 . S
C2326 C2321 1.350 . S
C2327 H2314 0.929 . S
C2327 C2319 1.433 . S
C2327 N2329 1.384 . S
N2328 C2324 1.427 . S
N2328 C2325 1.384 . S
N2329 C2321 1.427 . S
N2329 C2327 1.384 . S
H2330 C2336 0.930 . S
H2331 C2340 0.930 . S
H2332 C2345 0.929 1_556 S
H2333 C2343 0.929 . S
H2334 C2338 0.929 . S
H2335 C2344 0.929 . S
C2336 H2330 0.930 . S
C2336 C2337 1.367 . S
C2336 C2344 1.378 . S
C2337 C2336 1.367 . S
C2337 C2345 1.433 . S
C2338 H2334 0.929 . S
C2338 C2340 1.378 . S
C2338 C2342 1.350 1_556 S
C2339 C2342 1.463 . S
C2339 C2344 1.350 . S
C2339 N2347 1.424 1_554 S
C2340 H2331 0.930 . S
C2340 C2338 1.378 . S
C2340 C2341 1.367 . S
C2341 C2340 1.367 . S
C2341 C2343 1.433 1_556 S
C2342 C2338 1.350 1_554 S
C2342 C2339 1.463 . S
C2342 N2346 1.427 . S
C2343 H2333 0.929 . S
C2343 C2341 1.433 1_554 S
C2343 N2346 1.384 . S
C2344 H2335 0.929 . S
C2344 C2336 1.378 . S
C2344 C2339 1.350 . S
C2345 H2332 0.929 1_554 S
C2345 C2337 1.433 . S
C2345 N2347 1.381 1_554 S
N2346 C2342 1.427 . S
N2346 C2343 1.384 . S
N2347 C2339 1.424 1_556 S
N2347 C2345 1.381 1_556 S
H2348 C2354 0.930 . S
H2349 C2358 0.930 . S
H2350 C2363 0.929 . S
H2351 C2361 0.929 . S
H2352 C2356 0.929 . S
H2353 C2362 0.929 . S
C2354 H2348 0.930 . S
C2354 C2355 1.367 . S
C2354 C2362 1.378 . S
C2355 C2354 1.367 . S
C2355 C2363 1.433 . S
C2356 H2352 0.929 . S
C2356 C2358 1.378 . S
C2356 C2360 1.350 . S
C2357 C2360 1.463 . S
C2357 C2362 1.350 . S
C2357 N2365 1.427 . S
C2358 H2349 0.930 . S
C2358 C2356 1.378 . S
C2358 C2359 1.367 . S
C2359 C2358 1.367 . S
C2359 C2361 1.433 . S
C2360 C2356 1.350 . S
C2360 C2357 1.463 . S
C2360 N2364 1.427 . S
C2361 H2351 0.929 . S
C2361 C2359 1.433 . S
C2361 N2364 1.384 . S
C2362 H2353 0.929 . S
C2362 C2354 1.378 . S
C2362 C2357 1.350 . S
C2363 H2350 0.929 . S
C2363 C2355 1.433 . S
C2363 N2365 1.384 . S
N2364 C2360 1.427 . S
N2364 C2361 1.384 . S
N2365 C2357 1.427 . S
N2365 C2363 1.384 . S
H2366 C2372 0.930 . S
H2367 C2376 0.930 . S
H2368 C2381 0.929 . S
H2369 C2379 0.929 . S
H2370 C2374 0.929 . S
H2371 C2380 0.929 . S
C2372 H2366 0.930 . S
C2372 C2373 1.367 . S
C2372 C2380 1.378 . S
C2373 C2372 1.367 . S
C2373 C2381 1.433 . S
C2374 H2370 0.929 . S
C2374 C2376 1.378 . S
C2374 C2378 1.350 . S
C2375 C2378 1.463 . S
C2375 C2380 1.350 . S
C2375 N2383 1.427 . S
C2376 H2367 0.930 . S
C2376 C2374 1.378 . S
C2376 C2377 1.367 . S
C2377 C2376 1.367 . S
C2377 C2379 1.433 . S
C2378 C2374 1.350 . S
C2378 C2375 1.463 . S
C2378 N2382 1.427 . S
C2379 H2369 0.929 . S
C2379 C2377 1.433 . S
C2379 N2382 1.384 . S
C2380 H2371 0.929 . S
C2380 C2372 1.378 . S
C2380 C2375 1.350 . S
C2381 H2368 0.929 . S
C2381 C2373 1.433 . S
C2381 N2383 1.384 . S
N2382 C2378 1.427 . S
N2382 C2379 1.384 . S
N2383 C2375 1.427 . S
N2383 C2381 1.384 . S
C663 C109 1.131 . S
C667 C352 1.104 . S
C681 C61 1.106 . S
C685 C365 1.254 . S
C699 C74 1.280 . S
C703 C384 1.311 . S
C721 C415 1.900 . S
C717 C96 1.956 . S
C735 C25 1.628 1_455 S
C739 C435 1.612 . S
C757 C452 0.818 . S
C753 C40 0.810 . S
C775 C465 1.487 . S
C771 C46 1.484 . S
C789 C5 0.863 . S
C793 C492 0.929 . S
C811 C345 1.057 . S
C807 C229 0.927 . S
C825 C249 1.442 . S
C829 C375 1.400 . S
C847 C377 1.568 . S
C843 C271 1.453 . S
C865 C412 0.945 . S
C861 C172 0.918 . S
C879 C236 1.082 . S
C883 C432 1.089 . S
C901 C445 1.900 . S
C897 C242 1.909 . S
C919 C475 1.182 . S
C915 C278 1.216 . S
C937 C485 1.239 . S
C933 C179 1.239 . S
C955 C355 1.534 1_565 S
C951 C159 1.352 . S
C969 C285 1.504 . S
C973 C505 1.677 . S
C991 C535 1.457 . S
C987 C333 1.474 . S
C1009 C552 1.147 . S
C1005 C320 1.165 . S
C1023 C123 1.805 . S
C1027 C495 1.776 . S
C1041 C138 1.248 . S
C1045 C382 1.209 . S
C1059 C326 1.942 . S
C1063 C565 1.936 . S
C1081 C592 0.978 . S
C1077 C298 0.978 . S
C1099 C342 1.098 . S
C1095 C67 1.127 . S
C1117 C577 1.223 . S
C1113 C110 1.237 . S
C1131 C88 1.321 . S
C1135 C395 1.307 . S
C1149 C75 1.591 . S
C1153 C564 1.832 . S
C1171 C424 1.562 1_455 S
C1167 C11 1.589 . S
C1185 C47 0.811 . S
C1189 C522 0.826 . S
C1207 C457 1.424 . S
C1203 C32 1.381 . S
C1225 C602 0.954 . S
C1221 C26 0.982 . S
C1243 C337 1.162 . S
C1239 C152 1.177 . S
C1261 C584 1.400 . S
C1257 C319 1.412 . S
C1275 C124 1.596 . S
C1279 C385 1.565 . S
C1293 C284 0.957 . S
C1297 C562 0.949 . S
C1311 C145 0.994 . S
C1315 C422 1.058 . S
C1333 C517 1.815 . S
C1329 C312 1.755 . S
C1347 C117 0.959 . S
C1351 C464 1.064 . S
C1365 C291 1.163 . S
C1369 C597 1.146 . S
C1383 C194 1.605 . S
C1387 C344 1.566 . S
C1401 C180 1.687 . S
C1405 C497 1.664 . S
C1419 C263 1.336 . S
C1423 C444 1.345 . S
C1437 C243 0.979 . S
C1441 C542 1.075 . S
C1459 C604 1.809 . S
C1455 C277 1.828 . S
C1473 C215 1.074 . S
C1477 C392 1.151 1_565 S
C1495 C397 1.855 . S
C1491 C256 1.810 . S
C1513 C362 1.039 . S
C1509 C200 1.052 . S
C1527 C81 1.140 . S
C1531 C632 1.120 . S
C1549 C585 1.254 . S
C1545 C89 1.120 . S
C1563 C102 1.277 . S
C1567 C644 1.308 1_455 S
C1581 C68 1.954 . S
C1585 C575 1.899 . S
C1599 C53 1.632 . S
C1603 C515 1.602 . S
C1621 C532 0.813 . S
C1617 C12 0.813 . S
C1639 C545 1.479 1_655 S
C1635 C18 1.481 . S
C1657 C612 0.939 . S
C1653 C33 0.862 . S
C1675 C625 1.065 . S
C1671 C257 0.966 . S
C1689 C193 1.441 . S
C1693 C595 1.385 . S
C1711 C637 1.565 . S
C1707 C201 1.456 . S
C1729 C572 0.949 . S
C1725 C214 0.914 . S
C1747 C512 1.087 . S
C1743 C264 1.083 . S
C1761 C186 1.909 . S
C1765 C525 1.900 . S
C1783 C555 1.180 . S
C1779 C208 1.216 . S
C1797 C221 1.245 . S
C1801 C605 1.226 . S
C1819 C635 1.555 . S
C1815 C313 1.348 . S
C1833 C131 1.486 . S
C1837 C425 1.680 . S
C1855 C455 1.457 . S
C1851 C151 1.477 . S
C1873 C472 1.160 . S
C1869 C166 1.160 . S
C1891 C615 1.778 . S
C1887 C305 1.803 . S
C1905 C292 1.244 . S
C1909 C642 1.189 . S
C1927 C405 1.940 . S
C1923 C144 1.942 . S
C1945 C372 0.977 . S
C1941 C116 0.978 1_565 S
C1959 C95 1.118 . S
C1963 C622 1.108 . S
C1981 C357 1.211 . S
C1977 C82 1.234 . S
C1995 C60 1.302 1_455 S
C1999 C655 1.295 . S
C2013 C103 1.572 . S
C2017 C404 1.827 . S
C2031 C39 1.584 . S
C2035 C504 1.572 1_556 S
C2053 C442 0.827 . S
C2049 C19 0.814 . S
C2067 C4 1.378 . S
C2071 C537 1.423 . S
C2085 C54 0.980 . S
C2089 C482 0.967 . S
C2107 C617 1.162 . S
C2103 C334 1.177 . S
C2121 C165 1.403 . S
C2125 C364 1.408 . S
C2143 C645 1.553 . S
C2139 C306 1.594 . S
C2157 C130 0.961 . S
C2161 C402 0.952 . S
C2175 C327 0.965 . S
C2179 C502 1.050 . S
C2197 C437 1.818 . S
C2193 C158 1.743 . S
C2211 C299 0.992 . S
C2215 C544 1.047 . S
C2233 C477 1.147 . S
C2229 C137 1.164 . S
C2251 C624 1.570 . S
C2247 C250 1.606 . S
C2269 C417 1.669 1_565 S
C2265 C222 1.689 . S
C2283 C235 1.341 . S
C2287 C524 1.340 . S
C2305 C462 1.086 . S
C2301 C187 1.017 . S
C2319 C207 1.827 . S
C2323 C484 1.817 . S
C2337 C173 1.043 . S
C2341 C652 1.167 . S
C2359 C557 1.858 . S
C2355 C228 1.800 1_565 S
C2377 C582 1.039 . S
C2373 C270 1.052 . S
