# Generated by pormake.
# Topology eea, (3,6)-cn, num edge types: 1
# Building blocks:
#     Node 0, Type 0, BuildingBlock: WUSLED_clean_sbu_0, # of connection points: 3
#     Node 1, Type 0, BuildingBlock: WUSLED_clean_sbu_0, # of connection points: 3
#     Node 2, Type 0, BuildingBlock: WUSLED_clean_sbu_0, # of connection points: 3
#     Node 3, Type 0, BuildingBlock: WUSLED_clean_sbu_0, # of connection points: 3
#     Node 4, Type 0, BuildingBlock: WUSLED_clean_sbu_0, # of connection points: 3
#     Node 5, Type 0, BuildingBlock: WUSLED_clean_sbu_0, # of connection points: 3
#     Node 6, Type 0, BuildingBlock: WUSLED_clean_sbu_0, # of connection points: 3
#     Node 7, Type 0, BuildingBlock: WUSLED_clean_sbu_0, # of connection points: 3
#     Node 8, Type 0, BuildingBlock: WUSLED_clean_sbu_0, # of connection points: 3
#     Node 9, Type 0, BuildingBlock: WUSLED_clean_sbu_0, # of connection points: 3
#     Node 10, Type 0, BuildingBlock: WUSLED_clean_sbu_0, # of connection points: 3
#     Node 11, Type 0, BuildingBlock: WUSLED_clean_sbu_0, # of connection points: 3
#     Node 12, Type 0, BuildingBlock: WUSLED_clean_sbu_0, # of connection points: 3
#     Node 13, Type 0, BuildingBlock: WUSLED_clean_sbu_0, # of connection points: 3
#     Node 14, Type 0, BuildingBlock: WUSLED_clean_sbu_0, # of connection points: 3
#     Node 15, Type 0, BuildingBlock: WUSLED_clean_sbu_0, # of connection points: 3
#     Node 16, Type 0, BuildingBlock: WUSLED_clean_sbu_0, # of connection points: 3
#     Node 17, Type 0, BuildingBlock: WUSLED_clean_sbu_0, # of connection points: 3
#     Node 18, Type 1, BuildingBlock: HISSIN_clean_sbu_0, # of connection points: 6
#     Node 19, Type 1, BuildingBlock: HISSIN_clean_sbu_0, # of connection points: 6
#     Node 20, Type 1, BuildingBlock: HISSIN_clean_sbu_0, # of connection points: 6
#     Node 21, Type 1, BuildingBlock: HISSIN_clean_sbu_0, # of connection points: 6
#     Node 22, Type 1, BuildingBlock: HISSIN_clean_sbu_0, # of connection points: 6
#     Node 23, Type 1, BuildingBlock: HISSIN_clean_sbu_0, # of connection points: 6
#     Node 24, Type 1, BuildingBlock: HISSIN_clean_sbu_0, # of connection points: 6
#     Node 25, Type 1, BuildingBlock: HISSIN_clean_sbu_0, # of connection points: 6
#     Node 26, Type 1, BuildingBlock: HISSIN_clean_sbu_0, # of connection points: 6
#     Edge 27, Type (0, 1), BuildingBlock: ZUJKAS_clean_linker_0, # of connection points: 2
#     Edge 28, Type (0, 1), BuildingBlock: ZUJKAS_clean_linker_0, # of connection points: 2
#     Edge 29, Type (0, 1), BuildingBlock: ZUJKAS_clean_linker_0, # of connection points: 2
#     Edge 30, Type (0, 1), BuildingBlock: ZUJKAS_clean_linker_0, # of connection points: 2
#     Edge 31, Type (0, 1), BuildingBlock: ZUJKAS_clean_linker_0, # of connection points: 2
#     Edge 32, Type (0, 1), BuildingBlock: ZUJKAS_clean_linker_0, # of connection points: 2
#     Edge 33, Type (0, 1), BuildingBlock: ZUJKAS_clean_linker_0, # of connection points: 2
#     Edge 34, Type (0, 1), BuildingBlock: ZUJKAS_clean_linker_0, # of connection points: 2
#     Edge 35, Type (0, 1), BuildingBlock: ZUJKAS_clean_linker_0, # of connection points: 2
#     Edge 36, Type (0, 1), BuildingBlock: ZUJKAS_clean_linker_0, # of connection points: 2
#     Edge 37, Type (0, 1), BuildingBlock: ZUJKAS_clean_linker_0, # of connection points: 2
#     Edge 38, Type (0, 1), BuildingBlock: ZUJKAS_clean_linker_0, # of connection points: 2
#     Edge 39, Type (0, 1), BuildingBlock: ZUJKAS_clean_linker_0, # of connection points: 2
#     Edge 40, Type (0, 1), BuildingBlock: ZUJKAS_clean_linker_0, # of connection points: 2
#     Edge 41, Type (0, 1), BuildingBlock: ZUJKAS_clean_linker_0, # of connection points: 2
#     Edge 42, Type (0, 1), BuildingBlock: ZUJKAS_clean_linker_0, # of connection points: 2
#     Edge 43, Type (0, 1), BuildingBlock: ZUJKAS_clean_linker_0, # of connection points: 2
#     Edge 44, Type (0, 1), BuildingBlock: ZUJKAS_clean_linker_0, # of connection points: 2
#     Edge 45, Type (0, 1), BuildingBlock: ZUJKAS_clean_linker_0, # of connection points: 2
#     Edge 46, Type (0, 1), BuildingBlock: ZUJKAS_clean_linker_0, # of connection points: 2
#     Edge 47, Type (0, 1), BuildingBlock: ZUJKAS_clean_linker_0, # of connection points: 2
#     Edge 48, Type (0, 1), BuildingBlock: ZUJKAS_clean_linker_0, # of connection points: 2
#     Edge 49, Type (0, 1), BuildingBlock: ZUJKAS_clean_linker_0, # of connection points: 2
#     Edge 50, Type (0, 1), BuildingBlock: ZUJKAS_clean_linker_0, # of connection points: 2
#     Edge 51, Type (0, 1), BuildingBlock: ZUJKAS_clean_linker_0, # of connection points: 2
#     Edge 52, Type (0, 1), BuildingBlock: ZUJKAS_clean_linker_0, # of connection points: 2
#     Edge 53, Type (0, 1), BuildingBlock: ZUJKAS_clean_linker_0, # of connection points: 2
#     Edge 54, Type (0, 1), BuildingBlock: ZUJKAS_clean_linker_0, # of connection points: 2
#     Edge 55, Type (0, 1), BuildingBlock: ZUJKAS_clean_linker_0, # of connection points: 2
#     Edge 56, Type (0, 1), BuildingBlock: ZUJKAS_clean_linker_0, # of connection points: 2
#     Edge 57, Type (0, 1), BuildingBlock: ZUJKAS_clean_linker_0, # of connection points: 2
#     Edge 58, Type (0, 1), BuildingBlock: ZUJKAS_clean_linker_0, # of connection points: 2
#     Edge 59, Type (0, 1), BuildingBlock: ZUJKAS_clean_linker_0, # of connection points: 2
#     Edge 60, Type (0, 1), BuildingBlock: ZUJKAS_clean_linker_0, # of connection points: 2
#     Edge 61, Type (0, 1), BuildingBlock: ZUJKAS_clean_linker_0, # of connection points: 2
#     Edge 62, Type (0, 1), BuildingBlock: ZUJKAS_clean_linker_0, # of connection points: 2
#     Edge 63, Type (0, 1), BuildingBlock: ZUJKAS_clean_linker_0, # of connection points: 2
#     Edge 64, Type (0, 1), BuildingBlock: ZUJKAS_clean_linker_0, # of connection points: 2
#     Edge 65, Type (0, 1), BuildingBlock: ZUJKAS_clean_linker_0, # of connection points: 2
#     Edge 66, Type (0, 1), BuildingBlock: ZUJKAS_clean_linker_0, # of connection points: 2
#     Edge 67, Type (0, 1), BuildingBlock: ZUJKAS_clean_linker_0, # of connection points: 2
#     Edge 68, Type (0, 1), BuildingBlock: ZUJKAS_clean_linker_0, # of connection points: 2
#     Edge 69, Type (0, 1), BuildingBlock: ZUJKAS_clean_linker_0, # of connection points: 2
#     Edge 70, Type (0, 1), BuildingBlock: ZUJKAS_clean_linker_0, # of connection points: 2
#     Edge 71, Type (0, 1), BuildingBlock: ZUJKAS_clean_linker_0, # of connection points: 2
#     Edge 72, Type (0, 1), BuildingBlock: ZUJKAS_clean_linker_0, # of connection points: 2
#     Edge 73, Type (0, 1), BuildingBlock: ZUJKAS_clean_linker_0, # of connection points: 2
#     Edge 74, Type (0, 1), BuildingBlock: ZUJKAS_clean_linker_0, # of connection points: 2
#     Edge 75, Type (0, 1), BuildingBlock: ZUJKAS_clean_linker_0, # of connection points: 2
#     Edge 76, Type (0, 1), BuildingBlock: ZUJKAS_clean_linker_0, # of connection points: 2
#     Edge 77, Type (0, 1), BuildingBlock: ZUJKAS_clean_linker_0, # of connection points: 2
#     Edge 78, Type (0, 1), BuildingBlock: ZUJKAS_clean_linker_0, # of connection points: 2
#     Edge 79, Type (0, 1), BuildingBlock: ZUJKAS_clean_linker_0, # of connection points: 2
#     Edge 80, Type (0, 1), BuildingBlock: ZUJKAS_clean_linker_0, # of connection points: 2
# Relax obj value: 0.035
# Max RMSD: 0.130
# Mean RMSD: 0.068
data_MOF--net-eea--node1-WUSLED_clean_sbu_0--node2-HISSIN_clean_sbu_0--edge1-ZUJKAS_clean_linker_0
_symmetry_space_group_name_H-M    P1
_symmetry_Int_Tables_number       1
_symmetry_cell_setting            triclinic
loop_
_symmetry_equiv_pos_as_xyz
'x, y, z'
_cell_length_a     82.453087
_cell_length_b     82.81037
_cell_length_c     110.99662
_cell_angle_alpha  93.156153
_cell_angle_beta   93.535183
_cell_angle_gamma 119.70363
loop_
_atom_site_label
_atom_site_type_symbol
_atom_site_fract_x
_atom_site_fract_y
_atom_site_fract_z
_atom_type_partial_charge
C0 C 0.26678 0.16943 0.398 0.0
C1 C 0.26415 0.18139 0.40607 0.0
C2 C 0.25722 0.19523 0.38909 0.0
C3 C 0.25938 0.19415 0.40165 0.0
C4 C 0.26042 0.18354 0.38108 0.0
C5 C 0.26512 0.17075 0.38551 0.0
U6 U 0.28198 0.14868 0.42327 0.0
O7 O 0.26912 0.11964 0.42771 0.0
O8 O 0.29792 0.13382 0.4226 0.0
C9 C 0.28358 0.11802 0.42504 0.0
C10 C 0.27046 0.15502 0.40242 0.0
C11 C 0.27892 0.10142 0.41687 0.0
C12 C 0.26552 0.08257 0.3975 0.0
C13 C 0.27114 0.09911 0.40486 0.0
C14 C 0.27579 0.07072 0.41402 0.0
C15 C 0.26761 0.06808 0.40204 0.0
C16 C 0.28138 0.08723 0.42135 0.0
C17 C 0.29691 0.1728 0.45544 0.0
C18 C 0.30522 0.15907 0.47181 0.0
C19 C 0.30372 0.18728 0.47612 0.0
C20 C 0.29877 0.18705 0.46381 0.0
C21 C 0.30689 0.17323 0.48029 0.0
C22 C 0.30023 0.15884 0.45949 0.0
C23 C 0.29091 0.17231 0.44261 0.0
O24 O 0.28814 0.16037 0.40566 0.0
O25 O 0.25902 0.14458 0.41006 0.0
O26 O 0.2736 0.15921 0.43892 0.0
O27 O 0.30296 0.17379 0.43491 0.0
H28 H 0.26541 0.18057 0.41576 0.0
H29 H 0.25684 0.20277 0.40808 0.0
H30 H 0.25921 0.18422 0.37137 0.0
H31 H 0.2672 0.16168 0.37916 0.0
H32 H 0.25945 0.08107 0.38829 0.0
H33 H 0.26913 0.10997 0.40127 0.0
H34 H 0.27733 0.05977 0.41789 0.0
H35 H 0.28726 0.08875 0.43062 0.0
H36 H 0.30736 0.14794 0.47472 0.0
H37 H 0.30515 0.19853 0.48238 0.0
H38 H 0.29626 0.19793 0.46083 0.0
H39 H 0.29874 0.14766 0.45313 0.0
C40 C 0.92886 0.17345 0.40555 0.0
C41 C 0.9439 0.1865 0.41381 0.0
C42 C 0.96321 0.19946 0.39717 0.0
C43 C 0.96093 0.19939 0.40966 0.0
C44 C 0.94788 0.18656 0.38896 0.0
C45 C 0.93093 0.17373 0.39311 0.0
U46 U 0.89251 0.15144 0.42883 0.0
O47 O 0.86164 0.1353 0.42548 0.0
O48 O 0.87706 0.12209 0.43273 0.0
C49 C 0.8607 0.1198 0.42862 0.0
C50 C 0.91121 0.15883 0.40959 0.0
C51 C 0.84865 0.1028 0.42036 0.0
C52 C 0.843 0.08248 0.40202 0.0
C53 C 0.85441 0.09929 0.40936 0.0
C54 C 0.81992 0.07275 0.41653 0.0
C55 C 0.82564 0.06893 0.40556 0.0
C56 C 0.83131 0.0895 0.42383 0.0
C57 C 0.89914 0.17523 0.46076 0.0
C58 C 0.87547 0.16268 0.47498 0.0
C59 C 0.90644 0.1887 0.48176 0.0
C60 C 0.91182 0.1884 0.47007 0.0
C61 C 0.88822 0.17579 0.4844 0.0
C62 C 0.8809 0.16236 0.46328 0.0
C63 C 0.90532 0.17491 0.44859 0.0
O64 O 0.91296 0.14919 0.41809 0.0
O65 O 0.8982 0.16328 0.41122 0.0
O66 O 0.89487 0.17585 0.43952 0.0
O67 O 0.91042 0.16245 0.4462 0.0
H68 H 0.94257 0.18656 0.42346 0.0
H69 H 0.97231 0.20926 0.41625 0.0
H70 H 0.94913 0.18597 0.37931 0.0
H71 H 0.91951 0.16371 0.38659 0.0
H72 H 0.84776 0.08011 0.39357 0.0
H73 H 0.86778 0.10944 0.40653 0.0
H74 H 0.80685 0.06258 0.41968 0.0
H75 H 0.82668 0.09193 0.43233 0.0
H76 H 0.8614 0.15241 0.4767 0.0
H77 H 0.91655 0.19916 0.48871 0.0
H78 H 0.92595 0.19846 0.4683 0.0
H79 H 0.87092 0.15199 0.45622 0.0
C80 C 0.86897 0.77652 0.41226 0.0
C81 C 0.86036 0.78241 0.4206 0.0
C82 C 0.83999 0.78357 0.40412 0.0
C83 C 0.84605 0.78593 0.41657 0.0
C84 C 0.84838 0.77719 0.39586 0.0
C85 C 0.86272 0.77377 0.39989 0.0
U86 U 0.89615 0.76194 0.43456 0.0
O87 O 0.91174 0.74737 0.43061 0.0
O88 O 0.92657 0.77571 0.43992 0.0
C89 C 0.92804 0.76182 0.43488 0.0
C90 C 0.88493 0.77386 0.4161 0.0
C91 C 0.94351 0.76704 0.42714 0.0
C92 C 0.9575 0.77721 0.40831 0.0
C93 C 0.9425 0.77227 0.41541 0.0
C94 C 0.97463 0.77179 0.42458 0.0
C95 C 0.97378 0.77702 0.41279 0.0
C96 C 0.95966 0.76686 0.43164 0.0
C97 C 0.87462 0.74277 0.46443 0.0
C98 C 0.88979 0.73807 0.48236 0.0
C99 C 0.8565 0.72731 0.48091 0.0
C100 C 0.85751 0.73393 0.4695 0.0
C101 C 0.87262 0.72934 0.48755 0.0
C102 C 0.89078 0.74471 0.47089 0.0
C103 C 0.87512 0.7503 0.45261 0.0
O104 O 0.89637 0.78497 0.42546 0.0
O105 O 0.88115 0.75649 0.41631 0.0
O106 O 0.87306 0.73934 0.44292 0.0
O107 O 0.88795 0.76784 0.45204 0.0
H108 H 0.8649 0.78459 0.43022 0.0
H109 H 0.84009 0.79097 0.42321 0.0
H110 H 0.84387 0.77482 0.38624 0.0
H111 H 0.86909 0.76915 0.39329 0.0
H112 H 0.95624 0.78098 0.39925 0.0
H113 H 0.93013 0.77249 0.41177 0.0
H114 H 0.987 0.77179 0.42846 0.0
H115 H 0.96076 0.76296 0.44069 0.0
H116 H 0.90245 0.73971 0.48713 0.0
H117 H 0.84311 0.72098 0.48465 0.0
H118 H 0.8449 0.73238 0.4647 0.0
H119 H 0.90414 0.75146 0.46711 0.0
C120 C 0.08828 0.24025 0.61439 0.0
C121 C 0.07128 0.23071 0.60683 0.0
C122 C 0.05404 0.23287 0.62343 0.0
C123 C 0.05435 0.22705 0.61131 0.0
C124 C 0.0712 0.24291 0.63082 0.0
C125 C 0.08807 0.24648 0.62636 0.0
U126 U 0.12665 0.25375 0.59208 0.0
O127 O 0.15738 0.26805 0.59643 0.0
O128 O 0.14224 0.23947 0.58744 0.0
C129 C 0.15839 0.25334 0.59251 0.0
C130 C 0.10614 0.24271 0.61041 0.0
C131 C 0.16979 0.24825 0.60051 0.0
C132 C 0.17284 0.2296 0.61576 0.0
C133 C 0.16174 0.23485 0.60879 0.0
C134 C 0.20018 0.25139 0.60646 0.0
C135 C 0.19221 0.23772 0.61462 0.0
C136 C 0.18909 0.25656 0.59949 0.0
C137 C 0.12241 0.2722 0.56155 0.0
C138 C 0.13988 0.27374 0.54431 0.0
C139 C 0.12176 0.28946 0.54465 0.0
C140 C 0.11628 0.28329 0.55598 0.0
C141 C 0.13349 0.28462 0.53857 0.0
C142 C 0.13441 0.26761 0.55569 0.0
C143 C 0.11568 0.26525 0.57327 0.0
O144 O 0.10493 0.23127 0.60124 0.0
O145 O 0.11975 0.25998 0.61003 0.0
O146 O 0.12559 0.27634 0.58305 0.0
O147 O 0.1103 0.24761 0.57433 0.0
H148 H 0.07098 0.2257 0.59756 0.0
H149 H 0.04145 0.21915 0.60536 0.0
H150 H 0.07164 0.24795 0.64011 0.0
H151 H 0.10098 0.25386 0.63237 0.0
H152 H 0.16627 0.21921 0.62205 0.0
H153 H 0.14687 0.22832 0.60976 0.0
H154 H 0.21495 0.25776 0.6052 0.0
H155 H 0.19556 0.26688 0.59313 0.0
H156 H 0.14878 0.26959 0.53989 0.0
H157 H 0.11683 0.2981 0.54067 0.0
H158 H 0.10709 0.28708 0.56037 0.0
H159 H 0.13936 0.25908 0.55983 0.0
C160 C 0.75094 0.84206 0.62881 0.0
C161 C 0.74709 0.82664 0.62076 0.0
C162 C 0.75988 0.81514 0.6363 0.0
C163 C 0.75151 0.81328 0.62447 0.0
C164 C 0.76328 0.83043 0.64439 0.0
C165 C 0.75885 0.84377 0.64066 0.0
U166 U 0.73534 0.86304 0.60412 0.0
O167 O 0.72036 0.87883 0.60505 0.0
O168 O 0.74873 0.8919 0.59921 0.0
C169 C 0.73479 0.89422 0.60218 0.0
C170 C 0.74771 0.85692 0.62474 0.0
C171 C 0.74034 0.9113 0.61013 0.0
C172 C 0.75209 0.92954 0.62979 0.0
C173 C 0.74594 0.91278 0.62253 0.0
C174 C 0.74693 0.94336 0.61233 0.0
C175 C 0.75277 0.94508 0.62476 0.0
C176 C 0.74077 0.92662 0.60511 0.0
C177 C 0.71794 0.83715 0.57235 0.0
C178 C 0.71266 0.85138 0.55508 0.0
C179 C 0.70657 0.81955 0.5525 0.0
C180 C 0.712 0.82066 0.56484 0.0
C181 C 0.70701 0.83496 0.54743 0.0
C182 C 0.71809 0.85247 0.56744 0.0
C183 C 0.72459 0.83838 0.58514 0.0
O184 O 0.75878 0.86683 0.61678 0.0
O185 O 0.73007 0.85219 0.62201 0.0
O186 O 0.71319 0.83784 0.59309 0.0
O187 O 0.74217 0.85123 0.58833 0.0
H188 H 0.74097 0.82512 0.61155 0.0
H189 H 0.74849 0.80156 0.61806 0.0
H190 H 0.76992 0.83245 0.6535 0.0
H191 H 0.762 0.85566 0.64697 0.0
H192 H 0.75629 0.93031 0.63934 0.0
H193 H 0.74574 0.90105 0.62654 0.0
H194 H 0.74758 0.9551 0.60809 0.0
H195 H 0.73663 0.92575 0.59553 0.0
H196 H 0.71336 0.86357 0.55147 0.0
H197 H 0.70201 0.80659 0.54693 0.0
H198 H 0.71176 0.80868 0.5685 0.0
H199 H 0.72269 0.86534 0.57312 0.0
C200 C 0.09178 0.84404 0.62018 0.0
C201 C 0.07517 0.83359 0.61237 0.0
C202 C 0.05772 0.81946 0.62952 0.0
C203 C 0.05831 0.8214 0.61699 0.0
C204 C 0.07455 0.82959 0.63723 0.0
C205 C 0.09135 0.84174 0.6326 0.0
U206 U 0.12815 0.86492 0.59665 0.0
O207 O 0.1439 0.89404 0.59238 0.0
O208 O 0.15905 0.88079 0.60003 0.0
C209 C 0.16018 0.89622 0.5966 0.0
C210 C 0.10944 0.85828 0.61586 0.0
C211 C 0.17258 0.91352 0.60453 0.0
C212 C 0.17771 0.93725 0.62062 0.0
C213 C 0.16591 0.91989 0.61395 0.0
C214 C 0.20306 0.94169 0.60875 0.0
C215 C 0.19634 0.94852 0.61793 0.0
C216 C 0.19129 0.9244 0.60213 0.0
C217 C 0.12197 0.84073 0.56505 0.0
C218 C 0.14185 0.85669 0.54936 0.0
C219 C 0.11935 0.82358 0.54584 0.0
C220 C 0.11368 0.82399 0.55744 0.0
C221 C 0.13342 0.83995 0.5416 0.0
C222 C 0.13622 0.85706 0.56098 0.0
C223 C 0.11541 0.84103 0.5771 0.0
O224 O 0.12235 0.85361 0.61443 0.0
O225 O 0.10784 0.86775 0.60719 0.0
O226 O 0.11027 0.85351 0.57932 0.0
O227 O 0.12568 0.84015 0.5863 0.0
H228 H 0.07515 0.83512 0.60274 0.0
H229 H 0.04563 0.81395 0.61079 0.0
H230 H 0.07475 0.8282 0.64687 0.0
H231 H 0.104 0.84963 0.6388 0.0
H232 H 0.17206 0.94212 0.62757 0.0
H233 H 0.15149 0.91166 0.61595 0.0
H234 H 0.2174 0.94983 0.6066 0.0
H235 H 0.19672 0.91968 0.59493 0.0
H236 H 0.15289 0.8695 0.54647 0.0
H237 H 0.1124 0.8105 0.54008 0.0
H238 H 0.10265 0.81125 0.56041 0.0
H239 H 0.14289 0.87012 0.56676 0.0
C240 C 0.93247 0.4999 0.73063 0.0
C241 C 0.93296 0.51387 0.73864 0.0
C242 C 0.92251 0.52551 0.72189 0.0
C243 C 0.92802 0.52657 0.73431 0.0
C244 C 0.92251 0.51172 0.71389 0.0
C245 C 0.92742 0.49903 0.71823 0.0
U246 U 0.94897 0.48022 0.75592 0.0
O247 O 0.93641 0.45149 0.76092 0.0
O248 O 0.96479 0.46524 0.75511 0.0
C249 C 0.95069 0.44968 0.75806 0.0
C250 C 0.93639 0.48567 0.73511 0.0
C251 C 0.94564 0.4326 0.75027 0.0
C252 C 0.93049 0.41215 0.73163 0.0
C253 C 0.93671 0.42926 0.73849 0.0
C254 C 0.94256 0.40187 0.74818 0.0
C255 C 0.93303 0.39812 0.7365 0.0
C256 C 0.94878 0.41895 0.75499 0.0
C257 C 0.96522 0.50535 0.78775 0.0
C258 C 0.97251 0.49118 0.80428 0.0
C259 C 0.97375 0.52086 0.80822 0.0
C260 C 0.96856 0.52043 0.79592 0.0
C261 C 0.97565 0.50617 0.81258 0.0
C262 C 0.96734 0.49077 0.79197 0.0
C263 C 0.95877 0.50456 0.77497 0.0
O264 O 0.95417 0.4911 0.73803 0.0
O265 O 0.92539 0.47565 0.74308 0.0
O266 O 0.94134 0.49147 0.77159 0.0
O267 O 0.97044 0.50567 0.76707 0.0
H268 H 0.93681 0.51471 0.74826 0.0
H269 H 0.928 0.53687 0.74075 0.0
H270 H 0.91865 0.51069 0.70426 0.0
H271 H 0.92703 0.48835 0.71192 0.0
H272 H 0.92309 0.40965 0.72271 0.0
H273 H 0.93413 0.43967 0.73473 0.0
H274 H 0.94501 0.39149 0.75211 0.0
H275 H 0.95568 0.42133 0.76407 0.0
H276 H 0.97408 0.47976 0.8073 0.0
H277 H 0.97581 0.53249 0.81437 0.0
H278 H 0.96688 0.53174 0.79281 0.0
H279 H 0.9648 0.479 0.78577 0.0
C280 C 0.59572 0.50405 0.73874 0.0
C281 C 0.60823 0.52056 0.74606 0.0
C282 C 0.62989 0.5304 0.73036 0.0
C283 C 0.62518 0.53363 0.7419 0.0
C284 C 0.61715 0.51383 0.72309 0.0
C285 C 0.60028 0.50084 0.72724 0.0
U286 U 0.55928 0.4829 0.76209 0.0
O287 O 0.52842 0.46694 0.75869 0.0
O288 O 0.54362 0.45366 0.7662 0.0
C289 C 0.52732 0.45147 0.76204 0.0
C290 C 0.57804 0.4897 0.74289 0.0
C291 C 0.51509 0.4343 0.75398 0.0
C292 C 0.50825 0.41427 0.7353 0.0
C293 C 0.51986 0.43116 0.74251 0.0
C294 C 0.48698 0.40369 0.75092 0.0
C295 C 0.49169 0.40026 0.73945 0.0
C296 C 0.49855 0.42053 0.75808 0.0
C297 C 0.56533 0.5066 0.79379 0.0
C298 C 0.54222 0.49184 0.8081 0.0
C299 C 0.57064 0.52126 0.81434 0.0
C300 C 0.5765 0.52129 0.80276 0.0
C301 C 0.55344 0.5065 0.8172 0.0
C302 C 0.54811 0.49189 0.79651 0.0
C303 C 0.57198 0.50654 0.78176 0.0
O304 O 0.57973 0.48026 0.75154 0.0
O305 O 0.56516 0.49439 0.74442 0.0
O306 O 0.56176 0.50753 0.77258 0.0
O307 O 0.5771 0.49406 0.77947 0.0
H308 H 0.60493 0.52328 0.75498 0.0
H309 H 0.63453 0.5463 0.7477 0.0
H310 H 0.62037 0.51066 0.71427 0.0
H311 H 0.59084 0.48813 0.72149 0.0
H312 H 0.51222 0.41219 0.72647 0.0
H313 H 0.53261 0.44168 0.7392 0.0
H314 H 0.47458 0.39317 0.75453 0.0
H315 H 0.49471 0.42268 0.76694 0.0
H316 H 0.5288 0.48037 0.8099 0.0
H317 H 0.57979 0.53264 0.82113 0.0
H318 H 0.58988 0.53271 0.80085 0.0
H319 H 0.53927 0.48041 0.78969 0.0
C320 C 0.53554 0.11058 0.74533 0.0
C321 C 0.51978 0.10472 0.75181 0.0
C322 C 0.50606 0.11684 0.73724 0.0
C323 C 0.50517 0.10783 0.74781 0.0
C324 C 0.52194 0.12263 0.73082 0.0
C325 C 0.53648 0.11951 0.73483 0.0
U326 U 0.56208 0.09543 0.76775 0.0
O327 O 0.57803 0.08127 0.76374 0.0
O328 O 0.59249 0.10945 0.77332 0.0
C329 C 0.59421 0.09583 0.76809 0.0
C330 C 0.55129 0.1078 0.74934 0.0
C331 C 0.60978 0.1015 0.76037 0.0
C332 C 0.62224 0.10743 0.74073 0.0
C333 C 0.60722 0.10236 0.74784 0.0
C334 C 0.64254 0.11112 0.75863 0.0
C335 C 0.6401 0.11179 0.74603 0.0
C336 C 0.62755 0.10601 0.76569 0.0
C337 C 0.54082 0.07551 0.79745 0.0
C338 C 0.55656 0.07449 0.81648 0.0
C339 C 0.52266 0.05663 0.81292 0.0
C340 C 0.52351 0.06315 0.80148 0.0
C341 C 0.53915 0.06235 0.82065 0.0
C342 C 0.55739 0.08099 0.80498 0.0
C343 C 0.54097 0.08317 0.7857 0.0
O344 O 0.56226 0.11866 0.75891 0.0
O345 O 0.54743 0.09039 0.74948 0.0
O346 O 0.53902 0.07244 0.77591 0.0
O347 O 0.55348 0.10083 0.78518 0.0
H348 H 0.51881 0.09779 0.75996 0.0
H349 H 0.4931 0.10303 0.75292 0.0
H350 H 0.52332 0.12989 0.72279 0.0
H351 H 0.54858 0.12422 0.72973 0.0
H352 H 0.61975 0.10763 0.73106 0.0
H353 H 0.59361 0.09898 0.74354 0.0
H354 H 0.65612 0.11472 0.7631 0.0
H355 H 0.62986 0.10555 0.77535 0.0
H356 H 0.56955 0.07901 0.8221 0.0
H357 H 0.509 0.04753 0.81584 0.0
H358 H 0.51055 0.05882 0.79585 0.0
H359 H 0.57094 0.09047 0.80206 0.0
C360 C 0.75499 0.57307 0.94812 0.0
C361 C 0.74063 0.57223 0.94015 0.0
C362 C 0.72077 0.56646 0.95675 0.0
C363 C 0.72367 0.56894 0.94443 0.0
C364 C 0.73538 0.56755 0.96466 0.0
C365 C 0.75226 0.57082 0.96038 0.0
U366 U 0.79259 0.58631 0.92529 0.0
O367 O 0.82338 0.60083 0.92938 0.0
O368 O 0.80824 0.57206 0.92072 0.0
C369 C 0.82442 0.58608 0.92561 0.0
C370 C 0.7727 0.57561 0.94393 0.0
C371 C 0.83595 0.58123 0.93368 0.0
C372 C 0.83935 0.56375 0.94964 0.0
C373 C 0.8282 0.56883 0.94256 0.0
C374 C 0.86617 0.58373 0.93924 0.0
C375 C 0.85847 0.57105 0.94801 0.0
C376 C 0.85502 0.58873 0.93216 0.0
C377 C 0.78739 0.60366 0.89451 0.0
C378 C 0.81131 0.61511 0.88039 0.0
C379 C 0.78069 0.61119 0.87461 0.0
C380 C 0.77501 0.60488 0.88588 0.0
C381 C 0.79894 0.61647 0.8717 0.0
C382 C 0.80559 0.60877 0.8917 0.0
C383 C 0.78096 0.59705 0.90635 0.0
O384 O 0.77113 0.56404 0.93474 0.0
O385 O 0.78603 0.5929 0.94324 0.0
O386 O 0.79104 0.60841 0.91601 0.0
O387 O 0.77586 0.57952 0.90758 0.0
H388 H 0.74248 0.57397 0.93064 0.0
H389 H 0.71285 0.56841 0.93809 0.0
H390 H 0.73364 0.56542 0.97413 0.0
H391 H 0.76313 0.57133 0.96667 0.0
H392 H 0.833 0.55413 0.9564 0.0
H393 H 0.8135 0.56294 0.94393 0.0
H394 H 0.88073 0.58943 0.93759 0.0
H395 H 0.86126 0.59828 0.92534 0.0
H396 H 0.82552 0.61921 0.87854 0.0
H397 H 0.77065 0.61171 0.86811 0.0
H398 H 0.76088 0.60092 0.88785 0.0
H399 H 0.81537 0.60792 0.89825 0.0
C400 C 0.41601 0.17433 0.96144 0.0
C401 C 0.41265 0.15924 0.95324 0.0
C402 C 0.42508 0.14745 0.9688 0.0
C403 C 0.41714 0.1459 0.95689 0.0
C404 C 0.42799 0.16241 0.97704 0.0
C405 C 0.4235 0.17573 0.97337 0.0
U406 U 0.40028 0.1956 0.937 0.0
O407 O 0.38511 0.21124 0.93829 0.0
O408 O 0.41339 0.22449 0.93228 0.0
C409 C 0.3995 0.22673 0.93551 0.0
C410 C 0.41264 0.18915 0.9575 0.0
C411 C 0.40508 0.24369 0.94362 0.0
C412 C 0.4257 0.26688 0.96008 0.0
C413 C 0.41938 0.2498 0.9532 0.0
C414 C 0.40287 0.27148 0.94827 0.0
C415 C 0.41776 0.27811 0.95755 0.0
C416 C 0.39666 0.25447 0.94135 0.0
C417 C 0.3835 0.17095 0.90498 0.0
C418 C 0.37471 0.18457 0.88878 0.0
C419 C 0.37698 0.15685 0.88422 0.0
C420 C 0.38198 0.15699 0.89651 0.0
C421 C 0.37342 0.17073 0.88018 0.0
C422 C 0.37974 0.1847 0.90108 0.0
C423 C 0.38991 0.17155 0.91773 0.0
O424 O 0.42373 0.19932 0.94962 0.0
O425 O 0.39497 0.18428 0.95474 0.0
O426 O 0.37838 0.17062 0.92569 0.0
O427 O 0.40745 0.18435 0.92109 0.0
H428 H 0.40685 0.15796 0.94398 0.0
H429 H 0.4145 0.13443 0.95037 0.0
H430 H 0.43429 0.16418 0.98622 0.0
H431 H 0.42625 0.18736 0.97979 0.0
H432 H 0.43727 0.27157 0.96709 0.0
H433 H 0.42602 0.24161 0.95513 0.0
H434 H 0.39615 0.27955 0.94624 0.0
H435 H 0.38551 0.24991 0.93405 0.0
H436 H 0.37183 0.19532 0.88602 0.0
H437 H 0.37639 0.14614 0.87785 0.0
H438 H 0.38498 0.14635 0.89937 0.0
H439 H 0.38091 0.19564 0.90752 0.0
C440 C 0.75764 0.17961 0.95335 0.0
C441 C 0.74212 0.16649 0.94542 0.0
C442 C 0.72349 0.15504 0.96253 0.0
C443 C 0.72519 0.15428 0.94998 0.0
C444 C 0.73928 0.16797 0.97041 0.0
C445 C 0.75613 0.1801 0.96586 0.0
U446 U 0.79393 0.20006 0.92968 0.0
O447 O 0.81012 0.22926 0.92567 0.0
O448 O 0.82482 0.21549 0.9332 0.0
C449 C 0.82621 0.23119 0.93011 0.0
C450 C 0.7753 0.19353 0.94894 0.0
C451 C 0.8382 0.248 0.93857 0.0
C452 C 0.84211 0.27215 0.95391 0.0
C453 C 0.8305 0.25531 0.94669 0.0
C454 C 0.8693 0.27416 0.94534 0.0
C455 C 0.86163 0.2819 0.9532 0.0
C456 C 0.85768 0.25741 0.93808 0.0
C457 C 0.78753 0.17643 0.8979 0.0
C458 C 0.81018 0.19136 0.88335 0.0
C459 C 0.78229 0.16134 0.87749 0.0
C460 C 0.77657 0.16139 0.8891 0.0
C461 C 0.79911 0.17638 0.87441 0.0
C462 C 0.80443 0.19139 0.89497 0.0
C463 C 0.78095 0.17657 0.90994 0.0
O464 O 0.78788 0.18847 0.94735 0.0
O465 O 0.77375 0.20306 0.94029 0.0
O466 O 0.77612 0.18926 0.9123 0.0
O467 O 0.79105 0.17532 0.91909 0.0
H468 H 0.74301 0.16591 0.93572 0.0
H469 H 0.7133 0.1446 0.94364 0.0
H470 H 0.73863 0.16874 0.98012 0.0
H471 H 0.76797 0.19009 0.97213 0.0
H472 H 0.8358 0.27761 0.95998 0.0
H473 H 0.8155 0.2482 0.94729 0.0
H474 H 0.88422 0.28138 0.94447 0.0
H475 H 0.86388 0.252 0.93186 0.0
H476 H 0.8231 0.20326 0.88129 0.0
H477 H 0.77355 0.14945 0.87093 0.0
H478 H 0.7635 0.1497 0.8912 0.0
H479 H 0.81306 0.20318 0.90164 0.0
C480 C 0.60066 0.83541 0.06513 0.0
C481 C 0.59377 0.84371 0.07317 0.0
C482 C 0.58954 0.86053 0.0571 0.0
C483 C 0.58816 0.85606 0.06917 0.0
C484 C 0.59706 0.85272 0.04918 0.0
C485 C 0.60249 0.84019 0.05316 0.0
U486 U 0.61849 0.81541 0.08936 0.0
O487 O 0.6068 0.78665 0.0941 0.0
O488 O 0.63495 0.80112 0.08794 0.0
C489 C 0.6212 0.78531 0.0909 0.0
C490 C 0.60529 0.82129 0.06897 0.0
C491 C 0.61634 0.76841 0.08297 0.0
C492 C 0.59755 0.7457 0.06584 0.0
C493 C 0.60371 0.76295 0.07248 0.0
C494 C 0.61725 0.73966 0.07981 0.0
C495 C 0.60393 0.73367 0.0696 0.0
C496 C 0.62335 0.75686 0.08644 0.0
C497 C 0.63433 0.83963 0.12146 0.0
C498 C 0.63768 0.82394 0.13851 0.0
C499 C 0.64712 0.85676 0.14137 0.0
C500 C 0.64185 0.85628 0.12908 0.0
C501 C 0.64488 0.84054 0.14629 0.0
C502 C 0.63249 0.82351 0.12621 0.0
C503 C 0.62782 0.83905 0.10873 0.0
O504 O 0.62322 0.82716 0.07169 0.0
O505 O 0.59456 0.81029 0.0767 0.0
O506 O 0.6105 0.82579 0.10524 0.0
O507 O 0.63963 0.84075 0.10079 0.0
H508 H 0.59243 0.8404 0.0825 0.0
H509 H 0.58267 0.86209 0.07551 0.0
H510 H 0.59821 0.85586 0.03982 0.0
H511 H 0.60782 0.83396 0.04684 0.0
H512 H 0.58721 0.74147 0.05808 0.0
H513 H 0.59815 0.77173 0.06967 0.0
H514 H 0.6227 0.73089 0.08282 0.0
H515 H 0.63316 0.76091 0.09449 0.0
H516 H 0.63556 0.81114 0.14199 0.0
H517 H 0.65292 0.86985 0.14703 0.0
H518 H 0.64345 0.86888 0.12555 0.0
H519 H 0.6267 0.81051 0.12044 0.0
C520 C 0.26288 0.84007 0.07328 0.0
C521 C 0.27989 0.84761 0.08074 0.0
C522 C 0.29717 0.86569 0.06461 0.0
C523 C 0.29685 0.86025 0.07644 0.0
C524 C 0.27999 0.85855 0.05734 0.0
C525 C 0.26308 0.84586 0.06162 0.0
U526 U 0.22575 0.81728 0.09603 0.0
O527 O 0.19487 0.80142 0.09235 0.0
O528 O 0.20994 0.78785 0.09963 0.0
C529 C 0.19375 0.78576 0.09527 0.0
C530 C 0.24499 0.82529 0.07704 0.0
C531 C 0.1817 0.76891 0.08682 0.0
C532 C 0.17749 0.74367 0.0723 0.0
C533 C 0.18928 0.76071 0.07928 0.0
C534 C 0.15039 0.74324 0.0799 0.0
C535 C 0.1579 0.73452 0.0727 0.0
C536 C 0.16218 0.7602 0.0869 0.0
C537 C 0.23196 0.84022 0.12813 0.0
C538 C 0.20939 0.82535 0.14272 0.0
C539 C 0.23765 0.85504 0.14866 0.0
C540 C 0.24319 0.85506 0.13699 0.0
C541 C 0.22074 0.84013 0.15172 0.0
C542 C 0.21497 0.82538 0.13104 0.0
C543 C 0.23837 0.84025 0.11602 0.0
O544 O 0.24621 0.81505 0.08531 0.0
O545 O 0.23195 0.82972 0.07861 0.0
O546 O 0.22811 0.8415 0.10697 0.0
O547 O 0.24338 0.82774 0.11349 0.0
H548 H 0.28017 0.8434 0.08979 0.0
H549 H 0.30976 0.86527 0.08227 0.0
H550 H 0.27959 0.86266 0.04828 0.0
H551 H 0.25014 0.84026 0.05571 0.0
H552 H 0.1838 0.73734 0.06694 0.0
H553 H 0.20433 0.7672 0.07903 0.0
H554 H 0.13538 0.73685 0.08024 0.0
H555 H 0.15603 0.76633 0.09261 0.0
H556 H 0.19638 0.81355 0.14477 0.0
H557 H 0.2466 0.86679 0.15527 0.0
H558 H 0.25633 0.86666 0.1349 0.0
H559 H 0.20613 0.81375 0.12431 0.0
C560 C 0.20416 0.44659 0.07856 0.0
C561 C 0.18564 0.43502 0.08125 0.0
C562 C 0.17546 0.45421 0.07082 0.0
C563 C 0.17141 0.43875 0.07737 0.0
C564 C 0.19406 0.46575 0.06822 0.0
C565 C 0.20821 0.46195 0.07204 0.0
U566 U 0.22988 0.43002 0.10054 0.0
O567 O 0.24486 0.41489 0.09639 0.0
O568 O 0.26024 0.44308 0.10595 0.0
C569 C 0.26133 0.4291 0.10067 0.0
C570 C 0.21951 0.44298 0.08229 0.0
C571 C 0.27667 0.43427 0.09281 0.0
C572 C 0.28931 0.44172 0.07332 0.0
C573 C 0.27449 0.4369 0.08056 0.0
C574 C 0.30868 0.44151 0.09054 0.0
C575 C 0.30662 0.44403 0.0782 0.0
C576 C 0.29387 0.43667 0.09773 0.0
C577 C 0.20799 0.41133 0.13043 0.0
C578 C 0.22046 0.40048 0.14657 0.0
C579 C 0.19182 0.40136 0.14852 0.0
C580 C 0.19309 0.40824 0.13719 0.0
C581 C 0.20545 0.39734 0.15339 0.0
C582 C 0.22171 0.40741 0.13517 0.0
C583 C 0.2088 0.41888 0.1186 0.0
O584 O 0.23107 0.45372 0.0917 0.0
O585 O 0.21508 0.42539 0.08238 0.0
O586 O 0.20652 0.40779 0.10892 0.0
O587 O 0.22201 0.43626 0.11806 0.0
H588 H 0.18218 0.42312 0.08633 0.0
H589 H 0.15728 0.42968 0.07962 0.0
H590 H 0.19766 0.47759 0.06307 0.0
H591 H 0.22237 0.47102 0.06983 0.0
H592 H 0.28712 0.44337 0.06385 0.0
H593 H 0.26132 0.43517 0.07658 0.0
H594 H 0.32184 0.4435 0.09471 0.0
H595 H 0.29589 0.43483 0.10719 0.0
H596 H 0.23113 0.39741 0.14997 0.0
H597 H 0.18028 0.39951 0.15356 0.0
H598 H 0.18242 0.41129 0.13373 0.0
H599 H 0.23334 0.40971 0.13008 0.0
C600 C 0.42168 0.90408 0.28084 0.0
C601 C 0.40662 0.90205 0.27299 0.0
C602 C 0.38745 0.89641 0.28995 0.0
C603 C 0.38967 0.89827 0.27751 0.0
C604 C 0.4028 0.89892 0.29776 0.0
C605 C 0.41968 0.90269 0.29325 0.0
U606 U 0.45898 0.91814 0.25771 0.0
O607 O 0.4897 0.93209 0.26153 0.0
O608 O 0.47414 0.90362 0.25238 0.0
C609 C 0.49046 0.91736 0.2573 0.0
C610 C 0.43928 0.90673 0.27638 0.0
C611 C 0.50205 0.91196 0.26486 0.0
C612 C 0.51355 0.90744 0.28441 0.0
C613 C 0.50186 0.91208 0.27751 0.0
C614 C 0.52546 0.90223 0.26608 0.0
C615 C 0.52563 0.90259 0.27879 0.0
C616 C 0.51383 0.90689 0.25923 0.0
C617 C 0.45392 0.93698 0.22759 0.0
C618 C 0.47668 0.94599 0.21271 0.0
C619 C 0.44837 0.94758 0.20856 0.0
C620 C 0.4427 0.94109 0.2198 0.0
C621 C 0.46544 0.95013 0.20483 0.0
C622 C 0.47098 0.93948 0.22398 0.0
C623 C 0.44744 0.92997 0.23933 0.0
O624 O 0.43751 0.89551 0.26692 0.0
O625 O 0.45273 0.92406 0.27595 0.0
O626 O 0.45773 0.94089 0.24908 0.0
O627 O 0.44205 0.91229 0.2402 0.0
H628 H 0.40786 0.90305 0.26337 0.0
H629 H 0.37814 0.89631 0.2712 0.0
H630 H 0.4018 0.89796 0.30741 0.0
H631 H 0.43114 0.90426 0.29947 0.0
H632 H 0.51338 0.90801 0.29417 0.0
H633 H 0.49282 0.91593 0.28205 0.0
H634 H 0.53424 0.89822 0.26139 0.0
H635 H 0.51412 0.9066 0.24947 0.0
H636 H 0.49 0.94796 0.21024 0.0
H637 H 0.43918 0.95031 0.2027 0.0
H638 H 0.42944 0.93918 0.22239 0.0
H639 H 0.47986 0.93641 0.22988 0.0
C640 C 0.08493 0.51077 0.29501 0.0
C641 C 0.08028 0.49488 0.28717 0.0
C642 C 0.09386 0.48384 0.30253 0.0
C643 C 0.08468 0.48152 0.2909 0.0
C644 C 0.0981 0.49963 0.31042 0.0
C645 C 0.09369 0.51297 0.30668 0.0
U646 U 0.06932 0.53134 0.27012 0.0
O647 O 0.05402 0.54686 0.27079 0.0
O648 O 0.08243 0.56004 0.26501 0.0
C649 C 0.06831 0.56222 0.26777 0.0
C650 C 0.08163 0.52555 0.29089 0.0
C651 C 0.07353 0.57954 0.27534 0.0
C652 C 0.08962 0.60102 0.29347 0.0
C653 C 0.0835 0.58374 0.28686 0.0
C654 C 0.07542 0.60976 0.27723 0.0
C655 C 0.08592 0.61436 0.28863 0.0
C656 C 0.06932 0.59253 0.27065 0.0
C657 C 0.05261 0.50529 0.23842 0.0
C658 C 0.0442 0.51819 0.22159 0.0
C659 C 0.04536 0.48966 0.21803 0.0
C660 C 0.05046 0.49054 0.23041 0.0
C661 C 0.04233 0.50357 0.21345 0.0
C662 C 0.04935 0.51907 0.23397 0.0
C663 C 0.05907 0.50657 0.25126 0.0
O664 O 0.09275 0.5355 0.28296 0.0
O665 O 0.06397 0.52069 0.28805 0.0
O666 O 0.04751 0.50594 0.2591 0.0
O667 O 0.07658 0.51956 0.25452 0.0
H668 H 0.07352 0.49299 0.27811 0.0
H669 H 0.081 0.46942 0.28465 0.0
H670 H 0.10538 0.502 0.31937 0.0
H671 H 0.09747 0.52521 0.31282 0.0
H672 H 0.09776 0.60416 0.30219 0.0
H673 H 0.0869 0.57383 0.2906 0.0
H674 H 0.07203 0.61956 0.27333 0.0
H675 H 0.06159 0.58949 0.26179 0.0
H676 H 0.04217 0.52922 0.21835 0.0
H677 H 0.04379 0.47808 0.21205 0.0
H678 H 0.05294 0.47979 0.2337 0.0
H679 H 0.05107 0.53064 0.24004 0.0
C680 C 0.42509 0.51215 0.28693 0.0
C681 C 0.40807 0.50532 0.27957 0.0
C682 C 0.3905 0.48726 0.29562 0.0
C683 C 0.39097 0.49305 0.28388 0.0
C684 C 0.40762 0.4937 0.3028 0.0
C685 C 0.42468 0.50604 0.29851 0.0
U686 U 0.46294 0.53428 0.26444 0.0
O687 O 0.47928 0.5637 0.26087 0.0
O688 O 0.49377 0.54974 0.2684 0.0
C689 C 0.49532 0.56546 0.26523 0.0
C690 C 0.44321 0.52663 0.28319 0.0
C691 C 0.50765 0.58242 0.27347 0.0
C692 C 0.51276 0.60503 0.29035 0.0
C693 C 0.50106 0.58793 0.28336 0.0
C694 C 0.53782 0.61093 0.27783 0.0
C695 C 0.53118 0.6169 0.2875 0.0
C696 C 0.52617 0.59389 0.2709 0.0
C697 C 0.45738 0.51126 0.23241 0.0
C698 C 0.47624 0.52762 0.21638 0.0
C699 C 0.45579 0.49406 0.21346 0.0
C700 C 0.45016 0.49436 0.22508 0.0
C701 C 0.46877 0.5107 0.20888 0.0
C702 C 0.47063 0.52788 0.22803 0.0
C703 C 0.45066 0.51134 0.24443 0.0
O704 O 0.45608 0.5219 0.28184 0.0
O705 O 0.4424 0.53693 0.27482 0.0
O706 O 0.44572 0.52394 0.24684 0.0
O707 O 0.46052 0.50987 0.25363 0.0
H708 H 0.40793 0.50972 0.27057 0.0
H709 H 0.37809 0.48814 0.27803 0.0
H710 H 0.40781 0.4897 0.31191 0.0
H711 H 0.43759 0.5112 0.30439 0.0
H712 H 0.50718 0.60924 0.29769 0.0
H713 H 0.48678 0.57924 0.28549 0.0
H714 H 0.55201 0.61955 0.27552 0.0
H715 H 0.53153 0.58984 0.26333 0.0
H716 H 0.4861 0.54073 0.21316 0.0
H717 H 0.44999 0.48073 0.20808 0.0
H718 H 0.44001 0.48137 0.22832 0.0
H719 H 0.47643 0.5411 0.23356 0.0
Eu720 Eu 0.50505 0.99744 0.99951 0.0
Eu721 Eu 0.51746 0.01797 0.02793 0.0
C722 C 0.50033 0.03237 1.00707 0.0
C723 C 0.50145 0.99025 0.96473 0.0
C724 C 0.50703 0.00881 0.96272 0.0
C725 C 0.50466 0.98408 0.94357 0.0
C726 C 0.51124 0.01491 0.95118 0.0
C727 C 0.50041 0.978 0.95509 0.0
C728 C 0.51003 1.0026 0.94141 0.0
C729 C 0.4966 0.98339 0.97675 0.0
O730 O 0.49138 0.99023 0.02863 0.0
O731 O 0.47839 0.98514 1.00892 0.0
C732 C 0.4768 0.98206 0.02042 0.0
O733 O 0.50915 0.97757 1.01068 0.0
O734 O 0.51099 0.02999 0.04365 0.0
O735 O 0.53644 0.0285 0.04472 0.0
O736 O 0.52983 0.99916 0.02595 0.0
C737 C 0.52225 0.98266 0.01976 0.0
O738 O 0.53638 0.01685 1.00143 0.0
O739 O 0.5399 0.03818 0.01699 0.0
O740 O 0.49997 0.02839 0.01838 0.0
O741 O 0.50999 0.98375 0.98387 0.0
O742 O 0.48662 0.98883 0.98261 0.0
O743 O 0.50649 0.02521 0.99896 0.0
C744 C 0.52145 0.0254 0.06274 0.0
C745 C 0.51357 1.00633 0.06426 0.0
C746 C 0.52082 0.03177 0.08432 0.0
C747 C 0.50937 1.00002 0.07576 0.0
C748 C 0.52506 0.03804 0.07285 0.0
C749 C 0.51286 0.01266 0.08595 0.0
C750 C 0.52538 0.03229 0.05066 0.0
C751 C 0.54623 0.03335 1.00764 0.0
H752 H 0.508 0.01855 0.97004 0.0
H753 H 0.50389 0.97428 0.93638 0.0
H754 H 0.51511 0.02919 0.94988 0.0
H755 H 0.49626 0.96366 0.95646 0.0
H756 H 0.51051 0.99631 0.05654 0.0
H757 H 0.52393 0.04194 0.09195 0.0
H758 H 0.50307 0.9852 0.07663 0.0
H759 H 0.53109 0.05282 0.07186 0.0
Eu760 Eu 0.02038 0.51117 1.00005 0.0
Eu761 Eu 1.0014 0.50402 0.02615 0.0
C762 C 0.98594 0.47168 1.00404 0.0
C763 C 0.02895 0.51481 0.96631 0.0
C764 C 1.00996 0.50462 0.96169 0.0
C765 C 0.03747 0.52295 0.94605 0.0
C766 C 1.00477 0.50355 0.94928 0.0
C767 C 0.04263 0.52395 0.95842 0.0
C768 C 0.01848 0.51276 0.94132 0.0
C769 C 0.03484 0.51622 0.97928 0.0
O770 O 0.02951 0.50609 0.03037 0.0
O771 O 0.03319 0.49744 1.01119 0.0
C772 C 0.03748 0.4998 0.02302 0.0
O773 O 0.04073 0.53607 0.01302 0.0
O774 O 0.98899 0.48529 0.04013 0.0
O775 O 0.99061 0.5122 0.04145 0.0
O776 O 0.02077 0.53515 0.02687 0.0
C777 C 0.03656 0.54413 0.02188 0.0
O778 O 1.00043 0.52238 0.99886 0.0
O779 O 0.98063 0.50602 0.01289 0.0
O780 O 0.99114 0.47597 0.01572 0.0
O781 O 0.03479 0.52945 0.98619 0.0
O782 O 0.02825 0.50062 0.98434 0.0
O783 O 0.99249 0.48454 0.99646 0.0
C784 C 0.99157 0.49915 0.05976 0.0
C785 C 1.01036 0.50658 0.06441 0.0
C786 C 0.98218 0.49384 0.08013 0.0
C787 C 0.01503 0.50758 0.0769 0.0
C788 C 0.97756 0.49286 0.06769 0.0
C789 C 1.00096 0.50115 0.08491 0.0
C790 C 0.98613 0.49701 0.04666 0.0
C791 C 0.98452 0.51634 1.00372 0.0
H792 H 0.99918 0.49755 0.96768 0.0
H793 H 0.04841 0.52997 0.94016 0.0
H794 H 0.99002 0.49575 0.94596 0.0
H795 H 0.05736 0.53185 0.96182 0.0
H796 H 0.02137 0.51144 0.05839 0.0
H797 H 0.97096 0.48849 0.08597 0.0
H798 H 0.02965 0.51346 0.08027 0.0
H799 H 0.96296 0.48694 0.06422 0.0
Eu800 Eu 0.51687 0.50342 0.02635 0.0
Eu801 Eu 0.50271 0.50903 0.99883 0.0
C802 C 0.52098 0.54223 0.02037 0.0
C803 C 0.52202 0.50173 0.06106 0.0
C804 C 0.52847 0.51931 0.06748 0.0
C805 C 0.50719 0.48699 0.07882 0.0
C806 C 0.52434 0.52069 0.07943 0.0
C807 C 0.51139 0.48561 0.0669 0.0
C808 C 0.51364 0.50454 0.08526 0.0
C809 C 0.52681 0.49993 0.04853 0.0
O810 O 0.52853 0.50685 0.99658 0.0
O811 O 0.54273 0.51647 0.01611 0.0
C812 C 0.54354 0.51365 1.00441 0.0
O813 O 0.51138 0.47793 0.01443 0.0
O814 O 0.50741 0.52707 0.98425 0.0
O815 O 0.48344 0.49914 0.98218 0.0
O816 O 0.49084 0.47813 0.99953 0.0
C817 C 0.49821 0.46948 1.0053 0.0
O818 O 0.48557 0.49148 0.02565 0.0
O819 O 0.48063 0.50728 1.01077 0.0
O820 O 0.52107 0.53754 1.00891 0.0
O821 O 0.51399 0.48604 0.04111 0.0
O822 O 0.53574 0.51514 0.04314 0.0
O823 O 0.51517 0.5297 0.02819 0.0
C824 C 0.49721 0.51204 0.96437 0.0
C825 C 0.5053 0.50119 0.96109 0.0
C826 C 0.49761 0.52028 0.94365 0.0
C827 C 0.50949 0.49988 0.94914 0.0
C828 C 0.49336 0.5215 0.95556 0.0
C829 C 0.50582 0.50954 0.94028 0.0
C830 C 0.49333 0.51429 0.97696 0.0
C831 C 0.47509 0.49718 0.02003 0.0
H832 H 0.53678 0.53205 0.06331 0.0
H833 H 0.49916 0.47426 0.08306 0.0
H834 H 0.52939 0.53443 0.08407 0.0
H835 H 0.50643 0.47187 0.06228 0.0
H836 H 0.50854 0.4939 0.9678 0.0
H837 H 0.49435 0.52769 0.93706 0.0
H838 H 0.51598 0.49164 0.94689 0.0
H839 H 0.48716 0.52997 0.95792 0.0
Eu840 Eu 0.17125 0.33143 0.33215 0.0
Eu841 Eu 0.18322 0.35113 0.36072 0.0
C842 C 0.16711 0.36658 0.33993 0.0
C843 C 0.16805 0.32488 0.29733 0.0
C844 C 0.17325 0.34335 0.29529 0.0
C845 C 0.1722 0.31908 0.27631 0.0
C846 C 0.1777 0.34956 0.2838 0.0
C847 C 0.16766 0.31286 0.28777 0.0
C848 C 0.17719 0.33749 0.27414 0.0
C849 C 0.16293 0.31788 0.30929 0.0
O850 O 0.15724 0.32308 0.36095 0.0
O851 O 0.14442 0.31952 0.3414 0.0
C852 C 0.14266 0.31556 0.35274 0.0
O853 O 0.17517 0.31114 0.343 0.0
O854 O 0.17596 0.36233 0.37647 0.0
O855 O 0.20189 0.36166 0.37764 0.0
O856 O 0.19519 0.332 0.35882 0.0
C857 C 0.18785 0.31579 0.3523 0.0
O858 O 0.20265 0.35042 0.33434 0.0
O859 O 0.20632 0.37144 0.35017 0.0
O860 O 0.16627 0.36215 0.35114 0.0
O861 O 0.17606 0.31779 0.31642 0.0
O862 O 0.1531 0.32348 0.31517 0.0
O863 O 0.17341 0.35954 0.33183 0.0
C864 C 0.18626 0.35758 0.39568 0.0
C865 C 0.19129 0.34474 0.3998 0.0
C866 C 0.17311 0.35757 0.41476 0.0
C867 C 0.18734 0.33846 0.41132 0.0
C868 C 0.17718 0.36393 0.4033 0.0
C869 C 0.17814 0.34476 0.41894 0.0
C870 C 0.19028 0.36463 0.38357 0.0
C871 C 0.21269 0.36667 0.34082 0.0
H872 H 0.17381 0.35295 0.30256 0.0
H873 H 0.17145 0.30932 0.26908 0.0
H874 H 0.18171 0.36389 0.28252 0.0
H875 H 0.16371 0.29856 0.28914 0.0
H876 H 0.19823 0.3395 0.39412 0.0
H877 H 0.16626 0.36292 0.42042 0.0
H878 H 0.19125 0.32846 0.4142 0.0
H879 H 0.17322 0.37388 0.40037 0.0
Eu880 Eu 0.68802 0.84522 0.33435 0.0
Eu881 Eu 0.66958 0.84037 0.3605 0.0
C882 C 0.65402 0.80602 0.33998 0.0
C883 C 0.69494 0.84713 0.30021 0.0
C884 C 0.68598 0.82964 0.2933 0.0
C885 C 0.69343 0.86162 0.28199 0.0
C886 C 0.68085 0.82819 0.28086 0.0
C887 C 0.69862 0.86309 0.2944 0.0
C888 C 0.68458 0.84417 0.27505 0.0
C889 C 0.70139 0.84901 0.31326 0.0
O890 O 0.69569 0.8385 0.3649 0.0
O891 O 0.70185 0.83268 0.34565 0.0
C892 C 0.7046 0.83339 0.35752 0.0
O893 O 0.70875 0.86977 0.34735 0.0
O894 O 0.64906 0.8244 0.37302 0.0
O895 O 0.66971 0.85348 0.37805 0.0
O896 O 0.68662 0.87107 0.35794 0.0
C897 C 0.7036 0.87918 0.35448 0.0
O898 O 0.66815 0.85656 0.33253 0.0
O899 O 0.64871 0.8419 0.34714 0.0
O900 O 0.65919 0.81125 0.35162 0.0
O901 O 0.70221 0.86276 0.32013 0.0
O902 O 0.69517 0.83375 0.31871 0.0
O903 O 0.66037 0.81822 0.33194 0.0
C904 C 0.659 0.8343 0.39399 0.0
C905 C 0.67613 0.83617 0.39863 0.0
C906 C 0.64796 0.82838 0.41394 0.0
C907 C 0.67928 0.8345 0.41093 0.0
C908 C 0.64485 0.83008 0.40167 0.0
C909 C 0.66535 0.83095 0.41878 0.0
C910 C 0.65615 0.83828 0.38153 0.0
C911 C 0.65243 0.85126 0.33752 0.0
H912 H 0.68306 0.81707 0.29745 0.0
H913 H 0.69677 0.87425 0.27776 0.0
H914 H 0.6739 0.81452 0.2758 0.0
H915 H 0.70576 0.8768 0.29943 0.0
H916 H 0.68726 0.83947 0.39283 0.0
H917 H 0.6368 0.82529 0.41967 0.0
H918 H 0.69288 0.83669 0.41436 0.0
H919 H 0.63153 0.82858 0.39824 0.0
Eu920 Eu 0.18536 0.8389 0.36016 0.0
Eu921 Eu 0.16969 0.84331 0.3329 0.0
C922 C 0.19076 0.87785 0.35277 0.0
C923 C 0.19036 0.8353 0.39448 0.0
C924 C 0.1768 0.84017 0.39708 0.0
C925 C 0.19325 0.82972 0.41559 0.0
C926 C 0.17162 0.83998 0.40889 0.0
C927 C 0.19844 0.82996 0.40379 0.0
C928 C 0.17988 0.83487 0.41833 0.0
C929 C 0.19674 0.83638 0.38226 0.0
O930 O 0.20075 0.85413 0.33249 0.0
O931 O 0.20657 0.83955 0.34787 0.0
C932 C 0.21146 0.8487 0.33816 0.0
O933 O 0.16555 0.80988 0.35109 0.0
O934 O 0.17184 0.86056 0.31822 0.0
O935 O 0.15026 0.83139 0.31637 0.0
O936 O 0.17045 0.81651 0.3315 0.0
C937 C 0.16479 0.80444 0.33963 0.0
O938 O 0.15905 0.83997 0.36295 0.0
O939 O 0.14426 0.83088 0.34352 0.0
O940 O 0.17559 0.86866 0.34512 0.0
O941 O 0.18671 0.82201 0.37431 0.0
O942 O 0.202 0.85208 0.37755 0.0
O943 O 0.19937 0.86942 0.35721 0.0
C944 C 0.16288 0.8448 0.2985 0.0
C945 C 0.17586 0.8391 0.29596 0.0
C946 C 0.15828 0.84769 0.27705 0.0
C947 C 0.18003 0.83772 0.28402 0.0
C948 C 0.15413 0.84905 0.28897 0.0
C949 C 0.17131 0.84203 0.2744 0.0
C950 C 0.15857 0.8467 0.31102 0.0
C951 C 0.14385 0.83341 0.3553 0.0
H952 H 0.17037 0.84431 0.39001 0.0
H953 H 0.20007 0.82592 0.42262 0.0
H954 H 0.16111 0.84379 0.41062 0.0
H955 H 0.20899 0.82623 0.40197 0.0
H956 H 0.18278 0.83576 0.30322 0.0
H957 H 0.15151 0.85142 0.26994 0.0
H958 H 0.18997 0.83312 0.28233 0.0
H959 H 0.14415 0.85358 0.29077 0.0
Eu960 Eu 0.8379 0.66346 0.66606 0.0
Eu961 Eu 0.85079 0.68361 0.69455 0.0
C962 C 0.83403 0.69876 0.67393 0.0
C963 C 0.83368 0.6562 0.63127 0.0
C964 C 0.84335 0.67538 0.62983 0.0
C965 C 0.83289 0.6494 0.60956 0.0
C966 C 0.84767 0.68152 0.61831 0.0
C967 C 0.82857 0.6433 0.62107 0.0
C968 C 0.84243 0.66861 0.60799 0.0
C969 C 0.8288 0.64942 0.64329 0.0
O970 O 0.82475 0.65577 0.69516 0.0
O971 O 0.81141 0.65163 0.67567 0.0
C972 C 0.80998 0.64804 0.68709 0.0
O973 O 0.84215 0.64338 0.67694 0.0
O974 O 0.84432 0.69541 0.7104 0.0
O975 O 0.86979 0.69393 0.71132 0.0
O976 O 0.86282 0.66454 0.69241 0.0
C977 C 0.8552 0.64819 0.68602 0.0
O978 O 0.86923 0.68278 0.66763 0.0
O979 O 0.87358 0.70371 0.68374 0.0
O980 O 0.83363 0.69458 0.68519 0.0
O981 O 0.84204 0.64935 0.6503 0.0
O982 O 0.81935 0.65542 0.64924 0.0
O983 O 0.83995 0.69151 0.66571 0.0
C984 C 0.85485 0.69064 0.72941 0.0
C985 C 0.84955 0.67208 0.73121 0.0
C986 C 0.85164 0.69623 0.75066 0.0
C987 C 0.84539 0.66566 0.74269 0.0
C988 C 0.85587 0.70263 0.73922 0.0
C989 C 0.84629 0.67764 0.75256 0.0
C990 C 0.85873 0.69762 0.71735 0.0
C991 C 0.87948 0.69901 0.67411 0.0
H992 H 0.84745 0.68559 0.63761 0.0
H993 H 0.82891 0.63904 0.60191 0.0
H994 H 0.85483 0.69639 0.61747 0.0
H995 H 0.8212 0.62844 0.62199 0.0
H996 H 0.84848 0.66252 0.72373 0.0
H997 H 0.85272 0.70591 0.75806 0.0
H998 H 0.84112 0.65122 0.74377 0.0
H999 H 0.85988 0.71699 0.73802 0.0
Eu1000 Eu 0.35411 0.17753 0.66703 0.0
Eu1001 Eu 0.33434 0.17031 0.69278 0.0
C1002 C 0.31869 0.13808 0.67042 0.0
C1003 C 0.3634 0.18122 0.63351 0.0
C1004 C 0.34438 0.1731 0.62917 0.0
C1005 C 0.37176 0.18609 0.6129 0.0
C1006 C 0.33908 0.17145 0.61673 0.0
C1007 C 0.37702 0.18772 0.62531 0.0
C1008 C 0.35272 0.1779 0.60843 0.0
C1009 C 0.36929 0.18302 0.64651 0.0
O1010 O 0.36205 0.17162 0.69728 0.0
O1011 O 0.36612 0.16312 0.67818 0.0
C1012 C 0.37002 0.1652 0.69003 0.0
O1013 O 0.37441 0.20171 0.68049 0.0
O1014 O 0.32133 0.15175 0.70677 0.0
O1015 O 0.32385 0.17907 0.70797 0.0
O1016 O 0.35332 0.20151 0.69305 0.0
C1017 C 0.36971 0.21018 0.68874 0.0
O1018 O 0.33423 0.18886 0.66561 0.0
O1019 O 0.31385 0.17219 0.67928 0.0
O1020 O 0.32297 0.14214 0.68219 0.0
O1021 O 0.36859 0.196 0.65327 0.0
O1022 O 0.36304 0.16749 0.65163 0.0
O1023 O 0.32631 0.15094 0.66292 0.0
C1024 C 0.32421 0.16589 0.72636 0.0
C1025 C 0.34277 0.17775 0.73147 0.0
C1026 C 0.31512 0.15623 0.74627 0.0
C1027 C 0.34746 0.17886 0.74396 0.0
C1028 C 0.31045 0.15521 0.73383 0.0
C1029 C 0.33368 0.16799 0.75149 0.0
C1030 C 0.31891 0.16384 0.71324 0.0
C1031 C 0.31808 0.18267 0.6702 0.0
H1032 H 0.33367 0.16799 0.6354 0.0
H1033 H 0.38265 0.19149 0.60681 0.0
H1034 H 0.3243 0.16491 0.6136 0.0
H1035 H 0.39177 0.1941 0.62852 0.0
H1036 H 0.35362 0.18599 0.72579 0.0
H1037 H 0.30413 0.14788 0.75182 0.0
H1038 H 0.36191 0.18792 0.74769 0.0
H1039 H 0.29607 0.14595 0.73003 0.0
Eu1040 Eu 0.85055 0.17009 0.69332 0.0
Eu1041 Eu 0.83458 0.17349 0.66579 0.0
C1042 C 0.85504 0.20848 0.68584 0.0
C1043 C 0.8573 0.16969 0.72787 0.0
C1044 C 0.84402 0.17507 0.73019 0.0
C1045 C 0.86201 0.16754 0.74944 0.0
C1046 C 0.83976 0.17667 0.74209 0.0
C1047 C 0.86625 0.16596 0.73757 0.0
C1048 C 0.84868 0.1729 0.75188 0.0
C1049 C 0.86174 0.16757 0.71542 0.0
O1050 O 0.86152 0.1736 0.66318 0.0
O1051 O 0.87598 0.18208 0.68274 0.0
C1052 C 0.87657 0.17993 0.67095 0.0
O1053 O 0.84489 0.14452 0.68146 0.0
O1054 O 0.83121 0.18951 0.65169 0.0
O1055 O 0.81951 0.1597 0.64812 0.0
O1056 O 0.82094 0.14313 0.66917 0.0
C1057 C 0.82972 0.13499 0.67384 0.0
O1058 O 0.81945 0.15882 0.69366 0.0
O1059 O 0.81302 0.17245 0.67791 0.0
O1060 O 0.85443 0.20273 0.67448 0.0
O1061 O 0.84866 0.15342 0.70831 0.0
O1062 O 0.86983 0.18272 0.70988 0.0
O1063 O 0.84935 0.19666 0.69413 0.0
C1064 C 0.83006 0.17756 0.63146 0.0
C1065 C 0.84239 0.17134 0.62821 0.0
C1066 C 0.82894 0.18645 0.61102 0.0
C1067 C 0.84769 0.17236 0.6164 0.0
C1068 C 0.82358 0.18532 0.62282 0.0
C1069 C 0.84086 0.17974 0.60758 0.0
C1070 C 0.82304 0.17513 0.64355 0.0
C1071 C 0.80841 0.16368 0.68779 0.0
H1072 H 0.83694 0.178 0.72281 0.0
H1073 H 0.86895 0.16423 0.75668 0.0
H1074 H 0.82959 0.18103 0.74361 0.0
H1075 H 0.87647 0.16168 0.73594 0.0
H1076 H 0.84762 0.1653 0.63474 0.0
H1077 H 0.82368 0.19256 0.60459 0.0
H1078 H 0.85673 0.16688 0.61411 0.0
H1079 H 0.81411 0.19027 0.62514 0.0
H1080 H 0.30687 0.86379 0.04153 0.0
H1081 H 0.33686 0.88369 0.03369 0.0
H1082 H 0.35896 0.91549 0.06865 0.0
H1083 H 0.32884 0.896 0.07654 0.0
H1084 H 0.3577 0.92489 0.03376 0.0
H1085 H 0.3964 0.89702 0.06006 0.0
H1086 H 0.3711 0.88475 0.0574 0.0
H1087 H 0.38306 0.90458 0.06855 0.0
C1088 C 0.31796 0.87518 0.04754 0.0
C1089 C 0.31535 0.87821 0.05971 0.0
C1090 C 0.33517 0.88647 0.04304 0.0
C1091 C 0.3502 0.90092 0.05061 0.0
C1092 C 0.34762 0.90422 0.06269 0.0
H1093 H 0.4671 0.97835 0.04362 0.0
H1094 H 0.43622 0.95886 0.05035 0.0
C1095 C 0.33039 0.893 0.0672 0.0
C1096 C 0.36864 0.91241 0.04591 0.0
H1097 H 0.41419 0.92227 0.04877 0.0
C1098 C 0.37007 0.92431 0.037 0.0
C1099 C 0.38472 0.91163 0.05017 0.0
C1100 C 0.38384 0.89873 0.05951 0.0
C1101 C 0.3873 0.93583 0.03244 0.0
C1102 C 0.40343 0.93499 0.03666 0.0
C1103 C 0.40188 0.92293 0.04551 0.0
C1104 C 0.42219 0.94686 0.03232 0.0
C1105 C 0.38812 0.94919 0.02347 0.0
C1106 C 0.42478 0.94652 0.01992 0.0
C1107 C 0.44248 0.95788 0.01601 0.0
C1108 C 0.45805 0.96954 0.02443 0.0
C1109 C 0.45548 0.96952 0.03685 0.0
C1110 C 0.43778 0.95836 0.04074 0.0
H1111 H 0.37631 0.95201 0.02392 0.0
H1112 H 0.40152 0.9627 0.02509 0.0
H1113 H 0.38708 0.94295 0.01415 0.0
H1114 H 0.41314 0.93739 0.01326 0.0
H1115 H 0.44399 0.95743 1.00639 0.0
H1116 H 0.17752 0.48829 0.07141 0.0
H1117 H 0.15351 0.49537 0.06383 0.0
H1118 H 0.11555 0.43683 0.05303 0.0
H1119 H 0.13952 0.42962 0.06068 0.0
H1120 H 0.1371 0.48974 0.04099 0.0
H1121 H 0.08262 0.45072 0.07146 0.0
H1122 H 0.10641 0.45533 0.07419 0.0
H1123 H 0.08994 0.43659 0.06322 0.0
C1124 C 0.16406 0.47689 0.06743 0.0
C1125 C 0.16047 0.45837 0.06666 0.0
C1126 C 0.15031 0.48097 0.06313 0.0
C1127 C 0.1326 0.46664 0.05798 0.0
C1128 C 0.12892 0.44811 0.05722 0.0
H1129 H 0.05501 0.48404 1.01089 0.0
H1130 H 0.07776 0.47588 0.01934 0.0
C1131 C 0.14267 0.444 0.06158 0.0
C1132 C 0.11836 0.47129 0.053 0.0
H1133 H 0.07364 0.46284 0.05502 0.0
C1134 C 0.12324 0.48388 0.04409 0.0
C1135 C 0.10033 0.46384 0.05712 0.0
C1136 C 0.09453 0.45101 0.06711 0.0
C1137 C 0.11059 0.48908 0.03912 0.0
C1138 C 0.09236 0.4812 0.04297 0.0
C1139 C 0.08754 0.46876 0.05198 0.0
C1140 C 0.0782 0.48584 0.03786 0.0
C1141 C 0.11706 0.5033 0.02997 0.0
C1142 C 0.07038 0.49368 0.04548 0.0
C1143 C 0.05719 0.49823 0.04069 0.0
C1144 C 0.05148 0.49499 0.02816 0.0
C1145 C 0.05918 0.48692 0.02058 0.0
C1146 C 0.07229 0.48231 0.02538 0.0
H1147 H 0.13262 0.51174 0.03057 0.0
H1148 H 0.11193 0.49595 0.0207 0.0
H1149 H 0.11142 0.51291 0.03128 0.0
H1150 H 0.07463 0.49645 0.05516 0.0
H1151 H 0.05153 0.50434 0.04682 0.0
H1152 H 0.59339 0.70137 0.08014 0.0
H1153 H 0.57911 0.66964 0.07024 0.0
H1154 H 0.58098 0.69044 0.03528 0.0
H1155 H 0.59576 0.72245 0.04513 0.0
H1156 H 0.54451 0.65083 0.05475 0.0
H1157 H 0.60493 0.65674 0.03156 0.0
H1158 H 0.60776 0.67328 0.04396 0.0
H1159 H 0.59842 0.67416 0.02913 0.0
C1160 C 0.5911 0.69929 0.07033 0.0
C1161 C 0.59586 0.71449 0.06342 0.0
C1162 C 0.5828 0.68112 0.0647 0.0
C1163 C 0.57915 0.67773 0.05204 0.0
C1164 C 0.58391 0.69281 0.04507 0.0
H1165 H 0.53168 0.57168 1.00663 0.0
H1166 H 0.5446 0.60464 0.01373 0.0
C1167 C 0.5922 0.71105 0.05071 0.0
C1168 C 0.56976 0.65826 0.04628 0.0
H1169 H 0.57678 0.62778 0.02848 0.0
C1170 C 0.55152 0.64578 0.04897 0.0
C1171 C 0.57891 0.6518 0.03867 0.0
C1172 C 0.59864 0.6646 0.03568 0.0
C1173 C 0.5422 0.62691 0.04434 0.0
C1174 C 0.55158 0.62027 0.03706 0.0
C1175 C 0.56965 0.63288 0.03411 0.0
C1176 C 0.54314 0.60019 0.03275 0.0
C1177 C 0.52235 0.61432 0.04721 0.0
C1178 C 0.53813 0.58675 0.04109 0.0
C1179 C 0.53064 0.56789 0.03707 0.0
C1180 C 0.52822 0.56212 0.02462 0.0
C1181 C 0.53332 0.57563 0.01628 0.0
C1182 C 0.54073 0.59449 0.02031 0.0
H1183 H 0.51535 0.62243 0.04953 0.0
H1184 H 0.51383 0.60376 0.03946 0.0
H1185 H 0.52262 0.60688 0.05517 0.0
H1186 H 0.54029 0.59089 0.05074 0.0
H1187 H 0.52704 0.5579 0.04375 0.0
H1188 H 0.89643 0.29522 0.96551 0.0
H1189 H 0.91736 0.32664 0.97564 0.0
H1190 H 0.87572 0.34219 0.96637 0.0
H1191 H 0.85471 0.31084 0.95633 0.0
H1192 H 0.93239 0.35931 0.9657 0.0
H1193 H 0.8899 0.36126 1.00186 0.0
H1194 H 0.88458 0.33983 0.99318 0.0
H1195 H 0.87721 0.35513 0.98707 0.0
C1196 C 0.89169 0.30531 0.96571 0.0
C1197 C 0.87387 0.3005 0.96014 0.0
C1198 C 0.90364 0.32324 0.97153 0.0
C1199 C 0.89803 0.33673 0.97192 0.0
C1200 C 0.88019 0.33191 0.96647 0.0
H1201 H 0.97081 0.45719 0.9806 0.0
H1202 H 0.94977 0.42438 0.97309 0.0
C1203 C 0.86819 0.31396 0.96071 0.0
C1204 C 0.91125 0.35615 0.97735 0.0
H1205 H 0.91549 0.39069 0.99785 0.0
C1206 C 0.92874 0.36612 0.9728 0.0
C1207 C 0.90664 0.36498 0.98674 0.0
C1208 C 0.88865 0.35468 0.99259 0.0
C1209 C 0.94151 0.3848 0.97713 0.0
C1210 C 0.93648 0.39392 0.98605 0.0
C1211 C 0.91922 0.3838 0.99086 0.0
C1212 C 0.949 0.41391 0.99061 0.0
C1213 C 0.96038 0.39449 0.97221 0.0
C1214 C 0.95511 0.41902 1.00302 0.0
C1215 C 0.96698 0.43778 1.00737 0.0
C1216 C 0.97297 0.45185 0.9994 0.0
C1217 C 0.96659 0.44671 0.98699 0.0
C1218 C 0.95466 0.42794 0.98266 0.0
H1219 H 0.9641 0.38429 0.96823 0.0
H1220 H 0.95991 0.40297 0.96494 0.0
H1221 H 0.97163 0.40395 0.97941 0.0
H1222 H 0.95086 0.40846 1.00934 0.0
H1223 H 0.97156 0.44119 0.01698 0.0
H1224 H 0.68501 0.54393 0.9455 0.0
H1225 H 0.65522 0.53601 0.9535 0.0
H1226 H 0.68525 0.57064 0.98667 0.0
H1227 H 0.71505 0.57925 0.97856 0.0
H1228 H 0.64123 0.51799 0.97335 0.0
H1229 H 0.64844 0.58824 0.97894 0.0
H1230 H 0.66365 0.58343 0.97029 0.0
H1231 H 0.66775 0.58733 0.98657 0.0
C1232 C 0.68532 0.5502 0.9544 0.0
C1233 C 0.70253 0.56229 0.96135 0.0
C1234 C 0.66824 0.54551 0.95901 0.0
C1235 C 0.66792 0.55289 0.97065 0.0
C1236 C 0.68505 0.56504 0.97758 0.0
H1237 H 0.57884 0.53308 0.01678 0.0
H1238 H 0.60897 0.54223 1.00877 0.0
C1239 C 0.70213 0.56976 0.97297 0.0
C1240 C 0.6497 0.54719 0.97573 0.0
H1241 H 0.62345 0.56415 0.98814 0.0
C1242 C 0.63731 0.5281 0.97651 0.0
C1243 C 0.64455 0.56035 0.97991 0.0
C1244 C 0.6567 0.58096 0.97879 0.0
C1245 C 0.62013 0.52185 0.98147 0.0
C1246 C 0.61505 0.535 0.98569 0.0
C1247 C 0.62741 0.55409 0.98496 0.0
C1248 C 0.59674 0.52916 0.99061 0.0
C1249 C 0.60764 0.50122 0.98235 0.0
C1250 C 0.57986 0.51886 0.98306 0.0
C1251 C 0.56264 0.51368 0.98758 0.0
C1252 C 0.56188 0.51864 0.99979 0.0
C1253 C 0.57885 0.5289 1.00736 0.0
C1254 C 0.5961 0.53421 1.00279 0.0
H1255 H 0.61532 0.49344 0.98129 0.0
H1256 H 0.60164 0.49872 0.9912 0.0
H1257 H 0.59582 0.49547 0.97507 0.0
H1258 H 0.58001 0.51502 0.97359 0.0
H1259 H 0.54991 0.50585 0.98145 0.0
H1260 H 0.44275 0.13299 0.95564 0.0
H1261 H 0.45419 0.11234 0.96206 0.0
H1262 H 0.43348 0.11172 0.99687 0.0
H1263 H 0.42142 0.13188 0.99038 0.0
H1264 H 0.48067 0.12018 0.98136 0.0
H1265 H 0.41358 0.05634 0.9872 0.0
H1266 H 0.41456 0.07499 0.979 0.0
H1267 H 0.41672 0.07722 0.99531 0.0
C1268 C 0.44025 0.12815 0.96457 0.0
C1269 C 0.4311 0.13406 0.97248 0.0
C1270 C 0.44693 0.11645 0.96826 0.0
C1271 C 0.44451 0.11032 0.97989 0.0
C1272 C 0.43522 0.11601 0.98778 0.0
H1273 H 0.48343 0.04726 0.0207 0.0
H1274 H 0.4703 0.06652 0.01416 0.0
C1275 C 0.42852 0.12771 0.9841 0.0
C1276 C 0.45265 0.09885 0.98398 0.0
H1277 H 0.44163 0.05699 0.99454 0.0
C1278 C 0.47213 0.10632 0.98418 0.0
C1279 C 0.44147 0.08081 0.9877 0.0
C1280 C 0.4204 0.07175 0.98721 0.0
C1281 C 0.48077 0.09634 0.98814 0.0
C1282 C 0.46961 0.07832 0.99186 0.0
C1283 C 0.45014 0.07085 0.9917 0.0
C1284 C 0.47787 0.06692 0.99582 0.0
C1285 C 0.50183 0.1053 0.98855 0.0
C1286 C 0.48639 0.0607 0.98765 0.0
C1287 C 0.49391 0.04968 0.99134 0.0
C1288 C 0.49301 0.04464 1.00329 0.0
C1289 C 0.48447 0.05095 0.01146 0.0
C1290 C 0.47689 0.06191 1.00774 0.0
H1291 H 0.5087 0.12065 0.98817 0.0
H1292 H 0.50773 0.10249 0.99691 0.0
H1293 H 0.50538 0.0993 0.98063 0.0
H1294 H 0.48703 0.06419 0.97836 0.0
H1295 H 0.50029 0.045 0.98479 0.0
H1296 H 0.70746 0.16428 0.9806 0.0
H1297 H 0.67811 0.14406 0.98905 0.0
H1298 H 0.6685 0.09796 0.96384 0.0
H1299 H 0.69817 0.11796 0.95557 0.0
H1300 H 0.64179 0.1247 0.97778 0.0
H1301 H 0.66215 0.07571 0.99633 0.0
H1302 H 0.67904 0.09787 0.99153 0.0
H1303 H 0.66495 0.07818 0.98051 0.0
C1304 C 0.69925 0.14977 0.97694 0.0
C1305 C 0.70532 0.14273 0.96746 0.0
C1306 C 0.68239 0.13826 0.98174 0.0
C1307 C 0.67122 0.11941 0.97723 0.0
C1308 C 0.67705 0.11237 0.96764 0.0
H1309 H 0.5641 0.02695 0.98964 0.0
H1310 H 0.59437 0.04851 0.98292 0.0
C1311 C 0.69393 0.12388 0.96282 0.0
C1312 C 0.65331 0.10726 0.9824 0.0
H1313 H 0.63001 0.06711 0.99621 0.0
C1314 C 0.63926 0.11218 0.98189 0.0
C1315 C 0.65003 0.09095 0.98781 0.0
C1316 C 0.66489 0.08541 0.98921 0.0
C1317 C 0.62184 0.10096 0.9863 0.0
C1318 C 0.61847 0.08451 0.99154 0.0
C1319 C 0.6326 0.07972 0.99219 0.0
C1320 C 0.60007 0.07161 0.99588 0.0
C1321 C 0.60696 0.10647 0.98496 0.0
C1322 C 0.59321 0.07734 1.00553 0.0
C1323 C 0.57578 0.06497 1.00945 0.0
C1324 C 0.5649 0.04663 1.0038 0.0
C1325 C 0.57198 0.04096 0.99422 0.0
C1326 C 0.58936 0.05327 0.99035 0.0
H1327 H 0.61026 0.11717 0.97846 0.0
H1328 H 0.59303 0.09412 0.98183 0.0
H1329 H 0.60594 0.11241 0.9939 0.0
H1330 H 0.60138 0.09135 1.01008 0.0
H1331 H 0.57082 0.06981 0.01687 0.0
H1332 H 0.89509 0.59268 0.95791 0.0
H1333 H 0.91512 0.58247 0.96813 0.0
H1334 H 0.86872 0.52593 0.96472 0.0
H1335 H 0.84871 0.53591 0.95419 0.0
H1336 H 0.91171 0.56429 0.9894 0.0
H1337 H 0.90996 0.52099 0.94875 0.0
H1338 H 0.90224 0.53787 0.94792 0.0
H1339 H 0.88735 0.51554 0.95319 0.0
C1340 C 0.88914 0.57804 0.95928 0.0
C1341 C 0.87029 0.5651 0.9551 0.0
C1342 C 0.90059 0.57225 0.9652 0.0
C1343 C 0.89353 0.55338 0.96703 0.0
C1344 C 0.87458 0.54051 0.96324 0.0
H1345 H 0.95124 0.50947 0.01223 0.0
H1346 H 0.92875 0.5181 1.00376 0.0
C1347 C 0.86309 0.54629 0.95733 0.0
C1348 C 0.90613 0.54718 0.97266 0.0
H1349 H 0.92572 0.51992 0.96694 0.0
C1350 C 0.91473 0.55454 0.98451 0.0
C1351 C 0.91026 0.53463 0.96622 0.0
C1352 C 0.90213 0.52689 0.95328 0.0
C1353 C 0.92726 0.54963 0.99011 0.0
C1354 C 0.93116 0.53687 0.98373 0.0
C1355 C 0.9226 0.52956 0.97186 0.0
C1356 C 0.9447 0.53152 0.98897 0.0
C1357 C 0.93661 0.55851 1.00268 0.0
C1358 C 0.96097 0.53584 0.98334 0.0
C1359 C 0.97383 0.5309 0.98813 0.0
C1360 C 0.97065 0.52136 0.99863 0.0
C1361 C 0.9542 0.51684 1.00417 0.0
C1362 C 0.94136 0.52187 0.99938 0.0
H1363 H 0.93534 0.57097 1.00526 0.0
H1364 H 0.92985 0.54822 1.00933 0.0
H1365 H 0.95172 0.56276 1.00336 0.0
H1366 H 0.96382 0.5432 0.97527 0.0
H1367 H 0.98627 0.53456 0.98357 0.0
H1368 H 0.42302 0.31003 0.94816 0.0
H1369 H 0.43643 0.34127 0.95867 0.0
H1370 H 0.44433 0.32085 0.99215 0.0
H1371 H 0.43042 0.28926 0.98177 0.0
H1372 H 0.42353 0.35193 0.98076 0.0
H1373 H 0.49734 0.36646 0.98656 0.0
H1374 H 0.47998 0.34866 0.97532 0.0
H1375 H 0.47912 0.34479 0.99105 0.0
C1376 C 0.42731 0.31203 0.9578 0.0
C1377 C 0.42556 0.29705 0.96411 0.0
C1378 C 0.43511 0.32995 0.96377 0.0
C1379 C 0.4415 0.33336 0.97614 0.0
C1380 C 0.43968 0.31851 0.98255 0.0
H1381 H 0.50234 0.44389 0.0179 0.0
H1382 H 0.48819 0.41028 0.01203 0.0
C1383 C 0.43178 0.30049 0.97659 0.0
C1384 C 0.44997 0.35254 0.98221 0.0
H1385 H 0.49199 0.39082 0.99293 0.0
C1386 C 0.43847 0.36041 0.98353 0.0
C1387 C 0.46941 0.36344 0.98592 0.0
C1388 C 0.48231 0.35555 0.98463 0.0
C1389 C 0.44596 0.37908 0.98822 0.0
C1390 C 0.46558 0.39033 0.99133 0.0
C1391 C 0.47698 0.38223 0.99046 0.0
C1392 C 0.47458 0.41073 0.99484 0.0
C1393 C 0.43273 0.38652 0.98981 0.0
C1394 C 0.47207 0.4222 0.98699 0.0
C1395 C 0.47999 0.4413 0.99034 0.0
C1396 C 0.49088 0.44942 1.00155 0.0
C1397 C 0.49401 0.43805 1.00922 0.0
C1398 C 0.4859 0.41885 1.00589 0.0
H1399 H 0.41837 0.37512 0.99098 0.0
H1400 H 0.43774 0.39714 0.99777 0.0
H1401 H 0.43175 0.39313 0.98158 0.0
H1402 H 0.46391 0.41637 0.97825 0.0
H1403 H 0.47752 0.44968 0.98414 0.0
H1404 H 0.16022 0.72091 0.05002 0.0
H1405 H 0.14005 0.68937 0.03977 0.0
H1406 H 0.10722 0.67381 0.07023 0.0
H1407 H 0.12739 0.705 0.08062 0.0
H1408 H 0.13293 0.65469 0.04848 0.0
H1409 H 0.06759 0.65798 0.04077 0.0
H1410 H 0.09043 0.67861 0.04421 0.0
H1411 H 0.07834 0.66495 0.05613 0.0
C1412 C 0.14874 0.71077 0.05456 0.0
C1413 C 0.14539 0.7156 0.06614 0.0
C1414 C 0.13718 0.69278 0.04865 0.0
C1415 C 0.12196 0.67934 0.05415 0.0
C1416 C 0.11862 0.68409 0.06569 0.0
H1417 H 0.03582 0.56392 0.04221 0.0
H1418 H 0.05727 0.59676 0.04924 0.0
C1419 C 0.13017 0.70199 0.07161 0.0
C1420 C 0.10993 0.66009 0.04813 0.0
H1421 H 0.06443 0.62776 0.03825 0.0
C1422 C 0.11798 0.64883 0.0461 0.0
C1423 C 0.09045 0.65249 0.04505 0.0
C1424 C 0.08118 0.66416 0.04653 0.0
C1425 C 0.10693 0.62991 0.04157 0.0
C1426 C 0.08733 0.62217 0.03876 0.0
C1427 C 0.07941 0.63363 0.04048 0.0
C1428 C 0.07465 0.60208 0.03445 0.0
C1429 C 0.11624 0.61823 0.04033 0.0
C1430 C 0.07718 0.59409 0.02375 0.0
C1431 C 0.06501 0.5752 0.01976 0.0
C1432 C 0.04988 0.56399 0.02629 0.0
C1433 C 0.0473 0.5721 0.03694 0.0
C1434 C 0.05955 0.59091 0.04097 0.0
H1435 H 0.13014 0.62486 0.04578 0.0
H1436 H 0.10731 0.60409 0.04323 0.0
H1437 H 0.11848 0.61663 0.03069 0.0
H1438 H 0.08843 0.6025 0.0184 0.0
H1439 H 0.0673 0.56949 0.01145 0.0
H1440 H 0.31784 0.46833 0.06046 0.0
H1441 H 0.34434 0.47692 0.04839 0.0
H1442 H 0.35843 0.44045 0.06695 0.0
H1443 H 0.33162 0.43122 0.07865 0.0
H1444 H 0.38168 0.49402 0.0559 0.0
H1445 H 0.35927 0.42468 0.03209 0.0
H1446 H 0.34351 0.42947 0.04014 0.0
H1447 H 0.35962 0.42412 0.04823 0.0
C1448 C 0.32635 0.46186 0.06183 0.0
C1449 C 0.32249 0.44903 0.07056 0.0
C1450 C 0.34161 0.4669 0.05497 0.0
C1451 C 0.35327 0.45914 0.0566 0.0
C1452 C 0.34945 0.44635 0.0653 0.0
H1453 H 0.45831 0.47416 0.03757 0.0
H1454 H 0.42836 0.46573 0.04526 0.0
C1455 C 0.33421 0.44128 0.07213 0.0
C1456 C 0.36992 0.46495 0.04965 0.0
H1457 H 0.39179 0.4478 0.03217 0.0
C1458 C 0.38376 0.48395 0.05056 0.0
C1459 C 0.37265 0.45185 0.04262 0.0
C1460 C 0.35788 0.43142 0.0406 0.0
C1461 C 0.40059 0.49004 0.04514 0.0
C1462 C 0.4036 0.47682 0.03852 0.0
C1463 C 0.38952 0.45792 0.03729 0.0
C1464 C 0.42174 0.48209 0.03351 0.0
C1465 C 0.41537 0.51046 0.04696 0.0
C1466 C 0.42799 0.494 0.02421 0.0
C1467 C 0.44524 0.49887 0.01972 0.0
C1468 C 0.45656 0.49193 0.02446 0.0
C1469 C 0.45009 0.47987 0.03369 0.0
C1470 C 0.43289 0.47497 0.03811 0.0
H1471 H 0.41227 0.5183 0.05403 0.0
H1472 H 0.42939 0.51217 0.04959 0.0
H1473 H 0.41607 0.51679 0.03832 0.0
H1474 H 0.41949 0.49946 0.02039 0.0
H1475 H 0.44972 0.50814 0.01259 0.0
H1476 H 0.55632 0.85867 0.06082 0.0
H1477 H 0.54453 0.87868 0.05363 0.0
H1478 H 0.59523 0.91036 0.03653 0.0
H1479 H 0.6069 0.89003 0.04348 0.0
H1480 H 0.55806 0.91496 0.05866 0.0
H1481 H 0.55614 0.90011 1.00914 0.0
H1482 H 0.55964 0.88644 0.02002 0.0
H1483 H 0.57893 0.90858 0.01705 0.0
C1484 C 0.56495 0.8699 0.05552 0.0
C1485 C 0.58252 0.87279 0.0527 0.0
C1486 C 0.55818 0.88129 0.05138 0.0
C1487 C 0.56884 0.89585 0.04437 0.0
C1488 C 0.58651 0.8989 0.04163 0.0
H1489 H 0.55248 0.99036 0.03555 0.0
H1490 H 0.56356 0.9692 0.04123 0.0
C1491 C 0.59321 0.88735 0.04567 0.0
C1492 C 0.5617 0.90823 0.04037 0.0
H1493 H 0.55159 0.92543 0.01549 0.0
C1494 C 0.55657 0.91717 0.04921 0.0
C1495 C 0.5595 0.91092 0.02802 0.0
C1496 C 0.56366 0.90086 0.018 0.0
C1497 C 0.54952 0.92888 0.04608 0.0
C1498 C 0.54805 0.93218 0.03379 0.0
C1499 C 0.55291 0.92304 0.02492 0.0
C1500 C 0.54155 0.94513 0.03 0.0
C1501 C 0.5434 0.93731 0.05597 0.0
C1502 C 0.52586 0.93883 0.02145 0.0
C1503 C 0.51958 0.951 0.01804 0.0
C1504 C 0.5289 0.96969 0.02313 0.0
C1505 C 0.5448 0.976 0.03155 0.0
C1506 C 0.55113 0.96389 0.03486 0.0
H1507 H 0.54011 0.92913 0.06397 0.0
H1508 H 0.55496 0.95168 0.05903 0.0
H1509 H 0.53084 0.93808 0.05267 0.0
H1510 H 0.51832 0.92442 0.01752 0.0
H1511 H 0.50733 0.9457 0.01151 0.0
H1512 H 0.96959 0.21824 0.37673 0.0
H1513 H 0.9996 0.23745 0.36866 0.0
H1514 H 0.02862 0.22985 0.39953 0.0
H1515 H 0.99866 0.21003 0.40742 0.0
H1516 H 0.0311 0.27015 0.37783 0.0
H1517 H 0.04847 0.21379 0.37152 0.0
H1518 H 0.02542 0.20923 0.37461 0.0
H1519 H 0.044 0.21745 0.38676 0.0
C1520 C 0.98233 0.2205 0.38176 0.0
C1521 C 0.98161 0.21237 0.39269 0.0
C1522 C 0.99951 0.23161 0.37717 0.0
C1523 C 0.01638 0.23481 0.38334 0.0
C1524 C 0.01578 0.22725 0.39444 0.0
H1525 H 0.13447 0.30029 0.37433 0.0
H1526 H 0.10356 0.28067 0.38113 0.0
C1527 C 0.99862 0.21611 0.39904 0.0
C1528 C 0.03456 0.24606 0.37819 0.0
H1529 H 0.07287 0.24464 0.36929 0.0
C1530 C 0.04016 0.26452 0.37588 0.0
C1531 C 0.04637 0.2387 0.37556 0.0
C1532 C 0.04071 0.21865 0.37712 0.0
C1533 C 0.05744 0.27595 0.37136 0.0
C1534 C 0.06937 0.26869 0.36898 0.0
C1535 C 0.06372 0.25019 0.37116 0.0
C1536 C 0.08805 0.28026 0.36457 0.0
C1537 C 0.06306 0.29588 0.36944 0.0
C1538 C 0.08962 0.28629 0.3529 0.0
C1539 C 0.10733 0.29742 0.34892 0.0
C1540 C 0.12382 0.30282 0.35657 0.0
C1541 C 0.12212 0.29649 0.3682 0.0
C1542 C 0.10445 0.28525 0.37211 0.0
H1543 H 0.05383 0.30031 0.37365 0.0
H1544 H 0.07781 0.30551 0.37328 0.0
H1545 H 0.06216 0.29725 0.35957 0.0
H1546 H 0.07714 0.2824 0.34687 0.0
H1547 H 0.10809 0.30205 0.33992 0.0
H1548 H 0.83834 0.79991 0.38353 0.0
H1549 H 0.81442 0.8073 0.37626 0.0
H1550 H 0.7847 0.78561 0.40742 0.0
H1551 H 0.8083 0.77765 0.41465 0.0
H1552 H 0.77346 0.78124 0.37154 0.0
H1553 H 0.79281 0.83991 0.40687 0.0
H1554 H 0.80875 0.83165 0.40343 0.0
H1555 H 0.78948 0.81834 0.41203 0.0
C1556 C 0.82663 0.79646 0.3888 0.0
C1557 C 0.82533 0.78812 0.3997 0.0
C1558 C 0.81302 0.80083 0.38465 0.0
C1559 C 0.79788 0.79718 0.39135 0.0
C1560 C 0.79642 0.78881 0.4022 0.0
H1561 H 0.70813 0.82407 0.38053 0.0
H1562 H 0.72991 0.81439 0.38872 0.0
C1563 C 0.80998 0.78432 0.40633 0.0
C1564 C 0.78356 0.80198 0.38688 0.0
H1565 H 0.7669 0.83177 0.39266 0.0
C1566 C 0.77199 0.79227 0.37615 0.0
C1567 C 0.78157 0.81625 0.39296 0.0
C1568 C 0.79385 0.82728 0.40443 0.0
C1569 C 0.75839 0.79638 0.37137 0.0
C1570 C 0.75672 0.81105 0.37726 0.0
C1571 C 0.76817 0.82058 0.38809 0.0
C1572 C 0.74342 0.81693 0.37225 0.0
C1573 C 0.7457 0.78462 0.3602 0.0
C1574 C 0.74391 0.82194 0.36033 0.0
C1575 C 0.7313 0.82724 0.35557 0.0
C1576 C 0.71817 0.82807 0.36271 0.0
C1577 C 0.71804 0.82358 0.37476 0.0
C1578 C 0.7305 0.81803 0.37946 0.0
H1579 H 0.74446 0.77061 0.35928 0.0
H1580 H 0.73141 0.78273 0.36038 0.0
H1581 H 0.75172 0.79161 0.35203 0.0
H1582 H 0.75412 0.82187 0.35468 0.0
H1583 H 0.732 0.83085 0.34631 0.0
H1584 H 0.28407 0.04639 0.40051 0.0
H1585 H 0.27063 0.01489 0.39025 0.0
H1586 H 0.22179 0.01707 0.37646 0.0
H1587 H 0.23493 0.04845 0.38689 0.0
H1588 H 0.23435 0.98466 0.39543 0.0
H1589 H 0.23719 0.99639 0.34651 0.0
H1590 H 0.2522 0.01457 0.35838 0.0
H1591 H 0.22792 0.00791 0.35568 0.0
C1592 C 0.27051 0.04023 0.39525 0.0
C1593 C 0.26052 0.04991 0.39461 0.0
C1594 C 0.26292 0.02228 0.38933 0.0
C1595 C 0.24529 0.01373 0.38255 0.0
C1596 C 0.23556 0.02356 0.3815 0.0
H1597 H 0.1754 0.89978 0.34744 0.0
H1598 H 0.18801 0.93284 0.35439 0.0
C1599 C 0.24311 0.04151 0.38746 0.0
C1600 C 0.23643 0.99392 0.37756 0.0
H1601 H 0.22212 0.96503 0.35122 0.0
C1602 C 0.23169 0.98035 0.38576 0.0
C1603 C 0.23277 0.98839 0.36496 0.0
C1604 C 0.23786 1.00253 0.35581 0.0
C1605 C 0.22343 0.96135 0.38172 0.0
C1606 C 0.22025 0.9558 0.36911 0.0
C1607 C 0.22465 0.96934 0.36088 0.0
C1608 C 0.21297 0.93606 0.36439 0.0
C1609 C 0.21796 0.94736 0.39101 0.0
C1610 C 0.22302 0.92706 0.3675 0.0
C1611 C 0.21583 0.90822 0.36364 0.0
C1612 C 0.19851 0.89801 0.35645 0.0
C1613 C 0.18873 0.90721 0.35301 0.0
C1614 C 0.19592 0.9261 0.35695 0.0
H1615 H 0.21614 0.95306 0.39979 0.0
H1616 H 0.20471 0.93426 0.38777 0.0
H1617 H 0.22922 0.94387 0.39268 0.0
H1618 H 0.23641 0.93459 0.373 0.0
H1619 H 0.22387 0.90167 0.36634 0.0
H1620 H 0.53616 0.62716 0.31207 0.0
H1621 H 0.5558 0.65864 0.32268 0.0
H1622 H 0.57301 0.68072 0.28853 0.0
H1623 H 0.55333 0.64958 0.2779 0.0
H1624 H 0.59621 0.68399 0.32213 0.0
H1625 H 0.55298 0.71329 0.30422 0.0
H1626 H 0.5441 0.68847 0.30405 0.0
H1627 H 0.55891 0.70139 0.29282 0.0
C1628 C 0.54404 0.63876 0.30683 0.0
C1629 C 0.54317 0.63583 0.29413 0.0
C1630 C 0.55532 0.65669 0.3129 0.0
C1631 C 0.56569 0.67203 0.30637 0.0
C1632 C 0.56495 0.66912 0.29373 0.0
H1633 H 0.64202 0.79 0.31659 0.0
H1634 H 0.62046 0.75721 0.30957 0.0
C1635 C 0.55381 0.65125 0.28768 0.0
C1636 C 0.57747 0.69116 0.31264 0.0
H1637 H 0.58354 0.73513 0.31363 0.0
C1638 C 0.59336 0.69516 0.32042 0.0
C1639 C 0.57369 0.70567 0.31037 0.0
C1640 C 0.5564 0.70202 0.3025 0.0
C1641 C 0.60605 0.7135 0.32556 0.0
C1642 C 0.60252 0.72813 0.32302 0.0
C1643 C 0.5863 0.72396 0.31553 0.0
C1644 C 0.61585 0.74799 0.32754 0.0
C1645 C 0.62351 0.71717 0.33323 0.0
C1646 C 0.62036 0.75382 0.34001 0.0
C1647 C 0.63278 0.77264 0.34409 0.0
C1648 C 0.64082 0.78603 0.33576 0.0
C1649 C 0.63612 0.78013 0.32328 0.0
C1650 C 0.62377 0.76135 0.31923 0.0
H1651 H 0.62632 0.70542 0.33195 0.0
H1652 H 0.63595 0.73015 0.33104 0.0
H1653 H 0.6217 0.71899 0.34294 0.0
H1654 H 0.61412 0.74386 0.34661 0.0
H1655 H 0.63599 0.77669 0.35376 0.0
H1656 H 0.37028 0.87253 0.30714 0.0
H1657 H 0.34061 0.86462 0.31525 0.0
H1658 H 0.33329 0.9009 0.29189 0.0
H1659 H 0.36309 0.90904 0.28377 0.0
H1660 H 0.3299 0.88793 0.32723 0.0
H1661 H 0.28338 0.85182 0.28467 0.0
H1662 H 0.30749 0.85715 0.28657 0.0
H1663 H 0.30206 0.87509 0.28336 0.0
C1664 C 0.36246 0.87896 0.30376 0.0
C1665 C 0.36916 0.89145 0.29477 0.0
C1666 C 0.34542 0.87434 0.30838 0.0
C1667 C 0.33455 0.88196 0.30408 0.0
C1668 C 0.34121 0.89452 0.29517 0.0
H1669 H 0.22763 0.8704 0.31986 0.0
H1670 H 0.25753 0.87848 0.31214 0.0
C1671 C 0.35827 0.89916 0.29053 0.0
C1672 C 0.31645 0.87695 0.3091 0.0
H1673 H 0.26921 0.8568 0.3013 0.0
C1674 C 0.31662 0.88106 0.32157 0.0
C1675 C 0.2991 0.86801 0.30172 0.0
C1676 C 0.29787 0.86259 0.28835 0.0
C1677 C 0.30001 0.87683 0.32682 0.0
C1678 C 0.28263 0.86781 0.31945 0.0
C1679 C 0.28248 0.86368 0.30698 0.0
C1680 C 0.26447 0.86287 0.32441 0.0
C1681 C 0.30135 0.88256 0.34015 0.0
C1682 C 0.25817 0.8512 0.33383 0.0
C1683 C 0.24103 0.84662 0.33836 0.0
C1684 C 0.22969 0.85343 0.33346 0.0
C1685 C 0.23594 0.86489 0.3239 0.0
C1686 C 0.25308 0.86953 0.31945 0.0
H1687 H 0.31576 0.89378 0.34365 0.0
H1688 H 0.29139 0.88755 0.34195 0.0
H1689 H 0.29782 0.87033 0.34532 0.0
H1690 H 0.26642 0.84546 0.33762 0.0
H1691 H 0.23663 0.83764 0.34564 0.0
H1692 H 0.1089 0.46706 0.2888 0.0
H1693 H 0.12002 0.44612 0.29513 0.0
H1694 H 0.10426 0.44984 0.33107 0.0
H1695 H 0.0925 0.4703 0.3247 0.0
H1696 H 0.14838 0.45456 0.31326 0.0
H1697 H 0.08166 0.39361 0.32321 0.0
H1698 H 0.0823 0.41175 0.31459 0.0
H1699 H 0.08653 0.41546 0.33085 0.0
C1700 C 0.10741 0.46312 0.29798 0.0
C1701 C 0.09973 0.47033 0.30623 0.0
C1702 C 0.11391 0.45126 0.30161 0.0
C1703 C 0.11279 0.44625 0.31353 0.0
C1704 C 0.10498 0.45325 0.32176 0.0
H1705 H 0.15193 0.38296 0.35392 0.0
H1706 H 0.13923 0.40265 0.34752 0.0
C1707 C 0.09846 0.46512 0.31814 0.0
C1708 C 0.12074 0.43455 0.31749 0.0
H1709 H 0.10975 0.39353 0.32932 0.0
C1710 C 0.13992 0.44117 0.31671 0.0
C1711 C 0.10968 0.41712 0.32204 0.0
C1712 C 0.08886 0.40894 0.32264 0.0
C1713 C 0.14841 0.43097 0.32052 0.0
C1714 C 0.13736 0.41354 0.32505 0.0
C1715 C 0.11819 0.40692 0.32586 0.0
C1716 C 0.14542 0.40189 0.32892 0.0
C1717 C 0.16922 0.43913 0.31989 0.0
C1718 C 0.15302 0.39485 0.32055 0.0
C1719 C 0.16033 0.38363 0.32416 0.0
C1720 C 0.16008 0.37913 0.33622 0.0
C1721 C 0.15243 0.3862 0.34458 0.0
C1722 C 0.14511 0.39742 0.34094 0.0
H1723 H 0.17642 0.45443 0.31919 0.0
H1724 H 0.17582 0.43647 0.32799 0.0
H1725 H 0.17153 0.43245 0.31173 0.0
H1726 H 0.15308 0.39785 0.31117 0.0
H1727 H 0.16598 0.37832 0.31746 0.0
H1728 H 0.38137 0.45762 0.30915 0.0
H1729 H 0.35152 0.43797 0.31734 0.0
H1730 H 0.32867 0.46985 0.30164 0.0
H1731 H 0.35837 0.48945 0.29337 0.0
H1732 H 0.33218 0.44645 0.33326 0.0
H1733 H 0.28924 0.41706 0.28887 0.0
H1734 H 0.31455 0.4299 0.29023 0.0
H1735 H 0.30162 0.44212 0.29086 0.0
C1736 C 0.37 0.46047 0.30745 0.0
C1737 C 0.37225 0.47504 0.30049 0.0
C1738 C 0.35292 0.4492 0.31213 0.0
C1739 C 0.3377 0.45221 0.30996 0.0
C1740 C 0.34001 0.46692 0.30319 0.0
H1741 H 0.23632 0.4039 0.34882 0.0
H1742 H 0.26683 0.42525 0.34188 0.0
C1743 C 0.35703 0.47812 0.29845 0.0
C1744 C 0.31947 0.44002 0.31482 0.0
H1745 H 0.27269 0.41069 0.30633 0.0
C1746 C 0.31917 0.4386 0.32738 0.0
C1747 C 0.3025 0.42959 0.30714 0.0
C1748 C 0.30195 0.42956 0.29352 0.0
C1749 C 0.30239 0.42716 0.33245 0.0
C1750 C 0.28534 0.41712 0.3248 0.0
C1751 C 0.28569 0.41851 0.31224 0.0
C1752 C 0.2671 0.40431 0.32944 0.0
C1753 C 0.3032 0.42554 0.34592 0.0
C1754 C 0.25688 0.38552 0.32465 0.0
C1755 C 0.23941 0.3734 0.32847 0.0
C1756 C 0.23163 0.37972 0.33723 0.0
C1757 C 0.24193 0.39852 0.34213 0.0
C1758 C 0.25944 0.41073 0.33822 0.0
H1759 H 0.31767 0.43007 0.34993 0.0
H1760 H 0.29857 0.43463 0.35045 0.0
H1761 H 0.29375 0.41095 0.34792 0.0
H1762 H 0.26243 0.38019 0.31788 0.0
H1763 H 0.23199 0.35903 0.32449 0.0
H1764 H 0.51856 0.88241 0.29865 0.0
H1765 H 0.5396 0.87446 0.3101 0.0
H1766 H 0.58247 0.90378 0.2865 0.0
H1767 H 0.56191 0.91238 0.27535 0.0
H1768 H 0.55533 0.85391 0.30209 0.0
H1769 H 0.61162 0.92521 0.31955 0.0
H1770 H 0.58887 0.92037 0.31305 0.0
H1771 H 0.6065 0.92263 0.30339 0.0
C1772 C 0.53258 0.88745 0.29602 0.0
C1773 C 0.53849 0.89806 0.28605 0.0
C1774 C 0.54456 0.88278 0.30253 0.0
C1775 C 0.56274 0.88874 0.29929 0.0
C1776 C 0.56867 0.89933 0.28936 0.0
H1777 H 0.65545 0.87103 0.31794 0.0
H1778 H 0.63304 0.87952 0.30932 0.0
C1779 C 0.55675 0.90402 0.28287 0.0
C1780 C 0.5753 0.88327 0.30591 0.0
H1781 H 0.61921 0.90091 0.32067 0.0
C1782 C 0.56922 0.86418 0.30628 0.0
C1783 C 0.59343 0.89666 0.3114 0.0
C1784 C 0.60044 0.91736 0.31195 0.0
C1785 C 0.58101 0.85815 0.31156 0.0
C1786 C 0.5993 0.87156 0.31677 0.0
C1787 C 0.60524 0.89063 0.31662 0.0
C1788 C 0.61272 0.86613 0.3221 0.0
C1789 C 0.57402 0.83748 0.31116 0.0
C1790 C 0.60886 0.85588 0.33225 0.0
C1791 C 0.62166 0.85096 0.33724 0.0
C1792 C 0.63867 0.85628 0.3322 0.0
C1793 C 0.6425 0.86664 0.32207 0.0
C1794 C 0.62971 0.87155 0.31711 0.0
H1795 H 0.56145 0.82922 0.30451 0.0
H1796 H 0.58514 0.83437 0.30877 0.0
H1797 H 0.5701 0.83278 0.32024 0.0
H1798 H 0.59599 0.85182 0.3364 0.0
H1799 H 0.61826 0.84308 0.34506 0.0
H1800 H 0.08744 0.62383 0.313 0.0
H1801 H 0.09977 0.65522 0.3234 0.0
H1802 H 0.11417 0.67893 0.28938 0.0
H1803 H 0.10204 0.64782 0.27898 0.0
H1804 H 0.13598 0.68698 0.32468 0.0
H1805 H 0.08262 0.70048 0.30217 0.0
H1806 H 0.07975 0.67739 0.30195 0.0
H1807 H 0.09403 0.69333 0.29162 0.0
C1808 C 0.0933 0.63575 0.30776 0.0
C1809 C 0.09353 0.63329 0.29513 0.0
C1810 C 0.10027 0.65365 0.3137 0.0
C1811 C 0.10752 0.66936 0.30712 0.0
C1812 C 0.10817 0.66697 0.29458 0.0
H1813 H 0.16135 0.78835 0.31674 0.0
H1814 H 0.14735 0.75519 0.31005 0.0
C1815 C 0.10121 0.64915 0.28865 0.0
C1816 C 0.11474 0.68839 0.31325 0.0
H1817 H 0.11018 0.72709 0.31221 0.0
C1818 C 0.13022 0.6957 0.32209 0.0
C1819 C 0.10711 0.69968 0.3099 0.0
C1820 C 0.08984 0.69228 0.30098 0.0
C1821 C 0.13885 0.71435 0.32722 0.0
C1822 C 0.13165 0.72584 0.3235 0.0
C1823 C 0.11578 0.7183 0.31497 0.0
C1824 C 0.14078 0.74596 0.32788 0.0
C1825 C 0.15606 0.72183 0.3362 0.0
C1826 C 0.14173 0.7518 0.34014 0.0
C1827 C 0.14977 0.77082 0.34403 0.0
C1828 C 0.15692 0.78433 0.33569 0.0
C1829 C 0.15601 0.77838 0.32343 0.0
C1830 C 0.14799 0.7594 0.31957 0.0
H1831 H 0.16203 0.71239 0.33623 0.0
H1832 H 0.16706 0.73585 0.33415 0.0
H1833 H 0.15223 0.72328 0.34545 0.0
H1834 H 0.13595 0.74163 0.34667 0.0
H1835 H 0.15015 0.77489 0.35352 0.0
H1836 H 0.83704 0.04703 0.39348 0.0
H1837 H 0.81737 0.01596 0.38261 0.0
H1838 H 0.76772 0.01774 0.39059 0.0
H1839 H 0.78724 0.04906 0.401 0.0
H1840 H 0.79269 0.98473 0.392 0.0
H1841 H 0.75491 0.99925 0.35509 0.0
H1842 H 0.77542 0.01757 0.36419 0.0
H1843 H 0.75269 0.00774 0.36976 0.0
C1844 C 0.82195 0.04102 0.39267 0.0
C1845 C 0.81376 0.0506 0.39814 0.0
C1846 C 0.8107 0.02317 0.38652 0.0
C1847 C 0.79104 0.01455 0.38563 0.0
C1848 C 0.78284 0.0242 0.39091 0.0
H1849 H 0.69633 0.90396 0.36695 0.0
H1850 H 0.71825 0.93683 0.37384 0.0
C1851 C 0.79405 0.04205 0.39702 0.0
C1852 C 0.7791 0.99499 0.37999 0.0
H1853 H 0.74175 0.96716 0.35903 0.0
C1854 C 0.78172 0.98093 0.38468 0.0
C1855 C 0.76475 0.98999 0.37043 0.0
C1856 C 0.76188 1.00446 0.36449 0.0
C1857 C 0.77003 0.96202 0.38037 0.0
C1858 C 0.75539 0.95701 0.37106 0.0
C1859 C 0.75294 0.97104 0.36621 0.0
C1860 C 0.74213 0.9372 0.36653 0.0
C1861 C 0.773 0.94744 0.38607 0.0
C1862 C 0.74825 0.92655 0.36001 0.0
C1863 C 0.73573 0.90774 0.35602 0.0
C1864 C 0.71686 0.89921 0.3585 0.0
C1865 C 0.71076 0.91002 0.36493 0.0
C1866 C 0.72326 0.92884 0.36884 0.0
H1867 H 0.78274 0.95326 0.39454 0.0
H1868 H 0.75942 0.93567 0.38817 0.0
H1869 H 0.77905 0.94173 0.37957 0.0
H1870 H 0.76272 0.9328 0.35803 0.0
H1871 H 0.74089 0.89987 0.35107 0.0
H1872 H 0.98825 0.8051 0.39765 0.0
H1873 H 0.01541 0.81447 0.38612 0.0
H1874 H 0.02367 0.77117 0.39998 0.0
H1875 H 0.99617 0.76125 0.41112 0.0
H1876 H 0.05167 0.82771 0.39448 0.0
H1877 H 0.02688 0.76282 0.36425 0.0
H1878 H 0.01133 0.76705 0.37294 0.0
H1879 H 0.02567 0.75867 0.37994 0.0
C1880 C 0.9956 0.79731 0.39807 0.0
C1881 C 0.98992 0.78238 0.40535 0.0
C1882 C 0.01124 0.80279 0.39153 0.0
C1883 C 0.0215 0.79339 0.39202 0.0
C1884 C 0.01581 0.77843 0.39922 0.0
H1885 H 0.13722 0.83471 0.37913 0.0
H1886 H 0.10745 0.82566 0.38732 0.0
C1887 C 1.00019 0.77293 0.40574 0.0
C1888 C 0.03869 0.7998 0.38555 0.0
H1889 H 0.05987 0.78481 0.36582 0.0
C1890 C 0.05337 0.81836 0.38813 0.0
C1891 C 0.0409 0.78774 0.3771 0.0
C1892 C 0.02528 0.76802 0.37329 0.0
C1893 C 0.07035 0.82497 0.38286 0.0
C1894 C 0.07295 0.81262 0.37493 0.0
C1895 C 0.05803 0.79425 0.37201 0.0
C1896 C 0.09115 0.81834 0.36983 0.0
C1897 C 0.0853 0.84522 0.38576 0.0
C1898 C 0.09196 0.81681 0.35723 0.0
C1899 C 0.10905 0.82185 0.35248 0.0
C1900 C 0.1257 0.82846 0.36023 0.0
C1901 C 0.12478 0.82987 0.37285 0.0
C1902 C 0.10773 0.82479 0.37757 0.0
H1903 H 0.07919 0.85393 0.3887 0.0
H1904 H 0.09541 0.84639 0.39331 0.0
H1905 H 0.09312 0.85096 0.37781 0.0
H1906 H 0.07936 0.81176 0.35106 0.0
H1907 H 0.10916 0.8205 0.34272 0.0
H1908 H 0.23227 0.18827 0.36932 0.0
H1909 H 0.2213 0.20878 0.36189 0.0
H1910 H 0.25616 0.25108 0.39098 0.0
H1911 H 0.2678 0.23096 0.39821 0.0
H1912 H 0.20217 0.22275 0.37394 0.0
H1913 H 0.26901 0.2808 0.36165 0.0
H1914 H 0.2662 0.25835 0.36454 0.0
H1915 H 0.27042 0.27531 0.37696 0.0
C1916 C 0.23793 0.20208 0.37401 0.0
C1917 C 0.25101 0.20798 0.38434 0.0
C1918 C 0.23151 0.21373 0.36979 0.0
C1919 C 0.23809 0.23155 0.37578 0.0
C1920 C 0.25117 0.23753 0.38607 0.0
H1921 H 0.21263 0.32019 0.37145 0.0
H1922 H 0.22408 0.29909 0.37657 0.0
C1923 C 0.25763 0.2259 0.39029 0.0
C1924 C 0.23056 0.2435 0.3716 0.0
H1925 H 0.24344 0.28652 0.36234 0.0
C1926 C 0.21116 0.23663 0.37129 0.0
C1927 C 0.24231 0.2616 0.36815 0.0
C1928 C 0.26312 0.26941 0.36772 0.0
C1929 C 0.20326 0.24758 0.36798 0.0
C1930 C 0.21507 0.26579 0.36473 0.0
C1931 C 0.23443 0.27257 0.36487 0.0
C1932 C 0.20772 0.27829 0.36153 0.0
C1933 C 0.18246 0.23981 0.36837 0.0
C1934 C 0.19475 0.27363 0.35131 0.0
C1935 C 0.18809 0.28568 0.34834 0.0
C1936 C 0.1944 0.30266 0.3555 0.0
C1937 C 0.20744 0.30725 0.36571 0.0
C1938 C 0.21405 0.29521 0.36866 0.0
H1939 H 0.17616 0.22747 0.37365 0.0
H1940 H 0.17958 0.25058 0.37243 0.0
H1941 H 0.17537 0.23538 0.35899 0.0
H1942 H 0.18993 0.26078 0.34556 0.0
H1943 H 0.17816 0.28176 0.34038 0.0
H1944 H 0.66468 0.55021 0.74332 0.0
H1945 H 0.69475 0.57095 0.73578 0.0
H1946 H 0.66675 0.56119 0.6998 0.0
H1947 H 0.63659 0.54103 0.70733 0.0
H1948 H 0.71194 0.56167 0.71842 0.0
H1949 H 0.69912 0.61768 0.70374 0.0
H1950 H 0.68425 0.60064 0.71341 0.0
H1951 H 0.68162 0.59467 0.6973 0.0
C1952 C 0.66483 0.55277 0.73385 0.0
C1953 C 0.64813 0.5439 0.72595 0.0
C1954 C 0.68208 0.56453 0.72953 0.0
C1955 C 0.68303 0.56783 0.71724 0.0
C1956 C 0.66638 0.55917 0.70936 0.0
H1957 H 0.77562 0.62922 0.67346 0.0
H1958 H 0.74487 0.60927 0.68055 0.0
C1959 C 0.64914 0.54743 0.71367 0.0
C1960 C 0.70153 0.57951 0.71256 0.0
H1961 H 0.72658 0.61827 0.69775 0.0
C1962 C 0.71517 0.5741 0.71396 0.0
C1963 C 0.70572 0.59567 0.70665 0.0
C1964 C 0.69199 0.60264 0.70527 0.0
C1965 C 0.73274 0.58424 0.7095 0.0
C1966 C 0.73698 0.60046 0.70366 0.0
C1967 C 0.72332 0.60582 0.70219 0.0
C1968 C 0.75569 0.6123 0.6993 0.0
C1969 C 0.74647 0.57725 0.71089 0.0
C1970 C 0.772 0.62079 0.70748 0.0
C1971 C 0.78958 0.63212 0.70346 0.0
C1972 C 0.79127 0.63539 0.69116 0.0
C1973 C 0.77488 0.62695 0.68298 0.0
C1974 C 0.75727 0.61557 0.68702 0.0
H1975 H 0.73929 0.56217 0.7123 0.0
H1976 H 0.75432 0.57939 0.7028 0.0
H1977 H 0.75672 0.58509 0.71892 0.0
H1978 H 0.77113 0.61885 0.71703 0.0
H1979 H 0.80181 0.63849 0.71007 0.0
H1980 H 0.4914 0.11402 0.71383 0.0
H1981 H 0.46775 0.12187 0.7067 0.0
H1982 H 0.46165 0.135 0.74367 0.0
H1983 H 0.48582 0.12783 0.75089 0.0
H1984 H 0.43058 0.10707 0.71111 0.0
H1985 H 0.47176 0.18223 0.72822 0.0
H1986 H 0.48212 0.1675 0.72735 0.0
H1987 H 0.46838 0.16649 0.73955 0.0
C1988 C 0.48519 0.11876 0.72047 0.0
C1989 C 0.49073 0.12049 0.73295 0.0
C1990 C 0.47155 0.12311 0.71637 0.0
C1991 C 0.46315 0.12936 0.72463 0.0
C1992 C 0.46821 0.13059 0.73711 0.0
H1993 H 0.38109 0.16647 0.7141 0.0
H1994 H 0.40301 0.15719 0.72265 0.0
C1995 C 0.48188 0.12625 0.74123 0.0
C1996 C 0.44912 0.13456 0.72012 0.0
H1997 H 0.44067 0.17101 0.71958 0.0
C1998 C 0.43279 0.12105 0.71296 0.0
C1999 C 0.45198 0.15282 0.72254 0.0
C2000 C 0.46957 0.16817 0.72974 0.0
C2001 C 0.41922 0.12523 0.70824 0.0
C2002 C 0.42218 0.14354 0.71054 0.0
C2003 C 0.43839 0.15699 0.71782 0.0
C2004 C 0.40882 0.1491 0.7053 0.0
C2005 C 0.40168 0.10991 0.70097 0.0
C2006 C 0.405 0.14794 0.69268 0.0
C2007 C 0.39248 0.15321 0.68773 0.0
C2008 C 0.38357 0.15991 0.69532 0.0
C2009 C 0.38765 0.16133 0.70796 0.0
C2010 C 0.40018 0.15604 0.7129 0.0
H2011 H 0.39906 0.09584 0.7029 0.0
H2012 H 0.3892 0.11103 0.70289 0.0
H2013 H 0.40334 0.11111 0.69116 0.0
H2014 H 0.41182 0.14306 0.68661 0.0
H2015 H 0.38982 0.15204 0.67799 0.0
H2016 H 0.93326 0.38932 0.71228 0.0
H2017 H 0.91927 0.35802 0.70135 0.0
H2018 H 0.90088 0.33329 0.73464 0.0
H2019 H 0.91439 0.3643 0.74551 0.0
H2020 H 0.92706 0.32861 0.70611 0.0
H2021 H 0.8528 0.30762 0.71069 0.0
H2022 H 0.87152 0.33167 0.71294 0.0
H2023 H 0.86754 0.31656 0.7248 0.0
C2024 C 0.9261 0.3772 0.71723 0.0
C2025 C 0.92495 0.3793 0.72977 0.0
C2026 C 0.9182 0.35936 0.711 0.0
C2027 C 0.90882 0.34336 0.71716 0.0
C2028 C 0.9078 0.34545 0.72967 0.0
H2029 H 0.85705 0.22497 0.70832 0.0
H2030 H 0.87014 0.25817 0.71452 0.0
C2031 C 0.91573 0.3632 0.7359 0.0
C2032 C 0.90034 0.32439 0.7107 0.0
H2033 H 0.85904 0.28303 0.70523 0.0
C2034 C 0.91215 0.31869 0.70573 0.0
C2035 C 0.88089 0.31154 0.7102 0.0
C2036 C 0.8674 0.31717 0.71484 0.0
C2037 C 0.90514 0.30014 0.70083 0.0
C2038 C 0.88578 0.28711 0.70078 0.0
C2039 C 0.87389 0.29302 0.70535 0.0
C2040 C 0.87776 0.26701 0.69675 0.0
C2041 C 0.91859 0.29442 0.69626 0.0
C2042 C 0.8775 0.26095 0.68464 0.0
C2043 C 0.86999 0.24191 0.68104 0.0
C2044 C 0.86257 0.22862 0.68949 0.0
C2045 C 0.86267 0.23479 0.70157 0.0
C2046 C 0.87013 0.25377 0.70514 0.0
H2047 H 0.93347 0.30523 0.69898 0.0
H2048 H 0.91595 0.28108 0.69972 0.0
H2049 H 0.91643 0.29219 0.6862 0.0
H2050 H 0.88305 0.27092 0.67798 0.0
H2051 H 0.87008 0.23764 0.67166 0.0
H2052 H 0.21977 0.9803 0.60785 0.0
H2053 H 0.23973 0.01179 0.61795 0.0
H2054 H 0.2201 0.99199 0.65221 0.0
H2055 H 0.20028 0.96021 0.64218 0.0
H2056 H 0.22774 0.03359 0.63161 0.0
H2057 H 0.27823 0.02084 0.65921 0.0
H2058 H 0.26313 1.00502 0.64635 0.0
H2059 H 0.25372 1.0053 0.66047 0.0
C2060 C 0.21987 0.98254 0.61757 0.0
C2061 C 0.20852 0.96766 0.62422 0.0
C2062 C 0.2312 1.0006 0.62331 0.0
C2063 C 0.23156 1.00421 0.63585 0.0
C2064 C 0.22023 0.98946 0.64255 0.0
H2065 H 0.29819 0.10819 0.68315 0.0
H2066 H 0.27627 0.07585 0.67508 0.0
C2067 C 0.20879 0.97134 0.63679 0.0
C2068 C 0.24349 0.02356 0.64173 0.0
H2069 H 0.28234 0.05116 0.66162 0.0
C2070 C 0.23966 0.03744 0.63819 0.0
C2071 C 0.25895 0.02851 0.65038 0.0
C2072 C 0.26393 0.01422 0.65431 0.0
C2073 C 0.25089 0.05616 0.64303 0.0
C2074 C 0.26668 0.06124 0.65142 0.0
C2075 C 0.27029 0.04728 0.65515 0.0
C2076 C 0.27982 0.081 0.65626 0.0
C2077 C 0.24553 0.07026 0.63923 0.0
C2078 C 0.28928 0.09467 0.64839 0.0
C2079 C 0.30176 0.11323 0.65295 0.0
C2080 C 0.30521 0.11846 0.66553 0.0
C2081 C 0.29586 0.10469 0.6734 0.0
C2082 C 0.28332 0.08616 0.66882 0.0
H2083 H 0.23042 0.06344 0.63584 0.0
H2084 H 0.24852 0.0809 0.64687 0.0
H2085 H 0.25379 0.0775 0.63176 0.0
H2086 H 0.28718 0.09096 0.63867 0.0
H2087 H 0.30882 0.12339 0.64663 0.0
H2088 H 0.02272 0.2318 0.61216 0.0
H2089 H 0.99287 0.22304 0.6204 0.0
H2090 H 0.01429 0.21431 0.65432 0.0
H2091 H 0.04398 0.2226 0.64613 0.0
H2092 H 0.96833 0.18827 0.63013 0.0
H2093 H 0.99404 0.24958 0.66428 0.0
H2094 H 1.00696 0.24955 0.65172 0.0
H2095 H 1.00722 0.23762 0.6647 0.0
C2096 C 0.02109 0.22793 0.62136 0.0
C2097 C 0.0359 0.22802 0.62847 0.0
C2098 C 1.00403 0.22302 0.62607 0.0
C2099 C 1.00142 0.21827 0.63803 0.0
C2100 C 0.0161 0.2183 0.64515 0.0
H2101 H 0.90952 0.18676 0.68348 0.0
H2102 H 0.93944 0.19535 0.6754 0.0
C2103 C 0.03313 0.22311 0.64044 0.0
C2104 C 0.98316 0.21269 0.64294 0.0
H2105 H 0.96281 0.22513 0.66476 0.0
C2106 C 0.96708 0.19636 0.63766 0.0
C2107 C 0.98159 0.22316 0.65285 0.0
C2108 C 0.99831 0.24104 0.65869 0.0
C2109 C 0.94954 0.19003 0.64214 0.0
C2110 C 0.94787 0.20063 0.65197 0.0
C2111 C 0.96401 0.21698 0.65724 0.0
C2112 C 0.92952 0.19514 0.65684 0.0
C2113 C 0.93311 0.17174 0.6365 0.0
C2114 C 0.91396 0.19235 0.64917 0.0
C2115 C 0.89677 0.18719 0.65373 0.0
C2116 C 0.8948 0.18506 0.66615 0.0
C2117 C 0.9105 0.18822 0.67387 0.0
C2118 C 0.92764 0.19317 0.66926 0.0
H2119 H 0.93785 0.16269 0.63202 0.0
H2120 H 0.92368 0.16395 0.64337 0.0
H2121 H 0.92494 0.17457 0.62946 0.0
H2122 H 0.91513 0.19434 0.63964 0.0
H2123 H 0.8851 0.18515 0.64753 0.0
H2124 H 0.77662 0.7998 0.62296 0.0
H2125 H 0.78794 0.77906 0.6294 0.0
H2126 H 0.76898 0.78011 0.66463 0.0
H2127 H 0.75704 0.80037 0.65814 0.0
H2128 H 0.81511 0.78714 0.6483 0.0
H2129 H 0.74802 0.72436 0.65564 0.0
H2130 H 0.74892 0.74282 0.64726 0.0
H2131 H 0.75183 0.74564 0.66357 0.0
C2132 C 0.77448 0.79531 0.632 0.0
C2133 C 0.76585 0.80171 0.64002 0.0
C2134 C 0.78109 0.78356 0.63569 0.0
C2135 C 0.77913 0.77787 0.64744 0.0
C2136 C 0.77036 0.78406 0.65544 0.0
H2137 H 0.81795 0.71425 0.68786 0.0
H2138 H 0.80509 0.73385 0.68154 0.0
C2139 C 0.76373 0.79581 0.65176 0.0
C2140 C 0.78718 0.7663 0.6515 0.0
H2141 H 0.77608 0.72469 0.66249 0.0
C2142 C 0.80656 0.77345 0.65135 0.0
C2143 C 0.77601 0.74847 0.65552 0.0
C2144 C 0.75502 0.73975 0.65542 0.0
C2145 C 0.81513 0.76335 0.65524 0.0
C2146 C 0.80396 0.74552 0.65923 0.0
C2147 C 0.78459 0.73839 0.65944 0.0
C2148 C 0.81211 0.73395 0.66308 0.0
C2149 C 0.8361 0.77199 0.65525 0.0
C2150 C 0.82023 0.72745 0.65477 0.0
C2151 C 0.8276 0.71625 0.65834 0.0
C2152 C 0.82693 0.71129 0.6703 0.0
C2153 C 0.81879 0.71787 0.67861 0.0
C2154 C 0.81138 0.72903 0.67501 0.0
H2155 H 0.84313 0.78734 0.65482 0.0
H2156 H 0.84225 0.76916 0.6635 0.0
H2157 H 0.83918 0.76579 0.64721 0.0
H2158 H 0.82066 0.73085 0.64547 0.0
H2159 H 0.83365 0.71136 0.65168 0.0
H2160 H 0.02873 0.78494 0.62005 0.0
H2161 H 0.99896 0.7655 0.62838 0.0
H2162 H 0.01612 0.80674 0.65904 0.0
H2163 H 0.0456 0.8265 0.65062 0.0
H2164 H 0.9928 0.75027 0.65073 0.0
H2165 H 0.96439 0.7984 0.64716 0.0
H2166 H 0.98405 0.80113 0.63937 0.0
H2167 H 0.98733 0.80865 0.65528 0.0
C2168 C 0.0261 0.79 0.62849 0.0
C2169 C 0.03962 0.80736 0.63462 0.0
C2170 C 1.00911 0.7788 0.63329 0.0
C2171 C 1.00516 0.78476 0.64426 0.0
C2172 C 0.01867 0.80197 0.65046 0.0
H2173 H 0.90673 0.73331 0.6854 0.0
H2174 H 0.93768 0.75428 0.67884 0.0
C2175 C 0.03566 0.81316 0.64569 0.0
C2176 C 0.98707 0.77282 0.64931 0.0
H2177 H 0.94706 0.7715 0.65736 0.0
C2178 C 0.98279 0.75491 0.65216 0.0
C2179 C 0.97405 0.77891 0.65127 0.0
C2180 C 0.97755 0.79775 0.64803 0.0
C2181 C 0.96593 0.74297 0.65694 0.0
C2182 C 0.95276 0.74892 0.6587 0.0
C2183 C 0.95715 0.76694 0.65603 0.0
C2184 C 0.93401 0.73632 0.66277 0.0
C2185 C 0.9625 0.72415 0.66021 0.0
C2186 C 0.92152 0.71944 0.65581 0.0
C2187 C 0.90391 0.70747 0.65953 0.0
C2188 C 0.89823 0.71212 0.67026 0.0
C2189 C 0.91063 0.72923 0.67712 0.0
C2190 C 0.92834 0.74123 0.67338 0.0
H2191 H 0.97585 0.72399 0.6618 0.0
H2192 H 0.95496 0.7202 0.66845 0.0
H2193 H 0.95377 0.7134 0.6526 0.0
H2194 H 0.92534 0.71554 0.64743 0.0
H2195 H 0.89473 0.69454 0.6539 0.0
H2196 H 0.22812 0.25952 0.62566 0.0
H2197 H 0.24828 0.24928 0.63567 0.0
H2198 H 0.20324 0.1921 0.62967 0.0
H2199 H 0.18312 0.20214 0.61934 0.0
H2200 H 0.24402 0.22919 0.65603 0.0
H2201 H 0.24665 0.19059 0.61434 0.0
H2202 H 0.23816 0.20691 0.61395 0.0
H2203 H 0.22343 0.18379 0.61821 0.0
C2204 C 0.2225 0.24474 0.62641 0.0
C2205 C 0.20402 0.23165 0.62157 0.0
C2206 C 0.23402 0.23893 0.63222 0.0
C2207 C 0.22739 0.2199 0.63326 0.0
C2208 C 0.20877 0.20683 0.6288 0.0
H2209 H 0.28395 0.17448 0.67785 0.0
H2210 H 0.26165 0.1832 0.6692 0.0
C2211 C 0.19722 0.21263 0.623 0.0
C2212 C 0.2401 0.21377 0.63881 0.0
H2213 H 0.26136 0.18822 0.63259 0.0
C2214 C 0.24778 0.22019 0.65092 0.0
C2215 C 0.24519 0.20223 0.63209 0.0
C2216 C 0.23809 0.19558 0.6189 0.0
C2217 C 0.26032 0.21529 0.65651 0.0
C2218 C 0.26515 0.20348 0.64985 0.0
C2219 C 0.25754 0.19715 0.63772 0.0
C2220 C 0.27859 0.19805 0.65513 0.0
C2221 C 0.26866 0.22319 0.66939 0.0
C2222 C 0.29536 0.2031 0.64994 0.0
C2223 C 0.30813 0.19809 0.65481 0.0
C2224 C 0.30434 0.18776 0.66497 0.0
C2225 C 0.2874 0.18251 0.67005 0.0
C2226 C 0.27465 0.18757 0.66518 0.0
H2227 H 0.26704 0.23535 0.67222 0.0
H2228 H 0.26139 0.21226 0.67558 0.0
H2229 H 0.28381 0.2276 0.67051 0.0
H2230 H 0.29867 0.21111 0.64214 0.0
H2231 H 0.32093 0.20233 0.65061 0.0
H2232 H 0.73948 0.96953 0.62412 0.0
H2233 H 0.75333 1.00067 0.63493 0.0
H2234 H 0.79594 0.99275 0.65356 0.0
H2235 H 0.78265 0.96185 0.64239 0.0
H2236 H 0.76015 0.01306 0.65943 0.0
H2237 H 0.8269 0.04081 0.63795 0.0
H2238 H 0.8064 0.01871 0.63254 0.0
H2239 H 0.82089 0.0206 0.64593 0.0
C2240 C 0.75187 0.97443 0.63045 0.0
C2241 C 0.7601 0.96326 0.63224 0.0
C2242 C 0.75968 0.99219 0.63671 0.0
C2243 C 0.77588 0.99918 0.64488 0.0
C2244 C 0.78366 0.98778 0.64711 0.0
H2245 H 0.8442 0.11311 0.6811 0.0
H2246 H 0.83127 0.07961 0.67551 0.0
C2247 C 0.7759 0.97002 0.64081 0.0
C2248 C 0.78479 0.0186 0.65074 0.0
H2249 H 0.82427 0.06154 0.65199 0.0
C2250 C 0.77421 0.02364 0.65786 0.0
C2251 C 0.80318 0.03238 0.64871 0.0
C2252 C 0.815 0.02797 0.64079 0.0
C2253 C 0.78141 0.04213 0.66288 0.0
C2254 C 0.79955 0.056 0.66055 0.0
C2255 C 0.81037 0.05086 0.65376 0.0
C2256 C 0.80706 0.07609 0.66435 0.0
C2257 C 0.76949 0.04669 0.6706 0.0
C2258 C 0.79787 0.08524 0.65981 0.0
C2259 C 0.80522 0.10432 0.66294 0.0
C2260 C 0.822 0.11471 0.67064 0.0
C2261 C 0.83124 0.10552 0.67517 0.0
C2262 C 0.82387 0.08639 0.672 0.0
H2263 H 0.75874 0.0341 0.67445 0.0
H2264 H 0.77825 0.05756 0.67815 0.0
H2265 H 0.76205 0.0521 0.66491 0.0
H2266 H 0.78512 0.07766 0.65368 0.0
H2267 H 0.79776 0.11093 0.65923 0.0
H2268 H 0.50268 0.37933 0.7258 0.0
H2269 H 0.48281 0.34817 0.7151 0.0
H2270 H 0.43359 0.34791 0.72642 0.0
H2271 H 0.45322 0.37932 0.73664 0.0
H2272 H 0.46049 0.31658 0.72493 0.0
H2273 H 0.41694 0.32935 0.69118 0.0
H2274 H 0.43795 0.34811 0.69957 0.0
H2275 H 0.41611 0.33749 0.70631 0.0
C2276 C 0.4876 0.37286 0.72576 0.0
C2277 C 0.47959 0.38189 0.73212 0.0
C2278 C 0.47625 0.35496 0.71971 0.0
C2279 C 0.45666 0.34573 0.71981 0.0
C2280 C 0.44861 0.35484 0.72597 0.0
H2281 H 0.36333 0.23365 0.7035 0.0
H2282 H 0.38512 0.26654 0.71046 0.0
C2283 C 0.45992 0.37274 0.73197 0.0
C2284 C 0.44473 0.3261 0.71427 0.0
H2285 H 0.40545 0.29737 0.69494 0.0
C2286 C 0.44861 0.31243 0.71825 0.0
C2287 C 0.4292 0.32065 0.70554 0.0
C2288 C 0.42491 0.33471 0.7003 0.0
C2289 C 0.43705 0.29345 0.71407 0.0
C2290 C 0.42124 0.28797 0.70564 0.0
C2291 C 0.41752 0.30162 0.70147 0.0
C2292 C 0.40814 0.26805 0.70128 0.0
C2293 C 0.44146 0.27927 0.71898 0.0
C2294 C 0.41384 0.25803 0.69374 0.0
C2295 C 0.40141 0.23922 0.6897 0.0
C2296 C 0.38303 0.23006 0.69315 0.0
C2297 C 0.3774 0.24021 0.7007 0.0
C2298 C 0.38979 0.25903 0.70467 0.0
H2299 H 0.45227 0.28537 0.72692 0.0
H2300 H 0.42858 0.26725 0.72169 0.0
H2301 H 0.44679 0.27386 0.71178 0.0
H2302 H 0.4279 0.2648 0.69093 0.0
H2303 H 0.40622 0.23189 0.68388 0.0
H2304 H 0.66725 0.10184 0.74823 0.0
H2305 H 0.69429 0.11132 0.73669 0.0
H2306 H 0.67608 0.14197 0.71484 0.0
H2307 H 0.64935 0.1332 0.72671 0.0
H2308 H 0.69626 0.10495 0.71258 0.0
H2309 H 0.73016 0.18131 0.72568 0.0
H2310 H 0.71109 0.16434 0.73325 0.0
H2311 H 0.70646 0.17061 0.71871 0.0
C2312 C 0.66908 0.11082 0.74109 0.0
C2313 C 0.65616 0.11693 0.73854 0.0
C2314 C 0.6845 0.1161 0.73442 0.0
C2315 C 0.68747 0.12764 0.72502 0.0
C2316 C 0.67437 0.1334 0.72222 0.0
H2317 H 0.78174 0.17244 0.67946 0.0
H2318 H 0.75158 0.16365 0.68741 0.0
C2319 C 0.65892 0.12816 0.72892 0.0
C2320 C 0.70423 0.13344 0.7182 0.0
H2321 H 0.74492 0.17144 0.71188 0.0
C2322 C 0.70684 0.1195 0.7124 0.0
C2323 C 0.71806 0.15244 0.71789 0.0
C2324 C 0.71646 0.16807 0.72429 0.0
C2325 C 0.72294 0.12399 0.70647 0.0
C2326 C 0.73697 0.14294 0.70644 0.0
C2327 C 0.73414 0.15692 0.7119 0.0
C2328 C 0.7552 0.14838 0.70153 0.0
C2329 C 0.72483 0.10839 0.70031 0.0
C2330 C 0.76738 0.14299 0.70694 0.0
C2331 C 0.78458 0.14803 0.70248 0.0
C2332 C 0.7901 0.15864 0.69248 0.0
C2333 C 0.77794 0.16421 0.68713 0.0
C2334 C 0.7607 0.15921 0.69167 0.0
H2335 H 0.711 0.09541 0.69825 0.0
H2336 H 0.73145 0.11246 0.69174 0.0
H2337 H 0.73387 0.10525 0.70641 0.0
H2338 H 0.76361 0.13493 0.71469 0.0
H2339 H 0.79354 0.14354 0.70691 0.0
H2340 H 0.8931 0.51698 0.70498 0.0
H2341 H 0.88227 0.53775 0.69783 0.0
H2342 H 0.92602 0.58347 0.72179 0.0
H2343 H 0.93739 0.56296 0.72868 0.0
H2344 H 0.86916 0.55692 0.71125 0.0
H2345 H 0.93172 0.60636 0.6897 0.0
H2346 H 0.92818 0.58414 0.69385 0.0
H2347 H 0.93696 0.60374 0.70517 0.0
C2348 C 0.90066 0.53154 0.70857 0.0
C2349 C 0.91621 0.53831 0.71736 0.0
C2350 C 0.89435 0.54336 0.70453 0.0
C2351 C 0.90348 0.56222 0.70915 0.0
C2352 C 0.91898 0.56905 0.71792 0.0
H2353 H 0.88352 0.65442 0.70312 0.0
H2354 H 0.8946 0.63302 0.70828 0.0
C2355 C 0.92532 0.55724 0.72196 0.0
C2356 C 0.89625 0.57451 0.70516 0.0
H2357 H 0.90861 0.61516 0.69242 0.0
C2358 C 0.87773 0.56957 0.70704 0.0
C2359 C 0.90745 0.59101 0.69966 0.0
C2360 C 0.92712 0.59657 0.69686 0.0
C2361 C 0.87026 0.58094 0.70386 0.0
C2362 C 0.88155 0.59754 0.69851 0.0
C2363 C 0.9 0.60241 0.69653 0.0
C2364 C 0.87463 0.61035 0.69524 0.0
C2365 C 0.85055 0.57537 0.70654 0.0
C2366 C 0.85979 0.60473 0.68611 0.0
C2367 C 0.8534 0.61696 0.68309 0.0
C2368 C 0.86176 0.63504 0.68916 0.0
C2369 C 0.87669 0.6406 0.69827 0.0
C2370 C 0.88309 0.6284 0.70123 0.0
H2371 H 0.84515 0.56435 0.71288 0.0
H2372 H 0.84993 0.58764 0.71051 0.0
H2373 H 0.84109 0.56988 0.69796 0.0
H2374 H 0.85325 0.59092 0.68126 0.0
H2375 H 0.84193 0.61224 0.67601 0.0
H2376 H 0.46164 0.97698 0.19355 0.0
H2377 H 0.46996 0.98705 0.17344 0.0
H2378 H 0.4915 0.94939 0.16871 0.0
H2379 H 0.48265 0.93875 0.18866 0.0
H2380 H 0.50455 1.00351 0.16421 0.0
H2381 H 0.45561 0.93531 0.13799 0.0
H2382 H 0.45393 0.94018 0.15377 0.0
H2383 H 0.47126 0.93437 0.14955 0.0
C2384 C 0.46795 0.97065 0.1882 0.0
C2385 C 0.47129 0.95689 0.19274 0.0
C2386 C 0.47283 0.97654 0.17671 0.0
C2387 C 0.48107 0.96877 0.16944 0.0
C2388 C 0.48481 0.95534 0.17403 0.0
H2389 H 0.51778 0.986 0.09665 0.0
H2390 H 0.51048 0.97564 0.11688 0.0
C2391 C 0.47994 0.94943 0.18553 0.0
C2392 C 0.4859 0.9749 0.15712 0.0
H2393 H 0.47696 0.95927 0.12695 0.0
C2394 C 0.49848 0.99384 0.15606 0.0
C2395 C 0.47802 0.96229 0.14647 0.0
C2396 C 0.46382 0.94193 0.14694 0.0
C2397 C 0.50358 1.00047 0.1447 0.0
C2398 C 0.49561 0.98789 0.13403 0.0
C2399 C 0.4831 0.96892 0.1351 0.0
C2400 C 0.49991 0.99414 0.12168 0.0
C2401 C 0.51778 0.02084 0.14426 0.0
C2402 C 0.49609 0.00774 0.11751 0.0
C2403 C 0.50023 0.01368 0.10595 0.0
C2404 C 0.50814 1.00603 0.0982 0.0
C2405 C 0.51159 0.99212 0.10231 0.0
C2406 C 0.5075 0.98623 0.11391 0.0
H2407 H 0.52641 0.02723 0.15311 0.0
H2408 H 0.5273 0.0227 0.13714 0.0
H2409 H 0.51031 0.02854 0.14212 0.0
H2410 H 0.48975 0.01369 0.12317 0.0
H2411 H 0.497 0.02412 0.10301 0.0
H2412 H 0.05765 0.49488 0.19473 0.0
H2413 H 0.05048 0.49451 0.17297 0.0
H2414 H 1.0095 0.51069 0.18037 0.0
H2415 H 0.01657 0.51106 0.20217 0.0
H2416 H 0.01676 0.47368 0.15833 0.0
H2417 H 0.04235 0.5496 0.15846 0.0
H2418 H 0.04763 0.53971 0.17117 0.0
H2419 H 0.02508 0.53808 0.16877 0.0
C2420 C 0.04701 0.49823 0.19173 0.0
C2421 C 0.03773 0.50306 0.2002 0.0
C2422 C 0.043 0.49809 0.17929 0.0
C2423 C 0.02968 0.50286 0.17505 0.0
C2424 C 0.02015 0.50739 0.18345 0.0
H2425 H 0.98613 0.51039 0.10373 0.0
H2426 H 0.9929 0.51012 0.12544 0.0
C2427 C 0.02419 0.50758 0.19591 0.0
C2428 C 0.02566 0.50286 0.16182 0.0
H2429 H 0.02652 0.53077 0.14003 0.0
C2430 C 0.01896 0.48617 0.15431 0.0
C2431 C 0.02854 0.51918 0.15661 0.0
C2432 C 0.03646 0.53771 0.16413 0.0
C2433 C 0.01474 0.48527 0.14174 0.0
C2434 C 0.01762 0.50159 0.13653 0.0
C2435 C 0.02432 0.51827 0.14405 0.0
C2436 C 0.01359 0.50163 0.12331 0.0
C2437 C 1.00683 0.46674 0.13421 0.0
C2438 C 0.02317 0.49722 0.11488 0.0
C2439 C 0.01924 0.49723 0.10243 0.0
C2440 C 1.0057 0.50177 0.09816 0.0
C2441 C 0.9964 0.50652 0.10667 0.0
C2442 C 1.00034 0.50649 0.1191 0.0
H2443 H 1.00095 0.45485 0.13989 0.0
H2444 H 0.99564 0.46474 0.12718 0.0
H2445 H 0.0182 0.46639 0.12956 0.0
H2446 H 0.03373 0.49379 0.11793 0.0
H2447 H 0.02657 0.49337 0.09615 0.0
H2448 H 0.44626 0.48929 0.18838 0.0
H2449 H 0.45496 0.48876 0.16779 0.0
H2450 H 0.51181 0.53159 0.1799 0.0
H2451 H 0.50344 0.53166 0.20066 0.0
H2452 H 0.46837 0.51659 0.15283 0.0
H2453 H 0.52023 0.4933 0.16139 0.0
H2454 H 0.50444 0.49211 0.17232 0.0
H2455 H 0.52525 0.51392 0.17077 0.0
C2456 C 0.46071 0.49838 0.18675 0.0
C2457 C 0.47416 0.51042 0.19627 0.0
C2458 C 0.46563 0.49816 0.17491 0.0
C2459 C 0.48411 0.50992 0.17228 0.0
C2460 C 0.49755 0.52209 0.18172 0.0
H2461 H 0.53709 0.52887 0.10459 0.0
H2462 H 0.53001 0.53084 0.12556 0.0
C2463 C 0.49266 0.52229 0.19358 0.0
C2464 C 0.48907 0.50978 0.15959 0.0
H2465 H 0.51784 0.50262 0.14183 0.0
C2466 C 0.47915 0.51347 0.15043 0.0
C2467 C 0.50318 0.50577 0.15643 0.0
C2468 C 0.51379 0.50088 0.16571 0.0
C2469 C 0.48303 0.51341 0.13827 0.0
C2470 C 0.49705 0.5093 0.13511 0.0
C2471 C 0.50711 0.50579 0.14426 0.0
C2472 C 0.50124 0.50825 0.12232 0.0
C2473 C 0.47227 0.51804 0.12893 0.0
C2474 C 0.48748 0.4948 0.11352 0.0
C2475 C 0.49147 0.49366 0.10152 0.0
C2476 C 0.50934 0.50594 0.09804 0.0
C2477 C 0.52311 0.51937 0.1069 0.0
C2478 C 0.51913 0.52043 0.11892 0.0
H2479 H 0.46565 0.52549 0.13318 0.0
H2480 H 0.48158 0.52682 0.1223 0.0
H2481 H 0.46096 0.50489 0.12388 0.0
H2482 H 0.47367 0.48506 0.11596 0.0
H2483 H 0.48048 0.48324 0.09495 0.0
H2484 H 1.00111 0.53583 0.82853 0.0
H2485 H 1.00796 0.53616 0.85034 0.0
H2486 H 0.96777 0.47726 0.84833 0.0
H2487 H 0.96073 0.47682 0.82655 0.0
H2488 H 0.98305 0.52676 0.86812 0.0
H2489 H 0.01443 0.48095 0.86643 0.0
H2490 H 0.01118 0.49142 0.85333 0.0
H2491 H 0.99166 0.47106 0.85812 0.0
C2492 C 0.9937 0.52294 0.83272 0.0
C2493 C 0.9804 0.50629 0.82577 0.0
C2494 C 0.99769 0.52314 0.84518 0.0
C2495 C 0.98856 0.50669 0.85094 0.0
C2496 C 0.9753 0.49004 0.84404 0.0
H2497 H 0.99239 0.48225 0.92619 0.0
H2498 H 0.98428 0.4807 0.90437 0.0
C2499 C 0.9713 0.48981 0.83158 0.0
C2500 C 0.99242 0.50713 0.86423 0.0
H2501 H 1.00855 0.48918 0.88582 0.0
C2502 C 0.98869 0.5186 0.87199 0.0
C2503 C 0.99969 0.4964 0.86927 0.0
C2504 C 1.00464 0.48437 0.86138 0.0
C2505 C 0.99185 0.5195 0.88465 0.0
C2506 C 0.99923 0.50886 0.88969 0.0
C2507 C 1.00284 0.49729 0.88194 0.0
C2508 C 1.00376 0.50993 0.90296 0.0
C2509 C 0.98697 0.53159 0.89254 0.0
C2510 C 0.01746 0.52683 0.90939 0.0
C2511 C 0.02206 0.52778 0.92184 0.0
C2512 C 0.01312 0.5118 0.92813 0.0
C2513 C 0.99937 0.49486 0.92166 0.0
C2514 C 0.99481 0.49393 0.90918 0.0
H2515 H 0.97696 0.53477 0.88754 0.0
H2516 H 0.98075 0.52473 0.90071 0.0
H2517 H 0.99995 0.54503 0.8956 0.0
H2518 H 0.02475 0.53929 0.90474 0.0
H2519 H 0.0326 0.54107 0.92655 0.0
H2520 H 0.53629 0.47657 0.8306 0.0
H2521 H 0.52706 0.4764 0.85115 0.0
H2522 H 0.54848 0.53577 0.85282 0.0
H2523 H 0.55719 0.53599 0.83215 0.0
H2524 H 0.54986 0.4956 0.87241 0.0
H2525 H 0.49625 0.51657 0.86373 0.0
H2526 H 0.50511 0.50864 0.85166 0.0
H2527 H 0.51859 0.53222 0.85871 0.0
C2528 C 0.53876 0.48955 0.83524 0.0
C2529 C 0.54744 0.50628 0.82965 0.0
C2530 C 0.53359 0.48945 0.84704 0.0
C2531 C 0.53684 0.50602 0.8535 0.0
C2532 C 0.54551 0.52274 0.84796 0.0
H2533 H 0.52167 0.53813 0.92579 0.0
H2534 H 0.52908 0.53665 0.90491 0.0
C2535 C 0.55069 0.52287 0.83617 0.0
C2536 C 0.5318 0.50593 0.86616 0.0
H2537 H 0.5058 0.51661 0.88439 0.0
C2538 C 0.54013 0.50007 0.87502 0.0
C2539 C 0.51913 0.5118 0.86958 0.0
C2540 C 0.5091 0.51751 0.86041 0.0
C2541 C 0.53651 0.50036 0.88723 0.0
C2542 C 0.52391 0.50634 0.89066 0.0
C2543 C 0.51548 0.51207 0.88178 0.0
C2544 C 0.5195 0.50705 0.90344 0.0
C2545 C 0.54666 0.4948 0.8964 0.0
C2546 C 0.51149 0.49088 0.90959 0.0
C2547 C 0.50723 0.49168 0.92157 0.0
C2548 C 0.51068 0.50865 0.92761 0.0
C2549 C 0.51861 0.52479 0.92139 0.0
C2550 C 0.52293 0.52398 0.90945 0.0
H2551 H 0.55935 0.49547 0.89298 0.0
H2552 H 0.55095 0.50393 0.90505 0.0
H2553 H 0.53715 0.4802 0.89831 0.0
H2554 H 0.50828 0.47755 0.90507 0.0
H2555 H 0.50087 0.47893 0.926 0.0
H2556 H 0.51558 0.0277 0.82781 0.0
H2557 H 0.51214 0.01826 0.84842 0.0
H2558 H 0.55698 0.07311 0.86239 0.0
H2559 H 0.56011 0.08287 0.84186 0.0
H2560 H 0.53735 0.01719 0.86576 0.0
H2561 H 0.51461 0.06655 0.88241 0.0
H2562 H 0.51547 0.06157 0.8665 0.0
H2563 H 0.53665 0.07739 0.87601 0.0
C2564 C 0.52464 0.03782 0.83526 0.0
C2565 C 0.53801 0.05613 0.83313 0.0
C2566 C 0.52273 0.03235 0.84705 0.0
C2567 C 0.53406 0.04505 0.85701 0.0
C2568 C 0.54781 0.06315 0.8549 0.0
H2569 H 0.53735 0.03663 0.93526 0.0
H2570 H 0.54375 0.04687 0.91495 0.0
C2571 C 0.54974 0.06865 0.84311 0.0
C2572 C 0.53134 0.03935 0.86958 0.0
H2573 H 0.51973 0.04929 0.89697 0.0
C2574 C 0.53348 0.0242 0.87258 0.0
C2575 C 0.52628 0.04848 0.8785 0.0
C2576 C 0.52294 0.06429 0.87571 0.0
C2577 C 0.53088 0.01807 0.88425 0.0
C2578 C 0.52571 0.02713 0.89314 0.0
C2579 C 0.52373 0.04237 0.89018 0.0
C2580 C 0.5219 0.02077 0.90549 0.0
C2581 C 0.534 1.00212 0.88703 0.0
C2582 C 0.50729 1.00278 0.90698 0.0
C2583 C 0.50348 0.99691 0.91859 0.0
C2584 C 0.51415 0.00893 0.92902 0.0
C2585 C 0.5287 0.02703 0.92748 0.0
C2586 C 0.53246 0.03289 0.91586 0.0
H2587 H 0.54267 1.00009 0.8805 0.0
H2588 H 0.54098 1.00452 0.89636 0.0
H2589 H 0.52023 0.98903 0.88639 0.0
H2590 H 0.49864 0.99332 0.89915 0.0
H2591 H 0.49192 0.98304 0.91937 0.0
H2592 H 0.11143 0.28666 0.51981 0.0
H2593 H 0.12 0.29693 0.49978 0.0
H2594 H 0.17575 0.30638 0.50913 0.0
H2595 H 0.16742 0.29641 0.5293 0.0
H2596 H 0.14897 0.33175 0.49393 0.0
H2597 H 0.1589 0.27334 0.4766 0.0
H2598 H 0.14677 0.27228 0.48979 0.0
H2599 H 0.17196 0.28544 0.4909 0.0
C2600 C 0.12558 0.29106 0.51769 0.0
C2601 C 0.13872 0.29069 0.52625 0.0
C2602 C 0.13042 0.29683 0.50618 0.0
C2603 C 0.14844 0.30221 0.50287 0.0
C2604 C 0.16164 0.30194 0.51137 0.0
H2605 H 0.20062 0.33987 0.43595 0.0
H2606 H 0.19378 0.32995 0.45632 0.0
C2607 C 0.15683 0.2962 0.52292 0.0
C2608 C 0.15346 0.30849 0.49063 0.0
H2609 H 0.1666 0.29783 0.46408 0.0
C2610 C 0.15279 0.32432 0.48739 0.0
C2611 C 0.15856 0.29886 0.48212 0.0
C2612 C 0.15897 0.28144 0.48494 0.0
C2613 C 0.15724 0.33088 0.47595 0.0
C2614 C 0.16205 0.32108 0.46734 0.0
C2615 C 0.16289 0.30534 0.47063 0.0
C2616 C 0.16605 0.32681 0.45486 0.0
C2617 C 0.15711 0.3485 0.4733 0.0
C2618 C 0.15262 0.32799 0.44711 0.0
C2619 C 0.15651 0.33369 0.43547 0.0
C2620 C 0.17384 0.33813 0.43123 0.0
C2621 C 0.18709 0.33646 0.43888 0.0
C2622 C 0.18322 0.33086 0.45056 0.0
H2623 H 0.15877 0.3572 0.48178 0.0
H2624 H 0.1685 0.35703 0.46768 0.0
H2625 H 0.14347 0.34472 0.46825 0.0
H2626 H 0.13905 0.32442 0.45004 0.0
H2627 H 0.14583 0.33445 0.42975 0.0
H2628 H 0.68669 0.84887 0.53604 0.0
H2629 H 0.67904 0.84758 0.5142 0.0
H2630 H 0.70851 0.81779 0.50702 0.0
H2631 H 0.71636 0.81915 0.52877 0.0
H2632 H 0.70376 0.86175 0.49625 0.0
H2633 H 0.65744 0.78493 0.48726 0.0
H2634 H 0.66396 0.7969 0.50236 0.0
H2635 H 0.6801 0.79206 0.49497 0.0
C2636 C 0.6916 0.84209 0.52981 0.0
C2637 C 0.70205 0.83401 0.53418 0.0
C2638 C 0.68714 0.84129 0.51734 0.0
C2639 C 0.69294 0.83231 0.50899 0.0
C2640 C 0.70349 0.82438 0.5133 0.0
H2641 H 0.68424 0.81562 0.43028 0.0
H2642 H 0.69122 0.81636 0.45215 0.0
C2643 C 0.70796 0.82517 0.52576 0.0
C2644 C 0.68848 0.83176 0.49576 0.0
H2645 H 0.66624 0.80206 0.47004 0.0
C2646 C 0.69547 0.84871 0.49053 0.0
C2647 C 0.67772 0.81472 0.48831 0.0
C2648 C 0.66921 0.79611 0.4935 0.0
C2649 C 0.69227 0.84909 0.47799 0.0
C2650 C 0.68152 0.83205 0.47053 0.0
C2651 C 0.67452 0.8151 0.47577 0.0
C2652 C 0.67721 0.83155 0.45729 0.0
C2653 C 0.7008 0.86772 0.47281 0.0
C2654 C 0.66681 0.8396 0.45292 0.0
C2655 C 0.6629 0.83929 0.44046 0.0
C2656 C 0.66918 0.83079 0.43206 0.0
C2657 C 0.67939 0.82248 0.43647 0.0
C2658 C 0.68329 0.82279 0.44897 0.0
H2659 H 0.71255 0.87889 0.47907 0.0
H2660 H 0.70608 0.86695 0.46396 0.0
H2661 H 0.68992 0.87177 0.47133 0.0
H2662 H 0.6617 0.84614 0.45917 0.0
H2663 H 0.65519 0.84601 0.4374 0.0
H2664 H 0.14084 0.86586 0.52525 0.0
H2665 H 0.14891 0.86475 0.50449 0.0
H2666 H 0.14677 0.81232 0.50877 0.0
H2667 H 0.13866 0.8133 0.52953 0.0
H2668 H 0.17871 0.86351 0.49556 0.0
H2669 H 0.11199 0.79963 0.47791 0.0
H2670 H 0.11492 0.81223 0.49241 0.0
H2671 H 0.12403 0.79656 0.49083 0.0
C2672 C 0.14221 0.85415 0.52182 0.0
C2673 C 0.13896 0.8396 0.52906 0.0
C2674 C 0.14676 0.85349 0.50991 0.0
C2675 C 0.1481 0.83828 0.50496 0.0
C2676 C 0.14532 0.82396 0.51226 0.0
H2677 H 0.17433 0.80957 0.43487 0.0
H2678 H 0.16718 0.8108 0.45588 0.0
C2679 C 0.1407 0.82456 0.52415 0.0
C2680 C 0.15258 0.8375 0.4922 0.0
H2681 H 0.13611 0.81118 0.46475 0.0
C2682 C 0.16936 0.85211 0.48881 0.0
C2683 C 0.14038 0.82261 0.48337 0.0
C2684 C 0.12174 0.80695 0.48625 0.0
C2685 C 0.1744 0.85208 0.47693 0.0
C2686 C 0.16221 0.8372 0.46812 0.0
C2687 C 0.14546 0.82257 0.47151 0.0
C2688 C 0.16655 0.83655 0.45533 0.0
C2689 C 0.19294 0.86781 0.47398 0.0
C2690 C 0.16831 0.85047 0.44796 0.0
C2691 C 0.17245 0.84984 0.43595 0.0
C2692 C 0.17488 0.83523 0.43102 0.0
C2693 C 0.17283 0.82117 0.4384 0.0
C2694 C 0.16863 0.82178 0.4504 0.0
H2695 H 0.20265 0.87542 0.48229 0.0
H2696 H 0.19987 0.86249 0.46794 0.0
H2697 H 0.19047 0.87793 0.46919 0.0
H2698 H 0.16643 0.86183 0.45149 0.0
H2699 H 0.17406 0.86098 0.43058 0.0
H2700 H 0.63844 0.85862 0.16519 0.0
H2701 H 0.6457 0.85882 0.18688 0.0
H2702 H 0.66799 0.82243 0.17916 0.0
H2703 H 0.66152 0.82279 0.1574 0.0
H2704 H 0.6323 0.82917 0.20071 0.0
H2705 H 0.70992 0.86376 0.20237 0.0
H2706 H 0.69549 0.86358 0.1894 0.0
H2707 H 0.6976 0.84334 0.1917 0.0
C2708 C 0.64522 0.85094 0.16807 0.0
C2709 C 0.64953 0.8408 0.15951 0.0
C2710 C 0.64921 0.85093 0.18049 0.0
C2711 C 0.65762 0.84085 0.18465 0.0
C2712 C 0.66183 0.83061 0.17616 0.0
H2713 H 0.68914 0.82322 0.25704 0.0
H2714 H 0.68175 0.82152 0.23513 0.0
C2715 C 0.65791 0.83065 0.16372 0.0
C2716 C 0.66145 0.84066 0.19787 0.0
H2717 H 0.69648 0.85157 0.22037 0.0
C2718 C 0.64634 0.83412 0.20501 0.0
C2719 C 0.67977 0.84708 0.20347 0.0
C2720 C 0.69666 0.855 0.19638 0.0
C2721 C 0.64904 0.83367 0.21758 0.0
C2722 C 0.66736 0.84017 0.22318 0.0
C2723 C 0.68244 0.84656 0.21604 0.0
C2724 C 0.67124 0.84078 0.23647 0.0
C2725 C 0.63222 0.82599 0.22474 0.0
C2726 C 0.66786 0.85225 0.24448 0.0
C2727 C 0.672 0.85321 0.257 0.0
C2728 C 0.67966 0.84275 0.26175 0.0
C2729 C 0.683 0.83125 0.25369 0.0
C2730 C 0.67891 0.83035 0.24117 0.0
H2731 H 0.6189 0.81729 0.21879 0.0
H2732 H 0.63337 0.81743 0.23174 0.0
H2733 H 0.63148 0.83777 0.22941 0.0
H2734 H 0.66222 0.86065 0.24104 0.0
H2735 H 0.66915 0.86211 0.26296 0.0
H2736 H 0.18559 0.82905 0.15876 0.0
H2737 H 0.17675 0.82908 0.17943 0.0
H2738 H 0.23427 0.85065 0.19379 0.0
H2739 H 0.24321 0.85057 0.17322 0.0
H2740 H 0.18053 0.81065 0.19883 0.0
H2741 H 0.22131 0.88743 0.21038 0.0
H2742 H 0.21659 0.87673 0.19501 0.0
H2743 H 0.23506 0.87767 0.20507 0.0
C2744 C 0.19636 0.83372 0.16631 0.0
C2745 C 0.21516 0.83995 0.16429 0.0
C2746 C 0.19128 0.8338 0.17813 0.0
C2747 C 0.20489 0.84019 0.18817 0.0
C2748 C 0.22359 0.84611 0.18619 0.0
H2749 H 0.20573 0.85227 0.26648 0.0
H2750 H 0.21324 0.85088 0.2456 0.0
C2751 C 0.22868 0.84606 0.1744 0.0
C2752 C 0.19953 0.84036 0.20072 0.0
H2753 H 0.20845 0.86897 0.22663 0.0
C2754 C 0.18653 0.82342 0.20489 0.0
C2755 C 0.20738 0.85701 0.20864 0.0
C2756 C 0.22073 0.87578 0.20454 0.0
C2757 C 0.18154 0.82261 0.21683 0.0
C2758 C 0.18952 0.83925 0.22478 0.0
C2759 C 0.20241 0.85621 0.22057 0.0
C2760 C 0.18471 0.83944 0.23748 0.0
C2761 C 0.16815 0.80386 0.22093 0.0
C2762 C 0.16618 0.83356 0.2399 0.0
C2763 C 0.1618 0.8342 0.25185 0.0
C2764 C 0.1759 0.84087 0.26167 0.0
C2765 C 0.19446 0.84678 0.25919 0.0
C2766 C 0.19881 0.84612 0.24724 0.0
H2767 H 0.16732 0.79218 0.21498 0.0
H2768 H 0.17243 0.8028 0.2304 0.0
H2769 H 0.1539 0.80214 0.22057 0.0
H2770 H 0.15509 0.82868 0.23253 0.0
H2771 H 0.14734 0.82938 0.25339 0.0
H2772 H 0.17369 0.37198 0.16296 0.0
H2773 H 0.17077 0.36214 0.18343 0.0
H2774 H 0.23075 0.39569 0.1919 0.0
H2775 H 0.23374 0.40625 0.17155 0.0
H2776 H 0.1848 0.34355 0.19576 0.0
H2777 H 0.21198 0.41438 0.21928 0.0
H2778 H 0.2058 0.40932 0.20309 0.0
H2779 H 0.22781 0.41251 0.20966 0.0
C2780 C 0.18629 0.37744 0.16919 0.0
C2781 C 0.20394 0.39016 0.1656 0.0
C2782 C 0.18459 0.37166 0.18089 0.0
C2783 C 0.20048 0.37843 0.18933 0.0
C2784 C 0.21822 0.39058 0.18566 0.0
H2785 H 0.19782 0.33041 0.25835 0.0
H2786 H 0.20415 0.34026 0.23796 0.0
C2787 C 0.21993 0.39643 0.17395 0.0
C2788 C 0.1983 0.37281 0.20194 0.0
H2789 H 0.20549 0.39 0.23171 0.0
C2790 C 0.18937 0.35371 0.20362 0.0
C2791 C 0.20401 0.38604 0.21221 0.0
C2792 C 0.21278 0.4067 0.21102 0.0
C2793 C 0.18602 0.34749 0.21525 0.0
C2794 C 0.19206 0.36074 0.22554 0.0
C2795 C 0.20099 0.37984 0.22385 0.0
C2796 C 0.18868 0.35507 0.23809 0.0
C2797 C 0.17549 0.32674 0.21633 0.0
C2798 C 0.17838 0.36058 0.24517 0.0
C2799 C 0.17483 0.35507 0.25689 0.0
C2800 C 0.18153 0.34391 0.26181 0.0
C2801 C 0.19214 0.33869 0.25477 0.0
C2802 C 0.19575 0.3443 0.24308 0.0
H2803 H 0.16757 0.31866 0.20758 0.0
H2804 H 0.18565 0.32217 0.21905 0.0
H2805 H 0.16548 0.32324 0.22332 0.0
H2806 H 0.1728 0.36893 0.24156 0.0
H2807 H 0.16648 0.35922 0.26198 0.0
H2808 H 0.82069 0.60902 0.85706 0.0
H2809 H 0.82986 0.61984 0.83716 0.0
H2810 H 0.79929 0.64952 0.83886 0.0
H2811 H 0.7906 0.63933 0.85887 0.0
H2812 H 0.80698 0.61353 0.81594 0.0
H2813 H 0.84997 0.68951 0.83001 0.0
H2814 H 0.843 0.67223 0.84076 0.0
H2815 H 0.82674 0.679 0.83473 0.0
C2816 C 0.81616 0.6181 0.8533 0.0
C2817 C 0.80492 0.62331 0.85964 0.0
C2818 C 0.82131 0.62417 0.84187 0.0
C2819 C 0.81549 0.63571 0.83655 0.0
C2820 C 0.80426 0.64091 0.84284 0.0
H2821 H 0.82599 0.68505 0.76839 0.0
H2822 H 0.81871 0.67442 0.78851 0.0
C2823 C 0.7991 0.63486 0.85425 0.0
C2824 C 0.82063 0.64182 0.82427 0.0
H2825 H 0.84226 0.68046 0.8088 0.0
C2826 C 0.81482 0.62816 0.81439 0.0
C2827 C 0.83081 0.66092 0.82222 0.0
C2828 C 0.83816 0.67628 0.8325 0.0
C2829 C 0.81847 0.63306 0.8025 0.0
C2830 C 0.82856 0.65217 0.80043 0.0
C2831 C 0.8345 0.66582 0.81035 0.0
C2832 C 0.8329 0.65836 0.78807 0.0
C2833 C 0.81097 0.6177 0.79221 0.0
C2834 C 0.84345 0.65304 0.7811 0.0
C2835 C 0.84763 0.6591 0.76955 0.0
C2836 C 0.84155 0.67083 0.76477 0.0
C2837 C 0.83109 0.67622 0.77182 0.0
C2838 C 0.82685 0.67009 0.78333 0.0
H2839 H 0.79939 0.60439 0.7948 0.0
H2840 H 0.80573 0.62164 0.78408 0.0
H2841 H 0.82241 0.61517 0.78974 0.0
H2842 H 0.8487 0.64439 0.78465 0.0
H2843 H 0.85597 0.65492 0.76448 0.0
H2844 H 0.35076 0.14098 0.86341 0.0
H2845 H 0.34469 0.14139 0.84161 0.0
H2846 H 0.37912 0.20142 0.84537 0.0
H2847 H 0.38583 0.20111 0.86709 0.0
H2848 H 0.32833 0.15912 0.82938 0.0
H2849 H 0.40162 0.1857 0.81847 0.0
H2850 H 0.39385 0.17677 0.83276 0.0
H2851 H 0.39901 0.19998 0.83008 0.0
C2852 C 0.35721 0.15426 0.85959 0.0
C2853 C 0.36891 0.171 0.86701 0.0
C2854 C 0.35362 0.15448 0.84714 0.0
C2855 C 0.36171 0.1714 0.84183 0.0
C2856 C 0.37303 0.18817 0.84923 0.0
H2857 H 0.35637 0.19885 0.76747 0.0
H2858 H 0.36314 0.19992 0.78942 0.0
C2859 C 0.37665 0.18798 0.86169 0.0
C2860 C 0.35812 0.17148 0.82857 0.0
H2861 H 0.3797 0.18313 0.80255 0.0
C2862 C 0.33955 0.16433 0.82351 0.0
C2863 C 0.37279 0.17832 0.82093 0.0
C2864 C 0.39293 0.18548 0.82579 0.0
C2865 C 0.33526 0.16402 0.81102 0.0
C2866 C 0.34992 0.17074 0.80336 0.0
C2867 C 0.3685 0.17801 0.80844 0.0
C2868 C 0.34619 0.17004 0.79003 0.0
C2869 C 0.31511 0.15681 0.80618 0.0
C2870 C 0.33479 0.15287 0.78307 0.0
C2871 C 0.33093 0.15222 0.77056 0.0
C2872 C 0.33852 0.16873 0.76472 0.0
C2873 C 0.35038 0.18588 0.77167 0.0
C2874 C 0.35419 0.18652 0.78422 0.0
H2875 H 0.30658 0.15713 0.81346 0.0
H2876 H 0.31415 0.16512 0.79894 0.0
H2877 H 0.30886 0.14209 0.80226 0.0
H2878 H 0.32889 0.13993 0.78731 0.0
H2879 H 0.32206 0.13875 0.76543 0.0
H2880 H 0.77681 0.16511 0.85278 0.0
H2881 H 0.78611 0.16502 0.8323 0.0
H2882 H 0.84378 0.18861 0.84704 0.0
H2883 H 0.83452 0.1882 0.86761 0.0
H2884 H 0.81084 0.19483 0.82037 0.0
H2885 H 0.83545 0.14378 0.82466 0.0
H2886 H 0.82158 0.14698 0.83549 0.0
H2887 H 0.84628 0.16337 0.83604 0.0
C2888 C 0.79145 0.17004 0.85171 0.0
C2889 C 0.80488 0.17652 0.8619 0.0
C2890 C 0.79676 0.17011 0.83997 0.0
C2891 C 0.8156 0.17655 0.83811 0.0
C2892 C 0.8291 0.18324 0.84823 0.0
H2893 H 0.87265 0.1865 0.77291 0.0
H2894 H 0.86485 0.18793 0.7937 0.0
C2895 C 0.8238 0.1832 0.86 0.0
C2896 C 0.82108 0.17658 0.82557 0.0
H2897 H 0.84077 0.15879 0.80658 0.0
C2898 C 0.81734 0.18691 0.81735 0.0
C2899 C 0.82962 0.16629 0.82162 0.0
C2900 C 0.83334 0.15433 0.82986 0.0
C2901 C 0.82206 0.1874 0.80536 0.0
C2902 C 0.83045 0.17699 0.80138 0.0
C2903 C 0.83434 0.16677 0.80962 0.0
C2904 C 0.83513 0.17634 0.78868 0.0
C2905 C 0.81832 0.19934 0.79711 0.0
C2906 C 0.82101 0.16919 0.7789 0.0
C2907 C 0.82541 0.16825 0.76699 0.0
C2908 C 0.84403 0.17433 0.76457 0.0
C2909 C 0.85813 0.18147 0.77441 0.0
C2910 C 0.85371 0.18239 0.78632 0.0
H2911 H 0.81667 0.21018 0.80234 0.0
H2912 H 0.82986 0.20633 0.79127 0.0
H2913 H 0.80512 0.19036 0.79115 0.0
H2914 H 0.80651 0.16404 0.78051 0.0
H2915 H 0.81412 0.16235 0.75969 0.0
H2916 H 0.29159 0.18091 0.49946 0.0
H2917 H 0.29958 0.18123 0.52109 0.0
H2918 H 0.34028 0.16518 0.51262 0.0
H2919 H 0.33276 0.16533 0.49095 0.0
H2920 H 0.29737 0.15185 0.5338 0.0
H2921 H 0.37048 0.21142 0.53719 0.0
H2922 H 0.35355 0.20639 0.52438 0.0
H2923 H 0.3651 0.19291 0.52565 0.0
C2924 C 0.30242 0.17768 0.50219 0.0
C2925 C 0.31164 0.17323 0.49346 0.0
C2926 C 0.30687 0.17774 0.51456 0.0
C2927 C 0.3207 0.17347 0.51847 0.0
C2928 C 0.32979 0.16881 0.5098 0.0
H2929 H 0.36733 0.16831 0.58962 0.0
H2930 H 0.35906 0.16659 0.56786 0.0
C2931 C 0.32533 0.16872 0.49742 0.0
C2932 C 0.32537 0.17365 0.53163 0.0
H2933 H 0.36093 0.19506 0.5546 0.0
C2934 C 0.31124 0.16132 0.53837 0.0
C2935 C 0.34349 0.18601 0.53755 0.0
C2936 C 0.35901 0.20006 0.53087 0.0
C2937 C 0.31482 0.16084 0.55085 0.0
C2938 C 0.33292 0.17326 0.55678 0.0
C2939 C 0.34706 0.18553 0.55003 0.0
C2940 C 0.33749 0.17386 0.57001 0.0
C2941 C 0.2993 0.14679 0.55752 0.0
C2942 C 0.3282 0.17864 0.57845 0.0
C2943 C 0.33296 0.17974 0.59091 0.0
C2944 C 0.34722 0.1762 0.59518 0.0
C2945 C 0.35646 0.17137 0.58667 0.0
C2946 C 0.35169 0.17028 0.57422 0.0
H2947 H 0.28806 0.13521 0.55121 0.0
H2948 H 0.30482 0.14077 0.56422 0.0
H2949 H 0.2929 0.15385 0.56249 0.0
H2950 H 0.31748 0.18186 0.5754 0.0
H2951 H 0.32577 0.1838 0.59719 0.0
H2952 H 0.90911 0.18091 0.50594 0.0
H2953 H 0.90032 0.18166 0.52651 0.0
H2954 H 0.84614 0.17187 0.51201 0.0
H2955 H 0.85485 0.17115 0.49137 0.0
H2956 H 0.89008 0.20546 0.53791 0.0
H2957 H 0.83217 0.13187 0.53551 0.0
H2958 H 0.84885 0.14011 0.52437 0.0
H2959 H 0.82985 0.14494 0.5238 0.0
C2960 C 0.89534 0.179 0.5071 0.0
C2961 C 0.88269 0.17595 0.49696 0.0
C2962 C 0.89031 0.17935 0.51888 0.0
C2963 C 0.87248 0.17657 0.52084 0.0
C2964 C 0.85982 0.17363 0.51075 0.0
H2965 H 0.81826 0.17313 0.58649 0.0
H2966 H 0.82617 0.1734 0.56562 0.0
C2967 C 0.86483 0.17323 0.49894 0.0
C2968 C 0.8674 0.17723 0.53344 0.0
H2969 H 0.83655 0.1514 0.55323 0.0
C2970 C 0.8784 0.19362 0.54127 0.0
C2971 C 0.8521 0.16182 0.53782 0.0
C2972 C 0.84013 0.14362 0.52999 0.0
C2973 C 0.87443 0.1951 0.5533 0.0
C2974 C 0.85928 0.17961 0.55773 0.0
C2975 C 0.84818 0.16327 0.54986 0.0
C2976 C 0.85475 0.17999 0.57052 0.0
C2977 C 0.88629 0.21341 0.56104 0.0
C2978 C 0.86811 0.18348 0.58028 0.0
C2979 C 0.86372 0.1836 0.59227 0.0
C2980 C 0.84575 0.18001 0.59479 0.0
C2981 C 0.83235 0.17633 0.58496 0.0
C2982 C 0.83679 0.1763 0.57299 0.0
H2983 H 0.89338 0.22522 0.55541 0.0
H2984 H 0.87771 0.21648 0.56708 0.0
H2985 H 0.89734 0.21263 0.56678 0.0
H2986 H 0.88194 0.18597 0.57864 0.0
H2987 H 0.87447 0.18662 0.59955 0.0
H2988 H 0.84453 0.69737 0.49536 0.0
H2989 H 0.84134 0.68781 0.51592 0.0
H2990 H 0.89498 0.73616 0.52833 0.0
H2991 H 0.89798 0.74624 0.50786 0.0
H2992 H 0.86306 0.67927 0.53112 0.0
H2993 H 0.86113 0.74089 0.55167 0.0
H2994 H 0.85884 0.73541 0.53548 0.0
H2995 H 0.88157 0.74652 0.54401 0.0
C2996 C 0.85561 0.7061 0.50247 0.0
C2997 C 0.87142 0.72274 0.49992 0.0
C2998 C 0.85381 0.70052 0.51422 0.0
C2999 C 0.86773 0.71143 0.52376 0.0
C3000 C 0.88384 0.7277 0.5212 0.0
H3001 H 0.87423 0.6989 0.60154 0.0
H3002 H 0.88105 0.70922 0.58127 0.0
C3003 C 0.88565 0.73332 0.50943 0.0
C3004 C 0.86523 0.70575 0.53634 0.0
H3005 H 0.86125 0.71971 0.56507 0.0
C3006 C 0.86267 0.68812 0.53854 0.0
C3007 C 0.86472 0.71729 0.54606 0.0
C3008 C 0.86654 0.73601 0.54421 0.0
C3009 C 0.85972 0.68178 0.55015 0.0
C3010 C 0.859 0.69322 0.55982 0.0
C3011 C 0.86182 0.71095 0.55767 0.0
C3012 C 0.85486 0.68688 0.57214 0.0
C3013 C 0.85764 0.66295 0.55198 0.0
C3014 C 0.83774 0.67105 0.57382 0.0
C3015 C 0.83373 0.66518 0.58541 0.0
C3016 C 0.84672 0.67504 0.59564 0.0
C3017 C 0.8638 0.69104 0.59393 0.0
C3018 C 0.86778 0.69692 0.58232 0.0
H3019 H 0.86362 0.65832 0.54476 0.0
H3020 H 0.86464 0.66324 0.56093 0.0
H3021 H 0.84251 0.65243 0.55168 0.0
H3022 H 0.82733 0.66333 0.56617 0.0
H3023 H 0.82027 0.65305 0.58636 0.0
loop_
_geom_bond_atom_site_label_1
_geom_bond_atom_site_label_2
_geom_bond_distance
_geom_bond_site_symmetry_2
_ccdc_geom_bond_type
C0 C1 1.264 . S
C0 C5 1.479 . S
C0 C10 1.465 . S
C1 C0 1.264 . S
C1 C3 1.339 . S
C1 H28 0.931 . S
C2 C3 1.395 . S
C2 C4 1.320 . S
C3 C1 1.339 . S
C3 C2 1.395 . S
C3 H29 0.929 . S
C4 C2 1.320 . S
C4 C5 1.405 . S
C4 H30 0.930 . S
C5 C0 1.479 . S
C5 C4 1.405 . S
C5 H31 0.931 . S
U6 O7 2.454 . S
U6 O8 2.458 . S
U6 C9 2.984 . S
U6 C10 2.847 . S
U6 C23 2.882 . S
U6 O24 2.441 . S
U6 O25 2.420 . S
U6 O26 2.455 . S
U6 O27 2.449 . S
O7 U6 2.454 . S
O7 C9 1.353 . S
O8 U6 2.458 . S
O8 C9 1.286 . S
C9 U6 2.984 . S
C9 O7 1.353 . S
C9 O8 1.286 . S
C9 C11 1.363 . S
C10 C0 1.465 . S
C10 U6 2.847 . S
C10 O24 1.249 . S
C10 O25 1.202 . S
C11 C9 1.363 . S
C11 C13 1.408 . S
C11 C16 1.342 . S
C12 C13 1.310 . S
C12 C15 1.461 . S
C12 H32 0.932 . S
C13 C11 1.408 . S
C13 C12 1.310 . S
C13 H33 0.930 . S
C14 C15 1.474 . S
C14 C16 1.285 . S
C14 H34 0.929 . S
C15 C12 1.461 . S
C15 C14 1.474 . S
C16 C11 1.342 . S
C16 C14 1.285 . S
C16 H35 0.930 . S
C17 C20 1.424 . S
C17 C22 1.245 . S
C17 C23 1.428 . S
C18 C21 1.260 . S
C18 C22 1.477 . S
C18 H36 0.932 . S
C19 C20 1.384 . S
C19 C21 1.479 . S
C19 H37 0.929 . S
C20 C17 1.424 . S
C20 C19 1.384 . S
C20 H38 0.928 . S
C21 C18 1.260 . S
C21 C19 1.479 . S
C22 C17 1.245 . S
C22 C18 1.477 . S
C22 H39 0.932 . S
C23 U6 2.882 . S
C23 C17 1.428 . S
C23 O26 1.301 . S
C23 O27 1.282 . S
O24 U6 2.441 . S
O24 C10 1.249 . S
O25 U6 2.420 . S
O25 C10 1.202 . S
O26 U6 2.455 . S
O26 C23 1.301 . S
O27 U6 2.449 . S
O27 C23 1.282 . S
H28 C1 0.931 . S
H29 C3 0.929 . S
H30 C4 0.930 . S
H31 C5 0.931 . S
H32 C12 0.932 . S
H33 C13 0.930 . S
H34 C14 0.929 . S
H35 C16 0.930 . S
H36 C18 0.932 . S
H37 C19 0.929 . S
H38 C20 0.928 . S
H39 C22 0.932 . S
C40 C41 1.264 . S
C40 C45 1.479 . S
C40 C50 1.465 . S
C41 C40 1.264 . S
C41 C43 1.339 . S
C41 H68 0.931 . S
C42 C43 1.395 . S
C42 C44 1.320 . S
C43 C41 1.339 . S
C43 C42 1.395 . S
C43 H69 0.929 . S
C44 C42 1.320 . S
C44 C45 1.405 . S
C44 H70 0.930 . S
C45 C40 1.479 . S
C45 C44 1.405 . S
C45 H71 0.931 . S
U46 O47 2.454 . S
U46 O48 2.458 . S
U46 C49 2.984 . S
U46 C50 2.847 . S
U46 C63 2.882 . S
U46 O64 2.441 . S
U46 O65 2.420 . S
U46 O66 2.455 . S
U46 O67 2.449 . S
O47 U46 2.454 . S
O47 C49 1.353 . S
O48 U46 2.458 . S
O48 C49 1.286 . S
C49 U46 2.984 . S
C49 O47 1.353 . S
C49 O48 1.286 . S
C49 C51 1.363 . S
C50 C40 1.465 . S
C50 U46 2.847 . S
C50 O64 1.249 . S
C50 O65 1.202 . S
C51 C49 1.363 . S
C51 C53 1.408 . S
C51 C56 1.342 . S
C52 C53 1.310 . S
C52 C55 1.461 . S
C52 H72 0.932 . S
C53 C51 1.408 . S
C53 C52 1.310 . S
C53 H73 0.930 . S
C54 C55 1.474 . S
C54 C56 1.285 . S
C54 H74 0.929 . S
C55 C52 1.461 . S
C55 C54 1.474 . S
C56 C51 1.342 . S
C56 C54 1.285 . S
C56 H75 0.930 . S
C57 C60 1.424 . S
C57 C62 1.245 . S
C57 C63 1.428 . S
C58 C61 1.260 . S
C58 C62 1.477 . S
C58 H76 0.932 . S
C59 C60 1.384 . S
C59 C61 1.479 . S
C59 H77 0.929 . S
C60 C57 1.424 . S
C60 C59 1.384 . S
C60 H78 0.928 . S
C61 C58 1.260 . S
C61 C59 1.479 . S
C62 C57 1.245 . S
C62 C58 1.477 . S
C62 H79 0.932 . S
C63 U46 2.882 . S
C63 C57 1.428 . S
C63 O66 1.301 . S
C63 O67 1.282 . S
O64 U46 2.441 . S
O64 C50 1.249 . S
O65 U46 2.420 . S
O65 C50 1.202 . S
O66 U46 2.455 . S
O66 C63 1.301 . S
O67 U46 2.449 . S
O67 C63 1.282 . S
H68 C41 0.931 . S
H69 C43 0.929 . S
H70 C44 0.930 . S
H71 C45 0.931 . S
H72 C52 0.932 . S
H73 C53 0.930 . S
H74 C54 0.929 . S
H75 C56 0.930 . S
H76 C58 0.932 . S
H77 C59 0.929 . S
H78 C60 0.928 . S
H79 C62 0.932 . S
C80 C81 1.264 . S
C80 C85 1.479 . S
C80 C90 1.465 . S
C81 C80 1.264 . S
C81 C83 1.339 . S
C81 H108 0.931 . S
C82 C83 1.395 . S
C82 C84 1.320 . S
C83 C81 1.339 . S
C83 C82 1.395 . S
C83 H109 0.929 . S
C84 C82 1.320 . S
C84 C85 1.405 . S
C84 H110 0.930 . S
C85 C80 1.479 . S
C85 C84 1.405 . S
C85 H111 0.931 . S
U86 O87 2.454 . S
U86 O88 2.458 . S
U86 C89 2.984 . S
U86 C90 2.847 . S
U86 C103 2.882 . S
U86 O104 2.441 . S
U86 O105 2.420 . S
U86 O106 2.455 . S
U86 O107 2.449 . S
O87 U86 2.454 . S
O87 C89 1.353 . S
O88 U86 2.458 . S
O88 C89 1.286 . S
C89 U86 2.984 . S
C89 O87 1.353 . S
C89 O88 1.286 . S
C89 C91 1.363 . S
C90 C80 1.465 . S
C90 U86 2.847 . S
C90 O104 1.249 . S
C90 O105 1.202 . S
C91 C89 1.363 . S
C91 C93 1.408 . S
C91 C96 1.342 . S
C92 C93 1.310 . S
C92 C95 1.461 . S
C92 H112 0.932 . S
C93 C91 1.408 . S
C93 C92 1.310 . S
C93 H113 0.930 . S
C94 C95 1.474 . S
C94 C96 1.285 . S
C94 H114 0.929 . S
C95 C92 1.461 . S
C95 C94 1.474 . S
C96 C91 1.342 . S
C96 C94 1.285 . S
C96 H115 0.930 . S
C97 C100 1.424 . S
C97 C102 1.245 . S
C97 C103 1.428 . S
C98 C101 1.260 . S
C98 C102 1.477 . S
C98 H116 0.932 . S
C99 C100 1.384 . S
C99 C101 1.479 . S
C99 H117 0.929 . S
C100 C97 1.424 . S
C100 C99 1.384 . S
C100 H118 0.928 . S
C101 C98 1.260 . S
C101 C99 1.479 . S
C102 C97 1.245 . S
C102 C98 1.477 . S
C102 H119 0.932 . S
C103 U86 2.882 . S
C103 C97 1.428 . S
C103 O106 1.301 . S
C103 O107 1.282 . S
O104 U86 2.441 . S
O104 C90 1.249 . S
O105 U86 2.420 . S
O105 C90 1.202 . S
O106 U86 2.455 . S
O106 C103 1.301 . S
O107 U86 2.449 . S
O107 C103 1.282 . S
H108 C81 0.931 . S
H109 C83 0.929 . S
H110 C84 0.930 . S
H111 C85 0.931 . S
H112 C92 0.932 . S
H113 C93 0.930 . S
H114 C94 0.929 . S
H115 C96 0.930 . S
H116 C98 0.932 . S
H117 C99 0.929 . S
H118 C100 0.928 . S
H119 C102 0.932 . S
C120 C121 1.264 . S
C120 C125 1.479 . S
C120 C130 1.465 . S
C121 C120 1.264 . S
C121 C123 1.339 . S
C121 H148 0.931 . S
C122 C123 1.395 . S
C122 C124 1.320 . S
C123 C121 1.339 . S
C123 C122 1.395 . S
C123 H149 0.929 . S
C124 C122 1.320 . S
C124 C125 1.405 . S
C124 H150 0.930 . S
C125 C120 1.479 . S
C125 C124 1.405 . S
C125 H151 0.931 . S
U126 O127 2.454 . S
U126 O128 2.458 . S
U126 C129 2.984 . S
U126 C130 2.847 . S
U126 C143 2.882 . S
U126 O144 2.441 . S
U126 O145 2.420 . S
U126 O146 2.455 . S
U126 O147 2.449 . S
O127 U126 2.454 . S
O127 C129 1.353 . S
O128 U126 2.458 . S
O128 C129 1.286 . S
C129 U126 2.984 . S
C129 O127 1.353 . S
C129 O128 1.286 . S
C129 C131 1.363 . S
C130 C120 1.465 . S
C130 U126 2.847 . S
C130 O144 1.249 . S
C130 O145 1.202 . S
C131 C129 1.363 . S
C131 C133 1.408 . S
C131 C136 1.342 . S
C132 C133 1.310 . S
C132 C135 1.461 . S
C132 H152 0.932 . S
C133 C131 1.408 . S
C133 C132 1.310 . S
C133 H153 0.930 . S
C134 C135 1.474 . S
C134 C136 1.285 . S
C134 H154 0.929 . S
C135 C132 1.461 . S
C135 C134 1.474 . S
C136 C131 1.342 . S
C136 C134 1.285 . S
C136 H155 0.930 . S
C137 C140 1.424 . S
C137 C142 1.245 . S
C137 C143 1.428 . S
C138 C141 1.260 . S
C138 C142 1.477 . S
C138 H156 0.932 . S
C139 C140 1.384 . S
C139 C141 1.479 . S
C139 H157 0.929 . S
C140 C137 1.424 . S
C140 C139 1.384 . S
C140 H158 0.928 . S
C141 C138 1.260 . S
C141 C139 1.479 . S
C142 C137 1.245 . S
C142 C138 1.477 . S
C142 H159 0.932 . S
C143 U126 2.882 . S
C143 C137 1.428 . S
C143 O146 1.301 . S
C143 O147 1.282 . S
O144 U126 2.441 . S
O144 C130 1.249 . S
O145 U126 2.420 . S
O145 C130 1.202 . S
O146 U126 2.455 . S
O146 C143 1.301 . S
O147 U126 2.449 . S
O147 C143 1.282 . S
H148 C121 0.931 . S
H149 C123 0.929 . S
H150 C124 0.930 . S
H151 C125 0.931 . S
H152 C132 0.932 . S
H153 C133 0.930 . S
H154 C134 0.929 . S
H155 C136 0.930 . S
H156 C138 0.932 . S
H157 C139 0.929 . S
H158 C140 0.928 . S
H159 C142 0.932 . S
C160 C161 1.264 . S
C160 C165 1.479 . S
C160 C170 1.465 . S
C161 C160 1.264 . S
C161 C163 1.339 . S
C161 H188 0.931 . S
C162 C163 1.395 . S
C162 C164 1.320 . S
C163 C161 1.339 . S
C163 C162 1.395 . S
C163 H189 0.929 . S
C164 C162 1.320 . S
C164 C165 1.405 . S
C164 H190 0.930 . S
C165 C160 1.479 . S
C165 C164 1.405 . S
C165 H191 0.931 . S
U166 O167 2.454 . S
U166 O168 2.458 . S
U166 C169 2.984 . S
U166 C170 2.847 . S
U166 C183 2.882 . S
U166 O184 2.441 . S
U166 O185 2.420 . S
U166 O186 2.455 . S
U166 O187 2.449 . S
O167 U166 2.454 . S
O167 C169 1.353 . S
O168 U166 2.458 . S
O168 C169 1.286 . S
C169 U166 2.984 . S
C169 O167 1.353 . S
C169 O168 1.286 . S
C169 C171 1.363 . S
C170 C160 1.465 . S
C170 U166 2.847 . S
C170 O184 1.249 . S
C170 O185 1.202 . S
C171 C169 1.363 . S
C171 C173 1.408 . S
C171 C176 1.342 . S
C172 C173 1.310 . S
C172 C175 1.461 . S
C172 H192 0.932 . S
C173 C171 1.408 . S
C173 C172 1.310 . S
C173 H193 0.930 . S
C174 C175 1.474 . S
C174 C176 1.285 . S
C174 H194 0.929 . S
C175 C172 1.461 . S
C175 C174 1.474 . S
C176 C171 1.342 . S
C176 C174 1.285 . S
C176 H195 0.930 . S
C177 C180 1.424 . S
C177 C182 1.245 . S
C177 C183 1.428 . S
C178 C181 1.260 . S
C178 C182 1.477 . S
C178 H196 0.932 . S
C179 C180 1.384 . S
C179 C181 1.479 . S
C179 H197 0.929 . S
C180 C177 1.424 . S
C180 C179 1.384 . S
C180 H198 0.928 . S
C181 C178 1.260 . S
C181 C179 1.479 . S
C182 C177 1.245 . S
C182 C178 1.477 . S
C182 H199 0.932 . S
C183 U166 2.882 . S
C183 C177 1.428 . S
C183 O186 1.301 . S
C183 O187 1.282 . S
O184 U166 2.441 . S
O184 C170 1.249 . S
O185 U166 2.420 . S
O185 C170 1.202 . S
O186 U166 2.455 . S
O186 C183 1.301 . S
O187 U166 2.449 . S
O187 C183 1.282 . S
H188 C161 0.931 . S
H189 C163 0.929 . S
H190 C164 0.930 . S
H191 C165 0.931 . S
H192 C172 0.932 . S
H193 C173 0.930 . S
H194 C174 0.929 . S
H195 C176 0.930 . S
H196 C178 0.932 . S
H197 C179 0.929 . S
H198 C180 0.928 . S
H199 C182 0.932 . S
C200 C201 1.264 . S
C200 C205 1.479 . S
C200 C210 1.465 . S
C201 C200 1.264 . S
C201 C203 1.339 . S
C201 H228 0.931 . S
C202 C203 1.395 . S
C202 C204 1.320 . S
C203 C201 1.339 . S
C203 C202 1.395 . S
C203 H229 0.929 . S
C204 C202 1.320 . S
C204 C205 1.405 . S
C204 H230 0.930 . S
C205 C200 1.479 . S
C205 C204 1.405 . S
C205 H231 0.931 . S
U206 O207 2.454 . S
U206 O208 2.458 . S
U206 C209 2.984 . S
U206 C210 2.847 . S
U206 C223 2.882 . S
U206 O224 2.441 . S
U206 O225 2.420 . S
U206 O226 2.455 . S
U206 O227 2.449 . S
O207 U206 2.454 . S
O207 C209 1.353 . S
O208 U206 2.458 . S
O208 C209 1.286 . S
C209 U206 2.984 . S
C209 O207 1.353 . S
C209 O208 1.286 . S
C209 C211 1.363 . S
C210 C200 1.465 . S
C210 U206 2.847 . S
C210 O224 1.249 . S
C210 O225 1.202 . S
C211 C209 1.363 . S
C211 C213 1.408 . S
C211 C216 1.342 . S
C212 C213 1.310 . S
C212 C215 1.461 . S
C212 H232 0.932 . S
C213 C211 1.408 . S
C213 C212 1.310 . S
C213 H233 0.930 . S
C214 C215 1.474 . S
C214 C216 1.285 . S
C214 H234 0.929 . S
C215 C212 1.461 . S
C215 C214 1.474 . S
C216 C211 1.342 . S
C216 C214 1.285 . S
C216 H235 0.930 . S
C217 C220 1.424 . S
C217 C222 1.245 . S
C217 C223 1.428 . S
C218 C221 1.260 . S
C218 C222 1.477 . S
C218 H236 0.932 . S
C219 C220 1.384 . S
C219 C221 1.479 . S
C219 H237 0.929 . S
C220 C217 1.424 . S
C220 C219 1.384 . S
C220 H238 0.928 . S
C221 C218 1.260 . S
C221 C219 1.479 . S
C222 C217 1.245 . S
C222 C218 1.477 . S
C222 H239 0.932 . S
C223 U206 2.882 . S
C223 C217 1.428 . S
C223 O226 1.301 . S
C223 O227 1.282 . S
O224 U206 2.441 . S
O224 C210 1.249 . S
O225 U206 2.420 . S
O225 C210 1.202 . S
O226 U206 2.455 . S
O226 C223 1.301 . S
O227 U206 2.449 . S
O227 C223 1.282 . S
H228 C201 0.931 . S
H229 C203 0.929 . S
H230 C204 0.930 . S
H231 C205 0.931 . S
H232 C212 0.932 . S
H233 C213 0.930 . S
H234 C214 0.929 . S
H235 C216 0.930 . S
H236 C218 0.932 . S
H237 C219 0.929 . S
H238 C220 0.928 . S
H239 C222 0.932 . S
C240 C241 1.264 . S
C240 C245 1.479 . S
C240 C250 1.465 . S
C241 C240 1.264 . S
C241 C243 1.339 . S
C241 H268 0.931 . S
C242 C243 1.395 . S
C242 C244 1.320 . S
C243 C241 1.339 . S
C243 C242 1.395 . S
C243 H269 0.929 . S
C244 C242 1.320 . S
C244 C245 1.405 . S
C244 H270 0.930 . S
C245 C240 1.479 . S
C245 C244 1.405 . S
C245 H271 0.931 . S
U246 O247 2.454 . S
U246 O248 2.458 . S
U246 C249 2.984 . S
U246 C250 2.847 . S
U246 C263 2.882 . S
U246 O264 2.441 . S
U246 O265 2.420 . S
U246 O266 2.455 . S
U246 O267 2.449 . S
O247 U246 2.454 . S
O247 C249 1.353 . S
O248 U246 2.458 . S
O248 C249 1.286 . S
C249 U246 2.984 . S
C249 O247 1.353 . S
C249 O248 1.286 . S
C249 C251 1.363 . S
C250 C240 1.465 . S
C250 U246 2.847 . S
C250 O264 1.249 . S
C250 O265 1.202 . S
C251 C249 1.363 . S
C251 C253 1.408 . S
C251 C256 1.342 . S
C252 C253 1.310 . S
C252 C255 1.461 . S
C252 H272 0.932 . S
C253 C251 1.408 . S
C253 C252 1.310 . S
C253 H273 0.930 . S
C254 C255 1.474 . S
C254 C256 1.285 . S
C254 H274 0.929 . S
C255 C252 1.461 . S
C255 C254 1.474 . S
C256 C251 1.342 . S
C256 C254 1.285 . S
C256 H275 0.930 . S
C257 C260 1.424 . S
C257 C262 1.245 . S
C257 C263 1.428 . S
C258 C261 1.260 . S
C258 C262 1.477 . S
C258 H276 0.932 . S
C259 C260 1.384 . S
C259 C261 1.479 . S
C259 H277 0.929 . S
C260 C257 1.424 . S
C260 C259 1.384 . S
C260 H278 0.928 . S
C261 C258 1.260 . S
C261 C259 1.479 . S
C262 C257 1.245 . S
C262 C258 1.477 . S
C262 H279 0.932 . S
C263 U246 2.882 . S
C263 C257 1.428 . S
C263 O266 1.301 . S
C263 O267 1.282 . S
O264 U246 2.441 . S
O264 C250 1.249 . S
O265 U246 2.420 . S
O265 C250 1.202 . S
O266 U246 2.455 . S
O266 C263 1.301 . S
O267 U246 2.449 . S
O267 C263 1.282 . S
H268 C241 0.931 . S
H269 C243 0.929 . S
H270 C244 0.930 . S
H271 C245 0.931 . S
H272 C252 0.932 . S
H273 C253 0.930 . S
H274 C254 0.929 . S
H275 C256 0.930 . S
H276 C258 0.932 . S
H277 C259 0.929 . S
H278 C260 0.928 . S
H279 C262 0.932 . S
C280 C281 1.264 . S
C280 C285 1.479 . S
C280 C290 1.465 . S
C281 C280 1.264 . S
C281 C283 1.339 . S
C281 H308 0.931 . S
C282 C283 1.395 . S
C282 C284 1.320 . S
C283 C281 1.339 . S
C283 C282 1.395 . S
C283 H309 0.929 . S
C284 C282 1.320 . S
C284 C285 1.405 . S
C284 H310 0.930 . S
C285 C280 1.479 . S
C285 C284 1.405 . S
C285 H311 0.931 . S
U286 O287 2.454 . S
U286 O288 2.458 . S
U286 C289 2.984 . S
U286 C290 2.847 . S
U286 C303 2.882 . S
U286 O304 2.441 . S
U286 O305 2.420 . S
U286 O306 2.455 . S
U286 O307 2.449 . S
O287 U286 2.454 . S
O287 C289 1.353 . S
O288 U286 2.458 . S
O288 C289 1.286 . S
C289 U286 2.984 . S
C289 O287 1.353 . S
C289 O288 1.286 . S
C289 C291 1.363 . S
C290 C280 1.465 . S
C290 U286 2.847 . S
C290 O304 1.249 . S
C290 O305 1.202 . S
C291 C289 1.363 . S
C291 C293 1.408 . S
C291 C296 1.342 . S
C292 C293 1.310 . S
C292 C295 1.461 . S
C292 H312 0.932 . S
C293 C291 1.408 . S
C293 C292 1.310 . S
C293 H313 0.930 . S
C294 C295 1.474 . S
C294 C296 1.285 . S
C294 H314 0.929 . S
C295 C292 1.461 . S
C295 C294 1.474 . S
C296 C291 1.342 . S
C296 C294 1.285 . S
C296 H315 0.930 . S
C297 C300 1.424 . S
C297 C302 1.245 . S
C297 C303 1.428 . S
C298 C301 1.260 . S
C298 C302 1.477 . S
C298 H316 0.932 . S
C299 C300 1.384 . S
C299 C301 1.479 . S
C299 H317 0.929 . S
C300 C297 1.424 . S
C300 C299 1.384 . S
C300 H318 0.928 . S
C301 C298 1.260 . S
C301 C299 1.479 . S
C302 C297 1.245 . S
C302 C298 1.477 . S
C302 H319 0.932 . S
C303 U286 2.882 . S
C303 C297 1.428 . S
C303 O306 1.301 . S
C303 O307 1.282 . S
O304 U286 2.441 . S
O304 C290 1.249 . S
O305 U286 2.420 . S
O305 C290 1.202 . S
O306 U286 2.455 . S
O306 C303 1.301 . S
O307 U286 2.449 . S
O307 C303 1.282 . S
H308 C281 0.931 . S
H309 C283 0.929 . S
H310 C284 0.930 . S
H311 C285 0.931 . S
H312 C292 0.932 . S
H313 C293 0.930 . S
H314 C294 0.929 . S
H315 C296 0.930 . S
H316 C298 0.932 . S
H317 C299 0.929 . S
H318 C300 0.928 . S
H319 C302 0.932 . S
C320 C321 1.264 . S
C320 C325 1.479 . S
C320 C330 1.465 . S
C321 C320 1.264 . S
C321 C323 1.339 . S
C321 H348 0.931 . S
C322 C323 1.395 . S
C322 C324 1.320 . S
C323 C321 1.339 . S
C323 C322 1.395 . S
C323 H349 0.929 . S
C324 C322 1.320 . S
C324 C325 1.405 . S
C324 H350 0.930 . S
C325 C320 1.479 . S
C325 C324 1.405 . S
C325 H351 0.931 . S
U326 O327 2.454 . S
U326 O328 2.458 . S
U326 C329 2.984 . S
U326 C330 2.847 . S
U326 C343 2.882 . S
U326 O344 2.441 . S
U326 O345 2.420 . S
U326 O346 2.455 . S
U326 O347 2.449 . S
O327 U326 2.454 . S
O327 C329 1.353 . S
O328 U326 2.458 . S
O328 C329 1.286 . S
C329 U326 2.984 . S
C329 O327 1.353 . S
C329 O328 1.286 . S
C329 C331 1.363 . S
C330 C320 1.465 . S
C330 U326 2.847 . S
C330 O344 1.249 . S
C330 O345 1.202 . S
C331 C329 1.363 . S
C331 C333 1.408 . S
C331 C336 1.342 . S
C332 C333 1.310 . S
C332 C335 1.461 . S
C332 H352 0.932 . S
C333 C331 1.408 . S
C333 C332 1.310 . S
C333 H353 0.930 . S
C334 C335 1.474 . S
C334 C336 1.285 . S
C334 H354 0.929 . S
C335 C332 1.461 . S
C335 C334 1.474 . S
C336 C331 1.342 . S
C336 C334 1.285 . S
C336 H355 0.930 . S
C337 C340 1.424 . S
C337 C342 1.245 . S
C337 C343 1.428 . S
C338 C341 1.260 . S
C338 C342 1.477 . S
C338 H356 0.932 . S
C339 C340 1.384 . S
C339 C341 1.479 . S
C339 H357 0.929 . S
C340 C337 1.424 . S
C340 C339 1.384 . S
C340 H358 0.928 . S
C341 C338 1.260 . S
C341 C339 1.479 . S
C342 C337 1.245 . S
C342 C338 1.477 . S
C342 H359 0.932 . S
C343 U326 2.882 . S
C343 C337 1.428 . S
C343 O346 1.301 . S
C343 O347 1.282 . S
O344 U326 2.441 . S
O344 C330 1.249 . S
O345 U326 2.420 . S
O345 C330 1.202 . S
O346 U326 2.455 . S
O346 C343 1.301 . S
O347 U326 2.449 . S
O347 C343 1.282 . S
H348 C321 0.931 . S
H349 C323 0.929 . S
H350 C324 0.930 . S
H351 C325 0.931 . S
H352 C332 0.932 . S
H353 C333 0.930 . S
H354 C334 0.929 . S
H355 C336 0.930 . S
H356 C338 0.932 . S
H357 C339 0.929 . S
H358 C340 0.928 . S
H359 C342 0.932 . S
C360 C361 1.264 . S
C360 C365 1.479 . S
C360 C370 1.465 . S
C361 C360 1.264 . S
C361 C363 1.339 . S
C361 H388 0.931 . S
C362 C363 1.395 . S
C362 C364 1.320 . S
C363 C361 1.339 . S
C363 C362 1.395 . S
C363 H389 0.929 . S
C364 C362 1.320 . S
C364 C365 1.405 . S
C364 H390 0.930 . S
C365 C360 1.479 . S
C365 C364 1.405 . S
C365 H391 0.931 . S
U366 O367 2.454 . S
U366 O368 2.458 . S
U366 C369 2.984 . S
U366 C370 2.847 . S
U366 C383 2.882 . S
U366 O384 2.441 . S
U366 O385 2.420 . S
U366 O386 2.455 . S
U366 O387 2.449 . S
O367 U366 2.454 . S
O367 C369 1.353 . S
O368 U366 2.458 . S
O368 C369 1.286 . S
C369 U366 2.984 . S
C369 O367 1.353 . S
C369 O368 1.286 . S
C369 C371 1.363 . S
C370 C360 1.465 . S
C370 U366 2.847 . S
C370 O384 1.249 . S
C370 O385 1.202 . S
C371 C369 1.363 . S
C371 C373 1.408 . S
C371 C376 1.342 . S
C372 C373 1.310 . S
C372 C375 1.461 . S
C372 H392 0.932 . S
C373 C371 1.408 . S
C373 C372 1.310 . S
C373 H393 0.930 . S
C374 C375 1.474 . S
C374 C376 1.285 . S
C374 H394 0.929 . S
C375 C372 1.461 . S
C375 C374 1.474 . S
C376 C371 1.342 . S
C376 C374 1.285 . S
C376 H395 0.930 . S
C377 C380 1.424 . S
C377 C382 1.245 . S
C377 C383 1.428 . S
C378 C381 1.260 . S
C378 C382 1.477 . S
C378 H396 0.932 . S
C379 C380 1.384 . S
C379 C381 1.479 . S
C379 H397 0.929 . S
C380 C377 1.424 . S
C380 C379 1.384 . S
C380 H398 0.928 . S
C381 C378 1.260 . S
C381 C379 1.479 . S
C382 C377 1.245 . S
C382 C378 1.477 . S
C382 H399 0.932 . S
C383 U366 2.882 . S
C383 C377 1.428 . S
C383 O386 1.301 . S
C383 O387 1.282 . S
O384 U366 2.441 . S
O384 C370 1.249 . S
O385 U366 2.420 . S
O385 C370 1.202 . S
O386 U366 2.455 . S
O386 C383 1.301 . S
O387 U366 2.449 . S
O387 C383 1.282 . S
H388 C361 0.931 . S
H389 C363 0.929 . S
H390 C364 0.930 . S
H391 C365 0.931 . S
H392 C372 0.932 . S
H393 C373 0.930 . S
H394 C374 0.929 . S
H395 C376 0.930 . S
H396 C378 0.932 . S
H397 C379 0.929 . S
H398 C380 0.928 . S
H399 C382 0.932 . S
C400 C401 1.264 . S
C400 C405 1.479 . S
C400 C410 1.465 . S
C401 C400 1.264 . S
C401 C403 1.339 . S
C401 H428 0.931 . S
C402 C403 1.395 . S
C402 C404 1.320 . S
C403 C401 1.339 . S
C403 C402 1.395 . S
C403 H429 0.929 . S
C404 C402 1.320 . S
C404 C405 1.405 . S
C404 H430 0.930 . S
C405 C400 1.479 . S
C405 C404 1.405 . S
C405 H431 0.931 . S
U406 O407 2.454 . S
U406 O408 2.458 . S
U406 C409 2.984 . S
U406 C410 2.847 . S
U406 C423 2.882 . S
U406 O424 2.441 . S
U406 O425 2.420 . S
U406 O426 2.455 . S
U406 O427 2.449 . S
O407 U406 2.454 . S
O407 C409 1.353 . S
O408 U406 2.458 . S
O408 C409 1.286 . S
C409 U406 2.984 . S
C409 O407 1.353 . S
C409 O408 1.286 . S
C409 C411 1.363 . S
C410 C400 1.465 . S
C410 U406 2.847 . S
C410 O424 1.249 . S
C410 O425 1.202 . S
C411 C409 1.363 . S
C411 C413 1.408 . S
C411 C416 1.342 . S
C412 C413 1.310 . S
C412 C415 1.461 . S
C412 H432 0.932 . S
C413 C411 1.408 . S
C413 C412 1.310 . S
C413 H433 0.930 . S
C414 C415 1.474 . S
C414 C416 1.285 . S
C414 H434 0.929 . S
C415 C412 1.461 . S
C415 C414 1.474 . S
C416 C411 1.342 . S
C416 C414 1.285 . S
C416 H435 0.930 . S
C417 C420 1.424 . S
C417 C422 1.245 . S
C417 C423 1.428 . S
C418 C421 1.260 . S
C418 C422 1.477 . S
C418 H436 0.932 . S
C419 C420 1.384 . S
C419 C421 1.479 . S
C419 H437 0.929 . S
C420 C417 1.424 . S
C420 C419 1.384 . S
C420 H438 0.928 . S
C421 C418 1.260 . S
C421 C419 1.479 . S
C422 C417 1.245 . S
C422 C418 1.477 . S
C422 H439 0.932 . S
C423 U406 2.882 . S
C423 C417 1.428 . S
C423 O426 1.301 . S
C423 O427 1.282 . S
O424 U406 2.441 . S
O424 C410 1.249 . S
O425 U406 2.420 . S
O425 C410 1.202 . S
O426 U406 2.455 . S
O426 C423 1.301 . S
O427 U406 2.449 . S
O427 C423 1.282 . S
H428 C401 0.931 . S
H429 C403 0.929 . S
H430 C404 0.930 . S
H431 C405 0.931 . S
H432 C412 0.932 . S
H433 C413 0.930 . S
H434 C414 0.929 . S
H435 C416 0.930 . S
H436 C418 0.932 . S
H437 C419 0.929 . S
H438 C420 0.928 . S
H439 C422 0.932 . S
C440 C441 1.264 . S
C440 C445 1.479 . S
C440 C450 1.465 . S
C441 C440 1.264 . S
C441 C443 1.339 . S
C441 H468 0.931 . S
C442 C443 1.395 . S
C442 C444 1.320 . S
C443 C441 1.339 . S
C443 C442 1.395 . S
C443 H469 0.929 . S
C444 C442 1.320 . S
C444 C445 1.405 . S
C444 H470 0.930 . S
C445 C440 1.479 . S
C445 C444 1.405 . S
C445 H471 0.931 . S
U446 O447 2.454 . S
U446 O448 2.458 . S
U446 C449 2.984 . S
U446 C450 2.847 . S
U446 C463 2.882 . S
U446 O464 2.441 . S
U446 O465 2.420 . S
U446 O466 2.455 . S
U446 O467 2.449 . S
O447 U446 2.454 . S
O447 C449 1.353 . S
O448 U446 2.458 . S
O448 C449 1.286 . S
C449 U446 2.984 . S
C449 O447 1.353 . S
C449 O448 1.286 . S
C449 C451 1.363 . S
C450 C440 1.465 . S
C450 U446 2.847 . S
C450 O464 1.249 . S
C450 O465 1.202 . S
C451 C449 1.363 . S
C451 C453 1.408 . S
C451 C456 1.342 . S
C452 C453 1.310 . S
C452 C455 1.461 . S
C452 H472 0.932 . S
C453 C451 1.408 . S
C453 C452 1.310 . S
C453 H473 0.930 . S
C454 C455 1.474 . S
C454 C456 1.285 . S
C454 H474 0.929 . S
C455 C452 1.461 . S
C455 C454 1.474 . S
C456 C451 1.342 . S
C456 C454 1.285 . S
C456 H475 0.930 . S
C457 C460 1.424 . S
C457 C462 1.245 . S
C457 C463 1.428 . S
C458 C461 1.260 . S
C458 C462 1.477 . S
C458 H476 0.932 . S
C459 C460 1.384 . S
C459 C461 1.479 . S
C459 H477 0.929 . S
C460 C457 1.424 . S
C460 C459 1.384 . S
C460 H478 0.928 . S
C461 C458 1.260 . S
C461 C459 1.479 . S
C462 C457 1.245 . S
C462 C458 1.477 . S
C462 H479 0.932 . S
C463 U446 2.882 . S
C463 C457 1.428 . S
C463 O466 1.301 . S
C463 O467 1.282 . S
O464 U446 2.441 . S
O464 C450 1.249 . S
O465 U446 2.420 . S
O465 C450 1.202 . S
O466 U446 2.455 . S
O466 C463 1.301 . S
O467 U446 2.449 . S
O467 C463 1.282 . S
H468 C441 0.931 . S
H469 C443 0.929 . S
H470 C444 0.930 . S
H471 C445 0.931 . S
H472 C452 0.932 . S
H473 C453 0.930 . S
H474 C454 0.929 . S
H475 C456 0.930 . S
H476 C458 0.932 . S
H477 C459 0.929 . S
H478 C460 0.928 . S
H479 C462 0.932 . S
C480 C481 1.264 . S
C480 C485 1.479 . S
C480 C490 1.465 . S
C481 C480 1.264 . S
C481 C483 1.339 . S
C481 H508 0.931 . S
C482 C483 1.395 . S
C482 C484 1.320 . S
C483 C481 1.339 . S
C483 C482 1.395 . S
C483 H509 0.929 . S
C484 C482 1.320 . S
C484 C485 1.405 . S
C484 H510 0.930 . S
C485 C480 1.479 . S
C485 C484 1.405 . S
C485 H511 0.931 . S
U486 O487 2.454 . S
U486 O488 2.458 . S
U486 C489 2.984 . S
U486 C490 2.847 . S
U486 C503 2.882 . S
U486 O504 2.441 . S
U486 O505 2.420 . S
U486 O506 2.455 . S
U486 O507 2.449 . S
O487 U486 2.454 . S
O487 C489 1.353 . S
O488 U486 2.458 . S
O488 C489 1.286 . S
C489 U486 2.984 . S
C489 O487 1.353 . S
C489 O488 1.286 . S
C489 C491 1.363 . S
C490 C480 1.465 . S
C490 U486 2.847 . S
C490 O504 1.249 . S
C490 O505 1.202 . S
C491 C489 1.363 . S
C491 C493 1.408 . S
C491 C496 1.342 . S
C492 C493 1.310 . S
C492 C495 1.461 . S
C492 H512 0.932 . S
C493 C491 1.408 . S
C493 C492 1.310 . S
C493 H513 0.930 . S
C494 C495 1.474 . S
C494 C496 1.285 . S
C494 H514 0.929 . S
C495 C492 1.461 . S
C495 C494 1.474 . S
C496 C491 1.342 . S
C496 C494 1.285 . S
C496 H515 0.930 . S
C497 C500 1.424 . S
C497 C502 1.245 . S
C497 C503 1.428 . S
C498 C501 1.260 . S
C498 C502 1.477 . S
C498 H516 0.932 . S
C499 C500 1.384 . S
C499 C501 1.479 . S
C499 H517 0.929 . S
C500 C497 1.424 . S
C500 C499 1.384 . S
C500 H518 0.928 . S
C501 C498 1.260 . S
C501 C499 1.479 . S
C502 C497 1.245 . S
C502 C498 1.477 . S
C502 H519 0.932 . S
C503 U486 2.882 . S
C503 C497 1.428 . S
C503 O506 1.301 . S
C503 O507 1.282 . S
O504 U486 2.441 . S
O504 C490 1.249 . S
O505 U486 2.420 . S
O505 C490 1.202 . S
O506 U486 2.455 . S
O506 C503 1.301 . S
O507 U486 2.449 . S
O507 C503 1.282 . S
H508 C481 0.931 . S
H509 C483 0.929 . S
H510 C484 0.930 . S
H511 C485 0.931 . S
H512 C492 0.932 . S
H513 C493 0.930 . S
H514 C494 0.929 . S
H515 C496 0.930 . S
H516 C498 0.932 . S
H517 C499 0.929 . S
H518 C500 0.928 . S
H519 C502 0.932 . S
C520 C521 1.264 . S
C520 C525 1.479 . S
C520 C530 1.465 . S
C521 C520 1.264 . S
C521 C523 1.339 . S
C521 H548 0.931 . S
C522 C523 1.395 . S
C522 C524 1.320 . S
C523 C521 1.339 . S
C523 C522 1.395 . S
C523 H549 0.929 . S
C524 C522 1.320 . S
C524 C525 1.405 . S
C524 H550 0.930 . S
C525 C520 1.479 . S
C525 C524 1.405 . S
C525 H551 0.931 . S
U526 O527 2.454 . S
U526 O528 2.458 . S
U526 C529 2.984 . S
U526 C530 2.847 . S
U526 C543 2.882 . S
U526 O544 2.441 . S
U526 O545 2.420 . S
U526 O546 2.455 . S
U526 O547 2.449 . S
O527 U526 2.454 . S
O527 C529 1.353 . S
O528 U526 2.458 . S
O528 C529 1.286 . S
C529 U526 2.984 . S
C529 O527 1.353 . S
C529 O528 1.286 . S
C529 C531 1.363 . S
C530 C520 1.465 . S
C530 U526 2.847 . S
C530 O544 1.249 . S
C530 O545 1.202 . S
C531 C529 1.363 . S
C531 C533 1.408 . S
C531 C536 1.342 . S
C532 C533 1.310 . S
C532 C535 1.461 . S
C532 H552 0.932 . S
C533 C531 1.408 . S
C533 C532 1.310 . S
C533 H553 0.930 . S
C534 C535 1.474 . S
C534 C536 1.285 . S
C534 H554 0.929 . S
C535 C532 1.461 . S
C535 C534 1.474 . S
C536 C531 1.342 . S
C536 C534 1.285 . S
C536 H555 0.930 . S
C537 C540 1.424 . S
C537 C542 1.245 . S
C537 C543 1.428 . S
C538 C541 1.260 . S
C538 C542 1.477 . S
C538 H556 0.932 . S
C539 C540 1.384 . S
C539 C541 1.479 . S
C539 H557 0.929 . S
C540 C537 1.424 . S
C540 C539 1.384 . S
C540 H558 0.928 . S
C541 C538 1.260 . S
C541 C539 1.479 . S
C542 C537 1.245 . S
C542 C538 1.477 . S
C542 H559 0.932 . S
C543 U526 2.882 . S
C543 C537 1.428 . S
C543 O546 1.301 . S
C543 O547 1.282 . S
O544 U526 2.441 . S
O544 C530 1.249 . S
O545 U526 2.420 . S
O545 C530 1.202 . S
O546 U526 2.455 . S
O546 C543 1.301 . S
O547 U526 2.449 . S
O547 C543 1.282 . S
H548 C521 0.931 . S
H549 C523 0.929 . S
H550 C524 0.930 . S
H551 C525 0.931 . S
H552 C532 0.932 . S
H553 C533 0.930 . S
H554 C534 0.929 . S
H555 C536 0.930 . S
H556 C538 0.932 . S
H557 C539 0.929 . S
H558 C540 0.928 . S
H559 C542 0.932 . S
C560 C561 1.264 . S
C560 C565 1.479 . S
C560 C570 1.465 . S
C561 C560 1.264 . S
C561 C563 1.339 . S
C561 H588 0.931 . S
C562 C563 1.395 . S
C562 C564 1.320 . S
C563 C561 1.339 . S
C563 C562 1.395 . S
C563 H589 0.929 . S
C564 C562 1.320 . S
C564 C565 1.405 . S
C564 H590 0.930 . S
C565 C560 1.479 . S
C565 C564 1.405 . S
C565 H591 0.931 . S
U566 O567 2.454 . S
U566 O568 2.458 . S
U566 C569 2.984 . S
U566 C570 2.847 . S
U566 C583 2.882 . S
U566 O584 2.441 . S
U566 O585 2.420 . S
U566 O586 2.455 . S
U566 O587 2.449 . S
O567 U566 2.454 . S
O567 C569 1.353 . S
O568 U566 2.458 . S
O568 C569 1.286 . S
C569 U566 2.984 . S
C569 O567 1.353 . S
C569 O568 1.286 . S
C569 C571 1.363 . S
C570 C560 1.465 . S
C570 U566 2.847 . S
C570 O584 1.249 . S
C570 O585 1.202 . S
C571 C569 1.363 . S
C571 C573 1.408 . S
C571 C576 1.342 . S
C572 C573 1.310 . S
C572 C575 1.461 . S
C572 H592 0.932 . S
C573 C571 1.408 . S
C573 C572 1.310 . S
C573 H593 0.930 . S
C574 C575 1.474 . S
C574 C576 1.285 . S
C574 H594 0.929 . S
C575 C572 1.461 . S
C575 C574 1.474 . S
C576 C571 1.342 . S
C576 C574 1.285 . S
C576 H595 0.930 . S
C577 C580 1.424 . S
C577 C582 1.245 . S
C577 C583 1.428 . S
C578 C581 1.260 . S
C578 C582 1.477 . S
C578 H596 0.932 . S
C579 C580 1.384 . S
C579 C581 1.479 . S
C579 H597 0.929 . S
C580 C577 1.424 . S
C580 C579 1.384 . S
C580 H598 0.928 . S
C581 C578 1.260 . S
C581 C579 1.479 . S
C582 C577 1.245 . S
C582 C578 1.477 . S
C582 H599 0.932 . S
C583 U566 2.882 . S
C583 C577 1.428 . S
C583 O586 1.301 . S
C583 O587 1.282 . S
O584 U566 2.441 . S
O584 C570 1.249 . S
O585 U566 2.420 . S
O585 C570 1.202 . S
O586 U566 2.455 . S
O586 C583 1.301 . S
O587 U566 2.449 . S
O587 C583 1.282 . S
H588 C561 0.931 . S
H589 C563 0.929 . S
H590 C564 0.930 . S
H591 C565 0.931 . S
H592 C572 0.932 . S
H593 C573 0.930 . S
H594 C574 0.929 . S
H595 C576 0.930 . S
H596 C578 0.932 . S
H597 C579 0.929 . S
H598 C580 0.928 . S
H599 C582 0.932 . S
C600 C601 1.264 . S
C600 C605 1.479 . S
C600 C610 1.465 . S
C601 C600 1.264 . S
C601 C603 1.339 . S
C601 H628 0.931 . S
C602 C603 1.395 . S
C602 C604 1.320 . S
C603 C601 1.339 . S
C603 C602 1.395 . S
C603 H629 0.929 . S
C604 C602 1.320 . S
C604 C605 1.405 . S
C604 H630 0.930 . S
C605 C600 1.479 . S
C605 C604 1.405 . S
C605 H631 0.931 . S
U606 O607 2.454 . S
U606 O608 2.458 . S
U606 C609 2.984 . S
U606 C610 2.847 . S
U606 C623 2.882 . S
U606 O624 2.441 . S
U606 O625 2.420 . S
U606 O626 2.455 . S
U606 O627 2.449 . S
O607 U606 2.454 . S
O607 C609 1.353 . S
O608 U606 2.458 . S
O608 C609 1.286 . S
C609 U606 2.984 . S
C609 O607 1.353 . S
C609 O608 1.286 . S
C609 C611 1.363 . S
C610 C600 1.465 . S
C610 U606 2.847 . S
C610 O624 1.249 . S
C610 O625 1.202 . S
C611 C609 1.363 . S
C611 C613 1.408 . S
C611 C616 1.342 . S
C612 C613 1.310 . S
C612 C615 1.461 . S
C612 H632 0.932 . S
C613 C611 1.408 . S
C613 C612 1.310 . S
C613 H633 0.930 . S
C614 C615 1.474 . S
C614 C616 1.285 . S
C614 H634 0.929 . S
C615 C612 1.461 . S
C615 C614 1.474 . S
C616 C611 1.342 . S
C616 C614 1.285 . S
C616 H635 0.930 . S
C617 C620 1.424 . S
C617 C622 1.245 . S
C617 C623 1.428 . S
C618 C621 1.260 . S
C618 C622 1.477 . S
C618 H636 0.932 . S
C619 C620 1.384 . S
C619 C621 1.479 . S
C619 H637 0.929 . S
C620 C617 1.424 . S
C620 C619 1.384 . S
C620 H638 0.928 . S
C621 C618 1.260 . S
C621 C619 1.479 . S
C622 C617 1.245 . S
C622 C618 1.477 . S
C622 H639 0.932 . S
C623 U606 2.882 . S
C623 C617 1.428 . S
C623 O626 1.301 . S
C623 O627 1.282 . S
O624 U606 2.441 . S
O624 C610 1.249 . S
O625 U606 2.420 . S
O625 C610 1.202 . S
O626 U606 2.455 . S
O626 C623 1.301 . S
O627 U606 2.449 . S
O627 C623 1.282 . S
H628 C601 0.931 . S
H629 C603 0.929 . S
H630 C604 0.930 . S
H631 C605 0.931 . S
H632 C612 0.932 . S
H633 C613 0.930 . S
H634 C614 0.929 . S
H635 C616 0.930 . S
H636 C618 0.932 . S
H637 C619 0.929 . S
H638 C620 0.928 . S
H639 C622 0.932 . S
C640 C641 1.264 . S
C640 C645 1.479 . S
C640 C650 1.465 . S
C641 C640 1.264 . S
C641 C643 1.339 . S
C641 H668 0.931 . S
C642 C643 1.395 . S
C642 C644 1.320 . S
C643 C641 1.339 . S
C643 C642 1.395 . S
C643 H669 0.929 . S
C644 C642 1.320 . S
C644 C645 1.405 . S
C644 H670 0.930 . S
C645 C640 1.479 . S
C645 C644 1.405 . S
C645 H671 0.931 . S
U646 O647 2.454 . S
U646 O648 2.458 . S
U646 C649 2.984 . S
U646 C650 2.847 . S
U646 C663 2.882 . S
U646 O664 2.441 . S
U646 O665 2.420 . S
U646 O666 2.455 . S
U646 O667 2.449 . S
O647 U646 2.454 . S
O647 C649 1.353 . S
O648 U646 2.458 . S
O648 C649 1.286 . S
C649 U646 2.984 . S
C649 O647 1.353 . S
C649 O648 1.286 . S
C649 C651 1.363 . S
C650 C640 1.465 . S
C650 U646 2.847 . S
C650 O664 1.249 . S
C650 O665 1.202 . S
C651 C649 1.363 . S
C651 C653 1.408 . S
C651 C656 1.342 . S
C652 C653 1.310 . S
C652 C655 1.461 . S
C652 H672 0.932 . S
C653 C651 1.408 . S
C653 C652 1.310 . S
C653 H673 0.930 . S
C654 C655 1.474 . S
C654 C656 1.285 . S
C654 H674 0.929 . S
C655 C652 1.461 . S
C655 C654 1.474 . S
C656 C651 1.342 . S
C656 C654 1.285 . S
C656 H675 0.930 . S
C657 C660 1.424 . S
C657 C662 1.245 . S
C657 C663 1.428 . S
C658 C661 1.260 . S
C658 C662 1.477 . S
C658 H676 0.932 . S
C659 C660 1.384 . S
C659 C661 1.479 . S
C659 H677 0.929 . S
C660 C657 1.424 . S
C660 C659 1.384 . S
C660 H678 0.928 . S
C661 C658 1.260 . S
C661 C659 1.479 . S
C662 C657 1.245 . S
C662 C658 1.477 . S
C662 H679 0.932 . S
C663 U646 2.882 . S
C663 C657 1.428 . S
C663 O666 1.301 . S
C663 O667 1.282 . S
O664 U646 2.441 . S
O664 C650 1.249 . S
O665 U646 2.420 . S
O665 C650 1.202 . S
O666 U646 2.455 . S
O666 C663 1.301 . S
O667 U646 2.449 . S
O667 C663 1.282 . S
H668 C641 0.931 . S
H669 C643 0.929 . S
H670 C644 0.930 . S
H671 C645 0.931 . S
H672 C652 0.932 . S
H673 C653 0.930 . S
H674 C654 0.929 . S
H675 C656 0.930 . S
H676 C658 0.932 . S
H677 C659 0.929 . S
H678 C660 0.928 . S
H679 C662 0.932 . S
C680 C681 1.264 . S
C680 C685 1.479 . S
C680 C690 1.465 . S
C681 C680 1.264 . S
C681 C683 1.339 . S
C681 H708 0.931 . S
C682 C683 1.395 . S
C682 C684 1.320 . S
C683 C681 1.339 . S
C683 C682 1.395 . S
C683 H709 0.929 . S
C684 C682 1.320 . S
C684 C685 1.405 . S
C684 H710 0.930 . S
C685 C680 1.479 . S
C685 C684 1.405 . S
C685 H711 0.931 . S
U686 O687 2.454 . S
U686 O688 2.458 . S
U686 C689 2.984 . S
U686 C690 2.847 . S
U686 C703 2.882 . S
U686 O704 2.441 . S
U686 O705 2.420 . S
U686 O706 2.455 . S
U686 O707 2.449 . S
O687 U686 2.454 . S
O687 C689 1.353 . S
O688 U686 2.458 . S
O688 C689 1.286 . S
C689 U686 2.984 . S
C689 O687 1.353 . S
C689 O688 1.286 . S
C689 C691 1.363 . S
C690 C680 1.465 . S
C690 U686 2.847 . S
C690 O704 1.249 . S
C690 O705 1.202 . S
C691 C689 1.363 . S
C691 C693 1.408 . S
C691 C696 1.342 . S
C692 C693 1.310 . S
C692 C695 1.461 . S
C692 H712 0.932 . S
C693 C691 1.408 . S
C693 C692 1.310 . S
C693 H713 0.930 . S
C694 C695 1.474 . S
C694 C696 1.285 . S
C694 H714 0.929 . S
C695 C692 1.461 . S
C695 C694 1.474 . S
C696 C691 1.342 . S
C696 C694 1.285 . S
C696 H715 0.930 . S
C697 C700 1.424 . S
C697 C702 1.245 . S
C697 C703 1.428 . S
C698 C701 1.260 . S
C698 C702 1.477 . S
C698 H716 0.932 . S
C699 C700 1.384 . S
C699 C701 1.479 . S
C699 H717 0.929 . S
C700 C697 1.424 . S
C700 C699 1.384 . S
C700 H718 0.928 . S
C701 C698 1.260 . S
C701 C699 1.479 . S
C702 C697 1.245 . S
C702 C698 1.477 . S
C702 H719 0.932 . S
C703 U686 2.882 . S
C703 C697 1.428 . S
C703 O706 1.301 . S
C703 O707 1.282 . S
O704 U686 2.441 . S
O704 C690 1.249 . S
O705 U686 2.420 . S
O705 C690 1.202 . S
O706 U686 2.455 . S
O706 C703 1.301 . S
O707 U686 2.449 . S
O707 C703 1.282 . S
H708 C681 0.931 . S
H709 C683 0.929 . S
H710 C684 0.930 . S
H711 C685 0.931 . S
H712 C692 0.932 . S
H713 C693 0.930 . S
H714 C694 0.929 . S
H715 C696 0.930 . S
H716 C698 0.932 . S
H717 C699 0.929 . S
H718 C700 0.928 . S
H719 C702 0.932 . S
Eu720 C729 2.828 . S
Eu720 O731 2.394 . S
Eu720 O733 2.418 . S
Eu720 O738 2.373 1_565 S
Eu720 O741 2.488 . S
Eu720 O742 2.471 1_565 S
Eu720 O743 2.349 1_565 S
Eu721 O730 2.373 1_545 S
Eu721 O734 2.488 . S
Eu721 O735 2.471 1_545 S
Eu721 O736 2.349 1_545 S
Eu721 O739 2.392 . S
Eu721 O740 2.418 . S
Eu721 C750 2.828 . S
C722 O740 1.238 . S
C722 O743 1.267 1_554 S
C723 C724 1.379 1_565 S
C723 C727 1.373 . S
C723 C729 1.505 . S
C724 C723 1.379 1_545 S
C724 C726 1.369 . S
C724 H752 0.930 . S
C725 C727 1.383 . S
C725 C728 1.382 1_565 S
C725 H753 0.930 . S
C726 C724 1.369 . S
C726 C728 1.392 . S
C726 H754 0.930 . S
C727 C723 1.373 . S
C727 C725 1.383 . S
C727 H755 0.931 . S
C728 C725 1.382 1_545 S
C728 C726 1.392 . S
C729 Eu720 2.828 . S
C729 C723 1.505 . S
C729 O741 1.249 . S
C729 O742 1.244 1_565 S
O730 Eu721 2.373 1_565 S
O730 C732 1.258 . S
O731 Eu720 2.394 . S
O731 C732 1.241 1_556 S
C732 O730 1.258 . S
C732 O731 1.241 1_554 S
O733 Eu720 2.418 . S
O733 C737 1.244 1_556 S
O734 Eu721 2.488 . S
O734 C750 1.249 . S
O735 Eu721 2.471 1_565 S
O735 C750 1.244 1_565 S
O736 Eu721 2.349 1_565 S
O736 C737 1.265 . S
C737 O733 1.244 1_554 S
C737 O736 1.265 . S
O738 Eu720 2.373 1_545 S
O738 C751 1.258 . S
O739 Eu721 2.392 . S
O739 C751 1.242 1_554 S
O740 Eu721 2.418 . S
O740 C722 1.238 . S
O741 Eu720 2.488 . S
O741 C729 1.249 . S
O742 Eu720 2.471 1_545 S
O742 C729 1.244 1_545 S
O743 Eu720 2.349 1_545 S
O743 C722 1.267 1_556 S
C744 C745 1.379 1_545 S
C744 C748 1.373 . S
C744 C750 1.505 . S
C745 C744 1.379 1_565 S
C745 C747 1.369 . S
C745 H756 0.930 . S
C746 C748 1.383 . S
C746 C749 1.382 1_545 S
C746 H757 0.930 . S
C747 C745 1.369 . S
C747 C749 1.392 . S
C747 H758 0.930 . S
C748 C744 1.373 . S
C748 C746 1.383 . S
C748 H759 0.931 . S
C749 C746 1.382 1_565 S
C749 C747 1.392 . S
C750 Eu721 2.828 . S
C750 O734 1.249 . S
C750 O735 1.244 1_545 S
C750 C744 1.505 . S
C751 O738 1.258 . S
C751 O739 1.242 1_556 S
H752 C724 0.930 . S
H753 C725 0.930 . S
H754 C726 0.930 . S
H755 C727 0.931 . S
H756 C745 0.930 . S
H757 C746 0.930 . S
H758 C747 0.930 . S
H759 C748 0.931 . S
Eu760 C769 2.828 . S
Eu760 O771 2.392 1_556 S
Eu760 O773 2.418 . S
Eu760 O778 2.373 1_455 S
Eu760 O781 2.488 . S
Eu760 O782 2.471 1_455 S
Eu760 O783 2.349 1_455 S
Eu761 O770 2.373 1_655 S
Eu761 O774 2.488 . S
Eu761 O775 2.471 1_655 S
Eu761 O776 2.349 1_655 S
Eu761 O779 2.445 . S
Eu761 O780 2.418 . S
Eu761 C790 2.828 . S
C762 O780 1.244 1_556 S
C762 O783 1.265 . S
C763 C764 1.348 1_455 S
C763 C767 1.392 . S
C763 C769 1.520 . S
C764 C763 1.348 1_655 S
C764 C766 1.369 . S
C764 H792 0.930 . S
C765 C767 1.383 . S
C765 C768 1.382 1_455 S
C765 H793 0.930 . S
C766 C764 1.369 . S
C766 C768 1.392 . S
C766 H794 0.930 . S
C767 C763 1.392 . S
C767 C765 1.383 . S
C767 H795 0.931 . S
C768 C765 1.382 1_655 S
C768 C766 1.392 . S
C769 Eu760 2.828 . S
C769 C763 1.520 . S
C769 O781 1.249 . S
C769 O782 1.244 1_455 S
O770 Eu761 2.373 1_455 S
O770 C772 1.258 . S
O771 Eu760 2.392 1_554 S
O771 C772 1.242 . S
C772 O770 1.258 . S
C772 O771 1.242 . S
O773 Eu760 2.418 . S
O773 C777 1.244 1_556 S
O774 Eu761 2.488 . S
O774 C790 1.249 . S
O775 Eu761 2.471 1_455 S
O775 C790 1.244 1_455 S
O776 Eu761 2.349 1_455 S
O776 C777 1.265 . S
C777 O773 1.244 1_554 S
C777 O776 1.265 . S
O778 Eu760 2.373 1_655 S
O778 C791 1.258 . S
O779 Eu761 2.445 . S
O779 C791 1.179 1_554 S
O780 Eu761 2.418 . S
O780 C762 1.244 1_554 S
O781 Eu760 2.488 . S
O781 C769 1.249 . S
O782 Eu760 2.471 1_655 S
O782 C769 1.244 1_655 S
O783 Eu760 2.349 1_655 S
O783 C762 1.265 . S
C784 C785 1.386 . S
C784 C788 1.369 1_455 S
C784 C790 1.502 1_455 S
C785 C784 1.386 . S
C785 C787 1.369 . S
C785 H796 0.930 . S
C786 C788 1.383 . S
C786 C789 1.382 1_655 S
C786 H797 0.930 . S
C787 C785 1.369 . S
C787 C789 1.392 . S
C787 H798 0.930 . S
C788 C784 1.369 1_655 S
C788 C786 1.383 . S
C788 H799 0.931 . S
C789 C786 1.382 1_455 S
C789 C787 1.392 . S
C790 Eu761 2.828 . S
C790 O774 1.249 . S
C790 O775 1.244 1_655 S
C790 C784 1.502 1_655 S
C791 O778 1.258 . S
C791 O779 1.179 1_556 S
H792 C764 0.930 . S
H793 C765 0.930 . S
H794 C766 0.930 . S
H795 C767 0.931 . S
H796 C785 0.930 . S
H797 C786 0.930 . S
H798 C787 0.930 . S
H799 C788 0.931 . S
Eu800 C809 2.828 . S
Eu800 O811 2.392 . S
Eu800 O813 2.418 . S
Eu800 O818 2.373 . S
Eu800 O821 2.488 . S
Eu800 O822 2.471 . S
Eu800 O823 2.349 . S
Eu801 O810 2.373 . S
Eu801 O814 2.488 . S
Eu801 O815 2.471 . S
Eu801 O816 2.349 . S
Eu801 O819 2.392 1_556 S
Eu801 O820 2.418 . S
Eu801 C830 2.828 . S
C802 O820 1.244 1_554 S
C802 O823 1.265 . S
C803 C804 1.379 . S
C803 C807 1.373 . S
C803 C809 1.505 . S
C804 C803 1.379 . S
C804 C806 1.369 . S
C804 H832 0.930 . S
C805 C807 1.383 . S
C805 C808 1.382 . S
C805 H833 0.930 . S
C806 C804 1.369 . S
C806 C808 1.392 . S
C806 H834 0.930 . S
C807 C803 1.373 . S
C807 C805 1.383 . S
C807 H835 0.931 . S
C808 C805 1.382 . S
C808 C806 1.392 . S
C809 Eu800 2.828 . S
C809 C803 1.505 . S
C809 O821 1.249 . S
C809 O822 1.244 . S
O810 Eu801 2.373 . S
O810 C812 1.258 . S
O811 Eu800 2.392 . S
O811 C812 1.242 1_554 S
C812 O810 1.258 . S
C812 O811 1.242 1_556 S
O813 Eu800 2.418 . S
O813 C817 1.244 1_554 S
O814 Eu801 2.488 . S
O814 C830 1.249 . S
O815 Eu801 2.471 . S
O815 C830 1.244 . S
O816 Eu801 2.349 . S
O816 C817 1.265 . S
C817 O813 1.244 1_556 S
C817 O816 1.265 . S
O818 Eu800 2.373 . S
O818 C831 1.258 . S
O819 Eu801 2.392 1_554 S
O819 C831 1.242 . S
O820 Eu801 2.418 . S
O820 C802 1.244 1_556 S
O821 Eu800 2.488 . S
O821 C809 1.249 . S
O822 Eu800 2.471 . S
O822 C809 1.244 . S
O823 Eu800 2.349 . S
O823 C802 1.265 . S
C824 C825 1.379 . S
C824 C828 1.373 . S
C824 C830 1.505 . S
C825 C824 1.379 . S
C825 C827 1.369 . S
C825 H836 0.930 . S
C826 C828 1.383 . S
C826 C829 1.382 . S
C826 H837 0.930 . S
C827 C825 1.369 . S
C827 C829 1.392 . S
C827 H838 0.930 . S
C828 C824 1.373 . S
C828 C826 1.383 . S
C828 H839 0.931 . S
C829 C826 1.382 . S
C829 C827 1.392 . S
C830 Eu801 2.828 . S
C830 O814 1.249 . S
C830 O815 1.244 . S
C830 C824 1.505 . S
C831 O818 1.258 . S
C831 O819 1.242 . S
H832 C804 0.930 . S
H833 C805 0.930 . S
H834 C806 0.930 . S
H835 C807 0.931 . S
H836 C825 0.930 . S
H837 C826 0.930 . S
H838 C827 0.930 . S
H839 C828 0.931 . S
Eu840 C849 2.828 . S
Eu840 O851 2.392 . S
Eu840 O853 2.418 . S
Eu840 O858 2.373 . S
Eu840 O861 2.488 . S
Eu840 O862 2.471 . S
Eu840 O863 2.349 . S
Eu841 O850 2.373 . S
Eu841 O854 2.488 . S
Eu841 O855 2.471 . S
Eu841 O856 2.349 . S
Eu841 O859 2.392 . S
Eu841 O860 2.418 . S
Eu841 C870 2.828 . S
C842 O860 1.244 . S
C842 O863 1.265 . S
C843 C844 1.379 . S
C843 C847 1.373 . S
C843 C849 1.505 . S
C844 C843 1.379 . S
C844 C846 1.369 . S
C844 H872 0.930 . S
C845 C847 1.383 . S
C845 C848 1.382 . S
C845 H873 0.930 . S
C846 C844 1.369 . S
C846 C848 1.392 . S
C846 H874 0.930 . S
C847 C843 1.373 . S
C847 C845 1.383 . S
C847 H875 0.931 . S
C848 C845 1.382 . S
C848 C846 1.392 . S
C849 Eu840 2.828 . S
C849 C843 1.505 . S
C849 O861 1.249 . S
C849 O862 1.244 . S
O850 Eu841 2.373 . S
O850 C852 1.258 . S
O851 Eu840 2.392 . S
O851 C852 1.242 . S
C852 O850 1.258 . S
C852 O851 1.242 . S
O853 Eu840 2.418 . S
O853 C857 1.244 . S
O854 Eu841 2.488 . S
O854 C870 1.249 . S
O855 Eu841 2.471 . S
O855 C870 1.244 . S
O856 Eu841 2.349 . S
O856 C857 1.265 . S
C857 O853 1.244 . S
C857 O856 1.265 . S
O858 Eu840 2.373 . S
O858 C871 1.258 . S
O859 Eu841 2.392 . S
O859 C871 1.242 . S
O860 Eu841 2.418 . S
O860 C842 1.244 . S
O861 Eu840 2.488 . S
O861 C849 1.249 . S
O862 Eu840 2.471 . S
O862 C849 1.244 . S
O863 Eu840 2.349 . S
O863 C842 1.265 . S
C864 C865 1.379 . S
C864 C868 1.373 . S
C864 C870 1.505 . S
C865 C864 1.379 . S
C865 C867 1.369 . S
C865 H876 0.930 . S
C866 C868 1.383 . S
C866 C869 1.382 . S
C866 H877 0.930 . S
C867 C865 1.369 . S
C867 C869 1.392 . S
C867 H878 0.930 . S
C868 C864 1.373 . S
C868 C866 1.383 . S
C868 H879 0.931 . S
C869 C866 1.382 . S
C869 C867 1.392 . S
C870 Eu841 2.828 . S
C870 O854 1.249 . S
C870 O855 1.244 . S
C870 C864 1.505 . S
C871 O858 1.258 . S
C871 O859 1.242 . S
H872 C844 0.930 . S
H873 C845 0.930 . S
H874 C846 0.930 . S
H875 C847 0.931 . S
H876 C865 0.930 . S
H877 C866 0.930 . S
H878 C867 0.930 . S
H879 C868 0.931 . S
Eu880 C889 2.828 . S
Eu880 O891 2.392 . S
Eu880 O893 2.418 . S
Eu880 O898 2.373 . S
Eu880 O901 2.488 . S
Eu880 O902 2.471 . S
Eu880 O903 2.349 . S
Eu881 O890 2.373 . S
Eu881 O894 2.488 . S
Eu881 O895 2.471 . S
Eu881 O896 2.349 . S
Eu881 O899 2.392 . S
Eu881 O900 2.418 . S
Eu881 C910 2.828 . S
C882 O900 1.244 . S
C882 O903 1.265 . S
C883 C884 1.379 . S
C883 C887 1.373 . S
C883 C889 1.505 . S
C884 C883 1.379 . S
C884 C886 1.369 . S
C884 H912 0.930 . S
C885 C887 1.383 . S
C885 C888 1.382 . S
C885 H913 0.930 . S
C886 C884 1.369 . S
C886 C888 1.392 . S
C886 H914 0.930 . S
C887 C883 1.373 . S
C887 C885 1.383 . S
C887 H915 0.931 . S
C888 C885 1.382 . S
C888 C886 1.392 . S
C889 Eu880 2.828 . S
C889 C883 1.505 . S
C889 O901 1.249 . S
C889 O902 1.244 . S
O890 Eu881 2.373 . S
O890 C892 1.258 . S
O891 Eu880 2.392 . S
O891 C892 1.242 . S
C892 O890 1.258 . S
C892 O891 1.242 . S
O893 Eu880 2.418 . S
O893 C897 1.244 . S
O894 Eu881 2.488 . S
O894 C910 1.249 . S
O895 Eu881 2.471 . S
O895 C910 1.244 . S
O896 Eu881 2.349 . S
O896 C897 1.265 . S
C897 O893 1.244 . S
C897 O896 1.265 . S
O898 Eu880 2.373 . S
O898 C911 1.258 . S
O899 Eu881 2.392 . S
O899 C911 1.242 . S
O900 Eu881 2.418 . S
O900 C882 1.244 . S
O901 Eu880 2.488 . S
O901 C889 1.249 . S
O902 Eu880 2.471 . S
O902 C889 1.244 . S
O903 Eu880 2.349 . S
O903 C882 1.265 . S
C904 C905 1.379 . S
C904 C908 1.373 . S
C904 C910 1.505 . S
C905 C904 1.379 . S
C905 C907 1.369 . S
C905 H916 0.930 . S
C906 C908 1.383 . S
C906 C909 1.382 . S
C906 H917 0.930 . S
C907 C905 1.369 . S
C907 C909 1.392 . S
C907 H918 0.930 . S
C908 C904 1.373 . S
C908 C906 1.383 . S
C908 H919 0.931 . S
C909 C906 1.382 . S
C909 C907 1.392 . S
C910 Eu881 2.828 . S
C910 O894 1.249 . S
C910 O895 1.244 . S
C910 C904 1.505 . S
C911 O898 1.258 . S
C911 O899 1.242 . S
H912 C884 0.930 . S
H913 C885 0.930 . S
H914 C886 0.930 . S
H915 C887 0.931 . S
H916 C905 0.930 . S
H917 C906 0.930 . S
H918 C907 0.930 . S
H919 C908 0.931 . S
Eu920 C929 2.828 . S
Eu920 O931 2.392 . S
Eu920 O933 2.418 . S
Eu920 O938 2.373 . S
Eu920 O941 2.488 . S
Eu920 O942 2.471 . S
Eu920 O943 2.349 . S
Eu921 O930 2.373 . S
Eu921 O934 2.488 . S
Eu921 O935 2.471 . S
Eu921 O936 2.349 . S
Eu921 O939 2.392 . S
Eu921 O940 2.418 . S
Eu921 C950 2.828 . S
C922 O940 1.244 . S
C922 O943 1.265 . S
C923 C924 1.379 . S
C923 C927 1.373 . S
C923 C929 1.505 . S
C924 C923 1.379 . S
C924 C926 1.369 . S
C924 H952 0.930 . S
C925 C927 1.383 . S
C925 C928 1.382 . S
C925 H953 0.930 . S
C926 C924 1.369 . S
C926 C928 1.392 . S
C926 H954 0.930 . S
C927 C923 1.373 . S
C927 C925 1.383 . S
C927 H955 0.931 . S
C928 C925 1.382 . S
C928 C926 1.392 . S
C929 Eu920 2.828 . S
C929 C923 1.505 . S
C929 O941 1.249 . S
C929 O942 1.244 . S
O930 Eu921 2.373 . S
O930 C932 1.258 . S
O931 Eu920 2.392 . S
O931 C932 1.242 . S
C932 O930 1.258 . S
C932 O931 1.242 . S
O933 Eu920 2.418 . S
O933 C937 1.244 . S
O934 Eu921 2.488 . S
O934 C950 1.249 . S
O935 Eu921 2.471 . S
O935 C950 1.244 . S
O936 Eu921 2.349 . S
O936 C937 1.265 . S
C937 O933 1.244 . S
C937 O936 1.265 . S
O938 Eu920 2.373 . S
O938 C951 1.258 . S
O939 Eu921 2.392 . S
O939 C951 1.242 . S
O940 Eu921 2.418 . S
O940 C922 1.244 . S
O941 Eu920 2.488 . S
O941 C929 1.249 . S
O942 Eu920 2.471 . S
O942 C929 1.244 . S
O943 Eu920 2.349 . S
O943 C922 1.265 . S
C944 C945 1.379 . S
C944 C948 1.373 . S
C944 C950 1.505 . S
C945 C944 1.379 . S
C945 C947 1.369 . S
C945 H956 0.930 . S
C946 C948 1.383 . S
C946 C949 1.382 . S
C946 H957 0.930 . S
C947 C945 1.369 . S
C947 C949 1.392 . S
C947 H958 0.930 . S
C948 C944 1.373 . S
C948 C946 1.383 . S
C948 H959 0.931 . S
C949 C946 1.382 . S
C949 C947 1.392 . S
C950 Eu921 2.828 . S
C950 O934 1.249 . S
C950 O935 1.244 . S
C950 C944 1.505 . S
C951 O938 1.258 . S
C951 O939 1.242 . S
H952 C924 0.930 . S
H953 C925 0.930 . S
H954 C926 0.930 . S
H955 C927 0.931 . S
H956 C945 0.930 . S
H957 C946 0.930 . S
H958 C947 0.930 . S
H959 C948 0.931 . S
Eu960 C969 2.828 . S
Eu960 O971 2.392 . S
Eu960 O973 2.418 . S
Eu960 O978 2.373 . S
Eu960 O981 2.488 . S
Eu960 O982 2.471 . S
Eu960 O983 2.349 . S
Eu961 O970 2.373 . S
Eu961 O974 2.488 . S
Eu961 O975 2.471 . S
Eu961 O976 2.349 . S
Eu961 O979 2.392 . S
Eu961 O980 2.418 . S
Eu961 C990 2.828 . S
C962 O980 1.244 . S
C962 O983 1.265 . S
C963 C964 1.379 . S
C963 C967 1.373 . S
C963 C969 1.505 . S
C964 C963 1.379 . S
C964 C966 1.369 . S
C964 H992 0.930 . S
C965 C967 1.383 . S
C965 C968 1.382 . S
C965 H993 0.930 . S
C966 C964 1.369 . S
C966 C968 1.392 . S
C966 H994 0.930 . S
C967 C963 1.373 . S
C967 C965 1.383 . S
C967 H995 0.931 . S
C968 C965 1.382 . S
C968 C966 1.392 . S
C969 Eu960 2.828 . S
C969 C963 1.505 . S
C969 O981 1.249 . S
C969 O982 1.244 . S
O970 Eu961 2.373 . S
O970 C972 1.258 . S
O971 Eu960 2.392 . S
O971 C972 1.242 . S
C972 O970 1.258 . S
C972 O971 1.242 . S
O973 Eu960 2.418 . S
O973 C977 1.244 . S
O974 Eu961 2.488 . S
O974 C990 1.249 . S
O975 Eu961 2.471 . S
O975 C990 1.244 . S
O976 Eu961 2.349 . S
O976 C977 1.265 . S
C977 O973 1.244 . S
C977 O976 1.265 . S
O978 Eu960 2.373 . S
O978 C991 1.258 . S
O979 Eu961 2.392 . S
O979 C991 1.242 . S
O980 Eu961 2.418 . S
O980 C962 1.244 . S
O981 Eu960 2.488 . S
O981 C969 1.249 . S
O982 Eu960 2.471 . S
O982 C969 1.244 . S
O983 Eu960 2.349 . S
O983 C962 1.265 . S
C984 C985 1.379 . S
C984 C988 1.373 . S
C984 C990 1.505 . S
C985 C984 1.379 . S
C985 C987 1.369 . S
C985 H996 0.930 . S
C986 C988 1.383 . S
C986 C989 1.382 . S
C986 H997 0.930 . S
C987 C985 1.369 . S
C987 C989 1.392 . S
C987 H998 0.930 . S
C988 C984 1.373 . S
C988 C986 1.383 . S
C988 H999 0.931 . S
C989 C986 1.382 . S
C989 C987 1.392 . S
C990 Eu961 2.828 . S
C990 O974 1.249 . S
C990 O975 1.244 . S
C990 C984 1.505 . S
C991 O978 1.258 . S
C991 O979 1.242 . S
H992 C964 0.930 . S
H993 C965 0.930 . S
H994 C966 0.930 . S
H995 C967 0.931 . S
H996 C985 0.930 . S
H997 C986 0.930 . S
H998 C987 0.930 . S
H999 C988 0.931 . S
Eu1000 C1009 2.828 . S
Eu1000 O1011 2.392 . S
Eu1000 O1013 2.418 . S
Eu1000 O1018 2.373 . S
Eu1000 O1021 2.488 . S
Eu1000 O1022 2.471 . S
Eu1000 O1023 2.349 . S
Eu1001 O1010 2.373 . S
Eu1001 O1014 2.488 . S
Eu1001 O1015 2.471 . S
Eu1001 O1016 2.349 . S
Eu1001 O1019 2.392 . S
Eu1001 O1020 2.418 . S
Eu1001 C1030 2.828 . S
C1002 O1020 1.244 . S
C1002 O1023 1.265 . S
C1003 C1004 1.379 . S
C1003 C1007 1.373 . S
C1003 C1009 1.505 . S
C1004 C1003 1.379 . S
C1004 C1006 1.369 . S
C1004 H1032 0.930 . S
C1005 C1007 1.383 . S
C1005 C1008 1.382 . S
C1005 H1033 0.930 . S
C1006 C1004 1.369 . S
C1006 C1008 1.392 . S
C1006 H1034 0.930 . S
C1007 C1003 1.373 . S
C1007 C1005 1.383 . S
C1007 H1035 0.931 . S
C1008 C1005 1.382 . S
C1008 C1006 1.392 . S
C1009 Eu1000 2.828 . S
C1009 C1003 1.505 . S
C1009 O1021 1.249 . S
C1009 O1022 1.244 . S
O1010 Eu1001 2.373 . S
O1010 C1012 1.258 . S
O1011 Eu1000 2.392 . S
O1011 C1012 1.242 . S
C1012 O1010 1.258 . S
C1012 O1011 1.242 . S
O1013 Eu1000 2.418 . S
O1013 C1017 1.244 . S
O1014 Eu1001 2.488 . S
O1014 C1030 1.249 . S
O1015 Eu1001 2.471 . S
O1015 C1030 1.244 . S
O1016 Eu1001 2.349 . S
O1016 C1017 1.265 . S
C1017 O1013 1.244 . S
C1017 O1016 1.265 . S
O1018 Eu1000 2.373 . S
O1018 C1031 1.258 . S
O1019 Eu1001 2.392 . S
O1019 C1031 1.242 . S
O1020 Eu1001 2.418 . S
O1020 C1002 1.244 . S
O1021 Eu1000 2.488 . S
O1021 C1009 1.249 . S
O1022 Eu1000 2.471 . S
O1022 C1009 1.244 . S
O1023 Eu1000 2.349 . S
O1023 C1002 1.265 . S
C1024 C1025 1.379 . S
C1024 C1028 1.373 . S
C1024 C1030 1.505 . S
C1025 C1024 1.379 . S
C1025 C1027 1.369 . S
C1025 H1036 0.930 . S
C1026 C1028 1.383 . S
C1026 C1029 1.382 . S
C1026 H1037 0.930 . S
C1027 C1025 1.369 . S
C1027 C1029 1.392 . S
C1027 H1038 0.930 . S
C1028 C1024 1.373 . S
C1028 C1026 1.383 . S
C1028 H1039 0.931 . S
C1029 C1026 1.382 . S
C1029 C1027 1.392 . S
C1030 Eu1001 2.828 . S
C1030 O1014 1.249 . S
C1030 O1015 1.244 . S
C1030 C1024 1.505 . S
C1031 O1018 1.258 . S
C1031 O1019 1.242 . S
H1032 C1004 0.930 . S
H1033 C1005 0.930 . S
H1034 C1006 0.930 . S
H1035 C1007 0.931 . S
H1036 C1025 0.930 . S
H1037 C1026 0.930 . S
H1038 C1027 0.930 . S
H1039 C1028 0.931 . S
Eu1040 C1049 2.828 . S
Eu1040 O1051 2.392 . S
Eu1040 O1053 2.418 . S
Eu1040 O1058 2.373 . S
Eu1040 O1061 2.488 . S
Eu1040 O1062 2.471 . S
Eu1040 O1063 2.349 . S
Eu1041 O1050 2.373 . S
Eu1041 O1054 2.488 . S
Eu1041 O1055 2.471 . S
Eu1041 O1056 2.349 . S
Eu1041 O1059 2.392 . S
Eu1041 O1060 2.418 . S
Eu1041 C1070 2.828 . S
C1042 O1060 1.244 . S
C1042 O1063 1.265 . S
C1043 C1044 1.379 . S
C1043 C1047 1.373 . S
C1043 C1049 1.505 . S
C1044 C1043 1.379 . S
C1044 C1046 1.369 . S
C1044 H1072 0.930 . S
C1045 C1047 1.383 . S
C1045 C1048 1.382 . S
C1045 H1073 0.930 . S
C1046 C1044 1.369 . S
C1046 C1048 1.392 . S
C1046 H1074 0.930 . S
C1047 C1043 1.373 . S
C1047 C1045 1.383 . S
C1047 H1075 0.931 . S
C1048 C1045 1.382 . S
C1048 C1046 1.392 . S
C1049 Eu1040 2.828 . S
C1049 C1043 1.505 . S
C1049 O1061 1.249 . S
C1049 O1062 1.244 . S
O1050 Eu1041 2.373 . S
O1050 C1052 1.258 . S
O1051 Eu1040 2.392 . S
O1051 C1052 1.242 . S
C1052 O1050 1.258 . S
C1052 O1051 1.242 . S
O1053 Eu1040 2.418 . S
O1053 C1057 1.244 . S
O1054 Eu1041 2.488 . S
O1054 C1070 1.249 . S
O1055 Eu1041 2.471 . S
O1055 C1070 1.244 . S
O1056 Eu1041 2.349 . S
O1056 C1057 1.265 . S
C1057 O1053 1.244 . S
C1057 O1056 1.265 . S
O1058 Eu1040 2.373 . S
O1058 C1071 1.258 . S
O1059 Eu1041 2.392 . S
O1059 C1071 1.242 . S
O1060 Eu1041 2.418 . S
O1060 C1042 1.244 . S
O1061 Eu1040 2.488 . S
O1061 C1049 1.249 . S
O1062 Eu1040 2.471 . S
O1062 C1049 1.244 . S
O1063 Eu1040 2.349 . S
O1063 C1042 1.265 . S
C1064 C1065 1.379 . S
C1064 C1068 1.373 . S
C1064 C1070 1.505 . S
C1065 C1064 1.379 . S
C1065 C1067 1.369 . S
C1065 H1076 0.930 . S
C1066 C1068 1.383 . S
C1066 C1069 1.382 . S
C1066 H1077 0.930 . S
C1067 C1065 1.369 . S
C1067 C1069 1.392 . S
C1067 H1078 0.930 . S
C1068 C1064 1.373 . S
C1068 C1066 1.383 . S
C1068 H1079 0.931 . S
C1069 C1066 1.382 . S
C1069 C1067 1.392 . S
C1070 Eu1041 2.828 . S
C1070 O1054 1.249 . S
C1070 O1055 1.244 . S
C1070 C1064 1.505 . S
C1071 O1058 1.258 . S
C1071 O1059 1.242 . S
H1072 C1044 0.930 . S
H1073 C1045 0.930 . S
H1074 C1046 0.930 . S
H1075 C1047 0.931 . S
H1076 C1065 0.930 . S
H1077 C1066 0.930 . S
H1078 C1067 0.930 . S
H1079 C1068 0.931 . S
H1080 C1088 0.929 . S
H1081 C1090 0.930 . S
H1082 C1092 0.930 . S
H1083 C1095 0.929 . S
H1084 C1098 0.930 . S
H1085 C1100 0.960 . S
H1086 C1100 0.960 . S
H1087 C1100 0.960 . S
C1088 H1080 0.929 . S
C1088 C1089 1.377 . S
C1088 C1090 1.384 . S
C1089 C1088 1.377 . S
C1089 C1095 1.390 . S
C1090 H1081 0.930 . S
C1090 C1088 1.384 . S
C1090 C1091 1.372 . S
C1091 C1090 1.372 . S
C1091 C1092 1.400 . S
C1091 C1096 1.490 . S
C1092 H1082 0.930 . S
C1092 C1091 1.400 . S
C1092 C1095 1.386 . S
H1093 C1109 0.930 . S
H1094 C1110 0.931 . S
C1095 H1083 0.929 . S
C1095 C1089 1.390 . S
C1095 C1092 1.386 . S
C1096 C1091 1.490 . S
C1096 C1098 1.395 . S
C1096 C1099 1.403 . S
H1097 C1103 0.930 . S
C1098 H1084 0.930 . S
C1098 C1096 1.395 . S
C1098 C1101 1.403 . S
C1099 C1096 1.403 . S
C1099 C1100 1.524 . S
C1099 C1103 1.400 . S
C1100 H1085 0.960 . S
C1100 H1086 0.960 . S
C1100 H1087 0.960 . S
C1100 C1099 1.524 . S
C1101 C1098 1.403 . S
C1101 C1102 1.392 . S
C1101 C1105 1.495 . S
C1102 C1101 1.392 . S
C1102 C1103 1.385 . S
C1102 C1104 1.478 . S
C1103 H1097 0.930 . S
C1103 C1099 1.400 . S
C1103 C1102 1.385 . S
C1104 C1102 1.478 . S
C1104 C1106 1.381 . S
C1104 C1110 1.383 . S
C1105 C1101 1.495 . S
C1105 H1111 0.959 1_554 S
C1105 H1112 0.971 . S
C1105 H1113 0.968 . S
C1106 C1104 1.381 . S
C1106 C1107 1.394 . S
C1106 H1114 0.930 . S
C1107 C1106 1.394 . S
C1107 C1108 1.383 . S
C1107 H1115 0.929 . S
C1108 C1107 1.383 . S
C1108 C1109 1.377 . S
C1109 H1093 0.930 . S
C1109 C1108 1.377 . S
C1109 C1110 1.379 . S
C1110 H1094 0.931 . S
C1110 C1104 1.383 . S
C1110 C1109 1.379 . S
H1111 C1105 0.959 1_556 S
H1112 C1105 0.971 . S
H1113 C1105 0.968 . S
H1114 C1106 0.930 . S
H1115 C1107 0.929 . S
H1116 C1124 0.929 . S
H1117 C1126 0.930 . S
H1118 C1128 0.930 . S
H1119 C1131 0.929 . S
H1120 C1134 0.930 . S
H1121 C1136 0.960 . S
H1122 C1136 0.960 . S
H1123 C1136 0.960 . S
C1124 H1116 0.929 . S
C1124 C1125 1.377 . S
C1124 C1126 1.384 . S
C1125 C1124 1.377 . S
C1125 C1131 1.390 . S
C1126 H1117 0.930 . S
C1126 C1124 1.384 . S
C1126 C1127 1.372 . S
C1127 C1126 1.372 . S
C1127 C1128 1.400 . S
C1127 C1132 1.490 . S
C1128 H1118 0.930 . S
C1128 C1127 1.400 . S
C1128 C1131 1.386 . S
H1129 C1145 0.930 . S
H1130 C1146 0.931 . S
C1131 H1119 0.929 . S
C1131 C1125 1.390 . S
C1131 C1128 1.386 . S
C1132 C1127 1.490 . S
C1132 C1134 1.395 . S
C1132 C1135 1.403 . S
H1133 C1139 0.930 . S
C1134 H1120 0.930 . S
C1134 C1132 1.395 . S
C1134 C1137 1.403 . S
C1135 C1132 1.403 . S
C1135 C1136 1.524 . S
C1135 C1139 1.400 . S
C1136 H1121 0.960 . S
C1136 H1122 0.960 . S
C1136 H1123 0.960 . S
C1136 C1135 1.524 . S
C1137 C1134 1.403 . S
C1137 C1138 1.392 . S
C1137 C1141 1.495 . S
C1138 C1137 1.392 . S
C1138 C1139 1.385 . S
C1138 C1140 1.478 . S
C1139 H1133 0.930 . S
C1139 C1135 1.400 . S
C1139 C1138 1.385 . S
C1140 C1138 1.478 . S
C1140 C1142 1.381 . S
C1140 C1146 1.383 . S
C1141 C1137 1.495 . S
C1141 H1147 0.959 . S
C1141 H1148 0.961 . S
C1141 H1149 0.960 . S
C1142 C1140 1.381 . S
C1142 C1143 1.394 . S
C1142 H1150 0.930 . S
C1143 C1142 1.394 . S
C1143 C1144 1.383 . S
C1143 H1151 0.929 . S
C1144 C1143 1.383 . S
C1144 C1145 1.377 . S
C1145 H1129 0.930 . S
C1145 C1144 1.377 . S
C1145 C1146 1.379 . S
C1146 H1130 0.931 . S
C1146 C1140 1.383 . S
C1146 C1145 1.379 . S
H1147 C1141 0.959 . S
H1148 C1141 0.961 . S
H1149 C1141 0.960 . S
H1150 C1142 0.930 . S
H1151 C1143 0.929 . S
H1152 C1160 0.929 . S
H1153 C1162 0.930 . S
H1154 C1164 0.930 . S
H1155 C1167 0.929 . S
H1156 C1170 0.930 . S
H1157 C1172 0.962 1_556 S
H1158 C1172 0.960 . S
H1159 C1172 0.960 . S
C1160 H1152 0.929 . S
C1160 C1161 1.377 . S
C1160 C1162 1.384 . S
C1161 C1160 1.377 . S
C1161 C1167 1.390 . S
C1162 H1153 0.930 . S
C1162 C1160 1.384 . S
C1162 C1163 1.372 . S
C1163 C1162 1.372 . S
C1163 C1164 1.400 . S
C1163 C1168 1.490 . S
C1164 H1154 0.930 . S
C1164 C1163 1.400 . S
C1164 C1167 1.386 . S
H1165 C1181 0.930 1_556 S
H1166 C1182 0.931 . S
C1167 H1155 0.929 . S
C1167 C1161 1.390 . S
C1167 C1164 1.386 . S
C1168 C1163 1.490 . S
C1168 C1170 1.395 . S
C1168 C1171 1.403 . S
H1169 C1175 0.930 . S
C1170 H1156 0.930 . S
C1170 C1168 1.395 . S
C1170 C1173 1.403 . S
C1171 C1168 1.403 . S
C1171 C1172 1.524 . S
C1171 C1175 1.400 . S
C1172 H1157 0.962 1_554 S
C1172 H1158 0.960 . S
C1172 H1159 0.960 . S
C1172 C1171 1.524 . S
C1173 C1170 1.403 . S
C1173 C1174 1.392 . S
C1173 C1177 1.495 . S
C1174 C1173 1.392 . S
C1174 C1175 1.385 . S
C1174 C1176 1.478 . S
C1175 H1169 0.930 . S
C1175 C1171 1.400 . S
C1175 C1174 1.385 . S
C1176 C1174 1.478 . S
C1176 C1178 1.381 . S
C1176 C1182 1.383 . S
C1177 C1173 1.495 . S
C1177 H1183 0.959 . S
C1177 H1184 0.961 . S
C1177 H1185 0.960 . S
C1178 C1176 1.381 . S
C1178 C1179 1.394 . S
C1178 H1186 0.930 . S
C1179 C1178 1.394 . S
C1179 C1180 1.383 . S
C1179 H1187 0.929 . S
C1180 C1179 1.383 . S
C1180 C1181 1.377 . S
C1181 H1165 0.930 1_554 S
C1181 C1180 1.377 . S
C1181 C1182 1.379 . S
C1182 H1166 0.931 . S
C1182 C1176 1.383 . S
C1182 C1181 1.379 . S
H1183 C1177 0.959 . S
H1184 C1177 0.961 . S
H1185 C1177 0.960 . S
H1186 C1178 0.930 . S
H1187 C1179 0.929 . S
H1188 C1196 0.929 . S
H1189 C1198 0.930 . S
H1190 C1200 0.930 . S
H1191 C1203 0.929 . S
H1192 C1206 0.930 . S
H1193 C1208 0.960 . S
H1194 C1208 0.960 . S
H1195 C1208 0.960 . S
C1196 H1188 0.929 . S
C1196 C1197 1.377 . S
C1196 C1198 1.384 . S
C1197 C1196 1.377 . S
C1197 C1203 1.390 . S
C1198 H1189 0.930 . S
C1198 C1196 1.384 . S
C1198 C1199 1.372 . S
C1199 C1198 1.372 . S
C1199 C1200 1.400 . S
C1199 C1204 1.490 . S
C1200 H1190 0.930 . S
C1200 C1199 1.400 . S
C1200 C1203 1.386 . S
H1201 C1217 0.930 . S
H1202 C1218 0.931 . S
C1203 H1191 0.929 . S
C1203 C1197 1.390 . S
C1203 C1200 1.386 . S
C1204 C1199 1.490 . S
C1204 C1206 1.395 . S
C1204 C1207 1.403 . S
H1205 C1211 0.930 . S
C1206 H1192 0.930 . S
C1206 C1204 1.395 . S
C1206 C1209 1.403 . S
C1207 C1204 1.403 . S
C1207 C1208 1.524 . S
C1207 C1211 1.400 . S
C1208 H1193 0.960 . S
C1208 H1194 0.960 . S
C1208 H1195 0.960 . S
C1208 C1207 1.524 . S
C1209 C1206 1.403 . S
C1209 C1210 1.392 . S
C1209 C1213 1.495 . S
C1210 C1209 1.392 . S
C1210 C1211 1.385 . S
C1210 C1212 1.478 . S
C1211 H1205 0.930 . S
C1211 C1207 1.400 . S
C1211 C1210 1.385 . S
C1212 C1210 1.478 . S
C1212 C1214 1.381 . S
C1212 C1218 1.383 . S
C1213 C1209 1.495 . S
C1213 H1219 0.959 . S
C1213 H1220 0.961 . S
C1213 H1221 0.960 . S
C1214 C1212 1.381 . S
C1214 C1215 1.394 . S
C1214 H1222 0.930 . S
C1215 C1214 1.394 . S
C1215 C1216 1.383 . S
C1215 H1223 0.929 1_556 S
C1216 C1215 1.383 . S
C1216 C1217 1.377 . S
C1217 H1201 0.930 . S
C1217 C1216 1.377 . S
C1217 C1218 1.379 . S
C1218 H1202 0.931 . S
C1218 C1212 1.383 . S
C1218 C1217 1.379 . S
H1219 C1213 0.959 . S
H1220 C1213 0.961 . S
H1221 C1213 0.960 . S
H1222 C1214 0.930 . S
H1223 C1215 0.929 1_554 S
H1224 C1232 0.929 . S
H1225 C1234 0.930 . S
H1226 C1236 0.930 . S
H1227 C1239 0.929 . S
H1228 C1242 0.930 . S
H1229 C1244 0.960 . S
H1230 C1244 0.960 . S
H1231 C1244 0.960 . S
C1232 H1224 0.929 . S
C1232 C1233 1.377 . S
C1232 C1234 1.384 . S
C1233 C1232 1.377 . S
C1233 C1239 1.390 . S
C1234 H1225 0.930 . S
C1234 C1232 1.384 . S
C1234 C1235 1.372 . S
C1235 C1234 1.372 . S
C1235 C1236 1.400 . S
C1235 C1240 1.490 . S
C1236 H1226 0.930 . S
C1236 C1235 1.400 . S
C1236 C1239 1.386 . S
H1237 C1253 0.984 . S
H1238 C1254 0.931 . S
C1239 H1227 0.929 . S
C1239 C1233 1.390 . S
C1239 C1236 1.386 . S
C1240 C1235 1.490 . S
C1240 C1242 1.395 . S
C1240 C1243 1.403 . S
H1241 C1247 0.930 . S
C1242 H1228 0.930 . S
C1242 C1240 1.395 . S
C1242 C1245 1.403 . S
C1243 C1240 1.403 . S
C1243 C1244 1.524 . S
C1243 C1247 1.400 . S
C1244 H1229 0.960 . S
C1244 H1230 0.960 . S
C1244 H1231 0.960 . S
C1244 C1243 1.524 . S
C1245 C1242 1.403 . S
C1245 C1246 1.392 . S
C1245 C1249 1.495 . S
C1246 C1245 1.392 . S
C1246 C1247 1.385 . S
C1246 C1248 1.478 . S
C1247 H1241 0.930 . S
C1247 C1243 1.400 . S
C1247 C1246 1.385 . S
C1248 C1246 1.478 . S
C1248 C1250 1.381 . S
C1248 C1254 1.383 . S
C1249 C1245 1.495 . S
C1249 H1255 0.959 . S
C1249 H1256 0.961 . S
C1249 H1257 0.960 . S
C1250 C1248 1.381 . S
C1250 C1251 1.394 . S
C1250 H1258 0.930 . S
C1251 C1250 1.394 . S
C1251 C1252 1.383 . S
C1251 H1259 0.929 . S
C1252 C1251 1.383 . S
C1252 C1253 1.377 . S
C1253 H1237 0.984 . S
C1253 C1252 1.377 . S
C1253 C1254 1.379 . S
C1254 H1238 0.931 . S
C1254 C1248 1.383 . S
C1254 C1253 1.379 . S
H1255 C1249 0.959 . S
H1256 C1249 0.961 . S
H1257 C1249 0.960 . S
H1258 C1250 0.930 . S
H1259 C1251 0.929 . S
H1260 C1268 0.929 . S
H1261 C1270 0.930 . S
H1262 C1272 0.930 . S
H1263 C1275 0.929 . S
H1264 C1278 0.930 . S
H1265 C1280 0.960 . S
H1266 C1280 0.960 . S
H1267 C1280 0.960 . S
C1268 H1260 0.929 . S
C1268 C1269 1.377 . S
C1268 C1270 1.384 . S
C1269 C1268 1.377 . S
C1269 C1275 1.390 . S
C1270 H1261 0.930 . S
C1270 C1268 1.384 . S
C1270 C1271 1.372 . S
C1271 C1270 1.372 . S
C1271 C1272 1.400 . S
C1271 C1276 1.490 . S
C1272 H1262 0.930 . S
C1272 C1271 1.400 . S
C1272 C1275 1.386 . S
H1273 C1289 0.930 . S
H1274 C1290 0.931 1_554 S
C1275 H1263 0.929 . S
C1275 C1269 1.390 . S
C1275 C1272 1.386 . S
C1276 C1271 1.490 . S
C1276 C1278 1.395 . S
C1276 C1279 1.403 . S
H1277 C1283 0.930 . S
C1278 H1264 0.930 . S
C1278 C1276 1.395 . S
C1278 C1281 1.403 . S
C1279 C1276 1.403 . S
C1279 C1280 1.524 . S
C1279 C1283 1.400 . S
C1280 H1265 0.960 . S
C1280 H1266 0.960 . S
C1280 H1267 0.960 . S
C1280 C1279 1.524 . S
C1281 C1278 1.403 . S
C1281 C1282 1.392 . S
C1281 C1285 1.495 . S
C1282 C1281 1.392 . S
C1282 C1283 1.385 . S
C1282 C1284 1.478 . S
C1283 H1277 0.930 . S
C1283 C1279 1.400 . S
C1283 C1282 1.385 . S
C1284 C1282 1.478 . S
C1284 C1286 1.381 . S
C1284 C1290 1.383 . S
C1285 C1281 1.495 . S
C1285 H1291 0.959 . S
C1285 H1292 0.961 1_556 S
C1285 H1293 0.960 . S
C1286 C1284 1.381 . S
C1286 C1287 1.394 . S
C1286 H1294 0.930 . S
C1287 C1286 1.394 . S
C1287 C1288 1.383 . S
C1287 H1295 0.929 . S
C1288 C1287 1.383 . S
C1288 C1289 1.377 1_556 S
C1289 H1273 0.930 . S
C1289 C1288 1.377 1_554 S
C1289 C1290 1.379 1_554 S
C1290 H1274 0.931 1_556 S
C1290 C1284 1.383 . S
C1290 C1289 1.379 1_556 S
H1291 C1285 0.959 . S
H1292 C1285 0.961 1_554 S
H1293 C1285 0.960 . S
H1294 C1286 0.930 . S
H1295 C1287 0.929 . S
H1296 C1304 0.929 . S
H1297 C1306 0.930 . S
H1298 C1308 0.930 . S
H1299 C1311 0.929 . S
H1300 C1314 0.930 . S
H1301 C1316 0.960 . S
H1302 C1316 0.960 . S
H1303 C1316 0.960 . S
C1304 H1296 0.929 . S
C1304 C1305 1.377 . S
C1304 C1306 1.384 . S
C1305 C1304 1.377 . S
C1305 C1311 1.390 . S
C1306 H1297 0.930 . S
C1306 C1304 1.384 . S
C1306 C1307 1.372 . S
C1307 C1306 1.372 . S
C1307 C1308 1.400 . S
C1307 C1312 1.490 . S
C1308 H1298 0.930 . S
C1308 C1307 1.400 . S
C1308 C1311 1.386 . S
H1309 C1325 0.930 . S
H1310 C1326 0.931 . S
C1311 H1299 0.929 . S
C1311 C1305 1.390 . S
C1311 C1308 1.386 . S
C1312 C1307 1.490 . S
C1312 C1314 1.395 . S
C1312 C1315 1.403 . S
H1313 C1319 0.930 . S
C1314 H1300 0.930 . S
C1314 C1312 1.395 . S
C1314 C1317 1.403 . S
C1315 C1312 1.403 . S
C1315 C1316 1.524 . S
C1315 C1319 1.400 . S
C1316 H1301 0.960 . S
C1316 H1302 0.960 . S
C1316 H1303 0.960 . S
C1316 C1315 1.524 . S
C1317 C1314 1.403 . S
C1317 C1318 1.392 . S
C1317 C1321 1.495 . S
C1318 C1317 1.392 . S
C1318 C1319 1.385 . S
C1318 C1320 1.478 . S
C1319 H1313 0.930 . S
C1319 C1315 1.400 . S
C1319 C1318 1.385 . S
C1320 C1318 1.478 . S
C1320 C1322 1.381 . S
C1320 C1326 1.383 . S
C1321 C1317 1.495 . S
C1321 H1327 0.959 . S
C1321 H1328 0.961 . S
C1321 H1329 0.960 . S
C1322 C1320 1.381 . S
C1322 C1323 1.394 . S
C1322 H1330 0.930 . S
C1323 C1322 1.394 . S
C1323 C1324 1.383 . S
C1323 H1331 0.929 . S
C1324 C1323 1.383 . S
C1324 C1325 1.377 . S
C1325 H1309 0.930 . S
C1325 C1324 1.377 . S
C1325 C1326 1.379 . S
C1326 H1310 0.931 . S
C1326 C1320 1.383 . S
C1326 C1325 1.379 . S
H1327 C1321 0.959 . S
H1328 C1321 0.961 . S
H1329 C1321 0.960 . S
H1330 C1322 0.930 . S
H1331 C1323 0.929 . S
H1332 C1340 0.929 . S
H1333 C1342 0.930 . S
H1334 C1344 0.930 . S
H1335 C1347 0.929 . S
H1336 C1350 0.930 . S
H1337 C1352 0.960 . S
H1338 C1352 0.960 . S
H1339 C1352 0.960 . S
C1340 H1332 0.929 . S
C1340 C1341 1.377 . S
C1340 C1342 1.384 . S
C1341 C1340 1.377 . S
C1341 C1347 1.390 . S
C1342 H1333 0.930 . S
C1342 C1340 1.384 . S
C1342 C1343 1.372 . S
C1343 C1342 1.372 . S
C1343 C1344 1.400 . S
C1343 C1348 1.490 . S
C1344 H1334 0.930 . S
C1344 C1343 1.400 . S
C1344 C1347 1.386 . S
H1345 C1361 0.930 . S
H1346 C1362 0.931 . S
C1347 H1335 0.929 . S
C1347 C1341 1.390 . S
C1347 C1344 1.386 . S
C1348 C1343 1.490 . S
C1348 C1350 1.395 . S
C1348 C1351 1.403 . S
H1349 C1355 0.930 . S
C1350 H1336 0.930 . S
C1350 C1348 1.395 . S
C1350 C1353 1.403 . S
C1351 C1348 1.403 . S
C1351 C1352 1.524 . S
C1351 C1355 1.400 . S
C1352 H1337 0.960 . S
C1352 H1338 0.960 . S
C1352 H1339 0.960 . S
C1352 C1351 1.524 . S
C1353 C1350 1.403 . S
C1353 C1354 1.392 . S
C1353 C1357 1.495 . S
C1354 C1353 1.392 . S
C1354 C1355 1.385 . S
C1354 C1356 1.478 . S
C1355 H1349 0.930 . S
C1355 C1351 1.400 . S
C1355 C1354 1.385 . S
C1356 C1354 1.478 . S
C1356 C1358 1.381 . S
C1356 C1362 1.383 . S
C1357 C1353 1.495 . S
C1357 H1363 0.959 . S
C1357 H1364 0.961 . S
C1357 H1365 0.960 . S
C1358 C1356 1.381 . S
C1358 C1359 1.394 . S
C1358 H1366 0.930 . S
C1359 C1358 1.394 . S
C1359 C1360 1.383 . S
C1359 H1367 0.929 . S
C1360 C1359 1.383 . S
C1360 C1361 1.377 . S
C1361 H1345 0.930 . S
C1361 C1360 1.377 . S
C1361 C1362 1.379 . S
C1362 H1346 0.931 . S
C1362 C1356 1.383 . S
C1362 C1361 1.379 . S
H1363 C1357 0.959 . S
H1364 C1357 0.961 . S
H1365 C1357 0.960 . S
H1366 C1358 0.930 . S
H1367 C1359 0.929 . S
H1368 C1376 0.929 . S
H1369 C1378 0.930 . S
H1370 C1380 0.930 . S
H1371 C1383 0.929 . S
H1372 C1386 0.930 . S
H1373 C1388 0.960 . S
H1374 C1388 0.960 1_556 S
H1375 C1388 0.960 . S
C1376 H1368 0.929 . S
C1376 C1377 1.377 . S
C1376 C1378 1.384 . S
C1377 C1376 1.377 . S
C1377 C1383 1.390 . S
C1378 H1369 0.930 . S
C1378 C1376 1.384 . S
C1378 C1379 1.372 . S
C1379 C1378 1.372 . S
C1379 C1380 1.400 . S
C1379 C1384 1.490 . S
C1380 H1370 0.930 . S
C1380 C1379 1.400 . S
C1380 C1383 1.386 . S
H1381 C1397 0.930 1_554 S
H1382 C1398 0.962 . S
C1383 H1371 0.929 . S
C1383 C1377 1.390 . S
C1383 C1380 1.386 . S
C1384 C1379 1.490 . S
C1384 C1386 1.395 . S
C1384 C1387 1.403 . S
H1385 C1391 0.966 . S
C1386 H1372 0.930 . S
C1386 C1384 1.395 . S
C1386 C1389 1.403 . S
C1387 C1384 1.403 . S
C1387 C1388 1.524 1_556 S
C1387 C1391 1.400 . S
C1388 H1373 0.960 . S
C1388 H1374 0.960 1_554 S
C1388 H1375 0.960 . S
C1388 C1387 1.524 1_554 S
C1389 C1386 1.403 . S
C1389 C1390 1.392 . S
C1389 C1393 1.495 . S
C1390 C1389 1.392 . S
C1390 C1391 1.385 . S
C1390 C1392 1.478 . S
C1391 H1385 0.966 . S
C1391 C1387 1.400 . S
C1391 C1390 1.385 . S
C1392 C1390 1.478 . S
C1392 C1394 1.381 . S
C1392 C1398 1.383 . S
C1393 C1389 1.495 . S
C1393 H1399 0.959 . S
C1393 H1400 0.961 . S
C1393 H1401 0.960 . S
C1394 C1392 1.381 . S
C1394 C1395 1.394 . S
C1394 H1402 0.930 . S
C1395 C1394 1.394 . S
C1395 C1396 1.383 . S
C1395 H1403 0.929 . S
C1396 C1395 1.383 . S
C1396 C1397 1.377 . S
C1397 H1381 0.930 1_556 S
C1397 C1396 1.377 . S
C1397 C1398 1.379 . S
C1398 H1382 0.962 . S
C1398 C1392 1.383 . S
C1398 C1397 1.379 . S
H1399 C1393 0.959 . S
H1400 C1393 0.961 . S
H1401 C1393 0.960 . S
H1402 C1394 0.930 . S
H1403 C1395 0.929 . S
H1404 C1412 0.929 . S
H1405 C1414 0.930 . S
H1406 C1416 0.930 . S
H1407 C1419 0.929 . S
H1408 C1422 0.930 . S
H1409 C1424 0.960 . S
H1410 C1424 0.960 . S
H1411 C1424 0.960 . S
C1412 H1404 0.929 . S
C1412 C1413 1.377 . S
C1412 C1414 1.384 . S
C1413 C1412 1.377 . S
C1413 C1419 1.390 . S
C1414 H1405 0.930 . S
C1414 C1412 1.384 . S
C1414 C1415 1.372 . S
C1415 C1414 1.372 . S
C1415 C1416 1.400 . S
C1415 C1420 1.490 . S
C1416 H1406 0.930 . S
C1416 C1415 1.400 . S
C1416 C1419 1.386 . S
H1417 C1433 0.930 . S
H1418 C1434 0.931 . S
C1419 H1407 0.929 . S
C1419 C1413 1.390 . S
C1419 C1416 1.386 . S
C1420 C1415 1.490 . S
C1420 C1422 1.395 . S
C1420 C1423 1.403 . S
H1421 C1427 0.930 . S
C1422 H1408 0.930 . S
C1422 C1420 1.395 . S
C1422 C1425 1.403 . S
C1423 C1420 1.403 . S
C1423 C1424 1.524 . S
C1423 C1427 1.400 . S
C1424 H1409 0.960 . S
C1424 H1410 0.960 . S
C1424 H1411 0.960 . S
C1424 C1423 1.524 . S
C1425 C1422 1.403 . S
C1425 C1426 1.392 . S
C1425 C1429 1.495 . S
C1426 C1425 1.392 . S
C1426 C1427 1.385 . S
C1426 C1428 1.478 . S
C1427 H1421 0.930 . S
C1427 C1423 1.400 . S
C1427 C1426 1.385 . S
C1428 C1426 1.478 . S
C1428 C1430 1.381 . S
C1428 C1434 1.383 . S
C1429 C1425 1.495 . S
C1429 H1435 0.959 1_554 S
C1429 H1436 0.961 . S
C1429 H1437 0.960 1_554 S
C1430 C1428 1.381 . S
C1430 C1431 1.394 . S
C1430 H1438 0.930 . S
C1431 C1430 1.394 . S
C1431 C1432 1.383 . S
C1431 H1439 0.929 1_554 S
C1432 C1431 1.383 . S
C1432 C1433 1.377 . S
C1433 H1417 0.930 . S
C1433 C1432 1.377 . S
C1433 C1434 1.379 . S
C1434 H1418 0.931 . S
C1434 C1428 1.383 . S
C1434 C1433 1.379 . S
H1435 C1429 0.959 1_556 S
H1436 C1429 0.961 . S
H1437 C1429 0.960 1_556 S
H1438 C1430 0.930 . S
H1439 C1431 0.929 1_556 S
H1440 C1448 0.929 . S
H1441 C1450 0.930 . S
H1442 C1452 0.930 . S
H1443 C1455 0.929 . S
H1444 C1458 0.930 . S
H1445 C1460 0.960 . S
H1446 C1460 0.960 . S
H1447 C1460 0.960 . S
C1448 H1440 0.929 . S
C1448 C1449 1.377 . S
C1448 C1450 1.384 . S
C1449 C1448 1.377 . S
C1449 C1455 1.390 . S
C1450 H1441 0.930 . S
C1450 C1448 1.384 . S
C1450 C1451 1.372 . S
C1451 C1450 1.372 . S
C1451 C1452 1.400 . S
C1451 C1456 1.490 . S
C1452 H1442 0.930 . S
C1452 C1451 1.400 . S
C1452 C1455 1.386 . S
H1453 C1469 0.930 . S
H1454 C1470 0.931 . S
C1455 H1443 0.929 . S
C1455 C1449 1.390 . S
C1455 C1452 1.386 . S
C1456 C1451 1.490 . S
C1456 C1458 1.395 . S
C1456 C1459 1.403 . S
H1457 C1463 0.930 . S
C1458 H1444 0.930 . S
C1458 C1456 1.395 . S
C1458 C1461 1.403 . S
C1459 C1456 1.403 . S
C1459 C1460 1.524 . S
C1459 C1463 1.400 . S
C1460 H1445 0.960 . S
C1460 H1446 0.960 . S
C1460 H1447 0.960 . S
C1460 C1459 1.524 . S
C1461 C1458 1.403 . S
C1461 C1462 1.392 . S
C1461 C1465 1.495 . S
C1462 C1461 1.392 . S
C1462 C1463 1.385 . S
C1462 C1464 1.478 . S
C1463 H1457 0.930 . S
C1463 C1459 1.400 . S
C1463 C1462 1.385 . S
C1464 C1462 1.478 . S
C1464 C1466 1.381 . S
C1464 C1470 1.383 . S
C1465 C1461 1.495 . S
C1465 H1471 0.959 . S
C1465 H1472 0.961 . S
C1465 H1473 0.960 . S
C1466 C1464 1.381 . S
C1466 C1467 1.394 . S
C1466 H1474 0.930 . S
C1467 C1466 1.394 . S
C1467 C1468 1.383 . S
C1467 H1475 0.929 . S
C1468 C1467 1.383 . S
C1468 C1469 1.377 . S
C1469 H1453 0.930 . S
C1469 C1468 1.377 . S
C1469 C1470 1.379 . S
C1470 H1454 0.931 . S
C1470 C1464 1.383 . S
C1470 C1469 1.379 . S
H1471 C1465 0.959 . S
H1472 C1465 0.961 . S
H1473 C1465 0.960 . S
H1474 C1466 0.930 . S
H1475 C1467 0.929 . S
H1476 C1484 0.929 . S
H1477 C1486 0.930 . S
H1478 C1488 0.930 . S
H1479 C1491 0.929 . S
H1480 C1494 0.930 . S
H1481 C1496 0.960 1_556 S
H1482 C1496 0.960 . S
H1483 C1496 0.960 . S
C1484 H1476 0.929 . S
C1484 C1485 1.377 . S
C1484 C1486 1.384 . S
C1485 C1484 1.377 . S
C1485 C1491 1.390 . S
C1486 H1477 0.930 . S
C1486 C1484 1.384 . S
C1486 C1487 1.372 . S
C1487 C1486 1.372 . S
C1487 C1488 1.400 . S
C1487 C1492 1.490 . S
C1488 H1478 0.930 . S
C1488 C1487 1.400 . S
C1488 C1491 1.386 . S
H1489 C1505 0.930 . S
H1490 C1506 0.931 . S
C1491 H1479 0.929 . S
C1491 C1485 1.390 . S
C1491 C1488 1.386 . S
C1492 C1487 1.490 . S
C1492 C1494 1.395 . S
C1492 C1495 1.403 . S
H1493 C1499 0.930 . S
C1494 H1480 0.930 . S
C1494 C1492 1.395 . S
C1494 C1497 1.403 . S
C1495 C1492 1.403 . S
C1495 C1496 1.524 . S
C1495 C1499 1.400 . S
C1496 H1481 0.960 1_554 S
C1496 H1482 0.960 . S
C1496 H1483 0.960 . S
C1496 C1495 1.524 . S
C1497 C1494 1.403 . S
C1497 C1498 1.392 . S
C1497 C1501 1.495 . S
C1498 C1497 1.392 . S
C1498 C1499 1.385 . S
C1498 C1500 1.478 . S
C1499 H1493 0.930 . S
C1499 C1495 1.400 . S
C1499 C1498 1.385 . S
C1500 C1498 1.478 . S
C1500 C1502 1.381 . S
C1500 C1506 1.383 . S
C1501 C1497 1.495 . S
C1501 H1507 0.959 . S
C1501 H1508 0.961 . S
C1501 H1509 0.960 . S
C1502 C1500 1.381 . S
C1502 C1503 1.394 . S
C1502 H1510 0.930 . S
C1503 C1502 1.394 . S
C1503 C1504 1.383 . S
C1503 H1511 0.929 . S
C1504 C1503 1.383 . S
C1504 C1505 1.377 . S
C1505 H1489 0.930 . S
C1505 C1504 1.377 . S
C1505 C1506 1.379 . S
C1506 H1490 0.931 . S
C1506 C1500 1.383 . S
C1506 C1505 1.379 . S
H1507 C1501 0.959 . S
H1508 C1501 0.961 . S
H1509 C1501 0.960 . S
H1510 C1502 0.930 . S
H1511 C1503 0.929 . S
H1512 C1520 0.929 . S
H1513 C1522 0.930 . S
H1514 C1524 0.930 1_455 S
H1515 C1527 0.929 . S
H1516 C1530 0.930 . S
H1517 C1532 0.960 . S
H1518 C1532 0.960 . S
H1519 C1532 0.960 . S
C1520 H1512 0.929 . S
C1520 C1521 1.377 . S
C1520 C1522 1.384 . S
C1521 C1520 1.377 . S
C1521 C1527 1.390 . S
C1522 H1513 0.930 . S
C1522 C1520 1.384 . S
C1522 C1523 1.372 1_655 S
C1523 C1522 1.372 1_455 S
C1523 C1524 1.400 1_455 S
C1523 C1528 1.490 . S
C1524 H1514 0.930 1_655 S
C1524 C1523 1.400 1_655 S
C1524 C1527 1.386 . S
H1525 C1541 0.930 . S
H1526 C1542 0.931 . S
C1527 H1515 0.929 . S
C1527 C1521 1.390 . S
C1527 C1524 1.386 . S
C1528 C1523 1.490 . S
C1528 C1530 1.395 . S
C1528 C1531 1.403 . S
H1529 C1535 0.930 . S
C1530 H1516 0.930 . S
C1530 C1528 1.395 . S
C1530 C1533 1.403 . S
C1531 C1528 1.403 . S
C1531 C1532 1.524 . S
C1531 C1535 1.400 . S
C1532 H1517 0.960 . S
C1532 H1518 0.960 . S
C1532 H1519 0.960 . S
C1532 C1531 1.524 . S
C1533 C1530 1.403 . S
C1533 C1534 1.392 . S
C1533 C1537 1.495 . S
C1534 C1533 1.392 . S
C1534 C1535 1.385 . S
C1534 C1536 1.478 . S
C1535 H1529 0.930 . S
C1535 C1531 1.400 . S
C1535 C1534 1.385 . S
C1536 C1534 1.478 . S
C1536 C1538 1.381 . S
C1536 C1542 1.383 . S
C1537 C1533 1.495 . S
C1537 H1543 0.959 . S
C1537 H1544 0.961 . S
C1537 H1545 0.960 . S
C1538 C1536 1.381 . S
C1538 C1539 1.394 . S
C1538 H1546 0.930 . S
C1539 C1538 1.394 . S
C1539 C1540 1.383 . S
C1539 H1547 0.929 . S
C1540 C1539 1.383 . S
C1540 C1541 1.377 . S
C1541 H1525 0.930 . S
C1541 C1540 1.377 . S
C1541 C1542 1.379 . S
C1542 H1526 0.931 . S
C1542 C1536 1.383 . S
C1542 C1541 1.379 . S
H1543 C1537 0.959 . S
H1544 C1537 0.961 . S
H1545 C1537 0.960 . S
H1546 C1538 0.930 . S
H1547 C1539 0.929 . S
H1548 C1556 0.929 . S
H1549 C1558 0.930 . S
H1550 C1560 0.930 . S
H1551 C1563 0.929 . S
H1552 C1566 0.930 . S
H1553 C1568 0.960 . S
H1554 C1568 0.960 . S
H1555 C1568 0.960 . S
C1556 H1548 0.929 . S
C1556 C1557 1.377 . S
C1556 C1558 1.384 . S
C1557 C1556 1.377 . S
C1557 C1563 1.390 . S
C1558 H1549 0.930 . S
C1558 C1556 1.384 . S
C1558 C1559 1.372 . S
C1559 C1558 1.372 . S
C1559 C1560 1.400 . S
C1559 C1564 1.490 . S
C1560 H1550 0.930 . S
C1560 C1559 1.400 . S
C1560 C1563 1.386 . S
H1561 C1577 0.930 . S
H1562 C1578 0.931 . S
C1563 H1551 0.929 . S
C1563 C1557 1.390 . S
C1563 C1560 1.386 . S
C1564 C1559 1.490 . S
C1564 C1566 1.395 . S
C1564 C1567 1.403 . S
H1565 C1571 0.930 . S
C1566 H1552 0.930 . S
C1566 C1564 1.395 . S
C1566 C1569 1.403 . S
C1567 C1564 1.403 . S
C1567 C1568 1.524 . S
C1567 C1571 1.400 . S
C1568 H1553 0.960 . S
C1568 H1554 0.960 . S
C1568 H1555 0.960 . S
C1568 C1567 1.524 . S
C1569 C1566 1.403 . S
C1569 C1570 1.392 . S
C1569 C1573 1.495 . S
C1570 C1569 1.392 . S
C1570 C1571 1.385 . S
C1570 C1572 1.478 . S
C1571 H1565 0.930 . S
C1571 C1567 1.400 . S
C1571 C1570 1.385 . S
C1572 C1570 1.478 . S
C1572 C1574 1.381 . S
C1572 C1578 1.383 . S
C1573 C1569 1.495 . S
C1573 H1579 0.959 . S
C1573 H1580 0.961 . S
C1573 H1581 0.960 . S
C1574 C1572 1.381 . S
C1574 C1575 1.394 . S
C1574 H1582 0.930 . S
C1575 C1574 1.394 . S
C1575 C1576 1.383 . S
C1575 H1583 0.929 . S
C1576 C1575 1.383 . S
C1576 C1577 1.377 . S
C1577 H1561 0.930 . S
C1577 C1576 1.377 . S
C1577 C1578 1.379 . S
C1578 H1562 0.931 . S
C1578 C1572 1.383 . S
C1578 C1577 1.379 . S
H1579 C1573 0.959 . S
H1580 C1573 0.961 . S
H1581 C1573 0.960 . S
H1582 C1574 0.930 . S
H1583 C1575 0.929 . S
H1584 C1592 0.929 . S
H1585 C1594 0.930 . S
H1586 C1596 0.930 . S
H1587 C1599 0.929 . S
H1588 C1602 0.930 . S
H1589 C1604 0.960 . S
H1590 C1604 0.960 . S
H1591 C1604 1.011 . S
C1592 H1584 0.929 . S
C1592 C1593 1.377 . S
C1592 C1594 1.384 . S
C1593 C1592 1.377 . S
C1593 C1599 1.390 . S
C1594 H1585 0.930 . S
C1594 C1592 1.384 . S
C1594 C1595 1.372 . S
C1595 C1594 1.372 . S
C1595 C1596 1.400 . S
C1595 C1600 1.490 1_545 S
C1596 H1586 0.930 . S
C1596 C1595 1.400 . S
C1596 C1599 1.386 . S
H1597 C1613 0.930 . S
H1598 C1614 0.931 . S
C1599 H1587 0.929 . S
C1599 C1593 1.390 . S
C1599 C1596 1.386 . S
C1600 C1595 1.490 1_565 S
C1600 C1602 1.395 . S
C1600 C1603 1.403 . S
H1601 C1607 0.930 . S
C1602 H1588 0.930 . S
C1602 C1600 1.395 . S
C1602 C1605 1.403 . S
C1603 C1600 1.403 . S
C1603 C1604 1.524 . S
C1603 C1607 1.400 . S
C1604 H1589 0.960 . S
C1604 H1590 0.960 . S
C1604 H1591 1.011 . S
C1604 C1603 1.524 . S
C1605 C1602 1.403 . S
C1605 C1606 1.392 . S
C1605 C1609 1.495 . S
C1606 C1605 1.392 . S
C1606 C1607 1.385 . S
C1606 C1608 1.478 . S
C1607 H1601 0.930 . S
C1607 C1603 1.400 . S
C1607 C1606 1.385 . S
C1608 C1606 1.478 . S
C1608 C1610 1.381 . S
C1608 C1614 1.383 . S
C1609 C1605 1.495 . S
C1609 H1615 0.959 . S
C1609 H1616 0.961 . S
C1609 H1617 0.960 . S
C1610 C1608 1.381 . S
C1610 C1611 1.394 . S
C1610 H1618 0.930 . S
C1611 C1610 1.394 . S
C1611 C1612 1.383 . S
C1611 H1619 0.929 . S
C1612 C1611 1.383 . S
C1612 C1613 1.377 . S
C1613 H1597 0.930 . S
C1613 C1612 1.377 . S
C1613 C1614 1.379 . S
C1614 H1598 0.931 . S
C1614 C1608 1.383 . S
C1614 C1613 1.379 . S
H1615 C1609 0.959 . S
H1616 C1609 0.961 . S
H1617 C1609 0.960 . S
H1618 C1610 0.930 . S
H1619 C1611 0.929 . S
H1620 C1628 0.929 . S
H1621 C1630 0.930 . S
H1622 C1632 0.930 . S
H1623 C1635 0.929 . S
H1624 C1638 0.930 . S
H1625 C1640 0.960 . S
H1626 C1640 0.960 . S
H1627 C1640 0.960 . S
C1628 H1620 0.929 . S
C1628 C1629 1.377 . S
C1628 C1630 1.384 . S
C1629 C1628 1.377 . S
C1629 C1635 1.390 . S
C1630 H1621 0.930 . S
C1630 C1628 1.384 . S
C1630 C1631 1.372 . S
C1631 C1630 1.372 . S
C1631 C1632 1.400 . S
C1631 C1636 1.490 . S
C1632 H1622 0.930 . S
C1632 C1631 1.400 . S
C1632 C1635 1.386 . S
H1633 C1649 0.930 . S
H1634 C1650 0.931 . S
C1635 H1623 0.929 . S
C1635 C1629 1.390 . S
C1635 C1632 1.386 . S
C1636 C1631 1.490 . S
C1636 C1638 1.395 . S
C1636 C1639 1.403 . S
H1637 C1643 0.930 . S
C1638 H1624 0.930 . S
C1638 C1636 1.395 . S
C1638 C1641 1.403 . S
C1639 C1636 1.403 . S
C1639 C1640 1.524 . S
C1639 C1643 1.400 . S
C1640 H1625 0.960 . S
C1640 H1626 0.960 . S
C1640 H1627 0.960 . S
C1640 C1639 1.524 . S
C1641 C1638 1.403 . S
C1641 C1642 1.392 . S
C1641 C1645 1.495 . S
C1642 C1641 1.392 . S
C1642 C1643 1.385 . S
C1642 C1644 1.478 . S
C1643 H1637 0.930 . S
C1643 C1639 1.400 . S
C1643 C1642 1.385 . S
C1644 C1642 1.478 . S
C1644 C1646 1.381 . S
C1644 C1650 1.383 . S
C1645 C1641 1.495 . S
C1645 H1651 0.959 . S
C1645 H1652 0.961 . S
C1645 H1653 0.960 . S
C1646 C1644 1.381 . S
C1646 C1647 1.394 . S
C1646 H1654 0.930 . S
C1647 C1646 1.394 . S
C1647 C1648 1.383 . S
C1647 H1655 0.929 . S
C1648 C1647 1.383 . S
C1648 C1649 1.377 . S
C1649 H1633 0.930 . S
C1649 C1648 1.377 . S
C1649 C1650 1.379 . S
C1650 H1634 0.931 . S
C1650 C1644 1.383 . S
C1650 C1649 1.379 . S
H1651 C1645 0.959 . S
H1652 C1645 0.961 . S
H1653 C1645 0.960 . S
H1654 C1646 0.930 . S
H1655 C1647 0.929 . S
H1656 C1664 0.929 . S
H1657 C1666 0.930 . S
H1658 C1668 0.930 . S
H1659 C1671 0.929 . S
H1660 C1674 0.930 . S
H1661 C1676 0.960 . S
H1662 C1676 0.960 . S
H1663 C1676 0.960 . S
C1664 H1656 0.929 . S
C1664 C1665 1.377 . S
C1664 C1666 1.384 . S
C1665 C1664 1.377 . S
C1665 C1671 1.390 . S
C1666 H1657 0.930 . S
C1666 C1664 1.384 . S
C1666 C1667 1.372 . S
C1667 C1666 1.372 . S
C1667 C1668 1.400 . S
C1667 C1672 1.490 . S
C1668 H1658 0.930 . S
C1668 C1667 1.400 . S
C1668 C1671 1.386 . S
H1669 C1685 0.930 . S
H1670 C1686 0.931 . S
C1671 H1659 0.929 . S
C1671 C1665 1.390 . S
C1671 C1668 1.386 . S
C1672 C1667 1.490 . S
C1672 C1674 1.395 . S
C1672 C1675 1.403 . S
H1673 C1679 0.930 . S
C1674 H1660 0.930 . S
C1674 C1672 1.395 . S
C1674 C1677 1.403 . S
C1675 C1672 1.403 . S
C1675 C1676 1.524 . S
C1675 C1679 1.400 . S
C1676 H1661 0.960 . S
C1676 H1662 0.960 . S
C1676 H1663 0.960 . S
C1676 C1675 1.524 . S
C1677 C1674 1.403 . S
C1677 C1678 1.392 . S
C1677 C1681 1.495 . S
C1678 C1677 1.392 . S
C1678 C1679 1.385 . S
C1678 C1680 1.478 . S
C1679 H1673 0.930 . S
C1679 C1675 1.400 . S
C1679 C1678 1.385 . S
C1680 C1678 1.478 . S
C1680 C1682 1.381 . S
C1680 C1686 1.383 . S
C1681 C1677 1.495 . S
C1681 H1687 0.959 . S
C1681 H1688 0.961 . S
C1681 H1689 0.960 . S
C1682 C1680 1.381 . S
C1682 C1683 1.394 . S
C1682 H1690 0.930 . S
C1683 C1682 1.394 . S
C1683 C1684 1.383 . S
C1683 H1691 0.929 . S
C1684 C1683 1.383 . S
C1684 C1685 1.377 . S
C1685 H1669 0.930 . S
C1685 C1684 1.377 . S
C1685 C1686 1.379 . S
C1686 H1670 0.931 . S
C1686 C1680 1.383 . S
C1686 C1685 1.379 . S
H1687 C1681 0.959 . S
H1688 C1681 0.961 . S
H1689 C1681 0.960 . S
H1690 C1682 0.930 . S
H1691 C1683 0.929 . S
H1692 C1700 0.929 . S
H1693 C1702 0.930 . S
H1694 C1704 0.930 . S
H1695 C1707 0.929 . S
H1696 C1710 0.930 . S
H1697 C1712 0.960 . S
H1698 C1712 0.960 . S
H1699 C1712 0.960 . S
C1700 H1692 0.929 . S
C1700 C1701 1.377 . S
C1700 C1702 1.384 . S
C1701 C1700 1.377 . S
C1701 C1707 1.390 . S
C1702 H1693 0.930 . S
C1702 C1700 1.384 . S
C1702 C1703 1.372 . S
C1703 C1702 1.372 . S
C1703 C1704 1.400 . S
C1703 C1708 1.490 . S
C1704 H1694 0.930 . S
C1704 C1703 1.400 . S
C1704 C1707 1.386 . S
H1705 C1721 0.930 . S
H1706 C1722 0.931 . S
C1707 H1695 0.929 . S
C1707 C1701 1.390 . S
C1707 C1704 1.386 . S
C1708 C1703 1.490 . S
C1708 C1710 1.395 . S
C1708 C1711 1.403 . S
H1709 C1715 0.930 . S
C1710 H1696 0.930 . S
C1710 C1708 1.395 . S
C1710 C1713 1.403 . S
C1711 C1708 1.403 . S
C1711 C1712 1.524 . S
C1711 C1715 1.400 . S
C1712 H1697 0.960 . S
C1712 H1698 0.960 . S
C1712 H1699 0.960 . S
C1712 C1711 1.524 . S
C1713 C1710 1.403 . S
C1713 C1714 1.392 . S
C1713 C1717 1.495 . S
C1714 C1713 1.392 . S
C1714 C1715 1.385 . S
C1714 C1716 1.478 . S
C1715 H1709 0.930 . S
C1715 C1711 1.400 . S
C1715 C1714 1.385 . S
C1716 C1714 1.478 . S
C1716 C1718 1.381 . S
C1716 C1722 1.383 . S
C1717 C1713 1.495 . S
C1717 H1723 0.959 . S
C1717 H1724 0.961 . S
C1717 H1725 0.960 . S
C1718 C1716 1.381 . S
C1718 C1719 1.394 . S
C1718 H1726 0.930 . S
C1719 C1718 1.394 . S
C1719 C1720 1.383 . S
C1719 H1727 0.929 . S
C1720 C1719 1.383 . S
C1720 C1721 1.377 . S
C1721 H1705 0.930 . S
C1721 C1720 1.377 . S
C1721 C1722 1.379 . S
C1722 H1706 0.931 . S
C1722 C1716 1.383 . S
C1722 C1721 1.379 . S
H1723 C1717 0.959 . S
H1724 C1717 0.961 . S
H1725 C1717 0.960 . S
H1726 C1718 0.930 . S
H1727 C1719 0.929 . S
H1728 C1736 0.929 . S
H1729 C1738 0.930 . S
H1730 C1740 0.930 . S
H1731 C1743 0.929 . S
H1732 C1746 0.930 . S
H1733 C1748 0.960 . S
H1734 C1748 0.960 . S
H1735 C1748 0.960 . S
C1736 H1728 0.929 . S
C1736 C1737 1.377 . S
C1736 C1738 1.384 . S
C1737 C1736 1.377 . S
C1737 C1743 1.390 . S
C1738 H1729 0.930 . S
C1738 C1736 1.384 . S
C1738 C1739 1.372 . S
C1739 C1738 1.372 . S
C1739 C1740 1.400 . S
C1739 C1744 1.490 . S
C1740 H1730 0.930 . S
C1740 C1739 1.400 . S
C1740 C1743 1.386 . S
H1741 C1757 0.930 . S
H1742 C1758 0.931 . S
C1743 H1731 0.929 . S
C1743 C1737 1.390 . S
C1743 C1740 1.386 . S
C1744 C1739 1.490 . S
C1744 C1746 1.395 . S
C1744 C1747 1.403 . S
H1745 C1751 0.930 . S
C1746 H1732 0.930 . S
C1746 C1744 1.395 . S
C1746 C1749 1.403 . S
C1747 C1744 1.403 . S
C1747 C1748 1.524 . S
C1747 C1751 1.400 . S
C1748 H1733 0.960 . S
C1748 H1734 0.960 . S
C1748 H1735 0.960 . S
C1748 C1747 1.524 . S
C1749 C1746 1.403 . S
C1749 C1750 1.392 . S
C1749 C1753 1.495 . S
C1750 C1749 1.392 . S
C1750 C1751 1.385 . S
C1750 C1752 1.478 . S
C1751 H1745 0.930 . S
C1751 C1747 1.400 . S
C1751 C1750 1.385 . S
C1752 C1750 1.478 . S
C1752 C1754 1.381 . S
C1752 C1758 1.383 . S
C1753 C1749 1.495 . S
C1753 H1759 0.959 . S
C1753 H1760 0.961 . S
C1753 H1761 0.960 . S
C1754 C1752 1.381 . S
C1754 C1755 1.394 . S
C1754 H1762 0.930 . S
C1755 C1754 1.394 . S
C1755 C1756 1.383 . S
C1755 H1763 0.929 . S
C1756 C1755 1.383 . S
C1756 C1757 1.377 . S
C1757 H1741 0.930 . S
C1757 C1756 1.377 . S
C1757 C1758 1.379 . S
C1758 H1742 0.931 . S
C1758 C1752 1.383 . S
C1758 C1757 1.379 . S
H1759 C1753 0.959 . S
H1760 C1753 0.961 . S
H1761 C1753 0.960 . S
H1762 C1754 0.930 . S
H1763 C1755 0.929 . S
H1764 C1772 0.929 . S
H1765 C1774 0.930 . S
H1766 C1776 0.930 . S
H1767 C1779 0.929 . S
H1768 C1782 0.930 . S
H1769 C1784 0.960 . S
H1770 C1784 0.960 . S
H1771 C1784 0.960 . S
C1772 H1764 0.929 . S
C1772 C1773 1.377 . S
C1772 C1774 1.384 . S
C1773 C1772 1.377 . S
C1773 C1779 1.390 . S
C1774 H1765 0.930 . S
C1774 C1772 1.384 . S
C1774 C1775 1.372 . S
C1775 C1774 1.372 . S
C1775 C1776 1.400 . S
C1775 C1780 1.490 . S
C1776 H1766 0.930 . S
C1776 C1775 1.400 . S
C1776 C1779 1.386 . S
H1777 C1793 0.930 . S
H1778 C1794 0.931 . S
C1779 H1767 0.929 . S
C1779 C1773 1.390 . S
C1779 C1776 1.386 . S
C1780 C1775 1.490 . S
C1780 C1782 1.395 . S
C1780 C1783 1.403 . S
H1781 C1787 0.930 . S
C1782 H1768 0.930 . S
C1782 C1780 1.395 . S
C1782 C1785 1.403 . S
C1783 C1780 1.403 . S
C1783 C1784 1.524 . S
C1783 C1787 1.400 . S
C1784 H1769 0.960 . S
C1784 H1770 0.960 . S
C1784 H1771 0.960 . S
C1784 C1783 1.524 . S
C1785 C1782 1.403 . S
C1785 C1786 1.392 . S
C1785 C1789 1.495 . S
C1786 C1785 1.392 . S
C1786 C1787 1.385 . S
C1786 C1788 1.478 . S
C1787 H1781 0.930 . S
C1787 C1783 1.400 . S
C1787 C1786 1.385 . S
C1788 C1786 1.478 . S
C1788 C1790 1.381 . S
C1788 C1794 1.383 . S
C1789 C1785 1.495 . S
C1789 H1795 0.959 . S
C1789 H1796 0.961 . S
C1789 H1797 0.960 . S
C1790 C1788 1.381 . S
C1790 C1791 1.394 . S
C1790 H1798 0.930 . S
C1791 C1790 1.394 . S
C1791 C1792 1.383 . S
C1791 H1799 0.929 . S
C1792 C1791 1.383 . S
C1792 C1793 1.377 . S
C1793 H1777 0.930 . S
C1793 C1792 1.377 . S
C1793 C1794 1.379 . S
C1794 H1778 0.931 . S
C1794 C1788 1.383 . S
C1794 C1793 1.379 . S
H1795 C1789 0.959 . S
H1796 C1789 0.961 . S
H1797 C1789 0.960 . S
H1798 C1790 0.930 . S
H1799 C1791 0.929 . S
H1800 C1808 0.929 . S
H1801 C1810 0.930 . S
H1802 C1812 0.930 . S
H1803 C1815 0.929 . S
H1804 C1818 0.930 . S
H1805 C1820 0.960 . S
H1806 C1820 0.960 . S
H1807 C1820 0.960 . S
C1808 H1800 0.929 . S
C1808 C1809 1.377 . S
C1808 C1810 1.384 . S
C1809 C1808 1.377 . S
C1809 C1815 1.390 . S
C1810 H1801 0.930 . S
C1810 C1808 1.384 . S
C1810 C1811 1.372 . S
C1811 C1810 1.372 . S
C1811 C1812 1.400 . S
C1811 C1816 1.490 . S
C1812 H1802 0.930 . S
C1812 C1811 1.400 . S
C1812 C1815 1.386 . S
H1813 C1829 0.930 . S
H1814 C1830 0.931 . S
C1815 H1803 0.929 . S
C1815 C1809 1.390 . S
C1815 C1812 1.386 . S
C1816 C1811 1.490 . S
C1816 C1818 1.395 . S
C1816 C1819 1.403 . S
H1817 C1823 0.930 . S
C1818 H1804 0.930 . S
C1818 C1816 1.395 . S
C1818 C1821 1.403 . S
C1819 C1816 1.403 . S
C1819 C1820 1.524 . S
C1819 C1823 1.400 . S
C1820 H1805 0.960 . S
C1820 H1806 0.960 . S
C1820 H1807 0.960 . S
C1820 C1819 1.524 . S
C1821 C1818 1.403 . S
C1821 C1822 1.392 . S
C1821 C1825 1.495 . S
C1822 C1821 1.392 . S
C1822 C1823 1.385 . S
C1822 C1824 1.478 . S
C1823 H1817 0.930 . S
C1823 C1819 1.400 . S
C1823 C1822 1.385 . S
C1824 C1822 1.478 . S
C1824 C1826 1.381 . S
C1824 C1830 1.383 . S
C1825 C1821 1.495 . S
C1825 H1831 0.959 . S
C1825 H1832 0.961 . S
C1825 H1833 0.960 . S
C1826 C1824 1.381 . S
C1826 C1827 1.394 . S
C1826 H1834 0.930 . S
C1827 C1826 1.394 . S
C1827 C1828 1.383 . S
C1827 H1835 0.929 . S
C1828 C1827 1.383 . S
C1828 C1829 1.377 . S
C1829 H1813 0.930 . S
C1829 C1828 1.377 . S
C1829 C1830 1.379 . S
C1830 H1814 0.931 . S
C1830 C1824 1.383 . S
C1830 C1829 1.379 . S
H1831 C1825 0.959 . S
H1832 C1825 0.961 . S
H1833 C1825 0.960 . S
H1834 C1826 0.930 . S
H1835 C1827 0.929 . S
H1836 C1844 0.929 . S
H1837 C1846 0.930 . S
H1838 C1848 0.930 . S
H1839 C1851 0.929 . S
H1840 C1854 0.930 . S
H1841 C1856 0.960 . S
H1842 C1856 0.960 . S
H1843 C1856 0.960 . S
C1844 H1836 0.929 . S
C1844 C1845 1.377 . S
C1844 C1846 1.384 . S
C1845 C1844 1.377 . S
C1845 C1851 1.390 . S
C1846 H1837 0.930 . S
C1846 C1844 1.384 . S
C1846 C1847 1.372 . S
C1847 C1846 1.372 . S
C1847 C1848 1.400 . S
C1847 C1852 1.490 1_545 S
C1848 H1838 0.930 . S
C1848 C1847 1.400 . S
C1848 C1851 1.386 . S
H1849 C1865 0.930 . S
H1850 C1866 0.931 . S
C1851 H1839 0.929 . S
C1851 C1845 1.390 . S
C1851 C1848 1.386 . S
C1852 C1847 1.490 1_565 S
C1852 C1854 1.395 . S
C1852 C1855 1.403 . S
H1853 C1859 0.930 . S
C1854 H1840 0.930 . S
C1854 C1852 1.395 . S
C1854 C1857 1.403 . S
C1855 C1852 1.403 . S
C1855 C1856 1.524 . S
C1855 C1859 1.400 . S
C1856 H1841 0.960 . S
C1856 H1842 0.960 . S
C1856 H1843 0.960 . S
C1856 C1855 1.524 . S
C1857 C1854 1.403 . S
C1857 C1858 1.392 . S
C1857 C1861 1.495 . S
C1858 C1857 1.392 . S
C1858 C1859 1.385 . S
C1858 C1860 1.478 . S
C1859 H1853 0.930 . S
C1859 C1855 1.400 . S
C1859 C1858 1.385 . S
C1860 C1858 1.478 . S
C1860 C1862 1.381 . S
C1860 C1866 1.383 . S
C1861 C1857 1.495 . S
C1861 H1867 0.959 . S
C1861 H1868 0.961 . S
C1861 H1869 0.960 . S
C1862 C1860 1.381 . S
C1862 C1863 1.394 . S
C1862 H1870 0.930 . S
C1863 C1862 1.394 . S
C1863 C1864 1.383 . S
C1863 H1871 0.929 . S
C1864 C1863 1.383 . S
C1864 C1865 1.377 . S
C1865 H1849 0.930 . S
C1865 C1864 1.377 . S
C1865 C1866 1.379 . S
C1866 H1850 0.931 . S
C1866 C1860 1.383 . S
C1866 C1865 1.379 . S
H1867 C1861 0.959 . S
H1868 C1861 0.961 . S
H1869 C1861 0.960 . S
H1870 C1862 0.930 . S
H1871 C1863 0.929 . S
H1872 C1880 0.929 . S
H1873 C1882 0.930 . S
H1874 C1884 0.930 . S
H1875 C1887 0.929 . S
H1876 C1890 0.930 . S
H1877 C1892 0.960 . S
H1878 C1892 0.960 . S
H1879 C1892 0.960 . S
C1880 H1872 0.929 . S
C1880 C1881 1.377 . S
C1880 C1882 1.384 1_655 S
C1881 C1880 1.377 . S
C1881 C1887 1.390 . S
C1882 H1873 0.930 . S
C1882 C1880 1.384 1_455 S
C1882 C1883 1.372 . S
C1883 C1882 1.372 . S
C1883 C1884 1.400 . S
C1883 C1888 1.490 . S
C1884 H1874 0.930 . S
C1884 C1883 1.400 . S
C1884 C1887 1.386 1_455 S
H1885 C1901 0.930 . S
H1886 C1902 0.931 . S
C1887 H1875 0.929 . S
C1887 C1881 1.390 . S
C1887 C1884 1.386 1_655 S
C1888 C1883 1.490 . S
C1888 C1890 1.395 . S
C1888 C1891 1.403 . S
H1889 C1895 0.930 . S
C1890 H1876 0.930 . S
C1890 C1888 1.395 . S
C1890 C1893 1.403 . S
C1891 C1888 1.403 . S
C1891 C1892 1.524 . S
C1891 C1895 1.400 . S
C1892 H1877 0.960 . S
C1892 H1878 0.960 . S
C1892 H1879 0.960 . S
C1892 C1891 1.524 . S
C1893 C1890 1.403 . S
C1893 C1894 1.392 . S
C1893 C1897 1.495 . S
C1894 C1893 1.392 . S
C1894 C1895 1.385 . S
C1894 C1896 1.478 . S
C1895 H1889 0.930 . S
C1895 C1891 1.400 . S
C1895 C1894 1.385 . S
C1896 C1894 1.478 . S
C1896 C1898 1.381 . S
C1896 C1902 1.383 . S
C1897 C1893 1.495 . S
C1897 H1903 0.959 . S
C1897 H1904 0.961 . S
C1897 H1905 0.960 . S
C1898 C1896 1.381 . S
C1898 C1899 1.394 . S
C1898 H1906 0.930 . S
C1899 C1898 1.394 . S
C1899 C1900 1.383 . S
C1899 H1907 0.929 . S
C1900 C1899 1.383 . S
C1900 C1901 1.377 . S
C1901 H1885 0.930 . S
C1901 C1900 1.377 . S
C1901 C1902 1.379 . S
C1902 H1886 0.931 . S
C1902 C1896 1.383 . S
C1902 C1901 1.379 . S
H1903 C1897 0.959 . S
H1904 C1897 0.961 . S
H1905 C1897 0.960 . S
H1906 C1898 0.930 . S
H1907 C1899 0.929 . S
H1908 C1916 0.929 . S
H1909 C1918 0.930 . S
H1910 C1920 0.930 . S
H1911 C1923 0.929 . S
H1912 C1926 0.930 . S
H1913 C1928 0.960 . S
H1914 C1928 0.960 . S
H1915 C1928 0.960 . S
C1916 H1908 0.929 . S
C1916 C1917 1.377 . S
C1916 C1918 1.384 . S
C1917 C1916 1.377 . S
C1917 C1923 1.390 . S
C1918 H1909 0.930 . S
C1918 C1916 1.384 . S
C1918 C1919 1.372 . S
C1919 C1918 1.372 . S
C1919 C1920 1.400 . S
C1919 C1924 1.490 . S
C1920 H1910 0.930 . S
C1920 C1919 1.400 . S
C1920 C1923 1.386 . S
H1921 C1937 0.930 . S
H1922 C1938 0.931 . S
C1923 H1911 0.929 . S
C1923 C1917 1.390 . S
C1923 C1920 1.386 . S
C1924 C1919 1.490 . S
C1924 C1926 1.395 . S
C1924 C1927 1.403 . S
H1925 C1931 0.930 . S
C1926 H1912 0.930 . S
C1926 C1924 1.395 . S
C1926 C1929 1.403 . S
C1927 C1924 1.403 . S
C1927 C1928 1.524 . S
C1927 C1931 1.400 . S
C1928 H1913 0.960 . S
C1928 H1914 0.960 . S
C1928 H1915 0.960 . S
C1928 C1927 1.524 . S
C1929 C1926 1.403 . S
C1929 C1930 1.392 . S
C1929 C1933 1.495 . S
C1930 C1929 1.392 . S
C1930 C1931 1.385 . S
C1930 C1932 1.478 . S
C1931 H1925 0.930 . S
C1931 C1927 1.400 . S
C1931 C1930 1.385 . S
C1932 C1930 1.478 . S
C1932 C1934 1.381 . S
C1932 C1938 1.383 . S
C1933 C1929 1.495 . S
C1933 H1939 0.959 . S
C1933 H1940 0.961 . S
C1933 H1941 0.960 . S
C1934 C1932 1.381 . S
C1934 C1935 1.394 . S
C1934 H1942 0.930 . S
C1935 C1934 1.394 . S
C1935 C1936 1.383 . S
C1935 H1943 0.929 . S
C1936 C1935 1.383 . S
C1936 C1937 1.377 . S
C1937 H1921 0.930 . S
C1937 C1936 1.377 . S
C1937 C1938 1.379 . S
C1938 H1922 0.931 . S
C1938 C1932 1.383 . S
C1938 C1937 1.379 . S
H1939 C1933 0.959 . S
H1940 C1933 0.961 . S
H1941 C1933 0.960 . S
H1942 C1934 0.930 . S
H1943 C1935 0.929 . S
H1944 C1952 0.929 . S
H1945 C1954 0.930 . S
H1946 C1956 0.930 . S
H1947 C1959 0.929 . S
H1948 C1962 0.930 . S
H1949 C1964 0.960 . S
H1950 C1964 0.960 . S
H1951 C1964 0.960 . S
C1952 H1944 0.929 . S
C1952 C1953 1.377 . S
C1952 C1954 1.384 . S
C1953 C1952 1.377 . S
C1953 C1959 1.390 . S
C1954 H1945 0.930 . S
C1954 C1952 1.384 . S
C1954 C1955 1.372 . S
C1955 C1954 1.372 . S
C1955 C1956 1.400 . S
C1955 C1960 1.490 . S
C1956 H1946 0.930 . S
C1956 C1955 1.400 . S
C1956 C1959 1.386 . S
H1957 C1973 0.930 . S
H1958 C1974 0.931 . S
C1959 H1947 0.929 . S
C1959 C1953 1.390 . S
C1959 C1956 1.386 . S
C1960 C1955 1.490 . S
C1960 C1962 1.395 . S
C1960 C1963 1.403 . S
H1961 C1967 0.930 . S
C1962 H1948 0.930 . S
C1962 C1960 1.395 . S
C1962 C1965 1.403 . S
C1963 C1960 1.403 . S
C1963 C1964 1.524 . S
C1963 C1967 1.400 . S
C1964 H1949 0.960 . S
C1964 H1950 0.960 . S
C1964 H1951 0.960 . S
C1964 C1963 1.524 . S
C1965 C1962 1.403 . S
C1965 C1966 1.392 . S
C1965 C1969 1.495 . S
C1966 C1965 1.392 . S
C1966 C1967 1.385 . S
C1966 C1968 1.478 . S
C1967 H1961 0.930 . S
C1967 C1963 1.400 . S
C1967 C1966 1.385 . S
C1968 C1966 1.478 . S
C1968 C1970 1.381 . S
C1968 C1974 1.383 . S
C1969 C1965 1.495 . S
C1969 H1975 0.959 . S
C1969 H1976 0.961 . S
C1969 H1977 0.960 . S
C1970 C1968 1.381 . S
C1970 C1971 1.394 . S
C1970 H1978 0.930 . S
C1971 C1970 1.394 . S
C1971 C1972 1.383 . S
C1971 H1979 0.929 . S
C1972 C1971 1.383 . S
C1972 C1973 1.377 . S
C1973 H1957 0.930 . S
C1973 C1972 1.377 . S
C1973 C1974 1.379 . S
C1974 H1958 0.931 . S
C1974 C1968 1.383 . S
C1974 C1973 1.379 . S
H1975 C1969 0.959 . S
H1976 C1969 0.961 . S
H1977 C1969 0.960 . S
H1978 C1970 0.930 . S
H1979 C1971 0.929 . S
H1980 C1988 0.929 . S
H1981 C1990 0.930 . S
H1982 C1992 0.930 . S
H1983 C1995 0.929 . S
H1984 C1998 0.930 . S
H1985 C2000 0.960 . S
H1986 C2000 0.960 . S
H1987 C2000 0.960 . S
C1988 H1980 0.929 . S
C1988 C1989 1.377 . S
C1988 C1990 1.384 . S
C1989 C1988 1.377 . S
C1989 C1995 1.390 . S
C1990 H1981 0.930 . S
C1990 C1988 1.384 . S
C1990 C1991 1.372 . S
C1991 C1990 1.372 . S
C1991 C1992 1.400 . S
C1991 C1996 1.490 . S
C1992 H1982 0.930 . S
C1992 C1991 1.400 . S
C1992 C1995 1.386 . S
H1993 C2009 0.930 . S
H1994 C2010 0.931 . S
C1995 H1983 0.929 . S
C1995 C1989 1.390 . S
C1995 C1992 1.386 . S
C1996 C1991 1.490 . S
C1996 C1998 1.395 . S
C1996 C1999 1.403 . S
H1997 C2003 0.930 . S
C1998 H1984 0.930 . S
C1998 C1996 1.395 . S
C1998 C2001 1.403 . S
C1999 C1996 1.403 . S
C1999 C2000 1.524 . S
C1999 C2003 1.400 . S
C2000 H1985 0.960 . S
C2000 H1986 0.960 . S
C2000 H1987 0.960 . S
C2000 C1999 1.524 . S
C2001 C1998 1.403 . S
C2001 C2002 1.392 . S
C2001 C2005 1.495 . S
C2002 C2001 1.392 . S
C2002 C2003 1.385 . S
C2002 C2004 1.478 . S
C2003 H1997 0.930 . S
C2003 C1999 1.400 . S
C2003 C2002 1.385 . S
C2004 C2002 1.478 . S
C2004 C2006 1.381 . S
C2004 C2010 1.383 . S
C2005 C2001 1.495 . S
C2005 H2011 0.959 . S
C2005 H2012 0.961 . S
C2005 H2013 0.960 . S
C2006 C2004 1.381 . S
C2006 C2007 1.394 . S
C2006 H2014 0.930 . S
C2007 C2006 1.394 . S
C2007 C2008 1.383 . S
C2007 H2015 0.929 . S
C2008 C2007 1.383 . S
C2008 C2009 1.377 . S
C2009 H1993 0.930 . S
C2009 C2008 1.377 . S
C2009 C2010 1.379 . S
C2010 H1994 0.931 . S
C2010 C2004 1.383 . S
C2010 C2009 1.379 . S
H2011 C2005 0.959 . S
H2012 C2005 0.961 . S
H2013 C2005 0.960 . S
H2014 C2006 0.930 . S
H2015 C2007 0.929 . S
H2016 C2024 0.929 . S
H2017 C2026 0.930 . S
H2018 C2028 0.930 . S
H2019 C2031 0.929 . S
H2020 C2034 0.930 . S
H2021 C2036 0.960 . S
H2022 C2036 0.960 . S
H2023 C2036 0.960 . S
C2024 H2016 0.929 . S
C2024 C2025 1.377 . S
C2024 C2026 1.384 . S
C2025 C2024 1.377 . S
C2025 C2031 1.390 . S
C2026 H2017 0.930 . S
C2026 C2024 1.384 . S
C2026 C2027 1.372 . S
C2027 C2026 1.372 . S
C2027 C2028 1.400 . S
C2027 C2032 1.490 . S
C2028 H2018 0.930 . S
C2028 C2027 1.400 . S
C2028 C2031 1.386 . S
H2029 C2045 0.930 . S
H2030 C2046 0.931 . S
C2031 H2019 0.929 . S
C2031 C2025 1.390 . S
C2031 C2028 1.386 . S
C2032 C2027 1.490 . S
C2032 C2034 1.395 . S
C2032 C2035 1.403 . S
H2033 C2039 0.930 . S
C2034 H2020 0.930 . S
C2034 C2032 1.395 . S
C2034 C2037 1.403 . S
C2035 C2032 1.403 . S
C2035 C2036 1.524 . S
C2035 C2039 1.400 . S
C2036 H2021 0.960 . S
C2036 H2022 0.960 . S
C2036 H2023 0.960 . S
C2036 C2035 1.524 . S
C2037 C2034 1.403 . S
C2037 C2038 1.392 . S
C2037 C2041 1.495 . S
C2038 C2037 1.392 . S
C2038 C2039 1.385 . S
C2038 C2040 1.478 . S
C2039 H2033 0.930 . S
C2039 C2035 1.400 . S
C2039 C2038 1.385 . S
C2040 C2038 1.478 . S
C2040 C2042 1.381 . S
C2040 C2046 1.383 . S
C2041 C2037 1.495 . S
C2041 H2047 0.959 . S
C2041 H2048 0.961 . S
C2041 H2049 0.960 . S
C2042 C2040 1.381 . S
C2042 C2043 1.394 . S
C2042 H2050 0.930 . S
C2043 C2042 1.394 . S
C2043 C2044 1.383 . S
C2043 H2051 0.929 . S
C2044 C2043 1.383 . S
C2044 C2045 1.377 . S
C2045 H2029 0.930 . S
C2045 C2044 1.377 . S
C2045 C2046 1.379 . S
C2046 H2030 0.931 . S
C2046 C2040 1.383 . S
C2046 C2045 1.379 . S
H2047 C2041 0.959 . S
H2048 C2041 0.961 . S
H2049 C2041 0.960 . S
H2050 C2042 0.930 . S
H2051 C2043 0.929 . S
H2052 C2060 0.929 . S
H2053 C2062 0.930 . S
H2054 C2064 0.930 . S
H2055 C2067 0.929 . S
H2056 C2070 0.930 . S
H2057 C2072 0.960 . S
H2058 C2072 0.960 . S
H2059 C2072 0.960 . S
C2060 H2052 0.929 . S
C2060 C2061 1.377 . S
C2060 C2062 1.384 . S
C2061 C2060 1.377 . S
C2061 C2067 1.390 . S
C2062 H2053 0.930 . S
C2062 C2060 1.384 . S
C2062 C2063 1.372 . S
C2063 C2062 1.372 . S
C2063 C2064 1.400 . S
C2063 C2068 1.490 1_565 S
C2064 H2054 0.930 . S
C2064 C2063 1.400 . S
C2064 C2067 1.386 . S
H2065 C2081 0.930 . S
H2066 C2082 0.931 . S
C2067 H2055 0.929 . S
C2067 C2061 1.390 . S
C2067 C2064 1.386 . S
C2068 C2063 1.490 1_545 S
C2068 C2070 1.395 . S
C2068 C2071 1.403 . S
H2069 C2075 0.930 . S
C2070 H2056 0.930 . S
C2070 C2068 1.395 . S
C2070 C2073 1.403 . S
C2071 C2068 1.403 . S
C2071 C2072 1.524 . S
C2071 C2075 1.400 . S
C2072 H2057 0.960 . S
C2072 H2058 0.960 . S
C2072 H2059 0.960 . S
C2072 C2071 1.524 . S
C2073 C2070 1.403 . S
C2073 C2074 1.392 . S
C2073 C2077 1.495 . S
C2074 C2073 1.392 . S
C2074 C2075 1.385 . S
C2074 C2076 1.478 . S
C2075 H2069 0.930 . S
C2075 C2071 1.400 . S
C2075 C2074 1.385 . S
C2076 C2074 1.478 . S
C2076 C2078 1.381 . S
C2076 C2082 1.383 . S
C2077 C2073 1.495 . S
C2077 H2083 0.959 . S
C2077 H2084 0.961 . S
C2077 H2085 0.960 . S
C2078 C2076 1.381 . S
C2078 C2079 1.394 . S
C2078 H2086 0.930 . S
C2079 C2078 1.394 . S
C2079 C2080 1.383 . S
C2079 H2087 0.929 . S
C2080 C2079 1.383 . S
C2080 C2081 1.377 . S
C2081 H2065 0.930 . S
C2081 C2080 1.377 . S
C2081 C2082 1.379 . S
C2082 H2066 0.931 . S
C2082 C2076 1.383 . S
C2082 C2081 1.379 . S
H2083 C2077 0.959 . S
H2084 C2077 0.961 . S
H2085 C2077 0.960 . S
H2086 C2078 0.930 . S
H2087 C2079 0.929 . S
H2088 C2096 0.929 . S
H2089 C2098 0.930 . S
H2090 C2100 0.930 . S
H2091 C2103 0.929 . S
H2092 C2106 0.930 . S
H2093 C2108 0.960 . S
H2094 C2108 0.960 . S
H2095 C2108 0.960 . S
C2096 H2088 0.929 . S
C2096 C2097 1.377 . S
C2096 C2098 1.384 1_455 S
C2097 C2096 1.377 . S
C2097 C2103 1.390 . S
C2098 H2089 0.930 . S
C2098 C2096 1.384 1_655 S
C2098 C2099 1.372 . S
C2099 C2098 1.372 . S
C2099 C2100 1.400 . S
C2099 C2104 1.490 . S
C2100 H2090 0.930 . S
C2100 C2099 1.400 . S
C2100 C2103 1.386 1_655 S
H2101 C2117 0.930 . S
H2102 C2118 0.931 . S
C2103 H2091 0.929 . S
C2103 C2097 1.390 . S
C2103 C2100 1.386 1_455 S
C2104 C2099 1.490 . S
C2104 C2106 1.395 . S
C2104 C2107 1.403 . S
H2105 C2111 0.930 . S
C2106 H2092 0.930 . S
C2106 C2104 1.395 . S
C2106 C2109 1.403 . S
C2107 C2104 1.403 . S
C2107 C2108 1.524 . S
C2107 C2111 1.400 . S
C2108 H2093 0.960 . S
C2108 H2094 0.960 . S
C2108 H2095 0.960 . S
C2108 C2107 1.524 . S
C2109 C2106 1.403 . S
C2109 C2110 1.392 . S
C2109 C2113 1.495 . S
C2110 C2109 1.392 . S
C2110 C2111 1.385 . S
C2110 C2112 1.478 . S
C2111 H2105 0.930 . S
C2111 C2107 1.400 . S
C2111 C2110 1.385 . S
C2112 C2110 1.478 . S
C2112 C2114 1.381 . S
C2112 C2118 1.383 . S
C2113 C2109 1.495 . S
C2113 H2119 0.959 . S
C2113 H2120 0.961 . S
C2113 H2121 0.960 . S
C2114 C2112 1.381 . S
C2114 C2115 1.394 . S
C2114 H2122 0.930 . S
C2115 C2114 1.394 . S
C2115 C2116 1.383 . S
C2115 H2123 0.929 . S
C2116 C2115 1.383 . S
C2116 C2117 1.377 . S
C2117 H2101 0.930 . S
C2117 C2116 1.377 . S
C2117 C2118 1.379 . S
C2118 H2102 0.931 . S
C2118 C2112 1.383 . S
C2118 C2117 1.379 . S
H2119 C2113 0.959 . S
H2120 C2113 0.961 . S
H2121 C2113 0.960 . S
H2122 C2114 0.930 . S
H2123 C2115 0.929 . S
H2124 C2132 0.929 . S
H2125 C2134 0.930 . S
H2126 C2136 0.930 . S
H2127 C2139 0.929 . S
H2128 C2142 0.930 . S
H2129 C2144 0.960 . S
H2130 C2144 0.960 . S
H2131 C2144 0.960 . S
C2132 H2124 0.929 . S
C2132 C2133 1.377 . S
C2132 C2134 1.384 . S
C2133 C2132 1.377 . S
C2133 C2139 1.390 . S
C2134 H2125 0.930 . S
C2134 C2132 1.384 . S
C2134 C2135 1.372 . S
C2135 C2134 1.372 . S
C2135 C2136 1.400 . S
C2135 C2140 1.490 . S
C2136 H2126 0.930 . S
C2136 C2135 1.400 . S
C2136 C2139 1.386 . S
H2137 C2153 0.930 . S
H2138 C2154 0.931 . S
C2139 H2127 0.929 . S
C2139 C2133 1.390 . S
C2139 C2136 1.386 . S
C2140 C2135 1.490 . S
C2140 C2142 1.395 . S
C2140 C2143 1.403 . S
H2141 C2147 0.930 . S
C2142 H2128 0.930 . S
C2142 C2140 1.395 . S
C2142 C2145 1.403 . S
C2143 C2140 1.403 . S
C2143 C2144 1.524 . S
C2143 C2147 1.400 . S
C2144 H2129 0.960 . S
C2144 H2130 0.960 . S
C2144 H2131 0.960 . S
C2144 C2143 1.524 . S
C2145 C2142 1.403 . S
C2145 C2146 1.392 . S
C2145 C2149 1.495 . S
C2146 C2145 1.392 . S
C2146 C2147 1.385 . S
C2146 C2148 1.478 . S
C2147 H2141 0.930 . S
C2147 C2143 1.400 . S
C2147 C2146 1.385 . S
C2148 C2146 1.478 . S
C2148 C2150 1.381 . S
C2148 C2154 1.383 . S
C2149 C2145 1.495 . S
C2149 H2155 0.959 . S
C2149 H2156 0.961 . S
C2149 H2157 0.960 . S
C2150 C2148 1.381 . S
C2150 C2151 1.394 . S
C2150 H2158 0.930 . S
C2151 C2150 1.394 . S
C2151 C2152 1.383 . S
C2151 H2159 0.929 . S
C2152 C2151 1.383 . S
C2152 C2153 1.377 . S
C2153 H2137 0.930 . S
C2153 C2152 1.377 . S
C2153 C2154 1.379 . S
C2154 H2138 0.931 . S
C2154 C2148 1.383 . S
C2154 C2153 1.379 . S
H2155 C2149 0.959 . S
H2156 C2149 0.961 . S
H2157 C2149 0.960 . S
H2158 C2150 0.930 . S
H2159 C2151 0.929 . S
H2160 C2168 0.929 . S
H2161 C2170 0.930 1_655 S
H2162 C2172 0.930 . S
H2163 C2175 0.929 . S
H2164 C2178 0.930 . S
H2165 C2180 0.960 . S
H2166 C2180 0.960 . S
H2167 C2180 0.960 . S
C2168 H2160 0.929 . S
C2168 C2169 1.377 . S
C2168 C2170 1.384 . S
C2169 C2168 1.377 . S
C2169 C2175 1.390 . S
C2170 H2161 0.930 1_455 S
C2170 C2168 1.384 . S
C2170 C2171 1.372 1_455 S
C2171 C2170 1.372 1_655 S
C2171 C2172 1.400 1_655 S
C2171 C2176 1.490 . S
C2172 H2162 0.930 . S
C2172 C2171 1.400 1_455 S
C2172 C2175 1.386 . S
H2173 C2189 0.930 . S
H2174 C2190 0.931 . S
C2175 H2163 0.929 . S
C2175 C2169 1.390 . S
C2175 C2172 1.386 . S
C2176 C2171 1.490 . S
C2176 C2178 1.395 . S
C2176 C2179 1.403 . S
H2177 C2183 0.930 . S
C2178 H2164 0.930 . S
C2178 C2176 1.395 . S
C2178 C2181 1.403 . S
C2179 C2176 1.403 . S
C2179 C2180 1.524 . S
C2179 C2183 1.400 . S
C2180 H2165 0.960 . S
C2180 H2166 0.960 . S
C2180 H2167 0.960 . S
C2180 C2179 1.524 . S
C2181 C2178 1.403 . S
C2181 C2182 1.392 . S
C2181 C2185 1.495 . S
C2182 C2181 1.392 . S
C2182 C2183 1.385 . S
C2182 C2184 1.478 . S
C2183 H2177 0.930 . S
C2183 C2179 1.400 . S
C2183 C2182 1.385 . S
C2184 C2182 1.478 . S
C2184 C2186 1.381 . S
C2184 C2190 1.383 . S
C2185 C2181 1.495 . S
C2185 H2191 0.959 . S
C2185 H2192 0.961 . S
C2185 H2193 0.960 . S
C2186 C2184 1.381 . S
C2186 C2187 1.394 . S
C2186 H2194 0.930 . S
C2187 C2186 1.394 . S
C2187 C2188 1.383 . S
C2187 H2195 0.929 . S
C2188 C2187 1.383 . S
C2188 C2189 1.377 . S
C2189 H2173 0.930 . S
C2189 C2188 1.377 . S
C2189 C2190 1.379 . S
C2190 H2174 0.931 . S
C2190 C2184 1.383 . S
C2190 C2189 1.379 . S
H2191 C2185 0.959 . S
H2192 C2185 0.961 . S
H2193 C2185 0.960 . S
H2194 C2186 0.930 . S
H2195 C2187 0.929 . S
H2196 C2204 0.929 . S
H2197 C2206 0.930 . S
H2198 C2208 0.930 . S
H2199 C2211 0.929 . S
H2200 C2214 0.930 . S
H2201 C2216 0.960 . S
H2202 C2216 0.960 . S
H2203 C2216 0.960 . S
C2204 H2196 0.929 . S
C2204 C2205 1.377 . S
C2204 C2206 1.384 . S
C2205 C2204 1.377 . S
C2205 C2211 1.390 . S
C2206 H2197 0.930 . S
C2206 C2204 1.384 . S
C2206 C2207 1.372 . S
C2207 C2206 1.372 . S
C2207 C2208 1.400 . S
C2207 C2212 1.490 . S
C2208 H2198 0.930 . S
C2208 C2207 1.400 . S
C2208 C2211 1.386 . S
H2209 C2225 0.930 . S
H2210 C2226 0.931 . S
C2211 H2199 0.929 . S
C2211 C2205 1.390 . S
C2211 C2208 1.386 . S
C2212 C2207 1.490 . S
C2212 C2214 1.395 . S
C2212 C2215 1.403 . S
H2213 C2219 0.930 . S
C2214 H2200 0.930 . S
C2214 C2212 1.395 . S
C2214 C2217 1.403 . S
C2215 C2212 1.403 . S
C2215 C2216 1.524 . S
C2215 C2219 1.400 . S
C2216 H2201 0.960 . S
C2216 H2202 0.960 . S
C2216 H2203 0.960 . S
C2216 C2215 1.524 . S
C2217 C2214 1.403 . S
C2217 C2218 1.392 . S
C2217 C2221 1.495 . S
C2218 C2217 1.392 . S
C2218 C2219 1.385 . S
C2218 C2220 1.478 . S
C2219 H2213 0.930 . S
C2219 C2215 1.400 . S
C2219 C2218 1.385 . S
C2220 C2218 1.478 . S
C2220 C2222 1.381 . S
C2220 C2226 1.383 . S
C2221 C2217 1.495 . S
C2221 H2227 0.959 . S
C2221 H2228 0.961 . S
C2221 H2229 0.960 . S
C2222 C2220 1.381 . S
C2222 C2223 1.394 . S
C2222 H2230 0.930 . S
C2223 C2222 1.394 . S
C2223 C2224 1.383 . S
C2223 H2231 0.929 . S
C2224 C2223 1.383 . S
C2224 C2225 1.377 . S
C2225 H2209 0.930 . S
C2225 C2224 1.377 . S
C2225 C2226 1.379 . S
C2226 H2210 0.931 . S
C2226 C2220 1.383 . S
C2226 C2225 1.379 . S
H2227 C2221 0.959 . S
H2228 C2221 0.961 . S
H2229 C2221 0.960 . S
H2230 C2222 0.930 . S
H2231 C2223 0.929 . S
H2232 C2240 0.929 . S
H2233 C2242 0.930 . S
H2234 C2244 0.930 . S
H2235 C2247 0.929 . S
H2236 C2250 0.930 . S
H2237 C2252 0.960 . S
H2238 C2252 0.960 . S
H2239 C2252 0.960 . S
C2240 H2232 0.929 . S
C2240 C2241 1.377 . S
C2240 C2242 1.384 . S
C2241 C2240 1.377 . S
C2241 C2247 1.390 . S
C2242 H2233 0.930 . S
C2242 C2240 1.384 . S
C2242 C2243 1.372 . S
C2243 C2242 1.372 . S
C2243 C2244 1.400 . S
C2243 C2248 1.490 1_565 S
C2244 H2234 0.930 . S
C2244 C2243 1.400 . S
C2244 C2247 1.386 . S
H2245 C2261 0.930 . S
H2246 C2262 0.931 . S
C2247 H2235 0.929 . S
C2247 C2241 1.390 . S
C2247 C2244 1.386 . S
C2248 C2243 1.490 1_545 S
C2248 C2250 1.395 . S
C2248 C2251 1.403 . S
H2249 C2255 0.930 . S
C2250 H2236 0.930 . S
C2250 C2248 1.395 . S
C2250 C2253 1.403 . S
C2251 C2248 1.403 . S
C2251 C2252 1.524 . S
C2251 C2255 1.400 . S
C2252 H2237 0.960 . S
C2252 H2238 0.960 . S
C2252 H2239 0.960 . S
C2252 C2251 1.524 . S
C2253 C2250 1.403 . S
C2253 C2254 1.392 . S
C2253 C2257 1.495 . S
C2254 C2253 1.392 . S
C2254 C2255 1.385 . S
C2254 C2256 1.478 . S
C2255 H2249 0.930 . S
C2255 C2251 1.400 . S
C2255 C2254 1.385 . S
C2256 C2254 1.478 . S
C2256 C2258 1.381 . S
C2256 C2262 1.383 . S
C2257 C2253 1.495 . S
C2257 H2263 0.959 . S
C2257 H2264 0.961 . S
C2257 H2265 0.960 . S
C2258 C2256 1.381 . S
C2258 C2259 1.394 . S
C2258 H2266 0.930 . S
C2259 C2258 1.394 . S
C2259 C2260 1.383 . S
C2259 H2267 0.929 . S
C2260 C2259 1.383 . S
C2260 C2261 1.377 . S
C2261 H2245 0.930 . S
C2261 C2260 1.377 . S
C2261 C2262 1.379 . S
C2262 H2246 0.931 . S
C2262 C2256 1.383 . S
C2262 C2261 1.379 . S
H2263 C2257 0.959 . S
H2264 C2257 0.961 . S
H2265 C2257 0.960 . S
H2266 C2258 0.930 . S
H2267 C2259 0.929 . S
H2268 C2276 0.929 . S
H2269 C2278 0.930 . S
H2270 C2280 0.930 . S
H2271 C2283 0.929 . S
H2272 C2286 0.930 . S
H2273 C2288 0.960 . S
H2274 C2288 0.960 . S
H2275 C2288 0.960 . S
C2276 H2268 0.929 . S
C2276 C2277 1.377 . S
C2276 C2278 1.384 . S
C2277 C2276 1.377 . S
C2277 C2283 1.390 . S
C2278 H2269 0.930 . S
C2278 C2276 1.384 . S
C2278 C2279 1.372 . S
C2279 C2278 1.372 . S
C2279 C2280 1.400 . S
C2279 C2284 1.490 . S
C2280 H2270 0.930 . S
C2280 C2279 1.400 . S
C2280 C2283 1.386 . S
H2281 C2297 0.930 . S
H2282 C2298 0.931 . S
C2283 H2271 0.929 . S
C2283 C2277 1.390 . S
C2283 C2280 1.386 . S
C2284 C2279 1.490 . S
C2284 C2286 1.395 . S
C2284 C2287 1.403 . S
H2285 C2291 0.930 . S
C2286 H2272 0.930 . S
C2286 C2284 1.395 . S
C2286 C2289 1.403 . S
C2287 C2284 1.403 . S
C2287 C2288 1.524 . S
C2287 C2291 1.400 . S
C2288 H2273 0.960 . S
C2288 H2274 0.960 . S
C2288 H2275 0.960 . S
C2288 C2287 1.524 . S
C2289 C2286 1.403 . S
C2289 C2290 1.392 . S
C2289 C2293 1.495 . S
C2290 C2289 1.392 . S
C2290 C2291 1.385 . S
C2290 C2292 1.478 . S
C2291 H2285 0.930 . S
C2291 C2287 1.400 . S
C2291 C2290 1.385 . S
C2292 C2290 1.478 . S
C2292 C2294 1.381 . S
C2292 C2298 1.383 . S
C2293 C2289 1.495 . S
C2293 H2299 0.959 . S
C2293 H2300 0.961 . S
C2293 H2301 0.960 . S
C2294 C2292 1.381 . S
C2294 C2295 1.394 . S
C2294 H2302 0.930 . S
C2295 C2294 1.394 . S
C2295 C2296 1.383 . S
C2295 H2303 0.929 . S
C2296 C2295 1.383 . S
C2296 C2297 1.377 . S
C2297 H2281 0.930 . S
C2297 C2296 1.377 . S
C2297 C2298 1.379 . S
C2298 H2282 0.931 . S
C2298 C2292 1.383 . S
C2298 C2297 1.379 . S
H2299 C2293 0.959 . S
H2300 C2293 0.961 . S
H2301 C2293 0.960 . S
H2302 C2294 0.930 . S
H2303 C2295 0.929 . S
H2304 C2312 0.929 . S
H2305 C2314 0.930 . S
H2306 C2316 0.930 . S
H2307 C2319 0.929 . S
H2308 C2322 0.930 . S
H2309 C2324 0.960 . S
H2310 C2324 0.960 . S
H2311 C2324 0.960 . S
C2312 H2304 0.929 . S
C2312 C2313 1.377 . S
C2312 C2314 1.384 . S
C2313 C2312 1.377 . S
C2313 C2319 1.390 . S
C2314 H2305 0.930 . S
C2314 C2312 1.384 . S
C2314 C2315 1.372 . S
C2315 C2314 1.372 . S
C2315 C2316 1.400 . S
C2315 C2320 1.490 . S
C2316 H2306 0.930 . S
C2316 C2315 1.400 . S
C2316 C2319 1.386 . S
H2317 C2333 0.930 . S
H2318 C2334 0.931 . S
C2319 H2307 0.929 . S
C2319 C2313 1.390 . S
C2319 C2316 1.386 . S
C2320 C2315 1.490 . S
C2320 C2322 1.395 . S
C2320 C2323 1.403 . S
H2321 C2327 0.930 . S
C2322 H2308 0.930 . S
C2322 C2320 1.395 . S
C2322 C2325 1.403 . S
C2323 C2320 1.403 . S
C2323 C2324 1.524 . S
C2323 C2327 1.400 . S
C2324 H2309 0.960 . S
C2324 H2310 0.960 . S
C2324 H2311 0.960 . S
C2324 C2323 1.524 . S
C2325 C2322 1.403 . S
C2325 C2326 1.392 . S
C2325 C2329 1.495 . S
C2326 C2325 1.392 . S
C2326 C2327 1.385 . S
C2326 C2328 1.478 . S
C2327 H2321 0.930 . S
C2327 C2323 1.400 . S
C2327 C2326 1.385 . S
C2328 C2326 1.478 . S
C2328 C2330 1.381 . S
C2328 C2334 1.383 . S
C2329 C2325 1.495 . S
C2329 H2335 0.959 . S
C2329 H2336 0.961 . S
C2329 H2337 0.960 . S
C2330 C2328 1.381 . S
C2330 C2331 1.394 . S
C2330 H2338 0.930 . S
C2331 C2330 1.394 . S
C2331 C2332 1.383 . S
C2331 H2339 0.929 . S
C2332 C2331 1.383 . S
C2332 C2333 1.377 . S
C2333 H2317 0.930 . S
C2333 C2332 1.377 . S
C2333 C2334 1.379 . S
C2334 H2318 0.931 . S
C2334 C2328 1.383 . S
C2334 C2333 1.379 . S
H2335 C2329 0.959 . S
H2336 C2329 0.961 . S
H2337 C2329 0.960 . S
H2338 C2330 0.930 . S
H2339 C2331 0.929 . S
H2340 C2348 0.929 . S
H2341 C2350 0.930 . S
H2342 C2352 0.930 . S
H2343 C2355 0.929 . S
H2344 C2358 0.930 . S
H2345 C2360 0.960 . S
H2346 C2360 0.960 . S
H2347 C2360 0.960 . S
C2348 H2340 0.929 . S
C2348 C2349 1.377 . S
C2348 C2350 1.384 . S
C2349 C2348 1.377 . S
C2349 C2355 1.390 . S
C2350 H2341 0.930 . S
C2350 C2348 1.384 . S
C2350 C2351 1.372 . S
C2351 C2350 1.372 . S
C2351 C2352 1.400 . S
C2351 C2356 1.490 . S
C2352 H2342 0.930 . S
C2352 C2351 1.400 . S
C2352 C2355 1.386 . S
H2353 C2369 0.930 . S
H2354 C2370 0.931 . S
C2355 H2343 0.929 . S
C2355 C2349 1.390 . S
C2355 C2352 1.386 . S
C2356 C2351 1.490 . S
C2356 C2358 1.395 . S
C2356 C2359 1.403 . S
H2357 C2363 0.930 . S
C2358 H2344 0.930 . S
C2358 C2356 1.395 . S
C2358 C2361 1.403 . S
C2359 C2356 1.403 . S
C2359 C2360 1.524 . S
C2359 C2363 1.400 . S
C2360 H2345 0.960 . S
C2360 H2346 0.960 . S
C2360 H2347 0.960 . S
C2360 C2359 1.524 . S
C2361 C2358 1.403 . S
C2361 C2362 1.392 . S
C2361 C2365 1.495 . S
C2362 C2361 1.392 . S
C2362 C2363 1.385 . S
C2362 C2364 1.478 . S
C2363 H2357 0.930 . S
C2363 C2359 1.400 . S
C2363 C2362 1.385 . S
C2364 C2362 1.478 . S
C2364 C2366 1.381 . S
C2364 C2370 1.383 . S
C2365 C2361 1.495 . S
C2365 H2371 0.959 . S
C2365 H2372 0.961 . S
C2365 H2373 0.960 . S
C2366 C2364 1.381 . S
C2366 C2367 1.394 . S
C2366 H2374 0.930 . S
C2367 C2366 1.394 . S
C2367 C2368 1.383 . S
C2367 H2375 0.929 . S
C2368 C2367 1.383 . S
C2368 C2369 1.377 . S
C2369 H2353 0.930 . S
C2369 C2368 1.377 . S
C2369 C2370 1.379 . S
C2370 H2354 0.931 . S
C2370 C2364 1.383 . S
C2370 C2369 1.379 . S
H2371 C2365 0.959 . S
H2372 C2365 0.961 . S
H2373 C2365 0.960 . S
H2374 C2366 0.930 . S
H2375 C2367 0.929 . S
H2376 C2384 0.929 . S
H2377 C2386 0.930 . S
H2378 C2388 0.930 . S
H2379 C2391 0.929 . S
H2380 C2394 0.930 . S
H2381 C2396 0.960 . S
H2382 C2396 0.960 . S
H2383 C2396 0.960 . S
C2384 H2376 0.929 . S
C2384 C2385 1.377 . S
C2384 C2386 1.384 . S
C2385 C2384 1.377 . S
C2385 C2391 1.390 . S
C2386 H2377 0.930 . S
C2386 C2384 1.384 . S
C2386 C2387 1.372 . S
C2387 C2386 1.372 . S
C2387 C2388 1.400 . S
C2387 C2392 1.490 . S
C2388 H2378 0.930 . S
C2388 C2387 1.400 . S
C2388 C2391 1.386 . S
H2389 C2405 0.930 . S
H2390 C2406 0.931 . S
C2391 H2379 0.929 . S
C2391 C2385 1.390 . S
C2391 C2388 1.386 . S
C2392 C2387 1.490 . S
C2392 C2394 1.395 . S
C2392 C2395 1.403 . S
H2393 C2399 0.930 . S
C2394 H2380 0.930 . S
C2394 C2392 1.395 . S
C2394 C2397 1.403 . S
C2395 C2392 1.403 . S
C2395 C2396 1.524 . S
C2395 C2399 1.400 . S
C2396 H2381 0.960 . S
C2396 H2382 0.960 . S
C2396 H2383 0.960 . S
C2396 C2395 1.524 . S
C2397 C2394 1.403 . S
C2397 C2398 1.392 . S
C2397 C2401 1.495 1_565 S
C2398 C2397 1.392 . S
C2398 C2399 1.385 . S
C2398 C2400 1.478 . S
C2399 H2393 0.930 . S
C2399 C2395 1.400 . S
C2399 C2398 1.385 . S
C2400 C2398 1.478 . S
C2400 C2402 1.381 . S
C2400 C2406 1.383 . S
C2401 C2397 1.495 1_545 S
C2401 H2407 0.959 . S
C2401 H2408 0.961 . S
C2401 H2409 0.960 . S
C2402 C2400 1.381 . S
C2402 C2403 1.394 . S
C2402 H2410 0.930 . S
C2403 C2402 1.394 . S
C2403 C2404 1.383 . S
C2403 H2411 0.926 1_565 S
C2404 C2403 1.383 . S
C2404 C2405 1.377 . S
C2405 H2389 0.930 . S
C2405 C2404 1.377 . S
C2405 C2406 1.379 . S
C2406 H2390 0.931 . S
C2406 C2400 1.383 . S
C2406 C2405 1.379 . S
H2407 C2401 0.959 . S
H2408 C2401 0.961 . S
H2409 C2401 0.960 . S
H2410 C2402 0.930 . S
H2411 C2403 0.926 1_545 S
H2412 C2420 0.929 . S
H2413 C2422 0.930 . S
H2414 C2424 0.930 . S
H2415 C2427 0.929 . S
H2416 C2430 0.930 . S
H2417 C2432 0.960 . S
H2418 C2432 0.960 . S
H2419 C2432 0.960 . S
C2420 H2412 0.929 . S
C2420 C2421 1.377 . S
C2420 C2422 1.384 . S
C2421 C2420 1.377 . S
C2421 C2427 1.390 1_455 S
C2422 H2413 0.930 . S
C2422 C2420 1.384 . S
C2422 C2423 1.372 . S
C2423 C2422 1.372 . S
C2423 C2424 1.400 1_455 S
C2423 C2428 1.490 . S
C2424 H2414 0.930 . S
C2424 C2423 1.400 1_655 S
C2424 C2427 1.386 . S
H2425 C2441 0.930 . S
H2426 C2442 0.931 . S
C2427 H2415 0.929 . S
C2427 C2421 1.390 1_655 S
C2427 C2424 1.386 . S
C2428 C2423 1.490 . S
C2428 C2430 1.395 . S
C2428 C2431 1.403 . S
H2429 C2435 0.930 . S
C2430 H2416 0.930 . S
C2430 C2428 1.395 . S
C2430 C2433 1.403 . S
C2431 C2428 1.403 . S
C2431 C2432 1.524 . S
C2431 C2435 1.400 . S
C2432 H2417 0.960 . S
C2432 H2418 0.960 . S
C2432 H2419 0.960 . S
C2432 C2431 1.524 . S
C2433 C2430 1.403 . S
C2433 C2434 1.392 . S
C2433 C2437 1.495 . S
C2434 C2433 1.392 . S
C2434 C2435 1.385 . S
C2434 C2436 1.478 . S
C2435 H2429 0.930 . S
C2435 C2431 1.400 . S
C2435 C2434 1.385 . S
C2436 C2434 1.478 . S
C2436 C2438 1.381 . S
C2436 C2442 1.383 1_455 S
C2437 C2433 1.495 . S
C2437 H2443 0.950 . S
C2437 H2444 0.961 1_455 S
C2437 H2445 0.960 . S
C2438 C2436 1.381 . S
C2438 C2439 1.394 . S
C2438 H2446 0.930 . S
C2439 C2438 1.394 . S
C2439 C2440 1.383 . S
C2439 H2447 0.929 . S
C2440 C2439 1.383 . S
C2440 C2441 1.377 1_455 S
C2441 H2425 0.930 . S
C2441 C2440 1.377 1_655 S
C2441 C2442 1.379 . S
C2442 H2426 0.931 . S
C2442 C2436 1.383 1_655 S
C2442 C2441 1.379 . S
H2443 C2437 0.950 . S
H2444 C2437 0.961 1_655 S
H2445 C2437 0.960 . S
H2446 C2438 0.930 . S
H2447 C2439 0.929 . S
H2448 C2456 0.929 . S
H2449 C2458 0.930 . S
H2450 C2460 0.930 . S
H2451 C2463 0.929 . S
H2452 C2466 0.930 . S
H2453 C2468 0.960 . S
H2454 C2468 0.960 . S
H2455 C2468 0.960 . S
C2456 H2448 0.929 . S
C2456 C2457 1.377 . S
C2456 C2458 1.384 . S
C2457 C2456 1.377 . S
C2457 C2463 1.390 . S
C2458 H2449 0.930 . S
C2458 C2456 1.384 . S
C2458 C2459 1.372 . S
C2459 C2458 1.372 . S
C2459 C2460 1.400 . S
C2459 C2464 1.490 . S
C2460 H2450 0.930 . S
C2460 C2459 1.400 . S
C2460 C2463 1.386 . S
H2461 C2477 0.930 . S
H2462 C2478 0.931 . S
C2463 H2451 0.929 . S
C2463 C2457 1.390 . S
C2463 C2460 1.386 . S
C2464 C2459 1.490 . S
C2464 C2466 1.395 . S
C2464 C2467 1.403 . S
H2465 C2471 0.930 . S
C2466 H2452 0.930 . S
C2466 C2464 1.395 . S
C2466 C2469 1.403 . S
C2467 C2464 1.403 . S
C2467 C2468 1.524 . S
C2467 C2471 1.400 . S
C2468 H2453 0.960 . S
C2468 H2454 0.960 . S
C2468 H2455 0.960 . S
C2468 C2467 1.524 . S
C2469 C2466 1.403 . S
C2469 C2470 1.392 . S
C2469 C2473 1.495 . S
C2470 C2469 1.392 . S
C2470 C2471 1.385 . S
C2470 C2472 1.478 . S
C2471 H2465 0.930 . S
C2471 C2467 1.400 . S
C2471 C2470 1.385 . S
C2472 C2470 1.478 . S
C2472 C2474 1.381 . S
C2472 C2478 1.383 . S
C2473 C2469 1.495 . S
C2473 H2479 0.959 . S
C2473 H2480 0.961 . S
C2473 H2481 0.960 . S
C2474 C2472 1.381 . S
C2474 C2475 1.394 . S
C2474 H2482 0.930 . S
C2475 C2474 1.394 . S
C2475 C2476 1.383 . S
C2475 H2483 0.929 . S
C2476 C2475 1.383 . S
C2476 C2477 1.377 . S
C2477 H2461 0.930 . S
C2477 C2476 1.377 . S
C2477 C2478 1.379 . S
C2478 H2462 0.931 . S
C2478 C2472 1.383 . S
C2478 C2477 1.379 . S
H2479 C2473 0.959 . S
H2480 C2473 0.961 . S
H2481 C2473 0.960 . S
H2482 C2474 0.930 . S
H2483 C2475 0.929 . S
H2484 C2492 0.929 . S
H2485 C2494 0.930 . S
H2486 C2496 0.930 . S
H2487 C2499 0.929 . S
H2488 C2502 0.930 . S
H2489 C2504 0.960 . S
H2490 C2504 0.960 . S
H2491 C2504 0.960 1_655 S
C2492 H2484 0.929 . S
C2492 C2493 1.377 1_455 S
C2492 C2494 1.384 . S
C2493 C2492 1.377 1_655 S
C2493 C2499 1.390 . S
C2494 H2485 0.930 . S
C2494 C2492 1.384 . S
C2494 C2495 1.372 1_455 S
C2495 C2494 1.372 1_655 S
C2495 C2496 1.400 . S
C2495 C2500 1.490 . S
C2496 H2486 0.930 . S
C2496 C2495 1.400 . S
C2496 C2499 1.386 . S
H2497 C2513 0.930 . S
H2498 C2514 0.931 . S
C2499 H2487 0.929 . S
C2499 C2493 1.390 . S
C2499 C2496 1.386 . S
C2500 C2495 1.490 . S
C2500 C2502 1.395 . S
C2500 C2503 1.403 . S
H2501 C2507 0.930 . S
C2502 H2488 0.930 . S
C2502 C2500 1.395 . S
C2502 C2505 1.403 . S
C2503 C2500 1.403 . S
C2503 C2504 1.524 1_655 S
C2503 C2507 1.400 . S
C2504 H2489 0.960 . S
C2504 H2490 0.960 . S
C2504 H2491 0.960 1_455 S
C2504 C2503 1.524 1_455 S
C2505 C2502 1.403 . S
C2505 C2506 1.392 . S
C2505 C2509 1.495 . S
C2506 C2505 1.392 . S
C2506 C2507 1.385 . S
C2506 C2508 1.478 . S
C2507 H2501 0.930 . S
C2507 C2503 1.400 . S
C2507 C2506 1.385 . S
C2508 C2506 1.478 . S
C2508 C2510 1.380 . S
C2508 C2514 1.383 . S
C2509 C2505 1.495 . S
C2509 H2515 0.959 . S
C2509 H2516 0.961 . S
C2509 H2517 0.960 . S
C2510 C2508 1.380 . S
C2510 C2511 1.394 1_655 S
C2510 H2518 0.931 1_655 S
C2511 C2510 1.394 1_455 S
C2511 C2512 1.384 1_455 S
C2511 H2519 0.928 . S
C2512 C2511 1.384 1_655 S
C2512 C2513 1.377 . S
C2513 H2497 0.930 . S
C2513 C2512 1.377 . S
C2513 C2514 1.379 . S
C2514 H2498 0.931 . S
C2514 C2508 1.383 . S
C2514 C2513 1.379 . S
H2515 C2509 0.959 . S
H2516 C2509 0.961 . S
H2517 C2509 0.960 . S
H2518 C2510 0.931 1_455 S
H2519 C2511 0.928 . S
H2520 C2528 0.929 . S
H2521 C2530 0.930 . S
H2522 C2532 0.930 . S
H2523 C2535 0.929 . S
H2524 C2538 0.930 . S
H2525 C2540 0.960 . S
H2526 C2540 0.960 . S
H2527 C2540 0.960 . S
C2528 H2520 0.929 . S
C2528 C2529 1.377 . S
C2528 C2530 1.384 . S
C2529 C2528 1.377 . S
C2529 C2535 1.390 . S
C2530 H2521 0.930 . S
C2530 C2528 1.384 . S
C2530 C2531 1.372 . S
C2531 C2530 1.372 . S
C2531 C2532 1.400 . S
C2531 C2536 1.490 . S
C2532 H2522 0.930 . S
C2532 C2531 1.400 . S
C2532 C2535 1.386 . S
H2533 C2549 0.930 . S
H2534 C2550 0.931 . S
C2535 H2523 0.929 . S
C2535 C2529 1.390 . S
C2535 C2532 1.386 . S
C2536 C2531 1.490 . S
C2536 C2538 1.395 . S
C2536 C2539 1.403 . S
H2537 C2543 0.930 . S
C2538 H2524 0.930 . S
C2538 C2536 1.395 . S
C2538 C2541 1.403 . S
C2539 C2536 1.403 . S
C2539 C2540 1.524 . S
C2539 C2543 1.400 . S
C2540 H2525 0.960 . S
C2540 H2526 0.960 . S
C2540 H2527 0.960 . S
C2540 C2539 1.524 . S
C2541 C2538 1.403 . S
C2541 C2542 1.392 . S
C2541 C2545 1.495 . S
C2542 C2541 1.392 . S
C2542 C2543 1.385 . S
C2542 C2544 1.478 . S
C2543 H2537 0.930 . S
C2543 C2539 1.400 . S
C2543 C2542 1.385 . S
C2544 C2542 1.478 . S
C2544 C2546 1.381 . S
C2544 C2550 1.383 . S
C2545 C2541 1.495 . S
C2545 H2551 0.959 . S
C2545 H2552 0.961 . S
C2545 H2553 0.960 . S
C2546 C2544 1.381 . S
C2546 C2547 1.394 . S
C2546 H2554 0.930 . S
C2547 C2546 1.394 . S
C2547 C2548 1.383 . S
C2547 H2555 0.929 . S
C2548 C2547 1.383 . S
C2548 C2549 1.377 . S
C2549 H2533 0.930 . S
C2549 C2548 1.377 . S
C2549 C2550 1.379 . S
C2550 H2534 0.931 . S
C2550 C2544 1.383 . S
C2550 C2549 1.379 . S
H2551 C2545 0.959 . S
H2552 C2545 0.961 . S
H2553 C2545 0.960 . S
H2554 C2546 0.930 . S
H2555 C2547 0.929 . S
H2556 C2564 0.929 . S
H2557 C2566 0.930 . S
H2558 C2568 0.930 . S
H2559 C2571 0.929 . S
H2560 C2574 0.930 . S
H2561 C2576 0.960 . S
H2562 C2576 0.960 . S
H2563 C2576 0.960 . S
C2564 H2556 0.929 . S
C2564 C2565 1.377 . S
C2564 C2566 1.384 . S
C2565 C2564 1.377 . S
C2565 C2571 1.390 . S
C2566 H2557 0.930 . S
C2566 C2564 1.384 . S
C2566 C2567 1.372 . S
C2567 C2566 1.372 . S
C2567 C2568 1.400 . S
C2567 C2572 1.490 . S
C2568 H2558 0.930 . S
C2568 C2567 1.400 . S
C2568 C2571 1.386 . S
H2569 C2585 0.930 . S
H2570 C2586 0.931 . S
C2571 H2559 0.929 . S
C2571 C2565 1.390 . S
C2571 C2568 1.386 . S
C2572 C2567 1.490 . S
C2572 C2574 1.395 . S
C2572 C2575 1.403 . S
H2573 C2579 0.930 . S
C2574 H2560 0.930 . S
C2574 C2572 1.395 . S
C2574 C2577 1.403 . S
C2575 C2572 1.403 . S
C2575 C2576 1.524 . S
C2575 C2579 1.400 . S
C2576 H2561 0.960 . S
C2576 H2562 0.960 . S
C2576 H2563 0.960 . S
C2576 C2575 1.524 . S
C2577 C2574 1.403 . S
C2577 C2578 1.392 . S
C2577 C2581 1.500 . S
C2578 C2577 1.392 . S
C2578 C2579 1.385 . S
C2578 C2580 1.478 . S
C2579 H2573 0.930 . S
C2579 C2575 1.400 . S
C2579 C2578 1.385 . S
C2580 C2578 1.478 . S
C2580 C2582 1.381 1_545 S
C2580 C2586 1.383 . S
C2581 C2577 1.500 . S
C2581 H2587 0.956 1_545 S
C2581 H2588 0.962 . S
C2581 H2589 0.956 1_545 S
C2582 C2580 1.381 1_565 S
C2582 C2583 1.394 . S
C2582 H2590 0.930 . S
C2583 C2582 1.394 . S
C2583 C2584 1.383 1_565 S
C2583 H2591 0.929 . S
C2584 C2583 1.383 1_545 S
C2584 C2585 1.377 . S
C2585 H2569 0.930 . S
C2585 C2584 1.377 . S
C2585 C2586 1.379 . S
C2586 H2570 0.931 . S
C2586 C2580 1.383 . S
C2586 C2585 1.379 . S
H2587 C2581 0.956 1_565 S
H2588 C2581 0.962 . S
H2589 C2581 0.956 1_565 S
H2590 C2582 0.930 . S
H2591 C2583 0.929 . S
H2592 C2600 0.929 . S
H2593 C2602 0.930 . S
H2594 C2604 0.930 . S
H2595 C2607 0.929 . S
H2596 C2610 0.930 . S
H2597 C2612 0.960 . S
H2598 C2612 0.960 . S
H2599 C2612 0.960 . S
C2600 H2592 0.929 . S
C2600 C2601 1.377 . S
C2600 C2602 1.384 . S
C2601 C2600 1.377 . S
C2601 C2607 1.390 . S
C2602 H2593 0.930 . S
C2602 C2600 1.384 . S
C2602 C2603 1.372 . S
C2603 C2602 1.372 . S
C2603 C2604 1.400 . S
C2603 C2608 1.490 . S
C2604 H2594 0.930 . S
C2604 C2603 1.400 . S
C2604 C2607 1.386 . S
H2605 C2621 0.930 . S
H2606 C2622 0.931 . S
C2607 H2595 0.929 . S
C2607 C2601 1.390 . S
C2607 C2604 1.386 . S
C2608 C2603 1.490 . S
C2608 C2610 1.395 . S
C2608 C2611 1.403 . S
H2609 C2615 0.930 . S
C2610 H2596 0.930 . S
C2610 C2608 1.395 . S
C2610 C2613 1.403 . S
C2611 C2608 1.403 . S
C2611 C2612 1.524 . S
C2611 C2615 1.400 . S
C2612 H2597 0.960 . S
C2612 H2598 0.960 . S
C2612 H2599 0.960 . S
C2612 C2611 1.524 . S
C2613 C2610 1.403 . S
C2613 C2614 1.392 . S
C2613 C2617 1.495 . S
C2614 C2613 1.392 . S
C2614 C2615 1.385 . S
C2614 C2616 1.478 . S
C2615 H2609 0.930 . S
C2615 C2611 1.400 . S
C2615 C2614 1.385 . S
C2616 C2614 1.478 . S
C2616 C2618 1.381 . S
C2616 C2622 1.383 . S
C2617 C2613 1.495 . S
C2617 H2623 0.959 . S
C2617 H2624 0.961 . S
C2617 H2625 0.960 . S
C2618 C2616 1.381 . S
C2618 C2619 1.394 . S
C2618 H2626 0.930 . S
C2619 C2618 1.394 . S
C2619 C2620 1.383 . S
C2619 H2627 0.929 . S
C2620 C2619 1.383 . S
C2620 C2621 1.377 . S
C2621 H2605 0.930 . S
C2621 C2620 1.377 . S
C2621 C2622 1.379 . S
C2622 H2606 0.931 . S
C2622 C2616 1.383 . S
C2622 C2621 1.379 . S
H2623 C2617 0.959 . S
H2624 C2617 0.961 . S
H2625 C2617 0.960 . S
H2626 C2618 0.930 . S
H2627 C2619 0.929 . S
H2628 C2636 0.929 . S
H2629 C2638 0.930 . S
H2630 C2640 0.930 . S
H2631 C2643 0.929 . S
H2632 C2646 0.930 . S
H2633 C2648 0.960 . S
H2634 C2648 0.960 . S
H2635 C2648 0.960 . S
C2636 H2628 0.929 . S
C2636 C2637 1.377 . S
C2636 C2638 1.384 . S
C2637 C2636 1.377 . S
C2637 C2643 1.390 . S
C2638 H2629 0.930 . S
C2638 C2636 1.384 . S
C2638 C2639 1.372 . S
C2639 C2638 1.372 . S
C2639 C2640 1.400 . S
C2639 C2644 1.490 . S
C2640 H2630 0.930 . S
C2640 C2639 1.400 . S
C2640 C2643 1.386 . S
H2641 C2657 0.930 . S
H2642 C2658 0.931 . S
C2643 H2631 0.929 . S
C2643 C2637 1.390 . S
C2643 C2640 1.386 . S
C2644 C2639 1.490 . S
C2644 C2646 1.395 . S
C2644 C2647 1.403 . S
H2645 C2651 0.930 . S
C2646 H2632 0.930 . S
C2646 C2644 1.395 . S
C2646 C2649 1.403 . S
C2647 C2644 1.403 . S
C2647 C2648 1.524 . S
C2647 C2651 1.400 . S
C2648 H2633 0.960 . S
C2648 H2634 0.960 . S
C2648 H2635 0.960 . S
C2648 C2647 1.524 . S
C2649 C2646 1.403 . S
C2649 C2650 1.392 . S
C2649 C2653 1.495 . S
C2650 C2649 1.392 . S
C2650 C2651 1.385 . S
C2650 C2652 1.478 . S
C2651 H2645 0.930 . S
C2651 C2647 1.400 . S
C2651 C2650 1.385 . S
C2652 C2650 1.478 . S
C2652 C2654 1.381 . S
C2652 C2658 1.383 . S
C2653 C2649 1.495 . S
C2653 H2659 0.959 . S
C2653 H2660 0.961 . S
C2653 H2661 0.960 . S
C2654 C2652 1.381 . S
C2654 C2655 1.394 . S
C2654 H2662 0.930 . S
C2655 C2654 1.394 . S
C2655 C2656 1.383 . S
C2655 H2663 0.929 . S
C2656 C2655 1.383 . S
C2656 C2657 1.377 . S
C2657 H2641 0.930 . S
C2657 C2656 1.377 . S
C2657 C2658 1.379 . S
C2658 H2642 0.931 . S
C2658 C2652 1.383 . S
C2658 C2657 1.379 . S
H2659 C2653 0.959 . S
H2660 C2653 0.961 . S
H2661 C2653 0.960 . S
H2662 C2654 0.930 . S
H2663 C2655 0.929 . S
H2664 C2672 0.929 . S
H2665 C2674 0.930 . S
H2666 C2676 0.930 . S
H2667 C2679 0.929 . S
H2668 C2682 0.930 . S
H2669 C2684 0.960 . S
H2670 C2684 0.960 . S
H2671 C2684 0.960 . S
C2672 H2664 0.929 . S
C2672 C2673 1.377 . S
C2672 C2674 1.384 . S
C2673 C2672 1.377 . S
C2673 C2679 1.390 . S
C2674 H2665 0.930 . S
C2674 C2672 1.384 . S
C2674 C2675 1.372 . S
C2675 C2674 1.372 . S
C2675 C2676 1.400 . S
C2675 C2680 1.490 . S
C2676 H2666 0.930 . S
C2676 C2675 1.400 . S
C2676 C2679 1.386 . S
H2677 C2693 0.930 . S
H2678 C2694 0.931 . S
C2679 H2667 0.929 . S
C2679 C2673 1.390 . S
C2679 C2676 1.386 . S
C2680 C2675 1.490 . S
C2680 C2682 1.395 . S
C2680 C2683 1.403 . S
H2681 C2687 0.930 . S
C2682 H2668 0.930 . S
C2682 C2680 1.395 . S
C2682 C2685 1.403 . S
C2683 C2680 1.403 . S
C2683 C2684 1.524 . S
C2683 C2687 1.400 . S
C2684 H2669 0.960 . S
C2684 H2670 0.960 . S
C2684 H2671 0.960 . S
C2684 C2683 1.524 . S
C2685 C2682 1.403 . S
C2685 C2686 1.392 . S
C2685 C2689 1.495 . S
C2686 C2685 1.392 . S
C2686 C2687 1.385 . S
C2686 C2688 1.478 . S
C2687 H2681 0.930 . S
C2687 C2683 1.400 . S
C2687 C2686 1.385 . S
C2688 C2686 1.478 . S
C2688 C2690 1.381 . S
C2688 C2694 1.383 . S
C2689 C2685 1.495 . S
C2689 H2695 0.959 . S
C2689 H2696 0.961 . S
C2689 H2697 0.960 . S
C2690 C2688 1.381 . S
C2690 C2691 1.394 . S
C2690 H2698 0.930 . S
C2691 C2690 1.394 . S
C2691 C2692 1.383 . S
C2691 H2699 0.929 . S
C2692 C2691 1.383 . S
C2692 C2693 1.377 . S
C2693 H2677 0.930 . S
C2693 C2692 1.377 . S
C2693 C2694 1.379 . S
C2694 H2678 0.931 . S
C2694 C2688 1.383 . S
C2694 C2693 1.379 . S
H2695 C2689 0.959 . S
H2696 C2689 0.961 . S
H2697 C2689 0.960 . S
H2698 C2690 0.930 . S
H2699 C2691 0.929 . S
H2700 C2708 0.929 . S
H2701 C2710 0.930 . S
H2702 C2712 0.930 . S
H2703 C2715 0.929 . S
H2704 C2718 0.930 . S
H2705 C2720 0.960 . S
H2706 C2720 0.960 . S
H2707 C2720 0.960 . S
C2708 H2700 0.929 . S
C2708 C2709 1.377 . S
C2708 C2710 1.384 . S
C2709 C2708 1.377 . S
C2709 C2715 1.390 . S
C2710 H2701 0.930 . S
C2710 C2708 1.384 . S
C2710 C2711 1.372 . S
C2711 C2710 1.372 . S
C2711 C2712 1.400 . S
C2711 C2716 1.490 . S
C2712 H2702 0.930 . S
C2712 C2711 1.400 . S
C2712 C2715 1.386 . S
H2713 C2729 0.930 . S
H2714 C2730 0.931 . S
C2715 H2703 0.929 . S
C2715 C2709 1.390 . S
C2715 C2712 1.386 . S
C2716 C2711 1.490 . S
C2716 C2718 1.395 . S
C2716 C2719 1.403 . S
H2717 C2723 0.930 . S
C2718 H2704 0.930 . S
C2718 C2716 1.395 . S
C2718 C2721 1.403 . S
C2719 C2716 1.403 . S
C2719 C2720 1.524 . S
C2719 C2723 1.400 . S
C2720 H2705 0.960 . S
C2720 H2706 0.960 . S
C2720 H2707 0.960 . S
C2720 C2719 1.524 . S
C2721 C2718 1.403 . S
C2721 C2722 1.392 . S
C2721 C2725 1.495 . S
C2722 C2721 1.392 . S
C2722 C2723 1.385 . S
C2722 C2724 1.478 . S
C2723 H2717 0.930 . S
C2723 C2719 1.400 . S
C2723 C2722 1.385 . S
C2724 C2722 1.478 . S
C2724 C2726 1.381 . S
C2724 C2730 1.383 . S
C2725 C2721 1.495 . S
C2725 H2731 0.959 . S
C2725 H2732 0.961 . S
C2725 H2733 0.960 . S
C2726 C2724 1.381 . S
C2726 C2727 1.394 . S
C2726 H2734 0.930 . S
C2727 C2726 1.394 . S
C2727 C2728 1.383 . S
C2727 H2735 0.929 . S
C2728 C2727 1.383 . S
C2728 C2729 1.377 . S
C2729 H2713 0.930 . S
C2729 C2728 1.377 . S
C2729 C2730 1.379 . S
C2730 H2714 0.931 . S
C2730 C2724 1.383 . S
C2730 C2729 1.379 . S
H2731 C2725 0.959 . S
H2732 C2725 0.961 . S
H2733 C2725 0.960 . S
H2734 C2726 0.930 . S
H2735 C2727 0.929 . S
H2736 C2744 0.929 . S
H2737 C2746 0.930 . S
H2738 C2748 0.930 . S
H2739 C2751 0.929 . S
H2740 C2754 0.930 . S
H2741 C2756 0.960 . S
H2742 C2756 0.960 . S
H2743 C2756 0.960 . S
C2744 H2736 0.929 . S
C2744 C2745 1.377 . S
C2744 C2746 1.384 . S
C2745 C2744 1.377 . S
C2745 C2751 1.390 . S
C2746 H2737 0.930 . S
C2746 C2744 1.384 . S
C2746 C2747 1.372 . S
C2747 C2746 1.372 . S
C2747 C2748 1.400 . S
C2747 C2752 1.490 . S
C2748 H2738 0.930 . S
C2748 C2747 1.400 . S
C2748 C2751 1.386 . S
H2749 C2765 0.930 . S
H2750 C2766 0.931 . S
C2751 H2739 0.929 . S
C2751 C2745 1.390 . S
C2751 C2748 1.386 . S
C2752 C2747 1.490 . S
C2752 C2754 1.395 . S
C2752 C2755 1.403 . S
H2753 C2759 0.930 . S
C2754 H2740 0.930 . S
C2754 C2752 1.395 . S
C2754 C2757 1.403 . S
C2755 C2752 1.403 . S
C2755 C2756 1.524 . S
C2755 C2759 1.400 . S
C2756 H2741 0.960 . S
C2756 H2742 0.960 . S
C2756 H2743 0.960 . S
C2756 C2755 1.524 . S
C2757 C2754 1.403 . S
C2757 C2758 1.392 . S
C2757 C2761 1.495 . S
C2758 C2757 1.392 . S
C2758 C2759 1.385 . S
C2758 C2760 1.478 . S
C2759 H2753 0.930 . S
C2759 C2755 1.400 . S
C2759 C2758 1.385 . S
C2760 C2758 1.478 . S
C2760 C2762 1.381 . S
C2760 C2766 1.383 . S
C2761 C2757 1.495 . S
C2761 H2767 0.959 . S
C2761 H2768 0.961 . S
C2761 H2769 0.960 . S
C2762 C2760 1.381 . S
C2762 C2763 1.394 . S
C2762 H2770 0.930 . S
C2763 C2762 1.394 . S
C2763 C2764 1.383 . S
C2763 H2771 0.929 . S
C2764 C2763 1.383 . S
C2764 C2765 1.377 . S
C2765 H2749 0.930 . S
C2765 C2764 1.377 . S
C2765 C2766 1.379 . S
C2766 H2750 0.931 . S
C2766 C2760 1.383 . S
C2766 C2765 1.379 . S
H2767 C2761 0.959 . S
H2768 C2761 0.961 . S
H2769 C2761 0.960 . S
H2770 C2762 0.930 . S
H2771 C2763 0.929 . S
H2772 C2780 0.929 . S
H2773 C2782 0.930 . S
H2774 C2784 0.930 . S
H2775 C2787 0.929 . S
H2776 C2790 0.930 . S
H2777 C2792 0.960 . S
H2778 C2792 0.960 . S
H2779 C2792 0.960 . S
C2780 H2772 0.929 . S
C2780 C2781 1.377 . S
C2780 C2782 1.384 . S
C2781 C2780 1.377 . S
C2781 C2787 1.390 . S
C2782 H2773 0.930 . S
C2782 C2780 1.384 . S
C2782 C2783 1.372 . S
C2783 C2782 1.372 . S
C2783 C2784 1.400 . S
C2783 C2788 1.490 . S
C2784 H2774 0.930 . S
C2784 C2783 1.400 . S
C2784 C2787 1.386 . S
H2785 C2801 0.930 . S
H2786 C2802 0.931 . S
C2787 H2775 0.929 . S
C2787 C2781 1.390 . S
C2787 C2784 1.386 . S
C2788 C2783 1.490 . S
C2788 C2790 1.395 . S
C2788 C2791 1.403 . S
H2789 C2795 0.930 . S
C2790 H2776 0.930 . S
C2790 C2788 1.395 . S
C2790 C2793 1.403 . S
C2791 C2788 1.403 . S
C2791 C2792 1.524 . S
C2791 C2795 1.400 . S
C2792 H2777 0.960 . S
C2792 H2778 0.960 . S
C2792 H2779 0.960 . S
C2792 C2791 1.524 . S
C2793 C2790 1.403 . S
C2793 C2794 1.392 . S
C2793 C2797 1.495 . S
C2794 C2793 1.392 . S
C2794 C2795 1.385 . S
C2794 C2796 1.478 . S
C2795 H2789 0.930 . S
C2795 C2791 1.400 . S
C2795 C2794 1.385 . S
C2796 C2794 1.478 . S
C2796 C2798 1.381 . S
C2796 C2802 1.383 . S
C2797 C2793 1.495 . S
C2797 H2803 0.959 . S
C2797 H2804 0.961 . S
C2797 H2805 0.960 . S
C2798 C2796 1.381 . S
C2798 C2799 1.394 . S
C2798 H2806 0.930 . S
C2799 C2798 1.394 . S
C2799 C2800 1.383 . S
C2799 H2807 0.929 . S
C2800 C2799 1.383 . S
C2800 C2801 1.377 . S
C2801 H2785 0.930 . S
C2801 C2800 1.377 . S
C2801 C2802 1.379 . S
C2802 H2786 0.931 . S
C2802 C2796 1.383 . S
C2802 C2801 1.379 . S
H2803 C2797 0.959 . S
H2804 C2797 0.961 . S
H2805 C2797 0.960 . S
H2806 C2798 0.930 . S
H2807 C2799 0.929 . S
H2808 C2816 0.929 . S
H2809 C2818 0.930 . S
H2810 C2820 0.930 . S
H2811 C2823 0.929 . S
H2812 C2826 0.930 . S
H2813 C2828 0.960 . S
H2814 C2828 0.960 . S
H2815 C2828 0.960 . S
C2816 H2808 0.929 . S
C2816 C2817 1.377 . S
C2816 C2818 1.384 . S
C2817 C2816 1.377 . S
C2817 C2823 1.390 . S
C2818 H2809 0.930 . S
C2818 C2816 1.384 . S
C2818 C2819 1.372 . S
C2819 C2818 1.372 . S
C2819 C2820 1.400 . S
C2819 C2824 1.490 . S
C2820 H2810 0.930 . S
C2820 C2819 1.400 . S
C2820 C2823 1.386 . S
H2821 C2837 0.930 . S
H2822 C2838 0.931 . S
C2823 H2811 0.929 . S
C2823 C2817 1.390 . S
C2823 C2820 1.386 . S
C2824 C2819 1.490 . S
C2824 C2826 1.395 . S
C2824 C2827 1.403 . S
H2825 C2831 0.930 . S
C2826 H2812 0.930 . S
C2826 C2824 1.395 . S
C2826 C2829 1.403 . S
C2827 C2824 1.403 . S
C2827 C2828 1.524 . S
C2827 C2831 1.400 . S
C2828 H2813 0.960 . S
C2828 H2814 0.960 . S
C2828 H2815 0.960 . S
C2828 C2827 1.524 . S
C2829 C2826 1.403 . S
C2829 C2830 1.392 . S
C2829 C2833 1.495 . S
C2830 C2829 1.392 . S
C2830 C2831 1.385 . S
C2830 C2832 1.478 . S
C2831 H2825 0.930 . S
C2831 C2827 1.400 . S
C2831 C2830 1.385 . S
C2832 C2830 1.478 . S
C2832 C2834 1.381 . S
C2832 C2838 1.383 . S
C2833 C2829 1.495 . S
C2833 H2839 0.959 . S
C2833 H2840 0.961 . S
C2833 H2841 0.960 . S
C2834 C2832 1.381 . S
C2834 C2835 1.394 . S
C2834 H2842 0.930 . S
C2835 C2834 1.394 . S
C2835 C2836 1.383 . S
C2835 H2843 0.929 . S
C2836 C2835 1.383 . S
C2836 C2837 1.377 . S
C2837 H2821 0.930 . S
C2837 C2836 1.377 . S
C2837 C2838 1.379 . S
C2838 H2822 0.931 . S
C2838 C2832 1.383 . S
C2838 C2837 1.379 . S
H2839 C2833 0.959 . S
H2840 C2833 0.961 . S
H2841 C2833 0.960 . S
H2842 C2834 0.930 . S
H2843 C2835 0.929 . S
H2844 C2852 0.929 . S
H2845 C2854 0.930 . S
H2846 C2856 0.930 . S
H2847 C2859 0.929 . S
H2848 C2862 0.930 . S
H2849 C2864 0.960 . S
H2850 C2864 0.960 . S
H2851 C2864 0.960 . S
C2852 H2844 0.929 . S
C2852 C2853 1.377 . S
C2852 C2854 1.384 . S
C2853 C2852 1.377 . S
C2853 C2859 1.390 . S
C2854 H2845 0.930 . S
C2854 C2852 1.384 . S
C2854 C2855 1.372 . S
C2855 C2854 1.372 . S
C2855 C2856 1.400 . S
C2855 C2860 1.490 . S
C2856 H2846 0.930 . S
C2856 C2855 1.400 . S
C2856 C2859 1.386 . S
H2857 C2873 0.930 . S
H2858 C2874 0.931 . S
C2859 H2847 0.929 . S
C2859 C2853 1.390 . S
C2859 C2856 1.386 . S
C2860 C2855 1.490 . S
C2860 C2862 1.395 . S
C2860 C2863 1.403 . S
H2861 C2867 0.930 . S
C2862 H2848 0.930 . S
C2862 C2860 1.395 . S
C2862 C2865 1.403 . S
C2863 C2860 1.403 . S
C2863 C2864 1.524 . S
C2863 C2867 1.400 . S
C2864 H2849 0.960 . S
C2864 H2850 0.960 . S
C2864 H2851 0.960 . S
C2864 C2863 1.524 . S
C2865 C2862 1.403 . S
C2865 C2866 1.392 . S
C2865 C2869 1.495 . S
C2866 C2865 1.392 . S
C2866 C2867 1.385 . S
C2866 C2868 1.478 . S
C2867 H2861 0.930 . S
C2867 C2863 1.400 . S
C2867 C2866 1.385 . S
C2868 C2866 1.478 . S
C2868 C2870 1.381 . S
C2868 C2874 1.383 . S
C2869 C2865 1.495 . S
C2869 H2875 0.959 . S
C2869 H2876 0.961 . S
C2869 H2877 0.960 . S
C2870 C2868 1.381 . S
C2870 C2871 1.394 . S
C2870 H2878 0.930 . S
C2871 C2870 1.394 . S
C2871 C2872 1.383 . S
C2871 H2879 0.929 . S
C2872 C2871 1.383 . S
C2872 C2873 1.377 . S
C2873 H2857 0.930 . S
C2873 C2872 1.377 . S
C2873 C2874 1.379 . S
C2874 H2858 0.931 . S
C2874 C2868 1.383 . S
C2874 C2873 1.379 . S
H2875 C2869 0.959 . S
H2876 C2869 0.961 . S
H2877 C2869 0.960 . S
H2878 C2870 0.930 . S
H2879 C2871 0.929 . S
H2880 C2888 0.929 . S
H2881 C2890 0.930 . S
H2882 C2892 0.930 . S
H2883 C2895 0.929 . S
H2884 C2898 0.930 . S
H2885 C2900 0.960 . S
H2886 C2900 0.960 . S
H2887 C2900 0.960 . S
C2888 H2880 0.929 . S
C2888 C2889 1.377 . S
C2888 C2890 1.384 . S
C2889 C2888 1.377 . S
C2889 C2895 1.390 . S
C2890 H2881 0.930 . S
C2890 C2888 1.384 . S
C2890 C2891 1.372 . S
C2891 C2890 1.372 . S
C2891 C2892 1.400 . S
C2891 C2896 1.490 . S
C2892 H2882 0.930 . S
C2892 C2891 1.400 . S
C2892 C2895 1.386 . S
H2893 C2909 0.930 . S
H2894 C2910 0.931 . S
C2895 H2883 0.929 . S
C2895 C2889 1.390 . S
C2895 C2892 1.386 . S
C2896 C2891 1.490 . S
C2896 C2898 1.395 . S
C2896 C2899 1.403 . S
H2897 C2903 0.930 . S
C2898 H2884 0.930 . S
C2898 C2896 1.395 . S
C2898 C2901 1.403 . S
C2899 C2896 1.403 . S
C2899 C2900 1.524 . S
C2899 C2903 1.400 . S
C2900 H2885 0.960 . S
C2900 H2886 0.960 . S
C2900 H2887 0.960 . S
C2900 C2899 1.524 . S
C2901 C2898 1.403 . S
C2901 C2902 1.392 . S
C2901 C2905 1.495 . S
C2902 C2901 1.392 . S
C2902 C2903 1.385 . S
C2902 C2904 1.478 . S
C2903 H2897 0.930 . S
C2903 C2899 1.400 . S
C2903 C2902 1.385 . S
C2904 C2902 1.478 . S
C2904 C2906 1.381 . S
C2904 C2910 1.383 . S
C2905 C2901 1.495 . S
C2905 H2911 0.959 . S
C2905 H2912 0.961 . S
C2905 H2913 0.960 . S
C2906 C2904 1.381 . S
C2906 C2907 1.394 . S
C2906 H2914 0.930 . S
C2907 C2906 1.394 . S
C2907 C2908 1.383 . S
C2907 H2915 0.929 . S
C2908 C2907 1.383 . S
C2908 C2909 1.377 . S
C2909 H2893 0.930 . S
C2909 C2908 1.377 . S
C2909 C2910 1.379 . S
C2910 H2894 0.931 . S
C2910 C2904 1.383 . S
C2910 C2909 1.379 . S
H2911 C2905 0.959 . S
H2912 C2905 0.961 . S
H2913 C2905 0.960 . S
H2914 C2906 0.930 . S
H2915 C2907 0.929 . S
H2916 C2924 0.929 . S
H2917 C2926 0.930 . S
H2918 C2928 0.930 . S
H2919 C2931 0.929 . S
H2920 C2934 0.930 . S
H2921 C2936 0.960 . S
H2922 C2936 0.960 . S
H2923 C2936 0.960 . S
C2924 H2916 0.929 . S
C2924 C2925 1.377 . S
C2924 C2926 1.384 . S
C2925 C2924 1.377 . S
C2925 C2931 1.390 . S
C2926 H2917 0.930 . S
C2926 C2924 1.384 . S
C2926 C2927 1.372 . S
C2927 C2926 1.372 . S
C2927 C2928 1.400 . S
C2927 C2932 1.490 . S
C2928 H2918 0.930 . S
C2928 C2927 1.400 . S
C2928 C2931 1.386 . S
H2929 C2945 0.930 . S
H2930 C2946 0.931 . S
C2931 H2919 0.929 . S
C2931 C2925 1.390 . S
C2931 C2928 1.386 . S
C2932 C2927 1.490 . S
C2932 C2934 1.395 . S
C2932 C2935 1.403 . S
H2933 C2939 0.930 . S
C2934 H2920 0.930 . S
C2934 C2932 1.395 . S
C2934 C2937 1.403 . S
C2935 C2932 1.403 . S
C2935 C2936 1.524 . S
C2935 C2939 1.400 . S
C2936 H2921 0.960 . S
C2936 H2922 0.960 . S
C2936 H2923 0.960 . S
C2936 C2935 1.524 . S
C2937 C2934 1.403 . S
C2937 C2938 1.392 . S
C2937 C2941 1.495 . S
C2938 C2937 1.392 . S
C2938 C2939 1.385 . S
C2938 C2940 1.478 . S
C2939 H2933 0.930 . S
C2939 C2935 1.400 . S
C2939 C2938 1.385 . S
C2940 C2938 1.478 . S
C2940 C2942 1.381 . S
C2940 C2946 1.383 . S
C2941 C2937 1.495 . S
C2941 H2947 0.959 . S
C2941 H2948 0.961 . S
C2941 H2949 0.960 . S
C2942 C2940 1.381 . S
C2942 C2943 1.394 . S
C2942 H2950 0.930 . S
C2943 C2942 1.394 . S
C2943 C2944 1.383 . S
C2943 H2951 0.929 . S
C2944 C2943 1.383 . S
C2944 C2945 1.377 . S
C2945 H2929 0.930 . S
C2945 C2944 1.377 . S
C2945 C2946 1.379 . S
C2946 H2930 0.931 . S
C2946 C2940 1.383 . S
C2946 C2945 1.379 . S
H2947 C2941 0.959 . S
H2948 C2941 0.961 . S
H2949 C2941 0.960 . S
H2950 C2942 0.930 . S
H2951 C2943 0.929 . S
H2952 C2960 0.929 . S
H2953 C2962 0.930 . S
H2954 C2964 0.930 . S
H2955 C2967 0.929 . S
H2956 C2970 0.930 . S
H2957 C2972 0.960 . S
H2958 C2972 0.960 . S
H2959 C2972 0.960 . S
C2960 H2952 0.929 . S
C2960 C2961 1.377 . S
C2960 C2962 1.384 . S
C2961 C2960 1.377 . S
C2961 C2967 1.390 . S
C2962 H2953 0.930 . S
C2962 C2960 1.384 . S
C2962 C2963 1.372 . S
C2963 C2962 1.372 . S
C2963 C2964 1.400 . S
C2963 C2968 1.490 . S
C2964 H2954 0.930 . S
C2964 C2963 1.400 . S
C2964 C2967 1.386 . S
H2965 C2981 0.930 . S
H2966 C2982 0.931 . S
C2967 H2955 0.929 . S
C2967 C2961 1.390 . S
C2967 C2964 1.386 . S
C2968 C2963 1.490 . S
C2968 C2970 1.395 . S
C2968 C2971 1.403 . S
H2969 C2975 0.930 . S
C2970 H2956 0.930 . S
C2970 C2968 1.395 . S
C2970 C2973 1.403 . S
C2971 C2968 1.403 . S
C2971 C2972 1.524 . S
C2971 C2975 1.400 . S
C2972 H2957 0.960 . S
C2972 H2958 0.960 . S
C2972 H2959 0.960 . S
C2972 C2971 1.524 . S
C2973 C2970 1.403 . S
C2973 C2974 1.392 . S
C2973 C2977 1.495 . S
C2974 C2973 1.392 . S
C2974 C2975 1.385 . S
C2974 C2976 1.478 . S
C2975 H2969 0.930 . S
C2975 C2971 1.400 . S
C2975 C2974 1.385 . S
C2976 C2974 1.478 . S
C2976 C2978 1.381 . S
C2976 C2982 1.383 . S
C2977 C2973 1.495 . S
C2977 H2983 0.959 . S
C2977 H2984 0.961 . S
C2977 H2985 0.960 . S
C2978 C2976 1.381 . S
C2978 C2979 1.394 . S
C2978 H2986 0.930 . S
C2979 C2978 1.394 . S
C2979 C2980 1.383 . S
C2979 H2987 0.929 . S
C2980 C2979 1.383 . S
C2980 C2981 1.377 . S
C2981 H2965 0.930 . S
C2981 C2980 1.377 . S
C2981 C2982 1.379 . S
C2982 H2966 0.931 . S
C2982 C2976 1.383 . S
C2982 C2981 1.379 . S
H2983 C2977 0.959 . S
H2984 C2977 0.961 . S
H2985 C2977 0.960 . S
H2986 C2978 0.930 . S
H2987 C2979 0.929 . S
H2988 C2996 0.929 . S
H2989 C2998 0.930 . S
H2990 C3000 0.930 . S
H2991 C3003 0.929 . S
H2992 C3006 0.930 . S
H2993 C3008 0.960 . S
H2994 C3008 0.960 . S
H2995 C3008 0.960 . S
C2996 H2988 0.929 . S
C2996 C2997 1.377 . S
C2996 C2998 1.384 . S
C2997 C2996 1.377 . S
C2997 C3003 1.390 . S
C2998 H2989 0.930 . S
C2998 C2996 1.384 . S
C2998 C2999 1.372 . S
C2999 C2998 1.372 . S
C2999 C3000 1.400 . S
C2999 C3004 1.490 . S
C3000 H2990 0.930 . S
C3000 C2999 1.400 . S
C3000 C3003 1.386 . S
H3001 C3017 0.930 . S
H3002 C3018 0.931 . S
C3003 H2991 0.929 . S
C3003 C2997 1.390 . S
C3003 C3000 1.386 . S
C3004 C2999 1.490 . S
C3004 C3006 1.395 . S
C3004 C3007 1.403 . S
H3005 C3011 0.930 . S
C3006 H2992 0.930 . S
C3006 C3004 1.395 . S
C3006 C3009 1.403 . S
C3007 C3004 1.403 . S
C3007 C3008 1.524 . S
C3007 C3011 1.400 . S
C3008 H2993 0.960 . S
C3008 H2994 0.960 . S
C3008 H2995 0.960 . S
C3008 C3007 1.524 . S
C3009 C3006 1.403 . S
C3009 C3010 1.392 . S
C3009 C3013 1.495 . S
C3010 C3009 1.392 . S
C3010 C3011 1.385 . S
C3010 C3012 1.478 . S
C3011 H3005 0.930 . S
C3011 C3007 1.400 . S
C3011 C3010 1.385 . S
C3012 C3010 1.478 . S
C3012 C3014 1.381 . S
C3012 C3018 1.383 . S
C3013 C3009 1.495 . S
C3013 H3019 0.959 . S
C3013 H3020 0.961 . S
C3013 H3021 0.960 . S
C3014 C3012 1.381 . S
C3014 C3015 1.394 . S
C3014 H3022 0.930 . S
C3015 C3014 1.394 . S
C3015 C3016 1.383 . S
C3015 H3023 0.929 . S
C3016 C3015 1.383 . S
C3016 C3017 1.377 . S
C3017 H3001 0.930 . S
C3017 C3016 1.377 . S
C3017 C3018 1.379 . S
C3018 H3002 0.931 . S
C3018 C3012 1.383 . S
C3018 C3017 1.379 . S
H3019 C3013 0.959 . S
H3020 C3013 0.961 . S
H3021 C3013 0.960 . S
H3022 C3014 0.930 . S
H3023 C3015 0.929 . S
C1089 C522 1.713 . S
C1108 C732 1.704 . S
C1125 C562 1.857 . S
C1144 C772 1.844 . S
C1161 C495 1.782 . S
C1180 C802 1.800 . S
C1197 C455 1.571 . S
C1216 C762 1.574 . S
C1252 C812 1.452 . S
C1233 C362 1.445 . S
C1269 C402 1.404 . S
C1288 C722 1.386 1_556 S
C1324 C751 1.746 . S
C1305 C442 1.670 . S
C1360 C791 1.808 . S
C1341 C375 1.818 . S
C1377 C415 1.788 . S
C1396 C817 1.806 . S
C1413 C535 1.578 . S
C1432 C777 1.544 . S
C1449 C575 1.410 . S
C1468 C831 1.421 . S
C1504 C737 1.439 . S
C1485 C482 1.356 . S
C1540 C852 1.702 . S
C1521 C42 1.714 . S
C1557 C82 1.856 . S
C1576 C892 1.840 . S
C1593 C15 1.784 . S
C1612 C922 1.805 . S
C1629 C695 1.569 . S
C1648 C882 1.560 . S
C1665 C602 1.443 . S
C1684 C932 1.446 . S
C1701 C642 1.405 . S
C1720 C842 1.396 . S
C1737 C682 1.676 . S
C1756 C871 1.733 . S
C1773 C615 1.819 . S
C1792 C911 1.819 . S
C1828 C937 1.772 . S
C1809 C655 1.793 . S
C1845 C55 1.576 . S
C1864 C897 1.578 . S
C1900 C951 1.420 . S
C1881 C95 1.410 . S
C1917 C2 1.363 . S
C1936 C857 1.428 . S
C1972 C972 1.718 . S
C1953 C282 1.717 . S
C1989 C322 1.856 . S
C2008 C1012 1.840 . S
C2044 C1042 1.793 . S
C2025 C255 1.782 . S
C2080 C1002 1.572 . S
C2061 C215 1.570 . S
C2116 C1052 1.448 . S
C2097 C122 1.443 . S
C2133 C162 1.404 . S
C2152 C962 1.387 . S
C2169 C202 1.670 . S
C2188 C991 1.727 . S
C2205 C135 1.818 . S
C2224 C1031 1.808 . S
C2260 C1057 1.788 . S
C2241 C175 1.787 . S
C2277 C295 1.577 . S
C2296 C1017 1.574 . S
C2313 C335 1.410 . S
C2332 C1071 1.404 . S
C2349 C242 1.357 . S
C2368 C977 1.438 . S
C2385 C621 1.211 . S
C2404 C749 1.201 . S
C2440 C789 1.949 . S
C2421 C661 1.977 . S
C2457 C701 1.587 . S
C2476 C808 1.629 . S
C2493 C261 1.927 . S
C2512 C768 1.979 . S
C2529 C301 1.607 . S
C2548 C829 1.605 . S
C2584 C728 1.209 . S
C2565 C341 1.203 . S
C2601 C141 1.212 . S
C2620 C869 1.211 . S
C2637 C181 1.979 . S
C2656 C909 1.946 . S
C2673 C221 1.580 . S
C2692 C928 1.615 . S
C2709 C501 1.924 . S
C2728 C888 1.978 . S
C2764 C949 1.594 . S
C2745 C541 1.607 . S
C2781 C581 1.205 . S
C2800 C848 1.195 . S
C2817 C381 1.209 . S
C2836 C989 1.204 . S
C2853 C421 1.978 . S
C2872 C1029 1.935 . S
C2908 C1048 1.627 . S
C2889 C461 1.585 . S
C2925 C21 1.922 . S
C2944 C1008 1.973 . S
C2961 C61 1.607 . S
C2980 C1069 1.602 . S
C2997 C101 1.204 . S
C3016 C968 1.201 . S
