# Generated by pormake.
# Topology ocu, (6,8)-cn, num edge types: 1
# Building blocks:
#     Node 0, Type 0, BuildingBlock: HISSIN_clean_sbu_0, # of connection points: 6
#     Node 1, Type 0, BuildingBlock: HISSIN_clean_sbu_0, # of connection points: 6
#     Node 2, Type 0, BuildingBlock: HISSIN_clean_sbu_0, # of connection points: 6
#     Node 3, Type 0, BuildingBlock: HISSIN_clean_sbu_0, # of connection points: 6
#     Node 4, Type 0, BuildingBlock: HISSIN_clean_sbu_0, # of connection points: 6
#     Node 5, Type 0, BuildingBlock: HISSIN_clean_sbu_0, # of connection points: 6
#     Node 6, Type 0, BuildingBlock: HISSIN_clean_sbu_0, # of connection points: 6
#     Node 7, Type 0, BuildingBlock: HISSIN_clean_sbu_0, # of connection points: 6
#     Node 8, Type 1, BuildingBlock: AJUNOK_clean_sbu_0, # of connection points: 8
#     Node 9, Type 1, BuildingBlock: AJUNOK_clean_sbu_0, # of connection points: 8
#     Node 10, Type 1, BuildingBlock: AJUNOK_clean_sbu_0, # of connection points: 8
#     Node 11, Type 1, BuildingBlock: AJUNOK_clean_sbu_0, # of connection points: 8
#     Node 12, Type 1, BuildingBlock: AJUNOK_clean_sbu_0, # of connection points: 8
#     Node 13, Type 1, BuildingBlock: AJUNOK_clean_sbu_0, # of connection points: 8
#     Edge 14, Type (0, 1), BuildingBlock: XUDNAN_clean_linker_2, # of connection points: 2
#     Edge 15, Type (0, 1), BuildingBlock: XUDNAN_clean_linker_2, # of connection points: 2
#     Edge 16, Type (0, 1), BuildingBlock: XUDNAN_clean_linker_2, # of connection points: 2
#     Edge 17, Type (0, 1), BuildingBlock: XUDNAN_clean_linker_2, # of connection points: 2
#     Edge 18, Type (0, 1), BuildingBlock: XUDNAN_clean_linker_2, # of connection points: 2
#     Edge 19, Type (0, 1), BuildingBlock: XUDNAN_clean_linker_2, # of connection points: 2
#     Edge 20, Type (0, 1), BuildingBlock: XUDNAN_clean_linker_2, # of connection points: 2
#     Edge 21, Type (0, 1), BuildingBlock: XUDNAN_clean_linker_2, # of connection points: 2
#     Edge 22, Type (0, 1), BuildingBlock: XUDNAN_clean_linker_2, # of connection points: 2
#     Edge 23, Type (0, 1), BuildingBlock: XUDNAN_clean_linker_2, # of connection points: 2
#     Edge 24, Type (0, 1), BuildingBlock: XUDNAN_clean_linker_2, # of connection points: 2
#     Edge 25, Type (0, 1), BuildingBlock: XUDNAN_clean_linker_2, # of connection points: 2
#     Edge 26, Type (0, 1), BuildingBlock: XUDNAN_clean_linker_2, # of connection points: 2
#     Edge 27, Type (0, 1), BuildingBlock: XUDNAN_clean_linker_2, # of connection points: 2
#     Edge 28, Type (0, 1), BuildingBlock: XUDNAN_clean_linker_2, # of connection points: 2
#     Edge 29, Type (0, 1), BuildingBlock: XUDNAN_clean_linker_2, # of connection points: 2
#     Edge 30, Type (0, 1), BuildingBlock: XUDNAN_clean_linker_2, # of connection points: 2
#     Edge 31, Type (0, 1), BuildingBlock: XUDNAN_clean_linker_2, # of connection points: 2
#     Edge 32, Type (0, 1), BuildingBlock: XUDNAN_clean_linker_2, # of connection points: 2
#     Edge 33, Type (0, 1), BuildingBlock: XUDNAN_clean_linker_2, # of connection points: 2
#     Edge 34, Type (0, 1), BuildingBlock: XUDNAN_clean_linker_2, # of connection points: 2
#     Edge 35, Type (0, 1), BuildingBlock: XUDNAN_clean_linker_2, # of connection points: 2
#     Edge 36, Type (0, 1), BuildingBlock: XUDNAN_clean_linker_2, # of connection points: 2
#     Edge 37, Type (0, 1), BuildingBlock: XUDNAN_clean_linker_2, # of connection points: 2
#     Edge 38, Type (0, 1), BuildingBlock: XUDNAN_clean_linker_2, # of connection points: 2
#     Edge 39, Type (0, 1), BuildingBlock: XUDNAN_clean_linker_2, # of connection points: 2
#     Edge 40, Type (0, 1), BuildingBlock: XUDNAN_clean_linker_2, # of connection points: 2
#     Edge 41, Type (0, 1), BuildingBlock: XUDNAN_clean_linker_2, # of connection points: 2
#     Edge 42, Type (0, 1), BuildingBlock: XUDNAN_clean_linker_2, # of connection points: 2
#     Edge 43, Type (0, 1), BuildingBlock: XUDNAN_clean_linker_2, # of connection points: 2
#     Edge 44, Type (0, 1), BuildingBlock: XUDNAN_clean_linker_2, # of connection points: 2
#     Edge 45, Type (0, 1), BuildingBlock: XUDNAN_clean_linker_2, # of connection points: 2
#     Edge 46, Type (0, 1), BuildingBlock: XUDNAN_clean_linker_2, # of connection points: 2
#     Edge 47, Type (0, 1), BuildingBlock: XUDNAN_clean_linker_2, # of connection points: 2
#     Edge 48, Type (0, 1), BuildingBlock: XUDNAN_clean_linker_2, # of connection points: 2
#     Edge 49, Type (0, 1), BuildingBlock: XUDNAN_clean_linker_2, # of connection points: 2
#     Edge 50, Type (0, 1), BuildingBlock: XUDNAN_clean_linker_2, # of connection points: 2
#     Edge 51, Type (0, 1), BuildingBlock: XUDNAN_clean_linker_2, # of connection points: 2
#     Edge 52, Type (0, 1), BuildingBlock: XUDNAN_clean_linker_2, # of connection points: 2
#     Edge 53, Type (0, 1), BuildingBlock: XUDNAN_clean_linker_2, # of connection points: 2
#     Edge 54, Type (0, 1), BuildingBlock: XUDNAN_clean_linker_2, # of connection points: 2
#     Edge 55, Type (0, 1), BuildingBlock: XUDNAN_clean_linker_2, # of connection points: 2
#     Edge 56, Type (0, 1), BuildingBlock: XUDNAN_clean_linker_2, # of connection points: 2
#     Edge 57, Type (0, 1), BuildingBlock: XUDNAN_clean_linker_2, # of connection points: 2
#     Edge 58, Type (0, 1), BuildingBlock: XUDNAN_clean_linker_2, # of connection points: 2
#     Edge 59, Type (0, 1), BuildingBlock: XUDNAN_clean_linker_2, # of connection points: 2
#     Edge 60, Type (0, 1), BuildingBlock: XUDNAN_clean_linker_2, # of connection points: 2
#     Edge 61, Type (0, 1), BuildingBlock: XUDNAN_clean_linker_2, # of connection points: 2
# Relax obj value: 0.139
# Max RMSD: 0.199
# Mean RMSD: 0.160
data_MOF--net-ocu--node1-HISSIN_clean_sbu_0--node2-AJUNOK_clean_sbu_0--edge1-XUDNAN_clean_linker_2
_symmetry_space_group_name_H-M    P1
_symmetry_Int_Tables_number       1
_symmetry_cell_setting            triclinic
loop_
_symmetry_equiv_pos_as_xyz
'x, y, z'
_cell_length_a     44.942398
_cell_length_b     46.189979
_cell_length_c     37.400239
_cell_angle_alpha  106.08282
_cell_angle_beta   88.520913
_cell_angle_gamma 113.53754
loop_
_atom_site_label
_atom_site_type_symbol
_atom_site_fract_x
_atom_site_fract_y
_atom_site_fract_z
_atom_type_partial_charge
Eu0 Eu 0.2941 0.24433 0.2828 0.0
Eu1 Eu 0.24702 0.23728 0.20987 0.0
C2 C 0.22296 0.19121 0.26312 0.0
C3 C 0.3423 0.22053 0.3436 0.0
C4 C 0.32122 0.18907 0.34573 0.0
C5 C 0.3886 0.20716 0.35179 0.0
C6 C 0.33366 0.16693 0.35067 0.0
C7 C 0.37612 0.22942 0.34708 0.0
C8 C 0.36751 0.17544 0.35329 0.0
C9 C 0.32949 0.24394 0.33702 0.0
O10 O 0.24849 0.2823 0.25533 0.0
O11 O 0.26065 0.26979 0.30692 0.0
C12 C 0.24819 0.28547 0.29142 0.0
O13 O 0.319 0.29093 0.26621 0.0
O14 O 0.19962 0.22026 0.1779 0.0
O15 O 0.2434 0.25306 0.16102 0.0
O16 O 0.29956 0.26598 0.20473 0.0
C17 C 0.32109 0.28989 0.23094 0.0
O18 O 0.30955 0.21571 0.23193 0.0
O19 O 0.26629 0.19718 0.18705 0.0
O20 O 0.21548 0.21026 0.24826 0.0
O21 O 0.34183 0.25766 0.31082 0.0
O22 O 0.29802 0.23546 0.33657 0.0
O23 O 0.25303 0.19412 0.26455 0.0
C24 C 0.19585 0.26215 0.15472 0.0
C25 C 0.21108 0.29608 0.17341 0.0
C26 C 0.15157 0.27154 0.13041 0.0
C27 C 0.19701 0.31749 0.17031 0.0
C28 C 0.16598 0.2501 0.13313 0.0
C29 C 0.16684 0.30564 0.14907 0.0
C30 C 0.21165 0.23977 0.15687 0.0
C31 C 0.29364 0.19669 0.19906 0.0
H32 H 0.29503 0.18135 0.34333 0.0
H33 H 0.41474 0.21456 0.35335 0.0
H34 H 0.3166 0.14305 0.35248 0.0
H35 H 0.39297 0.25352 0.34561 0.0
H36 H 0.23417 0.30625 0.19023 0.0
H37 H 0.12822 0.26123 0.11413 0.0
H38 H 0.21019 0.34352 0.18444 0.0
H39 H 0.15374 0.22406 0.11838 0.0
Eu40 Eu 0.78753 0.24911 0.26342 0.0
Eu41 Eu 0.72862 0.27113 0.25191 0.0
C42 C 0.77141 0.29602 0.32842 0.0
C43 C 0.83828 0.21313 0.29902 0.0
C44 C 0.84931 0.22421 0.33718 0.0
C45 C 0.8388 0.16008 0.2949 0.0
C46 C 0.85616 0.20372 0.35368 0.0
C47 C 0.83172 0.18041 0.27843 0.0
C48 C 0.85248 0.17223 0.33205 0.0
C49 C 0.83541 0.23612 0.2804 0.0
O50 O 0.76729 0.29622 0.21826 0.0
O51 O 0.81105 0.29729 0.24962 0.0
C52 C 0.7987 0.30785 0.22724 0.0
O53 O 0.76782 0.22001 0.20382 0.0
O54 O 0.71252 0.31109 0.26153 0.0
O55 O 0.67828 0.26055 0.23596 0.0
O56 O 0.72701 0.23676 0.19569 0.0
C57 C 0.74409 0.21934 0.18341 0.0
O58 O 0.74376 0.20616 0.26982 0.0
O59 O 0.70604 0.22928 0.27786 0.0
O60 O 0.76184 0.30615 0.30341 0.0
O61 O 0.81896 0.2231 0.24754 0.0
O62 O 0.82926 0.26049 0.30122 0.0
O63 O 0.76957 0.26603 0.31848 0.0
C64 C 0.67834 0.30092 0.20978 0.0
C65 C 0.69186 0.29176 0.17646 0.0
C66 C 0.65686 0.33064 0.18178 0.0
C67 C 0.68768 0.30176 0.14578 0.0
C68 C 0.66093 0.32046 0.21239 0.0
C69 C 0.67026 0.3214 0.14827 0.0
C70 C 0.68447 0.29172 0.24225 0.0
C71 C 0.71489 0.2053 0.27772 0.0
H72 H 0.85438 0.24925 0.35375 0.0
H73 H 0.83619 0.13588 0.27781 0.0
H74 H 0.86728 0.21361 0.38226 0.0
H75 H 0.82288 0.17105 0.24907 0.0
H76 H 0.70586 0.27704 0.17424 0.0
H77 H 0.64283 0.34534 0.18412 0.0
H78 H 0.69826 0.29445 0.12032 0.0
H79 H 0.65066 0.32793 0.23805 0.0
Eu80 Eu 0.76444 0.75361 0.20822 0.0
Eu81 Eu 0.78742 0.73917 0.28834 0.0
C82 C 0.71926 0.6955 0.2411 0.0
C83 C 0.7232 0.78514 0.15019 0.0
C84 C 0.69591 0.77263 0.12404 0.0
C85 C 0.71493 0.83595 0.17364 0.0
C86 C 0.67823 0.79156 0.12276 0.0
C87 C 0.73242 0.81701 0.17503 0.0
C88 C 0.68738 0.8235 0.1477 0.0
C89 C 0.74124 0.76461 0.15221 0.0
O90 O 0.79583 0.70288 0.24068 0.0
O91 O 0.79152 0.71893 0.18802 0.0
C92 C 0.79912 0.70059 0.20507 0.0
O93 O 0.80438 0.80085 0.24007 0.0
O94 O 0.78271 0.7176 0.33471 0.0
O95 O 0.8298 0.75211 0.32616 0.0
O96 O 0.82447 0.76993 0.25812 0.0
C97 C 0.82622 0.79923 0.26052 0.0
O98 O 0.74541 0.78181 0.25631 0.0
O99 O 0.76398 0.77556 0.31024 0.0
O100 O 0.74216 0.69468 0.26116 0.0
O101 O 0.77162 0.78032 0.16657 0.0
O102 O 0.72573 0.73884 0.16389 0.0
O103 O 0.72217 0.72194 0.23236 0.0
C104 C 0.82961 0.70892 0.34952 0.0
C105 C 0.86255 0.7157 0.34351 0.0
C106 C 0.82674 0.66259 0.37074 0.0
C107 C 0.87745 0.69631 0.35141 0.0
C108 C 0.81189 0.68191 0.36287 0.0
C109 C 0.85988 0.66987 0.36584 0.0
C110 C 0.81417 0.73077 0.34397 0.0
C111 C 0.74844 0.78778 0.29304 0.0
H112 H 0.68805 0.74801 0.10481 0.0
H113 H 0.72322 0.86055 0.19293 0.0
H114 H 0.65697 0.78086 0.10273 0.0
H115 H 0.75315 0.82735 0.19574 0.0
H116 H 0.8771 0.73645 0.33348 0.0
H117 H 0.81226 0.6421 0.3812 0.0
H118 H 0.90304 0.70281 0.34756 0.0
H119 H 0.78658 0.67598 0.36792 0.0
Eu120 Eu 0.3026 0.74069 0.24394 0.0
Eu121 Eu 0.24009 0.75813 0.25511 0.0
C122 C 0.2436 0.70481 0.18366 0.0
C123 C 0.37892 0.73516 0.2047 0.0
C124 C 0.37084 0.72247 0.16586 0.0
C125 C 0.43552 0.74699 0.19566 0.0
C126 C 0.39471 0.71909 0.14266 0.0
C127 C 0.41176 0.75048 0.21899 0.0
C128 C 0.42575 0.72641 0.15883 0.0
C129 C 0.35395 0.72887 0.23083 0.0
O130 O 0.23474 0.72735 0.29382 0.0
O131 O 0.26683 0.70069 0.26642 0.0
C132 C 0.24439 0.70335 0.28878 0.0
O133 O 0.3069 0.76523 0.30549 0.0
O134 O 0.18851 0.7402 0.23716 0.0
O135 O 0.21339 0.78832 0.27748 0.0
O136 O 0.27719 0.79507 0.30333 0.0
C137 C 0.2987 0.78978 0.32083 0.0
O138 O 0.31812 0.78926 0.23166 0.0
O139 O 0.26792 0.78612 0.21554 0.0
O140 O 0.22704 0.70922 0.2122 0.0
O141 O 0.35429 0.75481 0.25626 0.0
O142 O 0.32456 0.70698 0.2171 0.0
O143 O 0.27496 0.72218 0.18722 0.0
C144 C 0.16004 0.75558 0.28678 0.0
C145 C 0.16827 0.75725 0.32351 0.0
C146 C 0.10731 0.7537 0.30358 0.0
C147 C 0.14717 0.76081 0.35071 0.0
C148 C 0.12815 0.74996 0.27604 0.0
C149 C 0.12004 0.76594 0.34124 0.0
C150 C 0.1854 0.76467 0.26175 0.0
C151 C 0.2998 0.79891 0.21545 0.0
H152 H 0.34576 0.71192 0.1539 0.0
H153 H 0.45976 0.75406 0.20828 0.0
H154 H 0.38692 0.70448 0.11371 0.0
H155 H 0.41855 0.76165 0.24878 0.0
H156 H 0.19234 0.75994 0.33201 0.0
H157 H 0.08508 0.75525 0.29569 0.0
H158 H 0.15633 0.768 0.37978 0.0
H159 H 0.12085 0.74692 0.24738 0.0
Eu160 Eu 0.29769 0.73322 0.74384 0.0
Eu161 Eu 0.2451 0.76503 0.75659 0.0
C162 C 0.29779 0.78127 0.82192 0.0
C163 C 0.34648 0.69056 0.76489 0.0
C164 C 0.34388 0.70152 0.80334 0.0
C165 C 0.36773 0.653 0.77593 0.0
C166 C 0.35462 0.68939 0.82811 0.0
C167 C 0.35708 0.66526 0.75109 0.0
C168 C 0.3676 0.66595 0.81453 0.0
C169 C 0.33851 0.70587 0.73945 0.0
O170 O 0.27589 0.7853 0.71376 0.0
O171 O 0.32249 0.78242 0.73173 0.0
C172 C 0.30738 0.79398 0.71359 0.0
O173 O 0.27611 0.72075 0.68567 0.0
O174 O 0.23675 0.80954 0.77899 0.0
O175 O 0.19604 0.76313 0.75244 0.0
O176 O 0.22784 0.72458 0.70146 0.0
C177 C 0.24564 0.7142 0.67692 0.0
O178 O 0.25002 0.69393 0.75063 0.0
O179 O 0.22756 0.72662 0.78761 0.0
O180 O 0.28564 0.79469 0.8031 0.0
O181 O 0.30906 0.69026 0.72268 0.0
O182 O 0.34714 0.7377 0.75242 0.0
O183 O 0.29719 0.75203 0.806 0.0
C184 C 0.19884 0.81088 0.73953 0.0
C185 C 0.20797 0.80525 0.70285 0.0
C186 C 0.17952 0.84998 0.72932 0.0
C187 C 0.20272 0.82185 0.6794 0.0
C188 C 0.18498 0.83355 0.75282 0.0
C189 C 0.18814 0.84404 0.69243 0.0
C190 C 0.20649 0.79521 0.76467 0.0
C191 C 0.22912 0.69787 0.77456 0.0
H192 H 0.33508 0.72058 0.81435 0.0
H193 H 0.37809 0.6351 0.76527 0.0
H194 H 0.35489 0.69989 0.85793 0.0
H195 H 0.35849 0.65612 0.7214 0.0
H196 H 0.21914 0.78803 0.69242 0.0
H197 H 0.16834 0.86719 0.73982 0.0
H198 H 0.20917 0.81673 0.65091 0.0
H199 H 0.17847 0.83856 0.78129 0.0
Eu200 Eu 0.27104 0.25978 0.70554 0.0
Eu201 Eu 0.28133 0.23842 0.78325 0.0
C202 C 0.21942 0.19572 0.72562 0.0
C203 C 0.23358 0.29056 0.64183 0.0
C204 C 0.20249 0.27031 0.62267 0.0
C205 C 0.22025 0.33828 0.65036 0.0
C206 C 0.18042 0.28367 0.61795 0.0
C207 C 0.24239 0.32483 0.65525 0.0
C208 C 0.18881 0.31778 0.63204 0.0
C209 C 0.25563 0.27515 0.6484 0.0
O210 O 0.29291 0.20443 0.7337 0.0
O211 O 0.30786 0.23609 0.69252 0.0
C212 C 0.30823 0.21177 0.70465 0.0
O213 O 0.30513 0.30512 0.74768 0.0
O214 O 0.27155 0.20745 0.82071 0.0
O215 O 0.31655 0.2513 0.83065 0.0
O216 O 0.32458 0.27267 0.76343 0.0
C217 C 0.32644 0.30221 0.76758 0.0
O218 O 0.2388 0.27512 0.74766 0.0
O219 O 0.26129 0.27822 0.80445 0.0
O220 O 0.22877 0.20744 0.76153 0.0
O221 O 0.28238 0.29354 0.67077 0.0
O222 O 0.24124 0.24617 0.6537 0.0
O223 O 0.23799 0.20765 0.70103 0.0
C224 C 0.31792 0.20466 0.84619 0.0
C225 C 0.34959 0.20977 0.83564 0.0
C226 C 0.31705 0.15959 0.86856 0.0
C227 C 0.36459 0.18951 0.84107 0.0
C228 C 0.30221 0.17971 0.86319 0.0
C229 C 0.34818 0.16368 0.85698 0.0
C230 C 0.30018 0.22422 0.83961 0.0
C231 C 0.24307 0.28601 0.78463 0.0
H232 H 0.19497 0.24387 0.61163 0.0
H233 H 0.2275 0.36464 0.66176 0.0
H234 H 0.15673 0.26714 0.60305 0.0
H235 H 0.26615 0.34123 0.67004 0.0
H236 H 0.36253 0.22899 0.82266 0.0
H237 H 0.3039 0.1406 0.88173 0.0
H238 H 0.38855 0.19341 0.8318 0.0
H239 H 0.27805 0.17544 0.87203 0.0
Eu240 Eu 0.80022 0.23347 0.75358 0.0
Eu241 Eu 0.74496 0.2565 0.73893 0.0
C242 C 0.75899 0.20266 0.67376 0.0
C243 C 0.86158 0.2043 0.72455 0.0
C244 C 0.84149 0.17516 0.69746 0.0
C245 C 0.89978 0.21793 0.67847 0.0
C246 C 0.85007 0.16789 0.66124 0.0
C247 C 0.89115 0.22529 0.71492 0.0
C248 C 0.879 0.18943 0.65119 0.0
C249 C 0.84786 0.21688 0.75835 0.0
O250 O 0.72691 0.22458 0.77753 0.0
O251 O 0.75231 0.19113 0.75229 0.0
C252 C 0.72847 0.19591 0.76994 0.0
O253 O 0.78985 0.25627 0.81085 0.0
O254 O 0.6931 0.24202 0.7261 0.0
O255 O 0.72666 0.29367 0.73877 0.0
O256 O 0.77678 0.29258 0.79167 0.0
C257 C 0.78709 0.28441 0.81834 0.0
O258 O 0.82386 0.28422 0.74539 0.0
O259 O 0.78439 0.27978 0.70482 0.0
O260 O 0.73732 0.21333 0.68899 0.0
O261 O 0.85221 0.24755 0.76466 0.0
O262 O 0.81802 0.19815 0.7624 0.0
O263 O 0.78776 0.21221 0.69121 0.0
C264 C 0.68142 0.27925 0.77317 0.0
C265 C 0.70127 0.29426 0.80721 0.0
C266 C 0.63374 0.27108 0.80734 0.0
C267 C 0.68769 0.29856 0.84085 0.0
C268 C 0.64748 0.26624 0.77342 0.0
C269 C 0.65397 0.28879 0.84111 0.0
C270 C 0.69666 0.27261 0.73866 0.0
C271 C 0.81483 0.29345 0.71897 0.0
H272 H 0.81836 0.15852 0.70366 0.0
H273 H 0.92259 0.23451 0.67153 0.0
H274 H 0.83421 0.14496 0.64124 0.0
H275 H 0.90678 0.24819 0.73511 0.0
H276 H 0.7275 0.30368 0.808 0.0
H277 H 0.60762 0.26376 0.80702 0.0
H278 H 0.70391 0.3129 0.86628 0.0
H279 H 0.63177 0.25323 0.74749 0.0
Eu280 Eu 0.79143 0.74541 0.78439 0.0
Eu281 Eu 0.74939 0.74102 0.70689 0.0
C282 C 0.7202 0.69093 0.7556 0.0
C283 C 0.83669 0.72017 0.84587 0.0
C284 C 0.81727 0.68632 0.83961 0.0
C285 C 0.88434 0.71014 0.85836 0.0
C286 C 0.83116 0.66473 0.84253 0.0
C287 C 0.87035 0.73187 0.85562 0.0
C288 C 0.86495 0.67615 0.85142 0.0
C289 C 0.82216 0.74302 0.8413 0.0
O290 O 0.72995 0.76858 0.75314 0.0
O291 O 0.76289 0.77835 0.80577 0.0
C292 C 0.73922 0.78186 0.78906 0.0
O293 O 0.82736 0.77558 0.75214 0.0
O294 O 0.70707 0.72187 0.66577 0.0
O295 O 0.7511 0.76322 0.6621 0.0
O296 O 0.79027 0.79017 0.73223 0.0
C297 C 0.82017 0.79287 0.73435 0.0
O298 O 0.80489 0.71079 0.73798 0.0
O299 O 0.77732 0.70855 0.68499 0.0
O300 O 0.7139 0.70874 0.73757 0.0
O301 O 0.83647 0.76203 0.82033 0.0
O302 O 0.79042 0.73094 0.83538 0.0
O303 O 0.75012 0.69535 0.76358 0.0
C304 C 0.70094 0.76361 0.64477 0.0
C305 C 0.70808 0.79611 0.66708 0.0
C306 C 0.65932 0.76667 0.60755 0.0
C307 C 0.69139 0.81395 0.65909 0.0
C308 C 0.67588 0.74887 0.61559 0.0
C309 C 0.66741 0.79966 0.62859 0.0
C310 C 0.72042 0.74546 0.65008 0.0
C311 C 0.79759 0.70066 0.70145 0.0
H312 H 0.79125 0.67629 0.83212 0.0
H313 H 0.91045 0.71986 0.86501 0.0
H314 H 0.81522 0.63893 0.83778 0.0
H315 H 0.88595 0.7578 0.86061 0.0
H316 H 0.72721 0.80803 0.68997 0.0
H317 H 0.64068 0.7549 0.58415 0.0
H318 H 0.69826 0.83936 0.67564 0.0
H319 H 0.66974 0.72382 0.59824 0.0
Cd320 Cd 0.98184 0.95191 0.53096 0.0
Cd321 Cd 0.0434 0.02836 0.46494 0.0
C322 C 0.05858 0.96927 0.54909 0.0
N323 N 0.02932 0.9443 0.53359 0.0
C324 C 0.04873 0.90408 0.53663 0.0
C325 C 0.07834 0.92935 0.55504 0.0
C326 C 0.08382 0.96226 0.55984 0.0
C327 C 0.0245 0.91219 0.52579 0.0
H328 H 0.06201 -0.00539 0.55509 0.0
H329 H 1.001 0.89288 0.51351 0.0
C330 C 0.98469 0.96141 0.44162 0.0
C331 C 0.99126 0.04009 0.42773 0.0
C332 C 0.97273 0.05542 0.41955 0.0
C333 C 0.97083 0.0819 0.44716 0.0
C334 C 0.98388 0.08965 0.48389 0.0
C335 C 1.00113 0.07228 0.49141 0.0
N336 N 1.0052 0.04879 0.46297 0.0
H337 H 0.99662 0.02317 0.40503 0.0
H338 H 1.01351 0.0794 0.5189 0.0
C339 C 0.0632 0.9685 0.44765 0.0
N340 N 0.0731 -0.00023 0.4705 0.0
C341 C 0.12138 -0.00173 0.49333 0.0
C342 C 0.11101 0.96576 0.47041 0.0
C343 C 0.08155 0.95074 0.44772 0.0
C344 C 0.10148 0.015 0.4932 0.0
H345 H 0.04177 0.95754 0.42823 0.0
H346 H 0.10896 0.04029 0.51028 0.0
C347 C 0.02848 0.03149 0.56513 0.0
C348 C 0.94821 0.90023 0.56033 0.0
N349 N 0.94073 0.96962 0.53859 0.0
C350 C 0.94161 0.99132 0.57189 0.0
C351 C 0.92792 0.01364 0.57341 0.0
C352 C 0.9139 0.01347 0.54014 0.0
C353 C 0.90777 0.98668 0.50815 0.0
C354 C 0.92101 0.96418 0.50849 0.0
C355 C 0.08921 0.07201 0.42981 0.0
O356 O 0.99596 0.96612 0.47428 0.0
O357 O 1.00168 0.98004 0.42299 0.0
O358 O 0.03359 0.0305 0.53117 0.0
O359 O 1.01047 0.00549 0.5734 0.0
O360 O 0.9435 0.89539 0.52519 0.0
O361 O 0.96848 0.92838 0.57974 0.0
O362 O 0.08783 0.08066 0.46504 0.0
O363 O 0.06992 0.04298 0.41162 0.0
H364 H 0.95565 -0.0065 0.59628 0.0
H365 H 0.91778 0.94401 0.48412 0.0
H366 H 0.04395 0.87835 0.53209 0.0
H367 H 0.10649 0.98227 0.57382 0.0
H368 H 0.96306 0.04913 0.39085 0.0
H369 H 0.9831 0.11041 0.50542 0.0
H370 H 0.14445 0.01047 0.5105 0.0
H371 H 0.07362 0.92595 0.42882 0.0
H372 H 0.93118 0.03278 0.59937 0.0
H373 H 0.89566 0.98477 0.48241 0.0
Cd374 Cd 0.49037 -0.00501 0.05378 0.0
Cd375 Cd 0.552 -0.0065 0.93433 0.0
C376 C 0.54695 0.99259 0.10698 0.0
N377 N 0.52411 0.97451 0.07719 0.0
C378 C 0.53781 0.92818 0.07031 0.0
C379 C 0.56161 0.94612 0.10104 0.0
C380 C 0.56619 0.97896 0.11915 0.0
C381 C 0.5194 0.94292 0.05882 0.0
H382 H 0.55035 0.01766 0.12128 0.0
H383 H 0.501 0.92898 0.03532 0.0
C384 C 0.48333 0.94895 0.95897 0.0
C385 C 0.48942 -0.00642 0.89013 0.0
C386 C 0.46784 0.00611 0.8811 0.0
C387 C 0.47042 0.03762 0.90215 0.0
C388 C 0.49495 0.05562 0.93208 0.0
C389 C 0.51589 0.04206 0.94024 0.0
N390 N 0.51276 0.01155 0.91943 0.0
H391 H 0.48777 0.96966 0.87345 0.0
H392 H 0.53493 0.05607 0.96308 0.0
C393 C 0.56676 0.93012 0.88757 0.0
N394 N 0.57875 0.95555 0.91958 0.0
C395 C 0.62287 0.93967 0.92717 0.0
C396 C 0.61075 0.9129 0.89435 0.0
C397 C 0.58229 0.90868 0.87452 0.0
C398 C 0.6065 0.96073 0.93927 0.0
H399 H 0.54531 0.9268 0.87161 0.0
H400 H 0.61628 0.98147 0.96421 0.0
C401 C 0.56577 0.03963 0.03516 0.0
C402 C 0.43926 0.95048 0.08205 0.0
N403 N 0.4651 0.03429 0.06758 0.0
C404 C 0.47136 0.05775 0.10131 0.0
C405 C 0.4523 0.07628 0.11122 0.0
C406 C 0.42599 0.07064 0.08652 0.0
C407 C 0.42047 0.04633 0.05176 0.0
C408 C 0.4402 0.02859 0.04291 0.0
C409 C 0.58946 0.03216 0.88929 0.0
O410 O 0.49606 0.97389 0.9873 0.0
O411 O 0.499 0.9468 0.93017 0.0
O412 O 0.55488 0.02033 0.00238 0.0
O413 O 0.54689 0.03791 0.06139 0.0
O414 O 0.44059 0.94507 0.04683 0.0
O415 O 0.46151 0.97619 0.10348 0.0
O416 O 0.596 0.04224 0.92471 0.0
O417 O 0.56655 0.00381 0.87544 0.0
H418 H 0.49058 0.06149 0.12117 0.0
H419 H 0.43473 0.0092 0.01675 0.0
H420 H 0.53287 0.90273 0.05568 0.0
H421 H 0.58456 -0.00584 0.1425 0.0
H422 H 0.44971 0.99146 0.85741 0.0
H423 H 0.49776 0.07979 0.94936 0.0
H424 H 0.64455 0.94412 0.94363 0.0
H425 H 0.57216 0.88913 0.84859 0.0
H426 H 0.45816 0.09472 0.13819 0.0
H427 H 0.40029 0.03999 0.03175 0.0
Cd428 Cd 0.98804 0.49415 0.05396 0.0
Cd429 Cd 0.05158 0.49238 0.93708 0.0
C430 C 0.02378 0.47312 0.11135 0.0
N431 N 0.0198 0.47006 0.07439 0.0
C432 C 0.05005 0.43622 0.05982 0.0
C433 C 0.05453 0.43886 0.09791 0.0
C434 C 0.04068 0.45744 0.12364 0.0
C435 C 0.03233 0.45181 0.04864 0.0
H436 H 1.01353 0.48749 0.13145 0.0
H437 H 0.02867 0.44941 0.01932 0.0
C438 C 0.97688 0.45289 0.95503 0.0
C439 C 1.00549 0.505 0.88214 0.0
C440 C 0.98672 0.51941 0.87078 0.0
C441 C 0.97846 0.54267 0.89733 0.0
C442 C 0.98971 0.55074 0.93506 0.0
C443 C 1.00866 0.53588 0.94516 0.0
N444 N 1.01613 0.51344 0.91878 0.0
H445 H 1.01203 0.48743 0.86157 0.0
H446 H 1.01766 0.54247 0.9741 0.0
C447 C 0.07184 0.43435 0.88479 0.0
N448 N 0.07563 0.45164 0.92162 0.0
C449 C 0.11556 0.43152 0.93325 0.0
C450 C 0.1135 0.41517 0.89491 0.0
C451 C 0.09055 0.41621 0.87092 0.0
C452 C 0.0966 0.44993 0.946 0.0
H453 H 0.05556 0.43616 0.86553 0.0
H454 H 0.10003 0.46425 0.97505 0.0
C455 C 0.06487 0.53038 0.03913 0.0
C456 C 0.94033 0.45917 0.09516 0.0
N457 N 0.96823 0.53771 0.06644 0.0
C458 C 0.97654 0.5594 0.10144 0.0
C459 C 0.95941 0.57917 0.11536 0.0
C460 C 0.93338 0.57712 0.09321 0.0
C461 C 0.9267 0.55622 0.05627 0.0
C462 C 0.94427 0.53643 0.04351 0.0
C463 C 0.0958 0.53295 0.89749 0.0
O464 O 0.99059 0.4729 0.98657 0.0
O465 O 0.99386 0.45197 0.9272 0.0
O466 O 0.05261 0.51451 0.00566 0.0
O467 O 0.04623 0.53057 0.06545 0.0
O468 O 0.94139 0.44539 0.06079 0.0
O469 O 0.96053 0.48885 0.10917 0.0
O470 O 0.09585 0.5441 0.93275 0.0
O471 O 0.07614 0.50335 0.88182 0.0
H472 H 0.99494 0.55961 0.11973 0.0
H473 H 0.93717 0.51847 0.01618 0.0
H474 H 0.06043 0.42264 0.03879 0.0
H475 H 0.04243 0.45967 0.15316 0.0
H476 H 0.97931 0.51274 0.84129 0.0
H477 H 0.98376 0.56815 0.95668 0.0
H478 H 0.13314 0.43186 0.95281 0.0
H479 H 0.08803 0.40415 0.84117 0.0
H480 H 0.96527 0.59461 0.14411 0.0
H481 H 0.90649 0.55329 0.03841 0.0
Cd482 Cd 0.47949 0.45382 0.02569 0.0
Cd483 Cd 0.55028 0.52648 0.95922 0.0
C484 C 0.52025 0.42313 0.05069 0.0
N485 N 0.50929 0.42238 0.01689 0.0
C486 C 0.54011 0.39269 0.98577 0.0
C487 C 0.55304 0.39478 0.0206 0.0
C488 C 0.54191 0.40919 0.05322 0.0
C489 C 0.51836 0.40727 0.98455 0.0
H490 H 0.51298 0.43567 0.07593 0.0
H491 H 0.51019 0.40787 0.95808 0.0
C492 C 0.49146 0.46109 0.9405 0.0
C493 C 0.49144 0.53892 0.93334 0.0
C494 C 0.47396 0.55672 0.92897 0.0
C495 C 0.48291 0.58881 0.95246 0.0
C496 C 0.50794 0.60158 0.98153 0.0
C497 C 0.52364 0.58208 0.98614 0.0
N498 N 0.51541 0.5516 0.96176 0.0
H499 H 0.4873 0.5161 0.91229 0.0
H500 H 0.54395 0.59207 0.00728 0.0
C501 C 0.57227 0.47073 0.95555 0.0
N502 N 0.58202 0.5031 0.97403 0.0
C503 C 0.63168 0.5058 -0.00079 0.0
C504 C 0.62244 0.47268 0.97894 0.0
C505 C 0.59173 0.45476 0.95849 0.0
C506 C 0.61059 0.52078 0.99641 0.0
H507 H 0.55036 0.45774 0.93662 0.0
H508 H 0.61778 0.5468 0.01016 0.0
C509 C 0.54204 0.52977 0.05965 0.0
C510 C 0.44614 0.42777 0.08048 0.0
N511 N 0.44322 0.47235 0.01039 0.0
C512 C 0.45934 0.50309 0.00698 0.0
C513 C 0.44378 0.52403 0.01111 0.0
C514 C 0.41184 0.51398 0.02139 0.0
C515 C 0.39462 0.48101 0.02155 0.0
C516 C 0.41109 0.46029 0.01599 0.0
C517 C 0.59476 0.56855 0.92222 0.0
O518 O 0.50425 0.46878 0.97324 0.0
O519 O 0.50747 0.47701 0.91885 0.0
O520 O 0.549 0.53347 0.02743 0.0
O521 O 0.51918 0.50398 0.06362 0.0
O522 O 0.43932 0.41066 0.04607 0.0
O523 O 0.46752 0.45738 0.08847 0.0
O524 O 0.59055 0.57902 0.95629 0.0
O525 O 0.57978 0.53787 0.90604 0.0
H526 H 0.48524 0.51258 0.00492 0.0
H527 H 0.39941 0.43617 0.02028 0.0
H528 H 0.54797 0.38148 0.96002 0.0
H529 H 0.55038 0.41035 0.08066 0.0
H530 H 0.45569 0.54665 0.90537 0.0
H531 H 0.51623 0.62676 -0.00066 0.0
H532 H 0.65548 0.52024 0.0147 0.0
H533 H 0.5843 0.42931 0.9418 0.0
H534 H 0.45837 0.54938 0.01189 0.0
H535 H 0.3701 0.47264 0.02998 0.0
Cd536 Cd 0.99502 0.49882 0.55972 0.0
Cd537 Cd 0.06076 0.49662 0.44369 0.0
C538 C 0.05413 0.48771 0.59798 0.0
N539 N 0.028 0.47305 0.57174 0.0
C540 C 0.03236 0.42129 0.55917 0.0
C541 C 0.05902 0.4355 0.5864 0.0
C542 C 0.07036 0.46933 0.60547 0.0
C543 C 1.01726 0.4406 0.55218 0.0
H544 H 0.06188 0.51338 0.61378 0.0
H545 H 0.99625 0.42945 0.5318 0.0
C546 C 0.9834 0.45291 0.45777 0.0
C547 C 1.00901 0.50928 0.39317 0.0
C548 C 0.98906 0.52475 0.38706 0.0
C549 C 0.98707 0.55067 0.41607 0.0
C550 C 1.00606 0.56103 0.45009 0.0
C551 C 0.02577 0.54526 0.4548 0.0
N552 N 0.0266 0.51957 0.42687 0.0
H553 H 1.01016 0.4889 0.37124 0.0
H554 H 0.04037 0.55345 0.48103 0.0
C555 C 0.08439 0.44111 0.38734 0.0
N556 N 0.08397 0.45589 0.4243 0.0
C557 C 0.11843 0.43185 0.44066 0.0
C558 C 0.11945 0.41612 0.40268 0.0
C559 C 0.1018 0.42107 0.37596 0.0
C560 C 0.10061 0.45148 0.45078 0.0
H561 H 0.07177 0.44543 0.36647 0.0
H562 H 0.10092 0.46409 0.47994 0.0
C563 C 0.06682 0.53852 0.53884 0.0
C564 C 0.95504 0.46277 0.60594 0.0
N565 N 0.96823 0.53679 0.57095 0.0
C566 C 0.9742 0.55989 0.60491 0.0
C567 C 0.95556 0.57881 0.61468 0.0
C568 C 0.92998 0.57405 0.58956 0.0
C569 C 0.9248 0.55021 0.55444 0.0
C570 C 0.94409 0.53194 0.54577 0.0
C571 C 0.11025 0.54558 0.41856 0.0
O572 O 0.99286 0.4715 0.49121 0.0
O573 O 1.00377 0.455 0.43302 0.0
O574 O 0.05359 0.51344 0.51073 0.0
O575 O 0.05031 0.54267 0.56659 0.0
O576 O 0.94824 0.45328 0.57062 0.0
O577 O 0.97968 0.48984 0.61971 0.0
O578 O 0.11172 0.54553 0.45255 0.0
O579 O 0.08618 0.52254 0.39659 0.0
H580 H 0.99296 0.56309 0.62503 0.0
H581 H 0.93894 0.51299 0.51928 0.0
H582 H 0.02299 0.39532 0.54377 0.0
H583 H 0.09067 0.48106 0.62694 0.0
H584 H 0.97466 0.51595 0.36045 0.0
H585 H 1.00558 0.58115 0.47303 0.0
H586 H 0.13205 0.42993 0.46267 0.0
H587 H 0.10132 0.40957 0.34641 0.0
H588 H 0.96122 0.59693 0.64187 0.0
H589 H 0.90522 0.5447 0.53401 0.0
Cd590 Cd 0.49287 -0.00198 0.55584 0.0
Cd591 Cd 0.55618 -0.00633 0.43866 0.0
C592 C 0.54318 0.98138 0.60389 0.0
N593 N 0.52318 0.97127 0.57203 0.0
C594 C 0.53513 0.92383 0.54881 0.0
C595 C 0.55705 0.93412 0.58048 0.0
C596 C 0.56051 0.96303 0.6087 0.0
C597 C 0.51853 0.94279 0.54515 0.0
H598 H 0.54618 0.00393 0.62516 0.0
H599 H 0.50189 0.93483 0.5206 0.0
C600 C 0.48473 0.95557 0.46099 0.0
C601 C 0.50263 0.00164 0.38964 0.0
C602 C 0.48306 0.01552 0.37898 0.0
C603 C 0.48042 0.04329 0.40398 0.0
C604 C 0.49815 0.0564 0.43942 0.0
C605 C 0.51776 0.04189 0.44878 0.0
N606 N 0.51958 0.01495 0.42399 0.0
H607 H 0.5048 0.98053 0.37015 0.0
H608 H 0.5318 0.05234 0.47578 0.0
C609 C 0.58252 0.93929 0.38831 0.0
N610 N 0.58208 0.95515 0.42484 0.0
C611 C 0.61897 0.93451 0.44311 0.0
C612 C 0.62109 0.91894 0.40539 0.0
C613 C 0.6018 0.92119 0.37799 0.0
C614 C 0.59962 0.95269 0.45216 0.0
H615 H 0.56884 0.94173 0.36678 0.0
H616 H 0.59943 0.96567 0.48104 0.0
C617 C 0.57164 0.0348 0.54099 0.0
C618 C 0.44308 0.94891 0.58066 0.0
N619 N 0.47105 0.03984 0.57487 0.0
C620 C 0.48964 0.07161 0.59476 0.0
C621 C 0.47523 0.09394 0.6093 0.0
C622 C 0.44111 0.08376 0.60396 0.0
C623 C 0.42277 0.05109 0.58209 0.0
C624 C 0.4382 0.02958 0.56794 0.0
C625 C 0.59417 0.0315 0.39308 0.0
O626 O 0.49894 0.98066 0.48878 0.0
O627 O 0.50049 0.95062 0.43277 0.0
O628 O 0.56008 0.01851 0.50739 0.0
O629 O 0.55239 0.03497 0.5668 0.0
O630 O 0.4429 0.94803 0.54627 0.0
O631 O 0.46553 0.97347 0.60332 0.0
O632 O 0.6012 0.04179 0.42845 0.0
O633 O 0.57111 0.00323 0.37965 0.0
H634 H 0.51563 0.07949 0.60029 0.0
H635 H 0.42364 0.00419 0.55239 0.0
H636 H 0.53089 0.90128 0.52679 0.0
H637 H 0.57712 0.97189 0.63359 0.0
H638 H 0.47063 0.00484 0.35105 0.0
H639 H 0.49676 0.07751 0.45986 0.0
H640 H 0.63247 0.93317 0.46569 0.0
H641 H 0.60249 0.91026 0.34856 0.0
H642 H 0.49081 0.11893 0.62517 0.0
H643 H 0.39652 0.04168 0.57724 0.0
H644 H 0.17211 0.13059 0.25513 0.0
H645 H 0.23091 0.22391 0.33587 0.0
H646 H 0.20218 0.20395 0.38677 0.0
H647 H 0.09625 0.11581 0.3014 0.0
H648 H 0.08491 0.07203 0.29081 0.0
H649 H 0.10872 0.09429 0.25997 0.0
H650 H 0.15284 0.07282 0.26641 0.0
H651 H 0.12931 0.05071 0.29747 0.0
H652 H 0.1709 0.07999 0.31225 0.0
H653 H 0.16973 0.17395 0.42916 0.0
H654 H 0.13343 0.13522 0.46141 0.0
H655 H 0.09508 0.06037 0.35436 0.0
C656 C 0.17838 0.14679 0.28351 0.0
C657 C 0.20331 0.17891 0.2918 0.0
C658 C 0.21154 0.19943 0.3291 0.0
C659 C 0.19543 0.18827 0.35819 0.0
C660 C 0.17118 0.15644 0.34946 0.0
C661 C 0.16246 0.13592 0.31313 0.0
C662 C 0.13613 0.10242 0.31203 0.0
C663 C 0.10463 0.09576 0.28974 0.0
C664 C 0.14802 0.07487 0.2961 0.0
C665 C 0.13192 0.10741 0.35342 0.0
C666 C 0.15235 0.13881 0.37436 0.0
C667 C 0.15341 0.14929 0.41317 0.0
C668 C 0.13279 0.12712 0.43124 0.0
C669 C 0.11148 0.09484 0.41047 0.0
C670 C 0.11114 0.08491 0.37103 0.0
H671 H 0.84562 0.1483 0.39293 0.0
H672 H 0.90317 0.16397 0.29955 0.0
H673 H 0.94309 0.14906 0.32503 0.0
H674 H 0.91191 0.1785 0.4625 0.0
H675 H 0.89452 0.14757 0.48639 0.0
H676 H 0.86826 0.15895 0.46285 0.0
H677 H 0.83644 0.09901 0.42198 0.0
H678 H 0.86035 0.08642 0.4472 0.0
H679 H 0.8585 0.07582 0.39692 0.0
H680 H 0.9786 0.1383 0.36186 0.0
H681 H 1.00151 0.11441 0.39894 0.0
H682 H 0.91905 0.09873 0.46538 0.0
C683 C 0.86636 0.14788 0.37773 0.0
C684 C 0.87159 0.15703 0.34438 0.0
C685 C 0.89884 0.15656 0.32495 0.0
C686 C 0.9218 0.14866 0.33943 0.0
C687 C 0.91673 0.14091 0.373 0.0
C688 C 0.88923 0.13912 0.3913 0.0
C689 C 0.88918 0.12775 0.42563 0.0
C690 C 0.89103 0.15482 0.46145 0.0
C691 C 0.85935 0.09531 0.42273 0.0
C692 C 0.9206 0.12283 0.42301 0.0
C693 C 0.93656 0.13202 0.39326 0.0
C694 C 0.96627 0.13057 0.38498 0.0
C695 C 0.97912 0.11724 0.40628 0.0
C696 C 0.96163 0.10458 0.43445 0.0
C697 C 0.93274 0.10855 0.44412 0.0
H698 H 0.86803 0.80186 0.313 0.0
H699 H 0.81725 0.85657 0.28604 0.0
H700 H 0.84193 0.90042 0.34491 0.0
H701 H 0.86113 0.83504 0.42364 0.0
H702 H 0.8991 0.83272 0.43307 0.0
H703 H 0.87004 0.80159 0.3951 0.0
H704 H 0.91437 0.81264 0.34944 0.0
H705 H 0.94349 0.84368 0.38654 0.0
H706 H 0.93571 0.85393 0.34557 0.0
H707 H 0.88484 0.94288 0.38969 0.0
H708 H 0.93953 0.97943 0.42114 0.0
H709 H 0.95585 0.89549 0.43017 0.0
C710 C 0.86041 0.82199 0.32076 0.0
C711 C 0.84041 0.82556 0.29551 0.0
C712 C 0.83273 0.85342 0.30501 0.0
C713 C 0.84596 0.87804 0.33879 0.0
C714 C 0.86566 0.8737 0.36323 0.0
C715 C 0.87184 0.84567 0.35531 0.0
C716 C 0.89713 0.84886 0.38373 0.0
C717 C 0.88087 0.82835 0.41047 0.0
C718 C 0.92427 0.83928 0.36515 0.0
C719 C 0.90914 0.88528 0.40366 0.0
C720 C 0.88946 0.89873 0.39274 0.0
C721 C 0.89956 0.93263 0.39991 0.0
C722 C 0.93089 0.95316 0.41698 0.0
C723 C 0.95118 0.93973 0.4278 0.0
C724 C 0.93987 0.90577 0.42279 0.0
H725 H 0.09693 0.78812 0.40798 0.0
H726 H 0.15073 0.81901 0.3174 0.0
H727 H 0.16702 0.87693 0.35282 0.0
H728 H 0.06388 0.84845 0.42329 0.0
H729 H 0.06375 0.85428 0.47297 0.0
H730 H 0.06085 0.81559 0.44227 0.0
H731 H 0.11139 0.82212 0.4818 0.0
H732 H 0.11477 0.86181 0.51092 0.0
H733 H 0.14904 0.8581 0.48713 0.0
H734 H 0.17745 0.93065 0.39558 0.0
H735 H 0.16399 0.97626 0.43236 0.0
H736 H 0.09878 0.91144 0.49067 0.0
C737 C 0.11199 0.80723 0.39583 0.0
C738 C 0.12272 0.7993 0.36027 0.0
C739 C 0.14209 0.82471 0.34468 0.0
C740 C 0.1522 0.8577 0.36488 0.0
C741 C 0.14253 0.86494 0.40053 0.0
C742 C 0.12165 0.84062 0.41528 0.0
C743 C 0.10988 0.85551 0.45091 0.0
C744 C 0.0724 0.84274 0.4471 0.0
C745 C 0.12201 0.84898 0.48468 0.0
C746 C 0.12659 0.89167 0.45281 0.0
C747 C 0.14678 0.89666 0.42466 0.0
C748 C 0.1623 0.92741 0.41836 0.0
C749 C 0.15493 0.9533 0.43965 0.0
C750 C 0.13142 0.94747 0.46546 0.0
C751 C 0.11853 0.91701 0.4734 0.0
H752 H 0.12829 0.84034 0.67876 0.0
H753 H 0.22716 0.88008 0.64853 0.0
H754 H 0.21037 0.90681 0.60824 0.0
H755 H 0.08748 0.82281 0.58867 0.0
H756 H 0.0553 0.83385 0.60906 0.0
H757 H 0.07574 0.81755 0.63371 0.0
H758 H 0.08985 0.86933 0.69121 0.0
H759 H 0.06981 0.88593 0.66653 0.0
H760 H 0.11178 0.90978 0.68544 0.0
H761 H 0.18228 0.93302 0.57591 0.0
H762 H 0.14462 0.95079 0.54932 0.0
H763 H 0.06497 0.89024 0.5998 0.0
C764 C 0.14639 0.85466 0.66362 0.0
C765 C 0.17895 0.85875 0.66688 0.0
C766 C 0.20203 0.87701 0.64626 0.0
C767 C 0.19274 0.89223 0.62352 0.0
C768 C 0.16033 0.88829 0.62161 0.0
C769 C 0.13752 0.86951 0.64078 0.0
C770 C 0.10435 0.86892 0.63467 0.0
C771 C 0.07925 0.83369 0.61536 0.0
C772 C 0.09332 0.88442 0.67165 0.0
C773 C 0.11183 0.89042 0.60909 0.0
C774 C 0.14422 0.90179 0.60201 0.0
C775 C 0.15676 0.92371 0.58069 0.0
C776 C 0.13532 0.93368 0.56579 0.0
C777 C 0.10187 0.92093 0.5717 0.0
C778 C 0.09028 0.89947 0.59397 0.0
H779 H 0.19843 0.16589 0.65293 0.0
H780 H 0.16791 0.16478 0.76392 0.0
H781 H 0.11215 0.12458 0.73499 0.0
H782 H 0.12778 0.1682 0.61863 0.0
H783 H 0.12864 0.14415 0.57185 0.0
H784 H 0.16609 0.16982 0.60151 0.0
H785 H 0.18073 0.11929 0.59345 0.0
H786 H 0.14415 0.09414 0.56242 0.0
H787 H 0.15124 0.08258 0.60259 0.0
H788 H 0.05986 0.08417 0.69152 0.0
H789 H 1.01833 0.04507 0.6392 0.0
H790 H 0.08504 0.08095 0.55993 0.0
C791 C 0.18036 0.15733 0.67163 0.0
C792 C 0.18742 0.16871 0.71073 0.0
C793 C 0.1629 0.15634 0.73378 0.0
C794 C 0.13123 0.1338 0.71763 0.0
C795 C 0.12492 0.1247 0.67878 0.0
C796 C 0.14906 0.1361 0.65634 0.0
C797 C 0.13679 0.12427 0.61569 0.0
C798 C 0.14001 0.15333 0.60107 0.0
C799 C 0.15424 0.10384 0.59219 0.0
C800 C 0.10177 0.10325 0.6181 0.0
C801 C 0.09512 0.10374 0.6546 0.0
C802 C 0.06478 0.08395 0.66299 0.0
C803 C 0.04136 0.06198 0.63314 0.0
C804 C 0.04868 0.06019 0.59566 0.0
C805 C 0.07862 0.0822 0.58828 0.0
H806 H 0.93755 0.18883 0.63798 0.0
H807 H 0.8432 0.16276 0.58286 0.0
H808 H 0.85124 0.12031 0.53221 0.0
H809 H 0.97853 0.15846 0.54933 0.0
H810 H 0.99693 0.14233 0.57689 0.0
H811 H 0.99215 0.18019 0.59794 0.0
H812 H 0.96167 0.15624 0.64912 0.0
H813 H 0.96503 0.11803 0.62879 0.0
H814 H 0.92535 0.11831 0.63615 0.0
H815 H 0.8567 0.06859 0.50725 0.0
H816 H 0.86409 0.01773 0.50347 0.0
H817 H 0.95627 0.07642 0.57187 0.0
C818 C 0.91984 0.17594 0.61371 0.0
C819 C 0.88968 0.1784 0.61433 0.0
C820 C 0.86644 0.16081 0.58279 0.0
C821 C 0.87083 0.1366 0.55395 0.0
C822 C 0.89887 0.1311 0.55689 0.0
C823 C 0.92368 0.15115 0.58543 0.0
C824 C 0.94703 0.13561 0.5884 0.0
C825 C 0.98066 0.15528 0.57742 0.0
C826 C 0.94985 0.13181 0.62789 0.0
C827 C 0.9298 0.10256 0.5597 0.0
C828 C 0.90243 0.10049 0.54126 0.0
C829 C 0.87884 0.07021 0.52004 0.0
C830 C 0.88302 0.0414 0.5183 0.0
C831 C 0.91042 0.04328 0.53797 0.0
C832 C 0.93475 0.07431 0.5571 0.0
H833 H 0.87717 0.84661 0.73825 0.0
H834 H 0.8059 0.7577 0.66187 0.0
H835 H 0.83483 0.77215 0.60848 0.0
H836 H 0.88438 0.89771 0.68244 0.0
H837 H 0.92756 0.92206 0.69395 0.0
H838 H 0.90366 0.90259 0.72669 0.0
H839 H 0.94199 0.87319 0.72821 0.0
H840 H 0.96596 0.89258 0.6953 0.0
H841 H 0.9489 0.84829 0.6851 0.0
H842 H 0.86725 0.79907 0.56312 0.0
H843 H 0.90178 0.83737 0.52892 0.0
H844 H 0.95275 0.90792 0.63467 0.0
C845 C 0.86825 0.83002 0.71029 0.0
C846 C 0.83945 0.80114 0.70382 0.0
C847 C 0.8279 0.78002 0.6671 0.0
C848 C 0.84428 0.78789 0.63665 0.0
C849 C 0.87233 0.81689 0.64359 0.0
C850 C 0.88439 0.8376 0.67947 0.0
C851 C 0.91342 0.8686 0.67881 0.0
C852 C 0.90684 0.89955 0.6965 0.0
C853 C 0.9444 0.87077 0.69799 0.0
C854 C 0.91502 0.86236 0.63707 0.0
C855 C 0.89135 0.83229 0.6172 0.0
C856 C 0.88639 0.82246 0.57825 0.0
C857 C 0.90598 0.84429 0.55908 0.0
C858 C 0.92994 0.87541 0.57915 0.0
C859 C 0.93487 0.88409 0.61849 0.0
H860 H 0.3329 0.17065 0.22157 0.0
H861 H 0.28903 0.17442 0.122 0.0
H862 H 0.31817 0.14337 0.08281 0.0
H863 H 0.41087 0.18021 0.19094 0.0
H864 H 0.41538 0.15125 0.2119 0.0
H865 H 0.3907 0.1731 0.23195 0.0
H866 H 0.3415 0.11784 0.22645 0.0
H867 H 0.36599 0.09569 0.20664 0.0
H868 H 0.32807 0.08675 0.18176 0.0
H869 H 0.35549 0.11478 0.05467 0.0
H870 H 0.39278 0.08704 0.03936 0.0
H871 H 0.40948 0.09781 0.1572 0.0
C872 C 0.32918 0.16474 0.19147 0.0
C873 C 0.30851 0.17511 0.17493 0.0
C874 C 0.30436 0.16662 0.13542 0.0
C875 C 0.32104 0.14912 0.11294 0.0
C876 C 0.34151 0.13968 0.1302 0.0
C877 C 0.34517 0.14675 0.16861 0.0
C878 C 0.368 0.13317 0.18025 0.0
C879 C 0.39802 0.16111 0.20523 0.0
C880 C 0.3498 0.10679 0.19993 0.0
C881 C 0.3773 0.11795 0.14243 0.0
C882 C 0.36182 0.1221 0.11398 0.0
C883 C 0.36722 0.11095 0.07678 0.0
C884 C 0.38847 0.09483 0.06832 0.0
C885 C 0.40421 0.0893 0.09671 0.0
C886 C 0.39838 0.10145 0.13444 0.0
H887 H 0.83658 0.30518 0.16948 0.0
H888 H 0.80942 0.37204 0.25592 0.0
H889 H 0.84434 0.4188 0.23262 0.0
H890 H 0.92153 0.36423 0.16918 0.0
H891 H 0.92122 0.34884 0.11928 0.0
H892 H 0.89668 0.32158 0.14515 0.0
H893 H 0.84536 0.3069 0.10199 0.0
H894 H 0.86961 0.33441 0.07631 0.0
H895 H 0.83475 0.33949 0.09721 0.0
H896 H 0.88065 0.45751 0.19873 0.0
H897 H 0.91531 0.48585 0.15593 0.0
H898 H 0.91633 0.39315 0.08901 0.0
C899 C 0.83837 0.3298 0.18354 0.0
C900 C 0.82052 0.33542 0.21424 0.0
C901 C 0.82301 0.36762 0.23218 0.0
C902 C 0.84279 0.39419 0.21924 0.0
C903 C 0.85969 0.38787 0.18831 0.0
C904 C 0.85778 0.35652 0.17074 0.0
C905 C 0.8773 0.35622 0.13709 0.0
C906 C 0.90587 0.34718 0.14304 0.0
C907 C 0.85544 0.33287 0.10102 0.0
C908 C 0.8894 0.392 0.1376 0.0
C909 C 0.87957 0.40996 0.16787 0.0
C910 C 0.88839 0.44369 0.17486 0.0
C911 C 0.90795 0.45952 0.15037 0.0
C912 C 0.91793 0.44151 0.11893 0.0
C913 C 0.9084 0.4073 0.1124 0.0
H914 H 0.65654 0.82808 0.08707 0.0
H915 H 0.67388 0.86442 0.20822 0.0
H916 H 0.64435 0.89932 0.20896 0.0
H917 H 0.6649 0.90366 0.07085 0.0
H918 H 0.63231 0.88454 0.03369 0.0
H919 H 0.6547 0.86192 0.04215 0.0
H920 H 0.6008 0.81515 0.04919 0.0
H921 H 0.57827 0.83764 0.04065 0.0
H922 H 0.57405 0.8249 0.08257 0.0
H923 H 0.61345 0.93087 0.1972 0.0
H924 H 0.58214 0.95611 0.17377 0.0
H925 H 0.58417 0.89998 0.06 0.0
C926 C 0.65388 0.8431 0.11382 0.0
C927 C 0.6681 0.8436 0.1476 0.0
C928 C 0.66406 0.86396 0.18185 0.0
C929 C 0.64704 0.88378 0.18263 0.0
C930 C 0.63376 0.88298 0.14895 0.0
C931 C 0.63675 0.86306 0.11515 0.0
C932 C 0.61996 0.86695 0.08306 0.0
C933 C 0.64443 0.88005 0.05584 0.0
C934 C 0.59158 0.83421 0.06267 0.0
C935 C 0.60752 0.89247 0.10417 0.0
C936 C 0.6157 0.90122 0.14214 0.0
C937 C 0.60699 0.92428 0.16748 0.0
C938 C 0.5894 0.93877 0.15377 0.0
C939 C 0.58071 0.93046 0.11489 0.0
C940 C 0.59001 0.90683 0.08989 0.0
H941 H 0.21563 0.69367 0.11438 0.0
H942 H 0.23649 0.64617 0.18923 0.0
H943 H 0.20142 0.59168 0.14725 0.0
H944 H 0.13743 0.64995 0.09708 0.0
H945 H 0.13222 0.64533 0.04787 0.0
H946 H 0.16646 0.67941 0.07649 0.0
H947 H 0.2055 0.66184 0.03235 0.0
H948 H 0.17108 0.6273 0.00365 0.0
H949 H 0.20337 0.62057 0.02271 0.0
H950 H 0.15504 0.54611 0.10959 0.0
H951 H 0.09952 0.51214 0.07851 0.0
H952 H 0.10757 0.58608 0.02432 0.0
C953 C 0.21407 0.67154 0.12047 0.0
C954 C 0.2293 0.67359 0.1541 0.0
C955 C 0.22567 0.64465 0.16283 0.0
C956 C 0.20592 0.61367 0.13908 0.0
C957 C 0.19026 0.61212 0.1065 0.0
C958 C 0.19443 0.64023 0.09669 0.0
C959 C 0.17065 0.63188 0.06349 0.0
C960 C 0.1505 0.65287 0.0718 0.0
C961 C 0.18873 0.63562 0.02848 0.0
C962 C 0.14987 0.59581 0.05964 0.0
C963 C 0.16264 0.58462 0.08359 0.0
C964 C 0.14543 0.55401 0.08963 0.0
C965 C 0.11391 0.53493 0.07203 0.0
C966 C 0.10006 0.5465 0.04868 0.0
C967 C 0.11852 0.57654 0.04112 0.0
H968 H 0.31264 0.84619 0.85822 0.0
H969 H 0.32643 0.76093 0.86808 0.0
H970 H 0.3686 0.79656 0.92037 0.0
H971 H 0.38732 0.89576 0.86371 0.0
H972 H 0.38613 0.93377 0.89214 0.0
H973 H 0.34979 0.90145 0.86551 0.0
H974 H 0.3198 0.90102 0.92559 0.0
H975 H 0.35629 0.93381 0.95257 0.0
H976 H 0.3371 0.89605 0.96526 0.0
H977 H 0.41922 0.84092 0.95485 0.0
H978 H 0.47151 0.89022 0.97107 0.0
H979 H 0.42505 0.94783 0.94284 0.0
C980 C 0.32352 0.83487 0.87252 0.0
C981 C 0.31665 0.80092 0.85872 0.0
C982 C 0.33157 0.78696 0.87785 0.0
C983 C 0.35538 0.80701 0.90792 0.0
C984 C 0.36345 0.84086 0.91914 0.0
C985 C 0.3473 0.85465 0.90271 0.0
C986 C 0.36398 0.89202 0.91558 0.0
C987 C 0.37232 0.90654 0.88226 0.0
C988 C 0.34304 0.90658 0.94128 0.0
C989 C 0.39425 0.89684 0.93758 0.0
C990 C 0.39284 0.86713 0.94072 0.0
C991 C 0.4201 0.8645 0.95412 0.0
C992 C 0.44971 0.8925 0.96317 0.0
C993 C 0.45159 0.92258 0.95901 0.0
C994 C 0.42345 0.92514 0.94747 0.0
H995 H 0.20675 0.29103 0.84745 0.0
H996 H 0.24866 0.33801 0.7617 0.0
H997 H 0.22342 0.37739 0.78373 0.0
H998 H 0.13038 0.29616 0.84053 0.0
H999 H 0.12526 0.3054 0.88979 0.0
H1000 H 0.14933 0.28259 0.87063 0.0
H1001 H 0.19847 0.32553 0.91775 0.0
H1002 H 0.17444 0.34836 0.93725 0.0
H1003 H 0.21296 0.36858 0.92033 0.0
H1004 H 0.19037 0.40867 0.81002 0.0
H1005 H 0.15224 0.43162 0.8408 0.0
H1006 H 0.1297 0.36681 0.91155 0.0
C1007 C 0.21109 0.31007 0.83392 0.0
C1008 C 0.22986 0.31127 0.80263 0.0
C1009 C 0.23438 0.3363 0.78543 0.0
C1010 C 0.22015 0.35895 0.79785 0.0
C1011 C 0.20109 0.35662 0.82776 0.0
C1012 C 0.19659 0.33307 0.84593 0.0
C1013 C 0.17336 0.33549 0.87625 0.0
C1014 C 0.14277 0.30297 0.86885 0.0
C1015 C 0.19085 0.34506 0.91521 0.0
C1016 C 0.165 0.36336 0.87141 0.0
C1017 C 0.18165 0.37516 0.84335 0.0
C1018 C 0.1774 0.39979 0.83223 0.0
C1019 C 0.15549 0.41263 0.84983 0.0
C1020 C 0.13774 0.40119 0.87862 0.0
C1021 C 0.14301 0.37638 0.88989 0.0
H1022 H 0.71296 0.19401 0.84034 0.0
H1023 H 0.68811 0.13694 0.72366 0.0
H1024 H 0.64691 0.08976 0.7415 0.0
H1025 H 0.71019 0.12802 0.87239 0.0
H1026 H 0.69394 0.14012 0.91585 0.0
H1027 H 0.71826 0.17083 0.89392 0.0
H1028 H 0.67158 0.19025 0.89371 0.0
H1029 H 0.64722 0.1598 0.91603 0.0
H1030 H 0.63144 0.16063 0.87267 0.0
H1031 H 0.61075 0.04838 0.77203 0.0
H1032 H 0.58312 0.01417 0.81307 0.0
H1033 H 0.63412 0.09684 0.91059 0.0
C1034 C 0.69836 0.17168 0.8187 0.0
C1035 C 0.70317 0.1688 0.78072 0.0
C1036 C 0.68445 0.13926 0.7529 0.0
C1037 C 0.66102 0.11253 0.76278 0.0
C1038 C 0.6572 0.11575 0.8006 0.0
C1039 C 0.67544 0.14448 0.82818 0.0
C1040 C 0.66859 0.14046 0.8668 0.0
C1041 C 0.69959 0.14513 0.88851 0.0
C1042 C 0.65382 0.16419 0.88857 0.0
C1043 C 0.64384 0.10492 0.85663 0.0
C1044 C 0.63734 0.09131 0.8183 0.0
C1045 C 0.61561 0.05874 0.80208 0.0
C1046 C 0.60013 0.03948 0.82565 0.0
C1047 C 0.60667 0.05276 0.86502 0.0
C1048 C 0.6288 0.08595 0.88061 0.0
H1049 H 0.91582 0.68438 0.89973 0.0
H1050 H 0.84776 0.61369 0.80431 0.0
H1051 H 0.86885 0.57264 0.80677 0.0
H1052 H 0.98314 0.66027 0.87127 0.0
H1053 H 0.99748 0.66614 0.91839 0.0
H1054 H 0.97705 0.69041 0.90965 0.0
H1055 H 0.93531 0.67077 0.95607 0.0
H1056 H 0.9555 0.6463 0.96476 0.0
H1057 H 0.91259 0.62716 0.94928 0.0
H1058 H 0.89509 0.5382 0.82052 0.0
H1059 H 0.92769 0.51334 0.84213 0.0
H1060 H 0.98219 0.60664 0.92606 0.0
C1061 C 0.90555 0.66039 0.87912 0.0
C1062 C 0.87956 0.65226 0.85223 0.0
C1063 C 0.86693 0.62043 0.82588 0.0
C1064 C 0.87894 0.59691 0.82683 0.0
C1065 C 0.90398 0.60548 0.85401 0.0
C1066 C 0.91748 0.63652 0.87945 0.0
C1067 C 0.94458 0.63918 0.90543 0.0
C1068 C 0.97751 0.66556 0.9009 0.0
C1069 C 0.93649 0.64627 0.9463 0.0
C1070 C 0.94383 0.60468 0.89072 0.0
C1071 C 0.92012 0.58574 0.86114 0.0
C1072 C 0.91408 0.55291 0.84332 0.0
C1073 C 0.93298 0.53905 0.85571 0.0
C1074 C 0.95803 0.55796 0.88551 0.0
C1075 C 0.96325 0.59129 0.90333 0.0
H1076 H 0.1279 0.30367 0.0904 0.0
H1077 H 0.17016 0.36062 0.20437 0.0
H1078 H 0.14725 0.40014 0.20238 0.0
H1079 H 0.13943 0.37277 0.05614 0.0
H1080 H 0.101 0.35282 0.02763 0.0
H1081 H 0.1211 0.32847 0.03694 0.0
H1082 H 0.06936 0.29416 0.06337 0.0
H1083 H 0.04909 0.31832 0.05396 0.0
H1084 H 0.05213 0.31498 0.10049 0.0
H1085 H 0.12213 0.43508 0.18828 0.0
H1086 H 0.0926 0.46148 0.16445 0.0
H1087 H 0.06146 0.38054 0.06129 0.0
C1088 C 0.13211 0.32421 0.11513 0.0
C1089 C 0.15142 0.32885 0.14748 0.0
C1090 C 0.1563 0.35648 0.1789 0.0
C1091 C 0.14315 0.37917 0.17818 0.0
C1092 C 0.12474 0.37407 0.14594 0.0
C1093 C 0.11885 0.34719 0.11504 0.0
C1094 C 0.09764 0.34762 0.08423 0.0
C1095 C 0.11589 0.3506 0.04916 0.0
C1096 C 0.06512 0.31695 0.07498 0.0
C1097 C 0.09259 0.37888 0.10289 0.0
C1098 C 0.10878 0.39378 0.13833 0.0
C1099 C 0.10886 0.42337 0.1608 0.0
C1100 C 0.09161 0.43805 0.147 0.0
C1101 C 0.0738 0.42301 0.11114 0.0
C1102 C 0.07468 0.39299 0.08876 0.0
H1103 H 0.19564 0.69707 0.83764 0.0
H1104 H 0.21374 0.63332 0.73814 0.0
H1105 H 0.18111 0.58477 0.75874 0.0
H1106 H 0.2023 0.65466 0.90034 0.0
H1107 H 0.16984 0.65928 0.92738 0.0
H1108 H 0.19228 0.68939 0.90379 0.0
H1109 H 0.13857 0.68005 0.86913 0.0
H1110 H 0.11589 0.65021 0.893 0.0
H1111 H 0.11153 0.63885 0.84266 0.0
H1112 H 0.14832 0.54334 0.79009 0.0
H1113 H 0.11658 0.51085 0.83097 0.0
H1114 H 0.12102 0.6006 0.91216 0.0
C1115 C 0.19232 0.67284 0.82001 0.0
C1116 C 0.20731 0.66901 0.7863 0.0
C1117 C 0.20269 0.63693 0.76416 0.0
C1118 C 0.1841 0.60914 0.77556 0.0
C1119 C 0.17031 0.61375 0.80925 0.0
C1120 C 0.17399 0.64468 0.83117 0.0
C1121 C 0.15734 0.64255 0.8668 0.0
C1122 C 0.18192 0.66266 0.90163 0.0
C1123 C 0.12916 0.65357 0.86796 0.0
C1124 C 0.14465 0.60576 0.86184 0.0
C1125 C 0.15202 0.58966 0.82811 0.0
C1126 C 0.14241 0.55562 0.81661 0.0
C1127 C 0.12447 0.5374 0.84005 0.0
C1128 C 0.11669 0.55327 0.87482 0.0
C1129 C 0.12714 0.58794 0.88598 0.0
H1130 H 0.41239 0.17599 0.8776 0.0
H1131 H 0.31574 0.09695 0.84318 0.0
H1132 H 0.33653 0.05723 0.85146 0.0
H1133 H 0.45648 0.12653 0.83108 0.0
H1134 H 0.48963 0.14582 0.86759 0.0
H1135 H 0.46753 0.16865 0.85894 0.0
H1136 H 0.45505 0.18079 0.92816 0.0
H1137 H 0.47703 0.1579 0.93693 0.0
H1138 H 0.4353 0.14695 0.94764 0.0
H1139 H 0.36656 0.02581 0.86473 0.0
H1140 H 0.40494 0.00421 0.88037 0.0
H1141 H 0.48336 0.10215 0.90412 0.0
C1142 C 0.39568 0.15029 0.87147 0.0
C1143 C 0.36217 0.13986 0.86024 0.0
C1144 C 0.34125 0.1059 0.85267 0.0
C1145 C 0.35287 0.08299 0.85705 0.0
C1146 C 0.38569 0.09409 0.86875 0.0
C1147 C 0.40695 0.12684 0.87564 0.0
C1148 C 0.44117 0.13189 0.88784 0.0
C1149 C 0.46512 0.14393 0.85968 0.0
C1150 C 0.45281 0.1558 0.9275 0.0
C1151 C 0.43555 0.09695 0.88702 0.0
C1152 C 0.40334 0.07562 0.87586 0.0
C1153 C 0.39194 0.0422 0.87319 0.0
C1154 C 0.41404 0.03011 0.88194 0.0
C1155 C 0.44735 0.05127 0.8932 0.0
C1156 C 0.45808 0.08525 0.89586 0.0
H1157 H 0.81279 0.35082 0.83129 0.0
H1158 H 0.80052 0.27471 0.88389 0.0
H1159 H 0.84109 0.316 0.93577 0.0
H1160 H 0.89052 0.38306 0.83926 0.0
H1161 H 0.89879 0.42624 0.84965 0.0
H1162 H 0.86067 0.39574 0.8251 0.0
H1163 H 0.8286 0.41885 0.87465 0.0
H1164 H 0.86667 0.45065 0.89922 0.0
H1165 H 0.83781 0.42451 0.92337 0.0
H1166 H 0.89152 0.36107 0.97251 0.0
H1167 H 0.94762 0.40491 0.98904 0.0
H1168 H 0.92973 0.45008 0.90966 0.0
C1169 C 0.81732 0.34326 0.85479 0.0
C1170 C 0.80344 0.30974 0.85382 0.0
C1171 C 0.81079 0.30039 0.88431 0.0
C1172 C 0.83369 0.32375 0.914 0.0
C1173 C 0.84887 0.35631 0.91281 0.0
C1174 C 0.84062 0.36619 0.88416 0.0
C1175 C 0.86462 0.4006 0.88511 0.0
C1176 C 0.87954 0.40139 0.84759 0.0
C1177 C 0.84846 0.4251 0.89626 0.0
C1178 C 0.8895 0.40696 0.91594 0.0
C1179 C 0.87921 0.382 0.93299 0.0
C1180 C 0.89945 0.38114 0.96004 0.0
C1181 C 0.93121 0.40596 0.96919 0.0
C1182 C 0.94242 0.43048 0.95048 0.0
C1183 C 0.92121 0.43148 0.92434 0.0
H1184 H 0.75391 0.84615 0.83761 0.0
H1185 H 0.67431 0.75188 0.7848 0.0
H1186 H 0.63476 0.77423 0.81034 0.0
H1187 H 0.71286 0.87136 0.92226 0.0
H1188 H 0.72812 0.91382 0.92209 0.0
H1189 H 0.75147 0.88981 0.90453 0.0
H1190 H 0.75268 0.9033 0.84176 0.0
H1191 H 0.72918 0.92715 0.85898 0.0
H1192 H 0.71485 0.89373 0.81618 0.0
H1193 H 0.60288 0.80581 0.83715 0.0
H1194 H 0.57968 0.84619 0.86278 0.0
H1195 H 0.67733 0.92374 0.89597 0.0
C1196 C 0.7282 0.83003 0.83273 0.0
C1197 C 0.71744 0.79648 0.81065 0.0
C1198 C 0.68342 0.77693 0.80309 0.0
C1199 C 0.66057 0.78957 0.81717 0.0
C1200 C 0.67164 0.82244 0.83834 0.0
C1201 C 0.70455 0.84268 0.84613 0.0
C1202 C 0.70897 0.87795 0.86702 0.0
C1203 C 0.7264 0.88888 0.90631 0.0
C1204 C 0.72753 0.90195 0.84464 0.0
C1205 C 0.67352 0.87411 0.86906 0.0
C1206 C 0.65267 0.84164 0.85256 0.0
C1207 C 0.61895 0.83138 0.8501 0.0
C1208 C 0.60595 0.85477 0.86454 0.0
C1209 C 0.62633 0.8886 0.8811 0.0
C1210 C 0.66081 0.89819 0.88374 0.0
H1211 H 0.8335 0.6955 0.13958 0.0
H1212 H 0.7966 0.64904 0.22745 0.0
H1213 H 0.82609 0.61413 0.20765 0.0
H1214 H 0.82793 0.61547 0.07047 0.0
H1215 H 0.86412 0.63547 0.04953 0.0
H1216 H 0.83906 0.65714 0.06896 0.0
H1217 H 0.88925 0.70448 0.111 0.0
H1218 H 0.91439 0.68286 0.09198 0.0
H1219 H 0.91226 0.69534 0.14178 0.0
H1220 H 0.86339 0.58824 0.18507 0.0
H1221 H 0.90146 0.56582 0.15327 0.0
H1222 H 0.91285 0.62186 0.0741 0.0
C1223 C 0.83105 0.67745 0.15401 0.0
C1224 C 0.81284 0.67591 0.18579 0.0
C1225 C 0.8106 0.65171 0.20365 0.0
C1226 C 0.82734 0.63142 0.19257 0.0
C1227 C 0.84591 0.63435 0.16253 0.0
C1228 C 0.84732 0.65591 0.14259 0.0
C1229 C 0.86901 0.6527 0.11069 0.0
C1230 C 0.84883 0.63941 0.07265 0.0
C1231 C 0.89795 0.68583 0.11408 0.0
C1232 C 0.88041 0.62723 0.11728 0.0
C1233 C 0.86657 0.61727 0.14755 0.0
C1234 C 0.87399 0.59537 0.16088 0.0
C1235 C 0.89586 0.58286 0.14271 0.0
C1236 C 0.91021 0.59182 0.11109 0.0
C1237 C 0.90211 0.61425 0.09799 0.0
H1238 H 0.35628 0.80976 0.18152 0.0
H1239 H 0.27922 0.84445 0.20472 0.0
H1240 H 0.30587 0.88612 0.17116 0.0
H1241 H 0.42296 0.88806 0.19051 0.0
H1242 H 0.44254 0.87196 0.15219 0.0
H1243 H 0.41775 0.84561 0.17877 0.0
H1244 H 0.38301 0.80398 0.11768 0.0
H1245 H 0.40739 0.83047 0.09096 0.0
H1246 H 0.36381 0.81771 0.08804 0.0
H1247 H 0.34147 0.92462 0.13624 0.0
H1248 H 0.38379 0.95738 0.10237 0.0
H1249 H 0.43616 0.89595 0.09942 0.0
C1250 C 0.3451 0.82625 0.17967 0.0
C1251 C 0.31569 0.824 0.19571 0.0
C1252 C 0.3016 0.84568 0.19236 0.0
C1253 C 0.31659 0.86941 0.17344 0.0
C1254 C 0.34534 0.87071 0.15752 0.0
C1255 C 0.35941 0.84963 0.1603 0.0
C1256 C 0.38998 0.85565 0.13998 0.0
C1257 C 0.42008 0.86594 0.16699 0.0
C1258 C 0.38578 0.82514 0.10722 0.0
C1259 C 0.39133 0.88395 0.12607 0.0
C1260 C 0.36527 0.89217 0.13637 0.0
C1261 C 0.36176 0.91819 0.12769 0.0
C1262 C 0.38572 0.93653 0.10841 0.0
C1263 C 0.41258 0.92859 0.09797 0.0
C1264 C 0.41535 0.90191 0.10662 0.0
H1265 H 0.72032 0.15467 0.17486 0.0
H1266 H 0.73475 0.22618 0.11492 0.0
H1267 H 0.69779 0.182 0.06138 0.0
H1268 H 0.70113 0.07732 0.09098 0.0
H1269 H 0.66954 0.05325 0.11459 0.0
H1270 H 0.70565 0.08692 0.14119 0.0
H1271 H 0.66934 0.11235 0.18103 0.0
H1272 H 0.63327 0.07944 0.1543 0.0
H1273 H 0.64085 0.12162 0.15818 0.0
H1274 H 0.65157 0.1328 0.02032 0.0
H1275 H 0.59772 0.0857 -0.00098 0.0
H1276 H 0.60895 0.04922 0.0904 0.0
C1277 C 0.71725 0.16043 0.14938 0.0
C1278 C 0.7312 0.19324 0.14799 0.0
C1279 C 0.72503 0.20079 0.11561 0.0
C1280 C 0.70407 0.17585 0.0852 0.0
C1281 C 0.68906 0.14378 0.08816 0.0
C1282 C 0.69539 0.13607 0.11962 0.0
C1283 C 0.67106 0.10225 0.12015 0.0
C1284 C 0.68786 0.07853 0.11649 0.0
C1285 C 0.65255 0.10407 0.15547 0.0
C1286 C 0.64897 0.09288 0.08533 0.0
C1287 C 0.66042 0.1164 0.06631 0.0
C1288 C 0.64271 0.11398 0.03464 0.0
C1289 C 0.61222 0.08728 0.02275 0.0
C1290 C 0.59959 0.06422 0.0433 0.0
C1291 C 0.61843 0.06666 0.07432 0.0
H1292 H 0.69566 0.62652 0.75722 0.0
H1293 H 0.69378 0.72186 0.80893 0.0
H1294 H 0.65974 0.70029 0.85597 0.0
H1295 H 0.61091 0.57646 0.77484 0.0
H1296 H 0.62228 0.54585 0.78429 0.0
H1297 H 0.64361 0.56793 0.7521 0.0
H1298 H 0.69836 0.58624 0.7909 0.0
H1299 H 0.67721 0.56473 0.82356 0.0
H1300 H 0.70339 0.60812 0.83996 0.0
H1301 H 0.63261 0.67123 0.90143 0.0
H1302 H 0.60663 0.6334 0.93925 0.0
H1303 H 0.62348 0.5553 0.85768 0.0
C1304 C 0.68702 0.64231 0.77778 0.0
C1305 C 0.69586 0.67542 0.77875 0.0
C1306 C 0.68547 0.696 0.80669 0.0
C1307 C 0.66668 0.68409 0.83386 0.0
C1308 C 0.65851 0.65144 0.83254 0.0
C1309 C 0.66775 0.63056 0.80494 0.0
C1310 C 0.65648 0.59684 0.81105 0.0
C1311 C 0.63185 0.5702 0.77865 0.0
C1312 C 0.6856 0.58851 0.81671 0.0
C1313 C 0.6403 0.60248 0.84683 0.0
C1314 C 0.64204 0.63426 0.85879 0.0
C1315 C 0.63058 0.64609 0.89216 0.0
C1316 C 0.61621 0.62456 0.91361 0.0
C1317 C 0.61314 0.59156 0.90128 0.0
C1318 C 0.62543 0.58042 0.86755 0.0
H1319 H 0.35005 0.61975 0.85292 0.0
H1320 H 0.43115 0.70239 0.83264 0.0
H1321 H 0.46813 0.6965 0.875 0.0
H1322 H 0.37885 0.63652 0.95329 0.0
H1323 H 0.3642 0.59294 0.94834 0.0
H1324 H 0.34376 0.60744 0.92119 0.0
H1325 H 0.35128 0.56754 0.86101 0.0
H1326 H 0.37244 0.55397 0.88841 0.0
H1327 H 0.39174 0.57044 0.85131 0.0
H1328 H 0.49675 0.67963 0.91366 0.0
H1329 H 0.51754 0.64858 0.94238 0.0
H1330 H 0.41884 0.57564 0.93749 0.0
C1331 C 0.37552 0.63674 0.8581 0.0
C1332 C 0.38817 0.66166 0.84024 0.0
C1333 C 0.42146 0.68338 0.84668 0.0
C1334 C 0.44243 0.68039 0.87079 0.0
C1335 C 0.42949 0.65568 0.88826 0.0
C1336 C 0.39692 0.63402 0.88216 0.0
C1337 C 0.39025 0.60776 0.90176 0.0
C1338 C 0.36798 0.61141 0.93303 0.0
C1339 C 0.3756 0.57288 0.87394 0.0
C1340 C 0.42458 0.61691 0.9176 0.0
C1341 C 0.44651 0.64533 0.91056 0.0
C1342 C 0.47989 0.65772 0.92013 0.0
C1343 C 0.49146 0.64004 0.93649 0.0
C1344 C 0.46967 0.6101 0.94231 0.0
C1345 C 0.43579 0.59875 0.93357 0.0
H1346 H 0.36832 0.30121 0.81683 0.0
H1347 H 0.31753 0.359 0.7982 0.0
H1348 H 0.34379 0.40084 0.85795 0.0
H1349 H 0.37194 0.33186 0.92742 0.0
H1350 H 0.4112 0.33028 0.9304 0.0
H1351 H 0.37992 0.29984 0.89412 0.0
H1352 H 0.41962 0.31427 0.84417 0.0
H1353 H 0.45069 0.34445 0.87983 0.0
H1354 H 0.43849 0.35644 0.84258 0.0
H1355 H 0.3867 0.44188 0.90317 0.0
H1356 H 0.44243 0.4786 0.93003 0.0
H1357 H 0.46412 0.3947 0.92566 0.0
C1358 C 0.36192 0.32217 0.82611 0.0
C1359 C 0.34129 0.32718 0.80312 0.0
C1360 C 0.33373 0.35501 0.81538 0.0
C1361 C 0.34791 0.37847 0.84966 0.0
C1362 C 0.369 0.37329 0.87141 0.0
C1363 C 0.3755 0.3454 0.86043 0.0
C1364 C 0.40345 0.34839 0.88479 0.0
C1365 C 0.39087 0.3263 0.91074 0.0
C1366 C 0.42958 0.3405 0.86142 0.0
C1367 C 0.41536 0.38441 0.90658 0.0
C1368 C 0.39397 0.39774 0.90007 0.0
C1369 C 0.40296 0.43163 0.90981 0.0
C1370 C 0.43494 0.45237 0.92441 0.0
C1371 C 0.45719 0.43921 0.93022 0.0
C1372 C 0.44698 0.40508 0.92284 0.0
H1373 H 0.62949 0.32991 0.83321 0.0
H1374 H 0.65985 0.29615 0.91705 0.0
H1375 H 0.66337 0.34683 0.96597 0.0
H1376 H 0.68873 0.40779 0.86375 0.0
H1377 H 0.66464 0.42775 0.85219 0.0
H1378 H 0.65643 0.38583 0.82617 0.0
H1379 H 0.5961 0.36544 0.84171 0.0
H1380 H 0.60343 0.40758 0.8654 0.0
H1381 H 0.58729 0.3766 0.88962 0.0
H1382 H 0.66246 0.40279 0.00413 0.0
H1383 H 0.65062 0.45283 0.02691 0.0
H1384 H 0.64258 0.45529 0.91302 0.0
C1385 C 0.63516 0.33219 0.86213 0.0
C1386 C 0.64331 0.30885 0.87175 0.0
C1387 C 0.65241 0.31349 0.90961 0.0
C1388 C 0.65515 0.34241 0.93724 0.0
C1389 C 0.64995 0.36648 0.92583 0.0
C1390 C 0.64018 0.3614 0.88906 0.0
C1391 C 0.63951 0.39163 0.88224 0.0
C1392 C 0.66378 0.40395 0.85445 0.0
C1393 C 0.60453 0.38494 0.86901 0.0
C1394 C 0.6503 0.41488 0.92106 0.0
C1395 C 0.6553 0.39994 0.94629 0.0
C1396 C 0.65873 0.4148 0.98477 0.0
C1397 C 0.65288 0.44353 0.99751 0.0
C1398 C 0.64563 0.45731 0.97141 0.0
C1399 C 0.64873 0.44526 0.93334 0.0
H1400 H 0.67704 0.38216 0.14762 0.0
H1401 H 0.64912 0.28208 0.07648 0.0
H1402 H 0.62699 0.29553 0.02659 0.0
H1403 H 0.60862 0.38657 0.13329 0.0
H1404 H 0.6236 0.42905 0.13324 0.0
H1405 H 0.64769 0.41622 0.15748 0.0
H1406 H 0.69602 0.43817 0.11938 0.0
H1407 H 0.67239 0.45151 0.09466 0.0
H1408 H 0.69044 0.42441 0.06906 0.0
H1409 H 0.5952 0.31466 0.99264 0.0
H1410 H 0.55765 0.33789 0.97809 0.0
H1411 H 0.60613 0.42553 0.07124 0.0
C1412 C 0.66744 0.36356 0.12091 0.0
C1413 C 0.66457 0.33119 0.11571 0.0
C1414 C 0.65177 0.30718 0.08071 0.0
C1415 C 0.63922 0.31464 0.05222 0.0
C1416 C 0.64018 0.34627 0.05919 0.0
C1417 C 0.65463 0.37061 0.09252 0.0
C1418 C 0.64735 0.40045 0.09625 0.0
C1419 C 0.63082 0.40848 0.13214 0.0
C1420 C 0.67839 0.4304 0.09471 0.0
C1421 C 0.62417 0.38789 0.06159 0.0
C1422 C 0.62109 0.35711 0.03985 0.0
C1423 C 0.598 0.33911 0.00888 0.0
C1424 C 0.5768 0.35246 0.00077 0.0
C1425 C 0.57877 0.38322 0.02393 0.0
C1426 C 0.60375 0.40165 0.05347 0.0
H1427 H 0.70405 0.6756 0.168 0.0
H1428 H 0.67413 0.64841 0.26934 0.0
H1429 H 0.62376 0.60207 0.23327 0.0
H1430 H 0.62809 0.66363 0.13276 0.0
H1431 H 0.63363 0.64774 0.08448 0.0
H1432 H 0.66843 0.676 0.1173 0.0
H1433 H 0.69514 0.63407 0.10071 0.0
H1434 H 0.66085 0.60598 0.06702 0.0
H1435 H 0.6725 0.5926 0.10322 0.0
H1436 H 0.5754 0.56241 0.1865 0.0
H1437 H 0.53511 0.52797 0.13196 0.0
H1438 H 0.59806 0.58395 0.06265 0.0
C1439 C 0.687 0.6596 0.18249 0.0
C1440 C 0.69225 0.66523 0.22112 0.0
C1441 C 0.6701 0.64396 0.23951 0.0
C1442 C 0.64158 0.61795 0.21936 0.0
C1443 C 0.63641 0.61401 0.18129 0.0
C1444 C 0.65884 0.63398 0.16302 0.0
C1445 C 0.64757 0.62567 0.12244 0.0
C1446 C 0.64423 0.655 0.11377 0.0
C1447 C 0.67036 0.61386 0.09685 0.0
C1448 C 0.61485 0.59794 0.12055 0.0
C1449 C 0.60879 0.59155 0.15467 0.0
C1450 C 0.57997 0.567 0.15961 0.0
C1451 C 0.55722 0.54775 0.12849 0.0
C1452 C 0.56363 0.55324 0.09301 0.0
C1453 C 0.59248 0.57915 0.08934 0.0
H1454 H 0.44277 0.70146 0.08987 0.0
H1455 H 0.42908 0.68847 0.20063 0.0
H1456 H 0.41828 0.63008 0.175 0.0
H1457 H 0.38392 0.63214 0.03918 0.0
H1458 H 0.4059 0.62082 0.00066 0.0
H1459 H 0.4187 0.66344 0.02701 0.0
H1460 H 0.47661 0.66882 0.04246 0.0
H1461 H 0.46424 0.62683 0.01428 0.0
H1462 H 0.4817 0.63895 0.06147 0.0
H1463 H 0.39745 0.57179 0.13631 0.0
H1464 H 0.38886 0.5192 0.08963 0.0
H1465 H 0.41705 0.56945 0.00383 0.0
C1466 C 0.43934 0.68671 0.1089 0.0
C1467 C 0.43658 0.69942 0.147 0.0
C1468 C 0.43172 0.6794 0.17127 0.0
C1469 C 0.4248 0.64592 0.15693 0.0
C1470 C 0.42406 0.63332 0.11859 0.0
C1471 C 0.43293 0.65328 0.09521 0.0
C1472 C 0.4311 0.63343 0.05531 0.0
C1473 C 0.40852 0.63779 0.02906 0.0
C1474 C 0.46556 0.64265 0.04274 0.0
C1475 C 0.41705 0.59895 0.05942 0.0
C1476 C 0.41321 0.59954 0.09628 0.0
C1477 C 0.40088 0.57091 0.10734 0.0
C1478 C 0.39525 0.541 0.08038 0.0
C1479 C 0.40234 0.54029 0.04309 0.0
C1480 C 0.41119 0.5693 0.03207 0.0
H1481 H 0.34262 0.28248 0.16268 0.0
H1482 H 0.35936 0.35405 0.27169 0.0
H1483 H 0.39762 0.39774 0.24597 0.0
H1484 H 0.42521 0.31846 0.13244 0.0
H1485 H 0.40854 0.30815 0.08502 0.0
H1486 H 0.38783 0.28249 0.11421 0.0
H1487 H 0.33519 0.28978 0.10126 0.0
H1488 H 0.35583 0.31606 0.07285 0.0
H1489 H 0.33631 0.33077 0.11216 0.0
H1490 H 0.42832 0.43418 0.2054 0.0
H1491 H 0.45064 0.45964 0.15505 0.0
H1492 H 0.41018 0.36293 0.07334 0.0
C1493 C 0.35479 0.3072 0.18148 0.0
C1494 C 0.348 0.31511 0.21904 0.0
C1495 C 0.36449 0.34762 0.2428 0.0
C1496 C 0.38611 0.37248 0.22841 0.0
C1497 C 0.39093 0.36403 0.19052 0.0
C1498 C 0.37599 0.33199 0.16762 0.0
C1499 C 0.38247 0.32931 0.12735 0.0
C1500 C 0.4022 0.30838 0.11398 0.0
C1501 C 0.35056 0.31569 0.10194 0.0
C1502 C 0.40253 0.3651 0.13069 0.0
C1503 C 0.40766 0.38479 0.16731 0.0
C1504 C 0.42472 0.41893 0.17674 0.0
C1505 C 0.43707 0.43314 0.14797 0.0
C1506 C 0.43183 0.41317 0.11036 0.0
C1507 C 0.41434 0.37881 0.10179 0.0
H1508 H 0.83595 0.67326 0.72439 0.0
H1509 H 0.79773 0.68261 0.62474 0.0
H1510 H 0.82725 0.65207 0.58607 0.0
H1511 H 0.91551 0.68351 0.69551 0.0
H1512 H 0.91878 0.65364 0.71581 0.0
H1513 H 0.89432 0.67579 0.73575 0.0
H1514 H 0.84437 0.62074 0.72839 0.0
H1515 H 0.86859 0.59828 0.70862 0.0
H1516 H 0.83133 0.59042 0.68314 0.0
H1517 H 0.86295 0.62192 0.55803 0.0
H1518 H 0.89901 0.59274 0.54263 0.0
H1519 H 0.91246 0.60015 0.66003 0.0
C1520 C 0.83355 0.66877 0.6944 0.0
C1521 C 0.81414 0.68045 0.67781 0.0
C1522 C 0.81203 0.6739 0.63837 0.0
C1523 C 0.82891 0.65661 0.61608 0.0
C1524 C 0.8479 0.64568 0.63336 0.0
C1525 C 0.85012 0.65132 0.67164 0.0
C1526 C 0.87209 0.6368 0.68322 0.0
C1527 C 0.90195 0.66406 0.7091 0.0
C1528 C 0.85295 0.60996 0.70194 0.0
C1529 C 0.88195 0.6221 0.64547 0.0
C1530 C 0.86783 0.6277 0.61715 0.0
C1531 C 0.87376 0.61709 0.58003 0.0
C1532 C 0.89426 0.60013 0.57151 0.0
C1533 C 0.90875 0.59329 0.59975 0.0
C1534 C 0.90234 0.60484 0.63741 0.0
H1535 H 0.36749 0.84649 0.7264 0.0
H1536 H 0.28555 0.78367 0.64274 0.0
H1537 H 0.31257 0.81469 0.59843 0.0
H1538 H 0.37863 0.92103 0.70584 0.0
H1539 H 0.42247 0.93904 0.71401 0.0
H1540 H 0.39832 0.9101 0.73818 0.0
H1541 H 0.42987 0.87358 0.71276 0.0
H1542 H 0.45415 0.90246 0.68853 0.0
H1543 H 0.43186 0.85962 0.66307 0.0
H1544 H 0.34797 0.85258 0.56329 0.0
H1545 H 0.38776 0.89771 0.54132 0.0
H1546 H 0.44491 0.93864 0.64911 0.0
C1547 C 0.35556 0.83916 0.69858 0.0
C1548 C 0.32461 0.81267 0.68773 0.0
C1549 C 0.30928 0.80402 0.65146 0.0
C1550 C 0.32448 0.82135 0.62608 0.0
C1551 C 0.3548 0.84765 0.63761 0.0
C1552 C 0.3701 0.8568 0.6731 0.0
C1553 C 0.40154 0.88753 0.67918 0.0
C1554 C 0.40014 0.91611 0.71119 0.0
C1555 C 0.4311 0.88035 0.68629 0.0
C1556 C 0.40136 0.89417 0.64169 0.0
C1557 C 0.37444 0.87059 0.61794 0.0
C1558 C 0.36908 0.87134 0.5817 0.0
C1559 C 0.39174 0.89708 0.56949 0.0
C1560 C 0.41913 0.92193 0.59366 0.0
C1561 C 0.42396 0.92025 0.63014 0.0
H1562 H 0.19909 0.37582 0.61577 0.0
H1563 H 0.12325 0.29096 0.63943 0.0
H1564 H 0.08242 0.3122 0.63097 0.0
H1565 H 0.16753 0.43565 0.66396 0.0
H1566 H 0.17846 0.45836 0.63 0.0
H1567 H 0.20196 0.43651 0.63775 0.0
H1568 H 0.1921 0.40449 0.56719 0.0
H1569 H 0.16863 0.4263 0.55927 0.0
H1570 H 0.15092 0.38182 0.54522 0.0
H1571 H 0.0494 0.34153 0.61821 0.0
H1572 H 0.02662 0.37802 0.60361 0.0
H1573 H 0.12367 0.4453 0.59072 0.0
C1574 C 0.17398 0.36187 0.6196 0.0
C1575 C 0.16449 0.33153 0.62806 0.0
C1576 C 0.13118 0.31392 0.63232 0.0
C1577 C 0.10777 0.3259 0.62781 0.0
C1578 C 0.11793 0.35568 0.61922 0.0
C1579 C 0.15022 0.37353 0.61527 0.0
C1580 C 0.15451 0.40474 0.60566 0.0
C1581 C 0.17694 0.43565 0.63617 0.0
C1582 C 0.1673 0.40429 0.56704 0.0
C1583 C 0.11963 0.4017 0.60504 0.0
C1584 C 0.09892 0.37306 0.61268 0.0
C1585 C 0.0654 0.36411 0.61239 0.0
C1586 C 0.05268 0.3849 0.60394 0.0
C1587 C 0.07339 0.41445 0.59614 0.0
C1588 C 0.10735 0.42304 0.59702 0.0
H1589 H 0.72783 0.1951 0.60833 0.0
H1590 H 0.75997 0.1439 0.66897 0.0
H1591 H 0.72062 0.09057 0.62886 0.0
H1592 H 0.65244 0.15626 0.6017 0.0
H1593 H 0.64006 0.15139 0.55415 0.0
H1594 H 0.67779 0.18421 0.5769 0.0
H1595 H 0.7095 0.16379 0.52438 0.0
H1596 H 0.67158 0.13109 0.50058 0.0
H1597 H 0.70472 0.12148 0.51159 0.0
H1598 H 0.66706 0.04755 0.60051 0.0
H1599 H 0.60893 0.01594 0.57668 0.0
H1600 H 0.61271 0.09227 0.52863 0.0
C1601 C 0.72804 0.17247 0.61114 0.0
C1602 C 0.74704 0.17331 0.64113 0.0
C1603 C 0.74618 0.14358 0.64541 0.0
C1604 C 0.72374 0.11315 0.62282 0.0
C1605 C 0.70342 0.11301 0.59513 0.0
C1606 C 0.70647 0.14184 0.58783 0.0
C1607 C 0.67904 0.13523 0.55974 0.0
C1608 C 0.6613 0.15811 0.57405 0.0
C1609 C 0.69198 0.13806 0.52183 0.0
C1610 C 0.65755 0.09966 0.55718 0.0
C1611 C 0.6726 0.08694 0.57676 0.0
C1612 C 0.65564 0.0566 0.58363 0.0
C1613 C 0.62259 0.03899 0.57044 0.0
C1614 C 0.60695 0.05176 0.55061 0.0
C1615 C 0.62473 0.0819 0.54298 0.0
H1616 H 0.82486 0.3445 0.31702 0.0
H1617 H 0.77805 0.30018 0.40276 0.0
H1618 H 0.82697 0.33783 0.44774 0.0
H1619 H 0.90095 0.34595 0.34081 0.0
H1620 H 0.92436 0.38306 0.32821 0.0
H1621 H 0.8842 0.35614 0.30515 0.0
H1622 H 0.86621 0.40462 0.32399 0.0
H1623 H 0.90636 0.43194 0.34682 0.0
H1624 H 0.87115 0.42805 0.37251 0.0
H1625 H 0.88258 0.38064 0.48229 0.0
H1626 H 0.94006 0.42075 0.50152 0.0
H1627 H 0.95017 0.43113 0.38971 0.0
C1628 C 0.82451 0.34341 0.3456 0.0
C1629 C 0.79752 0.32051 0.35712 0.0
C1630 C 0.79839 0.31841 0.39404 0.0
C1631 C 0.82603 0.33952 0.41953 0.0
C1632 C 0.85262 0.36162 0.40698 0.0
C1633 C 0.85208 0.36323 0.37065 0.0
C1634 C 0.88465 0.38596 0.36232 0.0
C1635 C 0.8994 0.36662 0.33236 0.0
C1636 C 0.88191 0.41433 0.35075 0.0
C1637 C 0.90352 0.39806 0.40006 0.0
C1638 C 0.88479 0.38395 0.42564 0.0
C1639 C 0.89737 0.39179 0.46245 0.0
C1640 C 0.92989 0.41469 0.47322 0.0
C1641 C 0.94931 0.42898 0.44713 0.0
C1642 C 0.93589 0.42037 0.41016 0.0
H1643 H 0.69098 0.79197 0.27675 0.0
H1644 H 0.77259 0.83357 0.36151 0.0
H1645 H 0.7494 0.87151 0.39895 0.0
H1646 H 0.68008 0.86571 0.28253 0.0
H1647 H 0.63616 0.84607 0.27731 0.0
H1648 H 0.65939 0.82263 0.25708 0.0
H1649 H 0.62993 0.78023 0.29312 0.0
H1650 H 0.6065 0.80347 0.3134 0.0
H1651 H 0.63029 0.79431 0.3432 0.0
H1652 H 0.71801 0.9067 0.42601 0.0
H1653 H 0.68011 0.93358 0.4427 0.0
H1654 H 0.61582 0.86595 0.34301 0.0
C1655 C 0.70397 0.8091 0.3032 0.0
C1656 C 0.73377 0.80985 0.31611 0.0
C1657 C 0.74972 0.83237 0.3511 0.0
C1658 C 0.73675 0.85412 0.37249 0.0
C1659 C 0.70735 0.85275 0.359 0.0
C1660 C 0.69091 0.83047 0.32538 0.0
C1661 C 0.65909 0.83316 0.31793 0.0
C1662 C 0.65867 0.84245 0.28156 0.0
C1663 C 0.62972 0.80087 0.31685 0.0
C1664 C 0.66055 0.86104 0.3521 0.0
C1665 C 0.68862 0.87198 0.37537 0.0
C1666 C 0.69572 0.89791 0.40821 0.0
C1667 C 0.67363 0.9129 0.41767 0.0
C1668 C 0.6442 0.90197 0.39477 0.0
C1669 C 0.6379 0.87547 0.36138 0.0
H1670 H 0.18144 0.65881 0.28289 0.0
H1671 H 0.27615 0.6958 0.34379 0.0
H1672 H 0.25186 0.66026 0.38507 0.0
H1673 H 0.13323 0.65198 0.35946 0.0
H1674 H 0.10039 0.61373 0.33441 0.0
H1675 H 0.125 0.64187 0.30958 0.0
H1676 H 0.13892 0.59566 0.26571 0.0
H1677 H 0.11394 0.56726 0.29006 0.0
H1678 H 0.15596 0.57361 0.28561 0.0
H1679 H 0.21628 0.62404 0.42253 0.0
H1680 H 0.17361 0.58318 0.44779 0.0
H1681 H 0.10317 0.56609 0.35876 0.0
C1682 C 0.19698 0.65902 0.30472 0.0
C1683 C 0.23055 0.67978 0.31046 0.0
C1684 C 0.2504 0.67971 0.33906 0.0
C1685 C 0.23679 0.65982 0.36266 0.0
C1686 C 0.20345 0.6398 0.35667 0.0
C1687 C 0.18392 0.63867 0.32787 0.0
C1688 C 0.14905 0.61419 0.3267 0.0
C1689 C 0.12554 0.63149 0.33292 0.0
C1690 C 0.13889 0.58601 0.28983 0.0
C1691 C 0.15199 0.60203 0.35957 0.0
C1692 C 0.18342 0.61748 0.37686 0.0
C1693 C 0.1917 0.61135 0.40886 0.0
C1694 C 0.16734 0.58825 0.42308 0.0
C1695 C 0.13536 0.57117 0.40482 0.0
C1696 C 0.12762 0.57839 0.37285 0.0
H1697 H 0.42362 0.18613 0.39433 0.0
H1698 H 0.3411 0.10883 0.31861 0.0
H1699 H 0.36056 0.06751 0.32466 0.0
H1700 H 0.48227 0.1518 0.3585 0.0
H1701 H 0.50399 0.16384 0.40369 0.0
H1702 H 0.48341 0.18773 0.39424 0.0
H1703 H 0.45098 0.18038 0.45166 0.0
H1704 H 0.47135 0.15634 0.4612 0.0
H1705 H 0.42744 0.13939 0.45516 0.0
H1706 H 0.38744 0.03411 0.33983 0.0
H1707 H 0.42191 0.01067 0.36045 0.0
H1708 H 0.48984 0.10929 0.42299 0.0
C1709 C 0.40975 0.16056 0.37875 0.0
C1710 C 0.3804 0.15085 0.35641 0.0
C1711 C 0.36308 0.11699 0.33671 0.0
C1712 C 0.37409 0.09327 0.33972 0.0
C1713 C 0.40272 0.1036 0.36225 0.0
C1714 C 0.42055 0.13643 0.38121 0.0
C1715 C 0.45085 0.14073 0.40309 0.0
C1716 C 0.48197 0.1623 0.38903 0.0
C1717 C 0.45009 0.15506 0.44528 0.0
C1718 C 0.44705 0.10514 0.3935 0.0
C1719 C 0.41901 0.08424 0.37004 0.0
C1720 C 0.40971 0.05025 0.35782 0.0
C1721 C 0.42969 0.03719 0.36953 0.0
C1722 C 0.45905 0.05797 0.393 0.0
C1723 C 0.46759 0.09252 0.40525 0.0
H1724 H 0.63868 0.83981 0.67018 0.0
H1725 H 0.66411 0.8048 0.55857 0.0
H1726 H 0.64065 0.83702 0.53571 0.0
H1727 H 0.56129 0.8363 0.64007 0.0
H1728 H 0.56424 0.87298 0.6758 0.0
H1729 H 0.58434 0.84842 0.68444 0.0
H1730 H 0.6393 0.89981 0.70061 0.0
H1731 H 0.61934 0.92451 0.69197 0.0
H1732 H 0.6539 0.92288 0.66733 0.0
H1733 H 0.61544 0.87255 0.52437 0.0
H1734 H 0.58605 0.90726 0.52383 0.0
H1735 H 0.57338 0.91835 0.64174 0.0
C1736 C 0.63943 0.83919 0.64102 0.0
C1737 C 0.65316 0.81969 0.61606 0.0
C1738 C 0.65345 0.81924 0.57804 0.0
C1739 C 0.64036 0.83763 0.56484 0.0
C1740 C 0.62685 0.85634 0.58991 0.0
C1741 C 0.62598 0.8572 0.62714 0.0
C1742 C 0.60859 0.87843 0.64745 0.0
C1743 C 0.57778 0.8578 0.66284 0.0
C1744 C 0.63167 0.90818 0.67869 0.0
C1745 C 0.59999 0.88929 0.61573 0.0
C1746 C 0.61108 0.87636 0.58297 0.0
C1747 C 0.60636 0.88262 0.54975 0.0
C1748 C 0.5894 0.90224 0.54971 0.0
C1749 C 0.57685 0.91519 0.58256 0.0
C1750 C 0.5827 0.90894 0.61619 0.0
H1751 H 0.72266 0.18804 0.33928 0.0
H1752 H 0.65705 0.15875 0.24056 0.0
H1753 H 0.6205 0.10874 0.25751 0.0
H1754 H 0.71281 0.10684 0.34013 0.0
H1755 H 0.7136 0.11609 0.39028 0.0
H1756 H 0.73521 0.14847 0.36931 0.0
H1757 H 0.70365 0.18228 0.40464 0.0
H1758 H 0.68217 0.1501 0.42589 0.0
H1759 H 0.65969 0.16361 0.39984 0.0
H1760 H 0.59218 0.06187 0.28479 0.0
H1761 H 0.5701 0.02429 0.32374 0.0
H1762 H 0.6523 0.08643 0.40753 0.0
C1763 C 0.7005 0.17102 0.32142 0.0
C1764 C 0.69232 0.17685 0.28876 0.0
C1765 C 0.66329 0.15449 0.26586 0.0
C1766 C 0.64264 0.12606 0.27515 0.0
C1767 C 0.65135 0.12089 0.30766 0.0
C1768 C 0.67932 0.143 0.33076 0.0
C1769 C 0.68218 0.13263 0.3651 0.0
C1770 C 0.71277 0.12559 0.36625 0.0
C1771 C 0.68189 0.1587 0.40099 0.0
C1772 C 0.65138 0.10126 0.35784 0.0
C1773 C 0.63428 0.09465 0.32422 0.0
C1774 C 0.60527 0.06685 0.31121 0.0
C1775 C 0.59304 0.04558 0.33348 0.0
C1776 C 0.60953 0.0525 0.36865 0.0
C1777 C 0.6392 0.08058 0.38079 0.0
H1778 H 0.90555 0.64751 0.33116 0.0
H1779 H 0.85185 0.65071 0.4294 0.0
H1780 H 0.87728 0.61947 0.45084 0.0
H1781 H 0.90125 0.56514 0.31648 0.0
H1782 H 0.94206 0.57469 0.30284 0.0
H1783 H 0.91974 0.59742 0.29443 0.0
H1784 H 0.96653 0.65229 0.33118 0.0
H1785 H 0.98907 0.62974 0.3395 0.0
H1786 H 0.9803 0.6575 0.37831 0.0
H1787 H 0.90812 0.58876 0.46272 0.0
H1788 H 0.94393 0.56039 0.46486 0.0
H1789 H 0.97883 0.57592 0.35952 0.0
C1790 C 0.89925 0.64171 0.35723 0.0
C1791 C 0.87621 0.65126 0.37829 0.0
C1792 C 0.86872 0.6431 0.41225 0.0
C1793 C 0.88323 0.62551 0.42485 0.0
C1794 C 0.90538 0.61614 0.40333 0.0
C1795 C 0.91355 0.62394 0.3703 0.0
C1796 C 0.93839 0.61083 0.35292 0.0
C1797 C 0.92452 0.58551 0.31438 0.0
C1798 C 0.97048 0.63929 0.35033 0.0
C1799 C 0.94272 0.59447 0.3814 0.0
C1800 C 0.9234 0.59803 0.41023 0.0
C1801 C 0.92336 0.58579 0.44032 0.0
C1802 C 0.94384 0.56977 0.44133 0.0
C1803 C 0.96419 0.56597 0.41244 0.0
C1804 C 0.9633 0.57818 0.3818 0.0
H1805 H 0.34779 0.78887 0.36197 0.0
H1806 H 0.29073 0.8453 0.36029 0.0
H1807 H 0.32706 0.8901 0.41302 0.0
H1808 H 0.37516 0.82816 0.47118 0.0
H1809 H 0.41427 0.82663 0.46326 0.0
H1810 H 0.37799 0.79424 0.43543 0.0
H1811 H 0.40429 0.80407 0.37497 0.0
H1812 H 0.44035 0.83596 0.40257 0.0
H1813 H 0.41946 0.84497 0.36937 0.0
H1814 H 0.37546 0.93328 0.45296 0.0
H1815 H 0.43312 0.97158 0.47205 0.0
H1816 H 0.46069 0.889 0.4466 0.0
C1817 C 0.34214 0.81007 0.37376 0.0
C1818 C 0.31638 0.81356 0.35695 0.0
C1819 C 0.31016 0.84193 0.37272 0.0
C1820 C 0.33054 0.86744 0.40302 0.0
C1821 C 0.35673 0.86404 0.41779 0.0
C1822 C 0.36231 0.83575 0.4041 0.0
C1823 C 0.39507 0.84049 0.42045 0.0
C1824 C 0.39033 0.82123 0.44928 0.0
C1825 C 0.41599 0.83086 0.39 0.0
C1826 C 0.40916 0.87723 0.4399 0.0
C1827 C 0.38578 0.8898 0.44059 0.0
C1828 C 0.3937 0.92362 0.45357 0.0
C1829 C 0.42648 0.94522 0.46426 0.0
C1830 C 0.45084 0.93286 0.46076 0.0
C1831 C 0.44207 0.89859 0.4499 0.0
H1832 H 0.22595 0.32854 0.27325 0.0
H1833 H 0.23052 0.28648 0.36232 0.0
H1834 H 0.19871 0.31489 0.39941 0.0
H1835 H 0.2336 0.40882 0.33467 0.0
H1836 H 0.20586 0.41298 0.3045 0.0
H1837 H 0.22951 0.38979 0.28491 0.0
H1838 H 0.17662 0.33834 0.25387 0.0
H1839 H 0.15327 0.36212 0.27261 0.0
H1840 H 0.1442 0.32345 0.28219 0.0
H1841 H 0.16362 0.34536 0.42583 0.0
H1842 H 0.13119 0.37832 0.44165 0.0
H1843 H 0.15115 0.40429 0.33769 0.0
C1844 C 0.22057 0.32555 0.30073 0.0
C1845 C 0.23109 0.30517 0.31474 0.0
C1846 C 0.22321 0.30201 0.35084 0.0
C1847 C 0.20493 0.31801 0.37217 0.0
C1848 C 0.19474 0.33757 0.35746 0.0
C1849 C 0.20257 0.34175 0.32275 0.0
C1850 C 0.18855 0.3643 0.31367 0.0
C1851 C 0.21602 0.39585 0.30918 0.0
C1852 C 0.16421 0.34598 0.27849 0.0
C1853 C 0.17134 0.37186 0.34852 0.0
C1854 C 0.17519 0.356 0.37326 0.0
C1855 C 0.16092 0.3583 0.40689 0.0
C1856 C 0.14261 0.37751 0.41579 0.0
C1857 C 0.13863 0.39486 0.39153 0.0
C1858 C 0.15327 0.39156 0.35716 0.0
H1859 H 0.30801 0.16561 0.63723 0.0
H1860 H 0.36196 0.22365 0.74562 0.0
H1861 H 0.4012 0.19796 0.73106 0.0
H1862 H 0.31818 0.09128 0.63627 0.0
H1863 H 0.32252 0.07938 0.58694 0.0
H1864 H 0.29901 0.10317 0.60449 0.0
H1865 H 0.33464 0.1477 0.57393 0.0
H1866 H 0.35823 0.12402 0.55619 0.0
H1867 H 0.37829 0.1663 0.5846 0.0
H1868 H 0.43419 0.16609 0.70637 0.0
H1869 H 0.45922 0.12904 0.6734 0.0
H1870 H 0.3853 0.0894 0.57955 0.0
C1871 C 0.32848 0.17324 0.65745 0.0
C1872 C 0.33241 0.19729 0.69236 0.0
C1873 C 0.35885 0.20581 0.71857 0.0
C1874 C 0.38122 0.19124 0.71057 0.0
C1875 C 0.37685 0.16767 0.67621 0.0
C1876 C 0.35115 0.15849 0.64997 0.0
C1877 C 0.35191 0.13147 0.61582 0.0
C1878 C 0.32107 0.09943 0.61058 0.0
C1879 C 0.35602 0.14308 0.58054 0.0
C1880 C 0.38218 0.12734 0.62695 0.0
C1881 C 0.39598 0.14859 0.66196 0.0
C1882 C 0.42377 0.14953 0.67878 0.0
C1883 C 0.43808 0.12843 0.65948 0.0
C1884 C 0.42494 0.10633 0.6233 0.0
C1885 C 0.39625 0.10581 0.60705 0.0
H1886 H 0.82591 0.30057 0.649 0.0
H1887 H 0.85705 0.35076 0.76665 0.0
H1888 H 0.89616 0.40018 0.75092 0.0
H1889 H 0.90879 0.33443 0.6202 0.0
H1890 H 0.89464 0.33633 0.57661 0.0
H1891 H 0.86907 0.30524 0.59747 0.0
H1892 H 0.82286 0.32516 0.59605 0.0
H1893 H 0.84835 0.35641 0.57544 0.0
H1894 H 0.83092 0.3679 0.61821 0.0
H1895 H 0.93041 0.4446 0.72213 0.0
H1896 H 0.95998 0.47968 0.68242 0.0
H1897 H 0.90834 0.39937 0.58325 0.0
C1898 C 0.84092 0.32209 0.67131 0.0
C1899 C 0.83832 0.32232 0.70901 0.0
C1900 C 0.85876 0.35043 0.73761 0.0
C1901 C 0.88096 0.37851 0.72893 0.0
C1902 C 0.88292 0.37765 0.69143 0.0
C1903 C 0.86389 0.34997 0.66304 0.0
C1904 C 0.8719 0.35492 0.62501 0.0
C1905 C 0.88699 0.33133 0.60356 0.0
C1906 C 0.8417 0.35087 0.60236 0.0
C1907 C 0.89698 0.39032 0.63645 0.0
C1908 C 0.90331 0.40286 0.67486 0.0
C1909 C 0.92575 0.43501 0.692 0.0
C1910 C 0.94234 0.45476 0.66922 0.0
C1911 C 0.93628 0.44235 0.62977 0.0
C1912 C 0.91324 0.4097 0.61333 0.0
H1913 H 0.19432 0.7109 0.63658 0.0
H1914 H 0.26045 0.66378 0.63654 0.0
H1915 H 0.22596 0.6167 0.58432 0.0
H1916 H 0.12689 0.65079 0.63007 0.0
H1917 H 0.10264 0.6566 0.5972 0.0
H1918 H 0.13756 0.69103 0.62388 0.0
H1919 H 0.16169 0.70237 0.563 0.0
H1920 H 0.1264 0.66779 0.53587 0.0
H1921 H 0.1667 0.66986 0.52708 0.0
H1922 H 0.17804 0.56952 0.54709 0.0
H1923 H 0.12152 0.52739 0.52907 0.0
H1924 H 0.08589 0.60427 0.55255 0.0
C1925 C 0.20215 0.69129 0.62423 0.0
C1926 C 0.22982 0.6908 0.64034 0.0
C1927 C 0.23947 0.66476 0.62416 0.0
C1928 C 0.22009 0.63795 0.59432 0.0
C1929 C 0.19176 0.63813 0.58025 0.0
C1930 C 0.18329 0.66464 0.59398 0.0
C1931 C 0.14935 0.65672 0.57824 0.0
C1932 C 0.12788 0.66418 0.60922 0.0
C1933 C 0.15115 0.67529 0.54934 0.0
C1934 C 0.13809 0.62016 0.55911 0.0
C1935 C 0.16352 0.61033 0.55833 0.0
C1936 C 0.15822 0.57707 0.54628 0.0
C1937 C 0.1261 0.5533 0.53623 0.0
C1938 C 0.09987 0.56303 0.53926 0.0
C1939 C 0.10594 0.59668 0.54948 0.0
loop_
_geom_bond_atom_site_label_1
_geom_bond_atom_site_label_2
_geom_bond_distance
_geom_bond_site_symmetry_2
_ccdc_geom_bond_type
Eu0 C9 2.828 . S
Eu0 O11 2.392 . S
Eu0 O13 2.418 . S
Eu0 O18 2.373 . S
Eu0 O21 2.488 . S
Eu0 O22 2.471 . S
Eu0 O23 2.349 . S
Eu1 O10 2.373 . S
Eu1 O14 2.488 . S
Eu1 O15 2.471 . S
Eu1 O16 2.349 . S
Eu1 O19 2.392 . S
Eu1 O20 2.418 . S
Eu1 C30 2.828 . S
C2 O20 1.244 . S
C2 O23 1.265 . S
C3 C4 1.379 . S
C3 C7 1.373 . S
C3 C9 1.505 . S
C4 C3 1.379 . S
C4 C6 1.369 . S
C4 H32 0.930 . S
C5 C7 1.383 . S
C5 C8 1.382 . S
C5 H33 0.930 . S
C6 C4 1.369 . S
C6 C8 1.392 . S
C6 H34 0.930 . S
C7 C3 1.373 . S
C7 C5 1.383 . S
C7 H35 0.931 . S
C8 C5 1.382 . S
C8 C6 1.392 . S
C9 Eu0 2.828 . S
C9 C3 1.505 . S
C9 O21 1.249 . S
C9 O22 1.244 . S
O10 Eu1 2.373 . S
O10 C12 1.258 . S
O11 Eu0 2.392 . S
O11 C12 1.242 . S
C12 O10 1.258 . S
C12 O11 1.242 . S
O13 Eu0 2.418 . S
O13 C17 1.244 . S
O14 Eu1 2.488 . S
O14 C30 1.249 . S
O15 Eu1 2.471 . S
O15 C30 1.244 . S
O16 Eu1 2.349 . S
O16 C17 1.265 . S
C17 O13 1.244 . S
C17 O16 1.265 . S
O18 Eu0 2.373 . S
O18 C31 1.258 . S
O19 Eu1 2.392 . S
O19 C31 1.242 . S
O20 Eu1 2.418 . S
O20 C2 1.244 . S
O21 Eu0 2.488 . S
O21 C9 1.249 . S
O22 Eu0 2.471 . S
O22 C9 1.244 . S
O23 Eu0 2.349 . S
O23 C2 1.265 . S
C24 C25 1.379 . S
C24 C28 1.373 . S
C24 C30 1.505 . S
C25 C24 1.379 . S
C25 C27 1.369 . S
C25 H36 0.930 . S
C26 C28 1.383 . S
C26 C29 1.382 . S
C26 H37 0.930 . S
C27 C25 1.369 . S
C27 C29 1.392 . S
C27 H38 0.930 . S
C28 C24 1.373 . S
C28 C26 1.383 . S
C28 H39 0.931 . S
C29 C26 1.382 . S
C29 C27 1.392 . S
C30 Eu1 2.828 . S
C30 O14 1.249 . S
C30 O15 1.244 . S
C30 C24 1.505 . S
C31 O18 1.258 . S
C31 O19 1.242 . S
H32 C4 0.930 . S
H33 C5 0.930 . S
H34 C6 0.930 . S
H35 C7 0.931 . S
H36 C25 0.930 . S
H37 C26 0.930 . S
H38 C27 0.930 . S
H39 C28 0.931 . S
Eu40 C49 2.828 . S
Eu40 O51 2.392 . S
Eu40 O53 2.418 . S
Eu40 O58 2.373 . S
Eu40 O61 2.488 . S
Eu40 O62 2.471 . S
Eu40 O63 2.349 . S
Eu41 O50 2.373 . S
Eu41 O54 2.488 . S
Eu41 O55 2.471 . S
Eu41 O56 2.349 . S
Eu41 O59 2.392 . S
Eu41 O60 2.418 . S
Eu41 C70 2.828 . S
C42 O60 1.244 . S
C42 O63 1.265 . S
C43 C44 1.379 . S
C43 C47 1.373 . S
C43 C49 1.505 . S
C44 C43 1.379 . S
C44 C46 1.369 . S
C44 H72 0.930 . S
C45 C47 1.383 . S
C45 C48 1.382 . S
C45 H73 0.930 . S
C46 C44 1.369 . S
C46 C48 1.392 . S
C46 H74 0.930 . S
C47 C43 1.373 . S
C47 C45 1.383 . S
C47 H75 0.931 . S
C48 C45 1.382 . S
C48 C46 1.392 . S
C49 Eu40 2.828 . S
C49 C43 1.505 . S
C49 O61 1.249 . S
C49 O62 1.244 . S
O50 Eu41 2.373 . S
O50 C52 1.258 . S
O51 Eu40 2.392 . S
O51 C52 1.242 . S
C52 O50 1.258 . S
C52 O51 1.242 . S
O53 Eu40 2.418 . S
O53 C57 1.244 . S
O54 Eu41 2.488 . S
O54 C70 1.249 . S
O55 Eu41 2.471 . S
O55 C70 1.244 . S
O56 Eu41 2.349 . S
O56 C57 1.265 . S
C57 O53 1.244 . S
C57 O56 1.265 . S
O58 Eu40 2.373 . S
O58 C71 1.258 . S
O59 Eu41 2.392 . S
O59 C71 1.242 . S
O60 Eu41 2.418 . S
O60 C42 1.244 . S
O61 Eu40 2.488 . S
O61 C49 1.249 . S
O62 Eu40 2.471 . S
O62 C49 1.244 . S
O63 Eu40 2.349 . S
O63 C42 1.265 . S
C64 C65 1.379 . S
C64 C68 1.373 . S
C64 C70 1.505 . S
C65 C64 1.379 . S
C65 C67 1.369 . S
C65 H76 0.930 . S
C66 C68 1.383 . S
C66 C69 1.382 . S
C66 H77 0.930 . S
C67 C65 1.369 . S
C67 C69 1.392 . S
C67 H78 0.930 . S
C68 C64 1.373 . S
C68 C66 1.383 . S
C68 H79 0.931 . S
C69 C66 1.382 . S
C69 C67 1.392 . S
C70 Eu41 2.828 . S
C70 O54 1.249 . S
C70 O55 1.244 . S
C70 C64 1.505 . S
C71 O58 1.258 . S
C71 O59 1.242 . S
H72 C44 0.930 . S
H73 C45 0.930 . S
H74 C46 0.930 . S
H75 C47 0.931 . S
H76 C65 0.930 . S
H77 C66 0.930 . S
H78 C67 0.930 . S
H79 C68 0.931 . S
Eu80 C89 2.828 . S
Eu80 O91 2.392 . S
Eu80 O93 2.418 . S
Eu80 O98 2.373 . S
Eu80 O101 2.488 . S
Eu80 O102 2.471 . S
Eu80 O103 2.349 . S
Eu81 O90 2.373 . S
Eu81 O94 2.488 . S
Eu81 O95 2.471 . S
Eu81 O96 2.349 . S
Eu81 O99 2.392 . S
Eu81 O100 2.418 . S
Eu81 C110 2.828 . S
C82 O100 1.244 . S
C82 O103 1.265 . S
C83 C84 1.379 . S
C83 C87 1.373 . S
C83 C89 1.505 . S
C84 C83 1.379 . S
C84 C86 1.369 . S
C84 H112 0.930 . S
C85 C87 1.383 . S
C85 C88 1.382 . S
C85 H113 0.930 . S
C86 C84 1.369 . S
C86 C88 1.392 . S
C86 H114 0.930 . S
C87 C83 1.373 . S
C87 C85 1.383 . S
C87 H115 0.931 . S
C88 C85 1.382 . S
C88 C86 1.392 . S
C89 Eu80 2.828 . S
C89 C83 1.505 . S
C89 O101 1.249 . S
C89 O102 1.244 . S
O90 Eu81 2.373 . S
O90 C92 1.258 . S
O91 Eu80 2.392 . S
O91 C92 1.242 . S
C92 O90 1.258 . S
C92 O91 1.242 . S
O93 Eu80 2.418 . S
O93 C97 1.244 . S
O94 Eu81 2.488 . S
O94 C110 1.249 . S
O95 Eu81 2.471 . S
O95 C110 1.244 . S
O96 Eu81 2.349 . S
O96 C97 1.265 . S
C97 O93 1.244 . S
C97 O96 1.265 . S
O98 Eu80 2.373 . S
O98 C111 1.258 . S
O99 Eu81 2.392 . S
O99 C111 1.242 . S
O100 Eu81 2.418 . S
O100 C82 1.244 . S
O101 Eu80 2.488 . S
O101 C89 1.249 . S
O102 Eu80 2.471 . S
O102 C89 1.244 . S
O103 Eu80 2.349 . S
O103 C82 1.265 . S
C104 C105 1.379 . S
C104 C108 1.373 . S
C104 C110 1.505 . S
C105 C104 1.379 . S
C105 C107 1.369 . S
C105 H116 0.930 . S
C106 C108 1.383 . S
C106 C109 1.382 . S
C106 H117 0.930 . S
C107 C105 1.369 . S
C107 C109 1.392 . S
C107 H118 0.930 . S
C108 C104 1.373 . S
C108 C106 1.383 . S
C108 H119 0.931 . S
C109 C106 1.382 . S
C109 C107 1.392 . S
C110 Eu81 2.828 . S
C110 O94 1.249 . S
C110 O95 1.244 . S
C110 C104 1.505 . S
C111 O98 1.258 . S
C111 O99 1.242 . S
H112 C84 0.930 . S
H113 C85 0.930 . S
H114 C86 0.930 . S
H115 C87 0.931 . S
H116 C105 0.930 . S
H117 C106 0.930 . S
H118 C107 0.930 . S
H119 C108 0.931 . S
Eu120 C129 2.828 . S
Eu120 O131 2.392 . S
Eu120 O133 2.418 . S
Eu120 O138 2.373 . S
Eu120 O141 2.488 . S
Eu120 O142 2.471 . S
Eu120 O143 2.349 . S
Eu121 O130 2.373 . S
Eu121 O134 2.488 . S
Eu121 O135 2.471 . S
Eu121 O136 2.349 . S
Eu121 O139 2.392 . S
Eu121 O140 2.418 . S
Eu121 C150 2.828 . S
C122 O140 1.244 . S
C122 O143 1.265 . S
C123 C124 1.379 . S
C123 C127 1.373 . S
C123 C129 1.505 . S
C124 C123 1.379 . S
C124 C126 1.369 . S
C124 H152 0.930 . S
C125 C127 1.383 . S
C125 C128 1.382 . S
C125 H153 0.930 . S
C126 C124 1.369 . S
C126 C128 1.392 . S
C126 H154 0.930 . S
C127 C123 1.373 . S
C127 C125 1.383 . S
C127 H155 0.931 . S
C128 C125 1.382 . S
C128 C126 1.392 . S
C129 Eu120 2.828 . S
C129 C123 1.505 . S
C129 O141 1.249 . S
C129 O142 1.244 . S
O130 Eu121 2.373 . S
O130 C132 1.258 . S
O131 Eu120 2.392 . S
O131 C132 1.242 . S
C132 O130 1.258 . S
C132 O131 1.242 . S
O133 Eu120 2.418 . S
O133 C137 1.244 . S
O134 Eu121 2.488 . S
O134 C150 1.249 . S
O135 Eu121 2.471 . S
O135 C150 1.244 . S
O136 Eu121 2.349 . S
O136 C137 1.265 . S
C137 O133 1.244 . S
C137 O136 1.265 . S
O138 Eu120 2.373 . S
O138 C151 1.258 . S
O139 Eu121 2.392 . S
O139 C151 1.242 . S
O140 Eu121 2.418 . S
O140 C122 1.244 . S
O141 Eu120 2.488 . S
O141 C129 1.249 . S
O142 Eu120 2.471 . S
O142 C129 1.244 . S
O143 Eu120 2.349 . S
O143 C122 1.265 . S
C144 C145 1.379 . S
C144 C148 1.373 . S
C144 C150 1.505 . S
C145 C144 1.379 . S
C145 C147 1.369 . S
C145 H156 0.930 . S
C146 C148 1.383 . S
C146 C149 1.382 . S
C146 H157 0.930 . S
C147 C145 1.369 . S
C147 C149 1.392 . S
C147 H158 0.930 . S
C148 C144 1.373 . S
C148 C146 1.383 . S
C148 H159 0.931 . S
C149 C146 1.382 . S
C149 C147 1.392 . S
C150 Eu121 2.828 . S
C150 O134 1.249 . S
C150 O135 1.244 . S
C150 C144 1.505 . S
C151 O138 1.258 . S
C151 O139 1.242 . S
H152 C124 0.930 . S
H153 C125 0.930 . S
H154 C126 0.930 . S
H155 C127 0.931 . S
H156 C145 0.930 . S
H157 C146 0.930 . S
H158 C147 0.930 . S
H159 C148 0.931 . S
Eu160 C169 2.828 . S
Eu160 O171 2.392 . S
Eu160 O173 2.418 . S
Eu160 O178 2.373 . S
Eu160 O181 2.488 . S
Eu160 O182 2.471 . S
Eu160 O183 2.349 . S
Eu161 O170 2.373 . S
Eu161 O174 2.488 . S
Eu161 O175 2.471 . S
Eu161 O176 2.349 . S
Eu161 O179 2.392 . S
Eu161 O180 2.418 . S
Eu161 C190 2.828 . S
C162 O180 1.244 . S
C162 O183 1.265 . S
C163 C164 1.379 . S
C163 C167 1.373 . S
C163 C169 1.505 . S
C164 C163 1.379 . S
C164 C166 1.369 . S
C164 H192 0.930 . S
C165 C167 1.383 . S
C165 C168 1.382 . S
C165 H193 0.930 . S
C166 C164 1.369 . S
C166 C168 1.392 . S
C166 H194 0.930 . S
C167 C163 1.373 . S
C167 C165 1.383 . S
C167 H195 0.931 . S
C168 C165 1.382 . S
C168 C166 1.392 . S
C169 Eu160 2.828 . S
C169 C163 1.505 . S
C169 O181 1.249 . S
C169 O182 1.244 . S
O170 Eu161 2.373 . S
O170 C172 1.258 . S
O171 Eu160 2.392 . S
O171 C172 1.242 . S
C172 O170 1.258 . S
C172 O171 1.242 . S
O173 Eu160 2.418 . S
O173 C177 1.244 . S
O174 Eu161 2.488 . S
O174 C190 1.249 . S
O175 Eu161 2.471 . S
O175 C190 1.244 . S
O176 Eu161 2.349 . S
O176 C177 1.265 . S
C177 O173 1.244 . S
C177 O176 1.265 . S
O178 Eu160 2.373 . S
O178 C191 1.258 . S
O179 Eu161 2.392 . S
O179 C191 1.242 . S
O180 Eu161 2.418 . S
O180 C162 1.244 . S
O181 Eu160 2.488 . S
O181 C169 1.249 . S
O182 Eu160 2.471 . S
O182 C169 1.244 . S
O183 Eu160 2.349 . S
O183 C162 1.265 . S
C184 C185 1.379 . S
C184 C188 1.373 . S
C184 C190 1.505 . S
C185 C184 1.379 . S
C185 C187 1.369 . S
C185 H196 0.930 . S
C186 C188 1.383 . S
C186 C189 1.382 . S
C186 H197 0.930 . S
C187 C185 1.369 . S
C187 C189 1.392 . S
C187 H198 0.930 . S
C188 C184 1.373 . S
C188 C186 1.383 . S
C188 H199 0.931 . S
C189 C186 1.382 . S
C189 C187 1.392 . S
C190 Eu161 2.828 . S
C190 O174 1.249 . S
C190 O175 1.244 . S
C190 C184 1.505 . S
C191 O178 1.258 . S
C191 O179 1.242 . S
H192 C164 0.930 . S
H193 C165 0.930 . S
H194 C166 0.930 . S
H195 C167 0.931 . S
H196 C185 0.930 . S
H197 C186 0.930 . S
H198 C187 0.930 . S
H199 C188 0.931 . S
Eu200 C209 2.828 . S
Eu200 O211 2.392 . S
Eu200 O213 2.418 . S
Eu200 O218 2.373 . S
Eu200 O221 2.488 . S
Eu200 O222 2.471 . S
Eu200 O223 2.349 . S
Eu201 O210 2.373 . S
Eu201 O214 2.488 . S
Eu201 O215 2.471 . S
Eu201 O216 2.349 . S
Eu201 O219 2.392 . S
Eu201 O220 2.418 . S
Eu201 C230 2.828 . S
C202 O220 1.244 . S
C202 O223 1.265 . S
C203 C204 1.379 . S
C203 C207 1.373 . S
C203 C209 1.505 . S
C204 C203 1.379 . S
C204 C206 1.369 . S
C204 H232 0.930 . S
C205 C207 1.383 . S
C205 C208 1.382 . S
C205 H233 0.930 . S
C206 C204 1.369 . S
C206 C208 1.392 . S
C206 H234 0.930 . S
C207 C203 1.373 . S
C207 C205 1.383 . S
C207 H235 0.931 . S
C208 C205 1.382 . S
C208 C206 1.392 . S
C209 Eu200 2.828 . S
C209 C203 1.505 . S
C209 O221 1.249 . S
C209 O222 1.244 . S
O210 Eu201 2.373 . S
O210 C212 1.258 . S
O211 Eu200 2.392 . S
O211 C212 1.242 . S
C212 O210 1.258 . S
C212 O211 1.242 . S
O213 Eu200 2.418 . S
O213 C217 1.244 . S
O214 Eu201 2.488 . S
O214 C230 1.249 . S
O215 Eu201 2.471 . S
O215 C230 1.244 . S
O216 Eu201 2.349 . S
O216 C217 1.265 . S
C217 O213 1.244 . S
C217 O216 1.265 . S
O218 Eu200 2.373 . S
O218 C231 1.258 . S
O219 Eu201 2.392 . S
O219 C231 1.242 . S
O220 Eu201 2.418 . S
O220 C202 1.244 . S
O221 Eu200 2.488 . S
O221 C209 1.249 . S
O222 Eu200 2.471 . S
O222 C209 1.244 . S
O223 Eu200 2.349 . S
O223 C202 1.265 . S
C224 C225 1.379 . S
C224 C228 1.373 . S
C224 C230 1.505 . S
C225 C224 1.379 . S
C225 C227 1.369 . S
C225 H236 0.930 . S
C226 C228 1.383 . S
C226 C229 1.382 . S
C226 H237 0.930 . S
C227 C225 1.369 . S
C227 C229 1.392 . S
C227 H238 0.930 . S
C228 C224 1.373 . S
C228 C226 1.383 . S
C228 H239 0.931 . S
C229 C226 1.382 . S
C229 C227 1.392 . S
C230 Eu201 2.828 . S
C230 O214 1.249 . S
C230 O215 1.244 . S
C230 C224 1.505 . S
C231 O218 1.258 . S
C231 O219 1.242 . S
H232 C204 0.930 . S
H233 C205 0.930 . S
H234 C206 0.930 . S
H235 C207 0.931 . S
H236 C225 0.930 . S
H237 C226 0.930 . S
H238 C227 0.930 . S
H239 C228 0.931 . S
Eu240 C249 2.828 . S
Eu240 O251 2.392 . S
Eu240 O253 2.418 . S
Eu240 O258 2.373 . S
Eu240 O261 2.488 . S
Eu240 O262 2.471 . S
Eu240 O263 2.349 . S
Eu241 O250 2.373 . S
Eu241 O254 2.488 . S
Eu241 O255 2.471 . S
Eu241 O256 2.349 . S
Eu241 O259 2.392 . S
Eu241 O260 2.418 . S
Eu241 C270 2.828 . S
C242 O260 1.244 . S
C242 O263 1.265 . S
C243 C244 1.379 . S
C243 C247 1.373 . S
C243 C249 1.505 . S
C244 C243 1.379 . S
C244 C246 1.369 . S
C244 H272 0.930 . S
C245 C247 1.383 . S
C245 C248 1.382 . S
C245 H273 0.930 . S
C246 C244 1.369 . S
C246 C248 1.392 . S
C246 H274 0.930 . S
C247 C243 1.373 . S
C247 C245 1.383 . S
C247 H275 0.931 . S
C248 C245 1.382 . S
C248 C246 1.392 . S
C249 Eu240 2.828 . S
C249 C243 1.505 . S
C249 O261 1.249 . S
C249 O262 1.244 . S
O250 Eu241 2.373 . S
O250 C252 1.258 . S
O251 Eu240 2.392 . S
O251 C252 1.242 . S
C252 O250 1.258 . S
C252 O251 1.242 . S
O253 Eu240 2.418 . S
O253 C257 1.244 . S
O254 Eu241 2.488 . S
O254 C270 1.249 . S
O255 Eu241 2.471 . S
O255 C270 1.244 . S
O256 Eu241 2.349 . S
O256 C257 1.265 . S
C257 O253 1.244 . S
C257 O256 1.265 . S
O258 Eu240 2.373 . S
O258 C271 1.258 . S
O259 Eu241 2.392 . S
O259 C271 1.242 . S
O260 Eu241 2.418 . S
O260 C242 1.244 . S
O261 Eu240 2.488 . S
O261 C249 1.249 . S
O262 Eu240 2.471 . S
O262 C249 1.244 . S
O263 Eu240 2.349 . S
O263 C242 1.265 . S
C264 C265 1.379 . S
C264 C268 1.373 . S
C264 C270 1.505 . S
C265 C264 1.379 . S
C265 C267 1.369 . S
C265 H276 0.930 . S
C266 C268 1.383 . S
C266 C269 1.382 . S
C266 H277 0.930 . S
C267 C265 1.369 . S
C267 C269 1.392 . S
C267 H278 0.930 . S
C268 C264 1.373 . S
C268 C266 1.383 . S
C268 H279 0.931 . S
C269 C266 1.382 . S
C269 C267 1.392 . S
C270 Eu241 2.828 . S
C270 O254 1.249 . S
C270 O255 1.244 . S
C270 C264 1.505 . S
C271 O258 1.258 . S
C271 O259 1.242 . S
H272 C244 0.930 . S
H273 C245 0.930 . S
H274 C246 0.930 . S
H275 C247 0.931 . S
H276 C265 0.930 . S
H277 C266 0.930 . S
H278 C267 0.930 . S
H279 C268 0.931 . S
Eu280 C289 2.828 . S
Eu280 O291 2.392 . S
Eu280 O293 2.418 . S
Eu280 O298 2.373 . S
Eu280 O301 2.488 . S
Eu280 O302 2.471 . S
Eu280 O303 2.349 . S
Eu281 O290 2.373 . S
Eu281 O294 2.488 . S
Eu281 O295 2.471 . S
Eu281 O296 2.349 . S
Eu281 O299 2.392 . S
Eu281 O300 2.418 . S
Eu281 C310 2.828 . S
C282 O300 1.244 . S
C282 O303 1.265 . S
C283 C284 1.379 . S
C283 C287 1.373 . S
C283 C289 1.505 . S
C284 C283 1.379 . S
C284 C286 1.369 . S
C284 H312 0.930 . S
C285 C287 1.383 . S
C285 C288 1.382 . S
C285 H313 0.930 . S
C286 C284 1.369 . S
C286 C288 1.392 . S
C286 H314 0.930 . S
C287 C283 1.373 . S
C287 C285 1.383 . S
C287 H315 0.931 . S
C288 C285 1.382 . S
C288 C286 1.392 . S
C289 Eu280 2.828 . S
C289 C283 1.505 . S
C289 O301 1.249 . S
C289 O302 1.244 . S
O290 Eu281 2.373 . S
O290 C292 1.258 . S
O291 Eu280 2.392 . S
O291 C292 1.242 . S
C292 O290 1.258 . S
C292 O291 1.242 . S
O293 Eu280 2.418 . S
O293 C297 1.244 . S
O294 Eu281 2.488 . S
O294 C310 1.249 . S
O295 Eu281 2.471 . S
O295 C310 1.244 . S
O296 Eu281 2.349 . S
O296 C297 1.265 . S
C297 O293 1.244 . S
C297 O296 1.265 . S
O298 Eu280 2.373 . S
O298 C311 1.258 . S
O299 Eu281 2.392 . S
O299 C311 1.242 . S
O300 Eu281 2.418 . S
O300 C282 1.244 . S
O301 Eu280 2.488 . S
O301 C289 1.249 . S
O302 Eu280 2.471 . S
O302 C289 1.244 . S
O303 Eu280 2.349 . S
O303 C282 1.265 . S
C304 C305 1.379 . S
C304 C308 1.373 . S
C304 C310 1.505 . S
C305 C304 1.379 . S
C305 C307 1.369 . S
C305 H316 0.930 . S
C306 C308 1.383 . S
C306 C309 1.382 . S
C306 H317 0.930 . S
C307 C305 1.369 . S
C307 C309 1.392 . S
C307 H318 0.930 . S
C308 C304 1.373 . S
C308 C306 1.383 . S
C308 H319 0.931 . S
C309 C306 1.382 . S
C309 C307 1.392 . S
C310 Eu281 2.828 . S
C310 O294 1.249 . S
C310 O295 1.244 . S
C310 C304 1.505 . S
C311 O298 1.258 . S
C311 O299 1.242 . S
H312 C284 0.930 . S
H313 C285 0.930 . S
H314 C286 0.930 . S
H315 C287 0.931 . S
H316 C305 0.930 . S
H317 C306 0.930 . S
H318 C307 0.930 . S
H319 C308 0.931 . S
Cd320 N323 2.334 1_655 S
Cd320 N349 2.304 1_565 S
Cd320 O356 2.268 . S
Cd320 O359 2.273 1_665 S
Cd320 O360 2.417 . S
Cd320 O361 2.330 . S
Cd321 N336 2.304 1_455 S
Cd321 N340 2.334 1_545 S
Cd321 O357 2.273 1_445 S
Cd321 O358 2.268 . S
Cd321 O362 2.417 . S
Cd321 O363 2.330 . S
C322 N323 1.332 . S
C322 C326 1.381 . S
C322 H328 0.931 . S
N323 Cd320 2.334 1_455 S
N323 C322 1.332 . S
N323 C327 1.328 . S
C324 C325 1.396 . S
C324 C327 1.378 . S
C324 H366 0.931 . S
C325 C324 1.396 . S
C325 C326 1.382 . S
C326 C322 1.381 . S
C326 C325 1.382 . S
C326 H367 0.930 . S
C327 N323 1.328 . S
C327 C324 1.378 . S
C327 H329 0.930 1_455 S
H328 C322 0.931 . S
H329 C327 0.930 1_655 S
C330 O356 1.238 . S
C330 O357 1.253 . S
C331 C332 1.379 . S
C331 N336 1.337 . S
C331 H337 0.929 . S
C332 C331 1.379 . S
C332 C333 1.380 . S
C332 H368 0.929 . S
C333 C332 1.380 . S
C333 C334 1.399 . S
C334 C333 1.399 . S
C334 C335 1.376 1_655 S
C334 H369 0.931 . S
C335 C334 1.376 1_455 S
C335 N336 1.338 1_455 S
C335 H338 0.930 . S
N336 Cd321 2.304 1_655 S
N336 C331 1.337 . S
N336 C335 1.338 1_655 S
H337 C331 0.929 . S
H338 C335 0.930 . S
C339 N340 1.332 . S
C339 C343 1.381 . S
C339 H345 0.931 . S
N340 Cd321 2.334 1_565 S
N340 C339 1.332 . S
N340 C344 1.328 . S
C341 C342 1.396 . S
C341 C344 1.378 . S
C341 H370 0.931 . S
C342 C341 1.396 . S
C342 C343 1.382 . S
C343 C339 1.381 . S
C343 C342 1.382 . S
C343 H371 0.930 . S
C344 N340 1.328 . S
C344 C341 1.378 . S
C344 H346 0.930 1_565 S
H345 C339 0.931 . S
H346 C344 0.930 1_545 S
C347 O358 1.238 . S
C347 O359 1.253 . S
C348 O360 1.239 . S
C348 O361 1.230 . S
N349 Cd320 2.304 1_545 S
N349 C350 1.337 . S
N349 C354 1.338 . S
C350 N349 1.337 . S
C350 C351 1.379 . S
C350 H364 0.929 . S
C351 C350 1.379 . S
C351 C352 1.380 . S
C351 H372 0.929 . S
C352 C351 1.380 . S
C352 C353 1.399 . S
C353 C352 1.399 . S
C353 C354 1.376 . S
C353 H373 0.931 . S
C354 N349 1.338 . S
C354 C353 1.376 . S
C354 H365 0.930 1_545 S
C355 O362 1.239 . S
C355 O363 1.230 . S
O356 Cd320 2.268 . S
O356 C330 1.238 . S
O357 Cd321 2.273 1_665 S
O357 C330 1.253 . S
O358 Cd321 2.268 . S
O358 C347 1.238 . S
O359 Cd320 2.273 1_445 S
O359 C347 1.253 . S
O360 Cd320 2.417 . S
O360 C348 1.239 . S
O361 Cd320 2.330 . S
O361 C348 1.230 . S
O362 Cd321 2.417 . S
O362 C355 1.239 . S
O363 Cd321 2.330 . S
O363 C355 1.230 . S
H364 C350 0.929 . S
H365 C354 0.930 1_565 S
H366 C324 0.931 . S
H367 C326 0.930 . S
H368 C332 0.929 . S
H369 C334 0.931 . S
H370 C341 0.931 . S
H371 C343 0.930 . S
H372 C351 0.929 . S
H373 C353 0.931 . S
Cd374 N377 2.334 . S
Cd374 N403 2.304 1_565 S
Cd374 O410 2.268 1_554 S
Cd374 O413 2.273 1_565 S
Cd374 O414 2.417 . S
Cd374 O415 2.330 . S
Cd375 N390 2.304 . S
Cd375 N394 2.334 1_545 S
Cd375 O411 2.273 1_545 S
Cd375 O412 2.268 1_556 S
Cd375 O416 2.417 . S
Cd375 O417 2.330 . S
C376 N377 1.332 . S
C376 C380 1.381 . S
C376 H382 0.931 . S
N377 Cd374 2.334 . S
N377 C376 1.332 . S
N377 C381 1.328 . S
C378 C379 1.396 . S
C378 C381 1.378 . S
C378 H420 0.931 1_554 S
C379 C378 1.396 . S
C379 C380 1.382 . S
C380 C376 1.381 . S
C380 C379 1.382 . S
C380 H421 0.930 . S
C381 N377 1.328 . S
C381 C378 1.378 . S
C381 H383 0.930 1_554 S
H382 C376 0.931 . S
H383 C381 0.930 1_556 S
C384 O410 1.238 . S
C384 O411 1.253 . S
C385 C386 1.379 . S
C385 N390 1.337 . S
C385 H391 0.929 . S
C386 C385 1.379 . S
C386 C387 1.380 . S
C386 H422 0.929 . S
C387 C386 1.380 . S
C387 C388 1.411 . S
C388 C387 1.411 . S
C388 C389 1.375 . S
C388 H423 0.920 1_556 S
C389 C388 1.375 . S
C389 N390 1.338 . S
C389 H392 0.930 1_556 S
N390 Cd375 2.304 . S
N390 C385 1.337 . S
N390 C389 1.338 . S
H391 C385 0.929 . S
H392 C389 0.930 1_554 S
C393 N394 1.332 . S
C393 C397 1.381 . S
C393 H399 0.931 . S
N394 Cd375 2.334 1_565 S
N394 C393 1.332 . S
N394 C398 1.328 . S
C395 C396 1.396 . S
C395 C398 1.378 . S
C395 H424 0.926 1_556 S
C396 C395 1.396 . S
C396 C397 1.382 . S
C397 C393 1.381 . S
C397 C396 1.382 . S
C397 H425 0.930 . S
C398 N394 1.328 . S
C398 C395 1.378 . S
C398 H400 0.930 1_566 S
H399 C393 0.931 . S
H400 C398 0.930 1_544 S
C401 O412 1.238 . S
C401 O413 1.253 . S
C402 O414 1.239 . S
C402 O415 1.230 . S
N403 Cd374 2.304 1_545 S
N403 C404 1.337 . S
N403 C408 1.338 . S
C404 N403 1.337 . S
C404 C405 1.379 . S
C404 H418 0.929 . S
C405 C404 1.379 . S
C405 C406 1.380 . S
C405 H426 0.929 . S
C406 C405 1.380 . S
C406 C407 1.399 . S
C407 C406 1.399 . S
C407 C408 1.376 . S
C407 H427 0.931 1_554 S
C408 N403 1.338 . S
C408 C407 1.376 . S
C408 H419 0.930 1_544 S
C409 O416 1.239 . S
C409 O417 1.230 . S
O410 Cd374 2.268 1_556 S
O410 C384 1.238 . S
O411 Cd375 2.273 1_565 S
O411 C384 1.253 . S
O412 Cd375 2.268 1_554 S
O412 C401 1.238 . S
O413 Cd374 2.273 1_545 S
O413 C401 1.253 . S
O414 Cd374 2.417 . S
O414 C402 1.239 . S
O415 Cd374 2.330 . S
O415 C402 1.230 . S
O416 Cd375 2.417 . S
O416 C409 1.239 . S
O417 Cd375 2.330 . S
O417 C409 1.230 . S
H418 C404 0.929 . S
H419 C408 0.930 1_566 S
H420 C378 0.931 1_556 S
H421 C380 0.930 . S
H422 C386 0.929 . S
H423 C388 0.920 1_554 S
H424 C395 0.926 1_554 S
H425 C397 0.930 . S
H426 C405 0.929 . S
H427 C407 0.931 1_556 S
Cd428 N431 2.334 1_655 S
Cd428 N457 2.304 . S
Cd428 O464 2.268 1_554 S
Cd428 O467 2.273 1_655 S
Cd428 O468 2.417 . S
Cd428 O469 2.330 . S
Cd429 N444 2.304 1_455 S
Cd429 N448 2.334 . S
Cd429 O465 2.273 1_455 S
Cd429 O466 2.268 1_556 S
Cd429 O470 2.417 . S
Cd429 O471 2.330 . S
C430 N431 1.332 . S
C430 C434 1.381 . S
C430 H436 0.931 . S
N431 Cd428 2.334 1_455 S
N431 C430 1.332 . S
N431 C435 1.328 . S
C432 C433 1.396 . S
C432 C435 1.378 . S
C432 H474 0.931 1_554 S
C433 C432 1.396 . S
C433 C434 1.382 . S
C434 C430 1.381 . S
C434 C433 1.382 . S
C434 H475 0.930 . S
C435 N431 1.328 . S
C435 C432 1.378 . S
C435 H437 0.930 1_454 S
H436 C430 0.931 . S
H437 C435 0.930 1_656 S
C438 O464 1.238 . S
C438 O465 1.253 . S
C439 C440 1.379 . S
C439 N444 1.337 . S
C439 H445 0.929 . S
C440 C439 1.379 . S
C440 C441 1.380 . S
C440 H476 0.929 . S
C441 C440 1.380 . S
C441 C442 1.410 . S
C442 C441 1.410 . S
C442 C443 1.339 1_655 S
C442 H477 0.921 1_556 S
C443 C442 1.339 1_455 S
C443 N444 1.348 1_455 S
C443 H446 0.958 1_556 S
N444 Cd429 2.304 1_655 S
N444 C439 1.337 . S
N444 C443 1.348 1_655 S
H445 C439 0.929 . S
H446 C443 0.958 1_554 S
C447 N448 1.332 . S
C447 C451 1.381 . S
C447 H453 0.931 . S
N448 Cd429 2.334 . S
N448 C447 1.332 . S
N448 C452 1.328 . S
C449 C450 1.396 . S
C449 C452 1.378 . S
C449 H478 0.926 1_556 S
C450 C449 1.396 . S
C450 C451 1.382 . S
C451 C447 1.381 . S
C451 C450 1.382 . S
C451 H479 0.930 . S
C452 N448 1.328 . S
C452 C449 1.378 . S
C452 H454 0.930 1_556 S
H453 C447 0.931 . S
H454 C452 0.930 1_554 S
C455 O466 1.238 . S
C455 O467 1.253 . S
C456 O468 1.239 . S
C456 O469 1.230 . S
N457 Cd428 2.304 . S
N457 C458 1.337 . S
N457 C462 1.338 . S
C458 N457 1.337 . S
C458 C459 1.379 . S
C458 H472 0.929 . S
C459 C458 1.379 . S
C459 C460 1.380 . S
C459 H480 0.929 . S
C460 C459 1.380 . S
C460 C461 1.399 . S
C461 C460 1.399 . S
C461 C462 1.376 . S
C461 H481 0.931 1_554 S
C462 N457 1.338 . S
C462 C461 1.376 . S
C462 H473 0.930 1_554 S
C463 O470 1.239 . S
C463 O471 1.230 . S
O464 Cd428 2.268 1_556 S
O464 C438 1.238 . S
O465 Cd429 2.273 1_655 S
O465 C438 1.253 . S
O466 Cd429 2.268 1_554 S
O466 C455 1.238 . S
O467 Cd428 2.273 1_455 S
O467 C455 1.253 . S
O468 Cd428 2.417 . S
O468 C456 1.239 . S
O469 Cd428 2.330 . S
O469 C456 1.230 . S
O470 Cd429 2.417 . S
O470 C463 1.239 . S
O471 Cd429 2.330 . S
O471 C463 1.230 . S
H472 C458 0.929 . S
H473 C462 0.930 1_556 S
H474 C432 0.931 1_556 S
H475 C434 0.930 . S
H476 C440 0.929 . S
H477 C442 0.921 1_554 S
H478 C449 0.926 1_554 S
H479 C451 0.930 . S
H480 C459 0.929 . S
H481 C461 0.931 1_556 S
Cd482 N485 2.334 . S
Cd482 N511 2.304 . S
Cd482 O518 2.268 1_554 S
Cd482 O521 2.273 . S
Cd482 O522 2.417 . S
Cd482 O523 2.330 . S
Cd483 N498 2.304 . S
Cd483 N502 2.334 . S
Cd483 O519 2.273 . S
Cd483 O520 2.268 1_556 S
Cd483 O524 2.417 . S
Cd483 O525 2.330 . S
C484 N485 1.332 . S
C484 C488 1.381 . S
C484 H490 0.931 . S
N485 Cd482 2.334 . S
N485 C484 1.332 . S
N485 C489 1.328 . S
C486 C487 1.396 . S
C486 C489 1.378 . S
C486 H528 0.931 1_554 S
C487 C486 1.396 . S
C487 C488 1.382 . S
C488 C484 1.381 . S
C488 C487 1.382 . S
C488 H529 0.930 . S
C489 N485 1.328 . S
C489 C486 1.378 . S
C489 H491 0.930 1_554 S
H490 C484 0.931 . S
H491 C489 0.930 1_556 S
C492 O518 1.238 . S
C492 O519 1.253 . S
C493 C494 1.379 . S
C493 N498 1.337 . S
C493 H499 0.929 . S
C494 C493 1.379 . S
C494 C495 1.380 . S
C494 H530 0.929 . S
C495 C494 1.380 . S
C495 C496 1.410 . S
C496 C495 1.410 . S
C496 C497 1.375 . S
C496 H531 0.921 1_556 S
C497 C496 1.375 . S
C497 N498 1.338 . S
C497 H500 0.930 1_556 S
N498 Cd483 2.304 . S
N498 C493 1.337 . S
N498 C497 1.338 . S
H499 C493 0.929 . S
H500 C497 0.930 1_554 S
C501 N502 1.332 . S
C501 C505 1.381 . S
C501 H507 0.931 . S
N502 Cd483 2.334 . S
N502 C501 1.332 . S
N502 C506 1.328 . S
C503 C504 1.396 . S
C503 C506 1.378 . S
C503 H532 0.925 1_556 S
C504 C503 1.396 . S
C504 C505 1.382 . S
C505 C501 1.381 . S
C505 C504 1.382 . S
C505 H533 0.930 . S
C506 N502 1.328 . S
C506 C503 1.378 . S
C506 H508 0.930 1_556 S
H507 C501 0.931 . S
H508 C506 0.930 1_554 S
C509 O520 1.238 . S
C509 O521 1.253 . S
C510 O522 1.239 . S
C510 O523 1.230 . S
N511 Cd482 2.304 . S
N511 C512 1.337 . S
N511 C516 1.338 . S
C512 N511 1.337 . S
C512 C513 1.379 . S
C512 H526 0.929 . S
C513 C512 1.379 . S
C513 C514 1.380 . S
C513 H534 0.929 . S
C514 C513 1.380 . S
C514 C515 1.399 . S
C515 C514 1.399 . S
C515 C516 1.376 . S
C515 H535 0.909 1_554 S
C516 N511 1.338 . S
C516 C515 1.376 . S
C516 H527 0.930 1_554 S
C517 O524 1.239 . S
C517 O525 1.230 . S
O518 Cd482 2.268 1_556 S
O518 C492 1.238 . S
O519 Cd483 2.273 . S
O519 C492 1.253 . S
O520 Cd483 2.268 1_554 S
O520 C509 1.238 . S
O521 Cd482 2.273 . S
O521 C509 1.253 . S
O522 Cd482 2.417 . S
O522 C510 1.239 . S
O523 Cd482 2.330 . S
O523 C510 1.230 . S
O524 Cd483 2.417 . S
O524 C517 1.239 . S
O525 Cd483 2.330 . S
O525 C517 1.230 . S
H526 C512 0.929 . S
H527 C516 0.930 1_556 S
H528 C486 0.931 1_556 S
H529 C488 0.930 . S
H530 C494 0.929 . S
H531 C496 0.921 1_554 S
H532 C503 0.925 1_554 S
H533 C505 0.930 . S
H534 C513 0.929 . S
H535 C515 0.909 1_556 S
Cd536 N539 2.334 1_655 S
Cd536 N565 2.304 . S
Cd536 O572 2.268 . S
Cd536 O575 2.273 1_655 S
Cd536 O576 2.417 . S
Cd536 O577 2.330 . S
Cd537 N552 2.304 1_455 S
Cd537 N556 2.334 . S
Cd537 O573 2.273 1_455 S
Cd537 O574 2.268 . S
Cd537 O578 2.417 . S
Cd537 O579 2.330 . S
C538 N539 1.332 . S
C538 C542 1.381 . S
C538 H544 0.931 . S
N539 Cd536 2.334 1_455 S
N539 C538 1.332 . S
N539 C543 1.328 . S
C540 C541 1.396 . S
C540 C543 1.378 . S
C540 H582 0.931 . S
C541 C540 1.396 . S
C541 C542 1.382 . S
C542 C538 1.381 . S
C542 C541 1.382 . S
C542 H583 0.930 . S
C543 N539 1.328 . S
C543 C540 1.378 . S
C543 H545 0.930 1_455 S
H544 C538 0.931 . S
H545 C543 0.930 1_655 S
C546 O572 1.238 . S
C546 O573 1.253 . S
C547 C548 1.379 . S
C547 N552 1.337 . S
C547 H553 0.929 . S
C548 C547 1.379 . S
C548 C549 1.380 . S
C548 H584 0.929 . S
C549 C548 1.380 . S
C549 C550 1.399 . S
C550 C549 1.399 . S
C550 C551 1.376 1_655 S
C550 H585 0.931 . S
C551 C550 1.376 1_455 S
C551 N552 1.338 1_455 S
C551 H554 0.930 . S
N552 Cd537 2.304 1_655 S
N552 C547 1.337 . S
N552 C551 1.338 1_655 S
H553 C547 0.929 . S
H554 C551 0.930 . S
C555 N556 1.332 . S
C555 C559 1.381 . S
C555 H561 0.931 . S
N556 Cd537 2.334 . S
N556 C555 1.332 . S
N556 C560 1.328 . S
C557 C558 1.396 . S
C557 C560 1.378 . S
C557 H586 0.931 . S
C558 C557 1.396 . S
C558 C559 1.382 . S
C559 C555 1.381 . S
C559 C558 1.382 . S
C559 H587 0.930 . S
C560 N556 1.328 . S
C560 C557 1.378 . S
C560 H562 0.930 . S
H561 C555 0.931 . S
H562 C560 0.930 . S
C563 O574 1.238 . S
C563 O575 1.253 . S
C564 O576 1.239 . S
C564 O577 1.230 . S
N565 Cd536 2.304 . S
N565 C566 1.337 . S
N565 C570 1.338 . S
C566 N565 1.337 . S
C566 C567 1.379 . S
C566 H580 0.929 . S
C567 C566 1.379 . S
C567 C568 1.380 . S
C567 H588 0.929 . S
C568 C567 1.380 . S
C568 C569 1.399 . S
C569 C568 1.399 . S
C569 C570 1.376 . S
C569 H589 0.931 . S
C570 N565 1.338 . S
C570 C569 1.376 . S
C570 H581 0.930 . S
C571 O578 1.239 . S
C571 O579 1.230 . S
O572 Cd536 2.268 . S
O572 C546 1.238 . S
O573 Cd537 2.273 1_655 S
O573 C546 1.253 . S
O574 Cd537 2.268 . S
O574 C563 1.238 . S
O575 Cd536 2.273 1_455 S
O575 C563 1.253 . S
O576 Cd536 2.417 . S
O576 C564 1.239 . S
O577 Cd536 2.330 . S
O577 C564 1.230 . S
O578 Cd537 2.417 . S
O578 C571 1.239 . S
O579 Cd537 2.330 . S
O579 C571 1.230 . S
H580 C566 0.929 . S
H581 C570 0.930 . S
H582 C540 0.931 . S
H583 C542 0.930 . S
H584 C548 0.929 . S
H585 C550 0.931 . S
H586 C557 0.931 . S
H587 C559 0.930 . S
H588 C567 0.929 . S
H589 C569 0.931 . S
Cd590 N593 2.334 . S
Cd590 N619 2.304 1_565 S
Cd590 O626 2.268 . S
Cd590 O629 2.273 1_565 S
Cd590 O630 2.417 . S
Cd590 O631 2.330 . S
Cd591 N606 2.304 . S
Cd591 N610 2.334 1_545 S
Cd591 O627 2.273 1_545 S
Cd591 O628 2.268 . S
Cd591 O632 2.417 . S
Cd591 O633 2.330 . S
C592 N593 1.332 . S
C592 C596 1.381 . S
C592 H598 0.931 . S
N593 Cd590 2.334 . S
N593 C592 1.332 . S
N593 C597 1.328 . S
C594 C595 1.396 . S
C594 C597 1.378 . S
C594 H636 0.931 . S
C595 C594 1.396 . S
C595 C596 1.382 . S
C596 C592 1.381 . S
C596 C595 1.382 . S
C596 H637 0.930 . S
C597 N593 1.328 . S
C597 C594 1.378 . S
C597 H599 0.930 . S
H598 C592 0.931 . S
H599 C597 0.930 . S
C600 O626 1.238 . S
C600 O627 1.253 . S
C601 C602 1.379 . S
C601 N606 1.337 . S
C601 H607 0.929 . S
C602 C601 1.379 . S
C602 C603 1.380 . S
C602 H638 0.929 . S
C603 C602 1.380 . S
C603 C604 1.399 . S
C604 C603 1.399 . S
C604 C605 1.376 . S
C604 H639 0.931 . S
C605 C604 1.376 . S
C605 N606 1.338 . S
C605 H608 0.930 . S
N606 Cd591 2.304 . S
N606 C601 1.337 . S
N606 C605 1.338 . S
H607 C601 0.929 . S
H608 C605 0.930 . S
C609 N610 1.332 . S
C609 C613 1.381 . S
C609 H615 0.931 . S
N610 Cd591 2.334 1_565 S
N610 C609 1.332 . S
N610 C614 1.328 . S
C611 C612 1.396 . S
C611 C614 1.378 . S
C611 H640 0.931 . S
C612 C611 1.396 . S
C612 C613 1.382 . S
C613 C609 1.381 . S
C613 C612 1.382 . S
C613 H641 0.930 . S
C614 N610 1.328 . S
C614 C611 1.378 . S
C614 H616 0.930 1_565 S
H615 C609 0.931 . S
H616 C614 0.930 1_545 S
C617 O628 1.238 . S
C617 O629 1.253 . S
C618 O630 1.239 . S
C618 O631 1.230 . S
N619 Cd590 2.304 1_545 S
N619 C620 1.337 . S
N619 C624 1.338 . S
C620 N619 1.337 . S
C620 C621 1.379 . S
C620 H634 0.929 . S
C621 C620 1.379 . S
C621 C622 1.380 . S
C621 H642 0.929 . S
C622 C621 1.380 . S
C622 C623 1.399 . S
C623 C622 1.399 . S
C623 C624 1.376 . S
C623 H643 0.931 . S
C624 N619 1.338 . S
C624 C623 1.376 . S
C624 H635 0.930 1_545 S
C625 O632 1.239 . S
C625 O633 1.230 . S
O626 Cd590 2.268 . S
O626 C600 1.238 . S
O627 Cd591 2.273 1_565 S
O627 C600 1.253 . S
O628 Cd591 2.268 . S
O628 C617 1.238 . S
O629 Cd590 2.273 1_545 S
O629 C617 1.253 . S
O630 Cd590 2.417 . S
O630 C618 1.239 . S
O631 Cd590 2.330 . S
O631 C618 1.230 . S
O632 Cd591 2.417 . S
O632 C625 1.239 . S
O633 Cd591 2.330 . S
O633 C625 1.230 . S
H634 C620 0.929 . S
H635 C624 0.930 1_565 S
H636 C594 0.931 . S
H637 C596 0.930 . S
H638 C602 0.929 . S
H639 C604 0.931 . S
H640 C611 0.931 . S
H641 C613 0.930 . S
H642 C621 0.929 . S
H643 C623 0.931 . S
H644 C656 0.930 . S
H645 C658 0.930 . S
H646 C659 0.930 . S
H647 C663 0.959 . S
H648 C663 0.959 . S
H649 C663 0.961 . S
H650 C664 0.960 . S
H651 C664 0.961 . S
H652 C664 0.959 . S
H653 C667 0.929 . S
H654 C668 0.931 . S
H655 C670 0.930 . S
C656 H644 0.930 . S
C656 C657 1.399 . S
C656 C661 1.399 . S
C657 C656 1.399 . S
C657 C658 1.376 . S
C658 H645 0.930 . S
C658 C657 1.376 . S
C658 C659 1.388 . S
C659 H646 0.930 . S
C659 C658 1.388 . S
C659 C660 1.390 . S
C660 C659 1.390 . S
C660 C661 1.394 . S
C660 C666 1.465 . S
C661 C656 1.399 . S
C661 C660 1.394 . S
C661 C662 1.516 . S
C662 C661 1.516 . S
C662 C663 1.502 . S
C662 C664 1.561 . S
C662 C665 1.526 . S
C663 H647 0.959 . S
C663 H648 0.959 . S
C663 H649 0.961 . S
C663 C662 1.502 . S
C664 H650 0.960 . S
C664 H651 0.961 . S
C664 H652 0.959 . S
C664 C662 1.561 . S
C665 C662 1.526 . S
C665 C666 1.396 . S
C665 C670 1.390 . S
C666 C660 1.465 . S
C666 C665 1.396 . S
C666 C667 1.399 . S
C667 H653 0.929 . S
C667 C666 1.399 . S
C667 C668 1.385 . S
C668 H654 0.931 . S
C668 C667 1.385 . S
C668 C669 1.389 . S
C669 C668 1.389 . S
C669 C670 1.387 . S
C670 H655 0.930 . S
C670 C665 1.390 . S
C670 C669 1.387 . S
H671 C683 0.930 . S
H672 C685 0.930 . S
H673 C686 0.930 . S
H674 C690 0.959 . S
H675 C690 0.959 . S
H676 C690 0.961 . S
H677 C691 0.960 . S
H678 C691 0.961 . S
H679 C691 0.959 . S
H680 C694 0.929 . S
H681 C695 0.931 . S
H682 C697 0.930 . S
C683 H671 0.930 . S
C683 C684 1.399 . S
C683 C688 1.399 . S
C684 C683 1.399 . S
C684 C685 1.376 . S
C685 H672 0.930 . S
C685 C684 1.376 . S
C685 C686 1.388 . S
C686 H673 0.930 . S
C686 C685 1.388 . S
C686 C687 1.390 . S
C687 C686 1.390 . S
C687 C688 1.394 . S
C687 C693 1.465 . S
C688 C683 1.399 . S
C688 C687 1.394 . S
C688 C689 1.516 . S
C689 C688 1.516 . S
C689 C690 1.502 . S
C689 C691 1.561 . S
C689 C692 1.526 . S
C690 H674 0.959 . S
C690 H675 0.959 . S
C690 H676 0.961 . S
C690 C689 1.502 . S
C691 H677 0.960 . S
C691 H678 0.961 . S
C691 H679 0.959 . S
C691 C689 1.561 . S
C692 C689 1.526 . S
C692 C693 1.396 . S
C692 C697 1.390 . S
C693 C687 1.465 . S
C693 C692 1.396 . S
C693 C694 1.399 . S
C694 H680 0.929 . S
C694 C693 1.399 . S
C694 C695 1.385 . S
C695 H681 0.931 . S
C695 C694 1.385 . S
C695 C696 1.389 . S
C696 C695 1.389 . S
C696 C697 1.387 . S
C697 H682 0.930 . S
C697 C692 1.390 . S
C697 C696 1.387 . S
H698 C710 0.930 . S
H699 C712 0.930 . S
H700 C713 0.930 . S
H701 C717 0.959 . S
H702 C717 0.959 . S
H703 C717 0.961 . S
H704 C718 0.960 . S
H705 C718 0.961 . S
H706 C718 0.959 . S
H707 C721 0.929 . S
H708 C722 0.931 . S
H709 C724 0.930 . S
C710 H698 0.930 . S
C710 C711 1.399 . S
C710 C715 1.399 . S
C711 C710 1.399 . S
C711 C712 1.376 . S
C712 H699 0.930 . S
C712 C711 1.376 . S
C712 C713 1.388 . S
C713 H700 0.930 . S
C713 C712 1.388 . S
C713 C714 1.390 . S
C714 C713 1.390 . S
C714 C715 1.394 . S
C714 C720 1.465 . S
C715 C710 1.399 . S
C715 C714 1.394 . S
C715 C716 1.516 . S
C716 C715 1.516 . S
C716 C717 1.502 . S
C716 C718 1.561 . S
C716 C719 1.526 . S
C717 H701 0.959 . S
C717 H702 0.959 . S
C717 H703 0.961 . S
C717 C716 1.502 . S
C718 H704 0.960 . S
C718 H705 0.961 . S
C718 H706 0.959 . S
C718 C716 1.561 . S
C719 C716 1.526 . S
C719 C720 1.396 . S
C719 C724 1.390 . S
C720 C714 1.465 . S
C720 C719 1.396 . S
C720 C721 1.399 . S
C721 H707 0.929 . S
C721 C720 1.399 . S
C721 C722 1.385 . S
C722 H708 0.931 . S
C722 C721 1.385 . S
C722 C723 1.389 . S
C723 C722 1.389 . S
C723 C724 1.387 . S
C724 H709 0.930 . S
C724 C719 1.390 . S
C724 C723 1.387 . S
H725 C737 0.930 . S
H726 C739 0.930 . S
H727 C740 0.930 . S
H728 C744 0.959 . S
H729 C744 0.959 . S
H730 C744 0.961 . S
H731 C745 0.960 . S
H732 C745 0.961 . S
H733 C745 0.959 . S
H734 C748 0.929 . S
H735 C749 0.931 . S
H736 C751 0.930 . S
C737 H725 0.930 . S
C737 C738 1.399 . S
C737 C742 1.399 . S
C738 C737 1.399 . S
C738 C739 1.376 . S
C739 H726 0.930 . S
C739 C738 1.376 . S
C739 C740 1.388 . S
C740 H727 0.930 . S
C740 C739 1.388 . S
C740 C741 1.390 . S
C741 C740 1.390 . S
C741 C742 1.394 . S
C741 C747 1.465 . S
C742 C737 1.399 . S
C742 C741 1.394 . S
C742 C743 1.516 . S
C743 C742 1.516 . S
C743 C744 1.502 . S
C743 C745 1.561 . S
C743 C746 1.526 . S
C744 H728 0.959 . S
C744 H729 0.959 . S
C744 H730 0.961 . S
C744 C743 1.502 . S
C745 H731 0.960 . S
C745 H732 0.961 . S
C745 H733 0.959 . S
C745 C743 1.561 . S
C746 C743 1.526 . S
C746 C747 1.396 . S
C746 C751 1.390 . S
C747 C741 1.465 . S
C747 C746 1.396 . S
C747 C748 1.399 . S
C748 H734 0.929 . S
C748 C747 1.399 . S
C748 C749 1.385 . S
C749 H735 0.931 . S
C749 C748 1.385 . S
C749 C750 1.389 . S
C750 C749 1.389 . S
C750 C751 1.387 . S
C751 H736 0.930 . S
C751 C746 1.390 . S
C751 C750 1.387 . S
H752 C764 0.930 . S
H753 C766 0.930 . S
H754 C767 0.930 . S
H755 C771 0.959 . S
H756 C771 0.959 . S
H757 C771 0.961 . S
H758 C772 0.960 . S
H759 C772 0.961 . S
H760 C772 0.959 . S
H761 C775 0.929 . S
H762 C776 0.931 . S
H763 C778 0.930 . S
C764 H752 0.930 . S
C764 C765 1.399 . S
C764 C769 1.399 . S
C765 C764 1.399 . S
C765 C766 1.376 . S
C766 H753 0.930 . S
C766 C765 1.376 . S
C766 C767 1.388 . S
C767 H754 0.930 . S
C767 C766 1.388 . S
C767 C768 1.390 . S
C768 C767 1.390 . S
C768 C769 1.394 . S
C768 C774 1.465 . S
C769 C764 1.399 . S
C769 C768 1.394 . S
C769 C770 1.516 . S
C770 C769 1.516 . S
C770 C771 1.502 . S
C770 C772 1.561 . S
C770 C773 1.526 . S
C771 H755 0.959 . S
C771 H756 0.959 . S
C771 H757 0.961 . S
C771 C770 1.502 . S
C772 H758 0.960 . S
C772 H759 0.961 . S
C772 H760 0.959 . S
C772 C770 1.561 . S
C773 C770 1.526 . S
C773 C774 1.396 . S
C773 C778 1.390 . S
C774 C768 1.465 . S
C774 C773 1.396 . S
C774 C775 1.399 . S
C775 H761 0.929 . S
C775 C774 1.399 . S
C775 C776 1.385 . S
C776 H762 0.931 . S
C776 C775 1.385 . S
C776 C777 1.389 . S
C777 C776 1.389 . S
C777 C778 1.387 . S
C778 H763 0.930 . S
C778 C773 1.390 . S
C778 C777 1.387 . S
H779 C791 0.930 . S
H780 C793 0.930 . S
H781 C794 0.930 . S
H782 C798 0.959 . S
H783 C798 0.959 . S
H784 C798 0.961 . S
H785 C799 0.960 . S
H786 C799 0.961 . S
H787 C799 0.959 . S
H788 C802 0.929 . S
H789 C803 0.931 . S
H790 C805 0.930 . S
C791 H779 0.930 . S
C791 C792 1.399 . S
C791 C796 1.399 . S
C792 C791 1.399 . S
C792 C793 1.376 . S
C793 H780 0.930 . S
C793 C792 1.376 . S
C793 C794 1.388 . S
C794 H781 0.930 . S
C794 C793 1.388 . S
C794 C795 1.390 . S
C795 C794 1.390 . S
C795 C796 1.394 . S
C795 C801 1.465 . S
C796 C791 1.399 . S
C796 C795 1.394 . S
C796 C797 1.516 . S
C797 C796 1.516 . S
C797 C798 1.502 . S
C797 C799 1.561 . S
C797 C800 1.526 . S
C798 H782 0.959 . S
C798 H783 0.959 . S
C798 H784 0.961 . S
C798 C797 1.502 . S
C799 H785 0.960 . S
C799 H786 0.961 . S
C799 H787 0.959 . S
C799 C797 1.561 . S
C800 C797 1.526 . S
C800 C801 1.396 . S
C800 C805 1.390 . S
C801 C795 1.465 . S
C801 C800 1.396 . S
C801 C802 1.399 . S
C802 H788 0.929 . S
C802 C801 1.399 . S
C802 C803 1.385 . S
C803 H789 0.931 . S
C803 C802 1.385 . S
C803 C804 1.389 . S
C804 C803 1.389 . S
C804 C805 1.387 . S
C805 H790 0.930 . S
C805 C800 1.390 . S
C805 C804 1.387 . S
H806 C818 0.930 . S
H807 C820 0.930 . S
H808 C821 0.930 . S
H809 C825 0.959 . S
H810 C825 0.959 . S
H811 C825 0.961 . S
H812 C826 0.960 . S
H813 C826 0.961 . S
H814 C826 0.959 . S
H815 C829 0.929 . S
H816 C830 0.931 . S
H817 C832 0.930 . S
C818 H806 0.930 . S
C818 C819 1.399 . S
C818 C823 1.399 . S
C819 C818 1.399 . S
C819 C820 1.376 . S
C820 H807 0.930 . S
C820 C819 1.376 . S
C820 C821 1.388 . S
C821 H808 0.930 . S
C821 C820 1.388 . S
C821 C822 1.390 . S
C822 C821 1.390 . S
C822 C823 1.394 . S
C822 C828 1.465 . S
C823 C818 1.399 . S
C823 C822 1.394 . S
C823 C824 1.516 . S
C824 C823 1.516 . S
C824 C825 1.502 . S
C824 C826 1.561 . S
C824 C827 1.526 . S
C825 H809 0.959 . S
C825 H810 0.959 . S
C825 H811 0.961 . S
C825 C824 1.502 . S
C826 H812 0.960 . S
C826 H813 0.961 . S
C826 H814 0.959 . S
C826 C824 1.561 . S
C827 C824 1.526 . S
C827 C828 1.396 . S
C827 C832 1.390 . S
C828 C822 1.465 . S
C828 C827 1.396 . S
C828 C829 1.399 . S
C829 H815 0.929 . S
C829 C828 1.399 . S
C829 C830 1.385 . S
C830 H816 0.931 . S
C830 C829 1.385 . S
C830 C831 1.389 . S
C831 C830 1.389 . S
C831 C832 1.387 . S
C832 H817 0.930 . S
C832 C827 1.390 . S
C832 C831 1.387 . S
H833 C845 0.930 . S
H834 C847 0.930 . S
H835 C848 0.930 . S
H836 C852 0.959 . S
H837 C852 0.959 . S
H838 C852 0.961 . S
H839 C853 0.960 . S
H840 C853 0.961 . S
H841 C853 0.959 . S
H842 C856 0.929 . S
H843 C857 0.931 . S
H844 C859 0.930 . S
C845 H833 0.930 . S
C845 C846 1.399 . S
C845 C850 1.399 . S
C846 C845 1.399 . S
C846 C847 1.376 . S
C847 H834 0.930 . S
C847 C846 1.376 . S
C847 C848 1.388 . S
C848 H835 0.930 . S
C848 C847 1.388 . S
C848 C849 1.390 . S
C849 C848 1.390 . S
C849 C850 1.394 . S
C849 C855 1.465 . S
C850 C845 1.399 . S
C850 C849 1.394 . S
C850 C851 1.516 . S
C851 C850 1.516 . S
C851 C852 1.502 . S
C851 C853 1.561 . S
C851 C854 1.526 . S
C852 H836 0.959 . S
C852 H837 0.959 . S
C852 H838 0.961 . S
C852 C851 1.502 . S
C853 H839 0.960 . S
C853 H840 0.961 . S
C853 H841 0.959 . S
C853 C851 1.561 . S
C854 C851 1.526 . S
C854 C855 1.396 . S
C854 C859 1.390 . S
C855 C849 1.465 . S
C855 C854 1.396 . S
C855 C856 1.399 . S
C856 H842 0.929 . S
C856 C855 1.399 . S
C856 C857 1.385 . S
C857 H843 0.931 . S
C857 C856 1.385 . S
C857 C858 1.389 . S
C858 C857 1.389 . S
C858 C859 1.387 . S
C859 H844 0.930 . S
C859 C854 1.390 . S
C859 C858 1.387 . S
H860 C872 0.930 . S
H861 C874 0.930 . S
H862 C875 0.930 . S
H863 C879 0.959 . S
H864 C879 0.959 . S
H865 C879 0.961 . S
H866 C880 0.960 . S
H867 C880 0.961 . S
H868 C880 0.959 . S
H869 C883 0.929 . S
H870 C884 0.931 . S
H871 C886 0.930 . S
C872 H860 0.930 . S
C872 C873 1.399 . S
C872 C877 1.399 . S
C873 C872 1.399 . S
C873 C874 1.376 . S
C874 H861 0.930 . S
C874 C873 1.376 . S
C874 C875 1.388 . S
C875 H862 0.930 . S
C875 C874 1.388 . S
C875 C876 1.390 . S
C876 C875 1.390 . S
C876 C877 1.394 . S
C876 C882 1.465 . S
C877 C872 1.399 . S
C877 C876 1.394 . S
C877 C878 1.516 . S
C878 C877 1.516 . S
C878 C879 1.502 . S
C878 C880 1.561 . S
C878 C881 1.526 . S
C879 H863 0.959 . S
C879 H864 0.959 . S
C879 H865 0.961 . S
C879 C878 1.502 . S
C880 H866 0.960 . S
C880 H867 0.961 . S
C880 H868 0.959 . S
C880 C878 1.561 . S
C881 C878 1.526 . S
C881 C882 1.396 . S
C881 C886 1.390 . S
C882 C876 1.465 . S
C882 C881 1.396 . S
C882 C883 1.399 . S
C883 H869 0.929 . S
C883 C882 1.399 . S
C883 C884 1.385 . S
C884 H870 0.931 . S
C884 C883 1.385 . S
C884 C885 1.389 . S
C885 C884 1.389 . S
C885 C886 1.387 . S
C886 H871 0.930 . S
C886 C881 1.390 . S
C886 C885 1.387 . S
H887 C899 0.930 . S
H888 C901 0.930 . S
H889 C902 0.930 . S
H890 C906 0.959 . S
H891 C906 0.959 . S
H892 C906 0.961 . S
H893 C907 0.960 . S
H894 C907 0.961 . S
H895 C907 0.959 . S
H896 C910 0.929 . S
H897 C911 0.931 . S
H898 C913 0.930 . S
C899 H887 0.930 . S
C899 C900 1.399 . S
C899 C904 1.399 . S
C900 C899 1.399 . S
C900 C901 1.376 . S
C901 H888 0.930 . S
C901 C900 1.376 . S
C901 C902 1.388 . S
C902 H889 0.930 . S
C902 C901 1.388 . S
C902 C903 1.390 . S
C903 C902 1.390 . S
C903 C904 1.394 . S
C903 C909 1.465 . S
C904 C899 1.399 . S
C904 C903 1.394 . S
C904 C905 1.516 . S
C905 C904 1.516 . S
C905 C906 1.502 . S
C905 C907 1.561 . S
C905 C908 1.526 . S
C906 H890 0.959 . S
C906 H891 0.959 . S
C906 H892 0.961 . S
C906 C905 1.502 . S
C907 H893 0.960 . S
C907 H894 0.961 . S
C907 H895 0.959 . S
C907 C905 1.561 . S
C908 C905 1.526 . S
C908 C909 1.396 . S
C908 C913 1.390 . S
C909 C903 1.465 . S
C909 C908 1.396 . S
C909 C910 1.399 . S
C910 H896 0.929 . S
C910 C909 1.399 . S
C910 C911 1.385 . S
C911 H897 0.931 . S
C911 C910 1.385 . S
C911 C912 1.389 . S
C912 C911 1.389 . S
C912 C913 1.387 . S
C913 H898 0.930 . S
C913 C908 1.390 . S
C913 C912 1.387 . S
H914 C926 0.930 . S
H915 C928 0.930 . S
H916 C929 0.930 . S
H917 C933 0.959 . S
H918 C933 0.959 1_556 S
H919 C933 0.961 . S
H920 C934 0.960 . S
H921 C934 0.961 . S
H922 C934 0.959 . S
H923 C937 0.929 . S
H924 C938 0.931 . S
H925 C940 0.930 . S
C926 H914 0.930 . S
C926 C927 1.399 . S
C926 C931 1.399 . S
C927 C926 1.399 . S
C927 C928 1.376 . S
C928 H915 0.930 . S
C928 C927 1.376 . S
C928 C929 1.388 . S
C929 H916 0.930 . S
C929 C928 1.388 . S
C929 C930 1.390 . S
C930 C929 1.390 . S
C930 C931 1.394 . S
C930 C936 1.465 . S
C931 C926 1.399 . S
C931 C930 1.394 . S
C931 C932 1.516 . S
C932 C931 1.516 . S
C932 C933 1.502 . S
C932 C934 1.561 . S
C932 C935 1.526 . S
C933 H917 0.959 . S
C933 H918 0.959 1_554 S
C933 H919 0.961 . S
C933 C932 1.502 . S
C934 H920 0.960 . S
C934 H921 0.961 . S
C934 H922 0.959 . S
C934 C932 1.561 . S
C935 C932 1.526 . S
C935 C936 1.396 . S
C935 C940 1.390 . S
C936 C930 1.465 . S
C936 C935 1.396 . S
C936 C937 1.399 . S
C937 H923 0.929 . S
C937 C936 1.399 . S
C937 C938 1.385 . S
C938 H924 0.931 . S
C938 C937 1.385 . S
C938 C939 1.389 . S
C939 C938 1.389 . S
C939 C940 1.387 . S
C940 H925 0.930 . S
C940 C935 1.390 . S
C940 C939 1.387 . S
H941 C953 0.930 . S
H942 C955 0.930 . S
H943 C956 0.930 . S
H944 C960 0.959 . S
H945 C960 0.959 . S
H946 C960 0.961 . S
H947 C961 0.960 . S
H948 C961 0.961 . S
H949 C961 0.959 . S
H950 C964 0.929 . S
H951 C965 0.931 . S
H952 C967 0.930 . S
C953 H941 0.930 . S
C953 C954 1.399 . S
C953 C958 1.399 . S
C954 C953 1.399 . S
C954 C955 1.376 . S
C955 H942 0.930 . S
C955 C954 1.376 . S
C955 C956 1.388 . S
C956 H943 0.930 . S
C956 C955 1.388 . S
C956 C957 1.390 . S
C957 C956 1.390 . S
C957 C958 1.394 . S
C957 C963 1.465 . S
C958 C953 1.399 . S
C958 C957 1.394 . S
C958 C959 1.516 . S
C959 C958 1.516 . S
C959 C960 1.502 . S
C959 C961 1.561 . S
C959 C962 1.526 . S
C960 H944 0.959 . S
C960 H945 0.959 . S
C960 H946 0.961 . S
C960 C959 1.502 . S
C961 H947 0.960 . S
C961 H948 0.961 . S
C961 H949 0.959 . S
C961 C959 1.561 . S
C962 C959 1.526 . S
C962 C963 1.396 . S
C962 C967 1.390 . S
C963 C957 1.465 . S
C963 C962 1.396 . S
C963 C964 1.399 . S
C964 H950 0.929 . S
C964 C963 1.399 . S
C964 C965 1.385 . S
C965 H951 0.931 . S
C965 C964 1.385 . S
C965 C966 1.389 . S
C966 C965 1.389 . S
C966 C967 1.387 . S
C967 H952 0.930 . S
C967 C962 1.390 . S
C967 C966 1.387 . S
H968 C980 0.930 . S
H969 C982 0.930 . S
H970 C983 0.930 . S
H971 C987 0.959 . S
H972 C987 0.959 . S
H973 C987 0.961 . S
H974 C988 0.960 . S
H975 C988 0.961 . S
H976 C988 0.959 . S
H977 C991 0.929 . S
H978 C992 0.931 . S
H979 C994 0.930 . S
C980 H968 0.930 . S
C980 C981 1.399 . S
C980 C985 1.399 . S
C981 C980 1.399 . S
C981 C982 1.376 . S
C982 H969 0.930 . S
C982 C981 1.376 . S
C982 C983 1.388 . S
C983 H970 0.930 . S
C983 C982 1.388 . S
C983 C984 1.390 . S
C984 C983 1.390 . S
C984 C985 1.394 . S
C984 C990 1.465 . S
C985 C980 1.399 . S
C985 C984 1.394 . S
C985 C986 1.516 . S
C986 C985 1.516 . S
C986 C987 1.502 . S
C986 C988 1.561 . S
C986 C989 1.526 . S
C987 H971 0.959 . S
C987 H972 0.959 . S
C987 H973 0.961 . S
C987 C986 1.502 . S
C988 H974 0.960 . S
C988 H975 0.961 . S
C988 H976 0.959 . S
C988 C986 1.561 . S
C989 C986 1.526 . S
C989 C990 1.396 . S
C989 C994 1.390 . S
C990 C984 1.465 . S
C990 C989 1.396 . S
C990 C991 1.399 . S
C991 H977 0.929 . S
C991 C990 1.399 . S
C991 C992 1.385 . S
C992 H978 0.931 . S
C992 C991 1.385 . S
C992 C993 1.389 . S
C993 C992 1.389 . S
C993 C994 1.387 . S
C994 H979 0.930 . S
C994 C989 1.390 . S
C994 C993 1.387 . S
H995 C1007 0.930 . S
H996 C1009 0.930 . S
H997 C1010 0.930 . S
H998 C1014 0.959 . S
H999 C1014 0.959 . S
H1000 C1014 0.961 . S
H1001 C1015 0.960 . S
H1002 C1015 0.961 . S
H1003 C1015 0.959 . S
H1004 C1018 0.929 . S
H1005 C1019 0.931 . S
H1006 C1021 0.930 . S
C1007 H995 0.930 . S
C1007 C1008 1.399 . S
C1007 C1012 1.399 . S
C1008 C1007 1.399 . S
C1008 C1009 1.376 . S
C1009 H996 0.930 . S
C1009 C1008 1.376 . S
C1009 C1010 1.388 . S
C1010 H997 0.930 . S
C1010 C1009 1.388 . S
C1010 C1011 1.390 . S
C1011 C1010 1.390 . S
C1011 C1012 1.394 . S
C1011 C1017 1.465 . S
C1012 C1007 1.399 . S
C1012 C1011 1.394 . S
C1012 C1013 1.516 . S
C1013 C1012 1.516 . S
C1013 C1014 1.502 . S
C1013 C1015 1.561 . S
C1013 C1016 1.526 . S
C1014 H998 0.959 . S
C1014 H999 0.959 . S
C1014 H1000 0.961 . S
C1014 C1013 1.502 . S
C1015 H1001 0.960 . S
C1015 H1002 0.961 . S
C1015 H1003 0.959 . S
C1015 C1013 1.561 . S
C1016 C1013 1.526 . S
C1016 C1017 1.396 . S
C1016 C1021 1.390 . S
C1017 C1011 1.465 . S
C1017 C1016 1.396 . S
C1017 C1018 1.399 . S
C1018 H1004 0.929 . S
C1018 C1017 1.399 . S
C1018 C1019 1.385 . S
C1019 H1005 0.931 . S
C1019 C1018 1.385 . S
C1019 C1020 1.389 . S
C1020 C1019 1.389 . S
C1020 C1021 1.387 . S
C1021 H1006 0.930 . S
C1021 C1016 1.390 . S
C1021 C1020 1.387 . S
H1022 C1034 0.930 . S
H1023 C1036 0.930 . S
H1024 C1037 0.930 . S
H1025 C1041 0.959 . S
H1026 C1041 0.959 . S
H1027 C1041 0.961 . S
H1028 C1042 0.960 . S
H1029 C1042 0.961 . S
H1030 C1042 0.959 . S
H1031 C1045 0.929 . S
H1032 C1046 0.931 . S
H1033 C1048 0.930 . S
C1034 H1022 0.930 . S
C1034 C1035 1.399 . S
C1034 C1039 1.399 . S
C1035 C1034 1.399 . S
C1035 C1036 1.376 . S
C1036 H1023 0.930 . S
C1036 C1035 1.376 . S
C1036 C1037 1.388 . S
C1037 H1024 0.930 . S
C1037 C1036 1.388 . S
C1037 C1038 1.390 . S
C1038 C1037 1.390 . S
C1038 C1039 1.394 . S
C1038 C1044 1.465 . S
C1039 C1034 1.399 . S
C1039 C1038 1.394 . S
C1039 C1040 1.516 . S
C1040 C1039 1.516 . S
C1040 C1041 1.502 . S
C1040 C1042 1.561 . S
C1040 C1043 1.526 . S
C1041 H1025 0.959 . S
C1041 H1026 0.959 . S
C1041 H1027 0.961 . S
C1041 C1040 1.502 . S
C1042 H1028 0.960 . S
C1042 H1029 0.961 . S
C1042 H1030 0.959 . S
C1042 C1040 1.561 . S
C1043 C1040 1.526 . S
C1043 C1044 1.396 . S
C1043 C1048 1.390 . S
C1044 C1038 1.465 . S
C1044 C1043 1.396 . S
C1044 C1045 1.399 . S
C1045 H1031 0.929 . S
C1045 C1044 1.399 . S
C1045 C1046 1.385 . S
C1046 H1032 0.931 . S
C1046 C1045 1.385 . S
C1046 C1047 1.389 . S
C1047 C1046 1.389 . S
C1047 C1048 1.387 . S
C1048 H1033 0.930 . S
C1048 C1043 1.390 . S
C1048 C1047 1.387 . S
H1049 C1061 0.930 . S
H1050 C1063 0.930 . S
H1051 C1064 0.930 . S
H1052 C1068 0.959 . S
H1053 C1068 0.959 . S
H1054 C1068 0.961 . S
H1055 C1069 0.960 . S
H1056 C1069 0.961 1_554 S
H1057 C1069 0.959 . S
H1058 C1072 0.929 . S
H1059 C1073 0.931 . S
H1060 C1075 0.930 . S
C1061 H1049 0.930 . S
C1061 C1062 1.399 . S
C1061 C1066 1.399 . S
C1062 C1061 1.399 . S
C1062 C1063 1.376 . S
C1063 H1050 0.930 . S
C1063 C1062 1.376 . S
C1063 C1064 1.388 . S
C1064 H1051 0.930 . S
C1064 C1063 1.388 . S
C1064 C1065 1.390 . S
C1065 C1064 1.390 . S
C1065 C1066 1.394 . S
C1065 C1071 1.465 . S
C1066 C1061 1.399 . S
C1066 C1065 1.394 . S
C1066 C1067 1.516 . S
C1067 C1066 1.516 . S
C1067 C1068 1.502 . S
C1067 C1069 1.561 . S
C1067 C1070 1.526 . S
C1068 H1052 0.959 . S
C1068 H1053 0.959 . S
C1068 H1054 0.961 . S
C1068 C1067 1.502 . S
C1069 H1055 0.960 . S
C1069 H1056 0.961 1_556 S
C1069 H1057 0.959 . S
C1069 C1067 1.561 . S
C1070 C1067 1.526 . S
C1070 C1071 1.396 . S
C1070 C1075 1.390 . S
C1071 C1065 1.465 . S
C1071 C1070 1.396 . S
C1071 C1072 1.399 . S
C1072 H1058 0.929 . S
C1072 C1071 1.399 . S
C1072 C1073 1.385 . S
C1073 H1059 0.931 . S
C1073 C1072 1.385 . S
C1073 C1074 1.389 . S
C1074 C1073 1.389 . S
C1074 C1075 1.387 . S
C1075 H1060 0.930 . S
C1075 C1070 1.390 . S
C1075 C1074 1.387 . S
H1076 C1088 0.930 . S
H1077 C1090 0.930 . S
H1078 C1091 0.930 . S
H1079 C1095 0.959 . S
H1080 C1095 0.959 1_556 S
H1081 C1095 0.961 . S
H1082 C1096 0.960 . S
H1083 C1096 0.961 . S
H1084 C1096 0.959 . S
H1085 C1099 0.929 . S
H1086 C1100 0.931 . S
H1087 C1102 0.930 . S
C1088 H1076 0.930 . S
C1088 C1089 1.399 . S
C1088 C1093 1.399 . S
C1089 C1088 1.399 . S
C1089 C1090 1.376 . S
C1090 H1077 0.930 . S
C1090 C1089 1.376 . S
C1090 C1091 1.388 . S
C1091 H1078 0.930 . S
C1091 C1090 1.388 . S
C1091 C1092 1.390 . S
C1092 C1091 1.390 . S
C1092 C1093 1.394 . S
C1092 C1098 1.465 . S
C1093 C1088 1.399 . S
C1093 C1092 1.394 . S
C1093 C1094 1.516 . S
C1094 C1093 1.516 . S
C1094 C1095 1.502 . S
C1094 C1096 1.561 . S
C1094 C1097 1.526 . S
C1095 H1079 0.959 . S
C1095 H1080 0.959 1_554 S
C1095 H1081 0.961 . S
C1095 C1094 1.502 . S
C1096 H1082 0.960 . S
C1096 H1083 0.961 . S
C1096 H1084 0.959 . S
C1096 C1094 1.561 . S
C1097 C1094 1.526 . S
C1097 C1098 1.396 . S
C1097 C1102 1.390 . S
C1098 C1092 1.465 . S
C1098 C1097 1.396 . S
C1098 C1099 1.399 . S
C1099 H1085 0.929 . S
C1099 C1098 1.399 . S
C1099 C1100 1.385 . S
C1100 H1086 0.931 . S
C1100 C1099 1.385 . S
C1100 C1101 1.389 . S
C1101 C1100 1.389 . S
C1101 C1102 1.387 . S
C1102 H1087 0.930 . S
C1102 C1097 1.390 . S
C1102 C1101 1.387 . S
H1103 C1115 0.930 . S
H1104 C1117 0.930 . S
H1105 C1118 0.930 . S
H1106 C1122 0.959 . S
H1107 C1122 0.959 . S
H1108 C1122 0.961 . S
H1109 C1123 0.960 . S
H1110 C1123 0.961 . S
H1111 C1123 0.959 . S
H1112 C1126 0.929 . S
H1113 C1127 0.931 . S
H1114 C1129 0.930 . S
C1115 H1103 0.930 . S
C1115 C1116 1.399 . S
C1115 C1120 1.399 . S
C1116 C1115 1.399 . S
C1116 C1117 1.376 . S
C1117 H1104 0.930 . S
C1117 C1116 1.376 . S
C1117 C1118 1.388 . S
C1118 H1105 0.930 . S
C1118 C1117 1.388 . S
C1118 C1119 1.390 . S
C1119 C1118 1.390 . S
C1119 C1120 1.394 . S
C1119 C1125 1.465 . S
C1120 C1115 1.399 . S
C1120 C1119 1.394 . S
C1120 C1121 1.516 . S
C1121 C1120 1.516 . S
C1121 C1122 1.502 . S
C1121 C1123 1.561 . S
C1121 C1124 1.526 . S
C1122 H1106 0.959 . S
C1122 H1107 0.959 . S
C1122 H1108 0.961 . S
C1122 C1121 1.502 . S
C1123 H1109 0.960 . S
C1123 H1110 0.961 . S
C1123 H1111 0.959 . S
C1123 C1121 1.561 . S
C1124 C1121 1.526 . S
C1124 C1125 1.396 . S
C1124 C1129 1.390 . S
C1125 C1119 1.465 . S
C1125 C1124 1.396 . S
C1125 C1126 1.399 . S
C1126 H1112 0.929 . S
C1126 C1125 1.399 . S
C1126 C1127 1.385 . S
C1127 H1113 0.931 . S
C1127 C1126 1.385 . S
C1127 C1128 1.389 . S
C1128 C1127 1.389 . S
C1128 C1129 1.387 . S
C1129 H1114 0.930 . S
C1129 C1124 1.390 . S
C1129 C1128 1.387 . S
H1130 C1142 0.930 . S
H1131 C1144 0.930 . S
H1132 C1145 0.930 . S
H1133 C1149 0.959 . S
H1134 C1149 0.959 . S
H1135 C1149 0.961 . S
H1136 C1150 0.960 . S
H1137 C1150 0.961 . S
H1138 C1150 0.959 . S
H1139 C1153 0.929 . S
H1140 C1154 0.931 . S
H1141 C1156 0.930 . S
C1142 H1130 0.930 . S
C1142 C1143 1.399 . S
C1142 C1147 1.399 . S
C1143 C1142 1.399 . S
C1143 C1144 1.376 . S
C1144 H1131 0.930 . S
C1144 C1143 1.376 . S
C1144 C1145 1.388 . S
C1145 H1132 0.930 . S
C1145 C1144 1.388 . S
C1145 C1146 1.390 . S
C1146 C1145 1.390 . S
C1146 C1147 1.394 . S
C1146 C1152 1.465 . S
C1147 C1142 1.399 . S
C1147 C1146 1.394 . S
C1147 C1148 1.516 . S
C1148 C1147 1.516 . S
C1148 C1149 1.502 . S
C1148 C1150 1.561 . S
C1148 C1151 1.526 . S
C1149 H1133 0.959 . S
C1149 H1134 0.959 . S
C1149 H1135 0.961 . S
C1149 C1148 1.502 . S
C1150 H1136 0.960 . S
C1150 H1137 0.961 . S
C1150 H1138 0.959 . S
C1150 C1148 1.561 . S
C1151 C1148 1.526 . S
C1151 C1152 1.396 . S
C1151 C1156 1.390 . S
C1152 C1146 1.465 . S
C1152 C1151 1.396 . S
C1152 C1153 1.399 . S
C1153 H1139 0.929 . S
C1153 C1152 1.399 . S
C1153 C1154 1.385 . S
C1154 H1140 0.931 . S
C1154 C1153 1.385 . S
C1154 C1155 1.389 . S
C1155 C1154 1.389 . S
C1155 C1156 1.387 . S
C1156 H1141 0.930 . S
C1156 C1151 1.390 . S
C1156 C1155 1.387 . S
H1157 C1169 0.930 . S
H1158 C1171 0.930 . S
H1159 C1172 0.930 . S
H1160 C1176 0.959 . S
H1161 C1176 0.959 . S
H1162 C1176 0.961 . S
H1163 C1177 0.960 . S
H1164 C1177 0.961 . S
H1165 C1177 0.959 . S
H1166 C1180 0.929 . S
H1167 C1181 0.931 . S
H1168 C1183 0.930 . S
C1169 H1157 0.930 . S
C1169 C1170 1.399 . S
C1169 C1174 1.399 . S
C1170 C1169 1.399 . S
C1170 C1171 1.376 . S
C1171 H1158 0.930 . S
C1171 C1170 1.376 . S
C1171 C1172 1.388 . S
C1172 H1159 0.930 . S
C1172 C1171 1.388 . S
C1172 C1173 1.390 . S
C1173 C1172 1.390 . S
C1173 C1174 1.394 . S
C1173 C1179 1.465 . S
C1174 C1169 1.399 . S
C1174 C1173 1.394 . S
C1174 C1175 1.516 . S
C1175 C1174 1.516 . S
C1175 C1176 1.502 . S
C1175 C1177 1.561 . S
C1175 C1178 1.526 . S
C1176 H1160 0.959 . S
C1176 H1161 0.959 . S
C1176 H1162 0.961 . S
C1176 C1175 1.502 . S
C1177 H1163 0.960 . S
C1177 H1164 0.961 . S
C1177 H1165 0.959 . S
C1177 C1175 1.561 . S
C1178 C1175 1.526 . S
C1178 C1179 1.396 . S
C1178 C1183 1.390 . S
C1179 C1173 1.465 . S
C1179 C1178 1.396 . S
C1179 C1180 1.399 . S
C1180 H1166 0.929 . S
C1180 C1179 1.399 . S
C1180 C1181 1.385 . S
C1181 H1167 0.931 . S
C1181 C1180 1.385 . S
C1181 C1182 1.389 . S
C1182 C1181 1.389 . S
C1182 C1183 1.387 . S
C1183 H1168 0.930 . S
C1183 C1178 1.390 . S
C1183 C1182 1.387 . S
H1184 C1196 0.930 . S
H1185 C1198 0.930 . S
H1186 C1199 0.930 . S
H1187 C1203 0.959 . S
H1188 C1203 0.959 . S
H1189 C1203 0.961 . S
H1190 C1204 0.960 . S
H1191 C1204 0.961 . S
H1192 C1204 0.959 . S
H1193 C1207 0.929 . S
H1194 C1208 0.931 . S
H1195 C1210 0.930 . S
C1196 H1184 0.930 . S
C1196 C1197 1.399 . S
C1196 C1201 1.399 . S
C1197 C1196 1.399 . S
C1197 C1198 1.376 . S
C1198 H1185 0.930 . S
C1198 C1197 1.376 . S
C1198 C1199 1.388 . S
C1199 H1186 0.930 . S
C1199 C1198 1.388 . S
C1199 C1200 1.390 . S
C1200 C1199 1.390 . S
C1200 C1201 1.394 . S
C1200 C1206 1.465 . S
C1201 C1196 1.399 . S
C1201 C1200 1.394 . S
C1201 C1202 1.516 . S
C1202 C1201 1.516 . S
C1202 C1203 1.502 . S
C1202 C1204 1.561 . S
C1202 C1205 1.526 . S
C1203 H1187 0.959 . S
C1203 H1188 0.959 . S
C1203 H1189 0.961 . S
C1203 C1202 1.502 . S
C1204 H1190 0.960 . S
C1204 H1191 0.961 . S
C1204 H1192 0.959 . S
C1204 C1202 1.561 . S
C1205 C1202 1.526 . S
C1205 C1206 1.396 . S
C1205 C1210 1.390 . S
C1206 C1200 1.465 . S
C1206 C1205 1.396 . S
C1206 C1207 1.399 . S
C1207 H1193 0.929 . S
C1207 C1206 1.399 . S
C1207 C1208 1.385 . S
C1208 H1194 0.931 . S
C1208 C1207 1.385 . S
C1208 C1209 1.389 . S
C1209 C1208 1.389 . S
C1209 C1210 1.387 . S
C1210 H1195 0.930 . S
C1210 C1205 1.390 . S
C1210 C1209 1.387 . S
H1211 C1223 0.930 . S
H1212 C1225 0.930 . S
H1213 C1226 0.930 . S
H1214 C1230 0.959 . S
H1215 C1230 0.959 . S
H1216 C1230 0.961 . S
H1217 C1231 0.960 . S
H1218 C1231 0.961 . S
H1219 C1231 0.959 . S
H1220 C1234 0.929 . S
H1221 C1235 0.931 . S
H1222 C1237 0.930 . S
C1223 H1211 0.930 . S
C1223 C1224 1.399 . S
C1223 C1228 1.399 . S
C1224 C1223 1.399 . S
C1224 C1225 1.376 . S
C1225 H1212 0.930 . S
C1225 C1224 1.376 . S
C1225 C1226 1.388 . S
C1226 H1213 0.930 . S
C1226 C1225 1.388 . S
C1226 C1227 1.390 . S
C1227 C1226 1.390 . S
C1227 C1228 1.394 . S
C1227 C1233 1.465 . S
C1228 C1223 1.399 . S
C1228 C1227 1.394 . S
C1228 C1229 1.516 . S
C1229 C1228 1.516 . S
C1229 C1230 1.502 . S
C1229 C1231 1.561 . S
C1229 C1232 1.526 . S
C1230 H1214 0.959 . S
C1230 H1215 0.959 . S
C1230 H1216 0.961 . S
C1230 C1229 1.502 . S
C1231 H1217 0.960 . S
C1231 H1218 0.961 . S
C1231 H1219 0.959 . S
C1231 C1229 1.561 . S
C1232 C1229 1.526 . S
C1232 C1233 1.396 . S
C1232 C1237 1.390 . S
C1233 C1227 1.465 . S
C1233 C1232 1.396 . S
C1233 C1234 1.399 . S
C1234 H1220 0.929 . S
C1234 C1233 1.399 . S
C1234 C1235 1.385 . S
C1235 H1221 0.931 . S
C1235 C1234 1.385 . S
C1235 C1236 1.389 . S
C1236 C1235 1.389 . S
C1236 C1237 1.387 . S
C1237 H1222 0.930 . S
C1237 C1232 1.390 . S
C1237 C1236 1.387 . S
H1238 C1250 0.930 . S
H1239 C1252 0.930 . S
H1240 C1253 0.930 . S
H1241 C1257 0.959 . S
H1242 C1257 0.959 . S
H1243 C1257 0.961 . S
H1244 C1258 0.960 . S
H1245 C1258 0.961 . S
H1246 C1258 0.959 . S
H1247 C1261 0.929 . S
H1248 C1262 0.931 . S
H1249 C1264 0.930 . S
C1250 H1238 0.930 . S
C1250 C1251 1.399 . S
C1250 C1255 1.399 . S
C1251 C1250 1.399 . S
C1251 C1252 1.376 . S
C1252 H1239 0.930 . S
C1252 C1251 1.376 . S
C1252 C1253 1.388 . S
C1253 H1240 0.930 . S
C1253 C1252 1.388 . S
C1253 C1254 1.390 . S
C1254 C1253 1.390 . S
C1254 C1255 1.394 . S
C1254 C1260 1.465 . S
C1255 C1250 1.399 . S
C1255 C1254 1.394 . S
C1255 C1256 1.516 . S
C1256 C1255 1.516 . S
C1256 C1257 1.502 . S
C1256 C1258 1.561 . S
C1256 C1259 1.526 . S
C1257 H1241 0.959 . S
C1257 H1242 0.959 . S
C1257 H1243 0.961 . S
C1257 C1256 1.502 . S
C1258 H1244 0.960 . S
C1258 H1245 0.961 . S
C1258 H1246 0.959 . S
C1258 C1256 1.561 . S
C1259 C1256 1.526 . S
C1259 C1260 1.396 . S
C1259 C1264 1.390 . S
C1260 C1254 1.465 . S
C1260 C1259 1.396 . S
C1260 C1261 1.399 . S
C1261 H1247 0.929 . S
C1261 C1260 1.399 . S
C1261 C1262 1.385 . S
C1262 H1248 0.931 . S
C1262 C1261 1.385 . S
C1262 C1263 1.389 . S
C1263 C1262 1.389 . S
C1263 C1264 1.387 . S
C1264 H1249 0.930 . S
C1264 C1259 1.390 . S
C1264 C1263 1.387 . S
H1265 C1277 0.930 . S
H1266 C1279 0.930 . S
H1267 C1280 0.930 . S
H1268 C1284 0.959 . S
H1269 C1284 0.959 . S
H1270 C1284 0.961 . S
H1271 C1285 0.960 . S
H1272 C1285 0.961 . S
H1273 C1285 0.959 . S
H1274 C1288 0.929 . S
H1275 C1289 0.931 . S
H1276 C1291 0.930 . S
C1277 H1265 0.930 . S
C1277 C1278 1.399 . S
C1277 C1282 1.399 . S
C1278 C1277 1.399 . S
C1278 C1279 1.376 . S
C1279 H1266 0.930 . S
C1279 C1278 1.376 . S
C1279 C1280 1.388 . S
C1280 H1267 0.930 . S
C1280 C1279 1.388 . S
C1280 C1281 1.390 . S
C1281 C1280 1.390 . S
C1281 C1282 1.394 . S
C1281 C1287 1.465 . S
C1282 C1277 1.399 . S
C1282 C1281 1.394 . S
C1282 C1283 1.516 . S
C1283 C1282 1.516 . S
C1283 C1284 1.502 . S
C1283 C1285 1.561 . S
C1283 C1286 1.526 . S
C1284 H1268 0.959 . S
C1284 H1269 0.959 . S
C1284 H1270 0.961 . S
C1284 C1283 1.502 . S
C1285 H1271 0.960 . S
C1285 H1272 0.961 . S
C1285 H1273 0.959 . S
C1285 C1283 1.561 . S
C1286 C1283 1.526 . S
C1286 C1287 1.396 . S
C1286 C1291 1.390 . S
C1287 C1281 1.465 . S
C1287 C1286 1.396 . S
C1287 C1288 1.399 . S
C1288 H1274 0.929 . S
C1288 C1287 1.399 . S
C1288 C1289 1.385 . S
C1289 H1275 0.931 . S
C1289 C1288 1.385 . S
C1289 C1290 1.389 . S
C1290 C1289 1.389 . S
C1290 C1291 1.387 . S
C1291 H1276 0.930 . S
C1291 C1286 1.390 . S
C1291 C1290 1.387 . S
H1292 C1304 0.930 . S
H1293 C1306 0.930 . S
H1294 C1307 0.930 . S
H1295 C1311 0.959 . S
H1296 C1311 0.959 . S
H1297 C1311 0.961 . S
H1298 C1312 0.960 . S
H1299 C1312 0.961 . S
H1300 C1312 0.959 . S
H1301 C1315 0.929 . S
H1302 C1316 0.931 . S
H1303 C1318 0.930 . S
C1304 H1292 0.930 . S
C1304 C1305 1.399 . S
C1304 C1309 1.399 . S
C1305 C1304 1.399 . S
C1305 C1306 1.376 . S
C1306 H1293 0.930 . S
C1306 C1305 1.376 . S
C1306 C1307 1.388 . S
C1307 H1294 0.930 . S
C1307 C1306 1.388 . S
C1307 C1308 1.390 . S
C1308 C1307 1.390 . S
C1308 C1309 1.394 . S
C1308 C1314 1.465 . S
C1309 C1304 1.399 . S
C1309 C1308 1.394 . S
C1309 C1310 1.516 . S
C1310 C1309 1.516 . S
C1310 C1311 1.502 . S
C1310 C1312 1.561 . S
C1310 C1313 1.526 . S
C1311 H1295 0.959 . S
C1311 H1296 0.959 . S
C1311 H1297 0.961 . S
C1311 C1310 1.502 . S
C1312 H1298 0.960 . S
C1312 H1299 0.961 . S
C1312 H1300 0.959 . S
C1312 C1310 1.561 . S
C1313 C1310 1.526 . S
C1313 C1314 1.396 . S
C1313 C1318 1.390 . S
C1314 C1308 1.465 . S
C1314 C1313 1.396 . S
C1314 C1315 1.399 . S
C1315 H1301 0.929 . S
C1315 C1314 1.399 . S
C1315 C1316 1.385 . S
C1316 H1302 0.931 . S
C1316 C1315 1.385 . S
C1316 C1317 1.389 . S
C1317 C1316 1.389 . S
C1317 C1318 1.387 . S
C1318 H1303 0.930 . S
C1318 C1313 1.390 . S
C1318 C1317 1.387 . S
H1319 C1331 0.930 . S
H1320 C1333 0.930 . S
H1321 C1334 0.930 . S
H1322 C1338 0.959 . S
H1323 C1338 0.959 . S
H1324 C1338 0.961 . S
H1325 C1339 0.960 . S
H1326 C1339 0.961 . S
H1327 C1339 0.959 . S
H1328 C1342 0.929 . S
H1329 C1343 0.931 . S
H1330 C1345 0.930 . S
C1331 H1319 0.930 . S
C1331 C1332 1.399 . S
C1331 C1336 1.399 . S
C1332 C1331 1.399 . S
C1332 C1333 1.376 . S
C1333 H1320 0.930 . S
C1333 C1332 1.376 . S
C1333 C1334 1.388 . S
C1334 H1321 0.930 . S
C1334 C1333 1.388 . S
C1334 C1335 1.390 . S
C1335 C1334 1.390 . S
C1335 C1336 1.394 . S
C1335 C1341 1.465 . S
C1336 C1331 1.399 . S
C1336 C1335 1.394 . S
C1336 C1337 1.516 . S
C1337 C1336 1.516 . S
C1337 C1338 1.502 . S
C1337 C1339 1.561 . S
C1337 C1340 1.526 . S
C1338 H1322 0.959 . S
C1338 H1323 0.959 . S
C1338 H1324 0.961 . S
C1338 C1337 1.502 . S
C1339 H1325 0.960 . S
C1339 H1326 0.961 . S
C1339 H1327 0.959 . S
C1339 C1337 1.561 . S
C1340 C1337 1.526 . S
C1340 C1341 1.396 . S
C1340 C1345 1.390 . S
C1341 C1335 1.465 . S
C1341 C1340 1.396 . S
C1341 C1342 1.399 . S
C1342 H1328 0.929 . S
C1342 C1341 1.399 . S
C1342 C1343 1.385 . S
C1343 H1329 0.931 . S
C1343 C1342 1.385 . S
C1343 C1344 1.389 . S
C1344 C1343 1.389 . S
C1344 C1345 1.387 . S
C1345 H1330 0.930 . S
C1345 C1340 1.390 . S
C1345 C1344 1.387 . S
H1346 C1358 0.930 . S
H1347 C1360 0.930 . S
H1348 C1361 0.930 . S
H1349 C1365 0.959 . S
H1350 C1365 0.959 . S
H1351 C1365 0.961 . S
H1352 C1366 0.960 . S
H1353 C1366 0.961 . S
H1354 C1366 0.959 . S
H1355 C1369 0.929 . S
H1356 C1370 0.931 . S
H1357 C1372 0.930 . S
C1358 H1346 0.930 . S
C1358 C1359 1.399 . S
C1358 C1363 1.399 . S
C1359 C1358 1.399 . S
C1359 C1360 1.376 . S
C1360 H1347 0.930 . S
C1360 C1359 1.376 . S
C1360 C1361 1.388 . S
C1361 H1348 0.930 . S
C1361 C1360 1.388 . S
C1361 C1362 1.390 . S
C1362 C1361 1.390 . S
C1362 C1363 1.394 . S
C1362 C1368 1.465 . S
C1363 C1358 1.399 . S
C1363 C1362 1.394 . S
C1363 C1364 1.516 . S
C1364 C1363 1.516 . S
C1364 C1365 1.502 . S
C1364 C1366 1.561 . S
C1364 C1367 1.526 . S
C1365 H1349 0.959 . S
C1365 H1350 0.959 . S
C1365 H1351 0.961 . S
C1365 C1364 1.502 . S
C1366 H1352 0.960 . S
C1366 H1353 0.961 . S
C1366 H1354 0.959 . S
C1366 C1364 1.561 . S
C1367 C1364 1.526 . S
C1367 C1368 1.396 . S
C1367 C1372 1.390 . S
C1368 C1362 1.465 . S
C1368 C1367 1.396 . S
C1368 C1369 1.399 . S
C1369 H1355 0.929 . S
C1369 C1368 1.399 . S
C1369 C1370 1.385 . S
C1370 H1356 0.931 . S
C1370 C1369 1.385 . S
C1370 C1371 1.389 . S
C1371 C1370 1.389 . S
C1371 C1372 1.387 . S
C1372 H1357 0.930 . S
C1372 C1367 1.390 . S
C1372 C1371 1.387 . S
H1373 C1385 0.930 . S
H1374 C1387 0.930 . S
H1375 C1388 0.930 . S
H1376 C1392 0.959 . S
H1377 C1392 0.959 . S
H1378 C1392 0.961 . S
H1379 C1393 0.960 . S
H1380 C1393 0.961 . S
H1381 C1393 0.959 . S
H1382 C1396 0.929 . S
H1383 C1397 0.931 1_554 S
H1384 C1399 0.930 . S
C1385 H1373 0.930 . S
C1385 C1386 1.399 . S
C1385 C1390 1.399 . S
C1386 C1385 1.399 . S
C1386 C1387 1.376 . S
C1387 H1374 0.930 . S
C1387 C1386 1.376 . S
C1387 C1388 1.388 . S
C1388 H1375 0.930 . S
C1388 C1387 1.388 . S
C1388 C1389 1.390 . S
C1389 C1388 1.390 . S
C1389 C1390 1.394 . S
C1389 C1395 1.465 . S
C1390 C1385 1.399 . S
C1390 C1389 1.394 . S
C1390 C1391 1.516 . S
C1391 C1390 1.516 . S
C1391 C1392 1.502 . S
C1391 C1393 1.561 . S
C1391 C1394 1.526 . S
C1392 H1376 0.959 . S
C1392 H1377 0.959 . S
C1392 H1378 0.961 . S
C1392 C1391 1.502 . S
C1393 H1379 0.960 . S
C1393 H1380 0.961 . S
C1393 H1381 0.959 . S
C1393 C1391 1.561 . S
C1394 C1391 1.526 . S
C1394 C1395 1.396 . S
C1394 C1399 1.390 . S
C1395 C1389 1.465 . S
C1395 C1394 1.396 . S
C1395 C1396 1.399 . S
C1396 H1382 0.929 . S
C1396 C1395 1.399 . S
C1396 C1397 1.385 . S
C1397 H1383 0.931 1_556 S
C1397 C1396 1.385 . S
C1397 C1398 1.389 . S
C1398 C1397 1.389 . S
C1398 C1399 1.387 . S
C1399 H1384 0.930 . S
C1399 C1394 1.390 . S
C1399 C1398 1.387 . S
H1400 C1412 0.930 . S
H1401 C1414 0.930 . S
H1402 C1415 0.930 . S
H1403 C1419 0.959 . S
H1404 C1419 0.959 . S
H1405 C1419 0.961 . S
H1406 C1420 0.960 . S
H1407 C1420 0.961 . S
H1408 C1420 0.959 . S
H1409 C1423 0.929 . S
H1410 C1424 0.931 1_556 S
H1411 C1426 0.930 . S
C1412 H1400 0.930 . S
C1412 C1413 1.399 . S
C1412 C1417 1.399 . S
C1413 C1412 1.399 . S
C1413 C1414 1.376 . S
C1414 H1401 0.930 . S
C1414 C1413 1.376 . S
C1414 C1415 1.388 . S
C1415 H1402 0.930 . S
C1415 C1414 1.388 . S
C1415 C1416 1.390 . S
C1416 C1415 1.390 . S
C1416 C1417 1.394 . S
C1416 C1422 1.465 . S
C1417 C1412 1.399 . S
C1417 C1416 1.394 . S
C1417 C1418 1.516 . S
C1418 C1417 1.516 . S
C1418 C1419 1.502 . S
C1418 C1420 1.561 . S
C1418 C1421 1.526 . S
C1419 H1403 0.959 . S
C1419 H1404 0.959 . S
C1419 H1405 0.961 . S
C1419 C1418 1.502 . S
C1420 H1406 0.960 . S
C1420 H1407 0.961 . S
C1420 H1408 0.959 . S
C1420 C1418 1.561 . S
C1421 C1418 1.526 . S
C1421 C1422 1.396 . S
C1421 C1426 1.390 . S
C1422 C1416 1.465 . S
C1422 C1421 1.396 . S
C1422 C1423 1.399 . S
C1423 H1409 0.929 . S
C1423 C1422 1.399 . S
C1423 C1424 1.385 . S
C1424 H1410 0.931 1_554 S
C1424 C1423 1.385 . S
C1424 C1425 1.389 . S
C1425 C1424 1.389 . S
C1425 C1426 1.387 . S
C1426 H1411 0.930 . S
C1426 C1421 1.390 . S
C1426 C1425 1.387 . S
H1427 C1439 0.930 . S
H1428 C1441 0.930 . S
H1429 C1442 0.930 . S
H1430 C1446 0.959 . S
H1431 C1446 0.959 . S
H1432 C1446 0.961 . S
H1433 C1447 0.960 . S
H1434 C1447 0.961 . S
H1435 C1447 0.959 . S
H1436 C1450 0.929 . S
H1437 C1451 0.931 . S
H1438 C1453 0.930 . S
C1439 H1427 0.930 . S
C1439 C1440 1.399 . S
C1439 C1444 1.399 . S
C1440 C1439 1.399 . S
C1440 C1441 1.376 . S
C1441 H1428 0.930 . S
C1441 C1440 1.376 . S
C1441 C1442 1.388 . S
C1442 H1429 0.930 . S
C1442 C1441 1.388 . S
C1442 C1443 1.390 . S
C1443 C1442 1.390 . S
C1443 C1444 1.394 . S
C1443 C1449 1.465 . S
C1444 C1439 1.399 . S
C1444 C1443 1.394 . S
C1444 C1445 1.516 . S
C1445 C1444 1.516 . S
C1445 C1446 1.502 . S
C1445 C1447 1.561 . S
C1445 C1448 1.526 . S
C1446 H1430 0.959 . S
C1446 H1431 0.959 . S
C1446 H1432 0.961 . S
C1446 C1445 1.502 . S
C1447 H1433 0.960 . S
C1447 H1434 0.961 . S
C1447 H1435 0.959 . S
C1447 C1445 1.561 . S
C1448 C1445 1.526 . S
C1448 C1449 1.396 . S
C1448 C1453 1.390 . S
C1449 C1443 1.465 . S
C1449 C1448 1.396 . S
C1449 C1450 1.399 . S
C1450 H1436 0.929 . S
C1450 C1449 1.399 . S
C1450 C1451 1.385 . S
C1451 H1437 0.931 . S
C1451 C1450 1.385 . S
C1451 C1452 1.389 . S
C1452 C1451 1.389 . S
C1452 C1453 1.387 . S
C1453 H1438 0.930 . S
C1453 C1448 1.390 . S
C1453 C1452 1.387 . S
H1454 C1466 0.930 . S
H1455 C1468 0.930 . S
H1456 C1469 0.930 . S
H1457 C1473 0.959 . S
H1458 C1473 0.967 . S
H1459 C1473 0.961 . S
H1460 C1474 0.960 . S
H1461 C1474 0.961 . S
H1462 C1474 0.959 . S
H1463 C1477 0.929 . S
H1464 C1478 0.931 . S
H1465 C1480 0.930 . S
C1466 H1454 0.930 . S
C1466 C1467 1.399 . S
C1466 C1471 1.399 . S
C1467 C1466 1.399 . S
C1467 C1468 1.376 . S
C1468 H1455 0.930 . S
C1468 C1467 1.376 . S
C1468 C1469 1.388 . S
C1469 H1456 0.930 . S
C1469 C1468 1.388 . S
C1469 C1470 1.390 . S
C1470 C1469 1.390 . S
C1470 C1471 1.394 . S
C1470 C1476 1.465 . S
C1471 C1466 1.399 . S
C1471 C1470 1.394 . S
C1471 C1472 1.516 . S
C1472 C1471 1.516 . S
C1472 C1473 1.502 . S
C1472 C1474 1.561 . S
C1472 C1475 1.526 . S
C1473 H1457 0.959 . S
C1473 H1458 0.967 . S
C1473 H1459 0.961 . S
C1473 C1472 1.502 . S
C1474 H1460 0.960 . S
C1474 H1461 0.961 . S
C1474 H1462 0.959 . S
C1474 C1472 1.561 . S
C1475 C1472 1.526 . S
C1475 C1476 1.396 . S
C1475 C1480 1.390 . S
C1476 C1470 1.465 . S
C1476 C1475 1.396 . S
C1476 C1477 1.399 . S
C1477 H1463 0.929 . S
C1477 C1476 1.399 . S
C1477 C1478 1.385 . S
C1478 H1464 0.931 . S
C1478 C1477 1.385 . S
C1478 C1479 1.389 . S
C1479 C1478 1.389 . S
C1479 C1480 1.387 . S
C1480 H1465 0.930 . S
C1480 C1475 1.390 . S
C1480 C1479 1.387 . S
H1481 C1493 0.930 . S
H1482 C1495 0.930 . S
H1483 C1496 0.930 . S
H1484 C1500 0.959 . S
H1485 C1500 0.959 . S
H1486 C1500 0.961 . S
H1487 C1501 0.960 . S
H1488 C1501 0.961 . S
H1489 C1501 0.959 . S
H1490 C1504 0.929 . S
H1491 C1505 0.931 . S
H1492 C1507 0.930 . S
C1493 H1481 0.930 . S
C1493 C1494 1.399 . S
C1493 C1498 1.399 . S
C1494 C1493 1.399 . S
C1494 C1495 1.376 . S
C1495 H1482 0.930 . S
C1495 C1494 1.376 . S
C1495 C1496 1.388 . S
C1496 H1483 0.930 . S
C1496 C1495 1.388 . S
C1496 C1497 1.390 . S
C1497 C1496 1.390 . S
C1497 C1498 1.394 . S
C1497 C1503 1.465 . S
C1498 C1493 1.399 . S
C1498 C1497 1.394 . S
C1498 C1499 1.516 . S
C1499 C1498 1.516 . S
C1499 C1500 1.502 . S
C1499 C1501 1.561 . S
C1499 C1502 1.526 . S
C1500 H1484 0.959 . S
C1500 H1485 0.959 . S
C1500 H1486 0.961 . S
C1500 C1499 1.502 . S
C1501 H1487 0.960 . S
C1501 H1488 0.961 . S
C1501 H1489 0.959 . S
C1501 C1499 1.561 . S
C1502 C1499 1.526 . S
C1502 C1503 1.396 . S
C1502 C1507 1.390 . S
C1503 C1497 1.465 . S
C1503 C1502 1.396 . S
C1503 C1504 1.399 . S
C1504 H1490 0.929 . S
C1504 C1503 1.399 . S
C1504 C1505 1.385 . S
C1505 H1491 0.931 . S
C1505 C1504 1.385 . S
C1505 C1506 1.389 . S
C1506 C1505 1.389 . S
C1506 C1507 1.387 . S
C1507 H1492 0.930 . S
C1507 C1502 1.390 . S
C1507 C1506 1.387 . S
H1508 C1520 0.930 . S
H1509 C1522 0.930 . S
H1510 C1523 0.930 . S
H1511 C1527 0.959 . S
H1512 C1527 0.959 . S
H1513 C1527 0.961 . S
H1514 C1528 0.960 . S
H1515 C1528 0.961 . S
H1516 C1528 0.959 . S
H1517 C1531 0.929 . S
H1518 C1532 0.931 . S
H1519 C1534 0.930 . S
C1520 H1508 0.930 . S
C1520 C1521 1.399 . S
C1520 C1525 1.399 . S
C1521 C1520 1.399 . S
C1521 C1522 1.376 . S
C1522 H1509 0.930 . S
C1522 C1521 1.376 . S
C1522 C1523 1.388 . S
C1523 H1510 0.930 . S
C1523 C1522 1.388 . S
C1523 C1524 1.390 . S
C1524 C1523 1.390 . S
C1524 C1525 1.394 . S
C1524 C1530 1.465 . S
C1525 C1520 1.399 . S
C1525 C1524 1.394 . S
C1525 C1526 1.516 . S
C1526 C1525 1.516 . S
C1526 C1527 1.502 . S
C1526 C1528 1.561 . S
C1526 C1529 1.526 . S
C1527 H1511 0.959 . S
C1527 H1512 0.959 . S
C1527 H1513 0.961 . S
C1527 C1526 1.502 . S
C1528 H1514 0.960 . S
C1528 H1515 0.961 . S
C1528 H1516 0.959 . S
C1528 C1526 1.561 . S
C1529 C1526 1.526 . S
C1529 C1530 1.396 . S
C1529 C1534 1.390 . S
C1530 C1524 1.465 . S
C1530 C1529 1.396 . S
C1530 C1531 1.399 . S
C1531 H1517 0.929 . S
C1531 C1530 1.399 . S
C1531 C1532 1.385 . S
C1532 H1518 0.931 . S
C1532 C1531 1.385 . S
C1532 C1533 1.389 . S
C1533 C1532 1.389 . S
C1533 C1534 1.387 . S
C1534 H1519 0.930 . S
C1534 C1529 1.390 . S
C1534 C1533 1.387 . S
H1535 C1547 0.930 . S
H1536 C1549 0.930 . S
H1537 C1550 0.930 . S
H1538 C1554 0.959 . S
H1539 C1554 0.959 . S
H1540 C1554 0.961 . S
H1541 C1555 0.960 . S
H1542 C1555 0.961 . S
H1543 C1555 0.959 . S
H1544 C1558 0.929 . S
H1545 C1559 0.931 . S
H1546 C1561 0.930 . S
C1547 H1535 0.930 . S
C1547 C1548 1.399 . S
C1547 C1552 1.399 . S
C1548 C1547 1.399 . S
C1548 C1549 1.376 . S
C1549 H1536 0.930 . S
C1549 C1548 1.376 . S
C1549 C1550 1.388 . S
C1550 H1537 0.930 . S
C1550 C1549 1.388 . S
C1550 C1551 1.390 . S
C1551 C1550 1.390 . S
C1551 C1552 1.394 . S
C1551 C1557 1.465 . S
C1552 C1547 1.399 . S
C1552 C1551 1.394 . S
C1552 C1553 1.516 . S
C1553 C1552 1.516 . S
C1553 C1554 1.502 . S
C1553 C1555 1.561 . S
C1553 C1556 1.526 . S
C1554 H1538 0.959 . S
C1554 H1539 0.959 . S
C1554 H1540 0.961 . S
C1554 C1553 1.502 . S
C1555 H1541 0.960 . S
C1555 H1542 0.961 . S
C1555 H1543 0.959 . S
C1555 C1553 1.561 . S
C1556 C1553 1.526 . S
C1556 C1557 1.396 . S
C1556 C1561 1.390 . S
C1557 C1551 1.465 . S
C1557 C1556 1.396 . S
C1557 C1558 1.399 . S
C1558 H1544 0.929 . S
C1558 C1557 1.399 . S
C1558 C1559 1.385 . S
C1559 H1545 0.931 . S
C1559 C1558 1.385 . S
C1559 C1560 1.389 . S
C1560 C1559 1.389 . S
C1560 C1561 1.387 . S
C1561 H1546 0.930 . S
C1561 C1556 1.390 . S
C1561 C1560 1.387 . S
H1562 C1574 0.930 . S
H1563 C1576 0.930 . S
H1564 C1577 0.930 . S
H1565 C1581 0.959 . S
H1566 C1581 0.959 . S
H1567 C1581 0.961 . S
H1568 C1582 0.960 . S
H1569 C1582 0.961 . S
H1570 C1582 0.959 . S
H1571 C1585 0.929 . S
H1572 C1586 0.931 . S
H1573 C1588 0.930 . S
C1574 H1562 0.930 . S
C1574 C1575 1.399 . S
C1574 C1579 1.399 . S
C1575 C1574 1.399 . S
C1575 C1576 1.376 . S
C1576 H1563 0.930 . S
C1576 C1575 1.376 . S
C1576 C1577 1.388 . S
C1577 H1564 0.930 . S
C1577 C1576 1.388 . S
C1577 C1578 1.390 . S
C1578 C1577 1.390 . S
C1578 C1579 1.394 . S
C1578 C1584 1.465 . S
C1579 C1574 1.399 . S
C1579 C1578 1.394 . S
C1579 C1580 1.516 . S
C1580 C1579 1.516 . S
C1580 C1581 1.502 . S
C1580 C1582 1.561 . S
C1580 C1583 1.526 . S
C1581 H1565 0.959 . S
C1581 H1566 0.959 . S
C1581 H1567 0.961 . S
C1581 C1580 1.502 . S
C1582 H1568 0.960 . S
C1582 H1569 0.961 . S
C1582 H1570 0.959 . S
C1582 C1580 1.561 . S
C1583 C1580 1.526 . S
C1583 C1584 1.396 . S
C1583 C1588 1.390 . S
C1584 C1578 1.465 . S
C1584 C1583 1.396 . S
C1584 C1585 1.399 . S
C1585 H1571 0.929 . S
C1585 C1584 1.399 . S
C1585 C1586 1.385 . S
C1586 H1572 0.931 . S
C1586 C1585 1.385 . S
C1586 C1587 1.389 . S
C1587 C1586 1.389 . S
C1587 C1588 1.387 . S
C1588 H1573 0.930 . S
C1588 C1583 1.390 . S
C1588 C1587 1.387 . S
H1589 C1601 0.930 . S
H1590 C1603 0.930 . S
H1591 C1604 0.930 . S
H1592 C1608 0.959 . S
H1593 C1608 0.959 . S
H1594 C1608 0.961 . S
H1595 C1609 0.960 . S
H1596 C1609 0.961 . S
H1597 C1609 0.959 . S
H1598 C1612 0.929 . S
H1599 C1613 0.931 . S
H1600 C1615 0.930 . S
C1601 H1589 0.930 . S
C1601 C1602 1.399 . S
C1601 C1606 1.399 . S
C1602 C1601 1.399 . S
C1602 C1603 1.376 . S
C1603 H1590 0.930 . S
C1603 C1602 1.376 . S
C1603 C1604 1.388 . S
C1604 H1591 0.930 . S
C1604 C1603 1.388 . S
C1604 C1605 1.390 . S
C1605 C1604 1.390 . S
C1605 C1606 1.394 . S
C1605 C1611 1.465 . S
C1606 C1601 1.399 . S
C1606 C1605 1.394 . S
C1606 C1607 1.516 . S
C1607 C1606 1.516 . S
C1607 C1608 1.502 . S
C1607 C1609 1.561 . S
C1607 C1610 1.526 . S
C1608 H1592 0.959 . S
C1608 H1593 0.959 . S
C1608 H1594 0.961 . S
C1608 C1607 1.502 . S
C1609 H1595 0.960 . S
C1609 H1596 0.961 . S
C1609 H1597 0.959 . S
C1609 C1607 1.561 . S
C1610 C1607 1.526 . S
C1610 C1611 1.396 . S
C1610 C1615 1.390 . S
C1611 C1605 1.465 . S
C1611 C1610 1.396 . S
C1611 C1612 1.399 . S
C1612 H1598 0.929 . S
C1612 C1611 1.399 . S
C1612 C1613 1.385 . S
C1613 H1599 0.931 . S
C1613 C1612 1.385 . S
C1613 C1614 1.389 . S
C1614 C1613 1.389 . S
C1614 C1615 1.387 . S
C1615 H1600 0.930 . S
C1615 C1610 1.390 . S
C1615 C1614 1.387 . S
H1616 C1628 0.930 . S
H1617 C1630 0.930 . S
H1618 C1631 0.930 . S
H1619 C1635 0.959 . S
H1620 C1635 0.959 . S
H1621 C1635 0.961 . S
H1622 C1636 0.960 . S
H1623 C1636 0.961 . S
H1624 C1636 0.959 . S
H1625 C1639 0.929 . S
H1626 C1640 0.931 . S
H1627 C1642 0.930 . S
C1628 H1616 0.930 . S
C1628 C1629 1.399 . S
C1628 C1633 1.399 . S
C1629 C1628 1.399 . S
C1629 C1630 1.376 . S
C1630 H1617 0.930 . S
C1630 C1629 1.376 . S
C1630 C1631 1.388 . S
C1631 H1618 0.930 . S
C1631 C1630 1.388 . S
C1631 C1632 1.390 . S
C1632 C1631 1.390 . S
C1632 C1633 1.394 . S
C1632 C1638 1.465 . S
C1633 C1628 1.399 . S
C1633 C1632 1.394 . S
C1633 C1634 1.516 . S
C1634 C1633 1.516 . S
C1634 C1635 1.502 . S
C1634 C1636 1.561 . S
C1634 C1637 1.526 . S
C1635 H1619 0.959 . S
C1635 H1620 0.959 . S
C1635 H1621 0.961 . S
C1635 C1634 1.502 . S
C1636 H1622 0.960 . S
C1636 H1623 0.961 . S
C1636 H1624 0.959 . S
C1636 C1634 1.561 . S
C1637 C1634 1.526 . S
C1637 C1638 1.396 . S
C1637 C1642 1.390 . S
C1638 C1632 1.465 . S
C1638 C1637 1.396 . S
C1638 C1639 1.399 . S
C1639 H1625 0.929 . S
C1639 C1638 1.399 . S
C1639 C1640 1.385 . S
C1640 H1626 0.931 . S
C1640 C1639 1.385 . S
C1640 C1641 1.389 . S
C1641 C1640 1.389 . S
C1641 C1642 1.387 . S
C1642 H1627 0.930 . S
C1642 C1637 1.390 . S
C1642 C1641 1.387 . S
H1643 C1655 0.930 . S
H1644 C1657 0.930 . S
H1645 C1658 0.930 . S
H1646 C1662 0.959 . S
H1647 C1662 0.959 . S
H1648 C1662 0.961 . S
H1649 C1663 0.960 . S
H1650 C1663 0.961 . S
H1651 C1663 0.959 . S
H1652 C1666 0.929 . S
H1653 C1667 0.931 . S
H1654 C1669 0.930 . S
C1655 H1643 0.930 . S
C1655 C1656 1.399 . S
C1655 C1660 1.399 . S
C1656 C1655 1.399 . S
C1656 C1657 1.376 . S
C1657 H1644 0.930 . S
C1657 C1656 1.376 . S
C1657 C1658 1.388 . S
C1658 H1645 0.930 . S
C1658 C1657 1.388 . S
C1658 C1659 1.390 . S
C1659 C1658 1.390 . S
C1659 C1660 1.394 . S
C1659 C1665 1.465 . S
C1660 C1655 1.399 . S
C1660 C1659 1.394 . S
C1660 C1661 1.516 . S
C1661 C1660 1.516 . S
C1661 C1662 1.502 . S
C1661 C1663 1.561 . S
C1661 C1664 1.526 . S
C1662 H1646 0.959 . S
C1662 H1647 0.959 . S
C1662 H1648 0.961 . S
C1662 C1661 1.502 . S
C1663 H1649 0.960 . S
C1663 H1650 0.961 . S
C1663 H1651 0.959 . S
C1663 C1661 1.561 . S
C1664 C1661 1.526 . S
C1664 C1665 1.396 . S
C1664 C1669 1.390 . S
C1665 C1659 1.465 . S
C1665 C1664 1.396 . S
C1665 C1666 1.399 . S
C1666 H1652 0.929 . S
C1666 C1665 1.399 . S
C1666 C1667 1.385 . S
C1667 H1653 0.931 . S
C1667 C1666 1.385 . S
C1667 C1668 1.389 . S
C1668 C1667 1.389 . S
C1668 C1669 1.387 . S
C1669 H1654 0.930 . S
C1669 C1664 1.390 . S
C1669 C1668 1.387 . S
H1670 C1682 0.930 . S
H1671 C1684 0.930 . S
H1672 C1685 0.930 . S
H1673 C1689 0.959 . S
H1674 C1689 0.959 . S
H1675 C1689 0.961 . S
H1676 C1690 0.960 . S
H1677 C1690 0.961 . S
H1678 C1690 0.959 . S
H1679 C1693 0.929 . S
H1680 C1694 0.931 . S
H1681 C1696 0.930 . S
C1682 H1670 0.930 . S
C1682 C1683 1.399 . S
C1682 C1687 1.399 . S
C1683 C1682 1.399 . S
C1683 C1684 1.376 . S
C1684 H1671 0.930 . S
C1684 C1683 1.376 . S
C1684 C1685 1.388 . S
C1685 H1672 0.930 . S
C1685 C1684 1.388 . S
C1685 C1686 1.390 . S
C1686 C1685 1.390 . S
C1686 C1687 1.394 . S
C1686 C1692 1.465 . S
C1687 C1682 1.399 . S
C1687 C1686 1.394 . S
C1687 C1688 1.516 . S
C1688 C1687 1.516 . S
C1688 C1689 1.502 . S
C1688 C1690 1.561 . S
C1688 C1691 1.526 . S
C1689 H1673 0.959 . S
C1689 H1674 0.959 . S
C1689 H1675 0.961 . S
C1689 C1688 1.502 . S
C1690 H1676 0.960 . S
C1690 H1677 0.961 . S
C1690 H1678 0.959 . S
C1690 C1688 1.561 . S
C1691 C1688 1.526 . S
C1691 C1692 1.396 . S
C1691 C1696 1.390 . S
C1692 C1686 1.465 . S
C1692 C1691 1.396 . S
C1692 C1693 1.399 . S
C1693 H1679 0.929 . S
C1693 C1692 1.399 . S
C1693 C1694 1.385 . S
C1694 H1680 0.931 . S
C1694 C1693 1.385 . S
C1694 C1695 1.389 . S
C1695 C1694 1.389 . S
C1695 C1696 1.387 . S
C1696 H1681 0.930 . S
C1696 C1691 1.390 . S
C1696 C1695 1.387 . S
H1697 C1709 0.930 . S
H1698 C1711 0.930 . S
H1699 C1712 0.930 . S
H1700 C1716 0.959 . S
H1701 C1716 0.959 . S
H1702 C1716 0.961 . S
H1703 C1717 0.960 . S
H1704 C1717 0.961 . S
H1705 C1717 0.959 . S
H1706 C1720 0.929 . S
H1707 C1721 0.931 . S
H1708 C1723 0.930 . S
C1709 H1697 0.930 . S
C1709 C1710 1.399 . S
C1709 C1714 1.399 . S
C1710 C1709 1.399 . S
C1710 C1711 1.376 . S
C1711 H1698 0.930 . S
C1711 C1710 1.376 . S
C1711 C1712 1.388 . S
C1712 H1699 0.930 . S
C1712 C1711 1.388 . S
C1712 C1713 1.390 . S
C1713 C1712 1.390 . S
C1713 C1714 1.394 . S
C1713 C1719 1.465 . S
C1714 C1709 1.399 . S
C1714 C1713 1.394 . S
C1714 C1715 1.516 . S
C1715 C1714 1.516 . S
C1715 C1716 1.502 . S
C1715 C1717 1.561 . S
C1715 C1718 1.526 . S
C1716 H1700 0.959 . S
C1716 H1701 0.959 . S
C1716 H1702 0.961 . S
C1716 C1715 1.502 . S
C1717 H1703 0.960 . S
C1717 H1704 0.961 . S
C1717 H1705 0.959 . S
C1717 C1715 1.561 . S
C1718 C1715 1.526 . S
C1718 C1719 1.396 . S
C1718 C1723 1.390 . S
C1719 C1713 1.465 . S
C1719 C1718 1.396 . S
C1719 C1720 1.399 . S
C1720 H1706 0.929 . S
C1720 C1719 1.399 . S
C1720 C1721 1.385 . S
C1721 H1707 0.931 . S
C1721 C1720 1.385 . S
C1721 C1722 1.389 . S
C1722 C1721 1.389 . S
C1722 C1723 1.387 . S
C1723 H1708 0.930 . S
C1723 C1718 1.390 . S
C1723 C1722 1.387 . S
H1724 C1736 0.930 . S
H1725 C1738 0.930 . S
H1726 C1739 0.930 . S
H1727 C1743 0.959 . S
H1728 C1743 0.959 . S
H1729 C1743 0.961 . S
H1730 C1744 0.960 . S
H1731 C1744 0.961 . S
H1732 C1744 0.959 . S
H1733 C1747 0.929 . S
H1734 C1748 0.931 . S
H1735 C1750 0.930 . S
C1736 H1724 0.930 . S
C1736 C1737 1.399 . S
C1736 C1741 1.399 . S
C1737 C1736 1.399 . S
C1737 C1738 1.376 . S
C1738 H1725 0.930 . S
C1738 C1737 1.376 . S
C1738 C1739 1.388 . S
C1739 H1726 0.930 . S
C1739 C1738 1.388 . S
C1739 C1740 1.390 . S
C1740 C1739 1.390 . S
C1740 C1741 1.394 . S
C1740 C1746 1.465 . S
C1741 C1736 1.399 . S
C1741 C1740 1.394 . S
C1741 C1742 1.516 . S
C1742 C1741 1.516 . S
C1742 C1743 1.502 . S
C1742 C1744 1.561 . S
C1742 C1745 1.526 . S
C1743 H1727 0.959 . S
C1743 H1728 0.959 . S
C1743 H1729 0.961 . S
C1743 C1742 1.502 . S
C1744 H1730 0.960 . S
C1744 H1731 0.961 . S
C1744 H1732 0.959 . S
C1744 C1742 1.561 . S
C1745 C1742 1.526 . S
C1745 C1746 1.396 . S
C1745 C1750 1.390 . S
C1746 C1740 1.465 . S
C1746 C1745 1.396 . S
C1746 C1747 1.399 . S
C1747 H1733 0.929 . S
C1747 C1746 1.399 . S
C1747 C1748 1.385 . S
C1748 H1734 0.931 . S
C1748 C1747 1.385 . S
C1748 C1749 1.389 . S
C1749 C1748 1.389 . S
C1749 C1750 1.387 . S
C1750 H1735 0.930 . S
C1750 C1745 1.390 . S
C1750 C1749 1.387 . S
H1751 C1763 0.930 . S
H1752 C1765 0.930 . S
H1753 C1766 0.930 . S
H1754 C1770 0.959 . S
H1755 C1770 0.959 . S
H1756 C1770 0.961 . S
H1757 C1771 0.960 . S
H1758 C1771 0.961 . S
H1759 C1771 0.959 . S
H1760 C1774 0.929 . S
H1761 C1775 0.931 . S
H1762 C1777 0.930 . S
C1763 H1751 0.930 . S
C1763 C1764 1.399 . S
C1763 C1768 1.399 . S
C1764 C1763 1.399 . S
C1764 C1765 1.376 . S
C1765 H1752 0.930 . S
C1765 C1764 1.376 . S
C1765 C1766 1.388 . S
C1766 H1753 0.930 . S
C1766 C1765 1.388 . S
C1766 C1767 1.390 . S
C1767 C1766 1.390 . S
C1767 C1768 1.394 . S
C1767 C1773 1.465 . S
C1768 C1763 1.399 . S
C1768 C1767 1.394 . S
C1768 C1769 1.516 . S
C1769 C1768 1.516 . S
C1769 C1770 1.502 . S
C1769 C1771 1.561 . S
C1769 C1772 1.526 . S
C1770 H1754 0.959 . S
C1770 H1755 0.959 . S
C1770 H1756 0.961 . S
C1770 C1769 1.502 . S
C1771 H1757 0.960 . S
C1771 H1758 0.961 . S
C1771 H1759 0.959 . S
C1771 C1769 1.561 . S
C1772 C1769 1.526 . S
C1772 C1773 1.396 . S
C1772 C1777 1.390 . S
C1773 C1767 1.465 . S
C1773 C1772 1.396 . S
C1773 C1774 1.399 . S
C1774 H1760 0.929 . S
C1774 C1773 1.399 . S
C1774 C1775 1.385 . S
C1775 H1761 0.931 . S
C1775 C1774 1.385 . S
C1775 C1776 1.389 . S
C1776 C1775 1.389 . S
C1776 C1777 1.387 . S
C1777 H1762 0.930 . S
C1777 C1772 1.390 . S
C1777 C1776 1.387 . S
H1778 C1790 0.930 . S
H1779 C1792 0.930 . S
H1780 C1793 0.930 . S
H1781 C1797 0.959 . S
H1782 C1797 0.959 . S
H1783 C1797 0.961 . S
H1784 C1798 0.960 . S
H1785 C1798 0.961 . S
H1786 C1798 0.959 . S
H1787 C1801 0.929 . S
H1788 C1802 0.931 . S
H1789 C1804 0.930 . S
C1790 H1778 0.930 . S
C1790 C1791 1.399 . S
C1790 C1795 1.399 . S
C1791 C1790 1.399 . S
C1791 C1792 1.376 . S
C1792 H1779 0.930 . S
C1792 C1791 1.376 . S
C1792 C1793 1.388 . S
C1793 H1780 0.930 . S
C1793 C1792 1.388 . S
C1793 C1794 1.390 . S
C1794 C1793 1.390 . S
C1794 C1795 1.394 . S
C1794 C1800 1.465 . S
C1795 C1790 1.399 . S
C1795 C1794 1.394 . S
C1795 C1796 1.516 . S
C1796 C1795 1.516 . S
C1796 C1797 1.502 . S
C1796 C1798 1.561 . S
C1796 C1799 1.526 . S
C1797 H1781 0.959 . S
C1797 H1782 0.959 . S
C1797 H1783 0.961 . S
C1797 C1796 1.502 . S
C1798 H1784 0.960 . S
C1798 H1785 0.961 . S
C1798 H1786 0.959 . S
C1798 C1796 1.561 . S
C1799 C1796 1.526 . S
C1799 C1800 1.396 . S
C1799 C1804 1.390 . S
C1800 C1794 1.465 . S
C1800 C1799 1.396 . S
C1800 C1801 1.399 . S
C1801 H1787 0.929 . S
C1801 C1800 1.399 . S
C1801 C1802 1.385 . S
C1802 H1788 0.931 . S
C1802 C1801 1.385 . S
C1802 C1803 1.389 . S
C1803 C1802 1.389 . S
C1803 C1804 1.387 . S
C1804 H1789 0.930 . S
C1804 C1799 1.390 . S
C1804 C1803 1.387 . S
H1805 C1817 0.930 . S
H1806 C1819 0.930 . S
H1807 C1820 0.930 . S
H1808 C1824 0.959 . S
H1809 C1824 0.959 . S
H1810 C1824 0.961 . S
H1811 C1825 0.960 . S
H1812 C1825 0.961 . S
H1813 C1825 0.959 . S
H1814 C1828 0.929 . S
H1815 C1829 0.931 . S
H1816 C1831 0.930 . S
C1817 H1805 0.930 . S
C1817 C1818 1.399 . S
C1817 C1822 1.399 . S
C1818 C1817 1.399 . S
C1818 C1819 1.376 . S
C1819 H1806 0.930 . S
C1819 C1818 1.376 . S
C1819 C1820 1.388 . S
C1820 H1807 0.930 . S
C1820 C1819 1.388 . S
C1820 C1821 1.390 . S
C1821 C1820 1.390 . S
C1821 C1822 1.394 . S
C1821 C1827 1.465 . S
C1822 C1817 1.399 . S
C1822 C1821 1.394 . S
C1822 C1823 1.516 . S
C1823 C1822 1.516 . S
C1823 C1824 1.502 . S
C1823 C1825 1.561 . S
C1823 C1826 1.526 . S
C1824 H1808 0.959 . S
C1824 H1809 0.959 . S
C1824 H1810 0.961 . S
C1824 C1823 1.502 . S
C1825 H1811 0.960 . S
C1825 H1812 0.961 . S
C1825 H1813 0.959 . S
C1825 C1823 1.561 . S
C1826 C1823 1.526 . S
C1826 C1827 1.396 . S
C1826 C1831 1.390 . S
C1827 C1821 1.465 . S
C1827 C1826 1.396 . S
C1827 C1828 1.399 . S
C1828 H1814 0.929 . S
C1828 C1827 1.399 . S
C1828 C1829 1.385 . S
C1829 H1815 0.931 . S
C1829 C1828 1.385 . S
C1829 C1830 1.389 . S
C1830 C1829 1.389 . S
C1830 C1831 1.387 . S
C1831 H1816 0.930 . S
C1831 C1826 1.390 . S
C1831 C1830 1.387 . S
H1832 C1844 0.930 . S
H1833 C1846 0.930 . S
H1834 C1847 0.930 . S
H1835 C1851 0.959 . S
H1836 C1851 0.959 . S
H1837 C1851 0.961 . S
H1838 C1852 0.960 . S
H1839 C1852 0.961 . S
H1840 C1852 0.959 . S
H1841 C1855 0.929 . S
H1842 C1856 0.931 . S
H1843 C1858 0.930 . S
C1844 H1832 0.930 . S
C1844 C1845 1.399 . S
C1844 C1849 1.399 . S
C1845 C1844 1.399 . S
C1845 C1846 1.376 . S
C1846 H1833 0.930 . S
C1846 C1845 1.376 . S
C1846 C1847 1.388 . S
C1847 H1834 0.930 . S
C1847 C1846 1.388 . S
C1847 C1848 1.390 . S
C1848 C1847 1.390 . S
C1848 C1849 1.394 . S
C1848 C1854 1.465 . S
C1849 C1844 1.399 . S
C1849 C1848 1.394 . S
C1849 C1850 1.516 . S
C1850 C1849 1.516 . S
C1850 C1851 1.502 . S
C1850 C1852 1.561 . S
C1850 C1853 1.526 . S
C1851 H1835 0.959 . S
C1851 H1836 0.959 . S
C1851 H1837 0.961 . S
C1851 C1850 1.502 . S
C1852 H1838 0.960 . S
C1852 H1839 0.961 . S
C1852 H1840 0.959 . S
C1852 C1850 1.561 . S
C1853 C1850 1.526 . S
C1853 C1854 1.396 . S
C1853 C1858 1.390 . S
C1854 C1848 1.465 . S
C1854 C1853 1.396 . S
C1854 C1855 1.399 . S
C1855 H1841 0.929 . S
C1855 C1854 1.399 . S
C1855 C1856 1.385 . S
C1856 H1842 0.931 . S
C1856 C1855 1.385 . S
C1856 C1857 1.389 . S
C1857 C1856 1.389 . S
C1857 C1858 1.387 . S
C1858 H1843 0.930 . S
C1858 C1853 1.390 . S
C1858 C1857 1.387 . S
H1859 C1871 0.930 . S
H1860 C1873 0.930 . S
H1861 C1874 0.930 . S
H1862 C1878 0.959 . S
H1863 C1878 0.959 . S
H1864 C1878 0.961 . S
H1865 C1879 0.960 . S
H1866 C1879 0.961 . S
H1867 C1879 0.959 . S
H1868 C1882 0.929 . S
H1869 C1883 0.931 . S
H1870 C1885 0.930 . S
C1871 H1859 0.930 . S
C1871 C1872 1.399 . S
C1871 C1876 1.399 . S
C1872 C1871 1.399 . S
C1872 C1873 1.376 . S
C1873 H1860 0.930 . S
C1873 C1872 1.376 . S
C1873 C1874 1.388 . S
C1874 H1861 0.930 . S
C1874 C1873 1.388 . S
C1874 C1875 1.390 . S
C1875 C1874 1.390 . S
C1875 C1876 1.394 . S
C1875 C1881 1.465 . S
C1876 C1871 1.399 . S
C1876 C1875 1.394 . S
C1876 C1877 1.516 . S
C1877 C1876 1.516 . S
C1877 C1878 1.502 . S
C1877 C1879 1.561 . S
C1877 C1880 1.526 . S
C1878 H1862 0.959 . S
C1878 H1863 0.959 . S
C1878 H1864 0.961 . S
C1878 C1877 1.502 . S
C1879 H1865 0.960 . S
C1879 H1866 0.961 . S
C1879 H1867 0.959 . S
C1879 C1877 1.561 . S
C1880 C1877 1.526 . S
C1880 C1881 1.396 . S
C1880 C1885 1.390 . S
C1881 C1875 1.465 . S
C1881 C1880 1.396 . S
C1881 C1882 1.399 . S
C1882 H1868 0.929 . S
C1882 C1881 1.399 . S
C1882 C1883 1.385 . S
C1883 H1869 0.931 . S
C1883 C1882 1.385 . S
C1883 C1884 1.389 . S
C1884 C1883 1.389 . S
C1884 C1885 1.387 . S
C1885 H1870 0.930 . S
C1885 C1880 1.390 . S
C1885 C1884 1.387 . S
H1886 C1898 0.930 . S
H1887 C1900 0.930 . S
H1888 C1901 0.930 . S
H1889 C1905 0.959 . S
H1890 C1905 0.959 . S
H1891 C1905 0.961 . S
H1892 C1906 0.960 . S
H1893 C1906 0.961 . S
H1894 C1906 0.959 . S
H1895 C1909 0.929 . S
H1896 C1910 0.931 . S
H1897 C1912 0.930 . S
C1898 H1886 0.930 . S
C1898 C1899 1.399 . S
C1898 C1903 1.399 . S
C1899 C1898 1.399 . S
C1899 C1900 1.376 . S
C1900 H1887 0.930 . S
C1900 C1899 1.376 . S
C1900 C1901 1.388 . S
C1901 H1888 0.930 . S
C1901 C1900 1.388 . S
C1901 C1902 1.390 . S
C1902 C1901 1.390 . S
C1902 C1903 1.394 . S
C1902 C1908 1.465 . S
C1903 C1898 1.399 . S
C1903 C1902 1.394 . S
C1903 C1904 1.516 . S
C1904 C1903 1.516 . S
C1904 C1905 1.502 . S
C1904 C1906 1.561 . S
C1904 C1907 1.526 . S
C1905 H1889 0.959 . S
C1905 H1890 0.959 . S
C1905 H1891 0.961 . S
C1905 C1904 1.502 . S
C1906 H1892 0.960 . S
C1906 H1893 0.961 . S
C1906 H1894 0.959 . S
C1906 C1904 1.561 . S
C1907 C1904 1.526 . S
C1907 C1908 1.396 . S
C1907 C1912 1.390 . S
C1908 C1902 1.465 . S
C1908 C1907 1.396 . S
C1908 C1909 1.399 . S
C1909 H1895 0.929 . S
C1909 C1908 1.399 . S
C1909 C1910 1.385 . S
C1910 H1896 0.931 . S
C1910 C1909 1.385 . S
C1910 C1911 1.389 . S
C1911 C1910 1.389 . S
C1911 C1912 1.387 . S
C1912 H1897 0.930 . S
C1912 C1907 1.390 . S
C1912 C1911 1.387 . S
H1913 C1925 0.930 . S
H1914 C1927 0.930 . S
H1915 C1928 0.930 . S
H1916 C1932 0.959 . S
H1917 C1932 0.959 . S
H1918 C1932 0.961 . S
H1919 C1933 0.960 . S
H1920 C1933 0.961 . S
H1921 C1933 0.959 . S
H1922 C1936 0.929 . S
H1923 C1937 0.931 . S
H1924 C1939 0.930 . S
C1925 H1913 0.930 . S
C1925 C1926 1.399 . S
C1925 C1930 1.399 . S
C1926 C1925 1.399 . S
C1926 C1927 1.376 . S
C1927 H1914 0.930 . S
C1927 C1926 1.376 . S
C1927 C1928 1.388 . S
C1928 H1915 0.930 . S
C1928 C1927 1.388 . S
C1928 C1929 1.390 . S
C1929 C1928 1.390 . S
C1929 C1930 1.394 . S
C1929 C1935 1.465 . S
C1930 C1925 1.399 . S
C1930 C1929 1.394 . S
C1930 C1931 1.516 . S
C1931 C1930 1.516 . S
C1931 C1932 1.502 . S
C1931 C1933 1.561 . S
C1931 C1934 1.526 . S
C1932 H1916 0.959 . S
C1932 H1917 0.959 . S
C1932 H1918 0.961 . S
C1932 C1931 1.502 . S
C1933 H1919 0.960 . S
C1933 H1920 0.961 . S
C1933 H1921 0.959 . S
C1933 C1931 1.561 . S
C1934 C1931 1.526 . S
C1934 C1935 1.396 . S
C1934 C1939 1.390 . S
C1935 C1929 1.465 . S
C1935 C1934 1.396 . S
C1935 C1936 1.399 . S
C1936 H1922 0.929 . S
C1936 C1935 1.399 . S
C1936 C1937 1.385 . S
C1937 H1923 0.931 . S
C1937 C1936 1.385 . S
C1937 C1938 1.389 . S
C1938 C1937 1.389 . S
C1938 C1939 1.387 . S
C1939 H1924 0.930 . S
C1939 C1934 1.390 . S
C1939 C1938 1.387 . S
C669 C355 1.555 . S
C657 C2 1.571 . S
C696 C333 1.499 . S
C684 C48 1.573 . S
C723 C330 0.631 . S
C711 C97 0.622 . S
C738 C149 0.306 . S
C750 C342 0.340 . S
C765 C189 1.596 . S
C777 C325 1.549 . S
C804 C347 0.629 . S
C792 C202 0.625 . S
C819 C248 0.416 . S
C831 C352 0.467 . S
C846 C297 1.558 . S
C858 C348 1.551 . S
C885 C406 2.981 . S
C873 C31 3.010 . S
C900 C52 1.487 . S
C912 C456 1.504 . S
C939 C379 1.438 . S
C927 C88 1.545 . S
C966 C455 0.645 . S
C954 C122 0.724 . S
C981 C162 0.734 . S
C993 C384 0.704 . S
C1020 C450 2.941 . S
C1008 C231 2.997 . S
C1035 C252 1.485 . S
C1047 C409 1.545 . S
C1062 C288 1.558 . S
C1074 C441 1.502 . S
C1089 C29 1.588 . S
C1101 C433 1.486 . S
C1116 C191 1.476 . S
C1128 C463 1.517 . S
C1155 C387 1.499 . S
C1143 C229 1.549 . S
C1182 C438 0.721 . S
C1170 C257 0.708 . S
C1197 C292 3.011 . S
C1209 C396 2.962 . S
C1224 C92 3.017 . S
C1236 C460 2.952 . S
C1263 C402 1.541 . S
C1251 C151 1.498 . S
C1278 C57 0.747 . S
C1290 C401 0.729 . S
C1305 C282 1.563 . S
C1317 C517 1.555 . S
C1332 C168 1.569 . S
C1344 C495 1.502 . S
C1371 C492 0.646 . S
C1359 C217 0.625 . S
C1398 C504 0.431 . S
C1386 C269 0.586 . S
C1413 C69 1.569 . S
C1425 C487 1.567 . S
C1452 C509 0.628 . S
C1440 C82 0.623 . S
C1467 C128 0.344 . S
C1479 C514 0.325 . S
C1494 C17 1.551 . S
C1506 C510 1.573 . S
C1521 C311 3.011 . S
C1533 C568 2.980 . S
C1560 C618 1.473 . S
C1548 C172 1.502 . S
C1575 C208 1.515 . S
C1587 C541 1.488 . S
C1602 C242 0.724 . S
C1614 C617 0.645 . S
C1641 C546 0.709 . S
C1629 C42 0.682 . S
C1656 C111 2.995 . S
C1668 C612 2.961 . S
C1695 C571 1.516 . S
C1683 C132 1.502 . S
C1722 C603 1.517 . S
C1710 C8 1.551 . S
C1749 C595 1.560 . S
C1737 C309 1.551 . S
C1764 C71 1.467 . S
C1776 C625 1.520 . S
C1791 C109 1.529 . S
C1803 C549 1.533 . S
C1830 C600 0.659 . S
C1818 C137 0.705 . S
C1845 C12 3.006 . S
C1857 C558 2.979 . S
C1872 C212 3.020 . S
C1884 C622 2.957 . S
C1911 C564 1.550 . S
C1899 C271 1.482 . S
C1938 C563 0.663 . S
C1926 C177 0.647 . S
