# Generated by pormake.
# Topology gar, (4,6)-cn, num edge types: 1
# Building blocks:
#     Node 0, Type 0, BuildingBlock: CEKHIL_clean_sbu_0, # of connection points: 4
#     Node 1, Type 0, BuildingBlock: CEKHIL_clean_sbu_0, # of connection points: 4
#     Node 2, Type 0, BuildingBlock: CEKHIL_clean_sbu_0, # of connection points: 4
#     Node 3, Type 0, BuildingBlock: CEKHIL_clean_sbu_0, # of connection points: 4
#     Node 4, Type 0, BuildingBlock: CEKHIL_clean_sbu_0, # of connection points: 4
#     Node 5, Type 0, BuildingBlock: CEKHIL_clean_sbu_0, # of connection points: 4
#     Node 6, Type 0, BuildingBlock: CEKHIL_clean_sbu_0, # of connection points: 4
#     Node 7, Type 0, BuildingBlock: CEKHIL_clean_sbu_0, # of connection points: 4
#     Node 8, Type 0, BuildingBlock: CEKHIL_clean_sbu_0, # of connection points: 4
#     Node 9, Type 0, BuildingBlock: CEKHIL_clean_sbu_0, # of connection points: 4
#     Node 10, Type 0, BuildingBlock: CEKHIL_clean_sbu_0, # of connection points: 4
#     Node 11, Type 0, BuildingBlock: CEKHIL_clean_sbu_0, # of connection points: 4
#     Node 12, Type 0, BuildingBlock: CEKHIL_clean_sbu_0, # of connection points: 4
#     Node 13, Type 0, BuildingBlock: CEKHIL_clean_sbu_0, # of connection points: 4
#     Node 14, Type 0, BuildingBlock: CEKHIL_clean_sbu_0, # of connection points: 4
#     Node 15, Type 0, BuildingBlock: CEKHIL_clean_sbu_0, # of connection points: 4
#     Node 16, Type 0, BuildingBlock: CEKHIL_clean_sbu_0, # of connection points: 4
#     Node 17, Type 0, BuildingBlock: CEKHIL_clean_sbu_0, # of connection points: 4
#     Node 18, Type 0, BuildingBlock: CEKHIL_clean_sbu_0, # of connection points: 4
#     Node 19, Type 0, BuildingBlock: CEKHIL_clean_sbu_0, # of connection points: 4
#     Node 20, Type 0, BuildingBlock: CEKHIL_clean_sbu_0, # of connection points: 4
#     Node 21, Type 0, BuildingBlock: CEKHIL_clean_sbu_0, # of connection points: 4
#     Node 22, Type 0, BuildingBlock: CEKHIL_clean_sbu_0, # of connection points: 4
#     Node 23, Type 0, BuildingBlock: CEKHIL_clean_sbu_0, # of connection points: 4
#     Node 24, Type 1, BuildingBlock: GEDQOX_clean_sbu_0, # of connection points: 6
#     Node 25, Type 1, BuildingBlock: GEDQOX_clean_sbu_0, # of connection points: 6
#     Node 26, Type 1, BuildingBlock: GEDQOX_clean_sbu_0, # of connection points: 6
#     Node 27, Type 1, BuildingBlock: GEDQOX_clean_sbu_0, # of connection points: 6
#     Node 28, Type 1, BuildingBlock: GEDQOX_clean_sbu_0, # of connection points: 6
#     Node 29, Type 1, BuildingBlock: GEDQOX_clean_sbu_0, # of connection points: 6
#     Node 30, Type 1, BuildingBlock: GEDQOX_clean_sbu_0, # of connection points: 6
#     Node 31, Type 1, BuildingBlock: GEDQOX_clean_sbu_0, # of connection points: 6
#     Node 32, Type 1, BuildingBlock: GEDQOX_clean_sbu_0, # of connection points: 6
#     Node 33, Type 1, BuildingBlock: GEDQOX_clean_sbu_0, # of connection points: 6
#     Node 34, Type 1, BuildingBlock: GEDQOX_clean_sbu_0, # of connection points: 6
#     Node 35, Type 1, BuildingBlock: GEDQOX_clean_sbu_0, # of connection points: 6
#     Node 36, Type 1, BuildingBlock: GEDQOX_clean_sbu_0, # of connection points: 6
#     Node 37, Type 1, BuildingBlock: GEDQOX_clean_sbu_0, # of connection points: 6
#     Node 38, Type 1, BuildingBlock: GEDQOX_clean_sbu_0, # of connection points: 6
#     Node 39, Type 1, BuildingBlock: GEDQOX_clean_sbu_0, # of connection points: 6
#     Edge 40, Type (0, 1), BuildingBlock: EZIPEK_clean_linker_0, # of connection points: 2
#     Edge 41, Type (0, 1), BuildingBlock: EZIPEK_clean_linker_0, # of connection points: 2
#     Edge 42, Type (0, 1), BuildingBlock: EZIPEK_clean_linker_0, # of connection points: 2
#     Edge 43, Type (0, 1), BuildingBlock: EZIPEK_clean_linker_0, # of connection points: 2
#     Edge 44, Type (0, 1), BuildingBlock: EZIPEK_clean_linker_0, # of connection points: 2
#     Edge 45, Type (0, 1), BuildingBlock: EZIPEK_clean_linker_0, # of connection points: 2
#     Edge 46, Type (0, 1), BuildingBlock: EZIPEK_clean_linker_0, # of connection points: 2
#     Edge 47, Type (0, 1), BuildingBlock: EZIPEK_clean_linker_0, # of connection points: 2
#     Edge 48, Type (0, 1), BuildingBlock: EZIPEK_clean_linker_0, # of connection points: 2
#     Edge 49, Type (0, 1), BuildingBlock: EZIPEK_clean_linker_0, # of connection points: 2
#     Edge 50, Type (0, 1), BuildingBlock: EZIPEK_clean_linker_0, # of connection points: 2
#     Edge 51, Type (0, 1), BuildingBlock: EZIPEK_clean_linker_0, # of connection points: 2
#     Edge 52, Type (0, 1), BuildingBlock: EZIPEK_clean_linker_0, # of connection points: 2
#     Edge 53, Type (0, 1), BuildingBlock: EZIPEK_clean_linker_0, # of connection points: 2
#     Edge 54, Type (0, 1), BuildingBlock: EZIPEK_clean_linker_0, # of connection points: 2
#     Edge 55, Type (0, 1), BuildingBlock: EZIPEK_clean_linker_0, # of connection points: 2
#     Edge 56, Type (0, 1), BuildingBlock: EZIPEK_clean_linker_0, # of connection points: 2
#     Edge 57, Type (0, 1), BuildingBlock: EZIPEK_clean_linker_0, # of connection points: 2
#     Edge 58, Type (0, 1), BuildingBlock: EZIPEK_clean_linker_0, # of connection points: 2
#     Edge 59, Type (0, 1), BuildingBlock: EZIPEK_clean_linker_0, # of connection points: 2
#     Edge 60, Type (0, 1), BuildingBlock: EZIPEK_clean_linker_0, # of connection points: 2
#     Edge 61, Type (0, 1), BuildingBlock: EZIPEK_clean_linker_0, # of connection points: 2
#     Edge 62, Type (0, 1), BuildingBlock: EZIPEK_clean_linker_0, # of connection points: 2
#     Edge 63, Type (0, 1), BuildingBlock: EZIPEK_clean_linker_0, # of connection points: 2
#     Edge 64, Type (0, 1), BuildingBlock: EZIPEK_clean_linker_0, # of connection points: 2
#     Edge 65, Type (0, 1), BuildingBlock: EZIPEK_clean_linker_0, # of connection points: 2
#     Edge 66, Type (0, 1), BuildingBlock: EZIPEK_clean_linker_0, # of connection points: 2
#     Edge 67, Type (0, 1), BuildingBlock: EZIPEK_clean_linker_0, # of connection points: 2
#     Edge 68, Type (0, 1), BuildingBlock: EZIPEK_clean_linker_0, # of connection points: 2
#     Edge 69, Type (0, 1), BuildingBlock: EZIPEK_clean_linker_0, # of connection points: 2
#     Edge 70, Type (0, 1), BuildingBlock: EZIPEK_clean_linker_0, # of connection points: 2
#     Edge 71, Type (0, 1), BuildingBlock: EZIPEK_clean_linker_0, # of connection points: 2
#     Edge 72, Type (0, 1), BuildingBlock: EZIPEK_clean_linker_0, # of connection points: 2
#     Edge 73, Type (0, 1), BuildingBlock: EZIPEK_clean_linker_0, # of connection points: 2
#     Edge 74, Type (0, 1), BuildingBlock: EZIPEK_clean_linker_0, # of connection points: 2
#     Edge 75, Type (0, 1), BuildingBlock: EZIPEK_clean_linker_0, # of connection points: 2
#     Edge 76, Type (0, 1), BuildingBlock: EZIPEK_clean_linker_0, # of connection points: 2
#     Edge 77, Type (0, 1), BuildingBlock: EZIPEK_clean_linker_0, # of connection points: 2
#     Edge 78, Type (0, 1), BuildingBlock: EZIPEK_clean_linker_0, # of connection points: 2
#     Edge 79, Type (0, 1), BuildingBlock: EZIPEK_clean_linker_0, # of connection points: 2
#     Edge 80, Type (0, 1), BuildingBlock: EZIPEK_clean_linker_0, # of connection points: 2
#     Edge 81, Type (0, 1), BuildingBlock: EZIPEK_clean_linker_0, # of connection points: 2
#     Edge 82, Type (0, 1), BuildingBlock: EZIPEK_clean_linker_0, # of connection points: 2
#     Edge 83, Type (0, 1), BuildingBlock: EZIPEK_clean_linker_0, # of connection points: 2
#     Edge 84, Type (0, 1), BuildingBlock: EZIPEK_clean_linker_0, # of connection points: 2
#     Edge 85, Type (0, 1), BuildingBlock: EZIPEK_clean_linker_0, # of connection points: 2
#     Edge 86, Type (0, 1), BuildingBlock: EZIPEK_clean_linker_0, # of connection points: 2
#     Edge 87, Type (0, 1), BuildingBlock: EZIPEK_clean_linker_0, # of connection points: 2
#     Edge 88, Type (0, 1), BuildingBlock: EZIPEK_clean_linker_0, # of connection points: 2
#     Edge 89, Type (0, 1), BuildingBlock: EZIPEK_clean_linker_0, # of connection points: 2
#     Edge 90, Type (0, 1), BuildingBlock: EZIPEK_clean_linker_0, # of connection points: 2
#     Edge 91, Type (0, 1), BuildingBlock: EZIPEK_clean_linker_0, # of connection points: 2
#     Edge 92, Type (0, 1), BuildingBlock: EZIPEK_clean_linker_0, # of connection points: 2
#     Edge 93, Type (0, 1), BuildingBlock: EZIPEK_clean_linker_0, # of connection points: 2
#     Edge 94, Type (0, 1), BuildingBlock: EZIPEK_clean_linker_0, # of connection points: 2
#     Edge 95, Type (0, 1), BuildingBlock: EZIPEK_clean_linker_0, # of connection points: 2
#     Edge 96, Type (0, 1), BuildingBlock: EZIPEK_clean_linker_0, # of connection points: 2
#     Edge 97, Type (0, 1), BuildingBlock: EZIPEK_clean_linker_0, # of connection points: 2
#     Edge 98, Type (0, 1), BuildingBlock: EZIPEK_clean_linker_0, # of connection points: 2
#     Edge 99, Type (0, 1), BuildingBlock: EZIPEK_clean_linker_0, # of connection points: 2
#     Edge 100, Type (0, 1), BuildingBlock: EZIPEK_clean_linker_0, # of connection points: 2
#     Edge 101, Type (0, 1), BuildingBlock: EZIPEK_clean_linker_0, # of connection points: 2
#     Edge 102, Type (0, 1), BuildingBlock: EZIPEK_clean_linker_0, # of connection points: 2
#     Edge 103, Type (0, 1), BuildingBlock: EZIPEK_clean_linker_0, # of connection points: 2
#     Edge 104, Type (0, 1), BuildingBlock: EZIPEK_clean_linker_0, # of connection points: 2
#     Edge 105, Type (0, 1), BuildingBlock: EZIPEK_clean_linker_0, # of connection points: 2
#     Edge 106, Type (0, 1), BuildingBlock: EZIPEK_clean_linker_0, # of connection points: 2
#     Edge 107, Type (0, 1), BuildingBlock: EZIPEK_clean_linker_0, # of connection points: 2
#     Edge 108, Type (0, 1), BuildingBlock: EZIPEK_clean_linker_0, # of connection points: 2
#     Edge 109, Type (0, 1), BuildingBlock: EZIPEK_clean_linker_0, # of connection points: 2
#     Edge 110, Type (0, 1), BuildingBlock: EZIPEK_clean_linker_0, # of connection points: 2
#     Edge 111, Type (0, 1), BuildingBlock: EZIPEK_clean_linker_0, # of connection points: 2
#     Edge 112, Type (0, 1), BuildingBlock: EZIPEK_clean_linker_0, # of connection points: 2
#     Edge 113, Type (0, 1), BuildingBlock: EZIPEK_clean_linker_0, # of connection points: 2
#     Edge 114, Type (0, 1), BuildingBlock: EZIPEK_clean_linker_0, # of connection points: 2
#     Edge 115, Type (0, 1), BuildingBlock: EZIPEK_clean_linker_0, # of connection points: 2
#     Edge 116, Type (0, 1), BuildingBlock: EZIPEK_clean_linker_0, # of connection points: 2
#     Edge 117, Type (0, 1), BuildingBlock: EZIPEK_clean_linker_0, # of connection points: 2
#     Edge 118, Type (0, 1), BuildingBlock: EZIPEK_clean_linker_0, # of connection points: 2
#     Edge 119, Type (0, 1), BuildingBlock: EZIPEK_clean_linker_0, # of connection points: 2
#     Edge 120, Type (0, 1), BuildingBlock: EZIPEK_clean_linker_0, # of connection points: 2
#     Edge 121, Type (0, 1), BuildingBlock: EZIPEK_clean_linker_0, # of connection points: 2
#     Edge 122, Type (0, 1), BuildingBlock: EZIPEK_clean_linker_0, # of connection points: 2
#     Edge 123, Type (0, 1), BuildingBlock: EZIPEK_clean_linker_0, # of connection points: 2
#     Edge 124, Type (0, 1), BuildingBlock: EZIPEK_clean_linker_0, # of connection points: 2
#     Edge 125, Type (0, 1), BuildingBlock: EZIPEK_clean_linker_0, # of connection points: 2
#     Edge 126, Type (0, 1), BuildingBlock: EZIPEK_clean_linker_0, # of connection points: 2
#     Edge 127, Type (0, 1), BuildingBlock: EZIPEK_clean_linker_0, # of connection points: 2
#     Edge 128, Type (0, 1), BuildingBlock: EZIPEK_clean_linker_0, # of connection points: 2
#     Edge 129, Type (0, 1), BuildingBlock: EZIPEK_clean_linker_0, # of connection points: 2
#     Edge 130, Type (0, 1), BuildingBlock: EZIPEK_clean_linker_0, # of connection points: 2
#     Edge 131, Type (0, 1), BuildingBlock: EZIPEK_clean_linker_0, # of connection points: 2
#     Edge 132, Type (0, 1), BuildingBlock: EZIPEK_clean_linker_0, # of connection points: 2
#     Edge 133, Type (0, 1), BuildingBlock: EZIPEK_clean_linker_0, # of connection points: 2
#     Edge 134, Type (0, 1), BuildingBlock: EZIPEK_clean_linker_0, # of connection points: 2
#     Edge 135, Type (0, 1), BuildingBlock: EZIPEK_clean_linker_0, # of connection points: 2
# Relax obj value: 0.352
# Max RMSD: 0.519
# Mean RMSD: 0.187
data_MOF--net-gar--node1-CEKHIL_clean_sbu_0--node2-GEDQOX_clean_sbu_0--edge1-EZIPEK_clean_linker_0
_symmetry_space_group_name_H-M    P1
_symmetry_Int_Tables_number       1
_symmetry_cell_setting            triclinic
loop_
_symmetry_equiv_pos_as_xyz
'x, y, z'
_cell_length_a     45.750017
_cell_length_b     44.11983
_cell_length_c     38.361729
_cell_angle_alpha  99.866016
_cell_angle_beta   97.743747
_cell_angle_gamma 96.87595
loop_
_atom_site_label
_atom_site_type_symbol
_atom_site_fract_x
_atom_site_fract_y
_atom_site_fract_z
_atom_type_partial_charge
Co0 Co 0.16858 0.41753 0.50571 0.0
O1 O 0.20083 0.41085 0.47835 0.0
O2 O 0.15289 0.39369 0.45865 0.0
C3 C 0.18136 0.46926 0.52868 0.0
O4 O 0.12872 0.4193 0.5225 0.0
Co5 Co 0.17503 0.43839 0.58853 0.0
O6 O 0.13157 0.44025 0.58076 0.0
C7 C 0.17317 0.37203 0.55615 0.0
C8 C 0.18007 0.39579 0.45239 0.0
C9 C 0.11668 0.42867 0.54993 0.0
O10 O 0.1722 0.37834 0.52462 0.0
O11 O 0.1756 0.39261 0.58469 0.0
O12 O 0.16861 0.45888 0.49564 0.0
O13 O 0.18926 0.44777 0.54548 0.0
Co14 Co 1.02113 0.79483 0.68209 0.0
O15 O 0.98634 0.79679 0.70535 0.0
O16 O 1.03302 0.80112 0.73325 0.0
C17 C 1.01241 0.84173 0.6565 0.0
O18 O 0.06149 0.79595 0.66672 0.0
Co19 Co 1.01943 0.80556 0.59228 0.0
O20 O 0.06316 0.81357 0.61425 0.0
C21 C 0.99597 0.75734 0.60446 0.0
C22 C 1.00497 0.80238 0.73552 0.0
C23 C 0.07542 0.80581 0.64291 0.0
O24 O 1.00118 0.78158 0.63025 0.0
O25 O 0.9938 0.76463 0.57384 0.0
O26 O 1.02553 0.84165 0.68733 0.0
O27 O 1.00544 0.81395 0.63991 0.0
Co28 Co 0.67254 0.92337 0.99928 0.0
O29 O 0.70411 0.9119 0.97262 0.0
O30 O 0.65567 0.9014 0.95192 0.0
C31 C 0.69167 0.97382 0.02395 0.0
O32 O 0.63301 0.93032 0.01392 0.0
Co33 Co 0.67627 0.94512 0.08167 0.0
O34 O 0.63392 0.95167 0.07147 0.0
C35 C 0.67154 0.87824 0.04986 0.0
C36 C 0.68263 0.89971 0.94608 0.0
C37 C 0.62003 0.94095 0.0399 0.0
O38 O 0.66997 0.88363 0.01785 0.0
O39 O 0.67595 0.89932 0.07817 0.0
O40 O 0.67917 0.96545 0.9905 0.0
O41 O 0.69498 0.95087 0.0402 0.0
Co42 Co 0.51814 0.29757 0.17453 0.0
O43 O 0.49058 0.31362 0.20667 0.0
O44 O 0.52976 0.29534 0.22563 0.0
C45 C 0.5097 0.33775 0.14106 0.0
O46 O 0.55167 0.33493 0.1899 0.0
Co47 Co 0.53694 0.28662 0.13391 0.0
O48 O 0.57778 0.30407 0.16108 0.0
C49 C 0.49789 0.23519 0.13475 0.0
C50 C 0.50767 0.30881 0.23381 0.0
C51 C 0.57747 0.32775 0.18476 0.0
O52 O 0.49569 0.25351 0.16383 0.0
O53 O 0.5143 0.2453 0.11411 0.0
O54 O 0.52623 0.34298 0.17233 0.0
O55 O 0.5014 0.30901 0.12903 0.0
Co56 Co 0.08439 0.82069 0.27109 0.0
O57 O 1.04013 0.81818 0.25859 0.0
O58 O 0.06098 0.81621 0.31174 0.0
C59 C 0.09096 0.86275 0.24299 0.0
O60 O 0.13137 0.82361 0.29416 0.0
Co61 Co 0.12541 0.81617 0.214 0.0
O62 O 0.16083 0.82637 0.25172 0.0
C63 C 0.08739 0.75945 0.22273 0.0
C64 C 1.03609 0.81664 0.29084 0.0
C65 C 0.15815 0.82642 0.28426 0.0
O66 O 0.08089 0.77374 0.25257 0.0
O67 O 0.10235 0.77317 0.20258 0.0
O68 O 0.08768 0.86645 0.2765 0.0
O69 O 0.09137 0.83439 0.22808 0.0
Co70 Co 0.61389 0.86419 0.40593 0.0
O71 O 0.65848 0.87195 0.41902 0.0
O72 O 0.63674 0.84909 0.36609 0.0
C73 C 0.60696 0.91325 0.4328 0.0
O74 O 0.56676 0.85356 0.38173 0.0
Co75 Co 0.57216 0.86772 0.46343 0.0
O76 O 0.53749 0.86088 0.42466 0.0
C77 C 0.61065 0.81888 0.45684 0.0
C78 C 0.66212 0.85901 0.38732 0.0
C79 C 0.5401 0.85442 0.3917 0.0
O80 O 0.61416 0.8235 0.42506 0.0
O81 O 0.59714 0.83616 0.47756 0.0
O82 O 0.61383 0.90828 0.40066 0.0
O83 O 0.6061 0.8894 0.44793 0.0
Co84 Co 0.58258 0.31773 0.76317 0.0
O85 O 0.53825 0.31557 0.7505 0.0
O86 O 0.55842 0.31223 0.80324 0.0
C87 C 0.59074 0.36117 0.73654 0.0
O88 O 0.62947 0.32068 0.78644 0.0
Co89 Co 0.62327 0.31303 0.7058 0.0
O90 O 0.65865 0.32262 0.74359 0.0
C91 C 0.58614 0.25629 0.71428 0.0
C92 C 0.53363 0.31316 0.7824 0.0
C93 C 0.65616 0.32316 0.77628 0.0
O94 O 0.57924 0.2707 0.74386 0.0
O95 O 0.60097 0.26998 0.69406 0.0
O96 O 0.58645 0.36364 0.76959 0.0
O97 O 0.59027 0.33277 0.72093 0.0
Co98 Co 0.11252 0.3689 0.90389 0.0
O99 O 0.15715 0.37663 0.91671 0.0
O100 O 0.13541 0.35542 0.86334 0.0
C101 C 0.10504 0.41767 0.9335 0.0
O102 O 0.06537 0.35875 0.87998 0.0
Co103 Co 0.07192 0.36766 0.96127 0.0
O104 O 1.03648 0.35925 0.92339 0.0
C105 C 0.11109 0.32075 0.95165 0.0
C106 C 0.16085 0.36453 0.8847 0.0
C107 C 1.0388 0.3566 0.89044 0.0
O108 O 0.11352 0.32699 0.92025 0.0
O109 O 0.09793 0.33682 0.97385 0.0
O110 O 0.11156 0.41351 0.90116 0.0
O111 O 0.10474 0.39285 0.94712 0.0
Co112 Co 0.49436 0.17213 0.34914 0.0
O113 O 0.49593 0.21796 0.35401 0.0
O114 O 0.45766 0.18412 0.32602 0.0
C115 C 0.51345 0.16966 0.40871 0.0
O116 O 0.47909 0.12604 0.33829 0.0
Co117 Co 0.54398 0.13131 0.36388 0.0
O118 O 0.50947 0.10179 0.37047 0.0
C119 C 0.53454 0.15169 0.29355 0.0
C120 C 0.46854 0.2131 0.33698 0.0
C121 C 0.48366 0.10368 0.35451 0.0
O122 O 0.51266 0.16649 0.30217 0.0
O123 O 0.54987 0.13821 0.31505 0.0
O124 O 0.48633 0.17487 0.39953 0.0
O125 O 0.52866 0.16876 0.38272 0.0
Co126 Co 0.30807 0.16519 0.47133 0.0
O127 O 0.34695 0.16345 0.4584 0.0
O128 O 0.31346 0.1225 0.45545 0.0
C129 C 0.29907 0.20538 0.44334 0.0
O130 O 0.26576 0.15706 0.48265 0.0
Co131 Co 0.29401 0.22365 0.51891 0.0
O132 O 0.25427 0.1994 0.51677 0.0
C133 C 0.33371 0.18338 0.54889 0.0
C134 C 0.34049 0.13337 0.45217 0.0
C135 C 0.24789 0.17117 0.50061 0.0
O136 O 0.32488 0.16193 0.52124 0.0
O137 O 0.32657 0.21077 0.55137 0.0
O138 O 0.29338 0.17677 0.42579 0.0
O139 O 0.31061 0.20875 0.47654 0.0
Co140 Co 0.24 0.06861 0.85857 0.0
O141 O 0.23438 1.02069 0.85366 0.0
O142 O 0.2763 0.04605 0.85156 0.0
C143 C 0.21122 0.07806 0.90888 0.0
O144 O 0.26099 0.11722 0.86152 0.0
Co145 Co 0.19608 0.11452 0.85487 0.0
O146 O 0.22789 0.15057 0.85887 0.0
C147 C 0.20268 0.07462 0.78693 0.0
C148 C 0.26203 1.01843 0.85003 0.0
C149 C 0.25484 0.14578 0.86001 0.0
O150 O 0.22568 0.06477 0.80342 0.0
O151 O 0.18689 0.09228 0.80369 0.0
O152 O 0.23907 0.07342 0.91293 0.0
O153 O 0.20189 0.07771 0.87554 0.0
Co154 Co 0.27104 0.93311 0.08154 0.0
O155 O 0.22799 0.93692 0.08009 0.0
O156 O 0.26424 0.97586 0.09799 0.0
C157 C 0.27128 0.90235 0.02453 0.0
O158 O 0.31565 0.94281 0.08617 0.0
Co159 Co 0.29974 0.87331 0.08138 0.0
O160 O 0.3382 0.90229 0.09719 0.0
C161 C 0.28482 0.90307 0.14874 0.0
C162 C 0.23579 0.96674 0.09222 0.0
C163 C 0.33909 0.93053 0.09379 0.0
O164 O 0.27588 0.92545 0.13386 0.0
O165 O 0.29219 0.87874 0.13119 0.0
O166 O 0.2684 0.93171 0.02883 0.0
O167 O 0.2698 0.89148 0.05372 0.0
Co168 Co 0.38635 0.52452 0.17409 0.0
O169 O 0.34392 0.51962 0.17209 0.0
O170 O 0.37424 0.56072 0.20258 0.0
C171 C 0.38284 0.51343 0.11449 0.0
O172 O 0.43165 0.53792 0.18022 0.0
Co173 Co 0.41692 0.46917 0.1424 0.0
O174 O 0.44899 0.50281 0.14136 0.0
C175 C 0.39172 0.46918 0.20951 0.0
C176 C 0.34696 0.54806 0.18888 0.0
C177 C 0.4518 0.52938 0.16161 0.0
O178 O 0.38899 0.49837 0.21279 0.0
O179 O 0.40047 0.45355 0.18258 0.0
O180 O 0.38246 0.54158 0.1306 0.0
O181 O 0.38457 0.49275 0.13444 0.0
Co182 Co 0.92608 0.24636 0.07981 0.0
O183 O 0.96897 0.24245 0.08056 0.0
O184 O 0.93559 0.20502 0.08681 0.0
C185 C 0.9194 0.26792 0.02792 0.0
O186 O 0.88108 0.23792 0.07766 0.0
Co187 Co 0.89827 0.30756 0.08387 0.0
O188 O 0.85967 0.28003 0.06953 0.0
C189 C 0.92128 0.28961 0.15226 0.0
C190 C 0.96297 0.21331 0.08287 0.0
C191 C 0.85802 0.25157 0.07216 0.0
O192 O 0.92981 0.26458 0.13505 0.0
O193 O 0.91021 0.30963 0.13607 0.0
O194 O 0.92014 0.23842 0.02664 0.0
O195 O 0.92506 0.28361 0.0603 0.0
Co196 Co 0.18294 0.5265 0.34378 0.0
O197 O 0.18447 0.4824 0.34895 0.0
O198 O 0.22122 0.51244 0.33597 0.0
C199 C 0.16301 0.5444 0.39508 0.0
O200 O 0.19416 0.57099 0.33837 0.0
Co201 Co 0.1274 0.56224 0.33782 0.0
O202 O 0.15666 0.59956 0.33857 0.0
C203 C 0.14204 0.52497 0.27136 0.0
C204 C 0.21215 0.48574 0.34352 0.0
C205 C 0.18381 0.59662 0.33693 0.0
O206 O 0.16519 0.51632 0.28911 0.0
O207 O 0.12425 0.54091 0.28696 0.0
O208 O 0.1907 0.53977 0.39702 0.0
O209 O 0.14785 0.53496 0.36347 0.0
Co210 Co 0.89836 1.0037 0.67791 0.0
O211 O 0.85515 0.99486 0.66863 0.0
O212 O 0.88132 0.04109 0.67299 0.0
C213 C 0.90378 0.96165 0.63824 0.0
O214 O 0.94202 1.02353 0.682 0.0
Co215 Co 0.94247 0.96321 0.70584 0.0
O216 O 0.97267 0.9881 0.68721 0.0
C217 C 0.90022 0.98793 0.74997 0.0
C218 C 0.85537 1.02403 0.66684 0.0
C219 C 0.96704 1.01355 0.6787 0.0
O220 O 0.89665 1.00919 0.73107 0.0
O221 O 0.91669 0.96704 0.74305 0.0
O222 O 0.89912 0.98753 0.62805 0.0
O223 O 0.90581 0.96229 0.67227 0.0
Co224 Co 0.95362 0.10346 0.32703 0.0
O225 O 0.95964 0.15159 0.33543 0.0
O226 O 0.91737 0.12527 0.31365 0.0
C227 C 0.97907 0.09993 0.38397 0.0
O228 O 0.93215 0.0543 0.3194 0.0
Co229 Co 0.99776 0.05709 0.32796 0.0
O230 O 0.96573 1.02218 0.32865 0.0
C231 C 0.99681 0.0908 0.26766 0.0
C232 C 0.93161 0.1533 0.32534 0.0
C233 C 0.93852 0.0262 0.32334 0.0
O234 O 0.97164 0.10032 0.27656 0.0
O235 O 1.0113 0.07496 0.28699 0.0
O236 O 0.95203 0.10661 0.37974 0.0
O237 O 0.99013 0.0966 0.35468 0.0
Co238 Co 0.42642 0.74589 0.57935 0.0
O239 O 0.47001 0.74583 0.58352 0.0
O240 O 0.43818 0.70587 0.58728 0.0
C241 C 0.42081 0.76775 0.52821 0.0
O242 O 0.38187 0.73276 0.5729 0.0
Co243 Co 0.39093 0.80143 0.57903 0.0
O244 O 0.35759 0.76901 0.55361 0.0
C245 C 0.41403 0.78669 0.64912 0.0
C246 C 0.46546 0.71638 0.58515 0.0
C247 C 0.35826 0.74104 0.55754 0.0
O248 O 0.42618 0.76346 0.63368 0.0
O249 O 0.40093 0.80474 0.63164 0.0
O250 O 0.42382 0.73866 0.52673 0.0
O251 O 0.42321 0.7829 0.56055 0.0
Co252 Co 0.45206 0.60038 0.82836 0.0
O253 O 0.45725 0.64831 0.83442 0.0
O254 O 0.41546 0.62091 0.81284 0.0
C255 C 0.47712 0.60065 0.88697 0.0
O256 O 0.4317 0.55102 0.82301 0.0
Co257 Co 0.49809 0.55629 0.83535 0.0
O258 O 0.46652 0.52101 0.83561 0.0
C259 C 0.4978 0.58707 0.77277 0.0
C260 C 0.42912 0.64926 0.82401 0.0
C261 C 0.43901 0.52368 0.8288 0.0
O262 O 0.47119 0.59492 0.7784 0.0
O263 O 0.51323 0.57595 0.79656 0.0
O264 O 0.44975 0.60616 0.88124 0.0
O265 O 0.48834 0.59593 0.85792 0.0
Co266 Co 0.68034 0.02962 0.845 0.0
O267 O 0.68246 0.98629 0.85214 0.0
O268 O 0.71933 1.01642 0.83938 0.0
C269 C 0.65867 0.04723 0.8949 0.0
O270 O 0.68989 0.07415 0.8373 0.0
Co271 Co 0.62224 0.06145 0.83543 0.0
O272 O 0.65002 0.09964 0.83552 0.0
C273 C 0.64168 0.02565 0.77113 0.0
C274 C 0.7103 0.98994 0.84762 0.0
C275 C 0.6775 0.09844 0.83404 0.0
O276 O 0.66422 1.01751 0.79038 0.0
O277 O 0.62248 0.04072 0.78497 0.0
O278 O 0.68671 0.04391 0.89794 0.0
O279 O 0.64435 0.0368 0.86303 0.0
Co280 Co 0.80537 0.67008 0.97103 0.0
O281 O 0.84349 0.6689 0.95536 0.0
O282 O 0.813 0.62771 0.95995 0.0
C283 C 0.79202 0.70575 0.9382 0.0
O284 O 0.76438 0.66076 0.98589 0.0
Co285 Co 0.78734 0.72948 0.0124 0.0
O286 O 0.74966 0.70353 0.01511 0.0
C287 C 0.83689 0.69988 0.04256 0.0
C288 C 0.83879 0.63897 0.95316 0.0
C289 C 0.74546 0.67451 1.00234 0.0
O290 O 0.82619 0.67408 0.02133 0.0
O291 O 0.82652 0.7253 0.04034 0.0
O292 O 0.78718 0.67622 0.92387 0.0
O293 O 0.80451 0.71245 0.97118 0.0
Co294 Co 0.99413 0.67811 0.85275 0.0
O295 O 0.9933 0.72362 0.8563 0.0
O296 O 0.95647 0.68779 0.82886 0.0
C297 C 1.01346 0.67697 0.9127 0.0
O298 O 0.98152 0.63125 0.84364 0.0
Co299 Co 0.04726 0.64191 0.86826 0.0
O300 O 1.01518 0.61043 0.87603 0.0
C301 C 1.03437 0.65891 0.79634 0.0
C302 C 0.96609 0.71718 0.83876 0.0
C303 C 0.98876 0.60963 0.86009 0.0
O304 O 1.0126 0.67349 0.80579 0.0
O305 O 0.05019 0.64573 0.81773 0.0
O306 O 0.98596 0.68071 0.90298 0.0
O307 O 1.02894 0.6773 0.88699 0.0
Co308 Co 0.76948 0.43048 0.57533 0.0
O309 O 0.7275 0.43473 0.58102 0.0
O310 O 0.76449 0.47308 0.59595 0.0
C311 C 0.76267 0.40182 0.51657 0.0
O312 O 0.81353 0.4393 0.57243 0.0
Co313 Co 0.79738 0.36889 0.56106 0.0
O314 O 0.82924 0.39604 0.54589 0.0
C315 C 0.79133 0.39596 0.63568 0.0
C316 C 0.73609 0.46441 0.5932 0.0
C317 C 0.8328 0.42534 0.55703 0.0
O318 O 0.77975 0.41923 0.62542 0.0
O319 O 0.79803 0.37342 0.61392 0.0
O320 O 0.76074 0.43137 0.52343 0.0
O321 O 0.76488 0.39018 0.54533 0.0
Co322 Co 0.74299 0.57458 0.36452 0.0
O323 O 0.73754 0.52655 0.35798 0.0
O324 O 0.77921 0.5523 0.35583 0.0
C325 C 0.71514 0.58161 0.41569 0.0
O326 O 0.7634 0.62345 0.36846 0.0
Co327 Co 0.69908 0.62115 0.36668 0.0
O328 O 0.7307 0.65746 0.37079 0.0
C329 C 0.7038 0.58354 0.29619 0.0
C330 C 0.76518 0.52453 0.35412 0.0
C331 C 0.75729 0.6523 0.36918 0.0
O332 O 0.72784 0.57353 0.30999 0.0
O333 O 0.68752 0.59792 0.31605 0.0
O334 O 0.74308 0.57734 0.41885 0.0
O335 O 0.70538 0.58272 0.38296 0.0
Nd336 Nd 0.11893 0.11634 0.09591 0.0
Nd337 Nd 0.08286 0.06473 0.07921 0.0
C338 C 0.15052 0.17259 0.11602 0.0
C339 C 0.15133 0.19696 0.09314 0.0
C340 C 0.12923 0.21666 0.0923 0.0
C341 C 0.1265 0.2357 0.06661 0.0
C342 C 0.14564 0.23552 0.04087 0.0
C343 C 0.16835 0.21671 0.04224 0.0
C344 C 0.17146 0.19809 0.06845 0.0
C345 C 0.12743 0.09381 0.02358 0.0
C346 C 0.05124 0.12494 0.06626 0.0
C347 C 0.05196 1.00772 0.06655 0.0
C348 C 0.05724 0.98442 0.08999 0.0
C349 C 0.084 0.98892 0.11435 0.0
C350 C 0.08884 0.96944 0.13907 0.0
C351 C 0.06728 0.94436 0.14002 0.0
C352 C 1.04047 0.93932 0.11543 0.0
C353 C 1.03542 0.95932 0.09081 0.0
C354 C 0.07695 0.08818 0.15158 0.0
C355 C 0.14992 0.0562 0.10719 0.0
O356 O 0.12521 0.16508 0.12643 0.0
O357 O 0.16256 0.14794 0.10606 0.0
O358 O 0.1224 0.12147 0.03661 0.0
O359 O 0.12244 0.07716 0.04735 0.0
O360 O 0.07671 0.13901 0.0849 0.0
O361 O 0.04881 0.09452 0.05402 0.0
O362 O 0.07343 1.01549 0.04932 0.0
O363 O 1.04173 0.03229 0.08093 0.0
O364 O 0.08752 0.06289 0.14063 0.0
O365 O 0.07862 0.10364 0.12625 0.0
O366 O 0.1265 0.04391 0.08357 0.0
O367 O 0.15079 0.08552 0.12312 0.0
H368 H 0.1133 0.21661 0.11078 0.0
H369 H 0.10885 0.25003 0.0662 0.0
H370 H 0.18352 0.21628 0.02285 0.0
H371 H 0.18915 0.18392 0.06871 0.0
H372 H 0.10108 1.0081 0.11508 0.0
H373 H 0.1095 0.97401 0.15778 0.0
H374 H 1.02335 0.92017 0.11561 0.0
H375 H 1.0144 0.95539 0.07278 0.0
Nd376 Nd 0.35601 0.86492 0.36099 0.0
Nd377 Nd 0.34191 0.81277 0.31864 0.0
C378 C 0.36539 0.9222 0.39968 0.0
C379 C 0.36729 0.954 0.39324 0.0
C380 C 0.36063 0.95926 0.35814 0.0
C381 C 0.37442 0.986 0.34874 0.0
C382 C 0.3945 1.00771 0.37459 0.0
C383 C 0.39826 1.00421 0.41042 0.0
C384 C 0.3847 0.97741 0.41974 0.0
C385 C 0.41075 0.84301 0.34973 0.0
C386 C 0.33392 0.86909 0.27765 0.0
C387 C 0.33179 0.75786 0.27608 0.0
C388 C 0.31323 0.73021 0.28217 0.0
C389 C 0.318 0.72067 0.31545 0.0
C390 C 0.29674 0.69934 0.32459 0.0
C391 C 0.27031 0.68744 0.30081 0.0
C392 C 0.26595 0.69586 0.26702 0.0
C393 C 0.28733 0.71708 0.25773 0.0
C394 C 0.28757 0.82664 0.34116 0.0
C395 C 0.36091 0.80877 0.40144 0.0
O396 O 0.33948 0.90467 0.39352 0.0
O397 O 0.38594 0.90763 0.38733 0.0
O398 O 0.40262 0.85232 0.3802 0.0
O399 O 0.38855 0.84294 0.32514 0.0
O400 O 0.34204 0.88532 0.31034 0.0
O401 O 0.33501 0.83912 0.27214 0.0
O402 O 0.35654 0.76771 0.29852 0.0
O403 O 0.31719 0.7805 0.26997 0.0
O404 O 0.29965 0.80216 0.3455 0.0
O405 O 0.30752 0.84539 0.33243 0.0
O406 O 0.36099 0.79465 0.36857 0.0
O407 O 0.35175 0.83609 0.40535 0.0
H408 H 0.34719 0.94153 0.33734 0.0
H409 H 0.37127 0.98856 0.32095 0.0
H410 H 0.41373 1.02085 0.43051 0.0
H411 H 0.3904 0.97356 0.44683 0.0
H412 H 0.33755 0.73062 0.33513 0.0
H413 H 0.30057 0.69262 0.35051 0.0
H414 H 0.24577 0.68641 0.24817 0.0
H415 H 0.28298 0.72437 0.23219 0.0
Nd416 Nd 0.61648 0.09459 0.58011 0.0
Nd417 Nd 0.56071 0.0709 0.57778 0.0
C418 C 0.67287 0.1127 0.57441 0.0
C419 C 0.70139 0.10434 0.59054 0.0
C420 C 0.72228 0.09527 0.56866 0.0
C421 C 0.74773 0.08394 0.5828 0.0
C422 C 0.75257 0.08108 0.61902 0.0
C423 C 0.73224 0.09119 0.6412 0.0
C424 C 0.70702 0.10294 0.62718 0.0
C425 C 0.61413 0.06239 0.63718 0.0
C426 C 0.59456 0.02742 0.52912 0.0
C427 C 0.50393 0.05381 0.58175 0.0
C428 C 0.47692 0.05649 0.55735 0.0
C429 C 0.45335 0.06939 0.57131 0.0
C430 C 0.43019 0.07732 0.54842 0.0
C431 C 0.43039 0.07249 0.51133 0.0
C432 C 0.45318 0.05836 0.4972 0.0
C433 C 0.47624 0.05036 0.51999 0.0
C434 C 0.56295 0.10168 0.51896 0.0
C435 C 0.58294 0.13607 0.63041 0.0
O436 O 0.65541 0.09068 0.55124 0.0
O437 O 0.65812 0.12852 0.59606 0.0
O438 O 0.62906 0.08937 0.63883 0.0
O439 O 0.60017 0.05257 0.60567 0.0
O440 O 0.61052 0.05459 0.53061 0.0
O441 O 0.57501 0.02557 0.55103 0.0
O442 O 0.51916 0.08015 0.59916 0.0
O443 O 0.52109 0.03446 0.56916 0.0
O444 O 0.54988 0.07422 0.51876 0.0
O445 O 0.57654 0.11233 0.55078 0.0
O446 O 0.56866 0.10831 0.62987 0.0
O447 O 0.6003 0.13903 0.60629 0.0
H448 H 0.71848 0.09615 0.54038 0.0
H449 H 0.7632 0.07641 0.56522 0.0
H450 H 0.73551 0.08926 0.66919 0.0
H451 H 0.69139 0.10979 0.64481 0.0
H452 H 0.45359 0.07464 0.6 0.0
H453 H 0.41283 0.08845 0.55972 0.0
H454 H 0.45385 0.05479 0.46872 0.0
H455 H 0.4942 0.04066 0.50843 0.0
Nd456 Nd 0.35851 0.33774 0.86273 0.0
Nd457 Nd 0.33577 0.3246 0.8092 0.0
C458 C 0.37164 0.35379 0.93273 0.0
C459 C 0.36896 0.38444 0.95177 0.0
C460 C 0.35224 0.40347 0.93367 0.0
C461 C 0.35168 0.43407 0.94955 0.0
C462 C 0.36721 0.44557 0.98402 0.0
C463 C 0.38421 0.42668 1.002 0.0
C464 C 0.38525 0.3962 0.98579 0.0
C465 C 0.37538 0.39409 0.8364 0.0
C466 C 0.28663 0.34888 0.85217 0.0
C467 C 0.32254 0.30689 0.73885 0.0
C468 C 0.32991 0.27916 0.71721 0.0
C469 C 0.32062 0.27237 0.68021 0.0
C470 C 0.32902 0.24656 0.65976 0.0
C471 C 0.34679 0.22742 0.67617 0.0
C472 C 0.35565 0.23386 0.71331 0.0
C473 C 0.34721 0.25971 0.73377 0.0
C474 C 0.31985 0.26961 0.83877 0.0
C475 C 0.40814 0.31716 0.81925 0.0
O476 O 0.34649 0.33722 0.9167 0.0
O477 O 0.39187 0.35385 0.91204 0.0
O478 O 0.39274 0.37755 0.85162 0.0
O479 O 0.34881 0.37847 0.83173 0.0
O480 O 0.30893 0.34315 0.87464 0.0
O481 O 0.29307 0.34726 0.81963 0.0
O482 O 0.34543 0.32723 0.75463 0.0
O483 O 0.30374 0.3017 0.76038 0.0
O484 O 0.30185 0.286 0.82427 0.0
O485 O 0.34628 0.2845 0.84085 0.0
O486 O 0.38568 0.32246 0.79669 0.0
O487 O 0.40153 0.3164 0.85129 0.0
H488 H 0.34041 0.39501 0.90673 0.0
H489 H 0.3387 0.44846 0.93537 0.0
H490 H 0.39608 0.43538 0.02897 0.0
H491 H 0.39864 0.38194 0.99966 0.0
H492 H 0.30729 0.28717 0.66717 0.0
H493 H 0.32205 0.24171 0.63097 0.0
H494 H 0.36933 0.21928 0.72622 0.0
H495 H 0.35455 0.26488 0.76246 0.0
Nd496 Nd 0.10343 0.11478 0.59256 0.0
Nd497 Nd 0.10294 0.05431 0.56185 0.0
C498 C 0.10559 0.17218 0.62729 0.0
C499 C 0.11829 0.20116 0.6177 0.0
C500 C 0.10639 0.22872 0.62674 0.0
C501 C 0.118 0.25567 0.61572 0.0
C502 C 0.1416 0.2551 0.59578 0.0
C503 C 0.15367 0.2277 0.58712 0.0
C504 C 0.14201 0.2009 0.59788 0.0
C505 C 0.14155 0.11187 0.5417 0.0
C506 C 0.06151 0.09166 0.51546 0.0
C507 C 0.10865 0.99614 0.53489 0.0
C508 C 0.09274 0.96646 0.54007 0.0
C509 C 0.10847 0.9469 0.55837 0.0
C510 C 0.09315 0.92405 0.57304 0.0
C511 C 0.06195 0.92085 0.56997 0.0
C512 C 0.04615 0.93764 0.54783 0.0
C513 C 0.06141 0.96033 0.533 0.0
C514 C 0.05388 0.06076 0.59723 0.0
C515 C 0.14131 0.07456 0.64302 0.0
O516 O 0.08168 0.15688 0.60613 0.0
O517 O 0.12506 0.15419 0.63533 0.0
O518 O 0.122 0.13035 0.54481 0.0
O519 O 0.13969 0.0941 0.56403 0.0
O520 O 0.06131 0.10765 0.54796 0.0
O521 O 0.08162 0.07262 0.51211 0.0
O522 O 0.12561 1.01268 0.56342 0.0
O523 O 0.09329 1.01325 0.51718 0.0
O524 O 0.05298 0.0451 0.56541 0.0
O525 O 0.08019 0.07316 0.60929 0.0
O526 O 0.13256 0.05137 0.61543 0.0
O527 O 0.13298 0.10194 0.64101 0.0
H528 H 0.08798 0.22926 0.64176 0.0
H529 H 0.10837 0.2768 0.62224 0.0
H530 H 0.17167 0.22694 0.57144 0.0
H531 H 0.15132 0.17985 0.59027 0.0
H532 H 0.13262 0.95095 0.56382 0.0
H533 H 0.10569 0.91081 0.58942 0.0
H534 H 1.02204 0.93516 0.54466 0.0
H535 H 0.04858 0.97479 0.51876 0.0
Nd536 Nd 0.3663 0.84864 0.8612 0.0
Nd537 Nd 0.31842 0.81674 0.8158 0.0
C538 C 0.41644 0.8716 0.90382 0.0
C539 C 0.44464 0.88442 0.92745 0.0
C540 C 0.47135 0.88504 0.91337 0.0
C541 C 0.49851 0.89566 0.9359 0.0
C542 C 0.49924 0.90629 0.9727 0.0
C543 C 0.47249 0.90571 0.9868 0.0
C544 C 0.44528 0.89458 0.96431 0.0
C545 C 0.31592 0.85086 0.89517 0.0
C546 C 0.36835 0.77031 0.8388 0.0
C547 C 0.26684 0.78459 0.78111 0.0
C548 C 0.24122 0.79069 0.75674 0.0
C549 C 0.21565 0.79903 0.77029 0.0
C550 C 0.19117 0.8042 0.74731 0.0
C551 C 0.19178 0.80097 0.71044 0.0
C552 C 0.21732 0.79303 0.69675 0.0
C553 C 0.24182 0.78778 0.7197 0.0
C554 C 0.36429 0.82954 0.7763 0.0
C555 C 0.31978 0.89523 0.83229 0.0
O556 O 0.41018 0.87866 0.87202 0.0
O557 O 0.39596 0.85255 0.91307 0.0
O558 O 0.33582 0.87398 0.89518 0.0
O559 O 0.32287 0.82632 0.87709 0.0
O560 O 0.38336 0.7982 0.85505 0.0
O561 O 0.34019 0.77064 0.82415 0.0
O562 O 0.27066 0.79882 0.81447 0.0
O563 O 0.2919 0.78391 0.76883 0.0
O564 O 0.33712 0.83515 0.76853 0.0
O565 O 0.36674 0.82081 0.80604 0.0
O566 O 0.30257 0.86753 0.82214 0.0
O567 O 0.34877 0.89347 0.84168 0.0
H568 H 0.47124 0.87683 0.88506 0.0
H569 H 0.51899 0.89587 0.92462 0.0
H570 H 0.47282 0.91344 0.01519 0.0
H571 H 0.42481 0.894 0.97564 0.0
H572 H 0.21442 0.80123 0.7986 0.0
H573 H 0.17145 0.81005 0.75817 0.0
H574 H 0.21795 0.79016 0.66826 0.0
H575 H 0.26107 0.78113 0.70832 0.0
Nd576 Nd 0.57525 0.07848 0.07799 0.0
Nd577 Nd 0.61293 0.13494 0.09933 0.0
C578 C 0.53385 0.03028 0.05106 0.0
C579 C 0.50559 1.01852 0.06077 0.0
C580 C 0.49448 0.03521 0.08943 0.0
C581 C 0.46764 1.02338 0.09899 0.0
C582 C 0.45202 0.99481 0.07992 0.0
C583 C 0.4632 0.9783 0.05133 0.0
C584 C 0.48994 0.99005 0.04188 0.0
C585 C 0.63364 0.06745 0.09181 0.0
C586 C 0.58083 0.1094 0.16221 0.0
C587 C 0.65628 0.18163 0.12468 0.0
C588 C 0.68496 0.18992 0.11342 0.0
C589 C 0.69473 0.16933 0.08674 0.0
C590 C 0.72215 0.17704 0.07596 0.0
C591 C 0.73993 0.20545 0.09172 0.0
C592 C 0.72995 0.22621 0.11802 0.0
C593 C 0.70252 0.21848 0.1288 0.0
C594 C 0.55377 0.14479 0.08631 0.0
C595 C 0.60555 0.10582 0.01499 0.0
O596 O 0.53472 0.05657 0.03956 0.0
O597 O 0.55734 0.02909 0.07395 0.0
O598 O 0.6117 0.0543 0.10457 0.0
O599 O 0.62477 0.08825 0.0759 0.0
O600 O 0.56216 0.09299 0.1342 0.0
O601 O 0.60573 0.12418 0.15546 0.0
O602 O 0.65359 0.15617 0.13792 0.0
O603 O 0.63297 0.18357 0.10185 0.0
O604 O 0.57561 0.15973 0.07498 0.0
O605 O 0.56356 0.12446 0.10187 0.0
O606 O 0.62485 0.12154 0.04263 0.0
O607 O 0.5809 0.09088 0.0221 0.0
H608 H 0.50646 0.05734 0.10418 0.0
H609 H 0.45894 0.0365 0.12081 0.0
H610 H 0.45079 0.9566 0.03602 0.0
H611 H 0.49823 0.97703 0.01977 0.0
H612 H 0.68132 0.14716 0.07461 0.0
H613 H 0.72975 0.1607 0.05593 0.0
H614 H 0.74368 0.2481 0.13063 0.0
H615 H 0.69516 0.2346 0.14931 0.0
Nd616 Nd 0.31941 0.33103 0.31266 0.0
Nd617 Nd 0.36313 0.36925 0.37062 0.0
C618 C 0.27452 0.30557 0.26221 0.0
C619 C 0.24465 0.31458 0.26654 0.0
C620 C 0.24201 0.34646 0.27347 0.0
C621 C 0.22455 0.35783 0.29857 0.0
C622 C 0.20809 0.33738 0.31544 0.0
C623 C 0.20497 0.30526 0.30168 0.0
C624 C 0.22364 0.29386 0.27785 0.0
C625 C 0.31395 0.31514 0.37862 0.0
C626 C 0.29955 0.39582 0.35366 0.0
C627 C 0.40746 0.39273 0.42133 0.0
C628 C 0.43732 0.38576 0.41333 0.0
C629 C 0.44408 0.35527 0.41091 0.0
C630 C 0.46438 0.34446 0.38908 0.0
C631 C 0.48021 0.36408 0.37014 0.0
C632 C 0.47426 0.39528 0.37471 0.0
C633 C 0.45403 0.40601 0.39653 0.0
C634 C 0.36953 0.38408 0.30472 0.0
C635 C 0.38393 0.30543 0.32862 0.0
O636 O 0.29491 0.32722 0.25722 0.0
O637 O 0.28502 0.29055 0.28643 0.0
O638 O 0.29235 0.32133 0.35691 0.0
O639 O 0.33789 0.32154 0.36698 0.0
O640 O 0.29649 0.37493 0.32392 0.0
O641 O 0.32206 0.39611 0.37983 0.0
O642 O 0.38845 0.36907 0.42458 0.0
O643 O 0.39484 0.41031 0.40144 0.0
O644 O 0.39136 0.38008 0.32778 0.0
O645 O 0.34527 0.3784 0.31594 0.0
O646 O 0.38822 0.32753 0.35736 0.0
O647 O 0.36038 0.30396 0.30336 0.0
H648 H 0.25675 0.36317 0.2639 0.0
H649 H 0.22609 0.38272 0.30721 0.0
H650 H 0.19133 0.28897 0.31313 0.0
H651 H 0.22451 0.2691 0.27237 0.0
H652 H 0.4313 0.33854 0.42272 0.0
H653 H 0.46524 0.31984 0.38515 0.0
H654 H 0.48284 0.41155 0.35937 0.0
H655 H 0.44905 0.42946 0.39688 0.0
Nd656 Nd 0.60217 0.62512 0.0982 0.0
Nd657 Nd 0.60004 0.56391 0.07218 0.0
C658 C 0.6051 0.68319 0.13135 0.0
C659 C 0.61775 0.71151 0.12064 0.0
C660 C 0.60758 0.73978 0.13139 0.0
C661 C 0.61855 0.76608 0.11878 0.0
C662 C 0.63946 0.76401 0.09511 0.0
C663 C 0.64992 0.73586 0.08484 0.0
C664 C 0.63929 0.70982 0.09775 0.0
C665 C 0.64003 0.61841 0.04766 0.0
C666 C 0.55829 0.59928 0.02253 0.0
C667 C 0.60409 0.50541 0.047 0.0
C668 C 0.58321 0.47775 0.04782 0.0
C669 C 0.59425 0.45341 0.06194 0.0
C670 C 0.57475 0.43069 0.07151 0.0
C671 C 0.544 0.43198 0.06696 0.0
C672 C 0.53263 0.45508 0.05064 0.0
C673 C 0.5522 0.47806 0.04136 0.0
C674 C 0.55132 0.57381 0.10664 0.0
C675 C 0.64068 0.58725 0.15144 0.0
O676 O 0.5811 0.66777 0.11058 0.0
O677 O 0.62447 0.66525 0.13971 0.0
O678 O 0.62085 0.63744 0.04929 0.0
O679 O 0.6378 0.60187 0.07121 0.0
O680 O 0.55982 0.61802 0.05378 0.0
O681 O 0.57705 0.57876 0.02064 0.0
O682 O 0.61752 0.52017 0.07848 0.0
O683 O 0.59471 0.52415 0.02654 0.0
O684 O 0.55026 0.55473 0.07689 0.0
O685 O 0.57772 0.58629 0.11806 0.0
O686 O 0.62835 0.56244 0.12724 0.0
O687 O 0.63537 0.61466 0.14483 0.0
H688 H 0.59093 0.74136 0.14894 0.0
H689 H 0.61028 0.78782 0.12674 0.0
H690 H 0.66601 0.73402 0.06656 0.0
H691 H 0.64764 0.68826 0.08944 0.0
H692 H 0.61805 0.45301 0.06752 0.0
H693 H 0.58375 0.41268 0.08374 0.0
H694 H 0.50888 0.45603 0.04657 0.0
H695 H 0.54315 0.49684 0.03083 0.0
Nd696 Nd 0.87015 0.35286 0.36472 0.0
Nd697 Nd 0.82472 0.32434 0.31526 0.0
C698 C 0.91535 0.38827 0.40956 0.0
C699 C 0.94411 0.38962 0.43273 0.0
C700 C 0.97127 0.39689 0.42068 0.0
C701 C 0.99808 0.40183 0.44452 0.0
C702 C 0.99797 0.39965 0.48058 0.0
C703 C 0.97104 0.39198 0.49259 0.0
C704 C 0.94432 0.38707 0.4689 0.0
C705 C 0.82083 0.34268 0.39895 0.0
C706 C 0.87347 0.27625 0.34186 0.0
C707 C 0.774 0.29337 0.27809 0.0
C708 C 0.744 0.30202 0.27192 0.0
C709 C 0.73747 0.32948 0.29196 0.0
C710 C 0.71072 0.34053 0.2824 0.0
C711 C 0.69 0.32395 0.25304 0.0
C712 C 0.69618 0.29604 0.23367 0.0
C713 C 0.72309 0.28521 0.24297 0.0
C714 C 0.87361 0.33406 0.27984 0.0
C715 C 0.82382 0.40155 0.33657 0.0
O716 O 0.91368 0.38482 0.3747 0.0
O717 O 0.89239 0.3734 0.41911 0.0
O718 O 0.84612 0.33315 0.40748 0.0
O719 O 0.82112 0.35234 0.36973 0.0
O720 O 0.88913 0.30375 0.3583 0.0
O721 O 0.84552 0.27781 0.32686 0.0
O722 O 0.78401 0.29001 0.31066 0.0
O723 O 0.79375 0.30931 0.26416 0.0
O724 O 0.8474 0.34124 0.27015 0.0
O725 O 0.87402 0.32532 0.3097 0.0
O726 O 0.80688 0.37402 0.32443 0.0
O727 O 0.85225 0.39892 0.34779 0.0
H728 H 0.97174 0.3996 0.39322 0.0
H729 H 1.01885 0.40812 0.43511 0.0
H730 H 0.97069 0.39065 0.52047 0.0
H731 H 0.92374 0.38225 0.4793 0.0
H732 H 0.75344 0.34286 0.31428 0.0
H733 H 0.70638 0.3622 0.29744 0.0
H734 H 0.68047 0.28309 0.21077 0.0
H735 H 0.72797 0.26427 0.22689 0.0
Nd736 Nd 0.07116 0.59056 0.57423 0.0
Nd737 Nd 0.11929 0.64065 0.60041 0.0
C738 C 1.02436 0.55161 0.53793 0.0
C739 C 0.99406 0.53795 0.53966 0.0
C740 C 0.98389 0.53892 0.57266 0.0
C741 C 0.95688 0.5213 0.57444 0.0
C742 C 0.93998 0.50262 0.54325 0.0
C743 C 0.94965 0.50256 0.51011 0.0
C744 C 0.97658 0.52026 0.50834 0.0
C745 C 0.12389 0.56801 0.59274 0.0
C746 C 0.07511 0.62261 0.65824 0.0
C747 C 0.16932 0.67649 0.63143 0.0
C748 C 0.19897 0.67927 0.6213 0.0
C749 C 0.20531 0.65687 0.59375 0.0
C750 C 0.23133 0.66206 0.57919 0.0
C751 C 0.25125 0.68959 0.59223 0.0
C752 C 0.24557 0.71137 0.62084 0.0
C753 C 0.21941 0.70626 0.63526 0.0
C754 C 0.06652 0.66261 0.58132 0.0
C755 C 0.11382 0.61048 0.51598 0.0
O756 O 1.02898 0.58087 0.53514 0.0
O757 O 1.04539 0.54373 0.55964 0.0
O758 O 0.09865 0.55833 0.60189 0.0
O759 O 0.12074 0.59059 0.57709 0.0
O760 O 0.05751 0.60433 0.63042 0.0
O761 O 0.10174 0.63559 0.65391 0.0
O762 O 0.1601 0.65038 0.64119 0.0
O763 O 0.14918 0.68514 0.60911 0.0
O764 O 0.09205 0.67369 0.57385 0.0
O765 O 0.06965 0.64042 0.59735 0.0
O766 O 0.13288 0.62382 0.54503 0.0
O767 O 0.08643 0.60033 0.52061 0.0
H768 H 0.99733 0.55234 0.59709 0.0
H769 H 0.94952 0.52154 0.60016 0.0
H770 H 0.93677 0.48817 0.48589 0.0
H771 H 0.98441 0.51905 0.48277 0.0
H772 H 0.18956 0.63602 0.58252 0.0
H773 H 0.23552 0.64514 0.5571 0.0
H774 H 0.26084 0.73277 0.63101 0.0
H775 H 0.2146 0.72387 0.65621 0.0
Nd776 Nd 0.85949 0.84688 0.37053 0.0
Nd777 Nd 0.83954 0.82653 0.31135 0.0
C778 C 0.88816 0.85614 0.43685 0.0
C779 C 0.88713 0.84807 0.47183 0.0
C780 C 0.86065 0.83437 0.48088 0.0
C781 C 0.85802 0.83548 0.5169 0.0
C782 C 0.88117 0.85208 0.54367 0.0
C783 C 0.90915 0.8609 0.53394 0.0
C784 C 0.91205 0.85887 0.49815 0.0
C785 C 0.86798 0.90175 0.33992 0.0
C786 C 0.78826 0.84832 0.35643 0.0
C787 C 0.82639 0.81191 0.24043 0.0
C788 C 0.84253 0.80223 0.21099 0.0
C789 C 0.87328 0.80077 0.21769 0.0
C790 C 0.88635 0.78135 0.19347 0.0
C791 C 0.86887 0.76434 0.16184 0.0
C792 C 0.839 0.76872 0.15344 0.0
C793 C 0.82582 0.7873 0.17805 0.0
C794 C 0.819 0.77654 0.34537 0.0
C795 C 0.9117 0.82578 0.32633 0.0
O796 O 0.89265 0.8345 0.41141 0.0
O797 O 0.86857 0.87313 0.42618 0.0
O798 O 0.85334 0.89847 0.36614 0.0
O799 O 0.87262 0.87413 0.32675 0.0
O800 O 0.80941 0.84344 0.38094 0.0
O801 O 0.79677 0.84902 0.32493 0.0
O802 O 0.8327 0.84054 0.25788 0.0
O803 O 0.82404 0.79206 0.2616 0.0
O804 O 0.80306 0.78874 0.32245 0.0
O805 O 0.84534 0.79273 0.35192 0.0
O806 O 0.88704 0.81152 0.30499 0.0
O807 O 0.90729 0.84427 0.3552 0.0
H808 H 0.84137 0.82539 0.46053 0.0
H809 H 0.83693 0.82633 0.52355 0.0
H810 H 0.92777 0.87337 0.55369 0.0
H811 H 0.93284 0.86893 0.49133 0.0
H812 H 0.88676 0.81296 0.24247 0.0
H813 H 0.90949 0.77843 0.20018 0.0
H814 H 0.82529 0.75594 0.12883 0.0
H815 H 0.80208 0.78805 0.17249 0.0
Nd816 Nd 0.85363 0.36492 0.85497 0.0
Nd817 Nd 0.84032 0.30971 0.81725 0.0
C818 C 0.86168 0.42048 0.89725 0.0
C819 C 0.87596 0.45015 0.89096 0.0
C820 C 0.87913 0.4535 0.85584 0.0
C821 C 0.89591 0.47998 0.84967 0.0
C822 C 0.90989 0.50333 0.87857 0.0
C823 C 0.90634 0.50034 0.91364 0.0
C824 C 0.88943 0.4738 0.91984 0.0
C825 C 0.9084 0.35077 0.83481 0.0
C826 C 0.83689 0.36429 0.7717 0.0
C827 C 0.82901 0.25447 0.77443 0.0
C828 C 0.80355 0.22995 0.77202 0.0
C829 C 0.80892 0.19991 0.77571 0.0
C830 C 0.7863 0.17861 0.7827 0.0
C831 C 0.75807 0.18711 0.7859 0.0
C832 C 0.75206 0.21636 0.77993 0.0
C833 C 0.77468 0.23772 0.77318 0.0
C834 C 0.7851 0.32593 0.83676 0.0
C835 C 0.86184 0.3099 0.90003 0.0
O836 O 0.83671 0.40843 0.87637 0.0
O837 O 0.87948 0.4 0.90057 0.0
O838 O 0.89601 0.37473 0.82868 0.0
O839 O 0.88878 0.3321 0.84454 0.0
O840 O 0.83615 0.38095 0.80314 0.0
O841 O 0.84465 0.33638 0.77042 0.0
O842 O 0.847 0.26026 0.8048 0.0
O843 O 0.82328 0.27989 0.76366 0.0
O844 O 0.79566 0.30037 0.83956 0.0
O845 O 0.80567 0.34328 0.82707 0.0
O846 O 0.85918 0.29294 0.86796 0.0
O847 O 0.85434 0.33802 0.90227 0.0
H848 H 0.86936 0.43524 0.83323 0.0
H849 H 0.89857 0.48197 0.82248 0.0
H850 H 0.9172 0.51818 0.93611 0.0
H851 H 0.88758 0.47135 0.94711 0.0
H852 H 0.83106 0.19359 0.77538 0.0
H853 H 0.79117 0.15602 0.78717 0.0
H854 H 0.73033 0.22319 0.78236 0.0
H855 H 0.76998 0.26087 0.77097 0.0
Nd856 Nd 0.81679 0.83558 0.81186 0.0
Nd857 Nd 0.85892 0.87032 0.87484 0.0
C858 C 0.77453 0.81329 0.75706 0.0
C859 C 0.74439 0.82237 0.7588 0.0
C860 C 0.74227 0.85424 0.7679 0.0
C861 C 0.72393 0.86431 0.7925 0.0
C862 C 0.70648 0.8427 0.80686 0.0
C863 C 0.70263 0.81117 0.79024 0.0
C864 C 0.72196 0.80094 0.76667 0.0
C865 C 0.80795 0.81491 0.87416 0.0
C866 C 0.79558 0.89806 0.85812 0.0
C867 C 0.90296 0.88743 0.92798 0.0
C868 C 0.93242 0.87846 0.92041 0.0
C869 C 0.93683 0.84702 0.91663 0.0
C870 C 0.95509 0.83485 0.89269 0.0
C871 C 0.96952 0.85379 0.87238 0.0
C872 C 0.96969 0.88613 0.8814 0.0
C873 C 0.95132 0.89834 0.90514 0.0
C874 C 0.86511 0.89483 0.8137 0.0
C875 C 0.88041 0.80838 0.82799 0.0
O876 O 0.79607 0.83527 0.75558 0.0
O877 O 0.78266 0.7968 0.78084 0.0
O878 O 0.78722 0.8219 0.85194 0.0
O879 O 0.83277 0.82212 0.86467 0.0
O880 O 0.79282 0.87824 0.8274 0.0
O881 O 0.81779 0.8973 0.88446 0.0
O882 O 0.88172 0.86475 0.92829 0.0
O883 O 0.89298 0.90746 0.90976 0.0
O884 O 0.88688 0.88929 0.8357 0.0
O885 O 0.84111 0.88456 0.82286 0.0
O886 O 0.88418 0.82926 0.85776 0.0
O887 O 0.85754 0.8083 0.80243 0.0
H888 H 0.75812 0.8716 0.76092 0.0
H889 H 0.72567 0.8889 0.80303 0.0
H890 H 0.68799 0.79412 0.79944 0.0
H891 H 0.72233 0.77618 0.75922 0.0
H892 H 0.92339 0.83095 0.92855 0.0
H893 H 0.95582 0.81017 0.88766 0.0
H894 H 0.98127 0.90153 0.86691 0.0
H895 H 0.94914 0.92279 0.90787 0.0
Nd896 Nd 0.62245 0.61679 0.60182 0.0
Nd897 Nd 0.58454 0.56634 0.58355 0.0
C898 C 0.65437 0.6723 0.62446 0.0
C899 C 0.65385 0.69722 0.60227 0.0
C900 C 0.62988 0.71457 0.60042 0.0
C901 C 0.62591 0.73338 0.57462 0.0
C902 C 0.64578 0.73554 0.54995 0.0
C903 C 0.67039 0.71929 0.55249 0.0
C904 C 0.67448 0.70053 0.57846 0.0
C905 C 0.63166 0.59496 0.53007 0.0
C906 C 0.55706 0.63053 0.57227 0.0
C907 C 0.55131 0.5108 0.56593 0.0
C908 C 0.55627 0.48417 0.58457 0.0
C909 C 0.58489 0.47554 0.59123 0.0
C910 C 0.59118 0.45569 0.61537 0.0
C911 C 0.56895 0.44324 0.63313 0.0
C912 C 0.53986 0.45031 0.62481 0.0
C913 C 0.5337 0.47074 0.60118 0.0
C914 C 0.57824 0.58709 0.65568 0.0
C915 C 0.6511 0.55481 0.61327 0.0
O916 O 0.62981 0.66411 0.6363 0.0
O917 O 0.66626 0.64801 0.61261 0.0
O918 O 0.62742 0.62279 0.54345 0.0
O919 O 0.6255 0.57783 0.55309 0.0
O920 O 0.58481 0.64288 0.58322 0.0
O921 O 0.55104 0.59966 0.56472 0.0
O922 O 0.57118 0.51988 0.54703 0.0
O923 O 0.54326 0.53447 0.58542 0.0
O924 O 0.5858 0.56055 0.64271 0.0
O925 O 0.58184 0.60438 0.63219 0.0
O926 O 0.62582 0.54207 0.59325 0.0
O927 O 0.65437 0.58501 0.6265 0.0
H928 H 0.61342 0.71273 0.61805 0.0
H929 H 0.60685 0.74578 0.57338 0.0
H930 H 0.68615 0.72068 0.53393 0.0
H931 H 0.69324 0.68775 0.57906 0.0
H932 H 0.60288 0.48499 0.57883 0.0
H933 H 0.61369 0.45045 0.62067 0.0
H934 H 0.52213 0.44097 0.63776 0.0
H935 H 0.5115 0.47705 0.597 0.0
Nd936 Nd 0.11442 0.60103 0.08553 0.0
Nd937 Nd 0.05882 0.5764 0.08042 0.0
C938 C 0.1703 0.62609 0.08572 0.0
C939 C 0.19857 0.62699 0.10973 0.0
C940 C 0.22513 0.62646 0.09546 0.0
C941 C 0.25097 0.62144 0.11622 0.0
C942 C 0.25049 0.61642 0.15139 0.0
C943 C 0.22475 0.61996 0.16686 0.0
C944 C 0.19893 0.62536 0.14615 0.0
C945 C 0.11129 0.56721 0.14131 0.0
C946 C 0.09444 0.53387 0.0317 0.0
C947 C 1.0017 0.55922 0.0827 0.0
C948 C 0.97489 0.56152 0.05778 0.0
C949 C 0.95094 0.57392 0.07133 0.0
C950 C 0.9281 0.58211 0.04824 0.0
C951 C 0.92899 0.57803 0.01133 0.0
C952 C 0.95209 0.56423 0.99752 0.0
C953 C 0.97488 0.556 0.02054 0.0
C954 C 0.06232 0.60759 0.02213 0.0
C955 C 0.07912 0.63997 0.13614 0.0
O956 O 0.15831 0.59897 0.06669 0.0
O957 O 0.15061 0.64132 0.09936 0.0
O958 O 0.12537 0.59482 0.1443 0.0
O959 O 0.09798 0.55798 0.10938 0.0
O960 O 0.11216 0.56069 0.03651 0.0
O961 O 0.07259 0.53228 0.05061 0.0
O962 O 1.01659 0.58584 0.09971 0.0
O963 O 1.01917 0.5398 0.07105 0.0
O964 O 0.04949 0.57989 0.02126 0.0
O965 O 0.07495 0.61817 0.05436 0.0
O966 O 0.06503 0.61189 0.13402 0.0
O967 O 0.0968 0.644 0.11278 0.0
H968 H 0.22541 0.62795 0.0676 0.0
H969 H 0.27058 0.61847 0.10372 0.0
H970 H 0.22383 0.61584 0.19376 0.0
H971 H 0.17882 0.62624 0.15799 0.0
H972 H 0.95068 0.57871 0.09994 0.0
H973 H 0.91047 0.59292 0.0593 0.0
H974 H 0.95315 0.56108 0.96913 0.0
H975 H 0.99317 0.54667 1.00935 0.0
C976 C 0.10933 0.26517 0.95936 0.0
C977 C 0.12554 0.29551 0.96529 0.0
C978 C 0.15982 0.28312 0.01456 0.0
C979 C 0.14099 0.25451 0.01209 0.0
N980 N 0.09948 0.2165 0.98061 0.0
N981 N 0.16701 0.33343 0.99648 0.0
C982 C 0.11642 0.24484 0.98365 0.0
C983 C 0.15144 0.30418 0.99184 0.0
N984 N 0.08696 0.25618 0.93064 0.0
N985 N 0.18546 0.29033 0.03904 0.0
H986 H 0.16229 0.34864 0.97913 0.0
H987 H 0.18391 0.34317 0.01781 0.0
H988 H 0.19145 0.2764 0.0574 0.0
H989 H 0.20181 0.30912 0.04003 0.0
H990 H 0.07489 0.23396 0.92295 0.0
H991 H 0.08175 0.2708 0.91272 0.0
H992 H 0.07964 0.2088 0.96295 0.0
H993 H 0.10505 0.20052 0.99662 0.0
C994 C 0.20884 0.85511 0.32142 0.0
C995 C 0.18836 0.82697 0.30876 0.0
C996 C 0.23245 0.79848 0.31534 0.0
C997 C 0.25293 0.82647 0.33107 0.0
N998 N 0.25704 0.88129 0.35501 0.0
N999 N 0.18122 0.77154 0.30235 0.0
C1000 C 0.23993 0.85467 0.33582 0.0
C1001 C 0.20048 0.79872 0.30904 0.0
N1002 N 0.19879 0.88265 0.31879 0.0
N1003 N 0.24315 0.77178 0.30281 0.0
H1004 H 0.15815 0.77107 0.2975 0.0
H1005 H 0.18791 0.75029 0.30558 0.0
H1006 H 0.26555 0.77052 0.30206 0.0
H1007 H 0.22952 0.75177 0.28828 0.0
H1008 H 0.21284 0.90377 0.32295 0.0
H1009 H 0.17636 0.88391 0.31039 0.0
H1010 H 0.24852 0.90187 0.36252 0.0
H1011 H 0.27914 0.88198 0.36652 0.0
C1012 C 0.62986 0.96314 0.47573 0.0
C1013 C 0.60431 0.94478 0.45347 0.0
C1014 C 0.57322 0.98301 0.47733 0.0
C1015 C 0.59815 0.99939 0.5025 0.0
N1016 N 0.64967 1.00265 0.52877 0.0
N1017 N 0.55122 0.93596 0.43502 0.0
C1018 C 0.62643 0.989 0.50229 0.0
C1019 C 0.5759 0.95449 0.45479 0.0
N1020 N 0.65752 0.95591 0.47133 0.0
N1021 N 0.54715 0.99528 0.47393 0.0
H1022 H 0.55284 0.91624 0.41676 0.0
H1023 H 0.52944 0.93911 0.43804 0.0
H1024 H 0.54414 1.01593 0.48982 0.0
H1025 H 0.5293 0.98652 0.45339 0.0
H1026 H 0.67728 0.97005 0.48393 0.0
H1027 H 0.66076 0.93702 0.45253 0.0
H1028 H 0.66988 0.99413 0.53255 0.0
H1029 H 0.64797 1.02101 0.54914 0.0
C1030 C 0.48752 0.29078 0.80975 0.0
C1031 C 0.50199 0.31437 0.79385 0.0
C1032 C 0.45529 0.33958 0.79444 0.0
C1033 C 0.44058 0.31592 0.81017 0.0
N1034 N 0.44244 0.26666 0.82847 0.0
N1035 N 0.50073 0.36473 0.77821 0.0
C1036 C 0.45695 0.29116 0.81707 0.0
C1037 C 0.48586 0.33942 0.7878 0.0
N1038 N 0.50317 0.26781 0.81812 0.0
N1039 N 0.44001 0.36264 0.78549 0.0
H1040 H 0.5229 0.36623 0.77429 0.0
H1041 H 0.49242 0.38558 0.7775 0.0
H1042 H 0.41963 0.36633 0.79329 0.0
H1043 H 0.44674 0.37743 0.76873 0.0
H1044 H 0.49623 0.25163 0.83318 0.0
H1045 H 0.52428 0.2658 0.81144 0.0
H1046 H 0.45108 0.2463 0.83111 0.0
H1047 H 0.42041 0.26561 0.83297 0.0
C1048 C 1.03755 0.89548 0.65348 0.0
C1049 C 1.01745 0.86816 0.63722 0.0
C1050 C 1.02337 0.87783 0.57762 0.0
C1051 C 0.04603 0.9032 0.59332 0.0
N1052 N 0.06977 0.94109 0.64599 0.0
N1053 N 0.98025 0.8442 0.58651 0.0
C1054 C 0.05169 0.91356 0.63132 0.0
C1055 C 1.00669 0.86299 0.60008 0.0
N1056 N 1.04255 0.90427 0.68994 0.0
N1057 N 1.01887 0.86672 0.54151 0.0
H1058 H 0.9669 0.83462 0.60307 0.0
H1059 H 0.97017 0.84113 0.55989 0.0
H1060 H 1.03139 0.87616 0.52413 0.0
H1061 H 1.00464 0.84633 0.52931 0.0
H1062 H 0.05995 0.9209 0.70438 0.0
H1063 H 1.02824 0.89532 0.70589 0.0
H1064 H 0.07327 0.95124 0.67301 0.0
H1065 H 0.08021 0.95527 0.63086 0.0
C1066 C 0.5693 0.91381 0.0413 0.0
C1067 C 0.58732 0.93853 0.03154 0.0
C1068 C 0.5448 0.94635 0.98944 0.0
C1069 C 0.52825 0.91909 0.99581 0.0
N1070 N 0.52459 0.8766 0.02821 0.0
N1071 N 0.59334 0.97639 0.99372 0.0
C1072 C 0.54024 0.90311 0.02222 0.0
C1073 C 0.57518 0.95463 1.0053 0.0
N1074 N 0.57996 0.89833 0.06698 0.0
N1075 N 0.53135 0.96445 0.96841 0.0
H1076 H 0.61563 0.98325 1.00515 0.0
H1077 H 0.58704 0.98598 0.97137 0.0
H1078 H 0.509 0.9592 0.95654 0.0
H1079 H 0.54132 0.98623 0.9657 0.0
H1080 H 0.60123 0.90403 0.0822 0.0
H1081 H 0.60123 0.90403 0.0822 0.0
H1082 H 0.53295 0.86419 0.04722 0.0
H1083 H 0.50378 0.86653 0.01366 0.0
C1084 C 0.48466 0.18467 0.09443 0.0
C1085 C 0.49244 0.20099 0.1303 0.0
C1086 C 0.53607 0.17588 0.13871 0.0
C1087 C 0.53092 0.16195 0.1016 0.0
N1088 N 0.49597 0.14588 0.04665 0.0
N1089 N 0.51361 0.19739 0.18949 0.0
C1090 C 0.50348 0.16361 0.08024 0.0
C1091 C 0.51329 0.19013 0.15348 0.0
N1092 N 0.46125 0.1923 0.07345 0.0
N1093 N 0.56353 0.17871 0.15891 0.0
H1094 H 0.49719 0.20901 0.19999 0.0
H1095 H 0.5282 0.18931 0.20788 0.0
H1096 H 0.58206 0.1723 0.1481 0.0
H1097 H 0.56861 0.19106 0.1852 0.0
H1098 H 0.45574 0.18412 0.04594 0.0
H1099 H 0.44792 0.20791 0.08438 0.0
H1100 H 0.47543 0.1446 0.03064 0.0
H1101 H 0.50978 0.13083 0.03577 0.0
C1102 C 0.17579 0.39036 0.38544 0.0
C1103 C 0.18668 0.38034 0.41736 0.0
C1104 C 0.2102 0.34089 0.38261 0.0
C1105 C 0.19814 0.34981 0.3502 0.0
N1106 N 0.16399 0.37829 0.32049 0.0
N1107 N 0.2079 0.34149 0.44553 0.0
C1108 C 0.17928 0.37319 0.35159 0.0
C1109 C 0.20193 0.35419 0.41568 0.0
N1110 N 0.16293 0.4169 0.38754 0.0
N1111 N 0.23081 0.32092 0.38242 0.0
H1112 H 0.20262 0.35079 0.47038 0.0
H1113 H 0.21554 0.32013 0.44502 0.0
H1114 H 0.23831 0.31071 0.35951 0.0
H1115 H 0.24238 0.31616 0.4056 0.0
H1116 H 0.15736 0.42727 0.36562 0.0
H1117 H 0.16019 0.43019 0.41181 0.0
H1118 H 0.14776 0.39291 0.31968 0.0
H1119 H 0.1654 0.36546 0.29541 0.0
C1120 C 1.03245 0.12015 0.23105 0.0
C1121 C 1.01071 0.09431 0.23268 0.0
C1122 C 1.03215 0.06414 0.18242 0.0
C1123 C 0.05328 0.09044 0.1791 0.0
N1124 N 0.06807 0.14567 0.19887 0.0
N1125 N 0.98618 0.04409 0.20236 0.0
C1126 C 0.05139 0.11907 0.20282 0.0
C1127 C 1.00961 0.0673 0.20589 0.0
N1128 N 1.03602 0.14573 0.25769 0.0
N1129 N 1.03364 0.03513 0.1642 0.0
H1130 H 0.9697 0.04561 0.21869 0.0
H1131 H 0.98122 0.02526 0.18099 0.0
H1132 H 0.04744 0.03044 0.14547 0.0
H1133 H 1.02254 1.0149 0.16973 0.0
H1134 H 0.05355 0.16396 0.26163 0.0
H1135 H 1.02208 0.14773 0.27713 0.0
H1136 H 0.06561 0.16774 0.21188 0.0
H1137 H 0.08301 0.14589 0.18064 0.0
C1138 C 0.39085 0.80484 0.49846 0.0
C1139 C 0.40878 0.78049 0.49549 0.0
C1140 C 0.40007 0.77875 0.4302 0.0
C1141 C 0.37628 0.79708 0.4333 0.0
N1142 N 0.34495 0.82009 0.47343 0.0
N1143 N 0.43095 0.7446 0.45548 0.0
C1144 C 0.37025 0.8076 0.46833 0.0
C1145 C 0.41291 0.76697 0.46037 0.0
N1146 N 0.39519 0.82744 0.52845 0.0
N1147 N 0.41313 0.77534 0.40011 0.0
H1148 H 0.446 0.73989 0.47605 0.0
H1149 H 0.43079 0.73071 0.43053 0.0
H1150 H 0.40862 0.78758 0.37982 0.0
H1151 H 0.43199 0.7645 0.39782 0.0
H1152 H 0.38309 0.8461 0.53051 0.0
H1153 H 0.41407 0.83064 0.54789 0.0
H1154 H 0.33943 0.82646 0.49894 0.0
H1155 H 0.32796 0.82018 0.45241 0.0
C1156 C 0.60741 1.01488 0.71207 0.0
C1157 C 0.63736 1.02142 0.73053 0.0
C1158 C 0.65178 0.04101 0.67777 0.0
C1159 C 0.62149 0.04262 0.66488 0.0
N1160 N 0.56974 0.02879 0.66887 0.0
N1161 N 0.68901 0.03968 0.72856 0.0
C1162 C 0.59903 0.02823 0.6813 0.0
C1163 C 0.65995 0.03348 0.71233 0.0
N1164 N 0.58693 0.99624 0.72467 0.0
N1165 N 0.67266 0.04551 0.65624 0.0
H1166 H 0.6965 0.03299 0.75251 0.0
H1167 H 0.70552 0.05264 0.71874 0.0
H1168 H 0.66693 0.04936 0.63025 0.0
H1169 H 0.69457 0.04145 0.66238 0.0
H1170 H 0.56526 0.98847 0.71132 0.0
H1171 H 0.59288 0.98607 0.74677 0.0
H1172 H 0.5524 1.02198 0.68217 0.0
H1173 H 0.56289 0.03774 0.64615 0.0
C1174 C 0.34652 0.48478 0.06164 0.0
C1175 C 0.37414 0.50426 0.07568 0.0
C1176 C 0.38848 0.49806 0.01628 0.0
C1177 C 0.36295 0.47556 1.00424 0.0
N1178 N 0.31173 0.4601 1.0082 0.0
N1179 N 0.41751 0.53653 0.06538 0.0
C1180 C 0.33965 0.47394 0.02442 0.0
C1181 C 0.39364 0.51383 0.05248 0.0
N1182 N 0.3278 0.4749 0.08366 0.0
N1183 N 0.40858 0.50193 0.99362 0.0
H1184 H 0.42228 0.54754 0.09216 0.0
H1185 H 0.43156 0.54569 0.04938 0.0
H1186 H 0.40383 0.49082 0.96676 0.0
H1187 H 0.42947 0.51544 1.00115 0.0
H1188 H 0.3092 0.4579 0.07458 0.0
H1189 H 0.3317 0.48191 0.11137 0.0
H1190 H 0.2932 0.46004 0.02129 0.0
H1191 H 0.30677 0.45185 0.98062 0.0
C1192 C 1.01727 0.12536 0.4399 0.0
C1193 C 0.99757 0.09865 0.42009 0.0
C1194 C 1.01761 0.06823 0.4647 0.0
C1195 C 1.03896 0.09437 0.48298 0.0
N1196 N 0.06042 0.14743 0.48579 0.0
N1197 N 0.9786 0.04467 0.41417 0.0
C1198 C 1.03886 0.1229 0.47012 0.0
C1199 C 0.99766 0.07016 0.43287 0.0
N1200 N 1.01485 0.15348 0.43022 0.0
N1201 N 1.01561 0.04167 0.47863 0.0
H1202 H 0.96179 0.0463 0.39376 0.0
H1203 H 0.97961 1.02204 0.41806 0.0
H1204 H 1.02995 0.03903 0.501 0.0
H1205 H 0.99881 1.02279 0.46961 0.0
H1206 H 1.02592 0.17461 0.44522 0.0
H1207 H 0.99973 0.156 0.40835 0.0
H1208 H 0.06426 0.16768 0.47561 0.0
H1209 H 0.07606 0.14682 0.50796 0.0
C1210 C 0.39149 0.77278 0.70205 0.0
C1211 C 0.41139 0.79339 0.68864 0.0
C1212 C 0.40578 0.83579 0.73826 0.0
C1213 C 0.38177 0.81664 0.74731 0.0
N1214 N 0.35266 0.76581 0.73848 0.0
N1215 N 0.43996 0.84399 0.69596 0.0
C1216 C 0.37525 0.78469 0.72969 0.0
C1217 C 0.41959 0.82463 0.70791 0.0
N1218 N 0.38804 0.74168 0.6882 0.0
N1219 N 0.41555 0.86459 0.75895 0.0
H1220 H 0.45175 0.8358 0.67567 0.0
H1221 H 0.44463 0.8679 0.7052 0.0
H1222 H 0.40564 0.87342 0.78075 0.0
H1223 H 0.43459 0.87889 0.75628 0.0
H1224 H 0.37611 0.72468 0.69859 0.0
H1225 H 0.39978 0.73249 0.66843 0.0
H1226 H 0.34389 0.74369 0.724 0.0
H1227 H 0.34143 0.77298 0.75943 0.0
C1228 C 0.65942 0.09318 0.94729 0.0
C1229 C 0.64417 0.06531 0.92381 0.0
C1230 C 0.59894 0.07343 0.95138 0.0
C1231 C 0.61561 0.09757 0.97853 0.0
N1232 N 0.65616 0.13964 0.99035 0.0
N1233 N 0.60008 0.02633 0.90927 0.0
C1234 C 0.64441 0.11007 0.97316 0.0
C1235 C 0.6139 0.05512 0.92692 0.0
N1236 N 0.68856 0.10335 0.94595 0.0
N1237 N 0.56857 0.06882 0.94777 0.0
H1238 H 0.61065 1.01056 0.89384 0.0
H1239 H 0.57938 1.01646 0.91371 0.0
H1240 H 0.55694 0.08403 0.96246 0.0
H1241 H 0.55502 0.05313 0.92673 0.0
H1242 H 0.70214 0.11998 0.96599 0.0
H1243 H 0.69993 0.09454 0.92573 0.0
H1244 H 0.67585 0.15166 0.98578 0.0
H1245 H 0.64398 0.1539 1.00546 0.0
C1246 C 0.39682 0.45794 0.27222 0.0
C1247 C 0.38242 0.4509 0.23619 0.0
C1248 C 0.36018 0.3998 0.24484 0.0
C1249 C 0.37343 0.40738 0.28131 0.0
N1250 N 0.39521 0.44814 0.33192 0.0
N1251 N 0.34346 0.41931 0.19146 0.0
C1252 C 0.38912 0.43778 0.29575 0.0
C1253 C 0.36182 0.42312 0.22357 0.0
N1254 N 0.41859 0.48306 0.2838 0.0
N1255 N 0.34711 0.37006 0.23009 0.0
H1256 H 0.34342 0.43644 0.17576 0.0
H1257 H 0.32621 0.40079 0.18237 0.0
H1258 H 0.34631 0.35221 0.24473 0.0
H1259 H 0.33965 0.36252 0.20273 0.0
H1260 H 0.43205 0.48706 0.3088 0.0
H1261 H 0.42482 0.4985 0.26746 0.0
H1262 H 0.40447 0.47094 0.3437 0.0
H1263 H 0.3873 0.43522 0.34981 0.0
C1264 C 0.2138 1.01433 0.07691 0.0
C1265 C 0.21403 0.99026 0.09749 0.0
C1266 C 0.17656 1.01412 0.13061 0.0
C1267 C 0.17594 0.03761 0.10941 0.0
N1268 N 0.19825 0.06371 0.06758 0.0
N1269 N 0.19459 0.96644 0.14313 0.0
C1270 C 0.19592 0.03869 0.08415 0.0
C1271 C 0.19515 0.99006 0.12425 0.0
N1272 N 0.22935 1.01281 0.04874 0.0
N1273 N 0.16017 1.01578 0.15793 0.0
H1274 H 0.20853 0.94944 0.14014 0.0
H1275 H 0.17959 0.96262 0.16055 0.0
H1276 H 0.14707 0.03333 0.16325 0.0
H1277 H 0.16104 1.00155 0.17691 0.0
H1278 H 0.22785 0.0273 0.03006 0.0
H1279 H 0.24201 0.99517 0.04198 0.0
H1280 H 0.21407 0.06812 0.05129 0.0
H1281 H 0.18594 0.08186 0.07304 0.0
C1282 C 0.72122 0.65146 0.04801 0.0
C1283 C 0.7199 0.6554 0.01199 0.0
C1284 C 0.66859 0.62776 0.99809 0.0
C1285 C 0.66859 0.62791 0.03519 0.0
N1286 N 0.69369 0.646 0.09644 0.0
N1287 N 0.69238 0.64881 0.95254 0.0
C1288 C 0.69466 0.64104 0.06046 0.0
C1289 C 0.69366 0.64368 0.9868 0.0
N1290 N 0.748 0.65764 0.07043 0.0
N1291 N 0.64464 0.61222 0.97372 0.0
H1292 H 0.71063 0.65964 0.94339 0.0
H1293 H 0.67292 0.64404 0.93382 0.0
H1294 H 0.62598 0.60051 0.9812 0.0
H1295 H 0.64418 0.60877 0.94611 0.0
H1296 H 0.75084 0.65205 0.09587 0.0
H1297 H 0.76799 0.66543 0.0623 0.0
H1298 H 0.71112 0.65879 0.11556 0.0
H1299 H 0.67459 0.64045 0.10734 0.0
C1300 C 0.76774 0.46539 0.32313 0.0
C1301 C 0.78032 0.49302 0.34921 0.0
C1302 C 0.82276 0.46246 0.3658 0.0
C1303 C 0.80995 0.43423 0.34007 0.0
N1304 N 0.77306 0.41534 0.28718 0.0
N1305 N 0.81772 0.51317 0.40073 0.0
C1306 C 0.78295 0.43759 0.31731 0.0
C1307 C 0.80743 0.49012 0.37146 0.0
N1308 N 0.74055 0.46533 0.30344 0.0
N1309 N 0.85066 0.46413 0.38455 0.0
H1310 H 0.80763 0.53302 0.40639 0.0
H1311 H 0.83412 0.51124 0.42154 0.0
H1312 H 0.86255 0.4456 0.38446 0.0
H1313 H 0.86334 0.48491 0.39847 0.0
H1314 H 0.72738 0.44532 0.28826 0.0
H1315 H 0.73009 0.48509 0.30421 0.0
H1316 H 0.75577 0.41695 0.26731 0.0
H1317 H 0.78458 0.39706 0.27925 0.0
C1318 C 0.88862 0.43767 0.56656 0.0
C1319 C 0.86035 0.44437 0.55235 0.0
C1320 C 0.88439 0.49041 0.5339 0.0
C1321 C 0.91256 0.48221 0.5455 0.0
N1322 N 0.94179 0.44461 0.56553 0.0
N1323 N 0.83158 0.47323 0.51571 0.0
C1324 C 0.91479 0.45474 0.55958 0.0
C1325 C 0.85828 0.46967 0.53408 0.0
N1326 N 0.89059 0.41622 0.58829 0.0
N1327 N 0.88253 0.51843 0.5237 0.0
H1328 H 0.81193 0.45846 0.51497 0.0
H1329 H 0.8294 0.48897 0.49847 0.0
H1330 H 0.90122 0.53421 0.52294 0.0
H1331 H 0.8625 0.52715 0.51883 0.0
H1332 H 0.91069 0.41282 0.60233 0.0
H1333 H 0.87199 0.40393 0.59519 0.0
H1334 H 0.94419 0.423 0.57213 0.0
H1335 H 0.96149 0.45649 0.56061 0.0
C1336 C 0.43782 0.24599 0.30055 0.0
C1337 C 0.44864 0.23836 0.33422 0.0
C1338 C 0.41273 0.2693 0.36106 0.0
C1339 C 0.40469 0.28047 0.32867 0.0
N1340 N 0.41466 0.28268 0.26901 0.0
N1341 N 0.44904 0.24766 0.39802 0.0
C1342 C 0.41857 0.26957 0.29872 0.0
C1343 C 0.43706 0.25177 0.36486 0.0
N1344 N 0.44575 0.23059 0.27005 0.0
N1345 N 0.39589 0.27365 0.38785 0.0
H1346 H 0.46594 0.23419 0.40213 0.0
H1347 H 0.44403 0.25992 0.42168 0.0
H1348 H 0.37688 0.28442 0.38584 0.0
H1349 H 0.39854 0.2632 0.41024 0.0
H1350 H 0.43625 0.23256 0.24443 0.0
H1351 H 0.4606 0.21441 0.27042 0.0
H1352 H 0.42675 0.27834 0.24799 0.0
H1353 H 0.40134 0.30007 0.26686 0.0
C1354 C 0.35846 0.08165 0.45355 0.0
C1355 C 0.3648 0.11347 0.45165 0.0
C1356 C 0.41615 0.11538 0.48038 0.0
C1357 C 0.40849 0.08524 0.48776 0.0
N1358 N 0.37299 0.03879 0.4808 0.0
N1359 N 0.40291 0.15347 0.44471 0.0
C1360 C 0.37995 0.06781 0.47355 0.0
C1361 C 0.39479 0.12811 0.45912 0.0
N1362 N 0.33258 0.06458 0.43467 0.0
N1363 N 0.44309 0.13267 0.49556 0.0
H1364 H 0.38803 0.16113 0.42619 0.0
H1365 H 0.4249 0.164 0.44708 0.0
H1366 H 0.45967 0.12413 0.51091 0.0
H1367 H 0.44834 0.15614 0.49468 0.0
H1368 H 0.32728 0.04066 0.43255 0.0
H1369 H 0.31813 0.074 0.41741 0.0
H1370 H 0.35163 0.02617 0.47467 0.0
H1371 H 0.38852 0.02776 0.49455 0.0
C1372 C 0.78715 0.68583 0.33103 0.0
C1373 C 0.77999 0.68145 0.36537 0.0
C1374 C 0.80291 0.7382 0.38812 0.0
C1375 C 0.80869 0.7429 0.35342 0.0
N1376 N 0.81126 0.71791 0.2935 0.0
N1377 N 0.78042 0.70564 0.42642 0.0
C1378 C 0.80204 0.71565 0.32549 0.0
C1379 C 0.78807 0.70836 0.39377 0.0
N1380 N 0.77815 0.66161 0.30275 0.0
N1381 N 0.81218 0.7625 0.41621 0.0
H1382 H 0.7715 0.68441 0.43197 0.0
H1383 H 0.78181 0.72419 0.44761 0.0
H1384 H 0.82245 0.78395 0.41278 0.0
H1385 H 0.81165 0.76116 0.44291 0.0
H1386 H 0.77835 0.66342 0.27611 0.0
H1387 H 0.76892 0.63964 0.30588 0.0
H1388 H 0.81037 0.69911 0.27272 0.0
H1389 H 0.82244 0.73849 0.28884 0.0
C1390 C 0.93719 0.58558 0.86801 0.0
C1391 C 0.96626 0.58211 0.85951 0.0
C1392 C 0.95818 0.52723 0.8645 0.0
C1393 C 0.92911 0.53047 0.87193 0.0
N1394 N 0.88839 0.56026 0.87376 0.0
N1395 N 0.99954 0.54733 0.83789 0.0
C1396 C 0.91781 0.55891 0.87144 0.0
C1397 C 0.9753 0.5522 0.85427 0.0
N1398 N 0.92841 0.6143 0.87467 0.0
N1399 N 0.96976 0.50056 0.86807 0.0
H1400 H 1.01144 0.56462 0.82776 0.0
H1401 H 1.0056 0.5254 0.8305 0.0
H1402 H 0.9578 0.48157 0.87527 0.0
H1403 H 0.99204 0.49831 0.8669 0.0
H1404 H 0.9093 0.61841 0.88556 0.0
H1405 H 0.941 0.63478 0.87221 0.0
H1406 H 0.87776 0.57915 0.86927 0.0
H1407 H 0.87378 0.54144 0.87741 0.0
C1408 C 0.0606 0.90213 0.21923 0.0
C1409 C 0.08645 0.88689 0.2201 0.0
C1410 C 0.0975 0.90655 0.16613 0.0
C1411 C 0.07326 0.92392 0.16716 0.0
N1412 N 1.03629 0.94391 0.20038 0.0
N1413 N 0.13318 0.88127 0.19921 0.0
C1414 C 0.05618 0.92341 0.19543 0.0
C1415 C 0.10597 0.89114 0.19494 0.0
N1416 N 1.03918 0.89513 0.2394 0.0
N1417 N 0.11186 0.90379 0.13698 0.0
H1418 H 0.14055 0.87122 0.22086 0.0
H1419 H 0.14959 0.88623 0.18381 0.0
H1420 H 0.10588 0.91396 0.11494 0.0
H1421 H 0.12768 0.88893 0.13307 0.0
H1422 H 1.01849 0.90283 0.23649 0.0
H1423 H 1.04066 0.87941 0.25665 0.0
H1424 H 1.02566 0.94695 0.22285 0.0
H1425 H 1.03257 0.96002 0.18391 0.0
C1426 C 0.98869 0.32544 0.85407 0.0
C1427 C 1.00828 0.35428 0.86595 0.0
C1428 C 0.96286 0.38077 0.85965 0.0
C1429 C 0.94317 0.35205 0.84479 0.0
N1430 N 0.94075 0.2973 0.8217 0.0
N1431 N 1.01331 0.40961 0.87147 0.0
C1432 C 0.95722 0.32453 0.84021 0.0
C1433 C 0.99499 0.38181 0.86541 0.0
N1434 N 0.99996 0.29858 0.85704 0.0
N1435 N 0.95132 0.40701 0.87188 0.0
H1436 H 1.03651 0.41116 0.87622 0.0
H1437 H 1.00567 0.43037 0.86792 0.0
H1438 H 0.92883 0.40755 0.87274 0.0
H1439 H 0.96446 0.42742 0.88615 0.0
H1440 H 0.98669 0.27703 0.8534 0.0
H1441 H 1.02264 0.29835 0.86517 0.0
H1442 H 0.94995 0.27713 0.81433 0.0
H1443 H 0.91834 0.29564 0.81083 0.0
C1444 C 0.55634 0.21185 0.66976 0.0
C1445 C 0.57765 0.22202 0.70135 0.0
C1446 C 0.59596 0.17141 0.6914 0.0
C1447 C 0.57854 0.16381 0.65664 0.0
N1448 N 0.54093 0.17574 0.61287 0.0
N1449 N 0.61725 0.21161 0.74344 0.0
C1450 C 0.55803 0.18356 0.64608 0.0
C1451 C 0.59691 0.20151 0.71289 0.0
N1452 N 0.53466 0.22967 0.66255 0.0
N1453 N 0.61159 0.14985 0.70375 0.0
H1454 H 0.61725 0.23278 0.76043 0.0
H1455 H 0.6346 0.19975 0.75129 0.0
H1456 H 0.6112 0.12774 0.68867 0.0
H1457 H 0.62282 0.15276 0.72983 0.0
H1458 H 0.51688 0.22295 0.64154 0.0
H1459 H 0.53313 0.25024 0.67988 0.0
H1460 H 0.52794 0.19053 0.6017 0.0
H1461 H 0.54074 0.15469 0.59556 0.0
C1462 C 0.71105 0.83391 0.3919 0.0
C1463 C 0.6937 0.85502 0.37729 0.0
C1464 C 0.73873 0.87345 0.35108 0.0
C1465 C 0.7554 0.8507 0.36344 0.0
N1466 N 0.75278 0.8045 0.38936 0.0
N1467 N 0.69075 0.89196 0.33816 0.0
C1468 C 0.74024 0.82983 0.38236 0.0
C1469 C 0.70752 0.8737 0.35529 0.0
N1470 N 0.69961 0.81736 0.41521 0.0
N1471 N 0.75319 0.89632 0.33709 0.0
H1472 H 0.66871 0.89361 0.34153 0.0
H1473 H 0.6978 0.90345 0.31854 0.0
H1474 H 0.77572 0.89784 0.33478 0.0
H1475 H 0.74378 0.91552 0.3311 0.0
H1476 H 0.71221 0.80495 0.43082 0.0
H1477 H 0.67791 0.81761 0.42064 0.0
H1478 H 0.74184 0.78654 0.39929 0.0
H1479 H 0.77286 0.79955 0.38159 0.0
C1480 C 0.14247 0.3189 0.54176 0.0
C1481 C 0.16866 0.33917 0.56009 0.0
C1482 C 0.17863 0.30273 0.60012 0.0
C1483 C 0.15249 0.28278 0.58194 0.0
N1484 N 0.11474 0.26689 0.52953 0.0
N1485 N 0.21595 0.34627 0.59883 0.0
C1486 C 0.13621 0.2892 0.55067 0.0
C1487 C 0.18817 0.32968 0.58678 0.0
N1488 N 0.12233 0.32856 0.51785 0.0
N1489 N 0.19368 0.29652 0.63077 0.0
H1490 H 0.22374 0.36564 0.58863 0.0
H1491 H 0.23221 0.33909 0.61602 0.0
H1492 H 0.18761 0.27662 0.64093 0.0
H1493 H 0.21093 0.31205 0.6474 0.0
H1494 H 0.10132 0.316 0.50734 0.0
H1495 H 0.12499 0.35024 0.51059 0.0
H1496 H 0.10449 0.26897 0.50429 0.0
H1497 H 0.10917 0.24499 0.53566 0.0
C1498 C 0.61001 0.34094 0.24406 0.0
C1499 C 0.60586 0.34329 0.20747 0.0
C1500 C 0.65976 0.34747 0.20827 0.0
C1501 C 0.66236 0.33626 0.24092 0.0
N1502 N 0.64034 0.32343 0.2913 0.0
N1503 N 0.62653 0.35479 0.15625 0.0
C1504 C 0.63777 0.33402 0.25974 0.0
C1505 C 0.63089 0.34918 0.19035 0.0
N1506 N 0.58739 0.34491 0.26343 0.0
N1507 N 0.68485 0.35603 0.19451 0.0
H1508 H 0.60558 0.35777 0.14382 0.0
H1509 H 0.64312 0.3558 0.14024 0.0
H1510 H 0.70622 0.35515 0.2075 0.0
H1511 H 0.68476 0.36635 0.17206 0.0
H1512 H 0.5896 0.34527 0.29088 0.0
H1513 H 0.56767 0.35184 0.25279 0.0
H1514 H 0.62223 0.3179 0.304 0.0
H1515 H 0.66035 0.31825 0.30371 0.0
C1516 C 0.69272 1.01258 0.08237 0.0
C1517 C 0.68986 1.00563 0.04428 0.0
C1518 C 0.65394 0.04063 0.03904 0.0
C1519 C 0.65507 0.04775 0.07671 0.0
N1520 N 0.68001 0.04488 0.13518 0.0
N1521 N 0.68252 0.02796 0.99168 0.0
C1522 C 0.67613 0.03524 0.09889 0.0
C1523 C 0.67618 0.02553 0.02481 0.0
N1524 N 0.71139 0.99792 0.1023 0.0
N1525 N 0.62919 0.04303 0.01639 0.0
H1526 H 0.69963 1.01751 0.98126 0.0
H1527 H 0.67311 0.0432 0.97719 0.0
H1528 H 0.60913 0.04635 0.02539 0.0
H1529 H 0.6271 0.0349 0.98892 0.0
H1530 H 0.71246 0.99917 0.12978 0.0
H1531 H 0.72632 0.98471 0.09082 0.0
H1532 H 0.69605 0.03815 0.15301 0.0
H1533 H 0.66798 0.06123 0.14734 0.0
C1534 C 1.00588 0.80347 0.80236 0.0
C1535 C 0.99552 0.81437 0.77068 0.0
C1536 C 0.96532 0.84671 0.80502 0.0
C1537 C 0.9789 0.83966 0.83765 0.0
N1538 N 1.0157 0.814 0.86751 0.0
N1539 N 0.9715 0.85365 0.74551 0.0
C1540 C 1.00021 0.8187 0.83638 0.0
C1541 C 0.97705 0.8381 0.77304 0.0
N1542 N 1.02009 0.77785 0.79989 0.0
N1543 N 0.93992 0.86007 0.8039 0.0
H1544 H 0.98082 0.84983 0.72216 0.0
H1545 H 0.96042 0.87305 0.74777 0.0
H1546 H 0.92898 0.86376 0.82592 0.0
H1547 H 0.92767 0.86319 0.78015 0.0
H1548 H 1.02558 0.76706 0.82151 0.0
H1549 H 1.02354 0.7654 0.77549 0.0
H1550 H 1.03346 0.80127 0.86829 0.0
H1551 H 1.01258 0.82525 0.89267 0.0
C1552 C 0.19672 0.10557 0.96993 0.0
C1553 C 0.19036 0.08103 0.93915 0.0
C1554 C 0.1425 0.0646 0.96288 0.0
C1555 C 0.14978 0.08812 0.99487 0.0
N1556 N 0.1892 0.12643 0.03044 0.0
N1557 N 0.15768 0.03409 0.91023 0.0
C1558 C 0.17833 0.10732 0.99843 0.0
C1559 C 0.16325 0.05986 0.93685 0.0
N1560 N 0.22002 0.12849 0.97158 0.0
N1561 N 0.11499 0.04704 0.95654 0.0
H1562 H 0.17182 0.02972 0.89136 0.0
H1563 H 0.14065 1.01577 0.90858 0.0
H1564 H 0.10007 0.04913 0.97483 0.0
H1565 H 0.10613 0.03211 0.93238 0.0
H1566 H 0.22387 0.14922 0.99029 0.0
H1567 H 0.23398 0.12803 0.95218 0.0
H1568 H 0.21094 0.13812 0.03713 0.0
H1569 H 0.17756 0.12743 0.05183 0.0
C1570 C 0.82565 0.41075 0.69536 0.0
C1571 C 0.79864 0.3939 0.67459 0.0
C1572 C 0.79502 0.3606 0.71998 0.0
C1573 C 0.82389 0.37478 0.7383 0.0
N1574 N 0.86678 0.41361 0.74412 0.0
N1575 N 0.75741 0.35285 0.66677 0.0
C1576 C 0.83903 0.40027 0.72643 0.0
C1577 C 0.78316 0.36908 0.68714 0.0
N1578 N 0.83861 0.43658 0.68495 0.0
N1579 N 0.77844 0.33962 0.73461 0.0
H1580 H 0.747 0.35991 0.6442 0.0
H1581 H 0.74697 0.33189 0.67123 0.0
H1582 H 0.78643 0.3321 0.75789 0.0
H1583 H 0.756 0.33127 0.72529 0.0
H1584 H 0.85705 0.45158 0.69976 0.0
H1585 H 0.82947 0.44442 0.66233 0.0
H1586 H 0.88053 0.43042 0.73559 0.0
H1587 H 0.87698 0.40655 0.76678 0.0
C1588 C 0.50923 0.12818 0.44764 0.0
C1589 C 0.52421 0.15648 0.44191 0.0
C1590 C 0.56539 0.1513 0.4896 0.0
C1591 C 0.55187 0.12052 0.49067 0.0
N1592 N 0.51737 0.07667 0.45423 0.0
N1593 N 0.56861 0.19431 0.45699 0.0
C1594 C 0.52559 0.10803 0.46508 0.0
C1595 C 0.55294 0.16783 0.46289 0.0
N1596 N 0.4795 0.1197 0.43575 0.0
N1597 N 0.59057 0.16461 0.51309 0.0
H1598 H 0.55946 0.20793 0.43988 0.0
H1599 H 0.59093 0.20199 0.46776 0.0
H1600 H 0.60275 0.15233 0.52925 0.0
H1601 H 0.59907 0.18813 0.51705 0.0
H1602 H 0.46768 0.09938 0.44025 0.0
H1603 H 0.46619 0.13478 0.42591 0.0
H1604 H 0.49918 0.06708 0.43431 0.0
H1605 H 0.5315 0.06064 0.45951 0.0
C1606 C 0.85518 0.68979 0.10228 0.0
C1607 C 0.86164 0.70154 0.07188 0.0
C1608 C 0.89314 0.7469 0.10942 0.0
C1609 C 0.87965 0.73932 0.13843 0.0
N1610 N 0.85735 0.69884 0.16588 0.0
N1611 N 0.89685 0.73169 0.04614 0.0
C1612 C 0.86501 0.70876 0.13625 0.0
C1613 C 0.88495 0.7265 0.07568 0.0
N1614 N 0.83753 0.66194 0.09863 0.0
N1615 N 0.91107 0.7747 0.11357 0.0
H1616 H 0.88983 0.71668 0.02141 0.0
H1617 H 0.91455 0.74901 0.04663 0.0
H1618 H 0.91724 0.78941 0.13854 0.0
H1619 H 0.91959 0.78311 0.09269 0.0
H1620 H 0.8313 0.65326 0.12064 0.0
H1621 H 0.83027 0.64748 0.07366 0.0
H1622 H 0.86357 0.71224 0.19166 0.0
H1623 H 0.86357 0.71224 0.19166 0.0
C1624 C 0.20432 0.08806 0.72509 0.0
C1625 C 0.19302 0.06741 0.74646 0.0
C1626 C 0.14897 0.04897 0.69854 0.0
C1627 C 0.16019 0.06989 0.67727 0.0
N1628 N 0.20253 0.10287 0.66661 0.0
N1629 N 0.15804 1.02347 0.74993 0.0
C1630 C 0.18911 0.08746 0.68953 0.0
C1631 C 0.1665 0.04624 0.73175 0.0
N1632 N 0.22906 0.10931 0.73945 0.0
N1633 N 0.12077 0.03296 0.68811 0.0
H1634 H 0.17052 1.02113 0.77396 0.0
H1635 H 0.14059 1.00537 0.7398 0.0
H1636 H 0.10728 0.03436 0.66443 0.0
H1637 H 0.10982 1.01997 0.70397 0.0
H1638 H 0.23647 0.12772 0.72759 0.0
H1639 H 0.2414 0.10928 0.76438 0.0
H1640 H 0.22453 0.11388 0.67229 0.0
H1641 H 0.19254 0.10179 0.64028 0.0
C1642 C 0.77154 0.35216 0.47446 0.0
C1643 C 0.7715 0.38517 0.48167 0.0
C1644 C 0.80434 0.38961 0.43629 0.0
C1645 C 0.8038 0.35684 0.42778 0.0
N1646 N 0.78304 0.30636 0.43578 0.0
N1647 N 0.77596 0.4306 0.45413 0.0
C1648 C 0.78629 0.33795 0.44614 0.0
C1649 C 0.78417 0.40248 0.45793 0.0
N1650 N 0.75667 0.33415 0.49393 0.0
N1651 N 0.82547 0.40907 0.42586 0.0
H1652 H 0.75827 0.43904 0.4652 0.0
H1653 H 0.78354 0.443 0.43545 0.0
H1654 H 0.84246 0.40103 0.41299 0.0
H1655 H 0.8284 0.43312 0.4346 0.0
H1656 H 0.75933 0.31112 0.4944 0.0
H1657 H 0.74128 0.34234 0.50956 0.0
H1658 H 0.7684 0.2909 0.44514 0.0
H1659 H 0.79377 0.29553 0.4158 0.0
C1660 C 0.57217 0.15839 0.25277 0.0
C1661 C 0.54272 0.14679 0.25649 0.0
C1662 C 0.5406 0.10613 0.20281 0.0
C1663 C 0.56984 0.1185 0.19805 0.0
N1664 N 0.61696 0.14787 0.22868 0.0
N1665 N 0.49684 0.11324 0.23141 0.0
C1666 C 0.58662 0.14253 0.22569 0.0
C1667 C 0.52628 0.12194 0.23012 0.0
N1668 N 0.5863 0.18498 0.27536 0.0
N1669 N 0.52794 0.07724 0.18427 0.0
H1670 H 0.48602 0.12423 0.25118 0.0
H1671 H 0.48254 0.09755 0.21109 0.0
H1672 H 0.53983 0.06249 0.16939 0.0
H1673 H 0.50765 0.06584 0.18797 0.0
H1674 H 0.60656 0.19682 0.27213 0.0
H1675 H 0.57599 0.19692 0.29507 0.0
H1676 H 0.63066 0.1636 0.24951 0.0
H1677 H 0.62887 0.13305 0.21397 0.0
C1678 C 0.80633 0.73107 0.88733 0.0
C1679 C 0.79117 0.73122 0.91731 0.0
C1680 C 0.78888 0.78705 0.92053 0.0
C1681 C 0.80167 0.78611 0.88885 0.0
N1682 N 0.81401 0.75436 0.83631 0.0
N1683 N 0.76108 0.75751 0.95617 0.0
C1684 C 0.80751 0.7572 0.87032 0.0
C1685 C 0.78027 0.75871 0.93196 0.0
N1686 N 0.82169 0.70734 0.87644 0.0
N1687 N 0.7857 0.81497 0.94028 0.0
H1688 H 0.75315 0.73669 0.96342 0.0
H1689 H 0.7505 0.77619 0.96564 0.0
H1690 H 0.79149 0.83611 0.93241 0.0
H1691 H 0.77926 0.81722 0.96553 0.0
H1692 H 0.83594 0.7084 0.8575 0.0
H1693 H 0.82296 0.6881 0.88858 0.0
H1694 H 0.81542 0.73299 0.82057 0.0
H1695 H 0.81524 0.77271 0.82261 0.0
C1696 C 0.98946 0.16857 0.10137 0.0
C1697 C 0.98503 0.18972 0.07748 0.0
C1698 C 1.02235 0.16615 0.04357 0.0
C1699 C 1.02505 0.1436 0.06584 0.0
N1700 N 1.0069 0.1205 0.11269 0.0
N1701 N 0.99297 0.20295 0.02059 0.0
C1702 C 1.00712 0.14393 0.09358 0.0
C1703 C 1.00038 0.18694 0.04718 0.0
N1704 N 0.97818 0.17303 0.13277 0.0
N1705 N 1.04125 0.16818 0.0191 0.0
H1706 H 0.97665 0.2175 0.02131 0.0
H1707 H 1.00082 0.19945 0.99618 0.0
H1708 H 0.05631 0.15252 0.0144 0.0
H1709 H 1.04323 0.18642 1.00518 0.0
H1710 H 0.98327 0.16092 0.15329 0.0
H1711 H 0.96608 0.19108 0.13995 0.0
H1712 H 0.99253 0.11748 0.13108 0.0
H1713 H 1.01912 0.10219 0.10758 0.0
C1714 C 0.50678 0.53728 0.16941 0.0
C1715 C 0.48014 0.55008 0.16278 0.0
C1716 C 0.50542 0.58681 0.13132 0.0
C1717 C 0.52921 0.56897 0.13073 0.0
N1718 N 0.55459 0.52901 0.15171 0.0
N1719 N 0.45501 0.59063 0.14348 0.0
C1720 C 0.53083 0.54513 0.15121 0.0
C1721 C 0.47998 0.57652 0.14633 0.0
N1722 N 0.50842 0.51712 0.19271 0.0
N1723 N 0.50727 0.61335 0.11738 0.0
H1724 H 0.43695 0.58477 0.15614 0.0
H1725 H 0.45175 0.60758 0.12813 0.0
H1726 H 0.52579 0.62124 0.1065 0.0
H1727 H 0.4918 0.62879 0.11893 0.0
H1728 H 0.52775 0.50837 0.20113 0.0
H1729 H 0.49074 0.51148 0.20618 0.0
H1730 H 0.55584 0.50946 0.1633 0.0
H1731 H 0.57282 0.5344 0.13911 0.0
C1732 C 0.42487 0.70798 0.81525 0.0
C1733 C 0.41332 0.68045 0.82751 0.0
C1734 C 0.3722 0.71152 0.84681 0.0
C1735 C 0.38387 0.73904 0.83475 0.0
N1736 N 0.4239 0.76255 0.80914 0.0
N1737 N 0.37326 0.65716 0.85342 0.0
C1738 C 0.41098 0.73675 0.81961 0.0
C1739 C 0.38616 0.6828 0.84265 0.0
N1740 N 0.44834 0.706 0.79681 0.0
N1741 N 0.3485 0.71349 0.86487 0.0
H1742 H 0.38374 0.63767 0.8551 0.0
H1743 H 0.35175 0.65444 0.8595 0.0
H1744 H 0.33816 0.73335 0.86869 0.0
H1745 H 0.34024 0.69671 0.87843 0.0
H1746 H 0.45649 0.72286 0.78328 0.0
H1747 H 0.45846 0.68603 0.79245 0.0
H1748 H 0.44527 0.76521 0.80263 0.0
H1749 H 0.41362 0.78231 0.80838 0.0
C1750 C 0.30255 0.72919 0.53854 0.0
C1751 C 0.32955 0.7195 0.55184 0.0
C1752 C 0.30283 0.68241 0.58092 0.0
C1753 C 0.27706 0.69676 0.57426 0.0
N1754 N 0.25014 0.73021 0.54248 0.0
N1755 N 0.3508 0.67432 0.56401 0.0
C1756 C 0.27606 0.71872 0.55116 0.0
C1757 C 0.32836 0.692 0.56626 0.0
N1758 N 0.30227 0.74681 0.51252 0.0
N1759 N 0.3035 0.66101 0.60278 0.0
H1760 H 0.36792 0.67911 0.54943 0.0
H1761 H 0.35017 0.65284 0.57193 0.0
H1762 H 0.2851 0.65317 0.61389 0.0
H1763 H 0.32293 0.65264 0.61181 0.0
H1764 H 0.28311 0.75344 0.49994 0.0
H1765 H 0.32104 0.75172 0.50057 0.0
H1766 H 0.24867 0.74879 0.52922 0.0
H1767 H 0.22998 0.72167 0.54965 0.0
C1768 C 0.73792 0.95423 0.88402 0.0
C1769 C 0.73129 0.96562 0.85145 0.0
C1770 C 0.77141 0.93884 0.82869 0.0
C1771 C 0.77547 0.92381 0.85886 0.0
N1772 N 0.76018 0.91611 0.91457 0.0
N1773 N 0.73846 0.9626 0.79003 0.0
C1774 C 0.75807 0.93133 0.88643 0.0
C1775 C 0.74717 0.95613 0.82313 0.0
N1776 N 0.72582 0.96608 0.91314 0.0
N1777 N 0.79178 0.93797 0.80583 0.0
H1778 H 0.72048 0.97442 0.78441 0.0
H1779 H 0.74696 0.9533 0.76731 0.0
H1780 H 0.81078 0.92766 0.81036 0.0
H1781 H 0.79187 0.95083 0.78544 0.0
H1782 H 0.73182 0.96148 0.93865 0.0
H1783 H 0.71121 0.98245 0.91238 0.0
H1784 H 0.74703 0.91881 0.93462 0.0
H1785 H 0.77404 0.8992 0.91678 0.0
C1786 C 0.8062 1.02181 0.62647 0.0
C1787 C 0.82761 0.03728 0.65658 0.0
C1788 C 0.80065 0.08243 0.66111 0.0
C1789 C 0.77798 0.06582 0.63307 0.0
N1790 N 0.75533 1.01633 0.59642 0.0
N1791 N 0.84031 0.07895 0.70826 0.0
C1792 C 0.77955 0.03444 0.61805 0.0
C1793 C 0.82338 0.06663 0.67563 0.0
N1794 N 0.81187 0.99611 0.60445 0.0
N1795 N 0.80125 0.11355 0.67304 0.0
H1796 H 0.85615 0.0674 0.72061 0.0
H1797 H 0.83627 0.09884 0.72478 0.0
H1798 H 0.7855 0.12619 0.66254 0.0
H1799 H 0.81894 0.12736 0.69091 0.0
H1800 H 0.79826 0.98607 0.5802 0.0
H1801 H 0.83164 0.9868 0.60816 0.0
H1802 H 0.7544 0.99249 0.58762 0.0
H1803 H 0.73503 1.02436 0.59049 0.0
C1804 C 0.42116 0.48009 0.86335 0.0
C1805 C 0.4167 0.49366 0.8318 0.0
C1806 C 0.38168 0.44326 0.80355 0.0
C1807 C 0.38643 0.4298 0.8352 0.0
N1808 N 0.40778 0.44014 0.89767 0.0
N1809 N 0.38891 0.48791 0.77293 0.0
C1810 C 0.40543 0.44973 0.86552 0.0
C1811 C 0.39559 0.4751 0.80242 0.0
N1812 N 0.44132 0.49634 0.89197 0.0
N1813 N 0.36491 0.42485 0.7736 0.0
H1814 H 0.39895 0.51 0.77119 0.0
H1815 H 0.37227 0.47791 0.75141 0.0
H1816 H 0.35445 0.40254 0.77374 0.0
H1817 H 0.36246 0.43077 0.74839 0.0
H1818 H 0.45026 0.48679 0.91328 0.0
H1819 H 0.45038 0.51945 0.89377 0.0
H1820 H 0.41814 0.4539 0.92194 0.0
H1821 H 0.39715 0.41896 0.90099 0.0
C1822 C 0.21023 0.65206 0.34809 0.0
C1823 C 0.20359 0.62168 0.32691 0.0
C1824 C 0.24265 0.63395 0.29196 0.0
C1825 C 0.2476 0.66504 0.31064 0.0
N1826 N 0.23254 0.70558 0.35221 0.0
N1827 N 0.20665 0.58796 0.27126 0.0
C1828 C 0.23031 0.67475 0.33751 0.0
C1829 C 0.21775 0.61391 0.29658 0.0
N1830 N 0.19832 0.65895 0.37877 0.0
N1831 N 0.2624 0.62312 0.27089 0.0
H1832 H 0.18713 0.57374 0.2726 0.0
H1833 H 0.21461 0.58306 0.247 0.0
H1834 H 0.28209 0.63676 0.26889 0.0
H1835 H 0.26094 0.59978 0.25901 0.0
H1836 H 0.20496 0.67968 0.39727 0.0
H1837 H 0.18331 0.64301 0.38706 0.0
H1838 H 0.21831 0.71433 0.36918 0.0
H1839 H 0.24705 0.72275 0.34512 0.0
C1840 C 0.65066 0.80269 0.4979 0.0
C1841 C 0.62404 0.79394 0.47257 0.0
C1842 C 0.61633 0.74365 0.49224 0.0
C1843 C 0.64024 0.75449 0.52124 0.0
N1844 N 0.67957 0.79507 0.55285 0.0
N1845 N 0.58101 0.75646 0.44551 0.0
C1846 C 0.65758 0.78402 0.52403 0.0
C1847 C 0.60695 0.76428 0.46937 0.0
N1848 N 0.66917 0.82919 0.49709 0.0
N1849 N 0.60286 0.71346 0.48638 0.0
H1850 H 0.57442 0.77045 0.42739 0.0
H1851 H 0.56545 0.737 0.44468 0.0
H1852 H 0.60925 0.69784 0.50252 0.0
H1853 H 0.58718 0.70313 0.46396 0.0
H1854 H 0.69036 0.83554 0.51224 0.0
H1855 H 0.66434 0.84348 0.47869 0.0
H1856 H 0.69073 0.81776 0.55884 0.0
H1857 H 0.68537 0.78217 0.57242 0.0
C1858 C 0.70847 0.35365 0.8036 0.0
C1859 C 0.68671 0.32684 0.80139 0.0
C1860 C 0.72816 0.3025 0.83065 0.0
C1861 C 0.75061 0.3278 0.82884 0.0
N1862 N 0.7583 0.38235 0.82658 0.0
N1863 N 0.67771 0.27423 0.81024 0.0
C1864 C 0.73958 0.35471 0.81881 0.0
C1865 C 0.69717 0.30107 0.81461 0.0
N1866 N 0.69946 0.37823 0.78987 0.0
N1867 N 0.73572 0.28077 0.85033 0.0
H1868 H 0.65505 0.2728 0.80065 0.0
H1869 H 0.68428 0.25303 0.81388 0.0
H1870 H 0.75635 0.28291 0.86641 0.0
H1871 H 0.72039 0.26316 0.85515 0.0
H1872 H 0.71406 0.39636 0.78485 0.0
H1873 H 0.67704 0.37968 0.78172 0.0
H1874 H 0.75164 0.40352 0.82312 0.0
H1875 H 0.77965 0.3851 0.84113 0.0
C1876 C 0.11598 0.47831 0.95165 0.0
C1877 C 0.10127 0.44888 0.95563 0.0
C1878 C 0.08895 0.47519 0.01255 0.0
C1879 C 0.09869 0.50512 1.00578 0.0
N1880 N 0.11453 0.53385 0.96136 0.0
N1881 N 0.06245 0.42526 0.9833 0.0
C1882 C 0.11026 0.50643 0.97315 0.0
C1883 C 0.08453 0.44902 0.98427 0.0
N1884 N 0.13629 0.47997 0.92881 0.0
N1885 N 0.08459 0.47107 0.04603 0.0
H1886 H 0.05456 0.40944 0.95965 0.0
H1887 H 0.04881 0.4251 1.00301 0.0
H1888 H 0.09083 0.48868 0.06865 0.0
H1889 H 0.07878 0.44904 0.05174 0.0
H1890 H 0.14922 0.50082 0.92771 0.0
H1891 H 0.14278 0.46057 0.91412 0.0
H1892 H 0.12053 0.53517 0.93632 0.0
H1893 H 0.10854 0.5544 0.97421 0.0
C1894 C 0.98187 0.79168 0.29347 0.0
C1895 C 1.0049 0.81798 0.30261 0.0
C1896 C 0.96616 0.84967 0.32294 0.0
C1897 C 0.9438 0.8228 0.31749 0.0
N1898 N 0.93355 0.76684 0.30252 0.0
N1899 N 1.01878 0.87166 0.33113 0.0
C1900 C 0.9526 0.79347 0.30391 0.0
C1901 C 0.99689 0.84671 0.31909 0.0
N1902 N 0.98778 0.76471 0.27423 0.0
N1903 N 0.95775 0.87855 0.32922 0.0
H1904 H 1.04096 0.87083 0.32789 0.0
H1905 H 1.01545 0.89222 0.34699 0.0
H1906 H 0.93571 0.88211 0.32975 0.0
H1907 H 0.97194 0.89896 0.32963 0.0
H1908 H 0.97141 0.74585 0.2627 0.0
H1909 H 1.00885 0.76203 0.26764 0.0
H1910 H 0.93946 0.74468 0.29658 0.0
H1911 H 0.91276 0.76683 0.31076 0.0
C1912 C 0.5191 0.35393 0.08283 0.0
C1913 C 0.5105 0.36098 0.11745 0.0
C1914 C 0.51562 0.41619 0.11412 0.0
C1915 C 0.52448 0.40877 0.08005 0.0
N1916 N 0.52321 0.37101 0.02672 0.0
N1917 N 0.49183 0.39715 0.16058 0.0
C1918 C 0.52173 0.37764 0.06248 0.0
C1919 C 0.50574 0.39163 0.13124 0.0
N1920 N 0.52802 0.32607 0.07059 0.0
N1921 N 0.51818 0.44652 0.13087 0.0
H1922 H 0.48387 0.3794 0.1732 0.0
H1923 H 0.48559 0.4186 0.17012 0.0
H1924 H 0.52426 0.46504 0.11848 0.0
H1925 H 0.5156 0.45321 0.15753 0.0
H1926 H 0.53731 0.32176 0.0472 0.0
H1927 H 0.52978 0.3084 0.08508 0.0
H1928 H 0.51881 0.34846 0.01171 0.0
H1929 H 0.52559 0.38844 0.01157 0.0
C1930 C 0.068 0.44743 0.53625 0.0
C1931 C 0.08392 0.42347 0.54474 0.0
C1932 C 1.04124 0.38403 0.51736 0.0
C1933 C 1.02601 0.40778 0.50637 0.0
N1934 N 1.02056 0.462 0.51368 0.0
N1935 N 0.08314 0.37143 0.55542 0.0
C1936 C 1.03799 0.43957 0.51872 0.0
C1937 C 0.06953 0.3925 0.53935 0.0
N1938 N 0.08211 0.47737 0.54356 0.0
N1939 N 1.02945 0.35348 0.50521 0.0
H1940 H 0.10388 0.37757 0.57188 0.0
H1941 H 0.07283 0.34903 0.55524 0.0
H1942 H 1.00854 0.34646 0.48936 0.0
H1943 H 1.04109 0.33512 0.50902 0.0
H1944 H 0.07308 0.49553 0.53422 0.0
H1945 H 0.10349 0.48369 0.55836 0.0
H1946 H 1.02715 0.48542 0.52459 0.0
H1947 H 0.99843 0.45688 0.50097 0.0
C1948 C 1.02624 0.72174 0.63401 0.0
C1949 C 1.00446 0.72583 0.60638 0.0
C1950 C 1.01802 0.68216 0.56576 0.0
C1951 C 1.04421 0.68326 0.5906 0.0
N1952 N 0.07273 0.70276 0.64991 0.0
N1953 N 0.97035 0.70082 0.5535 0.0
C1954 C 0.04793 0.70227 0.62549 0.0
C1955 C 0.99729 0.70278 0.57462 0.0
N1956 N 1.02466 0.73463 0.66845 0.0
N1957 N 1.01372 0.66244 0.53328 0.0
H1958 H 0.95475 0.71516 0.56095 0.0
H1959 H 0.96236 0.68366 0.53091 0.0
H1960 H 1.02828 0.64673 0.52639 0.0
H1961 H 0.99656 0.6624 0.51251 0.0
H1962 H 1.0386 0.73093 0.69064 0.0
H1963 H 1.00636 0.74533 0.67453 0.0
H1964 H 0.07792 0.71831 0.67431 0.0
H1965 H 0.08953 0.68953 0.64455 0.0
C1966 C 0.7016 0.85683 0.90744 0.0
C1967 C 0.68783 0.88402 0.91042 0.0
C1968 C 0.67824 0.87741 0.84467 0.0
C1969 C 0.69624 0.85334 0.84192 0.0
N1970 N 0.72665 0.82096 0.87167 0.0
N1971 N 0.66423 0.92165 0.88221 0.0
C1972 C 0.7081 0.84303 0.87352 0.0
C1973 C 0.67623 0.89456 0.87907 0.0
N1974 N 0.70754 0.84349 0.93682 0.0
N1975 N 0.6626 0.88334 0.81422 0.0
H1976 H 0.66321 0.93547 0.90683 0.0
H1977 H 0.65751 0.93189 0.86057 0.0
H1978 H 0.66317 0.87058 0.78882 0.0
H1979 H 0.64686 0.89852 0.81422 0.0
H1980 H 0.71403 0.82156 0.93562 0.0
H1981 H 0.70328 0.85295 0.96214 0.0
H1982 H 0.73828 0.81506 0.89408 0.0
H1983 H 0.73213 0.80952 0.84803 0.0
C1984 C 0.51516 0.61067 0.71669 0.0
C1985 C 0.51333 0.58693 0.73792 0.0
C1986 C 0.55613 0.56801 0.70929 0.0
C1987 C 0.55616 0.58923 0.68487 0.0
N1988 N 0.52563 0.62393 0.65995 0.0
N1989 N 0.52554 0.53533 0.73923 0.0
C1990 C 0.5329 0.60882 0.68721 0.0
C1991 C 0.53184 0.56339 0.7294 0.0
N1992 N 0.50022 0.63525 0.72435 0.0
N1993 N 0.57984 0.55239 0.71472 0.0
H1994 H 0.50666 0.52955 0.75062 0.0
H1995 H 0.53663 0.51662 0.73142 0.0
H1996 H 0.59923 0.55668 0.70378 0.0
H1997 H 0.58175 0.53836 0.73397 0.0
H1998 H 0.50283 0.65471 0.71238 0.0
H1999 H 0.48698 0.63692 0.74451 0.0
H2000 H 0.50778 0.63654 0.65863 0.0
H2001 H 0.53464 0.62005 0.63644 0.0
C2002 C 0.91244 0.26779 0.95995 0.0
C2003 C 0.90818 0.28129 0.99511 0.0
C2004 C 0.87134 0.31029 0.96758 0.0
C2005 C 0.87713 0.29906 0.93258 0.0
N2006 N 0.91331 0.2761 0.89942 0.0
N2007 N 0.89613 0.32888 0.0281 0.0
C2008 C 0.90033 0.28002 0.92965 0.0
C2009 C 0.89121 0.30644 0.99797 0.0
N2010 N 0.92973 0.24472 0.95519 0.0
N2011 N 0.84691 0.32449 0.97242 0.0
H2012 H 0.91537 0.3316 0.04691 0.0
H2013 H 0.88477 0.34809 0.03047 0.0
H2014 H 0.83057 0.32586 0.95124 0.0
H2015 H 0.84131 0.3313 0.9978 0.0
H2016 H 0.92987 0.23113 0.93015 0.0
H2017 H 0.94365 0.23896 0.97608 0.0
H2018 H 0.93192 0.26483 0.89727 0.0
H2019 H 0.90875 0.28792 0.87858 0.0
C2020 C 0.1575 0.52951 0.21014 0.0
C2021 C 0.13535 0.52086 0.23059 0.0
C2022 C 0.09664 0.53196 0.18438 0.0
C2023 C 0.11914 0.54635 0.1679 0.0
N2024 N 0.1709 0.5541 0.16103 0.0
N2025 N 0.08401 0.50081 0.22851 0.0
C2026 C 0.14956 0.54332 0.17937 0.0
C2027 C 0.10491 0.51776 0.21454 0.0
N2028 N 0.1857 0.52314 0.21915 0.0
N2029 N 0.06741 0.53369 0.17277 0.0
H2030 H 0.09002 0.48975 0.24984 0.0
H2031 H 0.06163 0.49519 0.21713 0.0
H2032 H 0.06058 0.54313 0.15042 0.0
H2033 H 0.05002 0.52714 0.18607 0.0
H2034 H 0.20288 0.52682 0.20449 0.0
H2035 H 0.19117 0.51117 0.23971 0.0
H2036 H 0.19368 0.55653 0.17004 0.0
H2037 H 0.16563 0.56109 0.13659 0.0
C2038 C 0.87236 0.92497 0.5854 0.0
C2039 C 0.89718 0.93089 0.61353 0.0
C2040 C 0.89747 0.87437 0.60732 0.0
C2041 C 0.87468 0.86976 0.57763 0.0
N2042 N 0.82931 0.88779 0.55649 0.0
N2043 N 0.9362 0.91085 0.64787 0.0
C2044 C 0.85822 0.89412 0.57305 0.0
C2045 C 0.91017 0.90532 0.62425 0.0
N2046 N 0.86323 0.94785 0.56852 0.0
N2047 N 0.90805 0.84887 0.61687 0.0
H2048 H 0.94804 0.93309 0.65667 0.0
H2049 H 0.94767 0.89358 0.65585 0.0
H2050 H 0.89888 0.82652 0.60295 0.0
H2051 H 0.92385 0.84953 0.6393 0.0
H2052 H 0.84602 0.94336 0.5467 0.0
H2053 H 0.87549 0.9698 0.57174 0.0
H2054 H 0.81586 0.90509 0.55435 0.0
H2055 H 0.8179 0.86519 0.54983 0.0
C2056 C 0.52496 0.62145 0.93268 0.0
C2057 C 0.4961 0.60293 0.92399 0.0
C2058 C 0.50742 0.58303 0.98073 0.0
C2059 C 0.53617 0.60158 0.98939 0.0
N2060 N 0.56949 0.64308 0.97644 0.0
N2061 N 0.45788 0.57125 0.94463 0.0
C2062 C 0.54406 0.62202 0.96604 0.0
C2063 C 0.48675 0.5854 0.9496 0.0
N2064 N 0.53417 0.63912 0.9091 0.0
N2065 N 0.50002 0.56227 1.00184 0.0
H2066 H 0.44248 0.57137 0.92208 0.0
H2067 H 0.44844 0.56124 0.96395 0.0
H2068 H 0.51363 0.56091 0.02536 0.0
H2069 H 0.48143 0.5451 0.99503 0.0
H2070 H 0.5562 0.64896 0.91023 0.0
H2071 H 0.51984 0.64349 0.8876 0.0
H2072 H 0.57539 0.66106 0.96324 0.0
H2073 H 0.58369 0.6443 1.00034 0.0
C2074 C 0.90229 0.27616 0.20812 0.0
C2075 C 0.9205 0.29666 0.19253 0.0
C2076 C 0.91523 0.33963 0.24184 0.0
C2077 C 0.89167 0.32054 0.25181 0.0
N2078 N 0.86203 0.26988 0.2427 0.0
N2079 N 0.9484 0.3474 0.19831 0.0
C2080 C 0.88536 0.28845 0.23484 0.0
C2081 C 0.92854 0.32818 0.21112 0.0
N2082 N 0.9015 0.2449 0.19779 0.0
N2083 N 0.9249 0.36872 0.26184 0.0
H2084 H 0.95999 0.33894 0.17792 0.0
H2085 H 0.95291 0.37139 0.20702 0.0
H2086 H 0.91538 0.37764 0.28394 0.0
H2087 H 0.94355 0.38315 0.25834 0.0
H2088 H 0.89086 0.22859 0.21036 0.0
H2089 H 0.91435 0.23562 0.1793 0.0
H2090 H 0.8545 0.24723 0.22891 0.0
H2091 H 0.84846 0.27799 0.26087 0.0
C2092 C 0.16713 0.59197 0.44631 0.0
C2093 C 0.15034 0.56417 0.4245 0.0
C2094 C 0.10666 0.57738 0.45256 0.0
C2095 C 0.12494 0.6 0.48029 0.0
N2096 N 0.1722 0.63368 0.49814 0.0
N2097 N 0.10406 0.52849 0.412 0.0
C2098 C 0.15516 0.6086 0.47564 0.0
C2099 C 0.12 0.55658 0.4288 0.0
N2100 N 0.19356 0.6039 0.43759 0.0
N2101 N 0.07646 0.57652 0.44744 0.0
H2102 H 0.11319 0.51136 0.39655 0.0
H2103 H 0.08289 0.5208 0.41713 0.0
H2104 H 0.06617 0.59398 0.46058 0.0
H2105 H 0.06236 0.56165 0.42615 0.0
H2106 H 0.20562 0.62542 0.45006 0.0
H2107 H 0.20211 0.59408 0.41521 0.0
H2108 H 0.19535 0.63791 0.50088 0.0
H2109 H 0.16295 0.6508 0.51344 0.0
C2110 C 0.89099 0.97908 0.80891 0.0
C2111 C 0.87886 0.97966 0.77339 0.0
C2112 C 0.85301 0.92682 0.76618 0.0
C2113 C 0.86754 0.92486 0.80057 0.0
N2114 N 0.885 0.95529 0.86001 0.0
N2115 N 0.83591 0.96212 0.72839 0.0
C2116 C 0.88203 0.9529 0.82386 0.0
C2117 C 0.85523 0.95625 0.75572 0.0
N2118 N 0.91214 1.00281 0.82744 0.0
N2119 N 0.83778 0.9009 0.74345 0.0
H2120 H 0.83685 0.98455 0.72292 0.0
H2121 H 0.81733 0.94634 0.71511 0.0
H2122 H 0.83642 0.87897 0.75028 0.0
H2123 H 0.82863 0.90102 0.71708 0.0
H2124 H 0.9242 1.00215 0.85231 0.0
H2125 H 0.91807 1.02242 0.8166 0.0
H2126 H 0.89427 0.97571 0.87805 0.0
H2127 H 0.87336 0.93861 0.87107 0.0
C2128 C 0.69559 0.48678 0.62663 0.0
C2129 C 0.7148 0.48822 0.60036 0.0
C2130 C 0.69783 0.53818 0.59097 0.0
C2131 C 0.6764 0.53515 0.61431 0.0
N2132 N 0.65432 0.50597 0.65394 0.0
N2133 N 0.73001 0.51315 0.55315 0.0
C2134 C 0.67519 0.50919 0.63199 0.0
C2135 C 0.71495 0.51355 0.58166 0.0
N2136 N 0.69749 0.46449 0.64722 0.0
N2137 N 0.70192 0.56481 0.57749 0.0
H2138 H 0.7419 0.49531 0.54451 0.0
H2139 H 0.72832 0.52874 0.53569 0.0
H2140 H 0.6898 0.58301 0.58342 0.0
H2141 H 0.71916 0.57021 0.56343 0.0
H2142 H 0.68641 0.46342 0.66903 0.0
H2143 H 0.71191 0.44798 0.64394 0.0
H2144 H 0.65006 0.48664 0.66564 0.0
H2145 H 0.64036 0.5226 0.65969 0.0
C2146 C 0.22205 0.14842 0.54532 0.0
C2147 C 0.22163 0.15246 0.50937 0.0
C2148 C 0.17092 0.12336 0.49343 0.0
C2149 C 0.17008 0.12305 0.53029 0.0
N2150 N 0.19324 0.14135 0.59219 0.0
N2151 N 0.1955 0.1456 0.44917 0.0
C2152 C 0.19528 0.13693 0.55649 0.0
C2153 C 0.19609 0.14016 0.48324 0.0
N2154 N 0.24824 0.15522 0.56886 0.0
N2155 N 0.14774 0.10737 0.46824 0.0
H2156 H 0.21374 0.15737 0.44094 0.0
H2157 H 0.17651 0.14026 0.42972 0.0
H2158 H 0.12901 0.0951 0.47493 0.0
H2159 H 0.148 0.10418 0.44077 0.0
H2160 H 0.25052 0.14942 0.59421 0.0
H2161 H 0.26843 0.16386 0.56189 0.0
H2162 H 0.20986 0.15468 0.612 0.0
H2163 H 0.17388 0.13475 0.6021 0.0
C2164 C 0.2655 0.96018 0.81719 0.0
C2165 C 0.2769 0.98677 0.84528 0.0
C2166 C 0.31664 0.95417 0.8651 0.0
C2167 C 0.30567 0.92762 0.83635 0.0
N2168 N 0.27192 0.9107 0.78065 0.0
N2169 N 0.31174 1.00544 0.89939 0.0
C2170 C 0.28045 0.93221 0.81165 0.0
C2171 C 0.30237 0.98268 0.86961 0.0
N2172 N 0.23966 0.96134 0.79535 0.0
N2173 N 0.34126 0.95259 0.88878 0.0
H2174 H 0.30221 0.02578 0.90397 0.0
H2175 H 0.32712 1.00352 0.92116 0.0
H2176 H 0.34991 0.93216 0.89071 0.0
H2177 H 0.35406 0.97179 0.90596 0.0
H2178 H 0.22721 0.94208 0.77784 0.0
H2179 H 0.22943 0.98128 0.79652 0.0
H2180 H 0.25636 0.91338 0.7594 0.0
H2181 H 0.2828 0.89157 0.77419 0.0
C2182 C 0.37134 0.96155 0.06139 0.0
C2183 C 0.368 0.94847 0.09224 0.0
C2184 C 0.42039 0.96747 0.11698 0.0
C2185 C 0.42266 0.98259 0.08748 0.0
N2186 N 0.39867 1.00094 0.03685 0.0
N2187 N 0.38766 0.94317 0.1522 0.0
C2188 C 0.39748 0.98202 0.06153 0.0
C2189 C 0.39204 0.95269 0.12099 0.0
N2190 N 0.35064 0.95273 0.03092 0.0
N2191 N 0.44541 0.96611 0.1402 0.0
H2192 H 0.36728 0.93188 0.15585 0.0
H2193 H 0.40352 0.94862 0.17536 0.0
H2194 H 0.46649 0.97711 0.13839 0.0
H2195 H 0.44561 0.95237 0.15974 0.0
H2196 H 0.35374 0.95934 1.00671 0.0
H2197 H 0.33205 0.93593 0.02837 0.0
H2198 H 0.37997 1.00347 0.0194 0.0
H2199 H 0.41763 1.01648 0.03638 0.0
C2200 C 0.92881 0.7503 0.86329 0.0
C2201 C 0.94491 0.74123 0.83501 0.0
C2202 C 0.91716 0.77426 0.79932 0.0
C2203 C 0.90045 0.78262 0.82749 0.0
N2204 N 0.8854 0.77055 0.88218 0.0
N2205 N 0.95111 0.74089 0.77375 0.0
C2206 C 0.90492 0.76824 0.85819 0.0
C2207 C 0.93795 0.75208 0.80226 0.0
N2208 N 0.93681 0.74245 0.89585 0.0
N2209 N 0.91383 0.78815 0.77015 0.0
H2210 H 0.967 0.72588 0.77552 0.0
H2211 H 0.94533 0.74505 0.748 0.0
H2212 H 0.89889 0.80392 0.76706 0.0
H2213 H 0.92697 0.78562 0.75001 0.0
H2214 H 0.9288 0.75169 0.91895 0.0
H2215 H 0.95354 0.72892 0.9007 0.0
H2216 H 0.88504 0.75767 0.9025 0.0
H2217 H 0.86738 0.78268 0.87956 0.0
C2218 C 0.85796 0.58771 0.9523 0.0
C2219 C 0.86381 0.62 0.95252 0.0
C2220 C 0.91465 0.62223 0.98283 0.0
C2221 C 0.90745 0.5912 0.98778 0.0
N2222 N 0.87335 0.54325 0.97576 0.0
N2223 N 0.90182 0.66141 0.94866 0.0
C2224 C 0.87959 0.57331 0.97137 0.0
C2225 C 0.89353 0.6353 0.96167 0.0
N2226 N 0.83226 0.57095 0.93255 0.0
N2227 N 0.94094 0.63981 0.99992 0.0
H2228 H 0.8875 0.6691 0.92959 0.0
H2229 H 0.92374 0.67251 0.95255 0.0
H2230 H 0.95745 0.631 0.01506 0.0
H2231 H 0.94562 0.66365 1.00073 0.0
H2232 H 0.82702 0.54691 0.92902 0.0
H2233 H 0.81759 0.58112 0.9164 0.0
H2234 H 0.85253 0.5297 0.96754 0.0
H2235 H 0.88894 0.53206 0.98914 0.0
C2236 C 0.29657 0.17769 0.83195 0.0
C2237 C 0.27808 0.17566 0.85926 0.0
C2238 C 0.28988 0.23464 0.87521 0.0
C2239 C 0.30883 0.23679 0.84852 0.0
N2240 N 0.33359 0.20797 0.80548 0.0
N2241 N 0.2644 0.20377 0.91251 0.0
C2242 C 0.31325 0.20748 0.82838 0.0
C2243 C 0.277 0.20473 0.88232 0.0
N2244 N 0.29714 0.15122 0.80791 0.0
N2245 N 0.28355 0.26162 0.89395 0.0
H2246 H 0.25594 0.1829 0.9193 0.0
H2247 H 0.26525 0.22305 0.93271 0.0
H2248 H 0.294 0.28341 0.89188 0.0
H2249 H 0.26687 0.2625 0.90991 0.0
H2250 H 0.30661 0.15085 0.78468 0.0
H2251 H 0.28652 0.12959 0.81032 0.0
H2252 H 0.34046 0.18811 0.79219 0.0
H2253 H 0.34551 0.22868 0.80219 0.0
C2254 C 0.4636 0.04726 0.347 0.0
C2255 C 0.45843 0.07864 0.35332 0.0
C2256 C 0.40751 0.06138 0.36331 0.0
C2257 C 0.41514 0.03136 0.36367 0.0
N2258 N 0.45064 0.9952 0.35753 0.0
N2259 N 0.42466 0.11598 0.36795 0.0
C2260 C 0.44318 1.02408 0.35578 0.0
C2261 C 0.42995 0.08585 0.36092 0.0
N2262 N 0.48728 0.03941 0.33095 0.0
N2263 N 0.37881 0.0664 0.36547 0.0
H2264 H 0.4399 0.13519 0.36733 0.0
H2265 H 0.40557 0.12254 0.37716 0.0
H2266 H 0.36219 0.04904 0.36833 0.0
H2267 H 0.37068 0.08677 0.36139 0.0
H2268 H 0.49064 1.01651 0.3227 0.0
H2269 H 0.50161 0.05554 0.32196 0.0
H2270 H 0.47213 0.98987 0.35655 0.0
H2271 H 0.43587 0.97701 0.36229 0.0
C2272 C 0.57372 0.41271 0.72207 0.0
C2273 C 0.5899 0.38706 0.71484 0.0
C2274 C 0.59124 0.39777 0.65397 0.0
C2275 C 0.57649 0.42411 0.66149 0.0
N2276 N 0.56367 0.46229 0.70771 0.0
N2277 N 0.62551 0.36698 0.67956 0.0
C2278 C 0.57062 0.43323 0.69701 0.0
C2279 C 0.60211 0.38317 0.68244 0.0
N2280 N 0.56059 0.41772 0.75204 0.0
N2281 N 0.5942 0.38581 0.61959 0.0
H2282 H 0.63665 0.36007 0.70173 0.0
H2283 H 0.63649 0.36505 0.65732 0.0
H2284 H 0.58518 0.39462 0.59764 0.0
H2285 H 0.60275 0.36511 0.61278 0.0
H2286 H 0.54493 0.43293 0.75505 0.0
H2287 H 0.56417 0.40644 0.77346 0.0
H2288 H 0.56247 0.47139 0.73432 0.0
H2289 H 0.56266 0.47859 0.69102 0.0
C2290 C 0.49604 0.87491 0.3583 0.0
C2291 C 0.50969 0.84887 0.36615 0.0
C2292 C 0.45888 0.81734 0.34637 0.0
C2293 C 0.4446 0.84444 0.34695 0.0
N2294 N 0.45128 0.90002 0.35254 0.0
N2295 N 0.50234 0.79428 0.36737 0.0
C2296 C 0.46381 0.87347 0.35239 0.0
C2297 C 0.49052 0.81975 0.35963 0.0
N2298 N 0.5141 0.90096 0.35542 0.0
N2299 N 0.4423 0.78911 0.33204 0.0
H2300 H 0.52518 0.79495 0.37539 0.0
H2301 H 0.48936 0.77322 0.36745 0.0
H2302 H 0.41981 0.78709 0.32111 0.0
H2303 H 0.45141 0.7685 0.32791 0.0
H2304 H 0.5062 0.92026 0.34741 0.0
H2305 H 0.53712 0.90141 0.35696 0.0
H2306 H 0.46343 0.92223 0.36064 0.0
H2307 H 0.42835 0.89962 0.34581 0.0
C2308 C 0.05585 0.71692 0.17711 0.0
C2309 C 0.07718 0.72553 0.20885 0.0
C2310 C 0.09171 0.67314 0.19835 0.0
C2311 C 0.07473 0.667 0.16338 0.0
N2312 N 1.03908 0.68187 0.11973 0.0
N2313 N 0.11442 0.71178 0.2513 0.0
C2314 C 0.05596 0.68839 0.15306 0.0
C2315 C 0.09439 0.70332 0.22032 0.0
N2316 N 1.03567 0.73642 0.17013 0.0
N2317 N 0.10527 0.65011 0.2104 0.0
H2318 H 0.11543 0.73298 0.26865 0.0
H2319 H 0.13049 0.69846 0.25925 0.0
H2320 H 0.10328 0.62785 0.19503 0.0
H2321 H 0.11615 0.65207 0.23649 0.0
H2322 H 1.01794 0.73095 0.14899 0.0
H2323 H 1.03522 0.75716 0.18775 0.0
H2324 H 1.02748 0.69778 0.10872 0.0
H2325 H 1.0376 0.66062 0.10226 0.0
C2326 C 0.21139 0.34317 0.89502 0.0
C2327 C 0.19253 0.35982 0.87499 0.0
C2328 C 0.23564 0.37143 0.84214 0.0
C2329 C 0.25474 0.35446 0.86214 0.0
N2330 N 0.26084 0.33339 0.91699 0.0
N2331 N 0.18634 0.38623 0.82543 0.0
C2332 C 0.24257 0.34292 0.89109 0.0
C2333 C 0.20465 0.37273 0.84733 0.0
N2334 N 0.19892 0.32547 0.91668 0.0
N2335 N 0.24802 0.38942 0.82072 0.0
H2336 H 0.16473 0.38927 0.82955 0.0
H2337 H 0.19155 0.39234 0.80174 0.0
H2338 H 0.27073 0.39247 0.8194 0.0
H2339 H 0.23692 0.40466 0.80785 0.0
H2340 H 0.20964 0.30925 0.92828 0.0
H2341 H 0.17651 0.32415 0.91965 0.0
H2342 H 0.25416 0.32878 0.94069 0.0
H2343 H 0.28356 0.33377 0.91802 0.0
C2344 C 0.63614 0.82918 0.04345 0.0
C2345 C 0.66529 0.84604 0.05492 0.0
C2346 C 0.6785 0.80763 0.09101 0.0
C2347 C 0.6493 0.79101 0.07952 0.0
N2348 N 0.60176 0.78291 0.0405 0.0
N2349 N 0.71626 0.84777 0.08183 0.0
C2350 C 0.62882 0.80064 0.05407 0.0
C2351 C 0.68718 0.83405 0.07624 0.0
N2352 N 0.61426 0.84014 0.02348 0.0
N2353 N 0.69729 0.79921 0.11736 0.0
H2354 H 0.72318 0.86696 0.0708 0.0
H2355 H 0.73382 0.83852 0.09433 0.0
H2356 H 0.69166 0.78004 0.12898 0.0
H2357 H 0.71758 0.81245 0.12966 0.0
H2358 H 0.61676 0.8614 0.01501 0.0
H2359 H 0.61676 0.8614 0.01501 0.0
H2360 H 0.5861 0.78955 0.02194 0.0
H2361 H 0.5955 0.76117 0.04667 0.0
C2362 C 0.12603 0.83487 0.66937 0.0
C2363 C 0.10802 0.8073 0.64969 0.0
C2364 C 0.14645 0.77633 0.66598 0.0
C2365 C 0.16463 0.80367 0.68609 0.0
N2366 N 0.17518 0.85962 0.70039 0.0
N2367 N 0.10475 0.75457 0.61899 0.0
C2368 C 0.15557 0.83328 0.68547 0.0
C2369 C 0.11961 0.77898 0.64446 0.0
N2370 N 0.11434 0.8621 0.67393 0.0
N2371 N 0.15344 0.74768 0.66964 0.0
H2372 H 0.08491 0.75615 0.60284 0.0
H2373 H 0.11371 0.73423 0.61165 0.0
H2374 H 0.17281 0.74438 0.68534 0.0
H2375 H 0.1384 0.72738 0.65991 0.0
H2376 H 0.12495 0.88232 0.69137 0.0
H2377 H 0.09323 0.864 0.66105 0.0
H2378 H 0.17081 0.88192 0.69833 0.0
H2379 H 0.19691 0.85896 0.71239 0.0
C2380 C 0.18012 0.50965 0.58565 0.0
C2381 C 0.17641 0.5006 0.54758 0.0
C2382 C 0.13955 0.53497 0.54085 0.0
C2383 C 0.1424 0.54461 0.57848 0.0
N2384 N 0.16883 0.54487 0.63714 0.0
N2385 N 0.16627 0.51934 0.49269 0.0
C2386 C 0.16388 0.53313 0.60119 0.0
C2387 C 0.16087 0.51839 0.52654 0.0
N2388 N 0.19959 0.49661 0.60659 0.0
N2389 N 0.11493 0.53868 0.51862 0.0
H2390 H 0.18377 0.50953 0.48248 0.0
H2391 H 0.15583 0.53329 0.47726 0.0
H2392 H 0.09664 0.54715 0.52813 0.0
H2393 H 0.11096 0.52864 0.49144 0.0
H2394 H 0.20088 0.49903 0.63423 0.0
H2395 H 0.21516 0.48381 0.59599 0.0
H2396 H 0.18554 0.53937 0.65519 0.0
H2397 H 0.15687 0.56156 0.64874 0.0
C2398 C 0.50825 0.35614 0.28169 0.0
C2399 C 0.50567 0.32319 0.27158 0.0
C2400 C 0.50324 0.31956 0.33467 0.0
C2401 C 0.49835 0.35114 0.34155 0.0
N2402 N 0.52486 0.39841 0.33178 0.0
N2403 N 0.50619 0.27377 0.29037 0.0
C2404 C 0.50899 0.36968 0.31808 0.0
C2405 C 0.50522 0.30494 0.29882 0.0
N2406 N 0.51088 0.37496 0.2572 0.0
N2407 N 0.51032 0.30539 0.36295 0.0
H2408 H 0.50702 0.26226 0.2645 0.0
H2409 H 0.50461 0.2589 0.30851 0.0
H2410 H 0.51393 0.31782 0.38927 0.0
H2411 H 0.51638 0.28324 0.36062 0.0
H2412 H 0.50984 0.39874 0.26339 0.0
H2413 H 0.51269 0.36689 0.23064 0.0
H2414 H 0.53581 0.41187 0.31627 0.0
H2415 H 0.53036 0.40645 0.35944 0.0
C2416 C 0.70084 0.60795 0.47711 0.0
C2417 C 0.69474 0.58358 0.44624 0.0
C2418 C 0.64724 0.5659 0.46979 0.0
C2419 C 0.65425 0.58933 0.50183 0.0
N2420 N 0.69338 0.62784 0.53785 0.0
N2421 N 0.66284 0.53624 0.41692 0.0
C2422 C 0.68257 0.609 0.50563 0.0
C2423 C 0.66802 0.56183 0.44377 0.0
N2424 N 0.72376 0.63132 0.47887 0.0
N2425 N 0.61998 0.54786 0.46339 0.0
H2426 H 0.67702 0.5324 0.398 0.0
H2427 H 0.64611 0.5176 0.4151 0.0
H2428 H 0.60506 0.54948 0.48171 0.0
H2429 H 0.61131 0.53291 0.43918 0.0
H2430 H 0.72729 0.65195 0.49771 0.0
H2431 H 0.73768 0.63131 0.45946 0.0
H2432 H 0.71489 0.64011 0.54447 0.0
H2433 H 0.6821 0.62787 0.55944 0.0
C2434 C 0.31698 0.92153 0.20858 0.0
C2435 C 0.28991 0.90463 0.1884 0.0
C2436 C 0.28813 0.87058 0.23286 0.0
C2437 C 0.31818 0.8832 0.24859 0.0
N2438 N 0.36099 0.92188 0.25221 0.0
N2439 N 0.24796 0.86512 0.18268 0.0
C2440 C 0.33231 0.90953 0.23721 0.0
C2441 C 0.27472 0.88021 0.20158 0.0
N2442 N 0.32813 0.94883 0.19982 0.0
N2443 N 0.27207 0.84985 0.24826 0.0
H2444 H 0.23697 0.8732 0.16119 0.0
H2445 H 0.23726 0.84433 0.18728 0.0
H2446 H 0.28094 0.84174 0.27065 0.0
H2447 H 0.24924 0.84254 0.24076 0.0
H2448 H 0.34651 0.96386 0.21482 0.0
H2449 H 0.31714 0.95774 0.17906 0.0
H2450 H 0.37375 0.93891 0.24276 0.0
H2451 H 0.37288 0.91363 0.27288 0.0
C2452 C 0.05343 0.67408 0.96626 0.0
C2453 C 1.02441 0.66344 0.94568 0.0
C2454 C 1.02498 0.61481 0.96863 0.0
C2455 C 0.05152 0.62667 0.99395 0.0
N2456 N 0.09105 0.66995 0.01613 0.0
N2457 N 0.97899 0.62801 0.94116 0.0
C2458 C 0.06561 0.65722 0.99282 0.0
C2459 C 1.00894 0.63553 0.9518 0.0
N2460 N 0.06956 0.70025 0.96028 0.0
N2461 N 1.01604 0.58358 0.95756 0.0
H2462 H 0.96584 0.64387 0.93287 0.0
H2463 H 0.967 0.60785 0.94577 0.0
H2464 H 1.02972 0.56707 0.96248 0.0
H2465 H 0.9976 0.57454 0.9378 0.0
H2466 H 0.09201 0.70739 0.97078 0.0
H2467 H 0.0606 0.7142 0.94344 0.0
H2468 H 0.10015 0.69329 0.01995 0.0
H2469 H 0.10277 0.65737 0.03237 0.0
C2470 C 0.33337 0.16059 0.60272 0.0
C2471 C 0.35027 0.17615 0.58127 0.0
C2472 C 0.37999 0.20923 0.63437 0.0
C2473 C 0.35641 0.20152 0.65301 0.0
N2474 N 0.31543 0.16496 0.65998 0.0
N2475 N 0.39592 0.20602 0.57583 0.0
C2476 C 0.33524 0.17466 0.63919 0.0
C2477 C 0.37647 0.19669 0.59722 0.0
N2478 N 0.31457 0.13387 0.58748 0.0
N2479 N 0.40394 0.23038 0.65171 0.0
H2480 H 0.39269 0.19639 0.54848 0.0
H2481 H 0.41488 0.22248 0.58481 0.0
H2482 H 0.40597 0.23963 0.67902 0.0
H2483 H 0.42216 0.23738 0.63993 0.0
H2484 H 0.30215 0.12064 0.60185 0.0
H2485 H 0.3135 0.12386 0.56055 0.0
H2486 H 0.29734 0.14744 0.65059 0.0
H2487 H 0.31727 0.17524 0.68697 0.0
C2488 C 0.68905 0.55718 0.22831 0.0
C2489 C 0.69459 0.58388 0.25631 0.0
C2490 C 0.6626 0.60994 0.21737 0.0
C2491 C 0.6595 0.58507 0.18735 0.0
N2492 N 0.67837 0.53778 0.16392 0.0
N2493 N 0.69586 0.63958 0.2694 0.0
C2494 C 0.67522 0.55938 0.19265 0.0
C2495 C 0.68468 0.61152 0.24781 0.0
N2496 N 0.6962 0.52957 0.2356 0.0
N2497 N 0.64288 0.63087 0.21895 0.0
H2498 H 0.7128 0.6419 0.29124 0.0
H2499 H 0.69064 0.66054 0.26294 0.0
H2500 H 0.62307 0.62791 0.20102 0.0
H2501 H 0.64371 0.6482 0.24144 0.0
H2502 H 0.68985 0.50863 0.21738 0.0
H2503 H 0.70673 0.52749 0.26076 0.0
H2504 H 0.69138 0.52016 0.16616 0.0
H2505 H 0.67131 0.53967 0.13755 0.0
C2506 C 0.26381 0.88774 0.95528 0.0
C2507 C 0.27809 0.8837 0.98924 0.0
C2508 C 0.30427 0.84424 0.95605 0.0
C2509 C 0.29567 0.85384 0.92351 0.0
N2510 N 0.26505 0.88389 0.89147 0.0
N2511 N 0.31848 0.86259 0.01903 0.0
C2512 C 0.27463 0.87526 0.92301 0.0
C2513 C 0.29938 0.86231 0.98882 0.0
N2514 N 0.23923 0.90253 0.95355 0.0
N2515 N 0.31889 0.81906 0.95612 0.0
H2516 H 0.32087 0.8814 0.0395 0.0
H2517 H 0.33571 0.84918 0.02052 0.0
H2518 H 0.32287 0.80566 0.93255 0.0
H2519 H 0.32378 0.80959 0.97896 0.0
H2520 H 0.22628 0.90394 0.92954 0.0
H2521 H 0.22988 0.91052 0.9761 0.0
H2522 H 0.25337 0.90257 0.88964 0.0
H2523 H 0.26945 0.87229 0.86718 0.0
C2524 C 0.07419 0.65729 0.75706 0.0
C2525 C 1.04326 0.65601 0.75933 0.0
C2526 C 1.03332 0.63884 0.69352 0.0
C2527 C 0.06351 0.63327 0.693 0.0
N2528 N 0.11106 0.63193 0.72854 0.0
N2529 N 0.99268 0.64077 0.72805 0.0
C2530 C 0.08353 0.64117 0.72598 0.0
C2531 C 1.02255 0.64556 0.72708 0.0
N2532 N 0.09485 0.67418 0.78471 0.0
N2533 N 1.01514 0.63969 0.66251 0.0
H2534 H 0.98363 0.64519 0.75156 0.0
H2535 H 0.9771 0.62997 0.70563 0.0
H2536 H 1.02231 0.63786 0.63773 0.0
H2537 H 0.99404 0.64641 0.6622 0.0
H2538 H 0.11757 0.67781 0.78326 0.0
H2539 H 0.0888 0.68752 0.80709 0.0
H2540 H 0.12541 0.63515 0.75284 0.0
H2541 H 0.11797 0.61761 0.7076 0.0
C2542 C 0.31614 0.23274 0.39557 0.0
C2543 C 0.30064 0.23268 0.42518 0.0
C2544 C 0.29687 0.28815 0.42697 0.0
C2545 C 0.3089 0.28683 0.3947 0.0
N2546 N 0.32184 0.25425 0.34306 0.0
N2547 N 0.27088 0.25903 0.46456 0.0
C2548 C 0.31594 0.25802 0.37734 0.0
C2549 C 0.28946 0.26008 0.43966 0.0
N2550 N 0.33286 0.20988 0.386 0.0
N2551 N 0.29319 0.31619 0.44597 0.0
H2552 H 0.26381 0.2385 0.47292 0.0
H2553 H 0.25999 0.27755 0.47377 0.0
H2554 H 0.29806 0.33705 0.43713 0.0
H2555 H 0.28731 0.3189 0.47151 0.0
H2556 H 0.347 0.21106 0.36695 0.0
H2557 H 0.33564 0.19181 0.3998 0.0
H2558 H 0.32426 0.23276 0.32837 0.0
H2559 H 0.32116 0.27162 0.32799 0.0
C2560 C 0.51634 0.70054 0.6054 0.0
C2561 C 0.48921 0.69482 0.58096 0.0
C2562 C 0.50747 0.64854 0.54795 0.0
C2563 C 0.5331 0.65229 0.57474 0.0
N2564 N 0.55748 0.67948 0.63407 0.0
N2565 N 0.45831 0.6617 0.52916 0.0
C2566 C 0.53645 0.67786 0.6046 0.0
C2567 C 0.48456 0.66816 0.55251 0.0
N2568 N 0.52301 0.72763 0.63014 0.0
N2569 N 0.50575 0.62747 0.51691 0.0
H2570 H 0.44246 0.67678 0.52869 0.0
H2571 H 0.45159 0.64069 0.51122 0.0
H2572 H 0.52224 0.61361 0.51212 0.0
H2573 H 0.48957 0.62571 0.49453 0.0
H2574 H 0.54417 0.73541 0.64502 0.0
H2575 H 0.50816 0.74359 0.63401 0.0
H2576 H 0.55875 0.6953 0.65792 0.0
H2577 H 0.57117 0.66268 0.63716 0.0
C2578 C 0.99832 1.00808 0.63072 0.0
C2579 C 0.98798 0.02818 0.65781 0.0
C2580 C 1.02007 0.07207 0.64404 0.0
C2581 C 1.03283 0.05064 0.62068 0.0
N2582 N 1.04186 0.99767 0.60552 0.0
N2583 N 0.99198 0.07953 0.69371 0.0
C2584 C 1.02428 1.0185 0.61804 0.0
C2585 C 0.99957 0.06043 0.66549 0.0
N2586 N 0.9829 0.97924 0.61597 0.0
N2587 N 1.02713 0.10322 0.64534 0.0
H2588 H 0.97742 0.07157 0.70997 0.0
H2589 H 1.00186 0.10258 0.70258 0.0
H2590 H 1.04242 0.11218 0.63049 0.0
H2591 H 1.01644 0.11987 0.65924 0.0
H2592 H 0.98908 0.96488 0.59445 0.0
H2593 H 0.96207 0.97152 0.62194 0.0
H2594 H 1.03708 0.97428 0.60679 0.0
H2595 H 0.06289 1.00433 0.59927 0.0
C2596 C 0.92864 0.2125 0.31754 0.0
C2597 C 0.91646 0.1849 0.32912 0.0
C2598 C 0.87484 0.21602 0.34628 0.0
C2599 C 0.88823 0.2444 0.33732 0.0
N2600 N 0.93053 0.26802 0.31531 0.0
N2601 N 0.87901 0.16438 0.36067 0.0
C2602 C 0.91596 0.24194 0.32349 0.0
C2603 C 0.88967 0.18792 0.34476 0.0
N2604 N 0.9517 0.21019 0.2985 0.0
N2605 N 0.84743 0.21562 0.35664 0.0
H2606 H 0.88898 0.1444 0.3612 0.0
H2607 H 0.86219 0.16581 0.37638 0.0
H2608 H 0.83707 0.23542 0.36094 0.0
H2609 H 0.83411 0.19537 0.35874 0.0
H2610 H 0.95977 0.22721 0.28508 0.0
H2611 H 0.96113 0.18984 0.29326 0.0
H2612 H 0.95242 0.27006 0.31035 0.0
H2613 H 0.92123 0.28841 0.31509 0.0
C2614 C 0.80447 0.23247 0.04583 0.0
C2615 C 0.82842 0.23514 0.07434 0.0
C2616 C 0.7948 0.2105 0.10915 0.0
C2617 C 0.77031 0.21252 0.08336 0.0
N2618 N 0.75086 0.22666 0.02773 0.0
N2619 N 0.84532 0.23173 0.13591 0.0
C2620 C 0.77483 0.22356 0.05159 0.0
C2621 C 0.82345 0.22512 0.1066 0.0
N2622 N 0.81019 0.23804 0.01326 0.0
N2623 N 0.79067 0.1946 0.13614 0.0
H2624 H 0.86636 0.24369 0.13604 0.0
H2625 H 0.8416 0.22819 0.1612 0.0
H2626 H 0.76984 0.18359 0.13889 0.0
H2627 H 0.80824 0.18971 0.15356 0.0
H2628 H 0.79404 0.2338 0.99044 0.0
H2629 H 0.83175 0.24433 1.00827 0.0
H2630 H 0.75263 0.23776 1.00608 0.0
H2631 H 0.72888 0.21983 0.03087 0.0
C2632 C 0.25041 0.45341 0.31889 0.0
C2633 C 0.23337 0.46138 0.34667 0.0
C2634 C 0.26006 0.4265 0.38077 0.0
C2635 C 0.27872 0.42078 0.35412 0.0
N2636 N 0.29585 0.4361 0.30208 0.0
N2637 N 0.22633 0.45922 0.40744 0.0
C2638 C 0.27499 0.43637 0.32445 0.0
C2639 C 0.23937 0.44884 0.37854 0.0
N2640 N 0.24242 0.46104 0.28623 0.0
N2641 N 0.26142 0.40997 0.40779 0.0
H2642 H 0.21145 0.47534 0.40707 0.0
H2643 H 0.23191 0.45376 0.4326 0.0
H2644 H 0.27588 0.3936 0.41007 0.0
H2645 H 0.247 0.41093 0.42658 0.0
H2646 H 0.25176 0.45302 0.26371 0.0
H2647 H 0.2242 0.47252 0.28058 0.0
H2648 H 0.29618 0.44945 0.28217 0.0
H2649 H 0.31487 0.42551 0.30612 0.0
C2650 C 0.31937 0.59495 0.20559 0.0
C2651 C 0.32162 0.56639 0.18293 0.0
C2652 C 0.27267 0.56806 0.14937 0.0
C2653 C 0.27316 0.59893 0.16681 0.0
N2654 N 0.29959 0.64401 0.20854 0.0
N2655 N 0.30509 0.53662 0.12238 0.0
C2656 C 0.29725 0.61316 0.19426 0.0
C2657 C 0.29936 0.55543 0.152 0.0
N2658 N 0.33751 0.60443 0.23786 0.0
N2659 N 0.24755 0.55158 0.12794 0.0
H2660 H 0.32669 0.53382 0.11856 0.0
H2661 H 0.2896 0.52945 0.09892 0.0
H2662 H 0.22738 0.56036 0.12462 0.0
H2663 H 0.24637 0.52817 0.11641 0.0
H2664 H 0.33517 0.62403 0.25616 0.0
H2665 H 0.35264 0.59095 0.24785 0.0
H2666 H 0.31826 0.65627 0.22614 0.0
H2667 H 0.28348 0.65752 0.201 0.0
C2668 C 0.91192 0.96821 0.29735 0.0
C2669 C 0.91512 0.99637 0.32376 0.0
C2670 C 0.89078 0.96227 0.36189 0.0
C2671 C 0.88453 0.93453 0.33409 0.0
N2672 N 0.88589 0.91566 0.2716 0.0
N2673 N 0.90038 1.01916 0.37876 0.0
C2674 C 0.89429 0.939 0.30086 0.0
C2675 C 0.90198 0.9929 0.35493 0.0
N2676 N 0.92617 0.96906 0.26843 0.0
N2677 N 0.88878 0.95948 0.39641 0.0
H2678 H 0.90812 0.04132 0.37471 0.0
H2679 H 0.88852 1.01911 0.40012 0.0
H2680 H 0.88478 0.93823 0.40439 0.0
H2681 H 0.89557 0.97786 0.4181 0.0
H2682 H 0.92851 0.94919 0.25058 0.0
H2683 H 0.93722 0.98966 0.26358 0.0
H2684 H 0.88924 0.91815 0.24586 0.0
H2685 H 0.87287 0.89482 0.27231 0.0
C2686 C 0.6936 0.12388 0.78502 0.0
C2687 C 0.69499 0.12426 0.82231 0.0
C2688 C 0.73422 0.16949 0.83555 0.0
C2689 C 0.73551 0.16624 0.79828 0.0
N2690 N 0.71827 0.13939 0.73742 0.0
N2691 N 0.71488 0.14779 0.88341 0.0
C2692 C 0.71558 0.14327 0.77294 0.0
C2693 C 0.71474 0.14733 0.84771 0.0
N2694 N 0.67072 0.1056 0.76122 0.0
N2695 N 0.75135 0.19401 0.85911 0.0
H2696 H 0.69879 0.13387 0.89271 0.0
H2697 H 0.73098 0.16126 0.90366 0.0
H2698 H 0.76648 0.21017 0.8513 0.0
H2699 H 0.74947 0.19963 0.8861 0.0
H2700 H 0.66662 0.1067 0.73414 0.0
H2701 H 0.654 0.09135 0.76911 0.0
H2702 H 0.70689 0.12062 0.7182 0.0
H2703 H 0.73351 0.15382 0.7274 0.0
loop_
_geom_bond_atom_site_label_1
_geom_bond_atom_site_label_2
_geom_bond_distance
_geom_bond_site_symmetry_2
_ccdc_geom_bond_type
Co0 O1 2.216 . S
Co0 O2 2.091 . S
Co0 O4 2.004 . S
Co0 O10 2.021 . S
Co0 O12 2.137 . S
Co0 O13 2.244 . S
O1 Co0 2.216 . S
O1 C8 1.247 . S
O2 Co0 2.091 . S
O2 C8 1.261 . S
C3 O12 1.247 . S
C3 O13 1.272 . S
O4 Co0 2.004 . S
O4 C9 1.259 . S
Co5 O6 2.061 . S
Co5 O11 2.052 . S
Co5 O13 2.135 . S
O6 Co5 2.061 . S
O6 C9 1.235 . S
C7 O10 1.238 . S
C7 O11 1.241 . S
C8 O1 1.247 . S
C8 O2 1.261 . S
C9 O4 1.259 . S
C9 O6 1.235 . S
O10 Co0 2.021 . S
O10 C7 1.238 . S
O11 Co5 2.052 . S
O11 C7 1.241 . S
O12 Co0 2.137 . S
O12 C3 1.247 . S
O13 Co0 2.244 . S
O13 C3 1.272 . S
O13 Co5 2.135 . S
Co14 O15 2.216 . S
Co14 O16 2.091 . S
Co14 O18 2.004 1_655 S
Co14 O24 2.021 . S
Co14 O26 2.137 . S
Co14 O27 2.244 1_655 S
O15 Co14 2.216 . S
O15 C22 1.247 . S
O16 Co14 2.091 . S
O16 C22 1.261 . S
C17 O26 1.247 1_455 S
C17 O27 1.272 . S
O18 Co14 2.004 1_455 S
O18 C23 1.259 . S
Co19 O20 2.061 . S
Co19 O25 2.052 . S
Co19 O27 2.135 . S
O20 Co19 2.061 . S
O20 C23 1.235 . S
C21 O24 1.238 . S
C21 O25 1.241 1_655 S
C22 O15 1.247 . S
C22 O16 1.261 . S
C23 O18 1.259 . S
C23 O20 1.235 . S
O24 Co14 2.021 . S
O24 C21 1.238 . S
O25 Co19 2.052 . S
O25 C21 1.241 1_455 S
O26 Co14 2.137 . S
O26 C17 1.247 1_655 S
O27 Co14 2.244 1_455 S
O27 C17 1.272 . S
O27 Co19 2.135 . S
Co28 O29 2.216 1_556 S
Co28 O30 2.091 . S
Co28 O32 2.004 . S
Co28 O38 2.021 1_556 S
Co28 O40 2.136 . S
Co28 O41 2.244 1_556 S
O29 Co28 2.216 1_554 S
O29 C36 1.247 1_554 S
O30 Co28 2.091 . S
O30 C36 1.261 . S
C31 O40 1.215 1_554 S
C31 O41 1.272 . S
O32 Co28 2.004 . S
O32 C37 1.259 . S
Co33 O34 2.061 . S
Co33 O39 2.052 . S
Co33 O41 2.135 . S
O34 Co33 2.061 . S
O34 C37 1.235 1_554 S
C35 O38 1.238 . S
C35 O39 1.241 . S
C36 O29 1.247 1_556 S
C36 O30 1.261 . S
C37 O32 1.259 . S
C37 O34 1.235 1_556 S
O38 Co28 2.021 1_554 S
O38 C35 1.238 . S
O39 Co33 2.052 . S
O39 C35 1.241 . S
O40 Co28 2.136 . S
O40 C31 1.215 1_556 S
O41 Co28 2.244 1_554 S
O41 C31 1.272 . S
O41 Co33 2.135 . S
Co42 O43 2.216 . S
Co42 O44 2.091 . S
Co42 O46 2.004 . S
Co42 O52 2.021 . S
Co42 O54 2.137 . S
Co42 O55 2.244 . S
O43 Co42 2.216 . S
O43 C50 1.247 . S
O44 Co42 2.091 . S
O44 C50 1.261 . S
C45 O54 1.247 . S
C45 O55 1.272 . S
O46 Co42 2.004 . S
O46 C51 1.259 . S
Co47 O48 2.061 . S
Co47 O53 2.052 . S
Co47 O55 2.135 . S
O48 Co47 2.061 . S
O48 C51 1.235 . S
C49 O52 1.238 . S
C49 O53 1.241 . S
C50 O43 1.247 . S
C50 O44 1.261 . S
C51 O46 1.259 . S
C51 O48 1.235 . S
O52 Co42 2.021 . S
O52 C49 1.238 . S
O53 Co47 2.052 . S
O53 C49 1.241 . S
O54 Co42 2.137 . S
O54 C45 1.247 . S
O55 Co42 2.244 . S
O55 C45 1.272 . S
O55 Co47 2.135 . S
Co56 O57 2.216 1_455 S
Co56 O58 2.091 . S
Co56 O60 2.004 . S
Co56 O66 2.021 . S
Co56 O68 2.137 . S
Co56 O69 2.244 . S
O57 Co56 2.216 1_655 S
O57 C64 1.247 . S
O58 Co56 2.091 . S
O58 C64 1.261 1_455 S
C59 O68 1.247 . S
C59 O69 1.272 . S
O60 Co56 2.004 . S
O60 C65 1.259 . S
Co61 O62 2.061 . S
Co61 O67 2.052 . S
Co61 O69 2.135 . S
O62 Co61 2.061 . S
O62 C65 1.235 . S
C63 O66 1.238 . S
C63 O67 1.241 . S
C64 O57 1.247 . S
C64 O58 1.261 1_655 S
C65 O60 1.259 . S
C65 O62 1.235 . S
O66 Co56 2.021 . S
O66 C63 1.238 . S
O67 Co61 2.052 . S
O67 C63 1.241 . S
O68 Co56 2.137 . S
O68 C59 1.247 . S
O69 Co56 2.244 . S
O69 C59 1.272 . S
O69 Co61 2.135 . S
Co70 O71 2.216 . S
Co70 O72 2.091 . S
Co70 O74 2.004 . S
Co70 O80 2.021 . S
Co70 O82 2.137 . S
Co70 O83 2.244 . S
O71 Co70 2.216 . S
O71 C78 1.247 . S
O72 Co70 2.091 . S
O72 C78 1.261 . S
C73 O82 1.247 . S
C73 O83 1.272 . S
O74 Co70 2.004 . S
O74 C79 1.259 . S
Co75 O76 2.061 . S
Co75 O81 2.052 . S
Co75 O83 2.135 . S
O76 Co75 2.061 . S
O76 C79 1.235 . S
C77 O80 1.238 . S
C77 O81 1.241 . S
C78 O71 1.247 . S
C78 O72 1.261 . S
C79 O74 1.259 . S
C79 O76 1.235 . S
O80 Co70 2.021 . S
O80 C77 1.238 . S
O81 Co75 2.052 . S
O81 C77 1.241 . S
O82 Co70 2.137 . S
O82 C73 1.247 . S
O83 Co70 2.244 . S
O83 C73 1.272 . S
O83 Co75 2.135 . S
Co84 O85 2.216 . S
Co84 O86 2.091 . S
Co84 O88 2.004 . S
Co84 O94 2.021 . S
Co84 O96 2.137 . S
Co84 O97 2.244 . S
O85 Co84 2.216 . S
O85 C92 1.247 . S
O86 Co84 2.091 . S
O86 C92 1.261 . S
C87 O96 1.247 . S
C87 O97 1.272 . S
O88 Co84 2.004 . S
O88 C93 1.259 . S
Co89 O90 2.061 . S
Co89 O95 2.052 . S
Co89 O97 2.135 . S
O90 Co89 2.061 . S
O90 C93 1.235 . S
C91 O94 1.238 . S
C91 O95 1.241 . S
C92 O85 1.247 . S
C92 O86 1.261 . S
C93 O88 1.259 . S
C93 O90 1.235 . S
O94 Co84 2.021 . S
O94 C91 1.238 . S
O95 Co89 2.052 . S
O95 C91 1.241 . S
O96 Co84 2.137 . S
O96 C87 1.247 . S
O97 Co84 2.244 . S
O97 C87 1.272 . S
O97 Co89 2.135 . S
Co98 O99 2.216 . S
Co98 O100 2.091 . S
Co98 O102 2.004 . S
Co98 O108 2.021 . S
Co98 O110 2.137 . S
Co98 O111 2.244 . S
O99 Co98 2.216 . S
O99 C106 1.247 . S
O100 Co98 2.091 . S
O100 C106 1.261 . S
C101 O110 1.247 . S
C101 O111 1.272 . S
O102 Co98 2.004 . S
O102 C107 1.259 . S
Co103 O104 2.061 1_455 S
Co103 O109 2.052 . S
Co103 O111 2.135 . S
O104 Co103 2.061 1_655 S
O104 C107 1.235 1_655 S
C105 O108 1.238 . S
C105 O109 1.241 . S
C106 O99 1.247 . S
C106 O100 1.261 . S
C107 O102 1.259 . S
C107 O104 1.235 1_455 S
O108 Co98 2.021 . S
O108 C105 1.238 . S
O109 Co103 2.052 . S
O109 C105 1.241 . S
O110 Co98 2.137 . S
O110 C101 1.247 . S
O111 Co98 2.244 . S
O111 C101 1.272 . S
O111 Co103 2.135 . S
Co112 O113 2.216 . S
Co112 O114 2.091 . S
Co112 O116 2.004 . S
Co112 O122 2.021 . S
Co112 O124 2.137 . S
Co112 O125 2.244 . S
O113 Co112 2.216 . S
O113 C120 1.247 . S
O114 Co112 2.091 . S
O114 C120 1.261 . S
C115 O124 1.247 . S
C115 O125 1.272 . S
O116 Co112 2.004 . S
O116 C121 1.259 . S
Co117 O118 2.061 . S
Co117 O123 2.052 . S
Co117 O125 2.135 . S
O118 Co117 2.061 . S
O118 C121 1.235 . S
C119 O122 1.238 . S
C119 O123 1.241 . S
C120 O113 1.247 . S
C120 O114 1.261 . S
C121 O116 1.259 . S
C121 O118 1.235 . S
O122 Co112 2.021 . S
O122 C119 1.238 . S
O123 Co117 2.052 . S
O123 C119 1.241 . S
O124 Co112 2.137 . S
O124 C115 1.247 . S
O125 Co112 2.244 . S
O125 C115 1.272 . S
O125 Co117 2.135 . S
Co126 O127 2.216 . S
Co126 O128 2.091 . S
Co126 O130 2.004 . S
Co126 O136 2.021 . S
Co126 O138 2.137 . S
Co126 O139 2.244 . S
O127 Co126 2.216 . S
O127 C134 1.247 . S
O128 Co126 2.091 . S
O128 C134 1.261 . S
C129 O138 1.247 . S
C129 O139 1.272 . S
O130 Co126 2.004 . S
O130 C135 1.259 . S
Co131 O132 2.061 . S
Co131 O137 2.052 . S
Co131 O139 2.135 . S
O132 Co131 2.061 . S
O132 C135 1.235 . S
C133 O136 1.238 . S
C133 O137 1.241 . S
C134 O127 1.247 . S
C134 O128 1.261 . S
C135 O130 1.259 . S
C135 O132 1.235 . S
O136 Co126 2.021 . S
O136 C133 1.238 . S
O137 Co131 2.052 . S
O137 C133 1.241 . S
O138 Co126 2.137 . S
O138 C129 1.247 . S
O139 Co126 2.244 . S
O139 C129 1.272 . S
O139 Co131 2.135 . S
Co140 O141 2.216 1_545 S
Co140 O142 2.091 . S
Co140 O144 2.004 . S
Co140 O150 2.021 . S
Co140 O152 2.137 . S
Co140 O153 2.244 . S
O141 Co140 2.216 1_565 S
O141 C148 1.247 . S
O142 Co140 2.091 . S
O142 C148 1.261 1_545 S
C143 O152 1.247 . S
C143 O153 1.272 . S
O144 Co140 2.004 . S
O144 C149 1.259 . S
Co145 O146 2.061 . S
Co145 O151 2.052 . S
Co145 O153 2.135 . S
O146 Co145 2.061 . S
O146 C149 1.235 . S
C147 O150 1.238 . S
C147 O151 1.241 . S
C148 O141 1.247 . S
C148 O142 1.261 1_565 S
C149 O144 1.259 . S
C149 O146 1.235 . S
O150 Co140 2.021 . S
O150 C147 1.238 . S
O151 Co145 2.052 . S
O151 C147 1.241 . S
O152 Co140 2.137 . S
O152 C143 1.247 . S
O153 Co140 2.244 . S
O153 C143 1.272 . S
O153 Co145 2.135 . S
Co154 O155 2.216 . S
Co154 O156 2.091 . S
Co154 O158 2.004 . S
Co154 O164 2.021 . S
Co154 O166 2.137 . S
Co154 O167 2.244 . S
O155 Co154 2.216 . S
O155 C162 1.247 . S
O156 Co154 2.091 . S
O156 C162 1.261 . S
C157 O166 1.247 . S
C157 O167 1.272 . S
O158 Co154 2.004 . S
O158 C163 1.259 . S
Co159 O160 2.061 . S
Co159 O165 2.052 . S
Co159 O167 2.135 . S
O160 Co159 2.061 . S
O160 C163 1.235 . S
C161 O164 1.238 . S
C161 O165 1.241 . S
C162 O155 1.247 . S
C162 O156 1.261 . S
C163 O158 1.259 . S
C163 O160 1.235 . S
O164 Co154 2.021 . S
O164 C161 1.238 . S
O165 Co159 2.052 . S
O165 C161 1.241 . S
O166 Co154 2.137 . S
O166 C157 1.247 . S
O167 Co154 2.244 . S
O167 C157 1.272 . S
O167 Co159 2.135 . S
Co168 O169 2.216 . S
Co168 O170 2.091 . S
Co168 O172 2.004 . S
Co168 O178 2.021 . S
Co168 O180 2.137 . S
Co168 O181 2.244 . S
O169 Co168 2.216 . S
O169 C176 1.247 . S
O170 Co168 2.091 . S
O170 C176 1.261 . S
C171 O180 1.247 . S
C171 O181 1.272 . S
O172 Co168 2.004 . S
O172 C177 1.259 . S
Co173 O174 2.061 . S
Co173 O179 2.052 . S
Co173 O181 2.135 . S
O174 Co173 2.061 . S
O174 C177 1.235 . S
C175 O178 1.238 . S
C175 O179 1.241 . S
C176 O169 1.247 . S
C176 O170 1.261 . S
C177 O172 1.259 . S
C177 O174 1.235 . S
O178 Co168 2.021 . S
O178 C175 1.238 . S
O179 Co173 2.052 . S
O179 C175 1.241 . S
O180 Co168 2.137 . S
O180 C171 1.247 . S
O181 Co168 2.244 . S
O181 C171 1.272 . S
O181 Co173 2.135 . S
Co182 O183 2.216 . S
Co182 O184 2.091 . S
Co182 O186 2.004 . S
Co182 O192 2.021 . S
Co182 O194 2.137 . S
Co182 O195 2.244 . S
O183 Co182 2.216 . S
O183 C190 1.247 . S
O184 Co182 2.091 . S
O184 C190 1.261 . S
C185 O194 1.247 . S
C185 O195 1.272 . S
O186 Co182 2.004 . S
O186 C191 1.259 . S
Co187 O188 2.061 . S
Co187 O193 2.052 . S
Co187 O195 2.135 . S
O188 Co187 2.061 . S
O188 C191 1.235 . S
C189 O192 1.238 . S
C189 O193 1.241 . S
C190 O183 1.247 . S
C190 O184 1.261 . S
C191 O186 1.259 . S
C191 O188 1.235 . S
O192 Co182 2.021 . S
O192 C189 1.238 . S
O193 Co187 2.052 . S
O193 C189 1.241 . S
O194 Co182 2.137 . S
O194 C185 1.247 . S
O195 Co182 2.244 . S
O195 C185 1.272 . S
O195 Co187 2.135 . S
Co196 O197 2.216 . S
Co196 O198 2.091 . S
Co196 O200 2.004 . S
Co196 O206 2.021 . S
Co196 O208 2.137 . S
Co196 O209 2.244 . S
O197 Co196 2.216 . S
O197 C204 1.247 . S
O198 Co196 2.091 . S
O198 C204 1.261 . S
C199 O208 1.247 . S
C199 O209 1.272 . S
O200 Co196 2.004 . S
O200 C205 1.259 . S
Co201 O202 2.061 . S
Co201 O207 2.052 . S
Co201 O209 2.135 . S
O202 Co201 2.061 . S
O202 C205 1.235 . S
C203 O206 1.238 . S
C203 O207 1.241 . S
C204 O197 1.247 . S
C204 O198 1.261 . S
C205 O200 1.259 . S
C205 O202 1.235 . S
O206 Co196 2.021 . S
O206 C203 1.238 . S
O207 Co201 2.052 . S
O207 C203 1.241 . S
O208 Co196 2.137 . S
O208 C199 1.247 . S
O209 Co196 2.244 . S
O209 C199 1.272 . S
O209 Co201 2.135 . S
Co210 O211 2.216 1_545 S
Co210 O212 2.091 . S
Co210 O214 2.004 . S
Co210 O220 2.021 1_545 S
Co210 O222 2.139 1_545 S
Co210 O223 2.244 1_545 S
O211 Co210 2.216 1_565 S
O211 C218 1.247 1_565 S
O212 Co210 2.091 . S
O212 C218 1.261 . S
C213 O222 1.275 . S
C213 O223 1.272 . S
O214 Co210 2.004 . S
O214 C219 1.259 . S
Co215 O216 2.061 . S
Co215 O221 2.052 . S
Co215 O223 2.135 . S
O216 Co215 2.061 . S
O216 C219 1.235 1_565 S
C217 O220 1.238 . S
C217 O221 1.241 . S
C218 O211 1.247 1_545 S
C218 O212 1.261 . S
C219 O214 1.259 . S
C219 O216 1.235 1_545 S
O220 Co210 2.021 1_565 S
O220 C217 1.238 . S
O221 Co215 2.052 . S
O221 C217 1.241 . S
O222 Co210 2.139 1_565 S
O222 C213 1.275 . S
O223 Co210 2.244 1_565 S
O223 C213 1.272 . S
O223 Co215 2.135 . S
Co224 O225 2.216 . S
Co224 O226 2.091 . S
Co224 O228 2.004 . S
Co224 O234 2.021 . S
Co224 O236 2.137 . S
Co224 O237 2.244 . S
O225 Co224 2.216 . S
O225 C232 1.247 . S
O226 Co224 2.091 . S
O226 C232 1.261 . S
C227 O236 1.247 . S
C227 O237 1.272 . S
O228 Co224 2.004 . S
O228 C233 1.259 . S
Co229 O230 2.061 . S
Co229 O235 2.052 . S
Co229 O237 2.135 . S
O230 Co229 2.061 . S
O230 C233 1.235 . S
C231 O234 1.238 . S
C231 O235 1.241 . S
C232 O225 1.247 . S
C232 O226 1.261 . S
C233 O228 1.259 . S
C233 O230 1.235 . S
O234 Co224 2.021 . S
O234 C231 1.238 . S
O235 Co229 2.052 . S
O235 C231 1.241 . S
O236 Co224 2.137 . S
O236 C227 1.247 . S
O237 Co224 2.244 . S
O237 C227 1.272 . S
O237 Co229 2.135 . S
Co238 O239 2.216 . S
Co238 O240 2.091 . S
Co238 O242 2.004 . S
Co238 O248 2.021 . S
Co238 O250 2.137 . S
Co238 O251 2.244 . S
O239 Co238 2.216 . S
O239 C246 1.247 . S
O240 Co238 2.091 . S
O240 C246 1.261 . S
C241 O250 1.247 . S
C241 O251 1.272 . S
O242 Co238 2.004 . S
O242 C247 1.259 . S
Co243 O244 2.061 . S
Co243 O249 2.052 . S
Co243 O251 2.135 . S
O244 Co243 2.061 . S
O244 C247 1.235 . S
C245 O248 1.238 . S
C245 O249 1.241 . S
C246 O239 1.247 . S
C246 O240 1.261 . S
C247 O242 1.259 . S
C247 O244 1.235 . S
O248 Co238 2.021 . S
O248 C245 1.238 . S
O249 Co243 2.052 . S
O249 C245 1.241 . S
O250 Co238 2.137 . S
O250 C241 1.247 . S
O251 Co238 2.244 . S
O251 C241 1.272 . S
O251 Co243 2.135 . S
Co252 O253 2.216 . S
Co252 O254 2.091 . S
Co252 O256 2.004 . S
Co252 O262 2.021 . S
Co252 O264 2.137 . S
Co252 O265 2.244 . S
O253 Co252 2.216 . S
O253 C260 1.247 . S
O254 Co252 2.091 . S
O254 C260 1.261 . S
C255 O264 1.247 . S
C255 O265 1.272 . S
O256 Co252 2.004 . S
O256 C261 1.259 . S
Co257 O258 2.061 . S
Co257 O263 2.052 . S
Co257 O265 2.135 . S
O258 Co257 2.061 . S
O258 C261 1.235 . S
C259 O262 1.238 . S
C259 O263 1.241 . S
C260 O253 1.247 . S
C260 O254 1.261 . S
C261 O256 1.259 . S
C261 O258 1.235 . S
O262 Co252 2.021 . S
O262 C259 1.238 . S
O263 Co257 2.052 . S
O263 C259 1.241 . S
O264 Co252 2.137 . S
O264 C255 1.247 . S
O265 Co252 2.244 . S
O265 C255 1.272 . S
O265 Co257 2.135 . S
Co266 O267 2.216 . S
Co266 O268 2.091 . S
Co266 O270 2.004 1_565 S
Co266 O276 2.021 . S
Co266 O278 2.137 . S
Co266 O279 2.244 1_565 S
O267 Co266 2.216 . S
O267 C274 1.247 . S
O268 Co266 2.091 . S
O268 C274 1.261 . S
C269 O278 1.247 1_545 S
C269 O279 1.272 . S
O270 Co266 2.004 1_545 S
O270 C275 1.259 . S
Co271 O272 2.061 . S
Co271 O277 2.052 . S
Co271 O279 2.135 . S
O272 Co271 2.061 . S
O272 C275 1.235 . S
C273 O276 1.238 . S
C273 O277 1.241 1_565 S
C274 O267 1.247 . S
C274 O268 1.261 . S
C275 O270 1.259 . S
C275 O272 1.235 . S
O276 Co266 2.021 . S
O276 C273 1.238 . S
O277 Co271 2.052 . S
O277 C273 1.241 1_545 S
O278 Co266 2.137 . S
O278 C269 1.247 1_565 S
O279 Co266 2.244 1_545 S
O279 C269 1.272 . S
O279 Co271 2.135 . S
Co280 O281 2.216 1_556 S
Co280 O282 2.091 . S
Co280 O284 2.004 . S
Co280 O290 2.021 1_556 S
Co280 O292 2.137 . S
Co280 O293 2.244 . S
O281 Co280 2.216 1_554 S
O281 C288 1.247 . S
O282 Co280 2.091 . S
O282 C288 1.261 1_556 S
C283 O292 1.247 . S
C283 O293 1.272 . S
O284 Co280 2.004 . S
O284 C289 1.259 . S
Co285 O286 2.061 1_554 S
Co285 O291 2.052 . S
Co285 O293 2.135 1_554 S
O286 Co285 2.061 1_556 S
O286 C289 1.235 . S
C287 O290 1.238 . S
C287 O291 1.241 . S
C288 O281 1.247 . S
C288 O282 1.261 1_554 S
C289 O284 1.259 . S
C289 O286 1.235 . S
O290 Co280 2.021 1_554 S
O290 C287 1.238 . S
O291 Co285 2.052 . S
O291 C287 1.241 . S
O292 Co280 2.137 . S
O292 C283 1.247 . S
O293 Co280 2.244 . S
O293 C283 1.272 . S
O293 Co285 2.135 1_556 S
Co294 O295 2.216 . S
Co294 O296 2.091 . S
Co294 O298 2.004 . S
Co294 O304 2.021 . S
Co294 O306 2.137 . S
Co294 O307 2.244 1_655 S
O295 Co294 2.216 . S
O295 C302 1.247 . S
O296 Co294 2.091 . S
O296 C302 1.261 . S
C297 O306 1.247 . S
C297 O307 1.272 1_655 S
O298 Co294 2.004 . S
O298 C303 1.259 . S
Co299 O300 2.061 1_455 S
Co299 O305 2.052 . S
Co299 O307 2.135 . S
O300 Co299 2.061 1_655 S
O300 C303 1.235 . S
C301 O304 1.238 . S
C301 O305 1.241 1_655 S
C302 O295 1.247 . S
C302 O296 1.261 . S
C303 O298 1.259 . S
C303 O300 1.235 . S
O304 Co294 2.021 . S
O304 C301 1.238 . S
O305 Co299 2.052 . S
O305 C301 1.241 1_455 S
O306 Co294 2.137 . S
O306 C297 1.247 . S
O307 Co294 2.244 1_455 S
O307 C297 1.272 1_455 S
O307 Co299 2.135 . S
Co308 O309 2.216 . S
Co308 O310 2.091 . S
Co308 O312 2.004 . S
Co308 O318 2.021 . S
Co308 O320 2.137 . S
Co308 O321 2.244 . S
O309 Co308 2.216 . S
O309 C316 1.247 . S
O310 Co308 2.091 . S
O310 C316 1.261 . S
C311 O320 1.247 . S
C311 O321 1.272 . S
O312 Co308 2.004 . S
O312 C317 1.259 . S
Co313 O314 2.061 . S
Co313 O319 2.052 . S
Co313 O321 2.135 . S
O314 Co313 2.061 . S
O314 C317 1.235 . S
C315 O318 1.238 . S
C315 O319 1.241 . S
C316 O309 1.247 . S
C316 O310 1.261 . S
C317 O312 1.259 . S
C317 O314 1.235 . S
O318 Co308 2.021 . S
O318 C315 1.238 . S
O319 Co313 2.052 . S
O319 C315 1.241 . S
O320 Co308 2.137 . S
O320 C311 1.247 . S
O321 Co308 2.244 . S
O321 C311 1.272 . S
O321 Co313 2.135 . S
Co322 O323 2.216 . S
Co322 O324 2.091 . S
Co322 O326 2.004 . S
Co322 O332 2.021 . S
Co322 O334 2.137 . S
Co322 O335 2.244 . S
O323 Co322 2.216 . S
O323 C330 1.247 . S
O324 Co322 2.091 . S
O324 C330 1.261 . S
C325 O334 1.247 . S
C325 O335 1.272 . S
O326 Co322 2.004 . S
O326 C331 1.259 . S
Co327 O328 2.061 . S
Co327 O333 2.052 . S
Co327 O335 2.135 . S
O328 Co327 2.061 . S
O328 C331 1.235 . S
C329 O332 1.238 . S
C329 O333 1.241 . S
C330 O323 1.247 . S
C330 O324 1.261 . S
C331 O326 1.259 . S
C331 O328 1.235 . S
O332 Co322 2.021 . S
O332 C329 1.238 . S
O333 Co327 2.052 . S
O333 C329 1.241 . S
O334 Co322 2.137 . S
O334 C325 1.247 . S
O335 Co322 2.244 . S
O335 C325 1.272 . S
O335 Co327 2.135 . S
Nd336 C338 2.836 . S
Nd336 O356 2.500 . S
Nd336 O357 2.492 . S
Nd336 O358 2.487 . S
Nd336 O359 2.682 . S
Nd336 O360 2.410 . S
Nd336 O365 2.414 . S
Nd336 O367 2.424 . S
Nd337 C347 2.836 1_545 S
Nd337 O359 2.414 . S
Nd337 O361 2.416 1_455 S
Nd337 O362 2.500 1_545 S
Nd337 O363 2.492 1_545 S
Nd337 O364 2.487 . S
Nd337 O365 2.682 . S
Nd337 O366 2.410 . S
C338 Nd336 2.836 . S
C338 C339 1.498 . S
C338 O356 1.258 . S
C338 O357 1.239 . S
C339 C338 1.498 . S
C339 C340 1.366 . S
C339 C344 1.407 . S
C340 C339 1.366 . S
C340 C341 1.392 . S
C340 H368 0.930 . S
C341 C340 1.392 . S
C341 C342 1.398 . S
C341 H369 0.929 . S
C342 C341 1.398 . S
C342 C343 1.352 . S
C343 C342 1.352 . S
C343 C344 1.384 . S
C343 H370 0.930 . S
C344 C339 1.407 . S
C344 C343 1.384 . S
C344 H371 0.929 . S
C345 O358 1.241 . S
C345 O359 1.273 . S
C346 O360 1.251 . S
C346 O361 1.266 1_455 S
C347 Nd337 2.836 1_565 S
C347 C348 1.498 . S
C347 O362 1.258 . S
C347 O363 1.239 . S
C348 C347 1.498 . S
C348 C349 1.366 . S
C348 C353 1.407 . S
C349 C348 1.366 . S
C349 C350 1.392 . S
C349 H372 0.930 . S
C350 C349 1.392 . S
C350 C351 1.398 . S
C350 H373 0.929 . S
C351 C350 1.398 . S
C351 C352 1.352 . S
C352 C351 1.352 . S
C352 C353 1.384 . S
C352 H374 0.930 . S
C353 C348 1.407 . S
C353 C352 1.384 . S
C353 H375 0.929 . S
C354 O364 1.241 . S
C354 O365 1.273 . S
C355 O366 1.251 . S
C355 O367 1.268 . S
O356 Nd336 2.500 . S
O356 C338 1.258 . S
O357 Nd336 2.492 . S
O357 C338 1.239 . S
O358 Nd336 2.487 . S
O358 C345 1.241 . S
O359 Nd336 2.682 . S
O359 Nd337 2.414 . S
O359 C345 1.273 . S
O360 Nd336 2.410 . S
O360 C346 1.251 . S
O361 Nd337 2.416 1_655 S
O361 C346 1.266 1_655 S
O362 Nd337 2.500 1_565 S
O362 C347 1.258 . S
O363 Nd337 2.492 1_565 S
O363 C347 1.239 . S
O364 Nd337 2.487 . S
O364 C354 1.241 . S
O365 Nd336 2.414 . S
O365 Nd337 2.682 . S
O365 C354 1.273 . S
O366 Nd337 2.410 . S
O366 C355 1.251 . S
O367 Nd336 2.424 . S
O367 C355 1.268 . S
H368 C340 0.930 . S
H369 C341 0.929 . S
H370 C343 0.930 . S
H371 C344 0.929 . S
H372 C349 0.930 . S
H373 C350 0.929 . S
H374 C352 0.930 . S
H375 C353 0.929 . S
Nd376 C378 2.836 . S
Nd376 O396 2.500 . S
Nd376 O397 2.492 . S
Nd376 O398 2.487 . S
Nd376 O399 2.682 . S
Nd376 O400 2.410 . S
Nd376 O405 2.414 . S
Nd376 O407 2.424 . S
Nd377 C387 2.836 . S
Nd377 O399 2.414 . S
Nd377 O401 2.424 . S
Nd377 O402 2.500 . S
Nd377 O403 2.492 . S
Nd377 O404 2.487 . S
Nd377 O405 2.682 . S
Nd377 O406 2.410 . S
C378 Nd376 2.836 . S
C378 C379 1.498 . S
C378 O396 1.258 . S
C378 O397 1.239 . S
C379 C378 1.498 . S
C379 C380 1.366 . S
C379 C384 1.407 . S
C380 C379 1.366 . S
C380 C381 1.392 . S
C380 H408 0.930 . S
C381 C380 1.392 . S
C381 C382 1.398 1_565 S
C381 H409 0.929 . S
C382 C381 1.398 1_545 S
C382 C383 1.352 1_545 S
C383 C382 1.352 1_565 S
C383 C384 1.384 . S
C383 H410 0.930 1_565 S
C384 C379 1.407 . S
C384 C383 1.384 . S
C384 H411 0.929 . S
C385 O398 1.241 . S
C385 O399 1.273 . S
C386 O400 1.251 . S
C386 O401 1.268 . S
C387 Nd377 2.836 . S
C387 C388 1.498 . S
C387 O402 1.258 . S
C387 O403 1.239 . S
C388 C387 1.498 . S
C388 C389 1.366 . S
C388 C393 1.407 . S
C389 C388 1.366 . S
C389 C390 1.392 . S
C389 H412 0.930 . S
C390 C389 1.392 . S
C390 C391 1.398 . S
C390 H413 0.929 . S
C391 C390 1.398 . S
C391 C392 1.352 . S
C392 C391 1.352 . S
C392 C393 1.384 . S
C392 H414 0.930 . S
C393 C388 1.407 . S
C393 C392 1.384 . S
C393 H415 0.929 . S
C394 O404 1.241 . S
C394 O405 1.273 . S
C395 O406 1.251 . S
C395 O407 1.268 . S
O396 Nd376 2.500 . S
O396 C378 1.258 . S
O397 Nd376 2.492 . S
O397 C378 1.239 . S
O398 Nd376 2.487 . S
O398 C385 1.241 . S
O399 Nd376 2.682 . S
O399 Nd377 2.414 . S
O399 C385 1.273 . S
O400 Nd376 2.410 . S
O400 C386 1.251 . S
O401 Nd377 2.424 . S
O401 C386 1.268 . S
O402 Nd377 2.500 . S
O402 C387 1.258 . S
O403 Nd377 2.492 . S
O403 C387 1.239 . S
O404 Nd377 2.487 . S
O404 C394 1.241 . S
O405 Nd376 2.414 . S
O405 Nd377 2.682 . S
O405 C394 1.273 . S
O406 Nd377 2.410 . S
O406 C395 1.251 . S
O407 Nd376 2.424 . S
O407 C395 1.268 . S
H408 C380 0.930 . S
H409 C381 0.929 . S
H410 C383 0.930 1_545 S
H411 C384 0.929 . S
H412 C389 0.930 . S
H413 C390 0.929 . S
H414 C392 0.930 . S
H415 C393 0.929 . S
Nd416 C418 2.836 . S
Nd416 O436 2.500 . S
Nd416 O437 2.492 . S
Nd416 O438 2.487 . S
Nd416 O439 2.682 . S
Nd416 O440 2.410 . S
Nd416 O445 2.414 . S
Nd416 O447 2.424 . S
Nd417 C427 2.836 . S
Nd417 O439 2.414 . S
Nd417 O441 2.424 . S
Nd417 O442 2.500 . S
Nd417 O443 2.492 . S
Nd417 O444 2.487 . S
Nd417 O445 2.682 . S
Nd417 O446 2.410 . S
C418 Nd416 2.836 . S
C418 C419 1.498 . S
C418 O436 1.258 . S
C418 O437 1.239 . S
C419 C418 1.498 . S
C419 C420 1.366 . S
C419 C424 1.407 . S
C420 C419 1.366 . S
C420 C421 1.392 . S
C420 H448 0.930 . S
C421 C420 1.392 . S
C421 C422 1.398 . S
C421 H449 0.929 . S
C422 C421 1.398 . S
C422 C423 1.352 . S
C423 C422 1.352 . S
C423 C424 1.384 . S
C423 H450 0.930 . S
C424 C419 1.407 . S
C424 C423 1.384 . S
C424 H451 0.929 . S
C425 O438 1.241 . S
C425 O439 1.273 . S
C426 O440 1.251 . S
C426 O441 1.268 . S
C427 Nd417 2.836 . S
C427 C428 1.498 . S
C427 O442 1.258 . S
C427 O443 1.239 . S
C428 C427 1.498 . S
C428 C429 1.366 . S
C428 C433 1.407 . S
C429 C428 1.366 . S
C429 C430 1.392 . S
C429 H452 0.930 . S
C430 C429 1.392 . S
C430 C431 1.398 . S
C430 H453 0.929 . S
C431 C430 1.398 . S
C431 C432 1.352 . S
C432 C431 1.352 . S
C432 C433 1.384 . S
C432 H454 0.930 . S
C433 C428 1.407 . S
C433 C432 1.384 . S
C433 H455 0.929 . S
C434 O444 1.241 . S
C434 O445 1.273 . S
C435 O446 1.251 . S
C435 O447 1.268 . S
O436 Nd416 2.500 . S
O436 C418 1.258 . S
O437 Nd416 2.492 . S
O437 C418 1.239 . S
O438 Nd416 2.487 . S
O438 C425 1.241 . S
O439 Nd416 2.682 . S
O439 Nd417 2.414 . S
O439 C425 1.273 . S
O440 Nd416 2.410 . S
O440 C426 1.251 . S
O441 Nd417 2.424 . S
O441 C426 1.268 . S
O442 Nd417 2.500 . S
O442 C427 1.258 . S
O443 Nd417 2.492 . S
O443 C427 1.239 . S
O444 Nd417 2.487 . S
O444 C434 1.241 . S
O445 Nd416 2.414 . S
O445 Nd417 2.682 . S
O445 C434 1.273 . S
O446 Nd417 2.410 . S
O446 C435 1.251 . S
O447 Nd416 2.424 . S
O447 C435 1.268 . S
H448 C420 0.930 . S
H449 C421 0.929 . S
H450 C423 0.930 . S
H451 C424 0.929 . S
H452 C429 0.930 . S
H453 C430 0.929 . S
H454 C432 0.930 . S
H455 C433 0.929 . S
Nd456 C458 2.836 . S
Nd456 O476 2.500 . S
Nd456 O477 2.492 . S
Nd456 O478 2.487 . S
Nd456 O479 2.682 . S
Nd456 O480 2.410 . S
Nd456 O485 2.414 . S
Nd456 O487 2.424 . S
Nd457 C467 2.836 . S
Nd457 O479 2.414 . S
Nd457 O481 2.424 . S
Nd457 O482 2.500 . S
Nd457 O483 2.492 . S
Nd457 O484 2.487 . S
Nd457 O485 2.682 . S
Nd457 O486 2.410 . S
C458 Nd456 2.836 . S
C458 C459 1.498 . S
C458 O476 1.258 . S
C458 O477 1.239 . S
C459 C458 1.498 . S
C459 C460 1.366 . S
C459 C464 1.407 . S
C460 C459 1.366 . S
C460 C461 1.392 1_556 S
C460 H488 0.930 . S
C461 C460 1.392 1_554 S
C461 C462 1.398 . S
C461 H489 0.929 . S
C462 C461 1.398 . S
C462 C463 1.352 . S
C463 C462 1.352 . S
C463 C464 1.384 1_554 S
C463 H490 0.930 . S
C464 C459 1.407 . S
C464 C463 1.384 1_556 S
C464 H491 0.929 . S
C465 O478 1.241 . S
C465 O479 1.273 . S
C466 O480 1.251 . S
C466 O481 1.268 . S
C467 Nd457 2.836 . S
C467 C468 1.498 . S
C467 O482 1.258 . S
C467 O483 1.239 . S
C468 C467 1.498 . S
C468 C469 1.366 . S
C468 C473 1.407 . S
C469 C468 1.366 . S
C469 C470 1.392 . S
C469 H492 0.930 . S
C470 C469 1.392 . S
C470 C471 1.398 . S
C470 H493 0.929 . S
C471 C470 1.398 . S
C471 C472 1.352 . S
C472 C471 1.352 . S
C472 C473 1.384 . S
C472 H494 0.930 . S
C473 C468 1.407 . S
C473 C472 1.384 . S
C473 H495 0.929 . S
C474 O484 1.241 . S
C474 O485 1.273 . S
C475 O486 1.251 . S
C475 O487 1.268 . S
O476 Nd456 2.500 . S
O476 C458 1.258 . S
O477 Nd456 2.492 . S
O477 C458 1.239 . S
O478 Nd456 2.487 . S
O478 C465 1.241 . S
O479 Nd456 2.682 . S
O479 Nd457 2.414 . S
O479 C465 1.273 . S
O480 Nd456 2.410 . S
O480 C466 1.251 . S
O481 Nd457 2.424 . S
O481 C466 1.268 . S
O482 Nd457 2.500 . S
O482 C467 1.258 . S
O483 Nd457 2.492 . S
O483 C467 1.239 . S
O484 Nd457 2.487 . S
O484 C474 1.241 . S
O485 Nd456 2.414 . S
O485 Nd457 2.682 . S
O485 C474 1.273 . S
O486 Nd457 2.410 . S
O486 C475 1.251 . S
O487 Nd456 2.424 . S
O487 C475 1.268 . S
H488 C460 0.930 . S
H489 C461 0.929 . S
H490 C463 0.930 . S
H491 C464 0.929 . S
H492 C469 0.930 . S
H493 C470 0.929 . S
H494 C472 0.930 . S
H495 C473 0.929 . S
Nd496 C498 2.836 . S
Nd496 O516 2.500 . S
Nd496 O517 2.492 . S
Nd496 O518 2.487 . S
Nd496 O519 2.682 . S
Nd496 O520 2.410 . S
Nd496 O525 2.414 . S
Nd496 O527 2.424 . S
Nd497 C507 2.836 1_545 S
Nd497 O519 2.414 . S
Nd497 O521 2.424 . S
Nd497 O522 2.500 1_545 S
Nd497 O523 2.492 1_545 S
Nd497 O524 2.487 1_455 S
Nd497 O525 2.682 . S
Nd497 O526 2.410 . S
C498 Nd496 2.836 . S
C498 C499 1.498 . S
C498 O516 1.258 . S
C498 O517 1.239 . S
C499 C498 1.498 . S
C499 C500 1.366 . S
C499 C504 1.407 . S
C500 C499 1.366 . S
C500 C501 1.392 . S
C500 H528 0.930 . S
C501 C500 1.392 . S
C501 C502 1.398 . S
C501 H529 0.929 1_455 S
C502 C501 1.398 . S
C502 C503 1.352 . S
C503 C502 1.352 . S
C503 C504 1.384 . S
C503 H530 0.930 . S
C504 C499 1.407 . S
C504 C503 1.384 . S
C504 H531 0.929 . S
C505 O518 1.241 . S
C505 O519 1.273 . S
C506 O520 1.251 . S
C506 O521 1.268 . S
C507 Nd497 2.836 1_565 S
C507 C508 1.498 . S
C507 O522 1.258 . S
C507 O523 1.239 . S
C508 C507 1.498 . S
C508 C509 1.366 . S
C508 C513 1.407 . S
C509 C508 1.366 . S
C509 C510 1.392 . S
C509 H532 0.930 . S
C510 C509 1.392 . S
C510 C511 1.398 . S
C510 H533 0.929 . S
C511 C510 1.398 . S
C511 C512 1.352 . S
C512 C511 1.352 . S
C512 C513 1.384 . S
C512 H534 0.930 . S
C513 C508 1.407 . S
C513 C512 1.384 . S
C513 H535 0.929 . S
C514 O524 1.241 1_455 S
C514 O525 1.273 . S
C515 O526 1.251 . S
C515 O527 1.268 . S
O516 Nd496 2.500 . S
O516 C498 1.258 . S
O517 Nd496 2.492 . S
O517 C498 1.239 . S
O518 Nd496 2.487 . S
O518 C505 1.241 . S
O519 Nd496 2.682 . S
O519 Nd497 2.414 . S
O519 C505 1.273 . S
O520 Nd496 2.410 . S
O520 C506 1.251 . S
O521 Nd497 2.424 . S
O521 C506 1.268 . S
O522 Nd497 2.500 1_565 S
O522 C507 1.258 . S
O523 Nd497 2.492 1_565 S
O523 C507 1.239 . S
O524 Nd497 2.487 1_655 S
O524 C514 1.241 1_655 S
O525 Nd496 2.414 . S
O525 Nd497 2.682 . S
O525 C514 1.273 . S
O526 Nd497 2.410 . S
O526 C515 1.251 . S
O527 Nd496 2.424 . S
O527 C515 1.268 . S
H528 C500 0.930 . S
H529 C501 0.929 1_655 S
H530 C503 0.930 . S
H531 C504 0.929 . S
H532 C509 0.930 . S
H533 C510 0.929 . S
H534 C512 0.930 . S
H535 C513 0.929 . S
Nd536 C538 2.836 . S
Nd536 O556 2.500 . S
Nd536 O557 2.492 . S
Nd536 O558 2.487 . S
Nd536 O559 2.682 . S
Nd536 O560 2.410 . S
Nd536 O565 2.414 . S
Nd536 O567 2.424 . S
Nd537 C547 2.836 . S
Nd537 O559 2.414 . S
Nd537 O561 2.424 . S
Nd537 O562 2.500 . S
Nd537 O563 2.492 . S
Nd537 O564 2.487 . S
Nd537 O565 2.682 . S
Nd537 O566 2.410 . S
C538 Nd536 2.836 . S
C538 C539 1.498 . S
C538 O556 1.258 . S
C538 O557 1.239 . S
C539 C538 1.498 . S
C539 C540 1.366 . S
C539 C544 1.407 . S
C540 C539 1.366 . S
C540 C541 1.392 . S
C540 H568 0.930 . S
C541 C540 1.392 . S
C541 C542 1.398 . S
C541 H569 0.929 . S
C542 C541 1.398 . S
C542 C543 1.352 . S
C543 C542 1.352 . S
C543 C544 1.384 . S
C543 H570 0.930 . S
C544 C539 1.407 . S
C544 C543 1.384 . S
C544 H571 0.929 . S
C545 O558 1.241 . S
C545 O559 1.273 . S
C546 O560 1.251 . S
C546 O561 1.268 . S
C547 Nd537 2.836 . S
C547 C548 1.498 . S
C547 O562 1.258 . S
C547 O563 1.239 . S
C548 C547 1.498 . S
C548 C549 1.366 . S
C548 C553 1.407 . S
C549 C548 1.366 . S
C549 C550 1.392 . S
C549 H572 0.930 . S
C550 C549 1.392 . S
C550 C551 1.398 . S
C550 H573 0.929 . S
C551 C550 1.398 . S
C551 C552 1.352 . S
C552 C551 1.352 . S
C552 C553 1.384 . S
C552 H574 0.930 . S
C553 C548 1.407 . S
C553 C552 1.384 . S
C553 H575 0.929 . S
C554 O564 1.241 . S
C554 O565 1.273 . S
C555 O566 1.251 . S
C555 O567 1.268 . S
O556 Nd536 2.500 . S
O556 C538 1.258 . S
O557 Nd536 2.492 . S
O557 C538 1.239 . S
O558 Nd536 2.487 . S
O558 C545 1.241 . S
O559 Nd536 2.682 . S
O559 Nd537 2.414 . S
O559 C545 1.273 . S
O560 Nd536 2.410 . S
O560 C546 1.251 . S
O561 Nd537 2.424 . S
O561 C546 1.268 . S
O562 Nd537 2.500 . S
O562 C547 1.258 . S
O563 Nd537 2.492 . S
O563 C547 1.239 . S
O564 Nd537 2.487 . S
O564 C554 1.241 . S
O565 Nd536 2.414 . S
O565 Nd537 2.682 . S
O565 C554 1.273 . S
O566 Nd537 2.410 . S
O566 C555 1.251 . S
O567 Nd536 2.424 . S
O567 C555 1.268 . S
H568 C540 0.930 . S
H569 C541 0.929 . S
H570 C543 0.930 . S
H571 C544 0.929 . S
H572 C549 0.930 . S
H573 C550 0.929 . S
H574 C552 0.930 . S
H575 C553 0.929 . S
Nd576 C578 2.836 . S
Nd576 O596 2.500 . S
Nd576 O597 2.492 . S
Nd576 O598 2.487 . S
Nd576 O599 2.682 . S
Nd576 O600 2.410 . S
Nd576 O605 2.414 . S
Nd576 O607 2.424 . S
Nd577 C587 2.836 . S
Nd577 O599 2.414 . S
Nd577 O601 2.424 . S
Nd577 O602 2.500 . S
Nd577 O603 2.492 . S
Nd577 O604 2.487 . S
Nd577 O605 2.682 . S
Nd577 O606 2.410 . S
C578 Nd576 2.836 . S
C578 C579 1.498 . S
C578 O596 1.258 . S
C578 O597 1.239 . S
C579 C578 1.498 . S
C579 C580 1.366 . S
C579 C584 1.407 1_545 S
C580 C579 1.366 . S
C580 C581 1.392 . S
C580 H608 0.930 . S
C581 C580 1.392 . S
C581 C582 1.398 . S
C581 H609 0.929 . S
C582 C581 1.398 . S
C582 C583 1.352 1_545 S
C583 C582 1.352 1_565 S
C583 C584 1.384 . S
C583 H610 0.930 . S
C584 C579 1.407 1_565 S
C584 C583 1.384 . S
C584 H611 0.929 . S
C585 O598 1.241 . S
C585 O599 1.273 . S
C586 O600 1.251 . S
C586 O601 1.268 . S
C587 Nd577 2.836 . S
C587 C588 1.498 . S
C587 O602 1.258 . S
C587 O603 1.239 . S
C588 C587 1.498 . S
C588 C589 1.366 . S
C588 C593 1.407 . S
C589 C588 1.366 . S
C589 C590 1.392 . S
C589 H612 0.930 . S
C590 C589 1.392 . S
C590 C591 1.398 . S
C590 H613 0.929 . S
C591 C590 1.398 . S
C591 C592 1.352 . S
C592 C591 1.352 . S
C592 C593 1.384 . S
C592 H614 0.930 . S
C593 C588 1.407 . S
C593 C592 1.384 . S
C593 H615 0.929 . S
C594 O604 1.241 . S
C594 O605 1.273 . S
C595 O606 1.251 . S
C595 O607 1.268 . S
O596 Nd576 2.500 . S
O596 C578 1.258 . S
O597 Nd576 2.492 . S
O597 C578 1.239 . S
O598 Nd576 2.487 . S
O598 C585 1.241 . S
O599 Nd576 2.682 . S
O599 Nd577 2.414 . S
O599 C585 1.273 . S
O600 Nd576 2.410 . S
O600 C586 1.251 . S
O601 Nd577 2.424 . S
O601 C586 1.268 . S
O602 Nd577 2.500 . S
O602 C587 1.258 . S
O603 Nd577 2.492 . S
O603 C587 1.239 . S
O604 Nd577 2.487 . S
O604 C594 1.241 . S
O605 Nd576 2.414 . S
O605 Nd577 2.682 . S
O605 C594 1.273 . S
O606 Nd577 2.410 . S
O606 C595 1.251 . S
O607 Nd576 2.424 . S
O607 C595 1.268 . S
H608 C580 0.930 . S
H609 C581 0.929 . S
H610 C583 0.930 . S
H611 C584 0.929 . S
H612 C589 0.930 . S
H613 C590 0.929 . S
H614 C592 0.930 . S
H615 C593 0.929 . S
Nd616 C618 2.836 . S
Nd616 O636 2.500 . S
Nd616 O637 2.492 . S
Nd616 O638 2.487 . S
Nd616 O639 2.682 . S
Nd616 O640 2.410 . S
Nd616 O645 2.414 . S
Nd616 O647 2.424 . S
Nd617 C627 2.836 . S
Nd617 O639 2.414 . S
Nd617 O641 2.424 . S
Nd617 O642 2.500 . S
Nd617 O643 2.492 . S
Nd617 O644 2.487 . S
Nd617 O645 2.682 . S
Nd617 O646 2.410 . S
C618 Nd616 2.836 . S
C618 C619 1.498 . S
C618 O636 1.258 . S
C618 O637 1.239 . S
C619 C618 1.498 . S
C619 C620 1.366 . S
C619 C624 1.407 . S
C620 C619 1.366 . S
C620 C621 1.392 . S
C620 H648 0.930 . S
C621 C620 1.392 . S
C621 C622 1.398 . S
C621 H649 0.929 . S
C622 C621 1.398 . S
C622 C623 1.352 . S
C623 C622 1.352 . S
C623 C624 1.384 . S
C623 H650 0.930 . S
C624 C619 1.407 . S
C624 C623 1.384 . S
C624 H651 0.929 . S
C625 O638 1.241 . S
C625 O639 1.273 . S
C626 O640 1.251 . S
C626 O641 1.268 . S
C627 Nd617 2.836 . S
C627 C628 1.498 . S
C627 O642 1.258 . S
C627 O643 1.239 . S
C628 C627 1.498 . S
C628 C629 1.366 . S
C628 C633 1.407 . S
C629 C628 1.366 . S
C629 C630 1.392 . S
C629 H652 0.930 . S
C630 C629 1.392 . S
C630 C631 1.398 . S
C630 H653 0.929 . S
C631 C630 1.398 . S
C631 C632 1.352 . S
C632 C631 1.352 . S
C632 C633 1.384 . S
C632 H654 0.930 . S
C633 C628 1.407 . S
C633 C632 1.384 . S
C633 H655 0.929 . S
C634 O644 1.241 . S
C634 O645 1.273 . S
C635 O646 1.251 . S
C635 O647 1.268 . S
O636 Nd616 2.500 . S
O636 C618 1.258 . S
O637 Nd616 2.492 . S
O637 C618 1.239 . S
O638 Nd616 2.487 . S
O638 C625 1.241 . S
O639 Nd616 2.682 . S
O639 Nd617 2.414 . S
O639 C625 1.273 . S
O640 Nd616 2.410 . S
O640 C626 1.251 . S
O641 Nd617 2.424 . S
O641 C626 1.268 . S
O642 Nd617 2.500 . S
O642 C627 1.258 . S
O643 Nd617 2.492 . S
O643 C627 1.239 . S
O644 Nd617 2.487 . S
O644 C634 1.241 . S
O645 Nd616 2.414 . S
O645 Nd617 2.682 . S
O645 C634 1.273 . S
O646 Nd617 2.410 . S
O646 C635 1.251 . S
O647 Nd616 2.424 . S
O647 C635 1.268 . S
H648 C620 0.930 . S
H649 C621 0.929 . S
H650 C623 0.930 . S
H651 C624 0.929 . S
H652 C629 0.930 . S
H653 C630 0.929 . S
H654 C632 0.930 . S
H655 C633 0.929 . S
Nd656 C658 2.836 . S
Nd656 O676 2.500 . S
Nd656 O677 2.492 . S
Nd656 O678 2.487 . S
Nd656 O679 2.682 . S
Nd656 O680 2.410 . S
Nd656 O685 2.414 . S
Nd656 O687 2.424 . S
Nd657 C667 2.836 . S
Nd657 O679 2.414 . S
Nd657 O681 2.424 . S
Nd657 O682 2.500 . S
Nd657 O683 2.492 . S
Nd657 O684 2.487 . S
Nd657 O685 2.682 . S
Nd657 O686 2.410 . S
C658 Nd656 2.836 . S
C658 C659 1.498 . S
C658 O676 1.258 . S
C658 O677 1.239 . S
C659 C658 1.498 . S
C659 C660 1.366 . S
C659 C664 1.407 . S
C660 C659 1.366 . S
C660 C661 1.392 . S
C660 H688 0.930 . S
C661 C660 1.392 . S
C661 C662 1.398 . S
C661 H689 0.929 . S
C662 C661 1.398 . S
C662 C663 1.352 . S
C663 C662 1.352 . S
C663 C664 1.384 . S
C663 H690 0.930 . S
C664 C659 1.407 . S
C664 C663 1.384 . S
C664 H691 0.929 . S
C665 O678 1.241 . S
C665 O679 1.273 . S
C666 O680 1.251 . S
C666 O681 1.268 . S
C667 Nd657 2.836 . S
C667 C668 1.498 . S
C667 O682 1.258 . S
C667 O683 1.239 . S
C668 C667 1.498 . S
C668 C669 1.366 . S
C668 C673 1.407 . S
C669 C668 1.366 . S
C669 C670 1.392 . S
C669 H692 0.930 . S
C670 C669 1.392 . S
C670 C671 1.398 . S
C670 H693 0.929 . S
C671 C670 1.398 . S
C671 C672 1.352 . S
C672 C671 1.352 . S
C672 C673 1.384 . S
C672 H694 0.930 . S
C673 C668 1.407 . S
C673 C672 1.384 . S
C673 H695 0.929 . S
C674 O684 1.241 . S
C674 O685 1.273 . S
C675 O686 1.251 . S
C675 O687 1.268 . S
O676 Nd656 2.500 . S
O676 C658 1.258 . S
O677 Nd656 2.492 . S
O677 C658 1.239 . S
O678 Nd656 2.487 . S
O678 C665 1.241 . S
O679 Nd656 2.682 . S
O679 Nd657 2.414 . S
O679 C665 1.273 . S
O680 Nd656 2.410 . S
O680 C666 1.251 . S
O681 Nd657 2.424 . S
O681 C666 1.268 . S
O682 Nd657 2.500 . S
O682 C667 1.258 . S
O683 Nd657 2.492 . S
O683 C667 1.239 . S
O684 Nd657 2.487 . S
O684 C674 1.241 . S
O685 Nd656 2.414 . S
O685 Nd657 2.682 . S
O685 C674 1.273 . S
O686 Nd657 2.410 . S
O686 C675 1.251 . S
O687 Nd656 2.424 . S
O687 C675 1.268 . S
H688 C660 0.930 . S
H689 C661 0.929 . S
H690 C663 0.930 . S
H691 C664 0.929 . S
H692 C669 0.930 . S
H693 C670 0.929 . S
H694 C672 0.930 . S
H695 C673 0.929 . S
Nd696 C698 2.836 . S
Nd696 O716 2.500 . S
Nd696 O717 2.492 . S
Nd696 O718 2.487 . S
Nd696 O719 2.682 . S
Nd696 O720 2.410 . S
Nd696 O725 2.414 . S
Nd696 O727 2.424 . S
Nd697 C707 2.836 . S
Nd697 O719 2.414 . S
Nd697 O721 2.424 . S
Nd697 O722 2.500 . S
Nd697 O723 2.492 . S
Nd697 O724 2.487 . S
Nd697 O725 2.682 . S
Nd697 O726 2.410 . S
C698 Nd696 2.836 . S
C698 C699 1.498 . S
C698 O716 1.258 . S
C698 O717 1.239 . S
C699 C698 1.498 . S
C699 C700 1.366 . S
C699 C704 1.407 . S
C700 C699 1.366 . S
C700 C701 1.392 . S
C700 H728 0.930 . S
C701 C700 1.392 . S
C701 C702 1.398 . S
C701 H729 0.929 . S
C702 C701 1.398 . S
C702 C703 1.352 . S
C703 C702 1.352 . S
C703 C704 1.384 . S
C703 H730 0.930 . S
C704 C699 1.407 . S
C704 C703 1.384 . S
C704 H731 0.929 . S
C705 O718 1.241 . S
C705 O719 1.273 . S
C706 O720 1.251 . S
C706 O721 1.268 . S
C707 Nd697 2.836 . S
C707 C708 1.498 . S
C707 O722 1.258 . S
C707 O723 1.239 . S
C708 C707 1.498 . S
C708 C709 1.366 . S
C708 C713 1.407 . S
C709 C708 1.366 . S
C709 C710 1.392 . S
C709 H732 0.930 . S
C710 C709 1.392 . S
C710 C711 1.398 . S
C710 H733 0.929 . S
C711 C710 1.398 . S
C711 C712 1.352 . S
C712 C711 1.352 . S
C712 C713 1.384 . S
C712 H734 0.930 . S
C713 C708 1.407 . S
C713 C712 1.384 . S
C713 H735 0.929 . S
C714 O724 1.241 . S
C714 O725 1.273 . S
C715 O726 1.251 . S
C715 O727 1.268 . S
O716 Nd696 2.500 . S
O716 C698 1.258 . S
O717 Nd696 2.492 . S
O717 C698 1.239 . S
O718 Nd696 2.487 . S
O718 C705 1.241 . S
O719 Nd696 2.682 . S
O719 Nd697 2.414 . S
O719 C705 1.273 . S
O720 Nd696 2.410 . S
O720 C706 1.251 . S
O721 Nd697 2.424 . S
O721 C706 1.268 . S
O722 Nd697 2.500 . S
O722 C707 1.258 . S
O723 Nd697 2.492 . S
O723 C707 1.239 . S
O724 Nd697 2.487 . S
O724 C714 1.241 . S
O725 Nd696 2.414 . S
O725 Nd697 2.682 . S
O725 C714 1.273 . S
O726 Nd697 2.410 . S
O726 C715 1.251 . S
O727 Nd696 2.424 . S
O727 C715 1.268 . S
H728 C700 0.930 . S
H729 C701 0.929 . S
H730 C703 0.930 . S
H731 C704 0.929 . S
H732 C709 0.930 . S
H733 C710 0.929 . S
H734 C712 0.930 . S
H735 C713 0.929 . S
Nd736 C738 2.836 1_455 S
Nd736 O756 2.500 1_455 S
Nd736 O757 2.492 1_455 S
Nd736 O758 2.487 . S
Nd736 O759 2.682 . S
Nd736 O760 2.410 . S
Nd736 O765 2.414 . S
Nd736 O767 2.424 . S
Nd737 C747 2.836 . S
Nd737 O759 2.414 . S
Nd737 O761 2.424 . S
Nd737 O762 2.500 . S
Nd737 O763 2.492 . S
Nd737 O764 2.487 . S
Nd737 O765 2.682 . S
Nd737 O766 2.410 . S
C738 Nd736 2.836 1_655 S
C738 C739 1.498 . S
C738 O756 1.258 . S
C738 O757 1.239 . S
C739 C738 1.498 . S
C739 C740 1.366 . S
C739 C744 1.407 . S
C740 C739 1.366 . S
C740 C741 1.392 . S
C740 H768 0.930 . S
C741 C740 1.392 . S
C741 C742 1.398 . S
C741 H769 0.929 . S
C742 C741 1.398 . S
C742 C743 1.352 . S
C743 C742 1.352 . S
C743 C744 1.384 . S
C743 H770 0.930 . S
C744 C739 1.407 . S
C744 C743 1.384 . S
C744 H771 0.929 . S
C745 O758 1.241 . S
C745 O759 1.273 . S
C746 O760 1.251 . S
C746 O761 1.268 . S
C747 Nd737 2.836 . S
C747 C748 1.498 . S
C747 O762 1.258 . S
C747 O763 1.239 . S
C748 C747 1.498 . S
C748 C749 1.366 . S
C748 C753 1.407 . S
C749 C748 1.366 . S
C749 C750 1.392 . S
C749 H772 0.930 . S
C750 C749 1.392 . S
C750 C751 1.398 . S
C750 H773 0.929 . S
C751 C750 1.398 . S
C751 C752 1.352 . S
C752 C751 1.352 . S
C752 C753 1.384 . S
C752 H774 0.930 . S
C753 C748 1.407 . S
C753 C752 1.384 . S
C753 H775 0.929 . S
C754 O764 1.241 . S
C754 O765 1.273 . S
C755 O766 1.251 . S
C755 O767 1.268 . S
O756 Nd736 2.500 1_655 S
O756 C738 1.258 . S
O757 Nd736 2.492 1_655 S
O757 C738 1.239 . S
O758 Nd736 2.487 . S
O758 C745 1.241 . S
O759 Nd736 2.682 . S
O759 Nd737 2.414 . S
O759 C745 1.273 . S
O760 Nd736 2.410 . S
O760 C746 1.251 . S
O761 Nd737 2.424 . S
O761 C746 1.268 . S
O762 Nd737 2.500 . S
O762 C747 1.258 . S
O763 Nd737 2.492 . S
O763 C747 1.239 . S
O764 Nd737 2.487 . S
O764 C754 1.241 . S
O765 Nd736 2.414 . S
O765 Nd737 2.682 . S
O765 C754 1.273 . S
O766 Nd737 2.410 . S
O766 C755 1.251 . S
O767 Nd736 2.424 . S
O767 C755 1.268 . S
H768 C740 0.930 . S
H769 C741 0.929 . S
H770 C743 0.930 . S
H771 C744 0.929 . S
H772 C749 0.930 . S
H773 C750 0.929 . S
H774 C752 0.930 . S
H775 C753 0.929 . S
Nd776 C778 2.836 . S
Nd776 O796 2.500 . S
Nd776 O797 2.492 . S
Nd776 O798 2.487 . S
Nd776 O799 2.682 . S
Nd776 O800 2.410 . S
Nd776 O805 2.414 . S
Nd776 O807 2.424 . S
Nd777 C787 2.836 . S
Nd777 O799 2.414 . S
Nd777 O801 2.424 . S
Nd777 O802 2.500 . S
Nd777 O803 2.492 . S
Nd777 O804 2.487 . S
Nd777 O805 2.682 . S
Nd777 O806 2.410 . S
C778 Nd776 2.836 . S
C778 C779 1.498 . S
C778 O796 1.258 . S
C778 O797 1.239 . S
C779 C778 1.498 . S
C779 C780 1.366 . S
C779 C784 1.407 . S
C780 C779 1.366 . S
C780 C781 1.392 . S
C780 H808 0.930 . S
C781 C780 1.392 . S
C781 C782 1.398 . S
C781 H809 0.929 . S
C782 C781 1.398 . S
C782 C783 1.352 . S
C783 C782 1.352 . S
C783 C784 1.384 . S
C783 H810 0.930 . S
C784 C779 1.407 . S
C784 C783 1.384 . S
C784 H811 0.929 . S
C785 O798 1.241 . S
C785 O799 1.273 . S
C786 O800 1.251 . S
C786 O801 1.268 . S
C787 Nd777 2.836 . S
C787 C788 1.498 . S
C787 O802 1.258 . S
C787 O803 1.239 . S
C788 C787 1.498 . S
C788 C789 1.366 . S
C788 C793 1.407 . S
C789 C788 1.366 . S
C789 C790 1.392 . S
C789 H812 0.930 . S
C790 C789 1.392 . S
C790 C791 1.398 . S
C790 H813 0.929 . S
C791 C790 1.398 . S
C791 C792 1.352 . S
C792 C791 1.352 . S
C792 C793 1.384 . S
C792 H814 0.930 . S
C793 C788 1.407 . S
C793 C792 1.384 . S
C793 H815 0.929 . S
C794 O804 1.241 . S
C794 O805 1.273 . S
C795 O806 1.251 . S
C795 O807 1.268 . S
O796 Nd776 2.500 . S
O796 C778 1.258 . S
O797 Nd776 2.492 . S
O797 C778 1.239 . S
O798 Nd776 2.487 . S
O798 C785 1.241 . S
O799 Nd776 2.682 . S
O799 Nd777 2.414 . S
O799 C785 1.273 . S
O800 Nd776 2.410 . S
O800 C786 1.251 . S
O801 Nd777 2.424 . S
O801 C786 1.268 . S
O802 Nd777 2.500 . S
O802 C787 1.258 . S
O803 Nd777 2.492 . S
O803 C787 1.239 . S
O804 Nd777 2.487 . S
O804 C794 1.241 . S
O805 Nd776 2.414 . S
O805 Nd777 2.682 . S
O805 C794 1.273 . S
O806 Nd777 2.410 . S
O806 C795 1.251 . S
O807 Nd776 2.424 . S
O807 C795 1.268 . S
H808 C780 0.930 . S
H809 C781 0.929 . S
H810 C783 0.930 . S
H811 C784 0.929 . S
H812 C789 0.930 . S
H813 C790 0.929 . S
H814 C792 0.930 . S
H815 C793 0.929 . S
Nd816 C818 2.836 . S
Nd816 O836 2.500 . S
Nd816 O837 2.492 . S
Nd816 O838 2.487 . S
Nd816 O839 2.682 . S
Nd816 O840 2.410 . S
Nd816 O845 2.414 . S
Nd816 O847 2.424 . S
Nd817 C827 2.836 . S
Nd817 O839 2.414 . S
Nd817 O841 2.424 . S
Nd817 O842 2.500 . S
Nd817 O843 2.492 . S
Nd817 O844 2.487 . S
Nd817 O845 2.682 . S
Nd817 O846 2.410 . S
C818 Nd816 2.836 . S
C818 C819 1.498 . S
C818 O836 1.258 . S
C818 O837 1.239 . S
C819 C818 1.498 . S
C819 C820 1.366 . S
C819 C824 1.407 . S
C820 C819 1.366 . S
C820 C821 1.392 . S
C820 H848 0.930 . S
C821 C820 1.392 . S
C821 C822 1.398 . S
C821 H849 0.929 . S
C822 C821 1.398 . S
C822 C823 1.352 . S
C823 C822 1.352 . S
C823 C824 1.384 . S
C823 H850 0.930 . S
C824 C819 1.407 . S
C824 C823 1.384 . S
C824 H851 0.929 . S
C825 O838 1.241 . S
C825 O839 1.273 . S
C826 O840 1.251 . S
C826 O841 1.268 . S
C827 Nd817 2.836 . S
C827 C828 1.498 . S
C827 O842 1.258 . S
C827 O843 1.239 . S
C828 C827 1.498 . S
C828 C829 1.366 . S
C828 C833 1.407 . S
C829 C828 1.366 . S
C829 C830 1.392 . S
C829 H852 0.930 . S
C830 C829 1.392 . S
C830 C831 1.398 . S
C830 H853 0.929 . S
C831 C830 1.398 . S
C831 C832 1.352 . S
C832 C831 1.352 . S
C832 C833 1.384 . S
C832 H854 0.930 . S
C833 C828 1.407 . S
C833 C832 1.384 . S
C833 H855 0.929 . S
C834 O844 1.241 . S
C834 O845 1.273 . S
C835 O846 1.251 . S
C835 O847 1.268 . S
O836 Nd816 2.500 . S
O836 C818 1.258 . S
O837 Nd816 2.492 . S
O837 C818 1.239 . S
O838 Nd816 2.487 . S
O838 C825 1.241 . S
O839 Nd816 2.682 . S
O839 Nd817 2.414 . S
O839 C825 1.273 . S
O840 Nd816 2.410 . S
O840 C826 1.251 . S
O841 Nd817 2.424 . S
O841 C826 1.268 . S
O842 Nd817 2.500 . S
O842 C827 1.258 . S
O843 Nd817 2.492 . S
O843 C827 1.239 . S
O844 Nd817 2.487 . S
O844 C834 1.241 . S
O845 Nd816 2.414 . S
O845 Nd817 2.682 . S
O845 C834 1.273 . S
O846 Nd817 2.410 . S
O846 C835 1.251 . S
O847 Nd816 2.424 . S
O847 C835 1.268 . S
H848 C820 0.930 . S
H849 C821 0.929 . S
H850 C823 0.930 . S
H851 C824 0.929 . S
H852 C829 0.930 . S
H853 C830 0.929 . S
H854 C832 0.930 . S
H855 C833 0.929 . S
Nd856 C858 2.836 . S
Nd856 O876 2.500 . S
Nd856 O877 2.492 . S
Nd856 O878 2.487 . S
Nd856 O879 2.682 . S
Nd856 O880 2.410 . S
Nd856 O885 2.414 . S
Nd856 O887 2.424 . S
Nd857 C867 2.836 . S
Nd857 O879 2.414 . S
Nd857 O881 2.424 . S
Nd857 O882 2.500 . S
Nd857 O883 2.492 . S
Nd857 O884 2.487 . S
Nd857 O885 2.682 . S
Nd857 O886 2.410 . S
C858 Nd856 2.836 . S
C858 C859 1.498 . S
C858 O876 1.258 . S
C858 O877 1.239 . S
C859 C858 1.498 . S
C859 C860 1.366 . S
C859 C864 1.407 . S
C860 C859 1.366 . S
C860 C861 1.392 . S
C860 H888 0.930 . S
C861 C860 1.392 . S
C861 C862 1.398 . S
C861 H889 0.929 . S
C862 C861 1.398 . S
C862 C863 1.352 . S
C863 C862 1.352 . S
C863 C864 1.384 . S
C863 H890 0.930 . S
C864 C859 1.407 . S
C864 C863 1.384 . S
C864 H891 0.929 . S
C865 O878 1.241 . S
C865 O879 1.273 . S
C866 O880 1.251 . S
C866 O881 1.268 . S
C867 Nd857 2.836 . S
C867 C868 1.498 . S
C867 O882 1.258 . S
C867 O883 1.239 . S
C868 C867 1.498 . S
C868 C869 1.366 . S
C868 C873 1.407 . S
C869 C868 1.366 . S
C869 C870 1.392 . S
C869 H892 0.930 . S
C870 C869 1.392 . S
C870 C871 1.398 . S
C870 H893 0.929 . S
C871 C870 1.398 . S
C871 C872 1.352 . S
C872 C871 1.352 . S
C872 C873 1.384 . S
C872 H894 0.930 . S
C873 C868 1.407 . S
C873 C872 1.384 . S
C873 H895 0.929 . S
C874 O884 1.241 . S
C874 O885 1.273 . S
C875 O886 1.251 . S
C875 O887 1.268 . S
O876 Nd856 2.500 . S
O876 C858 1.258 . S
O877 Nd856 2.492 . S
O877 C858 1.239 . S
O878 Nd856 2.487 . S
O878 C865 1.241 . S
O879 Nd856 2.682 . S
O879 Nd857 2.414 . S
O879 C865 1.273 . S
O880 Nd856 2.410 . S
O880 C866 1.251 . S
O881 Nd857 2.424 . S
O881 C866 1.268 . S
O882 Nd857 2.500 . S
O882 C867 1.258 . S
O883 Nd857 2.492 . S
O883 C867 1.239 . S
O884 Nd857 2.487 . S
O884 C874 1.241 . S
O885 Nd856 2.414 . S
O885 Nd857 2.682 . S
O885 C874 1.273 . S
O886 Nd857 2.410 . S
O886 C875 1.251 . S
O887 Nd856 2.424 . S
O887 C875 1.268 . S
H888 C860 0.930 . S
H889 C861 0.929 . S
H890 C863 0.930 . S
H891 C864 0.929 . S
H892 C869 0.930 . S
H893 C870 0.929 . S
H894 C872 0.930 . S
H895 C873 0.929 . S
Nd896 C898 2.836 . S
Nd896 O916 2.500 . S
Nd896 O917 2.492 . S
Nd896 O918 2.487 . S
Nd896 O919 2.682 . S
Nd896 O920 2.410 . S
Nd896 O925 2.414 . S
Nd896 O927 2.424 . S
Nd897 C907 2.836 . S
Nd897 O919 2.414 . S
Nd897 O921 2.424 . S
Nd897 O922 2.500 . S
Nd897 O923 2.492 . S
Nd897 O924 2.487 . S
Nd897 O925 2.682 . S
Nd897 O926 2.410 . S
C898 Nd896 2.836 . S
C898 C899 1.498 . S
C898 O916 1.258 . S
C898 O917 1.239 . S
C899 C898 1.498 . S
C899 C900 1.366 . S
C899 C904 1.407 . S
C900 C899 1.366 . S
C900 C901 1.392 . S
C900 H928 0.930 . S
C901 C900 1.392 . S
C901 C902 1.398 . S
C901 H929 0.929 . S
C902 C901 1.398 . S
C902 C903 1.352 . S
C903 C902 1.352 . S
C903 C904 1.384 . S
C903 H930 0.930 . S
C904 C899 1.407 . S
C904 C903 1.384 . S
C904 H931 0.929 . S
C905 O918 1.241 . S
C905 O919 1.273 . S
C906 O920 1.251 . S
C906 O921 1.268 . S
C907 Nd897 2.836 . S
C907 C908 1.498 . S
C907 O922 1.258 . S
C907 O923 1.239 . S
C908 C907 1.498 . S
C908 C909 1.366 . S
C908 C913 1.407 . S
C909 C908 1.366 . S
C909 C910 1.392 . S
C909 H932 0.930 . S
C910 C909 1.392 . S
C910 C911 1.398 . S
C910 H933 0.929 . S
C911 C910 1.398 . S
C911 C912 1.352 . S
C912 C911 1.352 . S
C912 C913 1.384 . S
C912 H934 0.930 . S
C913 C908 1.407 . S
C913 C912 1.384 . S
C913 H935 0.929 . S
C914 O924 1.241 . S
C914 O925 1.273 . S
C915 O926 1.251 . S
C915 O927 1.268 . S
O916 Nd896 2.500 . S
O916 C898 1.258 . S
O917 Nd896 2.492 . S
O917 C898 1.239 . S
O918 Nd896 2.487 . S
O918 C905 1.241 . S
O919 Nd896 2.682 . S
O919 Nd897 2.414 . S
O919 C905 1.273 . S
O920 Nd896 2.410 . S
O920 C906 1.251 . S
O921 Nd897 2.424 . S
O921 C906 1.268 . S
O922 Nd897 2.500 . S
O922 C907 1.258 . S
O923 Nd897 2.492 . S
O923 C907 1.239 . S
O924 Nd897 2.487 . S
O924 C914 1.241 . S
O925 Nd896 2.414 . S
O925 Nd897 2.682 . S
O925 C914 1.273 . S
O926 Nd897 2.410 . S
O926 C915 1.251 . S
O927 Nd896 2.424 . S
O927 C915 1.268 . S
H928 C900 0.930 . S
H929 C901 0.929 . S
H930 C903 0.930 . S
H931 C904 0.929 . S
H932 C909 0.930 . S
H933 C910 0.929 . S
H934 C912 0.930 . S
H935 C913 0.929 . S
Nd936 C938 2.836 . S
Nd936 O956 2.500 . S
Nd936 O957 2.492 . S
Nd936 O958 2.487 . S
Nd936 O959 2.682 . S
Nd936 O960 2.410 . S
Nd936 O965 2.414 . S
Nd936 O967 2.424 . S
Nd937 C947 2.836 1_455 S
Nd937 O959 2.414 . S
Nd937 O961 2.424 . S
Nd937 O962 2.500 1_455 S
Nd937 O963 2.492 1_455 S
Nd937 O964 2.487 . S
Nd937 O965 2.682 . S
Nd937 O966 2.410 . S
C938 Nd936 2.836 . S
C938 C939 1.498 . S
C938 O956 1.258 . S
C938 O957 1.239 . S
C939 C938 1.498 . S
C939 C940 1.366 . S
C939 C944 1.407 . S
C940 C939 1.366 . S
C940 C941 1.392 . S
C940 H968 0.930 . S
C941 C940 1.392 . S
C941 C942 1.398 . S
C941 H969 0.929 . S
C942 C941 1.398 . S
C942 C943 1.352 . S
C943 C942 1.352 . S
C943 C944 1.384 . S
C943 H970 0.930 . S
C944 C939 1.407 . S
C944 C943 1.384 . S
C944 H971 0.929 . S
C945 O958 1.241 . S
C945 O959 1.273 . S
C946 O960 1.251 . S
C946 O961 1.268 . S
C947 Nd937 2.836 1_655 S
C947 C948 1.498 . S
C947 O962 1.258 . S
C947 O963 1.239 . S
C948 C947 1.498 . S
C948 C949 1.366 . S
C948 C953 1.407 . S
C949 C948 1.366 . S
C949 C950 1.392 . S
C949 H972 0.930 . S
C950 C949 1.392 . S
C950 C951 1.398 . S
C950 H973 0.929 . S
C951 C950 1.398 . S
C951 C952 1.352 . S
C952 C951 1.352 . S
C952 C953 1.384 . S
C952 H974 0.930 . S
C953 C948 1.407 . S
C953 C952 1.384 . S
C953 H975 0.929 . S
C954 O964 1.241 . S
C954 O965 1.273 . S
C955 O966 1.251 . S
C955 O967 1.268 . S
O956 Nd936 2.500 . S
O956 C938 1.258 . S
O957 Nd936 2.492 . S
O957 C938 1.239 . S
O958 Nd936 2.487 . S
O958 C945 1.241 . S
O959 Nd936 2.682 . S
O959 Nd937 2.414 . S
O959 C945 1.273 . S
O960 Nd936 2.410 . S
O960 C946 1.251 . S
O961 Nd937 2.424 . S
O961 C946 1.268 . S
O962 Nd937 2.500 1_655 S
O962 C947 1.258 . S
O963 Nd937 2.492 1_655 S
O963 C947 1.239 . S
O964 Nd937 2.487 . S
O964 C954 1.241 . S
O965 Nd936 2.414 . S
O965 Nd937 2.682 . S
O965 C954 1.273 . S
O966 Nd937 2.410 . S
O966 C955 1.251 . S
O967 Nd936 2.424 . S
O967 C955 1.268 . S
H968 C940 0.930 . S
H969 C941 0.929 . S
H970 C943 0.930 . S
H971 C944 0.929 . S
H972 C949 0.930 . S
H973 C950 0.929 . S
H974 C952 0.930 . S
H975 C953 0.929 . S
C976 C977 1.363 . S
C976 C982 1.379 1_556 S
C976 N984 1.356 . S
C977 C976 1.363 . S
C977 C983 1.348 1_556 S
C978 C979 1.363 . S
C978 C983 1.404 . S
C978 N985 1.356 . S
C979 C978 1.363 . S
C979 C982 1.363 . S
N980 C982 1.356 . S
N980 H992 0.984 . S
N980 H993 0.985 . S
N981 C983 1.339 1_556 S
N981 H986 0.984 . S
N981 H987 0.985 . S
C982 C976 1.379 1_554 S
C982 C979 1.363 . S
C982 N980 1.356 . S
C983 C977 1.348 1_554 S
C983 C978 1.404 . S
C983 N981 1.339 1_554 S
N984 C976 1.356 . S
N984 H990 0.984 . S
N984 H991 0.984 . S
N985 C978 1.356 . S
N985 H988 0.984 . S
N985 H989 0.985 . S
H986 N981 0.984 . S
H987 N981 0.985 . S
H988 N985 0.984 . S
H989 N985 0.985 . S
H990 N984 0.984 . S
H991 N984 0.984 . S
H992 N980 0.984 . S
H993 N980 0.985 . S
C994 C995 1.363 . S
C994 C1000 1.379 . S
C994 N1002 1.356 . S
C995 C994 1.363 . S
C995 C1001 1.363 . S
C996 C997 1.363 . S
C996 C1001 1.379 . S
C996 N1003 1.356 . S
C997 C996 1.363 . S
C997 C1000 1.363 . S
N998 C1000 1.356 . S
N998 H1010 0.984 . S
N998 H1011 0.985 . S
N999 C1001 1.356 . S
N999 H1004 0.984 . S
N999 H1005 0.985 . S
C1000 C994 1.379 . S
C1000 C997 1.363 . S
C1000 N998 1.356 . S
C1001 C995 1.363 . S
C1001 C996 1.379 . S
C1001 N999 1.356 . S
N1002 C994 1.356 . S
N1002 H1008 0.984 . S
N1002 H1009 0.984 . S
N1003 C996 1.356 . S
N1003 H1006 0.984 . S
N1003 H1007 0.985 . S
H1004 N999 0.984 . S
H1005 N999 0.985 . S
H1006 N1003 0.984 . S
H1007 N1003 0.985 . S
H1008 N1002 0.984 . S
H1009 N1002 0.984 . S
H1010 N998 0.984 . S
H1011 N998 0.985 . S
C1012 C1013 1.363 . S
C1012 C1018 1.379 . S
C1012 N1020 1.356 . S
C1013 C1012 1.363 . S
C1013 C1019 1.363 . S
C1014 C1015 1.363 . S
C1014 C1019 1.379 . S
C1014 N1021 1.356 . S
C1015 C1014 1.363 . S
C1015 C1018 1.363 . S
N1016 C1018 1.356 1_545 S
N1016 H1028 0.984 . S
N1016 H1029 0.985 . S
N1017 C1019 1.356 . S
N1017 H1022 0.984 . S
N1017 H1023 0.985 . S
C1018 C1012 1.379 . S
C1018 C1015 1.363 . S
C1018 N1016 1.356 1_565 S
C1019 C1013 1.363 . S
C1019 C1014 1.379 . S
C1019 N1017 1.356 . S
N1020 C1012 1.356 . S
N1020 H1026 0.984 . S
N1020 H1027 0.984 . S
N1021 C1014 1.356 . S
N1021 H1024 0.984 1_565 S
N1021 H1025 0.985 . S
H1022 N1017 0.984 . S
H1023 N1017 0.985 . S
H1024 N1021 0.984 1_545 S
H1025 N1021 0.985 . S
H1026 N1020 0.984 . S
H1027 N1020 0.984 . S
H1028 N1016 0.984 . S
H1029 N1016 0.985 . S
C1030 C1031 1.363 . S
C1030 C1036 1.379 . S
C1030 N1038 1.356 . S
C1031 C1030 1.363 . S
C1031 C1037 1.363 . S
C1032 C1033 1.363 . S
C1032 C1037 1.379 . S
C1032 N1039 1.356 . S
C1033 C1032 1.363 . S
C1033 C1036 1.363 . S
N1034 C1036 1.356 . S
N1034 H1046 0.984 . S
N1034 H1047 0.985 . S
N1035 C1037 1.356 . S
N1035 H1040 0.984 . S
N1035 H1041 0.985 . S
C1036 C1030 1.379 . S
C1036 C1033 1.363 . S
C1036 N1034 1.356 . S
C1037 C1031 1.363 . S
C1037 C1032 1.379 . S
C1037 N1035 1.356 . S
N1038 C1030 1.356 . S
N1038 H1044 0.984 . S
N1038 H1045 0.984 . S
N1039 C1032 1.356 . S
N1039 H1042 0.984 . S
N1039 H1043 0.985 . S
H1040 N1035 0.984 . S
H1041 N1035 0.985 . S
H1042 N1039 0.984 . S
H1043 N1039 0.985 . S
H1044 N1038 0.984 . S
H1045 N1038 0.984 . S
H1046 N1034 0.984 . S
H1047 N1034 0.985 . S
C1048 C1049 1.363 . S
C1048 C1054 1.379 . S
C1048 N1056 1.356 . S
C1049 C1048 1.363 . S
C1049 C1055 1.363 . S
C1050 C1051 1.363 . S
C1050 C1055 1.379 . S
C1050 N1057 1.356 . S
C1051 C1050 1.363 . S
C1051 C1054 1.363 . S
N1052 C1054 1.356 . S
N1052 H1064 0.984 . S
N1052 H1065 0.985 . S
N1053 C1055 1.356 . S
N1053 H1058 0.984 . S
N1053 H1059 0.985 . S
C1054 C1048 1.379 . S
C1054 C1051 1.363 . S
C1054 N1052 1.356 . S
C1055 C1049 1.363 . S
C1055 C1050 1.379 . S
C1055 N1053 1.356 . S
N1056 C1048 1.356 . S
N1056 H1062 0.991 . S
N1056 H1063 0.984 1_455 S
N1057 C1050 1.356 . S
N1057 H1060 0.984 . S
N1057 H1061 0.985 . S
H1058 N1053 0.984 . S
H1059 N1053 0.985 . S
H1060 N1057 0.984 . S
H1061 N1057 0.985 . S
H1062 N1056 0.991 . S
H1063 N1056 0.984 1_655 S
H1064 N1052 0.984 . S
H1065 N1052 0.985 . S
C1066 C1067 1.363 . S
C1066 C1072 1.379 . S
C1066 N1074 1.356 . S
C1067 C1066 1.363 . S
C1067 C1073 1.363 . S
C1068 C1069 1.363 . S
C1068 C1073 1.379 . S
C1068 N1075 1.356 . S
C1069 C1068 1.363 . S
C1069 C1072 1.363 . S
N1070 C1072 1.356 . S
N1070 H1082 0.984 . S
N1070 H1083 0.985 . S
N1071 C1073 1.356 . S
N1071 H1076 0.984 . S
N1071 H1077 0.985 . S
C1072 C1066 1.379 . S
C1072 C1069 1.363 . S
C1072 N1070 1.356 . S
C1073 C1067 1.363 . S
C1073 C1068 1.379 . S
C1073 N1071 1.356 . S
N1074 C1066 1.356 . S
N1074 H1080 0.984 . S
N1074 H1081 0.984 1_556 S
N1075 C1068 1.356 . S
N1075 H1078 0.984 . S
N1075 H1079 0.985 . S
H1076 N1071 0.984 . S
H1077 N1071 0.985 . S
H1078 N1075 0.984 . S
H1079 N1075 0.985 . S
H1080 N1074 0.984 . S
H1081 N1074 0.984 1_554 S
H1082 N1070 0.984 . S
H1083 N1070 0.985 . S
C1084 C1085 1.363 . S
C1084 C1090 1.379 . S
C1084 N1092 1.356 . S
C1085 C1084 1.363 . S
C1085 C1091 1.363 . S
C1086 C1087 1.363 . S
C1086 C1091 1.379 . S
C1086 N1093 1.356 . S
C1087 C1086 1.363 . S
C1087 C1090 1.363 . S
N1088 C1090 1.356 . S
N1088 H1100 0.984 . S
N1088 H1101 0.985 . S
N1089 C1091 1.356 . S
N1089 H1094 0.984 . S
N1089 H1095 0.985 . S
C1090 C1084 1.379 . S
C1090 C1087 1.363 . S
C1090 N1088 1.356 . S
C1091 C1085 1.363 . S
C1091 C1086 1.379 . S
C1091 N1089 1.356 . S
N1092 C1084 1.356 . S
N1092 H1098 0.984 1_554 S
N1092 H1099 0.984 . S
N1093 C1086 1.356 . S
N1093 H1096 0.984 . S
N1093 H1097 0.985 . S
H1094 N1089 0.984 . S
H1095 N1089 0.985 . S
H1096 N1093 0.984 . S
H1097 N1093 0.985 . S
H1098 N1092 0.984 1_556 S
H1099 N1092 0.984 . S
H1100 N1088 0.984 . S
H1101 N1088 0.985 . S
C1102 C1103 1.363 . S
C1102 C1108 1.379 . S
C1102 N1110 1.356 . S
C1103 C1102 1.363 . S
C1103 C1109 1.363 . S
C1104 C1105 1.363 . S
C1104 C1109 1.379 . S
C1104 N1111 1.356 . S
C1105 C1104 1.363 . S
C1105 C1108 1.363 . S
N1106 C1108 1.356 . S
N1106 H1118 0.984 . S
N1106 H1119 0.985 . S
N1107 C1109 1.356 . S
N1107 H1112 0.984 . S
N1107 H1113 0.985 . S
C1108 C1102 1.379 . S
C1108 C1105 1.363 . S
C1108 N1106 1.356 . S
C1109 C1103 1.363 . S
C1109 C1104 1.379 . S
C1109 N1107 1.356 . S
N1110 C1102 1.356 . S
N1110 H1116 0.984 . S
N1110 H1117 0.984 . S
N1111 C1104 1.356 . S
N1111 H1114 0.984 . S
N1111 H1115 0.985 . S
H1112 N1107 0.984 . S
H1113 N1107 0.985 . S
H1114 N1111 0.984 . S
H1115 N1111 0.985 . S
H1116 N1110 0.984 . S
H1117 N1110 0.984 . S
H1118 N1106 0.984 . S
H1119 N1106 0.985 . S
C1120 C1121 1.363 . S
C1120 C1126 1.379 . S
C1120 N1128 1.356 . S
C1121 C1120 1.363 . S
C1121 C1127 1.363 . S
C1122 C1123 1.363 . S
C1122 C1127 1.379 1_455 S
C1122 N1129 1.356 . S
C1123 C1122 1.363 . S
C1123 C1126 1.363 1_455 S
N1124 C1126 1.344 1_455 S
N1124 H1136 0.963 1_455 S
N1124 H1137 1.020 . S
N1125 C1127 1.356 . S
N1125 H1130 0.984 . S
N1125 H1131 0.985 . S
C1126 C1120 1.379 . S
C1126 C1123 1.363 1_655 S
C1126 N1124 1.344 1_655 S
C1127 C1121 1.363 . S
C1127 C1122 1.379 1_655 S
C1127 N1125 1.356 . S
N1128 C1120 1.356 . S
N1128 H1134 0.984 . S
N1128 H1135 0.984 . S
N1129 C1122 1.356 . S
N1129 H1132 0.984 . S
N1129 H1133 0.985 . S
H1130 N1125 0.984 . S
H1131 N1125 0.985 . S
H1132 N1129 0.984 . S
H1133 N1129 0.985 . S
H1134 N1128 0.984 . S
H1135 N1128 0.984 . S
H1136 N1124 0.963 1_655 S
H1137 N1124 1.020 . S
C1138 C1139 1.363 . S
C1138 C1144 1.379 . S
C1138 N1146 1.356 . S
C1139 C1138 1.363 . S
C1139 C1145 1.363 . S
C1140 C1141 1.363 . S
C1140 C1145 1.379 . S
C1140 N1147 1.356 . S
C1141 C1140 1.363 . S
C1141 C1144 1.363 . S
N1142 C1144 1.356 . S
N1142 H1154 0.984 . S
N1142 H1155 0.985 . S
N1143 C1145 1.356 . S
N1143 H1148 0.984 . S
N1143 H1149 0.985 . S
C1144 C1138 1.379 . S
C1144 C1141 1.363 . S
C1144 N1142 1.356 . S
C1145 C1139 1.363 . S
C1145 C1140 1.379 . S
C1145 N1143 1.356 . S
N1146 C1138 1.356 . S
N1146 H1152 0.984 . S
N1146 H1153 0.984 . S
N1147 C1140 1.356 . S
N1147 H1150 0.984 . S
N1147 H1151 0.985 . S
H1148 N1143 0.984 . S
H1149 N1143 0.985 . S
H1150 N1147 0.984 . S
H1151 N1147 0.985 . S
H1152 N1146 0.984 . S
H1153 N1146 0.984 . S
H1154 N1142 0.984 . S
H1155 N1142 0.985 . S
C1156 C1157 1.363 . S
C1156 C1162 1.379 . S
C1156 N1164 1.356 . S
C1157 C1156 1.363 . S
C1157 C1163 1.363 . S
C1158 C1159 1.363 . S
C1158 C1163 1.379 . S
C1158 N1165 1.356 . S
C1159 C1158 1.363 . S
C1159 C1162 1.363 . S
N1160 C1162 1.356 . S
N1160 H1172 0.984 . S
N1160 H1173 0.985 . S
N1161 C1163 1.356 1_565 S
N1161 H1166 0.984 . S
N1161 H1167 0.985 . S
C1162 C1156 1.379 . S
C1162 C1159 1.363 . S
C1162 N1160 1.356 . S
C1163 C1157 1.363 . S
C1163 C1158 1.379 . S
C1163 N1161 1.356 1_545 S
N1164 C1156 1.356 . S
N1164 H1170 0.984 . S
N1164 H1171 0.984 . S
N1165 C1158 1.356 . S
N1165 H1168 0.984 . S
N1165 H1169 0.985 . S
H1166 N1161 0.984 . S
H1167 N1161 0.985 . S
H1168 N1165 0.984 . S
H1169 N1165 0.985 . S
H1170 N1164 0.984 . S
H1171 N1164 0.984 . S
H1172 N1160 0.984 . S
H1173 N1160 0.985 . S
C1174 C1175 1.363 . S
C1174 C1180 1.379 . S
C1174 N1182 1.356 . S
C1175 C1174 1.363 . S
C1175 C1181 1.363 . S
C1176 C1177 1.363 . S
C1176 C1181 1.379 . S
C1176 N1183 1.356 . S
C1177 C1176 1.363 . S
C1177 C1180 1.363 . S
N1178 C1180 1.356 . S
N1178 H1190 0.984 . S
N1178 H1191 0.985 . S
N1179 C1181 1.356 . S
N1179 H1184 0.984 . S
N1179 H1185 0.985 . S
C1180 C1174 1.379 . S
C1180 C1177 1.363 . S
C1180 N1178 1.356 . S
C1181 C1175 1.363 . S
C1181 C1176 1.379 . S
C1181 N1179 1.356 . S
N1182 C1174 1.356 . S
N1182 H1188 0.984 . S
N1182 H1189 0.984 . S
N1183 C1176 1.356 . S
N1183 H1186 0.984 . S
N1183 H1187 0.985 1_554 S
H1184 N1179 0.984 . S
H1185 N1179 0.985 . S
H1186 N1183 0.984 . S
H1187 N1183 0.985 1_556 S
H1188 N1182 0.984 . S
H1189 N1182 0.984 . S
H1190 N1178 0.984 . S
H1191 N1178 0.985 . S
C1192 C1193 1.363 . S
C1192 C1198 1.379 1_655 S
C1192 N1200 1.356 . S
C1193 C1192 1.363 . S
C1193 C1199 1.363 . S
C1194 C1195 1.364 . S
C1194 C1199 1.379 . S
C1194 N1201 1.356 . S
C1195 C1194 1.364 . S
C1195 C1198 1.363 1_655 S
N1196 C1198 1.356 . S
N1196 H1208 0.984 . S
N1196 H1209 0.985 . S
N1197 C1199 1.356 . S
N1197 H1202 0.984 . S
N1197 H1203 0.985 . S
C1198 C1192 1.379 1_455 S
C1198 C1195 1.363 1_455 S
C1198 N1196 1.356 . S
C1199 C1193 1.363 . S
C1199 C1194 1.379 . S
C1199 N1197 1.356 . S
N1200 C1192 1.356 . S
N1200 H1206 0.984 . S
N1200 H1207 0.984 . S
N1201 C1194 1.356 . S
N1201 H1204 0.984 . S
N1201 H1205 0.985 . S
H1202 N1197 0.984 . S
H1203 N1197 0.985 . S
H1204 N1201 0.984 . S
H1205 N1201 0.985 . S
H1206 N1200 0.984 . S
H1207 N1200 0.984 . S
H1208 N1196 0.984 . S
H1209 N1196 0.985 . S
C1210 C1211 1.363 . S
C1210 C1216 1.379 . S
C1210 N1218 1.356 . S
C1211 C1210 1.363 . S
C1211 C1217 1.363 . S
C1212 C1213 1.363 . S
C1212 C1217 1.379 . S
C1212 N1219 1.356 . S
C1213 C1212 1.363 . S
C1213 C1216 1.363 . S
N1214 C1216 1.356 . S
N1214 H1226 0.984 . S
N1214 H1227 0.985 . S
N1215 C1217 1.356 . S
N1215 H1220 0.984 . S
N1215 H1221 0.985 . S
C1216 C1210 1.379 . S
C1216 C1213 1.363 . S
C1216 N1214 1.356 . S
C1217 C1211 1.363 . S
C1217 C1212 1.379 . S
C1217 N1215 1.356 . S
N1218 C1210 1.356 . S
N1218 H1224 0.984 . S
N1218 H1225 0.984 . S
N1219 C1212 1.356 . S
N1219 H1222 0.984 . S
N1219 H1223 0.985 . S
H1220 N1215 0.984 . S
H1221 N1215 0.985 . S
H1222 N1219 0.984 . S
H1223 N1219 0.985 . S
H1224 N1218 0.984 . S
H1225 N1218 0.984 . S
H1226 N1214 0.984 . S
H1227 N1214 0.985 . S
C1228 C1229 1.363 . S
C1228 C1234 1.379 . S
C1228 N1236 1.356 . S
C1229 C1228 1.363 . S
C1229 C1235 1.363 . S
C1230 C1231 1.363 . S
C1230 C1235 1.379 . S
C1230 N1237 1.356 . S
C1231 C1230 1.363 . S
C1231 C1234 1.363 . S
N1232 C1234 1.356 . S
N1232 H1244 0.984 . S
N1232 H1245 0.985 . S
N1233 C1235 1.356 1_565 S
N1233 H1238 0.984 . S
N1233 H1239 0.985 . S
C1234 C1228 1.379 . S
C1234 C1231 1.363 . S
C1234 N1232 1.356 . S
C1235 C1229 1.363 . S
C1235 C1230 1.379 . S
C1235 N1233 1.356 1_545 S
N1236 C1228 1.356 . S
N1236 H1242 0.984 . S
N1236 H1243 0.984 . S
N1237 C1230 1.356 . S
N1237 H1240 0.984 1_556 S
N1237 H1241 0.985 1_545 S
H1238 N1233 0.984 . S
H1239 N1233 0.985 . S
H1240 N1237 0.984 1_554 S
H1241 N1237 0.985 1_565 S
H1242 N1236 0.984 . S
H1243 N1236 0.984 . S
H1244 N1232 0.984 . S
H1245 N1232 0.985 . S
C1246 C1247 1.363 . S
C1246 C1252 1.379 . S
C1246 N1254 1.356 . S
C1247 C1246 1.363 . S
C1247 C1253 1.363 . S
C1248 C1249 1.363 . S
C1248 C1253 1.379 . S
C1248 N1255 1.356 . S
C1249 C1248 1.363 . S
C1249 C1252 1.363 . S
N1250 C1252 1.356 . S
N1250 H1262 0.984 . S
N1250 H1263 0.985 . S
N1251 C1253 1.356 . S
N1251 H1256 0.984 . S
N1251 H1257 0.985 . S
C1252 C1246 1.379 . S
C1252 C1249 1.363 . S
C1252 N1250 1.356 . S
C1253 C1247 1.363 . S
C1253 C1248 1.379 . S
C1253 N1251 1.356 . S
N1254 C1246 1.356 . S
N1254 H1260 0.984 . S
N1254 H1261 0.984 . S
N1255 C1248 1.356 . S
N1255 H1258 0.984 . S
N1255 H1259 0.985 . S
H1256 N1251 0.984 . S
H1257 N1251 0.985 . S
H1258 N1255 0.984 . S
H1259 N1255 0.985 . S
H1260 N1254 0.984 . S
H1261 N1254 0.984 . S
H1262 N1250 0.984 . S
H1263 N1250 0.985 . S
C1264 C1265 1.363 . S
C1264 C1270 1.379 1_565 S
C1264 N1272 1.356 . S
C1265 C1264 1.363 . S
C1265 C1271 1.363 . S
C1266 C1267 1.363 1_565 S
C1266 C1271 1.379 . S
C1266 N1273 1.356 . S
C1267 C1266 1.363 1_545 S
C1267 C1270 1.363 . S
N1268 C1270 1.356 . S
N1268 H1280 0.984 . S
N1268 H1281 0.985 . S
N1269 C1271 1.356 . S
N1269 H1274 0.984 . S
N1269 H1275 0.985 . S
C1270 C1264 1.379 1_545 S
C1270 C1267 1.363 . S
C1270 N1268 1.356 . S
C1271 C1265 1.363 . S
C1271 C1266 1.379 . S
C1271 N1269 1.356 . S
N1272 C1264 1.356 . S
N1272 H1278 0.984 1_565 S
N1272 H1279 0.984 . S
N1273 C1266 1.356 . S
N1273 H1276 0.984 1_565 S
N1273 H1277 0.985 . S
H1274 N1269 0.984 . S
H1275 N1269 0.985 . S
H1276 N1273 0.984 1_545 S
H1277 N1273 0.985 . S
H1278 N1272 0.984 1_545 S
H1279 N1272 0.984 . S
H1280 N1268 0.984 . S
H1281 N1268 0.985 . S
C1282 C1283 1.363 . S
C1282 C1288 1.379 . S
C1282 N1290 1.356 . S
C1283 C1282 1.363 . S
C1283 C1289 1.363 1_554 S
C1284 C1285 1.363 . S
C1284 C1289 1.379 1_554 S
C1284 N1291 1.356 . S
C1285 C1284 1.363 . S
C1285 C1288 1.363 . S
N1286 C1288 1.356 . S
N1286 H1298 0.984 . S
N1286 H1299 0.985 . S
N1287 C1289 1.356 . S
N1287 H1292 0.984 . S
N1287 H1293 0.985 . S
C1288 C1282 1.379 . S
C1288 C1285 1.363 . S
C1288 N1286 1.356 . S
C1289 C1283 1.363 1_556 S
C1289 C1284 1.379 1_556 S
C1289 N1287 1.356 . S
N1290 C1282 1.356 . S
N1290 H1296 0.984 . S
N1290 H1297 0.984 . S
N1291 C1284 1.356 . S
N1291 H1294 0.984 . S
N1291 H1295 0.985 1_554 S
H1292 N1287 0.984 . S
H1293 N1287 0.985 . S
H1294 N1291 0.984 . S
H1295 N1291 0.985 1_556 S
H1296 N1290 0.984 . S
H1297 N1290 0.984 . S
H1298 N1286 0.984 . S
H1299 N1286 0.985 . S
C1300 C1301 1.363 . S
C1300 C1306 1.379 . S
C1300 N1308 1.356 . S
C1301 C1300 1.363 . S
C1301 C1307 1.363 . S
C1302 C1303 1.363 . S
C1302 C1307 1.379 . S
C1302 N1309 1.356 . S
C1303 C1302 1.363 . S
C1303 C1306 1.363 . S
N1304 C1306 1.356 . S
N1304 H1316 0.984 . S
N1304 H1317 0.985 . S
N1305 C1307 1.356 . S
N1305 H1310 0.984 . S
N1305 H1311 0.985 . S
C1306 C1300 1.379 . S
C1306 C1303 1.363 . S
C1306 N1304 1.356 . S
C1307 C1301 1.363 . S
C1307 C1302 1.379 . S
C1307 N1305 1.356 . S
N1308 C1300 1.356 . S
N1308 H1314 0.984 . S
N1308 H1315 0.984 . S
N1309 C1302 1.356 . S
N1309 H1312 0.984 . S
N1309 H1313 0.985 . S
H1310 N1305 0.984 . S
H1311 N1305 0.985 . S
H1312 N1309 0.984 . S
H1313 N1309 0.985 . S
H1314 N1308 0.984 . S
H1315 N1308 0.984 . S
H1316 N1304 0.984 . S
H1317 N1304 0.985 . S
C1318 C1319 1.363 . S
C1318 C1324 1.379 . S
C1318 N1326 1.356 . S
C1319 C1318 1.363 . S
C1319 C1325 1.363 . S
C1320 C1321 1.363 . S
C1320 C1325 1.379 . S
C1320 N1327 1.356 . S
C1321 C1320 1.363 . S
C1321 C1324 1.363 . S
N1322 C1324 1.356 . S
N1322 H1334 0.984 . S
N1322 H1335 0.985 . S
N1323 C1325 1.356 . S
N1323 H1328 0.984 . S
N1323 H1329 0.985 . S
C1324 C1318 1.379 . S
C1324 C1321 1.363 . S
C1324 N1322 1.356 . S
C1325 C1319 1.363 . S
C1325 C1320 1.379 . S
C1325 N1323 1.356 . S
N1326 C1318 1.356 . S
N1326 H1332 0.984 . S
N1326 H1333 0.984 . S
N1327 C1320 1.356 . S
N1327 H1330 0.984 . S
N1327 H1331 0.985 . S
H1328 N1323 0.984 . S
H1329 N1323 0.985 . S
H1330 N1327 0.984 . S
H1331 N1327 0.985 . S
H1332 N1326 0.984 . S
H1333 N1326 0.984 . S
H1334 N1322 0.984 . S
H1335 N1322 0.985 . S
C1336 C1337 1.363 . S
C1336 C1342 1.379 . S
C1336 N1344 1.356 . S
C1337 C1336 1.363 . S
C1337 C1343 1.363 . S
C1338 C1339 1.363 . S
C1338 C1343 1.379 . S
C1338 N1345 1.356 . S
C1339 C1338 1.363 . S
C1339 C1342 1.363 . S
N1340 C1342 1.356 . S
N1340 H1352 0.984 . S
N1340 H1353 0.985 . S
N1341 C1343 1.356 . S
N1341 H1346 0.984 . S
N1341 H1347 0.985 . S
C1342 C1336 1.379 . S
C1342 C1339 1.363 . S
C1342 N1340 1.356 . S
C1343 C1337 1.363 . S
C1343 C1338 1.379 . S
C1343 N1341 1.356 . S
N1344 C1336 1.356 . S
N1344 H1350 0.984 . S
N1344 H1351 0.984 . S
N1345 C1338 1.356 . S
N1345 H1348 0.984 . S
N1345 H1349 0.985 . S
H1346 N1341 0.984 . S
H1347 N1341 0.985 . S
H1348 N1345 0.984 . S
H1349 N1345 0.985 . S
H1350 N1344 0.984 . S
H1351 N1344 0.984 . S
H1352 N1340 0.984 . S
H1353 N1340 0.985 . S
C1354 C1355 1.363 . S
C1354 C1360 1.379 . S
C1354 N1362 1.356 . S
C1355 C1354 1.363 . S
C1355 C1361 1.363 . S
C1356 C1357 1.363 . S
C1356 C1361 1.379 . S
C1356 N1363 1.356 . S
C1357 C1356 1.363 . S
C1357 C1360 1.363 . S
N1358 C1360 1.356 . S
N1358 H1370 0.984 . S
N1358 H1371 0.985 . S
N1359 C1361 1.356 . S
N1359 H1364 0.984 . S
N1359 H1365 0.985 . S
C1360 C1354 1.379 . S
C1360 C1357 1.363 . S
C1360 N1358 1.356 . S
C1361 C1355 1.363 . S
C1361 C1356 1.379 . S
C1361 N1359 1.356 . S
N1362 C1354 1.356 . S
N1362 H1368 0.984 . S
N1362 H1369 0.984 . S
N1363 C1356 1.356 . S
N1363 H1366 0.984 . S
N1363 H1367 0.985 . S
H1364 N1359 0.984 . S
H1365 N1359 0.985 . S
H1366 N1363 0.984 . S
H1367 N1363 0.985 . S
H1368 N1362 0.984 . S
H1369 N1362 0.984 . S
H1370 N1358 0.984 . S
H1371 N1358 0.985 . S
C1372 C1373 1.363 . S
C1372 C1378 1.379 . S
C1372 N1380 1.356 . S
C1373 C1372 1.363 . S
C1373 C1379 1.363 . S
C1374 C1375 1.363 . S
C1374 C1379 1.379 . S
C1374 N1381 1.356 . S
C1375 C1374 1.363 . S
C1375 C1378 1.363 . S
N1376 C1378 1.356 . S
N1376 H1388 0.984 . S
N1376 H1389 0.985 . S
N1377 C1379 1.356 . S
N1377 H1382 0.984 . S
N1377 H1383 0.985 . S
C1378 C1372 1.379 . S
C1378 C1375 1.363 . S
C1378 N1376 1.356 . S
C1379 C1373 1.363 . S
C1379 C1374 1.379 . S
C1379 N1377 1.356 . S
N1380 C1372 1.356 . S
N1380 H1386 0.984 . S
N1380 H1387 0.984 . S
N1381 C1374 1.356 . S
N1381 H1384 0.984 . S
N1381 H1385 0.985 . S
H1382 N1377 0.984 . S
H1383 N1377 0.985 . S
H1384 N1381 0.984 . S
H1385 N1381 0.985 . S
H1386 N1380 0.984 . S
H1387 N1380 0.984 . S
H1388 N1376 0.984 . S
H1389 N1376 0.985 . S
C1390 C1391 1.363 . S
C1390 C1396 1.379 . S
C1390 N1398 1.356 . S
C1391 C1390 1.363 . S
C1391 C1397 1.363 . S
C1392 C1393 1.363 . S
C1392 C1397 1.379 . S
C1392 N1399 1.356 . S
C1393 C1392 1.363 . S
C1393 C1396 1.363 . S
N1394 C1396 1.356 . S
N1394 H1406 0.984 . S
N1394 H1407 0.985 . S
N1395 C1397 1.356 . S
N1395 H1400 0.984 . S
N1395 H1401 0.985 . S
C1396 C1390 1.379 . S
C1396 C1393 1.363 . S
C1396 N1394 1.356 . S
C1397 C1391 1.363 . S
C1397 C1392 1.379 . S
C1397 N1395 1.356 . S
N1398 C1390 1.356 . S
N1398 H1404 0.984 . S
N1398 H1405 0.984 . S
N1399 C1392 1.356 . S
N1399 H1402 0.984 . S
N1399 H1403 0.985 . S
H1400 N1395 0.984 . S
H1401 N1395 0.985 . S
H1402 N1399 0.984 . S
H1403 N1399 0.985 . S
H1404 N1398 0.984 . S
H1405 N1398 0.984 . S
H1406 N1394 0.984 . S
H1407 N1394 0.985 . S
C1408 C1409 1.363 . S
C1408 C1414 1.379 . S
C1408 N1416 1.356 . S
C1409 C1408 1.363 . S
C1409 C1415 1.363 . S
C1410 C1411 1.363 . S
C1410 C1415 1.379 . S
C1410 N1417 1.356 . S
C1411 C1410 1.363 . S
C1411 C1414 1.363 . S
N1412 C1414 1.356 . S
N1412 H1424 0.984 . S
N1412 H1425 0.985 . S
N1413 C1415 1.356 . S
N1413 H1418 0.984 . S
N1413 H1419 0.985 . S
C1414 C1408 1.379 . S
C1414 C1411 1.363 . S
C1414 N1412 1.356 . S
C1415 C1409 1.363 . S
C1415 C1410 1.379 . S
C1415 N1413 1.356 . S
N1416 C1408 1.356 . S
N1416 H1422 0.984 . S
N1416 H1423 0.984 . S
N1417 C1410 1.356 . S
N1417 H1420 0.984 . S
N1417 H1421 0.985 . S
H1418 N1413 0.984 . S
H1419 N1413 0.985 . S
H1420 N1417 0.984 . S
H1421 N1417 0.985 . S
H1422 N1416 0.984 . S
H1423 N1416 0.984 . S
H1424 N1412 0.984 . S
H1425 N1412 0.985 . S
C1426 C1427 1.363 . S
C1426 C1432 1.379 . S
C1426 N1434 1.356 . S
C1427 C1426 1.363 . S
C1427 C1433 1.363 . S
C1428 C1429 1.363 . S
C1428 C1433 1.379 . S
C1428 N1435 1.356 . S
C1429 C1428 1.363 . S
C1429 C1432 1.363 . S
N1430 C1432 1.356 . S
N1430 H1442 0.984 . S
N1430 H1443 0.985 . S
N1431 C1433 1.356 . S
N1431 H1436 0.984 . S
N1431 H1437 0.985 . S
C1432 C1426 1.379 . S
C1432 C1429 1.363 . S
C1432 N1430 1.356 . S
C1433 C1427 1.363 . S
C1433 C1428 1.379 . S
C1433 N1431 1.356 . S
N1434 C1426 1.356 . S
N1434 H1440 0.984 . S
N1434 H1441 0.984 . S
N1435 C1428 1.356 . S
N1435 H1438 0.984 . S
N1435 H1439 0.985 . S
H1436 N1431 0.984 . S
H1437 N1431 0.985 . S
H1438 N1435 0.984 . S
H1439 N1435 0.985 . S
H1440 N1434 0.984 . S
H1441 N1434 0.984 . S
H1442 N1430 0.984 . S
H1443 N1430 0.985 . S
C1444 C1445 1.363 . S
C1444 C1450 1.379 . S
C1444 N1452 1.356 . S
C1445 C1444 1.363 . S
C1445 C1451 1.363 . S
C1446 C1447 1.363 . S
C1446 C1451 1.379 . S
C1446 N1453 1.356 . S
C1447 C1446 1.363 . S
C1447 C1450 1.363 . S
N1448 C1450 1.356 . S
N1448 H1460 0.984 . S
N1448 H1461 0.985 . S
N1449 C1451 1.356 . S
N1449 H1454 0.984 . S
N1449 H1455 0.985 . S
C1450 C1444 1.379 . S
C1450 C1447 1.363 . S
C1450 N1448 1.356 . S
C1451 C1445 1.363 . S
C1451 C1446 1.379 . S
C1451 N1449 1.356 . S
N1452 C1444 1.356 . S
N1452 H1458 0.984 . S
N1452 H1459 0.984 . S
N1453 C1446 1.356 . S
N1453 H1456 0.984 . S
N1453 H1457 0.985 . S
H1454 N1449 0.984 . S
H1455 N1449 0.985 . S
H1456 N1453 0.984 . S
H1457 N1453 0.985 . S
H1458 N1452 0.984 . S
H1459 N1452 0.984 . S
H1460 N1448 0.984 . S
H1461 N1448 0.985 . S
C1462 C1463 1.363 . S
C1462 C1468 1.379 . S
C1462 N1470 1.356 . S
C1463 C1462 1.363 . S
C1463 C1469 1.363 . S
C1464 C1465 1.363 . S
C1464 C1469 1.379 . S
C1464 N1471 1.356 . S
C1465 C1464 1.363 . S
C1465 C1468 1.363 . S
N1466 C1468 1.356 . S
N1466 H1478 0.984 . S
N1466 H1479 0.985 . S
N1467 C1469 1.356 . S
N1467 H1472 0.984 . S
N1467 H1473 0.985 . S
C1468 C1462 1.379 . S
C1468 C1465 1.363 . S
C1468 N1466 1.356 . S
C1469 C1463 1.363 . S
C1469 C1464 1.379 . S
C1469 N1467 1.356 . S
N1470 C1462 1.356 . S
N1470 H1476 0.984 . S
N1470 H1477 0.984 . S
N1471 C1464 1.356 . S
N1471 H1474 0.984 . S
N1471 H1475 0.985 . S
H1472 N1467 0.984 . S
H1473 N1467 0.985 . S
H1474 N1471 0.984 . S
H1475 N1471 0.985 . S
H1476 N1470 0.984 . S
H1477 N1470 0.984 . S
H1478 N1466 0.984 . S
H1479 N1466 0.985 . S
C1480 C1481 1.363 . S
C1480 C1486 1.379 . S
C1480 N1488 1.356 . S
C1481 C1480 1.363 . S
C1481 C1487 1.363 . S
C1482 C1483 1.363 . S
C1482 C1487 1.379 . S
C1482 N1489 1.356 . S
C1483 C1482 1.363 . S
C1483 C1486 1.363 . S
N1484 C1486 1.356 . S
N1484 H1496 0.984 . S
N1484 H1497 0.985 . S
N1485 C1487 1.356 . S
N1485 H1490 0.984 . S
N1485 H1491 0.985 . S
C1486 C1480 1.379 . S
C1486 C1483 1.363 . S
C1486 N1484 1.356 . S
C1487 C1481 1.363 . S
C1487 C1482 1.379 . S
C1487 N1485 1.356 . S
N1488 C1480 1.356 . S
N1488 H1494 0.984 . S
N1488 H1495 0.984 . S
N1489 C1482 1.356 . S
N1489 H1492 0.984 . S
N1489 H1493 0.985 . S
H1490 N1485 0.984 . S
H1491 N1485 0.985 . S
H1492 N1489 0.984 . S
H1493 N1489 0.985 . S
H1494 N1488 0.984 . S
H1495 N1488 0.984 . S
H1496 N1484 0.984 . S
H1497 N1484 0.985 . S
C1498 C1499 1.363 . S
C1498 C1504 1.379 . S
C1498 N1506 1.356 . S
C1499 C1498 1.363 . S
C1499 C1505 1.363 . S
C1500 C1501 1.363 . S
C1500 C1505 1.379 . S
C1500 N1507 1.356 . S
C1501 C1500 1.363 . S
C1501 C1504 1.363 . S
N1502 C1504 1.356 . S
N1502 H1514 0.984 . S
N1502 H1515 0.985 . S
N1503 C1505 1.356 . S
N1503 H1508 0.984 . S
N1503 H1509 0.985 . S
C1504 C1498 1.379 . S
C1504 C1501 1.363 . S
C1504 N1502 1.356 . S
C1505 C1499 1.363 . S
C1505 C1500 1.379 . S
C1505 N1503 1.356 . S
N1506 C1498 1.356 . S
N1506 H1512 0.984 . S
N1506 H1513 0.984 . S
N1507 C1500 1.356 . S
N1507 H1510 0.984 . S
N1507 H1511 0.985 . S
H1508 N1503 0.984 . S
H1509 N1503 0.985 . S
H1510 N1507 0.984 . S
H1511 N1507 0.985 . S
H1512 N1506 0.984 . S
H1513 N1506 0.984 . S
H1514 N1502 0.984 . S
H1515 N1502 0.985 . S
C1516 C1517 1.363 . S
C1516 C1522 1.379 1_565 S
C1516 N1524 1.356 . S
C1517 C1516 1.363 . S
C1517 C1523 1.363 . S
C1518 C1519 1.363 1_565 S
C1518 C1523 1.379 . S
C1518 N1525 1.356 . S
C1519 C1518 1.363 1_545 S
C1519 C1522 1.363 . S
N1520 C1522 1.356 . S
N1520 H1532 0.984 . S
N1520 H1533 0.985 . S
N1521 C1523 1.356 1_556 S
N1521 H1526 0.984 . S
N1521 H1527 0.985 . S
C1522 C1516 1.379 1_545 S
C1522 C1519 1.363 . S
C1522 N1520 1.356 . S
C1523 C1517 1.363 . S
C1523 C1518 1.379 . S
C1523 N1521 1.356 1_554 S
N1524 C1516 1.356 . S
N1524 H1530 0.984 . S
N1524 H1531 0.984 . S
N1525 C1518 1.356 . S
N1525 H1528 0.984 1_565 S
N1525 H1529 0.985 . S
H1526 N1521 0.984 . S
H1527 N1521 0.985 . S
H1528 N1525 0.984 1_545 S
H1529 N1525 0.985 . S
H1530 N1524 0.984 . S
H1531 N1524 0.984 . S
H1532 N1520 0.984 . S
H1533 N1520 0.985 . S
C1534 C1535 1.363 . S
C1534 C1540 1.379 . S
C1534 N1542 1.356 . S
C1535 C1534 1.363 . S
C1535 C1541 1.363 . S
C1536 C1537 1.363 . S
C1536 C1541 1.379 . S
C1536 N1543 1.356 . S
C1537 C1536 1.363 . S
C1537 C1540 1.363 . S
N1538 C1540 1.356 . S
N1538 H1550 0.984 . S
N1538 H1551 0.985 . S
N1539 C1541 1.356 . S
N1539 H1544 0.984 . S
N1539 H1545 0.985 . S
C1540 C1534 1.379 . S
C1540 C1537 1.363 . S
C1540 N1538 1.356 . S
C1541 C1535 1.363 . S
C1541 C1536 1.379 . S
C1541 N1539 1.356 . S
N1542 C1534 1.356 . S
N1542 H1548 0.984 . S
N1542 H1549 0.984 . S
N1543 C1536 1.356 . S
N1543 H1546 0.984 . S
N1543 H1547 0.985 . S
H1544 N1539 0.984 . S
H1545 N1539 0.985 . S
H1546 N1543 0.984 . S
H1547 N1543 0.985 . S
H1548 N1542 0.984 . S
H1549 N1542 0.984 . S
H1550 N1538 0.984 . S
H1551 N1538 0.985 . S
C1552 C1553 1.363 . S
C1552 C1558 1.379 . S
C1552 N1560 1.356 . S
C1553 C1552 1.363 . S
C1553 C1559 1.363 . S
C1554 C1555 1.363 . S
C1554 C1559 1.379 . S
C1554 N1561 1.356 . S
C1555 C1554 1.363 . S
C1555 C1558 1.363 . S
N1556 C1558 1.356 1_554 S
N1556 H1568 0.984 . S
N1556 H1569 0.985 . S
N1557 C1559 1.356 . S
N1557 H1562 0.984 . S
N1557 H1563 0.985 1_545 S
C1558 C1552 1.379 . S
C1558 C1555 1.363 . S
C1558 N1556 1.356 1_556 S
C1559 C1553 1.363 . S
C1559 C1554 1.379 . S
C1559 N1557 1.356 . S
N1560 C1552 1.356 . S
N1560 H1566 0.984 . S
N1560 H1567 0.984 . S
N1561 C1554 1.356 . S
N1561 H1564 0.984 . S
N1561 H1565 0.985 1_545 S
H1562 N1557 0.984 . S
H1563 N1557 0.985 1_565 S
H1564 N1561 0.984 . S
H1565 N1561 0.985 1_565 S
H1566 N1560 0.984 . S
H1567 N1560 0.984 . S
H1568 N1556 0.984 . S
H1569 N1556 0.985 . S
C1570 C1571 1.363 . S
C1570 C1576 1.379 . S
C1570 N1578 1.356 . S
C1571 C1570 1.363 . S
C1571 C1577 1.363 . S
C1572 C1573 1.363 . S
C1572 C1577 1.379 . S
C1572 N1579 1.356 . S
C1573 C1572 1.363 . S
C1573 C1576 1.363 . S
N1574 C1576 1.356 . S
N1574 H1586 0.984 . S
N1574 H1587 0.985 . S
N1575 C1577 1.356 . S
N1575 H1580 0.984 . S
N1575 H1581 0.985 . S
C1576 C1570 1.379 . S
C1576 C1573 1.363 . S
C1576 N1574 1.356 . S
C1577 C1571 1.363 . S
C1577 C1572 1.379 . S
C1577 N1575 1.356 . S
N1578 C1570 1.356 . S
N1578 H1584 0.984 . S
N1578 H1585 0.984 . S
N1579 C1572 1.356 . S
N1579 H1582 0.984 . S
N1579 H1583 0.985 . S
H1580 N1575 0.984 . S
H1581 N1575 0.985 . S
H1582 N1579 0.984 . S
H1583 N1579 0.985 . S
H1584 N1578 0.984 . S
H1585 N1578 0.984 . S
H1586 N1574 0.984 . S
H1587 N1574 0.985 . S
C1588 C1589 1.363 . S
C1588 C1594 1.379 . S
C1588 N1596 1.356 . S
C1589 C1588 1.363 . S
C1589 C1595 1.363 . S
C1590 C1591 1.363 . S
C1590 C1595 1.379 . S
C1590 N1597 1.356 . S
C1591 C1590 1.363 . S
C1591 C1594 1.363 . S
N1592 C1594 1.356 . S
N1592 H1604 0.984 . S
N1592 H1605 0.985 . S
N1593 C1595 1.356 . S
N1593 H1598 0.984 . S
N1593 H1599 0.985 . S
C1594 C1588 1.379 . S
C1594 C1591 1.363 . S
C1594 N1592 1.356 . S
C1595 C1589 1.363 . S
C1595 C1590 1.379 . S
C1595 N1593 1.356 . S
N1596 C1588 1.356 . S
N1596 H1602 0.984 . S
N1596 H1603 0.984 . S
N1597 C1590 1.356 . S
N1597 H1600 0.984 . S
N1597 H1601 0.985 . S
H1598 N1593 0.984 . S
H1599 N1593 0.985 . S
H1600 N1597 0.984 . S
H1601 N1597 0.985 . S
H1602 N1596 0.984 . S
H1603 N1596 0.984 . S
H1604 N1592 0.984 . S
H1605 N1592 0.985 . S
C1606 C1607 1.363 . S
C1606 C1612 1.379 . S
C1606 N1614 1.356 . S
C1607 C1606 1.363 . S
C1607 C1613 1.363 . S
C1608 C1609 1.363 . S
C1608 C1613 1.379 . S
C1608 N1615 1.356 . S
C1609 C1608 1.363 . S
C1609 C1612 1.363 . S
N1610 C1612 1.356 . S
N1610 H1622 0.984 . S
N1610 H1623 0.985 . S
N1611 C1613 1.356 . S
N1611 H1616 0.984 . S
N1611 H1617 0.985 . S
C1612 C1606 1.379 . S
C1612 C1609 1.363 . S
C1612 N1610 1.356 . S
C1613 C1607 1.363 . S
C1613 C1608 1.379 . S
C1613 N1611 1.356 . S
N1614 C1606 1.356 . S
N1614 H1620 0.984 . S
N1614 H1621 0.984 . S
N1615 C1608 1.356 . S
N1615 H1618 0.984 . S
N1615 H1619 0.985 . S
H1616 N1611 0.984 . S
H1617 N1611 0.985 . S
H1618 N1615 0.984 . S
H1619 N1615 0.985 . S
H1620 N1614 0.984 . S
H1621 N1614 0.984 . S
H1622 N1610 0.984 . S
H1623 N1610 0.985 . S
C1624 C1625 1.363 . S
C1624 C1630 1.379 . S
C1624 N1632 1.356 . S
C1625 C1624 1.363 . S
C1625 C1631 1.363 . S
C1626 C1627 1.363 . S
C1626 C1631 1.379 . S
C1626 N1633 1.356 . S
C1627 C1626 1.363 . S
C1627 C1630 1.363 . S
N1628 C1630 1.356 . S
N1628 H1640 0.984 . S
N1628 H1641 0.985 . S
N1629 C1631 1.356 . S
N1629 H1634 0.984 . S
N1629 H1635 0.985 1_545 S
C1630 C1624 1.379 . S
C1630 C1627 1.363 . S
C1630 N1628 1.356 . S
C1631 C1625 1.363 . S
C1631 C1626 1.379 . S
C1631 N1629 1.356 . S
N1632 C1624 1.356 . S
N1632 H1638 0.984 . S
N1632 H1639 0.984 . S
N1633 C1626 1.356 . S
N1633 H1636 0.984 . S
N1633 H1637 0.985 1_545 S
H1634 N1629 0.984 . S
H1635 N1629 0.985 1_565 S
H1636 N1633 0.984 . S
H1637 N1633 0.985 1_565 S
H1638 N1632 0.984 . S
H1639 N1632 0.984 . S
H1640 N1628 0.984 . S
H1641 N1628 0.985 . S
C1642 C1643 1.363 . S
C1642 C1648 1.379 . S
C1642 N1650 1.356 . S
C1643 C1642 1.363 . S
C1643 C1649 1.363 . S
C1644 C1645 1.363 . S
C1644 C1649 1.379 . S
C1644 N1651 1.356 . S
C1645 C1644 1.363 . S
C1645 C1648 1.363 . S
N1646 C1648 1.356 . S
N1646 H1658 0.984 . S
N1646 H1659 0.985 . S
N1647 C1649 1.356 . S
N1647 H1652 0.984 . S
N1647 H1653 0.985 . S
C1648 C1642 1.379 . S
C1648 C1645 1.363 . S
C1648 N1646 1.356 . S
C1649 C1643 1.363 . S
C1649 C1644 1.379 . S
C1649 N1647 1.356 . S
N1650 C1642 1.356 . S
N1650 H1656 0.984 . S
N1650 H1657 0.984 . S
N1651 C1644 1.356 . S
N1651 H1654 0.984 . S
N1651 H1655 0.985 . S
H1652 N1647 0.984 . S
H1653 N1647 0.985 . S
H1654 N1651 0.984 . S
H1655 N1651 0.985 . S
H1656 N1650 0.984 . S
H1657 N1650 0.984 . S
H1658 N1646 0.984 . S
H1659 N1646 0.985 . S
C1660 C1661 1.363 . S
C1660 C1666 1.379 . S
C1660 N1668 1.356 . S
C1661 C1660 1.363 . S
C1661 C1667 1.363 . S
C1662 C1663 1.363 . S
C1662 C1667 1.379 . S
C1662 N1669 1.356 . S
C1663 C1662 1.363 . S
C1663 C1666 1.363 . S
N1664 C1666 1.356 . S
N1664 H1676 0.984 . S
N1664 H1677 0.985 . S
N1665 C1667 1.356 . S
N1665 H1670 0.984 . S
N1665 H1671 0.985 . S
C1666 C1660 1.379 . S
C1666 C1663 1.363 . S
C1666 N1664 1.356 . S
C1667 C1661 1.363 . S
C1667 C1662 1.379 . S
C1667 N1665 1.356 . S
N1668 C1660 1.356 . S
N1668 H1674 0.984 . S
N1668 H1675 0.984 . S
N1669 C1662 1.356 . S
N1669 H1672 0.984 . S
N1669 H1673 0.985 . S
H1670 N1665 0.984 . S
H1671 N1665 0.985 . S
H1672 N1669 0.984 . S
H1673 N1669 0.985 . S
H1674 N1668 0.984 . S
H1675 N1668 0.984 . S
H1676 N1664 0.984 . S
H1677 N1664 0.985 . S
C1678 C1679 1.363 . S
C1678 C1684 1.379 . S
C1678 N1686 1.356 . S
C1679 C1678 1.363 . S
C1679 C1685 1.363 . S
C1680 C1681 1.363 . S
C1680 C1685 1.379 . S
C1680 N1687 1.356 . S
C1681 C1680 1.363 . S
C1681 C1684 1.363 . S
N1682 C1684 1.356 . S
N1682 H1694 0.984 . S
N1682 H1695 0.985 . S
N1683 C1685 1.356 . S
N1683 H1688 0.984 . S
N1683 H1689 0.985 . S
C1684 C1678 1.379 . S
C1684 C1681 1.363 . S
C1684 N1682 1.356 . S
C1685 C1679 1.363 . S
C1685 C1680 1.379 . S
C1685 N1683 1.356 . S
N1686 C1678 1.356 . S
N1686 H1692 0.984 . S
N1686 H1693 0.984 . S
N1687 C1680 1.356 . S
N1687 H1690 0.984 . S
N1687 H1691 0.985 . S
H1688 N1683 0.984 . S
H1689 N1683 0.985 . S
H1690 N1687 0.984 . S
H1691 N1687 0.985 . S
H1692 N1686 0.984 . S
H1693 N1686 0.984 . S
H1694 N1682 0.984 . S
H1695 N1682 0.985 . S
C1696 C1697 1.363 . S
C1696 C1702 1.379 . S
C1696 N1704 1.356 . S
C1697 C1696 1.363 . S
C1697 C1703 1.363 . S
C1698 C1699 1.363 . S
C1698 C1703 1.379 . S
C1698 N1705 1.356 . S
C1699 C1698 1.363 . S
C1699 C1702 1.363 . S
N1700 C1702 1.356 1_455 S
N1700 H1712 0.984 . S
N1700 H1713 0.985 . S
N1701 C1703 1.356 . S
N1701 H1706 0.984 . S
N1701 H1707 0.985 1_554 S
C1702 C1696 1.379 . S
C1702 C1699 1.363 . S
C1702 N1700 1.356 1_655 S
C1703 C1697 1.363 . S
C1703 C1698 1.379 . S
C1703 N1701 1.356 . S
N1704 C1696 1.356 . S
N1704 H1710 0.984 . S
N1704 H1711 0.984 . S
N1705 C1698 1.356 . S
N1705 H1708 0.984 . S
N1705 H1709 0.985 1_554 S
H1706 N1701 0.984 . S
H1707 N1701 0.985 1_556 S
H1708 N1705 0.984 . S
H1709 N1705 0.985 1_556 S
H1710 N1704 0.984 . S
H1711 N1704 0.984 . S
H1712 N1700 0.984 . S
H1713 N1700 0.985 . S
C1714 C1715 1.363 . S
C1714 C1720 1.379 . S
C1714 N1722 1.356 . S
C1715 C1714 1.363 . S
C1715 C1721 1.363 . S
C1716 C1717 1.363 . S
C1716 C1721 1.379 . S
C1716 N1723 1.356 . S
C1717 C1716 1.363 . S
C1717 C1720 1.363 . S
N1718 C1720 1.356 . S
N1718 H1730 0.984 . S
N1718 H1731 0.985 . S
N1719 C1721 1.356 . S
N1719 H1724 0.984 . S
N1719 H1725 0.985 . S
C1720 C1714 1.379 . S
C1720 C1717 1.363 . S
C1720 N1718 1.356 . S
C1721 C1715 1.363 . S
C1721 C1716 1.379 . S
C1721 N1719 1.356 . S
N1722 C1714 1.356 . S
N1722 H1728 0.984 . S
N1722 H1729 0.984 . S
N1723 C1716 1.356 . S
N1723 H1726 0.984 . S
N1723 H1727 0.985 . S
H1724 N1719 0.984 . S
H1725 N1719 0.985 . S
H1726 N1723 0.984 . S
H1727 N1723 0.985 . S
H1728 N1722 0.984 . S
H1729 N1722 0.984 . S
H1730 N1718 0.984 . S
H1731 N1718 0.985 . S
C1732 C1733 1.363 . S
C1732 C1738 1.379 . S
C1732 N1740 1.356 . S
C1733 C1732 1.363 . S
C1733 C1739 1.363 . S
C1734 C1735 1.363 . S
C1734 C1739 1.379 . S
C1734 N1741 1.356 . S
C1735 C1734 1.363 . S
C1735 C1738 1.363 . S
N1736 C1738 1.356 . S
N1736 H1748 0.984 . S
N1736 H1749 0.985 . S
N1737 C1739 1.356 . S
N1737 H1742 0.984 . S
N1737 H1743 0.985 . S
C1738 C1732 1.379 . S
C1738 C1735 1.363 . S
C1738 N1736 1.356 . S
C1739 C1733 1.363 . S
C1739 C1734 1.379 . S
C1739 N1737 1.356 . S
N1740 C1732 1.356 . S
N1740 H1746 0.984 . S
N1740 H1747 0.984 . S
N1741 C1734 1.356 . S
N1741 H1744 0.984 . S
N1741 H1745 0.985 . S
H1742 N1737 0.984 . S
H1743 N1737 0.985 . S
H1744 N1741 0.984 . S
H1745 N1741 0.985 . S
H1746 N1740 0.984 . S
H1747 N1740 0.984 . S
H1748 N1736 0.984 . S
H1749 N1736 0.985 . S
C1750 C1751 1.363 . S
C1750 C1756 1.379 . S
C1750 N1758 1.356 . S
C1751 C1750 1.363 . S
C1751 C1757 1.363 . S
C1752 C1753 1.363 . S
C1752 C1757 1.379 . S
C1752 N1759 1.356 . S
C1753 C1752 1.363 . S
C1753 C1756 1.363 . S
N1754 C1756 1.356 . S
N1754 H1766 0.984 . S
N1754 H1767 0.985 . S
N1755 C1757 1.356 . S
N1755 H1760 0.984 . S
N1755 H1761 0.985 . S
C1756 C1750 1.379 . S
C1756 C1753 1.363 . S
C1756 N1754 1.356 . S
C1757 C1751 1.363 . S
C1757 C1752 1.379 . S
C1757 N1755 1.356 . S
N1758 C1750 1.356 . S
N1758 H1764 0.984 . S
N1758 H1765 0.984 . S
N1759 C1752 1.356 . S
N1759 H1762 0.984 . S
N1759 H1763 0.985 . S
H1760 N1755 0.984 . S
H1761 N1755 0.985 . S
H1762 N1759 0.984 . S
H1763 N1759 0.985 . S
H1764 N1758 0.984 . S
H1765 N1758 0.984 . S
H1766 N1754 0.984 . S
H1767 N1754 0.985 . S
C1768 C1769 1.363 . S
C1768 C1774 1.379 . S
C1768 N1776 1.356 . S
C1769 C1768 1.363 . S
C1769 C1775 1.363 . S
C1770 C1771 1.363 . S
C1770 C1775 1.379 . S
C1770 N1777 1.356 . S
C1771 C1770 1.363 . S
C1771 C1774 1.363 . S
N1772 C1774 1.356 . S
N1772 H1784 0.984 . S
N1772 H1785 0.985 . S
N1773 C1775 1.356 . S
N1773 H1778 0.984 . S
N1773 H1779 0.985 . S
C1774 C1768 1.379 . S
C1774 C1771 1.363 . S
C1774 N1772 1.356 . S
C1775 C1769 1.363 . S
C1775 C1770 1.379 . S
C1775 N1773 1.356 . S
N1776 C1768 1.356 . S
N1776 H1782 0.984 . S
N1776 H1783 0.984 . S
N1777 C1770 1.356 . S
N1777 H1780 0.984 . S
N1777 H1781 0.985 . S
H1778 N1773 0.984 . S
H1779 N1773 0.985 . S
H1780 N1777 0.984 . S
H1781 N1777 0.985 . S
H1782 N1776 0.984 . S
H1783 N1776 0.984 . S
H1784 N1772 0.984 . S
H1785 N1772 0.985 . S
C1786 C1787 1.363 . S
C1786 C1792 1.379 . S
C1786 N1794 1.356 1_545 S
C1787 C1786 1.363 . S
C1787 C1793 1.363 . S
C1788 C1789 1.363 . S
C1788 C1793 1.379 . S
C1788 N1795 1.356 . S
C1789 C1788 1.363 . S
C1789 C1792 1.363 . S
N1790 C1792 1.356 1_565 S
N1790 H1802 0.984 . S
N1790 H1803 0.977 1_565 S
N1791 C1793 1.356 . S
N1791 H1796 0.984 . S
N1791 H1797 0.985 . S
C1792 C1786 1.379 . S
C1792 C1789 1.363 . S
C1792 N1790 1.356 1_545 S
C1793 C1787 1.363 . S
C1793 C1788 1.379 . S
C1793 N1791 1.356 . S
N1794 C1786 1.356 1_565 S
N1794 H1800 0.984 . S
N1794 H1801 0.987 1_565 S
N1795 C1788 1.356 . S
N1795 H1798 0.984 . S
N1795 H1799 0.985 . S
H1796 N1791 0.984 . S
H1797 N1791 0.985 . S
H1798 N1795 0.984 . S
H1799 N1795 0.985 . S
H1800 N1794 0.984 . S
H1801 N1794 0.987 1_545 S
H1802 N1790 0.984 . S
H1803 N1790 0.977 1_545 S
C1804 C1805 1.363 . S
C1804 C1810 1.379 . S
C1804 N1812 1.356 . S
C1805 C1804 1.363 . S
C1805 C1811 1.363 . S
C1806 C1807 1.363 . S
C1806 C1811 1.379 . S
C1806 N1813 1.356 . S
C1807 C1806 1.363 . S
C1807 C1810 1.363 . S
N1808 C1810 1.356 . S
N1808 H1820 0.984 . S
N1808 H1821 0.985 . S
N1809 C1811 1.356 . S
N1809 H1814 0.984 . S
N1809 H1815 0.985 . S
C1810 C1804 1.379 . S
C1810 C1807 1.363 . S
C1810 N1808 1.356 . S
C1811 C1805 1.363 . S
C1811 C1806 1.379 . S
C1811 N1809 1.356 . S
N1812 C1804 1.356 . S
N1812 H1818 0.984 . S
N1812 H1819 0.984 . S
N1813 C1806 1.356 . S
N1813 H1816 0.984 . S
N1813 H1817 0.985 . S
H1814 N1809 0.984 . S
H1815 N1809 0.985 . S
H1816 N1813 0.984 . S
H1817 N1813 0.985 . S
H1818 N1812 0.984 . S
H1819 N1812 0.984 . S
H1820 N1808 0.984 . S
H1821 N1808 0.985 . S
C1822 C1823 1.363 . S
C1822 C1828 1.379 . S
C1822 N1830 1.356 . S
C1823 C1822 1.363 . S
C1823 C1829 1.363 . S
C1824 C1825 1.363 . S
C1824 C1829 1.379 . S
C1824 N1831 1.356 . S
C1825 C1824 1.363 . S
C1825 C1828 1.363 . S
N1826 C1828 1.356 . S
N1826 H1838 0.984 . S
N1826 H1839 0.985 . S
N1827 C1829 1.356 . S
N1827 H1832 0.984 . S
N1827 H1833 0.985 . S
C1828 C1822 1.379 . S
C1828 C1825 1.363 . S
C1828 N1826 1.356 . S
C1829 C1823 1.363 . S
C1829 C1824 1.379 . S
C1829 N1827 1.356 . S
N1830 C1822 1.356 . S
N1830 H1836 0.984 . S
N1830 H1837 0.984 . S
N1831 C1824 1.356 . S
N1831 H1834 0.984 . S
N1831 H1835 0.985 . S
H1832 N1827 0.984 . S
H1833 N1827 0.985 . S
H1834 N1831 0.984 . S
H1835 N1831 0.985 . S
H1836 N1830 0.984 . S
H1837 N1830 0.984 . S
H1838 N1826 0.984 . S
H1839 N1826 0.985 . S
C1840 C1841 1.363 . S
C1840 C1846 1.379 . S
C1840 N1848 1.356 . S
C1841 C1840 1.363 . S
C1841 C1847 1.363 . S
C1842 C1843 1.363 . S
C1842 C1847 1.379 . S
C1842 N1849 1.356 . S
C1843 C1842 1.363 . S
C1843 C1846 1.363 . S
N1844 C1846 1.356 . S
N1844 H1856 0.984 . S
N1844 H1857 0.985 . S
N1845 C1847 1.356 . S
N1845 H1850 0.984 . S
N1845 H1851 0.985 . S
C1846 C1840 1.379 . S
C1846 C1843 1.363 . S
C1846 N1844 1.356 . S
C1847 C1841 1.363 . S
C1847 C1842 1.379 . S
C1847 N1845 1.356 . S
N1848 C1840 1.356 . S
N1848 H1854 0.984 . S
N1848 H1855 0.984 . S
N1849 C1842 1.356 . S
N1849 H1852 0.984 . S
N1849 H1853 0.985 . S
H1850 N1845 0.984 . S
H1851 N1845 0.985 . S
H1852 N1849 0.984 . S
H1853 N1849 0.985 . S
H1854 N1848 0.984 . S
H1855 N1848 0.984 . S
H1856 N1844 0.984 . S
H1857 N1844 0.985 . S
C1858 C1859 1.363 . S
C1858 C1864 1.379 . S
C1858 N1866 1.356 . S
C1859 C1858 1.363 . S
C1859 C1865 1.363 . S
C1860 C1861 1.363 . S
C1860 C1865 1.379 . S
C1860 N1867 1.356 . S
C1861 C1860 1.363 . S
C1861 C1864 1.363 . S
N1862 C1864 1.356 . S
N1862 H1874 0.984 . S
N1862 H1875 0.985 . S
N1863 C1865 1.356 . S
N1863 H1868 0.984 . S
N1863 H1869 0.985 . S
C1864 C1858 1.379 . S
C1864 C1861 1.363 . S
C1864 N1862 1.356 . S
C1865 C1859 1.363 . S
C1865 C1860 1.379 . S
C1865 N1863 1.356 . S
N1866 C1858 1.356 . S
N1866 H1872 0.984 . S
N1866 H1873 0.984 . S
N1867 C1860 1.356 . S
N1867 H1870 0.984 . S
N1867 H1871 0.985 . S
H1868 N1863 0.984 . S
H1869 N1863 0.985 . S
H1870 N1867 0.984 . S
H1871 N1867 0.985 . S
H1872 N1866 0.984 . S
H1873 N1866 0.984 . S
H1874 N1862 0.984 . S
H1875 N1862 0.985 . S
C1876 C1877 1.363 . S
C1876 C1882 1.379 1_556 S
C1876 N1884 1.356 . S
C1877 C1876 1.363 . S
C1877 C1883 1.363 . S
C1878 C1879 1.363 . S
C1878 C1883 1.379 1_554 S
C1878 N1885 1.356 . S
C1879 C1878 1.363 . S
C1879 C1882 1.363 . S
N1880 C1882 1.356 . S
N1880 H1892 0.984 . S
N1880 H1893 0.985 . S
N1881 C1883 1.356 . S
N1881 H1886 0.984 . S
N1881 H1887 0.985 . S
C1882 C1876 1.379 1_554 S
C1882 C1879 1.363 . S
C1882 N1880 1.356 . S
C1883 C1877 1.363 . S
C1883 C1878 1.379 1_556 S
C1883 N1881 1.356 . S
N1884 C1876 1.356 . S
N1884 H1890 0.984 . S
N1884 H1891 0.984 . S
N1885 C1878 1.356 . S
N1885 H1888 0.984 . S
N1885 H1889 0.985 . S
H1886 N1881 0.984 . S
H1887 N1881 0.985 . S
H1888 N1885 0.984 . S
H1889 N1885 0.985 . S
H1890 N1884 0.984 . S
H1891 N1884 0.984 . S
H1892 N1880 0.984 . S
H1893 N1880 0.985 . S
C1894 C1895 1.363 . S
C1894 C1900 1.379 . S
C1894 N1902 1.356 . S
C1895 C1894 1.363 . S
C1895 C1901 1.363 . S
C1896 C1897 1.363 . S
C1896 C1901 1.379 . S
C1896 N1903 1.356 . S
C1897 C1896 1.363 . S
C1897 C1900 1.363 . S
N1898 C1900 1.356 . S
N1898 H1910 0.984 . S
N1898 H1911 0.985 . S
N1899 C1901 1.356 . S
N1899 H1904 0.984 . S
N1899 H1905 0.985 . S
C1900 C1894 1.379 . S
C1900 C1897 1.363 . S
C1900 N1898 1.356 . S
C1901 C1895 1.363 . S
C1901 C1896 1.379 . S
C1901 N1899 1.356 . S
N1902 C1894 1.356 . S
N1902 H1908 0.984 . S
N1902 H1909 0.984 . S
N1903 C1896 1.356 . S
N1903 H1906 0.984 . S
N1903 H1907 0.985 . S
H1904 N1899 0.984 . S
H1905 N1899 0.985 . S
H1906 N1903 0.984 . S
H1907 N1903 0.985 . S
H1908 N1902 0.984 . S
H1909 N1902 0.984 . S
H1910 N1898 0.984 . S
H1911 N1898 0.985 . S
C1912 C1913 1.363 . S
C1912 C1918 1.379 . S
C1912 N1920 1.356 . S
C1913 C1912 1.363 . S
C1913 C1919 1.363 . S
C1914 C1915 1.363 . S
C1914 C1919 1.379 . S
C1914 N1921 1.356 . S
C1915 C1914 1.363 . S
C1915 C1918 1.363 . S
N1916 C1918 1.356 . S
N1916 H1928 0.984 . S
N1916 H1929 0.985 . S
N1917 C1919 1.356 . S
N1917 H1922 0.984 . S
N1917 H1923 0.985 . S
C1918 C1912 1.379 . S
C1918 C1915 1.363 . S
C1918 N1916 1.356 . S
C1919 C1913 1.363 . S
C1919 C1914 1.379 . S
C1919 N1917 1.356 . S
N1920 C1912 1.356 . S
N1920 H1926 0.984 . S
N1920 H1927 0.984 . S
N1921 C1914 1.356 . S
N1921 H1924 0.984 . S
N1921 H1925 0.985 . S
H1922 N1917 0.984 . S
H1923 N1917 0.985 . S
H1924 N1921 0.984 . S
H1925 N1921 0.985 . S
H1926 N1920 0.984 . S
H1927 N1920 0.984 . S
H1928 N1916 0.984 . S
H1929 N1916 0.985 . S
C1930 C1931 1.363 1_655 S
C1930 C1936 1.379 . S
C1930 N1938 1.356 . S
C1931 C1930 1.363 1_455 S
C1931 C1937 1.363 . S
C1932 C1933 1.363 1_455 S
C1932 C1937 1.379 . S
C1932 N1939 1.356 . S
C1933 C1932 1.363 1_655 S
C1933 C1936 1.363 . S
N1934 C1936 1.356 . S
N1934 H1946 0.984 . S
N1934 H1947 0.985 . S
N1935 C1937 1.356 . S
N1935 H1940 0.984 . S
N1935 H1941 0.985 . S
C1936 C1930 1.379 . S
C1936 C1933 1.363 . S
C1936 N1934 1.356 . S
C1937 C1931 1.363 . S
C1937 C1932 1.379 . S
C1937 N1935 1.356 . S
N1938 C1930 1.356 . S
N1938 H1944 0.984 . S
N1938 H1945 0.984 1_655 S
N1939 C1932 1.356 . S
N1939 H1942 0.984 . S
N1939 H1943 0.985 . S
H1940 N1935 0.984 . S
H1941 N1935 0.985 . S
H1942 N1939 0.984 . S
H1943 N1939 0.985 . S
H1944 N1938 0.984 . S
H1945 N1938 0.984 1_455 S
H1946 N1934 0.984 . S
H1947 N1934 0.985 . S
C1948 C1949 1.363 1_455 S
C1948 C1954 1.379 . S
C1948 N1956 1.356 1_455 S
C1949 C1948 1.363 1_655 S
C1949 C1955 1.363 . S
C1950 C1951 1.363 . S
C1950 C1955 1.379 1_455 S
C1950 N1957 1.356 . S
C1951 C1950 1.363 . S
C1951 C1954 1.363 . S
N1952 C1954 1.356 . S
N1952 H1964 0.984 . S
N1952 H1965 0.985 . S
N1953 C1955 1.356 . S
N1953 H1958 0.984 . S
N1953 H1959 0.985 . S
C1954 C1948 1.379 . S
C1954 C1951 1.363 . S
C1954 N1952 1.356 . S
C1955 C1949 1.363 . S
C1955 C1950 1.379 1_655 S
C1955 N1953 1.356 . S
N1956 C1948 1.356 1_655 S
N1956 H1962 0.984 . S
N1956 H1963 0.984 . S
N1957 C1950 1.356 . S
N1957 H1960 0.984 . S
N1957 H1961 0.985 . S
H1958 N1953 0.984 . S
H1959 N1953 0.985 . S
H1960 N1957 0.984 . S
H1961 N1957 0.985 . S
H1962 N1956 0.984 . S
H1963 N1956 0.984 . S
H1964 N1952 0.984 . S
H1965 N1952 0.985 . S
C1966 C1967 1.363 . S
C1966 C1972 1.379 . S
C1966 N1974 1.356 . S
C1967 C1966 1.363 . S
C1967 C1973 1.363 . S
C1968 C1969 1.363 . S
C1968 C1973 1.379 . S
C1968 N1975 1.356 . S
C1969 C1968 1.363 . S
C1969 C1972 1.363 . S
N1970 C1972 1.356 . S
N1970 H1982 0.984 . S
N1970 H1983 0.985 . S
N1971 C1973 1.356 . S
N1971 H1976 0.984 . S
N1971 H1977 0.985 . S
C1972 C1966 1.379 . S
C1972 C1969 1.363 . S
C1972 N1970 1.356 . S
C1973 C1967 1.363 . S
C1973 C1968 1.379 . S
C1973 N1971 1.356 . S
N1974 C1966 1.356 . S
N1974 H1980 0.984 . S
N1974 H1981 0.984 . S
N1975 C1968 1.356 . S
N1975 H1978 0.984 . S
N1975 H1979 0.985 . S
H1976 N1971 0.984 . S
H1977 N1971 0.985 . S
H1978 N1975 0.984 . S
H1979 N1975 0.985 . S
H1980 N1974 0.984 . S
H1981 N1974 0.984 . S
H1982 N1970 0.984 . S
H1983 N1970 0.985 . S
C1984 C1985 1.363 . S
C1984 C1990 1.379 . S
C1984 N1992 1.356 . S
C1985 C1984 1.363 . S
C1985 C1991 1.363 . S
C1986 C1987 1.363 . S
C1986 C1991 1.379 . S
C1986 N1993 1.356 . S
C1987 C1986 1.363 . S
C1987 C1990 1.363 . S
N1988 C1990 1.356 . S
N1988 H2000 0.984 . S
N1988 H2001 0.985 . S
N1989 C1991 1.356 . S
N1989 H1994 0.984 . S
N1989 H1995 0.985 . S
C1990 C1984 1.379 . S
C1990 C1987 1.363 . S
C1990 N1988 1.356 . S
C1991 C1985 1.363 . S
C1991 C1986 1.379 . S
C1991 N1989 1.356 . S
N1992 C1984 1.356 . S
N1992 H1998 0.984 . S
N1992 H1999 0.984 . S
N1993 C1986 1.356 . S
N1993 H1996 0.984 . S
N1993 H1997 0.985 . S
H1994 N1989 0.984 . S
H1995 N1989 0.985 . S
H1996 N1993 0.984 . S
H1997 N1993 0.985 . S
H1998 N1992 0.984 . S
H1999 N1992 0.984 . S
H2000 N1988 0.984 . S
H2001 N1988 0.985 . S
C2002 C2003 1.363 . S
C2002 C2008 1.379 . S
C2002 N2010 1.356 . S
C2003 C2002 1.363 . S
C2003 C2009 1.363 . S
C2004 C2005 1.363 . S
C2004 C2009 1.379 . S
C2004 N2011 1.356 . S
C2005 C2004 1.363 . S
C2005 C2008 1.363 . S
N2006 C2008 1.356 . S
N2006 H2018 0.984 . S
N2006 H2019 0.985 . S
N2007 C2009 1.356 1_554 S
N2007 H2012 0.984 . S
N2007 H2013 0.985 . S
C2008 C2002 1.379 . S
C2008 C2005 1.363 . S
C2008 N2006 1.356 . S
C2009 C2003 1.363 . S
C2009 C2004 1.379 . S
C2009 N2007 1.356 1_556 S
N2010 C2002 1.356 . S
N2010 H2016 0.984 . S
N2010 H2017 0.984 . S
N2011 C2004 1.356 . S
N2011 H2014 0.984 . S
N2011 H2015 0.985 . S
H2012 N2007 0.984 . S
H2013 N2007 0.985 . S
H2014 N2011 0.984 . S
H2015 N2011 0.985 . S
H2016 N2010 0.984 . S
H2017 N2010 0.984 . S
H2018 N2006 0.984 . S
H2019 N2006 0.985 . S
C2020 C2021 1.363 . S
C2020 C2026 1.379 . S
C2020 N2028 1.356 . S
C2021 C2020 1.363 . S
C2021 C2027 1.363 . S
C2022 C2023 1.363 . S
C2022 C2027 1.379 . S
C2022 N2029 1.356 . S
C2023 C2022 1.363 . S
C2023 C2026 1.363 . S
N2024 C2026 1.356 . S
N2024 H2036 0.984 . S
N2024 H2037 0.985 . S
N2025 C2027 1.356 . S
N2025 H2030 0.984 . S
N2025 H2031 0.985 . S
C2026 C2020 1.379 . S
C2026 C2023 1.363 . S
C2026 N2024 1.356 . S
C2027 C2021 1.363 . S
C2027 C2022 1.379 . S
C2027 N2025 1.356 . S
N2028 C2020 1.356 . S
N2028 H2034 0.984 . S
N2028 H2035 0.984 . S
N2029 C2022 1.356 . S
N2029 H2032 0.984 . S
N2029 H2033 0.985 . S
H2030 N2025 0.984 . S
H2031 N2025 0.985 . S
H2032 N2029 0.984 . S
H2033 N2029 0.985 . S
H2034 N2028 0.984 . S
H2035 N2028 0.984 . S
H2036 N2024 0.984 . S
H2037 N2024 0.985 . S
C2038 C2039 1.363 . S
C2038 C2044 1.379 . S
C2038 N2046 1.356 . S
C2039 C2038 1.363 . S
C2039 C2045 1.363 . S
C2040 C2041 1.363 . S
C2040 C2045 1.379 . S
C2040 N2047 1.356 . S
C2041 C2040 1.363 . S
C2041 C2044 1.363 . S
N2042 C2044 1.356 . S
N2042 H2054 0.984 . S
N2042 H2055 0.985 . S
N2043 C2045 1.356 . S
N2043 H2048 0.984 . S
N2043 H2049 0.985 . S
C2044 C2038 1.379 . S
C2044 C2041 1.363 . S
C2044 N2042 1.356 . S
C2045 C2039 1.363 . S
C2045 C2040 1.379 . S
C2045 N2043 1.356 . S
N2046 C2038 1.356 . S
N2046 H2052 0.984 . S
N2046 H2053 0.984 1_565 S
N2047 C2040 1.356 . S
N2047 H2050 0.984 . S
N2047 H2051 0.985 . S
H2048 N2043 0.984 . S
H2049 N2043 0.985 . S
H2050 N2047 0.984 . S
H2051 N2047 0.985 . S
H2052 N2046 0.984 . S
H2053 N2046 0.984 1_545 S
H2054 N2042 0.984 . S
H2055 N2042 0.985 . S
C2056 C2057 1.363 . S
C2056 C2062 1.379 . S
C2056 N2064 1.356 . S
C2057 C2056 1.363 . S
C2057 C2063 1.363 . S
C2058 C2059 1.363 . S
C2058 C2063 1.379 . S
C2058 N2065 1.356 . S
C2059 C2058 1.363 . S
C2059 C2062 1.363 . S
N2060 C2062 1.356 . S
N2060 H2072 0.984 . S
N2060 H2073 0.985 1_556 S
N2061 C2063 1.356 . S
N2061 H2066 0.984 . S
N2061 H2067 0.985 . S
C2062 C2056 1.379 . S
C2062 C2059 1.363 . S
C2062 N2060 1.356 . S
C2063 C2057 1.363 . S
C2063 C2058 1.379 . S
C2063 N2061 1.356 . S
N2064 C2056 1.356 . S
N2064 H2070 0.984 . S
N2064 H2071 0.984 . S
N2065 C2058 1.356 . S
N2065 H2068 0.984 . S
N2065 H2069 0.985 . S
H2066 N2061 0.984 . S
H2067 N2061 0.985 . S
H2068 N2065 0.984 . S
H2069 N2065 0.985 . S
H2070 N2064 0.984 . S
H2071 N2064 0.984 . S
H2072 N2060 0.984 . S
H2073 N2060 0.985 1_554 S
C2074 C2075 1.363 . S
C2074 C2080 1.379 . S
C2074 N2082 1.356 . S
C2075 C2074 1.363 . S
C2075 C2081 1.363 . S
C2076 C2077 1.363 . S
C2076 C2081 1.379 . S
C2076 N2083 1.356 . S
C2077 C2076 1.363 . S
C2077 C2080 1.363 . S
N2078 C2080 1.356 . S
N2078 H2090 0.984 . S
N2078 H2091 0.985 . S
N2079 C2081 1.356 . S
N2079 H2084 0.984 . S
N2079 H2085 0.985 . S
C2080 C2074 1.379 . S
C2080 C2077 1.363 . S
C2080 N2078 1.356 . S
C2081 C2075 1.363 . S
C2081 C2076 1.379 . S
C2081 N2079 1.356 . S
N2082 C2074 1.356 . S
N2082 H2088 0.984 . S
N2082 H2089 0.984 . S
N2083 C2076 1.356 . S
N2083 H2086 0.984 . S
N2083 H2087 0.985 . S
H2084 N2079 0.984 . S
H2085 N2079 0.985 . S
H2086 N2083 0.984 . S
H2087 N2083 0.985 . S
H2088 N2082 0.984 . S
H2089 N2082 0.984 . S
H2090 N2078 0.984 . S
H2091 N2078 0.985 . S
C2092 C2093 1.363 . S
C2092 C2098 1.379 . S
C2092 N2100 1.356 . S
C2093 C2092 1.363 . S
C2093 C2099 1.363 . S
C2094 C2095 1.363 . S
C2094 C2099 1.379 . S
C2094 N2101 1.356 . S
C2095 C2094 1.363 . S
C2095 C2098 1.363 . S
N2096 C2098 1.356 . S
N2096 H2108 0.984 . S
N2096 H2109 0.985 . S
N2097 C2099 1.356 . S
N2097 H2102 0.984 . S
N2097 H2103 0.985 . S
C2098 C2092 1.379 . S
C2098 C2095 1.363 . S
C2098 N2096 1.356 . S
C2099 C2093 1.363 . S
C2099 C2094 1.379 . S
C2099 N2097 1.356 . S
N2100 C2092 1.356 . S
N2100 H2106 0.984 . S
N2100 H2107 0.984 . S
N2101 C2094 1.356 . S
N2101 H2104 0.984 . S
N2101 H2105 0.985 . S
H2102 N2097 0.984 . S
H2103 N2097 0.985 . S
H2104 N2101 0.984 . S
H2105 N2101 0.985 . S
H2106 N2100 0.984 . S
H2107 N2100 0.984 . S
H2108 N2096 0.984 . S
H2109 N2096 0.985 . S
C2110 C2111 1.363 . S
C2110 C2116 1.379 . S
C2110 N2118 1.356 . S
C2111 C2110 1.363 . S
C2111 C2117 1.363 . S
C2112 C2113 1.363 . S
C2112 C2117 1.379 . S
C2112 N2119 1.356 . S
C2113 C2112 1.363 . S
C2113 C2116 1.363 . S
N2114 C2116 1.356 . S
N2114 H2126 0.984 . S
N2114 H2127 0.985 . S
N2115 C2117 1.356 . S
N2115 H2120 0.984 . S
N2115 H2121 0.985 . S
C2116 C2110 1.379 . S
C2116 C2113 1.363 . S
C2116 N2114 1.356 . S
C2117 C2111 1.363 . S
C2117 C2112 1.379 . S
C2117 N2115 1.356 . S
N2118 C2110 1.356 . S
N2118 H2124 0.984 . S
N2118 H2125 0.984 . S
N2119 C2112 1.356 . S
N2119 H2122 0.984 . S
N2119 H2123 0.985 . S
H2120 N2115 0.984 . S
H2121 N2115 0.985 . S
H2122 N2119 0.984 . S
H2123 N2119 0.985 . S
H2124 N2118 0.984 . S
H2125 N2118 0.984 . S
H2126 N2114 0.984 . S
H2127 N2114 0.985 . S
C2128 C2129 1.363 . S
C2128 C2134 1.379 . S
C2128 N2136 1.356 . S
C2129 C2128 1.363 . S
C2129 C2135 1.363 . S
C2130 C2131 1.363 . S
C2130 C2135 1.379 . S
C2130 N2137 1.356 . S
C2131 C2130 1.363 . S
C2131 C2134 1.363 . S
N2132 C2134 1.356 . S
N2132 H2144 0.984 . S
N2132 H2145 0.985 . S
N2133 C2135 1.356 . S
N2133 H2138 0.984 . S
N2133 H2139 0.985 . S
C2134 C2128 1.379 . S
C2134 C2131 1.363 . S
C2134 N2132 1.356 . S
C2135 C2129 1.363 . S
C2135 C2130 1.379 . S
C2135 N2133 1.356 . S
N2136 C2128 1.356 . S
N2136 H2142 0.984 . S
N2136 H2143 0.984 . S
N2137 C2130 1.356 . S
N2137 H2140 0.984 . S
N2137 H2141 0.985 . S
H2138 N2133 0.984 . S
H2139 N2133 0.985 . S
H2140 N2137 0.984 . S
H2141 N2137 0.985 . S
H2142 N2136 0.984 . S
H2143 N2136 0.984 . S
H2144 N2132 0.984 . S
H2145 N2132 0.985 . S
C2146 C2147 1.363 . S
C2146 C2152 1.379 . S
C2146 N2154 1.356 . S
C2147 C2146 1.363 . S
C2147 C2153 1.363 . S
C2148 C2149 1.363 . S
C2148 C2153 1.379 . S
C2148 N2155 1.356 . S
C2149 C2148 1.363 . S
C2149 C2152 1.363 . S
N2150 C2152 1.356 . S
N2150 H2162 0.984 . S
N2150 H2163 0.985 . S
N2151 C2153 1.356 . S
N2151 H2156 0.984 . S
N2151 H2157 0.985 . S
C2152 C2146 1.379 . S
C2152 C2149 1.363 . S
C2152 N2150 1.356 . S
C2153 C2147 1.363 . S
C2153 C2148 1.379 . S
C2153 N2151 1.356 . S
N2154 C2146 1.356 . S
N2154 H2160 0.984 . S
N2154 H2161 0.984 . S
N2155 C2148 1.356 . S
N2155 H2158 0.984 . S
N2155 H2159 0.985 . S
H2156 N2151 0.984 . S
H2157 N2151 0.985 . S
H2158 N2155 0.984 . S
H2159 N2155 0.985 . S
H2160 N2154 0.984 . S
H2161 N2154 0.984 . S
H2162 N2150 0.984 . S
H2163 N2150 0.985 . S
C2164 C2165 1.363 . S
C2164 C2170 1.379 . S
C2164 N2172 1.356 . S
C2165 C2164 1.363 . S
C2165 C2171 1.363 . S
C2166 C2167 1.363 . S
C2166 C2171 1.379 . S
C2166 N2173 1.356 . S
C2167 C2166 1.363 . S
C2167 C2170 1.363 . S
N2168 C2170 1.356 . S
N2168 H2180 0.984 . S
N2168 H2181 0.985 . S
N2169 C2171 1.356 . S
N2169 H2174 0.984 . S
N2169 H2175 0.985 . S
C2170 C2164 1.379 . S
C2170 C2167 1.363 . S
C2170 N2168 1.356 . S
C2171 C2165 1.363 . S
C2171 C2166 1.379 . S
C2171 N2169 1.356 . S
N2172 C2164 1.356 . S
N2172 H2178 0.984 . S
N2172 H2179 0.984 . S
N2173 C2166 1.356 . S
N2173 H2176 0.984 . S
N2173 H2177 0.985 . S
H2174 N2169 0.984 . S
H2175 N2169 0.985 . S
H2176 N2173 0.984 . S
H2177 N2173 0.985 . S
H2178 N2172 0.984 . S
H2179 N2172 0.984 . S
H2180 N2168 0.984 . S
H2181 N2168 0.985 . S
C2182 C2183 1.363 . S
C2182 C2188 1.379 . S
C2182 N2190 1.356 . S
C2183 C2182 1.363 . S
C2183 C2189 1.363 . S
C2184 C2185 1.363 1_545 S
C2184 C2189 1.379 1_545 S
C2184 N2191 1.356 . S
C2185 C2184 1.363 1_565 S
C2185 C2188 1.363 . S
N2186 C2188 1.356 . S
N2186 H2198 0.984 . S
N2186 H2199 0.985 . S
N2187 C2189 1.356 . S
N2187 H2192 0.984 . S
N2187 H2193 0.985 . S
C2188 C2182 1.379 . S
C2188 C2185 1.363 . S
C2188 N2186 1.356 . S
C2189 C2183 1.363 . S
C2189 C2184 1.379 1_565 S
C2189 N2187 1.356 . S
N2190 C2182 1.356 . S
N2190 H2196 0.984 . S
N2190 H2197 0.984 . S
N2191 C2184 1.356 . S
N2191 H2194 0.984 . S
N2191 H2195 0.985 . S
H2192 N2187 0.984 . S
H2193 N2187 0.985 . S
H2194 N2191 0.984 . S
H2195 N2191 0.985 . S
H2196 N2190 0.984 . S
H2197 N2190 0.984 . S
H2198 N2186 0.984 . S
H2199 N2186 0.985 . S
C2200 C2201 1.363 . S
C2200 C2206 1.379 . S
C2200 N2208 1.356 . S
C2201 C2200 1.363 . S
C2201 C2207 1.363 . S
C2202 C2203 1.363 . S
C2202 C2207 1.379 . S
C2202 N2209 1.356 . S
C2203 C2202 1.363 . S
C2203 C2206 1.363 . S
N2204 C2206 1.356 . S
N2204 H2216 0.984 . S
N2204 H2217 0.985 . S
N2205 C2207 1.356 . S
N2205 H2210 0.984 . S
N2205 H2211 0.985 . S
C2206 C2200 1.379 . S
C2206 C2203 1.363 . S
C2206 N2204 1.356 . S
C2207 C2201 1.363 . S
C2207 C2202 1.379 . S
C2207 N2205 1.356 . S
N2208 C2200 1.356 . S
N2208 H2214 0.984 . S
N2208 H2215 0.984 . S
N2209 C2202 1.356 . S
N2209 H2212 0.984 . S
N2209 H2213 0.985 . S
H2210 N2205 0.984 . S
H2211 N2205 0.985 . S
H2212 N2209 0.984 . S
H2213 N2209 0.985 . S
H2214 N2208 0.984 . S
H2215 N2208 0.984 . S
H2216 N2204 0.984 . S
H2217 N2204 0.985 . S
C2218 C2219 1.363 . S
C2218 C2224 1.379 . S
C2218 N2226 1.356 . S
C2219 C2218 1.363 . S
C2219 C2225 1.363 . S
C2220 C2221 1.363 . S
C2220 C2225 1.379 . S
C2220 N2227 1.356 . S
C2221 C2220 1.363 . S
C2221 C2224 1.363 . S
N2222 C2224 1.356 . S
N2222 H2234 0.984 . S
N2222 H2235 0.985 . S
N2223 C2225 1.356 . S
N2223 H2228 0.974 1_554 S
N2223 H2229 0.985 . S
C2224 C2218 1.379 . S
C2224 C2221 1.363 . S
C2224 N2222 1.356 . S
C2225 C2219 1.363 . S
C2225 C2220 1.379 . S
C2225 N2223 1.356 . S
N2226 C2218 1.356 . S
N2226 H2232 0.984 . S
N2226 H2233 0.984 . S
N2227 C2220 1.356 . S
N2227 H2230 0.984 . S
N2227 H2231 0.985 . S
H2228 N2223 0.974 1_556 S
H2229 N2223 0.985 . S
H2230 N2227 0.984 . S
H2231 N2227 0.985 . S
H2232 N2226 0.984 . S
H2233 N2226 0.984 . S
H2234 N2222 0.984 . S
H2235 N2222 0.985 . S
C2236 C2237 1.363 . S
C2236 C2242 1.379 . S
C2236 N2244 1.356 . S
C2237 C2236 1.363 . S
C2237 C2243 1.363 . S
C2238 C2239 1.363 . S
C2238 C2243 1.379 . S
C2238 N2245 1.356 . S
C2239 C2238 1.363 . S
C2239 C2242 1.363 . S
N2240 C2242 1.356 . S
N2240 H2252 0.984 . S
N2240 H2253 0.985 . S
N2241 C2243 1.356 . S
N2241 H2246 0.984 . S
N2241 H2247 0.985 . S
C2242 C2236 1.379 . S
C2242 C2239 1.363 . S
C2242 N2240 1.356 . S
C2243 C2237 1.363 . S
C2243 C2238 1.379 . S
C2243 N2241 1.356 . S
N2244 C2236 1.356 . S
N2244 H2250 0.984 . S
N2244 H2251 0.984 . S
N2245 C2238 1.356 . S
N2245 H2248 0.984 . S
N2245 H2249 0.985 . S
H2246 N2241 0.984 . S
H2247 N2241 0.985 . S
H2248 N2245 0.984 . S
H2249 N2245 0.985 . S
H2250 N2244 0.984 . S
H2251 N2244 0.984 . S
H2252 N2240 0.984 . S
H2253 N2240 0.985 . S
C2254 C2255 1.363 . S
C2254 C2260 1.379 . S
C2254 N2262 1.356 . S
C2255 C2254 1.363 . S
C2255 C2261 1.363 . S
C2256 C2257 1.363 . S
C2256 C2261 1.379 . S
C2256 N2263 1.356 . S
C2257 C2256 1.363 . S
C2257 C2260 1.363 . S
N2258 C2260 1.356 . S
N2258 H2270 0.984 . S
N2258 H2271 0.985 . S
N2259 C2261 1.356 . S
N2259 H2264 0.984 . S
N2259 H2265 0.985 . S
C2260 C2254 1.379 . S
C2260 C2257 1.363 . S
C2260 N2258 1.356 . S
C2261 C2255 1.363 . S
C2261 C2256 1.379 . S
C2261 N2259 1.356 . S
N2262 C2254 1.356 . S
N2262 H2268 0.984 . S
N2262 H2269 0.984 . S
N2263 C2256 1.356 . S
N2263 H2266 0.984 . S
N2263 H2267 0.985 . S
H2264 N2259 0.984 . S
H2265 N2259 0.985 . S
H2266 N2263 0.984 . S
H2267 N2263 0.985 . S
H2268 N2262 0.984 . S
H2269 N2262 0.984 . S
H2270 N2258 0.984 . S
H2271 N2258 0.985 . S
C2272 C2273 1.363 . S
C2272 C2278 1.379 . S
C2272 N2280 1.356 . S
C2273 C2272 1.363 . S
C2273 C2279 1.363 . S
C2274 C2275 1.363 . S
C2274 C2279 1.379 . S
C2274 N2281 1.356 . S
C2275 C2274 1.363 . S
C2275 C2278 1.363 . S
N2276 C2278 1.356 . S
N2276 H2288 0.984 . S
N2276 H2289 0.985 . S
N2277 C2279 1.356 . S
N2277 H2282 0.984 . S
N2277 H2283 0.985 . S
C2278 C2272 1.379 . S
C2278 C2275 1.363 . S
C2278 N2276 1.356 . S
C2279 C2273 1.363 . S
C2279 C2274 1.379 . S
C2279 N2277 1.356 . S
N2280 C2272 1.356 . S
N2280 H2286 0.984 . S
N2280 H2287 0.984 . S
N2281 C2274 1.356 . S
N2281 H2284 0.984 . S
N2281 H2285 0.985 . S
H2282 N2277 0.984 . S
H2283 N2277 0.985 . S
H2284 N2281 0.984 . S
H2285 N2281 0.985 . S
H2286 N2280 0.984 . S
H2287 N2280 0.984 . S
H2288 N2276 0.984 . S
H2289 N2276 0.985 . S
C2290 C2291 1.363 . S
C2290 C2296 1.379 . S
C2290 N2298 1.356 . S
C2291 C2290 1.363 . S
C2291 C2297 1.363 . S
C2292 C2293 1.363 . S
C2292 C2297 1.379 . S
C2292 N2299 1.356 . S
C2293 C2292 1.363 . S
C2293 C2296 1.363 . S
N2294 C2296 1.356 . S
N2294 H2306 0.984 . S
N2294 H2307 0.985 . S
N2295 C2297 1.356 . S
N2295 H2300 0.984 . S
N2295 H2301 0.985 . S
C2296 C2290 1.379 . S
C2296 C2293 1.363 . S
C2296 N2294 1.356 . S
C2297 C2291 1.363 . S
C2297 C2292 1.379 . S
C2297 N2295 1.356 . S
N2298 C2290 1.356 . S
N2298 H2304 0.984 . S
N2298 H2305 0.984 . S
N2299 C2292 1.356 . S
N2299 H2302 0.984 . S
N2299 H2303 0.985 . S
H2300 N2295 0.984 . S
H2301 N2295 0.985 . S
H2302 N2299 0.984 . S
H2303 N2299 0.985 . S
H2304 N2298 0.984 . S
H2305 N2298 0.984 . S
H2306 N2294 0.984 . S
H2307 N2294 0.985 . S
C2308 C2309 1.363 . S
C2308 C2314 1.379 . S
C2308 N2316 1.356 1_455 S
C2309 C2308 1.363 . S
C2309 C2315 1.363 . S
C2310 C2311 1.363 . S
C2310 C2315 1.379 . S
C2310 N2317 1.356 . S
C2311 C2310 1.363 . S
C2311 C2314 1.363 . S
N2312 C2314 1.356 1_655 S
N2312 H2324 0.984 . S
N2312 H2325 0.985 1_655 S
N2313 C2315 1.356 . S
N2313 H2318 0.984 . S
N2313 H2319 0.985 . S
C2314 C2308 1.379 . S
C2314 C2311 1.363 . S
C2314 N2312 1.356 1_455 S
C2315 C2309 1.363 . S
C2315 C2310 1.379 . S
C2315 N2313 1.356 . S
N2316 C2308 1.356 1_655 S
N2316 H2322 0.984 . S
N2316 H2323 0.984 . S
N2317 C2310 1.356 . S
N2317 H2320 0.984 . S
N2317 H2321 0.985 . S
H2318 N2313 0.984 . S
H2319 N2313 0.985 . S
H2320 N2317 0.984 . S
H2321 N2317 0.985 . S
H2322 N2316 0.984 . S
H2323 N2316 0.984 . S
H2324 N2312 0.984 . S
H2325 N2312 0.985 1_455 S
C2326 C2327 1.363 . S
C2326 C2332 1.379 . S
C2326 N2334 1.356 . S
C2327 C2326 1.363 . S
C2327 C2333 1.363 . S
C2328 C2329 1.363 . S
C2328 C2333 1.379 . S
C2328 N2335 1.356 . S
C2329 C2328 1.363 . S
C2329 C2332 1.363 . S
N2330 C2332 1.356 . S
N2330 H2342 0.984 . S
N2330 H2343 0.985 . S
N2331 C2333 1.356 . S
N2331 H2336 0.984 . S
N2331 H2337 0.985 . S
C2332 C2326 1.379 . S
C2332 C2329 1.363 . S
C2332 N2330 1.356 . S
C2333 C2327 1.363 . S
C2333 C2328 1.379 . S
C2333 N2331 1.356 . S
N2334 C2326 1.356 . S
N2334 H2340 0.984 . S
N2334 H2341 0.984 . S
N2335 C2328 1.356 . S
N2335 H2338 0.984 . S
N2335 H2339 0.985 . S
H2336 N2331 0.984 . S
H2337 N2331 0.985 . S
H2338 N2335 0.984 . S
H2339 N2335 0.985 . S
H2340 N2334 0.984 . S
H2341 N2334 0.984 . S
H2342 N2330 0.984 . S
H2343 N2330 0.985 . S
C2344 C2345 1.363 . S
C2344 C2350 1.379 . S
C2344 N2352 1.356 1_554 S
C2345 C2344 1.363 . S
C2345 C2351 1.363 . S
C2346 C2347 1.363 . S
C2346 C2351 1.379 . S
C2346 N2353 1.356 . S
C2347 C2346 1.363 . S
C2347 C2350 1.363 . S
N2348 C2350 1.356 1_556 S
N2348 H2360 0.984 . S
N2348 H2361 0.985 . S
N2349 C2351 1.356 . S
N2349 H2354 0.984 . S
N2349 H2355 0.985 . S
C2350 C2344 1.379 . S
C2350 C2347 1.363 . S
C2350 N2348 1.356 1_554 S
C2351 C2345 1.363 . S
C2351 C2346 1.379 . S
C2351 N2349 1.356 . S
N2352 C2344 1.356 1_556 S
N2352 H2358 0.984 . S
N2352 H2359 0.984 . S
N2353 C2346 1.356 . S
N2353 H2356 0.984 . S
N2353 H2357 0.985 . S
H2354 N2349 0.984 . S
H2355 N2349 0.985 . S
H2356 N2353 0.984 . S
H2357 N2353 0.985 . S
H2358 N2352 0.984 . S
H2359 N2352 0.984 . S
H2360 N2348 0.984 . S
H2361 N2348 0.985 . S
C2362 C2363 1.363 . S
C2362 C2368 1.379 . S
C2362 N2370 1.356 . S
C2363 C2362 1.363 . S
C2363 C2369 1.363 . S
C2364 C2365 1.363 . S
C2364 C2369 1.379 . S
C2364 N2371 1.356 . S
C2365 C2364 1.363 . S
C2365 C2368 1.363 . S
N2366 C2368 1.356 . S
N2366 H2378 0.984 . S
N2366 H2379 0.985 . S
N2367 C2369 1.356 . S
N2367 H2372 0.984 . S
N2367 H2373 0.985 . S
C2368 C2362 1.379 . S
C2368 C2365 1.363 . S
C2368 N2366 1.356 . S
C2369 C2363 1.363 . S
C2369 C2364 1.379 . S
C2369 N2367 1.356 . S
N2370 C2362 1.356 . S
N2370 H2376 0.984 . S
N2370 H2377 0.984 . S
N2371 C2364 1.356 . S
N2371 H2374 0.984 . S
N2371 H2375 0.985 . S
H2372 N2367 0.984 . S
H2373 N2367 0.985 . S
H2374 N2371 0.984 . S
H2375 N2371 0.985 . S
H2376 N2370 0.984 . S
H2377 N2370 0.984 . S
H2378 N2366 0.984 . S
H2379 N2366 0.985 . S
C2380 C2381 1.363 . S
C2380 C2386 1.379 . S
C2380 N2388 1.356 . S
C2381 C2380 1.363 . S
C2381 C2387 1.363 . S
C2382 C2383 1.363 . S
C2382 C2387 1.379 . S
C2382 N2389 1.356 . S
C2383 C2382 1.363 . S
C2383 C2386 1.363 . S
N2384 C2386 1.356 . S
N2384 H2396 0.984 . S
N2384 H2397 0.985 . S
N2385 C2387 1.356 . S
N2385 H2390 0.984 . S
N2385 H2391 0.985 . S
C2386 C2380 1.379 . S
C2386 C2383 1.363 . S
C2386 N2384 1.356 . S
C2387 C2381 1.363 . S
C2387 C2382 1.379 . S
C2387 N2385 1.356 . S
N2388 C2380 1.356 . S
N2388 H2394 0.984 . S
N2388 H2395 0.984 . S
N2389 C2382 1.356 . S
N2389 H2392 0.984 . S
N2389 H2393 0.985 . S
H2390 N2385 0.984 . S
H2391 N2385 0.985 . S
H2392 N2389 0.984 . S
H2393 N2389 0.985 . S
H2394 N2388 0.984 . S
H2395 N2388 0.984 . S
H2396 N2384 0.984 . S
H2397 N2384 0.985 . S
C2398 C2399 1.363 . S
C2398 C2404 1.379 . S
C2398 N2406 1.356 . S
C2399 C2398 1.363 . S
C2399 C2405 1.363 . S
C2400 C2401 1.363 . S
C2400 C2405 1.379 . S
C2400 N2407 1.356 . S
C2401 C2400 1.363 . S
C2401 C2404 1.363 . S
N2402 C2404 1.356 . S
N2402 H2414 0.984 . S
N2402 H2415 0.985 . S
N2403 C2405 1.356 . S
N2403 H2408 0.984 . S
N2403 H2409 0.985 . S
C2404 C2398 1.379 . S
C2404 C2401 1.363 . S
C2404 N2402 1.356 . S
C2405 C2399 1.363 . S
C2405 C2400 1.379 . S
C2405 N2403 1.356 . S
N2406 C2398 1.356 . S
N2406 H2412 0.984 . S
N2406 H2413 0.984 . S
N2407 C2400 1.356 . S
N2407 H2410 0.984 . S
N2407 H2411 0.985 . S
H2408 N2403 0.984 . S
H2409 N2403 0.985 . S
H2410 N2407 0.984 . S
H2411 N2407 0.985 . S
H2412 N2406 0.984 . S
H2413 N2406 0.984 . S
H2414 N2402 0.984 . S
H2415 N2402 0.985 . S
C2416 C2417 1.363 . S
C2416 C2422 1.379 . S
C2416 N2424 1.356 . S
C2417 C2416 1.363 . S
C2417 C2423 1.363 . S
C2418 C2419 1.363 . S
C2418 C2423 1.379 . S
C2418 N2425 1.356 . S
C2419 C2418 1.363 . S
C2419 C2422 1.363 . S
N2420 C2422 1.356 . S
N2420 H2432 0.984 . S
N2420 H2433 0.985 . S
N2421 C2423 1.356 . S
N2421 H2426 0.984 . S
N2421 H2427 0.985 . S
C2422 C2416 1.379 . S
C2422 C2419 1.363 . S
C2422 N2420 1.356 . S
C2423 C2417 1.363 . S
C2423 C2418 1.379 . S
C2423 N2421 1.356 . S
N2424 C2416 1.356 . S
N2424 H2430 0.984 . S
N2424 H2431 0.984 . S
N2425 C2418 1.356 . S
N2425 H2428 0.984 . S
N2425 H2429 0.985 . S
H2426 N2421 0.984 . S
H2427 N2421 0.985 . S
H2428 N2425 0.984 . S
H2429 N2425 0.985 . S
H2430 N2424 0.984 . S
H2431 N2424 0.984 . S
H2432 N2420 0.984 . S
H2433 N2420 0.985 . S
C2434 C2435 1.363 . S
C2434 C2440 1.379 . S
C2434 N2442 1.356 . S
C2435 C2434 1.363 . S
C2435 C2441 1.363 . S
C2436 C2437 1.363 . S
C2436 C2441 1.379 . S
C2436 N2443 1.356 . S
C2437 C2436 1.363 . S
C2437 C2440 1.363 . S
N2438 C2440 1.356 . S
N2438 H2450 0.984 . S
N2438 H2451 0.985 . S
N2439 C2441 1.356 . S
N2439 H2444 0.984 . S
N2439 H2445 0.985 . S
C2440 C2434 1.379 . S
C2440 C2437 1.363 . S
C2440 N2438 1.356 . S
C2441 C2435 1.363 . S
C2441 C2436 1.379 . S
C2441 N2439 1.356 . S
N2442 C2434 1.356 . S
N2442 H2448 0.984 . S
N2442 H2449 0.984 . S
N2443 C2436 1.356 . S
N2443 H2446 0.984 . S
N2443 H2447 0.985 . S
H2444 N2439 0.984 . S
H2445 N2439 0.985 . S
H2446 N2443 0.984 . S
H2447 N2443 0.985 . S
H2448 N2442 0.984 . S
H2449 N2442 0.984 . S
H2450 N2438 0.984 . S
H2451 N2438 0.985 . S
C2452 C2453 1.363 . S
C2452 C2458 1.379 . S
C2452 N2460 1.356 . S
C2453 C2452 1.363 . S
C2453 C2459 1.363 . S
C2454 C2455 1.363 . S
C2454 C2459 1.379 . S
C2454 N2461 1.356 . S
C2455 C2454 1.363 . S
C2455 C2458 1.363 . S
N2456 C2458 1.356 1_554 S
N2456 H2468 0.984 . S
N2456 H2469 0.985 . S
N2457 C2459 1.356 1_655 S
N2457 H2462 0.984 . S
N2457 H2463 0.985 . S
C2458 C2452 1.379 . S
C2458 C2455 1.363 . S
C2458 N2456 1.356 1_556 S
C2459 C2453 1.363 . S
C2459 C2454 1.379 . S
C2459 N2457 1.356 1_455 S
N2460 C2452 1.356 . S
N2460 H2466 0.984 . S
N2460 H2467 0.984 . S
N2461 C2454 1.356 . S
N2461 H2464 0.984 . S
N2461 H2465 0.985 . S
H2462 N2457 0.984 . S
H2463 N2457 0.985 . S
H2464 N2461 0.984 . S
H2465 N2461 0.985 . S
H2466 N2460 0.984 . S
H2467 N2460 0.984 . S
H2468 N2456 0.984 . S
H2469 N2456 0.985 . S
C2470 C2471 1.363 . S
C2470 C2476 1.379 . S
C2470 N2478 1.356 . S
C2471 C2470 1.363 . S
C2471 C2477 1.363 . S
C2472 C2473 1.363 . S
C2472 C2477 1.379 . S
C2472 N2479 1.356 . S
C2473 C2472 1.363 . S
C2473 C2476 1.363 . S
N2474 C2476 1.356 . S
N2474 H2486 0.984 . S
N2474 H2487 0.985 . S
N2475 C2477 1.356 . S
N2475 H2480 0.984 . S
N2475 H2481 0.985 . S
C2476 C2470 1.379 . S
C2476 C2473 1.363 . S
C2476 N2474 1.356 . S
C2477 C2471 1.363 . S
C2477 C2472 1.379 . S
C2477 N2475 1.356 . S
N2478 C2470 1.356 . S
N2478 H2484 0.984 . S
N2478 H2485 0.984 . S
N2479 C2472 1.356 . S
N2479 H2482 0.984 . S
N2479 H2483 0.985 . S
H2480 N2475 0.984 . S
H2481 N2475 0.985 . S
H2482 N2479 0.984 . S
H2483 N2479 0.985 . S
H2484 N2478 0.984 . S
H2485 N2478 0.984 . S
H2486 N2474 0.984 . S
H2487 N2474 0.985 . S
C2488 C2489 1.363 . S
C2488 C2494 1.379 . S
C2488 N2496 1.356 . S
C2489 C2488 1.363 . S
C2489 C2495 1.363 . S
C2490 C2491 1.363 . S
C2490 C2495 1.379 . S
C2490 N2497 1.356 . S
C2491 C2490 1.363 . S
C2491 C2494 1.363 . S
N2492 C2494 1.356 . S
N2492 H2504 0.984 . S
N2492 H2505 0.985 . S
N2493 C2495 1.356 . S
N2493 H2498 0.984 . S
N2493 H2499 0.985 . S
C2494 C2488 1.379 . S
C2494 C2491 1.363 . S
C2494 N2492 1.356 . S
C2495 C2489 1.363 . S
C2495 C2490 1.379 . S
C2495 N2493 1.356 . S
N2496 C2488 1.356 . S
N2496 H2502 0.984 . S
N2496 H2503 0.984 . S
N2497 C2490 1.356 . S
N2497 H2500 0.984 . S
N2497 H2501 0.985 . S
H2498 N2493 0.984 . S
H2499 N2493 0.985 . S
H2500 N2497 0.984 . S
H2501 N2497 0.985 . S
H2502 N2496 0.984 . S
H2503 N2496 0.984 . S
H2504 N2492 0.984 . S
H2505 N2492 0.985 . S
C2506 C2507 1.363 . S
C2506 C2512 1.379 . S
C2506 N2514 1.356 . S
C2507 C2506 1.363 . S
C2507 C2513 1.363 . S
C2508 C2509 1.363 . S
C2508 C2513 1.379 . S
C2508 N2515 1.356 . S
C2509 C2508 1.363 . S
C2509 C2512 1.363 . S
N2510 C2512 1.356 . S
N2510 H2522 0.984 . S
N2510 H2523 0.985 . S
N2511 C2513 1.356 1_554 S
N2511 H2516 0.984 . S
N2511 H2517 0.985 . S
C2512 C2506 1.379 . S
C2512 C2509 1.363 . S
C2512 N2510 1.356 . S
C2513 C2507 1.363 . S
C2513 C2508 1.379 . S
C2513 N2511 1.356 1_556 S
N2514 C2506 1.356 . S
N2514 H2520 0.984 . S
N2514 H2521 0.984 . S
N2515 C2508 1.356 . S
N2515 H2518 0.984 . S
N2515 H2519 0.985 . S
H2516 N2511 0.984 . S
H2517 N2511 0.985 . S
H2518 N2515 0.984 . S
H2519 N2515 0.985 . S
H2520 N2514 0.984 . S
H2521 N2514 0.984 . S
H2522 N2510 0.984 . S
H2523 N2510 0.985 . S
C2524 C2525 1.390 . S
C2524 C2530 1.379 . S
C2524 N2532 1.356 . S
C2525 C2524 1.390 . S
C2525 C2531 1.353 1_455 S
C2526 C2527 1.363 1_655 S
C2526 C2531 1.379 . S
C2526 N2533 1.356 . S
C2527 C2526 1.363 1_455 S
C2527 C2530 1.363 . S
N2528 C2530 1.356 . S
N2528 H2540 0.984 . S
N2528 H2541 0.985 . S
N2529 C2531 1.356 . S
N2529 H2534 0.984 . S
N2529 H2535 0.985 . S
C2530 C2524 1.379 . S
C2530 C2527 1.363 . S
C2530 N2528 1.356 . S
C2531 C2525 1.353 1_655 S
C2531 C2526 1.379 . S
C2531 N2529 1.356 . S
N2532 C2524 1.356 . S
N2532 H2538 0.984 . S
N2532 H2539 0.984 . S
N2533 C2526 1.356 . S
N2533 H2536 0.984 . S
N2533 H2537 0.985 . S
H2534 N2529 0.984 . S
H2535 N2529 0.985 . S
H2536 N2533 0.984 . S
H2537 N2533 0.985 . S
H2538 N2532 0.984 . S
H2539 N2532 0.984 . S
H2540 N2528 0.984 . S
H2541 N2528 0.985 . S
C2542 C2543 1.363 . S
C2542 C2548 1.379 . S
C2542 N2550 1.356 . S
C2543 C2542 1.363 . S
C2543 C2549 1.363 . S
C2544 C2545 1.363 . S
C2544 C2549 1.379 . S
C2544 N2551 1.356 . S
C2545 C2544 1.363 . S
C2545 C2548 1.363 . S
N2546 C2548 1.356 . S
N2546 H2558 0.984 . S
N2546 H2559 0.985 . S
N2547 C2549 1.356 . S
N2547 H2552 0.984 . S
N2547 H2553 0.985 . S
C2548 C2542 1.379 . S
C2548 C2545 1.363 . S
C2548 N2546 1.356 . S
C2549 C2543 1.363 . S
C2549 C2544 1.379 . S
C2549 N2547 1.356 . S
N2550 C2542 1.356 . S
N2550 H2556 0.984 . S
N2550 H2557 0.984 . S
N2551 C2544 1.356 . S
N2551 H2554 0.984 . S
N2551 H2555 0.985 . S
H2552 N2547 0.984 . S
H2553 N2547 0.985 . S
H2554 N2551 0.984 . S
H2555 N2551 0.985 . S
H2556 N2550 0.984 . S
H2557 N2550 0.984 . S
H2558 N2546 0.984 . S
H2559 N2546 0.985 . S
C2560 C2561 1.363 . S
C2560 C2566 1.379 . S
C2560 N2568 1.356 . S
C2561 C2560 1.363 . S
C2561 C2567 1.363 . S
C2562 C2563 1.363 . S
C2562 C2567 1.379 . S
C2562 N2569 1.356 . S
C2563 C2562 1.363 . S
C2563 C2566 1.363 . S
N2564 C2566 1.356 . S
N2564 H2576 0.984 . S
N2564 H2577 0.985 . S
N2565 C2567 1.356 . S
N2565 H2570 0.984 . S
N2565 H2571 0.985 . S
C2566 C2560 1.379 . S
C2566 C2563 1.363 . S
C2566 N2564 1.356 . S
C2567 C2561 1.363 . S
C2567 C2562 1.379 . S
C2567 N2565 1.356 . S
N2568 C2560 1.356 . S
N2568 H2574 0.984 . S
N2568 H2575 0.984 . S
N2569 C2562 1.356 . S
N2569 H2572 0.984 . S
N2569 H2573 0.985 . S
H2570 N2565 0.984 . S
H2571 N2565 0.985 . S
H2572 N2569 0.984 . S
H2573 N2569 0.985 . S
H2574 N2568 0.984 . S
H2575 N2568 0.984 . S
H2576 N2564 0.984 . S
H2577 N2564 0.985 . S
C2578 C2579 1.363 . S
C2578 C2584 1.379 . S
C2578 N2586 1.356 1_545 S
C2579 C2578 1.363 . S
C2579 C2585 1.363 . S
C2580 C2581 1.363 . S
C2580 C2585 1.379 . S
C2580 N2587 1.356 . S
C2581 C2580 1.363 . S
C2581 C2584 1.363 . S
N2582 C2584 1.356 . S
N2582 H2594 0.984 1_545 S
N2582 H2595 0.985 . S
N2583 C2585 1.356 . S
N2583 H2588 0.984 . S
N2583 H2589 0.985 . S
C2584 C2578 1.379 . S
C2584 C2581 1.363 . S
C2584 N2582 1.356 . S
C2585 C2579 1.363 . S
C2585 C2580 1.379 . S
C2585 N2583 1.356 . S
N2586 C2578 1.356 1_565 S
N2586 H2592 0.984 . S
N2586 H2593 0.989 . S
N2587 C2580 1.356 . S
N2587 H2590 0.984 . S
N2587 H2591 0.985 . S
H2588 N2583 0.984 . S
H2589 N2583 0.985 . S
H2590 N2587 0.984 . S
H2591 N2587 0.985 . S
H2592 N2586 0.984 . S
H2593 N2586 0.989 . S
H2594 N2582 0.984 1_565 S
H2595 N2582 0.985 . S
C2596 C2597 1.363 . S
C2596 C2602 1.379 . S
C2596 N2604 1.356 . S
C2597 C2596 1.363 . S
C2597 C2603 1.363 . S
C2598 C2599 1.363 . S
C2598 C2603 1.379 . S
C2598 N2605 1.356 . S
C2599 C2598 1.363 . S
C2599 C2602 1.363 . S
N2600 C2602 1.356 . S
N2600 H2612 0.984 . S
N2600 H2613 0.985 . S
N2601 C2603 1.356 . S
N2601 H2606 0.984 . S
N2601 H2607 0.985 . S
C2602 C2596 1.379 . S
C2602 C2599 1.363 . S
C2602 N2600 1.356 . S
C2603 C2597 1.363 . S
C2603 C2598 1.379 . S
C2603 N2601 1.356 . S
N2604 C2596 1.356 . S
N2604 H2610 0.984 . S
N2604 H2611 0.984 . S
N2605 C2598 1.356 . S
N2605 H2608 0.984 . S
N2605 H2609 0.985 . S
H2606 N2601 0.984 . S
H2607 N2601 0.985 . S
H2608 N2605 0.984 . S
H2609 N2605 0.985 . S
H2610 N2604 0.984 . S
H2611 N2604 0.984 . S
H2612 N2600 0.984 . S
H2613 N2600 0.985 . S
C2614 C2615 1.363 . S
C2614 C2620 1.379 . S
C2614 N2622 1.356 . S
C2615 C2614 1.363 . S
C2615 C2621 1.363 . S
C2616 C2617 1.363 . S
C2616 C2621 1.379 . S
C2616 N2623 1.356 . S
C2617 C2616 1.363 . S
C2617 C2620 1.363 . S
N2618 C2620 1.356 . S
N2618 H2630 0.984 1_554 S
N2618 H2631 0.985 . S
N2619 C2621 1.356 . S
N2619 H2624 0.984 . S
N2619 H2625 0.985 . S
C2620 C2614 1.379 . S
C2620 C2617 1.363 . S
C2620 N2618 1.356 . S
C2621 C2615 1.363 . S
C2621 C2616 1.379 . S
C2621 N2619 1.356 . S
N2622 C2614 1.356 . S
N2622 H2628 0.984 1_554 S
N2622 H2629 0.984 . S
N2623 C2616 1.356 . S
N2623 H2626 0.984 . S
N2623 H2627 0.985 . S
H2624 N2619 0.984 . S
H2625 N2619 0.985 . S
H2626 N2623 0.984 . S
H2627 N2623 0.985 . S
H2628 N2622 0.984 1_556 S
H2629 N2622 0.984 . S
H2630 N2618 0.984 1_556 S
H2631 N2618 0.985 . S
C2632 C2633 1.363 . S
C2632 C2638 1.379 . S
C2632 N2640 1.356 . S
C2633 C2632 1.363 . S
C2633 C2639 1.363 . S
C2634 C2635 1.363 . S
C2634 C2639 1.379 . S
C2634 N2641 1.356 . S
C2635 C2634 1.363 . S
C2635 C2638 1.363 . S
N2636 C2638 1.356 . S
N2636 H2648 0.984 . S
N2636 H2649 0.985 . S
N2637 C2639 1.356 . S
N2637 H2642 0.984 . S
N2637 H2643 0.985 . S
C2638 C2632 1.379 . S
C2638 C2635 1.363 . S
C2638 N2636 1.356 . S
C2639 C2633 1.363 . S
C2639 C2634 1.379 . S
C2639 N2637 1.356 . S
N2640 C2632 1.356 . S
N2640 H2646 0.984 . S
N2640 H2647 0.984 . S
N2641 C2634 1.356 . S
N2641 H2644 0.984 . S
N2641 H2645 0.985 . S
H2642 N2637 0.984 . S
H2643 N2637 0.985 . S
H2644 N2641 0.984 . S
H2645 N2641 0.985 . S
H2646 N2640 0.984 . S
H2647 N2640 0.984 . S
H2648 N2636 0.984 . S
H2649 N2636 0.985 . S
C2650 C2651 1.363 . S
C2650 C2656 1.379 . S
C2650 N2658 1.356 . S
C2651 C2650 1.363 . S
C2651 C2657 1.363 . S
C2652 C2653 1.363 . S
C2652 C2657 1.379 . S
C2652 N2659 1.356 . S
C2653 C2652 1.363 . S
C2653 C2656 1.363 . S
N2654 C2656 1.356 . S
N2654 H2666 0.984 . S
N2654 H2667 0.985 . S
N2655 C2657 1.356 . S
N2655 H2660 0.984 . S
N2655 H2661 0.985 . S
C2656 C2650 1.379 . S
C2656 C2653 1.363 . S
C2656 N2654 1.356 . S
C2657 C2651 1.363 . S
C2657 C2652 1.379 . S
C2657 N2655 1.356 . S
N2658 C2650 1.356 . S
N2658 H2664 0.984 . S
N2658 H2665 0.984 . S
N2659 C2652 1.356 . S
N2659 H2662 0.984 . S
N2659 H2663 0.985 . S
H2660 N2655 0.984 . S
H2661 N2655 0.985 . S
H2662 N2659 0.984 . S
H2663 N2659 0.985 . S
H2664 N2658 0.984 . S
H2665 N2658 0.984 . S
H2666 N2654 0.984 . S
H2667 N2654 0.985 . S
C2668 C2669 1.363 . S
C2668 C2674 1.379 . S
C2668 N2676 1.356 . S
C2669 C2668 1.363 . S
C2669 C2675 1.363 . S
C2670 C2671 1.363 . S
C2670 C2675 1.379 . S
C2670 N2677 1.356 . S
C2671 C2670 1.363 . S
C2671 C2674 1.363 . S
N2672 C2674 1.356 . S
N2672 H2684 0.984 . S
N2672 H2685 0.985 . S
N2673 C2675 1.356 . S
N2673 H2678 0.984 1_565 S
N2673 H2679 0.985 . S
C2674 C2668 1.379 . S
C2674 C2671 1.363 . S
C2674 N2672 1.356 . S
C2675 C2669 1.363 . S
C2675 C2670 1.379 . S
C2675 N2673 1.356 . S
N2676 C2668 1.356 . S
N2676 H2682 0.984 . S
N2676 H2683 1.001 . S
N2677 C2670 1.356 . S
N2677 H2680 0.984 . S
N2677 H2681 0.985 . S
H2678 N2673 0.984 1_545 S
H2679 N2673 0.985 . S
H2680 N2677 0.984 . S
H2681 N2677 0.985 . S
H2682 N2676 0.984 . S
H2683 N2676 1.001 . S
H2684 N2672 0.984 . S
H2685 N2672 0.985 . S
C2686 C2687 1.363 . S
C2686 C2692 1.379 . S
C2686 N2694 1.356 . S
C2687 C2686 1.363 . S
C2687 C2693 1.363 . S
C2688 C2689 1.363 . S
C2688 C2693 1.379 . S
C2688 N2695 1.356 . S
C2689 C2688 1.363 . S
C2689 C2692 1.363 . S
N2690 C2692 1.356 . S
N2690 H2702 0.984 . S
N2690 H2703 0.985 . S
N2691 C2693 1.356 . S
N2691 H2696 0.984 . S
N2691 H2697 0.985 . S
C2692 C2686 1.379 . S
C2692 C2689 1.363 . S
C2692 N2690 1.356 . S
C2693 C2687 1.363 . S
C2693 C2688 1.379 . S
C2693 N2691 1.356 . S
N2694 C2686 1.356 . S
N2694 H2700 0.984 . S
N2694 H2701 0.984 . S
N2695 C2688 1.356 . S
N2695 H2698 0.984 . S
N2695 H2699 0.985 . S
H2696 N2691 0.984 . S
H2697 N2691 0.985 . S
H2698 N2695 0.984 . S
H2699 N2695 0.985 . S
H2700 N2694 0.984 . S
H2701 N2694 0.984 . S
H2702 N2690 0.984 . S
H2703 N2690 0.985 . S
C977 C105 1.537 . S
C979 C342 1.518 . S
C995 C65 2.114 . S
C997 C394 2.010 . S
C1013 C73 1.458 . S
C1015 C426 1.459 1_565 S
C1033 C475 2.555 . S
C1031 C92 2.560 . S
C1049 C17 1.420 . S
C1051 C511 1.414 . S
C1069 C542 0.688 . S
C1067 C37 0.639 . S
C1087 C594 0.626 . S
C1085 C49 0.709 . S
C1103 C8 2.719 . S
C1105 C622 2.584 . S
C1123 C354 2.128 . S
C1121 C231 2.221 . S
C1139 C241 1.821 . S
C1141 C395 1.850 . S
C1159 C425 1.875 . S
C1157 C273 1.862 1_545 S
C1177 C462 0.986 . S
C1175 C171 1.058 . S
C1193 C227 1.871 . S
C1195 C506 1.872 1_655 S
C1213 C554 2.029 . S
C1211 C245 1.831 . S
C1231 C595 1.852 1_556 S
C1229 C269 1.830 . S
C1249 C634 2.014 . S
C1247 C175 2.106 . S
C1267 C355 2.395 . S
C1265 C162 2.364 . S
C1283 C289 1.745 1_554 S
C1285 C665 1.730 . S
C1303 C715 2.482 . S
C1301 C330 2.486 . S
C1321 C742 1.038 . S
C1319 C317 1.053 . S
C1337 C120 2.758 . S
C1339 C635 2.729 . S
C1355 C134 1.990 . S
C1357 C431 1.816 . S
C1373 C331 2.541 . S
C1375 C794 2.430 . S
C1393 C822 1.476 . S
C1391 C303 1.662 . S
C1411 C351 1.545 . S
C1409 C59 1.706 . S
C1429 C825 2.059 . S
C1427 C107 2.173 1_655 S
C1445 C91 1.428 . S
C1447 C435 1.512 . S
C1463 C78 2.608 . S
C1465 C786 2.585 . S
C1483 C502 1.382 . S
C1481 C7 1.372 . S
C1499 C51 1.029 . S
C1501 C711 0.973 . S
C1519 C585 0.655 . S
C1517 C31 0.650 . S
C1537 C871 2.590 . S
C1535 C22 2.718 . S
C1555 C345 2.092 1_556 S
C1553 C143 2.288 . S
C1573 C826 1.980 . S
C1571 C315 1.814 . S
C1589 C115 2.099 . S
C1591 C434 1.980 . S
C1607 C287 0.873 . S
C1609 C791 0.833 . S
C1625 C147 1.825 . S
C1627 C515 1.898 . S
C1645 C705 2.065 . S
C1643 C311 2.029 . S
C1661 C119 1.895 . S
C1663 C586 2.037 . S
C1679 C283 2.207 . S
C1681 C865 2.041 . S
C1697 C190 2.335 . S
C1699 C346 2.378 1_655 S
C1715 C177 1.977 . S
C1717 C674 2.041 . S
C1733 C260 2.470 . S
C1735 C546 2.484 . S
C1751 C247 1.068 . S
C1753 C751 1.055 . S
C1771 C866 2.687 . S
C1769 C274 2.683 . S
C1787 C218 1.951 . S
C1789 C422 1.856 . S
C1807 C465 2.470 . S
C1805 C261 2.544 . S
C1825 C391 1.502 . S
C1823 C205 1.682 . S
C1841 C77 1.503 . S
C1843 C902 1.478 . S
C1861 C834 2.061 . S
C1859 C93 2.194 . S
C1877 C101 1.565 . S
C1879 C946 1.571 . S
C1895 C64 2.557 . S
C1897 C795 2.558 . S
C1913 C45 1.440 . S
C1915 C671 1.417 . S
C1933 C702 0.983 . S
C1931 C9 1.049 . S
C1951 C754 0.703 . S
C1949 C21 0.739 . S
C1969 C862 1.744 . S
C1967 C36 1.855 . S
C1987 C914 2.037 . S
C1985 C259 2.134 . S
C2003 C185 1.922 1_556 S
C2005 C835 1.952 . S
C2023 C945 1.926 . S
C2021 C203 1.869 . S
C2041 C782 0.815 . S
C2039 C213 0.846 . S
C2059 C666 1.986 1_556 S
C2057 C255 1.983 . S
C2075 C189 1.950 . S
C2077 C714 2.097 . S
C2095 C755 1.905 . S
C2093 C199 1.877 . S
C2111 C217 2.009 . S
C2113 C874 1.897 . S
C2131 C915 2.367 . S
C2129 C316 2.335 . S
C2147 C135 1.998 . S
C2149 C505 2.054 . S
C2167 C555 2.459 . S
C2165 C148 2.474 . S
C2185 C582 1.137 1_565 S
C2183 C163 1.168 . S
C2203 C875 2.682 . S
C2201 C302 2.702 . S
C2219 C288 1.661 . S
C2221 C951 1.496 . S
C2239 C474 2.503 . S
C2237 C149 2.596 . S
C2257 C382 1.490 . S
C2255 C121 1.675 . S
C2273 C87 1.693 . S
C2275 C911 1.530 . S
C2293 C385 2.094 . S
C2291 C79 2.231 . S
C2309 C63 1.463 . S
C2311 C955 1.556 . S
C2327 C106 2.611 . S
C2329 C466 2.592 . S
C2345 C35 1.299 . S
C2347 C662 1.304 . S
C2365 C551 0.968 . S
C2363 C23 1.030 . S
C2381 C3 0.738 . S
C2383 C745 0.723 . S
C2399 C50 2.481 . S
C2401 C631 2.377 . S
C2419 C905 2.046 . S
C2417 C325 2.246 . S
C2435 C161 1.857 . S
C2437 C386 2.017 . S
C2455 C954 2.070 1_556 S
C2453 C297 2.177 1_455 S
C2471 C133 1.009 . S
C2473 C471 0.965 . S
C2489 C329 1.910 . S
C2491 C675 2.016 . S
C2509 C545 2.162 . S
C2507 C157 2.165 1_556 S
C2525 C301 1.826 1_455 S
C2527 C746 1.984 . S
C2545 C625 1.956 . S
C2543 C129 2.135 . S
C2563 C906 2.374 . S
C2561 C246 2.335 . S
C2581 C514 2.134 1_655 S
C2579 C219 2.053 . S
C2597 C232 2.465 . S
C2599 C706 2.474 . S
C2617 C591 1.124 . S
C2615 C191 1.154 . S
C2633 C204 2.666 . S
C2635 C626 2.661 . S
C2651 C176 1.864 . S
C2653 C942 1.760 . S
C2671 C785 2.504 . S
C2669 C233 2.559 1_565 S
C2689 C831 1.414 . S
C2687 C275 1.596 . S
