# Generated by pormake.
# Topology llk, (3,12)-cn, num edge types: 1
# Building blocks:
#     Node 0, Type 0, BuildingBlock: OLANEW_clean_sbu_2, # of connection points: 3
#     Node 1, Type 0, BuildingBlock: OLANEW_clean_sbu_2, # of connection points: 3
#     Node 2, Type 0, BuildingBlock: OLANEW_clean_sbu_2, # of connection points: 3
#     Node 3, Type 0, BuildingBlock: OLANEW_clean_sbu_2, # of connection points: 3
#     Node 4, Type 0, BuildingBlock: OLANEW_clean_sbu_2, # of connection points: 3
#     Node 5, Type 0, BuildingBlock: OLANEW_clean_sbu_2, # of connection points: 3
#     Node 6, Type 0, BuildingBlock: OLANEW_clean_sbu_2, # of connection points: 3
#     Node 7, Type 0, BuildingBlock: OLANEW_clean_sbu_2, # of connection points: 3
#     Node 8, Type 0, BuildingBlock: OLANEW_clean_sbu_2, # of connection points: 3
#     Node 9, Type 0, BuildingBlock: OLANEW_clean_sbu_2, # of connection points: 3
#     Node 10, Type 0, BuildingBlock: OLANEW_clean_sbu_2, # of connection points: 3
#     Node 11, Type 0, BuildingBlock: OLANEW_clean_sbu_2, # of connection points: 3
#     Node 12, Type 0, BuildingBlock: OLANEW_clean_sbu_2, # of connection points: 3
#     Node 13, Type 0, BuildingBlock: OLANEW_clean_sbu_2, # of connection points: 3
#     Node 14, Type 0, BuildingBlock: OLANEW_clean_sbu_2, # of connection points: 3
#     Node 15, Type 0, BuildingBlock: OLANEW_clean_sbu_2, # of connection points: 3
#     Node 16, Type 0, BuildingBlock: OLANEW_clean_sbu_2, # of connection points: 3
#     Node 17, Type 0, BuildingBlock: OLANEW_clean_sbu_2, # of connection points: 3
#     Node 18, Type 0, BuildingBlock: OLANEW_clean_sbu_2, # of connection points: 3
#     Node 19, Type 0, BuildingBlock: OLANEW_clean_sbu_2, # of connection points: 3
#     Node 20, Type 0, BuildingBlock: OLANEW_clean_sbu_2, # of connection points: 3
#     Node 21, Type 0, BuildingBlock: OLANEW_clean_sbu_2, # of connection points: 3
#     Node 22, Type 0, BuildingBlock: OLANEW_clean_sbu_2, # of connection points: 3
#     Node 23, Type 0, BuildingBlock: OLANEW_clean_sbu_2, # of connection points: 3
#     Node 24, Type 1, BuildingBlock: EZIPEK_clean_sbu_0, # of connection points: 12
#     Node 25, Type 1, BuildingBlock: EZIPEK_clean_sbu_0, # of connection points: 12
#     Node 26, Type 1, BuildingBlock: EZIPEK_clean_sbu_0, # of connection points: 12
#     Node 27, Type 1, BuildingBlock: EZIPEK_clean_sbu_0, # of connection points: 12
#     Node 28, Type 1, BuildingBlock: EZIPEK_clean_sbu_0, # of connection points: 12
#     Node 29, Type 1, BuildingBlock: EZIPEK_clean_sbu_0, # of connection points: 12
#     Edge 30, Type (0, 1), BuildingBlock: UVAHIK_clean_linker_0, # of connection points: 2
#     Edge 31, Type (0, 1), BuildingBlock: UVAHIK_clean_linker_0, # of connection points: 2
#     Edge 32, Type (0, 1), BuildingBlock: UVAHIK_clean_linker_0, # of connection points: 2
#     Edge 33, Type (0, 1), BuildingBlock: UVAHIK_clean_linker_0, # of connection points: 2
#     Edge 34, Type (0, 1), BuildingBlock: UVAHIK_clean_linker_0, # of connection points: 2
#     Edge 35, Type (0, 1), BuildingBlock: UVAHIK_clean_linker_0, # of connection points: 2
#     Edge 36, Type (0, 1), BuildingBlock: UVAHIK_clean_linker_0, # of connection points: 2
#     Edge 37, Type (0, 1), BuildingBlock: UVAHIK_clean_linker_0, # of connection points: 2
#     Edge 38, Type (0, 1), BuildingBlock: UVAHIK_clean_linker_0, # of connection points: 2
#     Edge 39, Type (0, 1), BuildingBlock: UVAHIK_clean_linker_0, # of connection points: 2
#     Edge 40, Type (0, 1), BuildingBlock: UVAHIK_clean_linker_0, # of connection points: 2
#     Edge 41, Type (0, 1), BuildingBlock: UVAHIK_clean_linker_0, # of connection points: 2
#     Edge 42, Type (0, 1), BuildingBlock: UVAHIK_clean_linker_0, # of connection points: 2
#     Edge 43, Type (0, 1), BuildingBlock: UVAHIK_clean_linker_0, # of connection points: 2
#     Edge 44, Type (0, 1), BuildingBlock: UVAHIK_clean_linker_0, # of connection points: 2
#     Edge 45, Type (0, 1), BuildingBlock: UVAHIK_clean_linker_0, # of connection points: 2
#     Edge 46, Type (0, 1), BuildingBlock: UVAHIK_clean_linker_0, # of connection points: 2
#     Edge 47, Type (0, 1), BuildingBlock: UVAHIK_clean_linker_0, # of connection points: 2
#     Edge 48, Type (0, 1), BuildingBlock: UVAHIK_clean_linker_0, # of connection points: 2
#     Edge 49, Type (0, 1), BuildingBlock: UVAHIK_clean_linker_0, # of connection points: 2
#     Edge 50, Type (0, 1), BuildingBlock: UVAHIK_clean_linker_0, # of connection points: 2
#     Edge 51, Type (0, 1), BuildingBlock: UVAHIK_clean_linker_0, # of connection points: 2
#     Edge 52, Type (0, 1), BuildingBlock: UVAHIK_clean_linker_0, # of connection points: 2
#     Edge 53, Type (0, 1), BuildingBlock: UVAHIK_clean_linker_0, # of connection points: 2
#     Edge 54, Type (0, 1), BuildingBlock: UVAHIK_clean_linker_0, # of connection points: 2
#     Edge 55, Type (0, 1), BuildingBlock: UVAHIK_clean_linker_0, # of connection points: 2
#     Edge 56, Type (0, 1), BuildingBlock: UVAHIK_clean_linker_0, # of connection points: 2
#     Edge 57, Type (0, 1), BuildingBlock: UVAHIK_clean_linker_0, # of connection points: 2
#     Edge 58, Type (0, 1), BuildingBlock: UVAHIK_clean_linker_0, # of connection points: 2
#     Edge 59, Type (0, 1), BuildingBlock: UVAHIK_clean_linker_0, # of connection points: 2
#     Edge 60, Type (0, 1), BuildingBlock: UVAHIK_clean_linker_0, # of connection points: 2
#     Edge 61, Type (0, 1), BuildingBlock: UVAHIK_clean_linker_0, # of connection points: 2
#     Edge 62, Type (0, 1), BuildingBlock: UVAHIK_clean_linker_0, # of connection points: 2
#     Edge 63, Type (0, 1), BuildingBlock: UVAHIK_clean_linker_0, # of connection points: 2
#     Edge 64, Type (0, 1), BuildingBlock: UVAHIK_clean_linker_0, # of connection points: 2
#     Edge 65, Type (0, 1), BuildingBlock: UVAHIK_clean_linker_0, # of connection points: 2
#     Edge 66, Type (0, 1), BuildingBlock: UVAHIK_clean_linker_0, # of connection points: 2
#     Edge 67, Type (0, 1), BuildingBlock: UVAHIK_clean_linker_0, # of connection points: 2
#     Edge 68, Type (0, 1), BuildingBlock: UVAHIK_clean_linker_0, # of connection points: 2
#     Edge 69, Type (0, 1), BuildingBlock: UVAHIK_clean_linker_0, # of connection points: 2
#     Edge 70, Type (0, 1), BuildingBlock: UVAHIK_clean_linker_0, # of connection points: 2
#     Edge 71, Type (0, 1), BuildingBlock: UVAHIK_clean_linker_0, # of connection points: 2
#     Edge 72, Type (0, 1), BuildingBlock: UVAHIK_clean_linker_0, # of connection points: 2
#     Edge 73, Type (0, 1), BuildingBlock: UVAHIK_clean_linker_0, # of connection points: 2
#     Edge 74, Type (0, 1), BuildingBlock: UVAHIK_clean_linker_0, # of connection points: 2
#     Edge 75, Type (0, 1), BuildingBlock: UVAHIK_clean_linker_0, # of connection points: 2
#     Edge 76, Type (0, 1), BuildingBlock: UVAHIK_clean_linker_0, # of connection points: 2
#     Edge 77, Type (0, 1), BuildingBlock: UVAHIK_clean_linker_0, # of connection points: 2
#     Edge 78, Type (0, 1), BuildingBlock: UVAHIK_clean_linker_0, # of connection points: 2
#     Edge 79, Type (0, 1), BuildingBlock: UVAHIK_clean_linker_0, # of connection points: 2
#     Edge 80, Type (0, 1), BuildingBlock: UVAHIK_clean_linker_0, # of connection points: 2
#     Edge 81, Type (0, 1), BuildingBlock: UVAHIK_clean_linker_0, # of connection points: 2
#     Edge 82, Type (0, 1), BuildingBlock: UVAHIK_clean_linker_0, # of connection points: 2
#     Edge 83, Type (0, 1), BuildingBlock: UVAHIK_clean_linker_0, # of connection points: 2
#     Edge 84, Type (0, 1), BuildingBlock: UVAHIK_clean_linker_0, # of connection points: 2
#     Edge 85, Type (0, 1), BuildingBlock: UVAHIK_clean_linker_0, # of connection points: 2
#     Edge 86, Type (0, 1), BuildingBlock: UVAHIK_clean_linker_0, # of connection points: 2
#     Edge 87, Type (0, 1), BuildingBlock: UVAHIK_clean_linker_0, # of connection points: 2
#     Edge 88, Type (0, 1), BuildingBlock: UVAHIK_clean_linker_0, # of connection points: 2
#     Edge 89, Type (0, 1), BuildingBlock: UVAHIK_clean_linker_0, # of connection points: 2
#     Edge 90, Type (0, 1), BuildingBlock: UVAHIK_clean_linker_0, # of connection points: 2
#     Edge 91, Type (0, 1), BuildingBlock: UVAHIK_clean_linker_0, # of connection points: 2
#     Edge 92, Type (0, 1), BuildingBlock: UVAHIK_clean_linker_0, # of connection points: 2
#     Edge 93, Type (0, 1), BuildingBlock: UVAHIK_clean_linker_0, # of connection points: 2
#     Edge 94, Type (0, 1), BuildingBlock: UVAHIK_clean_linker_0, # of connection points: 2
#     Edge 95, Type (0, 1), BuildingBlock: UVAHIK_clean_linker_0, # of connection points: 2
#     Edge 96, Type (0, 1), BuildingBlock: UVAHIK_clean_linker_0, # of connection points: 2
#     Edge 97, Type (0, 1), BuildingBlock: UVAHIK_clean_linker_0, # of connection points: 2
#     Edge 98, Type (0, 1), BuildingBlock: UVAHIK_clean_linker_0, # of connection points: 2
#     Edge 99, Type (0, 1), BuildingBlock: UVAHIK_clean_linker_0, # of connection points: 2
#     Edge 100, Type (0, 1), BuildingBlock: UVAHIK_clean_linker_0, # of connection points: 2
#     Edge 101, Type (0, 1), BuildingBlock: UVAHIK_clean_linker_0, # of connection points: 2
# Relax obj value: 0.047
# Max RMSD: 0.089
# Mean RMSD: 0.075
data_MOF--net-llk--node1-OLANEW_clean_sbu_2--node2-EZIPEK_clean_sbu_0--edge1-UVAHIK_clean_linker_0
_symmetry_space_group_name_H-M    P1
_symmetry_Int_Tables_number       1
_symmetry_cell_setting            triclinic
loop_
_symmetry_equiv_pos_as_xyz
'x, y, z'
_cell_length_a     61.141495
_cell_length_b     64.210687
_cell_length_c     62.755899
_cell_angle_alpha  89.976341
_cell_angle_beta   90.002199
_cell_angle_gamma 89.997244
loop_
_atom_site_label
_atom_site_type_symbol
_atom_site_fract_x
_atom_site_fract_y
_atom_site_fract_z
_atom_type_partial_charge
O0 O 0.02858 0.26965 0.29792 0.0
Cd1 Cd 0.02877 0.24168 0.27169 0.0
O2 O 0.00016 0.28 0.2798 0.0
Cd3 Cd 0.9734 0.30018 0.27001 0.0
O4 O 0.96873 0.31893 0.24162 0.0
C5 C 0.98521 0.31779 0.22934 0.0
O6 O 0.00183 0.30609 0.2351 0.0
C7 C 0.0133 0.28276 0.29523 0.0
C8 C 0.01739 0.20525 0.29252 0.0
O9 O 0.03748 0.20959 0.28874 0.0
O10 O 0.00266 0.21786 0.28585 0.0
O11 O 0.72742 0.98748 0.27676 0.0
Cd12 Cd 0.75103 0.98797 0.24541 0.0
O13 O 0.71836 0.02001 0.27047 0.0
Cd14 Cd 0.75094 0.02517 0.25739 0.0
O15 O 0.78158 0.02808 0.27502 0.0
C16 C 0.7959 0.01374 0.27537 0.0
O17 O 0.79339 0.9974 0.26302 0.0
C18 C 0.71484 0.00291 0.28009 0.0
C19 C 0.72337 0.99056 0.2101 0.0
O20 O 0.72944 0.97288 0.21751 0.0
O21 O 0.731 0.00702 0.21893 0.0
O22 O 0.99549 0.72438 0.28753 0.0
Cd23 Cd 0.99411 0.75326 0.26233 0.0
O24 O 0.0281 0.71387 0.27738 0.0
Cd25 Cd 0.02639 0.73147 0.24777 0.0
O26 O 0.01877 0.72023 0.21589 0.0
C27 C 0.00689 0.704 0.21632 0.0
O28 O -0.00012 0.6972 0.23486 0.0
C29 C 0.01198 0.7126 0.2901 0.0
C30 C 0.99496 0.78948 0.28668 0.0
O31 O 0.97679 0.78098 0.28136 0.0
O32 O 0.0127 0.78126 0.27978 0.0
O33 O 0.27199 0.01327 0.27621 0.0
Cd34 Cd 0.24851 0.01271 0.24477 0.0
O35 O 0.28138 0.98086 0.26977 0.0
Cd36 Cd 0.24884 0.97549 0.2567 0.0
O37 O 0.21833 0.97215 0.27446 0.0
C38 C 0.2042 0.98664 0.27546 0.0
O39 O 0.20683 0.00338 0.2637 0.0
C40 C 0.28472 0.99793 0.27949 0.0
C41 C 0.27635 0.01029 0.20958 0.0
O42 O 0.27016 0.02793 0.21698 0.0
O43 O 0.26875 0.99378 0.21835 0.0
O44 O 0.01403 0.71935 0.71647 0.0
Cd45 Cd 0.01656 0.75001 0.73937 0.0
O46 O 0.97852 0.72294 0.71265 0.0
Cd47 Cd 0.97787 0.73675 0.74442 0.0
O48 O 0.98223 0.72145 0.77533 0.0
C49 C 0.98904 0.70282 0.77346 0.0
O50 O 0.99286 0.69557 0.75424 0.0
C51 C 0.99641 0.71459 0.70687 0.0
C52 C 0.01384 0.78496 0.71296 0.0
O53 O 0.03206 0.77556 0.71603 0.0
O54 O 0.99693 0.77825 0.72288 0.0
O55 O 0.27464 0.98718 0.72093 0.0
Cd56 Cd 0.25099 0.9873 0.75228 0.0
O57 O 0.28447 0.01945 0.72757 0.0
Cd58 Cd 0.25252 0.02496 0.74192 0.0
O59 O 0.22118 0.02841 0.72565 0.0
C60 C 0.20615 0.01478 0.72647 0.0
O61 O 0.20835 0.99881 0.73939 0.0
C62 C 0.28743 0.00245 0.71758 0.0
C63 C 0.27821 0.98975 0.78791 0.0
O64 O 0.2724 0.97209 0.78026 0.0
O65 O 0.27058 0.00624 0.77913 0.0
O66 O 0.99627 0.27433 0.70922 0.0
Cd67 Cd 0.99182 0.24605 0.73481 0.0
O68 O 0.02715 0.28646 0.72221 0.0
Cd69 Cd 0.02367 0.26891 0.7517 0.0
O70 O 0.01573 0.28078 0.78326 0.0
C71 C 0.00308 0.29647 0.78254 0.0
O72 O 0.99534 0.30233 0.76394 0.0
C73 C 0.01237 0.28679 0.70799 0.0
C74 C 0.99161 0.20932 0.71127 0.0
O75 O 0.97412 0.22003 0.71382 0.0
O76 O 0.00911 0.21555 0.72052 0.0
O77 O 0.72421 0.01374 0.72068 0.0
Cd78 Cd 0.74836 0.01384 0.75166 0.0
O79 O 0.71398 0.98173 0.72807 0.0
Cd80 Cd 0.746 0.97599 0.74216 0.0
O81 O 0.77715 0.97184 0.72578 0.0
C82 C 0.79243 0.98525 0.72633 0.0
O83 O 0.79059 0.0014 0.73904 0.0
C84 C 0.71114 0.9986 0.7178 0.0
C85 C 0.72165 0.01156 0.78765 0.0
O86 O 0.7273 0.02918 0.7798 0.0
O87 O 0.72923 0.99503 0.77892 0.0
O88 O 0.2794 0.27876 0.98741 0.0
Cd89 Cd 0.25571 0.24815 0.98933 0.0
O90 O 0.28425 0.27748 0.02206 0.0
Cd91 Cd 0.25121 0.26523 0.0257 0.0
O92 O 0.22064 0.28284 0.02754 0.0
C93 C 0.20771 0.2844 0.01176 0.0
O94 O 0.21167 0.2735 0.99447 0.0
C95 C 0.28989 0.28443 0.0039 0.0
C96 C 0.28265 0.21295 0.9913 0.0
O97 O 0.27604 0.2202 0.97339 0.0
O98 O 0.27606 0.22201 0.00833 0.0
O99 O 0.27914 0.72366 0.01205 0.0
Cd100 Cd 0.25571 0.75445 0.01028 0.0
O101 O 0.286 0.72634 0.9778 0.0
Cd102 Cd 0.25353 0.73958 0.97313 0.0
O103 O 0.22261 0.72268 0.97057 0.0
C104 C 0.20947 0.72113 0.98619 0.0
O105 O 0.21345 0.73168 0.0037 0.0
C106 C 0.29048 0.71853 0.9959 0.0
C107 C 0.28283 0.78948 0.00815 0.0
O108 O 0.2763 0.78226 0.0261 0.0
O109 O 0.27609 0.78045 0.99116 0.0
O110 O 0.72089 0.27872 0.01198 0.0
Cd111 Cd 0.7445 0.24807 0.00993 0.0
O112 O 0.71558 0.27738 0.9774 0.0
Cd113 Cd 0.74845 0.26483 0.9734 0.0
O114 O 0.77917 0.28214 0.97112 0.0
C115 C 0.79216 0.28386 0.98684 0.0
O116 O 0.78817 0.27327 0.00433 0.0
C117 C 0.71021 0.2844 0.99559 0.0
C118 C 0.71752 0.21292 0.00785 0.0
O119 O 0.72413 0.2201 0.02578 0.0
O120 O 0.72413 0.22203 0.99085 0.0
O121 O 0.72065 0.72366 0.9878 0.0
Cd122 Cd 0.74429 0.75433 0.98901 0.0
O123 O 0.71439 0.72658 0.02213 0.0
Cd124 Cd 0.74705 0.73957 0.02618 0.0
O125 O 0.77795 0.72253 0.02794 0.0
C126 C 0.79086 0.7213 0.01212 0.0
O127 O 0.78666 0.73225 0.99491 0.0
C128 C 0.70955 0.7187 0.00416 0.0
C129 C 0.71736 0.78948 0.99112 0.0
O130 O 0.72367 0.78211 0.97317 0.0
O131 O 0.72424 0.78055 0.00812 0.0
O132 O 0.50357 0.77582 0.78871 0.0
Cd133 Cd 0.50418 0.74686 0.76362 0.0
O134 O 0.47193 0.7878 0.77742 0.0
Cd135 Cd 0.47367 0.77024 0.7478 0.0
O136 O 0.48123 0.78193 0.71607 0.0
C137 C 0.49308 0.79819 0.7167 0.0
O138 O 0.5001 0.80474 0.73532 0.0
C139 C 0.48761 0.78835 0.79069 0.0
C140 C 0.50298 0.71071 0.7881 0.0
O141 O 0.52123 0.71875 0.78232 0.0
O142 O 0.4853 0.71936 0.7816 0.0
O143 O 0.22741 0.48719 0.77587 0.0
Cd144 Cd 0.25097 0.48746 0.74447 0.0
O145 O 0.21838 0.51968 0.76929 0.0
Cd146 Cd 0.251 0.5247 0.75625 0.0
O147 O 0.28159 0.52784 0.77391 0.0
C148 C 0.29579 0.51341 0.77469 0.0
O149 O 0.29318 0.49678 0.76276 0.0
C150 C 0.21484 0.50266 0.77907 0.0
C151 C 0.22326 0.49005 0.70919 0.0
O152 O 0.22926 0.47237 0.71666 0.0
O153 O 0.23097 0.50651 0.71795 0.0
O154 O 0.46974 0.22949 0.79621 0.0
Cd155 Cd 0.46578 0.25687 0.76966 0.0
O156 O 0.49976 0.22151 0.77939 0.0
Cd157 Cd 0.5288 0.20451 0.76935 0.0
O158 O 0.53542 0.18533 0.7416 0.0
C159 C 0.51908 0.17424 0.73636 0.0
O160 O 0.50144 0.17483 0.74829 0.0
C161 C 0.48648 0.21793 0.79455 0.0
C162 C 0.47368 0.29418 0.79033 0.0
O163 O 0.45419 0.28709 0.78836 0.0
O164 O 0.48938 0.28394 0.78177 0.0
O165 O 0.77151 0.5128 0.77615 0.0
Cd166 Cd 0.74796 0.51232 0.74476 0.0
O167 O 0.78101 0.48043 0.76963 0.0
Cd168 Cd 0.74851 0.47503 0.75645 0.0
O169 O 0.71789 0.47195 0.77406 0.0
C170 C 0.70354 0.48626 0.77449 0.0
O171 O 0.706 0.50266 0.76219 0.0
C172 C 0.78428 0.4975 0.77939 0.0
C173 C 0.77575 0.50984 0.70956 0.0
O174 O 0.76964 0.5275 0.71697 0.0
O175 O 0.7681 0.49335 0.71832 0.0
O176 O 0.50861 0.22408 0.21431 0.0
Cd177 Cd 0.50836 0.25388 0.23841 0.0
O178 O 0.47339 0.21859 0.21839 0.0
Cd179 Cd 0.47381 0.23427 0.24919 0.0
O180 O 0.47994 0.22046 0.28042 0.0
C181 C 0.49162 0.20411 0.27923 0.0
O182 O 0.4993 0.19858 0.26051 0.0
C183 C 0.49117 0.21481 0.20864 0.0
C184 C 0.50622 0.28951 0.21302 0.0
O185 O 0.52466 0.28198 0.21894 0.0
O186 O 0.48877 0.28056 0.21967 0.0
O187 O 0.77544 0.48685 0.22017 0.0
Cd188 Cd 0.7513 0.48642 0.25117 0.0
O189 O 0.78517 0.519 0.22751 0.0
Cd190 Cd 0.75311 0.52429 0.24169 0.0
O191 O 0.72186 0.52803 0.22535 0.0
C192 C 0.70667 0.51456 0.22609 0.0
O193 O 0.70863 0.49854 0.23897 0.0
C194 C 0.78826 0.50219 0.21725 0.0
C195 C 0.77796 0.48874 0.2872 0.0
O196 O 0.77245 0.47112 0.27928 0.0
O197 O 0.77028 0.50525 0.2785 0.0
O198 O 0.49161 0.7766 0.21075 0.0
Cd199 Cd 0.48964 0.7483 0.23661 0.0
O200 O 0.52613 0.78338 0.2178 0.0
Cd201 Cd 0.52473 0.76651 0.24788 0.0
O202 O 0.51839 0.78068 0.27878 0.0
C203 C 0.50902 0.79824 0.27677 0.0
O204 O 0.50363 0.80454 0.25754 0.0
C205 C 0.50915 0.78641 0.20653 0.0
C206 C 0.49194 0.71133 0.21358 0.0
O207 O 0.47345 0.71962 0.21814 0.0
O208 O 0.50931 0.72018 0.22056 0.0
O209 O 0.22448 0.51353 0.2204 0.0
Cd210 Cd 0.2481 0.51292 0.25176 0.0
O211 O 0.21438 0.48127 0.22672 0.0
Cd212 Cd 0.2463 0.47539 0.24098 0.0
O213 O 0.27753 0.47172 0.22458 0.0
C214 C 0.29261 0.48532 0.22524 0.0
O215 O 0.29052 0.50136 0.23806 0.0
C216 C 0.21156 0.49839 0.21689 0.0
C217 C 0.22084 0.51054 0.28736 0.0
O218 O 0.22686 0.52818 0.27981 0.0
O219 O 0.22827 0.49403 0.27849 0.0
O220 O 0.77712 0.7761 0.48761 0.0
Cd221 Cd 0.75337 0.74553 0.48902 0.0
O222 O 0.78308 0.77332 0.52201 0.0
Cd223 Cd 0.75008 0.76106 0.52592 0.0
O224 O 0.71947 0.77858 0.52775 0.0
C225 C 0.70663 0.78015 0.5119 0.0
O226 O 0.71071 0.7693 0.4946 0.0
C227 C 0.78819 0.78099 0.50401 0.0
C228 C 0.78043 0.71045 0.49103 0.0
O229 O 0.77397 0.71778 0.4731 0.0
O230 O 0.7736 0.71935 0.50805 0.0
O231 O 0.78036 0.22061 0.51213 0.0
Cd232 Cd 0.75684 0.25135 0.51 0.0
O233 O 0.78622 0.22205 0.47763 0.0
Cd234 Cd 0.7537 0.23529 0.47322 0.0
O235 O 0.7227 0.21847 0.47083 0.0
C236 C 0.70959 0.21703 0.48648 0.0
O237 O 0.71365 0.22764 0.50393 0.0
C238 C 0.79119 0.21486 0.49587 0.0
C239 C 0.78364 0.28663 0.50801 0.0
O240 O 0.77702 0.27939 0.52592 0.0
O241 O 0.77718 0.27748 0.49099 0.0
O242 O 0.22245 0.77603 0.51175 0.0
Cd243 Cd 0.24561 0.74508 0.50984 0.0
O244 O 0.21578 0.77349 0.47746 0.0
Cd245 Cd 0.24846 0.76072 0.47293 0.0
O246 O 0.27897 0.77832 0.47066 0.0
C247 C 0.29165 0.78042 0.48657 0.0
O248 O 0.28746 0.77005 0.50416 0.0
C249 C 0.21116 0.78119 0.49557 0.0
C250 C 0.21795 0.71045 0.50767 0.0
O251 O 0.22463 0.71751 0.52563 0.0
O252 O 0.22483 0.71941 0.49069 0.0
O253 O 0.21791 0.22121 0.48728 0.0
Cd254 Cd 0.24182 0.2517 0.48881 0.0
O255 O 0.21296 0.22279 0.52191 0.0
Cd256 Cd 0.2458 0.23555 0.52552 0.0
O257 O 0.27677 0.2186 0.52748 0.0
C258 C 0.28998 0.21751 0.51188 0.0
O259 O 0.28605 0.22853 0.49466 0.0
C260 C 0.20741 0.21564 0.50382 0.0
C261 C 0.21537 0.28723 0.49078 0.0
O262 O 0.22172 0.2798 0.47286 0.0
O263 O 0.22196 0.27816 0.50781 0.0
C264 C 0.00035 0.94597 0.55356 0.0
C265 C 6e-05 0.9465 0.45029 0.0
C266 C 0.99903 0.04674 0.55399 0.0
C267 C 0.99902 0.04698 0.45078 0.0
C268 C 0.94612 0.04666 0.50186 0.0
C269 C 0.94738 0.94556 0.50201 0.0
C270 C 0.05185 0.04783 0.50238 0.0
C271 C 0.05317 0.94669 0.50161 0.0
C272 C 0.05266 0.99715 0.45052 0.0
C273 C 0.94709 0.99699 0.45019 0.0
C274 C 0.05233 0.99733 0.55416 0.0
C275 C 0.94673 0.99617 0.55388 0.0
Eu276 Eu 0.00016 0.95733 0.50201 0.0
O277 O 0.98032 0.97802 0.48322 0.0
O278 O 0.01947 0.97828 0.52105 0.0
Eu279 Eu 0.95792 0.99621 0.50209 0.0
Eu280 Eu 0.04141 0.99711 0.5023 0.0
O281 O 0.98026 0.97789 0.52091 0.0
O282 O 0.01959 0.97844 0.48333 0.0
Eu283 Eu 0.99956 0.99642 0.54232 0.0
Eu284 Eu -0.00016 0.99674 0.46219 0.0
O285 O 0.97977 0.01483 0.52113 0.0
O286 O 0.97997 0.0149 0.48341 0.0
O287 O 0.01908 0.01545 0.48349 0.0
O288 O 0.01887 0.01519 0.52111 0.0
Eu289 Eu 0.9991 0.03594 0.50235 0.0
O290 O 0.00166 0.93974 0.53331 0.0
O291 O 0.99961 0.93995 0.47049 0.0
O292 O 0.99786 0.05318 0.5338 0.0
O293 O 0.99863 0.05348 0.47098 0.0
O294 O 0.93937 0.02689 0.5029 0.0
O295 O 0.94022 0.96518 0.50088 0.0
O296 O 0.05908 0.02822 0.50132 0.0
O297 O 0.05989 0.96644 0.50308 0.0
O298 O 0.03183 0.99775 0.44429 0.0
O299 O 0.96796 0.99622 0.44408 0.0
O300 O 0.03151 0.99587 0.56032 0.0
O301 O 0.96753 0.99725 0.56014 0.0
O302 O 0.03096 0.05376 0.50328 0.0
O303 O 0.96687 0.05303 0.50122 0.0
O304 O 0.03244 0.94031 0.50056 0.0
O305 O 0.96826 0.93958 0.50308 0.0
O306 O 0.00048 0.96636 0.44409 0.0
O307 O 0.99966 0.02722 0.44434 0.0
O308 O 0.99881 0.96569 0.56012 0.0
O309 O 0.00033 0.02695 0.56039 0.0
O310 O 0.93975 0.99505 0.53372 0.0
O311 O 0.93995 0.99755 0.47033 0.0
O312 O 0.05937 0.99851 0.53402 0.0
O313 O 0.05967 0.99634 0.47068 0.0
C314 C 0.50023 0.95079 0.0512 0.0
C315 C 0.49957 0.05194 0.05102 0.0
C316 C 0.49973 0.95064 0.9481 0.0
C317 C 0.49995 0.05171 0.94784 0.0
C318 C 0.55324 0.00117 0.94795 0.0
C319 C 0.55337 0.00123 0.05115 0.0
C320 C 0.44688 0.00101 0.94801 0.0
C321 C 0.44701 0.00119 0.05124 0.0
C322 C 0.44696 0.05169 0.99922 0.0
C323 C 0.55315 0.05176 -0.00031 0.0
C324 C 0.44706 0.95071 -0.00021 0.0
C325 C 0.55321 0.95077 -0.00046 0.0
Eu326 Eu 0.50019 0.00132 0.04009 0.0
O327 O 0.51953 0.01982 0.01854 0.0
O328 O 0.48077 0.98278 0.01864 0.0
Eu329 Eu 0.54137 0.00126 -0.00044 0.0
Eu330 Eu 0.45884 0.00121 -0.00038 0.0
O331 O 0.51954 0.98277 0.0186 0.0
O332 O 0.48073 0.01974 0.01855 0.0
Eu333 Eu 0.50013 0.96188 -0.00036 0.0
Eu334 Eu 0.50006 0.04059 -0.00052 0.0
O335 O 0.51948 0.98274 0.98054 0.0
O336 O 0.51946 0.01972 0.98048 0.0
O337 O 0.48068 0.01968 0.98051 0.0
O338 O 0.48073 0.98273 0.9806 0.0
Eu339 Eu 0.50007 0.00119 0.95903 0.0
O340 O 0.50082 0.97053 0.05787 0.0
O341 O 0.49992 0.03219 0.05774 0.0
O342 O 0.49936 0.97038 0.94139 0.0
O343 O 0.50026 0.03195 0.94119 0.0
O344 O 0.55971 0.00125 0.96826 0.0
O345 O 0.5598 0.00121 0.03082 0.0
O346 O 0.44044 0.00103 0.96834 0.0
O347 O 0.44054 0.0012 0.03093 0.0
O348 O 0.46777 0.05804 0.99915 0.0
O349 O 0.53233 0.05809 -0.00031 0.0
O350 O 0.46788 0.94439 -0.00029 0.0
O351 O 0.5324 0.94443 -0.00036 0.0
O352 O 0.46765 0.00114 0.94134 0.0
O353 O 0.53247 0.00107 0.9413 0.0
O354 O 0.46779 0.00118 0.05788 0.0
O355 O 0.5326 0.00135 0.05782 0.0
O356 O 0.49955 0.05806 0.0307 0.0
O357 O 0.49979 0.05795 0.96812 0.0
O358 O 0.49965 0.94451 0.03094 0.0
O359 O 0.50031 0.9444 0.96837 0.0
O360 O 0.55979 0.97061 -0.00046 0.0
O361 O 0.55975 0.03193 -0.00044 0.0
O362 O 0.44045 0.97054 -0.00027 0.0
O363 O 0.4404 0.03185 -0.00051 0.0
C364 C 0.99934 0.45456 0.0494 0.0
C365 C 0.99966 0.45169 0.94644 0.0
C366 C 0.99936 0.55528 0.0466 0.0
C367 C 0.99939 0.55282 0.94367 0.0
C368 C 0.94673 0.55395 0.99619 0.0
C369 C 0.94703 0.45265 0.9971 0.0
C370 C 0.05253 0.55415 0.99528 0.0
C371 C 0.05268 0.45288 0.99807 0.0
C372 C 0.05263 0.50221 0.94479 0.0
C373 C 0.94681 0.50243 0.94477 0.0
C374 C 0.05256 0.50436 0.04823 0.0
C375 C 0.94684 0.50401 0.04817 0.0
Eu376 Eu -0.00018 0.46432 0.99758 0.0
O377 O 0.98025 0.48457 0.97807 0.0
O378 O 0.01933 0.4856 0.0159 0.0
Eu379 Eu 0.95803 0.50335 0.99646 0.0
Eu380 Eu 0.04143 0.50351 0.9965 0.0
O381 O 0.98018 0.48553 0.01589 0.0
O382 O 0.01933 0.48463 0.97803 0.0
Eu383 Eu -0.0003 0.50459 0.03662 0.0
Eu384 Eu -0.00028 0.50251 0.9562 0.0
O385 O 0.98011 0.52236 0.01479 0.0
O386 O 0.98011 0.52142 0.97707 0.0
O387 O 0.01925 0.52147 0.9771 0.0
O388 O 0.01931 0.52249 0.01488 0.0
Eu389 Eu 0.99965 0.54271 0.99543 0.0
O390 O 0.99958 0.44761 0.02937 0.0
O391 O -0.00017 0.44599 0.96687 0.0
O392 O 0.99945 0.56107 0.02618 0.0
O393 O 0.99957 0.5595 0.96379 0.0
O394 O 0.93983 0.53423 0.99742 0.0
O395 O 0.93999 0.47233 0.99575 0.0
O396 O 0.05955 0.53443 0.99493 0.0
O397 O 0.05965 0.47262 0.99829 0.0
O398 O 0.03183 0.50272 0.93838 0.0
O399 O 0.96761 0.50145 0.93841 0.0
O400 O 0.03173 0.50406 0.05454 0.0
O401 O 0.96763 0.50534 0.05446 0.0
O402 O 0.03168 0.56027 0.99577 0.0
O403 O 0.96752 0.56012 0.99483 0.0
O404 O 0.03184 0.44676 0.99752 0.0
O405 O 0.96787 0.44665 0.99834 0.0
O406 O 0.99957 0.47128 0.93924 0.0
O407 O 0.9994 0.53287 0.93757 0.0
O408 O 0.99933 0.47452 0.05528 0.0
O409 O 0.99949 0.53568 0.05367 0.0
O410 O 0.93993 0.50259 0.02803 0.0
O411 O 0.93992 0.50378 0.96492 0.0
O412 O 0.05954 0.50479 0.02806 0.0
O413 O 0.05954 0.50192 0.96498 0.0
C414 C 0.50023 0.45029 0.0527 0.0
C415 C 0.49965 0.55098 0.05382 0.0
C416 C 0.50041 0.45174 0.9493 0.0
C417 C 0.5001 0.5522 0.95044 0.0
C418 C 0.55296 0.50156 0.94987 0.0
C419 C 0.55271 0.50119 0.05351 0.0
C420 C 0.44746 0.50167 0.94961 0.0
C421 C 0.44718 0.50029 0.05325 0.0
C422 C 0.44705 0.55172 0.00155 0.0
C423 C 0.55288 0.55193 0.00223 0.0
C424 C 0.44731 0.45055 0.00109 0.0
C425 C 0.5531 0.45078 0.00087 0.0
Eu426 Eu 0.49997 0.50078 0.04153 0.0
O427 O 0.51955 0.51956 0.0206 0.0
O428 O 0.48048 0.4825 0.02009 0.0
Eu429 Eu 0.54184 0.50133 0.00168 0.0
Eu430 Eu 0.45831 0.50117 0.00147 0.0
O431 O 0.51973 0.48252 0.02024 0.0
O432 O 0.48037 0.51954 0.02054 0.0
Eu433 Eu 0.50018 0.46187 0.00114 0.0
Eu434 Eu 0.49999 0.54066 0.00202 0.0
O435 O 0.5197 0.48308 0.98266 0.0
O436 O 0.51974 0.52009 0.98302 0.0
O437 O 0.48049 0.51995 0.98296 0.0
O438 O 0.48059 0.48294 0.98251 0.0
Eu439 Eu 0.50019 0.5018 0.96165 0.0
O440 O 0.49973 0.47007 0.0592 0.0
O441 O 0.5001 0.53107 0.05989 0.0
O442 O 0.5009 0.47166 0.94336 0.0
O443 O 0.49969 0.53242 0.944 0.0
O444 O 0.56 0.50041 0.97001 0.0
O445 O 0.55982 0.50223 0.0334 0.0
O446 O 0.44031 0.50236 0.96973 0.0
O447 O 0.44016 0.49973 0.03309 0.0
O448 O 0.46785 0.55797 0.00096 0.0
O449 O 0.53206 0.55808 0.0032 0.0
O450 O 0.46813 0.4444 0.00189 0.0
O451 O 0.5323 0.44456 -0.00011 0.0
O452 O 0.46833 0.50102 0.94352 0.0
O453 O 0.53213 0.50268 0.9437 0.0
O454 O 0.468 0.50109 0.05949 0.0
O455 O 0.53186 0.50015 0.05963 0.0
O456 O 0.49934 0.55769 0.03368 0.0
O457 O 0.5005 0.55849 0.97073 0.0
O458 O 0.50067 0.44406 0.0324 0.0
O459 O 0.4998 0.4449 0.9694 0.0
O460 O 0.56001 0.47047 0.00228 0.0
O461 O 0.55987 0.53225 0.00096 0.0
O462 O 0.4403 0.47025 0.00021 0.0
O463 O 0.44013 0.532 0.00246 0.0
C464 C 0.00031 0.44958 0.55103 0.0
C465 C 0.99929 0.44936 0.44782 0.0
C466 C 0.99811 0.55065 0.55081 0.0
C467 C 0.99951 0.55043 0.44769 0.0
C468 C 0.94577 0.55019 0.49896 0.0
C469 C 0.94639 0.44925 0.49987 0.0
C470 C 0.05199 0.55076 0.4996 0.0
C471 C 0.05252 0.44973 0.49909 0.0
C472 C 0.05231 0.50023 0.44767 0.0
C473 C 0.94597 0.49971 0.44788 0.0
C474 C 0.05264 0.50027 0.55084 0.0
C475 C 0.94626 0.49991 0.55113 0.0
Eu476 Eu 0.9994 0.46068 0.49944 0.0
O477 O 0.97986 0.48138 0.48038 0.0
O478 O 0.01877 0.48165 0.51838 0.0
Eu479 Eu 0.95797 0.49978 0.49947 0.0
Eu480 Eu 0.0405 0.50019 0.49929 0.0
O481 O 0.98001 0.48149 0.51854 0.0
O482 O 0.01869 0.48158 0.48033 0.0
Eu483 Eu 0.99944 0.5001 0.53992 0.0
Eu484 Eu 0.99916 0.49991 0.45885 0.0
O485 O 0.97984 0.51838 0.51838 0.0
O486 O 0.97967 0.51837 0.48032 0.0
O487 O 0.0184 0.51855 0.48034 0.0
O488 O 0.01859 0.51871 0.51832 0.0
Eu489 Eu 0.99892 0.5394 0.49928 0.0
O490 O 0.99965 0.44329 0.53078 0.0
O491 O 0.99943 0.44319 0.46814 0.0
O492 O 0.99744 0.55685 0.53053 0.0
O493 O 0.9989 0.55676 0.46793 0.0
O494 O 0.93933 0.53032 0.49938 0.0
O495 O 0.9397 0.46905 0.49967 0.0
O496 O 0.05866 0.53095 0.49927 0.0
O497 O 0.05904 0.46958 0.49921 0.0
O498 O 0.03153 0.49999 0.44106 0.0
O499 O 0.96673 0.4999 0.44119 0.0
O500 O 0.0319 0.50028 0.55757 0.0
O501 O 0.96705 0.49996 0.55774 0.0
O502 O 0.03114 0.55702 0.49978 0.0
O503 O 0.96654 0.55665 0.49872 0.0
O504 O 0.03173 0.44334 0.49916 0.0
O505 O 0.96724 0.44303 0.49983 0.0
O506 O 0.9991 0.46912 0.44114 0.0
O507 O -0.00014 0.53066 0.44108 0.0
O508 O 0.00049 0.46934 0.55767 0.0
O509 O 0.99941 0.53095 0.55756 0.0
O510 O 0.93975 0.49983 0.53083 0.0
O511 O 0.93954 0.49962 0.4682 0.0
O512 O 0.05901 0.50024 0.5305 0.0
O513 O 0.05881 0.50034 0.46798 0.0
C514 C 0.49945 0.94836 0.5479 0.0
C515 C 0.49949 0.9499 0.44503 0.0
C516 C 0.50031 0.04914 0.54943 0.0
C517 C 0.49963 0.05088 0.44637 0.0
C518 C 0.44682 0.05058 0.4985 0.0
C519 C 0.44634 0.94927 0.49647 0.0
C520 C 0.55259 0.05011 0.49727 0.0
C521 C 0.55206 0.94882 0.49738 0.0
C522 C 0.55244 0.99988 0.44561 0.0
C523 C 0.44665 0.00063 0.44544 0.0
C524 C 0.55217 0.99924 0.54905 0.0
C525 C 0.44647 0.99926 0.54887 0.0
Eu526 Eu 0.49926 0.96049 0.49663 0.0
O527 O 0.47981 0.98163 0.47801 0.0
O528 O 0.51892 0.98087 0.51584 0.0
Eu529 Eu 0.45773 0.99986 0.49716 0.0
Eu530 Eu 0.54115 0.99951 0.49729 0.0
O531 O 0.47965 0.98097 0.51584 0.0
O532 O 0.519 0.98143 0.47805 0.0
Eu533 Eu 0.49934 0.99897 0.53735 0.0
Eu534 Eu 0.49953 0.00024 0.45701 0.0
O535 O 0.47999 0.01793 0.5163 0.0
O536 O 0.48001 0.0185 0.47855 0.0
O537 O 0.51912 0.01832 0.47863 0.0
O538 O 0.51899 0.01771 0.51637 0.0
Eu539 Eu 0.49966 0.03897 0.49776 0.0
O540 O 0.49936 0.94241 0.52754 0.0
O541 O 0.49917 0.94336 0.46519 0.0
O542 O 0.50059 0.05595 0.52935 0.0
O543 O 0.49958 0.05694 0.46671 0.0
O544 O 0.43975 0.03087 0.49878 0.0
O545 O 0.43942 0.96902 0.49581 0.0
O546 O 0.55946 0.03036 0.49635 0.0
O547 O 0.55912 0.96849 0.49848 0.0
O548 O 0.53166 0.00097 0.43923 0.0
O549 O 0.46747 0.9999 0.43911 0.0
O550 O 0.53135 0.99824 0.5553 0.0
O551 O 0.46728 0.99961 0.55522 0.0
O552 O 0.5318 0.05633 0.4982 0.0
O553 O 0.46768 0.05664 0.49786 0.0
O554 O 0.53122 0.94281 0.49611 0.0
O555 O 0.46716 0.94309 0.49714 0.0
O556 O 0.49972 0.96978 0.43875 0.0
O557 O 0.49964 0.03117 0.43959 0.0
O558 O 0.49941 0.96803 0.55478 0.0
O559 O 0.49961 0.02927 0.55558 0.0
O560 O 0.43954 0.99877 0.52868 0.0
O561 O 0.4397 0.00125 0.46561 0.0
O562 O 0.55916 0.00035 0.52891 0.0
O563 O 0.5593 0.99866 0.46578 0.0
C564 C 0.18999 0.18537 0.48547 0.0
C565 C 0.19007 0.19972 0.50234 0.0
C566 C 0.1749 0.16904 0.48511 0.0
C567 C 0.13701 0.13998 0.52097 0.0
H568 H 0.11551 0.11726 0.46768 0.0
C569 C 0.06399 0.0832 0.5137 0.0
C570 C 0.0683 0.06462 0.50265 0.0
C571 C 0.07925 0.09936 0.51374 0.0
C572 C 0.12154 0.12342 0.48264 0.0
H573 H 0.17382 0.20887 0.53155 0.0
H574 H 0.14672 0.18112 0.53039 0.0
H575 H 0.14021 0.14712 0.46715 0.0
H576 H 0.09183 0.04836 0.48288 0.0
H577 H 0.11836 0.07706 0.48244 0.0
H578 H 0.11744 0.11669 0.53635 0.0
C579 C 0.15886 0.18184 0.51786 0.0
C580 C 0.13577 0.14046 0.48239 0.0
C581 C 0.17425 0.1979 0.51844 0.0
C582 C 0.08816 0.06249 0.49161 0.0
C583 C 0.10324 0.07888 0.49125 0.0
C584 C 0.12244 0.12323 0.52119 0.0
C585 C 0.15923 0.16692 0.50141 0.0
C586 C 0.14375 0.14897 0.50157 0.0
C587 C 0.09889 0.0974 0.50237 0.0
C588 C 0.11466 0.1148 0.50204 0.0
H589 H 0.20214 0.18628 0.47294 0.0
H590 H 0.17601 0.15774 0.47236 0.0
H591 H 0.14315 0.14567 0.53606 0.0
H592 H 0.04886 0.0852 0.52245 0.0
H593 H 0.07555 0.11354 0.52236 0.0
C594 C 0.80771 0.18446 0.51482 0.0
C595 C 0.80821 0.19866 0.49781 0.0
C596 C 0.82249 0.16787 0.5156 0.0
C597 C 0.8605 0.13789 0.4807 0.0
H598 H 0.88102 0.11564 0.53458 0.0
C599 C 0.93358 0.08164 0.48984 0.0
C600 C 0.92935 0.06314 0.50107 0.0
C601 C 0.9181 0.09758 0.48931 0.0
C602 C 0.87524 0.12164 0.51946 0.0
H603 H 0.82516 0.20728 0.46881 0.0
H604 H 0.8517 0.17909 0.47069 0.0
H605 H 0.85653 0.14566 0.53438 0.0
H606 H 0.90572 0.04678 0.52064 0.0
H607 H 0.87875 0.07515 0.52024 0.0
H608 H 0.88014 0.11432 0.4659 0.0
C609 C 0.83935 0.18012 0.48301 0.0
C610 C 0.86115 0.13879 0.51929 0.0
C611 C 0.82428 0.19644 0.48201 0.0
C612 C 0.90932 0.06085 0.51178 0.0
C613 C 0.894 0.07705 0.51166 0.0
C614 C 0.87492 0.12104 0.4809 0.0
C615 C 0.8384 0.16535 0.49959 0.0
C616 C 0.85358 0.14717 0.49989 0.0
C617 C 0.89829 0.0955 0.50037 0.0
C618 C 0.88238 0.11279 0.50027 0.0
H619 H 0.79536 0.18567 0.52713 0.0
H620 H 0.82095 0.15672 0.52844 0.0
H621 H 0.85466 0.14348 0.46546 0.0
H622 H 0.94883 0.08376 0.48133 0.0
H623 H 0.92177 0.11171 0.48058 0.0
C624 C 0.82203 0.79777 0.5183 0.0
C625 C 0.80582 0.79662 0.50252 0.0
C626 C 0.83786 0.81344 0.51764 0.0
C627 C 0.86147 0.85453 0.48224 0.0
H628 H 0.88148 0.87729 0.53607 0.0
C629 C 0.91091 0.93134 0.4913 0.0
C630 C 0.93083 0.92887 0.50216 0.0
C631 C 0.8956 0.91517 0.49098 0.0
C632 C 0.87602 0.87101 0.52095 0.0
H633 H 0.79345 0.81087 0.47362 0.0
H634 H 0.82038 0.83872 0.47292 0.0
H635 H 0.85494 0.84899 0.53598 0.0
H636 H 0.95021 0.90788 0.5216 0.0
H637 H 0.9231 0.87988 0.52155 0.0
H638 H 0.8821 0.87733 0.46737 0.0
C639 C 0.82144 0.82719 0.48547 0.0
C640 C 0.86097 0.85467 0.52084 0.0
C641 C 0.80589 0.81126 0.4859 0.0
C642 C 0.93503 0.91014 0.51299 0.0
C643 C 0.91953 0.89419 0.51306 0.0
C644 C 0.8762 0.87117 0.48238 0.0
C645 C 0.83755 0.82861 0.50143 0.0
C646 C 0.85359 0.84608 0.50148 0.0
C647 C 0.89979 0.89652 0.50193 0.0
C648 C 0.88368 0.87942 0.50174 0.0
H649 H 0.82247 0.78656 0.53121 0.0
H650 H 0.8503 0.81364 0.52992 0.0
H651 H 0.85652 0.84816 0.46702 0.0
H652 H 0.90733 0.94559 0.48274 0.0
H653 H 0.8804 0.91728 0.48237 0.0
C654 C 0.17758 0.79884 0.4818 0.0
C655 C 0.19391 0.79716 0.49741 0.0
C656 C 0.16214 0.81484 0.48278 0.0
C657 C 0.1397 0.85585 0.51891 0.0
H658 H 0.1196 0.87964 0.46557 0.0
C659 C 0.08999 0.93274 0.51168 0.0
C660 C 0.07003 0.93031 0.50088 0.0
C661 C 0.10549 0.91672 0.51151 0.0
C662 C 0.1251 0.87309 0.48055 0.0
H663 H 0.2069 0.81081 0.52636 0.0
H664 H 0.18063 0.83921 0.52763 0.0
H665 H 0.14579 0.85104 0.46505 0.0
H666 H 0.05084 0.90961 0.48095 0.0
H667 H 0.07824 0.88193 0.48018 0.0
H668 H 0.1194 0.8786 0.53427 0.0
C669 C 0.17919 0.82786 0.51496 0.0
C670 C 0.13994 0.85658 0.48031 0.0
C671 C 0.19435 0.81161 0.51419 0.0
C672 C 0.06603 0.91183 0.48954 0.0
C673 C 0.0817 0.89606 0.489 0.0
C674 C 0.12517 0.87265 0.51913 0.0
C675 C 0.16297 0.82981 0.49916 0.0
C676 C 0.1473 0.84758 0.49949 0.0
C677 C 0.10145 0.8983 0.50012 0.0
C678 C 0.11764 0.88126 0.49995 0.0
H679 H 0.17675 0.7878 0.46878 0.0
H680 H 0.14959 0.81546 0.47063 0.0
H681 H 0.14466 0.84917 0.53399 0.0
H682 H 0.09341 0.9468 0.5206 0.0
H683 H 0.12069 0.91876 0.52014 0.0
C684 C 0.4728 0.18805 0.18572 0.0
C685 C 0.49184 0.19895 0.19155 0.0
C686 C 0.4737 0.1723 0.1704 0.0
C687 C 0.50742 0.15216 0.12614 0.0
H688 H 0.4748 0.10122 0.13583 0.0
C689 C 0.4975 0.08962 0.06122 0.0
C690 C 0.49899 0.06859 0.06738 0.0
C691 C 0.4968 0.10539 0.07648 0.0
C692 C 0.48415 0.11527 0.13298 0.0
H693 H 0.52668 0.20201 0.18563 0.0
H694 H 0.52819 0.17444 0.15904 0.0
H695 H 0.47332 0.12913 0.16214 0.0
H696 H 0.50099 0.04776 0.09459 0.0
H697 H 0.49999 0.07539 0.12122 0.0
H698 H 0.51859 0.13817 0.09721 0.0
C699 C 0.51256 0.17821 0.16615 0.0
C700 C 0.48308 0.13137 0.14792 0.0
C701 C 0.51168 0.19396 0.18147 0.0
C702 C 0.49978 0.06376 0.08923 0.0
C703 C 0.4991 0.07959 0.10452 0.0
C704 C 0.50849 0.13607 0.11122 0.0
C705 C 0.49361 0.1671 0.16055 0.0
C706 C 0.49468 0.15001 0.14465 0.0
C707 C 0.49761 0.10058 0.0983 0.0
C708 C 0.49682 0.11747 0.11443 0.0
H709 H 0.45726 0.19153 0.19313 0.0
H710 H 0.45873 0.16423 0.16619 0.0
H711 H 0.51641 0.16638 0.12306 0.0
H712 H 0.49673 0.094 0.04457 0.0
H713 H 0.4953 0.12137 0.07116 0.0
C714 C 0.80461 0.48611 0.18466 0.0
C715 C 0.8057 0.501 0.20102 0.0
C716 C 0.82008 0.48606 0.16829 0.0
C717 C 0.8615 0.52036 0.14273 0.0
H718 H 0.87971 0.46893 0.11561 0.0
C719 C 0.93441 0.51412 0.08459 0.0
C720 C 0.93016 0.50404 0.06515 0.0
C721 C 0.91894 0.51383 0.10093 0.0
C722 C 0.87461 0.48339 0.12298 0.0
H723 H 0.82434 0.52694 0.21358 0.0
H724 H 0.8519 0.52631 0.18559 0.0
H725 H 0.85422 0.46772 0.14551 0.0
H726 H 0.90649 0.48568 0.04756 0.0
H727 H 0.87955 0.4848 0.07648 0.0
H728 H 0.88258 0.53587 0.12054 0.0
C729 C 0.83867 0.51513 0.1849 0.0
C730 C 0.85996 0.48275 0.14006 0.0
C731 C 0.82298 0.5154 0.20107 0.0
C732 C 0.91013 0.49367 0.06235 0.0
C733 C 0.89482 0.49304 0.07889 0.0
C734 C 0.87642 0.52094 0.1259 0.0
C735 C 0.83722 0.50069 0.16808 0.0
C736 C 0.85316 0.50124 0.15014 0.0
C737 C 0.89911 0.50315 0.09829 0.0
C738 C 0.88305 0.50248 0.11587 0.0
H739 H 0.79137 0.47491 0.18411 0.0
H740 H 0.81818 0.47491 0.15549 0.0
H741 H 0.8563 0.53496 0.1497 0.0
H742 H 0.94966 0.52234 0.08715 0.0
H743 H 0.92264 0.52165 0.1158 0.0
C744 C 0.49359 0.80195 0.17324 0.0
C745 C 0.50937 0.80229 0.18952 0.0
C746 C 0.49307 0.81771 0.15788 0.0
C747 C 0.50542 0.8722 0.15031 0.0
H748 H 0.50615 0.85991 0.08985 0.0
C749 C 0.51114 0.93735 0.08708 0.0
C750 C 0.50045 0.93428 0.06754 0.0
C751 C 0.51229 0.92123 0.10202 0.0
C752 C 0.50553 0.86366 0.10665 0.0
H753 H 0.53698 0.81932 0.20249 0.0
H754 H 0.53567 0.84713 0.17589 0.0
H755 H 0.50792 0.83149 0.11557 0.0
H756 H 0.48183 0.91232 0.04859 0.0
H757 H 0.48292 0.88458 0.07494 0.0
H758 H 0.5022 0.90423 0.14165 0.0
C759 C 0.5239 0.83455 0.17496 0.0
C760 C 0.5067 0.84735 0.12134 0.0
C761 C 0.52471 0.81858 0.19005 0.0
C762 C 0.49044 0.91502 0.06343 0.0
C763 C 0.49122 0.89906 0.07851 0.0
C764 C 0.50382 0.8885 0.13565 0.0
C765 C 0.50802 0.83428 0.15882 0.0
C766 C 0.50675 0.85151 0.14327 0.0
C767 C 0.5024 0.90183 0.0979 0.0
C768 C 0.50393 0.88447 0.1136 0.0
H769 H 0.48159 0.78957 0.17243 0.0
H770 H 0.48063 0.81725 0.14559 0.0
H771 H 0.50519 0.87573 0.16719 0.0
H772 H 0.51917 0.952 0.09057 0.0
H773 H 0.52135 0.92389 0.11658 0.0
C774 C 0.19583 0.5154 0.18452 0.0
C775 C 0.1943 0.5002 0.20054 0.0
C776 C 0.18043 0.51615 0.1681 0.0
C777 C 0.13784 0.48363 0.14182 0.0
H778 H 0.12132 0.53622 0.11599 0.0
C779 C 0.0646 0.49391 0.08465 0.0
C780 C 0.06923 0.50384 0.06521 0.0
C781 C 0.08019 0.49337 0.10087 0.0
C782 C 0.12594 0.52144 0.123 0.0
H783 H 0.17502 0.47438 0.21244 0.0
H784 H 0.14756 0.47626 0.18441 0.0
H785 H 0.14698 0.53594 0.14577 0.0
H786 H 0.09368 0.5211 0.04749 0.0
H787 H 0.12085 0.52062 0.07625 0.0
H788 H 0.11604 0.46933 0.11944 0.0
C789 C 0.16108 0.48714 0.18399 0.0
C790 C 0.1407 0.52122 0.14 0.0
C791 C 0.17671 0.48616 0.20019 0.0
C792 C 0.08974 0.51329 0.0623 0.0
C793 C 0.10519 0.51311 0.07873 0.0
C794 C 0.12279 0.48392 0.12509 0.0
C795 C 0.16291 0.50195 0.16752 0.0
C796 C 0.1469 0.5023 0.14962 0.0
C797 C 0.10054 0.50308 0.0981 0.0
C798 C 0.11677 0.50281 0.11553 0.0
H799 H 0.20933 0.52632 0.18427 0.0
H800 H 0.18265 0.52755 0.15557 0.0
H801 H 0.14255 0.46871 0.14842 0.0
H802 H 0.04898 0.48635 0.08728 0.0
H803 H 0.07623 0.48562 0.11572 0.0
C804 C 0.47466 0.82205 0.80609 0.0
C805 C 0.48781 0.8042 0.80774 0.0
C806 C 0.47582 0.8377 0.82148 0.0
C807 C 0.51182 0.85746 0.86474 0.0
H808 H 0.46026 0.88939 0.87985 0.0
C809 C 0.50771 0.91431 0.93612 0.0
C810 C 0.49913 0.93417 0.93171 0.0
C811 C 0.50665 0.89853 0.92086 0.0
C812 C 0.4748 0.88066 0.87565 0.0
H813 H 0.51198 0.78838 0.82716 0.0
H814 H 0.51338 0.81525 0.85451 0.0
H815 H 0.45717 0.861 0.85423 0.0
H816 H 0.48267 0.95306 0.90795 0.0
H817 H 0.48048 0.92524 0.8814 0.0
H818 H 0.52922 0.87686 0.88675 0.0
C819 C 0.50268 0.81756 0.84097 0.0
C820 C 0.47308 0.86444 0.86092 0.0
C821 C 0.50176 0.80206 0.82538 0.0
C822 C 0.48952 0.93794 0.91174 0.0
C823 C 0.48813 0.92203 0.89662 0.0
C824 C 0.51344 0.87347 0.87972 0.0
C825 C 0.48992 0.83572 0.83909 0.0
C826 C 0.4916 0.85268 0.85518 0.0
C827 C 0.49667 0.9022 0.90107 0.0
C828 C 0.49497 0.88526 0.88521 0.0
H829 H 0.46388 0.82424 0.79256 0.0
H830 H 0.46603 0.85158 0.81926 0.0
H831 H 0.52653 0.84907 0.86044 0.0
H832 H 0.51531 0.91098 0.95133 0.0
H833 H 0.51325 0.88332 0.92469 0.0
C834 C 0.19793 0.48631 0.81122 0.0
C835 C 0.19712 0.50133 0.79497 0.0
C836 C 0.18206 0.48602 0.82723 0.0
C837 C 0.13942 0.51964 0.8519 0.0
H838 H 0.12137 0.46777 0.87827 0.0
C839 C 0.06512 0.51167 0.9082 0.0
C840 C 0.06941 0.5021 0.92791 0.0
C841 C 0.08086 0.51158 0.89211 0.0
C842 C 0.1264 0.48235 0.87108 0.0
H843 H 0.17862 0.52727 0.78218 0.0
H844 H 0.15035 0.52618 0.80947 0.0
H845 H 0.14767 0.46713 0.84903 0.0
H846 H 0.09337 0.48477 0.9462 0.0
H847 H 0.12078 0.48416 0.91769 0.0
H848 H 0.11742 0.53467 0.87358 0.0
C849 C 0.16366 0.5151 0.81041 0.0
C850 C 0.14153 0.48204 0.8544 0.0
C851 C 0.17976 0.51563 0.79464 0.0
C852 C 0.0897 0.49234 0.93119 0.0
C853 C 0.10529 0.49188 0.9149 0.0
C854 C 0.124 0.51988 0.8683 0.0
C855 C 0.16478 0.5005 0.82713 0.0
C856 C 0.14831 0.5007 0.84462 0.0
C857 C 0.10099 0.50157 0.89528 0.0
C858 C 0.11744 0.50126 0.87806 0.0
H859 H 0.21123 0.47519 0.81198 0.0
H860 H 0.18373 0.47477 0.83997 0.0
H861 H 0.14456 0.53437 0.84516 0.0
H862 H 0.04966 0.51943 0.90529 0.0
H863 H 0.07719 0.51907 0.87706 0.0
C864 C 0.48073 0.20226 0.83042 0.0
C865 C 0.48976 0.20072 0.80991 0.0
C866 C 0.48269 0.18587 0.8449 0.0
C867 C 0.51342 0.13712 0.85581 0.0
H868 H 0.4636 0.12568 0.89225 0.0
C869 C 0.50612 0.06416 0.91037 0.0
C870 C 0.49945 0.06823 0.93141 0.0
C871 C 0.50551 0.07991 0.89496 0.0
C872 C 0.47768 0.12877 0.88225 0.0
H873 H 0.50768 0.18053 0.78851 0.0
H874 H 0.51088 0.1518 0.81356 0.0
H875 H 0.46159 0.15389 0.86642 0.0
H876 H 0.48678 0.09199 0.95271 0.0
H877 H 0.48554 0.11928 0.92581 0.0
H878 H 0.52929 0.1116 0.87159 0.0
C879 C 0.50275 0.16592 0.81867 0.0
C880 C 0.47659 0.145 0.86751 0.0
C881 C 0.50096 0.18245 0.80425 0.0
C882 C 0.49213 0.08833 0.93669 0.0
C883 C 0.49127 0.10394 0.92126 0.0
C884 C 0.51442 0.1207 0.87045 0.0
C885 C 0.49347 0.16736 0.83912 0.0
C886 C 0.49454 0.14957 0.85428 0.0
C887 C 0.49791 0.0999 0.90025 0.0
C888 C 0.49664 0.11656 0.88397 0.0
H889 H 0.47214 0.21621 0.83533 0.0
H890 H 0.47575 0.18775 0.86066 0.0
H891 H 0.52762 0.14031 0.84603 0.0
H892 H 0.51195 0.04886 0.90582 0.0
H893 H 0.51063 0.07638 0.87884 0.0
C894 C 0.81946 0.48491 0.79512 0.0
C895 C 0.802 0.4991 0.79528 0.0
C896 C 0.83561 0.48578 0.81084 0.0
C897 C 0.8577 0.51975 0.85404 0.0
H898 H 0.88225 0.46768 0.87429 0.0
C899 C 0.90972 0.51175 0.93085 0.0
C900 C 0.93002 0.50191 0.92791 0.0
C901 C 0.89413 0.51165 0.91457 0.0
C902 C 0.87556 0.48232 0.86869 0.0
H903 H 0.78772 0.52535 0.81195 0.0
H904 H 0.81531 0.52637 0.83983 0.0
H905 H 0.85503 0.46724 0.84592 0.0
H906 H 0.94976 0.48383 0.90592 0.0
H907 H 0.92224 0.48325 0.87769 0.0
H908 H 0.87782 0.53464 0.87751 0.0
C909 C 0.81703 0.51495 0.82726 0.0
C910 C 0.86009 0.48213 0.85233 0.0
C911 C 0.80111 0.51431 0.81132 0.0
C912 C 0.9343 0.49167 0.90856 0.0
C913 C 0.91856 0.49123 0.89247 0.0
C914 C 0.87288 0.51988 0.87067 0.0
C915 C 0.83444 0.50061 0.82731 0.0
C916 C 0.85101 0.50086 0.8447 0.0
C917 C 0.89842 0.50134 0.89529 0.0
C918 C 0.882 0.50118 0.87804 0.0
H919 H 0.82067 0.47312 0.78283 0.0
H920 H 0.84901 0.47479 0.81003 0.0
H921 H 0.85142 0.53451 0.84837 0.0
H922 H 0.90604 0.51982 0.94557 0.0
H923 H 0.87864 0.51946 0.91709 0.0
C924 C 0.69254 0.68805 0.9861 0.0
C925 C 0.69226 0.70273 0.00268 0.0
C926 C 0.6774 0.67176 0.98573 0.0
C927 C 0.63866 0.64344 0.02125 0.0
H928 H 0.61784 0.6203 0.96789 0.0
C929 C 0.56537 0.58712 0.0137 0.0
C930 C 0.56953 0.56852 0.00264 0.0
C931 C 0.5808 0.60312 0.01383 0.0
C932 C 0.62368 0.62657 0.98287 0.0
H933 H 0.67536 0.71247 0.03133 0.0
H934 H 0.64824 0.68475 0.03015 0.0
H935 H 0.64281 0.64995 0.96741 0.0
H936 H 0.59296 0.55204 0.98296 0.0
H937 H 0.61982 0.58044 0.9827 0.0
H938 H 0.61868 0.62046 0.0366 0.0
C939 C 0.66066 0.68521 0.01787 0.0
C940 C 0.63806 0.64349 0.98265 0.0
C941 C 0.67608 0.70125 0.01846 0.0
C942 C 0.58942 0.56619 0.99169 0.0
C943 C 0.60468 0.58242 0.99144 0.0
C944 C 0.62397 0.6268 0.02144 0.0
C945 C 0.66135 0.67001 0.00172 0.0
C946 C 0.64578 0.65215 0.00185 0.0
C947 C 0.60048 0.60097 0.00255 0.0
C948 C 0.61642 0.61822 0.00227 0.0
H949 H 0.70496 0.68869 0.97381 0.0
H950 H 0.67874 0.66023 0.97322 0.0
H951 H 0.6446 0.64927 0.03636 0.0
H952 H 0.55021 0.58928 0.02239 0.0
H953 H 0.57721 0.61734 0.02244 0.0
C954 C 0.30695 0.68786 0.01442 0.0
C955 C 0.30761 0.70243 0.99774 0.0
C956 C 0.32197 0.67148 0.01514 0.0
C957 C 0.36121 0.64273 0.9805 0.0
H958 H 0.3811 0.62001 0.03441 0.0
C959 C 0.43463 0.58686 0.98986 0.0
C960 C 0.43035 0.56826 0.0009 0.0
C961 C 0.41909 0.60276 0.98935 0.0
C962 C 0.37551 0.62616 0.01927 0.0
H963 H 0.32502 0.71187 0.96927 0.0
H964 H 0.35193 0.68399 0.97107 0.0
H965 H 0.35612 0.64965 0.03421 0.0
H966 H 0.40659 0.55167 0.02012 0.0
H967 H 0.37955 0.57993 0.01974 0.0
H968 H 0.38149 0.61966 0.9657 0.0
C969 C 0.33931 0.68461 0.98316 0.0
C970 C 0.36113 0.64308 0.01911 0.0
C971 C 0.32402 0.70074 0.98221 0.0
C972 C 0.41024 0.56583 0.01144 0.0
C973 C 0.39487 0.58197 0.01131 0.0
C974 C 0.37591 0.6261 0.9807 0.0
C975 C 0.33826 0.66952 0.99942 0.0
C976 C 0.35377 0.65161 -0.0003 0.0
C977 C 0.39919 0.60052 0.00022 0.0
C978 C 0.38314 0.61768 8e-05 0.0
H979 H 0.29434 0.68867 0.02651 0.0
H980 H 0.32035 0.66004 0.02772 0.0
H981 H 0.35554 0.64846 0.96525 0.0
H982 H 0.44994 0.58908 0.98147 0.0
H983 H 0.42277 0.61698 0.98076 0.0
C984 C 0.32321 0.30199 0.01836 0.0
C985 C 0.30736 0.30021 0.00229 0.0
C986 C 0.33877 0.3179 0.01762 0.0
C987 C 0.36227 0.35874 0.98176 0.0
H988 H 0.38092 0.38275 0.03548 0.0
C989 C 0.4108 0.43628 0.99043 0.0
C990 C 0.43068 0.43394 0.00139 0.0
C991 C 0.39552 0.42006 0.99018 0.0
C992 C 0.37583 0.37614 0.0204 0.0
H993 H 0.29539 0.31353 0.97278 0.0
H994 H 0.32181 0.34182 0.97193 0.0
H995 H 0.35485 0.35406 0.03548 0.0
H996 H 0.44998 0.41316 0.02115 0.0
H997 H 0.42293 0.38513 0.02124 0.0
H998 H 0.3828 0.38159 0.96682 0.0
C999 C 0.32282 0.33061 0.98478 0.0
C1000 C 0.36106 0.35956 0.02034 0.0
C1001 C 0.30756 0.31443 0.9853 0.0
C1002 C 0.43483 0.41532 0.01245 0.0
C1003 C 0.41937 0.39934 0.0126 0.0
C1004 C 0.3767 0.37563 0.98184 0.0
C1005 C 0.33853 0.3327 0.00104 0.0
C1006 C 0.3542 0.35049 0.00103 0.0
C1007 C 0.3997 0.40152 0.00133 0.0
C1008 C 0.3837 0.38432 0.00116 0.0
H1009 H 0.32354 0.29112 0.03156 0.0
H1010 H 0.35093 0.3186 0.03014 0.0
H1011 H 0.35774 0.35201 0.96658 0.0
H1012 H 0.40727 0.45045 0.9817 0.0
H1013 H 0.38038 0.42205 0.98145 0.0
C1014 C 0.67691 0.30223 0.9814 0.0
C1015 C 0.69285 0.30027 0.99737 0.0
C1016 C 0.66144 0.31821 0.98231 0.0
C1017 C 0.63828 0.35884 0.01857 0.0
H1018 H 0.61942 0.38336 0.96514 0.0
C1019 C 0.58968 0.4364 0.01115 0.0
C1020 C 0.5698 0.43423 0.00016 0.0
C1021 C 0.60499 0.4202 0.01107 0.0
C1022 C 0.62457 0.37661 0.98015 0.0
H1023 H 0.70506 0.31338 0.02688 0.0
H1024 H 0.67877 0.34177 0.02803 0.0
H1025 H 0.6454 0.35459 0.96478 0.0
H1026 H 0.55055 0.41383 0.97998 0.0
H1027 H 0.57763 0.38584 0.97933 0.0
H1028 H 0.61788 0.38159 0.03381 0.0
C1029 C 0.67764 0.33064 0.01512 0.0
C1030 C 0.63929 0.35999 0.98 0.0
C1031 C 0.69282 0.3144 0.01443 0.0
C1032 C 0.56569 0.41584 0.98871 0.0
C1033 C 0.58118 0.39989 0.98824 0.0
C1034 C 0.62389 0.37575 0.01871 0.0
C1035 C 0.66184 0.33289 0.99897 0.0
C1036 C 0.64622 0.35073 0.9992 0.0
C1037 C 0.60084 0.40187 -0.00043 0.0
C1038 C 0.61682 0.38464 -0.00051 0.0
H1039 H 0.67644 0.29144 0.96814 0.0
H1040 H 0.64921 0.31904 0.96986 0.0
H1041 H 0.64287 0.35195 0.03367 0.0
H1042 H 0.59319 0.45039 0.02017 0.0
H1043 H 0.62012 0.42203 0.01985 0.0
C1044 C 0.9799 0.69736 0.67487 0.0
C1045 C 0.99662 0.69843 0.69015 0.0
C1046 C 0.97998 0.68163 0.65946 0.0
C1047 C 0.01618 0.64091 0.63546 0.0
H1048 H 0.96104 0.61835 0.61548 0.0
C1049 C 0.00789 0.56458 0.5868 0.0
C1050 C 0.99723 0.56713 0.56714 0.0
C1051 C 0.00763 0.58059 0.60189 0.0
C1052 C 0.97652 0.62458 0.62094 0.0
H1053 H 0.02629 0.68373 0.7016 0.0
H1054 H 0.02593 0.65583 0.67554 0.0
H1055 H 0.96101 0.64636 0.64174 0.0
H1056 H 0.97744 0.58808 0.54805 0.0
H1057 H 0.97649 0.61581 0.57477 0.0
H1058 H 0.03155 0.6184 0.61514 0.0
C1059 C 0.01318 0.66749 0.67475 0.0
C1060 C 0.97656 0.64075 0.63584 0.0
C1061 C 0.01334 0.68345 0.68983 0.0
C1062 C 0.98592 0.58577 0.56303 0.0
C1063 C 0.98526 0.60156 0.5783 0.0
C1064 C 0.01611 0.62446 0.62092 0.0
C1065 C 0.99654 0.66636 0.65929 0.0
C1066 C 0.99641 0.6492 0.64327 0.0
C1067 C 0.99629 0.59917 0.59775 0.0
C1068 C 0.99629 0.61623 0.6135 0.0
H1069 H 0.96687 0.70878 0.67471 0.0
H1070 H 0.96712 0.68157 0.64761 0.0
H1071 H 0.0318 0.64725 0.64035 0.0
H1072 H 0.0168 0.55041 0.59033 0.0
H1073 H 0.01619 0.57844 0.61685 0.0
C1074 C 0.30328 0.98592 0.68501 0.0
C1075 C 0.3047 0.00094 0.70121 0.0
C1076 C 0.31868 0.98546 0.66858 0.0
C1077 C 0.36102 0.01857 0.64268 0.0
H1078 H 0.37789 0.96641 0.6162 0.0
C1079 C 0.4343 0.00943 0.58534 0.0
C1080 C 0.42975 0.99964 0.56581 0.0
C1081 C 0.4187 0.00972 0.60155 0.0
C1082 C 0.37317 0.98107 0.62339 0.0
H1083 H 0.32381 0.02674 0.71341 0.0
H1084 H 0.35128 0.02535 0.68536 0.0
H1085 H 0.35225 0.96616 0.64599 0.0
H1086 H 0.40541 0.98239 0.54793 0.0
H1087 H 0.37823 0.98244 0.57668 0.0
H1088 H 0.3827 0.03329 0.62046 0.0
C1089 C 0.33783 0.01439 0.6848 0.0
C1090 C 0.35842 0.98099 0.6404 0.0
C1091 C 0.3222 0.01509 0.70102 0.0
C1092 C 0.4093 0.99011 0.5628 0.0
C1093 C 0.39383 0.99004 0.57923 0.0
C1094 C 0.37606 0.01859 0.62594 0.0
C1095 C 0.3361 0.99978 0.66817 0.0
C1096 C 0.3521 0.99975 0.65026 0.0
C1097 C 0.39842 0.9999 0.59869 0.0
C1098 C 0.3822 0.99986 0.61614 0.0
H1099 H 0.28985 0.97492 0.68464 0.0
H1100 H 0.31653 0.97419 0.65592 0.0
H1101 H 0.35621 0.03337 0.64946 0.0
H1102 H 0.44988 0.01702 0.58804 0.0
H1103 H 0.4226 0.01735 0.61647 0.0
C1104 C 0.02601 0.32046 0.69293 0.0
C1105 C 0.01309 0.3025 0.69079 0.0
C1106 C 0.02515 0.33622 0.67759 0.0
C1107 C 0.98959 0.35595 0.63402 0.0
H1108 H 0.04064 0.38906 0.61995 0.0
C1109 C 0.99303 0.41313 0.56306 0.0
C1110 C 0.00122 0.43313 0.56745 0.0
C1111 C 0.99438 0.39736 0.57832 0.0
C1112 C 0.02624 0.38001 0.62387 0.0
H1113 H 0.98985 0.28652 0.67045 0.0
H1114 H 0.98899 0.31356 0.64327 0.0
H1115 H 0.04398 0.36048 0.64539 0.0
H1116 H 0.01734 0.45227 0.59121 0.0
H1117 H 0.02001 0.42449 0.6178 0.0
H1118 H 0.97208 0.37523 0.61198 0.0
C1119 C 0.99924 0.31588 0.65714 0.0
C1120 C 0.0281 0.36367 0.63849 0.0
C1121 C -0.00014 0.30028 0.67264 0.0
C1122 C 0.01077 0.43705 0.58743 0.0
C1123 C 0.01244 0.42115 0.60257 0.0
C1124 C 0.98783 0.37208 0.6192 0.0
C1125 C 0.01156 0.33423 0.6596 0.0
C1126 C 0.00978 0.35144 0.64378 0.0
C1127 C 0.00426 0.40118 0.59813 0.0
C1128 C 0.00612 0.38427 0.61403 0.0
H1129 H 0.03624 0.3227 0.70684 0.0
H1130 H 0.03465 0.35021 0.68021 0.0
H1131 H 0.97501 0.34723 0.63803 0.0
H1132 H 0.98549 0.40966 0.54785 0.0
H1133 H 0.98806 0.38205 0.57449 0.0
C1134 C 0.69495 0.01492 0.68525 0.0
C1135 C 0.69367 1.00004 0.70161 0.0
C1136 C 0.67942 0.01523 0.66894 0.0
C1137 C 0.63729 0.98164 0.64353 0.0
H1138 H 0.61991 0.0334 0.6165 0.0
C1139 C 0.56437 0.98913 0.58555 0.0
C1140 C 0.56881 0.99908 0.56607 0.0
C1141 C 0.57984 0.9892 0.60188 0.0
C1142 C 0.62477 0.01885 0.62385 0.0
H1143 H 0.67465 0.97437 0.71424 0.0
H1144 H 0.64699 0.97546 0.68635 0.0
H1145 H 0.64552 0.03415 0.64632 0.0
H1146 H 0.59281 0.01699 0.54842 0.0
H1147 H 0.61976 0.0175 0.57734 0.0
H1148 H 0.61585 0.96651 0.6214 0.0
C1149 C 0.66041 0.98644 0.68561 0.0
C1150 C 0.63949 0.01922 0.64088 0.0
C1151 C 0.67616 0.98591 0.70172 0.0
C1152 C 0.58902 0.00912 0.56324 0.0
C1153 C 0.60435 0.00952 0.57977 0.0
C1154 C 0.62229 0.98133 0.62676 0.0
C1155 C 0.66203 0.00087 0.66879 0.0
C1156 C 0.646 0.00061 0.65092 0.0
C1157 C 0.59988 0.99952 0.5992 0.0
C1158 C 0.61597 0.99991 0.61675 0.0
H1159 H 0.70838 0.02592 0.68465 0.0
H1160 H 0.68146 0.02637 0.65614 0.0
H1161 H 0.64225 0.96695 0.65047 0.0
H1162 H 0.54898 0.98116 0.58813 0.0
H1163 H 0.57601 0.98146 0.61677 0.0
C1164 C 0.01608 0.29802 0.33158 0.0
C1165 C 0.01089 0.30052 0.30995 0.0
C1166 C 0.01353 0.31455 0.34581 0.0
C1167 C 0.01123 0.37149 0.34885 0.0
H1168 H 0.98433 0.36117 0.40382 0.0
C1169 C 0.99533 0.43747 0.40984 0.0
C1170 C 0.99947 0.43279 0.43137 0.0
C1171 C 0.99551 0.42173 0.39444 0.0
C1172 C 0.99209 0.36429 0.38863 0.0
H1173 H 0.00016 0.32256 0.28597 0.0
H1174 H 0.99546 0.35148 0.31092 0.0
H1175 H 0.98713 0.33298 0.37799 0.0
H1176 H 0.00732 0.40784 0.45347 0.0
H1177 H 0.00803 0.38063 0.42666 0.0
H1178 H 0.01664 0.40268 0.35964 0.0
C1179 C 0.00123 0.33663 0.31689 0.0
C1180 C 0.99364 0.34813 0.37383 0.0
C1181 C 0.0036 0.32001 0.30268 0.0
C1182 C 0.00385 0.41203 0.43709 0.0
C1183 C 0.00414 0.39636 0.4217 0.0
C1184 C 0.00981 0.38764 0.36373 0.0
C1185 C 0.00601 0.33401 0.33864 0.0
C1186 C 0.00343 0.3515 0.35387 0.0
C1187 C -7e-05 0.40098 0.40019 0.0
C1188 C 0.00044 0.38417 0.3839 0.0
H1189 H 0.02186 0.28318 0.33757 0.0
H1190 H 0.01768 0.31216 0.36242 0.0
H1191 H 0.01903 0.37448 0.33366 0.0
H1192 H 0.99176 0.45326 0.40487 0.0
H1193 H 0.99194 0.4258 0.37805 0.0
C1194 C 0.67979 0.01577 0.29585 0.0
C1195 C 0.6971 0.00141 0.29597 0.0
C1196 C 0.66367 0.01504 0.3116 0.0
C1197 C 0.64132 0.98131 0.35491 0.0
H1198 H 0.61742 0.03368 0.37509 0.0
C1199 C 0.58943 0.99013 0.43178 0.0
C1200 C 0.56924 1.00015 0.42876 0.0
C1201 C 0.60503 0.98999 0.41549 0.0
C1202 C 0.62394 0.01896 0.36952 0.0
H1203 H 0.71111 0.97498 0.31259 0.0
H1204 H 0.68356 0.9742 0.34052 0.0
H1205 H 0.64459 0.03379 0.34669 0.0
H1206 H 0.54969 0.01827 0.40664 0.0
H1207 H 0.57722 0.01843 0.37842 0.0
H1208 H 0.62105 0.96668 0.37845 0.0
C1209 C 0.68195 0.98565 0.32796 0.0
C1210 C 0.63937 0.01896 0.35314 0.0
C1211 C 0.69784 0.98615 0.31199 0.0
C1212 C 0.56506 0.0103 0.40934 0.0
C1213 C 0.58081 0.0105 0.39326 0.0
C1214 C 0.62616 0.98137 0.37157 0.0
C1215 C 0.66471 1.00018 0.32807 0.0
C1216 C 0.6482 1.00013 0.34551 0.0
C1217 C 0.60085 0.00023 0.39615 0.0
C1218 C 0.61728 1.00018 0.37891 0.0
H1219 H 0.6787 0.0276 0.28358 0.0
H1220 H 0.65039 0.02617 0.31082 0.0
H1221 H 0.6474 0.96648 0.34926 0.0
H1222 H 0.59303 0.98211 0.44656 0.0
H1223 H 0.62044 0.98205 0.41807 0.0
C1224 C 0.02577 0.67933 0.30585 0.0
C1225 C 0.01193 0.69676 0.30716 0.0
C1226 C 0.02469 0.66361 0.3212 0.0
C1227 C 0.00949 0.65271 0.37606 0.0
H1228 H 0.00087 0.5959 0.35686 0.0
C1229 C 0.99131 0.58659 0.43539 0.0
C1230 C 0.0002 0.56684 0.43125 0.0
C1231 C 0.99251 0.60236 0.42013 0.0
C1232 C 0.00364 0.6116 0.36253 0.0
H1233 H 0.98654 0.71169 0.32585 0.0
H1234 H 0.98507 0.68437 0.353 0.0
H1235 H 0.00444 0.62384 0.33077 0.0
H1236 H 0.01746 0.54811 0.40795 0.0
H1237 H 0.0203 0.57581 0.38159 0.0
H1238 H 0.0094 0.64061 0.40776 0.0
C1239 C 0.99658 0.68286 0.33997 0.0
C1240 C 0.00558 0.62759 0.34756 0.0
C1241 C 0.99738 0.69842 0.32441 0.0
C1242 C 0.01025 0.56313 0.4115 0.0
C1243 C 0.01179 0.57902 0.39635 0.0
C1244 C 0.00792 0.63669 0.39104 0.0
C1245 C 0.01002 0.66521 0.33833 0.0
C1246 C 0.00842 0.64828 0.35421 0.0
C1247 C 0.00298 0.59887 0.40048 0.0
C1248 C 0.00485 0.61592 0.38449 0.0
H1249 H 0.03709 0.67757 0.29269 0.0
H1250 H 0.03532 0.65019 0.3197 0.0
H1251 H 0.01188 0.66855 0.38154 0.0
H1252 H 0.98323 0.58983 0.4504 0.0
H1253 H 0.98507 0.61725 0.42373 0.0
C1254 C 0.31986 0.98528 0.29523 0.0
C1255 C 0.30241 0.99949 0.29541 0.0
C1256 C 0.33593 0.98603 0.31103 0.0
C1257 C 0.35781 0.01958 0.3547 0.0
H1258 H 0.38217 0.96725 0.37448 0.0
C1259 C 0.40961 0.01032 0.43164 0.0
C1260 C 0.42992 0.00055 0.42852 0.0
C1261 C 0.39405 0.01056 0.41532 0.0
C1262 C 0.37552 0.98196 0.36902 0.0
H1263 H 0.2881 0.02566 0.31217 0.0
H1264 H 0.31555 0.02647 0.34019 0.0
H1265 H 0.35506 0.96716 0.34602 0.0
H1266 H 0.44973 0.98298 0.40616 0.0
H1267 H 0.42226 0.98296 0.37788 0.0
H1268 H 0.37787 0.03418 0.37842 0.0
C1269 C 0.31731 0.01513 0.32755 0.0
C1270 C 0.36012 0.98197 0.3526 0.0
C1271 C 0.30147 0.01461 0.31153 0.0
C1272 C 0.43426 0.99075 0.40895 0.0
C1273 C 0.41855 0.99063 0.39283 0.0
C1274 C 0.37292 0.01951 0.37139 0.0
C1275 C 0.33469 0.00075 0.32761 0.0
C1276 C 0.35114 0.0008 0.34511 0.0
C1277 C 0.39839 0.00064 0.39583 0.0
C1278 C 0.38197 0.00071 0.37859 0.0
H1279 H 0.3211 0.97356 0.28288 0.0
H1280 H 0.34932 0.97502 0.3102 0.0
H1281 H 0.35159 0.03441 0.34915 0.0
H1282 H 0.40589 0.01806 0.44654 0.0
H1283 H 0.37854 0.01829 0.41798 0.0
C1284 C 0.99201 0.18696 0.31738 0.0
C1285 C 0.01153 0.18702 0.30556 0.0
C1286 C 0.98773 0.17095 0.33185 0.0
C1287 C 0.999 0.11755 0.34599 0.0
H1288 H 0.99705 0.13546 0.40498 0.0
C1289 C 0.00942 0.05925 0.41455 0.0
C1290 C 0.99868 0.06293 0.43394 0.0
C1291 C 0.00896 0.07412 0.39837 0.0
C1292 C 0.99704 0.13012 0.38862 0.0
H1293 H 0.04127 0.16993 0.29864 0.0
H1294 H 0.03336 0.1415 0.3235 0.0
H1295 H 0.99852 0.16134 0.37664 0.0
H1296 H 0.97868 0.08477 0.45158 0.0
H1297 H 0.97694 0.11043 0.42299 0.0
H1298 H 0.99699 0.08639 0.35767 0.0
C1299 C 0.0216 0.15401 0.32172 0.0
C1300 C 0.998 0.14499 0.37243 0.0
C1301 C 0.02614 0.17026 0.30762 0.0
C1302 C 0.9873 0.08168 0.43684 0.0
C1303 C 0.9864 0.0964 0.42045 0.0
C1304 C 0.99754 0.10266 0.36214 0.0
C1305 C 0.00264 0.15453 0.33429 0.0
C1306 C 0.99937 0.13879 0.35106 0.0
C1307 C 0.9973 0.09285 0.40101 0.0
C1308 C 0.99702 0.10872 0.38372 0.0
H1309 H 0.98052 0.19975 0.31616 0.0
H1310 H 0.973 0.17157 0.34143 0.0
H1311 H -8e-05 0.1125 0.32954 0.0
H1312 H 0.01851 0.04498 0.412 0.0
H1313 H 0.01805 0.07099 0.38392 0.0
C1314 C 0.81215 0.02812 0.3089 0.0
C1315 C 0.81331 0.01403 0.29177 0.0
C1316 C 0.82702 0.02685 0.32575 0.0
C1317 C 0.88109 0.00805 0.34129 0.0
H1318 H 0.85651 0.00466 0.39817 0.0
C1319 C 0.93515 0.98795 0.41336 0.0
C1320 C 0.93073 0.9977 0.43291 0.0
C1321 C 0.92059 0.98975 0.39634 0.0
C1322 C 0.86374 0.00593 0.38248 0.0
H1323 H 0.83159 0.98816 0.27848 0.0
H1324 H 0.8579 0.98628 0.30779 0.0
H1325 H 0.83237 0.00936 0.36763 0.0
H1326 H 0.90754 0.01688 0.45009 0.0
H1327 H 0.8824 0.02073 0.42014 0.0
H1328 H 0.91246 0.00525 0.35595 0.0
C1329 C 0.84532 0.99816 0.30818 0.0
C1330 C 0.84986 0.00854 0.36498 0.0
C1331 C 0.83024 0.99922 0.29144 0.0
C1332 C 0.91125 0.00903 0.43524 0.0
C1333 C 0.89682 0.01117 0.41805 0.0
C1334 C 0.89501 0.00577 0.35881 0.0
C1335 C 0.84356 0.01169 0.32569 0.0
C1336 C 0.8584 0.0095 0.34422 0.0
C1337 C 0.90141 0.00171 0.39828 0.0
C1338 C 0.88652 0.00451 0.37965 0.0
H1339 H 0.79931 0.03971 0.30968 0.0
H1340 H 0.82546 0.0376 0.33896 0.0
H1341 H 0.88809 0.00896 0.32546 0.0
H1342 H 0.94994 0.97889 0.4112 0.0
H1343 H 0.92444 0.98173 0.38164 0.0
C1344 C 0.97597 0.81539 0.31006 0.0
C1345 C 0.99547 0.80744 0.30144 0.0
C1346 C 0.97654 0.83109 0.32546 0.0
C1347 C 0.01171 0.87197 0.34872 0.0
H1348 H 0.97354 0.86575 0.39769 0.0
C1349 C 0.00081 0.93658 0.41165 0.0
C1350 C -2e-05 0.93054 0.4332 0.0
C1351 C 0.00055 0.92169 0.39546 0.0
C1352 C 0.98441 0.86762 0.3842 0.0
H1353 H 0.03084 0.81015 0.30178 0.0
H1354 H 0.03181 0.8375 0.3287 0.0
H1355 H 0.97249 0.83993 0.36922 0.0
H1356 H 0.99832 0.90393 0.45451 0.0
H1357 H 0.99796 0.87796 0.42618 0.0
H1358 H 0.02388 0.89948 0.36389 0.0
C1359 C 0.01608 0.83169 0.32346 0.0
C1360 C 0.98362 0.85298 0.36776 0.0
C1361 C 0.01552 0.81596 0.30808 0.0
C1362 C 0.99893 0.90919 0.43813 0.0
C1363 C 0.99861 0.89428 0.42188 0.0
C1364 C 0.01246 0.88665 0.36514 0.0
C1365 C 0.99661 0.8392 0.33255 0.0
C1366 C 0.99725 0.85499 0.34983 0.0
C1367 C 0.9994 0.90038 0.40037 0.0
C1368 C 0.99882 0.88463 0.38306 0.0
H1369 H 0.96025 0.80921 0.30524 0.0
H1370 H 0.96124 0.83679 0.33191 0.0
H1371 H 0.02233 0.87402 0.33506 0.0
H1372 H 0.00158 0.95285 0.40717 0.0
H1373 H 0.00089 0.92691 0.37905 0.0
C1374 C 0.18809 0.97138 0.30865 0.0
C1375 C 0.1869 0.98595 0.29195 0.0
C1376 C 0.17329 0.97219 0.32558 0.0
C1377 C 0.11922 0.99034 0.34164 0.0
H1378 H 0.14363 0.99208 0.39867 0.0
C1379 C 0.0647 0.00751 0.4141 0.0
C1380 C 0.06913 0.99715 0.43332 0.0
C1381 C 0.07938 0.00647 0.39712 0.0
C1382 C 0.13646 0.99127 0.38292 0.0
H1383 H 0.16865 0.01224 0.2795 0.0
H1384 H 0.14243 0.01331 0.30893 0.0
H1385 H 0.16788 0.98851 0.36804 0.0
H1386 H 0.09248 0.97772 0.45 0.0
H1387 H 0.11784 0.97515 0.42006 0.0
H1388 H 0.08779 0.99243 0.3563 0.0
C1389 C 0.15499 0.00141 0.30893 0.0
C1390 C 0.15039 0.98931 0.36537 0.0
C1391 C 0.17002 0.00081 0.29213 0.0
C1392 C 0.08876 0.986 0.43539 0.0
C1393 C 0.1033 0.9846 0.41822 0.0
C1394 C 0.10524 0.99195 0.35919 0.0
C1395 C 0.15678 0.98736 0.32601 0.0
C1396 C 0.14191 0.98894 0.34458 0.0
C1397 C 0.09869 0.99466 0.39875 0.0
C1398 C 0.11366 0.99261 0.38009 0.0
H1399 H 0.20092 0.95974 0.30903 0.0
H1400 H 0.17486 0.96104 0.33846 0.0
H1401 H 0.11226 0.98987 0.32577 0.0
H1402 H 0.04981 0.01646 0.41216 0.0
H1403 H 0.0755 0.01494 0.38268 0.0
C1404 C 0.99467 0.81653 0.69855 0.0
C1405 C 0.01226 0.80245 0.69769 0.0
C1406 C 0.99289 0.83258 0.68353 0.0
C1407 C 0.00575 0.84538 0.62901 0.0
H1408 H 0.00318 0.90344 0.64569 0.0
C1409 C 0.01202 0.91087 0.56655 0.0
C1410 C 0.00086 0.92963 0.57016 0.0
C1411 C 0.0129 0.89556 0.58236 0.0
C1412 C 0.00344 0.88732 0.64068 0.0
H1413 H 0.0417 0.79407 0.68042 0.0
H1414 H 0.03817 0.82171 0.65383 0.0
H1415 H 0.00509 0.87642 0.67299 0.0
H1416 H 0.98142 0.94694 0.59295 0.0
H1417 H 0.98201 0.9199 0.62017 0.0
H1418 H 0.00329 0.85587 0.59683 0.0
C1419 C 0.02597 0.82046 0.66629 0.0
C1420 C 0.00468 0.87188 0.65637 0.0
C1421 C 0.02803 0.80474 0.68156 0.0
C1422 C 0.99034 0.93269 0.5898 0.0
C1423 C 0.99082 0.9172 0.60547 0.0
C1424 C 0.00404 0.86074 0.61332 0.0
C1425 C 0.00839 0.83448 0.66713 0.0
C1426 C 0.00611 0.85081 0.65064 0.0
C1427 C 0.00222 0.89842 0.60204 0.0
C1428 C 0.00314 0.88198 0.61888 0.0
H1429 H 0.9823 0.81515 0.71082 0.0
H1430 H 0.97916 0.8432 0.68443 0.0
H1431 H 0.00659 0.82918 0.62424 0.0
H1432 H 0.02051 0.90817 0.55165 0.0
H1433 H 0.0223 0.88161 0.5792 0.0
C1434 C 0.17107 0.00066 0.71158 0.0
C1435 C 0.18822 0.01522 0.71062 0.0
C1436 C 0.1556 0.99956 0.69519 0.0
C1437 C 0.15032 0.00921 0.63831 0.0
H1438 H 0.08783 0.00619 0.64812 0.0
C1439 C 0.08817 0.00961 0.56884 0.0
C1440 C 0.06876 0.99821 0.57136 0.0
C1441 C 0.10274 0.01183 0.58589 0.0
C1442 C 0.10525 0.00666 0.64506 0.0
H1443 H 0.20209 0.04053 0.69206 0.0
H1444 H 0.17524 0.03838 0.66343 0.0
H1445 H 0.11261 0.01015 0.67829 0.0
H1446 H 0.04981 0.97938 0.59331 0.0
H1447 H 0.07556 0.98241 0.62265 0.0
H1448 H 0.14323 0.00507 0.60524 0.0
C1449 C 0.17384 0.02782 0.67682 0.0
C1450 C 0.1194 0.00906 0.66238 0.0
C1451 C 0.18912 0.02911 0.6933 0.0
C1452 C 0.06454 0.98849 0.59099 0.0
C1453 C 0.07924 0.99038 0.60788 0.0
C1454 C 0.13622 0.00649 0.62101 0.0
C1455 C 0.15716 0.01282 0.67743 0.0
C1456 C 0.14205 0.01043 0.65915 0.0
C1457 C 0.09837 0.00238 0.60571 0.0
C1458 C 0.11347 0.00521 0.62414 0.0
H1459 H 0.1699 0.98977 0.72471 0.0
H1460 H 0.1429 0.98782 0.69601 0.0
H1461 H 0.16777 0.00994 0.63542 0.0
H1462 H 0.09173 0.01744 0.55394 0.0
H1463 H 0.11711 0.02142 0.58365 0.0
C1464 C 0.00851 0.17605 0.69842 0.0
C1465 C 0.99186 0.19108 0.69695 0.0
C1466 C 0.00943 0.15957 0.68385 0.0
C1467 C 0.9975 0.14712 0.62943 0.0
H1468 H 0.99504 0.08904 0.64615 0.0
C1469 C 0.98878 0.08225 0.56686 0.0
C1470 C 0.99878 0.06294 0.57071 0.0
C1471 C 0.98831 0.09752 0.58269 0.0
C1472 C 0.99617 0.10515 0.64117 0.0
H1473 H 0.9631 0.20064 0.67921 0.0
H1474 H 0.96517 0.1722 0.6534 0.0
H1475 H 0.99393 0.11618 0.6734 0.0
H1476 H 0.0165 0.04457 0.594 0.0
H1477 H 0.01652 0.07148 0.62132 0.0
H1478 H 0.00056 0.13645 0.59738 0.0
C1479 C 0.97727 0.17306 0.666 0.0
C1480 C 0.99538 0.12064 0.65681 0.0
C1481 C 0.97605 0.18922 0.68081 0.0
C1482 C 0.00848 0.05925 0.59065 0.0
C1483 C 0.00836 0.07468 0.60636 0.0
C1484 C 0.99874 0.13168 0.61383 0.0
C1485 C 0.99403 0.1582 0.66733 0.0
C1486 C 0.99576 0.14173 0.65101 0.0
C1487 C 0.9982 0.09402 0.60264 0.0
C1488 C 0.9978 0.11045 0.61943 0.0
H1489 H 0.0209 0.17711 0.71071 0.0
H1490 H 0.02252 0.14827 0.6851 0.0
H1491 H 0.99808 0.16333 0.62465 0.0
H1492 H 0.98094 0.08546 0.55173 0.0
H1493 H 0.97986 0.11197 0.57932 0.0
C1494 C 0.80901 0.9702 0.6933 0.0
C1495 C 0.81025 0.98431 0.7104 0.0
C1496 C 0.82424 0.97098 0.67676 0.0
C1497 C 0.87906 0.98836 0.66203 0.0
H1498 H 0.85542 0.99171 0.60476 0.0
C1499 C 0.93457 0.00608 0.59039 0.0
C1500 C 0.93021 0.99597 0.57101 0.0
C1501 C 0.91974 0.00494 0.60724 0.0
C1502 C 0.86236 0.99045 0.62058 0.0
H1503 H 0.8291 0.00965 0.72401 0.0
H1504 H 0.85603 0.0107 0.6952 0.0
H1505 H 0.83071 0.98802 0.635 0.0
H1506 H 0.90684 0.9769 0.55394 0.0
H1507 H 0.8812 0.97422 0.58362 0.0
H1508 H 0.9107 0.99019 0.64777 0.0
C1509 C 0.8431 0.99918 0.6946 0.0
C1510 C 0.84817 0.98842 0.6379 0.0
C1511 C 0.82767 0.99859 0.71106 0.0
C1512 C 0.91052 0.98498 0.56866 0.0
C1513 C 0.89582 0.98352 0.58568 0.0
C1514 C 0.89328 0.99007 0.64469 0.0
C1515 C 0.84122 0.98568 0.67708 0.0
C1516 C 0.85638 0.98743 0.65878 0.0
C1517 C 0.90034 0.99334 0.60528 0.0
C1518 C 0.88513 0.99127 0.62372 0.0
H1519 H 0.79581 0.95899 0.69228 0.0
H1520 H 0.8226 0.96023 0.66355 0.0
H1521 H 0.8858 0.98742 0.67796 0.0
H1522 H 0.9495 0.01492 0.59255 0.0
H1523 H 0.92355 0.0132 0.62181 0.0
C1524 C 0.29995 0.9896 0.1847 0.0
C1525 C 0.2926 0.00903 0.19213 0.0
C1526 C 0.31636 0.9884 0.16923 0.0
C1527 C 0.36201 0.01872 0.14649 0.0
H1528 H 0.35901 0.97815 0.10083 0.0
C1529 C 0.43462 0.00339 0.08944 0.0
C1530 C 0.42953 0.00131 0.06768 0.0
C1531 C 0.41799 0.00388 0.10476 0.0
C1532 C 0.36004 0.98964 0.11342 0.0
H1533 H 0.29641 0.04246 0.18877 0.0
H1534 H 0.32485 0.04037 0.16162 0.0
H1535 H 0.32927 0.98034 0.12665 0.0
H1536 H 0.40279 0.99793 0.0451 0.0
H1537 H 0.37401 0.99893 0.07174 0.0
H1538 H 0.3926 0.02825 0.13305 0.0
C1539 C 0.31815 0.02605 0.16799 0.0
C1540 C 0.3431 0.99075 0.12834 0.0
C1541 C 0.30173 0.02724 0.18344 0.0
C1542 C 0.40742 0.99956 0.06168 0.0
C1543 C 0.39085 0.99998 0.07698 0.0
C1544 C 0.37898 0.01756 0.13161 0.0
C1545 C 0.32581 0.00662 0.16085 0.0
C1546 C 0.34384 0.00536 0.145 0.0
C1547 C 0.39592 0.00221 0.09869 0.0
C1548 C 0.37816 0.00306 0.11485 0.0
H1549 H 0.29332 0.97526 0.19111 0.0
H1550 H 0.32202 0.97319 0.16422 0.0
H1551 H 0.36322 0.02997 0.15928 0.0
H1552 H 0.45143 0.00477 0.09469 0.0
H1553 H 0.42245 0.00539 0.12139 0.0
C1554 C 0.00551 0.32977 0.19712 0.0
C1555 C 0.9862 0.32975 0.20927 0.0
C1556 C 0.007 0.34166 0.17859 0.0
C1557 C 0.97467 0.3683 0.13745 0.0
H1558 H 0.02644 0.40275 0.13147 0.0
C1559 C 0.9925 0.41824 0.06251 0.0
C1560 C 0.9988 0.43892 0.06665 0.0
C1561 C 0.99131 0.40373 0.07907 0.0
C1562 C 0.0119 0.39322 0.13294 0.0
H1563 H 0.95309 0.34172 0.2112 0.0
H1564 H 0.95573 0.36259 0.1787 0.0
H1565 H 0.02309 0.37944 0.16197 0.0
H1566 H 0.0092 0.46043 0.09136 0.0
H1567 H 0.00715 0.43512 0.12012 0.0
H1568 H 0.96334 0.38242 0.10854 0.0
C1569 C 0.96966 0.35331 0.18355 0.0
C1570 C 0.01006 0.37976 0.15028 0.0
C1571 C 0.9682 0.34148 0.20221 0.0
C1572 C 0.00418 0.44467 0.08761 0.0
C1573 C 0.00317 0.43014 0.10408 0.0
C1574 C 0.97659 0.38167 0.11998 0.0
C1575 C 0.98919 0.3537 0.17173 0.0
C1576 C 0.99135 0.3673 0.15281 0.0
C1577 C 0.99663 0.40957 0.10001 0.0
C1578 C 0.99512 0.39443 0.11772 0.0
H1579 H 0.01965 0.32082 0.20206 0.0
H1580 H 0.02216 0.34148 0.16964 0.0
H1581 H 0.96015 0.35874 0.13896 0.0
H1582 H 0.98816 0.41333 0.04655 0.0
H1583 H 0.98636 0.38791 0.0755 0.0
C1584 C 0.69999 0.01141 0.18513 0.0
C1585 C 0.70722 0.99193 0.19255 0.0
C1586 C 0.68369 0.0127 0.16955 0.0
C1587 C 0.63809 0.98261 0.14643 0.0
H1588 H 0.64147 0.02341 0.10098 0.0
C1589 C 0.56573 0.99867 0.08932 0.0
C1590 C 0.57085 0.00092 0.06758 0.0
C1591 C 0.58233 0.99796 0.10465 0.0
C1592 C 0.64034 0.01186 0.11351 0.0
H1593 H 0.70332 0.95852 0.18909 0.0
H1594 H 0.67507 0.96079 0.16177 0.0
H1595 H 0.67108 0.02097 0.12692 0.0
H1596 H 0.59761 0.00435 0.04505 0.0
H1597 H 0.62637 0.00297 0.07171 0.0
H1598 H 0.60752 0.97326 0.13281 0.0
C1599 C 0.68177 0.97507 0.16821 0.0
C1600 C 0.6572 0.0106 0.1285 0.0
C1601 C 0.69809 0.97377 0.18376 0.0
C1602 C 0.59297 0.00261 0.06161 0.0
C1603 C 0.60952 0.00196 0.07693 0.0
C1604 C 0.6212 0.98391 0.13148 0.0
C1605 C 0.67423 0.99454 0.16107 0.0
C1606 C 0.65632 0.99591 0.1451 0.0
C1607 C 0.60442 0.99957 0.09862 0.0
C1608 C 0.62215 0.9985 0.1148 0.0
H1609 H 0.70663 0.0257 0.19161 0.0
H1610 H 0.67812 0.02794 0.16454 0.0
H1611 H 0.63677 0.9713 0.15917 0.0
H1612 H 0.54891 0.99732 0.09455 0.0
H1613 H 0.57785 0.99633 0.12126 0.0
C1614 C 0.99173 0.67252 0.1983 0.0
C1615 C 0.00286 0.69161 0.19685 0.0
C1616 C 0.98958 0.65969 0.18051 0.0
C1617 C 0.01561 0.64886 0.1287 0.0
H1618 H 0.96461 0.61377 0.12082 0.0
C1619 C 0.00554 0.59238 0.0574 0.0
C1620 C 0.99893 0.57205 0.06273 0.0
C1621 C 0.00507 0.60823 0.07265 0.0
C1622 C 0.97898 0.62343 0.12289 0.0
H1623 H 0.01969 0.71261 0.17532 0.0
H1624 H 0.01553 0.69034 0.14402 0.0
H1625 H 0.96461 0.64006 0.14885 0.0
H1626 H 0.98641 0.55249 0.08818 0.0
H1627 H 0.98548 0.58023 0.11471 0.0
H1628 H 0.02991 0.63216 0.10264 0.0
C1629 C 0.00886 0.68511 0.15909 0.0
C1630 C 0.97901 0.63847 0.13895 0.0
C1631 C 0.01112 0.69794 0.17698 0.0
C1632 C 0.99172 0.56795 0.08358 0.0
C1633 C 0.99101 0.58386 0.09873 0.0
C1634 C 0.01548 0.63394 0.1125 0.0
C1635 C 0.99836 0.66567 0.16073 0.0
C1636 C 0.99748 0.65112 0.14232 0.0
C1637 C 0.99772 0.60413 0.09343 0.0
C1638 C 0.99731 0.62085 0.10967 0.0
H1639 H 0.98519 0.66713 0.21337 0.0
H1640 H 0.98169 0.64471 0.18249 0.0
H1641 H 0.03024 0.6581 0.13102 0.0
H1642 H 0.01127 0.59604 0.0415 0.0
H1643 H 0.01024 0.62375 0.06812 0.0
C1644 C 0.30313 0.97293 0.81455 0.0
C1645 C 0.29407 0.99109 0.80569 0.0
C1646 C 0.3192 0.97422 0.83034 0.0
C1647 C 0.34323 0.00973 0.87038 0.0
H1648 H 0.39312 0.97263 0.86636 0.0
C1649 C 0.40729 0.00217 0.93751 0.0
C1650 C 0.42943 0.00059 0.93157 0.0
C1651 C 0.39077 0.0014 0.92216 0.0
C1652 C 0.37939 0.98321 0.86762 0.0
H1653 H 0.29451 0.02486 0.80675 0.0
H1654 H 0.32261 0.0271 0.83421 0.0
H1655 H 0.36407 0.97055 0.83983 0.0
H1656 H 0.45144 0.99707 0.90465 0.0
H1657 H 0.42257 0.99589 0.8779 0.0
H1658 H 0.35873 0.02261 0.89797 0.0
C1659 C 0.31716 0.01185 0.82909 0.0
C1660 C 0.3626 0.98184 0.85257 0.0
C1661 C 0.3011 0.01056 0.81329 0.0
C1662 C 0.4346 0.99834 0.90985 0.0
C1663 C 0.41804 0.99752 0.8945 0.0
C1664 C 0.35999 0.01106 0.88546 0.0
C1665 C 0.32657 0.99369 0.83764 0.0
C1666 C 0.34431 0.99507 0.85378 0.0
C1667 C 0.39593 0.999 0.90049 0.0
C1668 C 0.37826 0.9978 0.88426 0.0
H1669 H 0.29803 0.95768 0.8091 0.0
H1670 H 0.32587 0.95993 0.83683 0.0
H1671 H 0.32929 0.02004 0.87186 0.0
H1672 H 0.40261 0.00391 0.95405 0.0
H1673 H 0.3739 0.00233 0.92734 0.0
C1674 C 0.00874 0.30449 0.82133 0.0
C1675 C 0.99931 0.30958 0.80157 0.0
C1676 C 0.00703 0.31819 0.83858 0.0
C1677 C 0.97735 0.36544 0.8576 0.0
H1678 H 0.03004 0.37428 0.89079 0.0
C1679 C 0.99129 0.43825 0.90985 0.0
C1680 C 0.99934 0.43474 0.93051 0.0
C1681 C 0.99037 0.42197 0.89509 0.0
C1682 C 0.01515 0.37183 0.88179 0.0
H1683 H 0.97999 0.33265 0.78469 0.0
H1684 H 0.97742 0.35659 0.81444 0.0
H1685 H 0.02931 0.347 0.86379 0.0
H1686 H 0.0131 0.4115 0.95179 0.0
H1687 H 0.01174 0.3832 0.92589 0.0
H1688 H 0.9635 0.39079 0.87522 0.0
C1689 C 0.98585 0.34194 0.81684 0.0
C1690 C 0.01466 0.35613 0.86639 0.0
C1691 C 0.98746 0.32823 0.79968 0.0
C1692 C 0.00671 0.41469 0.93602 0.0
C1693 C 0.00604 0.39851 0.92119 0.0
C1694 C 0.97793 0.38127 0.87285 0.0
C1695 C 0.99593 0.33729 0.83641 0.0
C1696 C 0.99582 0.35286 0.85395 0.0
C1697 C 0.99774 0.40195 0.90063 0.0
C1698 C 0.99689 0.38473 0.88495 0.0
H1699 H 0.01788 0.29018 0.82333 0.0
H1700 H 0.01465 0.31395 0.85354 0.0
H1701 H 0.96243 0.36313 0.84861 0.0
H1702 H 0.9854 0.45348 0.90515 0.0
H1703 H 0.98408 0.42508 0.87927 0.0
C1704 C 0.69693 0.02847 0.81438 0.0
C1705 C 0.70596 0.01028 0.80557 0.0
C1706 C 0.68092 0.02723 0.83023 0.0
C1707 C 0.65694 0.99187 0.87045 0.0
H1708 H 0.60697 0.02886 0.86613 0.0
C1709 C 0.59282 0.99985 0.93746 0.0
C1710 C 0.57068 0.0014 0.9315 0.0
C1711 C 0.60934 0.00047 0.92211 0.0
C1712 C 0.62073 0.01831 0.86747 0.0
H1713 H 0.70559 0.97651 0.80683 0.0
H1714 H 0.6776 0.97436 0.8344 0.0
H1715 H 0.63606 0.03085 0.83963 0.0
H1716 H 0.54868 0.00466 0.90454 0.0
H1717 H 0.57756 0.00559 0.87778 0.0
H1718 H 0.64142 0.9791 0.89811 0.0
C1719 C 0.68301 0.98959 0.82918 0.0
C1720 C 0.63753 0.01963 0.85244 0.0
C1721 C 0.69901 0.99083 0.81332 0.0
C1722 C 0.56551 0.00344 0.90976 0.0
C1723 C 0.58208 0.00411 0.8944 0.0
C1724 C 0.64015 0.99058 0.88552 0.0
C1725 C 0.6736 0.00777 0.83764 0.0
C1726 C 0.65585 0.00645 0.85377 0.0
C1727 C 0.60419 0.00269 0.90042 0.0
C1728 C 0.62186 0.0038 0.88421 0.0
H1729 H 0.70197 0.0437 0.80882 0.0
H1730 H 0.67425 0.04153 0.83666 0.0
H1731 H 0.67089 0.98159 0.87202 0.0
H1732 H 0.5975 0.99825 0.95402 0.0
H1733 H 0.62621 0.99959 0.92731 0.0
C1734 C 0.99928 0.6685 0.78926 0.0
C1735 C 0.99186 0.68902 0.79218 0.0
C1736 C 0.00123 0.65495 0.80653 0.0
C1737 C 0.98087 0.64609 0.86104 0.0
H1738 H 0.0286 0.60634 0.86317 0.0
C1739 C 0.99404 0.58979 0.93191 0.0
C1740 C 0.99909 0.56899 0.92681 0.0
C1741 C 0.99379 0.60513 0.91612 0.0
C1742 C 0.01508 0.61724 0.8627 0.0
H1743 H 0.981 0.71151 0.81567 0.0
H1744 H 0.98466 0.68781 0.84601 0.0
H1745 H 0.02767 0.63244 0.83497 0.0
H1746 H 0.00791 0.5481 0.90103 0.0
H1747 H 0.00743 0.57493 0.87348 0.0
H1748 H 0.96831 0.63081 0.88881 0.0
C1749 C 0.9887 0.68217 0.83024 0.0
C1750 C 0.01454 0.63221 0.84655 0.0
C1751 C 0.98672 0.69578 0.81288 0.0
C1752 C 0.0039 0.56393 0.90553 0.0
C1753 C 0.00379 0.57933 0.88976 0.0
C1754 C 0.98147 0.63116 0.87726 0.0
C1755 C 0.99589 0.66154 0.82722 0.0
C1756 C 0.99728 0.64665 0.84535 0.0
C1757 C 0.99871 0.60009 0.89489 0.0
C1758 C 0.99846 0.61642 0.87812 0.0
H1759 H 0.00334 0.66272 0.77354 0.0
H1760 H 0.00647 0.6391 0.80353 0.0
H1761 H 0.96718 0.65678 0.86043 0.0
H1762 H 0.99016 0.59428 0.94811 0.0
H1763 H 0.98999 0.62102 0.9206 0.0
C1764 C 0.19049 0.31653 0.02696 0.0
C1765 C 0.1902 0.30035 0.01185 0.0
C1766 C 0.17537 0.33281 0.02578 0.0
C1767 C 0.12148 0.34745 0.00611 0.0
H1768 H 0.14437 0.40377 0.0049 0.0
C1769 C 0.06513 0.41713 0.98836 0.0
C1770 C 0.06925 0.43614 0.99865 0.0
C1771 C 0.08011 0.40077 0.98967 0.0
C1772 C 0.13758 0.38821 0.00558 0.0
H1773 H 0.17331 0.28822 0.98412 0.0
H1774 H 0.14647 0.31647 0.98245 0.0
H1775 H 0.16936 0.37444 0.00882 0.0
H1776 H 0.09227 0.45302 0.01835 0.0
H1777 H 0.11808 0.42419 0.0215 0.0
H1778 H 0.08969 0.36098 0.00365 0.0
C1779 C 0.15859 0.31657 0.99504 0.0
C1780 C 0.15197 0.3714 0.00772 0.0
C1781 C 0.17396 0.30045 0.99599 0.0
C1782 C 0.08879 0.43857 0.01011 0.0
C1783 C 0.10361 0.42203 0.01181 0.0
C1784 C 0.10704 0.36425 0.00437 0.0
C1785 C 0.15941 0.33309 0.0097 0.0
C1786 C 0.14406 0.35087 0.00788 0.0
C1787 C 0.09942 0.40281 0.00172 0.0
C1788 C 0.11488 0.3849 0.00391 0.0
H1789 H 0.20282 0.31697 0.03934 0.0
H1790 H 0.17622 0.34528 0.03738 0.0
H1791 H 0.11496 0.33176 0.00641 0.0
H1792 H 0.0503 0.41492 0.97917 0.0
H1793 H 0.0765 0.38653 0.98115 0.0
C1794 C 0.17531 0.70538 0.00139 0.0
C1795 C 0.19171 0.70545 0.98569 0.0
C1796 C 0.15971 0.68944 0.00197 0.0
C1797 C 0.15258 0.63489 0.98866 0.0
H1798 H 0.09035 0.64592 0.99158 0.0
C1799 C 0.08885 0.56845 0.98396 0.0
C1800 C 0.06911 0.57087 0.99508 0.0
C1801 C 0.10383 0.58489 0.98279 0.0
C1802 C 0.10767 0.64248 0.99118 0.0
H1803 H 0.20439 0.68902 0.9581 0.0
H1804 H 0.17738 0.66104 0.95944 0.0
H1805 H 0.116 0.6749 0.98966 0.0
H1806 H 0.04992 0.59196 0.01451 0.0
H1807 H 0.07638 0.62018 0.01344 0.0
H1808 H 0.14456 0.60258 0.99097 0.0
C1809 C 0.17658 0.67337 0.97119 0.0
C1810 C 0.12233 0.65914 0.98993 0.0
C1811 C 0.19193 0.68948 0.97036 0.0
C1812 C 0.0649 0.58977 0.00555 0.0
C1813 C 0.08004 0.60602 0.00478 0.0
C1814 C 0.13797 0.61822 0.99032 0.0
C1815 C 0.16047 0.6731 0.98711 0.0
C1816 C 0.1449 0.65549 0.98854 0.0
C1817 C 0.09959 0.60398 0.99311 0.0
C1818 C 0.11527 0.62175 0.99153 0.0
H1819 H 0.17471 0.71746 0.01341 0.0
H1820 H 0.14746 0.68953 0.01445 0.0
H1821 H 0.16996 0.63169 0.98787 0.0
H1822 H 0.0924 0.55408 0.9756 0.0
H1823 H 0.11848 0.58275 0.97336 0.0
C1824 C 0.30618 0.18615 0.97341 0.0
C1825 C 0.29807 0.19515 0.99224 0.0
C1826 C 0.32167 0.17015 0.97425 0.0
C1827 C 0.34526 0.13 0.00978 0.0
H1828 H 0.39413 0.1323 0.97044 0.0
C1829 C 0.40748 0.06259 0.00083 0.0
C1830 C 0.4297 0.06799 0.99882 0.0
C1831 C 0.39122 0.0779 0.00024 0.0
C1832 C 0.38066 0.13149 0.98163 0.0
H1833 H 0.29964 0.19408 0.02676 0.0
H1834 H 0.32671 0.16619 0.02821 0.0
H1835 H 0.36601 0.15919 0.96913 0.0
H1836 H 0.45211 0.09392 0.99465 0.0
H1837 H 0.42376 0.12054 0.99374 0.0
H1838 H 0.36013 0.10245 0.02249 0.0
C1839 C 0.32096 0.17142 0.01278 0.0
C1840 C 0.3644 0.14678 0.98071 0.0
C1841 C 0.30551 0.18748 0.01195 0.0
C1842 C 0.43521 0.08912 0.99625 0.0
C1843 C 0.41893 0.10441 0.99558 0.0
C1844 C 0.36149 0.11465 0.01064 0.0
C1845 C 0.32939 0.1627 0.99394 0.0
C1846 C 0.34651 0.14624 0.99479 0.0
C1847 C 0.39674 0.09898 0.99754 0.0
C1848 C 0.37941 0.11525 0.99661 0.0
H1849 H 0.30077 0.19164 0.95796 0.0
H1850 H 0.32758 0.16357 0.95944 0.0
H1851 H 0.33161 0.12903 0.02074 0.0
H1852 H 0.40256 0.0465 0.00283 0.0
H1853 H 0.37427 0.07316 0.00156 0.0
C1854 C 0.82598 0.30003 0.00232 0.0
C1855 C 0.80975 0.29972 0.98645 0.0
C1856 C 0.84139 0.31614 0.00299 0.0
C1857 C 0.848 0.37076 0.98934 0.0
H1858 H 0.91029 0.36051 0.99378 0.0
C1859 C 0.91103 0.43791 0.98535 0.0
C1860 C 0.93053 0.43584 0.99696 0.0
C1861 C 0.89627 0.42129 0.98405 0.0
C1862 C 0.89294 0.36373 0.99295 0.0
H1863 H 0.79721 0.31592 0.95865 0.0
H1864 H 0.82388 0.34419 0.96013 0.0
H1865 H 0.88507 0.3312 0.99156 0.0
H1866 H 0.94946 0.41516 0.01708 0.0
H1867 H 0.92336 0.38664 0.01575 0.0
H1868 H 0.85555 0.40318 0.99148 0.0
C1869 C 0.82468 0.33191 0.97195 0.0
C1870 C 0.87853 0.34688 0.99152 0.0
C1871 C 0.80953 0.31564 0.97104 0.0
C1872 C 0.93467 0.4171 0.00778 0.0
C1873 C 0.91974 0.40066 0.00684 0.0
C1874 C 0.86236 0.38762 0.99115 0.0
C1875 C 0.84062 0.33242 0.98805 0.0
C1876 C 0.85595 0.35024 0.9896 0.0
C1877 C 0.90048 0.40236 0.99468 0.0
C1878 C 0.88506 0.38437 0.99292 0.0
H1879 H 0.82659 0.288 0.01441 0.0
H1880 H 0.85349 0.31622 0.01561 0.0
H1881 H 0.83061 0.37375 0.98813 0.0
H1882 H 0.90753 0.45212 0.97669 0.0
H1883 H 0.88183 0.42317 0.97425 0.0
C1884 C 0.69361 0.81618 0.97337 0.0
C1885 C 0.70193 0.80726 0.99215 0.0
C1886 C 0.67813 0.83218 0.97431 0.0
C1887 C 0.65491 0.87242 0.00991 0.0
H1888 H 0.60566 0.86999 0.97105 0.0
C1889 C 0.59268 0.93985 0.00107 0.0
C1890 C 0.57045 0.93446 0.99923 0.0
C1891 C 0.60892 0.92451 0.00049 0.0
C1892 C 0.61923 0.87083 0.98211 0.0
H1893 H 0.70076 0.80842 0.02668 0.0
H1894 H 0.67368 0.83629 0.0283 0.0
H1895 H 0.63374 0.84308 0.9696 0.0
H1896 H 0.54798 0.90852 0.99542 0.0
H1897 H 0.57628 0.88187 0.99453 0.0
H1898 H 0.64019 0.90002 0.02263 0.0
C1899 C 0.67926 0.83102 0.01284 0.0
C1900 C 0.63547 0.85554 0.98111 0.0
C1901 C 0.69472 0.81498 0.01191 0.0
C1902 C 0.56489 0.91331 0.99688 0.0
C1903 C 0.58114 0.898 0.99623 0.0
C1904 C 0.6387 0.88777 0.01086 0.0
C1905 C 0.67062 0.83967 0.99405 0.0
C1906 C 0.6535 0.85613 0.99501 0.0
C1907 C 0.60335 0.90342 0.99798 0.0
C1908 C 0.62064 0.88713 0.99699 0.0
H1909 H 0.69885 0.81065 0.95789 0.0
H1910 H 0.67205 0.83871 0.95953 0.0
H1911 H 0.66867 0.87343 0.02074 0.0
H1912 H 0.59764 0.95594 0.00291 0.0
H1913 H 0.62588 0.92923 0.00166 0.0
C1914 C 0.82465 0.70572 0.996 0.0
C1915 C 0.80857 0.70557 0.01202 0.0
C1916 C 0.84015 0.68973 0.9948 0.0
C1917 C 0.84724 0.63489 0.0071 0.0
H1918 H 0.9094 0.64563 0.00212 0.0
C1919 C 0.9108 0.56816 0.00868 0.0
C1920 C 0.93009 0.57062 0.99682 0.0
C1921 C 0.89593 0.58462 0.01055 0.0
C1922 C 0.89208 0.64228 0.00309 0.0
H1923 H 0.79642 0.6887 0.03957 0.0
H1924 H 0.82328 0.66065 0.03719 0.0
H1925 H 0.88402 0.67472 0.00542 0.0
H1926 H 0.94855 0.59182 0.97686 0.0
H1927 H 0.92223 0.62011 0.97919 0.0
H1928 H 0.85497 0.60258 0.00402 0.0
C1929 C 0.82388 0.67318 0.02565 0.0
C1930 C 0.87758 0.659 0.00514 0.0
C1931 C 0.80862 0.68933 0.02707 0.0
C1932 C 0.93391 0.58958 0.98633 0.0
C1933 C 0.91887 0.60588 0.98783 0.0
C1934 C 0.86168 0.61817 0.00467 0.0
C1935 C 0.83964 0.67313 0.00938 0.0
C1936 C 0.85505 0.65545 0.00725 0.0
C1937 C 0.89982 0.60379 0.00026 0.0
C1938 C 0.88433 0.62161 0.00268 0.0
H1939 H 0.82504 0.718 0.98417 0.0
H1940 H 0.85211 0.68999 0.98207 0.0
H1941 H 0.82988 0.63176 0.00844 0.0
H1942 H 0.90756 0.55376 0.01711 0.0
H1943 H 0.88168 0.58244 0.02053 0.0
C1944 C 0.30652 0.81621 0.02591 0.0
C1945 C 0.29831 0.80722 0.00712 0.0
C1946 C 0.32204 0.83218 0.02498 0.0
C1947 C 0.34548 0.87227 0.98931 0.0
H1948 H 0.3945 0.87 0.02847 0.0
C1949 C 0.40761 0.93975 0.99816 0.0
C1950 C 0.42984 0.93438 0.00013 0.0
C1951 C 0.39138 0.92441 0.99874 0.0
C1952 C 0.38099 0.87079 0.01733 0.0
H1953 H 0.29972 0.80823 0.9726 0.0
H1954 H 0.32685 0.83606 0.97099 0.0
H1955 H 0.36641 0.84309 0.02989 0.0
H1956 H 0.45231 0.90848 0.00421 0.0
H1957 H 0.42402 0.88181 0.0051 0.0
H1958 H 0.36027 0.89982 0.97654 0.0
C1959 C 0.32116 0.83086 0.98645 0.0
C1960 C 0.36475 0.8555 0.01831 0.0
C1961 C 0.30567 0.81484 0.98738 0.0
C1962 C 0.4354 0.91326 0.00263 0.0
C1963 C 0.41915 0.89794 0.00329 0.0
C1964 C 0.36169 0.88762 0.98839 0.0
C1965 C 0.32968 0.83959 0.00525 0.0
C1966 C 0.3468 0.85604 0.00431 0.0
C1967 C 0.39695 0.90333 0.0014 0.0
C1968 C 0.37967 0.88704 0.00236 0.0
H1969 H 0.30117 0.81075 0.04139 0.0
H1970 H 0.32803 0.83877 0.03976 0.0
H1971 H 0.33178 0.87323 0.97841 0.0
H1972 H 0.40264 0.95583 0.9962 0.0
H1973 H 0.37442 0.92912 0.99747 0.0
C1974 C 0.69387 0.18616 0.02566 0.0
C1975 C 0.70208 0.19514 0.00686 0.0
C1976 C 0.67836 0.17018 0.02477 0.0
C1977 C 0.65494 0.13001 0.98922 0.0
H1978 H 0.60581 0.13247 0.02822 0.0
C1979 C 0.59263 0.06266 0.99816 0.0
C1980 C 0.5704 0.06807 1e-05 0.0
C1981 C 0.60889 0.07797 0.99873 0.0
C1982 C 0.61934 0.13162 0.01713 0.0
H1983 H 0.70069 0.19405 0.97233 0.0
H1984 H 0.6736 0.16619 0.97079 0.0
H1985 H 0.63395 0.15933 0.02963 0.0
H1986 H 0.54797 0.09404 0.00384 0.0
H1987 H 0.57632 0.12065 0.00474 0.0
H1988 H 0.64013 0.10244 0.97651 0.0
C1989 C 0.67928 0.17142 0.98624 0.0
C1990 C 0.63562 0.14689 0.0181 0.0
C1991 C 0.69474 0.18747 0.98713 0.0
C1992 C 0.56488 0.08922 0.00238 0.0
C1993 C 0.58116 0.10451 0.00304 0.0
C1994 C 0.6387 0.11468 0.9883 0.0
C1995 C 0.67074 0.16273 0.00505 0.0
C1996 C 0.6536 0.14629 0.00414 0.0
C1997 C 0.60336 0.09907 0.00126 0.0
C1998 C 0.62068 0.11533 0.00222 0.0
H1999 H 0.6992 0.19166 0.04113 0.0
H2000 H 0.67236 0.16362 0.03956 0.0
H2001 H 0.66866 0.129 0.97835 0.0
H2002 H 0.59757 0.04656 0.99631 0.0
H2003 H 0.62585 0.07323 0.99755 0.0
C2004 C 0.48229 0.68532 0.81075 0.0
C2005 C 0.50235 0.69275 0.80286 0.0
C2006 C 0.48179 0.66954 0.82608 0.0
C2007 C 0.51486 0.62743 0.84998 0.0
H2008 H 0.47536 0.63407 0.89788 0.0
C2009 C 0.50126 0.56252 0.91194 0.0
C2010 C 0.50014 0.56835 0.93353 0.0
C2011 C 0.50137 0.57755 0.89589 0.0
C2012 C 0.48658 0.63207 0.88469 0.0
H2013 H 0.53758 0.68904 0.80447 0.0
H2014 H 0.53669 0.66153 0.83122 0.0
H2015 H 0.4759 0.66022 0.86966 0.0
H2016 H 0.49817 0.59474 0.95507 0.0
H2017 H 0.49853 0.62101 0.92696 0.0
H2018 H 0.52584 0.5995 0.86519 0.0
C2019 C 0.52134 0.66783 0.82547 0.0
C2020 C 0.4867 0.64691 0.86839 0.0
C2021 C 0.52186 0.68365 0.81019 0.0
C2022 C 0.49906 0.58965 0.93864 0.0
C2023 C 0.49912 0.60472 0.92253 0.0
C2024 C 0.5147 0.61258 0.86625 0.0
C2025 C 0.50132 0.66079 0.8338 0.0
C2026 C 0.50086 0.64477 0.85087 0.0
C2027 C 0.50034 0.59882 0.90098 0.0
C2028 C 0.50058 0.61473 0.88379 0.0
H2029 H 0.46697 0.69198 0.8054 0.0
H2030 H 0.46609 0.66423 0.83195 0.0
H2031 H 0.52584 0.62526 0.83663 0.0
H2032 H 0.50209 0.54629 0.90731 0.0
H2033 H 0.502 0.57248 0.87944 0.0
C2034 C 0.33009 0.49917 0.79111 0.0
C2035 C 0.31316 0.51399 0.79112 0.0
C2036 C 0.34518 0.49847 0.80786 0.0
C2037 C 0.34986 0.51003 0.86439 0.0
H2038 H 0.41247 0.50722 0.85524 0.0
C2039 C 0.41143 0.51296 0.93443 0.0
C2040 C 0.43109 0.50188 0.93231 0.0
C2041 C 0.39693 0.51448 0.91723 0.0
C2042 C 0.39502 0.50761 0.85814 0.0
H2043 H 0.29914 0.54001 0.80848 0.0
H2044 H 0.3253 0.53852 0.8378 0.0
H2045 H 0.38795 0.50996 0.82475 0.0
H2046 H 0.45055 0.48284 0.91101 0.0
H2047 H 0.42493 0.4846 0.88147 0.0
H2048 H 0.35667 0.50699 0.89765 0.0
C2049 C 0.32686 0.52749 0.82482 0.0
C2050 C 0.38102 0.50933 0.84062 0.0
C2051 C 0.31199 0.52841 0.80795 0.0
C2052 C 0.43563 0.49174 0.91299 0.0
C2053 C 0.42098 0.49291 0.89598 0.0
C2054 C 0.36383 0.50797 0.88191 0.0
C2055 C 0.34341 0.51236 0.82507 0.0
C2056 C 0.35832 0.51063 0.84359 0.0
C2057 C 0.40161 0.50462 0.89769 0.0
C2058 C 0.38662 0.50676 0.87904 0.0
H2059 H 0.33144 0.48786 0.77838 0.0
H2060 H 0.35778 0.48661 0.80772 0.0
H2061 H 0.33238 0.51075 0.86708 0.0
H2062 H 0.40764 0.52107 0.94911 0.0
H2063 H 0.38236 0.52387 0.91913 0.0
C2064 C 0.46062 0.32416 0.81223 0.0
C2065 C 0.47804 0.31285 0.80337 0.0
C2066 C 0.46465 0.34046 0.82636 0.0
C2067 C 0.50545 0.35837 0.86475 0.0
H2068 H 0.47112 0.40915 0.86416 0.0
C2069 C 0.50003 0.41466 0.93648 0.0
C2070 C 0.50019 0.43611 0.93197 0.0
C2071 C 0.49905 0.40011 0.91994 0.0
C2072 C 0.48099 0.39514 0.86443 0.0
H2073 H 0.5134 0.31021 0.80177 0.0
H2074 H 0.52041 0.33882 0.82646 0.0
H2075 H 0.46649 0.38371 0.8357 0.0
H2076 H 0.49999 0.459 0.90639 0.0
H2077 H 0.49842 0.43367 0.87779 0.0
H2078 H 0.51993 0.36984 0.89353 0.0
C2079 C 0.50365 0.33489 0.8226 0.0
C2080 C 0.4782 0.38051 0.84824 0.0
C2081 C 0.49962 0.31862 0.80837 0.0
C2082 C 0.49977 0.44263 0.91055 0.0
C2083 C 0.49876 0.42812 0.8941 0.0
C2084 C 0.5082 0.37299 0.881 0.0
C2085 C 0.48618 0.34575 0.83198 0.0
C2086 C 0.49026 0.36191 0.84833 0.0
C2087 C 0.49817 0.40673 0.8986 0.0
C2088 C 0.49588 0.39145 0.88107 0.0
H2089 H 0.44381 0.32008 0.80869 0.0
H2090 H 0.45086 0.34844 0.83349 0.0
H2091 H 0.51481 0.34406 0.86534 0.0
H2092 H 0.5004 0.40907 0.95276 0.0
H2093 H 0.49844 0.3837 0.92389 0.0
C2094 C 0.68737 0.47167 0.80796 0.0
C2095 C 0.68619 0.4859 0.79094 0.0
C2096 C 0.67259 0.47288 0.82489 0.0
C2097 C 0.6187 0.49187 0.84081 0.0
H2098 H 0.64353 0.49438 0.89763 0.0
C2099 C 0.56504 0.51133 0.91328 0.0
C2100 C 0.56938 0.50114 0.93263 0.0
C2101 C 0.57959 0.50976 0.89623 0.0
C2102 C 0.63624 0.49337 0.88195 0.0
H2103 H 0.66797 0.51194 0.77792 0.0
H2104 H 0.64181 0.51371 0.80736 0.0
H2105 H 0.66751 0.4899 0.86695 0.0
H2106 H 0.59241 0.48149 0.94944 0.0
H2107 H 0.61754 0.47805 0.91941 0.0
H2108 H 0.58741 0.49472 0.85562 0.0
C2109 C 0.65434 0.50177 0.80761 0.0
C2110 C 0.65002 0.49088 0.86436 0.0
C2111 C 0.66932 0.50077 0.79079 0.0
C2112 C 0.58878 0.48965 0.93475 0.0
C2113 C 0.60319 0.48775 0.91752 0.0
C2114 C 0.60487 0.49403 0.8584 0.0
C2115 C 0.65613 0.48811 0.82502 0.0
C2116 C 0.64139 0.49021 0.84363 0.0
C2117 C 0.59866 0.4976 0.89793 0.0
C2118 C 0.61345 0.49498 0.87922 0.0
H2119 H 0.70017 0.46003 0.8086 0.0
H2120 H 0.67417 0.46201 0.83801 0.0
H2121 H 0.61163 0.49118 0.82499 0.0
H2122 H 0.55032 0.52053 0.91129 0.0
H2123 H 0.57579 0.51807 0.88168 0.0
C2124 C 0.52442 0.31686 0.1907 0.0
C2125 C 0.50515 0.30739 0.19813 0.0
C2126 C 0.52349 0.33285 0.17562 0.0
C2127 C 0.48798 0.35429 0.13352 0.0
H2128 H 0.52668 0.40198 0.13728 0.0
C2129 C 0.49918 0.41275 0.06416 0.0
C2130 C 0.50037 0.434 0.0695 0.0
C2131 C 0.49939 0.39749 0.08008 0.0
C2132 C 0.51565 0.38884 0.13607 0.0
H2133 H 0.46974 0.30761 0.19585 0.0
H2134 H 0.46813 0.33566 0.16966 0.0
H2135 H 0.52734 0.37561 0.16524 0.0
H2136 H 0.50262 0.45576 0.09593 0.0
H2137 H 0.50281 0.4292 0.12352 0.0
H2138 H 0.47611 0.36766 0.10447 0.0
C2139 C 0.48398 0.33051 0.17531 0.0
C2140 C 0.51619 0.37362 0.15199 0.0
C2141 C 0.4849 0.31454 0.19044 0.0
C2142 C 0.50171 0.43958 0.09115 0.0
C2143 C 0.50196 0.42433 0.10702 0.0
C2144 C 0.48748 0.36949 0.11757 0.0
C2145 C 0.50328 0.33973 0.16758 0.0
C2146 C 0.50238 0.35615 0.15089 0.0
C2147 C 0.50085 0.40311 0.10169 0.0
C2148 C 0.50133 0.38693 0.11865 0.0
H2149 H 0.54029 0.31168 0.19626 0.0
H2150 H 0.53867 0.33947 0.16984 0.0
H2151 H 0.4773 0.34091 0.13207 0.0
H2152 H 0.49812 0.40783 0.04769 0.0
H2153 H 0.49874 0.38126 0.07543 0.0
C2154 C 0.68993 0.52919 0.19293 0.0
C2155 C 0.6888 0.51525 0.21019 0.0
C2156 C 0.67467 0.52816 0.17642 0.0
C2157 C 0.61997 0.51035 0.16186 0.0
H2158 H 0.64373 0.50635 0.1047 0.0
C2159 C 0.56465 0.49172 0.09025 0.0
C2160 C 0.56912 0.50158 0.07075 0.0
C2161 C 0.5794 0.49308 0.10716 0.0
C2162 C 0.63675 0.50779 0.12048 0.0
H2163 H 0.67011 0.48996 0.22413 0.0
H2164 H 0.64313 0.48848 0.19537 0.0
H2165 H 0.66836 0.5105 0.13492 0.0
H2166 H 0.59256 0.52047 0.05354 0.0
H2167 H 0.61804 0.52353 0.0833 0.0
H2168 H 0.58835 0.50824 0.14757 0.0
C2169 C 0.656 0.50006 0.19463 0.0
C2170 C 0.65089 0.51008 0.1378 0.0
C2171 C 0.67145 0.5009 0.21105 0.0
C2172 C 0.58881 0.51256 0.06836 0.0
C2173 C 0.60342 0.51424 0.08542 0.0
C2174 C 0.60577 0.50837 0.14453 0.0
C2175 C 0.65778 0.51338 0.17694 0.0
C2176 C 0.64264 0.51132 0.15865 0.0
C2177 C 0.59882 0.50466 0.10513 0.0
C2178 C 0.61397 0.50695 0.12359 0.0
H2179 H 0.70306 0.54046 0.19176 0.0
H2180 H 0.67624 0.53877 0.16307 0.0
H2181 H 0.6132 0.51146 0.17778 0.0
H2182 H 0.5497 0.48291 0.09246 0.0
H2183 H 0.57552 0.48501 0.12183 0.0
C2184 C 0.4741 0.68348 0.19174 0.0
C2185 C 0.49325 0.69281 0.19962 0.0
C2186 C 0.47532 0.66711 0.17712 0.0
C2187 C 0.5119 0.64511 0.13651 0.0
H2188 H 0.47225 0.59803 0.13878 0.0
C2189 C 0.50096 0.58821 0.06607 0.0
C2190 C 0.49942 0.56688 0.07095 0.0
C2191 C 0.50071 0.60312 0.08229 0.0
C2192 C 0.48355 0.611 0.13801 0.0
H2193 H 0.52871 0.69186 0.19885 0.0
H2194 H 0.53082 0.66318 0.17345 0.0
H2195 H 0.47127 0.62417 0.16697 0.0
H2196 H 0.49642 0.54458 0.09687 0.0
H2197 H 0.49614 0.57058 0.12502 0.0
H2198 H 0.5243 0.63187 0.10764 0.0
C2199 C 0.51486 0.66871 0.17837 0.0
C2200 C 0.48285 0.62606 0.15405 0.0
C2201 C 0.51365 0.68505 0.19303 0.0
C2202 C 0.49764 0.56085 0.09245 0.0
C2203 C 0.49733 0.57576 0.10863 0.0
C2204 C 0.51256 0.63008 0.12043 0.0
C2205 C 0.49571 0.65975 0.17004 0.0
C2206 C 0.49696 0.64333 0.15344 0.0
C2207 C 0.49884 0.59706 0.10374 0.0
C2208 C 0.49835 0.61289 0.12097 0.0
H2209 H 0.45812 0.68911 0.19647 0.0
H2210 H 0.46026 0.66067 0.17086 0.0
H2211 H 0.52283 0.65835 0.13545 0.0
H2212 H 0.50237 0.59346 0.04973 0.0
H2213 H 0.50165 0.61943 0.07799 0.0
C2214 C 0.30942 0.47086 0.19204 0.0
C2215 C 0.3105 0.48472 0.20935 0.0
C2216 C 0.32471 0.47197 0.17556 0.0
C2217 C 0.37947 0.48987 0.16125 0.0
H2218 H 0.35593 0.49425 0.10402 0.0
C2219 C 0.43506 0.50926 0.09005 0.0
C2220 C 0.43068 0.49965 0.07041 0.0
C2221 C 0.42025 0.50767 0.10688 0.0
C2222 C 0.36285 0.49271 0.11982 0.0
H2223 H 0.32913 0.50997 0.22342 0.0
H2224 H 0.35617 0.51159 0.19473 0.0
H2225 H 0.33118 0.48984 0.13412 0.0
H2226 H 0.40735 0.48096 0.05287 0.0
H2227 H 0.38175 0.47748 0.08249 0.0
H2228 H 0.41114 0.49213 0.1471 0.0
C2229 C 0.34332 0.50001 0.19391 0.0
C2230 C 0.34864 0.49026 0.13707 0.0
C2231 C 0.32782 0.49909 0.21029 0.0
C2232 C 0.41102 0.48868 0.0678 0.0
C2233 C 0.39634 0.48675 0.08479 0.0
C2234 C 0.39373 0.49199 0.14398 0.0
C2235 C 0.3416 0.48676 0.17618 0.0
C2236 C 0.35681 0.4889 0.15794 0.0
C2237 C 0.40085 0.49609 0.10464 0.0
C2238 C 0.38562 0.49357 0.12302 0.0
H2239 H 0.2963 0.45959 0.1908 0.0
H2240 H 0.32319 0.46142 0.16217 0.0
H2241 H 0.38618 0.48867 0.17718 0.0
H2242 H 0.44999 0.51806 0.09243 0.0
H2243 H 0.42406 0.51557 0.12166 0.0
C2244 C 0.8012 0.5267 0.68342 0.0
C2245 C 0.792 0.50852 0.69211 0.0
C2246 C 0.81763 0.52544 0.66798 0.0
C2247 C 0.84238 0.49004 0.62832 0.0
H2248 H 0.89206 0.52733 0.63297 0.0
C2249 C 0.90668 0.49848 0.56161 0.0
C2250 C 0.9288 0.50012 0.56759 0.0
C2251 C 0.89013 0.49901 0.57693 0.0
C2252 C 0.87839 0.51669 0.63155 0.0
H2253 H 0.79258 0.47475 0.6911 0.0
H2254 H 0.82127 0.47257 0.66421 0.0
H2255 H 0.86271 0.52919 0.65922 0.0
H2256 H 0.95075 0.5035 0.59457 0.0
H2257 H 0.9218 0.50431 0.6213 0.0
H2258 H 0.85821 0.47735 0.60081 0.0
C2259 C 0.81567 0.48781 0.66921 0.0
C2260 C 0.86144 0.51793 0.64643 0.0
C2261 C 0.79927 0.48906 0.68469 0.0
C2262 C 0.93392 0.5022 0.58934 0.0
C2263 C 0.91732 0.5028 0.60468 0.0
C2264 C 0.85931 0.48884 0.6134 0.0
C2265 C 0.8252 0.50598 0.66084 0.0
C2266 C 0.84321 0.50465 0.64497 0.0
C2267 C 0.89523 0.50124 0.59863 0.0
C2268 C 0.87749 0.50218 0.61481 0.0
H2269 H 0.79595 0.54194 0.68876 0.0
H2270 H 0.82438 0.53974 0.66161 0.0
H2271 H 0.8285 0.47969 0.62664 0.0
H2272 H 0.90202 0.49685 0.54504 0.0
H2273 H 0.87328 0.49804 0.5717 0.0
C2274 C 0.48871 0.80481 0.67746 0.0
C2275 C 0.49698 0.8109 0.6974 0.0
C2276 C 0.49079 0.81794 0.65977 0.0
C2277 C 0.5201 0.86516 0.64026 0.0
H2278 H 0.46907 0.87141 0.60411 0.0
C2279 C 0.50696 0.93585 0.585 0.0
C2280 C 0.49979 0.93169 0.56415 0.0
C2281 C 0.5077 0.91997 0.6002 0.0
C2282 C 0.48352 0.86966 0.61393 0.0
H2283 H 0.5145 0.83525 0.71425 0.0
H2284 H 0.5177 0.85818 0.68372 0.0
H2285 H 0.46905 0.84517 0.63222 0.0
H2286 H 0.4875 0.90763 0.543 0.0
H2287 H 0.48859 0.87998 0.56967 0.0
H2288 H 0.53423 0.89017 0.62233 0.0
C2289 C 0.50993 0.84317 0.68153 0.0
C2290 C 0.48358 0.85457 0.62998 0.0
C2291 C 0.50796 0.83004 0.69912 0.0
C2292 C 0.4932 0.91134 0.5589 0.0
C2293 C 0.4937 0.89552 0.57418 0.0
C2294 C 0.51995 0.88038 0.62435 0.0
C2295 C 0.50112 0.83744 0.66169 0.0
C2296 C 0.50178 0.85229 0.6435 0.0
C2297 C 0.50105 0.89966 0.59494 0.0
C2298 C 0.50158 0.88292 0.61118 0.0
H2299 H 0.48026 0.7901 0.6756 0.0
H2300 H 0.48412 0.81289 0.64465 0.0
H2301 H 0.53455 0.86358 0.6501 0.0
H2302 H 0.51225 0.95133 0.58954 0.0
H2303 H 0.51323 0.92363 0.61617 0.0
C2304 C 0.19785 0.47327 0.68297 0.0
C2305 C 0.20707 0.49142 0.69169 0.0
C2306 C 0.18148 0.47457 0.66748 0.0
C2307 C 0.15677 0.51005 0.6278 0.0
H2308 H 0.10707 0.47279 0.63246 0.0
C2309 C 0.09227 0.50179 0.56118 0.0
C2310 C 0.07017 0.50009 0.56723 0.0
C2311 C 0.10887 0.50126 0.57645 0.0
C2312 C 0.12074 0.48342 0.63103 0.0
H2313 H 0.20657 0.52519 0.69066 0.0
H2314 H 0.17795 0.52744 0.66369 0.0
H2315 H 0.13643 0.47087 0.65868 0.0
H2316 H 0.04833 0.49662 0.59428 0.0
H2317 H 0.07736 0.49581 0.62091 0.0
H2318 H 0.14093 0.5228 0.60031 0.0
C2319 C 0.18351 0.5122 0.66871 0.0
C2320 C 0.13771 0.48215 0.6459 0.0
C2321 C 0.19986 0.5109 0.68424 0.0
C2322 C 0.06513 0.49796 0.58899 0.0
C2323 C 0.08178 0.49736 0.60428 0.0
C2324 C 0.13983 0.51129 0.61289 0.0
C2325 C 0.17395 0.49405 0.66032 0.0
C2326 C 0.15595 0.49541 0.64444 0.0
C2327 C 0.10385 0.49896 0.59817 0.0
C2328 C 0.12164 0.49796 0.6143 0.0
H2329 H 0.20306 0.45801 0.68832 0.0
H2330 H 0.1747 0.46029 0.6611 0.0
H2331 H 0.17066 0.5204 0.62613 0.0
H2332 H 0.09686 0.50346 0.5446 0.0
H2333 H 0.12571 0.50227 0.57118 0.0
C2334 C 0.50281 0.14696 0.7132 0.0
C2335 C 0.51889 0.16222 0.71637 0.0
C2336 C 0.50119 0.13663 0.69376 0.0
C2337 C 0.53123 0.12481 0.64407 0.0
H2338 H 0.47294 0.1107 0.62432 0.0
C2339 C 0.5128 0.08352 0.56357 0.0
C2340 C 0.50121 0.06483 0.56646 0.0
C2341 C 0.51486 0.09767 0.58037 0.0
C2342 C 0.48928 0.11465 0.62963 0.0
H2343 H 0.54619 0.17845 0.70186 0.0
H2344 H 0.54307 0.16068 0.66756 0.0
H2345 H 0.47733 0.1313 0.65664 0.0
H2346 H 0.48204 0.04657 0.58874 0.0
H2347 H 0.48516 0.07156 0.61788 0.0
H2348 H 0.54302 0.10815 0.61676 0.0
C2349 C 0.53191 0.15646 0.68024 0.0
C2350 C 0.49185 0.12628 0.64821 0.0
C2351 C 0.5337 0.16665 0.69987 0.0
C2352 C 0.49116 0.06082 0.58615 0.0
C2353 C 0.49283 0.07513 0.60274 0.0
C2354 C 0.52862 0.11341 0.62527 0.0
C2355 C 0.51543 0.14152 0.6769 0.0
C2356 C 0.51286 0.131 0.65599 0.0
C2357 C 0.50491 0.09353 0.60008 0.0
C2358 C 0.50764 0.10783 0.61824 0.0
H2359 H 0.49131 0.14306 0.72572 0.0
H2360 H 0.48872 0.12478 0.69198 0.0
H2361 H 0.54763 0.12805 0.64966 0.0
H2362 H 0.5208 0.0869 0.54856 0.0
H2363 H 0.52422 0.11181 0.57802 0.0
C2364 C 0.8004 0.50951 0.31299 0.0
C2365 C 0.79359 0.49005 0.30517 0.0
C2366 C 0.81632 0.51077 0.32892 0.0
C2367 C 0.86187 0.48088 0.35229 0.0
H2368 H 0.85762 0.52127 0.39802 0.0
C2369 C 0.9337 0.4974 0.40969 0.0
C2370 C 0.92851 0.49938 0.43144 0.0
C2371 C 0.91713 0.49664 0.39434 0.0
C2372 C 0.85899 0.50983 0.38541 0.0
H2373 H 0.79775 0.45664 0.30835 0.0
H2374 H 0.82534 0.45886 0.33631 0.0
H2375 H 0.82824 0.5187 0.37183 0.0
H2376 H 0.90168 0.50232 0.45397 0.0
H2377 H 0.87297 0.50085 0.42724 0.0
H2378 H 0.89244 0.47178 0.36604 0.0
C2379 C 0.81862 0.47315 0.32989 0.0
C2380 C 0.84226 0.5085 0.37029 0.0
C2381 C 0.80268 0.47187 0.31397 0.0
C2382 C 0.90637 0.50077 0.4374 0.0
C2383 C 0.88985 0.50007 0.42205 0.0
C2384 C 0.87862 0.48225 0.36736 0.0
C2385 C 0.8258 0.49261 0.33738 0.0
C2386 C 0.84348 0.49397 0.35358 0.0
C2387 C 0.89502 0.49791 0.40035 0.0
C2388 C 0.87737 0.49672 0.38412 0.0
H2389 H 0.79376 0.52381 0.30651 0.0
H2390 H 0.82163 0.52601 0.3342 0.0
H2391 H 0.86345 0.46971 0.33946 0.0
H2392 H 0.95054 0.49629 0.40447 0.0
H2393 H 0.92167 0.49521 0.37772 0.0
C2394 C 0.51191 0.80623 0.31589 0.0
C2395 C 0.50601 0.81234 0.29516 0.0
C2396 C 0.51045 0.82035 0.33283 0.0
C2397 C 0.51144 0.87646 0.34319 0.0
H2398 H 0.48617 0.86239 0.39799 0.0
C2399 C 0.49543 0.9389 0.40692 0.0
C2400 C 0.49975 0.9337 0.42826 0.0
C2401 C 0.49586 0.92361 0.3911 0.0
C2402 C 0.49353 0.86648 0.38286 0.0
H2403 H 0.4933 0.83785 0.27608 0.0
H2404 H 0.49086 0.86233 0.30551 0.0
H2405 H 0.48752 0.83615 0.36981 0.0
H2406 H 0.50801 0.90831 0.44968 0.0
H2407 H 0.50913 0.88178 0.42204 0.0
H2408 H 0.51776 0.90662 0.35614 0.0
C2409 C 0.4968 0.84673 0.30865 0.0
C2410 C 0.49426 0.85146 0.36675 0.0
C2411 C 0.4981 0.83264 0.29182 0.0
C2412 C 0.50444 0.91285 0.43342 0.0
C2413 C 0.505 0.89759 0.41758 0.0
C2414 C 0.51086 0.8914 0.3593 0.0
C2415 C 0.50325 0.84085 0.32925 0.0
C2416 C 0.50304 0.85639 0.34669 0.0
C2417 C 0.50077 0.9028 0.39622 0.0
C2418 C 0.50173 0.88667 0.37928 0.0
H2419 H 0.51803 0.79069 0.31897 0.0
H2420 H 0.51558 0.81544 0.34857 0.0
H2421 H 0.51867 0.88056 0.328 0.0
H2422 H 0.49154 0.95475 0.40239 0.0
H2423 H 0.49214 0.92809 0.37486 0.0
C2424 C 0.19604 0.52748 0.31401 0.0
C2425 C 0.20496 0.50927 0.30513 0.0
C2426 C 0.17996 0.52627 0.3298 0.0
C2427 C 0.15573 0.4909 0.36985 0.0
H2428 H 0.10605 0.52827 0.36584 0.0
C2429 C 0.09186 0.49893 0.43708 0.0
C2430 C 0.06972 0.50058 0.43119 0.0
C2431 C 0.10835 0.49959 0.4217 0.0
C2432 C 0.11973 0.51762 0.36709 0.0
H2433 H 0.20428 0.47551 0.30616 0.0
H2434 H 0.17616 0.47341 0.33363 0.0
H2435 H 0.13508 0.53018 0.33927 0.0
H2436 H 0.04766 0.50413 0.40431 0.0
H2437 H 0.07648 0.50514 0.37748 0.0
H2438 H 0.14019 0.47813 0.39749 0.0
C2439 C 0.18172 0.48863 0.32852 0.0
C2440 C 0.1365 0.51888 0.35202 0.0
C2441 C 0.19778 0.48983 0.31271 0.0
C2442 C 0.0645 0.50281 0.40947 0.0
C2443 C 0.08103 0.50353 0.39408 0.0
C2444 C 0.13897 0.48967 0.38496 0.0
C2445 C 0.17245 0.50683 0.33708 0.0
C2446 C 0.15471 0.50555 0.35323 0.0
C2447 C 0.10315 0.50196 0.40003 0.0
C2448 C 0.12079 0.50303 0.38376 0.0
H2449 H 0.20124 0.5427 0.30858 0.0
H2450 H 0.17339 0.54059 0.3363 0.0
H2451 H 0.1696 0.48051 0.37132 0.0
H2452 H 0.09658 0.49719 0.45362 0.0
H2453 H 0.12523 0.49859 0.42684 0.0
C2454 C 0.48597 0.19529 0.31792 0.0
C2455 C 0.49474 0.19027 0.29785 0.0
C2456 C 0.48746 0.18115 0.33486 0.0
C2457 C 0.49202 0.12516 0.34462 0.0
H2458 H 0.50909 0.14052 0.40199 0.0
C2459 C 0.50644 0.06302 0.40904 0.0
C2460 C 0.49965 0.06742 0.42994 0.0
C2461 C 0.50635 0.07857 0.39347 0.0
C2462 C 0.504 0.13602 0.38612 0.0
H2463 H 0.51268 0.16679 0.28011 0.0
H2464 H 0.51515 0.14226 0.30953 0.0
H2465 H 0.50805 0.16706 0.37406 0.0
H2466 H 0.48735 0.09163 0.45087 0.0
H2467 H 0.48664 0.11861 0.42357 0.0
H2468 H 0.48749 0.09431 0.35652 0.0
C2469 C 0.50694 0.157 0.31212 0.0
C2470 C 0.50348 0.15122 0.37014 0.0
C2471 C 0.50561 0.17114 0.29529 0.0
C2472 C 0.49283 0.08776 0.43494 0.0
C2473 C 0.49252 0.10327 0.4193 0.0
C2474 C 0.49233 0.11003 0.36058 0.0
C2475 C 0.49758 0.16169 0.33196 0.0
C2476 C 0.49767 0.14588 0.34919 0.0
C2477 C 0.49922 0.09886 0.39834 0.0
C2478 C 0.49851 0.1152 0.38151 0.0
H2479 H 0.47753 0.20992 0.32041 0.0
H2480 H 0.48005 0.18513 0.35 0.0
H2481 H 0.48709 0.12067 0.32869 0.0
H2482 H 0.51206 0.04759 0.4047 0.0
H2483 H 0.51206 0.07469 0.37763 0.0
C2484 C 0.67299 0.7962 0.49594 0.0
C2485 C 0.6891 0.79608 0.51192 0.0
C2486 C 0.65763 0.81232 0.49491 0.0
C2487 C 0.65099 0.86712 0.50763 0.0
H2488 H 0.58873 0.85681 0.50291 0.0
C2489 C 0.58793 0.93431 0.50974 0.0
C2490 C 0.56856 0.93202 0.49798 0.0
C2491 C 0.60268 0.91772 0.51152 0.0
C2492 C 0.60608 0.86004 0.50382 0.0
H2493 H 0.70151 0.81264 0.53954 0.0
H2494 H 0.67492 0.84094 0.53744 0.0
H2495 H 0.61392 0.82754 0.50589 0.0
H2496 H 0.54984 0.91099 0.47807 0.0
H2497 H 0.57593 0.88251 0.48022 0.0
H2498 H 0.64347 0.8995 0.50479 0.0
C2499 C 0.67416 0.8285 0.52581 0.0
C2500 C 0.62047 0.84322 0.50568 0.0
C2501 C 0.68927 0.81221 0.52707 0.0
C2502 C 0.56453 0.9131 0.48748 0.0
C2503 C 0.57945 0.89669 0.48888 0.0
C2504 C 0.63666 0.88395 0.50538 0.0
C2505 C 0.65834 0.82881 0.50961 0.0
C2506 C 0.64304 0.84661 0.50769 0.0
C2507 C 0.59859 0.89861 0.50121 0.0
C2508 C 0.61397 0.88067 0.50348 0.0
H2509 H 0.67243 0.78399 0.48405 0.0
H2510 H 0.64561 0.81225 0.48223 0.0
H2511 H 0.66838 0.87012 0.5089 0.0
H2512 H 0.59133 0.94867 0.51817 0.0
H2513 H 0.61701 0.91978 0.52143 0.0
C2514 C 0.69185 0.1854 0.47078 0.0
C2515 C 0.69178 0.2014 0.48609 0.0
C2516 C 0.67649 0.16932 0.47174 0.0
C2517 C 0.62238 0.15508 0.49111 0.0
H2518 H 0.64467 0.09854 0.49178 0.0
C2519 C 0.56527 0.08564 0.5076 0.0
C2520 C 0.56927 0.06676 0.49702 0.0
C2521 C 0.5804 0.1019 0.50662 0.0
C2522 C 0.63806 0.11417 0.49124 0.0
H2523 H 0.67497 0.21348 0.51389 0.0
H2524 H 0.64769 0.18559 0.51516 0.0
H2525 H 0.66999 0.12766 0.48832 0.0
H2526 H 0.59223 0.05003 0.47711 0.0
H2527 H 0.61829 0.07868 0.47456 0.0
H2528 H 0.59044 0.14183 0.49326 0.0
C2529 C 0.65984 0.18546 0.5026 0.0
C2530 C 0.65263 0.13085 0.48937 0.0
C2531 C 0.67547 0.20138 0.50188 0.0
C2532 C 0.58883 0.06437 0.48559 0.0
C2533 C 0.6038 0.08081 0.48423 0.0
C2534 C 0.60776 0.1384 0.49258 0.0
C2535 C 0.66048 0.16908 0.48777 0.0
C2536 C 0.64493 0.15145 0.48938 0.0
C2537 C 0.59974 0.09988 0.49463 0.0
C2538 C 0.61538 0.11768 0.49281 0.0
H2539 H 0.70423 0.1849 0.45845 0.0
H2540 H 0.67719 0.15696 0.46 0.0
H2541 H 0.61603 0.17083 0.49095 0.0
H2542 H 0.55043 0.08783 0.51677 0.0
H2543 H 0.57688 0.11604 0.51536 0.0
C2544 C 0.80332 0.68506 0.51173 0.0
C2545 C 0.79599 0.69276 0.492 0.0
C2546 C 0.81892 0.66913 0.5126 0.0
C2547 C 0.86284 0.645 0.48074 0.0
H2548 H 0.85853 0.60036 0.52217 0.0
C2549 C 0.93384 0.58759 0.49627 0.0
C2550 C 0.92842 0.5664 0.49859 0.0
C2551 C 0.91749 0.60281 0.49566 0.0
C2552 C 0.8599 0.61266 0.51042 0.0
H2553 H 0.79901 0.68947 0.45773 0.0
H2554 H 0.82606 0.66161 0.45927 0.0
H2555 H 0.82985 0.62678 0.52039 0.0
H2556 H 0.90137 0.54476 0.50224 0.0
H2557 H 0.87296 0.57131 0.50106 0.0
H2558 H 0.89273 0.63077 0.47059 0.0
C2559 C 0.81996 0.66806 0.47407 0.0
C2560 C 0.84358 0.62791 0.50955 0.0
C2561 C 0.80433 0.68394 0.47319 0.0
C2562 C 0.90622 0.56089 0.50043 0.0
C2563 C 0.88989 0.57613 0.49989 0.0
C2564 C 0.87919 0.62981 0.48167 0.0
C2565 C 0.82759 0.66059 0.49378 0.0
C2566 C 0.84484 0.64425 0.49467 0.0
C2567 C 0.89532 0.59726 0.49742 0.0
C2568 C 0.87792 0.61345 0.49652 0.0
H2569 H 0.79727 0.69154 0.52653 0.0
H2570 H 0.82459 0.66387 0.52804 0.0
H2571 H 0.86444 0.65751 0.46926 0.0
H2572 H 0.95073 0.59249 0.49483 0.0
H2573 H 0.92225 0.61897 0.494 0.0
C2574 C 0.3088 0.81229 0.47075 0.0
C2575 C 0.30906 0.79645 0.48624 0.0
C2576 C 0.32382 0.82868 0.47167 0.0
C2577 C 0.37752 0.84384 0.49119 0.0
H2578 H 0.35455 0.90014 0.49111 0.0
C2579 C 0.43381 0.91386 0.50722 0.0
C2580 C 0.42973 0.93259 0.49637 0.0
C2581 C 0.41878 0.89751 0.50638 0.0
C2582 C 0.36134 0.88458 0.49079 0.0
H2583 H 0.32577 0.78501 0.51438 0.0
H2584 H 0.35245 0.81341 0.51559 0.0
H2585 H 0.32959 0.8707 0.48784 0.0
H2586 H 0.40673 0.94901 0.47623 0.0
H2587 H 0.38085 0.92017 0.47391 0.0
H2588 H 0.40928 0.85745 0.49334 0.0
C2589 C 0.34043 0.81319 0.50291 0.0
C2590 C 0.34699 0.86771 0.48902 0.0
C2591 C 0.32515 0.79697 0.50223 0.0
C2592 C 0.41018 0.93478 0.48487 0.0
C2593 C 0.39532 0.91823 0.48365 0.0
C2594 C 0.39192 0.86068 0.49255 0.0
C2595 C 0.33964 0.82936 0.48785 0.0
C2596 C 0.35494 0.8472 0.48932 0.0
C2597 C 0.39949 0.89928 0.49428 0.0
C2598 C 0.38405 0.88132 0.49253 0.0
H2599 H 0.29656 0.81241 0.45827 0.0
H2600 H 0.32301 0.84088 0.45977 0.0
H2601 H 0.38406 0.82816 0.49124 0.0
H2602 H 0.44863 0.91185 0.51646 0.0
H2603 H 0.42236 0.88349 0.5153 0.0
C2604 C 0.19217 0.3143 0.4729 0.0
C2605 C 0.20024 0.30526 0.49173 0.0
C2606 C 0.17695 0.33054 0.47375 0.0
C2607 C 0.15406 0.37109 0.50922 0.0
H2608 H 0.10489 0.36904 0.47023 0.0
C2609 C 0.09202 0.4388 0.50051 0.0
C2610 C 0.06978 0.43343 0.49868 0.0
C2611 C 0.10825 0.42346 0.49986 0.0
C2612 C 0.11844 0.36979 0.48132 0.0
H2613 H 0.19892 0.30648 0.52625 0.0
H2614 H 0.17231 0.33476 0.52772 0.0
H2615 H 0.13276 0.34194 0.46883 0.0
H2616 H 0.0473 0.4075 0.49482 0.0
H2617 H 0.07557 0.38085 0.49381 0.0
H2618 H 0.13951 0.39879 0.52193 0.0
C2619 C 0.17788 0.3294 0.51229 0.0
C2620 C 0.13456 0.35438 0.48035 0.0
C2621 C 0.19307 0.31312 0.51144 0.0
C2622 C 0.06421 0.4123 0.49627 0.0
C2623 C 0.08045 0.39698 0.49554 0.0
C2624 C 0.13796 0.38657 0.51013 0.0
C2625 C 0.16947 0.33816 0.49345 0.0
C2626 C 0.15255 0.35481 0.49431 0.0
C2627 C 0.10267 0.40237 0.49728 0.0
C2628 C 0.11992 0.38606 0.49623 0.0
H2629 H 0.1974 0.30868 0.45745 0.0
H2630 H 0.17105 0.33714 0.45894 0.0
H2631 H 0.16778 0.37198 0.52009 0.0
H2632 H 0.09698 0.45489 0.5024 0.0
H2633 H 0.12522 0.42816 0.50103 0.0
C2634 C 0.32418 0.20215 0.49632 0.0
C2635 C 0.3078 0.20187 0.51204 0.0
C2636 C 0.33983 0.18626 0.49539 0.0
C2637 C 0.34702 0.13143 0.50768 0.0
H2638 H 0.40923 0.14245 0.50429 0.0
C2639 C 0.41066 0.06478 0.51044 0.0
C2640 C 0.43028 0.06735 0.49914 0.0
C2641 C 0.39575 0.08125 0.51211 0.0
C2642 C 0.39191 0.13902 0.50482 0.0
H2643 H 0.29524 0.18488 0.53933 0.0
H2644 H 0.32232 0.157 0.5374 0.0
H2645 H 0.38362 0.17142 0.50699 0.0
H2646 H 0.44932 0.08877 0.47996 0.0
H2647 H 0.42297 0.11706 0.48189 0.0
H2648 H 0.35498 0.09916 0.50473 0.0
C2649 C 0.32307 0.16956 0.52589 0.0
C2650 C 0.37727 0.15568 0.50652 0.0
C2651 C 0.30767 0.1856 0.52706 0.0
C2652 C 0.43443 0.08645 0.48902 0.0
C2653 C 0.41936 0.10274 0.4903 0.0
C2654 C 0.3616 0.11477 0.50558 0.0
C2655 C 0.33915 0.16962 0.50993 0.0
C2656 C 0.35471 0.15203 0.50807 0.0
C2657 C 0.39993 0.10053 0.50212 0.0
C2658 C 0.38428 0.1183 0.50419 0.0
H2659 H 0.32472 0.21446 0.48453 0.0
H2660 H 0.35205 0.18662 0.48289 0.0
H2661 H 0.32965 0.12822 0.50859 0.0
H2662 H 0.40715 0.05027 0.51857 0.0
H2663 H 0.3812 0.07896 0.52165 0.0
C2664 C 0.80686 0.31366 0.5259 0.0
C2665 C 0.7989 0.30456 0.50707 0.0
C2666 C 0.82215 0.32984 0.52506 0.0
C2667 C 0.84532 0.37019 0.48952 0.0
H2668 H 0.8942 0.36838 0.52887 0.0
C2669 C 0.90699 0.4381 0.49834 0.0
C2670 C 0.92925 0.43285 0.50032 0.0
C2671 C 0.89084 0.42268 0.49897 0.0
C2672 C 0.88073 0.36905 0.51768 0.0
H2673 H 0.8005 0.30559 0.47255 0.0
H2674 H 0.82724 0.33377 0.4711 0.0
H2675 H 0.86636 0.34123 0.53021 0.0
H2676 H 0.95185 0.40707 0.50449 0.0
H2677 H 0.9237 0.38027 0.50548 0.0
H2678 H 0.85992 0.39785 0.47677 0.0
C2679 C 0.82153 0.3285 0.48653 0.0
C2680 C 0.86463 0.35362 0.51861 0.0
C2681 C 0.80627 0.31227 0.48736 0.0
C2682 C 0.93492 0.41176 0.5029 0.0
C2683 C 0.91875 0.39636 0.50362 0.0
C2684 C 0.8614 0.38568 0.48864 0.0
C2685 C 0.82982 0.33733 0.50537 0.0
C2686 C 0.84674 0.35397 0.50453 0.0
C2687 C 0.89652 0.40164 0.5017 0.0
C2688 C 0.87933 0.38526 0.50267 0.0
H2689 H 0.80148 0.30814 0.54135 0.0
H2690 H 0.82796 0.3365 0.53987 0.0
H2691 H 0.83167 0.37102 0.47855 0.0
H2692 H 0.90194 0.45415 0.49632 0.0
H2693 H 0.87385 0.4273 0.49767 0.0
C2694 C 0.19468 0.68548 0.48687 0.0
C2695 C 0.20212 0.69299 0.50663 0.0
C2696 C 0.17889 0.66973 0.48593 0.0
C2697 C 0.13475 0.64576 0.51765 0.0
H2698 H 0.13891 0.60121 0.47616 0.0
C2699 C 0.06371 0.58824 0.50221 0.0
C2700 C 0.06922 0.56709 0.49991 0.0
C2701 C 0.08 0.60353 0.50279 0.0
C2702 C 0.13757 0.61348 0.48792 0.0
H2703 H 0.19905 0.68956 0.54089 0.0
H2704 H 0.17164 0.66203 0.53922 0.0
H2705 H 0.16768 0.62751 0.47799 0.0
H2706 H 0.09639 0.54556 0.49626 0.0
H2707 H 0.12466 0.57219 0.49737 0.0
H2708 H 0.10479 0.6316 0.52778 0.0
C2709 C 0.17782 0.66849 0.52446 0.0
C2710 C 0.15395 0.62867 0.48883 0.0
C2711 C 0.19365 0.68418 0.52541 0.0
C2712 C 0.09145 0.56166 0.49805 0.0
C2713 C 0.10771 0.57696 0.49855 0.0
C2714 C 0.11833 0.63063 0.51669 0.0
C2715 C 0.17012 0.66118 0.50471 0.0
C2716 C 0.15275 0.64497 0.50374 0.0
C2717 C 0.10219 0.59807 0.50099 0.0
C2718 C 0.11956 0.61429 0.50184 0.0
H2719 H 0.20082 0.69195 0.4721 0.0
H2720 H 0.17317 0.6646 0.47046 0.0
H2721 H 0.13319 0.65824 0.52917 0.0
H2722 H 0.0468 0.59306 0.50366 0.0
H2723 H 0.07518 0.61968 0.50444 0.0
loop_
_geom_bond_atom_site_label_1
_geom_bond_atom_site_label_2
_geom_bond_distance
_geom_bond_site_symmetry_2
_ccdc_geom_bond_type
O0 Cd1 2.300 1_455 S
O0 C7 1.275 1_455 S
Cd1 O0 2.300 1_655 S
Cd1 O9 2.381 1_655 S
Cd1 O10 2.378 . S
O2 Cd3 2.385 . S
O2 C7 1.255 . S
Cd3 O2 2.385 . S
Cd3 O4 2.317 . S
O4 Cd3 2.317 . S
O4 C5 1.232 . S
C5 O4 1.232 . S
C5 O6 1.218 . S
O6 C5 1.218 . S
C7 O0 1.275 1_655 S
C7 O2 1.255 . S
C8 O9 1.258 1_655 S
C8 O10 1.256 . S
O9 Cd1 2.381 1_455 S
O9 C8 1.258 1_455 S
O10 Cd1 2.378 . S
O10 C8 1.256 . S
O11 Cd12 2.300 1_565 S
O11 C18 1.275 1_565 S
Cd12 O11 2.300 1_545 S
Cd12 O20 2.381 1_545 S
Cd12 O21 2.378 . S
O13 Cd14 2.385 . S
O13 C18 1.255 . S
Cd14 O13 2.385 . S
Cd14 O15 2.317 . S
O15 Cd14 2.317 . S
O15 C16 1.232 . S
C16 O15 1.232 . S
C16 O17 1.218 . S
O17 C16 1.218 . S
C18 O11 1.275 1_545 S
C18 O13 1.255 . S
C19 O20 1.258 1_545 S
C19 O21 1.256 . S
O20 Cd12 2.381 1_565 S
O20 C19 1.258 1_565 S
O21 Cd12 2.378 . S
O21 C19 1.256 . S
O22 Cd23 2.300 1_655 S
O22 C29 1.275 1_655 S
Cd23 O22 2.300 1_455 S
Cd23 O31 2.381 1_455 S
Cd23 O32 2.378 . S
O24 Cd25 2.385 . S
O24 C29 1.255 . S
Cd25 O24 2.385 . S
Cd25 O26 2.317 . S
O26 Cd25 2.317 . S
O26 C27 1.232 . S
C27 O26 1.232 . S
C27 O28 1.218 . S
O28 C27 1.218 . S
C29 O22 1.275 1_455 S
C29 O24 1.255 . S
C30 O31 1.258 1_455 S
C30 O32 1.256 . S
O31 Cd23 2.381 1_655 S
O31 C30 1.258 1_655 S
O32 Cd23 2.378 . S
O32 C30 1.256 . S
O33 Cd34 2.300 1_545 S
O33 C40 1.275 1_545 S
Cd34 O33 2.300 1_565 S
Cd34 O42 2.381 1_565 S
Cd34 O43 2.378 . S
O35 Cd36 2.385 . S
O35 C40 1.255 . S
Cd36 O35 2.385 . S
Cd36 O37 2.317 . S
O37 Cd36 2.317 . S
O37 C38 1.232 . S
C38 O37 1.232 . S
C38 O39 1.218 . S
O39 C38 1.218 . S
C40 O33 1.275 1_565 S
C40 O35 1.255 . S
C41 O42 1.258 1_565 S
C41 O43 1.256 . S
O42 Cd34 2.381 1_545 S
O42 C41 1.258 1_545 S
O43 Cd34 2.378 . S
O43 C41 1.256 . S
O44 Cd45 2.300 1_455 S
O44 C51 1.275 1_455 S
Cd45 O44 2.300 1_655 S
Cd45 O53 2.381 1_655 S
Cd45 O54 2.378 . S
O46 Cd47 2.385 . S
O46 C51 1.255 . S
Cd47 O46 2.385 . S
Cd47 O48 2.317 . S
O48 Cd47 2.317 . S
O48 C49 1.232 . S
C49 O48 1.232 . S
C49 O50 1.218 . S
O50 C49 1.218 . S
C51 O44 1.275 1_655 S
C51 O46 1.255 . S
C52 O53 1.258 1_655 S
C52 O54 1.256 . S
O53 Cd45 2.381 1_455 S
O53 C52 1.258 1_455 S
O54 Cd45 2.378 . S
O54 C52 1.256 . S
O55 Cd56 2.300 1_565 S
O55 C62 1.275 1_565 S
Cd56 O55 2.300 1_545 S
Cd56 O64 2.381 1_545 S
Cd56 O65 2.378 . S
O57 Cd58 2.385 . S
O57 C62 1.255 . S
Cd58 O57 2.385 . S
Cd58 O59 2.317 . S
O59 Cd58 2.317 . S
O59 C60 1.232 . S
C60 O59 1.232 . S
C60 O61 1.218 . S
O61 C60 1.218 . S
C62 O55 1.275 1_545 S
C62 O57 1.255 . S
C63 O64 1.258 1_545 S
C63 O65 1.256 . S
O64 Cd56 2.381 1_565 S
O64 C63 1.258 1_565 S
O65 Cd56 2.378 . S
O65 C63 1.256 . S
O66 Cd67 2.300 1_655 S
O66 C73 1.275 1_655 S
Cd67 O66 2.300 1_455 S
Cd67 O75 2.381 1_455 S
Cd67 O76 2.378 . S
O68 Cd69 2.385 . S
O68 C73 1.255 . S
Cd69 O68 2.385 . S
Cd69 O70 2.317 . S
O70 Cd69 2.317 . S
O70 C71 1.232 . S
C71 O70 1.232 . S
C71 O72 1.218 . S
O72 C71 1.218 . S
C73 O66 1.275 1_455 S
C73 O68 1.255 . S
C74 O75 1.258 1_455 S
C74 O76 1.256 . S
O75 Cd67 2.381 1_655 S
O75 C74 1.258 1_655 S
O76 Cd67 2.378 . S
O76 C74 1.256 . S
O77 Cd78 2.300 1_545 S
O77 C84 1.275 1_545 S
Cd78 O77 2.300 1_565 S
Cd78 O86 2.381 1_565 S
Cd78 O87 2.378 . S
O79 Cd80 2.385 . S
O79 C84 1.255 . S
Cd80 O79 2.385 . S
Cd80 O81 2.317 . S
O81 Cd80 2.317 . S
O81 C82 1.232 . S
C82 O81 1.232 . S
C82 O83 1.218 . S
O83 C82 1.218 . S
C84 O77 1.275 1_565 S
C84 O79 1.255 . S
C85 O86 1.258 1_565 S
C85 O87 1.256 . S
O86 Cd78 2.381 1_545 S
O86 C85 1.258 1_545 S
O87 Cd78 2.378 . S
O87 C85 1.256 . S
O88 Cd89 2.300 1_556 S
O88 C95 1.275 1_556 S
Cd89 O88 2.300 1_554 S
Cd89 O97 2.381 1_554 S
Cd89 O98 2.378 . S
O90 Cd91 2.385 . S
O90 C95 1.255 . S
Cd91 O90 2.385 . S
Cd91 O92 2.317 . S
O92 Cd91 2.317 . S
O92 C93 1.232 . S
C93 O92 1.232 . S
C93 O94 1.218 . S
O94 C93 1.218 . S
C95 O88 1.275 1_554 S
C95 O90 1.255 . S
C96 O97 1.258 1_554 S
C96 O98 1.256 . S
O97 Cd89 2.381 1_556 S
O97 C96 1.258 1_556 S
O98 Cd89 2.378 . S
O98 C96 1.256 . S
O99 Cd100 2.300 1_554 S
O99 C106 1.275 1_554 S
Cd100 O99 2.300 1_556 S
Cd100 O108 2.381 1_556 S
Cd100 O109 2.378 . S
O101 Cd102 2.385 . S
O101 C106 1.255 . S
Cd102 O101 2.385 . S
Cd102 O103 2.317 . S
O103 Cd102 2.317 . S
O103 C104 1.232 . S
C104 O103 1.232 . S
C104 O105 1.218 . S
O105 C104 1.218 . S
C106 O99 1.275 1_556 S
C106 O101 1.255 . S
C107 O108 1.258 1_556 S
C107 O109 1.256 . S
O108 Cd100 2.381 1_554 S
O108 C107 1.258 1_554 S
O109 Cd100 2.378 . S
O109 C107 1.256 . S
O110 Cd111 2.300 1_554 S
O110 C117 1.275 1_554 S
Cd111 O110 2.300 1_556 S
Cd111 O119 2.381 1_556 S
Cd111 O120 2.378 . S
O112 Cd113 2.385 . S
O112 C117 1.255 . S
Cd113 O112 2.385 . S
Cd113 O114 2.317 . S
O114 Cd113 2.317 . S
O114 C115 1.232 . S
C115 O114 1.232 . S
C115 O116 1.218 . S
O116 C115 1.218 . S
C117 O110 1.275 1_556 S
C117 O112 1.255 . S
C118 O119 1.258 1_556 S
C118 O120 1.256 . S
O119 Cd111 2.381 1_554 S
O119 C118 1.258 1_554 S
O120 Cd111 2.378 . S
O120 C118 1.256 . S
O121 Cd122 2.300 1_556 S
O121 C128 1.275 1_556 S
Cd122 O121 2.300 1_554 S
Cd122 O130 2.381 1_554 S
Cd122 O131 2.378 . S
O123 Cd124 2.385 . S
O123 C128 1.255 . S
Cd124 O123 2.385 . S
Cd124 O125 2.317 . S
O125 Cd124 2.317 . S
O125 C126 1.232 . S
C126 O125 1.232 . S
C126 O127 1.218 . S
O127 C126 1.218 . S
C128 O121 1.275 1_554 S
C128 O123 1.255 . S
C129 O130 1.258 1_554 S
C129 O131 1.256 . S
O130 Cd122 2.381 1_556 S
O130 C129 1.258 1_556 S
O131 Cd122 2.378 . S
O131 C129 1.256 . S
O132 Cd133 2.300 . S
O132 C139 1.275 . S
Cd133 O132 2.300 . S
Cd133 O141 2.381 . S
Cd133 O142 2.378 . S
O134 Cd135 2.385 . S
O134 C139 1.255 . S
Cd135 O134 2.385 . S
Cd135 O136 2.317 . S
O136 Cd135 2.317 . S
O136 C137 1.232 . S
C137 O136 1.232 . S
C137 O138 1.218 . S
O138 C137 1.218 . S
C139 O132 1.275 . S
C139 O134 1.255 . S
C140 O141 1.258 . S
C140 O142 1.256 . S
O141 Cd133 2.381 . S
O141 C140 1.258 . S
O142 Cd133 2.378 . S
O142 C140 1.256 . S
O143 Cd144 2.300 . S
O143 C150 1.275 . S
Cd144 O143 2.300 . S
Cd144 O152 2.381 . S
Cd144 O153 2.378 . S
O145 Cd146 2.385 . S
O145 C150 1.255 . S
Cd146 O145 2.385 . S
Cd146 O147 2.317 . S
O147 Cd146 2.317 . S
O147 C148 1.232 . S
C148 O147 1.232 . S
C148 O149 1.218 . S
O149 C148 1.218 . S
C150 O143 1.275 . S
C150 O145 1.255 . S
C151 O152 1.258 . S
C151 O153 1.256 . S
O152 Cd144 2.381 . S
O152 C151 1.258 . S
O153 Cd144 2.378 . S
O153 C151 1.256 . S
O154 Cd155 2.300 . S
O154 C161 1.275 . S
Cd155 O154 2.300 . S
Cd155 O163 2.381 . S
Cd155 O164 2.378 . S
O156 Cd157 2.385 . S
O156 C161 1.255 . S
Cd157 O156 2.385 . S
Cd157 O158 2.317 . S
O158 Cd157 2.317 . S
O158 C159 1.232 . S
C159 O158 1.232 . S
C159 O160 1.218 . S
O160 C159 1.218 . S
C161 O154 1.275 . S
C161 O156 1.255 . S
C162 O163 1.258 . S
C162 O164 1.256 . S
O163 Cd155 2.381 . S
O163 C162 1.258 . S
O164 Cd155 2.378 . S
O164 C162 1.256 . S
O165 Cd166 2.300 . S
O165 C172 1.275 . S
Cd166 O165 2.300 . S
Cd166 O174 2.381 . S
Cd166 O175 2.378 . S
O167 Cd168 2.385 . S
O167 C172 1.255 . S
Cd168 O167 2.385 . S
Cd168 O169 2.317 . S
O169 Cd168 2.317 . S
O169 C170 1.232 . S
C170 O169 1.232 . S
C170 O171 1.218 . S
O171 C170 1.218 . S
C172 O165 1.275 . S
C172 O167 1.255 . S
C173 O174 1.258 . S
C173 O175 1.256 . S
O174 Cd166 2.381 . S
O174 C173 1.258 . S
O175 Cd166 2.378 . S
O175 C173 1.256 . S
O176 Cd177 2.300 . S
O176 C183 1.275 . S
Cd177 O176 2.300 . S
Cd177 O185 2.381 . S
Cd177 O186 2.378 . S
O178 Cd179 2.385 . S
O178 C183 1.255 . S
Cd179 O178 2.385 . S
Cd179 O180 2.317 . S
O180 Cd179 2.317 . S
O180 C181 1.232 . S
C181 O180 1.232 . S
C181 O182 1.218 . S
O182 C181 1.218 . S
C183 O176 1.275 . S
C183 O178 1.255 . S
C184 O185 1.258 . S
C184 O186 1.256 . S
O185 Cd177 2.381 . S
O185 C184 1.258 . S
O186 Cd177 2.378 . S
O186 C184 1.256 . S
O187 Cd188 2.300 . S
O187 C194 1.275 . S
Cd188 O187 2.300 . S
Cd188 O196 2.381 . S
Cd188 O197 2.378 . S
O189 Cd190 2.385 . S
O189 C194 1.255 . S
Cd190 O189 2.385 . S
Cd190 O191 2.317 . S
O191 Cd190 2.317 . S
O191 C192 1.232 . S
C192 O191 1.232 . S
C192 O193 1.218 . S
O193 C192 1.218 . S
C194 O187 1.275 . S
C194 O189 1.255 . S
C195 O196 1.258 . S
C195 O197 1.256 . S
O196 Cd188 2.381 . S
O196 C195 1.258 . S
O197 Cd188 2.378 . S
O197 C195 1.256 . S
O198 Cd199 2.300 . S
O198 C205 1.275 . S
Cd199 O198 2.300 . S
Cd199 O207 2.381 . S
Cd199 O208 2.378 . S
O200 Cd201 2.385 . S
O200 C205 1.255 . S
Cd201 O200 2.385 . S
Cd201 O202 2.317 . S
O202 Cd201 2.317 . S
O202 C203 1.232 . S
C203 O202 1.232 . S
C203 O204 1.218 . S
O204 C203 1.218 . S
C205 O198 1.275 . S
C205 O200 1.255 . S
C206 O207 1.258 . S
C206 O208 1.256 . S
O207 Cd199 2.381 . S
O207 C206 1.258 . S
O208 Cd199 2.378 . S
O208 C206 1.256 . S
O209 Cd210 2.300 . S
O209 C216 1.275 . S
Cd210 O209 2.300 . S
Cd210 O218 2.381 . S
Cd210 O219 2.378 . S
O211 Cd212 2.385 . S
O211 C216 1.255 . S
Cd212 O211 2.385 . S
Cd212 O213 2.317 . S
O213 Cd212 2.317 . S
O213 C214 1.232 . S
C214 O213 1.232 . S
C214 O215 1.218 . S
O215 C214 1.218 . S
C216 O209 1.275 . S
C216 O211 1.255 . S
C217 O218 1.258 . S
C217 O219 1.256 . S
O218 Cd210 2.381 . S
O218 C217 1.258 . S
O219 Cd210 2.378 . S
O219 C217 1.256 . S
O220 Cd221 2.300 . S
O220 C227 1.275 . S
Cd221 O220 2.300 . S
Cd221 O229 2.381 . S
Cd221 O230 2.378 . S
O222 Cd223 2.385 . S
O222 C227 1.255 . S
Cd223 O222 2.385 . S
Cd223 O224 2.317 . S
O224 Cd223 2.317 . S
O224 C225 1.232 . S
C225 O224 1.232 . S
C225 O226 1.218 . S
O226 C225 1.218 . S
C227 O220 1.275 . S
C227 O222 1.255 . S
C228 O229 1.258 . S
C228 O230 1.256 . S
O229 Cd221 2.381 . S
O229 C228 1.258 . S
O230 Cd221 2.378 . S
O230 C228 1.256 . S
O231 Cd232 2.300 . S
O231 C238 1.275 . S
Cd232 O231 2.300 . S
Cd232 O240 2.381 . S
Cd232 O241 2.378 . S
O233 Cd234 2.385 . S
O233 C238 1.255 . S
Cd234 O233 2.385 . S
Cd234 O235 2.317 . S
O235 Cd234 2.317 . S
O235 C236 1.232 . S
C236 O235 1.232 . S
C236 O237 1.218 . S
O237 C236 1.218 . S
C238 O231 1.275 . S
C238 O233 1.255 . S
C239 O240 1.258 . S
C239 O241 1.256 . S
O240 Cd232 2.381 . S
O240 C239 1.258 . S
O241 Cd232 2.378 . S
O241 C239 1.256 . S
O242 Cd243 2.300 . S
O242 C249 1.275 . S
Cd243 O242 2.300 . S
Cd243 O251 2.381 . S
Cd243 O252 2.378 . S
O244 Cd245 2.385 . S
O244 C249 1.255 . S
Cd245 O244 2.385 . S
Cd245 O246 2.317 . S
O246 Cd245 2.317 . S
O246 C247 1.232 . S
C247 O246 1.232 . S
C247 O248 1.218 . S
O248 C247 1.218 . S
C249 O242 1.275 . S
C249 O244 1.255 . S
C250 O251 1.258 . S
C250 O252 1.256 . S
O251 Cd243 2.381 . S
O251 C250 1.258 . S
O252 Cd243 2.378 . S
O252 C250 1.256 . S
O253 Cd254 2.300 . S
O253 C260 1.275 . S
Cd254 O253 2.300 . S
Cd254 O262 2.381 . S
Cd254 O263 2.378 . S
O255 Cd256 2.385 . S
O255 C260 1.255 . S
Cd256 O255 2.385 . S
Cd256 O257 2.317 . S
O257 Cd256 2.317 . S
O257 C258 1.232 . S
C258 O257 1.232 . S
C258 O259 1.218 . S
O259 C258 1.218 . S
C260 O253 1.275 . S
C260 O255 1.255 . S
C261 O262 1.258 . S
C261 O263 1.256 . S
O262 Cd254 2.381 . S
O262 C261 1.258 . S
O263 Cd254 2.378 . S
O263 C261 1.256 . S
C264 O290 1.283 . S
C264 O308 1.283 . S
C265 O291 1.283 . S
C265 O306 1.283 . S
C266 O292 1.283 . S
C266 O309 1.283 . S
C267 O293 1.283 . S
C267 O307 1.283 . S
C268 O294 1.283 . S
C268 O303 1.283 . S
C269 O295 1.283 . S
C269 O305 1.283 . S
C270 O296 1.283 . S
C270 O302 1.283 . S
C271 O297 1.283 . S
C271 O304 1.283 . S
C272 O298 1.283 . S
C272 O313 1.283 . S
C273 O299 1.283 . S
C273 O311 1.283 . S
C274 O300 1.283 . S
C274 O312 1.283 . S
C275 O301 1.283 . S
C275 O310 1.283 . S
Eu276 O277 2.370 1_455 S
Eu276 O278 2.370 . S
Eu276 O281 2.370 1_455 S
Eu276 O282 2.370 . S
Eu276 O290 2.363 . S
Eu276 O291 2.363 . S
Eu276 O304 2.363 . S
Eu276 O305 2.363 1_455 S
O277 Eu276 2.370 1_655 S
O277 Eu279 2.370 1_565 S
O277 Eu284 2.370 1_665 S
O278 Eu276 2.370 . S
O278 Eu280 2.370 1_565 S
O278 Eu283 2.370 1_565 S
Eu279 O277 2.370 1_545 S
Eu279 O281 2.370 1_545 S
Eu279 O285 2.370 . S
Eu279 O286 2.370 . S
Eu279 O294 2.363 . S
Eu279 O295 2.363 1_545 S
Eu279 O310 2.363 . S
Eu279 O311 2.363 . S
Eu280 O278 2.370 1_545 S
Eu280 O282 2.370 1_545 S
Eu280 O287 2.370 . S
Eu280 O288 2.370 . S
Eu280 O296 2.363 . S
Eu280 O297 2.363 1_545 S
Eu280 O312 2.363 . S
Eu280 O313 2.363 . S
O281 Eu276 2.370 1_655 S
O281 Eu279 2.370 1_565 S
O281 Eu283 2.370 1_665 S
O282 Eu276 2.370 . S
O282 Eu280 2.370 1_565 S
O282 Eu284 2.370 1_565 S
Eu283 O278 2.370 1_545 S
Eu283 O281 2.370 1_445 S
Eu283 O285 2.370 1_455 S
Eu283 O288 2.370 . S
Eu283 O300 2.363 . S
Eu283 O301 2.363 1_455 S
Eu283 O308 2.363 1_545 S
Eu283 O309 2.363 . S
Eu284 O277 2.370 1_445 S
Eu284 O282 2.370 1_545 S
Eu284 O286 2.370 1_455 S
Eu284 O287 2.370 . S
Eu284 O298 2.363 . S
Eu284 O299 2.363 1_455 S
Eu284 O306 2.363 1_545 S
Eu284 O307 2.363 . S
O285 Eu279 2.370 . S
O285 Eu283 2.370 1_655 S
O285 Eu289 2.370 1_655 S
O286 Eu279 2.370 . S
O286 Eu284 2.370 1_655 S
O286 Eu289 2.370 1_655 S
O287 Eu280 2.370 . S
O287 Eu284 2.370 . S
O287 Eu289 2.370 . S
O288 Eu280 2.370 . S
O288 Eu283 2.370 . S
O288 Eu289 2.370 . S
Eu289 O285 2.370 1_455 S
Eu289 O286 2.370 1_455 S
Eu289 O287 2.370 . S
Eu289 O288 2.370 . S
Eu289 O292 2.363 . S
Eu289 O293 2.363 . S
Eu289 O302 2.363 . S
Eu289 O303 2.363 1_455 S
O290 C264 1.283 . S
O290 Eu276 2.363 . S
O291 C265 1.283 . S
O291 Eu276 2.363 . S
O292 C266 1.283 . S
O292 Eu289 2.363 . S
O293 C267 1.283 . S
O293 Eu289 2.363 . S
O294 C268 1.283 . S
O294 Eu279 2.363 . S
O295 C269 1.283 . S
O295 Eu279 2.363 1_565 S
O296 C270 1.283 . S
O296 Eu280 2.363 . S
O297 C271 1.283 . S
O297 Eu280 2.363 1_565 S
O298 C272 1.283 . S
O298 Eu284 2.363 . S
O299 C273 1.283 . S
O299 Eu284 2.363 1_655 S
O300 C274 1.283 . S
O300 Eu283 2.363 . S
O301 C275 1.283 . S
O301 Eu283 2.363 1_655 S
O302 C270 1.283 . S
O302 Eu289 2.363 . S
O303 C268 1.283 . S
O303 Eu289 2.363 1_655 S
O304 C271 1.283 . S
O304 Eu276 2.363 . S
O305 C269 1.283 . S
O305 Eu276 2.363 1_655 S
O306 C265 1.283 . S
O306 Eu284 2.363 1_565 S
O307 C267 1.283 . S
O307 Eu284 2.363 . S
O308 C264 1.283 . S
O308 Eu283 2.363 1_565 S
O309 C266 1.283 . S
O309 Eu283 2.363 . S
O310 C275 1.283 . S
O310 Eu279 2.363 . S
O311 C273 1.283 . S
O311 Eu279 2.363 . S
O312 C274 1.283 . S
O312 Eu280 2.363 . S
O313 C272 1.283 . S
O313 Eu280 2.363 . S
C314 O340 1.283 . S
C314 O358 1.283 . S
C315 O341 1.283 . S
C315 O356 1.283 . S
C316 O342 1.283 . S
C316 O359 1.283 . S
C317 O343 1.283 . S
C317 O357 1.283 . S
C318 O344 1.283 . S
C318 O353 1.283 . S
C319 O345 1.283 . S
C319 O355 1.283 . S
C320 O346 1.283 . S
C320 O352 1.283 . S
C321 O347 1.283 . S
C321 O354 1.283 . S
C322 O348 1.283 . S
C322 O363 1.283 . S
C323 O349 1.283 . S
C323 O361 1.283 . S
C324 O350 1.283 . S
C324 O362 1.283 . S
C325 O351 1.283 . S
C325 O360 1.283 . S
Eu326 O327 2.370 . S
Eu326 O328 2.370 1_545 S
Eu326 O331 2.370 1_545 S
Eu326 O332 2.370 . S
Eu326 O340 2.363 1_545 S
Eu326 O341 2.363 . S
Eu326 O354 2.363 . S
Eu326 O355 2.363 . S
O327 Eu326 2.370 . S
O327 Eu329 2.370 . S
O327 Eu334 2.370 . S
O328 Eu326 2.370 1_565 S
O328 Eu330 2.370 1_565 S
O328 Eu333 2.370 . S
Eu329 O327 2.370 . S
Eu329 O331 2.370 1_545 S
Eu329 O335 2.370 1_544 S
Eu329 O336 2.370 1_554 S
Eu329 O344 2.363 1_554 S
Eu329 O345 2.363 . S
Eu329 O360 2.363 1_545 S
Eu329 O361 2.363 . S
Eu330 O328 2.370 1_545 S
Eu330 O332 2.370 . S
Eu330 O337 2.370 1_554 S
Eu330 O338 2.370 1_544 S
Eu330 O346 2.363 1_554 S
Eu330 O347 2.363 . S
Eu330 O362 2.363 1_545 S
Eu330 O363 2.363 . S
O331 Eu326 2.370 1_565 S
O331 Eu329 2.370 1_565 S
O331 Eu333 2.370 . S
O332 Eu326 2.370 . S
O332 Eu330 2.370 . S
O332 Eu334 2.370 . S
Eu333 O328 2.370 . S
Eu333 O331 2.370 . S
Eu333 O335 2.370 1_554 S
Eu333 O338 2.370 1_554 S
Eu333 O350 2.363 . S
Eu333 O351 2.363 . S
Eu333 O358 2.363 . S
Eu333 O359 2.363 1_554 S
Eu334 O327 2.370 . S
Eu334 O332 2.370 . S
Eu334 O336 2.370 1_554 S
Eu334 O337 2.370 1_554 S
Eu334 O348 2.363 . S
Eu334 O349 2.363 . S
Eu334 O356 2.363 . S
Eu334 O357 2.363 1_554 S
O335 Eu329 2.370 1_566 S
O335 Eu333 2.370 1_556 S
O335 Eu339 2.370 1_565 S
O336 Eu329 2.370 1_556 S
O336 Eu334 2.370 1_556 S
O336 Eu339 2.370 . S
O337 Eu330 2.370 1_556 S
O337 Eu334 2.370 1_556 S
O337 Eu339 2.370 . S
O338 Eu330 2.370 1_566 S
O338 Eu333 2.370 1_556 S
O338 Eu339 2.370 1_565 S
Eu339 O335 2.370 1_545 S
Eu339 O336 2.370 . S
Eu339 O337 2.370 . S
Eu339 O338 2.370 1_545 S
Eu339 O342 2.363 1_545 S
Eu339 O343 2.363 . S
Eu339 O352 2.363 . S
Eu339 O353 2.363 . S
O340 C314 1.283 . S
O340 Eu326 2.363 1_565 S
O341 C315 1.283 . S
O341 Eu326 2.363 . S
O342 C316 1.283 . S
O342 Eu339 2.363 1_565 S
O343 C317 1.283 . S
O343 Eu339 2.363 . S
O344 C318 1.283 . S
O344 Eu329 2.363 1_556 S
O345 C319 1.283 . S
O345 Eu329 2.363 . S
O346 C320 1.283 . S
O346 Eu330 2.363 1_556 S
O347 C321 1.283 . S
O347 Eu330 2.363 . S
O348 C322 1.283 . S
O348 Eu334 2.363 . S
O349 C323 1.283 . S
O349 Eu334 2.363 . S
O350 C324 1.283 . S
O350 Eu333 2.363 . S
O351 C325 1.283 . S
O351 Eu333 2.363 . S
O352 C320 1.283 . S
O352 Eu339 2.363 . S
O353 C318 1.283 . S
O353 Eu339 2.363 . S
O354 C321 1.283 . S
O354 Eu326 2.363 . S
O355 C319 1.283 . S
O355 Eu326 2.363 . S
O356 C315 1.283 . S
O356 Eu334 2.363 . S
O357 C317 1.283 . S
O357 Eu334 2.363 1_556 S
O358 C314 1.283 . S
O358 Eu333 2.363 . S
O359 C316 1.283 . S
O359 Eu333 2.363 1_556 S
O360 C325 1.283 . S
O360 Eu329 2.363 1_565 S
O361 C323 1.283 . S
O361 Eu329 2.363 . S
O362 C324 1.283 . S
O362 Eu330 2.363 1_565 S
O363 C322 1.283 . S
O363 Eu330 2.363 . S
C364 O390 1.283 . S
C364 O408 1.283 . S
C365 O391 1.283 . S
C365 O406 1.283 . S
C366 O392 1.283 . S
C366 O409 1.283 . S
C367 O393 1.283 . S
C367 O407 1.283 . S
C368 O394 1.283 . S
C368 O403 1.283 . S
C369 O395 1.283 . S
C369 O405 1.283 . S
C370 O396 1.283 . S
C370 O402 1.283 . S
C371 O397 1.283 . S
C371 O404 1.283 . S
C372 O398 1.283 . S
C372 O413 1.283 . S
C373 O399 1.283 . S
C373 O411 1.283 . S
C374 O400 1.283 . S
C374 O412 1.283 . S
C375 O401 1.283 . S
C375 O410 1.283 . S
Eu376 O377 2.370 1_454 S
Eu376 O378 2.370 . S
Eu376 O381 2.370 1_455 S
Eu376 O382 2.370 1_554 S
Eu376 O390 2.363 . S
Eu376 O391 2.363 1_554 S
Eu376 O404 2.363 . S
Eu376 O405 2.363 1_455 S
O377 Eu376 2.370 1_656 S
O377 Eu379 2.370 1_556 S
O377 Eu384 2.370 1_655 S
O378 Eu376 2.370 . S
O378 Eu380 2.370 . S
O378 Eu383 2.370 . S
Eu379 O377 2.370 1_554 S
Eu379 O381 2.370 . S
Eu379 O385 2.370 . S
Eu379 O386 2.370 1_554 S
Eu379 O394 2.363 . S
Eu379 O395 2.363 . S
Eu379 O410 2.363 . S
Eu379 O411 2.363 1_554 S
Eu380 O378 2.370 . S
Eu380 O382 2.370 1_554 S
Eu380 O387 2.370 1_554 S
Eu380 O388 2.370 . S
Eu380 O396 2.363 . S
Eu380 O397 2.363 . S
Eu380 O412 2.363 . S
Eu380 O413 2.363 1_554 S
O381 Eu376 2.370 1_655 S
O381 Eu379 2.370 . S
O381 Eu383 2.370 1_655 S
O382 Eu376 2.370 1_556 S
O382 Eu380 2.370 1_556 S
O382 Eu384 2.370 . S
Eu383 O378 2.370 . S
Eu383 O381 2.370 1_455 S
Eu383 O385 2.370 1_455 S
Eu383 O388 2.370 . S
Eu383 O400 2.363 . S
Eu383 O401 2.363 1_455 S
Eu383 O408 2.363 . S
Eu383 O409 2.363 . S
Eu384 O377 2.370 1_455 S
Eu384 O382 2.370 . S
Eu384 O386 2.370 1_455 S
Eu384 O387 2.370 . S
Eu384 O398 2.363 . S
Eu384 O399 2.363 1_455 S
Eu384 O406 2.363 . S
Eu384 O407 2.363 . S
O385 Eu379 2.370 . S
O385 Eu383 2.370 1_655 S
O385 Eu389 2.370 1_655 S
O386 Eu379 2.370 1_556 S
O386 Eu384 2.370 1_655 S
O386 Eu389 2.370 1_656 S
O387 Eu380 2.370 1_556 S
O387 Eu384 2.370 . S
O387 Eu389 2.370 1_556 S
O388 Eu380 2.370 . S
O388 Eu383 2.370 . S
O388 Eu389 2.370 . S
Eu389 O385 2.370 1_455 S
Eu389 O386 2.370 1_454 S
Eu389 O387 2.370 1_554 S
Eu389 O388 2.370 . S
Eu389 O392 2.363 . S
Eu389 O393 2.363 1_554 S
Eu389 O402 2.363 . S
Eu389 O403 2.363 1_455 S
O390 C364 1.283 . S
O390 Eu376 2.363 . S
O391 C365 1.283 . S
O391 Eu376 2.363 1_556 S
O392 C366 1.283 . S
O392 Eu389 2.363 . S
O393 C367 1.283 . S
O393 Eu389 2.363 1_556 S
O394 C368 1.283 . S
O394 Eu379 2.363 . S
O395 C369 1.283 . S
O395 Eu379 2.363 . S
O396 C370 1.283 . S
O396 Eu380 2.363 . S
O397 C371 1.283 . S
O397 Eu380 2.363 . S
O398 C372 1.283 . S
O398 Eu384 2.363 . S
O399 C373 1.283 . S
O399 Eu384 2.363 1_655 S
O400 C374 1.283 . S
O400 Eu383 2.363 . S
O401 C375 1.283 . S
O401 Eu383 2.363 1_655 S
O402 C370 1.283 . S
O402 Eu389 2.363 . S
O403 C368 1.283 . S
O403 Eu389 2.363 1_655 S
O404 C371 1.283 . S
O404 Eu376 2.363 . S
O405 C369 1.283 . S
O405 Eu376 2.363 1_655 S
O406 C365 1.283 . S
O406 Eu384 2.363 . S
O407 C367 1.283 . S
O407 Eu384 2.363 . S
O408 C364 1.283 . S
O408 Eu383 2.363 . S
O409 C366 1.283 . S
O409 Eu383 2.363 . S
O410 C375 1.283 . S
O410 Eu379 2.363 . S
O411 C373 1.283 . S
O411 Eu379 2.363 1_556 S
O412 C374 1.283 . S
O412 Eu380 2.363 . S
O413 C372 1.283 . S
O413 Eu380 2.363 1_556 S
C414 O440 1.283 . S
C414 O458 1.283 . S
C415 O441 1.283 . S
C415 O456 1.283 . S
C416 O442 1.283 . S
C416 O459 1.283 . S
C417 O443 1.283 . S
C417 O457 1.283 . S
C418 O444 1.283 . S
C418 O453 1.283 . S
C419 O445 1.283 . S
C419 O455 1.283 . S
C420 O446 1.283 . S
C420 O452 1.283 . S
C421 O447 1.283 . S
C421 O454 1.283 . S
C422 O448 1.283 . S
C422 O463 1.283 . S
C423 O449 1.283 . S
C423 O461 1.283 . S
C424 O450 1.283 . S
C424 O462 1.283 . S
C425 O451 1.283 . S
C425 O460 1.283 . S
Eu426 O427 2.370 . S
Eu426 O428 2.370 . S
Eu426 O431 2.370 . S
Eu426 O432 2.370 . S
Eu426 O440 2.363 . S
Eu426 O441 2.363 . S
Eu426 O454 2.363 . S
Eu426 O455 2.363 . S
O427 Eu426 2.370 . S
O427 Eu429 2.370 . S
O427 Eu434 2.370 . S
O428 Eu426 2.370 . S
O428 Eu430 2.370 . S
O428 Eu433 2.370 . S
Eu429 O427 2.370 . S
Eu429 O431 2.370 . S
Eu429 O435 2.370 1_554 S
Eu429 O436 2.370 1_554 S
Eu429 O444 2.363 1_554 S
Eu429 O445 2.363 . S
Eu429 O460 2.363 . S
Eu429 O461 2.363 . S
Eu430 O428 2.370 . S
Eu430 O432 2.370 . S
Eu430 O437 2.370 1_554 S
Eu430 O438 2.370 1_554 S
Eu430 O446 2.363 1_554 S
Eu430 O447 2.363 . S
Eu430 O462 2.363 . S
Eu430 O463 2.363 . S
O431 Eu426 2.370 . S
O431 Eu429 2.370 . S
O431 Eu433 2.370 . S
O432 Eu426 2.370 . S
O432 Eu430 2.370 . S
O432 Eu434 2.370 . S
Eu433 O428 2.370 . S
Eu433 O431 2.370 . S
Eu433 O435 2.370 1_554 S
Eu433 O438 2.370 1_554 S
Eu433 O450 2.363 . S
Eu433 O451 2.363 . S
Eu433 O458 2.363 . S
Eu433 O459 2.363 1_554 S
Eu434 O427 2.370 . S
Eu434 O432 2.370 . S
Eu434 O436 2.370 1_554 S
Eu434 O437 2.370 1_554 S
Eu434 O448 2.363 . S
Eu434 O449 2.363 . S
Eu434 O456 2.363 . S
Eu434 O457 2.363 1_554 S
O435 Eu429 2.370 1_556 S
O435 Eu433 2.370 1_556 S
O435 Eu439 2.370 . S
O436 Eu429 2.370 1_556 S
O436 Eu434 2.370 1_556 S
O436 Eu439 2.370 . S
O437 Eu430 2.370 1_556 S
O437 Eu434 2.370 1_556 S
O437 Eu439 2.370 . S
O438 Eu430 2.370 1_556 S
O438 Eu433 2.370 1_556 S
O438 Eu439 2.370 . S
Eu439 O435 2.370 . S
Eu439 O436 2.370 . S
Eu439 O437 2.370 . S
Eu439 O438 2.370 . S
Eu439 O442 2.363 . S
Eu439 O443 2.363 . S
Eu439 O452 2.363 . S
Eu439 O453 2.363 . S
O440 C414 1.283 . S
O440 Eu426 2.363 . S
O441 C415 1.283 . S
O441 Eu426 2.363 . S
O442 C416 1.283 . S
O442 Eu439 2.363 . S
O443 C417 1.283 . S
O443 Eu439 2.363 . S
O444 C418 1.283 . S
O444 Eu429 2.363 1_556 S
O445 C419 1.283 . S
O445 Eu429 2.363 . S
O446 C420 1.283 . S
O446 Eu430 2.363 1_556 S
O447 C421 1.283 . S
O447 Eu430 2.363 . S
O448 C422 1.283 . S
O448 Eu434 2.363 . S
O449 C423 1.283 . S
O449 Eu434 2.363 . S
O450 C424 1.283 . S
O450 Eu433 2.363 . S
O451 C425 1.283 . S
O451 Eu433 2.363 . S
O452 C420 1.283 . S
O452 Eu439 2.363 . S
O453 C418 1.283 . S
O453 Eu439 2.363 . S
O454 C421 1.283 . S
O454 Eu426 2.363 . S
O455 C419 1.283 . S
O455 Eu426 2.363 . S
O456 C415 1.283 . S
O456 Eu434 2.363 . S
O457 C417 1.283 . S
O457 Eu434 2.363 1_556 S
O458 C414 1.283 . S
O458 Eu433 2.363 . S
O459 C416 1.283 . S
O459 Eu433 2.363 1_556 S
O460 C425 1.283 . S
O460 Eu429 2.363 . S
O461 C423 1.283 . S
O461 Eu429 2.363 . S
O462 C424 1.283 . S
O462 Eu430 2.363 . S
O463 C422 1.283 . S
O463 Eu430 2.363 . S
C464 O490 1.283 . S
C464 O508 1.283 . S
C465 O491 1.283 . S
C465 O506 1.283 . S
C466 O492 1.283 . S
C466 O509 1.283 . S
C467 O493 1.283 . S
C467 O507 1.283 . S
C468 O494 1.283 . S
C468 O503 1.283 . S
C469 O495 1.283 . S
C469 O505 1.283 . S
C470 O496 1.283 . S
C470 O502 1.283 . S
C471 O497 1.283 . S
C471 O504 1.283 . S
C472 O498 1.283 . S
C472 O513 1.283 . S
C473 O499 1.283 . S
C473 O511 1.283 . S
C474 O500 1.283 . S
C474 O512 1.283 . S
C475 O501 1.283 . S
C475 O510 1.283 . S
Eu476 O477 2.370 1_455 S
Eu476 O478 2.370 . S
Eu476 O481 2.370 1_455 S
Eu476 O482 2.370 . S
Eu476 O490 2.363 . S
Eu476 O491 2.363 . S
Eu476 O504 2.363 . S
Eu476 O505 2.363 1_455 S
O477 Eu476 2.370 1_655 S
O477 Eu479 2.370 . S
O477 Eu484 2.370 1_655 S
O478 Eu476 2.370 . S
O478 Eu480 2.370 . S
O478 Eu483 2.370 . S
Eu479 O477 2.370 . S
Eu479 O481 2.370 . S
Eu479 O485 2.370 . S
Eu479 O486 2.370 . S
Eu479 O494 2.363 . S
Eu479 O495 2.363 . S
Eu479 O510 2.363 . S
Eu479 O511 2.363 . S
Eu480 O478 2.370 . S
Eu480 O482 2.370 . S
Eu480 O487 2.370 . S
Eu480 O488 2.370 . S
Eu480 O496 2.363 . S
Eu480 O497 2.363 . S
Eu480 O512 2.363 . S
Eu480 O513 2.363 . S
O481 Eu476 2.370 1_655 S
O481 Eu479 2.370 . S
O481 Eu483 2.370 1_655 S
O482 Eu476 2.370 . S
O482 Eu480 2.370 . S
O482 Eu484 2.370 . S
Eu483 O478 2.370 . S
Eu483 O481 2.370 1_455 S
Eu483 O485 2.370 1_455 S
Eu483 O488 2.370 . S
Eu483 O500 2.363 . S
Eu483 O501 2.363 1_455 S
Eu483 O508 2.363 . S
Eu483 O509 2.363 . S
Eu484 O477 2.370 1_455 S
Eu484 O482 2.370 . S
Eu484 O486 2.370 1_455 S
Eu484 O487 2.370 . S
Eu484 O498 2.363 . S
Eu484 O499 2.363 1_455 S
Eu484 O506 2.363 . S
Eu484 O507 2.363 . S
O485 Eu479 2.370 . S
O485 Eu483 2.370 1_655 S
O485 Eu489 2.370 1_655 S
O486 Eu479 2.370 . S
O486 Eu484 2.370 1_655 S
O486 Eu489 2.370 1_655 S
O487 Eu480 2.370 . S
O487 Eu484 2.370 . S
O487 Eu489 2.370 . S
O488 Eu480 2.370 . S
O488 Eu483 2.370 . S
O488 Eu489 2.370 . S
Eu489 O485 2.370 1_455 S
Eu489 O486 2.370 1_455 S
Eu489 O487 2.370 . S
Eu489 O488 2.370 . S
Eu489 O492 2.363 . S
Eu489 O493 2.363 . S
Eu489 O502 2.363 . S
Eu489 O503 2.363 1_455 S
O490 C464 1.283 . S
O490 Eu476 2.363 . S
O491 C465 1.283 . S
O491 Eu476 2.363 . S
O492 C466 1.283 . S
O492 Eu489 2.363 . S
O493 C467 1.283 . S
O493 Eu489 2.363 . S
O494 C468 1.283 . S
O494 Eu479 2.363 . S
O495 C469 1.283 . S
O495 Eu479 2.363 . S
O496 C470 1.283 . S
O496 Eu480 2.363 . S
O497 C471 1.283 . S
O497 Eu480 2.363 . S
O498 C472 1.283 . S
O498 Eu484 2.363 . S
O499 C473 1.283 . S
O499 Eu484 2.363 1_655 S
O500 C474 1.283 . S
O500 Eu483 2.363 . S
O501 C475 1.283 . S
O501 Eu483 2.363 1_655 S
O502 C470 1.283 . S
O502 Eu489 2.363 . S
O503 C468 1.283 . S
O503 Eu489 2.363 1_655 S
O504 C471 1.283 . S
O504 Eu476 2.363 . S
O505 C469 1.283 . S
O505 Eu476 2.363 1_655 S
O506 C465 1.283 . S
O506 Eu484 2.363 . S
O507 C467 1.283 . S
O507 Eu484 2.363 . S
O508 C464 1.283 . S
O508 Eu483 2.363 . S
O509 C466 1.283 . S
O509 Eu483 2.363 . S
O510 C475 1.283 . S
O510 Eu479 2.363 . S
O511 C473 1.283 . S
O511 Eu479 2.363 . S
O512 C474 1.283 . S
O512 Eu480 2.363 . S
O513 C472 1.283 . S
O513 Eu480 2.363 . S
C514 O540 1.283 . S
C514 O558 1.283 . S
C515 O541 1.283 . S
C515 O556 1.283 . S
C516 O542 1.283 . S
C516 O559 1.283 . S
C517 O543 1.283 . S
C517 O557 1.283 . S
C518 O544 1.283 . S
C518 O553 1.283 . S
C519 O545 1.283 . S
C519 O555 1.283 . S
C520 O546 1.283 . S
C520 O552 1.283 . S
C521 O547 1.283 . S
C521 O554 1.283 . S
C522 O548 1.283 . S
C522 O563 1.283 . S
C523 O549 1.283 . S
C523 O561 1.283 . S
C524 O550 1.283 . S
C524 O562 1.283 . S
C525 O551 1.283 . S
C525 O560 1.283 . S
Eu526 O527 2.370 . S
Eu526 O528 2.370 . S
Eu526 O531 2.370 . S
Eu526 O532 2.370 . S
Eu526 O540 2.363 . S
Eu526 O541 2.363 . S
Eu526 O554 2.363 . S
Eu526 O555 2.363 . S
O527 Eu526 2.370 . S
O527 Eu529 2.370 1_565 S
O527 Eu534 2.370 1_565 S
O528 Eu526 2.370 . S
O528 Eu530 2.370 1_565 S
O528 Eu533 2.370 1_565 S
Eu529 O527 2.370 1_545 S
Eu529 O531 2.370 1_545 S
Eu529 O535 2.370 . S
Eu529 O536 2.370 . S
Eu529 O544 2.363 . S
Eu529 O545 2.363 1_545 S
Eu529 O560 2.363 . S
Eu529 O561 2.363 . S
Eu530 O528 2.370 1_545 S
Eu530 O532 2.370 1_545 S
Eu530 O537 2.370 . S
Eu530 O538 2.370 . S
Eu530 O546 2.363 . S
Eu530 O547 2.363 1_545 S
Eu530 O562 2.363 . S
Eu530 O563 2.363 . S
O531 Eu526 2.370 . S
O531 Eu529 2.370 1_565 S
O531 Eu533 2.370 1_565 S
O532 Eu526 2.370 . S
O532 Eu530 2.370 1_565 S
O532 Eu534 2.370 1_565 S
Eu533 O528 2.370 1_545 S
Eu533 O531 2.370 1_545 S
Eu533 O535 2.370 . S
Eu533 O538 2.370 . S
Eu533 O550 2.363 . S
Eu533 O551 2.363 . S
Eu533 O558 2.363 1_545 S
Eu533 O559 2.363 . S
Eu534 O527 2.370 1_545 S
Eu534 O532 2.370 1_545 S
Eu534 O536 2.370 . S
Eu534 O537 2.370 . S
Eu534 O548 2.363 . S
Eu534 O549 2.363 . S
Eu534 O556 2.363 1_545 S
Eu534 O557 2.363 . S
O535 Eu529 2.370 . S
O535 Eu533 2.370 . S
O535 Eu539 2.370 . S
O536 Eu529 2.370 . S
O536 Eu534 2.370 . S
O536 Eu539 2.370 . S
O537 Eu530 2.370 . S
O537 Eu534 2.370 . S
O537 Eu539 2.370 . S
O538 Eu530 2.370 . S
O538 Eu533 2.370 . S
O538 Eu539 2.370 . S
Eu539 O535 2.370 . S
Eu539 O536 2.370 . S
Eu539 O537 2.370 . S
Eu539 O538 2.370 . S
Eu539 O542 2.363 . S
Eu539 O543 2.363 . S
Eu539 O552 2.363 . S
Eu539 O553 2.363 . S
O540 C514 1.283 . S
O540 Eu526 2.363 . S
O541 C515 1.283 . S
O541 Eu526 2.363 . S
O542 C516 1.283 . S
O542 Eu539 2.363 . S
O543 C517 1.283 . S
O543 Eu539 2.363 . S
O544 C518 1.283 . S
O544 Eu529 2.363 . S
O545 C519 1.283 . S
O545 Eu529 2.363 1_565 S
O546 C520 1.283 . S
O546 Eu530 2.363 . S
O547 C521 1.283 . S
O547 Eu530 2.363 1_565 S
O548 C522 1.283 . S
O548 Eu534 2.363 . S
O549 C523 1.283 . S
O549 Eu534 2.363 . S
O550 C524 1.283 . S
O550 Eu533 2.363 . S
O551 C525 1.283 . S
O551 Eu533 2.363 . S
O552 C520 1.283 . S
O552 Eu539 2.363 . S
O553 C518 1.283 . S
O553 Eu539 2.363 . S
O554 C521 1.283 . S
O554 Eu526 2.363 . S
O555 C519 1.283 . S
O555 Eu526 2.363 . S
O556 C515 1.283 . S
O556 Eu534 2.363 1_565 S
O557 C517 1.283 . S
O557 Eu534 2.363 . S
O558 C514 1.283 . S
O558 Eu533 2.363 1_565 S
O559 C516 1.283 . S
O559 Eu533 2.363 . S
O560 C525 1.283 . S
O560 Eu529 2.363 . S
O561 C523 1.283 . S
O561 Eu529 2.363 . S
O562 C524 1.283 . S
O562 Eu530 2.363 . S
O563 C522 1.283 . S
O563 Eu530 2.363 . S
C564 C565 1.349 . S
C564 C566 1.327 . S
C564 H589 0.950 . S
C565 C564 1.349 . S
C565 C581 1.349 . S
C566 C564 1.327 . S
C566 C585 1.429 . S
C566 H590 0.950 . S
C567 C584 1.574 . S
C567 C586 1.368 . S
C567 H591 0.949 . S
H568 C572 0.949 . S
C569 C570 1.349 . S
C569 C571 1.327 . S
C569 H592 0.950 . S
C570 C569 1.349 . S
C570 C582 1.349 . S
C571 C569 1.327 . S
C571 C587 1.429 . S
C571 H593 0.950 . S
C572 H568 0.949 . S
C572 C580 1.574 . S
C572 C588 1.368 . S
H573 C581 0.950 . S
H574 C579 0.950 . S
H575 C580 0.949 . S
H576 C582 0.950 . S
H577 C583 0.950 . S
H578 C584 0.949 . S
C579 H574 0.950 . S
C579 C581 1.327 . S
C579 C585 1.429 . S
C580 C572 1.574 . S
C580 H575 0.949 . S
C580 C586 1.368 . S
C581 C565 1.349 . S
C581 H573 0.950 . S
C581 C579 1.327 . S
C582 C570 1.349 . S
C582 H576 0.950 . S
C582 C583 1.327 . S
C583 H577 0.950 . S
C583 C582 1.327 . S
C583 C587 1.429 . S
C584 C567 1.574 . S
C584 H578 0.949 . S
C584 C588 1.368 . S
C585 C566 1.429 . S
C585 C579 1.429 . S
C585 C586 1.523 . S
C586 C567 1.368 . S
C586 C580 1.368 . S
C586 C585 1.523 . S
C587 C571 1.429 . S
C587 C583 1.429 . S
C587 C588 1.523 . S
C588 C572 1.368 . S
C588 C584 1.368 . S
C588 C587 1.523 . S
H589 C564 0.950 . S
H590 C566 0.950 . S
H591 C567 0.949 . S
H592 C569 0.950 . S
H593 C571 0.950 . S
C594 C595 1.349 . S
C594 C596 1.327 . S
C594 H619 0.950 . S
C595 C594 1.349 . S
C595 C611 1.349 . S
C596 C594 1.327 . S
C596 C615 1.429 . S
C596 H620 0.950 . S
C597 C614 1.574 . S
C597 C616 1.368 . S
C597 H621 0.949 . S
H598 C602 0.949 . S
C599 C600 1.349 . S
C599 C601 1.327 . S
C599 H622 0.950 . S
C600 C599 1.349 . S
C600 C612 1.349 . S
C601 C599 1.327 . S
C601 C617 1.429 . S
C601 H623 0.950 . S
C602 H598 0.949 . S
C602 C610 1.574 . S
C602 C618 1.368 . S
H603 C611 0.950 . S
H604 C609 0.950 . S
H605 C610 0.949 . S
H606 C612 0.950 . S
H607 C613 0.950 . S
H608 C614 0.949 . S
C609 H604 0.950 . S
C609 C611 1.327 . S
C609 C615 1.429 . S
C610 C602 1.574 . S
C610 H605 0.949 . S
C610 C616 1.368 . S
C611 C595 1.349 . S
C611 H603 0.950 . S
C611 C609 1.327 . S
C612 C600 1.349 . S
C612 H606 0.950 . S
C612 C613 1.327 . S
C613 H607 0.950 . S
C613 C612 1.327 . S
C613 C617 1.429 . S
C614 C597 1.574 . S
C614 H608 0.949 . S
C614 C618 1.368 . S
C615 C596 1.429 . S
C615 C609 1.429 . S
C615 C616 1.523 . S
C616 C597 1.368 . S
C616 C610 1.368 . S
C616 C615 1.523 . S
C617 C601 1.429 . S
C617 C613 1.429 . S
C617 C618 1.523 . S
C618 C602 1.368 . S
C618 C614 1.368 . S
C618 C617 1.523 . S
H619 C594 0.950 . S
H620 C596 0.950 . S
H621 C597 0.949 . S
H622 C599 0.950 . S
H623 C601 0.950 . S
C624 C625 1.349 . S
C624 C626 1.327 . S
C624 H649 0.950 . S
C625 C624 1.349 . S
C625 C641 1.349 . S
C626 C624 1.327 . S
C626 C645 1.429 . S
C626 H650 0.950 . S
C627 C644 1.574 . S
C627 C646 1.368 . S
C627 H651 0.949 . S
H628 C632 0.949 . S
C629 C630 1.349 . S
C629 C631 1.327 . S
C629 H652 0.950 . S
C630 C629 1.349 . S
C630 C642 1.349 . S
C631 C629 1.327 . S
C631 C647 1.429 . S
C631 H653 0.950 . S
C632 H628 0.949 . S
C632 C640 1.574 . S
C632 C648 1.368 . S
H633 C641 0.950 . S
H634 C639 0.950 . S
H635 C640 0.949 . S
H636 C642 0.950 . S
H637 C643 0.950 . S
H638 C644 0.949 . S
C639 H634 0.950 . S
C639 C641 1.327 . S
C639 C645 1.429 . S
C640 C632 1.574 . S
C640 H635 0.949 . S
C640 C646 1.368 . S
C641 C625 1.349 . S
C641 H633 0.950 . S
C641 C639 1.327 . S
C642 C630 1.349 . S
C642 H636 0.950 . S
C642 C643 1.327 . S
C643 H637 0.950 . S
C643 C642 1.327 . S
C643 C647 1.429 . S
C644 C627 1.574 . S
C644 H638 0.949 . S
C644 C648 1.368 . S
C645 C626 1.429 . S
C645 C639 1.429 . S
C645 C646 1.523 . S
C646 C627 1.368 . S
C646 C640 1.368 . S
C646 C645 1.523 . S
C647 C631 1.429 . S
C647 C643 1.429 . S
C647 C648 1.523 . S
C648 C632 1.368 . S
C648 C644 1.368 . S
C648 C647 1.523 . S
H649 C624 0.950 . S
H650 C626 0.950 . S
H651 C627 0.949 . S
H652 C629 0.950 . S
H653 C631 0.950 . S
C654 C655 1.349 . S
C654 C656 1.327 . S
C654 H679 0.950 . S
C655 C654 1.349 . S
C655 C671 1.349 . S
C656 C654 1.327 . S
C656 C675 1.429 . S
C656 H680 0.950 . S
C657 C674 1.574 . S
C657 C676 1.368 . S
C657 H681 0.949 . S
H658 C662 0.949 . S
C659 C660 1.349 . S
C659 C661 1.327 . S
C659 H682 0.950 . S
C660 C659 1.349 . S
C660 C672 1.349 . S
C661 C659 1.327 . S
C661 C677 1.429 . S
C661 H683 0.950 . S
C662 H658 0.949 . S
C662 C670 1.574 . S
C662 C678 1.368 . S
H663 C671 0.950 . S
H664 C669 0.950 . S
H665 C670 0.949 . S
H666 C672 0.950 . S
H667 C673 0.950 . S
H668 C674 0.949 . S
C669 H664 0.950 . S
C669 C671 1.327 . S
C669 C675 1.429 . S
C670 C662 1.574 . S
C670 H665 0.949 . S
C670 C676 1.368 . S
C671 C655 1.349 . S
C671 H663 0.950 . S
C671 C669 1.327 . S
C672 C660 1.349 . S
C672 H666 0.950 . S
C672 C673 1.327 . S
C673 H667 0.950 . S
C673 C672 1.327 . S
C673 C677 1.429 . S
C674 C657 1.574 . S
C674 H668 0.949 . S
C674 C678 1.368 . S
C675 C656 1.429 . S
C675 C669 1.429 . S
C675 C676 1.523 . S
C676 C657 1.368 . S
C676 C670 1.368 . S
C676 C675 1.523 . S
C677 C661 1.429 . S
C677 C673 1.429 . S
C677 C678 1.523 . S
C678 C662 1.368 . S
C678 C674 1.368 . S
C678 C677 1.523 . S
H679 C654 0.950 . S
H680 C656 0.950 . S
H681 C657 0.949 . S
H682 C659 0.950 . S
H683 C661 0.950 . S
C684 C685 1.349 . S
C684 C686 1.327 . S
C684 H709 0.950 . S
C685 C684 1.349 . S
C685 C701 1.349 . S
C686 C684 1.327 . S
C686 C705 1.429 . S
C686 H710 0.950 . S
C687 C704 1.574 . S
C687 C706 1.368 . S
C687 H711 0.949 . S
H688 C692 0.949 . S
C689 C690 1.349 . S
C689 C691 1.327 . S
C689 H712 0.950 . S
C690 C689 1.349 . S
C690 C702 1.349 . S
C691 C689 1.327 . S
C691 C707 1.429 . S
C691 H713 0.950 . S
C692 H688 0.949 . S
C692 C700 1.574 . S
C692 C708 1.368 . S
H693 C701 0.950 . S
H694 C699 0.950 . S
H695 C700 0.949 . S
H696 C702 0.950 . S
H697 C703 0.950 . S
H698 C704 0.949 . S
C699 H694 0.950 . S
C699 C701 1.327 . S
C699 C705 1.429 . S
C700 C692 1.574 . S
C700 H695 0.949 . S
C700 C706 1.368 . S
C701 C685 1.349 . S
C701 H693 0.950 . S
C701 C699 1.327 . S
C702 C690 1.349 . S
C702 H696 0.950 . S
C702 C703 1.327 . S
C703 H697 0.950 . S
C703 C702 1.327 . S
C703 C707 1.429 . S
C704 C687 1.574 . S
C704 H698 0.949 . S
C704 C708 1.368 . S
C705 C686 1.429 . S
C705 C699 1.429 . S
C705 C706 1.523 . S
C706 C687 1.368 . S
C706 C700 1.368 . S
C706 C705 1.523 . S
C707 C691 1.429 . S
C707 C703 1.429 . S
C707 C708 1.523 . S
C708 C692 1.368 . S
C708 C704 1.368 . S
C708 C707 1.523 . S
H709 C684 0.950 . S
H710 C686 0.950 . S
H711 C687 0.949 . S
H712 C689 0.950 . S
H713 C691 0.950 . S
C714 C715 1.349 . S
C714 C716 1.327 . S
C714 H739 0.950 . S
C715 C714 1.349 . S
C715 C731 1.349 . S
C716 C714 1.327 . S
C716 C735 1.429 . S
C716 H740 0.950 . S
C717 C734 1.574 . S
C717 C736 1.368 . S
C717 H741 0.949 . S
H718 C722 0.949 . S
C719 C720 1.349 . S
C719 C721 1.327 . S
C719 H742 0.950 . S
C720 C719 1.349 . S
C720 C732 1.349 . S
C721 C719 1.327 . S
C721 C737 1.429 . S
C721 H743 0.950 . S
C722 H718 0.949 . S
C722 C730 1.574 . S
C722 C738 1.368 . S
H723 C731 0.950 . S
H724 C729 0.950 . S
H725 C730 0.949 . S
H726 C732 0.950 . S
H727 C733 0.950 . S
H728 C734 0.949 . S
C729 H724 0.950 . S
C729 C731 1.327 . S
C729 C735 1.429 . S
C730 C722 1.574 . S
C730 H725 0.949 . S
C730 C736 1.368 . S
C731 C715 1.349 . S
C731 H723 0.950 . S
C731 C729 1.327 . S
C732 C720 1.349 . S
C732 H726 0.950 . S
C732 C733 1.327 . S
C733 H727 0.950 . S
C733 C732 1.327 . S
C733 C737 1.429 . S
C734 C717 1.574 . S
C734 H728 0.949 . S
C734 C738 1.368 . S
C735 C716 1.429 . S
C735 C729 1.429 . S
C735 C736 1.523 . S
C736 C717 1.368 . S
C736 C730 1.368 . S
C736 C735 1.523 . S
C737 C721 1.429 . S
C737 C733 1.429 . S
C737 C738 1.523 . S
C738 C722 1.368 . S
C738 C734 1.368 . S
C738 C737 1.523 . S
H739 C714 0.950 . S
H740 C716 0.950 . S
H741 C717 0.949 . S
H742 C719 0.950 . S
H743 C721 0.950 . S
C744 C745 1.349 . S
C744 C746 1.327 . S
C744 H769 0.950 . S
C745 C744 1.349 . S
C745 C761 1.349 . S
C746 C744 1.327 . S
C746 C765 1.429 . S
C746 H770 0.950 . S
C747 C764 1.574 . S
C747 C766 1.368 . S
C747 H771 0.949 . S
H748 C752 0.949 . S
C749 C750 1.349 . S
C749 C751 1.327 . S
C749 H772 0.950 . S
C750 C749 1.349 . S
C750 C762 1.349 . S
C751 C749 1.327 . S
C751 C767 1.429 . S
C751 H773 0.950 . S
C752 H748 0.949 . S
C752 C760 1.574 . S
C752 C768 1.368 . S
H753 C761 0.950 . S
H754 C759 0.950 . S
H755 C760 0.949 . S
H756 C762 0.950 . S
H757 C763 0.950 . S
H758 C764 0.949 . S
C759 H754 0.950 . S
C759 C761 1.327 . S
C759 C765 1.429 . S
C760 C752 1.574 . S
C760 H755 0.949 . S
C760 C766 1.368 . S
C761 C745 1.349 . S
C761 H753 0.950 . S
C761 C759 1.327 . S
C762 C750 1.349 . S
C762 H756 0.950 . S
C762 C763 1.327 . S
C763 H757 0.950 . S
C763 C762 1.327 . S
C763 C767 1.429 . S
C764 C747 1.574 . S
C764 H758 0.949 . S
C764 C768 1.368 . S
C765 C746 1.429 . S
C765 C759 1.429 . S
C765 C766 1.523 . S
C766 C747 1.368 . S
C766 C760 1.368 . S
C766 C765 1.523 . S
C767 C751 1.429 . S
C767 C763 1.429 . S
C767 C768 1.523 . S
C768 C752 1.368 . S
C768 C764 1.368 . S
C768 C767 1.523 . S
H769 C744 0.950 . S
H770 C746 0.950 . S
H771 C747 0.949 . S
H772 C749 0.950 . S
H773 C751 0.950 . S
C774 C775 1.349 . S
C774 C776 1.327 . S
C774 H799 0.950 . S
C775 C774 1.349 . S
C775 C791 1.349 . S
C776 C774 1.327 . S
C776 C795 1.429 . S
C776 H800 0.950 . S
C777 C794 1.574 . S
C777 C796 1.368 . S
C777 H801 0.949 . S
H778 C782 0.949 . S
C779 C780 1.349 . S
C779 C781 1.327 . S
C779 H802 0.950 . S
C780 C779 1.349 . S
C780 C792 1.349 . S
C781 C779 1.327 . S
C781 C797 1.429 . S
C781 H803 0.950 . S
C782 H778 0.949 . S
C782 C790 1.574 . S
C782 C798 1.368 . S
H783 C791 0.950 . S
H784 C789 0.950 . S
H785 C790 0.949 . S
H786 C792 0.950 . S
H787 C793 0.950 . S
H788 C794 0.949 . S
C789 H784 0.950 . S
C789 C791 1.327 . S
C789 C795 1.429 . S
C790 C782 1.574 . S
C790 H785 0.949 . S
C790 C796 1.368 . S
C791 C775 1.349 . S
C791 H783 0.950 . S
C791 C789 1.327 . S
C792 C780 1.349 . S
C792 H786 0.950 . S
C792 C793 1.327 . S
C793 H787 0.950 . S
C793 C792 1.327 . S
C793 C797 1.429 . S
C794 C777 1.574 . S
C794 H788 0.949 . S
C794 C798 1.368 . S
C795 C776 1.429 . S
C795 C789 1.429 . S
C795 C796 1.523 . S
C796 C777 1.368 . S
C796 C790 1.368 . S
C796 C795 1.523 . S
C797 C781 1.429 . S
C797 C793 1.429 . S
C797 C798 1.523 . S
C798 C782 1.368 . S
C798 C794 1.368 . S
C798 C797 1.523 . S
H799 C774 0.950 . S
H800 C776 0.950 . S
H801 C777 0.949 . S
H802 C779 0.950 . S
H803 C781 0.950 . S
C804 C805 1.349 . S
C804 C806 1.327 . S
C804 H829 0.950 . S
C805 C804 1.349 . S
C805 C821 1.349 . S
C806 C804 1.327 . S
C806 C825 1.429 . S
C806 H830 0.950 . S
C807 C824 1.574 . S
C807 C826 1.368 . S
C807 H831 0.949 . S
H808 C812 0.949 . S
C809 C810 1.349 . S
C809 C811 1.327 . S
C809 H832 0.950 . S
C810 C809 1.349 . S
C810 C822 1.349 . S
C811 C809 1.327 . S
C811 C827 1.429 . S
C811 H833 0.950 . S
C812 H808 0.949 . S
C812 C820 1.574 . S
C812 C828 1.368 . S
H813 C821 0.950 . S
H814 C819 0.950 . S
H815 C820 0.949 . S
H816 C822 0.950 . S
H817 C823 0.950 . S
H818 C824 0.949 . S
C819 H814 0.950 . S
C819 C821 1.327 . S
C819 C825 1.429 . S
C820 C812 1.574 . S
C820 H815 0.949 . S
C820 C826 1.368 . S
C821 C805 1.349 . S
C821 H813 0.950 . S
C821 C819 1.327 . S
C822 C810 1.349 . S
C822 H816 0.950 . S
C822 C823 1.327 . S
C823 H817 0.950 . S
C823 C822 1.327 . S
C823 C827 1.429 . S
C824 C807 1.574 . S
C824 H818 0.949 . S
C824 C828 1.368 . S
C825 C806 1.429 . S
C825 C819 1.429 . S
C825 C826 1.523 . S
C826 C807 1.368 . S
C826 C820 1.368 . S
C826 C825 1.523 . S
C827 C811 1.429 . S
C827 C823 1.429 . S
C827 C828 1.523 . S
C828 C812 1.368 . S
C828 C824 1.368 . S
C828 C827 1.523 . S
H829 C804 0.950 . S
H830 C806 0.950 . S
H831 C807 0.949 . S
H832 C809 0.950 . S
H833 C811 0.950 . S
C834 C835 1.349 . S
C834 C836 1.327 . S
C834 H859 0.950 . S
C835 C834 1.349 . S
C835 C851 1.349 . S
C836 C834 1.327 . S
C836 C855 1.429 . S
C836 H860 0.950 . S
C837 C854 1.574 . S
C837 C856 1.368 . S
C837 H861 0.949 . S
H838 C842 0.949 . S
C839 C840 1.349 . S
C839 C841 1.327 . S
C839 H862 0.950 . S
C840 C839 1.349 . S
C840 C852 1.349 . S
C841 C839 1.327 . S
C841 C857 1.429 . S
C841 H863 0.950 . S
C842 H838 0.949 . S
C842 C850 1.574 . S
C842 C858 1.368 . S
H843 C851 0.950 . S
H844 C849 0.950 . S
H845 C850 0.949 . S
H846 C852 0.950 . S
H847 C853 0.950 . S
H848 C854 0.949 . S
C849 H844 0.950 . S
C849 C851 1.327 . S
C849 C855 1.429 . S
C850 C842 1.574 . S
C850 H845 0.949 . S
C850 C856 1.368 . S
C851 C835 1.349 . S
C851 H843 0.950 . S
C851 C849 1.327 . S
C852 C840 1.349 . S
C852 H846 0.950 . S
C852 C853 1.327 . S
C853 H847 0.950 . S
C853 C852 1.327 . S
C853 C857 1.429 . S
C854 C837 1.574 . S
C854 H848 0.949 . S
C854 C858 1.368 . S
C855 C836 1.429 . S
C855 C849 1.429 . S
C855 C856 1.523 . S
C856 C837 1.368 . S
C856 C850 1.368 . S
C856 C855 1.523 . S
C857 C841 1.429 . S
C857 C853 1.429 . S
C857 C858 1.523 . S
C858 C842 1.368 . S
C858 C854 1.368 . S
C858 C857 1.523 . S
H859 C834 0.950 . S
H860 C836 0.950 . S
H861 C837 0.949 . S
H862 C839 0.950 . S
H863 C841 0.950 . S
C864 C865 1.349 . S
C864 C866 1.327 . S
C864 H889 0.950 . S
C865 C864 1.349 . S
C865 C881 1.349 . S
C866 C864 1.327 . S
C866 C885 1.429 . S
C866 H890 0.950 . S
C867 C884 1.574 . S
C867 C886 1.368 . S
C867 H891 0.949 . S
H868 C872 0.949 . S
C869 C870 1.349 . S
C869 C871 1.327 . S
C869 H892 0.950 . S
C870 C869 1.349 . S
C870 C882 1.349 . S
C871 C869 1.327 . S
C871 C887 1.429 . S
C871 H893 0.950 . S
C872 H868 0.949 . S
C872 C880 1.574 . S
C872 C888 1.368 . S
H873 C881 0.950 . S
H874 C879 0.950 . S
H875 C880 0.949 . S
H876 C882 0.950 . S
H877 C883 0.950 . S
H878 C884 0.949 . S
C879 H874 0.950 . S
C879 C881 1.327 . S
C879 C885 1.429 . S
C880 C872 1.574 . S
C880 H875 0.949 . S
C880 C886 1.368 . S
C881 C865 1.349 . S
C881 H873 0.950 . S
C881 C879 1.327 . S
C882 C870 1.349 . S
C882 H876 0.950 . S
C882 C883 1.327 . S
C883 H877 0.950 . S
C883 C882 1.327 . S
C883 C887 1.429 . S
C884 C867 1.574 . S
C884 H878 0.949 . S
C884 C888 1.368 . S
C885 C866 1.429 . S
C885 C879 1.429 . S
C885 C886 1.523 . S
C886 C867 1.368 . S
C886 C880 1.368 . S
C886 C885 1.523 . S
C887 C871 1.429 . S
C887 C883 1.429 . S
C887 C888 1.523 . S
C888 C872 1.368 . S
C888 C884 1.368 . S
C888 C887 1.523 . S
H889 C864 0.950 . S
H890 C866 0.950 . S
H891 C867 0.949 . S
H892 C869 0.950 . S
H893 C871 0.950 . S
C894 C895 1.349 . S
C894 C896 1.327 . S
C894 H919 0.950 . S
C895 C894 1.349 . S
C895 C911 1.349 . S
C896 C894 1.327 . S
C896 C915 1.429 . S
C896 H920 0.950 . S
C897 C914 1.574 . S
C897 C916 1.368 . S
C897 H921 0.949 . S
H898 C902 0.949 . S
C899 C900 1.349 . S
C899 C901 1.327 . S
C899 H922 0.950 . S
C900 C899 1.349 . S
C900 C912 1.349 . S
C901 C899 1.327 . S
C901 C917 1.429 . S
C901 H923 0.950 . S
C902 H898 0.949 . S
C902 C910 1.574 . S
C902 C918 1.368 . S
H903 C911 0.950 . S
H904 C909 0.950 . S
H905 C910 0.949 . S
H906 C912 0.950 . S
H907 C913 0.950 . S
H908 C914 0.949 . S
C909 H904 0.950 . S
C909 C911 1.327 . S
C909 C915 1.429 . S
C910 C902 1.574 . S
C910 H905 0.949 . S
C910 C916 1.368 . S
C911 C895 1.349 . S
C911 H903 0.950 . S
C911 C909 1.327 . S
C912 C900 1.349 . S
C912 H906 0.950 . S
C912 C913 1.327 . S
C913 H907 0.950 . S
C913 C912 1.327 . S
C913 C917 1.429 . S
C914 C897 1.574 . S
C914 H908 0.949 . S
C914 C918 1.368 . S
C915 C896 1.429 . S
C915 C909 1.429 . S
C915 C916 1.523 . S
C916 C897 1.368 . S
C916 C910 1.368 . S
C916 C915 1.523 . S
C917 C901 1.429 . S
C917 C913 1.429 . S
C917 C918 1.523 . S
C918 C902 1.368 . S
C918 C914 1.368 . S
C918 C917 1.523 . S
H919 C894 0.950 . S
H920 C896 0.950 . S
H921 C897 0.949 . S
H922 C899 0.950 . S
H923 C901 0.950 . S
C924 C925 1.349 1_556 S
C924 C926 1.327 . S
C924 H949 0.950 . S
C925 C924 1.349 1_554 S
C925 C941 1.349 . S
C926 C924 1.327 . S
C926 C945 1.429 1_556 S
C926 H950 0.950 . S
C927 C944 1.574 . S
C927 C946 1.368 . S
C927 H951 0.949 . S
H928 C932 0.949 . S
C929 C930 1.349 . S
C929 C931 1.327 . S
C929 H952 0.950 . S
C930 C929 1.349 . S
C930 C942 1.349 1_554 S
C931 C929 1.327 . S
C931 C947 1.429 . S
C931 H953 0.950 . S
C932 H928 0.949 . S
C932 C940 1.574 . S
C932 C948 1.368 1_556 S
H933 C941 0.950 . S
H934 C939 0.950 . S
H935 C940 0.949 . S
H936 C942 0.950 . S
H937 C943 0.950 . S
H938 C944 0.949 . S
C939 H934 0.950 . S
C939 C941 1.327 . S
C939 C945 1.429 . S
C940 C932 1.574 . S
C940 H935 0.949 . S
C940 C946 1.368 1_556 S
C941 C925 1.349 . S
C941 H933 0.950 . S
C941 C939 1.327 . S
C942 C930 1.349 1_556 S
C942 H936 0.950 . S
C942 C943 1.327 . S
C943 H937 0.950 . S
C943 C942 1.327 . S
C943 C947 1.429 1_556 S
C944 C927 1.574 . S
C944 H938 0.949 . S
C944 C948 1.368 . S
C945 C926 1.429 1_554 S
C945 C939 1.429 . S
C945 C946 1.523 . S
C946 C927 1.368 . S
C946 C940 1.368 1_554 S
C946 C945 1.523 . S
C947 C931 1.429 . S
C947 C943 1.429 1_554 S
C947 C948 1.523 . S
C948 C932 1.368 1_554 S
C948 C944 1.368 . S
C948 C947 1.523 . S
H949 C924 0.950 . S
H950 C926 0.950 . S
H951 C927 0.949 . S
H952 C929 0.950 . S
H953 C931 0.950 . S
C954 C955 1.349 . S
C954 C956 1.327 . S
C954 H979 0.950 . S
C955 C954 1.349 . S
C955 C971 1.349 1_554 S
C956 C954 1.327 . S
C956 C975 1.429 . S
C956 H980 0.950 . S
C957 C974 1.574 . S
C957 C976 1.368 1_556 S
C957 H981 0.949 . S
H958 C962 0.949 . S
C959 C960 1.349 1_556 S
C959 C961 1.327 . S
C959 H982 0.950 . S
C960 C959 1.349 1_554 S
C960 C972 1.349 . S
C961 C959 1.327 . S
C961 C977 1.429 1_556 S
C961 H983 0.950 . S
C962 H958 0.949 . S
C962 C970 1.574 . S
C962 C978 1.368 . S
H963 C971 0.950 . S
H964 C969 0.950 . S
H965 C970 0.949 . S
H966 C972 0.950 . S
H967 C973 0.950 . S
H968 C974 0.949 . S
C969 H964 0.950 . S
C969 C971 1.327 . S
C969 C975 1.429 1_556 S
C970 C962 1.574 . S
C970 H965 0.949 . S
C970 C976 1.368 . S
C971 C955 1.349 1_556 S
C971 H963 0.950 . S
C971 C969 1.327 . S
C972 C960 1.349 . S
C972 H966 0.950 . S
C972 C973 1.327 . S
C973 H967 0.950 . S
C973 C972 1.327 . S
C973 C977 1.429 . S
C974 C957 1.574 . S
C974 H968 0.949 . S
C974 C978 1.368 1_556 S
C975 C956 1.429 . S
C975 C969 1.429 1_554 S
C975 C976 1.523 . S
C976 C957 1.368 1_554 S
C976 C970 1.368 . S
C976 C975 1.523 . S
C977 C961 1.429 1_554 S
C977 C973 1.429 . S
C977 C978 1.523 . S
C978 C962 1.368 . S
C978 C974 1.368 1_554 S
C978 C977 1.523 . S
H979 C954 0.950 . S
H980 C956 0.950 . S
H981 C957 0.949 . S
H982 C959 0.950 . S
H983 C961 0.950 . S
C984 C985 1.349 . S
C984 C986 1.327 . S
C984 H1009 0.950 . S
C985 C984 1.349 . S
C985 C1001 1.349 1_554 S
C986 C984 1.327 . S
C986 C1005 1.429 . S
C986 H1010 0.950 . S
C987 C1004 1.574 . S
C987 C1006 1.368 1_556 S
C987 H1011 0.949 . S
H988 C992 0.949 . S
C989 C990 1.349 1_556 S
C989 C991 1.327 . S
C989 H1012 0.950 . S
C990 C989 1.349 1_554 S
C990 C1002 1.349 . S
C991 C989 1.327 . S
C991 C1007 1.429 1_556 S
C991 H1013 0.950 . S
C992 H988 0.949 . S
C992 C1000 1.574 . S
C992 C1008 1.368 . S
H993 C1001 0.950 . S
H994 C999 0.950 . S
H995 C1000 0.949 . S
H996 C1002 0.950 . S
H997 C1003 0.950 . S
H998 C1004 0.949 . S
C999 H994 0.950 . S
C999 C1001 1.327 . S
C999 C1005 1.429 1_556 S
C1000 C992 1.574 . S
C1000 H995 0.949 . S
C1000 C1006 1.368 . S
C1001 C985 1.349 1_556 S
C1001 H993 0.950 . S
C1001 C999 1.327 . S
C1002 C990 1.349 . S
C1002 H996 0.950 . S
C1002 C1003 1.327 . S
C1003 H997 0.950 . S
C1003 C1002 1.327 . S
C1003 C1007 1.429 . S
C1004 C987 1.574 . S
C1004 H998 0.949 . S
C1004 C1008 1.368 1_556 S
C1005 C986 1.429 . S
C1005 C999 1.429 1_554 S
C1005 C1006 1.523 . S
C1006 C987 1.368 1_554 S
C1006 C1000 1.368 . S
C1006 C1005 1.523 . S
C1007 C991 1.429 1_554 S
C1007 C1003 1.429 . S
C1007 C1008 1.523 . S
C1008 C992 1.368 . S
C1008 C1004 1.368 1_554 S
C1008 C1007 1.523 . S
H1009 C984 0.950 . S
H1010 C986 0.950 . S
H1011 C987 0.949 . S
H1012 C989 0.950 . S
H1013 C991 0.950 . S
C1014 C1015 1.349 1_556 S
C1014 C1016 1.327 . S
C1014 H1039 0.950 . S
C1015 C1014 1.349 1_554 S
C1015 C1031 1.349 . S
C1016 C1014 1.327 . S
C1016 C1035 1.429 1_556 S
C1016 H1040 0.950 . S
C1017 C1034 1.574 . S
C1017 C1036 1.368 . S
C1017 H1041 0.949 . S
H1018 C1022 0.949 . S
C1019 C1020 1.349 . S
C1019 C1021 1.327 . S
C1019 H1042 0.950 . S
C1020 C1019 1.349 . S
C1020 C1032 1.349 1_554 S
C1021 C1019 1.327 . S
C1021 C1037 1.429 . S
C1021 H1043 0.950 . S
C1022 H1018 0.949 . S
C1022 C1030 1.574 . S
C1022 C1038 1.368 1_556 S
H1023 C1031 0.950 . S
H1024 C1029 0.950 . S
H1025 C1030 0.949 . S
H1026 C1032 0.950 . S
H1027 C1033 0.950 . S
H1028 C1034 0.949 . S
C1029 H1024 0.950 . S
C1029 C1031 1.327 . S
C1029 C1035 1.429 . S
C1030 C1022 1.574 . S
C1030 H1025 0.949 . S
C1030 C1036 1.368 1_556 S
C1031 C1015 1.349 . S
C1031 H1023 0.950 . S
C1031 C1029 1.327 . S
C1032 C1020 1.349 1_556 S
C1032 H1026 0.950 . S
C1032 C1033 1.327 . S
C1033 H1027 0.950 . S
C1033 C1032 1.327 . S
C1033 C1037 1.429 1_556 S
C1034 C1017 1.574 . S
C1034 H1028 0.949 . S
C1034 C1038 1.368 . S
C1035 C1016 1.429 1_554 S
C1035 C1029 1.429 . S
C1035 C1036 1.523 . S
C1036 C1017 1.368 . S
C1036 C1030 1.368 1_554 S
C1036 C1035 1.523 . S
C1037 C1021 1.429 . S
C1037 C1033 1.429 1_554 S
C1037 C1038 1.523 . S
C1038 C1022 1.368 1_554 S
C1038 C1034 1.368 . S
C1038 C1037 1.523 . S
H1039 C1014 0.950 . S
H1040 C1016 0.950 . S
H1041 C1017 0.949 . S
H1042 C1019 0.950 . S
H1043 C1021 0.950 . S
C1044 C1045 1.349 1_655 S
C1044 C1046 1.327 . S
C1044 H1069 0.950 . S
C1045 C1044 1.349 1_455 S
C1045 C1061 1.349 . S
C1046 C1044 1.327 . S
C1046 C1065 1.429 1_655 S
C1046 H1070 0.950 . S
C1047 C1064 1.574 . S
C1047 C1066 1.368 . S
C1047 H1071 0.949 . S
H1048 C1052 0.949 . S
C1049 C1050 1.349 . S
C1049 C1051 1.327 . S
C1049 H1072 0.950 . S
C1050 C1049 1.349 . S
C1050 C1062 1.349 1_455 S
C1051 C1049 1.327 . S
C1051 C1067 1.429 . S
C1051 H1073 0.950 . S
C1052 H1048 0.949 . S
C1052 C1060 1.574 . S
C1052 C1068 1.368 1_655 S
H1053 C1061 0.950 . S
H1054 C1059 0.950 . S
H1055 C1060 0.949 . S
H1056 C1062 0.950 . S
H1057 C1063 0.950 . S
H1058 C1064 0.949 . S
C1059 H1054 0.950 . S
C1059 C1061 1.327 . S
C1059 C1065 1.429 . S
C1060 C1052 1.574 . S
C1060 H1055 0.949 . S
C1060 C1066 1.368 1_655 S
C1061 C1045 1.349 . S
C1061 H1053 0.950 . S
C1061 C1059 1.327 . S
C1062 C1050 1.349 1_655 S
C1062 H1056 0.950 . S
C1062 C1063 1.327 . S
C1063 H1057 0.950 . S
C1063 C1062 1.327 . S
C1063 C1067 1.429 1_655 S
C1064 C1047 1.574 . S
C1064 H1058 0.949 . S
C1064 C1068 1.368 . S
C1065 C1046 1.429 1_455 S
C1065 C1059 1.429 . S
C1065 C1066 1.523 . S
C1066 C1047 1.368 . S
C1066 C1060 1.368 1_455 S
C1066 C1065 1.523 . S
C1067 C1051 1.429 . S
C1067 C1063 1.429 1_455 S
C1067 C1068 1.523 . S
C1068 C1052 1.368 1_455 S
C1068 C1064 1.368 . S
C1068 C1067 1.523 . S
H1069 C1044 0.950 . S
H1070 C1046 0.950 . S
H1071 C1047 0.949 . S
H1072 C1049 0.950 . S
H1073 C1051 0.950 . S
C1074 C1075 1.349 1_565 S
C1074 C1076 1.327 . S
C1074 H1099 0.950 . S
C1075 C1074 1.349 1_545 S
C1075 C1091 1.349 . S
C1076 C1074 1.327 . S
C1076 C1095 1.429 1_565 S
C1076 H1100 0.950 . S
C1077 C1094 1.574 . S
C1077 C1096 1.368 . S
C1077 H1101 0.949 . S
H1078 C1082 0.949 . S
C1079 C1080 1.349 . S
C1079 C1081 1.327 . S
C1079 H1102 0.950 . S
C1080 C1079 1.349 . S
C1080 C1092 1.349 1_545 S
C1081 C1079 1.327 . S
C1081 C1097 1.429 . S
C1081 H1103 0.950 . S
C1082 H1078 0.949 . S
C1082 C1090 1.574 . S
C1082 C1098 1.368 1_565 S
H1083 C1091 0.950 . S
H1084 C1089 0.950 . S
H1085 C1090 0.949 . S
H1086 C1092 0.950 . S
H1087 C1093 0.950 . S
H1088 C1094 0.949 . S
C1089 H1084 0.950 . S
C1089 C1091 1.327 . S
C1089 C1095 1.429 . S
C1090 C1082 1.574 . S
C1090 H1085 0.949 . S
C1090 C1096 1.368 1_565 S
C1091 C1075 1.349 . S
C1091 H1083 0.950 . S
C1091 C1089 1.327 . S
C1092 C1080 1.349 1_565 S
C1092 H1086 0.950 . S
C1092 C1093 1.327 . S
C1093 H1087 0.950 . S
C1093 C1092 1.327 . S
C1093 C1097 1.429 1_565 S
C1094 C1077 1.574 . S
C1094 H1088 0.949 . S
C1094 C1098 1.368 . S
C1095 C1076 1.429 1_545 S
C1095 C1089 1.429 . S
C1095 C1096 1.523 . S
C1096 C1077 1.368 . S
C1096 C1090 1.368 1_545 S
C1096 C1095 1.523 . S
C1097 C1081 1.429 . S
C1097 C1093 1.429 1_545 S
C1097 C1098 1.523 . S
C1098 C1082 1.368 1_545 S
C1098 C1094 1.368 . S
C1098 C1097 1.523 . S
H1099 C1074 0.950 . S
H1100 C1076 0.950 . S
H1101 C1077 0.949 . S
H1102 C1079 0.950 . S
H1103 C1081 0.950 . S
C1104 C1105 1.349 . S
C1104 C1106 1.327 . S
C1104 H1129 0.950 . S
C1105 C1104 1.349 . S
C1105 C1121 1.349 1_455 S
C1106 C1104 1.327 . S
C1106 C1125 1.429 . S
C1106 H1130 0.950 . S
C1107 C1124 1.574 . S
C1107 C1126 1.368 1_655 S
C1107 H1131 0.949 . S
H1108 C1112 0.949 . S
C1109 C1110 1.349 1_655 S
C1109 C1111 1.327 . S
C1109 H1132 0.950 . S
C1110 C1109 1.349 1_455 S
C1110 C1122 1.349 . S
C1111 C1109 1.327 . S
C1111 C1127 1.429 1_655 S
C1111 H1133 0.950 . S
C1112 H1108 0.949 . S
C1112 C1120 1.574 . S
C1112 C1128 1.368 . S
H1113 C1121 0.950 . S
H1114 C1119 0.950 . S
H1115 C1120 0.949 . S
H1116 C1122 0.950 . S
H1117 C1123 0.950 . S
H1118 C1124 0.949 . S
C1119 H1114 0.950 . S
C1119 C1121 1.327 . S
C1119 C1125 1.429 1_655 S
C1120 C1112 1.574 . S
C1120 H1115 0.949 . S
C1120 C1126 1.368 . S
C1121 C1105 1.349 1_655 S
C1121 H1113 0.950 . S
C1121 C1119 1.327 . S
C1122 C1110 1.349 . S
C1122 H1116 0.950 . S
C1122 C1123 1.327 . S
C1123 H1117 0.950 . S
C1123 C1122 1.327 . S
C1123 C1127 1.429 . S
C1124 C1107 1.574 . S
C1124 H1118 0.949 . S
C1124 C1128 1.368 1_655 S
C1125 C1106 1.429 . S
C1125 C1119 1.429 1_455 S
C1125 C1126 1.523 . S
C1126 C1107 1.368 1_455 S
C1126 C1120 1.368 . S
C1126 C1125 1.523 . S
C1127 C1111 1.429 1_455 S
C1127 C1123 1.429 . S
C1127 C1128 1.523 . S
C1128 C1112 1.368 . S
C1128 C1124 1.368 1_455 S
C1128 C1127 1.523 . S
H1129 C1104 0.950 . S
H1130 C1106 0.950 . S
H1131 C1107 0.949 . S
H1132 C1109 0.950 . S
H1133 C1111 0.950 . S
C1134 C1135 1.349 . S
C1134 C1136 1.327 . S
C1134 H1159 0.950 . S
C1135 C1134 1.349 . S
C1135 C1151 1.349 1_545 S
C1136 C1134 1.327 . S
C1136 C1155 1.429 . S
C1136 H1160 0.950 . S
C1137 C1154 1.574 . S
C1137 C1156 1.368 1_565 S
C1137 H1161 0.949 . S
H1138 C1142 0.949 . S
C1139 C1140 1.349 1_565 S
C1139 C1141 1.327 . S
C1139 H1162 0.950 . S
C1140 C1139 1.349 1_545 S
C1140 C1152 1.349 . S
C1141 C1139 1.327 . S
C1141 C1157 1.429 1_565 S
C1141 H1163 0.950 . S
C1142 H1138 0.949 . S
C1142 C1150 1.574 . S
C1142 C1158 1.368 . S
H1143 C1151 0.950 . S
H1144 C1149 0.950 . S
H1145 C1150 0.949 . S
H1146 C1152 0.950 . S
H1147 C1153 0.950 . S
H1148 C1154 0.949 . S
C1149 H1144 0.950 . S
C1149 C1151 1.327 . S
C1149 C1155 1.429 1_565 S
C1150 C1142 1.574 . S
C1150 H1145 0.949 . S
C1150 C1156 1.368 . S
C1151 C1135 1.349 1_565 S
C1151 H1143 0.950 . S
C1151 C1149 1.327 . S
C1152 C1140 1.349 . S
C1152 H1146 0.950 . S
C1152 C1153 1.327 . S
C1153 H1147 0.950 . S
C1153 C1152 1.327 . S
C1153 C1157 1.429 . S
C1154 C1137 1.574 . S
C1154 H1148 0.949 . S
C1154 C1158 1.368 1_565 S
C1155 C1136 1.429 . S
C1155 C1149 1.429 1_545 S
C1155 C1156 1.523 . S
C1156 C1137 1.368 1_545 S
C1156 C1150 1.368 . S
C1156 C1155 1.523 . S
C1157 C1141 1.429 1_545 S
C1157 C1153 1.429 . S
C1157 C1158 1.523 . S
C1158 C1142 1.368 . S
C1158 C1154 1.368 1_545 S
C1158 C1157 1.523 . S
H1159 C1134 0.950 . S
H1160 C1136 0.950 . S
H1161 C1137 0.949 . S
H1162 C1139 0.950 . S
H1163 C1141 0.950 . S
C1164 C1165 1.349 1_655 S
C1164 C1166 1.327 . S
C1164 H1189 0.950 . S
C1165 C1164 1.349 1_455 S
C1165 C1181 1.349 . S
C1166 C1164 1.327 . S
C1166 C1185 1.429 1_655 S
C1166 H1190 0.950 . S
C1167 C1184 1.574 . S
C1167 C1186 1.368 . S
C1167 H1191 0.949 . S
H1168 C1172 0.949 . S
C1169 C1170 1.349 . S
C1169 C1171 1.327 . S
C1169 H1192 0.950 . S
C1170 C1169 1.349 . S
C1170 C1182 1.349 1_455 S
C1171 C1169 1.327 . S
C1171 C1187 1.429 . S
C1171 H1193 0.950 . S
C1172 H1168 0.949 . S
C1172 C1180 1.574 . S
C1172 C1188 1.368 1_655 S
H1173 C1181 0.950 . S
H1174 C1179 0.950 . S
H1175 C1180 0.949 . S
H1176 C1182 0.950 . S
H1177 C1183 0.950 . S
H1178 C1184 0.949 . S
C1179 H1174 0.950 . S
C1179 C1181 1.327 . S
C1179 C1185 1.429 . S
C1180 C1172 1.574 . S
C1180 H1175 0.949 . S
C1180 C1186 1.368 1_655 S
C1181 C1165 1.349 . S
C1181 H1173 0.950 . S
C1181 C1179 1.327 . S
C1182 C1170 1.349 1_655 S
C1182 H1176 0.950 . S
C1182 C1183 1.327 . S
C1183 H1177 0.950 . S
C1183 C1182 1.327 . S
C1183 C1187 1.429 1_655 S
C1184 C1167 1.574 . S
C1184 H1178 0.949 . S
C1184 C1188 1.368 . S
C1185 C1166 1.429 1_455 S
C1185 C1179 1.429 . S
C1185 C1186 1.523 . S
C1186 C1167 1.368 . S
C1186 C1180 1.368 1_455 S
C1186 C1185 1.523 . S
C1187 C1171 1.429 . S
C1187 C1183 1.429 1_455 S
C1187 C1188 1.523 . S
C1188 C1172 1.368 1_455 S
C1188 C1184 1.368 . S
C1188 C1187 1.523 . S
H1189 C1164 0.950 . S
H1190 C1166 0.950 . S
H1191 C1167 0.949 . S
H1192 C1169 0.950 . S
H1193 C1171 0.950 . S
C1194 C1195 1.349 . S
C1194 C1196 1.327 . S
C1194 H1219 0.950 . S
C1195 C1194 1.349 . S
C1195 C1211 1.349 1_545 S
C1196 C1194 1.327 . S
C1196 C1215 1.429 . S
C1196 H1220 0.950 . S
C1197 C1214 1.574 . S
C1197 C1216 1.368 1_565 S
C1197 H1221 0.949 . S
H1198 C1202 0.949 . S
C1199 C1200 1.349 1_565 S
C1199 C1201 1.327 . S
C1199 H1222 0.950 . S
C1200 C1199 1.349 1_545 S
C1200 C1212 1.349 . S
C1201 C1199 1.327 . S
C1201 C1217 1.429 1_565 S
C1201 H1223 0.950 . S
C1202 H1198 0.949 . S
C1202 C1210 1.574 . S
C1202 C1218 1.368 . S
H1203 C1211 0.950 . S
H1204 C1209 0.950 . S
H1205 C1210 0.949 . S
H1206 C1212 0.950 . S
H1207 C1213 0.950 . S
H1208 C1214 0.949 . S
C1209 H1204 0.950 . S
C1209 C1211 1.327 . S
C1209 C1215 1.429 1_565 S
C1210 C1202 1.574 . S
C1210 H1205 0.949 . S
C1210 C1216 1.368 . S
C1211 C1195 1.349 1_565 S
C1211 H1203 0.950 . S
C1211 C1209 1.327 . S
C1212 C1200 1.349 . S
C1212 H1206 0.950 . S
C1212 C1213 1.327 . S
C1213 H1207 0.950 . S
C1213 C1212 1.327 . S
C1213 C1217 1.429 . S
C1214 C1197 1.574 . S
C1214 H1208 0.949 . S
C1214 C1218 1.368 1_565 S
C1215 C1196 1.429 . S
C1215 C1209 1.429 1_545 S
C1215 C1216 1.523 . S
C1216 C1197 1.368 1_545 S
C1216 C1210 1.368 . S
C1216 C1215 1.523 . S
C1217 C1201 1.429 1_545 S
C1217 C1213 1.429 . S
C1217 C1218 1.523 . S
C1218 C1202 1.368 . S
C1218 C1214 1.368 1_545 S
C1218 C1217 1.523 . S
H1219 C1194 0.950 . S
H1220 C1196 0.950 . S
H1221 C1197 0.949 . S
H1222 C1199 0.950 . S
H1223 C1201 0.950 . S
C1224 C1225 1.349 . S
C1224 C1226 1.327 . S
C1224 H1249 0.950 . S
C1225 C1224 1.349 . S
C1225 C1241 1.349 1_455 S
C1226 C1224 1.327 . S
C1226 C1245 1.429 . S
C1226 H1250 0.950 . S
C1227 C1244 1.574 . S
C1227 C1246 1.368 1_655 S
C1227 H1251 0.949 . S
H1228 C1232 0.949 . S
C1229 C1230 1.349 1_655 S
C1229 C1231 1.327 . S
C1229 H1252 0.950 . S
C1230 C1229 1.349 1_455 S
C1230 C1242 1.349 . S
C1231 C1229 1.327 . S
C1231 C1247 1.429 1_655 S
C1231 H1253 0.950 . S
C1232 H1228 0.949 . S
C1232 C1240 1.574 . S
C1232 C1248 1.368 . S
H1233 C1241 0.950 . S
H1234 C1239 0.950 . S
H1235 C1240 0.949 . S
H1236 C1242 0.950 . S
H1237 C1243 0.950 . S
H1238 C1244 0.949 . S
C1239 H1234 0.950 . S
C1239 C1241 1.327 . S
C1239 C1245 1.429 1_655 S
C1240 C1232 1.574 . S
C1240 H1235 0.949 . S
C1240 C1246 1.368 . S
C1241 C1225 1.349 1_655 S
C1241 H1233 0.950 . S
C1241 C1239 1.327 . S
C1242 C1230 1.349 . S
C1242 H1236 0.950 . S
C1242 C1243 1.327 . S
C1243 H1237 0.950 . S
C1243 C1242 1.327 . S
C1243 C1247 1.429 . S
C1244 C1227 1.574 . S
C1244 H1238 0.949 . S
C1244 C1248 1.368 1_655 S
C1245 C1226 1.429 . S
C1245 C1239 1.429 1_455 S
C1245 C1246 1.523 . S
C1246 C1227 1.368 1_455 S
C1246 C1240 1.368 . S
C1246 C1245 1.523 . S
C1247 C1231 1.429 1_455 S
C1247 C1243 1.429 . S
C1247 C1248 1.523 . S
C1248 C1232 1.368 . S
C1248 C1244 1.368 1_455 S
C1248 C1247 1.523 . S
H1249 C1224 0.950 . S
H1250 C1226 0.950 . S
H1251 C1227 0.949 . S
H1252 C1229 0.950 . S
H1253 C1231 0.950 . S
C1254 C1255 1.349 1_565 S
C1254 C1256 1.327 . S
C1254 H1279 0.950 . S
C1255 C1254 1.349 1_545 S
C1255 C1271 1.349 . S
C1256 C1254 1.327 . S
C1256 C1275 1.429 1_565 S
C1256 H1280 0.950 . S
C1257 C1274 1.574 . S
C1257 C1276 1.368 . S
C1257 H1281 0.949 . S
H1258 C1262 0.949 . S
C1259 C1260 1.349 . S
C1259 C1261 1.327 . S
C1259 H1282 0.950 . S
C1260 C1259 1.349 . S
C1260 C1272 1.349 1_545 S
C1261 C1259 1.327 . S
C1261 C1277 1.429 . S
C1261 H1283 0.950 . S
C1262 H1258 0.949 . S
C1262 C1270 1.574 . S
C1262 C1278 1.368 1_565 S
H1263 C1271 0.950 . S
H1264 C1269 0.950 . S
H1265 C1270 0.949 . S
H1266 C1272 0.950 . S
H1267 C1273 0.950 . S
H1268 C1274 0.949 . S
C1269 H1264 0.950 . S
C1269 C1271 1.327 . S
C1269 C1275 1.429 . S
C1270 C1262 1.574 . S
C1270 H1265 0.949 . S
C1270 C1276 1.368 1_565 S
C1271 C1255 1.349 . S
C1271 H1263 0.950 . S
C1271 C1269 1.327 . S
C1272 C1260 1.349 1_565 S
C1272 H1266 0.950 . S
C1272 C1273 1.327 . S
C1273 H1267 0.950 . S
C1273 C1272 1.327 . S
C1273 C1277 1.429 1_565 S
C1274 C1257 1.574 . S
C1274 H1268 0.949 . S
C1274 C1278 1.368 . S
C1275 C1256 1.429 1_545 S
C1275 C1269 1.429 . S
C1275 C1276 1.523 . S
C1276 C1257 1.368 . S
C1276 C1270 1.368 1_545 S
C1276 C1275 1.523 . S
C1277 C1261 1.429 . S
C1277 C1273 1.429 1_545 S
C1277 C1278 1.523 . S
C1278 C1262 1.368 1_545 S
C1278 C1274 1.368 . S
C1278 C1277 1.523 . S
H1279 C1254 0.950 . S
H1280 C1256 0.950 . S
H1281 C1257 0.949 . S
H1282 C1259 0.950 . S
H1283 C1261 0.950 . S
C1284 C1285 1.349 1_655 S
C1284 C1286 1.327 . S
C1284 H1309 0.950 . S
C1285 C1284 1.349 1_455 S
C1285 C1301 1.349 . S
C1286 C1284 1.327 . S
C1286 C1305 1.429 1_655 S
C1286 H1310 0.950 . S
C1287 C1304 1.574 . S
C1287 C1306 1.368 . S
C1287 H1311 0.949 . S
H1288 C1292 0.949 . S
C1289 C1290 1.349 . S
C1289 C1291 1.327 . S
C1289 H1312 0.950 . S
C1290 C1289 1.349 . S
C1290 C1302 1.349 1_455 S
C1291 C1289 1.327 . S
C1291 C1307 1.429 . S
C1291 H1313 0.950 . S
C1292 H1288 0.949 . S
C1292 C1300 1.574 . S
C1292 C1308 1.368 1_655 S
H1293 C1301 0.950 . S
H1294 C1299 0.950 . S
H1295 C1300 0.949 . S
H1296 C1302 0.950 . S
H1297 C1303 0.950 . S
H1298 C1304 0.949 . S
C1299 H1294 0.950 . S
C1299 C1301 1.327 . S
C1299 C1305 1.429 . S
C1300 C1292 1.574 . S
C1300 H1295 0.949 . S
C1300 C1306 1.368 1_655 S
C1301 C1285 1.349 . S
C1301 H1293 0.950 . S
C1301 C1299 1.327 . S
C1302 C1290 1.349 1_655 S
C1302 H1296 0.950 . S
C1302 C1303 1.327 . S
C1303 H1297 0.950 . S
C1303 C1302 1.327 . S
C1303 C1307 1.429 1_655 S
C1304 C1287 1.574 . S
C1304 H1298 0.949 . S
C1304 C1308 1.368 . S
C1305 C1286 1.429 1_455 S
C1305 C1299 1.429 . S
C1305 C1306 1.523 . S
C1306 C1287 1.368 . S
C1306 C1300 1.368 1_455 S
C1306 C1305 1.523 . S
C1307 C1291 1.429 . S
C1307 C1303 1.429 1_455 S
C1307 C1308 1.523 . S
C1308 C1292 1.368 1_455 S
C1308 C1304 1.368 . S
C1308 C1307 1.523 . S
H1309 C1284 0.950 . S
H1310 C1286 0.950 . S
H1311 C1287 0.949 . S
H1312 C1289 0.950 . S
H1313 C1291 0.950 . S
C1314 C1315 1.349 . S
C1314 C1316 1.327 . S
C1314 H1339 0.950 . S
C1315 C1314 1.349 . S
C1315 C1331 1.349 1_545 S
C1316 C1314 1.327 . S
C1316 C1335 1.429 . S
C1316 H1340 0.950 . S
C1317 C1334 1.574 . S
C1317 C1336 1.368 1_565 S
C1317 H1341 0.949 . S
H1318 C1322 0.949 . S
C1319 C1320 1.349 1_565 S
C1319 C1321 1.327 . S
C1319 H1342 0.950 . S
C1320 C1319 1.349 1_545 S
C1320 C1332 1.349 . S
C1321 C1319 1.327 . S
C1321 C1337 1.429 1_565 S
C1321 H1343 0.950 . S
C1322 H1318 0.949 . S
C1322 C1330 1.574 . S
C1322 C1338 1.368 . S
H1323 C1331 0.950 . S
H1324 C1329 0.950 . S
H1325 C1330 0.949 . S
H1326 C1332 0.950 . S
H1327 C1333 0.950 . S
H1328 C1334 0.949 . S
C1329 H1324 0.950 . S
C1329 C1331 1.327 . S
C1329 C1335 1.429 1_565 S
C1330 C1322 1.574 . S
C1330 H1325 0.949 . S
C1330 C1336 1.368 . S
C1331 C1315 1.349 1_565 S
C1331 H1323 0.950 . S
C1331 C1329 1.327 . S
C1332 C1320 1.349 . S
C1332 H1326 0.950 . S
C1332 C1333 1.327 . S
C1333 H1327 0.950 . S
C1333 C1332 1.327 . S
C1333 C1337 1.429 . S
C1334 C1317 1.574 . S
C1334 H1328 0.949 . S
C1334 C1338 1.368 1_565 S
C1335 C1316 1.429 . S
C1335 C1329 1.429 1_545 S
C1335 C1336 1.523 . S
C1336 C1317 1.368 1_545 S
C1336 C1330 1.368 . S
C1336 C1335 1.523 . S
C1337 C1321 1.429 1_545 S
C1337 C1333 1.429 . S
C1337 C1338 1.523 . S
C1338 C1322 1.368 . S
C1338 C1334 1.368 1_545 S
C1338 C1337 1.523 . S
H1339 C1314 0.950 . S
H1340 C1316 0.950 . S
H1341 C1317 0.949 . S
H1342 C1319 0.950 . S
H1343 C1321 0.950 . S
C1344 C1345 1.349 1_655 S
C1344 C1346 1.327 . S
C1344 H1369 0.950 . S
C1345 C1344 1.349 1_455 S
C1345 C1361 1.349 . S
C1346 C1344 1.327 . S
C1346 C1365 1.429 1_655 S
C1346 H1370 0.950 . S
C1347 C1364 1.574 . S
C1347 C1366 1.368 . S
C1347 H1371 0.949 . S
H1348 C1352 0.949 . S
C1349 C1350 1.349 . S
C1349 C1351 1.327 . S
C1349 H1372 0.950 . S
C1350 C1349 1.349 . S
C1350 C1362 1.349 1_455 S
C1351 C1349 1.327 . S
C1351 C1367 1.429 . S
C1351 H1373 0.950 . S
C1352 H1348 0.949 . S
C1352 C1360 1.574 . S
C1352 C1368 1.368 1_655 S
H1353 C1361 0.950 . S
H1354 C1359 0.950 . S
H1355 C1360 0.949 . S
H1356 C1362 0.950 . S
H1357 C1363 0.950 . S
H1358 C1364 0.949 . S
C1359 H1354 0.950 . S
C1359 C1361 1.327 . S
C1359 C1365 1.429 . S
C1360 C1352 1.574 . S
C1360 H1355 0.949 . S
C1360 C1366 1.368 1_655 S
C1361 C1345 1.349 . S
C1361 H1353 0.950 . S
C1361 C1359 1.327 . S
C1362 C1350 1.349 1_655 S
C1362 H1356 0.950 . S
C1362 C1363 1.327 . S
C1363 H1357 0.950 . S
C1363 C1362 1.327 . S
C1363 C1367 1.429 1_655 S
C1364 C1347 1.574 . S
C1364 H1358 0.949 . S
C1364 C1368 1.368 . S
C1365 C1346 1.429 1_455 S
C1365 C1359 1.429 . S
C1365 C1366 1.523 . S
C1366 C1347 1.368 . S
C1366 C1360 1.368 1_455 S
C1366 C1365 1.523 . S
C1367 C1351 1.429 . S
C1367 C1363 1.429 1_455 S
C1367 C1368 1.523 . S
C1368 C1352 1.368 1_455 S
C1368 C1364 1.368 . S
C1368 C1367 1.523 . S
H1369 C1344 0.950 . S
H1370 C1346 0.950 . S
H1371 C1347 0.949 . S
H1372 C1349 0.950 . S
H1373 C1351 0.950 . S
C1374 C1375 1.349 1_565 S
C1374 C1376 1.327 . S
C1374 H1399 0.950 . S
C1375 C1374 1.349 1_545 S
C1375 C1391 1.349 . S
C1376 C1374 1.327 . S
C1376 C1395 1.429 1_565 S
C1376 H1400 0.950 . S
C1377 C1394 1.574 . S
C1377 C1396 1.368 . S
C1377 H1401 0.949 . S
H1378 C1382 0.949 . S
C1379 C1380 1.349 . S
C1379 C1381 1.327 . S
C1379 H1402 0.950 . S
C1380 C1379 1.349 . S
C1380 C1392 1.349 1_545 S
C1381 C1379 1.327 . S
C1381 C1397 1.429 . S
C1381 H1403 0.950 . S
C1382 H1378 0.949 . S
C1382 C1390 1.574 . S
C1382 C1398 1.368 1_565 S
H1383 C1391 0.950 . S
H1384 C1389 0.950 . S
H1385 C1390 0.949 . S
H1386 C1392 0.950 . S
H1387 C1393 0.950 . S
H1388 C1394 0.949 . S
C1389 H1384 0.950 . S
C1389 C1391 1.327 . S
C1389 C1395 1.429 . S
C1390 C1382 1.574 . S
C1390 H1385 0.949 . S
C1390 C1396 1.368 1_565 S
C1391 C1375 1.349 . S
C1391 H1383 0.950 . S
C1391 C1389 1.327 . S
C1392 C1380 1.349 1_565 S
C1392 H1386 0.950 . S
C1392 C1393 1.327 . S
C1393 H1387 0.950 . S
C1393 C1392 1.327 . S
C1393 C1397 1.429 1_565 S
C1394 C1377 1.574 . S
C1394 H1388 0.949 . S
C1394 C1398 1.368 . S
C1395 C1376 1.429 1_545 S
C1395 C1389 1.429 . S
C1395 C1396 1.523 . S
C1396 C1377 1.368 . S
C1396 C1390 1.368 1_545 S
C1396 C1395 1.523 . S
C1397 C1381 1.429 . S
C1397 C1393 1.429 1_545 S
C1397 C1398 1.523 . S
C1398 C1382 1.368 1_545 S
C1398 C1394 1.368 . S
C1398 C1397 1.523 . S
H1399 C1374 0.950 . S
H1400 C1376 0.950 . S
H1401 C1377 0.949 . S
H1402 C1379 0.950 . S
H1403 C1381 0.950 . S
C1404 C1405 1.349 1_655 S
C1404 C1406 1.327 . S
C1404 H1429 0.950 . S
C1405 C1404 1.349 1_455 S
C1405 C1421 1.349 . S
C1406 C1404 1.327 . S
C1406 C1425 1.429 1_655 S
C1406 H1430 0.950 . S
C1407 C1424 1.574 . S
C1407 C1426 1.368 . S
C1407 H1431 0.949 . S
H1408 C1412 0.949 . S
C1409 C1410 1.349 . S
C1409 C1411 1.327 . S
C1409 H1432 0.950 . S
C1410 C1409 1.349 . S
C1410 C1422 1.349 1_455 S
C1411 C1409 1.327 . S
C1411 C1427 1.429 . S
C1411 H1433 0.950 . S
C1412 H1408 0.949 . S
C1412 C1420 1.574 . S
C1412 C1428 1.368 1_655 S
H1413 C1421 0.950 . S
H1414 C1419 0.950 . S
H1415 C1420 0.949 . S
H1416 C1422 0.950 . S
H1417 C1423 0.950 . S
H1418 C1424 0.949 . S
C1419 H1414 0.950 . S
C1419 C1421 1.327 . S
C1419 C1425 1.429 . S
C1420 C1412 1.574 . S
C1420 H1415 0.949 . S
C1420 C1426 1.368 1_655 S
C1421 C1405 1.349 . S
C1421 H1413 0.950 . S
C1421 C1419 1.327 . S
C1422 C1410 1.349 1_655 S
C1422 H1416 0.950 . S
C1422 C1423 1.327 . S
C1423 H1417 0.950 . S
C1423 C1422 1.327 . S
C1423 C1427 1.429 1_655 S
C1424 C1407 1.574 . S
C1424 H1418 0.949 . S
C1424 C1428 1.368 . S
C1425 C1406 1.429 1_455 S
C1425 C1419 1.429 . S
C1425 C1426 1.523 . S
C1426 C1407 1.368 . S
C1426 C1420 1.368 1_455 S
C1426 C1425 1.523 . S
C1427 C1411 1.429 . S
C1427 C1423 1.429 1_455 S
C1427 C1428 1.523 . S
C1428 C1412 1.368 1_455 S
C1428 C1424 1.368 . S
C1428 C1427 1.523 . S
H1429 C1404 0.950 . S
H1430 C1406 0.950 . S
H1431 C1407 0.949 . S
H1432 C1409 0.950 . S
H1433 C1411 0.950 . S
C1434 C1435 1.349 1_565 S
C1434 C1436 1.327 . S
C1434 H1459 0.950 . S
C1435 C1434 1.349 1_545 S
C1435 C1451 1.349 . S
C1436 C1434 1.327 . S
C1436 C1455 1.429 1_565 S
C1436 H1460 0.950 . S
C1437 C1454 1.574 . S
C1437 C1456 1.368 . S
C1437 H1461 0.949 . S
H1438 C1442 0.949 . S
C1439 C1440 1.349 . S
C1439 C1441 1.327 . S
C1439 H1462 0.950 . S
C1440 C1439 1.349 . S
C1440 C1452 1.349 1_545 S
C1441 C1439 1.327 . S
C1441 C1457 1.429 . S
C1441 H1463 0.950 . S
C1442 H1438 0.949 . S
C1442 C1450 1.574 . S
C1442 C1458 1.368 1_565 S
H1443 C1451 0.950 . S
H1444 C1449 0.950 . S
H1445 C1450 0.949 . S
H1446 C1452 0.950 . S
H1447 C1453 0.950 . S
H1448 C1454 0.949 . S
C1449 H1444 0.950 . S
C1449 C1451 1.327 . S
C1449 C1455 1.429 . S
C1450 C1442 1.574 . S
C1450 H1445 0.949 . S
C1450 C1456 1.368 1_565 S
C1451 C1435 1.349 . S
C1451 H1443 0.950 . S
C1451 C1449 1.327 . S
C1452 C1440 1.349 1_565 S
C1452 H1446 0.950 . S
C1452 C1453 1.327 . S
C1453 H1447 0.950 . S
C1453 C1452 1.327 . S
C1453 C1457 1.429 1_565 S
C1454 C1437 1.574 . S
C1454 H1448 0.949 . S
C1454 C1458 1.368 . S
C1455 C1436 1.429 1_545 S
C1455 C1449 1.429 . S
C1455 C1456 1.523 . S
C1456 C1437 1.368 . S
C1456 C1450 1.368 1_545 S
C1456 C1455 1.523 . S
C1457 C1441 1.429 . S
C1457 C1453 1.429 1_545 S
C1457 C1458 1.523 . S
C1458 C1442 1.368 1_545 S
C1458 C1454 1.368 . S
C1458 C1457 1.523 . S
H1459 C1434 0.950 . S
H1460 C1436 0.950 . S
H1461 C1437 0.949 . S
H1462 C1439 0.950 . S
H1463 C1441 0.950 . S
C1464 C1465 1.349 1_655 S
C1464 C1466 1.327 . S
C1464 H1489 0.950 . S
C1465 C1464 1.349 1_455 S
C1465 C1481 1.349 . S
C1466 C1464 1.327 . S
C1466 C1485 1.429 1_655 S
C1466 H1490 0.950 . S
C1467 C1484 1.574 . S
C1467 C1486 1.368 . S
C1467 H1491 0.949 . S
H1468 C1472 0.949 . S
C1469 C1470 1.349 . S
C1469 C1471 1.327 . S
C1469 H1492 0.950 . S
C1470 C1469 1.349 . S
C1470 C1482 1.349 1_455 S
C1471 C1469 1.327 . S
C1471 C1487 1.429 . S
C1471 H1493 0.950 . S
C1472 H1468 0.949 . S
C1472 C1480 1.574 . S
C1472 C1488 1.368 1_655 S
H1473 C1481 0.950 . S
H1474 C1479 0.950 . S
H1475 C1480 0.949 . S
H1476 C1482 0.950 . S
H1477 C1483 0.950 . S
H1478 C1484 0.949 . S
C1479 H1474 0.950 . S
C1479 C1481 1.327 . S
C1479 C1485 1.429 . S
C1480 C1472 1.574 . S
C1480 H1475 0.949 . S
C1480 C1486 1.368 1_655 S
C1481 C1465 1.349 . S
C1481 H1473 0.950 . S
C1481 C1479 1.327 . S
C1482 C1470 1.349 1_655 S
C1482 H1476 0.950 . S
C1482 C1483 1.327 . S
C1483 H1477 0.950 . S
C1483 C1482 1.327 . S
C1483 C1487 1.429 1_655 S
C1484 C1467 1.574 . S
C1484 H1478 0.949 . S
C1484 C1488 1.368 . S
C1485 C1466 1.429 1_455 S
C1485 C1479 1.429 . S
C1485 C1486 1.523 . S
C1486 C1467 1.368 . S
C1486 C1480 1.368 1_455 S
C1486 C1485 1.523 . S
C1487 C1471 1.429 . S
C1487 C1483 1.429 1_455 S
C1487 C1488 1.523 . S
C1488 C1472 1.368 1_455 S
C1488 C1484 1.368 . S
C1488 C1487 1.523 . S
H1489 C1464 0.950 . S
H1490 C1466 0.950 . S
H1491 C1467 0.949 . S
H1492 C1469 0.950 . S
H1493 C1471 0.950 . S
C1494 C1495 1.349 1_565 S
C1494 C1496 1.327 . S
C1494 H1519 0.950 . S
C1495 C1494 1.349 1_545 S
C1495 C1511 1.349 . S
C1496 C1494 1.327 . S
C1496 C1515 1.429 1_565 S
C1496 H1520 0.950 . S
C1497 C1514 1.574 . S
C1497 C1516 1.368 . S
C1497 H1521 0.949 . S
H1498 C1502 0.949 . S
C1499 C1500 1.349 . S
C1499 C1501 1.327 . S
C1499 H1522 0.950 . S
C1500 C1499 1.349 . S
C1500 C1512 1.349 1_545 S
C1501 C1499 1.327 . S
C1501 C1517 1.429 . S
C1501 H1523 0.950 . S
C1502 H1498 0.949 . S
C1502 C1510 1.574 . S
C1502 C1518 1.368 1_565 S
H1503 C1511 0.950 . S
H1504 C1509 0.950 . S
H1505 C1510 0.949 . S
H1506 C1512 0.950 . S
H1507 C1513 0.950 . S
H1508 C1514 0.949 . S
C1509 H1504 0.950 . S
C1509 C1511 1.327 . S
C1509 C1515 1.429 . S
C1510 C1502 1.574 . S
C1510 H1505 0.949 . S
C1510 C1516 1.368 1_565 S
C1511 C1495 1.349 . S
C1511 H1503 0.950 . S
C1511 C1509 1.327 . S
C1512 C1500 1.349 1_565 S
C1512 H1506 0.950 . S
C1512 C1513 1.327 . S
C1513 H1507 0.950 . S
C1513 C1512 1.327 . S
C1513 C1517 1.429 1_565 S
C1514 C1497 1.574 . S
C1514 H1508 0.949 . S
C1514 C1518 1.368 . S
C1515 C1496 1.429 1_545 S
C1515 C1509 1.429 . S
C1515 C1516 1.523 . S
C1516 C1497 1.368 . S
C1516 C1510 1.368 1_545 S
C1516 C1515 1.523 . S
C1517 C1501 1.429 . S
C1517 C1513 1.429 1_545 S
C1517 C1518 1.523 . S
C1518 C1502 1.368 1_545 S
C1518 C1514 1.368 . S
C1518 C1517 1.523 . S
H1519 C1494 0.950 . S
H1520 C1496 0.950 . S
H1521 C1497 0.949 . S
H1522 C1499 0.950 . S
H1523 C1501 0.950 . S
C1524 C1525 1.349 1_565 S
C1524 C1526 1.327 . S
C1524 H1549 0.950 . S
C1525 C1524 1.349 1_545 S
C1525 C1541 1.349 . S
C1526 C1524 1.327 . S
C1526 C1545 1.429 1_565 S
C1526 H1550 0.950 . S
C1527 C1544 1.574 . S
C1527 C1546 1.368 . S
C1527 H1551 0.949 . S
H1528 C1532 0.949 . S
C1529 C1530 1.349 . S
C1529 C1531 1.327 . S
C1529 H1552 0.950 . S
C1530 C1529 1.349 . S
C1530 C1542 1.349 1_545 S
C1531 C1529 1.327 . S
C1531 C1547 1.429 . S
C1531 H1553 0.950 . S
C1532 H1528 0.949 . S
C1532 C1540 1.574 . S
C1532 C1548 1.368 1_565 S
H1533 C1541 0.950 . S
H1534 C1539 0.950 . S
H1535 C1540 0.949 . S
H1536 C1542 0.950 . S
H1537 C1543 0.950 . S
H1538 C1544 0.949 . S
C1539 H1534 0.950 . S
C1539 C1541 1.327 . S
C1539 C1545 1.428 . S
C1540 C1532 1.574 . S
C1540 H1535 0.949 . S
C1540 C1546 1.368 1_565 S
C1541 C1525 1.349 . S
C1541 H1533 0.950 . S
C1541 C1539 1.327 . S
C1542 C1530 1.349 1_565 S
C1542 H1536 0.950 . S
C1542 C1543 1.327 . S
C1543 H1537 0.950 . S
C1543 C1542 1.327 . S
C1543 C1547 1.429 1_565 S
C1544 C1527 1.574 . S
C1544 H1538 0.949 . S
C1544 C1548 1.368 . S
C1545 C1526 1.429 1_545 S
C1545 C1539 1.428 . S
C1545 C1546 1.523 . S
C1546 C1527 1.368 . S
C1546 C1540 1.368 1_545 S
C1546 C1545 1.523 . S
C1547 C1531 1.429 . S
C1547 C1543 1.429 1_545 S
C1547 C1548 1.523 . S
C1548 C1532 1.368 1_545 S
C1548 C1544 1.368 . S
C1548 C1547 1.523 . S
H1549 C1524 0.950 . S
H1550 C1526 0.950 . S
H1551 C1527 0.949 . S
H1552 C1529 0.950 . S
H1553 C1531 0.950 . S
C1554 C1555 1.349 . S
C1554 C1556 1.327 . S
C1554 H1579 0.950 . S
C1555 C1554 1.349 . S
C1555 C1571 1.349 1_455 S
C1556 C1554 1.327 . S
C1556 C1575 1.429 . S
C1556 H1580 0.950 . S
C1557 C1574 1.574 . S
C1557 C1576 1.368 1_655 S
C1557 H1581 0.949 . S
H1558 C1562 0.949 . S
C1559 C1560 1.349 1_655 S
C1559 C1561 1.327 . S
C1559 H1582 0.950 . S
C1560 C1559 1.349 1_455 S
C1560 C1572 1.349 . S
C1561 C1559 1.327 . S
C1561 C1577 1.429 1_655 S
C1561 H1583 0.950 . S
C1562 H1558 0.949 . S
C1562 C1570 1.574 . S
C1562 C1578 1.368 . S
H1563 C1571 0.950 . S
H1564 C1569 0.950 . S
H1565 C1570 0.949 . S
H1566 C1572 0.950 . S
H1567 C1573 0.950 . S
H1568 C1574 0.949 . S
C1569 H1564 0.950 . S
C1569 C1571 1.327 . S
C1569 C1575 1.429 1_655 S
C1570 C1562 1.574 . S
C1570 H1565 0.949 . S
C1570 C1576 1.368 . S
C1571 C1555 1.349 1_655 S
C1571 H1563 0.950 . S
C1571 C1569 1.327 . S
C1572 C1560 1.349 . S
C1572 H1566 0.950 . S
C1572 C1573 1.327 . S
C1573 H1567 0.950 . S
C1573 C1572 1.327 . S
C1573 C1577 1.429 . S
C1574 C1557 1.574 . S
C1574 H1568 0.949 . S
C1574 C1578 1.368 1_655 S
C1575 C1556 1.429 . S
C1575 C1569 1.429 1_455 S
C1575 C1576 1.523 . S
C1576 C1557 1.368 1_455 S
C1576 C1570 1.368 . S
C1576 C1575 1.523 . S
C1577 C1561 1.429 1_455 S
C1577 C1573 1.429 . S
C1577 C1578 1.523 . S
C1578 C1562 1.368 . S
C1578 C1574 1.368 1_455 S
C1578 C1577 1.523 . S
H1579 C1554 0.950 . S
H1580 C1556 0.950 . S
H1581 C1557 0.949 . S
H1582 C1559 0.950 . S
H1583 C1561 0.950 . S
C1584 C1585 1.349 . S
C1584 C1586 1.327 . S
C1584 H1609 0.950 . S
C1585 C1584 1.349 . S
C1585 C1601 1.349 1_545 S
C1586 C1584 1.327 . S
C1586 C1605 1.428 . S
C1586 H1610 0.950 . S
C1587 C1604 1.574 . S
C1587 C1606 1.368 1_565 S
C1587 H1611 0.949 . S
H1588 C1592 0.949 . S
C1589 C1590 1.349 1_565 S
C1589 C1591 1.327 . S
C1589 H1612 0.950 . S
C1590 C1589 1.349 1_545 S
C1590 C1602 1.349 . S
C1591 C1589 1.327 . S
C1591 C1607 1.429 1_565 S
C1591 H1613 0.950 . S
C1592 H1588 0.949 . S
C1592 C1600 1.574 . S
C1592 C1608 1.368 . S
H1593 C1601 0.950 . S
H1594 C1599 0.950 . S
H1595 C1600 0.949 . S
H1596 C1602 0.950 . S
H1597 C1603 0.950 . S
H1598 C1604 0.949 . S
C1599 H1594 0.950 . S
C1599 C1601 1.327 . S
C1599 C1605 1.429 1_565 S
C1600 C1592 1.574 . S
C1600 H1595 0.949 . S
C1600 C1606 1.368 . S
C1601 C1585 1.349 1_565 S
C1601 H1593 0.950 . S
C1601 C1599 1.327 . S
C1602 C1590 1.349 . S
C1602 H1596 0.950 . S
C1602 C1603 1.327 . S
C1603 H1597 0.950 . S
C1603 C1602 1.327 . S
C1603 C1607 1.429 . S
C1604 C1587 1.574 . S
C1604 H1598 0.949 . S
C1604 C1608 1.368 1_565 S
C1605 C1586 1.428 . S
C1605 C1599 1.429 1_545 S
C1605 C1606 1.523 . S
C1606 C1587 1.368 1_545 S
C1606 C1600 1.368 . S
C1606 C1605 1.523 . S
C1607 C1591 1.429 1_545 S
C1607 C1603 1.429 . S
C1607 C1608 1.523 . S
C1608 C1592 1.368 . S
C1608 C1604 1.368 1_545 S
C1608 C1607 1.523 . S
H1609 C1584 0.950 . S
H1610 C1586 0.950 . S
H1611 C1587 0.949 . S
H1612 C1589 0.950 . S
H1613 C1591 0.950 . S
C1614 C1615 1.349 1_655 S
C1614 C1616 1.327 . S
C1614 H1639 0.950 . S
C1615 C1614 1.349 1_455 S
C1615 C1631 1.349 . S
C1616 C1614 1.327 . S
C1616 C1635 1.429 1_655 S
C1616 H1640 0.950 . S
C1617 C1634 1.574 . S
C1617 C1636 1.368 . S
C1617 H1641 0.949 . S
H1618 C1622 0.949 . S
C1619 C1620 1.349 . S
C1619 C1621 1.327 . S
C1619 H1642 0.950 . S
C1620 C1619 1.349 . S
C1620 C1632 1.349 1_455 S
C1621 C1619 1.327 . S
C1621 C1637 1.429 . S
C1621 H1643 0.950 . S
C1622 H1618 0.949 . S
C1622 C1630 1.574 . S
C1622 C1638 1.368 1_655 S
H1623 C1631 0.950 . S
H1624 C1629 0.950 . S
H1625 C1630 0.949 . S
H1626 C1632 0.950 . S
H1627 C1633 0.950 . S
H1628 C1634 0.949 . S
C1629 H1624 0.950 . S
C1629 C1631 1.327 . S
C1629 C1635 1.429 . S
C1630 C1622 1.574 . S
C1630 H1625 0.949 . S
C1630 C1636 1.368 1_655 S
C1631 C1615 1.349 . S
C1631 H1623 0.950 . S
C1631 C1629 1.327 . S
C1632 C1620 1.349 1_655 S
C1632 H1626 0.950 . S
C1632 C1633 1.327 . S
C1633 H1627 0.950 . S
C1633 C1632 1.327 . S
C1633 C1637 1.429 1_655 S
C1634 C1617 1.574 . S
C1634 H1628 0.949 . S
C1634 C1638 1.368 . S
C1635 C1616 1.429 1_455 S
C1635 C1629 1.429 . S
C1635 C1636 1.523 . S
C1636 C1617 1.368 . S
C1636 C1630 1.368 1_455 S
C1636 C1635 1.523 . S
C1637 C1621 1.429 . S
C1637 C1633 1.429 1_455 S
C1637 C1638 1.523 . S
C1638 C1622 1.368 1_455 S
C1638 C1634 1.368 . S
C1638 C1637 1.523 . S
H1639 C1614 0.950 . S
H1640 C1616 0.950 . S
H1641 C1617 0.949 . S
H1642 C1619 0.950 . S
H1643 C1621 0.950 . S
C1644 C1645 1.349 1_565 S
C1644 C1646 1.327 . S
C1644 H1669 0.950 . S
C1645 C1644 1.349 1_545 S
C1645 C1661 1.349 . S
C1646 C1644 1.327 . S
C1646 C1665 1.429 1_565 S
C1646 H1670 0.950 . S
C1647 C1664 1.574 . S
C1647 C1666 1.368 . S
C1647 H1671 0.949 . S
H1648 C1652 0.949 . S
C1649 C1650 1.349 . S
C1649 C1651 1.327 . S
C1649 H1672 0.950 . S
C1650 C1649 1.349 . S
C1650 C1662 1.349 1_545 S
C1651 C1649 1.327 . S
C1651 C1667 1.429 . S
C1651 H1673 0.950 . S
C1652 H1648 0.949 . S
C1652 C1660 1.574 . S
C1652 C1668 1.368 1_565 S
H1653 C1661 0.950 . S
H1654 C1659 0.950 . S
H1655 C1660 0.949 . S
H1656 C1662 0.950 . S
H1657 C1663 0.950 . S
H1658 C1664 0.949 . S
C1659 H1654 0.950 . S
C1659 C1661 1.327 . S
C1659 C1665 1.429 . S
C1660 C1652 1.574 . S
C1660 H1655 0.949 . S
C1660 C1666 1.368 1_565 S
C1661 C1645 1.349 . S
C1661 H1653 0.950 . S
C1661 C1659 1.327 . S
C1662 C1650 1.349 1_565 S
C1662 H1656 0.950 . S
C1662 C1663 1.327 . S
C1663 H1657 0.950 . S
C1663 C1662 1.327 . S
C1663 C1667 1.428 1_565 S
C1664 C1647 1.574 . S
C1664 H1658 0.949 . S
C1664 C1668 1.368 . S
C1665 C1646 1.429 1_545 S
C1665 C1659 1.429 . S
C1665 C1666 1.523 . S
C1666 C1647 1.368 . S
C1666 C1660 1.368 1_545 S
C1666 C1665 1.523 . S
C1667 C1651 1.429 . S
C1667 C1663 1.428 1_545 S
C1667 C1668 1.523 . S
C1668 C1652 1.368 1_545 S
C1668 C1664 1.368 . S
C1668 C1667 1.523 . S
H1669 C1644 0.950 . S
H1670 C1646 0.950 . S
H1671 C1647 0.949 . S
H1672 C1649 0.950 . S
H1673 C1651 0.950 . S
C1674 C1675 1.349 . S
C1674 C1676 1.327 . S
C1674 H1699 0.950 . S
C1675 C1674 1.349 . S
C1675 C1691 1.349 1_455 S
C1676 C1674 1.327 . S
C1676 C1695 1.429 . S
C1676 H1700 0.950 . S
C1677 C1694 1.574 . S
C1677 C1696 1.368 1_655 S
C1677 H1701 0.949 . S
H1678 C1682 0.949 . S
C1679 C1680 1.349 1_655 S
C1679 C1681 1.327 . S
C1679 H1702 0.950 . S
C1680 C1679 1.349 1_455 S
C1680 C1692 1.349 . S
C1681 C1679 1.327 . S
C1681 C1697 1.429 1_655 S
C1681 H1703 0.950 . S
C1682 H1678 0.949 . S
C1682 C1690 1.574 . S
C1682 C1698 1.368 . S
H1683 C1691 0.950 . S
H1684 C1689 0.950 . S
H1685 C1690 0.949 . S
H1686 C1692 0.950 . S
H1687 C1693 0.950 . S
H1688 C1694 0.949 . S
C1689 H1684 0.950 . S
C1689 C1691 1.327 . S
C1689 C1695 1.429 1_655 S
C1690 C1682 1.574 . S
C1690 H1685 0.949 . S
C1690 C1696 1.368 . S
C1691 C1675 1.349 1_655 S
C1691 H1683 0.950 . S
C1691 C1689 1.327 . S
C1692 C1680 1.349 . S
C1692 H1686 0.950 . S
C1692 C1693 1.327 . S
C1693 H1687 0.950 . S
C1693 C1692 1.327 . S
C1693 C1697 1.429 . S
C1694 C1677 1.574 . S
C1694 H1688 0.949 . S
C1694 C1698 1.368 1_655 S
C1695 C1676 1.429 . S
C1695 C1689 1.429 1_455 S
C1695 C1696 1.523 . S
C1696 C1677 1.368 1_455 S
C1696 C1690 1.368 . S
C1696 C1695 1.523 . S
C1697 C1681 1.429 1_455 S
C1697 C1693 1.429 . S
C1697 C1698 1.523 . S
C1698 C1682 1.368 . S
C1698 C1694 1.368 1_455 S
C1698 C1697 1.523 . S
H1699 C1674 0.950 . S
H1700 C1676 0.950 . S
H1701 C1677 0.949 . S
H1702 C1679 0.950 . S
H1703 C1681 0.950 . S
C1704 C1705 1.349 . S
C1704 C1706 1.327 . S
C1704 H1729 0.950 . S
C1705 C1704 1.349 . S
C1705 C1721 1.349 1_545 S
C1706 C1704 1.327 . S
C1706 C1725 1.428 . S
C1706 H1730 0.950 . S
C1707 C1724 1.574 . S
C1707 C1726 1.368 1_565 S
C1707 H1731 0.949 . S
H1708 C1712 0.949 . S
C1709 C1710 1.349 1_565 S
C1709 C1711 1.327 . S
C1709 H1732 0.950 . S
C1710 C1709 1.349 1_545 S
C1710 C1722 1.349 . S
C1711 C1709 1.327 . S
C1711 C1727 1.429 1_565 S
C1711 H1733 0.950 . S
C1712 H1708 0.949 . S
C1712 C1720 1.574 . S
C1712 C1728 1.368 . S
H1713 C1721 0.950 . S
H1714 C1719 0.950 . S
H1715 C1720 0.949 . S
H1716 C1722 0.950 . S
H1717 C1723 0.950 . S
H1718 C1724 0.949 . S
C1719 H1714 0.950 . S
C1719 C1721 1.327 . S
C1719 C1725 1.429 1_565 S
C1720 C1712 1.574 . S
C1720 H1715 0.949 . S
C1720 C1726 1.368 . S
C1721 C1705 1.349 1_565 S
C1721 H1713 0.950 . S
C1721 C1719 1.327 . S
C1722 C1710 1.349 . S
C1722 H1716 0.950 . S
C1722 C1723 1.327 . S
C1723 H1717 0.950 . S
C1723 C1722 1.327 . S
C1723 C1727 1.429 . S
C1724 C1707 1.574 . S
C1724 H1718 0.949 . S
C1724 C1728 1.368 1_565 S
C1725 C1706 1.428 . S
C1725 C1719 1.429 1_545 S
C1725 C1726 1.523 . S
C1726 C1707 1.368 1_545 S
C1726 C1720 1.368 . S
C1726 C1725 1.523 . S
C1727 C1711 1.429 1_545 S
C1727 C1723 1.429 . S
C1727 C1728 1.523 . S
C1728 C1712 1.368 . S
C1728 C1724 1.368 1_545 S
C1728 C1727 1.523 . S
H1729 C1704 0.950 . S
H1730 C1706 0.950 . S
H1731 C1707 0.949 . S
H1732 C1709 0.950 . S
H1733 C1711 0.950 . S
C1734 C1735 1.349 . S
C1734 C1736 1.327 . S
C1734 H1759 0.950 . S
C1735 C1734 1.349 . S
C1735 C1751 1.349 1_455 S
C1736 C1734 1.327 . S
C1736 C1755 1.429 . S
C1736 H1760 0.950 . S
C1737 C1754 1.574 . S
C1737 C1756 1.368 1_655 S
C1737 H1761 0.949 . S
H1738 C1742 0.949 . S
C1739 C1740 1.349 1_655 S
C1739 C1741 1.327 . S
C1739 H1762 0.950 . S
C1740 C1739 1.349 1_455 S
C1740 C1752 1.349 . S
C1741 C1739 1.327 . S
C1741 C1757 1.429 1_655 S
C1741 H1763 0.950 . S
C1742 H1738 0.949 . S
C1742 C1750 1.574 . S
C1742 C1758 1.368 . S
H1743 C1751 0.950 . S
H1744 C1749 0.950 . S
H1745 C1750 0.949 . S
H1746 C1752 0.950 . S
H1747 C1753 0.950 . S
H1748 C1754 0.949 . S
C1749 H1744 0.950 . S
C1749 C1751 1.327 . S
C1749 C1755 1.429 1_655 S
C1750 C1742 1.574 . S
C1750 H1745 0.949 . S
C1750 C1756 1.368 . S
C1751 C1735 1.349 1_655 S
C1751 H1743 0.950 . S
C1751 C1749 1.327 . S
C1752 C1740 1.349 . S
C1752 H1746 0.950 . S
C1752 C1753 1.327 . S
C1753 H1747 0.950 . S
C1753 C1752 1.327 . S
C1753 C1757 1.429 . S
C1754 C1737 1.574 . S
C1754 H1748 0.949 . S
C1754 C1758 1.368 1_655 S
C1755 C1736 1.429 . S
C1755 C1749 1.429 1_455 S
C1755 C1756 1.523 . S
C1756 C1737 1.368 1_455 S
C1756 C1750 1.368 . S
C1756 C1755 1.523 . S
C1757 C1741 1.429 1_455 S
C1757 C1753 1.429 . S
C1757 C1758 1.523 . S
C1758 C1742 1.368 . S
C1758 C1754 1.368 1_455 S
C1758 C1757 1.523 . S
H1759 C1734 0.950 . S
H1760 C1736 0.950 . S
H1761 C1737 0.949 . S
H1762 C1739 0.950 . S
H1763 C1741 0.950 . S
C1764 C1765 1.349 . S
C1764 C1766 1.327 . S
C1764 H1789 0.950 . S
C1765 C1764 1.349 . S
C1765 C1781 1.349 1_554 S
C1766 C1764 1.327 . S
C1766 C1785 1.429 . S
C1766 H1790 0.950 . S
C1767 C1784 1.574 . S
C1767 C1786 1.368 1_556 S
C1767 H1791 0.949 . S
H1768 C1772 0.949 . S
C1769 C1770 1.349 1_556 S
C1769 C1771 1.327 . S
C1769 H1792 0.950 . S
C1770 C1769 1.349 1_554 S
C1770 C1782 1.349 . S
C1771 C1769 1.327 . S
C1771 C1787 1.429 1_556 S
C1771 H1793 0.950 . S
C1772 H1768 0.949 . S
C1772 C1780 1.574 . S
C1772 C1788 1.368 . S
H1773 C1781 0.950 . S
H1774 C1779 0.950 . S
H1775 C1780 0.949 . S
H1776 C1782 0.950 . S
H1777 C1783 0.950 . S
H1778 C1784 0.949 . S
C1779 H1774 0.950 . S
C1779 C1781 1.327 . S
C1779 C1785 1.429 1_556 S
C1780 C1772 1.574 . S
C1780 H1775 0.949 . S
C1780 C1786 1.368 . S
C1781 C1765 1.349 1_556 S
C1781 H1773 0.950 . S
C1781 C1779 1.327 . S
C1782 C1770 1.349 . S
C1782 H1776 0.950 . S
C1782 C1783 1.327 . S
C1783 H1777 0.950 . S
C1783 C1782 1.327 . S
C1783 C1787 1.429 . S
C1784 C1767 1.574 . S
C1784 H1778 0.949 . S
C1784 C1788 1.368 1_556 S
C1785 C1766 1.429 . S
C1785 C1779 1.429 1_554 S
C1785 C1786 1.523 . S
C1786 C1767 1.368 1_554 S
C1786 C1780 1.368 . S
C1786 C1785 1.523 . S
C1787 C1771 1.429 1_554 S
C1787 C1783 1.429 . S
C1787 C1788 1.523 . S
C1788 C1772 1.368 . S
C1788 C1784 1.368 1_554 S
C1788 C1787 1.523 . S
H1789 C1764 0.950 . S
H1790 C1766 0.950 . S
H1791 C1767 0.949 . S
H1792 C1769 0.950 . S
H1793 C1771 0.950 . S
C1794 C1795 1.349 . S
C1794 C1796 1.327 . S
C1794 H1819 0.950 . S
C1795 C1794 1.349 . S
C1795 C1811 1.349 1_554 S
C1796 C1794 1.327 . S
C1796 C1815 1.429 . S
C1796 H1820 0.950 . S
C1797 C1814 1.574 . S
C1797 C1816 1.368 1_556 S
C1797 H1821 0.949 . S
H1798 C1802 0.949 . S
C1799 C1800 1.349 1_556 S
C1799 C1801 1.327 . S
C1799 H1822 0.950 . S
C1800 C1799 1.349 1_554 S
C1800 C1812 1.349 . S
C1801 C1799 1.327 . S
C1801 C1817 1.429 1_556 S
C1801 H1823 0.950 . S
C1802 H1798 0.949 . S
C1802 C1810 1.574 . S
C1802 C1818 1.368 . S
H1803 C1811 0.950 . S
H1804 C1809 0.950 . S
H1805 C1810 0.949 . S
H1806 C1812 0.950 . S
H1807 C1813 0.950 . S
H1808 C1814 0.949 . S
C1809 H1804 0.950 . S
C1809 C1811 1.327 . S
C1809 C1815 1.429 1_556 S
C1810 C1802 1.574 . S
C1810 H1805 0.949 . S
C1810 C1816 1.368 . S
C1811 C1795 1.349 1_556 S
C1811 H1803 0.950 . S
C1811 C1809 1.327 . S
C1812 C1800 1.349 . S
C1812 H1806 0.950 . S
C1812 C1813 1.327 . S
C1813 H1807 0.950 . S
C1813 C1812 1.327 . S
C1813 C1817 1.429 . S
C1814 C1797 1.574 . S
C1814 H1808 0.949 . S
C1814 C1818 1.368 1_556 S
C1815 C1796 1.429 . S
C1815 C1809 1.429 1_554 S
C1815 C1816 1.523 . S
C1816 C1797 1.368 1_554 S
C1816 C1810 1.368 . S
C1816 C1815 1.523 . S
C1817 C1801 1.429 1_554 S
C1817 C1813 1.429 . S
C1817 C1818 1.523 . S
C1818 C1802 1.368 . S
C1818 C1814 1.368 1_554 S
C1818 C1817 1.523 . S
H1819 C1794 0.950 . S
H1820 C1796 0.950 . S
H1821 C1797 0.949 . S
H1822 C1799 0.950 . S
H1823 C1801 0.950 . S
C1824 C1825 1.349 1_556 S
C1824 C1826 1.327 . S
C1824 H1849 0.950 . S
C1825 C1824 1.349 1_554 S
C1825 C1841 1.349 . S
C1826 C1824 1.327 . S
C1826 C1845 1.429 1_556 S
C1826 H1850 0.950 . S
C1827 C1844 1.574 . S
C1827 C1846 1.368 . S
C1827 H1851 0.949 . S
H1828 C1832 0.949 . S
C1829 C1830 1.349 . S
C1829 C1831 1.327 . S
C1829 H1852 0.950 . S
C1830 C1829 1.349 . S
C1830 C1842 1.349 1_554 S
C1831 C1829 1.327 . S
C1831 C1847 1.429 . S
C1831 H1853 0.950 . S
C1832 H1828 0.949 . S
C1832 C1840 1.574 . S
C1832 C1848 1.368 1_556 S
H1833 C1841 0.950 . S
H1834 C1839 0.950 . S
H1835 C1840 0.949 . S
H1836 C1842 0.950 . S
H1837 C1843 0.950 . S
H1838 C1844 0.949 . S
C1839 H1834 0.950 . S
C1839 C1841 1.327 . S
C1839 C1845 1.429 . S
C1840 C1832 1.574 . S
C1840 H1835 0.949 . S
C1840 C1846 1.368 1_556 S
C1841 C1825 1.349 . S
C1841 H1833 0.950 . S
C1841 C1839 1.327 . S
C1842 C1830 1.349 1_556 S
C1842 H1836 0.950 . S
C1842 C1843 1.327 . S
C1843 H1837 0.950 . S
C1843 C1842 1.327 . S
C1843 C1847 1.429 1_556 S
C1844 C1827 1.574 . S
C1844 H1838 0.949 . S
C1844 C1848 1.368 . S
C1845 C1826 1.429 1_554 S
C1845 C1839 1.429 . S
C1845 C1846 1.523 . S
C1846 C1827 1.368 . S
C1846 C1840 1.368 1_554 S
C1846 C1845 1.523 . S
C1847 C1831 1.429 . S
C1847 C1843 1.429 1_554 S
C1847 C1848 1.523 . S
C1848 C1832 1.368 1_554 S
C1848 C1844 1.368 . S
C1848 C1847 1.523 . S
H1849 C1824 0.950 . S
H1850 C1826 0.950 . S
H1851 C1827 0.949 . S
H1852 C1829 0.950 . S
H1853 C1831 0.950 . S
C1854 C1855 1.349 . S
C1854 C1856 1.327 . S
C1854 H1879 0.950 . S
C1855 C1854 1.349 . S
C1855 C1871 1.349 1_554 S
C1856 C1854 1.327 . S
C1856 C1875 1.429 . S
C1856 H1880 0.950 . S
C1857 C1874 1.574 . S
C1857 C1876 1.368 1_556 S
C1857 H1881 0.949 . S
H1858 C1862 0.949 . S
C1859 C1860 1.349 1_556 S
C1859 C1861 1.327 . S
C1859 H1882 0.950 . S
C1860 C1859 1.349 1_554 S
C1860 C1872 1.349 . S
C1861 C1859 1.327 . S
C1861 C1877 1.429 1_556 S
C1861 H1883 0.950 . S
C1862 H1858 0.949 . S
C1862 C1870 1.574 . S
C1862 C1878 1.368 . S
H1863 C1871 0.950 . S
H1864 C1869 0.950 . S
H1865 C1870 0.949 . S
H1866 C1872 0.950 . S
H1867 C1873 0.950 . S
H1868 C1874 0.949 . S
C1869 H1864 0.950 . S
C1869 C1871 1.327 . S
C1869 C1875 1.429 1_556 S
C1870 C1862 1.574 . S
C1870 H1865 0.949 . S
C1870 C1876 1.368 . S
C1871 C1855 1.349 1_556 S
C1871 H1863 0.950 . S
C1871 C1869 1.327 . S
C1872 C1860 1.349 . S
C1872 H1866 0.950 . S
C1872 C1873 1.327 . S
C1873 H1867 0.950 . S
C1873 C1872 1.327 . S
C1873 C1877 1.429 . S
C1874 C1857 1.574 . S
C1874 H1868 0.949 . S
C1874 C1878 1.368 1_556 S
C1875 C1856 1.429 . S
C1875 C1869 1.429 1_554 S
C1875 C1876 1.523 . S
C1876 C1857 1.368 1_554 S
C1876 C1870 1.368 . S
C1876 C1875 1.523 . S
C1877 C1861 1.429 1_554 S
C1877 C1873 1.429 . S
C1877 C1878 1.523 . S
C1878 C1862 1.368 . S
C1878 C1874 1.368 1_554 S
C1878 C1877 1.523 . S
H1879 C1854 0.950 . S
H1880 C1856 0.950 . S
H1881 C1857 0.949 . S
H1882 C1859 0.950 . S
H1883 C1861 0.950 . S
C1884 C1885 1.349 1_556 S
C1884 C1886 1.327 . S
C1884 H1909 0.950 . S
C1885 C1884 1.349 1_554 S
C1885 C1901 1.349 . S
C1886 C1884 1.327 . S
C1886 C1905 1.429 1_556 S
C1886 H1910 0.950 . S
C1887 C1904 1.574 . S
C1887 C1906 1.368 . S
C1887 H1911 0.949 . S
H1888 C1892 0.949 . S
C1889 C1890 1.349 . S
C1889 C1891 1.327 . S
C1889 H1912 0.950 . S
C1890 C1889 1.349 . S
C1890 C1902 1.349 1_554 S
C1891 C1889 1.327 . S
C1891 C1907 1.429 . S
C1891 H1913 0.950 . S
C1892 H1888 0.949 . S
C1892 C1900 1.574 . S
C1892 C1908 1.368 1_556 S
H1893 C1901 0.950 . S
H1894 C1899 0.950 . S
H1895 C1900 0.949 . S
H1896 C1902 0.950 . S
H1897 C1903 0.950 . S
H1898 C1904 0.949 . S
C1899 H1894 0.950 . S
C1899 C1901 1.327 . S
C1899 C1905 1.429 . S
C1900 C1892 1.574 . S
C1900 H1895 0.949 . S
C1900 C1906 1.368 1_556 S
C1901 C1885 1.349 . S
C1901 H1893 0.950 . S
C1901 C1899 1.327 . S
C1902 C1890 1.349 1_556 S
C1902 H1896 0.950 . S
C1902 C1903 1.327 . S
C1903 H1897 0.950 . S
C1903 C1902 1.327 . S
C1903 C1907 1.429 1_556 S
C1904 C1887 1.574 . S
C1904 H1898 0.949 . S
C1904 C1908 1.368 . S
C1905 C1886 1.429 1_554 S
C1905 C1899 1.429 . S
C1905 C1906 1.523 . S
C1906 C1887 1.368 . S
C1906 C1900 1.368 1_554 S
C1906 C1905 1.523 . S
C1907 C1891 1.429 . S
C1907 C1903 1.429 1_554 S
C1907 C1908 1.523 . S
C1908 C1892 1.368 1_554 S
C1908 C1904 1.368 . S
C1908 C1907 1.523 . S
H1909 C1884 0.950 . S
H1910 C1886 0.950 . S
H1911 C1887 0.949 . S
H1912 C1889 0.950 . S
H1913 C1891 0.950 . S
C1914 C1915 1.349 1_556 S
C1914 C1916 1.327 . S
C1914 H1939 0.950 . S
C1915 C1914 1.349 1_554 S
C1915 C1931 1.349 . S
C1916 C1914 1.327 . S
C1916 C1935 1.429 1_556 S
C1916 H1940 0.950 . S
C1917 C1934 1.574 . S
C1917 C1936 1.368 . S
C1917 H1941 0.949 . S
H1918 C1922 0.949 . S
C1919 C1920 1.349 . S
C1919 C1921 1.327 . S
C1919 H1942 0.950 . S
C1920 C1919 1.349 . S
C1920 C1932 1.349 1_554 S
C1921 C1919 1.327 . S
C1921 C1937 1.429 . S
C1921 H1943 0.950 . S
C1922 H1918 0.949 . S
C1922 C1930 1.574 . S
C1922 C1938 1.368 1_556 S
H1923 C1931 0.950 . S
H1924 C1929 0.950 . S
H1925 C1930 0.949 . S
H1926 C1932 0.950 . S
H1927 C1933 0.950 . S
H1928 C1934 0.949 . S
C1929 H1924 0.950 . S
C1929 C1931 1.327 . S
C1929 C1935 1.429 . S
C1930 C1922 1.574 . S
C1930 H1925 0.949 . S
C1930 C1936 1.368 1_556 S
C1931 C1915 1.349 . S
C1931 H1923 0.950 . S
C1931 C1929 1.327 . S
C1932 C1920 1.349 1_556 S
C1932 H1926 0.950 . S
C1932 C1933 1.327 . S
C1933 H1927 0.950 . S
C1933 C1932 1.327 . S
C1933 C1937 1.429 1_556 S
C1934 C1917 1.574 . S
C1934 H1928 0.949 . S
C1934 C1938 1.368 . S
C1935 C1916 1.429 1_554 S
C1935 C1929 1.429 . S
C1935 C1936 1.523 . S
C1936 C1917 1.368 . S
C1936 C1930 1.368 1_554 S
C1936 C1935 1.523 . S
C1937 C1921 1.429 . S
C1937 C1933 1.429 1_554 S
C1937 C1938 1.523 . S
C1938 C1922 1.368 1_554 S
C1938 C1934 1.368 . S
C1938 C1937 1.523 . S
H1939 C1914 0.950 . S
H1940 C1916 0.950 . S
H1941 C1917 0.949 . S
H1942 C1919 0.950 . S
H1943 C1921 0.950 . S
C1944 C1945 1.349 . S
C1944 C1946 1.327 . S
C1944 H1969 0.950 . S
C1945 C1944 1.349 . S
C1945 C1961 1.349 1_554 S
C1946 C1944 1.327 . S
C1946 C1965 1.429 . S
C1946 H1970 0.950 . S
C1947 C1964 1.574 . S
C1947 C1966 1.368 1_556 S
C1947 H1971 0.949 . S
H1948 C1952 0.949 . S
C1949 C1950 1.349 1_556 S
C1949 C1951 1.327 . S
C1949 H1972 0.950 . S
C1950 C1949 1.349 1_554 S
C1950 C1962 1.349 . S
C1951 C1949 1.327 . S
C1951 C1967 1.429 1_556 S
C1951 H1973 0.950 . S
C1952 H1948 0.949 . S
C1952 C1960 1.574 . S
C1952 C1968 1.368 . S
H1953 C1961 0.950 . S
H1954 C1959 0.950 . S
H1955 C1960 0.949 . S
H1956 C1962 0.950 . S
H1957 C1963 0.950 . S
H1958 C1964 0.949 . S
C1959 H1954 0.950 . S
C1959 C1961 1.327 . S
C1959 C1965 1.429 1_556 S
C1960 C1952 1.574 . S
C1960 H1955 0.949 . S
C1960 C1966 1.368 . S
C1961 C1945 1.349 1_556 S
C1961 H1953 0.950 . S
C1961 C1959 1.327 . S
C1962 C1950 1.349 . S
C1962 H1956 0.950 . S
C1962 C1963 1.327 . S
C1963 H1957 0.950 . S
C1963 C1962 1.327 . S
C1963 C1967 1.429 . S
C1964 C1947 1.574 . S
C1964 H1958 0.949 . S
C1964 C1968 1.368 1_556 S
C1965 C1946 1.429 . S
C1965 C1959 1.429 1_554 S
C1965 C1966 1.523 . S
C1966 C1947 1.368 1_554 S
C1966 C1960 1.368 . S
C1966 C1965 1.523 . S
C1967 C1951 1.429 1_554 S
C1967 C1963 1.429 . S
C1967 C1968 1.523 . S
C1968 C1952 1.368 . S
C1968 C1964 1.368 1_554 S
C1968 C1967 1.523 . S
H1969 C1944 0.950 . S
H1970 C1946 0.950 . S
H1971 C1947 0.949 . S
H1972 C1949 0.950 . S
H1973 C1951 0.950 . S
C1974 C1975 1.349 . S
C1974 C1976 1.327 . S
C1974 H1999 0.950 . S
C1975 C1974 1.349 . S
C1975 C1991 1.349 1_554 S
C1976 C1974 1.327 . S
C1976 C1995 1.429 . S
C1976 H2000 0.950 . S
C1977 C1994 1.574 . S
C1977 C1996 1.368 1_556 S
C1977 H2001 0.949 . S
H1978 C1982 0.949 . S
C1979 C1980 1.349 1_556 S
C1979 C1981 1.327 . S
C1979 H2002 0.950 . S
C1980 C1979 1.349 1_554 S
C1980 C1992 1.349 . S
C1981 C1979 1.327 . S
C1981 C1997 1.429 1_556 S
C1981 H2003 0.950 . S
C1982 H1978 0.949 . S
C1982 C1990 1.574 . S
C1982 C1998 1.368 . S
H1983 C1991 0.950 . S
H1984 C1989 0.950 . S
H1985 C1990 0.949 . S
H1986 C1992 0.950 . S
H1987 C1993 0.950 . S
H1988 C1994 0.949 . S
C1989 H1984 0.950 . S
C1989 C1991 1.327 . S
C1989 C1995 1.429 1_556 S
C1990 C1982 1.574 . S
C1990 H1985 0.949 . S
C1990 C1996 1.368 . S
C1991 C1975 1.349 1_556 S
C1991 H1983 0.950 . S
C1991 C1989 1.327 . S
C1992 C1980 1.349 . S
C1992 H1986 0.950 . S
C1992 C1993 1.327 . S
C1993 H1987 0.950 . S
C1993 C1992 1.327 . S
C1993 C1997 1.429 . S
C1994 C1977 1.574 . S
C1994 H1988 0.949 . S
C1994 C1998 1.368 1_556 S
C1995 C1976 1.429 . S
C1995 C1989 1.429 1_554 S
C1995 C1996 1.523 . S
C1996 C1977 1.368 1_554 S
C1996 C1990 1.368 . S
C1996 C1995 1.523 . S
C1997 C1981 1.429 1_554 S
C1997 C1993 1.429 . S
C1997 C1998 1.523 . S
C1998 C1982 1.368 . S
C1998 C1994 1.368 1_554 S
C1998 C1997 1.523 . S
H1999 C1974 0.950 . S
H2000 C1976 0.950 . S
H2001 C1977 0.949 . S
H2002 C1979 0.950 . S
H2003 C1981 0.950 . S
C2004 C2005 1.349 . S
C2004 C2006 1.327 . S
C2004 H2029 0.950 . S
C2005 C2004 1.349 . S
C2005 C2021 1.349 . S
C2006 C2004 1.327 . S
C2006 C2025 1.429 . S
C2006 H2030 0.950 . S
C2007 C2024 1.574 . S
C2007 C2026 1.368 . S
C2007 H2031 0.949 . S
H2008 C2012 0.949 . S
C2009 C2010 1.349 . S
C2009 C2011 1.327 . S
C2009 H2032 0.950 . S
C2010 C2009 1.349 . S
C2010 C2022 1.349 . S
C2011 C2009 1.327 . S
C2011 C2027 1.429 . S
C2011 H2033 0.950 . S
C2012 H2008 0.949 . S
C2012 C2020 1.574 . S
C2012 C2028 1.368 . S
H2013 C2021 0.950 . S
H2014 C2019 0.950 . S
H2015 C2020 0.949 . S
H2016 C2022 0.950 . S
H2017 C2023 0.950 . S
H2018 C2024 0.949 . S
C2019 H2014 0.950 . S
C2019 C2021 1.327 . S
C2019 C2025 1.429 . S
C2020 C2012 1.574 . S
C2020 H2015 0.949 . S
C2020 C2026 1.368 . S
C2021 C2005 1.349 . S
C2021 H2013 0.950 . S
C2021 C2019 1.327 . S
C2022 C2010 1.349 . S
C2022 H2016 0.950 . S
C2022 C2023 1.327 . S
C2023 H2017 0.950 . S
C2023 C2022 1.327 . S
C2023 C2027 1.429 . S
C2024 C2007 1.574 . S
C2024 H2018 0.949 . S
C2024 C2028 1.368 . S
C2025 C2006 1.429 . S
C2025 C2019 1.429 . S
C2025 C2026 1.523 . S
C2026 C2007 1.368 . S
C2026 C2020 1.368 . S
C2026 C2025 1.523 . S
C2027 C2011 1.429 . S
C2027 C2023 1.429 . S
C2027 C2028 1.523 . S
C2028 C2012 1.368 . S
C2028 C2024 1.368 . S
C2028 C2027 1.523 . S
H2029 C2004 0.950 . S
H2030 C2006 0.950 . S
H2031 C2007 0.949 . S
H2032 C2009 0.950 . S
H2033 C2011 0.950 . S
C2034 C2035 1.349 . S
C2034 C2036 1.327 . S
C2034 H2059 0.950 . S
C2035 C2034 1.349 . S
C2035 C2051 1.349 . S
C2036 C2034 1.327 . S
C2036 C2055 1.429 . S
C2036 H2060 0.950 . S
C2037 C2054 1.574 . S
C2037 C2056 1.368 . S
C2037 H2061 0.949 . S
H2038 C2042 0.949 . S
C2039 C2040 1.349 . S
C2039 C2041 1.327 . S
C2039 H2062 0.950 . S
C2040 C2039 1.349 . S
C2040 C2052 1.349 . S
C2041 C2039 1.327 . S
C2041 C2057 1.429 . S
C2041 H2063 0.950 . S
C2042 H2038 0.949 . S
C2042 C2050 1.574 . S
C2042 C2058 1.368 . S
H2043 C2051 0.950 . S
H2044 C2049 0.950 . S
H2045 C2050 0.949 . S
H2046 C2052 0.950 . S
H2047 C2053 0.950 . S
H2048 C2054 0.949 . S
C2049 H2044 0.950 . S
C2049 C2051 1.327 . S
C2049 C2055 1.429 . S
C2050 C2042 1.574 . S
C2050 H2045 0.949 . S
C2050 C2056 1.368 . S
C2051 C2035 1.349 . S
C2051 H2043 0.950 . S
C2051 C2049 1.327 . S
C2052 C2040 1.349 . S
C2052 H2046 0.950 . S
C2052 C2053 1.327 . S
C2053 H2047 0.950 . S
C2053 C2052 1.327 . S
C2053 C2057 1.429 . S
C2054 C2037 1.574 . S
C2054 H2048 0.949 . S
C2054 C2058 1.368 . S
C2055 C2036 1.429 . S
C2055 C2049 1.429 . S
C2055 C2056 1.523 . S
C2056 C2037 1.368 . S
C2056 C2050 1.368 . S
C2056 C2055 1.523 . S
C2057 C2041 1.429 . S
C2057 C2053 1.429 . S
C2057 C2058 1.523 . S
C2058 C2042 1.368 . S
C2058 C2054 1.368 . S
C2058 C2057 1.523 . S
H2059 C2034 0.950 . S
H2060 C2036 0.950 . S
H2061 C2037 0.949 . S
H2062 C2039 0.950 . S
H2063 C2041 0.950 . S
C2064 C2065 1.349 . S
C2064 C2066 1.327 . S
C2064 H2089 0.950 . S
C2065 C2064 1.349 . S
C2065 C2081 1.349 . S
C2066 C2064 1.327 . S
C2066 C2085 1.429 . S
C2066 H2090 0.950 . S
C2067 C2084 1.574 . S
C2067 C2086 1.368 . S
C2067 H2091 0.949 . S
H2068 C2072 0.949 . S
C2069 C2070 1.349 . S
C2069 C2071 1.327 . S
C2069 H2092 0.950 . S
C2070 C2069 1.349 . S
C2070 C2082 1.349 . S
C2071 C2069 1.327 . S
C2071 C2087 1.429 . S
C2071 H2093 0.950 . S
C2072 H2068 0.949 . S
C2072 C2080 1.574 . S
C2072 C2088 1.368 . S
H2073 C2081 0.950 . S
H2074 C2079 0.950 . S
H2075 C2080 0.949 . S
H2076 C2082 0.950 . S
H2077 C2083 0.950 . S
H2078 C2084 0.949 . S
C2079 H2074 0.950 . S
C2079 C2081 1.327 . S
C2079 C2085 1.429 . S
C2080 C2072 1.574 . S
C2080 H2075 0.949 . S
C2080 C2086 1.368 . S
C2081 C2065 1.349 . S
C2081 H2073 0.950 . S
C2081 C2079 1.327 . S
C2082 C2070 1.349 . S
C2082 H2076 0.950 . S
C2082 C2083 1.327 . S
C2083 H2077 0.950 . S
C2083 C2082 1.327 . S
C2083 C2087 1.429 . S
C2084 C2067 1.574 . S
C2084 H2078 0.949 . S
C2084 C2088 1.368 . S
C2085 C2066 1.429 . S
C2085 C2079 1.429 . S
C2085 C2086 1.523 . S
C2086 C2067 1.368 . S
C2086 C2080 1.368 . S
C2086 C2085 1.523 . S
C2087 C2071 1.429 . S
C2087 C2083 1.429 . S
C2087 C2088 1.523 . S
C2088 C2072 1.368 . S
C2088 C2084 1.368 . S
C2088 C2087 1.523 . S
H2089 C2064 0.950 . S
H2090 C2066 0.950 . S
H2091 C2067 0.949 . S
H2092 C2069 0.950 . S
H2093 C2071 0.950 . S
C2094 C2095 1.349 . S
C2094 C2096 1.327 . S
C2094 H2119 0.950 . S
C2095 C2094 1.349 . S
C2095 C2111 1.349 . S
C2096 C2094 1.327 . S
C2096 C2115 1.429 . S
C2096 H2120 0.950 . S
C2097 C2114 1.574 . S
C2097 C2116 1.368 . S
C2097 H2121 0.949 . S
H2098 C2102 0.949 . S
C2099 C2100 1.349 . S
C2099 C2101 1.327 . S
C2099 H2122 0.950 . S
C2100 C2099 1.349 . S
C2100 C2112 1.349 . S
C2101 C2099 1.327 . S
C2101 C2117 1.429 . S
C2101 H2123 0.950 . S
C2102 H2098 0.949 . S
C2102 C2110 1.574 . S
C2102 C2118 1.368 . S
H2103 C2111 0.950 . S
H2104 C2109 0.950 . S
H2105 C2110 0.949 . S
H2106 C2112 0.950 . S
H2107 C2113 0.950 . S
H2108 C2114 0.949 . S
C2109 H2104 0.950 . S
C2109 C2111 1.327 . S
C2109 C2115 1.429 . S
C2110 C2102 1.574 . S
C2110 H2105 0.949 . S
C2110 C2116 1.368 . S
C2111 C2095 1.349 . S
C2111 H2103 0.950 . S
C2111 C2109 1.327 . S
C2112 C2100 1.349 . S
C2112 H2106 0.950 . S
C2112 C2113 1.327 . S
C2113 H2107 0.950 . S
C2113 C2112 1.327 . S
C2113 C2117 1.429 . S
C2114 C2097 1.574 . S
C2114 H2108 0.949 . S
C2114 C2118 1.368 . S
C2115 C2096 1.429 . S
C2115 C2109 1.429 . S
C2115 C2116 1.523 . S
C2116 C2097 1.368 . S
C2116 C2110 1.368 . S
C2116 C2115 1.523 . S
C2117 C2101 1.429 . S
C2117 C2113 1.429 . S
C2117 C2118 1.523 . S
C2118 C2102 1.368 . S
C2118 C2114 1.368 . S
C2118 C2117 1.523 . S
H2119 C2094 0.950 . S
H2120 C2096 0.950 . S
H2121 C2097 0.949 . S
H2122 C2099 0.950 . S
H2123 C2101 0.950 . S
C2124 C2125 1.349 . S
C2124 C2126 1.327 . S
C2124 H2149 0.950 . S
C2125 C2124 1.349 . S
C2125 C2141 1.349 . S
C2126 C2124 1.327 . S
C2126 C2145 1.429 . S
C2126 H2150 0.950 . S
C2127 C2144 1.574 . S
C2127 C2146 1.368 . S
C2127 H2151 0.949 . S
H2128 C2132 0.949 . S
C2129 C2130 1.349 . S
C2129 C2131 1.327 . S
C2129 H2152 0.950 . S
C2130 C2129 1.349 . S
C2130 C2142 1.349 . S
C2131 C2129 1.327 . S
C2131 C2147 1.429 . S
C2131 H2153 0.950 . S
C2132 H2128 0.949 . S
C2132 C2140 1.574 . S
C2132 C2148 1.368 . S
H2133 C2141 0.950 . S
H2134 C2139 0.950 . S
H2135 C2140 0.949 . S
H2136 C2142 0.950 . S
H2137 C2143 0.950 . S
H2138 C2144 0.949 . S
C2139 H2134 0.950 . S
C2139 C2141 1.327 . S
C2139 C2145 1.429 . S
C2140 C2132 1.574 . S
C2140 H2135 0.949 . S
C2140 C2146 1.368 . S
C2141 C2125 1.349 . S
C2141 H2133 0.950 . S
C2141 C2139 1.327 . S
C2142 C2130 1.349 . S
C2142 H2136 0.950 . S
C2142 C2143 1.327 . S
C2143 H2137 0.950 . S
C2143 C2142 1.327 . S
C2143 C2147 1.429 . S
C2144 C2127 1.574 . S
C2144 H2138 0.949 . S
C2144 C2148 1.368 . S
C2145 C2126 1.429 . S
C2145 C2139 1.429 . S
C2145 C2146 1.523 . S
C2146 C2127 1.368 . S
C2146 C2140 1.368 . S
C2146 C2145 1.523 . S
C2147 C2131 1.429 . S
C2147 C2143 1.429 . S
C2147 C2148 1.523 . S
C2148 C2132 1.368 . S
C2148 C2144 1.368 . S
C2148 C2147 1.523 . S
H2149 C2124 0.950 . S
H2150 C2126 0.950 . S
H2151 C2127 0.949 . S
H2152 C2129 0.950 . S
H2153 C2131 0.950 . S
C2154 C2155 1.349 . S
C2154 C2156 1.327 . S
C2154 H2179 0.950 . S
C2155 C2154 1.349 . S
C2155 C2171 1.349 . S
C2156 C2154 1.327 . S
C2156 C2175 1.429 . S
C2156 H2180 0.950 . S
C2157 C2174 1.574 . S
C2157 C2176 1.368 . S
C2157 H2181 0.949 . S
H2158 C2162 0.949 . S
C2159 C2160 1.349 . S
C2159 C2161 1.327 . S
C2159 H2182 0.950 . S
C2160 C2159 1.349 . S
C2160 C2172 1.349 . S
C2161 C2159 1.327 . S
C2161 C2177 1.429 . S
C2161 H2183 0.950 . S
C2162 H2158 0.949 . S
C2162 C2170 1.574 . S
C2162 C2178 1.368 . S
H2163 C2171 0.950 . S
H2164 C2169 0.950 . S
H2165 C2170 0.949 . S
H2166 C2172 0.950 . S
H2167 C2173 0.950 . S
H2168 C2174 0.949 . S
C2169 H2164 0.950 . S
C2169 C2171 1.327 . S
C2169 C2175 1.429 . S
C2170 C2162 1.574 . S
C2170 H2165 0.949 . S
C2170 C2176 1.368 . S
C2171 C2155 1.349 . S
C2171 H2163 0.950 . S
C2171 C2169 1.327 . S
C2172 C2160 1.349 . S
C2172 H2166 0.950 . S
C2172 C2173 1.327 . S
C2173 H2167 0.950 . S
C2173 C2172 1.327 . S
C2173 C2177 1.429 . S
C2174 C2157 1.574 . S
C2174 H2168 0.949 . S
C2174 C2178 1.368 . S
C2175 C2156 1.429 . S
C2175 C2169 1.429 . S
C2175 C2176 1.523 . S
C2176 C2157 1.368 . S
C2176 C2170 1.368 . S
C2176 C2175 1.523 . S
C2177 C2161 1.429 . S
C2177 C2173 1.429 . S
C2177 C2178 1.523 . S
C2178 C2162 1.368 . S
C2178 C2174 1.368 . S
C2178 C2177 1.523 . S
H2179 C2154 0.950 . S
H2180 C2156 0.950 . S
H2181 C2157 0.949 . S
H2182 C2159 0.950 . S
H2183 C2161 0.950 . S
C2184 C2185 1.349 . S
C2184 C2186 1.327 . S
C2184 H2209 0.950 . S
C2185 C2184 1.349 . S
C2185 C2201 1.349 . S
C2186 C2184 1.327 . S
C2186 C2205 1.429 . S
C2186 H2210 0.950 . S
C2187 C2204 1.574 . S
C2187 C2206 1.368 . S
C2187 H2211 0.949 . S
H2188 C2192 0.949 . S
C2189 C2190 1.349 . S
C2189 C2191 1.327 . S
C2189 H2212 0.950 . S
C2190 C2189 1.349 . S
C2190 C2202 1.349 . S
C2191 C2189 1.327 . S
C2191 C2207 1.429 . S
C2191 H2213 0.950 . S
C2192 H2188 0.949 . S
C2192 C2200 1.574 . S
C2192 C2208 1.368 . S
H2193 C2201 0.950 . S
H2194 C2199 0.950 . S
H2195 C2200 0.949 . S
H2196 C2202 0.950 . S
H2197 C2203 0.950 . S
H2198 C2204 0.949 . S
C2199 H2194 0.950 . S
C2199 C2201 1.327 . S
C2199 C2205 1.429 . S
C2200 C2192 1.574 . S
C2200 H2195 0.949 . S
C2200 C2206 1.368 . S
C2201 C2185 1.349 . S
C2201 H2193 0.950 . S
C2201 C2199 1.327 . S
C2202 C2190 1.349 . S
C2202 H2196 0.950 . S
C2202 C2203 1.327 . S
C2203 H2197 0.950 . S
C2203 C2202 1.327 . S
C2203 C2207 1.429 . S
C2204 C2187 1.574 . S
C2204 H2198 0.949 . S
C2204 C2208 1.368 . S
C2205 C2186 1.429 . S
C2205 C2199 1.429 . S
C2205 C2206 1.523 . S
C2206 C2187 1.368 . S
C2206 C2200 1.368 . S
C2206 C2205 1.523 . S
C2207 C2191 1.429 . S
C2207 C2203 1.429 . S
C2207 C2208 1.523 . S
C2208 C2192 1.368 . S
C2208 C2204 1.368 . S
C2208 C2207 1.523 . S
H2209 C2184 0.950 . S
H2210 C2186 0.950 . S
H2211 C2187 0.949 . S
H2212 C2189 0.950 . S
H2213 C2191 0.950 . S
C2214 C2215 1.349 . S
C2214 C2216 1.327 . S
C2214 H2239 0.950 . S
C2215 C2214 1.349 . S
C2215 C2231 1.349 . S
C2216 C2214 1.327 . S
C2216 C2235 1.429 . S
C2216 H2240 0.950 . S
C2217 C2234 1.574 . S
C2217 C2236 1.368 . S
C2217 H2241 0.949 . S
H2218 C2222 0.949 . S
C2219 C2220 1.349 . S
C2219 C2221 1.327 . S
C2219 H2242 0.950 . S
C2220 C2219 1.349 . S
C2220 C2232 1.349 . S
C2221 C2219 1.327 . S
C2221 C2237 1.429 . S
C2221 H2243 0.950 . S
C2222 H2218 0.949 . S
C2222 C2230 1.574 . S
C2222 C2238 1.368 . S
H2223 C2231 0.950 . S
H2224 C2229 0.950 . S
H2225 C2230 0.949 . S
H2226 C2232 0.950 . S
H2227 C2233 0.950 . S
H2228 C2234 0.949 . S
C2229 H2224 0.950 . S
C2229 C2231 1.327 . S
C2229 C2235 1.429 . S
C2230 C2222 1.574 . S
C2230 H2225 0.949 . S
C2230 C2236 1.368 . S
C2231 C2215 1.349 . S
C2231 H2223 0.950 . S
C2231 C2229 1.327 . S
C2232 C2220 1.349 . S
C2232 H2226 0.950 . S
C2232 C2233 1.327 . S
C2233 H2227 0.950 . S
C2233 C2232 1.327 . S
C2233 C2237 1.429 . S
C2234 C2217 1.574 . S
C2234 H2228 0.949 . S
C2234 C2238 1.368 . S
C2235 C2216 1.429 . S
C2235 C2229 1.429 . S
C2235 C2236 1.523 . S
C2236 C2217 1.368 . S
C2236 C2230 1.368 . S
C2236 C2235 1.523 . S
C2237 C2221 1.429 . S
C2237 C2233 1.429 . S
C2237 C2238 1.523 . S
C2238 C2222 1.368 . S
C2238 C2234 1.368 . S
C2238 C2237 1.523 . S
H2239 C2214 0.950 . S
H2240 C2216 0.950 . S
H2241 C2217 0.949 . S
H2242 C2219 0.950 . S
H2243 C2221 0.950 . S
C2244 C2245 1.349 . S
C2244 C2246 1.327 . S
C2244 H2269 0.950 . S
C2245 C2244 1.349 . S
C2245 C2261 1.349 . S
C2246 C2244 1.327 . S
C2246 C2265 1.429 . S
C2246 H2270 0.950 . S
C2247 C2264 1.574 . S
C2247 C2266 1.368 . S
C2247 H2271 0.949 . S
H2248 C2252 0.949 . S
C2249 C2250 1.349 . S
C2249 C2251 1.327 . S
C2249 H2272 0.950 . S
C2250 C2249 1.349 . S
C2250 C2262 1.349 . S
C2251 C2249 1.327 . S
C2251 C2267 1.429 . S
C2251 H2273 0.950 . S
C2252 H2248 0.949 . S
C2252 C2260 1.574 . S
C2252 C2268 1.368 . S
H2253 C2261 0.950 . S
H2254 C2259 0.950 . S
H2255 C2260 0.949 . S
H2256 C2262 0.950 . S
H2257 C2263 0.950 . S
H2258 C2264 0.949 . S
C2259 H2254 0.950 . S
C2259 C2261 1.327 . S
C2259 C2265 1.429 . S
C2260 C2252 1.574 . S
C2260 H2255 0.949 . S
C2260 C2266 1.368 . S
C2261 C2245 1.349 . S
C2261 H2253 0.950 . S
C2261 C2259 1.327 . S
C2262 C2250 1.349 . S
C2262 H2256 0.950 . S
C2262 C2263 1.327 . S
C2263 H2257 0.950 . S
C2263 C2262 1.327 . S
C2263 C2267 1.429 . S
C2264 C2247 1.574 . S
C2264 H2258 0.949 . S
C2264 C2268 1.368 . S
C2265 C2246 1.429 . S
C2265 C2259 1.429 . S
C2265 C2266 1.523 . S
C2266 C2247 1.368 . S
C2266 C2260 1.368 . S
C2266 C2265 1.523 . S
C2267 C2251 1.429 . S
C2267 C2263 1.429 . S
C2267 C2268 1.523 . S
C2268 C2252 1.368 . S
C2268 C2264 1.368 . S
C2268 C2267 1.523 . S
H2269 C2244 0.950 . S
H2270 C2246 0.950 . S
H2271 C2247 0.949 . S
H2272 C2249 0.950 . S
H2273 C2251 0.950 . S
C2274 C2275 1.349 . S
C2274 C2276 1.327 . S
C2274 H2299 0.950 . S
C2275 C2274 1.349 . S
C2275 C2291 1.349 . S
C2276 C2274 1.327 . S
C2276 C2295 1.429 . S
C2276 H2300 0.950 . S
C2277 C2294 1.574 . S
C2277 C2296 1.368 . S
C2277 H2301 0.949 . S
H2278 C2282 0.949 . S
C2279 C2280 1.349 . S
C2279 C2281 1.327 . S
C2279 H2302 0.950 . S
C2280 C2279 1.349 . S
C2280 C2292 1.349 . S
C2281 C2279 1.327 . S
C2281 C2297 1.429 . S
C2281 H2303 0.950 . S
C2282 H2278 0.949 . S
C2282 C2290 1.574 . S
C2282 C2298 1.368 . S
H2283 C2291 0.950 . S
H2284 C2289 0.950 . S
H2285 C2290 0.949 . S
H2286 C2292 0.950 . S
H2287 C2293 0.950 . S
H2288 C2294 0.949 . S
C2289 H2284 0.950 . S
C2289 C2291 1.327 . S
C2289 C2295 1.429 . S
C2290 C2282 1.574 . S
C2290 H2285 0.949 . S
C2290 C2296 1.368 . S
C2291 C2275 1.349 . S
C2291 H2283 0.950 . S
C2291 C2289 1.327 . S
C2292 C2280 1.349 . S
C2292 H2286 0.950 . S
C2292 C2293 1.327 . S
C2293 H2287 0.950 . S
C2293 C2292 1.327 . S
C2293 C2297 1.429 . S
C2294 C2277 1.574 . S
C2294 H2288 0.949 . S
C2294 C2298 1.368 . S
C2295 C2276 1.429 . S
C2295 C2289 1.429 . S
C2295 C2296 1.523 . S
C2296 C2277 1.368 . S
C2296 C2290 1.368 . S
C2296 C2295 1.523 . S
C2297 C2281 1.429 . S
C2297 C2293 1.429 . S
C2297 C2298 1.523 . S
C2298 C2282 1.368 . S
C2298 C2294 1.368 . S
C2298 C2297 1.523 . S
H2299 C2274 0.950 . S
H2300 C2276 0.950 . S
H2301 C2277 0.949 . S
H2302 C2279 0.950 . S
H2303 C2281 0.950 . S
C2304 C2305 1.349 . S
C2304 C2306 1.327 . S
C2304 H2329 0.950 . S
C2305 C2304 1.349 . S
C2305 C2321 1.349 . S
C2306 C2304 1.327 . S
C2306 C2325 1.429 . S
C2306 H2330 0.950 . S
C2307 C2324 1.574 . S
C2307 C2326 1.368 . S
C2307 H2331 0.949 . S
H2308 C2312 0.949 . S
C2309 C2310 1.349 . S
C2309 C2311 1.327 . S
C2309 H2332 0.950 . S
C2310 C2309 1.349 . S
C2310 C2322 1.349 . S
C2311 C2309 1.327 . S
C2311 C2327 1.429 . S
C2311 H2333 0.950 . S
C2312 H2308 0.949 . S
C2312 C2320 1.574 . S
C2312 C2328 1.368 . S
H2313 C2321 0.950 . S
H2314 C2319 0.950 . S
H2315 C2320 0.949 . S
H2316 C2322 0.950 . S
H2317 C2323 0.950 . S
H2318 C2324 0.949 . S
C2319 H2314 0.950 . S
C2319 C2321 1.327 . S
C2319 C2325 1.429 . S
C2320 C2312 1.574 . S
C2320 H2315 0.949 . S
C2320 C2326 1.368 . S
C2321 C2305 1.349 . S
C2321 H2313 0.950 . S
C2321 C2319 1.327 . S
C2322 C2310 1.349 . S
C2322 H2316 0.950 . S
C2322 C2323 1.327 . S
C2323 H2317 0.950 . S
C2323 C2322 1.327 . S
C2323 C2327 1.429 . S
C2324 C2307 1.574 . S
C2324 H2318 0.949 . S
C2324 C2328 1.368 . S
C2325 C2306 1.429 . S
C2325 C2319 1.429 . S
C2325 C2326 1.523 . S
C2326 C2307 1.368 . S
C2326 C2320 1.368 . S
C2326 C2325 1.523 . S
C2327 C2311 1.429 . S
C2327 C2323 1.429 . S
C2327 C2328 1.523 . S
C2328 C2312 1.368 . S
C2328 C2324 1.368 . S
C2328 C2327 1.523 . S
H2329 C2304 0.950 . S
H2330 C2306 0.950 . S
H2331 C2307 0.949 . S
H2332 C2309 0.950 . S
H2333 C2311 0.950 . S
C2334 C2335 1.349 . S
C2334 C2336 1.327 . S
C2334 H2359 0.950 . S
C2335 C2334 1.349 . S
C2335 C2351 1.349 . S
C2336 C2334 1.327 . S
C2336 C2355 1.429 . S
C2336 H2360 0.950 . S
C2337 C2354 1.574 . S
C2337 C2356 1.368 . S
C2337 H2361 0.949 . S
H2338 C2342 0.949 . S
C2339 C2340 1.349 . S
C2339 C2341 1.327 . S
C2339 H2362 0.950 . S
C2340 C2339 1.349 . S
C2340 C2352 1.349 . S
C2341 C2339 1.327 . S
C2341 C2357 1.429 . S
C2341 H2363 0.950 . S
C2342 H2338 0.949 . S
C2342 C2350 1.574 . S
C2342 C2358 1.368 . S
H2343 C2351 0.950 . S
H2344 C2349 0.950 . S
H2345 C2350 0.949 . S
H2346 C2352 0.950 . S
H2347 C2353 0.950 . S
H2348 C2354 0.949 . S
C2349 H2344 0.950 . S
C2349 C2351 1.327 . S
C2349 C2355 1.429 . S
C2350 C2342 1.574 . S
C2350 H2345 0.949 . S
C2350 C2356 1.368 . S
C2351 C2335 1.349 . S
C2351 H2343 0.950 . S
C2351 C2349 1.327 . S
C2352 C2340 1.349 . S
C2352 H2346 0.950 . S
C2352 C2353 1.327 . S
C2353 H2347 0.950 . S
C2353 C2352 1.327 . S
C2353 C2357 1.429 . S
C2354 C2337 1.574 . S
C2354 H2348 0.949 . S
C2354 C2358 1.368 . S
C2355 C2336 1.429 . S
C2355 C2349 1.429 . S
C2355 C2356 1.523 . S
C2356 C2337 1.368 . S
C2356 C2350 1.368 . S
C2356 C2355 1.523 . S
C2357 C2341 1.429 . S
C2357 C2353 1.429 . S
C2357 C2358 1.523 . S
C2358 C2342 1.368 . S
C2358 C2354 1.368 . S
C2358 C2357 1.523 . S
H2359 C2334 0.950 . S
H2360 C2336 0.950 . S
H2361 C2337 0.949 . S
H2362 C2339 0.950 . S
H2363 C2341 0.950 . S
C2364 C2365 1.349 . S
C2364 C2366 1.327 . S
C2364 H2389 0.950 . S
C2365 C2364 1.349 . S
C2365 C2381 1.349 . S
C2366 C2364 1.327 . S
C2366 C2385 1.429 . S
C2366 H2390 0.950 . S
C2367 C2384 1.574 . S
C2367 C2386 1.368 . S
C2367 H2391 0.949 . S
H2368 C2372 0.949 . S
C2369 C2370 1.349 . S
C2369 C2371 1.327 . S
C2369 H2392 0.950 . S
C2370 C2369 1.349 . S
C2370 C2382 1.349 . S
C2371 C2369 1.327 . S
C2371 C2387 1.429 . S
C2371 H2393 0.950 . S
C2372 H2368 0.949 . S
C2372 C2380 1.574 . S
C2372 C2388 1.368 . S
H2373 C2381 0.950 . S
H2374 C2379 0.950 . S
H2375 C2380 0.949 . S
H2376 C2382 0.950 . S
H2377 C2383 0.950 . S
H2378 C2384 0.949 . S
C2379 H2374 0.950 . S
C2379 C2381 1.327 . S
C2379 C2385 1.429 . S
C2380 C2372 1.574 . S
C2380 H2375 0.949 . S
C2380 C2386 1.368 . S
C2381 C2365 1.349 . S
C2381 H2373 0.950 . S
C2381 C2379 1.327 . S
C2382 C2370 1.349 . S
C2382 H2376 0.950 . S
C2382 C2383 1.327 . S
C2383 H2377 0.950 . S
C2383 C2382 1.327 . S
C2383 C2387 1.429 . S
C2384 C2367 1.574 . S
C2384 H2378 0.949 . S
C2384 C2388 1.368 . S
C2385 C2366 1.429 . S
C2385 C2379 1.429 . S
C2385 C2386 1.523 . S
C2386 C2367 1.368 . S
C2386 C2380 1.368 . S
C2386 C2385 1.523 . S
C2387 C2371 1.429 . S
C2387 C2383 1.429 . S
C2387 C2388 1.523 . S
C2388 C2372 1.368 . S
C2388 C2384 1.368 . S
C2388 C2387 1.523 . S
H2389 C2364 0.950 . S
H2390 C2366 0.950 . S
H2391 C2367 0.949 . S
H2392 C2369 0.950 . S
H2393 C2371 0.950 . S
C2394 C2395 1.349 . S
C2394 C2396 1.327 . S
C2394 H2419 0.950 . S
C2395 C2394 1.349 . S
C2395 C2411 1.349 . S
C2396 C2394 1.327 . S
C2396 C2415 1.429 . S
C2396 H2420 0.950 . S
C2397 C2414 1.574 . S
C2397 C2416 1.368 . S
C2397 H2421 0.949 . S
H2398 C2402 0.949 . S
C2399 C2400 1.349 . S
C2399 C2401 1.327 . S
C2399 H2422 0.950 . S
C2400 C2399 1.349 . S
C2400 C2412 1.349 . S
C2401 C2399 1.327 . S
C2401 C2417 1.429 . S
C2401 H2423 0.950 . S
C2402 H2398 0.949 . S
C2402 C2410 1.574 . S
C2402 C2418 1.368 . S
H2403 C2411 0.950 . S
H2404 C2409 0.950 . S
H2405 C2410 0.949 . S
H2406 C2412 0.950 . S
H2407 C2413 0.950 . S
H2408 C2414 0.949 . S
C2409 H2404 0.950 . S
C2409 C2411 1.327 . S
C2409 C2415 1.429 . S
C2410 C2402 1.574 . S
C2410 H2405 0.949 . S
C2410 C2416 1.368 . S
C2411 C2395 1.349 . S
C2411 H2403 0.950 . S
C2411 C2409 1.327 . S
C2412 C2400 1.349 . S
C2412 H2406 0.950 . S
C2412 C2413 1.327 . S
C2413 H2407 0.950 . S
C2413 C2412 1.327 . S
C2413 C2417 1.429 . S
C2414 C2397 1.574 . S
C2414 H2408 0.949 . S
C2414 C2418 1.368 . S
C2415 C2396 1.429 . S
C2415 C2409 1.429 . S
C2415 C2416 1.523 . S
C2416 C2397 1.368 . S
C2416 C2410 1.368 . S
C2416 C2415 1.523 . S
C2417 C2401 1.429 . S
C2417 C2413 1.429 . S
C2417 C2418 1.523 . S
C2418 C2402 1.368 . S
C2418 C2414 1.368 . S
C2418 C2417 1.523 . S
H2419 C2394 0.950 . S
H2420 C2396 0.950 . S
H2421 C2397 0.949 . S
H2422 C2399 0.950 . S
H2423 C2401 0.950 . S
C2424 C2425 1.349 . S
C2424 C2426 1.327 . S
C2424 H2449 0.950 . S
C2425 C2424 1.349 . S
C2425 C2441 1.349 . S
C2426 C2424 1.327 . S
C2426 C2445 1.429 . S
C2426 H2450 0.950 . S
C2427 C2444 1.574 . S
C2427 C2446 1.368 . S
C2427 H2451 0.949 . S
H2428 C2432 0.949 . S
C2429 C2430 1.349 . S
C2429 C2431 1.327 . S
C2429 H2452 0.950 . S
C2430 C2429 1.349 . S
C2430 C2442 1.349 . S
C2431 C2429 1.327 . S
C2431 C2447 1.429 . S
C2431 H2453 0.950 . S
C2432 H2428 0.949 . S
C2432 C2440 1.574 . S
C2432 C2448 1.368 . S
H2433 C2441 0.950 . S
H2434 C2439 0.950 . S
H2435 C2440 0.949 . S
H2436 C2442 0.950 . S
H2437 C2443 0.950 . S
H2438 C2444 0.949 . S
C2439 H2434 0.950 . S
C2439 C2441 1.327 . S
C2439 C2445 1.429 . S
C2440 C2432 1.574 . S
C2440 H2435 0.949 . S
C2440 C2446 1.368 . S
C2441 C2425 1.349 . S
C2441 H2433 0.950 . S
C2441 C2439 1.327 . S
C2442 C2430 1.349 . S
C2442 H2436 0.950 . S
C2442 C2443 1.327 . S
C2443 H2437 0.950 . S
C2443 C2442 1.327 . S
C2443 C2447 1.429 . S
C2444 C2427 1.574 . S
C2444 H2438 0.949 . S
C2444 C2448 1.368 . S
C2445 C2426 1.429 . S
C2445 C2439 1.429 . S
C2445 C2446 1.523 . S
C2446 C2427 1.368 . S
C2446 C2440 1.368 . S
C2446 C2445 1.523 . S
C2447 C2431 1.429 . S
C2447 C2443 1.429 . S
C2447 C2448 1.523 . S
C2448 C2432 1.368 . S
C2448 C2444 1.368 . S
C2448 C2447 1.523 . S
H2449 C2424 0.950 . S
H2450 C2426 0.950 . S
H2451 C2427 0.949 . S
H2452 C2429 0.950 . S
H2453 C2431 0.950 . S
C2454 C2455 1.349 . S
C2454 C2456 1.327 . S
C2454 H2479 0.950 . S
C2455 C2454 1.349 . S
C2455 C2471 1.349 . S
C2456 C2454 1.327 . S
C2456 C2475 1.429 . S
C2456 H2480 0.950 . S
C2457 C2474 1.574 . S
C2457 C2476 1.368 . S
C2457 H2481 0.949 . S
H2458 C2462 0.949 . S
C2459 C2460 1.349 . S
C2459 C2461 1.327 . S
C2459 H2482 0.950 . S
C2460 C2459 1.349 . S
C2460 C2472 1.349 . S
C2461 C2459 1.327 . S
C2461 C2477 1.429 . S
C2461 H2483 0.950 . S
C2462 H2458 0.949 . S
C2462 C2470 1.574 . S
C2462 C2478 1.368 . S
H2463 C2471 0.950 . S
H2464 C2469 0.950 . S
H2465 C2470 0.949 . S
H2466 C2472 0.950 . S
H2467 C2473 0.950 . S
H2468 C2474 0.949 . S
C2469 H2464 0.950 . S
C2469 C2471 1.327 . S
C2469 C2475 1.429 . S
C2470 C2462 1.574 . S
C2470 H2465 0.949 . S
C2470 C2476 1.368 . S
C2471 C2455 1.349 . S
C2471 H2463 0.950 . S
C2471 C2469 1.327 . S
C2472 C2460 1.349 . S
C2472 H2466 0.950 . S
C2472 C2473 1.327 . S
C2473 H2467 0.950 . S
C2473 C2472 1.327 . S
C2473 C2477 1.429 . S
C2474 C2457 1.574 . S
C2474 H2468 0.949 . S
C2474 C2478 1.368 . S
C2475 C2456 1.429 . S
C2475 C2469 1.429 . S
C2475 C2476 1.523 . S
C2476 C2457 1.368 . S
C2476 C2470 1.368 . S
C2476 C2475 1.523 . S
C2477 C2461 1.429 . S
C2477 C2473 1.429 . S
C2477 C2478 1.523 . S
C2478 C2462 1.368 . S
C2478 C2474 1.368 . S
C2478 C2477 1.523 . S
H2479 C2454 0.950 . S
H2480 C2456 0.950 . S
H2481 C2457 0.949 . S
H2482 C2459 0.950 . S
H2483 C2461 0.950 . S
C2484 C2485 1.349 . S
C2484 C2486 1.327 . S
C2484 H2509 0.950 . S
C2485 C2484 1.349 . S
C2485 C2501 1.349 . S
C2486 C2484 1.327 . S
C2486 C2505 1.429 . S
C2486 H2510 0.950 . S
C2487 C2504 1.574 . S
C2487 C2506 1.368 . S
C2487 H2511 0.949 . S
H2488 C2492 0.949 . S
C2489 C2490 1.349 . S
C2489 C2491 1.327 . S
C2489 H2512 0.950 . S
C2490 C2489 1.349 . S
C2490 C2502 1.349 . S
C2491 C2489 1.327 . S
C2491 C2507 1.429 . S
C2491 H2513 0.950 . S
C2492 H2488 0.949 . S
C2492 C2500 1.574 . S
C2492 C2508 1.368 . S
H2493 C2501 0.950 . S
H2494 C2499 0.950 . S
H2495 C2500 0.949 . S
H2496 C2502 0.950 . S
H2497 C2503 0.950 . S
H2498 C2504 0.949 . S
C2499 H2494 0.950 . S
C2499 C2501 1.327 . S
C2499 C2505 1.429 . S
C2500 C2492 1.574 . S
C2500 H2495 0.949 . S
C2500 C2506 1.368 . S
C2501 C2485 1.349 . S
C2501 H2493 0.950 . S
C2501 C2499 1.327 . S
C2502 C2490 1.349 . S
C2502 H2496 0.950 . S
C2502 C2503 1.327 . S
C2503 H2497 0.950 . S
C2503 C2502 1.327 . S
C2503 C2507 1.429 . S
C2504 C2487 1.574 . S
C2504 H2498 0.949 . S
C2504 C2508 1.368 . S
C2505 C2486 1.429 . S
C2505 C2499 1.429 . S
C2505 C2506 1.523 . S
C2506 C2487 1.368 . S
C2506 C2500 1.368 . S
C2506 C2505 1.523 . S
C2507 C2491 1.429 . S
C2507 C2503 1.429 . S
C2507 C2508 1.523 . S
C2508 C2492 1.368 . S
C2508 C2504 1.368 . S
C2508 C2507 1.523 . S
H2509 C2484 0.950 . S
H2510 C2486 0.950 . S
H2511 C2487 0.949 . S
H2512 C2489 0.950 . S
H2513 C2491 0.950 . S
C2514 C2515 1.349 . S
C2514 C2516 1.327 . S
C2514 H2539 0.950 . S
C2515 C2514 1.349 . S
C2515 C2531 1.349 . S
C2516 C2514 1.327 . S
C2516 C2535 1.429 . S
C2516 H2540 0.950 . S
C2517 C2534 1.574 . S
C2517 C2536 1.368 . S
C2517 H2541 0.949 . S
H2518 C2522 0.949 . S
C2519 C2520 1.349 . S
C2519 C2521 1.327 . S
C2519 H2542 0.950 . S
C2520 C2519 1.349 . S
C2520 C2532 1.349 . S
C2521 C2519 1.327 . S
C2521 C2537 1.429 . S
C2521 H2543 0.950 . S
C2522 H2518 0.949 . S
C2522 C2530 1.574 . S
C2522 C2538 1.368 . S
H2523 C2531 0.950 . S
H2524 C2529 0.950 . S
H2525 C2530 0.949 . S
H2526 C2532 0.950 . S
H2527 C2533 0.950 . S
H2528 C2534 0.949 . S
C2529 H2524 0.950 . S
C2529 C2531 1.327 . S
C2529 C2535 1.429 . S
C2530 C2522 1.574 . S
C2530 H2525 0.949 . S
C2530 C2536 1.368 . S
C2531 C2515 1.349 . S
C2531 H2523 0.950 . S
C2531 C2529 1.327 . S
C2532 C2520 1.349 . S
C2532 H2526 0.950 . S
C2532 C2533 1.327 . S
C2533 H2527 0.950 . S
C2533 C2532 1.327 . S
C2533 C2537 1.429 . S
C2534 C2517 1.574 . S
C2534 H2528 0.949 . S
C2534 C2538 1.368 . S
C2535 C2516 1.429 . S
C2535 C2529 1.429 . S
C2535 C2536 1.523 . S
C2536 C2517 1.368 . S
C2536 C2530 1.368 . S
C2536 C2535 1.523 . S
C2537 C2521 1.429 . S
C2537 C2533 1.429 . S
C2537 C2538 1.523 . S
C2538 C2522 1.368 . S
C2538 C2534 1.368 . S
C2538 C2537 1.523 . S
H2539 C2514 0.950 . S
H2540 C2516 0.950 . S
H2541 C2517 0.949 . S
H2542 C2519 0.950 . S
H2543 C2521 0.950 . S
C2544 C2545 1.349 . S
C2544 C2546 1.327 . S
C2544 H2569 0.950 . S
C2545 C2544 1.349 . S
C2545 C2561 1.349 . S
C2546 C2544 1.327 . S
C2546 C2565 1.429 . S
C2546 H2570 0.950 . S
C2547 C2564 1.574 . S
C2547 C2566 1.368 . S
C2547 H2571 0.949 . S
H2548 C2552 0.949 . S
C2549 C2550 1.349 . S
C2549 C2551 1.327 . S
C2549 H2572 0.950 . S
C2550 C2549 1.349 . S
C2550 C2562 1.349 . S
C2551 C2549 1.327 . S
C2551 C2567 1.429 . S
C2551 H2573 0.950 . S
C2552 H2548 0.949 . S
C2552 C2560 1.574 . S
C2552 C2568 1.368 . S
H2553 C2561 0.950 . S
H2554 C2559 0.950 . S
H2555 C2560 0.949 . S
H2556 C2562 0.950 . S
H2557 C2563 0.950 . S
H2558 C2564 0.949 . S
C2559 H2554 0.950 . S
C2559 C2561 1.327 . S
C2559 C2565 1.429 . S
C2560 C2552 1.574 . S
C2560 H2555 0.949 . S
C2560 C2566 1.368 . S
C2561 C2545 1.349 . S
C2561 H2553 0.950 . S
C2561 C2559 1.327 . S
C2562 C2550 1.349 . S
C2562 H2556 0.950 . S
C2562 C2563 1.327 . S
C2563 H2557 0.950 . S
C2563 C2562 1.327 . S
C2563 C2567 1.429 . S
C2564 C2547 1.574 . S
C2564 H2558 0.949 . S
C2564 C2568 1.368 . S
C2565 C2546 1.429 . S
C2565 C2559 1.429 . S
C2565 C2566 1.523 . S
C2566 C2547 1.368 . S
C2566 C2560 1.368 . S
C2566 C2565 1.523 . S
C2567 C2551 1.429 . S
C2567 C2563 1.429 . S
C2567 C2568 1.523 . S
C2568 C2552 1.368 . S
C2568 C2564 1.368 . S
C2568 C2567 1.523 . S
H2569 C2544 0.950 . S
H2570 C2546 0.950 . S
H2571 C2547 0.949 . S
H2572 C2549 0.950 . S
H2573 C2551 0.950 . S
C2574 C2575 1.349 . S
C2574 C2576 1.327 . S
C2574 H2599 0.950 . S
C2575 C2574 1.349 . S
C2575 C2591 1.349 . S
C2576 C2574 1.327 . S
C2576 C2595 1.429 . S
C2576 H2600 0.950 . S
C2577 C2594 1.574 . S
C2577 C2596 1.368 . S
C2577 H2601 0.949 . S
H2578 C2582 0.949 . S
C2579 C2580 1.349 . S
C2579 C2581 1.327 . S
C2579 H2602 0.950 . S
C2580 C2579 1.349 . S
C2580 C2592 1.349 . S
C2581 C2579 1.327 . S
C2581 C2597 1.429 . S
C2581 H2603 0.950 . S
C2582 H2578 0.949 . S
C2582 C2590 1.574 . S
C2582 C2598 1.368 . S
H2583 C2591 0.950 . S
H2584 C2589 0.950 . S
H2585 C2590 0.949 . S
H2586 C2592 0.950 . S
H2587 C2593 0.950 . S
H2588 C2594 0.949 . S
C2589 H2584 0.950 . S
C2589 C2591 1.327 . S
C2589 C2595 1.429 . S
C2590 C2582 1.574 . S
C2590 H2585 0.949 . S
C2590 C2596 1.368 . S
C2591 C2575 1.349 . S
C2591 H2583 0.950 . S
C2591 C2589 1.327 . S
C2592 C2580 1.349 . S
C2592 H2586 0.950 . S
C2592 C2593 1.327 . S
C2593 H2587 0.950 . S
C2593 C2592 1.327 . S
C2593 C2597 1.429 . S
C2594 C2577 1.574 . S
C2594 H2588 0.949 . S
C2594 C2598 1.368 . S
C2595 C2576 1.429 . S
C2595 C2589 1.429 . S
C2595 C2596 1.523 . S
C2596 C2577 1.368 . S
C2596 C2590 1.368 . S
C2596 C2595 1.523 . S
C2597 C2581 1.429 . S
C2597 C2593 1.429 . S
C2597 C2598 1.523 . S
C2598 C2582 1.368 . S
C2598 C2594 1.368 . S
C2598 C2597 1.523 . S
H2599 C2574 0.950 . S
H2600 C2576 0.950 . S
H2601 C2577 0.949 . S
H2602 C2579 0.950 . S
H2603 C2581 0.950 . S
C2604 C2605 1.349 . S
C2604 C2606 1.327 . S
C2604 H2629 0.950 . S
C2605 C2604 1.349 . S
C2605 C2621 1.349 . S
C2606 C2604 1.327 . S
C2606 C2625 1.429 . S
C2606 H2630 0.950 . S
C2607 C2624 1.574 . S
C2607 C2626 1.368 . S
C2607 H2631 0.949 . S
H2608 C2612 0.949 . S
C2609 C2610 1.349 . S
C2609 C2611 1.327 . S
C2609 H2632 0.950 . S
C2610 C2609 1.349 . S
C2610 C2622 1.349 . S
C2611 C2609 1.327 . S
C2611 C2627 1.429 . S
C2611 H2633 0.950 . S
C2612 H2608 0.949 . S
C2612 C2620 1.574 . S
C2612 C2628 1.368 . S
H2613 C2621 0.950 . S
H2614 C2619 0.950 . S
H2615 C2620 0.949 . S
H2616 C2622 0.950 . S
H2617 C2623 0.950 . S
H2618 C2624 0.949 . S
C2619 H2614 0.950 . S
C2619 C2621 1.327 . S
C2619 C2625 1.429 . S
C2620 C2612 1.574 . S
C2620 H2615 0.949 . S
C2620 C2626 1.368 . S
C2621 C2605 1.349 . S
C2621 H2613 0.950 . S
C2621 C2619 1.327 . S
C2622 C2610 1.349 . S
C2622 H2616 0.950 . S
C2622 C2623 1.327 . S
C2623 H2617 0.950 . S
C2623 C2622 1.327 . S
C2623 C2627 1.429 . S
C2624 C2607 1.574 . S
C2624 H2618 0.949 . S
C2624 C2628 1.368 . S
C2625 C2606 1.429 . S
C2625 C2619 1.429 . S
C2625 C2626 1.523 . S
C2626 C2607 1.368 . S
C2626 C2620 1.368 . S
C2626 C2625 1.523 . S
C2627 C2611 1.429 . S
C2627 C2623 1.429 . S
C2627 C2628 1.523 . S
C2628 C2612 1.368 . S
C2628 C2624 1.368 . S
C2628 C2627 1.523 . S
H2629 C2604 0.950 . S
H2630 C2606 0.950 . S
H2631 C2607 0.949 . S
H2632 C2609 0.950 . S
H2633 C2611 0.950 . S
C2634 C2635 1.349 . S
C2634 C2636 1.327 . S
C2634 H2659 0.950 . S
C2635 C2634 1.349 . S
C2635 C2651 1.349 . S
C2636 C2634 1.327 . S
C2636 C2655 1.429 . S
C2636 H2660 0.950 . S
C2637 C2654 1.574 . S
C2637 C2656 1.368 . S
C2637 H2661 0.949 . S
H2638 C2642 0.949 . S
C2639 C2640 1.349 . S
C2639 C2641 1.327 . S
C2639 H2662 0.950 . S
C2640 C2639 1.349 . S
C2640 C2652 1.349 . S
C2641 C2639 1.327 . S
C2641 C2657 1.429 . S
C2641 H2663 0.950 . S
C2642 H2638 0.949 . S
C2642 C2650 1.574 . S
C2642 C2658 1.368 . S
H2643 C2651 0.950 . S
H2644 C2649 0.950 . S
H2645 C2650 0.949 . S
H2646 C2652 0.950 . S
H2647 C2653 0.950 . S
H2648 C2654 0.949 . S
C2649 H2644 0.950 . S
C2649 C2651 1.327 . S
C2649 C2655 1.429 . S
C2650 C2642 1.574 . S
C2650 H2645 0.949 . S
C2650 C2656 1.368 . S
C2651 C2635 1.349 . S
C2651 H2643 0.950 . S
C2651 C2649 1.327 . S
C2652 C2640 1.349 . S
C2652 H2646 0.950 . S
C2652 C2653 1.327 . S
C2653 H2647 0.950 . S
C2653 C2652 1.327 . S
C2653 C2657 1.429 . S
C2654 C2637 1.574 . S
C2654 H2648 0.949 . S
C2654 C2658 1.368 . S
C2655 C2636 1.429 . S
C2655 C2649 1.429 . S
C2655 C2656 1.523 . S
C2656 C2637 1.368 . S
C2656 C2650 1.368 . S
C2656 C2655 1.523 . S
C2657 C2641 1.429 . S
C2657 C2653 1.429 . S
C2657 C2658 1.523 . S
C2658 C2642 1.368 . S
C2658 C2654 1.368 . S
C2658 C2657 1.523 . S
H2659 C2634 0.950 . S
H2660 C2636 0.950 . S
H2661 C2637 0.949 . S
H2662 C2639 0.950 . S
H2663 C2641 0.950 . S
C2664 C2665 1.349 . S
C2664 C2666 1.327 . S
C2664 H2689 0.950 . S
C2665 C2664 1.349 . S
C2665 C2681 1.349 . S
C2666 C2664 1.327 . S
C2666 C2685 1.429 . S
C2666 H2690 0.950 . S
C2667 C2684 1.574 . S
C2667 C2686 1.368 . S
C2667 H2691 0.949 . S
H2668 C2672 0.949 . S
C2669 C2670 1.349 . S
C2669 C2671 1.327 . S
C2669 H2692 0.950 . S
C2670 C2669 1.349 . S
C2670 C2682 1.349 . S
C2671 C2669 1.327 . S
C2671 C2687 1.429 . S
C2671 H2693 0.950 . S
C2672 H2668 0.949 . S
C2672 C2680 1.574 . S
C2672 C2688 1.368 . S
H2673 C2681 0.950 . S
H2674 C2679 0.950 . S
H2675 C2680 0.949 . S
H2676 C2682 0.950 . S
H2677 C2683 0.950 . S
H2678 C2684 0.949 . S
C2679 H2674 0.950 . S
C2679 C2681 1.327 . S
C2679 C2685 1.429 . S
C2680 C2672 1.574 . S
C2680 H2675 0.949 . S
C2680 C2686 1.368 . S
C2681 C2665 1.349 . S
C2681 H2673 0.950 . S
C2681 C2679 1.327 . S
C2682 C2670 1.349 . S
C2682 H2676 0.950 . S
C2682 C2683 1.327 . S
C2683 H2677 0.950 . S
C2683 C2682 1.327 . S
C2683 C2687 1.429 . S
C2684 C2667 1.574 . S
C2684 H2678 0.949 . S
C2684 C2688 1.368 . S
C2685 C2666 1.429 . S
C2685 C2679 1.429 . S
C2685 C2686 1.523 . S
C2686 C2667 1.368 . S
C2686 C2680 1.368 . S
C2686 C2685 1.523 . S
C2687 C2671 1.429 . S
C2687 C2683 1.429 . S
C2687 C2688 1.523 . S
C2688 C2672 1.368 . S
C2688 C2684 1.368 . S
C2688 C2687 1.523 . S
H2689 C2664 0.950 . S
H2690 C2666 0.950 . S
H2691 C2667 0.949 . S
H2692 C2669 0.950 . S
H2693 C2671 0.950 . S
C2694 C2695 1.349 . S
C2694 C2696 1.327 . S
C2694 H2719 0.950 . S
C2695 C2694 1.349 . S
C2695 C2711 1.349 . S
C2696 C2694 1.327 . S
C2696 C2715 1.429 . S
C2696 H2720 0.950 . S
C2697 C2714 1.574 . S
C2697 C2716 1.368 . S
C2697 H2721 0.949 . S
H2698 C2702 0.949 . S
C2699 C2700 1.349 . S
C2699 C2701 1.327 . S
C2699 H2722 0.950 . S
C2700 C2699 1.349 . S
C2700 C2712 1.349 . S
C2701 C2699 1.327 . S
C2701 C2717 1.429 . S
C2701 H2723 0.950 . S
C2702 H2698 0.949 . S
C2702 C2710 1.574 . S
C2702 C2718 1.368 . S
H2703 C2711 0.950 . S
H2704 C2709 0.950 . S
H2705 C2710 0.949 . S
H2706 C2712 0.950 . S
H2707 C2713 0.950 . S
H2708 C2714 0.949 . S
C2709 H2704 0.950 . S
C2709 C2711 1.327 . S
C2709 C2715 1.429 . S
C2710 C2702 1.574 . S
C2710 H2705 0.949 . S
C2710 C2716 1.368 . S
C2711 C2695 1.349 . S
C2711 H2703 0.950 . S
C2711 C2709 1.327 . S
C2712 C2700 1.349 . S
C2712 H2706 0.950 . S
C2712 C2713 1.327 . S
C2713 H2707 0.950 . S
C2713 C2712 1.327 . S
C2713 C2717 1.429 . S
C2714 C2697 1.574 . S
C2714 H2708 0.949 . S
C2714 C2718 1.368 . S
C2715 C2696 1.429 . S
C2715 C2709 1.429 . S
C2715 C2716 1.523 . S
C2716 C2697 1.368 . S
C2716 C2710 1.368 . S
C2716 C2715 1.523 . S
C2717 C2701 1.429 . S
C2717 C2713 1.429 . S
C2717 C2718 1.523 . S
C2718 C2702 1.368 . S
C2718 C2714 1.368 . S
C2718 C2717 1.523 . S
H2719 C2694 0.950 . S
H2720 C2696 0.950 . S
H2721 C2697 0.949 . S
H2722 C2699 0.950 . S
H2723 C2701 0.950 . S
C570 C270 1.551 . S
C565 C260 1.480 . S
C595 C238 1.488 . S
C600 C268 1.551 . S
C630 C269 1.551 . S
C625 C227 1.497 . S
C655 C249 1.488 . S
C660 C271 1.551 . S
C690 C315 1.623 . S
C685 C183 1.546 . S
C720 C375 1.483 . S
C715 C194 1.419 . S
C745 C205 1.555 . S
C750 C314 1.623 . S
C780 C374 1.483 . S
C775 C216 1.412 . S
C805 C139 1.555 . S
C810 C316 1.632 . S
C840 C372 1.483 . S
C835 C150 1.422 . S
C865 C161 1.555 . S
C870 C317 1.623 . S
C895 C172 1.420 . S
C900 C373 1.492 . S
C930 C423 1.551 . S
C925 C128 1.488 . S
C955 C106 1.488 1_554 S
C960 C422 1.551 . S
C985 C95 1.488 . S
C990 C424 1.551 . S
C1020 C425 1.551 . S
C1015 C117 1.488 1_554 S
C1045 C51 1.555 1_455 S
C1050 C466 1.623 . S
C1075 C62 1.420 . S
C1080 C525 1.483 . S
C1105 C73 1.555 . S
C1110 C464 1.623 . S
C1135 C84 1.420 1_545 S
C1140 C524 1.483 . S
C1170 C465 1.623 . S
C1165 C7 1.555 1_455 S
C1200 C522 1.483 . S
C1195 C18 1.420 . S
C1225 C29 1.555 . S
C1230 C467 1.623 . S
C1260 C523 1.483 . S
C1255 C40 1.420 1_545 S
C1290 C267 1.529 . S
C1285 C8 1.462 1_455 S
C1315 C16 1.149 . S
C1320 C273 1.384 . S
C1345 C30 1.468 . S
C1350 C265 1.533 . S
C1375 C38 1.149 1_545 S
C1380 C272 1.375 . S
C1405 C52 1.468 1_455 S
C1410 C264 1.533 . S
C1440 C274 1.379 . S
C1435 C60 1.144 . S
C1465 C74 1.468 . S
C1470 C266 1.524 . S
C1500 C275 1.379 . S
C1495 C82 1.153 1_545 S
C1530 C321 1.262 . S
C1525 C41 1.205 1_545 S
C1555 C5 1.385 1_455 S
C1560 C364 1.652 . S
C1590 C319 1.262 . S
C1585 C19 1.205 . S
C1620 C366 1.656 . S
C1615 C27 1.380 . S
C1645 C63 1.210 . S
C1650 C320 1.266 . S
C1680 C365 1.657 . S
C1675 C71 1.389 . S
C1710 C318 1.262 . S
C1705 C85 1.215 1_545 S
C1740 C367 1.656 . S
C1735 C49 1.389 1_455 S
C1770 C371 1.471 . S
C1765 C93 1.217 . S
C1795 C104 1.222 1_554 S
C1800 C370 1.467 . S
C1830 C322 1.439 . S
C1825 C96 1.377 . S
C1860 C369 1.471 . S
C1855 C115 1.226 1_554 S
C1885 C129 1.383 . S
C1890 C325 1.443 . S
C1915 C126 1.222 . S
C1920 C368 1.475 . S
C1950 C324 1.439 . S
C1945 C107 1.388 1_554 S
C1980 C323 1.439 . S
C1975 C118 1.377 1_554 S
C2010 C417 1.529 . S
C2005 C140 1.471 . S
C2040 C420 1.379 . S
C2035 C148 1.151 . S
C2065 C162 1.468 . S
C2070 C416 1.533 . S
C2100 C418 1.379 . S
C2095 C170 1.151 . S
C2130 C414 1.529 . S
C2125 C184 1.464 . S
C2155 C192 1.149 . S
C2160 C419 1.375 . S
C2185 C206 1.468 . S
C2190 C415 1.524 . S
C2220 C421 1.379 . S
C2215 C214 1.147 . S
C2250 C475 1.262 . S
C2245 C173 1.213 . S
C2275 C137 1.385 . S
C2280 C514 1.661 . S
C2310 C474 1.262 . S
C2305 C151 1.207 . S
C2340 C516 1.656 . S
C2335 C159 1.382 . S
C2370 C473 1.262 . S
C2365 C195 1.213 . S
C2395 C203 1.385 . S
C2400 C515 1.661 . S
C2430 C472 1.262 . S
C2425 C217 1.207 . S
C2460 C517 1.656 . S
C2455 C181 1.382 . S
C2490 C521 1.471 . S
C2485 C225 1.224 . S
C2515 C236 1.222 . S
C2520 C520 1.466 . S
C2550 C468 1.439 . S
C2545 C228 1.386 . S
C2575 C247 1.222 . S
C2580 C519 1.476 . S
C2610 C471 1.439 . S
C2605 C261 1.380 . S
C2640 C518 1.471 . S
C2635 C258 1.219 . S
C2670 C469 1.439 . S
C2665 C239 1.386 . S
C2695 C250 1.383 . S
C2700 C470 1.435 . S
