# Generated by pormake.
# Topology pyr, (3,6)-cn, num edge types: 1
# Building blocks:
#     Node 0, Type 0, BuildingBlock: WUSLED_clean_sbu_0, # of connection points: 3
#     Node 1, Type 0, BuildingBlock: WUSLED_clean_sbu_0, # of connection points: 3
#     Node 2, Type 0, BuildingBlock: WUSLED_clean_sbu_0, # of connection points: 3
#     Node 3, Type 0, BuildingBlock: WUSLED_clean_sbu_0, # of connection points: 3
#     Node 4, Type 0, BuildingBlock: WUSLED_clean_sbu_0, # of connection points: 3
#     Node 5, Type 0, BuildingBlock: WUSLED_clean_sbu_0, # of connection points: 3
#     Node 6, Type 0, BuildingBlock: WUSLED_clean_sbu_0, # of connection points: 3
#     Node 7, Type 0, BuildingBlock: WUSLED_clean_sbu_0, # of connection points: 3
#     Node 8, Type 1, BuildingBlock: MIFKUJ_clean_sbu_0, # of connection points: 6
#     Node 9, Type 1, BuildingBlock: MIFKUJ_clean_sbu_0, # of connection points: 6
#     Node 10, Type 1, BuildingBlock: MIFKUJ_clean_sbu_0, # of connection points: 6
#     Node 11, Type 1, BuildingBlock: MIFKUJ_clean_sbu_0, # of connection points: 6
#     Edge 12, Type (0, 1), None
#     Edge 13, Type (0, 1), None
#     Edge 14, Type (0, 1), None
#     Edge 15, Type (0, 1), None
#     Edge 16, Type (0, 1), None
#     Edge 17, Type (0, 1), None
#     Edge 18, Type (0, 1), None
#     Edge 19, Type (0, 1), None
#     Edge 20, Type (0, 1), None
#     Edge 21, Type (0, 1), None
#     Edge 22, Type (0, 1), None
#     Edge 23, Type (0, 1), None
#     Edge 24, Type (0, 1), None
#     Edge 25, Type (0, 1), None
#     Edge 26, Type (0, 1), None
#     Edge 27, Type (0, 1), None
#     Edge 28, Type (0, 1), None
#     Edge 29, Type (0, 1), None
#     Edge 30, Type (0, 1), None
#     Edge 31, Type (0, 1), None
#     Edge 32, Type (0, 1), None
#     Edge 33, Type (0, 1), None
#     Edge 34, Type (0, 1), None
#     Edge 35, Type (0, 1), None
# Relax obj value: 0.032
# Max RMSD: 0.090
# Mean RMSD: 0.050
data_MOF--net-pyr--node1-WUSLED_clean_sbu_0--node2-MIFKUJ_clean_sbu_0--edge1-none
_symmetry_space_group_name_H-M    P1
_symmetry_Int_Tables_number       1
_symmetry_cell_setting            triclinic
loop_
_symmetry_equiv_pos_as_xyz
'x, y, z'
_cell_length_a     30.473154
_cell_length_b     26.746578
_cell_length_c     26.865543
_cell_angle_alpha  84.27809
_cell_angle_beta   88.852036
_cell_angle_gamma 96.670706
loop_
_atom_site_label
_atom_site_type_symbol
_atom_site_fract_x
_atom_site_fract_y
_atom_site_fract_z
_atom_type_partial_charge
C0 C 0.1247 0.28002 0.21266 0.0
C1 C 0.08544 0.30079 0.2211 0.0
C2 C 0.10504 0.36598 0.15197 0.0
C3 C 0.07561 0.34343 0.19097 0.0
C4 C 0.14399 0.34425 0.14298 0.0
C5 C 0.15374 0.30154 0.17313 0.0
U6 U 0.19698 0.17585 0.25192 0.0
O7 O 0.2206 0.15843 0.17854 0.0
O8 O 0.26285 0.20915 0.22181 0.0
C9 C 0.25964 0.18423 0.18197 0.0
C10 C 0.1355 0.23706 0.24645 0.0
C11 C 0.29741 0.15736 0.17044 0.0
C12 C 0.35653 0.1451 0.11252 0.0
C13 C 0.32182 0.17168 0.12551 0.0
C14 C 0.34313 0.08978 0.18974 0.0
C15 C 0.36742 0.10362 0.14433 0.0
C16 C 0.30834 0.1164 0.20265 0.0
C17 C 0.15853 0.09463 0.36978 0.0
C18 C 0.13895 0.06394 0.45646 0.0
C19 C 0.08244 0.08982 0.40057 0.0
C20 C 0.1143 0.10249 0.36193 0.0
C21 C 0.09426 0.0698 0.44813 0.0
C22 C 0.17079 0.07605 0.41748 0.0
C23 C 0.19179 0.10664 0.32846 0.0
O24 O 0.17194 0.24543 0.27121 0.0
O25 O 0.13122 0.19306 0.22815 0.0
O26 O 0.21612 0.1506 0.32822 0.0
O27 O 0.17743 0.09749 0.28403 0.0
H28 H 0.0627 0.28448 0.25152 0.0
H29 H 0.04535 0.35921 0.19886 0.0
H30 H 0.16731 0.36065 0.11319 0.0
H31 H 0.18421 0.28577 0.16614 0.0
H32 H 0.37457 0.15685 0.07736 0.0
H33 H 0.31369 0.20314 0.10014 0.0
H34 H 0.35064 0.05807 0.21512 0.0
H35 H 0.28966 0.10473 0.23744 0.0
H36 H 0.14913 0.04846 0.49264 0.0
H37 H 0.04842 0.09513 0.39298 0.0
H38 H 0.10421 0.1178 0.32564 0.0
H39 H 0.20484 0.07035 0.4244 0.0
C40 C 0.22261 0.87571 0.68225 0.0
C41 C 0.21801 0.91354 0.71391 0.0
C42 C 0.15273 0.93582 0.67 0.0
C43 C 0.18333 0.94335 0.70787 0.0
C44 C 0.15705 0.89708 0.63905 0.0
C45 C 0.19177 0.86732 0.64514 0.0
U46 U 0.3285 0.84582 0.74454 0.0
O47 O 0.35272 0.77293 0.76731 0.0
O48 O 0.39106 0.82809 0.71236 0.0
C49 C 0.38703 0.78226 0.73594 0.0
C50 C 0.26001 0.84575 0.68691 0.0
C51 C 0.39411 0.7417 0.70486 0.0
C52 C 0.3707 0.68794 0.64034 0.0
C53 C 0.36356 0.72722 0.66911 0.0
C54 C 0.43919 0.6778 0.68254 0.0
C55 C 0.40851 0.66263 0.64694 0.0
C56 C 0.43198 0.71701 0.71124 0.0
C57 C 0.37533 0.9159 0.84933 0.0
C58 C 0.43288 0.8818 0.89876 0.0
C59 C 0.41853 0.96846 0.90368 0.0
C60 C 0.385 0.9623 0.86915 0.0
C61 C 0.44265 0.92813 0.91899 0.0
C62 C 0.39974 0.87585 0.86403 0.0
C63 C 0.34069 0.90938 0.81247 0.0
O64 O 0.29884 0.87094 0.67381 0.0
O65 O 0.2604 0.81599 0.72887 0.0
O66 O 0.31441 0.86653 0.8198 0.0
O67 O 0.35425 0.92098 0.76555 0.0
H68 H 0.24161 0.92043 0.74282 0.0
H69 H 0.181 0.97282 0.73234 0.0
H70 H 0.13412 0.8903 0.6095 0.0
H71 H 0.19488 0.8382 0.62043 0.0
H72 H 0.34643 0.67718 0.61327 0.0
H73 H 0.33415 0.74608 0.66372 0.0
H74 H 0.4686 0.65912 0.68859 0.0
H75 H 0.45591 0.7279 0.73867 0.0
H76 H 0.45097 0.85008 0.90955 0.0
H77 H 0.42527 1.00459 0.91869 0.0
H78 H 0.36667 0.9937 0.8579 0.0
H79 H 0.39313 0.83988 0.84865 0.0
C80 C 0.57788 0.38635 0.75093 0.0
C81 C 0.6037 0.39453 0.70621 0.0
C82 C 0.54964 0.44453 0.66608 0.0
C83 C 0.58968 0.42317 0.66427 0.0
C84 C 0.52451 0.43744 0.7113 0.0
C85 C 0.53839 0.40849 0.7531 0.0
U86 U 0.65569 0.34651 0.85563 0.0
O87 O 0.63992 0.3135 0.93313 0.0
O88 O 0.6732 0.27073 0.8811 0.0
C89 C 0.65453 0.27038 0.92566 0.0
C90 C 0.58985 0.35247 0.79443 0.0
C91 C 0.62579 0.22373 0.94408 0.0
C92 C 0.55332 0.17551 0.96107 0.0
C93 C 0.57953 0.2201 0.94175 0.0
C94 C 0.61938 0.1376 0.98429 0.0
C95 C 0.573 0.1338 0.98282 0.0
C96 C 0.64542 0.18209 0.96519 0.0
C97 C 0.76725 0.42803 0.86897 0.0
C98 C 0.81246 0.43931 0.94181 0.0
C99 C 0.84504 0.46067 0.85835 0.0
C100 C 0.80441 0.44572 0.83789 0.0
C101 C 0.84945 0.4585 0.91053 0.0
C102 C 0.77168 0.42413 0.9212 0.0
C103 C 0.72424 0.41636 0.84562 0.0
O104 O 0.62266 0.32578 0.78739 0.0
O105 O 0.59051 0.37092 0.83803 0.0
O106 O 0.68852 0.42023 0.8726 0.0
O107 O 0.72045 0.37671 0.82012 0.0
H108 H 0.63436 0.37808 0.70319 0.0
H109 H 0.61 0.42797 0.63019 0.0
H110 H 0.49347 0.45317 0.71414 0.0
H111 H 0.51773 0.40257 0.78696 0.0
H112 H 0.51774 0.17385 0.95924 0.0
H113 H 0.56368 0.25177 0.92535 0.0
H114 H 0.63574 0.1063 1.00064 0.0
H115 H 0.68105 0.18411 0.96724 0.0
H116 H 0.81472 0.43711 0.98213 0.0
H117 H 0.87276 0.4751 0.83306 0.0
H118 H 0.8018 0.44899 0.79755 0.0
H119 H 0.74352 0.41032 0.94607 0.0
C120 C 0.74779 0.63848 0.40518 0.0
C121 C 0.72862 0.63629 0.45324 0.0
C122 C 0.66868 0.57532 0.43082 0.0
C123 C 0.68941 0.60483 0.46608 0.0
C124 C 0.68818 0.57745 0.38266 0.0
C125 C 0.72762 0.60863 0.37001 0.0
U126 U 0.85565 0.67455 0.32902 0.0
O127 O 0.87206 0.59937 0.31477 0.0
O128 O 0.8379 0.64409 0.25793 0.0
C129 C 0.85728 0.60313 0.26902 0.0
C130 C 0.78884 0.67191 0.39252 0.0
C131 C 0.88593 0.58872 0.22923 0.0
C132 C 0.89278 0.56119 0.14619 0.0
C133 C 0.86724 0.57747 0.18379 0.0
C134 C 0.95635 0.567 0.19894 0.0
C135 C 0.93758 0.55542 0.15342 0.0
C136 C 0.93082 0.58364 0.23645 0.0
C137 C 0.92028 0.79196 0.36107 0.0
C138 C 0.95338 0.87362 0.38245 0.0
C139 C 0.88931 0.83015 0.43009 0.0
C140 C 0.88858 0.7905 0.39999 0.0
C141 C 0.92169 0.87218 0.4217 0.0
C142 C 0.95266 0.83372 0.35234 0.0
C143 C 0.91809 0.75023 0.32929 0.0
O144 O 0.79099 0.69739 0.34792 0.0
O145 O 0.8253 0.65223 0.40413 0.0
O146 O 0.88595 0.74998 0.29735 0.0
O147 O 0.92076 0.70552 0.35353 0.0
H148 H 0.74396 0.659 0.48083 0.0
H149 H 0.67517 0.604 0.50347 0.0
H150 H 0.67312 0.55494 0.3548 0.0
H151 H 0.74227 0.60958 0.33279 0.0
H152 H 0.8772 0.55263 0.11167 0.0
H153 H 0.83263 0.58082 0.17754 0.0
H154 H 0.99082 0.5633 0.20566 0.0
H155 H 0.94614 0.59209 0.27114 0.0
H156 H 0.9788 0.9055 0.37502 0.0
H157 H 0.86442 0.82784 0.45985 0.0
H158 H 0.86312 0.75862 0.40701 0.0
H159 H 0.97719 0.83553 0.32226 0.0
C160 C 0.88302 0.7442 0.87796 0.0
C161 C 0.92242 0.72363 0.86974 0.0
C162 C 0.903 0.65869 0.93914 0.0
C163 C 0.93242 0.68122 0.90011 0.0
C164 C 0.86389 0.6802 0.94787 0.0
C165 C 0.85398 0.72269 0.91748 0.0
U166 U 0.81052 0.84805 0.83844 0.0
O167 O 0.74468 0.81472 0.86861 0.0
O168 O 0.78694 0.86547 0.91183 0.0
C169 C 0.74791 0.83961 0.90846 0.0
C170 C 0.87213 0.78701 0.84402 0.0
C171 C 0.71013 0.8664 0.92015 0.0
C172 C 0.65128 0.87864 0.97843 0.0
C173 C 0.68591 0.85206 0.9652 0.0
C174 C 0.66434 0.93398 0.90119 0.0
C175 C 0.64027 0.92015 0.94675 0.0
C176 C 0.69907 0.90736 0.88804 0.0
C177 C 0.84888 0.92939 0.72057 0.0
C178 C 0.86848 0.96045 0.63398 0.0
C179 C 0.92503 0.93464 0.68985 0.0
C180 C 0.89314 0.92169 0.72843 0.0
C181 C 0.91321 0.95479 0.64234 0.0
C182 C 0.83662 0.94806 0.67291 0.0
C183 C 0.81562 0.91723 0.76187 0.0
O184 O 0.87635 0.83108 0.86217 0.0
O185 O 0.83569 0.77848 0.81929 0.0
O186 O 0.82992 0.92643 0.80631 0.0
O187 O 0.79139 0.87321 0.7621 0.0
H188 H 0.94518 0.73995 0.83933 0.0
H189 H 0.96279 0.66561 0.8924 0.0
H190 H 0.84057 0.66381 0.97767 0.0
H191 H 0.82341 0.7383 0.92431 0.0
H192 H 0.63341 0.86688 1.01369 0.0
H193 H 0.69414 0.8206 0.99049 0.0
H194 H 0.65673 0.96572 0.8759 0.0
H195 H 0.7176 0.91906 0.85316 0.0
H196 H 0.85829 0.97601 0.59784 0.0
H197 H 0.95908 0.92946 0.69745 0.0
H198 H 0.90325 0.90633 0.76469 0.0
H199 H 0.80254 0.95365 0.66598 0.0
C200 C 0.63175 0.10961 0.24382 0.0
C201 C 0.62261 0.06322 0.22385 0.0
C202 C 0.56476 0.09675 0.17387 0.0
C203 C 0.58925 0.05674 0.18918 0.0
C204 C 0.57397 0.14306 0.19429 0.0
C205 C 0.60695 0.14932 0.22917 0.0
U206 U 0.67848 0.17999 0.34866 0.0
O207 O 0.61594 0.1973 0.38129 0.0
O208 O 0.65385 0.25272 0.32622 0.0
C209 C 0.61973 0.24318 0.35784 0.0
C210 C 0.66638 0.11648 0.28065 0.0
C211 C 0.6128 0.2836 0.38916 0.0
C212 C 0.56784 0.34737 0.4121 0.0
C213 C 0.57485 0.30822 0.38322 0.0
C214 C 0.63665 0.33725 0.45361 0.0
C215 C 0.59879 0.36253 0.44742 0.0
C216 C 0.6436 0.29805 0.42466 0.0
C217 C 0.78476 0.15046 0.41006 0.0
C218 C 0.85053 0.12894 0.45272 0.0
C219 C 0.82395 0.08303 0.38378 0.0
C220 C 0.78924 0.11282 0.37813 0.0
C221 C 0.85471 0.09036 0.42152 0.0
C222 C 0.81577 0.15869 0.44702 0.0
C223 C 0.74726 0.18029 0.40583 0.0
O224 O 0.69238 0.15953 0.27326 0.0
O225 O 0.65294 0.10478 0.32759 0.0
O226 O 0.70854 0.15493 0.41914 0.0
O227 O 0.74657 0.21015 0.36398 0.0
H228 H 0.64126 0.03209 0.23505 0.0
H229 H 0.58295 0.02064 0.17403 0.0
H230 H 0.55558 0.17452 0.18351 0.0
H231 H 0.61317 0.18527 0.24466 0.0
H232 H 0.53838 0.36603 0.40637 0.0
H233 H 0.55073 0.29736 0.35599 0.0
H234 H 0.66114 0.34801 0.48046 0.0
H235 H 0.67307 0.27923 0.42972 0.0
H236 H 0.87359 0.13557 0.48217 0.0
H237 H 0.82616 0.05369 0.35913 0.0
H238 H 0.7655 0.10604 0.34933 0.0
H239 H 0.81276 0.18766 0.47193 0.0
C240 C 0.24121 0.59639 0.22404 0.0
C241 C 0.23701 0.60034 0.17178 0.0
C242 C 0.15917 0.56611 0.18199 0.0
C243 C 0.19631 0.58525 0.15093 0.0
C244 C 0.16336 0.56386 0.23421 0.0
C245 C 0.2039 0.57872 0.25491 0.0
U246 U 0.35267 0.67792 0.23779 0.0
O247 O 0.38534 0.69897 0.30614 0.0
O248 O 0.41779 0.65365 0.25594 0.0
C249 C 0.41825 0.67233 0.29942 0.0
C250 C 0.28409 0.60809 0.24766 0.0
C251 C 0.43022 0.63874 0.34316 0.0
C252 C 0.41894 0.60324 0.43029 0.0
C253 C 0.40486 0.63162 0.3882 0.0
C254 C 0.48329 0.58724 0.38283 0.0
C255 C 0.45859 0.58114 0.42833 0.0
C256 C 0.46934 0.61589 0.34088 0.0
C257 C 0.3829 0.80037 0.14889 0.0
C258 C 0.45539 0.8484 0.13135 0.0
C259 C 0.38929 0.88654 0.10881 0.0
C260 C 0.36325 0.84211 0.12806 0.0
C261 C 0.43568 0.89019 0.10985 0.0
C262 C 0.42918 0.80386 0.15082 0.0
C263 C 0.35413 0.75376 0.1674 0.0
O264 O 0.31994 0.6041 0.22096 0.0
O265 O 0.28777 0.64785 0.27301 0.0
O266 O 0.33524 0.75361 0.21181 0.0
O267 O 0.36879 0.71059 0.16026 0.0
H268 H 0.26527 0.61415 0.14707 0.0
H269 H 0.19423 0.5875 0.11059 0.0
H270 H 0.13553 0.54946 0.25934 0.0
H271 H 0.20633 0.57543 0.29527 0.0
H272 H 0.39896 0.59924 0.46458 0.0
H273 H 0.37453 0.64868 0.39135 0.0
H274 H 0.51401 0.5709 0.37986 0.0
H275 H 0.48968 0.62101 0.30678 0.0
H276 H 0.49098 0.84995 0.13285 0.0
H277 H 0.37291 0.91792 0.09267 0.0
H278 H 0.32761 0.84021 0.12631 0.0
H279 H 0.44505 0.77211 0.167 0.0
C280 C 0.0868 0.23361 0.72956 0.0
C281 C 0.11857 0.23504 0.69071 0.0
C282 C 0.08525 0.15358 0.66866 0.0
C283 C 0.11777 0.19549 0.66047 0.0
C284 C 0.05345 0.1522 0.70779 0.0
C285 C 0.05425 0.19201 0.73803 0.0
U286 U 0.15212 0.35016 0.76264 0.0
O287 O 0.1363 0.42548 0.77718 0.0
O288 O 0.16982 0.38002 0.83402 0.0
C289 C 0.15092 0.42133 0.82298 0.0
C290 C 0.08917 0.27515 0.7616 0.0
C291 C 0.12241 0.43603 0.86274 0.0
C292 C 0.05215 0.45816 0.89303 0.0
C293 C 0.07754 0.44124 0.85557 0.0
C294 C 0.11583 0.46399 0.94562 0.0
C295 C 0.07105 0.46988 0.93846 0.0
C296 C 0.14122 0.44743 0.90806 0.0
C297 C 0.26038 0.3858 0.68742 0.0
C298 C 0.31967 0.4468 0.71069 0.0
C299 C 0.31919 0.41972 0.62716 0.0
C300 C 0.27995 0.38816 0.63954 0.0
C301 C 0.33954 0.44918 0.6627 0.0
C302 C 0.28021 0.41552 0.72289 0.0
C303 C 0.21916 0.35253 0.69953 0.0
O304 O 0.12111 0.27484 0.79375 0.0
O305 O 0.08695 0.32006 0.73757 0.0
O306 O 0.1829 0.37257 0.68777 0.0
O307 O 0.21662 0.32674 0.74399 0.0
H308 H 0.14418 0.2668 0.68389 0.0
H309 H 0.14274 0.19775 0.63082 0.0
H310 H 0.02792 0.12042 0.71506 0.0
H311 H 0.02966 0.19021 0.76804 0.0
H312 H 0.01768 0.46193 0.88637 0.0
H313 H 0.06212 0.43267 0.82096 0.0
H314 H 0.13151 0.47265 0.98006 0.0
H315 H 0.17583 0.44398 0.91425 0.0
H316 H 0.33444 0.46926 0.73876 0.0
H317 H 0.33371 0.42073 0.58988 0.0
H318 H 0.26486 0.36556 0.61172 0.0
H319 H 0.26524 0.41445 0.75997 0.0
Zn320 Zn 0.05001 0.01502 0.60247 0.0
Zn321 Zn 0.95733 0.01046 0.48819 0.0
C322 C 0.08441 0.11178 0.63639 0.0
O323 O 0.11266 0.11435 0.59836 0.0
C324 C 0.92257 0.91398 0.45398 0.0
O325 O 0.89449 0.91131 0.49218 0.0
O326 O 0.09179 0.96446 0.62532 0.0
O327 O 0.98723 0.98429 0.61673 0.0
O328 O 0.93664 0.98346 0.5584 0.0
C329 C 0.11806 0.96994 0.6611 0.0
O330 O 0.11656 1.00861 0.68735 0.0
O331 O 0.05602 0.07308 0.64506 0.0
C332 C 0.88936 0.05618 0.43006 0.0
O333 O 0.89071 0.01764 0.40359 0.0
O334 O 0.91572 0.06138 0.4658 0.0
O335 O 0.02019 0.04076 0.47391 0.0
O336 O 0.07083 0.04162 0.53218 0.0
O337 O 0.95098 0.95266 0.44529 0.0
C338 C 0.94782 0.9736 0.60327 0.0
C339 C 0.05964 0.05133 0.48729 0.0
Zn340 Zn 0.53573 0.97843 1.0243 0.0
Zn341 Zn 0.47268 0.0456 0.06789 0.0
C342 C 0.47736 0.93365 0.95639 0.0
O343 O 0.49409 0.89361 0.97672 0.0
C344 C 0.5303 0.09092 0.13623 0.0
O345 O 0.51334 0.13077 0.11581 0.0
O346 O 0.58405 0.93813 1.0037 0.0
O347 O 0.56448 0.05024 1.0251 0.0
O348 O 0.50375 0.08357 1.00555 0.0
C349 C 0.60437 0.94924 0.96149 0.0
O350 O 0.59355 0.98738 0.93142 0.0
O351 O 0.49074 0.97669 0.9703 0.0
C352 C 0.40346 0.07459 0.1299 0.0
O353 O 0.41413 0.03644 0.16006 0.0
O354 O 0.42411 0.08582 0.0879 0.0
O355 O 0.44412 0.97367 0.0674 0.0
O356 O 0.5049 0.94033 0.0867 0.0
O357 O 0.51737 0.04781 0.12218 0.0
C358 C 0.54574 0.08684 1.00478 0.0
C359 C 0.46291 0.9371 0.08769 0.0
Zn360 Zn 0.55489 0.49197 0.50435 0.0
Zn361 Zn 0.45325 0.53357 0.59006 0.0
C362 C 0.62685 0.54271 0.44414 0.0
O363 O 0.60423 0.52068 0.40954 0.0
C364 C 0.3813 0.48205 0.64978 0.0
O365 O 0.40362 0.504 0.68464 0.0
O366 O 0.559 0.42954 0.46932 0.0
O367 O 0.55269 0.47059 0.57857 0.0
O368 O 0.49898 0.49449 0.62428 0.0
C369 C 0.5923 0.40545 0.47644 0.0
O370 O 0.62212 0.42092 0.50795 0.0
O371 O 0.6121 0.53589 0.48915 0.0
C372 C 0.41527 0.61973 0.61799 0.0
O373 O 0.38567 0.60423 0.58625 0.0
O374 O 0.44864 0.59579 0.62528 0.0
O375 O 0.45554 0.55518 0.51588 0.0
O376 O 0.50923 0.53119 0.4702 0.0
O377 O 0.39621 0.48925 0.60485 0.0
C378 C 0.53327 0.47207 0.62058 0.0
C379 C 0.475 0.5537 0.47388 0.0
Zn380 Zn 0.9515 0.52345 0.99759 0.0
Zn381 Zn 0.05719 0.50187 0.09432 0.0
C382 C 0.89172 0.4794 0.93131 0.0
O383 O 0.92389 0.50194 0.90082 0.0
C384 C 0.11695 0.54537 0.16097 0.0
O385 O 0.08466 0.52283 0.19128 0.0
O386 O 0.94669 0.59142 0.96045 0.0
O387 O 0.94839 0.53494 0.07044 0.0
O388 O 1.00345 0.52773 0.12278 0.0
C389 C 0.912 0.61178 0.9691 0.0
O390 O 0.88272 0.58866 1.00282 0.0
O391 O 0.89625 0.48041 0.97823 0.0
C392 C 0.09623 0.41314 0.12229 0.0
O393 O 0.12551 0.43621 0.08855 0.0
O394 O 0.06173 0.43372 0.13122 0.0
O395 O 0.06039 0.49047 1.02143 0.0
O396 O 0.00527 0.49767 0.96917 0.0
O397 O 0.11253 0.54458 0.114 0.0
C398 C 0.96452 0.53791 0.11347 0.0
C399 C 0.04422 0.48752 0.97841 0.0
loop_
_geom_bond_atom_site_label_1
_geom_bond_atom_site_label_2
_geom_bond_distance
_geom_bond_site_symmetry_2
_ccdc_geom_bond_type
C0 C1 1.264 . S
C0 C5 1.479 . S
C0 C10 1.465 . S
C1 C0 1.264 . S
C1 C3 1.339 . S
C1 H28 0.931 . S
C2 C3 1.395 . S
C2 C4 1.320 . S
C3 C1 1.339 . S
C3 C2 1.395 . S
C3 H29 0.929 . S
C4 C2 1.320 . S
C4 C5 1.405 . S
C4 H30 0.930 . S
C5 C0 1.479 . S
C5 C4 1.405 . S
C5 H31 0.931 . S
U6 O7 2.454 . S
U6 O8 2.458 . S
U6 C9 2.984 . S
U6 C10 2.847 . S
U6 C23 2.882 . S
U6 O24 2.441 . S
U6 O25 2.420 . S
U6 O26 2.455 . S
U6 O27 2.449 . S
O7 U6 2.454 . S
O7 C9 1.353 . S
O8 U6 2.458 . S
O8 C9 1.286 . S
C9 U6 2.984 . S
C9 O7 1.353 . S
C9 O8 1.286 . S
C9 C11 1.363 . S
C10 C0 1.465 . S
C10 U6 2.847 . S
C10 O24 1.249 . S
C10 O25 1.202 . S
C11 C9 1.363 . S
C11 C13 1.408 . S
C11 C16 1.342 . S
C12 C13 1.310 . S
C12 C15 1.461 . S
C12 H32 0.932 . S
C13 C11 1.408 . S
C13 C12 1.310 . S
C13 H33 0.930 . S
C14 C15 1.474 . S
C14 C16 1.285 . S
C14 H34 0.929 . S
C15 C12 1.461 . S
C15 C14 1.474 . S
C16 C11 1.342 . S
C16 C14 1.285 . S
C16 H35 0.930 . S
C17 C20 1.424 . S
C17 C22 1.245 . S
C17 C23 1.428 . S
C18 C21 1.260 . S
C18 C22 1.477 . S
C18 H36 0.932 . S
C19 C20 1.384 . S
C19 C21 1.479 . S
C19 H37 0.929 . S
C20 C17 1.424 . S
C20 C19 1.384 . S
C20 H38 0.928 . S
C21 C18 1.260 . S
C21 C19 1.479 . S
C22 C17 1.245 . S
C22 C18 1.477 . S
C22 H39 0.932 . S
C23 U6 2.882 . S
C23 C17 1.428 . S
C23 O26 1.301 . S
C23 O27 1.282 . S
O24 U6 2.441 . S
O24 C10 1.249 . S
O25 U6 2.420 . S
O25 C10 1.202 . S
O26 U6 2.455 . S
O26 C23 1.301 . S
O27 U6 2.449 . S
O27 C23 1.282 . S
H28 C1 0.931 . S
H29 C3 0.929 . S
H30 C4 0.930 . S
H31 C5 0.931 . S
H32 C12 0.932 . S
H33 C13 0.930 . S
H34 C14 0.929 . S
H35 C16 0.930 . S
H36 C18 0.932 . S
H37 C19 0.929 . S
H38 C20 0.928 . S
H39 C22 0.932 . S
C40 C41 1.264 . S
C40 C45 1.479 . S
C40 C50 1.465 . S
C41 C40 1.264 . S
C41 C43 1.339 . S
C41 H68 0.931 . S
C42 C43 1.395 . S
C42 C44 1.320 . S
C43 C41 1.339 . S
C43 C42 1.395 . S
C43 H69 0.929 . S
C44 C42 1.320 . S
C44 C45 1.405 . S
C44 H70 0.930 . S
C45 C40 1.479 . S
C45 C44 1.405 . S
C45 H71 0.931 . S
U46 O47 2.454 . S
U46 O48 2.458 . S
U46 C49 2.984 . S
U46 C50 2.847 . S
U46 C63 2.882 . S
U46 O64 2.441 . S
U46 O65 2.420 . S
U46 O66 2.455 . S
U46 O67 2.449 . S
O47 U46 2.454 . S
O47 C49 1.353 . S
O48 U46 2.458 . S
O48 C49 1.286 . S
C49 U46 2.984 . S
C49 O47 1.353 . S
C49 O48 1.286 . S
C49 C51 1.363 . S
C50 C40 1.465 . S
C50 U46 2.847 . S
C50 O64 1.249 . S
C50 O65 1.202 . S
C51 C49 1.363 . S
C51 C53 1.408 . S
C51 C56 1.342 . S
C52 C53 1.310 . S
C52 C55 1.461 . S
C52 H72 0.932 . S
C53 C51 1.408 . S
C53 C52 1.310 . S
C53 H73 0.930 . S
C54 C55 1.474 . S
C54 C56 1.285 . S
C54 H74 0.929 . S
C55 C52 1.461 . S
C55 C54 1.474 . S
C56 C51 1.342 . S
C56 C54 1.285 . S
C56 H75 0.930 . S
C57 C60 1.424 . S
C57 C62 1.245 . S
C57 C63 1.428 . S
C58 C61 1.260 . S
C58 C62 1.477 . S
C58 H76 0.932 . S
C59 C60 1.384 . S
C59 C61 1.479 . S
C59 H77 0.929 . S
C60 C57 1.424 . S
C60 C59 1.384 . S
C60 H78 0.928 . S
C61 C58 1.260 . S
C61 C59 1.479 . S
C62 C57 1.245 . S
C62 C58 1.477 . S
C62 H79 0.932 . S
C63 U46 2.882 . S
C63 C57 1.428 . S
C63 O66 1.301 . S
C63 O67 1.282 . S
O64 U46 2.441 . S
O64 C50 1.249 . S
O65 U46 2.420 . S
O65 C50 1.202 . S
O66 U46 2.455 . S
O66 C63 1.301 . S
O67 U46 2.449 . S
O67 C63 1.282 . S
H68 C41 0.931 . S
H69 C43 0.929 . S
H70 C44 0.930 . S
H71 C45 0.931 . S
H72 C52 0.932 . S
H73 C53 0.930 . S
H74 C54 0.929 . S
H75 C56 0.930 . S
H76 C58 0.932 . S
H77 C59 0.929 . S
H78 C60 0.928 . S
H79 C62 0.932 . S
C80 C81 1.264 . S
C80 C85 1.479 . S
C80 C90 1.465 . S
C81 C80 1.264 . S
C81 C83 1.339 . S
C81 H108 0.931 . S
C82 C83 1.395 . S
C82 C84 1.320 . S
C83 C81 1.339 . S
C83 C82 1.395 . S
C83 H109 0.929 . S
C84 C82 1.320 . S
C84 C85 1.405 . S
C84 H110 0.930 . S
C85 C80 1.479 . S
C85 C84 1.405 . S
C85 H111 0.931 . S
U86 O87 2.454 . S
U86 O88 2.458 . S
U86 C89 2.984 . S
U86 C90 2.847 . S
U86 C103 2.882 . S
U86 O104 2.441 . S
U86 O105 2.420 . S
U86 O106 2.455 . S
U86 O107 2.449 . S
O87 U86 2.454 . S
O87 C89 1.353 . S
O88 U86 2.458 . S
O88 C89 1.286 . S
C89 U86 2.984 . S
C89 O87 1.353 . S
C89 O88 1.286 . S
C89 C91 1.363 . S
C90 C80 1.465 . S
C90 U86 2.847 . S
C90 O104 1.249 . S
C90 O105 1.202 . S
C91 C89 1.363 . S
C91 C93 1.408 . S
C91 C96 1.342 . S
C92 C93 1.310 . S
C92 C95 1.461 . S
C92 H112 0.932 . S
C93 C91 1.408 . S
C93 C92 1.310 . S
C93 H113 0.930 . S
C94 C95 1.474 . S
C94 C96 1.285 . S
C94 H114 0.929 . S
C95 C92 1.461 . S
C95 C94 1.474 . S
C96 C91 1.342 . S
C96 C94 1.285 . S
C96 H115 0.930 . S
C97 C100 1.424 . S
C97 C102 1.245 . S
C97 C103 1.428 . S
C98 C101 1.260 . S
C98 C102 1.477 . S
C98 H116 0.932 . S
C99 C100 1.384 . S
C99 C101 1.479 . S
C99 H117 0.929 . S
C100 C97 1.424 . S
C100 C99 1.384 . S
C100 H118 0.928 . S
C101 C98 1.260 . S
C101 C99 1.479 . S
C102 C97 1.245 . S
C102 C98 1.477 . S
C102 H119 0.932 . S
C103 U86 2.882 . S
C103 C97 1.428 . S
C103 O106 1.301 . S
C103 O107 1.282 . S
O104 U86 2.441 . S
O104 C90 1.249 . S
O105 U86 2.420 . S
O105 C90 1.202 . S
O106 U86 2.455 . S
O106 C103 1.301 . S
O107 U86 2.449 . S
O107 C103 1.282 . S
H108 C81 0.931 . S
H109 C83 0.929 . S
H110 C84 0.930 . S
H111 C85 0.931 . S
H112 C92 0.932 . S
H113 C93 0.930 . S
H114 C94 0.929 . S
H115 C96 0.930 . S
H116 C98 0.932 . S
H117 C99 0.929 . S
H118 C100 0.928 . S
H119 C102 0.932 . S
C120 C121 1.264 . S
C120 C125 1.479 . S
C120 C130 1.465 . S
C121 C120 1.264 . S
C121 C123 1.339 . S
C121 H148 0.931 . S
C122 C123 1.395 . S
C122 C124 1.320 . S
C123 C121 1.339 . S
C123 C122 1.395 . S
C123 H149 0.929 . S
C124 C122 1.320 . S
C124 C125 1.405 . S
C124 H150 0.930 . S
C125 C120 1.479 . S
C125 C124 1.405 . S
C125 H151 0.931 . S
U126 O127 2.454 . S
U126 O128 2.458 . S
U126 C129 2.984 . S
U126 C130 2.847 . S
U126 C143 2.882 . S
U126 O144 2.441 . S
U126 O145 2.420 . S
U126 O146 2.455 . S
U126 O147 2.449 . S
O127 U126 2.454 . S
O127 C129 1.353 . S
O128 U126 2.458 . S
O128 C129 1.286 . S
C129 U126 2.984 . S
C129 O127 1.353 . S
C129 O128 1.286 . S
C129 C131 1.363 . S
C130 C120 1.465 . S
C130 U126 2.847 . S
C130 O144 1.249 . S
C130 O145 1.202 . S
C131 C129 1.363 . S
C131 C133 1.408 . S
C131 C136 1.342 . S
C132 C133 1.310 . S
C132 C135 1.461 . S
C132 H152 0.932 . S
C133 C131 1.408 . S
C133 C132 1.310 . S
C133 H153 0.930 . S
C134 C135 1.474 . S
C134 C136 1.285 . S
C134 H154 0.929 . S
C135 C132 1.461 . S
C135 C134 1.474 . S
C136 C131 1.342 . S
C136 C134 1.285 . S
C136 H155 0.930 . S
C137 C140 1.424 . S
C137 C142 1.245 . S
C137 C143 1.428 . S
C138 C141 1.260 . S
C138 C142 1.477 . S
C138 H156 0.932 . S
C139 C140 1.384 . S
C139 C141 1.479 . S
C139 H157 0.929 . S
C140 C137 1.424 . S
C140 C139 1.384 . S
C140 H158 0.928 . S
C141 C138 1.260 . S
C141 C139 1.479 . S
C142 C137 1.245 . S
C142 C138 1.477 . S
C142 H159 0.932 . S
C143 U126 2.882 . S
C143 C137 1.428 . S
C143 O146 1.301 . S
C143 O147 1.282 . S
O144 U126 2.441 . S
O144 C130 1.249 . S
O145 U126 2.420 . S
O145 C130 1.202 . S
O146 U126 2.455 . S
O146 C143 1.301 . S
O147 U126 2.449 . S
O147 C143 1.282 . S
H148 C121 0.931 . S
H149 C123 0.929 . S
H150 C124 0.930 . S
H151 C125 0.931 . S
H152 C132 0.932 . S
H153 C133 0.930 . S
H154 C134 0.929 . S
H155 C136 0.930 . S
H156 C138 0.932 . S
H157 C139 0.929 . S
H158 C140 0.928 . S
H159 C142 0.932 . S
C160 C161 1.264 . S
C160 C165 1.479 . S
C160 C170 1.465 . S
C161 C160 1.264 . S
C161 C163 1.339 . S
C161 H188 0.931 . S
C162 C163 1.395 . S
C162 C164 1.320 . S
C163 C161 1.339 . S
C163 C162 1.395 . S
C163 H189 0.929 . S
C164 C162 1.320 . S
C164 C165 1.405 . S
C164 H190 0.930 . S
C165 C160 1.479 . S
C165 C164 1.405 . S
C165 H191 0.931 . S
U166 O167 2.454 . S
U166 O168 2.458 . S
U166 C169 2.984 . S
U166 C170 2.847 . S
U166 C183 2.882 . S
U166 O184 2.441 . S
U166 O185 2.420 . S
U166 O186 2.455 . S
U166 O187 2.449 . S
O167 U166 2.454 . S
O167 C169 1.353 . S
O168 U166 2.458 . S
O168 C169 1.286 . S
C169 U166 2.984 . S
C169 O167 1.353 . S
C169 O168 1.286 . S
C169 C171 1.363 . S
C170 C160 1.465 . S
C170 U166 2.847 . S
C170 O184 1.249 . S
C170 O185 1.202 . S
C171 C169 1.363 . S
C171 C173 1.408 . S
C171 C176 1.342 . S
C172 C173 1.310 . S
C172 C175 1.461 . S
C172 H192 0.932 . S
C173 C171 1.408 . S
C173 C172 1.310 . S
C173 H193 0.930 . S
C174 C175 1.474 . S
C174 C176 1.285 . S
C174 H194 0.929 . S
C175 C172 1.461 . S
C175 C174 1.474 . S
C176 C171 1.342 . S
C176 C174 1.285 . S
C176 H195 0.930 . S
C177 C180 1.424 . S
C177 C182 1.245 . S
C177 C183 1.428 . S
C178 C181 1.260 . S
C178 C182 1.477 . S
C178 H196 0.932 . S
C179 C180 1.384 . S
C179 C181 1.479 . S
C179 H197 0.929 . S
C180 C177 1.424 . S
C180 C179 1.384 . S
C180 H198 0.928 . S
C181 C178 1.260 . S
C181 C179 1.479 . S
C182 C177 1.245 . S
C182 C178 1.477 . S
C182 H199 0.932 . S
C183 U166 2.882 . S
C183 C177 1.428 . S
C183 O186 1.301 . S
C183 O187 1.282 . S
O184 U166 2.441 . S
O184 C170 1.249 . S
O185 U166 2.420 . S
O185 C170 1.202 . S
O186 U166 2.455 . S
O186 C183 1.301 . S
O187 U166 2.449 . S
O187 C183 1.282 . S
H188 C161 0.931 . S
H189 C163 0.929 . S
H190 C164 0.930 . S
H191 C165 0.931 . S
H192 C172 0.932 . S
H193 C173 0.930 . S
H194 C174 0.929 . S
H195 C176 0.930 . S
H196 C178 0.932 . S
H197 C179 0.929 . S
H198 C180 0.928 . S
H199 C182 0.932 . S
C200 C201 1.264 . S
C200 C205 1.479 . S
C200 C210 1.465 . S
C201 C200 1.264 . S
C201 C203 1.339 . S
C201 H228 0.931 . S
C202 C203 1.395 . S
C202 C204 1.320 . S
C203 C201 1.339 . S
C203 C202 1.395 . S
C203 H229 0.929 . S
C204 C202 1.320 . S
C204 C205 1.405 . S
C204 H230 0.930 . S
C205 C200 1.479 . S
C205 C204 1.405 . S
C205 H231 0.931 . S
U206 O207 2.454 . S
U206 O208 2.458 . S
U206 C209 2.984 . S
U206 C210 2.847 . S
U206 C223 2.882 . S
U206 O224 2.441 . S
U206 O225 2.420 . S
U206 O226 2.455 . S
U206 O227 2.449 . S
O207 U206 2.454 . S
O207 C209 1.353 . S
O208 U206 2.458 . S
O208 C209 1.286 . S
C209 U206 2.984 . S
C209 O207 1.353 . S
C209 O208 1.286 . S
C209 C211 1.363 . S
C210 C200 1.465 . S
C210 U206 2.847 . S
C210 O224 1.249 . S
C210 O225 1.202 . S
C211 C209 1.363 . S
C211 C213 1.408 . S
C211 C216 1.342 . S
C212 C213 1.310 . S
C212 C215 1.461 . S
C212 H232 0.932 . S
C213 C211 1.408 . S
C213 C212 1.310 . S
C213 H233 0.930 . S
C214 C215 1.474 . S
C214 C216 1.285 . S
C214 H234 0.929 . S
C215 C212 1.461 . S
C215 C214 1.474 . S
C216 C211 1.342 . S
C216 C214 1.285 . S
C216 H235 0.930 . S
C217 C220 1.424 . S
C217 C222 1.245 . S
C217 C223 1.428 . S
C218 C221 1.260 . S
C218 C222 1.477 . S
C218 H236 0.932 . S
C219 C220 1.384 . S
C219 C221 1.479 . S
C219 H237 0.929 . S
C220 C217 1.424 . S
C220 C219 1.384 . S
C220 H238 0.928 . S
C221 C218 1.260 . S
C221 C219 1.479 . S
C222 C217 1.245 . S
C222 C218 1.477 . S
C222 H239 0.932 . S
C223 U206 2.882 . S
C223 C217 1.428 . S
C223 O226 1.301 . S
C223 O227 1.282 . S
O224 U206 2.441 . S
O224 C210 1.249 . S
O225 U206 2.420 . S
O225 C210 1.202 . S
O226 U206 2.455 . S
O226 C223 1.301 . S
O227 U206 2.449 . S
O227 C223 1.282 . S
H228 C201 0.931 . S
H229 C203 0.929 . S
H230 C204 0.930 . S
H231 C205 0.931 . S
H232 C212 0.932 . S
H233 C213 0.930 . S
H234 C214 0.929 . S
H235 C216 0.930 . S
H236 C218 0.932 . S
H237 C219 0.929 . S
H238 C220 0.928 . S
H239 C222 0.932 . S
C240 C241 1.264 . S
C240 C245 1.479 . S
C240 C250 1.465 . S
C241 C240 1.264 . S
C241 C243 1.339 . S
C241 H268 0.931 . S
C242 C243 1.395 . S
C242 C244 1.320 . S
C243 C241 1.339 . S
C243 C242 1.395 . S
C243 H269 0.929 . S
C244 C242 1.320 . S
C244 C245 1.405 . S
C244 H270 0.930 . S
C245 C240 1.479 . S
C245 C244 1.405 . S
C245 H271 0.931 . S
U246 O247 2.454 . S
U246 O248 2.458 . S
U246 C249 2.984 . S
U246 C250 2.847 . S
U246 C263 2.882 . S
U246 O264 2.441 . S
U246 O265 2.420 . S
U246 O266 2.455 . S
U246 O267 2.449 . S
O247 U246 2.454 . S
O247 C249 1.353 . S
O248 U246 2.458 . S
O248 C249 1.286 . S
C249 U246 2.984 . S
C249 O247 1.353 . S
C249 O248 1.286 . S
C249 C251 1.363 . S
C250 C240 1.465 . S
C250 U246 2.847 . S
C250 O264 1.249 . S
C250 O265 1.202 . S
C251 C249 1.363 . S
C251 C253 1.408 . S
C251 C256 1.342 . S
C252 C253 1.310 . S
C252 C255 1.461 . S
C252 H272 0.932 . S
C253 C251 1.408 . S
C253 C252 1.310 . S
C253 H273 0.930 . S
C254 C255 1.474 . S
C254 C256 1.285 . S
C254 H274 0.929 . S
C255 C252 1.461 . S
C255 C254 1.474 . S
C256 C251 1.342 . S
C256 C254 1.285 . S
C256 H275 0.930 . S
C257 C260 1.424 . S
C257 C262 1.245 . S
C257 C263 1.428 . S
C258 C261 1.260 . S
C258 C262 1.477 . S
C258 H276 0.932 . S
C259 C260 1.384 . S
C259 C261 1.479 . S
C259 H277 0.929 . S
C260 C257 1.424 . S
C260 C259 1.384 . S
C260 H278 0.928 . S
C261 C258 1.260 . S
C261 C259 1.479 . S
C262 C257 1.245 . S
C262 C258 1.477 . S
C262 H279 0.932 . S
C263 U246 2.882 . S
C263 C257 1.428 . S
C263 O266 1.301 . S
C263 O267 1.282 . S
O264 U246 2.441 . S
O264 C250 1.249 . S
O265 U246 2.420 . S
O265 C250 1.202 . S
O266 U246 2.455 . S
O266 C263 1.301 . S
O267 U246 2.449 . S
O267 C263 1.282 . S
H268 C241 0.931 . S
H269 C243 0.929 . S
H270 C244 0.930 . S
H271 C245 0.931 . S
H272 C252 0.932 . S
H273 C253 0.930 . S
H274 C254 0.929 . S
H275 C256 0.930 . S
H276 C258 0.932 . S
H277 C259 0.929 . S
H278 C260 0.928 . S
H279 C262 0.932 . S
C280 C281 1.264 . S
C280 C285 1.479 . S
C280 C290 1.465 . S
C281 C280 1.264 . S
C281 C283 1.339 . S
C281 H308 0.931 . S
C282 C283 1.395 . S
C282 C284 1.320 . S
C283 C281 1.339 . S
C283 C282 1.395 . S
C283 H309 0.929 . S
C284 C282 1.320 . S
C284 C285 1.405 . S
C284 H310 0.930 . S
C285 C280 1.479 . S
C285 C284 1.405 . S
C285 H311 0.931 . S
U286 O287 2.454 . S
U286 O288 2.458 . S
U286 C289 2.984 . S
U286 C290 2.847 . S
U286 C303 2.882 . S
U286 O304 2.441 . S
U286 O305 2.420 . S
U286 O306 2.455 . S
U286 O307 2.449 . S
O287 U286 2.454 . S
O287 C289 1.353 . S
O288 U286 2.458 . S
O288 C289 1.286 . S
C289 U286 2.984 . S
C289 O287 1.353 . S
C289 O288 1.286 . S
C289 C291 1.363 . S
C290 C280 1.465 . S
C290 U286 2.847 . S
C290 O304 1.249 . S
C290 O305 1.202 . S
C291 C289 1.363 . S
C291 C293 1.408 . S
C291 C296 1.342 . S
C292 C293 1.310 . S
C292 C295 1.461 . S
C292 H312 0.932 . S
C293 C291 1.408 . S
C293 C292 1.310 . S
C293 H313 0.930 . S
C294 C295 1.474 . S
C294 C296 1.285 . S
C294 H314 0.929 . S
C295 C292 1.461 . S
C295 C294 1.474 . S
C296 C291 1.342 . S
C296 C294 1.285 . S
C296 H315 0.930 . S
C297 C300 1.424 . S
C297 C302 1.245 . S
C297 C303 1.428 . S
C298 C301 1.260 . S
C298 C302 1.477 . S
C298 H316 0.932 . S
C299 C300 1.384 . S
C299 C301 1.479 . S
C299 H317 0.929 . S
C300 C297 1.424 . S
C300 C299 1.384 . S
C300 H318 0.928 . S
C301 C298 1.260 . S
C301 C299 1.479 . S
C302 C297 1.245 . S
C302 C298 1.477 . S
C302 H319 0.932 . S
C303 U286 2.882 . S
C303 C297 1.428 . S
C303 O306 1.301 . S
C303 O307 1.282 . S
O304 U286 2.441 . S
O304 C290 1.249 . S
O305 U286 2.420 . S
O305 C290 1.202 . S
O306 U286 2.455 . S
O306 C303 1.301 . S
O307 U286 2.449 . S
O307 C303 1.282 . S
H308 C281 0.931 . S
H309 C283 0.929 . S
H310 C284 0.930 . S
H311 C285 0.931 . S
H312 C292 0.932 . S
H313 C293 0.930 . S
H314 C294 0.929 . S
H315 C296 0.930 . S
H316 C298 0.932 . S
H317 C299 0.929 . S
H318 C300 0.928 . S
H319 C302 0.932 . S
Zn320 O326 1.969 1_545 S
Zn320 O327 1.965 1_545 S
Zn320 O331 2.024 . S
Zn320 O336 1.969 . S
Zn321 O328 1.969 . S
Zn321 O334 1.969 1_565 S
Zn321 O335 1.966 1_665 S
Zn321 O337 2.024 . S
C322 O323 1.229 . S
C322 O331 1.058 . S
O323 C322 1.229 . S
C324 O325 1.229 . S
C324 O337 1.058 . S
O325 C324 1.229 . S
O326 Zn320 1.969 1_565 S
O326 C329 1.267 . S
O327 Zn320 1.965 1_565 S
O327 C338 1.260 1_455 S
O328 Zn321 1.969 . S
O328 C338 1.258 . S
C329 O326 1.267 . S
C329 O330 1.228 . S
O330 C329 1.228 . S
O331 Zn320 2.024 . S
O331 C322 1.058 . S
C332 O333 1.228 . S
C332 O334 1.267 . S
O333 C332 1.228 . S
O334 Zn321 1.969 1_545 S
O334 C332 1.267 . S
O335 Zn321 1.966 1_445 S
O335 C339 1.258 . S
O336 Zn320 1.969 . S
O336 C339 1.258 . S
O337 Zn321 2.024 . S
O337 C324 1.058 . S
C338 O327 1.260 1_655 S
C338 O328 1.258 . S
C339 O335 1.258 . S
C339 O336 1.258 . S
Zn340 O346 1.969 . S
Zn340 O347 1.965 1_565 S
Zn340 O351 2.024 . S
Zn340 O356 1.969 1_556 S
Zn341 O348 1.969 . S
Zn341 O354 1.969 . S
Zn341 O355 1.965 1_545 S
Zn341 O357 2.024 . S
C342 O343 1.229 . S
C342 O351 1.058 . S
O343 C342 1.229 . S
C344 O345 1.229 . S
C344 O357 1.058 . S
O345 C344 1.229 . S
O346 Zn340 1.969 . S
O346 C349 1.267 . S
O347 Zn340 1.965 1_545 S
O347 C358 1.260 . S
O348 Zn341 1.969 . S
O348 C358 1.258 1_554 S
C349 O346 1.267 . S
C349 O350 1.228 . S
O350 C349 1.228 . S
O351 Zn340 2.024 . S
O351 C342 1.058 . S
C352 O353 1.228 . S
C352 O354 1.267 . S
O353 C352 1.228 . S
O354 Zn341 1.969 . S
O354 C352 1.267 . S
O355 Zn341 1.965 1_565 S
O355 C359 1.260 . S
O356 Zn340 1.969 1_554 S
O356 C359 1.258 . S
O357 Zn341 2.024 . S
O357 C344 1.058 . S
C358 O347 1.260 . S
C358 O348 1.258 1_556 S
C359 O355 1.260 . S
C359 O356 1.258 . S
Zn360 O366 1.969 . S
Zn360 O367 1.965 . S
Zn360 O371 2.024 . S
Zn360 O376 1.969 . S
Zn361 O368 1.969 . S
Zn361 O374 1.969 . S
Zn361 O375 1.965 . S
Zn361 O377 2.024 . S
C362 O363 1.229 . S
C362 O371 1.058 . S
O363 C362 1.229 . S
C364 O365 1.229 . S
C364 O377 1.058 . S
O365 C364 1.229 . S
O366 Zn360 1.969 . S
O366 C369 1.267 . S
O367 Zn360 1.965 . S
O367 C378 1.260 . S
O368 Zn361 1.969 . S
O368 C378 1.258 . S
C369 O366 1.267 . S
C369 O370 1.228 . S
O370 C369 1.228 . S
O371 Zn360 2.024 . S
O371 C362 1.058 . S
C372 O373 1.228 . S
C372 O374 1.267 . S
O373 C372 1.228 . S
O374 Zn361 1.969 . S
O374 C372 1.267 . S
O375 Zn361 1.965 . S
O375 C379 1.260 . S
O376 Zn360 1.969 . S
O376 C379 1.258 . S
O377 Zn361 2.024 . S
O377 C364 1.058 . S
C378 O367 1.260 . S
C378 O368 1.258 . S
C379 O375 1.260 . S
C379 O376 1.258 . S
Zn380 O386 1.969 . S
Zn380 O387 1.965 1_556 S
Zn380 O391 2.024 . S
Zn380 O396 1.969 1_655 S
Zn381 O388 1.969 . S
Zn381 O394 1.969 . S
Zn381 O395 1.965 1_554 S
Zn381 O397 2.024 . S
C382 O383 1.229 . S
C382 O391 1.058 . S
O383 C382 1.229 . S
C384 O385 1.229 . S
C384 O397 1.058 . S
O385 C384 1.229 . S
O386 Zn380 1.969 . S
O386 C389 1.267 . S
O387 Zn380 1.965 1_554 S
O387 C398 1.260 . S
O388 Zn381 1.969 . S
O388 C398 1.258 1_455 S
C389 O386 1.267 . S
C389 O390 1.228 . S
O390 C389 1.228 . S
O391 Zn380 2.024 . S
O391 C382 1.058 . S
C392 O393 1.228 . S
C392 O394 1.267 . S
O393 C392 1.228 . S
O394 Zn381 1.969 . S
O394 C392 1.267 . S
O395 Zn381 1.965 1_556 S
O395 C399 1.260 . S
O396 Zn380 1.969 1_455 S
O396 C399 1.258 . S
O397 Zn381 2.024 . S
O397 C384 1.058 . S
C398 O387 1.260 . S
C398 O388 1.258 1_655 S
C399 O395 1.260 . S
C399 O396 1.258 . S
C21 C339 1.779 . S
C61 C342 1.529 . S
C378 C82 2.089 . S
C135 C398 2.107 . S
C352 C15 1.812 . S
C329 C42 1.503 . S
C382 C101 1.805 . S
C362 C122 1.677 . S
C2 C392 1.311 . S
C358 C95 1.832 . S
C141 C324 2.109 . S
C55 C372 1.106 . S
C338 C181 2.077 . S
C202 C344 1.422 . S
C255 C379 2.131 . S
C295 C399 2.103 . S
C175 C349 1.813 . S
C332 C221 1.529 . S
C384 C242 1.842 . S
C364 C301 1.637 . S
C162 C389 1.542 . S
C359 C261 1.962 . S
C322 C282 2.050 . S
C215 C369 1.151 . S
