# Generated by pormake.
# Topology llj, (12,3)-cn, num edge types: 1
# Building blocks:
#     Node 0, Type 0, BuildingBlock: QEWDON_clean_sbu_0, # of connection points: 12
#     Node 1, Type 0, BuildingBlock: QEWDON_clean_sbu_0, # of connection points: 12
#     Node 2, Type 1, BuildingBlock: WUSLED_clean_sbu_0, # of connection points: 3
#     Node 3, Type 1, BuildingBlock: WUSLED_clean_sbu_0, # of connection points: 3
#     Node 4, Type 1, BuildingBlock: WUSLED_clean_sbu_0, # of connection points: 3
#     Node 5, Type 1, BuildingBlock: WUSLED_clean_sbu_0, # of connection points: 3
#     Node 6, Type 1, BuildingBlock: WUSLED_clean_sbu_0, # of connection points: 3
#     Node 7, Type 1, BuildingBlock: WUSLED_clean_sbu_0, # of connection points: 3
#     Node 8, Type 1, BuildingBlock: WUSLED_clean_sbu_0, # of connection points: 3
#     Node 9, Type 1, BuildingBlock: WUSLED_clean_sbu_0, # of connection points: 3
#     Edge 10, Type (0, 1), BuildingBlock: EZIPEK_clean_linker_0, # of connection points: 2
#     Edge 11, Type (0, 1), BuildingBlock: EZIPEK_clean_linker_0, # of connection points: 2
#     Edge 12, Type (0, 1), BuildingBlock: EZIPEK_clean_linker_0, # of connection points: 2
#     Edge 13, Type (0, 1), BuildingBlock: EZIPEK_clean_linker_0, # of connection points: 2
#     Edge 14, Type (0, 1), BuildingBlock: EZIPEK_clean_linker_0, # of connection points: 2
#     Edge 15, Type (0, 1), BuildingBlock: EZIPEK_clean_linker_0, # of connection points: 2
#     Edge 16, Type (0, 1), BuildingBlock: EZIPEK_clean_linker_0, # of connection points: 2
#     Edge 17, Type (0, 1), BuildingBlock: EZIPEK_clean_linker_0, # of connection points: 2
#     Edge 18, Type (0, 1), BuildingBlock: EZIPEK_clean_linker_0, # of connection points: 2
#     Edge 19, Type (0, 1), BuildingBlock: EZIPEK_clean_linker_0, # of connection points: 2
#     Edge 20, Type (0, 1), BuildingBlock: EZIPEK_clean_linker_0, # of connection points: 2
#     Edge 21, Type (0, 1), BuildingBlock: EZIPEK_clean_linker_0, # of connection points: 2
#     Edge 22, Type (0, 1), BuildingBlock: EZIPEK_clean_linker_0, # of connection points: 2
#     Edge 23, Type (0, 1), BuildingBlock: EZIPEK_clean_linker_0, # of connection points: 2
#     Edge 24, Type (0, 1), BuildingBlock: EZIPEK_clean_linker_0, # of connection points: 2
#     Edge 25, Type (0, 1), BuildingBlock: EZIPEK_clean_linker_0, # of connection points: 2
#     Edge 26, Type (0, 1), BuildingBlock: EZIPEK_clean_linker_0, # of connection points: 2
#     Edge 27, Type (0, 1), BuildingBlock: EZIPEK_clean_linker_0, # of connection points: 2
#     Edge 28, Type (0, 1), BuildingBlock: EZIPEK_clean_linker_0, # of connection points: 2
#     Edge 29, Type (0, 1), BuildingBlock: EZIPEK_clean_linker_0, # of connection points: 2
#     Edge 30, Type (0, 1), BuildingBlock: EZIPEK_clean_linker_0, # of connection points: 2
#     Edge 31, Type (0, 1), BuildingBlock: EZIPEK_clean_linker_0, # of connection points: 2
#     Edge 32, Type (0, 1), BuildingBlock: EZIPEK_clean_linker_0, # of connection points: 2
#     Edge 33, Type (0, 1), BuildingBlock: EZIPEK_clean_linker_0, # of connection points: 2
# Relax obj value: 0.010
# Max RMSD: 0.052
# Mean RMSD: 0.048
data_MOF--net-llj--node1-QEWDON_clean_sbu_0--node2-WUSLED_clean_sbu_0--edge1-EZIPEK_clean_linker_0
_symmetry_space_group_name_H-M    P1
_symmetry_Int_Tables_number       1
_symmetry_cell_setting            triclinic
loop_
_symmetry_equiv_pos_as_xyz
'x, y, z'
_cell_length_a     39.279818
_cell_length_b     39.292002
_cell_length_c     26.918347
_cell_angle_alpha  90.28165
_cell_angle_beta   90.221153
_cell_angle_gamma 90.034905
loop_
_atom_site_label
_atom_site_type_symbol
_atom_site_fract_x
_atom_site_fract_y
_atom_site_fract_z
_atom_type_partial_charge
Zn0 Zn 0.96378 0.09604 0.97537 0.0
Zn1 Zn 0.95983 0.07829 0.09187 0.0
O2 O 0.98679 0.06965 0.03009 0.0
H3 H 1.00134 0.05021 0.02439 0.0
C4 C 0.91388 0.01497 0.888 0.0
O5 O 0.94411 0.02009 0.90772 0.0
Zn6 Zn 0.03981 0.92468 0.08917 0.0
Zn7 Zn 0.03595 0.90802 0.9719 0.0
O8 O 0.01364 0.935 0.02678 0.0
H9 H 1.0003 0.95533 0.02149 0.0
Zn10 Zn 0.90867 0.96436 0.96782 0.0
O11 O 0.9317 0.98871 0.02509 0.0
Zn12 Zn 0.92238 0.96123 0.08611 0.0
H13 H 0.95061 0.00417 0.02101 0.0
Zn14 Zn 0.10098 0.03943 0.97656 0.0
O15 O 0.07163 0.01723 0.0287 0.0
H16 H 0.05271 0.00221 0.02168 0.0
Zn17 Zn 0.07937 0.04283 0.0922 0.0
C18 C 0.09506 0.99049 0.89394 0.0
O19 O 0.06416 0.98689 0.9117 0.0
O20 O 0.92623 0.12805 1.00027 0.0
O21 O 0.92363 0.11539 0.081 0.0
O22 O 0.0733 0.87553 0.99592 0.0
O23 O 0.07624 0.88806 0.0769 0.0
O24 O 0.87756 0.92534 0.99032 0.0
O25 O 0.887 0.92407 0.07227 0.0
C26 C 0.02371 0.08263 0.14532 0.0
O27 O 0.13193 0.07762 0.00393 0.0
O28 O 0.11623 0.07976 0.08362 0.0
O29 O 0.01174 0.89955 0.90411 0.0
C30 C 0.91342 0.13226 0.04323 0.0
O31 O 0.99195 0.11025 0.914 0.0
C32 C 0.9753 0.91867 0.13862 0.0
O33 O 0.89431 0.99253 0.90618 0.0
C34 C 0.08634 0.87131 0.03883 0.0
O35 O 0.11551 0.01142 0.91438 0.0
C36 C 0.91715 0.02358 0.14168 0.0
O37 O 0.99282 0.09236 0.14629 0.0
O38 O 0.03382 0.06416 0.10934 0.0
C39 C 0.87211 0.91289 0.03316 0.0
O40 O 0.00588 0.90811 0.14067 0.0
O41 O 0.96716 0.93974 0.10494 0.0
C42 C 0.08248 0.97818 0.14367 0.0
O43 O 0.90634 0.99306 0.14067 0.0
O44 O 0.93716 0.0334 0.1076 0.0
C45 C 0.13437 0.0904 0.04743 0.0
O46 O 0.09369 0.00861 0.14466 0.0
O47 O 0.0624 0.96927 0.10874 0.0
C48 C 0.98704 0.91779 0.88922 0.0
O49 O 0.97614 0.94306 0.91703 0.0
C50 C 0.01302 0.08991 0.89399 0.0
O51 O 0.01675 0.05907 0.9118 0.0
Zn52 Zn 0.46603 0.58927 0.47616 0.0
Zn53 Zn 0.46044 0.57773 0.59399 0.0
O54 O 0.48856 0.56634 0.53437 0.0
H55 H 0.50256 0.54625 0.53101 0.0
C56 C 0.40982 0.50707 0.38878 0.0
O57 O 0.44202 0.50895 0.40186 0.0
Zn58 Zn 0.53986 0.42521 0.59388 0.0
Zn59 Zn 0.53774 0.41024 0.47569 0.0
O60 O 0.51373 0.4352 0.53123 0.0
H61 H 0.49953 0.45497 0.52626 0.0
Zn62 Zn 0.40653 0.46185 0.47509 0.0
O63 O 0.42925 0.4884 0.53045 0.0
Zn64 Zn 0.42188 0.46171 0.59272 0.0
H65 H 0.44755 0.50436 0.525 0.0
Zn66 Zn 0.59408 0.54354 0.47752 0.0
O67 O 0.5704 0.51795 0.53247 0.0
H68 H 0.55286 0.50106 0.5271 0.0
Zn69 Zn 0.57902 0.54361 0.59562 0.0
C70 C 0.5889 0.49312 0.39676 0.0
O71 O 0.55923 0.48718 0.41736 0.0
O72 O 0.42821 0.62269 0.4961 0.0
O73 O 0.42489 0.61457 0.57804 0.0
O74 O 0.57501 0.37776 0.50014 0.0
O75 O 0.576 0.38821 0.58183 0.0
O76 O 0.37768 0.42187 0.50025 0.0
O77 O 0.38714 0.42361 0.58217 0.0
C78 C 0.52326 0.584 0.64908 0.0
O79 O 0.62581 0.58151 0.50368 0.0
O80 O 0.6155 0.58055 0.5853 0.0
O81 O 0.5137 0.40087 0.40786 0.0
C82 C 0.41509 0.62939 0.53823 0.0
O83 O 0.49509 0.59944 0.41393 0.0
C84 C 0.47529 0.42005 0.6436 0.0
O85 O 0.38956 0.48857 0.41352 0.0
C86 C 0.58698 0.37241 0.54342 0.0
O87 O 0.60819 0.51614 0.41464 0.0
C88 C 0.41769 0.52433 0.64706 0.0
O89 O 0.4923 0.59356 0.64886 0.0
O90 O 0.53378 0.56501 0.61394 0.0
C91 C 0.37259 0.41071 0.54395 0.0
O92 O 0.50578 0.40922 0.64565 0.0
O93 O 0.46728 0.44118 0.60998 0.0
C94 C 0.58304 0.47912 0.6474 0.0
O95 O 0.40667 0.4939 0.64717 0.0
O96 O 0.43721 0.53361 0.61208 0.0
C97 C 0.63112 0.59264 0.54762 0.0
O98 O 0.5941 0.50961 0.64782 0.0
O99 O 0.56278 0.46987 0.61287 0.0
C100 C 0.48778 0.41767 0.39379 0.0
O101 O 0.47534 0.4416 0.42269 0.0
C102 C 0.50502 0.62983 0.40735 0.0
O103 O 0.49629 0.6536 0.43932 0.0
C104 C 0.35941 0.32875 0.8772 0.0
C105 C 0.34102 0.35063 0.84575 0.0
C106 C 0.39156 0.36053 0.79595 0.0
C107 C 0.35699 0.3665 0.80557 0.0
C108 C 0.40993 0.33848 0.82684 0.0
C109 C 0.39407 0.32275 0.86711 0.0
U110 U 0.34746 0.31531 0.01689 0.0
O111 O 0.30117 0.30811 0.06147 0.0
O112 O 0.34036 0.26833 0.05992 0.0
C113 C 0.30987 0.2772 0.07514 0.0
C114 C 0.3421 0.31217 0.91968 0.0
C115 C 0.28339 0.25071 0.07113 0.0
C116 C 0.23703 0.22255 0.02695 0.0
C117 C 0.26187 0.24815 0.02945 0.0
C118 C 0.25507 0.20176 0.10748 0.0
C119 C 0.23356 0.19917 0.06594 0.0
C120 C 0.27975 0.22738 0.11006 0.0
C121 C 0.40471 0.36616 0.1066 0.0
C122 C 0.39514 0.37465 0.19506 0.0
C123 C 0.45103 0.3849 0.1603 0.0
C124 C 0.43878 0.37596 0.11318 0.0
C125 C 0.42932 0.3843 0.20155 0.0
C126 C 0.38292 0.36547 0.1479 0.0
C127 C 0.39265 0.35679 0.05644 0.0
O128 O 0.36039 0.29069 0.94594 0.0
O129 O 0.32286 0.33198 0.94733 0.0
O130 O 0.36149 0.36612 0.04483 0.0
O131 O 0.39997 0.32571 0.04177 0.0
H132 H 0.31428 0.35554 0.85239 0.0
H133 H 0.34246 0.38348 0.78205 0.0
H134 H 0.43665 0.33364 0.81992 0.0
H135 H 0.40906 0.306 0.89034 0.0
H136 H 0.22072 0.22075 0.9945 0.0
H137 H 0.26437 0.26581 0.9989 0.0
H138 H 0.25282 0.18385 0.13776 0.0
H139 H 0.29615 0.22891 0.14247 0.0
H140 H 0.37806 0.37399 0.22655 0.0
H141 H 0.47748 0.3922 0.16467 0.0
H142 H 0.45597 0.37661 0.0818 0.0
H143 H 0.35657 0.35781 0.1437 0.0
C144 C 0.67706 0.37352 0.16227 0.0
C145 C 0.64547 0.3889 0.15238 0.0
C146 C 0.6448 0.41307 0.23567 0.0
C147 C 0.62934 0.40841 0.18901 0.0
C148 C 0.67647 0.3979 0.24531 0.0
C149 C 0.69246 0.37822 0.20885 0.0
U150 U 0.69342 0.34921 0.0271 0.0
O151 O 0.74133 0.3369 0.98919 0.0
O152 O 0.70063 0.29871 0.99286 0.0
C153 C 0.73243 0.30509 0.98107 0.0
C154 C 0.6944 0.35274 0.12446 0.0
C155 C 0.75738 0.27941 0.99691 0.0
C156 C 0.7953 0.25562 0.05939 0.0
C157 C 0.77065 0.27952 0.04548 0.0
C158 C 0.79299 0.23083 0.97676 0.0
C159 C 0.80675 0.2313 0.02494 0.0
C160 C 0.76848 0.25477 0.96283 0.0
C161 C 0.64524 0.39857 0.92532 0.0
C162 C 0.64133 0.38322 0.83777 0.0
C163 C 0.62233 0.43877 0.86579 0.0
C164 C 0.63129 0.4305 0.91447 0.0
C165 C 0.6272 0.41522 0.82714 0.0
C166 C 0.65045 0.37496 0.88668 0.0
C167 C 0.65375 0.3907 0.97727 0.0
O168 O 0.67498 0.3314 0.09943 0.0
O169 O 0.71607 0.3692 0.0963 0.0
O170 O 0.68473 0.39881 0.9916 0.0
O171 O 0.64362 0.36093 0.99377 0.0
H172 H 0.63329 0.38573 0.11648 0.0
H173 H 0.60488 0.41992 0.18102 0.0
H174 H 0.68872 0.40123 0.28113 0.0
H175 H 0.71686 0.36665 0.21703 0.0
H176 H 0.80575 0.25632 0.09667 0.0
H177 H 0.76224 0.29831 0.07234 0.0
H178 H 0.80166 0.21227 0.94974 0.0
H179 H 0.75845 0.25429 0.92527 0.0
H180 H 0.64512 0.36472 0.80834 0.0
H181 H 0.61136 0.46352 0.85822 0.0
H182 H 0.62714 0.44902 0.94378 0.0
H183 H 0.66131 0.3502 0.8944 0.0
C184 C 0.62969 0.69244 0.16295 0.0
C185 C 0.60254 0.67013 0.15305 0.0
C186 C 0.58857 0.66919 0.24085 0.0
C187 C 0.58206 0.65853 0.19187 0.0
C188 C 0.61586 0.69128 0.25069 0.0
C189 C 0.63631 0.70285 0.21191 0.0
U190 U 0.65303 0.69764 0.0258 0.0
O191 O 0.66756 0.74198 0.98125 0.0
O192 O 0.70354 0.69979 0.99084 0.0
C193 C 0.69886 0.73103 0.97495 0.0
C194 C 0.65097 0.70546 0.12262 0.0
C195 C 0.72549 0.75548 0.98902 0.0
C196 C 0.75261 0.79181 0.05089 0.0
C197 C 0.72823 0.76727 0.03823 0.0
C198 C 0.77217 0.79241 0.96553 0.0
C199 C 0.77449 0.80469 0.01446 0.0
C200 C 0.74776 0.76794 0.95286 0.0
C201 C 0.60134 0.64751 0.92947 0.0
C202 C 0.61661 0.64342 0.84215 0.0
C203 C 0.5618 0.62267 0.8701 0.0
C204 C 0.56991 0.63225 0.91873 0.0
C205 C 0.58502 0.62823 0.83151 0.0
C206 C 0.62469 0.65316 0.89093 0.0
C207 C 0.60896 0.65768 0.98091 0.0
O208 O 0.67032 0.68279 0.10043 0.0
O209 O 0.6355 0.72599 0.09147 0.0
O210 O 0.60263 0.68969 0.99178 0.0
O211 O 0.63806 0.64678 0.99915 0.0
H212 H 0.59712 0.6619 0.11536 0.0
H213 H 0.56105 0.6415 0.18378 0.0
H214 H 0.62113 0.69973 0.28831 0.0
H215 H 0.65715 0.72008 0.22008 0.0
H216 H 0.7541 0.80113 0.08878 0.0
H217 H 0.71118 0.75785 0.06659 0.0
H218 H 0.78887 0.80223 0.93703 0.0
H219 H 0.74594 0.75909 0.91476 0.0
H220 H 0.63484 0.64775 0.81275 0.0
H221 H 0.53736 0.61089 0.86248 0.0
H222 H 0.55159 0.6278 0.94799 0.0
H223 H 0.64904 0.66507 0.89862 0.0
C224 C 0.3202 0.62922 0.1592 0.0
C225 C 0.34751 0.60807 0.14578 0.0
C226 C 0.35167 0.58777 0.23065 0.0
C227 C 0.36324 0.58751 0.18139 0.0
C228 C 0.32425 0.60879 0.24391 0.0
C229 C 0.30861 0.62941 0.20836 0.0
U230 U 0.30684 0.65544 0.02516 0.0
O231 O 0.26007 0.66841 0.98447 0.0
O232 O 0.30089 0.70628 0.99217 0.0
C233 C 0.26936 0.70024 0.97816 0.0
C234 C 0.30353 0.65096 0.1222 0.0
C235 C 0.24421 0.72583 0.99362 0.0
C236 C 0.20518 0.74894 0.05503 0.0
C237 C 0.23011 0.72524 0.04152 0.0
C238 C 0.20889 0.77453 0.97342 0.0
C239 C 0.19428 0.77354 0.02087 0.0
C240 C 0.2337 0.75078 0.95987 0.0
C241 C 0.35684 0.60614 0.92519 0.0
C242 C 0.36342 0.62198 0.83849 0.0
C243 C 0.37873 0.56523 0.86562 0.0
C244 C 0.36929 0.5736 0.91406 0.0
C245 C 0.37587 0.58929 0.82753 0.0
C246 C 0.35378 0.63034 0.88713 0.0
C247 C 0.34731 0.61389 0.97677 0.0
O248 O 0.32371 0.67239 0.09921 0.0
O249 O 0.28227 0.63519 0.09212 0.0
O250 O 0.31597 0.60596 0.98904 0.0
O251 O 0.35729 0.64351 0.99457 0.0
H252 H 0.35666 0.60755 0.10786 0.0
H253 H 0.38443 0.57148 0.17066 0.0
H254 H 0.31509 0.60929 0.28182 0.0
H255 H 0.28752 0.64553 0.21923 0.0
H256 H 0.19404 0.74783 0.09174 0.0
H257 H 0.23807 0.70619 0.06811 0.0
H258 H 0.20063 0.79332 0.94664 0.0
H259 H 0.24437 0.75162 0.92283 0.0
H260 H 0.36118 0.64085 0.80947 0.0
H261 H 0.38838 0.53994 0.85779 0.0
H262 H 0.37177 0.55464 0.94294 0.0
H263 H 0.34407 0.65558 0.89507 0.0
C264 C 0.85865 0.82922 0.37318 0.0
C265 C 0.83952 0.84557 0.33607 0.0
C266 C 0.89136 0.8603 0.29194 0.0
C267 C 0.85575 0.86115 0.29585 0.0
C268 C 0.91053 0.84402 0.32888 0.0
C269 C 0.89438 0.82872 0.36925 0.0
U270 U 0.846 0.8161 0.5125 0.0
O271 O 0.79963 0.80867 0.55674 0.0
O272 O 0.83912 0.76915 0.55573 0.0
C273 C 0.8085 0.77786 0.57061 0.0
C274 C 0.84104 0.81271 0.4153 0.0
C275 C 0.78217 0.7512 0.56669 0.0
C276 C 0.73414 0.7244 0.52461 0.0
C277 C 0.75914 0.74984 0.52663 0.0
C278 C 0.75511 0.70128 0.60222 0.0
C279 C 0.73202 0.69998 0.56241 0.0
C280 C 0.77995 0.72675 0.60436 0.0
C281 C 0.9019 0.86743 0.60302 0.0
C282 C 0.91561 0.85227 0.68829 0.0
C283 C 0.92542 0.90983 0.65961 0.0
C284 C 0.91293 0.9008 0.61263 0.0
C285 C 0.92724 0.88551 0.69755 0.0
C286 C 0.90288 0.8433 0.64138 0.0
C287 C 0.89037 0.85819 0.55254 0.0
O288 O 0.85928 0.79136 0.44184 0.0
O289 O 0.82165 0.8326 0.44259 0.0
O290 O 0.89818 0.82734 0.53727 0.0
O291 O 0.85914 0.8672 0.54091 0.0
H292 H 0.812 0.84631 0.33824 0.0
H293 H 0.84059 0.87375 0.26772 0.0
H294 H 0.93805 0.84333 0.32654 0.0
H295 H 0.90992 0.81653 0.39731 0.0
H296 H 0.71659 0.72359 0.49348 0.0
H297 H 0.76049 0.76839 0.49706 0.0
H298 H 0.7539 0.68255 0.63156 0.0
H299 H 0.79749 0.72737 0.63553 0.0
H300 H 0.91677 0.83323 0.71721 0.0
H301 H 0.93419 0.93561 0.66621 0.0
H302 H 0.91227 0.91977 0.58358 0.0
H303 H 0.89427 0.81745 0.6349 0.0
C304 C 0.17887 0.87005 0.65685 0.0
C305 C 0.14845 0.88756 0.64675 0.0
C306 C 0.14782 0.90972 0.73123 0.0
C307 C 0.13292 0.90717 0.68385 0.0
C308 C 0.17823 0.89225 0.74117 0.0
C309 C 0.19362 0.87254 0.70422 0.0
U310 U 0.19401 0.84609 0.52106 0.0
O311 O 0.24168 0.83417 0.4823 0.0
O312 O 0.20135 0.79562 0.48668 0.0
C313 C 0.23301 0.80228 0.47436 0.0
C314 C 0.19576 0.84943 0.61846 0.0
C315 C 0.25835 0.77675 0.48957 0.0
C316 C 0.29919 0.75472 0.54951 0.0
C317 C 0.27418 0.77848 0.53645 0.0
C318 C 0.2921 0.72678 0.46962 0.0
C319 C 0.3084 0.72888 0.516 0.0
C320 C 0.26725 0.75061 0.45648 0.0
C321 C 0.14487 0.8955 0.42015 0.0
C322 C 0.14068 0.88063 0.33244 0.0
C323 C 0.12147 0.9359 0.3613 0.0
C324 C 0.13066 0.9274 0.4098 0.0
C325 C 0.12636 0.91263 0.3223 0.0
C326 C 0.15002 0.87213 0.38118 0.0
C327 C 0.15376 0.88746 0.47193 0.0
O328 O 0.17605 0.82822 0.59367 0.0
O329 O 0.21711 0.866 0.58995 0.0
O330 O 0.18478 0.89571 0.48593 0.0
O331 O 0.14394 0.85756 0.48834 0.0
H332 H 0.13679 0.88606 0.61027 0.0
H333 H 0.10942 0.92046 0.67564 0.0
H334 H 0.19003 0.89395 0.77755 0.0
H335 H 0.21712 0.85927 0.71259 0.0
H336 H 0.31161 0.75668 0.58541 0.0
H337 H 0.2675 0.79841 0.5626 0.0
H338 H 0.29903 0.70703 0.44333 0.0
H339 H 0.25526 0.74885 0.42024 0.0
H340 H 0.14449 0.86234 0.30275 0.0
H341 H 0.11037 0.96065 0.35413 0.0
H342 H 0.12653 0.94573 0.43938 0.0
H343 H 0.16107 0.84739 0.3885 0.0
C344 C 0.13304 0.17677 0.6609 0.0
C345 C 0.1157 0.14633 0.65007 0.0
C346 C 0.09343 0.14509 0.73409 0.0
C347 C 0.09613 0.13047 0.68659 0.0
C348 C 0.11063 0.1756 0.74474 0.0
C349 C 0.13035 0.19131 0.70836 0.0
U350 U 0.15577 0.19274 0.52571 0.0
O351 O 0.16855 0.2404 0.4877 0.0
O352 O 0.20579 0.19881 0.49039 0.0
C353 C 0.19999 0.23077 0.47887 0.0
C354 C 0.15369 0.19383 0.62306 0.0
C355 C 0.22629 0.255 0.49483 0.0
C356 C 0.2569 0.28513 0.56022 0.0
C357 C 0.23241 0.26121 0.54553 0.0
C358 C 0.26943 0.29657 0.4737 0.0
C359 C 0.27534 0.3031 0.5243 0.0
C360 C 0.24501 0.27267 0.45906 0.0
C361 C 0.10539 0.14669 0.42297 0.0
C362 C 0.0629 0.13938 0.35797 0.0
C363 C 0.12219 0.12726 0.34059 0.0
C364 C 0.13084 0.13655 0.38931 0.0
C365 C 0.08811 0.12834 0.3249 0.0
C366 C 0.07147 0.1484 0.40666 0.0
C367 C 0.11311 0.1543 0.47556 0.0
O368 O 0.17431 0.17402 0.59767 0.0
O369 O 0.13723 0.21578 0.59522 0.0
O370 O 0.10556 0.18523 0.4907 0.0
O371 O 0.14238 0.14316 0.49297 0.0
H372 H 0.11732 0.13487 0.61346 0.0
H373 H 0.08301 0.10692 0.67785 0.0
H374 H 0.10879 0.18717 0.78125 0.0
H375 H 0.14348 0.21485 0.71724 0.0
H376 H 0.26124 0.28992 0.5994 0.0
H377 H 0.21807 0.24775 0.57359 0.0
H378 H 0.28351 0.31026 0.44561 0.0
H379 H 0.24053 0.26817 0.41982 0.0
H380 H 0.03644 0.14004 0.34646 0.0
H381 H 0.14187 0.11854 0.31549 0.0
H382 H 0.15724 0.13514 0.40083 0.0
H383 H 0.05146 0.15609 0.43195 0.0
C384 C 0.82464 0.13482 0.65563 0.0
C385 C 0.85579 0.11884 0.64503 0.0
C386 C 0.85762 0.09567 0.72852 0.0
C387 C 0.87229 0.09952 0.68141 0.0
C388 C 0.82647 0.1116 0.73897 0.0
C389 C 0.81011 0.13108 0.70276 0.0
U390 U 0.80666 0.15676 0.5204 0.0
O391 O 0.75803 0.16758 0.48294 0.0
O392 O 0.79825 0.20636 0.48489 0.0
C393 C 0.76635 0.19935 0.47392 0.0
C394 C 0.80665 0.15489 0.6178 0.0
C395 C 0.74132 0.22483 0.49014 0.0
C396 C 0.71253 0.2562 0.55579 0.0
C397 C 0.7369 0.2323 0.54082 0.0
C398 C 0.69684 0.26527 0.46964 0.0
C399 C 0.69234 0.27275 0.52021 0.0
C400 C 0.72121 0.24146 0.4547 0.0
C401 C 0.85477 0.10627 0.41942 0.0
C402 C 0.8609 0.12097 0.33217 0.0
C403 C 0.87577 0.06439 0.36052 0.0
C404 C 0.86668 0.07343 0.40887 0.0
C405 C 0.8731 0.08808 0.3219 0.0
C406 C 0.85164 0.13 0.38074 0.0
C407 C 0.8465 0.115 0.4712 0.0
O408 O 0.82556 0.17606 0.59216 0.0
O409 O 0.78492 0.13771 0.5902 0.0
O410 O 0.81577 0.10666 0.48596 0.0
O411 O 0.85632 0.1452 0.48697 0.0
H412 H 0.86727 0.12126 0.60868 0.0
H413 H 0.89634 0.08741 0.67281 0.0
H414 H 0.81483 0.10887 0.77517 0.0
H415 H 0.78603 0.14312 0.71146 0.0
H416 H 0.70924 0.26163 0.59496 0.0
H417 H 0.75217 0.21954 0.56868 0.0
H418 H 0.68136 0.27779 0.44179 0.0
H419 H 0.72424 0.23591 0.4155 0.0
H420 H 0.85883 0.13957 0.30276 0.0
H421 H 0.88524 0.03896 0.35323 0.0
H422 H 0.86925 0.05481 0.43822 0.0
H423 H 0.84238 0.15548 0.38817 0.0
C424 C 0.14902 0.15116 0.06931 0.0
C425 C 0.15979 0.11788 0.05583 0.0
C426 C 0.21844 0.13843 0.04634 0.0
C427 C 0.20808 0.17117 0.06276 0.0
N428 N 0.16508 0.20761 0.09804 0.0
N429 N 0.20552 0.07816 0.04147 0.0
C430 C 0.1738 0.17719 0.07679 0.0
C431 C 0.19476 0.11105 0.04713 0.0
N432 N 0.11504 0.15832 0.07252 0.0
N433 N 0.25072 0.13369 0.02876 0.0
H434 H 0.18902 0.05737 0.0428 0.0
H435 H 0.23107 0.07117 0.0402 0.0
H436 H 0.26901 0.15296 0.02842 0.0
H437 H 0.25863 0.1115 0.01094 0.0
H438 H 0.10543 0.18284 0.0769 0.0
H439 H 0.09613 0.14007 0.06679 0.0
H440 H 0.14148 0.21221 0.11423 0.0
H441 H 0.18239 0.2275 0.10304 0.0
C442 C 0.85199 0.14832 0.05466 0.0
C443 C 0.88645 0.1583 0.0487 0.0
C444 C 0.86882 0.21702 0.03229 0.0
C445 C 0.83433 0.20709 0.03812 0.0
N446 N 0.79313 0.16583 0.06521 0.0
N447 N 0.92842 0.20281 0.04409 0.0
C448 C 0.82596 0.1735 0.05284 0.0
C449 C 0.89507 0.19295 0.04143 0.0
N450 N 0.84406 0.1146 0.05937 0.0
N451 N 0.8764 0.24906 0.01605 0.0
H452 H 0.94817 0.18572 0.05119 0.0
H453 H 0.9363 0.22811 0.04392 0.0
H454 H 0.85795 0.26774 0.01032 0.0
H455 H 0.90067 0.25659 0.00523 0.0
H456 H 0.81931 0.10516 0.05818 0.0
H457 H 0.86249 0.09558 0.06151 0.0
H458 H 0.78581 0.14281 0.0809 0.0
H459 H 0.77348 0.18366 0.06356 0.0
C460 C 0.81189 0.89303 0.0353 0.0
C461 C 0.84704 0.88505 0.03705 0.0
C462 C 0.83366 0.82413 0.03553 0.0
C463 C 0.79899 0.83225 0.02668 0.0
N464 N 0.75472 0.87405 0.0152 0.0
N465 N 0.89229 0.8437 0.03635 0.0
C466 C 0.7879 0.86663 0.02628 0.0
C467 C 0.85821 0.85074 0.03709 0.0
N468 N 0.80156 0.92588 0.04285 0.0
N469 N 0.84293 0.79099 0.04286 0.0
H470 H 0.9109 0.86261 0.03833 0.0
H471 H 0.90221 0.81943 0.03079 0.0
H472 H 0.82553 0.77093 0.04137 0.0
H473 H 0.86713 0.78361 0.05438 0.0
H474 H 0.7762 0.93299 0.04698 0.0
H475 H 0.81863 0.94579 0.04939 0.0
H476 H 0.7459 0.89858 0.00848 0.0
H477 H 0.73618 0.8554 0.00948 0.0
C478 C 0.14777 0.85569 0.05202 0.0
C479 C 0.11352 0.84548 0.04389 0.0
C480 C 0.13202 0.78725 0.02535 0.0
C481 C 0.16627 0.79738 0.03348 0.0
N482 N 0.20657 0.83852 0.06468 0.0
N483 N 0.07211 0.80064 0.03515 0.0
C484 C 0.17406 0.83078 0.05027 0.0
C485 C 0.10539 0.81089 0.03445 0.0
N486 N 0.15532 0.88938 0.05871 0.0
N487 N 0.12504 0.75546 0.00704 0.0
H488 H 0.05207 0.81737 0.0423 0.0
H489 H 0.06454 0.77527 0.03335 0.0
H490 H 0.14376 0.73705 1.00126 0.0
H491 H 0.10106 0.74794 0.99457 0.0
H492 H 0.18 0.89903 0.05917 0.0
H493 H 0.13672 0.90825 0.06077 0.0
H494 H 0.21336 0.86131 0.08194 0.0
H495 H 0.22643 0.82091 0.0631 0.0
C496 C 0.69141 0.61295 0.54144 0.0
C497 C 0.65711 0.6197 0.55471 0.0
C498 C 0.67274 0.67818 0.57806 0.0
C499 C 0.70613 0.67237 0.55987 0.0
N500 N 0.74651 0.63581 0.51863 0.0
N501 N 0.6138 0.65967 0.57975 0.0
C502 C 0.71527 0.64016 0.53999 0.0
C503 C 0.64741 0.65253 0.57177 0.0
N504 N 0.70148 0.58023 0.53205 0.0
N505 N 0.66545 0.70801 0.6021 0.0
H506 H 0.59453 0.64163 0.57538 0.0
H507 H 0.60462 0.68404 0.58692 0.0
H508 H 0.68312 0.72766 0.60629 0.0
H509 H 0.64282 0.71232 0.62112 0.0
H510 H 0.72678 0.5731 0.52732 0.0
H511 H 0.68488 0.55953 0.53362 0.0
H512 H 0.75325 0.61421 0.49839 0.0
H513 H 0.76494 0.65492 0.51775 0.0
C514 C 0.35413 0.64701 0.55108 0.0
C515 C 0.38834 0.65594 0.54033 0.0
C516 C 0.37039 0.71342 0.51667 0.0
C517 C 0.33627 0.70472 0.5282 0.0
N518 N 0.29622 0.66621 0.56557 0.0
N519 N 0.43028 0.6992 0.52414 0.0
C520 C 0.32835 0.67243 0.54852 0.0
C521 C 0.39683 0.68969 0.52656 0.0
N522 N 0.34601 0.6139 0.561 0.0
N523 N 0.37736 0.74393 0.49467 0.0
H524 H 0.45027 0.68252 0.53181 0.0
H525 H 0.43826 0.72422 0.51913 0.0
H526 H 0.35886 0.76246 0.4883 0.0
H527 H 0.40098 0.75009 0.47978 0.0
H528 H 0.32114 0.60495 0.56363 0.0
H529 H 0.36417 0.59463 0.56326 0.0
H530 H 0.28961 0.64455 0.58545 0.0
H531 H 0.27665 0.6841 0.56335 0.0
C532 C 0.36 0.34846 0.53802 0.0
C533 C 0.34887 0.38187 0.54969 0.0
C534 C 0.28959 0.36269 0.55145 0.0
C535 C 0.30065 0.32933 0.53903 0.0
N536 N 0.34597 0.28837 0.53216 0.0
N537 N 0.30498 0.41964 0.57893 0.0
C538 C 0.33583 0.32155 0.53618 0.0
C539 C 0.31423 0.38853 0.56045 0.0
N540 N 0.39349 0.34281 0.52701 0.0
N541 N 0.25556 0.37004 0.55201 0.0
H542 H 0.32244 0.43926 0.58505 0.0
H543 H 0.28072 0.42514 0.59212 0.0
H544 H 0.23673 0.35169 0.54645 0.0
H545 H 0.24589 0.39463 0.55489 0.0
H546 H 0.40266 0.32 0.51251 0.0
H547 H 0.41207 0.3617 0.5301 0.0
H548 H 0.37123 0.28058 0.53457 0.0
H549 H 0.32874 0.26816 0.53062 0.0
C550 C 0.64838 0.35645 0.55271 0.0
C551 C 0.61385 0.34625 0.54841 0.0
C552 C 0.63144 0.2867 0.5384 0.0
C553 C 0.6658 0.29758 0.53544 0.0
N554 N 0.70779 0.34227 0.53878 0.0
N555 N 0.57163 0.30229 0.53778 0.0
C556 C 0.67457 0.33227 0.54309 0.0
C557 C 0.60513 0.31145 0.54194 0.0
N558 N 0.65599 0.3893 0.56554 0.0
N559 N 0.62414 0.25266 0.53837 0.0
H560 H 0.5517 0.31942 0.5434 0.0
H561 H 0.56345 0.27821 0.52678 0.0
H562 H 0.64287 0.23395 0.53542 0.0
H563 H 0.60005 0.24274 0.54514 0.0
H564 H 0.68043 0.39775 0.57417 0.0
H565 H 0.63737 0.40778 0.57132 0.0
H566 H 0.71561 0.36756 0.53813 0.0
H567 H 0.72768 0.32513 0.53306 0.0
C568 C 0.05824 0.12664 0.19061 0.0
C569 C 0.04672 0.09249 0.18666 0.0
C570 C 0.06708 0.08067 0.27105 0.0
C571 C 0.07789 0.11501 0.27539 0.0
N572 N 0.09076 0.16875 0.2373 0.0
N573 N 0.04565 0.03534 0.21825 0.0
C574 C 0.07581 0.13737 0.23433 0.0
C575 C 0.05317 0.06893 0.22527 0.0
N576 N 0.05128 0.14901 0.15318 0.0
N577 N 0.06875 0.05976 0.31151 0.0
H578 H 0.03414 0.02617 0.18594 0.0
H579 H 0.05295 0.01625 0.24267 0.0
H580 H 0.0803 0.06694 0.34492 0.0
H581 H 0.05728 0.03593 0.31322 0.0
H582 H 0.05532 0.17513 0.15579 0.0
H583 H 0.04001 0.14153 0.11969 0.0
H584 H 0.09315 0.18515 0.20728 0.0
H585 H 0.10327 0.1774 0.26921 0.0
C586 C 0.93075 0.05542 0.22036 0.0
C587 C 0.90684 0.04639 0.18296 0.0
C588 C 0.86037 0.06874 0.2343 0.0
C589 C 0.88449 0.07815 0.27128 0.0
N590 N 0.94288 0.0889 0.29414 0.0
N591 N 0.85029 0.051 0.14891 0.0
C592 C 0.9198 0.0743 0.2624 0.0
C593 C 0.87204 0.05527 0.1882 0.0
N594 N 0.96347 0.04394 0.21762 0.0
N595 N 0.82634 0.07106 0.24417 0.0
H596 H 0.85821 0.04113 0.11479 0.0
H597 H 0.82537 0.06 0.14853 0.0
H598 H 0.81688 0.08131 0.27715 0.0
H599 H 0.80751 0.06092 0.22113 0.0
H600 H 0.98045 0.04538 0.24735 0.0
H601 H 0.97285 0.03068 0.18699 0.0
H602 H 0.96891 0.08987 0.28691 0.0
H603 H 0.93562 0.10294 0.32535 0.0
C604 C 0.93735 0.87182 0.16886 0.0
C605 C 0.94982 0.90555 0.17435 0.0
C606 C 0.92163 0.91063 0.25535 0.0
C607 C 0.90901 0.87696 0.24969 0.0
N608 N 0.89891 0.82779 0.19788 0.0
N609 N 0.94951 0.95923 0.21783 0.0
C610 C 0.91497 0.8583 0.20531 0.0
C611 C 0.94043 0.92569 0.216 0.0
N612 N 0.94775 0.85238 0.12947 0.0
N613 N 0.91654 0.92773 0.29908 0.0
H614 H 0.96403 0.97069 0.19027 0.0
H615 H 0.94068 0.97636 0.24439 0.0
H616 H 0.90164 0.91812 0.32778 0.0
H617 H 0.92843 0.95059 0.30829 0.0
H618 H 0.94308 0.82639 0.12623 0.0
H619 H 0.96266 0.86194 0.10073 0.0
H620 H 0.89904 0.81463 0.16424 0.0
H621 H 0.88311 0.81674 0.22436 0.0
C622 C 0.12803 0.94706 0.19004 0.0
C623 C 0.09293 0.9543 0.18348 0.0
C624 C 0.08012 0.92384 0.26047 0.0
C625 C 0.1154 0.92216 0.27129 0.0
N626 N 0.17351 0.93313 0.24765 0.0
N627 N 0.03549 0.95223 0.21478 0.0
C628 C 0.1396 0.93356 0.23608 0.0
C629 C 0.06882 0.94285 0.21882 0.0
N630 N 0.15017 0.95288 0.15197 0.0
N631 N 0.05744 0.90722 0.29015 0.0
H632 H 0.02602 0.96597 0.18477 0.0
H633 H 0.01779 0.9486 0.24296 0.0
H634 H 0.06503 0.89311 0.32101 0.0
H635 H 0.0317 0.90468 0.28144 0.0
H636 H 0.17552 0.94515 0.15249 0.0
H637 H 0.14228 0.96256 0.11777 0.0
H638 H 0.19208 0.94479 0.22608 0.0
H639 H 0.18297 0.92292 0.28061 0.0
C640 C 0.10681 0.93373 0.85414 0.0
C641 C 0.10635 0.96978 0.85089 0.0
C642 C 0.13336 0.96665 0.76901 0.0
C643 C 0.13173 0.93059 0.77092 0.0
N644 N 0.10992 0.87999 0.80987 0.0
N645 N 0.11192 0.02025 0.80096 0.0
C646 C 0.11626 0.91418 0.81186 0.0
C647 C 0.11751 0.98618 0.80701 0.0
N648 N 0.09978 0.91815 0.89822 0.0
N649 N 0.15114 0.98226 0.73196 0.0
H650 H 0.0997 0.03516 0.8276 0.0
H651 H 0.11633 0.03299 0.76776 0.0
H652 H 0.16307 0.96889 0.70336 0.0
H653 H 0.15639 0.00824 0.73178 0.0
H654 H 0.1034 0.89222 0.9041 0.0
H655 H 0.09332 0.93149 0.9304 0.0
H656 H 0.0954 0.86729 0.83627 0.0
H657 H 0.11636 0.86489 0.77934 0.0
C658 C 0.01728 0.11287 0.80761 0.0
C659 C 0.03375 0.10146 0.85148 0.0
C660 C 0.08933 0.11296 0.81408 0.0
C661 C 0.07275 0.12849 0.77315 0.0
N662 N 0.02091 0.14742 0.73356 0.0
N663 N 0.08526 0.0953 0.89986 0.0
C664 C 0.03667 0.12948 0.77047 0.0
C665 C 0.06977 0.10253 0.85559 0.0
N666 N 0.98329 0.10686 0.8008 0.0
N667 N 0.1237 0.10761 0.81284 0.0
H668 H 0.07186 0.08831 0.93157 0.0
H669 H 0.11111 0.09921 0.90648 0.0
H670 H 0.13882 0.11474 0.78285 0.0
H671 H 0.13669 0.09326 0.83925 0.0
H672 H 0.97053 0.11149 0.76753 0.0
H673 H 0.96847 0.09411 0.82684 0.0
H674 H 0.99483 0.1522 0.73293 0.0
H675 H 0.03419 0.15998 0.70562 0.0
C676 C 0.8994 0.07173 0.85095 0.0
C677 C 0.90206 0.03587 0.84567 0.0
C678 C 0.87529 0.03899 0.76339 0.0
C679 C 0.87474 0.07502 0.76738 0.0
N680 N 0.89339 0.12603 0.8096 0.0
N681 N 0.89989 0.98622 0.79275 0.0
C682 C 0.88904 0.09151 0.80954 0.0
C683 C 0.89217 0.01972 0.80061 0.0
N684 N 0.90504 0.08681 0.89611 0.0
N685 N 0.85857 0.02307 0.72518 0.0
H686 H 0.91285 0.97156 0.81887 0.0
H687 H 0.89649 0.97394 0.75869 0.0
H688 H 0.84581 0.03623 0.69719 0.0
H689 H 0.85496 0.99682 0.72344 0.0
H690 H 0.8999 0.11236 0.90328 0.0
H691 H 0.91183 0.07321 0.92778 0.0
H692 H 0.90699 0.13901 0.83706 0.0
H693 H 0.88629 0.14132 0.77972 0.0
C694 C 0.99172 0.91167 0.79678 0.0
C695 C 0.97124 0.91091 0.84008 0.0
C696 C 0.92105 0.89774 0.78895 0.0
C697 C 0.94229 0.89462 0.74664 0.0
N698 N 0.99876 0.89303 0.71159 0.0
N699 N 0.91738 0.89828 0.87881 0.0
C700 C 0.97792 0.90005 0.7509 0.0
C701 C 0.9361 0.90269 0.8366 0.0
N702 N 0.02393 0.92481 0.79908 0.0
N703 N 0.88645 0.89704 0.78339 0.0
H704 H 0.92749 0.90127 0.91443 0.0
H705 H 0.89262 0.88878 0.87869 0.0
H706 H 0.87452 0.89356 0.74905 0.0
H707 H 0.86963 0.90298 0.81196 0.0
H708 H 0.03887 0.92915 0.76786 0.0
H709 H 0.03448 0.93465 0.83173 0.0
H710 H 0.02523 0.89297 0.71426 0.0
H711 H 0.98971 0.88427 0.67737 0.0
C712 C 0.55692 0.57075 0.72623 0.0
C713 C 0.54577 0.59481 0.69059 0.0
C714 C 0.56443 0.64155 0.74498 0.0
C715 C 0.57588 0.61734 0.78025 0.0
N716 N 0.59158 0.55956 0.79899 0.0
N717 N 0.54612 0.65233 0.66025 0.0
C718 C 0.57502 0.58212 0.76891 0.0
C719 C 0.55197 0.63002 0.69812 0.0
N720 N 0.54811 0.53732 0.72131 0.0
N721 N 0.56382 0.67535 0.75719 0.0
H722 H 0.53711 0.64451 0.62549 0.0
H723 H 0.55317 0.67787 0.6616 0.0
H724 H 0.57316 0.6848 0.79085 0.0
H725 H 0.55208 0.69379 0.73542 0.0
H726 H 0.55151 0.51956 0.74947 0.0
H727 H 0.53496 0.52788 0.69053 0.0
H728 H 0.59473 0.53393 0.78999 0.0
H729 H 0.60506 0.56718 0.83064 0.0
C730 C 0.37349 0.55702 0.69373 0.0
C731 C 0.40811 0.54766 0.68804 0.0
C732 C 0.422 0.57557 0.76712 0.0
C733 C 0.3868 0.57973 0.77658 0.0
N734 N 0.32836 0.57323 0.75037 0.0
N735 N 0.46502 0.54476 0.7216 0.0
C736 C 0.3623 0.57061 0.73997 0.0
C737 C 0.43244 0.55653 0.72495 0.0
N738 N 0.35142 0.55296 0.65476 0.0
N739 N 0.44544 0.58995 0.79849 0.0
H740 H 0.47397 0.53139 0.6908 0.0
H741 H 0.48236 0.5462 0.7509 0.0
H742 H 0.4385 0.60411 0.82975 0.0
H743 H 0.47143 0.59066 0.79089 0.0
H744 H 0.32663 0.5623 0.65471 0.0
H745 H 0.35898 0.54292 0.62058 0.0
H746 H 0.30929 0.56328 0.7276 0.0
H747 H 0.31921 0.58353 0.7835 0.0
C748 C 0.44156 0.42629 0.72208 0.0
C749 C 0.4496 0.40702 0.67903 0.0
C750 C 0.41303 0.36052 0.70809 0.0
C751 C 0.40907 0.37781 0.75411 0.0
N752 N 0.42066 0.42629 0.80678 0.0
N753 N 0.44384 0.35573 0.63031 0.0
C754 C 0.42336 0.41065 0.76146 0.0
C755 C 0.43534 0.37417 0.67164 0.0
N756 N 0.45114 0.45966 0.72508 0.0
N757 N 0.39499 0.33135 0.69907 0.0
H758 H 0.45871 0.3656 0.60173 0.0
H759 H 0.43762 0.3302 0.62523 0.0
H760 H 0.37878 0.32055 0.72526 0.0
H761 H 0.39382 0.31936 0.66454 0.0
H762 H 0.44314 0.47622 0.75298 0.0
H763 H 0.4649 0.4716 0.69711 0.0
H764 H 0.43392 0.44828 0.81656 0.0
H765 H 0.40672 0.41608 0.83606 0.0
C766 C 0.6288 0.44877 0.69442 0.0
C767 C 0.59365 0.45571 0.68767 0.0
C768 C 0.58096 0.42588 0.76519 0.0
C769 C 0.61623 0.42439 0.77602 0.0
N770 N 0.67431 0.43545 0.75232 0.0
N771 N 0.53629 0.45399 0.71931 0.0
C772 C 0.64041 0.43566 0.74069 0.0
C773 C 0.56961 0.44456 0.72329 0.0
N774 N 0.65096 0.45457 0.65637 0.0
N775 N 0.55832 0.40942 0.79511 0.0
H776 H 0.52673 0.46752 0.68915 0.0
H777 H 0.51874 0.45067 0.74777 0.0
H778 H 0.56593 0.39554 0.82619 0.0
H779 H 0.53258 0.40674 0.7864 0.0
H780 H 0.67637 0.44707 0.65707 0.0
H781 H 0.64306 0.46402 0.62204 0.0
H782 H 0.69285 0.44703 0.73065 0.0
H783 H 0.68377 0.42546 0.78544 0.0
C784 C 0.60916 0.48844 0.30879 0.0
C785 C 0.60055 0.4723 0.35406 0.0
C786 C 0.6147 0.41684 0.31755 0.0
C787 C 0.62779 0.43348 0.27505 0.0
N788 N 0.64163 0.48562 0.23255 0.0
N789 N 0.60012 0.42163 0.40451 0.0
C790 C 0.62604 0.46945 0.27114 0.0
C791 C 0.60439 0.43657 0.35921 0.0
N792 N 0.60021 0.52163 0.30115 0.0
N793 N 0.6115 0.3822 0.31774 0.0
H794 H 0.59338 0.43519 0.43637 0.0
H795 H 0.60641 0.39636 0.41154 0.0
H796 H 0.61862 0.36691 0.28773 0.0
H797 H 0.59883 0.36897 0.34557 0.0
H798 H 0.6028 0.5338 0.26709 0.0
H799 H 0.58706 0.53602 0.32749 0.0
H800 H 0.6444 0.51195 0.23077 0.0
H801 H 0.65432 0.47266 0.20426 0.0
C802 C 0.51289 0.66191 0.32814 0.0
C803 C 0.52587 0.63862 0.36359 0.0
C804 C 0.57807 0.63197 0.31472 0.0
C805 C 0.56643 0.65776 0.28208 0.0
N806 N 0.5251 0.70072 0.26083 0.0
N807 N 0.57231 0.60455 0.39483 0.0
C808 C 0.53442 0.67363 0.28955 0.0
C809 C 0.55883 0.62428 0.35792 0.0
N810 N 0.47958 0.67192 0.33038 0.0
N811 N 0.60726 0.61453 0.30387 0.0
H812 H 0.55914 0.59855 0.4272 0.0
H813 H 0.59747 0.59628 0.39548 0.0
H814 H 0.62196 0.61957 0.27256 0.0
H815 H 0.61569 0.59346 0.32365 0.0
H816 H 0.46754 0.68573 0.30246 0.0
H817 H 0.46297 0.66391 0.3581 0.0
H818 H 0.50396 0.71588 0.26819 0.0
H819 H 0.53995 0.70982 0.23173 0.0
C820 C 0.37968 0.51094 0.30663 0.0
C821 C 0.39676 0.52743 0.34663 0.0
C822 C 0.38934 0.58246 0.30551 0.0
C823 C 0.36859 0.56655 0.26897 0.0
N824 N 0.34032 0.5163 0.23755 0.0
N825 N 0.41278 0.57957 0.38859 0.0
C826 C 0.36282 0.5309 0.27015 0.0
C827 C 0.40047 0.56338 0.34717 0.0
N828 N 0.3805 0.47624 0.30266 0.0
N829 N 0.39887 0.61568 0.29995 0.0
H830 H 0.41999 0.56671 0.42072 0.0
H831 H 0.41274 0.60592 0.39298 0.0
H832 H 0.39124 0.63048 0.26982 0.0
H833 H 0.41683 0.62758 0.32266 0.0
H834 H 0.37153 0.46295 0.2717 0.0
H835 H 0.39317 0.46078 0.32811 0.0
H836 H 0.33217 0.49115 0.24017 0.0
H837 H 0.32762 0.53003 0.21008 0.0
C838 C 0.46875 0.43512 0.30826 0.0
C839 C 0.47133 0.4097 0.34541 0.0
C840 C 0.44781 0.36733 0.28753 0.0
C841 C 0.44275 0.39325 0.25173 0.0
N842 N 0.44239 0.4529 0.23101 0.0
N843 N 0.45647 0.35359 0.37427 0.0
C844 C 0.45143 0.42752 0.26302 0.0
C845 C 0.4589 0.37634 0.33615 0.0
N846 N 0.48422 0.46598 0.31515 0.0
N847 N 0.44326 0.33393 0.2746 0.0
H848 H 0.46362 0.35944 0.41068 0.0
H849 H 0.44428 0.33014 0.37085 0.0
H850 H 0.43528 0.32619 0.23932 0.0
H851 H 0.45026 0.31377 0.29744 0.0
H852 H 0.48628 0.48419 0.28735 0.0
H853 H 0.49773 0.47234 0.3473 0.0
H854 H 0.44477 0.47867 0.23957 0.0
H855 H 0.4295 0.44829 0.19769 0.0
loop_
_geom_bond_atom_site_label_1
_geom_bond_atom_site_label_2
_geom_bond_distance
_geom_bond_site_symmetry_2
_ccdc_geom_bond_type
Zn0 O2 1.933 1_556 S
Zn0 O20 1.985 . S
Zn0 O31 1.955 . S
Zn1 O2 1.911 . S
Zn1 O21 1.970 . S
Zn1 O37 1.945 . S
Zn1 O44 1.981 . S
O2 Zn0 1.933 1_554 S
O2 Zn1 1.911 . S
O2 H3 0.841 1_655 S
H3 O2 0.841 1_455 S
C4 O5 1.246 . S
C4 O33 1.276 1_545 S
O5 C4 1.246 . S
Zn6 O8 1.911 . S
Zn6 O23 1.970 . S
Zn6 O40 1.945 . S
Zn6 O47 1.981 . S
Zn7 O8 1.933 1_556 S
Zn7 O22 1.985 . S
Zn7 O29 1.955 . S
O8 Zn6 1.911 . S
O8 Zn7 1.933 1_554 S
O8 H9 0.841 1_455 S
H9 O8 0.841 1_655 S
Zn10 O11 1.933 1_556 S
Zn10 O24 1.985 . S
Zn10 O33 1.955 . S
O11 Zn10 1.933 1_554 S
O11 Zn12 1.911 . S
O11 H13 0.841 1_565 S
Zn12 O11 1.911 . S
Zn12 O25 1.970 . S
Zn12 O41 1.981 . S
Zn12 O43 1.945 . S
H13 O11 0.841 1_545 S
Zn14 O15 1.933 1_556 S
Zn14 O27 1.985 . S
Zn14 O35 1.955 . S
O15 Zn14 1.933 1_554 S
O15 H16 0.841 1_545 S
O15 Zn17 1.911 . S
H16 O15 0.841 1_565 S
Zn17 O15 1.911 . S
Zn17 O28 1.970 . S
Zn17 O38 1.981 . S
Zn17 O46 1.945 . S
C18 O19 1.246 . S
C18 O35 1.276 1_565 S
O19 C18 1.246 . S
O20 Zn0 1.985 . S
O20 C30 1.245 1_556 S
O21 Zn1 1.970 . S
O21 C30 1.263 . S
O22 Zn7 1.985 . S
O22 C34 1.245 1_556 S
O23 Zn6 1.970 . S
O23 C34 1.263 . S
O24 Zn10 1.985 . S
O24 C39 1.245 1_556 S
O25 Zn12 1.970 . S
O25 C39 1.263 . S
C26 O37 1.262 1_455 S
C26 O38 1.245 . S
O27 Zn14 1.985 . S
O27 C45 1.245 1_556 S
O28 Zn17 1.970 . S
O28 C45 1.263 . S
O29 Zn7 1.955 . S
O29 C48 1.276 1_455 S
C30 O20 1.245 1_554 S
C30 O21 1.263 . S
O31 Zn0 1.955 . S
O31 C50 1.276 1_655 S
C32 O40 1.262 1_655 S
C32 O41 1.245 . S
O33 C4 1.276 1_565 S
O33 Zn10 1.955 . S
C34 O22 1.245 1_554 S
C34 O23 1.263 . S
O35 Zn14 1.955 . S
O35 C18 1.276 1_545 S
C36 O43 1.262 1_545 S
C36 O44 1.245 . S
O37 Zn1 1.945 . S
O37 C26 1.262 1_655 S
O38 Zn17 1.981 . S
O38 C26 1.245 . S
C39 O24 1.245 1_554 S
C39 O25 1.263 . S
O40 Zn6 1.945 . S
O40 C32 1.262 1_455 S
O41 Zn12 1.981 . S
O41 C32 1.245 . S
C42 O46 1.262 1_565 S
C42 O47 1.245 . S
O43 Zn12 1.945 . S
O43 C36 1.262 1_565 S
O44 Zn1 1.981 . S
O44 C36 1.245 . S
C45 O27 1.245 1_554 S
C45 O28 1.263 . S
O46 Zn17 1.945 . S
O46 C42 1.262 1_545 S
O47 Zn6 1.981 . S
O47 C42 1.245 . S
C48 O29 1.276 1_655 S
C48 O49 1.246 . S
O49 C48 1.246 . S
C50 O31 1.276 1_455 S
C50 O51 1.246 . S
O51 C50 1.246 . S
Zn52 O54 1.933 . S
Zn52 O72 1.985 . S
Zn52 O83 1.955 . S
Zn53 O54 1.911 . S
Zn53 O73 1.970 . S
Zn53 O89 1.945 . S
Zn53 O96 1.981 . S
O54 Zn52 1.933 . S
O54 Zn53 1.911 . S
O54 H55 0.841 . S
H55 O54 0.841 . S
C56 O57 1.246 . S
C56 O85 1.276 . S
O57 C56 1.246 . S
Zn58 O60 1.911 . S
Zn58 O75 1.970 . S
Zn58 O92 1.945 . S
Zn58 O99 1.981 . S
Zn59 O60 1.933 . S
Zn59 O74 1.985 . S
Zn59 O81 1.955 . S
O60 Zn58 1.911 . S
O60 Zn59 1.933 . S
O60 H61 0.841 . S
H61 O60 0.841 . S
Zn62 O63 1.933 . S
Zn62 O76 1.985 . S
Zn62 O85 1.955 . S
O63 Zn62 1.933 . S
O63 Zn64 1.911 . S
O63 H65 0.841 . S
Zn64 O63 1.911 . S
Zn64 O77 1.970 . S
Zn64 O93 1.981 . S
Zn64 O95 1.945 . S
H65 O63 0.841 . S
Zn66 O67 1.933 . S
Zn66 O79 1.985 . S
Zn66 O87 1.955 . S
O67 Zn66 1.933 . S
O67 H68 0.841 . S
O67 Zn69 1.911 . S
H68 O67 0.841 . S
Zn69 O67 1.911 . S
Zn69 O80 1.970 . S
Zn69 O90 1.981 . S
Zn69 O98 1.945 . S
C70 O71 1.246 . S
C70 O87 1.276 . S
O71 C70 1.246 . S
O72 Zn52 1.985 . S
O72 C82 1.245 . S
O73 Zn53 1.970 . S
O73 C82 1.263 . S
O74 Zn59 1.985 . S
O74 C86 1.245 . S
O75 Zn58 1.970 . S
O75 C86 1.263 . S
O76 Zn62 1.985 . S
O76 C91 1.245 . S
O77 Zn64 1.970 . S
O77 C91 1.263 . S
C78 O89 1.262 . S
C78 O90 1.245 . S
O79 Zn66 1.985 . S
O79 C97 1.245 . S
O80 Zn69 1.970 . S
O80 C97 1.263 . S
O81 Zn59 1.955 . S
O81 C100 1.276 . S
C82 O72 1.245 . S
C82 O73 1.263 . S
O83 Zn52 1.955 . S
O83 C102 1.276 . S
C84 O92 1.262 . S
C84 O93 1.245 . S
O85 C56 1.276 . S
O85 Zn62 1.955 . S
C86 O74 1.245 . S
C86 O75 1.263 . S
O87 Zn66 1.955 . S
O87 C70 1.276 . S
C88 O95 1.262 . S
C88 O96 1.245 . S
O89 Zn53 1.945 . S
O89 C78 1.262 . S
O90 Zn69 1.981 . S
O90 C78 1.245 . S
C91 O76 1.245 . S
C91 O77 1.263 . S
O92 Zn58 1.945 . S
O92 C84 1.262 . S
O93 Zn64 1.981 . S
O93 C84 1.245 . S
C94 O98 1.262 . S
C94 O99 1.245 . S
O95 Zn64 1.945 . S
O95 C88 1.262 . S
O96 Zn53 1.981 . S
O96 C88 1.245 . S
C97 O79 1.245 . S
C97 O80 1.263 . S
O98 Zn69 1.945 . S
O98 C94 1.262 . S
O99 Zn58 1.981 . S
O99 C94 1.245 . S
C100 O81 1.276 . S
C100 O101 1.246 . S
O101 C100 1.246 . S
C102 O83 1.276 . S
C102 O103 1.246 . S
O103 C102 1.246 . S
C104 C105 1.264 . S
C104 C109 1.479 . S
C104 C114 1.465 . S
C105 C104 1.264 . S
C105 C107 1.339 . S
C105 H132 0.931 . S
C106 C107 1.395 . S
C106 C108 1.320 . S
C107 C105 1.339 . S
C107 C106 1.395 . S
C107 H133 0.929 . S
C108 C106 1.320 . S
C108 C109 1.405 . S
C108 H134 0.930 . S
C109 C104 1.479 . S
C109 C108 1.405 . S
C109 H135 0.931 . S
U110 O111 2.454 1_554 S
U110 O112 2.458 . S
U110 C113 2.984 . S
U110 C114 2.847 1_554 S
U110 C127 2.882 . S
U110 O128 2.441 1_554 S
U110 O129 2.420 1_554 S
U110 O130 2.455 . S
U110 O131 2.449 . S
O111 U110 2.454 1_556 S
O111 C113 1.353 1_556 S
O112 U110 2.458 . S
O112 C113 1.286 . S
C113 U110 2.984 . S
C113 O111 1.353 1_554 S
C113 O112 1.286 . S
C113 C115 1.363 . S
C114 C104 1.465 . S
C114 U110 2.847 1_556 S
C114 O128 1.249 . S
C114 O129 1.202 . S
C115 C113 1.363 . S
C115 C117 1.408 1_554 S
C115 C120 1.342 . S
C116 C117 1.310 . S
C116 C119 1.461 1_556 S
C116 H136 0.932 . S
C117 C115 1.408 1_556 S
C117 C116 1.310 . S
C117 H137 0.930 . S
C118 C119 1.474 . S
C118 C120 1.285 . S
C118 H138 0.929 . S
C119 C116 1.461 1_554 S
C119 C118 1.474 . S
C120 C115 1.342 . S
C120 C118 1.285 . S
C120 H139 0.930 . S
C121 C124 1.424 . S
C121 C126 1.245 . S
C121 C127 1.428 . S
C122 C125 1.260 . S
C122 C126 1.477 . S
C122 H140 0.932 . S
C123 C124 1.384 . S
C123 C125 1.479 . S
C123 H141 0.929 . S
C124 C121 1.424 . S
C124 C123 1.384 . S
C124 H142 0.928 . S
C125 C122 1.260 . S
C125 C123 1.479 . S
C126 C121 1.245 . S
C126 C122 1.477 . S
C126 H143 0.932 . S
C127 U110 2.882 . S
C127 C121 1.428 . S
C127 O130 1.301 . S
C127 O131 1.282 . S
O128 U110 2.441 1_556 S
O128 C114 1.249 . S
O129 U110 2.420 1_556 S
O129 C114 1.202 . S
O130 U110 2.455 . S
O130 C127 1.301 . S
O131 U110 2.449 . S
O131 C127 1.282 . S
H132 C105 0.931 . S
H133 C107 0.929 . S
H134 C108 0.930 . S
H135 C109 0.931 . S
H136 C116 0.932 . S
H137 C117 0.930 . S
H138 C118 0.929 . S
H139 C120 0.930 . S
H140 C122 0.932 . S
H141 C123 0.929 . S
H142 C124 0.928 . S
H143 C126 0.932 . S
C144 C145 1.264 . S
C144 C149 1.479 . S
C144 C154 1.465 . S
C145 C144 1.264 . S
C145 C147 1.339 . S
C145 H172 0.931 . S
C146 C147 1.395 . S
C146 C148 1.320 . S
C147 C145 1.339 . S
C147 C146 1.395 . S
C147 H173 0.929 . S
C148 C146 1.320 . S
C148 C149 1.405 . S
C148 H174 0.930 . S
C149 C144 1.479 . S
C149 C148 1.405 . S
C149 H175 0.931 . S
U150 O151 2.454 . S
U150 O152 2.458 1_554 S
U150 C153 2.984 . S
U150 C154 2.847 . S
U150 C167 2.882 1_554 S
U150 O168 2.441 . S
U150 O169 2.420 . S
U150 O170 2.455 1_554 S
U150 O171 2.449 1_554 S
O151 U150 2.454 . S
O151 C153 1.353 . S
O152 U150 2.458 1_556 S
O152 C153 1.286 1_556 S
C153 U150 2.984 . S
C153 O151 1.353 . S
C153 O152 1.286 1_554 S
C153 C155 1.363 . S
C154 C144 1.465 . S
C154 U150 2.847 . S
C154 O168 1.249 . S
C154 O169 1.202 . S
C155 C153 1.363 . S
C155 C157 1.408 . S
C155 C160 1.342 1_554 S
C156 C157 1.310 . S
C156 C159 1.461 . S
C156 H176 0.932 . S
C157 C155 1.408 . S
C157 C156 1.310 . S
C157 H177 0.930 . S
C158 C159 1.474 1_556 S
C158 C160 1.285 . S
C158 H178 0.929 . S
C159 C156 1.461 . S
C159 C158 1.474 1_554 S
C160 C155 1.342 1_556 S
C160 C158 1.285 . S
C160 H179 0.930 . S
C161 C164 1.424 . S
C161 C166 1.245 . S
C161 C167 1.428 . S
C162 C165 1.260 . S
C162 C166 1.477 . S
C162 H180 0.932 . S
C163 C164 1.384 . S
C163 C165 1.479 . S
C163 H181 0.929 . S
C164 C161 1.424 . S
C164 C163 1.384 . S
C164 H182 0.928 . S
C165 C162 1.260 . S
C165 C163 1.479 . S
C166 C161 1.245 . S
C166 C162 1.477 . S
C166 H183 0.932 . S
C167 U150 2.882 1_556 S
C167 C161 1.428 . S
C167 O170 1.301 . S
C167 O171 1.282 . S
O168 U150 2.441 . S
O168 C154 1.249 . S
O169 U150 2.420 . S
O169 C154 1.202 . S
O170 U150 2.455 1_556 S
O170 C167 1.301 . S
O171 U150 2.449 1_556 S
O171 C167 1.282 . S
H172 C145 0.931 . S
H173 C147 0.929 . S
H174 C148 0.930 . S
H175 C149 0.931 . S
H176 C156 0.932 . S
H177 C157 0.930 . S
H178 C158 0.929 . S
H179 C160 0.930 . S
H180 C162 0.932 . S
H181 C163 0.929 . S
H182 C164 0.928 . S
H183 C166 0.932 . S
C184 C185 1.264 . S
C184 C189 1.479 . S
C184 C194 1.465 . S
C185 C184 1.264 . S
C185 C187 1.339 . S
C185 H212 0.931 . S
C186 C187 1.395 . S
C186 C188 1.320 . S
C187 C185 1.339 . S
C187 C186 1.395 . S
C187 H213 0.929 . S
C188 C186 1.320 . S
C188 C189 1.405 . S
C188 H214 0.930 . S
C189 C184 1.479 . S
C189 C188 1.405 . S
C189 H215 0.931 . S
U190 O191 2.454 . S
U190 O192 2.458 1_554 S
U190 C193 2.984 . S
U190 C194 2.847 . S
U190 C207 2.882 1_554 S
U190 O208 2.441 . S
U190 O209 2.420 . S
U190 O210 2.455 1_554 S
U190 O211 2.449 1_554 S
O191 U190 2.454 . S
O191 C193 1.353 . S
O192 U190 2.458 1_556 S
O192 C193 1.286 1_556 S
C193 U190 2.984 . S
C193 O191 1.353 . S
C193 O192 1.286 1_554 S
C193 C195 1.363 . S
C194 C184 1.465 . S
C194 U190 2.847 . S
C194 O208 1.249 . S
C194 O209 1.202 . S
C195 C193 1.363 . S
C195 C197 1.408 . S
C195 C200 1.342 1_554 S
C196 C197 1.310 . S
C196 C199 1.461 . S
C196 H216 0.932 . S
C197 C195 1.408 . S
C197 C196 1.310 . S
C197 H217 0.930 . S
C198 C199 1.474 1_556 S
C198 C200 1.285 . S
C198 H218 0.929 . S
C199 C196 1.461 . S
C199 C198 1.474 1_554 S
C200 C195 1.342 1_556 S
C200 C198 1.285 . S
C200 H219 0.930 . S
C201 C204 1.424 . S
C201 C206 1.245 . S
C201 C207 1.428 . S
C202 C205 1.260 . S
C202 C206 1.477 . S
C202 H220 0.932 . S
C203 C204 1.384 . S
C203 C205 1.479 . S
C203 H221 0.929 . S
C204 C201 1.424 . S
C204 C203 1.384 . S
C204 H222 0.928 . S
C205 C202 1.260 . S
C205 C203 1.479 . S
C206 C201 1.245 . S
C206 C202 1.477 . S
C206 H223 0.932 . S
C207 U190 2.882 1_556 S
C207 C201 1.428 . S
C207 O210 1.301 . S
C207 O211 1.282 . S
O208 U190 2.441 . S
O208 C194 1.249 . S
O209 U190 2.420 . S
O209 C194 1.202 . S
O210 U190 2.455 1_556 S
O210 C207 1.301 . S
O211 U190 2.449 1_556 S
O211 C207 1.282 . S
H212 C185 0.931 . S
H213 C187 0.929 . S
H214 C188 0.930 . S
H215 C189 0.931 . S
H216 C196 0.932 . S
H217 C197 0.930 . S
H218 C198 0.929 . S
H219 C200 0.930 . S
H220 C202 0.932 . S
H221 C203 0.929 . S
H222 C204 0.928 . S
H223 C206 0.932 . S
C224 C225 1.264 . S
C224 C229 1.479 . S
C224 C234 1.465 . S
C225 C224 1.264 . S
C225 C227 1.339 . S
C225 H252 0.931 . S
C226 C227 1.395 . S
C226 C228 1.320 . S
C227 C225 1.339 . S
C227 C226 1.395 . S
C227 H253 0.929 . S
C228 C226 1.320 . S
C228 C229 1.405 . S
C228 H254 0.930 . S
C229 C224 1.479 . S
C229 C228 1.405 . S
C229 H255 0.931 . S
U230 O231 2.454 . S
U230 O232 2.458 1_554 S
U230 C233 2.984 . S
U230 C234 2.847 . S
U230 C247 2.882 1_554 S
U230 O248 2.441 . S
U230 O249 2.420 . S
U230 O250 2.455 1_554 S
U230 O251 2.449 1_554 S
O231 U230 2.454 . S
O231 C233 1.353 . S
O232 U230 2.458 1_556 S
O232 C233 1.286 1_556 S
C233 U230 2.984 . S
C233 O231 1.353 . S
C233 O232 1.286 1_554 S
C233 C235 1.363 . S
C234 C224 1.465 . S
C234 U230 2.847 . S
C234 O248 1.249 . S
C234 O249 1.202 . S
C235 C233 1.363 . S
C235 C237 1.408 . S
C235 C240 1.342 1_554 S
C236 C237 1.310 . S
C236 C239 1.461 . S
C236 H256 0.932 . S
C237 C235 1.408 . S
C237 C236 1.310 . S
C237 H257 0.930 . S
C238 C239 1.474 1_556 S
C238 C240 1.285 . S
C238 H258 0.929 . S
C239 C236 1.461 . S
C239 C238 1.474 1_554 S
C240 C235 1.342 1_556 S
C240 C238 1.285 . S
C240 H259 0.930 . S
C241 C244 1.424 . S
C241 C246 1.245 . S
C241 C247 1.428 . S
C242 C245 1.260 . S
C242 C246 1.477 . S
C242 H260 0.932 . S
C243 C244 1.384 . S
C243 C245 1.479 . S
C243 H261 0.929 . S
C244 C241 1.424 . S
C244 C243 1.384 . S
C244 H262 0.928 . S
C245 C242 1.260 . S
C245 C243 1.479 . S
C246 C241 1.245 . S
C246 C242 1.477 . S
C246 H263 0.932 . S
C247 U230 2.882 1_556 S
C247 C241 1.428 . S
C247 O250 1.301 . S
C247 O251 1.282 . S
O248 U230 2.441 . S
O248 C234 1.249 . S
O249 U230 2.420 . S
O249 C234 1.202 . S
O250 U230 2.455 1_556 S
O250 C247 1.301 . S
O251 U230 2.449 1_556 S
O251 C247 1.282 . S
H252 C225 0.931 . S
H253 C227 0.929 . S
H254 C228 0.930 . S
H255 C229 0.931 . S
H256 C236 0.932 . S
H257 C237 0.930 . S
H258 C238 0.929 . S
H259 C240 0.930 . S
H260 C242 0.932 . S
H261 C243 0.929 . S
H262 C244 0.928 . S
H263 C246 0.932 . S
C264 C265 1.264 . S
C264 C269 1.479 . S
C264 C274 1.465 . S
C265 C264 1.264 . S
C265 C267 1.339 . S
C265 H292 0.931 . S
C266 C267 1.395 . S
C266 C268 1.320 . S
C267 C265 1.339 . S
C267 C266 1.395 . S
C267 H293 0.929 . S
C268 C266 1.320 . S
C268 C269 1.405 . S
C268 H294 0.930 . S
C269 C264 1.479 . S
C269 C268 1.405 . S
C269 H295 0.931 . S
U270 O271 2.454 . S
U270 O272 2.458 . S
U270 C273 2.984 . S
U270 C274 2.847 . S
U270 C287 2.882 . S
U270 O288 2.441 . S
U270 O289 2.420 . S
U270 O290 2.455 . S
U270 O291 2.449 . S
O271 U270 2.454 . S
O271 C273 1.353 . S
O272 U270 2.458 . S
O272 C273 1.286 . S
C273 U270 2.984 . S
C273 O271 1.353 . S
C273 O272 1.286 . S
C273 C275 1.363 . S
C274 C264 1.465 . S
C274 U270 2.847 . S
C274 O288 1.249 . S
C274 O289 1.202 . S
C275 C273 1.363 . S
C275 C277 1.408 . S
C275 C280 1.342 . S
C276 C277 1.310 . S
C276 C279 1.461 . S
C276 H296 0.932 . S
C277 C275 1.408 . S
C277 C276 1.310 . S
C277 H297 0.930 . S
C278 C279 1.474 . S
C278 C280 1.285 . S
C278 H298 0.929 . S
C279 C276 1.461 . S
C279 C278 1.474 . S
C280 C275 1.342 . S
C280 C278 1.285 . S
C280 H299 0.930 . S
C281 C284 1.424 . S
C281 C286 1.245 . S
C281 C287 1.428 . S
C282 C285 1.260 . S
C282 C286 1.477 . S
C282 H300 0.932 . S
C283 C284 1.384 . S
C283 C285 1.479 . S
C283 H301 0.929 . S
C284 C281 1.424 . S
C284 C283 1.384 . S
C284 H302 0.928 . S
C285 C282 1.260 . S
C285 C283 1.479 . S
C286 C281 1.245 . S
C286 C282 1.477 . S
C286 H303 0.932 . S
C287 U270 2.882 . S
C287 C281 1.428 . S
C287 O290 1.301 . S
C287 O291 1.282 . S
O288 U270 2.441 . S
O288 C274 1.249 . S
O289 U270 2.420 . S
O289 C274 1.202 . S
O290 U270 2.455 . S
O290 C287 1.301 . S
O291 U270 2.449 . S
O291 C287 1.282 . S
H292 C265 0.931 . S
H293 C267 0.929 . S
H294 C268 0.930 . S
H295 C269 0.931 . S
H296 C276 0.932 . S
H297 C277 0.930 . S
H298 C278 0.929 . S
H299 C280 0.930 . S
H300 C282 0.932 . S
H301 C283 0.929 . S
H302 C284 0.928 . S
H303 C286 0.932 . S
C304 C305 1.264 . S
C304 C309 1.479 . S
C304 C314 1.465 . S
C305 C304 1.264 . S
C305 C307 1.339 . S
C305 H332 0.931 . S
C306 C307 1.395 . S
C306 C308 1.320 . S
C307 C305 1.339 . S
C307 C306 1.395 . S
C307 H333 0.929 . S
C308 C306 1.320 . S
C308 C309 1.405 . S
C308 H334 0.930 . S
C309 C304 1.479 . S
C309 C308 1.405 . S
C309 H335 0.931 . S
U310 O311 2.454 . S
U310 O312 2.458 . S
U310 C313 2.984 . S
U310 C314 2.847 . S
U310 C327 2.882 . S
U310 O328 2.441 . S
U310 O329 2.420 . S
U310 O330 2.455 . S
U310 O331 2.449 . S
O311 U310 2.454 . S
O311 C313 1.353 . S
O312 U310 2.458 . S
O312 C313 1.286 . S
C313 U310 2.984 . S
C313 O311 1.353 . S
C313 O312 1.286 . S
C313 C315 1.363 . S
C314 C304 1.465 . S
C314 U310 2.847 . S
C314 O328 1.249 . S
C314 O329 1.202 . S
C315 C313 1.363 . S
C315 C317 1.408 . S
C315 C320 1.342 . S
C316 C317 1.310 . S
C316 C319 1.461 . S
C316 H336 0.932 . S
C317 C315 1.408 . S
C317 C316 1.310 . S
C317 H337 0.930 . S
C318 C319 1.474 . S
C318 C320 1.285 . S
C318 H338 0.929 . S
C319 C316 1.461 . S
C319 C318 1.474 . S
C320 C315 1.342 . S
C320 C318 1.285 . S
C320 H339 0.930 . S
C321 C324 1.424 . S
C321 C326 1.245 . S
C321 C327 1.428 . S
C322 C325 1.260 . S
C322 C326 1.477 . S
C322 H340 0.932 . S
C323 C324 1.384 . S
C323 C325 1.479 . S
C323 H341 0.929 . S
C324 C321 1.424 . S
C324 C323 1.384 . S
C324 H342 0.928 . S
C325 C322 1.260 . S
C325 C323 1.479 . S
C326 C321 1.245 . S
C326 C322 1.477 . S
C326 H343 0.932 . S
C327 U310 2.882 . S
C327 C321 1.428 . S
C327 O330 1.301 . S
C327 O331 1.282 . S
O328 U310 2.441 . S
O328 C314 1.249 . S
O329 U310 2.420 . S
O329 C314 1.202 . S
O330 U310 2.455 . S
O330 C327 1.301 . S
O331 U310 2.449 . S
O331 C327 1.282 . S
H332 C305 0.931 . S
H333 C307 0.929 . S
H334 C308 0.930 . S
H335 C309 0.931 . S
H336 C316 0.932 . S
H337 C317 0.930 . S
H338 C318 0.929 . S
H339 C320 0.930 . S
H340 C322 0.932 . S
H341 C323 0.929 . S
H342 C324 0.928 . S
H343 C326 0.932 . S
C344 C345 1.264 . S
C344 C349 1.479 . S
C344 C354 1.465 . S
C345 C344 1.264 . S
C345 C347 1.339 . S
C345 H372 0.931 . S
C346 C347 1.395 . S
C346 C348 1.320 . S
C347 C345 1.339 . S
C347 C346 1.395 . S
C347 H373 0.929 . S
C348 C346 1.320 . S
C348 C349 1.405 . S
C348 H374 0.930 . S
C349 C344 1.479 . S
C349 C348 1.405 . S
C349 H375 0.931 . S
U350 O351 2.454 . S
U350 O352 2.458 . S
U350 C353 2.984 . S
U350 C354 2.847 . S
U350 C367 2.882 . S
U350 O368 2.441 . S
U350 O369 2.420 . S
U350 O370 2.455 . S
U350 O371 2.449 . S
O351 U350 2.454 . S
O351 C353 1.353 . S
O352 U350 2.458 . S
O352 C353 1.286 . S
C353 U350 2.984 . S
C353 O351 1.353 . S
C353 O352 1.286 . S
C353 C355 1.363 . S
C354 C344 1.465 . S
C354 U350 2.847 . S
C354 O368 1.249 . S
C354 O369 1.202 . S
C355 C353 1.363 . S
C355 C357 1.408 . S
C355 C360 1.342 . S
C356 C357 1.310 . S
C356 C359 1.461 . S
C356 H376 0.932 . S
C357 C355 1.408 . S
C357 C356 1.310 . S
C357 H377 0.930 . S
C358 C359 1.474 . S
C358 C360 1.285 . S
C358 H378 0.929 . S
C359 C356 1.461 . S
C359 C358 1.474 . S
C360 C355 1.342 . S
C360 C358 1.285 . S
C360 H379 0.930 . S
C361 C364 1.424 . S
C361 C366 1.245 . S
C361 C367 1.428 . S
C362 C365 1.260 . S
C362 C366 1.477 . S
C362 H380 0.932 . S
C363 C364 1.384 . S
C363 C365 1.479 . S
C363 H381 0.929 . S
C364 C361 1.424 . S
C364 C363 1.384 . S
C364 H382 0.928 . S
C365 C362 1.260 . S
C365 C363 1.479 . S
C366 C361 1.245 . S
C366 C362 1.477 . S
C366 H383 0.932 . S
C367 U350 2.882 . S
C367 C361 1.428 . S
C367 O370 1.301 . S
C367 O371 1.282 . S
O368 U350 2.441 . S
O368 C354 1.249 . S
O369 U350 2.420 . S
O369 C354 1.202 . S
O370 U350 2.455 . S
O370 C367 1.301 . S
O371 U350 2.449 . S
O371 C367 1.282 . S
H372 C345 0.931 . S
H373 C347 0.929 . S
H374 C348 0.930 . S
H375 C349 0.931 . S
H376 C356 0.932 . S
H377 C357 0.930 . S
H378 C358 0.929 . S
H379 C360 0.930 . S
H380 C362 0.932 . S
H381 C363 0.929 . S
H382 C364 0.928 . S
H383 C366 0.932 . S
C384 C385 1.264 . S
C384 C389 1.479 . S
C384 C394 1.465 . S
C385 C384 1.264 . S
C385 C387 1.339 . S
C385 H412 0.931 . S
C386 C387 1.395 . S
C386 C388 1.320 . S
C387 C385 1.339 . S
C387 C386 1.395 . S
C387 H413 0.929 . S
C388 C386 1.320 . S
C388 C389 1.405 . S
C388 H414 0.930 . S
C389 C384 1.479 . S
C389 C388 1.405 . S
C389 H415 0.931 . S
U390 O391 2.454 . S
U390 O392 2.458 . S
U390 C393 2.984 . S
U390 C394 2.847 . S
U390 C407 2.882 . S
U390 O408 2.441 . S
U390 O409 2.420 . S
U390 O410 2.455 . S
U390 O411 2.449 . S
O391 U390 2.454 . S
O391 C393 1.353 . S
O392 U390 2.458 . S
O392 C393 1.286 . S
C393 U390 2.984 . S
C393 O391 1.353 . S
C393 O392 1.286 . S
C393 C395 1.363 . S
C394 C384 1.465 . S
C394 U390 2.847 . S
C394 O408 1.249 . S
C394 O409 1.202 . S
C395 C393 1.363 . S
C395 C397 1.408 . S
C395 C400 1.342 . S
C396 C397 1.310 . S
C396 C399 1.461 . S
C396 H416 0.932 . S
C397 C395 1.408 . S
C397 C396 1.310 . S
C397 H417 0.930 . S
C398 C399 1.474 . S
C398 C400 1.285 . S
C398 H418 0.929 . S
C399 C396 1.461 . S
C399 C398 1.474 . S
C400 C395 1.342 . S
C400 C398 1.285 . S
C400 H419 0.930 . S
C401 C404 1.424 . S
C401 C406 1.245 . S
C401 C407 1.428 . S
C402 C405 1.260 . S
C402 C406 1.477 . S
C402 H420 0.932 . S
C403 C404 1.384 . S
C403 C405 1.479 . S
C403 H421 0.929 . S
C404 C401 1.424 . S
C404 C403 1.384 . S
C404 H422 0.928 . S
C405 C402 1.260 . S
C405 C403 1.479 . S
C406 C401 1.245 . S
C406 C402 1.477 . S
C406 H423 0.932 . S
C407 U390 2.882 . S
C407 C401 1.428 . S
C407 O410 1.301 . S
C407 O411 1.282 . S
O408 U390 2.441 . S
O408 C394 1.249 . S
O409 U390 2.420 . S
O409 C394 1.202 . S
O410 U390 2.455 . S
O410 C407 1.301 . S
O411 U390 2.449 . S
O411 C407 1.282 . S
H412 C385 0.931 . S
H413 C387 0.929 . S
H414 C388 0.930 . S
H415 C389 0.931 . S
H416 C396 0.932 . S
H417 C397 0.930 . S
H418 C398 0.929 . S
H419 C400 0.930 . S
H420 C402 0.932 . S
H421 C403 0.929 . S
H422 C404 0.928 . S
H423 C406 0.932 . S
C424 C425 1.363 . S
C424 C430 1.379 . S
C424 N432 1.356 . S
C425 C424 1.363 . S
C425 C431 1.363 1_554 S
C426 C427 1.363 1_556 S
C426 C431 1.379 . S
C426 N433 1.356 . S
C427 C426 1.363 1_554 S
C427 C430 1.363 . S
N428 C430 1.356 . S
N428 H440 0.984 . S
N428 H441 0.985 . S
N429 C431 1.356 . S
N429 H434 0.984 . S
N429 H435 0.985 . S
C430 C424 1.379 . S
C430 C427 1.363 . S
C430 N428 1.356 . S
C431 C425 1.363 1_556 S
C431 C426 1.379 . S
C431 N429 1.356 . S
N432 C424 1.356 . S
N432 H438 0.984 . S
N432 H439 0.984 . S
N433 C426 1.356 . S
N433 H436 0.984 . S
N433 H437 0.985 . S
H434 N429 0.984 . S
H435 N429 0.985 . S
H436 N433 0.984 . S
H437 N433 0.985 . S
H438 N432 0.984 . S
H439 N432 0.984 . S
H440 N428 0.984 . S
H441 N428 0.985 . S
C442 C443 1.363 . S
C442 C448 1.379 . S
C442 N450 1.356 . S
C443 C442 1.363 . S
C443 C449 1.363 1_554 S
C444 C445 1.363 1_556 S
C444 C449 1.379 . S
C444 N451 1.356 . S
C445 C444 1.363 1_554 S
C445 C448 1.363 . S
N446 C448 1.356 . S
N446 H458 0.984 . S
N446 H459 0.985 . S
N447 C449 1.356 . S
N447 H452 0.984 . S
N447 H453 0.985 . S
C448 C442 1.379 . S
C448 C445 1.363 . S
C448 N446 1.356 . S
C449 C443 1.363 1_556 S
C449 C444 1.379 . S
C449 N447 1.356 . S
N450 C442 1.356 . S
N450 H456 0.984 . S
N450 H457 0.984 . S
N451 C444 1.356 . S
N451 H454 0.984 . S
N451 H455 0.985 . S
H452 N447 0.984 . S
H453 N447 0.985 . S
H454 N451 0.984 . S
H455 N451 0.985 . S
H456 N450 0.984 . S
H457 N450 0.984 . S
H458 N446 0.984 . S
H459 N446 0.985 . S
C460 C461 1.363 1_556 S
C460 C466 1.379 . S
C460 N468 1.356 . S
C461 C460 1.363 1_554 S
C461 C467 1.363 . S
C462 C463 1.363 . S
C462 C467 1.379 . S
C462 N469 1.356 . S
C463 C462 1.363 . S
C463 C466 1.363 1_554 S
N464 C466 1.356 . S
N464 H476 0.984 . S
N464 H477 0.985 . S
N465 C467 1.356 . S
N465 H470 0.984 . S
N465 H471 0.985 . S
C466 C460 1.379 . S
C466 C463 1.363 1_556 S
C466 N464 1.356 . S
C467 C461 1.363 . S
C467 C462 1.379 . S
C467 N465 1.356 . S
N468 C460 1.356 . S
N468 H474 0.984 . S
N468 H475 0.984 . S
N469 C462 1.356 . S
N469 H472 0.984 . S
N469 H473 0.985 . S
H470 N465 0.984 . S
H471 N465 0.985 . S
H472 N469 0.984 . S
H473 N469 0.985 . S
H474 N468 0.984 . S
H475 N468 0.984 . S
H476 N464 0.984 . S
H477 N464 0.985 . S
C478 C479 1.363 . S
C478 C484 1.379 . S
C478 N486 1.356 . S
C479 C478 1.363 . S
C479 C485 1.363 1_554 S
C480 C481 1.363 1_556 S
C480 C485 1.379 . S
C480 N487 1.356 . S
C481 C480 1.363 1_554 S
C481 C484 1.363 . S
N482 C484 1.356 . S
N482 H494 0.984 . S
N482 H495 0.985 . S
N483 C485 1.356 . S
N483 H488 0.984 . S
N483 H489 0.985 . S
C484 C478 1.379 . S
C484 C481 1.363 . S
C484 N482 1.356 . S
C485 C479 1.363 1_556 S
C485 C480 1.379 . S
C485 N483 1.356 . S
N486 C478 1.356 . S
N486 H492 0.984 . S
N486 H493 0.984 . S
N487 C480 1.356 . S
N487 H490 0.984 . S
N487 H491 0.985 . S
H488 N483 0.984 . S
H489 N483 0.985 . S
H490 N487 0.984 . S
H491 N487 0.985 . S
H492 N486 0.984 . S
H493 N486 0.984 . S
H494 N482 0.984 . S
H495 N482 0.985 . S
C496 C497 1.363 . S
C496 C502 1.379 . S
C496 N504 1.356 . S
C497 C496 1.363 . S
C497 C503 1.363 . S
C498 C499 1.363 . S
C498 C503 1.379 . S
C498 N505 1.356 . S
C499 C498 1.363 . S
C499 C502 1.363 . S
N500 C502 1.356 . S
N500 H512 0.984 . S
N500 H513 0.985 . S
N501 C503 1.356 . S
N501 H506 0.984 . S
N501 H507 0.985 . S
C502 C496 1.379 . S
C502 C499 1.363 . S
C502 N500 1.356 . S
C503 C497 1.363 . S
C503 C498 1.379 . S
C503 N501 1.356 . S
N504 C496 1.356 . S
N504 H510 0.984 . S
N504 H511 0.984 . S
N505 C498 1.356 . S
N505 H508 0.984 . S
N505 H509 0.985 . S
H506 N501 0.984 . S
H507 N501 0.985 . S
H508 N505 0.984 . S
H509 N505 0.985 . S
H510 N504 0.984 . S
H511 N504 0.984 . S
H512 N500 0.984 . S
H513 N500 0.985 . S
C514 C515 1.363 . S
C514 C520 1.379 . S
C514 N522 1.356 . S
C515 C514 1.363 . S
C515 C521 1.363 . S
C516 C517 1.363 . S
C516 C521 1.379 . S
C516 N523 1.356 . S
C517 C516 1.363 . S
C517 C520 1.363 . S
N518 C520 1.356 . S
N518 H530 0.984 . S
N518 H531 0.985 . S
N519 C521 1.356 . S
N519 H524 0.984 . S
N519 H525 0.985 . S
C520 C514 1.379 . S
C520 C517 1.363 . S
C520 N518 1.356 . S
C521 C515 1.363 . S
C521 C516 1.379 . S
C521 N519 1.356 . S
N522 C514 1.356 . S
N522 H528 0.984 . S
N522 H529 0.984 . S
N523 C516 1.356 . S
N523 H526 0.984 . S
N523 H527 0.985 . S
H524 N519 0.984 . S
H525 N519 0.985 . S
H526 N523 0.984 . S
H527 N523 0.985 . S
H528 N522 0.984 . S
H529 N522 0.984 . S
H530 N518 0.984 . S
H531 N518 0.985 . S
C532 C533 1.363 . S
C532 C538 1.379 . S
C532 N540 1.356 . S
C533 C532 1.363 . S
C533 C539 1.363 . S
C534 C535 1.363 . S
C534 C539 1.379 . S
C534 N541 1.356 . S
C535 C534 1.363 . S
C535 C538 1.363 . S
N536 C538 1.356 . S
N536 H548 0.984 . S
N536 H549 0.985 . S
N537 C539 1.356 . S
N537 H542 0.984 . S
N537 H543 0.985 . S
C538 C532 1.379 . S
C538 C535 1.363 . S
C538 N536 1.356 . S
C539 C533 1.363 . S
C539 C534 1.379 . S
C539 N537 1.356 . S
N540 C532 1.356 . S
N540 H546 0.984 . S
N540 H547 0.984 . S
N541 C534 1.356 . S
N541 H544 0.984 . S
N541 H545 0.985 . S
H542 N537 0.984 . S
H543 N537 0.985 . S
H544 N541 0.984 . S
H545 N541 0.985 . S
H546 N540 0.984 . S
H547 N540 0.984 . S
H548 N536 0.984 . S
H549 N536 0.985 . S
C550 C551 1.363 . S
C550 C556 1.379 . S
C550 N558 1.356 . S
C551 C550 1.363 . S
C551 C557 1.363 . S
C552 C553 1.363 . S
C552 C557 1.379 . S
C552 N559 1.356 . S
C553 C552 1.363 . S
C553 C556 1.363 . S
N554 C556 1.356 . S
N554 H566 0.984 . S
N554 H567 0.985 . S
N555 C557 1.356 . S
N555 H560 0.984 . S
N555 H561 0.985 . S
C556 C550 1.379 . S
C556 C553 1.363 . S
C556 N554 1.356 . S
C557 C551 1.363 . S
C557 C552 1.379 . S
C557 N555 1.356 . S
N558 C550 1.356 . S
N558 H564 0.984 . S
N558 H565 0.984 . S
N559 C552 1.356 . S
N559 H562 0.984 . S
N559 H563 0.985 . S
H560 N555 0.984 . S
H561 N555 0.985 . S
H562 N559 0.984 . S
H563 N559 0.985 . S
H564 N558 0.984 . S
H565 N558 0.984 . S
H566 N554 0.984 . S
H567 N554 0.985 . S
C568 C569 1.363 . S
C568 C574 1.379 . S
C568 N576 1.356 . S
C569 C568 1.363 . S
C569 C575 1.363 . S
C570 C571 1.363 . S
C570 C575 1.379 . S
C570 N577 1.356 . S
C571 C570 1.363 . S
C571 C574 1.363 . S
N572 C574 1.356 . S
N572 H584 0.984 . S
N572 H585 0.985 . S
N573 C575 1.356 1_655 S
N573 H578 0.984 1_655 S
N573 H579 0.985 . S
C574 C568 1.379 . S
C574 C571 1.363 . S
C574 N572 1.356 . S
C575 C569 1.363 . S
C575 C570 1.379 . S
C575 N573 1.356 1_455 S
N576 C568 1.356 . S
N576 H582 0.984 . S
N576 H583 0.984 . S
N577 C570 1.356 . S
N577 H580 0.984 . S
N577 H581 0.985 1_455 S
H578 N573 0.984 1_455 S
H579 N573 0.985 . S
H580 N577 0.984 . S
H581 N577 0.985 1_655 S
H582 N576 0.984 . S
H583 N576 0.984 . S
H584 N572 0.984 . S
H585 N572 0.985 . S
C586 C587 1.363 . S
C586 C592 1.379 . S
C586 N594 1.356 . S
C587 C586 1.363 . S
C587 C593 1.363 . S
C588 C589 1.363 . S
C588 C593 1.379 . S
C588 N595 1.356 1_545 S
C589 C588 1.363 . S
C589 C592 1.363 . S
N590 C592 1.356 . S
N590 H602 0.984 . S
N590 H603 0.985 . S
N591 C593 1.356 1_565 S
N591 H596 0.984 . S
N591 H597 0.985 . S
C592 C586 1.379 . S
C592 C589 1.363 . S
C592 N590 1.356 . S
C593 C587 1.363 . S
C593 C588 1.379 . S
C593 N591 1.356 1_545 S
N594 C586 1.356 . S
N594 H600 0.984 . S
N594 H601 0.984 . S
N595 C588 1.356 1_565 S
N595 H598 0.984 1_565 S
N595 H599 0.985 . S
H596 N591 0.984 . S
H597 N591 0.985 . S
H598 N595 0.984 1_545 S
H599 N595 0.985 . S
H600 N594 0.984 . S
H601 N594 0.984 . S
H602 N590 0.984 . S
H603 N590 0.985 . S
C604 C605 1.363 . S
C604 C610 1.379 . S
C604 N612 1.356 . S
C605 C604 1.363 . S
C605 C611 1.363 . S
C606 C607 1.363 . S
C606 C611 1.379 . S
C606 N613 1.356 1_655 S
C607 C606 1.363 . S
C607 C610 1.363 . S
N608 C610 1.356 . S
N608 H620 0.984 . S
N608 H621 0.985 . S
N609 C611 1.356 1_455 S
N609 H614 0.984 1_455 S
N609 H615 0.985 . S
C610 C604 1.379 . S
C610 C607 1.363 . S
C610 N608 1.356 . S
C611 C605 1.363 . S
C611 C606 1.379 . S
C611 N609 1.356 1_655 S
N612 C604 1.356 . S
N612 H618 0.984 . S
N612 H619 0.984 . S
N613 C606 1.356 1_455 S
N613 H616 0.984 1_455 S
N613 H617 0.985 . S
H614 N609 0.984 1_655 S
H615 N609 0.985 . S
H616 N613 0.984 1_655 S
H617 N613 0.985 . S
H618 N612 0.984 . S
H619 N612 0.984 . S
H620 N608 0.984 . S
H621 N608 0.985 . S
C622 C623 1.363 . S
C622 C628 1.379 . S
C622 N630 1.356 1_565 S
C623 C622 1.363 . S
C623 C629 1.363 . S
C624 C625 1.363 . S
C624 C629 1.379 . S
C624 N631 1.356 . S
C625 C624 1.363 . S
C625 C628 1.363 . S
N626 C628 1.356 1_545 S
N626 H638 0.984 . S
N626 H639 0.985 1_545 S
N627 C629 1.356 . S
N627 H632 0.984 . S
N627 H633 0.985 . S
C628 C622 1.379 . S
C628 C625 1.363 . S
C628 N626 1.356 1_565 S
C629 C623 1.363 . S
C629 C624 1.379 . S
C629 N627 1.356 . S
N630 C622 1.356 1_545 S
N630 H636 0.984 . S
N630 H637 0.984 . S
N631 C624 1.356 . S
N631 H634 0.984 . S
N631 H635 0.985 . S
H632 N627 0.984 . S
H633 N627 0.985 . S
H634 N631 0.984 . S
H635 N631 0.985 . S
H636 N630 0.984 . S
H637 N630 0.984 . S
H638 N626 0.984 . S
H639 N626 0.985 1_565 S
C640 C641 1.363 . S
C640 C646 1.379 . S
C640 N648 1.356 . S
C641 C640 1.363 . S
C641 C647 1.363 . S
C642 C643 1.363 . S
C642 C647 1.379 . S
C642 N649 1.356 1_565 S
C643 C642 1.363 . S
C643 C646 1.363 . S
N644 C646 1.356 . S
N644 H656 0.984 . S
N644 H657 0.985 . S
N645 C647 1.356 1_545 S
N645 H650 0.984 . S
N645 H651 0.985 . S
C646 C640 1.379 . S
C646 C643 1.363 . S
C646 N644 1.356 . S
C647 C641 1.363 . S
C647 C642 1.379 . S
C647 N645 1.356 1_565 S
N648 C640 1.356 . S
N648 H654 0.984 . S
N648 H655 0.984 . S
N649 C642 1.356 1_545 S
N649 H652 0.985 1_545 S
N649 H653 0.985 . S
H650 N645 0.984 . S
H651 N645 0.985 . S
H652 N649 0.985 1_565 S
H653 N649 0.985 . S
H654 N648 0.984 . S
H655 N648 0.984 . S
H656 N644 0.984 . S
H657 N644 0.985 . S
C658 C659 1.363 . S
C658 C664 1.379 . S
C658 N666 1.356 1_455 S
C659 C658 1.363 . S
C659 C665 1.363 . S
C660 C661 1.363 . S
C660 C665 1.379 . S
C660 N667 1.356 . S
C661 C660 1.363 . S
C661 C664 1.363 . S
N662 C664 1.356 1_655 S
N662 H674 0.984 . S
N662 H675 0.985 . S
N663 C665 1.356 . S
N663 H668 0.984 . S
N663 H669 0.985 . S
C664 C658 1.379 . S
C664 C661 1.363 . S
C664 N662 1.356 1_455 S
C665 C659 1.363 . S
C665 C660 1.379 . S
C665 N663 1.356 . S
N666 C658 1.356 1_655 S
N666 H672 0.984 . S
N666 H673 0.984 . S
N667 C660 1.356 . S
N667 H670 0.984 . S
N667 H671 0.985 . S
H668 N663 0.984 . S
H669 N663 0.985 . S
H670 N667 0.984 . S
H671 N667 0.985 . S
H672 N666 0.984 . S
H673 N666 0.984 . S
H674 N662 0.984 . S
H675 N662 0.985 . S
C676 C677 1.363 . S
C676 C682 1.379 . S
C676 N684 1.356 . S
C677 C676 1.363 . S
C677 C683 1.363 . S
C678 C679 1.363 . S
C678 C683 1.379 . S
C678 N685 1.356 1_545 S
C679 C678 1.363 . S
C679 C682 1.363 . S
N680 C682 1.356 . S
N680 H692 0.984 . S
N680 H693 0.985 . S
N681 C683 1.356 1_565 S
N681 H686 0.992 . S
N681 H687 0.985 . S
C682 C676 1.379 . S
C682 C679 1.363 . S
C682 N680 1.356 . S
C683 C677 1.363 . S
C683 C678 1.379 . S
C683 N681 1.356 1_545 S
N684 C676 1.356 . S
N684 H690 0.984 . S
N684 H691 0.984 . S
N685 C678 1.356 1_565 S
N685 H688 0.984 1_565 S
N685 H689 0.985 . S
H686 N681 0.992 . S
H687 N681 0.985 . S
H688 N685 0.984 1_545 S
H689 N685 0.985 . S
H690 N684 0.984 . S
H691 N684 0.984 . S
H692 N680 0.984 . S
H693 N680 0.985 . S
C694 C695 1.363 . S
C694 C700 1.379 . S
C694 N702 1.356 . S
C695 C694 1.363 . S
C695 C701 1.363 . S
C696 C697 1.363 . S
C696 C701 1.379 . S
C696 N703 1.356 . S
C697 C696 1.363 . S
C697 C700 1.363 . S
N698 C700 1.356 . S
N698 H710 0.984 . S
N698 H711 0.985 . S
N699 C701 1.356 . S
N699 H704 0.984 . S
N699 H705 0.985 . S
C700 C694 1.379 . S
C700 C697 1.363 . S
C700 N698 1.356 . S
C701 C695 1.363 . S
C701 C696 1.379 . S
C701 N699 1.356 . S
N702 C694 1.356 . S
N702 H708 0.984 . S
N702 H709 0.984 . S
N703 C696 1.356 . S
N703 H706 0.984 . S
N703 H707 0.985 . S
H704 N699 0.984 . S
H705 N699 0.985 . S
H706 N703 0.984 . S
H707 N703 0.985 . S
H708 N702 0.984 . S
H709 N702 0.984 . S
H710 N698 0.984 . S
H711 N698 0.985 . S
C712 C713 1.363 . S
C712 C718 1.379 . S
C712 N720 1.356 . S
C713 C712 1.363 . S
C713 C719 1.363 . S
C714 C715 1.363 . S
C714 C719 1.379 . S
C714 N721 1.356 . S
C715 C714 1.363 . S
C715 C718 1.363 . S
N716 C718 1.356 . S
N716 H728 0.984 . S
N716 H729 0.985 . S
N717 C719 1.356 . S
N717 H722 0.984 . S
N717 H723 0.985 . S
C718 C712 1.379 . S
C718 C715 1.363 . S
C718 N716 1.356 . S
C719 C713 1.363 . S
C719 C714 1.379 . S
C719 N717 1.356 . S
N720 C712 1.356 . S
N720 H726 0.984 . S
N720 H727 0.984 . S
N721 C714 1.356 . S
N721 H724 0.984 . S
N721 H725 0.985 . S
H722 N717 0.984 . S
H723 N717 0.985 . S
H724 N721 0.984 . S
H725 N721 0.985 . S
H726 N720 0.984 . S
H727 N720 0.984 . S
H728 N716 0.984 . S
H729 N716 0.985 . S
C730 C731 1.363 . S
C730 C736 1.379 . S
C730 N738 1.356 . S
C731 C730 1.363 . S
C731 C737 1.363 . S
C732 C733 1.363 . S
C732 C737 1.379 . S
C732 N739 1.356 . S
C733 C732 1.363 . S
C733 C736 1.363 . S
N734 C736 1.356 . S
N734 H746 0.984 . S
N734 H747 0.985 . S
N735 C737 1.356 . S
N735 H740 0.984 . S
N735 H741 0.985 . S
C736 C730 1.379 . S
C736 C733 1.363 . S
C736 N734 1.356 . S
C737 C731 1.363 . S
C737 C732 1.379 . S
C737 N735 1.356 . S
N738 C730 1.356 . S
N738 H744 0.984 . S
N738 H745 0.984 . S
N739 C732 1.356 . S
N739 H742 0.984 . S
N739 H743 0.985 . S
H740 N735 0.984 . S
H741 N735 0.985 . S
H742 N739 0.984 . S
H743 N739 0.985 . S
H744 N738 0.984 . S
H745 N738 0.984 . S
H746 N734 0.984 . S
H747 N734 0.985 . S
C748 C749 1.363 . S
C748 C754 1.379 . S
C748 N756 1.356 . S
C749 C748 1.363 . S
C749 C755 1.363 . S
C750 C751 1.363 . S
C750 C755 1.379 . S
C750 N757 1.356 . S
C751 C750 1.363 . S
C751 C754 1.363 . S
N752 C754 1.356 . S
N752 H764 0.984 . S
N752 H765 0.985 . S
N753 C755 1.356 . S
N753 H758 0.984 . S
N753 H759 0.985 . S
C754 C748 1.379 . S
C754 C751 1.363 . S
C754 N752 1.356 . S
C755 C749 1.363 . S
C755 C750 1.379 . S
C755 N753 1.356 . S
N756 C748 1.356 . S
N756 H762 0.984 . S
N756 H763 0.984 . S
N757 C750 1.356 . S
N757 H760 0.984 . S
N757 H761 0.985 . S
H758 N753 0.984 . S
H759 N753 0.985 . S
H760 N757 0.984 . S
H761 N757 0.985 . S
H762 N756 0.984 . S
H763 N756 0.984 . S
H764 N752 0.984 . S
H765 N752 0.985 . S
C766 C767 1.363 . S
C766 C772 1.379 . S
C766 N774 1.356 . S
C767 C766 1.363 . S
C767 C773 1.363 . S
C768 C769 1.363 . S
C768 C773 1.379 . S
C768 N775 1.356 . S
C769 C768 1.363 . S
C769 C772 1.363 . S
N770 C772 1.356 . S
N770 H782 0.984 . S
N770 H783 0.985 . S
N771 C773 1.356 . S
N771 H776 0.984 . S
N771 H777 0.985 . S
C772 C766 1.379 . S
C772 C769 1.363 . S
C772 N770 1.356 . S
C773 C767 1.363 . S
C773 C768 1.379 . S
C773 N771 1.356 . S
N774 C766 1.356 . S
N774 H780 0.984 . S
N774 H781 0.984 . S
N775 C768 1.356 . S
N775 H778 0.984 . S
N775 H779 0.985 . S
H776 N771 0.984 . S
H777 N771 0.985 . S
H778 N775 0.984 . S
H779 N775 0.985 . S
H780 N774 0.984 . S
H781 N774 0.984 . S
H782 N770 0.984 . S
H783 N770 0.985 . S
C784 C785 1.363 . S
C784 C790 1.379 . S
C784 N792 1.356 . S
C785 C784 1.363 . S
C785 C791 1.363 . S
C786 C787 1.363 . S
C786 C791 1.379 . S
C786 N793 1.356 . S
C787 C786 1.363 . S
C787 C790 1.363 . S
N788 C790 1.356 . S
N788 H800 0.984 . S
N788 H801 0.985 . S
N789 C791 1.356 . S
N789 H794 0.984 . S
N789 H795 0.985 . S
C790 C784 1.379 . S
C790 C787 1.363 . S
C790 N788 1.356 . S
C791 C785 1.363 . S
C791 C786 1.379 . S
C791 N789 1.356 . S
N792 C784 1.356 . S
N792 H798 0.984 . S
N792 H799 0.984 . S
N793 C786 1.356 . S
N793 H796 0.984 . S
N793 H797 0.985 . S
H794 N789 0.984 . S
H795 N789 0.985 . S
H796 N793 0.984 . S
H797 N793 0.985 . S
H798 N792 0.984 . S
H799 N792 0.984 . S
H800 N788 0.984 . S
H801 N788 0.985 . S
C802 C803 1.363 . S
C802 C808 1.379 . S
C802 N810 1.356 . S
C803 C802 1.363 . S
C803 C809 1.363 . S
C804 C805 1.363 . S
C804 C809 1.379 . S
C804 N811 1.356 . S
C805 C804 1.363 . S
C805 C808 1.363 . S
N806 C808 1.356 . S
N806 H818 0.984 . S
N806 H819 0.985 . S
N807 C809 1.356 . S
N807 H812 0.984 . S
N807 H813 0.985 . S
C808 C802 1.379 . S
C808 C805 1.363 . S
C808 N806 1.356 . S
C809 C803 1.363 . S
C809 C804 1.379 . S
C809 N807 1.356 . S
N810 C802 1.356 . S
N810 H816 0.984 . S
N810 H817 0.984 . S
N811 C804 1.356 . S
N811 H814 0.984 . S
N811 H815 0.985 . S
H812 N807 0.984 . S
H813 N807 0.985 . S
H814 N811 0.984 . S
H815 N811 0.985 . S
H816 N810 0.984 . S
H817 N810 0.984 . S
H818 N806 0.984 . S
H819 N806 0.985 . S
C820 C821 1.363 . S
C820 C826 1.379 . S
C820 N828 1.356 . S
C821 C820 1.363 . S
C821 C827 1.363 . S
C822 C823 1.363 . S
C822 C827 1.379 . S
C822 N829 1.356 . S
C823 C822 1.363 . S
C823 C826 1.363 . S
N824 C826 1.356 . S
N824 H836 0.984 . S
N824 H837 0.985 . S
N825 C827 1.356 . S
N825 H830 0.984 . S
N825 H831 0.985 . S
C826 C820 1.379 . S
C826 C823 1.363 . S
C826 N824 1.356 . S
C827 C821 1.363 . S
C827 C822 1.379 . S
C827 N825 1.356 . S
N828 C820 1.356 . S
N828 H834 0.984 . S
N828 H835 0.984 . S
N829 C822 1.356 . S
N829 H832 0.984 . S
N829 H833 0.985 . S
H830 N825 0.984 . S
H831 N825 0.985 . S
H832 N829 0.984 . S
H833 N829 0.985 . S
H834 N828 0.984 . S
H835 N828 0.984 . S
H836 N824 0.984 . S
H837 N824 0.985 . S
C838 C839 1.363 . S
C838 C844 1.379 . S
C838 N846 1.356 . S
C839 C838 1.363 . S
C839 C845 1.363 . S
C840 C841 1.363 . S
C840 C845 1.379 . S
C840 N847 1.356 . S
C841 C840 1.363 . S
C841 C844 1.363 . S
N842 C844 1.356 . S
N842 H854 0.984 . S
N842 H855 0.985 . S
N843 C845 1.356 . S
N843 H848 0.984 . S
N843 H849 0.985 . S
C844 C838 1.379 . S
C844 C841 1.363 . S
C844 N842 1.356 . S
C845 C839 1.363 . S
C845 C840 1.379 . S
C845 N843 1.356 . S
N846 C838 1.356 . S
N846 H852 0.984 . S
N846 H853 0.984 . S
N847 C840 1.356 . S
N847 H850 0.984 . S
N847 H851 0.985 . S
H848 N843 0.984 . S
H849 N843 0.985 . S
H850 N847 0.984 . S
H851 N847 0.985 . S
H852 N846 0.984 . S
H853 N846 0.984 . S
H854 N842 0.984 . S
H855 N842 0.985 . S
C425 C45 1.681 . S
C427 C119 1.695 . S
C443 C30 1.682 . S
C445 C159 1.706 . S
C461 C39 1.681 . S
C463 C199 1.705 . S
C481 C239 1.706 . S
C479 C34 1.682 . S
C497 C97 1.681 . S
C499 C279 1.695 . S
C517 C319 1.706 . S
C515 C82 1.682 . S
C535 C359 1.705 . S
C533 C91 1.681 . S
C553 C399 1.706 . S
C551 C86 1.682 . S
C571 C365 1.670 . S
C569 C26 1.554 . S
C589 C405 1.693 . S
C587 C36 1.576 . S
C607 C266 1.563 . S
C605 C32 1.543 . S
C625 C325 1.691 . S
C623 C42 1.576 . S
C641 C18 1.596 . S
C643 C306 1.750 . S
C661 C346 1.770 . S
C659 C50 1.617 . S
C677 C4 1.596 . S
C679 C386 1.747 . S
C695 C48 1.629 . S
C697 C285 1.651 . S
C715 C205 1.670 . S
C713 C78 1.554 . S
C731 C88 1.576 . S
C733 C245 1.693 . S
C751 C106 1.563 . S
C749 C84 1.543 . S
C769 C165 1.691 . S
C767 C94 1.576 . S
C787 C146 1.750 . S
C785 C70 1.596 . S
C805 C186 1.770 . S
C803 C102 1.617 . S
C821 C56 1.596 . S
C823 C226 1.747 . S
C839 C100 1.629 . S
C841 C125 1.651 . S
