# Generated by pormake.
# Topology ctn, (3,4)-cn, num edge types: 1
# Building blocks:
#     Node 0, Type 0, BuildingBlock: WUSLED_clean_sbu_0, # of connection points: 3
#     Node 1, Type 0, BuildingBlock: WUSLED_clean_sbu_0, # of connection points: 3
#     Node 2, Type 0, BuildingBlock: WUSLED_clean_sbu_0, # of connection points: 3
#     Node 3, Type 0, BuildingBlock: WUSLED_clean_sbu_0, # of connection points: 3
#     Node 4, Type 0, BuildingBlock: WUSLED_clean_sbu_0, # of connection points: 3
#     Node 5, Type 0, BuildingBlock: WUSLED_clean_sbu_0, # of connection points: 3
#     Node 6, Type 0, BuildingBlock: WUSLED_clean_sbu_0, # of connection points: 3
#     Node 7, Type 0, BuildingBlock: WUSLED_clean_sbu_0, # of connection points: 3
#     Node 8, Type 0, BuildingBlock: WUSLED_clean_sbu_0, # of connection points: 3
#     Node 9, Type 0, BuildingBlock: WUSLED_clean_sbu_0, # of connection points: 3
#     Node 10, Type 0, BuildingBlock: WUSLED_clean_sbu_0, # of connection points: 3
#     Node 11, Type 0, BuildingBlock: WUSLED_clean_sbu_0, # of connection points: 3
#     Node 12, Type 0, BuildingBlock: WUSLED_clean_sbu_0, # of connection points: 3
#     Node 13, Type 0, BuildingBlock: WUSLED_clean_sbu_0, # of connection points: 3
#     Node 14, Type 0, BuildingBlock: WUSLED_clean_sbu_0, # of connection points: 3
#     Node 15, Type 0, BuildingBlock: WUSLED_clean_sbu_0, # of connection points: 3
#     Node 16, Type 1, BuildingBlock: QUQFOY_clean_sbu_1, # of connection points: 4
#     Node 17, Type 1, BuildingBlock: QUQFOY_clean_sbu_1, # of connection points: 4
#     Node 18, Type 1, BuildingBlock: QUQFOY_clean_sbu_1, # of connection points: 4
#     Node 19, Type 1, BuildingBlock: QUQFOY_clean_sbu_1, # of connection points: 4
#     Node 20, Type 1, BuildingBlock: QUQFOY_clean_sbu_1, # of connection points: 4
#     Node 21, Type 1, BuildingBlock: QUQFOY_clean_sbu_1, # of connection points: 4
#     Node 22, Type 1, BuildingBlock: QUQFOY_clean_sbu_1, # of connection points: 4
#     Node 23, Type 1, BuildingBlock: QUQFOY_clean_sbu_1, # of connection points: 4
#     Node 24, Type 1, BuildingBlock: QUQFOY_clean_sbu_1, # of connection points: 4
#     Node 25, Type 1, BuildingBlock: QUQFOY_clean_sbu_1, # of connection points: 4
#     Node 26, Type 1, BuildingBlock: QUQFOY_clean_sbu_1, # of connection points: 4
#     Node 27, Type 1, BuildingBlock: QUQFOY_clean_sbu_1, # of connection points: 4
#     Edge 28, Type (0, 1), BuildingBlock: OJICUG_clean_linker_0, # of connection points: 2
#     Edge 29, Type (0, 1), BuildingBlock: OJICUG_clean_linker_0, # of connection points: 2
#     Edge 30, Type (0, 1), BuildingBlock: OJICUG_clean_linker_0, # of connection points: 2
#     Edge 31, Type (0, 1), BuildingBlock: OJICUG_clean_linker_0, # of connection points: 2
#     Edge 32, Type (0, 1), BuildingBlock: OJICUG_clean_linker_0, # of connection points: 2
#     Edge 33, Type (0, 1), BuildingBlock: OJICUG_clean_linker_0, # of connection points: 2
#     Edge 34, Type (0, 1), BuildingBlock: OJICUG_clean_linker_0, # of connection points: 2
#     Edge 35, Type (0, 1), BuildingBlock: OJICUG_clean_linker_0, # of connection points: 2
#     Edge 36, Type (0, 1), BuildingBlock: OJICUG_clean_linker_0, # of connection points: 2
#     Edge 37, Type (0, 1), BuildingBlock: OJICUG_clean_linker_0, # of connection points: 2
#     Edge 38, Type (0, 1), BuildingBlock: OJICUG_clean_linker_0, # of connection points: 2
#     Edge 39, Type (0, 1), BuildingBlock: OJICUG_clean_linker_0, # of connection points: 2
#     Edge 40, Type (0, 1), BuildingBlock: OJICUG_clean_linker_0, # of connection points: 2
#     Edge 41, Type (0, 1), BuildingBlock: OJICUG_clean_linker_0, # of connection points: 2
#     Edge 42, Type (0, 1), BuildingBlock: OJICUG_clean_linker_0, # of connection points: 2
#     Edge 43, Type (0, 1), BuildingBlock: OJICUG_clean_linker_0, # of connection points: 2
#     Edge 44, Type (0, 1), BuildingBlock: OJICUG_clean_linker_0, # of connection points: 2
#     Edge 45, Type (0, 1), BuildingBlock: OJICUG_clean_linker_0, # of connection points: 2
#     Edge 46, Type (0, 1), BuildingBlock: OJICUG_clean_linker_0, # of connection points: 2
#     Edge 47, Type (0, 1), BuildingBlock: OJICUG_clean_linker_0, # of connection points: 2
#     Edge 48, Type (0, 1), BuildingBlock: OJICUG_clean_linker_0, # of connection points: 2
#     Edge 49, Type (0, 1), BuildingBlock: OJICUG_clean_linker_0, # of connection points: 2
#     Edge 50, Type (0, 1), BuildingBlock: OJICUG_clean_linker_0, # of connection points: 2
#     Edge 51, Type (0, 1), BuildingBlock: OJICUG_clean_linker_0, # of connection points: 2
#     Edge 52, Type (0, 1), BuildingBlock: OJICUG_clean_linker_0, # of connection points: 2
#     Edge 53, Type (0, 1), BuildingBlock: OJICUG_clean_linker_0, # of connection points: 2
#     Edge 54, Type (0, 1), BuildingBlock: OJICUG_clean_linker_0, # of connection points: 2
#     Edge 55, Type (0, 1), BuildingBlock: OJICUG_clean_linker_0, # of connection points: 2
#     Edge 56, Type (0, 1), BuildingBlock: OJICUG_clean_linker_0, # of connection points: 2
#     Edge 57, Type (0, 1), BuildingBlock: OJICUG_clean_linker_0, # of connection points: 2
#     Edge 58, Type (0, 1), BuildingBlock: OJICUG_clean_linker_0, # of connection points: 2
#     Edge 59, Type (0, 1), BuildingBlock: OJICUG_clean_linker_0, # of connection points: 2
#     Edge 60, Type (0, 1), BuildingBlock: OJICUG_clean_linker_0, # of connection points: 2
#     Edge 61, Type (0, 1), BuildingBlock: OJICUG_clean_linker_0, # of connection points: 2
#     Edge 62, Type (0, 1), BuildingBlock: OJICUG_clean_linker_0, # of connection points: 2
#     Edge 63, Type (0, 1), BuildingBlock: OJICUG_clean_linker_0, # of connection points: 2
#     Edge 64, Type (0, 1), BuildingBlock: OJICUG_clean_linker_0, # of connection points: 2
#     Edge 65, Type (0, 1), BuildingBlock: OJICUG_clean_linker_0, # of connection points: 2
#     Edge 66, Type (0, 1), BuildingBlock: OJICUG_clean_linker_0, # of connection points: 2
#     Edge 67, Type (0, 1), BuildingBlock: OJICUG_clean_linker_0, # of connection points: 2
#     Edge 68, Type (0, 1), BuildingBlock: OJICUG_clean_linker_0, # of connection points: 2
#     Edge 69, Type (0, 1), BuildingBlock: OJICUG_clean_linker_0, # of connection points: 2
#     Edge 70, Type (0, 1), BuildingBlock: OJICUG_clean_linker_0, # of connection points: 2
#     Edge 71, Type (0, 1), BuildingBlock: OJICUG_clean_linker_0, # of connection points: 2
#     Edge 72, Type (0, 1), BuildingBlock: OJICUG_clean_linker_0, # of connection points: 2
#     Edge 73, Type (0, 1), BuildingBlock: OJICUG_clean_linker_0, # of connection points: 2
#     Edge 74, Type (0, 1), BuildingBlock: OJICUG_clean_linker_0, # of connection points: 2
#     Edge 75, Type (0, 1), BuildingBlock: OJICUG_clean_linker_0, # of connection points: 2
# Relax obj value: 0.036
# Max RMSD: 0.141
# Mean RMSD: 0.065
data_MOF--net-ctn--node1-WUSLED_clean_sbu_0--node2-QUQFOY_clean_sbu_1--edge1-OJICUG_clean_linker_0
_symmetry_space_group_name_H-M    P1
_symmetry_Int_Tables_number       1
_symmetry_cell_setting            triclinic
loop_
_symmetry_equiv_pos_as_xyz
'x, y, z'
_cell_length_a     56.349919
_cell_length_b     56.623168
_cell_length_c     56.715814
_cell_angle_alpha  93.227203
_cell_angle_beta   90.006818
_cell_angle_gamma 94.102511
loop_
_atom_site_label
_atom_site_type_symbol
_atom_site_fract_x
_atom_site_fract_y
_atom_site_fract_z
_atom_type_partial_charge
C0 C 1.0036 0.09692 0.11713 0.0
C1 C 0.01445 0.08269 0.13284 0.0
C2 C 0.97923 0.08215 0.15792 0.0
C3 C 1.00243 0.07545 0.15307 0.0
C4 C 0.96856 0.09657 0.14213 0.0
C5 C 0.98065 0.10387 0.12194 0.0
U6 U 0.05242 0.09034 0.07104 0.0
O7 O 0.05097 0.09156 0.03241 0.0
O8 O 0.07421 0.11779 0.05304 0.0
C9 C 0.0647 0.11135 0.03228 0.0
C10 C 0.0158 0.10421 0.09548 0.0
C11 C 0.05577 0.13061 0.01887 0.0
C12 C 0.02344 0.1495 1.00067 0.0
C13 C 0.03144 0.13138 0.01376 0.0
C14 C 0.06385 0.16666 0.99786 0.0
C15 C 0.0395 0.16746 0.99256 0.0
C16 C 0.07186 0.14841 0.0108 0.0
C17 C 0.0956 0.04106 0.07871 0.0
C18 C 0.13285 0.03604 0.058 0.0
C19 C 0.1152 1.00433 0.08063 0.0
C20 C 0.09639 0.01821 0.08685 0.0
C21 C 0.13373 0.01303 0.06614 0.0
C22 C 0.11393 0.04991 0.06419 0.0
C23 C 0.07551 0.05516 0.08579 0.0
O24 O 0.03752 0.11406 0.09838 0.0
O25 O 0.0138 0.08864 0.07739 0.0
O26 O 0.05653 0.05203 0.0722 0.0
O27 O 0.08077 0.07751 0.09262 0.0
H28 H 0.03219 0.07712 0.12939 0.0
H29 H 0.01135 0.06465 0.16497 0.0
H30 H 0.95063 0.10179 0.14506 0.0
H31 H 0.97196 0.11476 0.10994 0.0
H32 H 1.00463 0.14923 0.99668 0.0
H33 H 0.01856 0.11793 0.01976 0.0
H34 H 0.07674 0.18032 0.9923 0.0
H35 H 0.0907 0.14823 0.01457 0.0
H36 H 0.14691 0.04345 0.04704 0.0
H37 H 0.11501 0.9866 0.08691 0.0
H38 H 0.08234 0.01104 0.098 0.0
H39 H 0.11365 0.06753 0.05772 0.0
C40 C 0.27128 0.7719 0.18752 0.0
C41 C 0.29244 0.78525 0.18252 0.0
C42 C 0.27138 0.80742 0.15445 0.0
C43 C 0.29251 0.80281 0.16608 0.0
C44 C 0.25012 0.79439 0.16005 0.0
C45 C 0.25011 0.77677 0.17639 0.0
U46 U 0.29893 0.73965 0.23716 0.0
O47 O 0.28214 0.72203 0.26712 0.0
O48 O 0.30181 0.70142 0.24068 0.0
C49 C 0.28817 0.70093 0.25946 0.0
C50 C 0.27107 0.75244 0.20372 0.0
C51 C 0.26952 0.68129 0.25957 0.0
C52 C 0.22802 0.6662 0.2603 0.0
C53 C 0.2452 0.68515 0.25853 0.0
C54 C 0.25925 0.63928 0.26342 0.0
C55 C 0.23485 0.64306 0.26308 0.0
C56 C 0.27636 0.6582 0.26176 0.0
C57 C 0.35771 0.76344 0.26619 0.0
C58 C 0.37166 0.76139 0.30664 0.0
C59 C 0.40005 0.76369 0.27468 0.0
C60 C 0.38139 0.76418 0.25849 0.0
C61 C 0.39547 0.76266 0.29902 0.0
C62 C 0.35299 0.76169 0.29041 0.0
C63 C 0.33838 0.76502 0.2488 0.0
O64 O 0.28756 0.73736 0.19999 0.0
O65 O 0.26822 0.75849 0.2262 0.0
O66 O 0.31744 0.7697 0.25739 0.0
O67 O 0.33713 0.74863 0.23139 0.0
H68 H 0.30896 0.78187 0.19107 0.0
H69 H 0.30912 0.81271 0.1624 0.0
H70 H 0.2336 0.79728 0.15125 0.0
H71 H 0.2336 0.76664 0.18005 0.0
H72 H 0.20941 0.6698 0.26016 0.0
H73 H 0.23946 0.70282 0.25678 0.0
H74 H 0.26517 0.62166 0.26507 0.0
H75 H 0.29503 0.65482 0.2625 0.0
H76 H 0.36742 0.76087 0.32523 0.0
H77 H 0.4181 0.76426 0.26809 0.0
H78 H 0.38548 0.76537 0.23991 0.0
H79 H 0.3349 0.76095 0.29692 0.0
C80 C 0.95656 0.45189 0.01175 0.0
C81 C 0.96669 0.43413 0.02392 0.0
C82 C 0.97141 0.41093 0.98693 0.0
C83 C 0.97392 0.41375 0.01162 0.0
C84 C 0.96138 0.42887 0.97484 0.0
C85 C 0.95399 0.44912 0.98716 0.0
U86 U 0.96237 0.49773 0.06352 0.0
O87 O 0.96163 0.53661 0.0643 0.0
O88 O 0.93515 0.51561 0.08418 0.0
C89 C 0.94202 0.53663 0.07683 0.0
C90 C 0.94908 0.47358 0.02432 0.0
C91 C 0.92306 0.55013 0.06745 0.0
C92 C 0.88999 0.55338 0.04056 0.0
C93 C 0.90791 0.54029 0.04928 0.0
C94 C 0.90227 0.58634 0.06795 0.0
C95 C 0.88693 0.5766 0.04976 0.0
C96 C 0.92014 0.57321 0.07669 0.0
C97 C 0.01009 0.48937 0.11053 0.0
C98 C 0.01396 0.51037 0.14905 0.0
C99 C 0.04562 0.48688 0.13428 0.0
C100 C 0.03251 0.48076 0.11364 0.0
C101 C 0.03652 0.50175 0.15229 0.0
C102 C 1.00088 0.50428 0.12832 0.0
C103 C 0.99674 0.48244 0.08864 0.0
O104 O 0.93841 0.47065 0.04468 0.0
O105 O 0.9649 0.49182 0.02492 0.0
O106 O 1.00056 0.49646 0.07114 0.0
O107 O 0.97417 0.4754 0.09112 0.0
H108 H 0.96907 0.43605 0.04291 0.0
H109 H 0.98179 0.40037 0.02139 0.0
H110 H 0.95897 0.4271 0.95586 0.0
H111 H 0.94628 0.46266 0.97747 0.0
H112 H 0.87835 0.54515 0.02679 0.0
H113 H 0.90991 0.52248 0.0419 0.0
H114 H 0.90071 0.60425 0.07524 0.0
H115 H 0.93176 0.58114 0.09065 0.0
H116 H 1.00626 0.52163 0.16263 0.0
H117 H 0.06305 0.48023 0.13594 0.0
H118 H 0.03993 0.4693 0.10003 0.0
H119 H 0.98358 0.51112 0.12622 0.0
C120 C 0.71259 0.7726 0.19273 0.0
C121 C 0.73548 0.77553 0.18304 0.0
C122 C 0.72389 0.747 0.15058 0.0
C123 C 0.74113 0.76272 0.16219 0.0
C124 C 0.70109 0.74398 0.16056 0.0
C125 C 0.69552 0.75666 0.18144 0.0
U126 U 0.72195 0.82684 0.23553 0.0
O127 O 0.69597 0.84978 0.25201 0.0
O128 O 0.7188 0.83027 0.27422 0.0
C129 C 0.70093 0.84393 0.27346 0.0
C130 C 0.70592 0.78661 0.21404 0.0
C131 C 0.68025 0.83752 0.2882 0.0
C132 C 0.64935 0.80905 0.3013 0.0
C133 C 0.66949 0.81435 0.28752 0.0
C134 C 0.65071 0.84998 0.31652 0.0
C135 C 0.6396 0.8269 0.31575 0.0
C136 C 0.67083 0.85521 0.30288 0.0
C137 C 0.77235 0.87376 0.22548 0.0
C138 C 0.77385 0.91464 0.24141 0.0
C139 C 0.81011 0.89726 0.22874 0.0
C140 C 0.79705 0.87595 0.22233 0.0
C141 C 0.79869 0.91693 0.23832 0.0
C142 C 0.76083 0.89323 0.23516 0.0
C143 C 0.75901 0.85104 0.21876 0.0
O144 O 0.72117 0.78792 0.2317 0.0
O145 O 0.6974 0.80704 0.21013 0.0
O146 O 0.73719 0.85247 0.21102 0.0
O147 O 0.76082 0.83413 0.23348 0.0
H148 H 0.74885 0.78794 0.19142 0.0
H149 H 0.75875 0.7656 0.1548 0.0
H150 H 0.6875 0.73182 0.15219 0.0
H151 H 0.67776 0.75419 0.18865 0.0
H152 H 0.64106 0.79116 0.30018 0.0
H153 H 0.67648 0.80048 0.27617 0.0
H154 H 0.64383 0.86405 0.32768 0.0
H155 H 0.67894 0.87318 0.30365 0.0
H156 H 0.7644 0.92944 0.24846 0.0
H157 H 0.82923 0.89816 0.22652 0.0
H158 H 0.80628 0.86107 0.21504 0.0
H159 H 0.74176 0.89193 0.23787 0.0
C160 C 0.99355 0.9878 0.44009 0.0
C161 C 0.98794 0.0116 0.43974 0.0
C162 C 0.96915 1.00383 0.40111 0.0
C163 C 0.97575 0.01948 0.4205 0.0
C164 C 0.97493 0.98009 0.40144 0.0
C165 C 0.9869 0.97215 0.42077 0.0
U166 U 0.04621 0.99225 0.48271 0.0
O167 O 0.04784 0.98813 0.52105 0.0
O168 O 0.06709 0.9648 0.49677 0.0
C169 C 0.06054 0.96956 0.51868 0.0
C170 C 1.00636 0.97899 0.46025 0.0
C171 C 0.05216 0.94907 0.53211 0.0
C172 C 0.02867 0.91169 0.53541 0.0
C173 C 0.03613 0.93108 0.52228 0.0
C174 C 0.05296 0.92822 0.56838 0.0
C175 C 0.03701 0.90999 0.55865 0.0
C176 C 0.06045 0.94753 0.55523 0.0
C177 C 0.09426 0.0431 0.47547 0.0
C178 C 0.13536 0.04566 0.48908 0.0
C179 C 0.11702 0.08121 0.47904 0.0
C180 C 0.09588 0.06769 0.47335 0.0
C181 C 0.13704 0.07035 0.4869 0.0
C182 C 0.1141 0.03214 0.48353 0.0
C183 C 0.07185 0.02939 0.46874 0.0
O184 O 0.02663 0.9698 0.4551 0.0
O185 O 1.00734 0.99261 0.47985 0.0
O186 O 0.05434 0.03094 0.48392 0.0
O187 O 0.07371 1.00775 0.45958 0.0
H188 H 0.99298 0.02418 0.45428 0.0
H189 H 0.97175 0.03792 0.42067 0.0
H190 H 0.96985 0.96753 0.38689 0.0
H191 H 0.99098 0.95373 0.42064 0.0
H192 H 0.0166 0.89788 0.52722 0.0
H193 H 0.02948 0.93198 0.50445 0.0
H194 H 0.05944 0.92777 0.58632 0.0
H195 H 0.07274 0.96132 0.56315 0.0
H196 H 0.15041 0.03684 0.49531 0.0
H197 H 0.11782 0.10013 0.47689 0.0
H198 H 0.0808 0.07646 0.4671 0.0
H199 H 0.1132 0.01317 0.48544 0.0
C200 C 0.20641 0.79488 0.87178 0.0
C201 C 0.22893 0.79515 0.88239 0.0
C202 C 0.21604 0.82125 0.91489 0.0
C203 C 0.23372 0.80826 0.90375 0.0
C204 C 0.19336 0.82043 0.90435 0.0
C205 C 0.18864 0.8074 0.883 0.0
U206 U 0.21786 0.74723 0.82288 0.0
O207 O 0.19213 0.72347 0.80223 0.0
O208 O 0.21534 0.74954 0.78428 0.0
C209 C 0.19688 0.73398 0.7825 0.0
C210 C 0.20112 0.78209 0.84888 0.0
C211 C 0.17616 0.7414 0.7696 0.0
C212 C 0.13585 0.75413 0.76911 0.0
C213 C 0.15574 0.7482 0.78166 0.0
C214 C 0.15684 0.74759 0.73231 0.0
C215 C 0.13609 0.75365 0.74428 0.0
C216 C 0.17666 0.74142 0.74487 0.0
C217 C 0.26813 0.70529 0.82931 0.0
C218 C 0.3065 0.6885 0.82392 0.0
C219 C 0.27015 0.66343 0.81774 0.0
C220 C 0.25677 0.68291 0.82299 0.0
C221 C 0.29516 0.66592 0.81849 0.0
C222 C 0.29309 0.70796 0.8294 0.0
C223 C 0.2544 0.72555 0.83739 0.0
O224 O 0.21706 0.78537 0.83223 0.0
O225 O 0.19287 0.75987 0.84982 0.0
O226 O 0.23238 0.72034 0.84404 0.0
O227 O 0.25671 0.74449 0.82495 0.0
H228 H 0.24287 0.7855 0.874 0.0
H229 H 0.25144 0.80867 0.91122 0.0
H230 H 0.17921 0.82986 0.91261 0.0
H231 H 0.17109 0.80726 0.87514 0.0
H232 H 0.12023 0.75901 0.77883 0.0
H233 H 0.15503 0.74865 0.80076 0.0
H234 H 0.15748 0.7469 0.71319 0.0
H235 H 0.19228 0.73633 0.73525 0.0
H236 H 0.32573 0.69095 0.8248 0.0
H237 H 0.26092 0.64631 0.81331 0.0
H238 H 0.23754 0.68029 0.82258 0.0
H239 H 0.30225 0.72502 0.83429 0.0
C240 C 0.96536 0.61445 0.54125 0.0
C241 C 0.97572 0.63388 0.52965 0.0
C242 C 0.97906 0.65734 0.56703 0.0
C243 C 0.98241 0.6552 0.54243 0.0
C244 C 0.96908 0.63766 0.57855 0.0
C245 C 0.96226 0.61646 0.56577 0.0
U246 U 0.9695 0.56685 0.49066 0.0
O247 O 0.96299 0.52811 0.49111 0.0
O248 O 0.94068 0.54835 0.46906 0.0
C249 C 0.94377 0.52781 0.47788 0.0
C250 C 0.95703 0.59218 0.52821 0.0
C251 C 0.92202 0.51524 0.48682 0.0
C252 C 0.89839 0.4989 0.5188 0.0
C253 C 0.91932 0.51065 0.51083 0.0
C254 C 0.88242 0.49652 0.47902 0.0
C255 C 0.87967 0.4918 0.50298 0.0
C256 C 0.90341 0.50804 0.47103 0.0
C257 C 0.0191 0.57236 0.44444 0.0
C258 C 0.03631 0.54118 0.42013 0.0
C259 C 0.03878 0.58147 0.40758 0.0
C260 C 0.02656 0.58874 0.42785 0.0
C261 C 0.04391 0.55764 0.40353 0.0
C262 C 0.0239 0.54845 0.44035 0.0
C263 C 1.00675 0.5808 0.46592 0.0
O264 O 0.94815 0.59424 0.50705 0.0
O265 O 0.97096 0.5746 0.52917 0.0
O266 O 0.00807 0.56806 0.48451 0.0
O267 O 0.98546 0.58814 0.46261 0.0
H268 H 0.97843 0.63266 0.51072 0.0
H269 H 0.99029 0.66997 0.5331 0.0
H270 H 0.966 0.63881 0.59742 0.0
H271 H 0.95426 0.60167 0.57501 0.0
H272 H 0.8967 0.49566 0.53738 0.0
H273 H 0.93331 0.5162 0.52347 0.0
H274 H 0.86843 0.491 0.46636 0.0
H275 H 0.90509 0.51138 0.45246 0.0
H276 H 0.03981 0.52267 0.41738 0.0
H277 H 0.04464 0.59463 0.3953 0.0
H278 H 0.0231 0.60726 0.43068 0.0
H279 H 0.01818 0.53539 0.4528 0.0
C280 C 0.77932 0.79635 0.87159 0.0
C281 C 0.78127 0.77207 0.86588 0.0
C282 C 0.78098 0.76389 0.90768 0.0
C283 C 0.78205 0.75602 0.88373 0.0
C284 C 0.77974 0.78831 0.91328 0.0
C285 C 0.77882 0.80431 0.89545 0.0
U286 U 0.80005 0.82669 0.81542 0.0
O287 O 0.77898 0.83739 0.78557 0.0
O288 O 0.8007 0.86416 0.8071 0.0
C289 C 0.78473 0.86009 0.79019 0.0
C290 C 0.77681 0.81353 0.85317 0.0
C291 C 0.76484 0.87561 0.79128 0.0
C292 C 0.73369 0.8947 0.81316 0.0
C293 C 0.75148 0.87862 0.81196 0.0
C294 C 0.74193 0.90433 0.77276 0.0
C295 C 0.72891 0.90799 0.79366 0.0
C296 C 0.75975 0.88833 0.77162 0.0
C297 C 0.85797 0.80839 0.78521 0.0
C298 C 0.8711 0.80476 0.74432 0.0
C299 C 0.90014 0.81213 0.7758 0.0
C300 C 0.88182 0.81223 0.79239 0.0
C301 C 0.89506 0.80796 0.75158 0.0
C302 C 0.85272 0.80497 0.76096 0.0
C303 C 0.83926 0.80672 0.80346 0.0
O304 O 0.79282 0.83162 0.85352 0.0
O305 O 0.77154 0.80468 0.83171 0.0
O306 O 0.81795 0.79797 0.79663 0.0
O307 O 0.8388 0.82498 0.81878 0.0
H308 H 0.78176 0.76537 0.84764 0.0
H309 H 0.78274 0.73735 0.87871 0.0
H310 H 0.77934 0.79512 0.9315 0.0
H311 H 0.7774 0.82293 0.90031 0.0
H312 H 0.72381 0.89687 0.82942 0.0
H313 H 0.75508 0.86884 0.8273 0.0
H314 H 0.73894 0.91445 0.75752 0.0
H315 H 0.76992 0.88624 0.75551 0.0
H316 H 0.86653 0.80129 0.72584 0.0
H317 H 0.91834 0.81508 0.78202 0.0
H318 H 0.88634 0.81493 0.81097 0.0
H319 H 0.83449 0.80197 0.75485 0.0
C320 C 0.27981 0.29402 0.37109 0.0
C321 C 0.27838 0.26949 0.36518 0.0
C322 C 0.28189 0.26107 0.40672 0.0
C323 C 0.2794 0.25321 0.3828 0.0
C324 C 0.28395 0.28565 0.41247 0.0
C325 C 0.28281 0.30189 0.39489 0.0
U326 U 0.30076 0.32567 0.31581 0.0
O327 O 0.28002 0.33689 0.28596 0.0
O328 O 0.30146 0.36332 0.30816 0.0
C329 C 0.28569 0.35953 0.29104 0.0
C330 C 0.2772 0.31162 0.35303 0.0
C331 C 0.26578 0.37505 0.29215 0.0
C332 C 0.23466 0.39416 0.31407 0.0
C333 C 0.25243 0.37806 0.31285 0.0
C334 C 0.24287 0.40381 0.27367 0.0
C335 C 0.22986 0.40747 0.29458 0.0
C336 C 0.26067 0.38778 0.27251 0.0
C337 C 0.35921 0.30753 0.2863 0.0
C338 C 0.37292 0.30579 0.24556 0.0
C339 C 0.40154 0.30905 0.27764 0.0
C340 C 0.38297 0.30929 0.29394 0.0
C341 C 0.39677 0.30687 0.25323 0.0
C342 C 0.35431 0.30613 0.26193 0.0
C343 C 0.34014 0.30584 0.30414 0.0
O344 O 0.29302 0.32988 0.35384 0.0
O345 O 0.27212 0.30323 0.33138 0.0
O346 O 0.31893 0.29727 0.2968 0.0
O347 O 0.33949 0.32396 0.31959 0.0
H348 H 0.27603 0.26277 0.34701 0.0
H349 H 0.27746 0.23445 0.3777 0.0
H350 H 0.28629 0.29239 0.43063 0.0
H351 H 0.28396 0.32067 0.39996 0.0
H352 H 0.22479 0.39633 0.33034 0.0
H353 H 0.25603 0.36827 0.32817 0.0
H354 H 0.23987 0.41393 0.25844 0.0
H355 H 0.27083 0.3857 0.25639 0.0
H356 H 0.36858 0.30389 0.22692 0.0
H357 H 0.41966 0.31037 0.28419 0.0
H358 H 0.38718 0.31043 0.31264 0.0
H359 H 0.33614 0.30477 0.2555 0.0
C360 C 0.45432 0.94889 0.51261 0.0
C361 C 0.46378 0.93084 0.52493 0.0
C362 C 0.46946 0.90798 0.48791 0.0
C363 C 0.47114 0.91048 0.51269 0.0
C364 C 0.46005 0.92616 0.4757 0.0
C365 C 0.45252 0.94639 0.48795 0.0
U366 U 0.46029 0.99544 0.56383 0.0
O367 O 0.45926 0.03427 0.56404 0.0
O368 O 0.43312 0.01342 0.58446 0.0
C369 C 0.43975 0.03434 0.57673 0.0
C370 C 0.4468 0.97064 0.52506 0.0
C371 C 0.42061 0.04758 0.56732 0.0
C372 C 0.38677 0.05001 0.54117 0.0
C373 C 0.40485 0.03716 0.54992 0.0
C374 C 0.4001 0.08392 0.56694 0.0
C375 C 0.38414 0.07359 0.54955 0.0
C376 C 0.41813 0.07102 0.57573 0.0
C377 C 0.50863 0.98815 0.61056 0.0
C378 C 0.5127 0.00956 0.64886 0.0
C379 C 0.54444 0.9862 0.63403 0.0
C380 C 0.53117 0.97977 0.61355 0.0
C381 C 0.53538 1.00115 0.652 0.0
C382 C 0.49946 1.00315 0.6283 0.0
C383 C 0.49508 0.98082 0.58887 0.0
O384 O 0.43638 0.96791 0.54557 0.0
O385 O 0.46246 0.989 0.52526 0.0
O386 O 0.4986 0.99459 0.57113 0.0
O387 O 0.47259 0.97366 0.59167 0.0
H388 H 0.46558 0.93253 0.54398 0.0
H389 H 0.47852 0.89689 0.52256 0.0
H390 H 0.45827 0.92464 0.45664 0.0
H391 H 0.44533 0.96014 0.47813 0.0
H392 H 0.37466 0.04134 0.52803 0.0
H393 H 0.40651 0.01906 0.54318 0.0
H394 H 0.3989 0.1021 0.57357 0.0
H395 H 0.43021 0.0794 0.58906 0.0
H396 H 0.50503 0.02087 0.66242 0.0
H397 H 0.56195 0.97972 0.63561 0.0
H398 H 0.53856 0.96824 0.59998 0.0
H399 H 0.48207 0.00982 0.62629 0.0
C400 C 0.21867 0.27448 0.69207 0.0
C401 C 0.22555 0.28686 0.67211 0.0
C402 C 0.23096 0.24962 0.6498 0.0
C403 C 0.2315 0.27453 0.65114 0.0
C404 C 0.22484 0.23732 0.67003 0.0
C405 C 0.21864 0.24966 0.69095 0.0
U406 U 0.22512 0.32676 0.73762 0.0
O407 O 0.19843 0.3482 0.75477 0.0
O408 O 0.22086 0.32763 0.77636 0.0
C409 C 0.20244 0.3406 0.7758 0.0
C410 C 0.21108 0.28708 0.71395 0.0
C411 C 0.18122 0.33217 0.78905 0.0
C412 C 0.13931 0.31865 0.79034 0.0
C413 C 0.15982 0.3244 0.7774 0.0
C414 C 0.16149 0.32709 0.82679 0.0
C415 C 0.13983 0.3203 0.81517 0.0
C416 C 0.18197 0.3331 0.81382 0.0
C417 C 0.27487 0.37554 0.72951 0.0
C418 C 0.27602 0.41675 0.74443 0.0
C419 C 0.31256 0.39913 0.73312 0.0
C420 C 0.29964 0.37768 0.72698 0.0
C421 C 0.30092 0.41901 0.74179 0.0
C422 C 0.26312 0.39519 0.73843 0.0
C423 C 0.26175 0.3528 0.72241 0.0
O424 O 0.22611 0.288 0.73176 0.0
O425 O 0.20149 0.30728 0.71131 0.0
O426 O 0.23991 0.35402 0.71462 0.0
O427 O 0.26384 0.33551 0.73662 0.0
H428 H 0.22603 0.30604 0.67259 0.0
H429 H 0.23642 0.28448 0.6359 0.0
H430 H 0.22411 0.21813 0.66946 0.0
H431 H 0.21347 0.23979 0.70618 0.0
H432 H 0.12293 0.31319 0.78092 0.0
H433 H 0.15877 0.32328 0.75829 0.0
H434 H 0.16237 0.32865 0.8459 0.0
H435 H 0.19828 0.33904 0.82316 0.0
H436 H 0.26643 0.43171 0.75082 0.0
H437 H 0.33172 0.40001 0.7313 0.0
H438 H 0.30904 0.36269 0.72024 0.0
H439 H 0.24398 0.39396 0.74061 0.0
C440 C 0.77106 0.27223 0.68741 0.0
C441 C 0.79219 0.28555 0.6822 0.0
C442 C 0.77098 0.30734 0.65392 0.0
C443 C 0.79216 0.3029 0.66556 0.0
C444 C 0.74976 0.29435 0.65973 0.0
C445 C 0.74984 0.27694 0.67628 0.0
U446 U 0.79848 0.24025 0.73753 0.0
O447 O 0.78136 0.2226 0.7673 0.0
O448 O 0.80137 0.20203 0.7411 0.0
C449 C 0.78748 0.20151 0.7597 0.0
C450 C 0.77092 0.25289 0.70376 0.0
C451 C 0.76882 0.18186 0.75955 0.0
C452 C 0.7273 0.16679 0.7601 0.0
C453 C 0.7445 0.18575 0.75854 0.0
C454 C 0.7585 0.13979 0.76293 0.0
C455 C 0.73411 0.1436 0.76263 0.0
C456 C 0.77563 0.15872 0.76148 0.0
C457 C 0.85695 0.26408 0.76724 0.0
C458 C 0.87074 0.2635 0.80792 0.0
C459 C 0.89911 0.26278 0.77591 0.0
C460 C 0.88057 0.26332 0.7596 0.0
C461 C 0.8945 0.26323 0.80032 0.0
C462 C 0.85217 0.26386 0.79158 0.0
C463 C 0.83777 0.26567 0.74965 0.0
O464 O 0.78753 0.23792 0.70024 0.0
O465 O 0.76785 0.25903 0.72619 0.0
O466 O 0.81672 0.27031 0.75799 0.0
O467 O 0.83672 0.24934 0.73218 0.0
H468 H 0.80874 0.28228 0.69075 0.0
H469 H 0.80874 0.31278 0.66172 0.0
H470 H 0.73321 0.29711 0.65093 0.0
H471 H 0.73336 0.26683 0.68008 0.0
H472 H 0.7087 0.17041 0.75999 0.0
H473 H 0.73878 0.20346 0.75699 0.0
H474 H 0.7644 0.12214 0.76439 0.0
H475 H 0.7943 0.15532 0.76219 0.0
H476 H 0.86649 0.26415 0.82656 0.0
H477 H 0.91712 0.26216 0.76935 0.0
H478 H 0.88473 0.26337 0.74095 0.0
H479 H 0.83414 0.26435 0.7981 0.0
C480 C 0.50529 0.59864 0.61768 0.0
C481 C 0.51614 0.58453 0.63349 0.0
C482 C 0.481 0.58431 0.65868 0.0
C483 C 0.50416 0.57751 0.65384 0.0
C484 C 0.47034 0.59864 0.6428 0.0
C485 C 0.48239 0.60573 0.62251 0.0
U486 U 0.55322 0.59049 0.57098 0.0
O487 O 0.55103 0.59161 0.5323 0.0
O488 O 0.57559 0.61693 0.55243 0.0
C489 C 0.56578 0.61063 0.53178 0.0
C490 C 0.51736 0.60554 0.59582 0.0
C491 C 0.55734 0.63004 0.51847 0.0
C492 C 0.53247 0.66308 0.51517 0.0
C493 C 0.5406 0.64494 0.52819 0.0
C494 C 0.55772 0.6516 0.48256 0.0
C495 C 0.54085 0.66661 0.49212 0.0
C496 C 0.56586 0.63351 0.49562 0.0
C497 C 0.59531 0.54032 0.57827 0.0
C498 C 0.63216 0.53476 0.55702 0.0
C499 C 0.61462 0.50341 0.58018 0.0
C500 C 0.59602 0.51753 0.58657 0.0
C501 C 0.63299 0.51183 0.56535 0.0
C502 C 0.61346 0.54886 0.56338 0.0
C503 C 0.57556 0.55477 0.58562 0.0
O504 O 0.53933 0.61486 0.59835 0.0
O505 O 0.51473 0.58989 0.57784 0.0
O506 O 0.55641 0.55202 0.57225 0.0
O507 O 0.58133 0.57703 0.59238 0.0
H508 H 0.53383 0.57884 0.63004 0.0
H509 H 0.51309 0.56677 0.66579 0.0
H510 H 0.45244 0.60394 0.64573 0.0
H511 H 0.47368 0.61652 0.61042 0.0
H512 H 0.51975 0.67446 0.52326 0.0
H513 H 0.53381 0.64253 0.54583 0.0
H514 H 0.56434 0.65353 0.4648 0.0
H515 H 0.57871 0.62209 0.48779 0.0
H516 H 0.6461 0.54196 0.54579 0.0
H517 H 0.6144 0.48575 0.58662 0.0
H518 H 0.58212 0.5106 0.59802 0.0
H519 H 0.61324 0.56643 0.55678 0.0
C520 C 0.49544 0.49016 0.9409 0.0
C521 C 0.4892 0.51381 0.94116 0.0
C522 C 0.47096 0.50669 0.90221 0.0
C523 C 0.477 0.52194 0.92205 0.0
C524 C 0.47729 0.48309 0.90195 0.0
C525 C 0.48929 0.47491 0.92113 0.0
U526 U 0.54912 0.49232 0.98229 0.0
O527 O 0.55163 0.48837 0.02053 0.0
O528 O 0.56866 0.46355 0.99589 0.0
C529 C 0.56295 0.46887 0.01792 0.0
C530 C 0.50826 0.48104 0.96091 0.0
C531 C 0.55404 0.44877 0.03175 0.0
C532 C 0.52246 0.42697 0.05246 0.0
C533 C 0.53012 0.44574 0.03861 0.0
C534 C 0.56239 0.41378 0.05242 0.0
C535 C 0.53851 0.41076 0.05962 0.0
C536 C 0.57005 0.4326 0.0387 0.0
C537 C 0.59993 0.53991 0.9736 0.0
C538 C 0.62889 0.5567 1.00282 0.0
C539 C 0.63625 0.56141 0.9612 0.0
C540 C 0.61465 0.54861 0.95565 0.0
C541 C 0.64345 0.56589 0.98486 0.0
C542 C 0.60736 0.54373 0.99723 0.0
C543 C 0.57667 0.52766 0.96726 0.0
O544 O 0.5278 0.47062 0.95541 0.0
O545 O 0.51044 0.49492 0.9803 0.0
O546 O 0.55942 0.53048 0.98256 0.0
O547 O 0.57715 0.50577 0.95838 0.0
H548 H 0.49376 0.52609 0.95607 0.0
H549 H 0.47254 0.54025 0.92269 0.0
H550 H 0.47261 0.47082 0.88706 0.0
H551 H 0.49377 0.45659 0.92053 0.0
H552 H 0.50401 0.42542 0.05787 0.0
H553 H 0.51739 0.45797 0.03345 0.0
H554 H 0.57518 0.40145 0.05718 0.0
H555 H 0.58857 0.43458 0.03355 0.0
H556 H 0.6341 0.55964 0.02119 0.0
H557 H 0.64695 0.56845 0.94699 0.0
H558 H 0.60923 0.54584 0.93731 0.0
H559 H 0.59638 0.53698 0.01139 0.0
C560 C 0.70701 0.29429 0.36961 0.0
C561 C 0.71351 0.28313 0.3899 0.0
C562 C 0.71643 0.32117 0.41256 0.0
C563 C 0.71808 0.29643 0.41118 0.0
C564 C 0.71017 0.33224 0.39205 0.0
C565 C 0.70545 0.31892 0.37085 0.0
U566 U 0.71769 0.24405 0.32345 0.0
O567 O 0.69176 0.21971 0.30356 0.0
O568 O 0.71632 0.24378 0.28467 0.0
C569 C 0.6976 0.22849 0.28324 0.0
C570 C 0.7015 0.28069 0.34709 0.0
C571 C 0.6775 0.23513 0.269 0.0
C572 C 0.64991 0.26375 0.25777 0.0
C573 C 0.66966 0.25816 0.27083 0.0
C574 C 0.64567 0.22337 0.24098 0.0
C575 C 0.63753 0.24633 0.24289 0.0
C576 C 0.66546 0.21786 0.25389 0.0
C577 C 0.7673 0.20246 0.33471 0.0
C578 C 0.78258 0.17361 0.30622 0.0
C579 C 0.79198 0.17223 0.34778 0.0
C580 C 0.77881 0.19186 0.35282 0.0
C581 C 0.79397 0.16277 0.32444 0.0
C582 C 0.76925 0.19325 0.31133 0.0
C583 C 0.75332 0.22294 0.34084 0.0
O584 O 0.71774 0.28274 0.33055 0.0
O585 O 0.69234 0.25882 0.34868 0.0
O586 O 0.731 0.21782 0.34646 0.0
O587 O 0.7562 0.241 0.32727 0.0
H588 H 0.71491 0.26413 0.38937 0.0
H589 H 0.7226 0.28724 0.42663 0.0
H590 H 0.70919 0.35127 0.39225 0.0
H591 H 0.70058 0.32788 0.35537 0.0
H592 H 0.64394 0.28152 0.25979 0.0
H593 H 0.67862 0.27171 0.28258 0.0
H594 H 0.63669 0.20963 0.22948 0.0
H595 H 0.67123 0.19999 0.25225 0.0
H596 H 0.78357 0.16662 0.28811 0.0
H597 H 0.80078 0.16453 0.36218 0.0
H598 H 0.77756 0.19876 0.37096 0.0
H599 H 0.76038 0.20114 0.2971 0.0
C600 C 0.46446 0.11794 0.03891 0.0
C601 C 0.48855 0.12416 0.04417 0.0
C602 C 0.4781 0.16141 0.06373 0.0
C603 C 0.49529 0.14567 0.05658 0.0
C604 C 0.45409 0.15528 0.058 0.0
C605 C 0.44736 0.13373 0.04578 0.0
U606 U 0.46978 0.06844 0.99038 0.0
O607 O 0.46384 0.02976 0.9921 0.0
O608 O 0.44139 0.04882 0.96908 0.0
C609 C 0.44471 0.02871 0.97867 0.0
C610 C 0.45658 0.095 0.02676 0.0
C611 C 0.42303 0.01607 0.98775 0.0
C612 C 0.39999 0.99886 0.01968 0.0
C613 C 0.42084 0.01068 0.0116 0.0
C614 C 0.38313 0.99791 0.98032 0.0
C615 C 0.38087 0.99246 1.00414 0.0
C616 C 0.40403 0.0095 0.97222 0.0
C617 C 0.51936 0.07364 0.94408 0.0
C618 C 0.53656 0.04225 0.92006 0.0
C619 C 0.53873 0.08233 0.90697 0.0
C620 C 0.52664 0.08981 0.92724 0.0
C621 C 0.54391 0.05849 0.90317 0.0
C622 C 0.52427 0.04972 0.94029 0.0
C623 C 0.50686 0.0823 0.96537 0.0
O624 O 0.44781 0.09615 1.00542 0.0
O625 O 0.47057 0.07756 0.02857 0.0
O626 O 0.50839 0.07008 0.98431 0.0
O627 O 0.48542 0.08912 0.96177 0.0
H628 H 0.50214 0.11236 0.03889 0.0
H629 H 0.51395 0.15002 0.06055 0.0
H630 H 0.4404 0.16689 0.0635 0.0
H631 H 0.42869 0.12926 0.04192 0.0
H632 H 0.39868 0.99503 0.03815 0.0
H633 H 0.43514 0.01566 0.02405 0.0
H634 H 0.36884 0.99293 0.96786 0.0
H635 H 0.40533 0.0134 0.95375 0.0
H636 H 0.54012 0.02374 0.91752 0.0
H637 H 0.54442 0.09534 0.89447 0.0
H638 H 0.52308 0.10833 0.92983 0.0
H639 H 0.51868 0.03684 0.95295 0.0
O640 O 0.25452 0.8749 0.01397 0.0
Cd641 Cd 0.26871 0.89312 0.04398 0.0
Cd642 Cd 0.24056 0.92935 0.02605 0.0
O643 O 0.23183 0.90188 1.00132 0.0
O644 O 0.28495 0.86842 0.06047 0.0
O645 O 0.25474 0.88645 0.07605 0.0
C646 C 0.27031 0.87094 0.07771 0.0
C647 C 0.2099 0.95326 0.03848 0.0
C648 C 0.23979 0.88141 0.99907 0.0
C649 C 0.29421 0.93936 0.03043 0.0
O650 O 0.27424 0.94611 0.02411 0.0
O651 O 0.29554 0.91939 0.03938 0.0
O652 O 0.21915 0.95441 0.01779 0.0
O653 O 0.21802 0.93837 0.05235 0.0
O654 O 0.16842 0.54989 0.29145 0.0
Cd655 Cd 0.14775 0.52005 0.30037 0.0
Cd656 Cd 0.11498 0.541 0.27061 0.0
O657 O 0.14411 0.56469 0.26652 0.0
O658 O 0.17066 0.50103 0.3167 0.0
O659 O 0.15294 0.48856 0.28312 0.0
C660 C 0.16779 0.48502 0.2997 0.0
C661 C 0.09261 0.52885 0.23666 0.0
C662 C 0.16404 0.56554 0.27714 0.0
C663 C 0.1016 0.53488 0.32191 0.0
O664 O 0.09666 0.54292 0.30214 0.0
O665 O 0.12059 0.5244 0.32453 0.0
O666 O 0.09166 0.54975 0.24667 0.0
O667 O 0.10643 0.51463 0.24595 0.0
O668 O 0.75879 0.69821 0.99693 0.0
Cd669 Cd 0.74864 0.67718 0.02439 0.0
Cd670 Cd 0.77846 0.64679 0.99837 0.0
O671 O 0.7834 0.67561 0.97744 0.0
O672 O 0.72848 0.69833 0.04377 0.0
O673 O 0.76133 0.68519 0.0576 0.0
C674 C 0.74312 0.69754 0.06106 0.0
C675 C 0.81116 0.62894 0.01323 0.0
C676 C 0.77296 0.6948 0.97981 0.0
C677 C 0.72729 0.62932 1.00431 0.0
O678 O 0.74703 0.6257 0.99437 0.0
O679 O 0.72501 0.64805 0.01731 0.0
O680 O 0.80474 0.62557 0.99139 0.0
O681 O 0.79924 0.643 0.02665 0.0
O682 O 0.92158 0.02683 0.3007 0.0
Cd683 Cd 0.90408 0.03082 0.2692 0.0
Cd684 Cd 0.86845 0.04542 0.30115 0.0
O685 O 0.89453 0.03974 0.32551 0.0
O686 O 0.92875 0.02583 0.24449 0.0
O687 O 0.91135 0.05941 0.24983 0.0
C688 C 0.92635 0.04705 0.23824 0.0
C689 C 0.84752 0.07969 0.30695 0.0
C690 C 0.9147 0.03152 0.3217 0.0
C691 C 0.85656 1.00217 0.26844 0.0
O692 O 0.84993 0.0158 0.28539 0.0
O693 O 0.87703 1.00568 0.25932 0.0
O694 O 0.84394 0.06188 0.31998 0.0
O695 O 0.86326 0.0782 0.29047 0.0
O696 O 0.26025 0.19689 0.49682 0.0
Cd697 Cd 0.24868 0.17649 0.52415 0.0
Cd698 Cd 0.27582 0.14401 0.498 0.0
O699 O 0.2815 0.17199 0.47599 0.0
O700 O 0.23103 0.19984 0.54356 0.0
O701 O 0.26175 0.18286 0.55741 0.0
C702 C 0.2453 0.19741 0.56081 0.0
C703 C 0.30813 0.12558 0.51288 0.0
C704 C 0.27306 0.1922 0.47896 0.0
C705 C 0.22385 0.1299 0.50497 0.0
O706 O 0.24338 0.12432 0.49569 0.0
O707 O 0.22273 0.14945 0.51694 0.0
O708 O 0.30102 0.12145 0.49131 0.0
O709 O 0.29707 0.14061 0.52601 0.0
O710 O 0.4234 0.53014 0.80201 0.0
Cd711 Cd 0.40595 0.53373 0.7704 0.0
Cd712 Cd 0.37057 0.54861 0.80205 0.0
O713 O 0.3963 0.54301 0.82678 0.0
O714 O 0.43068 0.52864 0.74576 0.0
O715 O 0.41308 0.56214 0.75073 0.0
C716 C 0.42817 0.54976 0.73929 0.0
C717 C 0.35001 0.58319 0.80643 0.0
C718 C 0.4165 0.53484 0.82301 0.0
C719 C 0.35855 0.505 0.76989 0.0
O720 O 0.35194 0.51891 0.78661 0.0
O721 O 0.37903 0.50834 0.76075 0.0
O722 O 0.34571 0.56568 0.81972 0.0
O723 O 0.3664 0.5813 0.79064 0.0
O724 O 0.75445 0.37391 0.51241 0.0
Cd725 Cd 0.76807 0.39211 0.54267 0.0
Cd726 Cd 0.73945 0.42786 0.52483 0.0
O727 O 0.73051 0.40013 0.5004 0.0
O728 O 0.78438 0.3676 0.55937 0.0
O729 O 0.75383 0.38532 0.57459 0.0
C730 C 0.76956 0.37001 0.57646 0.0
C731 C 0.7088 0.45174 0.53736 0.0
C732 C 0.73916 0.38 0.49784 0.0
C733 C 0.79311 0.43841 0.52907 0.0
O734 O 0.77307 0.44479 0.52245 0.0
O735 O 0.79462 0.41865 0.53837 0.0
O736 O 0.71783 0.45272 0.51655 0.0
O737 O 0.71714 0.43702 0.55128 0.0
O738 O 0.66756 0.05036 0.7905 0.0
Cd739 Cd 0.64687 0.02055 0.79939 0.0
Cd740 Cd 0.61412 0.04159 0.76987 0.0
O741 O 0.64321 0.06533 0.76572 0.0
O742 O 0.66981 1.00156 0.81569 0.0
O743 O 0.65202 0.98905 0.78215 0.0
C744 C 0.6669 0.98553 0.79871 0.0
C745 C 0.59177 0.02916 0.73598 0.0
C746 C 0.66318 0.0661 0.77628 0.0
C747 C 0.60087 0.03537 0.82117 0.0
O748 O 0.59586 0.04347 0.80144 0.0
O749 O 0.61986 0.02488 0.82367 0.0
O750 O 0.59072 0.0501 0.74588 0.0
O751 O 0.60569 0.01508 0.74533 0.0
O752 O 0.98811 0.30648 0.9379 0.0
Cd753 Cd 0.99051 0.2742 0.91922 0.0
Cd754 Cd 0.01575 0.30321 0.88775 0.0
O755 O 0.00863 0.32901 0.91347 0.0
O756 O 0.98363 0.24933 0.94242 0.0
O757 O 0.01828 0.25442 0.92444 0.0
C758 C 1.00504 0.2431 0.93932 0.0
C759 C 0.05246 0.30763 0.86826 0.0
C760 C 0.99674 0.3268 0.93237 0.0
C761 C 0.97002 0.27549 0.87054 0.0
O762 O 0.98778 0.28977 0.86646 0.0
O763 O 0.96765 0.26664 0.89062 0.0
O764 O 0.03558 0.32117 0.86472 0.0
O765 O 0.04879 0.29157 0.88339 0.0
O766 O 0.48706 0.80414 0.43775 0.0
Cd767 Cd 0.49056 0.77239 0.41846 0.0
Cd768 Cd 0.51594 0.80256 0.38776 0.0
O769 O 0.50852 0.8272 0.4145 0.0
O770 O 0.48356 0.74657 0.44064 0.0
O771 O 0.51879 0.75343 0.42424 0.0
C772 C 0.50533 0.7412 0.43825 0.0
C773 C 0.55251 0.80888 0.3683 0.0
C774 C 0.49602 0.82457 0.43296 0.0
C775 C 0.47072 0.77476 0.3695 0.0
O776 O 0.48811 0.7897 0.36602 0.0
O777 O 0.46854 0.76507 0.38918 0.0
O778 O 0.53542 0.82247 0.36601 0.0
O779 O 0.54908 0.79154 0.38203 0.0
O780 O 0.98768 0.78324 0.68882 0.0
Cd781 Cd 0.01583 0.77113 0.66942 0.0
Cd782 Cd 0.99215 0.79725 0.63465 0.0
O783 O 0.96895 0.80253 0.66251 0.0
O784 O 0.03235 0.75398 0.69371 0.0
O785 O 0.04989 0.78412 0.67594 0.0
C786 C 0.05101 0.76801 0.69105 0.0
C787 C 1.00551 0.83002 0.61354 0.0
C788 C 0.97049 0.79522 0.68322 0.0
C789 C 0.99839 0.74523 0.62333 0.0
O790 O 0.99056 0.76432 0.61672 0.0
O791 O 0.00876 0.74475 0.6432 0.0
O792 O 0.98427 0.82017 0.61078 0.0
O793 O 0.01928 0.82132 0.62854 0.0
O794 O 0.48904 0.28144 0.18999 0.0
Cd795 Cd 0.51742 0.27009 0.17025 0.0
Cd796 Cd 0.49424 0.29869 0.13675 0.0
O797 O 0.47159 0.30343 0.16506 0.0
O798 O 0.53364 0.2508 0.19297 0.0
O799 O 0.55134 0.28264 0.17825 0.0
C800 C 0.55235 0.26507 0.19168 0.0
C801 C 0.50719 0.33179 0.11591 0.0
C802 C 0.4725 0.29458 0.18513 0.0
C803 C 0.49966 0.24693 0.12299 0.0
O804 O 0.49158 0.26638 0.11776 0.0
O805 O 0.5106 0.24539 0.14238 0.0
O806 O 0.4859 0.32202 0.11348 0.0
O807 O 0.52123 0.32292 0.13055 0.0
C808 C 0.23579 0.82833 0.9548 0.0
C809 C 0.22138 0.83618 0.93699 0.0
H810 H 0.25273 0.83626 0.98839 0.0
C811 C 0.21242 0.85869 0.94024 0.0
H812 H 0.24272 0.81096 0.95304 0.0
C813 C 0.21797 0.87311 0.96059 0.0
C814 C 0.2327 0.86544 0.97821 0.0
H815 H 0.20155 0.86547 0.92678 0.0
H816 H 0.21104 0.89047 0.96226 0.0
C817 C 0.24139 0.84278 0.97516 0.0
C818 C 0.07643 0.53544 0.38409 0.0
C819 C 0.05759 0.55024 0.38228 0.0
H820 H 0.10514 0.51898 0.36654 0.0
C821 C 0.05253 0.55877 0.36017 0.0
H822 H 0.08088 0.52872 0.40093 0.0
C823 C 0.06636 0.55317 0.34046 0.0
C824 C 0.08573 0.53902 0.3424 0.0
H825 H 0.03792 0.56994 0.35813 0.0
H826 H 0.06216 0.5604 0.32381 0.0
C827 C 0.0904 0.52995 0.36439 0.0
C828 C 0.7934 0.72653 0.92515 0.0
C829 C 0.78004 0.74665 0.92669 0.0
H830 H 0.80184 0.69448 0.94069 0.0
C831 C 0.7651 0.74987 0.9463 0.0
H832 H 0.80533 0.72361 0.91048 0.0
C833 C 0.76329 0.73333 0.9637 0.0
C834 C 0.77627 0.71299 0.96197 0.0
H835 H 0.75423 0.76488 0.94795 0.0
H836 H 0.75128 0.73631 0.9783 0.0
C837 C 0.79152 0.70989 0.94257 0.0
C838 C 0.96239 1.00545 0.35746 0.0
C839 C 0.95602 0.01209 0.38073 0.0
H840 H 0.95464 1.00665 0.32062 0.0
C841 C 0.93667 0.0262 0.38439 0.0
H842 H 0.97739 0.99483 0.35406 0.0
C843 C 0.92356 0.03295 0.36523 0.0
C844 C 0.92964 0.02593 0.34195 0.0
H845 H 0.93124 0.03148 0.40212 0.0
H846 H 0.90844 0.04338 0.36871 0.0
C847 C 0.94944 0.01239 0.33829 0.0
C848 C 0.25033 0.21753 0.6258 0.0
C849 C 0.23551 0.23653 0.62701 0.0
H850 H 0.2654 0.19038 0.60378 0.0
C851 C 0.22444 0.24272 0.60629 0.0
H852 H 0.25918 0.21246 0.6415 0.0
C853 C 0.2278 0.23004 0.58489 0.0
C854 C 0.24254 0.211 0.5836 0.0
H855 H 0.21271 0.25708 0.60672 0.0
H856 H 0.21876 0.23517 0.56932 0.0
C857 C 0.25397 0.20499 0.60423 0.0
C858 C 0.45289 0.59064 0.69282 0.0
C859 C 0.46778 0.57584 0.67976 0.0
H860 H 0.42876 0.59412 0.72188 0.0
C861 C 0.46964 0.55261 0.68674 0.0
H862 H 0.45123 0.60873 0.68814 0.0
C863 C 0.45696 0.54435 0.70616 0.0
C864 C 0.44196 0.55905 0.71909 0.0
H865 H 0.48056 0.54055 0.67692 0.0
H866 H 0.45874 0.52628 0.71084 0.0
C867 C 0.4401 0.58232 0.71225 0.0
C868 C 0.75277 0.33987 0.63297 0.0
C869 C 0.77118 0.32454 0.63495 0.0
H870 H 0.73788 0.36645 0.61313 0.0
C871 C 0.78941 0.32504 0.61804 0.0
H872 H 0.73857 0.34009 0.64584 0.0
C873 C 0.789 0.34008 0.59935 0.0
C874 C 0.77041 0.35512 0.59712 0.0
H875 H 0.8037 0.31328 0.61884 0.0
H876 H 0.80316 0.33966 0.58645 0.0
C877 C 0.75243 0.35506 0.61431 0.0
C878 C 0.54991 0.03137 0.68392 0.0
C879 C 0.54967 0.00814 0.67373 0.0
H880 H 0.56332 0.05616 0.71139 0.0
C881 C 0.56345 0.99179 0.68429 0.0
H882 H 0.53985 0.04454 0.67609 0.0
C883 C 0.57716 0.99854 0.70447 0.0
C884 C 0.57736 0.02178 0.71459 0.0
H885 H 0.56346 0.97366 0.67712 0.0
H886 H 0.58752 0.98552 0.71218 0.0
C887 C 0.56353 0.03808 0.70411 0.0
C888 C 0.9124 0.25311 0.83907 0.0
C889 C 0.91444 0.26476 0.81778 0.0
H890 H 0.92833 0.24712 0.87237 0.0
C891 C 0.93544 0.27884 0.81365 0.0
H892 H 0.89663 0.24185 0.84271 0.0
C893 C 0.95365 0.28163 0.83048 0.0
C894 C 0.95137 0.27055 0.85203 0.0
H895 H 0.93757 0.2884 0.7977 0.0
H896 H 0.9693 0.29303 0.82676 0.0
C897 C 0.93065 0.25598 0.85601 0.0
C898 C 0.47128 0.86372 0.48238 0.0
C899 C 0.47746 0.88654 0.47474 0.0
H900 H 0.47221 0.82622 0.47522 0.0
C901 C 0.49087 0.88877 0.45399 0.0
H902 H 0.46085 0.86143 0.49824 0.0
C903 C 0.49747 0.86867 0.44088 0.0
C904 C 0.49068 0.84579 0.44808 0.0
H905 H 0.4962 0.90611 0.44782 0.0
H906 H 0.50749 0.87111 0.4248 0.0
C907 C 0.47773 0.84356 0.46914 0.0
C908 C 0.09707 0.32731 0.82222 0.0
C909 C 0.11751 0.31644 0.82879 0.0
H910 H 0.06075 0.3332 0.82961 0.0
C911 C 0.1165 0.3025 0.84857 0.0
H912 H 0.0974 0.33841 0.80725 0.0
C913 C 0.09533 0.29934 0.86139 0.0
C914 C 0.07496 0.31043 0.85487 0.0
H915 H 0.13199 0.29387 0.85398 0.0
H916 H 0.09498 0.28844 0.8765 0.0
C917 C 0.07611 0.32445 0.83516 0.0
C918 C 0.54713 0.69902 0.46342 0.0
C919 C 0.53182 0.68564 0.47805 0.0
H920 H 0.55087 0.72699 0.43941 0.0
C921 C 0.50771 0.69054 0.47909 0.0
H922 H 0.56586 0.69595 0.46236 0.0
C923 C 0.49918 0.70843 0.46606 0.0
C924 C 0.51449 0.72188 0.45156 0.0
H925 H 0.49529 0.68037 0.48981 0.0
H926 H 0.48051 0.71169 0.46738 0.0
C927 C 0.53857 0.71691 0.45032 0.0
C928 C 0.91343 0.81486 0.71169 0.0
C929 C 0.91474 0.80574 0.73419 0.0
H930 H 0.93002 0.81893 0.67799 0.0
C931 C 0.93485 0.79383 0.73989 0.0
H932 H 0.89832 0.82435 0.70679 0.0
C933 C 0.95304 0.79088 0.72351 0.0
C934 C 0.95163 0.79969 0.70089 0.0
H935 H 0.93632 0.78621 0.75687 0.0
H936 H 0.96805 0.78131 0.72852 0.0
C937 C 0.93168 0.81189 0.69522 0.0
C938 C 0.04491 0.87941 0.58785 0.0
C939 C 0.02901 0.88943 0.57275 0.0
H940 H 0.05004 0.8529 0.61255 0.0
C941 C 1.00534 0.87972 0.57136 0.0
H942 H 0.06335 0.88619 0.58915 0.0
C943 C 0.99779 0.86051 0.58463 0.0
C944 C 0.01367 0.85054 0.59971 0.0
H945 H 0.99249 0.88717 0.56025 0.0
H946 H 0.97941 0.85355 0.5831 0.0
C947 C 0.03732 0.86023 0.6012 0.0
C948 C 0.11548 0.77288 0.71167 0.0
C949 C 0.11433 0.75826 0.73096 0.0
H950 H 0.09628 0.78779 0.68407 0.0
C951 C 0.0922 0.74742 0.73719 0.0
H952 H 0.13229 0.78157 0.70655 0.0
C953 C 0.07175 0.7508 0.72429 0.0
C954 C 0.07283 0.76532 0.70495 0.0
H955 H 0.09077 0.73584 0.75178 0.0
H956 H 0.05505 0.74192 0.72946 0.0
C957 C 0.09487 0.77653 0.69889 0.0
C958 C 0.99675 0.68023 0.60274 0.0
C959 C 0.98539 0.6801 0.58067 0.0
H960 H 0.00992 0.70077 0.63335 0.0
C961 C 0.97928 0.70175 0.57223 0.0
H962 H 1.00197 0.66388 0.60959 0.0
C963 C 0.98382 0.72297 0.58586 0.0
C964 C 0.99471 0.72302 0.60819 0.0
H965 H 0.97033 0.7022 0.55537 0.0
H966 H 0.97847 0.73927 0.57904 0.0
C967 C 1.0014 0.70142 0.61631 0.0
C968 C 0.83245 0.94749 0.23198 0.0
C969 C 0.81273 0.93956 0.24536 0.0
H970 H 0.86163 0.9734 0.22866 0.0
C971 C 0.80692 0.95313 0.26583 0.0
H972 H 0.8372 0.93782 0.21586 0.0
C973 C 0.82074 0.9738 0.27297 0.0
C974 C 0.84084 0.9813 0.25994 0.0
H975 H 0.79206 0.94746 0.27676 0.0
H976 H 0.81601 0.98354 0.28907 0.0
C977 C 0.84639 0.96803 0.23924 0.0
C978 C 0.82305 0.1399 0.30007 0.0
C979 C 0.80749 0.1414 0.31942 0.0
H980 H 0.84813 0.11936 0.28102 0.0
C981 C 0.8051 0.12236 0.33431 0.0
H982 H 0.82542 0.15434 0.28836 0.0
C983 C 0.81805 0.10243 0.33014 0.0
C984 C 0.83383 0.10099 0.31099 0.0
H985 H 0.79302 0.12276 0.34916 0.0
H986 H 0.81571 0.08814 0.34203 0.0
C987 C 0.83617 0.11993 0.29595 0.0
C988 C 0.33636 0.98681 1.00553 0.0
C989 C 0.35866 0.97995 0.01253 0.0
H990 H 0.29861 0.9797 1.00598 0.0
C991 C 0.35955 0.96054 0.02683 0.0
H992 H 0.33511 1.0019 0.99479 0.0
C993 C 0.3386 0.94772 0.03324 0.0
C994 C 0.3163 0.95418 0.02566 0.0
H995 H 0.37648 0.95477 0.0324 0.0
H996 H 0.33993 0.93246 0.04372 0.0
C997 C 0.31544 0.97416 0.0121 0.0
C998 C 0.19711 0.42959 0.27753 0.0
C999 C 0.21243 0.42609 0.29644 0.0
H1000 H 0.17076 0.45074 0.26378 0.0
C1001 C 0.21186 0.44135 0.31682 0.0
H1002 H 0.19691 0.41799 0.26167 0.0
C1003 C 0.19692 0.46004 0.31803 0.0
C1004 C 0.18205 0.46393 0.29892 0.0
H1005 H 0.2236 0.43939 0.3316 0.0
H1006 H 0.1974 0.47175 0.33382 0.0
C1007 C 0.18202 0.44826 0.27879 0.0
C1008 C 0.18156 0.07736 0.48464 0.0
C1009 C 0.15954 0.08488 0.49256 0.0
H1010 H 0.21916 0.08568 0.48219 0.0
C1011 C 0.15902 0.10683 0.50534 0.0
H1012 H 0.1825 0.06061 0.4746 0.0
C1013 C 0.17994 0.12115 0.5097 0.0
C1014 C 0.20193 0.11396 0.50129 0.0
H1015 H 0.14238 0.11297 0.51196 0.0
H1016 H 0.17878 0.13806 0.5194 0.0
C1017 C 0.20254 0.09179 0.48888 0.0
C1018 C 0.71993 0.10629 0.78187 0.0
C1019 C 0.71597 0.12357 0.76572 0.0
H1020 H 0.70657 0.07473 0.79782 0.0
C1021 C 0.69451 0.12165 0.75285 0.0
H1022 H 0.73606 0.10741 0.79238 0.0
C1023 C 0.67742 0.10294 0.75614 0.0
C1024 C 0.68141 0.08571 0.77235 0.0
H1025 H 0.69098 0.13448 0.74008 0.0
H1026 H 0.66108 0.10201 0.74596 0.0
C1027 C 0.70291 0.08759 0.7851 0.0
C1028 C 0.3587 0.085 0.51605 0.0
C1029 C 0.36492 0.08735 0.54014 0.0
H1030 H 0.33613 0.0952 0.48862 0.0
C1031 C 0.35256 0.10288 0.55511 0.0
H1032 H 0.36806 0.07356 0.50389 0.0
C1033 C 0.33435 0.11554 0.54627 0.0
C1034 C 0.328 0.11293 0.52225 0.0
H1035 H 0.35663 0.10496 0.57381 0.0
H1036 H 0.32504 0.12713 0.55834 0.0
C1037 C 0.34047 0.09757 0.50725 0.0
C1038 C 0.66232 0.48187 0.57459 0.0
C1039 C 0.65269 0.4966 0.55838 0.0
H1040 H 0.68751 0.45619 0.58076 0.0
C1041 C 0.66183 0.49641 0.5353 0.0
H1042 H 0.65598 0.48177 0.59261 0.0
C1043 C 0.68002 0.48189 0.5286 0.0
C1044 C 0.68954 0.46711 0.54476 0.0
H1045 H 0.65466 0.50718 0.52222 0.0
H1046 H 0.68651 0.48217 0.51064 0.0
C1047 C 0.6805 0.46727 0.56785 0.0
C1048 C 0.70822 0.35503 0.44145 0.0
C1049 C 0.72143 0.33548 0.43513 0.0
H1050 H 0.70332 0.38428 0.46612 0.0
C1051 C 0.73979 0.33007 0.45032 0.0
H1052 H 0.69363 0.35947 0.43049 0.0
C1053 C 0.7451 0.34412 0.47099 0.0
C1054 C 0.73231 0.36404 0.47692 0.0
H1055 H 0.75054 0.31535 0.44594 0.0
H1056 H 0.75967 0.33969 0.482 0.0
C1057 C 0.71366 0.36918 0.46202 0.0
C1058 C 0.55196 0.05916 0.85968 0.0
C1059 C 0.55734 0.05089 0.88183 0.0
H1060 H 0.5612 0.06055 0.82321 0.0
C1061 C 0.57628 0.03621 0.88357 0.0
H1062 H 0.53726 0.07022 0.85769 0.0
C1063 C 0.59007 0.03063 0.86377 0.0
C1064 C 0.58512 0.03951 0.84175 0.0
H1065 H 0.58095 0.02968 0.90042 0.0
H1066 H 0.60492 0.01979 0.86586 0.0
C1067 C 0.56562 0.05349 0.83988 0.0
C1068 C 0.29173 0.2221 0.4227 0.0
C1069 C 0.28103 0.2438 0.42568 0.0
H1070 H 0.29784 0.18884 0.43717 0.0
C1071 C 0.26866 0.24862 0.44673 0.0
H1072 H 0.30164 0.2179 0.40685 0.0
C1073 C 0.26668 0.23212 0.46414 0.0
C1074 C 0.27691 0.21022 0.461 0.0
H1075 H 0.25984 0.26491 0.44954 0.0
H1076 H 0.25663 0.23641 0.47989 0.0
C1077 C 0.2897 0.2055 0.44017 0.0
C1078 C 0.43816 0.52883 0.8857 0.0
C1079 C 0.45785 0.51519 0.88192 0.0
H1080 H 0.40966 0.54573 0.87015 0.0
C1081 C 0.46455 0.50918 0.8586 0.0
H1082 H 0.43246 0.53362 0.90346 0.0
C1083 C 0.45158 0.51622 0.8395 0.0
C1084 C 0.43145 0.52926 0.84325 0.0
H1085 H 0.47982 0.49895 0.85511 0.0
H1086 H 0.45706 0.51094 0.82179 0.0
C1087 C 0.42505 0.5357 0.86659 0.0
C1088 C 0.75074 0.72352 0.12416 0.0
C1089 C 0.72925 0.73441 0.12768 0.0
H1090 H 0.77199 0.70308 0.1004 0.0
C1091 C 0.71268 0.73325 0.10908 0.0
H1092 H 0.7638 0.72401 0.13823 0.0
C1093 C 0.71736 0.7214 0.08753 0.0
C1094 C 0.7387 0.71027 0.08402 0.0
H1095 H 0.69612 0.74175 0.11109 0.0
H1096 H 0.70413 0.72091 0.07363 0.0
C1097 C 0.75538 0.71145 0.10256 0.0
C1098 C 0.96786 0.05025 0.18575 0.0
C1099 C 0.966 0.07354 0.17893 0.0
H1100 H 0.95694 0.02375 0.20965 0.0
C1101 C 0.95112 0.08825 0.19208 0.0
H1102 H 0.97879 0.03825 0.17585 0.0
C1103 C 0.93832 0.07981 0.21145 0.0
C1104 C 0.94016 0.05648 0.21813 0.0
H1105 H 0.94946 0.10638 0.18752 0.0
H1106 H 0.92697 0.09155 0.22115 0.0
C1107 C 0.95516 0.04186 0.2051 0.0
C1108 C 0.25336 0.84031 0.1339 0.0
C1109 C 0.27169 0.82485 0.13571 0.0
H1110 H 0.23863 0.8672 0.11436 0.0
C1111 C 0.28995 0.82547 0.11883 0.0
H1112 H 0.23915 0.84043 0.14675 0.0
C1113 C 0.28963 0.84073 0.10032 0.0
C1114 C 0.27112 0.85589 0.09825 0.0
H1115 H 0.30417 0.81363 0.11949 0.0
H1116 H 0.3038 0.84038 0.08742 0.0
C1117 C 0.25313 0.85573 0.11542 0.0
C1118 C 0.05102 0.53166 0.1845 0.0
C1119 C 0.05069 0.50848 0.17415 0.0
H1120 H 0.06445 0.5562 0.21216 0.0
C1121 C 0.06428 0.49195 0.18468 0.0
H1122 H 0.04111 0.54497 0.1767 0.0
C1123 C 0.07792 0.49848 0.20496 0.0
C1124 C 0.07823 0.52167 0.21521 0.0
H1125 H 0.0642 0.47385 0.17739 0.0
H1126 H 0.08815 0.48534 0.21262 0.0
C1127 C 0.06457 0.53815 0.20477 0.0
C1128 C 0.41395 0.75145 0.33708 0.0
C1129 C 0.41543 0.76423 0.31646 0.0
H1130 H 0.43024 0.74454 0.36994 0.0
C1131 C 0.43582 0.77943 0.31304 0.0
H1132 H 0.39867 0.73931 0.34016 0.0
C1133 C 0.45398 0.78219 0.32992 0.0
C1134 C 0.45224 0.76996 0.35084 0.0
H1135 H 0.43749 0.78986 0.29762 0.0
H1136 H 0.46914 0.79445 0.32678 0.0
C1137 C 0.43214 0.7543 0.35409 0.0
C1138 C 0.97346 0.36669 0.98197 0.0
C1139 C 0.97909 0.38937 0.97372 0.0
H1140 H 0.97454 0.32915 0.97543 0.0
C1141 C 0.99162 0.39129 0.95242 0.0
H1142 H 0.96369 0.36462 0.99825 0.0
C1143 C 0.99793 0.37101 0.93938 0.0
C1144 C 0.99171 0.34828 0.94725 0.0
H1145 H 0.99652 0.40852 0.94576 0.0
H1146 H 1.00728 0.3732 0.92288 0.0
C1147 C 0.97961 0.34637 0.96883 0.0
C1148 C 0.6139 0.8014 0.34218 0.0
C1149 C 0.6174 0.82191 0.32934 0.0
H1150 H 0.59075 0.78125 0.36488 0.0
C1151 C 0.59946 0.83791 0.32953 0.0
H1152 H 0.62749 0.78881 0.34247 0.0
C1153 C 0.57856 0.8336 0.34226 0.0
C1154 C 0.57505 0.81322 0.35523 0.0
H1155 H 0.60142 0.85369 0.31956 0.0
H1156 H 0.56512 0.84633 0.34187 0.0
C1157 C 0.59296 0.79714 0.35511 0.0
C1158 C 0.00886 0.19628 0.98421 0.0
C1159 C 0.03083 0.18696 0.97882 0.0
H1160 H 0.98355 0.22105 0.97604 0.0
C1161 C 0.04434 0.19643 0.96021 0.0
H1162 H 0.99813 0.18986 0.99867 0.0
C1163 C 0.03608 0.21468 0.94739 0.0
C1164 C 0.01403 0.22378 0.95275 0.0
H1165 H 0.06118 0.18953 0.95528 0.0
H1166 H 0.04688 0.22151 0.93316 0.0
C1167 C 1.00053 0.21433 0.97129 0.0
C1168 C 0.41635 0.31553 0.21432 0.0
C1169 C 0.41656 0.30463 0.23599 0.0
H1170 H 0.43385 0.32114 0.18134 0.0
C1171 C 0.43566 0.29098 0.24096 0.0
H1172 H 0.40206 0.32638 0.21002 0.0
C1173 C 0.45394 0.28812 0.22464 0.0
C1174 C 0.45361 0.29875 0.20284 0.0
H1175 H 0.43626 0.28198 0.25728 0.0
H1176 H 0.46816 0.27721 0.22903 0.0
C1177 C 0.43467 0.31264 0.19793 0.0
C1178 C 0.50792 0.37866 0.07063 0.0
C1179 C 0.53041 0.39073 0.07439 0.0
H1180 H 0.48302 0.35078 0.08071 0.0
C1181 C 0.54514 0.38334 0.09224 0.0
H1182 H 0.49623 0.38354 0.05684 0.0
C1183 C 0.53764 0.36429 0.10579 0.0
C1184 C 0.51519 0.35225 0.10193 0.0
H1185 H 0.56242 0.39242 0.09592 0.0
H1186 H 0.54943 0.35904 0.11933 0.0
C1187 C 0.50039 0.35973 0.08426 0.0
C1188 C 0.61478 0.27267 0.21798 0.0
C1189 C 0.61572 0.25166 0.22999 0.0
H1190 H 0.59409 0.29337 0.19622 0.0
C1191 C 0.59559 0.23551 0.22956 0.0
H1192 H 0.63006 0.2854 0.21791 0.0
C1193 C 0.57509 0.24008 0.21729 0.0
C1194 C 0.57418 0.26087 0.20499 0.0
H1195 H 0.59559 0.21935 0.23891 0.0
H1196 H 0.55997 0.22714 0.21736 0.0
C1197 C 0.59423 0.27717 0.20549 0.0
C1198 C 0.47492 0.20499 0.07296 0.0
C1199 C 0.48495 0.18376 0.07785 0.0
H1200 H 0.47186 0.24161 0.08314 0.0
C1201 C 0.50077 0.18378 0.09701 0.0
H1202 H 0.46287 0.20558 0.05815 0.0
C1203 C 0.50589 0.2044 0.11138 0.0
C1204 C 0.49544 0.22552 0.10682 0.0
H1205 H 0.50862 0.16766 0.10136 0.0
H1206 H 0.51778 0.20365 0.12628 0.0
C1207 C 0.48017 0.22566 0.08722 0.0
C1208 C 0.30879 0.45607 0.76819 0.0
C1209 C 0.31482 0.44186 0.74824 0.0
H1210 H 0.31769 0.48714 0.79059 0.0
C1211 C 0.33467 0.44937 0.7348 0.0
H1212 H 0.2938 0.45076 0.77912 0.0
C1213 C 0.34855 0.47009 0.74155 0.0
C1214 C 0.34282 0.48398 0.7618 0.0
H1215 H 0.33957 0.43919 0.71904 0.0
H1216 H 0.3639 0.47511 0.73098 0.0
C1217 C 0.32257 0.47692 0.77484 0.0
C1218 C 0.32969 0.64528 0.80065 0.0
C1219 C 0.30925 0.64477 0.81492 0.0
H1220 H 0.35852 0.62614 0.78651 0.0
C1221 C 0.30247 0.62393 0.82627 0.0
H1222 H 0.33529 0.66107 0.79161 0.0
C1223 C 0.31581 0.60411 0.82354 0.0
C1224 C 0.33617 0.6045 0.80919 0.0
H1225 H 0.28701 0.62307 0.83763 0.0
H1226 H 0.31007 0.5884 0.83266 0.0
C1227 C 0.34293 0.62527 0.79768 0.0
C1228 C 0.85827 0.46038 0.5262 0.0
C1229 C 0.85742 0.47927 0.51125 0.0
H1230 H 0.83867 0.43262 0.54358 0.0
C1231 C 0.83516 0.48557 0.50352 0.0
H1232 H 0.87517 0.45504 0.53235 0.0
C1233 C 0.81424 0.47285 0.51003 0.0
C1234 C 0.8151 0.45337 0.52427 0.0
H1235 H 0.83393 0.50026 0.49224 0.0
H1236 H 0.79745 0.47793 0.50335 0.0
C1237 C 0.83734 0.44749 0.53256 0.0
C1238 C 0.71094 0.94188 0.81587 0.0
C1239 C 0.71148 0.9266 0.79551 0.0
H1240 H 0.6965 0.97231 0.83284 0.0
C1241 C 0.69615 0.93007 0.7766 0.0
H1242 H 0.72269 0.93993 0.83064 0.0
C1243 C 0.68107 0.94875 0.77784 0.0
C1244 C 0.68113 0.96444 0.79795 0.0
H1245 H 0.69594 0.91845 0.76075 0.0
H1246 H 0.66981 0.95121 0.76283 0.0
C1247 C 0.696 0.96058 0.81706 0.0
C1248 C 0.68651 0.57836 0.97783 0.0
C1249 C 0.66549 0.58107 0.99077 0.0
H1250 H 0.72261 0.59126 0.9721 0.0
C1251 C 0.66533 0.59911 0.0088 0.0
H1252 H 0.68723 0.56448 0.96396 0.0
C1253 C 0.68551 0.61448 0.01341 0.0
C1254 C 0.70642 0.61209 1.00021 0.0
H1255 H 0.64935 0.60181 0.01891 0.0
H1256 H 0.68458 0.62846 0.02716 0.0
C1257 C 0.7068 0.59363 0.98258 0.0
C1258 C 0.19529 0.62098 0.25341 0.0
C1259 C 0.21673 0.62305 0.26632 0.0
H1260 H 0.16193 0.60123 0.24657 0.0
C1261 C 0.2207 0.60591 0.28262 0.0
H1262 H 0.19176 0.63369 0.24052 0.0
C1263 C 0.20371 0.5872 0.28596 0.0
C1264 C 0.18224 0.58517 0.27315 0.0
H1265 H 0.23681 0.60714 0.29317 0.0
H1266 H 0.20737 0.57445 0.29878 0.0
C1267 C 0.17824 0.60227 0.25679 0.0
C1268 C 0.86245 0.58923 0.01613 0.0
C1269 C 0.86788 0.59059 0.0404 0.0
H1270 H 0.84054 0.60028 0.98858 0.0
C1271 C 0.85484 0.60529 0.05561 0.0
H1272 H 0.87236 0.57846 1.00381 0.0
C1273 C 0.83669 0.61806 0.0468 0.0
C1274 C 0.8311 0.61639 0.02258 0.0
H1275 H 0.8583 0.60659 0.07443 0.0
H1276 H 0.82681 0.62895 0.05904 0.0
C1277 C 0.84429 0.60192 0.00735 0.0
C1278 C 0.16305 0.99805 0.03635 0.0
C1279 C 0.15362 0.99799 0.0593 0.0
H1280 H 0.18801 0.98406 0.01184 0.0
C1281 C 0.16307 0.98311 0.07548 0.0
H1282 H 0.15602 0.00895 0.02329 0.0
C1283 C 0.18132 0.96858 0.06881 0.0
C1284 C 0.19062 0.96863 0.04583 0.0
H1285 H 0.1565 0.98283 0.09341 0.0
H1286 H 0.18817 0.95736 0.08169 0.0
C1287 C 0.18131 0.9836 0.02972 0.0
loop_
_geom_bond_atom_site_label_1
_geom_bond_atom_site_label_2
_geom_bond_distance
_geom_bond_site_symmetry_2
_ccdc_geom_bond_type
C0 C1 1.264 . S
C0 C5 1.479 . S
C0 C10 1.465 . S
C1 C0 1.264 . S
C1 C3 1.339 . S
C1 H28 0.931 . S
C2 C3 1.395 . S
C2 C4 1.320 . S
C3 C1 1.339 . S
C3 C2 1.395 . S
C3 H29 0.929 . S
C4 C2 1.320 . S
C4 C5 1.405 . S
C4 H30 0.930 . S
C5 C0 1.479 . S
C5 C4 1.405 . S
C5 H31 0.931 . S
U6 O7 2.454 . S
U6 O8 2.458 . S
U6 C9 2.984 . S
U6 C10 2.847 . S
U6 C23 2.882 . S
U6 O24 2.441 . S
U6 O25 2.420 . S
U6 O26 2.455 . S
U6 O27 2.449 . S
O7 U6 2.454 . S
O7 C9 1.353 . S
O8 U6 2.458 . S
O8 C9 1.286 . S
C9 U6 2.984 . S
C9 O7 1.353 . S
C9 O8 1.286 . S
C9 C11 1.363 . S
C10 C0 1.465 . S
C10 U6 2.847 . S
C10 O24 1.249 . S
C10 O25 1.202 . S
C11 C9 1.363 . S
C11 C13 1.408 . S
C11 C16 1.342 . S
C12 C13 1.310 . S
C12 C15 1.461 . S
C12 H32 0.932 . S
C13 C11 1.408 . S
C13 C12 1.310 . S
C13 H33 0.930 . S
C14 C15 1.474 . S
C14 C16 1.285 . S
C14 H34 0.929 . S
C15 C12 1.461 . S
C15 C14 1.474 . S
C16 C11 1.342 . S
C16 C14 1.285 . S
C16 H35 0.930 . S
C17 C20 1.424 . S
C17 C22 1.245 . S
C17 C23 1.428 . S
C18 C21 1.260 . S
C18 C22 1.477 . S
C18 H36 0.932 . S
C19 C20 1.384 . S
C19 C21 1.479 . S
C19 H37 0.929 . S
C20 C17 1.424 . S
C20 C19 1.384 . S
C20 H38 0.928 . S
C21 C18 1.260 . S
C21 C19 1.479 . S
C22 C17 1.245 . S
C22 C18 1.477 . S
C22 H39 0.932 . S
C23 U6 2.882 . S
C23 C17 1.428 . S
C23 O26 1.301 . S
C23 O27 1.282 . S
O24 U6 2.441 . S
O24 C10 1.249 . S
O25 U6 2.420 . S
O25 C10 1.202 . S
O26 U6 2.455 . S
O26 C23 1.301 . S
O27 U6 2.449 . S
O27 C23 1.282 . S
H28 C1 0.931 . S
H29 C3 0.929 . S
H30 C4 0.930 . S
H31 C5 0.931 . S
H32 C12 0.932 . S
H33 C13 0.930 . S
H34 C14 0.929 . S
H35 C16 0.930 . S
H36 C18 0.932 . S
H37 C19 0.929 . S
H38 C20 0.928 . S
H39 C22 0.932 . S
C40 C41 1.264 . S
C40 C45 1.479 . S
C40 C50 1.465 . S
C41 C40 1.264 . S
C41 C43 1.339 . S
C41 H68 0.931 . S
C42 C43 1.395 . S
C42 C44 1.320 . S
C43 C41 1.339 . S
C43 C42 1.395 . S
C43 H69 0.929 . S
C44 C42 1.320 . S
C44 C45 1.405 . S
C44 H70 0.930 . S
C45 C40 1.479 . S
C45 C44 1.405 . S
C45 H71 0.931 . S
U46 O47 2.454 . S
U46 O48 2.458 . S
U46 C49 2.984 . S
U46 C50 2.847 . S
U46 C63 2.882 . S
U46 O64 2.441 . S
U46 O65 2.420 . S
U46 O66 2.455 . S
U46 O67 2.449 . S
O47 U46 2.454 . S
O47 C49 1.353 . S
O48 U46 2.458 . S
O48 C49 1.286 . S
C49 U46 2.984 . S
C49 O47 1.353 . S
C49 O48 1.286 . S
C49 C51 1.363 . S
C50 C40 1.465 . S
C50 U46 2.847 . S
C50 O64 1.249 . S
C50 O65 1.202 . S
C51 C49 1.363 . S
C51 C53 1.408 . S
C51 C56 1.342 . S
C52 C53 1.310 . S
C52 C55 1.461 . S
C52 H72 0.932 . S
C53 C51 1.408 . S
C53 C52 1.310 . S
C53 H73 0.930 . S
C54 C55 1.474 . S
C54 C56 1.285 . S
C54 H74 0.929 . S
C55 C52 1.461 . S
C55 C54 1.474 . S
C56 C51 1.342 . S
C56 C54 1.285 . S
C56 H75 0.930 . S
C57 C60 1.424 . S
C57 C62 1.245 . S
C57 C63 1.428 . S
C58 C61 1.260 . S
C58 C62 1.477 . S
C58 H76 0.932 . S
C59 C60 1.384 . S
C59 C61 1.479 . S
C59 H77 0.929 . S
C60 C57 1.424 . S
C60 C59 1.384 . S
C60 H78 0.928 . S
C61 C58 1.260 . S
C61 C59 1.479 . S
C62 C57 1.245 . S
C62 C58 1.477 . S
C62 H79 0.932 . S
C63 U46 2.882 . S
C63 C57 1.428 . S
C63 O66 1.301 . S
C63 O67 1.282 . S
O64 U46 2.441 . S
O64 C50 1.249 . S
O65 U46 2.420 . S
O65 C50 1.202 . S
O66 U46 2.455 . S
O66 C63 1.301 . S
O67 U46 2.449 . S
O67 C63 1.282 . S
H68 C41 0.931 . S
H69 C43 0.929 . S
H70 C44 0.930 . S
H71 C45 0.931 . S
H72 C52 0.932 . S
H73 C53 0.930 . S
H74 C54 0.929 . S
H75 C56 0.930 . S
H76 C58 0.932 . S
H77 C59 0.929 . S
H78 C60 0.928 . S
H79 C62 0.932 . S
C80 C81 1.264 . S
C80 C85 1.479 . S
C80 C90 1.465 . S
C81 C80 1.264 . S
C81 C83 1.339 . S
C81 H108 0.931 . S
C82 C83 1.395 . S
C82 C84 1.320 . S
C83 C81 1.339 . S
C83 C82 1.395 . S
C83 H109 0.929 . S
C84 C82 1.320 . S
C84 C85 1.405 . S
C84 H110 0.930 1_554 S
C85 C80 1.479 . S
C85 C84 1.405 . S
C85 H111 0.931 . S
U86 O87 2.454 . S
U86 O88 2.458 . S
U86 C89 2.984 . S
U86 C90 2.847 . S
U86 C103 2.882 . S
U86 O104 2.441 . S
U86 O105 2.420 . S
U86 O106 2.455 . S
U86 O107 2.449 . S
O87 U86 2.454 . S
O87 C89 1.353 . S
O88 U86 2.458 . S
O88 C89 1.286 . S
C89 U86 2.984 . S
C89 O87 1.353 . S
C89 O88 1.286 . S
C89 C91 1.363 . S
C90 C80 1.465 . S
C90 U86 2.847 . S
C90 O104 1.249 . S
C90 O105 1.202 . S
C91 C89 1.363 . S
C91 C93 1.408 . S
C91 C96 1.342 . S
C92 C93 1.310 . S
C92 C95 1.461 . S
C92 H112 0.932 . S
C93 C91 1.408 . S
C93 C92 1.310 . S
C93 H113 0.930 . S
C94 C95 1.474 . S
C94 C96 1.285 . S
C94 H114 0.929 . S
C95 C92 1.461 . S
C95 C94 1.474 . S
C96 C91 1.342 . S
C96 C94 1.285 . S
C96 H115 0.930 . S
C97 C100 1.424 . S
C97 C102 1.245 . S
C97 C103 1.428 . S
C98 C101 1.260 . S
C98 C102 1.477 . S
C98 H116 0.932 . S
C99 C100 1.384 . S
C99 C101 1.479 . S
C99 H117 0.929 . S
C100 C97 1.424 . S
C100 C99 1.384 . S
C100 H118 0.928 . S
C101 C98 1.260 . S
C101 C99 1.479 . S
C102 C97 1.245 . S
C102 C98 1.477 . S
C102 H119 0.932 . S
C103 U86 2.882 . S
C103 C97 1.428 . S
C103 O106 1.301 . S
C103 O107 1.282 . S
O104 U86 2.441 . S
O104 C90 1.249 . S
O105 U86 2.420 . S
O105 C90 1.202 . S
O106 U86 2.455 . S
O106 C103 1.301 . S
O107 U86 2.449 . S
O107 C103 1.282 . S
H108 C81 0.931 . S
H109 C83 0.929 . S
H110 C84 0.930 1_556 S
H111 C85 0.931 . S
H112 C92 0.932 . S
H113 C93 0.930 . S
H114 C94 0.929 . S
H115 C96 0.930 . S
H116 C98 0.932 . S
H117 C99 0.929 . S
H118 C100 0.928 . S
H119 C102 0.932 . S
C120 C121 1.264 . S
C120 C125 1.479 . S
C120 C130 1.465 . S
C121 C120 1.264 . S
C121 C123 1.339 . S
C121 H148 0.931 . S
C122 C123 1.395 . S
C122 C124 1.320 . S
C123 C121 1.339 . S
C123 C122 1.395 . S
C123 H149 0.929 . S
C124 C122 1.320 . S
C124 C125 1.405 . S
C124 H150 0.930 . S
C125 C120 1.479 . S
C125 C124 1.405 . S
C125 H151 0.931 . S
U126 O127 2.454 . S
U126 O128 2.458 . S
U126 C129 2.984 . S
U126 C130 2.847 . S
U126 C143 2.882 . S
U126 O144 2.441 . S
U126 O145 2.420 . S
U126 O146 2.455 . S
U126 O147 2.449 . S
O127 U126 2.454 . S
O127 C129 1.353 . S
O128 U126 2.458 . S
O128 C129 1.286 . S
C129 U126 2.984 . S
C129 O127 1.353 . S
C129 O128 1.286 . S
C129 C131 1.363 . S
C130 C120 1.465 . S
C130 U126 2.847 . S
C130 O144 1.249 . S
C130 O145 1.202 . S
C131 C129 1.363 . S
C131 C133 1.408 . S
C131 C136 1.342 . S
C132 C133 1.310 . S
C132 C135 1.461 . S
C132 H152 0.932 . S
C133 C131 1.408 . S
C133 C132 1.310 . S
C133 H153 0.930 . S
C134 C135 1.474 . S
C134 C136 1.285 . S
C134 H154 0.929 . S
C135 C132 1.461 . S
C135 C134 1.474 . S
C136 C131 1.342 . S
C136 C134 1.285 . S
C136 H155 0.930 . S
C137 C140 1.424 . S
C137 C142 1.245 . S
C137 C143 1.428 . S
C138 C141 1.260 . S
C138 C142 1.477 . S
C138 H156 0.932 . S
C139 C140 1.384 . S
C139 C141 1.479 . S
C139 H157 0.929 . S
C140 C137 1.424 . S
C140 C139 1.384 . S
C140 H158 0.928 . S
C141 C138 1.260 . S
C141 C139 1.479 . S
C142 C137 1.245 . S
C142 C138 1.477 . S
C142 H159 0.932 . S
C143 U126 2.882 . S
C143 C137 1.428 . S
C143 O146 1.301 . S
C143 O147 1.282 . S
O144 U126 2.441 . S
O144 C130 1.249 . S
O145 U126 2.420 . S
O145 C130 1.202 . S
O146 U126 2.455 . S
O146 C143 1.301 . S
O147 U126 2.449 . S
O147 C143 1.282 . S
H148 C121 0.931 . S
H149 C123 0.929 . S
H150 C124 0.930 . S
H151 C125 0.931 . S
H152 C132 0.932 . S
H153 C133 0.930 . S
H154 C134 0.929 . S
H155 C136 0.930 . S
H156 C138 0.932 . S
H157 C139 0.929 . S
H158 C140 0.928 . S
H159 C142 0.932 . S
C160 C161 1.264 . S
C160 C165 1.479 . S
C160 C170 1.465 . S
C161 C160 1.264 . S
C161 C163 1.339 . S
C161 H188 0.931 1_565 S
C162 C163 1.407 . S
C162 C164 1.317 1_455 S
C163 C161 1.339 . S
C163 C162 1.407 . S
C163 H189 0.929 1_565 S
C164 C162 1.317 1_655 S
C164 C165 1.405 1_655 S
C164 H190 0.930 . S
C165 C160 1.479 . S
C165 C164 1.405 1_455 S
C165 H191 0.937 . S
U166 O167 2.454 . S
U166 O168 2.458 . S
U166 C169 2.984 . S
U166 C170 2.847 . S
U166 C183 2.882 . S
U166 O184 2.441 . S
U166 O185 2.420 . S
U166 O186 2.455 . S
U166 O187 2.449 . S
O167 U166 2.454 . S
O167 C169 1.353 . S
O168 U166 2.458 . S
O168 C169 1.286 . S
C169 U166 2.984 . S
C169 O167 1.353 . S
C169 O168 1.286 . S
C169 C171 1.363 . S
C170 C160 1.465 . S
C170 U166 2.847 . S
C170 O184 1.249 . S
C170 O185 1.202 . S
C171 C169 1.363 . S
C171 C173 1.408 . S
C171 C176 1.342 . S
C172 C173 1.310 . S
C172 C175 1.461 . S
C172 H192 0.932 . S
C173 C171 1.408 . S
C173 C172 1.310 . S
C173 H193 0.930 . S
C174 C175 1.474 . S
C174 C176 1.285 . S
C174 H194 0.929 . S
C175 C172 1.461 . S
C175 C174 1.474 . S
C176 C171 1.342 . S
C176 C174 1.285 . S
C176 H195 0.930 . S
C177 C180 1.424 . S
C177 C182 1.245 1_545 S
C177 C183 1.428 1_545 S
C178 C181 1.260 . S
C178 C182 1.477 1_545 S
C178 H196 0.932 . S
C179 C180 1.384 . S
C179 C181 1.479 . S
C179 H197 0.929 . S
C180 C177 1.424 . S
C180 C179 1.384 . S
C180 H198 0.928 . S
C181 C178 1.260 . S
C181 C179 1.479 . S
C182 C177 1.245 1_565 S
C182 C178 1.477 1_565 S
C182 H199 0.932 . S
C183 U166 2.882 . S
C183 C177 1.428 1_565 S
C183 O186 1.301 . S
C183 O187 1.282 . S
O184 U166 2.441 . S
O184 C170 1.249 . S
O185 U166 2.420 . S
O185 C170 1.202 . S
O186 U166 2.455 . S
O186 C183 1.301 . S
O187 U166 2.449 . S
O187 C183 1.282 . S
H188 C161 0.931 1_545 S
H189 C163 0.929 1_545 S
H190 C164 0.930 . S
H191 C165 0.937 . S
H192 C172 0.932 . S
H193 C173 0.930 . S
H194 C174 0.929 . S
H195 C176 0.930 . S
H196 C178 0.932 . S
H197 C179 0.929 . S
H198 C180 0.928 . S
H199 C182 0.932 . S
C200 C201 1.264 . S
C200 C205 1.479 . S
C200 C210 1.465 . S
C201 C200 1.264 . S
C201 C203 1.339 . S
C201 H228 0.931 . S
C202 C203 1.395 . S
C202 C204 1.320 . S
C203 C201 1.339 . S
C203 C202 1.395 . S
C203 H229 0.929 . S
C204 C202 1.320 . S
C204 C205 1.405 . S
C204 H230 0.930 . S
C205 C200 1.479 . S
C205 C204 1.405 . S
C205 H231 0.931 . S
U206 O207 2.454 . S
U206 O208 2.458 . S
U206 C209 2.984 . S
U206 C210 2.847 . S
U206 C223 2.882 . S
U206 O224 2.441 . S
U206 O225 2.420 . S
U206 O226 2.455 . S
U206 O227 2.449 . S
O207 U206 2.454 . S
O207 C209 1.353 . S
O208 U206 2.458 . S
O208 C209 1.286 . S
C209 U206 2.984 . S
C209 O207 1.353 . S
C209 O208 1.286 . S
C209 C211 1.363 . S
C210 C200 1.465 . S
C210 U206 2.847 . S
C210 O224 1.249 . S
C210 O225 1.202 . S
C211 C209 1.363 . S
C211 C213 1.408 . S
C211 C216 1.342 . S
C212 C213 1.310 . S
C212 C215 1.461 . S
C212 H232 0.932 . S
C213 C211 1.408 . S
C213 C212 1.310 . S
C213 H233 0.930 . S
C214 C215 1.474 . S
C214 C216 1.285 . S
C214 H234 0.929 . S
C215 C212 1.461 . S
C215 C214 1.474 . S
C216 C211 1.342 . S
C216 C214 1.285 . S
C216 H235 0.930 . S
C217 C220 1.424 . S
C217 C222 1.245 . S
C217 C223 1.428 . S
C218 C221 1.260 . S
C218 C222 1.477 . S
C218 H236 0.932 . S
C219 C220 1.384 . S
C219 C221 1.479 . S
C219 H237 0.929 . S
C220 C217 1.424 . S
C220 C219 1.384 . S
C220 H238 0.928 . S
C221 C218 1.260 . S
C221 C219 1.479 . S
C222 C217 1.245 . S
C222 C218 1.477 . S
C222 H239 0.932 . S
C223 U206 2.882 . S
C223 C217 1.428 . S
C223 O226 1.301 . S
C223 O227 1.282 . S
O224 U206 2.441 . S
O224 C210 1.249 . S
O225 U206 2.420 . S
O225 C210 1.202 . S
O226 U206 2.455 . S
O226 C223 1.301 . S
O227 U206 2.449 . S
O227 C223 1.282 . S
H228 C201 0.931 . S
H229 C203 0.929 . S
H230 C204 0.930 . S
H231 C205 0.931 . S
H232 C212 0.932 . S
H233 C213 0.930 . S
H234 C214 0.929 . S
H235 C216 0.930 . S
H236 C218 0.932 . S
H237 C219 0.929 . S
H238 C220 0.928 . S
H239 C222 0.932 . S
C240 C241 1.264 . S
C240 C245 1.479 . S
C240 C250 1.465 . S
C241 C240 1.264 . S
C241 C243 1.339 . S
C241 H268 0.931 . S
C242 C243 1.395 . S
C242 C244 1.320 . S
C243 C241 1.339 . S
C243 C242 1.395 . S
C243 H269 0.929 . S
C244 C242 1.320 . S
C244 C245 1.405 . S
C244 H270 0.930 . S
C245 C240 1.479 . S
C245 C244 1.405 . S
C245 H271 0.931 . S
U246 O247 2.454 . S
U246 O248 2.458 . S
U246 C249 2.984 . S
U246 C250 2.847 . S
U246 C263 2.882 . S
U246 O264 2.441 . S
U246 O265 2.420 . S
U246 O266 2.455 . S
U246 O267 2.449 . S
O247 U246 2.454 . S
O247 C249 1.353 . S
O248 U246 2.458 . S
O248 C249 1.286 . S
C249 U246 2.984 . S
C249 O247 1.353 . S
C249 O248 1.286 . S
C249 C251 1.363 . S
C250 C240 1.465 . S
C250 U246 2.847 . S
C250 O264 1.249 . S
C250 O265 1.202 . S
C251 C249 1.363 . S
C251 C253 1.408 . S
C251 C256 1.342 . S
C252 C253 1.310 . S
C252 C255 1.461 . S
C252 H272 0.932 . S
C253 C251 1.408 . S
C253 C252 1.310 . S
C253 H273 0.930 . S
C254 C255 1.474 . S
C254 C256 1.285 . S
C254 H274 0.929 . S
C255 C252 1.461 . S
C255 C254 1.474 . S
C256 C251 1.342 . S
C256 C254 1.285 . S
C256 H275 0.930 . S
C257 C260 1.424 . S
C257 C262 1.245 . S
C257 C263 1.428 . S
C258 C261 1.260 . S
C258 C262 1.477 . S
C258 H276 0.932 . S
C259 C260 1.366 1_455 S
C259 C261 1.473 1_455 S
C259 H277 0.953 . S
C260 C257 1.424 . S
C260 C259 1.366 1_655 S
C260 H278 0.928 . S
C261 C258 1.260 . S
C261 C259 1.473 1_655 S
C262 C257 1.245 . S
C262 C258 1.477 . S
C262 H279 0.932 . S
C263 U246 2.882 . S
C263 C257 1.428 . S
C263 O266 1.301 . S
C263 O267 1.282 . S
O264 U246 2.441 . S
O264 C250 1.249 . S
O265 U246 2.420 . S
O265 C250 1.202 . S
O266 U246 2.455 . S
O266 C263 1.301 . S
O267 U246 2.449 . S
O267 C263 1.282 . S
H268 C241 0.931 . S
H269 C243 0.929 . S
H270 C244 0.930 . S
H271 C245 0.931 . S
H272 C252 0.932 . S
H273 C253 0.930 . S
H274 C254 0.929 . S
H275 C256 0.930 . S
H276 C258 0.932 . S
H277 C259 0.953 . S
H278 C260 0.928 . S
H279 C262 0.932 . S
C280 C281 1.264 . S
C280 C285 1.479 . S
C280 C290 1.465 . S
C281 C280 1.264 . S
C281 C283 1.339 . S
C281 H308 0.931 . S
C282 C283 1.395 . S
C282 C284 1.320 . S
C283 C281 1.339 . S
C283 C282 1.395 . S
C283 H309 0.929 . S
C284 C282 1.320 . S
C284 C285 1.405 . S
C284 H310 0.930 . S
C285 C280 1.479 . S
C285 C284 1.405 . S
C285 H311 0.931 . S
U286 O287 2.454 . S
U286 O288 2.458 . S
U286 C289 2.984 . S
U286 C290 2.847 . S
U286 C303 2.882 . S
U286 O304 2.441 . S
U286 O305 2.420 . S
U286 O306 2.455 . S
U286 O307 2.449 . S
O287 U286 2.454 . S
O287 C289 1.353 . S
O288 U286 2.458 . S
O288 C289 1.286 . S
C289 U286 2.984 . S
C289 O287 1.353 . S
C289 O288 1.286 . S
C289 C291 1.363 . S
C290 C280 1.465 . S
C290 U286 2.847 . S
C290 O304 1.249 . S
C290 O305 1.202 . S
C291 C289 1.363 . S
C291 C293 1.408 . S
C291 C296 1.342 . S
C292 C293 1.310 . S
C292 C295 1.461 . S
C292 H312 0.932 . S
C293 C291 1.408 . S
C293 C292 1.310 . S
C293 H313 0.930 . S
C294 C295 1.474 . S
C294 C296 1.285 . S
C294 H314 0.929 . S
C295 C292 1.461 . S
C295 C294 1.474 . S
C296 C291 1.342 . S
C296 C294 1.285 . S
C296 H315 0.930 . S
C297 C300 1.424 . S
C297 C302 1.245 . S
C297 C303 1.428 . S
C298 C301 1.260 . S
C298 C302 1.477 . S
C298 H316 0.932 . S
C299 C300 1.384 . S
C299 C301 1.479 . S
C299 H317 0.929 . S
C300 C297 1.424 . S
C300 C299 1.384 . S
C300 H318 0.928 . S
C301 C298 1.260 . S
C301 C299 1.479 . S
C302 C297 1.245 . S
C302 C298 1.477 . S
C302 H319 0.932 . S
C303 U286 2.882 . S
C303 C297 1.428 . S
C303 O306 1.301 . S
C303 O307 1.282 . S
O304 U286 2.441 . S
O304 C290 1.249 . S
O305 U286 2.420 . S
O305 C290 1.202 . S
O306 U286 2.455 . S
O306 C303 1.301 . S
O307 U286 2.449 . S
O307 C303 1.282 . S
H308 C281 0.931 . S
H309 C283 0.929 . S
H310 C284 0.930 . S
H311 C285 0.931 . S
H312 C292 0.932 . S
H313 C293 0.930 . S
H314 C294 0.929 . S
H315 C296 0.930 . S
H316 C298 0.932 . S
H317 C299 0.929 . S
H318 C300 0.928 . S
H319 C302 0.932 . S
C320 C321 1.264 . S
C320 C325 1.479 . S
C320 C330 1.465 . S
C321 C320 1.264 . S
C321 C323 1.339 . S
C321 H348 0.931 . S
C322 C323 1.395 . S
C322 C324 1.320 . S
C323 C321 1.339 . S
C323 C322 1.395 . S
C323 H349 0.929 . S
C324 C322 1.320 . S
C324 C325 1.405 . S
C324 H350 0.930 . S
C325 C320 1.479 . S
C325 C324 1.405 . S
C325 H351 0.931 . S
U326 O327 2.454 . S
U326 O328 2.458 . S
U326 C329 2.984 . S
U326 C330 2.847 . S
U326 C343 2.882 . S
U326 O344 2.441 . S
U326 O345 2.420 . S
U326 O346 2.455 . S
U326 O347 2.449 . S
O327 U326 2.454 . S
O327 C329 1.353 . S
O328 U326 2.458 . S
O328 C329 1.286 . S
C329 U326 2.984 . S
C329 O327 1.353 . S
C329 O328 1.286 . S
C329 C331 1.363 . S
C330 C320 1.465 . S
C330 U326 2.847 . S
C330 O344 1.249 . S
C330 O345 1.202 . S
C331 C329 1.363 . S
C331 C333 1.408 . S
C331 C336 1.342 . S
C332 C333 1.310 . S
C332 C335 1.461 . S
C332 H352 0.932 . S
C333 C331 1.408 . S
C333 C332 1.310 . S
C333 H353 0.930 . S
C334 C335 1.474 . S
C334 C336 1.285 . S
C334 H354 0.929 . S
C335 C332 1.461 . S
C335 C334 1.474 . S
C336 C331 1.342 . S
C336 C334 1.285 . S
C336 H355 0.930 . S
C337 C340 1.424 . S
C337 C342 1.245 . S
C337 C343 1.428 . S
C338 C341 1.260 . S
C338 C342 1.477 . S
C338 H356 0.932 . S
C339 C340 1.384 . S
C339 C341 1.479 . S
C339 H357 0.929 . S
C340 C337 1.424 . S
C340 C339 1.384 . S
C340 H358 0.928 . S
C341 C338 1.260 . S
C341 C339 1.479 . S
C342 C337 1.245 . S
C342 C338 1.477 . S
C342 H359 0.932 . S
C343 U326 2.882 . S
C343 C337 1.428 . S
C343 O346 1.301 . S
C343 O347 1.282 . S
O344 U326 2.441 . S
O344 C330 1.249 . S
O345 U326 2.420 . S
O345 C330 1.202 . S
O346 U326 2.455 . S
O346 C343 1.301 . S
O347 U326 2.449 . S
O347 C343 1.282 . S
H348 C321 0.931 . S
H349 C323 0.929 . S
H350 C324 0.930 . S
H351 C325 0.931 . S
H352 C332 0.932 . S
H353 C333 0.930 . S
H354 C334 0.929 . S
H355 C336 0.930 . S
H356 C338 0.932 . S
H357 C339 0.929 . S
H358 C340 0.928 . S
H359 C342 0.932 . S
C360 C361 1.264 . S
C360 C365 1.479 . S
C360 C370 1.465 . S
C361 C360 1.264 . S
C361 C363 1.339 . S
C361 H388 0.931 . S
C362 C363 1.395 . S
C362 C364 1.320 . S
C363 C361 1.339 . S
C363 C362 1.395 . S
C363 H389 0.929 . S
C364 C362 1.320 . S
C364 C365 1.405 . S
C364 H390 0.930 . S
C365 C360 1.479 . S
C365 C364 1.405 . S
C365 H391 0.931 . S
U366 O367 2.454 . S
U366 O368 2.458 . S
U366 C369 2.984 . S
U366 C370 2.847 . S
U366 C383 2.882 . S
U366 O384 2.441 . S
U366 O385 2.420 . S
U366 O386 2.455 . S
U366 O387 2.449 . S
O367 U366 2.454 . S
O367 C369 1.353 . S
O368 U366 2.458 . S
O368 C369 1.286 . S
C369 U366 2.984 . S
C369 O367 1.353 . S
C369 O368 1.286 . S
C369 C371 1.363 . S
C370 C360 1.465 . S
C370 U366 2.847 . S
C370 O384 1.249 . S
C370 O385 1.202 . S
C371 C369 1.363 . S
C371 C373 1.408 . S
C371 C376 1.342 . S
C372 C373 1.310 . S
C372 C375 1.461 1_565 S
C372 H392 0.932 . S
C373 C371 1.408 . S
C373 C372 1.310 . S
C373 H393 0.930 . S
C374 C375 1.474 . S
C374 C376 1.285 1_545 S
C374 H394 0.929 . S
C375 C372 1.461 1_545 S
C375 C374 1.474 . S
C376 C371 1.342 . S
C376 C374 1.285 1_565 S
C376 H395 0.930 . S
C377 C380 1.424 . S
C377 C382 1.245 . S
C377 C383 1.428 . S
C378 C381 1.260 . S
C378 C382 1.477 . S
C378 H396 0.932 . S
C379 C380 1.384 . S
C379 C381 1.479 . S
C379 H397 0.929 . S
C380 C377 1.424 . S
C380 C379 1.384 . S
C380 H398 0.928 . S
C381 C378 1.260 . S
C381 C379 1.479 . S
C382 C377 1.245 . S
C382 C378 1.477 . S
C382 H399 0.932 . S
C383 U366 2.882 . S
C383 C377 1.428 . S
C383 O386 1.301 . S
C383 O387 1.282 . S
O384 U366 2.441 . S
O384 C370 1.249 . S
O385 U366 2.420 . S
O385 C370 1.202 . S
O386 U366 2.455 . S
O386 C383 1.301 . S
O387 U366 2.449 . S
O387 C383 1.282 . S
H388 C361 0.931 . S
H389 C363 0.929 . S
H390 C364 0.930 . S
H391 C365 0.931 . S
H392 C372 0.932 . S
H393 C373 0.930 . S
H394 C374 0.929 . S
H395 C376 0.930 . S
H396 C378 0.932 . S
H397 C379 0.929 . S
H398 C380 0.928 . S
H399 C382 0.932 . S
C400 C401 1.264 . S
C400 C405 1.479 . S
C400 C410 1.465 . S
C401 C400 1.264 . S
C401 C403 1.339 . S
C401 H428 0.931 . S
C402 C403 1.395 . S
C402 C404 1.320 . S
C403 C401 1.339 . S
C403 C402 1.395 . S
C403 H429 0.929 . S
C404 C402 1.320 . S
C404 C405 1.405 . S
C404 H430 0.930 . S
C405 C400 1.479 . S
C405 C404 1.405 . S
C405 H431 0.931 . S
U406 O407 2.454 . S
U406 O408 2.458 . S
U406 C409 2.984 . S
U406 C410 2.847 . S
U406 C423 2.882 . S
U406 O424 2.441 . S
U406 O425 2.420 . S
U406 O426 2.455 . S
U406 O427 2.449 . S
O407 U406 2.454 . S
O407 C409 1.353 . S
O408 U406 2.458 . S
O408 C409 1.286 . S
C409 U406 2.984 . S
C409 O407 1.353 . S
C409 O408 1.286 . S
C409 C411 1.363 . S
C410 C400 1.465 . S
C410 U406 2.847 . S
C410 O424 1.249 . S
C410 O425 1.202 . S
C411 C409 1.363 . S
C411 C413 1.408 . S
C411 C416 1.342 . S
C412 C413 1.310 . S
C412 C415 1.461 . S
C412 H432 0.932 . S
C413 C411 1.408 . S
C413 C412 1.310 . S
C413 H433 0.930 . S
C414 C415 1.474 . S
C414 C416 1.285 . S
C414 H434 0.929 . S
C415 C412 1.461 . S
C415 C414 1.474 . S
C416 C411 1.342 . S
C416 C414 1.285 . S
C416 H435 0.930 . S
C417 C420 1.424 . S
C417 C422 1.245 . S
C417 C423 1.428 . S
C418 C421 1.260 . S
C418 C422 1.477 . S
C418 H436 0.932 . S
C419 C420 1.384 . S
C419 C421 1.479 . S
C419 H437 0.929 . S
C420 C417 1.424 . S
C420 C419 1.384 . S
C420 H438 0.928 . S
C421 C418 1.260 . S
C421 C419 1.479 . S
C422 C417 1.245 . S
C422 C418 1.477 . S
C422 H439 0.932 . S
C423 U406 2.882 . S
C423 C417 1.428 . S
C423 O426 1.301 . S
C423 O427 1.282 . S
O424 U406 2.441 . S
O424 C410 1.249 . S
O425 U406 2.420 . S
O425 C410 1.202 . S
O426 U406 2.455 . S
O426 C423 1.301 . S
O427 U406 2.449 . S
O427 C423 1.282 . S
H428 C401 0.931 . S
H429 C403 0.929 . S
H430 C404 0.930 . S
H431 C405 0.931 . S
H432 C412 0.932 . S
H433 C413 0.930 . S
H434 C414 0.929 . S
H435 C416 0.930 . S
H436 C418 0.932 . S
H437 C419 0.929 . S
H438 C420 0.928 . S
H439 C422 0.932 . S
C440 C441 1.264 . S
C440 C445 1.479 . S
C440 C450 1.465 . S
C441 C440 1.264 . S
C441 C443 1.339 . S
C441 H468 0.931 . S
C442 C443 1.395 . S
C442 C444 1.320 . S
C443 C441 1.339 . S
C443 C442 1.395 . S
C443 H469 0.929 . S
C444 C442 1.320 . S
C444 C445 1.405 . S
C444 H470 0.930 . S
C445 C440 1.479 . S
C445 C444 1.405 . S
C445 H471 0.931 . S
U446 O447 2.454 . S
U446 O448 2.458 . S
U446 C449 2.984 . S
U446 C450 2.847 . S
U446 C463 2.882 . S
U446 O464 2.441 . S
U446 O465 2.420 . S
U446 O466 2.455 . S
U446 O467 2.449 . S
O447 U446 2.454 . S
O447 C449 1.353 . S
O448 U446 2.458 . S
O448 C449 1.286 . S
C449 U446 2.984 . S
C449 O447 1.353 . S
C449 O448 1.286 . S
C449 C451 1.363 . S
C450 C440 1.465 . S
C450 U446 2.847 . S
C450 O464 1.249 . S
C450 O465 1.202 . S
C451 C449 1.363 . S
C451 C453 1.408 . S
C451 C456 1.342 . S
C452 C453 1.310 . S
C452 C455 1.461 . S
C452 H472 0.932 . S
C453 C451 1.408 . S
C453 C452 1.310 . S
C453 H473 0.930 . S
C454 C455 1.474 . S
C454 C456 1.285 . S
C454 H474 0.929 . S
C455 C452 1.461 . S
C455 C454 1.474 . S
C456 C451 1.342 . S
C456 C454 1.285 . S
C456 H475 0.930 . S
C457 C460 1.424 . S
C457 C462 1.245 . S
C457 C463 1.428 . S
C458 C461 1.260 . S
C458 C462 1.477 . S
C458 H476 0.932 . S
C459 C460 1.384 . S
C459 C461 1.479 . S
C459 H477 0.929 . S
C460 C457 1.424 . S
C460 C459 1.384 . S
C460 H478 0.928 . S
C461 C458 1.260 . S
C461 C459 1.479 . S
C462 C457 1.245 . S
C462 C458 1.477 . S
C462 H479 0.932 . S
C463 U446 2.882 . S
C463 C457 1.428 . S
C463 O466 1.301 . S
C463 O467 1.282 . S
O464 U446 2.441 . S
O464 C450 1.249 . S
O465 U446 2.420 . S
O465 C450 1.202 . S
O466 U446 2.455 . S
O466 C463 1.301 . S
O467 U446 2.449 . S
O467 C463 1.282 . S
H468 C441 0.931 . S
H469 C443 0.929 . S
H470 C444 0.930 . S
H471 C445 0.931 . S
H472 C452 0.932 . S
H473 C453 0.930 . S
H474 C454 0.929 . S
H475 C456 0.930 . S
H476 C458 0.932 . S
H477 C459 0.929 . S
H478 C460 0.928 . S
H479 C462 0.932 . S
C480 C481 1.264 . S
C480 C485 1.479 . S
C480 C490 1.465 . S
C481 C480 1.264 . S
C481 C483 1.339 . S
C481 H508 0.931 . S
C482 C483 1.395 . S
C482 C484 1.320 . S
C483 C481 1.339 . S
C483 C482 1.395 . S
C483 H509 0.929 . S
C484 C482 1.320 . S
C484 C485 1.405 . S
C484 H510 0.930 . S
C485 C480 1.479 . S
C485 C484 1.405 . S
C485 H511 0.931 . S
U486 O487 2.454 . S
U486 O488 2.458 . S
U486 C489 2.984 . S
U486 C490 2.847 . S
U486 C503 2.882 . S
U486 O504 2.441 . S
U486 O505 2.420 . S
U486 O506 2.455 . S
U486 O507 2.449 . S
O487 U486 2.454 . S
O487 C489 1.353 . S
O488 U486 2.458 . S
O488 C489 1.286 . S
C489 U486 2.984 . S
C489 O487 1.353 . S
C489 O488 1.286 . S
C489 C491 1.363 . S
C490 C480 1.465 . S
C490 U486 2.847 . S
C490 O504 1.249 . S
C490 O505 1.202 . S
C491 C489 1.363 . S
C491 C493 1.408 . S
C491 C496 1.342 . S
C492 C493 1.310 . S
C492 C495 1.461 . S
C492 H512 0.932 . S
C493 C491 1.408 . S
C493 C492 1.310 . S
C493 H513 0.930 . S
C494 C495 1.474 . S
C494 C496 1.285 . S
C494 H514 0.929 . S
C495 C492 1.461 . S
C495 C494 1.474 . S
C496 C491 1.342 . S
C496 C494 1.285 . S
C496 H515 0.930 . S
C497 C500 1.424 . S
C497 C502 1.245 . S
C497 C503 1.428 . S
C498 C501 1.260 . S
C498 C502 1.477 . S
C498 H516 0.932 . S
C499 C500 1.384 . S
C499 C501 1.479 . S
C499 H517 0.929 . S
C500 C497 1.424 . S
C500 C499 1.384 . S
C500 H518 0.928 . S
C501 C498 1.260 . S
C501 C499 1.479 . S
C502 C497 1.245 . S
C502 C498 1.477 . S
C502 H519 0.932 . S
C503 U486 2.882 . S
C503 C497 1.428 . S
C503 O506 1.301 . S
C503 O507 1.282 . S
O504 U486 2.441 . S
O504 C490 1.249 . S
O505 U486 2.420 . S
O505 C490 1.202 . S
O506 U486 2.455 . S
O506 C503 1.301 . S
O507 U486 2.449 . S
O507 C503 1.282 . S
H508 C481 0.931 . S
H509 C483 0.929 . S
H510 C484 0.930 . S
H511 C485 0.931 . S
H512 C492 0.932 . S
H513 C493 0.930 . S
H514 C494 0.929 . S
H515 C496 0.930 . S
H516 C498 0.932 . S
H517 C499 0.929 . S
H518 C500 0.928 . S
H519 C502 0.932 . S
C520 C521 1.264 . S
C520 C525 1.479 . S
C520 C530 1.465 . S
C521 C520 1.264 . S
C521 C523 1.339 . S
C521 H548 0.931 . S
C522 C523 1.395 . S
C522 C524 1.320 . S
C523 C521 1.339 . S
C523 C522 1.395 . S
C523 H549 0.929 . S
C524 C522 1.320 . S
C524 C525 1.405 . S
C524 H550 0.930 . S
C525 C520 1.479 . S
C525 C524 1.405 . S
C525 H551 0.931 . S
U526 O527 2.454 . S
U526 O528 2.458 . S
U526 C529 2.984 . S
U526 C530 2.847 . S
U526 C543 2.882 . S
U526 O544 2.441 . S
U526 O545 2.420 . S
U526 O546 2.455 . S
U526 O547 2.449 . S
O527 U526 2.454 . S
O527 C529 1.353 . S
O528 U526 2.458 . S
O528 C529 1.286 . S
C529 U526 2.984 . S
C529 O527 1.353 . S
C529 O528 1.286 . S
C529 C531 1.363 . S
C530 C520 1.465 . S
C530 U526 2.847 . S
C530 O544 1.249 . S
C530 O545 1.202 . S
C531 C529 1.363 . S
C531 C533 1.408 . S
C531 C536 1.342 . S
C532 C533 1.310 . S
C532 C535 1.461 . S
C532 H552 0.932 . S
C533 C531 1.408 . S
C533 C532 1.310 . S
C533 H553 0.930 . S
C534 C535 1.474 . S
C534 C536 1.285 . S
C534 H554 0.929 1_556 S
C535 C532 1.461 . S
C535 C534 1.474 . S
C536 C531 1.342 . S
C536 C534 1.285 . S
C536 H555 0.930 . S
C537 C540 1.424 . S
C537 C542 1.245 . S
C537 C543 1.428 . S
C538 C541 1.260 . S
C538 C542 1.477 . S
C538 H556 0.932 . S
C539 C540 1.384 . S
C539 C541 1.479 . S
C539 H557 0.929 . S
C540 C537 1.424 . S
C540 C539 1.384 . S
C540 H558 0.928 . S
C541 C538 1.260 . S
C541 C539 1.479 . S
C542 C537 1.245 . S
C542 C538 1.477 . S
C542 H559 0.932 . S
C543 U526 2.882 . S
C543 C537 1.428 . S
C543 O546 1.301 . S
C543 O547 1.282 . S
O544 U526 2.441 . S
O544 C530 1.249 . S
O545 U526 2.420 . S
O545 C530 1.202 . S
O546 U526 2.455 . S
O546 C543 1.301 . S
O547 U526 2.449 . S
O547 C543 1.282 . S
H548 C521 0.931 . S
H549 C523 0.929 . S
H550 C524 0.930 . S
H551 C525 0.931 . S
H552 C532 0.932 . S
H553 C533 0.930 . S
H554 C534 0.929 1_554 S
H555 C536 0.930 . S
H556 C538 0.932 . S
H557 C539 0.929 . S
H558 C540 0.928 . S
H559 C542 0.932 . S
C560 C561 1.264 . S
C560 C565 1.479 . S
C560 C570 1.465 . S
C561 C560 1.264 . S
C561 C563 1.339 . S
C561 H588 0.931 . S
C562 C563 1.395 . S
C562 C564 1.320 . S
C563 C561 1.339 . S
C563 C562 1.395 . S
C563 H589 0.929 . S
C564 C562 1.320 . S
C564 C565 1.405 . S
C564 H590 0.930 . S
C565 C560 1.479 . S
C565 C564 1.405 . S
C565 H591 0.931 . S
U566 O567 2.454 . S
U566 O568 2.458 . S
U566 C569 2.984 . S
U566 C570 2.847 . S
U566 C583 2.882 . S
U566 O584 2.441 . S
U566 O585 2.420 . S
U566 O586 2.455 . S
U566 O587 2.449 . S
O567 U566 2.454 . S
O567 C569 1.353 . S
O568 U566 2.458 . S
O568 C569 1.286 . S
C569 U566 2.984 . S
C569 O567 1.353 . S
C569 O568 1.286 . S
C569 C571 1.363 . S
C570 C560 1.465 . S
C570 U566 2.847 . S
C570 O584 1.249 . S
C570 O585 1.202 . S
C571 C569 1.363 . S
C571 C573 1.408 . S
C571 C576 1.342 . S
C572 C573 1.310 . S
C572 C575 1.461 . S
C572 H592 0.932 . S
C573 C571 1.408 . S
C573 C572 1.310 . S
C573 H593 0.930 . S
C574 C575 1.474 . S
C574 C576 1.285 . S
C574 H594 0.929 . S
C575 C572 1.461 . S
C575 C574 1.474 . S
C576 C571 1.342 . S
C576 C574 1.285 . S
C576 H595 0.930 . S
C577 C580 1.424 . S
C577 C582 1.245 . S
C577 C583 1.428 . S
C578 C581 1.260 . S
C578 C582 1.477 . S
C578 H596 0.932 . S
C579 C580 1.384 . S
C579 C581 1.479 . S
C579 H597 0.929 . S
C580 C577 1.424 . S
C580 C579 1.384 . S
C580 H598 0.928 . S
C581 C578 1.260 . S
C581 C579 1.479 . S
C582 C577 1.245 . S
C582 C578 1.477 . S
C582 H599 0.932 . S
C583 U566 2.882 . S
C583 C577 1.428 . S
C583 O586 1.301 . S
C583 O587 1.282 . S
O584 U566 2.441 . S
O584 C570 1.249 . S
O585 U566 2.420 . S
O585 C570 1.202 . S
O586 U566 2.455 . S
O586 C583 1.301 . S
O587 U566 2.449 . S
O587 C583 1.282 . S
H588 C561 0.931 . S
H589 C563 0.929 . S
H590 C564 0.930 . S
H591 C565 0.931 . S
H592 C572 0.932 . S
H593 C573 0.930 . S
H594 C574 0.929 . S
H595 C576 0.930 . S
H596 C578 0.932 . S
H597 C579 0.929 . S
H598 C580 0.928 . S
H599 C582 0.932 . S
C600 C601 1.264 . S
C600 C605 1.479 1_556 S
C600 C610 1.465 . S
C601 C600 1.264 . S
C601 C603 1.339 . S
C601 H628 0.931 . S
C602 C603 1.395 1_554 S
C602 C604 1.320 . S
C603 C601 1.339 . S
C603 C602 1.395 1_556 S
C603 H629 0.929 . S
C604 C602 1.320 . S
C604 C605 1.405 . S
C604 H630 0.930 . S
C605 C600 1.479 1_554 S
C605 C604 1.405 . S
C605 H631 0.931 . S
U606 O607 2.454 . S
U606 O608 2.458 . S
U606 C609 2.984 . S
U606 C610 2.847 . S
U606 C623 2.882 . S
U606 O624 2.441 . S
U606 O625 2.420 . S
U606 O626 2.455 . S
U606 O627 2.449 . S
O607 U606 2.454 . S
O607 C609 1.353 . S
O608 U606 2.458 . S
O608 C609 1.286 . S
C609 U606 2.984 . S
C609 O607 1.353 . S
C609 O608 1.286 . S
C609 C611 1.363 . S
C610 C600 1.465 . S
C610 U606 2.847 . S
C610 O624 1.249 . S
C610 O625 1.202 . S
C611 C609 1.363 . S
C611 C613 1.408 . S
C611 C616 1.342 . S
C612 C613 1.310 . S
C612 C615 1.461 . S
C612 H632 0.935 . S
C613 C611 1.408 . S
C613 C612 1.310 . S
C613 H633 0.930 . S
C614 C615 1.474 . S
C614 C616 1.285 . S
C614 H634 0.929 . S
C615 C612 1.461 . S
C615 C614 1.474 . S
C616 C611 1.342 . S
C616 C614 1.285 . S
C616 H635 0.930 . S
C617 C620 1.424 . S
C617 C622 1.245 . S
C617 C623 1.428 . S
C618 C621 1.260 . S
C618 C622 1.477 . S
C618 H636 0.932 . S
C619 C620 1.384 . S
C619 C621 1.479 . S
C619 H637 0.929 . S
C620 C617 1.424 . S
C620 C619 1.384 . S
C620 H638 0.928 . S
C621 C618 1.260 . S
C621 C619 1.479 . S
C622 C617 1.245 . S
C622 C618 1.477 . S
C622 H639 0.932 . S
C623 U606 2.882 . S
C623 C617 1.428 . S
C623 O626 1.301 . S
C623 O627 1.282 . S
O624 U606 2.441 . S
O624 C610 1.249 . S
O625 U606 2.420 . S
O625 C610 1.202 . S
O626 U606 2.455 . S
O626 C623 1.301 . S
O627 U606 2.449 . S
O627 C623 1.282 . S
H628 C601 0.931 . S
H629 C603 0.929 . S
H630 C604 0.930 . S
H631 C605 0.931 . S
H632 C612 0.935 . S
H633 C613 0.930 . S
H634 C614 0.929 . S
H635 C616 0.930 . S
H636 C618 0.932 . S
H637 C619 0.929 . S
H638 C620 0.928 . S
H639 C622 0.932 . S
O640 Cd641 2.223 . S
O640 C648 1.315 . S
Cd641 O640 2.223 . S
Cd641 O644 2.297 . S
Cd641 O645 2.439 . S
Cd641 O651 2.240 . S
Cd642 O643 2.240 . S
Cd642 O650 2.223 . S
Cd642 O652 2.297 . S
Cd642 O653 2.439 . S
O643 Cd642 2.240 . S
O643 C648 1.279 . S
O644 Cd641 2.297 . S
O644 C646 1.247 . S
O645 Cd641 2.439 . S
O645 C646 1.208 . S
C646 O644 1.247 . S
C646 O645 1.208 . S
C647 O652 1.247 . S
C647 O653 1.208 . S
C648 O640 1.315 . S
C648 O643 1.279 . S
C649 O650 1.315 . S
C649 O651 1.279 . S
O650 Cd642 2.223 . S
O650 C649 1.315 . S
O651 Cd641 2.240 . S
O651 C649 1.279 . S
O652 Cd642 2.297 . S
O652 C647 1.247 . S
O653 Cd642 2.439 . S
O653 C647 1.208 . S
O654 Cd655 2.223 . S
O654 C662 1.315 . S
Cd655 O654 2.223 . S
Cd655 O658 2.297 . S
Cd655 O659 2.439 . S
Cd655 O665 2.240 . S
Cd656 O657 2.240 . S
Cd656 O664 2.223 . S
Cd656 O666 2.297 . S
Cd656 O667 2.439 . S
O657 Cd656 2.240 . S
O657 C662 1.279 . S
O658 Cd655 2.297 . S
O658 C660 1.247 . S
O659 Cd655 2.439 . S
O659 C660 1.208 . S
C660 O658 1.247 . S
C660 O659 1.208 . S
C661 O666 1.247 . S
C661 O667 1.208 . S
C662 O654 1.315 . S
C662 O657 1.279 . S
C663 O664 1.315 . S
C663 O665 1.279 . S
O664 Cd656 2.223 . S
O664 C663 1.315 . S
O665 Cd655 2.240 . S
O665 C663 1.279 . S
O666 Cd656 2.297 . S
O666 C661 1.247 . S
O667 Cd656 2.439 . S
O667 C661 1.208 . S
O668 Cd669 2.223 1_556 S
O668 C676 1.315 . S
Cd669 O668 2.223 1_554 S
Cd669 O672 2.297 . S
Cd669 O673 2.439 . S
Cd669 O679 2.240 . S
Cd670 O671 2.240 . S
Cd670 O678 2.223 . S
Cd670 O680 2.297 1_556 S
Cd670 O681 2.439 1_556 S
O671 Cd670 2.240 . S
O671 C676 1.279 . S
O672 Cd669 2.297 . S
O672 C674 1.247 . S
O673 Cd669 2.439 . S
O673 C674 1.208 . S
C674 O672 1.247 . S
C674 O673 1.208 . S
C675 O680 1.248 . S
C675 O681 1.208 . S
C676 O668 1.315 . S
C676 O671 1.279 . S
C677 O678 1.315 . S
C677 O679 1.279 1_556 S
O678 Cd670 2.223 . S
O678 C677 1.315 . S
O679 Cd669 2.240 . S
O679 C677 1.279 1_554 S
O680 Cd670 2.297 1_554 S
O680 C675 1.248 . S
O681 Cd670 2.439 1_554 S
O681 C675 1.208 . S
O682 Cd683 2.223 . S
O682 C690 1.315 . S
Cd683 O682 2.223 . S
Cd683 O686 2.297 . S
Cd683 O687 2.439 . S
Cd683 O693 2.240 . S
Cd684 O685 2.240 . S
Cd684 O692 2.223 . S
Cd684 O694 2.297 . S
Cd684 O695 2.439 . S
O685 Cd684 2.240 . S
O685 C690 1.279 . S
O686 Cd683 2.297 . S
O686 C688 1.247 . S
O687 Cd683 2.439 . S
O687 C688 1.208 . S
C688 O686 1.247 . S
C688 O687 1.208 . S
C689 O694 1.247 . S
C689 O695 1.208 . S
C690 O682 1.315 . S
C690 O685 1.279 . S
C691 O692 1.315 . S
C691 O693 1.279 . S
O692 Cd684 2.223 . S
O692 C691 1.315 . S
O693 Cd683 2.240 . S
O693 C691 1.279 . S
O694 Cd684 2.297 . S
O694 C689 1.247 . S
O695 Cd684 2.439 . S
O695 C689 1.208 . S
O696 Cd697 2.223 . S
O696 C704 1.315 . S
Cd697 O696 2.223 . S
Cd697 O700 2.297 . S
Cd697 O701 2.439 . S
Cd697 O707 2.240 . S
Cd698 O699 2.240 . S
Cd698 O706 2.223 . S
Cd698 O708 2.297 . S
Cd698 O709 2.439 . S
O699 Cd698 2.240 . S
O699 C704 1.279 . S
O700 Cd697 2.297 . S
O700 C702 1.247 . S
O701 Cd697 2.439 . S
O701 C702 1.208 . S
C702 O700 1.247 . S
C702 O701 1.208 . S
C703 O708 1.247 . S
C703 O709 1.208 . S
C704 O696 1.315 . S
C704 O699 1.279 . S
C705 O706 1.315 . S
C705 O707 1.279 . S
O706 Cd698 2.223 . S
O706 C705 1.315 . S
O707 Cd697 2.240 . S
O707 C705 1.279 . S
O708 Cd698 2.297 . S
O708 C703 1.247 . S
O709 Cd698 2.439 . S
O709 C703 1.208 . S
O710 Cd711 2.223 . S
O710 C718 1.315 . S
Cd711 O710 2.223 . S
Cd711 O714 2.297 . S
Cd711 O715 2.439 . S
Cd711 O721 2.240 . S
Cd712 O713 2.240 . S
Cd712 O720 2.223 . S
Cd712 O722 2.297 . S
Cd712 O723 2.439 . S
O713 Cd712 2.240 . S
O713 C718 1.279 . S
O714 Cd711 2.297 . S
O714 C716 1.247 . S
O715 Cd711 2.439 . S
O715 C716 1.208 . S
C716 O714 1.247 . S
C716 O715 1.208 . S
C717 O722 1.247 . S
C717 O723 1.208 . S
C718 O710 1.315 . S
C718 O713 1.279 . S
C719 O720 1.315 . S
C719 O721 1.279 . S
O720 Cd712 2.223 . S
O720 C719 1.315 . S
O721 Cd711 2.240 . S
O721 C719 1.279 . S
O722 Cd712 2.297 . S
O722 C717 1.247 . S
O723 Cd712 2.439 . S
O723 C717 1.208 . S
O724 Cd725 2.223 . S
O724 C732 1.315 . S
Cd725 O724 2.223 . S
Cd725 O728 2.297 . S
Cd725 O729 2.439 . S
Cd725 O735 2.240 . S
Cd726 O727 2.240 . S
Cd726 O734 2.223 . S
Cd726 O736 2.297 . S
Cd726 O737 2.439 . S
O727 Cd726 2.240 . S
O727 C732 1.279 . S
O728 Cd725 2.297 . S
O728 C730 1.247 . S
O729 Cd725 2.439 . S
O729 C730 1.208 . S
C730 O728 1.247 . S
C730 O729 1.208 . S
C731 O736 1.247 . S
C731 O737 1.208 . S
C732 O724 1.315 . S
C732 O727 1.279 . S
C733 O734 1.315 . S
C733 O735 1.279 . S
O734 Cd726 2.223 . S
O734 C733 1.315 . S
O735 Cd725 2.240 . S
O735 C733 1.279 . S
O736 Cd726 2.297 . S
O736 C731 1.247 . S
O737 Cd726 2.439 . S
O737 C731 1.208 . S
O738 Cd739 2.223 1_545 S
O738 C746 1.315 . S
Cd739 O738 2.223 1_565 S
Cd739 O742 2.297 . S
Cd739 O743 2.439 . S
Cd739 O749 2.240 1_565 S
Cd740 O741 2.240 . S
Cd740 O748 2.223 . S
Cd740 O750 2.297 . S
Cd740 O751 2.439 1_545 S
O741 Cd740 2.240 . S
O741 C746 1.279 . S
O742 Cd739 2.297 . S
O742 C744 1.247 . S
O743 Cd739 2.439 . S
O743 C744 1.208 . S
C744 O742 1.247 . S
C744 O743 1.208 . S
C745 O750 1.247 1_565 S
C745 O751 1.208 . S
C746 O738 1.315 . S
C746 O741 1.279 . S
C747 O748 1.315 . S
C747 O749 1.279 . S
O748 Cd740 2.223 . S
O748 C747 1.315 . S
O749 Cd739 2.240 1_545 S
O749 C747 1.279 . S
O750 Cd740 2.297 . S
O750 C745 1.247 1_545 S
O751 Cd740 2.439 1_565 S
O751 C745 1.208 . S
O752 Cd753 2.223 . S
O752 C760 1.315 . S
Cd753 O752 2.223 . S
Cd753 O756 2.297 1_655 S
Cd753 O757 2.439 1_655 S
Cd753 O763 2.240 . S
Cd754 O755 2.240 . S
Cd754 O762 2.223 1_455 S
Cd754 O764 2.297 . S
Cd754 O765 2.439 . S
O755 Cd754 2.240 . S
O755 C760 1.279 1_455 S
O756 Cd753 2.297 1_455 S
O756 C758 1.247 . S
O757 Cd753 2.439 1_455 S
O757 C758 1.208 . S
C758 O756 1.247 . S
C758 O757 1.208 . S
C759 O764 1.247 . S
C759 O765 1.208 . S
C760 O752 1.315 . S
C760 O755 1.279 1_655 S
C761 O762 1.315 . S
C761 O763 1.279 . S
O762 Cd754 2.223 1_655 S
O762 C761 1.315 . S
O763 Cd753 2.240 . S
O763 C761 1.279 . S
O764 Cd754 2.297 . S
O764 C759 1.247 . S
O765 Cd754 2.439 . S
O765 C759 1.208 . S
O766 Cd767 2.223 . S
O766 C774 1.315 . S
Cd767 O766 2.223 . S
Cd767 O770 2.297 . S
Cd767 O771 2.439 . S
Cd767 O777 2.240 . S
Cd768 O769 2.240 . S
Cd768 O776 2.223 . S
Cd768 O778 2.297 . S
Cd768 O779 2.439 . S
O769 Cd768 2.240 . S
O769 C774 1.279 . S
O770 Cd767 2.297 . S
O770 C772 1.247 . S
O771 Cd767 2.439 . S
O771 C772 1.208 . S
C772 O770 1.247 . S
C772 O771 1.208 . S
C773 O778 1.247 . S
C773 O779 1.208 . S
C774 O766 1.315 . S
C774 O769 1.279 . S
C775 O776 1.315 . S
C775 O777 1.279 . S
O776 Cd768 2.223 . S
O776 C775 1.315 . S
O777 Cd767 2.240 . S
O777 C775 1.279 . S
O778 Cd768 2.297 . S
O778 C773 1.247 . S
O779 Cd768 2.439 . S
O779 C773 1.208 . S
O780 Cd781 2.223 1_655 S
O780 C788 1.315 . S
Cd781 O780 2.223 1_455 S
Cd781 O784 2.297 . S
Cd781 O785 2.439 . S
Cd781 O791 2.240 . S
Cd782 O783 2.240 . S
Cd782 O790 2.223 . S
Cd782 O792 2.297 1_655 S
Cd782 O793 2.439 1_655 S
O783 Cd782 2.240 . S
O783 C788 1.279 . S
O784 Cd781 2.297 . S
O784 C786 1.247 . S
O785 Cd781 2.439 . S
O785 C786 1.208 . S
C786 O784 1.247 . S
C786 O785 1.208 . S
C787 O792 1.247 . S
C787 O793 1.208 . S
C788 O780 1.315 . S
C788 O783 1.279 . S
C789 O790 1.315 . S
C789 O791 1.279 1_655 S
O790 Cd782 2.223 . S
O790 C789 1.315 . S
O791 Cd781 2.240 . S
O791 C789 1.279 1_455 S
O792 Cd782 2.297 1_455 S
O792 C787 1.247 . S
O793 Cd782 2.439 1_455 S
O793 C787 1.208 . S
O794 Cd795 2.223 . S
O794 C802 1.315 . S
Cd795 O794 2.223 . S
Cd795 O798 2.297 . S
Cd795 O799 2.439 . S
Cd795 O805 2.240 . S
Cd796 O797 2.240 . S
Cd796 O804 2.223 . S
Cd796 O806 2.297 . S
Cd796 O807 2.439 . S
O797 Cd796 2.240 . S
O797 C802 1.279 . S
O798 Cd795 2.297 . S
O798 C800 1.247 . S
O799 Cd795 2.439 . S
O799 C800 1.208 . S
C800 O798 1.247 . S
C800 O799 1.208 . S
C801 O806 1.247 . S
C801 O807 1.208 . S
C802 O794 1.315 . S
C802 O797 1.279 . S
C803 O804 1.315 . S
C803 O805 1.279 . S
O804 Cd796 2.223 . S
O804 C803 1.315 . S
O805 Cd795 2.240 . S
O805 C803 1.279 . S
O806 Cd796 2.297 . S
O806 C801 1.247 . S
O807 Cd796 2.439 . S
O807 C801 1.208 . S
C808 C809 1.387 . S
C808 H812 0.950 . S
C808 C817 1.390 . S
C809 C808 1.387 . S
C809 C811 1.387 . S
H810 C817 0.950 1_554 S
C811 C809 1.387 . S
C811 C813 1.390 . S
C811 H815 0.950 . S
H812 C808 0.950 . S
C813 C811 1.390 . S
C813 C814 1.387 . S
C813 H816 0.950 . S
C814 C813 1.387 . S
C814 C817 1.387 . S
H815 C811 0.950 . S
H816 C813 0.950 . S
C817 C808 1.390 . S
C817 H810 0.950 1_556 S
C817 C814 1.387 . S
C818 C819 1.387 . S
C818 H822 0.950 . S
C818 C827 1.390 . S
C819 C818 1.387 . S
C819 C821 1.387 . S
H820 C827 0.950 . S
C821 C819 1.387 . S
C821 C823 1.390 . S
C821 H825 0.950 . S
H822 C818 0.950 . S
C823 C821 1.390 . S
C823 C824 1.387 . S
C823 H826 0.950 . S
C824 C823 1.387 . S
C824 C827 1.387 . S
H825 C821 0.950 . S
H826 C823 0.950 . S
C827 C818 1.390 . S
C827 H820 0.950 . S
C827 C824 1.387 . S
C828 C829 1.387 . S
C828 H832 0.950 . S
C828 C837 1.390 . S
C829 C828 1.387 . S
C829 C831 1.387 . S
H830 C837 0.950 . S
C831 C829 1.387 . S
C831 C833 1.390 . S
C831 H835 0.950 . S
H832 C828 0.950 . S
C833 C831 1.390 . S
C833 C834 1.387 . S
C833 H836 0.950 . S
C834 C833 1.387 . S
C834 C837 1.387 . S
H835 C831 0.950 . S
H836 C833 0.950 . S
C837 C828 1.390 . S
C837 H830 0.950 . S
C837 C834 1.387 . S
C838 C839 1.387 . S
C838 H842 0.950 . S
C838 C847 1.392 1_565 S
C839 C838 1.387 . S
C839 C841 1.387 1_565 S
H840 C847 0.950 1_565 S
C841 C839 1.387 1_545 S
C841 C843 1.390 . S
C841 H845 0.950 . S
H842 C838 0.950 . S
C843 C841 1.390 . S
C843 C844 1.387 . S
C843 H846 0.950 . S
C844 C843 1.387 . S
C844 C847 1.385 . S
H845 C841 0.950 . S
H846 C843 0.950 . S
C847 C838 1.392 1_545 S
C847 H840 0.950 1_545 S
C847 C844 1.385 . S
C848 C849 1.387 . S
C848 H852 0.950 . S
C848 C857 1.390 . S
C849 C848 1.387 . S
C849 C851 1.387 . S
H850 C857 0.950 . S
C851 C849 1.387 . S
C851 C853 1.390 . S
C851 H855 0.950 . S
H852 C848 0.950 . S
C853 C851 1.390 . S
C853 C854 1.387 . S
C853 H856 0.950 . S
C854 C853 1.387 . S
C854 C857 1.387 . S
H855 C851 0.950 . S
H856 C853 0.950 . S
C857 C848 1.390 . S
C857 H850 0.950 . S
C857 C854 1.387 . S
C858 C859 1.387 . S
C858 H862 0.950 . S
C858 C867 1.390 . S
C859 C858 1.387 . S
C859 C861 1.387 . S
H860 C867 0.950 . S
C861 C859 1.387 . S
C861 C863 1.390 . S
C861 H865 0.950 . S
H862 C858 0.950 . S
C863 C861 1.390 . S
C863 C864 1.387 . S
C863 H866 0.950 . S
C864 C863 1.387 . S
C864 C867 1.387 . S
H865 C861 0.950 . S
H866 C863 0.950 . S
C867 C858 1.390 . S
C867 H860 0.950 . S
C867 C864 1.387 . S
C868 C869 1.387 . S
C868 H872 0.950 . S
C868 C877 1.390 . S
C869 C868 1.387 . S
C869 C871 1.387 . S
H870 C877 0.950 . S
C871 C869 1.387 . S
C871 C873 1.390 . S
C871 H875 0.950 . S
H872 C868 0.950 . S
C873 C871 1.390 . S
C873 C874 1.387 . S
C873 H876 0.950 . S
C874 C873 1.387 . S
C874 C877 1.387 . S
H875 C871 0.950 . S
H876 C873 0.950 . S
C877 C868 1.390 . S
C877 H870 0.950 . S
C877 C874 1.387 . S
C878 C879 1.387 . S
C878 H882 0.950 . S
C878 C887 1.390 . S
C879 C878 1.387 . S
C879 C881 1.387 . S
H880 C887 0.946 1_545 S
C881 C879 1.387 . S
C881 C883 1.390 . S
C881 H885 0.950 . S
H882 C878 0.950 . S
C883 C881 1.390 . S
C883 C884 1.387 . S
C883 H886 0.950 . S
C884 C883 1.387 . S
C884 C887 1.387 . S
H885 C881 0.950 . S
H886 C883 0.950 . S
C887 C878 1.390 . S
C887 H880 0.946 1_565 S
C887 C884 1.387 . S
C888 C889 1.387 . S
C888 H892 0.950 . S
C888 C897 1.390 . S
C889 C888 1.387 . S
C889 C891 1.387 . S
H890 C897 0.950 . S
C891 C889 1.387 . S
C891 C893 1.390 . S
C891 H895 0.950 . S
H892 C888 0.950 . S
C893 C891 1.390 . S
C893 C894 1.387 . S
C893 H896 0.950 . S
C894 C893 1.387 . S
C894 C897 1.387 . S
H895 C891 0.950 . S
H896 C893 0.950 . S
C897 C888 1.390 . S
C897 H890 0.950 . S
C897 C894 1.387 . S
C898 C899 1.387 . S
C898 H902 0.950 . S
C898 C907 1.390 . S
C899 C898 1.387 . S
C899 C901 1.387 . S
H900 C907 0.950 . S
C901 C899 1.387 . S
C901 C903 1.390 . S
C901 H905 0.950 . S
H902 C898 0.950 . S
C903 C901 1.390 . S
C903 C904 1.387 . S
C903 H906 0.950 . S
C904 C903 1.387 . S
C904 C907 1.387 . S
H905 C901 0.950 . S
H906 C903 0.950 . S
C907 C898 1.390 . S
C907 H900 0.950 . S
C907 C904 1.387 . S
C908 C909 1.387 . S
C908 H912 0.950 . S
C908 C917 1.390 . S
C909 C908 1.387 . S
C909 C911 1.387 . S
H910 C917 0.950 . S
C911 C909 1.387 . S
C911 C913 1.390 . S
C911 H915 0.950 . S
H912 C908 0.950 . S
C913 C911 1.390 . S
C913 C914 1.387 . S
C913 H916 0.950 . S
C914 C913 1.387 . S
C914 C917 1.387 . S
H915 C911 0.950 . S
H916 C913 0.950 . S
C917 C908 1.390 . S
C917 H910 0.950 . S
C917 C914 1.387 . S
C918 C919 1.387 . S
C918 H922 0.950 . S
C918 C927 1.390 . S
C919 C918 1.387 . S
C919 C921 1.387 . S
H920 C927 0.950 . S
C921 C919 1.387 . S
C921 C923 1.390 . S
C921 H925 0.950 . S
H922 C918 0.950 . S
C923 C921 1.390 . S
C923 C924 1.387 . S
C923 H926 0.950 . S
C924 C923 1.387 . S
C924 C927 1.387 . S
H925 C921 0.950 . S
H926 C923 0.950 . S
C927 C918 1.390 . S
C927 H920 0.950 . S
C927 C924 1.387 . S
C928 C929 1.387 . S
C928 H932 0.950 . S
C928 C937 1.390 . S
C929 C928 1.387 . S
C929 C931 1.387 . S
H930 C937 0.950 . S
C931 C929 1.387 . S
C931 C933 1.390 . S
C931 H935 0.950 . S
H932 C928 0.950 . S
C933 C931 1.390 . S
C933 C934 1.387 . S
C933 H936 0.950 . S
C934 C933 1.387 . S
C934 C937 1.387 . S
H935 C931 0.950 . S
H936 C933 0.950 . S
C937 C928 1.390 . S
C937 H930 0.950 . S
C937 C934 1.387 . S
C938 C939 1.387 . S
C938 H942 0.950 . S
C938 C947 1.390 . S
C939 C938 1.387 . S
C939 C941 1.387 . S
H940 C947 0.950 . S
C941 C939 1.387 . S
C941 C943 1.390 . S
C941 H945 0.950 . S
H942 C938 0.950 . S
C943 C941 1.390 . S
C943 C944 1.387 . S
C943 H946 0.950 . S
C944 C943 1.387 . S
C944 C947 1.387 . S
H945 C941 0.950 . S
H946 C943 0.950 . S
C947 C938 1.390 . S
C947 H940 0.950 . S
C947 C944 1.387 . S
C948 C949 1.387 . S
C948 H952 0.950 . S
C948 C957 1.390 . S
C949 C948 1.387 . S
C949 C951 1.387 . S
H950 C957 0.950 . S
C951 C949 1.387 . S
C951 C953 1.390 . S
C951 H955 0.950 . S
H952 C948 0.950 . S
C953 C951 1.390 . S
C953 C954 1.387 . S
C953 H956 0.950 . S
C954 C953 1.387 . S
C954 C957 1.387 . S
H955 C951 0.950 . S
H956 C953 0.950 . S
C957 C948 1.390 . S
C957 H950 0.950 . S
C957 C954 1.387 . S
C958 C959 1.387 . S
C958 H962 0.950 . S
C958 C967 1.390 . S
C959 C958 1.387 . S
C959 C961 1.387 . S
H960 C967 0.950 . S
C961 C959 1.387 . S
C961 C963 1.390 . S
C961 H965 0.950 . S
H962 C958 0.950 . S
C963 C961 1.390 . S
C963 C964 1.387 . S
C963 H966 0.950 1_655 S
C964 C963 1.387 . S
C964 C967 1.387 . S
H965 C961 0.950 . S
H966 C963 0.950 1_455 S
C967 C958 1.390 . S
C967 H960 0.950 . S
C967 C964 1.387 . S
C968 C969 1.387 . S
C968 H972 0.950 . S
C968 C977 1.390 . S
C969 C968 1.387 . S
C969 C971 1.387 . S
H970 C977 0.950 1_545 S
C971 C969 1.387 . S
C971 C973 1.390 . S
C971 H975 0.950 . S
H972 C968 0.950 . S
C973 C971 1.390 . S
C973 C974 1.387 . S
C973 H976 0.950 . S
C974 C973 1.387 . S
C974 C977 1.387 . S
H975 C971 0.950 . S
H976 C973 0.950 . S
C977 C968 1.390 . S
C977 H970 0.950 1_565 S
C977 C974 1.387 . S
C978 C979 1.387 . S
C978 H982 0.950 . S
C978 C987 1.390 . S
C979 C978 1.387 . S
C979 C981 1.387 . S
H980 C987 0.950 . S
C981 C979 1.387 . S
C981 C983 1.390 . S
C981 H985 0.950 . S
H982 C978 0.950 . S
C983 C981 1.390 . S
C983 C984 1.387 . S
C983 H986 0.950 . S
C984 C983 1.387 . S
C984 C987 1.387 . S
H985 C981 0.950 . S
H986 C983 0.950 . S
C987 C978 1.390 . S
C987 H980 0.950 . S
C987 C984 1.387 . S
C988 C989 1.387 . S
C988 H992 0.950 . S
C988 C997 1.390 . S
C989 C988 1.387 . S
C989 C991 1.387 1_566 S
H990 C997 0.950 . S
C991 C989 1.387 1_544 S
C991 C993 1.390 1_545 S
C991 H995 0.950 . S
H992 C988 0.950 . S
C993 C991 1.390 1_565 S
C993 C994 1.387 . S
C993 H996 0.950 . S
C994 C993 1.387 . S
C994 C997 1.387 1_554 S
H995 C991 0.950 . S
H996 C993 0.950 . S
C997 C988 1.390 . S
C997 H990 0.950 . S
C997 C994 1.387 1_556 S
C998 C999 1.387 . S
C998 H1002 0.950 . S
C998 C1007 1.390 . S
C999 C998 1.387 . S
C999 C1001 1.387 . S
H1000 C1007 0.950 . S
C1001 C999 1.387 . S
C1001 C1003 1.390 . S
C1001 H1005 0.950 . S
H1002 C998 0.950 . S
C1003 C1001 1.390 . S
C1003 C1004 1.387 . S
C1003 H1006 0.950 . S
C1004 C1003 1.387 . S
C1004 C1007 1.387 . S
H1005 C1001 0.950 . S
H1006 C1003 0.950 . S
C1007 C998 1.390 . S
C1007 H1000 0.950 . S
C1007 C1004 1.387 . S
C1008 C1009 1.387 . S
C1008 H1012 0.950 . S
C1008 C1017 1.390 . S
C1009 C1008 1.387 . S
C1009 C1011 1.387 . S
H1010 C1017 0.950 . S
C1011 C1009 1.387 . S
C1011 C1013 1.390 . S
C1011 H1015 0.950 . S
H1012 C1008 0.950 . S
C1013 C1011 1.390 . S
C1013 C1014 1.387 . S
C1013 H1016 0.950 . S
C1014 C1013 1.387 . S
C1014 C1017 1.387 . S
H1015 C1011 0.950 . S
H1016 C1013 0.950 . S
C1017 C1008 1.390 . S
C1017 H1010 0.950 . S
C1017 C1014 1.387 . S
C1018 C1019 1.387 . S
C1018 H1022 0.950 . S
C1018 C1027 1.390 . S
C1019 C1018 1.387 . S
C1019 C1021 1.387 . S
H1020 C1027 0.950 . S
C1021 C1019 1.387 . S
C1021 C1023 1.390 . S
C1021 H1025 0.950 . S
H1022 C1018 0.950 . S
C1023 C1021 1.390 . S
C1023 C1024 1.387 . S
C1023 H1026 0.950 . S
C1024 C1023 1.387 . S
C1024 C1027 1.387 . S
H1025 C1021 0.950 . S
H1026 C1023 0.950 . S
C1027 C1018 1.390 . S
C1027 H1020 0.950 . S
C1027 C1024 1.387 . S
C1028 C1029 1.387 . S
C1028 H1032 0.950 . S
C1028 C1037 1.390 . S
C1029 C1028 1.387 . S
C1029 C1031 1.387 . S
H1030 C1037 0.950 . S
C1031 C1029 1.387 . S
C1031 C1033 1.390 . S
C1031 H1035 0.950 . S
H1032 C1028 0.950 . S
C1033 C1031 1.390 . S
C1033 C1034 1.387 . S
C1033 H1036 0.950 . S
C1034 C1033 1.387 . S
C1034 C1037 1.387 . S
H1035 C1031 0.950 . S
H1036 C1033 0.950 . S
C1037 C1028 1.390 . S
C1037 H1030 0.950 . S
C1037 C1034 1.387 . S
C1038 C1039 1.387 . S
C1038 H1042 0.950 . S
C1038 C1047 1.390 . S
C1039 C1038 1.387 . S
C1039 C1041 1.387 . S
H1040 C1047 0.950 . S
C1041 C1039 1.387 . S
C1041 C1043 1.390 . S
C1041 H1045 0.950 . S
H1042 C1038 0.950 . S
C1043 C1041 1.390 . S
C1043 C1044 1.387 . S
C1043 H1046 0.950 . S
C1044 C1043 1.387 . S
C1044 C1047 1.387 . S
H1045 C1041 0.950 . S
H1046 C1043 0.950 . S
C1047 C1038 1.390 . S
C1047 H1040 0.950 . S
C1047 C1044 1.387 . S
C1048 C1049 1.387 . S
C1048 H1052 0.950 . S
C1048 C1057 1.390 . S
C1049 C1048 1.387 . S
C1049 C1051 1.387 . S
H1050 C1057 0.950 . S
C1051 C1049 1.387 . S
C1051 C1053 1.390 . S
C1051 H1055 0.950 . S
H1052 C1048 0.950 . S
C1053 C1051 1.390 . S
C1053 C1054 1.387 . S
C1053 H1056 0.950 . S
C1054 C1053 1.387 . S
C1054 C1057 1.387 . S
H1055 C1051 0.950 . S
H1056 C1053 0.950 . S
C1057 C1048 1.390 . S
C1057 H1050 0.950 . S
C1057 C1054 1.387 . S
C1058 C1059 1.387 . S
C1058 H1062 0.950 . S
C1058 C1067 1.390 . S
C1059 C1058 1.387 . S
C1059 C1061 1.387 . S
H1060 C1067 0.950 . S
C1061 C1059 1.387 . S
C1061 C1063 1.390 . S
C1061 H1065 0.950 . S
H1062 C1058 0.950 . S
C1063 C1061 1.390 . S
C1063 C1064 1.387 . S
C1063 H1066 0.950 . S
C1064 C1063 1.387 . S
C1064 C1067 1.387 . S
H1065 C1061 0.950 . S
H1066 C1063 0.950 . S
C1067 C1058 1.390 . S
C1067 H1060 0.950 . S
C1067 C1064 1.387 . S
C1068 C1069 1.387 . S
C1068 H1072 0.950 . S
C1068 C1077 1.390 . S
C1069 C1068 1.387 . S
C1069 C1071 1.387 . S
H1070 C1077 0.950 . S
C1071 C1069 1.387 . S
C1071 C1073 1.390 . S
C1071 H1075 0.950 . S
H1072 C1068 0.950 . S
C1073 C1071 1.390 . S
C1073 C1074 1.387 . S
C1073 H1076 0.950 . S
C1074 C1073 1.387 . S
C1074 C1077 1.387 . S
H1075 C1071 0.950 . S
H1076 C1073 0.950 . S
C1077 C1068 1.390 . S
C1077 H1070 0.950 . S
C1077 C1074 1.387 . S
C1078 C1079 1.387 . S
C1078 H1082 0.950 . S
C1078 C1087 1.390 . S
C1079 C1078 1.387 . S
C1079 C1081 1.387 . S
H1080 C1087 0.950 . S
C1081 C1079 1.387 . S
C1081 C1083 1.390 . S
C1081 H1085 0.950 . S
H1082 C1078 0.950 . S
C1083 C1081 1.390 . S
C1083 C1084 1.387 . S
C1083 H1086 0.950 . S
C1084 C1083 1.387 . S
C1084 C1087 1.387 . S
H1085 C1081 0.950 . S
H1086 C1083 0.950 . S
C1087 C1078 1.390 . S
C1087 H1080 0.950 . S
C1087 C1084 1.387 . S
C1088 C1089 1.387 . S
C1088 H1092 0.950 . S
C1088 C1097 1.390 . S
C1089 C1088 1.387 . S
C1089 C1091 1.387 . S
H1090 C1097 0.950 . S
C1091 C1089 1.387 . S
C1091 C1093 1.390 . S
C1091 H1095 0.950 . S
H1092 C1088 0.950 . S
C1093 C1091 1.390 . S
C1093 C1094 1.387 . S
C1093 H1096 0.950 . S
C1094 C1093 1.387 . S
C1094 C1097 1.387 . S
H1095 C1091 0.950 . S
H1096 C1093 0.950 . S
C1097 C1088 1.390 . S
C1097 H1090 0.950 . S
C1097 C1094 1.387 . S
C1098 C1099 1.387 1_655 S
C1098 H1102 0.950 . S
C1098 C1107 1.390 . S
C1099 C1098 1.387 1_455 S
C1099 C1101 1.387 1_455 S
H1100 C1107 0.950 . S
C1101 C1099 1.387 1_655 S
C1101 C1103 1.390 . S
C1101 H1105 0.950 1_655 S
H1102 C1098 0.950 . S
C1103 C1101 1.390 . S
C1103 C1104 1.387 . S
C1103 H1106 0.950 . S
C1104 C1103 1.387 . S
C1104 C1107 1.387 . S
H1105 C1101 0.950 1_455 S
H1106 C1103 0.950 . S
C1107 C1098 1.390 . S
C1107 H1100 0.950 . S
C1107 C1104 1.387 . S
C1108 C1109 1.387 . S
C1108 H1112 0.950 . S
C1108 C1117 1.390 . S
C1109 C1108 1.387 . S
C1109 C1111 1.387 . S
H1110 C1117 0.950 . S
C1111 C1109 1.387 . S
C1111 C1113 1.390 . S
C1111 H1115 0.950 . S
H1112 C1108 0.950 . S
C1113 C1111 1.390 . S
C1113 C1114 1.387 . S
C1113 H1116 0.950 . S
C1114 C1113 1.387 . S
C1114 C1117 1.387 . S
H1115 C1111 0.950 . S
H1116 C1113 0.950 . S
C1117 C1108 1.390 . S
C1117 H1110 0.950 . S
C1117 C1114 1.387 . S
C1118 C1119 1.387 1_455 S
C1118 H1122 0.950 1_455 S
C1118 C1127 1.390 . S
C1119 C1118 1.387 1_655 S
C1119 C1121 1.387 1_655 S
H1120 C1127 0.950 . S
C1121 C1119 1.387 1_455 S
C1121 C1123 1.390 . S
C1121 H1125 0.950 1_455 S
H1122 C1118 0.950 1_655 S
C1123 C1121 1.390 . S
C1123 C1124 1.387 . S
C1123 H1126 0.950 . S
C1124 C1123 1.387 . S
C1124 C1127 1.387 . S
H1125 C1121 0.950 1_655 S
H1126 C1123 0.950 . S
C1127 C1118 1.390 . S
C1127 H1120 0.950 . S
C1127 C1124 1.387 . S
C1128 C1129 1.387 . S
C1128 H1132 0.950 . S
C1128 C1137 1.390 . S
C1129 C1128 1.387 . S
C1129 C1131 1.387 . S
H1130 C1137 0.950 . S
C1131 C1129 1.387 . S
C1131 C1133 1.390 . S
C1131 H1135 0.950 . S
H1132 C1128 0.950 . S
C1133 C1131 1.390 . S
C1133 C1134 1.387 . S
C1133 H1136 0.950 . S
C1134 C1133 1.387 . S
C1134 C1137 1.387 . S
H1135 C1131 0.950 . S
H1136 C1133 0.950 . S
C1137 C1128 1.390 . S
C1137 H1130 0.950 . S
C1137 C1134 1.387 . S
C1138 C1139 1.387 . S
C1138 H1142 0.950 . S
C1138 C1147 1.390 . S
C1139 C1138 1.387 . S
C1139 C1141 1.387 . S
H1140 C1147 0.950 . S
C1141 C1139 1.387 . S
C1141 C1143 1.390 . S
C1141 H1145 0.950 . S
H1142 C1138 0.950 . S
C1143 C1141 1.390 . S
C1143 C1144 1.387 . S
C1143 H1146 0.950 . S
C1144 C1143 1.387 . S
C1144 C1147 1.387 . S
H1145 C1141 0.950 . S
H1146 C1143 0.950 . S
C1147 C1138 1.390 . S
C1147 H1140 0.950 . S
C1147 C1144 1.387 . S
C1148 C1149 1.387 . S
C1148 H1152 0.950 . S
C1148 C1157 1.390 . S
C1149 C1148 1.387 . S
C1149 C1151 1.387 . S
H1150 C1157 0.950 . S
C1151 C1149 1.387 . S
C1151 C1153 1.390 . S
C1151 H1155 0.950 . S
H1152 C1148 0.950 . S
C1153 C1151 1.390 . S
C1153 C1154 1.387 . S
C1153 H1156 0.950 . S
C1154 C1153 1.387 . S
C1154 C1157 1.387 . S
H1155 C1151 0.950 . S
H1156 C1153 0.950 . S
C1157 C1148 1.390 . S
C1157 H1150 0.950 . S
C1157 C1154 1.387 . S
C1158 C1159 1.387 . S
C1158 H1162 0.950 . S
C1158 C1167 1.390 1_554 S
C1159 C1158 1.387 . S
C1159 C1161 1.387 1_554 S
H1160 C1167 0.950 . S
C1161 C1159 1.387 1_556 S
C1161 C1163 1.390 . S
C1161 H1165 0.943 1_556 S
H1162 C1158 0.950 . S
C1163 C1161 1.390 . S
C1163 C1164 1.387 . S
C1163 H1166 0.950 . S
C1164 C1163 1.387 . S
C1164 C1167 1.387 . S
H1165 C1161 0.943 1_554 S
H1166 C1163 0.950 . S
C1167 C1158 1.390 1_556 S
C1167 H1160 0.950 . S
C1167 C1164 1.387 . S
C1168 C1169 1.387 . S
C1168 H1172 0.950 . S
C1168 C1177 1.390 . S
C1169 C1168 1.387 . S
C1169 C1171 1.387 . S
H1170 C1177 0.950 . S
C1171 C1169 1.387 . S
C1171 C1173 1.390 . S
C1171 H1175 0.950 . S
H1172 C1168 0.950 . S
C1173 C1171 1.390 . S
C1173 C1174 1.387 . S
C1173 H1176 0.950 . S
C1174 C1173 1.387 . S
C1174 C1177 1.387 . S
H1175 C1171 0.950 . S
H1176 C1173 0.950 . S
C1177 C1168 1.390 . S
C1177 H1170 0.950 . S
C1177 C1174 1.387 . S
C1178 C1179 1.387 . S
C1178 H1182 0.950 . S
C1178 C1187 1.390 . S
C1179 C1178 1.387 . S
C1179 C1181 1.387 . S
H1180 C1187 0.950 . S
C1181 C1179 1.387 . S
C1181 C1183 1.390 . S
C1181 H1185 0.950 . S
H1182 C1178 0.950 . S
C1183 C1181 1.390 . S
C1183 C1184 1.387 . S
C1183 H1186 0.950 . S
C1184 C1183 1.387 . S
C1184 C1187 1.387 . S
H1185 C1181 0.950 . S
H1186 C1183 0.950 . S
C1187 C1178 1.390 . S
C1187 H1180 0.950 . S
C1187 C1184 1.387 . S
C1188 C1189 1.387 . S
C1188 H1192 0.950 . S
C1188 C1197 1.390 . S
C1189 C1188 1.387 . S
C1189 C1191 1.387 . S
H1190 C1197 0.950 . S
C1191 C1189 1.387 . S
C1191 C1193 1.390 . S
C1191 H1195 0.950 . S
H1192 C1188 0.950 . S
C1193 C1191 1.390 . S
C1193 C1194 1.387 . S
C1193 H1196 0.950 . S
C1194 C1193 1.387 . S
C1194 C1197 1.387 . S
H1195 C1191 0.950 . S
H1196 C1193 0.950 . S
C1197 C1188 1.390 . S
C1197 H1190 0.950 . S
C1197 C1194 1.387 . S
C1198 C1199 1.387 . S
C1198 H1202 0.950 . S
C1198 C1207 1.390 . S
C1199 C1198 1.387 . S
C1199 C1201 1.387 . S
H1200 C1207 0.950 . S
C1201 C1199 1.387 . S
C1201 C1203 1.390 . S
C1201 H1205 0.950 . S
H1202 C1198 0.950 . S
C1203 C1201 1.390 . S
C1203 C1204 1.387 . S
C1203 H1206 0.950 . S
C1204 C1203 1.387 . S
C1204 C1207 1.387 . S
H1205 C1201 0.950 . S
H1206 C1203 0.950 . S
C1207 C1198 1.390 . S
C1207 H1200 0.950 . S
C1207 C1204 1.387 . S
C1208 C1209 1.387 . S
C1208 H1212 0.950 . S
C1208 C1217 1.390 . S
C1209 C1208 1.387 . S
C1209 C1211 1.387 . S
H1210 C1217 0.950 . S
C1211 C1209 1.387 . S
C1211 C1213 1.390 . S
C1211 H1215 0.950 . S
H1212 C1208 0.950 . S
C1213 C1211 1.390 . S
C1213 C1214 1.387 . S
C1213 H1216 0.950 . S
C1214 C1213 1.387 . S
C1214 C1217 1.387 . S
H1215 C1211 0.950 . S
H1216 C1213 0.950 . S
C1217 C1208 1.390 . S
C1217 H1210 0.950 . S
C1217 C1214 1.387 . S
C1218 C1219 1.387 . S
C1218 H1222 0.950 . S
C1218 C1227 1.390 . S
C1219 C1218 1.387 . S
C1219 C1221 1.387 . S
H1220 C1227 0.950 . S
C1221 C1219 1.387 . S
C1221 C1223 1.390 . S
C1221 H1225 0.950 . S
H1222 C1218 0.950 . S
C1223 C1221 1.390 . S
C1223 C1224 1.387 . S
C1223 H1226 0.950 . S
C1224 C1223 1.387 . S
C1224 C1227 1.387 . S
H1225 C1221 0.950 . S
H1226 C1223 0.950 . S
C1227 C1218 1.390 . S
C1227 H1220 0.950 . S
C1227 C1224 1.387 . S
C1228 C1229 1.387 . S
C1228 H1232 0.950 . S
C1228 C1237 1.390 . S
C1229 C1228 1.387 . S
C1229 C1231 1.387 . S
H1230 C1237 0.950 . S
C1231 C1229 1.387 . S
C1231 C1233 1.390 . S
C1231 H1235 0.950 . S
H1232 C1228 0.950 . S
C1233 C1231 1.390 . S
C1233 C1234 1.387 . S
C1233 H1236 0.950 . S
C1234 C1233 1.387 . S
C1234 C1237 1.387 . S
H1235 C1231 0.950 . S
H1236 C1233 0.950 . S
C1237 C1228 1.390 . S
C1237 H1230 0.950 . S
C1237 C1234 1.387 . S
C1238 C1239 1.387 . S
C1238 H1242 0.950 . S
C1238 C1247 1.390 . S
C1239 C1238 1.387 . S
C1239 C1241 1.387 . S
H1240 C1247 0.950 . S
C1241 C1239 1.387 . S
C1241 C1243 1.390 . S
C1241 H1245 0.950 . S
H1242 C1238 0.950 . S
C1243 C1241 1.390 . S
C1243 C1244 1.387 . S
C1243 H1246 0.950 . S
C1244 C1243 1.387 . S
C1244 C1247 1.387 . S
H1245 C1241 0.950 . S
H1246 C1243 0.950 . S
C1247 C1238 1.390 . S
C1247 H1240 0.950 . S
C1247 C1244 1.387 . S
C1248 C1249 1.387 . S
C1248 H1252 0.950 . S
C1248 C1257 1.390 . S
C1249 C1248 1.387 . S
C1249 C1251 1.387 . S
H1250 C1257 0.950 . S
C1251 C1249 1.387 . S
C1251 C1253 1.390 . S
C1251 H1255 0.950 . S
H1252 C1248 0.950 . S
C1253 C1251 1.390 . S
C1253 C1254 1.387 . S
C1253 H1256 0.950 . S
C1254 C1253 1.387 . S
C1254 C1257 1.387 . S
H1255 C1251 0.950 . S
H1256 C1253 0.950 . S
C1257 C1248 1.390 . S
C1257 H1250 0.950 . S
C1257 C1254 1.387 . S
C1258 C1259 1.387 . S
C1258 H1262 0.950 . S
C1258 C1267 1.390 . S
C1259 C1258 1.387 . S
C1259 C1261 1.387 . S
H1260 C1267 0.950 . S
C1261 C1259 1.387 . S
C1261 C1263 1.390 . S
C1261 H1265 0.950 . S
H1262 C1258 0.950 . S
C1263 C1261 1.390 . S
C1263 C1264 1.387 . S
C1263 H1266 0.950 . S
C1264 C1263 1.387 . S
C1264 C1267 1.387 . S
H1265 C1261 0.950 . S
H1266 C1263 0.950 . S
C1267 C1258 1.390 . S
C1267 H1260 0.950 . S
C1267 C1264 1.387 . S
C1268 C1269 1.387 . S
C1268 H1272 0.950 . S
C1268 C1277 1.390 . S
C1269 C1268 1.387 . S
C1269 C1271 1.387 . S
H1270 C1277 0.950 . S
C1271 C1269 1.387 . S
C1271 C1273 1.390 . S
C1271 H1275 0.950 . S
H1272 C1268 0.950 . S
C1273 C1271 1.390 . S
C1273 C1274 1.387 . S
C1273 H1276 0.950 . S
C1274 C1273 1.387 . S
C1274 C1277 1.387 . S
H1275 C1271 0.950 . S
H1276 C1273 0.950 . S
C1277 C1268 1.390 . S
C1277 H1270 0.950 . S
C1277 C1274 1.387 . S
C1278 C1279 1.387 . S
C1278 H1282 0.950 . S
C1278 C1287 1.390 1_545 S
C1279 C1278 1.387 . S
C1279 C1281 1.387 . S
H1280 C1287 0.950 . S
C1281 C1279 1.387 . S
C1281 C1283 1.390 . S
C1281 H1285 0.950 . S
H1282 C1278 0.950 . S
C1283 C1281 1.390 . S
C1283 C1284 1.387 1_545 S
C1283 H1286 0.950 1_545 S
C1284 C1283 1.387 1_565 S
C1284 C1287 1.387 . S
H1285 C1281 0.950 . S
H1286 C1283 0.950 1_565 S
C1287 C1278 1.390 1_565 S
C1287 H1280 0.950 . S
C1287 C1284 1.387 . S
C814 C648 1.598 1_556 S
C809 C202 1.599 . S
C824 C663 1.797 . S
C819 C261 1.768 1_455 S
C829 C282 1.706 . S
C834 C676 1.712 . S
C844 C690 1.665 . S
C839 C162 1.620 1_655 S
C854 C702 1.607 . S
C849 C402 1.682 . S
C864 C716 1.608 . S
C859 C482 1.435 . S
C869 C442 1.748 . S
C874 C730 1.717 . S
C884 C745 1.703 . S
C879 C381 1.560 . S
C889 C461 1.703 . S
C894 C761 1.695 . S
C904 C774 1.670 . S
C899 C362 1.597 . S
C909 C415 1.573 . S
C914 C759 1.510 . S
C924 C772 1.820 . S
C919 C495 1.707 . S
C929 C301 1.863 . S
C934 C788 1.854 . S
C939 C175 1.724 . S
C944 C787 1.756 . S
C949 C215 1.686 . S
C954 C786 1.613 . S
C959 C242 1.645 . S
C964 C789 1.697 . S
C969 C141 1.743 . S
C974 C691 1.728 1_565 S
C979 C581 1.521 . S
C984 C689 1.502 . S
C994 C649 1.609 . S
C989 C615 1.639 1_565 S
C1004 C660 1.746 . S
C999 C335 1.757 . S
C1009 C181 1.684 . S
C1014 C705 1.748 . S
C1024 C746 1.836 . S
C1019 C455 1.838 . S
C1034 C703 1.750 . S
C1029 C375 1.675 . S
C1044 C731 1.778 . S
C1039 C501 1.623 . S
C1054 C732 1.598 . S
C1049 C562 1.600 . S
C1059 C621 1.770 . S
C1064 C747 1.799 . S
C1069 C322 1.706 . S
C1074 C704 1.711 . S
C1084 C718 1.663 . S
C1079 C522 1.632 . S
C1089 C122 1.681 . S
C1094 C674 1.609 . S
C1104 C688 1.606 . S
C1099 C2 1.433 . S
C1114 C646 1.717 . S
C1109 C42 1.748 . S
C1124 C661 1.703 . S
C1119 C101 1.561 . S
C1129 C61 1.703 . S
C1134 C775 1.695 . S
C1139 C82 1.597 1_556 S
C1144 C760 1.670 . S
C1149 C135 1.572 . S
C1154 C773 1.508 . S
C1159 C15 1.707 . S
C1164 C758 1.820 . S
C1174 C802 1.854 . S
C1169 C341 1.863 . S
C1184 C801 1.755 . S
C1179 C535 1.722 1_554 S
C1194 C800 1.614 . S
C1189 C575 1.686 . S
C1199 C602 1.644 . S
C1204 C803 1.697 . S
C1209 C421 1.742 . S
C1214 C719 1.729 . S
C1224 C717 1.503 . S
C1219 C221 1.521 . S
C1234 C733 1.607 . S
C1229 C255 1.637 . S
C1244 C744 1.747 . S
C1239 C295 1.758 . S
C1249 C541 1.688 . S
C1254 C677 1.750 . S
C1264 C662 1.835 . S
C1259 C55 1.838 . S
C1269 C95 1.675 . S
C1274 C675 1.750 . S
C1284 C647 1.776 . S
C1279 C21 1.622 . S
