# Generated by pormake.
# Topology pth, (4,4)-cn, num edge types: 1
# Building blocks:
#     Node 0, Type 0, BuildingBlock: QUQFOY_clean_sbu_3, # of connection points: 4
#     Node 1, Type 0, BuildingBlock: QUQFOY_clean_sbu_3, # of connection points: 4
#     Node 2, Type 0, BuildingBlock: QUQFOY_clean_sbu_3, # of connection points: 4
#     Node 3, Type 1, BuildingBlock: KOZSID_clean_sbu_0, # of connection points: 4
#     Node 4, Type 1, BuildingBlock: KOZSID_clean_sbu_0, # of connection points: 4
#     Node 5, Type 1, BuildingBlock: KOZSID_clean_sbu_0, # of connection points: 4
#     Edge 6, Type (0, 1), BuildingBlock: FUNLAD_clean_linker_0, # of connection points: 2
#     Edge 7, Type (0, 1), BuildingBlock: FUNLAD_clean_linker_0, # of connection points: 2
#     Edge 8, Type (0, 1), BuildingBlock: FUNLAD_clean_linker_0, # of connection points: 2
#     Edge 9, Type (0, 1), BuildingBlock: FUNLAD_clean_linker_0, # of connection points: 2
#     Edge 10, Type (0, 1), BuildingBlock: FUNLAD_clean_linker_0, # of connection points: 2
#     Edge 11, Type (0, 1), BuildingBlock: FUNLAD_clean_linker_0, # of connection points: 2
#     Edge 12, Type (0, 1), BuildingBlock: FUNLAD_clean_linker_0, # of connection points: 2
#     Edge 13, Type (0, 1), BuildingBlock: FUNLAD_clean_linker_0, # of connection points: 2
#     Edge 14, Type (0, 1), BuildingBlock: FUNLAD_clean_linker_0, # of connection points: 2
#     Edge 15, Type (0, 1), BuildingBlock: FUNLAD_clean_linker_0, # of connection points: 2
#     Edge 16, Type (0, 1), BuildingBlock: FUNLAD_clean_linker_0, # of connection points: 2
#     Edge 17, Type (0, 1), BuildingBlock: FUNLAD_clean_linker_0, # of connection points: 2
# Relax obj value: 0.008
# Max RMSD: 0.065
# Mean RMSD: 0.043
data_MOF--net-pth--node1-QUQFOY_clean_sbu_3--node2-KOZSID_clean_sbu_0--edge1-FUNLAD_clean_linker_0
_symmetry_space_group_name_H-M    P1
_symmetry_Int_Tables_number       1
_symmetry_cell_setting            triclinic
loop_
_symmetry_equiv_pos_as_xyz
'x, y, z'
_cell_length_a     30.785627
_cell_length_b     30.542384
_cell_length_c     72.127594
_cell_angle_alpha  87.836557
_cell_angle_beta   88.62674
_cell_angle_gamma 120.80638
loop_
_atom_site_label
_atom_site_type_symbol
_atom_site_fract_x
_atom_site_fract_y
_atom_site_fract_z
_atom_type_partial_charge
C0 C 0.02519 0.13944 0.05121 0.0
O1 O -0.00107 0.13226 0.0371 0.0
Cd2 Cd 0.99336 0.07719 0.0132 0.0
O3 O 0.04836 0.11527 0.05371 0.0
Cd4 Cd 0.05931 0.04981 0.03867 0.0
C5 C 0.12049 0.13133 0.00161 0.0
O6 O 0.97427 0.99677 0.02727 0.0
O7 O 0.03267 0.98426 0.01633 0.0
O8 O 0.04615 0.01003 0.06965 0.0
C9 C 0.98624 0.97064 0.01741 0.0
O10 O 0.07659 0.12086 -0.00294 0.0
C11 C 0.08346 0.00324 0.06851 0.0
O12 O 0.12654 0.11359 0.01698 0.0
O13 O 0.1111 0.01978 0.05357 0.0
C14 C 0.1515 0.12164 0.38397 0.0
O15 O 0.172 0.15384 0.3702 0.0
Cd16 Cd 0.12439 0.15969 0.34549 0.0
O17 O 0.10345 0.0937 0.38593 0.0
Cd18 Cd 0.02707 0.08164 0.37048 0.0
C19 C 0.05993 0.03233 0.33563 0.0
O20 O 0.05811 0.16934 0.3587 0.0
O21 O 0.98993 0.11071 0.3471 0.0
O22 O 0.99555 0.08506 0.40122 0.0
C23 C 0.02127 0.15788 0.34844 0.0
O24 O 0.0932 0.0786 0.331 0.0
C25 C 0.95143 0.04662 0.40004 0.0
O26 O 0.03098 0.02114 0.35016 0.0
O27 O 0.94269 0.02273 0.38523 0.0
C28 C 0.97917 0.08809 0.68129 0.0
O29 O 0.98175 0.11225 0.69556 0.0
Cd30 Cd 0.0282 0.11487 0.72196 0.0
O31 O 0.00511 0.06648 0.67975 0.0
Cd32 Cd 0.06886 0.05692 0.69724 0.0
C33 C 0.97749 0.98516 0.73049 0.0
O34 O 0.11184 0.1396 0.71098 0.0
O35 O 0.12803 0.08315 0.72216 0.0
O36 O 0.12391 0.08199 0.66937 0.0
C37 C 0.13724 0.12868 0.72181 0.0
O38 O 0.98135 0.02698 0.73488 0.0
C39 C 0.12638 0.04179 0.66923 0.0
O40 O 0.00408 0.98401 0.71691 0.0
O41 O 0.10069 0.00729 0.68196 0.0
C42 C 0.09912 0.65639 0.17756 0.0
C43 C 0.1495 0.69057 0.17216 0.0
C44 C 0.17772 0.67754 0.18273 0.0
C45 C 0.14314 0.63619 0.19384 0.0
N46 N 0.09442 0.62177 0.19098 0.0
Co47 Co 0.03211 0.56286 0.20385 0.0
N48 N 0.07391 0.54588 0.2202 0.0
C49 C 0.12504 0.57117 0.22048 0.0
C50 C 0.14294 0.55061 0.2332 0.0
C51 C 0.10079 0.50963 0.24157 0.0
C52 C 0.05939 0.50762 0.23343 0.0
N53 N 0.96981 0.50306 0.21637 0.0
C54 C 0.96524 0.46797 0.22957 0.0
C55 C 0.91488 0.43173 0.23413 0.0
C56 C 0.88654 0.44404 0.2233 0.0
C57 C 0.92104 0.48691 0.21281 0.0
N58 N 0.99036 0.58079 0.18781 0.0
C59 C 0.93921 0.55695 0.18812 0.0
C60 C 0.92143 0.57917 0.17606 0.0
C61 C 0.96369 0.61996 0.16762 0.0
C62 C 0.005 0.62009 0.17501 0.0
N63 N 0.03227 0.51727 0.18497 0.0
C64 C 0.03121 0.45136 0.15842 0.0
C65 C 0.988 0.45368 0.16268 0.0
C66 C 0.98936 0.48653 0.17585 0.0
C67 C 0.07507 0.48263 0.16768 0.0
C68 C 0.0748 0.51513 0.18077 0.0
N69 N 0.03177 0.60845 0.22268 0.0
C70 C 0.98628 0.63776 0.24127 0.0
C71 C 0.03145 0.67726 0.24752 0.0
C72 C 0.07675 0.68089 0.24156 0.0
C73 C 0.07603 0.64615 0.22933 0.0
C74 C 0.9873 0.60413 0.22896 0.0
H75 H 0.11177 0.65092 0.22529 0.0
H76 H 0.9516 0.57553 0.22451 0.0
H77 H 0.95503 0.48606 0.17847 0.0
H78 H 0.10941 0.53808 0.18731 0.0
C79 C 0.1553 0.61212 0.20784 0.0
C80 C 0.0573 0.6591 0.16977 0.0
C81 C 0.00726 0.46748 0.23824 0.0
C82 C 0.90886 0.51346 0.19978 0.0
H83 H 0.16434 0.72207 0.16181 0.0
H84 H 0.21861 0.69651 0.18257 0.0
H85 H 0.18202 0.56324 0.23579 0.0
H86 H 0.10066 0.48364 0.25222 0.0
H87 H 0.90018 0.39971 0.24426 0.0
H88 H 0.84566 0.42418 0.22311 0.0
H89 H 0.88239 0.56732 0.17376 0.0
H90 H 0.96403 0.64684 0.15732 0.0
H91 H 0.95282 0.4296 0.15611 0.0
H92 H 0.10966 0.4825 0.16472 0.0
H93 H 0.95023 0.63363 0.2454 0.0
H94 H 0.11269 0.71048 0.24628 0.0
C95 C 0.45009 0.00244 0.56203 0.0
C96 C 0.4153 0.95827 0.57239 0.0
C97 C 0.41856 0.9192 0.56535 0.0
C98 C 0.45536 0.94167 0.55132 0.0
N99 N 0.47614 0.99283 0.54902 0.0
Co100 Co 0.5329 0.04066 0.53093 0.0
N101 N 0.53493 0.98258 0.51972 0.0
C102 C 0.50332 0.93217 0.52404 0.0
C103 C 0.51313 0.90121 0.5137 0.0
C104 C 0.55363 0.93376 0.50211 0.0
C105 C 0.56643 0.98291 0.5062 0.0
N106 N 0.59126 0.08869 0.51337 0.0
C107 C 0.61885 0.07907 0.50102 0.0
C108 C 0.65846 0.12383 0.49247 0.0
C109 C 0.65585 0.16313 0.49966 0.0
C110 C 0.61524 0.1403 0.51223 0.0
N111 N 0.52929 0.09859 0.54162 0.0
C112 C 0.55786 0.14869 0.53609 0.0
C113 C 0.5443 0.17911 0.54495 0.0
C114 C 0.5043 0.14653 0.55672 0.0
C115 C 0.49605 0.09789 0.55451 0.0
N116 N 0.58225 0.04663 0.54935 0.0
C117 C 0.65503 0.05648 0.57446 0.0
C118 C 0.65494 0.09931 0.56708 0.0
C119 C 0.61861 0.09359 0.55469 0.0
C120 C 0.61782 0.00846 0.56915 0.0
C121 C 0.58189 0.0044 0.55673 0.0
N122 N 0.48364 0.03498 0.51252 0.0
C123 C 0.45814 0.07511 0.48923 0.0
C124 C 0.41168 0.0301 0.48796 0.0
C125 C 0.40213 0.98711 0.49894 0.0
C126 C 0.43854 0.99027 0.51097 0.0
C127 C 0.49317 0.07667 0.50143 0.0
H128 H 0.42919 0.95625 0.51898 0.0
H129 H 0.52737 0.11242 0.50181 0.0
H130 H 0.62113 0.12789 0.54953 0.0
H131 H 0.55435 0.96676 0.55327 0.0
C132 C 0.46817 0.91534 0.53907 0.0
C133 C 0.45551 0.05213 0.56463 0.0
C134 C 0.6098 0.02852 0.49729 0.0
C135 C 0.59771 0.1661 0.52275 0.0
H136 H 0.38952 0.95447 0.58365 0.0
H137 H 0.39592 0.87904 0.56964 0.0
H138 H 0.49406 0.85995 0.51482 0.0
H139 H 0.57228 0.92262 0.49204 0.0
H140 H 0.68662 0.12777 0.4822 0.0
H141 H 0.68071 0.20354 0.49619 0.0
H142 H 0.5612 0.22006 0.54296 0.0
H143 H 0.48332 0.15749 0.56573 0.0
H144 H 0.68341 0.13741 0.57058 0.0
H145 H 0.61608 0.97409 0.57468 0.0
H146 H 0.46712 0.10967 0.4812 0.0
H147 H 0.36683 0.95116 0.49825 0.0
C148 C 0.65511 0.59099 0.83957 0.0
C149 C 0.69268 0.5828 0.8326 0.0
C150 C 0.68958 0.54333 0.84321 0.0
C151 C 0.65016 0.52932 0.85586 0.0
N152 N 0.62768 0.55734 0.85399 0.0
Co153 Co 0.56695 0.54759 0.86876 0.0
N154 N 0.56337 0.49025 0.88462 0.0
C155 C 0.59565 0.47258 0.88382 0.0
C156 C 0.58417 0.43364 0.89673 0.0
C157 C 0.54187 0.42575 0.90635 0.0
C158 C 0.52982 0.4603 0.89862 0.0
N159 N 0.50542 0.53693 0.88325 0.0
C160 C 0.47654 0.50157 0.89703 0.0
C161 C 0.43571 0.50614 0.90276 0.0
C162 C 0.43893 0.54585 0.89226 0.0
C163 C 0.48115 0.56301 0.8807 0.0
N164 N 0.57138 0.60582 0.8532 0.0
C165 C 0.54102 0.62563 0.85485 0.0
C166 C 0.55487 0.66722 0.84299 0.0
C167 C 0.5967 0.67467 0.83317 0.0
C168 C 0.6057 0.6366 0.83949 0.0
N169 N 0.52221 0.49841 0.85085 0.0
C170 C 0.45641 0.42681 0.82632 0.0
C171 C 0.4521 0.46863 0.83068 0.0
C172 C 0.48503 0.50359 0.84287 0.0
C173 C 0.49472 0.42184 0.83427 0.0
C174 C 0.52698 0.45782 0.84635 0.0
N175 N 0.61152 0.5967 0.88674 0.0
C176 C 0.6313 0.66593 0.9066 0.0
C177 C 0.6737 0.66543 0.91275 0.0
C178 C 0.68465 0.63013 0.90554 0.0
C179 C 0.65342 0.59652 0.89263 0.0
C180 C 0.60102 0.63155 0.89374 0.0
H181 H 0.66388 0.57065 0.88767 0.0
H182 H 0.56937 0.63404 0.88968 0.0
H183 H 0.47947 0.53437 0.84566 0.0
H184 H 0.55518 0.45168 0.85199 0.0
C185 C 0.63457 0.49125 0.87006 0.0
C186 C 0.64761 0.63167 0.83218 0.0
C187 C 0.48555 0.46232 0.90482 0.0
C188 C 0.49941 0.60401 0.86756 0.0
H189 H 0.71978 0.60339 0.82109 0.0
H190 H 0.71344 0.52702 0.84193 0.0
H191 H 0.60371 0.41289 0.8987 0.0
H192 H 0.52178 0.39735 0.91764 0.0
H193 H 0.40638 0.48297 0.91334 0.0
H194 H 0.41343 0.56037 0.89292 0.0
H195 H 0.53686 0.68965 0.84171 0.0
H196 H 0.61822 0.70503 0.82263 0.0
H197 H 0.42361 0.47472 0.82463 0.0
H198 H 0.49933 0.38981 0.83148 0.0
H199 H 0.62168 0.69315 0.9115 0.0
H200 H 0.71684 0.62787 0.90999 0.0
C201 C 0.00808 0.20705 0.06133 0.0
C202 C 0.02982 0.17692 0.06466 0.0
C203 C 0.01346 0.24329 0.07377 0.0
C204 C 0.04033 0.24986 0.08997 0.0
C205 C 0.06235 0.22 0.0932 0.0
C206 C 0.05708 0.18384 0.08073 0.0
C207 C 0.04747 0.28823 0.10356 0.0
C208 C 0.0168 0.30741 0.10527 0.0
C209 C 0.0234 0.34557 0.11884 0.0
C210 C 0.00061 0.37466 0.11554 0.0
C211 C 0.004 0.40963 0.12818 0.0
C212 C 0.02998 0.41608 0.14455 0.0
H213 H 0.0666 0.32957 0.1386 0.0
C214 C 0.05316 0.38728 0.14785 0.0
C215 C 0.04978 0.35222 0.13519 0.0
H216 H 0.07266 0.3907 0.16051 0.0
H217 H 0.98738 0.20317 0.04897 0.0
H218 H -0.00264 0.2666 0.07033 0.0
H219 H 0.08359 0.22448 0.10546 0.0
H220 H 0.07452 0.16144 0.0837 0.0
H221 H 0.07891 0.30032 0.11256 0.0
H222 H 0.98526 0.29514 0.09631 0.0
H223 H 0.97999 0.3703 0.10311 0.0
H224 H 0.98623 0.43167 0.12511 0.0
C225 C 0.8601 0.00022 0.4112 0.0
C226 C 0.91133 0.03338 0.4146 0.0
C227 C 0.82202 0.99319 0.42408 0.0
C228 C 0.83458 0.01911 0.44063 0.0
C229 C 0.88578 0.04978 0.44448 0.0
C230 C 0.92378 0.05721 0.43155 0.0
C231 C 0.79559 0.01621 0.45399 0.0
C232 C 0.75111 0.00985 0.44871 0.0
C233 C 0.71459 0.01334 0.46154 0.0
C234 C 0.68105 0.02692 0.45407 0.0
C235 C 0.64708 0.03202 0.46567 0.0
C236 C 0.64589 0.02332 0.48493 0.0
H237 H 0.73634 0.99138 0.48716 0.0
C238 C 0.67839 0.00865 0.49247 0.0
C239 C 0.71239 0.00353 0.48089 0.0
H240 H 0.67735 0.00112 0.50732 0.0
H241 H 0.84935 0.98106 0.39831 0.0
H242 H 0.78291 0.96788 0.42094 0.0
H243 H 0.8965 0.06966 0.45723 0.0
H244 H 0.96293 0.08268 0.43465 0.0
H245 H 0.80627 0.02481 0.46822 0.0
H246 H 0.74283 0.00621 0.4341 0.0
H247 H 0.68159 0.03427 0.43922 0.0
H248 H 0.6218 0.04287 0.45964 0.0
C249 C 0.89905 0.93478 0.75086 0.0
C250 C 0.94072 0.93759 0.74125 0.0
C251 C 0.86456 0.89068 0.76145 0.0
C252 C 0.87131 0.84855 0.76285 0.0
C253 C 0.9131 0.85133 0.75337 0.0
C254 C 0.94717 0.89523 0.74241 0.0
C255 C 0.83683 0.80294 0.7751 0.0
C256 C 0.78687 0.78529 0.77707 0.0
C257 C 0.75272 0.74359 0.7908 0.0
C258 C 0.70198 0.71079 0.78676 0.0
C259 C 0.66808 0.6735 0.80002 0.0
C260 C 0.68409 0.66951 0.81772 0.0
H261 H 0.80755 0.76435 0.81211 0.0
C262 C 0.7348 0.70221 0.8218 0.0
C263 C 0.76897 0.73876 0.80842 0.0
H264 H 0.74773 0.69987 0.83544 0.0
H265 H 0.89304 0.96678 0.75023 0.0
H266 H 0.83343 0.89021 0.76897 0.0
H267 H 0.91931 0.81949 0.75442 0.0
H268 H 0.97914 0.89649 0.73524 0.0
H269 H 0.8529 0.78337 0.78254 0.0
H270 H 0.77014 0.80174 0.76821 0.0
H271 H 0.68854 0.71414 0.77334 0.0
H272 H 0.62911 0.64841 0.79661 0.0
C273 C 0.12319 0.95408 0.08007 0.0
C274 C 0.09151 0.97384 0.08337 0.0
C275 C 0.12549 0.9208 0.09334 0.0
C276 C 0.09628 0.90693 0.11017 0.0
C277 C 0.06707 0.92913 0.11387 0.0
C278 C 0.06432 0.96188 0.10056 0.0
C279 C 0.09412 0.86845 0.12396 0.0
C280 C 0.0982 0.82854 0.11904 0.0
C281 C 0.08916 0.78606 0.13237 0.0
C282 C 0.07268 0.73768 0.12563 0.0
C283 C 0.06211 0.69631 0.13779 0.0
C284 C 0.06826 0.70281 0.15685 0.0
H285 H 0.11054 0.82953 0.15718 0.0
C286 C 0.08584 0.75118 0.16364 0.0
C287 C 0.09635 0.79258 0.15151 0.0
H288 H 0.09143 0.75683 0.17833 0.0
H289 H 0.14484 0.96289 0.06699 0.0
H290 H 0.1497 0.90564 0.09029 0.0
H291 H 0.0447 0.91956 0.12682 0.0
H292 H 0.03989 0.97686 0.10357 0.0
H293 H 0.08345 0.87024 0.13824 0.0
H294 H 0.10389 0.82431 0.10445 0.0
H295 H 0.06723 0.73168 0.11096 0.0
H296 H 0.04905 0.65922 0.13234 0.0
C297 C 0.16207 0.07625 0.41167 0.0
C298 C 0.18376 0.11453 0.39719 0.0
C299 C 0.1927 0.06724 0.42331 0.0
C300 C 0.24582 0.09631 0.42066 0.0
C301 C 0.26733 0.13554 0.40656 0.0
C302 C 0.23678 0.14448 0.39493 0.0
C303 C 0.28048 0.08766 0.43217 0.0
C304 C 0.2664 0.04496 0.44293 0.0
C305 C 0.30324 0.03815 0.4537 0.0
C306 C 0.28739 0.00971 0.4708 0.0
C307 C 0.32218 0.00549 0.48173 0.0
C308 C 0.37339 0.02926 0.47562 0.0
H309 H 0.36698 0.07977 0.43367 0.0
C310 C 0.38853 0.05524 0.45802 0.0
C311 C 0.35389 0.05957 0.44716 0.0
H312 H 0.42742 0.07275 0.45269 0.0
H313 H 0.12133 0.05271 0.41388 0.0
H314 H 0.17436 0.03766 0.43432 0.0
H315 H 0.30809 0.1589 0.40429 0.0
H316 H 0.25483 0.17443 0.38398 0.0
H317 H 0.32002 0.11797 0.43139 0.0
H318 H 0.22704 0.01458 0.44439 0.0
H319 H 0.2484 0.9922 0.47601 0.0
H320 H 0.30937 0.9853 0.49524 0.0
C321 C 0.20272 0.15396 0.74553 0.0
C322 C 0.1734 0.16625 0.73427 0.0
C323 C 0.23659 0.18928 0.75745 0.0
C324 C 0.24189 0.23774 0.75831 0.0
C325 C 0.21216 0.24973 0.74721 0.0
C326 C 0.1785 0.21451 0.73521 0.0
C327 C 0.27653 0.27587 0.77111 0.0
C328 C 0.31875 0.27788 0.77689 0.0
C329 C 0.3533 0.31626 0.78964 0.0
C330 C 0.40464 0.33103 0.78888 0.0
C331 C 0.4382 0.36699 0.80071 0.0
C332 C 0.42091 0.38852 0.81372 0.0
H333 H 0.29615 0.32537 0.8043 0.0
C334 C 0.36927 0.37296 0.81471 0.0
C335 C 0.3358 0.3372 0.80283 0.0
H336 H 0.35446 0.38779 0.82489 0.0
H337 H 0.19935 0.11691 0.74521 0.0
H338 H 0.25767 0.17802 0.76621 0.0
H339 H 0.21517 0.28659 0.74774 0.0
H340 H 0.15622 0.22501 0.72678 0.0
H341 H 0.26808 0.30474 0.77513 0.0
H342 H 0.33003 0.25235 0.7714 0.0
H343 H 0.419 0.31517 0.77894 0.0
H344 H 0.4778 0.37842 0.79948 0.0
C345 C 0.91291 0.10413 0.66904 0.0
C346 C 0.9437 0.0829 0.66683 0.0
C347 C 0.8771 0.09675 0.65611 0.0
C348 C 0.87156 0.06837 0.64049 0.0
C349 C 0.90247 0.04733 0.63823 0.0
C350 C 0.93832 0.05465 0.65121 0.0
C351 C 0.8323 0.05782 0.62686 0.0
C352 C 0.81287 0.08816 0.624 0.0
C353 C 0.77166 0.07755 0.61128 0.0
C354 C 0.74689 0.10517 0.61305 0.0
C355 C 0.70853 0.09763 0.60134 0.0
C356 C 0.69407 0.06238 0.58746 0.0
H357 H 0.77565 0.02061 0.59518 0.0
C358 C 0.71846 0.03436 0.58569 0.0
C359 C 0.75701 0.04195 0.59741 0.0
H360 H 0.70869 0.00754 0.57491 0.0
H361 H 0.9156 0.12563 0.68101 0.0
H362 H 0.85294 0.11212 0.65881 0.0
H363 H 0.89872 0.02492 0.62643 0.0
H364 H 0.96125 0.03753 0.64913 0.0
H365 H 0.81936 0.02391 0.61912 0.0
H366 H 0.8272 0.12259 0.63157 0.0
H367 H 0.7572 0.13277 0.62359 0.0
H368 H 0.69007 0.11941 0.60321 0.0
C369 C 0.89822 0.91659 0.0067 0.0
C370 C 0.94911 0.92963 0.00622 0.0
C371 C 0.86373 0.87912 -0.0045 0.0
C372 C 0.87966 0.85414 0.98347 0.0
C373 C 0.9303 0.86646 0.98341 0.0
C374 C 0.96465 0.90379 -0.0054 0.0
C375 C 0.84544 0.81533 0.97071 0.0
C376 C 0.80011 0.80802 0.96612 0.0
C377 C 0.76849 0.77086 0.95248 0.0
C378 C 0.71574 0.74848 0.95413 0.0
C379 C 0.68492 0.71396 0.94135 0.0
C380 C 0.70634 0.70164 0.92648 0.0
H381 H 0.83066 0.77694 0.93535 0.0
C382 C 0.75926 0.72465 0.92469 0.0
C383 C 0.79003 0.75895 0.93751 0.0
H384 H 0.77706 0.71698 0.91314 0.0
H385 H 0.88503 0.93554 0.01566 0.0
H386 H 0.82488 0.87002 -0.00351 0.0
H387 H 0.94365 0.84767 0.97443 0.0
H388 H 0.00358 0.91275 -0.00602 0.0
H389 H 0.8591 0.79254 0.96444 0.0
H390 H 0.78494 0.8293 0.97249 0.0
H391 H 0.69825 0.75733 0.96545 0.0
H392 H 0.64427 0.69657 0.94325 0.0
C393 C 0.02313 0.93959 0.32945 0.0
C394 C 0.05749 0.99142 0.32447 0.0
C395 C 0.02355 0.90135 0.31946 0.0
C396 C 0.05837 0.91431 0.30426 0.0
C397 C 0.09227 0.96604 0.29925 0.0
C398 C 0.09172 0.00411 0.30914 0.0
C399 C 0.06232 0.87564 0.29363 0.0
C400 C 0.02426 0.82702 0.29251 0.0
C401 C 0.02834 0.78939 0.28117 0.0
C402 C 0.9935 0.73712 0.28495 0.0
C403 C 0.99495 0.70059 0.27427 0.0
C404 C 0.0313 0.71558 0.25952 0.0
H405 H 0.09102 0.84405 0.26235 0.0
C406 C 0.06622 0.76779 0.25573 0.0
C407 C 0.06461 0.80432 0.26631 0.0
H408 H 0.09389 0.78057 0.24417 0.0
H409 H 0.99653 0.92849 0.34128 0.0
H410 H -0.0024 0.86195 0.32408 0.0
H411 H 0.11958 0.97717 0.28765 0.0
H412 H 0.11885 0.04358 0.3049 0.0
H413 H 0.09825 0.88873 0.28616 0.0
H414 H 0.98844 0.81386 0.3001 0.0
H415 H 0.96495 0.72446 0.2962 0.0
H416 H 0.96764 0.66057 0.27757 0.0
C417 C 0.19592 0.07995 0.64446 0.0
C418 C 0.15962 0.03685 0.65539 0.0
C419 C 0.22942 0.07649 0.63207 0.0
C420 C 0.22709 0.0297 0.63022 0.0
C421 C 0.18977 0.98623 0.64067 0.0
C422 C 0.15667 0.98984 0.65331 0.0
C423 C 0.26264 0.02531 0.61726 0.0
C424 C 0.31125 0.06306 0.61423 0.0
C425 C 0.34745 0.05925 0.60144 0.0
C426 C 0.3989 0.08438 0.60538 0.0
C427 C 0.43404 0.08196 0.59349 0.0
C428 C 0.41848 0.0555 0.57719 0.0
H429 H 0.29275 0.014 0.5814 0.0
C430 C 0.36723 0.03105 0.57304 0.0
C431 C 0.33191 0.03269 0.58509 0.0
H432 H 0.35459 0.0106 0.56047 0.0
H433 H 0.19904 0.11669 0.64568 0.0
H434 H 0.25683 0.11042 0.62383 0.0
H435 H 0.1869 0.94963 0.63933 0.0
H436 H 0.12891 0.95592 0.66148 0.0
H437 H 0.24922 0.98913 0.61091 0.0
H438 H 0.32591 0.09703 0.62212 0.0
H439 H 0.41182 0.10537 0.61783 0.0
H440 H 0.47339 0.10077 0.59698 0.0
C441 C 0.21439 0.18629 -0.00535 0.0
C442 C 0.16462 0.16522 0.98886 0.0
C443 C 0.25563 0.21992 0.98265 0.0
C444 C 0.24776 0.23289 0.96461 0.0
C445 C 0.19815 0.21062 0.95871 0.0
C446 C 0.15705 0.1775 0.97071 0.0
C447 C 0.28997 0.26898 0.95144 0.0
C448 C 0.33446 0.30725 0.95683 0.0
C449 C 0.37424 0.34591 0.94341 0.0
C450 C 0.40716 0.39526 0.94917 0.0
C451 C 0.44355 0.43318 0.93666 0.0
C452 C 0.44775 0.42213 0.91825 0.0
H453 H 0.35632 0.29671 0.92025 0.0
C454 C 0.41609 0.37262 0.91256 0.0
C455 C 0.37973 0.3347 0.92504 0.0
H456 H 0.41943 0.36342 0.89843 0.0
H457 H 0.22149 0.1773 0.0085 0.0
H458 H 0.29346 0.23522 0.98749 0.0
H459 H 0.19104 0.21956 0.94484 0.0
H460 H 0.11927 0.16162 0.96572 0.0
H461 H 0.28223 0.26634 0.93678 0.0
H462 H 0.34042 0.31309 0.97153 0.0
H463 H 0.40408 0.40477 0.96327 0.0
H464 H 0.46815 0.47121 0.94127 0.0
C465 C 0.97585 0.18345 0.32625 0.0
C466 C 0.01706 0.19733 0.33751 0.0
C467 C 0.97239 0.22056 0.31555 0.0
C468 C 0.01042 0.2724 0.31579 0.0
C469 C 0.05089 0.28628 0.32742 0.0
C470 C 0.05431 0.24918 0.33813 0.0
C471 C 0.00924 0.31308 0.30423 0.0
C472 C 0.98432 0.30441 0.28841 0.0
C473 C 0.98714 0.34593 0.27607 0.0
C474 C 0.97996 0.33827 0.25704 0.0
C475 C 0.98528 0.37743 0.24479 0.0
C476 C -0.00264 0.42468 0.25143 0.0
H477 H 0.00123 0.39963 0.2974 0.0
C478 C 0.00248 0.43195 0.27049 0.0
C479 C -0.00274 0.39285 0.28276 0.0
H480 H 0.01137 0.46819 0.27581 0.0
H481 H 0.94618 0.14384 0.32567 0.0
H482 H 0.93966 0.20834 0.3073 0.0
H483 H 0.08045 0.32594 0.32802 0.0
H484 H 0.08638 0.26112 0.34676 0.0
H485 H 0.03295 0.35203 0.30825 0.0
H486 H 0.9645 0.26618 0.28342 0.0
H487 H 0.9716 0.30236 0.25154 0.0
H488 H 0.98109 0.3713 0.23008 0.0
loop_
_geom_bond_atom_site_label_1
_geom_bond_atom_site_label_2
_geom_bond_distance
_geom_bond_site_symmetry_2
_ccdc_geom_bond_type
C0 O1 1.306 . S
C0 O3 1.160 . S
O1 C0 1.306 . S
O1 Cd2 2.228 . S
Cd2 O1 2.228 . S
Cd2 O6 2.273 1_455 S
Cd2 O10 2.277 . S
O3 C0 1.160 . S
O3 Cd4 2.203 . S
Cd4 O3 2.203 . S
Cd4 O6 2.411 1_455 S
Cd4 O7 2.333 1_545 S
Cd4 O8 2.352 1_545 S
Cd4 O12 2.277 . S
Cd4 O13 2.356 1_545 S
C5 O10 1.209 . S
C5 O12 1.226 . S
O6 Cd2 2.273 1_655 S
O6 Cd4 2.411 1_655 S
O6 C9 1.320 1_645 S
O7 Cd4 2.333 1_565 S
O7 C9 1.214 . S
O8 Cd4 2.352 1_565 S
O8 C11 1.258 . S
C9 O6 1.320 1_465 S
C9 O7 1.214 . S
O10 Cd2 2.277 . S
O10 C5 1.209 . S
C11 O8 1.258 . S
C11 O13 1.282 . S
O12 Cd4 2.277 . S
O12 C5 1.226 . S
O13 Cd4 2.356 1_565 S
O13 C11 1.282 . S
C14 O15 1.306 . S
C14 O17 1.160 . S
O15 C14 1.306 . S
O15 Cd16 2.228 . S
Cd16 O15 2.228 . S
Cd16 O20 2.273 . S
Cd16 O24 2.277 . S
O17 C14 1.160 . S
O17 Cd18 2.203 . S
Cd18 O17 2.203 . S
Cd18 O20 2.411 . S
Cd18 O21 2.333 1_455 S
Cd18 O22 2.352 1_455 S
Cd18 O26 2.277 1_445 S
Cd18 O27 2.356 1_455 S
C19 O24 1.209 1_565 S
C19 O26 1.226 1_455 S
O20 Cd16 2.273 . S
O20 Cd18 2.411 . S
O20 C23 1.320 . S
O21 Cd18 2.333 1_655 S
O21 C23 1.214 1_655 S
O22 Cd18 2.352 1_655 S
O22 C25 1.258 . S
C23 O20 1.320 . S
C23 O21 1.214 1_455 S
O24 Cd16 2.277 . S
O24 C19 1.209 1_545 S
C25 O22 1.258 . S
C25 O27 1.282 . S
O26 Cd18 2.277 1_665 S
O26 C19 1.226 1_655 S
O27 Cd18 2.356 1_655 S
O27 C25 1.282 . S
C28 O29 1.306 . S
C28 O31 1.160 1_655 S
O29 C28 1.306 . S
O29 Cd30 2.228 1_655 S
Cd30 O29 2.228 1_455 S
Cd30 O34 2.273 . S
Cd30 O38 2.277 1_455 S
O31 C28 1.160 1_455 S
O31 Cd32 2.203 . S
Cd32 O31 2.203 . S
Cd32 O34 2.411 . S
Cd32 O35 2.333 . S
Cd32 O36 2.352 . S
Cd32 O40 2.277 1_545 S
Cd32 O41 2.356 . S
C33 O38 1.209 1_565 S
C33 O40 1.226 1_655 S
O34 Cd30 2.273 . S
O34 Cd32 2.411 . S
O34 C37 1.320 . S
O35 Cd32 2.333 . S
O35 C37 1.214 . S
O36 Cd32 2.352 . S
O36 C39 1.258 . S
C37 O34 1.320 . S
C37 O35 1.214 . S
O38 Cd30 2.277 1_655 S
O38 C33 1.209 1_545 S
C39 O36 1.258 . S
C39 O41 1.282 . S
O40 Cd32 2.277 1_565 S
O40 C33 1.226 1_455 S
O41 Cd32 2.356 . S
O41 C39 1.282 . S
C42 C43 1.443 . S
C42 N46 1.376 . S
C42 C80 1.389 . S
C43 C42 1.443 . S
C43 C44 1.340 . S
C43 H83 0.951 . S
C44 C43 1.340 . S
C44 C45 1.439 . S
C44 H84 0.950 . S
C45 C44 1.439 . S
C45 N46 1.374 . S
C45 C79 1.395 . S
N46 C42 1.376 . S
N46 C45 1.374 . S
N46 Co47 2.008 . S
Co47 N46 2.008 . S
Co47 N48 1.995 . S
Co47 N53 2.008 1_455 S
Co47 N58 1.995 1_455 S
Co47 N63 2.282 . S
Co47 N69 2.282 . S
N48 Co47 1.995 . S
N48 C49 1.376 . S
N48 C52 1.383 . S
C49 N48 1.376 . S
C49 C50 1.446 . S
C49 C79 1.391 . S
C50 C49 1.446 . S
C50 C51 1.339 . S
C50 H85 0.949 . S
C51 C50 1.339 . S
C51 C52 1.439 . S
C51 H86 0.950 . S
C52 N48 1.383 . S
C52 C51 1.439 . S
C52 C81 1.392 . S
N53 Co47 2.008 1_655 S
N53 C54 1.376 . S
N53 C57 1.374 . S
C54 N53 1.376 . S
C54 C55 1.443 . S
C54 C81 1.390 1_655 S
C55 C54 1.443 . S
C55 C56 1.340 . S
C55 H87 0.951 . S
C56 C55 1.340 . S
C56 C57 1.439 . S
C56 H88 0.950 . S
C57 N53 1.374 . S
C57 C56 1.439 . S
C57 C82 1.395 . S
N58 Co47 1.995 1_655 S
N58 C59 1.376 . S
N58 C62 1.383 1_655 S
C59 N58 1.376 . S
C59 C60 1.446 . S
C59 C82 1.391 . S
C60 C59 1.446 . S
C60 C61 1.339 . S
C60 H89 0.949 . S
C61 C60 1.339 . S
C61 C62 1.439 1_655 S
C61 H90 0.950 . S
C62 N58 1.383 1_455 S
C62 C61 1.439 1_455 S
C62 C80 1.392 . S
N63 Co47 2.282 . S
N63 C66 1.332 . S
N63 C68 1.332 . S
C64 C65 1.386 . S
C64 C67 1.388 . S
C65 C64 1.386 . S
C65 C66 1.382 . S
C65 H91 0.950 1_455 S
C66 N63 1.332 . S
C66 C65 1.382 . S
C66 H77 0.952 1_455 S
C67 C64 1.388 . S
C67 C68 1.382 . S
C67 H92 0.950 . S
C68 N63 1.332 . S
C68 C67 1.382 . S
C68 H78 0.948 . S
N69 Co47 2.282 . S
N69 C73 1.332 . S
N69 C74 1.332 . S
C70 C71 1.388 . S
C70 C74 1.382 . S
C70 H93 0.950 1_455 S
C71 C70 1.388 . S
C71 C72 1.386 . S
C72 C71 1.386 . S
C72 C73 1.382 . S
C72 H94 0.950 . S
C73 N69 1.332 . S
C73 C72 1.382 . S
C73 H75 0.952 . S
C74 N69 1.332 . S
C74 C70 1.382 . S
C74 H76 0.948 1_455 S
H75 C73 0.952 . S
H76 C74 0.948 1_655 S
H77 C66 0.952 1_655 S
H78 C68 0.948 . S
C79 C45 1.395 . S
C79 C49 1.391 . S
C80 C42 1.389 . S
C80 C62 1.392 . S
C81 C52 1.392 . S
C81 C54 1.390 1_455 S
C82 C57 1.395 . S
C82 C59 1.391 . S
H83 C43 0.951 . S
H84 C44 0.950 . S
H85 C50 0.949 . S
H86 C51 0.950 . S
H87 C55 0.951 . S
H88 C56 0.950 . S
H89 C60 0.949 . S
H90 C61 0.950 . S
H91 C65 0.950 1_655 S
H92 C67 0.950 . S
H93 C70 0.950 1_655 S
H94 C72 0.950 . S
C95 C96 1.443 1_545 S
C95 N99 1.376 . S
C95 C133 1.389 . S
C96 C95 1.443 1_565 S
C96 C97 1.340 . S
C96 H136 0.951 . S
C97 C96 1.340 . S
C97 C98 1.439 . S
C97 H137 0.950 . S
C98 C97 1.439 . S
C98 N99 1.374 1_565 S
C98 C132 1.395 . S
N99 C95 1.376 . S
N99 C98 1.374 1_545 S
N99 Co100 2.008 . S
Co100 N99 2.008 . S
Co100 N101 1.995 . S
Co100 N106 2.008 . S
Co100 N111 1.995 . S
Co100 N116 2.282 . S
Co100 N122 2.282 . S
N101 Co100 1.995 . S
N101 C102 1.376 1_545 S
N101 C105 1.383 . S
C102 N101 1.376 1_565 S
C102 C103 1.446 . S
C102 C132 1.391 . S
C103 C102 1.446 . S
C103 C104 1.339 . S
C103 H138 0.949 . S
C104 C103 1.339 . S
C104 C105 1.439 1_565 S
C104 H139 0.950 . S
C105 N101 1.383 . S
C105 C104 1.439 1_545 S
C105 C134 1.392 . S
N106 Co100 2.008 . S
N106 C107 1.376 . S
N106 C110 1.374 . S
C107 N106 1.376 . S
C107 C108 1.443 . S
C107 C134 1.389 . S
C108 C107 1.443 . S
C108 C109 1.340 . S
C108 H140 0.951 . S
C109 C108 1.340 . S
C109 C110 1.439 . S
C109 H141 0.950 . S
C110 N106 1.374 . S
C110 C109 1.439 . S
C110 C135 1.395 . S
N111 Co100 1.995 . S
N111 C112 1.376 . S
N111 C115 1.383 . S
C112 N111 1.376 . S
C112 C113 1.446 . S
C112 C135 1.391 . S
C113 C112 1.446 . S
C113 C114 1.339 . S
C113 H142 0.949 . S
C114 C113 1.339 . S
C114 C115 1.439 . S
C114 H143 0.950 . S
C115 N111 1.383 . S
C115 C114 1.439 . S
C115 C133 1.392 . S
N116 Co100 2.282 . S
N116 C119 1.332 . S
N116 C121 1.332 . S
C117 C118 1.386 . S
C117 C120 1.388 . S
C118 C117 1.386 . S
C118 C119 1.382 . S
C118 H144 0.950 . S
C119 N116 1.332 . S
C119 C118 1.382 . S
C119 H130 0.952 . S
C120 C117 1.388 . S
C120 C121 1.382 . S
C120 H145 0.950 1_545 S
C121 N116 1.332 . S
C121 C120 1.382 . S
C121 H131 0.948 1_545 S
N122 Co100 2.282 . S
N122 C126 1.332 . S
N122 C127 1.332 . S
C123 C124 1.388 . S
C123 C127 1.382 . S
C123 H146 0.950 . S
C124 C123 1.388 . S
C124 C125 1.386 . S
C125 C124 1.386 . S
C125 C126 1.382 . S
C125 H147 0.950 1_545 S
C126 N122 1.332 . S
C126 C125 1.382 . S
C126 H128 0.966 . S
C127 N122 1.332 . S
C127 C123 1.382 . S
C127 H129 0.948 . S
H128 C126 0.966 . S
H129 C127 0.948 . S
H130 C119 0.952 . S
H131 C121 0.948 1_565 S
C132 C98 1.395 . S
C132 C102 1.391 . S
C133 C95 1.389 . S
C133 C115 1.392 . S
C134 C105 1.392 . S
C134 C107 1.389 . S
C135 C110 1.395 . S
C135 C112 1.391 . S
H136 C96 0.951 . S
H137 C97 0.950 . S
H138 C103 0.949 . S
H139 C104 0.950 . S
H140 C108 0.951 . S
H141 C109 0.950 . S
H142 C113 0.949 . S
H143 C114 0.950 . S
H144 C118 0.950 . S
H145 C120 0.950 1_565 S
H146 C123 0.950 . S
H147 C125 0.950 1_565 S
C148 C149 1.443 . S
C148 N152 1.376 . S
C148 C186 1.389 . S
C149 C148 1.443 . S
C149 C150 1.340 . S
C149 H189 0.951 . S
C150 C149 1.340 . S
C150 C151 1.439 . S
C150 H190 0.950 . S
C151 C150 1.439 . S
C151 N152 1.374 . S
C151 C185 1.395 . S
N152 C148 1.376 . S
N152 C151 1.374 . S
N152 Co153 2.008 . S
Co153 N152 2.008 . S
Co153 N154 1.995 . S
Co153 N159 2.008 . S
Co153 N164 1.995 . S
Co153 N169 2.282 . S
Co153 N175 2.282 . S
N154 Co153 1.995 . S
N154 C155 1.376 . S
N154 C158 1.383 . S
C155 N154 1.376 . S
C155 C156 1.446 . S
C155 C185 1.391 . S
C156 C155 1.446 . S
C156 C157 1.339 . S
C156 H191 0.949 . S
C157 C156 1.339 . S
C157 C158 1.439 . S
C157 H192 0.950 . S
C158 N154 1.383 . S
C158 C157 1.439 . S
C158 C187 1.392 . S
N159 Co153 2.008 . S
N159 C160 1.376 . S
N159 C163 1.374 . S
C160 N159 1.376 . S
C160 C161 1.443 . S
C160 C187 1.389 . S
C161 C160 1.443 . S
C161 C162 1.340 . S
C161 H193 0.951 . S
C162 C161 1.340 . S
C162 C163 1.439 . S
C162 H194 0.950 . S
C163 N159 1.374 . S
C163 C162 1.439 . S
C163 C188 1.395 . S
N164 Co153 1.995 . S
N164 C165 1.376 . S
N164 C168 1.383 . S
C165 N164 1.376 . S
C165 C166 1.446 . S
C165 C188 1.391 . S
C166 C165 1.446 . S
C166 C167 1.339 . S
C166 H195 0.949 . S
C167 C166 1.339 . S
C167 C168 1.439 . S
C167 H196 0.950 . S
C168 N164 1.383 . S
C168 C167 1.439 . S
C168 C186 1.392 . S
N169 Co153 2.282 . S
N169 C172 1.332 . S
N169 C174 1.332 . S
C170 C171 1.386 . S
C170 C173 1.388 . S
C171 C170 1.386 . S
C171 C172 1.382 . S
C171 H197 0.950 . S
C172 N169 1.332 . S
C172 C171 1.382 . S
C172 H183 0.952 . S
C173 C170 1.388 . S
C173 C174 1.382 . S
C173 H198 0.950 . S
C174 N169 1.332 . S
C174 C173 1.382 . S
C174 H184 0.948 . S
N175 Co153 2.282 . S
N175 C179 1.332 . S
N175 C180 1.332 . S
C176 C177 1.388 . S
C176 C180 1.382 . S
C176 H199 0.950 . S
C177 C176 1.388 . S
C177 C178 1.386 . S
C178 C177 1.386 . S
C178 C179 1.382 . S
C178 H200 0.950 . S
C179 N175 1.332 . S
C179 C178 1.382 . S
C179 H181 0.952 . S
C180 N175 1.332 . S
C180 C176 1.382 . S
C180 H182 0.948 . S
H181 C179 0.952 . S
H182 C180 0.948 . S
H183 C172 0.952 . S
H184 C174 0.948 . S
C185 C151 1.395 . S
C185 C155 1.391 . S
C186 C148 1.389 . S
C186 C168 1.392 . S
C187 C158 1.392 . S
C187 C160 1.389 . S
C188 C163 1.395 . S
C188 C165 1.391 . S
H189 C149 0.951 . S
H190 C150 0.950 . S
H191 C156 0.949 . S
H192 C157 0.950 . S
H193 C161 0.951 . S
H194 C162 0.950 . S
H195 C166 0.949 . S
H196 C167 0.950 . S
H197 C171 0.950 . S
H198 C173 0.950 . S
H199 C176 0.950 . S
H200 C178 0.950 . S
C201 C202 1.386 . S
C201 C203 1.383 . S
C201 H217 0.951 . S
C202 C201 1.386 . S
C202 C206 1.383 . S
C203 C201 1.383 . S
C203 C204 1.402 . S
C203 H218 0.951 . S
C204 C203 1.402 . S
C204 C205 1.375 . S
C204 C207 1.481 . S
C205 C204 1.375 . S
C205 C206 1.367 . S
C205 H219 0.951 . S
C206 C202 1.383 . S
C206 C205 1.367 . S
C206 H220 0.950 . S
C207 C204 1.481 . S
C207 C208 1.297 . S
C207 H221 0.950 . S
C208 C207 1.297 . S
C208 C209 1.479 . S
C208 H222 0.950 . S
C209 C208 1.479 . S
C209 C210 1.375 . S
C209 C215 1.404 . S
C210 C209 1.375 . S
C210 C211 1.369 . S
C210 H223 0.950 . S
C211 C210 1.369 . S
C211 C212 1.392 . S
C211 H224 0.951 . S
C212 C211 1.392 . S
C212 C214 1.384 . S
H213 C215 0.949 . S
C214 C212 1.384 . S
C214 C215 1.385 . S
C214 H216 0.950 . S
C215 C209 1.404 . S
C215 H213 0.949 . S
C215 C214 1.385 . S
H216 C214 0.950 . S
H217 C201 0.951 . S
H218 C203 0.951 . S
H219 C205 0.951 . S
H220 C206 0.950 . S
H221 C207 0.950 . S
H222 C208 0.950 . S
H223 C210 0.950 . S
H224 C211 0.951 . S
C225 C226 1.386 . S
C225 C227 1.383 . S
C225 H241 0.951 . S
C226 C225 1.386 . S
C226 C230 1.383 . S
C227 C225 1.383 . S
C227 C228 1.402 . S
C227 H242 0.951 . S
C228 C227 1.402 . S
C228 C229 1.375 . S
C228 C231 1.481 . S
C229 C228 1.375 . S
C229 C230 1.367 . S
C229 H243 0.951 . S
C230 C226 1.383 . S
C230 C229 1.367 . S
C230 H244 0.950 . S
C231 C228 1.481 . S
C231 C232 1.297 . S
C231 H245 0.950 . S
C232 C231 1.297 . S
C232 C233 1.479 . S
C232 H246 0.950 . S
C233 C232 1.479 . S
C233 C234 1.375 . S
C233 C239 1.404 . S
C234 C233 1.375 . S
C234 C235 1.369 . S
C234 H247 0.950 1_545 S
C235 C234 1.369 . S
C235 C236 1.392 . S
C235 H248 0.951 . S
C236 C235 1.392 . S
C236 C238 1.384 . S
H237 C239 0.949 . S
C238 C236 1.384 . S
C238 C239 1.385 . S
C238 H240 0.950 . S
C239 C233 1.404 . S
C239 H237 0.949 . S
C239 C238 1.385 . S
H240 C238 0.950 . S
H241 C225 0.951 . S
H242 C227 0.951 . S
H243 C229 0.951 . S
H244 C230 0.950 . S
H245 C231 0.950 . S
H246 C232 0.950 . S
H247 C234 0.950 1_565 S
H248 C235 0.951 . S
C249 C250 1.386 . S
C249 C251 1.383 . S
C249 H265 0.951 . S
C250 C249 1.386 . S
C250 C254 1.383 . S
C251 C249 1.383 . S
C251 C252 1.402 . S
C251 H266 0.951 . S
C252 C251 1.402 . S
C252 C253 1.375 . S
C252 C255 1.481 . S
C253 C252 1.375 . S
C253 C254 1.367 . S
C253 H267 0.951 . S
C254 C250 1.383 . S
C254 C253 1.367 . S
C254 H268 0.950 . S
C255 C252 1.481 . S
C255 C256 1.297 . S
C255 H269 0.950 . S
C256 C255 1.297 . S
C256 C257 1.479 . S
C256 H270 0.950 . S
C257 C256 1.479 . S
C257 C258 1.375 . S
C257 C263 1.404 . S
C258 C257 1.375 . S
C258 C259 1.369 . S
C258 H271 0.950 . S
C259 C258 1.369 . S
C259 C260 1.392 . S
C259 H272 0.951 . S
C260 C259 1.392 . S
C260 C262 1.384 . S
H261 C263 0.949 . S
C262 C260 1.384 . S
C262 C263 1.385 . S
C262 H264 0.950 . S
C263 C257 1.404 . S
C263 H261 0.949 . S
C263 C262 1.385 . S
H264 C262 0.950 . S
H265 C249 0.951 . S
H266 C251 0.951 . S
H267 C253 0.951 . S
H268 C254 0.950 . S
H269 C255 0.950 . S
H270 C256 0.950 . S
H271 C258 0.950 . S
H272 C259 0.951 . S
C273 C274 1.386 . S
C273 C275 1.383 . S
C273 H289 0.951 . S
C274 C273 1.386 . S
C274 C278 1.383 . S
C275 C273 1.383 . S
C275 C276 1.402 . S
C275 H290 0.951 . S
C276 C275 1.402 . S
C276 C277 1.375 . S
C276 C279 1.481 . S
C277 C276 1.375 . S
C277 C278 1.367 . S
C277 H291 0.951 . S
C278 C274 1.383 . S
C278 C277 1.367 . S
C278 H292 0.950 . S
C279 C276 1.481 . S
C279 C280 1.297 . S
C279 H293 0.950 . S
C280 C279 1.297 . S
C280 C281 1.479 . S
C280 H294 0.950 . S
C281 C280 1.479 . S
C281 C282 1.375 . S
C281 C287 1.404 . S
C282 C281 1.375 . S
C282 C283 1.369 . S
C282 H295 0.950 . S
C283 C282 1.369 . S
C283 C284 1.392 . S
C283 H296 0.951 . S
C284 C283 1.392 . S
C284 C286 1.384 . S
H285 C287 0.949 . S
C286 C284 1.384 . S
C286 C287 1.385 . S
C286 H288 0.950 . S
C287 C281 1.404 . S
C287 H285 0.949 . S
C287 C286 1.385 . S
H288 C286 0.950 . S
H289 C273 0.951 . S
H290 C275 0.951 . S
H291 C277 0.951 . S
H292 C278 0.950 . S
H293 C279 0.950 . S
H294 C280 0.950 . S
H295 C282 0.950 . S
H296 C283 0.951 . S
C297 C298 1.386 . S
C297 C299 1.383 . S
C297 H313 0.951 1_545 S
C298 C297 1.386 . S
C298 C302 1.383 . S
C299 C297 1.383 . S
C299 C300 1.402 . S
C299 H314 0.951 . S
C300 C299 1.402 . S
C300 C301 1.375 . S
C300 C303 1.481 . S
C301 C300 1.375 . S
C301 C302 1.367 . S
C301 H315 0.951 . S
C302 C298 1.383 . S
C302 C301 1.367 . S
C302 H316 0.950 . S
C303 C300 1.481 . S
C303 C304 1.297 . S
C303 H317 0.950 . S
C304 C303 1.297 . S
C304 C305 1.479 . S
C304 H318 0.950 . S
C305 C304 1.479 . S
C305 C306 1.375 . S
C305 C311 1.404 . S
C306 C305 1.375 . S
C306 C307 1.369 . S
C306 H319 0.950 1_545 S
C307 C306 1.369 . S
C307 C308 1.392 . S
C307 H320 0.951 1_545 S
C308 C307 1.392 . S
C308 C310 1.384 . S
H309 C311 0.949 . S
C310 C308 1.384 . S
C310 C311 1.385 . S
C310 H312 0.950 . S
C311 C305 1.404 . S
C311 H309 0.949 . S
C311 C310 1.385 . S
H312 C310 0.950 . S
H313 C297 0.951 1_565 S
H314 C299 0.951 . S
H315 C301 0.951 . S
H316 C302 0.950 . S
H317 C303 0.950 . S
H318 C304 0.950 . S
H319 C306 0.950 1_565 S
H320 C307 0.951 1_565 S
C321 C322 1.386 . S
C321 C323 1.383 . S
C321 H337 0.951 . S
C322 C321 1.386 . S
C322 C326 1.383 . S
C323 C321 1.383 . S
C323 C324 1.402 . S
C323 H338 0.951 . S
C324 C323 1.402 . S
C324 C325 1.375 . S
C324 C327 1.481 . S
C325 C324 1.375 . S
C325 C326 1.367 . S
C325 H339 0.951 . S
C326 C322 1.383 . S
C326 C325 1.367 . S
C326 H340 0.950 . S
C327 C324 1.481 . S
C327 C328 1.297 . S
C327 H341 0.950 . S
C328 C327 1.297 . S
C328 C329 1.479 . S
C328 H342 0.950 . S
C329 C328 1.479 . S
C329 C330 1.375 . S
C329 C335 1.404 . S
C330 C329 1.375 . S
C330 C331 1.369 . S
C330 H343 0.950 . S
C331 C330 1.369 . S
C331 C332 1.392 . S
C331 H344 0.951 . S
C332 C331 1.392 . S
C332 C334 1.384 . S
H333 C335 0.949 . S
C334 C332 1.384 . S
C334 C335 1.385 . S
C334 H336 0.950 . S
C335 C329 1.404 . S
C335 H333 0.949 . S
C335 C334 1.385 . S
H336 C334 0.950 . S
H337 C321 0.951 . S
H338 C323 0.951 . S
H339 C325 0.951 . S
H340 C326 0.950 . S
H341 C327 0.950 . S
H342 C328 0.950 . S
H343 C330 0.950 . S
H344 C331 0.951 . S
C345 C346 1.386 . S
C345 C347 1.383 . S
C345 H361 0.951 . S
C346 C345 1.386 . S
C346 C350 1.383 . S
C347 C345 1.383 . S
C347 C348 1.402 . S
C347 H362 0.951 . S
C348 C347 1.402 . S
C348 C349 1.375 . S
C348 C351 1.481 . S
C349 C348 1.375 . S
C349 C350 1.367 . S
C349 H363 0.951 . S
C350 C346 1.383 . S
C350 C349 1.367 . S
C350 H364 0.950 . S
C351 C348 1.481 . S
C351 C352 1.297 . S
C351 H365 0.950 . S
C352 C351 1.297 . S
C352 C353 1.479 . S
C352 H366 0.950 . S
C353 C352 1.479 . S
C353 C354 1.375 . S
C353 C359 1.404 . S
C354 C353 1.375 . S
C354 C355 1.369 . S
C354 H367 0.950 . S
C355 C354 1.369 . S
C355 C356 1.392 . S
C355 H368 0.951 . S
C356 C355 1.392 . S
C356 C358 1.384 . S
H357 C359 0.949 . S
C358 C356 1.384 . S
C358 C359 1.385 . S
C358 H360 0.950 . S
C359 C353 1.404 . S
C359 H357 0.949 . S
C359 C358 1.385 . S
H360 C358 0.950 . S
H361 C345 0.951 . S
H362 C347 0.951 . S
H363 C349 0.951 . S
H364 C350 0.950 . S
H365 C351 0.950 . S
H366 C352 0.950 . S
H367 C354 0.950 . S
H368 C355 0.951 . S
C369 C370 1.386 . S
C369 C371 1.383 1_554 S
C369 H385 0.951 . S
C370 C369 1.386 . S
C370 C374 1.383 1_554 S
C371 C369 1.383 1_556 S
C371 C372 1.402 . S
C371 H386 0.956 . S
C372 C371 1.402 . S
C372 C373 1.375 . S
C372 C375 1.481 . S
C373 C372 1.375 . S
C373 C374 1.367 . S
C373 H387 0.951 . S
C374 C370 1.383 1_556 S
C374 C373 1.367 . S
C374 H388 0.950 1_655 S
C375 C372 1.481 . S
C375 C376 1.297 . S
C375 H389 0.950 . S
C376 C375 1.297 . S
C376 C377 1.479 . S
C376 H390 0.950 . S
C377 C376 1.479 . S
C377 C378 1.375 . S
C377 C383 1.404 . S
C378 C377 1.375 . S
C378 C379 1.369 . S
C378 H391 0.950 . S
C379 C378 1.369 . S
C379 C380 1.392 . S
C379 H392 0.951 . S
C380 C379 1.392 . S
C380 C382 1.384 . S
H381 C383 0.949 . S
C382 C380 1.384 . S
C382 C383 1.385 . S
C382 H384 0.950 . S
C383 C377 1.404 . S
C383 H381 0.949 . S
C383 C382 1.385 . S
H384 C382 0.950 . S
H385 C369 0.951 . S
H386 C371 0.956 . S
H387 C373 0.951 . S
H388 C374 0.950 1_455 S
H389 C375 0.950 . S
H390 C376 0.950 . S
H391 C378 0.950 . S
H392 C379 0.951 . S
C393 C394 1.386 . S
C393 C395 1.385 . S
C393 H409 0.949 1_455 S
C394 C393 1.386 . S
C394 C398 1.383 . S
C395 C393 1.385 . S
C395 C396 1.402 . S
C395 H410 0.951 1_455 S
C396 C395 1.402 . S
C396 C397 1.375 . S
C396 C399 1.481 . S
C397 C396 1.375 . S
C397 C398 1.367 . S
C397 H411 0.951 . S
C398 C394 1.383 . S
C398 C397 1.367 . S
C398 H412 0.950 1_565 S
C399 C396 1.481 . S
C399 C400 1.297 . S
C399 H413 0.950 . S
C400 C399 1.297 . S
C400 C401 1.479 . S
C400 H414 0.950 1_455 S
C401 C400 1.479 . S
C401 C402 1.375 1_455 S
C401 C407 1.404 . S
C402 C401 1.375 1_655 S
C402 C403 1.369 1_655 S
C402 H415 0.950 . S
C403 C402 1.369 1_455 S
C403 C404 1.392 . S
C403 H416 0.951 1_455 S
C404 C403 1.392 . S
C404 C406 1.384 . S
H405 C407 0.949 . S
C406 C404 1.384 . S
C406 C407 1.385 . S
C406 H408 0.950 . S
C407 C401 1.404 . S
C407 H405 0.949 . S
C407 C406 1.385 . S
H408 C406 0.950 . S
H409 C393 0.949 1_655 S
H410 C395 0.951 1_655 S
H411 C397 0.951 . S
H412 C398 0.950 1_545 S
H413 C399 0.950 . S
H414 C400 0.950 1_655 S
H415 C402 0.950 . S
H416 C403 0.951 1_655 S
C417 C418 1.386 . S
C417 C419 1.383 . S
C417 H433 0.951 . S
C418 C417 1.386 . S
C418 C422 1.383 1_545 S
C419 C417 1.383 . S
C419 C420 1.402 . S
C419 H434 0.951 . S
C420 C419 1.402 . S
C420 C421 1.375 1_545 S
C420 C423 1.481 . S
C421 C420 1.375 1_565 S
C421 C422 1.367 . S
C421 H435 0.951 . S
C422 C418 1.383 1_565 S
C422 C421 1.367 . S
C422 H436 0.950 . S
C423 C420 1.481 . S
C423 C424 1.297 . S
C423 H437 0.950 1_545 S
C424 C423 1.297 . S
C424 C425 1.479 . S
C424 H438 0.950 . S
C425 C424 1.479 . S
C425 C426 1.375 . S
C425 C431 1.404 . S
C426 C425 1.375 . S
C426 C427 1.369 . S
C426 H439 0.950 . S
C427 C426 1.369 . S
C427 C428 1.392 . S
C427 H440 0.951 . S
C428 C427 1.392 . S
C428 C430 1.384 . S
H429 C431 0.949 1_565 S
C430 C428 1.384 . S
C430 C431 1.385 . S
C430 H432 0.950 1_545 S
C431 C425 1.404 . S
C431 H429 0.949 1_545 S
C431 C430 1.385 . S
H432 C430 0.950 1_565 S
H433 C417 0.951 . S
H434 C419 0.951 . S
H435 C421 0.951 . S
H436 C422 0.950 . S
H437 C423 0.950 1_565 S
H438 C424 0.950 . S
H439 C426 0.950 . S
H440 C427 0.951 . S
C441 C442 1.386 . S
C441 C443 1.383 1_554 S
C441 H457 0.951 . S
C442 C441 1.386 . S
C442 C446 1.383 1_554 S
C443 C441 1.383 1_556 S
C443 C444 1.402 . S
C443 H458 0.951 . S
C444 C443 1.402 . S
C444 C445 1.375 . S
C444 C447 1.481 . S
C445 C444 1.375 . S
C445 C446 1.367 . S
C445 H459 0.951 . S
C446 C442 1.383 1_556 S
C446 C445 1.367 . S
C446 H460 0.950 . S
C447 C444 1.481 . S
C447 C448 1.297 . S
C447 H461 0.950 . S
C448 C447 1.297 . S
C448 C449 1.479 . S
C448 H462 0.950 . S
C449 C448 1.479 . S
C449 C450 1.375 . S
C449 C455 1.404 . S
C450 C449 1.375 . S
C450 C451 1.369 . S
C450 H463 0.950 . S
C451 C450 1.369 . S
C451 C452 1.392 . S
C451 H464 0.951 . S
C452 C451 1.392 . S
C452 C454 1.384 . S
H453 C455 0.949 . S
C454 C452 1.384 . S
C454 C455 1.385 . S
C454 H456 0.950 . S
C455 C449 1.404 . S
C455 H453 0.949 . S
C455 C454 1.385 . S
H456 C454 0.950 . S
H457 C441 0.951 . S
H458 C443 0.951 . S
H459 C445 0.951 . S
H460 C446 0.950 . S
H461 C447 0.950 . S
H462 C448 0.950 . S
H463 C450 0.950 . S
H464 C451 0.951 . S
C465 C466 1.386 . S
C465 C467 1.383 . S
C465 H481 0.951 1_455 S
C466 C465 1.386 . S
C466 C470 1.383 . S
C467 C465 1.383 . S
C467 C468 1.402 . S
C467 H482 0.951 1_455 S
C468 C467 1.402 . S
C468 C469 1.375 . S
C468 C471 1.481 . S
C469 C468 1.375 . S
C469 C470 1.367 . S
C469 H483 0.951 . S
C470 C466 1.383 . S
C470 C469 1.367 . S
C470 H484 0.950 . S
C471 C468 1.481 . S
C471 C472 1.297 . S
C471 H485 0.950 . S
C472 C471 1.297 . S
C472 C473 1.479 . S
C472 H486 0.950 1_455 S
C473 C472 1.479 . S
C473 C474 1.384 . S
C473 C479 1.404 . S
C474 C473 1.384 . S
C474 C475 1.363 . S
C474 H487 0.948 1_455 S
C475 C474 1.363 . S
C475 C476 1.392 . S
C475 H488 0.951 1_455 S
C476 C475 1.392 . S
C476 C478 1.384 . S
H477 C479 0.949 . S
C478 C476 1.384 . S
C478 C479 1.385 . S
C478 H480 0.950 . S
C479 C473 1.404 . S
C479 H477 0.949 . S
C479 C478 1.385 . S
H480 C478 0.950 . S
H481 C465 0.951 1_655 S
H482 C467 0.951 1_655 S
H483 C469 0.951 . S
H484 C470 0.950 . S
H485 C471 0.950 . S
H486 C472 0.950 1_655 S
H487 C474 0.948 1_655 S
H488 C475 0.951 1_655 S
C212 C64 1.439 . S
C202 C0 1.450 . S
C226 C25 1.491 . S
C236 C134 1.482 . S
C250 C33 1.510 . S
C260 C186 1.484 . S
C274 C11 1.440 . S
C284 C80 1.428 . S
C308 C124 1.465 . S
C298 C14 1.468 . S
C322 C37 1.502 . S
C332 C170 1.486 . S
C356 C117 1.476 . S
C346 C28 1.483 . S
C370 C9 1.500 1_655 S
C380 C177 1.496 . S
C404 C71 1.523 . S
C394 C19 1.530 . S
C428 C133 1.467 . S
C418 C39 1.483 . S
C452 C187 1.496 . S
C442 C5 1.504 . S
C466 C23 1.536 . S
C476 C81 1.537 . S
