# Generated by pormake.
# Topology ssa, (4,4)-cn, num edge types: 1
# Building blocks:
#     Node 0, Type 0, BuildingBlock: KOZSID_clean_sbu_0, # of connection points: 4
#     Node 1, Type 0, BuildingBlock: KOZSID_clean_sbu_0, # of connection points: 4
#     Node 2, Type 0, BuildingBlock: KOZSID_clean_sbu_0, # of connection points: 4
#     Node 3, Type 0, BuildingBlock: KOZSID_clean_sbu_0, # of connection points: 4
#     Node 4, Type 0, BuildingBlock: KOZSID_clean_sbu_0, # of connection points: 4
#     Node 5, Type 0, BuildingBlock: KOZSID_clean_sbu_0, # of connection points: 4
#     Node 6, Type 1, BuildingBlock: KOZSID_clean_sbu_0, # of connection points: 4
#     Node 7, Type 1, BuildingBlock: KOZSID_clean_sbu_0, # of connection points: 4
#     Node 8, Type 1, BuildingBlock: KOZSID_clean_sbu_0, # of connection points: 4
#     Node 9, Type 1, BuildingBlock: KOZSID_clean_sbu_0, # of connection points: 4
#     Node 10, Type 1, BuildingBlock: KOZSID_clean_sbu_0, # of connection points: 4
#     Node 11, Type 1, BuildingBlock: KOZSID_clean_sbu_0, # of connection points: 4
#     Edge 12, Type (0, 1), BuildingBlock: TEMPAE_clean_linker_10, # of connection points: 2
#     Edge 13, Type (0, 1), BuildingBlock: TEMPAE_clean_linker_10, # of connection points: 2
#     Edge 14, Type (0, 1), BuildingBlock: TEMPAE_clean_linker_10, # of connection points: 2
#     Edge 15, Type (0, 1), BuildingBlock: TEMPAE_clean_linker_10, # of connection points: 2
#     Edge 16, Type (0, 1), BuildingBlock: TEMPAE_clean_linker_10, # of connection points: 2
#     Edge 17, Type (0, 1), BuildingBlock: TEMPAE_clean_linker_10, # of connection points: 2
#     Edge 18, Type (0, 1), BuildingBlock: TEMPAE_clean_linker_10, # of connection points: 2
#     Edge 19, Type (0, 1), BuildingBlock: TEMPAE_clean_linker_10, # of connection points: 2
#     Edge 20, Type (0, 1), BuildingBlock: TEMPAE_clean_linker_10, # of connection points: 2
#     Edge 21, Type (0, 1), BuildingBlock: TEMPAE_clean_linker_10, # of connection points: 2
#     Edge 22, Type (0, 1), BuildingBlock: TEMPAE_clean_linker_10, # of connection points: 2
#     Edge 23, Type (0, 1), BuildingBlock: TEMPAE_clean_linker_10, # of connection points: 2
#     Edge 24, Type (0, 1), BuildingBlock: TEMPAE_clean_linker_10, # of connection points: 2
#     Edge 25, Type (0, 1), BuildingBlock: TEMPAE_clean_linker_10, # of connection points: 2
#     Edge 26, Type (0, 1), BuildingBlock: TEMPAE_clean_linker_10, # of connection points: 2
#     Edge 27, Type (0, 1), BuildingBlock: TEMPAE_clean_linker_10, # of connection points: 2
#     Edge 28, Type (0, 1), BuildingBlock: TEMPAE_clean_linker_10, # of connection points: 2
#     Edge 29, Type (0, 1), BuildingBlock: TEMPAE_clean_linker_10, # of connection points: 2
#     Edge 30, Type (0, 1), BuildingBlock: TEMPAE_clean_linker_10, # of connection points: 2
#     Edge 31, Type (0, 1), BuildingBlock: TEMPAE_clean_linker_10, # of connection points: 2
#     Edge 32, Type (0, 1), BuildingBlock: TEMPAE_clean_linker_10, # of connection points: 2
#     Edge 33, Type (0, 1), BuildingBlock: TEMPAE_clean_linker_10, # of connection points: 2
#     Edge 34, Type (0, 1), BuildingBlock: TEMPAE_clean_linker_10, # of connection points: 2
#     Edge 35, Type (0, 1), BuildingBlock: TEMPAE_clean_linker_10, # of connection points: 2
# Relax obj value: 0.009
# Max RMSD: 0.036
# Mean RMSD: 0.017
data_MOF--net-ssa--node1-KOZSID_clean_sbu_0--node2-KOZSID_clean_sbu_0--edge1-TEMPAE_clean_linker_10
_symmetry_space_group_name_H-M    P1
_symmetry_Int_Tables_number       1
_symmetry_cell_setting            triclinic
loop_
_symmetry_equiv_pos_as_xyz
'x, y, z'
_cell_length_a     58.678187
_cell_length_b     60.081952
_cell_length_c     42.201781
_cell_angle_alpha  90.651624
_cell_angle_beta   92.933343
_cell_angle_gamma 122.33071
loop_
_atom_site_label
_atom_site_type_symbol
_atom_site_fract_x
_atom_site_fract_y
_atom_site_fract_z
_atom_type_partial_charge
C0 C 0.94703 0.50113 1.00068 0.0
C1 C 0.92363 0.49383 0.01558 0.0
C2 C 0.92418 0.48145 0.04227 0.0
C3 C 0.94785 0.48201 0.04223 0.0
N4 N 0.96261 0.49429 0.01733 0.0
Co5 Co 0.9983 0.49941 0.00812 0.0
N6 N 0.99659 0.47682 0.04366 0.0
C7 C 0.97557 0.46301 0.06202 0.0
C8 C 0.97827 0.44638 0.08148 0.0
C9 C 0.00268 0.45008 0.07556 0.0
C10 C 0.01399 0.46952 0.05344 0.0
N11 N 0.03476 0.50579 1.00015 0.0
C12 C 0.05082 0.50008 0.01805 0.0
C13 C 0.07696 0.51345 0.00792 0.0
C14 C 0.07705 0.5269 0.98211 0.0
C15 C 0.05139 0.52183 0.97837 0.0
N16 N 0.99908 0.52059 0.97118 0.0
C17 C 0.01873 0.53229 0.95061 0.0
C18 C 0.01269 0.54328 0.92587 0.0
C19 C 0.98732 0.5377 0.93044 0.0
C20 C 0.97943 0.52372 0.95792 0.0
N21 N 0.01689 0.53126 0.03727 0.0
C22 C 0.05025 0.5743 0.07991 0.0
C23 C 0.05349 0.57653 0.04744 0.0
C24 C 0.03646 0.55509 0.02665 0.0
C25 C 0.02879 0.55094 0.09068 0.0
C26 C 0.01239 0.52971 0.06901 0.0
N27 N 0.97992 0.46776 0.97895 0.0
C28 C 0.97672 0.44644 0.92854 0.0
C29 C 0.95038 0.426 0.93347 0.0
C30 C 0.93973 0.42599 0.96229 0.0
C31 C 0.95479 0.44679 0.98461 0.0
C32 C 0.99109 0.46701 0.95152 0.0
H33 H 0.94538 0.44579 0.00594 0.0
H34 H 0.01089 0.48244 0.94622 0.0
H35 H 0.04019 0.55815 0.00223 0.0
H36 H 0.99679 0.51203 0.0786 0.0
C37 C 0.95424 0.46709 0.0615 0.0
C38 C 0.95273 0.51298 0.96981 0.0
C39 C 0.04207 0.48205 0.04454 0.0
C40 C 0.04269 0.53281 0.95551 0.0
H41 H 0.90737 0.4963 0.00732 0.0
H42 H 0.90841 0.47177 0.05867 0.0
H43 H 0.96432 0.43334 0.09827 0.0
H44 H 0.01137 0.44 0.08696 0.0
H45 H 0.09456 0.51417 0.01827 0.0
H46 H 0.09408 0.53963 0.96837 0.0
H47 H 0.02507 0.55371 0.90654 0.0
H48 H 0.97573 0.54292 0.91502 0.0
H49 H 0.06956 0.59463 0.03817 0.0
H50 H 0.02548 0.54867 0.11577 0.0
H51 H 0.98583 0.44709 0.9066 0.0
H52 H 0.91964 0.41013 0.96745 0.0
C53 C 0.55405 0.03404 0.5438 0.0
C54 C 0.56303 0.03055 0.57332 0.0
C55 C 0.54175 0.00846 0.58482 0.0
C56 C 0.52103 0.99986 0.56192 0.0
N57 N 0.52795 0.01475 0.5361 0.0
Co58 Co 0.50327 0.01105 0.49897 0.0
N59 N 0.47177 0.97906 0.51631 0.0
C60 C 0.4716 0.96743 0.54359 0.0
C61 C 0.44771 0.94408 0.5473 0.0
C62 C 0.43197 0.94013 0.52024 0.0
C63 C 0.44727 0.96144 0.50173 0.0
N64 N 0.47831 0.00811 0.46269 0.0
C65 C 0.45263 0.98832 0.45427 0.0
C66 C 0.44262 0.99336 0.42665 0.0
C67 C 0.46306 0.01698 0.41686 0.0
C68 C 0.48425 0.02495 0.43899 0.0
N69 N 0.53499 0.04207 0.48059 0.0
C70 C 0.53521 0.05262 0.45238 0.0
C71 C 0.56006 0.07395 0.44631 0.0
C72 C 0.57658 0.07742 0.47239 0.0
C73 C 0.56071 0.05803 0.49297 0.0
N74 N 0.51101 0.98716 0.4754 0.0
C75 C 0.51793 0.95054 0.4417 0.0
C76 C 0.51405 0.9686 0.42571 0.0
C77 C 0.51105 0.98685 0.44289 0.0
C78 C 0.51881 0.95143 0.47484 0.0
C79 C 0.51512 0.96959 0.49108 0.0
N80 N 0.49554 0.03504 0.52269 0.0
C81 C 0.49864 0.07683 0.52817 0.0
C82 C 0.48916 0.07127 0.55857 0.0
C83 C 0.48218 0.0469 0.57033 0.0
C84 C 0.48557 0.0293 0.55223 0.0
C85 C 0.50138 0.05854 0.5107 0.0
H86 H 0.48036 0.01136 0.56296 0.0
H87 H 0.50857 0.06407 0.48765 0.0
H88 H 0.50849 1.00034 0.42932 0.0
H89 H 0.51524 0.96876 0.51631 0.0
C90 C 0.49484 0.97804 0.56404 0.0
C91 C 0.57036 0.05691 0.525 0.0
C92 C 0.43854 0.96323 0.46954 0.0
C93 C 0.51107 0.04464 0.43464 0.0
H94 H 0.58268 0.04302 0.58572 0.0
H95 H 0.54125 1.00005 0.60752 0.0
H96 H 0.44279 0.93092 0.56669 0.0
H97 H 0.41191 0.9231 0.51421 0.0
H98 H 0.42318 0.9806 0.41391 0.0
H99 H 0.46313 0.02614 0.3949 0.0
H100 H 0.5652 0.08635 0.42613 0.0
H101 H 0.59763 0.09309 0.47647 0.0
H102 H 0.51357 0.96881 0.40002 0.0
H103 H 0.52167 0.93771 0.48818 0.0
H104 H 0.50383 0.09524 0.51775 0.0
H105 H 0.47479 0.04167 0.5938 0.0
C106 C 0.54342 0.5282 0.9645 0.0
C107 C 0.55261 0.54484 0.93934 0.0
C108 C 0.53623 0.55474 0.93571 0.0
C109 C 0.51805 0.54357 0.9588 0.0
N110 N 0.5221 0.5274 0.97641 0.0
Co111 Co 0.50065 0.50682 0.01147 0.0
N112 N 0.46908 0.50773 0.9948 0.0
C113 C 0.47112 0.52742 0.9776 0.0
C114 C 0.44826 0.52826 0.97704 0.0
C115 C 0.43085 0.50784 0.99495 0.0
C116 C 0.44344 0.49453 0.00416 0.0
N117 N 0.47949 0.48635 0.04699 0.0
C118 C 0.45274 0.47491 0.05093 0.0
C119 C 0.44807 0.47029 0.08297 0.0
C120 C 0.47214 0.47712 0.09865 0.0
C121 C 0.49057 0.48676 0.07592 0.0
N122 N 0.5325 0.50657 0.02806 0.0
C123 C 0.53789 0.50316 0.05826 0.0
C124 C 0.5614 0.50334 0.06213 0.0
C125 C 0.57124 0.50717 0.0324 0.0
C126 C 0.55312 0.50921 0.01213 0.0
N127 N 0.5133 0.53965 0.03677 0.0
C128 C 0.52985 0.58655 0.07193 0.0
C129 C 0.50304 0.5652 0.07075 0.0
C130 C 0.49525 0.5422 0.05321 0.0
C131 C 0.54849 0.58372 0.05559 0.0
C132 C 0.53978 0.56014 0.03806 0.0
N133 N 0.48821 0.47432 0.98626 0.0
C134 C 0.48678 0.43373 0.9798 0.0
C135 C 0.48003 0.43229 0.94715 0.0
C136 C 0.4759 0.45156 0.93493 0.0
C137 C 0.48011 0.47239 0.95484 0.0
C138 C 0.49045 0.4547 0.99898 0.0
H139 H 0.47805 0.48765 0.94455 0.0
H140 H 0.4963 0.45571 0.02388 0.0
H141 H 0.47439 0.52653 0.05302 0.0
H142 H 0.55439 0.55851 0.02538 0.0
C143 C 0.49448 0.54393 0.96146 0.0
C144 C 0.55616 0.51487 0.97836 0.0
C145 C 0.43266 0.47221 0.02576 0.0
C146 C 0.51802 0.49514 0.08024 0.0
H147 H 0.56942 0.54943 0.92532 0.0
H148 H 0.53686 0.56765 0.91762 0.0
H149 H 0.44496 0.54255 0.96594 0.0
H150 H 0.41192 0.50463 0.00205 0.0
H151 H 0.42969 0.46411 0.09452 0.0
H152 H 0.47585 0.47587 0.12376 0.0
H153 H 0.56976 0.49986 0.08358 0.0
H154 H 0.58951 0.50827 0.02641 0.0
H155 H 0.488 0.56611 0.08356 0.0
H156 H 0.56947 0.59972 0.05585 0.0
H157 H 0.48965 0.41898 0.99036 0.0
H158 H 0.47066 0.45122 0.90986 0.0
C159 C 0.96014 0.44042 0.50202 0.0
C160 C 0.93784 0.41939 0.48525 0.0
C161 C 0.93534 0.42844 0.45657 0.0
C162 C 0.95633 0.4543 0.45731 0.0
N163 N 0.97247 0.46212 0.48444 0.0
Co164 Co 0.00486 0.49831 0.49566 0.0
N165 N 0.99855 0.51289 0.45595 0.0
C166 C 0.97724 0.49995 0.43432 0.0
C167 C 0.97917 0.51443 0.40858 0.0
C168 C 0.00336 0.5378 0.41375 0.0
C169 C 0.01487 0.53634 0.44259 0.0
N170 N 0.038 0.53418 0.50614 0.0
C171 C 0.05075 0.55543 0.48792 0.0
C172 C 0.07433 0.57591 0.50348 0.0
C173 C 0.07715 0.56693 0.53205 0.0
C174 C 0.05517 0.54164 0.53232 0.0
N175 N 0.01047 0.48395 0.53606 0.0
C176 C 0.0304 0.49759 0.55916 0.0
C177 C 0.02734 0.48378 0.58587 0.0
C178 C 0.00366 0.46011 0.57993 0.0
C179 C 0.99366 0.46069 0.54961 0.0
N180 N 0.02785 0.48934 0.47273 0.0
C181 C 0.06556 0.48756 0.43588 0.0
C182 C 0.07099 0.49355 0.46855 0.0
C183 C 0.05189 0.49422 0.48648 0.0
C184 C 0.04016 0.48042 0.42257 0.0
C185 C 0.02166 0.48111 0.44132 0.0
N186 N 0.98194 0.5075 0.51855 0.0
C187 C 0.97527 0.52792 0.56391 0.0
C188 C 0.94745 0.51467 0.55588 0.0
C189 C 0.93761 0.49891 0.52775 0.0
C190 C 0.95509 0.49611 0.50933 0.0
C191 C 0.9919 0.5239 0.54531 0.0
H192 H 0.94617 0.48402 0.48812 0.0
H193 H 0.01266 0.53395 0.55349 0.0
H194 H 0.05737 0.49966 0.51114 0.0
H195 H 0.00285 0.47583 0.42956 0.0
C196 C 0.95878 0.47279 0.43565 0.0
C197 C 0.96726 0.43956 0.5355 0.0
C198 C 0.04222 0.55657 0.45515 0.0
C199 C 0.05049 0.52404 0.55614 0.0
H200 H 0.92403 0.39992 0.49355 0.0
H201 H 0.91916 0.41792 0.43823 0.0
H202 H 0.96559 0.50803 0.38742 0.0
H203 H 0.01202 0.55346 0.39726 0.0
H204 H 0.08846 0.59507 0.49465 0.0
H205 H 0.09368 0.57729 0.55001 0.0
H206 H 0.04013 0.49059 0.60771 0.0
H207 H 0.99443 0.44472 0.5967 0.0
H208 H 0.09027 0.49875 0.48 0.0
H209 H 0.0347 0.47471 0.39755 0.0
H210 H 0.98434 0.54118 0.58471 0.0
H211 H 0.91632 0.48801 0.52018 0.0
C212 C 0.47521 0.99143 0.06345 0.0
C213 C 0.47613 1.00081 0.09402 0.0
C214 C 0.49959 0.02491 0.09818 0.0
C215 C 0.51156 0.02897 0.07 0.0
N216 N 0.49702 0.00907 0.04785 0.0
Co217 Co 0.50729 0.00698 0.00366 0.0
N218 N 0.54261 0.04181 0.01046 0.0
C219 C 0.55196 0.05763 0.03719 0.0
C220 C 0.57629 0.08073 0.03455 0.0
C221 C 0.58283 0.0798 0.00422 0.0
C222 C 0.56207 0.05603 0.99004 0.0
N223 N 0.51758 0.00488 0.95948 0.0
C224 C 0.53936 0.02254 0.94387 0.0
C225 C 0.53837 0.01328 0.91321 0.0
C226 C 0.51493 0.98917 0.90905 0.0
C227 C 0.50304 0.98502 0.93731 0.0
N228 N 0.47196 0.97217 0.99685 0.0
C229 C 0.46262 0.9564 0.97008 0.0
C230 C 0.43845 0.93316 0.97277 0.0
C231 C 0.43199 0.93395 0.00316 0.0
C232 C 0.45261 0.95783 0.01734 0.0
N233 N 0.48985 0.02559 0.9875 0.0
C234 C 0.47257 0.05689 0.95961 0.0
C235 C 0.46638 0.03328 0.94456 0.0
C236 C 0.47485 0.01789 0.95902 0.0
C237 C 0.48563 0.06341 0.98998 0.0
C238 C 0.49407 0.04765 0.00332 0.0
N239 N 0.52478 0.98842 0.0198 0.0
C240 C 0.5297 0.95101 0.01728 0.0
C241 C 0.54349 0.95809 0.04728 0.0
C242 C 0.54933 0.98162 0.06223 0.0
C243 C 0.54016 0.99649 0.048 0.0
C244 C 0.52055 0.96629 0.00414 0.0
H245 H 0.54503 0.01401 0.0608 0.0
H246 H 0.50952 0.95939 0.98169 0.0
H247 H 0.46983 1.00033 0.94618 0.0
H248 H 0.50465 0.05421 0.02603 0.0
C249 C 0.53682 0.05085 0.06391 0.0
C250 C 0.45343 0.96542 0.05068 0.0
C251 C 0.56121 0.04843 0.95675 0.0
C252 C 0.47777 0.96319 0.94338 0.0
H253 H 0.46148 0.99112 0.11165 0.0
H254 H 0.5072 0.03777 0.11938 0.0
H255 H 0.5876 0.09664 0.05232 0.0
H256 H 0.60062 0.09518 0.99357 0.0
H257 H 0.55295 0.02309 0.89553 0.0
H258 H 0.50725 0.97638 0.88778 0.0
H259 H 0.42725 0.9172 0.95503 0.0
H260 H 0.41437 0.91835 0.01382 0.0
H261 H 0.45619 0.02721 0.92105 0.0
H262 H 0.49009 0.08104 0.00311 0.0
H263 H 0.52533 0.93337 0.00426 0.0
H264 H 0.55989 0.98806 0.08553 0.0
C265 C 0.51983 0.56259 0.50842 0.0
C266 C 0.5201 0.58149 0.52792 0.0
C267 C 0.50512 0.56855 0.55285 0.0
C268 C 0.49679 0.54265 0.54722 0.0
N269 N 0.50597 0.53842 0.52052 0.0
Co270 Co 0.49889 0.504 0.50324 0.0
N271 N 0.47332 0.48432 0.53678 0.0
C272 C 0.4645 0.49423 0.55851 0.0
C273 C 0.44783 0.47599 0.57916 0.0
C274 C 0.44644 0.45329 0.57053 0.0
C275 C 0.46239 0.45904 0.54496 0.0
N276 N 0.49298 0.46972 0.4871 0.0
C277 C 0.48084 0.44616 0.50081 0.0
C278 C 0.48303 0.42767 0.48361 0.0
C279 C 0.4979 0.44029 0.4585 0.0
C280 C 0.50388 0.46563 0.46196 0.0
N281 N 0.5233 0.5235 0.46859 0.0
C282 C 0.52969 0.51305 0.44466 0.0
C283 C 0.54463 0.53081 0.42265 0.0
C284 C 0.54735 0.55384 0.43261 0.0
C285 C 0.53403 0.54881 0.46042 0.0
N286 N 0.52981 0.509 0.53133 0.0
C287 C 0.57116 0.51151 0.57158 0.0
C288 C 0.57197 0.51067 0.53861 0.0
C289 C 0.55112 0.50917 0.51905 0.0
C290 C 0.54973 0.51172 0.58411 0.0
C291 C 0.52969 0.51091 0.56376 0.0
N292 N 0.46781 0.49882 0.47521 0.0
C293 C 0.43995 0.48234 0.42578 0.0
C294 C 0.42441 0.49228 0.43492 0.0
C295 C 0.43097 0.50558 0.46456 0.0
C296 C 0.45237 0.50839 0.48428 0.0
C297 C 0.46147 0.48598 0.44595 0.0
H298 H 0.45604 0.51845 0.50673 0.0
H299 H 0.47278 0.47838 0.43714 0.0
H300 H 0.55248 0.50776 0.49409 0.0
H301 H 0.51411 0.51153 0.57488 0.0
C302 C 0.47679 0.52147 0.56317 0.0
C303 C 0.53019 0.56791 0.47698 0.0
C304 C 0.46958 0.4413 0.5317 0.0
C305 C 0.52051 0.48629 0.44292 0.0
H306 H 0.52898 0.60218 0.52359 0.0
H307 H 0.49954 0.57674 0.57167 0.0
H308 H 0.43948 0.47932 0.59964 0.0
H309 H 0.43613 0.43513 0.58289 0.0
H310 H 0.4756 0.4075 0.48948 0.0
H311 H 0.50447 0.43225 0.44063 0.0
H312 H 0.55187 0.52721 0.4013 0.0
H313 H 0.5573 0.57195 0.42012 0.0
H314 H 0.58827 0.51047 0.52795 0.0
H315 H 0.54854 0.51272 0.60957 0.0
H316 H 0.43585 0.47218 0.40283 0.0
H317 H 0.41938 0.5135 0.47274 0.0
C318 C 0.20867 0.47788 0.16045 0.0
C319 C 0.21583 0.49751 0.13882 0.0
C320 C 0.24309 0.51521 0.14413 0.0
C321 C 0.25114 0.50523 0.1682 0.0
N322 N 0.23068 0.48239 0.17828 0.0
Co323 Co 0.23441 0.4598 0.20912 0.0
N324 N 0.26967 0.48987 0.22743 0.0
C325 C 0.28526 0.513 0.21373 0.0
C326 C 0.30833 0.53036 0.23201 0.0
C327 C 0.30746 0.51719 0.25866 0.0
C328 C 0.28396 0.49226 0.25494 0.0
N329 N 0.23854 0.437 0.23954 0.0
C330 C 0.25601 0.44349 0.2654 0.0
C331 C 0.25272 0.42099 0.27876 0.0
C332 C 0.23268 0.39984 0.2605 0.0
C333 C 0.22491 0.41049 0.23698 0.0
N334 N 0.19888 0.43007 0.19082 0.0
C335 C 0.18879 0.40429 0.19476 0.0
C336 C 0.16217 0.38863 0.18389 0.0
C337 C 0.15519 0.40556 0.17221 0.0
C338 C 0.17827 0.4308 0.17564 0.0
N339 N 0.25316 0.45182 0.17813 0.0
C340 C 0.28173 0.44276 0.13397 0.0
C341 C 0.25714 0.44019 0.12468 0.0
C342 C 0.24322 0.44494 0.14711 0.0
C343 C 0.29123 0.44913 0.1659 0.0
C344 C 0.27666 0.4534 0.18751 0.0
N345 N 0.21562 0.46748 0.24015 0.0
C346 C 0.18177 0.45165 0.27827 0.0
C347 C 0.18667 0.47695 0.28335 0.0
C348 C 0.2069 0.49763 0.26673 0.0
C349 C 0.22113 0.49247 0.24521 0.0
C350 C 0.19633 0.44735 0.25669 0.0
H351 H 0.23638 0.50858 0.23241 0.0
H352 H 0.1917 0.42756 0.25324 0.0
H353 H 0.22465 0.44346 0.13925 0.0
H354 H 0.28472 0.45833 0.21181 0.0
C355 C 0.27625 0.5186 0.18539 0.0
C356 C 0.18101 0.45499 0.16293 0.0
C357 C 0.27785 0.47048 0.27575 0.0
C358 C 0.20237 0.39639 0.21537 0.0
H359 H 0.20276 0.499 0.12111 0.0
H360 H 0.25533 0.53358 0.1326 0.0
H361 H 0.32377 0.55033 0.22684 0.0
H362 H 0.32281 0.52483 0.27814 0.0
H363 H 0.26396 0.41994 0.29921 0.0
H364 H 0.22435 0.37918 0.2644 0.0
H365 H 0.14876 0.36765 0.18648 0.0
H366 H 0.13504 0.39964 0.16346 0.0
H367 H 0.24917 0.43537 0.10014 0.0
H368 H 0.31 0.45098 0.17412 0.0
H369 H 0.16676 0.43514 0.29099 0.0
H370 H 0.21131 0.51751 0.26983 0.0
C371 C 0.71854 0.21909 0.68344 0.0
C372 C 0.69772 0.22324 0.67653 0.0
C373 C 0.69788 0.23806 0.70155 0.0
C374 C 0.71875 0.24222 0.72223 0.0
N375 N 0.732 0.23126 0.71156 0.0
Co376 Co 0.76263 0.23183 0.73461 0.0
N377 N 0.76953 0.26123 0.76356 0.0
C378 C 0.75203 0.26849 0.76945 0.0
C379 C 0.76282 0.28972 0.79075 0.0
C380 C 0.78869 0.29612 0.79866 0.0
C381 C 0.79219 0.27838 0.78158 0.0
N382 N 0.79327 0.23255 0.75776 0.0
C383 C 0.81405 0.25228 0.77609 0.0
C384 C 0.83188 0.24518 0.78712 0.0
C385 C 0.82158 0.21992 0.77541 0.0
C386 C 0.79822 0.21313 0.75782 0.0
N387 N 0.75564 0.20215 0.70592 0.0
C388 C 0.76472 0.18601 0.71114 0.0
C389 C 0.75634 0.16694 0.68738 0.0
C390 C 0.7407 0.17109 0.66611 0.0
C391 C 0.74033 0.1925 0.67821 0.0
N392 N 0.78768 0.25734 0.70523 0.0
C393 C 0.82603 0.29585 0.66706 0.0
C394 C 0.8252 0.27244 0.67211 0.0
C395 C 0.8061 0.25359 0.69152 0.0
C396 C 0.80693 0.29935 0.68094 0.0
C397 C 0.78772 0.27974 0.69948 0.0
N398 N 0.73762 0.2065 0.76426 0.0
C399 C 0.69442 0.16783 0.77409 0.0
C400 C 0.70078 0.17172 0.80701 0.0
C401 C 0.72629 0.19327 0.81791 0.0
C402 C 0.74433 0.2103 0.79626 0.0
C403 C 0.71301 0.18531 0.75326 0.0
H404 H 0.76368 0.22675 0.8055 0.0
H405 H 0.70723 0.1818 0.72822 0.0
H406 H 0.80656 0.23619 0.69587 0.0
H407 H 0.77317 0.28295 0.70963 0.0
C408 C 0.72829 0.25856 0.74993 0.0
C409 C 0.72241 0.20065 0.66494 0.0
C410 C 0.81655 0.27729 0.78422 0.0
C411 C 0.78381 0.1915 0.73622 0.0
H412 H 0.68339 0.21565 0.65601 0.0
H413 H 0.68458 0.24521 0.70414 0.0
H414 H 0.75354 0.30014 0.79839 0.0
H415 H 0.8033 0.31203 0.815 0.0
H416 H 0.85048 0.25701 0.80178 0.0
H417 H 0.83082 0.20849 0.77798 0.0
H418 H 0.76141 0.15213 0.6854 0.0
H419 H 0.73016 0.15924 0.64457 0.0
H420 H 0.83968 0.26905 0.66182 0.0
H421 H 0.80678 0.3171 0.67736 0.0
H422 H 0.67493 0.15169 0.7644 0.0
H423 H 0.7324 0.19694 0.84303 0.0
C424 C 0.52416 0.72816 0.21906 0.0
C425 C 0.50106 0.70939 0.20099 0.0
C426 C 0.48013 0.71061 0.21148 0.0
C427 C 0.49161 0.73015 0.235 0.0
N428 N 0.51863 0.74159 0.24014 0.0
Co429 Co 0.5433 0.77181 0.27101 0.0
N430 N 0.51222 0.7725 0.28771 0.0
C431 C 0.48565 0.75513 0.2798 0.0
C432 C 0.46894 0.76077 0.29452 0.0
C433 C 0.48579 0.78316 0.31281 0.0
C434 C 0.51201 0.78991 0.30832 0.0
N435 N 0.5681 0.80311 0.30045 0.0
C436 C 0.56279 0.81823 0.31897 0.0
C437 C 0.58622 0.83899 0.33446 0.0
C438 C 0.60712 0.83731 0.32484 0.0
C439 C 0.59533 0.8157 0.30416 0.0
N440 N 0.57422 0.77019 0.25551 0.0
C441 C 0.60042 0.78528 0.26653 0.0
C442 C 0.61686 0.77865 0.25302 0.0
C443 C 0.60014 0.75785 0.23235 0.0
C444 C 0.57436 0.75309 0.23429 0.0
N445 N 0.54734 0.79651 0.23792 0.0
C446 C 0.55306 0.83323 0.1934 0.0
C447 C 0.57562 0.83358 0.20622 0.0
C448 C 0.57235 0.81524 0.22851 0.0
C449 C 0.52759 0.8139 0.20252 0.0
C450 C 0.52517 0.79572 0.22443 0.0
N451 N 0.53931 0.74695 0.30417 0.0
C452 C 0.55858 0.73501 0.34772 0.0
C453 C 0.53557 0.70963 0.3467 0.0
C454 C 0.514 0.70349 0.32515 0.0
C455 C 0.51611 0.72243 0.3046 0.0
C456 C 0.56009 0.75321 0.32627 0.0
H457 H 0.49881 0.71653 0.28899 0.0
H458 H 0.57851 0.77197 0.32771 0.0
H459 H 0.59035 0.81682 0.23812 0.0
H460 H 0.50517 0.78138 0.23028 0.0
C461 C 0.47732 0.73648 0.25473 0.0
C462 C 0.5506 0.73171 0.21612 0.0
C463 C 0.53604 0.81387 0.32253 0.0
C464 C 0.60911 0.80626 0.28852 0.0
H465 H 0.4994 0.69584 0.18254 0.0
H466 H 0.45898 0.69824 0.2035 0.0
H467 H 0.44717 0.75066 0.29099 0.0
H468 H 0.47939 0.79377 0.32684 0.0
H469 H 0.58805 0.85388 0.35093 0.0
H470 H 0.62838 0.85033 0.33198 0.0
H471 H 0.63845 0.78785 0.25764 0.0
H472 H 0.60623 0.74727 0.2177 0.0
H473 H 0.59574 0.84835 0.19973 0.0
H474 H 0.50954 0.81278 0.19272 0.0
H475 H 0.57572 0.74051 0.36423 0.0
H476 H 0.49561 0.68408 0.32407 0.0
C477 C 0.73763 0.53879 0.73345 0.0
C478 C 0.74466 0.56323 0.72246 0.0
C479 C 0.76747 0.58164 0.74006 0.0
C480 C 0.77328 0.56749 0.76046 0.0
N481 N 0.75563 0.54113 0.7569 0.0
Co482 Co 0.75783 0.51346 0.78049 0.0
N483 N 0.78984 0.54068 0.80842 0.0
C484 C 0.80099 0.56705 0.8089 0.0
C485 C 0.8227 0.58081 0.83056 0.0
C486 C 0.82578 0.56212 0.84459 0.0
C487 C 0.8058 0.53798 0.83043 0.0
N488 N 0.76104 0.48583 0.80286 0.0
C489 C 0.78045 0.48832 0.8243 0.0
C490 C 0.77619 0.46395 0.83159 0.0
C491 C 0.75345 0.44544 0.81401 0.0
C492 C 0.74525 0.45948 0.79691 0.0
N493 N 0.7248 0.4862 0.75391 0.0
C494 C 0.71179 0.45975 0.75612 0.0
C495 C 0.68834 0.44591 0.73716 0.0
C496 C 0.68599 0.46461 0.7221 0.0
C497 C 0.70849 0.48894 0.73244 0.0
N498 N 0.78201 0.51424 0.74858 0.0
C499 C 0.81707 0.51513 0.70428 0.0
C500 C 0.7914 0.49255 0.70726 0.0
C501 C 0.77455 0.49241 0.72961 0.0
C502 C 0.82462 0.53729 0.72385 0.0
C503 C 0.80684 0.53658 0.74516 0.0
N504 N 0.73352 0.51269 0.8122 0.0
C505 C 0.69539 0.48813 0.84446 0.0
C506 C 0.69486 0.51067 0.85116 0.0
C507 C 0.71481 0.53445 0.83928 0.0
C508 C 0.73389 0.53505 0.82024 0.0
C509 C 0.71477 0.48957 0.82512 0.0
H510 H 0.74845 0.5538 0.81185 0.0
H511 H 0.71379 0.4716 0.82043 0.0
H512 H 0.75558 0.47434 0.73108 0.0
H513 H 0.81385 0.55439 0.75876 0.0
C514 C 0.79327 0.5784 0.78543 0.0
C515 C 0.71327 0.51406 0.72149 0.0
C516 C 0.80372 0.51325 0.83751 0.0
C517 C 0.72255 0.44853 0.77559 0.0
H518 H 0.73413 0.5674 0.70401 0.0
H519 H 0.77809 0.60286 0.73875 0.0
H520 H 0.83559 0.60198 0.83457 0.0
H521 H 0.84149 0.56589 0.86246 0.0
H522 H 0.78846 0.45996 0.8476 0.0
H523 H 0.74416 0.42427 0.81351 0.0
H524 H 0.67449 0.42474 0.73474 0.0
H525 H 0.66939 0.46065 0.70559 0.0
H526 H 0.78408 0.47492 0.69237 0.0
H527 H 0.84436 0.55521 0.72323 0.0
H528 H 0.68041 0.46926 0.85326 0.0
H529 H 0.71567 0.55259 0.84453 0.0
C530 C 0.27726 0.81412 0.31925 0.0
C531 C 0.27487 0.83368 0.33349 0.0
C532 C 0.25345 0.83275 0.31785 0.0
C533 C 0.244 0.81274 0.29516 0.0
N534 N 0.25777 0.80049 0.29566 0.0
Co535 Co 0.25153 0.77109 0.26607 0.0
N536 N 0.22062 0.77037 0.24232 0.0
C537 C 0.21109 0.78604 0.24801 0.0
C538 C 0.18824 0.77942 0.22959 0.0
C539 C 0.18241 0.75782 0.21151 0.0
C540 C 0.20227 0.75264 0.21987 0.0
N541 N 0.24567 0.74212 0.23607 0.0
C542 C 0.22545 0.72774 0.21351 0.0
C543 C 0.22851 0.70904 0.19815 0.0
C544 C 0.25108 0.71114 0.21226 0.0
C545 C 0.26054 0.73103 0.23516 0.0
N546 N 0.28199 0.77133 0.29032 0.0
C547 C 0.29111 0.75525 0.28498 0.0
C548 C 0.3126 0.76045 0.30522 0.0
C549 C 0.31771 0.78126 0.32445 0.0
C550 C 0.29895 0.78756 0.31476 0.0
N551 N 0.22536 0.74426 0.29456 0.0
C552 C 0.18516 0.70405 0.33002 0.0
C553 C 0.20372 0.70047 0.31514 0.0
C554 C 0.22376 0.7208 0.29815 0.0
C555 C 0.18744 0.72832 0.32767 0.0
C556 C 0.20736 0.74792 0.30968 0.0
N557 N 0.27764 0.79778 0.23727 0.0
C558 C 0.31623 0.81377 0.20529 0.0
C559 C 0.31469 0.83522 0.19615 0.0
C560 C 0.29439 0.83775 0.20824 0.0
C561 C 0.27614 0.8189 0.2284 0.0
C562 C 0.29788 0.79564 0.22579 0.0
H563 H 0.261 0.82184 0.23649 0.0
H564 H 0.30064 0.78013 0.23209 0.0
H565 H 0.23751 0.7169 0.28778 0.0
H566 H 0.20752 0.76569 0.30792 0.0
C567 C 0.22257 0.80527 0.27272 0.0
C568 C 0.29905 0.81006 0.32816 0.0
C569 C 0.20186 0.72961 0.20774 0.0
C570 C 0.28088 0.73728 0.25884 0.0
H571 H 0.28762 0.8475 0.35281 0.0
H572 H 0.24593 0.84542 0.32216 0.0
H573 H 0.1765 0.78845 0.23029 0.0
H574 H 0.16494 0.74667 0.19497 0.0
H575 H 0.21514 0.69464 0.17961 0.0
H576 H 0.25882 0.69872 0.20753 0.0
H577 H 0.32386 0.7509 0.30521 0.0
H578 H 0.33389 0.79116 0.3429 0.0
H579 H 0.20286 0.68205 0.31676 0.0
H580 H 0.17345 0.73189 0.33896 0.0
H581 H 0.33187 0.81115 0.19703 0.0
H582 H 0.29227 0.85399 0.20176 0.0
C583 C 0.44845 0.27221 0.78496 0.0
C584 C 0.42348 0.26889 0.78901 0.0
C585 C 0.40499 0.24788 0.76962 0.0
C586 C 0.41964 0.23971 0.75467 0.0
N587 N 0.44634 0.25398 0.76361 0.0
Co588 Co 0.47506 0.25033 0.74503 0.0
N589 N 0.44771 0.21881 0.71726 0.0
C590 C 0.42055 0.20695 0.7165 0.0
C591 C 0.40669 0.18439 0.69742 0.0
C592 C 0.42613 0.18136 0.68561 0.0
C593 C 0.45089 0.20254 0.69793 0.0
N594 N 0.50392 0.24772 0.72512 0.0
C595 C 0.50197 0.2298 0.70345 0.0
C596 C 0.52727 0.23612 0.69506 0.0
C597 C 0.54583 0.25842 0.71257 0.0
C598 C 0.53091 0.26461 0.73036 0.0
N599 N 0.50232 0.28063 0.77432 0.0
C600 C 0.52928 0.29102 0.77704 0.0
C601 C 0.54285 0.31107 0.7998 0.0
C602 C 0.52343 0.31376 0.81232 0.0
C603 C 0.49905 0.29531 0.79613 0.0
N604 N 0.47195 0.22582 0.77789 0.0
C605 C 0.46687 0.18816 0.82059 0.0
C606 C 0.49197 0.20669 0.80969 0.0
C607 C 0.49409 0.22536 0.78872 0.0
C608 C 0.4445 0.18934 0.81073 0.0
C609 C 0.44745 0.20816 0.7894 0.0
N610 N 0.47809 0.27492 0.71202 0.0
C611 C 0.50271 0.31808 0.69012 0.0
C612 C 0.48055 0.31162 0.66948 0.0
C613 C 0.45754 0.28633 0.66941 0.0
C614 C 0.45665 0.26845 0.69089 0.0
C615 C 0.50124 0.2994 0.71067 0.0
H616 H 0.43816 0.24974 0.69024 0.0
H617 H 0.51901 0.30547 0.72551 0.0
H618 H 0.51379 0.239 0.78126 0.0
H619 H 0.42954 0.20774 0.78215 0.0
C620 C 0.40878 0.21793 0.73341 0.0
C621 C 0.47361 0.29334 0.80136 0.0
C622 C 0.4768 0.20607 0.69109 0.0
C623 C 0.5415 0.28367 0.75528 0.0
H624 H 0.41907 0.28056 0.8042 0.0
H625 H 0.38343 0.23954 0.76676 0.0
H626 H 0.38502 0.17153 0.69288 0.0
H627 H 0.4224 0.1652 0.66997 0.0
H628 H 0.53186 0.22535 0.67857 0.0
H629 H 0.56762 0.26829 0.71324 0.0
H630 H 0.56441 0.32293 0.80581 0.0
H631 H 0.52692 0.32815 0.83073 0.0
H632 H 0.50993 0.20675 0.81729 0.0
H633 H 0.42468 0.17532 0.81868 0.0
H634 H 0.52105 0.3375 0.69046 0.0
H635 H 0.43996 0.28068 0.65359 0.0
C636 C 0.07797 0.47064 0.04731 0.0
C637 C 0.06151 0.47699 0.06294 0.0
C638 C 0.09763 0.46799 0.0642 0.0
C639 C 0.09831 0.46768 0.09795 0.0
C640 C 0.08003 0.47189 0.11381 0.0
C641 C 0.06336 0.47824 0.09629 0.0
C642 C 0.11768 0.46608 0.04518 0.0
C643 C 0.07738 0.46963 0.14921 0.0
C644 C 0.13807 0.43704 0.12677 0.0
C645 C 0.15775 0.45639 0.14865 0.0
C646 C 0.11722 0.43933 0.11261 0.0
C647 C 0.11821 0.4634 0.1164 0.0
C648 C 0.13909 0.48371 0.13713 0.0
C649 C 0.15727 0.4792 0.1544 0.0
C650 C 0.09463 0.41574 0.09336 0.0
C651 C 0.14341 0.51078 0.14082 0.0
H652 H 0.07623 0.46864 0.0216 0.0
H653 H 0.05105 0.48338 0.10891 0.0
H654 H 0.13617 0.47071 0.0596 0.0
H655 H 0.10782 0.44592 0.0341 0.0
H656 H 0.12392 0.47986 0.02546 0.0
H657 H 0.0557 0.45883 0.15432 0.0
H658 H 0.08651 0.45927 0.16027 0.0
H659 H 0.08699 0.48964 0.16065 0.0
H660 H 0.13907 0.42022 0.11982 0.0
H661 H 0.17248 0.49451 0.171 0.0
H662 H 0.10213 0.41366 0.07062 0.0
H663 H 0.07658 0.41694 0.0884 0.0
H664 H 0.0883 0.39746 0.10618 0.0
H665 H 0.16537 0.52617 0.14256 0.0
H666 H 0.13533 0.5123 0.16339 0.0
H667 H 0.13373 0.51534 0.12087 0.0
C668 C 0.61831 0.08127 0.54729 0.0
C669 C 0.59448 0.08075 0.54033 0.0
C670 C 0.64024 0.10267 0.56482 0.0
C671 C 0.63818 0.12399 0.57525 0.0
C672 C 0.61456 0.12407 0.56672 0.0
C673 C 0.59289 0.10233 0.54936 0.0
C674 C 0.66501 0.10179 0.57362 0.0
C675 C 0.61164 0.14648 0.57724 0.0
C676 C 0.67771 0.15967 0.65236 0.0
C677 C 0.70036 0.18215 0.64153 0.0
C678 C 0.6572 0.14079 0.63096 0.0
C679 C 0.65939 0.14465 0.59795 0.0
C680 C 0.68205 0.16769 0.58694 0.0
C681 C 0.70245 0.18624 0.609 0.0
C682 C 0.63345 0.11645 0.64369 0.0
C683 C 0.68491 0.1725 0.55194 0.0
H684 H 0.61936 0.0645 0.53999 0.0
H685 H 0.57433 0.10174 0.54371 0.0
H686 H 0.68355 0.12039 0.56765 0.0
H687 H 0.6666 0.09987 0.59964 0.0
H688 H 0.66438 0.085 0.56134 0.0
H689 H 0.59327 0.14483 0.56584 0.0
H690 H 0.61035 0.14658 0.60337 0.0
H691 H 0.62963 0.16567 0.5716 0.0
H692 H 0.67638 0.15669 0.67766 0.0
H693 H 0.72014 0.20372 0.60091 0.0
H694 H 0.63251 0.09858 0.63449 0.0
H695 H 0.61429 0.1147 0.63539 0.0
H696 H 0.63468 0.1167 0.67006 0.0
H697 H 0.68637 0.15686 0.53983 0.0
H698 H 0.70306 0.19197 0.54737 0.0
H699 H 0.66673 0.17148 0.54108 0.0
C700 C 0.52033 0.62068 0.08915 0.0
C701 C 0.53767 0.61124 0.09039 0.0
C702 C 0.52527 0.64184 0.10912 0.0
C703 C 0.54834 0.65422 0.13081 0.0
C704 C 0.56671 0.64572 0.13112 0.0
C705 C 0.56115 0.62429 0.11092 0.0
C706 C 0.50517 0.65026 0.10786 0.0
C707 C 0.59166 0.65857 0.15365 0.0
C708 C 0.56556 0.72023 0.16718 0.0
C709 C 0.55279 0.71259 0.19573 0.0
C710 C 0.56547 0.70168 0.14643 0.0
C711 C 0.55203 0.67486 0.15434 0.0
C712 C 0.53989 0.66732 0.18375 0.0
C713 C 0.54049 0.68631 0.20411 0.0
C714 C 0.57883 0.71059 0.1155 0.0
C715 C 0.5252 0.63897 0.19309 0.0
H716 H 0.50244 0.61109 0.07288 0.0
H717 H 0.57461 0.6171 0.11213 0.0
H718 H 0.49573 0.64678 0.1309 0.0
H719 H 0.51558 0.67168 0.10398 0.0
H720 H 0.48889 0.63939 0.0887 0.0
H721 H 0.60526 0.65152 0.1488 0.0
H722 H 0.60308 0.68032 0.15198 0.0
H723 H 0.58568 0.65419 0.17842 0.0
H724 H 0.57499 0.74059 0.16076 0.0
H725 H 0.53064 0.68051 0.22626 0.0
H726 H 0.56317 0.70233 0.09543 0.0
H727 H 0.59225 0.70313 0.11204 0.0
H728 H 0.5909 0.73242 0.11445 0.0
H729 H 0.50716 0.62678 0.17648 0.0
H730 H 0.5185 0.63667 0.21765 0.0
H731 H 0.53841 0.63107 0.19135 0.0
C732 C 0.93435 0.5197 0.61023 0.0
C733 C 0.92879 0.5165 0.5771 0.0
C734 C 0.91663 0.52059 0.63057 0.0
C735 C 0.89218 0.51723 0.6177 0.0
C736 C 0.88632 0.51395 0.58443 0.0
C737 C 0.90488 0.51412 0.56454 0.0
C738 C 0.92397 0.52484 0.6659 0.0
C739 C 0.86015 0.50969 0.56984 0.0
C740 C 0.83562 0.49252 0.67381 0.0
C741 C 0.8359 0.51552 0.68134 0.0
C742 C 0.85331 0.49267 0.65251 0.0
C743 C 0.87251 0.51659 0.63918 0.0
C744 C 0.87316 0.53993 0.64677 0.0
C745 C 0.85456 0.53901 0.66721 0.0
C746 C 0.85153 0.46721 0.64439 0.0
C747 C 0.8938 0.56597 0.63368 0.0
H748 H 0.95232 0.521 0.62054 0.0
H749 H 0.90048 0.51227 0.53907 0.0
H750 H 0.92268 0.54142 0.67535 0.0
H751 H 0.90942 0.50699 0.67824 0.0
H752 H 0.94467 0.52921 0.67188 0.0
H753 H 0.8584 0.50694 0.54356 0.0
H754 H 0.84277 0.49203 0.57961 0.0
H755 H 0.85854 0.52676 0.57604 0.0
H756 H 0.82184 0.47432 0.68489 0.0
H757 H 0.85472 0.55684 0.67201 0.0
H758 H 0.87045 0.46862 0.65306 0.0
H759 H 0.84931 0.46361 0.61824 0.0
H760 H 0.83427 0.44998 0.65501 0.0
H761 H 0.91449 0.57059 0.64026 0.0
H762 H 0.89215 0.58248 0.64263 0.0
H763 H 0.89128 0.56477 0.60737 0.0
C764 C 0.4401 0.9364 0.09736 0.0
C765 C 0.43262 0.9465 0.07195 0.0
C766 C 0.4209 0.91879 0.11783 0.0
C767 C 0.39343 0.91082 0.11255 0.0
C768 C 0.38582 0.92103 0.08684 0.0
C769 C 0.40555 0.93892 0.06704 0.0
C770 C 0.43001 0.90868 0.14509 0.0
C771 C 0.35679 0.91288 0.08009 0.0
C772 C 0.3406 0.84602 0.14704 0.0
C773 C 0.33421 0.85469 0.17427 0.0
C774 C 0.35947 0.86403 0.12657 0.0
C775 C 0.37265 0.89148 0.13362 0.0
C776 C 0.3662 0.90038 0.161 0.0
C777 C 0.34695 0.8819 0.18084 0.0
C778 C 0.36538 0.85365 0.09743 0.0
C779 C 0.37999 0.92942 0.16965 0.0
H780 H 0.46107 0.94236 0.1012 0.0
H781 H 0.39983 0.94692 0.04751 0.0
H782 H 0.42443 0.91331 0.16786 0.0
H783 H 0.41958 0.88691 0.14245 0.0
H784 H 0.45218 0.91735 0.1465 0.0
H785 H 0.35415 0.92248 0.05911 0.0
H786 H 0.3438 0.89118 0.0758 0.0
H787 H 0.3495 0.91802 0.101 0.0
H788 H 0.33062 0.82504 0.14157 0.0
H789 H 0.34234 0.88877 0.20199 0.0
H790 H 0.387 0.86007 0.0987 0.0
H791 H 0.36162 0.8619 0.07584 0.0
H792 H 0.35284 0.83178 0.09476 0.0
H793 H 0.40214 0.9384 0.17327 0.0
H794 H 0.37263 0.93317 0.19158 0.0
H795 H 0.37656 0.93957 0.14992 0.0
C796 C 0.49728 0.42745 0.56151 0.0
C797 C 0.47171 0.4226 0.55219 0.0
C798 C 0.49996 0.40981 0.58032 0.0
C799 C 0.47646 0.38711 0.59041 0.0
C800 C 0.45058 0.38227 0.58114 0.0
C801 C 0.44851 0.39993 0.56165 0.0
C802 C 0.52786 0.41542 0.58925 0.0
C803 C 0.42511 0.35853 0.59194 0.0
C804 C 0.4779 0.32758 0.61606 0.0
C805 C 0.48092 0.33151 0.64912 0.0
C806 C 0.47726 0.346 0.59655 0.0
C807 C 0.47886 0.36834 0.61064 0.0
C808 C 0.48196 0.37236 0.6441 0.0
C809 C 0.4833 0.35399 0.66297 0.0
C810 C 0.47469 0.34148 0.56093 0.0
C811 C 0.48313 0.39564 0.65998 0.0
H812 H 0.51516 0.44505 0.55393 0.0
H813 H 0.42879 0.3961 0.55383 0.0
H814 H 0.53206 0.41856 0.61537 0.0
H815 H 0.52905 0.39824 0.58215 0.0
H816 H 0.5439 0.43314 0.5779 0.0
H817 H 0.40666 0.35821 0.58361 0.0
H818 H 0.42322 0.34017 0.58291 0.0
H819 H 0.42609 0.35839 0.61826 0.0
H820 H 0.47618 0.31014 0.60555 0.0
H821 H 0.48541 0.35675 0.68864 0.0
H822 H 0.49128 0.35905 0.55002 0.0
H823 H 0.45537 0.33863 0.55108 0.0
H824 H 0.4753 0.32396 0.55378 0.0
H825 H 0.50024 0.41433 0.6517 0.0
H826 H 0.48552 0.39583 0.68628 0.0
H827 H 0.46433 0.39517 0.6533 0.0
C828 C 0.54247 0.92772 0.43171 0.0
C829 C 0.52076 0.93071 0.42395 0.0
C830 C 0.5454 0.90906 0.41511 0.0
C831 C 0.52579 0.89252 0.39065 0.0
C832 C 0.50365 0.8953 0.38298 0.0
C833 C 0.5016 0.91458 0.39945 0.0
C834 C 0.56959 0.90714 0.42363 0.0
C835 C 0.48197 0.87772 0.35761 0.0
C836 C 0.54411 0.8592 0.32836 0.0
C837 C 0.53343 0.83402 0.34014 0.0
C838 C 0.54198 0.87849 0.34466 0.0
C839 C 0.52842 0.8723 0.37317 0.0
C840 C 0.51754 0.84681 0.38508 0.0
C841 C 0.52051 0.82811 0.36865 0.0
C842 C 0.55433 0.90553 0.33145 0.0
C843 C 0.50261 0.83923 0.41509 0.0
H844 H 0.55742 0.94031 0.4505 0.0
H845 H 0.48469 0.91673 0.39358 0.0
H846 H 0.56281 0.88716 0.43177 0.0
H847 H 0.5811 0.91015 0.40234 0.0
H848 H 0.58339 0.9219 0.44263 0.0
H849 H 0.46559 0.88178 0.35526 0.0
H850 H 0.49095 0.8805 0.33436 0.0
H851 H 0.47294 0.85672 0.36317 0.0
H852 H 0.55422 0.86376 0.30638 0.0
H853 H 0.51251 0.8087 0.37788 0.0
H854 H 0.56915 0.92072 0.3494 0.0
H855 H 0.53842 0.90986 0.32605 0.0
H856 H 0.56473 0.90737 0.30945 0.0
H857 H 0.51624 0.85214 0.43544 0.0
H858 H 0.49464 0.81838 0.42065 0.0
H859 H 0.48546 0.84215 0.41272 0.0
C860 C 0.60358 0.53128 0.96589 0.0
C861 C 0.57593 0.5125 0.96067 0.0
C862 C 0.62248 0.52975 0.94849 0.0
C863 C 0.61337 0.50902 0.9252 0.0
C864 C 0.58533 0.48985 0.92009 0.0
C865 C 0.56689 0.4919 0.93789 0.0
C866 C 0.65215 0.55055 0.95469 0.0
C867 C 0.57479 0.46744 0.89556 0.0
C868 C 0.66066 0.52258 0.85968 0.0
C869 C 0.67336 0.50941 0.86975 0.0
C870 C 0.64066 0.52207 0.87711 0.0
C871 C 0.63322 0.50815 0.90543 0.0
C872 C 0.64566 0.49446 0.9155 0.0
C873 C 0.66553 0.49519 0.89748 0.0
C874 C 0.62772 0.53671 0.86541 0.0
C875 C 0.63839 0.47955 0.94567 0.0
H876 H 0.61033 0.5473 0.98342 0.0
H877 H 0.54537 0.4775 0.93396 0.0
H878 H 0.66364 0.54113 0.96052 0.0
H879 H 0.6602 0.5617 0.93299 0.0
H880 H 0.65594 0.56471 0.9745 0.0
H881 H 0.55252 0.45363 0.89542 0.0
H882 H 0.57993 0.47542 0.87159 0.0
H883 H 0.58459 0.4562 0.90012 0.0
H884 H 0.66628 0.53322 0.83797 0.0
H885 H 0.67538 0.4851 0.90548 0.0
H886 H 0.63217 0.55257 0.88311 0.0
H887 H 0.60543 0.52313 0.86268 0.0
H888 H 0.635 0.54572 0.84229 0.0
H889 H 0.64361 0.49342 0.96632 0.0
H890 H 0.64909 0.46905 0.94954 0.0
H891 H 0.61629 0.46495 0.94498 0.0
C892 C 0.08583 0.5785 0.42835 0.0
C893 C 0.06202 0.5774 0.43463 0.0
C894 C 0.1057 0.5989 0.41098 0.0
C895 C 0.10147 0.61848 0.39905 0.0
C896 C 0.07716 0.61711 0.40483 0.0
C897 C 0.05796 0.59685 0.42301 0.0
C898 C 0.13147 0.59981 0.406 0.0
C899 C 0.07151 0.63716 0.39199 0.0
C900 C 0.16238 0.68552 0.3803 0.0
C901 C 0.16345 0.68244 0.34757 0.0
C902 C 0.1425 0.6648 0.39737 0.0
C903 C 0.12273 0.64067 0.38115 0.0
C904 C 0.12347 0.63774 0.3479 0.0
C905 C 0.14406 0.65851 0.33161 0.0
C906 C 0.14292 0.66858 0.43287 0.0
C907 C 0.10245 0.6127 0.3295 0.0
H908 H 0.08905 0.56355 0.43757 0.0
H909 H 0.03979 0.5963 0.42836 0.0
H910 H 0.13421 0.5993 0.38026 0.0
H911 H 0.14906 0.61857 0.41656 0.0
H912 H 0.13163 0.58311 0.41681 0.0
H913 H 0.05095 0.63236 0.3968 0.0
H914 H 0.08655 0.65698 0.40288 0.0
H915 H 0.07352 0.63828 0.36596 0.0
H916 H 0.1775 0.70398 0.39264 0.0
H917 H 0.14485 0.65621 0.30624 0.0
H918 H 0.14461 0.65319 0.44504 0.0
H919 H 0.12372 0.66632 0.4393 0.0
H920 H 0.15998 0.68827 0.44203 0.0
H921 H 0.10347 0.59585 0.33806 0.0
H922 H 0.10515 0.61397 0.30357 0.0
H923 H 0.08192 0.60833 0.33349 0.0
C924 C 0.48725 0.10277 0.94542 0.0
C925 C 0.46765 0.07564 0.94267 0.0
C926 C 0.4846 0.12063 0.92708 0.0
C927 C 0.462 0.11113 0.90508 0.0
C928 C 0.44159 0.08395 0.90298 0.0
C929 C 0.44459 0.06652 0.92194 0.0
C930 C 0.50673 0.14953 0.93014 0.0
C931 C 0.41723 0.07313 0.87969 0.0
C932 C 0.45044 0.1623 0.86941 0.0
C933 C 0.4641 0.16741 0.84152 0.0
C934 C 0.44895 0.1435 0.8901 0.0
C935 C 0.46115 0.12938 0.88238 0.0
C936 C 0.47416 0.13388 0.85368 0.0
C937 C 0.47559 0.15296 0.83368 0.0
C938 C 0.43516 0.13938 0.92065 0.0
C939 C 0.48713 0.11899 0.84445 0.0
H940 H 0.50536 0.11003 0.96092 0.0
H941 H 0.42914 0.04566 0.92003 0.0
H942 H 0.51773 0.1554 0.90812 0.0
H943 H 0.49797 0.16177 0.93314 0.0
H944 H 0.52152 0.15406 0.95055 0.0
H945 H 0.40203 0.05198 0.88302 0.0
H946 H 0.40745 0.0845 0.88212 0.0
H947 H 0.42374 0.07521 0.85509 0.0
H948 H 0.44164 0.17358 0.8755 0.0
H949 H 0.48577 0.15663 0.81182 0.0
H950 H 0.45028 0.14586 0.94115 0.0
H951 H 0.41991 0.11814 0.92305 0.0
H952 H 0.42503 0.15053 0.92205 0.0
H953 H 0.50419 0.12395 0.86186 0.0
H954 H 0.49495 0.12367 0.82041 0.0
H955 H 0.47233 0.09744 0.8449 0.0
C956 C 0.38281 0.46426 0.39863 0.0
C957 C 0.4017 0.48892 0.41349 0.0
C958 C 0.36171 0.46092 0.37761 0.0
C959 C 0.35967 0.48285 0.37081 0.0
C960 C 0.37856 0.50776 0.38598 0.0
C961 C 0.39921 0.51045 0.40732 0.0
C962 C 0.34181 0.43395 0.36233 0.0
C963 C 0.37739 0.53174 0.37904 0.0
C964 C 0.32399 0.47976 0.29144 0.0
C965 C 0.29884 0.47411 0.30048 0.0
C966 C 0.34405 0.48307 0.31412 0.0
C967 C 0.3386 0.47998 0.34664 0.0
C968 C 0.31299 0.4738 0.35583 0.0
C969 C 0.29342 0.47103 0.3326 0.0
C970 C 0.37108 0.48984 0.30324 0.0
C971 C 0.3062 0.46988 0.39013 0.0
H972 H 0.38448 0.44751 0.40359 0.0
H973 H 0.4139 0.5296 0.41852 0.0
H974 H 0.32084 0.42812 0.36653 0.0
H975 H 0.34352 0.43444 0.33626 0.0
H976 H 0.34519 0.41863 0.37155 0.0
H977 H 0.39311 0.54953 0.39341 0.0
H978 H 0.38022 0.53592 0.3535 0.0
H979 H 0.35724 0.52797 0.38388 0.0
H980 H 0.32795 0.48164 0.26648 0.0
H981 H 0.2738 0.46631 0.33945 0.0
H982 H 0.37468 0.474 0.30929 0.0
H983 H 0.38754 0.5083 0.31577 0.0
H984 H 0.37239 0.49244 0.27724 0.0
H985 H 0.30814 0.4537 0.39931 0.0
H986 H 0.28538 0.46505 0.39337 0.0
H987 H 0.3207 0.488 0.40477 0.0
C988 C 0.90679 0.39809 0.90132 0.0
C989 C 0.93353 0.40526 0.90845 0.0
C990 C 0.88994 0.37774 0.87883 0.0
C991 C 0.90008 0.36419 0.86311 0.0
C992 C 0.92731 0.37183 0.86949 0.0
C993 C 0.94379 0.39239 0.8921 0.0
C994 C 0.86106 0.37032 0.87249 0.0
C995 C 0.93874 0.35778 0.85314 0.0
C996 C 0.84524 0.29488 0.83479 0.0
C997 C 0.84062 0.29846 0.80297 0.0
C998 C 0.86567 0.31588 0.85423 0.0
C999 C 0.8815 0.34106 0.8415 0.0
C1000 C 0.87746 0.34448 0.80898 0.0
C1001 C 0.85687 0.32306 0.79007 0.0
C1002 C 0.8693 0.31145 0.88878 0.0
C1003 C 0.89388 0.37103 0.79461 0.0
H1004 H 0.899 0.4084 0.91348 0.0
H1005 H 0.96446 0.39791 0.89765 0.0
H1006 H 0.85662 0.37074 0.84671 0.0
H1007 H 0.84702 0.3499 0.87974 0.0
H1008 H 0.85679 0.38373 0.88551 0.0
H1009 H 0.96077 0.3673 0.85908 0.0
H1010 H 0.92825 0.33703 0.86028 0.0
H1011 H 0.93516 0.35732 0.827 0.0
H1012 H 0.83216 0.27586 0.84472 0.0
H1013 H 0.85284 0.32569 0.76548 0.0
H1014 H 0.86295 0.3222 0.90383 0.0
H1015 H 0.89089 0.31934 0.89559 0.0
H1016 H 0.85722 0.29023 0.89412 0.0
H1017 H 0.88829 0.38456 0.80441 0.0
H1018 H 0.89047 0.36967 0.76833 0.0
H1019 H 0.91575 0.37996 0.80088 0.0
C1020 C 0.91165 0.49087 0.93193 0.0
C1021 C 0.9311 0.51335 0.9502 0.0
C1022 C 0.89095 0.49076 0.9134 0.0
C1023 C 0.88962 0.51365 0.91335 0.0
C1024 C 0.90932 0.5364 0.93194 0.0
C1025 C 0.92987 0.53598 0.95011 0.0
C1026 C 0.87051 0.46614 0.89388 0.0
C1027 C 0.90864 0.56116 0.93271 0.0
C1028 C 0.85046 0.52175 0.84421 0.0
C1029 C 0.82579 0.51358 0.85714 0.0
C1030 C 0.8714 0.52188 0.86221 0.0
C1031 C 0.86759 0.51377 0.89395 0.0
C1032 C 0.84268 0.5057 0.90712 0.0
C1033 C 0.82206 0.50569 0.88852 0.0
C1034 C 0.89754 0.53057 0.84719 0.0
C1035 C 0.83779 0.49703 0.94084 0.0
H1036 H 0.91272 0.4734 0.93214 0.0
H1037 H 0.94496 0.55329 0.9644 0.0
H1038 H 0.84989 0.45889 0.90131 0.0
H1039 H 0.87073 0.47067 0.86844 0.0
H1040 H 0.8745 0.4501 0.89628 0.0
H1041 H 0.9254 0.57714 0.94834 0.0
H1042 H 0.90999 0.56839 0.90838 0.0
H1043 H 0.88915 0.5568 0.94126 0.0
H1044 H 0.85324 0.52787 0.8199 0.0
H1045 H 0.80296 0.49947 0.89844 0.0
H1046 H 0.90138 0.51438 0.84734 0.0
H1047 H 0.91467 0.54757 0.8612 0.0
H1048 H 0.89732 0.53634 0.82231 0.0
H1049 H 0.83977 0.4798 0.94383 0.0
H1050 H 0.81744 0.49158 0.94763 0.0
H1051 H 0.85326 0.51308 0.95749 0.0
C1052 C 0.3921 0.9326 0.44457 0.0
C1053 C 0.41859 0.93894 0.45066 0.0
C1054 C 0.37346 0.91032 0.42531 0.0
C1055 C 0.38164 0.89408 0.41206 0.0
C1056 C 0.40832 0.90015 0.41893 0.0
C1057 C 0.42655 0.92264 0.43816 0.0
C1058 C 0.34521 0.90449 0.41857 0.0
C1059 C 0.41786 0.88341 0.40527 0.0
C1060 C 0.32446 0.82604 0.38125 0.0
C1061 C 0.32231 0.83029 0.34903 0.0
C1062 C 0.34447 0.84638 0.40196 0.0
C1063 C 0.36247 0.87144 0.39 0.0
C1064 C 0.36088 0.8754 0.35714 0.0
C1065 C 0.34073 0.85472 0.33702 0.0
C1066 C 0.34571 0.84138 0.43678 0.0
C1067 C 0.37972 0.90178 0.34347 0.0
H1068 H 0.38617 0.94535 0.4545 0.0
H1069 H 0.44719 0.9278 0.44303 0.0
H1070 H 0.34143 0.90542 0.39274 0.0
H1071 H 0.33012 0.88422 0.42541 0.0
H1072 H 0.34185 0.91859 0.43152 0.0
H1073 H 0.4376 0.8884 0.41676 0.0
H1074 H 0.4028 0.86217 0.40801 0.0
H1075 H 0.42017 0.88652 0.37948 0.0
H1076 H 0.30995 0.80708 0.39033 0.0
H1077 H 0.33876 0.85782 0.31202 0.0
H1078 H 0.34035 0.85346 0.45082 0.0
H1079 H 0.36658 0.84741 0.44507 0.0
H1080 H 0.3317 0.82031 0.44183 0.0
H1081 H 0.37614 0.91673 0.35347 0.0
H1082 H 0.3769 0.90111 0.31716 0.0
H1083 H 0.40105 0.90848 0.35015 0.0
C1084 C 0.49889 0.40599 0.92811 0.0
C1085 C 0.47846 0.4115 0.9258 0.0
C1086 C 0.49814 0.38689 0.90773 0.0
C1087 C 0.47627 0.37269 0.88461 0.0
C1088 C 0.45556 0.37815 0.88219 0.0
C1089 C 0.45698 0.39757 0.90267 0.0
C1090 C 0.52086 0.38203 0.91084 0.0
C1091 C 0.43187 0.36344 0.85797 0.0
C1092 C 0.48612 0.33967 0.81345 0.0
C1093 C 0.47364 0.3135 0.82241 0.0
C1094 C 0.48705 0.35911 0.83338 0.0
C1095 C 0.47512 0.35217 0.86294 0.0
C1096 C 0.46232 0.32563 0.87194 0.0
C1097 C 0.46182 0.30664 0.85159 0.0
C1098 C 0.50099 0.38713 0.82289 0.0
C1099 C 0.44932 0.31736 0.90316 0.0
H1100 H 0.51581 0.41703 0.94553 0.0
H1101 H 0.44109 0.40167 0.90085 0.0
H1102 H 0.51272 0.36112 0.91611 0.0
H1103 H 0.53068 0.38567 0.88805 0.0
H1104 H 0.53649 0.39484 0.92987 0.0
H1105 H 0.43915 0.36645 0.8337 0.0
H1106 H 0.42098 0.34197 0.86172 0.0
H1107 H 0.41738 0.3699 0.8592 0.0
H1108 H 0.49528 0.34491 0.79085 0.0
H1109 H 0.45232 0.28639 0.85852 0.0
H1110 H 0.51784 0.40046 0.84042 0.0
H1111 H 0.48661 0.39378 0.82189 0.0
H1112 H 0.5092 0.38928 0.79919 0.0
H1113 H 0.46471 0.32832 0.9231 0.0
H1114 H 0.43972 0.29588 0.90636 0.0
H1115 H 0.43371 0.32234 0.90466 0.0
C1116 C 0.10076 0.47758 0.42381 0.0
C1117 C 0.08622 0.48927 0.41536 0.0
C1118 C 0.11886 0.47754 0.40325 0.0
C1119 C 0.12265 0.48969 0.37372 0.0
C1120 C 0.10887 0.5025 0.36576 0.0
C1121 C 0.09077 0.50205 0.3866 0.0
C1122 C 0.13309 0.46358 0.41256 0.0
C1123 C 0.11255 0.51595 0.33473 0.0
C1124 C 0.18251 0.50305 0.32731 0.0
C1125 C 0.17035 0.48124 0.30562 0.0
C1126 C 0.16727 0.50622 0.34955 0.0
C1127 C 0.13924 0.48713 0.35008 0.0
C1128 C 0.1268 0.46537 0.32786 0.0
C1129 C 0.14245 0.46276 0.30589 0.0
C1130 C 0.18119 0.52976 0.37275 0.0
C1131 C 0.09695 0.44466 0.32744 0.0
H1132 H 0.09726 0.46766 0.44599 0.0
H1133 H 0.07993 0.51156 0.38028 0.0
H1134 H 0.12582 0.44617 0.39615 0.0
H1135 H 0.15517 0.4768 0.41043 0.0
H1136 H 0.12954 0.45682 0.43724 0.0
H1137 H 0.10225 0.527 0.33338 0.0
H1138 H 0.13435 0.52983 0.33145 0.0
H1139 H 0.10422 0.501 0.31469 0.0
H1140 H 0.20408 0.5173 0.3274 0.0
H1141 H 0.13278 0.44613 0.28881 0.0
H1142 H 0.17954 0.52304 0.39739 0.0
H1143 H 0.17113 0.54097 0.37095 0.0
H1144 H 0.20293 0.54325 0.36862 0.0
H1145 H 0.09199 0.43543 0.35078 0.0
H1146 H 0.0904 0.42891 0.30865 0.0
H1147 H 0.08505 0.45392 0.32345 0.0
C1148 C 0.57548 0.07902 0.91166 0.0
C1149 C 0.58222 0.06718 0.93562 0.0
C1150 C 0.59479 0.09619 0.89098 0.0
C1151 C 0.6215 0.10163 0.89434 0.0
C1152 C 0.62836 0.08973 0.9187 0.0
C1153 C 0.60861 0.0726 0.939 0.0
C1154 C 0.58654 0.10837 0.8654 0.0
C1155 C 0.65653 0.09496 0.92318 0.0
C1156 C 0.66448 0.12638 0.82268 0.0
C1157 C 0.68082 0.15367 0.82971 0.0
C1158 C 0.64524 0.10927 0.84349 0.0
C1159 C 0.64217 0.11957 0.87219 0.0
C1160 C 0.65869 0.14705 0.87957 0.0
C1161 C 0.67775 0.16372 0.85831 0.0
C1162 C 0.62813 0.08012 0.8347 0.0
C1163 C 0.65607 0.15891 0.90984 0.0
H1164 H 0.555 0.07471 0.90907 0.0
H1165 H 0.6137 0.06329 0.95748 0.0
H1166 H 0.59959 0.13019 0.86796 0.0
H1167 H 0.58941 0.10243 0.84168 0.0
H1168 H 0.56511 0.10241 0.8662 0.0
H1169 H 0.65871 0.08446 0.94346 0.0
H1170 H 0.66167 0.08864 0.9013 0.0
H1171 H 0.67144 0.11642 0.92734 0.0
H1172 H 0.66688 0.11828 0.80095 0.0
H1173 H 0.68992 0.18477 0.86386 0.0
H1174 H 0.60642 0.07336 0.83328 0.0
H1175 H 0.63114 0.0689 0.85337 0.0
H1176 H 0.63301 0.07517 0.81159 0.0
H1177 H 0.63532 0.15493 0.91027 0.0
H1178 H 0.67074 0.18055 0.91243 0.0
H1179 H 0.6593 0.14959 0.93068 0.0
C1180 C 0.55616 0.61097 0.45067 0.0
C1181 C 0.53148 0.58983 0.45968 0.0
C1182 C 0.55716 0.63107 0.43301 0.0
C1183 C 0.53295 0.63026 0.42511 0.0
C1184 C 0.50809 0.60937 0.43528 0.0
C1185 C 0.50764 0.58926 0.45227 0.0
C1186 C 0.58396 0.65279 0.42212 0.0
C1187 C 0.48194 0.60807 0.42784 0.0
C1188 C 0.53915 0.69368 0.40001 0.0
C1189 C 0.53452 0.6893 0.367 0.0
C1190 C 0.53833 0.67445 0.41935 0.0
C1191 C 0.53346 0.65069 0.40515 0.0
C1192 C 0.52906 0.64636 0.37174 0.0
C1193 C 0.52934 0.66564 0.35308 0.0
C1194 C 0.5425 0.67946 0.45494 0.0
C1195 C 0.52435 0.62151 0.35568 0.0
H1196 H 0.57458 0.61146 0.45697 0.0
H1197 H 0.48861 0.57288 0.45956 0.0
H1198 H 0.58302 0.6527 0.39578 0.0
H1199 H 0.58837 0.67227 0.43086 0.0
H1200 H 0.60091 0.65065 0.43053 0.0
H1201 H 0.46465 0.59131 0.43907 0.0
H1202 H 0.48399 0.62668 0.43617 0.0
H1203 H 0.47723 0.60589 0.40178 0.0
H1204 H 0.54304 0.712 0.41066 0.0
H1205 H 0.52605 0.66248 0.32747 0.0
H1206 H 0.56044 0.67921 0.464 0.0
H1207 H 0.52479 0.66351 0.46647 0.0
H1208 H 0.5454 0.69868 0.46225 0.0
H1209 H 0.54157 0.61925 0.36206 0.0
H1210 H 0.52195 0.62152 0.32939 0.0
H1211 H 0.50593 0.60404 0.36408 0.0
C1212 C 0.50802 0.11753 0.58004 0.0
C1213 C 0.48694 0.09086 0.578 0.0
C1214 C 0.50641 0.13622 0.59853 0.0
C1215 C 0.48302 0.12818 0.61518 0.0
C1216 C 0.46162 0.1013 0.6131 0.0
C1217 C 0.4639 0.08297 0.59472 0.0
C1218 C 0.52985 0.16457 0.6004 0.0
C1219 C 0.43622 0.09193 0.63018 0.0
C1220 C 0.48819 0.17153 0.68547 0.0
C1221 C 0.47778 0.18567 0.67169 0.0
C1222 C 0.49 0.15278 0.66741 0.0
C1223 C 0.48099 0.14789 0.63479 0.0
C1224 C 0.47028 0.16207 0.62086 0.0
C1225 C 0.469 0.18093 0.63943 0.0
C1226 C 0.50178 0.13835 0.68317 0.0
C1227 C 0.46026 0.15737 0.5863 0.0
H1228 H 0.52604 0.12372 0.56755 0.0
H1229 H 0.44743 0.06246 0.59305 0.0
H1230 H 0.52303 0.1775 0.59145 0.0
H1231 H 0.53758 0.171 0.6255 0.0
H1232 H 0.54675 0.16758 0.58641 0.0
H1233 H 0.42131 0.07045 0.62594 0.0
H1234 H 0.4413 0.09619 0.65611 0.0
H1235 H 0.4266 0.10275 0.62226 0.0
H1236 H 0.49507 0.17532 0.71042 0.0
H1237 H 0.46118 0.19206 0.62876 0.0
H1238 H 0.51974 0.14212 0.67093 0.0
H1239 H 0.4868 0.11678 0.68114 0.0
H1240 H 0.50789 0.14443 0.7087 0.0
H1241 H 0.47705 0.1621 0.57114 0.0
H1242 H 0.45184 0.16948 0.57929 0.0
H1243 H 0.44436 0.13626 0.58139 0.0
C1244 C 0.38283 0.45364 0.00859 0.0
C1245 C 0.40247 0.4524 0.02769 0.0
C1246 C 0.35745 0.44519 0.01997 0.0
C1247 C 0.35095 0.43291 0.04935 0.0
C1248 C 0.36726 0.42423 0.0628 0.0
C1249 C 0.39259 0.43332 0.05088 0.0
C1250 C 0.33927 0.45233 0.00269 0.0
C1251 C 0.35962 0.40828 0.09208 0.0
C1252 C 0.32584 0.46017 0.11025 0.0
C1253 C 0.29844 0.44033 0.1106 0.0
C1254 C 0.34273 0.45802 0.08989 0.0
C1255 C 0.33207 0.43527 0.06937 0.0
C1256 C 0.3042 0.41534 0.06905 0.0
C1257 C 0.28766 0.41818 0.08966 0.0
C1258 C 0.37221 0.48002 0.09081 0.0
C1259 C 0.29184 0.39052 0.04816 0.0
H1260 H 0.38759 0.46275 0.98597 0.0
H1261 H 0.4053 0.42712 0.06171 0.0
H1262 H 0.31773 0.43625 0.00345 0.0
H1263 H 0.34193 0.47022 0.0146 0.0
H1264 H 0.34415 0.4566 0.97753 0.0
H1265 H 0.37132 0.39875 0.09581 0.0
H1266 H 0.36382 0.42147 0.11316 0.0
H1267 H 0.33771 0.39287 0.09041 0.0
H1268 H 0.33412 0.47748 0.12613 0.0
H1269 H 0.26648 0.4027 0.09005 0.0
H1270 H 0.37772 0.48758 0.06671 0.0
H1271 H 0.38508 0.47243 0.09854 0.0
H1272 H 0.37701 0.49676 0.10728 0.0
H1273 H 0.30293 0.39346 0.02652 0.0
H1274 H 0.27037 0.38305 0.04092 0.0
H1275 H 0.29226 0.37506 0.06182 0.0
C1276 C 0.92198 0.41603 0.55889 0.0
C1277 C 0.9468 0.4184 0.55529 0.0
C1278 C 0.90213 0.39595 0.57668 0.0
C1279 C 0.90738 0.37806 0.59185 0.0
C1280 C 0.93253 0.38048 0.58836 0.0
C1281 C 0.9517 0.40029 0.56966 0.0
C1282 C 0.87543 0.39379 0.57902 0.0
C1283 C 0.93927 0.36225 0.60459 0.0
C1284 C 0.8653 0.342 0.66156 0.0
C1285 C 0.84694 0.31674 0.64786 0.0
C1286 C 0.88534 0.36196 0.6438 0.0
C1287 C 0.88657 0.3568 0.61126 0.0
C1288 C 0.8678 0.33133 0.59727 0.0
C1289 C 0.84849 0.31152 0.61585 0.0
C1290 C 0.90531 0.38852 0.65996 0.0
C1291 C 0.86786 0.32512 0.56253 0.0
H1292 H 0.91807 0.42989 0.54757 0.0
H1293 H 0.97064 0.40174 0.56638 0.0
H1294 H 0.85861 0.37383 0.57042 0.0
H1295 H 0.8724 0.39644 0.60417 0.0
H1296 H 0.87416 0.40867 0.56498 0.0
H1297 H 0.96009 0.3674 0.60061 0.0
H1298 H 0.9373 0.36303 0.63053 0.0
H1299 H 0.92479 0.34162 0.59569 0.0
H1300 H 0.86423 0.34599 0.68638 0.0
H1301 H 0.83418 0.29203 0.60521 0.0
H1302 H 0.90331 0.404 0.6486 0.0
H1303 H 0.92626 0.39359 0.65718 0.0
H1304 H 0.90237 0.38904 0.68569 0.0
H1305 H 0.86534 0.33895 0.54782 0.0
H1306 H 0.8515 0.30461 0.55505 0.0
H1307 H 0.88755 0.32785 0.5575 0.0
C1308 C 0.57291 0.95012 0.08464 0.0
C1309 C 0.54957 0.94007 0.06413 0.0
C1310 C 0.57667 0.93352 0.10431 0.0
C1311 C 0.55681 0.90619 0.10307 0.0
C1312 C 0.53416 0.89568 0.08091 0.0
C1313 C 0.5307 0.91275 0.06192 0.0
C1314 C 0.60104 0.94544 0.12774 0.0
C1315 C 0.51269 0.86657 0.07861 0.0
C1316 C 0.56992 0.85764 0.14373 0.0
C1317 C 0.55585 0.8532 0.17116 0.0
C1318 C 0.57096 0.87531 0.12148 0.0
C1319 C 0.55796 0.88901 0.12722 0.0
C1320 C 0.54459 0.88525 0.15552 0.0
C1321 C 0.54353 0.86723 0.17704 0.0
C1322 C 0.58507 0.87858 0.09137 0.0
C1323 C 0.53082 0.8998 0.16273 0.0
H1324 H 0.5879 0.97111 0.08603 0.0
H1325 H 0.51242 0.90474 0.04651 0.0
H1326 H 0.59447 0.94432 0.15219 0.0
H1327 H 0.61107 0.93421 0.12676 0.0
H1328 H 0.61605 0.96642 0.12332 0.0
H1329 H 0.49824 0.86114 0.05757 0.0
H1330 H 0.52207 0.85476 0.07725 0.0
H1331 H 0.50118 0.86107 0.10025 0.0
H1332 H 0.57932 0.84664 0.13922 0.0
H1333 H 0.53295 0.86398 0.1985 0.0
H1334 H 0.59984 0.89976 0.08786 0.0
H1335 H 0.57002 0.8709 0.07068 0.0
H1336 H 0.59582 0.86797 0.09156 0.0
H1337 H 0.54518 0.92135 0.16124 0.0
H1338 H 0.52282 0.89587 0.1867 0.0
H1339 H 0.51377 0.89378 0.14484 0.0
C1340 C 0.58525 0.49259 0.61523 0.0
C1341 C 0.59236 0.51196 0.59288 0.0
C1342 C 0.60505 0.49272 0.63562 0.0
C1343 C 0.63259 0.51315 0.63423 0.0
C1344 C 0.63981 0.53289 0.6118 0.0
C1345 C 0.61964 0.53184 0.5911 0.0
C1346 C 0.5965 0.47091 0.65854 0.0
C1347 C 0.66879 0.55532 0.60997 0.0
C1348 C 0.67936 0.52643 0.70786 0.0
C1349 C 0.69311 0.51446 0.69871 0.0
C1350 C 0.66 0.52658 0.68693 0.0
C1351 C 0.65379 0.51393 0.65634 0.0
C1352 C 0.6677 0.50183 0.64702 0.0
C1353 C 0.68746 0.50259 0.66815 0.0
C1354 C 0.64613 0.54021 0.6976 0.0
C1355 C 0.66141 0.48773 0.61492 0.0
H1356 H 0.56415 0.47711 0.61644 0.0
H1357 H 0.6251 0.54691 0.57394 0.0
H1358 H 0.60752 0.46089 0.65477 0.0
H1359 H 0.60181 0.47929 0.68331 0.0
H1360 H 0.57443 0.45598 0.65585 0.0
H1361 H 0.671 0.56934 0.59161 0.0
H1362 H 0.67669 0.56628 0.63332 0.0
H1363 H 0.68158 0.5475 0.60444 0.0
H1364 H 0.68377 0.53564 0.73149 0.0
H1365 H 0.69826 0.4935 0.66102 0.0
H1366 H 0.62411 0.52568 0.69821 0.0
H1367 H 0.64878 0.55514 0.68041 0.0
H1368 H 0.65411 0.55014 0.72154 0.0
H1369 H 0.63969 0.47179 0.61213 0.0
H1370 H 0.6737 0.47895 0.6115 0.0
H1371 H 0.66521 0.50162 0.59582 0.0
C1372 C 0.09763 0.60363 0.10167 0.0
C1373 C 0.07048 0.59574 0.10218 0.0
C1374 C 0.11769 0.62491 0.12107 0.0
C1375 C 0.11042 0.63894 0.14099 0.0
C1376 C 0.0829 0.63073 0.14203 0.0
C1377 C 0.06312 0.60895 0.12274 0.0
C1378 C 0.14673 0.63271 0.11973 0.0
C1379 C 0.07451 0.64545 0.16268 0.0
C1380 C 0.16316 0.6829 0.20635 0.0
C1381 C 0.17692 0.70705 0.19167 0.0
C1382 C 0.14076 0.66067 0.1906 0.0
C1383 C 0.13196 0.66284 0.15956 0.0
C1384 C 0.14536 0.68749 0.14512 0.0
C1385 C 0.16795 0.70928 0.16125 0.0
C1386 C 0.12731 0.63466 0.2066 0.0
C1387 C 0.13641 0.69065 0.1122 0.0
H1388 H 0.10315 0.59315 0.08587 0.0
H1389 H 0.04206 0.60277 0.12292 0.0
H1390 H 0.15886 0.65264 0.11021 0.0
H1391 H 0.15558 0.63367 0.14397 0.0
H1392 H 0.14871 0.6187 0.10451 0.0
H1393 H 0.0522 0.63585 0.16185 0.0
H1394 H 0.08214 0.64686 0.18768 0.0
H1395 H 0.08361 0.66589 0.15475 0.0
H1396 H 0.17037 0.68135 0.2299 0.0
H1397 H 0.17893 0.72798 0.14992 0.0
H1398 H 0.13097 0.6208 0.19366 0.0
H1399 H 0.10512 0.62561 0.20582 0.0
H1400 H 0.13505 0.63684 0.23176 0.0
H1401 H 0.14019 0.67936 0.09455 0.0
H1402 H 0.14726 0.71161 0.10568 0.0
H1403 H 0.11437 0.68256 0.11049 0.0
loop_
_geom_bond_atom_site_label_1
_geom_bond_atom_site_label_2
_geom_bond_distance
_geom_bond_site_symmetry_2
_ccdc_geom_bond_type
C0 C1 1.443 . S
C0 N4 1.376 1_556 S
C0 C38 1.389 . S
C1 C0 1.443 . S
C1 C2 1.340 1_556 S
C1 H41 0.951 . S
C2 C1 1.340 1_554 S
C2 C3 1.439 . S
C2 H42 0.950 . S
C3 C2 1.439 . S
C3 N4 1.374 . S
C3 C37 1.395 . S
N4 C0 1.376 1_554 S
N4 C3 1.374 . S
N4 Co5 1.975 1_655 S
Co5 N4 1.975 1_455 S
Co5 N6 2.018 1_455 S
Co5 N11 2.042 1_554 S
Co5 N16 1.972 1_554 S
Co5 N21 2.297 . S
Co5 N27 2.269 1_454 S
N6 Co5 2.018 1_655 S
N6 C7 1.376 . S
N6 C10 1.383 1_655 S
C7 N6 1.376 . S
C7 C8 1.446 . S
C7 C37 1.391 . S
C8 C7 1.446 . S
C8 C9 1.339 1_655 S
C8 H43 0.949 . S
C9 C8 1.339 1_455 S
C9 C10 1.439 . S
C9 H44 0.950 . S
C10 N6 1.383 1_455 S
C10 C9 1.439 . S
C10 C39 1.392 . S
N11 Co5 2.042 1_556 S
N11 C12 1.376 1_556 S
N11 C15 1.374 . S
C12 N11 1.376 1_554 S
C12 C13 1.443 . S
C12 C39 1.389 . S
C13 C12 1.443 . S
C13 C14 1.340 1_554 S
C13 H45 0.951 . S
C14 C13 1.340 1_556 S
C14 C15 1.439 . S
C14 H46 0.950 . S
C15 N11 1.374 . S
C15 C14 1.439 . S
C15 C40 1.395 . S
N16 Co5 1.972 1_556 S
N16 C17 1.376 . S
N16 C20 1.383 1_455 S
C17 N16 1.376 . S
C17 C18 1.446 . S
C17 C40 1.391 . S
C18 C17 1.446 . S
C18 C19 1.339 1_455 S
C18 H47 0.949 . S
C19 C18 1.339 1_655 S
C19 C20 1.439 . S
C19 H48 0.950 . S
C20 N16 1.383 1_655 S
C20 C19 1.439 . S
C20 C38 1.392 . S
N21 Co5 2.297 . S
N21 C24 1.332 . S
N21 C26 1.332 . S
C22 C23 1.386 . S
C22 C25 1.388 . S
C23 C22 1.386 . S
C23 C24 1.382 . S
C23 H49 0.950 . S
C24 N21 1.332 . S
C24 C23 1.382 . S
C24 H35 0.954 1_554 S
C25 C22 1.388 . S
C25 C26 1.382 . S
C25 H50 0.950 . S
C26 N21 1.332 . S
C26 C25 1.382 . S
C26 H36 0.948 . S
N27 Co5 2.269 1_656 S
N27 C31 1.332 . S
N27 C32 1.332 . S
C28 C29 1.388 . S
C28 C32 1.382 . S
C28 H51 0.950 . S
C29 C28 1.388 . S
C29 C30 1.386 . S
C30 C29 1.386 . S
C30 C31 1.382 . S
C30 H52 0.950 . S
C31 N27 1.332 . S
C31 C30 1.382 . S
C31 H33 0.952 1_556 S
C32 N27 1.332 . S
C32 C28 1.382 . S
C32 H34 0.948 . S
H33 C31 0.952 1_554 S
H34 C32 0.948 . S
H35 C24 0.954 1_556 S
H36 C26 0.948 . S
C37 C3 1.395 . S
C37 C7 1.391 . S
C38 C0 1.389 . S
C38 C20 1.392 . S
C39 C10 1.392 . S
C39 C12 1.389 . S
C40 C15 1.395 . S
C40 C17 1.391 . S
H41 C1 0.951 . S
H42 C2 0.950 . S
H43 C8 0.949 . S
H44 C9 0.950 . S
H45 C13 0.951 . S
H46 C14 0.950 . S
H47 C18 0.949 . S
H48 C19 0.950 . S
H49 C23 0.950 . S
H50 C25 0.950 . S
H51 C28 0.950 . S
H52 C30 0.950 . S
C53 C54 1.443 . S
C53 N57 1.364 1_545 S
C53 C91 1.389 . S
C54 C53 1.443 . S
C54 C55 1.340 1_545 S
C54 H94 0.951 . S
C55 C54 1.340 1_565 S
C55 C56 1.439 . S
C55 H95 0.950 . S
C56 C55 1.439 . S
C56 N57 1.393 . S
C56 C90 1.395 . S
N57 C53 1.364 1_565 S
N57 C56 1.393 . S
N57 Co58 1.989 1_565 S
Co58 N57 1.989 1_545 S
Co58 N59 1.976 1_545 S
Co58 N64 2.019 . S
Co58 N69 2.014 . S
Co58 N74 2.249 1_545 S
Co58 N80 2.316 . S
N59 Co58 1.976 1_565 S
N59 C60 1.376 . S
N59 C63 1.383 . S
C60 N59 1.376 . S
C60 C61 1.446 . S
C60 C90 1.391 . S
C61 C60 1.446 . S
C61 C62 1.339 . S
C61 H96 0.949 . S
C62 C61 1.339 . S
C62 C63 1.439 . S
C62 H97 0.950 . S
C63 N59 1.383 . S
C63 C62 1.439 . S
C63 C92 1.392 . S
N64 Co58 2.019 . S
N64 C65 1.376 1_545 S
N64 C68 1.374 . S
C65 N64 1.376 1_565 S
C65 C66 1.443 . S
C65 C92 1.389 . S
C66 C65 1.443 . S
C66 C67 1.340 1_565 S
C66 H98 0.951 . S
C67 C66 1.340 1_545 S
C67 C68 1.439 . S
C67 H99 0.950 . S
C68 N64 1.374 . S
C68 C67 1.439 . S
C68 C93 1.395 . S
N69 Co58 2.014 . S
N69 C70 1.376 . S
N69 C73 1.383 . S
C70 N69 1.376 . S
C70 C71 1.446 . S
C70 C93 1.391 . S
C71 C70 1.446 . S
C71 C72 1.339 . S
C71 H100 0.949 . S
C72 C71 1.339 . S
C72 C73 1.439 . S
C72 H101 0.950 . S
C73 N69 1.383 . S
C73 C72 1.439 . S
C73 C91 1.392 . S
N74 Co58 2.249 1_565 S
N74 C77 1.332 . S
N74 C79 1.332 . S
C75 C76 1.386 . S
C75 C78 1.388 . S
C76 C75 1.386 . S
C76 C77 1.382 . S
C76 H102 0.950 . S
C77 N74 1.332 . S
C77 C76 1.382 . S
C77 H88 0.952 1_565 S
C78 C75 1.388 . S
C78 C79 1.382 . S
C78 H103 0.950 . S
C79 N74 1.332 . S
C79 C78 1.382 . S
C79 H89 0.948 . S
N80 Co58 2.316 . S
N80 C84 1.332 . S
N80 C85 1.332 . S
C81 C82 1.388 . S
C81 C85 1.382 . S
C81 H104 0.950 . S
C82 C81 1.388 . S
C82 C83 1.386 . S
C83 C82 1.386 . S
C83 C84 1.382 . S
C83 H105 0.950 . S
C84 N80 1.332 . S
C84 C83 1.382 . S
C84 H86 0.952 1_545 S
C85 N80 1.332 . S
C85 C81 1.382 . S
C85 H87 0.948 . S
H86 C84 0.952 1_565 S
H87 C85 0.948 . S
H88 C77 0.952 1_545 S
H89 C79 0.948 . S
C90 C56 1.395 . S
C90 C60 1.391 . S
C91 C53 1.389 . S
C91 C73 1.392 . S
C92 C63 1.392 . S
C92 C65 1.389 . S
C93 C68 1.395 . S
C93 C70 1.391 . S
H94 C54 0.951 . S
H95 C55 0.950 . S
H96 C61 0.949 . S
H97 C62 0.950 . S
H98 C66 0.951 . S
H99 C67 0.950 . S
H100 C71 0.949 . S
H101 C72 0.950 . S
H102 C76 0.950 . S
H103 C78 0.950 . S
H104 C81 0.950 . S
H105 C83 0.950 . S
C106 C107 1.443 . S
C106 N110 1.376 . S
C106 C144 1.389 . S
C107 C106 1.443 . S
C107 C108 1.340 . S
C107 H147 0.951 . S
C108 C107 1.340 . S
C108 C109 1.439 . S
C108 H148 0.950 . S
C109 C108 1.439 . S
C109 N110 1.374 . S
C109 C143 1.395 . S
N110 C106 1.376 . S
N110 C109 1.374 . S
N110 Co111 1.990 1_556 S
Co111 N110 1.990 1_554 S
Co111 N112 1.991 1_554 S
Co111 N117 2.026 . S
Co111 N122 1.998 . S
Co111 N127 2.292 . S
Co111 N133 2.273 1_554 S
N112 Co111 1.991 1_556 S
N112 C113 1.376 . S
N112 C116 1.383 1_556 S
C113 N112 1.376 . S
C113 C114 1.446 . S
C113 C143 1.391 . S
C114 C113 1.446 . S
C114 C115 1.339 . S
C114 H149 0.949 . S
C115 C114 1.339 . S
C115 C116 1.439 1_556 S
C115 H150 0.950 1_556 S
C116 N112 1.383 1_554 S
C116 C115 1.439 1_554 S
C116 C145 1.392 . S
N117 Co111 2.026 . S
N117 C118 1.376 . S
N117 C121 1.374 . S
C118 N117 1.376 . S
C118 C119 1.443 . S
C118 C145 1.389 . S
C119 C118 1.443 . S
C119 C120 1.340 . S
C119 H151 0.951 . S
C120 C119 1.340 . S
C120 C121 1.439 . S
C120 H152 0.950 . S
C121 N117 1.374 . S
C121 C120 1.439 . S
C121 C146 1.395 . S
N122 Co111 1.998 . S
N122 C123 1.376 . S
N122 C126 1.383 1_554 S
C123 N122 1.376 . S
C123 C124 1.446 . S
C123 C146 1.391 . S
C124 C123 1.446 . S
C124 C125 1.339 . S
C124 H153 0.949 . S
C125 C124 1.339 . S
C125 C126 1.439 1_554 S
C125 H154 0.950 1_554 S
C126 N122 1.383 1_556 S
C126 C125 1.439 1_556 S
C126 C144 1.392 . S
N127 Co111 2.292 . S
N127 C130 1.332 . S
N127 C132 1.332 . S
C128 C129 1.386 . S
C128 C131 1.388 . S
C129 C128 1.386 . S
C129 C130 1.382 . S
C129 H155 0.950 . S
C130 N127 1.332 . S
C130 C129 1.382 . S
C130 H141 0.952 . S
C131 C128 1.388 . S
C131 C132 1.382 . S
C131 H156 0.950 . S
C132 N127 1.332 . S
C132 C131 1.382 . S
C132 H142 0.948 . S
N133 Co111 2.273 1_556 S
N133 C137 1.332 . S
N133 C138 1.332 . S
C134 C135 1.388 . S
C134 C138 1.382 . S
C134 H157 0.950 . S
C135 C134 1.388 . S
C135 C136 1.386 . S
C136 C135 1.386 . S
C136 C137 1.382 . S
C136 H158 0.950 . S
C137 N133 1.332 . S
C137 C136 1.382 . S
C137 H139 0.952 . S
C138 N133 1.332 . S
C138 C134 1.382 . S
C138 H140 0.948 . S
H139 C137 0.952 . S
H140 C138 0.948 . S
H141 C130 0.952 . S
H142 C132 0.948 . S
C143 C109 1.395 . S
C143 C113 1.391 . S
C144 C106 1.389 . S
C144 C126 1.392 . S
C145 C116 1.392 . S
C145 C118 1.389 . S
C146 C121 1.395 . S
C146 C123 1.391 . S
H147 C107 0.951 . S
H148 C108 0.950 . S
H149 C114 0.949 . S
H150 C115 0.950 1_554 S
H151 C119 0.951 . S
H152 C120 0.950 . S
H153 C124 0.949 . S
H154 C125 0.950 1_556 S
H155 C129 0.950 . S
H156 C131 0.950 . S
H157 C134 0.950 . S
H158 C136 0.950 . S
C159 C160 1.443 . S
C159 N163 1.376 . S
C159 C197 1.389 . S
C160 C159 1.443 . S
C160 C161 1.340 . S
C160 H200 0.951 . S
C161 C160 1.340 . S
C161 C162 1.439 . S
C161 H201 0.950 . S
C162 C161 1.439 . S
C162 N163 1.374 . S
C162 C196 1.395 . S
N163 C159 1.376 . S
N163 C162 1.374 . S
N163 Co164 1.986 1_655 S
Co164 N163 1.986 1_455 S
Co164 N165 1.980 1_455 S
Co164 N170 2.031 . S
Co164 N175 2.010 . S
Co164 N180 2.311 . S
Co164 N186 2.254 1_455 S
N165 Co164 1.980 1_655 S
N165 C166 1.376 . S
N165 C169 1.383 1_655 S
C166 N165 1.376 . S
C166 C167 1.446 . S
C166 C196 1.391 . S
C167 C166 1.446 . S
C167 C168 1.339 1_655 S
C167 H202 0.949 . S
C168 C167 1.339 1_455 S
C168 C169 1.439 . S
C168 H203 0.950 . S
C169 N165 1.383 1_455 S
C169 C168 1.439 . S
C169 C198 1.392 . S
N170 Co164 2.031 . S
N170 C171 1.376 . S
N170 C174 1.374 . S
C171 N170 1.376 . S
C171 C172 1.443 . S
C171 C198 1.389 . S
C172 C171 1.443 . S
C172 C173 1.340 . S
C172 H204 0.951 . S
C173 C172 1.340 . S
C173 C174 1.439 . S
C173 H205 0.950 . S
C174 N170 1.374 . S
C174 C173 1.439 . S
C174 C199 1.395 . S
N175 Co164 2.010 . S
N175 C176 1.376 . S
N175 C179 1.383 1_455 S
C176 N175 1.376 . S
C176 C177 1.446 . S
C176 C199 1.391 . S
C177 C176 1.446 . S
C177 C178 1.328 1_455 S
C177 H206 0.949 . S
C178 C177 1.328 1_655 S
C178 C179 1.447 . S
C178 H207 0.952 . S
C179 N175 1.383 1_655 S
C179 C178 1.447 . S
C179 C197 1.392 . S
N180 Co164 2.311 . S
N180 C183 1.332 . S
N180 C185 1.332 . S
C181 C182 1.386 . S
C181 C184 1.388 . S
C182 C181 1.386 . S
C182 C183 1.382 . S
C182 H208 0.950 . S
C183 N180 1.332 . S
C183 C182 1.382 . S
C183 H194 0.952 . S
C184 C181 1.388 . S
C184 C185 1.382 . S
C184 H209 0.950 . S
C185 N180 1.332 . S
C185 C184 1.382 . S
C185 H195 0.946 1_455 S
N186 Co164 2.254 1_655 S
N186 C190 1.332 . S
N186 C191 1.332 . S
C187 C188 1.388 . S
C187 C191 1.382 . S
C187 H210 0.950 . S
C188 C187 1.388 . S
C188 C189 1.386 . S
C189 C188 1.386 . S
C189 C190 1.382 . S
C189 H211 0.950 . S
C190 N186 1.332 . S
C190 C189 1.382 . S
C190 H192 0.952 . S
C191 N186 1.332 . S
C191 C187 1.382 . S
C191 H193 0.948 1_655 S
H192 C190 0.952 . S
H193 C191 0.948 1_455 S
H194 C183 0.952 . S
H195 C185 0.946 1_655 S
C196 C162 1.395 . S
C196 C166 1.391 . S
C197 C159 1.389 . S
C197 C179 1.392 . S
C198 C169 1.392 . S
C198 C171 1.389 . S
C199 C174 1.395 . S
C199 C176 1.391 . S
H200 C160 0.951 . S
H201 C161 0.950 . S
H202 C167 0.949 . S
H203 C168 0.950 . S
H204 C172 0.951 . S
H205 C173 0.950 . S
H206 C177 0.949 . S
H207 C178 0.952 . S
H208 C182 0.950 . S
H209 C184 0.950 . S
H210 C187 0.950 . S
H211 C189 0.950 . S
C212 C213 1.443 . S
C212 N216 1.376 1_565 S
C212 C250 1.389 . S
C213 C212 1.443 . S
C213 C214 1.340 1_565 S
C213 H253 0.951 . S
C214 C213 1.340 1_545 S
C214 C215 1.439 . S
C214 H254 0.950 . S
C215 C214 1.439 . S
C215 N216 1.374 . S
C215 C249 1.395 . S
N216 C212 1.376 1_545 S
N216 C215 1.374 . S
N216 Co217 2.039 . S
Co217 N216 2.039 . S
Co217 N218 2.015 . S
Co217 N223 1.978 1_544 S
Co217 N228 1.975 1_544 S
Co217 N233 2.307 1_554 S
Co217 N239 2.259 1_545 S
N218 Co217 2.015 . S
N218 C219 1.376 . S
N218 C222 1.383 1_554 S
C219 N218 1.376 . S
C219 C220 1.446 . S
C219 C249 1.391 . S
C220 C219 1.446 . S
C220 C221 1.339 1_554 S
C220 H255 0.949 . S
C221 C220 1.339 1_556 S
C221 C222 1.439 . S
C221 H256 0.950 . S
C222 N218 1.383 1_556 S
C222 C221 1.439 . S
C222 C251 1.392 . S
N223 Co217 1.978 1_566 S
N223 C224 1.376 1_565 S
N223 C227 1.374 . S
C224 N223 1.376 1_545 S
C224 C225 1.443 . S
C224 C251 1.389 . S
C225 C224 1.443 . S
C225 C226 1.340 1_545 S
C225 H257 0.951 . S
C226 C225 1.340 1_565 S
C226 C227 1.439 . S
C226 H258 0.950 . S
C227 N223 1.374 . S
C227 C226 1.439 . S
C227 C252 1.395 . S
N228 Co217 1.975 1_566 S
N228 C229 1.376 . S
N228 C232 1.383 1_556 S
C229 N228 1.376 . S
C229 C230 1.446 . S
C229 C252 1.391 . S
C230 C229 1.446 . S
C230 C231 1.339 1_556 S
C230 H259 0.949 . S
C231 C230 1.339 1_554 S
C231 C232 1.439 . S
C231 H260 0.950 . S
C232 N228 1.383 1_554 S
C232 C231 1.439 . S
C232 C250 1.392 . S
N233 Co217 2.307 1_556 S
N233 C236 1.332 . S
N233 C238 1.332 . S
C234 C235 1.386 . S
C234 C237 1.388 . S
C235 C234 1.386 . S
C235 C236 1.382 . S
C235 H261 0.950 . S
C236 N233 1.332 . S
C236 C235 1.382 . S
C236 H247 0.952 1_545 S
C237 C234 1.388 . S
C237 C238 1.382 . S
C237 H262 0.950 . S
C238 N233 1.332 . S
C238 C237 1.382 . S
C238 H248 0.948 . S
N239 Co217 2.259 1_565 S
N239 C243 1.332 . S
N239 C244 1.332 . S
C240 C241 1.388 . S
C240 C244 1.382 . S
C240 H263 0.950 . S
C241 C240 1.388 . S
C241 C242 1.386 . S
C242 C241 1.386 . S
C242 C243 1.382 . S
C242 H264 0.950 . S
C243 N239 1.332 . S
C243 C242 1.382 . S
C243 H245 0.952 1_565 S
C244 N239 1.332 . S
C244 C240 1.382 . S
C244 H246 0.948 . S
H245 C243 0.952 1_545 S
H246 C244 0.948 . S
H247 C236 0.952 1_565 S
H248 C238 0.948 . S
C249 C215 1.395 . S
C249 C219 1.391 . S
C250 C212 1.389 . S
C250 C232 1.392 . S
C251 C222 1.392 . S
C251 C224 1.389 . S
C252 C227 1.395 . S
C252 C229 1.391 . S
H253 C213 0.951 . S
H254 C214 0.950 . S
H255 C220 0.949 . S
H256 C221 0.950 . S
H257 C225 0.951 . S
H258 C226 0.950 . S
H259 C230 0.949 . S
H260 C231 0.950 . S
H261 C235 0.950 . S
H262 C237 0.950 . S
H263 C240 0.950 . S
H264 C242 0.950 . S
C265 C266 1.443 . S
C265 N269 1.376 . S
C265 C303 1.389 . S
C266 C265 1.443 . S
C266 C267 1.340 . S
C266 H306 0.951 . S
C267 C266 1.340 . S
C267 C268 1.439 . S
C267 H307 0.950 . S
C268 C267 1.439 . S
C268 N269 1.374 . S
C268 C302 1.395 . S
N269 C265 1.376 . S
N269 C268 1.374 . S
N269 Co270 2.008 . S
Co270 N269 2.008 . S
Co270 N271 1.995 . S
Co270 N276 2.008 . S
Co270 N281 1.995 . S
Co270 N286 2.282 . S
Co270 N292 2.282 . S
N271 Co270 1.995 . S
N271 C272 1.376 . S
N271 C275 1.383 . S
C272 N271 1.376 . S
C272 C273 1.446 . S
C272 C302 1.391 . S
C273 C272 1.446 . S
C273 C274 1.339 . S
C273 H308 0.949 . S
C274 C273 1.339 . S
C274 C275 1.439 . S
C274 H309 0.950 . S
C275 N271 1.383 . S
C275 C274 1.439 . S
C275 C304 1.392 . S
N276 Co270 2.008 . S
N276 C277 1.376 . S
N276 C280 1.374 . S
C277 N276 1.376 . S
C277 C278 1.443 . S
C277 C304 1.389 . S
C278 C277 1.443 . S
C278 C279 1.340 . S
C278 H310 0.951 . S
C279 C278 1.340 . S
C279 C280 1.439 . S
C279 H311 0.950 . S
C280 N276 1.374 . S
C280 C279 1.439 . S
C280 C305 1.395 . S
N281 Co270 1.995 . S
N281 C282 1.376 . S
N281 C285 1.383 . S
C282 N281 1.376 . S
C282 C283 1.446 . S
C282 C305 1.391 . S
C283 C282 1.446 . S
C283 C284 1.339 . S
C283 H312 0.949 . S
C284 C283 1.339 . S
C284 C285 1.439 . S
C284 H313 0.950 . S
C285 N281 1.383 . S
C285 C284 1.439 . S
C285 C303 1.392 . S
N286 Co270 2.282 . S
N286 C289 1.332 . S
N286 C291 1.332 . S
C287 C288 1.386 . S
C287 C290 1.388 . S
C288 C287 1.386 . S
C288 C289 1.382 . S
C288 H314 0.950 . S
C289 N286 1.332 . S
C289 C288 1.382 . S
C289 H300 0.952 . S
C290 C287 1.388 . S
C290 C291 1.382 . S
C290 H315 0.950 . S
C291 N286 1.332 . S
C291 C290 1.382 . S
C291 H301 0.948 . S
N292 Co270 2.282 . S
N292 C296 1.332 . S
N292 C297 1.332 . S
C293 C294 1.388 . S
C293 C297 1.382 . S
C293 H316 0.950 . S
C294 C293 1.388 . S
C294 C295 1.386 . S
C295 C294 1.386 . S
C295 C296 1.382 . S
C295 H317 0.950 . S
C296 N292 1.332 . S
C296 C295 1.382 . S
C296 H298 0.952 . S
C297 N292 1.332 . S
C297 C293 1.382 . S
C297 H299 0.948 . S
H298 C296 0.952 . S
H299 C297 0.948 . S
H300 C289 0.952 . S
H301 C291 0.948 . S
C302 C268 1.395 . S
C302 C272 1.391 . S
C303 C265 1.389 . S
C303 C285 1.392 . S
C304 C275 1.392 . S
C304 C277 1.389 . S
C305 C280 1.395 . S
C305 C282 1.391 . S
H306 C266 0.951 . S
H307 C267 0.950 . S
H308 C273 0.949 . S
H309 C274 0.950 . S
H310 C278 0.951 . S
H311 C279 0.950 . S
H312 C283 0.949 . S
H313 C284 0.950 . S
H314 C288 0.950 . S
H315 C290 0.950 . S
H316 C293 0.950 . S
H317 C295 0.950 . S
C318 C319 1.443 . S
C318 N322 1.376 . S
C318 C356 1.389 . S
C319 C318 1.443 . S
C319 C320 1.340 . S
C319 H359 0.951 . S
C320 C319 1.340 . S
C320 C321 1.439 . S
C320 H360 0.950 . S
C321 C320 1.439 . S
C321 N322 1.374 . S
C321 C355 1.395 . S
N322 C318 1.376 . S
N322 C321 1.374 . S
N322 Co323 2.008 . S
Co323 N322 2.008 . S
Co323 N324 1.995 . S
Co323 N329 2.008 . S
Co323 N334 1.995 . S
Co323 N339 2.282 . S
Co323 N345 2.282 . S
N324 Co323 1.995 . S
N324 C325 1.376 . S
N324 C328 1.383 . S
C325 N324 1.376 . S
C325 C326 1.446 . S
C325 C355 1.391 . S
C326 C325 1.446 . S
C326 C327 1.339 . S
C326 H361 0.949 . S
C327 C326 1.339 . S
C327 C328 1.439 . S
C327 H362 0.950 . S
C328 N324 1.383 . S
C328 C327 1.439 . S
C328 C357 1.392 . S
N329 Co323 2.008 . S
N329 C330 1.376 . S
N329 C333 1.374 . S
C330 N329 1.376 . S
C330 C331 1.443 . S
C330 C357 1.389 . S
C331 C330 1.443 . S
C331 C332 1.340 . S
C331 H363 0.951 . S
C332 C331 1.340 . S
C332 C333 1.439 . S
C332 H364 0.950 . S
C333 N329 1.374 . S
C333 C332 1.439 . S
C333 C358 1.395 . S
N334 Co323 1.995 . S
N334 C335 1.376 . S
N334 C338 1.383 . S
C335 N334 1.376 . S
C335 C336 1.446 . S
C335 C358 1.391 . S
C336 C335 1.446 . S
C336 C337 1.339 . S
C336 H365 0.949 . S
C337 C336 1.339 . S
C337 C338 1.439 . S
C337 H366 0.950 . S
C338 N334 1.383 . S
C338 C337 1.439 . S
C338 C356 1.392 . S
N339 Co323 2.282 . S
N339 C342 1.332 . S
N339 C344 1.332 . S
C340 C341 1.386 . S
C340 C343 1.388 . S
C341 C340 1.386 . S
C341 C342 1.382 . S
C341 H367 0.950 . S
C342 N339 1.332 . S
C342 C341 1.382 . S
C342 H353 0.952 . S
C343 C340 1.388 . S
C343 C344 1.382 . S
C343 H368 0.950 . S
C344 N339 1.332 . S
C344 C343 1.382 . S
C344 H354 0.948 . S
N345 Co323 2.282 . S
N345 C349 1.332 . S
N345 C350 1.332 . S
C346 C347 1.388 . S
C346 C350 1.382 . S
C346 H369 0.950 . S
C347 C346 1.388 . S
C347 C348 1.386 . S
C348 C347 1.386 . S
C348 C349 1.382 . S
C348 H370 0.950 . S
C349 N345 1.332 . S
C349 C348 1.382 . S
C349 H351 0.952 . S
C350 N345 1.332 . S
C350 C346 1.382 . S
C350 H352 0.948 . S
H351 C349 0.952 . S
H352 C350 0.948 . S
H353 C342 0.952 . S
H354 C344 0.948 . S
C355 C321 1.395 . S
C355 C325 1.391 . S
C356 C318 1.389 . S
C356 C338 1.392 . S
C357 C328 1.392 . S
C357 C330 1.389 . S
C358 C333 1.395 . S
C358 C335 1.391 . S
H359 C319 0.951 . S
H360 C320 0.950 . S
H361 C326 0.949 . S
H362 C327 0.950 . S
H363 C331 0.951 . S
H364 C332 0.950 . S
H365 C336 0.949 . S
H366 C337 0.950 . S
H367 C341 0.950 . S
H368 C343 0.950 . S
H369 C346 0.950 . S
H370 C348 0.950 . S
C371 C372 1.443 . S
C371 N375 1.376 . S
C371 C409 1.389 . S
C372 C371 1.443 . S
C372 C373 1.340 . S
C372 H412 0.951 . S
C373 C372 1.340 . S
C373 C374 1.439 . S
C373 H413 0.950 . S
C374 C373 1.439 . S
C374 N375 1.374 . S
C374 C408 1.395 . S
N375 C371 1.376 . S
N375 C374 1.374 . S
N375 Co376 2.008 . S
Co376 N375 2.008 . S
Co376 N377 1.995 . S
Co376 N382 2.008 . S
Co376 N387 1.995 . S
Co376 N392 2.282 . S
Co376 N398 2.282 . S
N377 Co376 1.995 . S
N377 C378 1.376 . S
N377 C381 1.383 . S
C378 N377 1.376 . S
C378 C379 1.446 . S
C378 C408 1.391 . S
C379 C378 1.446 . S
C379 C380 1.339 . S
C379 H414 0.949 . S
C380 C379 1.339 . S
C380 C381 1.439 . S
C380 H415 0.950 . S
C381 N377 1.383 . S
C381 C380 1.439 . S
C381 C410 1.392 . S
N382 Co376 2.008 . S
N382 C383 1.376 . S
N382 C386 1.374 . S
C383 N382 1.376 . S
C383 C384 1.443 . S
C383 C410 1.389 . S
C384 C383 1.443 . S
C384 C385 1.340 . S
C384 H416 0.951 . S
C385 C384 1.340 . S
C385 C386 1.439 . S
C385 H417 0.950 . S
C386 N382 1.374 . S
C386 C385 1.439 . S
C386 C411 1.395 . S
N387 Co376 1.995 . S
N387 C388 1.376 . S
N387 C391 1.383 . S
C388 N387 1.376 . S
C388 C389 1.446 . S
C388 C411 1.391 . S
C389 C388 1.446 . S
C389 C390 1.339 . S
C389 H418 0.949 . S
C390 C389 1.339 . S
C390 C391 1.439 . S
C390 H419 0.950 . S
C391 N387 1.383 . S
C391 C390 1.439 . S
C391 C409 1.392 . S
N392 Co376 2.282 . S
N392 C395 1.332 . S
N392 C397 1.332 . S
C393 C394 1.386 . S
C393 C396 1.388 . S
C394 C393 1.386 . S
C394 C395 1.382 . S
C394 H420 0.950 . S
C395 N392 1.332 . S
C395 C394 1.382 . S
C395 H406 0.952 . S
C396 C393 1.388 . S
C396 C397 1.382 . S
C396 H421 0.950 . S
C397 N392 1.332 . S
C397 C396 1.382 . S
C397 H407 0.948 . S
N398 Co376 2.282 . S
N398 C402 1.332 . S
N398 C403 1.332 . S
C399 C400 1.388 . S
C399 C403 1.382 . S
C399 H422 0.950 . S
C400 C399 1.388 . S
C400 C401 1.386 . S
C401 C400 1.386 . S
C401 C402 1.382 . S
C401 H423 0.950 . S
C402 N398 1.332 . S
C402 C401 1.382 . S
C402 H404 0.952 . S
C403 N398 1.332 . S
C403 C399 1.382 . S
C403 H405 0.948 . S
H404 C402 0.952 . S
H405 C403 0.948 . S
H406 C395 0.952 . S
H407 C397 0.948 . S
C408 C374 1.395 . S
C408 C378 1.391 . S
C409 C371 1.389 . S
C409 C391 1.392 . S
C410 C381 1.392 . S
C410 C383 1.389 . S
C411 C386 1.395 . S
C411 C388 1.391 . S
H412 C372 0.951 . S
H413 C373 0.950 . S
H414 C379 0.949 . S
H415 C380 0.950 . S
H416 C384 0.951 . S
H417 C385 0.950 . S
H418 C389 0.949 . S
H419 C390 0.950 . S
H420 C394 0.950 . S
H421 C396 0.950 . S
H422 C399 0.950 . S
H423 C401 0.950 . S
C424 C425 1.443 . S
C424 N428 1.376 . S
C424 C462 1.389 . S
C425 C424 1.443 . S
C425 C426 1.340 . S
C425 H465 0.951 . S
C426 C425 1.340 . S
C426 C427 1.439 . S
C426 H466 0.950 . S
C427 C426 1.439 . S
C427 N428 1.374 . S
C427 C461 1.395 . S
N428 C424 1.376 . S
N428 C427 1.374 . S
N428 Co429 2.008 . S
Co429 N428 2.008 . S
Co429 N430 1.995 . S
Co429 N435 2.008 . S
Co429 N440 1.995 . S
Co429 N445 2.282 . S
Co429 N451 2.282 . S
N430 Co429 1.995 . S
N430 C431 1.376 . S
N430 C434 1.383 . S
C431 N430 1.376 . S
C431 C432 1.446 . S
C431 C461 1.391 . S
C432 C431 1.446 . S
C432 C433 1.339 . S
C432 H467 0.949 . S
C433 C432 1.339 . S
C433 C434 1.439 . S
C433 H468 0.950 . S
C434 N430 1.383 . S
C434 C433 1.439 . S
C434 C463 1.392 . S
N435 Co429 2.008 . S
N435 C436 1.376 . S
N435 C439 1.374 . S
C436 N435 1.376 . S
C436 C437 1.443 . S
C436 C463 1.389 . S
C437 C436 1.443 . S
C437 C438 1.340 . S
C437 H469 0.951 . S
C438 C437 1.340 . S
C438 C439 1.439 . S
C438 H470 0.950 . S
C439 N435 1.374 . S
C439 C438 1.439 . S
C439 C464 1.395 . S
N440 Co429 1.995 . S
N440 C441 1.376 . S
N440 C444 1.383 . S
C441 N440 1.376 . S
C441 C442 1.446 . S
C441 C464 1.391 . S
C442 C441 1.446 . S
C442 C443 1.339 . S
C442 H471 0.949 . S
C443 C442 1.339 . S
C443 C444 1.439 . S
C443 H472 0.950 . S
C444 N440 1.383 . S
C444 C443 1.439 . S
C444 C462 1.392 . S
N445 Co429 2.282 . S
N445 C448 1.332 . S
N445 C450 1.332 . S
C446 C447 1.386 . S
C446 C449 1.388 . S
C447 C446 1.386 . S
C447 C448 1.382 . S
C447 H473 0.950 . S
C448 N445 1.332 . S
C448 C447 1.382 . S
C448 H459 0.952 . S
C449 C446 1.388 . S
C449 C450 1.382 . S
C449 H474 0.950 . S
C450 N445 1.332 . S
C450 C449 1.382 . S
C450 H460 0.948 . S
N451 Co429 2.282 . S
N451 C455 1.332 . S
N451 C456 1.332 . S
C452 C453 1.388 . S
C452 C456 1.382 . S
C452 H475 0.950 . S
C453 C452 1.388 . S
C453 C454 1.386 . S
C454 C453 1.386 . S
C454 C455 1.382 . S
C454 H476 0.950 . S
C455 N451 1.332 . S
C455 C454 1.382 . S
C455 H457 0.952 . S
C456 N451 1.332 . S
C456 C452 1.382 . S
C456 H458 0.948 . S
H457 C455 0.952 . S
H458 C456 0.948 . S
H459 C448 0.952 . S
H460 C450 0.948 . S
C461 C427 1.395 . S
C461 C431 1.391 . S
C462 C424 1.389 . S
C462 C444 1.392 . S
C463 C434 1.392 . S
C463 C436 1.389 . S
C464 C439 1.395 . S
C464 C441 1.391 . S
H465 C425 0.951 . S
H466 C426 0.950 . S
H467 C432 0.949 . S
H468 C433 0.950 . S
H469 C437 0.951 . S
H470 C438 0.950 . S
H471 C442 0.949 . S
H472 C443 0.950 . S
H473 C447 0.950 . S
H474 C449 0.950 . S
H475 C452 0.950 . S
H476 C454 0.950 . S
C477 C478 1.443 . S
C477 N481 1.376 . S
C477 C515 1.389 . S
C478 C477 1.443 . S
C478 C479 1.340 . S
C478 H518 0.951 . S
C479 C478 1.340 . S
C479 C480 1.439 . S
C479 H519 0.950 . S
C480 C479 1.439 . S
C480 N481 1.374 . S
C480 C514 1.395 . S
N481 C477 1.376 . S
N481 C480 1.374 . S
N481 Co482 2.008 . S
Co482 N481 2.008 . S
Co482 N483 1.995 . S
Co482 N488 2.008 . S
Co482 N493 1.995 . S
Co482 N498 2.282 . S
Co482 N504 2.282 . S
N483 Co482 1.995 . S
N483 C484 1.376 . S
N483 C487 1.383 . S
C484 N483 1.376 . S
C484 C485 1.446 . S
C484 C514 1.391 . S
C485 C484 1.446 . S
C485 C486 1.339 . S
C485 H520 0.949 . S
C486 C485 1.339 . S
C486 C487 1.439 . S
C486 H521 0.950 . S
C487 N483 1.383 . S
C487 C486 1.439 . S
C487 C516 1.392 . S
N488 Co482 2.008 . S
N488 C489 1.376 . S
N488 C492 1.374 . S
C489 N488 1.376 . S
C489 C490 1.443 . S
C489 C516 1.389 . S
C490 C489 1.443 . S
C490 C491 1.340 . S
C490 H522 0.951 . S
C491 C490 1.340 . S
C491 C492 1.439 . S
C491 H523 0.950 . S
C492 N488 1.374 . S
C492 C491 1.439 . S
C492 C517 1.395 . S
N493 Co482 1.995 . S
N493 C494 1.376 . S
N493 C497 1.383 . S
C494 N493 1.376 . S
C494 C495 1.446 . S
C494 C517 1.391 . S
C495 C494 1.446 . S
C495 C496 1.339 . S
C495 H524 0.949 . S
C496 C495 1.339 . S
C496 C497 1.439 . S
C496 H525 0.950 . S
C497 N493 1.383 . S
C497 C496 1.439 . S
C497 C515 1.392 . S
N498 Co482 2.282 . S
N498 C501 1.332 . S
N498 C503 1.332 . S
C499 C500 1.386 . S
C499 C502 1.388 . S
C500 C499 1.386 . S
C500 C501 1.382 . S
C500 H526 0.950 . S
C501 N498 1.332 . S
C501 C500 1.382 . S
C501 H512 0.952 . S
C502 C499 1.388 . S
C502 C503 1.382 . S
C502 H527 0.950 . S
C503 N498 1.332 . S
C503 C502 1.382 . S
C503 H513 0.948 . S
N504 Co482 2.282 . S
N504 C508 1.332 . S
N504 C509 1.332 . S
C505 C506 1.388 . S
C505 C509 1.382 . S
C505 H528 0.950 . S
C506 C505 1.388 . S
C506 C507 1.386 . S
C507 C506 1.386 . S
C507 C508 1.382 . S
C507 H529 0.950 . S
C508 N504 1.332 . S
C508 C507 1.382 . S
C508 H510 0.952 . S
C509 N504 1.332 . S
C509 C505 1.382 . S
C509 H511 0.948 . S
H510 C508 0.952 . S
H511 C509 0.948 . S
H512 C501 0.952 . S
H513 C503 0.948 . S
C514 C480 1.395 . S
C514 C484 1.391 . S
C515 C477 1.389 . S
C515 C497 1.392 . S
C516 C487 1.392 . S
C516 C489 1.389 . S
C517 C492 1.395 . S
C517 C494 1.391 . S
H518 C478 0.951 . S
H519 C479 0.950 . S
H520 C485 0.949 . S
H521 C486 0.950 . S
H522 C490 0.951 . S
H523 C491 0.950 . S
H524 C495 0.949 . S
H525 C496 0.950 . S
H526 C500 0.950 . S
H527 C502 0.950 . S
H528 C505 0.950 . S
H529 C507 0.950 . S
C530 C531 1.443 . S
C530 N534 1.376 . S
C530 C568 1.389 . S
C531 C530 1.443 . S
C531 C532 1.340 . S
C531 H571 0.951 . S
C532 C531 1.340 . S
C532 C533 1.439 . S
C532 H572 0.950 . S
C533 C532 1.439 . S
C533 N534 1.374 . S
C533 C567 1.395 . S
N534 C530 1.376 . S
N534 C533 1.374 . S
N534 Co535 2.008 . S
Co535 N534 2.008 . S
Co535 N536 1.995 . S
Co535 N541 2.008 . S
Co535 N546 1.995 . S
Co535 N551 2.282 . S
Co535 N557 2.282 . S
N536 Co535 1.995 . S
N536 C537 1.376 . S
N536 C540 1.383 . S
C537 N536 1.376 . S
C537 C538 1.446 . S
C537 C567 1.391 . S
C538 C537 1.446 . S
C538 C539 1.339 . S
C538 H573 0.949 . S
C539 C538 1.339 . S
C539 C540 1.439 . S
C539 H574 0.950 . S
C540 N536 1.383 . S
C540 C539 1.439 . S
C540 C569 1.392 . S
N541 Co535 2.008 . S
N541 C542 1.376 . S
N541 C545 1.374 . S
C542 N541 1.376 . S
C542 C543 1.443 . S
C542 C569 1.389 . S
C543 C542 1.443 . S
C543 C544 1.340 . S
C543 H575 0.951 . S
C544 C543 1.340 . S
C544 C545 1.439 . S
C544 H576 0.950 . S
C545 N541 1.374 . S
C545 C544 1.439 . S
C545 C570 1.395 . S
N546 Co535 1.995 . S
N546 C547 1.376 . S
N546 C550 1.383 . S
C547 N546 1.376 . S
C547 C548 1.446 . S
C547 C570 1.391 . S
C548 C547 1.446 . S
C548 C549 1.339 . S
C548 H577 0.949 . S
C549 C548 1.339 . S
C549 C550 1.439 . S
C549 H578 0.950 . S
C550 N546 1.383 . S
C550 C549 1.439 . S
C550 C568 1.392 . S
N551 Co535 2.282 . S
N551 C554 1.332 . S
N551 C556 1.332 . S
C552 C553 1.386 . S
C552 C555 1.388 . S
C553 C552 1.386 . S
C553 C554 1.382 . S
C553 H579 0.950 . S
C554 N551 1.332 . S
C554 C553 1.382 . S
C554 H565 0.952 . S
C555 C552 1.388 . S
C555 C556 1.382 . S
C555 H580 0.950 . S
C556 N551 1.332 . S
C556 C555 1.382 . S
C556 H566 0.948 . S
N557 Co535 2.282 . S
N557 C561 1.332 . S
N557 C562 1.332 . S
C558 C559 1.388 . S
C558 C562 1.382 . S
C558 H581 0.950 . S
C559 C558 1.388 . S
C559 C560 1.386 . S
C560 C559 1.386 . S
C560 C561 1.382 . S
C560 H582 0.950 . S
C561 N557 1.332 . S
C561 C560 1.382 . S
C561 H563 0.952 . S
C562 N557 1.332 . S
C562 C558 1.382 . S
C562 H564 0.948 . S
H563 C561 0.952 . S
H564 C562 0.948 . S
H565 C554 0.952 . S
H566 C556 0.948 . S
C567 C533 1.395 . S
C567 C537 1.391 . S
C568 C530 1.389 . S
C568 C550 1.392 . S
C569 C540 1.392 . S
C569 C542 1.389 . S
C570 C545 1.395 . S
C570 C547 1.391 . S
H571 C531 0.951 . S
H572 C532 0.950 . S
H573 C538 0.949 . S
H574 C539 0.950 . S
H575 C543 0.951 . S
H576 C544 0.950 . S
H577 C548 0.949 . S
H578 C549 0.950 . S
H579 C553 0.950 . S
H580 C555 0.950 . S
H581 C558 0.950 . S
H582 C560 0.950 . S
C583 C584 1.443 . S
C583 N587 1.376 . S
C583 C621 1.389 . S
C584 C583 1.443 . S
C584 C585 1.340 . S
C584 H624 0.951 . S
C585 C584 1.340 . S
C585 C586 1.439 . S
C585 H625 0.950 . S
C586 C585 1.439 . S
C586 N587 1.374 . S
C586 C620 1.395 . S
N587 C583 1.376 . S
N587 C586 1.374 . S
N587 Co588 2.008 . S
Co588 N587 2.008 . S
Co588 N589 1.995 . S
Co588 N594 2.008 . S
Co588 N599 1.995 . S
Co588 N604 2.282 . S
Co588 N610 2.282 . S
N589 Co588 1.995 . S
N589 C590 1.376 . S
N589 C593 1.383 . S
C590 N589 1.376 . S
C590 C591 1.446 . S
C590 C620 1.391 . S
C591 C590 1.446 . S
C591 C592 1.339 . S
C591 H626 0.949 . S
C592 C591 1.339 . S
C592 C593 1.439 . S
C592 H627 0.950 . S
C593 N589 1.383 . S
C593 C592 1.439 . S
C593 C622 1.392 . S
N594 Co588 2.008 . S
N594 C595 1.376 . S
N594 C598 1.374 . S
C595 N594 1.376 . S
C595 C596 1.443 . S
C595 C622 1.389 . S
C596 C595 1.443 . S
C596 C597 1.340 . S
C596 H628 0.951 . S
C597 C596 1.340 . S
C597 C598 1.439 . S
C597 H629 0.950 . S
C598 N594 1.374 . S
C598 C597 1.439 . S
C598 C623 1.395 . S
N599 Co588 1.995 . S
N599 C600 1.376 . S
N599 C603 1.383 . S
C600 N599 1.376 . S
C600 C601 1.446 . S
C600 C623 1.391 . S
C601 C600 1.446 . S
C601 C602 1.339 . S
C601 H630 0.949 . S
C602 C601 1.339 . S
C602 C603 1.439 . S
C602 H631 0.950 . S
C603 N599 1.383 . S
C603 C602 1.439 . S
C603 C621 1.392 . S
N604 Co588 2.282 . S
N604 C607 1.332 . S
N604 C609 1.332 . S
C605 C606 1.386 . S
C605 C608 1.388 . S
C606 C605 1.386 . S
C606 C607 1.382 . S
C606 H632 0.950 . S
C607 N604 1.332 . S
C607 C606 1.382 . S
C607 H618 0.952 . S
C608 C605 1.388 . S
C608 C609 1.382 . S
C608 H633 0.950 . S
C609 N604 1.332 . S
C609 C608 1.382 . S
C609 H619 0.948 . S
N610 Co588 2.282 . S
N610 C614 1.332 . S
N610 C615 1.332 . S
C611 C612 1.388 . S
C611 C615 1.382 . S
C611 H634 0.950 . S
C612 C611 1.388 . S
C612 C613 1.386 . S
C613 C612 1.386 . S
C613 C614 1.382 . S
C613 H635 0.950 . S
C614 N610 1.332 . S
C614 C613 1.382 . S
C614 H616 0.952 . S
C615 N610 1.332 . S
C615 C611 1.382 . S
C615 H617 0.948 . S
H616 C614 0.952 . S
H617 C615 0.948 . S
H618 C607 0.952 . S
H619 C609 0.948 . S
C620 C586 1.395 . S
C620 C590 1.391 . S
C621 C583 1.389 . S
C621 C603 1.392 . S
C622 C593 1.392 . S
C622 C595 1.389 . S
C623 C598 1.395 . S
C623 C600 1.391 . S
H624 C584 0.951 . S
H625 C585 0.950 . S
H626 C591 0.949 . S
H627 C592 0.950 . S
H628 C596 0.951 . S
H629 C597 0.950 . S
H630 C601 0.949 . S
H631 C602 0.950 . S
H632 C606 0.950 . S
H633 C608 0.950 . S
H634 C611 0.950 . S
H635 C613 0.950 . S
C636 C637 1.391 . S
C636 C638 1.394 . S
C636 H652 0.931 . S
C637 C636 1.391 . S
C637 C641 1.376 . S
C638 C636 1.394 . S
C638 C639 1.369 . S
C638 C642 1.531 . S
C639 C638 1.369 . S
C639 C640 1.410 . S
C639 C647 1.503 . S
C640 C639 1.410 . S
C640 C641 1.392 . S
C640 C643 1.511 . S
C641 C637 1.376 . S
C641 C640 1.392 . S
C641 H653 0.929 . S
C642 C638 1.531 . S
C642 H654 0.960 . S
C642 H655 0.962 . S
C642 H656 0.960 . S
C643 C640 1.511 . S
C643 H657 0.961 . S
C643 H658 0.961 . S
C643 H659 0.961 . S
C644 C645 1.370 . S
C644 C646 1.363 . S
C644 H660 0.931 . S
C645 C644 1.370 . S
C645 C649 1.408 . S
C646 C644 1.363 . S
C646 C647 1.370 . S
C646 C650 1.524 . S
C647 C639 1.503 . S
C647 C646 1.370 . S
C647 C648 1.403 . S
C648 C647 1.403 . S
C648 C649 1.404 . S
C648 C651 1.539 . S
C649 C645 1.408 . S
C649 C648 1.404 . S
C649 H661 0.930 . S
C650 C646 1.524 . S
C650 H662 0.956 . S
C650 H663 0.961 . S
C650 H664 0.961 . S
C651 C648 1.539 . S
C651 H665 0.958 . S
C651 H666 0.961 . S
C651 H667 0.960 . S
H652 C636 0.931 . S
H653 C641 0.929 . S
H654 C642 0.960 . S
H655 C642 0.962 . S
H656 C642 0.960 . S
H657 C643 0.961 . S
H658 C643 0.961 . S
H659 C643 0.961 . S
H660 C644 0.931 . S
H661 C649 0.930 . S
H662 C650 0.956 . S
H663 C650 0.961 . S
H664 C650 0.961 . S
H665 C651 0.958 . S
H666 C651 0.961 . S
H667 C651 0.960 . S
C668 C669 1.391 . S
C668 C670 1.394 . S
C668 H684 0.931 . S
C669 C668 1.391 . S
C669 C673 1.376 . S
C670 C668 1.394 . S
C670 C671 1.369 . S
C670 C674 1.531 . S
C671 C670 1.369 . S
C671 C672 1.410 . S
C671 C679 1.503 . S
C672 C671 1.410 . S
C672 C673 1.392 . S
C672 C675 1.511 . S
C673 C669 1.376 . S
C673 C672 1.392 . S
C673 H685 0.929 . S
C674 C670 1.531 . S
C674 H686 0.960 . S
C674 H687 0.962 . S
C674 H688 0.960 . S
C675 C672 1.511 . S
C675 H689 0.961 . S
C675 H690 0.961 . S
C675 H691 0.961 . S
C676 C677 1.370 . S
C676 C678 1.363 . S
C676 H692 0.931 . S
C677 C676 1.370 . S
C677 C681 1.408 . S
C678 C676 1.363 . S
C678 C679 1.370 . S
C678 C682 1.524 . S
C679 C671 1.503 . S
C679 C678 1.370 . S
C679 C680 1.403 . S
C680 C679 1.403 . S
C680 C681 1.404 . S
C680 C683 1.539 . S
C681 C677 1.408 . S
C681 C680 1.404 . S
C681 H693 0.930 . S
C682 C678 1.524 . S
C682 H694 0.956 . S
C682 H695 0.961 . S
C682 H696 0.961 . S
C683 C680 1.539 . S
C683 H697 0.958 . S
C683 H698 0.961 . S
C683 H699 0.960 . S
H684 C668 0.931 . S
H685 C673 0.929 . S
H686 C674 0.960 . S
H687 C674 0.962 . S
H688 C674 0.960 . S
H689 C675 0.961 . S
H690 C675 0.961 . S
H691 C675 0.961 . S
H692 C676 0.931 . S
H693 C681 0.930 . S
H694 C682 0.956 . S
H695 C682 0.961 . S
H696 C682 0.961 . S
H697 C683 0.958 . S
H698 C683 0.961 . S
H699 C683 0.960 . S
C700 C701 1.391 . S
C700 C702 1.394 . S
C700 H716 0.931 . S
C701 C700 1.391 . S
C701 C705 1.376 . S
C702 C700 1.394 . S
C702 C703 1.369 . S
C702 C706 1.531 . S
C703 C702 1.369 . S
C703 C704 1.410 . S
C703 C711 1.503 . S
C704 C703 1.410 . S
C704 C705 1.392 . S
C704 C707 1.511 . S
C705 C701 1.376 . S
C705 C704 1.392 . S
C705 H717 0.929 . S
C706 C702 1.531 . S
C706 H718 0.960 . S
C706 H719 0.962 . S
C706 H720 0.960 . S
C707 C704 1.511 . S
C707 H721 0.961 . S
C707 H722 0.961 . S
C707 H723 0.961 . S
C708 C709 1.370 . S
C708 C710 1.363 . S
C708 H724 0.931 . S
C709 C708 1.370 . S
C709 C713 1.408 . S
C710 C708 1.363 . S
C710 C711 1.370 . S
C710 C714 1.524 . S
C711 C703 1.503 . S
C711 C710 1.370 . S
C711 C712 1.403 . S
C712 C711 1.403 . S
C712 C713 1.404 . S
C712 C715 1.539 . S
C713 C709 1.408 . S
C713 C712 1.404 . S
C713 H725 0.930 . S
C714 C710 1.524 . S
C714 H726 0.956 . S
C714 H727 0.961 . S
C714 H728 0.961 . S
C715 C712 1.539 . S
C715 H729 0.958 . S
C715 H730 0.961 . S
C715 H731 0.960 . S
H716 C700 0.931 . S
H717 C705 0.929 . S
H718 C706 0.960 . S
H719 C706 0.962 . S
H720 C706 0.960 . S
H721 C707 0.961 . S
H722 C707 0.961 . S
H723 C707 0.961 . S
H724 C708 0.931 . S
H725 C713 0.930 . S
H726 C714 0.956 . S
H727 C714 0.961 . S
H728 C714 0.961 . S
H729 C715 0.958 . S
H730 C715 0.961 . S
H731 C715 0.960 . S
C732 C733 1.391 . S
C732 C734 1.394 . S
C732 H748 0.931 . S
C733 C732 1.391 . S
C733 C737 1.376 . S
C734 C732 1.394 . S
C734 C735 1.369 . S
C734 C738 1.531 . S
C735 C734 1.369 . S
C735 C736 1.410 . S
C735 C743 1.503 . S
C736 C735 1.410 . S
C736 C737 1.392 . S
C736 C739 1.511 . S
C737 C733 1.376 . S
C737 C736 1.392 . S
C737 H749 0.929 . S
C738 C734 1.531 . S
C738 H750 0.960 . S
C738 H751 0.962 . S
C738 H752 0.960 . S
C739 C736 1.511 . S
C739 H753 0.961 . S
C739 H754 0.961 . S
C739 H755 0.961 . S
C740 C741 1.370 . S
C740 C742 1.363 . S
C740 H756 0.931 . S
C741 C740 1.370 . S
C741 C745 1.408 . S
C742 C740 1.363 . S
C742 C743 1.370 . S
C742 C746 1.524 . S
C743 C735 1.503 . S
C743 C742 1.370 . S
C743 C744 1.403 . S
C744 C743 1.403 . S
C744 C745 1.404 . S
C744 C747 1.539 . S
C745 C741 1.408 . S
C745 C744 1.404 . S
C745 H757 0.930 . S
C746 C742 1.524 . S
C746 H758 0.956 . S
C746 H759 0.961 . S
C746 H760 0.961 . S
C747 C744 1.539 . S
C747 H761 0.958 . S
C747 H762 0.961 . S
C747 H763 0.960 . S
H748 C732 0.931 . S
H749 C737 0.929 . S
H750 C738 0.960 . S
H751 C738 0.962 . S
H752 C738 0.960 . S
H753 C739 0.961 . S
H754 C739 0.961 . S
H755 C739 0.961 . S
H756 C740 0.931 . S
H757 C745 0.930 . S
H758 C746 0.956 . S
H759 C746 0.961 . S
H760 C746 0.961 . S
H761 C747 0.958 . S
H762 C747 0.961 . S
H763 C747 0.960 . S
C764 C765 1.391 . S
C764 C766 1.394 . S
C764 H780 0.931 . S
C765 C764 1.391 . S
C765 C769 1.376 . S
C766 C764 1.394 . S
C766 C767 1.369 . S
C766 C770 1.531 . S
C767 C766 1.369 . S
C767 C768 1.410 . S
C767 C775 1.503 . S
C768 C767 1.410 . S
C768 C769 1.392 . S
C768 C771 1.511 . S
C769 C765 1.376 . S
C769 C768 1.392 . S
C769 H781 0.929 . S
C770 C766 1.531 . S
C770 H782 0.960 . S
C770 H783 0.962 . S
C770 H784 0.960 . S
C771 C768 1.511 . S
C771 H785 0.961 . S
C771 H786 0.961 . S
C771 H787 0.961 . S
C772 C773 1.370 . S
C772 C774 1.363 . S
C772 H788 0.931 . S
C773 C772 1.370 . S
C773 C777 1.408 . S
C774 C772 1.363 . S
C774 C775 1.370 . S
C774 C778 1.524 . S
C775 C767 1.503 . S
C775 C774 1.370 . S
C775 C776 1.403 . S
C776 C775 1.403 . S
C776 C777 1.404 . S
C776 C779 1.539 . S
C777 C773 1.408 . S
C777 C776 1.404 . S
C777 H789 0.930 . S
C778 C774 1.524 . S
C778 H790 0.956 . S
C778 H791 0.961 . S
C778 H792 0.961 . S
C779 C776 1.539 . S
C779 H793 0.958 . S
C779 H794 0.961 . S
C779 H795 0.960 . S
H780 C764 0.931 . S
H781 C769 0.929 . S
H782 C770 0.960 . S
H783 C770 0.962 . S
H784 C770 0.960 . S
H785 C771 0.961 . S
H786 C771 0.961 . S
H787 C771 0.961 . S
H788 C772 0.931 . S
H789 C777 0.930 . S
H790 C778 0.956 . S
H791 C778 0.961 . S
H792 C778 0.961 . S
H793 C779 0.958 . S
H794 C779 0.961 . S
H795 C779 0.960 . S
C796 C797 1.391 . S
C796 C798 1.394 . S
C796 H812 0.931 . S
C797 C796 1.391 . S
C797 C801 1.376 . S
C798 C796 1.394 . S
C798 C799 1.369 . S
C798 C802 1.531 . S
C799 C798 1.369 . S
C799 C800 1.410 . S
C799 C807 1.503 . S
C800 C799 1.410 . S
C800 C801 1.392 . S
C800 C803 1.511 . S
C801 C797 1.376 . S
C801 C800 1.392 . S
C801 H813 0.929 . S
C802 C798 1.531 . S
C802 H814 0.960 . S
C802 H815 0.962 . S
C802 H816 0.960 . S
C803 C800 1.511 . S
C803 H817 0.961 . S
C803 H818 0.961 . S
C803 H819 0.961 . S
C804 C805 1.370 . S
C804 C806 1.363 . S
C804 H820 0.931 . S
C805 C804 1.370 . S
C805 C809 1.408 . S
C806 C804 1.363 . S
C806 C807 1.370 . S
C806 C810 1.524 . S
C807 C799 1.503 . S
C807 C806 1.370 . S
C807 C808 1.403 . S
C808 C807 1.403 . S
C808 C809 1.404 . S
C808 C811 1.539 . S
C809 C805 1.408 . S
C809 C808 1.404 . S
C809 H821 0.930 . S
C810 C806 1.524 . S
C810 H822 0.956 . S
C810 H823 0.961 . S
C810 H824 0.961 . S
C811 C808 1.539 . S
C811 H825 0.958 . S
C811 H826 0.961 . S
C811 H827 0.960 . S
H812 C796 0.931 . S
H813 C801 0.929 . S
H814 C802 0.960 . S
H815 C802 0.962 . S
H816 C802 0.960 . S
H817 C803 0.961 . S
H818 C803 0.961 . S
H819 C803 0.961 . S
H820 C804 0.931 . S
H821 C809 0.930 . S
H822 C810 0.956 . S
H823 C810 0.961 . S
H824 C810 0.961 . S
H825 C811 0.958 . S
H826 C811 0.961 . S
H827 C811 0.960 . S
C828 C829 1.391 . S
C828 C830 1.394 . S
C828 H844 0.931 . S
C829 C828 1.391 . S
C829 C833 1.376 . S
C830 C828 1.394 . S
C830 C831 1.369 . S
C830 C834 1.531 . S
C831 C830 1.369 . S
C831 C832 1.410 . S
C831 C839 1.503 . S
C832 C831 1.410 . S
C832 C833 1.392 . S
C832 C835 1.511 . S
C833 C829 1.376 . S
C833 C832 1.392 . S
C833 H845 0.929 . S
C834 C830 1.531 . S
C834 H846 0.960 . S
C834 H847 0.962 . S
C834 H848 0.960 . S
C835 C832 1.511 . S
C835 H849 0.961 . S
C835 H850 0.961 . S
C835 H851 0.961 . S
C836 C837 1.370 . S
C836 C838 1.363 . S
C836 H852 0.931 . S
C837 C836 1.370 . S
C837 C841 1.408 . S
C838 C836 1.363 . S
C838 C839 1.370 . S
C838 C842 1.524 . S
C839 C831 1.503 . S
C839 C838 1.370 . S
C839 C840 1.403 . S
C840 C839 1.403 . S
C840 C841 1.404 . S
C840 C843 1.539 . S
C841 C837 1.408 . S
C841 C840 1.404 . S
C841 H853 0.930 . S
C842 C838 1.524 . S
C842 H854 0.956 . S
C842 H855 0.961 . S
C842 H856 0.961 . S
C843 C840 1.539 . S
C843 H857 0.958 . S
C843 H858 0.961 . S
C843 H859 0.960 . S
H844 C828 0.931 . S
H845 C833 0.929 . S
H846 C834 0.960 . S
H847 C834 0.962 . S
H848 C834 0.960 . S
H849 C835 0.961 . S
H850 C835 0.961 . S
H851 C835 0.961 . S
H852 C836 0.931 . S
H853 C841 0.930 . S
H854 C842 0.956 . S
H855 C842 0.961 . S
H856 C842 0.961 . S
H857 C843 0.958 . S
H858 C843 0.961 . S
H859 C843 0.960 . S
C860 C861 1.391 . S
C860 C862 1.394 . S
C860 H876 0.931 . S
C861 C860 1.391 . S
C861 C865 1.376 . S
C862 C860 1.394 . S
C862 C863 1.369 . S
C862 C866 1.531 . S
C863 C862 1.369 . S
C863 C864 1.410 . S
C863 C871 1.503 . S
C864 C863 1.410 . S
C864 C865 1.392 . S
C864 C867 1.511 . S
C865 C861 1.376 . S
C865 C864 1.392 . S
C865 H877 0.929 . S
C866 C862 1.531 . S
C866 H878 0.960 . S
C866 H879 0.962 . S
C866 H880 0.960 . S
C867 C864 1.511 . S
C867 H881 0.961 . S
C867 H882 0.961 . S
C867 H883 0.961 . S
C868 C869 1.370 . S
C868 C870 1.363 . S
C868 H884 0.931 . S
C869 C868 1.370 . S
C869 C873 1.408 . S
C870 C868 1.363 . S
C870 C871 1.370 . S
C870 C874 1.524 . S
C871 C863 1.503 . S
C871 C870 1.370 . S
C871 C872 1.403 . S
C872 C871 1.403 . S
C872 C873 1.404 . S
C872 C875 1.539 . S
C873 C869 1.408 . S
C873 C872 1.404 . S
C873 H885 0.930 . S
C874 C870 1.524 . S
C874 H886 0.956 . S
C874 H887 0.961 . S
C874 H888 0.961 . S
C875 C872 1.539 . S
C875 H889 0.958 . S
C875 H890 0.961 . S
C875 H891 0.960 . S
H876 C860 0.931 . S
H877 C865 0.929 . S
H878 C866 0.960 . S
H879 C866 0.962 . S
H880 C866 0.960 . S
H881 C867 0.961 . S
H882 C867 0.961 . S
H883 C867 0.961 . S
H884 C868 0.931 . S
H885 C873 0.930 . S
H886 C874 0.956 . S
H887 C874 0.961 . S
H888 C874 0.961 . S
H889 C875 0.958 . S
H890 C875 0.961 . S
H891 C875 0.960 . S
C892 C893 1.391 . S
C892 C894 1.394 . S
C892 H908 0.931 . S
C893 C892 1.391 . S
C893 C897 1.376 . S
C894 C892 1.394 . S
C894 C895 1.369 . S
C894 C898 1.531 . S
C895 C894 1.369 . S
C895 C896 1.410 . S
C895 C903 1.503 . S
C896 C895 1.410 . S
C896 C897 1.392 . S
C896 C899 1.511 . S
C897 C893 1.376 . S
C897 C896 1.392 . S
C897 H909 0.929 . S
C898 C894 1.531 . S
C898 H910 0.960 . S
C898 H911 0.962 . S
C898 H912 0.960 . S
C899 C896 1.511 . S
C899 H913 0.961 . S
C899 H914 0.961 . S
C899 H915 0.961 . S
C900 C901 1.370 . S
C900 C902 1.363 . S
C900 H916 0.931 . S
C901 C900 1.370 . S
C901 C905 1.408 . S
C902 C900 1.363 . S
C902 C903 1.370 . S
C902 C906 1.524 . S
C903 C895 1.503 . S
C903 C902 1.370 . S
C903 C904 1.403 . S
C904 C903 1.403 . S
C904 C905 1.404 . S
C904 C907 1.539 . S
C905 C901 1.408 . S
C905 C904 1.404 . S
C905 H917 0.930 . S
C906 C902 1.524 . S
C906 H918 0.956 . S
C906 H919 0.961 . S
C906 H920 0.961 . S
C907 C904 1.539 . S
C907 H921 0.958 . S
C907 H922 0.961 . S
C907 H923 0.960 . S
H908 C892 0.931 . S
H909 C897 0.929 . S
H910 C898 0.960 . S
H911 C898 0.962 . S
H912 C898 0.960 . S
H913 C899 0.961 . S
H914 C899 0.961 . S
H915 C899 0.961 . S
H916 C900 0.931 . S
H917 C905 0.930 . S
H918 C906 0.956 . S
H919 C906 0.961 . S
H920 C906 0.961 . S
H921 C907 0.958 . S
H922 C907 0.961 . S
H923 C907 0.960 . S
C924 C925 1.391 . S
C924 C926 1.394 . S
C924 H940 0.931 . S
C925 C924 1.391 . S
C925 C929 1.376 . S
C926 C924 1.394 . S
C926 C927 1.369 . S
C926 C930 1.531 . S
C927 C926 1.369 . S
C927 C928 1.410 . S
C927 C935 1.503 . S
C928 C927 1.410 . S
C928 C929 1.392 . S
C928 C931 1.511 . S
C929 C925 1.376 . S
C929 C928 1.392 . S
C929 H941 0.929 . S
C930 C926 1.531 . S
C930 H942 0.960 . S
C930 H943 0.962 . S
C930 H944 0.960 . S
C931 C928 1.511 . S
C931 H945 0.961 . S
C931 H946 0.961 . S
C931 H947 0.961 . S
C932 C933 1.370 . S
C932 C934 1.363 . S
C932 H948 0.931 . S
C933 C932 1.370 . S
C933 C937 1.408 . S
C934 C932 1.363 . S
C934 C935 1.370 . S
C934 C938 1.524 . S
C935 C927 1.503 . S
C935 C934 1.370 . S
C935 C936 1.403 . S
C936 C935 1.403 . S
C936 C937 1.404 . S
C936 C939 1.539 . S
C937 C933 1.408 . S
C937 C936 1.404 . S
C937 H949 0.930 . S
C938 C934 1.524 . S
C938 H950 0.956 . S
C938 H951 0.961 . S
C938 H952 0.961 . S
C939 C936 1.539 . S
C939 H953 0.958 . S
C939 H954 0.961 . S
C939 H955 0.960 . S
H940 C924 0.931 . S
H941 C929 0.929 . S
H942 C930 0.960 . S
H943 C930 0.962 . S
H944 C930 0.960 . S
H945 C931 0.961 . S
H946 C931 0.961 . S
H947 C931 0.961 . S
H948 C932 0.931 . S
H949 C937 0.930 . S
H950 C938 0.956 . S
H951 C938 0.961 . S
H952 C938 0.961 . S
H953 C939 0.958 . S
H954 C939 0.961 . S
H955 C939 0.960 . S
C956 C957 1.391 . S
C956 C958 1.394 . S
C956 H972 0.931 . S
C957 C956 1.391 . S
C957 C961 1.376 . S
C958 C956 1.394 . S
C958 C959 1.369 . S
C958 C962 1.531 . S
C959 C958 1.369 . S
C959 C960 1.410 . S
C959 C967 1.503 . S
C960 C959 1.410 . S
C960 C961 1.392 . S
C960 C963 1.511 . S
C961 C957 1.376 . S
C961 C960 1.392 . S
C961 H973 0.929 . S
C962 C958 1.531 . S
C962 H974 0.960 . S
C962 H975 0.962 . S
C962 H976 0.960 . S
C963 C960 1.511 . S
C963 H977 0.961 . S
C963 H978 0.961 . S
C963 H979 0.961 . S
C964 C965 1.370 . S
C964 C966 1.363 . S
C964 H980 0.931 . S
C965 C964 1.370 . S
C965 C969 1.408 . S
C966 C964 1.363 . S
C966 C967 1.370 . S
C966 C970 1.524 . S
C967 C959 1.503 . S
C967 C966 1.370 . S
C967 C968 1.403 . S
C968 C967 1.403 . S
C968 C969 1.404 . S
C968 C971 1.539 . S
C969 C965 1.408 . S
C969 C968 1.404 . S
C969 H981 0.930 . S
C970 C966 1.524 . S
C970 H982 0.956 . S
C970 H983 0.961 . S
C970 H984 0.961 . S
C971 C968 1.539 . S
C971 H985 0.958 . S
C971 H986 0.961 . S
C971 H987 0.960 . S
H972 C956 0.931 . S
H973 C961 0.929 . S
H974 C962 0.960 . S
H975 C962 0.962 . S
H976 C962 0.960 . S
H977 C963 0.961 . S
H978 C963 0.961 . S
H979 C963 0.961 . S
H980 C964 0.931 . S
H981 C969 0.930 . S
H982 C970 0.956 . S
H983 C970 0.961 . S
H984 C970 0.961 . S
H985 C971 0.958 . S
H986 C971 0.961 . S
H987 C971 0.960 . S
C988 C989 1.391 . S
C988 C990 1.394 . S
C988 H1004 0.931 . S
C989 C988 1.391 . S
C989 C993 1.376 . S
C990 C988 1.394 . S
C990 C991 1.369 . S
C990 C994 1.531 . S
C991 C990 1.369 . S
C991 C992 1.410 . S
C991 C999 1.503 . S
C992 C991 1.410 . S
C992 C993 1.392 . S
C992 C995 1.511 . S
C993 C989 1.376 . S
C993 C992 1.392 . S
C993 H1005 0.929 . S
C994 C990 1.531 . S
C994 H1006 0.960 . S
C994 H1007 0.962 . S
C994 H1008 0.960 . S
C995 C992 1.511 . S
C995 H1009 0.961 . S
C995 H1010 0.961 . S
C995 H1011 0.961 . S
C996 C997 1.370 . S
C996 C998 1.363 . S
C996 H1012 0.931 . S
C997 C996 1.370 . S
C997 C1001 1.408 . S
C998 C996 1.363 . S
C998 C999 1.370 . S
C998 C1002 1.524 . S
C999 C991 1.503 . S
C999 C998 1.370 . S
C999 C1000 1.403 . S
C1000 C999 1.403 . S
C1000 C1001 1.404 . S
C1000 C1003 1.539 . S
C1001 C997 1.408 . S
C1001 C1000 1.404 . S
C1001 H1013 0.930 . S
C1002 C998 1.524 . S
C1002 H1014 0.956 . S
C1002 H1015 0.961 . S
C1002 H1016 0.961 . S
C1003 C1000 1.539 . S
C1003 H1017 0.958 . S
C1003 H1018 0.961 . S
C1003 H1019 0.960 . S
H1004 C988 0.931 . S
H1005 C993 0.929 . S
H1006 C994 0.960 . S
H1007 C994 0.962 . S
H1008 C994 0.960 . S
H1009 C995 0.961 . S
H1010 C995 0.961 . S
H1011 C995 0.961 . S
H1012 C996 0.931 . S
H1013 C1001 0.930 . S
H1014 C1002 0.956 . S
H1015 C1002 0.961 . S
H1016 C1002 0.961 . S
H1017 C1003 0.958 . S
H1018 C1003 0.961 . S
H1019 C1003 0.960 . S
C1020 C1021 1.391 . S
C1020 C1022 1.394 . S
C1020 H1036 0.931 . S
C1021 C1020 1.391 . S
C1021 C1025 1.376 . S
C1022 C1020 1.394 . S
C1022 C1023 1.369 . S
C1022 C1026 1.531 . S
C1023 C1022 1.369 . S
C1023 C1024 1.410 . S
C1023 C1031 1.503 . S
C1024 C1023 1.410 . S
C1024 C1025 1.392 . S
C1024 C1027 1.511 . S
C1025 C1021 1.376 . S
C1025 C1024 1.392 . S
C1025 H1037 0.929 . S
C1026 C1022 1.531 . S
C1026 H1038 0.960 . S
C1026 H1039 0.962 . S
C1026 H1040 0.960 . S
C1027 C1024 1.511 . S
C1027 H1041 0.961 . S
C1027 H1042 0.961 . S
C1027 H1043 0.961 . S
C1028 C1029 1.370 . S
C1028 C1030 1.363 . S
C1028 H1044 0.931 . S
C1029 C1028 1.370 . S
C1029 C1033 1.408 . S
C1030 C1028 1.363 . S
C1030 C1031 1.370 . S
C1030 C1034 1.524 . S
C1031 C1023 1.503 . S
C1031 C1030 1.370 . S
C1031 C1032 1.403 . S
C1032 C1031 1.403 . S
C1032 C1033 1.404 . S
C1032 C1035 1.539 . S
C1033 C1029 1.408 . S
C1033 C1032 1.404 . S
C1033 H1045 0.930 . S
C1034 C1030 1.524 . S
C1034 H1046 0.956 . S
C1034 H1047 0.961 . S
C1034 H1048 0.961 . S
C1035 C1032 1.539 . S
C1035 H1049 0.958 . S
C1035 H1050 0.961 . S
C1035 H1051 0.960 . S
H1036 C1020 0.931 . S
H1037 C1025 0.929 . S
H1038 C1026 0.960 . S
H1039 C1026 0.962 . S
H1040 C1026 0.960 . S
H1041 C1027 0.961 . S
H1042 C1027 0.961 . S
H1043 C1027 0.961 . S
H1044 C1028 0.931 . S
H1045 C1033 0.930 . S
H1046 C1034 0.956 . S
H1047 C1034 0.961 . S
H1048 C1034 0.961 . S
H1049 C1035 0.958 . S
H1050 C1035 0.961 . S
H1051 C1035 0.960 . S
C1052 C1053 1.391 . S
C1052 C1054 1.394 . S
C1052 H1068 0.931 . S
C1053 C1052 1.391 . S
C1053 C1057 1.376 . S
C1054 C1052 1.394 . S
C1054 C1055 1.369 . S
C1054 C1058 1.531 . S
C1055 C1054 1.369 . S
C1055 C1056 1.410 . S
C1055 C1063 1.503 . S
C1056 C1055 1.410 . S
C1056 C1057 1.392 . S
C1056 C1059 1.511 . S
C1057 C1053 1.376 . S
C1057 C1056 1.392 . S
C1057 H1069 0.929 . S
C1058 C1054 1.531 . S
C1058 H1070 0.960 . S
C1058 H1071 0.962 . S
C1058 H1072 0.960 . S
C1059 C1056 1.511 . S
C1059 H1073 0.961 . S
C1059 H1074 0.961 . S
C1059 H1075 0.961 . S
C1060 C1061 1.370 . S
C1060 C1062 1.363 . S
C1060 H1076 0.931 . S
C1061 C1060 1.370 . S
C1061 C1065 1.408 . S
C1062 C1060 1.363 . S
C1062 C1063 1.370 . S
C1062 C1066 1.524 . S
C1063 C1055 1.503 . S
C1063 C1062 1.370 . S
C1063 C1064 1.403 . S
C1064 C1063 1.403 . S
C1064 C1065 1.404 . S
C1064 C1067 1.539 . S
C1065 C1061 1.408 . S
C1065 C1064 1.404 . S
C1065 H1077 0.930 . S
C1066 C1062 1.524 . S
C1066 H1078 0.956 . S
C1066 H1079 0.961 . S
C1066 H1080 0.961 . S
C1067 C1064 1.539 . S
C1067 H1081 0.958 . S
C1067 H1082 0.961 . S
C1067 H1083 0.960 . S
H1068 C1052 0.931 . S
H1069 C1057 0.929 . S
H1070 C1058 0.960 . S
H1071 C1058 0.962 . S
H1072 C1058 0.960 . S
H1073 C1059 0.961 . S
H1074 C1059 0.961 . S
H1075 C1059 0.961 . S
H1076 C1060 0.931 . S
H1077 C1065 0.930 . S
H1078 C1066 0.956 . S
H1079 C1066 0.961 . S
H1080 C1066 0.961 . S
H1081 C1067 0.958 . S
H1082 C1067 0.961 . S
H1083 C1067 0.960 . S
C1084 C1085 1.391 . S
C1084 C1086 1.394 . S
C1084 H1100 0.931 . S
C1085 C1084 1.391 . S
C1085 C1089 1.376 . S
C1086 C1084 1.394 . S
C1086 C1087 1.369 . S
C1086 C1090 1.531 . S
C1087 C1086 1.369 . S
C1087 C1088 1.410 . S
C1087 C1095 1.503 . S
C1088 C1087 1.410 . S
C1088 C1089 1.392 . S
C1088 C1091 1.511 . S
C1089 C1085 1.376 . S
C1089 C1088 1.392 . S
C1089 H1101 0.929 . S
C1090 C1086 1.531 . S
C1090 H1102 0.960 . S
C1090 H1103 0.962 . S
C1090 H1104 0.960 . S
C1091 C1088 1.511 . S
C1091 H1105 0.961 . S
C1091 H1106 0.961 . S
C1091 H1107 0.961 . S
C1092 C1093 1.370 . S
C1092 C1094 1.363 . S
C1092 H1108 0.931 . S
C1093 C1092 1.370 . S
C1093 C1097 1.408 . S
C1094 C1092 1.363 . S
C1094 C1095 1.370 . S
C1094 C1098 1.524 . S
C1095 C1087 1.503 . S
C1095 C1094 1.370 . S
C1095 C1096 1.403 . S
C1096 C1095 1.403 . S
C1096 C1097 1.404 . S
C1096 C1099 1.539 . S
C1097 C1093 1.408 . S
C1097 C1096 1.404 . S
C1097 H1109 0.930 . S
C1098 C1094 1.524 . S
C1098 H1110 0.956 . S
C1098 H1111 0.961 . S
C1098 H1112 0.961 . S
C1099 C1096 1.539 . S
C1099 H1113 0.958 . S
C1099 H1114 0.961 . S
C1099 H1115 0.960 . S
H1100 C1084 0.931 . S
H1101 C1089 0.929 . S
H1102 C1090 0.960 . S
H1103 C1090 0.962 . S
H1104 C1090 0.960 . S
H1105 C1091 0.961 . S
H1106 C1091 0.961 . S
H1107 C1091 0.961 . S
H1108 C1092 0.931 . S
H1109 C1097 0.930 . S
H1110 C1098 0.956 . S
H1111 C1098 0.961 . S
H1112 C1098 0.961 . S
H1113 C1099 0.958 . S
H1114 C1099 0.961 . S
H1115 C1099 0.960 . S
C1116 C1117 1.391 . S
C1116 C1118 1.394 . S
C1116 H1132 0.931 . S
C1117 C1116 1.391 . S
C1117 C1121 1.376 . S
C1118 C1116 1.394 . S
C1118 C1119 1.369 . S
C1118 C1122 1.531 . S
C1119 C1118 1.369 . S
C1119 C1120 1.410 . S
C1119 C1127 1.503 . S
C1120 C1119 1.410 . S
C1120 C1121 1.392 . S
C1120 C1123 1.511 . S
C1121 C1117 1.376 . S
C1121 C1120 1.392 . S
C1121 H1133 0.929 . S
C1122 C1118 1.531 . S
C1122 H1134 0.960 . S
C1122 H1135 0.962 . S
C1122 H1136 0.960 . S
C1123 C1120 1.511 . S
C1123 H1137 0.961 . S
C1123 H1138 0.961 . S
C1123 H1139 0.961 . S
C1124 C1125 1.370 . S
C1124 C1126 1.363 . S
C1124 H1140 0.931 . S
C1125 C1124 1.370 . S
C1125 C1129 1.408 . S
C1126 C1124 1.363 . S
C1126 C1127 1.370 . S
C1126 C1130 1.524 . S
C1127 C1119 1.503 . S
C1127 C1126 1.370 . S
C1127 C1128 1.403 . S
C1128 C1127 1.403 . S
C1128 C1129 1.404 . S
C1128 C1131 1.539 . S
C1129 C1125 1.408 . S
C1129 C1128 1.404 . S
C1129 H1141 0.930 . S
C1130 C1126 1.524 . S
C1130 H1142 0.956 . S
C1130 H1143 0.961 . S
C1130 H1144 0.961 . S
C1131 C1128 1.539 . S
C1131 H1145 0.958 . S
C1131 H1146 0.961 . S
C1131 H1147 0.960 . S
H1132 C1116 0.931 . S
H1133 C1121 0.929 . S
H1134 C1122 0.960 . S
H1135 C1122 0.962 . S
H1136 C1122 0.960 . S
H1137 C1123 0.961 . S
H1138 C1123 0.961 . S
H1139 C1123 0.961 . S
H1140 C1124 0.931 . S
H1141 C1129 0.930 . S
H1142 C1130 0.956 . S
H1143 C1130 0.961 . S
H1144 C1130 0.961 . S
H1145 C1131 0.958 . S
H1146 C1131 0.961 . S
H1147 C1131 0.960 . S
C1148 C1149 1.391 . S
C1148 C1150 1.394 . S
C1148 H1164 0.931 . S
C1149 C1148 1.391 . S
C1149 C1153 1.376 . S
C1150 C1148 1.394 . S
C1150 C1151 1.369 . S
C1150 C1154 1.531 . S
C1151 C1150 1.369 . S
C1151 C1152 1.410 . S
C1151 C1159 1.503 . S
C1152 C1151 1.410 . S
C1152 C1153 1.392 . S
C1152 C1155 1.511 . S
C1153 C1149 1.376 . S
C1153 C1152 1.392 . S
C1153 H1165 0.929 . S
C1154 C1150 1.531 . S
C1154 H1166 0.960 . S
C1154 H1167 0.962 . S
C1154 H1168 0.960 . S
C1155 C1152 1.511 . S
C1155 H1169 0.961 . S
C1155 H1170 0.961 . S
C1155 H1171 0.961 . S
C1156 C1157 1.370 . S
C1156 C1158 1.363 . S
C1156 H1172 0.931 . S
C1157 C1156 1.370 . S
C1157 C1161 1.408 . S
C1158 C1156 1.363 . S
C1158 C1159 1.370 . S
C1158 C1162 1.524 . S
C1159 C1151 1.503 . S
C1159 C1158 1.370 . S
C1159 C1160 1.403 . S
C1160 C1159 1.403 . S
C1160 C1161 1.404 . S
C1160 C1163 1.539 . S
C1161 C1157 1.408 . S
C1161 C1160 1.404 . S
C1161 H1173 0.930 . S
C1162 C1158 1.524 . S
C1162 H1174 0.956 . S
C1162 H1175 0.961 . S
C1162 H1176 0.961 . S
C1163 C1160 1.539 . S
C1163 H1177 0.958 . S
C1163 H1178 0.961 . S
C1163 H1179 0.960 . S
H1164 C1148 0.931 . S
H1165 C1153 0.929 . S
H1166 C1154 0.960 . S
H1167 C1154 0.962 . S
H1168 C1154 0.960 . S
H1169 C1155 0.961 . S
H1170 C1155 0.961 . S
H1171 C1155 0.961 . S
H1172 C1156 0.931 . S
H1173 C1161 0.930 . S
H1174 C1162 0.956 . S
H1175 C1162 0.961 . S
H1176 C1162 0.961 . S
H1177 C1163 0.958 . S
H1178 C1163 0.961 . S
H1179 C1163 0.960 . S
C1180 C1181 1.391 . S
C1180 C1182 1.394 . S
C1180 H1196 0.931 . S
C1181 C1180 1.391 . S
C1181 C1185 1.376 . S
C1182 C1180 1.394 . S
C1182 C1183 1.369 . S
C1182 C1186 1.531 . S
C1183 C1182 1.369 . S
C1183 C1184 1.410 . S
C1183 C1191 1.503 . S
C1184 C1183 1.410 . S
C1184 C1185 1.392 . S
C1184 C1187 1.511 . S
C1185 C1181 1.376 . S
C1185 C1184 1.392 . S
C1185 H1197 0.929 . S
C1186 C1182 1.531 . S
C1186 H1198 0.960 . S
C1186 H1199 0.962 . S
C1186 H1200 0.960 . S
C1187 C1184 1.511 . S
C1187 H1201 0.961 . S
C1187 H1202 0.961 . S
C1187 H1203 0.961 . S
C1188 C1189 1.370 . S
C1188 C1190 1.363 . S
C1188 H1204 0.931 . S
C1189 C1188 1.370 . S
C1189 C1193 1.408 . S
C1190 C1188 1.363 . S
C1190 C1191 1.370 . S
C1190 C1194 1.524 . S
C1191 C1183 1.503 . S
C1191 C1190 1.370 . S
C1191 C1192 1.403 . S
C1192 C1191 1.403 . S
C1192 C1193 1.404 . S
C1192 C1195 1.539 . S
C1193 C1189 1.408 . S
C1193 C1192 1.404 . S
C1193 H1205 0.930 . S
C1194 C1190 1.524 . S
C1194 H1206 0.956 . S
C1194 H1207 0.961 . S
C1194 H1208 0.961 . S
C1195 C1192 1.539 . S
C1195 H1209 0.958 . S
C1195 H1210 0.961 . S
C1195 H1211 0.960 . S
H1196 C1180 0.931 . S
H1197 C1185 0.929 . S
H1198 C1186 0.960 . S
H1199 C1186 0.962 . S
H1200 C1186 0.960 . S
H1201 C1187 0.961 . S
H1202 C1187 0.961 . S
H1203 C1187 0.961 . S
H1204 C1188 0.931 . S
H1205 C1193 0.930 . S
H1206 C1194 0.956 . S
H1207 C1194 0.961 . S
H1208 C1194 0.961 . S
H1209 C1195 0.958 . S
H1210 C1195 0.961 . S
H1211 C1195 0.960 . S
C1212 C1213 1.391 . S
C1212 C1214 1.394 . S
C1212 H1228 0.931 . S
C1213 C1212 1.391 . S
C1213 C1217 1.376 . S
C1214 C1212 1.394 . S
C1214 C1215 1.369 . S
C1214 C1218 1.531 . S
C1215 C1214 1.369 . S
C1215 C1216 1.410 . S
C1215 C1223 1.503 . S
C1216 C1215 1.410 . S
C1216 C1217 1.392 . S
C1216 C1219 1.511 . S
C1217 C1213 1.376 . S
C1217 C1216 1.392 . S
C1217 H1229 0.929 . S
C1218 C1214 1.531 . S
C1218 H1230 0.960 . S
C1218 H1231 0.962 . S
C1218 H1232 0.960 . S
C1219 C1216 1.511 . S
C1219 H1233 0.961 . S
C1219 H1234 0.961 . S
C1219 H1235 0.961 . S
C1220 C1221 1.370 . S
C1220 C1222 1.363 . S
C1220 H1236 0.931 . S
C1221 C1220 1.370 . S
C1221 C1225 1.408 . S
C1222 C1220 1.363 . S
C1222 C1223 1.370 . S
C1222 C1226 1.524 . S
C1223 C1215 1.503 . S
C1223 C1222 1.370 . S
C1223 C1224 1.403 . S
C1224 C1223 1.403 . S
C1224 C1225 1.404 . S
C1224 C1227 1.539 . S
C1225 C1221 1.408 . S
C1225 C1224 1.404 . S
C1225 H1237 0.930 . S
C1226 C1222 1.524 . S
C1226 H1238 0.956 . S
C1226 H1239 0.961 . S
C1226 H1240 0.961 . S
C1227 C1224 1.539 . S
C1227 H1241 0.958 . S
C1227 H1242 0.961 . S
C1227 H1243 0.960 . S
H1228 C1212 0.931 . S
H1229 C1217 0.929 . S
H1230 C1218 0.960 . S
H1231 C1218 0.962 . S
H1232 C1218 0.960 . S
H1233 C1219 0.961 . S
H1234 C1219 0.961 . S
H1235 C1219 0.961 . S
H1236 C1220 0.931 . S
H1237 C1225 0.930 . S
H1238 C1226 0.956 . S
H1239 C1226 0.961 . S
H1240 C1226 0.961 . S
H1241 C1227 0.958 . S
H1242 C1227 0.961 . S
H1243 C1227 0.960 . S
C1244 C1245 1.391 . S
C1244 C1246 1.394 . S
C1244 H1260 0.931 . S
C1245 C1244 1.391 . S
C1245 C1249 1.376 . S
C1246 C1244 1.394 . S
C1246 C1247 1.369 . S
C1246 C1250 1.531 . S
C1247 C1246 1.369 . S
C1247 C1248 1.410 . S
C1247 C1255 1.503 . S
C1248 C1247 1.410 . S
C1248 C1249 1.392 . S
C1248 C1251 1.511 . S
C1249 C1245 1.376 . S
C1249 C1248 1.392 . S
C1249 H1261 0.929 . S
C1250 C1246 1.531 . S
C1250 H1262 0.960 . S
C1250 H1263 0.962 . S
C1250 H1264 0.960 . S
C1251 C1248 1.511 . S
C1251 H1265 0.961 . S
C1251 H1266 0.961 . S
C1251 H1267 0.961 . S
C1252 C1253 1.370 . S
C1252 C1254 1.363 . S
C1252 H1268 0.931 . S
C1253 C1252 1.370 . S
C1253 C1257 1.408 . S
C1254 C1252 1.363 . S
C1254 C1255 1.370 . S
C1254 C1258 1.524 . S
C1255 C1247 1.503 . S
C1255 C1254 1.370 . S
C1255 C1256 1.403 . S
C1256 C1255 1.403 . S
C1256 C1257 1.404 . S
C1256 C1259 1.539 . S
C1257 C1253 1.408 . S
C1257 C1256 1.404 . S
C1257 H1269 0.930 . S
C1258 C1254 1.524 . S
C1258 H1270 0.956 . S
C1258 H1271 0.961 . S
C1258 H1272 0.961 . S
C1259 C1256 1.539 . S
C1259 H1273 0.958 . S
C1259 H1274 0.961 . S
C1259 H1275 0.960 . S
H1260 C1244 0.931 . S
H1261 C1249 0.929 . S
H1262 C1250 0.960 . S
H1263 C1250 0.962 . S
H1264 C1250 0.960 . S
H1265 C1251 0.961 . S
H1266 C1251 0.961 . S
H1267 C1251 0.961 . S
H1268 C1252 0.931 . S
H1269 C1257 0.930 . S
H1270 C1258 0.956 . S
H1271 C1258 0.961 . S
H1272 C1258 0.961 . S
H1273 C1259 0.958 . S
H1274 C1259 0.961 . S
H1275 C1259 0.960 . S
C1276 C1277 1.391 . S
C1276 C1278 1.394 . S
C1276 H1292 0.931 . S
C1277 C1276 1.391 . S
C1277 C1281 1.376 . S
C1278 C1276 1.394 . S
C1278 C1279 1.369 . S
C1278 C1282 1.531 . S
C1279 C1278 1.369 . S
C1279 C1280 1.410 . S
C1279 C1287 1.503 . S
C1280 C1279 1.410 . S
C1280 C1281 1.392 . S
C1280 C1283 1.511 . S
C1281 C1277 1.376 . S
C1281 C1280 1.392 . S
C1281 H1293 0.929 . S
C1282 C1278 1.531 . S
C1282 H1294 0.960 . S
C1282 H1295 0.962 . S
C1282 H1296 0.960 . S
C1283 C1280 1.511 . S
C1283 H1297 0.961 . S
C1283 H1298 0.961 . S
C1283 H1299 0.961 . S
C1284 C1285 1.370 . S
C1284 C1286 1.363 . S
C1284 H1300 0.931 . S
C1285 C1284 1.370 . S
C1285 C1289 1.408 . S
C1286 C1284 1.363 . S
C1286 C1287 1.370 . S
C1286 C1290 1.524 . S
C1287 C1279 1.503 . S
C1287 C1286 1.370 . S
C1287 C1288 1.403 . S
C1288 C1287 1.403 . S
C1288 C1289 1.404 . S
C1288 C1291 1.539 . S
C1289 C1285 1.408 . S
C1289 C1288 1.404 . S
C1289 H1301 0.930 . S
C1290 C1286 1.524 . S
C1290 H1302 0.956 . S
C1290 H1303 0.961 . S
C1290 H1304 0.961 . S
C1291 C1288 1.539 . S
C1291 H1305 0.958 . S
C1291 H1306 0.961 . S
C1291 H1307 0.960 . S
H1292 C1276 0.931 . S
H1293 C1281 0.929 . S
H1294 C1282 0.960 . S
H1295 C1282 0.962 . S
H1296 C1282 0.960 . S
H1297 C1283 0.961 . S
H1298 C1283 0.961 . S
H1299 C1283 0.961 . S
H1300 C1284 0.931 . S
H1301 C1289 0.930 . S
H1302 C1290 0.956 . S
H1303 C1290 0.961 . S
H1304 C1290 0.961 . S
H1305 C1291 0.958 . S
H1306 C1291 0.961 . S
H1307 C1291 0.960 . S
C1308 C1309 1.391 . S
C1308 C1310 1.394 . S
C1308 H1324 0.931 . S
C1309 C1308 1.391 . S
C1309 C1313 1.376 . S
C1310 C1308 1.394 . S
C1310 C1311 1.369 . S
C1310 C1314 1.531 . S
C1311 C1310 1.369 . S
C1311 C1312 1.410 . S
C1311 C1319 1.503 . S
C1312 C1311 1.410 . S
C1312 C1313 1.392 . S
C1312 C1315 1.511 . S
C1313 C1309 1.376 . S
C1313 C1312 1.392 . S
C1313 H1325 0.929 . S
C1314 C1310 1.531 . S
C1314 H1326 0.960 . S
C1314 H1327 0.962 . S
C1314 H1328 0.960 . S
C1315 C1312 1.511 . S
C1315 H1329 0.961 . S
C1315 H1330 0.961 . S
C1315 H1331 0.961 . S
C1316 C1317 1.370 . S
C1316 C1318 1.363 . S
C1316 H1332 0.931 . S
C1317 C1316 1.370 . S
C1317 C1321 1.408 . S
C1318 C1316 1.363 . S
C1318 C1319 1.370 . S
C1318 C1322 1.524 . S
C1319 C1311 1.503 . S
C1319 C1318 1.370 . S
C1319 C1320 1.403 . S
C1320 C1319 1.403 . S
C1320 C1321 1.404 . S
C1320 C1323 1.539 . S
C1321 C1317 1.408 . S
C1321 C1320 1.404 . S
C1321 H1333 0.930 . S
C1322 C1318 1.524 . S
C1322 H1334 0.956 . S
C1322 H1335 0.961 . S
C1322 H1336 0.961 . S
C1323 C1320 1.539 . S
C1323 H1337 0.958 . S
C1323 H1338 0.961 . S
C1323 H1339 0.960 . S
H1324 C1308 0.931 . S
H1325 C1313 0.929 . S
H1326 C1314 0.960 . S
H1327 C1314 0.962 . S
H1328 C1314 0.960 . S
H1329 C1315 0.961 . S
H1330 C1315 0.961 . S
H1331 C1315 0.961 . S
H1332 C1316 0.931 . S
H1333 C1321 0.930 . S
H1334 C1322 0.956 . S
H1335 C1322 0.961 . S
H1336 C1322 0.961 . S
H1337 C1323 0.958 . S
H1338 C1323 0.961 . S
H1339 C1323 0.960 . S
C1340 C1341 1.391 . S
C1340 C1342 1.394 . S
C1340 H1356 0.931 . S
C1341 C1340 1.391 . S
C1341 C1345 1.376 . S
C1342 C1340 1.394 . S
C1342 C1343 1.369 . S
C1342 C1346 1.531 . S
C1343 C1342 1.369 . S
C1343 C1344 1.410 . S
C1343 C1351 1.503 . S
C1344 C1343 1.410 . S
C1344 C1345 1.392 . S
C1344 C1347 1.511 . S
C1345 C1341 1.376 . S
C1345 C1344 1.392 . S
C1345 H1357 0.929 . S
C1346 C1342 1.531 . S
C1346 H1358 0.960 . S
C1346 H1359 0.962 . S
C1346 H1360 0.960 . S
C1347 C1344 1.511 . S
C1347 H1361 0.961 . S
C1347 H1362 0.961 . S
C1347 H1363 0.961 . S
C1348 C1349 1.370 . S
C1348 C1350 1.363 . S
C1348 H1364 0.931 . S
C1349 C1348 1.370 . S
C1349 C1353 1.408 . S
C1350 C1348 1.363 . S
C1350 C1351 1.370 . S
C1350 C1354 1.524 . S
C1351 C1343 1.503 . S
C1351 C1350 1.370 . S
C1351 C1352 1.403 . S
C1352 C1351 1.403 . S
C1352 C1353 1.404 . S
C1352 C1355 1.539 . S
C1353 C1349 1.408 . S
C1353 C1352 1.404 . S
C1353 H1365 0.930 . S
C1354 C1350 1.524 . S
C1354 H1366 0.956 . S
C1354 H1367 0.961 . S
C1354 H1368 0.961 . S
C1355 C1352 1.539 . S
C1355 H1369 0.958 . S
C1355 H1370 0.961 . S
C1355 H1371 0.960 . S
H1356 C1340 0.931 . S
H1357 C1345 0.929 . S
H1358 C1346 0.960 . S
H1359 C1346 0.962 . S
H1360 C1346 0.960 . S
H1361 C1347 0.961 . S
H1362 C1347 0.961 . S
H1363 C1347 0.961 . S
H1364 C1348 0.931 . S
H1365 C1353 0.930 . S
H1366 C1354 0.956 . S
H1367 C1354 0.961 . S
H1368 C1354 0.961 . S
H1369 C1355 0.958 . S
H1370 C1355 0.961 . S
H1371 C1355 0.960 . S
C1372 C1373 1.391 . S
C1372 C1374 1.394 . S
C1372 H1388 0.931 . S
C1373 C1372 1.391 . S
C1373 C1377 1.376 . S
C1374 C1372 1.394 . S
C1374 C1375 1.369 . S
C1374 C1378 1.531 . S
C1375 C1374 1.369 . S
C1375 C1376 1.410 . S
C1375 C1383 1.503 . S
C1376 C1375 1.410 . S
C1376 C1377 1.392 . S
C1376 C1379 1.511 . S
C1377 C1373 1.376 . S
C1377 C1376 1.392 . S
C1377 H1389 0.929 . S
C1378 C1374 1.531 . S
C1378 H1390 0.960 . S
C1378 H1391 0.962 . S
C1378 H1392 0.960 . S
C1379 C1376 1.511 . S
C1379 H1393 0.961 . S
C1379 H1394 0.961 . S
C1379 H1395 0.961 . S
C1380 C1381 1.370 . S
C1380 C1382 1.363 . S
C1380 H1396 0.931 . S
C1381 C1380 1.370 . S
C1381 C1385 1.408 . S
C1382 C1380 1.363 . S
C1382 C1383 1.370 . S
C1382 C1386 1.524 . S
C1383 C1375 1.503 . S
C1383 C1382 1.370 . S
C1383 C1384 1.403 . S
C1384 C1383 1.403 . S
C1384 C1385 1.404 . S
C1384 C1387 1.539 . S
C1385 C1381 1.408 . S
C1385 C1384 1.404 . S
C1385 H1397 0.930 . S
C1386 C1382 1.524 . S
C1386 H1398 0.956 . S
C1386 H1399 0.961 . S
C1386 H1400 0.961 . S
C1387 C1384 1.539 . S
C1387 H1401 0.958 . S
C1387 H1402 0.961 . S
C1387 H1403 0.960 . S
H1388 C1372 0.931 . S
H1389 C1377 0.929 . S
H1390 C1378 0.960 . S
H1391 C1378 0.962 . S
H1392 C1378 0.960 . S
H1393 C1379 0.961 . S
H1394 C1379 0.961 . S
H1395 C1379 0.961 . S
H1396 C1380 0.931 . S
H1397 C1385 0.930 . S
H1398 C1386 0.956 . S
H1399 C1386 0.961 . S
H1400 C1386 0.961 . S
H1401 C1387 0.958 . S
H1402 C1387 0.961 . S
H1403 C1387 0.960 . S
C637 C39 1.966 . S
C645 C356 1.935 . S
C669 C91 1.636 . S
C677 C409 1.617 . S
C709 C462 1.684 . S
C701 C128 1.692 . S
C741 C499 1.331 . S
C733 C188 1.323 . S
C773 C559 1.698 . S
C765 C250 1.699 . S
C805 C612 1.558 . S
C797 C304 1.583 . S
C829 C75 1.829 . S
C837 C463 1.806 . S
C861 C144 1.603 . S
C869 C506 1.574 . S
C901 C552 1.737 . S
C893 C198 1.754 . S
C933 C605 1.328 . S
C925 C234 1.352 . S
C957 C294 1.640 . S
C965 C357 1.637 . S
C997 C410 1.473 . S
C989 C29 1.480 . S
C1029 C516 1.937 . S
C1021 C38 1.964 . S
C1053 C92 1.635 . S
C1061 C568 1.627 . S
C1093 C621 1.689 . S
C1085 C135 1.691 . S
C1117 C181 1.326 . S
C1125 C347 1.327 . S
C1149 C251 1.710 . S
C1157 C400 1.693 . S
C1181 C303 1.586 . S
C1189 C453 1.557 . S
C1213 C82 1.821 . S
C1221 C622 1.806 . S
C1253 C340 1.589 . S
C1245 C145 1.588 . S
C1277 C197 1.743 . S
C1285 C393 1.741 . S
C1309 C241 1.354 . S
C1317 C446 1.320 . S
C1341 C287 1.649 . S
C1349 C515 1.628 . S
C1373 C22 1.469 . S
C1381 C569 1.474 . S
