# Generated by pormake.
# Topology gar, (4,6)-cn, num edge types: 1
# Building blocks:
#     Node 0, Type 0, BuildingBlock: NAHDIM_clean_sbu_0, # of connection points: 4
#     Node 1, Type 0, BuildingBlock: NAHDIM_clean_sbu_0, # of connection points: 4
#     Node 2, Type 0, BuildingBlock: NAHDIM_clean_sbu_0, # of connection points: 4
#     Node 3, Type 0, BuildingBlock: NAHDIM_clean_sbu_0, # of connection points: 4
#     Node 4, Type 0, BuildingBlock: NAHDIM_clean_sbu_0, # of connection points: 4
#     Node 5, Type 0, BuildingBlock: NAHDIM_clean_sbu_0, # of connection points: 4
#     Node 6, Type 0, BuildingBlock: NAHDIM_clean_sbu_0, # of connection points: 4
#     Node 7, Type 0, BuildingBlock: NAHDIM_clean_sbu_0, # of connection points: 4
#     Node 8, Type 0, BuildingBlock: NAHDIM_clean_sbu_0, # of connection points: 4
#     Node 9, Type 0, BuildingBlock: NAHDIM_clean_sbu_0, # of connection points: 4
#     Node 10, Type 0, BuildingBlock: NAHDIM_clean_sbu_0, # of connection points: 4
#     Node 11, Type 0, BuildingBlock: NAHDIM_clean_sbu_0, # of connection points: 4
#     Node 12, Type 0, BuildingBlock: NAHDIM_clean_sbu_0, # of connection points: 4
#     Node 13, Type 0, BuildingBlock: NAHDIM_clean_sbu_0, # of connection points: 4
#     Node 14, Type 0, BuildingBlock: NAHDIM_clean_sbu_0, # of connection points: 4
#     Node 15, Type 0, BuildingBlock: NAHDIM_clean_sbu_0, # of connection points: 4
#     Node 16, Type 0, BuildingBlock: NAHDIM_clean_sbu_0, # of connection points: 4
#     Node 17, Type 0, BuildingBlock: NAHDIM_clean_sbu_0, # of connection points: 4
#     Node 18, Type 0, BuildingBlock: NAHDIM_clean_sbu_0, # of connection points: 4
#     Node 19, Type 0, BuildingBlock: NAHDIM_clean_sbu_0, # of connection points: 4
#     Node 20, Type 0, BuildingBlock: NAHDIM_clean_sbu_0, # of connection points: 4
#     Node 21, Type 0, BuildingBlock: NAHDIM_clean_sbu_0, # of connection points: 4
#     Node 22, Type 0, BuildingBlock: NAHDIM_clean_sbu_0, # of connection points: 4
#     Node 23, Type 0, BuildingBlock: NAHDIM_clean_sbu_0, # of connection points: 4
#     Node 24, Type 1, BuildingBlock: BETDEL_clean_sbu_0, # of connection points: 6
#     Node 25, Type 1, BuildingBlock: BETDEL_clean_sbu_0, # of connection points: 6
#     Node 26, Type 1, BuildingBlock: BETDEL_clean_sbu_0, # of connection points: 6
#     Node 27, Type 1, BuildingBlock: BETDEL_clean_sbu_0, # of connection points: 6
#     Node 28, Type 1, BuildingBlock: BETDEL_clean_sbu_0, # of connection points: 6
#     Node 29, Type 1, BuildingBlock: BETDEL_clean_sbu_0, # of connection points: 6
#     Node 30, Type 1, BuildingBlock: BETDEL_clean_sbu_0, # of connection points: 6
#     Node 31, Type 1, BuildingBlock: BETDEL_clean_sbu_0, # of connection points: 6
#     Node 32, Type 1, BuildingBlock: BETDEL_clean_sbu_0, # of connection points: 6
#     Node 33, Type 1, BuildingBlock: BETDEL_clean_sbu_0, # of connection points: 6
#     Node 34, Type 1, BuildingBlock: BETDEL_clean_sbu_0, # of connection points: 6
#     Node 35, Type 1, BuildingBlock: BETDEL_clean_sbu_0, # of connection points: 6
#     Node 36, Type 1, BuildingBlock: BETDEL_clean_sbu_0, # of connection points: 6
#     Node 37, Type 1, BuildingBlock: BETDEL_clean_sbu_0, # of connection points: 6
#     Node 38, Type 1, BuildingBlock: BETDEL_clean_sbu_0, # of connection points: 6
#     Node 39, Type 1, BuildingBlock: BETDEL_clean_sbu_0, # of connection points: 6
#     Edge 40, Type (0, 1), BuildingBlock: TEMPAE_clean_linker_10, # of connection points: 2
#     Edge 41, Type (0, 1), BuildingBlock: TEMPAE_clean_linker_10, # of connection points: 2
#     Edge 42, Type (0, 1), BuildingBlock: TEMPAE_clean_linker_10, # of connection points: 2
#     Edge 43, Type (0, 1), BuildingBlock: TEMPAE_clean_linker_10, # of connection points: 2
#     Edge 44, Type (0, 1), BuildingBlock: TEMPAE_clean_linker_10, # of connection points: 2
#     Edge 45, Type (0, 1), BuildingBlock: TEMPAE_clean_linker_10, # of connection points: 2
#     Edge 46, Type (0, 1), BuildingBlock: TEMPAE_clean_linker_10, # of connection points: 2
#     Edge 47, Type (0, 1), BuildingBlock: TEMPAE_clean_linker_10, # of connection points: 2
#     Edge 48, Type (0, 1), BuildingBlock: TEMPAE_clean_linker_10, # of connection points: 2
#     Edge 49, Type (0, 1), BuildingBlock: TEMPAE_clean_linker_10, # of connection points: 2
#     Edge 50, Type (0, 1), BuildingBlock: TEMPAE_clean_linker_10, # of connection points: 2
#     Edge 51, Type (0, 1), BuildingBlock: TEMPAE_clean_linker_10, # of connection points: 2
#     Edge 52, Type (0, 1), BuildingBlock: TEMPAE_clean_linker_10, # of connection points: 2
#     Edge 53, Type (0, 1), BuildingBlock: TEMPAE_clean_linker_10, # of connection points: 2
#     Edge 54, Type (0, 1), BuildingBlock: TEMPAE_clean_linker_10, # of connection points: 2
#     Edge 55, Type (0, 1), BuildingBlock: TEMPAE_clean_linker_10, # of connection points: 2
#     Edge 56, Type (0, 1), BuildingBlock: TEMPAE_clean_linker_10, # of connection points: 2
#     Edge 57, Type (0, 1), BuildingBlock: TEMPAE_clean_linker_10, # of connection points: 2
#     Edge 58, Type (0, 1), BuildingBlock: TEMPAE_clean_linker_10, # of connection points: 2
#     Edge 59, Type (0, 1), BuildingBlock: TEMPAE_clean_linker_10, # of connection points: 2
#     Edge 60, Type (0, 1), BuildingBlock: TEMPAE_clean_linker_10, # of connection points: 2
#     Edge 61, Type (0, 1), BuildingBlock: TEMPAE_clean_linker_10, # of connection points: 2
#     Edge 62, Type (0, 1), BuildingBlock: TEMPAE_clean_linker_10, # of connection points: 2
#     Edge 63, Type (0, 1), BuildingBlock: TEMPAE_clean_linker_10, # of connection points: 2
#     Edge 64, Type (0, 1), BuildingBlock: TEMPAE_clean_linker_10, # of connection points: 2
#     Edge 65, Type (0, 1), BuildingBlock: TEMPAE_clean_linker_10, # of connection points: 2
#     Edge 66, Type (0, 1), BuildingBlock: TEMPAE_clean_linker_10, # of connection points: 2
#     Edge 67, Type (0, 1), BuildingBlock: TEMPAE_clean_linker_10, # of connection points: 2
#     Edge 68, Type (0, 1), BuildingBlock: TEMPAE_clean_linker_10, # of connection points: 2
#     Edge 69, Type (0, 1), BuildingBlock: TEMPAE_clean_linker_10, # of connection points: 2
#     Edge 70, Type (0, 1), BuildingBlock: TEMPAE_clean_linker_10, # of connection points: 2
#     Edge 71, Type (0, 1), BuildingBlock: TEMPAE_clean_linker_10, # of connection points: 2
#     Edge 72, Type (0, 1), BuildingBlock: TEMPAE_clean_linker_10, # of connection points: 2
#     Edge 73, Type (0, 1), BuildingBlock: TEMPAE_clean_linker_10, # of connection points: 2
#     Edge 74, Type (0, 1), BuildingBlock: TEMPAE_clean_linker_10, # of connection points: 2
#     Edge 75, Type (0, 1), BuildingBlock: TEMPAE_clean_linker_10, # of connection points: 2
#     Edge 76, Type (0, 1), BuildingBlock: TEMPAE_clean_linker_10, # of connection points: 2
#     Edge 77, Type (0, 1), BuildingBlock: TEMPAE_clean_linker_10, # of connection points: 2
#     Edge 78, Type (0, 1), BuildingBlock: TEMPAE_clean_linker_10, # of connection points: 2
#     Edge 79, Type (0, 1), BuildingBlock: TEMPAE_clean_linker_10, # of connection points: 2
#     Edge 80, Type (0, 1), BuildingBlock: TEMPAE_clean_linker_10, # of connection points: 2
#     Edge 81, Type (0, 1), BuildingBlock: TEMPAE_clean_linker_10, # of connection points: 2
#     Edge 82, Type (0, 1), BuildingBlock: TEMPAE_clean_linker_10, # of connection points: 2
#     Edge 83, Type (0, 1), BuildingBlock: TEMPAE_clean_linker_10, # of connection points: 2
#     Edge 84, Type (0, 1), BuildingBlock: TEMPAE_clean_linker_10, # of connection points: 2
#     Edge 85, Type (0, 1), BuildingBlock: TEMPAE_clean_linker_10, # of connection points: 2
#     Edge 86, Type (0, 1), BuildingBlock: TEMPAE_clean_linker_10, # of connection points: 2
#     Edge 87, Type (0, 1), BuildingBlock: TEMPAE_clean_linker_10, # of connection points: 2
#     Edge 88, Type (0, 1), BuildingBlock: TEMPAE_clean_linker_10, # of connection points: 2
#     Edge 89, Type (0, 1), BuildingBlock: TEMPAE_clean_linker_10, # of connection points: 2
#     Edge 90, Type (0, 1), BuildingBlock: TEMPAE_clean_linker_10, # of connection points: 2
#     Edge 91, Type (0, 1), BuildingBlock: TEMPAE_clean_linker_10, # of connection points: 2
#     Edge 92, Type (0, 1), BuildingBlock: TEMPAE_clean_linker_10, # of connection points: 2
#     Edge 93, Type (0, 1), BuildingBlock: TEMPAE_clean_linker_10, # of connection points: 2
#     Edge 94, Type (0, 1), BuildingBlock: TEMPAE_clean_linker_10, # of connection points: 2
#     Edge 95, Type (0, 1), BuildingBlock: TEMPAE_clean_linker_10, # of connection points: 2
#     Edge 96, Type (0, 1), BuildingBlock: TEMPAE_clean_linker_10, # of connection points: 2
#     Edge 97, Type (0, 1), BuildingBlock: TEMPAE_clean_linker_10, # of connection points: 2
#     Edge 98, Type (0, 1), BuildingBlock: TEMPAE_clean_linker_10, # of connection points: 2
#     Edge 99, Type (0, 1), BuildingBlock: TEMPAE_clean_linker_10, # of connection points: 2
#     Edge 100, Type (0, 1), BuildingBlock: TEMPAE_clean_linker_10, # of connection points: 2
#     Edge 101, Type (0, 1), BuildingBlock: TEMPAE_clean_linker_10, # of connection points: 2
#     Edge 102, Type (0, 1), BuildingBlock: TEMPAE_clean_linker_10, # of connection points: 2
#     Edge 103, Type (0, 1), BuildingBlock: TEMPAE_clean_linker_10, # of connection points: 2
#     Edge 104, Type (0, 1), BuildingBlock: TEMPAE_clean_linker_10, # of connection points: 2
#     Edge 105, Type (0, 1), BuildingBlock: TEMPAE_clean_linker_10, # of connection points: 2
#     Edge 106, Type (0, 1), BuildingBlock: TEMPAE_clean_linker_10, # of connection points: 2
#     Edge 107, Type (0, 1), BuildingBlock: TEMPAE_clean_linker_10, # of connection points: 2
#     Edge 108, Type (0, 1), BuildingBlock: TEMPAE_clean_linker_10, # of connection points: 2
#     Edge 109, Type (0, 1), BuildingBlock: TEMPAE_clean_linker_10, # of connection points: 2
#     Edge 110, Type (0, 1), BuildingBlock: TEMPAE_clean_linker_10, # of connection points: 2
#     Edge 111, Type (0, 1), BuildingBlock: TEMPAE_clean_linker_10, # of connection points: 2
#     Edge 112, Type (0, 1), BuildingBlock: TEMPAE_clean_linker_10, # of connection points: 2
#     Edge 113, Type (0, 1), BuildingBlock: TEMPAE_clean_linker_10, # of connection points: 2
#     Edge 114, Type (0, 1), BuildingBlock: TEMPAE_clean_linker_10, # of connection points: 2
#     Edge 115, Type (0, 1), BuildingBlock: TEMPAE_clean_linker_10, # of connection points: 2
#     Edge 116, Type (0, 1), BuildingBlock: TEMPAE_clean_linker_10, # of connection points: 2
#     Edge 117, Type (0, 1), BuildingBlock: TEMPAE_clean_linker_10, # of connection points: 2
#     Edge 118, Type (0, 1), BuildingBlock: TEMPAE_clean_linker_10, # of connection points: 2
#     Edge 119, Type (0, 1), BuildingBlock: TEMPAE_clean_linker_10, # of connection points: 2
#     Edge 120, Type (0, 1), BuildingBlock: TEMPAE_clean_linker_10, # of connection points: 2
#     Edge 121, Type (0, 1), BuildingBlock: TEMPAE_clean_linker_10, # of connection points: 2
#     Edge 122, Type (0, 1), BuildingBlock: TEMPAE_clean_linker_10, # of connection points: 2
#     Edge 123, Type (0, 1), BuildingBlock: TEMPAE_clean_linker_10, # of connection points: 2
#     Edge 124, Type (0, 1), BuildingBlock: TEMPAE_clean_linker_10, # of connection points: 2
#     Edge 125, Type (0, 1), BuildingBlock: TEMPAE_clean_linker_10, # of connection points: 2
#     Edge 126, Type (0, 1), BuildingBlock: TEMPAE_clean_linker_10, # of connection points: 2
#     Edge 127, Type (0, 1), BuildingBlock: TEMPAE_clean_linker_10, # of connection points: 2
#     Edge 128, Type (0, 1), BuildingBlock: TEMPAE_clean_linker_10, # of connection points: 2
#     Edge 129, Type (0, 1), BuildingBlock: TEMPAE_clean_linker_10, # of connection points: 2
#     Edge 130, Type (0, 1), BuildingBlock: TEMPAE_clean_linker_10, # of connection points: 2
#     Edge 131, Type (0, 1), BuildingBlock: TEMPAE_clean_linker_10, # of connection points: 2
#     Edge 132, Type (0, 1), BuildingBlock: TEMPAE_clean_linker_10, # of connection points: 2
#     Edge 133, Type (0, 1), BuildingBlock: TEMPAE_clean_linker_10, # of connection points: 2
#     Edge 134, Type (0, 1), BuildingBlock: TEMPAE_clean_linker_10, # of connection points: 2
#     Edge 135, Type (0, 1), BuildingBlock: TEMPAE_clean_linker_10, # of connection points: 2
# Relax obj value: 0.156
# Max RMSD: 0.268
# Mean RMSD: 0.173
data_MOF--net-gar--node1-NAHDIM_clean_sbu_0--node2-BETDEL_clean_sbu_0--edge1-TEMPAE_clean_linker_10
_symmetry_space_group_name_H-M    P1
_symmetry_Int_Tables_number       1
_symmetry_cell_setting            triclinic
loop_
_symmetry_equiv_pos_as_xyz
'x, y, z'
_cell_length_a     57.89658
_cell_length_b     54.0574
_cell_length_c     54.181467
_cell_angle_alpha  95.453046
_cell_angle_beta   92.838063
_cell_angle_gamma 101.0028
loop_
_atom_site_label
_atom_site_type_symbol
_atom_site_fract_x
_atom_site_fract_y
_atom_site_fract_z
_atom_type_partial_charge
C0 C 0.07243 0.28203 0.36908 0.0
O1 O 0.0782 0.29418 0.39136 0.0
O2 O 0.02145 0.24454 0.40846 0.0
Zn3 Zn 0.02619 0.27436 0.38793 0.0
O4 O 0.03578 0.30661 0.41088 0.0
C5 C 0.99045 0.29734 0.36579 0.0
O6 O 0.00621 0.31803 0.3729 0.0
O7 O 0.05097 0.27171 0.36322 0.0
C8 C 0.02357 0.31014 0.42926 0.0
O9 O 0.0061 0.29197 0.43349 0.0
C10 C 0.03839 0.23446 0.41565 0.0
O11 O 0.05973 0.24327 0.40921 0.0
O12 O -0.00479 0.27594 0.36968 0.0
C13 C 0.94905 0.7695 0.645 0.0
O14 O 0.94422 0.76871 0.62095 0.0
O15 O 0.98554 0.74105 0.60249 0.0
Zn16 Zn -0.00528 0.77159 0.62776 0.0
O17 O -0.00366 0.8035 0.61082 0.0
C18 C 0.03961 0.75649 0.63403 0.0
O19 O 0.03266 0.7442 0.61204 0.0
O20 O 0.97028 0.77077 0.65303 0.0
C21 C 0.00702 0.80697 0.59112 0.0
O22 O 0.01782 0.78939 0.58157 0.0
C23 C 0.97758 0.71931 0.60919 0.0
O24 O 0.97334 0.71736 0.6326 0.0
O25 O 0.02654 0.77023 0.64448 0.0
C26 C 0.57723 0.77491 0.87157 0.0
O27 O 0.58269 0.77525 0.89545 0.0
O28 O 0.52842 0.74031 0.90567 0.0
Zn29 Zn 0.53186 0.77357 0.89011 0.0
O30 O 0.5417 0.80416 0.91544 0.0
C31 C 0.4847 0.76062 0.86306 0.0
O32 O 0.48806 0.73719 0.86004 0.0
O33 O 0.55588 0.77422 0.86431 0.0
C34 C 0.52626 0.8094 0.9299 0.0
O35 O 0.50567 0.79393 0.92877 0.0
C36 C 0.53019 0.73863 0.92893 0.0
O37 O 0.53464 0.75936 0.9445 0.0
O38 O 0.50075 0.77784 0.87442 0.0
C39 C 0.44259 0.26644 0.13745 0.0
O40 O 0.43852 0.26428 0.11319 0.0
O41 O 0.48046 0.23122 0.10123 0.0
Zn42 Zn 0.48882 0.26483 0.12249 0.0
O43 O 0.49021 0.29426 0.10139 0.0
C44 C 0.53663 0.25725 0.13137 0.0
O45 O 0.53412 0.24955 0.1075 0.0
O46 O 0.46342 0.26695 0.1464 0.0
C47 C 0.508 0.30461 0.09058 0.0
O48 O 0.52783 0.2964 0.09299 0.0
C49 C 0.48435 0.22874 0.07833 0.0
O50 O 0.49284 0.24897 0.06753 0.0
O51 O 0.51988 0.26527 0.14189 0.0
C52 C 0.98073 0.77998 0.15591 0.0
O53 O 0.97666 0.77252 0.13203 0.0
O54 O 0.02466 0.75028 0.12393 0.0
Zn55 Zn 0.0281 0.78573 0.14166 0.0
O56 O 0.02639 0.81269 0.11861 0.0
C57 C 0.06241 0.78112 0.17952 0.0
O58 O 0.04462 0.76401 0.18507 0.0
O59 O 0.00197 0.78646 0.1649 0.0
C60 C 0.03717 0.81606 0.09895 0.0
O61 O 0.05099 0.80059 0.0915 0.0
C62 C 0.0172 0.74282 0.10148 0.0
O63 O 0.01032 0.75889 0.08739 0.0
O64 O 0.05951 0.7938 0.16141 0.0
C65 C 0.53866 0.75069 0.35123 0.0
O66 O 0.54106 0.75821 0.37516 0.0
O67 O 0.48726 0.7184 0.38369 0.0
Zn68 Zn 0.48972 0.74601 0.36057 0.0
O69 O 0.49369 0.78081 0.37957 0.0
C70 C 0.44078 0.72772 0.3406 0.0
O71 O 0.43865 0.71553 0.36048 0.0
O72 O 0.51803 0.74454 0.34054 0.0
C73 C 0.47913 0.78601 0.39515 0.0
O74 O 0.46148 0.76811 0.39952 0.0
C75 C 0.49569 0.72237 0.40617 0.0
O76 O 0.50581 0.74549 0.41532 0.0
O77 O 0.46067 0.74107 0.33699 0.0
C78 C 0.47882 0.28148 0.65407 0.0
O79 O 0.47536 0.27623 0.62983 0.0
O80 O 0.5241 0.25319 0.62037 0.0
Zn81 Zn 0.52767 0.28585 0.64307 0.0
O82 O 0.53009 0.31588 0.62308 0.0
C83 C 0.57663 0.3025 0.66325 0.0
O84 O 0.57864 0.31675 0.64483 0.0
O85 O 0.49975 0.28568 0.66397 0.0
C86 C 0.52509 0.3134 0.59973 0.0
O87 O 0.51892 0.29053 0.5879 0.0
C88 C 0.5206 0.23194 0.62921 0.0
O89 O 0.51845 0.23147 0.6532 0.0
O90 O 0.55679 0.28858 0.66599 0.0
C91 C 0.03736 0.2499 0.85339 0.0
O92 O 0.03958 0.25696 0.87742 0.0
O93 O 0.98542 0.217 0.88492 0.0
Zn94 Zn 0.98818 0.24489 0.86214 0.0
O95 O 0.99147 0.27943 0.8815 0.0
C96 C 0.93991 0.22521 0.84093 0.0
O97 O 0.93806 0.2119 0.86005 0.0
O98 O 0.01681 0.24391 0.84251 0.0
C99 C 0.97589 0.28423 0.89599 0.0
O100 O 0.95778 0.2662 0.8988 0.0
C101 C 0.99198 0.22083 0.90796 0.0
O102 O 0.00067 0.24404 0.91799 0.0
O103 O 0.95942 0.23979 0.83821 0.0
C104 C 0.35876 0.07254 0.24998 0.0
O105 O 0.37101 0.07057 0.23038 0.0
O106 O 0.41015 0.0485 0.24204 0.0
Zn107 Zn 0.39114 0.04535 0.27181 0.0
O108 O 0.41219 0.0568 0.30265 0.0
C109 C 0.38303 0.99035 0.26353 0.0
O110 O 0.40342 0.99376 0.25343 0.0
O111 O 0.36494 0.06432 0.26993 0.0
C112 C 0.40428 0.05486 0.32394 0.0
O113 O 0.38167 0.04615 0.32555 0.0
C114 C 0.42989 0.06366 0.24248 0.0
O115 O 0.43825 0.0781 0.26308 0.0
O116 O 0.37528 0.00943 0.27259 0.0
C117 C 0.30442 0.12505 0.49805 0.0
O118 O 0.30918 0.14627 0.51296 0.0
O119 O 0.26566 0.16322 0.52119 0.0
Zn120 Zn 0.2617 0.14331 0.48686 0.0
O121 O 0.26813 0.16591 0.45889 0.0
C122 C 0.22198 0.10686 0.49801 0.0
O123 O 0.23739 0.10405 0.51564 0.0
O124 O 0.28485 0.11945 0.48509 0.0
C125 C 0.25336 0.1779 0.44989 0.0
O126 O 0.23272 0.17643 0.45927 0.0
C127 C 0.25245 0.17854 0.52807 0.0
O128 O 0.23622 0.18279 0.51211 0.0
O129 O 0.22839 0.12274 0.48256 0.0
C130 C 0.17049 0.96692 0.79452 0.0
O131 O 0.15972 0.96782 0.81527 0.0
O132 O 0.13406 0.01862 0.75552 0.0
Zn133 Zn 0.15094 0.0118 0.78703 0.0
O134 O 0.12901 0.00466 0.81482 0.0
C135 C 0.1671 0.06419 0.80455 0.0
O136 O 0.14463 0.06257 0.80827 0.0
O137 O 0.16892 0.98346 0.77963 0.0
C138 C 0.1083 0.00939 0.81446 0.0
O139 O 0.10026 0.01879 0.79504 0.0
C140 C 0.11887 0.00331 0.74091 0.0
O141 O 0.11203 0.97992 0.74619 0.0
O142 O 0.17434 0.04425 0.79684 0.0
C143 C 0.20083 0.92545 -0.00106 0.0
O144 O 0.19061 0.90157 -0.00103 0.0
O145 O 0.23668 0.88503 0.02746 0.0
Zn146 Zn 0.24289 0.9048 -0.00171 0.0
O147 O 0.23721 0.88102 0.96696 0.0
C148 C 0.29233 0.91566 0.01444 0.0
O149 O 0.28641 0.89602 0.02696 0.0
O150 O 0.22304 0.93113 -0.00182 0.0
C151 C 0.24769 0.86235 0.9659 0.0
O152 O 0.26135 0.85959 0.98511 0.0
C153 C 0.22245 0.86386 0.02637 0.0
O154 O 0.20991 0.85467 0.00551 0.0
O155 O 0.27662 0.92268 0.0011 0.0
C156 C 0.20818 0.41418 0.01832 0.0
O157 O 0.20452 0.39188 0.00523 0.0
O158 O 0.25539 0.38114 0.05476 0.0
Zn159 Zn 0.25514 0.40342 0.02633 0.0
O160 O 0.25195 0.38297 0.99245 0.0
C161 C 0.30516 0.42322 0.03723 0.0
O162 O 0.30402 0.40195 0.04741 0.0
O163 O 0.2285 0.42308 0.02913 0.0
C164 C 0.26367 0.36572 0.9873 0.0
O165 O 0.27727 0.35965 0.00495 0.0
C166 C 0.23677 0.36855 0.06252 0.0
O167 O 0.21623 0.36926 0.05147 0.0
O168 O 0.28634 0.42831 0.02765 0.0
C169 C 0.8209 0.11479 0.01955 0.0
O170 O 0.83081 0.13854 0.01808 0.0
O171 O 0.78343 0.1593 0.0508 0.0
Zn172 Zn 0.77885 0.13515 0.01979 0.0
O173 O 0.78647 0.15506 0.99109 0.0
C174 C 0.72924 0.12507 0.00373 0.0
O175 O 0.73475 0.14619 0.9933 0.0
O176 O 0.79879 0.10904 0.0211 0.0
C177 C 0.78445 0.14457 0.96894 0.0
O178 O 0.77809 0.11979 0.96482 0.0
C179 C 0.77567 0.17967 0.04972 0.0
O180 O 0.7657 0.18389 0.02864 0.0
O181 O 0.7452 0.11704 0.01572 0.0
C182 C 0.13906 0.44747 0.2269 0.0
O183 O 0.11985 0.43326 0.21547 0.0
O184 O 0.0936 0.47519 0.19729 0.0
Zn185 Zn 0.1135 0.4892 0.22866 0.0
O186 O 0.09479 0.48817 0.25884 0.0
C187 C 0.12494 0.54482 0.2357 0.0
O188 O 0.10549 0.54355 0.24739 0.0
O189 O 0.13941 0.4706 0.23378 0.0
C190 C 0.07431 0.49326 0.26002 0.0
O191 O 0.06375 0.49953 0.24018 0.0
C192 C 0.0746 0.45877 0.19635 0.0
O193 O 0.06712 0.44958 0.21673 0.0
O194 O 0.13045 0.52462 0.226 0.0
C195 C 0.71241 0.91515 0.52003 0.0
O196 O 0.70726 0.8906 0.5134 0.0
O197 O 0.75541 0.8836 0.55563 0.0
Zn198 Zn 0.75874 0.90376 0.5255 0.0
O199 O 0.75451 0.88165 0.49237 0.0
C200 C 0.80943 0.9198 0.53652 0.0
O201 O 0.80681 0.89868 0.54716 0.0
O202 O 0.73381 0.92559 0.52611 0.0
C203 C 0.7697 0.8688 0.48525 0.0
O204 O 0.78809 0.86846 0.5003 0.0
C205 C 0.75384 0.85974 0.55518 0.0
O206 O 0.75426 0.84615 0.53386 0.0
O207 O 0.79128 0.92626 0.52686 0.0
C208 C 0.84951 0.07566 0.22007 0.0
O209 O 0.85835 0.07264 0.19837 0.0
O210 O 0.89294 0.03895 0.20198 0.0
Zn211 Zn 0.87231 0.03355 0.23126 0.0
O212 O 0.89189 0.0325 0.26343 0.0
C213 C 0.85278 0.98118 0.21063 0.0
O214 O 0.87149 0.98381 0.19761 0.0
O215 O 0.85337 0.06144 0.2366 0.0
C216 C 0.89628 0.01152 0.26936 0.0
O217 O 0.88906 0.99096 0.2539 0.0
C218 C 0.91383 0.0347 0.2023 0.0
O219 O 0.92265 0.02701 0.22234 0.0
O220 O 0.84936 -3e-05 0.22499 0.0
C221 C 0.32149 0.62237 0.51346 0.0
O222 O 0.33106 0.64572 0.50991 0.0
O223 O 0.28314 0.6682 0.54295 0.0
Zn224 Zn 0.27908 0.64234 0.51337 0.0
O225 O 0.28547 0.65986 0.483 0.0
C226 C 0.23847 0.60365 0.51859 0.0
O227 O 0.25387 0.59292 0.53003 0.0
O228 O 0.29953 0.61678 0.51604 0.0
C229 C 0.29768 0.6821 0.48356 0.0
O230 O 0.30743 0.6941 0.50487 0.0
C231 C 0.29555 0.66795 0.56286 0.0
O232 O 0.30718 0.64955 0.56497 0.0
O233 O 0.24544 0.62464 0.50999 0.0
C234 C 0.33935 0.56189 0.74488 0.0
O235 O 0.33267 0.54281 0.75791 0.0
O236 O 0.3949 0.53674 0.699 0.0
Zn237 Zn 0.37241 0.53123 0.72638 0.0
O238 O 0.38954 0.52758 0.75919 0.0
C239 C 0.35537 0.47858 0.70928 0.0
O240 O 0.37765 0.47979 0.70488 0.0
O241 O 0.35584 0.56098 0.73036 0.0
C242 C 0.37935 0.51224 0.77358 0.0
O243 O 0.3578 0.49976 0.76716 0.0
C244 C 0.41563 0.53209 0.70031 0.0
O245 O 0.4232 0.52343 0.72042 0.0
O246 O 0.3486 0.49877 0.71714 0.0
C247 C 0.64255 0.94645 0.74163 0.0
O248 O 0.62201 0.93313 0.7461 0.0
O249 O 0.59638 0.97237 0.69971 0.0
Zn250 Zn 0.61607 0.98482 0.73135 0.0
O251 O 0.59661 0.97871 0.76031 0.0
C252 C 0.64687 0.02791 0.71905 0.0
O253 O 0.65443 0.00997 0.70553 0.0
O254 O 0.64368 0.96825 0.73449 0.0
C255 C 0.60565 0.9867 0.78208 0.0
O256 O 0.6278 -0.00143 0.78505 0.0
C257 C 0.57519 0.97551 0.69925 0.0
O258 O 0.56749 0.98574 0.71942 0.0
O259 O 0.62921 0.02186 0.73179 0.0
C260 C 0.79767 0.62015 0.00147 0.0
O261 O 0.79986 0.63817 0.01998 0.0
O262 O 0.7596 0.66058 0.02043 0.0
Zn263 Zn 0.75741 0.64153 0.98589 0.0
O264 O 0.76435 0.66441 0.95819 0.0
C265 C 0.70677 0.62893 0.98756 0.0
O266 O 0.71004 0.65227 -0.00171 0.0
O267 O 0.78084 0.6179 0.98488 0.0
C268 C 0.75194 0.68009 0.95178 0.0
O269 O 0.73334 0.68272 0.96392 0.0
C270 C 0.76189 0.68431 0.02629 0.0
O271 O 0.76396 0.69962 0.00877 0.0
O272 O 0.72444 0.62016 0.98022 0.0
C273 C 0.87141 0.58285 0.7663 0.0
O274 O 0.89291 0.59342 0.76164 0.0
O275 O 0.91043 0.54118 0.74513 0.0
Zn276 Zn 0.89189 0.53952 0.77543 0.0
O277 O 0.91382 0.54974 0.80586 0.0
C278 C 0.88302 0.48468 0.77464 0.0
O279 O 0.90558 0.48695 0.77108 0.0
O280 O 0.86754 0.56075 0.77313 0.0
C281 C 0.91059 0.56343 0.82525 0.0
O282 O 0.89105 0.57231 0.82655 0.0
C283 C 0.93155 0.55347 0.74616 0.0
O284 O 0.94143 0.56535 0.76745 0.0
O285 O 0.87405 0.50436 0.77687 0.0
C286 C 0.71652 0.43634 0.51692 0.0
O287 O 0.72063 0.42598 0.53724 0.0
O288 O 0.74384 0.38549 0.52621 0.0
Zn289 Zn 0.74729 0.40513 0.49679 0.0
O290 O 0.74159 0.38069 0.46594 0.0
C291 C 0.79701 0.41824 0.50992 0.0
O292 O 0.79267 0.39797 0.52183 0.0
O293 O 0.7256 0.42981 0.49707 0.0
C294 C 0.75192 0.3619 0.46518 0.0
O295 O 0.76545 0.35922 0.48453 0.0
C296 C 0.72773 0.36615 0.52724 0.0
O297 O 0.71165 0.35897 0.50866 0.0
O298 O 0.78021 0.4249 0.49797 0.0
C299 C 0.67739 0.47836 0.26481 0.0
O300 O 0.68233 0.49647 0.25022 0.0
O301 O 0.63153 0.51554 0.25146 0.0
Zn302 Zn 0.64665 0.51056 0.28439 0.0
O303 O 0.62205 0.50644 0.30971 0.0
C304 C 0.66397 0.56296 0.30089 0.0
O305 O 0.64152 0.56192 0.30442 0.0
O306 O 0.66245 0.48019 0.28099 0.0
C307 C 0.62569 0.49775 0.33024 0.0
O308 O 0.64597 0.49106 0.33505 0.0
C309 C 0.61478 0.50012 0.23897 0.0
O310 O 0.60616 0.47852 0.24747 0.0
O311 O 0.67082 0.54264 0.29366 0.0
Dy312 Dy 0.98452 0.0096 0.00201 0.0
C313 C 0.08526 0.03641 0.01309 0.0
C314 C 0.93694 0.00432 0.00404 0.0
Dy315 Dy 0.03763 0.03084 0.01457 0.0
O316 O 0.94785 0.00326 0.98367 0.0
O317 O 0.95206 0.00746 0.02309 0.0
O318 O 0.99259 0.98733 0.96731 0.0
O319 O 0.01446 0.02219 0.98093 0.0
C320 C 0.01215 0.00323 0.96493 0.0
C321 C 0.00975 0.03729 0.0515 0.0
O322 O 0.02867 0.0649 -0.00035 0.0
O323 O 0.98799 0.05184 -0.00011 0.0
O324 O 0.07416 0.03757 0.03333 0.0
O325 O 0.07029 0.03298 0.99389 0.0
O326 O 0.02917 0.05335 0.04896 0.0
O327 O 0.00767 0.01822 0.03566 0.0
O328 O 0.99379 0.97484 0.01552 0.0
O329 O 0.03445 0.98874 0.01594 0.0
C330 C 0.00699 0.0693 -0.00295 0.0
C331 C 0.01564 0.97084 0.01805 0.0
Dy332 Dy 0.25793 0.76394 0.22126 0.0
C333 C 0.27457 0.75642 0.32547 0.0
C334 C 0.24355 0.77415 0.17555 0.0
Dy335 Dy 0.26093 0.7649 0.27891 0.0
O336 O 0.23473 0.78061 0.19615 0.0
O337 O 0.2606 0.76218 0.17981 0.0
O338 O 0.2879 0.74255 0.21913 0.0
O339 O 0.28567 0.76805 0.25025 0.0
C340 C 0.29661 0.75162 0.24153 0.0
C341 C 0.22225 0.7773 0.25866 0.0
O342 O 0.2817 0.8035 0.27573 0.0
O343 O 0.27173 0.80537 0.23386 0.0
O344 O 0.28425 0.74988 0.30543 0.0
O345 O 0.25703 0.76729 0.32012 0.0
O346 O 0.23106 0.78631 0.28104 0.0
O347 O 0.23316 0.76082 0.24996 0.0
O348 O 0.23706 0.72547 0.22442 0.0
O349 O 0.24713 0.72337 0.26624 0.0
C350 C 0.28151 0.81618 0.25596 0.0
C351 C 0.23719 0.71268 0.24412 0.0
Dy352 Dy 0.53238 0.01685 0.50279 0.0
C353 C 0.43509 0.02624 0.48867 0.0
C354 C 0.57614 0.00632 0.51234 0.0
Dy355 Dy 0.4776 0.0132 0.49872 0.0
O356 O 0.56933 0.01531 0.49239 0.0
O357 O 0.55919 0.00366 0.52731 0.0
O358 O 0.53502 0.04379 0.47317 0.0
O359 O 0.50531 0.01436 0.47328 0.0
C360 C 0.51419 0.03338 0.46294 0.0
C361 C 0.49529 -0.00347 0.53877 0.0
O362 O 0.47895 0.97701 0.47588 0.0
O363 O 0.51717 0.9754 0.49043 0.0
O364 O 0.43888 0.01032 0.50426 0.0
O365 O 0.45431 0.03418 0.47796 0.0
O366 O 0.47394 0.98736 0.5292 0.0
O367 O 0.50453 0.01523 0.52812 0.0
O368 O 0.53161 0.05375 0.52489 0.0
O369 O 0.49222 0.05398 0.51381 0.0
C370 C 0.49649 0.96461 0.47851 0.0
C371 C 0.5133 0.0653 0.52439 0.0
Dy372 Dy 0.234 0.26922 0.75639 0.0
C373 C 0.33474 0.28349 0.75002 0.0
C374 C 0.18744 0.25823 0.76588 0.0
Dy375 Dy 0.28823 0.27416 0.75991 0.0
O376 O 0.19794 0.27892 0.75756 0.0
O377 O 0.20228 0.24327 0.76846 0.0
O378 O 0.23774 0.30054 0.73151 0.0
O379 O 0.26424 0.30039 0.75952 0.0
C380 C 0.25865 0.31132 0.74126 0.0
C381 C 0.26339 0.23215 0.77502 0.0
O382 O 0.28506 0.29485 0.79694 0.0
O383 O 0.24455 0.28022 0.79728 0.0
O384 O 0.32373 0.26322 0.75864 0.0
O385 O 0.32048 0.2991 0.74753 0.0
O386 O 0.28421 0.24296 0.78498 0.0
O387 O 0.25803 0.24309 0.75669 0.0
O388 O 0.23719 0.24858 0.71942 0.0
O389 O 0.27764 0.26334 0.71894 0.0
C390 C 0.26525 0.29169 0.80865 0.0
C391 C 0.25694 0.25177 0.70765 0.0
Dy392 Dy 0.0036 0.01171 0.48117 0.0
C393 C 0.05267 0.04579 0.57874 0.0
C394 C 0.9797 0.00231 0.43542 0.0
Dy395 Dy 0.02268 0.03532 0.5371 0.0
O396 O 0.00249 0.00732 0.43944 0.0
O397 O 0.96988 0.00169 0.45649 0.0
O398 O 0.03993 0.00384 0.4753 0.0
O399 O 0.03572 0.03458 0.50013 0.0
C400 C 0.05048 0.02219 0.49177 0.0
C401 C 0.97555 0.0181 0.53325 0.0
O402 O 0.02273 0.07132 0.51957 0.0
O403 O 0.00146 0.05296 0.48222 0.0
O404 O 0.03366 0.05506 0.57557 0.0
O405 O 0.05569 0.0318 0.55873 0.0
O406 O 0.98701 0.02929 0.55381 0.0
O407 O 0.99015 0.01799 0.51692 0.0
O408 O 9e-05 0.97608 0.49948 0.0
O409 O 0.02449 0.99387 0.53495 0.0
C410 C 0.01168 0.07308 0.4978 0.0
C411 C 0.01229 0.974 0.52035 0.0
Dy412 Dy 0.28729 0.78301 0.769 0.0
C413 C 0.19531 0.74639 0.71977 0.0
C414 C 0.32963 0.79386 0.7962 0.0
Dy415 Dy 0.23619 0.75742 0.74936 0.0
O416 O 0.32607 0.80002 0.77391 0.0
O417 O 0.30984 0.78265 0.80394 0.0
O418 O 0.29568 0.7926 0.73052 0.0
O419 O 0.27088 0.76024 0.73537 0.0
C420 C 0.27995 0.77386 0.71948 0.0
C421 C 0.24358 0.76623 0.79882 0.0
O422 O 0.25219 0.72279 0.74742 0.0
O423 O 0.28583 0.7414 0.77269 0.0
O424 O 0.19799 0.73848 0.74148 0.0
O425 O 0.2151 0.75964 0.71407 0.0
O426 O 0.22722 0.748 0.78791 0.0
O427 O 0.25265 0.7798 0.78293 0.0
O428 O 0.27121 0.81774 0.77154 0.0
O429 O 0.23714 0.79911 0.74689 0.0
C430 C 0.27157 0.72107 0.7608 0.0
C431 C 0.25141 0.81942 0.75882 0.0
Dy432 Dy 0.51375 0.02386 0.03755 0.0
C433 C 0.51508 -0.00394 0.9327 0.0
C434 C 0.50863 0.04225 0.08503 0.0
Dy435 Dy 0.50872 0.01354 0.9801 0.0
O436 O 0.50331 0.05246 0.06534 0.0
O437 O 0.51684 0.02195 0.0788 0.0
O438 O 0.53264 0.99111 0.03942 0.0
O439 O 0.50673 0.99057 0.01076 0.0
C440 C 0.52215 0.97922 0.01865 0.0
C441 C 0.49955 0.05769 -0.00105 0.0
O442 O 0.47291 0.9939 0.98803 0.0
O443 O 0.47441 0.01178 0.02907 0.0
O444 O 0.50593 0.01575 0.93888 0.0
O445 O 0.52042 0.98586 0.95237 0.0
O446 O 0.48911 0.04553 0.97828 0.0
O447 O 0.51544 0.04688 0.00683 0.0
O448 O 0.54965 0.04324 0.02971 0.0
O449 O 0.54798 0.026 0.9885 0.0
C450 C 0.46258 -0.00128 0.00878 0.0
C451 C 0.55986 0.03883 0.00883 0.0
Dy452 Dy 0.26262 0.30073 0.26229 0.0
C453 C 0.25452 0.19299 0.2569 0.0
C454 C 0.26092 0.35078 0.2651 0.0
Dy455 Dy 0.25044 0.24029 0.24799 0.0
O456 O 0.256 0.33635 0.28274 0.0
O457 O 0.26763 0.33793 0.24621 0.0
O458 O 0.28392 0.2948 0.29662 0.0
O459 O 0.25524 0.26703 0.28131 0.0
C460 C 0.27203 0.2719 0.29776 0.0
C461 C 0.24531 0.26555 0.20816 0.0
O462 O 0.21654 0.24634 0.26305 0.0
O463 O 0.22292 0.2904 0.2624 0.0
O464 O 0.23819 0.19787 0.24162 0.0
O465 O 0.26827 0.21377 0.26676 0.0
O466 O 0.24149 0.24081 0.20656 0.0
O467 O 0.25128 0.27384 0.23043 0.0
O468 O 0.29498 0.29539 0.24343 0.0
O469 O 0.28908 0.25126 0.24216 0.0
C470 C 0.20919 0.26826 0.26545 0.0
C471 C 0.30213 0.27359 0.2388 0.0
Dy472 Dy 0.49512 0.50635 0.97656 0.0
C473 C 0.54476 0.5358 0.07549 0.0
C474 C 0.46295 0.49551 0.93681 0.0
Dy475 Dy 0.51749 0.52853 0.03186 0.0
O476 O 0.48133 0.48505 0.9394 0.0
O477 O 0.46184 0.51112 0.95633 0.0
O478 O 0.52955 0.51389 0.95731 0.0
O479 O 0.52866 0.5223 0.99507 0.0
C480 C 0.54218 0.52367 0.97769 0.0
C481 C 0.4701 0.51894 0.02447 0.0
O482 O 0.52363 0.56355 0.01254 0.0
O483 O 0.49462 0.54827 0.98026 0.0
O484 O 0.52499 0.54354 0.07233 0.0
O485 O 0.54985 0.52484 0.05467 0.0
O486 O 0.48176 0.5362 0.04132 0.0
O487 O 0.4842 0.50674 0.01443 0.0
O488 O 0.49628 0.46966 0.99287 0.0
O489 O 0.5166 0.48686 0.03104 0.0
C490 C 0.50991 0.56707 0.99333 0.0
C491 C 0.50688 0.46723 0.01472 0.0
Dy492 Dy 0.78647 0.28781 0.26275 0.0
C493 C 0.68927 0.25252 0.2269 0.0
C494 C 0.82971 0.30109 0.28807 0.0
Dy495 Dy 0.73453 0.26176 0.24755 0.0
O496 O 0.82514 0.30543 0.26534 0.0
O497 O 0.81053 0.29005 0.29713 0.0
O498 O 0.79204 0.29814 0.22393 0.0
O499 O 0.76766 0.26573 0.22986 0.0
C500 C 0.77542 0.2798 0.21372 0.0
C501 C 0.74634 0.26957 0.2964 0.0
O502 O 0.75005 0.22669 0.24498 0.0
O503 O 0.78665 0.24631 0.26444 0.0
O504 O 0.69768 0.26885 0.24575 0.0
O505 O 0.70548 0.24037 0.21951 0.0
O506 O 0.7302 0.25067 0.28632 0.0
O507 O 0.75335 0.28397 0.28027 0.0
O508 O 0.76944 0.3216 0.2657 0.0
O509 O 0.73806 0.302 0.23808 0.0
C510 C 0.77134 0.22567 0.25478 0.0
C511 C 0.75063 0.32264 0.25112 0.0
Dy512 Dy 0.01576 0.52628 0.53789 0.0
C513 C 0.01811 0.51479 0.43093 0.0
C514 C 0.0098 0.53851 0.58675 0.0
Dy515 Dy 0.01309 0.52322 0.48051 0.0
O516 O 0.00902 0.55342 0.56947 0.0
O517 O 0.01403 0.51694 0.57737 0.0
O518 O 0.03383 0.49294 0.53666 0.0
O519 O 0.00935 0.49591 0.50762 0.0
C520 C 0.02424 0.48342 0.51473 0.0
C521 C 0.00366 0.56531 0.50421 0.0
O522 O 0.97604 0.50496 0.48519 0.0
O523 O 0.97671 0.51718 0.52766 0.0
O524 O 0.01152 0.49717 0.44525 0.0
O525 O 0.02191 0.53691 0.44369 0.0
O526 O 0.99342 0.55534 0.48272 0.0
O527 O 0.01927 0.55347 0.51076 0.0
O528 O 0.05273 0.54404 0.53271 0.0
O529 O 0.05191 0.52813 0.4912 0.0
C530 C 0.96526 0.50735 0.50604 0.0
C531 C 0.06355 0.53909 0.51239 0.0
Dy532 Dy 0.73549 0.76836 0.25545 0.0
C533 C 0.83631 0.78197 0.2508 0.0
C534 C 0.68874 0.75763 0.26419 0.0
Dy535 Dy 0.78955 0.77248 0.25968 0.0
O536 O 0.69965 0.77857 0.25666 0.0
O537 O 0.70328 0.74229 0.2664 0.0
O538 O 0.73965 0.80004 0.23112 0.0
O539 O 0.76604 0.79929 0.25907 0.0
C540 C 0.76064 0.81048 0.24088 0.0
C541 C 0.7639 0.73033 0.27385 0.0
O542 O 0.78611 0.79362 0.2963 0.0
O543 O 0.74564 0.77888 0.29651 0.0
O544 O 0.82548 0.76232 0.26055 0.0
O545 O 0.82169 0.79679 0.24651 0.0
O546 O 0.78465 0.74078 0.28423 0.0
O547 O 0.75902 0.74171 0.25566 0.0
O548 O 0.7389 0.74883 0.21795 0.0
O549 O 0.77969 0.76163 0.21874 0.0
C550 C 0.76628 0.79046 0.30791 0.0
C551 C 0.759 0.75124 0.20678 0.0
Dy552 Dy 0.75688 0.26151 0.72262 0.0
C553 C 0.76856 0.24441 0.82524 0.0
C554 C 0.74461 0.27622 0.67813 0.0
Dy555 Dy 0.75781 0.25814 0.77975 0.0
O556 O 0.75863 0.26039 0.68111 0.0
O557 O 0.7376 0.28398 0.69934 0.0
O558 O 0.78771 0.24144 0.71962 0.0
O559 O 0.78363 0.26389 0.75225 0.0
C560 C 0.79531 0.24858 0.74273 0.0
C561 C 0.71993 0.27182 0.75924 0.0
O562 O 0.77755 0.29791 0.78058 0.0
O563 O 0.77055 0.3021 0.73855 0.0
O564 O 0.78231 0.24567 0.80707 0.0
O565 O 0.74882 0.25092 0.81871 0.0
O566 O 0.72807 0.27976 0.78207 0.0
O567 O 0.73105 0.25578 0.75002 0.0
O568 O 0.73565 0.22266 0.72276 0.0
O569 O 0.74707 0.21725 0.76335 0.0
C570 C 0.77869 0.31176 0.76155 0.0
C571 C 0.73696 0.20809 0.74092 0.0
Dy572 Dy 0.76805 0.80114 0.76213 0.0
C573 C 0.75582 0.69355 0.75052 0.0
C574 C 0.76788 0.85109 0.75957 0.0
Dy575 Dy 0.75479 0.7434 0.74845 0.0
O576 O 0.77074 0.84094 0.78005 0.0
O577 O 0.76574 0.83397 0.74071 0.0
O578 O 0.78701 0.79565 0.79797 0.0
O579 O 0.75755 0.76877 0.78234 0.0
C580 C 0.77378 0.77348 0.79946 0.0
C581 C 0.74847 0.77126 0.7115 0.0
O582 O 0.72031 0.74883 0.76212 0.0
O583 O 0.72827 0.79279 0.76326 0.0
O584 O 0.75208 0.70363 0.73019 0.0
O585 O 0.75823 0.71061 0.76943 0.0
O586 O 0.73508 0.74924 0.71324 0.0
O587 O 0.76513 0.77576 0.72816 0.0
O588 O 0.80278 0.79575 0.74934 0.0
O589 O 0.79452 0.75177 0.74744 0.0
C590 C 0.71359 0.77098 0.76516 0.0
C591 C 0.80937 0.77358 0.74612 0.0
Dy592 Dy 0.48432 0.51207 0.50138 0.0
C593 C 0.58428 0.52731 0.50587 0.0
C594 C 0.43745 0.51073 0.50525 0.0
Dy595 Dy 0.53845 0.52941 0.51206 0.0
O596 O 0.44711 0.50616 0.48456 0.0
O597 O 0.45337 0.51538 0.52365 0.0
O598 O 0.49052 0.48952 0.46584 0.0
O599 O 0.514 0.52325 0.47965 0.0
C600 C 0.5105 0.50462 0.46323 0.0
C601 C 0.51276 0.53664 0.5507 0.0
O602 O 0.5311 0.56389 0.49618 0.0
O603 O 0.49055 0.55456 0.49972 0.0
O604 O 0.57724 0.54113 0.52395 0.0
O605 O 0.56639 0.51541 0.49132 0.0
O606 O 0.53324 0.551 0.54849 0.0
O607 O 0.50887 0.51836 0.53388 0.0
O608 O 0.49117 0.47646 0.51526 0.0
O609 O 0.53216 0.48748 0.5165 0.0
C610 C 0.51014 0.57045 0.49539 0.0
C611 C 0.51236 0.4708 0.51838 0.0
Dy612 Dy 0.02569 0.51245 0.00915 0.0
C613 C 0.9285 0.52157 0.9942 0.0
C614 C 0.06978 0.50242 0.01789 0.0
Dy615 Dy 0.97084 0.50846 0.0051 0.0
O616 O 0.06241 0.5111 -0.00199 0.0
O617 O 0.05319 0.49979 0.03331 0.0
O618 O 0.02833 0.53957 0.97967 0.0
O619 O -0.0014 0.51039 0.97979 0.0
C620 C 0.00737 0.52954 0.96955 0.0
C621 C 0.98841 0.49107 0.04473 0.0
O622 O 0.97267 0.47284 0.98148 0.0
O623 O 0.01074 0.47108 -0.00365 0.0
O624 O 0.9317 0.50471 0.00901 0.0
O625 O 0.94824 0.53052 0.98494 0.0
O626 O 0.96716 0.48193 0.03487 0.0
O627 O -0.00225 0.51017 0.03464 0.0
O628 O 0.02501 0.54967 0.03065 0.0
O629 O 0.98515 0.54902 0.02088 0.0
C630 C 0.99022 0.46043 0.98405 0.0
C631 C 0.00642 0.56079 0.03059 0.0
C632 C 0.98698 0.17428 0.91131 0.0
C633 C 0.99127 0.19918 0.92295 0.0
C634 C 0.98809 0.15373 0.92502 0.0
C635 C 0.99334 0.15814 0.95106 0.0
C636 C -0.00327 0.18311 0.96307 0.0
C637 C -0.0042 0.20336 0.94885 0.0
C638 C 0.98455 0.12739 0.91148 0.0
C639 C 0.00202 0.18852 0.99084 0.0
C640 C 0.98137 0.09988 0.98625 0.0
C641 C 0.00377 0.09355 0.98802 0.0
C642 C 0.97781 0.12144 0.97513 0.0
C643 C -0.00295 0.13683 0.9653 0.0
C644 C 0.01982 0.13102 0.9678 0.0
C645 C 0.02292 0.10958 0.97925 0.0
C646 C 0.95334 0.12725 0.97315 0.0
C647 C 0.04079 0.14685 0.95744 0.0
H648 H 0.98344 0.17086 0.89131 0.0
H649 H -0.00107 0.22253 0.95802 0.0
H650 H 0.00111 0.12003 0.91334 0.0
H651 H 0.97071 0.11431 0.91988 0.0
H652 H 0.97943 0.12699 0.8914 0.0
H653 H 0.00202 0.20857 -0.0024 0.0
H654 H 0.98886 0.17603 0.00064 0.0
H655 H 0.01958 0.18438 -0.00406 0.0
H656 H 0.96647 0.0877 0.99308 0.0
H657 H 0.0403 0.10489 0.98045 0.0
H658 H 0.94652 0.12443 0.95338 0.0
H659 H 0.95381 0.14736 0.98 0.0
H660 H 0.94083 0.11496 0.98384 0.0
H661 H 0.03791 0.14584 0.93694 0.0
H662 H 0.05749 0.14044 0.96189 0.0
H663 H 0.04281 0.16702 0.96493 0.0
C664 C 0.1054 0.80112 0.18604 0.0
C665 C 0.08589 0.78414 0.19296 0.0
C666 C 0.12805 0.80254 0.19735 0.0
C667 C 0.13122 0.78671 0.21609 0.0
C668 C 0.11148 0.77018 0.22373 0.0
C669 C 0.08907 0.76911 0.2121 0.0
C670 C 0.14868 0.82054 0.18886 0.0
C671 C 0.11416 0.75289 0.24357 0.0
C672 C 0.1897 0.76604 0.22544 0.0
C673 C 0.19965 0.78106 0.24729 0.0
C674 C 0.1678 0.76831 0.21472 0.0
C675 C 0.15534 0.78581 0.22632 0.0
C676 C 0.16546 0.80136 0.24819 0.0
C677 C 0.18757 0.7988 0.25844 0.0
C678 C 0.15779 0.75157 0.19123 0.0
C679 C 0.15269 0.82026 0.26103 0.0
H680 H 0.10308 0.81293 0.17138 0.0
H681 H 0.07411 0.75601 0.21766 0.0
H682 H 0.15653 0.8349 0.20451 0.0
H683 H 0.16263 0.81014 0.18312 0.0
H684 H 0.1435 0.83051 0.17309 0.0
H685 H 0.09688 0.74242 0.24857 0.0
H686 H 0.12482 0.7389 0.23691 0.0
H687 H 0.12368 0.76397 0.26057 0.0
H688 H 0.19887 0.75212 0.21686 0.0
H689 H 0.19525 0.81043 0.27535 0.0
H690 H 0.15367 0.76334 0.17654 0.0
H691 H 0.14106 0.73897 0.19479 0.0
H692 H 0.17013 0.73961 0.18407 0.0
H693 H 0.14789 0.83315 0.24774 0.0
H694 H 0.16347 0.83182 0.27712 0.0
H695 H 0.13603 0.81015 0.2677 0.0
C696 C 0.4971 0.83232 0.3994 0.0
C697 C 0.48183 0.812 0.40793 0.0
C698 C 0.49936 0.85714 0.41092 0.0
C699 C 0.48629 0.86172 0.43171 0.0
C700 C 0.47107 0.84125 0.44061 0.0
C701 C 0.46889 0.81667 0.4285 0.0
C702 C 0.51557 0.87851 0.4007 0.0
C703 C 0.45711 0.84531 0.46294 0.0
C704 C 0.50867 0.92248 0.47444 0.0
C705 C 0.49344 0.9381 0.46696 0.0
C706 C 0.50633 0.89749 0.46338 0.0
C707 C 0.48854 0.88797 0.44411 0.0
C708 C 0.47309 0.90363 0.43649 0.0
C709 C 0.47561 0.92844 0.44814 0.0
C710 C 0.52294 0.88128 0.47228 0.0
C711 C 0.4541 0.89429 0.41578 0.0
H712 H 0.50708 0.8289 0.38344 0.0
H713 H 0.45713 0.80106 0.43528 0.0
H714 H 0.50545 0.89287 0.39529 0.0
H715 H 0.52939 0.88813 0.41521 0.0
H716 H 0.5243 0.87182 0.38424 0.0
H717 H 0.44642 0.82732 0.46784 0.0
H718 H 0.46922 0.85423 0.47922 0.0
H719 H 0.44511 0.85847 0.45926 0.0
H720 H 0.52239 0.92974 0.4891 0.0
H721 H 0.46386 0.94044 0.44213 0.0
H722 H 0.53331 0.87557 0.4568 0.0
H723 H 0.51274 0.86366 0.47841 0.0
H724 H 0.53539 0.89128 0.48793 0.0
H725 H 0.4622 0.8888 0.39847 0.0
H726 H 0.44354 0.90883 0.41204 0.0
H727 H 0.44204 0.87713 0.42054 0.0
C728 C 0.46253 0.293 0.69471 0.0
C729 C 0.45866 0.28317 0.66958 0.0
C730 C 0.44356 0.29494 0.7095 0.0
C731 C 0.42016 0.28661 0.69901 0.0
C732 C 0.41614 0.27673 0.67366 0.0
C733 C 0.43542 0.27525 0.65924 0.0
C734 C 0.44854 0.3058 0.73638 0.0
C735 C 0.39144 0.2674 0.66183 0.0
C736 C 0.37016 0.26574 0.73982 0.0
C737 C 0.35825 0.286 0.74004 0.0
C738 C 0.39077 0.26606 0.72719 0.0
C739 C 0.39979 0.28728 0.71464 0.0
C740 C 0.38844 0.30835 0.71583 0.0
C741 C 0.36771 0.30742 0.72845 0.0
C742 C 0.40225 0.24317 0.7263 0.0
C743 C 0.39766 0.33144 0.70295 0.0
H744 H 0.48042 0.29933 0.70282 0.0
H745 H 0.43226 0.26763 0.63987 0.0
H746 H 0.43958 0.32203 0.74013 0.0
H747 H 0.44136 0.29129 0.74863 0.0
H748 H 0.46771 0.31232 0.74147 0.0
H749 H 0.39132 0.26056 0.64182 0.0
H750 H 0.38216 0.25168 0.6716 0.0
H751 H 0.38126 0.28283 0.66364 0.0
H752 H 0.36285 0.24913 0.74872 0.0
H753 H 0.3585 0.32311 0.72858 0.0
H754 H 0.42127 0.24894 0.73232 0.0
H755 H 0.40096 0.23409 0.7069 0.0
H756 H 0.39389 0.22887 0.73825 0.0
H757 H 0.41669 0.33849 0.70832 0.0
H758 H 0.38802 0.34704 0.70742 0.0
H759 H 0.39587 0.32632 0.68253 0.0
C760 C 0.99387 0.84818 0.588 0.0
C761 C 0.00727 0.83058 0.57914 0.0
C762 C 0.99421 0.8708 0.57714 0.0
C763 C 0.0084 0.87607 0.557 0.0
C764 C 0.02173 0.85826 0.54775 0.0
C765 C 0.02096 0.8357 0.55888 0.0
C766 C 0.97965 0.88927 0.58748 0.0
C767 C 0.03716 0.86326 0.52639 0.0
C768 C -0.00447 0.9273 0.51769 0.0
C769 C 0.01208 0.94849 0.52845 0.0
C770 C -0.00567 0.90347 0.52652 0.0
C771 C 0.01012 0.90078 0.54647 0.0
C772 C 0.02719 0.92197 0.55699 0.0
C773 C 0.02793 0.94553 0.54791 0.0
C774 C 0.9758 0.88133 0.51492 0.0
C775 C 0.04443 0.9199 0.5782 0.0
H776 H 0.98313 0.84435 0.60355 0.0
H777 H 0.03136 0.82222 0.55188 0.0
H778 H 0.99142 0.90734 0.59511 0.0
H779 H 0.96784 0.89368 0.57246 0.0
H780 H 0.96873 0.88184 0.60244 0.0
H781 H 0.04572 0.84708 0.52075 0.0
H782 H 0.02657 0.86715 0.51009 0.0
H783 H 0.05112 0.88036 0.53172 0.0
H784 H 0.98314 0.92941 0.50275 0.0
H785 H 0.04089 0.96171 0.55628 0.0
H786 H 0.96345 0.87467 0.52901 0.0
H787 H 0.98417 0.86527 0.50848 0.0
H788 H 0.96548 0.88628 0.49892 0.0
H789 H 0.03471 0.91441 0.59461 0.0
H790 H 0.05717 0.93796 0.58371 0.0
H791 H 0.05444 0.90486 0.57293 0.0
C792 C 0.4452 0.74902 0.83927 0.0
C793 C 0.46223 0.76708 0.85395 0.0
C794 C 0.42385 0.75501 0.83066 0.0
C795 C 0.41936 0.77961 0.83703 0.0
C796 C 0.43642 0.79788 0.85194 0.0
C797 C 0.45766 0.79144 0.86014 0.0
C798 C 0.40612 0.73504 0.81466 0.0
C799 C 0.4322 0.82423 0.8593 0.0
C800 C 0.37334 0.80004 0.79531 0.0
C801 C 0.35306 0.79402 0.80834 0.0
C802 C 0.39522 0.79612 0.80477 0.0
C803 C 0.39683 0.78617 0.82792 0.0
C804 C 0.37662 0.78133 0.84174 0.0
C805 C 0.35491 0.7852 0.83171 0.0
C806 C 0.41635 0.80149 0.78945 0.0
C807 C 0.37768 0.77106 0.86664 0.0
H808 H 0.44857 0.73018 0.83438 0.0
H809 H 0.47066 0.80551 0.87158 0.0
H810 H 0.3892 0.73136 0.8237 0.0
H811 H 0.40246 0.7419 0.79648 0.0
H812 H 0.41233 0.71688 0.81126 0.0
H813 H 0.44713 0.83615 0.87125 0.0
H814 H 0.42946 0.83376 0.84245 0.0
H815 H 0.41593 0.82313 0.86947 0.0
H816 H 0.37193 0.80676 0.77717 0.0
H817 H 0.33923 0.78052 0.84181 0.0
H818 H 0.43137 0.81396 0.80073 0.0
H819 H 0.41251 0.81064 0.77262 0.0
H820 H 0.42204 0.78349 0.78353 0.0
H821 H 0.38137 0.75161 0.86412 0.0
H822 H 0.36094 0.77037 0.87595 0.0
H823 H 0.39227 0.7829 0.87905 0.0
C824 C 0.47208 0.18152 0.07582 0.0
C825 C 0.48259 0.20316 0.06507 0.0
C826 C 0.47262 0.15713 0.06469 0.0
C827 C 0.48412 0.15436 0.04243 0.0
C828 C 0.49402 0.17608 0.03105 0.0
C829 C 0.493 0.20022 0.04243 0.0
C830 C 0.46151 0.13433 0.07709 0.0
C831 C 0.50668 0.1739 0.00747 0.0
C832 C 0.51101 0.09625 0.02915 0.0
C833 C 0.49507 0.08195 0.01046 0.0
C834 C 0.50743 0.11968 0.03996 0.0
C835 C 0.48733 0.12894 0.03195 0.0
C836 C 0.47093 0.11432 0.0134 0.0
C837 C 0.47508 0.091 0.00273 0.0
C838 C 0.52537 0.13473 0.05966 0.0
C839 C 0.44915 0.12343 0.00466 0.0
H840 H 0.46383 0.18365 0.09322 0.0
H841 H 0.50119 0.21682 0.03402 0.0
H842 H 0.44801 0.12164 0.06403 0.0
H843 H 0.47505 0.12328 0.08199 0.0
H844 H 0.45305 0.1397 0.09423 0.0
H845 H 0.51227 0.19252 0.00024 0.0
H846 H 0.52257 0.16575 0.01104 0.0
H847 H 0.49517 0.16087 0.99285 0.0
H848 H 0.52652 0.08928 0.0351 0.0
H849 H 0.46269 0.07983 0.98837 0.0
H850 H 0.51672 0.13849 0.07707 0.0
H851 H 0.53301 0.15335 0.05346 0.0
H852 H 0.53995 0.12474 0.06388 0.0
H853 H 0.4389 0.12777 0.02073 0.0
H854 H 0.43755 0.10923 0.991 0.0
H855 H 0.45431 0.14123 -0.00408 0.0
C856 C 0.11476 0.28703 0.3596 0.0
C857 C 0.09085 0.27991 0.35137 0.0
C858 C 0.13253 0.28475 0.34335 0.0
C859 C 0.12628 0.27539 0.31812 0.0
C860 C 0.10219 0.26852 0.30955 0.0
C861 C 0.08473 0.2707 0.32633 0.0
C862 C 0.15802 0.29204 0.3533 0.0
C863 C 0.09488 0.25875 0.28272 0.0
C864 C 0.17637 0.29083 0.27598 0.0
C865 C 0.1857 0.26865 0.27507 0.0
C866 C 0.15615 0.29281 0.28873 0.0
C867 C 0.14515 0.27221 0.30107 0.0
C868 C 0.15371 0.2493 0.29905 0.0
C869 C 0.17379 0.24775 0.28595 0.0
C870 C 0.14737 0.31744 0.29011 0.0
C871 C 0.14259 0.22694 0.31205 0.0
H872 H 0.11965 0.29409 0.37892 0.0
H873 H 0.06629 0.26529 0.31979 0.0
H874 H 0.16665 0.27541 0.35063 0.0
H875 H 0.16766 0.30699 0.34286 0.0
H876 H 0.15991 0.29911 0.37337 0.0
H877 H 0.07544 0.25511 0.27881 0.0
H878 H 0.10316 0.27264 0.27038 0.0
H879 H 0.10118 0.24088 0.27789 0.0
H880 H 0.18532 0.30703 0.26747 0.0
H881 H 0.18083 0.23053 0.28542 0.0
H882 H 0.1511 0.32722 0.30925 0.0
H883 H 0.12799 0.3138 0.28595 0.0
H884 H 0.15593 0.33037 0.27701 0.0
H885 H 0.14569 0.23181 0.33247 0.0
H886 H 0.14992 0.20978 0.30677 0.0
H887 H 0.12323 0.22235 0.3077 0.0
C888 C 0.9187 0.04549 0.15843 0.0
C889 C 0.92777 0.03723 0.18003 0.0
C890 C 0.9315 0.04694 0.13702 0.0
C891 C 0.95392 0.04006 0.13722 0.0
C892 C 0.96329 0.03209 0.15908 0.0
C893 C 0.95014 0.0308 0.18017 0.0
C894 C 0.92101 0.05577 0.11417 0.0
C895 C 0.98705 0.02443 0.16004 0.0
C896 C 0.9779 0.01741 0.07691 0.0
C897 C -0.00524 0.03865 0.07273 0.0
C898 C 0.96403 0.0179 0.0974 0.0
C899 C 0.96726 0.0401 0.11435 0.0
C900 C 0.98401 0.06176 0.11001 0.0
C901 C -0.00241 0.06077 0.08923 0.0
C902 C 0.94619 0.99449 0.10115 0.0
C903 C 0.9879 0.08581 0.12757 0.0
H904 H 0.9015 0.05063 0.15815 0.0
H905 H 0.95735 0.02442 0.19673 0.0
H906 H 0.93146 0.07445 0.11085 0.0
H907 H 0.9218 0.0424 0.09754 0.0
H908 H 0.90238 0.05768 0.11602 0.0
H909 H 0.99219 0.01945 0.17869 0.0
H910 H 0.98672 0.00783 0.14622 0.0
H911 H 0.00083 0.04007 0.15507 0.0
H912 H 0.97583 0.00015 0.06438 0.0
H913 H 0.01059 0.07723 0.08603 0.0
H914 H 0.92842 -0.0008 0.10245 0.0
H915 H 0.95081 0.98732 0.1189 0.0
H916 H 0.94526 0.97908 0.0858 0.0
H917 H 0.97098 0.09228 0.12975 0.0
H918 H 0.00086 0.10131 0.12103 0.0
H919 H -0.00562 0.08211 0.14622 0.0
C920 C 0.30916 0.72078 0.46148 0.0
C921 C 0.29884 0.69501 0.46071 0.0
C922 C 0.30818 0.73365 0.44026 0.0
C923 C 0.29656 0.72038 0.41794 0.0
C924 C 0.28702 0.69415 0.41681 0.0
C925 C 0.28831 0.68178 0.4382 0.0
C926 C 0.319 0.76151 0.44185 0.0
C927 C 0.27474 0.6793 0.39319 0.0
C928 C 0.2668 0.75199 0.36968 0.0
C929 C 0.28175 0.75074 0.3503 0.0
C930 C 0.27216 0.74348 0.39251 0.0
C931 C 0.29309 0.73389 0.39595 0.0
C932 C 0.30907 0.73439 0.37699 0.0
C933 C 0.30305 0.74258 0.35423 0.0
C934 C 0.25469 0.74321 0.41232 0.0
C935 C 0.33179 0.72481 0.38 0.0
H936 H 0.31748 0.73107 0.47879 0.0
H937 H 0.28051 0.66181 0.43738 0.0
H938 H 0.3312 0.76511 0.42685 0.0
H939 H 0.30496 0.77256 0.43909 0.0
H940 H 0.32885 0.76863 0.46005 0.0
H941 H 0.26886 0.65885 0.39527 0.0
H942 H 0.25909 0.6871 0.38766 0.0
H943 H 0.28674 0.68111 0.37784 0.0
H944 H 0.25039 0.75846 0.3666 0.0
H945 H 0.31475 0.74197 0.33927 0.0
H946 H 0.26376 0.75179 0.4305 0.0
H947 H 0.24642 0.72332 0.41448 0.0
H948 H 0.24051 0.75361 0.40771 0.0
H949 H 0.33956 0.72878 0.39943 0.0
H950 H 0.34502 0.73349 0.36758 0.0
H951 H 0.32816 0.70398 0.37502 0.0
C952 C 0.56858 0.96027 0.65394 0.0
C953 C 0.56054 0.97119 0.67558 0.0
C954 C 0.55654 0.95973 0.63073 0.0
C955 C 0.53622 0.97063 0.62926 0.0
C956 C 0.52714 0.98006 0.65122 0.0
C957 C 0.53934 0.98006 0.67417 0.0
C958 C 0.56641 0.94906 0.60767 0.0
C959 C 0.50565 0.99211 0.65037 0.0
C960 C 0.52594 0.00496 0.57354 0.0
C961 C 0.50621 0.9888 0.56104 0.0
C962 C 0.5362 -0.00115 0.59544 0.0
C963 C 0.52661 0.97584 0.60488 0.0
C964 C 0.50716 0.95897 0.59186 0.0
C965 C 0.49698 0.96581 0.57009 0.0
C966 C 0.55683 0.01747 0.60888 0.0
C967 C 0.49687 0.93405 0.60117 0.0
H968 H 0.58478 0.95304 0.65497 0.0
H969 H 0.53291 0.98834 0.69084 0.0
H970 H 0.55219 0.93633 0.59548 0.0
H971 H 0.57407 0.96474 0.59691 0.0
H972 H 0.58039 0.93837 0.61217 0.0
H973 H 0.49938 -0.00405 0.66914 0.0
H974 H 0.51001 0.01032 0.64214 0.0
H975 H 0.49103 0.97977 0.63842 0.0
H976 H 0.53305 0.02278 0.56653 0.0
H977 H 0.48181 0.95325 0.56021 0.0
H978 H 0.57215 0.00817 0.6114 0.0
H979 H 0.55207 0.02401 0.62765 0.0
H980 H 0.56235 0.03433 0.59875 0.0
H981 H 0.51101 0.92344 0.60515 0.0
H982 H 0.48336 0.922 0.5876 0.0
H983 H 0.48856 0.93758 0.61884 0.0
C984 C 0.25332 0.36425 0.94158 0.0
C985 C 0.26337 0.35393 0.96132 0.0
C986 C 0.25401 0.35411 0.91681 0.0
C987 C 0.26473 0.3329 0.91161 0.0
C988 C 0.2746 0.32216 0.93147 0.0
C989 C 0.27393 0.33288 0.95605 0.0
C990 C 0.24344 0.36625 0.89617 0.0
C991 C 0.28588 0.29932 0.92676 0.0
C992 C 0.24666 0.29327 0.84937 0.0
C993 C 0.26573 0.30169 0.83522 0.0
C994 C 0.2463 0.30295 0.87431 0.0
C995 C 0.26535 0.32179 0.88539 0.0
C996 C 0.28475 0.33028 0.87129 0.0
C997 C 0.28478 0.32 0.84643 0.0
C998 C 0.22543 0.29312 0.88874 0.0
C999 C 0.30528 0.35054 0.88234 0.0
H1000 H 0.24524 0.38059 0.94542 0.0
H1001 H 0.2817 0.32473 0.97117 0.0
H1002 H 0.25708 0.37253 0.88319 0.0
H1003 H 0.22919 0.35222 0.88532 0.0
H1004 H 0.23605 0.38285 0.90328 0.0
H1005 H 0.29246 0.293 0.94424 0.0
H1006 H 0.27295 0.28337 0.91657 0.0
H1007 H 0.30087 0.30377 0.91488 0.0
H1008 H 0.23193 0.27897 0.84097 0.0
H1009 H 0.29953 0.32671 0.83563 0.0
H1010 H 0.21643 0.30881 0.89476 0.0
H1011 H 0.23149 0.28564 0.90577 0.0
H1012 H 0.2124 0.27785 0.87766 0.0
H1013 H 0.29898 0.36817 0.88827 0.0
H1014 H 0.31909 0.35492 0.86902 0.0
H1015 H 0.31336 0.34443 0.89914 0.0
C1016 C 0.91243 0.98628 0.30002 0.0
C1017 C 0.90872 0.00985 0.29359 0.0
C1018 C 0.92366 0.98403 0.32302 0.0
C1019 C 0.93147 0.00589 0.34008 0.0
C1020 C 0.92788 0.02977 0.33372 0.0
C1021 C 0.91653 0.03147 0.31055 0.0
C1022 C 0.92716 0.95823 0.32908 0.0
C1023 C 0.93603 0.05353 0.35139 0.0
C1024 C 0.94251 -0.00181 0.40854 0.0
C1025 C 0.96712 0.0012 0.41082 0.0
C1026 C 0.93061 -0.00059 0.38556 0.0
C1027 C 0.9437 0.0038 0.36443 0.0
C1028 C 0.96853 0.00634 0.3666 0.0
C1029 C 0.97994 0.00499 0.38976 0.0
C1030 C 0.90411 -0.00355 0.38397 0.0
C1031 C 0.98312 0.01096 0.34453 0.0
H1032 H 0.90644 0.96943 0.28709 0.0
H1033 H 0.91374 0.04975 0.30578 0.0
H1034 H 0.94624 0.95842 0.33261 0.0
H1035 H 0.91851 0.95346 0.3463 0.0
H1036 H 0.91988 0.94306 0.31387 0.0
H1037 H 0.93183 0.07062 0.34371 0.0
H1038 H 0.92757 0.05143 0.36921 0.0
H1039 H 0.95537 0.05658 0.35566 0.0
H1040 H 0.93257 -0.00466 0.42482 0.0
H1041 H -0.00101 0.00741 0.39149 0.0
H1042 H 0.89607 0.98079 0.36956 0.0
H1043 H 0.8991 0.01402 0.37832 0.0
H1044 H 0.89648 0.99246 0.40193 0.0
H1045 H 0.977 -0.0044 0.32922 0.0
H1046 H 0.0022 0.01199 0.3492 0.0
H1047 H 0.98082 0.029 0.33744 0.0
C1048 C 0.30656 0.68572 0.6071 0.0
C1049 C 0.29529 0.6873 0.58398 0.0
C1050 C 0.30456 0.70266 0.62778 0.0
C1051 C 0.29102 0.72161 0.62519 0.0
C1052 C 0.28045 0.72399 0.60168 0.0
C1053 C 0.28272 0.70679 0.58134 0.0
C1054 C 0.31612 0.69961 0.65262 0.0
C1055 C 0.2659 0.74397 0.59825 0.0
C1056 C 0.26428 0.74149 0.68422 0.0
C1057 C 0.28045 0.76354 0.69345 0.0
C1058 C 0.26695 0.72828 0.66141 0.0
C1059 C 0.28627 0.7374 0.64754 0.0
C1060 C 0.3018 0.76054 0.65601 0.0
C1061 C 0.29866 0.77344 0.67895 0.0
C1062 C 0.24986 0.7038 0.65289 0.0
C1063 C 0.32249 0.77088 0.64158 0.0
H1064 H 0.31639 0.6708 0.60924 0.0
H1065 H 0.2741 0.70829 0.56347 0.0
H1066 H 0.32701 0.71794 0.66093 0.0
H1067 H 0.30237 0.69375 0.66562 0.0
H1068 H 0.3275 0.68521 0.65112 0.0
H1069 H 0.26083 0.7449 0.57836 0.0
H1070 H 0.24957 0.73972 0.60825 0.0
H1071 H 0.27576 0.76289 0.60633 0.0
H1072 H 0.25012 0.73389 0.69539 0.0
H1073 H 0.31117 0.79051 0.68609 0.0
H1074 H 0.25912 0.68765 0.65341 0.0
H1075 H 0.24301 0.70382 0.63341 0.0
H1076 H 0.23468 0.70053 0.66475 0.0
H1077 H 0.33566 0.75845 0.64227 0.0
H1078 H 0.33123 0.79042 0.64918 0.0
H1079 H 0.31677 0.77097 0.62176 0.0
C1080 C 0.59978 -0.00385 0.82703 0.0
C1081 C 0.59096 0.984 0.80353 0.0
C1082 C 0.58547 -0.00475 0.84716 0.0
C1083 C 0.56186 0.98172 0.84369 0.0
C1084 C 0.5531 0.96867 0.82025 0.0
C1085 C 0.56775 0.97004 0.80038 0.0
C1086 C 0.59542 0.00943 0.87196 0.0
C1087 C 0.52811 0.9538 0.81602 0.0
C1088 C 0.53392 0.96867 0.90392 0.0
C1089 C 0.52288 0.98946 0.90799 0.0
C1090 C 0.5455 0.9649 0.88218 0.0
C1091 C 0.54615 0.98251 0.86438 0.0
C1092 C 0.53363 0.00254 0.8677 0.0
C1093 C 0.52202 0.00572 0.88951 0.0
C1094 C 0.55834 0.94308 0.87912 0.0
C1095 C 0.53387 0.02166 0.84908 0.0
H1096 H 0.61771 0.00691 0.8296 0.0
H1097 H 0.56087 0.96044 0.78228 0.0
H1098 H 0.5854 0.02451 0.8771 0.0
H1099 H 0.59349 -0.00361 0.88667 0.0
H1100 H 0.61436 0.01833 0.87176 0.0
H1101 H 0.52456 0.94321 0.79719 0.0
H1102 H 0.52451 0.94014 0.83007 0.0
H1103 H 0.51555 0.96686 0.81828 0.0
H1104 H 0.53443 0.95599 0.91821 0.0
H1105 H 0.51342 0.02177 0.89268 0.0
H1106 H 0.57758 0.95038 0.88275 0.0
H1107 H 0.55535 0.93359 0.85984 0.0
H1108 H 0.55272 0.92879 0.89218 0.0
H1109 H 0.55191 0.03326 0.84923 0.0
H1110 H 0.52144 0.03458 0.85322 0.0
H1111 H 0.52921 0.01193 0.83003 0.0
C1112 C 0.21748 0.33942 0.09218 0.0
C1113 C 0.23808 0.35365 0.08411 0.0
C1114 C 0.2183 0.32536 0.11264 0.0
C1115 C 0.24026 0.32548 0.12543 0.0
C1116 C 0.26111 0.33993 0.11751 0.0
C1117 C 0.25979 0.35379 0.09693 0.0
C1118 C 0.19563 0.31042 0.12063 0.0
C1119 C 0.28484 0.34072 0.13077 0.0
C1120 C 0.24086 0.30602 0.19129 0.0
C1121 C 0.24381 0.28088 0.18716 0.0
C1122 C 0.23944 0.32073 0.1714 0.0
C1123 C 0.24141 0.31012 0.14682 0.0
C1124 C 0.24428 0.28463 0.14261 0.0
C1125 C 0.24525 0.27028 0.16281 0.0
C1126 C 0.23605 0.34766 0.17686 0.0
C1127 C 0.24639 0.27254 0.11674 0.0
H1128 H 0.20059 0.33921 0.08251 0.0
H1129 H 0.27581 0.36479 0.09095 0.0
H1130 H 0.19652 0.29004 0.11974 0.0
H1131 H 0.19319 0.31686 0.14023 0.0
H1132 H 0.17997 0.31243 0.10887 0.0
H1133 H 0.2994 0.35285 0.12234 0.0
H1134 H 0.28468 0.34808 0.15058 0.0
H1135 H 0.28852 0.32129 0.13035 0.0
H1136 H 0.23919 0.31403 0.21004 0.0
H1137 H 0.24749 0.2508 0.15959 0.0
H1138 H 0.22312 0.35227 0.16309 0.0
H1139 H 0.25309 0.36083 0.1757 0.0
H1140 H 0.22988 0.35112 0.19572 0.0
H1141 H 0.23041 0.27297 0.10473 0.0
H1142 H 0.24862 0.25257 0.11661 0.0
H1143 H 0.2617 0.28346 0.10837 0.0
C1144 C 0.16231 0.93946 0.00146 0.0
C1145 C 0.18686 0.94565 0.00078 0.0
C1146 C 0.14888 0.95843 0.00377 0.0
C1147 C 0.16033 0.98421 0.00547 0.0
C1148 C 0.18509 0.99064 0.00474 0.0
C1149 C 0.1981 0.97125 0.00235 0.0
C1150 C 0.12241 0.95084 0.0044 0.0
C1151 C 0.1978 0.01794 0.00648 0.0
C1152 C 0.11727 0.02492 0.98852 0.0
C1153 C 0.10901 0.03073 0.01181 0.0
C1154 C 0.13573 0.01166 0.98627 0.0
C1155 C 0.14603 0.0042 0.00788 0.0
C1156 C 0.1396 0.01268 0.03163 0.0
C1157 C 0.12106 0.02593 0.03332 0.0
C1158 C 0.14225 0.00333 0.96059 0.0
C1159 C 0.15052 0.0055 0.05512 0.0
H1160 H 0.15352 0.91975 0.00026 0.0
H1161 H 0.2171 0.9762 0.00187 0.0
H1162 H 0.11664 0.95921 0.02198 0.0
H1163 H 0.11358 0.95831 0.98888 0.0
H1164 H 0.11627 0.92996 0.00289 0.0
H1165 H 0.21719 0.01975 0.00581 0.0
H1166 H 0.19121 0.02732 0.99098 0.0
H1167 H 0.19412 0.02833 0.02404 0.0
H1168 H 0.10806 0.02883 0.97184 0.0
H1169 H 0.11477 0.0306 0.05136 0.0
H1170 H 0.13229 0.98384 0.95461 0.0
H1171 H 0.16132 0.00301 0.96029 0.0
H1172 H 0.13771 0.01596 0.94685 0.0
H1173 H 0.14315 0.98534 0.05715 0.0
H1174 H 0.14684 0.01726 0.07188 0.0
H1175 H 0.16988 0.00752 0.05432 0.0
C1176 C 0.66291 0.62397 0.98579 0.0
C1177 C 0.68287 0.61282 0.98508 0.0
C1178 C 0.6401 0.60904 0.98417 0.0
C1179 C 0.63723 0.58231 0.98239 0.0
C1180 C 0.65732 0.57093 0.98172 0.0
C1181 C 0.67991 0.58633 0.98278 0.0
C1182 C 0.61909 0.62186 0.9844 0.0
C1183 C 0.65498 0.54252 0.9803 0.0
C1184 C 0.57912 0.54658 0.00203 0.0
C1185 C 0.56686 0.53752 0.97906 0.0
C1186 C 0.60227 0.56064 0.00343 0.0
C1187 C 0.61316 0.5663 0.98124 0.0
C1188 C 0.6008 0.5572 0.95795 0.0
C1189 C 0.57786 0.54269 0.95715 0.0
C1190 C 0.61497 0.56964 0.02863 0.0
C1191 C 0.61157 0.56329 0.93389 0.0
H1192 H 0.6651 0.64445 0.98741 0.0
H1193 H 0.6953 0.57763 0.98243 0.0
H1194 H 0.60706 0.61467 0.9676 0.0
H1195 H 0.60895 0.61731 0.00078 0.0
H1196 H 0.6243 0.64279 0.98502 0.0
H1197 H 0.67235 0.53666 0.98021 0.0
H1198 H 0.64571 0.53529 -0.00361 0.0
H1199 H 0.64416 0.53335 0.96323 0.0
H1200 H 0.57057 0.54279 0.01892 0.0
H1201 H 0.56833 0.53589 0.93933 0.0
H1202 H 0.61862 0.59064 0.03151 0.0
H1203 H 0.63222 0.56356 0.02967 0.0
H1204 H 0.60459 0.56225 0.044 0.0
H1205 H 0.61571 0.58414 0.93335 0.0
H1206 H 0.59969 0.55461 0.91734 0.0
H1207 H 0.62842 0.55648 0.93269 0.0
C1208 C 0.68428 0.43707 0.27832 0.0
C1209 C 0.68907 0.45614 0.26237 0.0
C1210 C 0.69512 0.41589 0.27609 0.0
C1211 C 0.71115 0.41367 0.25746 0.0
C1212 C 0.71615 0.43289 0.24139 0.0
C1213 C 0.70508 0.45388 0.24404 0.0
C1214 C 0.68931 0.3958 0.2936 0.0
C1215 C 0.73309 0.43119 0.22126 0.0
C1216 C 0.75344 0.36865 0.26596 0.0
C1217 C 0.7419 0.34674 0.25098 0.0
C1218 C 0.74389 0.39076 0.26785 0.0
C1219 C 0.72227 0.39095 0.2545 0.0
C1220 C 0.71086 0.36912 0.23887 0.0
C1221 C 0.72082 0.34735 0.23726 0.0
C1222 C 0.75662 0.41368 0.28468 0.0
C1223 C 0.68776 0.36849 0.22434 0.0
H1224 H 0.67198 0.43863 0.29256 0.0
H1225 H 0.70892 0.4685 0.23163 0.0
H1226 H 0.68144 0.37734 0.28288 0.0
H1227 H 0.70567 0.39331 0.3038 0.0
H1228 H 0.67678 0.40053 0.30734 0.0
H1229 H 0.73541 0.44794 0.21057 0.0
H1230 H 0.75057 0.42954 0.22955 0.0
H1231 H 0.72658 0.41391 0.20818 0.0
H1232 H 0.76968 0.3684 0.27668 0.0
H1233 H 0.71168 0.33055 0.22566 0.0
H1234 H 0.74548 0.41785 0.30002 0.0
H1235 H 0.7598 0.43054 0.27422 0.0
H1236 H 0.7738 0.4109 0.29286 0.0
H1237 H 0.67402 0.37126 0.23733 0.0
H1238 H 0.68152 0.3503 0.21242 0.0
H1239 H 0.68964 0.38422 0.2124 0.0
C1240 C 0.82547 0.45608 0.49968 0.0
C1241 C 0.82126 0.43285 0.50986 0.0
C1242 C 0.84846 0.46986 0.49894 0.0
C1243 C 0.86763 0.46003 0.50844 0.0
C1244 C 0.86351 0.43672 0.51893 0.0
C1245 C 0.84032 0.42344 0.51961 0.0
C1246 C 0.85227 0.49479 0.48783 0.0
C1247 C 0.88361 0.42564 0.52911 0.0
C1248 C 0.92826 0.48042 0.48546 0.0
C1249 C 0.93976 0.49702 0.50571 0.0
C1250 C 0.90457 0.46864 0.48589 0.0
C1251 C 0.8921 0.47381 0.50697 0.0
C1252 C 0.90334 0.49127 0.52707 0.0
C1253 C 0.9271 0.50261 0.52624 0.0
C1254 C 0.89312 0.45001 0.46416 0.0
C1255 C 0.89045 0.49743 0.54972 0.0
H1256 H 0.81078 0.46351 0.49223 0.0
H1257 H 0.83718 0.40549 0.52747 0.0
H1258 H 0.86241 0.51009 0.50148 0.0
H1259 H 0.86285 0.4936 0.47139 0.0
H1260 H 0.8354 0.50018 0.482 0.0
H1261 H 0.87735 0.40745 0.5369 0.0
H1262 H 0.89543 0.4223 0.51417 0.0
H1263 H 0.89428 0.43922 0.54392 0.0
H1264 H 0.93795 0.47596 0.46956 0.0
H1265 H 0.93584 0.51562 0.54186 0.0
H1266 H 0.8767 0.45537 0.45694 0.0
H1267 H 0.88811 0.43084 0.47035 0.0
H1268 H 0.90495 0.44896 0.44873 0.0
H1269 H 0.90129 0.51263 0.56302 0.0
H1270 H 0.8855 0.48022 0.55944 0.0
H1271 H 0.87388 0.50351 0.54411 0.0
C1272 C 0.33781 0.10496 0.23533 0.0
C1273 C 0.33801 0.08441 0.24909 0.0
C1274 C 0.31933 0.11827 0.23662 0.0
C1275 C 0.3003 0.11016 0.25136 0.0
C1276 C 0.29953 0.08811 0.26362 0.0
C1277 C 0.31871 0.07577 0.26277 0.0
C1278 C 0.32101 0.14201 0.2236 0.0
C1279 C 0.27911 0.07827 0.27862 0.0
C1280 C 0.27729 0.16641 0.27818 0.0
C1281 C 0.26034 0.16811 0.25943 0.0
C1282 C 0.28915 0.1462 0.27695 0.0
C1283 C 0.28342 0.12704 0.25672 0.0
C1284 C 0.26409 0.12695 0.23962 0.0
C1285 C 0.25279 0.14779 0.24103 0.0
C1286 C 0.30958 0.14704 0.2957 0.0
C1287 C 0.25676 0.10611 0.21857 0.0
H1288 H 0.35274 0.1115 0.2247 0.0
H1289 H 0.31873 0.05948 0.27302 0.0
H1290 H 0.30476 0.14107 0.21154 0.0
H1291 H 0.32265 0.15875 0.23759 0.0
H1292 H 0.3364 0.14501 0.21201 0.0
H1293 H 0.27826 0.05804 0.28145 0.0
H1294 H 0.2812 0.0894 0.29715 0.0
H1295 H 0.26211 0.08029 0.26941 0.0
H1296 H 0.28272 0.18198 0.29274 0.0
H1297 H 0.23943 0.14903 0.2267 0.0
H1298 H 0.32639 0.15111 0.28647 0.0
H1299 H 0.30852 0.12849 0.30313 0.0
H1300 H 0.31019 0.16186 0.31153 0.0
H1301 H 0.26877 0.10948 0.20339 0.0
H1302 H 0.23847 0.10549 0.21091 0.0
H1303 H 0.25793 0.08738 0.22478 0.0
C1304 C 0.34243 0.1135 0.51208 0.0
C1305 C 0.32203 0.10841 0.49587 0.0
C1306 C 0.35969 0.09853 0.50991 0.0
C1307 C 0.35663 0.07803 0.49095 0.0
C1308 C 0.33601 0.07263 0.47463 0.0
C1309 C 0.3189 0.08781 0.47735 0.0
C1310 C 0.38137 0.10485 0.5278 0.0
C1311 C 0.33225 0.0511 0.45404 0.0
C1312 C 0.41368 0.05829 0.47348 0.0
C1313 C 0.41372 0.03733 0.48683 0.0
C1314 C 0.39461 0.07087 0.47358 0.0
C1315 C 0.37539 0.06275 0.48799 0.0
C1316 C 0.3751 0.04123 0.50109 0.0
C1317 C 0.39425 0.02868 0.50025 0.0
C1318 C 0.39555 0.09352 0.45908 0.0
C1319 C 0.35507 0.03214 0.51688 0.0
H1320 H 0.34499 0.12929 0.5265 0.0
H1321 H 0.30323 0.08377 0.4647 0.0
H1322 H 0.38331 0.08805 0.5374 0.0
H1323 H 0.39736 0.10995 0.51745 0.0
H1324 H 0.3807 0.12086 0.54203 0.0
H1325 H 0.31508 0.04908 0.44319 0.0
H1326 H 0.34662 0.05428 0.4412 0.0
H1327 H 0.33294 0.03301 0.46187 0.0
H1328 H 0.42895 0.06546 0.4636 0.0
H1329 H 0.39433 0.01262 0.51078 0.0
H1330 H 0.39788 0.11104 0.47215 0.0
H1331 H 0.37875 0.09197 0.44773 0.0
H1332 H 0.41028 0.09552 0.44657 0.0
H1333 H 0.35482 0.04673 0.53267 0.0
H1334 H 0.35664 0.01409 0.52443 0.0
H1335 H 0.33792 0.02936 0.5059 0.0
C1336 C 0.70207 0.58957 0.29118 0.0
C1337 C 0.68019 0.58784 0.30161 0.0
C1338 C 0.71623 0.61321 0.28864 0.0
C1339 C 0.7085 0.63568 0.29705 0.0
C1340 C 0.68702 0.63407 0.30874 0.0
C1341 C 0.67305 0.61016 0.31077 0.0
C1342 C 0.73891 0.61412 0.27581 0.0
C1343 C 0.67836 0.65762 0.31828 0.0
C1344 C 0.75426 0.69699 0.3027 0.0
C1345 C 0.74925 0.70676 0.28045 0.0
C1346 C 0.74074 0.67417 0.30874 0.0
C1347 C 0.72207 0.66071 0.2919 0.0
C1348 C 0.7168 0.67074 0.26953 0.0
C1349 C 0.73038 0.69373 0.26416 0.0
C1350 C 0.74658 0.66432 0.33296 0.0
C1351 C 0.69716 0.6569 0.25099 0.0
H1352 H 0.70772 0.57244 0.284 0.0
H1353 H 0.65624 0.60899 0.319 0.0
H1354 H 0.73749 0.62267 0.2581 0.0
H1355 H 0.75383 0.62627 0.28751 0.0
H1356 H 0.7431 0.59501 0.27164 0.0
H1357 H 0.6623 0.65316 0.32871 0.0
H1358 H 0.69235 0.67054 0.3306 0.0
H1359 H 0.67422 0.66802 0.30247 0.0
H1360 H 0.76877 0.70718 0.31538 0.0
H1361 H 0.7265 0.70125 0.24691 0.0
H1362 H 0.75236 0.64598 0.32921 0.0
H1363 H 0.73064 0.66073 0.34366 0.0
H1364 H 0.76076 0.67774 0.34464 0.0
H1365 H 0.70061 0.63794 0.24446 0.0
H1366 H 0.69523 0.66739 0.23458 0.0
H1367 H 0.68017 0.65387 0.25993 0.0
C1368 C 0.87647 0.43728 0.76962 0.0
C1369 C 0.86775 0.45949 0.77515 0.0
C1370 C 0.86166 0.41337 0.76878 0.0
C1371 C 0.83765 0.41172 0.77369 0.0
C1372 C 0.82891 0.43403 0.77995 0.0
C1373 C 0.84405 0.45765 0.78056 0.0
C1374 C 0.87156 0.38991 0.76203 0.0
C1375 C 0.80343 0.43299 0.78543 0.0
C1376 C 0.79474 0.35285 0.74526 0.0
C1377 C 0.79204 0.33821 0.76535 0.0
C1378 C 0.80931 0.37694 0.74785 0.0
C1379 C 0.82139 0.3867 0.77111 0.0
C1380 C 0.81819 0.37242 0.79168 0.0
C1381 C 0.80355 0.34831 0.78855 0.0
C1382 C 0.81223 0.3917 0.7255 0.0
C1383 C 0.83067 0.38235 0.81681 0.0
H1384 H 0.89476 0.43856 0.76548 0.0
H1385 H 0.83719 0.47472 0.78502 0.0
H1386 H 0.8682 0.37676 0.77655 0.0
H1387 H 0.86256 0.37976 0.74436 0.0
H1388 H 0.89083 0.3944 0.75981 0.0
H1389 H 0.79975 0.45203 0.79132 0.0
H1390 H 0.79179 0.42467 0.76863 0.0
H1391 H 0.79866 0.42056 0.8003 0.0
H1392 H 0.78588 0.34529 0.72727 0.0
H1393 H 0.80158 0.33717 0.8042 0.0
H1394 H 0.83095 0.39506 0.72088 0.0
H1395 H 0.80751 0.41052 0.72976 0.0
H1396 H 0.80113 0.38168 0.70889 0.0
H1397 H 0.85003 0.38496 0.81549 0.0
H1398 H 0.82548 0.36938 0.83117 0.0
H1399 H 0.82673 0.40117 0.82301 0.0
C1400 C 0.03952 0.83772 0.05993 0.0
C1401 C 0.03431 0.83763 0.08494 0.0
C1402 C 0.03658 0.8581 0.04657 0.0
C1403 C 0.02875 0.87908 0.05868 0.0
C1404 C 0.02368 0.87914 0.08398 0.0
C1405 C 0.02628 0.85832 0.0967 0.0
C1406 C 0.0417 0.85714 0.01948 0.0
C1407 C 0.01573 0.90135 0.09774 0.0
C1408 C 0.04186 0.94395 0.03533 0.0
C1409 C 0.01951 0.9462 0.0256 0.0
C1410 C 0.04534 0.92182 0.04532 0.0
C1411 C 0.02609 0.90125 0.04523 0.0
C1412 C 0.0038 0.90286 0.03417 0.0
C1413 C 0.00072 0.92541 0.02469 0.0
C1414 C 0.06933 0.92102 0.05716 0.0
C1415 C 0.98298 0.88111 0.0332 0.0
H1416 H 0.04559 0.82169 0.05071 0.0
H1417 H 0.02236 0.85845 0.11607 0.0
H1418 H 0.02585 0.85913 0.00806 0.0
H1419 H 0.05601 0.87323 0.01659 0.0
H1420 H 0.04705 0.83918 0.01262 0.0
H1421 H 0.01293 0.89862 0.11752 0.0
H1422 H 0.02909 0.91892 0.09705 0.0
H1423 H -0.00099 0.90426 0.08866 0.0
H1424 H 0.05652 0.95988 0.03614 0.0
H1425 H 0.98346 0.92688 0.01698 0.0
H1426 H 0.07529 0.90364 0.04975 0.0
H1427 H 0.0682 0.92041 0.07748 0.0
H1428 H 0.08286 0.93777 0.054 0.0
H1429 H 0.98797 0.86315 0.02578 0.0
H1430 H 0.9677 0.88421 0.0215 0.0
H1431 H 0.97738 0.87871 0.05226 0.0
C1432 C 0.897 0.2102 0.82756 0.0
C1433 C 0.91904 0.22488 0.82378 0.0
C1434 C 0.87673 0.21156 0.8128 0.0
C1435 C 0.87857 0.22794 0.79378 0.0
C1436 C 0.90091 0.24195 0.78918 0.0
C1437 C 0.92086 0.24024 0.80421 0.0
C1438 C 0.85322 0.19611 0.81805 0.0
C1439 C 0.9036 0.2597 0.76915 0.0
C1440 C 0.82742 0.22349 0.74541 0.0
C1441 C 0.81659 0.24292 0.75532 0.0
C1442 C 0.84756 0.21814 0.7578 0.0
C1443 C 0.85692 0.23258 0.78053 0.0
C1444 C 0.84594 0.25218 0.79053 0.0
C1445 C 0.82608 0.25723 0.77769 0.0
C1446 C 0.85885 0.19714 0.74658 0.0
C1447 C 0.8552 0.26791 0.8148 0.0
H1448 H 0.89545 0.1981 0.84248 0.0
H1449 H 0.93782 0.25155 0.80102 0.0
H1450 H 0.84058 0.20874 0.82222 0.0
H1451 H 0.84567 0.18306 0.80134 0.0
H1452 H 0.85467 0.18476 0.8339 0.0
H1453 H 0.92239 0.26739 0.76638 0.0
H1454 H 0.89488 0.24983 0.75125 0.0
H1455 H 0.89481 0.27582 0.77424 0.0
H1456 H 0.8201 0.21245 0.72808 0.0
H1457 H 0.81798 0.27256 0.78521 0.0
H1458 H 0.85931 0.18282 0.75987 0.0
H1459 H 0.87738 0.20487 0.7429 0.0
H1460 H 0.8493 0.18754 0.72892 0.0
H1461 H 0.85557 0.25543 0.82988 0.0
H1462 H 0.8443 0.28211 0.82024 0.0
H1463 H 0.87356 0.27802 0.81331 0.0
C1464 C 0.52564 0.20871 0.58808 0.0
C1465 C 0.51984 0.20809 0.6129 0.0
C1466 C 0.52552 0.18624 0.57266 0.0
C1467 C 0.51925 0.16257 0.58222 0.0
C1468 C 0.51329 0.16181 0.60721 0.0
C1469 C 0.51374 0.18456 0.62225 0.0
C1470 C 0.53211 0.18783 0.54616 0.0
C1471 C 0.50628 0.13694 0.61803 0.0
C1472 C 0.49607 0.10304 0.53814 0.0
C1473 C 0.51559 0.09107 0.53774 0.0
C1474 C 0.49719 0.1265 0.55213 0.0
C1475 C 0.51838 0.13848 0.56599 0.0
C1476 C 0.53837 0.12693 0.56511 0.0
C1477 C 0.53673 0.10334 0.55103 0.0
C1478 C 0.47544 0.13813 0.5526 0.0
C1479 C 0.56134 0.13922 0.57949 0.0
H1480 H 0.53048 0.2268 0.58071 0.0
H1481 H 0.5092 0.18387 0.64138 0.0
H1482 H 0.5472 0.17831 0.5428 0.0
H1483 H 0.51713 0.17777 0.53316 0.0
H1484 H 0.53698 0.20772 0.5417 0.0
H1485 H 0.50225 0.13961 0.63783 0.0
H1486 H 0.49051 0.12525 0.60725 0.0
H1487 H 0.5207 0.12609 0.61666 0.0
H1488 H 0.47964 0.09386 0.52789 0.0
H1489 H 0.55193 0.09434 0.55083 0.0
H1490 H 0.47954 0.15763 0.54703 0.0
H1491 H 0.46958 0.13959 0.57178 0.0
H1492 H 0.46061 0.12688 0.54004 0.0
H1493 H 0.56709 0.15887 0.57471 0.0
H1494 H 0.57562 0.12855 0.57575 0.0
H1495 H 0.55883 0.14045 0.59971 0.0
C1496 C 0.58242 0.75845 0.34854 0.0
C1497 C 0.55974 0.7496 0.33698 0.0
C1498 C 0.60259 0.75808 0.33529 0.0
C1499 C 0.60007 0.7485 0.30984 0.0
C1500 C 0.57726 0.73913 0.29814 0.0
C1501 C 0.55735 0.73986 0.31182 0.0
C1502 C 0.62661 0.76836 0.34843 0.0
C1503 C 0.57389 0.72861 0.27109 0.0
C1504 C 0.65177 0.77313 0.27257 0.0
C1505 C 0.66467 0.75371 0.27286 0.0
C1506 C 0.63024 0.77124 0.28374 0.0
C1507 C 0.62138 0.74933 0.2954 0.0
C1508 C 0.63383 0.72913 0.2947 0.0
C1509 C 0.6554 0.7316 0.28347 0.0
C1510 C 0.61755 0.79321 0.28409 0.0
C1511 C 0.6249 0.7054 0.30675 0.0
H1512 H 0.58447 0.76598 0.36796 0.0
H1513 H 0.5399 0.73286 0.30275 0.0
H1514 H 0.63767 0.7537 0.34694 0.0
H1515 H 0.63572 0.78475 0.33942 0.0
H1516 H 0.62557 0.77458 0.36842 0.0
H1517 H 0.55505 0.72104 0.26503 0.0
H1518 H 0.58091 0.74367 0.25935 0.0
H1519 H 0.58395 0.71322 0.26772 0.0
H1520 H 0.65891 0.79025 0.26437 0.0
H1521 H 0.66537 0.71654 0.28371 0.0
H1522 H 0.61754 0.80189 0.30349 0.0
H1523 H 0.59887 0.7865 0.27701 0.0
H1524 H 0.6259 0.80808 0.27273 0.0
H1525 H 0.62594 0.70998 0.32722 0.0
H1526 H 0.63528 0.69044 0.30233 0.0
H1527 H 0.60612 0.69772 0.30064 0.0
C1528 C 0.05128 0.19789 0.43351 0.0
C1529 C 0.03408 0.21268 0.43064 0.0
C1530 C 0.04708 0.17644 0.44658 0.0
C1531 C 0.02527 0.16981 0.4574 0.0
C1532 C 0.00818 0.1852 0.45538 0.0
C1533 C 0.0127 0.20634 0.44185 0.0
C1534 C 0.06564 0.16033 0.44799 0.0
C1535 C 0.98487 0.17898 0.46698 0.0
C1536 C 0.00536 0.09992 0.46396 0.0
C1537 C 0.01285 0.09837 0.48874 0.0
C1538 C 0.0088 0.12312 0.4538 0.0
C1539 C 0.01967 0.14555 0.46883 0.0
C1540 C 0.02628 0.1444 0.49417 0.0
C1541 C 0.02297 0.12077 0.5038 0.0
C1542 C 0.0017 0.12341 0.42662 0.0
C1543 C 0.03749 0.16801 0.5109 0.0
H1544 H 0.06785 0.20265 0.42493 0.0
H1545 H -0.00058 0.21783 0.43995 0.0
H1546 H 0.07004 0.15771 0.4676 0.0
H1547 H 0.05869 0.14124 0.43803 0.0
H1548 H 0.0821 0.16875 0.43967 0.0
H1549 H 0.97448 0.19417 0.46585 0.0
H1550 H 0.97427 0.16108 0.45737 0.0
H1551 H 0.98779 0.17599 0.48678 0.0
H1552 H -0.00248 0.08283 0.45204 0.0
H1553 H 0.02873 0.11984 0.52297 0.0
H1554 H 0.01758 0.12992 0.41652 0.0
H1555 H 0.98975 0.13694 0.42442 0.0
H1556 H 0.99269 0.10444 0.4177 0.0
H1557 H 0.05522 0.17566 0.5048 0.0
H1558 H 0.03944 0.16431 0.53064 0.0
H1559 H 0.0268 0.18289 0.50958 0.0
C1560 C 0.558 0.24948 0.17021 0.0
C1561 C 0.5586 0.25597 0.1458 0.0
C1562 C 0.57872 0.24707 0.18364 0.0
C1563 C 0.60061 0.25222 0.17268 0.0
C1564 C 0.60128 0.25914 0.14811 0.0
C1565 C 0.5802 0.26046 0.13481 0.0
C1566 C 0.57718 0.23892 0.20949 0.0
C1567 C 0.62433 0.26569 0.13606 0.0
C1568 C 0.65582 0.27293 0.2161 0.0
C1569 C 0.66615 0.25147 0.21373 0.0
C1570 C 0.6346 0.27344 0.20274 0.0
C1571 C 0.62295 0.2516 0.18727 0.0
C1572 C 0.633 0.22958 0.18531 0.0
C1573 C 0.65478 0.22994 0.19825 0.0
C1574 C 0.62498 0.29759 0.20472 0.0
C1575 C 0.62077 0.20571 0.16956 0.0
H1576 H 0.54123 0.24566 0.17859 0.0
H1577 H 0.58065 0.26557 0.11594 0.0
H1578 H 0.5856 0.22225 0.21085 0.0
H1579 H 0.58691 0.25436 0.22324 0.0
H1580 H 0.55866 0.23394 0.21467 0.0
H1581 H 0.62183 0.27103 0.11695 0.0
H1582 H 0.63618 0.28172 0.14745 0.0
H1583 H 0.63339 0.24935 0.13516 0.0
H1584 H 0.66477 0.28973 0.22785 0.0
H1585 H 0.6628 0.21335 0.19646 0.0
H1586 H 0.60723 0.29413 0.21204 0.0
H1587 H 0.623 0.30403 0.18602 0.0
H1588 H 0.63656 0.31312 0.21706 0.0
H1589 H 0.60244 0.19998 0.17502 0.0
H1590 H 0.6301 0.18974 0.17131 0.0
H1591 H 0.61964 0.20923 0.14975 0.0
C1592 C 0.54641 0.85471 0.94018 0.0
C1593 C 0.53031 0.83361 0.94609 0.0
C1594 C 0.54776 0.87871 0.95329 0.0
C1595 C 0.53301 0.88143 0.97305 0.0
C1596 C 0.51784 0.85984 0.98007 0.0
C1597 C 0.51651 0.83623 0.96634 0.0
C1598 C 0.56387 0.90137 0.94503 0.0
C1599 C 0.50204 0.8619 0.00122 0.0
C1600 C 0.54294 0.94252 0.01676 0.0
C1601 C 0.52564 0.95452 0.00704 0.0
C1602 C 0.54583 0.91876 0.00576 0.0
C1603 C 0.53126 0.90707 0.98443 0.0
C1604 C 0.51405 0.9194 0.97438 0.0
C1605 C 0.51122 0.94275 0.98605 0.0
C1606 C 0.56412 0.90597 0.01717 0.0
C1607 C 0.49839 0.90782 0.95143 0.0
H1608 H 0.55706 0.85276 0.92447 0.0
H1609 H 0.5042 0.8199 0.9711 0.0
H1610 H 0.55318 0.91434 0.93761 0.0
H1611 H 0.57527 0.91215 0.96106 0.0
H1612 H 0.57527 0.89586 0.93039 0.0
H1613 H 0.49347 0.84302 0.00623 0.0
H1614 H 0.51225 0.87289 0.01791 0.0
H1615 H 0.48804 0.87221 -0.00414 0.0
H1616 H 0.55404 0.95157 0.03307 0.0
H1617 H 0.49754 0.95175 0.97872 0.0
H1618 H 0.5764 0.90146 0.0031 0.0
H1619 H 0.55537 0.88777 0.02345 0.0
H1620 H 0.57451 0.91791 0.03329 0.0
H1621 H 0.5093 0.90338 0.93596 0.0
H1622 H 0.48681 0.92057 0.94522 0.0
H1623 H 0.4871 0.88975 0.9552 0.0
C1624 C 0.93499 0.7704 0.68813 0.0
C1625 C 0.93003 0.76922 0.66236 0.0
C1626 C 0.91705 0.77065 0.70465 0.0
C1627 C 0.89364 0.76972 0.69516 0.0
C1628 C 0.88851 0.76826 0.66918 0.0
C1629 C 0.90674 0.76802 0.65312 0.0
C1630 C 0.92316 0.77222 0.73224 0.0
C1631 C 0.86375 0.76721 0.65831 0.0
C1632 C 0.83974 0.74949 0.73089 0.0
C1633 C 0.8331 0.7728 0.73731 0.0
C1634 C 0.86022 0.74826 0.71838 0.0
C1635 C 0.87441 0.77089 0.7122 0.0
C1636 C 0.86869 0.79456 0.72013 0.0
C1637 C 0.84812 0.79524 0.73261 0.0
C1638 C 0.86584 0.72266 0.71043 0.0
C1639 C 0.88345 0.81913 0.71405 0.0
H1640 H 0.95293 0.77129 0.69542 0.0
H1641 H 0.90271 0.76705 0.63326 0.0
H1642 H 0.91912 0.78988 0.74164 0.0
H1643 H 0.91224 0.75612 0.74019 0.0
H1644 H 0.94207 0.77199 0.73659 0.0
H1645 H 0.86263 0.76564 0.63768 0.0
H1646 H 0.85157 0.75076 0.66428 0.0
H1647 H 0.85745 0.78454 0.66532 0.0
H1648 H 0.82839 0.73203 0.73459 0.0
H1649 H 0.8433 0.81337 0.73762 0.0
H1650 H 0.88463 0.72255 0.71544 0.0
H1651 H 0.86299 0.71859 0.68992 0.0
H1652 H 0.85463 0.70719 0.71901 0.0
H1653 H 0.90241 0.81978 0.71896 0.0
H1654 H 0.87822 0.83594 0.72395 0.0
H1655 H 0.88144 0.8204 0.69376 0.0
C1656 C 0.07157 0.01226 0.83622 0.0
C1657 C 0.09393 0.00583 0.8363 0.0
C1658 C 0.05822 0.01033 0.85715 0.0
C1659 C 0.06741 0.00173 0.87875 0.0
C1660 C 0.08976 -0.00528 0.87883 0.0
C1661 C 0.10274 -0.0032 0.85759 0.0
C1662 C 0.03452 0.01813 0.85634 0.0
C1663 C 0.10009 0.98534 0.90147 0.0
C1664 C 0.0439 0.0234 0.93963 0.0
C1665 C 0.02694 0.00214 0.94352 0.0
C1666 C 0.05757 0.02326 0.91898 0.0
C1667 C 0.05408 0.00136 0.90161 0.0
C1668 C 0.03721 0.97967 0.90563 0.0
C1669 C 0.0238 0.98033 0.92656 0.0
C1670 C 0.07545 0.04674 0.91551 0.0
C1671 C 0.03306 0.95594 0.8876 0.0
H1672 H 0.06456 0.01921 0.81988 0.0
H1673 H 0.11995 0.99167 0.85783 0.0
H1674 H 0.02067 0.00246 0.86113 0.0
H1675 H 0.03492 0.03458 0.87038 0.0
H1676 H 0.02944 0.0234 0.8378 0.0
H1677 H 0.11827 0.98209 0.89911 0.0
H1678 H 0.10047 -0.00081 0.91803 0.0
H1679 H 0.08879 0.96731 0.90531 0.0
H1680 H 0.0462 0.04043 0.95252 0.0
H1681 H 0.01071 0.96385 0.92954 0.0
H1682 H 0.07078 0.05426 0.89798 0.0
H1683 H 0.09318 0.04199 0.91395 0.0
H1684 H 0.07651 0.0619 0.93112 0.0
H1685 H 0.02651 0.9601 0.86915 0.0
H1686 H 0.02004 0.94035 0.89393 0.0
H1687 H 0.04987 0.94935 0.88507 0.0
C1688 C 0.71048 0.32993 0.55057 0.0
C1689 C 0.72814 0.35123 0.54865 0.0
C1690 C 0.71123 0.31549 0.5707 0.0
C1691 C 0.73012 0.32256 0.58916 0.0
C1692 C 0.74797 0.34403 0.5873 0.0
C1693 C 0.74674 0.35811 0.5671 0.0
C1694 C 0.69182 0.29281 0.57233 0.0
C1695 C 0.76822 0.35236 0.60685 0.0
C1696 C 0.72489 0.30435 0.65455 0.0
C1697 C 0.73876 0.28577 0.6546 0.0
C1698 C 0.72113 0.31585 0.63303 0.0
C1699 C 0.73113 0.30815 0.61097 0.0
C1700 C 0.74414 0.28844 0.61062 0.0
C1701 C 0.74791 0.27752 0.63256 0.0
C1702 C 0.70708 0.33674 0.63416 0.0
C1703 C 0.755 0.27976 0.58738 0.0
H1704 H 0.69606 0.32453 0.53637 0.0
H1705 H 0.76049 0.37453 0.56576 0.0
H1706 H 0.69944 0.27563 0.57388 0.0
H1707 H 0.68234 0.29582 0.58931 0.0
H1708 H 0.67888 0.28924 0.55593 0.0
H1709 H 0.78091 0.36922 0.60234 0.0
H1710 H 0.76132 0.35705 0.62511 0.0
H1711 H 0.77785 0.33671 0.60889 0.0
H1712 H 0.7176 0.31054 0.67158 0.0
H1713 H 0.75852 0.26303 0.63263 0.0
H1714 H 0.68968 0.32967 0.62384 0.0
H1715 H 0.71615 0.35327 0.62533 0.0
H1716 H 0.70411 0.34338 0.65356 0.0
H1717 H 0.74165 0.27558 0.57138 0.0
H1718 H 0.76255 0.26261 0.58951 0.0
H1719 H 0.76928 0.29514 0.58287 0.0
C1720 C 0.41339 0.05018 0.36855 0.0
C1721 C 0.42095 0.05869 0.34613 0.0
C1722 C 0.42964 0.04963 0.38841 0.0
C1723 C 0.45405 0.05819 0.38588 0.0
C1724 C 0.46162 0.06846 0.36392 0.0
C1725 C 0.44497 0.06856 0.34427 0.0
C1726 C 0.42033 0.03799 0.41108 0.0
C1727 C 0.48745 0.07756 0.36043 0.0
C1728 C 0.49644 0.06561 0.44317 0.0
C1729 C 0.50215 0.04155 0.44177 0.0
C1730 C 0.48091 0.07157 0.42489 0.0
C1731 C 0.47173 0.05324 0.40459 0.0
C1732 C 0.47833 0.02928 0.40277 0.0
C1733 C 0.49318 0.0236 0.42165 0.0
C1734 C 0.47313 0.09669 0.42809 0.0
C1735 C 0.46881 0.00917 0.38152 0.0
H1736 H 0.39486 0.04259 0.37021 0.0
H1737 H 0.45092 0.07541 0.32705 0.0
H1738 H 0.41327 0.01745 0.406 0.0
H1739 H 0.43381 0.04011 0.42675 0.0
H1740 H 0.4054 0.0466 0.41741 0.0
H1741 H 0.49024 0.08752 0.34348 0.0
H1742 H 0.49608 0.09054 0.37677 0.0
H1743 H 0.49636 0.06108 0.35882 0.0
H1744 H 0.50292 0.07911 0.45927 0.0
H1745 H 0.49741 0.00484 0.421 0.0
H1746 H 0.45395 0.09339 0.43086 0.0
H1747 H 0.47587 0.1065 0.41109 0.0
H1748 H 0.48272 0.10932 0.44425 0.0
H1749 H 0.44955 0.00271 0.38271 0.0
H1750 H 0.47735 0.99244 0.38173 0.0
H1751 H 0.47147 0.01705 0.36347 0.0
C1752 C 0.76044 0.71993 0.05908 0.0
C1753 C 0.7613 0.69437 0.05267 0.0
C1754 C 0.75938 0.72951 0.08395 0.0
C1755 C 0.75934 0.71319 0.10292 0.0
C1756 C 0.76024 0.68739 0.09658 0.0
C1757 C 0.76114 0.67828 0.07156 0.0
C1758 C 0.75835 0.75712 0.08996 0.0
C1759 C 0.76044 0.66942 0.11626 0.0
C1760 C 0.78017 0.74228 0.16875 0.0
C1761 C 0.75881 0.74162 0.18013 0.0
C1762 C 0.78056 0.73317 0.14368 0.0
C1763 C 0.75906 0.72323 0.12947 0.0
C1764 C 0.73741 0.72262 0.14073 0.0
C1765 C 0.73754 0.73177 0.16595 0.0
C1766 C 0.80403 0.73405 0.13243 0.0
C1767 C 0.71412 0.71225 0.12615 0.0
H1768 H 0.76043 0.73249 0.04463 0.0
H1769 H 0.76182 0.65851 0.06683 0.0
H1770 H 0.74243 0.75885 0.10007 0.0
H1771 H 0.77392 0.76678 0.10237 0.0
H1772 H 0.75793 0.76716 0.07303 0.0
H1773 H 0.7609 0.64984 0.10825 0.0
H1774 H 0.77606 0.67625 0.12958 0.0
H1775 H 0.74455 0.66885 0.12699 0.0
H1776 H 0.79675 0.7498 0.17945 0.0
H1777 H 0.72094 0.73122 0.1745 0.0
H1778 H 0.80494 0.74534 0.11632 0.0
H1779 H 0.80591 0.71463 0.12543 0.0
H1780 H 0.81917 0.74247 0.14598 0.0
H1781 H 0.71257 0.72285 0.10978 0.0
H1782 H 0.69883 0.71347 0.1375 0.0
H1783 H 0.7132 0.69213 0.11905 0.0
C1784 C 0.09172 -0.00418 0.7022 0.0
C1785 C 0.10959 0.01183 0.71779 0.0
C1786 C 0.08324 0.00354 0.68 0.0
C1787 C 0.09297 0.02781 0.67311 0.0
C1788 C 0.11091 0.04412 0.68883 0.0
C1789 C 0.11894 0.03599 0.71099 0.0
C1790 C 0.06398 0.98562 0.66381 0.0
C1791 C 0.12186 0.07004 0.68207 0.0
C1792 C 0.0853 0.03427 0.60412 0.0
C1793 C 0.06543 0.04552 0.60298 0.0
C1794 C 0.09511 0.02943 0.62697 0.0
C1795 C 0.08464 0.03578 0.64918 0.0
C1796 C 0.0653 0.04834 0.64822 0.0
C1797 C 0.05598 0.05317 0.6251 0.0
C1798 C 0.11596 0.01639 0.62718 0.0
C1799 C 0.05362 0.0554 0.67145 0.0
H1800 H 0.08434 0.97717 0.70729 0.0
H1801 H 0.13279 0.04853 0.72287 0.0
H1802 H 0.04871 -0.00513 0.66065 0.0
H1803 H 0.07047 0.98088 0.64536 0.0
H1804 H 0.0578 0.96772 0.67213 0.0
H1805 H 0.13532 0.08065 0.69654 0.0
H1806 H 0.13033 0.06815 0.66424 0.0
H1807 H 0.10803 0.08136 0.67931 0.0
H1808 H 0.09266 0.02834 0.58704 0.0
H1809 H 0.04053 0.06174 0.62427 0.0
H1810 H 0.11046 -0.00302 0.63266 0.0
H1811 H 0.13005 0.02675 0.64108 0.0
H1812 H 0.12343 0.01495 0.60872 0.0
H1813 H 0.04502 0.03792 0.67916 0.0
H1814 H 0.04007 0.0669 0.66784 0.0
H1815 H 0.06695 0.06623 0.68588 0.0
C1816 C 0.73471 0.34637 0.42208 0.0
C1817 C 0.74993 0.34419 0.44234 0.0
C1818 C 0.73404 0.33105 0.39961 0.0
C1819 C 0.74903 0.31322 0.39734 0.0
C1820 C 0.76374 0.3102 0.418 0.0
C1821 C 0.76398 0.32571 0.44032 0.0
C1822 C 0.718 0.33471 0.37796 0.0
C1823 C 0.77999 0.29142 0.41621 0.0
C1824 C 0.73504 0.26564 0.33995 0.0
C1825 C 0.74949 0.27814 0.32316 0.0
C1826 C 0.73545 0.27621 0.36471 0.0
C1827 C 0.7508 0.29961 0.37265 0.0
C1828 C 0.76649 0.31138 0.35611 0.0
C1829 C 0.76553 0.30056 0.33151 0.0
C1830 C 0.71854 0.26312 0.3819 0.0
C1831 C 0.78333 0.33621 0.36393 0.0
H1832 H 0.72365 0.36044 0.42358 0.0
H1833 H 0.77573 0.32384 0.45595 0.0
H1834 H 0.72877 0.34246 0.36305 0.0
H1835 H 0.70707 0.31625 0.37004 0.0
H1836 H 0.70611 0.34788 0.38336 0.0
H1837 H 0.7884 0.28946 0.43461 0.0
H1838 H 0.7702 0.27252 0.408 0.0
H1839 H 0.79409 0.29771 0.40373 0.0
H1840 H 0.72264 0.24826 0.3335 0.0
H1841 H 0.77669 0.31028 0.31853 0.0
H1842 H 0.7046 0.27426 0.38551 0.0
H1843 H 0.7278 0.26205 0.40007 0.0
H1844 H 0.70995 0.24365 0.37391 0.0
H1845 H 0.7732 0.35155 0.36721 0.0
H1846 H 0.79598 0.34144 0.34964 0.0
H1847 H 0.79345 0.33521 0.3816 0.0
C1848 C 0.43351 0.05028 0.1978 0.0
C1849 C 0.44356 0.06422 0.22017 0.0
C1850 C 0.44643 0.04955 0.17669 0.0
C1851 C 0.47003 0.063 0.178 0.0
C1852 C 0.48017 0.07756 0.20033 0.0
C1853 C 0.46678 0.07804 0.22121 0.0
C1854 C 0.43492 0.03397 0.15309 0.0
C1855 C 0.50524 0.09227 0.20224 0.0
C1856 C 0.50523 0.03532 0.12948 0.0
C1857 C 0.50274 0.0503 0.11022 0.0
C1858 C 0.49599 0.04032 0.15243 0.0
C1859 C 0.48411 0.06083 0.15607 0.0
C1860 C 0.48317 0.07718 0.13728 0.0
C1861 C 0.49245 0.07163 0.11445 0.0
C1862 C 0.49747 0.02257 0.17211 0.0
C1863 C 0.47087 0.09939 0.14047 0.0
H1864 H 0.41552 0.03971 0.19679 0.0
H1865 H 0.47463 0.08889 0.23844 0.0
H1866 H 0.43561 0.04605 0.13759 0.0
H1867 H 0.44468 0.01869 0.14789 0.0
H1868 H 0.41621 0.02518 0.15501 0.0
H1869 H 0.51018 0.10355 0.22061 0.0
H1870 H 0.51756 0.07903 0.19924 0.0
H1871 H 0.50767 0.10528 0.18751 0.0
H1872 H 0.51334 0.01891 0.12623 0.0
H1873 H 0.49069 0.08336 0.09957 0.0
H1874 H 0.4797 0.01105 0.17385 0.0
H1875 H 0.50345 0.03343 0.19045 0.0
H1876 H 0.50969 0.0095 0.16759 0.0
H1877 H 0.45157 0.09248 0.13685 0.0
H1878 H 0.47673 0.11349 0.1273 0.0
H1879 H 0.47407 0.10903 0.15968 0.0
C1880 C 0.74762 0.71569 0.92667 0.0
C1881 C 0.75787 0.69469 0.93032 0.0
C1882 C 0.75211 0.72905 0.90587 0.0
C1883 C 0.76694 0.72102 0.88801 0.0
C1884 C 0.77764 0.70007 0.89175 0.0
C1885 C 0.77314 0.68729 0.91297 0.0
C1886 C 0.74052 0.75143 0.9027 0.0
C1887 C 0.79322 0.69066 0.87293 0.0
C1888 C 0.75507 0.73837 0.82298 0.0
C1889 C 0.77327 0.75931 0.82157 0.0
C1890 C 0.75337 0.72522 0.84411 0.0
C1891 C 0.76994 0.73358 0.86471 0.0
C1892 C 0.78851 0.75461 0.86337 0.0
C1893 C 0.79004 0.76716 0.84171 0.0
C1894 C 0.73346 0.70272 0.84456 0.0
C1895 C 0.80636 0.76426 0.88505 0.0
H1896 H 0.73595 0.72166 0.94006 0.0
H1897 H 0.78107 0.67103 0.9156 0.0
H1898 H 0.75395 0.76825 0.89962 0.0
H1899 H 0.72788 0.74711 0.88607 0.0
H1900 H 0.73085 0.75637 0.91909 0.0
H1901 H 0.8008 0.67462 0.87891 0.0
H1902 H 0.78289 0.68433 0.85488 0.0
H1903 H 0.80788 0.70624 0.86968 0.0
H1904 H 0.74176 0.7325 0.8077 0.0
H1905 H 0.80407 0.78342 0.84076 0.0
H1906 H 0.72136 0.70705 0.85891 0.0
H1907 H 0.7405 0.68604 0.84962 0.0
H1908 H 0.72311 0.69755 0.82637 0.0
H1909 H 0.79733 0.77094 0.90126 0.0
H1910 H 0.82029 0.78012 0.8807 0.0
H1911 H 0.81484 0.74873 0.89066 0.0
C1912 C 0.82385 0.06905 0.01613 0.0
C1913 C 0.83501 0.09469 0.01806 0.0
C1914 C 0.83696 0.04975 0.01372 0.0
C1915 C 0.86175 0.05632 0.01336 0.0
C1916 C 0.87313 0.08215 0.01565 0.0
C1917 C 0.8596 0.10103 0.01791 0.0
C1918 C 0.82432 0.0224 0.01135 0.0
C1919 C 0.89963 0.08988 0.01559 0.0
C1920 C 0.90495 0.01528 0.02906 0.0
C1921 C 0.91323 0.01007 0.00564 0.0
C1922 C 0.8864 0.02837 0.0317 0.0
C1923 C 0.87612 0.03643 0.0104 0.0
C1924 C 0.88265 0.02864 0.98648 0.0
C1925 C 0.90119 0.01543 0.98437 0.0
C1926 C 0.87967 0.03585 0.05751 0.0
C1927 C 0.87182 0.03651 0.96329 0.0
H1928 H 0.80482 0.064 0.0162 0.0
H1929 H 0.86832 0.12078 0.01947 0.0
H1930 H 0.82774 0.01259 0.99337 0.0
H1931 H 0.83117 0.01249 0.02629 0.0
H1932 H 0.80495 0.02049 0.01241 0.0
H1933 H 0.9057 0.11078 0.01751 0.0
H1934 H 0.90821 0.08216 0.0311 0.0
H1935 H 0.90572 0.08184 -0.00197 0.0
H1936 H 0.91415 0.01093 0.04554 0.0
H1937 H 0.9075 0.01125 0.96623 0.0
H1938 H 0.86053 0.03582 0.0578 0.0
H1939 H 0.88934 0.05534 0.06397 0.0
H1940 H 0.88434 0.02291 0.07087 0.0
H1941 H 0.85242 0.03422 0.96398 0.0
H1942 H 0.87572 0.02539 0.94623 0.0
H1943 H 0.87902 0.05686 0.96196 0.0
C1944 C 0.34861 0.43552 0.04812 0.0
C1945 C 0.32833 0.44016 0.0356 0.0
C1946 C 0.37092 0.4504 0.04576 0.0
C1947 C 0.37309 0.47036 0.03036 0.0
C1948 C 0.35266 0.47547 0.018 0.0
C1949 C 0.33051 0.46037 0.02083 0.0
C1950 C 0.39224 0.44442 0.0594 0.0
C1951 C 0.35429 0.49647 0.0013 0.0
C1952 C 0.43061 0.51876 0.04131 0.0
C1953 C 0.44442 0.50905 0.02372 0.0
C1954 C 0.40698 0.507 0.04304 0.0
C1955 C 0.39694 0.48516 0.02664 0.0
C1956 C 0.41047 0.4762 0.00793 0.0
C1957 C 0.43407 0.48816 0.00679 0.0
C1958 C 0.39316 0.51714 0.06324 0.0
C1959 C 0.4004 0.45318 0.98988 0.0
H1960 H 0.34713 0.42005 0.05965 0.0
H1961 H 0.31495 0.46407 0.01104 0.0
H1962 H 0.40447 0.43865 0.04584 0.0
H1963 H 0.40195 0.46155 0.07112 0.0
H1964 H 0.38745 0.42896 0.07145 0.0
H1965 H 0.33667 0.49875 0.99389 0.0
H1966 H 0.36347 0.5147 0.01159 0.0
H1967 H 0.36488 0.49243 0.98543 0.0
H1968 H 0.43855 0.53492 0.05442 0.0
H1969 H 0.44469 0.48059 0.99315 0.0
H1970 H 0.38979 0.50333 0.07717 0.0
H1971 H 0.37577 0.51958 0.05541 0.0
H1972 H 0.40268 0.53559 0.07289 0.0
H1973 H 0.39746 0.43604 -3e-05 0.0
H1974 H 0.4123 0.4503 0.97485 0.0
H1975 H 0.38306 0.45494 0.98131 0.0
C1976 C 0.31103 0.58623 0.76462 0.0
C1977 C 0.32801 0.58436 0.74729 0.0
C1978 C 0.30051 0.60762 0.76744 0.0
C1979 C 0.30707 0.6276 0.75252 0.0
C1980 C 0.32396 0.62569 0.73476 0.0
C1981 C 0.33425 0.60414 0.7324 0.0
C1982 C 0.2826 0.60898 0.7866 0.0
C1983 C 0.33138 0.64657 0.71844 0.0
C1984 C 0.26754 0.67538 0.7441 0.0
C1985 C 0.27924 0.69635 0.76026 0.0
C1986 C 0.2761 0.65268 0.74176 0.0
C1987 C 0.29683 0.65088 0.75593 0.0
C1988 C 0.30832 0.67172 0.77279 0.0
C1989 C 0.2994 0.69416 0.77475 0.0
C1990 C 0.26337 0.63088 0.72357 0.0
C1991 C 0.33044 0.67058 0.78828 0.0
H1992 H 0.30606 0.57106 0.7762 0.0
H1993 H 0.34729 0.60286 0.71889 0.0
H1994 H 0.28906 0.62546 0.80068 0.0
H1995 H 0.26581 0.61188 0.77766 0.0
H1996 H 0.27894 0.59156 0.79626 0.0
H1997 H 0.34423 0.64187 0.70507 0.0
H1998 H 0.31573 0.65028 0.70784 0.0
H1999 H 0.33949 0.66438 0.73013 0.0
H2000 H 0.25202 0.67688 0.73276 0.0
H2001 H 0.30856 0.71018 0.78737 0.0
H2002 H 0.25903 0.61342 0.73304 0.0
H2003 H 0.27501 0.627 0.70861 0.0
H2004 H 0.24681 0.6348 0.71493 0.0
H2005 H 0.32723 0.6541 0.79927 0.0
H2006 H 0.33672 0.68805 0.80123 0.0
H2007 H 0.3447 0.6679 0.77595 0.0
C2008 C 0.19675 0.60489 0.50606 0.0
C2009 C 0.21311 0.59209 0.5165 0.0
C2010 C 0.17254 0.59486 0.50487 0.0
C2011 C 0.16452 0.57143 0.51424 0.0
C2012 C 0.18092 0.55809 0.52427 0.0
C2013 C 0.20509 0.56864 0.52535 0.0
C2014 C 0.15552 0.60966 0.4941 0.0
C2015 C 0.17291 0.53295 0.53427 0.0
C2016 C 0.10203 0.56097 0.53418 0.0
C2017 C 0.08951 0.54627 0.51328 0.0
C2018 C 0.12657 0.56875 0.53497 0.0
C2019 C 0.13886 0.56153 0.51441 0.0
C2020 C 0.12645 0.54616 0.49353 0.0
C2021 C 0.10187 0.53876 0.49317 0.0
C2022 C 0.13925 0.58527 0.55751 0.0
C2023 C 0.13907 0.538 0.47135 0.0
H2024 H 0.20281 0.623 0.49913 0.0
H2025 H 0.21766 0.55861 0.53334 0.0
H2026 H 0.14401 0.59777 0.47872 0.0
H2027 H 0.14389 0.61496 0.50855 0.0
H2028 H 0.16469 0.62722 0.4869 0.0
H2029 H 0.18796 0.52436 0.54024 0.0
H2030 H 0.16222 0.53553 0.55042 0.0
H2031 H 0.16147 0.51947 0.51992 0.0
H2032 H 0.09264 0.56684 0.54982 0.0
H2033 H 0.09235 0.52722 0.47703 0.0
H2034 H 0.14755 0.60405 0.55209 0.0
H2035 H 0.15359 0.57665 0.56519 0.0
H2036 H 0.12723 0.58823 0.5724 0.0
H2037 H 0.14713 0.55488 0.46237 0.0
H2038 H 0.12704 0.5247 0.4573 0.0
H2039 H 0.15359 0.52871 0.47738 0.0
C2040 C 0.68643 0.95327 0.74646 0.0
C2041 C 0.66443 0.93675 0.74548 0.0
C2042 C 0.70745 0.9444 0.74991 0.0
C2043 C 0.70635 0.91838 0.75206 0.0
C2044 C 0.68419 0.90165 0.75126 0.0
C2045 C 0.66346 0.9111 0.74814 0.0
C2046 C 0.73077 0.96272 0.75089 0.0
C2047 C 0.68237 0.87364 0.7532 0.0
C2048 C 0.75288 0.88143 0.73482 0.0
C2049 C 0.75954 0.87492 0.75816 0.0
C2050 C 0.73717 0.89792 0.73258 0.0
C2051 C 0.72818 0.90809 0.75428 0.0
C2052 C 0.73743 0.90431 0.778 0.0
C2053 C 0.7531 0.88763 0.77968 0.0
C2054 C 0.7281 0.90172 0.70688 0.0
C2055 C 0.72874 0.91543 0.80156 0.0
H2056 H 0.68727 0.97321 0.74461 0.0
H2057 H 0.6465 0.8983 0.74735 0.0
H2058 H 0.74155 0.96156 0.76809 0.0
H2059 H 0.74085 0.95757 0.73494 0.0
H2060 H 0.72853 0.98262 0.75031 0.0
H2061 H 0.6638 0.86339 0.75319 0.0
H2062 H 0.69062 0.86505 0.73733 0.0
H2063 H 0.6921 0.87069 0.77048 0.0
H2064 H 0.75813 0.87182 0.71814 0.0
H2065 H 0.75847 0.88278 0.79777 0.0
H2066 H 0.7237 0.92073 0.70627 0.0
H2067 H 0.71182 0.88734 0.70129 0.0
H2068 H 0.74124 0.89931 0.69304 0.0
H2069 H 0.72662 0.93521 0.80008 0.0
H2070 H 0.74092 0.91517 0.81799 0.0
H2071 H 0.7112 0.90415 0.8047 0.0
C2072 C 0.67042 0.91885 0.5111 0.0
C2073 C 0.69347 0.93026 0.52028 0.0
C2074 C 0.65224 0.93272 0.51096 0.0
C2075 C 0.6571 0.95866 0.52037 0.0
C2076 C 0.68026 0.97028 0.52988 0.0
C2077 C 0.69819 0.95598 0.52964 0.0
C2078 C 0.62783 0.91961 0.50051 0.0
C2079 C 0.68609 -0.00216 0.54025 0.0
C2080 C 0.61388 -0.00265 0.49673 0.0
C2081 C 0.59836 -0.00304 0.51579 0.0
C2082 C 0.63358 0.98576 0.49839 0.0
C2083 C 0.63791 0.97358 0.5197 0.0
C2084 C 0.62285 0.97414 0.5395 0.0
C2085 C 0.60319 0.98576 0.53727 0.0
C2086 C 0.64914 0.98558 0.47685 0.0
C2087 C 0.6269 0.96156 0.56261 0.0
H2088 H 0.66656 0.89902 0.5038 0.0
H2089 H 0.71591 0.96495 0.53686 0.0
H2090 H 0.61494 0.9209 0.51484 0.0
H2091 H 0.62229 0.9292 0.48464 0.0
H2092 H 0.62691 0.8993 0.49404 0.0
H2093 H 0.70482 0.00392 0.54745 0.0
H2094 H 0.68251 0.0099 0.52562 0.0
H2095 H 0.67465 0.00126 0.55554 0.0
H2096 H 0.61019 0.00598 0.48009 0.0
H2097 H 0.59123 0.98543 0.55207 0.0
H2098 H 0.64756 0.96586 0.4681 0.0
H2099 H 0.6679 0.99261 0.48347 0.0
H2100 H 0.6444 -0.00259 0.46244 0.0
H2101 H 0.62323 0.94069 0.55795 0.0
H2102 H 0.6154 0.96628 0.57745 0.0
H2103 H 0.64558 0.9673 0.56998 0.0
C2104 C 0.34646 0.43137 0.69966 0.0
C2105 C 0.33944 0.45362 0.70921 0.0
C2106 C 0.33293 0.40741 0.70237 0.0
C2107 C 0.31204 0.40571 0.71516 0.0
C2108 C 0.30441 0.4281 0.72399 0.0
C2109 C 0.31811 0.45178 0.72076 0.0
C2110 C 0.34147 0.38393 0.6924 0.0
C2111 C 0.28236 0.42708 0.73796 0.0
C2112 C 0.26681 0.34421 0.71175 0.0
C2113 C 0.27284 0.33477 0.73387 0.0
C2114 C 0.27983 0.36696 0.705 0.0
C2115 C 0.29906 0.38067 0.72097 0.0
C2116 C 0.30539 0.37096 0.74317 0.0
C2117 C 0.29228 0.34803 0.74927 0.0
C2118 C 0.27284 0.3765 0.68098 0.0
C2119 C 0.32566 0.38509 0.76081 0.0
H2120 H 0.36286 0.43263 0.6906 0.0
H2121 H 0.31258 0.46886 0.72827 0.0
H2122 H 0.34695 0.37407 0.70808 0.0
H2123 H 0.32701 0.37053 0.68115 0.0
H2124 H 0.35667 0.38842 0.68075 0.0
H2125 H 0.27811 0.44614 0.74235 0.0
H2126 H 0.2671 0.41471 0.72697 0.0
H2127 H 0.28471 0.41874 0.75564 0.0
H2128 H 0.25187 0.33383 0.69974 0.0
H2129 H 0.29696 0.34075 0.7664 0.0
H2130 H 0.28825 0.38014 0.66952 0.0
H2131 H 0.26698 0.39476 0.68499 0.0
H2132 H 0.25837 0.36287 0.66994 0.0
H2133 H 0.34217 0.38822 0.751 0.0
H2134 H 0.32848 0.37476 0.77713 0.0
H2135 H 0.32226 0.404 0.76756 0.0
C2136 C 0.13511 0.59208 0.24406 0.0
C2137 C 0.14164 0.5692 0.23578 0.0
C2138 C 0.15127 0.61515 0.24522 0.0
C2139 C 0.17452 0.61521 0.23818 0.0
C2140 C 0.18118 0.5922 0.22974 0.0
C2141 C 0.16461 0.56948 0.2285 0.0
C2142 C 0.1435 0.63944 0.254 0.0
C2143 C 0.20586 0.59155 0.22223 0.0
C2144 C 0.20932 0.67662 0.21995 0.0
C2145 C 0.22297 0.68666 0.24204 0.0
C2146 C 0.19369 0.65323 0.21837 0.0
C2147 C 0.19179 0.63944 0.23931 0.0
C2148 C 0.20607 0.64899 0.2614 0.0
C2149 C 0.22148 0.67256 0.26253 0.0
C2150 C 0.17872 0.64364 0.19449 0.0
C2151 C 0.20465 0.63459 0.28401 0.0
H2152 H 0.11738 0.59198 0.24967 0.0
H2153 H 0.16985 0.55185 0.22222 0.0
H2154 H 0.15463 0.64898 0.27075 0.0
H2155 H 0.14588 0.65263 0.23943 0.0
H2156 H 0.12474 0.63615 0.25858 0.0
H2157 H 0.20825 0.57202 0.21628 0.0
H2158 H 0.20996 0.60332 0.20673 0.0
H2159 H 0.21886 0.59975 0.23801 0.0
H2160 H 0.2103 0.68733 0.20398 0.0
H2161 H 0.23199 0.68013 0.27965 0.0
H2162 H 0.15978 0.64193 0.19797 0.0
H2163 H 0.1814 0.62447 0.1876 0.0
H2164 H 0.18281 0.65635 0.17967 0.0
H2165 H 0.18673 0.63274 0.29087 0.0
H2166 H 0.21771 0.64408 0.29936 0.0
H2167 H 0.20771 0.61514 0.27906 0.0
C2168 C 0.50297 0.70543 0.44672 0.0
C2169 C 0.49564 0.70092 0.42133 0.0
C2170 C 0.50447 0.68529 0.46093 0.0
C2171 C 0.49876 0.66007 0.44943 0.0
C2172 C 0.49079 0.65537 0.42397 0.0
C2173 C 0.48922 0.67583 0.41027 0.0
C2174 C 0.51271 0.69104 0.48811 0.0
C2175 C 0.48465 0.62874 0.41097 0.0
C2176 C 0.52686 0.60912 0.47527 0.0
C2177 C 0.50798 0.595 0.48631 0.0
C2178 C 0.52425 0.63071 0.46379 0.0
C2179 C 0.50229 0.6386 0.46355 0.0
C2180 C 0.48346 0.62513 0.47564 0.0
C2181 C 0.48649 0.60341 0.48675 0.0
C2182 C 0.54473 0.64448 0.45101 0.0
C2183 C 0.45987 0.63312 0.47608 0.0
H2184 H 0.50781 0.72474 0.45547 0.0
H2185 H 0.48353 0.67216 0.39068 0.0
H2186 H 0.49996 0.68002 0.49955 0.0
H2187 H 0.52988 0.68521 0.49133 0.0
H2188 H 0.51485 0.7115 0.49468 0.0
H2189 H 0.47792 0.62824 0.39133 0.0
H2190 H 0.5005 0.62 0.41129 0.0
H2191 H 0.47108 0.61689 0.42087 0.0
H2192 H 0.54352 0.60278 0.47474 0.0
H2193 H 0.47181 0.59272 0.49534 0.0
H2194 H 0.54868 0.66491 0.458 0.0
H2195 H 0.54003 0.64306 0.43075 0.0
H2196 H 0.56095 0.63666 0.45388 0.0
H2197 H 0.46223 0.65365 0.48231 0.0
H2198 H 0.44797 0.62237 0.48852 0.0
H2199 H 0.45115 0.62993 0.45704 0.0
C2200 C 0.61976 0.31575 0.67622 0.0
C2201 C 0.59757 0.30118 0.67961 0.0
C2202 C 0.64 0.31317 0.69037 0.0
C2203 C 0.63802 0.29557 0.70826 0.0
C2204 C 0.61557 0.28144 0.71236 0.0
C2205 C 0.59563 0.28445 0.69803 0.0
C2206 C 0.66363 0.32856 0.68549 0.0
C2207 C 0.61273 0.26239 0.73119 0.0
C2208 C 0.69041 0.26556 0.72318 0.0
C2209 C 0.69928 0.27853 0.74635 0.0
C2210 C 0.67077 0.27127 0.71044 0.0
C2211 C 0.65956 0.29032 0.72125 0.0
C2212 C 0.66852 0.30365 0.7446 0.0
C2213 C 0.68833 0.29756 0.75693 0.0
C2214 C 0.66189 0.25669 0.68552 0.0
C2215 C 0.65709 0.32418 0.7566 0.0
H2216 H 0.62144 0.32881 0.66213 0.0
H2217 H 0.57857 0.27316 0.70087 0.0
H2218 H 0.67287 0.33853 0.70312 0.0
H2219 H 0.67486 0.31573 0.6776 0.0
H2220 H 0.662 0.34277 0.67231 0.0
H2221 H 0.59392 0.25421 0.73337 0.0
H2222 H 0.62181 0.2467 0.72533 0.0
H2223 H 0.62108 0.27135 0.74956 0.0
H2224 H 0.69877 0.25074 0.71497 0.0
H2225 H 0.69521 0.30764 0.77484 0.0
H2226 H 0.66186 0.26996 0.67111 0.0
H2227 H 0.64345 0.2465 0.68635 0.0
H2228 H 0.67282 0.24268 0.67959 0.0
H2229 H 0.65647 0.33896 0.74386 0.0
H2230 H 0.66663 0.33327 0.77444 0.0
H2231 H 0.63862 0.31609 0.76019 0.0
C2232 C 0.96407 0.31376 0.92932 0.0
C2233 C 0.97802 0.30986 0.90942 0.0
C2234 C 0.96576 0.33797 0.94211 0.0
C2235 C 0.98151 0.35885 0.93456 0.0
C2236 C -0.00442 0.35504 0.91442 0.0
C2237 C 0.9938 0.33057 0.90223 0.0
C2238 C 0.95074 0.34119 0.96374 0.0
C2239 C 0.01237 0.37687 0.90561 0.0
C2240 C 0.97032 0.42516 0.95222 0.0
C2241 C 0.98741 0.43419 0.97191 0.0
C2242 C 0.96821 0.40068 0.93989 0.0
C2243 C 0.98328 0.38471 0.94771 0.0
C2244 C 0.00026 0.39356 0.96788 0.0
C2245 C 0.00225 0.41826 0.9796 0.0
C2246 C 0.95011 0.39206 0.91823 0.0
C2247 C 0.0164 0.37698 0.97703 0.0
H2248 H 0.95192 0.29784 0.93508 0.0
H2249 H 0.00456 0.32772 0.88678 0.0
H2250 H 0.96214 0.34953 0.98071 0.0
H2251 H 0.93895 0.35451 0.95991 0.0
H2252 H 0.93974 0.32295 0.9676 0.0
H2253 H 0.02183 0.3708 0.88947 0.0
H2254 H 0.00254 0.39149 0.90022 0.0
H2255 H 0.02559 0.38597 0.9209 0.0
H2256 H 0.95891 0.43742 0.94606 0.0
H2257 H 0.01538 0.42504 0.99493 0.0
H2258 H 0.93777 0.37464 0.92191 0.0
H2259 H 0.959 0.38726 0.90125 0.0
H2260 H 0.93973 0.40676 0.91448 0.0
H2261 H 0.00582 0.35903 0.98207 0.0
H2262 H 0.02811 0.38641 0.99347 0.0
H2263 H 0.02755 0.37192 0.96202 0.0
C2264 C 0.93754 0.77193 0.16216 0.0
C2265 C 0.96081 0.78135 0.17185 0.0
C2266 C 0.9184 0.77327 0.17679 0.0
C2267 C 0.92257 0.78445 0.20173 0.0
C2268 C 0.946 0.79408 0.21164 0.0
C2269 C 0.96486 0.79232 0.19661 0.0
C2270 C 0.89368 0.7626 0.16556 0.0
C2271 C 0.95111 0.80626 0.23809 0.0
C2272 C 0.86939 0.8054 0.22915 0.0
C2273 C 0.86013 0.78455 0.2416 0.0
C2274 C 0.8904 0.80624 0.21707 0.0
C2275 C 0.90228 0.78563 0.21736 0.0
C2276 C 0.89356 0.76511 0.23095 0.0
C2277 C 0.87261 0.76486 0.24297 0.0
C2278 C 0.89924 0.82858 0.20301 0.0
C2279 C 0.90564 0.74275 0.23166 0.0
H2280 H 0.93422 0.76338 0.14308 0.0
H2281 H 0.98278 0.79974 0.20423 0.0
H2282 H 0.88491 0.74753 0.17644 0.0
H2283 H 0.88306 0.77767 0.16636 0.0
H2284 H 0.89344 0.7545 0.1459 0.0
H2285 H 0.97029 0.81311 0.2429 0.0
H2286 H 0.94204 0.82252 0.24099 0.0
H2287 H 0.94413 0.79249 0.25113 0.0
H2288 H 0.85978 0.82068 0.22809 0.0
H2289 H 0.86546 0.74869 0.25258 0.0
H2290 H 0.89737 0.82241 0.18276 0.0
H2291 H 0.91826 0.8361 0.2081 0.0
H2292 H 0.88938 0.84413 0.20666 0.0
H2293 H 0.90418 0.73231 0.21282 0.0
H2294 H 0.8978 0.7294 0.24475 0.0
H2295 H 0.92469 0.74928 0.2372 0.0
C2296 C 0.48611 0.33646 0.07495 0.0
C2297 C 0.50647 0.32594 0.07563 0.0
C2298 C 0.48507 0.35773 0.06224 0.0
C2299 C 0.50481 0.36869 0.04979 0.0
C2300 C 0.52497 0.35744 0.04943 0.0
C2301 C 0.5256 0.33627 0.06241 0.0
C2302 C 0.46329 0.36924 0.06322 0.0
C2303 C 0.54635 0.36848 0.03629 0.0
C2304 C 0.49798 0.4194 0.00693 0.0
C2305 C 0.50673 0.44166 0.02277 0.0
C2306 C 0.49742 0.39538 0.01529 0.0
C2307 C 0.50557 0.39368 0.04007 0.0
C2308 C 0.51446 0.41608 0.05603 0.0
C2309 C 0.51504 0.43965 0.04719 0.0
C2310 C 0.48803 0.37185 -0.0023 0.0
C2311 C 0.5232 0.41521 0.08265 0.0
H2312 H 0.47117 0.32853 0.08496 0.0
H2313 H 0.54132 0.32813 0.0626 0.0
H2314 H 0.46755 0.38789 0.07465 0.0
H2315 H 0.45721 0.37263 0.04432 0.0
H2316 H 0.44859 0.35701 0.07137 0.0
H2317 H 0.5594 0.35584 0.03519 0.0
H2318 H 0.54106 0.37203 0.01719 0.0
H2319 H 0.55509 0.38697 0.04641 0.0
H2320 H 0.49156 0.42071 0.98807 0.0
H2321 H 0.52179 0.4566 0.05976 0.0
H2322 H 0.47242 0.36044 0.00514 0.0
H2323 H 0.50157 0.35987 -0.00393 0.0
H2324 H 0.4829 0.37635 0.97886 0.0
H2325 H 0.50883 0.40498 0.09284 0.0
H2326 H 0.52955 0.43442 0.09266 0.0
H2327 H 0.53785 0.40467 0.08315 0.0
C2328 C 0.96005 0.32263 0.35534 0.0
C2329 C 0.96716 0.29916 0.3543 0.0
C2330 C 0.93782 0.32468 0.34511 0.0
C2331 C 0.92245 0.30279 0.33326 0.0
C2332 C 0.9296 0.27908 0.33192 0.0
C2333 C 0.95181 0.27752 0.34261 0.0
C2334 C 0.93071 0.35022 0.34719 0.0
C2335 C 0.91379 0.25535 0.31917 0.0
C2336 C 0.85641 0.30005 0.32533 0.0
C2337 C 0.85355 0.30435 0.30037 0.0
C2338 C 0.87885 0.3003 0.33653 0.0
C2339 C 0.89882 0.30459 0.32228 0.0
C2340 C 0.89607 0.30963 0.29724 0.0
C2341 C 0.87344 0.30962 0.28663 0.0
C2342 C 0.88111 0.29528 0.3634 0.0
C2343 C 0.91689 0.3141 0.28138 0.0
H2344 H 0.97174 0.33943 0.36448 0.0
H2345 H 0.95721 0.25934 0.34167 0.0
H2346 H 0.92675 0.35557 0.32841 0.0
H2347 H 0.91438 0.34926 0.35725 0.0
H2348 H 0.94467 0.36538 0.35712 0.0
H2349 H 0.92216 0.23849 0.31929 0.0
H2350 H 0.89704 0.25147 0.3285 0.0
H2351 H 0.90922 0.25805 0.29961 0.0
H2352 H 0.84102 0.29601 0.33599 0.0
H2353 H 0.87124 0.31282 0.26727 0.0
H2354 H 0.8945 0.31048 0.37403 0.0
H2355 H 0.88724 0.27717 0.36464 0.0
H2356 H 0.86414 0.29409 0.37236 0.0
H2357 H 0.93078 0.32978 0.2905 0.0
H2358 H 0.91191 0.31879 0.26257 0.0
H2359 H 0.92471 0.29686 0.27933 0.0
C2360 C 0.98783 0.69816 0.56935 0.0
C2361 C 0.97699 0.69628 0.59187 0.0
C2362 C 0.99037 0.67642 0.55429 0.0
C2363 C 0.9816 0.65221 0.56177 0.0
C2364 C 0.96957 0.65013 0.58382 0.0
C2365 C 0.96748 0.67223 0.59868 0.0
C2366 C 0.0035 0.67942 0.53101 0.0
C2367 C 0.95949 0.62459 0.59204 0.0
C2368 C 0.97696 0.59571 0.51312 0.0
C2369 C -0.00225 0.58723 0.51903 0.0
C2370 C 0.97115 0.61656 0.52719 0.0
C2371 C 0.98664 0.62924 0.54745 0.0
C2372 C 0.00758 0.62057 0.55357 0.0
C2373 C 0.0129 0.59967 0.53923 0.0
C2374 C 0.94857 0.62513 0.52029 0.0
C2375 C 0.0245 0.63351 0.57512 0.0
H2376 H -0.00474 0.71667 0.56395 0.0
H2377 H 0.95889 0.67064 0.61595 0.0
H2378 H 0.02016 0.67229 0.53313 0.0
H2379 H 0.99288 0.66797 0.5148 0.0
H2380 H 0.00786 0.69947 0.52695 0.0
H2381 H 0.95125 0.62622 0.61005 0.0
H2382 H 0.94601 0.61377 0.57775 0.0
H2383 H 0.97354 0.61338 0.59387 0.0
H2384 H 0.96518 0.58598 0.49755 0.0
H2385 H 0.02906 0.5932 0.5437 0.0
H2386 H 0.95268 0.64469 0.51487 0.0
H2387 H 0.93769 0.62558 0.53655 0.0
H2388 H 0.93798 0.61257 0.50466 0.0
H2389 H 0.03099 0.65365 0.57225 0.0
H2390 H 0.03993 0.62427 0.57748 0.0
H2391 H 0.01529 0.6333 0.5926 0.0
C2392 C 0.59005 0.77432 0.82791 0.0
C2393 C 0.59569 0.77506 0.85351 0.0
C2394 C 0.60745 0.77407 0.81073 0.0
C2395 C 0.63103 0.77456 0.81937 0.0
C2396 C 0.63685 0.77551 0.84518 0.0
C2397 C 0.61914 0.77575 0.86191 0.0
C2398 C 0.60059 0.773 0.78335 0.0
C2399 C 0.6618 0.77606 0.85517 0.0
C2400 C 0.6752 0.74931 0.77955 0.0
C2401 C 0.69013 0.77178 0.77477 0.0
C2402 C 0.65509 0.74991 0.79285 0.0
C2403 C 0.64974 0.77355 0.8016 0.0
C2404 C 0.66382 0.79624 0.79542 0.0
C2405 C 0.68381 0.79509 0.78201 0.0
C2406 C 0.64044 0.72527 0.79889 0.0
C2407 C 0.65859 0.82181 0.80426 0.0
H2408 H 0.57198 0.7738 0.82124 0.0
H2409 H 0.62371 0.77636 0.88163 0.0
H2410 H 0.61129 0.78923 0.77539 0.0
H2411 H 0.60431 0.75544 0.7734 0.0
H2412 H 0.58162 0.77339 0.77968 0.0
H2413 H 0.66348 0.77724 0.87579 0.0
H2414 H 0.66774 0.75874 0.84751 0.0
H2415 H 0.67391 0.79256 0.84919 0.0
H2416 H 0.67977 0.73117 0.77391 0.0
H2417 H 0.69508 0.81259 0.77829 0.0
H2418 H 0.6214 0.72485 0.79472 0.0
H2419 H 0.64305 0.72359 0.81904 0.0
H2420 H 0.64525 0.70854 0.78836 0.0
H2421 H 0.63992 0.82239 0.79919 0.0
H2422 H 0.67011 0.83753 0.79632 0.0
H2423 H 0.66123 0.8251 0.82482 0.0
C2424 C 0.45243 0.52754 0.67933 0.0
C2425 C 0.43063 0.53529 0.67895 0.0
C2426 C 0.46631 0.52929 0.6588 0.0
C2427 C 0.45829 0.53914 0.63737 0.0
C2428 C 0.43658 0.54755 0.63706 0.0
C2429 C 0.42301 0.54551 0.65783 0.0
C2430 C 0.48926 0.51991 0.65977 0.0
C2431 C 0.42754 0.55834 0.61462 0.0
C2432 C 0.50305 0.55924 0.59023 0.0
C2433 C 0.49859 0.53794 0.57256 0.0
C2434 C 0.48986 0.56012 0.61131 0.0
C2435 C 0.47193 0.53913 0.61476 0.0
C2436 C 0.46729 0.51768 0.5968 0.0
C2437 C 0.48071 0.51734 0.57599 0.0
C2438 C 0.49521 0.58336 0.62998 0.0
C2439 C 0.44831 0.49493 0.59969 0.0
H2440 H 0.45849 0.51964 0.69553 0.0
H2441 H 0.40627 0.55171 0.6574 0.0
H2442 H 0.48822 0.50355 0.64546 0.0
H2443 H 0.50394 0.53497 0.65549 0.0
H2444 H 0.49356 0.5139 0.67822 0.0
H2445 H 0.40997 0.56329 0.61698 0.0
H2446 H 0.44015 0.57563 0.61108 0.0
H2447 H 0.42625 0.54452 0.59787 0.0
H2448 H 0.51688 0.57518 0.5876 0.0
H2449 H 0.47737 0.50069 0.56251 0.0
H2450 H 0.50091 0.57817 0.64831 0.0
H2451 H 0.47905 0.59128 0.63249 0.0
H2452 H 0.50925 0.59834 0.62425 0.0
H2453 H 0.45212 0.48686 0.61718 0.0
H2454 H 0.44683 0.47984 0.58394 0.0
H2455 H 0.431 0.50073 0.60099 0.0
C2456 C 0.79274 0.18694 0.95292 0.0
C2457 C 0.78637 0.16045 0.94813 0.0
C2458 C 0.79215 0.20249 0.93374 0.0
C2459 C 0.78495 0.19128 0.90925 0.0
C2460 C 0.77952 0.16456 0.9041 0.0
C2461 C 0.78033 0.14943 0.92363 0.0
C2462 C 0.79849 0.23092 0.93978 0.0
C2463 C 0.77201 0.15198 0.8781 0.0
C2464 C 0.75561 0.22718 0.86431 0.0
C2465 C 0.77356 0.23375 0.8484 0.0
C2466 C 0.75935 0.21393 0.88468 0.0
C2467 C 0.78163 0.20742 0.88924 0.0
C2468 C 0.80019 0.21522 0.87394 0.0
C2469 C 0.79585 0.22816 0.85352 0.0
C2470 C 0.73917 0.20599 0.90069 0.0
C2471 C 0.82428 0.20896 0.87834 0.0
H2472 H 0.79764 0.1956 0.97179 0.0
H2473 H 0.77551 0.129 0.91978 0.0
H2474 H 0.81201 0.23919 0.92749 0.0
H2475 H 0.78269 0.23926 0.93634 0.0
H2476 H 0.80533 0.23658 0.95944 0.0
H2477 H 0.76946 0.131 0.87701 0.0
H2478 H 0.7552 0.15708 0.87164 0.0
H2479 H 0.78541 0.15888 0.8651 0.0
H2480 H 0.73838 0.23151 0.86029 0.0
H2481 H 0.80977 0.23335 0.84121 0.0
H2482 H 0.74463 0.21254 0.92052 0.0
H2483 H 0.73421 0.185 0.89901 0.0
H2484 H 0.72335 0.21366 0.89539 0.0
H2485 H 0.82976 0.21104 0.89846 0.0
H2486 H 0.8379 0.22125 0.86881 0.0
H2487 H 0.82371 0.18896 0.87102 0.0
C2488 C 0.0686 0.45105 0.15043 0.0
C2489 C 0.0591 0.4543 0.17348 0.0
C2490 C 0.05524 0.45194 0.12837 0.0
C2491 C 0.03234 0.4574 0.12966 0.0
C2492 C 0.02218 0.45907 0.15286 0.0
C2493 C 0.03563 0.45707 0.17456 0.0
C2494 C 0.06639 0.44913 0.10394 0.0
C2495 C -0.00194 0.4655 0.1551 0.0
C2496 C 0.01637 0.49908 0.08191 0.0
C2497 C -0.00064 0.48211 0.06627 0.0
C2498 C 0.02691 0.49125 0.10281 0.0
C2499 C 0.02083 0.4656 0.10764 0.0
C2500 C 0.00401 0.44821 0.09152 0.0
C2501 C 0.99312 0.45682 0.07116 0.0
C2502 C 0.04445 0.51053 0.11978 0.0
C2503 C -0.00211 0.42055 0.09556 0.0
H2504 H 0.08678 0.44879 0.14972 0.0
H2505 H 0.02845 0.45981 0.1925 0.0
H2506 H 0.05331 0.43873 0.08905 0.0
H2507 H 0.07326 0.4682 0.09831 0.0
H2508 H 0.08132 0.439 0.1054 0.0
H2509 H 0.9915 0.46282 0.17378 0.0
H2510 H -0.00105 0.48561 0.15183 0.0
H2511 H 0.9851 0.45372 0.14088 0.0
H2512 H 0.02111 0.51866 0.07806 0.0
H2513 H 0.98013 0.4437 0.05876 0.0
H2514 H 0.0621 0.50538 0.11963 0.0
H2515 H 0.03912 0.51064 0.13918 0.0
H2516 H 0.04605 0.53 0.1142 0.0
H2517 H 0.01404 0.41232 0.09533 0.0
H2518 H 0.98465 0.40944 0.08114 0.0
H2519 H 0.99084 0.41845 0.11407 0.0
C2520 C 0.75424 0.86337 0.44065 0.0
C2521 C 0.76763 0.85567 0.45972 0.0
C2522 C 0.75371 0.85242 0.41599 0.0
C2523 C 0.76646 0.83292 0.41035 0.0
C2524 C 0.77939 0.82452 0.42967 0.0
C2525 C 0.78004 0.8362 0.45406 0.0
C2526 C 0.74003 0.8622 0.39586 0.0
C2527 C 0.79275 0.80338 0.42454 0.0
C2528 C 0.74898 0.79093 0.34931 0.0
C2529 C 0.76678 0.80086 0.33428 0.0
C2530 C 0.74885 0.8009 0.37419 0.0
C2531 C 0.76667 0.82168 0.38416 0.0
C2532 C 0.78467 0.83181 0.36904 0.0
C2533 C 0.78465 0.8211 0.34436 0.0
C2534 C 0.72965 0.78919 0.38983 0.0
C2535 C 0.80376 0.85424 0.37882 0.0
H2536 H 0.74475 0.87853 0.44487 0.0
H2537 H 0.79031 0.83005 0.46875 0.0
H2538 H 0.75215 0.86989 0.38197 0.0
H2539 H 0.72668 0.84649 0.38592 0.0
H2540 H 0.73092 0.87734 0.40333 0.0
H2541 H 0.80086 0.79813 0.44181 0.0
H2542 H 0.78076 0.78634 0.41492 0.0
H2543 H 0.80692 0.80919 0.412 0.0
H2544 H 0.7352 0.77514 0.34167 0.0
H2545 H 0.79835 0.82899 0.33278 0.0
H2546 H 0.71916 0.80345 0.39617 0.0
H2547 H 0.73759 0.78302 0.40668 0.0
H2548 H 0.71753 0.7726 0.37952 0.0
H2549 H 0.79569 0.87057 0.3852 0.0
H2550 H 0.81627 0.86011 0.36459 0.0
H2551 H 0.81383 0.8496 0.39512 0.0
C2552 C 0.38099 0.48881 0.81106 0.0
C2553 C 0.3914 0.50815 0.79721 0.0
C2554 C 0.39184 0.48472 0.83365 0.0
C2555 C 0.41357 0.50046 0.84276 0.0
C2556 C 0.42431 0.51987 0.82878 0.0
C2557 C 0.41314 0.52342 0.80612 0.0
C2558 C 0.37991 0.46372 0.8479 0.0
C2559 C 0.44744 0.53712 0.83795 0.0
C2560 C 0.43103 0.5089 0.91199 0.0
C2561 C 0.44828 0.494 0.91342 0.0
C2562 C 0.41922 0.51072 0.88918 0.0
C2563 C 0.42473 0.49719 0.86729 0.0
C2564 C 0.44143 0.48125 0.8688 0.0
C2565 C 0.45307 0.47988 0.89189 0.0
C2566 C 0.40149 0.52786 0.88839 0.0
C2567 C 0.44759 0.46632 0.84592 0.0
H2568 H 0.36427 0.47678 0.80426 0.0
H2569 H 0.42131 0.53837 0.79553 0.0
H2570 H 0.39208 0.45071 0.85151 0.0
H2571 H 0.37542 0.47183 0.86621 0.0
H2572 H 0.3635 0.45253 0.8378 0.0
H2573 H 0.45371 0.55096 0.82466 0.0
H2574 H 0.44548 0.54773 0.85604 0.0
H2575 H 0.46116 0.52575 0.8411 0.0
H2576 H 0.42731 0.51988 0.92861 0.0
H2577 H 0.46644 0.46838 0.89294 0.0
H2578 H 0.3844 0.5172 0.87937 0.0
H2579 H 0.40781 0.54354 0.87708 0.0
H2580 H 0.39842 0.53616 0.90721 0.0
H2581 H 0.43136 0.45478 0.83585 0.0
H2582 H 0.45975 0.45354 0.85047 0.0
H2583 H 0.45611 0.47953 0.83308 0.0
C2584 C 0.78837 0.19406 0.09434 0.0
C2585 C 0.7766 0.19773 0.07215 0.0
C2586 C 0.78816 0.2102 0.11611 0.0
C2587 C 0.77579 0.23038 0.11567 0.0
C2588 C 0.7644 0.2346 0.09321 0.0
C2589 C 0.765 0.21825 0.07167 0.0
C2590 C 0.80061 0.20518 0.13976 0.0
C2591 C 0.7509 0.25582 0.09215 0.0
C2592 C 0.75537 0.24973 0.1784 0.0
C2593 C 0.77319 0.2705 0.18716 0.0
C2594 C 0.75525 0.23736 0.15451 0.0
C2595 C 0.77356 0.2459 0.13916 0.0
C2596 C 0.79079 0.26786 0.14734 0.0
C2597 C 0.79033 0.28005 0.17131 0.0
C2598 C 0.73635 0.21422 0.14634 0.0
C2599 C 0.81056 0.27748 0.13144 0.0
H2600 H 0.79748 0.17834 0.0948 0.0
H2601 H 0.75588 0.22122 0.05457 0.0
H2602 H 0.81298 0.22261 0.14804 0.0
H2603 H 0.78752 0.19986 0.15357 0.0
H2604 H 0.81065 0.18971 0.13661 0.0
H2605 H 0.7445 0.2577 0.07288 0.0
H2606 H 0.73546 0.25225 0.10358 0.0
H2607 H 0.76213 0.2741 0.10007 0.0
H2608 H 0.74208 0.24241 0.19065 0.0
H2609 H 0.80413 0.29614 0.17811 0.0
H2610 H 0.74427 0.19704 0.14544 0.0
H2611 H 0.72857 0.2154 0.12746 0.0
H2612 H 0.72198 0.21183 0.15928 0.0
H2613 H 0.82271 0.26389 0.13007 0.0
H2614 H 0.82085 0.29635 0.13923 0.0
H2615 H 0.80354 0.27884 0.1123 0.0
C2616 C 0.07644 0.49122 0.30581 0.0
C2617 C 0.06328 0.49361 0.28403 0.0
C2618 C 0.06698 0.49318 0.32902 0.0
C2619 C 0.04367 0.49736 0.33048 0.0
C2620 C 0.02995 0.49886 0.30851 0.0
C2621 C 0.03998 0.4971 0.2855 0.0
C2622 C 0.08224 0.49169 0.35207 0.0
C2623 C 0.00493 0.50298 0.30941 0.0
C2624 C 0.01767 0.48581 0.39219 0.0
C2625 C 0.02241 0.51039 0.40451 0.0
C2626 C 0.02346 0.48133 0.36754 0.0
C2627 C 0.03448 0.50193 0.35521 0.0
C2628 C 0.03857 0.52689 0.36738 0.0
C2629 C 0.03237 0.53082 0.39189 0.0
C2630 C 0.01861 0.45452 0.35502 0.0
C2631 C 0.05046 0.54932 0.35493 0.0
H2632 H 0.09446 0.48848 0.30485 0.0
H2633 H 0.02965 0.49876 0.26871 0.0
H2634 H 0.08527 0.51004 0.36398 0.0
H2635 H 0.0732 0.47694 0.36311 0.0
H2636 H 0.09964 0.48727 0.34762 0.0
H2637 H -0.00404 0.50149 0.29056 0.0
H2638 H -0.00545 0.48892 0.32027 0.0
H2639 H 0.0049 0.52206 0.31896 0.0
H2640 H 0.00986 0.47002 0.40197 0.0
H2641 H 0.03599 0.54985 0.40143 0.0
H2642 H 0.03553 0.44824 0.35216 0.0
H2643 H 0.00934 0.45358 0.33644 0.0
H2644 H 0.00778 0.44105 0.36617 0.0
H2645 H 0.0688 0.54743 0.35139 0.0
H2646 H 0.05107 0.56762 0.36641 0.0
H2647 H 0.04111 0.54985 0.33668 0.0
C2648 C 0.75704 0.82307 0.57923 0.0
C2649 C 0.75202 0.84739 0.57855 0.0
C2650 C 0.7559 0.81123 0.60125 0.0
C2651 C 0.74913 0.82378 0.62307 0.0
C2652 C 0.74369 0.84819 0.62243 0.0
C2653 C 0.74541 0.8598 0.60024 0.0
C2654 C 0.7623 0.78543 0.60125 0.0
C2655 C 0.73604 0.862 0.64519 0.0
C2656 C 0.72786 0.78165 0.67324 0.0
C2657 C 0.74796 0.78575 0.68971 0.0
C2658 C 0.7277 0.79455 0.65188 0.0
C2659 C 0.74831 0.81151 0.64665 0.0
C2660 C 0.76855 0.81592 0.66347 0.0
C2661 C 0.76804 0.80318 0.6849 0.0
C2662 C 0.7056 0.78975 0.63472 0.0
C2663 C 0.791 0.83352 0.65846 0.0
H2664 H 0.76229 0.8134 0.56261 0.0
H2665 H 0.74135 0.87852 0.59983 0.0
H2666 H 0.77725 0.78629 0.61515 0.0
H2667 H 0.7472 0.77158 0.6067 0.0
H2668 H 0.76735 0.77828 0.58278 0.0
H2669 H 0.73219 0.88075 0.64161 0.0
H2670 H 0.72001 0.8504 0.6517 0.0
H2671 H 0.75001 0.86489 0.66053 0.0
H2672 H 0.71227 0.7683 0.67702 0.0
H2673 H 0.78367 0.80634 0.69756 0.0
H2674 H 0.70899 0.78059 0.61642 0.0
H2675 H 0.70042 0.80797 0.63147 0.0
H2676 H 0.6906 0.77738 0.64227 0.0
H2677 H 0.79766 0.82647 0.64081 0.0
H2678 H 0.80506 0.83522 0.67361 0.0
H2679 H 0.78751 0.85268 0.65622 0.0
C2680 C 0.68233 0.45307 0.5327 0.0
C2681 C 0.70078 0.45469 0.51683 0.0
C2682 C 0.66578 0.46877 0.53113 0.0
C2683 C 0.66827 0.48699 0.51381 0.0
C2684 C 0.68778 0.48982 0.4989 0.0
C2685 C 0.70363 0.47329 0.50029 0.0
C2686 C 0.64479 0.46465 0.54682 0.0
C2687 C 0.6914 0.50958 0.48082 0.0
C2688 C 0.61032 0.49981 0.48878 0.0
C2689 C 0.60769 0.52068 0.50503 0.0
C2690 C 0.63044 0.48924 0.49087 0.0
C2691 C 0.64876 0.50046 0.50905 0.0
C2692 C 0.64709 0.52288 0.52409 0.0
C2693 C 0.62629 0.53257 0.52217 0.0
C2694 C 0.63134 0.46509 0.47471 0.0
C2695 C 0.66669 0.53582 0.54304 0.0
H2696 H 0.68014 0.43865 0.54546 0.0
H2697 H 0.71817 0.47479 0.48828 0.0
H2698 H 0.64289 0.48278 0.55714 0.0
H2699 H 0.62844 0.45757 0.5346 0.0
H2700 H 0.64622 0.45074 0.56038 0.0
H2701 H 0.70939 0.51231 0.47397 0.0
H2702 H 0.67842 0.50368 0.46459 0.0
H2703 H 0.68849 0.52803 0.48962 0.0
H2704 H 0.59595 0.49063 0.47543 0.0
H2705 H 0.62426 0.54881 0.53463 0.0
H2706 H 0.63402 0.45001 0.48646 0.0
H2707 H 0.64645 0.46833 0.46282 0.0
H2708 H 0.61495 0.45803 0.46253 0.0
H2709 H 0.66689 0.52449 0.55905 0.0
H2710 H 0.66447 0.55515 0.55006 0.0
H2711 H 0.68407 0.53716 0.53496 0.0
C2712 C 0.19061 0.07465 0.51374 0.0
C2713 C 0.19732 0.09245 0.49687 0.0
C2714 C 0.16716 0.06155 0.51358 0.0
C2715 C 0.14996 0.06639 0.49617 0.0
C2716 C 0.15668 0.08406 0.47886 0.0
C2717 C 0.18026 0.09684 0.47938 0.0
C2718 C 0.16072 0.04284 0.53231 0.0
C2719 C 0.13884 0.08981 0.46004 0.0
C2720 C 0.09161 0.01987 0.48092 0.0
C2721 C 0.07624 0.03183 0.49474 0.0
C2722 C 0.1158 0.03055 0.48167 0.0
C2723 C 0.12476 0.05371 0.49659 0.0
C2724 C 0.10941 0.06536 0.51125 0.0
C2725 C 0.08535 0.05427 0.51014 0.0
C2726 C 0.13164 0.01747 0.46593 0.0
C2727 C 0.11822 0.08998 0.52751 0.0
H2728 H 0.20365 0.07107 0.52729 0.0
H2729 H 0.18526 0.11054 0.46628 0.0
H2730 H 0.14785 0.04929 0.54469 0.0
H2731 H 0.1521 0.02408 0.52266 0.0
H2732 H 0.17633 0.04048 0.54396 0.0
H2733 H 0.14701 0.10346 0.44738 0.0
H2734 H 0.12986 0.07209 0.44871 0.0
H2735 H 0.12509 0.09785 0.46977 0.0
H2736 H 0.08462 0.0025 0.46901 0.0
H2737 H 0.07353 0.0636 0.52087 0.0
H2738 H 0.147 0.01451 0.47754 0.0
H2739 H 0.13861 0.02963 0.45154 0.0
H2740 H 0.12226 -0.00116 0.45655 0.0
H2741 H 0.13325 0.0882 0.54028 0.0
H2742 H 0.10427 0.09585 0.53874 0.0
H2743 H 0.12475 0.10522 0.51576 0.0
C2744 C 0.19892 0.94805 0.76866 0.0
C2745 C 0.18432 0.9469 0.78863 0.0
C2746 C 0.21193 0.92905 0.76286 0.0
C2747 C 0.21008 0.90823 0.77715 0.0
C2748 C 0.19555 0.9071 0.79746 0.0
C2749 C 0.18297 0.92648 0.80302 0.0
C2750 C 0.22744 0.93109 0.74126 0.0
C2751 C 0.19289 0.88509 0.81303 0.0
C2752 C 0.22095 0.84484 0.74891 0.0
C2753 C 0.24273 0.84365 0.76091 0.0
C2754 C 0.21053 0.86607 0.75344 0.0
C2755 C 0.22225 0.88688 0.77018 0.0
C2756 C 0.2448 0.88643 0.78136 0.0
C2757 C 0.25474 0.86478 0.77668 0.0
C2758 C 0.18642 0.86567 0.7412 0.0
C2759 C 0.25799 0.9084 0.79906 0.0
H2760 H 0.20023 0.96384 0.75755 0.0
H2761 H 0.17175 0.9254 0.81847 0.0
H2762 H 0.24567 0.92967 0.7474 0.0
H2763 H 0.22081 0.91514 0.72666 0.0
H2764 H 0.22805 0.94918 0.73291 0.0
H2765 H 0.18136 0.88734 0.82855 0.0
H2766 H 0.18524 0.86722 0.80119 0.0
H2767 H 0.2104 0.88309 0.82091 0.0
H2768 H 0.2115 0.82874 0.73658 0.0
H2769 H 0.27156 0.86412 0.78604 0.0
H2770 H 0.18661 0.88285 0.73148 0.0
H2771 H 0.17344 0.86583 0.75559 0.0
H2772 H 0.18025 0.84868 0.72759 0.0
H2773 H 0.25866 0.92647 0.79073 0.0
H2774 H 0.2763 0.9063 0.80411 0.0
H2775 H 0.24858 0.90978 0.81633 0.0
C2776 C 0.32295 0.95154 0.00394 0.0
C2777 C 0.31713 0.92901 0.01512 0.0
C2778 C 0.34647 0.96396 0.00359 0.0
C2779 C 0.36456 0.95346 0.01453 0.0
C2780 C 0.35881 0.93096 0.0262 0.0
C2781 C 0.33511 0.91903 0.02644 0.0
C2782 C 0.35198 0.98805 0.99115 0.0
C2783 C 0.37772 0.9192 0.03794 0.0
C2784 C 0.4255 0.96969 0.99096 0.0
C2785 C 0.43732 0.98777 0.00995 0.0
C2786 C 0.40178 0.95839 0.99224 0.0
C2787 C 0.38959 0.96551 0.01292 0.0
C2788 C 0.40129 0.98398 0.03199 0.0
C2789 C 0.42508 -0.00515 0.03032 0.0
C2790 C 0.38985 0.93865 0.9716 0.0
C2791 C 0.38872 0.99215 0.0542 0.0
H2792 H 0.30911 0.95944 0.99529 0.0
H2793 H 0.33073 0.90163 0.03511 0.0
H2794 H 0.36273 0.00348 0.00424 0.0
H2795 H 0.36257 0.9851 0.975 0.0
H2796 H 0.33579 0.99435 0.98457 0.0
H2797 H 0.37025 0.9021 0.04695 0.0
H2798 H 0.38938 0.91376 0.02359 0.0
H2799 H 0.38891 0.93316 0.05209 0.0
H2800 H 0.43485 0.96403 0.9752 0.0
H2801 H 0.43407 0.00891 0.04502 0.0
H2802 H 0.37427 0.94466 0.96309 0.0
H2803 H 0.38339 0.92045 0.97925 0.0
H2804 H 0.40184 0.93528 0.9568 0.0
H2805 H 0.37305 -0.00046 0.04796 0.0
H2806 H 0.40027 0.00703 0.06725 0.0
H2807 H 0.38229 0.97561 0.06442 0.0
C2808 C 0.82821 0.5824 0.76228 0.0
C2809 C 0.85152 0.59594 0.76279 0.0
C2810 C 0.80906 0.59443 0.75901 0.0
C2811 C 0.81337 0.62066 0.75654 0.0
C2812 C 0.83684 0.6344 0.7568 0.0
C2813 C 0.85566 0.62181 0.75978 0.0
C2814 C 0.78426 0.57918 0.75844 0.0
C2815 C 0.84207 0.66251 0.7544 0.0
C2816 C 0.76968 0.65646 0.72998 0.0
C2817 C 0.76417 0.66967 0.75169 0.0
C2818 C 0.78427 0.63862 0.73128 0.0
C2819 C 0.79352 0.63424 0.75481 0.0
C2820 C 0.78599 0.64567 0.77676 0.0
C2821 C 0.77123 0.66317 0.77491 0.0
C2822 C 0.7915 0.6263 0.70748 0.0
C2823 C 0.79537 0.64144 0.80222 0.0
H2824 H 0.82489 0.5623 0.76434 0.0
H2825 H 0.87362 0.63232 0.76014 0.0
H2826 H 0.77517 0.58615 0.77444 0.0
H2827 H 0.77401 0.58161 0.74129 0.0
H2828 H 0.78394 0.55865 0.75918 0.0
H2829 H 0.86127 0.67023 0.75423 0.0
H2830 H 0.83314 0.66644 0.73702 0.0
H2831 H 0.83506 0.67281 0.77012 0.0
H2832 H 0.76412 0.66143 0.71201 0.0
H2833 H 0.76679 0.67328 0.79173 0.0
H2834 H 0.7915 0.60595 0.70881 0.0
H2835 H 0.80971 0.63562 0.70414 0.0
H2836 H 0.77964 0.62799 0.69122 0.0
H2837 H 0.79492 0.62102 0.80356 0.0
H2838 H 0.78522 0.64871 0.81721 0.0
H2839 H 0.81405 0.65143 0.80547 0.0
C2840 C 0.81395 0.58504 0.97908 0.0
C2841 C 0.81509 0.60325 -0.00038 0.0
C2842 C 0.83097 0.56969 0.97679 0.0
C2843 C 0.84954 0.5726 0.99549 0.0
C2844 C 0.85053 0.59062 0.01647 0.0
C2845 C 0.83332 0.60569 0.01828 0.0
C2846 C 0.82934 0.55071 0.95416 0.0
C2847 C 0.87017 0.59449 0.03671 0.0
C2848 C 0.88653 0.52227 0.00282 0.0
C2849 C 0.90711 0.53254 0.99184 0.0
C2850 C 0.86718 0.53454 0.00322 0.0
C2851 C 0.86867 0.55779 0.99272 0.0
C2852 C 0.88921 0.56782 0.98101 0.0
C2853 C 0.90807 0.55492 0.98048 0.0
C2854 C 0.84552 0.52316 0.01571 0.0
C2855 C 0.89162 0.59259 0.96969 0.0
H2856 H 0.79993 0.58298 0.96457 0.0
H2857 H 0.83435 0.61964 0.03425 0.0
H2858 H 0.84481 0.55601 0.9431 0.0
H2859 H 0.82973 0.53161 0.95985 0.0
H2860 H 0.81304 0.54963 0.94206 0.0
H2861 H 0.86795 0.60863 0.05224 0.0
H2862 H 0.87096 0.57629 0.0443 0.0
H2863 H 0.88736 0.60105 0.02888 0.0
H2864 H 0.88577 0.50497 0.01163 0.0
H2865 H 0.924 0.56296 0.97204 0.0
H2866 H 0.82946 0.52185 0.00323 0.0
H2867 H 0.84371 0.53559 0.03271 0.0
H2868 H 0.8463 0.50396 0.02101 0.0
H2869 H 0.87924 0.59015 0.95296 0.0
H2870 H 0.90979 0.59938 0.96423 0.0
H2871 H 0.88699 0.60752 0.98296 0.0
C2872 C 0.20474 0.09163 0.79495 0.0
C2873 C 0.18283 0.08935 0.80538 0.0
C2874 C 0.21835 0.1155 0.79225 0.0
C2875 C 0.21002 0.13763 0.80051 0.0
C2876 C 0.18856 0.1355 0.81231 0.0
C2877 C 0.17515 0.11136 0.81449 0.0
C2878 C 0.24103 0.11698 0.77933 0.0
C2879 C 0.17931 0.15871 0.82171 0.0
C2880 C 0.25457 0.19965 0.80479 0.0
C2881 C 0.24911 0.20874 0.7823 0.0
C2882 C 0.24149 0.17688 0.81142 0.0
C2883 C 0.22284 0.16279 0.79493 0.0
C2884 C 0.21707 0.17218 0.77236 0.0
C2885 C 0.23019 0.19515 0.76641 0.0
C2886 C 0.24784 0.16771 0.83584 0.0
C2887 C 0.19743 0.15764 0.75418 0.0
H2888 H 0.21082 0.07474 0.78784 0.0
H2889 H 0.15832 0.10975 0.82274 0.0
H2890 H 0.23921 0.12518 0.76148 0.0
H2891 H 0.25576 0.12967 0.79084 0.0
H2892 H 0.24577 0.0981 0.77539 0.0
H2893 H 0.16355 0.15391 0.83252 0.0
H2894 H 0.19319 0.17223 0.83361 0.0
H2895 H 0.17444 0.16859 0.80578 0.0
H2896 H 0.2691 0.21031 0.81716 0.0
H2897 H 0.22597 0.20218 0.74899 0.0
H2898 H 0.25427 0.14972 0.83238 0.0
H2899 H 0.23199 0.1637 0.84663 0.0
H2900 H 0.26171 0.18172 0.84732 0.0
H2901 H 0.20132 0.13883 0.74782 0.0
H2902 H 0.19497 0.16778 0.73764 0.0
H2903 H 0.18059 0.15425 0.76337 0.0
C2904 C 0.34583 0.96187 0.27236 0.0
C2905 C 0.36837 0.96476 0.26325 0.0
C2906 C 0.3312 0.93795 0.27147 0.0
C2907 C 0.33934 0.91637 0.26134 0.0
C2908 C 0.36214 0.91906 0.25235 0.0
C2909 C 0.3764 0.94328 0.25336 0.0
C2910 C 0.30696 0.93579 0.2812 0.0
C2911 C 0.37139 0.89636 0.24156 0.0
C2912 C 0.31015 0.85231 0.27909 0.0
C2913 C 0.29513 0.84243 0.25789 0.0
C2914 C 0.32464 0.87638 0.28046 0.0
C2915 C 0.32394 0.89097 0.26021 0.0
C2916 C 0.30848 0.88137 0.23897 0.0
C2917 C 0.29428 0.85715 0.23803 0.0
C2918 C 0.34097 0.88603 0.3034 0.0
C2919 C 0.30713 0.89659 0.21714 0.0
H2920 H 0.33946 0.97837 0.28002 0.0
H2921 H 0.39378 0.94538 0.24631 0.0
H2922 H 0.2933 0.92711 0.26617 0.0
H2923 H 0.30517 0.92318 0.29628 0.0
H2924 H 0.30332 0.95446 0.28851 0.0
H2925 H 0.38962 0.90165 0.23563 0.0
H2926 H 0.37129 0.88256 0.25549 0.0
H2927 H 0.35973 0.88659 0.22526 0.0
H2928 H 0.31103 0.84103 0.29449 0.0
H2929 H 0.28267 0.84968 0.22161 0.0
H2930 H 0.3372 0.90421 0.31187 0.0
H2931 H 0.35953 0.88981 0.29826 0.0
H2932 H 0.33926 0.87236 0.31759 0.0
H2933 H 0.30248 0.91506 0.22335 0.0
H2934 H 0.29388 0.88655 0.20219 0.0
H2935 H 0.3246 0.90069 0.20925 0.0
C2936 C 0.5284 0.36024 0.5994 0.0
C2937 C 0.52483 0.33601 0.58629 0.0
C2938 C 0.52687 0.38164 0.58709 0.0
C2939 C 0.5218 0.37879 0.56102 0.0
C2940 C 0.51872 0.35448 0.5476 0.0
C2941 C 0.5202 0.33337 0.5604 0.0
C2942 C 0.53021 0.40725 0.60207 0.0
C2943 C 0.51348 0.35073 0.51977 0.0
C2944 C 0.49455 0.43023 0.53489 0.0
C2945 C 0.51432 0.44597 0.52692 0.0
C2946 C 0.49666 0.40797 0.54548 0.0
C2947 C 0.51904 0.4012 0.548 0.0
C2948 C 0.53891 0.41649 0.53915 0.0
C2949 C 0.53632 0.43871 0.52876 0.0
C2950 C 0.47506 0.39219 0.55476 0.0
C2951 C 0.56303 0.40979 0.54131 0.0
H2952 H 0.53198 0.36248 0.61939 0.0
H2953 H 0.51751 0.31474 0.5501 0.0
H2954 H 0.54455 0.42078 0.59487 0.0
H2955 H 0.51386 0.41498 0.60018 0.0
H2956 H 0.5346 0.40635 0.62212 0.0
H2957 H 0.51259 0.33079 0.51194 0.0
H2958 H 0.4964 0.35616 0.51502 0.0
H2959 H 0.52725 0.3632 0.51065 0.0
H2960 H 0.47749 0.43566 0.53362 0.0
H2961 H 0.5517 0.45065 0.52252 0.0
H2962 H 0.47741 0.3922 0.57521 0.0
H2963 H 0.47266 0.37223 0.54645 0.0
H2964 H 0.45876 0.39937 0.55032 0.0
H2965 H 0.56903 0.4107 0.56121 0.0
H2966 H 0.57637 0.42276 0.5321 0.0
H2967 H 0.56226 0.39009 0.53293 0.0
C2968 C 0.39761 0.71383 0.32793 0.0
C2969 C 0.41988 0.72757 0.32353 0.0
C2970 C 0.37739 0.71533 0.31313 0.0
C2971 C 0.3795 0.73091 0.29345 0.0
C2972 C 0.40205 0.74398 0.28828 0.0
C2973 C 0.42195 0.74214 0.30336 0.0
C2974 C 0.35368 0.70081 0.31898 0.0
C2975 C 0.40506 0.7608 0.26748 0.0
C2976 C 0.32808 0.72576 0.24521 0.0
C2977 C 0.31785 0.74598 0.25431 0.0
C2978 C 0.34814 0.72043 0.25778 0.0
C2979 C 0.35802 0.73566 0.27993 0.0
C2980 C 0.34765 0.75606 0.28913 0.0
C2981 C 0.32788 0.7611 0.27608 0.0
C2982 C 0.35879 0.6986 0.24737 0.0
C2983 C 0.35747 0.77268 0.31276 0.0
H2984 H 0.39585 0.70233 0.34331 0.0
H2985 H 0.43908 0.75272 0.29969 0.0
H2986 H 0.34118 0.71384 0.32194 0.0
H2987 H 0.34614 0.68675 0.30299 0.0
H2988 H 0.35484 0.69066 0.33576 0.0
H2989 H 0.42392 0.76776 0.2644 0.0
H2990 H 0.39605 0.75044 0.24991 0.0
H2991 H 0.39677 0.77742 0.27194 0.0
H2992 H 0.32036 0.71409 0.22834 0.0
H2993 H 0.32023 0.77699 0.28301 0.0
H2994 H 0.35883 0.68477 0.26123 0.0
H2995 H 0.37742 0.70557 0.24353 0.0
H2996 H 0.34906 0.68863 0.22995 0.0
H2997 H 0.35848 0.76089 0.32832 0.0
H2998 H 0.3466 0.78695 0.31805 0.0
H2999 H 0.37566 0.78277 0.3104 0.0
C3000 C 0.01398 0.70919 0.0656 0.0
C3001 C 0.01652 0.7162 0.09134 0.0
C3002 C 0.01344 0.68405 0.05578 0.0
C3003 C 0.01508 0.66538 0.07209 0.0
C3004 C 0.01767 0.67235 0.09809 0.0
C3005 C 0.01854 0.69769 0.10738 0.0
C3006 C 0.01095 0.67743 0.02794 0.0
C3007 C 0.0191 0.65294 0.11611 0.0
C3008 C 0.98884 0.5971 0.04758 0.0
C3009 C 0.00898 0.58731 0.04201 0.0
C3010 C 0.99063 0.62233 0.05764 0.0
C3011 C 0.01312 0.63837 0.06199 0.0
C3012 C 0.03356 0.62864 0.05653 0.0
C3013 C 0.03127 0.60316 0.04676 0.0
C3014 C 0.9684 0.63184 0.06351 0.0
C3015 C 0.05782 0.64526 0.06065 0.0
H3016 H 0.0126 0.7234 0.05307 0.0
H3017 H 0.02044 0.70293 0.1273 0.0
H3018 H 0.02556 0.66818 0.02188 0.0
H3019 H 0.99422 0.6637 0.02254 0.0
H3020 H 0.01102 0.69435 0.01778 0.0
H3021 H 0.02151 0.66151 0.13576 0.0
H3022 H 0.00272 0.63819 0.11379 0.0
H3023 H 0.03399 0.64328 0.11214 0.0
H3024 H 0.97153 0.585 0.04414 0.0
H3025 H 0.0469 0.59581 0.04237 0.0
H3026 H 0.96655 0.64761 0.05235 0.0
H3027 H 0.96945 0.63942 0.08338 0.0
H3028 H 0.95232 0.61676 0.05961 0.0
H3029 H 0.05885 0.66152 0.04942 0.0
H3030 H 0.07195 0.6348 0.05555 0.0
H3031 H 0.06122 0.65317 0.08043 0.0
C3032 C 0.0563 0.23934 0.81409 0.0
C3033 C 0.05855 0.24913 0.83923 0.0
C3034 C 0.07628 0.23887 0.80046 0.0
C3035 C 0.09903 0.24859 0.8122 0.0
C3036 C 0.10141 0.25827 0.83762 0.0
C3037 C 0.08116 0.25834 0.85083 0.0
C3038 C 0.07306 0.22822 0.77346 0.0
C3039 C 0.12535 0.26895 0.85078 0.0
C3040 C 0.15456 0.23222 0.78582 0.0
C3041 C 0.1635 0.25423 0.77489 0.0
C3042 C 0.13307 0.22964 0.79722 0.0
C3043 C 0.12039 0.24964 0.79779 0.0
C3044 C 0.12895 0.27148 0.78592 0.0
C3045 C 0.15039 0.27347 0.77455 0.0
C3046 C 0.12445 0.20597 0.80948 0.0
C3047 C 0.11601 0.29324 0.78616 0.0
H3048 H 0.03891 0.23206 0.805 0.0
H3049 H 0.08309 0.26592 0.87023 0.0
H3050 H 0.07993 0.24327 0.76164 0.0
H3051 H 0.08332 0.21299 0.7702 0.0
H3052 H 0.05426 0.22039 0.76736 0.0
H3053 H 0.12421 0.27525 0.87073 0.0
H3054 H 0.13663 0.25449 0.84943 0.0
H3055 H 0.13428 0.28536 0.84167 0.0
H3056 H 0.16469 0.2173 0.7861 0.0
H3057 H 0.15729 0.29053 0.76613 0.0
H3058 H 0.10575 0.19791 0.80326 0.0
H3059 H 0.12528 0.21075 0.82992 0.0
H3060 H 0.13513 0.19123 0.80536 0.0
H3061 H 0.09737 0.28631 0.77904 0.0
H3062 H 0.12424 0.30816 0.77478 0.0
H3063 H 0.11588 0.30194 0.80554 0.0
C3064 C 0.53069 0.69219 0.92346 0.0
C3065 C 0.52717 0.71354 0.93852 0.0
C3066 C 0.52826 0.66842 0.93261 0.0
C3067 C 0.5216 0.66584 0.95718 0.0
C3068 C 0.51776 0.68729 0.97235 0.0
C3069 C 0.52085 0.71093 0.96294 0.0
C3070 C 0.53299 0.64612 0.91604 0.0
C3071 C 0.51022 0.68522 -0.00151 0.0
C3072 C 0.49381 0.59979 0.97198 0.0
C3073 C 0.51256 0.59272 0.98511 0.0
C3074 C 0.49641 0.62368 0.96312 0.0
C3075 C 0.51846 0.64067 0.96699 0.0
C3076 C 0.53748 0.63358 0.98021 0.0
C3077 C 0.53424 0.60976 0.9893 0.0
C3078 C 0.47557 0.63072 0.94957 0.0
C3079 C 0.56143 0.65087 0.98422 0.0
H3080 H 0.53574 0.69416 0.90464 0.0
H3081 H 0.51796 0.72734 0.97461 0.0
H3082 H 0.54694 0.63791 0.92515 0.0
H3083 H 0.51688 0.63105 0.91306 0.0
H3084 H 0.53866 0.65143 0.89764 0.0
H3085 H 0.50748 0.70359 0.0077 0.0
H3086 H 0.49356 0.67105 -0.0018 0.0
H3087 H 0.52376 0.67849 0.00986 0.0
H3088 H 0.47701 0.58668 0.96875 0.0
H3089 H 0.54891 0.60419 -0.00094 0.0
H3090 H 0.47973 0.63423 0.9303 0.0
H3091 H 0.47176 0.64855 0.95889 0.0
H3092 H 0.45943 0.61569 0.9488 0.0
H3093 H 0.56907 0.65341 0.96603 0.0
H3094 H 0.57388 0.64327 -0.00372 0.0
H3095 H 0.55984 0.66988 0.99279 0.0
C3096 C 0.07356 0.73433 0.63758 0.0
C3097 C 0.06214 0.7537 0.64657 0.0
C3098 C 0.09493 0.73128 0.6491 0.0
C3099 C 0.1053 0.74823 0.66995 0.0
C3100 C 0.09384 0.76778 0.67918 0.0
C3101 C 0.0723 0.77018 0.66748 0.0
C3102 C 0.10646 0.71003 0.63889 0.0
C3103 C 0.10452 0.78639 0.70122 0.0
C3104 C 0.15168 0.73098 0.71377 0.0
C3105 C 0.17251 0.74448 0.70559 0.0
C3106 C 0.12965 0.73146 0.70192 0.0
C3107 C 0.12852 0.74602 0.68165 0.0
C3108 C 0.14959 0.75912 0.67294 0.0
C3109 C 0.17135 0.75807 0.68495 0.0
C3110 C 0.10757 0.71695 0.7115 0.0
C3111 C 0.14914 0.77493 0.65145 0.0
H3112 H 0.06572 0.72136 0.62155 0.0
H3113 H 0.0636 0.7852 0.6745 0.0
H3114 H 0.12394 0.71796 0.63237 0.0
H3115 H 0.10953 0.698 0.65374 0.0
H3116 H 0.09564 0.69787 0.62316 0.0
H3117 H 0.09326 0.80034 0.70628 0.0
H3118 H 0.10727 0.77613 0.71756 0.0
H3119 H 0.12206 0.79685 0.69702 0.0
H3120 H 0.15256 0.72047 0.72975 0.0
H3121 H 0.18745 0.76861 0.67864 0.0
H3122 H 0.09676 0.70431 0.6961 0.0
H3123 H 0.09669 0.73038 0.71897 0.0
H3124 H 0.11154 0.70532 0.7264 0.0
H3125 H 0.13942 0.76323 0.63487 0.0
H3126 H 0.16713 0.7833 0.64646 0.0
H3127 H 0.13964 0.79054 0.65629 0.0
C3128 C 0.04332 0.35588 0.43684 0.0
C3129 C 0.02706 0.33537 0.44373 0.0
C3130 C 0.045 0.38043 0.44878 0.0
C3131 C 0.03012 0.38451 0.46808 0.0
C3132 C 0.01434 0.36373 0.47576 0.0
C3133 C 0.01299 0.33941 0.46348 0.0
C3134 C 0.06204 0.40214 0.44009 0.0
C3135 C -0.00176 0.36733 0.49634 0.0
C3136 C 0.04295 0.44538 0.51195 0.0
C3137 C 0.02689 0.45885 0.5021 0.0
C3138 C 0.04461 0.42132 0.50076 0.0
C3139 C 0.0299 0.41065 0.47923 0.0
C3140 C 0.0141 0.42452 0.46888 0.0
C3141 C 0.01272 0.44841 0.48053 0.0
C3142 C 0.06168 0.40708 0.51228 0.0
C3143 C -0.00177 0.41388 0.44583 0.0
H3144 H 0.05428 0.35292 0.42161 0.0
H3145 H 0.00046 0.32366 0.469 0.0
H3146 H 0.05207 0.41512 0.43152 0.0
H3147 H 0.07322 0.41329 0.45609 0.0
H3148 H 0.07366 0.39554 0.42624 0.0
H3149 H 0.98809 0.34903 0.50116 0.0
H3150 H 0.00862 0.37757 0.51327 0.0
H3151 H 0.98559 0.37909 0.49059 0.0
H3152 H 0.05396 0.45348 0.52862 0.0
H3153 H 0.00014 0.4587 0.473 0.0
H3154 H 0.07344 0.40128 0.49822 0.0
H3155 H 0.0518 0.38952 0.51883 0.0
H3156 H 0.07271 0.41855 0.52826 0.0
H3157 H 0.00883 0.40825 0.43053 0.0
H3158 H 0.9879 0.42768 0.4394 0.0
H3159 H 0.98575 0.3966 0.44965 0.0
C3160 C 0.40005 0.26631 0.14375 0.0
C3161 C 0.42316 0.26832 0.15397 0.0
C3162 C 0.38137 0.26788 0.15899 0.0
C3163 C 0.38587 0.27165 0.18514 0.0
C3164 C 0.40916 0.27389 0.19561 0.0
C3165 C 0.42754 0.27214 0.17991 0.0
C3166 C 0.35676 0.2653 0.14708 0.0
C3167 C 0.41464 0.27802 0.2234 0.0
C3168 C 0.3385 0.29621 0.2209 0.0
C3169 C 0.32509 0.27369 0.22766 0.0
C3170 C 0.35887 0.29597 0.20786 0.0
C3171 C 0.36597 0.27268 0.20138 0.0
C3172 C 0.35307 0.25006 0.20901 0.0
C3173 C 0.33285 0.25084 0.22207 0.0
C3174 C 0.37225 0.32053 0.20019 0.0
C3175 C 0.36005 0.22482 0.2025 0.0
H3176 H 0.39647 0.26336 0.12375 0.0
H3177 H 0.44534 0.27378 0.18798 0.0
H3178 H 0.34492 0.24883 0.15347 0.0
H3179 H 0.34956 0.2824 0.15283 0.0
H3180 H 0.35626 0.2627 0.12646 0.0
H3181 H 0.43376 0.27994 0.22859 0.0
H3182 H 0.40883 0.29536 0.23121 0.0
H3183 H 0.40476 0.26189 0.23221 0.0
H3184 H 0.33275 0.31398 0.22513 0.0
H3185 H 0.32276 0.23331 0.22728 0.0
H3186 H 0.37053 0.32007 0.17965 0.0
H3187 H 0.39131 0.32295 0.20578 0.0
H3188 H 0.36569 0.33725 0.20848 0.0
H3189 H 0.35805 0.21994 0.18204 0.0
H3190 H 0.34916 0.20926 0.21128 0.0
H3191 H 0.37887 0.2259 0.20842 0.0
C3192 C 0.61219 0.48786 0.37211 0.0
C3193 C 0.60765 0.49609 0.34888 0.0
C3194 C 0.59576 0.48739 0.39037 0.0
C3195 C 0.57425 0.49537 0.38531 0.0
C3196 C 0.5693 0.50308 0.36169 0.0
C3197 C 0.58604 0.50336 0.34377 0.0
C3198 C 0.60183 0.47924 0.41538 0.0
C3199 C 0.54661 0.51181 0.3556 0.0
C3200 C 0.52366 0.47933 0.42722 0.0
C3201 C 0.52636 0.50189 0.44303 0.0
C3202 C 0.5392 0.47681 0.40836 0.0
C3203 C 0.55769 0.4974 0.40527 0.0
C3204 C 0.56034 0.52022 0.42119 0.0
C3205 C 0.54464 0.52219 0.4398 0.0
C3206 C 0.53595 0.45212 0.39186 0.0
C3207 C 0.57979 0.54263 0.41859 0.0
H3208 H 0.62882 0.48219 0.37625 0.0
H3209 H 0.58231 0.50966 0.32586 0.0
H3210 H 0.60537 0.49599 0.42951 0.0
H3211 H 0.58684 0.46555 0.42128 0.0
H3212 H 0.61768 0.47045 0.41527 0.0
H3213 H 0.5448 0.51577 0.33592 0.0
H3214 H 0.53124 0.49722 0.35923 0.0
H3215 H 0.54593 0.52933 0.36778 0.0
H3216 H 0.50957 0.46361 0.42973 0.0
H3217 H 0.54672 0.53973 0.45192 0.0
H3218 H 0.55214 0.44405 0.39347 0.0
H3219 H 0.53318 0.45549 0.37215 0.0
H3220 H 0.52074 0.43794 0.39665 0.0
H3221 H 0.59722 0.53719 0.42109 0.0
H3222 H 0.57928 0.55909 0.43235 0.0
H3223 H 0.57835 0.54863 0.39965 0.0
C3224 C 0.20912 0.82376 0.04573 0.0
C3225 C 0.22201 0.84871 0.04768 0.0
C3226 C 0.21018 0.80868 0.0653 0.0
C3227 C 0.22445 0.81887 0.08721 0.0
C3228 C 0.23704 0.84422 0.0895 0.0
C3229 C 0.23566 0.85882 0.06971 0.0
C3230 C 0.19639 0.78177 0.06241 0.0
C3231 C 0.25232 0.85582 0.1127 0.0
C3232 C 0.21696 0.79341 0.14939 0.0
C3233 C 0.2365 0.78175 0.15144 0.0
C3234 C 0.21177 0.80409 0.12774 0.0
C3235 C 0.22665 0.80321 0.10788 0.0
C3236 C 0.24549 0.78998 0.10927 0.0
C3237 C 0.25019 0.77931 0.13112 0.0
C3238 C 0.1914 0.81783 0.12692 0.0
C3239 C 0.26163 0.78855 0.08835 0.0
H3240 H 0.19854 0.81583 0.02874 0.0
H3241 H 0.24561 0.87811 0.07141 0.0
H3242 H 0.20868 0.7684 0.06332 0.0
H3243 H 0.18469 0.77875 0.07791 0.0
H3244 H 0.18546 0.777 0.04454 0.0
H3245 H 0.26071 0.87592 0.11159 0.0
H3246 H 0.2416 0.85489 0.12913 0.0
H3247 H 0.26642 0.84492 0.11584 0.0
H3248 H 0.20618 0.79502 0.16506 0.0
H3249 H 0.26522 0.77015 0.13272 0.0
H3250 H 0.18156 0.81391 0.10843 0.0
H3251 H 0.1983 0.83856 0.13023 0.0
H3252 H 0.17893 0.81242 0.1413 0.0
H3253 H 0.25122 0.78268 0.0703 0.0
H3254 H 0.27358 0.77506 0.09106 0.0
H3255 H 0.27257 0.80759 0.0872 0.0
C3256 C 0.94951 0.5593 0.84426 0.0
C3257 C 0.92769 0.56655 0.84701 0.0
C3258 C 0.96437 0.55784 0.865 0.0
C3259 C 0.95726 0.56382 0.88908 0.0
C3260 C 0.93622 0.57323 0.89193 0.0
C3261 C 0.92162 0.57447 0.87079 0.0
C3262 C 0.98669 0.54779 0.86114 0.0
C3263 C 0.92803 0.57995 0.91725 0.0
C3264 C 0.97506 0.52304 0.93664 0.0
C3265 C -0.00515 0.53899 0.94929 0.0
C3266 C 0.96241 0.53122 0.91744 0.0
C3267 C 0.96967 0.55607 0.91078 0.0
C3268 C 0.9894 0.5725 0.92382 0.0
C3269 C 0.00195 0.56366 0.9429 0.0
C3270 C 0.94149 0.51304 0.90399 0.0
C3271 C -0.00278 0.59929 0.91754 0.0
H3272 H 0.95452 0.55359 0.82588 0.0
H3273 H 0.90487 0.5803 0.87304 0.0
H3274 H 0.00174 0.55959 0.87293 0.0
H3275 H 0.98435 0.52827 0.86669 0.0
H3276 H 0.99125 0.54721 0.84144 0.0
H3277 H 0.91555 0.59317 0.91641 0.0
H3278 H 0.91871 0.56242 0.92435 0.0
H3279 H 0.94309 0.58867 0.93073 0.0
H3280 H 0.96955 0.50394 0.94161 0.0
H3281 H 0.01712 0.57606 0.95295 0.0
H3282 H 0.9446 0.50966 0.88401 0.0
H3283 H 0.92544 0.52135 0.90518 0.0
H3284 H 0.93803 0.49448 0.91174 0.0
H3285 H 0.00271 0.59906 0.89821 0.0
H3286 H 0.01214 0.61007 0.93026 0.0
H3287 H 0.98227 0.60943 0.91852 0.0
C3288 C 0.26595 0.18024 0.57303 0.0
C3289 C 0.25427 0.19025 0.55419 0.0
C3290 C 0.26654 0.19025 0.59804 0.0
C3291 C 0.25555 0.21105 0.60432 0.0
C3292 C 0.2442 0.22159 0.5853 0.0
C3293 C 0.24351 0.21093 0.56052 0.0
C3294 C 0.27856 0.17825 0.61778 0.0
C3295 C 0.23266 0.24406 0.59114 0.0
C3296 C 0.23738 0.22283 0.67039 0.0
C3297 C 0.25625 0.24165 0.68112 0.0
C3298 C 0.237 0.21259 0.64549 0.0
C3299 C 0.25575 0.22168 0.63081 0.0
C3300 C 0.27469 0.24092 0.64145 0.0
C3301 C 0.2748 0.25052 0.66649 0.0
C3302 C 0.21665 0.19183 0.63496 0.0
C3303 C 0.29483 0.25144 0.62636 0.0
H3304 H 0.27417 0.16417 0.56833 0.0
H3305 H 0.23455 0.21886 0.54606 0.0
H3306 H 0.29283 0.19257 0.62828 0.0
H3307 H 0.26571 0.17123 0.63128 0.0
H3308 H 0.28626 0.16218 0.60985 0.0
H3309 H 0.22529 0.25059 0.57415 0.0
H3310 H 0.21818 0.23906 0.60354 0.0
H3311 H 0.24565 0.26005 0.6012 0.0
H3312 H 0.22306 0.21574 0.6816 0.0
H3313 H 0.28939 0.26519 0.67456 0.0
H3314 H 0.22334 0.17469 0.62811 0.0
H3315 H 0.20748 0.19795 0.61884 0.0
H3316 H 0.20363 0.1866 0.64889 0.0
H3317 H 0.3039 0.23609 0.61947 0.0
H3318 H 0.308 0.26672 0.63726 0.0
H3319 H 0.28795 0.25913 0.60984 0.0
C3320 C 0.61372 0.53046 0.20694 0.0
C3321 C 0.60506 0.50679 0.21519 0.0
C3322 C 0.60476 0.53717 0.18452 0.0
C3323 C 0.58671 0.51979 0.16993 0.0
C3324 C 0.57785 0.4959 0.17814 0.0
C3325 C 0.58711 0.4897 0.20068 0.0
C3326 C 0.61466 0.5628 0.1764 0.0
C3327 C 0.55864 0.47683 0.16303 0.0
C3328 C 0.54764 0.54233 0.12187 0.0
C3329 C 0.55719 0.53495 0.09974 0.0
C3330 C 0.55748 0.53816 0.14497 0.0
C3331 C 0.57732 0.52637 0.14586 0.0
C3332 C 0.5876 0.51988 0.12358 0.0
C3333 C 0.57739 0.52425 0.10078 0.0
C3334 C 0.54609 0.54545 0.16834 0.0
C3335 C 0.60884 0.50744 0.12375 0.0
H3336 H 0.62757 0.54384 0.21803 0.0
H3337 H 0.58031 0.47139 0.20689 0.0
H3338 H 0.62242 0.56042 0.15822 0.0
H3339 H 0.60032 0.57351 0.1738 0.0
H3340 H 0.62845 0.57429 0.19005 0.0
H3341 H 0.55351 0.4592 0.1721 0.0
H3342 H 0.54279 0.48522 0.16011 0.0
H3343 H 0.56464 0.47177 0.14441 0.0
H3344 H 0.53197 0.55055 0.12109 0.0
H3345 H 0.58481 0.51853 0.08366 0.0
H3346 H 0.55945 0.55742 0.18206 0.0
H3347 H 0.5386 0.52814 0.17698 0.0
H3348 H 0.53174 0.55592 0.16463 0.0
H3349 H 0.62324 0.51884 0.13669 0.0
H3350 H 0.6156 0.50506 0.10501 0.0
H3351 H 0.60412 0.4885 0.13049 0.0
C3352 C 0.25746 0.82437 0.94186 0.0
C3353 C 0.24526 0.84448 0.94311 0.0
C3354 C 0.25672 0.80837 0.91978 0.0
C3355 C 0.24348 0.81264 0.89852 0.0
C3356 C 0.23036 0.83225 0.89993 0.0
C3357 C 0.2314 0.84794 0.92225 0.0
C3358 C 0.27094 0.78765 0.91891 0.0
C3359 C 0.21603 0.83737 0.87758 0.0
C3360 C 0.26243 0.79688 0.83423 0.0
C3361 C 0.24534 0.77544 0.82539 0.0
C3362 C 0.26262 0.80847 0.85843 0.0
C3363 C 0.24519 0.79843 0.87413 0.0
C3364 C 0.22857 0.77602 0.86574 0.0
C3365 C 0.22888 0.76469 0.84136 0.0
C3366 C 0.28078 0.83223 0.86673 0.0
C3367 C 0.20979 0.76479 0.88205 0.0
H3368 H 0.26808 0.82146 0.95797 0.0
H3369 H 0.22179 0.86333 0.92313 0.0
H3370 H 0.25993 0.76939 0.91061 0.0
H3371 H 0.28581 0.79235 0.90691 0.0
H3372 H 0.27826 0.78511 0.93764 0.0
H3373 H 0.2053 0.85192 0.88231 0.0
H3374 H 0.228 0.84408 0.86318 0.0
H3375 H 0.20408 0.81969 0.86927 0.0
H3376 H 0.27518 0.80523 0.8219 0.0
H3377 H 0.21566 0.7481 0.8345 0.0
H3378 H 0.28985 0.8305 0.88481 0.0
H3379 H 0.2719 0.84866 0.86942 0.0
H3380 H 0.29426 0.83631 0.853 0.0
H3381 H 0.21776 0.76281 0.90063 0.0
H3382 H 0.19985 0.74593 0.87379 0.0
H3383 H 0.19715 0.77769 0.88488 0.0
C3384 C 0.93347 0.54445 0.70037 0.0
C3385 C 0.94498 0.55394 0.72367 0.0
C3386 C 0.94602 0.54405 0.67894 0.0
C3387 C 0.97071 0.55314 0.68092 0.0
C3388 C 0.98241 0.56314 0.70429 0.0
C3389 C 0.96937 0.5635 0.72543 0.0
C3390 C 0.93289 0.53358 0.65422 0.0
C3391 C 0.00871 0.57309 0.70699 0.0
C3392 C 0.00167 0.52507 0.62856 0.0
C3393 C 0.0033 0.54385 0.61231 0.0
C3394 C 0.99221 0.52845 0.65166 0.0
C3395 C 0.98423 0.55115 0.65852 0.0
C3396 C 0.98722 0.57083 0.64279 0.0
C3397 C -0.00331 0.56689 0.61975 0.0
C3398 C 0.98953 0.50715 0.66808 0.0
C3399 C 0.9791 0.5954 0.64943 0.0
H3400 H 0.9146 0.53723 0.69885 0.0
H3401 H 0.97837 0.5709 0.74339 0.0
H3402 H 0.9361 0.54791 0.64078 0.0
H3403 H 0.93951 0.51671 0.64646 0.0
H3404 H 0.91357 0.52801 0.65577 0.0
H3405 H 0.01503 0.58097 0.72636 0.0
H3406 H 0.0181 0.55762 0.70128 0.0
H3407 H 0.01356 0.58812 0.69452 0.0
H3408 H 0.00691 0.50729 0.62283 0.0
H3409 H -0.00191 0.58149 0.60719 0.0
H3410 H 0.97054 0.49886 0.66886 0.0
H3411 H -0.00336 0.51443 0.68734 0.0
H3412 H -0.0013 0.49183 0.66119 0.0
H3413 H 0.95983 0.59253 0.64478 0.0
H3414 H 0.98805 0.61073 0.63891 0.0
H3415 H 0.98241 0.60174 0.66958 0.0
C3416 C 0.24596 0.21098 0.42278 0.0
C3417 C 0.25888 0.19251 0.42832 0.0
C3418 C 0.2502 0.22425 0.40187 0.0
C3419 C 0.26747 0.21861 0.38575 0.0
C3420 C 0.28075 0.20014 0.39135 0.0
C3421 C 0.27647 0.18751 0.41272 0.0
C3422 C 0.23585 0.24403 0.39678 0.0
C3423 C 0.29892 0.19315 0.37435 0.0
C3424 C 0.2569 0.23423 0.31978 0.0
C3425 C 0.27288 0.25722 0.31943 0.0
C3426 C 0.25588 0.22084 0.34077 0.0
C3427 C 0.2706 0.23112 0.36239 0.0
C3428 C 0.28706 0.25415 0.36206 0.0
C3429 C 0.28817 0.26681 0.34047 0.0
C3430 C 0.23843 0.1961 0.34002 0.0
C3431 C 0.30281 0.26593 0.38484 0.0
H3432 H 0.23246 0.21507 0.43482 0.0
H3433 H 0.28644 0.17314 0.41678 0.0
H3434 H 0.24769 0.26221 0.39431 0.0
H3435 H 0.22463 0.23789 0.37925 0.0
H3436 H 0.22428 0.24743 0.41199 0.0
H3437 H 0.3084 0.17913 0.38179 0.0
H3438 H 0.2902 0.18503 0.35586 0.0
H3439 H 0.31201 0.2103 0.37144 0.0
H3440 H 0.24469 0.22692 0.3038 0.0
H3441 H 0.30042 0.28467 0.34037 0.0
H3442 H 0.22422 0.19853 0.35249 0.0
H3443 H 0.24721 0.18125 0.3468 0.0
H3444 H 0.23026 0.18932 0.32099 0.0
H3445 H 0.29185 0.27136 0.3999 0.0
H3446 H 0.31561 0.28306 0.38115 0.0
H3447 H 0.31271 0.25203 0.39175 0.0
C3448 C 0.325 0.57708 0.51442 0.0
C3449 C 0.33581 0.60251 0.51344 0.0
C3450 C 0.33829 0.55791 0.51349 0.0
C3451 C 0.36292 0.5644 0.51167 0.0
C3452 C 0.37398 0.59007 0.51107 0.0
C3453 C 0.36026 0.60881 0.51189 0.0
C3454 C 0.32602 0.53076 0.51438 0.0
C3455 C 0.40032 0.59774 0.50943 0.0
C3456 C 0.40704 0.52542 0.53025 0.0
C3457 C 0.41416 0.51752 0.50695 0.0
C3458 C 0.3887 0.53889 0.53218 0.0
C3459 C 0.37743 0.54458 0.51024 0.0
C3460 C 0.38288 0.53425 0.48673 0.0
C3461 C 0.40125 0.52073 0.48536 0.0
C3462 C 0.38325 0.54911 0.55768 0.0
C3463 C 0.37092 0.53952 0.46294 0.0
H3464 H 0.30608 0.57207 0.51564 0.0
H3465 H 0.36873 0.62841 0.51123 0.0
H3466 H 0.32906 0.51898 0.4974 0.0
H3467 H 0.33352 0.52297 0.5305 0.0
H3468 H 0.30671 0.52889 0.51588 0.0
H3469 H 0.40617 0.61855 0.50949 0.0
H3470 H 0.40975 0.59152 0.52534 0.0
H3471 H 0.40566 0.58827 0.49216 0.0
H3472 H 0.41691 0.52274 0.54701 0.0
H3473 H 0.40667 0.51447 0.46733 0.0
H3474 H 0.36453 0.55092 0.55835 0.0
H3475 H 0.39442 0.56821 0.56269 0.0
H3476 H 0.38721 0.53675 0.57191 0.0
H3477 H 0.35159 0.53713 0.4644 0.0
H3478 H 0.37431 0.52689 0.44669 0.0
H3479 H 0.37763 0.55945 0.45952 0.0
C3480 C 0.85334 0.92706 0.54424 0.0
C3481 C 0.83338 0.93508 0.53463 0.0
C3482 C 0.87616 0.94098 0.54232 0.0
C3483 C 0.87917 0.96357 0.53054 0.0
C3484 C 0.85914 0.97169 0.52062 0.0
C3485 C 0.83648 0.95736 0.52277 0.0
C3486 C 0.89706 0.93165 0.55315 0.0
C3487 C 0.86163 -0.00434 0.50794 0.0
C3488 C 0.93602 0.01078 0.55018 0.0
C3489 C 0.95033 0.00593 0.53089 0.0
C3490 C 0.9126 -0.00228 0.54985 0.0
C3491 C 0.90326 0.97922 0.52978 0.0
C3492 C 0.91744 0.97476 0.50985 0.0
C3493 C 0.94087 0.98816 0.51069 0.0
C3494 C 0.89811 0.00313 0.57143 0.0
C3495 C 0.90817 0.95517 0.48813 0.0
H3496 H 0.85118 0.90983 0.55333 0.0
H3497 H 0.8212 0.96367 0.51518 0.0
H3498 H 0.90958 0.92929 0.53866 0.0
H3499 H 0.90665 0.94586 0.56813 0.0
H3500 H 0.89179 0.91329 0.56097 0.0
H3501 H 0.84439 -0.00107 0.50042 0.0
H3502 H 0.86991 0.01219 0.52129 0.0
H3503 H 0.87341 -0.00523 0.49247 0.0
H3504 H 0.94332 0.0245 0.56586 0.0
H3505 H 0.95202 0.98405 0.49601 0.0
H3506 H 0.89379 0.98604 0.58144 0.0
H3507 H 0.88119 0.00767 0.5646 0.0
H3508 H 0.9075 0.01915 0.58484 0.0
H3509 H 0.90524 0.93599 0.49452 0.0
H3510 H 0.92057 0.95572 0.47309 0.0
H3511 H 0.89093 0.95811 0.48037 0.0
C3512 C 0.8231 0.09671 0.2469 0.0
C3513 C 0.83555 0.09573 0.22535 0.0
C3514 C 0.8104 0.11605 0.25241 0.0
C3515 C 0.81038 0.13508 0.23616 0.0
C3516 C 0.82253 0.13392 0.21415 0.0
C3517 C 0.83484 0.11421 0.20895 0.0
C3518 C 0.79742 0.11643 0.27589 0.0
C3519 C 0.82316 0.15397 0.19644 0.0
C3520 C 0.7663 0.17936 0.23918 0.0
C3521 C 0.77989 0.20133 0.25244 0.0
C3522 C 0.77566 0.15728 0.23445 0.0
C3523 C 0.7992 0.15726 0.24299 0.0
C3524 C 0.81266 0.17906 0.25713 0.0
C3525 C 0.80283 0.20069 0.26178 0.0
C3526 C 0.76063 0.13428 0.21961 0.0
C3527 C 0.83786 0.17996 0.26651 0.0
H3528 H 0.82336 0.08241 0.25958 0.0
H3529 H 0.84436 0.11362 0.19225 0.0
H3530 H 0.8057 0.13328 0.28885 0.0
H3531 H 0.77885 0.11798 0.27158 0.0
H3532 H 0.79755 0.09919 0.2855 0.0
H3533 H 0.83251 0.14975 0.1796 0.0
H3534 H 0.80498 0.15573 0.19055 0.0
H3535 H 0.8322 0.17264 0.20598 0.0
H3536 H 0.74859 0.17958 0.23187 0.0
H3537 H 0.81354 0.21743 0.27216 0.0
H3538 H 0.76084 0.11715 0.22934 0.0
H3539 H 0.76798 0.13101 0.20133 0.0
H3540 H 0.74206 0.13645 0.21638 0.0
H3541 H 0.84563 0.198 0.27807 0.0
H3542 H 0.84884 0.17781 0.25052 0.0
H3543 H 0.8388 0.164 0.27772 0.0
C3544 C 0.68629 0.12175 0.99261 0.0
C3545 C 0.70458 0.1112 0.00247 0.0
C3546 C 0.6627 0.10934 0.99261 0.0
C3547 C 0.65739 0.08579 0.00255 0.0
C3548 C 0.6758 0.0747 0.01189 0.0
C3549 C 0.69919 0.08759 0.0118 0.0
C3550 C 0.64344 0.12172 0.98256 0.0
C3551 C 0.67076 0.04951 0.02248 0.0
C3552 C 0.5972 0.06705 0.02721 0.0
C3553 C 0.58505 0.05009 0.00753 0.0
C3554 C 0.62078 0.07878 0.0258 0.0
C3555 C 0.6325 0.07328 0.00426 0.0
C3556 C 0.62049 0.05594 0.98445 0.0
C3557 C 0.59685 0.04456 0.9863 0.0
C3558 C 0.63307 0.09725 0.04727 0.0
C3559 C 0.63255 0.04954 0.96127 0.0
H3560 H 0.69034 0.13998 0.98535 0.0
H3561 H 0.71326 0.07923 0.01929 0.0
H3562 H 0.63198 0.10854 0.96801 0.0
H3563 H 0.63214 0.12612 -0.00232 0.0
H3564 H 0.65059 0.13954 0.97453 0.0
H3565 H 0.68714 0.04286 0.02777 0.0
H3566 H 0.6606 0.05113 0.03919 0.0
H3567 H 0.65976 0.03492 0.00875 0.0
H3568 H 0.58821 0.0715 0.04365 0.0
H3569 H 0.58763 0.03141 0.97103 0.0
H3570 H 0.63918 0.11613 0.04082 0.0
H3571 H 0.6489 0.09082 0.05459 0.0
H3572 H 0.62144 0.09939 0.06271 0.0
H3573 H 0.63862 0.06695 0.95218 0.0
H3574 H 0.62076 0.03545 0.94765 0.0
H3575 H 0.6484 0.04183 0.96621 0.0
C3576 C 0.18119 0.45304 0.24246 0.0
C3577 C 0.16023 0.43691 0.23229 0.0
C3578 C 0.20128 0.44341 0.24859 0.0
C3579 C 0.20029 0.41703 0.24458 0.0
C3580 C 0.17936 0.40067 0.2339 0.0
C3581 C 0.15956 0.41085 0.22781 0.0
C3582 C 0.22333 0.46135 0.25985 0.0
C3583 C 0.17772 0.37234 0.22939 0.0
C3584 C 0.25251 0.38496 0.2407 0.0
C3585 C 0.25166 0.37401 0.26312 0.0
C3586 C 0.23708 0.40103 0.23511 0.0
C3587 C 0.22067 0.4061 0.25247 0.0
C3588 C 0.22174 0.39748 0.27627 0.0
C3589 C 0.23741 0.38157 0.28138 0.0
C3590 C 0.23677 0.41041 0.20975 0.0
C3591 C 0.20464 0.40267 0.29535 0.0
H3592 H 0.1819 0.47327 0.24584 0.0
H3593 H 0.14345 0.39833 0.21993 0.0
H3594 H 0.22704 0.45744 0.27923 0.0
H3595 H 0.23874 0.45838 0.24938 0.0
H3596 H 0.22175 0.48153 0.26005 0.0
H3597 H 0.16031 0.36235 0.2205 0.0
H3598 H 0.19168 0.36808 0.21729 0.0
H3599 H 0.18065 0.36458 0.24728 0.0
H3600 H 0.26377 0.37931 0.22669 0.0
H3601 H 0.23691 0.37326 0.29884 0.0
H3602 H 0.23525 0.43063 0.2112 0.0
H3603 H 0.22116 0.39944 0.19816 0.0
H3604 H 0.25285 0.40822 0.20007 0.0
H3605 H 0.20275 0.42278 0.29666 0.0
H3606 H 0.21024 0.39822 0.31407 0.0
H3607 H 0.18699 0.39079 0.28963 0.0
C3608 C 0.16589 0.41738 0.0106 0.0
C3609 C 0.18881 0.42865 0.02029 0.0
C3610 C 0.14737 0.43077 0.01186 0.0
C3611 C 0.15184 0.45619 0.02288 0.0
C3612 C 0.17486 0.46762 0.03297 0.0
C3613 C 0.19306 0.45371 0.03162 0.0
C3614 C 0.12299 0.41772 0.00129 0.0
C3615 C 0.18021 0.49456 0.04517 0.0
C3616 C 0.10781 0.49509 0.0017 0.0
C3617 C 0.09226 0.49343 0.02077 0.0
C3618 C 0.12781 0.48394 0.00268 0.0
C3619 C 0.13241 0.47082 0.02324 0.0
C3620 C 0.11737 0.4702 0.04314 0.0
C3621 C 0.0974 0.4814 0.04159 0.0
C3622 C 0.1435 0.48532 0.9812 0.0
C3623 C 0.12147 0.4566 0.06554 0.0
H3624 H 0.16234 0.39798 0.00198 0.0
H3625 H 0.21068 0.46257 0.03924 0.0
H3626 H 0.11029 0.41791 0.01595 0.0
H3627 H 0.11705 0.4281 0.98623 0.0
H3628 H 0.12233 0.39776 0.99367 0.0
H3629 H 0.19896 0.50067 0.05231 0.0
H3630 H 0.17616 0.50759 0.03167 0.0
H3631 H 0.16883 0.49644 0.06085 0.0
H3632 H 0.10393 0.50443 0.98558 0.0
H3633 H 0.08541 0.48004 0.05636 0.0
H3634 H 0.14224 0.46606 0.97144 0.0
H3635 H 0.16219 0.49237 0.98809 0.0
H3636 H 0.1386 0.49787 0.96757 0.0
H3637 H 0.11245 0.43645 0.06169 0.0
H3638 H 0.11409 0.46499 0.08215 0.0
H3639 H 0.14048 0.45715 0.07 0.0
C3640 C 0.84379 0.93414 0.19907 0.0
C3641 C 0.83789 0.95577 0.21161 0.0
C3642 C 0.83128 0.90975 0.202 0.0
C3643 C 0.8124 0.90696 0.2178 0.0
C3644 C 0.80588 0.92874 0.22986 0.0
C3645 C 0.81868 0.95286 0.22661 0.0
C3646 C 0.83871 0.88695 0.1888 0.0
C3647 C 0.78581 0.92655 0.24682 0.0
C3648 C 0.76697 0.84561 0.21373 0.0
C3649 C 0.7746 0.83436 0.23409 0.0
C3650 C 0.77944 0.86896 0.20779 0.0
C3651 C 0.79999 0.8813 0.22259 0.0
C3652 C 0.80808 0.86966 0.24281 0.0
C3653 C 0.79524 0.84633 0.24834 0.0
C3654 C 0.77035 0.8807 0.18601 0.0
C3655 C 0.82995 0.88216 0.259 0.0
H3656 H 0.8586 0.93618 0.18745 0.0
H3657 H 0.81393 0.96944 0.23634 0.0
H3658 H 0.84539 0.87569 0.20266 0.0
H3659 H 0.82335 0.87445 0.17805 0.0
H3660 H 0.85274 0.89236 0.17595 0.0
H3661 H 0.78232 0.94534 0.25396 0.0
H3662 H 0.76946 0.9152 0.23683 0.0
H3663 H 0.78999 0.9165 0.26289 0.0
H3664 H 0.75105 0.83631 0.20262 0.0
H3665 H 0.80115 0.83769 0.26412 0.0
H3666 H 0.78446 0.88526 0.17309 0.0
H3667 H 0.76516 0.89877 0.1927 0.0
H3668 H 0.75487 0.86804 0.17555 0.0
H3669 H 0.84518 0.88655 0.24742 0.0
H3670 H 0.83447 0.87007 0.27327 0.0
H3671 H 0.82729 0.90039 0.26856 0.0
C3672 C 0.68173 0.06014 0.71052 0.0
C3673 C 0.65986 0.0544 0.72087 0.0
C3674 C 0.69494 0.08495 0.71324 0.0
C3675 C 0.68593 0.10447 0.72644 0.0
C3676 C 0.66369 0.09889 0.73657 0.0
C3677 C 0.65095 0.07387 0.73375 0.0
C3678 C 0.71865 0.0902 0.7023 0.0
C3679 C 0.65344 0.11933 0.75055 0.0
C3680 C 0.72792 0.16442 0.7542 0.0
C3681 C 0.72493 0.18122 0.73666 0.0
C3682 C 0.71559 0.13922 0.75091 0.0
C3683 C 0.69978 0.13076 0.7297 0.0
C3684 C 0.69691 0.14752 0.71178 0.0
C3685 C 0.7096 0.17253 0.71542 0.0
C3686 C 0.71924 0.12174 0.77028 0.0
C3687 C 0.6801 0.13917 0.689 0.0
H3688 H 0.68878 0.04516 0.70062 0.0
H3689 H 0.63403 0.06956 0.74174 0.0
H3690 H 0.71888 0.10464 0.68902 0.0
H3691 H 0.73265 0.09807 0.71725 0.0
H3692 H 0.72308 0.07291 0.69246 0.0
H3693 H 0.63571 0.11193 0.75684 0.0
H3694 H 0.66534 0.12804 0.76705 0.0
H3695 H 0.65201 0.13459 0.73857 0.0
H3696 H 0.73981 0.17096 0.7706 0.0
H3697 H 0.70709 0.1854 0.70182 0.0
H3698 H 0.72482 0.10465 0.76148 0.0
H3699 H 0.70239 0.11523 0.77875 0.0
H3700 H 0.73273 0.13105 0.7853 0.0
H3701 H 0.68477 0.12254 0.67824 0.0
H3702 H 0.68021 0.15444 0.67662 0.0
H3703 H 0.66189 0.13321 0.69467 0.0
loop_
_geom_bond_atom_site_label_1
_geom_bond_atom_site_label_2
_geom_bond_distance
_geom_bond_site_symmetry_2
_ccdc_geom_bond_type
C0 O1 1.160 . S
C0 O7 1.185 . S
O1 C0 1.160 . S
O2 Zn3 1.899 . S
O2 C10 1.284 . S
Zn3 O2 1.899 . S
Zn3 O4 2.032 . S
Zn3 O7 2.086 . S
Zn3 O12 1.977 1_455 S
O4 Zn3 2.032 . S
O4 C8 1.278 . S
C5 O6 1.203 . S
C5 O12 1.267 . S
O6 C5 1.203 . S
O7 C0 1.185 . S
O7 Zn3 2.086 . S
C8 O4 1.278 . S
C8 O9 1.207 . S
O9 C8 1.207 . S
C10 O2 1.284 . S
C10 O11 1.273 . S
O11 C10 1.273 . S
O12 Zn3 1.977 1_655 S
O12 C5 1.267 . S
C13 O14 1.160 . S
C13 O20 1.185 . S
O14 C13 1.160 . S
O15 Zn16 1.899 . S
O15 C23 1.284 . S
Zn16 O15 1.899 . S
Zn16 O17 2.032 1_455 S
Zn16 O20 2.086 1_455 S
Zn16 O25 1.977 . S
O17 Zn16 2.032 1_655 S
O17 C21 1.278 1_655 S
C18 O19 1.203 . S
C18 O25 1.267 . S
O19 C18 1.203 . S
O20 C13 1.185 . S
O20 Zn16 2.086 1_655 S
C21 O17 1.278 1_455 S
C21 O22 1.211 . S
O22 C21 1.211 . S
C23 O15 1.284 . S
C23 O24 1.273 . S
O24 C23 1.273 . S
O25 Zn16 1.977 . S
O25 C18 1.267 . S
C26 O27 1.160 . S
C26 O33 1.185 . S
O27 C26 1.160 . S
O28 Zn29 1.899 . S
O28 C36 1.284 . S
Zn29 O28 1.899 . S
Zn29 O30 2.032 . S
Zn29 O33 2.086 . S
Zn29 O38 1.977 . S
O30 Zn29 2.032 . S
O30 C34 1.278 . S
C31 O32 1.203 . S
C31 O38 1.267 . S
O32 C31 1.203 . S
O33 C26 1.185 . S
O33 Zn29 2.086 . S
C34 O30 1.278 . S
C34 O35 1.211 . S
O35 C34 1.211 . S
C36 O28 1.284 . S
C36 O37 1.273 . S
O37 C36 1.273 . S
O38 Zn29 1.977 . S
O38 C31 1.267 . S
C39 O40 1.160 . S
C39 O46 1.185 . S
O40 C39 1.160 . S
O41 Zn42 1.899 . S
O41 C49 1.284 . S
Zn42 O41 1.899 . S
Zn42 O43 2.032 . S
Zn42 O46 2.086 . S
Zn42 O51 1.977 . S
O43 Zn42 2.032 . S
O43 C47 1.278 . S
C44 O45 1.203 . S
C44 O51 1.267 . S
O45 C44 1.203 . S
O46 C39 1.185 . S
O46 Zn42 2.086 . S
C47 O43 1.278 . S
C47 O48 1.211 . S
O48 C47 1.211 . S
C49 O41 1.284 . S
C49 O50 1.273 . S
O50 C49 1.273 . S
O51 Zn42 1.977 . S
O51 C44 1.267 . S
C52 O53 1.160 . S
C52 O59 1.203 . S
O53 C52 1.160 . S
O54 Zn55 1.899 . S
O54 C62 1.284 . S
Zn55 O54 1.899 . S
Zn55 O56 2.032 . S
Zn55 O59 2.071 1_455 S
Zn55 O64 1.977 . S
O56 Zn55 2.032 . S
O56 C60 1.278 . S
C57 O58 1.203 . S
C57 O64 1.267 . S
O58 C57 1.203 . S
O59 C52 1.203 . S
O59 Zn55 2.071 1_655 S
C60 O56 1.278 . S
C60 O61 1.211 . S
O61 C60 1.211 . S
C62 O54 1.284 . S
C62 O63 1.273 . S
O63 C62 1.273 . S
O64 Zn55 1.977 . S
O64 C57 1.267 . S
C65 O66 1.160 . S
C65 O72 1.185 . S
O66 C65 1.160 . S
O67 Zn68 1.899 . S
O67 C75 1.284 . S
Zn68 O67 1.899 . S
Zn68 O69 2.032 . S
Zn68 O72 2.086 . S
Zn68 O77 1.977 . S
O69 Zn68 2.032 . S
O69 C73 1.278 . S
C70 O71 1.203 . S
C70 O77 1.267 . S
O71 C70 1.203 . S
O72 C65 1.185 . S
O72 Zn68 2.086 . S
C73 O69 1.278 . S
C73 O74 1.211 . S
O74 C73 1.211 . S
C75 O67 1.284 . S
C75 O76 1.273 . S
O76 C75 1.273 . S
O77 Zn68 1.977 . S
O77 C70 1.267 . S
C78 O79 1.160 . S
C78 O85 1.185 . S
O79 C78 1.160 . S
O80 Zn81 1.899 . S
O80 C88 1.284 . S
Zn81 O80 1.899 . S
Zn81 O82 2.032 . S
Zn81 O85 2.086 . S
Zn81 O90 1.977 . S
O82 Zn81 2.032 . S
O82 C86 1.278 . S
C83 O84 1.203 . S
C83 O90 1.267 . S
O84 C83 1.203 . S
O85 C78 1.185 . S
O85 Zn81 2.086 . S
C86 O82 1.278 . S
C86 O87 1.211 . S
O87 C86 1.211 . S
C88 O80 1.284 . S
C88 O89 1.273 . S
O89 C88 1.273 . S
O90 Zn81 1.977 . S
O90 C83 1.267 . S
C91 O92 1.160 . S
C91 O98 1.185 . S
O92 C91 1.160 . S
O93 Zn94 1.899 . S
O93 C101 1.284 1_455 S
Zn94 O93 1.899 . S
Zn94 O95 2.032 . S
Zn94 O98 2.086 . S
Zn94 O103 1.977 1_455 S
O95 Zn94 2.032 . S
O95 C99 1.278 . S
C96 O97 1.203 . S
C96 O103 1.267 . S
O97 C96 1.203 . S
O98 C91 1.185 . S
O98 Zn94 2.086 . S
C99 O95 1.278 . S
C99 O100 1.211 1_455 S
O100 C99 1.211 1_655 S
C101 O93 1.284 1_655 S
C101 O102 1.273 . S
O102 C101 1.273 . S
O103 Zn94 1.977 1_655 S
O103 C96 1.267 . S
C104 O105 1.160 . S
C104 O111 1.185 . S
O105 C104 1.160 . S
O106 Zn107 1.899 . S
O106 C114 1.284 . S
Zn107 O106 1.899 . S
Zn107 O108 2.032 . S
Zn107 O111 2.086 . S
Zn107 O116 1.977 1_545 S
O108 Zn107 2.032 . S
O108 C112 1.278 . S
C109 O110 1.203 . S
C109 O116 1.267 . S
O110 C109 1.203 . S
O111 C104 1.185 . S
O111 Zn107 2.086 . S
C112 O108 1.278 . S
C112 O113 1.211 1_545 S
O113 C112 1.211 1_565 S
C114 O106 1.284 . S
C114 O115 1.273 . S
O115 C114 1.273 . S
O116 Zn107 1.977 1_565 S
O116 C109 1.267 . S
C117 O118 1.160 . S
C117 O124 1.185 . S
O118 C117 1.160 . S
O119 Zn120 1.899 . S
O119 C127 1.284 . S
Zn120 O119 1.899 . S
Zn120 O121 2.032 . S
Zn120 O124 2.086 . S
Zn120 O129 1.977 . S
O121 Zn120 2.032 . S
O121 C125 1.278 . S
C122 O123 1.203 . S
C122 O129 1.267 . S
O123 C122 1.203 . S
O124 C117 1.185 . S
O124 Zn120 2.086 . S
C125 O121 1.278 . S
C125 O126 1.211 . S
O126 C125 1.211 . S
C127 O119 1.284 . S
C127 O128 1.273 . S
O128 C127 1.273 . S
O129 Zn120 1.977 . S
O129 C122 1.267 . S
C130 O131 1.160 . S
C130 O137 1.185 . S
O131 C130 1.160 . S
O132 Zn133 1.899 . S
O132 C140 1.284 . S
Zn133 O132 1.899 . S
Zn133 O134 2.032 . S
Zn133 O137 2.086 . S
Zn133 O142 1.977 1_565 S
O134 Zn133 2.032 . S
O134 C138 1.278 1_565 S
C135 O136 1.203 . S
C135 O142 1.267 . S
O136 C135 1.203 . S
O137 C130 1.185 . S
O137 Zn133 2.086 . S
C138 O134 1.278 1_545 S
C138 O139 1.211 . S
O139 C138 1.211 . S
C140 O132 1.284 . S
C140 O141 1.273 1_565 S
O141 C140 1.273 1_545 S
O142 Zn133 1.977 1_545 S
O142 C135 1.267 . S
C143 O144 1.160 . S
C143 O150 1.185 . S
O144 C143 1.160 . S
O145 Zn146 1.899 . S
O145 C153 1.284 . S
Zn146 O145 1.899 . S
Zn146 O147 2.032 1_554 S
Zn146 O150 2.086 . S
Zn146 O155 1.977 . S
O147 Zn146 2.032 1_556 S
O147 C151 1.278 . S
C148 O149 1.203 . S
C148 O155 1.267 . S
O149 C148 1.203 . S
O150 C143 1.185 . S
O150 Zn146 2.086 . S
C151 O147 1.278 . S
C151 O152 1.211 . S
O152 C151 1.211 . S
C153 O145 1.284 . S
C153 O154 1.273 . S
O154 C153 1.273 . S
O155 Zn146 1.977 . S
O155 C148 1.267 . S
C156 O157 1.160 . S
C156 O163 1.185 . S
O157 C156 1.160 . S
O158 Zn159 1.899 . S
O158 C166 1.284 . S
Zn159 O158 1.899 . S
Zn159 O160 2.032 1_554 S
Zn159 O163 2.086 . S
Zn159 O168 1.977 . S
O160 Zn159 2.032 1_556 S
O160 C164 1.278 . S
C161 O162 1.203 . S
C161 O168 1.267 . S
O162 C161 1.203 . S
O163 C156 1.185 . S
O163 Zn159 2.086 . S
C164 O160 1.278 . S
C164 O165 1.211 . S
O165 C164 1.211 . S
C166 O158 1.284 . S
C166 O167 1.273 . S
O167 C166 1.273 . S
O168 Zn159 1.977 . S
O168 C161 1.267 . S
C169 O170 1.160 . S
C169 O176 1.185 1_554 S
O170 C169 1.160 . S
O171 Zn172 1.899 . S
O171 C179 1.284 . S
Zn172 O171 1.899 . S
Zn172 O173 2.032 1_554 S
Zn172 O176 2.086 1_554 S
Zn172 O181 1.977 1_554 S
O173 Zn172 2.032 1_556 S
O173 C177 1.278 . S
C174 O175 1.217 . S
C174 O181 1.257 1_554 S
O175 C174 1.217 . S
O176 C169 1.185 1_556 S
O176 Zn172 2.086 1_556 S
C177 O173 1.278 . S
C177 O178 1.211 . S
O178 C177 1.211 . S
C179 O171 1.284 . S
C179 O180 1.273 . S
O180 C179 1.273 . S
O181 Zn172 1.977 1_556 S
O181 C174 1.257 1_556 S
C182 O183 1.160 . S
C182 O189 1.185 . S
O183 C182 1.160 . S
O184 Zn185 1.899 . S
O184 C192 1.284 . S
Zn185 O184 1.899 . S
Zn185 O186 2.032 . S
Zn185 O189 2.086 . S
Zn185 O194 1.977 . S
O186 Zn185 2.032 . S
O186 C190 1.278 . S
C187 O188 1.203 . S
C187 O194 1.267 . S
O188 C187 1.203 . S
O189 C182 1.185 . S
O189 Zn185 2.086 . S
C190 O186 1.278 . S
C190 O191 1.211 . S
O191 C190 1.211 . S
C192 O184 1.284 . S
C192 O193 1.273 . S
O193 C192 1.273 . S
O194 Zn185 1.977 . S
O194 C187 1.267 . S
C195 O196 1.160 . S
C195 O202 1.185 . S
O196 C195 1.160 . S
O197 Zn198 1.899 . S
O197 C205 1.284 . S
Zn198 O197 1.899 . S
Zn198 O199 2.032 . S
Zn198 O202 2.086 . S
Zn198 O207 1.977 . S
O199 Zn198 2.032 . S
O199 C203 1.278 . S
C200 O201 1.203 . S
C200 O207 1.267 . S
O201 C200 1.203 . S
O202 C195 1.185 . S
O202 Zn198 2.086 . S
C203 O199 1.278 . S
C203 O204 1.211 . S
O204 C203 1.211 . S
C205 O197 1.284 . S
C205 O206 1.273 . S
O206 C205 1.273 . S
O207 Zn198 1.977 . S
O207 C200 1.267 . S
C208 O209 1.160 . S
C208 O215 1.185 . S
O209 C208 1.160 . S
O210 Zn211 1.899 . S
O210 C218 1.284 . S
Zn211 O210 1.899 . S
Zn211 O212 2.032 . S
Zn211 O215 2.086 . S
Zn211 O220 1.977 . S
O212 Zn211 2.032 . S
O212 C216 1.278 . S
C213 O214 1.203 . S
C213 O220 1.267 1_565 S
O214 C213 1.203 . S
O215 C208 1.185 . S
O215 Zn211 2.086 . S
C216 O212 1.278 . S
C216 O217 1.211 . S
O217 C216 1.211 . S
C218 O210 1.284 . S
C218 O219 1.273 . S
O219 C218 1.273 . S
O220 Zn211 1.977 . S
O220 C213 1.267 1_545 S
C221 O222 1.160 . S
C221 O228 1.185 . S
O222 C221 1.160 . S
O223 Zn224 1.899 . S
O223 C231 1.284 . S
Zn224 O223 1.899 . S
Zn224 O225 2.032 . S
Zn224 O228 2.086 . S
Zn224 O233 1.977 . S
O225 Zn224 2.032 . S
O225 C229 1.278 . S
C226 O227 1.203 . S
C226 O233 1.267 . S
O227 C226 1.203 . S
O228 C221 1.185 . S
O228 Zn224 2.086 . S
C229 O225 1.278 . S
C229 O230 1.211 . S
O230 C229 1.211 . S
C231 O223 1.284 . S
C231 O232 1.273 . S
O232 C231 1.273 . S
O233 Zn224 1.977 . S
O233 C226 1.267 . S
C234 O235 1.160 . S
C234 O241 1.185 . S
O235 C234 1.160 . S
O236 Zn237 1.899 . S
O236 C244 1.284 . S
Zn237 O236 1.899 . S
Zn237 O238 2.032 . S
Zn237 O241 2.086 . S
Zn237 O246 1.977 . S
O238 Zn237 2.032 . S
O238 C242 1.278 . S
C239 O240 1.203 . S
C239 O246 1.267 . S
O240 C239 1.203 . S
O241 C234 1.185 . S
O241 Zn237 2.086 . S
C242 O238 1.278 . S
C242 O243 1.211 . S
O243 C242 1.211 . S
C244 O236 1.284 . S
C244 O245 1.273 . S
O245 C244 1.273 . S
O246 Zn237 1.977 . S
O246 C239 1.267 . S
C247 O248 1.160 . S
C247 O254 1.192 . S
O248 C247 1.160 . S
O249 Zn250 1.899 . S
O249 C257 1.284 . S
Zn250 O249 1.899 . S
Zn250 O251 2.032 . S
Zn250 O254 2.080 1_545 S
Zn250 O259 1.977 . S
O251 Zn250 2.032 . S
O251 C255 1.278 . S
C252 O253 1.203 . S
C252 O259 1.267 . S
O253 C252 1.203 . S
O254 C247 1.192 . S
O254 Zn250 2.080 1_565 S
C255 O251 1.278 . S
C255 O256 1.211 . S
O256 C255 1.211 . S
C257 O249 1.284 . S
C257 O258 1.273 . S
O258 C257 1.273 . S
O259 Zn250 1.977 . S
O259 C252 1.267 . S
C260 O261 1.160 . S
C260 O267 1.185 . S
O261 C260 1.160 . S
O262 Zn263 1.899 . S
O262 C270 1.284 . S
Zn263 O262 1.899 . S
Zn263 O264 2.032 1_554 S
Zn263 O267 2.086 . S
Zn263 O272 1.977 . S
O264 Zn263 2.032 1_556 S
O264 C268 1.278 . S
C265 O266 1.203 . S
C265 O272 1.267 . S
O266 C265 1.203 . S
O267 C260 1.185 . S
O267 Zn263 2.086 . S
C268 O264 1.278 . S
C268 O269 1.211 . S
O269 C268 1.211 . S
C270 O262 1.284 . S
C270 O271 1.273 . S
O271 C270 1.273 . S
O272 Zn263 1.977 . S
O272 C265 1.267 . S
C273 O274 1.160 . S
C273 O280 1.185 . S
O274 C273 1.160 . S
O275 Zn276 1.899 . S
O275 C283 1.284 . S
Zn276 O275 1.899 . S
Zn276 O277 2.032 . S
Zn276 O280 2.086 . S
Zn276 O285 1.977 . S
O277 Zn276 2.032 . S
O277 C281 1.278 . S
C278 O279 1.203 . S
C278 O285 1.267 . S
O279 C278 1.203 . S
O280 C273 1.185 . S
O280 Zn276 2.086 . S
C281 O277 1.278 . S
C281 O282 1.211 . S
O282 C281 1.211 . S
C283 O275 1.284 . S
C283 O284 1.273 . S
O284 C283 1.273 . S
O285 Zn276 1.977 . S
O285 C278 1.267 . S
C286 O287 1.160 . S
C286 O293 1.185 . S
O287 C286 1.160 . S
O288 Zn289 1.899 . S
O288 C296 1.284 . S
Zn289 O288 1.899 . S
Zn289 O290 2.032 . S
Zn289 O293 2.086 . S
Zn289 O298 1.977 . S
O290 Zn289 2.032 . S
O290 C294 1.278 . S
C291 O292 1.203 . S
C291 O298 1.267 . S
O292 C291 1.203 . S
O293 C286 1.185 . S
O293 Zn289 2.086 . S
C294 O290 1.278 . S
C294 O295 1.211 . S
O295 C294 1.211 . S
C296 O288 1.284 . S
C296 O297 1.273 . S
O297 C296 1.273 . S
O298 Zn289 1.977 . S
O298 C291 1.267 . S
C299 O300 1.160 . S
C299 O306 1.185 . S
O300 C299 1.160 . S
O301 Zn302 1.899 . S
O301 C309 1.284 . S
Zn302 O301 1.899 . S
Zn302 O303 2.032 . S
Zn302 O306 2.086 . S
Zn302 O311 1.977 . S
O303 Zn302 2.032 . S
O303 C307 1.278 . S
C304 O305 1.203 . S
C304 O311 1.267 . S
O305 C304 1.203 . S
O306 C299 1.185 . S
O306 Zn302 2.086 . S
C307 O303 1.278 . S
C307 O308 1.211 . S
O308 C307 1.211 . S
C309 O301 1.284 . S
C309 O310 1.273 . S
O310 C309 1.273 . S
O311 Zn302 1.977 . S
O311 C304 1.267 . S
Dy312 O316 2.398 . S
Dy312 O317 2.491 1_556 S
Dy312 O318 2.403 . S
Dy312 O319 2.664 1_655 S
Dy312 O323 2.326 . S
Dy312 O327 2.310 1_556 S
Dy312 O328 2.351 1_546 S
C313 O324 1.185 . S
C313 O325 1.356 . S
C314 O316 1.185 . S
C314 O317 1.355 1_556 S
Dy315 O319 2.310 1_554 S
Dy315 O322 2.351 . S
Dy315 O324 2.398 . S
Dy315 O325 2.490 . S
Dy315 O326 2.403 . S
Dy315 O327 2.663 1_455 S
Dy315 O329 2.326 1_545 S
O316 Dy312 2.398 . S
O316 C314 1.185 . S
O317 Dy312 2.491 1_554 S
O317 C314 1.355 1_554 S
O318 Dy312 2.403 . S
O318 C320 1.254 1_655 S
O319 Dy312 2.664 1_455 S
O319 Dy315 2.310 1_556 S
O319 C320 1.268 . S
C320 O318 1.254 1_455 S
C320 O319 1.268 . S
C321 O326 1.254 . S
C321 O327 1.268 1_455 S
O322 Dy315 2.351 . S
O322 C330 1.249 1_554 S
O323 Dy312 2.326 . S
O323 C330 1.267 1_655 S
O324 C313 1.185 . S
O324 Dy315 2.398 . S
O325 C313 1.356 . S
O325 Dy315 2.490 . S
O326 Dy315 2.403 . S
O326 C321 1.254 . S
O327 Dy312 2.310 1_554 S
O327 Dy315 2.663 1_655 S
O327 C321 1.268 1_655 S
O328 Dy312 2.351 1_564 S
O328 C331 1.249 1_655 S
O329 Dy315 2.326 1_565 S
O329 C331 1.267 . S
C330 O322 1.249 1_556 S
C330 O323 1.267 1_455 S
C331 O328 1.249 1_455 S
C331 O329 1.267 . S
Dy332 O336 2.398 . S
Dy332 O337 2.491 . S
Dy332 O338 2.403 . S
Dy332 O339 2.664 . S
Dy332 O343 2.326 . S
Dy332 O347 2.310 . S
Dy332 O348 2.351 . S
C333 O344 1.185 . S
C333 O345 1.355 . S
C334 O336 1.185 . S
C334 O337 1.355 . S
Dy335 O339 2.310 . S
Dy335 O342 2.351 . S
Dy335 O344 2.398 . S
Dy335 O345 2.491 . S
Dy335 O346 2.403 . S
Dy335 O347 2.664 . S
Dy335 O349 2.326 . S
O336 Dy332 2.398 . S
O336 C334 1.185 . S
O337 Dy332 2.491 . S
O337 C334 1.355 . S
O338 Dy332 2.403 . S
O338 C340 1.254 . S
O339 Dy332 2.664 . S
O339 Dy335 2.310 . S
O339 C340 1.268 . S
C340 O338 1.254 . S
C340 O339 1.268 . S
C341 O346 1.254 . S
C341 O347 1.268 . S
O342 Dy335 2.351 . S
O342 C350 1.249 . S
O343 Dy332 2.326 . S
O343 C350 1.267 . S
O344 C333 1.185 . S
O344 Dy335 2.398 . S
O345 C333 1.355 . S
O345 Dy335 2.491 . S
O346 Dy335 2.403 . S
O346 C341 1.254 . S
O347 Dy332 2.310 . S
O347 Dy335 2.664 . S
O347 C341 1.268 . S
O348 Dy332 2.351 . S
O348 C351 1.249 . S
O349 Dy335 2.326 . S
O349 C351 1.267 . S
C350 O342 1.249 . S
C350 O343 1.267 . S
C351 O348 1.249 . S
C351 O349 1.267 . S
Dy352 O356 2.398 . S
Dy352 O357 2.491 . S
Dy352 O358 2.403 . S
Dy352 O359 2.664 . S
Dy352 O363 2.326 1_545 S
Dy352 O367 2.310 . S
Dy352 O368 2.351 . S
C353 O364 1.185 . S
C353 O365 1.355 . S
C354 O356 1.154 1_565 S
C354 O357 1.355 1_565 S
Dy355 O359 2.310 . S
Dy355 O362 2.351 1_545 S
Dy355 O364 2.398 . S
Dy355 O365 2.491 . S
Dy355 O366 2.403 . S
Dy355 O367 2.664 . S
Dy355 O369 2.326 . S
O356 Dy352 2.398 . S
O356 C354 1.154 1_545 S
O357 Dy352 2.491 . S
O357 C354 1.355 1_545 S
O358 Dy352 2.403 . S
O358 C360 1.254 . S
O359 Dy352 2.664 . S
O359 Dy355 2.310 . S
O359 C360 1.268 . S
C360 O358 1.254 . S
C360 O359 1.268 . S
C361 O366 1.254 . S
C361 O367 1.268 . S
O362 Dy355 2.351 1_565 S
O362 C370 1.249 . S
O363 Dy352 2.326 1_565 S
O363 C370 1.267 . S
O364 C353 1.185 . S
O364 Dy355 2.398 . S
O365 C353 1.355 . S
O365 Dy355 2.491 . S
O366 Dy355 2.403 . S
O366 C361 1.254 . S
O367 Dy352 2.310 . S
O367 Dy355 2.664 . S
O367 C361 1.268 . S
O368 Dy352 2.351 . S
O368 C371 1.249 . S
O369 Dy355 2.326 . S
O369 C371 1.267 . S
C370 O362 1.249 . S
C370 O363 1.267 . S
C371 O368 1.249 . S
C371 O369 1.267 . S
Dy372 O376 2.398 . S
Dy372 O377 2.491 . S
Dy372 O378 2.403 . S
Dy372 O379 2.664 . S
Dy372 O383 2.326 . S
Dy372 O387 2.310 . S
Dy372 O388 2.351 . S
C373 O384 1.185 . S
C373 O385 1.355 . S
C374 O376 1.185 . S
C374 O377 1.355 . S
Dy375 O379 2.310 . S
Dy375 O382 2.351 . S
Dy375 O384 2.398 . S
Dy375 O385 2.491 . S
Dy375 O386 2.403 . S
Dy375 O387 2.664 . S
Dy375 O389 2.326 . S
O376 Dy372 2.398 . S
O376 C374 1.185 . S
O377 Dy372 2.491 . S
O377 C374 1.355 . S
O378 Dy372 2.403 . S
O378 C380 1.254 . S
O379 Dy372 2.664 . S
O379 Dy375 2.310 . S
O379 C380 1.268 . S
C380 O378 1.254 . S
C380 O379 1.268 . S
C381 O386 1.254 . S
C381 O387 1.268 . S
O382 Dy375 2.351 . S
O382 C390 1.249 . S
O383 Dy372 2.326 . S
O383 C390 1.267 . S
O384 C373 1.185 . S
O384 Dy375 2.398 . S
O385 C373 1.355 . S
O385 Dy375 2.491 . S
O386 Dy375 2.403 . S
O386 C381 1.254 . S
O387 Dy372 2.310 . S
O387 Dy375 2.664 . S
O387 C381 1.268 . S
O388 Dy372 2.351 . S
O388 C391 1.249 . S
O389 Dy375 2.326 . S
O389 C391 1.267 . S
C390 O382 1.249 . S
C390 O383 1.267 . S
C391 O388 1.249 . S
C391 O389 1.267 . S
Dy392 O396 2.398 . S
Dy392 O397 2.491 1_455 S
Dy392 O398 2.403 . S
Dy392 O399 2.664 . S
Dy392 O403 2.326 . S
Dy392 O407 2.310 1_455 S
Dy392 O408 2.351 1_545 S
C393 O404 1.185 . S
C393 O405 1.355 . S
C394 O396 1.185 1_655 S
C394 O397 1.355 . S
Dy395 O399 2.310 . S
Dy395 O402 2.351 . S
Dy395 O404 2.398 . S
Dy395 O405 2.491 . S
Dy395 O406 2.403 1_455 S
Dy395 O407 2.664 1_455 S
Dy395 O409 2.326 1_545 S
O396 Dy392 2.398 . S
O396 C394 1.185 1_455 S
O397 Dy392 2.491 1_655 S
O397 C394 1.355 . S
O398 Dy392 2.403 . S
O398 C400 1.254 . S
O399 Dy392 2.664 . S
O399 Dy395 2.310 . S
O399 C400 1.268 . S
C400 O398 1.254 . S
C400 O399 1.268 . S
C401 O406 1.254 . S
C401 O407 1.268 . S
O402 Dy395 2.351 . S
O402 C410 1.249 . S
O403 Dy392 2.326 . S
O403 C410 1.267 . S
O404 C393 1.185 . S
O404 Dy395 2.398 . S
O405 C393 1.355 . S
O405 Dy395 2.491 . S
O406 Dy395 2.403 1_655 S
O406 C401 1.254 . S
O407 Dy392 2.310 1_655 S
O407 Dy395 2.664 1_655 S
O407 C401 1.268 . S
O408 Dy392 2.351 1_565 S
O408 C411 1.249 . S
O409 Dy395 2.326 1_565 S
O409 C411 1.267 . S
C410 O402 1.249 . S
C410 O403 1.267 . S
C411 O408 1.249 . S
C411 O409 1.267 . S
Dy412 O416 2.398 . S
Dy412 O417 2.491 . S
Dy412 O418 2.403 . S
Dy412 O419 2.664 . S
Dy412 O423 2.326 . S
Dy412 O427 2.310 . S
Dy412 O428 2.351 . S
C413 O424 1.185 . S
C413 O425 1.355 . S
C414 O416 1.185 . S
C414 O417 1.355 . S
Dy415 O419 2.310 . S
Dy415 O422 2.351 . S
Dy415 O424 2.398 . S
Dy415 O425 2.491 . S
Dy415 O426 2.403 . S
Dy415 O427 2.664 . S
Dy415 O429 2.326 . S
O416 Dy412 2.398 . S
O416 C414 1.185 . S
O417 Dy412 2.491 . S
O417 C414 1.355 . S
O418 Dy412 2.403 . S
O418 C420 1.254 . S
O419 Dy412 2.664 . S
O419 Dy415 2.310 . S
O419 C420 1.268 . S
C420 O418 1.254 . S
C420 O419 1.268 . S
C421 O426 1.254 . S
C421 O427 1.268 . S
O422 Dy415 2.351 . S
O422 C430 1.249 . S
O423 Dy412 2.326 . S
O423 C430 1.267 . S
O424 C413 1.185 . S
O424 Dy415 2.398 . S
O425 C413 1.355 . S
O425 Dy415 2.491 . S
O426 Dy415 2.403 . S
O426 C421 1.254 . S
O427 Dy412 2.310 . S
O427 Dy415 2.664 . S
O427 C421 1.268 . S
O428 Dy412 2.351 . S
O428 C431 1.249 . S
O429 Dy415 2.326 . S
O429 C431 1.267 . S
C430 O422 1.249 . S
C430 O423 1.267 . S
C431 O428 1.249 . S
C431 O429 1.267 . S
Dy432 O436 2.398 1_545 S
Dy432 O437 2.491 . S
Dy432 O438 2.403 1_545 S
Dy432 O439 2.664 1_544 S
Dy432 O443 2.326 1_545 S
Dy432 O447 2.310 . S
Dy432 O448 2.351 . S
C433 O444 1.185 . S
C433 O445 1.355 . S
C434 O436 1.185 1_545 S
C434 O437 1.355 . S
Dy435 O439 2.310 1_545 S
Dy435 O442 2.351 . S
Dy435 O444 2.398 . S
Dy435 O445 2.491 . S
Dy435 O446 2.403 . S
Dy435 O447 2.664 1_556 S
Dy435 O449 2.326 . S
O436 Dy432 2.398 1_565 S
O436 C434 1.185 1_565 S
O437 Dy432 2.491 . S
O437 C434 1.355 . S
O438 Dy432 2.403 1_565 S
O438 C440 1.254 . S
O439 Dy432 2.664 1_566 S
O439 Dy435 2.310 1_565 S
O439 C440 1.268 1_556 S
C440 O438 1.254 . S
C440 O439 1.268 1_554 S
C441 O446 1.254 1_554 S
C441 O447 1.268 . S
O442 Dy435 2.351 . S
O442 C450 1.249 1_556 S
O443 Dy432 2.326 1_565 S
O443 C450 1.267 1_565 S
O444 C433 1.185 . S
O444 Dy435 2.398 . S
O445 C433 1.355 . S
O445 Dy435 2.491 . S
O446 Dy435 2.403 . S
O446 C441 1.254 1_556 S
O447 Dy432 2.310 . S
O447 Dy435 2.664 1_554 S
O447 C441 1.268 . S
O448 Dy432 2.351 . S
O448 C451 1.249 . S
O449 Dy435 2.326 . S
O449 C451 1.267 1_556 S
C450 O442 1.249 1_554 S
C450 O443 1.267 1_545 S
C451 O448 1.249 . S
C451 O449 1.267 1_554 S
Dy452 O456 2.398 . S
Dy452 O457 2.491 . S
Dy452 O458 2.403 . S
Dy452 O459 2.664 . S
Dy452 O463 2.326 . S
Dy452 O467 2.310 . S
Dy452 O468 2.351 . S
C453 O464 1.185 . S
C453 O465 1.355 . S
C454 O456 1.185 . S
C454 O457 1.355 . S
Dy455 O459 2.310 . S
Dy455 O462 2.351 . S
Dy455 O464 2.398 . S
Dy455 O465 2.491 . S
Dy455 O466 2.403 . S
Dy455 O467 2.664 . S
Dy455 O469 2.326 . S
O456 Dy452 2.398 . S
O456 C454 1.185 . S
O457 Dy452 2.491 . S
O457 C454 1.355 . S
O458 Dy452 2.403 . S
O458 C460 1.254 . S
O459 Dy452 2.664 . S
O459 Dy455 2.310 . S
O459 C460 1.268 . S
C460 O458 1.254 . S
C460 O459 1.268 . S
C461 O466 1.254 . S
C461 O467 1.268 . S
O462 Dy455 2.351 . S
O462 C470 1.249 . S
O463 Dy452 2.326 . S
O463 C470 1.267 . S
O464 C453 1.185 . S
O464 Dy455 2.398 . S
O465 C453 1.355 . S
O465 Dy455 2.491 . S
O466 Dy455 2.403 . S
O466 C461 1.254 . S
O467 Dy452 2.310 . S
O467 Dy455 2.664 . S
O467 C461 1.268 . S
O468 Dy452 2.351 . S
O468 C471 1.249 . S
O469 Dy455 2.326 . S
O469 C471 1.267 . S
C470 O462 1.249 . S
C470 O463 1.267 . S
C471 O468 1.249 . S
C471 O469 1.267 . S
Dy472 O476 2.398 . S
Dy472 O477 2.491 . S
Dy472 O478 2.403 . S
Dy472 O479 2.664 1_556 S
Dy472 O483 2.326 . S
Dy472 O487 2.310 1_556 S
Dy472 O488 2.351 1_556 S
C473 O484 1.185 . S
C473 O485 1.355 . S
C474 O476 1.185 . S
C474 O477 1.355 . S
Dy475 O479 2.310 . S
Dy475 O482 2.351 . S
Dy475 O484 2.398 . S
Dy475 O485 2.491 . S
Dy475 O486 2.403 . S
Dy475 O487 2.664 . S
Dy475 O489 2.326 . S
O476 Dy472 2.398 . S
O476 C474 1.185 . S
O477 Dy472 2.491 . S
O477 C474 1.355 . S
O478 Dy472 2.403 . S
O478 C480 1.254 1_556 S
O479 Dy472 2.664 1_554 S
O479 Dy475 2.310 . S
O479 C480 1.268 . S
C480 O478 1.254 1_554 S
C480 O479 1.268 . S
C481 O486 1.254 . S
C481 O487 1.268 . S
O482 Dy475 2.351 . S
O482 C490 1.249 1_554 S
O483 Dy472 2.326 . S
O483 C490 1.267 . S
O484 C473 1.185 . S
O484 Dy475 2.398 . S
O485 C473 1.355 . S
O485 Dy475 2.491 . S
O486 Dy475 2.403 . S
O486 C481 1.254 . S
O487 Dy472 2.310 1_554 S
O487 Dy475 2.664 . S
O487 C481 1.268 . S
O488 Dy472 2.351 1_554 S
O488 C491 1.249 . S
O489 Dy475 2.326 . S
O489 C491 1.267 . S
C490 O482 1.249 1_556 S
C490 O483 1.267 . S
C491 O488 1.249 . S
C491 O489 1.267 . S
Dy492 O496 2.398 . S
Dy492 O497 2.491 . S
Dy492 O498 2.403 . S
Dy492 O499 2.664 . S
Dy492 O503 2.326 . S
Dy492 O507 2.310 . S
Dy492 O508 2.351 . S
C493 O504 1.185 . S
C493 O505 1.355 . S
C494 O496 1.185 . S
C494 O497 1.355 . S
Dy495 O499 2.310 . S
Dy495 O502 2.351 . S
Dy495 O504 2.398 . S
Dy495 O505 2.491 . S
Dy495 O506 2.403 . S
Dy495 O507 2.664 . S
Dy495 O509 2.326 . S
O496 Dy492 2.398 . S
O496 C494 1.185 . S
O497 Dy492 2.491 . S
O497 C494 1.355 . S
O498 Dy492 2.403 . S
O498 C500 1.254 . S
O499 Dy492 2.664 . S
O499 Dy495 2.310 . S
O499 C500 1.268 . S
C500 O498 1.254 . S
C500 O499 1.268 . S
C501 O506 1.254 . S
C501 O507 1.268 . S
O502 Dy495 2.351 . S
O502 C510 1.249 . S
O503 Dy492 2.326 . S
O503 C510 1.267 . S
O504 C493 1.185 . S
O504 Dy495 2.398 . S
O505 C493 1.355 . S
O505 Dy495 2.491 . S
O506 Dy495 2.403 . S
O506 C501 1.254 . S
O507 Dy492 2.310 . S
O507 Dy495 2.664 . S
O507 C501 1.268 . S
O508 Dy492 2.351 . S
O508 C511 1.249 . S
O509 Dy495 2.326 . S
O509 C511 1.267 . S
C510 O502 1.249 . S
C510 O503 1.267 . S
C511 O508 1.249 . S
C511 O509 1.267 . S
Dy512 O516 2.398 . S
Dy512 O517 2.491 1_455 S
Dy512 O518 2.403 . S
Dy512 O519 2.664 . S
Dy512 O523 2.326 1_455 S
Dy512 O527 2.310 . S
Dy512 O528 2.351 . S
C513 O524 1.185 . S
C513 O525 1.355 . S
C514 O516 1.185 1_655 S
C514 O517 1.355 . S
Dy515 O519 2.310 . S
Dy515 O522 2.351 1_455 S
Dy515 O524 2.398 . S
Dy515 O525 2.491 . S
Dy515 O526 2.403 . S
Dy515 O527 2.664 . S
Dy515 O529 2.326 . S
O516 Dy512 2.398 . S
O516 C514 1.185 1_455 S
O517 Dy512 2.491 1_655 S
O517 C514 1.355 . S
O518 Dy512 2.403 . S
O518 C520 1.254 . S
O519 Dy512 2.664 . S
O519 Dy515 2.310 . S
O519 C520 1.268 . S
C520 O518 1.254 . S
C520 O519 1.268 . S
C521 O526 1.254 . S
C521 O527 1.268 . S
O522 Dy515 2.351 1_655 S
O522 C530 1.249 . S
O523 Dy512 2.326 1_655 S
O523 C530 1.267 . S
O524 C513 1.185 . S
O524 Dy515 2.398 . S
O525 C513 1.355 . S
O525 Dy515 2.491 . S
O526 Dy515 2.403 . S
O526 C521 1.254 . S
O527 Dy512 2.310 . S
O527 Dy515 2.664 . S
O527 C521 1.268 . S
O528 Dy512 2.351 . S
O528 C531 1.249 . S
O529 Dy515 2.326 . S
O529 C531 1.267 . S
C530 O522 1.249 . S
C530 O523 1.267 . S
C531 O528 1.249 . S
C531 O529 1.267 . S
Dy532 O536 2.398 . S
Dy532 O537 2.491 . S
Dy532 O538 2.403 . S
Dy532 O539 2.664 . S
Dy532 O543 2.326 . S
Dy532 O547 2.310 . S
Dy532 O548 2.351 . S
C533 O544 1.185 . S
C533 O545 1.355 . S
C534 O536 1.185 . S
C534 O537 1.355 . S
Dy535 O539 2.310 . S
Dy535 O542 2.351 . S
Dy535 O544 2.398 . S
Dy535 O545 2.491 . S
Dy535 O546 2.403 . S
Dy535 O547 2.664 . S
Dy535 O549 2.326 . S
O536 Dy532 2.398 . S
O536 C534 1.185 . S
O537 Dy532 2.491 . S
O537 C534 1.355 . S
O538 Dy532 2.403 . S
O538 C540 1.254 . S
O539 Dy532 2.664 . S
O539 Dy535 2.310 . S
O539 C540 1.268 . S
C540 O538 1.254 . S
C540 O539 1.268 . S
C541 O546 1.254 . S
C541 O547 1.268 . S
O542 Dy535 2.351 . S
O542 C550 1.249 . S
O543 Dy532 2.326 . S
O543 C550 1.267 . S
O544 C533 1.185 . S
O544 Dy535 2.398 . S
O545 C533 1.355 . S
O545 Dy535 2.491 . S
O546 Dy535 2.403 . S
O546 C541 1.254 . S
O547 Dy532 2.310 . S
O547 Dy535 2.664 . S
O547 C541 1.268 . S
O548 Dy532 2.351 . S
O548 C551 1.249 . S
O549 Dy535 2.326 . S
O549 C551 1.267 . S
C550 O542 1.249 . S
C550 O543 1.267 . S
C551 O548 1.249 . S
C551 O549 1.267 . S
Dy552 O556 2.398 . S
Dy552 O557 2.491 . S
Dy552 O558 2.403 . S
Dy552 O559 2.664 . S
Dy552 O563 2.326 . S
Dy552 O567 2.310 . S
Dy552 O568 2.351 . S
C553 O564 1.185 . S
C553 O565 1.355 . S
C554 O556 1.185 . S
C554 O557 1.355 . S
Dy555 O559 2.310 . S
Dy555 O562 2.351 . S
Dy555 O564 2.398 . S
Dy555 O565 2.491 . S
Dy555 O566 2.403 . S
Dy555 O567 2.664 . S
Dy555 O569 2.326 . S
O556 Dy552 2.398 . S
O556 C554 1.185 . S
O557 Dy552 2.491 . S
O557 C554 1.355 . S
O558 Dy552 2.403 . S
O558 C560 1.254 . S
O559 Dy552 2.664 . S
O559 Dy555 2.310 . S
O559 C560 1.268 . S
C560 O558 1.254 . S
C560 O559 1.268 . S
C561 O566 1.254 . S
C561 O567 1.268 . S
O562 Dy555 2.351 . S
O562 C570 1.249 . S
O563 Dy552 2.326 . S
O563 C570 1.267 . S
O564 C553 1.185 . S
O564 Dy555 2.398 . S
O565 C553 1.355 . S
O565 Dy555 2.491 . S
O566 Dy555 2.403 . S
O566 C561 1.254 . S
O567 Dy552 2.310 . S
O567 Dy555 2.664 . S
O567 C561 1.268 . S
O568 Dy552 2.351 . S
O568 C571 1.249 . S
O569 Dy555 2.326 . S
O569 C571 1.267 . S
C570 O562 1.249 . S
C570 O563 1.267 . S
C571 O568 1.249 . S
C571 O569 1.267 . S
Dy572 O576 2.398 . S
Dy572 O577 2.491 . S
Dy572 O578 2.403 . S
Dy572 O579 2.664 . S
Dy572 O583 2.326 . S
Dy572 O587 2.310 . S
Dy572 O588 2.351 . S
C573 O584 1.185 . S
C573 O585 1.355 . S
C574 O576 1.185 . S
C574 O577 1.355 . S
Dy575 O579 2.310 . S
Dy575 O582 2.351 . S
Dy575 O584 2.398 . S
Dy575 O585 2.491 . S
Dy575 O586 2.403 . S
Dy575 O587 2.664 . S
Dy575 O589 2.326 . S
O576 Dy572 2.398 . S
O576 C574 1.185 . S
O577 Dy572 2.491 . S
O577 C574 1.355 . S
O578 Dy572 2.403 . S
O578 C580 1.254 . S
O579 Dy572 2.664 . S
O579 Dy575 2.310 . S
O579 C580 1.268 . S
C580 O578 1.254 . S
C580 O579 1.268 . S
C581 O586 1.254 . S
C581 O587 1.268 . S
O582 Dy575 2.351 . S
O582 C590 1.249 . S
O583 Dy572 2.326 . S
O583 C590 1.267 . S
O584 C573 1.185 . S
O584 Dy575 2.398 . S
O585 C573 1.355 . S
O585 Dy575 2.491 . S
O586 Dy575 2.403 . S
O586 C581 1.254 . S
O587 Dy572 2.310 . S
O587 Dy575 2.664 . S
O587 C581 1.268 . S
O588 Dy572 2.351 . S
O588 C591 1.249 . S
O589 Dy575 2.326 . S
O589 C591 1.267 . S
C590 O582 1.249 . S
C590 O583 1.267 . S
C591 O588 1.249 . S
C591 O589 1.267 . S
Dy592 O596 2.398 . S
Dy592 O597 2.491 . S
Dy592 O598 2.403 . S
Dy592 O599 2.664 . S
Dy592 O603 2.326 . S
Dy592 O607 2.310 . S
Dy592 O608 2.351 . S
C593 O604 1.185 . S
C593 O605 1.355 . S
C594 O596 1.185 . S
C594 O597 1.355 . S
Dy595 O599 2.310 . S
Dy595 O602 2.351 . S
Dy595 O604 2.398 . S
Dy595 O605 2.491 . S
Dy595 O606 2.403 . S
Dy595 O607 2.664 . S
Dy595 O609 2.326 . S
O596 Dy592 2.398 . S
O596 C594 1.185 . S
O597 Dy592 2.491 . S
O597 C594 1.355 . S
O598 Dy592 2.403 . S
O598 C600 1.254 . S
O599 Dy592 2.664 . S
O599 Dy595 2.310 . S
O599 C600 1.268 . S
C600 O598 1.254 . S
C600 O599 1.268 . S
C601 O606 1.254 . S
C601 O607 1.268 . S
O602 Dy595 2.351 . S
O602 C610 1.249 . S
O603 Dy592 2.326 . S
O603 C610 1.267 . S
O604 C593 1.185 . S
O604 Dy595 2.398 . S
O605 C593 1.355 . S
O605 Dy595 2.491 . S
O606 Dy595 2.403 . S
O606 C601 1.254 . S
O607 Dy592 2.310 . S
O607 Dy595 2.664 . S
O607 C601 1.268 . S
O608 Dy592 2.351 . S
O608 C611 1.249 . S
O609 Dy595 2.326 . S
O609 C611 1.267 . S
C610 O602 1.249 . S
C610 O603 1.267 . S
C611 O608 1.249 . S
C611 O609 1.267 . S
Dy612 O616 2.398 . S
Dy612 O617 2.491 1_556 S
Dy612 O618 2.403 . S
Dy612 O619 2.664 . S
Dy612 O623 2.326 . S
Dy612 O627 2.310 1_556 S
Dy612 O628 2.351 1_556 S
C613 O624 1.185 . S
C613 O625 1.355 . S
C614 O616 1.185 . S
C614 O617 1.355 1_556 S
Dy615 O619 2.310 1_654 S
Dy615 O622 2.351 . S
Dy615 O624 2.398 . S
Dy615 O625 2.491 . S
Dy615 O626 2.403 1_655 S
Dy615 O627 2.664 1_655 S
Dy615 O629 2.326 1_655 S
O616 Dy612 2.398 . S
O616 C614 1.185 . S
O617 Dy612 2.491 1_554 S
O617 C614 1.355 1_554 S
O618 Dy612 2.403 . S
O618 C620 1.254 . S
O619 Dy612 2.664 . S
O619 Dy615 2.310 1_456 S
O619 C620 1.268 . S
C620 O618 1.254 . S
C620 O619 1.268 . S
C621 O626 1.254 . S
C621 O627 1.268 . S
O622 Dy615 2.351 . S
O622 C630 1.249 1_654 S
O623 Dy612 2.326 . S
O623 C630 1.267 . S
O624 C613 1.185 . S
O624 Dy615 2.398 . S
O625 C613 1.355 . S
O625 Dy615 2.491 . S
O626 Dy615 2.403 1_455 S
O626 C621 1.254 . S
O627 Dy612 2.310 1_554 S
O627 Dy615 2.664 1_455 S
O627 C621 1.268 . S
O628 Dy612 2.351 1_554 S
O628 C631 1.249 . S
O629 Dy615 2.326 1_455 S
O629 C631 1.267 . S
C630 O622 1.249 1_456 S
C630 O623 1.267 . S
C631 O628 1.249 . S
C631 O629 1.267 . S
C632 C633 1.391 . S
C632 C634 1.394 . S
C632 H648 0.931 . S
C633 C632 1.391 . S
C633 C637 1.376 1_655 S
C634 C632 1.394 . S
C634 C635 1.369 1_655 S
C634 C638 1.531 . S
C635 C634 1.369 1_455 S
C635 C636 1.410 . S
C635 C643 1.503 . S
C636 C635 1.410 . S
C636 C637 1.392 . S
C636 C639 1.511 . S
C637 C633 1.376 1_455 S
C637 C636 1.392 . S
C637 H649 0.929 . S
C638 C634 1.531 . S
C638 H650 0.960 . S
C638 H651 0.962 . S
C638 H652 0.960 . S
C639 C636 1.511 . S
C639 H653 0.961 . S
C639 H654 0.961 . S
C639 H655 0.961 . S
C640 C641 1.377 1_655 S
C640 C642 1.373 . S
C640 H656 0.913 1_556 S
C641 C640 1.377 1_455 S
C641 C645 1.408 . S
C642 C640 1.373 . S
C642 C643 1.370 1_655 S
C642 C646 1.508 1_556 S
C643 C635 1.503 . S
C643 C642 1.370 1_455 S
C643 C644 1.403 . S
C644 C643 1.403 . S
C644 C645 1.404 . S
C644 C647 1.539 . S
C645 C641 1.408 . S
C645 C644 1.404 . S
C645 H657 0.930 . S
C646 C642 1.508 1_554 S
C646 H658 0.933 1_554 S
C646 H659 0.962 . S
C646 H660 1.001 . S
C647 C644 1.539 . S
C647 H661 0.958 . S
C647 H662 0.961 . S
C647 H663 0.960 . S
H648 C632 0.931 . S
H649 C637 0.929 . S
H650 C638 0.960 . S
H651 C638 0.962 . S
H652 C638 0.960 . S
H653 C639 0.961 . S
H654 C639 0.961 . S
H655 C639 0.961 . S
H656 C640 0.913 1_554 S
H657 C645 0.930 . S
H658 C646 0.933 1_556 S
H659 C646 0.962 . S
H660 C646 1.001 . S
H661 C647 0.958 . S
H662 C647 0.961 . S
H663 C647 0.960 . S
C664 C665 1.391 . S
C664 C666 1.394 . S
C664 H680 0.931 . S
C665 C664 1.391 . S
C665 C669 1.376 . S
C666 C664 1.394 . S
C666 C667 1.369 . S
C666 C670 1.531 . S
C667 C666 1.369 . S
C667 C668 1.410 . S
C667 C675 1.503 . S
C668 C667 1.410 . S
C668 C669 1.392 . S
C668 C671 1.511 . S
C669 C665 1.376 . S
C669 C668 1.392 . S
C669 H681 0.929 . S
C670 C666 1.531 . S
C670 H682 0.960 . S
C670 H683 0.962 . S
C670 H684 0.960 . S
C671 C668 1.511 . S
C671 H685 0.961 . S
C671 H686 0.961 . S
C671 H687 0.961 . S
C672 C673 1.370 . S
C672 C674 1.363 . S
C672 H688 0.931 . S
C673 C672 1.370 . S
C673 C677 1.408 . S
C674 C672 1.363 . S
C674 C675 1.370 . S
C674 C678 1.524 . S
C675 C667 1.503 . S
C675 C674 1.370 . S
C675 C676 1.403 . S
C676 C675 1.403 . S
C676 C677 1.404 . S
C676 C679 1.539 . S
C677 C673 1.408 . S
C677 C676 1.404 . S
C677 H689 0.930 . S
C678 C674 1.524 . S
C678 H690 0.956 . S
C678 H691 0.961 . S
C678 H692 0.961 . S
C679 C676 1.539 . S
C679 H693 0.958 . S
C679 H694 0.961 . S
C679 H695 0.960 . S
H680 C664 0.931 . S
H681 C669 0.929 . S
H682 C670 0.960 . S
H683 C670 0.962 . S
H684 C670 0.960 . S
H685 C671 0.961 . S
H686 C671 0.961 . S
H687 C671 0.961 . S
H688 C672 0.931 . S
H689 C677 0.930 . S
H690 C678 0.956 . S
H691 C678 0.961 . S
H692 C678 0.961 . S
H693 C679 0.958 . S
H694 C679 0.961 . S
H695 C679 0.960 . S
C696 C697 1.391 . S
C696 C698 1.394 . S
C696 H712 0.931 . S
C697 C696 1.391 . S
C697 C701 1.376 . S
C698 C696 1.394 . S
C698 C699 1.369 . S
C698 C702 1.531 . S
C699 C698 1.369 . S
C699 C700 1.410 . S
C699 C707 1.503 . S
C700 C699 1.410 . S
C700 C701 1.392 . S
C700 C703 1.511 . S
C701 C697 1.376 . S
C701 C700 1.392 . S
C701 H713 0.929 . S
C702 C698 1.531 . S
C702 H714 0.960 . S
C702 H715 0.962 . S
C702 H716 0.960 . S
C703 C700 1.511 . S
C703 H717 0.961 . S
C703 H718 0.961 . S
C703 H719 0.961 . S
C704 C705 1.370 . S
C704 C706 1.363 . S
C704 H720 0.931 . S
C705 C704 1.370 . S
C705 C709 1.408 . S
C706 C704 1.363 . S
C706 C707 1.370 . S
C706 C710 1.524 . S
C707 C699 1.503 . S
C707 C706 1.370 . S
C707 C708 1.403 . S
C708 C707 1.403 . S
C708 C709 1.404 . S
C708 C711 1.539 . S
C709 C705 1.408 . S
C709 C708 1.404 . S
C709 H721 0.930 . S
C710 C706 1.524 . S
C710 H722 0.956 . S
C710 H723 0.961 . S
C710 H724 0.961 . S
C711 C708 1.539 . S
C711 H725 0.958 . S
C711 H726 0.961 . S
C711 H727 0.960 . S
H712 C696 0.931 . S
H713 C701 0.929 . S
H714 C702 0.960 . S
H715 C702 0.962 . S
H716 C702 0.960 . S
H717 C703 0.961 . S
H718 C703 0.961 . S
H719 C703 0.961 . S
H720 C704 0.931 . S
H721 C709 0.930 . S
H722 C710 0.956 . S
H723 C710 0.961 . S
H724 C710 0.961 . S
H725 C711 0.958 . S
H726 C711 0.961 . S
H727 C711 0.960 . S
C728 C729 1.391 . S
C728 C730 1.394 . S
C728 H744 0.931 . S
C729 C728 1.391 . S
C729 C733 1.376 . S
C730 C728 1.394 . S
C730 C731 1.369 . S
C730 C734 1.531 . S
C731 C730 1.369 . S
C731 C732 1.410 . S
C731 C739 1.503 . S
C732 C731 1.410 . S
C732 C733 1.392 . S
C732 C735 1.511 . S
C733 C729 1.376 . S
C733 C732 1.392 . S
C733 H745 0.929 . S
C734 C730 1.531 . S
C734 H746 0.960 . S
C734 H747 0.962 . S
C734 H748 0.960 . S
C735 C732 1.511 . S
C735 H749 0.961 . S
C735 H750 0.961 . S
C735 H751 0.961 . S
C736 C737 1.370 . S
C736 C738 1.363 . S
C736 H752 0.931 . S
C737 C736 1.370 . S
C737 C741 1.408 . S
C738 C736 1.363 . S
C738 C739 1.370 . S
C738 C742 1.524 . S
C739 C731 1.503 . S
C739 C738 1.370 . S
C739 C740 1.403 . S
C740 C739 1.403 . S
C740 C741 1.404 . S
C740 C743 1.539 . S
C741 C737 1.408 . S
C741 C740 1.404 . S
C741 H753 0.930 . S
C742 C738 1.524 . S
C742 H754 0.956 . S
C742 H755 0.961 . S
C742 H756 0.961 . S
C743 C740 1.539 . S
C743 H757 0.958 . S
C743 H758 0.961 . S
C743 H759 0.960 . S
H744 C728 0.931 . S
H745 C733 0.929 . S
H746 C734 0.960 . S
H747 C734 0.962 . S
H748 C734 0.960 . S
H749 C735 0.961 . S
H750 C735 0.961 . S
H751 C735 0.961 . S
H752 C736 0.931 . S
H753 C741 0.930 . S
H754 C742 0.956 . S
H755 C742 0.961 . S
H756 C742 0.961 . S
H757 C743 0.958 . S
H758 C743 0.961 . S
H759 C743 0.960 . S
C760 C761 1.391 1_655 S
C760 C762 1.394 1_655 S
C760 H776 0.931 . S
C761 C760 1.391 1_455 S
C761 C765 1.376 . S
C762 C760 1.394 1_455 S
C762 C763 1.369 . S
C762 C766 1.531 1_455 S
C763 C762 1.369 . S
C763 C764 1.410 . S
C763 C771 1.503 . S
C764 C763 1.410 . S
C764 C765 1.392 . S
C764 C767 1.511 . S
C765 C761 1.376 . S
C765 C764 1.392 . S
C765 H777 0.929 . S
C766 C762 1.531 1_655 S
C766 H778 0.960 . S
C766 H779 0.962 . S
C766 H780 0.960 . S
C767 C764 1.511 . S
C767 H781 0.961 . S
C767 H782 0.961 . S
C767 H783 0.961 . S
C768 C769 1.370 . S
C768 C770 1.363 . S
C768 H784 0.931 . S
C769 C768 1.370 . S
C769 C773 1.408 . S
C770 C768 1.363 . S
C770 C771 1.370 . S
C770 C774 1.524 1_455 S
C771 C763 1.503 . S
C771 C770 1.370 . S
C771 C772 1.403 . S
C772 C771 1.403 . S
C772 C773 1.404 . S
C772 C775 1.539 . S
C773 C769 1.408 . S
C773 C772 1.404 . S
C773 H785 0.930 . S
C774 C770 1.524 1_655 S
C774 H786 0.956 . S
C774 H787 0.961 1_655 S
C774 H788 0.961 . S
C775 C772 1.539 . S
C775 H789 0.958 . S
C775 H790 0.961 . S
C775 H791 0.960 . S
H776 C760 0.931 . S
H777 C765 0.929 . S
H778 C766 0.960 . S
H779 C766 0.962 . S
H780 C766 0.960 . S
H781 C767 0.961 . S
H782 C767 0.961 . S
H783 C767 0.961 . S
H784 C768 0.931 . S
H785 C773 0.930 . S
H786 C774 0.956 . S
H787 C774 0.961 1_455 S
H788 C774 0.961 . S
H789 C775 0.958 . S
H790 C775 0.961 . S
H791 C775 0.960 . S
C792 C793 1.391 . S
C792 C794 1.394 . S
C792 H808 0.931 . S
C793 C792 1.391 . S
C793 C797 1.376 . S
C794 C792 1.394 . S
C794 C795 1.369 . S
C794 C798 1.531 . S
C795 C794 1.369 . S
C795 C796 1.410 . S
C795 C803 1.503 . S
C796 C795 1.410 . S
C796 C797 1.392 . S
C796 C799 1.511 . S
C797 C793 1.376 . S
C797 C796 1.392 . S
C797 H809 0.929 . S
C798 C794 1.531 . S
C798 H810 0.960 . S
C798 H811 0.962 . S
C798 H812 0.960 . S
C799 C796 1.511 . S
C799 H813 0.961 . S
C799 H814 0.961 . S
C799 H815 0.961 . S
C800 C801 1.370 . S
C800 C802 1.363 . S
C800 H816 0.931 . S
C801 C800 1.370 . S
C801 C805 1.408 . S
C802 C800 1.363 . S
C802 C803 1.370 . S
C802 C806 1.524 . S
C803 C795 1.503 . S
C803 C802 1.370 . S
C803 C804 1.403 . S
C804 C803 1.403 . S
C804 C805 1.404 . S
C804 C807 1.539 . S
C805 C801 1.408 . S
C805 C804 1.404 . S
C805 H817 0.930 . S
C806 C802 1.524 . S
C806 H818 0.956 . S
C806 H819 0.961 . S
C806 H820 0.961 . S
C807 C804 1.539 . S
C807 H821 0.958 . S
C807 H822 0.961 . S
C807 H823 0.960 . S
H808 C792 0.931 . S
H809 C797 0.929 . S
H810 C798 0.960 . S
H811 C798 0.962 . S
H812 C798 0.960 . S
H813 C799 0.961 . S
H814 C799 0.961 . S
H815 C799 0.961 . S
H816 C800 0.931 . S
H817 C805 0.930 . S
H818 C806 0.956 . S
H819 C806 0.961 . S
H820 C806 0.961 . S
H821 C807 0.958 . S
H822 C807 0.961 . S
H823 C807 0.960 . S
C824 C825 1.391 . S
C824 C826 1.394 . S
C824 H840 0.931 . S
C825 C824 1.391 . S
C825 C829 1.376 . S
C826 C824 1.394 . S
C826 C827 1.369 . S
C826 C830 1.531 . S
C827 C826 1.369 . S
C827 C828 1.410 . S
C827 C835 1.503 . S
C828 C827 1.410 . S
C828 C829 1.392 . S
C828 C831 1.511 . S
C829 C825 1.376 . S
C829 C828 1.392 . S
C829 H841 0.929 . S
C830 C826 1.531 . S
C830 H842 0.960 . S
C830 H843 0.962 . S
C830 H844 0.960 . S
C831 C828 1.511 . S
C831 H845 0.961 . S
C831 H846 0.961 . S
C831 H847 0.961 . S
C832 C833 1.370 . S
C832 C834 1.363 . S
C832 H848 0.931 . S
C833 C832 1.370 . S
C833 C837 1.408 . S
C834 C832 1.363 . S
C834 C835 1.370 . S
C834 C838 1.524 . S
C835 C827 1.503 . S
C835 C834 1.370 . S
C835 C836 1.403 . S
C836 C835 1.403 . S
C836 C837 1.404 . S
C836 C839 1.539 . S
C837 C833 1.408 . S
C837 C836 1.404 . S
C837 H849 0.930 . S
C838 C834 1.524 . S
C838 H850 0.956 . S
C838 H851 0.961 . S
C838 H852 0.961 . S
C839 C836 1.539 . S
C839 H853 0.958 . S
C839 H854 0.961 . S
C839 H855 0.960 . S
H840 C824 0.931 . S
H841 C829 0.929 . S
H842 C830 0.960 . S
H843 C830 0.962 . S
H844 C830 0.960 . S
H845 C831 0.961 . S
H846 C831 0.961 . S
H847 C831 0.961 . S
H848 C832 0.931 . S
H849 C837 0.930 . S
H850 C838 0.956 . S
H851 C838 0.961 . S
H852 C838 0.961 . S
H853 C839 0.958 . S
H854 C839 0.961 . S
H855 C839 0.960 . S
C856 C857 1.391 . S
C856 C858 1.394 . S
C856 H872 0.931 . S
C857 C856 1.391 . S
C857 C861 1.376 . S
C858 C856 1.394 . S
C858 C859 1.369 . S
C858 C862 1.531 . S
C859 C858 1.369 . S
C859 C860 1.410 . S
C859 C867 1.503 . S
C860 C859 1.410 . S
C860 C861 1.392 . S
C860 C863 1.511 . S
C861 C857 1.376 . S
C861 C860 1.392 . S
C861 H873 0.929 . S
C862 C858 1.531 . S
C862 H874 0.960 . S
C862 H875 0.962 . S
C862 H876 0.960 . S
C863 C860 1.511 . S
C863 H877 0.961 . S
C863 H878 0.961 . S
C863 H879 0.961 . S
C864 C865 1.370 . S
C864 C866 1.363 . S
C864 H880 0.931 . S
C865 C864 1.370 . S
C865 C869 1.408 . S
C866 C864 1.363 . S
C866 C867 1.370 . S
C866 C870 1.524 . S
C867 C859 1.503 . S
C867 C866 1.370 . S
C867 C868 1.403 . S
C868 C867 1.403 . S
C868 C869 1.404 . S
C868 C871 1.539 . S
C869 C865 1.408 . S
C869 C868 1.404 . S
C869 H881 0.930 . S
C870 C866 1.524 . S
C870 H882 0.956 . S
C870 H883 0.961 . S
C870 H884 0.961 . S
C871 C868 1.539 . S
C871 H885 0.958 . S
C871 H886 0.961 . S
C871 H887 0.960 . S
H872 C856 0.931 . S
H873 C861 0.929 . S
H874 C862 0.960 . S
H875 C862 0.962 . S
H876 C862 0.960 . S
H877 C863 0.961 . S
H878 C863 0.961 . S
H879 C863 0.961 . S
H880 C864 0.931 . S
H881 C869 0.930 . S
H882 C870 0.956 . S
H883 C870 0.961 . S
H884 C870 0.961 . S
H885 C871 0.958 . S
H886 C871 0.961 . S
H887 C871 0.960 . S
C888 C889 1.391 . S
C888 C890 1.394 . S
C888 H904 0.931 . S
C889 C888 1.391 . S
C889 C893 1.376 . S
C890 C888 1.394 . S
C890 C891 1.369 . S
C890 C894 1.531 . S
C891 C890 1.369 . S
C891 C892 1.410 . S
C891 C899 1.503 . S
C892 C891 1.410 . S
C892 C893 1.392 . S
C892 C895 1.511 . S
C893 C889 1.376 . S
C893 C892 1.392 . S
C893 H905 0.929 . S
C894 C890 1.531 . S
C894 H906 0.960 . S
C894 H907 0.962 1_545 S
C894 H908 0.960 . S
C895 C892 1.511 . S
C895 H909 0.961 . S
C895 H910 0.961 . S
C895 H911 0.961 . S
C896 C897 1.370 . S
C896 C898 1.363 . S
C896 H912 0.931 1_655 S
C897 C896 1.370 . S
C897 C901 1.408 . S
C898 C896 1.363 . S
C898 C899 1.370 . S
C898 C902 1.524 . S
C899 C891 1.503 . S
C899 C898 1.370 . S
C899 C900 1.403 . S
C900 C899 1.403 . S
C900 C901 1.404 . S
C900 C903 1.539 . S
C901 C897 1.408 . S
C901 C900 1.404 . S
C901 H913 0.930 . S
C902 C898 1.524 . S
C902 H914 0.956 1_545 S
C902 H915 0.961 . S
C902 H916 0.961 1_545 S
C903 C900 1.539 . S
C903 H917 0.958 . S
C903 H918 0.961 . S
C903 H919 0.960 . S
H904 C888 0.931 . S
H905 C893 0.929 . S
H906 C894 0.960 . S
H907 C894 0.962 1_565 S
H908 C894 0.960 . S
H909 C895 0.961 . S
H910 C895 0.961 . S
H911 C895 0.961 . S
H912 C896 0.931 1_455 S
H913 C901 0.930 . S
H914 C902 0.956 1_565 S
H915 C902 0.961 . S
H916 C902 0.961 1_565 S
H917 C903 0.958 . S
H918 C903 0.961 . S
H919 C903 0.960 . S
C920 C921 1.391 . S
C920 C922 1.394 . S
C920 H936 0.931 . S
C921 C920 1.391 . S
C921 C925 1.376 . S
C922 C920 1.394 . S
C922 C923 1.369 . S
C922 C926 1.531 . S
C923 C922 1.369 . S
C923 C924 1.410 . S
C923 C931 1.503 . S
C924 C923 1.410 . S
C924 C925 1.392 . S
C924 C927 1.511 . S
C925 C921 1.376 . S
C925 C924 1.392 . S
C925 H937 0.929 . S
C926 C922 1.531 . S
C926 H938 0.960 . S
C926 H939 0.962 . S
C926 H940 0.960 . S
C927 C924 1.511 . S
C927 H941 0.961 . S
C927 H942 0.961 . S
C927 H943 0.961 . S
C928 C929 1.370 . S
C928 C930 1.363 . S
C928 H944 0.931 . S
C929 C928 1.370 . S
C929 C933 1.408 . S
C930 C928 1.363 . S
C930 C931 1.370 . S
C930 C934 1.524 . S
C931 C923 1.503 . S
C931 C930 1.370 . S
C931 C932 1.403 . S
C932 C931 1.403 . S
C932 C933 1.404 . S
C932 C935 1.539 . S
C933 C929 1.408 . S
C933 C932 1.404 . S
C933 H945 0.930 . S
C934 C930 1.524 . S
C934 H946 0.956 . S
C934 H947 0.961 . S
C934 H948 0.961 . S
C935 C932 1.539 . S
C935 H949 0.958 . S
C935 H950 0.961 . S
C935 H951 0.960 . S
H936 C920 0.931 . S
H937 C925 0.929 . S
H938 C926 0.960 . S
H939 C926 0.962 . S
H940 C926 0.960 . S
H941 C927 0.961 . S
H942 C927 0.961 . S
H943 C927 0.961 . S
H944 C928 0.931 . S
H945 C933 0.930 . S
H946 C934 0.956 . S
H947 C934 0.961 . S
H948 C934 0.961 . S
H949 C935 0.958 . S
H950 C935 0.961 . S
H951 C935 0.960 . S
C952 C953 1.391 . S
C952 C954 1.394 . S
C952 H968 0.931 1_545 S
C953 C952 1.391 . S
C953 C957 1.376 . S
C954 C952 1.394 . S
C954 C955 1.369 . S
C954 C958 1.531 1_545 S
C955 C954 1.369 . S
C955 C956 1.410 . S
C955 C963 1.503 . S
C956 C955 1.410 . S
C956 C957 1.392 . S
C956 C959 1.511 . S
C957 C953 1.376 . S
C957 C956 1.392 . S
C957 H969 0.929 . S
C958 C954 1.531 1_565 S
C958 H970 0.960 . S
C958 H971 0.962 . S
C958 H972 0.960 . S
C959 C956 1.511 . S
C959 H973 0.961 . S
C959 H974 0.961 . S
C959 H975 0.961 . S
C960 C961 1.370 . S
C960 C962 1.363 . S
C960 H976 0.931 . S
C961 C960 1.370 . S
C961 C965 1.408 1_545 S
C962 C960 1.363 . S
C962 C963 1.370 . S
C962 C966 1.524 . S
C963 C955 1.503 . S
C963 C962 1.370 . S
C963 C964 1.403 1_545 S
C964 C963 1.403 1_565 S
C964 C965 1.404 . S
C964 C967 1.539 . S
C965 C961 1.408 1_565 S
C965 C964 1.404 . S
C965 H977 0.930 . S
C966 C962 1.524 . S
C966 H978 0.956 . S
C966 H979 0.961 . S
C966 H980 0.961 . S
C967 C964 1.539 . S
C967 H981 0.958 . S
C967 H982 0.961 . S
C967 H983 0.960 . S
H968 C952 0.931 1_565 S
H969 C957 0.929 . S
H970 C958 0.960 . S
H971 C958 0.962 . S
H972 C958 0.960 . S
H973 C959 0.961 . S
H974 C959 0.961 . S
H975 C959 0.961 . S
H976 C960 0.931 . S
H977 C965 0.930 . S
H978 C966 0.956 . S
H979 C966 0.961 . S
H980 C966 0.961 . S
H981 C967 0.958 . S
H982 C967 0.961 . S
H983 C967 0.960 . S
C984 C985 1.391 . S
C984 C986 1.394 . S
C984 H1000 0.931 . S
C985 C984 1.391 . S
C985 C989 1.376 . S
C986 C984 1.394 . S
C986 C987 1.369 . S
C986 C990 1.531 . S
C987 C986 1.369 . S
C987 C988 1.410 . S
C987 C995 1.503 . S
C988 C987 1.410 . S
C988 C989 1.392 . S
C988 C991 1.511 . S
C989 C985 1.376 . S
C989 C988 1.392 . S
C989 H1001 0.929 . S
C990 C986 1.531 . S
C990 H1002 0.960 . S
C990 H1003 0.962 . S
C990 H1004 0.960 . S
C991 C988 1.511 . S
C991 H1005 0.961 . S
C991 H1006 0.961 . S
C991 H1007 0.961 . S
C992 C993 1.370 . S
C992 C994 1.363 . S
C992 H1008 0.931 . S
C993 C992 1.370 . S
C993 C997 1.408 . S
C994 C992 1.363 . S
C994 C995 1.370 . S
C994 C998 1.524 . S
C995 C987 1.503 . S
C995 C994 1.370 . S
C995 C996 1.403 . S
C996 C995 1.403 . S
C996 C997 1.404 . S
C996 C999 1.539 . S
C997 C993 1.408 . S
C997 C996 1.404 . S
C997 H1009 0.930 . S
C998 C994 1.524 . S
C998 H1010 0.956 . S
C998 H1011 0.961 . S
C998 H1012 0.961 . S
C999 C996 1.539 . S
C999 H1013 0.958 . S
C999 H1014 0.961 . S
C999 H1015 0.960 . S
H1000 C984 0.931 . S
H1001 C989 0.929 . S
H1002 C990 0.960 . S
H1003 C990 0.962 . S
H1004 C990 0.960 . S
H1005 C991 0.961 . S
H1006 C991 0.961 . S
H1007 C991 0.961 . S
H1008 C992 0.931 . S
H1009 C997 0.930 . S
H1010 C998 0.956 . S
H1011 C998 0.961 . S
H1012 C998 0.961 . S
H1013 C999 0.958 . S
H1014 C999 0.961 . S
H1015 C999 0.960 . S
C1016 C1017 1.391 . S
C1016 C1018 1.394 . S
C1016 H1032 0.931 . S
C1017 C1016 1.391 . S
C1017 C1021 1.376 . S
C1018 C1016 1.394 . S
C1018 C1019 1.369 . S
C1018 C1022 1.561 . S
C1019 C1018 1.369 . S
C1019 C1020 1.410 . S
C1019 C1027 1.503 . S
C1020 C1019 1.410 . S
C1020 C1021 1.392 . S
C1020 C1023 1.511 . S
C1021 C1017 1.376 . S
C1021 C1020 1.392 . S
C1021 H1033 0.929 . S
C1022 C1018 1.561 . S
C1022 H1034 0.957 . S
C1022 H1035 0.947 1_545 S
C1022 H1036 0.950 1_545 S
C1023 C1020 1.511 . S
C1023 H1037 0.961 . S
C1023 H1038 0.961 . S
C1023 H1039 0.961 . S
C1024 C1025 1.370 . S
C1024 C1026 1.363 . S
C1024 H1040 0.931 . S
C1025 C1024 1.370 . S
C1025 C1029 1.408 1_655 S
C1026 C1024 1.363 . S
C1026 C1027 1.370 . S
C1026 C1030 1.524 . S
C1027 C1019 1.503 . S
C1027 C1026 1.370 . S
C1027 C1028 1.403 . S
C1028 C1027 1.403 . S
C1028 C1029 1.404 1_655 S
C1028 C1031 1.539 1_655 S
C1029 C1025 1.408 1_455 S
C1029 C1028 1.404 1_455 S
C1029 H1041 0.930 . S
C1030 C1026 1.524 . S
C1030 H1042 0.956 . S
C1030 H1043 0.961 . S
C1030 H1044 0.961 . S
C1031 C1028 1.539 1_455 S
C1031 H1045 0.958 . S
C1031 H1046 0.961 . S
C1031 H1047 0.960 . S
H1032 C1016 0.931 . S
H1033 C1021 0.929 . S
H1034 C1022 0.957 . S
H1035 C1022 0.947 1_565 S
H1036 C1022 0.950 1_565 S
H1037 C1023 0.961 . S
H1038 C1023 0.961 . S
H1039 C1023 0.961 . S
H1040 C1024 0.931 . S
H1041 C1029 0.930 . S
H1042 C1030 0.956 . S
H1043 C1030 0.961 . S
H1044 C1030 0.961 . S
H1045 C1031 0.958 . S
H1046 C1031 0.961 . S
H1047 C1031 0.960 . S
C1048 C1049 1.391 . S
C1048 C1050 1.394 . S
C1048 H1064 0.931 . S
C1049 C1048 1.391 . S
C1049 C1053 1.376 . S
C1050 C1048 1.394 . S
C1050 C1051 1.369 . S
C1050 C1054 1.531 . S
C1051 C1050 1.369 . S
C1051 C1052 1.410 . S
C1051 C1059 1.503 . S
C1052 C1051 1.410 . S
C1052 C1053 1.392 . S
C1052 C1055 1.511 . S
C1053 C1049 1.376 . S
C1053 C1052 1.392 . S
C1053 H1065 0.929 . S
C1054 C1050 1.531 . S
C1054 H1066 0.960 . S
C1054 H1067 0.962 . S
C1054 H1068 0.960 . S
C1055 C1052 1.511 . S
C1055 H1069 0.961 . S
C1055 H1070 0.961 . S
C1055 H1071 0.961 . S
C1056 C1057 1.370 . S
C1056 C1058 1.363 . S
C1056 H1072 0.931 . S
C1057 C1056 1.370 . S
C1057 C1061 1.408 . S
C1058 C1056 1.363 . S
C1058 C1059 1.370 . S
C1058 C1062 1.524 . S
C1059 C1051 1.503 . S
C1059 C1058 1.370 . S
C1059 C1060 1.403 . S
C1060 C1059 1.403 . S
C1060 C1061 1.404 . S
C1060 C1063 1.539 . S
C1061 C1057 1.408 . S
C1061 C1060 1.404 . S
C1061 H1073 0.930 . S
C1062 C1058 1.524 . S
C1062 H1074 0.956 . S
C1062 H1075 0.961 . S
C1062 H1076 0.961 . S
C1063 C1060 1.539 . S
C1063 H1077 0.958 . S
C1063 H1078 0.961 . S
C1063 H1079 0.960 . S
H1064 C1048 0.931 . S
H1065 C1053 0.929 . S
H1066 C1054 0.960 . S
H1067 C1054 0.962 . S
H1068 C1054 0.960 . S
H1069 C1055 0.961 . S
H1070 C1055 0.961 . S
H1071 C1055 0.961 . S
H1072 C1056 0.931 . S
H1073 C1061 0.930 . S
H1074 C1062 0.956 . S
H1075 C1062 0.961 . S
H1076 C1062 0.961 . S
H1077 C1063 0.958 . S
H1078 C1063 0.961 . S
H1079 C1063 0.960 . S
C1080 C1081 1.391 . S
C1080 C1082 1.394 . S
C1080 H1096 0.931 . S
C1081 C1080 1.391 . S
C1081 C1085 1.376 . S
C1082 C1080 1.394 . S
C1082 C1083 1.369 . S
C1082 C1086 1.531 . S
C1083 C1082 1.369 . S
C1083 C1084 1.410 . S
C1083 C1091 1.503 . S
C1084 C1083 1.410 . S
C1084 C1085 1.392 . S
C1084 C1087 1.511 . S
C1085 C1081 1.376 . S
C1085 C1084 1.392 . S
C1085 H1097 0.922 1_545 S
C1086 C1082 1.531 . S
C1086 H1098 0.960 . S
C1086 H1099 0.962 . S
C1086 H1100 0.960 . S
C1087 C1084 1.511 . S
C1087 H1101 0.961 1_545 S
C1087 H1102 0.961 1_545 S
C1087 H1103 0.961 . S
C1088 C1089 1.370 . S
C1088 C1090 1.363 . S
C1088 H1104 0.931 . S
C1089 C1088 1.370 . S
C1089 C1093 1.408 . S
C1090 C1088 1.363 . S
C1090 C1091 1.370 . S
C1090 C1094 1.524 . S
C1091 C1083 1.503 . S
C1091 C1090 1.370 . S
C1091 C1092 1.403 . S
C1092 C1091 1.403 . S
C1092 C1093 1.404 . S
C1092 C1095 1.539 . S
C1093 C1089 1.408 . S
C1093 C1092 1.404 . S
C1093 H1105 0.930 . S
C1094 C1090 1.524 . S
C1094 H1106 0.956 . S
C1094 H1107 0.961 1_545 S
C1094 H1108 0.961 1_545 S
C1095 C1092 1.539 . S
C1095 H1109 0.958 . S
C1095 H1110 0.961 . S
C1095 H1111 0.960 . S
H1096 C1080 0.931 . S
H1097 C1085 0.922 1_565 S
H1098 C1086 0.960 . S
H1099 C1086 0.962 . S
H1100 C1086 0.960 . S
H1101 C1087 0.961 1_565 S
H1102 C1087 0.961 1_565 S
H1103 C1087 0.961 . S
H1104 C1088 0.931 . S
H1105 C1093 0.930 . S
H1106 C1094 0.956 . S
H1107 C1094 0.961 1_565 S
H1108 C1094 0.961 1_565 S
H1109 C1095 0.958 . S
H1110 C1095 0.961 . S
H1111 C1095 0.960 . S
C1112 C1113 1.391 . S
C1112 C1114 1.394 . S
C1112 H1128 0.931 . S
C1113 C1112 1.391 . S
C1113 C1117 1.376 . S
C1114 C1112 1.394 . S
C1114 C1115 1.369 . S
C1114 C1118 1.531 . S
C1115 C1114 1.369 . S
C1115 C1116 1.410 . S
C1115 C1123 1.503 . S
C1116 C1115 1.410 . S
C1116 C1117 1.392 . S
C1116 C1119 1.511 . S
C1117 C1113 1.376 . S
C1117 C1116 1.392 . S
C1117 H1129 0.929 . S
C1118 C1114 1.531 . S
C1118 H1130 0.960 . S
C1118 H1131 0.962 . S
C1118 H1132 0.960 . S
C1119 C1116 1.511 . S
C1119 H1133 0.961 . S
C1119 H1134 0.961 . S
C1119 H1135 0.961 . S
C1120 C1121 1.370 . S
C1120 C1122 1.363 . S
C1120 H1136 0.931 . S
C1121 C1120 1.370 . S
C1121 C1125 1.408 . S
C1122 C1120 1.363 . S
C1122 C1123 1.370 . S
C1122 C1126 1.524 . S
C1123 C1115 1.503 . S
C1123 C1122 1.370 . S
C1123 C1124 1.403 . S
C1124 C1123 1.403 . S
C1124 C1125 1.404 . S
C1124 C1127 1.539 . S
C1125 C1121 1.408 . S
C1125 C1124 1.404 . S
C1125 H1137 0.930 . S
C1126 C1122 1.524 . S
C1126 H1138 0.956 . S
C1126 H1139 0.961 . S
C1126 H1140 0.961 . S
C1127 C1124 1.539 . S
C1127 H1141 0.958 . S
C1127 H1142 0.961 . S
C1127 H1143 0.960 . S
H1128 C1112 0.931 . S
H1129 C1117 0.929 . S
H1130 C1118 0.960 . S
H1131 C1118 0.962 . S
H1132 C1118 0.960 . S
H1133 C1119 0.961 . S
H1134 C1119 0.961 . S
H1135 C1119 0.961 . S
H1136 C1120 0.931 . S
H1137 C1125 0.930 . S
H1138 C1126 0.956 . S
H1139 C1126 0.961 . S
H1140 C1126 0.961 . S
H1141 C1127 0.958 . S
H1142 C1127 0.961 . S
H1143 C1127 0.960 . S
C1144 C1145 1.391 . S
C1144 C1146 1.394 . S
C1144 H1160 0.931 . S
C1145 C1144 1.391 . S
C1145 C1149 1.376 . S
C1146 C1144 1.394 . S
C1146 C1147 1.369 . S
C1146 C1150 1.531 . S
C1147 C1146 1.369 . S
C1147 C1148 1.410 . S
C1147 C1155 1.503 . S
C1148 C1147 1.410 . S
C1148 C1149 1.392 . S
C1148 C1151 1.511 1_554 S
C1149 C1145 1.376 . S
C1149 C1148 1.392 . S
C1149 H1161 0.929 1_554 S
C1150 C1146 1.531 . S
C1150 H1162 0.960 . S
C1150 H1163 0.962 . S
C1150 H1164 0.960 . S
C1151 C1148 1.511 1_556 S
C1151 H1165 0.961 . S
C1151 H1166 0.961 . S
C1151 H1167 0.961 1_566 S
C1152 C1153 1.370 . S
C1152 C1154 1.363 . S
C1152 H1168 0.931 . S
C1153 C1152 1.370 . S
C1153 C1157 1.408 1_565 S
C1154 C1152 1.363 . S
C1154 C1155 1.370 . S
C1154 C1158 1.524 . S
C1155 C1147 1.503 . S
C1155 C1154 1.370 . S
C1155 C1156 1.403 . S
C1156 C1155 1.403 . S
C1156 C1157 1.404 1_565 S
C1156 C1159 1.539 1_565 S
C1157 C1153 1.408 1_545 S
C1157 C1156 1.404 1_545 S
C1157 H1169 0.930 . S
C1158 C1154 1.524 . S
C1158 H1170 0.956 . S
C1158 H1171 0.961 1_554 S
C1158 H1172 0.961 1_554 S
C1159 C1156 1.539 1_545 S
C1159 H1173 0.958 . S
C1159 H1174 0.961 . S
C1159 H1175 0.960 . S
H1160 C1144 0.931 . S
H1161 C1149 0.929 1_556 S
H1162 C1150 0.960 . S
H1163 C1150 0.962 . S
H1164 C1150 0.960 . S
H1165 C1151 0.961 . S
H1166 C1151 0.961 . S
H1167 C1151 0.961 1_544 S
H1168 C1152 0.931 . S
H1169 C1157 0.930 . S
H1170 C1158 0.956 . S
H1171 C1158 0.961 1_556 S
H1172 C1158 0.961 1_556 S
H1173 C1159 0.958 . S
H1174 C1159 0.961 . S
H1175 C1159 0.960 . S
C1176 C1177 1.391 1_556 S
C1176 C1178 1.394 . S
C1176 H1192 0.931 . S
C1177 C1176 1.391 1_554 S
C1177 C1181 1.376 . S
C1178 C1176 1.394 . S
C1178 C1179 1.369 1_556 S
C1178 C1182 1.531 . S
C1179 C1178 1.369 1_554 S
C1179 C1180 1.410 . S
C1179 C1187 1.503 . S
C1180 C1179 1.410 . S
C1180 C1181 1.392 . S
C1180 C1183 1.511 . S
C1181 C1177 1.376 . S
C1181 C1180 1.392 . S
C1181 H1193 0.929 . S
C1182 C1178 1.531 . S
C1182 H1194 0.960 . S
C1182 H1195 0.962 . S
C1182 H1196 0.960 . S
C1183 C1180 1.511 . S
C1183 H1197 0.961 . S
C1183 H1198 0.961 . S
C1183 H1199 0.961 . S
C1184 C1185 1.370 . S
C1184 C1186 1.363 . S
C1184 H1200 0.931 . S
C1185 C1184 1.370 . S
C1185 C1189 1.408 1_554 S
C1186 C1184 1.363 . S
C1186 C1187 1.370 . S
C1186 C1190 1.524 . S
C1187 C1179 1.503 . S
C1187 C1186 1.370 . S
C1187 C1188 1.403 1_554 S
C1188 C1187 1.403 1_556 S
C1188 C1189 1.404 . S
C1188 C1191 1.539 . S
C1189 C1185 1.408 1_556 S
C1189 C1188 1.404 . S
C1189 H1201 0.930 . S
C1190 C1186 1.524 . S
C1190 H1202 0.956 . S
C1190 H1203 0.961 . S
C1190 H1204 0.961 . S
C1191 C1188 1.539 . S
C1191 H1205 0.958 . S
C1191 H1206 0.961 . S
C1191 H1207 0.960 . S
H1192 C1176 0.931 . S
H1193 C1181 0.929 . S
H1194 C1182 0.960 . S
H1195 C1182 0.962 . S
H1196 C1182 0.960 . S
H1197 C1183 0.961 . S
H1198 C1183 0.961 . S
H1199 C1183 0.961 . S
H1200 C1184 0.931 . S
H1201 C1189 0.930 . S
H1202 C1190 0.956 . S
H1203 C1190 0.961 . S
H1204 C1190 0.961 . S
H1205 C1191 0.958 . S
H1206 C1191 0.961 . S
H1207 C1191 0.960 . S
C1208 C1209 1.391 . S
C1208 C1210 1.394 . S
C1208 H1224 0.931 . S
C1209 C1208 1.391 . S
C1209 C1213 1.376 . S
C1210 C1208 1.394 . S
C1210 C1211 1.369 . S
C1210 C1214 1.531 . S
C1211 C1210 1.369 . S
C1211 C1212 1.410 . S
C1211 C1219 1.503 . S
C1212 C1211 1.410 . S
C1212 C1213 1.392 . S
C1212 C1215 1.511 . S
C1213 C1209 1.376 . S
C1213 C1212 1.392 . S
C1213 H1225 0.929 . S
C1214 C1210 1.531 . S
C1214 H1226 0.960 . S
C1214 H1227 0.962 . S
C1214 H1228 0.960 . S
C1215 C1212 1.511 . S
C1215 H1229 0.961 . S
C1215 H1230 0.961 . S
C1215 H1231 0.961 . S
C1216 C1217 1.370 . S
C1216 C1218 1.363 . S
C1216 H1232 0.931 . S
C1217 C1216 1.370 . S
C1217 C1221 1.408 . S
C1218 C1216 1.363 . S
C1218 C1219 1.370 . S
C1218 C1222 1.524 . S
C1219 C1211 1.503 . S
C1219 C1218 1.370 . S
C1219 C1220 1.403 . S
C1220 C1219 1.403 . S
C1220 C1221 1.404 . S
C1220 C1223 1.539 . S
C1221 C1217 1.408 . S
C1221 C1220 1.404 . S
C1221 H1233 0.930 . S
C1222 C1218 1.524 . S
C1222 H1234 0.956 . S
C1222 H1235 0.961 . S
C1222 H1236 0.961 . S
C1223 C1220 1.539 . S
C1223 H1237 0.958 . S
C1223 H1238 0.961 . S
C1223 H1239 0.960 . S
H1224 C1208 0.931 . S
H1225 C1213 0.929 . S
H1226 C1214 0.960 . S
H1227 C1214 0.962 . S
H1228 C1214 0.960 . S
H1229 C1215 0.961 . S
H1230 C1215 0.961 . S
H1231 C1215 0.961 . S
H1232 C1216 0.931 . S
H1233 C1221 0.930 . S
H1234 C1222 0.956 . S
H1235 C1222 0.961 . S
H1236 C1222 0.961 . S
H1237 C1223 0.958 . S
H1238 C1223 0.961 . S
H1239 C1223 0.960 . S
C1240 C1241 1.391 . S
C1240 C1242 1.394 . S
C1240 H1256 0.931 . S
C1241 C1240 1.391 . S
C1241 C1245 1.376 . S
C1242 C1240 1.394 . S
C1242 C1243 1.369 . S
C1242 C1246 1.531 . S
C1243 C1242 1.369 . S
C1243 C1244 1.410 . S
C1243 C1251 1.503 . S
C1244 C1243 1.410 . S
C1244 C1245 1.392 . S
C1244 C1247 1.511 . S
C1245 C1241 1.376 . S
C1245 C1244 1.392 . S
C1245 H1257 0.929 . S
C1246 C1242 1.531 . S
C1246 H1258 0.960 . S
C1246 H1259 0.962 . S
C1246 H1260 0.960 . S
C1247 C1244 1.511 . S
C1247 H1261 0.961 . S
C1247 H1262 0.961 . S
C1247 H1263 0.961 . S
C1248 C1249 1.370 . S
C1248 C1250 1.363 . S
C1248 H1264 0.931 . S
C1249 C1248 1.370 . S
C1249 C1253 1.408 . S
C1250 C1248 1.363 . S
C1250 C1251 1.370 . S
C1250 C1254 1.524 . S
C1251 C1243 1.503 . S
C1251 C1250 1.370 . S
C1251 C1252 1.403 . S
C1252 C1251 1.403 . S
C1252 C1253 1.404 . S
C1252 C1255 1.539 . S
C1253 C1249 1.408 . S
C1253 C1252 1.404 . S
C1253 H1265 0.930 . S
C1254 C1250 1.524 . S
C1254 H1266 0.956 . S
C1254 H1267 0.961 . S
C1254 H1268 0.961 . S
C1255 C1252 1.539 . S
C1255 H1269 0.958 . S
C1255 H1270 0.961 . S
C1255 H1271 0.960 . S
H1256 C1240 0.931 . S
H1257 C1245 0.929 . S
H1258 C1246 0.960 . S
H1259 C1246 0.962 . S
H1260 C1246 0.960 . S
H1261 C1247 0.961 . S
H1262 C1247 0.961 . S
H1263 C1247 0.961 . S
H1264 C1248 0.931 . S
H1265 C1253 0.930 . S
H1266 C1254 0.956 . S
H1267 C1254 0.961 . S
H1268 C1254 0.961 . S
H1269 C1255 0.958 . S
H1270 C1255 0.961 . S
H1271 C1255 0.960 . S
C1272 C1273 1.391 . S
C1272 C1274 1.394 . S
C1272 H1288 0.931 . S
C1273 C1272 1.391 . S
C1273 C1277 1.376 . S
C1274 C1272 1.394 . S
C1274 C1275 1.369 . S
C1274 C1278 1.531 . S
C1275 C1274 1.369 . S
C1275 C1276 1.410 . S
C1275 C1283 1.503 . S
C1276 C1275 1.410 . S
C1276 C1277 1.392 . S
C1276 C1279 1.511 . S
C1277 C1273 1.376 . S
C1277 C1276 1.392 . S
C1277 H1289 0.929 . S
C1278 C1274 1.531 . S
C1278 H1290 0.960 . S
C1278 H1291 0.962 . S
C1278 H1292 0.960 . S
C1279 C1276 1.511 . S
C1279 H1293 0.961 . S
C1279 H1294 0.961 . S
C1279 H1295 0.961 . S
C1280 C1281 1.370 . S
C1280 C1282 1.363 . S
C1280 H1296 0.931 . S
C1281 C1280 1.370 . S
C1281 C1285 1.408 . S
C1282 C1280 1.363 . S
C1282 C1283 1.370 . S
C1282 C1286 1.524 . S
C1283 C1275 1.503 . S
C1283 C1282 1.370 . S
C1283 C1284 1.403 . S
C1284 C1283 1.403 . S
C1284 C1285 1.404 . S
C1284 C1287 1.539 . S
C1285 C1281 1.408 . S
C1285 C1284 1.404 . S
C1285 H1297 0.930 . S
C1286 C1282 1.524 . S
C1286 H1298 0.956 . S
C1286 H1299 0.961 . S
C1286 H1300 0.961 . S
C1287 C1284 1.539 . S
C1287 H1301 0.958 . S
C1287 H1302 0.961 . S
C1287 H1303 0.960 . S
H1288 C1272 0.931 . S
H1289 C1277 0.929 . S
H1290 C1278 0.960 . S
H1291 C1278 0.962 . S
H1292 C1278 0.960 . S
H1293 C1279 0.961 . S
H1294 C1279 0.961 . S
H1295 C1279 0.961 . S
H1296 C1280 0.931 . S
H1297 C1285 0.930 . S
H1298 C1286 0.956 . S
H1299 C1286 0.961 . S
H1300 C1286 0.961 . S
H1301 C1287 0.958 . S
H1302 C1287 0.961 . S
H1303 C1287 0.960 . S
C1304 C1305 1.391 . S
C1304 C1306 1.394 . S
C1304 H1320 0.931 . S
C1305 C1304 1.391 . S
C1305 C1309 1.376 . S
C1306 C1304 1.394 . S
C1306 C1307 1.369 . S
C1306 C1310 1.531 . S
C1307 C1306 1.369 . S
C1307 C1308 1.410 . S
C1307 C1315 1.503 . S
C1308 C1307 1.410 . S
C1308 C1309 1.392 . S
C1308 C1311 1.511 . S
C1309 C1305 1.376 . S
C1309 C1308 1.392 . S
C1309 H1321 0.929 . S
C1310 C1306 1.531 . S
C1310 H1322 0.960 . S
C1310 H1323 0.962 . S
C1310 H1324 0.960 . S
C1311 C1308 1.511 . S
C1311 H1325 0.961 . S
C1311 H1326 0.961 . S
C1311 H1327 0.961 . S
C1312 C1313 1.370 . S
C1312 C1314 1.363 . S
C1312 H1328 0.931 . S
C1313 C1312 1.370 . S
C1313 C1317 1.408 . S
C1314 C1312 1.363 . S
C1314 C1315 1.370 . S
C1314 C1318 1.524 . S
C1315 C1307 1.503 . S
C1315 C1314 1.370 . S
C1315 C1316 1.403 . S
C1316 C1315 1.403 . S
C1316 C1317 1.404 . S
C1316 C1319 1.539 . S
C1317 C1313 1.408 . S
C1317 C1316 1.404 . S
C1317 H1329 0.930 . S
C1318 C1314 1.524 . S
C1318 H1330 0.956 . S
C1318 H1331 0.961 . S
C1318 H1332 0.961 . S
C1319 C1316 1.539 . S
C1319 H1333 0.958 . S
C1319 H1334 0.961 . S
C1319 H1335 0.960 . S
H1320 C1304 0.931 . S
H1321 C1309 0.929 . S
H1322 C1310 0.960 . S
H1323 C1310 0.962 . S
H1324 C1310 0.960 . S
H1325 C1311 0.961 . S
H1326 C1311 0.961 . S
H1327 C1311 0.961 . S
H1328 C1312 0.931 . S
H1329 C1317 0.930 . S
H1330 C1318 0.956 . S
H1331 C1318 0.961 . S
H1332 C1318 0.961 . S
H1333 C1319 0.958 . S
H1334 C1319 0.961 . S
H1335 C1319 0.960 . S
C1336 C1337 1.391 . S
C1336 C1338 1.394 . S
C1336 H1352 0.931 . S
C1337 C1336 1.391 . S
C1337 C1341 1.376 . S
C1338 C1336 1.394 . S
C1338 C1339 1.369 . S
C1338 C1342 1.531 . S
C1339 C1338 1.369 . S
C1339 C1340 1.410 . S
C1339 C1347 1.503 . S
C1340 C1339 1.410 . S
C1340 C1341 1.392 . S
C1340 C1343 1.511 . S
C1341 C1337 1.376 . S
C1341 C1340 1.392 . S
C1341 H1353 0.929 . S
C1342 C1338 1.531 . S
C1342 H1354 0.960 . S
C1342 H1355 0.962 . S
C1342 H1356 0.960 . S
C1343 C1340 1.511 . S
C1343 H1357 0.961 . S
C1343 H1358 0.961 . S
C1343 H1359 0.961 . S
C1344 C1345 1.370 . S
C1344 C1346 1.363 . S
C1344 H1360 0.931 . S
C1345 C1344 1.370 . S
C1345 C1349 1.408 . S
C1346 C1344 1.363 . S
C1346 C1347 1.370 . S
C1346 C1350 1.524 . S
C1347 C1339 1.503 . S
C1347 C1346 1.370 . S
C1347 C1348 1.403 . S
C1348 C1347 1.403 . S
C1348 C1349 1.404 . S
C1348 C1351 1.539 . S
C1349 C1345 1.408 . S
C1349 C1348 1.404 . S
C1349 H1361 0.930 . S
C1350 C1346 1.524 . S
C1350 H1362 0.956 . S
C1350 H1363 0.961 . S
C1350 H1364 0.961 . S
C1351 C1348 1.539 . S
C1351 H1365 0.958 . S
C1351 H1366 0.961 . S
C1351 H1367 0.960 . S
H1352 C1336 0.931 . S
H1353 C1341 0.929 . S
H1354 C1342 0.960 . S
H1355 C1342 0.962 . S
H1356 C1342 0.960 . S
H1357 C1343 0.961 . S
H1358 C1343 0.961 . S
H1359 C1343 0.961 . S
H1360 C1344 0.931 . S
H1361 C1349 0.930 . S
H1362 C1350 0.956 . S
H1363 C1350 0.961 . S
H1364 C1350 0.961 . S
H1365 C1351 0.958 . S
H1366 C1351 0.961 . S
H1367 C1351 0.960 . S
C1368 C1369 1.391 . S
C1368 C1370 1.394 . S
C1368 H1384 0.931 . S
C1369 C1368 1.391 . S
C1369 C1373 1.376 . S
C1370 C1368 1.394 . S
C1370 C1371 1.369 . S
C1370 C1374 1.531 . S
C1371 C1370 1.369 . S
C1371 C1372 1.410 . S
C1371 C1379 1.503 . S
C1372 C1371 1.410 . S
C1372 C1373 1.392 . S
C1372 C1375 1.511 . S
C1373 C1369 1.376 . S
C1373 C1372 1.392 . S
C1373 H1385 0.929 . S
C1374 C1370 1.531 . S
C1374 H1386 0.960 . S
C1374 H1387 0.962 . S
C1374 H1388 0.960 . S
C1375 C1372 1.511 . S
C1375 H1389 0.961 . S
C1375 H1390 0.961 . S
C1375 H1391 0.961 . S
C1376 C1377 1.370 . S
C1376 C1378 1.363 . S
C1376 H1392 0.931 . S
C1377 C1376 1.370 . S
C1377 C1381 1.408 . S
C1378 C1376 1.363 . S
C1378 C1379 1.370 . S
C1378 C1382 1.524 . S
C1379 C1371 1.503 . S
C1379 C1378 1.370 . S
C1379 C1380 1.403 . S
C1380 C1379 1.403 . S
C1380 C1381 1.404 . S
C1380 C1383 1.539 . S
C1381 C1377 1.408 . S
C1381 C1380 1.404 . S
C1381 H1393 0.930 . S
C1382 C1378 1.524 . S
C1382 H1394 0.956 . S
C1382 H1395 0.961 . S
C1382 H1396 0.961 . S
C1383 C1380 1.539 . S
C1383 H1397 0.958 . S
C1383 H1398 0.961 . S
C1383 H1399 0.960 . S
H1384 C1368 0.931 . S
H1385 C1373 0.929 . S
H1386 C1374 0.960 . S
H1387 C1374 0.962 . S
H1388 C1374 0.960 . S
H1389 C1375 0.961 . S
H1390 C1375 0.961 . S
H1391 C1375 0.961 . S
H1392 C1376 0.931 . S
H1393 C1381 0.930 . S
H1394 C1382 0.956 . S
H1395 C1382 0.961 . S
H1396 C1382 0.961 . S
H1397 C1383 0.958 . S
H1398 C1383 0.961 . S
H1399 C1383 0.960 . S
C1400 C1401 1.391 . S
C1400 C1402 1.394 . S
C1400 H1416 0.931 . S
C1401 C1400 1.391 . S
C1401 C1405 1.376 . S
C1402 C1400 1.394 . S
C1402 C1403 1.369 . S
C1402 C1406 1.531 . S
C1403 C1402 1.369 . S
C1403 C1404 1.410 . S
C1403 C1411 1.503 . S
C1404 C1403 1.410 . S
C1404 C1405 1.392 . S
C1404 C1407 1.511 . S
C1405 C1401 1.376 . S
C1405 C1404 1.392 . S
C1405 H1417 0.929 . S
C1406 C1402 1.531 . S
C1406 H1418 0.960 . S
C1406 H1419 0.962 . S
C1406 H1420 0.960 . S
C1407 C1404 1.511 . S
C1407 H1421 0.961 . S
C1407 H1422 0.961 . S
C1407 H1423 0.961 1_455 S
C1408 C1409 1.370 . S
C1408 C1410 1.363 . S
C1408 H1424 0.931 . S
C1409 C1408 1.370 . S
C1409 C1413 1.408 1_455 S
C1410 C1408 1.363 . S
C1410 C1411 1.370 . S
C1410 C1414 1.524 . S
C1411 C1403 1.503 . S
C1411 C1410 1.370 . S
C1411 C1412 1.403 1_455 S
C1412 C1411 1.403 1_655 S
C1412 C1413 1.404 . S
C1412 C1415 1.539 . S
C1413 C1409 1.408 1_655 S
C1413 C1412 1.404 . S
C1413 H1425 0.930 . S
C1414 C1410 1.524 . S
C1414 H1426 0.956 . S
C1414 H1427 0.961 . S
C1414 H1428 0.961 . S
C1415 C1412 1.539 . S
C1415 H1429 0.958 . S
C1415 H1430 0.961 . S
C1415 H1431 0.960 . S
H1416 C1400 0.931 . S
H1417 C1405 0.929 . S
H1418 C1406 0.960 . S
H1419 C1406 0.962 . S
H1420 C1406 0.960 . S
H1421 C1407 0.961 . S
H1422 C1407 0.961 . S
H1423 C1407 0.961 1_655 S
H1424 C1408 0.931 . S
H1425 C1413 0.930 . S
H1426 C1414 0.956 . S
H1427 C1414 0.961 . S
H1428 C1414 0.961 . S
H1429 C1415 0.958 . S
H1430 C1415 0.961 . S
H1431 C1415 0.960 . S
C1432 C1433 1.391 . S
C1432 C1434 1.394 . S
C1432 H1448 0.931 . S
C1433 C1432 1.391 . S
C1433 C1437 1.376 . S
C1434 C1432 1.394 . S
C1434 C1435 1.369 . S
C1434 C1438 1.531 . S
C1435 C1434 1.369 . S
C1435 C1436 1.410 . S
C1435 C1443 1.503 . S
C1436 C1435 1.410 . S
C1436 C1437 1.392 . S
C1436 C1439 1.511 . S
C1437 C1433 1.376 . S
C1437 C1436 1.392 . S
C1437 H1449 0.929 . S
C1438 C1434 1.531 . S
C1438 H1450 0.960 . S
C1438 H1451 0.962 . S
C1438 H1452 0.960 . S
C1439 C1436 1.511 . S
C1439 H1453 0.961 . S
C1439 H1454 0.961 . S
C1439 H1455 0.961 . S
C1440 C1441 1.370 . S
C1440 C1442 1.363 . S
C1440 H1456 0.931 . S
C1441 C1440 1.370 . S
C1441 C1445 1.408 . S
C1442 C1440 1.363 . S
C1442 C1443 1.370 . S
C1442 C1446 1.524 . S
C1443 C1435 1.503 . S
C1443 C1442 1.370 . S
C1443 C1444 1.403 . S
C1444 C1443 1.403 . S
C1444 C1445 1.404 . S
C1444 C1447 1.539 . S
C1445 C1441 1.408 . S
C1445 C1444 1.404 . S
C1445 H1457 0.930 . S
C1446 C1442 1.524 . S
C1446 H1458 0.956 . S
C1446 H1459 0.961 . S
C1446 H1460 0.961 . S
C1447 C1444 1.539 . S
C1447 H1461 0.958 . S
C1447 H1462 0.961 . S
C1447 H1463 0.960 . S
H1448 C1432 0.931 . S
H1449 C1437 0.929 . S
H1450 C1438 0.960 . S
H1451 C1438 0.962 . S
H1452 C1438 0.960 . S
H1453 C1439 0.961 . S
H1454 C1439 0.961 . S
H1455 C1439 0.961 . S
H1456 C1440 0.931 . S
H1457 C1445 0.930 . S
H1458 C1446 0.956 . S
H1459 C1446 0.961 . S
H1460 C1446 0.961 . S
H1461 C1447 0.958 . S
H1462 C1447 0.961 . S
H1463 C1447 0.960 . S
C1464 C1465 1.391 . S
C1464 C1466 1.394 . S
C1464 H1480 0.931 . S
C1465 C1464 1.391 . S
C1465 C1469 1.376 . S
C1466 C1464 1.394 . S
C1466 C1467 1.369 . S
C1466 C1470 1.531 . S
C1467 C1466 1.369 . S
C1467 C1468 1.410 . S
C1467 C1475 1.503 . S
C1468 C1467 1.410 . S
C1468 C1469 1.392 . S
C1468 C1471 1.511 . S
C1469 C1465 1.376 . S
C1469 C1468 1.392 . S
C1469 H1481 0.929 . S
C1470 C1466 1.531 . S
C1470 H1482 0.960 . S
C1470 H1483 0.962 . S
C1470 H1484 0.960 . S
C1471 C1468 1.511 . S
C1471 H1485 0.961 . S
C1471 H1486 0.961 . S
C1471 H1487 0.961 . S
C1472 C1473 1.370 . S
C1472 C1474 1.363 . S
C1472 H1488 0.931 . S
C1473 C1472 1.370 . S
C1473 C1477 1.408 . S
C1474 C1472 1.363 . S
C1474 C1475 1.370 . S
C1474 C1478 1.524 . S
C1475 C1467 1.503 . S
C1475 C1474 1.370 . S
C1475 C1476 1.403 . S
C1476 C1475 1.403 . S
C1476 C1477 1.404 . S
C1476 C1479 1.539 . S
C1477 C1473 1.408 . S
C1477 C1476 1.404 . S
C1477 H1489 0.930 . S
C1478 C1474 1.524 . S
C1478 H1490 0.956 . S
C1478 H1491 0.961 . S
C1478 H1492 0.961 . S
C1479 C1476 1.539 . S
C1479 H1493 0.958 . S
C1479 H1494 0.961 . S
C1479 H1495 0.960 . S
H1480 C1464 0.931 . S
H1481 C1469 0.929 . S
H1482 C1470 0.960 . S
H1483 C1470 0.962 . S
H1484 C1470 0.960 . S
H1485 C1471 0.961 . S
H1486 C1471 0.961 . S
H1487 C1471 0.961 . S
H1488 C1472 0.931 . S
H1489 C1477 0.930 . S
H1490 C1478 0.956 . S
H1491 C1478 0.961 . S
H1492 C1478 0.961 . S
H1493 C1479 0.958 . S
H1494 C1479 0.961 . S
H1495 C1479 0.960 . S
C1496 C1497 1.391 . S
C1496 C1498 1.394 . S
C1496 H1512 0.931 . S
C1497 C1496 1.391 . S
C1497 C1501 1.376 . S
C1498 C1496 1.394 . S
C1498 C1499 1.369 . S
C1498 C1502 1.531 . S
C1499 C1498 1.369 . S
C1499 C1500 1.410 . S
C1499 C1507 1.503 . S
C1500 C1499 1.410 . S
C1500 C1501 1.392 . S
C1500 C1503 1.511 . S
C1501 C1497 1.376 . S
C1501 C1500 1.392 . S
C1501 H1513 0.929 . S
C1502 C1498 1.531 . S
C1502 H1514 0.960 . S
C1502 H1515 0.962 . S
C1502 H1516 0.960 . S
C1503 C1500 1.511 . S
C1503 H1517 0.961 . S
C1503 H1518 0.961 . S
C1503 H1519 0.961 . S
C1504 C1505 1.370 . S
C1504 C1506 1.363 . S
C1504 H1520 0.931 . S
C1505 C1504 1.370 . S
C1505 C1509 1.408 . S
C1506 C1504 1.363 . S
C1506 C1507 1.370 . S
C1506 C1510 1.524 . S
C1507 C1499 1.503 . S
C1507 C1506 1.370 . S
C1507 C1508 1.403 . S
C1508 C1507 1.403 . S
C1508 C1509 1.404 . S
C1508 C1511 1.539 . S
C1509 C1505 1.408 . S
C1509 C1508 1.404 . S
C1509 H1521 0.930 . S
C1510 C1506 1.524 . S
C1510 H1522 0.956 . S
C1510 H1523 0.961 . S
C1510 H1524 0.961 . S
C1511 C1508 1.539 . S
C1511 H1525 0.958 . S
C1511 H1526 0.961 . S
C1511 H1527 0.960 . S
H1512 C1496 0.931 . S
H1513 C1501 0.929 . S
H1514 C1502 0.960 . S
H1515 C1502 0.962 . S
H1516 C1502 0.960 . S
H1517 C1503 0.961 . S
H1518 C1503 0.961 . S
H1519 C1503 0.961 . S
H1520 C1504 0.931 . S
H1521 C1509 0.930 . S
H1522 C1510 0.956 . S
H1523 C1510 0.961 . S
H1524 C1510 0.961 . S
H1525 C1511 0.958 . S
H1526 C1511 0.961 . S
H1527 C1511 0.960 . S
C1528 C1529 1.391 . S
C1528 C1530 1.394 . S
C1528 H1544 0.931 . S
C1529 C1528 1.391 . S
C1529 C1533 1.376 1_455 S
C1530 C1528 1.394 . S
C1530 C1531 1.369 . S
C1530 C1534 1.531 . S
C1531 C1530 1.369 . S
C1531 C1532 1.410 1_455 S
C1531 C1539 1.503 . S
C1532 C1531 1.410 1_655 S
C1532 C1533 1.392 . S
C1532 C1535 1.511 . S
C1533 C1529 1.376 1_655 S
C1533 C1532 1.392 . S
C1533 H1545 0.929 . S
C1534 C1530 1.531 . S
C1534 H1546 0.960 . S
C1534 H1547 0.962 . S
C1534 H1548 0.960 . S
C1535 C1532 1.511 . S
C1535 H1549 0.961 . S
C1535 H1550 0.961 . S
C1535 H1551 0.961 . S
C1536 C1537 1.382 . S
C1536 C1538 1.363 . S
C1536 H1552 0.931 . S
C1537 C1536 1.382 . S
C1537 C1541 1.395 1_455 S
C1538 C1536 1.363 . S
C1538 C1539 1.370 . S
C1538 C1542 1.524 . S
C1539 C1531 1.503 . S
C1539 C1538 1.370 . S
C1539 C1540 1.403 1_455 S
C1540 C1539 1.403 1_655 S
C1540 C1541 1.404 . S
C1540 C1543 1.539 . S
C1541 C1537 1.395 1_655 S
C1541 C1540 1.404 . S
C1541 H1553 0.930 . S
C1542 C1538 1.524 . S
C1542 H1554 0.956 . S
C1542 H1555 0.961 . S
C1542 H1556 0.961 . S
C1543 C1540 1.539 . S
C1543 H1557 0.958 . S
C1543 H1558 0.961 . S
C1543 H1559 0.960 . S
H1544 C1528 0.931 . S
H1545 C1533 0.929 . S
H1546 C1534 0.960 . S
H1547 C1534 0.962 . S
H1548 C1534 0.960 . S
H1549 C1535 0.961 . S
H1550 C1535 0.961 . S
H1551 C1535 0.961 . S
H1552 C1536 0.931 . S
H1553 C1541 0.930 . S
H1554 C1542 0.956 . S
H1555 C1542 0.961 . S
H1556 C1542 0.961 . S
H1557 C1543 0.958 . S
H1558 C1543 0.961 . S
H1559 C1543 0.960 . S
C1560 C1561 1.391 . S
C1560 C1562 1.394 . S
C1560 H1576 0.931 . S
C1561 C1560 1.391 . S
C1561 C1565 1.376 . S
C1562 C1560 1.394 . S
C1562 C1563 1.369 . S
C1562 C1566 1.531 . S
C1563 C1562 1.369 . S
C1563 C1564 1.410 . S
C1563 C1571 1.503 . S
C1564 C1563 1.410 . S
C1564 C1565 1.392 . S
C1564 C1567 1.511 . S
C1565 C1561 1.376 . S
C1565 C1564 1.392 . S
C1565 H1577 0.929 . S
C1566 C1562 1.531 . S
C1566 H1578 0.960 . S
C1566 H1579 0.962 . S
C1566 H1580 0.960 . S
C1567 C1564 1.511 . S
C1567 H1581 0.961 . S
C1567 H1582 0.961 . S
C1567 H1583 0.961 . S
C1568 C1569 1.370 . S
C1568 C1570 1.363 . S
C1568 H1584 0.931 . S
C1569 C1568 1.370 . S
C1569 C1573 1.408 . S
C1570 C1568 1.363 . S
C1570 C1571 1.370 . S
C1570 C1574 1.524 . S
C1571 C1563 1.503 . S
C1571 C1570 1.370 . S
C1571 C1572 1.403 . S
C1572 C1571 1.403 . S
C1572 C1573 1.404 . S
C1572 C1575 1.539 . S
C1573 C1569 1.408 . S
C1573 C1572 1.404 . S
C1573 H1585 0.930 . S
C1574 C1570 1.524 . S
C1574 H1586 0.956 . S
C1574 H1587 0.961 . S
C1574 H1588 0.961 . S
C1575 C1572 1.539 . S
C1575 H1589 0.958 . S
C1575 H1590 0.961 . S
C1575 H1591 0.960 . S
H1576 C1560 0.931 . S
H1577 C1565 0.929 . S
H1578 C1566 0.960 . S
H1579 C1566 0.962 . S
H1580 C1566 0.960 . S
H1581 C1567 0.961 . S
H1582 C1567 0.961 . S
H1583 C1567 0.961 . S
H1584 C1568 0.931 . S
H1585 C1573 0.930 . S
H1586 C1574 0.956 . S
H1587 C1574 0.961 . S
H1588 C1574 0.961 . S
H1589 C1575 0.958 . S
H1590 C1575 0.961 . S
H1591 C1575 0.960 . S
C1592 C1593 1.391 . S
C1592 C1594 1.394 . S
C1592 H1608 0.931 . S
C1593 C1592 1.391 . S
C1593 C1597 1.376 . S
C1594 C1592 1.394 . S
C1594 C1595 1.369 . S
C1594 C1598 1.531 . S
C1595 C1594 1.369 . S
C1595 C1596 1.410 . S
C1595 C1603 1.503 . S
C1596 C1595 1.410 . S
C1596 C1597 1.392 . S
C1596 C1599 1.511 . S
C1597 C1593 1.376 . S
C1597 C1596 1.392 . S
C1597 H1609 0.929 . S
C1598 C1594 1.531 . S
C1598 H1610 0.960 . S
C1598 H1611 0.962 . S
C1598 H1612 0.960 . S
C1599 C1596 1.511 . S
C1599 H1613 0.961 . S
C1599 H1614 0.961 . S
C1599 H1615 0.961 . S
C1600 C1601 1.388 . S
C1600 C1602 1.381 . S
C1600 H1616 0.895 1_556 S
C1601 C1600 1.388 . S
C1601 C1605 1.408 . S
C1602 C1600 1.381 . S
C1602 C1603 1.370 . S
C1602 C1606 1.524 . S
C1603 C1595 1.503 . S
C1603 C1602 1.370 . S
C1603 C1604 1.403 . S
C1604 C1603 1.403 . S
C1604 C1605 1.404 . S
C1604 C1607 1.539 . S
C1605 C1601 1.408 . S
C1605 C1604 1.404 . S
C1605 H1617 0.930 . S
C1606 C1602 1.524 . S
C1606 H1618 0.956 . S
C1606 H1619 0.961 . S
C1606 H1620 0.961 1_556 S
C1607 C1604 1.539 . S
C1607 H1621 0.958 . S
C1607 H1622 0.961 . S
C1607 H1623 0.960 . S
H1608 C1592 0.931 . S
H1609 C1597 0.929 . S
H1610 C1598 0.960 . S
H1611 C1598 0.962 . S
H1612 C1598 0.960 . S
H1613 C1599 0.961 . S
H1614 C1599 0.961 . S
H1615 C1599 0.961 . S
H1616 C1600 0.895 1_554 S
H1617 C1605 0.930 . S
H1618 C1606 0.956 . S
H1619 C1606 0.961 . S
H1620 C1606 0.961 1_554 S
H1621 C1607 0.958 . S
H1622 C1607 0.961 . S
H1623 C1607 0.960 . S
C1624 C1625 1.391 . S
C1624 C1626 1.394 . S
C1624 H1640 0.931 . S
C1625 C1624 1.391 . S
C1625 C1629 1.376 . S
C1626 C1624 1.394 . S
C1626 C1627 1.369 . S
C1626 C1630 1.531 . S
C1627 C1626 1.369 . S
C1627 C1628 1.410 . S
C1627 C1635 1.503 . S
C1628 C1627 1.410 . S
C1628 C1629 1.392 . S
C1628 C1631 1.511 . S
C1629 C1625 1.376 . S
C1629 C1628 1.392 . S
C1629 H1641 0.929 . S
C1630 C1626 1.531 . S
C1630 H1642 0.960 . S
C1630 H1643 0.962 . S
C1630 H1644 0.960 . S
C1631 C1628 1.511 . S
C1631 H1645 0.961 . S
C1631 H1646 0.961 . S
C1631 H1647 0.961 . S
C1632 C1633 1.370 . S
C1632 C1634 1.363 . S
C1632 H1648 0.931 . S
C1633 C1632 1.370 . S
C1633 C1637 1.408 . S
C1634 C1632 1.363 . S
C1634 C1635 1.370 . S
C1634 C1638 1.524 . S
C1635 C1627 1.503 . S
C1635 C1634 1.370 . S
C1635 C1636 1.403 . S
C1636 C1635 1.403 . S
C1636 C1637 1.404 . S
C1636 C1639 1.539 . S
C1637 C1633 1.408 . S
C1637 C1636 1.404 . S
C1637 H1649 0.930 . S
C1638 C1634 1.524 . S
C1638 H1650 0.956 . S
C1638 H1651 0.961 . S
C1638 H1652 0.961 . S
C1639 C1636 1.539 . S
C1639 H1653 0.958 . S
C1639 H1654 0.961 . S
C1639 H1655 0.960 . S
H1640 C1624 0.931 . S
H1641 C1629 0.929 . S
H1642 C1630 0.960 . S
H1643 C1630 0.962 . S
H1644 C1630 0.960 . S
H1645 C1631 0.961 . S
H1646 C1631 0.961 . S
H1647 C1631 0.961 . S
H1648 C1632 0.931 . S
H1649 C1637 0.930 . S
H1650 C1638 0.956 . S
H1651 C1638 0.961 . S
H1652 C1638 0.961 . S
H1653 C1639 0.958 . S
H1654 C1639 0.961 . S
H1655 C1639 0.960 . S
C1656 C1657 1.391 . S
C1656 C1658 1.394 . S
C1656 H1672 0.931 . S
C1657 C1656 1.391 . S
C1657 C1661 1.376 . S
C1658 C1656 1.394 . S
C1658 C1659 1.369 . S
C1658 C1662 1.531 . S
C1659 C1658 1.369 . S
C1659 C1660 1.410 . S
C1659 C1667 1.503 . S
C1660 C1659 1.410 . S
C1660 C1661 1.392 . S
C1660 C1663 1.511 . S
C1661 C1657 1.376 . S
C1661 C1660 1.392 . S
C1661 H1673 0.929 . S
C1662 C1658 1.531 . S
C1662 H1674 0.960 . S
C1662 H1675 0.962 1_565 S
C1662 H1676 0.960 . S
C1663 C1660 1.511 . S
C1663 H1677 0.961 1_565 S
C1663 H1678 0.961 1_565 S
C1663 H1679 0.961 . S
C1664 C1665 1.370 . S
C1664 C1666 1.363 . S
C1664 H1680 0.931 . S
C1665 C1664 1.370 . S
C1665 C1669 1.408 1_545 S
C1666 C1664 1.363 . S
C1666 C1667 1.370 1_545 S
C1666 C1670 1.524 . S
C1667 C1659 1.503 . S
C1667 C1666 1.370 1_565 S
C1667 C1668 1.403 . S
C1668 C1667 1.403 . S
C1668 C1669 1.404 . S
C1668 C1671 1.539 . S
C1669 C1665 1.408 1_565 S
C1669 C1668 1.404 . S
C1669 H1681 0.930 . S
C1670 C1666 1.524 . S
C1670 H1682 0.956 . S
C1670 H1683 0.961 . S
C1670 H1684 0.961 . S
C1671 C1668 1.539 . S
C1671 H1685 0.958 . S
C1671 H1686 0.961 . S
C1671 H1687 0.960 . S
H1672 C1656 0.931 . S
H1673 C1661 0.929 . S
H1674 C1662 0.960 . S
H1675 C1662 0.962 1_545 S
H1676 C1662 0.960 . S
H1677 C1663 0.961 1_545 S
H1678 C1663 0.961 1_545 S
H1679 C1663 0.961 . S
H1680 C1664 0.931 . S
H1681 C1669 0.930 . S
H1682 C1670 0.956 . S
H1683 C1670 0.961 . S
H1684 C1670 0.961 . S
H1685 C1671 0.958 . S
H1686 C1671 0.961 . S
H1687 C1671 0.960 . S
C1688 C1689 1.391 . S
C1688 C1690 1.394 . S
C1688 H1704 0.931 . S
C1689 C1688 1.391 . S
C1689 C1693 1.376 . S
C1690 C1688 1.394 . S
C1690 C1691 1.369 . S
C1690 C1694 1.531 . S
C1691 C1690 1.369 . S
C1691 C1692 1.410 . S
C1691 C1699 1.503 . S
C1692 C1691 1.410 . S
C1692 C1693 1.392 . S
C1692 C1695 1.511 . S
C1693 C1689 1.376 . S
C1693 C1692 1.392 . S
C1693 H1705 0.929 . S
C1694 C1690 1.531 . S
C1694 H1706 0.960 . S
C1694 H1707 0.962 . S
C1694 H1708 0.960 . S
C1695 C1692 1.511 . S
C1695 H1709 0.961 . S
C1695 H1710 0.961 . S
C1695 H1711 0.961 . S
C1696 C1697 1.370 . S
C1696 C1698 1.363 . S
C1696 H1712 0.931 . S
C1697 C1696 1.370 . S
C1697 C1701 1.408 . S
C1698 C1696 1.363 . S
C1698 C1699 1.370 . S
C1698 C1702 1.524 . S
C1699 C1691 1.503 . S
C1699 C1698 1.370 . S
C1699 C1700 1.403 . S
C1700 C1699 1.403 . S
C1700 C1701 1.404 . S
C1700 C1703 1.539 . S
C1701 C1697 1.408 . S
C1701 C1700 1.404 . S
C1701 H1713 0.930 . S
C1702 C1698 1.524 . S
C1702 H1714 0.956 . S
C1702 H1715 0.961 . S
C1702 H1716 0.961 . S
C1703 C1700 1.539 . S
C1703 H1717 0.958 . S
C1703 H1718 0.961 . S
C1703 H1719 0.960 . S
H1704 C1688 0.931 . S
H1705 C1693 0.929 . S
H1706 C1694 0.960 . S
H1707 C1694 0.962 . S
H1708 C1694 0.960 . S
H1709 C1695 0.961 . S
H1710 C1695 0.961 . S
H1711 C1695 0.961 . S
H1712 C1696 0.931 . S
H1713 C1701 0.930 . S
H1714 C1702 0.956 . S
H1715 C1702 0.961 . S
H1716 C1702 0.961 . S
H1717 C1703 0.958 . S
H1718 C1703 0.961 . S
H1719 C1703 0.960 . S
C1720 C1721 1.391 . S
C1720 C1722 1.394 . S
C1720 H1736 0.931 1_545 S
C1721 C1720 1.391 . S
C1721 C1725 1.376 . S
C1722 C1720 1.394 . S
C1722 C1723 1.369 . S
C1722 C1726 1.531 1_545 S
C1723 C1722 1.369 . S
C1723 C1724 1.410 . S
C1723 C1731 1.503 . S
C1724 C1723 1.410 . S
C1724 C1725 1.392 . S
C1724 C1727 1.511 . S
C1725 C1721 1.376 . S
C1725 C1724 1.392 . S
C1725 H1737 0.929 . S
C1726 C1722 1.531 1_565 S
C1726 H1738 0.960 . S
C1726 H1739 0.962 . S
C1726 H1740 0.960 . S
C1727 C1724 1.511 . S
C1727 H1741 0.961 . S
C1727 H1742 0.961 . S
C1727 H1743 0.961 . S
C1728 C1729 1.370 . S
C1728 C1730 1.363 . S
C1728 H1744 0.931 . S
C1729 C1728 1.370 . S
C1729 C1733 1.408 . S
C1730 C1728 1.363 . S
C1730 C1731 1.370 . S
C1730 C1734 1.524 . S
C1731 C1723 1.503 . S
C1731 C1730 1.370 . S
C1731 C1732 1.403 . S
C1732 C1731 1.403 . S
C1732 C1733 1.404 . S
C1732 C1735 1.539 . S
C1733 C1729 1.408 . S
C1733 C1732 1.404 . S
C1733 H1745 0.930 . S
C1734 C1730 1.524 . S
C1734 H1746 0.956 . S
C1734 H1747 0.961 . S
C1734 H1748 0.961 . S
C1735 C1732 1.539 . S
C1735 H1749 0.958 1_545 S
C1735 H1750 0.961 . S
C1735 H1751 0.960 . S
H1736 C1720 0.931 1_565 S
H1737 C1725 0.929 . S
H1738 C1726 0.960 . S
H1739 C1726 0.962 . S
H1740 C1726 0.960 . S
H1741 C1727 0.961 . S
H1742 C1727 0.961 . S
H1743 C1727 0.961 . S
H1744 C1728 0.931 . S
H1745 C1733 0.930 . S
H1746 C1734 0.956 . S
H1747 C1734 0.961 . S
H1748 C1734 0.961 . S
H1749 C1735 0.958 1_565 S
H1750 C1735 0.961 . S
H1751 C1735 0.960 . S
C1752 C1753 1.391 . S
C1752 C1754 1.394 . S
C1752 H1768 0.931 . S
C1753 C1752 1.391 . S
C1753 C1757 1.376 . S
C1754 C1752 1.394 . S
C1754 C1755 1.369 . S
C1754 C1758 1.531 . S
C1755 C1754 1.369 . S
C1755 C1756 1.410 . S
C1755 C1763 1.503 . S
C1756 C1755 1.410 . S
C1756 C1757 1.392 . S
C1756 C1759 1.511 . S
C1757 C1753 1.376 . S
C1757 C1756 1.392 . S
C1757 H1769 0.929 . S
C1758 C1754 1.531 . S
C1758 H1770 0.960 . S
C1758 H1771 0.962 . S
C1758 H1772 0.960 . S
C1759 C1756 1.511 . S
C1759 H1773 0.961 . S
C1759 H1774 0.961 . S
C1759 H1775 0.961 . S
C1760 C1761 1.370 . S
C1760 C1762 1.363 . S
C1760 H1776 0.931 . S
C1761 C1760 1.370 . S
C1761 C1765 1.408 . S
C1762 C1760 1.363 . S
C1762 C1763 1.370 . S
C1762 C1766 1.524 . S
C1763 C1755 1.503 . S
C1763 C1762 1.370 . S
C1763 C1764 1.403 . S
C1764 C1763 1.403 . S
C1764 C1765 1.404 . S
C1764 C1767 1.539 . S
C1765 C1761 1.408 . S
C1765 C1764 1.404 . S
C1765 H1777 0.930 . S
C1766 C1762 1.524 . S
C1766 H1778 0.956 . S
C1766 H1779 0.961 . S
C1766 H1780 0.961 . S
C1767 C1764 1.539 . S
C1767 H1781 0.958 . S
C1767 H1782 0.961 . S
C1767 H1783 0.960 . S
H1768 C1752 0.931 . S
H1769 C1757 0.929 . S
H1770 C1758 0.960 . S
H1771 C1758 0.962 . S
H1772 C1758 0.960 . S
H1773 C1759 0.961 . S
H1774 C1759 0.961 . S
H1775 C1759 0.961 . S
H1776 C1760 0.931 . S
H1777 C1765 0.930 . S
H1778 C1766 0.956 . S
H1779 C1766 0.961 . S
H1780 C1766 0.961 . S
H1781 C1767 0.958 . S
H1782 C1767 0.961 . S
H1783 C1767 0.960 . S
C1784 C1785 1.391 . S
C1784 C1786 1.394 . S
C1784 H1800 0.931 . S
C1785 C1784 1.391 . S
C1785 C1789 1.376 1_565 S
C1786 C1784 1.394 . S
C1786 C1787 1.369 1_565 S
C1786 C1790 1.531 . S
C1787 C1786 1.369 1_545 S
C1787 C1788 1.410 . S
C1787 C1795 1.503 . S
C1788 C1787 1.410 . S
C1788 C1789 1.392 . S
C1788 C1791 1.511 . S
C1789 C1785 1.376 1_545 S
C1789 C1788 1.392 . S
C1789 H1801 0.929 . S
C1790 C1786 1.531 . S
C1790 H1802 0.960 . S
C1790 H1803 0.962 . S
C1790 H1804 0.960 . S
C1791 C1788 1.511 . S
C1791 H1805 0.961 . S
C1791 H1806 0.961 . S
C1791 H1807 0.961 . S
C1792 C1793 1.370 . S
C1792 C1794 1.363 . S
C1792 H1808 0.931 . S
C1793 C1792 1.370 . S
C1793 C1797 1.408 . S
C1794 C1792 1.363 . S
C1794 C1795 1.370 . S
C1794 C1798 1.524 . S
C1795 C1787 1.503 . S
C1795 C1794 1.370 . S
C1795 C1796 1.403 1_545 S
C1796 C1795 1.403 1_565 S
C1796 C1797 1.404 1_565 S
C1796 C1799 1.539 . S
C1797 C1793 1.408 . S
C1797 C1796 1.404 1_545 S
C1797 H1809 0.930 1_545 S
C1798 C1794 1.524 . S
C1798 H1810 0.956 . S
C1798 H1811 0.961 . S
C1798 H1812 0.961 . S
C1799 C1796 1.539 . S
C1799 H1813 0.958 . S
C1799 H1814 0.961 . S
C1799 H1815 0.960 . S
H1800 C1784 0.931 . S
H1801 C1789 0.929 . S
H1802 C1790 0.960 . S
H1803 C1790 0.962 . S
H1804 C1790 0.960 . S
H1805 C1791 0.961 . S
H1806 C1791 0.961 . S
H1807 C1791 0.961 . S
H1808 C1792 0.931 . S
H1809 C1797 0.930 1_565 S
H1810 C1798 0.956 . S
H1811 C1798 0.961 . S
H1812 C1798 0.961 . S
H1813 C1799 0.958 . S
H1814 C1799 0.961 . S
H1815 C1799 0.960 . S
C1816 C1817 1.391 . S
C1816 C1818 1.394 . S
C1816 H1832 0.931 . S
C1817 C1816 1.391 . S
C1817 C1821 1.376 . S
C1818 C1816 1.394 . S
C1818 C1819 1.369 . S
C1818 C1822 1.531 . S
C1819 C1818 1.369 . S
C1819 C1820 1.410 . S
C1819 C1827 1.503 . S
C1820 C1819 1.410 . S
C1820 C1821 1.392 . S
C1820 C1823 1.511 . S
C1821 C1817 1.376 . S
C1821 C1820 1.392 . S
C1821 H1833 0.929 . S
C1822 C1818 1.531 . S
C1822 H1834 0.960 . S
C1822 H1835 0.962 . S
C1822 H1836 0.960 . S
C1823 C1820 1.511 . S
C1823 H1837 0.961 . S
C1823 H1838 0.961 . S
C1823 H1839 0.961 . S
C1824 C1825 1.370 . S
C1824 C1826 1.363 . S
C1824 H1840 0.931 . S
C1825 C1824 1.370 . S
C1825 C1829 1.408 . S
C1826 C1824 1.363 . S
C1826 C1827 1.370 . S
C1826 C1830 1.524 . S
C1827 C1819 1.503 . S
C1827 C1826 1.370 . S
C1827 C1828 1.403 . S
C1828 C1827 1.403 . S
C1828 C1829 1.404 . S
C1828 C1831 1.539 . S
C1829 C1825 1.408 . S
C1829 C1828 1.404 . S
C1829 H1841 0.930 . S
C1830 C1826 1.524 . S
C1830 H1842 0.956 . S
C1830 H1843 0.961 . S
C1830 H1844 0.961 . S
C1831 C1828 1.539 . S
C1831 H1845 0.958 . S
C1831 H1846 0.961 . S
C1831 H1847 0.960 . S
H1832 C1816 0.931 . S
H1833 C1821 0.929 . S
H1834 C1822 0.960 . S
H1835 C1822 0.962 . S
H1836 C1822 0.960 . S
H1837 C1823 0.961 . S
H1838 C1823 0.961 . S
H1839 C1823 0.961 . S
H1840 C1824 0.931 . S
H1841 C1829 0.930 . S
H1842 C1830 0.956 . S
H1843 C1830 0.961 . S
H1844 C1830 0.961 . S
H1845 C1831 0.958 . S
H1846 C1831 0.961 . S
H1847 C1831 0.960 . S
C1848 C1849 1.391 . S
C1848 C1850 1.394 . S
C1848 H1864 0.931 . S
C1849 C1848 1.391 . S
C1849 C1853 1.376 . S
C1850 C1848 1.394 . S
C1850 C1851 1.369 . S
C1850 C1854 1.531 . S
C1851 C1850 1.369 . S
C1851 C1852 1.410 . S
C1851 C1859 1.503 . S
C1852 C1851 1.410 . S
C1852 C1853 1.392 . S
C1852 C1855 1.511 1_545 S
C1853 C1849 1.376 . S
C1853 C1852 1.392 . S
C1853 H1865 0.929 1_545 S
C1854 C1850 1.531 . S
C1854 H1866 0.960 . S
C1854 H1867 0.962 . S
C1854 H1868 0.960 . S
C1855 C1852 1.511 1_565 S
C1855 H1869 0.961 . S
C1855 H1870 0.961 . S
C1855 H1871 0.961 . S
C1856 C1857 1.377 . S
C1856 C1858 1.363 . S
C1856 H1872 0.931 . S
C1857 C1856 1.377 . S
C1857 C1861 1.397 1_565 S
C1858 C1856 1.363 . S
C1858 C1859 1.370 1_565 S
C1858 C1862 1.524 . S
C1859 C1851 1.503 . S
C1859 C1858 1.370 1_545 S
C1859 C1860 1.403 . S
C1860 C1859 1.403 . S
C1860 C1861 1.404 . S
C1860 C1863 1.539 . S
C1861 C1857 1.397 1_545 S
C1861 C1860 1.404 . S
C1861 H1873 0.930 . S
C1862 C1858 1.524 . S
C1862 H1874 0.956 . S
C1862 H1875 0.961 . S
C1862 H1876 0.961 . S
C1863 C1860 1.539 . S
C1863 H1877 0.958 . S
C1863 H1878 0.961 . S
C1863 H1879 0.960 . S
H1864 C1848 0.931 . S
H1865 C1853 0.929 1_565 S
H1866 C1854 0.960 . S
H1867 C1854 0.962 . S
H1868 C1854 0.960 . S
H1869 C1855 0.961 . S
H1870 C1855 0.961 . S
H1871 C1855 0.961 . S
H1872 C1856 0.931 . S
H1873 C1861 0.930 . S
H1874 C1862 0.956 . S
H1875 C1862 0.961 . S
H1876 C1862 0.961 . S
H1877 C1863 0.958 . S
H1878 C1863 0.961 . S
H1879 C1863 0.960 . S
C1880 C1881 1.391 . S
C1880 C1882 1.394 . S
C1880 H1896 0.931 . S
C1881 C1880 1.391 . S
C1881 C1885 1.376 . S
C1882 C1880 1.394 . S
C1882 C1883 1.369 . S
C1882 C1886 1.531 . S
C1883 C1882 1.369 . S
C1883 C1884 1.410 . S
C1883 C1891 1.503 . S
C1884 C1883 1.410 . S
C1884 C1885 1.392 . S
C1884 C1887 1.511 . S
C1885 C1881 1.376 . S
C1885 C1884 1.392 . S
C1885 H1897 0.929 . S
C1886 C1882 1.531 . S
C1886 H1898 0.960 . S
C1886 H1899 0.962 . S
C1886 H1900 0.960 . S
C1887 C1884 1.511 . S
C1887 H1901 0.961 . S
C1887 H1902 0.961 . S
C1887 H1903 0.961 . S
C1888 C1889 1.370 . S
C1888 C1890 1.363 . S
C1888 H1904 0.931 . S
C1889 C1888 1.370 . S
C1889 C1893 1.408 . S
C1890 C1888 1.363 . S
C1890 C1891 1.370 . S
C1890 C1894 1.524 . S
C1891 C1883 1.503 . S
C1891 C1890 1.370 . S
C1891 C1892 1.403 . S
C1892 C1891 1.403 . S
C1892 C1893 1.404 . S
C1892 C1895 1.539 . S
C1893 C1889 1.408 . S
C1893 C1892 1.404 . S
C1893 H1905 0.930 . S
C1894 C1890 1.524 . S
C1894 H1906 0.956 . S
C1894 H1907 0.961 . S
C1894 H1908 0.961 . S
C1895 C1892 1.539 . S
C1895 H1909 0.958 . S
C1895 H1910 0.961 . S
C1895 H1911 0.960 . S
H1896 C1880 0.931 . S
H1897 C1885 0.929 . S
H1898 C1886 0.960 . S
H1899 C1886 0.962 . S
H1900 C1886 0.960 . S
H1901 C1887 0.961 . S
H1902 C1887 0.961 . S
H1903 C1887 0.961 . S
H1904 C1888 0.931 . S
H1905 C1893 0.930 . S
H1906 C1894 0.956 . S
H1907 C1894 0.961 . S
H1908 C1894 0.961 . S
H1909 C1895 0.958 . S
H1910 C1895 0.961 . S
H1911 C1895 0.960 . S
C1912 C1913 1.391 . S
C1912 C1914 1.394 . S
C1912 H1928 0.931 . S
C1913 C1912 1.391 . S
C1913 C1917 1.376 1_556 S
C1914 C1912 1.394 . S
C1914 C1915 1.369 . S
C1914 C1918 1.531 . S
C1915 C1914 1.369 . S
C1915 C1916 1.410 1_556 S
C1915 C1923 1.503 . S
C1916 C1915 1.410 1_554 S
C1916 C1917 1.392 . S
C1916 C1919 1.511 . S
C1917 C1913 1.376 1_554 S
C1917 C1916 1.392 . S
C1917 H1929 0.929 . S
C1918 C1914 1.531 . S
C1918 H1930 0.960 . S
C1918 H1931 0.962 . S
C1918 H1932 0.960 . S
C1919 C1916 1.511 . S
C1919 H1933 0.961 . S
C1919 H1934 0.961 . S
C1919 H1935 0.961 . S
C1920 C1921 1.370 . S
C1920 C1922 1.363 . S
C1920 H1936 0.931 1_556 S
C1921 C1920 1.370 . S
C1921 C1925 1.408 . S
C1922 C1920 1.363 . S
C1922 C1923 1.370 . S
C1922 C1926 1.524 1_556 S
C1923 C1915 1.503 . S
C1923 C1922 1.370 . S
C1923 C1924 1.403 . S
C1924 C1923 1.403 . S
C1924 C1925 1.404 . S
C1924 C1927 1.539 . S
C1925 C1921 1.408 . S
C1925 C1924 1.404 . S
C1925 H1937 0.930 . S
C1926 C1922 1.524 1_554 S
C1926 H1938 0.956 . S
C1926 H1939 0.961 . S
C1926 H1940 0.961 . S
C1927 C1924 1.539 . S
C1927 H1941 0.958 . S
C1927 H1942 0.961 . S
C1927 H1943 0.960 . S
H1928 C1912 0.931 . S
H1929 C1917 0.929 . S
H1930 C1918 0.960 . S
H1931 C1918 0.962 . S
H1932 C1918 0.960 . S
H1933 C1919 0.961 . S
H1934 C1919 0.961 . S
H1935 C1919 0.961 . S
H1936 C1920 0.931 1_554 S
H1937 C1925 0.930 . S
H1938 C1926 0.956 . S
H1939 C1926 0.961 . S
H1940 C1926 0.961 . S
H1941 C1927 0.958 . S
H1942 C1927 0.961 . S
H1943 C1927 0.960 . S
C1944 C1945 1.391 . S
C1944 C1946 1.394 . S
C1944 H1960 0.931 . S
C1945 C1944 1.391 . S
C1945 C1949 1.376 1_554 S
C1946 C1944 1.394 . S
C1946 C1947 1.369 . S
C1946 C1950 1.531 . S
C1947 C1946 1.369 . S
C1947 C1948 1.410 1_554 S
C1947 C1955 1.503 . S
C1948 C1947 1.410 1_556 S
C1948 C1949 1.392 . S
C1948 C1951 1.511 . S
C1949 C1945 1.376 1_556 S
C1949 C1948 1.392 . S
C1949 H1961 0.929 . S
C1950 C1946 1.531 . S
C1950 H1962 0.960 . S
C1950 H1963 0.962 . S
C1950 H1964 0.960 . S
C1951 C1948 1.511 . S
C1951 H1965 0.961 . S
C1951 H1966 0.961 . S
C1951 H1967 0.961 . S
C1952 C1953 1.370 . S
C1952 C1954 1.363 . S
C1952 H1968 0.931 . S
C1953 C1952 1.370 . S
C1953 C1957 1.408 . S
C1954 C1952 1.363 . S
C1954 C1955 1.370 . S
C1954 C1958 1.524 . S
C1955 C1947 1.503 . S
C1955 C1954 1.370 . S
C1955 C1956 1.403 . S
C1956 C1955 1.403 . S
C1956 C1957 1.404 . S
C1956 C1959 1.539 1_554 S
C1957 C1953 1.408 . S
C1957 C1956 1.404 . S
C1957 H1969 0.930 1_554 S
C1958 C1954 1.524 . S
C1958 H1970 0.956 . S
C1958 H1971 0.961 . S
C1958 H1972 0.961 . S
C1959 C1956 1.539 1_556 S
C1959 H1973 0.958 . S
C1959 H1974 0.961 . S
C1959 H1975 0.960 . S
H1960 C1944 0.931 . S
H1961 C1949 0.929 . S
H1962 C1950 0.960 . S
H1963 C1950 0.962 . S
H1964 C1950 0.960 . S
H1965 C1951 0.961 . S
H1966 C1951 0.961 . S
H1967 C1951 0.961 . S
H1968 C1952 0.931 . S
H1969 C1957 0.930 1_556 S
H1970 C1958 0.956 . S
H1971 C1958 0.961 . S
H1972 C1958 0.961 . S
H1973 C1959 0.958 . S
H1974 C1959 0.961 . S
H1975 C1959 0.960 . S
C1976 C1977 1.391 . S
C1976 C1978 1.394 . S
C1976 H1992 0.931 . S
C1977 C1976 1.391 . S
C1977 C1981 1.376 . S
C1978 C1976 1.394 . S
C1978 C1979 1.369 . S
C1978 C1982 1.531 . S
C1979 C1978 1.369 . S
C1979 C1980 1.410 . S
C1979 C1987 1.503 . S
C1980 C1979 1.410 . S
C1980 C1981 1.392 . S
C1980 C1983 1.511 . S
C1981 C1977 1.376 . S
C1981 C1980 1.392 . S
C1981 H1993 0.929 . S
C1982 C1978 1.531 . S
C1982 H1994 0.960 . S
C1982 H1995 0.962 . S
C1982 H1996 0.960 . S
C1983 C1980 1.511 . S
C1983 H1997 0.961 . S
C1983 H1998 0.961 . S
C1983 H1999 0.961 . S
C1984 C1985 1.370 . S
C1984 C1986 1.363 . S
C1984 H2000 0.931 . S
C1985 C1984 1.370 . S
C1985 C1989 1.408 . S
C1986 C1984 1.363 . S
C1986 C1987 1.370 . S
C1986 C1990 1.524 . S
C1987 C1979 1.503 . S
C1987 C1986 1.370 . S
C1987 C1988 1.403 . S
C1988 C1987 1.403 . S
C1988 C1989 1.404 . S
C1988 C1991 1.539 . S
C1989 C1985 1.408 . S
C1989 C1988 1.404 . S
C1989 H2001 0.930 . S
C1990 C1986 1.524 . S
C1990 H2002 0.956 . S
C1990 H2003 0.961 . S
C1990 H2004 0.961 . S
C1991 C1988 1.539 . S
C1991 H2005 0.958 . S
C1991 H2006 0.961 . S
C1991 H2007 0.960 . S
H1992 C1976 0.931 . S
H1993 C1981 0.929 . S
H1994 C1982 0.960 . S
H1995 C1982 0.962 . S
H1996 C1982 0.960 . S
H1997 C1983 0.961 . S
H1998 C1983 0.961 . S
H1999 C1983 0.961 . S
H2000 C1984 0.931 . S
H2001 C1989 0.930 . S
H2002 C1990 0.956 . S
H2003 C1990 0.961 . S
H2004 C1990 0.961 . S
H2005 C1991 0.958 . S
H2006 C1991 0.961 . S
H2007 C1991 0.960 . S
C2008 C2009 1.391 . S
C2008 C2010 1.394 . S
C2008 H2024 0.931 . S
C2009 C2008 1.391 . S
C2009 C2013 1.376 . S
C2010 C2008 1.394 . S
C2010 C2011 1.369 . S
C2010 C2014 1.531 . S
C2011 C2010 1.369 . S
C2011 C2012 1.410 . S
C2011 C2019 1.503 . S
C2012 C2011 1.410 . S
C2012 C2013 1.392 . S
C2012 C2015 1.511 . S
C2013 C2009 1.376 . S
C2013 C2012 1.392 . S
C2013 H2025 0.929 . S
C2014 C2010 1.531 . S
C2014 H2026 0.960 . S
C2014 H2027 0.962 . S
C2014 H2028 0.960 . S
C2015 C2012 1.511 . S
C2015 H2029 0.961 . S
C2015 H2030 0.961 . S
C2015 H2031 0.961 . S
C2016 C2017 1.370 . S
C2016 C2018 1.363 . S
C2016 H2032 0.931 . S
C2017 C2016 1.370 . S
C2017 C2021 1.408 . S
C2018 C2016 1.363 . S
C2018 C2019 1.370 . S
C2018 C2022 1.524 . S
C2019 C2011 1.503 . S
C2019 C2018 1.370 . S
C2019 C2020 1.403 . S
C2020 C2019 1.403 . S
C2020 C2021 1.404 . S
C2020 C2023 1.539 . S
C2021 C2017 1.408 . S
C2021 C2020 1.404 . S
C2021 H2033 0.930 . S
C2022 C2018 1.524 . S
C2022 H2034 0.956 . S
C2022 H2035 0.961 . S
C2022 H2036 0.961 . S
C2023 C2020 1.539 . S
C2023 H2037 0.958 . S
C2023 H2038 0.961 . S
C2023 H2039 0.960 . S
H2024 C2008 0.931 . S
H2025 C2013 0.929 . S
H2026 C2014 0.960 . S
H2027 C2014 0.962 . S
H2028 C2014 0.960 . S
H2029 C2015 0.961 . S
H2030 C2015 0.961 . S
H2031 C2015 0.961 . S
H2032 C2016 0.931 . S
H2033 C2021 0.930 . S
H2034 C2022 0.956 . S
H2035 C2022 0.961 . S
H2036 C2022 0.961 . S
H2037 C2023 0.958 . S
H2038 C2023 0.961 . S
H2039 C2023 0.960 . S
C2040 C2041 1.391 . S
C2040 C2042 1.394 . S
C2040 H2056 0.931 . S
C2041 C2040 1.391 . S
C2041 C2045 1.376 . S
C2042 C2040 1.394 . S
C2042 C2043 1.369 . S
C2042 C2046 1.531 . S
C2043 C2042 1.369 . S
C2043 C2044 1.410 . S
C2043 C2051 1.503 . S
C2044 C2043 1.410 . S
C2044 C2045 1.392 . S
C2044 C2047 1.511 . S
C2045 C2041 1.376 . S
C2045 C2044 1.392 . S
C2045 H2057 0.929 . S
C2046 C2042 1.531 . S
C2046 H2058 0.960 . S
C2046 H2059 0.962 . S
C2046 H2060 0.960 . S
C2047 C2044 1.511 . S
C2047 H2061 0.961 . S
C2047 H2062 0.961 . S
C2047 H2063 0.961 . S
C2048 C2049 1.370 . S
C2048 C2050 1.363 . S
C2048 H2064 0.931 . S
C2049 C2048 1.370 . S
C2049 C2053 1.408 . S
C2050 C2048 1.363 . S
C2050 C2051 1.370 . S
C2050 C2054 1.524 . S
C2051 C2043 1.503 . S
C2051 C2050 1.370 . S
C2051 C2052 1.403 . S
C2052 C2051 1.403 . S
C2052 C2053 1.404 . S
C2052 C2055 1.539 . S
C2053 C2049 1.408 . S
C2053 C2052 1.404 . S
C2053 H2065 0.930 . S
C2054 C2050 1.524 . S
C2054 H2066 0.956 . S
C2054 H2067 0.961 . S
C2054 H2068 0.961 . S
C2055 C2052 1.539 . S
C2055 H2069 0.958 . S
C2055 H2070 0.961 . S
C2055 H2071 0.960 . S
H2056 C2040 0.931 . S
H2057 C2045 0.929 . S
H2058 C2046 0.960 . S
H2059 C2046 0.962 . S
H2060 C2046 0.960 . S
H2061 C2047 0.961 . S
H2062 C2047 0.961 . S
H2063 C2047 0.961 . S
H2064 C2048 0.931 . S
H2065 C2053 0.930 . S
H2066 C2054 0.956 . S
H2067 C2054 0.961 . S
H2068 C2054 0.961 . S
H2069 C2055 0.958 . S
H2070 C2055 0.961 . S
H2071 C2055 0.960 . S
C2072 C2073 1.391 . S
C2072 C2074 1.394 . S
C2072 H2088 0.931 . S
C2073 C2072 1.391 . S
C2073 C2077 1.376 . S
C2074 C2072 1.394 . S
C2074 C2075 1.369 . S
C2074 C2078 1.531 . S
C2075 C2074 1.369 . S
C2075 C2076 1.410 . S
C2075 C2083 1.503 . S
C2076 C2075 1.410 . S
C2076 C2077 1.392 . S
C2076 C2079 1.511 . S
C2077 C2073 1.376 . S
C2077 C2076 1.392 . S
C2077 H2089 0.929 . S
C2078 C2074 1.531 . S
C2078 H2090 0.960 . S
C2078 H2091 0.962 . S
C2078 H2092 0.960 . S
C2079 C2076 1.511 . S
C2079 H2093 0.961 . S
C2079 H2094 0.961 . S
C2079 H2095 0.961 . S
C2080 C2081 1.370 . S
C2080 C2082 1.363 . S
C2080 H2096 0.931 1_565 S
C2081 C2080 1.370 . S
C2081 C2085 1.408 . S
C2082 C2080 1.363 . S
C2082 C2083 1.370 . S
C2082 C2086 1.524 . S
C2083 C2075 1.503 . S
C2083 C2082 1.370 . S
C2083 C2084 1.403 . S
C2084 C2083 1.403 . S
C2084 C2085 1.404 . S
C2084 C2087 1.539 . S
C2085 C2081 1.408 . S
C2085 C2084 1.404 . S
C2085 H2097 0.930 . S
C2086 C2082 1.524 . S
C2086 H2098 0.956 . S
C2086 H2099 0.961 . S
C2086 H2100 0.961 1_565 S
C2087 C2084 1.539 . S
C2087 H2101 0.958 . S
C2087 H2102 0.961 . S
C2087 H2103 0.960 . S
H2088 C2072 0.931 . S
H2089 C2077 0.929 . S
H2090 C2078 0.960 . S
H2091 C2078 0.962 . S
H2092 C2078 0.960 . S
H2093 C2079 0.961 . S
H2094 C2079 0.961 . S
H2095 C2079 0.961 . S
H2096 C2080 0.931 1_545 S
H2097 C2085 0.930 . S
H2098 C2086 0.956 . S
H2099 C2086 0.961 . S
H2100 C2086 0.961 1_545 S
H2101 C2087 0.958 . S
H2102 C2087 0.961 . S
H2103 C2087 0.960 . S
C2104 C2105 1.391 . S
C2104 C2106 1.394 . S
C2104 H2120 0.931 . S
C2105 C2104 1.391 . S
C2105 C2109 1.376 . S
C2106 C2104 1.394 . S
C2106 C2107 1.369 . S
C2106 C2110 1.531 . S
C2107 C2106 1.369 . S
C2107 C2108 1.410 . S
C2107 C2115 1.503 . S
C2108 C2107 1.410 . S
C2108 C2109 1.392 . S
C2108 C2111 1.511 . S
C2109 C2105 1.376 . S
C2109 C2108 1.392 . S
C2109 H2121 0.929 . S
C2110 C2106 1.531 . S
C2110 H2122 0.960 . S
C2110 H2123 0.962 . S
C2110 H2124 0.960 . S
C2111 C2108 1.511 . S
C2111 H2125 0.961 . S
C2111 H2126 0.961 . S
C2111 H2127 0.961 . S
C2112 C2113 1.370 . S
C2112 C2114 1.363 . S
C2112 H2128 0.931 . S
C2113 C2112 1.370 . S
C2113 C2117 1.408 . S
C2114 C2112 1.363 . S
C2114 C2115 1.370 . S
C2114 C2118 1.524 . S
C2115 C2107 1.503 . S
C2115 C2114 1.370 . S
C2115 C2116 1.403 . S
C2116 C2115 1.403 . S
C2116 C2117 1.404 . S
C2116 C2119 1.539 . S
C2117 C2113 1.408 . S
C2117 C2116 1.404 . S
C2117 H2129 0.930 . S
C2118 C2114 1.524 . S
C2118 H2130 0.956 . S
C2118 H2131 0.961 . S
C2118 H2132 0.961 . S
C2119 C2116 1.539 . S
C2119 H2133 0.958 . S
C2119 H2134 0.961 . S
C2119 H2135 0.960 . S
H2120 C2104 0.931 . S
H2121 C2109 0.929 . S
H2122 C2110 0.960 . S
H2123 C2110 0.962 . S
H2124 C2110 0.960 . S
H2125 C2111 0.961 . S
H2126 C2111 0.961 . S
H2127 C2111 0.961 . S
H2128 C2112 0.931 . S
H2129 C2117 0.930 . S
H2130 C2118 0.956 . S
H2131 C2118 0.961 . S
H2132 C2118 0.961 . S
H2133 C2119 0.958 . S
H2134 C2119 0.961 . S
H2135 C2119 0.960 . S
C2136 C2137 1.391 . S
C2136 C2138 1.394 . S
C2136 H2152 0.931 . S
C2137 C2136 1.391 . S
C2137 C2141 1.376 . S
C2138 C2136 1.394 . S
C2138 C2139 1.369 . S
C2138 C2142 1.531 . S
C2139 C2138 1.369 . S
C2139 C2140 1.410 . S
C2139 C2147 1.503 . S
C2140 C2139 1.410 . S
C2140 C2141 1.392 . S
C2140 C2143 1.511 . S
C2141 C2137 1.376 . S
C2141 C2140 1.392 . S
C2141 H2153 0.929 . S
C2142 C2138 1.531 . S
C2142 H2154 0.960 . S
C2142 H2155 0.962 . S
C2142 H2156 0.960 . S
C2143 C2140 1.511 . S
C2143 H2157 0.961 . S
C2143 H2158 0.961 . S
C2143 H2159 0.961 . S
C2144 C2145 1.370 . S
C2144 C2146 1.363 . S
C2144 H2160 0.931 . S
C2145 C2144 1.370 . S
C2145 C2149 1.408 . S
C2146 C2144 1.363 . S
C2146 C2147 1.370 . S
C2146 C2150 1.524 . S
C2147 C2139 1.503 . S
C2147 C2146 1.370 . S
C2147 C2148 1.403 . S
C2148 C2147 1.403 . S
C2148 C2149 1.404 . S
C2148 C2151 1.539 . S
C2149 C2145 1.408 . S
C2149 C2148 1.404 . S
C2149 H2161 0.930 . S
C2150 C2146 1.524 . S
C2150 H2162 0.956 . S
C2150 H2163 0.961 . S
C2150 H2164 0.961 . S
C2151 C2148 1.539 . S
C2151 H2165 0.958 . S
C2151 H2166 0.961 . S
C2151 H2167 0.960 . S
H2152 C2136 0.931 . S
H2153 C2141 0.929 . S
H2154 C2142 0.960 . S
H2155 C2142 0.962 . S
H2156 C2142 0.960 . S
H2157 C2143 0.961 . S
H2158 C2143 0.961 . S
H2159 C2143 0.961 . S
H2160 C2144 0.931 . S
H2161 C2149 0.930 . S
H2162 C2150 0.956 . S
H2163 C2150 0.961 . S
H2164 C2150 0.961 . S
H2165 C2151 0.958 . S
H2166 C2151 0.961 . S
H2167 C2151 0.960 . S
C2168 C2169 1.391 . S
C2168 C2170 1.394 . S
C2168 H2184 0.931 . S
C2169 C2168 1.391 . S
C2169 C2173 1.376 . S
C2170 C2168 1.394 . S
C2170 C2171 1.369 . S
C2170 C2174 1.531 . S
C2171 C2170 1.369 . S
C2171 C2172 1.410 . S
C2171 C2179 1.503 . S
C2172 C2171 1.410 . S
C2172 C2173 1.392 . S
C2172 C2175 1.511 . S
C2173 C2169 1.376 . S
C2173 C2172 1.392 . S
C2173 H2185 0.929 . S
C2174 C2170 1.531 . S
C2174 H2186 0.960 . S
C2174 H2187 0.962 . S
C2174 H2188 0.960 . S
C2175 C2172 1.511 . S
C2175 H2189 0.961 . S
C2175 H2190 0.961 . S
C2175 H2191 0.961 . S
C2176 C2177 1.370 . S
C2176 C2178 1.363 . S
C2176 H2192 0.931 . S
C2177 C2176 1.370 . S
C2177 C2181 1.408 . S
C2178 C2176 1.363 . S
C2178 C2179 1.370 . S
C2178 C2182 1.524 . S
C2179 C2171 1.503 . S
C2179 C2178 1.370 . S
C2179 C2180 1.403 . S
C2180 C2179 1.403 . S
C2180 C2181 1.404 . S
C2180 C2183 1.539 . S
C2181 C2177 1.408 . S
C2181 C2180 1.404 . S
C2181 H2193 0.930 . S
C2182 C2178 1.524 . S
C2182 H2194 0.956 . S
C2182 H2195 0.961 . S
C2182 H2196 0.961 . S
C2183 C2180 1.539 . S
C2183 H2197 0.958 . S
C2183 H2198 0.961 . S
C2183 H2199 0.960 . S
H2184 C2168 0.931 . S
H2185 C2173 0.929 . S
H2186 C2174 0.960 . S
H2187 C2174 0.962 . S
H2188 C2174 0.960 . S
H2189 C2175 0.961 . S
H2190 C2175 0.961 . S
H2191 C2175 0.961 . S
H2192 C2176 0.931 . S
H2193 C2181 0.930 . S
H2194 C2182 0.956 . S
H2195 C2182 0.961 . S
H2196 C2182 0.961 . S
H2197 C2183 0.958 . S
H2198 C2183 0.961 . S
H2199 C2183 0.960 . S
C2200 C2201 1.391 . S
C2200 C2202 1.394 . S
C2200 H2216 0.931 . S
C2201 C2200 1.391 . S
C2201 C2205 1.376 . S
C2202 C2200 1.394 . S
C2202 C2203 1.369 . S
C2202 C2206 1.531 . S
C2203 C2202 1.369 . S
C2203 C2204 1.410 . S
C2203 C2211 1.503 . S
C2204 C2203 1.410 . S
C2204 C2205 1.392 . S
C2204 C2207 1.511 . S
C2205 C2201 1.376 . S
C2205 C2204 1.392 . S
C2205 H2217 0.929 . S
C2206 C2202 1.531 . S
C2206 H2218 0.960 . S
C2206 H2219 0.962 . S
C2206 H2220 0.960 . S
C2207 C2204 1.511 . S
C2207 H2221 0.961 . S
C2207 H2222 0.961 . S
C2207 H2223 0.961 . S
C2208 C2209 1.370 . S
C2208 C2210 1.363 . S
C2208 H2224 0.931 . S
C2209 C2208 1.370 . S
C2209 C2213 1.408 . S
C2210 C2208 1.363 . S
C2210 C2211 1.370 . S
C2210 C2214 1.524 . S
C2211 C2203 1.503 . S
C2211 C2210 1.370 . S
C2211 C2212 1.403 . S
C2212 C2211 1.403 . S
C2212 C2213 1.404 . S
C2212 C2215 1.539 . S
C2213 C2209 1.408 . S
C2213 C2212 1.404 . S
C2213 H2225 0.930 . S
C2214 C2210 1.524 . S
C2214 H2226 0.956 . S
C2214 H2227 0.961 . S
C2214 H2228 0.961 . S
C2215 C2212 1.539 . S
C2215 H2229 0.958 . S
C2215 H2230 0.961 . S
C2215 H2231 0.960 . S
H2216 C2200 0.931 . S
H2217 C2205 0.929 . S
H2218 C2206 0.960 . S
H2219 C2206 0.962 . S
H2220 C2206 0.960 . S
H2221 C2207 0.961 . S
H2222 C2207 0.961 . S
H2223 C2207 0.961 . S
H2224 C2208 0.931 . S
H2225 C2213 0.930 . S
H2226 C2214 0.956 . S
H2227 C2214 0.961 . S
H2228 C2214 0.961 . S
H2229 C2215 0.958 . S
H2230 C2215 0.961 . S
H2231 C2215 0.960 . S
C2232 C2233 1.391 . S
C2232 C2234 1.394 . S
C2232 H2248 0.931 . S
C2233 C2232 1.391 . S
C2233 C2237 1.376 . S
C2234 C2232 1.394 . S
C2234 C2235 1.369 . S
C2234 C2238 1.531 1_556 S
C2235 C2234 1.369 . S
C2235 C2236 1.410 . S
C2235 C2243 1.503 . S
C2236 C2235 1.410 . S
C2236 C2237 1.392 . S
C2236 C2239 1.511 . S
C2237 C2233 1.376 . S
C2237 C2236 1.392 . S
C2237 H2249 0.929 . S
C2238 C2234 1.531 1_554 S
C2238 H2250 0.960 . S
C2238 H2251 0.962 . S
C2238 H2252 0.960 . S
C2239 C2236 1.511 . S
C2239 H2253 0.961 . S
C2239 H2254 0.961 . S
C2239 H2255 0.961 . S
C2240 C2241 1.370 1_655 S
C2240 C2242 1.363 . S
C2240 H2256 0.931 . S
C2241 C2240 1.370 1_455 S
C2241 C2245 1.408 . S
C2242 C2240 1.363 . S
C2242 C2243 1.370 1_655 S
C2242 C2246 1.524 . S
C2243 C2235 1.503 . S
C2243 C2242 1.370 1_455 S
C2243 C2244 1.403 . S
C2244 C2243 1.403 . S
C2244 C2245 1.404 . S
C2244 C2247 1.539 . S
C2245 C2241 1.408 . S
C2245 C2244 1.404 . S
C2245 H2257 0.930 . S
C2246 C2242 1.524 . S
C2246 H2258 0.956 . S
C2246 H2259 0.961 . S
C2246 H2260 0.961 . S
C2247 C2244 1.539 . S
C2247 H2261 0.958 . S
C2247 H2262 0.961 . S
C2247 H2263 0.960 . S
H2248 C2232 0.931 . S
H2249 C2237 0.929 . S
H2250 C2238 0.960 . S
H2251 C2238 0.962 . S
H2252 C2238 0.960 . S
H2253 C2239 0.961 . S
H2254 C2239 0.961 . S
H2255 C2239 0.961 . S
H2256 C2240 0.931 . S
H2257 C2245 0.930 . S
H2258 C2246 0.956 . S
H2259 C2246 0.961 . S
H2260 C2246 0.961 . S
H2261 C2247 0.958 . S
H2262 C2247 0.961 . S
H2263 C2247 0.960 . S
C2264 C2265 1.391 . S
C2264 C2266 1.394 . S
C2264 H2280 0.931 . S
C2265 C2264 1.391 . S
C2265 C2269 1.376 . S
C2266 C2264 1.394 . S
C2266 C2267 1.369 . S
C2266 C2270 1.531 . S
C2267 C2266 1.369 . S
C2267 C2268 1.410 . S
C2267 C2275 1.503 . S
C2268 C2267 1.410 . S
C2268 C2269 1.392 . S
C2268 C2271 1.511 . S
C2269 C2265 1.376 . S
C2269 C2268 1.392 . S
C2269 H2281 0.929 . S
C2270 C2266 1.531 . S
C2270 H2282 0.960 . S
C2270 H2283 0.962 . S
C2270 H2284 0.960 . S
C2271 C2268 1.511 . S
C2271 H2285 0.961 . S
C2271 H2286 0.961 . S
C2271 H2287 0.961 . S
C2272 C2273 1.370 . S
C2272 C2274 1.363 . S
C2272 H2288 0.931 . S
C2273 C2272 1.370 . S
C2273 C2277 1.408 . S
C2274 C2272 1.363 . S
C2274 C2275 1.370 . S
C2274 C2278 1.524 . S
C2275 C2267 1.503 . S
C2275 C2274 1.370 . S
C2275 C2276 1.403 . S
C2276 C2275 1.403 . S
C2276 C2277 1.404 . S
C2276 C2279 1.539 . S
C2277 C2273 1.408 . S
C2277 C2276 1.404 . S
C2277 H2289 0.930 . S
C2278 C2274 1.524 . S
C2278 H2290 0.956 . S
C2278 H2291 0.961 . S
C2278 H2292 0.961 . S
C2279 C2276 1.539 . S
C2279 H2293 0.958 . S
C2279 H2294 0.961 . S
C2279 H2295 0.960 . S
H2280 C2264 0.931 . S
H2281 C2269 0.929 . S
H2282 C2270 0.960 . S
H2283 C2270 0.962 . S
H2284 C2270 0.960 . S
H2285 C2271 0.961 . S
H2286 C2271 0.961 . S
H2287 C2271 0.961 . S
H2288 C2272 0.931 . S
H2289 C2277 0.930 . S
H2290 C2278 0.956 . S
H2291 C2278 0.961 . S
H2292 C2278 0.961 . S
H2293 C2279 0.958 . S
H2294 C2279 0.961 . S
H2295 C2279 0.960 . S
C2296 C2297 1.391 . S
C2296 C2298 1.394 . S
C2296 H2312 0.931 . S
C2297 C2296 1.391 . S
C2297 C2301 1.376 . S
C2298 C2296 1.394 . S
C2298 C2299 1.369 . S
C2298 C2302 1.531 . S
C2299 C2298 1.369 . S
C2299 C2300 1.410 . S
C2299 C2307 1.503 . S
C2300 C2299 1.410 . S
C2300 C2301 1.392 . S
C2300 C2303 1.511 . S
C2301 C2297 1.376 . S
C2301 C2300 1.392 . S
C2301 H2313 0.929 . S
C2302 C2298 1.531 . S
C2302 H2314 0.960 . S
C2302 H2315 0.962 . S
C2302 H2316 0.960 . S
C2303 C2300 1.511 . S
C2303 H2317 0.961 . S
C2303 H2318 0.961 . S
C2303 H2319 0.961 . S
C2304 C2305 1.370 . S
C2304 C2306 1.363 . S
C2304 H2320 0.931 . S
C2305 C2304 1.370 . S
C2305 C2309 1.408 . S
C2306 C2304 1.363 . S
C2306 C2307 1.370 . S
C2306 C2310 1.524 . S
C2307 C2299 1.503 . S
C2307 C2306 1.370 . S
C2307 C2308 1.403 . S
C2308 C2307 1.403 . S
C2308 C2309 1.404 . S
C2308 C2311 1.539 . S
C2309 C2305 1.408 . S
C2309 C2308 1.404 . S
C2309 H2321 0.930 . S
C2310 C2306 1.524 . S
C2310 H2322 0.956 . S
C2310 H2323 0.961 . S
C2310 H2324 0.961 . S
C2311 C2308 1.539 . S
C2311 H2325 0.958 . S
C2311 H2326 0.961 . S
C2311 H2327 0.960 . S
H2312 C2296 0.931 . S
H2313 C2301 0.929 . S
H2314 C2302 0.960 . S
H2315 C2302 0.962 . S
H2316 C2302 0.960 . S
H2317 C2303 0.961 . S
H2318 C2303 0.961 . S
H2319 C2303 0.961 . S
H2320 C2304 0.931 . S
H2321 C2309 0.930 . S
H2322 C2310 0.956 . S
H2323 C2310 0.961 . S
H2324 C2310 0.961 . S
H2325 C2311 0.958 . S
H2326 C2311 0.961 . S
H2327 C2311 0.960 . S
C2328 C2329 1.391 . S
C2328 C2330 1.394 . S
C2328 H2344 0.931 . S
C2329 C2328 1.391 . S
C2329 C2333 1.376 . S
C2330 C2328 1.394 . S
C2330 C2331 1.369 . S
C2330 C2334 1.531 . S
C2331 C2330 1.369 . S
C2331 C2332 1.410 . S
C2331 C2339 1.503 . S
C2332 C2331 1.410 . S
C2332 C2333 1.392 . S
C2332 C2335 1.511 . S
C2333 C2329 1.376 . S
C2333 C2332 1.392 . S
C2333 H2345 0.929 . S
C2334 C2330 1.531 . S
C2334 H2346 0.960 . S
C2334 H2347 0.962 . S
C2334 H2348 0.960 . S
C2335 C2332 1.511 . S
C2335 H2349 0.961 . S
C2335 H2350 0.961 . S
C2335 H2351 0.961 . S
C2336 C2337 1.370 . S
C2336 C2338 1.363 . S
C2336 H2352 0.931 . S
C2337 C2336 1.370 . S
C2337 C2341 1.408 . S
C2338 C2336 1.363 . S
C2338 C2339 1.370 . S
C2338 C2342 1.524 . S
C2339 C2331 1.503 . S
C2339 C2338 1.370 . S
C2339 C2340 1.403 . S
C2340 C2339 1.403 . S
C2340 C2341 1.404 . S
C2340 C2343 1.539 . S
C2341 C2337 1.408 . S
C2341 C2340 1.404 . S
C2341 H2353 0.930 . S
C2342 C2338 1.524 . S
C2342 H2354 0.956 . S
C2342 H2355 0.961 . S
C2342 H2356 0.961 . S
C2343 C2340 1.539 . S
C2343 H2357 0.958 . S
C2343 H2358 0.961 . S
C2343 H2359 0.960 . S
H2344 C2328 0.931 . S
H2345 C2333 0.929 . S
H2346 C2334 0.960 . S
H2347 C2334 0.962 . S
H2348 C2334 0.960 . S
H2349 C2335 0.961 . S
H2350 C2335 0.961 . S
H2351 C2335 0.961 . S
H2352 C2336 0.931 . S
H2353 C2341 0.930 . S
H2354 C2342 0.956 . S
H2355 C2342 0.961 . S
H2356 C2342 0.961 . S
H2357 C2343 0.958 . S
H2358 C2343 0.961 . S
H2359 C2343 0.960 . S
C2360 C2361 1.391 . S
C2360 C2362 1.394 . S
C2360 H2376 0.931 . S
C2361 C2360 1.391 . S
C2361 C2365 1.376 1_455 S
C2362 C2360 1.394 . S
C2362 C2363 1.369 . S
C2362 C2366 1.531 . S
C2363 C2362 1.369 . S
C2363 C2364 1.410 1_455 S
C2363 C2371 1.503 . S
C2364 C2363 1.410 1_655 S
C2364 C2365 1.392 . S
C2364 C2367 1.511 . S
C2365 C2361 1.376 1_655 S
C2365 C2364 1.392 . S
C2365 H2377 0.929 . S
C2366 C2362 1.531 . S
C2366 H2378 0.960 . S
C2366 H2379 0.962 . S
C2366 H2380 0.960 . S
C2367 C2364 1.511 . S
C2367 H2381 0.961 . S
C2367 H2382 0.961 . S
C2367 H2383 0.961 . S
C2368 C2369 1.370 . S
C2368 C2370 1.363 . S
C2368 H2384 0.931 . S
C2369 C2368 1.370 . S
C2369 C2373 1.408 . S
C2370 C2368 1.363 . S
C2370 C2371 1.370 . S
C2370 C2374 1.524 . S
C2371 C2363 1.503 . S
C2371 C2370 1.370 . S
C2371 C2372 1.408 . S
C2372 C2371 1.408 . S
C2372 C2373 1.415 . S
C2372 C2375 1.521 1_455 S
C2373 C2369 1.408 . S
C2373 C2372 1.415 . S
C2373 H2385 0.930 1_455 S
C2374 C2370 1.524 . S
C2374 H2386 0.956 . S
C2374 H2387 0.961 . S
C2374 H2388 0.961 . S
C2375 C2372 1.521 1_655 S
C2375 H2389 0.958 1_655 S
C2375 H2390 0.961 . S
C2375 H2391 0.960 . S
H2376 C2360 0.931 . S
H2377 C2365 0.929 . S
H2378 C2366 0.960 . S
H2379 C2366 0.962 . S
H2380 C2366 0.960 . S
H2381 C2367 0.961 . S
H2382 C2367 0.961 . S
H2383 C2367 0.961 . S
H2384 C2368 0.931 . S
H2385 C2373 0.930 1_655 S
H2386 C2374 0.956 . S
H2387 C2374 0.961 . S
H2388 C2374 0.961 . S
H2389 C2375 0.958 1_455 S
H2390 C2375 0.961 . S
H2391 C2375 0.960 . S
C2392 C2393 1.391 . S
C2392 C2394 1.394 . S
C2392 H2408 0.931 . S
C2393 C2392 1.391 . S
C2393 C2397 1.376 . S
C2394 C2392 1.394 . S
C2394 C2395 1.369 . S
C2394 C2398 1.531 . S
C2395 C2394 1.369 . S
C2395 C2396 1.410 . S
C2395 C2403 1.503 . S
C2396 C2395 1.410 . S
C2396 C2397 1.392 . S
C2396 C2399 1.511 . S
C2397 C2393 1.376 . S
C2397 C2396 1.392 . S
C2397 H2409 0.929 . S
C2398 C2394 1.531 . S
C2398 H2410 0.960 . S
C2398 H2411 0.962 . S
C2398 H2412 0.960 . S
C2399 C2396 1.511 . S
C2399 H2413 0.961 . S
C2399 H2414 0.961 . S
C2399 H2415 0.961 . S
C2400 C2401 1.370 . S
C2400 C2402 1.363 . S
C2400 H2416 0.931 . S
C2401 C2400 1.370 . S
C2401 C2405 1.408 . S
C2402 C2400 1.363 . S
C2402 C2403 1.370 . S
C2402 C2406 1.524 . S
C2403 C2395 1.503 . S
C2403 C2402 1.370 . S
C2403 C2404 1.403 . S
C2404 C2403 1.403 . S
C2404 C2405 1.404 . S
C2404 C2407 1.539 . S
C2405 C2401 1.408 . S
C2405 C2404 1.404 . S
C2405 H2417 0.930 . S
C2406 C2402 1.524 . S
C2406 H2418 0.956 . S
C2406 H2419 0.961 . S
C2406 H2420 0.961 . S
C2407 C2404 1.539 . S
C2407 H2421 0.958 . S
C2407 H2422 0.961 . S
C2407 H2423 0.960 . S
H2408 C2392 0.931 . S
H2409 C2397 0.929 . S
H2410 C2398 0.960 . S
H2411 C2398 0.962 . S
H2412 C2398 0.960 . S
H2413 C2399 0.961 . S
H2414 C2399 0.961 . S
H2415 C2399 0.961 . S
H2416 C2400 0.931 . S
H2417 C2405 0.930 . S
H2418 C2406 0.956 . S
H2419 C2406 0.961 . S
H2420 C2406 0.961 . S
H2421 C2407 0.958 . S
H2422 C2407 0.961 . S
H2423 C2407 0.960 . S
C2424 C2425 1.391 . S
C2424 C2426 1.394 . S
C2424 H2440 0.931 . S
C2425 C2424 1.391 . S
C2425 C2429 1.376 . S
C2426 C2424 1.394 . S
C2426 C2427 1.369 . S
C2426 C2430 1.531 . S
C2427 C2426 1.369 . S
C2427 C2428 1.410 . S
C2427 C2435 1.503 . S
C2428 C2427 1.410 . S
C2428 C2429 1.392 . S
C2428 C2431 1.511 . S
C2429 C2425 1.376 . S
C2429 C2428 1.392 . S
C2429 H2441 0.929 . S
C2430 C2426 1.531 . S
C2430 H2442 0.960 . S
C2430 H2443 0.962 . S
C2430 H2444 0.960 . S
C2431 C2428 1.511 . S
C2431 H2445 0.961 . S
C2431 H2446 0.961 . S
C2431 H2447 0.961 . S
C2432 C2433 1.370 . S
C2432 C2434 1.363 . S
C2432 H2448 0.931 . S
C2433 C2432 1.370 . S
C2433 C2437 1.408 . S
C2434 C2432 1.363 . S
C2434 C2435 1.370 . S
C2434 C2438 1.524 . S
C2435 C2427 1.503 . S
C2435 C2434 1.370 . S
C2435 C2436 1.403 . S
C2436 C2435 1.403 . S
C2436 C2437 1.404 . S
C2436 C2439 1.539 . S
C2437 C2433 1.408 . S
C2437 C2436 1.404 . S
C2437 H2449 0.930 . S
C2438 C2434 1.524 . S
C2438 H2450 0.956 . S
C2438 H2451 0.961 . S
C2438 H2452 0.961 . S
C2439 C2436 1.539 . S
C2439 H2453 0.958 . S
C2439 H2454 0.961 . S
C2439 H2455 0.960 . S
H2440 C2424 0.931 . S
H2441 C2429 0.929 . S
H2442 C2430 0.960 . S
H2443 C2430 0.962 . S
H2444 C2430 0.960 . S
H2445 C2431 0.961 . S
H2446 C2431 0.961 . S
H2447 C2431 0.961 . S
H2448 C2432 0.931 . S
H2449 C2437 0.930 . S
H2450 C2438 0.956 . S
H2451 C2438 0.961 . S
H2452 C2438 0.961 . S
H2453 C2439 0.958 . S
H2454 C2439 0.961 . S
H2455 C2439 0.960 . S
C2456 C2457 1.391 . S
C2456 C2458 1.394 . S
C2456 H2472 0.931 . S
C2457 C2456 1.391 . S
C2457 C2461 1.376 . S
C2458 C2456 1.394 . S
C2458 C2459 1.369 . S
C2458 C2462 1.531 . S
C2459 C2458 1.369 . S
C2459 C2460 1.410 . S
C2459 C2467 1.503 . S
C2460 C2459 1.410 . S
C2460 C2461 1.392 . S
C2460 C2463 1.511 . S
C2461 C2457 1.376 . S
C2461 C2460 1.392 . S
C2461 H2473 0.929 . S
C2462 C2458 1.531 . S
C2462 H2474 0.960 . S
C2462 H2475 0.962 . S
C2462 H2476 0.960 . S
C2463 C2460 1.511 . S
C2463 H2477 0.961 . S
C2463 H2478 0.961 . S
C2463 H2479 0.961 . S
C2464 C2465 1.370 . S
C2464 C2466 1.363 . S
C2464 H2480 0.931 . S
C2465 C2464 1.370 . S
C2465 C2469 1.408 . S
C2466 C2464 1.363 . S
C2466 C2467 1.370 . S
C2466 C2470 1.524 . S
C2467 C2459 1.503 . S
C2467 C2466 1.370 . S
C2467 C2468 1.403 . S
C2468 C2467 1.403 . S
C2468 C2469 1.404 . S
C2468 C2471 1.539 . S
C2469 C2465 1.408 . S
C2469 C2468 1.404 . S
C2469 H2481 0.930 . S
C2470 C2466 1.524 . S
C2470 H2482 0.956 . S
C2470 H2483 0.961 . S
C2470 H2484 0.961 . S
C2471 C2468 1.539 . S
C2471 H2485 0.958 . S
C2471 H2486 0.961 . S
C2471 H2487 0.960 . S
H2472 C2456 0.931 . S
H2473 C2461 0.929 . S
H2474 C2462 0.960 . S
H2475 C2462 0.962 . S
H2476 C2462 0.960 . S
H2477 C2463 0.961 . S
H2478 C2463 0.961 . S
H2479 C2463 0.961 . S
H2480 C2464 0.931 . S
H2481 C2469 0.930 . S
H2482 C2470 0.956 . S
H2483 C2470 0.961 . S
H2484 C2470 0.961 . S
H2485 C2471 0.958 . S
H2486 C2471 0.961 . S
H2487 C2471 0.960 . S
C2488 C2489 1.391 . S
C2488 C2490 1.394 . S
C2488 H2504 0.931 . S
C2489 C2488 1.391 . S
C2489 C2493 1.376 . S
C2490 C2488 1.394 . S
C2490 C2491 1.369 . S
C2490 C2494 1.531 . S
C2491 C2490 1.369 . S
C2491 C2492 1.410 . S
C2491 C2499 1.503 . S
C2492 C2491 1.410 . S
C2492 C2493 1.392 . S
C2492 C2495 1.511 . S
C2493 C2489 1.376 . S
C2493 C2492 1.392 . S
C2493 H2505 0.929 . S
C2494 C2490 1.531 . S
C2494 H2506 0.960 . S
C2494 H2507 0.962 . S
C2494 H2508 0.960 . S
C2495 C2492 1.511 . S
C2495 H2509 0.961 . S
C2495 H2510 0.961 . S
C2495 H2511 0.961 . S
C2496 C2497 1.370 . S
C2496 C2498 1.363 . S
C2496 H2512 0.931 . S
C2497 C2496 1.370 . S
C2497 C2501 1.408 . S
C2498 C2496 1.363 . S
C2498 C2499 1.370 . S
C2498 C2502 1.524 . S
C2499 C2491 1.503 . S
C2499 C2498 1.370 . S
C2499 C2500 1.403 . S
C2500 C2499 1.403 . S
C2500 C2501 1.404 . S
C2500 C2503 1.539 . S
C2501 C2497 1.408 . S
C2501 C2500 1.404 . S
C2501 H2513 0.930 . S
C2502 C2498 1.524 . S
C2502 H2514 0.956 . S
C2502 H2515 0.961 . S
C2502 H2516 0.961 . S
C2503 C2500 1.539 . S
C2503 H2517 0.958 . S
C2503 H2518 0.961 . S
C2503 H2519 0.960 . S
H2504 C2488 0.931 . S
H2505 C2493 0.929 . S
H2506 C2494 0.960 . S
H2507 C2494 0.962 . S
H2508 C2494 0.960 . S
H2509 C2495 0.961 . S
H2510 C2495 0.961 . S
H2511 C2495 0.961 . S
H2512 C2496 0.931 . S
H2513 C2501 0.930 . S
H2514 C2502 0.956 . S
H2515 C2502 0.961 . S
H2516 C2502 0.961 . S
H2517 C2503 0.958 . S
H2518 C2503 0.961 . S
H2519 C2503 0.960 . S
C2520 C2521 1.391 . S
C2520 C2522 1.394 . S
C2520 H2536 0.931 . S
C2521 C2520 1.391 . S
C2521 C2525 1.376 . S
C2522 C2520 1.394 . S
C2522 C2523 1.369 . S
C2522 C2526 1.531 . S
C2523 C2522 1.369 . S
C2523 C2524 1.410 . S
C2523 C2531 1.503 . S
C2524 C2523 1.410 . S
C2524 C2525 1.392 . S
C2524 C2527 1.511 . S
C2525 C2521 1.376 . S
C2525 C2524 1.392 . S
C2525 H2537 0.929 . S
C2526 C2522 1.531 . S
C2526 H2538 0.960 . S
C2526 H2539 0.962 . S
C2526 H2540 0.960 . S
C2527 C2524 1.511 . S
C2527 H2541 0.961 . S
C2527 H2542 0.961 . S
C2527 H2543 0.961 . S
C2528 C2529 1.370 . S
C2528 C2530 1.363 . S
C2528 H2544 0.931 . S
C2529 C2528 1.370 . S
C2529 C2533 1.408 . S
C2530 C2528 1.363 . S
C2530 C2531 1.370 . S
C2530 C2534 1.524 . S
C2531 C2523 1.503 . S
C2531 C2530 1.370 . S
C2531 C2532 1.403 . S
C2532 C2531 1.403 . S
C2532 C2533 1.404 . S
C2532 C2535 1.539 . S
C2533 C2529 1.408 . S
C2533 C2532 1.404 . S
C2533 H2545 0.930 . S
C2534 C2530 1.524 . S
C2534 H2546 0.956 . S
C2534 H2547 0.961 . S
C2534 H2548 0.961 . S
C2535 C2532 1.539 . S
C2535 H2549 0.958 . S
C2535 H2550 0.961 . S
C2535 H2551 0.960 . S
H2536 C2520 0.931 . S
H2537 C2525 0.929 . S
H2538 C2526 0.960 . S
H2539 C2526 0.962 . S
H2540 C2526 0.960 . S
H2541 C2527 0.961 . S
H2542 C2527 0.961 . S
H2543 C2527 0.961 . S
H2544 C2528 0.931 . S
H2545 C2533 0.930 . S
H2546 C2534 0.956 . S
H2547 C2534 0.961 . S
H2548 C2534 0.961 . S
H2549 C2535 0.958 . S
H2550 C2535 0.961 . S
H2551 C2535 0.960 . S
C2552 C2553 1.391 . S
C2552 C2554 1.394 . S
C2552 H2568 0.931 . S
C2553 C2552 1.391 . S
C2553 C2557 1.376 . S
C2554 C2552 1.394 . S
C2554 C2555 1.369 . S
C2554 C2558 1.531 . S
C2555 C2554 1.369 . S
C2555 C2556 1.410 . S
C2555 C2563 1.503 . S
C2556 C2555 1.410 . S
C2556 C2557 1.392 . S
C2556 C2559 1.511 . S
C2557 C2553 1.376 . S
C2557 C2556 1.392 . S
C2557 H2569 0.929 . S
C2558 C2554 1.531 . S
C2558 H2570 0.960 . S
C2558 H2571 0.962 . S
C2558 H2572 0.960 . S
C2559 C2556 1.511 . S
C2559 H2573 0.961 . S
C2559 H2574 0.961 . S
C2559 H2575 0.961 . S
C2560 C2561 1.370 . S
C2560 C2562 1.363 . S
C2560 H2576 0.931 . S
C2561 C2560 1.370 . S
C2561 C2565 1.408 . S
C2562 C2560 1.363 . S
C2562 C2563 1.370 . S
C2562 C2566 1.524 . S
C2563 C2555 1.503 . S
C2563 C2562 1.370 . S
C2563 C2564 1.403 . S
C2564 C2563 1.403 . S
C2564 C2565 1.404 . S
C2564 C2567 1.539 . S
C2565 C2561 1.408 . S
C2565 C2564 1.404 . S
C2565 H2577 0.930 . S
C2566 C2562 1.524 . S
C2566 H2578 0.956 . S
C2566 H2579 0.961 . S
C2566 H2580 0.961 . S
C2567 C2564 1.539 . S
C2567 H2581 0.958 . S
C2567 H2582 0.961 . S
C2567 H2583 0.960 . S
H2568 C2552 0.931 . S
H2569 C2557 0.929 . S
H2570 C2558 0.960 . S
H2571 C2558 0.962 . S
H2572 C2558 0.960 . S
H2573 C2559 0.961 . S
H2574 C2559 0.961 . S
H2575 C2559 0.961 . S
H2576 C2560 0.931 . S
H2577 C2565 0.930 . S
H2578 C2566 0.956 . S
H2579 C2566 0.961 . S
H2580 C2566 0.961 . S
H2581 C2567 0.958 . S
H2582 C2567 0.961 . S
H2583 C2567 0.960 . S
C2584 C2585 1.391 . S
C2584 C2586 1.394 . S
C2584 H2600 0.931 . S
C2585 C2584 1.391 . S
C2585 C2589 1.376 . S
C2586 C2584 1.394 . S
C2586 C2587 1.369 . S
C2586 C2590 1.531 . S
C2587 C2586 1.369 . S
C2587 C2588 1.410 . S
C2587 C2595 1.503 . S
C2588 C2587 1.410 . S
C2588 C2589 1.392 . S
C2588 C2591 1.511 . S
C2589 C2585 1.376 . S
C2589 C2588 1.392 . S
C2589 H2601 0.929 . S
C2590 C2586 1.531 . S
C2590 H2602 0.960 . S
C2590 H2603 0.962 . S
C2590 H2604 0.960 . S
C2591 C2588 1.511 . S
C2591 H2605 0.961 . S
C2591 H2606 0.961 . S
C2591 H2607 0.961 . S
C2592 C2593 1.370 . S
C2592 C2594 1.363 . S
C2592 H2608 0.931 . S
C2593 C2592 1.370 . S
C2593 C2597 1.408 . S
C2594 C2592 1.363 . S
C2594 C2595 1.370 . S
C2594 C2598 1.524 . S
C2595 C2587 1.503 . S
C2595 C2594 1.370 . S
C2595 C2596 1.403 . S
C2596 C2595 1.403 . S
C2596 C2597 1.404 . S
C2596 C2599 1.539 . S
C2597 C2593 1.408 . S
C2597 C2596 1.404 . S
C2597 H2609 0.930 . S
C2598 C2594 1.524 . S
C2598 H2610 0.956 . S
C2598 H2611 0.961 . S
C2598 H2612 0.961 . S
C2599 C2596 1.539 . S
C2599 H2613 0.958 . S
C2599 H2614 0.961 . S
C2599 H2615 0.960 . S
H2600 C2584 0.931 . S
H2601 C2589 0.929 . S
H2602 C2590 0.960 . S
H2603 C2590 0.962 . S
H2604 C2590 0.960 . S
H2605 C2591 0.961 . S
H2606 C2591 0.961 . S
H2607 C2591 0.961 . S
H2608 C2592 0.931 . S
H2609 C2597 0.930 . S
H2610 C2598 0.956 . S
H2611 C2598 0.961 . S
H2612 C2598 0.961 . S
H2613 C2599 0.958 . S
H2614 C2599 0.961 . S
H2615 C2599 0.960 . S
C2616 C2617 1.391 . S
C2616 C2618 1.394 . S
C2616 H2632 0.931 . S
C2617 C2616 1.391 . S
C2617 C2621 1.376 . S
C2618 C2616 1.394 . S
C2618 C2619 1.369 . S
C2618 C2622 1.531 . S
C2619 C2618 1.369 . S
C2619 C2620 1.410 . S
C2619 C2627 1.503 . S
C2620 C2619 1.410 . S
C2620 C2621 1.392 . S
C2620 C2623 1.511 . S
C2621 C2617 1.376 . S
C2621 C2620 1.392 . S
C2621 H2633 0.929 . S
C2622 C2618 1.531 . S
C2622 H2634 0.960 . S
C2622 H2635 0.962 . S
C2622 H2636 0.960 . S
C2623 C2620 1.511 . S
C2623 H2637 0.961 . S
C2623 H2638 0.961 . S
C2623 H2639 0.961 . S
C2624 C2625 1.370 . S
C2624 C2626 1.363 . S
C2624 H2640 0.931 . S
C2625 C2624 1.370 . S
C2625 C2629 1.408 . S
C2626 C2624 1.363 . S
C2626 C2627 1.370 . S
C2626 C2630 1.524 . S
C2627 C2619 1.503 . S
C2627 C2626 1.370 . S
C2627 C2628 1.403 . S
C2628 C2627 1.403 . S
C2628 C2629 1.404 . S
C2628 C2631 1.539 . S
C2629 C2625 1.408 . S
C2629 C2628 1.404 . S
C2629 H2641 0.930 . S
C2630 C2626 1.524 . S
C2630 H2642 0.956 . S
C2630 H2643 0.961 . S
C2630 H2644 0.961 . S
C2631 C2628 1.539 . S
C2631 H2645 0.958 . S
C2631 H2646 0.961 . S
C2631 H2647 0.960 . S
H2632 C2616 0.931 . S
H2633 C2621 0.929 . S
H2634 C2622 0.960 . S
H2635 C2622 0.962 . S
H2636 C2622 0.960 . S
H2637 C2623 0.961 . S
H2638 C2623 0.961 . S
H2639 C2623 0.961 . S
H2640 C2624 0.931 . S
H2641 C2629 0.930 . S
H2642 C2630 0.956 . S
H2643 C2630 0.961 . S
H2644 C2630 0.961 . S
H2645 C2631 0.958 . S
H2646 C2631 0.961 . S
H2647 C2631 0.960 . S
C2648 C2649 1.391 . S
C2648 C2650 1.394 . S
C2648 H2664 0.931 . S
C2649 C2648 1.391 . S
C2649 C2653 1.376 . S
C2650 C2648 1.394 . S
C2650 C2651 1.369 . S
C2650 C2654 1.531 . S
C2651 C2650 1.369 . S
C2651 C2652 1.410 . S
C2651 C2659 1.503 . S
C2652 C2651 1.410 . S
C2652 C2653 1.392 . S
C2652 C2655 1.511 . S
C2653 C2649 1.376 . S
C2653 C2652 1.392 . S
C2653 H2665 0.929 . S
C2654 C2650 1.531 . S
C2654 H2666 0.960 . S
C2654 H2667 0.962 . S
C2654 H2668 0.960 . S
C2655 C2652 1.511 . S
C2655 H2669 0.961 . S
C2655 H2670 0.961 . S
C2655 H2671 0.961 . S
C2656 C2657 1.370 . S
C2656 C2658 1.363 . S
C2656 H2672 0.931 . S
C2657 C2656 1.370 . S
C2657 C2661 1.408 . S
C2658 C2656 1.363 . S
C2658 C2659 1.370 . S
C2658 C2662 1.524 . S
C2659 C2651 1.503 . S
C2659 C2658 1.370 . S
C2659 C2660 1.403 . S
C2660 C2659 1.403 . S
C2660 C2661 1.404 . S
C2660 C2663 1.539 . S
C2661 C2657 1.408 . S
C2661 C2660 1.404 . S
C2661 H2673 0.930 . S
C2662 C2658 1.524 . S
C2662 H2674 0.956 . S
C2662 H2675 0.961 . S
C2662 H2676 0.961 . S
C2663 C2660 1.539 . S
C2663 H2677 0.958 . S
C2663 H2678 0.961 . S
C2663 H2679 0.960 . S
H2664 C2648 0.931 . S
H2665 C2653 0.929 . S
H2666 C2654 0.960 . S
H2667 C2654 0.962 . S
H2668 C2654 0.960 . S
H2669 C2655 0.961 . S
H2670 C2655 0.961 . S
H2671 C2655 0.961 . S
H2672 C2656 0.931 . S
H2673 C2661 0.930 . S
H2674 C2662 0.956 . S
H2675 C2662 0.961 . S
H2676 C2662 0.961 . S
H2677 C2663 0.958 . S
H2678 C2663 0.961 . S
H2679 C2663 0.960 . S
C2680 C2681 1.391 . S
C2680 C2682 1.394 . S
C2680 H2696 0.931 . S
C2681 C2680 1.391 . S
C2681 C2685 1.376 . S
C2682 C2680 1.394 . S
C2682 C2683 1.369 . S
C2682 C2686 1.531 . S
C2683 C2682 1.369 . S
C2683 C2684 1.410 . S
C2683 C2691 1.503 . S
C2684 C2683 1.410 . S
C2684 C2685 1.392 . S
C2684 C2687 1.511 . S
C2685 C2681 1.376 . S
C2685 C2684 1.392 . S
C2685 H2697 0.929 . S
C2686 C2682 1.531 . S
C2686 H2698 0.960 . S
C2686 H2699 0.962 . S
C2686 H2700 0.960 . S
C2687 C2684 1.511 . S
C2687 H2701 0.961 . S
C2687 H2702 0.961 . S
C2687 H2703 0.961 . S
C2688 C2689 1.370 . S
C2688 C2690 1.363 . S
C2688 H2704 0.931 . S
C2689 C2688 1.370 . S
C2689 C2693 1.408 . S
C2690 C2688 1.363 . S
C2690 C2691 1.370 . S
C2690 C2694 1.524 . S
C2691 C2683 1.503 . S
C2691 C2690 1.370 . S
C2691 C2692 1.403 . S
C2692 C2691 1.403 . S
C2692 C2693 1.404 . S
C2692 C2695 1.539 . S
C2693 C2689 1.408 . S
C2693 C2692 1.404 . S
C2693 H2705 0.930 . S
C2694 C2690 1.524 . S
C2694 H2706 0.956 . S
C2694 H2707 0.961 . S
C2694 H2708 0.961 . S
C2695 C2692 1.539 . S
C2695 H2709 0.958 . S
C2695 H2710 0.961 . S
C2695 H2711 0.960 . S
H2696 C2680 0.931 . S
H2697 C2685 0.929 . S
H2698 C2686 0.960 . S
H2699 C2686 0.962 . S
H2700 C2686 0.960 . S
H2701 C2687 0.961 . S
H2702 C2687 0.961 . S
H2703 C2687 0.961 . S
H2704 C2688 0.931 . S
H2705 C2693 0.930 . S
H2706 C2694 0.956 . S
H2707 C2694 0.961 . S
H2708 C2694 0.961 . S
H2709 C2695 0.958 . S
H2710 C2695 0.961 . S
H2711 C2695 0.960 . S
C2712 C2713 1.391 . S
C2712 C2714 1.394 . S
C2712 H2728 0.931 . S
C2713 C2712 1.391 . S
C2713 C2717 1.376 . S
C2714 C2712 1.394 . S
C2714 C2715 1.369 . S
C2714 C2718 1.531 . S
C2715 C2714 1.369 . S
C2715 C2716 1.410 . S
C2715 C2723 1.503 . S
C2716 C2715 1.410 . S
C2716 C2717 1.392 . S
C2716 C2719 1.511 . S
C2717 C2713 1.376 . S
C2717 C2716 1.392 . S
C2717 H2729 0.929 . S
C2718 C2714 1.531 . S
C2718 H2730 0.960 . S
C2718 H2731 0.962 . S
C2718 H2732 0.960 . S
C2719 C2716 1.511 . S
C2719 H2733 0.961 . S
C2719 H2734 0.961 . S
C2719 H2735 0.961 . S
C2720 C2721 1.370 . S
C2720 C2722 1.363 . S
C2720 H2736 0.931 . S
C2721 C2720 1.370 . S
C2721 C2725 1.408 . S
C2722 C2720 1.363 . S
C2722 C2723 1.370 . S
C2722 C2726 1.524 . S
C2723 C2715 1.503 . S
C2723 C2722 1.370 . S
C2723 C2724 1.403 . S
C2724 C2723 1.403 . S
C2724 C2725 1.404 . S
C2724 C2727 1.539 . S
C2725 C2721 1.408 . S
C2725 C2724 1.404 . S
C2725 H2737 0.930 . S
C2726 C2722 1.524 . S
C2726 H2738 0.956 . S
C2726 H2739 0.961 . S
C2726 H2740 0.961 . S
C2727 C2724 1.539 . S
C2727 H2741 0.958 . S
C2727 H2742 0.961 . S
C2727 H2743 0.960 . S
H2728 C2712 0.931 . S
H2729 C2717 0.929 . S
H2730 C2718 0.960 . S
H2731 C2718 0.962 . S
H2732 C2718 0.960 . S
H2733 C2719 0.961 . S
H2734 C2719 0.961 . S
H2735 C2719 0.961 . S
H2736 C2720 0.931 . S
H2737 C2725 0.930 . S
H2738 C2726 0.956 . S
H2739 C2726 0.961 . S
H2740 C2726 0.961 . S
H2741 C2727 0.958 . S
H2742 C2727 0.961 . S
H2743 C2727 0.960 . S
C2744 C2745 1.391 . S
C2744 C2746 1.394 . S
C2744 H2760 0.931 . S
C2745 C2744 1.391 . S
C2745 C2749 1.376 . S
C2746 C2744 1.394 . S
C2746 C2747 1.369 . S
C2746 C2750 1.531 . S
C2747 C2746 1.369 . S
C2747 C2748 1.410 . S
C2747 C2755 1.503 . S
C2748 C2747 1.410 . S
C2748 C2749 1.392 . S
C2748 C2751 1.511 . S
C2749 C2745 1.376 . S
C2749 C2748 1.392 . S
C2749 H2761 0.929 . S
C2750 C2746 1.531 . S
C2750 H2762 0.960 . S
C2750 H2763 0.962 . S
C2750 H2764 0.960 . S
C2751 C2748 1.511 . S
C2751 H2765 0.961 . S
C2751 H2766 0.961 . S
C2751 H2767 0.961 . S
C2752 C2753 1.370 . S
C2752 C2754 1.363 . S
C2752 H2768 0.931 . S
C2753 C2752 1.370 . S
C2753 C2757 1.408 . S
C2754 C2752 1.363 . S
C2754 C2755 1.370 . S
C2754 C2758 1.524 . S
C2755 C2747 1.503 . S
C2755 C2754 1.370 . S
C2755 C2756 1.403 . S
C2756 C2755 1.403 . S
C2756 C2757 1.404 . S
C2756 C2759 1.539 . S
C2757 C2753 1.408 . S
C2757 C2756 1.404 . S
C2757 H2769 0.930 . S
C2758 C2754 1.524 . S
C2758 H2770 0.956 . S
C2758 H2771 0.961 . S
C2758 H2772 0.961 . S
C2759 C2756 1.539 . S
C2759 H2773 0.958 . S
C2759 H2774 0.961 . S
C2759 H2775 0.960 . S
H2760 C2744 0.931 . S
H2761 C2749 0.929 . S
H2762 C2750 0.960 . S
H2763 C2750 0.962 . S
H2764 C2750 0.960 . S
H2765 C2751 0.961 . S
H2766 C2751 0.961 . S
H2767 C2751 0.961 . S
H2768 C2752 0.931 . S
H2769 C2757 0.930 . S
H2770 C2758 0.956 . S
H2771 C2758 0.961 . S
H2772 C2758 0.961 . S
H2773 C2759 0.958 . S
H2774 C2759 0.961 . S
H2775 C2759 0.960 . S
C2776 C2777 1.391 . S
C2776 C2778 1.394 . S
C2776 H2792 0.931 . S
C2777 C2776 1.391 . S
C2777 C2781 1.376 . S
C2778 C2776 1.394 . S
C2778 C2779 1.369 . S
C2778 C2782 1.531 1_565 S
C2779 C2778 1.369 . S
C2779 C2780 1.410 . S
C2779 C2787 1.503 . S
C2780 C2779 1.410 . S
C2780 C2781 1.392 . S
C2780 C2783 1.511 . S
C2781 C2777 1.376 . S
C2781 C2780 1.392 . S
C2781 H2793 0.929 . S
C2782 C2778 1.531 1_545 S
C2782 H2794 0.960 . S
C2782 H2795 0.962 . S
C2782 H2796 0.960 . S
C2783 C2780 1.511 . S
C2783 H2797 0.961 . S
C2783 H2798 0.961 . S
C2783 H2799 0.961 . S
C2784 C2785 1.370 1_566 S
C2784 C2786 1.359 1_556 S
C2784 H2800 0.931 . S
C2785 C2784 1.370 1_544 S
C2785 C2789 1.408 . S
C2786 C2784 1.359 1_554 S
C2786 C2787 1.386 . S
C2786 C2790 1.513 1_554 S
C2787 C2779 1.503 . S
C2787 C2786 1.386 . S
C2787 C2788 1.403 . S
C2788 C2787 1.403 . S
C2788 C2789 1.404 1_565 S
C2788 C2791 1.539 . S
C2789 C2785 1.408 . S
C2789 C2788 1.404 1_545 S
C2789 H2801 0.930 . S
C2790 C2786 1.513 1_556 S
C2790 H2802 0.956 . S
C2790 H2803 0.961 . S
C2790 H2804 0.961 . S
C2791 C2788 1.539 . S
C2791 H2805 0.958 1_565 S
C2791 H2806 0.961 . S
C2791 H2807 0.960 . S
H2792 C2776 0.931 . S
H2793 C2781 0.929 . S
H2794 C2782 0.960 . S
H2795 C2782 0.962 . S
H2796 C2782 0.960 . S
H2797 C2783 0.961 . S
H2798 C2783 0.961 . S
H2799 C2783 0.961 . S
H2800 C2784 0.931 . S
H2801 C2789 0.930 . S
H2802 C2790 0.956 . S
H2803 C2790 0.961 . S
H2804 C2790 0.961 . S
H2805 C2791 0.958 1_545 S
H2806 C2791 0.961 . S
H2807 C2791 0.960 . S
C2808 C2809 1.391 . S
C2808 C2810 1.394 . S
C2808 H2824 0.931 . S
C2809 C2808 1.391 . S
C2809 C2813 1.376 . S
C2810 C2808 1.394 . S
C2810 C2811 1.369 . S
C2810 C2814 1.531 . S
C2811 C2810 1.369 . S
C2811 C2812 1.410 . S
C2811 C2819 1.503 . S
C2812 C2811 1.410 . S
C2812 C2813 1.392 . S
C2812 C2815 1.511 . S
C2813 C2809 1.376 . S
C2813 C2812 1.392 . S
C2813 H2825 0.929 . S
C2814 C2810 1.531 . S
C2814 H2826 0.960 . S
C2814 H2827 0.962 . S
C2814 H2828 0.960 . S
C2815 C2812 1.511 . S
C2815 H2829 0.961 . S
C2815 H2830 0.961 . S
C2815 H2831 0.961 . S
C2816 C2817 1.370 . S
C2816 C2818 1.363 . S
C2816 H2832 0.931 . S
C2817 C2816 1.370 . S
C2817 C2821 1.408 . S
C2818 C2816 1.363 . S
C2818 C2819 1.370 . S
C2818 C2822 1.524 . S
C2819 C2811 1.503 . S
C2819 C2818 1.370 . S
C2819 C2820 1.403 . S
C2820 C2819 1.403 . S
C2820 C2821 1.404 . S
C2820 C2823 1.539 . S
C2821 C2817 1.408 . S
C2821 C2820 1.404 . S
C2821 H2833 0.930 . S
C2822 C2818 1.524 . S
C2822 H2834 0.956 . S
C2822 H2835 0.961 . S
C2822 H2836 0.961 . S
C2823 C2820 1.539 . S
C2823 H2837 0.958 . S
C2823 H2838 0.961 . S
C2823 H2839 0.960 . S
H2824 C2808 0.931 . S
H2825 C2813 0.929 . S
H2826 C2814 0.960 . S
H2827 C2814 0.962 . S
H2828 C2814 0.960 . S
H2829 C2815 0.961 . S
H2830 C2815 0.961 . S
H2831 C2815 0.961 . S
H2832 C2816 0.931 . S
H2833 C2821 0.930 . S
H2834 C2822 0.956 . S
H2835 C2822 0.961 . S
H2836 C2822 0.961 . S
H2837 C2823 0.958 . S
H2838 C2823 0.961 . S
H2839 C2823 0.960 . S
C2840 C2841 1.391 1_556 S
C2840 C2842 1.394 . S
C2840 H2856 0.931 . S
C2841 C2840 1.391 1_554 S
C2841 C2845 1.376 . S
C2842 C2840 1.394 . S
C2842 C2843 1.369 1_556 S
C2842 C2846 1.531 . S
C2843 C2842 1.369 1_554 S
C2843 C2844 1.410 . S
C2843 C2851 1.503 . S
C2844 C2843 1.410 . S
C2844 C2845 1.392 . S
C2844 C2847 1.511 . S
C2845 C2841 1.376 . S
C2845 C2844 1.392 . S
C2845 H2857 0.929 . S
C2846 C2842 1.531 . S
C2846 H2858 0.960 . S
C2846 H2859 0.962 . S
C2846 H2860 0.960 . S
C2847 C2844 1.511 . S
C2847 H2861 0.961 . S
C2847 H2862 0.961 . S
C2847 H2863 0.961 . S
C2848 C2849 1.370 . S
C2848 C2850 1.363 . S
C2848 H2864 0.931 . S
C2849 C2848 1.370 . S
C2849 C2853 1.408 . S
C2850 C2848 1.363 . S
C2850 C2851 1.370 . S
C2850 C2854 1.524 . S
C2851 C2843 1.503 . S
C2851 C2850 1.370 . S
C2851 C2852 1.403 . S
C2852 C2851 1.403 . S
C2852 C2853 1.404 . S
C2852 C2855 1.539 1_554 S
C2853 C2849 1.408 . S
C2853 C2852 1.404 . S
C2853 H2865 0.930 1_554 S
C2854 C2850 1.524 . S
C2854 H2866 0.956 . S
C2854 H2867 0.961 . S
C2854 H2868 0.961 . S
C2855 C2852 1.539 1_556 S
C2855 H2869 0.958 . S
C2855 H2870 0.961 . S
C2855 H2871 0.960 . S
H2856 C2840 0.931 . S
H2857 C2845 0.929 . S
H2858 C2846 0.960 . S
H2859 C2846 0.962 . S
H2860 C2846 0.960 . S
H2861 C2847 0.961 . S
H2862 C2847 0.961 . S
H2863 C2847 0.961 . S
H2864 C2848 0.931 . S
H2865 C2853 0.930 1_556 S
H2866 C2854 0.956 . S
H2867 C2854 0.961 . S
H2868 C2854 0.961 . S
H2869 C2855 0.958 . S
H2870 C2855 0.961 . S
H2871 C2855 0.960 . S
C2872 C2873 1.391 . S
C2872 C2874 1.394 . S
C2872 H2888 0.931 . S
C2873 C2872 1.391 . S
C2873 C2877 1.376 . S
C2874 C2872 1.394 . S
C2874 C2875 1.369 . S
C2874 C2878 1.531 . S
C2875 C2874 1.369 . S
C2875 C2876 1.410 . S
C2875 C2883 1.503 . S
C2876 C2875 1.410 . S
C2876 C2877 1.392 . S
C2876 C2879 1.511 . S
C2877 C2873 1.376 . S
C2877 C2876 1.392 . S
C2877 H2889 0.929 . S
C2878 C2874 1.531 . S
C2878 H2890 0.960 . S
C2878 H2891 0.962 . S
C2878 H2892 0.960 . S
C2879 C2876 1.511 . S
C2879 H2893 0.961 . S
C2879 H2894 0.961 . S
C2879 H2895 0.961 . S
C2880 C2881 1.370 . S
C2880 C2882 1.363 . S
C2880 H2896 0.931 . S
C2881 C2880 1.370 . S
C2881 C2885 1.408 . S
C2882 C2880 1.363 . S
C2882 C2883 1.370 . S
C2882 C2886 1.524 . S
C2883 C2875 1.503 . S
C2883 C2882 1.370 . S
C2883 C2884 1.403 . S
C2884 C2883 1.403 . S
C2884 C2885 1.404 . S
C2884 C2887 1.539 . S
C2885 C2881 1.408 . S
C2885 C2884 1.404 . S
C2885 H2897 0.930 . S
C2886 C2882 1.524 . S
C2886 H2898 0.956 . S
C2886 H2899 0.961 . S
C2886 H2900 0.961 . S
C2887 C2884 1.539 . S
C2887 H2901 0.958 . S
C2887 H2902 0.961 . S
C2887 H2903 0.960 . S
H2888 C2872 0.931 . S
H2889 C2877 0.929 . S
H2890 C2878 0.960 . S
H2891 C2878 0.962 . S
H2892 C2878 0.960 . S
H2893 C2879 0.961 . S
H2894 C2879 0.961 . S
H2895 C2879 0.961 . S
H2896 C2880 0.931 . S
H2897 C2885 0.930 . S
H2898 C2886 0.956 . S
H2899 C2886 0.961 . S
H2900 C2886 0.961 . S
H2901 C2887 0.958 . S
H2902 C2887 0.961 . S
H2903 C2887 0.960 . S
C2904 C2905 1.391 . S
C2904 C2906 1.394 . S
C2904 H2920 0.931 . S
C2905 C2904 1.391 . S
C2905 C2909 1.376 . S
C2906 C2904 1.394 . S
C2906 C2907 1.369 . S
C2906 C2910 1.531 . S
C2907 C2906 1.369 . S
C2907 C2908 1.410 . S
C2907 C2915 1.503 . S
C2908 C2907 1.410 . S
C2908 C2909 1.392 . S
C2908 C2911 1.511 . S
C2909 C2905 1.376 . S
C2909 C2908 1.392 . S
C2909 H2921 0.929 . S
C2910 C2906 1.531 . S
C2910 H2922 0.960 . S
C2910 H2923 0.962 . S
C2910 H2924 0.960 . S
C2911 C2908 1.511 . S
C2911 H2925 0.961 . S
C2911 H2926 0.961 . S
C2911 H2927 0.961 . S
C2912 C2913 1.370 . S
C2912 C2914 1.363 . S
C2912 H2928 0.931 . S
C2913 C2912 1.370 . S
C2913 C2917 1.408 . S
C2914 C2912 1.363 . S
C2914 C2915 1.370 . S
C2914 C2918 1.524 . S
C2915 C2907 1.503 . S
C2915 C2914 1.370 . S
C2915 C2916 1.403 . S
C2916 C2915 1.403 . S
C2916 C2917 1.404 . S
C2916 C2919 1.539 . S
C2917 C2913 1.408 . S
C2917 C2916 1.404 . S
C2917 H2929 0.930 . S
C2918 C2914 1.524 . S
C2918 H2930 0.956 . S
C2918 H2931 0.961 . S
C2918 H2932 0.961 . S
C2919 C2916 1.539 . S
C2919 H2933 0.958 . S
C2919 H2934 0.961 . S
C2919 H2935 0.960 . S
H2920 C2904 0.931 . S
H2921 C2909 0.929 . S
H2922 C2910 0.960 . S
H2923 C2910 0.962 . S
H2924 C2910 0.960 . S
H2925 C2911 0.961 . S
H2926 C2911 0.961 . S
H2927 C2911 0.961 . S
H2928 C2912 0.931 . S
H2929 C2917 0.930 . S
H2930 C2918 0.956 . S
H2931 C2918 0.961 . S
H2932 C2918 0.961 . S
H2933 C2919 0.958 . S
H2934 C2919 0.961 . S
H2935 C2919 0.960 . S
C2936 C2937 1.391 . S
C2936 C2938 1.394 . S
C2936 H2952 0.931 . S
C2937 C2936 1.391 . S
C2937 C2941 1.376 . S
C2938 C2936 1.394 . S
C2938 C2939 1.369 . S
C2938 C2942 1.531 . S
C2939 C2938 1.369 . S
C2939 C2940 1.410 . S
C2939 C2947 1.503 . S
C2940 C2939 1.410 . S
C2940 C2941 1.392 . S
C2940 C2943 1.511 . S
C2941 C2937 1.376 . S
C2941 C2940 1.392 . S
C2941 H2953 0.929 . S
C2942 C2938 1.531 . S
C2942 H2954 0.960 . S
C2942 H2955 0.962 . S
C2942 H2956 0.960 . S
C2943 C2940 1.511 . S
C2943 H2957 0.961 . S
C2943 H2958 0.961 . S
C2943 H2959 0.961 . S
C2944 C2945 1.370 . S
C2944 C2946 1.363 . S
C2944 H2960 0.931 . S
C2945 C2944 1.370 . S
C2945 C2949 1.408 . S
C2946 C2944 1.363 . S
C2946 C2947 1.370 . S
C2946 C2950 1.524 . S
C2947 C2939 1.503 . S
C2947 C2946 1.370 . S
C2947 C2948 1.403 . S
C2948 C2947 1.403 . S
C2948 C2949 1.404 . S
C2948 C2951 1.539 . S
C2949 C2945 1.408 . S
C2949 C2948 1.404 . S
C2949 H2961 0.930 . S
C2950 C2946 1.524 . S
C2950 H2962 0.956 . S
C2950 H2963 0.961 . S
C2950 H2964 0.961 . S
C2951 C2948 1.539 . S
C2951 H2965 0.958 . S
C2951 H2966 0.961 . S
C2951 H2967 0.960 . S
H2952 C2936 0.931 . S
H2953 C2941 0.929 . S
H2954 C2942 0.960 . S
H2955 C2942 0.962 . S
H2956 C2942 0.960 . S
H2957 C2943 0.961 . S
H2958 C2943 0.961 . S
H2959 C2943 0.961 . S
H2960 C2944 0.931 . S
H2961 C2949 0.930 . S
H2962 C2950 0.956 . S
H2963 C2950 0.961 . S
H2964 C2950 0.961 . S
H2965 C2951 0.958 . S
H2966 C2951 0.961 . S
H2967 C2951 0.960 . S
C2968 C2969 1.391 . S
C2968 C2970 1.394 . S
C2968 H2984 0.931 . S
C2969 C2968 1.391 . S
C2969 C2973 1.376 . S
C2970 C2968 1.394 . S
C2970 C2971 1.369 . S
C2970 C2974 1.531 . S
C2971 C2970 1.369 . S
C2971 C2972 1.410 . S
C2971 C2979 1.503 . S
C2972 C2971 1.410 . S
C2972 C2973 1.392 . S
C2972 C2975 1.511 . S
C2973 C2969 1.376 . S
C2973 C2972 1.392 . S
C2973 H2985 0.929 . S
C2974 C2970 1.531 . S
C2974 H2986 0.960 . S
C2974 H2987 0.962 . S
C2974 H2988 0.960 . S
C2975 C2972 1.511 . S
C2975 H2989 0.961 . S
C2975 H2990 0.961 . S
C2975 H2991 0.961 . S
C2976 C2977 1.370 . S
C2976 C2978 1.363 . S
C2976 H2992 0.931 . S
C2977 C2976 1.370 . S
C2977 C2981 1.408 . S
C2978 C2976 1.363 . S
C2978 C2979 1.370 . S
C2978 C2982 1.524 . S
C2979 C2971 1.503 . S
C2979 C2978 1.370 . S
C2979 C2980 1.403 . S
C2980 C2979 1.403 . S
C2980 C2981 1.404 . S
C2980 C2983 1.539 . S
C2981 C2977 1.408 . S
C2981 C2980 1.404 . S
C2981 H2993 0.930 . S
C2982 C2978 1.524 . S
C2982 H2994 0.956 . S
C2982 H2995 0.961 . S
C2982 H2996 0.961 . S
C2983 C2980 1.539 . S
C2983 H2997 0.958 . S
C2983 H2998 0.961 . S
C2983 H2999 0.960 . S
H2984 C2968 0.931 . S
H2985 C2973 0.929 . S
H2986 C2974 0.960 . S
H2987 C2974 0.962 . S
H2988 C2974 0.960 . S
H2989 C2975 0.961 . S
H2990 C2975 0.961 . S
H2991 C2975 0.961 . S
H2992 C2976 0.931 . S
H2993 C2981 0.930 . S
H2994 C2982 0.956 . S
H2995 C2982 0.961 . S
H2996 C2982 0.961 . S
H2997 C2983 0.958 . S
H2998 C2983 0.961 . S
H2999 C2983 0.960 . S
C3000 C3001 1.391 . S
C3000 C3002 1.394 . S
C3000 H3016 0.931 . S
C3001 C3000 1.391 . S
C3001 C3005 1.376 . S
C3002 C3000 1.394 . S
C3002 C3003 1.369 . S
C3002 C3006 1.531 . S
C3003 C3002 1.369 . S
C3003 C3004 1.410 . S
C3003 C3011 1.503 . S
C3004 C3003 1.410 . S
C3004 C3005 1.392 . S
C3004 C3007 1.511 1_455 S
C3005 C3001 1.376 . S
C3005 C3004 1.392 . S
C3005 H3017 0.929 . S
C3006 C3002 1.531 . S
C3006 H3018 0.960 . S
C3006 H3019 0.962 . S
C3006 H3020 0.960 . S
C3007 C3004 1.511 1_655 S
C3007 H3021 0.961 . S
C3007 H3022 0.961 . S
C3007 H3023 0.961 1_655 S
C3008 C3009 1.370 . S
C3008 C3010 1.363 . S
C3008 H3024 0.931 1_455 S
C3009 C3008 1.370 . S
C3009 C3013 1.408 . S
C3010 C3008 1.363 . S
C3010 C3011 1.370 . S
C3010 C3014 1.524 1_455 S
C3011 C3003 1.503 . S
C3011 C3010 1.370 . S
C3011 C3012 1.403 . S
C3012 C3011 1.403 . S
C3012 C3013 1.404 . S
C3012 C3015 1.539 . S
C3013 C3009 1.408 . S
C3013 C3012 1.404 . S
C3013 H3025 0.930 . S
C3014 C3010 1.524 1_655 S
C3014 H3026 0.956 . S
C3014 H3027 0.961 . S
C3014 H3028 0.961 . S
C3015 C3012 1.539 . S
C3015 H3029 0.958 . S
C3015 H3030 0.961 . S
C3015 H3031 0.960 . S
H3016 C3000 0.931 . S
H3017 C3005 0.929 . S
H3018 C3006 0.960 . S
H3019 C3006 0.962 . S
H3020 C3006 0.960 . S
H3021 C3007 0.961 . S
H3022 C3007 0.961 . S
H3023 C3007 0.961 1_455 S
H3024 C3008 0.931 1_655 S
H3025 C3013 0.930 . S
H3026 C3014 0.956 . S
H3027 C3014 0.961 . S
H3028 C3014 0.961 . S
H3029 C3015 0.958 . S
H3030 C3015 0.961 . S
H3031 C3015 0.960 . S
C3032 C3033 1.391 . S
C3032 C3034 1.394 . S
C3032 H3048 0.931 . S
C3033 C3032 1.391 . S
C3033 C3037 1.376 . S
C3034 C3032 1.394 . S
C3034 C3035 1.369 . S
C3034 C3038 1.531 . S
C3035 C3034 1.369 . S
C3035 C3036 1.410 . S
C3035 C3043 1.503 . S
C3036 C3035 1.410 . S
C3036 C3037 1.392 . S
C3036 C3039 1.511 . S
C3037 C3033 1.376 . S
C3037 C3036 1.392 . S
C3037 H3049 0.929 . S
C3038 C3034 1.531 . S
C3038 H3050 0.960 . S
C3038 H3051 0.962 . S
C3038 H3052 0.960 . S
C3039 C3036 1.511 . S
C3039 H3053 0.961 . S
C3039 H3054 0.961 . S
C3039 H3055 0.961 . S
C3040 C3041 1.370 . S
C3040 C3042 1.363 . S
C3040 H3056 0.931 . S
C3041 C3040 1.370 . S
C3041 C3045 1.408 . S
C3042 C3040 1.363 . S
C3042 C3043 1.370 . S
C3042 C3046 1.524 . S
C3043 C3035 1.503 . S
C3043 C3042 1.370 . S
C3043 C3044 1.403 . S
C3044 C3043 1.403 . S
C3044 C3045 1.404 . S
C3044 C3047 1.539 . S
C3045 C3041 1.408 . S
C3045 C3044 1.404 . S
C3045 H3057 0.930 . S
C3046 C3042 1.524 . S
C3046 H3058 0.956 . S
C3046 H3059 0.961 . S
C3046 H3060 0.961 . S
C3047 C3044 1.539 . S
C3047 H3061 0.958 . S
C3047 H3062 0.961 . S
C3047 H3063 0.960 . S
H3048 C3032 0.931 . S
H3049 C3037 0.929 . S
H3050 C3038 0.960 . S
H3051 C3038 0.962 . S
H3052 C3038 0.960 . S
H3053 C3039 0.961 . S
H3054 C3039 0.961 . S
H3055 C3039 0.961 . S
H3056 C3040 0.931 . S
H3057 C3045 0.930 . S
H3058 C3046 0.956 . S
H3059 C3046 0.961 . S
H3060 C3046 0.961 . S
H3061 C3047 0.958 . S
H3062 C3047 0.961 . S
H3063 C3047 0.960 . S
C3064 C3065 1.391 . S
C3064 C3066 1.394 . S
C3064 H3080 0.931 . S
C3065 C3064 1.391 . S
C3065 C3069 1.376 . S
C3066 C3064 1.394 . S
C3066 C3067 1.369 . S
C3066 C3070 1.531 . S
C3067 C3066 1.369 . S
C3067 C3068 1.410 . S
C3067 C3075 1.503 . S
C3068 C3067 1.410 . S
C3068 C3069 1.392 . S
C3068 C3071 1.511 . S
C3069 C3065 1.376 . S
C3069 C3068 1.392 . S
C3069 H3081 0.929 . S
C3070 C3066 1.531 . S
C3070 H3082 0.960 . S
C3070 H3083 0.962 . S
C3070 H3084 0.960 . S
C3071 C3068 1.511 . S
C3071 H3085 0.961 . S
C3071 H3086 0.961 . S
C3071 H3087 0.961 . S
C3072 C3073 1.370 . S
C3072 C3074 1.363 . S
C3072 H3088 0.931 . S
C3073 C3072 1.370 . S
C3073 C3077 1.408 1_556 S
C3074 C3072 1.363 . S
C3074 C3075 1.370 . S
C3074 C3078 1.524 . S
C3075 C3067 1.503 . S
C3075 C3074 1.370 . S
C3075 C3076 1.403 . S
C3076 C3075 1.403 . S
C3076 C3077 1.404 1_556 S
C3076 C3079 1.539 1_556 S
C3077 C3073 1.408 1_554 S
C3077 C3076 1.404 1_554 S
C3077 H3089 0.930 . S
C3078 C3074 1.524 . S
C3078 H3090 0.956 . S
C3078 H3091 0.961 . S
C3078 H3092 0.961 . S
C3079 C3076 1.539 1_554 S
C3079 H3093 0.958 . S
C3079 H3094 0.961 . S
C3079 H3095 0.947 1_554 S
H3080 C3064 0.931 . S
H3081 C3069 0.929 . S
H3082 C3070 0.960 . S
H3083 C3070 0.962 . S
H3084 C3070 0.960 . S
H3085 C3071 0.961 . S
H3086 C3071 0.961 . S
H3087 C3071 0.961 . S
H3088 C3072 0.931 . S
H3089 C3077 0.930 . S
H3090 C3078 0.956 . S
H3091 C3078 0.961 . S
H3092 C3078 0.961 . S
H3093 C3079 0.958 . S
H3094 C3079 0.961 . S
H3095 C3079 0.947 1_556 S
C3096 C3097 1.391 . S
C3096 C3098 1.394 . S
C3096 H3112 0.931 . S
C3097 C3096 1.391 . S
C3097 C3101 1.376 . S
C3098 C3096 1.394 . S
C3098 C3099 1.369 . S
C3098 C3102 1.531 . S
C3099 C3098 1.369 . S
C3099 C3100 1.410 . S
C3099 C3107 1.503 . S
C3100 C3099 1.410 . S
C3100 C3101 1.392 . S
C3100 C3103 1.511 . S
C3101 C3097 1.376 . S
C3101 C3100 1.392 . S
C3101 H3113 0.929 . S
C3102 C3098 1.531 . S
C3102 H3114 0.960 . S
C3102 H3115 0.962 . S
C3102 H3116 0.960 . S
C3103 C3100 1.511 . S
C3103 H3117 0.961 . S
C3103 H3118 0.961 . S
C3103 H3119 0.961 . S
C3104 C3105 1.370 . S
C3104 C3106 1.363 . S
C3104 H3120 0.931 . S
C3105 C3104 1.370 . S
C3105 C3109 1.408 . S
C3106 C3104 1.363 . S
C3106 C3107 1.370 . S
C3106 C3110 1.524 . S
C3107 C3099 1.503 . S
C3107 C3106 1.370 . S
C3107 C3108 1.403 . S
C3108 C3107 1.403 . S
C3108 C3109 1.404 . S
C3108 C3111 1.539 . S
C3109 C3105 1.408 . S
C3109 C3108 1.404 . S
C3109 H3121 0.930 . S
C3110 C3106 1.524 . S
C3110 H3122 0.956 . S
C3110 H3123 0.961 . S
C3110 H3124 0.961 . S
C3111 C3108 1.539 . S
C3111 H3125 0.958 . S
C3111 H3126 0.961 . S
C3111 H3127 0.960 . S
H3112 C3096 0.931 . S
H3113 C3101 0.929 . S
H3114 C3102 0.960 . S
H3115 C3102 0.962 . S
H3116 C3102 0.960 . S
H3117 C3103 0.961 . S
H3118 C3103 0.961 . S
H3119 C3103 0.961 . S
H3120 C3104 0.931 . S
H3121 C3109 0.930 . S
H3122 C3110 0.956 . S
H3123 C3110 0.961 . S
H3124 C3110 0.961 . S
H3125 C3111 0.958 . S
H3126 C3111 0.961 . S
H3127 C3111 0.960 . S
C3128 C3129 1.391 . S
C3128 C3130 1.394 . S
C3128 H3144 0.931 . S
C3129 C3128 1.391 . S
C3129 C3133 1.376 . S
C3130 C3128 1.394 . S
C3130 C3131 1.369 . S
C3130 C3134 1.531 . S
C3131 C3130 1.369 . S
C3131 C3132 1.410 . S
C3131 C3139 1.503 . S
C3132 C3131 1.410 . S
C3132 C3133 1.392 . S
C3132 C3135 1.515 . S
C3133 C3129 1.376 . S
C3133 C3132 1.392 . S
C3133 H3145 0.929 . S
C3134 C3130 1.531 . S
C3134 H3146 0.960 . S
C3134 H3147 0.962 . S
C3134 H3148 0.960 . S
C3135 C3132 1.515 . S
C3135 H3149 0.962 . S
C3135 H3150 0.963 . S
C3135 H3151 0.954 1_455 S
C3136 C3137 1.370 . S
C3136 C3138 1.363 . S
C3136 H3152 0.931 . S
C3137 C3136 1.370 . S
C3137 C3141 1.408 . S
C3138 C3136 1.363 . S
C3138 C3139 1.370 . S
C3138 C3142 1.524 . S
C3139 C3131 1.503 . S
C3139 C3138 1.370 . S
C3139 C3140 1.403 . S
C3140 C3139 1.403 . S
C3140 C3141 1.404 . S
C3140 C3143 1.539 1_455 S
C3141 C3137 1.408 . S
C3141 C3140 1.404 . S
C3141 H3153 0.930 1_455 S
C3142 C3138 1.524 . S
C3142 H3154 0.956 . S
C3142 H3155 0.961 . S
C3142 H3156 0.961 . S
C3143 C3140 1.539 1_655 S
C3143 H3157 0.958 . S
C3143 H3158 0.961 . S
C3143 H3159 0.960 . S
H3144 C3128 0.931 . S
H3145 C3133 0.929 . S
H3146 C3134 0.960 . S
H3147 C3134 0.962 . S
H3148 C3134 0.960 . S
H3149 C3135 0.962 . S
H3150 C3135 0.963 . S
H3151 C3135 0.954 1_655 S
H3152 C3136 0.931 . S
H3153 C3141 0.930 1_655 S
H3154 C3142 0.956 . S
H3155 C3142 0.961 . S
H3156 C3142 0.961 . S
H3157 C3143 0.958 . S
H3158 C3143 0.961 . S
H3159 C3143 0.960 . S
C3160 C3161 1.391 . S
C3160 C3162 1.394 . S
C3160 H3176 0.931 . S
C3161 C3160 1.391 . S
C3161 C3165 1.376 . S
C3162 C3160 1.394 . S
C3162 C3163 1.369 . S
C3162 C3166 1.531 . S
C3163 C3162 1.369 . S
C3163 C3164 1.410 . S
C3163 C3171 1.503 . S
C3164 C3163 1.410 . S
C3164 C3165 1.392 . S
C3164 C3167 1.511 . S
C3165 C3161 1.376 . S
C3165 C3164 1.392 . S
C3165 H3177 0.929 . S
C3166 C3162 1.531 . S
C3166 H3178 0.960 . S
C3166 H3179 0.962 . S
C3166 H3180 0.960 . S
C3167 C3164 1.511 . S
C3167 H3181 0.961 . S
C3167 H3182 0.961 . S
C3167 H3183 0.961 . S
C3168 C3169 1.370 . S
C3168 C3170 1.363 . S
C3168 H3184 0.931 . S
C3169 C3168 1.370 . S
C3169 C3173 1.408 . S
C3170 C3168 1.363 . S
C3170 C3171 1.370 . S
C3170 C3174 1.524 . S
C3171 C3163 1.503 . S
C3171 C3170 1.370 . S
C3171 C3172 1.403 . S
C3172 C3171 1.403 . S
C3172 C3173 1.404 . S
C3172 C3175 1.539 . S
C3173 C3169 1.408 . S
C3173 C3172 1.404 . S
C3173 H3185 0.930 . S
C3174 C3170 1.524 . S
C3174 H3186 0.956 . S
C3174 H3187 0.961 . S
C3174 H3188 0.961 . S
C3175 C3172 1.539 . S
C3175 H3189 0.958 . S
C3175 H3190 0.961 . S
C3175 H3191 0.960 . S
H3176 C3160 0.931 . S
H3177 C3165 0.929 . S
H3178 C3166 0.960 . S
H3179 C3166 0.962 . S
H3180 C3166 0.960 . S
H3181 C3167 0.961 . S
H3182 C3167 0.961 . S
H3183 C3167 0.961 . S
H3184 C3168 0.931 . S
H3185 C3173 0.930 . S
H3186 C3174 0.956 . S
H3187 C3174 0.961 . S
H3188 C3174 0.961 . S
H3189 C3175 0.958 . S
H3190 C3175 0.961 . S
H3191 C3175 0.960 . S
C3192 C3193 1.391 . S
C3192 C3194 1.394 . S
C3192 H3208 0.931 . S
C3193 C3192 1.391 . S
C3193 C3197 1.376 . S
C3194 C3192 1.394 . S
C3194 C3195 1.369 . S
C3194 C3198 1.531 . S
C3195 C3194 1.369 . S
C3195 C3196 1.410 . S
C3195 C3203 1.503 . S
C3196 C3195 1.410 . S
C3196 C3197 1.392 . S
C3196 C3199 1.511 . S
C3197 C3193 1.376 . S
C3197 C3196 1.392 . S
C3197 H3209 0.929 . S
C3198 C3194 1.531 . S
C3198 H3210 0.960 . S
C3198 H3211 0.962 . S
C3198 H3212 0.960 . S
C3199 C3196 1.511 . S
C3199 H3213 0.961 . S
C3199 H3214 0.961 . S
C3199 H3215 0.961 . S
C3200 C3201 1.370 . S
C3200 C3202 1.363 . S
C3200 H3216 0.931 . S
C3201 C3200 1.370 . S
C3201 C3205 1.408 . S
C3202 C3200 1.363 . S
C3202 C3203 1.370 . S
C3202 C3206 1.524 . S
C3203 C3195 1.503 . S
C3203 C3202 1.370 . S
C3203 C3204 1.403 . S
C3204 C3203 1.403 . S
C3204 C3205 1.404 . S
C3204 C3207 1.539 . S
C3205 C3201 1.408 . S
C3205 C3204 1.404 . S
C3205 H3217 0.930 . S
C3206 C3202 1.524 . S
C3206 H3218 0.956 . S
C3206 H3219 0.961 . S
C3206 H3220 0.961 . S
C3207 C3204 1.539 . S
C3207 H3221 0.958 . S
C3207 H3222 0.961 . S
C3207 H3223 0.960 . S
H3208 C3192 0.931 . S
H3209 C3197 0.929 . S
H3210 C3198 0.960 . S
H3211 C3198 0.962 . S
H3212 C3198 0.960 . S
H3213 C3199 0.961 . S
H3214 C3199 0.961 . S
H3215 C3199 0.961 . S
H3216 C3200 0.931 . S
H3217 C3205 0.930 . S
H3218 C3206 0.956 . S
H3219 C3206 0.961 . S
H3220 C3206 0.961 . S
H3221 C3207 0.958 . S
H3222 C3207 0.961 . S
H3223 C3207 0.960 . S
C3224 C3225 1.391 . S
C3224 C3226 1.394 . S
C3224 H3240 0.931 . S
C3225 C3224 1.391 . S
C3225 C3229 1.376 . S
C3226 C3224 1.394 . S
C3226 C3227 1.369 . S
C3226 C3230 1.531 . S
C3227 C3226 1.369 . S
C3227 C3228 1.410 . S
C3227 C3235 1.503 . S
C3228 C3227 1.410 . S
C3228 C3229 1.392 . S
C3228 C3231 1.511 . S
C3229 C3225 1.376 . S
C3229 C3228 1.392 . S
C3229 H3241 0.929 . S
C3230 C3226 1.531 . S
C3230 H3242 0.960 . S
C3230 H3243 0.962 . S
C3230 H3244 0.960 . S
C3231 C3228 1.511 . S
C3231 H3245 0.961 . S
C3231 H3246 0.961 . S
C3231 H3247 0.961 . S
C3232 C3233 1.370 . S
C3232 C3234 1.363 . S
C3232 H3248 0.931 . S
C3233 C3232 1.370 . S
C3233 C3237 1.408 . S
C3234 C3232 1.363 . S
C3234 C3235 1.370 . S
C3234 C3238 1.524 . S
C3235 C3227 1.503 . S
C3235 C3234 1.370 . S
C3235 C3236 1.403 . S
C3236 C3235 1.403 . S
C3236 C3237 1.404 . S
C3236 C3239 1.539 . S
C3237 C3233 1.408 . S
C3237 C3236 1.404 . S
C3237 H3249 0.930 . S
C3238 C3234 1.524 . S
C3238 H3250 0.956 . S
C3238 H3251 0.961 . S
C3238 H3252 0.961 . S
C3239 C3236 1.539 . S
C3239 H3253 0.958 . S
C3239 H3254 0.961 . S
C3239 H3255 0.960 . S
H3240 C3224 0.931 . S
H3241 C3229 0.929 . S
H3242 C3230 0.960 . S
H3243 C3230 0.962 . S
H3244 C3230 0.960 . S
H3245 C3231 0.961 . S
H3246 C3231 0.961 . S
H3247 C3231 0.961 . S
H3248 C3232 0.931 . S
H3249 C3237 0.930 . S
H3250 C3238 0.956 . S
H3251 C3238 0.961 . S
H3252 C3238 0.961 . S
H3253 C3239 0.958 . S
H3254 C3239 0.961 . S
H3255 C3239 0.960 . S
C3256 C3257 1.391 . S
C3256 C3258 1.394 . S
C3256 H3272 0.931 . S
C3257 C3256 1.391 . S
C3257 C3261 1.376 . S
C3258 C3256 1.394 . S
C3258 C3259 1.369 . S
C3258 C3262 1.531 . S
C3259 C3258 1.369 . S
C3259 C3260 1.410 . S
C3259 C3267 1.503 . S
C3260 C3259 1.410 . S
C3260 C3261 1.392 . S
C3260 C3263 1.511 . S
C3261 C3257 1.376 . S
C3261 C3260 1.392 . S
C3261 H3273 0.929 . S
C3262 C3258 1.531 . S
C3262 H3274 0.960 . S
C3262 H3275 0.962 1_655 S
C3262 H3276 0.960 . S
C3263 C3260 1.511 . S
C3263 H3277 0.961 . S
C3263 H3278 0.961 . S
C3263 H3279 0.961 . S
C3264 C3265 1.370 . S
C3264 C3266 1.363 . S
C3264 H3280 0.931 1_655 S
C3265 C3264 1.370 . S
C3265 C3269 1.408 . S
C3266 C3264 1.363 . S
C3266 C3267 1.370 . S
C3266 C3270 1.524 . S
C3267 C3259 1.503 . S
C3267 C3266 1.370 . S
C3267 C3268 1.403 . S
C3268 C3267 1.403 . S
C3268 C3269 1.404 . S
C3268 C3271 1.539 . S
C3269 C3265 1.408 . S
C3269 C3268 1.404 . S
C3269 H3281 0.930 . S
C3270 C3266 1.524 . S
C3270 H3282 0.956 . S
C3270 H3283 0.961 . S
C3270 H3284 0.961 . S
C3271 C3268 1.539 . S
C3271 H3285 0.958 . S
C3271 H3286 0.961 . S
C3271 H3287 0.960 . S
H3272 C3256 0.931 . S
H3273 C3261 0.929 . S
H3274 C3262 0.960 . S
H3275 C3262 0.962 1_455 S
H3276 C3262 0.960 . S
H3277 C3263 0.961 . S
H3278 C3263 0.961 . S
H3279 C3263 0.961 . S
H3280 C3264 0.931 1_455 S
H3281 C3269 0.930 . S
H3282 C3270 0.956 . S
H3283 C3270 0.961 . S
H3284 C3270 0.961 . S
H3285 C3271 0.958 . S
H3286 C3271 0.961 . S
H3287 C3271 0.960 . S
C3288 C3289 1.391 . S
C3288 C3290 1.394 . S
C3288 H3304 0.931 . S
C3289 C3288 1.391 . S
C3289 C3293 1.376 . S
C3290 C3288 1.394 . S
C3290 C3291 1.369 . S
C3290 C3294 1.531 . S
C3291 C3290 1.369 . S
C3291 C3292 1.410 . S
C3291 C3299 1.503 . S
C3292 C3291 1.410 . S
C3292 C3293 1.392 . S
C3292 C3295 1.511 . S
C3293 C3289 1.376 . S
C3293 C3292 1.392 . S
C3293 H3305 0.929 . S
C3294 C3290 1.531 . S
C3294 H3306 0.960 . S
C3294 H3307 0.962 . S
C3294 H3308 0.960 . S
C3295 C3292 1.511 . S
C3295 H3309 0.961 . S
C3295 H3310 0.961 . S
C3295 H3311 0.961 . S
C3296 C3297 1.370 . S
C3296 C3298 1.363 . S
C3296 H3312 0.931 . S
C3297 C3296 1.370 . S
C3297 C3301 1.408 . S
C3298 C3296 1.363 . S
C3298 C3299 1.370 . S
C3298 C3302 1.524 . S
C3299 C3291 1.503 . S
C3299 C3298 1.370 . S
C3299 C3300 1.403 . S
C3300 C3299 1.403 . S
C3300 C3301 1.404 . S
C3300 C3303 1.539 . S
C3301 C3297 1.408 . S
C3301 C3300 1.404 . S
C3301 H3313 0.930 . S
C3302 C3298 1.524 . S
C3302 H3314 0.956 . S
C3302 H3315 0.961 . S
C3302 H3316 0.961 . S
C3303 C3300 1.539 . S
C3303 H3317 0.958 . S
C3303 H3318 0.961 . S
C3303 H3319 0.960 . S
H3304 C3288 0.931 . S
H3305 C3293 0.929 . S
H3306 C3294 0.960 . S
H3307 C3294 0.962 . S
H3308 C3294 0.960 . S
H3309 C3295 0.961 . S
H3310 C3295 0.961 . S
H3311 C3295 0.961 . S
H3312 C3296 0.931 . S
H3313 C3301 0.930 . S
H3314 C3302 0.956 . S
H3315 C3302 0.961 . S
H3316 C3302 0.961 . S
H3317 C3303 0.958 . S
H3318 C3303 0.961 . S
H3319 C3303 0.960 . S
C3320 C3321 1.391 . S
C3320 C3322 1.394 . S
C3320 H3336 0.931 . S
C3321 C3320 1.391 . S
C3321 C3325 1.376 . S
C3322 C3320 1.394 . S
C3322 C3323 1.369 . S
C3322 C3326 1.531 . S
C3323 C3322 1.369 . S
C3323 C3324 1.410 . S
C3323 C3331 1.503 . S
C3324 C3323 1.410 . S
C3324 C3325 1.392 . S
C3324 C3327 1.511 . S
C3325 C3321 1.376 . S
C3325 C3324 1.392 . S
C3325 H3337 0.929 . S
C3326 C3322 1.531 . S
C3326 H3338 0.960 . S
C3326 H3339 0.962 . S
C3326 H3340 0.960 . S
C3327 C3324 1.511 . S
C3327 H3341 0.961 . S
C3327 H3342 0.961 . S
C3327 H3343 0.961 . S
C3328 C3329 1.370 . S
C3328 C3330 1.363 . S
C3328 H3344 0.931 . S
C3329 C3328 1.370 . S
C3329 C3333 1.408 . S
C3330 C3328 1.363 . S
C3330 C3331 1.370 . S
C3330 C3334 1.524 . S
C3331 C3323 1.503 . S
C3331 C3330 1.370 . S
C3331 C3332 1.403 . S
C3332 C3331 1.403 . S
C3332 C3333 1.404 . S
C3332 C3335 1.539 . S
C3333 C3329 1.408 . S
C3333 C3332 1.404 . S
C3333 H3345 0.930 . S
C3334 C3330 1.524 . S
C3334 H3346 0.956 . S
C3334 H3347 0.961 . S
C3334 H3348 0.961 . S
C3335 C3332 1.539 . S
C3335 H3349 0.958 . S
C3335 H3350 0.961 . S
C3335 H3351 0.960 . S
H3336 C3320 0.931 . S
H3337 C3325 0.929 . S
H3338 C3326 0.960 . S
H3339 C3326 0.962 . S
H3340 C3326 0.960 . S
H3341 C3327 0.961 . S
H3342 C3327 0.961 . S
H3343 C3327 0.961 . S
H3344 C3328 0.931 . S
H3345 C3333 0.930 . S
H3346 C3334 0.956 . S
H3347 C3334 0.961 . S
H3348 C3334 0.961 . S
H3349 C3335 0.958 . S
H3350 C3335 0.961 . S
H3351 C3335 0.960 . S
C3352 C3353 1.391 . S
C3352 C3354 1.394 . S
C3352 H3368 0.931 . S
C3353 C3352 1.391 . S
C3353 C3357 1.376 . S
C3354 C3352 1.394 . S
C3354 C3355 1.369 . S
C3354 C3358 1.531 . S
C3355 C3354 1.369 . S
C3355 C3356 1.410 . S
C3355 C3363 1.503 . S
C3356 C3355 1.410 . S
C3356 C3357 1.392 . S
C3356 C3359 1.511 . S
C3357 C3353 1.376 . S
C3357 C3356 1.392 . S
C3357 H3369 0.929 . S
C3358 C3354 1.531 . S
C3358 H3370 0.960 . S
C3358 H3371 0.962 . S
C3358 H3372 0.960 . S
C3359 C3356 1.511 . S
C3359 H3373 0.961 . S
C3359 H3374 0.961 . S
C3359 H3375 0.961 . S
C3360 C3361 1.370 . S
C3360 C3362 1.363 . S
C3360 H3376 0.931 . S
C3361 C3360 1.370 . S
C3361 C3365 1.408 . S
C3362 C3360 1.363 . S
C3362 C3363 1.370 . S
C3362 C3366 1.524 . S
C3363 C3355 1.503 . S
C3363 C3362 1.370 . S
C3363 C3364 1.403 . S
C3364 C3363 1.403 . S
C3364 C3365 1.404 . S
C3364 C3367 1.539 . S
C3365 C3361 1.408 . S
C3365 C3364 1.404 . S
C3365 H3377 0.930 . S
C3366 C3362 1.524 . S
C3366 H3378 0.956 . S
C3366 H3379 0.961 . S
C3366 H3380 0.961 . S
C3367 C3364 1.539 . S
C3367 H3381 0.958 . S
C3367 H3382 0.961 . S
C3367 H3383 0.960 . S
H3368 C3352 0.931 . S
H3369 C3357 0.929 . S
H3370 C3358 0.960 . S
H3371 C3358 0.962 . S
H3372 C3358 0.960 . S
H3373 C3359 0.961 . S
H3374 C3359 0.961 . S
H3375 C3359 0.961 . S
H3376 C3360 0.931 . S
H3377 C3365 0.930 . S
H3378 C3366 0.956 . S
H3379 C3366 0.961 . S
H3380 C3366 0.961 . S
H3381 C3367 0.958 . S
H3382 C3367 0.961 . S
H3383 C3367 0.960 . S
C3384 C3385 1.391 . S
C3384 C3386 1.394 . S
C3384 H3400 0.931 . S
C3385 C3384 1.391 . S
C3385 C3389 1.376 . S
C3386 C3384 1.394 . S
C3386 C3387 1.369 . S
C3386 C3390 1.531 . S
C3387 C3386 1.369 . S
C3387 C3388 1.410 . S
C3387 C3395 1.503 . S
C3388 C3387 1.410 . S
C3388 C3389 1.392 . S
C3388 C3391 1.511 . S
C3389 C3385 1.376 . S
C3389 C3388 1.392 . S
C3389 H3401 0.929 . S
C3390 C3386 1.531 . S
C3390 H3402 0.960 . S
C3390 H3403 0.962 . S
C3390 H3404 0.960 . S
C3391 C3388 1.511 . S
C3391 H3405 0.961 . S
C3391 H3406 0.961 . S
C3391 H3407 0.961 . S
C3392 C3393 1.370 . S
C3392 C3394 1.363 . S
C3392 H3408 0.931 . S
C3393 C3392 1.370 . S
C3393 C3397 1.408 . S
C3394 C3392 1.363 . S
C3394 C3395 1.370 . S
C3394 C3398 1.524 . S
C3395 C3387 1.503 . S
C3395 C3394 1.370 . S
C3395 C3396 1.403 . S
C3396 C3395 1.403 . S
C3396 C3397 1.404 . S
C3396 C3399 1.539 1_655 S
C3397 C3393 1.408 . S
C3397 C3396 1.404 . S
C3397 H3409 0.930 1_655 S
C3398 C3394 1.524 . S
C3398 H3410 0.956 . S
C3398 H3411 0.961 . S
C3398 H3412 0.961 . S
C3399 C3396 1.539 1_455 S
C3399 H3413 0.958 . S
C3399 H3414 0.961 . S
C3399 H3415 0.960 1_455 S
H3400 C3384 0.931 . S
H3401 C3389 0.929 . S
H3402 C3390 0.960 . S
H3403 C3390 0.962 . S
H3404 C3390 0.960 . S
H3405 C3391 0.961 . S
H3406 C3391 0.961 . S
H3407 C3391 0.961 . S
H3408 C3392 0.931 . S
H3409 C3397 0.930 1_455 S
H3410 C3398 0.956 . S
H3411 C3398 0.961 . S
H3412 C3398 0.961 . S
H3413 C3399 0.958 . S
H3414 C3399 0.961 . S
H3415 C3399 0.960 1_655 S
C3416 C3417 1.391 . S
C3416 C3418 1.394 . S
C3416 H3432 0.931 . S
C3417 C3416 1.391 . S
C3417 C3421 1.376 . S
C3418 C3416 1.394 . S
C3418 C3419 1.369 . S
C3418 C3422 1.531 . S
C3419 C3418 1.369 . S
C3419 C3420 1.410 . S
C3419 C3427 1.503 . S
C3420 C3419 1.410 . S
C3420 C3421 1.392 . S
C3420 C3423 1.511 . S
C3421 C3417 1.376 . S
C3421 C3420 1.392 . S
C3421 H3433 0.929 . S
C3422 C3418 1.531 . S
C3422 H3434 0.960 . S
C3422 H3435 0.962 . S
C3422 H3436 0.960 . S
C3423 C3420 1.511 . S
C3423 H3437 0.961 . S
C3423 H3438 0.961 . S
C3423 H3439 0.961 . S
C3424 C3425 1.370 . S
C3424 C3426 1.363 . S
C3424 H3440 0.931 . S
C3425 C3424 1.370 . S
C3425 C3429 1.408 . S
C3426 C3424 1.363 . S
C3426 C3427 1.370 . S
C3426 C3430 1.524 . S
C3427 C3419 1.503 . S
C3427 C3426 1.370 . S
C3427 C3428 1.403 . S
C3428 C3427 1.403 . S
C3428 C3429 1.404 . S
C3428 C3431 1.539 . S
C3429 C3425 1.408 . S
C3429 C3428 1.404 . S
C3429 H3441 0.930 . S
C3430 C3426 1.524 . S
C3430 H3442 0.956 . S
C3430 H3443 0.961 . S
C3430 H3444 0.961 . S
C3431 C3428 1.539 . S
C3431 H3445 0.958 . S
C3431 H3446 0.961 . S
C3431 H3447 0.960 . S
H3432 C3416 0.931 . S
H3433 C3421 0.929 . S
H3434 C3422 0.960 . S
H3435 C3422 0.962 . S
H3436 C3422 0.960 . S
H3437 C3423 0.961 . S
H3438 C3423 0.961 . S
H3439 C3423 0.961 . S
H3440 C3424 0.931 . S
H3441 C3429 0.930 . S
H3442 C3430 0.956 . S
H3443 C3430 0.961 . S
H3444 C3430 0.961 . S
H3445 C3431 0.958 . S
H3446 C3431 0.961 . S
H3447 C3431 0.960 . S
C3448 C3449 1.391 . S
C3448 C3450 1.394 . S
C3448 H3464 0.931 . S
C3449 C3448 1.391 . S
C3449 C3453 1.376 . S
C3450 C3448 1.394 . S
C3450 C3451 1.369 . S
C3450 C3454 1.531 . S
C3451 C3450 1.369 . S
C3451 C3452 1.410 . S
C3451 C3459 1.503 . S
C3452 C3451 1.410 . S
C3452 C3453 1.392 . S
C3452 C3455 1.511 . S
C3453 C3449 1.376 . S
C3453 C3452 1.392 . S
C3453 H3465 0.929 . S
C3454 C3450 1.531 . S
C3454 H3466 0.960 . S
C3454 H3467 0.962 . S
C3454 H3468 0.960 . S
C3455 C3452 1.511 . S
C3455 H3469 0.961 . S
C3455 H3470 0.961 . S
C3455 H3471 0.961 . S
C3456 C3457 1.370 . S
C3456 C3458 1.363 . S
C3456 H3472 0.931 . S
C3457 C3456 1.370 . S
C3457 C3461 1.408 . S
C3458 C3456 1.363 . S
C3458 C3459 1.370 . S
C3458 C3462 1.524 . S
C3459 C3451 1.503 . S
C3459 C3458 1.370 . S
C3459 C3460 1.403 . S
C3460 C3459 1.403 . S
C3460 C3461 1.404 . S
C3460 C3463 1.539 . S
C3461 C3457 1.408 . S
C3461 C3460 1.404 . S
C3461 H3473 0.930 . S
C3462 C3458 1.524 . S
C3462 H3474 0.956 . S
C3462 H3475 0.961 . S
C3462 H3476 0.961 . S
C3463 C3460 1.539 . S
C3463 H3477 0.958 . S
C3463 H3478 0.961 . S
C3463 H3479 0.960 . S
H3464 C3448 0.931 . S
H3465 C3453 0.929 . S
H3466 C3454 0.960 . S
H3467 C3454 0.962 . S
H3468 C3454 0.960 . S
H3469 C3455 0.961 . S
H3470 C3455 0.961 . S
H3471 C3455 0.961 . S
H3472 C3456 0.931 . S
H3473 C3461 0.930 . S
H3474 C3462 0.956 . S
H3475 C3462 0.961 . S
H3476 C3462 0.961 . S
H3477 C3463 0.958 . S
H3478 C3463 0.961 . S
H3479 C3463 0.960 . S
C3480 C3481 1.391 . S
C3480 C3482 1.394 . S
C3480 H3496 0.931 . S
C3481 C3480 1.391 . S
C3481 C3485 1.376 . S
C3482 C3480 1.394 . S
C3482 C3483 1.369 . S
C3482 C3486 1.531 . S
C3483 C3482 1.369 . S
C3483 C3484 1.410 . S
C3483 C3491 1.503 . S
C3484 C3483 1.410 . S
C3484 C3485 1.392 . S
C3484 C3487 1.511 . S
C3485 C3481 1.376 . S
C3485 C3484 1.392 . S
C3485 H3497 0.929 . S
C3486 C3482 1.531 . S
C3486 H3498 0.960 . S
C3486 H3499 0.962 . S
C3486 H3500 0.960 . S
C3487 C3484 1.511 . S
C3487 H3501 0.964 . S
C3487 H3502 0.961 1_565 S
C3487 H3503 0.961 1_565 S
C3488 C3489 1.370 . S
C3488 C3490 1.363 . S
C3488 H3504 0.931 . S
C3489 C3488 1.370 . S
C3489 C3493 1.408 . S
C3490 C3488 1.363 . S
C3490 C3491 1.370 . S
C3490 C3494 1.524 . S
C3491 C3483 1.503 . S
C3491 C3490 1.370 . S
C3491 C3492 1.403 . S
C3492 C3491 1.403 . S
C3492 C3493 1.404 . S
C3492 C3495 1.539 . S
C3493 C3489 1.408 . S
C3493 C3492 1.404 . S
C3493 H3505 0.930 1_565 S
C3494 C3490 1.524 . S
C3494 H3506 0.956 . S
C3494 H3507 0.961 . S
C3494 H3508 0.961 . S
C3495 C3492 1.539 . S
C3495 H3509 0.958 . S
C3495 H3510 0.961 . S
C3495 H3511 0.960 . S
H3496 C3480 0.931 . S
H3497 C3485 0.929 . S
H3498 C3486 0.960 . S
H3499 C3486 0.962 . S
H3500 C3486 0.960 . S
H3501 C3487 0.964 . S
H3502 C3487 0.961 1_545 S
H3503 C3487 0.961 1_545 S
H3504 C3488 0.931 . S
H3505 C3493 0.930 1_545 S
H3506 C3494 0.956 . S
H3507 C3494 0.961 . S
H3508 C3494 0.961 . S
H3509 C3495 0.958 . S
H3510 C3495 0.961 . S
H3511 C3495 0.960 . S
C3512 C3513 1.391 . S
C3512 C3514 1.394 . S
C3512 H3528 0.931 . S
C3513 C3512 1.391 . S
C3513 C3517 1.376 . S
C3514 C3512 1.394 . S
C3514 C3515 1.369 . S
C3514 C3518 1.531 . S
C3515 C3514 1.369 . S
C3515 C3516 1.410 . S
C3515 C3523 1.503 . S
C3516 C3515 1.410 . S
C3516 C3517 1.392 . S
C3516 C3519 1.511 . S
C3517 C3513 1.376 . S
C3517 C3516 1.392 . S
C3517 H3529 0.929 . S
C3518 C3514 1.531 . S
C3518 H3530 0.960 . S
C3518 H3531 0.962 . S
C3518 H3532 0.960 . S
C3519 C3516 1.511 . S
C3519 H3533 0.961 . S
C3519 H3534 0.961 . S
C3519 H3535 0.961 . S
C3520 C3521 1.370 . S
C3520 C3522 1.363 . S
C3520 H3536 0.931 . S
C3521 C3520 1.370 . S
C3521 C3525 1.408 . S
C3522 C3520 1.363 . S
C3522 C3523 1.370 . S
C3522 C3526 1.524 . S
C3523 C3515 1.503 . S
C3523 C3522 1.370 . S
C3523 C3524 1.403 . S
C3524 C3523 1.403 . S
C3524 C3525 1.404 . S
C3524 C3527 1.539 . S
C3525 C3521 1.408 . S
C3525 C3524 1.404 . S
C3525 H3537 0.930 . S
C3526 C3522 1.524 . S
C3526 H3538 0.956 . S
C3526 H3539 0.961 . S
C3526 H3540 0.961 . S
C3527 C3524 1.539 . S
C3527 H3541 0.958 . S
C3527 H3542 0.961 . S
C3527 H3543 0.960 . S
H3528 C3512 0.931 . S
H3529 C3517 0.929 . S
H3530 C3518 0.960 . S
H3531 C3518 0.962 . S
H3532 C3518 0.960 . S
H3533 C3519 0.961 . S
H3534 C3519 0.961 . S
H3535 C3519 0.961 . S
H3536 C3520 0.931 . S
H3537 C3525 0.930 . S
H3538 C3526 0.956 . S
H3539 C3526 0.961 . S
H3540 C3526 0.961 . S
H3541 C3527 0.958 . S
H3542 C3527 0.961 . S
H3543 C3527 0.960 . S
C3544 C3545 1.391 . S
C3544 C3546 1.394 . S
C3544 H3560 0.931 . S
C3545 C3544 1.391 . S
C3545 C3549 1.388 . S
C3546 C3544 1.394 . S
C3546 C3547 1.369 . S
C3546 C3550 1.531 . S
C3547 C3546 1.369 . S
C3547 C3548 1.412 . S
C3547 C3555 1.494 1_556 S
C3548 C3547 1.412 . S
C3548 C3549 1.389 . S
C3548 C3551 1.507 1_556 S
C3549 C3545 1.388 . S
C3549 C3548 1.389 . S
C3549 H3561 0.924 1_556 S
C3550 C3546 1.531 . S
C3550 H3562 0.960 . S
C3550 H3563 0.962 1_556 S
C3550 H3564 0.960 . S
C3551 C3548 1.507 1_554 S
C3551 H3565 0.961 . S
C3551 H3566 0.961 . S
C3551 H3567 0.961 1_554 S
C3552 C3553 1.370 . S
C3552 C3554 1.363 . S
C3552 H3568 0.931 . S
C3553 C3552 1.370 . S
C3553 C3557 1.408 1_554 S
C3554 C3552 1.363 . S
C3554 C3555 1.407 . S
C3554 C3558 1.524 . S
C3555 C3547 1.494 1_554 S
C3555 C3554 1.407 . S
C3555 C3556 1.376 1_554 S
C3556 C3555 1.376 1_556 S
C3556 C3557 1.404 . S
C3556 C3559 1.539 . S
C3557 C3553 1.408 1_556 S
C3557 C3556 1.404 . S
C3557 H3569 0.930 . S
C3558 C3554 1.524 . S
C3558 H3570 0.956 . S
C3558 H3571 0.961 . S
C3558 H3572 0.961 . S
C3559 C3556 1.539 . S
C3559 H3573 0.958 . S
C3559 H3574 0.961 . S
C3559 H3575 0.960 . S
H3560 C3544 0.931 . S
H3561 C3549 0.924 1_554 S
H3562 C3550 0.960 . S
H3563 C3550 0.962 1_554 S
H3564 C3550 0.960 . S
H3565 C3551 0.961 . S
H3566 C3551 0.961 . S
H3567 C3551 0.961 1_556 S
H3568 C3552 0.931 . S
H3569 C3557 0.930 . S
H3570 C3558 0.956 . S
H3571 C3558 0.961 . S
H3572 C3558 0.961 . S
H3573 C3559 0.958 . S
H3574 C3559 0.961 . S
H3575 C3559 0.960 . S
C3576 C3577 1.391 . S
C3576 C3578 1.394 . S
C3576 H3592 0.931 . S
C3577 C3576 1.391 . S
C3577 C3581 1.376 . S
C3578 C3576 1.394 . S
C3578 C3579 1.369 . S
C3578 C3582 1.531 . S
C3579 C3578 1.369 . S
C3579 C3580 1.410 . S
C3579 C3587 1.503 . S
C3580 C3579 1.410 . S
C3580 C3581 1.392 . S
C3580 C3583 1.511 . S
C3581 C3577 1.376 . S
C3581 C3580 1.392 . S
C3581 H3593 0.929 . S
C3582 C3578 1.531 . S
C3582 H3594 0.960 . S
C3582 H3595 0.962 . S
C3582 H3596 0.960 . S
C3583 C3580 1.511 . S
C3583 H3597 0.961 . S
C3583 H3598 0.961 . S
C3583 H3599 0.961 . S
C3584 C3585 1.370 . S
C3584 C3586 1.363 . S
C3584 H3600 0.931 . S
C3585 C3584 1.370 . S
C3585 C3589 1.408 . S
C3586 C3584 1.363 . S
C3586 C3587 1.370 . S
C3586 C3590 1.524 . S
C3587 C3579 1.503 . S
C3587 C3586 1.370 . S
C3587 C3588 1.403 . S
C3588 C3587 1.403 . S
C3588 C3589 1.404 . S
C3588 C3591 1.539 . S
C3589 C3585 1.408 . S
C3589 C3588 1.404 . S
C3589 H3601 0.930 . S
C3590 C3586 1.524 . S
C3590 H3602 0.956 . S
C3590 H3603 0.961 . S
C3590 H3604 0.961 . S
C3591 C3588 1.539 . S
C3591 H3605 0.958 . S
C3591 H3606 0.961 . S
C3591 H3607 0.960 . S
H3592 C3576 0.931 . S
H3593 C3581 0.929 . S
H3594 C3582 0.960 . S
H3595 C3582 0.962 . S
H3596 C3582 0.960 . S
H3597 C3583 0.961 . S
H3598 C3583 0.961 . S
H3599 C3583 0.961 . S
H3600 C3584 0.931 . S
H3601 C3589 0.930 . S
H3602 C3590 0.956 . S
H3603 C3590 0.961 . S
H3604 C3590 0.961 . S
H3605 C3591 0.958 . S
H3606 C3591 0.961 . S
H3607 C3591 0.960 . S
C3608 C3609 1.391 . S
C3608 C3610 1.394 . S
C3608 H3624 0.931 . S
C3609 C3608 1.391 . S
C3609 C3613 1.376 . S
C3610 C3608 1.394 . S
C3610 C3611 1.369 . S
C3610 C3614 1.531 1_554 S
C3611 C3610 1.369 . S
C3611 C3612 1.410 . S
C3611 C3619 1.503 1_554 S
C3612 C3611 1.410 . S
C3612 C3613 1.392 . S
C3612 C3615 1.511 . S
C3613 C3609 1.376 . S
C3613 C3612 1.392 . S
C3613 H3625 0.929 . S
C3614 C3610 1.531 1_556 S
C3614 H3626 0.960 1_556 S
C3614 H3627 0.963 . S
C3614 H3628 0.960 1_556 S
C3615 C3612 1.511 . S
C3615 H3629 0.961 . S
C3615 H3630 0.961 . S
C3615 H3631 0.961 . S
C3616 C3617 1.370 . S
C3616 C3618 1.363 . S
C3616 H3632 0.931 . S
C3617 C3616 1.370 . S
C3617 C3621 1.408 1_556 S
C3618 C3616 1.363 . S
C3618 C3619 1.370 . S
C3618 C3622 1.524 . S
C3619 C3611 1.503 1_556 S
C3619 C3618 1.370 . S
C3619 C3620 1.403 1_556 S
C3620 C3619 1.403 1_554 S
C3620 C3621 1.404 . S
C3620 C3623 1.539 . S
C3621 C3617 1.408 1_554 S
C3621 C3620 1.404 . S
C3621 H3633 0.930 . S
C3622 C3618 1.524 . S
C3622 H3634 0.956 . S
C3622 H3635 0.961 . S
C3622 H3636 0.961 . S
C3623 C3620 1.539 . S
C3623 H3637 0.958 . S
C3623 H3638 0.961 . S
C3623 H3639 0.960 . S
H3624 C3608 0.931 . S
H3625 C3613 0.929 . S
H3626 C3614 0.960 1_554 S
H3627 C3614 0.963 . S
H3628 C3614 0.960 1_554 S
H3629 C3615 0.961 . S
H3630 C3615 0.961 . S
H3631 C3615 0.961 . S
H3632 C3616 0.931 . S
H3633 C3621 0.930 . S
H3634 C3622 0.956 . S
H3635 C3622 0.961 . S
H3636 C3622 0.961 . S
H3637 C3623 0.958 . S
H3638 C3623 0.961 . S
H3639 C3623 0.960 . S
C3640 C3641 1.391 . S
C3640 C3642 1.394 . S
C3640 H3656 0.931 . S
C3641 C3640 1.391 . S
C3641 C3645 1.376 . S
C3642 C3640 1.394 . S
C3642 C3643 1.369 . S
C3642 C3646 1.531 . S
C3643 C3642 1.369 . S
C3643 C3644 1.410 . S
C3643 C3651 1.503 . S
C3644 C3643 1.410 . S
C3644 C3645 1.392 . S
C3644 C3647 1.511 . S
C3645 C3641 1.376 . S
C3645 C3644 1.392 . S
C3645 H3657 0.929 . S
C3646 C3642 1.531 . S
C3646 H3658 0.960 . S
C3646 H3659 0.962 . S
C3646 H3660 0.960 . S
C3647 C3644 1.511 . S
C3647 H3661 0.961 . S
C3647 H3662 0.961 . S
C3647 H3663 0.961 . S
C3648 C3649 1.370 . S
C3648 C3650 1.363 . S
C3648 H3664 0.931 . S
C3649 C3648 1.370 . S
C3649 C3653 1.408 . S
C3650 C3648 1.363 . S
C3650 C3651 1.370 . S
C3650 C3654 1.524 . S
C3651 C3643 1.503 . S
C3651 C3650 1.370 . S
C3651 C3652 1.403 . S
C3652 C3651 1.403 . S
C3652 C3653 1.404 . S
C3652 C3655 1.539 . S
C3653 C3649 1.408 . S
C3653 C3652 1.404 . S
C3653 H3665 0.930 . S
C3654 C3650 1.524 . S
C3654 H3666 0.956 . S
C3654 H3667 0.961 . S
C3654 H3668 0.961 . S
C3655 C3652 1.539 . S
C3655 H3669 0.958 . S
C3655 H3670 0.961 . S
C3655 H3671 0.960 . S
H3656 C3640 0.931 . S
H3657 C3645 0.929 . S
H3658 C3646 0.960 . S
H3659 C3646 0.962 . S
H3660 C3646 0.960 . S
H3661 C3647 0.961 . S
H3662 C3647 0.961 . S
H3663 C3647 0.961 . S
H3664 C3648 0.931 . S
H3665 C3653 0.930 . S
H3666 C3654 0.956 . S
H3667 C3654 0.961 . S
H3668 C3654 0.961 . S
H3669 C3655 0.958 . S
H3670 C3655 0.961 . S
H3671 C3655 0.960 . S
C3672 C3673 1.391 . S
C3672 C3674 1.394 . S
C3672 H3688 0.931 . S
C3673 C3672 1.391 . S
C3673 C3677 1.376 . S
C3674 C3672 1.394 . S
C3674 C3675 1.369 . S
C3674 C3678 1.531 . S
C3675 C3674 1.369 . S
C3675 C3676 1.410 . S
C3675 C3683 1.503 . S
C3676 C3675 1.410 . S
C3676 C3677 1.392 . S
C3676 C3679 1.511 . S
C3677 C3673 1.376 . S
C3677 C3676 1.392 . S
C3677 H3689 0.929 . S
C3678 C3674 1.531 . S
C3678 H3690 0.960 . S
C3678 H3691 0.962 . S
C3678 H3692 0.960 . S
C3679 C3676 1.511 . S
C3679 H3693 0.961 . S
C3679 H3694 0.961 . S
C3679 H3695 0.961 . S
C3680 C3681 1.370 . S
C3680 C3682 1.363 . S
C3680 H3696 0.931 . S
C3681 C3680 1.370 . S
C3681 C3685 1.408 . S
C3682 C3680 1.363 . S
C3682 C3683 1.370 . S
C3682 C3686 1.524 . S
C3683 C3675 1.503 . S
C3683 C3682 1.370 . S
C3683 C3684 1.403 . S
C3684 C3683 1.403 . S
C3684 C3685 1.404 . S
C3684 C3687 1.539 . S
C3685 C3681 1.408 . S
C3685 C3684 1.404 . S
C3685 H3697 0.930 . S
C3686 C3682 1.524 . S
C3686 H3698 0.956 . S
C3686 H3699 0.961 . S
C3686 H3700 0.961 . S
C3687 C3684 1.539 . S
C3687 H3701 0.958 . S
C3687 H3702 0.961 . S
C3687 H3703 0.960 . S
H3688 C3672 0.931 . S
H3689 C3677 0.929 . S
H3690 C3678 0.960 . S
H3691 C3678 0.962 . S
H3692 C3678 0.960 . S
H3693 C3679 0.961 . S
H3694 C3679 0.961 . S
H3695 C3679 0.961 . S
H3696 C3680 0.931 . S
H3697 C3685 0.930 . S
H3698 C3686 0.956 . S
H3699 C3686 0.961 . S
H3700 C3686 0.961 . S
H3701 C3687 0.958 . S
H3702 C3687 0.961 . S
H3703 C3687 0.960 . S
C633 C101 1.603 . S
C641 C330 1.574 . S
C665 C57 1.594 . S
C673 C341 1.603 . S
C697 C73 1.004 . S
C705 C370 1.054 . S
C737 C373 1.397 . S
C729 C78 1.406 . S
C761 C21 1.613 . S
C769 C411 1.629 . S
C801 C414 0.985 . S
C793 C31 0.963 . S
C833 C441 1.491 . S
C825 C49 1.507 . S
C857 C0 1.560 . S
C865 C470 1.576 . S
C897 C321 1.538 1_655 S
C889 C218 1.544 . S
C921 C229 0.897 . S
C929 C333 0.832 . S
C961 C361 1.557 . S
C953 C257 1.571 . S
C993 C390 1.127 . S
C985 C164 1.053 . S
C1017 C216 0.979 . S
C1025 C394 0.997 . S
C1057 C420 1.607 . S
C1049 C231 1.614 . S
C1089 C433 0.755 . S
C1081 C255 0.727 . S
C1121 C461 1.571 . S
C1113 C166 1.590 . S
C1153 C313 1.472 1_565 S
C1145 C143 1.442 . S
C1177 C265 1.717 . S
C1185 C480 1.710 . S
C1217 C511 1.436 . S
C1209 C299 1.476 . S
C1249 C530 0.971 . S
C1241 C291 0.955 . S
C1273 C104 1.220 . S
C1281 C453 1.257 . S
C1305 C117 1.376 . S
C1313 C353 1.434 . S
C1337 C304 1.487 . S
C1345 C541 1.538 . S
C1377 C570 0.864 . S
C1369 C278 0.880 . S
C1409 C331 1.532 . S
C1401 C60 1.570 . S
C1441 C560 1.548 . S
C1433 C96 1.516 . S
C1465 C88 1.003 . S
C1473 C371 0.963 . S
C1497 C65 1.318 . S
C1505 C534 1.339 . S
C1537 C410 1.560 . S
C1529 C10 1.584 . S
C1561 C44 0.873 . S
C1569 C493 0.935 . S
C1601 C440 1.433 1_556 S
C1593 C34 1.354 . S
C1633 C591 1.513 . S
C1625 C13 1.566 . S
C1665 C320 1.493 . S
C1657 C138 1.483 1_565 S
C1697 C554 0.790 . S
C1689 C296 0.751 . S
C1721 C112 1.467 . S
C1729 C360 1.506 . S
C1753 C270 1.044 . S
C1761 C551 1.028 . S
C1785 C140 0.913 . S
C1793 C393 0.920 . S
C1825 C501 1.560 . S
C1817 C294 1.506 . S
C1849 C114 0.681 . S
C1857 C434 0.665 1_565 S
C1881 C268 1.518 . S
C1889 C580 1.524 . S
C1913 C169 1.440 1_556 S
C1921 C314 1.449 . S
C1945 C161 1.646 . S
C1953 C481 1.666 . S
C1977 C234 1.453 . S
C1985 C430 1.391 . S
C2009 C226 0.915 . S
C2017 C531 0.889 . S
C2049 C574 1.233 . S
C2041 C247 1.235 . S
C2073 C195 1.399 . S
C2081 C354 1.432 . S
C2113 C380 1.473 . S
C2105 C239 1.426 . S
C2145 C351 0.804 . S
C2137 C187 0.828 . S
C2169 C75 1.617 . S
C2177 C610 1.578 . S
C2209 C561 1.605 . S
C2201 C83 1.596 . S
C2233 C99 1.083 . S
C2241 C630 1.065 . S
C2265 C52 1.355 . S
C2273 C533 1.407 . S
C2297 C47 1.623 . S
C2305 C491 1.623 . S
C2337 C494 0.987 . S
C2329 C5 0.976 . S
C2369 C521 1.502 . S
C2361 C23 1.512 . S
C2401 C590 1.577 . S
C2393 C26 1.597 . S
C2433 C601 1.538 . S
C2425 C244 1.537 . S
C2457 C177 0.888 . S
C2465 C553 0.836 . S
C2497 C621 1.560 . S
C2489 C192 1.574 . S
C2529 C550 1.132 . S
C2521 C203 1.039 . S
C2561 C474 0.997 . S
C2553 C242 0.957 . S
C2585 C179 1.614 . S
C2593 C500 1.602 . S
C2625 C513 0.774 . S
C2617 C190 0.707 . S
C2649 C205 1.591 . S
C2657 C581 1.574 . S
C2689 C593 1.480 . S
C2681 C286 1.416 . S
C2713 C122 1.678 . S
C2721 C400 1.713 . S
C2753 C431 1.431 . S
C2745 C130 1.496 . S
C2785 C450 0.975 . S
C2777 C148 0.968 . S
C2817 C573 1.252 . S
C2809 C273 1.261 . S
C2841 C260 1.413 . S
C2849 C613 1.430 . S
C2881 C381 1.541 . S
C2873 C135 1.471 . S
C2913 C350 0.871 . S
C2905 C109 0.888 . S
C2937 C86 1.543 . S
C2945 C611 1.536 . S
C2977 C340 1.544 . S
C2969 C70 1.529 . S
C3001 C62 0.992 . S
C3009 C631 0.963 . S
C3033 C91 1.346 . S
C3041 C374 1.355 . S
C3065 C36 1.579 . S
C3073 C490 1.546 . S
C3105 C413 0.940 . S
C3097 C18 0.932 . S
C3129 C8 1.344 . S
C3137 C520 1.429 . S
C3161 C39 1.547 . S
C3169 C471 1.534 . S
C3201 C600 1.487 . S
C3193 C307 1.438 . S
C3225 C153 0.751 . S
C3233 C334 0.787 . S
C3265 C620 1.516 1_655 S
C3257 C281 1.488 . S
C3289 C127 1.061 . S
C3297 C391 1.047 . S
C3321 C309 0.926 . S
C3329 C473 0.911 . S
C3361 C421 1.552 . S
C3353 C151 1.547 . S
C3385 C283 0.674 . S
C3393 C514 0.669 . S
C3425 C460 1.527 . S
C3417 C125 1.521 . S
C3457 C594 1.451 . S
C3449 C221 1.450 . S
C3489 C401 1.669 1_565 S
C3481 C200 1.665 . S
C3513 C208 1.472 . S
C3521 C510 1.410 . S
C3553 C451 0.881 . S
C3545 C174 0.899 1_556 S
C3577 C182 1.247 . S
C3585 C454 1.237 . S
C3609 C156 1.392 . S
C3617 C614 1.386 . S
C3649 C540 1.473 . S
C3641 C213 1.427 . S
C3681 C571 0.760 . S
C3673 C252 0.756 . S
