# Generated by pormake.
# Topology csq, (4,8)-cn, num edge types: 1
# Building blocks:
#     Node 0, Type 0, BuildingBlock: NAWXER_clean_sbu_0, # of connection points: 4
#     Node 1, Type 0, BuildingBlock: NAWXER_clean_sbu_0, # of connection points: 4
#     Node 2, Type 0, BuildingBlock: NAWXER_clean_sbu_0, # of connection points: 4
#     Node 3, Type 0, BuildingBlock: NAWXER_clean_sbu_0, # of connection points: 4
#     Node 4, Type 0, BuildingBlock: NAWXER_clean_sbu_0, # of connection points: 4
#     Node 5, Type 0, BuildingBlock: NAWXER_clean_sbu_0, # of connection points: 4
#     Node 6, Type 1, BuildingBlock: TAGTUT_clean_sbu_3, # of connection points: 8
#     Node 7, Type 1, BuildingBlock: TAGTUT_clean_sbu_3, # of connection points: 8
#     Node 8, Type 1, BuildingBlock: TAGTUT_clean_sbu_3, # of connection points: 8
#     Edge 9, Type (0, 1), BuildingBlock: ZUJKAS_clean_linker_0, # of connection points: 2
#     Edge 10, Type (0, 1), BuildingBlock: ZUJKAS_clean_linker_0, # of connection points: 2
#     Edge 11, Type (0, 1), BuildingBlock: ZUJKAS_clean_linker_0, # of connection points: 2
#     Edge 12, Type (0, 1), BuildingBlock: ZUJKAS_clean_linker_0, # of connection points: 2
#     Edge 13, Type (0, 1), BuildingBlock: ZUJKAS_clean_linker_0, # of connection points: 2
#     Edge 14, Type (0, 1), BuildingBlock: ZUJKAS_clean_linker_0, # of connection points: 2
#     Edge 15, Type (0, 1), BuildingBlock: ZUJKAS_clean_linker_0, # of connection points: 2
#     Edge 16, Type (0, 1), BuildingBlock: ZUJKAS_clean_linker_0, # of connection points: 2
#     Edge 17, Type (0, 1), BuildingBlock: ZUJKAS_clean_linker_0, # of connection points: 2
#     Edge 18, Type (0, 1), BuildingBlock: ZUJKAS_clean_linker_0, # of connection points: 2
#     Edge 19, Type (0, 1), BuildingBlock: ZUJKAS_clean_linker_0, # of connection points: 2
#     Edge 20, Type (0, 1), BuildingBlock: ZUJKAS_clean_linker_0, # of connection points: 2
#     Edge 21, Type (0, 1), BuildingBlock: ZUJKAS_clean_linker_0, # of connection points: 2
#     Edge 22, Type (0, 1), BuildingBlock: ZUJKAS_clean_linker_0, # of connection points: 2
#     Edge 23, Type (0, 1), BuildingBlock: ZUJKAS_clean_linker_0, # of connection points: 2
#     Edge 24, Type (0, 1), BuildingBlock: ZUJKAS_clean_linker_0, # of connection points: 2
#     Edge 25, Type (0, 1), BuildingBlock: ZUJKAS_clean_linker_0, # of connection points: 2
#     Edge 26, Type (0, 1), BuildingBlock: ZUJKAS_clean_linker_0, # of connection points: 2
#     Edge 27, Type (0, 1), BuildingBlock: ZUJKAS_clean_linker_0, # of connection points: 2
#     Edge 28, Type (0, 1), BuildingBlock: ZUJKAS_clean_linker_0, # of connection points: 2
#     Edge 29, Type (0, 1), BuildingBlock: ZUJKAS_clean_linker_0, # of connection points: 2
#     Edge 30, Type (0, 1), BuildingBlock: ZUJKAS_clean_linker_0, # of connection points: 2
#     Edge 31, Type (0, 1), BuildingBlock: ZUJKAS_clean_linker_0, # of connection points: 2
#     Edge 32, Type (0, 1), BuildingBlock: ZUJKAS_clean_linker_0, # of connection points: 2
# Relax obj value: 0.043
# Max RMSD: 0.120
# Mean RMSD: 0.079
data_MOF--net-csq--node1-NAWXER_clean_sbu_0--node2-TAGTUT_clean_sbu_3--edge1-ZUJKAS_clean_linker_0
_symmetry_space_group_name_H-M    P1
_symmetry_Int_Tables_number       1
_symmetry_cell_setting            triclinic
loop_
_symmetry_equiv_pos_as_xyz
'x, y, z'
_cell_length_a     64.302088
_cell_length_b     63.456107
_cell_length_c     24.55282
_cell_angle_alpha  92.242563
_cell_angle_beta   92.336558
_cell_angle_gamma 119.86863
loop_
_atom_site_label
_atom_site_type_symbol
_atom_site_fract_x
_atom_site_fract_y
_atom_site_fract_z
_atom_type_partial_charge
C0 C 0.27829 0.48998 0.07054 0.0
C1 C 0.21862 0.48908 0.18923 0.0
O2 O 0.27563 0.50782 0.08582 0.0
Zn3 Zn 0.24796 0.48965 0.12767 0.0
O4 O 0.26337 0.46854 0.0843 0.0
Zn5 Zn 0.23245 0.4516 0.13226 0.0
O6 O 0.20702 0.42918 0.08058 0.0
O7 O 0.2195 0.46765 0.06626 0.0
O8 O 0.21588 0.46782 0.1792 0.0
O9 O 0.23529 0.50718 0.16773 0.0
O10 O 0.26356 0.47824 0.19112 0.0
O11 O 0.24349 0.43803 0.18707 0.0
C12 C 0.2054 0.44489 0.05307 0.0
C13 C 0.26037 0.45816 0.20889 0.0
C14 C 0.74612 0.21379 0.03608 0.0
C15 C 0.80421 0.26879 0.18167 0.0
O16 O 0.76415 0.21284 0.05634 0.0
Zn17 Zn 0.77625 0.24139 0.10708 0.0
O18 O 0.74263 0.23113 0.05233 0.0
Zn19 Zn 0.75799 0.26193 0.10978 0.0
O20 O 0.76759 0.28902 0.06367 0.0
O21 O 0.78893 0.27078 0.05429 0.0
O22 O 0.78832 0.27449 0.16742 0.0
O23 O 0.80392 0.25058 0.15726 0.0
O24 O 0.74775 0.2293 0.16084 0.0
O25 O 0.73128 0.2526 0.15597 0.0
C26 C 0.78431 0.28748 0.04128 0.0
C27 C 0.73192 0.23462 0.17547 0.0
C28 C 0.54371 0.78394 0.13648 0.0
C29 C 0.55143 0.74201 0.97477 0.0
O30 O 0.56292 0.78597 0.11896 0.0
Zn31 Zn 0.54811 0.76245 0.0569 0.0
O32 O 0.52344 0.76916 0.11084 0.0
Zn33 Zn 0.51007 0.74398 0.04036 0.0
O34 O 0.49029 0.7128 0.07157 0.0
O35 O 0.5289 0.72861 0.09457 0.0
O36 O 0.52963 0.73618 0.98199 0.0
O37 O 0.56822 0.75628 0.00983 0.0
O38 O 0.53488 0.78013 0.00376 0.0
O39 O 0.49532 0.75775 0.994 0.0
C40 C 0.50712 0.71147 0.09727 0.0
C41 C 0.51467 0.77652 0.98274 0.0
C42 C 0.80694 0.53019 0.00257 0.0
C43 C 0.75615 0.53611 0.13868 0.0
O44 O 0.81118 0.55195 0.01347 0.0
Zn45 Zn 0.79792 0.5706 0.06294 0.0
O46 O 0.7898 0.51246 0.0241 0.0
Zn47 Zn 0.78044 0.53193 0.06908 0.0
O48 O 0.76373 0.54366 0.01071 0.0
O49 O 0.78452 0.58382 0.01176 0.0
O50 O 0.75554 0.51678 0.12017 0.0
O51 O 0.7711 0.55661 0.12082 0.0
O52 O 0.82672 0.5924 0.10773 0.0
O53 O 0.81225 0.55345 0.1219 0.0
C54 C 0.76669 0.56363 0.99306 0.0
C55 C 0.82826 0.57591 0.13239 0.0
C56 C 0.21762 0.73904 0.16418 0.0
C57 C 0.25456 0.78115 0.0011 0.0
O58 O 0.21444 0.75701 0.15484 0.0
Zn59 Zn 0.22335 0.784 0.09695 0.0
O60 O 0.22924 0.73341 0.13151 0.0
Zn61 Zn 0.23632 0.75882 0.08138 0.0
O62 O 0.26002 0.79076 0.13078 0.0
O63 O 0.24388 0.81411 0.14174 0.0
O64 O 0.25549 0.76296 0.01852 0.0
O65 O 0.2433 0.78983 0.02687 0.0
O66 O 0.19228 0.77669 0.06348 0.0
O67 O 0.20177 0.74825 0.04427 0.0
C68 C 0.26138 0.81037 0.15076 0.0
C69 C 0.18709 0.75628 0.03989 0.0
C70 C 0.44904 0.25152 0.24611 0.0
C71 C 0.46691 0.20488 0.11129 0.0
O72 O 0.4715 0.26005 0.2402 0.0
Zn73 Zn 0.49461 0.25267 0.1933 0.0
O74 O 0.43356 0.2329 0.21639 0.0
Zn75 Zn 0.45661 0.22794 0.17672 0.0
O76 O 0.47351 0.219 0.24174 0.0
O77 O 0.5124 0.24588 0.24972 0.0
O78 O 0.44608 0.20027 0.12354 0.0
O79 O 0.4855 0.22357 0.13445 0.0
O80 O 0.51041 0.28118 0.15053 0.0
O81 O 0.47175 0.25826 0.12636 0.0
C82 C 0.49442 0.22692 0.26551 0.0
C83 C 0.49216 0.2771 0.11992 0.0
C84 C 0.04604 0.48903 0.54218 0.0
C85 C 0.02923 0.4506 0.73375 0.0
C86 C 0.9633 0.45333 0.71339 0.0
Mg87 Mg 0.02717 0.52284 0.48804 0.0
Mg88 Mg 0.01694 0.55943 0.567 0.0
O89 O 0.0089 0.52715 0.54787 0.0
Mg90 Mg 0.01522 0.50915 0.60532 0.0
O91 O 0.02171 0.48954 0.65798 0.0
Mg92 Mg 0.00205 0.45611 0.6192 0.0
Mg93 Mg 0.01632 0.49182 0.73155 0.0
C94 C 0.98345 0.53087 0.66183 0.0
O95 O 0.04276 0.54417 0.65814 0.0
O96 O 0.01039 0.54054 0.4325 0.0
O97 O 0.03589 0.53126 0.74347 0.0
O98 O 0.06024 0.56055 0.50664 0.0
O99 O 0.00464 0.56544 0.49034 0.0
O100 O 0.05549 0.58344 0.57026 0.0
O101 O 0.98758 0.47346 0.55861 0.0
O102 O 0.99442 0.48457 0.47304 0.0
C103 C 0.98306 0.46842 0.5069 0.0
C104 C 0.00378 0.55636 0.44223 0.0
O105 O 0.98755 0.51306 0.65542 0.0
O106 O 0.01969 0.44312 0.6847 0.0
O107 O 0.994 0.55035 0.63579 0.0
O108 O 0.96916 0.44466 0.67259 0.0
O109 O 0.0301 0.46912 0.75912 0.0
O110 O 0.97851 0.47321 0.73972 0.0
O111 O 0.04203 0.50668 0.5515 0.0
O112 O 0.03426 0.4689 0.56515 0.0
C113 C 0.0686 0.58014 0.53723 0.0
C114 C 0.04552 0.54833 0.71052 0.0
C115 C 0.49533 0.03389 0.52793 0.0
C116 C 0.56406 0.02847 0.44101 0.0
C117 C 0.53002 0.95455 0.49784 0.0
Mg118 Mg 0.46463 0.00748 0.63166 0.0
Mg119 Mg 0.48977 0.99339 0.73177 0.0
O120 O 0.4808 0.98915 0.65678 0.0
Mg121 Mg 0.50618 0.99898 0.60415 0.0
O122 O 0.52991 0.00909 0.54706 0.0
Mg123 Mg 0.50781 0.99277 0.4797 0.0
Mg124 Mg 0.55718 0.00571 0.55365 0.0
C125 C 0.5158 0.96507 0.68911 0.0
O126 O 0.53762 0.02544 0.6661 0.0
O127 O 0.43464 0.98318 0.68911 0.0
O128 O 0.56865 0.02179 0.63669 0.0
O129 O 0.48302 0.03771 0.70074 0.0
O130 O 0.4536 0.9743 0.75588 0.0
O131 O 0.50539 0.0309 0.76095 0.0
O132 O 0.47744 0.97283 0.53781 0.0
O133 O 0.44739 0.97853 0.56169 0.0
C134 C 0.45589 0.96876 0.52968 0.0
C135 C 0.43447 0.97245 0.73275 0.0
O136 O 0.51374 0.96934 0.63874 0.0
O137 O 0.54109 0.01685 0.43099 0.0
O138 O 0.51022 0.97468 0.7289 0.0
O139 O 0.51616 0.96118 0.47497 0.0
O140 O 0.5741 0.02681 0.4856 0.0
O141 O 0.54648 0.96833 0.53428 0.0
O142 O 0.49683 0.02813 0.57694 0.0
O143 O 0.49944 0.02352 0.48733 0.0
C144 C 0.49757 0.04444 0.74312 0.0
C145 C 0.55936 0.02952 0.67206 0.0
C146 C 0.52782 0.55108 0.66863 0.0
C147 C 0.464 0.48523 0.79004 0.0
C148 C 0.49226 0.44033 0.73081 0.0
Mg149 Mg 0.54677 0.54358 0.55387 0.0
Mg150 Mg 0.51342 0.49661 0.46848 0.0
O151 O 0.52748 0.50721 0.53976 0.0
Mg152 Mg 0.50719 0.49809 0.60428 0.0
O153 O 0.48902 0.49121 0.67159 0.0
Mg154 Mg 0.51584 0.50187 0.72991 0.0
Mg155 Mg 0.46246 0.45998 0.67685 0.0
C156 C 0.48755 0.44686 0.52881 0.0
O157 O 0.47259 0.49048 0.55614 0.0
O158 O 0.57032 0.5429 0.48431 0.0
O159 O 0.4445 0.45829 0.5979 0.0
O160 O 0.52354 0.55123 0.49138 0.0
O161 O 0.54653 0.50929 0.42941 0.0
O162 O 0.49707 0.51739 0.44237 0.0
O163 O 0.53986 0.50435 0.6589 0.0
O164 O 0.56837 0.5354 0.617 0.0
C165 C 0.56197 0.52032 0.65457 0.0
C166 C 0.56698 0.52827 0.44276 0.0
O167 O 0.49333 0.45737 0.57749 0.0
O168 O 0.48712 0.49829 0.79106 0.0
O169 O 0.49209 0.45866 0.48535 0.0
O170 O 0.50719 0.46266 0.74524 0.0
O171 O 0.45136 0.46963 0.75044 0.0
O172 O 0.47391 0.43439 0.69829 0.0
O173 O 0.5213 0.53883 0.62237 0.0
O174 O 0.52576 0.54076 0.71344 0.0
C175 C 0.50602 0.54007 0.45511 0.0
C176 C 0.45092 0.4729 0.55905 0.0
H177 H 0.18323 0.45433 0.24544 0.0
H178 H 0.15607 0.45896 0.30487 0.0
H179 H 0.18964 0.53521 0.27556 0.0
H180 H 0.217 0.53076 0.21547 0.0
H181 H 0.16923 0.49137 0.40097 0.0
H182 H 0.1165 0.50882 0.2417 0.0
H183 H 0.13479 0.49553 0.22504 0.0
H184 H 0.1487 0.52752 0.24392 0.0
C185 C 0.18487 0.47212 0.25138 0.0
C186 C 0.20229 0.49218 0.2255 0.0
C187 C 0.16931 0.47471 0.28546 0.0
C188 C 0.17067 0.49735 0.29416 0.0
C189 C 0.18807 0.51749 0.26872 0.0
H190 H 0.07708 0.52955 0.49037 0.0
H191 H 0.10865 0.53391 0.43138 0.0
C192 C 0.20376 0.51494 0.23463 0.0
C193 C 0.15407 0.49966 0.3309 0.0
H194 H 0.10552 0.508 0.3323 0.0
C195 C 0.15539 0.49516 0.38606 0.0
C196 C 0.13616 0.50479 0.31138 0.0
C197 C 0.13371 0.50931 0.25223 0.0
C198 C 0.13903 0.49522 0.42208 0.0
C199 C 0.12051 0.49937 0.40214 0.0
C200 C 0.11967 0.50472 0.34741 0.0
C201 C 0.1011 0.49682 0.43677 0.0
C202 C 0.14171 0.49079 0.48123 0.0
C203 C 0.08605 0.47442 0.45833 0.0
C204 C 0.06807 0.47189 0.49196 0.0
C205 C 0.06456 0.49168 0.50449 0.0
C206 C 0.07928 0.51398 0.48168 0.0
C207 C 0.09735 0.51649 0.44797 0.0
H208 H 0.16039 0.49527 0.49329 0.0
H209 H 0.13683 0.50174 0.50866 0.0
H210 H 0.12958 0.47124 0.48743 0.0
H211 H 0.08826 0.45884 0.44918 0.0
H212 H 0.05698 0.45438 0.50834 0.0
H213 H 0.68508 0.22402 0.17806 0.0
H214 H 0.65303 0.19049 0.22403 0.0
H215 H 0.70502 0.17386 0.29606 0.0
H216 H 0.73685 0.20695 0.25034 0.0
H217 H 0.64313 0.13997 0.20579 0.0
H218 H 0.66427 0.17338 0.42428 0.0
H219 H 0.67435 0.19361 0.36931 0.0
H220 H 0.6898 0.17768 0.38855 0.0
C221 C 0.68971 0.21362 0.20495 0.0
C222 C 0.71342 0.21807 0.21074 0.0
C223 C 0.6714 0.19441 0.2308 0.0
C224 C 0.67673 0.17983 0.26358 0.0
C225 C 0.70059 0.18508 0.27147 0.0
H226 H 0.61292 0.0513 0.43833 0.0
H227 H 0.63853 0.08725 0.38994 0.0
C228 C 0.71874 0.20396 0.24523 0.0
C229 C 0.65742 0.15774 0.2859 0.0
H230 H 0.63897 0.13051 0.40527 0.0
C231 C 0.64186 0.13793 0.24939 0.0
C232 C 0.65604 0.1552 0.34271 0.0
C233 C 0.67186 0.17615 0.3836 0.0
C234 C 0.62569 0.11519 0.26829 0.0
C235 C 0.62483 0.11244 0.3252 0.0
C236 C 0.63981 0.13257 0.36163 0.0
C237 C 0.60905 0.08879 0.3483 0.0
C238 C 0.61052 0.09408 0.22721 0.0
C239 C 0.58394 0.07726 0.3397 0.0
C240 C 0.5692 0.05648 0.36689 0.0
C241 C 0.57934 0.0471 0.40383 0.0
C242 C 0.60451 0.05807 0.41033 0.0
C243 C 0.61919 0.07869 0.38286 0.0
H244 H 0.61758 0.0976 0.18599 0.0
H245 H 0.6096 0.0771 0.24027 0.0
H246 H 0.59196 0.09108 0.22385 0.0
H247 H 0.57571 0.08496 0.31396 0.0
H248 H 0.5499 0.04866 0.36134 0.0
H249 H 0.53965 0.70123 0.14589 0.0
H250 H 0.53211 0.66817 0.2039 0.0
H251 H 0.45594 0.64155 0.18459 0.0
H252 H 0.46332 0.67483 0.12603 0.0
H253 H 0.47508 0.64574 0.29613 0.0
H254 H 0.50246 0.59502 0.15511 0.0
H255 H 0.52403 0.62697 0.16501 0.0
H256 H 0.49482 0.61722 0.13239 0.0
C257 C 0.52124 0.68832 0.15358 0.0
C258 C 0.50208 0.69069 0.13106 0.0
C259 C 0.51697 0.66933 0.18664 0.0
C260 C 0.49346 0.65221 0.19807 0.0
C261 C 0.47422 0.65449 0.176 0.0
H262 H 0.47313 0.52429 0.36638 0.0
H263 H 0.46532 0.54947 0.30507 0.0
C264 C 0.47847 0.67348 0.14245 0.0
C265 C 0.48936 0.63246 0.23439 0.0
H266 H 0.50052 0.58561 0.2488 0.0
C267 C 0.4803 0.63235 0.28553 0.0
C268 C 0.49588 0.6148 0.22031 0.0
C269 C 0.50463 0.61328 0.16501 0.0
C270 C 0.47876 0.61583 0.32399 0.0
C271 C 0.4867 0.59916 0.31114 0.0
C272 C 0.49458 0.59848 0.25891 0.0
C273 C 0.48866 0.58345 0.35219 0.0
C274 C 0.46891 0.61657 0.37828 0.0
C275 C 0.50401 0.59407 0.39969 0.0
C276 C 0.50855 0.57976 0.4348 0.0
C277 C 0.49796 0.55447 0.42301 0.0
C278 C 0.48166 0.54369 0.37675 0.0
C279 C 0.47719 0.55807 0.34153 0.0
H280 H 0.4569 0.62446 0.37547 0.0
H281 H 0.45876 0.59808 0.39348 0.0
H282 H 0.48405 0.62823 0.40865 0.0
H283 H 0.51341 0.61364 0.40838 0.0
H284 H 0.52118 0.58874 0.46996 0.0
H285 H 0.87337 0.61608 0.135 0.0
H286 H 0.90989 0.62124 0.18412 0.0
H287 H 0.86742 0.55354 0.25866 0.0
H288 H 0.83113 0.54831 0.21036 0.0
H289 H 0.90341 0.59302 0.33029 0.0
H290 H 0.93805 0.57627 0.13853 0.0
H291 H 0.93021 0.59985 0.14074 0.0
H292 H 0.90711 0.56863 0.1424 0.0
C293 C 0.87182 0.60262 0.16285 0.0
C294 C 0.84948 0.58172 0.16869 0.0
C295 C 0.89267 0.60547 0.19034 0.0
C296 C 0.89127 0.58754 0.22412 0.0
C297 C 0.86882 0.56747 0.23243 0.0
H298 H 0.97372 0.52874 0.35407 0.0
H299 H 0.95005 0.54033 0.29413 0.0
C300 C 0.84812 0.56453 0.20485 0.0
C301 C 0.91302 0.58867 0.2495 0.0
H302 H 0.95894 0.5784 0.22136 0.0
C303 C 0.91586 0.59029 0.30662 0.0
C304 C 0.92886 0.58467 0.21813 0.0
C305 C 0.92599 0.5821 0.15652 0.0
C306 C 0.93367 0.58718 0.33348 0.0
C307 C 0.94934 0.58283 0.30219 0.0
C308 C 0.94697 0.58191 0.245 0.0
C309 C 0.96709 0.57754 0.32878 0.0
C310 C 0.93472 0.58732 0.39509 0.0
C311 C 0.98527 0.595 0.36566 0.0
C312 C 0.99844 0.58835 0.40016 0.0
C313 C 0.99395 0.56426 0.3975 0.0
C314 C 0.97747 0.54741 0.35676 0.0
C315 C 0.96398 0.55401 0.32266 0.0
H316 H 0.91827 0.58577 0.41195 0.0
H317 H 0.93702 0.57211 0.40899 0.0
H318 H 0.95035 0.60468 0.41248 0.0
H319 H 0.98821 0.61336 0.37016 0.0
H320 H 0.01133 0.60175 0.43085 0.0
H321 H 0.2717 0.85373 0.20505 0.0
H322 H 0.3088 0.88207 0.26033 0.0
H323 H 0.33825 0.8355 0.22446 0.0
H324 H 0.30157 0.80719 0.17027 0.0
H325 H 0.34208 0.84872 0.33413 0.0
H326 H 0.37589 0.92938 0.21055 0.0
H327 H 0.34542 0.91751 0.22853 0.0
H328 H 0.35282 0.89933 0.18425 0.0
C329 C 0.28614 0.84964 0.20876 0.0
C330 C 0.28362 0.82818 0.18335 0.0
C331 C 0.30736 0.8659 0.23998 0.0
C332 C 0.32635 0.86097 0.24583 0.0
C333 C 0.32386 0.83967 0.22027 0.0
H334 H 0.45987 0.9351 0.46288 0.0
H335 H 0.43127 0.90877 0.38683 0.0
C336 C 0.30279 0.82349 0.18933 0.0
C337 C 0.34837 0.87721 0.28093 0.0
H338 H 0.39539 0.93547 0.29923 0.0
C339 C 0.35393 0.86762 0.32622 0.0
C340 C 0.36385 0.90174 0.27003 0.0
C341 C 0.35938 0.9126 0.22042 0.0
C342 C 0.37397 0.88225 0.36247 0.0
C343 C 0.38901 0.907 0.35259 0.0
C344 C 0.38389 0.9164 0.30635 0.0
C345 C 0.40795 0.92412 0.3938 0.0
C346 C 0.37824 0.87147 0.41251 0.0
C347 C 0.40462 0.94181 0.42134 0.0
C348 C 0.42067 0.95662 0.46432 0.0
C349 C 0.44056 0.95419 0.48068 0.0
C350 C 0.44462 0.93725 0.45138 0.0
C351 C 0.4283 0.92219 0.4082 0.0
H352 H 0.36303 0.85293 0.41791 0.0
H353 H 0.39473 0.8702 0.40876 0.0
H354 H 0.38105 0.88333 0.44975 0.0
H355 H 0.38908 0.94362 0.41075 0.0
H356 H 0.41718 0.96975 0.48538 0.0
H357 H 0.40368 0.23748 0.28035 0.0
H358 H 0.39359 0.25808 0.35316 0.0
H359 H 0.46855 0.31273 0.38027 0.0
H360 H 0.47869 0.29252 0.30946 0.0
H361 H 0.44504 0.29523 0.47819 0.0
H362 H 0.39494 0.32333 0.33532 0.0
H363 H 0.38603 0.29164 0.33834 0.0
H364 H 0.41355 0.31198 0.30898 0.0
C365 C 0.41793 0.25388 0.302 0.0
C366 C 0.44197 0.2634 0.28885 0.0
C367 C 0.41215 0.26556 0.34359 0.0
C368 C 0.43035 0.28688 0.37223 0.0
C369 C 0.45424 0.29614 0.35923 0.0
H370 H 0.49109 0.4212 0.44342 0.0
H371 H 0.46839 0.37755 0.42182 0.0
C372 C 0.45998 0.2846 0.31824 0.0
C373 C 0.4254 0.30124 0.41336 0.0
H374 H 0.41422 0.34837 0.41487 0.0
C375 C 0.43734 0.30623 0.46554 0.0
C376 C 0.41507 0.31532 0.39699 0.0
C377 C 0.40164 0.31045 0.34192 0.0
C378 C 0.44242 0.32716 0.49806 0.0
C379 C 0.43512 0.34314 0.47788 0.0
C380 C 0.41994 0.33608 0.42986 0.0
C381 C 0.44882 0.36942 0.49492 0.0
C382 C 0.4582 0.33373 0.55018 0.0
C383 C 0.44581 0.37929 0.54422 0.0
C384 C 0.4591 0.40458 0.55709 0.0
C385 C 0.4753 0.42006 0.52051 0.0
C386 C 0.47858 0.40982 0.47218 0.0
C387 C 0.46556 0.38486 0.45966 0.0
H388 H 0.46063 0.31841 0.56275 0.0
H389 H 0.47615 0.3496 0.54439 0.0
H390 H 0.45028 0.33905 0.58364 0.0
H391 H 0.43299 0.36757 0.57199 0.0
H392 H 0.45609 0.41206 0.59435 0.0
H393 H 0.47593 0.77373 0.92376 0.0
H394 H 0.47629 0.80249 0.85935 0.0
H395 H 0.55303 0.84752 0.89125 0.0
H396 H 0.55292 0.81886 0.95458 0.0
H397 H 0.48968 0.84981 0.87908 0.0
H398 H 0.54727 0.84312 0.72614 0.0
H399 H 0.53414 0.82124 0.77712 0.0
H400 H 0.56136 0.8498 0.79401 0.0
C401 C 0.49289 0.78969 0.91683 0.0
C402 C 0.51439 0.79392 0.94433 0.0
C403 C 0.49308 0.80608 0.87986 0.0
C404 C 0.51477 0.82691 0.86942 0.0
C405 C 0.53618 0.83124 0.89724 0.0
H406 H 0.54012 0.96497 0.7816 0.0
H407 H 0.54048 0.92991 0.81798 0.0
C408 C 0.53602 0.81491 0.934 0.0
C409 C 0.51495 0.8451 0.83267 0.0
H410 H 0.543 0.87884 0.72563 0.0
C411 C 0.50107 0.85585 0.84504 0.0
C412 C 0.52959 0.85286 0.78773 0.0
C413 C 0.54373 0.84096 0.77007 0.0
C414 C 0.50232 0.87491 0.81559 0.0
C415 C 0.51815 0.88374 0.77307 0.0
C416 C 0.53115 0.87225 0.75874 0.0
C417 C 0.52223 0.90585 0.74593 0.0
C418 C 0.48703 0.88584 0.83093 0.0
C419 C 0.51325 0.90435 0.69189 0.0
C420 C 0.51325 0.92458 0.67059 0.0
C421 C 0.52208 0.94639 0.70338 0.0
C422 C 0.53298 0.94833 0.75557 0.0
C423 C 0.53312 0.92829 0.77653 0.0
H424 H 0.47175 0.87337 0.85452 0.0
H425 H 0.49822 0.90298 0.85672 0.0
H426 H 0.47981 0.89026 0.79397 0.0
H427 H 0.50491 0.88718 0.66753 0.0
H428 H 0.50464 0.92254 0.63034 0.0
H429 H 0.75105 0.59644 0.98874 0.0
H430 H 0.71434 0.5903 0.93907 0.0
H431 H 0.70329 0.52264 0.86325 0.0
H432 H 0.73915 0.52814 0.91464 0.0
H433 H 0.69914 0.58581 0.83704 0.0
H434 H 0.6401 0.49915 0.92733 0.0
H435 H 0.67112 0.51862 0.95174 0.0
H436 H 0.6633 0.49717 0.89355 0.0
C437 C 0.74092 0.58046 0.96082 0.0
C438 C 0.74773 0.56266 0.95569 0.0
C439 C 0.71989 0.57687 0.93283 0.0
C440 C 0.7056 0.55555 0.89899 0.0
C441 C 0.71345 0.5387 0.89089 0.0
H442 H 0.60727 0.53284 0.63303 0.0
H443 H 0.64067 0.54158 0.69791 0.0
C444 C 0.73412 0.54202 0.91962 0.0
C445 C 0.68257 0.55087 0.87164 0.0
H446 H 0.62398 0.50647 0.84407 0.0
C447 C 0.68264 0.5686 0.83922 0.0
C448 C 0.66077 0.52875 0.87589 0.0
C449 C 0.65875 0.51 0.91458 0.0
C450 C 0.66191 0.5642 0.80824 0.0
C451 C 0.64083 0.54108 0.80806 0.0
C452 C 0.6403 0.52396 0.84319 0.0
C453 C 0.61985 0.53387 0.76905 0.0
C454 C 0.66291 0.58438 0.77586 0.0
C455 C 0.59661 0.5249 0.78704 0.0
C456 C 0.57721 0.51917 0.74956 0.0
C457 C 0.58097 0.5226 0.69389 0.0
C458 C 0.60399 0.53044 0.67591 0.0
C459 C 0.62314 0.53569 0.713 0.0
H460 H 0.67619 0.60256 0.79555 0.0
H461 H 0.66872 0.58309 0.73453 0.0
H462 H 0.6451 0.58323 0.77147 0.0
H463 H 0.59362 0.52297 0.83011 0.0
H464 H 0.55961 0.51314 0.76435 0.0
H465 H 0.15221 0.71051 0.05311 0.0
H466 H 0.12317 0.68183 0.98154 0.0
H467 H 0.14532 0.73981 0.87254 0.0
H468 H 0.17419 0.76881 0.94498 0.0
H469 H 0.08486 0.68509 0.89445 0.0
H470 H 0.16597 0.68518 0.8214 0.0
H471 H 0.16522 0.69349 0.89215 0.0
H472 H 0.16681 0.71336 0.84059 0.0
C473 C 0.15002 0.71731 0.01476 0.0
C474 C 0.16506 0.74179 0.00451 0.0
C475 C 0.13355 0.70095 0.9739 0.0
C476 C 0.13224 0.70876 0.92191 0.0
C477 C 0.14601 0.73357 0.91266 0.0
H478 H 0.0775 0.59007 0.66318 0.0
H479 H 0.0967 0.63211 0.7032 0.0
C480 C 0.1623 0.75009 0.95403 0.0
C481 C 0.11944 0.69015 0.8763 0.0
H482 H 0.12829 0.6527 0.78881 0.0
C483 C 0.09431 0.67831 0.87024 0.0
C484 C 0.1319 0.68156 0.84455 0.0
C485 C 0.15898 0.69395 0.8496 0.0
C486 C 0.08119 0.65717 0.83529 0.0
C487 C 0.09357 0.64724 0.8074 0.0
C488 C 0.11879 0.66017 0.81047 0.0
C489 C 0.08089 0.62216 0.78095 0.0
C490 C 0.05416 0.64533 0.82983 0.0
C491 C 0.06615 0.6026 0.81163 0.0
C492 C 0.055 0.57875 0.78871 0.0
C493 C 0.05855 0.57378 0.73461 0.0
C494 C 0.07384 0.59333 0.70426 0.0
C495 C 0.08492 0.61733 0.72724 0.0
H496 H 0.04847 0.65917 0.83477 0.0
H497 H 0.04658 0.63502 0.78962 0.0
H498 H 0.04643 0.63258 0.86259 0.0
H499 H 0.06348 0.60571 0.85381 0.0
H500 H 0.04344 0.56421 0.81353 0.0
H501 H 0.43272 0.16475 0.04728 0.0
H502 H 0.43991 0.13923 0.98156 0.0
H503 H 0.5163 0.18376 0.02041 0.0
H504 H 0.50944 0.20935 0.08471 0.0
H505 H 0.50499 0.17455 0.91032 0.0
H506 H 0.45997 0.08931 0.0188 0.0
H507 H 0.44145 0.10232 0.00243 0.0
H508 H 0.46719 0.11856 0.05028 0.0
C509 C 0.45101 0.16903 0.04177 0.0
C510 C 0.47046 0.18905 0.07135 0.0
C511 C 0.45509 0.1544 0.00446 0.0
C512 C 0.47865 0.15947 0.99662 0.0
C513 C 0.498 0.17951 0.02581 0.0
H514 H 0.51879 0.05983 0.84714 0.0
H515 H 0.51738 0.09049 0.90805 0.0
C516 C 0.49398 0.19411 0.06271 0.0
C517 C 0.48353 0.14419 0.95796 0.0
H518 H 0.47443 0.08684 0.93309 0.0
C519 C 0.49831 0.15536 0.91524 0.0
C520 C 0.47516 0.1193 0.96513 0.0
C521 C 0.46024 0.10664 0.01188 0.0
C522 C 0.50477 0.14223 0.87914 0.0
C523 C 0.49587 0.11718 0.88544 0.0
C524 C 0.48126 0.10607 0.92842 0.0
C525 C 0.50053 0.10178 0.84665 0.0
C526 C 0.52137 0.15539 0.8352 0.0
C527 C 0.4923 0.0986 0.79155 0.0
C528 C 0.49322 0.08125 0.75662 0.0
C529 C 0.50211 0.06649 0.77631 0.0
C530 C 0.51181 0.07084 0.83066 0.0
C531 C 0.51089 0.08826 0.86561 0.0
H532 H 0.53221 0.1753 0.84602 0.0
H533 H 0.53376 0.1483 0.82785 0.0
H534 H 0.51049 0.15262 0.79655 0.0
H535 H 0.48393 0.10856 0.77619 0.0
H536 H 0.48568 0.07846 0.71494 0.0
H537 H 0.31911 0.53319 0.05467 0.0
H538 H 0.35592 0.53848 0.01629 0.0
H539 H 0.32237 0.46074 0.98315 0.0
H540 H 0.28587 0.45526 0.02208 0.0
H541 H 0.36731 0.481 0.03825 0.0
H542 H 0.37035 0.53258 0.85759 0.0
H543 H 0.36818 0.54525 0.92243 0.0
H544 H 0.34363 0.51662 0.89439 0.0
C545 C 0.31946 0.51727 0.03837 0.0
C546 C 0.29953 0.4938 0.04142 0.0
C547 C 0.34051 0.52033 0.01641 0.0
C548 C 0.34186 0.50001 0.99662 0.0
C549 C 0.32176 0.47667 0.99834 0.0
H550 H 0.42159 0.45153 0.82629 0.0
H551 H 0.39591 0.45857 0.88587 0.0
C552 C 0.30085 0.47359 0.02045 0.0
C553 C 0.36435 0.50257 0.97602 0.0
H554 H 0.40125 0.52328 0.87094 0.0
C555 C 0.37488 0.49047 0.00199 0.0
C556 C 0.37438 0.51515 0.92905 0.0
C557 C 0.36353 0.52802 0.89884 0.0
C558 C 0.39451 0.48977 0.98101 0.0
C559 C 0.40376 0.50131 0.93259 0.0
C560 C 0.39413 0.51452 0.90822 0.0
C561 C 0.42102 0.49705 0.90261 0.0
C562 C 0.40481 0.47612 0.00994 0.0
C563 C 0.44385 0.51634 0.8928 0.0
C564 C 0.45879 0.51229 0.85901 0.0
C565 C 0.45078 0.48901 0.8337 0.0
C566 C 0.42825 0.46966 0.84523 0.0
C567 C 0.41357 0.47363 0.87942 0.0
H568 H 0.40071 0.47449 0.05361 0.0
H569 H 0.39676 0.45746 0.99011 0.0
H570 H 0.42461 0.48527 0.00746 0.0
H571 H 0.44982 0.53458 0.91007 0.0
H572 H 0.47594 0.52758 0.85032 0.0
H573 H 0.78173 0.32686 0.00591 0.0
H574 H 0.80788 0.35656 0.94314 0.0
H575 H 0.84596 0.31714 0.92364 0.0
H576 H 0.82027 0.28767 0.98606 0.0
H577 H 0.87551 0.36744 0.95258 0.0
H578 H 0.81121 0.34941 0.77437 0.0
H579 H 0.80244 0.35408 0.84043 0.0
H580 H 0.80516 0.32769 0.82546 0.0
C581 C 0.79553 0.32441 0.98782 0.0
C582 C 0.79894 0.30492 0.00122 0.0
C583 C 0.81036 0.34131 0.95175 0.0
C584 C 0.82871 0.33891 0.92842 0.0
C585 C 0.83185 0.31928 0.94108 0.0
H586 H 0.9285 0.40623 0.68207 0.0
H587 H 0.89344 0.37982 0.73172 0.0
C588 C 0.81713 0.30246 0.9769 0.0
C589 C 0.84588 0.35756 0.89372 0.0
H590 H 0.85124 0.38133 0.76906 0.0
C591 C 0.87019 0.3706 0.91261 0.0
C592 C 0.83886 0.36144 0.84143 0.0
C593 C 0.81303 0.34735 0.81876 0.0
C594 C 0.88776 0.38723 0.88046 0.0
C595 C 0.8808 0.39124 0.82822 0.0
C596 C 0.85645 0.37833 0.8093 0.0
C597 C 0.89896 0.4081 0.79235 0.0
C598 C 0.91378 0.39984 0.90207 0.0
C599 C 0.91295 0.43296 0.80853 0.0
C600 C 0.93295 0.44811 0.78035 0.0
C601 C 0.93939 0.43863 0.73541 0.0
C602 C 0.92417 0.41411 0.71665 0.0
C603 C 0.9041 0.39897 0.74496 0.0
H604 H 0.91656 0.3909 0.93742 0.0
H605 H 0.92545 0.4001 0.86968 0.0
H606 H 0.91965 0.41898 0.91575 0.0
H607 H 0.9091 0.44036 0.84472 0.0
H608 H 0.94405 0.46694 0.79564 0.0
H609 H 0.85476 0.56017 0.00197 0.0
H610 H 0.88285 0.55641 0.9444 0.0
H611 H 0.82494 0.48907 0.86766 0.0
H612 H 0.79675 0.49214 0.92811 0.0
H613 H 0.86455 0.48612 0.88059 0.0
H614 H 0.88892 0.57293 0.7896 0.0
H615 H 0.89491 0.57776 0.86221 0.0
H616 H 0.86444 0.55894 0.83343 0.0
C617 C 0.84799 0.54453 0.97284 0.0
C618 C 0.82353 0.52665 0.96869 0.0
C619 C 0.86405 0.54247 0.93972 0.0
C620 C 0.85591 0.52294 0.90024 0.0
C621 C 0.83159 0.50448 0.89736 0.0
H622 H 0.948 0.54054 0.63647 0.0
H623 H 0.91529 0.53537 0.69169 0.0
C624 C 0.81551 0.50623 0.93173 0.0
C625 C 0.8729 0.52227 0.86181 0.0
H626 H 0.91588 0.55767 0.77742 0.0
C627 C 0.87558 0.50162 0.85741 0.0
C628 C 0.88697 0.54227 0.83059 0.0
C629 C 0.88346 0.56407 0.82871 0.0
C630 C 0.89243 0.50075 0.82393 0.0
C631 C 0.90768 0.52147 0.79574 0.0
C632 C 0.90452 0.54184 0.79936 0.0
C633 C 0.92667 0.52256 0.76111 0.0
C634 C 0.89335 0.47747 0.81867 0.0
C635 C 0.94405 0.51695 0.7812 0.0
C636 C 0.96242 0.51924 0.74875 0.0
C637 C 0.96422 0.52805 0.69661 0.0
C638 C 0.94711 0.53394 0.67684 0.0
C639 C 0.92839 0.53094 0.70841 0.0
H640 H 0.87584 0.46144 0.82675 0.0
H641 H 0.89818 0.47438 0.7774 0.0
H642 H 0.90705 0.47858 0.84942 0.0
H643 H 0.94375 0.51126 0.82227 0.0
H644 H 0.9756 0.51482 0.76496 0.0
H645 H 0.24209 0.80539 0.93099 0.0
H646 H 0.26792 0.83532 0.86929 0.0
H647 H 0.32352 0.81784 0.90649 0.0
H648 H 0.29741 0.78739 0.96792 0.0
H649 H 0.30973 0.87465 0.91099 0.0
H650 H 0.32775 0.82661 0.74214 0.0
H651 H 0.30275 0.81114 0.78436 0.0
H652 H 0.33248 0.81843 0.80882 0.0
C653 C 0.25955 0.80738 0.92472 0.0
C654 C 0.26784 0.79419 0.95442 0.0
C655 C 0.27429 0.82451 0.88949 0.0
C656 C 0.29764 0.82886 0.88328 0.0
C657 C 0.3054 0.81451 0.90995 0.0
H658 H 0.42697 0.95873 0.83684 0.0
H659 H 0.3911 0.92469 0.86943 0.0
C660 C 0.2905 0.79712 0.94505 0.0
C661 C 0.31477 0.85061 0.85558 0.0
H662 H 0.35441 0.86978 0.75561 0.0
C663 C 0.31924 0.87353 0.87651 0.0
C664 C 0.32702 0.84915 0.81037 0.0
C665 C 0.32213 0.825 0.78469 0.0
C666 C 0.3363 0.89506 0.85485 0.0
C667 C 0.34942 0.89367 0.81149 0.0
C668 C 0.34432 0.87076 0.789 0.0
C669 C 0.36999 0.91579 0.79245 0.0
C670 C 0.34043 0.91917 0.87909 0.0
C671 C 0.36985 0.9223 0.73849 0.0
C672 C 0.39035 0.94199 0.71977 0.0
C673 C 0.41137 0.9551 0.75455 0.0
C674 C 0.41105 0.94901 0.80908 0.0
C675 C 0.39056 0.92958 0.82781 0.0
H676 H 0.32478 0.91701 0.90102 0.0
H677 H 0.35634 0.92718 0.90886 0.0
H678 H 0.344 0.93217 0.84695 0.0
H679 H 0.35412 0.91178 0.7106 0.0
H680 H 0.39017 0.94607 0.67738 0.0
H681 H 0.45701 0.27063 0.0438 0.0
H682 H 0.45933 0.29713 0.97231 0.0
H683 H 0.5333 0.34759 0.02578 0.0
H684 H 0.53129 0.32077 0.09723 0.0
H685 H 0.46804 0.34337 0.98292 0.0
H686 H 0.53771 0.34024 0.86236 0.0
H687 H 0.5229 0.31927 0.91406 0.0
H688 H 0.54689 0.34969 0.9333 0.0
C689 C 0.47388 0.28729 0.04038 0.0
C690 C 0.494 0.29351 0.07639 0.0
C691 C 0.47515 0.30244 0.9993 0.0
C692 C 0.49656 0.32422 0.99298 0.0
C693 C 0.51672 0.33061 0.02894 0.0
H694 H 0.53063 0.44615 0.79578 0.0
H695 H 0.53192 0.41683 0.85538 0.0
C696 C 0.5155 0.31535 0.07008 0.0
C697 C 0.49719 0.34055 0.95025 0.0
H698 H 0.52545 0.36846 0.83734 0.0
C699 C 0.48051 0.34872 0.95093 0.0
C700 C 0.51348 0.34759 0.90845 0.0
C701 C 0.53113 0.33859 0.90399 0.0
C702 C 0.47986 0.36392 0.91163 0.0
C703 C 0.49612 0.37095 0.86985 0.0
C704 C 0.5129 0.36293 0.86918 0.0
C705 C 0.49645 0.38743 0.82802 0.0
C706 C 0.46213 0.37284 0.91589 0.0
C707 C 0.47647 0.38034 0.79103 0.0
C708 C 0.47567 0.39706 0.75658 0.0
C709 C 0.49484 0.42125 0.75864 0.0
C710 C 0.51545 0.42776 0.79329 0.0
C711 C 0.51625 0.41101 0.82748 0.0
H712 H 0.4545 0.37004 0.95652 0.0
H713 H 0.47076 0.3925 0.90857 0.0
H714 H 0.44707 0.36265 0.88435 0.0
H715 H 0.46113 0.36208 0.79014 0.0
H716 H 0.45955 0.39136 0.73037 0.0
H717 H 0.16969 0.39849 0.01983 0.0
H718 H 0.13635 0.38659 0.95111 0.0
H719 H 0.16481 0.46195 0.91763 0.0
H720 H 0.19818 0.47392 0.98516 0.0
H721 H 0.10277 0.40023 0.956 0.0
H722 H 0.148 0.42959 0.76493 0.0
H723 H 0.16265 0.42583 0.82511 0.0
H724 H 0.16234 0.45381 0.81743 0.0
C725 C 0.16908 0.41247 0.99705 0.0
C726 C 0.18656 0.43717 0.00804 0.0
C727 C 0.15003 0.40562 0.95781 0.0
C728 C 0.14832 0.42333 0.92859 0.0
C729 C 0.1661 0.44789 0.93857 0.0
H730 H 0.04578 0.45731 0.84054 0.0
H731 H 0.07034 0.44244 0.88292 0.0
C732 C 0.18508 0.45474 0.97766 0.0
C733 C 0.12676 0.4169 0.89225 0.0
H734 H 0.11061 0.43069 0.77068 0.0
C735 C 0.10432 0.40625 0.91486 0.0
C736 C 0.12859 0.42414 0.8381 0.0
C737 C 0.15168 0.43371 0.80984 0.0
C738 C 0.08425 0.40498 0.8868 0.0
C739 C 0.0869 0.41506 0.83545 0.0
C740 C 0.10866 0.42336 0.81052 0.0
C741 C 0.06896 0.42074 0.81109 0.0
C742 C 0.0607 0.39384 0.91353 0.0
C743 C 0.06006 0.41361 0.75635 0.0
C744 C 0.04608 0.42233 0.73161 0.0
C745 C 0.04109 0.43859 0.76112 0.0
C746 C 0.0493 0.44489 0.8165 0.0
C747 C 0.06316 0.43615 0.84108 0.0
H748 H 0.05882 0.37908 0.93936 0.0
H749 H 0.06022 0.408 0.94056 0.0
H750 H 0.04515 0.38631 0.88278 0.0
H751 H 0.06455 0.40192 0.73234 0.0
H752 H 0.04008 0.41716 0.68884 0.0
H753 H 0.70608 0.21154 0.98877 0.0
H754 H 0.67367 0.17815 0.93227 0.0
H755 H 0.71182 0.1383 0.93779 0.0
H756 H 0.74442 0.17169 0.99621 0.0
H757 H 0.67359 0.15852 0.83291 0.0
H758 H 0.64617 0.08884 0.98607 0.0
H759 H 0.66652 0.12082 0.00365 0.0
H760 H 0.67713 0.10252 0.97062 0.0
C761 C 0.70775 0.19575 0.97801 0.0
C762 C 0.72783 0.19424 0.99735 0.0
C763 C 0.68912 0.17664 0.94566 0.0
C764 C 0.6901 0.15557 0.93169 0.0
C765 C 0.71045 0.1542 0.94926 0.0
H766 H 0.59931 0.03025 0.71521 0.0
H767 H 0.62935 0.05993 0.78342 0.0
C768 C 0.72917 0.17337 0.98211 0.0
C769 C 0.66976 0.13536 0.89811 0.0
H770 H 0.62615 0.0755 0.89759 0.0
C771 C 0.66316 0.1404 0.84716 0.0
C772 C 0.65612 0.11178 0.91701 0.0
C773 C 0.66164 0.10563 0.97253 0.0
C774 C 0.64347 0.12243 0.81425 0.0
C775 C 0.62993 0.09887 0.83301 0.0
C776 C 0.63652 0.09371 0.88376 0.0
C777 C 0.60992 0.07901 0.79835 0.0
C778 C 0.63755 0.1286 0.75911 0.0
C779 C 0.58863 0.07944 0.78584 0.0
C780 C 0.5713 0.0624 0.74685 0.0
C781 C 0.57522 0.04491 0.71967 0.0
C782 C 0.59593 0.04372 0.7349 0.0
C783 C 0.61307 0.06058 0.77402 0.0
H784 H 0.65201 0.14646 0.74715 0.0
H785 H 0.63457 0.1143 0.72716 0.0
H786 H 0.62071 0.12937 0.76034 0.0
H787 H 0.58586 0.09349 0.80473 0.0
H788 H 0.55552 0.06375 0.736 0.0
H789 H 0.53142 0.73662 0.87261 0.0
H790 H 0.53433 0.71399 0.79313 0.0
H791 H 0.58421 0.70055 0.88718 0.0
H792 H 0.58237 0.72447 0.966 0.0
H793 H 0.59428 0.70556 0.77929 0.0
H794 H 0.49683 0.64133 0.79698 0.0
H795 H 0.50407 0.67169 0.78329 0.0
H796 H 0.51458 0.6661 0.84718 0.0
C797 C 0.54338 0.72923 0.87583 0.0
C798 C 0.55639 0.73185 0.92541 0.0
C799 C 0.54496 0.71626 0.83055 0.0
C800 C 0.55887 0.70493 0.83478 0.0
C801 C 0.57323 0.70902 0.88315 0.0
H802 H 0.56369 0.58328 0.74012 0.0
H803 H 0.57506 0.62556 0.76175 0.0
C804 C 0.57214 0.7226 0.92815 0.0
C805 C 0.55639 0.68667 0.7916 0.0
H806 H 0.51585 0.63063 0.73181 0.0
C807 C 0.57708 0.68933 0.76828 0.0
C808 C 0.53389 0.66549 0.77707 0.0
C809 C 0.51111 0.66079 0.80269 0.0
C810 C 0.57602 0.67087 0.73271 0.0
C811 C 0.55374 0.64929 0.72042 0.0
C812 C 0.53287 0.64735 0.74084 0.0
C813 C 0.55205 0.6267 0.69644 0.0
C814 C 0.59885 0.67421 0.71017 0.0
C815 C 0.5358 0.61341 0.65146 0.0
C816 C 0.52929 0.58908 0.63883 0.0
C817 C 0.53856 0.57773 0.67201 0.0
C818 C 0.55614 0.59161 0.71425 0.0
C819 C 0.56289 0.61589 0.72623 0.0
H820 H 0.61195 0.69381 0.70654 0.0
H821 H 0.6073 0.66699 0.73851 0.0
H822 H 0.59521 0.66429 0.6695 0.0
H823 H 0.52703 0.62138 0.62841 0.0
H824 H 0.51568 0.57868 0.60609 0.0
H825 H 0.52944 0.21492 0.28375 0.0
H826 H 0.52834 0.18515 0.34638 0.0
H827 H 0.46431 0.17899 0.41125 0.0
H828 H 0.4646 0.20748 0.34664 0.0
H829 H 0.52857 0.17913 0.45369 0.0
H830 H 0.43945 0.11028 0.35612 0.0
H831 H 0.45726 0.1397 0.3298 0.0
H832 H 0.43955 0.13634 0.38728 0.0
C833 C 0.5154 0.20746 0.31206 0.0
C834 C 0.49693 0.21318 0.30999 0.0
C835 C 0.51473 0.19044 0.3478 0.0
C836 C 0.49579 0.17921 0.38246 0.0
C837 C 0.4786 0.18667 0.38363 0.0
H838 H 0.49836 0.07058 0.59893 0.0
H839 H 0.49647 0.1068 0.57338 0.0
C840 C 0.4789 0.20312 0.34704 0.0
C841 C 0.493 0.15845 0.41398 0.0
H842 H 0.45458 0.09811 0.42949 0.0
C843 C 0.51235 0.16143 0.44869 0.0
C844 C 0.47186 0.13525 0.40718 0.0
C845 C 0.45095 0.13007 0.36771 0.0
C846 C 0.51143 0.14175 0.47533 0.0
C847 C 0.49032 0.11858 0.46826 0.0
C848 C 0.47066 0.11591 0.43539 0.0
C849 C 0.48945 0.09608 0.48671 0.0
C850 C 0.53353 0.14563 0.50831 0.0
C851 C 0.48491 0.07749 0.44717 0.0
C852 C 0.48552 0.05683 0.46165 0.0
C853 C 0.49088 0.05414 0.51618 0.0
C854 C 0.49427 0.07214 0.55655 0.0
C855 C 0.49351 0.09298 0.54189 0.0
H856 H 0.54962 0.16339 0.50155 0.0
H857 H 0.53034 0.14536 0.55241 0.0
H858 H 0.53747 0.13085 0.49783 0.0
H859 H 0.4816 0.07928 0.40443 0.0
H860 H 0.48253 0.04326 0.42942 0.0
H861 H 0.26001 0.41945 0.25563 0.0
H862 H 0.2919 0.42046 0.31582 0.0
H863 H 0.33243 0.49873 0.31479 0.0
H864 H 0.30079 0.49803 0.25504 0.0
H865 H 0.3568 0.47039 0.28373 0.0
H866 H 0.31329 0.44869 0.48128 0.0
H867 H 0.29593 0.43027 0.42084 0.0
H868 H 0.30415 0.46176 0.42779 0.0
C869 C 0.27552 0.4369 0.26892 0.0
C870 C 0.27789 0.45865 0.25048 0.0
C871 C 0.29368 0.43743 0.30323 0.0
C872 C 0.3144 0.45967 0.31949 0.0
C873 C 0.31652 0.48141 0.3025 0.0
H874 H 0.45204 0.50666 0.49152 0.0
H875 H 0.41929 0.50261 0.42983 0.0
C876 C 0.29837 0.48094 0.26854 0.0
C877 C 0.3345 0.46028 0.35191 0.0
H878 H 0.35178 0.45298 0.47943 0.0
C879 C 0.35579 0.46656 0.32652 0.0
C880 C 0.33288 0.45513 0.40742 0.0
C881 C 0.31043 0.4487 0.43635 0.0
C882 C 0.37564 0.4677 0.35536 0.0
C883 C 0.37423 0.463 0.41133 0.0
C884 C 0.3528 0.45654 0.43649 0.0
C885 C 0.39479 0.46498 0.44509 0.0
C886 C 0.3977 0.47348 0.32532 0.0
C887 C 0.39183 0.44528 0.47452 0.0
C888 C 0.41035 0.44766 0.51043 0.0
C889 C 0.43224 0.4698 0.51742 0.0
C890 C 0.43547 0.4893 0.48662 0.0
C891 C 0.4168 0.48698 0.45114 0.0
H892 H 0.39326 0.46906 0.28063 0.0
H893 H 0.41083 0.49326 0.33176 0.0
H894 H 0.40641 0.46329 0.34045 0.0
H895 H 0.37499 0.42815 0.47042 0.0
H896 H 0.40739 0.43226 0.5333 0.0
H897 H 0.81262 0.31177 0.23019 0.0
H898 H 0.84384 0.33788 0.29999 0.0
H899 H 0.8689 0.28626 0.30493 0.0
H900 H 0.83781 0.26006 0.23318 0.0
H901 H 0.85368 0.33079 0.40429 0.0
H902 H 0.92951 0.3485 0.27588 0.0
H903 H 0.89878 0.3335 0.24783 0.0
H904 H 0.90926 0.31729 0.28854 0.0
C905 C 0.82469 0.30584 0.24601 0.0
C906 C 0.82284 0.2839 0.2257 0.0
C907 C 0.84251 0.32078 0.2862 0.0
C908 C 0.85887 0.31417 0.30738 0.0
C909 C 0.85673 0.29194 0.28846 0.0
H910 H 0.96081 0.4262 0.56123 0.0
H911 H 0.93203 0.38506 0.52157 0.0
C912 C 0.83893 0.27697 0.24761 0.0
C913 C 0.87855 0.33144 0.34739 0.0
H914 H 0.93884 0.3719 0.35843 0.0
C915 C 0.87239 0.33953 0.39493 0.0
C916 C 0.90293 0.34273 0.335 0.0
C917 C 0.91064 0.33526 0.28395 0.0
C918 C 0.88965 0.35978 0.42814 0.0
C919 C 0.91381 0.37187 0.41403 0.0
C920 C 0.92027 0.36259 0.36898 0.0
C921 C 0.93178 0.39623 0.43944 0.0
C922 C 0.88156 0.36913 0.47552 0.0
C923 C 0.94147 0.41601 0.40639 0.0
C924 C 0.95799 0.4393 0.42862 0.0
C925 C 0.96521 0.44346 0.48467 0.0
C926 C 0.95552 0.42364 0.51799 0.0
C927 C 0.93902 0.40013 0.49543 0.0
H928 H 0.86166 0.35991 0.47558 0.0
H929 H 0.88858 0.36589 0.51442 0.0
H930 H 0.88874 0.38904 0.47438 0.0
H931 H 0.93604 0.41347 0.36316 0.0
H932 H 0.96497 0.45409 0.40167 0.0
H933 H 0.58315 0.8219 0.19344 0.0
H934 H 0.58325 0.84805 0.2699 0.0
H935 H 0.50588 0.80589 0.26509 0.0
H936 H 0.50557 0.77971 0.18949 0.0
H937 H 0.56094 0.87581 0.26364 0.0
H938 H 0.52485 0.8125 0.42849 0.0
H939 H 0.53701 0.80602 0.36921 0.0
H940 H 0.50675 0.8007 0.36522 0.0
C941 C 0.5662 0.81799 0.20926 0.0
C942 C 0.54435 0.79878 0.18525 0.0
C943 C 0.56629 0.83292 0.25294 0.0
C944 C 0.54459 0.82866 0.2737 0.0
C945 C 0.52286 0.80916 0.25059 0.0
H946 H 0.49992 0.92244 0.41476 0.0
H947 H 0.50406 0.89046 0.36664 0.0
C948 C 0.52272 0.79435 0.20694 0.0
C949 C 0.54425 0.84594 0.31547 0.0
H950 H 0.52235 0.84913 0.43822 0.0
C951 C 0.55288 0.87008 0.30221 0.0
C952 C 0.53377 0.83843 0.36585 0.0
C953 C 0.52528 0.81305 0.38336 0.0
C954 C 0.55028 0.8866 0.33679 0.0
C955 C 0.53864 0.87871 0.38563 0.0
C956 C 0.53099 0.85495 0.40031 0.0
C957 C 0.53364 0.89495 0.42044 0.0
C958 C 0.55947 0.91226 0.32035 0.0
C959 C 0.54831 0.90726 0.4679 0.0
C960 C 0.54607 0.92565 0.49558 0.0
C961 C 0.52912 0.93196 0.47606 0.0
C962 C 0.51329 0.91824 0.43074 0.0
C963 C 0.51561 0.89995 0.40311 0.0
H964 H 0.57152 0.91665 0.28625 0.0
H965 H 0.544 0.91446 0.30698 0.0
H966 H 0.56938 0.92559 0.35565 0.0
H967 H 0.56228 0.90353 0.48183 0.0
H968 H 0.55844 0.93572 0.53053 0.0
H969 H 0.75526 0.57475 0.18822 0.0
H970 H 0.72477 0.57421 0.24472 0.0
H971 H 0.68699 0.49569 0.23379 0.0
H972 H 0.71766 0.49598 0.17691 0.0
H973 H 0.67553 0.55199 0.20899 0.0
H974 H 0.68999 0.5149 0.39928 0.0
H975 H 0.7125 0.52788 0.35011 0.0
H976 H 0.68719 0.49775 0.33661 0.0
C977 C 0.74067 0.55729 0.19826 0.0
C978 C 0.73887 0.53536 0.1778 0.0
C979 C 0.72324 0.55706 0.23061 0.0
C980 C 0.70371 0.53495 0.24362 0.0
C981 C 0.70214 0.51297 0.22477 0.0
H982 H 0.56569 0.50654 0.34348 0.0
H983 H 0.59954 0.50966 0.29563 0.0
C984 C 0.71963 0.51316 0.19218 0.0
C985 C 0.68426 0.53511 0.27361 0.0
H986 H 0.65582 0.51994 0.39229 0.0
C987 C 0.67124 0.54503 0.24912 0.0
C988 C 0.67892 0.52627 0.32616 0.0
C989 C 0.69296 0.51626 0.35499 0.0
C990 C 0.65274 0.54598 0.27542 0.0
C991 C 0.647 0.5366 0.32736 0.0
C992 C 0.66027 0.52706 0.35235 0.0
C993 C 0.62671 0.53578 0.3555 0.0
C994 C 0.63954 0.55714 0.24763 0.0
C995 C 0.63081 0.5495 0.40504 0.0
C996 C 0.61145 0.54787 0.43252 0.0
C997 C 0.58767 0.53221 0.41122 0.0
C998 C 0.58374 0.51879 0.3611 0.0
C999 C 0.60307 0.52058 0.33356 0.0
H1000 H 0.64964 0.56848 0.21426 0.0
H1001 H 0.62185 0.54239 0.22961 0.0
H1002 H 0.63624 0.56859 0.27746 0.0
H1003 H 0.64897 0.5613 0.42262 0.0
H1004 H 0.61511 0.55831 0.4712 0.0
H1005 H 0.1971 0.75063 0.24616 0.0
H1006 H 0.17852 0.72752 0.3243 0.0
H1007 H 0.19602 0.67294 0.27139 0.0
H1008 H 0.21514 0.6963 0.19285 0.0
H1009 H 0.13976 0.68146 0.3169 0.0
H1010 H 0.2164 0.68382 0.43518 0.0
H1011 H 0.22048 0.70433 0.38234 0.0
H1012 H 0.21293 0.67347 0.36447 0.0
C1013 C 0.19726 0.73382 0.25119 0.0
C1014 C 0.20754 0.72526 0.21298 0.0
C1015 C 0.18666 0.72067 0.29611 0.0
C1016 C 0.1861 0.69866 0.30412 0.0
C1017 C 0.19669 0.69016 0.26667 0.0
H1018 H 0.1045 0.57709 0.48917 0.0
H1019 H 0.13663 0.60913 0.44204 0.0
C1020 C 0.20745 0.70343 0.22157 0.0
C1021 C 0.17253 0.68375 0.34893 0.0
H1022 H 0.17717 0.65669 0.46292 0.0
C1023 C 0.14801 0.67628 0.34919 0.0
C1024 C 0.18333 0.67697 0.39088 0.0
C1025 C 0.20978 0.68521 0.39371 0.0
C1026 C 0.13379 0.66166 0.38926 0.0
C1027 C 0.1445 0.65471 0.43112 0.0
C1028 C 0.1691 0.66233 0.43125 0.0
C1029 C 0.12967 0.63747 0.4713 0.0
C1030 C 0.10718 0.65292 0.38503 0.0
C1031 C 0.11623 0.64316 0.5066 0.0
C1032 C 0.0977 0.62478 0.53371 0.0
C1033 C 0.09244 0.60052 0.52567 0.0
C1034 C 0.10787 0.59555 0.49556 0.0
C1035 C 0.1263 0.61387 0.46859 0.0
H1036 H 0.10107 0.65591 0.34456 0.0
H1037 H 0.09658 0.63321 0.39185 0.0
H1038 H 0.10316 0.66305 0.41681 0.0
H1039 H 0.11891 0.66143 0.51005 0.0
H1040 H 0.08624 0.62923 0.55682 0.0
loop_
_geom_bond_atom_site_label_1
_geom_bond_atom_site_label_2
_geom_bond_distance
_geom_bond_site_symmetry_2
_ccdc_geom_bond_type
C0 O2 1.247 . S
C0 O4 1.258 . S
C1 O8 1.247 . S
C1 O9 1.258 . S
O2 C0 1.247 . S
O2 Zn3 2.028 . S
Zn3 O2 2.028 . S
Zn3 O7 2.035 . S
Zn3 O9 2.035 . S
Zn3 O10 2.028 . S
O4 C0 1.258 . S
O4 Zn5 2.035 . S
Zn5 O4 2.035 . S
Zn5 O6 2.028 . S
Zn5 O8 2.028 . S
Zn5 O11 2.035 . S
O6 Zn5 2.028 . S
O6 C12 1.247 . S
O7 Zn3 2.035 . S
O7 C12 1.258 . S
O8 C1 1.247 . S
O8 Zn5 2.028 . S
O9 C1 1.258 . S
O9 Zn3 2.035 . S
O10 Zn3 2.028 . S
O10 C13 1.247 . S
O11 Zn5 2.035 . S
O11 C13 1.258 . S
C12 O6 1.247 . S
C12 O7 1.258 . S
C13 O10 1.247 . S
C13 O11 1.258 . S
C14 O16 1.247 . S
C14 O18 1.258 . S
C15 O22 1.247 . S
C15 O23 1.258 . S
O16 C14 1.247 . S
O16 Zn17 2.028 . S
Zn17 O16 2.028 . S
Zn17 O21 2.035 . S
Zn17 O23 2.035 . S
Zn17 O24 2.028 . S
O18 C14 1.258 . S
O18 Zn19 2.035 . S
Zn19 O18 2.035 . S
Zn19 O20 2.028 . S
Zn19 O22 2.028 . S
Zn19 O25 2.035 . S
O20 Zn19 2.028 . S
O20 C26 1.247 . S
O21 Zn17 2.035 . S
O21 C26 1.258 . S
O22 C15 1.247 . S
O22 Zn19 2.028 . S
O23 C15 1.258 . S
O23 Zn17 2.035 . S
O24 Zn17 2.028 . S
O24 C27 1.247 . S
O25 Zn19 2.035 . S
O25 C27 1.258 . S
C26 O20 1.247 . S
C26 O21 1.258 . S
C27 O24 1.247 . S
C27 O25 1.258 . S
C28 O30 1.247 . S
C28 O32 1.258 . S
C29 O36 1.247 . S
C29 O37 1.258 . S
O30 C28 1.247 . S
O30 Zn31 2.028 . S
Zn31 O30 2.028 . S
Zn31 O35 2.035 . S
Zn31 O37 2.035 1_554 S
Zn31 O38 2.028 1_554 S
O32 C28 1.258 . S
O32 Zn33 2.035 . S
Zn33 O32 2.035 . S
Zn33 O34 2.028 . S
Zn33 O36 2.028 1_554 S
Zn33 O39 2.035 1_554 S
O34 Zn33 2.028 . S
O34 C40 1.247 . S
O35 Zn31 2.035 . S
O35 C40 1.258 . S
O36 C29 1.247 . S
O36 Zn33 2.028 1_556 S
O37 C29 1.258 . S
O37 Zn31 2.035 1_556 S
O38 Zn31 2.028 1_556 S
O38 C41 1.247 . S
O39 Zn33 2.035 1_556 S
O39 C41 1.258 . S
C40 O34 1.247 . S
C40 O35 1.258 . S
C41 O38 1.247 . S
C41 O39 1.258 . S
C42 O44 1.247 . S
C42 O46 1.258 . S
C43 O50 1.247 . S
C43 O51 1.258 . S
O44 C42 1.247 . S
O44 Zn45 2.028 1_556 S
Zn45 O44 2.028 1_554 S
Zn45 O49 2.035 1_554 S
Zn45 O51 2.035 . S
Zn45 O52 2.028 . S
O46 C42 1.258 . S
O46 Zn47 2.035 1_556 S
Zn47 O46 2.035 1_554 S
Zn47 O48 2.028 1_554 S
Zn47 O50 2.028 . S
Zn47 O53 2.035 . S
O48 Zn47 2.028 1_556 S
O48 C54 1.247 . S
O49 Zn45 2.035 1_556 S
O49 C54 1.258 . S
O50 C43 1.247 . S
O50 Zn47 2.028 . S
O51 C43 1.258 . S
O51 Zn45 2.035 . S
O52 Zn45 2.028 . S
O52 C55 1.247 . S
O53 Zn47 2.035 . S
O53 C55 1.258 . S
C54 O48 1.247 . S
C54 O49 1.258 . S
C55 O52 1.247 . S
C55 O53 1.258 . S
C56 O58 1.247 . S
C56 O60 1.258 . S
C57 O64 1.247 . S
C57 O65 1.258 . S
O58 C56 1.247 . S
O58 Zn59 2.028 . S
Zn59 O58 2.028 . S
Zn59 O63 2.035 . S
Zn59 O65 2.035 . S
Zn59 O66 2.028 . S
O60 C56 1.258 . S
O60 Zn61 2.035 . S
Zn61 O60 2.035 . S
Zn61 O62 2.028 . S
Zn61 O64 2.028 . S
Zn61 O67 2.035 . S
O62 Zn61 2.028 . S
O62 C68 1.247 . S
O63 Zn59 2.035 . S
O63 C68 1.258 . S
O64 C57 1.247 . S
O64 Zn61 2.028 . S
O65 C57 1.258 . S
O65 Zn59 2.035 . S
O66 Zn59 2.028 . S
O66 C69 1.247 . S
O67 Zn61 2.035 . S
O67 C69 1.258 . S
C68 O62 1.247 . S
C68 O63 1.258 . S
C69 O66 1.247 . S
C69 O67 1.258 . S
C70 O72 1.247 . S
C70 O74 1.258 . S
C71 O78 1.247 . S
C71 O79 1.258 . S
O72 C70 1.247 . S
O72 Zn73 2.028 . S
Zn73 O72 2.028 . S
Zn73 O77 2.035 . S
Zn73 O79 2.035 . S
Zn73 O80 2.028 . S
O74 C70 1.258 . S
O74 Zn75 2.035 . S
Zn75 O74 2.035 . S
Zn75 O76 2.028 . S
Zn75 O78 2.028 . S
Zn75 O81 2.035 . S
O76 Zn75 2.028 . S
O76 C82 1.247 . S
O77 Zn73 2.035 . S
O77 C82 1.258 . S
O78 C71 1.247 . S
O78 Zn75 2.028 . S
O79 C71 1.258 . S
O79 Zn73 2.035 . S
O80 Zn73 2.028 . S
O80 C83 1.247 . S
O81 Zn75 2.035 . S
O81 C83 1.258 . S
C82 O76 1.247 . S
C82 O77 1.258 . S
C83 O80 1.247 . S
C83 O81 1.258 . S
C84 O111 1.312 . S
C84 O112 1.208 . S
C85 O106 1.331 . S
C85 O109 1.244 . S
C86 O108 1.264 . S
C86 O110 1.273 . S
Mg87 O89 1.936 1_455 S
Mg87 O96 2.081 1_455 S
Mg87 O98 2.023 . S
Mg87 O102 2.031 1_455 S
Mg87 O111 2.291 . S
Mg88 O89 1.963 . S
Mg88 O99 1.942 . S
Mg88 O100 1.955 1_655 S
Mg88 O107 1.986 . S
O89 Mg87 1.936 1_655 S
O89 Mg88 1.963 . S
O89 Mg90 1.915 1_655 S
Mg90 O89 1.915 1_455 S
Mg90 O91 1.915 . S
Mg90 O95 2.013 . S
Mg90 O101 2.114 1_455 S
Mg90 O105 2.013 1_455 S
Mg90 O111 2.114 . S
O91 Mg90 1.915 . S
O91 Mg92 1.936 . S
O91 Mg93 1.963 . S
Mg92 O91 1.936 . S
Mg92 O101 2.291 1_455 S
Mg92 O106 2.081 . S
Mg92 O108 2.023 1_455 S
Mg92 O112 2.031 . S
Mg93 O91 1.963 . S
Mg93 O97 1.986 . S
Mg93 O109 1.942 . S
Mg93 O110 1.955 1_455 S
C94 O105 1.191 . S
C94 O107 1.307 . S
O95 Mg90 2.013 . S
O95 C114 1.191 . S
O96 Mg87 2.081 1_655 S
O96 C104 1.331 . S
O97 Mg93 1.986 . S
O97 C114 1.307 . S
O98 Mg87 2.023 . S
O98 C113 1.264 . S
O99 Mg88 1.942 . S
O99 C104 1.244 . S
O100 Mg88 1.955 1_455 S
O100 C113 1.273 . S
O101 Mg90 2.114 1_655 S
O101 Mg92 2.291 1_655 S
O101 C103 1.312 . S
O102 Mg87 2.031 1_655 S
O102 C103 1.208 . S
C103 O101 1.312 . S
C103 O102 1.208 . S
C104 O96 1.331 . S
C104 O99 1.244 . S
O105 Mg90 2.013 1_655 S
O105 C94 1.191 . S
O106 C85 1.331 . S
O106 Mg92 2.081 . S
O107 Mg88 1.986 . S
O107 C94 1.307 . S
O108 C86 1.264 . S
O108 Mg92 2.023 1_655 S
O109 C85 1.244 . S
O109 Mg93 1.942 . S
O110 C86 1.273 . S
O110 Mg93 1.955 1_655 S
O111 C84 1.312 . S
O111 Mg87 2.291 . S
O111 Mg90 2.114 . S
O112 C84 1.208 . S
O112 Mg92 2.031 . S
C113 O98 1.264 . S
C113 O100 1.273 . S
C114 O95 1.191 . S
C114 O97 1.307 . S
C115 O142 1.312 . S
C115 O143 1.208 . S
C116 O137 1.331 . S
C116 O140 1.244 . S
C117 O139 1.264 . S
C117 O141 1.273 . S
Mg118 O120 1.936 1_545 S
Mg118 O127 2.081 1_545 S
Mg118 O129 2.023 . S
Mg118 O133 2.031 1_545 S
Mg118 O142 2.291 . S
Mg119 O120 1.963 . S
Mg119 O130 1.942 . S
Mg119 O131 1.955 1_565 S
Mg119 O138 1.986 . S
O120 Mg118 1.936 1_565 S
O120 Mg119 1.963 . S
O120 Mg121 1.915 1_565 S
Mg121 O120 1.915 1_545 S
Mg121 O122 1.915 . S
Mg121 O126 2.013 . S
Mg121 O132 2.114 1_545 S
Mg121 O136 2.013 1_545 S
Mg121 O142 2.114 . S
O122 Mg121 1.915 . S
O122 Mg123 1.936 . S
O122 Mg124 1.963 . S
Mg123 O122 1.936 . S
Mg123 O132 2.291 1_545 S
Mg123 O137 2.081 . S
Mg123 O139 2.023 1_545 S
Mg123 O143 2.031 . S
Mg124 O122 1.963 . S
Mg124 O128 1.986 . S
Mg124 O140 1.942 . S
Mg124 O141 1.955 1_545 S
C125 O136 1.191 . S
C125 O138 1.307 . S
O126 Mg121 2.013 . S
O126 C145 1.191 . S
O127 Mg118 2.081 1_565 S
O127 C135 1.331 . S
O128 Mg124 1.986 . S
O128 C145 1.307 . S
O129 Mg118 2.023 . S
O129 C144 1.264 . S
O130 Mg119 1.942 . S
O130 C135 1.244 . S
O131 Mg119 1.955 1_545 S
O131 C144 1.273 . S
O132 Mg121 2.114 1_565 S
O132 Mg123 2.291 1_565 S
O132 C134 1.312 . S
O133 Mg118 2.031 1_565 S
O133 C134 1.208 . S
C134 O132 1.312 . S
C134 O133 1.208 . S
C135 O127 1.331 . S
C135 O130 1.244 . S
O136 Mg121 2.013 1_565 S
O136 C125 1.191 . S
O137 C116 1.331 . S
O137 Mg123 2.081 . S
O138 Mg119 1.986 . S
O138 C125 1.307 . S
O139 C117 1.264 . S
O139 Mg123 2.023 1_565 S
O140 C116 1.244 . S
O140 Mg124 1.942 . S
O141 C117 1.273 . S
O141 Mg124 1.955 1_565 S
O142 C115 1.312 . S
O142 Mg118 2.291 . S
O142 Mg121 2.114 . S
O143 C115 1.208 . S
O143 Mg123 2.031 . S
C144 O129 1.264 . S
C144 O131 1.273 . S
C145 O126 1.191 . S
C145 O128 1.307 . S
C146 O173 1.312 . S
C146 O174 1.208 . S
C147 O168 1.331 . S
C147 O171 1.244 . S
C148 O170 1.264 . S
C148 O172 1.273 . S
Mg149 O151 1.936 . S
Mg149 O158 2.081 . S
Mg149 O160 2.023 . S
Mg149 O164 2.031 . S
Mg149 O173 2.291 . S
Mg150 O151 1.963 . S
Mg150 O161 1.942 . S
Mg150 O162 1.955 . S
Mg150 O169 1.986 . S
O151 Mg149 1.936 . S
O151 Mg150 1.963 . S
O151 Mg152 1.915 . S
Mg152 O151 1.915 . S
Mg152 O153 1.915 . S
Mg152 O157 2.013 . S
Mg152 O163 2.114 . S
Mg152 O167 2.013 . S
Mg152 O173 2.114 . S
O153 Mg152 1.915 . S
O153 Mg154 1.936 . S
O153 Mg155 1.963 . S
Mg154 O153 1.936 . S
Mg154 O163 2.291 . S
Mg154 O168 2.081 . S
Mg154 O170 2.023 . S
Mg154 O174 2.031 . S
Mg155 O153 1.963 . S
Mg155 O159 1.986 . S
Mg155 O171 1.942 . S
Mg155 O172 1.955 . S
C156 O167 1.191 . S
C156 O169 1.307 . S
O157 Mg152 2.013 . S
O157 C176 1.191 . S
O158 Mg149 2.081 . S
O158 C166 1.331 . S
O159 Mg155 1.986 . S
O159 C176 1.307 . S
O160 Mg149 2.023 . S
O160 C175 1.264 . S
O161 Mg150 1.942 . S
O161 C166 1.244 . S
O162 Mg150 1.955 . S
O162 C175 1.273 . S
O163 Mg152 2.114 . S
O163 Mg154 2.291 . S
O163 C165 1.312 . S
O164 Mg149 2.031 . S
O164 C165 1.208 . S
C165 O163 1.312 . S
C165 O164 1.208 . S
C166 O158 1.331 . S
C166 O161 1.244 . S
O167 Mg152 2.013 . S
O167 C156 1.191 . S
O168 C147 1.331 . S
O168 Mg154 2.081 . S
O169 Mg150 1.986 . S
O169 C156 1.307 . S
O170 C148 1.264 . S
O170 Mg154 2.023 . S
O171 C147 1.244 . S
O171 Mg155 1.942 . S
O172 C148 1.273 . S
O172 Mg155 1.955 . S
O173 C146 1.312 . S
O173 Mg149 2.291 . S
O173 Mg152 2.114 . S
O174 C146 1.208 . S
O174 Mg154 2.031 . S
C175 O160 1.264 . S
C175 O162 1.273 . S
C176 O157 1.191 . S
C176 O159 1.307 . S
H177 C185 0.929 . S
H178 C187 0.930 . S
H179 C189 0.930 . S
H180 C192 0.929 . S
H181 C195 0.930 . S
H182 C197 0.960 . S
H183 C197 0.960 . S
H184 C197 0.960 . S
C185 H177 0.929 . S
C185 C186 1.377 . S
C185 C187 1.384 . S
C186 C185 1.377 . S
C186 C192 1.390 . S
C187 H178 0.930 . S
C187 C185 1.384 . S
C187 C188 1.372 . S
C188 C187 1.372 . S
C188 C189 1.400 . S
C188 C193 1.490 . S
C189 H179 0.930 . S
C189 C188 1.400 . S
C189 C192 1.386 . S
H190 C206 0.930 . S
H191 C207 0.931 . S
C192 H180 0.929 . S
C192 C186 1.390 . S
C192 C189 1.386 . S
C193 C188 1.490 . S
C193 C195 1.395 . S
C193 C196 1.403 . S
H194 C200 0.930 . S
C195 H181 0.930 . S
C195 C193 1.395 . S
C195 C198 1.403 . S
C196 C193 1.403 . S
C196 C197 1.524 . S
C196 C200 1.400 . S
C197 H182 0.960 . S
C197 H183 0.960 . S
C197 H184 0.960 . S
C197 C196 1.524 . S
C198 C195 1.403 . S
C198 C199 1.392 . S
C198 C202 1.495 . S
C199 C198 1.392 . S
C199 C200 1.385 . S
C199 C201 1.478 . S
C200 H194 0.930 . S
C200 C196 1.400 . S
C200 C199 1.385 . S
C201 C199 1.478 . S
C201 C203 1.381 . S
C201 C207 1.383 . S
C202 C198 1.495 . S
C202 H208 0.959 . S
C202 H209 0.961 . S
C202 H210 0.960 . S
C203 C201 1.381 . S
C203 C204 1.394 . S
C203 H211 0.930 . S
C204 C203 1.394 . S
C204 C205 1.383 . S
C204 H212 0.929 . S
C205 C204 1.383 . S
C205 C206 1.377 . S
C206 H190 0.930 . S
C206 C205 1.377 . S
C206 C207 1.379 . S
C207 H191 0.931 . S
C207 C201 1.383 . S
C207 C206 1.379 . S
H208 C202 0.959 . S
H209 C202 0.961 . S
H210 C202 0.960 . S
H211 C203 0.930 . S
H212 C204 0.929 . S
H213 C221 0.929 . S
H214 C223 0.930 . S
H215 C225 0.930 . S
H216 C228 0.929 . S
H217 C231 0.930 . S
H218 C233 0.960 . S
H219 C233 0.960 . S
H220 C233 0.960 . S
C221 H213 0.929 . S
C221 C222 1.377 . S
C221 C223 1.384 . S
C222 C221 1.377 . S
C222 C228 1.390 . S
C223 H214 0.930 . S
C223 C221 1.384 . S
C223 C224 1.372 . S
C224 C223 1.372 . S
C224 C225 1.400 . S
C224 C229 1.490 . S
C225 H215 0.930 . S
C225 C224 1.400 . S
C225 C228 1.386 . S
H226 C242 0.930 . S
H227 C243 0.931 . S
C228 H216 0.929 . S
C228 C222 1.390 . S
C228 C225 1.386 . S
C229 C224 1.490 . S
C229 C231 1.395 . S
C229 C232 1.403 . S
H230 C236 0.930 . S
C231 H217 0.930 . S
C231 C229 1.395 . S
C231 C234 1.403 . S
C232 C229 1.403 . S
C232 C233 1.524 . S
C232 C236 1.400 . S
C233 H218 0.960 . S
C233 H219 0.960 . S
C233 H220 0.960 . S
C233 C232 1.524 . S
C234 C231 1.403 . S
C234 C235 1.392 . S
C234 C238 1.495 . S
C235 C234 1.392 . S
C235 C236 1.385 . S
C235 C237 1.478 . S
C236 H230 0.930 . S
C236 C232 1.400 . S
C236 C235 1.385 . S
C237 C235 1.478 . S
C237 C239 1.381 . S
C237 C243 1.383 . S
C238 C234 1.495 . S
C238 H244 0.959 . S
C238 H245 0.961 . S
C238 H246 0.960 . S
C239 C237 1.381 . S
C239 C240 1.394 . S
C239 H247 0.930 . S
C240 C239 1.394 . S
C240 C241 1.383 . S
C240 H248 0.929 . S
C241 C240 1.383 . S
C241 C242 1.377 . S
C242 H226 0.930 . S
C242 C241 1.377 . S
C242 C243 1.379 . S
C243 H227 0.931 . S
C243 C237 1.383 . S
C243 C242 1.379 . S
H244 C238 0.959 . S
H245 C238 0.961 . S
H246 C238 0.960 . S
H247 C239 0.930 . S
H248 C240 0.929 . S
H249 C257 0.929 . S
H250 C259 0.930 . S
H251 C261 0.930 . S
H252 C264 0.929 . S
H253 C267 0.930 . S
H254 C269 0.960 . S
H255 C269 0.960 . S
H256 C269 0.960 . S
C257 H249 0.929 . S
C257 C258 1.377 . S
C257 C259 1.384 . S
C258 C257 1.377 . S
C258 C264 1.390 . S
C259 H250 0.930 . S
C259 C257 1.384 . S
C259 C260 1.372 . S
C260 C259 1.372 . S
C260 C261 1.400 . S
C260 C265 1.490 . S
C261 H251 0.930 . S
C261 C260 1.400 . S
C261 C264 1.386 . S
H262 C278 0.930 . S
H263 C279 0.931 . S
C264 H252 0.929 . S
C264 C258 1.390 . S
C264 C261 1.386 . S
C265 C260 1.490 . S
C265 C267 1.395 . S
C265 C268 1.403 . S
H266 C272 0.930 . S
C267 H253 0.930 . S
C267 C265 1.395 . S
C267 C270 1.403 . S
C268 C265 1.403 . S
C268 C269 1.524 . S
C268 C272 1.400 . S
C269 H254 0.960 . S
C269 H255 0.960 . S
C269 H256 0.960 . S
C269 C268 1.524 . S
C270 C267 1.403 . S
C270 C271 1.392 . S
C270 C274 1.495 . S
C271 C270 1.392 . S
C271 C272 1.385 . S
C271 C273 1.478 . S
C272 H266 0.930 . S
C272 C268 1.400 . S
C272 C271 1.385 . S
C273 C271 1.478 . S
C273 C275 1.381 . S
C273 C279 1.383 . S
C274 C270 1.495 . S
C274 H280 0.959 . S
C274 H281 0.961 . S
C274 H282 0.960 . S
C275 C273 1.381 . S
C275 C276 1.394 . S
C275 H283 0.930 . S
C276 C275 1.394 . S
C276 C277 1.383 . S
C276 H284 0.929 . S
C277 C276 1.383 . S
C277 C278 1.377 . S
C278 H262 0.930 . S
C278 C277 1.377 . S
C278 C279 1.379 . S
C279 H263 0.931 . S
C279 C273 1.383 . S
C279 C278 1.379 . S
H280 C274 0.959 . S
H281 C274 0.961 . S
H282 C274 0.960 . S
H283 C275 0.930 . S
H284 C276 0.929 . S
H285 C293 0.929 . S
H286 C295 0.930 . S
H287 C297 0.930 . S
H288 C300 0.929 . S
H289 C303 0.930 . S
H290 C305 0.960 . S
H291 C305 0.960 . S
H292 C305 0.960 . S
C293 H285 0.929 . S
C293 C294 1.377 . S
C293 C295 1.384 . S
C294 C293 1.377 . S
C294 C300 1.390 . S
C295 H286 0.930 . S
C295 C293 1.384 . S
C295 C296 1.372 . S
C296 C295 1.372 . S
C296 C297 1.400 . S
C296 C301 1.490 . S
C297 H287 0.930 . S
C297 C296 1.400 . S
C297 C300 1.386 . S
H298 C314 0.930 . S
H299 C315 0.931 . S
C300 H288 0.929 . S
C300 C294 1.390 . S
C300 C297 1.386 . S
C301 C296 1.490 . S
C301 C303 1.395 . S
C301 C304 1.403 . S
H302 C308 0.930 . S
C303 H289 0.930 . S
C303 C301 1.395 . S
C303 C306 1.403 . S
C304 C301 1.403 . S
C304 C305 1.524 . S
C304 C308 1.400 . S
C305 H290 0.960 . S
C305 H291 0.960 . S
C305 H292 0.960 . S
C305 C304 1.524 . S
C306 C303 1.403 . S
C306 C307 1.392 . S
C306 C310 1.495 . S
C307 C306 1.392 . S
C307 C308 1.385 . S
C307 C309 1.478 . S
C308 H302 0.930 . S
C308 C304 1.400 . S
C308 C307 1.385 . S
C309 C307 1.478 . S
C309 C311 1.381 . S
C309 C315 1.383 . S
C310 C306 1.495 . S
C310 H316 0.959 . S
C310 H317 0.961 . S
C310 H318 0.960 . S
C311 C309 1.381 . S
C311 C312 1.394 . S
C311 H319 0.930 . S
C312 C311 1.394 . S
C312 C313 1.383 . S
C312 H320 0.929 . S
C313 C312 1.383 . S
C313 C314 1.377 . S
C314 H298 0.930 . S
C314 C313 1.377 . S
C314 C315 1.379 . S
C315 H299 0.931 . S
C315 C309 1.383 . S
C315 C314 1.379 . S
H316 C310 0.959 . S
H317 C310 0.961 . S
H318 C310 0.960 . S
H319 C311 0.930 . S
H320 C312 0.929 . S
H321 C329 0.929 . S
H322 C331 0.930 . S
H323 C333 0.930 . S
H324 C336 0.929 . S
H325 C339 0.930 . S
H326 C341 0.960 . S
H327 C341 0.960 . S
H328 C341 0.960 . S
C329 H321 0.929 . S
C329 C330 1.377 . S
C329 C331 1.384 . S
C330 C329 1.377 . S
C330 C336 1.390 . S
C331 H322 0.930 . S
C331 C329 1.384 . S
C331 C332 1.372 . S
C332 C331 1.372 . S
C332 C333 1.400 . S
C332 C337 1.490 . S
C333 H323 0.930 . S
C333 C332 1.400 . S
C333 C336 1.386 . S
H334 C350 0.930 . S
H335 C351 0.931 . S
C336 H324 0.929 . S
C336 C330 1.390 . S
C336 C333 1.386 . S
C337 C332 1.490 . S
C337 C339 1.395 . S
C337 C340 1.403 . S
H338 C344 0.930 . S
C339 H325 0.930 . S
C339 C337 1.395 . S
C339 C342 1.403 . S
C340 C337 1.403 . S
C340 C341 1.524 . S
C340 C344 1.400 . S
C341 H326 0.960 . S
C341 H327 0.960 . S
C341 H328 0.960 . S
C341 C340 1.524 . S
C342 C339 1.403 . S
C342 C343 1.392 . S
C342 C346 1.495 . S
C343 C342 1.392 . S
C343 C344 1.385 . S
C343 C345 1.478 . S
C344 H338 0.930 . S
C344 C340 1.400 . S
C344 C343 1.385 . S
C345 C343 1.478 . S
C345 C347 1.381 . S
C345 C351 1.383 . S
C346 C342 1.495 . S
C346 H352 0.959 . S
C346 H353 0.961 . S
C346 H354 0.960 . S
C347 C345 1.381 . S
C347 C348 1.394 . S
C347 H355 0.930 . S
C348 C347 1.394 . S
C348 C349 1.383 . S
C348 H356 0.929 . S
C349 C348 1.383 . S
C349 C350 1.377 . S
C350 H334 0.930 . S
C350 C349 1.377 . S
C350 C351 1.379 . S
C351 H335 0.931 . S
C351 C345 1.383 . S
C351 C350 1.379 . S
H352 C346 0.959 . S
H353 C346 0.961 . S
H354 C346 0.960 . S
H355 C347 0.930 . S
H356 C348 0.929 . S
H357 C365 0.929 . S
H358 C367 0.930 . S
H359 C369 0.930 . S
H360 C372 0.929 . S
H361 C375 0.930 . S
H362 C377 0.960 . S
H363 C377 0.960 . S
H364 C377 0.960 . S
C365 H357 0.929 . S
C365 C366 1.377 . S
C365 C367 1.384 . S
C366 C365 1.377 . S
C366 C372 1.390 . S
C367 H358 0.930 . S
C367 C365 1.384 . S
C367 C368 1.372 . S
C368 C367 1.372 . S
C368 C369 1.400 . S
C368 C373 1.490 . S
C369 H359 0.930 . S
C369 C368 1.400 . S
C369 C372 1.386 . S
H370 C386 0.930 . S
H371 C387 0.931 . S
C372 H360 0.929 . S
C372 C366 1.390 . S
C372 C369 1.386 . S
C373 C368 1.490 . S
C373 C375 1.395 . S
C373 C376 1.403 . S
H374 C380 0.930 . S
C375 H361 0.930 . S
C375 C373 1.395 . S
C375 C378 1.403 . S
C376 C373 1.403 . S
C376 C377 1.524 . S
C376 C380 1.400 . S
C377 H362 0.960 . S
C377 H363 0.960 . S
C377 H364 0.960 . S
C377 C376 1.524 . S
C378 C375 1.403 . S
C378 C379 1.392 . S
C378 C382 1.495 . S
C379 C378 1.392 . S
C379 C380 1.385 . S
C379 C381 1.478 . S
C380 H374 0.930 . S
C380 C376 1.400 . S
C380 C379 1.385 . S
C381 C379 1.478 . S
C381 C383 1.381 . S
C381 C387 1.383 . S
C382 C378 1.495 . S
C382 H388 0.959 . S
C382 H389 0.961 . S
C382 H390 0.960 . S
C383 C381 1.381 . S
C383 C384 1.394 . S
C383 H391 0.930 . S
C384 C383 1.394 . S
C384 C385 1.383 . S
C384 H392 0.929 . S
C385 C384 1.383 . S
C385 C386 1.377 . S
C386 H370 0.930 . S
C386 C385 1.377 . S
C386 C387 1.379 . S
C387 H371 0.931 . S
C387 C381 1.383 . S
C387 C386 1.379 . S
H388 C382 0.959 . S
H389 C382 0.961 . S
H390 C382 0.960 . S
H391 C383 0.930 . S
H392 C384 0.929 . S
H393 C401 0.929 . S
H394 C403 0.930 . S
H395 C405 0.930 . S
H396 C408 0.929 . S
H397 C411 0.930 . S
H398 C413 0.960 . S
H399 C413 0.960 . S
H400 C413 0.960 . S
C401 H393 0.929 . S
C401 C402 1.377 . S
C401 C403 1.384 . S
C402 C401 1.377 . S
C402 C408 1.390 . S
C403 H394 0.930 . S
C403 C401 1.384 . S
C403 C404 1.372 . S
C404 C403 1.372 . S
C404 C405 1.400 . S
C404 C409 1.490 . S
C405 H395 0.930 . S
C405 C404 1.400 . S
C405 C408 1.386 . S
H406 C422 0.930 . S
H407 C423 0.931 . S
C408 H396 0.929 . S
C408 C402 1.390 . S
C408 C405 1.386 . S
C409 C404 1.490 . S
C409 C411 1.395 . S
C409 C412 1.403 . S
H410 C416 0.930 . S
C411 H397 0.930 . S
C411 C409 1.395 . S
C411 C414 1.403 . S
C412 C409 1.403 . S
C412 C413 1.524 . S
C412 C416 1.400 . S
C413 H398 0.960 . S
C413 H399 0.960 . S
C413 H400 0.960 . S
C413 C412 1.524 . S
C414 C411 1.403 . S
C414 C415 1.392 . S
C414 C418 1.495 . S
C415 C414 1.392 . S
C415 C416 1.385 . S
C415 C417 1.478 . S
C416 H410 0.930 . S
C416 C412 1.400 . S
C416 C415 1.385 . S
C417 C415 1.478 . S
C417 C419 1.381 . S
C417 C423 1.383 . S
C418 C414 1.495 . S
C418 H424 0.959 . S
C418 H425 0.961 . S
C418 H426 0.960 . S
C419 C417 1.381 . S
C419 C420 1.394 . S
C419 H427 0.930 . S
C420 C419 1.394 . S
C420 C421 1.383 . S
C420 H428 0.929 . S
C421 C420 1.383 . S
C421 C422 1.377 . S
C422 H406 0.930 . S
C422 C421 1.377 . S
C422 C423 1.379 . S
C423 H407 0.931 . S
C423 C417 1.383 . S
C423 C422 1.379 . S
H424 C418 0.959 . S
H425 C418 0.961 . S
H426 C418 0.960 . S
H427 C419 0.930 . S
H428 C420 0.929 . S
H429 C437 0.929 . S
H430 C439 0.930 . S
H431 C441 0.930 . S
H432 C444 0.929 . S
H433 C447 0.930 . S
H434 C449 0.960 . S
H435 C449 0.960 . S
H436 C449 0.960 . S
C437 H429 0.929 . S
C437 C438 1.377 . S
C437 C439 1.384 . S
C438 C437 1.377 . S
C438 C444 1.390 . S
C439 H430 0.930 . S
C439 C437 1.384 . S
C439 C440 1.372 . S
C440 C439 1.372 . S
C440 C441 1.400 . S
C440 C445 1.490 . S
C441 H431 0.930 . S
C441 C440 1.400 . S
C441 C444 1.386 . S
H442 C458 0.930 . S
H443 C459 0.931 . S
C444 H432 0.929 . S
C444 C438 1.390 . S
C444 C441 1.386 . S
C445 C440 1.490 . S
C445 C447 1.395 . S
C445 C448 1.403 . S
H446 C452 0.930 . S
C447 H433 0.930 . S
C447 C445 1.395 . S
C447 C450 1.403 . S
C448 C445 1.403 . S
C448 C449 1.524 . S
C448 C452 1.400 . S
C449 H434 0.960 . S
C449 H435 0.960 . S
C449 H436 0.960 . S
C449 C448 1.524 . S
C450 C447 1.403 . S
C450 C451 1.392 . S
C450 C454 1.495 . S
C451 C450 1.392 . S
C451 C452 1.385 . S
C451 C453 1.478 . S
C452 H446 0.930 . S
C452 C448 1.400 . S
C452 C451 1.385 . S
C453 C451 1.478 . S
C453 C455 1.381 . S
C453 C459 1.383 . S
C454 C450 1.495 . S
C454 H460 0.959 . S
C454 H461 0.961 . S
C454 H462 0.960 . S
C455 C453 1.381 . S
C455 C456 1.394 . S
C455 H463 0.930 . S
C456 C455 1.394 . S
C456 C457 1.383 . S
C456 H464 0.929 . S
C457 C456 1.383 . S
C457 C458 1.377 . S
C458 H442 0.930 . S
C458 C457 1.377 . S
C458 C459 1.379 . S
C459 H443 0.931 . S
C459 C453 1.383 . S
C459 C458 1.379 . S
H460 C454 0.959 . S
H461 C454 0.961 . S
H462 C454 0.960 . S
H463 C455 0.930 . S
H464 C456 0.929 . S
H465 C473 0.929 . S
H466 C475 0.930 . S
H467 C477 0.930 . S
H468 C480 0.929 . S
H469 C483 0.930 . S
H470 C485 0.960 . S
H471 C485 0.960 . S
H472 C485 0.960 . S
C473 H465 0.929 . S
C473 C474 1.377 1_554 S
C473 C475 1.384 1_554 S
C474 C473 1.377 1_556 S
C474 C480 1.390 . S
C475 H466 0.930 . S
C475 C473 1.384 1_556 S
C475 C476 1.372 . S
C476 C475 1.372 . S
C476 C477 1.400 . S
C476 C481 1.490 . S
C477 H467 0.930 . S
C477 C476 1.400 . S
C477 C480 1.386 . S
H478 C494 0.930 . S
H479 C495 0.931 . S
C480 H468 0.929 . S
C480 C474 1.390 . S
C480 C477 1.386 . S
C481 C476 1.490 . S
C481 C483 1.395 . S
C481 C484 1.403 . S
H482 C488 0.930 . S
C483 H469 0.930 . S
C483 C481 1.395 . S
C483 C486 1.403 . S
C484 C481 1.403 . S
C484 C485 1.524 . S
C484 C488 1.400 . S
C485 H470 0.960 . S
C485 H471 0.960 . S
C485 H472 0.960 . S
C485 C484 1.524 . S
C486 C483 1.403 . S
C486 C487 1.392 . S
C486 C490 1.495 . S
C487 C486 1.392 . S
C487 C488 1.385 . S
C487 C489 1.478 . S
C488 H482 0.930 . S
C488 C484 1.400 . S
C488 C487 1.385 . S
C489 C487 1.478 . S
C489 C491 1.381 . S
C489 C495 1.383 . S
C490 C486 1.495 . S
C490 H496 0.959 . S
C490 H497 0.961 . S
C490 H498 0.960 . S
C491 C489 1.381 . S
C491 C492 1.394 . S
C491 H499 0.930 . S
C492 C491 1.394 . S
C492 C493 1.383 . S
C492 H500 0.929 . S
C493 C492 1.383 . S
C493 C494 1.377 . S
C494 H478 0.930 . S
C494 C493 1.377 . S
C494 C495 1.379 . S
C495 H479 0.931 . S
C495 C489 1.383 . S
C495 C494 1.379 . S
H496 C490 0.959 . S
H497 C490 0.961 . S
H498 C490 0.960 . S
H499 C491 0.930 . S
H500 C492 0.929 . S
H501 C509 0.929 . S
H502 C511 0.930 . S
H503 C513 0.930 . S
H504 C516 0.929 . S
H505 C519 0.930 . S
H506 C521 0.960 . S
H507 C521 0.960 . S
H508 C521 0.960 . S
C509 H501 0.929 . S
C509 C510 1.377 . S
C509 C511 1.384 1_554 S
C510 C509 1.377 . S
C510 C516 1.390 . S
C511 H502 0.930 . S
C511 C509 1.384 1_556 S
C511 C512 1.372 . S
C512 C511 1.372 . S
C512 C513 1.400 1_556 S
C512 C517 1.490 . S
C513 H503 0.930 . S
C513 C512 1.400 1_554 S
C513 C516 1.386 . S
H514 C530 0.930 . S
H515 C531 0.931 . S
C516 H504 0.929 . S
C516 C510 1.390 . S
C516 C513 1.386 . S
C517 C512 1.490 . S
C517 C519 1.395 . S
C517 C520 1.403 . S
H518 C524 0.930 . S
C519 H505 0.930 . S
C519 C517 1.395 . S
C519 C522 1.403 . S
C520 C517 1.403 . S
C520 C521 1.524 1_556 S
C520 C524 1.400 . S
C521 H506 0.960 . S
C521 H507 0.960 . S
C521 H508 0.960 . S
C521 C520 1.524 1_554 S
C522 C519 1.403 . S
C522 C523 1.392 . S
C522 C526 1.495 . S
C523 C522 1.392 . S
C523 C524 1.385 . S
C523 C525 1.478 . S
C524 H518 0.930 . S
C524 C520 1.400 . S
C524 C523 1.385 . S
C525 C523 1.478 . S
C525 C527 1.381 . S
C525 C531 1.383 . S
C526 C522 1.495 . S
C526 H532 0.959 . S
C526 H533 0.961 . S
C526 H534 0.960 . S
C527 C525 1.381 . S
C527 C528 1.394 . S
C527 H535 0.930 . S
C528 C527 1.394 . S
C528 C529 1.383 . S
C528 H536 0.929 . S
C529 C528 1.383 . S
C529 C530 1.377 . S
C530 H514 0.930 . S
C530 C529 1.377 . S
C530 C531 1.379 . S
C531 H515 0.931 . S
C531 C525 1.383 . S
C531 C530 1.379 . S
H532 C526 0.959 . S
H533 C526 0.961 . S
H534 C526 0.960 . S
H535 C527 0.930 . S
H536 C528 0.929 . S
H537 C545 0.929 . S
H538 C547 0.930 . S
H539 C549 0.930 . S
H540 C552 0.929 1_556 S
H541 C555 0.930 . S
H542 C557 0.960 . S
H543 C557 0.960 . S
H544 C557 0.960 . S
C545 H537 0.929 . S
C545 C546 1.377 . S
C545 C547 1.384 . S
C546 C545 1.377 . S
C546 C552 1.390 . S
C547 H538 0.930 . S
C547 C545 1.384 . S
C547 C548 1.372 1_554 S
C548 C547 1.372 1_556 S
C548 C549 1.400 . S
C548 C553 1.490 . S
C549 H539 0.930 . S
C549 C548 1.400 . S
C549 C552 1.386 1_556 S
H550 C566 0.930 . S
H551 C567 0.931 . S
C552 H540 0.929 1_554 S
C552 C546 1.390 . S
C552 C549 1.386 1_554 S
C553 C548 1.490 . S
C553 C555 1.395 . S
C553 C556 1.403 . S
H554 C560 0.930 . S
C555 H541 0.930 . S
C555 C553 1.395 . S
C555 C558 1.403 . S
C556 C553 1.403 . S
C556 C557 1.524 . S
C556 C560 1.400 . S
C557 H542 0.960 . S
C557 H543 0.960 . S
C557 H544 0.960 . S
C557 C556 1.524 . S
C558 C555 1.403 . S
C558 C559 1.392 . S
C558 C562 1.495 . S
C559 C558 1.392 . S
C559 C560 1.385 . S
C559 C561 1.478 . S
C560 H554 0.930 . S
C560 C556 1.400 . S
C560 C559 1.385 . S
C561 C559 1.478 . S
C561 C563 1.381 . S
C561 C567 1.383 . S
C562 C558 1.495 . S
C562 H568 0.959 . S
C562 H569 0.961 . S
C562 H570 0.960 . S
C563 C561 1.381 . S
C563 C564 1.394 . S
C563 H571 0.930 . S
C564 C563 1.394 . S
C564 C565 1.383 . S
C564 H572 0.929 . S
C565 C564 1.383 . S
C565 C566 1.377 . S
C566 H550 0.930 . S
C566 C565 1.377 . S
C566 C567 1.379 . S
C567 H551 0.931 . S
C567 C561 1.383 . S
C567 C566 1.379 . S
H568 C562 0.959 . S
H569 C562 0.961 . S
H570 C562 0.960 . S
H571 C563 0.930 . S
H572 C564 0.929 . S
H573 C581 0.929 1_554 S
H574 C583 0.930 . S
H575 C585 0.930 . S
H576 C588 0.929 . S
H577 C591 0.930 . S
H578 C593 0.960 . S
H579 C593 0.960 . S
H580 C593 0.960 . S
C581 H573 0.929 1_556 S
C581 C582 1.377 . S
C581 C583 1.384 . S
C582 C581 1.377 . S
C582 C588 1.390 . S
C583 H574 0.930 . S
C583 C581 1.384 . S
C583 C584 1.372 . S
C584 C583 1.372 . S
C584 C585 1.400 . S
C584 C589 1.490 . S
C585 H575 0.930 . S
C585 C584 1.400 . S
C585 C588 1.386 . S
H586 C602 0.930 . S
H587 C603 0.931 . S
C588 H576 0.929 . S
C588 C582 1.390 . S
C588 C585 1.386 . S
C589 C584 1.490 . S
C589 C591 1.395 . S
C589 C592 1.403 . S
H590 C596 0.930 . S
C591 H577 0.930 . S
C591 C589 1.395 . S
C591 C594 1.403 . S
C592 C589 1.403 . S
C592 C593 1.524 . S
C592 C596 1.400 . S
C593 H578 0.960 . S
C593 H579 0.960 . S
C593 H580 0.960 . S
C593 C592 1.524 . S
C594 C591 1.403 . S
C594 C595 1.392 . S
C594 C598 1.495 . S
C595 C594 1.392 . S
C595 C596 1.385 . S
C595 C597 1.478 . S
C596 H590 0.930 . S
C596 C592 1.400 . S
C596 C595 1.385 . S
C597 C595 1.478 . S
C597 C599 1.381 . S
C597 C603 1.383 . S
C598 C594 1.495 . S
C598 H604 0.959 . S
C598 H605 0.961 . S
C598 H606 0.960 . S
C599 C597 1.381 . S
C599 C600 1.394 . S
C599 H607 0.930 . S
C600 C599 1.394 . S
C600 C601 1.383 . S
C600 H608 0.929 . S
C601 C600 1.383 . S
C601 C602 1.377 . S
C602 H586 0.930 . S
C602 C601 1.377 . S
C602 C603 1.379 . S
C603 H587 0.931 . S
C603 C597 1.383 . S
C603 C602 1.379 . S
H604 C598 0.959 . S
H605 C598 0.961 . S
H606 C598 0.960 . S
H607 C599 0.930 . S
H608 C600 0.929 . S
H609 C617 0.929 . S
H610 C619 0.930 . S
H611 C621 0.930 . S
H612 C624 0.929 . S
H613 C627 0.930 . S
H614 C629 0.960 . S
H615 C629 0.960 . S
H616 C629 0.960 . S
C617 H609 0.929 . S
C617 C618 1.377 . S
C617 C619 1.384 . S
C618 C617 1.377 . S
C618 C624 1.390 . S
C619 H610 0.930 . S
C619 C617 1.384 . S
C619 C620 1.372 . S
C620 C619 1.372 . S
C620 C621 1.400 . S
C620 C625 1.490 . S
C621 H611 0.930 . S
C621 C620 1.400 . S
C621 C624 1.386 . S
H622 C638 0.930 . S
H623 C639 0.931 . S
C624 H612 0.929 . S
C624 C618 1.390 . S
C624 C621 1.386 . S
C625 C620 1.490 . S
C625 C627 1.395 . S
C625 C628 1.403 . S
H626 C632 0.930 . S
C627 H613 0.930 . S
C627 C625 1.395 . S
C627 C630 1.403 . S
C628 C625 1.403 . S
C628 C629 1.524 . S
C628 C632 1.400 . S
C629 H614 0.960 . S
C629 H615 0.960 . S
C629 H616 0.960 . S
C629 C628 1.524 . S
C630 C627 1.403 . S
C630 C631 1.392 . S
C630 C634 1.495 . S
C631 C630 1.392 . S
C631 C632 1.385 . S
C631 C633 1.478 . S
C632 H626 0.930 . S
C632 C628 1.400 . S
C632 C631 1.385 . S
C633 C631 1.478 . S
C633 C635 1.381 . S
C633 C639 1.383 . S
C634 C630 1.495 . S
C634 H640 0.959 . S
C634 H641 0.961 . S
C634 H642 0.960 . S
C635 C633 1.381 . S
C635 C636 1.394 . S
C635 H643 0.930 . S
C636 C635 1.394 . S
C636 C637 1.383 . S
C636 H644 0.929 . S
C637 C636 1.383 . S
C637 C638 1.377 . S
C638 H622 0.930 . S
C638 C637 1.377 . S
C638 C639 1.379 . S
C639 H623 0.931 . S
C639 C633 1.383 . S
C639 C638 1.379 . S
H640 C634 0.959 . S
H641 C634 0.961 . S
H642 C634 0.960 . S
H643 C635 0.930 . S
H644 C636 0.929 . S
H645 C653 0.929 . S
H646 C655 0.930 . S
H647 C657 0.930 1_554 S
H648 C660 0.929 . S
H649 C663 0.930 . S
H650 C665 0.960 . S
H651 C665 0.960 . S
H652 C665 0.960 . S
C653 H645 0.929 . S
C653 C654 1.377 1_556 S
C653 C655 1.384 . S
C654 C653 1.377 1_554 S
C654 C660 1.390 . S
C655 H646 0.930 . S
C655 C653 1.384 . S
C655 C656 1.372 . S
C656 C655 1.372 . S
C656 C657 1.400 . S
C656 C661 1.490 . S
C657 H647 0.930 1_556 S
C657 C656 1.400 . S
C657 C660 1.386 1_556 S
H658 C674 0.930 . S
H659 C675 0.931 . S
C660 H648 0.929 . S
C660 C654 1.390 . S
C660 C657 1.386 1_554 S
C661 C656 1.490 . S
C661 C663 1.395 . S
C661 C664 1.403 . S
H662 C668 0.930 . S
C663 H649 0.930 . S
C663 C661 1.395 . S
C663 C666 1.403 . S
C664 C661 1.403 . S
C664 C665 1.524 . S
C664 C668 1.400 . S
C665 H650 0.960 . S
C665 H651 0.960 . S
C665 H652 0.960 . S
C665 C664 1.524 . S
C666 C663 1.403 . S
C666 C667 1.392 . S
C666 C670 1.495 . S
C667 C666 1.392 . S
C667 C668 1.385 . S
C667 C669 1.478 . S
C668 H662 0.930 . S
C668 C664 1.400 . S
C668 C667 1.385 . S
C669 C667 1.478 . S
C669 C671 1.381 . S
C669 C675 1.383 . S
C670 C666 1.495 . S
C670 H676 0.959 . S
C670 H677 0.961 . S
C670 H678 0.960 . S
C671 C669 1.381 . S
C671 C672 1.394 . S
C671 H679 0.930 . S
C672 C671 1.394 . S
C672 C673 1.383 . S
C672 H680 0.929 . S
C673 C672 1.383 . S
C673 C674 1.377 . S
C674 H658 0.930 . S
C674 C673 1.377 . S
C674 C675 1.379 . S
C675 H659 0.931 . S
C675 C669 1.383 . S
C675 C674 1.379 . S
H676 C670 0.959 . S
H677 C670 0.961 . S
H678 C670 0.960 . S
H679 C671 0.930 . S
H680 C672 0.929 . S
H681 C689 0.929 . S
H682 C691 0.930 . S
H683 C693 0.930 . S
H684 C696 0.929 . S
H685 C699 0.930 . S
H686 C701 0.960 . S
H687 C701 0.960 . S
H688 C701 0.960 . S
C689 H681 0.929 . S
C689 C690 1.377 . S
C689 C691 1.384 1_554 S
C690 C689 1.377 . S
C690 C696 1.390 . S
C691 H682 0.930 . S
C691 C689 1.384 1_556 S
C691 C692 1.372 . S
C692 C691 1.372 . S
C692 C693 1.400 . S
C692 C697 1.490 . S
C693 H683 0.930 . S
C693 C692 1.400 . S
C693 C696 1.386 1_556 S
H694 C710 0.930 . S
H695 C711 0.931 . S
C696 H684 0.929 . S
C696 C690 1.390 . S
C696 C693 1.386 1_554 S
C697 C692 1.490 . S
C697 C699 1.395 . S
C697 C700 1.403 . S
H698 C704 0.930 . S
C699 H685 0.930 . S
C699 C697 1.395 . S
C699 C702 1.403 . S
C700 C697 1.403 . S
C700 C701 1.524 . S
C700 C704 1.400 . S
C701 H686 0.960 . S
C701 H687 0.960 . S
C701 H688 0.960 . S
C701 C700 1.524 . S
C702 C699 1.403 . S
C702 C703 1.392 . S
C702 C706 1.495 . S
C703 C702 1.392 . S
C703 C704 1.385 . S
C703 C705 1.478 . S
C704 H698 0.930 . S
C704 C700 1.400 . S
C704 C703 1.385 . S
C705 C703 1.478 . S
C705 C707 1.381 . S
C705 C711 1.383 . S
C706 C702 1.495 . S
C706 H712 0.959 . S
C706 H713 0.961 . S
C706 H714 0.960 . S
C707 C705 1.381 . S
C707 C708 1.394 . S
C707 H715 0.930 . S
C708 C707 1.394 . S
C708 C709 1.383 . S
C708 H716 0.929 . S
C709 C708 1.383 . S
C709 C710 1.377 . S
C710 H694 0.930 . S
C710 C709 1.377 . S
C710 C711 1.379 . S
C711 H695 0.931 . S
C711 C705 1.383 . S
C711 C710 1.379 . S
H712 C706 0.959 . S
H713 C706 0.961 . S
H714 C706 0.960 . S
H715 C707 0.930 . S
H716 C708 0.929 . S
H717 C725 0.929 . S
H718 C727 0.934 . S
H719 C729 0.930 1_556 S
H720 C732 0.929 . S
H721 C735 0.930 1_554 S
H722 C737 0.960 . S
H723 C737 0.960 . S
H724 C737 0.960 . S
C725 H717 0.929 . S
C725 C726 1.377 . S
C725 C727 1.384 . S
C726 C725 1.377 . S
C726 C732 1.390 . S
C727 H718 0.934 . S
C727 C725 1.384 . S
C727 C728 1.372 1_554 S
C728 C727 1.372 1_556 S
C728 C729 1.400 1_556 S
C728 C733 1.490 . S
C729 H719 0.930 1_554 S
C729 C728 1.400 1_554 S
C729 C732 1.386 . S
H730 C746 0.930 . S
H731 C747 0.931 . S
C732 H720 0.929 . S
C732 C726 1.390 . S
C732 C729 1.386 . S
C733 C728 1.490 . S
C733 C735 1.395 . S
C733 C736 1.403 . S
H734 C740 0.930 . S
C735 H721 0.930 1_556 S
C735 C733 1.395 . S
C735 C738 1.403 . S
C736 C733 1.403 . S
C736 C737 1.524 . S
C736 C740 1.400 . S
C737 H722 0.960 . S
C737 H723 0.960 . S
C737 H724 0.960 . S
C737 C736 1.524 . S
C738 C735 1.403 . S
C738 C739 1.392 . S
C738 C742 1.495 . S
C739 C738 1.392 . S
C739 C740 1.385 . S
C739 C741 1.478 . S
C740 H734 0.930 . S
C740 C736 1.400 . S
C740 C739 1.385 . S
C741 C739 1.478 . S
C741 C743 1.381 . S
C741 C747 1.383 . S
C742 C738 1.495 . S
C742 H748 0.959 . S
C742 H749 0.961 . S
C742 H750 0.960 . S
C743 C741 1.381 . S
C743 C744 1.394 . S
C743 H751 0.930 . S
C744 C743 1.394 . S
C744 C745 1.383 . S
C744 H752 0.929 . S
C745 C744 1.383 . S
C745 C746 1.377 . S
C746 H730 0.930 . S
C746 C745 1.377 . S
C746 C747 1.379 . S
C747 H731 0.931 . S
C747 C741 1.383 . S
C747 C746 1.379 . S
H748 C742 0.959 . S
H749 C742 0.961 . S
H750 C742 0.960 . S
H751 C743 0.930 . S
H752 C744 0.929 . S
H753 C761 0.929 . S
H754 C763 0.930 . S
H755 C765 0.930 . S
H756 C768 0.929 . S
H757 C771 0.930 . S
H758 C773 0.960 . S
H759 C773 0.960 . S
H760 C773 0.960 . S
C761 H753 0.929 . S
C761 C762 1.377 1_554 S
C761 C763 1.384 1_554 S
C762 C761 1.377 1_556 S
C762 C768 1.390 . S
C763 H754 0.930 . S
C763 C761 1.384 1_556 S
C763 C764 1.372 . S
C764 C763 1.372 . S
C764 C765 1.400 . S
C764 C769 1.490 . S
C765 H755 0.930 . S
C765 C764 1.400 . S
C765 C768 1.386 . S
H766 C782 0.930 . S
H767 C783 0.931 . S
C768 H756 0.929 . S
C768 C762 1.390 . S
C768 C765 1.386 . S
C769 C764 1.490 . S
C769 C771 1.395 . S
C769 C772 1.403 . S
H770 C776 0.930 . S
C771 H757 0.930 . S
C771 C769 1.395 . S
C771 C774 1.403 . S
C772 C769 1.403 . S
C772 C773 1.524 . S
C772 C776 1.400 . S
C773 H758 0.960 . S
C773 H759 0.960 . S
C773 H760 0.960 . S
C773 C772 1.524 . S
C774 C771 1.403 . S
C774 C775 1.392 . S
C774 C778 1.495 . S
C775 C774 1.392 . S
C775 C776 1.385 . S
C775 C777 1.478 . S
C776 H770 0.930 . S
C776 C772 1.400 . S
C776 C775 1.385 . S
C777 C775 1.478 . S
C777 C779 1.381 . S
C777 C783 1.383 . S
C778 C774 1.495 . S
C778 H784 0.959 . S
C778 H785 0.961 . S
C778 H786 0.960 . S
C779 C777 1.381 . S
C779 C780 1.394 . S
C779 H787 0.930 . S
C780 C779 1.394 . S
C780 C781 1.383 . S
C780 H788 0.929 . S
C781 C780 1.383 . S
C781 C782 1.377 . S
C782 H766 0.930 . S
C782 C781 1.377 . S
C782 C783 1.379 . S
C783 H767 0.931 . S
C783 C777 1.383 . S
C783 C782 1.379 . S
H784 C778 0.959 . S
H785 C778 0.961 . S
H786 C778 0.960 . S
H787 C779 0.930 . S
H788 C780 0.929 . S
H789 C797 0.929 . S
H790 C799 0.930 . S
H791 C801 0.930 . S
H792 C804 0.910 1_554 S
H793 C807 0.930 . S
H794 C809 0.960 . S
H795 C809 0.960 . S
H796 C809 0.960 . S
C797 H789 0.929 . S
C797 C798 1.377 . S
C797 C799 1.384 . S
C798 C797 1.377 . S
C798 C804 1.390 . S
C799 H790 0.930 . S
C799 C797 1.384 . S
C799 C800 1.372 . S
C800 C799 1.372 . S
C800 C801 1.400 . S
C800 C805 1.490 . S
C801 H791 0.930 . S
C801 C800 1.400 . S
C801 C804 1.386 . S
H802 C818 0.930 . S
H803 C819 0.931 . S
C804 H792 0.910 1_556 S
C804 C798 1.390 . S
C804 C801 1.386 . S
C805 C800 1.490 . S
C805 C807 1.395 . S
C805 C808 1.403 . S
H806 C812 0.930 . S
C807 H793 0.930 . S
C807 C805 1.395 . S
C807 C810 1.403 . S
C808 C805 1.403 . S
C808 C809 1.524 . S
C808 C812 1.400 . S
C809 H794 0.960 . S
C809 H795 0.960 . S
C809 H796 0.960 . S
C809 C808 1.524 . S
C810 C807 1.403 . S
C810 C811 1.392 . S
C810 C814 1.495 . S
C811 C810 1.392 . S
C811 C812 1.385 . S
C811 C813 1.478 . S
C812 H806 0.930 . S
C812 C808 1.400 . S
C812 C811 1.385 . S
C813 C811 1.478 . S
C813 C815 1.381 . S
C813 C819 1.383 . S
C814 C810 1.495 . S
C814 H820 0.959 . S
C814 H821 0.961 . S
C814 H822 0.960 . S
C815 C813 1.381 . S
C815 C816 1.394 . S
C815 H823 0.930 . S
C816 C815 1.394 . S
C816 C817 1.383 . S
C816 H824 0.929 . S
C817 C816 1.383 . S
C817 C818 1.377 . S
C818 H802 0.930 . S
C818 C817 1.377 . S
C818 C819 1.379 . S
C819 H803 0.931 . S
C819 C813 1.383 . S
C819 C818 1.379 . S
H820 C814 0.959 . S
H821 C814 0.961 . S
H822 C814 0.960 . S
H823 C815 0.930 . S
H824 C816 0.929 . S
H825 C833 0.929 . S
H826 C835 0.930 . S
H827 C837 0.930 . S
H828 C840 0.929 . S
H829 C843 0.930 . S
H830 C845 0.960 . S
H831 C845 0.960 . S
H832 C845 0.960 . S
C833 H825 0.929 . S
C833 C834 1.377 . S
C833 C835 1.384 . S
C834 C833 1.377 . S
C834 C840 1.390 . S
C835 H826 0.930 . S
C835 C833 1.384 . S
C835 C836 1.372 . S
C836 C835 1.372 . S
C836 C837 1.400 . S
C836 C841 1.490 . S
C837 H827 0.930 . S
C837 C836 1.400 . S
C837 C840 1.386 . S
H838 C854 0.930 . S
H839 C855 0.931 . S
C840 H828 0.929 . S
C840 C834 1.390 . S
C840 C837 1.386 . S
C841 C836 1.490 . S
C841 C843 1.395 . S
C841 C844 1.403 . S
H842 C848 0.930 . S
C843 H829 0.930 . S
C843 C841 1.395 . S
C843 C846 1.403 . S
C844 C841 1.403 . S
C844 C845 1.524 . S
C844 C848 1.400 . S
C845 H830 0.960 . S
C845 H831 0.960 . S
C845 H832 0.960 . S
C845 C844 1.524 . S
C846 C843 1.403 . S
C846 C847 1.392 . S
C846 C850 1.495 . S
C847 C846 1.392 . S
C847 C848 1.385 . S
C847 C849 1.478 . S
C848 H842 0.930 . S
C848 C844 1.400 . S
C848 C847 1.385 . S
C849 C847 1.478 . S
C849 C851 1.381 . S
C849 C855 1.383 . S
C850 C846 1.495 . S
C850 H856 0.959 . S
C850 H857 0.961 . S
C850 H858 0.960 . S
C851 C849 1.381 . S
C851 C852 1.394 . S
C851 H859 0.930 . S
C852 C851 1.394 . S
C852 C853 1.383 . S
C852 H860 0.929 . S
C853 C852 1.383 . S
C853 C854 1.377 . S
C854 H838 0.930 . S
C854 C853 1.377 . S
C854 C855 1.379 . S
C855 H839 0.931 . S
C855 C849 1.383 . S
C855 C854 1.379 . S
H856 C850 0.959 . S
H857 C850 0.961 . S
H858 C850 0.960 . S
H859 C851 0.930 . S
H860 C852 0.929 . S
H861 C869 0.929 . S
H862 C871 0.930 . S
H863 C873 0.930 . S
H864 C876 0.929 . S
H865 C879 0.930 . S
H866 C881 0.960 . S
H867 C881 0.960 . S
H868 C881 0.960 . S
C869 H861 0.929 . S
C869 C870 1.377 . S
C869 C871 1.384 . S
C870 C869 1.377 . S
C870 C876 1.390 . S
C871 H862 0.930 . S
C871 C869 1.384 . S
C871 C872 1.372 . S
C872 C871 1.372 . S
C872 C873 1.400 . S
C872 C877 1.490 . S
C873 H863 0.930 . S
C873 C872 1.400 . S
C873 C876 1.386 . S
H874 C890 0.930 . S
H875 C891 0.931 . S
C876 H864 0.929 . S
C876 C870 1.390 . S
C876 C873 1.386 . S
C877 C872 1.490 . S
C877 C879 1.395 . S
C877 C880 1.403 . S
H878 C884 0.930 . S
C879 H865 0.930 . S
C879 C877 1.395 . S
C879 C882 1.403 . S
C880 C877 1.403 . S
C880 C881 1.524 . S
C880 C884 1.400 . S
C881 H866 0.960 . S
C881 H867 0.960 . S
C881 H868 0.960 . S
C881 C880 1.524 . S
C882 C879 1.403 . S
C882 C883 1.392 . S
C882 C886 1.495 . S
C883 C882 1.392 . S
C883 C884 1.385 . S
C883 C885 1.478 . S
C884 H878 0.930 . S
C884 C880 1.400 . S
C884 C883 1.385 . S
C885 C883 1.478 . S
C885 C887 1.381 . S
C885 C891 1.383 . S
C886 C882 1.495 . S
C886 H892 0.959 . S
C886 H893 0.961 . S
C886 H894 0.960 . S
C887 C885 1.381 . S
C887 C888 1.394 . S
C887 H895 0.930 . S
C888 C887 1.394 . S
C888 C889 1.383 . S
C888 H896 0.929 . S
C889 C888 1.383 . S
C889 C890 1.377 . S
C890 H874 0.930 . S
C890 C889 1.377 . S
C890 C891 1.379 . S
C891 H875 0.931 . S
C891 C885 1.383 . S
C891 C890 1.379 . S
H892 C886 0.959 . S
H893 C886 0.961 . S
H894 C886 0.960 . S
H895 C887 0.930 . S
H896 C888 0.929 . S
H897 C905 0.929 . S
H898 C907 0.930 . S
H899 C909 0.930 . S
H900 C912 0.929 . S
H901 C915 0.930 . S
H902 C917 0.960 . S
H903 C917 0.960 . S
H904 C917 0.960 . S
C905 H897 0.929 . S
C905 C906 1.377 . S
C905 C907 1.384 . S
C906 C905 1.377 . S
C906 C912 1.390 . S
C907 H898 0.930 . S
C907 C905 1.384 . S
C907 C908 1.372 . S
C908 C907 1.372 . S
C908 C909 1.400 . S
C908 C913 1.490 . S
C909 H899 0.930 . S
C909 C908 1.400 . S
C909 C912 1.386 . S
H910 C926 0.930 . S
H911 C927 0.931 . S
C912 H900 0.929 . S
C912 C906 1.390 . S
C912 C909 1.386 . S
C913 C908 1.490 . S
C913 C915 1.395 . S
C913 C916 1.403 . S
H914 C920 0.930 . S
C915 H901 0.930 . S
C915 C913 1.395 . S
C915 C918 1.403 . S
C916 C913 1.403 . S
C916 C917 1.524 . S
C916 C920 1.400 . S
C917 H902 0.960 . S
C917 H903 0.960 . S
C917 H904 0.960 . S
C917 C916 1.524 . S
C918 C915 1.403 . S
C918 C919 1.392 . S
C918 C922 1.495 . S
C919 C918 1.392 . S
C919 C920 1.385 . S
C919 C921 1.478 . S
C920 H914 0.930 . S
C920 C916 1.400 . S
C920 C919 1.385 . S
C921 C919 1.478 . S
C921 C923 1.381 . S
C921 C927 1.383 . S
C922 C918 1.495 . S
C922 H928 0.959 . S
C922 H929 0.961 . S
C922 H930 0.960 . S
C923 C921 1.381 . S
C923 C924 1.394 . S
C923 H931 0.930 . S
C924 C923 1.394 . S
C924 C925 1.383 . S
C924 H932 0.929 . S
C925 C924 1.383 . S
C925 C926 1.377 . S
C926 H910 0.930 . S
C926 C925 1.377 . S
C926 C927 1.379 . S
C927 H911 0.931 . S
C927 C921 1.383 . S
C927 C926 1.379 . S
H928 C922 0.959 . S
H929 C922 0.961 . S
H930 C922 0.960 . S
H931 C923 0.930 . S
H932 C924 0.929 . S
H933 C941 0.929 . S
H934 C943 0.930 . S
H935 C945 0.930 . S
H936 C948 0.929 . S
H937 C951 0.930 . S
H938 C953 0.960 . S
H939 C953 0.960 . S
H940 C953 0.960 . S
C941 H933 0.929 . S
C941 C942 1.377 . S
C941 C943 1.384 . S
C942 C941 1.377 . S
C942 C948 1.390 . S
C943 H934 0.930 . S
C943 C941 1.384 . S
C943 C944 1.372 . S
C944 C943 1.372 . S
C944 C945 1.400 . S
C944 C949 1.490 . S
C945 H935 0.930 . S
C945 C944 1.400 . S
C945 C948 1.386 . S
H946 C962 0.930 . S
H947 C963 0.931 . S
C948 H936 0.929 . S
C948 C942 1.390 . S
C948 C945 1.386 . S
C949 C944 1.490 . S
C949 C951 1.395 . S
C949 C952 1.403 . S
H950 C956 0.930 . S
C951 H937 0.930 . S
C951 C949 1.395 . S
C951 C954 1.403 . S
C952 C949 1.403 . S
C952 C953 1.524 . S
C952 C956 1.400 . S
C953 H938 0.960 . S
C953 H939 0.960 . S
C953 H940 0.960 . S
C953 C952 1.524 . S
C954 C951 1.403 . S
C954 C955 1.392 . S
C954 C958 1.495 . S
C955 C954 1.392 . S
C955 C956 1.385 . S
C955 C957 1.478 . S
C956 H950 0.930 . S
C956 C952 1.400 . S
C956 C955 1.385 . S
C957 C955 1.478 . S
C957 C959 1.381 . S
C957 C963 1.383 . S
C958 C954 1.495 . S
C958 H964 0.959 . S
C958 H965 0.961 . S
C958 H966 0.960 . S
C959 C957 1.381 . S
C959 C960 1.394 . S
C959 H967 0.930 . S
C960 C959 1.394 . S
C960 C961 1.383 . S
C960 H968 0.929 . S
C961 C960 1.383 . S
C961 C962 1.377 . S
C962 H946 0.930 . S
C962 C961 1.377 . S
C962 C963 1.379 . S
C963 H947 0.931 . S
C963 C957 1.383 . S
C963 C962 1.379 . S
H964 C958 0.959 . S
H965 C958 0.961 . S
H966 C958 0.960 . S
H967 C959 0.930 . S
H968 C960 0.929 . S
H969 C977 0.929 . S
H970 C979 0.930 . S
H971 C981 0.930 . S
H972 C984 0.929 . S
H973 C987 0.930 . S
H974 C989 0.960 . S
H975 C989 0.960 . S
H976 C989 0.960 . S
C977 H969 0.929 . S
C977 C978 1.377 . S
C977 C979 1.384 . S
C978 C977 1.377 . S
C978 C984 1.390 . S
C979 H970 0.930 . S
C979 C977 1.384 . S
C979 C980 1.372 . S
C980 C979 1.372 . S
C980 C981 1.400 . S
C980 C985 1.490 . S
C981 H971 0.930 . S
C981 C980 1.400 . S
C981 C984 1.386 . S
H982 C998 0.930 . S
H983 C999 0.931 . S
C984 H972 0.929 . S
C984 C978 1.390 . S
C984 C981 1.386 . S
C985 C980 1.490 . S
C985 C987 1.395 . S
C985 C988 1.403 . S
H986 C992 0.930 . S
C987 H973 0.930 . S
C987 C985 1.395 . S
C987 C990 1.403 . S
C988 C985 1.403 . S
C988 C989 1.524 . S
C988 C992 1.400 . S
C989 H974 0.960 . S
C989 H975 0.960 . S
C989 H976 0.960 . S
C989 C988 1.524 . S
C990 C987 1.403 . S
C990 C991 1.392 . S
C990 C994 1.495 . S
C991 C990 1.392 . S
C991 C992 1.385 . S
C991 C993 1.478 . S
C992 H986 0.930 . S
C992 C988 1.400 . S
C992 C991 1.385 . S
C993 C991 1.478 . S
C993 C995 1.381 . S
C993 C999 1.383 . S
C994 C990 1.495 . S
C994 H1000 0.959 . S
C994 H1001 0.961 . S
C994 H1002 0.960 . S
C995 C993 1.381 . S
C995 C996 1.394 . S
C995 H1003 0.930 . S
C996 C995 1.394 . S
C996 C997 1.383 . S
C996 H1004 0.929 . S
C997 C996 1.383 . S
C997 C998 1.377 . S
C998 H982 0.930 . S
C998 C997 1.377 . S
C998 C999 1.379 . S
C999 H983 0.931 . S
C999 C993 1.383 . S
C999 C998 1.379 . S
H1000 C994 0.959 . S
H1001 C994 0.961 . S
H1002 C994 0.960 . S
H1003 C995 0.930 . S
H1004 C996 0.929 . S
H1005 C1013 0.929 . S
H1006 C1015 0.930 . S
H1007 C1017 0.930 . S
H1008 C1020 0.929 . S
H1009 C1023 0.930 . S
H1010 C1025 0.960 . S
H1011 C1025 0.960 . S
H1012 C1025 0.960 . S
C1013 H1005 0.929 . S
C1013 C1014 1.377 . S
C1013 C1015 1.384 . S
C1014 C1013 1.377 . S
C1014 C1020 1.390 . S
C1015 H1006 0.930 . S
C1015 C1013 1.384 . S
C1015 C1016 1.372 . S
C1016 C1015 1.372 . S
C1016 C1017 1.400 . S
C1016 C1021 1.490 . S
C1017 H1007 0.930 . S
C1017 C1016 1.400 . S
C1017 C1020 1.386 . S
H1018 C1034 0.930 . S
H1019 C1035 0.931 . S
C1020 H1008 0.929 . S
C1020 C1014 1.390 . S
C1020 C1017 1.386 . S
C1021 C1016 1.490 . S
C1021 C1023 1.395 . S
C1021 C1024 1.403 . S
H1022 C1028 0.930 . S
C1023 H1009 0.930 . S
C1023 C1021 1.395 . S
C1023 C1026 1.403 . S
C1024 C1021 1.403 . S
C1024 C1025 1.524 . S
C1024 C1028 1.400 . S
C1025 H1010 0.960 . S
C1025 H1011 0.960 . S
C1025 H1012 0.960 . S
C1025 C1024 1.524 . S
C1026 C1023 1.403 . S
C1026 C1027 1.392 . S
C1026 C1030 1.495 . S
C1027 C1026 1.392 . S
C1027 C1028 1.385 . S
C1027 C1029 1.478 . S
C1028 H1022 0.930 . S
C1028 C1024 1.400 . S
C1028 C1027 1.385 . S
C1029 C1027 1.478 . S
C1029 C1031 1.381 . S
C1029 C1035 1.383 . S
C1030 C1026 1.495 . S
C1030 H1036 0.959 . S
C1030 H1037 0.961 . S
C1030 H1038 0.960 . S
C1031 C1029 1.381 . S
C1031 C1032 1.394 . S
C1031 H1039 0.930 . S
C1032 C1031 1.394 . S
C1032 C1033 1.383 . S
C1032 H1040 0.929 . S
C1033 C1032 1.383 . S
C1033 C1034 1.377 . S
C1034 H1018 0.930 . S
C1034 C1033 1.377 . S
C1034 C1035 1.379 . S
C1035 H1019 0.931 . S
C1035 C1029 1.383 . S
C1035 C1034 1.379 . S
H1036 C1030 0.959 . S
H1037 C1030 0.961 . S
H1038 C1030 0.960 . S
H1039 C1031 0.930 . S
H1040 C1032 0.929 . S
C186 C1 1.635 . S
C205 C84 1.551 . S
C222 C27 1.502 . S
C241 C116 1.458 . S
C277 C175 1.879 . S
C258 C40 1.909 . S
C313 C104 1.391 . S
C294 C55 1.421 . S
C330 C68 1.553 . S
C349 C134 1.476 . S
C385 C156 1.096 . S
C366 C70 1.090 . S
C421 C125 1.541 . S
C402 C41 1.578 . S
C438 C54 1.144 . S
C457 C165 1.079 . S
C493 C114 1.440 . S
C474 C69 1.496 1_556 S
C510 C71 1.487 . S
C529 C144 1.466 . S
C546 C0 1.832 . S
C565 C147 1.774 . S
C601 C86 1.528 . S
C582 C26 1.567 1_556 S
C637 C94 1.521 . S
C618 C42 1.541 . S
C673 C135 1.467 . S
C654 C57 1.507 . S
C709 C148 1.872 . S
C690 C83 1.938 . S
C745 C85 1.409 . S
C726 C12 1.466 . S
C781 C145 1.466 . S
C762 C14 1.482 1_556 S
C798 C29 1.112 . S
C817 C146 1.081 . S
C853 C115 1.515 . S
C834 C82 1.562 . S
C889 C176 1.099 . S
C870 C13 1.101 . S
C925 C103 1.472 . S
C906 C15 1.513 . S
C961 C117 1.490 . S
C942 C28 1.544 . S
C978 C43 1.854 . S
C997 C166 1.790 . S
C1014 C56 1.596 . S
C1033 C113 1.539 . S
