# Generated by pormake.
# Topology zzz, (3,6)-cn, num edge types: 1
# Building blocks:
#     Node 0, Type 0, BuildingBlock: WUSLED_clean_sbu_0, # of connection points: 3
#     Node 1, Type 0, BuildingBlock: WUSLED_clean_sbu_0, # of connection points: 3
#     Node 2, Type 0, BuildingBlock: WUSLED_clean_sbu_0, # of connection points: 3
#     Node 3, Type 0, BuildingBlock: WUSLED_clean_sbu_0, # of connection points: 3
#     Node 4, Type 0, BuildingBlock: WUSLED_clean_sbu_0, # of connection points: 3
#     Node 5, Type 0, BuildingBlock: WUSLED_clean_sbu_0, # of connection points: 3
#     Node 6, Type 0, BuildingBlock: WUSLED_clean_sbu_0, # of connection points: 3
#     Node 7, Type 0, BuildingBlock: WUSLED_clean_sbu_0, # of connection points: 3
#     Node 8, Type 1, BuildingBlock: GEDQOX_clean_sbu_0, # of connection points: 6
#     Node 9, Type 1, BuildingBlock: GEDQOX_clean_sbu_0, # of connection points: 6
#     Node 10, Type 1, BuildingBlock: GEDQOX_clean_sbu_0, # of connection points: 6
#     Node 11, Type 1, BuildingBlock: GEDQOX_clean_sbu_0, # of connection points: 6
#     Edge 12, Type (0, 1), BuildingBlock: AJUNOK_clean_linker_0, # of connection points: 2
#     Edge 13, Type (0, 1), BuildingBlock: AJUNOK_clean_linker_0, # of connection points: 2
#     Edge 14, Type (0, 1), BuildingBlock: AJUNOK_clean_linker_0, # of connection points: 2
#     Edge 15, Type (0, 1), BuildingBlock: AJUNOK_clean_linker_0, # of connection points: 2
#     Edge 16, Type (0, 1), BuildingBlock: AJUNOK_clean_linker_0, # of connection points: 2
#     Edge 17, Type (0, 1), BuildingBlock: AJUNOK_clean_linker_0, # of connection points: 2
#     Edge 18, Type (0, 1), BuildingBlock: AJUNOK_clean_linker_0, # of connection points: 2
#     Edge 19, Type (0, 1), BuildingBlock: AJUNOK_clean_linker_0, # of connection points: 2
#     Edge 20, Type (0, 1), BuildingBlock: AJUNOK_clean_linker_0, # of connection points: 2
#     Edge 21, Type (0, 1), BuildingBlock: AJUNOK_clean_linker_0, # of connection points: 2
#     Edge 22, Type (0, 1), BuildingBlock: AJUNOK_clean_linker_0, # of connection points: 2
#     Edge 23, Type (0, 1), BuildingBlock: AJUNOK_clean_linker_0, # of connection points: 2
#     Edge 24, Type (0, 1), BuildingBlock: AJUNOK_clean_linker_0, # of connection points: 2
#     Edge 25, Type (0, 1), BuildingBlock: AJUNOK_clean_linker_0, # of connection points: 2
#     Edge 26, Type (0, 1), BuildingBlock: AJUNOK_clean_linker_0, # of connection points: 2
#     Edge 27, Type (0, 1), BuildingBlock: AJUNOK_clean_linker_0, # of connection points: 2
#     Edge 28, Type (0, 1), BuildingBlock: AJUNOK_clean_linker_0, # of connection points: 2
#     Edge 29, Type (0, 1), BuildingBlock: AJUNOK_clean_linker_0, # of connection points: 2
#     Edge 30, Type (0, 1), BuildingBlock: AJUNOK_clean_linker_0, # of connection points: 2
#     Edge 31, Type (0, 1), BuildingBlock: AJUNOK_clean_linker_0, # of connection points: 2
#     Edge 32, Type (0, 1), BuildingBlock: AJUNOK_clean_linker_0, # of connection points: 2
#     Edge 33, Type (0, 1), BuildingBlock: AJUNOK_clean_linker_0, # of connection points: 2
#     Edge 34, Type (0, 1), BuildingBlock: AJUNOK_clean_linker_0, # of connection points: 2
#     Edge 35, Type (0, 1), BuildingBlock: AJUNOK_clean_linker_0, # of connection points: 2
# Relax obj value: 0.296
# Max RMSD: 0.288
# Mean RMSD: 0.190
data_MOF--net-zzz--node1-WUSLED_clean_sbu_0--node2-GEDQOX_clean_sbu_0--edge1-AJUNOK_clean_linker_0
_symmetry_space_group_name_H-M    P1
_symmetry_Int_Tables_number       1
_symmetry_cell_setting            triclinic
loop_
_symmetry_equiv_pos_as_xyz
'x, y, z'
_cell_length_a     54.091259
_cell_length_b     49.328797
_cell_length_c     18.805477
_cell_angle_alpha  80.824317
_cell_angle_beta   91.385134
_cell_angle_gamma 103.10093
loop_
_atom_site_label
_atom_site_type_symbol
_atom_site_fract_x
_atom_site_fract_y
_atom_site_fract_z
_atom_type_partial_charge
C0 C 0.80417 0.53283 0.26744 0.0
C1 C 0.82344 0.51779 0.27808 0.0
C2 C 0.84186 0.54511 0.37143 0.0
C3 C 0.8422 0.52395 0.32954 0.0
C4 C 0.82283 0.56051 0.35922 0.0
C5 C 0.80413 0.55436 0.30782 0.0
U6 U 0.77279 0.49357 0.11629 0.0
O7 O 0.73276 0.47243 0.10393 0.0
O8 O 0.75116 0.50808 0.02303 0.0
C9 C 0.73021 0.48935 0.04402 0.0
C10 C 0.78343 0.52573 0.21671 0.0
C11 C 0.70655 0.49939 0.03496 0.0
C12 C 0.67427 0.52071 0.07617 0.0
C13 C 0.6971 0.51175 0.08758 0.0
C14 C 0.67041 0.50519 0.95966 0.0
C15 C 0.66079 0.51765 1.0118 0.0
C16 C 0.69307 0.49624 0.97112 0.0
C17 C 0.83247 0.46299 0.09571 0.0
C18 C 0.86421 0.43858 0.0664 0.0
C19 C 0.87734 0.48477 0.10189 0.0
C20 C 0.85189 0.48532 0.11174 0.0
C21 C 0.88357 0.46204 0.07541 0.0
C22 C 0.83883 0.43907 0.07658 0.0
C23 C 0.80633 0.46644 0.08309 0.0
O24 O 0.78885 0.53505 0.14812 0.0
O25 O 0.77011 0.49957 0.22886 0.0
O26 O 0.80426 0.49116 0.04873 0.0
O27 O 0.78931 0.45586 0.1348 0.0
H28 H 0.82373 0.50103 0.24744 0.0
H29 H 0.85664 0.51175 0.33772 0.0
H30 H 0.82239 0.57734 0.38944 0.0
H31 H 0.78946 0.56626 0.30011 0.0
H32 H 0.66721 0.53016 0.11736 0.0
H33 H 0.70729 0.51437 0.13723 0.0
H34 H 0.66016 0.50187 0.91044 0.0
H35 H 0.70002 0.4866 0.93007 0.0
H36 H 0.86861 0.42082 0.04616 0.0
H37 H 0.89197 0.50318 0.10875 0.0
H38 H 0.84739 0.50406 0.12617 0.0
H39 H 0.82411 0.4217 0.06366 0.0
C40 C 0.95846 0.79247 0.41121 0.0
C41 C 0.97338 0.81811 0.37682 0.0
C42 C 0.95923 0.84288 0.46489 0.0
C43 C 0.97382 0.84316 0.40367 0.0
C44 C 0.94414 0.81714 0.49839 0.0
C45 C 0.94374 0.79221 0.47167 0.0
U46 U 0.97429 0.74622 0.27853 0.0
O47 O 0.98847 0.70741 0.30558 0.0
O48 O 0.95098 0.70581 0.25678 0.0
C49 C 0.96884 0.69213 0.27683 0.0
C50 C 0.95875 0.7655 0.38779 0.0
C51 C 0.97492 0.6749 0.22565 0.0
C52 C 0.98241 0.63033 0.20363 0.0
C53 C 0.9768 0.64721 0.25108 0.0
C54 C 0.98451 0.66871 0.10428 0.0
C55 C 0.98599 0.64073 0.12955 0.0
C56 C 0.97899 0.68569 0.15203 0.0
C57 C 1.00166 0.8128 0.14269 0.0
C58 C 0.98907 0.85758 0.12162 0.0
C59 C 0.02884 0.85371 0.07192 0.0
C60 C 0.0241 0.82532 0.10306 0.0
C61 C 0.01103 0.86981 0.07939 0.0
C62 C 0.98446 0.82929 0.15339 0.0
C63 C 0.99573 0.78219 0.16731 0.0
O64 O 0.94421 0.75905 0.33315 0.0
O65 O 0.98119 0.75966 0.3845 0.0
O66 O 0.00871 0.77306 0.22239 0.0
O67 O 0.9715 0.76965 0.17055 0.0
H68 H 0.98492 0.81867 0.33008 0.0
H69 H 0.98563 0.8627 0.37685 0.0
H70 H 0.93316 0.81613 0.54653 0.0
H71 H 0.93228 0.77257 0.49919 0.0
H72 H 0.98423 0.60917 0.22515 0.0
H73 H 0.97399 0.63866 0.30782 0.0
H74 H 0.98737 0.67732 0.04763 0.0
H75 H 0.97783 0.70718 0.13156 0.0
H76 H 0.97526 0.86981 0.12878 0.0
H77 H 0.0459 0.86278 0.03962 0.0
H78 H 0.03759 0.81291 0.09434 0.0
H79 H 0.96713 0.82013 0.18442 0.0
C80 C 0.71049 0.99484 0.30111 0.0
C81 C 0.69478 0.96787 0.32056 0.0
C82 C 0.66308 0.98785 0.37068 0.0
C83 C 0.67133 0.9644 0.35485 0.0
C84 C 0.67827 1.01496 0.34803 0.0
C85 C 0.70168 1.01844 0.31346 0.0
U86 U 0.77035 0.0202 0.17398 0.0
O87 O 0.79869 0.99582 0.15929 0.0
O88 O 0.80984 0.03431 0.20817 0.0
C89 C 0.81737 1.014 0.18349 0.0
C90 C 0.73708 0.99733 0.27849 0.0
C91 C 0.84158 0.02211 0.14219 0.0
C92 C 0.88745 0.03889 0.14298 0.0
C93 C 0.86376 0.03402 0.17658 0.0
C94 C 0.86727 0.02087 0.03843 0.0
C95 C 0.88956 0.03189 0.07413 0.0
C96 C 0.84346 1.01603 0.07214 0.0
C97 C 0.73171 0.05668 0.03264 0.0
C98 C 0.70691 0.0737 0.93319 0.0
C99 C 0.68683 0.054 0.04966 0.0
C100 C 0.71005 0.04945 0.07729 0.0
C101 C 0.68496 0.0656 0.97693 0.0
C102 C 0.73012 0.06923 0.9609 0.0
C103 C 0.75563 0.04963 0.05855 0.0
O104 O 0.74079 0.98423 0.2254 0.0
O105 O 0.75279 0.02207 0.27658 0.0
O106 O 0.756 0.02285 0.06343 0.0
O107 O 0.76567 0.06089 0.11442 0.0
H108 H 0.70117 0.94931 0.31223 0.0
H109 H 0.66003 0.94326 0.37128 0.0
H110 H 0.67275 0.03345 0.36059 0.0
H111 H 0.71337 0.03953 0.29961 0.0
H112 H 0.90426 0.04756 0.17164 0.0
H113 H 0.86283 0.03878 0.23062 0.0
H114 H 0.86831 1.01491 0.98579 0.0
H115 H 0.82669 1.00673 0.0443 0.0
H116 H 0.706 0.08297 0.87722 0.0
H117 H 0.67013 0.04743 0.08431 0.0
H118 H 0.71096 0.03961 0.13281 0.0
H119 H 0.7467 0.07493 0.9258 0.0
C120 C 0.56481 0.77747 0.63818 0.0
C121 C 0.56055 0.75676 0.59325 0.0
C122 C 0.56004 0.72025 0.69755 0.0
C123 C 0.55818 0.72836 0.62273 0.0
C124 C 0.56429 0.74113 0.74218 0.0
C125 C 0.56671 0.7695 0.71267 0.0
U126 U 0.56142 0.83584 0.4808 0.0
O127 O 0.54468 0.87264 0.47902 0.0
O128 O 0.58519 0.87883 0.45475 0.0
C129 C 0.56553 0.89047 0.45292 0.0
C130 C 0.56665 0.80731 0.60846 0.0
C131 C 0.5621 0.90829 0.38452 0.0
C132 C 0.55263 0.95126 0.31911 0.0
C133 C 0.55845 0.93558 0.38366 0.0
C134 C 0.55467 0.91276 0.25555 0.0
C135 C 0.55046 0.93987 0.25455 0.0
C136 C 0.56039 0.8971 0.31996 0.0
C137 C 0.5459 0.77963 0.35225 0.0
C138 C 0.55582 0.74979 0.2711 0.0
C139 C 0.5177 0.73408 0.34527 0.0
C140 C 0.52399 0.75884 0.37563 0.0
C141 C 0.53312 0.72985 0.2909 0.0
C142 C 0.56205 0.7745 0.30117 0.0
C143 C 0.55056 0.80812 0.37197 0.0
O144 O 0.58582 0.81917 0.56393 0.0
O145 O 0.54517 0.8137 0.58594 0.0
O146 O 0.5332 0.81371 0.41158 0.0
O147 O 0.57392 0.81934 0.38917 0.0
H148 H 0.5588 0.76254 0.53559 0.0
H149 H 0.5544 0.71268 0.58718 0.0
H150 H 0.5658 0.73549 0.79995 0.0
H151 H 0.56991 0.78522 0.74812 0.0
H152 H 0.54955 0.97217 0.3197 0.0
H153 H 0.5595 0.94446 0.43304 0.0
H154 H 0.55272 0.90329 0.20695 0.0
H155 H 0.56282 0.8759 0.31976 0.0
H156 H 0.56831 0.7467 0.23043 0.0
H157 H 0.50016 0.71892 0.36165 0.0
H158 H 0.51113 0.76219 0.41493 0.0
H159 H 0.579 0.7902 0.28207 0.0
C160 C 0.23324 0.53567 0.52196 0.0
C161 C 0.20945 0.54005 0.53913 0.0
C162 C 0.19111 0.52103 0.43281 0.0
C163 C 0.1886 0.53315 0.49429 0.0
C164 C 0.21474 0.51593 0.41707 0.0
C165 C 0.23562 0.52333 0.46099 0.0
U166 U 0.27403 0.58499 0.64083 0.0
O167 O 0.29802 0.57513 0.73327 0.0
O168 O 0.31514 0.60344 0.63606 0.0
C169 C 0.31895 0.5904 0.70067 0.0
C170 C 0.25609 0.54471 0.56452 0.0
C171 C 0.3416 0.57836 0.71066 0.0
C172 C 0.37397 0.55791 0.6665 0.0
C173 C 0.35106 0.56673 0.65657 0.0
C174 C 0.37768 0.57144 0.78527 0.0
C175 C 0.38778 0.56072 0.73047 0.0
C176 C 0.35486 0.58019 0.77536 0.0
C177 C 0.21887 0.62202 0.64958 0.0
C178 C 0.18161 0.63136 0.70131 0.0
C179 C 0.17707 0.60387 0.60391 0.0
C180 C 0.20348 0.60771 0.60005 0.0
C181 C 0.16587 0.61468 0.6567 0.0
C182 C 0.2079 0.63492 0.69783 0.0
C183 C 0.24516 0.61934 0.66181 0.0
O184 O 0.27106 0.56893 0.53756 0.0
O185 O 0.25307 0.54156 0.63482 0.0
O186 O 0.26029 0.62387 0.60536 0.0
O187 O 0.2472 0.59709 0.70815 0.0
H188 H 0.20705 0.54902 0.5867 0.0
H189 H 0.17055 0.53724 0.50757 0.0
H190 H 0.21723 0.50691 0.36956 0.0
H191 H 0.25379 0.51978 0.44673 0.0
H192 H 0.38107 0.54923 0.62384 0.0
H193 H 0.34103 0.56496 0.60636 0.0
H194 H 0.38789 0.574 0.83491 0.0
H195 H 0.34788 0.58915 0.81772 0.0
H196 H 0.17358 0.63953 0.74333 0.0
H197 H 0.16534 0.59097 0.5688 0.0
H198 H 0.21176 0.59806 0.56165 0.0
H199 H 0.21952 0.64595 0.73669 0.0
C200 C 0.10414 0.29185 0.33926 0.0
C201 C 0.08623 0.26735 0.36756 0.0
C202 C 0.09999 0.24186 0.28058 0.0
C203 C 0.08415 0.24251 0.33832 0.0
C204 C 0.11834 0.26628 0.25407 0.0
C205 C 0.12039 0.29102 0.28318 0.0
U206 U 0.08725 0.33854 0.46844 0.0
O207 O 0.11054 0.3779 0.49718 0.0
O208 O 0.07529 0.37849 0.43731 0.0
C209 C 0.09386 0.39264 0.47232 0.0
C210 C 0.10491 0.31904 0.36287 0.0
C211 C 0.08581 0.40904 0.52249 0.0
C212 C 0.07549 0.45246 0.54358 0.0
C213 C 0.08533 0.4373 0.49884 0.0
C214 C 0.06739 0.41153 0.63735 0.0
C215 C 0.06616 0.43962 0.61289 0.0
C216 C 0.07704 0.39628 0.59227 0.0
C217 C 0.05446 0.27185 0.59703 0.0
C218 C 0.06587 0.22646 0.62299 0.0
C219 C 0.02535 0.23161 0.66449 0.0
C220 C 0.03112 0.25996 0.63271 0.0
C221 C 0.04303 0.21493 0.66167 0.0
C222 C 0.07151 0.2547 0.59051 0.0
C223 C 0.06164 0.30253 0.57354 0.0
O224 O 0.08316 0.32677 0.36043 0.0
O225 O 0.11791 0.32398 0.42125 0.0
O226 O 0.05078 0.31261 0.51505 0.0
O227 O 0.08596 0.31414 0.57679 0.0
H228 H 0.07342 0.26767 0.41067 0.0
H229 H 0.06956 0.22417 0.35914 0.0
H230 H 0.1309 0.26634 0.20999 0.0
H231 H 0.13426 0.30977 0.26058 0.0
H232 H 0.07477 0.47411 0.52362 0.0
H233 H 0.09197 0.44744 0.44511 0.0
H234 H 0.06001 0.40109 0.69014 0.0
H235 H 0.07707 0.37436 0.61113 0.0
H236 H 0.07962 0.21379 0.61954 0.0
H237 H 0.00762 0.22306 0.69402 0.0
H238 H 0.01774 0.27288 0.63827 0.0
H239 H 0.08955 0.26335 0.56265 0.0
C240 C 0.34131 0.09123 0.44409 0.0
C241 C 0.35589 0.11826 0.41831 0.0
C242 C 0.38884 0.09809 0.37567 0.0
C243 C 0.37942 0.12168 0.3846 0.0
C244 C 0.37478 0.07107 0.40463 0.0
C245 C 0.3513 0.06766 0.43872 0.0
U246 U 0.28253 0.06427 0.57339 0.0
O247 O 0.25314 0.08718 0.58856 0.0
O248 O 0.24301 0.04796 0.54237 0.0
C249 C 0.23485 0.06811 0.56598 0.0
C250 C 0.3147 0.08818 0.46697 0.0
C251 C 0.21076 0.05968 0.60781 0.0
C252 C 0.16498 0.04199 0.60767 0.0
C253 C 0.18874 0.04666 0.57456 0.0
C254 C 0.18482 0.0623 0.70968 0.0
C255 C 0.16268 0.0503 0.67485 0.0
C256 C 0.20868 0.06696 0.67646 0.0
C257 C 0.32485 0.03184 0.7116 0.0
C258 C 0.36955 0.04989 0.73354 0.0
C259 C 0.35028 1.00057 0.77322 0.0
C260 C 0.32702 1.00492 0.7451 0.0
C261 C 0.37152 0.0232 0.76894 0.0
C262 C 0.34648 0.05417 0.70465 0.0
C263 C 0.29982 0.03667 0.68745 0.0
O264 O 0.29956 0.06308 0.46959 0.0
O265 O 0.31083 0.10115 0.52016 0.0
O266 O 0.28991 0.02454 0.6327 0.0
O267 O 0.2971 0.0627 0.68337 0.0
H268 H 0.34857 0.13675 0.42144 0.0
H269 H 0.38987 0.14276 0.36327 0.0
H270 H 0.38123 0.05242 0.39753 0.0
H271 H 0.34049 0.04652 0.45782 0.0
H272 H 0.14827 0.03255 0.57976 0.0
H273 H 0.1898 0.04099 0.52154 0.0
H274 H 0.18361 0.06927 0.761 0.0
H275 H 0.22532 0.07716 0.70333 0.0
H276 H 0.38584 0.06755 0.7292 0.0
H277 H 0.3515 0.97982 0.80028 0.0
H278 H 0.31059 0.98742 0.75079 0.0
H279 H 0.34547 0.07508 0.67834 0.0
C280 C 0.48622 0.30805 0.12394 0.0
C281 C 0.46745 0.31613 0.07798 0.0
C282 C 0.49169 0.36477 0.05882 0.0
C283 C 0.47013 0.34426 0.04574 0.0
C284 C 0.51037 0.35668 0.10544 0.0
C285 C 0.50759 0.32859 0.13809 0.0
U286 U 0.49778 0.24967 0.27258 0.0
O287 O 0.50852 0.20999 0.26267 0.0
O288 O 0.47239 0.20887 0.31485 0.0
C289 C 0.48938 0.1947 0.30357 0.0
C290 C 0.48353 0.27809 0.15469 0.0
C291 C 0.49642 0.17715 0.36847 0.0
C292 C 0.52372 0.1721 0.4722 0.0
C293 C 0.51785 0.18774 0.40798 0.0
C294 C 0.48668 0.13508 0.45912 0.0
C295 C 0.50809 0.14574 0.49884 0.0
C296 C 0.48089 0.15071 0.39442 0.0
C297 C 0.53032 0.3062 0.38726 0.0
C298 C 0.5524 0.33599 0.47018 0.0
C299 C 0.52537 0.35432 0.37896 0.0
C300 C 0.51992 0.32849 0.35331 0.0
C301 C 0.54114 0.35795 0.43887 0.0
C302 C 0.54705 0.31034 0.44447 0.0
C303 C 0.52189 0.27757 0.37058 0.0
O304 O 0.50462 0.2689 0.15917 0.0
O305 O 0.46889 0.26887 0.21232 0.0
O306 O 0.53363 0.27112 0.31744 0.0
O307 O 0.4972 0.2677 0.37143 0.0
H308 H 0.45086 0.30058 0.06628 0.0
H309 H 0.45561 0.34986 1.00937 0.0
H310 H 0.52709 0.37213 0.11669 0.0
H311 H 0.52226 0.32286 0.17372 0.0
H312 H 0.54023 0.18087 0.50184 0.0
H313 H 0.52988 0.20834 0.38973 0.0
H314 H 0.47449 0.11466 0.47802 0.0
H315 H 0.46412 0.14239 0.36519 0.0
H316 H 0.56471 0.33837 0.51618 0.0
H317 H 0.51629 0.37089 0.35441 0.0
H318 H 0.50679 0.3255 0.30929 0.0
H319 H 0.55513 0.29329 0.47138 0.0
Nd320 Nd 0.00963 0.0348 0.81288 0.0
Nd321 Nd 0.04262 0.05037 0.93221 0.0
C322 C 0.97543 1.0108 0.72519 0.0
C323 C 0.9724 0.98691 0.68425 0.0
C324 C 0.95606 0.96085 0.71013 0.0
C325 C 0.95335 0.93815 0.67224 0.0
C326 C 0.96676 0.94107 0.60731 0.0
C327 C 0.98302 0.96711 0.58127 0.0
C328 C 0.98574 0.98982 0.61909 0.0
C329 C 0.06058 0.04403 0.77917 0.0
C330 C 0.02475 0.98514 0.93181 0.0
C331 C 0.07738 0.0737 1.0196 0.0
C332 C 0.08112 0.09835 0.05675 0.0
C333 C 0.1 0.10233 0.10884 0.0
C334 C 0.10303 0.12516 0.1464 0.0
C335 C 0.08711 0.14429 0.13261 0.0
C336 C 0.06838 0.14037 0.07964 0.0
C337 C 0.06536 0.11752 0.0422 0.0
C338 C 0.99171 0.04053 0.96629 0.0
C339 C 0.02717 0.10008 0.81385 0.0
O340 O 0.97355 1.0046 0.79539 0.0
O341 O 0.99348 0.03299 0.70394 0.0
O342 O 0.04376 0.05196 0.73583 0.0
O343 O 0.05034 0.03062 0.83771 0.0
O344 O 1.00698 0.99275 0.88921 0.0
O345 O 0.04465 1.0042 0.94669 0.0
O346 O 0.07961 0.07892 0.94941 0.0
O347 O 0.05795 0.05327 0.0418 0.0
O348 O 0.00865 0.0326 1.00921 0.0
O349 O 1.0018 0.05431 0.9078 0.0
O350 O 0.04491 0.09255 0.85671 0.0
O351 O 0.00742 0.08094 0.79841 0.0
H352 H 0.94549 0.95794 0.76004 0.0
H353 H 0.94103 0.91817 0.69434 0.0
H354 H 0.99351 0.96998 0.53126 0.0
H355 H 0.99838 1.00961 0.59721 0.0
H356 H 0.11234 0.08772 0.12064 0.0
H357 H 0.11797 0.12799 0.18573 0.0
H358 H 0.05585 0.15476 0.06789 0.0
H359 H 0.05058 0.11467 1.00232 0.0
Nd360 Nd 0.53003 0.02216 0.82935 0.0
Nd361 Nd 0.52452 0.0616 0.92673 0.0
C362 C 0.53271 0.98309 0.74949 0.0
C363 C 0.54999 0.98219 0.69083 0.0
C364 C 0.5666 1.00701 0.65822 0.0
C365 C 0.58272 1.00645 0.60178 0.0
C366 C 0.58269 0.98102 0.57711 0.0
C367 C 0.56627 0.95608 0.61035 0.0
C368 C 0.54992 0.95671 0.66657 0.0
C369 C 0.53374 0.07644 0.75766 0.0
C370 C 0.58144 0.05837 0.88361 0.0
C371 C 0.52193 0.10062 1.00669 0.0
C372 C 0.50472 0.10167 0.06534 0.0
C373 C 0.49046 0.07663 0.1047 0.0
C374 C 0.47386 0.07752 0.15961 0.0
C375 C 0.47109 0.10347 0.17617 0.0
C376 C 0.48533 0.12855 0.13659 0.0
C377 C 0.50209 0.12764 0.08174 0.0
C378 C 0.52054 1.00734 0.99846 0.0
C379 C 0.47306 0.02592 0.87151 0.0
O380 O 0.54258 0.98353 0.81352 0.0
O381 O 0.51815 1.00099 0.73461 0.0
O382 O 0.54903 0.06062 0.74776 0.0
O383 O 0.51802 0.06391 0.80707 0.0
O384 O 0.57102 0.0341 0.86335 0.0
O385 O 0.56735 0.07537 0.89894 0.0
O386 O 0.51204 0.10026 0.94268 0.0
O387 O 0.53651 0.08272 1.02143 0.0
O388 O 0.50531 0.02329 1.00792 0.0
O389 O 0.53641 0.01976 0.94916 0.0
O390 O 0.48371 0.05013 0.89166 0.0
O391 O 0.48699 1.0087 0.85642 0.0
H392 H 0.56715 0.02686 0.6765 0.0
H393 H 0.59557 0.02585 0.57824 0.0
H394 H 0.56601 0.93619 0.59252 0.0
H395 H 0.53727 0.93733 0.69113 0.0
H396 H 0.492 0.05634 0.0926 0.0
H397 H 0.46269 0.05787 0.18797 0.0
H398 H 0.48345 0.14883 0.14807 0.0
H399 H 0.51285 0.14719 0.05183 0.0
Nd400 Nd 0.51151 0.54634 0.93289 0.0
Nd401 Nd 0.53889 0.53677 0.80727 0.0
C402 C 0.48482 0.56366 0.02532 0.0
C403 C 0.49055 0.58818 0.06274 0.0
C404 C 0.51294 0.60888 0.04562 0.0
C405 C 0.51909 0.63183 0.08253 0.0
C406 C 0.50292 0.63451 0.13709 0.0
C407 C 0.48059 0.61359 0.15462 0.0
C408 C 0.47442 0.59056 0.11748 0.0
C409 C 0.56084 0.54201 0.96139 0.0
C410 C 0.5417 0.60088 0.81926 0.0
C411 C 0.56674 0.52091 0.71467 0.0
C412 C 0.56254 0.49828 0.67094 0.0
C413 C 0.58186 0.49612 0.62534 0.0
C414 C 0.57782 0.47455 0.58341 0.0
C415 C 0.55438 0.45495 0.58658 0.0
C416 C 0.53502 0.45737 0.6321 0.0
C417 C 0.53906 0.47891 0.67389 0.0
C418 C 0.48967 0.54129 0.7778 0.0
C419 C 0.5088 0.48232 0.92188 0.0
O420 O 0.48239 0.56915 0.95546 0.0
O421 O 0.49862 0.54522 0.04438 0.0
O422 O 0.54214 0.53159 1.00644 0.0
O423 O 0.55357 0.55542 0.90518 0.0
O424 O 0.52209 0.59059 0.86367 0.0
O425 O 0.55514 0.58407 0.79976 0.0
O426 O 0.5673 0.51306 0.78436 0.0
O427 O 0.55343 0.5399 0.69663 0.0
O428 O 0.5085 0.55124 0.73301 0.0
O429 O 0.49668 0.5278 0.8344 0.0
O430 O 0.52843 0.49261 0.87742 0.0
O431 O 0.49523 0.49906 0.94116 0.0
H432 H 0.52579 0.60712 1.00413 0.0
H433 H 0.53667 0.64734 0.06901 0.0
H434 H 0.46786 0.6152 0.19655 0.0
H435 H 0.45718 0.57459 0.13165 0.0
H436 H 0.60009 0.51096 0.62261 0.0
H437 H 0.5932 0.4728 0.54985 0.0
H438 H 0.51679 0.44252 0.63546 0.0
H439 H 0.52392 0.48043 0.70872 0.0
Nd440 Nd 0.00791 0.55381 0.81647 0.0
Nd441 Nd 0.04161 0.52387 0.93123 0.0
C442 C 0.97747 0.5839 0.74737 0.0
C443 C 0.95737 0.57842 0.69361 0.0
C444 C 0.93884 0.59444 0.68384 0.0
C445 C 0.91984 0.58934 0.63246 0.0
C446 C 0.91904 0.56806 0.5901 0.0
C447 C 0.93767 0.5521 0.60009 0.0
C448 C 0.95657 0.55716 0.65147 0.0
C449 C 0.01844 0.50736 0.76744 0.0
C450 C 0.98153 0.50015 0.94076 0.0
C451 C 0.07833 0.50493 1.00438 0.0
C452 C 0.08941 0.50174 0.07674 0.0
C453 C 0.11 0.48878 0.08784 0.0
C454 C 0.12351 0.48921 0.15216 0.0
C455 C 0.1166 0.50252 0.20703 0.0
C456 C 0.09541 0.51477 0.19655 0.0
C457 C 0.08191 0.51439 0.1319 0.0
C458 C 0.02075 0.56416 0.97595 0.0
C459 C 0.06733 0.56807 0.78951 0.0
O460 O 0.97248 0.56968 0.81245 0.0
O461 O 1.00059 0.58525 0.72544 0.0
O462 O 1.00499 0.52355 0.73231 0.0
O463 O 0.02458 0.5159 0.82609 0.0
O464 O 0.97961 0.52371 0.89826 0.0
O465 O 1.00338 0.49277 0.95535 0.0
O466 O 0.0807 0.53092 0.97186 0.0
O467 O 0.05624 0.48852 0.99376 0.0
O468 O 0.02397 0.54171 1.01745 0.0
O469 O 0.0302 0.56615 0.91417 0.0
O470 O 0.06688 0.54381 0.83156 0.0
O471 O 0.04778 0.58005 0.78572 0.0
H472 H 0.93915 0.61098 0.71569 0.0
H473 H 0.90597 0.60227 0.62521 0.0
H474 H 0.93747 0.53548 0.56858 0.0
H475 H 0.9706 0.54447 0.65806 0.0
H476 H 0.11634 0.47934 0.04543 0.0
H477 H 0.14011 0.48025 0.15744 0.0
H478 H 0.08963 0.52521 0.2377 0.0
H479 H 0.06621 0.52479 0.12398 0.0
C480 C 0.11909 0.05929 0.65977 0.0
C481 C 0.13703 0.04864 0.70461 0.0
C482 C 0.09465 0.05794 0.685 0.0
C483 C 0.08699 0.04574 0.75609 0.0
H484 H 0.12405 0.06896 0.60458 0.0
H485 H 0.0816 0.06642 0.64804 0.0
S486 S 0.12675 1.01493 0.89574 0.0
N487 N 0.14553 0.02561 0.82392 0.0
N488 N 0.09945 0.02312 0.87159 0.0
C489 C 0.10476 0.03525 0.80198 0.0
C490 C 0.12981 0.03672 0.77622 0.0
C491 C 0.53911 0.12473 0.57784 0.0
C492 C 0.51448 0.12944 0.56756 0.0
C493 C 0.54546 0.10859 0.64104 0.0
C494 C 0.52752 0.09681 0.69683 0.0
H495 H 0.55342 0.13293 0.53577 0.0
H496 H 0.56442 0.10473 0.64546 0.0
S497 S 0.46085 0.10472 0.69868 0.0
N498 N 0.47242 0.12234 0.61992 0.0
N499 N 0.48431 0.0922 0.73899 0.0
C500 C 0.50306 0.10227 0.68841 0.0
C501 C 0.49653 0.11845 0.62362 0.0
C502 C 0.41948 0.53818 0.80355 0.0
C503 C 0.41331 0.5541 0.73927 0.0
C504 C 0.44408 0.53362 0.81521 0.0
C505 C 0.46346 0.54496 0.76317 0.0
H506 H 0.40521 0.52935 0.84544 0.0
H507 H 0.44801 0.52151 0.86579 0.0
S508 S 0.45732 0.58874 0.58648 0.0
N509 N 0.42876 0.58156 0.62354 0.0
N510 N 0.47478 0.57285 0.6449 0.0
C511 C 0.45747 0.56067 0.6984 0.0
C512 C 0.43246 0.56525 0.68654 0.0
C513 C 0.03347 0.46678 0.62641 0.0
C514 C 0.05339 0.45501 0.6567 0.0
C515 C 0.02162 0.48256 0.66446 0.0
C516 C 0.02934 0.4874 0.7342 0.0
H517 H 0.0271 0.46396 0.57243 0.0
H518 H 1.00668 0.49164 0.63806 0.0
S519 S 0.08029 0.46059 0.83843 0.0
N520 N 0.07999 0.44854 0.76122 0.0
N521 N 0.05774 0.47848 0.83296 0.0
C522 C 0.0488 0.47513 0.76607 0.0
C523 C 0.06083 0.45886 0.72726 0.0
C524 C 0.93313 0.0227 0.08622 0.0
C525 C 0.91514 0.03401 0.04316 0.0
C526 C 0.95759 0.02468 0.06014 0.0
C527 C 0.96523 0.03816 0.98991 0.0
H528 H 0.92824 1.01208 0.14072 0.0
H529 H 0.97068 1.01567 0.09583 0.0
S530 S 0.92529 0.07101 0.85471 0.0
N531 N 0.90654 0.05898 0.92628 0.0
N532 N 0.95265 0.06261 0.87698 0.0
C533 C 0.94737 0.04925 0.94566 0.0
C534 C 0.9223 0.04716 0.97229 0.0
C535 C 0.52062 0.96643 0.18713 0.0
C536 C 0.54255 0.95565 0.18709 0.0
C537 C 0.51284 0.98174 0.12463 0.0
C538 C 0.52684 0.98715 0.05971 0.0
H539 H 0.50941 0.9631 0.23604 0.0
H540 H 0.49613 0.99014 0.12799 0.0
S541 S 0.58546 0.9629 0.03087 0.0
N542 N 0.57788 0.9508 0.11644 0.0
N543 N 0.56334 0.97962 0.99886 0.0
C544 C 0.54845 0.97579 0.05845 0.0
C545 C 0.5563 0.96008 0.12214 0.0
C546 C 0.6168 0.51681 0.0525 0.0
C547 C 0.63616 0.5262 0.9998 0.0
C548 C 0.59265 0.52246 0.03986 0.0
C549 C 0.58698 0.53788 0.97427 0.0
H550 H 0.62008 0.50423 0.10305 0.0
H551 H 0.5782 0.51424 0.08151 0.0
S552 S 0.63166 0.56909 0.82087 0.0
N553 N 0.64851 0.55308 0.88109 0.0
N554 N 0.60315 0.56365 0.85736 0.0
C555 C 0.60639 0.54813 0.92196 0.0
C556 C 0.63095 0.54229 0.9347 0.0
C557 C 0.01294 0.63203 0.03203 0.0
C558 C 0.99199 0.6224 0.07992 0.0
C559 C 0.02124 0.61353 0.99325 0.0
C560 C 0.00892 0.58489 1.00186 0.0
H561 H 0.02383 0.65357 0.02754 0.0
H562 H 0.0383 0.62123 0.96028 0.0
S563 S 0.95051 0.55041 0.1092 0.0
N564 N 0.95693 0.58332 0.1245 0.0
N565 N 0.97309 0.54855 0.05387 0.0
C566 C 0.98699 0.57554 0.0453 0.0
C567 C 0.97836 0.59431 0.08379 0.0
C568 C 0.01734 0.16533 0.68884 0.0
C569 C 0.03848 0.18612 0.70305 0.0
C570 C 0.01343 0.13768 0.72619 0.0
C571 C 0.03043 0.12995 0.77952 0.0
H572 H 1.00407 0.17036 0.64746 0.0
H573 H 0.99724 0.12217 0.71207 0.0
S574 S 0.08714 0.17803 0.84204 0.0
N575 N 0.07548 0.19805 0.77712 0.0
N576 N 0.0682 0.14638 0.84814 0.0
C577 C 0.05111 0.15105 0.79603 0.0
C578 C 0.05514 0.17904 0.75754 0.0
C579 C 0.41067 1.00379 0.77735 0.0
C580 C 0.39559 0.01976 0.80402 0.0
C581 C 0.43532 1.00408 0.80327 0.0
C582 C 0.44551 0.02034 0.85668 0.0
H583 H 0.40389 0.99223 0.73368 0.0
H584 H 0.44693 0.99291 0.77826 0.0
S585 S 0.41167 0.06199 0.95168 0.0
N586 N 0.3912 0.04951 0.89175 0.0
N587 N 0.43719 0.04984 0.94144 0.0
C588 C 0.42973 0.03464 0.88727 0.0
C589 C 0.40485 0.03445 0.86059 0.0
C590 C 0.53845 0.38007 0.54754 0.0
C591 C 0.5441 0.38334 0.47365 0.0
C592 C 0.54151 0.4034 0.5831 0.0
C593 C 0.55053 0.4309 0.54624 0.0
H594 H 0.53155 0.35924 0.57817 0.0
H595 H 0.5372 0.39984 0.64027 0.0
S596 S 0.56743 0.45086 0.35194 0.0
N597 N 0.55867 0.41609 0.36432 0.0
N598 N 0.56444 0.46021 0.4313 0.0
C599 C 0.55602 0.43454 0.47211 0.0
C600 C 0.55271 0.41069 0.43571 0.0
C601 C 0.12891 0.57474 0.69088 0.0
C602 C 0.13858 0.60403 0.67581 0.0
C603 C 0.10531 0.56346 0.72489 0.0
C604 C 0.0903 0.581 0.74459 0.0
H605 H 0.14035 0.56034 0.68055 0.0
H606 H 0.09916 0.54073 0.73798 0.0
S607 S 0.10553 0.65913 0.70852 0.0
N608 N 0.13037 0.65042 0.67676 0.0
N609 N 0.08567 0.62912 0.74036 0.0
C610 C 0.09887 0.61032 0.72525 0.0
C611 C 0.12313 0.62186 0.69112 0.0
C612 C 0.03645 0.91941 0.05059 0.0
C613 C 0.01464 0.89885 0.03991 0.0
C614 C 0.0398 0.94717 1.01446 0.0
C615 C 0.02157 0.95525 0.96578 0.0
H616 H 0.05077 0.91409 0.08813 0.0
H617 H 0.05668 0.96244 0.02554 0.0
S618 S 0.96226 0.90804 0.91429 0.0
N619 N 0.97538 0.8876 0.9745 0.0
N620 N 0.98157 0.93954 0.90583 0.0
C621 C 1.00003 0.93446 0.95307 0.0
C622 C 0.99658 0.90633 0.99037 0.0
C623 C 0.64344 0.08 0.97919 0.0
C624 C 0.65978 0.06719 0.94586 0.0
C625 C 0.6185 0.07891 0.95523 0.0
C626 C 0.60897 0.06454 0.89795 0.0
H627 H 0.64978 0.09029 0.02528 0.0
H628 H 0.60623 0.088 0.9844 0.0
S629 S 0.64461 0.02905 0.78985 0.0
N630 N 0.66509 0.041 0.85035 0.0
N631 N 0.61829 0.03886 0.80553 0.0
C632 C 0.62548 0.05271 0.86227 0.0
C633 C 0.65087 0.05406 0.88618 0.0
C634 C 0.51727 0.67808 0.28874 0.0
C635 C 0.52481 0.70573 0.25131 0.0
C636 C 0.50979 0.6551 0.25152 0.0
C637 C 0.50957 0.65906 0.17572 0.0
H638 H 0.5176 0.67416 0.34706 0.0
H639 H 0.50466 0.63405 0.28218 0.0
S640 S 0.52468 0.72754 0.05313 0.0
N641 N 0.52958 0.73597 0.13463 0.0
N642 N 0.51556 0.69283 0.06489 0.0
C643 C 0.51631 0.68667 0.13789 0.0
C644 C 0.52392 0.70999 0.17563 0.0
C645 C 0.93111 0.47171 0.08488 0.0
C646 C 0.90909 0.46549 0.04364 0.0
C647 C 0.95529 0.4801 0.05186 0.0
C648 C 0.95796 0.48319 0.97662 0.0
H649 H 0.92953 0.47133 0.14236 0.0
H650 H 0.97172 0.48636 0.08461 0.0
S651 S 0.90649 0.46824 0.84537 0.0
N652 N 0.89176 0.46141 0.92429 0.0
N653 N 0.93702 0.47798 0.86254 0.0
C654 C 0.93625 0.47573 0.9355 0.0
C655 C 0.91182 0.46669 0.96897 0.0
C656 C 0.09484 0.21931 0.16931 0.0
C657 C 0.0966 0.21646 0.24485 0.0
C658 C 0.09165 0.19588 0.13371 0.0
C659 C 0.09027 0.16866 0.17214 0.0
H660 H 0.09572 0.23983 0.13737 0.0
H661 H 0.09054 0.19917 0.07547 0.0
S662 S 0.09364 0.14972 0.37067 0.0
N663 N 0.09676 0.18425 0.35697 0.0
N664 N 0.0904 0.1401 0.29013 0.0
C665 C 0.09192 0.16546 0.24773 0.0
C666 C 0.09509 0.18935 0.28405 0.0
C667 C 0.41391 0.11879 0.26177 0.0
C668 C 0.41172 0.10147 0.32963 0.0
C669 C 0.43373 0.12016 0.21369 0.0
C670 C 0.45212 0.10418 0.23138 0.0
H671 H 0.39959 0.13053 0.24433 0.0
H672 H 0.43405 0.13293 0.16107 0.0
S673 S 0.45726 0.05884 0.40602 0.0
N674 N 0.43129 0.07039 0.41488 0.0
N675 N 0.46845 0.07279 0.32416 0.0
C676 C 0.45089 0.08782 0.30025 0.0
C677 C 0.43073 0.08649 0.34938 0.0
C678 C 0.51757 0.40788 0.98365 0.0
C679 C 0.49509 0.39446 0.02255 0.0
C680 C 0.52144 0.43598 0.94957 0.0
C681 C 0.50311 0.45194 0.95379 0.0
H682 H 0.5323 0.39653 0.97937 0.0
H683 H 0.53923 0.44539 0.92099 0.0
S684 S 0.44082 0.4263 0.04917 0.0
N685 N 0.45413 0.39895 0.06306 0.0
N686 N 0.46132 0.45179 0.9995 0.0
C687 C 0.48039 0.4386 0.99211 0.0
C688 C 0.4764 0.40988 0.02627 0.0
C689 C 0.15888 0.53689 0.34803 0.0
C690 C 0.16964 0.51495 0.38263 0.0
C691 C 0.14091 0.5324 0.29342 0.0
C692 C 0.13292 0.50574 0.27171 0.0
H693 H 0.16524 0.55797 0.36101 0.0
H694 H 0.1341 0.55026 0.26585 0.0
S695 S 0.15244 0.44038 0.35409 0.0
N696 N 0.16921 0.46507 0.39687 0.0
N697 N 0.13503 0.45638 0.29562 0.0
C698 C 0.14246 0.48327 0.30914 0.0
C699 C 0.16091 0.48793 0.36419 0.0
C700 C 0.98435 0.8859 0.51027 0.0
C701 C 0.96061 0.869 0.49635 0.0
C702 C 0.98616 0.90937 0.5452 0.0
C703 C 0.96429 0.91683 0.5676 0.0
H704 H 1.00169 0.88046 0.49596 0.0
H705 H 1.00484 0.92135 0.55641 0.0
S706 S 0.89764 0.88146 0.53642 0.0
N707 N 0.91477 0.86272 0.50245 0.0
N708 N 0.91818 0.90679 0.56811 0.0
C709 C 0.94045 0.90066 0.55191 0.0
C710 C 0.93861 0.87679 0.51629 0.0
C711 C 0.6373 0.96441 0.48196 0.0
C712 C 0.64028 0.98393 0.41754 0.0
C713 C 0.61789 0.9627 0.53182 0.0
C714 C 0.60082 0.98054 0.51941 0.0
H715 H 0.65076 0.9512 0.4956 0.0
H716 H 0.61697 0.94818 0.58193 0.0
S717 S 0.59765 0.03186 0.35424 0.0
N718 N 0.62244 1.01895 0.34033 0.0
N719 N 0.58622 1.01598 0.43462 0.0
C720 C 0.60266 0.99901 0.4536 0.0
C721 C 0.62231 1.00065 0.40258 0.0
C722 C 0.53947 0.67841 0.78717 0.0
C723 C 0.55666 0.69003 0.72948 0.0
C724 C 0.53516 0.64974 0.81656 0.0
C725 C 0.54799 0.63152 0.78985 0.0
H726 H 0.52883 0.69145 0.8088 0.0
H727 H 0.52141 0.64182 0.86017 0.0
S728 S 0.59634 0.65215 0.64228 0.0
N729 N 0.58757 0.6816 0.64901 0.0
N730 N 0.57953 0.62772 0.7038 0.0
C731 C 0.56576 0.6431 0.73326 0.0
C732 C 0.57002 0.6723 0.70312 0.0
C733 C 0.88716 0.55468 0.41216 0.0
C734 C 0.8612 0.55099 0.42804 0.0
C735 C 0.9057 0.56033 0.46467 0.0
C736 C 0.89902 0.56251 0.53513 0.0
H737 H 0.89322 0.55349 0.35847 0.0
H738 H 0.92547 0.56327 0.4498 0.0
S739 S 0.83358 0.55223 0.60595 0.0
N740 N 0.82971 0.54837 0.52048 0.0
N741 N 0.86453 0.55903 0.61893 0.0
C742 C 0.87313 0.55854 0.55194 0.0
C743 C 0.85425 0.55276 0.49853 0.0
loop_
_geom_bond_atom_site_label_1
_geom_bond_atom_site_label_2
_geom_bond_distance
_geom_bond_site_symmetry_2
_ccdc_geom_bond_type
C0 C1 1.264 . S
C0 C5 1.479 . S
C0 C10 1.465 . S
C1 C0 1.264 . S
C1 C3 1.339 . S
C1 H28 0.931 . S
C2 C3 1.395 . S
C2 C4 1.320 . S
C3 C1 1.339 . S
C3 C2 1.395 . S
C3 H29 0.929 . S
C4 C2 1.320 . S
C4 C5 1.405 . S
C4 H30 0.930 . S
C5 C0 1.479 . S
C5 C4 1.405 . S
C5 H31 0.931 . S
U6 O7 2.454 . S
U6 O8 2.458 1_554 S
U6 C9 2.984 . S
U6 C10 2.847 . S
U6 C23 2.882 1_554 S
U6 O24 2.441 . S
U6 O25 2.420 . S
U6 O26 2.455 1_554 S
U6 O27 2.449 . S
O7 U6 2.454 . S
O7 C9 1.353 . S
O8 U6 2.458 1_556 S
O8 C9 1.286 1_556 S
C9 U6 2.984 . S
C9 O7 1.353 . S
C9 O8 1.286 1_554 S
C9 C11 1.363 . S
C10 C0 1.465 . S
C10 U6 2.847 . S
C10 O24 1.249 . S
C10 O25 1.202 . S
C11 C9 1.363 . S
C11 C13 1.408 . S
C11 C16 1.342 1_554 S
C12 C13 1.310 . S
C12 C15 1.461 1_554 S
C12 H32 0.932 . S
C13 C11 1.408 . S
C13 C12 1.310 . S
C13 H33 0.930 . S
C14 C15 1.474 . S
C14 C16 1.285 . S
C14 H34 0.929 . S
C15 C12 1.461 1_556 S
C15 C14 1.474 . S
C16 C11 1.342 1_556 S
C16 C14 1.285 . S
C16 H35 0.930 . S
C17 C20 1.424 . S
C17 C22 1.245 . S
C17 C23 1.428 . S
C18 C21 1.260 . S
C18 C22 1.477 . S
C18 H36 0.932 . S
C19 C20 1.384 . S
C19 C21 1.479 . S
C19 H37 0.929 . S
C20 C17 1.424 . S
C20 C19 1.384 . S
C20 H38 0.928 . S
C21 C18 1.260 . S
C21 C19 1.479 . S
C22 C17 1.245 . S
C22 C18 1.477 . S
C22 H39 0.932 . S
C23 U6 2.882 1_556 S
C23 C17 1.428 . S
C23 O26 1.301 . S
C23 O27 1.282 1_556 S
O24 U6 2.441 . S
O24 C10 1.249 . S
O25 U6 2.420 . S
O25 C10 1.202 . S
O26 U6 2.455 1_556 S
O26 C23 1.301 . S
O27 U6 2.449 . S
O27 C23 1.282 1_554 S
H28 C1 0.931 . S
H29 C3 0.929 . S
H30 C4 0.930 . S
H31 C5 0.931 . S
H32 C12 0.932 . S
H33 C13 0.930 . S
H34 C14 0.929 . S
H35 C16 0.930 . S
H36 C18 0.932 . S
H37 C19 0.929 . S
H38 C20 0.928 . S
H39 C22 0.932 . S
C40 C41 1.264 . S
C40 C45 1.479 . S
C40 C50 1.465 . S
C41 C40 1.264 . S
C41 C43 1.339 . S
C41 H68 0.931 . S
C42 C43 1.395 . S
C42 C44 1.320 . S
C43 C41 1.339 . S
C43 C42 1.395 . S
C43 H69 0.929 . S
C44 C42 1.320 . S
C44 C45 1.405 . S
C44 H70 0.930 . S
C45 C40 1.479 . S
C45 C44 1.405 . S
C45 H71 0.931 . S
U46 O47 2.454 . S
U46 O48 2.458 . S
U46 C49 2.984 . S
U46 C50 2.847 . S
U46 C63 2.882 1_554 S
U46 O64 2.441 . S
U46 O65 2.420 . S
U46 O66 2.455 1_554 S
U46 O67 2.449 . S
O47 U46 2.454 . S
O47 C49 1.353 . S
O48 U46 2.458 . S
O48 C49 1.286 . S
C49 U46 2.984 . S
C49 O47 1.353 . S
C49 O48 1.286 . S
C49 C51 1.363 . S
C50 C40 1.465 . S
C50 U46 2.847 . S
C50 O64 1.249 . S
C50 O65 1.202 . S
C51 C49 1.363 . S
C51 C53 1.408 . S
C51 C56 1.342 1_554 S
C52 C53 1.310 . S
C52 C55 1.461 . S
C52 H72 0.932 . S
C53 C51 1.408 . S
C53 C52 1.310 . S
C53 H73 0.930 . S
C54 C55 1.474 1_556 S
C54 C56 1.285 . S
C54 H74 0.929 . S
C55 C52 1.461 . S
C55 C54 1.474 1_554 S
C56 C51 1.342 1_556 S
C56 C54 1.285 . S
C56 H75 0.930 . S
C57 C60 1.424 . S
C57 C62 1.245 . S
C57 C63 1.428 . S
C58 C61 1.260 . S
C58 C62 1.477 . S
C58 H76 0.932 . S
C59 C60 1.384 . S
C59 C61 1.479 . S
C59 H77 0.929 . S
C60 C57 1.424 . S
C60 C59 1.384 . S
C60 H78 0.928 . S
C61 C58 1.260 . S
C61 C59 1.479 . S
C62 C57 1.245 . S
C62 C58 1.477 . S
C62 H79 0.932 . S
C63 U46 2.882 1_556 S
C63 C57 1.428 . S
C63 O66 1.301 . S
C63 O67 1.282 1_556 S
O64 U46 2.441 . S
O64 C50 1.249 . S
O65 U46 2.420 . S
O65 C50 1.202 . S
O66 U46 2.455 1_556 S
O66 C63 1.301 . S
O67 U46 2.449 . S
O67 C63 1.282 1_554 S
H68 C41 0.931 . S
H69 C43 0.929 . S
H70 C44 0.930 . S
H71 C45 0.931 . S
H72 C52 0.932 . S
H73 C53 0.930 . S
H74 C54 0.929 . S
H75 C56 0.930 . S
H76 C58 0.932 . S
H77 C59 0.929 . S
H78 C60 0.928 . S
H79 C62 0.932 . S
C80 C81 1.264 . S
C80 C85 1.479 . S
C80 C90 1.465 . S
C81 C80 1.264 . S
C81 C83 1.339 . S
C81 H108 0.931 . S
C82 C83 1.395 . S
C82 C84 1.320 . S
C83 C81 1.339 . S
C83 C82 1.395 . S
C83 H109 0.929 . S
C84 C82 1.320 . S
C84 C85 1.405 . S
C84 H110 0.930 1_545 S
C85 C80 1.479 . S
C85 C84 1.405 . S
C85 H111 0.931 . S
U86 O87 2.454 . S
U86 O88 2.458 1_554 S
U86 C89 2.984 1_554 S
U86 C90 2.847 . S
U86 C103 2.882 1_554 S
U86 O104 2.441 . S
U86 O105 2.420 . S
U86 O106 2.455 1_554 S
U86 O107 2.449 1_554 S
O87 U86 2.454 . S
O87 C89 1.353 1_554 S
O88 U86 2.458 1_556 S
O88 C89 1.286 . S
C89 U86 2.984 1_556 S
C89 O87 1.353 1_556 S
C89 O88 1.286 . S
C89 C91 1.363 . S
C90 C80 1.465 . S
C90 U86 2.847 . S
C90 O104 1.249 . S
C90 O105 1.202 . S
C91 C89 1.363 . S
C91 C93 1.408 1_556 S
C91 C96 1.344 . S
C92 C93 1.320 1_556 S
C92 C95 1.454 1_545 S
C92 H112 0.930 1_556 S
C93 C91 1.408 1_554 S
C93 C92 1.320 1_554 S
C93 H113 0.930 . S
C94 C95 1.474 . S
C94 C96 1.283 1_565 S
C94 H114 0.929 . S
C95 C92 1.454 1_565 S
C95 C94 1.474 . S
C96 C91 1.344 . S
C96 C94 1.283 1_545 S
C96 H115 0.931 1_545 S
C97 C100 1.424 . S
C97 C102 1.245 . S
C97 C103 1.428 . S
C98 C101 1.260 . S
C98 C102 1.477 . S
C98 H116 0.932 . S
C99 C100 1.384 . S
C99 C101 1.479 . S
C99 H117 0.929 . S
C100 C97 1.424 . S
C100 C99 1.384 . S
C100 H118 0.928 . S
C101 C98 1.260 . S
C101 C99 1.479 . S
C102 C97 1.245 . S
C102 C98 1.477 . S
C102 H119 0.932 . S
C103 U86 2.882 1_556 S
C103 C97 1.428 . S
C103 O106 1.301 . S
C103 O107 1.282 . S
O104 U86 2.441 . S
O104 C90 1.249 . S
O105 U86 2.420 . S
O105 C90 1.202 . S
O106 U86 2.455 1_556 S
O106 C103 1.301 . S
O107 U86 2.449 1_556 S
O107 C103 1.282 . S
H108 C81 0.931 . S
H109 C83 0.929 . S
H110 C84 0.930 1_565 S
H111 C85 0.931 . S
H112 C92 0.930 1_554 S
H113 C93 0.930 . S
H114 C94 0.929 . S
H115 C96 0.931 1_565 S
H116 C98 0.932 . S
H117 C99 0.929 . S
H118 C100 0.928 . S
H119 C102 0.932 . S
C120 C121 1.264 . S
C120 C125 1.479 . S
C120 C130 1.465 . S
C121 C120 1.264 . S
C121 C123 1.339 . S
C121 H148 0.931 . S
C122 C123 1.395 . S
C122 C124 1.320 . S
C123 C121 1.339 . S
C123 C122 1.395 . S
C123 H149 0.929 . S
C124 C122 1.320 . S
C124 C125 1.405 . S
C124 H150 0.930 . S
C125 C120 1.479 . S
C125 C124 1.405 . S
C125 H151 0.931 . S
U126 O127 2.454 . S
U126 O128 2.458 . S
U126 C129 2.984 . S
U126 C130 2.847 . S
U126 C143 2.882 . S
U126 O144 2.441 . S
U126 O145 2.420 . S
U126 O146 2.455 . S
U126 O147 2.449 . S
O127 U126 2.454 . S
O127 C129 1.353 . S
O128 U126 2.458 . S
O128 C129 1.286 . S
C129 U126 2.984 . S
C129 O127 1.353 . S
C129 O128 1.286 . S
C129 C131 1.363 . S
C130 C120 1.465 . S
C130 U126 2.847 . S
C130 O144 1.249 . S
C130 O145 1.202 . S
C131 C129 1.363 . S
C131 C133 1.408 . S
C131 C136 1.342 . S
C132 C133 1.310 . S
C132 C135 1.461 . S
C132 H152 0.932 . S
C133 C131 1.408 . S
C133 C132 1.310 . S
C133 H153 0.930 . S
C134 C135 1.474 . S
C134 C136 1.285 . S
C134 H154 0.929 . S
C135 C132 1.461 . S
C135 C134 1.474 . S
C136 C131 1.342 . S
C136 C134 1.285 . S
C136 H155 0.930 . S
C137 C140 1.424 . S
C137 C142 1.245 . S
C137 C143 1.428 . S
C138 C141 1.260 . S
C138 C142 1.477 . S
C138 H156 0.932 . S
C139 C140 1.384 . S
C139 C141 1.479 . S
C139 H157 0.929 . S
C140 C137 1.424 . S
C140 C139 1.384 . S
C140 H158 0.928 . S
C141 C138 1.260 . S
C141 C139 1.479 . S
C142 C137 1.245 . S
C142 C138 1.477 . S
C142 H159 0.932 . S
C143 U126 2.882 . S
C143 C137 1.428 . S
C143 O146 1.301 . S
C143 O147 1.282 . S
O144 U126 2.441 . S
O144 C130 1.249 . S
O145 U126 2.420 . S
O145 C130 1.202 . S
O146 U126 2.455 . S
O146 C143 1.301 . S
O147 U126 2.449 . S
O147 C143 1.282 . S
H148 C121 0.931 . S
H149 C123 0.929 . S
H150 C124 0.930 . S
H151 C125 0.931 . S
H152 C132 0.932 . S
H153 C133 0.930 . S
H154 C134 0.929 . S
H155 C136 0.930 . S
H156 C138 0.932 . S
H157 C139 0.929 . S
H158 C140 0.928 . S
H159 C142 0.932 . S
C160 C161 1.264 . S
C160 C165 1.479 . S
C160 C170 1.465 . S
C161 C160 1.264 . S
C161 C163 1.339 . S
C161 H188 0.931 . S
C162 C163 1.395 . S
C162 C164 1.320 . S
C163 C161 1.339 . S
C163 C162 1.395 . S
C163 H189 0.929 . S
C164 C162 1.320 . S
C164 C165 1.405 . S
C164 H190 0.930 . S
C165 C160 1.479 . S
C165 C164 1.405 . S
C165 H191 0.931 . S
U166 O167 2.454 . S
U166 O168 2.458 . S
U166 C169 2.984 . S
U166 C170 2.847 . S
U166 C183 2.882 . S
U166 O184 2.441 . S
U166 O185 2.420 . S
U166 O186 2.455 . S
U166 O187 2.449 . S
O167 U166 2.454 . S
O167 C169 1.353 . S
O168 U166 2.458 . S
O168 C169 1.286 . S
C169 U166 2.984 . S
C169 O167 1.353 . S
C169 O168 1.286 . S
C169 C171 1.363 . S
C170 C160 1.465 . S
C170 U166 2.847 . S
C170 O184 1.249 . S
C170 O185 1.202 . S
C171 C169 1.363 . S
C171 C173 1.408 . S
C171 C176 1.342 . S
C172 C173 1.310 . S
C172 C175 1.461 . S
C172 H192 0.932 . S
C173 C171 1.408 . S
C173 C172 1.310 . S
C173 H193 0.930 . S
C174 C175 1.474 . S
C174 C176 1.285 . S
C174 H194 0.929 . S
C175 C172 1.461 . S
C175 C174 1.474 . S
C176 C171 1.342 . S
C176 C174 1.285 . S
C176 H195 0.930 . S
C177 C180 1.424 . S
C177 C182 1.245 . S
C177 C183 1.428 . S
C178 C181 1.260 . S
C178 C182 1.477 . S
C178 H196 0.932 . S
C179 C180 1.384 . S
C179 C181 1.479 . S
C179 H197 0.929 . S
C180 C177 1.424 . S
C180 C179 1.384 . S
C180 H198 0.928 . S
C181 C178 1.260 . S
C181 C179 1.479 . S
C182 C177 1.245 . S
C182 C178 1.477 . S
C182 H199 0.932 . S
C183 U166 2.882 . S
C183 C177 1.428 . S
C183 O186 1.301 . S
C183 O187 1.282 . S
O184 U166 2.441 . S
O184 C170 1.249 . S
O185 U166 2.420 . S
O185 C170 1.202 . S
O186 U166 2.455 . S
O186 C183 1.301 . S
O187 U166 2.449 . S
O187 C183 1.282 . S
H188 C161 0.931 . S
H189 C163 0.929 . S
H190 C164 0.930 . S
H191 C165 0.931 . S
H192 C172 0.932 . S
H193 C173 0.930 . S
H194 C174 0.929 . S
H195 C176 0.930 . S
H196 C178 0.932 . S
H197 C179 0.929 . S
H198 C180 0.928 . S
H199 C182 0.932 . S
C200 C201 1.264 . S
C200 C205 1.479 . S
C200 C210 1.465 . S
C201 C200 1.264 . S
C201 C203 1.339 . S
C201 H228 0.931 . S
C202 C203 1.395 . S
C202 C204 1.320 . S
C203 C201 1.339 . S
C203 C202 1.395 . S
C203 H229 0.929 . S
C204 C202 1.320 . S
C204 C205 1.405 . S
C204 H230 0.930 . S
C205 C200 1.479 . S
C205 C204 1.405 . S
C205 H231 0.931 . S
U206 O207 2.454 . S
U206 O208 2.458 . S
U206 C209 2.984 . S
U206 C210 2.847 . S
U206 C223 2.882 . S
U206 O224 2.441 . S
U206 O225 2.420 . S
U206 O226 2.455 . S
U206 O227 2.449 . S
O207 U206 2.454 . S
O207 C209 1.353 . S
O208 U206 2.458 . S
O208 C209 1.286 . S
C209 U206 2.984 . S
C209 O207 1.353 . S
C209 O208 1.286 . S
C209 C211 1.363 . S
C210 C200 1.465 . S
C210 U206 2.847 . S
C210 O224 1.249 . S
C210 O225 1.202 . S
C211 C209 1.363 . S
C211 C213 1.408 . S
C211 C216 1.342 . S
C212 C213 1.310 . S
C212 C215 1.461 . S
C212 H232 0.932 . S
C213 C211 1.408 . S
C213 C212 1.310 . S
C213 H233 0.930 . S
C214 C215 1.474 . S
C214 C216 1.285 . S
C214 H234 0.929 . S
C215 C212 1.461 . S
C215 C214 1.474 . S
C216 C211 1.342 . S
C216 C214 1.285 . S
C216 H235 0.930 . S
C217 C220 1.424 . S
C217 C222 1.245 . S
C217 C223 1.428 . S
C218 C221 1.260 . S
C218 C222 1.477 . S
C218 H236 0.932 . S
C219 C220 1.384 . S
C219 C221 1.479 . S
C219 H237 0.929 . S
C220 C217 1.424 . S
C220 C219 1.384 . S
C220 H238 0.928 . S
C221 C218 1.260 . S
C221 C219 1.479 . S
C222 C217 1.245 . S
C222 C218 1.477 . S
C222 H239 0.932 . S
C223 U206 2.882 . S
C223 C217 1.428 . S
C223 O226 1.301 . S
C223 O227 1.282 . S
O224 U206 2.441 . S
O224 C210 1.249 . S
O225 U206 2.420 . S
O225 C210 1.202 . S
O226 U206 2.455 . S
O226 C223 1.301 . S
O227 U206 2.449 . S
O227 C223 1.282 . S
H228 C201 0.931 . S
H229 C203 0.929 . S
H230 C204 0.930 . S
H231 C205 0.931 . S
H232 C212 0.932 . S
H233 C213 0.930 . S
H234 C214 0.929 . S
H235 C216 0.930 . S
H236 C218 0.932 . S
H237 C219 0.929 . S
H238 C220 0.928 . S
H239 C222 0.932 . S
C240 C241 1.264 . S
C240 C245 1.479 . S
C240 C250 1.465 . S
C241 C240 1.264 . S
C241 C243 1.339 . S
C241 H268 0.931 . S
C242 C243 1.395 . S
C242 C244 1.320 . S
C243 C241 1.339 . S
C243 C242 1.395 . S
C243 H269 0.929 . S
C244 C242 1.320 . S
C244 C245 1.405 . S
C244 H270 0.930 . S
C245 C240 1.479 . S
C245 C244 1.405 . S
C245 H271 0.931 . S
U246 O247 2.454 . S
U246 O248 2.458 . S
U246 C249 2.984 . S
U246 C250 2.847 . S
U246 C263 2.882 . S
U246 O264 2.441 . S
U246 O265 2.420 . S
U246 O266 2.455 . S
U246 O267 2.449 . S
O247 U246 2.454 . S
O247 C249 1.353 . S
O248 U246 2.458 . S
O248 C249 1.286 . S
C249 U246 2.984 . S
C249 O247 1.353 . S
C249 O248 1.286 . S
C249 C251 1.363 . S
C250 C240 1.465 . S
C250 U246 2.847 . S
C250 O264 1.249 . S
C250 O265 1.202 . S
C251 C249 1.363 . S
C251 C253 1.408 . S
C251 C256 1.342 . S
C252 C253 1.310 . S
C252 C255 1.461 . S
C252 H272 0.932 . S
C253 C251 1.408 . S
C253 C252 1.310 . S
C253 H273 0.930 . S
C254 C255 1.474 . S
C254 C256 1.285 . S
C254 H274 0.929 . S
C255 C252 1.461 . S
C255 C254 1.474 . S
C256 C251 1.342 . S
C256 C254 1.285 . S
C256 H275 0.930 . S
C257 C260 1.424 . S
C257 C262 1.245 . S
C257 C263 1.428 . S
C258 C261 1.260 . S
C258 C262 1.477 . S
C258 H276 0.932 1_556 S
C259 C260 1.384 . S
C259 C261 1.479 . S
C259 H277 0.929 . S
C260 C257 1.424 . S
C260 C259 1.384 . S
C260 H278 0.928 . S
C261 C258 1.260 . S
C261 C259 1.479 . S
C262 C257 1.245 . S
C262 C258 1.477 . S
C262 H279 0.932 . S
C263 U246 2.882 . S
C263 C257 1.428 . S
C263 O266 1.301 . S
C263 O267 1.282 . S
O264 U246 2.441 . S
O264 C250 1.249 . S
O265 U246 2.420 . S
O265 C250 1.202 . S
O266 U246 2.455 . S
O266 C263 1.301 . S
O267 U246 2.449 . S
O267 C263 1.282 . S
H268 C241 0.931 . S
H269 C243 0.929 . S
H270 C244 0.930 . S
H271 C245 0.931 . S
H272 C252 0.932 . S
H273 C253 0.930 . S
H274 C254 0.929 . S
H275 C256 0.930 . S
H276 C258 0.932 1_554 S
H277 C259 0.929 . S
H278 C260 0.928 . S
H279 C262 0.932 . S
C280 C281 1.264 . S
C280 C285 1.479 . S
C280 C290 1.465 . S
C281 C280 1.264 . S
C281 C283 1.339 . S
C281 H308 0.931 . S
C282 C283 1.395 1_556 S
C282 C284 1.320 . S
C283 C281 1.339 . S
C283 C282 1.395 1_554 S
C283 H309 0.929 . S
C284 C282 1.320 . S
C284 C285 1.405 1_556 S
C284 H310 0.930 . S
C285 C280 1.479 . S
C285 C284 1.405 1_554 S
C285 H311 0.931 . S
U286 O287 2.454 . S
U286 O288 2.458 . S
U286 C289 2.984 . S
U286 C290 2.847 . S
U286 C303 2.882 . S
U286 O304 2.441 . S
U286 O305 2.420 . S
U286 O306 2.455 . S
U286 O307 2.449 . S
O287 U286 2.454 . S
O287 C289 1.353 . S
O288 U286 2.458 . S
O288 C289 1.286 . S
C289 U286 2.984 . S
C289 O287 1.353 . S
C289 O288 1.286 . S
C289 C291 1.363 . S
C290 C280 1.465 . S
C290 U286 2.847 . S
C290 O304 1.249 . S
C290 O305 1.202 . S
C291 C289 1.363 . S
C291 C293 1.408 . S
C291 C296 1.342 . S
C292 C293 1.310 . S
C292 C295 1.461 . S
C292 H312 0.932 . S
C293 C291 1.408 . S
C293 C292 1.310 . S
C293 H313 0.930 . S
C294 C295 1.474 . S
C294 C296 1.285 . S
C294 H314 0.929 . S
C295 C292 1.461 . S
C295 C294 1.474 . S
C296 C291 1.342 . S
C296 C294 1.285 . S
C296 H315 0.930 . S
C297 C300 1.424 . S
C297 C302 1.245 . S
C297 C303 1.428 . S
C298 C301 1.260 . S
C298 C302 1.477 . S
C298 H316 0.932 . S
C299 C300 1.384 . S
C299 C301 1.479 . S
C299 H317 0.929 . S
C300 C297 1.424 . S
C300 C299 1.384 . S
C300 H318 0.928 . S
C301 C298 1.260 . S
C301 C299 1.479 . S
C302 C297 1.245 . S
C302 C298 1.477 . S
C302 H319 0.932 . S
C303 U286 2.882 . S
C303 C297 1.428 . S
C303 O306 1.301 . S
C303 O307 1.282 . S
O304 U286 2.441 . S
O304 C290 1.249 . S
O305 U286 2.420 . S
O305 C290 1.202 . S
O306 U286 2.455 . S
O306 C303 1.301 . S
O307 U286 2.449 . S
O307 C303 1.282 . S
H308 C281 0.931 . S
H309 C283 0.929 . S
H310 C284 0.930 . S
H311 C285 0.931 . S
H312 C292 0.932 . S
H313 C293 0.930 . S
H314 C294 0.929 . S
H315 C296 0.930 . S
H316 C298 0.932 . S
H317 C299 0.929 . S
H318 C300 0.928 . S
H319 C302 0.932 . S
Nd320 C322 2.836 1_445 S
Nd320 O340 2.500 1_445 S
Nd320 O341 2.492 1_545 S
Nd320 O342 2.487 . S
Nd320 O343 2.682 . S
Nd320 O344 2.410 1_545 S
Nd320 O349 2.414 1_455 S
Nd320 O351 2.424 . S
Nd321 C331 2.836 1_556 S
Nd321 O343 2.414 . S
Nd321 O345 2.424 1_545 S
Nd321 O346 2.500 . S
Nd321 O347 2.492 1_556 S
Nd321 O348 2.487 1_455 S
Nd321 O349 2.682 1_455 S
Nd321 O350 2.410 . S
C322 Nd320 2.836 1_665 S
C322 C323 1.498 . S
C322 O340 1.258 . S
C322 O341 1.239 1_655 S
C323 C322 1.498 . S
C323 C324 1.366 . S
C323 C328 1.407 . S
C324 C323 1.366 . S
C324 C325 1.392 . S
C324 H352 0.930 . S
C325 C324 1.392 . S
C325 C326 1.398 . S
C325 H353 0.929 . S
C326 C325 1.398 . S
C326 C327 1.352 . S
C327 C326 1.352 . S
C327 C328 1.384 . S
C327 H354 0.930 . S
C328 C323 1.407 . S
C328 C327 1.384 . S
C328 H355 0.929 1_655 S
C329 O342 1.241 . S
C329 O343 1.273 . S
C330 O344 1.251 . S
C330 O345 1.268 . S
C331 Nd321 2.836 1_554 S
C331 C332 1.498 . S
C331 O346 1.258 1_554 S
C331 O347 1.239 . S
C332 C331 1.498 . S
C332 C333 1.366 . S
C332 C337 1.407 . S
C333 C332 1.366 . S
C333 C334 1.392 . S
C333 H356 0.930 . S
C334 C333 1.392 . S
C334 C335 1.398 . S
C334 H357 0.929 . S
C335 C334 1.398 . S
C335 C336 1.352 . S
C336 C335 1.352 . S
C336 C337 1.384 . S
C336 H358 0.930 . S
C337 C332 1.407 . S
C337 C336 1.384 . S
C337 H359 0.929 . S
C338 O348 1.241 . S
C338 O349 1.273 . S
C339 O350 1.251 . S
C339 O351 1.268 . S
O340 Nd320 2.500 1_665 S
O340 C322 1.258 . S
O341 Nd320 2.492 1_565 S
O341 C322 1.239 1_455 S
O342 Nd320 2.487 . S
O342 C329 1.241 . S
O343 Nd320 2.682 . S
O343 Nd321 2.414 . S
O343 C329 1.273 . S
O344 Nd320 2.410 1_565 S
O344 C330 1.251 . S
O345 Nd321 2.424 1_565 S
O345 C330 1.268 . S
O346 Nd321 2.500 . S
O346 C331 1.258 1_556 S
O347 Nd321 2.492 1_554 S
O347 C331 1.239 . S
O348 Nd321 2.487 1_655 S
O348 C338 1.241 . S
O349 Nd320 2.414 1_655 S
O349 Nd321 2.682 1_655 S
O349 C338 1.273 . S
O350 Nd321 2.410 . S
O350 C339 1.251 . S
O351 Nd320 2.424 . S
O351 C339 1.268 . S
H352 C324 0.930 . S
H353 C325 0.929 . S
H354 C327 0.930 . S
H355 C328 0.929 1_455 S
H356 C333 0.930 . S
H357 C334 0.929 . S
H358 C336 0.930 . S
H359 C337 0.929 . S
Nd360 C362 2.836 1_545 S
Nd360 O380 2.500 1_545 S
Nd360 O381 2.492 . S
Nd360 O382 2.487 . S
Nd360 O383 2.682 . S
Nd360 O384 2.410 . S
Nd360 O389 2.414 1_545 S
Nd360 O391 2.424 . S
Nd361 C371 2.836 1_556 S
Nd361 O383 2.414 . S
Nd361 O385 2.424 . S
Nd361 O386 2.500 . S
Nd361 O387 2.492 1_556 S
Nd361 O388 2.487 1_545 S
Nd361 O389 2.682 1_545 S
Nd361 O390 2.410 . S
C362 Nd360 2.836 1_565 S
C362 C363 1.498 . S
C362 O380 1.258 . S
C362 O381 1.239 1_565 S
C363 C362 1.498 . S
C363 C364 1.366 . S
C363 C368 1.407 1_565 S
C364 C363 1.366 . S
C364 C365 1.392 . S
C364 H392 0.930 . S
C365 C364 1.392 . S
C365 C366 1.398 . S
C365 H393 0.929 . S
C366 C365 1.398 . S
C366 C367 1.352 . S
C367 C366 1.352 . S
C367 C368 1.384 1_565 S
C367 H394 0.930 1_565 S
C368 C363 1.407 1_545 S
C368 C367 1.384 1_545 S
C368 H395 0.929 . S
C369 O382 1.241 . S
C369 O383 1.273 . S
C370 O384 1.251 . S
C370 O385 1.268 . S
C371 Nd361 2.836 1_554 S
C371 C372 1.498 . S
C371 O386 1.258 1_554 S
C371 O387 1.239 . S
C372 C371 1.498 . S
C372 C373 1.366 . S
C372 C377 1.407 . S
C373 C372 1.366 . S
C373 C374 1.392 . S
C373 H396 0.930 1_554 S
C374 C373 1.392 . S
C374 C375 1.398 . S
C374 H397 0.929 . S
C375 C374 1.398 . S
C375 C376 1.352 . S
C376 C375 1.352 . S
C376 C377 1.384 . S
C376 H398 0.930 . S
C377 C372 1.407 . S
C377 C376 1.384 . S
C377 H399 0.929 . S
C378 O388 1.241 . S
C378 O389 1.273 . S
C379 O390 1.251 . S
C379 O391 1.268 . S
O380 Nd360 2.500 1_565 S
O380 C362 1.258 . S
O381 Nd360 2.492 . S
O381 C362 1.239 1_545 S
O382 Nd360 2.487 . S
O382 C369 1.241 . S
O383 Nd360 2.682 . S
O383 Nd361 2.414 . S
O383 C369 1.273 . S
O384 Nd360 2.410 . S
O384 C370 1.251 . S
O385 Nd361 2.424 . S
O385 C370 1.268 . S
O386 Nd361 2.500 . S
O386 C371 1.258 1_556 S
O387 Nd361 2.492 1_554 S
O387 C371 1.239 . S
O388 Nd361 2.487 1_565 S
O388 C378 1.241 . S
O389 Nd360 2.414 1_565 S
O389 Nd361 2.682 1_565 S
O389 C378 1.273 . S
O390 Nd361 2.410 . S
O390 C379 1.251 . S
O391 Nd360 2.424 . S
O391 C379 1.268 . S
H392 C364 0.930 . S
H393 C365 0.929 . S
H394 C367 0.930 1_545 S
H395 C368 0.929 . S
H396 C373 0.930 1_556 S
H397 C374 0.929 . S
H398 C376 0.930 . S
H399 C377 0.929 . S
Nd400 C402 2.836 . S
Nd400 O420 2.500 . S
Nd400 O421 2.492 . S
Nd400 O422 2.487 . S
Nd400 O423 2.682 . S
Nd400 O424 2.410 . S
Nd400 O429 2.414 . S
Nd400 O431 2.424 . S
Nd401 C411 2.836 . S
Nd401 O423 2.414 . S
Nd401 O425 2.424 . S
Nd401 O426 2.500 . S
Nd401 O427 2.492 . S
Nd401 O428 2.487 . S
Nd401 O429 2.682 . S
Nd401 O430 2.410 . S
C402 Nd400 2.836 . S
C402 C403 1.498 . S
C402 O420 1.258 . S
C402 O421 1.239 . S
C403 C402 1.498 . S
C403 C404 1.366 . S
C403 C408 1.407 1_556 S
C404 C403 1.366 . S
C404 C405 1.392 . S
C404 H432 0.930 . S
C405 C404 1.392 . S
C405 C406 1.398 1_556 S
C405 H433 0.929 . S
C406 C405 1.398 1_554 S
C406 C407 1.352 . S
C407 C406 1.352 . S
C407 C408 1.384 . S
C407 H434 0.930 . S
C408 C403 1.407 1_554 S
C408 C407 1.384 . S
C408 H435 0.929 . S
C409 O422 1.241 . S
C409 O423 1.273 . S
C410 O424 1.251 . S
C410 O425 1.268 . S
C411 Nd401 2.836 . S
C411 C412 1.498 . S
C411 O426 1.258 . S
C411 O427 1.239 . S
C412 C411 1.498 . S
C412 C413 1.366 . S
C412 C417 1.407 . S
C413 C412 1.366 . S
C413 C414 1.392 . S
C413 H436 0.930 . S
C414 C413 1.392 . S
C414 C415 1.398 . S
C414 H437 0.929 . S
C415 C414 1.398 . S
C415 C416 1.352 . S
C416 C415 1.352 . S
C416 C417 1.384 . S
C416 H438 0.930 . S
C417 C412 1.407 . S
C417 C416 1.384 . S
C417 H439 0.929 . S
C418 O428 1.241 . S
C418 O429 1.273 . S
C419 O430 1.251 . S
C419 O431 1.268 . S
O420 Nd400 2.500 . S
O420 C402 1.258 . S
O421 Nd400 2.492 . S
O421 C402 1.239 . S
O422 Nd400 2.487 . S
O422 C409 1.241 . S
O423 Nd400 2.682 . S
O423 Nd401 2.414 . S
O423 C409 1.273 . S
O424 Nd400 2.410 . S
O424 C410 1.251 . S
O425 Nd401 2.424 . S
O425 C410 1.268 . S
O426 Nd401 2.500 . S
O426 C411 1.258 . S
O427 Nd401 2.492 . S
O427 C411 1.239 . S
O428 Nd401 2.487 . S
O428 C418 1.241 . S
O429 Nd400 2.414 . S
O429 Nd401 2.682 . S
O429 C418 1.273 . S
O430 Nd401 2.410 . S
O430 C419 1.251 . S
O431 Nd400 2.424 . S
O431 C419 1.268 . S
H432 C404 0.930 . S
H433 C405 0.929 . S
H434 C407 0.930 . S
H435 C408 0.929 . S
H436 C413 0.930 . S
H437 C414 0.929 . S
H438 C416 0.930 . S
H439 C417 0.929 . S
Nd440 C442 2.836 1_455 S
Nd440 O460 2.500 1_455 S
Nd440 O461 2.492 1_455 S
Nd440 O462 2.487 . S
Nd440 O463 2.682 . S
Nd440 O464 2.410 1_455 S
Nd440 O469 2.414 . S
Nd440 O471 2.424 . S
Nd441 C451 2.836 1_556 S
Nd441 O463 2.414 . S
Nd441 O465 2.424 1_455 S
Nd441 O466 2.500 . S
Nd441 O467 2.492 1_556 S
Nd441 O468 2.487 . S
Nd441 O469 2.682 . S
Nd441 O470 2.410 . S
C442 Nd440 2.836 1_655 S
C442 C443 1.498 . S
C442 O460 1.258 . S
C442 O461 1.239 . S
C443 C442 1.498 . S
C443 C444 1.366 . S
C443 C448 1.407 . S
C444 C443 1.366 . S
C444 C445 1.392 . S
C444 H472 0.930 . S
C445 C444 1.392 . S
C445 C446 1.398 . S
C445 H473 0.929 . S
C446 C445 1.398 . S
C446 C447 1.352 . S
C447 C446 1.352 . S
C447 C448 1.384 . S
C447 H474 0.930 . S
C448 C443 1.407 . S
C448 C447 1.384 . S
C448 H475 0.929 . S
C449 O462 1.241 . S
C449 O463 1.273 . S
C450 O464 1.251 . S
C450 O465 1.268 . S
C451 Nd441 2.836 1_554 S
C451 C452 1.498 . S
C451 O466 1.258 1_554 S
C451 O467 1.239 . S
C452 C451 1.498 . S
C452 C453 1.366 . S
C452 C457 1.407 . S
C453 C452 1.366 . S
C453 C454 1.392 . S
C453 H476 0.930 . S
C454 C453 1.392 . S
C454 C455 1.398 . S
C454 H477 0.929 . S
C455 C454 1.398 . S
C455 C456 1.352 . S
C456 C455 1.352 . S
C456 C457 1.384 . S
C456 H478 0.930 . S
C457 C452 1.407 . S
C457 C456 1.384 . S
C457 H479 0.929 . S
C458 O468 1.241 . S
C458 O469 1.273 . S
C459 O470 1.251 . S
C459 O471 1.268 . S
O460 Nd440 2.500 1_655 S
O460 C442 1.258 . S
O461 Nd440 2.492 1_655 S
O461 C442 1.239 . S
O462 Nd440 2.487 . S
O462 C449 1.241 . S
O463 Nd440 2.682 . S
O463 Nd441 2.414 . S
O463 C449 1.273 . S
O464 Nd440 2.410 1_655 S
O464 C450 1.251 . S
O465 Nd441 2.424 1_655 S
O465 C450 1.268 . S
O466 Nd441 2.500 . S
O466 C451 1.258 1_556 S
O467 Nd441 2.492 1_554 S
O467 C451 1.239 . S
O468 Nd441 2.487 . S
O468 C458 1.241 . S
O469 Nd440 2.414 . S
O469 Nd441 2.682 . S
O469 C458 1.273 . S
O470 Nd441 2.410 . S
O470 C459 1.251 . S
O471 Nd440 2.424 . S
O471 C459 1.268 . S
H472 C444 0.930 . S
H473 C445 0.929 . S
H474 C447 0.930 . S
H475 C448 0.929 . S
H476 C453 0.930 . S
H477 C454 0.929 . S
H478 C456 0.930 . S
H479 C457 0.929 . S
C480 C481 1.369 . S
C480 C482 1.419 . S
C480 H484 0.930 . S
C481 C480 1.369 . S
C481 C490 1.429 . S
C482 C480 1.419 . S
C482 C483 1.363 . S
C482 H485 0.929 . S
C483 C482 1.363 . S
C483 C489 1.428 . S
H484 C480 0.930 . S
H485 C482 0.929 . S
S486 N487 1.613 . S
S486 N488 1.610 . S
N487 S486 1.613 . S
N487 C490 1.350 1_565 S
N488 S486 1.610 . S
N488 C489 1.351 1_565 S
C489 C483 1.428 . S
C489 N488 1.351 1_545 S
C489 C490 1.434 . S
C490 C481 1.429 . S
C490 N487 1.350 1_545 S
C490 C489 1.434 . S
C491 C492 1.369 . S
C491 C493 1.419 . S
C491 H495 0.930 . S
C492 C491 1.369 . S
C492 C501 1.429 . S
C493 C491 1.419 . S
C493 C494 1.363 . S
C493 H496 0.929 . S
C494 C493 1.363 . S
C494 C500 1.428 . S
H495 C491 0.930 . S
H496 C493 0.929 . S
S497 N498 1.613 . S
S497 N499 1.610 . S
N498 S497 1.613 . S
N498 C501 1.350 . S
N499 S497 1.610 . S
N499 C500 1.351 . S
C500 C494 1.428 . S
C500 N499 1.351 . S
C500 C501 1.434 . S
C501 C492 1.429 . S
C501 N498 1.350 . S
C501 C500 1.434 . S
C502 C503 1.369 . S
C502 C504 1.419 . S
C502 H506 0.930 . S
C503 C502 1.369 . S
C503 C512 1.429 . S
C504 C502 1.419 . S
C504 C505 1.363 . S
C504 H507 0.929 . S
C505 C504 1.363 . S
C505 C511 1.428 . S
H506 C502 0.930 . S
H507 C504 0.929 . S
S508 N509 1.613 . S
S508 N510 1.610 . S
N509 S508 1.613 . S
N509 C512 1.350 . S
N510 S508 1.610 . S
N510 C511 1.351 . S
C511 C505 1.428 . S
C511 N510 1.351 . S
C511 C512 1.434 . S
C512 C503 1.429 . S
C512 N509 1.350 . S
C512 C511 1.434 . S
C513 C514 1.369 . S
C513 C515 1.419 . S
C513 H517 0.930 . S
C514 C513 1.369 . S
C514 C523 1.429 . S
C515 C513 1.419 . S
C515 C516 1.363 . S
C515 H518 0.929 . S
C516 C515 1.363 . S
C516 C522 1.428 . S
H517 C513 0.930 . S
H518 C515 0.929 . S
S519 N520 1.613 . S
S519 N521 1.610 . S
N520 S519 1.613 . S
N520 C523 1.350 . S
N521 S519 1.610 . S
N521 C522 1.351 . S
C522 C516 1.428 . S
C522 N521 1.351 . S
C522 C523 1.434 . S
C523 C514 1.429 . S
C523 N520 1.350 . S
C523 C522 1.434 . S
C524 C525 1.369 1_565 S
C524 C526 1.419 1_565 S
C524 H528 0.930 . S
C525 C524 1.369 1_545 S
C525 C534 1.429 . S
C526 C524 1.419 1_545 S
C526 C527 1.363 . S
C526 H529 0.929 1_545 S
C527 C526 1.363 . S
C527 C533 1.428 . S
H528 C524 0.930 . S
H529 C526 0.929 1_565 S
S530 N531 1.613 1_554 S
S530 N532 1.610 1_554 S
N531 S530 1.613 1_556 S
N531 C534 1.350 . S
N532 S530 1.610 1_556 S
N532 C533 1.351 . S
C533 C527 1.428 . S
C533 N532 1.351 . S
C533 C534 1.434 . S
C534 C525 1.429 . S
C534 N531 1.350 . S
C534 C533 1.434 . S
C535 C536 1.369 . S
C535 C537 1.419 . S
C535 H539 0.930 . S
C536 C535 1.369 . S
C536 C545 1.429 . S
C537 C535 1.419 . S
C537 C538 1.363 . S
C537 H540 0.929 . S
C538 C537 1.363 . S
C538 C544 1.428 . S
H539 C535 0.930 . S
H540 C537 0.929 . S
S541 N542 1.613 . S
S541 N543 1.610 1_554 S
N542 S541 1.613 . S
N542 C545 1.350 1_545 S
N543 S541 1.610 1_556 S
N543 C544 1.351 1_546 S
C544 C538 1.428 . S
C544 N543 1.351 1_564 S
C544 C545 1.434 . S
C545 C536 1.429 . S
C545 N542 1.350 1_565 S
C545 C544 1.434 . S
C546 C547 1.369 . S
C546 C548 1.419 . S
C546 H550 0.930 1_556 S
C547 C546 1.369 . S
C547 C556 1.429 . S
C548 C546 1.419 . S
C548 C549 1.363 . S
C548 H551 0.929 . S
C549 C548 1.363 . S
C549 C555 1.428 . S
H550 C546 0.930 1_554 S
H551 C548 0.929 . S
S552 N553 1.613 . S
S552 N554 1.610 . S
N553 S552 1.613 . S
N553 C556 1.350 . S
N554 S552 1.610 . S
N554 C555 1.351 . S
C555 C549 1.428 . S
C555 N554 1.351 . S
C555 C556 1.434 . S
C556 C547 1.429 . S
C556 N553 1.350 . S
C556 C555 1.434 . S
C557 C558 1.369 . S
C557 C559 1.419 . S
C557 H561 0.930 . S
C558 C557 1.369 . S
C558 C567 1.429 . S
C559 C557 1.419 . S
C559 C560 1.363 . S
C559 H562 0.929 . S
C560 C559 1.363 . S
C560 C566 1.428 . S
H561 C557 0.930 . S
H562 C559 0.929 . S
S563 N564 1.613 . S
S563 N565 1.610 . S
N564 S563 1.613 . S
N564 C567 1.350 . S
N565 S563 1.610 . S
N565 C566 1.351 . S
C566 C560 1.428 . S
C566 N565 1.351 . S
C566 C567 1.434 . S
C567 C558 1.429 . S
C567 N564 1.350 . S
C567 C566 1.434 . S
C568 C569 1.369 . S
C568 C570 1.419 . S
C568 H572 0.930 . S
C569 C568 1.369 . S
C569 C578 1.429 . S
C570 C568 1.419 . S
C570 C571 1.363 . S
C570 H573 0.929 . S
C571 C570 1.363 . S
C571 C577 1.428 . S
H572 C568 0.930 . S
H573 C570 0.929 . S
S574 N575 1.613 1_554 S
S574 N576 1.610 1_554 S
N575 S574 1.613 1_556 S
N575 C578 1.350 . S
N576 S574 1.610 1_556 S
N576 C577 1.351 . S
C577 C571 1.428 . S
C577 N576 1.351 . S
C577 C578 1.434 . S
C578 C569 1.429 . S
C578 N575 1.350 . S
C578 C577 1.434 . S
C579 C580 1.369 . S
C579 C581 1.419 . S
C579 H583 0.930 . S
C580 C579 1.369 . S
C580 C589 1.429 . S
C581 C579 1.419 . S
C581 C582 1.363 . S
C581 H584 0.929 . S
C582 C581 1.363 . S
C582 C588 1.428 . S
H583 C579 0.930 . S
H584 C581 0.929 . S
S585 N586 1.620 . S
S585 N587 1.610 1_554 S
N586 S585 1.620 . S
N586 C589 1.348 1_564 S
N587 S585 1.610 1_556 S
N587 C588 1.351 1_565 S
C588 C582 1.428 . S
C588 N587 1.351 1_545 S
C588 C589 1.434 . S
C589 C580 1.429 . S
C589 N586 1.348 1_546 S
C589 C588 1.434 . S
C590 C591 1.369 . S
C590 C592 1.419 . S
C590 H594 0.930 . S
C591 C590 1.369 . S
C591 C600 1.429 . S
C592 C590 1.419 . S
C592 C593 1.363 . S
C592 H595 0.929 . S
C593 C592 1.363 . S
C593 C599 1.428 . S
H594 C590 0.930 . S
H595 C592 0.929 . S
S596 N597 1.613 . S
S596 N598 1.610 . S
N597 S596 1.613 . S
N597 C600 1.350 . S
N598 S596 1.610 . S
N598 C599 1.351 . S
C599 C593 1.428 . S
C599 N598 1.351 . S
C599 C600 1.434 . S
C600 C591 1.429 . S
C600 N597 1.350 . S
C600 C599 1.434 . S
C601 C602 1.369 . S
C601 C603 1.419 . S
C601 H605 0.930 . S
C602 C601 1.369 . S
C602 C611 1.429 . S
C603 C601 1.419 . S
C603 C604 1.363 . S
C603 H606 0.929 . S
C604 C603 1.363 . S
C604 C610 1.428 . S
H605 C601 0.930 . S
H606 C603 0.929 . S
S607 N608 1.613 . S
S607 N609 1.610 . S
N608 S607 1.613 . S
N608 C611 1.350 . S
N609 S607 1.610 . S
N609 C610 1.351 . S
C610 C604 1.428 . S
C610 N609 1.351 . S
C610 C611 1.434 . S
C611 C602 1.429 . S
C611 N608 1.350 . S
C611 C610 1.434 . S
C612 C613 1.369 . S
C612 C614 1.419 . S
C612 H616 0.930 . S
C613 C612 1.369 . S
C613 C622 1.429 . S
C614 C612 1.419 . S
C614 C615 1.363 . S
C614 H617 0.929 . S
C615 C614 1.363 . S
C615 C621 1.428 . S
H616 C612 0.930 . S
H617 C614 0.929 . S
S618 N619 1.613 . S
S618 N620 1.610 . S
N619 S618 1.613 . S
N619 C622 1.350 . S
N620 S618 1.610 . S
N620 C621 1.351 . S
C621 C615 1.428 . S
C621 N620 1.351 . S
C621 C622 1.434 . S
C622 C613 1.429 . S
C622 N619 1.350 . S
C622 C621 1.434 . S
C623 C624 1.369 . S
C623 C625 1.419 . S
C623 H627 0.930 . S
C624 C623 1.369 . S
C624 C633 1.429 1_545 S
C625 C623 1.419 . S
C625 C626 1.363 . S
C625 H628 0.929 . S
C626 C625 1.363 . S
C626 C632 1.449 . S
H627 C623 0.930 . S
H628 C625 0.929 . S
S629 N630 1.613 . S
S629 N631 1.610 . S
N630 S629 1.613 . S
N630 C633 1.350 . S
N631 S629 1.610 . S
N631 C632 1.341 1_565 S
C632 C626 1.449 . S
C632 N631 1.341 1_545 S
C632 C633 1.421 1_545 S
C633 C624 1.429 1_565 S
C633 N630 1.350 . S
C633 C632 1.421 1_565 S
C634 C635 1.369 . S
C634 C636 1.419 . S
C634 H638 0.930 . S
C635 C634 1.369 . S
C635 C644 1.429 . S
C636 C634 1.419 . S
C636 C637 1.363 . S
C636 H639 0.929 . S
C637 C636 1.363 . S
C637 C643 1.428 . S
H638 C634 0.930 . S
H639 C636 0.929 . S
S640 N641 1.613 . S
S640 N642 1.610 . S
N641 S640 1.613 . S
N641 C644 1.350 . S
N642 S640 1.610 . S
N642 C643 1.351 . S
C643 C637 1.428 . S
C643 N642 1.351 . S
C643 C644 1.434 . S
C644 C635 1.429 . S
C644 N641 1.350 . S
C644 C643 1.434 . S
C645 C646 1.369 . S
C645 C647 1.419 . S
C645 H649 0.930 . S
C646 C645 1.369 . S
C646 C655 1.429 . S
C647 C645 1.419 . S
C647 C648 1.363 . S
C647 H650 0.929 . S
C648 C647 1.363 . S
C648 C654 1.428 . S
H649 C645 0.930 . S
H650 C647 0.929 . S
S651 N652 1.613 . S
S651 N653 1.610 . S
N652 S651 1.613 . S
N652 C655 1.350 . S
N653 S651 1.610 . S
N653 C654 1.351 . S
C654 C648 1.428 . S
C654 N653 1.351 . S
C654 C655 1.434 . S
C655 C646 1.429 . S
C655 N652 1.350 . S
C655 C654 1.434 . S
C656 C657 1.369 . S
C656 C658 1.419 . S
C656 H660 0.930 . S
C657 C656 1.369 . S
C657 C666 1.429 . S
C658 C656 1.419 . S
C658 C659 1.363 . S
C658 H661 0.929 . S
C659 C658 1.363 . S
C659 C665 1.428 . S
H660 C656 0.930 . S
H661 C658 0.929 . S
S662 N663 1.613 . S
S662 N664 1.610 . S
N663 S662 1.613 . S
N663 C666 1.350 . S
N664 S662 1.610 . S
N664 C665 1.351 . S
C665 C659 1.428 . S
C665 N664 1.351 . S
C665 C666 1.434 . S
C666 C657 1.429 . S
C666 N663 1.350 . S
C666 C665 1.434 . S
C667 C668 1.369 . S
C667 C669 1.419 . S
C667 H671 0.930 . S
C668 C667 1.369 . S
C668 C677 1.429 . S
C669 C667 1.419 . S
C669 C670 1.363 . S
C669 H672 0.929 . S
C670 C669 1.363 . S
C670 C676 1.428 . S
H671 C667 0.930 . S
H672 C669 0.929 . S
S673 N674 1.613 . S
S673 N675 1.610 . S
N674 S673 1.613 . S
N674 C677 1.350 . S
N675 S673 1.610 . S
N675 C676 1.351 . S
C676 C670 1.428 . S
C676 N675 1.351 . S
C676 C677 1.434 . S
C677 C668 1.429 . S
C677 N674 1.350 . S
C677 C676 1.434 . S
C678 C679 1.369 . S
C678 C680 1.419 . S
C678 H682 0.930 . S
C679 C678 1.369 . S
C679 C688 1.444 . S
C680 C678 1.419 . S
C680 C681 1.363 . S
C680 H683 0.929 . S
C681 C680 1.363 . S
C681 C687 1.428 . S
H682 C678 0.930 . S
H683 C680 0.929 . S
S684 N685 1.613 . S
S684 N686 1.610 . S
N685 S684 1.613 . S
N685 C688 1.336 1_554 S
N686 S684 1.610 . S
N686 C687 1.351 1_554 S
C687 C681 1.428 . S
C687 N686 1.351 1_556 S
C687 C688 1.431 . S
C688 C679 1.444 . S
C688 N685 1.336 1_556 S
C688 C687 1.431 . S
C689 C690 1.369 . S
C689 C691 1.419 . S
C689 H693 0.930 . S
C690 C689 1.369 . S
C690 C699 1.429 . S
C691 C689 1.419 . S
C691 C692 1.363 . S
C691 H694 0.929 . S
C692 C691 1.363 . S
C692 C698 1.428 . S
H693 C689 0.930 . S
H694 C691 0.929 . S
S695 N696 1.613 . S
S695 N697 1.610 . S
N696 S695 1.613 . S
N696 C699 1.350 . S
N697 S695 1.610 . S
N697 C698 1.351 . S
C698 C692 1.428 . S
C698 N697 1.351 . S
C698 C699 1.434 . S
C699 C690 1.429 . S
C699 N696 1.350 . S
C699 C698 1.434 . S
C700 C701 1.369 . S
C700 C702 1.419 . S
C700 H704 0.930 . S
C701 C700 1.369 . S
C701 C710 1.429 . S
C702 C700 1.419 . S
C702 C703 1.363 . S
C702 H705 0.929 . S
C703 C702 1.363 . S
C703 C709 1.428 . S
H704 C700 0.930 . S
H705 C702 0.929 . S
S706 N707 1.613 . S
S706 N708 1.610 . S
N707 S706 1.613 . S
N707 C710 1.350 . S
N708 S706 1.610 . S
N708 C709 1.351 . S
C709 C703 1.428 . S
C709 N708 1.351 . S
C709 C710 1.434 . S
C710 C701 1.429 . S
C710 N707 1.350 . S
C710 C709 1.434 . S
C711 C712 1.369 . S
C711 C713 1.419 . S
C711 H715 0.930 . S
C712 C711 1.369 . S
C712 C721 1.429 1_565 S
C713 C711 1.419 . S
C713 C714 1.363 . S
C713 H716 0.929 . S
C714 C713 1.363 . S
C714 C720 1.428 1_565 S
H715 C711 0.930 . S
H716 C713 0.929 . S
S717 N718 1.613 . S
S717 N719 1.610 . S
N718 S717 1.613 . S
N718 C721 1.350 . S
N719 S717 1.610 . S
N719 C720 1.351 . S
C720 C714 1.428 1_545 S
C720 N719 1.351 . S
C720 C721 1.434 . S
C721 C712 1.429 1_545 S
C721 N718 1.350 . S
C721 C720 1.434 . S
C722 C723 1.369 . S
C722 C724 1.419 . S
C722 H726 0.930 . S
C723 C722 1.369 . S
C723 C732 1.429 . S
C724 C722 1.419 . S
C724 C725 1.363 . S
C724 H727 0.929 . S
C725 C724 1.363 . S
C725 C731 1.428 . S
H726 C722 0.930 . S
H727 C724 0.929 . S
S728 N729 1.613 . S
S728 N730 1.610 . S
N729 S728 1.613 . S
N729 C732 1.350 . S
N730 S728 1.610 . S
N730 C731 1.351 . S
C731 C725 1.428 . S
C731 N730 1.351 . S
C731 C732 1.434 . S
C732 C723 1.429 . S
C732 N729 1.350 . S
C732 C731 1.434 . S
C733 C734 1.369 . S
C733 C735 1.419 . S
C733 H737 0.930 . S
C734 C733 1.369 . S
C734 C743 1.429 . S
C735 C733 1.419 . S
C735 C736 1.363 . S
C735 H738 0.929 . S
C736 C735 1.363 . S
C736 C742 1.428 . S
H737 C733 0.930 . S
H738 C735 0.929 . S
S739 N740 1.613 . S
S739 N741 1.610 . S
N740 S739 1.613 . S
N740 C743 1.350 . S
N741 S739 1.610 . S
N741 C742 1.351 . S
C742 C736 1.428 . S
C742 N741 1.351 . S
C742 C743 1.434 . S
C743 C734 1.429 . S
C743 N740 1.350 . S
C743 C742 1.434 . S
C481 C255 1.159 . S
C483 C329 1.136 . S
C494 C369 2.439 . S
C492 C295 2.492 . S
C505 C418 1.778 . S
C503 C175 1.712 . S
C516 C449 2.327 . S
C514 C215 2.308 . S
C527 C338 1.133 . S
C525 C95 1.155 1_545 S
C536 C135 2.484 . S
C538 C378 2.431 1_554 S
C547 C15 1.722 . S
C549 C409 1.784 . S
C558 C55 2.296 1_556 S
C560 C458 2.321 1_655 S
C571 C339 2.270 . S
C569 C221 1.943 . S
C582 C379 1.850 . S
C580 C261 1.558 . S
C593 C415 0.941 . S
C591 C301 0.930 . S
C602 C181 1.748 . S
C604 C459 2.186 . S
C613 C61 1.686 . S
C615 C330 2.271 1_655 S
C626 C370 1.850 . S
C624 C101 1.447 . S
C637 C406 0.941 . S
C635 C141 0.859 . S
C646 C21 1.890 . S
C648 C450 2.188 . S
C657 C202 2.265 . S
C659 C335 2.368 . S
C668 C242 1.778 . S
C670 C375 1.822 . S
C681 C419 3.467 . S
C679 C282 3.153 . S
C692 C455 1.963 . S
C690 C162 1.794 . S
C701 C42 2.161 . S
C703 C326 2.368 . S
C714 C366 1.823 . S
C712 C82 1.816 1_565 S
C725 C410 3.465 . S
C723 C122 3.040 . S
C734 C2 1.939 . S
C736 C446 1.961 . S
