# Generated by pormake.
# Topology tsx, (6,3)-cn, num edge types: 1
# Building blocks:
#     Node 0, Type 0, BuildingBlock: JUFBIX_clean_sbu_0, # of connection points: 6
#     Node 1, Type 0, BuildingBlock: JUFBIX_clean_sbu_0, # of connection points: 6
#     Node 2, Type 1, BuildingBlock: WUSLED_clean_sbu_0, # of connection points: 3
#     Node 3, Type 1, BuildingBlock: WUSLED_clean_sbu_0, # of connection points: 3
#     Node 4, Type 1, BuildingBlock: WUSLED_clean_sbu_0, # of connection points: 3
#     Node 5, Type 1, BuildingBlock: WUSLED_clean_sbu_0, # of connection points: 3
#     Edge 6, Type (0, 1), BuildingBlock: EZIPEK_clean_linker_0, # of connection points: 2
#     Edge 7, Type (0, 1), BuildingBlock: EZIPEK_clean_linker_0, # of connection points: 2
#     Edge 8, Type (0, 1), BuildingBlock: EZIPEK_clean_linker_0, # of connection points: 2
#     Edge 9, Type (0, 1), BuildingBlock: EZIPEK_clean_linker_0, # of connection points: 2
#     Edge 10, Type (0, 1), BuildingBlock: EZIPEK_clean_linker_0, # of connection points: 2
#     Edge 11, Type (0, 1), BuildingBlock: EZIPEK_clean_linker_0, # of connection points: 2
#     Edge 12, Type (0, 1), BuildingBlock: EZIPEK_clean_linker_0, # of connection points: 2
#     Edge 13, Type (0, 1), BuildingBlock: EZIPEK_clean_linker_0, # of connection points: 2
#     Edge 14, Type (0, 1), BuildingBlock: EZIPEK_clean_linker_0, # of connection points: 2
#     Edge 15, Type (0, 1), BuildingBlock: EZIPEK_clean_linker_0, # of connection points: 2
#     Edge 16, Type (0, 1), BuildingBlock: EZIPEK_clean_linker_0, # of connection points: 2
#     Edge 17, Type (0, 1), BuildingBlock: EZIPEK_clean_linker_0, # of connection points: 2
# Relax obj value: 0.150
# Max RMSD: 0.164
# Mean RMSD: 0.131
data_MOF--net-tsx--node1-JUFBIX_clean_sbu_0--node2-WUSLED_clean_sbu_0--edge1-EZIPEK_clean_linker_0
_symmetry_space_group_name_H-M    P1
_symmetry_Int_Tables_number       1
_symmetry_cell_setting            triclinic
loop_
_symmetry_equiv_pos_as_xyz
'x, y, z'
_cell_length_a     20.197307
_cell_length_b     23.66002
_cell_length_c     35.938733
_cell_angle_alpha  93.248125
_cell_angle_beta   88.922178
_cell_angle_gamma 99.046103
loop_
_atom_site_label
_atom_site_type_symbol
_atom_site_fract_x
_atom_site_fract_y
_atom_site_fract_z
_atom_type_partial_charge
Co0 Co 0.07368 1.00542 0.02801 0.0
C1 C 1.01604 0.02922 0.96149 0.0
Co2 Co 0.99063 0.05696 0.03499 0.0
C3 C 0.16025 0.91694 0.03382 0.0
C4 C 0.19494 0.97978 0.99433 0.0
N5 N 0.14528 0.96498 0.01929 0.0
N6 N 0.21709 0.90165 0.01861 0.0
C7 C 0.23901 0.9411 0.99391 0.0
H8 H 0.13001 0.89345 0.05476 0.0
H9 H 0.19861 1.01631 0.97721 0.0
C10 C 0.04839 0.0332 0.10145 0.0
N11 N 0.92001 0.09869 0.0432 0.0
C12 C 0.90231 0.14086 0.02336 0.0
C13 C 0.8761 0.09382 0.07207 0.0
N14 N 0.8495 0.16246 0.03894 0.0
C15 C 0.833 0.13309 0.06963 0.0
C16 C 0.94984 0.93799 0.03531 0.0
O17 O 0.08473 1.00525 0.08048 0.0
O18 O 1.00535 0.05909 0.08716 0.0
O19 O 0.92997 0.98658 0.03846 0.0
O20 O 1.01176 0.93575 0.02928 0.0
O21 O 0.97715 0.05413 0.98267 0.0
H22 H 0.87565 0.06377 0.0937 0.0
H23 H 0.92787 0.1558 0.99817 0.0
O24 O 0.0616 1.00605 0.97566 0.0
O25 O 0.13446 0.07587 0.02728 0.0
O26 O 0.05208 0.1265 0.03188 0.0
C27 C 0.11452 0.12431 0.02933 0.0
H28 H 0.28358 0.94151 0.97664 0.0
H29 H 0.7924 0.13949 0.08871 0.0
Co30 Co 0.57337 0.50522 0.52796 0.0
C31 C 0.51608 0.52891 0.46133 0.0
Co32 Co 0.49011 0.55657 0.53478 0.0
C33 C 0.65993 0.41671 0.53372 0.0
C34 C 0.69529 0.4802 0.49477 0.0
N35 N 0.6452 0.46499 0.51941 0.0
N36 N 0.71707 0.4017 0.51871 0.0
C37 C 0.73941 0.44156 0.49435 0.0
H38 H 0.62931 0.39283 0.55435 0.0
H39 H 0.69921 0.51697 0.47785 0.0
C40 C 0.5475 0.53293 0.60135 0.0
N41 N 0.41926 0.59805 0.54281 0.0
C42 C 0.40221 0.64081 0.52327 0.0
C43 C 0.37428 0.59218 0.57114 0.0
N44 N 0.34872 0.66178 0.53853 0.0
C45 C 0.3311 0.63139 0.56866 0.0
C46 C 0.44968 0.43752 0.53503 0.0
O47 O 0.58406 0.50508 0.58045 0.0
O48 O 0.50442 0.55872 0.58698 0.0
O49 O 0.42964 0.48604 0.53812 0.0
O50 O 0.51165 0.43541 0.52912 0.0
O51 O 0.477 0.55373 0.48244 0.0
H52 H 0.37312 0.56145 0.59241 0.0
H53 H 0.42865 0.65656 0.49853 0.0
O54 O 0.56164 0.50583 0.47558 0.0
O55 O 0.63393 0.5758 0.52733 0.0
O56 O 0.55138 0.62624 0.5318 0.0
C57 C 0.61386 0.62419 0.52935 0.0
H58 H 0.78426 0.44224 0.47729 0.0
H59 H 0.28971 0.63708 0.58735 0.0
C60 C 0.96114 0.13874 0.50974 0.0
C61 C 0.94534 0.16999 0.47993 0.0
C62 C 0.87568 0.222 0.52089 0.0
C63 C 0.90311 0.21131 0.48548 0.0
C64 C 0.89155 0.19088 0.55078 0.0
C65 C 0.93425 0.14968 0.54525 0.0
U66 U 0.05056 0.05141 0.44073 0.0
O67 O 0.14757 1.01991 0.44058 0.0
O68 O 0.05413 0.95877 0.43346 0.0
C69 C 0.11986 0.96594 0.43543 0.0
C70 C 1.00296 0.0932 0.5031 0.0
C71 C 0.14992 0.92257 0.45437 0.0
C72 C 0.19492 0.88508 0.50865 0.0
C73 C 0.16318 0.92666 0.49276 0.0
C74 C 0.19987 0.83539 0.44806 0.0
C75 C 0.21389 0.83935 0.48625 0.0
C76 C 0.16816 0.87652 0.43234 0.0
C77 C 0.03589 0.08592 0.33866 0.0
C78 C 0.08353 0.03374 0.28725 0.0
C79 C 1.01336 0.1047 0.27483 0.0
C80 C 1.00541 0.11597 0.31308 0.0
C81 C 0.05204 0.06331 0.26169 0.0
C82 C 0.07539 0.04494 0.32563 0.0
C83 C 1.02342 0.09626 0.37867 0.0
O84 O 0.97295 0.04696 0.48468 0.0
O85 O 0.0642 0.11026 0.49079 0.0
O86 O 0.07634 0.1161 0.39895 0.0
O87 O 0.98252 0.05544 0.39429 0.0
H88 H 0.96523 0.16199 0.45226 0.0
H89 H 0.89141 0.23477 0.46206 0.0
H90 H 0.87081 0.19847 0.57829 0.0
H91 H 0.9457 0.12612 0.56861 0.0
H92 H 0.20508 0.8887 0.53824 0.0
H93 H 0.14954 0.96194 0.51023 0.0
H94 H 0.21383 0.80047 0.43035 0.0
H95 H 0.15849 0.87268 0.40266 0.0
H96 H 0.11325 1.00145 0.27748 0.0
H97 H 0.98858 0.12767 0.25542 0.0
H98 H 0.97457 0.14754 0.3227 0.0
H99 H 0.09897 1.02116 0.34509 0.0
C100 C 0.92391 0.91907 0.55025 0.0
C101 C 0.91647 0.87439 0.57491 0.0
C102 C 0.82193 0.82356 0.5394 0.0
C103 C 0.86615 0.82693 0.5694 0.0
C104 C 0.82961 0.86793 0.51454 0.0
C105 C 0.88035 0.91528 0.5199 0.0
U106 U 1.01842 0.02539 0.62002 0.0
O107 O 0.12309 0.06843 0.62301 0.0
O108 O 0.04138 0.11987 0.62286 0.0
C109 C 0.10647 0.12003 0.6232 0.0
C110 C 0.97338 0.97137 0.5576 0.0
C111 C 0.14907 0.16329 0.60147 0.0
C112 C 0.23378 0.19025 0.55374 0.0
C113 C 0.18621 0.14857 0.56984 0.0
C114 C 0.20574 0.2618 0.59974 0.0
C115 C 0.2449 0.24684 0.56924 0.0
C116 C 0.15823 0.22045 0.61563 0.0
C117 C 0.97707 0.99575 0.72297 0.0
C118 C 0.04403 0.03181 0.77729 0.0
C119 C 0.92834 0.98743 0.78511 0.0
C120 C 0.92226 0.97861 0.74649 0.0
C121 C 0.98948 1.01339 0.80079 0.0
C122 C 0.03783 1.02321 0.73855 0.0
C123 C 0.9699 0.98266 0.68258 0.0
O124 O 0.94832 1.01513 0.57304 0.0
O125 O 0.02989 0.96395 0.57287 0.0
O126 O 1.02201 0.96661 0.66489 0.0
O127 O 0.94103 1.01848 0.66426 0.0
H128 H 0.94876 0.87664 0.59886 0.0
H129 H 0.86081 0.79327 0.58897 0.0
H130 H 0.79574 0.86621 0.49135 0.0
H131 H 0.88466 0.94948 0.50079 0.0
H132 H 0.26364 0.17797 0.53018 0.0
H133 H 0.18013 0.10472 0.55843 0.0
H134 H 0.21359 0.30517 0.61205 0.0
H135 H 0.13045 0.23272 0.64007 0.0
H136 H 0.09159 0.05184 0.78899 0.0
H137 H 0.88582 0.97292 0.80286 0.0
H138 H 0.87499 0.95748 0.73496 0.0
H139 H 0.08065 0.03705 0.72085 0.0
C140 C 0.46078 0.63853 1.00974 0.0
C141 C 0.44412 0.66921 0.97985 0.0
C142 C 0.37561 0.72197 0.02103 0.0
C143 C 0.40201 0.71061 0.98546 0.0
C144 C 0.39235 0.69144 0.05101 0.0
C145 C 0.43488 0.65012 0.0454 0.0
U146 U 0.5498 0.55096 0.94067 0.0
O147 O 0.6466 0.51914 0.94051 0.0
O148 O 0.55296 0.45824 0.93341 0.0
C149 C 0.61867 0.46521 0.93548 0.0
C150 C 0.50248 0.59293 1.00306 0.0
C151 C 0.6484 0.42181 0.9546 0.0
C152 C 0.69785 0.38664 1.00834 0.0
C153 C 0.66583 0.42804 0.99246 0.0
C154 C 0.69469 0.33278 0.94884 0.0
C155 C 0.71302 0.33894 0.98645 0.0
C156 C 0.66264 0.37372 0.93314 0.0
C157 C 0.53488 0.58541 0.8386 0.0
C158 C 0.58246 0.53331 0.78713 0.0
C159 C 0.51201 0.6041 0.77479 0.0
C160 C 0.50417 0.61536 0.81305 0.0
C161 C 0.55079 0.56281 0.76161 0.0
C162 C 0.57444 0.5445 0.82551 0.0
C163 C 0.52263 0.59581 0.87861 0.0
O164 O 0.47233 0.54673 0.98467 0.0
O165 O 0.5637 0.60989 0.99069 0.0
O166 O 0.57567 0.61553 0.89883 0.0
O167 O 0.48166 0.55509 0.89429 0.0
H168 H 0.46325 0.66071 0.95206 0.0
H169 H 0.38962 0.73362 0.96198 0.0
H170 H 0.3724 0.69956 0.07864 0.0
H171 H 0.44698 0.62697 0.06881 0.0
H172 H 0.71135 0.392 0.03749 0.0
H173 H 0.65536 0.46492 1.00949 0.0
H174 H 0.70567 0.29632 0.93153 0.0
H175 H 0.64978 0.36822 0.90387 0.0
H176 H 0.61227 0.50111 0.77731 0.0
H177 H 0.48708 0.62702 0.75542 0.0
H178 H 0.47328 0.64686 0.82272 0.0
H179 H 0.59819 0.5208 0.84494 0.0
C180 C 0.4246 0.4192 0.05008 0.0
C181 C 0.41726 0.37451 0.07474 0.0
C182 C 0.32275 0.32358 0.03925 0.0
C183 C 0.36702 0.32699 0.06924 0.0
C184 C 0.33034 0.36794 0.01439 0.0
C185 C 0.38101 0.41535 0.01974 0.0
U186 U 0.51888 0.52543 0.11994 0.0
O187 O 0.6235 0.56857 0.12301 0.0
O188 O 0.54169 0.61991 0.12295 0.0
C189 C 0.60679 0.62015 0.1233 0.0
C190 C 0.47396 0.47156 0.05746 0.0
C191 C 0.64935 0.66355 0.10166 0.0
C192 C 0.73378 0.69081 0.05385 0.0
C193 C 0.68627 0.64903 0.0699 0.0
C194 C 0.70611 0.76205 0.10017 0.0
C195 C 0.74506 0.74729 0.06953 0.0
C196 C 0.65866 0.72062 0.11601 0.0
C197 C 0.47751 0.49538 0.2228 0.0
C198 C 0.5443 0.53178 0.27712 0.0
C199 C 0.42889 0.48666 0.28495 0.0
C200 C 0.42283 0.47786 0.24632 0.0
C201 C 0.48988 0.51299 0.30062 0.0
C202 C 0.53811 0.5232 0.23837 0.0
C203 C 0.47037 0.4824 0.1824 0.0
O204 O 0.44881 0.51524 0.07295 0.0
O205 O 0.53052 0.46421 0.07269 0.0
O206 O 0.52254 0.46649 0.16471 0.0
O207 O 0.44144 0.51824 0.16415 0.0
H208 H 0.44957 0.3768 0.09868 0.0
H209 H 0.36174 0.29334 0.0888 0.0
H210 H 0.29644 0.36619 0.99121 0.0
H211 H 0.38522 0.44954 1.00064 0.0
H212 H 0.76348 0.67868 0.03018 0.0
H213 H 0.68007 0.60526 0.05834 0.0
H214 H 0.71407 0.80534 0.11262 0.0
H215 H 0.63104 0.73272 0.14056 0.0
H216 H 0.59174 0.5521 0.28881 0.0
H217 H 0.38648 0.47186 0.3027 0.0
H218 H 0.37568 0.45645 0.23479 0.0
H219 H 0.58082 0.53734 0.22067 0.0
C220 C 0.16619 0.21796 0.06126 0.0
C221 C 0.1645 0.17765 0.03031 0.0
C222 C 0.26804 0.23203 1.00554 0.0
C223 C 0.26679 0.27447 0.03499 0.0
N224 N 0.2065 0.31432 0.08604 0.0
N225 N 0.20537 0.15273 0.96902 0.0
C226 C 0.21327 0.26941 0.06136 0.0
C227 C 0.21302 0.18657 1.00125 0.0
N228 N 0.12552 0.20589 0.09156 0.0
N229 N 0.32289 0.23387 0.98252 0.0
H230 H 0.16492 0.11989 0.96453 0.0
H231 H 0.23532 0.16074 0.94541 0.0
H232 H 0.36422 0.26636 0.9848 0.0
H233 H 0.3299 0.20074 0.96323 0.0
H234 H 0.13023 0.23068 0.11654 0.0
H235 H 0.09126 0.16827 0.09323 0.0
H236 H 0.1646 0.31534 0.10327 0.0
H237 H 0.23964 0.35292 0.0868 0.0
C238 C 0.31096 0.86324 0.04534 0.0
C239 C 0.2496 0.8534 0.02592 0.0
C240 C 0.26396 0.75339 1.01171 0.0
C241 C 0.32988 0.76567 0.02629 0.0
N242 N 0.41848 0.83326 0.05525 0.0
N243 N 0.16854 0.79121 0.98845 0.0
C244 C 0.35379 0.82071 0.04315 0.0
C245 C 0.22583 0.79873 1.00892 0.0
N246 N 0.32783 0.91367 0.06582 0.0
N247 N 0.23772 0.69821 1.00092 0.0
H248 H 0.13933 0.82352 0.98636 0.0
H249 H 0.15223 0.75449 0.9717 0.0
H250 H 0.26434 0.66409 1.00275 0.0
H251 H 0.18792 0.68545 0.99329 0.0
H252 H 0.36887 0.92221 0.08349 0.0
H253 H 0.29687 0.94518 0.06756 0.0
H254 H 0.44123 0.87428 0.06403 0.0
H255 H 0.45128 0.80328 0.05425 0.0
C256 C 0.91219 0.84664 0.06824 0.0
C257 C 0.90106 0.88468 0.04052 0.0
C258 C 0.78869 0.82945 0.02936 0.0
C259 C 0.80084 0.79069 0.05619 0.0
N260 N 0.87866 0.75464 0.0952 0.0
N261 N 0.83532 0.90487 0.98895 0.0
C262 C 0.86425 0.79673 0.07353 0.0
C263 C 0.84116 0.87386 0.01936 0.0
N264 N 0.9661 0.85993 0.09136 0.0
N265 N 0.72638 0.82474 0.01419 0.0
H266 H 0.87307 0.93694 0.98039 0.0
H267 H 0.79596 0.8954 0.97019 0.0
H268 H 0.6878 0.79134 0.01968 0.0
H269 H 0.71168 0.85562 0.99798 0.0
H270 H 0.97213 0.83768 0.11493 0.0
H271 H 1.00212 0.8963 0.08932 0.0
H272 H 0.92644 0.75325 0.10515 0.0
H273 H 0.84425 0.71821 0.10052 0.0
C274 C 0.84992 0.26417 0.02532 0.0
C275 C 0.81604 0.20701 0.02565 0.0
C276 C 0.71236 0.23867 1.00652 0.0
C277 C 0.74794 0.29471 1.00232 0.0
N278 N 0.85336 0.35897 1.00223 0.0
N279 N 0.71886 0.13767 1.01032 0.0
C280 C 0.81757 0.30706 1.01028 0.0
C281 C 0.74818 0.1937 0.01458 0.0
N282 N 0.91211 0.27779 0.04066 0.0
N283 N 0.64407 0.22874 1.00368 0.0
H284 H 0.74459 0.10381 0.01489 0.0
H285 H 0.67159 0.12466 0.99885 0.0
H286 H 0.61612 0.26081 0.99825 0.0
H287 H 0.61474 0.19021 1.01013 0.0
H288 H 0.93685 0.31969 0.04473 0.0
H289 H 0.93649 0.24748 0.05239 0.0
H290 H 0.90544 0.36813 1.00357 0.0
H291 H 0.83158 0.39151 0.99132 0.0
C292 C 0.71228 0.68656 0.50131 0.0
C293 C 0.66372 0.6776 0.53034 0.0
C294 C 0.71239 0.76936 0.56144 0.0
C295 C 0.76596 0.77446 0.5351 0.0
N296 N 0.82217 0.73391 0.48264 0.0
N297 N 0.62454 0.70583 0.59155 0.0
C298 C 0.76728 0.73204 0.50564 0.0
C299 C 0.66531 0.71791 0.56129 0.0
N300 N 0.7047 0.65275 0.46907 0.0
N301 N 0.70558 0.81425 0.58613 0.0
H302 H 0.59025 0.66821 0.59318 0.0
H303 H 0.62916 0.7306 0.61654 0.0
H304 H 0.73871 0.85285 0.58691 0.0
H305 H 0.66365 0.81526 0.60334 0.0
H306 H 0.73468 0.6608 0.44548 0.0
H307 H 0.66428 0.61988 0.46456 0.0
H308 H 0.82921 0.70079 0.46335 0.0
H309 H 0.86348 0.7664 0.48494 0.0
C310 C 0.72637 0.29907 0.50797 0.0
C311 C 0.74939 0.35326 0.52583 0.0
C312 C 0.85293 0.32017 0.54377 0.0
C313 C 0.82976 0.26557 0.52606 0.0
N314 N 0.73869 0.19874 0.49897 0.0
N315 N 0.82598 0.41248 0.56715 0.0
C316 C 0.76444 0.25365 0.51064 0.0
C317 C 0.80996 0.3626 0.54597 0.0
N318 N 0.66989 0.2921 0.48685 0.0
N319 N 0.91712 0.33246 0.55666 0.0
H320 H 0.79495 0.44393 0.56887 0.0
H321 H 0.86629 0.42055 0.58533 0.0
H322 H 0.95004 0.30258 0.55562 0.0
H323 H 0.93945 0.37326 0.56614 0.0
H324 H 0.6543 0.25588 0.46951 0.0
H325 H 0.64068 0.32444 0.48487 0.0
H326 H 0.68922 0.18617 0.49066 0.0
H327 H 0.76523 0.16456 0.50072 0.0
C328 C 0.41199 0.34624 0.56805 0.0
C329 C 0.40099 0.38414 0.54021 0.0
C330 C 0.28875 0.32875 0.52891 0.0
C331 C 0.30076 0.29016 0.55589 0.0
N332 N 0.37837 0.25439 0.59517 0.0
N333 N 0.33555 0.40402 0.48843 0.0
C334 C 0.36407 0.29634 0.57336 0.0
C335 C 0.34123 0.37315 0.51892 0.0
N336 N 0.46577 0.35969 0.59125 0.0
N337 N 0.22655 0.32388 0.51359 0.0
H338 H 0.37333 0.43609 0.47989 0.0
H339 H 0.29632 0.39444 0.46959 0.0
H340 H 0.18797 0.29046 0.51906 0.0
H341 H 0.21191 0.35463 0.49725 0.0
H342 H 0.47168 0.33757 0.6149 0.0
H343 H 0.50178 0.39605 0.58919 0.0
H344 H 0.4261 0.25309 0.60523 0.0
H345 H 0.34396 0.21797 0.60051 0.0
C346 C 0.34877 0.7641 0.52683 0.0
C347 C 0.31563 0.70662 0.52537 0.0
C348 C 0.213 0.73811 0.50446 0.0
C349 C 0.24811 0.79475 0.50218 0.0
N350 N 0.35244 0.86032 0.50601 0.0
N351 N 0.22052 0.63706 0.5069 0.0
C352 C 0.31691 0.80748 0.51203 0.0
C353 C 0.24878 0.69315 0.51262 0.0
N354 N 0.40975 0.77743 0.54361 0.0
N355 N 0.1451 0.72757 0.49969 0.0
H356 H 0.24629 0.60329 0.51166 0.0
H357 H 0.17432 0.62403 0.49418 0.0
H358 H 0.11717 0.75958 0.49407 0.0
H359 H 0.11571 0.68842 0.50468 0.0
H360 H 0.43371 0.8193 0.54904 0.0
H361 H 0.43379 0.74666 0.55506 0.0
H362 H 0.40427 0.87013 0.50874 0.0
H363 H 0.33089 0.89327 0.49545 0.0
C364 C 0.11107 0.06735 0.16022 0.0
C365 C 0.05403 0.03482 0.14252 0.0
C366 C 1.00338 1.01155 0.20346 0.0
C367 C 0.05643 0.04949 0.22098 0.0
N368 N 0.15922 0.11609 0.2171 0.0
N369 N 0.94365 0.97871 0.14648 0.0
C370 C 0.11033 0.07766 0.19967 0.0
C371 C 0.99966 1.00744 0.16394 0.0
N372 N 0.16552 0.08886 0.13928 0.0
N373 N 0.95714 0.97878 0.22475 0.0
H374 H 0.94002 0.97223 0.11763 0.0
H375 H 0.89909 0.96406 0.16035 0.0
H376 H 0.95794 0.98121 0.25382 0.0
H377 H 0.92136 0.94581 0.21384 0.0
H378 H 0.21129 0.10776 0.15056 0.0
H379 H 0.16666 0.08467 0.11025 0.0
H380 H 0.19568 0.14325 0.20309 0.0
H381 H 0.16122 0.12333 0.24599 0.0
C382 C 0.99842 0.97125 0.90095 0.0
C383 C 1.00786 0.02574 0.92047 0.0
C384 C 0.99988 0.07219 0.8617 0.0
C385 C 0.99706 1.01821 0.84197 0.0
N386 N 1.00639 0.91778 0.84201 0.0
N387 N 0.02968 0.12892 0.91895 0.0
C388 C 1.00001 0.96811 0.86138 0.0
C389 C 1.01171 0.07655 0.90076 0.0
N390 N 0.98509 0.92237 0.92013 0.0
N391 N 0.9895 0.11899 0.84331 0.0
H392 H 0.03991 0.13402 0.94738 0.0
H393 H 0.0404 0.16702 0.90531 0.0
H394 H 0.98121 0.1175 0.81468 0.0
H395 H 0.98361 0.15802 0.85683 0.0
H396 H 0.97048 0.88187 0.90728 0.0
H397 H 0.98212 0.92259 0.94912 0.0
H398 H 1.01622 0.88151 0.85469 0.0
H399 H 1.0081 0.9137 0.81297 0.0
C400 C 0.49863 0.50708 0.66379 0.0
C401 C 0.55298 0.53458 0.64242 0.0
C402 C 0.60908 0.57744 0.69963 0.0
C403 C 0.55521 0.54912 0.72089 0.0
N404 N 0.45605 0.47826 0.72457 0.0
N405 N 0.66437 0.58884 0.63928 0.0
C406 C 0.50226 0.51113 0.70332 0.0
C407 C 0.60992 0.56719 0.66017 0.0
N408 N 0.4427 0.47828 0.64629 0.0
N409 N 0.65784 0.61595 0.7171 0.0
H410 H 0.66557 0.58474 0.61025 0.0
H411 H 0.71009 0.6078 0.65059 0.0
H412 H 0.65977 0.62316 0.746 0.0
H413 H 0.69424 0.64321 0.70312 0.0
H414 H 0.39814 0.46351 0.66012 0.0
H415 H 0.43915 0.47183 0.61743 0.0
H416 H 0.42035 0.44526 0.71361 0.0
H417 H 0.4568 0.48064 0.75364 0.0
C418 C 0.51166 0.57619 0.40059 0.0
C419 C 0.5081 0.5254 0.4203 0.0
C420 C 0.50077 0.46781 0.3612 0.0
C421 C 0.49747 0.51784 0.3418 0.0
N422 N 0.48916 0.61849 0.34314 0.0
N423 N 0.48595 0.422 0.41992 0.0
C424 C 0.49988 0.57179 0.36153 0.0
C425 C 0.49905 0.47092 0.40076 0.0
N426 N 0.5293 0.62859 0.41879 0.0
N427 N 0.50759 0.41758 0.34183 0.0
H428 H 0.48284 0.42219 0.44891 0.0
H429 H 0.47165 0.38147 0.40705 0.0
H430 H 0.50942 0.41354 0.31279 0.0
H431 H 0.51767 0.38139 0.35452 0.0
H432 H 0.5398 0.66671 0.40516 0.0
H433 H 0.53951 0.63374 0.44722 0.0
H434 H 0.48296 0.65744 0.35667 0.0
H435 H 0.48089 0.61697 0.31451 0.0
loop_
_geom_bond_atom_site_label_1
_geom_bond_atom_site_label_2
_geom_bond_distance
_geom_bond_site_symmetry_2
_ccdc_geom_bond_type
Co0 N5 2.057 . S
Co0 O17 2.021 . S
Co0 O20 2.062 1_455 S
Co0 O24 2.117 1_554 S
Co0 O25 2.020 1_565 S
C1 O21 1.259 1_455 S
C1 O24 1.258 1_545 S
Co2 N11 2.057 . S
Co2 O18 2.117 . S
Co2 O19 2.020 1_545 S
Co2 O21 2.021 1_554 S
Co2 O26 2.062 1_655 S
C3 N5 1.316 . S
C3 N6 1.347 . S
C3 H8 0.931 . S
C4 N5 1.375 1_556 S
C4 C7 1.350 . S
C4 H9 0.930 . S
N5 Co0 2.057 . S
N5 C3 1.316 . S
N5 C4 1.375 1_554 S
N6 C3 1.347 . S
N6 C7 1.373 1_554 S
C7 C4 1.350 . S
C7 N6 1.373 1_556 S
C7 H28 0.931 . S
H8 C3 0.931 . S
H9 C4 0.930 . S
C10 O17 1.259 1_545 S
C10 O18 1.258 1_455 S
N11 Co2 2.057 . S
N11 C12 1.316 . S
N11 C13 1.375 . S
C12 N11 1.316 . S
C12 N14 1.347 . S
C12 H23 0.931 1_554 S
C13 N11 1.375 . S
C13 C15 1.350 . S
C13 H22 0.930 . S
N14 C12 1.347 . S
N14 C15 1.373 . S
C15 C13 1.350 . S
C15 N14 1.373 . S
C15 H29 0.931 . S
C16 O19 1.256 . S
C16 O20 1.255 . S
O17 Co0 2.021 . S
O17 C10 1.259 1_565 S
O18 Co2 2.117 . S
O18 C10 1.258 1_655 S
O19 Co2 2.020 1_565 S
O19 C16 1.256 . S
O20 Co0 2.062 1_655 S
O20 C16 1.255 . S
O21 C1 1.259 1_655 S
O21 Co2 2.021 1_556 S
H22 C13 0.930 . S
H23 C12 0.931 1_556 S
O24 Co0 2.117 1_556 S
O24 C1 1.258 1_565 S
O25 Co0 2.020 1_545 S
O25 C27 1.256 . S
O26 Co2 2.062 1_455 S
O26 C27 1.255 . S
C27 O25 1.256 . S
C27 O26 1.255 . S
H28 C7 0.931 . S
H29 C15 0.931 . S
Co30 N35 2.057 . S
Co30 O47 2.021 . S
Co30 O50 2.062 . S
Co30 O54 2.117 . S
Co30 O55 2.020 . S
C31 O51 1.259 . S
C31 O54 1.258 . S
Co32 N41 2.057 . S
Co32 O48 2.117 . S
Co32 O49 2.020 . S
Co32 O51 2.021 . S
Co32 O56 2.062 . S
C33 N35 1.316 . S
C33 N36 1.347 . S
C33 H38 0.931 . S
C34 N35 1.375 . S
C34 C37 1.350 . S
C34 H39 0.930 . S
N35 Co30 2.057 . S
N35 C33 1.316 . S
N35 C34 1.375 . S
N36 C33 1.347 . S
N36 C37 1.373 . S
C37 C34 1.350 . S
C37 N36 1.373 . S
C37 H58 0.931 . S
H38 C33 0.931 . S
H39 C34 0.930 . S
C40 O47 1.259 . S
C40 O48 1.258 . S
N41 Co32 2.057 . S
N41 C42 1.316 . S
N41 C43 1.375 . S
C42 N41 1.316 . S
C42 N44 1.347 . S
C42 H53 0.931 . S
C43 N41 1.375 . S
C43 C45 1.350 . S
C43 H52 0.930 . S
N44 C42 1.347 . S
N44 C45 1.373 . S
C45 C43 1.350 . S
C45 N44 1.373 . S
C45 H59 0.931 . S
C46 O49 1.256 . S
C46 O50 1.255 . S
O47 Co30 2.021 . S
O47 C40 1.259 . S
O48 Co32 2.117 . S
O48 C40 1.258 . S
O49 Co32 2.020 . S
O49 C46 1.256 . S
O50 Co30 2.062 . S
O50 C46 1.255 . S
O51 C31 1.259 . S
O51 Co32 2.021 . S
H52 C43 0.930 . S
H53 C42 0.931 . S
O54 Co30 2.117 . S
O54 C31 1.258 . S
O55 Co30 2.020 . S
O55 C57 1.256 . S
O56 Co32 2.062 . S
O56 C57 1.255 . S
C57 O55 1.256 . S
C57 O56 1.255 . S
H58 C37 0.931 . S
H59 C45 0.931 . S
C60 C61 1.264 . S
C60 C65 1.479 . S
C60 C70 1.465 . S
C61 C60 1.264 . S
C61 C63 1.339 . S
C61 H88 0.931 . S
C62 C63 1.395 . S
C62 C64 1.320 . S
C63 C61 1.339 . S
C63 C62 1.395 . S
C63 H89 0.929 . S
C64 C62 1.320 . S
C64 C65 1.405 . S
C64 H90 0.930 . S
C65 C60 1.479 . S
C65 C64 1.405 . S
C65 H91 0.931 . S
U66 O67 2.454 1_545 S
U66 O68 2.458 1_545 S
U66 C69 2.984 1_545 S
U66 C70 2.847 1_455 S
U66 C83 2.882 . S
U66 O84 2.441 1_455 S
U66 O85 2.420 1_455 S
U66 O86 2.455 1_545 S
U66 O87 2.449 . S
O67 U66 2.454 1_565 S
O67 C69 1.353 . S
O68 U66 2.458 1_565 S
O68 C69 1.286 . S
C69 U66 2.984 1_565 S
C69 O67 1.353 . S
C69 O68 1.286 . S
C69 C71 1.363 . S
C70 C60 1.465 . S
C70 U66 2.847 1_655 S
C70 O84 1.249 . S
C70 O85 1.202 . S
C71 C69 1.363 . S
C71 C73 1.408 . S
C71 C76 1.342 . S
C72 C73 1.310 . S
C72 C75 1.461 . S
C72 H92 0.932 . S
C73 C71 1.408 . S
C73 C72 1.310 . S
C73 H93 0.930 . S
C74 C75 1.474 . S
C74 C76 1.285 . S
C74 H94 0.929 . S
C75 C72 1.461 . S
C75 C74 1.474 . S
C76 C71 1.342 . S
C76 C74 1.285 . S
C76 H95 0.930 . S
C77 C80 1.424 1_455 S
C77 C82 1.245 1_545 S
C77 C83 1.428 . S
C78 C81 1.260 1_565 S
C78 C82 1.477 . S
C78 H96 0.932 . S
C79 C80 1.384 . S
C79 C81 1.479 1_655 S
C79 H97 0.929 . S
C80 C77 1.424 1_655 S
C80 C79 1.384 . S
C80 H98 0.928 . S
C81 C78 1.260 1_545 S
C81 C79 1.479 1_455 S
C82 C77 1.245 1_565 S
C82 C78 1.477 . S
C82 H99 0.932 . S
C83 U66 2.882 . S
C83 C77 1.428 . S
C83 O86 1.301 1_545 S
C83 O87 1.282 . S
O84 U66 2.441 1_655 S
O84 C70 1.249 . S
O85 U66 2.420 1_655 S
O85 C70 1.202 . S
O86 U66 2.455 1_565 S
O86 C83 1.301 1_565 S
O87 U66 2.449 . S
O87 C83 1.282 . S
H88 C61 0.931 . S
H89 C63 0.929 . S
H90 C64 0.930 . S
H91 C65 0.931 . S
H92 C72 0.932 . S
H93 C73 0.930 . S
H94 C74 0.929 . S
H95 C76 0.930 . S
H96 C78 0.932 . S
H97 C79 0.929 . S
H98 C80 0.928 . S
H99 C82 0.932 . S
C100 C101 1.264 . S
C100 C105 1.479 . S
C100 C110 1.465 . S
C101 C100 1.264 . S
C101 C103 1.339 . S
C101 H128 0.931 . S
C102 C103 1.395 . S
C102 C104 1.320 . S
C103 C101 1.339 . S
C103 C102 1.395 . S
C103 H129 0.929 . S
C104 C102 1.320 . S
C104 C105 1.405 . S
C104 H130 0.930 . S
C105 C100 1.479 . S
C105 C104 1.405 . S
C105 H131 0.931 . S
U106 O107 2.454 1_565 S
U106 O108 2.458 1_565 S
U106 C109 2.984 1_565 S
U106 C110 2.847 1_455 S
U106 C123 2.882 . S
U106 O124 2.441 1_455 S
U106 O125 2.420 1_455 S
U106 O126 2.455 1_565 S
U106 O127 2.449 . S
O107 U106 2.454 1_545 S
O107 C109 1.353 . S
O108 U106 2.458 1_545 S
O108 C109 1.286 . S
C109 U106 2.984 1_545 S
C109 O107 1.353 . S
C109 O108 1.286 . S
C109 C111 1.363 . S
C110 C100 1.465 . S
C110 U106 2.847 1_655 S
C110 O124 1.249 . S
C110 O125 1.202 . S
C111 C109 1.363 . S
C111 C113 1.408 . S
C111 C116 1.342 . S
C112 C113 1.310 . S
C112 C115 1.461 . S
C112 H132 0.932 . S
C113 C111 1.408 . S
C113 C112 1.310 . S
C113 H133 0.930 . S
C114 C115 1.474 . S
C114 C116 1.285 . S
C114 H134 0.929 . S
C115 C112 1.461 . S
C115 C114 1.474 . S
C116 C111 1.342 . S
C116 C114 1.285 . S
C116 H135 0.930 . S
C117 C120 1.424 1_445 S
C117 C122 1.245 . S
C117 C123 1.428 1_545 S
C118 C121 1.260 . S
C118 C122 1.477 . S
C118 H136 0.932 . S
C119 C120 1.384 . S
C119 C121 1.479 1_665 S
C119 H137 0.929 . S
C120 C117 1.424 1_665 S
C120 C119 1.384 . S
C120 H138 0.928 . S
C121 C118 1.260 . S
C121 C119 1.479 1_445 S
C122 C117 1.245 . S
C122 C118 1.477 . S
C122 H139 0.932 . S
C123 U106 2.882 . S
C123 C117 1.428 1_565 S
C123 O126 1.301 1_565 S
C123 O127 1.282 . S
O124 U106 2.441 1_655 S
O124 C110 1.249 . S
O125 U106 2.420 1_655 S
O125 C110 1.202 . S
O126 U106 2.455 1_545 S
O126 C123 1.301 1_545 S
O127 U106 2.449 . S
O127 C123 1.282 . S
H128 C101 0.931 . S
H129 C103 0.929 . S
H130 C104 0.930 . S
H131 C105 0.931 . S
H132 C112 0.932 . S
H133 C113 0.930 . S
H134 C114 0.929 . S
H135 C116 0.930 . S
H136 C118 0.932 . S
H137 C119 0.929 . S
H138 C120 0.928 . S
H139 C122 0.932 . S
C140 C141 1.264 . S
C140 C145 1.479 1_556 S
C140 C150 1.465 . S
C141 C140 1.264 . S
C141 C143 1.339 . S
C141 H168 0.931 . S
C142 C143 1.395 1_554 S
C142 C144 1.320 . S
C143 C141 1.339 . S
C143 C142 1.395 1_556 S
C143 H169 0.929 . S
C144 C142 1.320 . S
C144 C145 1.405 . S
C144 H170 0.930 . S
C145 C140 1.479 1_554 S
C145 C144 1.405 . S
C145 H171 0.931 . S
U146 O147 2.454 . S
U146 O148 2.458 . S
U146 C149 2.984 . S
U146 C150 2.847 . S
U146 C163 2.882 . S
U146 O164 2.441 . S
U146 O165 2.420 . S
U146 O166 2.455 . S
U146 O167 2.449 . S
O147 U146 2.454 . S
O147 C149 1.353 . S
O148 U146 2.458 . S
O148 C149 1.286 . S
C149 U146 2.984 . S
C149 O147 1.353 . S
C149 O148 1.286 . S
C149 C151 1.363 . S
C150 C140 1.465 . S
C150 U146 2.847 . S
C150 O164 1.249 . S
C150 O165 1.202 . S
C151 C149 1.363 . S
C151 C153 1.408 1_556 S
C151 C156 1.342 . S
C152 C153 1.310 . S
C152 C155 1.461 . S
C152 H172 0.932 . S
C153 C151 1.408 1_554 S
C153 C152 1.310 . S
C153 H173 0.930 . S
C154 C155 1.474 1_556 S
C154 C156 1.285 . S
C154 H174 0.929 . S
C155 C152 1.461 . S
C155 C154 1.474 1_554 S
C156 C151 1.342 . S
C156 C154 1.285 . S
C156 H175 0.930 . S
C157 C160 1.424 . S
C157 C162 1.245 . S
C157 C163 1.428 . S
C158 C161 1.260 . S
C158 C162 1.477 . S
C158 H176 0.932 . S
C159 C160 1.384 . S
C159 C161 1.479 . S
C159 H177 0.929 . S
C160 C157 1.424 . S
C160 C159 1.384 . S
C160 H178 0.928 . S
C161 C158 1.260 . S
C161 C159 1.479 . S
C162 C157 1.245 . S
C162 C158 1.477 . S
C162 H179 0.932 . S
C163 U146 2.882 . S
C163 C157 1.428 . S
C163 O166 1.301 . S
C163 O167 1.282 . S
O164 U146 2.441 . S
O164 C150 1.249 . S
O165 U146 2.420 . S
O165 C150 1.202 . S
O166 U146 2.455 . S
O166 C163 1.301 . S
O167 U146 2.449 . S
O167 C163 1.282 . S
H168 C141 0.931 . S
H169 C143 0.929 . S
H170 C144 0.930 . S
H171 C145 0.931 . S
H172 C152 0.932 . S
H173 C153 0.930 . S
H174 C154 0.929 . S
H175 C156 0.930 . S
H176 C158 0.932 . S
H177 C159 0.929 . S
H178 C160 0.928 . S
H179 C162 0.932 . S
C180 C181 1.264 . S
C180 C185 1.479 . S
C180 C190 1.465 . S
C181 C180 1.264 . S
C181 C183 1.339 . S
C181 H208 0.931 . S
C182 C183 1.395 . S
C182 C184 1.320 1_554 S
C183 C181 1.339 . S
C183 C182 1.395 . S
C183 H209 0.929 . S
C184 C182 1.320 1_556 S
C184 C185 1.405 1_556 S
C184 H210 0.930 . S
C185 C180 1.479 . S
C185 C184 1.405 1_554 S
C185 H211 0.931 1_554 S
U186 O187 2.454 . S
U186 O188 2.458 . S
U186 C189 2.984 . S
U186 C190 2.847 . S
U186 C203 2.882 . S
U186 O204 2.441 . S
U186 O205 2.420 . S
U186 O206 2.455 . S
U186 O207 2.449 . S
O187 U186 2.454 . S
O187 C189 1.353 . S
O188 U186 2.458 . S
O188 C189 1.286 . S
C189 U186 2.984 . S
C189 O187 1.353 . S
C189 O188 1.286 . S
C189 C191 1.363 . S
C190 C180 1.465 . S
C190 U186 2.847 . S
C190 O204 1.249 . S
C190 O205 1.202 . S
C191 C189 1.363 . S
C191 C193 1.408 . S
C191 C196 1.342 . S
C192 C193 1.310 1_556 S
C192 C195 1.461 1_556 S
C192 H212 0.932 . S
C193 C191 1.408 . S
C193 C192 1.310 1_554 S
C193 H213 0.930 1_554 S
C194 C195 1.474 . S
C194 C196 1.285 . S
C194 H214 0.929 . S
C195 C192 1.461 1_554 S
C195 C194 1.474 . S
C196 C191 1.342 . S
C196 C194 1.285 . S
C196 H215 0.930 . S
C197 C200 1.424 . S
C197 C202 1.245 . S
C197 C203 1.428 . S
C198 C201 1.260 . S
C198 C202 1.477 . S
C198 H216 0.932 . S
C199 C200 1.384 . S
C199 C201 1.479 . S
C199 H217 0.929 . S
C200 C197 1.424 . S
C200 C199 1.384 . S
C200 H218 0.928 . S
C201 C198 1.260 . S
C201 C199 1.479 . S
C202 C197 1.245 . S
C202 C198 1.477 . S
C202 H219 0.932 . S
C203 U186 2.882 . S
C203 C197 1.428 . S
C203 O206 1.301 . S
C203 O207 1.282 . S
O204 U186 2.441 . S
O204 C190 1.249 . S
O205 U186 2.420 . S
O205 C190 1.202 . S
O206 U186 2.455 . S
O206 C203 1.301 . S
O207 U186 2.449 . S
O207 C203 1.282 . S
H208 C181 0.931 . S
H209 C183 0.929 . S
H210 C184 0.930 . S
H211 C185 0.931 1_556 S
H212 C192 0.932 . S
H213 C193 0.930 1_556 S
H214 C194 0.929 . S
H215 C196 0.930 . S
H216 C198 0.932 . S
H217 C199 0.929 . S
H218 C200 0.928 . S
H219 C202 0.932 . S
C220 C221 1.363 . S
C220 C226 1.379 . S
C220 N228 1.356 . S
C221 C220 1.363 . S
C221 C227 1.363 1_554 S
C222 C223 1.363 1_556 S
C222 C227 1.379 . S
C222 N229 1.356 . S
C223 C222 1.363 1_554 S
C223 C226 1.363 . S
N224 C226 1.356 . S
N224 H236 0.984 . S
N224 H237 0.985 . S
N225 C227 1.356 . S
N225 H230 0.984 . S
N225 H231 0.985 . S
C226 C220 1.379 . S
C226 C223 1.363 . S
C226 N224 1.356 . S
C227 C221 1.363 1_556 S
C227 C222 1.379 . S
C227 N225 1.356 . S
N228 C220 1.356 . S
N228 H234 0.984 . S
N228 H235 0.984 . S
N229 C222 1.356 . S
N229 H232 0.984 . S
N229 H233 0.985 . S
H230 N225 0.984 . S
H231 N225 0.985 . S
H232 N229 0.984 . S
H233 N229 0.985 . S
H234 N228 0.984 . S
H235 N228 0.984 . S
H236 N224 0.984 . S
H237 N224 0.985 . S
C238 C239 1.363 . S
C238 C244 1.379 . S
C238 N246 1.356 . S
C239 C238 1.363 . S
C239 C245 1.364 . S
C240 C241 1.363 . S
C240 C245 1.379 . S
C240 N247 1.356 1_554 S
C241 C240 1.363 . S
C241 C244 1.363 . S
N242 C244 1.356 . S
N242 H254 0.984 . S
N242 H255 0.985 . S
N243 C245 1.355 1_556 S
N243 H248 0.984 . S
N243 H249 0.985 . S
C244 C238 1.379 . S
C244 C241 1.363 . S
C244 N242 1.356 . S
C245 C239 1.364 . S
C245 C240 1.379 . S
C245 N243 1.355 1_554 S
N246 C238 1.356 . S
N246 H252 0.984 . S
N246 H253 0.984 . S
N247 C240 1.356 1_556 S
N247 H250 0.984 . S
N247 H251 0.985 . S
H248 N243 0.984 . S
H249 N243 0.985 . S
H250 N247 0.984 . S
H251 N247 0.985 . S
H252 N246 0.984 . S
H253 N246 0.984 . S
H254 N242 0.984 . S
H255 N242 0.985 . S
C256 C257 1.363 . S
C256 C262 1.379 . S
C256 N264 1.356 . S
C257 C256 1.363 . S
C257 C263 1.363 1_554 S
C258 C259 1.363 1_556 S
C258 C263 1.379 . S
C258 N265 1.356 . S
C259 C258 1.363 1_554 S
C259 C262 1.363 . S
N260 C262 1.356 . S
N260 H272 0.984 . S
N260 H273 0.985 . S
N261 C263 1.356 . S
N261 H266 0.984 . S
N261 H267 0.985 . S
C262 C256 1.379 . S
C262 C259 1.363 . S
C262 N260 1.356 . S
C263 C257 1.363 1_556 S
C263 C258 1.379 . S
C263 N261 1.356 . S
N264 C256 1.356 . S
N264 H270 0.984 . S
N264 H271 0.984 . S
N265 C258 1.356 . S
N265 H268 0.984 . S
N265 H269 0.985 . S
H266 N261 0.984 . S
H267 N261 0.985 . S
H268 N265 0.984 . S
H269 N265 0.985 . S
H270 N264 0.984 . S
H271 N264 0.984 . S
H272 N260 0.984 . S
H273 N260 0.985 . S
C274 C275 1.363 1_556 S
C274 C280 1.379 1_556 S
C274 N282 1.356 . S
C275 C274 1.363 1_554 S
C275 C281 1.363 . S
C276 C277 1.363 . S
C276 C281 1.379 . S
C276 N283 1.356 . S
C277 C276 1.363 . S
C277 C280 1.363 . S
N278 C280 1.356 1_556 S
N278 H290 0.984 . S
N278 H291 0.985 . S
N279 C281 1.356 . S
N279 H284 0.984 . S
N279 H285 0.985 . S
C280 C274 1.379 1_554 S
C280 C277 1.363 . S
C280 N278 1.356 1_554 S
C281 C275 1.363 . S
C281 C276 1.379 . S
C281 N279 1.356 . S
N282 C274 1.356 . S
N282 H288 0.984 . S
N282 H289 0.984 . S
N283 C276 1.356 . S
N283 H286 0.984 . S
N283 H287 0.985 . S
H284 N279 0.984 . S
H285 N279 0.985 . S
H286 N283 0.984 . S
H287 N283 0.985 . S
H288 N282 0.984 . S
H289 N282 0.984 . S
H290 N278 0.984 . S
H291 N278 0.985 . S
C292 C293 1.363 . S
C292 C298 1.379 . S
C292 N300 1.356 . S
C293 C292 1.363 . S
C293 C299 1.363 . S
C294 C295 1.363 . S
C294 C299 1.379 . S
C294 N301 1.356 . S
C295 C294 1.363 . S
C295 C298 1.363 . S
N296 C298 1.356 . S
N296 H308 0.984 . S
N296 H309 0.985 . S
N297 C299 1.356 . S
N297 H302 0.984 . S
N297 H303 0.985 . S
C298 C292 1.379 . S
C298 C295 1.363 . S
C298 N296 1.356 . S
C299 C293 1.363 . S
C299 C294 1.379 . S
C299 N297 1.356 . S
N300 C292 1.356 . S
N300 H306 0.984 . S
N300 H307 0.984 . S
N301 C294 1.356 . S
N301 H304 0.984 . S
N301 H305 0.985 . S
H302 N297 0.984 . S
H303 N297 0.985 . S
H304 N301 0.984 . S
H305 N301 0.985 . S
H306 N300 0.984 . S
H307 N300 0.984 . S
H308 N296 0.984 . S
H309 N296 0.985 . S
C310 C311 1.363 . S
C310 C316 1.379 . S
C310 N318 1.356 . S
C311 C310 1.363 . S
C311 C317 1.363 . S
C312 C313 1.363 . S
C312 C317 1.379 . S
C312 N319 1.356 . S
C313 C312 1.363 . S
C313 C316 1.363 . S
N314 C316 1.356 . S
N314 H326 0.984 . S
N314 H327 0.985 . S
N315 C317 1.356 . S
N315 H320 0.984 . S
N315 H321 0.985 . S
C316 C310 1.379 . S
C316 C313 1.363 . S
C316 N314 1.356 . S
C317 C311 1.363 . S
C317 C312 1.379 . S
C317 N315 1.356 . S
N318 C310 1.356 . S
N318 H324 0.984 . S
N318 H325 0.984 . S
N319 C312 1.356 . S
N319 H322 0.984 . S
N319 H323 0.985 . S
H320 N315 0.984 . S
H321 N315 0.985 . S
H322 N319 0.984 . S
H323 N319 0.985 . S
H324 N318 0.984 . S
H325 N318 0.984 . S
H326 N314 0.984 . S
H327 N314 0.985 . S
C328 C329 1.363 . S
C328 C334 1.379 . S
C328 N336 1.356 . S
C329 C328 1.363 . S
C329 C335 1.363 . S
C330 C331 1.363 . S
C330 C335 1.379 . S
C330 N337 1.356 . S
C331 C330 1.363 . S
C331 C334 1.363 . S
N332 C334 1.356 . S
N332 H344 0.984 . S
N332 H345 0.985 . S
N333 C335 1.356 . S
N333 H338 0.984 . S
N333 H339 0.985 . S
C334 C328 1.379 . S
C334 C331 1.363 . S
C334 N332 1.356 . S
C335 C329 1.363 . S
C335 C330 1.379 . S
C335 N333 1.356 . S
N336 C328 1.356 . S
N336 H342 0.984 . S
N336 H343 0.984 . S
N337 C330 1.356 . S
N337 H340 0.984 . S
N337 H341 0.985 . S
H338 N333 0.984 . S
H339 N333 0.985 . S
H340 N337 0.984 . S
H341 N337 0.985 . S
H342 N336 0.984 . S
H343 N336 0.984 . S
H344 N332 0.984 . S
H345 N332 0.985 . S
C346 C347 1.363 . S
C346 C352 1.379 . S
C346 N354 1.356 . S
C347 C346 1.363 . S
C347 C353 1.363 . S
C348 C349 1.363 . S
C348 C353 1.379 . S
C348 N355 1.356 . S
C349 C348 1.363 . S
C349 C352 1.363 . S
N350 C352 1.356 . S
N350 H362 0.984 . S
N350 H363 0.985 . S
N351 C353 1.356 . S
N351 H356 0.984 . S
N351 H357 0.985 . S
C352 C346 1.379 . S
C352 C349 1.363 . S
C352 N350 1.356 . S
C353 C347 1.363 . S
C353 C348 1.379 . S
C353 N351 1.356 . S
N354 C346 1.356 . S
N354 H360 0.984 . S
N354 H361 0.984 . S
N355 C348 1.356 . S
N355 H358 0.984 . S
N355 H359 0.985 . S
H356 N351 0.984 . S
H357 N351 0.985 . S
H358 N355 0.984 . S
H359 N355 0.985 . S
H360 N354 0.984 . S
H361 N354 0.984 . S
H362 N350 0.984 . S
H363 N350 0.985 . S
C364 C365 1.363 . S
C364 C370 1.379 . S
C364 N372 1.356 . S
C365 C364 1.363 . S
C365 C371 1.363 1_445 S
C366 C367 1.363 1_665 S
C366 C371 1.379 . S
C366 N373 1.356 . S
C367 C366 1.363 1_445 S
C367 C370 1.363 . S
N368 C370 1.356 . S
N368 H380 0.984 . S
N368 H381 0.985 . S
N369 C371 1.356 . S
N369 H374 0.984 . S
N369 H375 0.985 . S
C370 C364 1.379 . S
C370 C367 1.363 . S
C370 N368 1.356 . S
C371 C365 1.363 1_665 S
C371 C366 1.379 . S
C371 N369 1.356 . S
N372 C364 1.356 . S
N372 H378 0.984 . S
N372 H379 0.984 . S
N373 C366 1.356 . S
N373 H376 0.984 . S
N373 H377 0.985 . S
H374 N369 0.984 . S
H375 N369 0.985 . S
H376 N373 0.984 . S
H377 N373 0.985 . S
H378 N372 0.984 . S
H379 N372 0.984 . S
H380 N368 0.984 . S
H381 N368 0.985 . S
C382 C383 1.363 1_565 S
C382 C388 1.379 . S
C382 N390 1.356 . S
C383 C382 1.363 1_545 S
C383 C389 1.363 1_455 S
C384 C385 1.363 1_655 S
C384 C389 1.379 . S
C384 N391 1.356 . S
C385 C384 1.363 1_455 S
C385 C388 1.363 1_545 S
N386 C388 1.356 . S
N386 H398 0.984 . S
N386 H399 0.985 . S
N387 C389 1.356 . S
N387 H392 0.984 . S
N387 H393 0.985 . S
C388 C382 1.379 . S
C388 C385 1.363 1_565 S
C388 N386 1.356 . S
C389 C383 1.363 1_655 S
C389 C384 1.379 . S
C389 N387 1.356 . S
N390 C382 1.356 . S
N390 H396 0.984 . S
N390 H397 0.984 . S
N391 C384 1.356 . S
N391 H394 0.984 . S
N391 H395 0.985 . S
H392 N387 0.984 . S
H393 N387 0.985 . S
H394 N391 0.984 . S
H395 N391 0.985 . S
H396 N390 0.984 . S
H397 N390 0.984 . S
H398 N386 0.984 . S
H399 N386 0.985 . S
C400 C401 1.363 . S
C400 C406 1.379 . S
C400 N408 1.356 . S
C401 C400 1.363 . S
C401 C407 1.363 . S
C402 C403 1.363 . S
C402 C407 1.379 . S
C402 N409 1.356 . S
C403 C402 1.363 . S
C403 C406 1.363 . S
N404 C406 1.356 . S
N404 H416 0.984 . S
N404 H417 0.985 . S
N405 C407 1.356 . S
N405 H410 0.984 . S
N405 H411 0.985 . S
C406 C400 1.379 . S
C406 C403 1.363 . S
C406 N404 1.356 . S
C407 C401 1.363 . S
C407 C402 1.379 . S
C407 N405 1.356 . S
N408 C400 1.356 . S
N408 H414 0.984 . S
N408 H415 0.984 . S
N409 C402 1.356 . S
N409 H412 0.984 . S
N409 H413 0.985 . S
H410 N405 0.984 . S
H411 N405 0.985 . S
H412 N409 0.984 . S
H413 N409 0.985 . S
H414 N408 0.984 . S
H415 N408 0.984 . S
H416 N404 0.984 . S
H417 N404 0.985 . S
C418 C419 1.363 . S
C418 C424 1.379 . S
C418 N426 1.356 . S
C419 C418 1.363 . S
C419 C425 1.363 . S
C420 C421 1.363 . S
C420 C425 1.379 . S
C420 N427 1.356 . S
C421 C420 1.363 . S
C421 C424 1.363 . S
N422 C424 1.356 . S
N422 H434 0.984 . S
N422 H435 0.985 . S
N423 C425 1.356 . S
N423 H428 0.984 . S
N423 H429 0.985 . S
C424 C418 1.379 . S
C424 C421 1.363 . S
C424 N422 1.356 . S
C425 C419 1.363 . S
C425 C420 1.379 . S
C425 N423 1.356 . S
N426 C418 1.356 . S
N426 H432 0.984 . S
N426 H433 0.984 . S
N427 C420 1.356 . S
N427 H430 0.984 . S
N427 H431 0.985 . S
H428 N423 0.984 . S
H429 N423 0.985 . S
H430 N427 0.984 . S
H431 N427 0.985 . S
H432 N426 0.984 . S
H433 N426 0.984 . S
H434 N422 0.984 . S
H435 N422 0.985 . S
C223 C182 1.597 . S
C221 C27 1.663 . S
C239 N6 1.569 . S
C241 C142 1.531 . S
C257 C16 1.638 . S
C259 C195 1.559 . S
C275 N14 1.517 . S
C277 C155 1.505 . S
C293 C57 1.663 . S
C295 C102 1.597 . S
C311 N36 1.569 . S
C313 C62 1.532 . S
C331 C115 1.559 . S
C329 C46 1.638 . S
C349 C75 1.505 . S
C347 N44 1.516 . S
C365 C10 1.396 . S
C367 C81 1.385 . S
C383 C1 1.534 . S
C385 C121 1.524 . S
C403 C161 1.385 . S
C401 C40 1.396 . S
C419 C31 1.534 . S
C421 C201 1.524 . S
