# Generated by pormake.
# Topology bcu-b, (8,8)-cn, num edge types: 1
# Building blocks:
#     Node 0, Type 0, BuildingBlock: TAGTUT_clean_sbu_3, # of connection points: 8
#     Node 1, Type 1, BuildingBlock: GIZVER_clean_sbu_0, # of connection points: 8
#     Edge 2, Type (0, 1), BuildingBlock: UVAHIK_clean_linker_0, # of connection points: 2
#     Edge 3, Type (0, 1), BuildingBlock: UVAHIK_clean_linker_0, # of connection points: 2
#     Edge 4, Type (0, 1), BuildingBlock: UVAHIK_clean_linker_0, # of connection points: 2
#     Edge 5, Type (0, 1), BuildingBlock: UVAHIK_clean_linker_0, # of connection points: 2
#     Edge 6, Type (0, 1), BuildingBlock: UVAHIK_clean_linker_0, # of connection points: 2
#     Edge 7, Type (0, 1), BuildingBlock: UVAHIK_clean_linker_0, # of connection points: 2
#     Edge 8, Type (0, 1), BuildingBlock: UVAHIK_clean_linker_0, # of connection points: 2
#     Edge 9, Type (0, 1), BuildingBlock: UVAHIK_clean_linker_0, # of connection points: 2
# Relax obj value: 0.094
# Max RMSD: 0.159
# Mean RMSD: 0.159
data_MOF--net-bcu-b--node1-TAGTUT_clean_sbu_3--node2-GIZVER_clean_sbu_0--edge1-UVAHIK_clean_linker_0
_symmetry_space_group_name_H-M    P1
_symmetry_Int_Tables_number       1
_symmetry_cell_setting            triclinic
loop_
_symmetry_equiv_pos_as_xyz
'x, y, z'
_cell_length_a     25.580527
_cell_length_b     28.190689
_cell_length_c     22.141113
_cell_angle_alpha  88.81581
_cell_angle_beta   90.325696
_cell_angle_gamma 105.30443
loop_
_atom_site_label
_atom_site_type_symbol
_atom_site_fract_x
_atom_site_fract_y
_atom_site_fract_z
_atom_type_partial_charge
C0 C 0.10051 0.09286 0.06987 0.0
C1 C 0.1581 0.92679 0.09528 0.0
C2 C 0.10312 0.90393 0.90995 0.0
Mg3 Mg 1.00241 0.1154 0.98981 0.0
Mg4 Mg 0.89285 0.0265 0.9706 0.0
O5 O 0.96777 0.04878 0.9566 0.0
Mg6 Mg 0.01436 0.00963 -0.00528 0.0
O7 O 0.065 0.97479 0.03298 0.0
Mg8 Mg 0.13541 0.00879 -0.0082 0.0
Mg9 Mg 0.04657 0.90623 0.02963 0.0
C10 C 0.91999 0.9285 0.92597 0.0
O11 O 0.94791 0.96857 0.06242 0.0
O12 O 0.94633 0.14347 0.92134 0.0
O13 O 0.96397 0.89348 0.06056 0.0
O14 O 0.93923 0.11149 0.06404 0.0
O15 O 0.87309 0.07913 0.90952 0.0
O16 O 0.87073 0.04423 0.06009 0.0
O17 O 0.08316 0.04497 0.92878 0.0
O18 O 0.06711 0.11889 0.91826 0.0
C19 C 0.09455 0.08846 0.90548 0.0
C20 C 0.89998 0.12346 0.89706 0.0
O21 O 0.97152 0.94557 0.93332 0.0
O22 O 0.17613 0.96671 0.06365 0.0
O23 O 0.88527 0.95143 0.94258 0.0
O24 O 0.13201 0.94664 0.92383 0.0
O25 O 0.10994 0.89901 0.08907 0.0
O26 O 0.06243 0.88178 0.94195 0.0
O27 O 0.05119 0.07583 0.05329 0.0
O28 O 0.13743 0.072 0.05554 0.0
C29 C 0.89514 0.08417 0.0856 0.0
C30 C 0.93404 0.9219 0.07384 0.0
Co31 Co 0.56153 0.41773 0.43665 0.0
Co32 Co 0.59217 0.46023 0.53922 0.0
Co33 Co 0.50936 0.5098 0.48821 0.0
O34 O 0.57134 0.48339 0.46668 0.0
H35 H 0.60103 0.50767 0.44798 0.0
O36 O 0.44685 0.53592 0.50861 0.0
Co37 Co 0.4545 0.59983 0.54099 0.0
Co38 Co 0.42474 0.56059 0.4363 0.0
H39 H 0.41724 0.5111 0.52655 0.0
O40 O 0.65989 0.45296 0.54744 0.0
O41 O 0.58437 0.39575 0.51742 0.0
O42 O 0.54863 0.45821 0.61122 0.0
O43 O 0.47972 0.45586 0.55007 0.0
O44 O 0.55526 0.55105 0.5502 0.0
O45 O 0.45332 0.657 0.57346 0.0
O46 O 0.38411 0.58948 0.56114 0.0
O47 O 0.53083 0.61888 0.52653 0.0
O48 O 0.53895 0.56364 0.42654 0.0
O49 O 0.4696 0.56227 0.36593 0.0
O50 O 0.44102 0.62565 0.45996 0.0
O51 O 0.36079 0.58021 0.42603 0.0
C52 C 0.60898 0.37968 0.39454 0.0
C53 C 0.45301 0.42154 0.43048 0.0
C54 C 0.49837 0.44475 0.60039 0.0
C55 C 0.6349 0.4076 0.53578 0.0
C56 C 0.40214 0.63444 0.57993 0.0
C57 C 0.56442 0.59765 0.55018 0.0
C58 C 0.52001 0.57551 0.37668 0.0
C59 C 0.39306 0.62283 0.43823 0.0
O60 O 0.55832 0.35946 0.40688 0.0
O61 O 0.63052 0.42544 0.40925 0.0
O62 O 0.46398 0.46823 0.42682 0.0
O63 O 0.48574 0.40034 0.45657 0.0
C64 C 0.16734 0.17101 0.09396 0.0
C65 C 0.11678 0.13786 0.10531 0.0
C66 C 0.1881 0.20948 0.133 0.0
C67 C 0.19152 0.23375 0.2905 0.0
H68 H 0.27595 0.36307 0.23734 0.0
C69 C 0.36382 0.41603 0.38035 0.0
C70 C 0.40078 0.39222 0.40603 0.0
C71 C 0.31666 0.38903 0.35232 0.0
C72 C 0.25181 0.32754 0.25344 0.0
H73 H 0.04674 0.11992 0.16426 0.0
H74 H 0.0842 0.18703 0.2345 0.0
H75 H 0.21244 0.31158 0.16784 0.0
H76 H 0.41565 0.32117 0.4253 0.0
H77 H 0.33356 0.27402 0.37545 0.0
H78 H 0.23304 0.24875 0.3752 0.0
C79 C 0.10725 0.18333 0.19479 0.0
C80 C 0.21562 0.29804 0.21351 0.0
C81 C 0.08582 0.14526 0.15467 0.0
C82 C 0.38817 0.34062 0.40566 0.0
C83 C 0.34089 0.31358 0.37756 0.0
C84 C 0.22809 0.26317 0.33042 0.0
C85 C 0.15912 0.21507 0.18484 0.0
C86 C 0.18661 0.25025 0.23096 0.0
C87 C 0.30532 0.33763 0.34933 0.0
C88 C 0.25993 0.30971 0.31156 0.0
H89 H 0.19179 0.16607 0.05596 0.0
H90 H 0.22838 0.23306 0.12453 0.0
H91 H 0.1699 0.19686 0.3049 0.0
H92 H 0.37188 0.45573 0.38048 0.0
H93 H 0.28968 0.40852 0.33166 0.0
C94 C 0.81285 0.08584 0.14628 0.0
C95 C 0.86865 0.10404 0.13506 0.0
C96 C 0.78578 0.11198 0.18248 0.0
C97 C 0.80548 0.2164 0.2892 0.0
H98 H 0.672 0.23063 0.21683 0.0
C99 C 0.69799 0.3649 0.36231 0.0
C100 C 0.64119 0.34912 0.3667 0.0
C101 C 0.72718 0.33412 0.33764 0.0
C102 C 0.7089 0.22672 0.23813 0.0
H103 H 0.94058 0.16158 0.15774 0.0
H104 H 0.89353 0.20693 0.22015 0.0
H105 H 0.7187 0.17505 0.17274 0.0
H106 H 0.57074 0.28846 0.34892 0.0
H107 H 0.62116 0.23547 0.30674 0.0
H108 H 0.79565 0.26881 0.35426 0.0
C109 C 0.87045 0.17268 0.20107 0.0
C110 C 0.73559 0.19456 0.21297 0.0
C111 C 0.89744 0.14666 0.16493 0.0
C112 C 0.61442 0.3021 0.34601 0.0
C113 C 0.64336 0.27163 0.3214 0.0
C114 C 0.77868 0.24871 0.31445 0.0
C115 C 0.81395 0.15673 0.20841 0.0
C116 C 0.78421 0.18887 0.23812 0.0
C117 C 0.70005 0.28716 0.31662 0.0
C118 C 0.72996 0.25416 0.28925 0.0
H119 H 0.78944 0.05307 0.12426 0.0
H120 H 0.74238 0.09803 0.18834 0.0
H121 H 0.84269 0.21276 0.30996 0.0
H122 H 0.71984 0.40073 0.37833 0.0
H123 H 0.77086 0.3473 0.33432 0.0
C124 C 0.85273 0.92154 0.13792 0.0
C125 C 0.87969 0.89796 0.09799 0.0
C126 C 0.80319 0.89554 0.16377 0.0
C127 C 0.69122 0.78151 0.14897 0.0
H128 H 0.6937 0.77546 0.32395 0.0
C129 C 0.53346 0.63658 0.29026 0.0
C130 C 0.55536 0.61408 0.33787 0.0
C131 C 0.5656 0.67756 0.25922 0.0
C132 C 0.69232 0.7769 0.27505 0.0
H133 H 0.87436 0.83037 0.05018 0.0
H134 H 0.78888 0.7858 0.09433 0.0
H135 H 0.76108 0.83961 0.26997 0.0
H136 H 0.62872 0.6161 0.38874 0.0
H137 H 0.68476 0.6867 0.33387 0.0
H138 H 0.62463 0.71704 0.15382 0.0
C139 C 0.80553 0.82389 0.10633 0.0
C140 C 0.73036 0.81408 0.24423 0.0
C141 C 0.85499 0.8493 0.08164 0.0
C142 C 0.61045 0.63253 0.35242 0.0
C143 C 0.64245 0.67344 0.3215 0.0
C144 C 0.65314 0.74439 0.17976 0.0
C145 C 0.77959 0.84621 0.14864 0.0
C146 C 0.73154 0.81549 0.18085 0.0
C147 C 0.62021 0.6969 0.27524 0.0
C148 C 0.65471 0.74056 0.24305 0.0
H149 H 0.87084 0.95916 0.15089 0.0
H150 H 0.78388 0.91356 0.19631 0.0
H151 H 0.69096 0.78208 0.10002 0.0
H152 H 0.49108 0.62356 0.27814 0.0
H153 H 0.54736 0.69486 0.22373 0.0
C154 C 0.24891 0.93149 0.14428 0.0
C155 C 0.19237 0.91189 0.14236 0.0
C156 C 0.28001 0.91427 0.18783 0.0
C157 C 0.26683 0.84093 0.33211 0.0
H158 H 0.38784 0.79731 0.27152 0.0
C159 C 0.32237 0.66714 0.41561 0.0
C160 C 0.3772 0.66821 0.42258 0.0
C161 C 0.3077 0.70863 0.39373 0.0
C162 C 0.35486 0.81017 0.28955 0.0
H163 H 0.1241 0.86044 0.18641 0.0
H164 H 0.17759 0.83055 0.26048 0.0
H165 H 0.34849 0.85117 0.20859 0.0
H166 H 0.45972 0.71395 0.41453 0.0
H167 H 0.43389 0.78618 0.37458 0.0
H168 H 0.27081 0.79696 0.41125 0.0
C169 C 0.19831 0.85939 0.22926 0.0
C170 C 0.33242 0.84115 0.25359 0.0
C171 C 0.16759 0.87618 0.18596 0.0
C172 C 0.41707 0.71214 0.40965 0.0
C173 C 0.40242 0.75337 0.38662 0.0
C174 C 0.28882 0.80955 0.36767 0.0
C175 C 0.2549 0.87774 0.23055 0.0
C176 C 0.28666 0.85513 0.27347 0.0
C177 C 0.34762 0.75167 0.37749 0.0
C178 C 0.33171 0.79244 0.34576 0.0
H179 H 0.26917 0.95915 0.11143 0.0
H180 H 0.32361 0.92916 0.18777 0.0
H181 H 0.23238 0.85202 0.34932 0.0
H182 H 0.29084 0.63385 0.42557 0.0
H183 H 0.26514 0.70621 0.38665 0.0
C184 C 0.0944 0.82842 0.84785 0.0
C185 C 0.12154 0.87751 0.86034 0.0
C186 C 0.11692 0.80118 0.80813 0.0
C187 C 0.22573 0.81206 0.69264 0.0
H188 H 0.22438 0.68096 0.75047 0.0
C189 C 0.38237 0.71137 0.6166 0.0
C190 C 0.36451 0.66071 0.60564 0.0
C191 C 0.34721 0.73644 0.64083 0.0
C192 C 0.22449 0.71719 0.73314 0.0
H193 H 0.19216 0.93717 0.83778 0.0
H194 H 0.23146 0.88979 0.76959 0.0
H195 H 0.17132 0.72751 0.80295 0.0
H196 H 0.29532 0.59678 0.61082 0.0
H197 H 0.23397 0.64059 0.65379 0.0
H198 H 0.28043 0.80218 0.62402 0.0
C199 C 0.19259 0.87225 0.78994 0.0
C200 C 0.1939 0.74391 0.76313 0.0
C201 C 0.17008 0.89946 0.82945 0.0
C202 C 0.31045 0.63576 0.61902 0.0
C203 C 0.27534 0.6608 0.64377 0.0
C204 C 0.25654 0.78544 0.66287 0.0
C205 C 0.16708 0.82237 0.77994 0.0
C206 C 0.19484 0.79204 0.74392 0.0
C207 C 0.29337 0.71144 0.65505 0.0
C208 C 0.257 0.73802 0.6834 0.0
H209 H 0.05674 0.81039 0.87045 0.0
H210 H 0.0956 0.76315 0.80058 0.0
H211 H 0.22667 0.84863 0.67586 0.0
H212 H 0.42366 0.73182 0.60654 0.0
H213 H 0.36259 0.7753 0.64963 0.0
C214 C 0.136 0.13577 0.81513 0.0
C215 C 0.1415 0.10657 0.86553 0.0
C216 C 0.18146 0.16239 0.78347 0.0
C217 C 0.32235 0.22515 0.80941 0.0
H218 H 0.32014 0.24943 0.63658 0.0
C219 C 0.44732 0.40501 0.6925 0.0
C220 C 0.4659 0.40165 0.63378 0.0
C221 C 0.41457 0.36316 0.72177 0.0
C222 C 0.32215 0.24273 0.68476 0.0
H223 H 0.19825 0.08044 0.92138 0.0
H224 H 0.27884 0.12777 0.86575 0.0
H225 H 0.25176 0.18177 0.68204 0.0
H226 H 0.46861 0.35238 0.5609 0.0
H227 H 0.4129 0.27949 0.61191 0.0
H228 H 0.39255 0.2867 0.81207 0.0
C229 C 0.23908 0.1297 0.85074 0.0
C230 C 0.28262 0.20407 0.71083 0.0
C231 C 0.19313 0.10228 0.88207 0.0
C232 C 0.45351 0.35592 0.60569 0.0
C233 C 0.42159 0.31422 0.63497 0.0
C234 C 0.36214 0.26392 0.78323 0.0
C235 C 0.23362 0.16092 0.80199 0.0
C236 C 0.28137 0.19567 0.77358 0.0
C237 C 0.40066 0.3174 0.69283 0.0
C238 C 0.36176 0.27381 0.72073 0.0
H239 H 0.09652 0.13981 0.80188 0.0
H240 H 0.17584 0.18649 0.74666 0.0
H241 H 0.32212 0.21982 0.85801 0.0
H242 H 0.45691 0.44004 0.71494 0.0
H243 H 0.39877 0.367 0.76615 0.0
C244 C 0.82219 0.13339 0.83386 0.0
C245 C 0.87651 0.15149 0.85194 0.0
C246 C 0.79977 0.15829 0.79 0.0
C247 C 0.8185 0.28031 0.71736 0.0
H248 H 0.71223 0.2078 0.60397 0.0
C249 C 0.72099 0.38345 0.54662 0.0
C250 C 0.66409 0.36981 0.5479 0.0
C251 C 0.75008 0.35247 0.5715 0.0
C252 C 0.74183 0.22845 0.63536 0.0
H253 H 0.94999 0.20997 0.83762 0.0
H254 H 0.91096 0.25331 0.76016 0.0
H255 H 0.75856 0.16341 0.67281 0.0
H256 H 0.59281 0.3113 0.57073 0.0
H257 H 0.64388 0.25689 0.61513 0.0
H258 H 0.80146 0.34521 0.68055 0.0
C259 C 0.8855 0.22009 0.78072 0.0
C260 C 0.76825 0.20312 0.67495 0.0
C261 C 0.90792 0.19526 0.82508 0.0
C262 C 0.63669 0.32265 0.56933 0.0
C263 C 0.66595 0.29159 0.59471 0.0
C264 C 0.79243 0.30557 0.6776 0.0
C265 C 0.83112 0.20182 0.76264 0.0
C266 C 0.8063 0.22874 0.71708 0.0
C267 C 0.72287 0.3073 0.59852 0.0
C268 C 0.75337 0.27993 0.63664 0.0
H269 H 0.79661 0.09995 0.85386 0.0
H270 H 0.75748 0.14372 0.77829 0.0
H271 H 0.84678 0.3012 0.7498 0.0
H272 H 0.74312 0.41929 0.52921 0.0
H273 H 0.79392 0.36497 0.57237 0.0
C274 C 0.84657 0.85252 0.91157 0.0
C275 C 0.89827 0.88151 0.89542 0.0
C276 C 0.81926 0.81446 0.87494 0.0
C277 C 0.8246 0.73796 0.74371 0.0
H278 H 0.6835 0.76027 0.71215 0.0
C279 C 0.62727 0.67926 0.57351 0.0
C280 C 0.61403 0.62775 0.57907 0.0
C281 C 0.67014 0.70816 0.60645 0.0
C282 C 0.72294 0.75382 0.71987 0.0
H283 H 0.96443 0.89059 0.83186 0.0
H284 H 0.9156 0.82412 0.76618 0.0
H285 H 0.74338 0.81032 0.785 0.0
H286 H 0.6378 0.56604 0.62027 0.0
H287 H 0.71231 0.61688 0.67886 0.0
H288 H 0.80333 0.68108 0.6778 0.0
C289 C 0.89658 0.8308 0.80758 0.0
C290 C 0.75697 0.78203 0.76229 0.0
C291 C 0.92442 0.86879 0.845 0.0
C292 C 0.64676 0.60569 0.61539 0.0
C293 C 0.68965 0.63474 0.64863 0.0
C294 C 0.79005 0.70919 0.70119 0.0
C295 C 0.8427 0.8051 0.82081 0.0
C296 C 0.8079 0.77422 0.77514 0.0
C297 C 0.70054 0.68625 0.64594 0.0
C298 C 0.7389 0.71703 0.68889 0.0
H299 H 0.82589 0.86108 0.95082 0.0
H300 H 0.77828 0.79436 0.88695 0.0
H301 H 0.8638 0.73142 0.75269 0.0
H302 H 0.6035 0.69743 0.54514 0.0
H303 H 0.67833 0.74782 0.6026 0.0
loop_
_geom_bond_atom_site_label_1
_geom_bond_atom_site_label_2
_geom_bond_distance
_geom_bond_site_symmetry_2
_ccdc_geom_bond_type
C0 O27 1.312 . S
C0 O28 1.208 . S
C1 O22 1.331 . S
C1 O25 1.244 . S
C2 O24 1.264 . S
C2 O26 1.273 . S
Mg3 O5 1.936 . S
Mg3 O12 2.081 . S
Mg3 O14 2.023 1_556 S
Mg3 O18 2.031 1_655 S
Mg3 O27 2.291 1_656 S
Mg4 O5 1.963 . S
Mg4 O15 1.942 . S
Mg4 O16 1.955 1_556 S
Mg4 O23 1.986 1_545 S
O5 Mg3 1.936 . S
O5 Mg4 1.963 . S
O5 Mg6 1.904 1_656 S
Mg6 O5 1.904 1_454 S
Mg6 O7 1.926 1_545 S
Mg6 O11 2.009 1_445 S
Mg6 O17 2.120 1_554 S
Mg6 O21 2.006 1_444 S
Mg6 O27 2.119 . S
O7 Mg6 1.926 1_565 S
O7 Mg8 1.936 1_565 S
O7 Mg9 1.963 . S
Mg8 O7 1.936 1_545 S
Mg8 O17 2.291 1_554 S
Mg8 O22 2.081 1_545 S
Mg8 O24 2.023 1_544 S
Mg8 O28 2.031 . S
Mg9 O7 1.963 . S
Mg9 O13 1.986 1_455 S
Mg9 O25 1.942 . S
Mg9 O26 1.955 1_554 S
C10 O21 1.191 . S
C10 O23 1.307 . S
O11 Mg6 2.009 1_665 S
O11 C30 1.191 . S
O12 Mg3 2.081 . S
O12 C20 1.331 . S
O13 Mg9 1.986 1_655 S
O13 C30 1.307 . S
O14 Mg3 2.023 1_554 S
O14 C29 1.264 . S
O15 Mg4 1.942 . S
O15 C20 1.244 . S
O16 Mg4 1.955 1_554 S
O16 C29 1.273 . S
O17 Mg6 2.120 1_556 S
O17 Mg8 2.291 1_556 S
O17 C19 1.312 . S
O18 Mg3 2.031 1_455 S
O18 C19 1.208 . S
C19 O17 1.312 . S
C19 O18 1.208 . S
C20 O12 1.331 . S
C20 O15 1.244 . S
O21 Mg6 2.006 1_666 S
O21 C10 1.191 . S
O22 C1 1.331 . S
O22 Mg8 2.081 1_565 S
O23 Mg4 1.986 1_565 S
O23 C10 1.307 . S
O24 C2 1.264 . S
O24 Mg8 2.023 1_566 S
O25 C1 1.244 . S
O25 Mg9 1.942 . S
O26 C2 1.273 . S
O26 Mg9 1.955 1_556 S
O27 C0 1.312 . S
O27 Mg3 2.291 1_454 S
O27 Mg6 2.119 . S
O28 C0 1.208 . S
O28 Mg8 2.031 . S
C29 O14 1.264 . S
C29 O16 1.273 . S
C30 O11 1.191 . S
C30 O13 1.307 . S
Co31 O34 2.042 . S
Co31 O41 2.264 . S
Co31 O60 2.286 . S
Co31 O61 2.069 . S
Co31 O63 2.015 . S
Co32 O34 2.122 . S
Co32 O40 2.073 . S
Co32 O41 2.327 . S
Co32 O42 1.976 . S
Co33 O34 2.087 . S
Co33 O36 2.087 . S
Co33 O43 2.111 . S
Co33 O44 2.143 . S
Co33 O48 2.111 . S
Co33 O62 2.143 . S
O34 Co31 2.042 . S
O34 Co32 2.122 . S
O34 Co33 2.087 . S
O34 H35 0.980 . S
H35 O34 0.980 . S
O36 Co33 2.087 . S
O36 Co37 2.042 . S
O36 Co38 2.122 . S
O36 H39 0.980 . S
Co37 O36 2.042 . S
Co37 O45 2.286 . S
Co37 O46 2.069 . S
Co37 O47 2.015 . S
Co37 O50 2.264 . S
Co38 O36 2.122 . S
Co38 O49 1.976 . S
Co38 O50 2.327 . S
Co38 O51 2.073 . S
H39 O36 0.980 . S
O40 Co32 2.073 . S
O40 C55 1.245 . S
O41 Co31 2.264 . S
O41 Co32 2.327 . S
O41 C55 1.257 . S
O42 Co32 1.976 . S
O42 C54 1.251 . S
O43 Co33 2.111 . S
O43 C54 1.274 . S
O44 Co33 2.143 . S
O44 C57 1.246 . S
O45 Co37 2.286 . S
O45 C56 1.259 . S
O46 Co37 2.069 . S
O46 C56 1.289 . S
O47 Co37 2.015 . S
O47 C57 1.257 . S
O48 Co33 2.111 . S
O48 C58 1.274 . S
O49 Co38 1.976 . S
O49 C58 1.251 . S
O50 Co37 2.264 . S
O50 Co38 2.327 . S
O50 C59 1.257 . S
O51 Co38 2.073 . S
O51 C59 1.245 . S
C52 O60 1.259 . S
C52 O61 1.289 . S
C53 O62 1.246 . S
C53 O63 1.257 . S
C54 O42 1.251 . S
C54 O43 1.274 . S
C55 O40 1.245 . S
C55 O41 1.257 . S
C56 O45 1.259 . S
C56 O46 1.289 . S
C57 O44 1.246 . S
C57 O47 1.257 . S
C58 O48 1.274 . S
C58 O49 1.251 . S
C59 O50 1.257 . S
C59 O51 1.245 . S
O60 Co31 2.286 . S
O60 C52 1.259 . S
O61 Co31 2.069 . S
O61 C52 1.289 . S
O62 Co33 2.143 . S
O62 C53 1.246 . S
O63 Co31 2.015 . S
O63 C53 1.257 . S
C64 C65 1.349 . S
C64 C66 1.327 . S
C64 H89 0.950 . S
C65 C64 1.349 . S
C65 C81 1.349 . S
C66 C64 1.327 . S
C66 C85 1.429 . S
C66 H90 0.950 . S
C67 C84 1.574 . S
C67 C86 1.368 . S
C67 H91 0.949 . S
H68 C72 0.949 . S
C69 C70 1.349 . S
C69 C71 1.327 . S
C69 H92 0.950 . S
C70 C69 1.349 . S
C70 C82 1.349 . S
C71 C69 1.327 . S
C71 C87 1.429 . S
C71 H93 0.950 . S
C72 H68 0.949 . S
C72 C80 1.574 . S
C72 C88 1.368 . S
H73 C81 0.950 . S
H74 C79 0.950 . S
H75 C80 0.949 . S
H76 C82 0.950 . S
H77 C83 0.950 . S
H78 C84 0.949 . S
C79 H74 0.950 . S
C79 C81 1.327 . S
C79 C85 1.429 . S
C80 C72 1.574 . S
C80 H75 0.949 . S
C80 C86 1.368 . S
C81 C65 1.349 . S
C81 H73 0.950 . S
C81 C79 1.327 . S
C82 C70 1.349 . S
C82 H76 0.950 . S
C82 C83 1.327 . S
C83 H77 0.950 . S
C83 C82 1.327 . S
C83 C87 1.429 . S
C84 C67 1.574 . S
C84 H78 0.949 . S
C84 C88 1.368 . S
C85 C66 1.429 . S
C85 C79 1.429 . S
C85 C86 1.523 . S
C86 C67 1.368 . S
C86 C80 1.368 . S
C86 C85 1.523 . S
C87 C71 1.429 . S
C87 C83 1.429 . S
C87 C88 1.523 . S
C88 C72 1.368 . S
C88 C84 1.368 . S
C88 C87 1.523 . S
H89 C64 0.950 . S
H90 C66 0.950 . S
H91 C67 0.949 . S
H92 C69 0.950 . S
H93 C71 0.950 . S
C94 C95 1.349 . S
C94 C96 1.327 . S
C94 H119 0.950 . S
C95 C94 1.349 . S
C95 C111 1.349 . S
C96 C94 1.327 . S
C96 C115 1.429 . S
C96 H120 0.950 . S
C97 C114 1.574 . S
C97 C116 1.368 . S
C97 H121 0.949 . S
H98 C102 0.949 . S
C99 C100 1.349 . S
C99 C101 1.327 . S
C99 H122 0.950 . S
C100 C99 1.349 . S
C100 C112 1.349 . S
C101 C99 1.327 . S
C101 C117 1.429 . S
C101 H123 0.950 . S
C102 H98 0.949 . S
C102 C110 1.574 . S
C102 C118 1.368 . S
H103 C111 0.950 . S
H104 C109 0.950 . S
H105 C110 0.949 . S
H106 C112 0.950 . S
H107 C113 0.950 . S
H108 C114 0.949 . S
C109 H104 0.950 . S
C109 C111 1.327 . S
C109 C115 1.429 . S
C110 C102 1.574 . S
C110 H105 0.949 . S
C110 C116 1.368 . S
C111 C95 1.349 . S
C111 H103 0.950 . S
C111 C109 1.327 . S
C112 C100 1.349 . S
C112 H106 0.950 . S
C112 C113 1.327 . S
C113 H107 0.950 . S
C113 C112 1.327 . S
C113 C117 1.429 . S
C114 C97 1.574 . S
C114 H108 0.949 . S
C114 C118 1.368 . S
C115 C96 1.429 . S
C115 C109 1.429 . S
C115 C116 1.523 . S
C116 C97 1.368 . S
C116 C110 1.368 . S
C116 C115 1.523 . S
C117 C101 1.429 . S
C117 C113 1.429 . S
C117 C118 1.523 . S
C118 C102 1.368 . S
C118 C114 1.368 . S
C118 C117 1.523 . S
H119 C94 0.950 . S
H120 C96 0.950 . S
H121 C97 0.949 . S
H122 C99 0.950 . S
H123 C101 0.950 . S
C124 C125 1.349 . S
C124 C126 1.327 . S
C124 H149 0.950 . S
C125 C124 1.349 . S
C125 C141 1.349 . S
C126 C124 1.327 . S
C126 C145 1.429 . S
C126 H150 0.950 . S
C127 C144 1.574 . S
C127 C146 1.368 . S
C127 H151 0.949 . S
H128 C132 0.949 . S
C129 C130 1.349 . S
C129 C131 1.327 . S
C129 H152 0.950 . S
C130 C129 1.349 . S
C130 C142 1.349 . S
C131 C129 1.327 . S
C131 C147 1.429 . S
C131 H153 0.950 . S
C132 H128 0.949 . S
C132 C140 1.574 . S
C132 C148 1.368 . S
H133 C141 0.950 . S
H134 C139 0.950 . S
H135 C140 0.949 . S
H136 C142 0.950 . S
H137 C143 0.950 . S
H138 C144 0.949 . S
C139 H134 0.950 . S
C139 C141 1.327 . S
C139 C145 1.429 . S
C140 C132 1.574 . S
C140 H135 0.949 . S
C140 C146 1.368 . S
C141 C125 1.349 . S
C141 H133 0.950 . S
C141 C139 1.327 . S
C142 C130 1.349 . S
C142 H136 0.950 . S
C142 C143 1.327 . S
C143 H137 0.950 . S
C143 C142 1.327 . S
C143 C147 1.429 . S
C144 C127 1.574 . S
C144 H138 0.949 . S
C144 C148 1.368 . S
C145 C126 1.429 . S
C145 C139 1.429 . S
C145 C146 1.523 . S
C146 C127 1.368 . S
C146 C140 1.368 . S
C146 C145 1.523 . S
C147 C131 1.429 . S
C147 C143 1.429 . S
C147 C148 1.523 . S
C148 C132 1.368 . S
C148 C144 1.368 . S
C148 C147 1.523 . S
H149 C124 0.950 . S
H150 C126 0.950 . S
H151 C127 0.949 . S
H152 C129 0.950 . S
H153 C131 0.950 . S
C154 C155 1.349 . S
C154 C156 1.327 . S
C154 H179 0.950 . S
C155 C154 1.349 . S
C155 C171 1.349 . S
C156 C154 1.327 . S
C156 C175 1.429 . S
C156 H180 0.950 . S
C157 C174 1.574 . S
C157 C176 1.368 . S
C157 H181 0.949 . S
H158 C162 0.949 . S
C159 C160 1.349 . S
C159 C161 1.327 . S
C159 H182 0.950 . S
C160 C159 1.349 . S
C160 C172 1.349 . S
C161 C159 1.327 . S
C161 C177 1.429 . S
C161 H183 0.950 . S
C162 H158 0.949 . S
C162 C170 1.574 . S
C162 C178 1.368 . S
H163 C171 0.950 . S
H164 C169 0.950 . S
H165 C170 0.949 . S
H166 C172 0.950 . S
H167 C173 0.950 . S
H168 C174 0.949 . S
C169 H164 0.950 . S
C169 C171 1.327 . S
C169 C175 1.429 . S
C170 C162 1.574 . S
C170 H165 0.949 . S
C170 C176 1.368 . S
C171 C155 1.349 . S
C171 H163 0.950 . S
C171 C169 1.327 . S
C172 C160 1.349 . S
C172 H166 0.950 . S
C172 C173 1.327 . S
C173 H167 0.950 . S
C173 C172 1.327 . S
C173 C177 1.429 . S
C174 C157 1.574 . S
C174 H168 0.949 . S
C174 C178 1.368 . S
C175 C156 1.429 . S
C175 C169 1.429 . S
C175 C176 1.523 . S
C176 C157 1.368 . S
C176 C170 1.368 . S
C176 C175 1.523 . S
C177 C161 1.429 . S
C177 C173 1.429 . S
C177 C178 1.523 . S
C178 C162 1.368 . S
C178 C174 1.368 . S
C178 C177 1.523 . S
H179 C154 0.950 . S
H180 C156 0.950 . S
H181 C157 0.949 . S
H182 C159 0.950 . S
H183 C161 0.950 . S
C184 C185 1.349 . S
C184 C186 1.327 . S
C184 H209 0.950 . S
C185 C184 1.349 . S
C185 C201 1.349 . S
C186 C184 1.327 . S
C186 C205 1.429 . S
C186 H210 0.950 . S
C187 C204 1.574 . S
C187 C206 1.368 . S
C187 H211 0.949 . S
H188 C192 0.949 . S
C189 C190 1.349 . S
C189 C191 1.327 . S
C189 H212 0.950 . S
C190 C189 1.349 . S
C190 C202 1.349 . S
C191 C189 1.327 . S
C191 C207 1.429 . S
C191 H213 0.950 . S
C192 H188 0.949 . S
C192 C200 1.574 . S
C192 C208 1.368 . S
H193 C201 0.950 . S
H194 C199 0.950 . S
H195 C200 0.949 . S
H196 C202 0.950 . S
H197 C203 0.950 . S
H198 C204 0.949 . S
C199 H194 0.950 . S
C199 C201 1.327 . S
C199 C205 1.429 . S
C200 C192 1.574 . S
C200 H195 0.949 . S
C200 C206 1.368 . S
C201 C185 1.349 . S
C201 H193 0.950 . S
C201 C199 1.327 . S
C202 C190 1.349 . S
C202 H196 0.950 . S
C202 C203 1.327 . S
C203 H197 0.950 . S
C203 C202 1.327 . S
C203 C207 1.429 . S
C204 C187 1.574 . S
C204 H198 0.949 . S
C204 C208 1.368 . S
C205 C186 1.429 . S
C205 C199 1.429 . S
C205 C206 1.523 . S
C206 C187 1.368 . S
C206 C200 1.368 . S
C206 C205 1.523 . S
C207 C191 1.429 . S
C207 C203 1.429 . S
C207 C208 1.523 . S
C208 C192 1.368 . S
C208 C204 1.368 . S
C208 C207 1.523 . S
H209 C184 0.950 . S
H210 C186 0.950 . S
H211 C187 0.949 . S
H212 C189 0.950 . S
H213 C191 0.950 . S
C214 C215 1.349 . S
C214 C216 1.327 . S
C214 H239 0.950 . S
C215 C214 1.349 . S
C215 C231 1.349 . S
C216 C214 1.327 . S
C216 C235 1.429 . S
C216 H240 0.950 . S
C217 C234 1.574 . S
C217 C236 1.368 . S
C217 H241 0.949 . S
H218 C222 0.949 . S
C219 C220 1.349 . S
C219 C221 1.327 . S
C219 H242 0.950 . S
C220 C219 1.349 . S
C220 C232 1.349 . S
C221 C219 1.327 . S
C221 C237 1.429 . S
C221 H243 0.950 . S
C222 H218 0.949 . S
C222 C230 1.574 . S
C222 C238 1.368 . S
H223 C231 0.950 . S
H224 C229 0.950 . S
H225 C230 0.949 . S
H226 C232 0.950 . S
H227 C233 0.950 . S
H228 C234 0.949 . S
C229 H224 0.950 . S
C229 C231 1.327 . S
C229 C235 1.429 . S
C230 C222 1.574 . S
C230 H225 0.949 . S
C230 C236 1.368 . S
C231 C215 1.349 . S
C231 H223 0.950 . S
C231 C229 1.327 . S
C232 C220 1.349 . S
C232 H226 0.950 . S
C232 C233 1.327 . S
C233 H227 0.950 . S
C233 C232 1.327 . S
C233 C237 1.429 . S
C234 C217 1.574 . S
C234 H228 0.949 . S
C234 C238 1.368 . S
C235 C216 1.429 . S
C235 C229 1.429 . S
C235 C236 1.523 . S
C236 C217 1.368 . S
C236 C230 1.368 . S
C236 C235 1.523 . S
C237 C221 1.429 . S
C237 C233 1.429 . S
C237 C238 1.523 . S
C238 C222 1.368 . S
C238 C234 1.368 . S
C238 C237 1.523 . S
H239 C214 0.950 . S
H240 C216 0.950 . S
H241 C217 0.949 . S
H242 C219 0.950 . S
H243 C221 0.950 . S
C244 C245 1.349 . S
C244 C246 1.327 . S
C244 H269 0.950 . S
C245 C244 1.349 . S
C245 C261 1.349 . S
C246 C244 1.327 . S
C246 C265 1.429 . S
C246 H270 0.950 . S
C247 C264 1.574 . S
C247 C266 1.368 . S
C247 H271 0.949 . S
H248 C252 0.949 . S
C249 C250 1.349 . S
C249 C251 1.327 . S
C249 H272 0.950 . S
C250 C249 1.349 . S
C250 C262 1.349 . S
C251 C249 1.327 . S
C251 C267 1.429 . S
C251 H273 0.950 . S
C252 H248 0.949 . S
C252 C260 1.574 . S
C252 C268 1.368 . S
H253 C261 0.950 . S
H254 C259 0.950 . S
H255 C260 0.949 . S
H256 C262 0.950 . S
H257 C263 0.950 . S
H258 C264 0.949 . S
C259 H254 0.950 . S
C259 C261 1.327 . S
C259 C265 1.429 . S
C260 C252 1.574 . S
C260 H255 0.949 . S
C260 C266 1.368 . S
C261 C245 1.349 . S
C261 H253 0.950 . S
C261 C259 1.327 . S
C262 C250 1.349 . S
C262 H256 0.950 . S
C262 C263 1.327 . S
C263 H257 0.950 . S
C263 C262 1.327 . S
C263 C267 1.429 . S
C264 C247 1.574 . S
C264 H258 0.949 . S
C264 C268 1.368 . S
C265 C246 1.429 . S
C265 C259 1.429 . S
C265 C266 1.523 . S
C266 C247 1.368 . S
C266 C260 1.368 . S
C266 C265 1.523 . S
C267 C251 1.429 . S
C267 C263 1.429 . S
C267 C268 1.523 . S
C268 C252 1.368 . S
C268 C264 1.368 . S
C268 C267 1.523 . S
H269 C244 0.950 . S
H270 C246 0.950 . S
H271 C247 0.949 . S
H272 C249 0.950 . S
H273 C251 0.950 . S
C274 C275 1.349 . S
C274 C276 1.327 . S
C274 H299 0.950 . S
C275 C274 1.349 . S
C275 C291 1.349 . S
C276 C274 1.327 . S
C276 C295 1.429 . S
C276 H300 0.950 . S
C277 C294 1.574 . S
C277 C296 1.368 . S
C277 H301 0.949 . S
H278 C282 0.949 . S
C279 C280 1.349 . S
C279 C281 1.327 . S
C279 H302 0.950 . S
C280 C279 1.349 . S
C280 C292 1.349 . S
C281 C279 1.327 . S
C281 C297 1.429 . S
C281 H303 0.950 . S
C282 H278 0.949 . S
C282 C290 1.574 . S
C282 C298 1.368 . S
H283 C291 0.950 . S
H284 C289 0.950 . S
H285 C290 0.949 . S
H286 C292 0.950 . S
H287 C293 0.950 . S
H288 C294 0.949 . S
C289 H284 0.950 . S
C289 C291 1.327 . S
C289 C295 1.429 . S
C290 C282 1.574 . S
C290 H285 0.949 . S
C290 C296 1.368 . S
C291 C275 1.349 . S
C291 H283 0.950 . S
C291 C289 1.327 . S
C292 C280 1.349 . S
C292 H286 0.950 . S
C292 C293 1.327 . S
C293 H287 0.950 . S
C293 C292 1.327 . S
C293 C297 1.429 . S
C294 C277 1.574 . S
C294 H288 0.949 . S
C294 C298 1.368 . S
C295 C276 1.429 . S
C295 C289 1.429 . S
C295 C296 1.523 . S
C296 C277 1.368 . S
C296 C290 1.368 . S
C296 C295 1.523 . S
C297 C281 1.429 . S
C297 C293 1.429 . S
C297 C298 1.523 . S
C298 C282 1.368 . S
C298 C294 1.368 . S
C298 C297 1.523 . S
H299 C274 0.950 . S
H300 C276 0.950 . S
H301 C277 0.949 . S
H302 C279 0.950 . S
H303 C281 0.950 . S
C65 C0 1.263 . S
C70 C53 1.284 . S
C95 C29 1.824 . S
C100 C52 1.862 . S
C125 C30 1.219 . S
C130 C58 1.177 . S
C155 C1 1.558 . S
C160 C59 1.520 . S
C185 C2 1.819 . S
C190 C56 1.858 . S
C220 C54 1.222 . S
C215 C19 1.242 . S
C245 C20 1.547 . S
C250 C55 1.508 . S
C280 C57 1.239 . S
C275 C10 1.245 . S
