# Generated by pormake.
# Topology zzz, (3,6)-cn, num edge types: 1
# Building blocks:
#     Node 0, Type 0, BuildingBlock: OLANEW_clean_sbu_2, # of connection points: 3
#     Node 1, Type 0, BuildingBlock: OLANEW_clean_sbu_2, # of connection points: 3
#     Node 2, Type 0, BuildingBlock: OLANEW_clean_sbu_2, # of connection points: 3
#     Node 3, Type 0, BuildingBlock: OLANEW_clean_sbu_2, # of connection points: 3
#     Node 4, Type 0, BuildingBlock: OLANEW_clean_sbu_2, # of connection points: 3
#     Node 5, Type 0, BuildingBlock: OLANEW_clean_sbu_2, # of connection points: 3
#     Node 6, Type 0, BuildingBlock: OLANEW_clean_sbu_2, # of connection points: 3
#     Node 7, Type 0, BuildingBlock: OLANEW_clean_sbu_2, # of connection points: 3
#     Node 8, Type 1, BuildingBlock: KUMJIN_clean_sbu_1, # of connection points: 6
#     Node 9, Type 1, BuildingBlock: KUMJIN_clean_sbu_1, # of connection points: 6
#     Node 10, Type 1, BuildingBlock: KUMJIN_clean_sbu_1, # of connection points: 6
#     Node 11, Type 1, BuildingBlock: KUMJIN_clean_sbu_1, # of connection points: 6
#     Edge 12, Type (0, 1), BuildingBlock: XUDNAN_clean_linker_2, # of connection points: 2
#     Edge 13, Type (0, 1), BuildingBlock: XUDNAN_clean_linker_2, # of connection points: 2
#     Edge 14, Type (0, 1), BuildingBlock: XUDNAN_clean_linker_2, # of connection points: 2
#     Edge 15, Type (0, 1), BuildingBlock: XUDNAN_clean_linker_2, # of connection points: 2
#     Edge 16, Type (0, 1), BuildingBlock: XUDNAN_clean_linker_2, # of connection points: 2
#     Edge 17, Type (0, 1), BuildingBlock: XUDNAN_clean_linker_2, # of connection points: 2
#     Edge 18, Type (0, 1), BuildingBlock: XUDNAN_clean_linker_2, # of connection points: 2
#     Edge 19, Type (0, 1), BuildingBlock: XUDNAN_clean_linker_2, # of connection points: 2
#     Edge 20, Type (0, 1), BuildingBlock: XUDNAN_clean_linker_2, # of connection points: 2
#     Edge 21, Type (0, 1), BuildingBlock: XUDNAN_clean_linker_2, # of connection points: 2
#     Edge 22, Type (0, 1), BuildingBlock: XUDNAN_clean_linker_2, # of connection points: 2
#     Edge 23, Type (0, 1), BuildingBlock: XUDNAN_clean_linker_2, # of connection points: 2
#     Edge 24, Type (0, 1), BuildingBlock: XUDNAN_clean_linker_2, # of connection points: 2
#     Edge 25, Type (0, 1), BuildingBlock: XUDNAN_clean_linker_2, # of connection points: 2
#     Edge 26, Type (0, 1), BuildingBlock: XUDNAN_clean_linker_2, # of connection points: 2
#     Edge 27, Type (0, 1), BuildingBlock: XUDNAN_clean_linker_2, # of connection points: 2
#     Edge 28, Type (0, 1), BuildingBlock: XUDNAN_clean_linker_2, # of connection points: 2
#     Edge 29, Type (0, 1), BuildingBlock: XUDNAN_clean_linker_2, # of connection points: 2
#     Edge 30, Type (0, 1), BuildingBlock: XUDNAN_clean_linker_2, # of connection points: 2
#     Edge 31, Type (0, 1), BuildingBlock: XUDNAN_clean_linker_2, # of connection points: 2
#     Edge 32, Type (0, 1), BuildingBlock: XUDNAN_clean_linker_2, # of connection points: 2
#     Edge 33, Type (0, 1), BuildingBlock: XUDNAN_clean_linker_2, # of connection points: 2
#     Edge 34, Type (0, 1), BuildingBlock: XUDNAN_clean_linker_2, # of connection points: 2
#     Edge 35, Type (0, 1), BuildingBlock: XUDNAN_clean_linker_2, # of connection points: 2
# Relax obj value: 0.150
# Max RMSD: 0.102
# Mean RMSD: 0.085
data_MOF--net-zzz--node1-OLANEW_clean_sbu_2--node2-KUMJIN_clean_sbu_1--edge1-XUDNAN_clean_linker_2
_symmetry_space_group_name_H-M    P1
_symmetry_Int_Tables_number       1
_symmetry_cell_setting            triclinic
loop_
_symmetry_equiv_pos_as_xyz
'x, y, z'
_cell_length_a     53.874339
_cell_length_b     54.110248
_cell_length_c     17.850393
_cell_angle_alpha  90.223516
_cell_angle_beta   89.732874
_cell_angle_gamma 90.322507
loop_
_atom_site_label
_atom_site_type_symbol
_atom_site_fract_x
_atom_site_fract_y
_atom_site_fract_z
_atom_type_partial_charge
O0 O 0.76809 0.61112 0.98504 0.0
Cd1 Cd 0.73497 0.63987 0.01808 0.0
O2 O 0.76867 0.59716 0.10023 0.0
Cd3 Cd 0.78116 0.57107 0.18514 0.0
O4 O 0.80442 0.54553 0.24709 0.0
C5 C 0.80829 0.54787 0.31692 0.0
O6 O 0.79717 0.56571 0.35402 0.0
C7 C 0.77698 0.59651 0.0334 0.0
C8 C 0.6935 0.62848 0.93183 0.0
O9 O 0.70992 0.64393 0.9087 0.0
O10 O 0.6964 0.61889 0.99674 0.0
O11 O 0.92935 0.74999 0.05638 0.0
Cd12 Cd 0.91575 0.71309 0.12334 0.0
O13 O 0.94404 0.76215 0.16434 0.0
Cd14 Cd 0.96382 0.78564 0.24471 0.0
O15 O 0.97237 0.8158 0.32201 0.0
C16 C 0.95493 0.82284 0.3651 0.0
O17 O 0.93347 0.81122 0.36219 0.0
C18 C 0.94069 0.76624 0.09488 0.0
C19 C 0.92087 0.67088 0.03533 0.0
O20 O 0.90021 0.68249 0.03855 0.0
O21 O 0.9391 0.67924 0.07393 0.0
O22 O 0.77364 0.88605 0.96805 0.0
Cd23 Cd 0.8119 0.87127 0.02528 0.0
O24 O 0.76518 0.90231 0.07785 0.0
Cd25 Cd 0.73934 0.92008 0.15571 0.0
O26 O 0.7034 0.92852 0.20578 0.0
C27 C 0.69967 0.94118 0.26485 0.0
O28 O 0.71869 0.95051 0.3013 0.0
C29 C 0.75935 0.89876 0.00963 0.0
C30 C 0.85052 0.90412 0.99407 0.0
O31 O 0.84755 0.88445 0.95479 0.0
O32 O 0.83553 0.90798 0.04874 0.0
O33 O 0.62153 0.79154 0.07215 0.0
Cd34 Cd 0.63775 0.83249 0.10366 0.0
O35 O 0.6121 0.78324 0.18909 0.0
Cd36 Cd 0.5944 0.76037 0.27487 0.0
O37 O 0.57911 0.72857 0.33406 0.0
C38 C 0.55859 0.72959 0.36919 0.0
O39 O 0.54644 0.75057 0.3715 0.0
C40 C 0.61247 0.77682 0.12044 0.0
C41 C 0.6191 0.86514 0.99811 0.0
O42 O 0.63939 0.85346 0.98638 0.0
O43 O 0.60805 0.8621 0.06116 0.0
O44 O 0.2684 0.43385 0.28027 0.0
Cd45 Cd 0.30881 0.42148 0.23201 0.0
O46 O 0.25152 0.43176 0.16872 0.0
Cd47 Cd 0.2209 0.43822 0.0913 0.0
O48 O 0.18757 0.4484 0.02992 0.0
C49 C 0.17477 0.46632 0.05479 0.0
O50 O 0.18217 0.47789 0.11565 0.0
C51 C 0.24956 0.43621 0.23852 0.0
C52 C 0.34523 0.45083 0.29844 0.0
O53 O 0.33554 0.45693 0.23577 0.0
O54 O 0.33796 0.43063 0.32897 0.0
O55 O 0.97737 0.26971 0.16404 0.0
Cd56 Cd 0.97254 0.30251 0.07198 0.0
O57 O 0.01607 0.26633 0.12739 0.0
Cd58 Cd 0.05071 0.24574 0.12234 0.0
O59 O 0.06116 0.20848 0.09019 0.0
C60 C 0.06532 0.20338 0.02176 0.0
O61 O 0.06629 0.22145 0.97287 0.0
C62 C 0.99853 0.2598 0.17113 0.0
C63 C 0.9838 0.34589 0.14835 0.0
O64 O 0.96156 0.33738 0.14636 0.0
O65 O 0.00058 0.3345 0.11084 0.0
O66 O 0.26003 0.11953 0.28841 0.0
Cd67 Cd 0.22152 0.13637 0.23846 0.0
O68 O 0.2721 0.11291 0.17284 0.0
Cd69 Cd 0.29556 0.09733 0.08424 0.0
O70 O 0.31918 0.08582 0.99075 0.0
C71 C 0.3281 0.06417 0.98662 0.0
O72 O 0.32241 0.04793 0.03853 0.0
C73 C 0.27626 0.11146 0.24279 0.0
C74 C 0.18091 0.10845 0.28716 0.0
O75 O 0.193 0.10239 0.22796 0.0
O76 O 0.18786 0.12787 0.32286 0.0
O77 O 0.43697 0.26316 0.30239 0.0
Cd78 Cd 0.41997 0.22677 0.23924 0.0
O79 O 0.43964 0.28055 0.19197 0.0
Cd80 Cd 0.45269 0.30928 0.11532 0.0
O81 O 0.47334 0.33479 0.04356 0.0
C82 C 0.46745 0.33956 0.97627 0.0
O83 O 0.44763 0.32908 0.94725 0.0
C84 C 0.44297 0.28162 0.2624 0.0
C85 C 0.44365 0.184 0.28648 0.0
O86 O 0.45267 0.1971 0.23313 0.0
O87 O 0.42333 0.19106 0.3172 0.0
Eu88 Eu 0.98892 0.04069 0.61454 0.0
C89 C 0.09061 0.0296 0.73833 0.0
N90 N 0.08134 0.01383 0.68623 0.0
C91 C 0.11744 0.02033 0.60934 0.0
C92 C 0.11302 0.04258 0.72611 0.0
C93 C 0.09526 0.0077 0.62487 0.0
C94 C 0.12605 0.03833 0.65935 0.0
C95 C 0.08944 0.04434 0.8664 0.0
C96 C 0.0791 0.03048 0.8072 0.0
C97 C 0.11055 0.05907 0.85284 0.0
C98 C 0.12233 0.0582 0.78261 0.0
Eu99 Eu 0.04153 0.99632 0.71107 0.0
N100 N 0.05885 0.01599 0.81795 0.0
C101 C 0.07894 0.04203 0.93796 0.0
C102 C 0.04963 0.0122 0.88847 0.0
C103 C 0.05933 0.0254 0.94939 0.0
H104 H 0.08893 0.99346 0.58673 0.0
H105 H 0.05146 0.02301 0.0048 0.0
H106 H 0.93311 0.01508 0.64381 0.0
H107 H 0.02882 0.0693 0.34546 0.0
H108 H 0.03406 -0.00022 0.89674 0.0
H109 H 0.08634 0.05234 0.98507 0.0
H110 H 0.02122 0.07205 0.48175 0.0
H111 H 0.12789 0.01611 0.55902 0.0
H112 H 0.11851 0.0703 0.8971 0.0
H113 H 0.13925 0.06873 0.77381 0.0
H114 H 0.90216 0.99007 0.57355 0.0
H115 H 0.14338 0.04785 0.64778 0.0
H116 H 0.00492 0.03942 0.26857 0.0
N117 N 0.95739 0.01886 0.55043 0.0
C118 C 0.96087 0.01527 0.4759 0.0
C119 C 0.91866 0.99693 0.54553 0.0
C120 C 0.94383 0.00121 0.43362 0.0
C121 C 0.93604 0.01114 0.58498 0.0
C122 C 0.92281 0.99153 0.46984 0.0
N123 N 0.99531 0.04221 0.48308 0.0
C124 C 0.01134 0.05833 0.44911 0.0
C125 C 0.98368 0.0255 0.36286 0.0
C126 C 0.98059 0.02717 0.44121 0.0
C127 C 0.00194 0.04017 0.32861 0.0
C128 C 0.01544 0.05707 0.37177 0.0
H129 H 0.90929 0.98059 0.43935 0.0
H130 H 0.93512 0.98707 0.32297 0.0
H131 H 0.97001 0.00843 0.26089 0.0
O132 O 0.96951 0.0722 0.56693 0.0
O133 O 0.98326 0.99899 0.61384 0.0
O134 O 0.02286 0.98422 0.60361 0.0
O135 O 0.96764 0.06593 0.68571 0.0
O136 O 0.02999 0.04588 0.59093 0.0
O137 O 0.04444 0.00626 0.58725 0.0
O138 O 0.03496 0.96431 0.78109 0.0
O139 O 0.02533 0.03008 0.76879 0.0
O140 O 0.02217 0.05735 0.67288 0.0
O141 O 0.06712 0.96474 0.70954 0.0
O142 O 0.00221 0.99006 0.75358 0.0
O143 O 0.97679 0.02401 0.7263 0.0
C144 C 0.99881 0.98114 0.59779 0.0
C145 C 0.97041 0.1076 0.64532 0.0
C146 C 0.98513 0.14748 0.5984 0.0
C147 C 0.98652 0.15632 0.67229 0.0
C148 C 0.9716 0.11695 0.71884 0.0
C149 C 0.97953 0.14117 0.73202 0.0
C150 C 0.97679 0.12322 0.58516 0.0
C151 C 0.04458 0.02903 0.56191 0.0
C152 C 0.96344 0.08144 0.63173 0.0
C153 C 0.94781 0.99808 0.35633 0.0
C154 C 0.96771 0.01022 0.321 0.0
C155 C 0.02612 0.05275 0.74364 0.0
C156 C 0.04891 0.92539 0.74007 0.0
C157 C 0.02976 0.88654 0.78171 0.0
C158 C 0.04315 0.87399 0.72541 0.0
C159 C 0.06202 0.9125 0.68438 0.0
C160 C 0.0324 0.91238 0.78687 0.0
C161 C 0.05891 0.88696 0.6768 0.0
C162 C 0.98191 0.00339 0.76283 0.0
C163 C 0.05367 0.95182 0.7558 0.0
H164 H 0.99283 0.175 0.6837 0.0
H165 H 0.96666 0.10547 0.76627 0.0
H166 H 0.9805 0.14816 0.78884 0.0
H167 H 0.97595 0.1164 0.52804 0.0
H168 H 0.04212 0.85409 0.7199 0.0
H169 H 0.07493 0.92201 0.64765 0.0
H170 H 0.02193 0.92253 0.82862 0.0
H171 H 0.06922 0.87706 0.63411 0.0
Eu172 Eu 0.5223 0.01383 0.66311 0.0
C173 C 0.45516 0.92381 0.60248 0.0
N174 N 0.47438 0.92964 0.55654 0.0
C175 C 0.48825 0.8876 0.55875 0.0
C176 C 0.45243 0.8998 0.63185 0.0
C177 C 0.48995 0.91163 0.5305 0.0
C178 C 0.46972 0.88178 0.61095 0.0
C179 C 0.41525 0.9352 0.65463 0.0
C180 C 0.43685 0.94121 0.61347 0.0
C181 C 0.41334 0.91199 0.68929 0.0
C182 C 0.4319 0.89428 0.67778 0.0
Eu183 Eu 0.4779 0.97158 0.51955 0.0
N184 N 0.43896 0.96303 0.57698 0.0
C185 C 0.39572 0.95215 0.65615 0.0
C186 C 0.419 0.97838 0.57169 0.0
C187 C 0.39737 0.97358 0.61295 0.0
H188 H 0.50441 0.91627 0.4906 0.0
H189 H 0.38199 0.98634 0.61114 0.0
H190 H 0.48234 0.03341 0.79782 0.0
H191 H 0.58579 0.07227 0.50295 0.0
H192 H 0.42007 0.99482 0.53749 0.0
H193 H 0.37885 0.94831 0.6874 0.0
H194 H 0.57149 0.03396 0.56588 0.0
H195 H 0.5012 0.8736 0.54027 0.0
H196 H 0.39707 0.90715 0.72211 0.0
H197 H 0.42966 0.87605 0.70192 0.0
H198 H 0.45691 0.07023 0.82514 0.0
H199 H 0.46829 0.86311 0.63228 0.0
H200 H 0.56048 0.11026 0.51164 0.0
N201 N 0.49996 0.04937 0.70255 0.0
C202 C 0.50493 0.07063 0.66523 0.0
C203 C 0.4701 0.07052 0.77921 0.0
C204 C 0.49153 0.09241 0.68036 0.0
C205 C 0.48426 0.04957 0.76284 0.0
C206 C 0.47328 0.09187 0.73642 0.0
N207 N 0.53846 0.05023 0.60821 0.0
C208 C 0.56052 0.05058 0.57025 0.0
C209 C 0.53236 0.09337 0.58217 0.0
C210 C 0.52507 0.07117 0.61718 0.0
C211 C 0.55424 0.09357 0.53948 0.0
C212 C 0.5686 0.07218 0.53456 0.0
H213 H 0.4625 0.10817 0.74965 0.0
H214 H 0.48733 0.13107 0.65193 0.0
H215 H 0.52302 0.13186 0.56525 0.0
O216 O 0.55558 0.99657 0.7126 0.0
O217 O 0.51856 0.02295 0.53889 0.0
O218 O 0.4779 0.01335 0.51387 0.0
O219 O 0.53769 0.02798 0.76719 0.0
O220 O 0.54546 0.99307 0.57623 0.0
O221 O 0.51926 0.97067 0.49508 0.0
O222 O 0.45329 0.95763 0.43188 0.0
O223 O 0.50635 0.95288 0.5925 0.0
O224 O 0.50244 0.97844 0.6908 0.0
O225 O 0.48768 0.9752 0.40111 0.0
O226 O 0.46253 0.00413 0.58578 0.0
O227 O 0.48299 0.00203 0.69769 0.0
C228 C 0.49759 0.02747 0.5045 0.0
C229 C 0.57313 0.01117 0.83189 0.0
C230 C 0.61009 0.99418 0.89194 0.0
C231 C 0.60436 0.00805 0.95671 0.0
C232 C 0.56825 0.02509 0.8968 0.0
C233 C 0.5838 0.02353 0.95861 0.0
C234 C 0.59426 0.99598 0.82928 0.0
C235 C 0.54135 0.97866 0.51724 0.0
C236 C 0.55523 0.01165 0.76954 0.0
C237 C 0.49764 0.11424 0.64191 0.0
C238 C 0.51801 0.11471 0.59275 0.0
C239 C 0.51092 0.95792 0.66265 0.0
C240 C 0.45416 0.98043 0.31969 0.0
C241 C 0.42407 0.01178 0.28372 0.0
C242 C 0.42963 0.00682 0.20789 0.0
C243 C 0.4595 0.97592 0.24407 0.0
C244 C 0.43685 0.99867 0.33948 0.0
C245 C 0.44736 0.98918 0.18846 0.0
C246 C 0.46282 0.00667 0.65891 0.0
C247 C 0.46688 0.96602 0.37725 0.0
H248 H 0.61538 0.00659 0.00702 0.0
H249 H 0.55208 0.03685 0.90054 0.0
H250 H 0.57962 0.03402 0.00883 0.0
H251 H 0.59815 0.98547 0.77885 0.0
H252 H 0.41983 0.01603 0.16325 0.0
H253 H 0.47298 0.96205 0.22807 0.0
H254 H 0.43327 0.00244 0.3982 0.0
H255 H 0.45139 0.98548 0.13003 0.0
Eu256 Eu 0.5359 0.50676 0.53536 0.0
C257 C 0.46614 0.50227 0.80626 0.0
N258 N 0.46866 0.52231 0.76132 0.0
C259 C 0.42434 0.52402 0.74749 0.0
C260 C 0.44271 0.49144 0.82021 0.0
C261 C 0.44795 0.53439 0.73703 0.0
C262 C 0.42177 0.50205 0.78763 0.0
C263 C 0.48458 0.47556 0.89902 0.0
C264 C 0.48668 0.49443 0.8451 0.0
C265 C 0.4617 0.46346 0.90919 0.0
C266 C 0.44077 0.47135 0.86963 0.0
Eu267 Eu 0.51026 0.53574 0.73659 0.0
N268 N 0.50827 0.50685 0.835 0.0
C269 C 0.50524 0.47028 0.94339 0.0
C270 C 0.52803 0.5029 0.88085 0.0
C271 C 0.52691 0.48439 0.93533 0.0
H272 H 0.44958 0.55184 0.708 0.0
H273 H 0.54282 0.48082 0.97039 0.0
H274 H 0.57951 0.54219 0.4589 0.0
H275 H 0.46214 0.4554 0.39344 0.0
H276 H 0.54489 0.51357 0.87339 0.0
H277 H 0.50442 0.4559 0.98542 0.0
H278 H 0.49155 0.46505 0.49569 0.0
H279 H 0.40813 0.53311 0.7253 0.0
H280 H 0.45978 0.44862 0.9494 0.0
H281 H 0.423 0.46253 0.88016 0.0
H282 H 0.5873 0.56512 0.34118 0.0
H283 H 0.40343 0.49425 0.79661 0.0
H284 H 0.46261 0.48022 0.27753 0.0
N285 N 0.54526 0.52706 0.42185 0.0
C286 C 0.52903 0.52454 0.36477 0.0
C287 C 0.57074 0.55387 0.34716 0.0
C288 C 0.53259 0.53716 0.29663 0.0
C289 C 0.56633 0.54087 0.41357 0.0
C290 C 0.55359 0.55232 0.28876 0.0
N291 N 0.50833 0.49514 0.438 0.0
C292 C 0.49192 0.47597 0.44513 0.0
C293 C 0.49338 0.50323 0.31351 0.0
C294 C 0.50981 0.50795 0.37315 0.0
C295 C 0.47556 0.48452 0.32203 0.0
C296 C 0.47518 0.47051 0.38757 0.0
H297 H 0.55705 0.56236 0.23732 0.0
H298 H 0.5178 0.54326 0.18548 0.0
H299 H 0.48338 0.51343 0.20027 0.0
O300 O 0.55688 0.47899 0.47322 0.0
O301 O 0.5345 0.5491 0.54131 0.0
O302 O 0.50697 0.56147 0.63676 0.0
O303 O 0.56629 0.48675 0.58848 0.0
O304 O 0.49719 0.50195 0.58121 0.0
O305 O 0.48438 0.53749 0.63595 0.0
O306 O 0.53252 0.56768 0.77059 0.0
O307 O 0.53211 0.50001 0.72552 0.0
O308 O 0.51545 0.48301 0.62059 0.0
O309 O 0.50017 0.55784 0.83481 0.0
O310 O 0.54986 0.5248 0.71142 0.0
O311 O 0.56072 0.53486 0.59261 0.0
C312 C 0.52081 0.56587 0.5767 0.0
C313 C 0.5641 0.4448 0.55311 0.0
C314 C 0.53999 0.40644 0.53823 0.0
C315 C 0.55051 0.39761 0.60499 0.0
C316 C 0.57464 0.4353 0.61862 0.0
C317 C 0.56789 0.41184 0.64417 0.0
C318 C 0.54728 0.43 0.5124 0.0
C319 C 0.48167 0.52024 0.58489 0.0
C320 C 0.56812 0.47109 0.5331 0.0
C321 C 0.51556 0.53357 0.23811 0.0
C322 C 0.49596 0.51661 0.24656 0.0
C323 C 0.52362 0.48063 0.68924 0.0
C324 C 0.51137 0.59998 0.82999 0.0
C325 C 0.52019 0.64127 0.87896 0.0
C326 C 0.49985 0.65032 0.83825 0.0
C327 C 0.49131 0.60932 0.7894 0.0
C328 C 0.52581 0.61594 0.87404 0.0
C329 C 0.48561 0.63443 0.79364 0.0
C330 C 0.56384 0.53741 0.66501 0.0
C331 C 0.51801 0.5738 0.82561 0.0
H332 H 0.54512 0.37989 0.6279 0.0
H333 H 0.58744 0.44636 0.65143 0.0
H334 H 0.57572 0.40488 0.69564 0.0
H335 H 0.53962 0.43704 0.46084 0.0
H336 H 0.49473 0.66962 0.84147 0.0
H337 H 0.48013 0.59722 0.75457 0.0
H338 H 0.54166 0.60858 0.90358 0.0
H339 H 0.47006 0.64159 0.76245 0.0
Eu340 Eu 0.00395 0.51456 0.59859 0.0
C341 C 0.01175 0.44428 0.8656 0.0
N342 N 0.00418 0.43841 0.79516 0.0
C343 C 0.03093 0.40328 0.79268 0.0
C344 C 0.03013 0.4302 0.90134 0.0
C345 C 0.01286 0.41794 0.75907 0.0
C346 C 0.0397 0.4095 0.86393 0.0
C347 C 0.00867 0.47088 0.975 0.0
C348 C 0.00106 0.46445 0.90191 0.0
C349 C 0.02761 0.45741 0.00972 0.0
C350 C 0.03821 0.43706 0.97317 0.0
Eu351 Eu 0.97378 0.46399 0.74314 0.0
N352 N 0.98266 0.47714 0.8671 0.0
C353 C 0.99659 0.49029 0.01188 0.0
C354 C 0.96949 0.49467 0.90539 0.0
C355 C 0.97664 0.50192 0.97741 0.0
H356 H 0.00598 0.41317 0.70405 0.0
H357 H 0.96649 0.51623 0.00677 0.0
H358 H 0.00092 0.57077 0.68033 0.0
H359 H 0.97192 0.49014 0.31787 0.0
H360 H 0.95313 0.50285 0.88168 0.0
H361 H 0.00194 0.49582 0.06797 0.0
H362 H 0.99844 0.48734 0.43067 0.0
H363 H 0.03808 0.3872 0.76371 0.0
H364 H 0.03381 0.46225 0.06556 0.0
H365 H 0.05245 0.42659 0.00134 0.0
H366 H 0.97412 0.60767 0.67655 0.0
H367 H 0.05369 0.39809 0.88979 0.0
H368 H 0.94011 0.5229 0.30974 0.0
N369 N 0.9822 0.55249 0.59117 0.0
C370 C 0.96548 0.55464 0.53505 0.0
C371 C 0.9713 0.59277 0.63683 0.0
C372 C 0.95016 0.57558 0.52938 0.0
C373 C 0.98629 0.57175 0.63923 0.0
C374 C 0.9528 0.59448 0.58255 0.0
N375 N 0.9813 0.51774 0.48545 0.0
C376 C 0.98477 0.50181 0.42673 0.0
C377 C 0.94966 0.53913 0.417 0.0
C378 C 0.9652 0.53677 0.47979 0.0
C379 C 0.95176 0.52178 0.3589 0.0
C380 C 0.96975 0.50331 0.36317 0.0
H381 H 0.94134 0.61085 0.58037 0.0
H382 H 0.9213 0.59314 0.46453 0.0
H383 H 0.92078 0.56109 0.3661 0.0
O384 O 0.03555 0.5064 0.52673 0.0
O385 O 0.96994 0.49201 0.56712 0.0
O386 O 0.94755 0.48791 0.67587 0.0
O387 O 0.03245 0.54271 0.57523 0.0
O388 O 0.01602 0.47438 0.59054 0.0
O389 O 0.98348 0.44915 0.62781 0.0
O390 O 0.95036 0.44509 0.82466 0.0
O391 O 0.01556 0.46896 0.72979 0.0
O392 O 0.01965 0.51065 0.71509 0.0
O393 O 0.94858 0.43409 0.7086 0.0
O394 O 0.95936 0.50323 0.74955 0.0
O395 O 0.99327 0.52718 0.71669 0.0
C396 C 0.94875 0.49046 0.60288 0.0
C397 C 0.07259 0.52487 0.56281 0.0
C398 C 0.11348 0.50772 0.53504 0.0
C399 C 0.12037 0.51192 0.61001 0.0
C400 C 0.07968 0.52872 0.63756 0.0
C401 C 0.10359 0.5225 0.66066 0.0
C402 C 0.08967 0.51485 0.51181 0.0
C403 C 0.0018 0.45475 0.58142 0.0
C404 C 0.04664 0.52734 0.53899 0.0
C405 C 0.93349 0.57737 0.46933 0.0
C406 C 0.93321 0.55914 0.41323 0.0
C407 C 0.02714 0.4898 0.74402 0.0
C408 C 0.91075 0.43697 0.77536 0.0
C409 C 0.87497 0.46204 0.81213 0.0
C410 C 0.85928 0.44496 0.77594 0.0
C411 C 0.89479 0.42011 0.73996 0.0
C412 C 0.90073 0.45809 0.81023 0.0
C413 C 0.86919 0.4242 0.73996 0.0
C414 C 0.97134 0.52449 0.74859 0.0
C415 C 0.93783 0.4331 0.77403 0.0
H416 H 0.1384 0.50634 0.63019 0.0
H417 H 0.0666 0.53584 0.67842 0.0
H418 H 0.10888 0.52521 0.71856 0.0
H419 H 0.08397 0.51182 0.45431 0.0
H420 H 0.83934 0.44733 0.77677 0.0
H421 H 0.90215 0.40388 0.71212 0.0
H422 H 0.91301 0.47159 0.83582 0.0
H423 H 0.85695 0.4111 0.71256 0.0
H424 H 0.14768 0.11982 0.39864 0.0
H425 H 0.1668 0.06248 0.23801 0.0
H426 H 0.13299 0.03616 0.28797 0.0
H427 H 0.13403 0.08069 0.54996 0.0
H428 H 0.10801 0.09809 0.58516 0.0
H429 H 0.1326 0.11354 0.53487 0.0
H430 H 0.10148 0.13095 0.43908 0.0
H431 H 0.07643 0.11634 0.4898 0.0
H432 H 0.08056 0.11016 0.39125 0.0
H433 H 0.09854 0.01513 0.36074 0.0
H434 H 0.06497 0.00196 0.44768 0.0
H435 H 0.06803 0.07357 0.55714 0.0
C436 C 0.14467 0.1018 0.37357 0.0
C437 C 0.15991 0.09318 0.31451 0.0
C438 C 0.15532 0.0695 0.28319 0.0
C439 C 0.13618 0.0544 0.31121 0.0
C440 C 0.12165 0.06338 0.36996 0.0
C441 C 0.12552 0.08663 0.4003 0.0
C442 C 0.10752 0.09181 0.46373 0.0
C443 C 0.12136 0.09629 0.53783 0.0
C444 C 0.09049 0.11361 0.4448 0.0
C445 C 0.09322 0.0677 0.4651 0.0
C446 C 0.10159 0.05151 0.41067 0.0
C447 C 0.09168 0.02775 0.40311 0.0
C448 C 0.07273 0.0204 0.45262 0.0
C449 C 0.06394 0.03683 0.50839 0.0
C450 C 0.07422 0.06078 0.51419 0.0
H451 H 0.42525 0.14785 0.37872 0.0
H452 H 0.49085 0.16923 0.25191 0.0
H453 H 0.51232 0.13175 0.29561 0.0
H454 H 0.45705 0.12253 0.53713 0.0
H455 H 0.43572 0.09711 0.55019 0.0
H456 H 0.42503 0.12572 0.51068 0.0
H457 H 0.4085 0.10268 0.39562 0.0
H458 H 0.41905 0.07352 0.43098 0.0
H459 H 0.42915 0.08394 0.3399 0.0
H460 H 0.52674 0.09188 0.35411 0.0
H461 H 0.53199 0.05172 0.41855 0.0
H462 H 0.45656 0.0563 0.50248 0.0
C463 C 0.44418 0.14474 0.36044 0.0
C464 C 0.45644 0.1615 0.31219 0.0
C465 C 0.4811 0.15661 0.28885 0.0
C466 C 0.49349 0.13543 0.31355 0.0
C467 C 0.48088 0.1193 0.36118 0.0
C468 C 0.45673 0.12364 0.38408 0.0
C469 C 0.44709 0.10304 0.43356 0.0
C470 C 0.44086 0.11267 0.51259 0.0
C471 C 0.42461 0.09001 0.39787 0.0
C472 C 0.4695 0.08639 0.43441 0.0
C473 C 0.48892 0.09615 0.39306 0.0
C474 C 0.51163 0.08404 0.38649 0.0
C475 C 0.51448 0.06135 0.42323 0.0
C476 C 0.49468 0.05108 0.46522 0.0
C477 C 0.47194 0.06372 0.47036 0.0
H478 H 0.36621 0.44477 0.4367 0.0
H479 H 0.36714 0.49261 0.24195 0.0
H480 H 0.39943 0.51853 0.30141 0.0
H481 H 0.37685 0.49474 0.57602 0.0
H482 H 0.39589 0.47537 0.63384 0.0
H483 H 0.37119 0.4619 0.57914 0.0
H484 H 0.40244 0.43208 0.51885 0.0
H485 H 0.42776 0.4456 0.57031 0.0
H486 H 0.42903 0.44404 0.46954 0.0
H487 H 0.43325 0.53788 0.37863 0.0
H488 H 0.46792 0.54744 0.46527 0.0
H489 H 0.44515 0.48677 0.60773 0.0
C490 C 0.37303 0.46083 0.40679 0.0
C491 C 0.36415 0.46668 0.33468 0.0
C492 C 0.37362 0.4878 0.29733 0.0
C493 C 0.39188 0.50271 0.33076 0.0
C494 C 0.40025 0.49638 0.40182 0.0
C495 C 0.39111 0.47597 0.43952 0.0
C496 C 0.40406 0.47254 0.51385 0.0
C497 C 0.38591 0.47637 0.57958 0.0
C498 C 0.41659 0.44709 0.51835 0.0
C499 C 0.4228 0.49341 0.51007 0.0
C500 C 0.41986 0.50741 0.44607 0.0
C501 C 0.43547 0.52734 0.42952 0.0
C502 C 0.45492 0.53277 0.47901 0.0
C503 C 0.45855 0.51811 0.54317 0.0
C504 C 0.44219 0.49847 0.55946 0.0
H505 H 0.95432 0.36712 0.25482 0.0
H506 H 0.02826 0.37073 0.15781 0.0
H507 H 0.04067 0.40099 0.25503 0.0
H508 H 0.95093 0.4329 0.31745 0.0
H509 H 0.93427 0.4243 0.40122 0.0
H510 H 0.93064 0.40628 0.31688 0.0
H511 H 0.94318 0.36707 0.39113 0.0
H512 H 0.94756 0.38525 0.47462 0.0
H513 H 0.9726 0.36659 0.43884 0.0
H514 H 0.04579 0.42833 0.36969 0.0
H515 H 0.04286 0.4508 0.49058 0.0
H516 H 0.96616 0.42696 0.5137 0.0
C517 C 0.97293 0.37476 0.25265 0.0
C518 C 0.9903 0.36668 0.19855 0.0
C519 C 0.01462 0.37676 0.19861 0.0
C520 C 0.02183 0.39395 0.25356 0.0
C521 C 0.00447 0.40083 0.30781 0.0
C522 C 0.98045 0.39169 0.30729 0.0
C523 C 0.96587 0.40043 0.37485 0.0
C524 C 0.94415 0.41696 0.35115 0.0
C525 C 0.95678 0.37853 0.42265 0.0
C526 C 0.98565 0.41522 0.4148 0.0
C527 C 0.00768 0.41566 0.37483 0.0
C528 C 0.0286 0.42817 0.40128 0.0
C529 C 0.02682 0.44074 0.47006 0.0
C530 C 0.00441 0.44028 0.51183 0.0
C531 C 0.98368 0.42728 0.48368 0.0
H532 H 0.89286 0.89659 0.91132 0.0
H533 H 0.85182 0.95293 0.03245 0.0
H534 H 0.88237 0.9844 0.99193 0.0
H535 H 0.955 0.9218 0.95364 0.0
H536 H 0.96728 0.91364 0.86282 0.0
H537 H 0.94295 0.89521 0.90436 0.0
H538 H 0.9158 0.90156 0.78635 0.0
H539 H 0.94025 0.91977 0.74488 0.0
H540 H 0.90956 0.93251 0.75465 0.0
H541 H 0.91451 0.01037 0.92654 0.0
H542 H 0.94867 0.02837 0.85059 0.0
H543 H 0.97049 0.95475 0.78057 0.0
C544 C 0.89048 0.9155 0.92996 0.0
C545 C 0.86996 0.92239 0.97478 0.0
C546 C 0.86748 0.94727 0.99834 0.0
C547 C 0.8847 0.96527 0.97552 0.0
C548 C 0.90453 0.95797 0.93042 0.0
C549 C 0.90777 0.93361 0.90892 0.0
C550 C 0.93055 0.93072 0.85961 0.0
C551 C 0.95009 0.91438 0.89742 0.0
C552 C 0.9236 0.92055 0.78178 0.0
C553 C 0.93916 0.95735 0.85523 0.0
C554 C 0.92385 0.97281 0.89608 0.0
C555 C 0.92696 0.99842 0.89559 0.0
C556 C 0.94627 0.00849 0.85221 0.0
C557 C 0.96235 0.9929 0.81107 0.0
C558 C 0.95882 0.96703 0.81319 0.0
H559 H 0.58017 0.89756 0.01061 0.0
H560 H 0.63228 0.86629 0.85045 0.0
H561 H 0.61105 0.88797 0.74806 0.0
H562 H 0.52681 0.89303 0.89533 0.0
H563 H 0.51351 0.92182 0.92646 0.0
H564 H 0.53342 0.9047 0.9879 0.0
H565 H 0.56107 0.94323 0.00342 0.0
H566 H 0.54233 0.96077 0.93948 0.0
H567 H 0.57509 0.95723 0.92242 0.0
H568 H 0.58203 0.90931 0.66224 0.0
H569 H 0.54891 0.93219 0.59847 0.0
H570 H 0.51714 0.95244 0.81384 0.0
C571 C 0.5873 0.89554 0.95412 0.0
C572 C 0.60787 0.88022 0.93846 0.0
C573 C 0.6166 0.87797 0.86381 0.0
C574 C 0.60461 0.89013 0.80521 0.0
C575 C 0.58415 0.90473 0.82233 0.0
C576 C 0.57572 0.90778 0.89496 0.0
C577 C 0.55302 0.92421 0.89768 0.0
C578 C 0.53035 0.91009 0.92866 0.0
C579 C 0.55816 0.94777 0.94346 0.0
C580 C 0.55001 0.92983 0.81512 0.0
C581 C 0.56804 0.91817 0.77272 0.0
C582 C 0.56805 0.91889 0.69479 0.0
C583 C 0.5491 0.93186 0.6591 0.0
C584 C 0.53069 0.94433 0.70138 0.0
C585 C 0.53128 0.94342 0.78037 0.0
H586 H 0.65539 0.59655 0.96582 0.0
H587 H 0.6849 0.64255 0.78724 0.0
H588 H 0.65285 0.62629 0.70164 0.0
H589 H 0.64351 0.54441 0.85916 0.0
H590 H 0.61485 0.53597 0.90518 0.0
H591 H 0.63806 0.55333 0.95524 0.0
H592 H 0.6058 0.58731 0.98508 0.0
H593 H 0.58233 0.57021 0.9348 0.0
H594 H 0.58922 0.60174 0.90965 0.0
H595 H 0.62048 0.60208 0.63226 0.0
H596 H 0.58905 0.57261 0.58526 0.0
H597 H 0.58062 0.54242 0.80905 0.0
C598 C 0.65483 0.60357 0.90913 0.0
C599 C 0.67266 0.62082 0.88321 0.0
C600 C 0.67139 0.6294 0.80844 0.0
C601 C 0.65324 0.62029 0.75938 0.0
C602 C 0.63634 0.60284 0.78619 0.0
C603 C 0.63677 0.59477 0.85955 0.0
C604 C 0.61729 0.57498 0.87321 0.0
C605 C 0.62915 0.55074 0.89973 0.0
C606 C 0.59749 0.58411 0.92899 0.0
C607 C 0.60668 0.57236 0.79524 0.0
C608 C 0.61766 0.58885 0.74612 0.0
C609 C 0.61159 0.58924 0.67036 0.0
C610 C 0.59385 0.57231 0.64411 0.0
C611 C 0.58248 0.55516 0.69349 0.0
C612 C 0.58894 0.55536 0.77005 0.0
H613 H 0.96396 0.64745 0.99512 0.0
H614 H 0.8839 0.64375 0.96968 0.0
H615 H 0.8883 0.60609 0.8923 0.0
H616 H 0.97885 0.62795 0.80749 0.0
H617 H 0.00548 0.61006 0.83426 0.0
H618 H 0.99646 0.63656 0.8892 0.0
H619 H 0.99356 0.60964 0.00852 0.0
H620 H 0.00301 0.58306 0.95471 0.0
H621 H 0.97449 0.58215 0.00783 0.0
H622 H 0.90119 0.56827 0.8216 0.0
H623 H 0.92196 0.53353 0.75744 0.0
H624 H 0.99372 0.56258 0.82475 0.0
C625 C 0.94735 0.63871 0.97334 0.0
C626 C 0.92357 0.64848 0.98854 0.0
C627 C 0.9023 0.63661 0.95859 0.0
C628 C 0.9046 0.61521 0.91468 0.0
C629 C 0.92831 0.60609 0.90073 0.0
C630 C 0.94932 0.6175 0.92877 0.0
C631 C 0.97264 0.60402 0.90477 0.0
C632 C 0.98934 0.62063 0.85602 0.0
C633 C 0.98675 0.59413 0.97303 0.0
C634 C 0.96142 0.58316 0.85927 0.0
C635 C 0.93581 0.58465 0.85797 0.0
C636 C 0.92123 0.56703 0.82164 0.0
C637 C 0.93318 0.54737 0.78559 0.0
C638 C 0.95939 0.54566 0.78564 0.0
C639 C 0.97367 0.56378 0.82289 0.0
H640 H 0.96546 0.22557 0.22543 0.0
H641 H 0.0403 0.25379 0.25448 0.0
H642 H 0.04599 0.22614 0.36265 0.0
H643 H 0.94995 0.22173 0.41559 0.0
H644 H 0.93235 0.1934 0.40824 0.0
H645 H 0.93487 0.21366 0.32883 0.0
H646 H 0.95235 0.1778 0.24809 0.0
H647 H 0.94971 0.15734 0.3272 0.0
H648 H 0.97914 0.16112 0.28008 0.0
H649 H 0.04193 0.19889 0.47563 0.0
H650 H 0.02936 0.17147 0.58009 0.0
H651 H 0.9578 0.1597 0.47542 0.0
C652 C 0.98319 0.22553 0.25378 0.0
C653 C 0.00265 0.2414 0.23067 0.0
C654 C 0.02546 0.24118 0.26972 0.0
C655 C 0.02877 0.22571 0.33168 0.0
C656 C 0.00915 0.21044 0.35352 0.0
C657 C 0.98691 0.20997 0.3152 0.0
C658 C 0.96852 0.1924 0.35166 0.0
C659 C 0.94505 0.20613 0.37762 0.0
C660 C 0.96206 0.17089 0.29859 0.0
C661 C 0.98364 0.18363 0.41765 0.0
C662 C 0.00703 0.19427 0.41774 0.0
C663 C 0.02381 0.19015 0.47555 0.0
C664 C 0.0165 0.17471 0.53472 0.0
C665 C 0.99274 0.16345 0.53518 0.0
C666 C 0.97621 0.16784 0.4756 0.0
H667 H 0.32345 0.11193 0.18324 0.0
H668 H 0.2794 0.08303 0.36736 0.0
H669 H 0.3154 0.05899 0.41052 0.0
H670 H 0.35545 0.05826 0.13718 0.0
H671 H 0.38427 0.07379 0.11663 0.0
H672 H 0.35556 0.09022 0.10777 0.0
H673 H 0.37393 0.12333 0.19729 0.0
H674 H 0.40174 0.10564 0.21214 0.0
H675 H 0.38275 0.11481 0.29074 0.0
H676 H 0.35324 0.03308 0.42087 0.0
H677 H 0.39027 0.0077 0.39893 0.0
H678 H 0.41126 0.05496 0.21266 0.0
C679 C 0.32148 0.10061 0.23279 0.0
C680 C 0.29858 0.09896 0.27137 0.0
C681 C 0.29682 0.08452 0.3371 0.0
C682 C 0.31717 0.07087 0.36214 0.0
C683 C 0.33934 0.07238 0.32186 0.0
C684 C 0.34176 0.08715 0.25917 0.0
C685 C 0.36724 0.08438 0.22378 0.0
C686 C 0.36548 0.07619 0.1414 0.0
C687 C 0.38232 0.10846 0.23148 0.0
C688 C 0.37782 0.06414 0.27229 0.0
C689 C 0.36172 0.05796 0.32978 0.0
C690 C 0.36631 0.03815 0.37726 0.0
C691 C 0.3875 0.02383 0.36434 0.0
C692 C 0.40383 0.02925 0.30395 0.0
C693 C 0.39913 0.05015 0.25893 0.0
H694 H 0.47915 0.2829 0.36877 0.0
H695 H 0.43207 0.32982 0.23467 0.0
H696 H 0.45009 0.36689 0.29613 0.0
H697 H 0.47882 0.31958 0.53897 0.0
H698 H 0.5111 0.31422 0.55887 0.0
H699 H 0.49339 0.29138 0.50806 0.0
H700 H 0.52546 0.29286 0.39929 0.0
H701 H 0.54332 0.31554 0.45009 0.0
H702 H 0.53293 0.32211 0.35645 0.0
H703 H 0.47206 0.3985 0.37632 0.0
H704 H 0.50031 0.42289 0.45511 0.0
H705 H 0.53677 0.35545 0.52551 0.0
C706 C 0.4726 0.30102 0.35281 0.0
C707 C 0.4542 0.30367 0.29745 0.0
C708 C 0.44627 0.32755 0.2768 0.0
C709 C 0.45625 0.34863 0.31176 0.0
C710 C 0.47438 0.34542 0.36631 0.0
C711 C 0.48281 0.32224 0.38578 0.0
C712 C 0.50368 0.32398 0.4422 0.0
C713 C 0.4963 0.31155 0.51642 0.0
C714 C 0.52777 0.31298 0.41006 0.0
C715 C 0.50571 0.35175 0.45134 0.0
C716 C 0.48831 0.36373 0.40828 0.0
C717 C 0.48609 0.38932 0.40911 0.0
C718 C 0.50249 0.40308 0.4537 0.0
C719 C 0.52141 0.39137 0.49563 0.0
C720 C 0.52264 0.36523 0.4948 0.0
H721 H 0.24345 0.47023 0.34979 0.0
H722 H 0.20259 0.42055 0.2037 0.0
H723 H 0.16318 0.43427 0.26146 0.0
H724 H 0.20627 0.46098 0.51294 0.0
H725 H 0.20805 0.49271 0.54373 0.0
H726 H 0.23292 0.47969 0.4889 0.0
H727 H 0.22834 0.51467 0.39123 0.0
H728 H 0.20352 0.52787 0.44593 0.0
H729 H 0.19854 0.52 0.34892 0.0
H730 H 0.12865 0.45175 0.3398 0.0
H731 H 0.101 0.47296 0.4291 0.0
H732 H 0.16431 0.51248 0.52167 0.0
C733 C 0.22617 0.46235 0.32981 0.0
C734 C 0.22593 0.4447 0.27137 0.0
C735 C 0.20306 0.43465 0.24682 0.0
C736 C 0.18064 0.44214 0.27983 0.0
C737 C 0.1815 0.45967 0.33722 0.0
C738 C 0.20365 0.46975 0.36176 0.0
C739 C 0.19948 0.48817 0.42461 0.0
C740 C 0.21245 0.47988 0.49681 0.0
C741 C 0.20797 0.51422 0.40125 0.0
C742 C 0.17153 0.48664 0.43232 0.0
C743 C 0.16154 0.47008 0.38147 0.0
C744 C 0.13621 0.46502 0.37917 0.0
C745 C 0.12064 0.47734 0.42988 0.0
C746 C 0.13037 0.49473 0.48192 0.0
C747 C 0.15624 0.49929 0.48294 0.0
H748 H 0.95378 0.77162 0.94767 0.0
H749 H 0.9486 0.81226 0.15703 0.0
H750 H 0.96975 0.84782 0.09867 0.0
H751 H 0.01194 0.7924 0.88889 0.0
H752 H 0.00415 0.79558 0.79132 0.0
H753 H 0.98773 0.77353 0.84852 0.0
H754 H 0.94583 0.79365 0.81332 0.0
H755 H 0.96214 0.81565 0.75533 0.0
H756 H 0.94158 0.82633 0.82835 0.0
H757 H 0.99589 0.87654 0.02219 0.0
H758 H 0.02107 0.89878 0.92986 0.0
H759 H 0.00384 0.84242 0.76312 0.0
C760 C 0.95684 0.7881 0.98103 0.0
C761 C 0.95069 0.78869 0.05814 0.0
C762 C 0.95463 0.81073 0.09946 0.0
C763 C 0.96616 0.83124 0.06625 0.0
C764 C 0.97291 0.82968 0.99098 0.0
C765 C 0.96788 0.80893 0.94831 0.0
C766 C 0.97713 0.81207 0.86854 0.0
C767 C 0.99638 0.79222 0.84817 0.0
C768 C 0.95537 0.81192 0.81312 0.0
C769 C 0.98897 0.83746 0.87392 0.0
C770 C 0.98631 0.84725 0.94504 0.0
C771 C 0.99745 0.86946 0.96559 0.0
C772 C 0.01161 0.88211 0.91199 0.0
C773 C 0.01417 0.87288 0.83766 0.0
C774 C 0.00244 0.85022 0.81886 0.0
H775 H 0.73988 0.94416 0.03882 0.0
H776 H 0.72729 0.87724 0.90996 0.0
H777 H 0.68824 0.89487 0.86058 0.0
H778 H 0.67669 0.95508 0.09068 0.0
H779 H 0.67926 0.98817 0.0824 0.0
H780 H 0.70614 0.97026 0.10601 0.0
H781 H 0.72998 0.98896 0.99297 0.0
H782 H 0.70313 0.00688 0.96885 0.0
H783 H 0.71689 0.98648 0.90045 0.0
H784 H 0.64974 0.91971 0.82959 0.0
H785 H 0.61486 0.94893 0.82083 0.0
H786 H 0.65478 0.00044 0.96429 0.0
C787 C 0.72873 0.93309 0.00099 0.0
C788 C 0.73622 0.90917 0.97929 0.0
C789 C 0.72169 0.89558 0.9275 0.0
C790 C 0.69954 0.90543 0.89928 0.0
C791 C 0.69252 0.92904 0.92251 0.0
C792 C 0.7068 0.94272 0.97189 0.0
C793 C 0.69533 0.96764 0.98799 0.0
C794 C 0.68898 0.97043 0.07174 0.0
C795 C 0.71235 0.98873 0.96092 0.0
C796 C 0.67213 0.96573 0.94095 0.0
C797 C 0.67079 0.94339 0.90354 0.0
C798 C 0.65056 0.93726 0.85868 0.0
C799 C 0.63093 0.95415 0.85342 0.0
C800 C 0.63178 0.97709 0.89219 0.0
C801 C 0.65306 0.98297 0.93504 0.0
H802 H 0.58749 0.76808 0.99058 0.0
H803 H 0.61323 0.73196 0.19201 0.0
H804 H 0.59203 0.6934 0.15316 0.0
H805 H 0.52805 0.73946 0.98107 0.0
H806 H 0.52823 0.73627 0.88052 0.0
H807 H 0.54544 0.76098 0.92426 0.0
H808 H 0.58565 0.74639 0.85753 0.0
H809 H 0.56851 0.72173 0.8132 0.0
H810 H 0.59558 0.71484 0.86811 0.0
H811 H 0.56681 0.65922 0.09363 0.0
H812 H 0.54098 0.63149 0.01611 0.0
H813 H 0.53413 0.68931 0.84941 0.0
C814 C 0.58876 0.752 0.0263 0.0
C815 C 0.60124 0.75321 0.09562 0.0
C816 C 0.60274 0.73176 0.14048 0.0
C817 C 0.59107 0.70969 0.11831 0.0
C818 C 0.57836 0.7093 0.05047 0.0
C819 C 0.57738 0.72981 0.00474 0.0
C820 C 0.56263 0.72453 0.93442 0.0
C821 C 0.53973 0.74131 0.92985 0.0
C822 C 0.57908 0.72701 0.86417 0.0
C823 C 0.55525 0.69789 0.94805 0.0
C824 C 0.5645 0.68944 0.01524 0.0
C825 C 0.55969 0.66556 0.04051 0.0
C826 C 0.54509 0.6499 0.99577 0.0
C827 C 0.53554 0.6581 0.92626 0.0
C828 C 0.54083 0.68247 0.90247 0.0
H829 H 0.77927 0.57078 0.90205 0.0
H830 H 0.81764 0.58162 0.1127 0.0
H831 H 0.84779 0.54929 0.07707 0.0
H832 H 0.78521 0.50584 0.89294 0.0
H833 H 0.7902 0.5046 0.79308 0.0
H834 H 0.77245 0.52941 0.83353 0.0
H835 H 0.80213 0.56184 0.77277 0.0
H836 H 0.81909 0.53679 0.73077 0.0
H837 H 0.83512 0.55932 0.78762 0.0
H838 H 0.87255 0.51466 0.02051 0.0
H839 H 0.89013 0.48 0.94817 0.0
H840 H 0.8362 0.49231 0.77234 0.0
C841 C 0.79419 0.56649 0.94027 0.0
C842 C 0.79588 0.57826 0.01079 0.0
C843 C 0.81558 0.57221 0.05946 0.0
C844 C 0.83294 0.55411 0.03928 0.0
C845 C 0.83043 0.54244 0.96994 0.0
C846 C 0.81161 0.54844 0.92105 0.0
C847 C 0.8126 0.53262 0.85092 0.0
C848 C 0.7887 0.5172 0.84216 0.0
C849 C 0.81755 0.54862 0.78143 0.0
C850 C 0.83464 0.51644 0.86853 0.0
C851 C 0.8448 0.52258 0.93714 0.0
C852 C 0.86491 0.50985 0.96638 0.0
C853 C 0.87484 0.49025 0.92461 0.0
C854 C 0.86465 0.48346 0.85429 0.0
C855 C 0.84433 0.49691 0.82601 0.0
H856 H 0.07376 0.18525 0.87982 0.0
H857 H 0.05213 0.16303 0.10458 0.0
H858 H 0.04138 0.1216 0.05734 0.0
H859 H 0.02757 0.15747 0.78639 0.0
H860 H 0.04429 0.14553 0.70637 0.0
H861 H 0.05557 0.17252 0.75492 0.0
H862 H 0.09787 0.15285 0.78219 0.0
H863 H 0.08828 0.1262 0.72852 0.0
H864 H 0.09914 0.12247 0.82311 0.0
H865 H 0.02702 0.08534 0.98465 0.0
H866 H 0.01534 0.05351 0.89208 0.0
H867 H 0.0477 0.09782 0.71429 0.0
C868 C 0.06745 0.17145 0.91944 0.0
C869 C 0.06369 0.17744 0.99585 0.0
C870 C 0.05523 0.15891 0.04586 0.0
C871 C 0.04901 0.13531 0.01956 0.0
C872 C 0.05184 0.13036 0.94346 0.0
C873 C 0.06151 0.14761 0.89429 0.0
C874 C 0.06161 0.13773 0.81458 0.0
C875 C 0.04635 0.15428 0.76244 0.0
C876 C 0.08832 0.13463 0.7854 0.0
C877 C 0.04921 0.11285 0.82637 0.0
C878 C 0.04399 0.10895 0.90129 0.0
C879 C 0.03159 0.08788 0.92608 0.0
C880 C 0.02505 0.06992 0.87316 0.0
C881 C 0.03117 0.07302 0.79662 0.0
C882 C 0.043 0.09496 0.77269 0.0
H883 H 0.36499 0.02951 0.98975 0.0
H884 H 0.3316 0.08516 0.84841 0.0
H885 H 0.36192 0.07564 0.74826 0.0
H886 H 0.42782 0.04305 0.93631 0.0
H887 H 0.43783 0.01135 0.9394 0.0
H888 H 0.41271 0.02151 0.99866 0.0
H889 H 0.38425 0.98722 0.94328 0.0
H890 H 0.40937 0.97697 0.88406 0.0
H891 H 0.38008 0.98532 0.84323 0.0
H892 H 0.39528 0.0599 0.66341 0.0
H893 H 0.4314 0.04072 0.60158 0.0
H894 H 0.44492 0.99688 0.79993 0.0
C895 C 0.36391 0.03945 0.93733 0.0
C896 C 0.34581 0.05788 0.92627 0.0
C897 C 0.34528 0.07093 0.85775 0.0
C898 C 0.36237 0.06561 0.80058 0.0
C899 C 0.38005 0.04744 0.8133 0.0
C900 C 0.38111 0.03468 0.88011 0.0
C901 C 0.40272 0.01683 0.88049 0.0
C902 C 0.42137 0.0236 0.94239 0.0
C903 C 0.39354 0.99 0.88822 0.0
C904 C 0.41354 0.0215 0.80334 0.0
C905 C 0.40002 0.03907 0.76535 0.0
C906 C 0.40608 0.04622 0.69269 0.0
C907 C 0.42658 0.0352 0.65799 0.0
C908 C 0.44097 0.01751 0.6963 0.0
C909 C 0.43432 0.01054 0.76982 0.0
H910 H 0.45666 0.35992 0.839 0.0
H911 H 0.512 0.35994 0.01517 0.0
H912 H 0.53571 0.39199 0.94813 0.0
H913 H 0.50163 0.37356 0.68049 0.0
H914 H 0.47987 0.39331 0.63367 0.0
H915 H 0.46884 0.36726 0.68734 0.0
H916 H 0.44082 0.39589 0.76494 0.0
H917 H 0.45156 0.42256 0.71418 0.0
H918 H 0.4542 0.42163 0.81475 0.0
H919 H 0.55095 0.42674 0.87208 0.0
H920 H 0.55539 0.46419 0.79487 0.0
H921 H 0.49017 0.44298 0.66807 0.0
C922 C 0.47408 0.36623 0.86246 0.0
C923 C 0.4825 0.35734 0.93229 0.0
C924 C 0.50516 0.36641 0.96182 0.0
C925 C 0.51889 0.38449 0.92383 0.0
C926 C 0.50989 0.39319 0.85596 0.0
C927 C 0.48808 0.38434 0.82509 0.0
C928 C 0.48134 0.39872 0.75524 0.0
C929 C 0.48302 0.38224 0.68504 0.0
C930 C 0.45546 0.41042 0.76274 0.0
C931 C 0.50179 0.41808 0.7552 0.0
C932 C 0.51849 0.41396 0.81232 0.0
C933 C 0.53818 0.43003 0.82664 0.0
C934 C 0.54043 0.45132 0.78302 0.0
C935 C 0.52291 0.4565 0.72664 0.0
C936 C 0.50385 0.43928 0.71079 0.0
H937 H 0.15366 0.4457 0.92909 0.0
H938 H 0.14381 0.50421 0.09365 0.0
H939 H 0.10519 0.51676 0.03094 0.0
H940 H 0.13004 0.4805 0.77017 0.0
H941 H 0.11514 0.45395 0.72849 0.0
H942 H 0.14261 0.45008 0.78434 0.0
H943 H 0.11915 0.41904 0.86839 0.0
H944 H 0.09129 0.42288 0.81453 0.0
H945 H 0.09086 0.42825 0.91441 0.0
H946 H 0.06816 0.52354 0.94925 0.0
H947 H 0.03391 0.52259 0.85724 0.0
H948 H 0.06638 0.45824 0.75077 0.0
C949 C 0.14344 0.46121 0.95185 0.0
C950 C 0.15179 0.47399 0.01632 0.0
C951 C 0.13783 0.49415 0.04433 0.0
C952 C 0.11587 0.50145 0.00905 0.0
C953 C 0.10814 0.48841 0.94585 0.0
C954 C 0.12147 0.46873 0.91742 0.0
C955 C 0.10886 0.45761 0.84938 0.0
C956 C 0.12513 0.46072 0.77894 0.0
C957 C 0.10211 0.43033 0.86249 0.0
C958 C 0.08598 0.47366 0.84538 0.0
C959 C 0.08621 0.49166 0.90058 0.0
C960 C 0.06769 0.50946 0.90605 0.0
C961 C 0.04844 0.50886 0.8536 0.0
C962 C 0.04764 0.49027 0.7978 0.0
C963 C 0.06655 0.47241 0.79377 0.0
H964 H 0.99647 0.85211 0.38158 0.0
H965 H 0.9203 0.84345 0.45834 0.0
H966 H 0.92426 0.88173 0.53275 0.0
H967 H 0.02069 0.87781 0.5581 0.0
H968 H 0.04154 0.89893 0.51127 0.0
H969 H 0.03362 0.86981 0.46799 0.0
H970 H 0.01848 0.89258 0.34945 0.0
H971 H 0.02648 0.92178 0.39172 0.0
H972 H 0.99535 0.91637 0.35866 0.0
H973 H 0.93518 0.9225 0.59032 0.0
H974 H 0.95293 0.96247 0.63052 0.0
H975 H 0.02212 0.94463 0.5177 0.0
C976 C 0.98072 0.85806 0.41484 0.0
C977 C 0.95806 0.84476 0.41405 0.0
C978 C 0.93786 0.85328 0.45805 0.0
C979 C 0.93992 0.875 0.50062 0.0
C980 C 0.96236 0.88789 0.4991 0.0
C981 C 0.98248 0.87967 0.45789 0.0
C982 C 0.00418 0.8975 0.46372 0.0
C983 C 0.02632 0.88528 0.50259 0.0
C984 C 0.01154 0.90765 0.38628 0.0
C985 C 0.99283 0.91739 0.51272 0.0
C986 C 0.96875 0.91138 0.53291 0.0
C987 C 0.95407 0.92734 0.57525 0.0
C988 C 0.96423 0.9501 0.59715 0.0
C989 C 0.98877 0.95674 0.57637 0.0
C990 C 0.00334 0.93998 0.5346 0.0
H991 H 0.68409 0.96548 0.39298 0.0
H992 H 0.65701 0.92523 0.19833 0.0
H993 H 0.61415 0.93034 0.24318 0.0
H994 H 0.63963 0.94065 0.52498 0.0
H995 H 0.6359 0.96923 0.57586 0.0
H996 H 0.66483 0.96268 0.52902 0.0
H997 H 0.66156 0.00373 0.45547 0.0
H998 H 0.63264 0.01041 0.50221 0.0
H999 H 0.6341 0.00977 0.40132 0.0
H1000 H 0.57466 0.93893 0.30795 0.0
H1001 H 0.53988 0.95176 0.38753 0.0
H1002 H 0.59149 0.98708 0.54177 0.0
C1003 C 0.66913 0.95778 0.35978 0.0
C1004 C 0.67397 0.94488 0.29216 0.0
C1005 C 0.65386 0.93511 0.25035 0.0
C1006 C 0.6294 0.9379 0.27534 0.0
C1007 C 0.62529 0.95052 0.34227 0.0
C1008 C 0.64448 0.9604 0.38397 0.0
C1009 C 0.63467 0.97321 0.45387 0.0
C1010 C 0.64434 0.96069 0.52514 0.0
C1011 C 0.64113 0.00092 0.45313 0.0
C1012 C 0.607 0.96895 0.44457 0.0
C1013 C 0.60214 0.95574 0.37985 0.0
C1014 C 0.57817 0.94933 0.35875 0.0
C1015 C 0.5585 0.95673 0.40472 0.0
C1016 C 0.56282 0.97054 0.47123 0.0
C1017 C 0.5875 0.97663 0.49136 0.0
H1018 H 0.57694 0.68251 0.36243 0.0
H1019 H 0.5171 0.72603 0.45816 0.0
H1020 H 0.50007 0.68852 0.51847 0.0
H1021 H 0.54018 0.62811 0.32355 0.0
H1022 H 0.56481 0.60714 0.34645 0.0
H1023 H 0.57211 0.63738 0.31073 0.0
H1024 H 0.59944 0.64611 0.42746 0.0
H1025 H 0.59216 0.61584 0.46315 0.0
H1026 H 0.5861 0.64281 0.51973 0.0
H1027 H 0.49025 0.64644 0.5708 0.0
H1028 H 0.48819 0.60294 0.61091 0.0
H1029 H 0.55435 0.5871 0.4798 0.0
C1030 C 0.56027 0.68421 0.39615 0.0
C1031 C 0.54837 0.70723 0.40571 0.0
C1032 C 0.52652 0.7086 0.45 0.0
C1033 C 0.51671 0.6874 0.48445 0.0
C1034 C 0.5289 0.665 0.47369 0.0
C1035 C 0.55018 0.66328 0.43061 0.0
C1036 C 0.55973 0.63703 0.42787 0.0
C1037 C 0.55916 0.62682 0.34736 0.0
C1038 C 0.58591 0.63536 0.46157 0.0
C1039 C 0.54067 0.62429 0.47699 0.0
C1040 C 0.52301 0.64073 0.50274 0.0
C1041 C 0.5039 0.63338 0.55064 0.0
C1042 C 0.50295 0.60862 0.57325 0.0
C1043 C 0.52103 0.59149 0.54809 0.0
C1044 C 0.53998 0.59953 0.49889 0.0
H1045 H 0.82354 0.5498 0.4636 0.0
H1046 H 0.83584 0.51098 0.25333 0.0
H1047 H 0.87013 0.48796 0.31062 0.0
H1048 H 0.88437 0.55898 0.50797 0.0
H1049 H 0.88197 0.55382 0.60746 0.0
H1050 H 0.8555 0.5646 0.55624 0.0
H1051 H 0.82882 0.5274 0.60039 0.0
H1052 H 0.85484 0.5172 0.65547 0.0
H1053 H 0.84053 0.49649 0.589 0.0
H1054 H 0.90606 0.47323 0.38396 0.0
H1055 H 0.94132 0.46763 0.46983 0.0
H1056 H 0.90578 0.5151 0.63384 0.0
C1057 C 0.83305 0.53603 0.43011 0.0
C1058 C 0.82694 0.53217 0.35399 0.0
C1059 C 0.84009 0.51422 0.31181 0.0
C1060 C 0.85956 0.50097 0.34391 0.0
C1061 C 0.86547 0.50562 0.41851 0.0
C1062 C 0.85248 0.52252 0.46144 0.0
C1063 C 0.86387 0.52537 0.53854 0.0
C1064 C 0.87192 0.55228 0.5534 0.0
C1065 C 0.84595 0.51605 0.5995 0.0
C1066 C 0.88598 0.50842 0.53078 0.0
C1067 C 0.88628 0.49688 0.46149 0.0
C1068 C 0.90577 0.48175 0.4389 0.0
C1069 C 0.92571 0.47874 0.48782 0.0
C1070 C 0.92598 0.4908 0.55824 0.0
C1071 C 0.90563 0.50529 0.58084 0.0
loop_
_geom_bond_atom_site_label_1
_geom_bond_atom_site_label_2
_geom_bond_distance
_geom_bond_site_symmetry_2
_ccdc_geom_bond_type
O0 Cd1 2.300 . S
O0 C7 1.275 . S
Cd1 O0 2.300 . S
Cd1 O9 2.381 . S
Cd1 O10 2.378 . S
O2 Cd3 2.385 . S
O2 C7 1.255 . S
Cd3 O2 2.385 . S
Cd3 O4 2.317 . S
O4 Cd3 2.317 . S
O4 C5 1.232 . S
C5 O4 1.232 . S
C5 O6 1.218 . S
O6 C5 1.218 . S
C7 O0 1.275 . S
C7 O2 1.255 . S
C8 O9 1.258 . S
C8 O10 1.256 . S
O9 Cd1 2.381 . S
O9 C8 1.258 . S
O10 Cd1 2.378 . S
O10 C8 1.256 . S
O11 Cd12 2.300 . S
O11 C18 1.275 . S
Cd12 O11 2.300 . S
Cd12 O20 2.381 . S
Cd12 O21 2.378 . S
O13 Cd14 2.385 1_655 S
O13 C18 1.255 . S
Cd14 O13 2.385 1_455 S
Cd14 O15 2.317 1_455 S
O15 Cd14 2.317 1_655 S
O15 C16 1.232 . S
C16 O15 1.232 . S
C16 O17 1.218 . S
O17 C16 1.218 . S
C18 O11 1.275 . S
C18 O13 1.255 . S
C19 O20 1.258 . S
C19 O21 1.256 . S
O20 Cd12 2.381 . S
O20 C19 1.258 . S
O21 Cd12 2.378 . S
O21 C19 1.256 . S
O22 Cd23 2.300 . S
O22 C29 1.275 . S
Cd23 O22 2.300 . S
Cd23 O31 2.381 . S
Cd23 O32 2.378 . S
O24 Cd25 2.385 1_565 S
O24 C29 1.255 . S
Cd25 O24 2.385 1_545 S
Cd25 O26 2.317 1_545 S
O26 Cd25 2.317 1_565 S
O26 C27 1.232 . S
C27 O26 1.232 . S
C27 O28 1.237 . S
O28 C27 1.237 . S
C29 O22 1.275 . S
C29 O24 1.255 . S
C30 O31 1.258 . S
C30 O32 1.256 . S
O31 Cd23 2.381 . S
O31 C30 1.258 . S
O32 Cd23 2.378 . S
O32 C30 1.256 . S
O33 Cd34 2.300 . S
O33 C40 1.275 . S
Cd34 O33 2.300 . S
Cd34 O42 2.381 . S
Cd34 O43 2.378 . S
O35 Cd36 2.385 . S
O35 C40 1.255 . S
Cd36 O35 2.385 . S
Cd36 O37 2.317 . S
O37 Cd36 2.317 . S
O37 C38 1.232 . S
C38 O37 1.232 . S
C38 O39 1.218 . S
O39 C38 1.218 . S
C40 O33 1.275 . S
C40 O35 1.255 . S
C41 O42 1.258 . S
C41 O43 1.256 . S
O42 Cd34 2.381 . S
O42 C41 1.258 . S
O43 Cd34 2.378 . S
O43 C41 1.256 . S
O44 Cd45 2.300 . S
O44 C51 1.275 . S
Cd45 O44 2.300 . S
Cd45 O53 2.381 . S
Cd45 O54 2.378 . S
O46 Cd47 2.385 1_554 S
O46 C51 1.255 . S
Cd47 O46 2.385 1_556 S
Cd47 O48 2.317 . S
O48 Cd47 2.317 . S
O48 C49 1.232 . S
C49 O48 1.232 . S
C49 O50 1.218 . S
O50 C49 1.218 . S
C51 O44 1.275 . S
C51 O46 1.255 . S
C52 O53 1.258 . S
C52 O54 1.256 . S
O53 Cd45 2.381 . S
O53 C52 1.258 . S
O54 Cd45 2.378 . S
O54 C52 1.256 . S
O55 Cd56 2.300 . S
O55 C62 1.275 . S
Cd56 O55 2.300 . S
Cd56 O64 2.381 . S
Cd56 O65 2.378 . S
O57 Cd58 2.385 1_554 S
O57 C62 1.255 . S
Cd58 O57 2.385 1_556 S
Cd58 O59 2.317 . S
O59 Cd58 2.317 . S
O59 C60 1.232 . S
C60 O59 1.232 . S
C60 O61 1.218 . S
O61 C60 1.218 . S
C62 O55 1.275 . S
C62 O57 1.255 . S
C63 O64 1.258 . S
C63 O65 1.256 . S
O64 Cd56 2.381 . S
O64 C63 1.258 . S
O65 Cd56 2.378 . S
O65 C63 1.256 . S
O66 Cd67 2.300 . S
O66 C73 1.275 . S
Cd67 O66 2.300 . S
Cd67 O75 2.381 . S
Cd67 O76 2.378 . S
O68 Cd69 2.385 1_554 S
O68 C73 1.255 . S
Cd69 O68 2.385 1_556 S
Cd69 O70 2.317 . S
O70 Cd69 2.317 . S
O70 C71 1.232 . S
C71 O70 1.232 . S
C71 O72 1.218 . S
O72 C71 1.218 . S
C73 O66 1.275 . S
C73 O68 1.255 . S
C74 O75 1.258 . S
C74 O76 1.256 . S
O75 Cd67 2.381 . S
O75 C74 1.258 . S
O76 Cd67 2.378 . S
O76 C74 1.256 . S
O77 Cd78 2.300 . S
O77 C84 1.275 . S
Cd78 O77 2.300 . S
Cd78 O86 2.381 . S
Cd78 O87 2.378 . S
O79 Cd80 2.385 1_554 S
O79 C84 1.255 . S
Cd80 O79 2.385 1_556 S
Cd80 O81 2.317 . S
O81 Cd80 2.317 . S
O81 C82 1.232 . S
C82 O81 1.232 . S
C82 O83 1.218 . S
O83 C82 1.218 . S
C84 O77 1.275 . S
C84 O79 1.255 . S
C85 O86 1.258 . S
C85 O87 1.256 . S
O86 Cd78 2.381 . S
O86 C85 1.258 . S
O87 Cd78 2.378 . S
O87 C85 1.256 . S
Eu88 N117 2.600 . S
Eu88 N123 2.562 . S
Eu88 O132 2.453 1_655 S
Eu88 O133 2.373 1_545 S
Eu88 O135 2.432 . S
Eu88 O136 2.291 1_655 S
Eu88 O140 2.335 1_655 S
Eu88 O143 2.372 . S
Eu88 C152 2.787 . S
C89 N90 1.365 . S
C89 C92 1.405 . S
C89 C96 1.448 . S
N90 C89 1.365 . S
N90 C93 1.319 . S
N90 Eu99 2.600 1_545 S
C91 C93 1.397 . S
C91 C94 1.367 . S
C91 H111 0.931 . S
C92 C89 1.405 . S
C92 C94 1.403 . S
C92 C98 1.439 . S
C93 N90 1.319 . S
C93 C91 1.397 . S
C93 H104 0.930 1_545 S
C94 C91 1.367 . S
C94 C92 1.403 . S
C94 H115 0.929 . S
C95 C96 1.430 . S
C95 C97 1.387 . S
C95 C101 1.404 1_556 S
C96 C89 1.448 . S
C96 C95 1.430 . S
C96 N100 1.351 . S
C97 C95 1.387 . S
C97 C98 1.374 . S
C97 H112 0.931 1_556 S
C98 C92 1.439 . S
C98 C97 1.374 . S
C98 H113 0.931 . S
Eu99 N90 2.600 1_565 S
Eu99 N100 2.562 1_565 S
Eu99 O134 2.335 . S
Eu99 O137 2.372 . S
Eu99 O138 2.462 . S
Eu99 O139 2.373 1_565 S
Eu99 O141 2.432 . S
Eu99 O142 2.291 1_465 S
Eu99 C163 2.787 . S
N100 C96 1.351 . S
N100 Eu99 2.562 1_545 S
N100 C102 1.325 . S
C101 C95 1.404 1_554 S
C101 C103 1.366 1_554 S
C101 H109 0.930 . S
C102 N100 1.325 . S
C102 C103 1.416 . S
C102 H108 0.929 1_455 S
C103 C101 1.366 1_556 S
C103 C102 1.416 . S
C103 H105 0.930 1_456 S
H104 C93 0.930 1_565 S
H105 C103 0.930 1_654 S
H106 C121 0.930 . S
H107 C128 0.929 . S
H108 C102 0.929 1_655 S
H109 C101 0.930 . S
H110 C124 0.929 . S
H111 C91 0.931 . S
H112 C97 0.931 1_554 S
H113 C98 0.931 . S
H114 C119 0.931 . S
H115 C94 0.929 . S
H116 C127 0.930 . S
N117 Eu88 2.600 . S
N117 C118 1.365 . S
N117 C121 1.319 . S
C118 N117 1.365 . S
C118 C120 1.405 1_545 S
C118 C126 1.448 . S
C119 H114 0.931 . S
C119 C121 1.397 . S
C119 C122 1.367 . S
C120 C118 1.405 1_565 S
C120 C122 1.403 1_565 S
C120 C153 1.439 . S
C121 H106 0.930 . S
C121 N117 1.319 . S
C121 C119 1.397 . S
C122 C119 1.367 . S
C122 C120 1.403 1_545 S
C122 H129 0.929 1_545 S
N123 Eu88 2.562 . S
N123 C124 1.325 1_655 S
N123 C126 1.351 . S
C124 H110 0.929 . S
C124 N123 1.325 1_455 S
C124 C128 1.417 1_545 S
C125 C126 1.430 1_565 S
C125 C127 1.404 . S
C125 C154 1.387 . S
C126 C118 1.448 . S
C126 N123 1.351 . S
C126 C125 1.430 1_545 S
C127 H116 0.930 . S
C127 C125 1.404 . S
C127 C128 1.364 1_655 S
C128 H107 0.929 . S
C128 C124 1.417 1_565 S
C128 C127 1.364 1_455 S
H129 C122 0.929 1_565 S
H130 C153 0.931 . S
H131 C154 0.931 . S
O132 Eu88 2.453 1_455 S
O132 C152 1.231 1_455 S
O133 Eu88 2.373 1_565 S
O133 C144 1.249 . S
O134 Eu99 2.335 . S
O134 C144 1.264 1_455 S
O135 Eu88 2.432 . S
O135 C152 1.268 . S
O136 Eu88 2.291 1_455 S
O136 C151 1.255 . S
O137 Eu99 2.372 . S
O137 C151 1.255 1_565 S
O138 Eu99 2.462 . S
O138 C163 1.252 . S
O139 Eu99 2.373 1_545 S
O139 C155 1.249 . S
O140 Eu88 2.335 1_455 S
O140 C155 1.264 . S
O141 Eu99 2.432 . S
O141 C163 1.268 . S
O142 Eu99 2.291 1_645 S
O142 C162 1.255 . S
O143 Eu88 2.372 . S
O143 C162 1.257 . S
C144 O133 1.249 . S
C144 O134 1.264 1_655 S
C145 C148 1.382 . S
C145 C150 1.390 . S
C145 C152 1.506 . S
C146 C147 1.398 . S
C146 C150 1.392 . S
C147 C146 1.398 . S
C147 C149 1.372 . S
C147 H164 0.931 . S
C148 C145 1.382 . S
C148 C149 1.390 . S
C148 H165 0.931 . S
C149 C147 1.372 . S
C149 C148 1.390 . S
C149 H166 0.929 . S
C150 C145 1.390 . S
C150 C146 1.392 . S
C150 H167 0.930 1_655 S
C151 O136 1.255 . S
C151 O137 1.255 1_545 S
C152 Eu88 2.787 . S
C152 O132 1.231 1_655 S
C152 O135 1.268 . S
C152 C145 1.506 . S
C153 C120 1.439 . S
C153 H130 0.931 . S
C153 C154 1.374 . S
C154 C125 1.387 . S
C154 H131 0.931 . S
C154 C153 1.374 . S
C155 O139 1.249 . S
C155 O140 1.264 . S
C156 C159 1.382 . S
C156 C160 1.390 . S
C156 C163 1.506 . S
C157 C158 1.398 . S
C157 C160 1.392 . S
C158 C157 1.398 . S
C158 C161 1.372 . S
C158 H168 0.931 . S
C159 C156 1.382 . S
C159 C161 1.390 . S
C159 H169 0.931 . S
C160 C156 1.390 . S
C160 C157 1.392 . S
C160 H170 0.915 1_455 S
C161 C158 1.372 . S
C161 C159 1.390 . S
C161 H171 0.929 . S
C162 O142 1.255 . S
C162 O143 1.257 . S
C163 Eu99 2.787 . S
C163 O138 1.252 . S
C163 O141 1.268 . S
C163 C156 1.506 . S
H164 C147 0.931 . S
H165 C148 0.931 . S
H166 C149 0.929 . S
H167 C150 0.930 1_455 S
H168 C158 0.931 . S
H169 C159 0.931 . S
H170 C160 0.915 1_655 S
H171 C161 0.929 . S
Eu172 N201 2.600 . S
Eu172 N207 2.562 . S
Eu172 O216 2.462 . S
Eu172 O217 2.373 . S
Eu172 O219 2.432 . S
Eu172 O220 2.291 . S
Eu172 O224 2.335 1_545 S
Eu172 O227 2.372 . S
Eu172 C236 2.787 . S
C173 N174 1.365 . S
C173 C176 1.405 . S
C173 C180 1.448 . S
N174 C173 1.365 . S
N174 C177 1.319 . S
N174 Eu183 2.600 . S
C175 C177 1.397 . S
C175 C178 1.367 . S
C175 H195 0.931 . S
C176 C173 1.405 . S
C176 C178 1.403 . S
C176 C182 1.439 . S
C177 N174 1.319 . S
C177 C175 1.397 . S
C177 H188 0.930 . S
C178 C175 1.367 . S
C178 C176 1.403 . S
C178 H199 0.929 . S
C179 C180 1.430 . S
C179 C181 1.387 . S
C179 C185 1.404 . S
C180 C173 1.448 . S
C180 C179 1.430 . S
C180 N184 1.351 . S
C181 C179 1.387 . S
C181 C182 1.374 . S
C181 H196 0.931 . S
C182 C176 1.439 . S
C182 C181 1.374 . S
C182 H197 0.931 . S
Eu183 N174 2.600 . S
Eu183 N184 2.562 . S
Eu183 O218 2.335 1_565 S
Eu183 O221 2.372 . S
Eu183 O222 2.465 . S
Eu183 O223 2.373 . S
Eu183 O225 2.432 . S
Eu183 O226 2.291 1_565 S
Eu183 C247 2.787 . S
N184 C180 1.351 . S
N184 Eu183 2.562 . S
N184 C186 1.325 . S
C185 C179 1.404 . S
C185 C187 1.366 . S
C185 H193 0.930 . S
C186 N184 1.325 . S
C186 C187 1.416 . S
C186 H192 0.929 . S
C187 C185 1.366 . S
C187 C186 1.416 . S
C187 H189 0.930 . S
H188 C177 0.930 . S
H189 C187 0.930 . S
H190 C205 0.930 . S
H191 C212 0.930 . S
H192 C186 0.929 . S
H193 C185 0.930 . S
H194 C208 0.929 . S
H195 C175 0.931 . S
H196 C181 0.931 . S
H197 C182 0.931 . S
H198 C203 0.931 . S
H199 C178 0.929 . S
H200 C211 0.930 . S
N201 Eu172 2.600 . S
N201 C202 1.365 . S
N201 C205 1.319 . S
C202 N201 1.365 . S
C202 C204 1.405 . S
C202 C210 1.448 . S
C203 H198 0.931 . S
C203 C205 1.397 . S
C203 C206 1.367 . S
C204 C202 1.405 . S
C204 C206 1.403 . S
C204 C237 1.439 . S
C205 H190 0.930 . S
C205 N201 1.319 . S
C205 C203 1.397 . S
C206 C203 1.367 . S
C206 C204 1.403 . S
C206 H213 0.929 . S
N207 Eu172 2.562 . S
N207 C208 1.325 . S
N207 C210 1.351 . S
C208 H194 0.929 . S
C208 N207 1.325 . S
C208 C212 1.416 . S
C209 C210 1.430 . S
C209 C211 1.404 . S
C209 C238 1.387 . S
C210 C202 1.448 . S
C210 N207 1.351 . S
C210 C209 1.430 . S
C211 H200 0.930 . S
C211 C209 1.404 . S
C211 C212 1.366 . S
C212 H191 0.930 . S
C212 C208 1.416 . S
C212 C211 1.366 . S
H213 C206 0.929 . S
H214 C237 0.931 . S
H215 C238 0.931 . S
O216 Eu172 2.462 . S
O216 C236 1.252 . S
O217 Eu172 2.373 . S
O217 C228 1.249 . S
O218 Eu183 2.335 1_545 S
O218 C228 1.264 . S
O219 Eu172 2.432 . S
O219 C236 1.268 . S
O220 Eu172 2.291 . S
O220 C235 1.255 . S
O221 Eu183 2.372 . S
O221 C235 1.257 1_565 S
O222 Eu183 2.465 . S
O222 C247 1.255 . S
O223 Eu183 2.373 . S
O223 C239 1.249 . S
O224 Eu172 2.335 1_565 S
O224 C239 1.264 . S
O225 Eu183 2.432 . S
O225 C247 1.268 . S
O226 Eu183 2.291 1_545 S
O226 C246 1.255 . S
O227 Eu172 2.372 . S
O227 C246 1.257 . S
C228 O217 1.249 . S
C228 O218 1.264 . S
C229 C232 1.382 . S
C229 C234 1.390 . S
C229 C236 1.506 . S
C230 C231 1.398 1_556 S
C230 C234 1.392 . S
C231 C230 1.398 1_554 S
C231 C233 1.372 . S
C231 H248 0.931 . S
C232 C229 1.382 . S
C232 C233 1.390 1_556 S
C232 H249 0.931 . S
C233 C231 1.372 . S
C233 C232 1.390 1_554 S
C233 H250 0.929 . S
C234 C229 1.390 . S
C234 C230 1.392 . S
C234 H251 0.930 . S
C235 O220 1.255 . S
C235 O221 1.257 1_545 S
C236 Eu172 2.787 . S
C236 O216 1.252 . S
C236 O219 1.268 . S
C236 C229 1.506 . S
C237 C204 1.439 . S
C237 H214 0.931 . S
C237 C238 1.374 . S
C238 C209 1.387 . S
C238 H215 0.931 . S
C238 C237 1.374 . S
C239 O223 1.249 . S
C239 O224 1.264 . S
C240 C243 1.382 . S
C240 C244 1.390 1_565 S
C240 C247 1.506 . S
C241 C242 1.398 . S
C241 C244 1.392 . S
C242 C241 1.398 . S
C242 C245 1.372 1_545 S
C242 H252 0.931 . S
C243 C240 1.382 . S
C243 C245 1.390 . S
C243 H253 0.931 . S
C244 C240 1.390 1_545 S
C244 C241 1.392 . S
C244 H254 0.930 . S
C245 C242 1.372 1_565 S
C245 C243 1.390 . S
C245 H255 0.929 . S
C246 O226 1.255 . S
C246 O227 1.257 . S
C247 Eu183 2.787 . S
C247 O222 1.255 . S
C247 O225 1.268 . S
C247 C240 1.506 . S
H248 C231 0.931 . S
H249 C232 0.931 . S
H250 C233 0.929 . S
H251 C234 0.930 . S
H252 C242 0.931 . S
H253 C243 0.931 . S
H254 C244 0.930 . S
H255 C245 0.929 . S
Eu256 N285 2.600 . S
Eu256 N291 2.562 . S
Eu256 O300 2.462 . S
Eu256 O301 2.373 . S
Eu256 O303 2.432 . S
Eu256 O304 2.291 . S
Eu256 O308 2.335 . S
Eu256 O311 2.372 . S
Eu256 C320 2.787 . S
C257 N258 1.365 . S
C257 C260 1.405 . S
C257 C264 1.448 . S
N258 C257 1.365 . S
N258 C261 1.319 . S
N258 Eu267 2.600 . S
C259 C261 1.397 . S
C259 C262 1.367 . S
C259 H279 0.931 . S
C260 C257 1.405 . S
C260 C262 1.403 . S
C260 C266 1.439 . S
C261 N258 1.319 . S
C261 C259 1.397 . S
C261 H272 0.930 . S
C262 C259 1.367 . S
C262 C260 1.403 . S
C262 H283 0.929 . S
C263 C264 1.430 . S
C263 C265 1.387 . S
C263 C269 1.404 1_556 S
C264 C257 1.448 . S
C264 C263 1.430 . S
C264 N268 1.351 . S
C265 C263 1.387 . S
C265 C266 1.374 . S
C265 H280 0.931 1_556 S
C266 C260 1.439 . S
C266 C265 1.374 . S
C266 H281 0.931 . S
Eu267 N258 2.600 . S
Eu267 N268 2.562 . S
Eu267 O302 2.335 . S
Eu267 O305 2.372 . S
Eu267 O306 2.462 . S
Eu267 O307 2.373 . S
Eu267 O309 2.432 . S
Eu267 O310 2.291 . S
Eu267 C331 2.787 . S
N268 C264 1.351 . S
N268 Eu267 2.562 . S
N268 C270 1.325 . S
C269 C263 1.404 1_554 S
C269 C271 1.366 1_554 S
C269 H277 0.930 . S
C270 N268 1.325 . S
C270 C271 1.416 . S
C270 H276 0.929 . S
C271 C269 1.366 1_556 S
C271 C270 1.416 . S
C271 H273 0.930 1_556 S
H272 C261 0.930 . S
H273 C271 0.930 1_554 S
H274 C289 0.930 . S
H275 C296 0.930 . S
H276 C270 0.929 . S
H277 C269 0.930 . S
H278 C292 0.929 . S
H279 C259 0.931 . S
H280 C265 0.931 1_554 S
H281 C266 0.931 . S
H282 C287 0.931 . S
H283 C262 0.929 . S
H284 C295 0.930 . S
N285 Eu256 2.600 . S
N285 C286 1.365 . S
N285 C289 1.319 . S
C286 N285 1.365 . S
C286 C288 1.405 . S
C286 C294 1.448 . S
C287 H282 0.931 . S
C287 C289 1.397 . S
C287 C290 1.367 . S
C288 C286 1.405 . S
C288 C290 1.403 . S
C288 C321 1.439 . S
C289 H274 0.930 . S
C289 N285 1.319 . S
C289 C287 1.397 . S
C290 C287 1.367 . S
C290 C288 1.403 . S
C290 H297 0.929 . S
N291 Eu256 2.562 . S
N291 C292 1.325 . S
N291 C294 1.351 . S
C292 H278 0.929 . S
C292 N291 1.325 . S
C292 C296 1.416 . S
C293 C294 1.430 . S
C293 C295 1.404 . S
C293 C322 1.387 . S
C294 C286 1.448 . S
C294 N291 1.351 . S
C294 C293 1.430 . S
C295 H284 0.930 . S
C295 C293 1.404 . S
C295 C296 1.366 . S
C296 H275 0.930 . S
C296 C292 1.416 . S
C296 C295 1.366 . S
H297 C290 0.929 . S
H298 C321 0.931 . S
H299 C322 0.931 . S
O300 Eu256 2.462 . S
O300 C320 1.252 . S
O301 Eu256 2.373 . S
O301 C312 1.249 . S
O302 Eu267 2.335 . S
O302 C312 1.264 . S
O303 Eu256 2.432 . S
O303 C320 1.268 . S
O304 Eu256 2.291 . S
O304 C319 1.255 . S
O305 Eu267 2.372 . S
O305 C319 1.257 . S
O306 Eu267 2.462 . S
O306 C331 1.252 . S
O307 Eu267 2.373 . S
O307 C323 1.249 . S
O308 Eu256 2.335 . S
O308 C323 1.264 . S
O309 Eu267 2.432 . S
O309 C331 1.268 . S
O310 Eu267 2.291 . S
O310 C330 1.255 . S
O311 Eu256 2.372 . S
O311 C330 1.257 . S
C312 O301 1.249 . S
C312 O302 1.264 . S
C313 C316 1.382 . S
C313 C318 1.390 . S
C313 C320 1.506 . S
C314 C315 1.398 . S
C314 C318 1.392 . S
C315 C314 1.398 . S
C315 C317 1.372 . S
C315 H332 0.931 . S
C316 C313 1.382 . S
C316 C317 1.390 . S
C316 H333 0.931 . S
C317 C315 1.372 . S
C317 C316 1.390 . S
C317 H334 0.929 . S
C318 C313 1.390 . S
C318 C314 1.392 . S
C318 H335 0.930 . S
C319 O304 1.255 . S
C319 O305 1.257 . S
C320 Eu256 2.787 . S
C320 O300 1.252 . S
C320 O303 1.268 . S
C320 C313 1.506 . S
C321 C288 1.439 . S
C321 H298 0.931 . S
C321 C322 1.374 . S
C322 C293 1.387 . S
C322 H299 0.931 . S
C322 C321 1.374 . S
C323 O307 1.249 . S
C323 O308 1.264 . S
C324 C327 1.382 . S
C324 C328 1.390 . S
C324 C331 1.506 . S
C325 C326 1.398 . S
C325 C328 1.392 . S
C326 C325 1.398 . S
C326 C329 1.372 . S
C326 H336 0.931 . S
C327 C324 1.382 . S
C327 C329 1.390 . S
C327 H337 0.931 . S
C328 C324 1.390 . S
C328 C325 1.392 . S
C328 H338 0.930 . S
C329 C326 1.372 . S
C329 C327 1.390 . S
C329 H339 0.929 . S
C330 O310 1.255 . S
C330 O311 1.257 . S
C331 Eu267 2.787 . S
C331 O306 1.252 . S
C331 O309 1.268 . S
C331 C324 1.506 . S
H332 C315 0.931 . S
H333 C316 0.931 . S
H334 C317 0.929 . S
H335 C318 0.930 . S
H336 C326 0.931 . S
H337 C327 0.931 . S
H338 C328 0.930 . S
H339 C329 0.929 . S
Eu340 N369 2.600 . S
Eu340 N375 2.562 . S
Eu340 O384 2.462 . S
Eu340 O385 2.373 1_455 S
Eu340 O387 2.432 . S
Eu340 O388 2.291 . S
Eu340 O392 2.335 . S
Eu340 O395 2.372 . S
Eu340 C404 2.787 . S
C341 N342 1.365 1_455 S
C341 C344 1.405 . S
C341 C348 1.448 . S
N342 C341 1.365 1_655 S
N342 C345 1.319 . S
N342 Eu351 2.600 . S
C343 C345 1.397 1_455 S
C343 C346 1.367 . S
C343 H363 0.931 . S
C344 C341 1.405 . S
C344 C346 1.403 . S
C344 C350 1.439 . S
C345 N342 1.319 . S
C345 C343 1.397 1_655 S
C345 H356 0.930 . S
C346 C343 1.367 . S
C346 C344 1.403 . S
C346 H367 0.929 . S
C347 C348 1.430 . S
C347 C349 1.387 . S
C347 C353 1.404 1_556 S
C348 C341 1.448 . S
C348 C347 1.430 . S
C348 N352 1.351 . S
C349 C347 1.387 . S
C349 C350 1.374 . S
C349 H364 0.931 1_556 S
C350 C344 1.439 . S
C350 C349 1.374 . S
C350 H365 0.931 . S
Eu351 N342 2.600 . S
Eu351 N352 2.562 1_655 S
Eu351 O386 2.335 . S
Eu351 O389 2.372 . S
Eu351 O390 2.462 . S
Eu351 O391 2.373 1_655 S
Eu351 O393 2.432 . S
Eu351 O394 2.284 1_655 S
Eu351 C415 2.787 . S
N352 C348 1.351 . S
N352 Eu351 2.562 1_455 S
N352 C354 1.325 . S
C353 C347 1.404 1_554 S
C353 C355 1.366 1_554 S
C353 H361 0.930 . S
C354 N352 1.325 . S
C354 C355 1.416 . S
C354 H360 0.936 . S
C355 C353 1.366 1_556 S
C355 C354 1.416 . S
C355 H357 0.930 1_556 S
H356 C345 0.930 . S
H357 C355 0.930 1_554 S
H358 C373 0.930 . S
H359 C380 0.930 . S
H360 C354 0.936 . S
H361 C353 0.930 . S
H362 C376 0.929 . S
H363 C343 0.931 . S
H364 C349 0.931 1_554 S
H365 C350 0.931 . S
H366 C371 0.931 . S
H367 C346 0.929 . S
H368 C379 0.930 . S
N369 Eu340 2.600 . S
N369 C370 1.365 . S
N369 C373 1.319 . S
C370 N369 1.365 . S
C370 C372 1.405 1_455 S
C370 C378 1.448 . S
C371 H366 0.931 . S
C371 C373 1.397 . S
C371 C374 1.367 1_455 S
C372 C370 1.405 1_655 S
C372 C374 1.403 . S
C372 C405 1.439 . S
C373 H358 0.930 . S
C373 N369 1.319 . S
C373 C371 1.397 . S
C374 C371 1.367 1_655 S
C374 C372 1.403 . S
C374 H381 0.929 . S
N375 Eu340 2.562 . S
N375 C376 1.325 . S
N375 C378 1.351 . S
C376 H362 0.929 . S
C376 N375 1.325 . S
C376 C380 1.416 1_455 S
C377 C378 1.430 1_655 S
C377 C379 1.404 . S
C377 C406 1.387 . S
C378 C370 1.448 . S
C378 N375 1.351 . S
C378 C377 1.430 1_455 S
C379 H368 0.930 . S
C379 C377 1.404 . S
C379 C380 1.366 . S
C380 H359 0.930 . S
C380 C376 1.416 1_655 S
C380 C379 1.366 . S
H381 C374 0.929 . S
H382 C405 0.931 . S
H383 C406 0.931 . S
O384 Eu340 2.462 . S
O384 C404 1.252 . S
O385 Eu340 2.373 1_655 S
O385 C396 1.249 . S
O386 Eu351 2.335 . S
O386 C396 1.264 . S
O387 Eu340 2.432 . S
O387 C404 1.268 . S
O388 Eu340 2.291 . S
O388 C403 1.255 . S
O389 Eu351 2.372 . S
O389 C403 1.257 1_655 S
O390 Eu351 2.462 . S
O390 C415 1.252 . S
O391 Eu351 2.373 1_455 S
O391 C407 1.249 . S
O392 Eu340 2.335 . S
O392 C407 1.264 . S
O393 Eu351 2.432 . S
O393 C415 1.268 . S
O394 Eu351 2.284 1_455 S
O394 C414 1.261 . S
O395 Eu340 2.372 . S
O395 C414 1.257 . S
C396 O385 1.249 . S
C396 O386 1.264 . S
C397 C400 1.382 . S
C397 C402 1.390 . S
C397 C404 1.506 . S
C398 C399 1.398 . S
C398 C402 1.392 . S
C399 C398 1.398 . S
C399 C401 1.372 . S
C399 H416 0.931 . S
C400 C397 1.382 . S
C400 C401 1.390 . S
C400 H417 0.931 . S
C401 C399 1.372 . S
C401 C400 1.390 . S
C401 H418 0.929 . S
C402 C397 1.390 . S
C402 C398 1.392 . S
C402 H419 0.930 . S
C403 O388 1.255 . S
C403 O389 1.257 1_455 S
C404 Eu340 2.787 . S
C404 O384 1.252 . S
C404 O387 1.268 . S
C404 C397 1.506 . S
C405 C372 1.439 . S
C405 H382 0.931 . S
C405 C406 1.374 . S
C406 C377 1.387 . S
C406 H383 0.931 . S
C406 C405 1.374 . S
C407 O391 1.249 . S
C407 O392 1.264 . S
C408 C411 1.382 . S
C408 C412 1.390 . S
C408 C415 1.506 . S
C409 C410 1.398 . S
C409 C412 1.392 . S
C410 C409 1.398 . S
C410 C413 1.372 . S
C410 H420 0.931 . S
C411 C408 1.382 . S
C411 C413 1.390 . S
C411 H421 0.931 . S
C412 C408 1.390 . S
C412 C409 1.392 . S
C412 H422 0.930 . S
C413 C410 1.372 . S
C413 C411 1.390 . S
C413 H423 0.929 . S
C414 O394 1.261 . S
C414 O395 1.257 . S
C415 Eu351 2.787 . S
C415 O390 1.252 . S
C415 O393 1.268 . S
C415 C408 1.506 . S
H416 C399 0.931 . S
H417 C400 0.931 . S
H418 C401 0.929 . S
H419 C402 0.930 . S
H420 C410 0.931 . S
H421 C411 0.931 . S
H422 C412 0.930 . S
H423 C413 0.929 . S
H424 C436 0.930 . S
H425 C438 0.930 . S
H426 C439 0.930 1_565 S
H427 C443 0.959 . S
H428 C443 0.959 . S
H429 C443 0.961 . S
H430 C444 0.960 . S
H431 C444 0.961 . S
H432 C444 0.959 . S
H433 C447 0.929 . S
H434 C448 0.931 . S
H435 C450 0.930 . S
C436 H424 0.930 . S
C436 C437 1.399 . S
C436 C441 1.399 . S
C437 C436 1.399 . S
C437 C438 1.376 . S
C438 H425 0.930 . S
C438 C437 1.376 . S
C438 C439 1.388 . S
C439 H426 0.930 1_545 S
C439 C438 1.388 . S
C439 C440 1.390 . S
C440 C439 1.390 . S
C440 C441 1.394 . S
C440 C446 1.465 . S
C441 C436 1.399 . S
C441 C440 1.394 . S
C441 C442 1.516 . S
C442 C441 1.516 . S
C442 C443 1.502 . S
C442 C444 1.561 . S
C442 C445 1.526 . S
C443 H427 0.959 . S
C443 H428 0.959 . S
C443 H429 0.961 . S
C443 C442 1.502 . S
C444 H430 0.960 . S
C444 H431 0.961 . S
C444 H432 0.959 . S
C444 C442 1.561 . S
C445 C442 1.526 . S
C445 C446 1.396 . S
C445 C450 1.390 . S
C446 C440 1.465 . S
C446 C445 1.396 . S
C446 C447 1.399 1_545 S
C447 H433 0.929 . S
C447 C446 1.399 1_565 S
C447 C448 1.385 . S
C448 H434 0.931 . S
C448 C447 1.385 . S
C448 C449 1.389 1_565 S
C449 C448 1.389 1_545 S
C449 C450 1.387 . S
C450 H435 0.930 . S
C450 C445 1.390 . S
C450 C449 1.387 . S
H451 C463 0.930 . S
H452 C465 0.930 . S
H453 C466 0.930 . S
H454 C470 0.959 . S
H455 C470 0.959 . S
H456 C470 0.961 . S
H457 C471 0.960 . S
H458 C471 0.961 . S
H459 C471 0.959 . S
H460 C474 0.929 . S
H461 C475 0.931 . S
H462 C477 0.930 . S
C463 H451 0.930 . S
C463 C464 1.399 . S
C463 C468 1.399 . S
C464 C463 1.399 . S
C464 C465 1.376 . S
C465 H452 0.930 . S
C465 C464 1.376 . S
C465 C466 1.388 . S
C466 H453 0.930 . S
C466 C465 1.388 . S
C466 C467 1.390 . S
C467 C466 1.390 . S
C467 C468 1.394 . S
C467 C473 1.465 . S
C468 C463 1.399 . S
C468 C467 1.394 . S
C468 C469 1.516 . S
C469 C468 1.516 . S
C469 C470 1.502 . S
C469 C471 1.561 . S
C469 C472 1.526 . S
C470 H454 0.959 . S
C470 H455 0.959 . S
C470 H456 0.961 . S
C470 C469 1.502 . S
C471 H457 0.960 . S
C471 H458 0.961 . S
C471 H459 0.959 . S
C471 C469 1.561 . S
C472 C469 1.526 . S
C472 C473 1.396 . S
C472 C477 1.390 . S
C473 C467 1.465 . S
C473 C472 1.396 . S
C473 C474 1.399 . S
C474 H460 0.929 . S
C474 C473 1.399 . S
C474 C475 1.385 . S
C475 H461 0.931 . S
C475 C474 1.385 . S
C475 C476 1.389 . S
C476 C475 1.389 . S
C476 C477 1.387 . S
C477 H462 0.930 . S
C477 C472 1.390 . S
C477 C476 1.387 . S
H478 C490 0.930 . S
H479 C492 0.930 . S
H480 C493 0.930 . S
H481 C497 0.959 . S
H482 C497 0.959 . S
H483 C497 0.961 . S
H484 C498 0.960 . S
H485 C498 0.961 . S
H486 C498 0.959 . S
H487 C501 0.929 . S
H488 C502 0.931 . S
H489 C504 0.930 . S
C490 H478 0.930 . S
C490 C491 1.399 . S
C490 C495 1.399 . S
C491 C490 1.399 . S
C491 C492 1.376 . S
C492 H479 0.930 . S
C492 C491 1.376 . S
C492 C493 1.388 . S
C493 H480 0.930 . S
C493 C492 1.388 . S
C493 C494 1.390 . S
C494 C493 1.390 . S
C494 C495 1.394 . S
C494 C500 1.465 . S
C495 C490 1.399 . S
C495 C494 1.394 . S
C495 C496 1.516 . S
C496 C495 1.516 . S
C496 C497 1.502 . S
C496 C498 1.561 . S
C496 C499 1.526 . S
C497 H481 0.959 . S
C497 H482 0.959 . S
C497 H483 0.961 . S
C497 C496 1.502 . S
C498 H484 0.960 . S
C498 H485 0.961 . S
C498 H486 0.959 . S
C498 C496 1.561 . S
C499 C496 1.526 . S
C499 C500 1.396 . S
C499 C504 1.390 . S
C500 C494 1.465 . S
C500 C499 1.396 . S
C500 C501 1.399 . S
C501 H487 0.929 . S
C501 C500 1.399 . S
C501 C502 1.385 . S
C502 H488 0.931 . S
C502 C501 1.385 . S
C502 C503 1.389 . S
C503 C502 1.389 . S
C503 C504 1.387 . S
C504 H489 0.930 . S
C504 C499 1.390 . S
C504 C503 1.387 . S
H505 C517 0.930 . S
H506 C519 0.930 . S
H507 C520 0.930 . S
H508 C524 0.959 . S
H509 C524 0.959 . S
H510 C524 0.961 . S
H511 C525 0.960 . S
H512 C525 0.961 . S
H513 C525 0.959 . S
H514 C528 0.929 . S
H515 C529 0.931 . S
H516 C531 0.930 . S
C517 H505 0.930 . S
C517 C518 1.399 . S
C517 C522 1.399 . S
C518 C517 1.399 . S
C518 C519 1.376 . S
C519 H506 0.930 . S
C519 C518 1.376 . S
C519 C520 1.388 . S
C520 H507 0.930 . S
C520 C519 1.388 . S
C520 C521 1.390 . S
C521 C520 1.390 . S
C521 C522 1.394 . S
C521 C527 1.465 . S
C522 C517 1.399 . S
C522 C521 1.394 . S
C522 C523 1.516 . S
C523 C522 1.516 . S
C523 C524 1.502 1_455 S
C523 C525 1.561 . S
C523 C526 1.526 . S
C524 H508 0.959 . S
C524 H509 0.959 . S
C524 H510 0.961 . S
C524 C523 1.502 1_655 S
C525 H511 0.960 . S
C525 H512 0.961 . S
C525 H513 0.959 . S
C525 C523 1.561 . S
C526 C523 1.526 . S
C526 C527 1.396 . S
C526 C531 1.390 . S
C527 C521 1.465 . S
C527 C526 1.396 . S
C527 C528 1.399 . S
C528 H514 0.929 . S
C528 C527 1.399 . S
C528 C529 1.385 . S
C529 H515 0.931 . S
C529 C528 1.385 . S
C529 C530 1.389 . S
C530 C529 1.389 . S
C530 C531 1.387 . S
C531 H516 0.930 . S
C531 C526 1.390 . S
C531 C530 1.387 . S
H532 C544 0.930 . S
H533 C546 0.930 . S
H534 C547 0.930 . S
H535 C551 0.959 . S
H536 C551 0.959 1_556 S
H537 C551 0.961 . S
H538 C552 0.960 . S
H539 C552 0.961 . S
H540 C552 0.959 . S
H541 C555 0.929 . S
H542 C556 0.931 . S
H543 C558 0.930 . S
C544 H532 0.930 . S
C544 C545 1.399 . S
C544 C549 1.399 . S
C545 C544 1.399 . S
C545 C546 1.376 1_565 S
C546 H533 0.930 . S
C546 C545 1.376 1_545 S
C546 C547 1.388 1_554 S
C547 H534 0.930 . S
C547 C546 1.388 1_556 S
C547 C548 1.390 1_545 S
C548 C547 1.390 1_565 S
C548 C549 1.394 1_556 S
C548 C554 1.465 1_565 S
C549 C544 1.399 . S
C549 C548 1.394 1_554 S
C549 C550 1.516 1_554 S
C550 C549 1.516 1_556 S
C550 C551 1.502 1_556 S
C550 C552 1.561 . S
C550 C553 1.526 . S
C551 H535 0.959 . S
C551 H536 0.959 1_554 S
C551 H537 0.961 . S
C551 C550 1.502 1_554 S
C552 H538 0.960 . S
C552 H539 0.961 . S
C552 H540 0.959 . S
C552 C550 1.561 . S
C553 C550 1.526 . S
C553 C554 1.396 1_565 S
C553 C558 1.390 . S
C554 C548 1.465 1_545 S
C554 C553 1.396 1_545 S
C554 C555 1.399 . S
C555 H541 0.929 . S
C555 C554 1.399 . S
C555 C556 1.385 . S
C556 H542 0.931 . S
C556 C555 1.385 . S
C556 C557 1.389 . S
C557 C556 1.389 . S
C557 C558 1.387 1_545 S
C558 H543 0.930 . S
C558 C553 1.390 . S
C558 C557 1.387 1_565 S
H559 C571 0.930 . S
H560 C573 0.930 . S
H561 C574 0.930 . S
H562 C578 0.959 . S
H563 C578 0.959 . S
H564 C578 0.961 . S
H565 C579 0.960 . S
H566 C579 0.961 . S
H567 C579 0.959 . S
H568 C582 0.929 . S
H569 C583 0.931 . S
H570 C585 0.930 . S
C571 H559 0.930 . S
C571 C572 1.399 . S
C571 C576 1.399 . S
C572 C571 1.399 . S
C572 C573 1.376 . S
C573 H560 0.930 . S
C573 C572 1.376 . S
C573 C574 1.388 1_554 S
C574 H561 0.930 . S
C574 C573 1.388 1_556 S
C574 C575 1.390 . S
C575 C574 1.390 . S
C575 C576 1.394 1_556 S
C575 C581 1.465 . S
C576 C571 1.399 . S
C576 C575 1.394 1_554 S
C576 C577 1.516 . S
C577 C576 1.516 . S
C577 C578 1.502 . S
C577 C579 1.561 . S
C577 C580 1.526 1_554 S
C578 H562 0.959 . S
C578 H563 0.959 . S
C578 H564 0.961 . S
C578 C577 1.502 . S
C579 H565 0.960 . S
C579 H566 0.961 . S
C579 H567 0.959 . S
C579 C577 1.561 . S
C580 C577 1.526 1_556 S
C580 C581 1.396 . S
C580 C585 1.390 . S
C581 C575 1.465 . S
C581 C580 1.396 . S
C581 C582 1.399 . S
C582 H568 0.929 . S
C582 C581 1.399 . S
C582 C583 1.385 . S
C583 H569 0.931 . S
C583 C582 1.385 . S
C583 C584 1.389 . S
C584 C583 1.389 . S
C584 C585 1.387 . S
C585 H570 0.930 . S
C585 C580 1.390 . S
C585 C584 1.387 . S
H586 C598 0.930 . S
H587 C600 0.930 . S
H588 C601 0.930 . S
H589 C605 0.955 1_556 S
H590 C605 0.957 1_556 S
H591 C605 0.967 . S
H592 C606 0.960 . S
H593 C606 0.961 . S
H594 C606 0.959 . S
H595 C609 0.929 . S
H596 C610 0.931 . S
H597 C612 0.930 . S
C598 H586 0.930 . S
C598 C599 1.399 . S
C598 C603 1.399 . S
C599 C598 1.399 . S
C599 C600 1.376 . S
C600 H587 0.930 . S
C600 C599 1.376 . S
C600 C601 1.388 1_554 S
C601 H588 0.930 . S
C601 C600 1.388 1_556 S
C601 C602 1.390 . S
C602 C601 1.390 . S
C602 C603 1.394 1_556 S
C602 C608 1.465 . S
C603 C598 1.399 . S
C603 C602 1.394 1_554 S
C603 C604 1.518 . S
C604 C603 1.518 . S
C604 C605 1.502 . S
C604 C606 1.564 . S
C604 C607 1.521 1_554 S
C605 H589 0.955 1_554 S
C605 H590 0.957 1_554 S
C605 H591 0.967 . S
C605 C604 1.502 . S
C606 H592 0.960 . S
C606 H593 0.961 . S
C606 H594 0.959 . S
C606 C604 1.564 . S
C607 C604 1.521 1_556 S
C607 C608 1.396 . S
C607 C612 1.390 . S
C608 C602 1.465 . S
C608 C607 1.396 . S
C608 C609 1.399 . S
C609 H595 0.929 . S
C609 C608 1.399 . S
C609 C610 1.385 . S
C610 H596 0.931 . S
C610 C609 1.385 . S
C610 C611 1.389 . S
C611 C610 1.389 . S
C611 C612 1.387 . S
C612 H597 0.930 . S
C612 C607 1.390 . S
C612 C611 1.387 . S
H613 C625 0.930 1_455 S
H614 C627 0.930 . S
H615 C628 0.930 . S
H616 C632 0.959 1_556 S
H617 C632 0.959 1_556 S
H618 C632 0.961 . S
H619 C633 0.954 1_455 S
H620 C633 0.938 1_455 S
H621 C633 0.999 . S
H622 C636 0.929 . S
H623 C637 0.931 . S
H624 C639 0.930 . S
C625 H613 0.930 1_655 S
C625 C626 1.399 . S
C625 C630 1.399 . S
C626 C625 1.399 . S
C626 C627 1.376 . S
C627 H614 0.930 . S
C627 C626 1.376 . S
C627 C628 1.388 1_554 S
C628 H615 0.930 . S
C628 C627 1.388 1_556 S
C628 C629 1.390 . S
C629 C628 1.390 . S
C629 C630 1.394 1_556 S
C629 C635 1.465 . S
C630 C625 1.399 . S
C630 C629 1.394 1_554 S
C630 C631 1.516 1_655 S
C631 C630 1.516 1_455 S
C631 C632 1.502 . S
C631 C633 1.552 1_455 S
C631 C634 1.526 1_454 S
C632 H616 0.959 1_554 S
C632 H617 0.959 1_554 S
C632 H618 0.961 . S
C632 C631 1.502 . S
C633 H619 0.954 1_655 S
C633 H620 0.938 1_655 S
C633 H621 0.999 . S
C633 C631 1.552 1_655 S
C634 C631 1.526 1_656 S
C634 C635 1.396 . S
C634 C639 1.390 1_655 S
C635 C629 1.465 . S
C635 C634 1.396 . S
C635 C636 1.399 . S
C636 H622 0.929 . S
C636 C635 1.399 . S
C636 C637 1.385 . S
C637 H623 0.931 . S
C637 C636 1.385 . S
C637 C638 1.389 . S
C638 C637 1.389 . S
C638 C639 1.387 1_655 S
C639 H624 0.930 . S
C639 C634 1.390 1_455 S
C639 C638 1.387 1_455 S
H640 C652 0.930 . S
H641 C654 0.930 . S
H642 C655 0.930 . S
H643 C659 0.959 . S
H644 C659 0.959 . S
H645 C659 0.961 . S
H646 C660 0.960 . S
H647 C660 0.961 . S
H648 C660 0.959 . S
H649 C663 0.929 . S
H650 C664 0.931 . S
H651 C666 0.919 1_655 S
C652 H640 0.930 . S
C652 C653 1.399 . S
C652 C657 1.399 . S
C653 C652 1.399 . S
C653 C654 1.376 . S
C654 H641 0.930 . S
C654 C653 1.376 . S
C654 C655 1.388 . S
C655 H642 0.930 . S
C655 C654 1.388 . S
C655 C656 1.390 . S
C656 C655 1.390 . S
C656 C657 1.394 . S
C656 C662 1.465 . S
C657 C652 1.399 . S
C657 C656 1.394 . S
C657 C658 1.516 . S
C658 C657 1.516 . S
C658 C659 1.502 1_455 S
C658 C660 1.561 . S
C658 C661 1.526 . S
C659 H643 0.959 . S
C659 H644 0.959 . S
C659 H645 0.961 . S
C659 C658 1.502 1_655 S
C660 H646 0.960 . S
C660 H647 0.961 . S
C660 H648 0.959 . S
C660 C658 1.561 . S
C661 C658 1.526 . S
C661 C662 1.396 . S
C661 C666 1.390 . S
C662 C656 1.465 . S
C662 C661 1.396 . S
C662 C663 1.399 . S
C663 H649 0.929 . S
C663 C662 1.399 . S
C663 C664 1.385 . S
C664 H650 0.931 . S
C664 C663 1.385 . S
C664 C665 1.389 . S
C665 C664 1.389 . S
C665 C666 1.387 . S
C666 H651 0.919 1_455 S
C666 C661 1.390 . S
C666 C665 1.387 . S
H667 C679 0.930 . S
H668 C681 0.930 . S
H669 C682 0.930 1_565 S
H670 C686 0.959 . S
H671 C686 0.959 . S
H672 C686 0.961 . S
H673 C687 0.960 . S
H674 C687 0.961 . S
H675 C687 0.959 . S
H676 C690 0.929 . S
H677 C691 0.931 . S
H678 C693 0.930 . S
C679 H667 0.930 . S
C679 C680 1.399 . S
C679 C684 1.399 . S
C680 C679 1.399 . S
C680 C681 1.376 . S
C681 H668 0.930 . S
C681 C680 1.376 . S
C681 C682 1.388 . S
C682 H669 0.930 1_545 S
C682 C681 1.388 . S
C682 C683 1.390 . S
C683 C682 1.390 . S
C683 C684 1.394 . S
C683 C689 1.465 . S
C684 C679 1.399 . S
C684 C683 1.394 . S
C684 C685 1.516 . S
C685 C684 1.516 . S
C685 C686 1.502 . S
C685 C687 1.561 . S
C685 C688 1.526 . S
C686 H670 0.959 . S
C686 H671 0.959 . S
C686 H672 0.961 . S
C686 C685 1.502 . S
C687 H673 0.960 . S
C687 H674 0.961 . S
C687 H675 0.959 . S
C687 C685 1.561 . S
C688 C685 1.526 . S
C688 C689 1.396 . S
C688 C693 1.390 . S
C689 C683 1.465 . S
C689 C688 1.396 . S
C689 C690 1.399 1_545 S
C690 H676 0.929 . S
C690 C689 1.399 1_565 S
C690 C691 1.385 . S
C691 H677 0.931 . S
C691 C690 1.385 . S
C691 C692 1.389 1_565 S
C692 C691 1.389 1_545 S
C692 C693 1.387 . S
C693 H678 0.930 . S
C693 C688 1.390 . S
C693 C692 1.387 . S
H694 C706 0.930 . S
H695 C708 0.930 . S
H696 C709 0.930 . S
H697 C713 0.959 . S
H698 C713 0.959 . S
H699 C713 0.961 . S
H700 C714 0.960 . S
H701 C714 0.961 . S
H702 C714 0.959 . S
H703 C717 0.929 . S
H704 C718 0.931 . S
H705 C720 0.930 . S
C706 H694 0.930 . S
C706 C707 1.399 . S
C706 C711 1.399 . S
C707 C706 1.399 . S
C707 C708 1.376 . S
C708 H695 0.930 . S
C708 C707 1.376 . S
C708 C709 1.388 . S
C709 H696 0.930 . S
C709 C708 1.388 . S
C709 C710 1.390 . S
C710 C709 1.390 . S
C710 C711 1.394 . S
C710 C716 1.465 . S
C711 C706 1.399 . S
C711 C710 1.394 . S
C711 C712 1.516 . S
C712 C711 1.516 . S
C712 C713 1.502 . S
C712 C714 1.561 . S
C712 C715 1.526 . S
C713 H697 0.959 . S
C713 H698 0.959 . S
C713 H699 0.961 . S
C713 C712 1.502 . S
C714 H700 0.960 . S
C714 H701 0.961 . S
C714 H702 0.959 . S
C714 C712 1.561 . S
C715 C712 1.526 . S
C715 C716 1.396 . S
C715 C720 1.390 . S
C716 C710 1.465 . S
C716 C715 1.396 . S
C716 C717 1.399 . S
C717 H703 0.929 . S
C717 C716 1.399 . S
C717 C718 1.385 . S
C718 H704 0.931 . S
C718 C717 1.385 . S
C718 C719 1.389 . S
C719 C718 1.389 . S
C719 C720 1.387 . S
C720 H705 0.930 . S
C720 C715 1.390 . S
C720 C719 1.387 . S
H721 C733 0.930 . S
H722 C735 0.930 . S
H723 C736 0.930 . S
H724 C740 0.959 . S
H725 C740 0.959 . S
H726 C740 0.961 . S
H727 C741 0.960 . S
H728 C741 0.961 . S
H729 C741 0.959 . S
H730 C744 0.929 . S
H731 C745 0.931 . S
H732 C747 0.930 . S
C733 H721 0.930 . S
C733 C734 1.399 . S
C733 C738 1.399 . S
C734 C733 1.399 . S
C734 C735 1.376 . S
C735 H722 0.930 . S
C735 C734 1.376 . S
C735 C736 1.388 . S
C736 H723 0.930 . S
C736 C735 1.388 . S
C736 C737 1.390 . S
C737 C736 1.390 . S
C737 C738 1.394 . S
C737 C743 1.465 . S
C738 C733 1.399 . S
C738 C737 1.394 . S
C738 C739 1.516 . S
C739 C738 1.516 . S
C739 C740 1.502 . S
C739 C741 1.561 . S
C739 C742 1.526 . S
C740 H724 0.959 . S
C740 H725 0.959 . S
C740 H726 0.961 . S
C740 C739 1.502 . S
C741 H727 0.960 . S
C741 H728 0.961 . S
C741 H729 0.959 . S
C741 C739 1.561 . S
C742 C739 1.526 . S
C742 C743 1.396 . S
C742 C747 1.390 . S
C743 C737 1.465 . S
C743 C742 1.396 . S
C743 C744 1.399 . S
C744 H730 0.929 . S
C744 C743 1.399 . S
C744 C745 1.385 . S
C745 H731 0.931 . S
C745 C744 1.385 . S
C745 C746 1.389 . S
C746 C745 1.389 . S
C746 C747 1.387 . S
C747 H732 0.930 . S
C747 C742 1.390 . S
C747 C746 1.387 . S
H748 C760 0.930 . S
H749 C762 0.930 . S
H750 C763 0.930 1_455 S
H751 C767 0.959 . S
H752 C767 0.959 . S
H753 C767 0.961 . S
H754 C768 0.960 . S
H755 C768 0.961 . S
H756 C768 0.959 1_554 S
H757 C771 0.929 . S
H758 C772 0.931 . S
H759 C774 0.930 . S
C760 H748 0.930 . S
C760 C761 1.399 . S
C760 C765 1.399 . S
C761 C760 1.399 . S
C761 C762 1.376 . S
C762 H749 0.930 . S
C762 C761 1.376 . S
C762 C763 1.388 . S
C763 H750 0.930 1_655 S
C763 C762 1.388 . S
C763 C764 1.390 . S
C764 C763 1.390 . S
C764 C765 1.394 . S
C764 C770 1.465 . S
C765 C760 1.399 . S
C765 C764 1.394 . S
C765 C766 1.516 1_554 S
C766 C765 1.516 1_556 S
C766 C767 1.502 . S
C766 C768 1.561 . S
C766 C769 1.526 . S
C767 H751 0.959 . S
C767 H752 0.959 . S
C767 H753 0.961 . S
C767 C766 1.502 . S
C768 H754 0.960 . S
C768 H755 0.961 . S
C768 H756 0.959 1_556 S
C768 C766 1.561 . S
C769 C766 1.526 . S
C769 C770 1.396 1_556 S
C769 C774 1.390 . S
C770 C764 1.465 . S
C770 C769 1.396 1_554 S
C770 C771 1.399 1_655 S
C771 H757 0.929 . S
C771 C770 1.399 1_455 S
C771 C772 1.385 . S
C772 H758 0.931 . S
C772 C771 1.385 . S
C772 C773 1.389 1_554 S
C773 C772 1.389 1_556 S
C773 C774 1.387 1_455 S
C774 H759 0.930 . S
C774 C769 1.390 . S
C774 C773 1.387 1_655 S
H775 C787 0.930 1_545 S
H776 C789 0.930 . S
H777 C790 0.930 . S
H778 C794 0.959 . S
H779 C794 0.959 . S
H780 C794 0.961 . S
H781 C795 0.960 . S
H782 C795 0.961 . S
H783 C795 0.959 . S
H784 C798 0.929 . S
H785 C799 0.931 . S
H786 C801 0.930 . S
C787 H775 0.930 1_565 S
C787 C788 1.399 . S
C787 C792 1.399 . S
C788 C787 1.399 . S
C788 C789 1.376 . S
C789 H776 0.930 . S
C789 C788 1.376 . S
C789 C790 1.388 . S
C790 H777 0.930 . S
C790 C789 1.388 . S
C790 C791 1.390 . S
C791 C790 1.390 . S
C791 C792 1.394 . S
C791 C797 1.465 . S
C792 C787 1.399 . S
C792 C791 1.394 . S
C792 C793 1.516 1_565 S
C793 C792 1.516 1_545 S
C793 C794 1.502 . S
C793 C795 1.561 1_554 S
C793 C796 1.526 1_554 S
C794 H778 0.959 . S
C794 H779 0.959 . S
C794 H780 0.961 . S
C794 C793 1.502 . S
C795 H781 0.960 . S
C795 H782 0.961 . S
C795 H783 0.959 . S
C795 C793 1.561 1_556 S
C796 C793 1.526 1_556 S
C796 C797 1.396 1_546 S
C796 C801 1.390 . S
C797 C791 1.465 . S
C797 C796 1.396 1_564 S
C797 C798 1.399 . S
C798 H784 0.929 . S
C798 C797 1.399 . S
C798 C799 1.385 1_554 S
C799 H785 0.931 . S
C799 C798 1.385 1_556 S
C799 C800 1.389 1_565 S
C800 C799 1.389 1_545 S
C800 C801 1.387 . S
C801 H786 0.930 . S
C801 C796 1.390 . S
C801 C800 1.387 . S
H802 C814 0.930 . S
H803 C816 0.930 . S
H804 C817 0.930 . S
H805 C821 0.959 . S
H806 C821 0.959 . S
H807 C821 0.961 . S
H808 C822 0.960 . S
H809 C822 0.961 . S
H810 C822 0.959 . S
H811 C825 0.929 . S
H812 C826 0.931 . S
H813 C828 0.930 . S
C814 H802 0.930 . S
C814 C815 1.399 . S
C814 C819 1.399 . S
C815 C814 1.399 . S
C815 C816 1.376 . S
C816 H803 0.930 . S
C816 C815 1.376 . S
C816 C817 1.388 . S
C817 H804 0.930 . S
C817 C816 1.388 . S
C817 C818 1.390 . S
C818 C817 1.390 . S
C818 C819 1.394 . S
C818 C824 1.465 . S
C819 C814 1.399 . S
C819 C818 1.394 . S
C819 C820 1.516 1_554 S
C820 C819 1.516 1_556 S
C820 C821 1.502 . S
C820 C822 1.561 . S
C820 C823 1.526 . S
C821 H805 0.959 . S
C821 H806 0.959 . S
C821 H807 0.961 . S
C821 C820 1.502 . S
C822 H808 0.960 . S
C822 H809 0.961 . S
C822 H810 0.959 . S
C822 C820 1.561 . S
C823 C820 1.526 . S
C823 C824 1.396 1_556 S
C823 C828 1.390 . S
C824 C818 1.465 . S
C824 C823 1.396 1_554 S
C824 C825 1.399 . S
C825 H811 0.929 . S
C825 C824 1.399 . S
C825 C826 1.385 . S
C826 H812 0.931 . S
C826 C825 1.385 . S
C826 C827 1.389 1_554 S
C827 C826 1.389 1_556 S
C827 C828 1.387 . S
C828 H813 0.930 . S
C828 C823 1.390 . S
C828 C827 1.387 . S
H829 C841 0.930 . S
H830 C843 0.930 . S
H831 C844 0.930 . S
H832 C848 0.959 . S
H833 C848 0.959 . S
H834 C848 0.961 . S
H835 C849 0.960 . S
H836 C849 0.961 1_556 S
H837 C849 0.959 . S
H838 C852 0.929 . S
H839 C853 0.931 . S
H840 C855 0.930 . S
C841 H829 0.930 . S
C841 C842 1.399 . S
C841 C846 1.399 . S
C842 C841 1.399 . S
C842 C843 1.376 . S
C843 H830 0.930 . S
C843 C842 1.376 . S
C843 C844 1.388 . S
C844 H831 0.930 . S
C844 C843 1.388 . S
C844 C845 1.390 . S
C845 C844 1.390 . S
C845 C846 1.394 . S
C845 C851 1.465 . S
C846 C841 1.399 . S
C846 C845 1.394 . S
C846 C847 1.517 1_554 S
C847 C846 1.517 1_556 S
C847 C848 1.501 . S
C847 C849 1.562 1_556 S
C847 C850 1.526 . S
C848 H832 0.959 . S
C848 H833 0.959 . S
C848 H834 0.961 . S
C848 C847 1.501 . S
C849 H835 0.960 . S
C849 H836 0.961 1_554 S
C849 H837 0.959 . S
C849 C847 1.562 1_554 S
C850 C847 1.526 . S
C850 C851 1.396 1_556 S
C850 C855 1.390 . S
C851 C845 1.465 . S
C851 C850 1.396 1_554 S
C851 C852 1.399 . S
C852 H838 0.929 . S
C852 C851 1.399 . S
C852 C853 1.385 1_554 S
C853 H839 0.931 . S
C853 C852 1.385 1_556 S
C853 C854 1.389 . S
C854 C853 1.389 . S
C854 C855 1.387 . S
C855 H840 0.930 . S
C855 C850 1.390 . S
C855 C854 1.387 . S
H856 C868 0.930 . S
H857 C870 0.930 . S
H858 C871 0.930 . S
H859 C875 0.959 1_655 S
H860 C875 0.959 . S
H861 C875 0.961 . S
H862 C876 0.960 . S
H863 C876 0.961 . S
H864 C876 0.959 . S
H865 C879 0.929 . S
H866 C880 0.931 . S
H867 C882 0.930 . S
C868 H856 0.930 . S
C868 C869 1.399 . S
C868 C873 1.399 . S
C869 C868 1.399 . S
C869 C870 1.376 . S
C870 H857 0.930 . S
C870 C869 1.376 . S
C870 C871 1.388 . S
C871 H858 0.930 . S
C871 C870 1.388 . S
C871 C872 1.390 . S
C872 C871 1.390 . S
C872 C873 1.394 . S
C872 C878 1.465 . S
C873 C868 1.399 . S
C873 C872 1.394 . S
C873 C874 1.516 . S
C874 C873 1.516 . S
C874 C875 1.502 . S
C874 C876 1.561 . S
C874 C877 1.526 . S
C875 H859 0.959 1_455 S
C875 H860 0.959 . S
C875 H861 0.961 . S
C875 C874 1.502 . S
C876 H862 0.960 . S
C876 H863 0.961 . S
C876 H864 0.959 . S
C876 C874 1.561 . S
C877 C874 1.526 . S
C877 C878 1.396 . S
C877 C882 1.390 . S
C878 C872 1.465 . S
C878 C877 1.396 . S
C878 C879 1.399 . S
C879 H865 0.929 . S
C879 C878 1.399 . S
C879 C880 1.385 . S
C880 H866 0.931 . S
C880 C879 1.385 . S
C880 C881 1.389 . S
C881 C880 1.389 . S
C881 C882 1.387 . S
C882 H867 0.930 . S
C882 C877 1.390 . S
C882 C881 1.387 . S
H883 C895 0.930 . S
H884 C897 0.930 . S
H885 C898 0.930 . S
H886 C902 0.959 . S
H887 C902 0.959 . S
H888 C902 0.961 . S
H889 C903 0.961 1_565 S
H890 C903 0.961 1_565 S
H891 C903 0.961 1_565 S
H892 C906 0.929 . S
H893 C907 0.931 . S
H894 C909 0.930 . S
C895 H883 0.930 . S
C895 C896 1.399 . S
C895 C900 1.399 . S
C896 C895 1.399 . S
C896 C897 1.376 . S
C897 H884 0.930 . S
C897 C896 1.376 . S
C897 C898 1.388 . S
C898 H885 0.930 . S
C898 C897 1.388 . S
C898 C899 1.390 . S
C899 C898 1.390 . S
C899 C900 1.394 . S
C899 C905 1.465 . S
C900 C895 1.399 . S
C900 C899 1.394 . S
C900 C901 1.516 . S
C901 C900 1.516 . S
C901 C902 1.502 . S
C901 C903 1.558 . S
C901 C904 1.526 . S
C902 H886 0.959 . S
C902 H887 0.959 . S
C902 H888 0.961 . S
C902 C901 1.502 . S
C903 H889 0.961 1_545 S
C903 H890 0.961 1_545 S
C903 H891 0.961 1_545 S
C903 C901 1.558 . S
C904 C901 1.526 . S
C904 C905 1.396 . S
C904 C909 1.390 . S
C905 C899 1.465 . S
C905 C904 1.396 . S
C905 C906 1.399 . S
C906 H892 0.929 . S
C906 C905 1.399 . S
C906 C907 1.385 . S
C907 H893 0.931 . S
C907 C906 1.385 . S
C907 C908 1.389 . S
C908 C907 1.389 . S
C908 C909 1.387 . S
C909 H894 0.930 . S
C909 C904 1.390 . S
C909 C908 1.387 . S
H910 C922 0.930 . S
H911 C924 0.930 . S
H912 C925 0.930 . S
H913 C929 0.959 . S
H914 C929 0.959 . S
H915 C929 0.961 . S
H916 C930 0.960 . S
H917 C930 0.961 . S
H918 C930 0.959 . S
H919 C933 0.929 . S
H920 C934 0.931 . S
H921 C936 0.930 . S
C922 H910 0.930 . S
C922 C923 1.399 . S
C922 C927 1.399 . S
C923 C922 1.399 . S
C923 C924 1.376 . S
C924 H911 0.930 . S
C924 C923 1.376 . S
C924 C925 1.388 . S
C925 H912 0.930 . S
C925 C924 1.388 . S
C925 C926 1.390 . S
C926 C925 1.390 . S
C926 C927 1.394 . S
C926 C932 1.465 . S
C927 C922 1.399 . S
C927 C926 1.394 . S
C927 C928 1.516 . S
C928 C927 1.516 . S
C928 C929 1.502 . S
C928 C930 1.561 . S
C928 C931 1.526 . S
C929 H913 0.959 . S
C929 H914 0.959 . S
C929 H915 0.961 . S
C929 C928 1.502 . S
C930 H916 0.960 . S
C930 H917 0.961 . S
C930 H918 0.959 . S
C930 C928 1.561 . S
C931 C928 1.526 . S
C931 C932 1.396 . S
C931 C936 1.390 . S
C932 C926 1.465 . S
C932 C931 1.396 . S
C932 C933 1.399 . S
C933 H919 0.929 . S
C933 C932 1.399 . S
C933 C934 1.385 . S
C934 H920 0.931 . S
C934 C933 1.385 . S
C934 C935 1.389 . S
C935 C934 1.389 . S
C935 C936 1.387 . S
C936 H921 0.930 . S
C936 C931 1.390 . S
C936 C935 1.387 . S
H937 C949 0.930 . S
H938 C951 0.930 . S
H939 C952 0.930 . S
H940 C956 0.959 . S
H941 C956 0.959 . S
H942 C956 0.961 . S
H943 C957 0.960 . S
H944 C957 0.961 . S
H945 C957 0.959 . S
H946 C960 0.929 . S
H947 C961 0.931 . S
H948 C963 0.930 . S
C949 H937 0.930 . S
C949 C950 1.399 . S
C949 C954 1.399 . S
C950 C949 1.399 . S
C950 C951 1.376 . S
C951 H938 0.930 . S
C951 C950 1.376 . S
C951 C952 1.388 . S
C952 H939 0.930 . S
C952 C951 1.388 . S
C952 C953 1.390 . S
C953 C952 1.390 . S
C953 C954 1.394 . S
C953 C959 1.465 . S
C954 C949 1.399 . S
C954 C953 1.394 . S
C954 C955 1.516 . S
C955 C954 1.516 . S
C955 C956 1.502 . S
C955 C957 1.561 . S
C955 C958 1.526 . S
C956 H940 0.959 . S
C956 H941 0.959 . S
C956 H942 0.961 . S
C956 C955 1.502 . S
C957 H943 0.960 . S
C957 H944 0.961 . S
C957 H945 0.959 . S
C957 C955 1.561 . S
C958 C955 1.526 . S
C958 C959 1.396 . S
C958 C963 1.390 . S
C959 C953 1.465 . S
C959 C958 1.396 . S
C959 C960 1.399 . S
C960 H946 0.929 . S
C960 C959 1.399 . S
C960 C961 1.385 . S
C961 H947 0.931 . S
C961 C960 1.385 . S
C961 C962 1.389 . S
C962 C961 1.389 . S
C962 C963 1.387 . S
C963 H948 0.930 . S
C963 C958 1.390 . S
C963 C962 1.387 . S
H964 C976 0.930 . S
H965 C978 0.930 . S
H966 C979 0.930 . S
H967 C983 0.959 . S
H968 C983 0.959 . S
H969 C983 0.961 . S
H970 C984 0.960 . S
H971 C984 0.961 . S
H972 C984 0.959 . S
H973 C987 0.929 . S
H974 C988 0.931 . S
H975 C990 0.930 . S
C976 H964 0.930 . S
C976 C977 1.399 . S
C976 C981 1.399 . S
C977 C976 1.399 . S
C977 C978 1.376 . S
C978 H965 0.930 . S
C978 C977 1.376 . S
C978 C979 1.388 . S
C979 H966 0.930 . S
C979 C978 1.388 . S
C979 C980 1.390 . S
C980 C979 1.390 . S
C980 C981 1.394 . S
C980 C986 1.465 . S
C981 C976 1.399 . S
C981 C980 1.394 . S
C981 C982 1.516 . S
C982 C981 1.516 . S
C982 C983 1.502 1_655 S
C982 C984 1.561 . S
C982 C985 1.526 . S
C983 H967 0.959 . S
C983 H968 0.959 . S
C983 H969 0.961 . S
C983 C982 1.502 1_455 S
C984 H970 0.960 . S
C984 H971 0.961 . S
C984 H972 0.959 . S
C984 C982 1.561 . S
C985 C982 1.526 . S
C985 C986 1.396 . S
C985 C990 1.390 . S
C986 C980 1.465 . S
C986 C985 1.396 . S
C986 C987 1.399 . S
C987 H973 0.929 . S
C987 C986 1.399 . S
C987 C988 1.385 . S
C988 H974 0.931 . S
C988 C987 1.385 . S
C988 C989 1.389 . S
C989 C988 1.389 . S
C989 C990 1.387 . S
C990 H975 0.930 . S
C990 C985 1.390 . S
C990 C989 1.387 . S
H991 C1003 0.930 . S
H992 C1005 0.930 . S
H993 C1006 0.930 . S
H994 C1010 0.959 . S
H995 C1010 0.959 . S
H996 C1010 0.961 . S
H997 C1011 0.960 . S
H998 C1011 0.961 . S
H999 C1011 0.959 . S
H1000 C1014 0.929 . S
H1001 C1015 0.931 . S
H1002 C1017 0.930 . S
C1003 H991 0.930 . S
C1003 C1004 1.399 . S
C1003 C1008 1.399 . S
C1004 C1003 1.399 . S
C1004 C1005 1.376 . S
C1005 H992 0.930 . S
C1005 C1004 1.376 . S
C1005 C1006 1.388 . S
C1006 H993 0.930 . S
C1006 C1005 1.388 . S
C1006 C1007 1.390 . S
C1007 C1006 1.390 . S
C1007 C1008 1.394 . S
C1007 C1013 1.465 . S
C1008 C1003 1.399 . S
C1008 C1007 1.394 . S
C1008 C1009 1.516 . S
C1009 C1008 1.516 . S
C1009 C1010 1.502 . S
C1009 C1011 1.561 1_565 S
C1009 C1012 1.526 . S
C1010 H994 0.959 . S
C1010 H995 0.959 . S
C1010 H996 0.961 . S
C1010 C1009 1.502 . S
C1011 H997 0.960 . S
C1011 H998 0.961 . S
C1011 H999 0.959 . S
C1011 C1009 1.561 1_545 S
C1012 C1009 1.526 . S
C1012 C1013 1.396 . S
C1012 C1017 1.390 . S
C1013 C1007 1.465 . S
C1013 C1012 1.396 . S
C1013 C1014 1.399 . S
C1014 H1000 0.929 . S
C1014 C1013 1.399 . S
C1014 C1015 1.385 . S
C1015 H1001 0.931 . S
C1015 C1014 1.385 . S
C1015 C1016 1.389 . S
C1016 C1015 1.389 . S
C1016 C1017 1.387 . S
C1017 H1002 0.930 . S
C1017 C1012 1.390 . S
C1017 C1016 1.387 . S
H1018 C1030 0.930 . S
H1019 C1032 0.930 . S
H1020 C1033 0.930 . S
H1021 C1037 0.959 . S
H1022 C1037 0.959 . S
H1023 C1037 0.961 . S
H1024 C1038 0.960 . S
H1025 C1038 0.961 . S
H1026 C1038 0.959 . S
H1027 C1041 0.929 . S
H1028 C1042 0.931 . S
H1029 C1044 0.930 . S
C1030 H1018 0.930 . S
C1030 C1031 1.399 . S
C1030 C1035 1.399 . S
C1031 C1030 1.399 . S
C1031 C1032 1.376 . S
C1032 H1019 0.930 . S
C1032 C1031 1.376 . S
C1032 C1033 1.388 . S
C1033 H1020 0.930 . S
C1033 C1032 1.388 . S
C1033 C1034 1.390 . S
C1034 C1033 1.390 . S
C1034 C1035 1.394 . S
C1034 C1040 1.465 . S
C1035 C1030 1.399 . S
C1035 C1034 1.394 . S
C1035 C1036 1.516 . S
C1036 C1035 1.516 . S
C1036 C1037 1.502 . S
C1036 C1038 1.561 . S
C1036 C1039 1.526 . S
C1037 H1021 0.959 . S
C1037 H1022 0.959 . S
C1037 H1023 0.961 . S
C1037 C1036 1.502 . S
C1038 H1024 0.960 . S
C1038 H1025 0.961 . S
C1038 H1026 0.959 . S
C1038 C1036 1.561 . S
C1039 C1036 1.526 . S
C1039 C1040 1.396 . S
C1039 C1044 1.390 . S
C1040 C1034 1.465 . S
C1040 C1039 1.396 . S
C1040 C1041 1.399 . S
C1041 H1027 0.929 . S
C1041 C1040 1.399 . S
C1041 C1042 1.385 . S
C1042 H1028 0.931 . S
C1042 C1041 1.385 . S
C1042 C1043 1.389 . S
C1043 C1042 1.389 . S
C1043 C1044 1.387 . S
C1044 H1029 0.930 . S
C1044 C1039 1.390 . S
C1044 C1043 1.387 . S
H1045 C1057 0.930 . S
H1046 C1059 0.930 . S
H1047 C1060 0.930 . S
H1048 C1064 0.959 . S
H1049 C1064 0.959 . S
H1050 C1064 0.961 . S
H1051 C1065 0.960 . S
H1052 C1065 0.961 . S
H1053 C1065 0.959 . S
H1054 C1068 0.929 . S
H1055 C1069 0.931 . S
H1056 C1071 0.930 . S
C1057 H1045 0.930 . S
C1057 C1058 1.399 . S
C1057 C1062 1.399 . S
C1058 C1057 1.399 . S
C1058 C1059 1.376 . S
C1059 H1046 0.930 . S
C1059 C1058 1.376 . S
C1059 C1060 1.388 . S
C1060 H1047 0.930 . S
C1060 C1059 1.388 . S
C1060 C1061 1.390 . S
C1061 C1060 1.390 . S
C1061 C1062 1.394 . S
C1061 C1067 1.465 . S
C1062 C1057 1.399 . S
C1062 C1061 1.394 . S
C1062 C1063 1.516 . S
C1063 C1062 1.516 . S
C1063 C1064 1.502 . S
C1063 C1065 1.561 . S
C1063 C1066 1.526 . S
C1064 H1048 0.959 . S
C1064 H1049 0.959 . S
C1064 H1050 0.961 . S
C1064 C1063 1.502 . S
C1065 H1051 0.960 . S
C1065 H1052 0.961 . S
C1065 H1053 0.959 . S
C1065 C1063 1.561 . S
C1066 C1063 1.526 . S
C1066 C1067 1.396 . S
C1066 C1071 1.390 . S
C1067 C1061 1.465 . S
C1067 C1066 1.396 . S
C1067 C1068 1.399 . S
C1068 H1054 0.929 . S
C1068 C1067 1.399 . S
C1068 C1069 1.385 . S
C1069 H1055 0.931 . S
C1069 C1068 1.385 . S
C1069 C1070 1.389 . S
C1070 C1069 1.389 . S
C1070 C1071 1.387 . S
C1071 H1056 0.930 . S
C1071 C1066 1.390 . S
C1071 C1070 1.387 . S
C437 C74 1.882 . S
C449 C151 1.928 . S
C476 C228 1.966 . S
C464 C85 1.863 . S
C503 C319 1.918 . S
C491 C52 1.888 . S
C530 C403 1.926 . S
C518 C63 1.870 . S
C557 C162 1.939 . S
C545 C30 1.795 . S
C572 C41 1.830 . S
C584 C239 1.955 . S
C599 C8 1.843 . S
C611 C330 1.955 . S
C626 C19 1.831 . S
C638 C414 1.946 1_655 S
C665 C146 0.705 1_455 S
C653 C62 0.649 . S
C692 C241 0.694 . S
C680 C73 0.651 . S
C719 C314 0.753 . S
C707 C84 0.671 . S
C734 C51 0.667 . S
C746 C398 0.761 . S
C761 C18 0.729 . S
C773 C157 0.696 . S
C800 C230 0.664 . S
C788 C29 0.771 . S
C827 C325 0.754 . S
C815 C40 0.781 . S
C842 C7 0.667 . S
C854 C409 0.636 . S
C869 C60 1.646 . S
C881 C155 2.099 . S
C896 C71 1.758 . S
C908 C246 2.110 . S
C935 C323 2.113 . S
C923 C82 1.655 . S
C962 C407 2.118 . S
C950 C49 1.708 . S
C977 C16 1.649 . S
C989 C144 2.069 . S
C1016 C235 2.099 1_565 S
C1004 C27 1.524 . S
C1043 C312 2.085 . S
C1031 C38 1.661 . S
C1058 C5 1.543 . S
C1070 C396 2.120 . S
