# Generated by pormake.
# Topology gar, (4,6)-cn, num edge types: 1
# Building blocks:
#     Node 0, Type 0, BuildingBlock: GALJAG_clean_sbu_0, # of connection points: 4
#     Node 1, Type 0, BuildingBlock: GALJAG_clean_sbu_0, # of connection points: 4
#     Node 2, Type 0, BuildingBlock: GALJAG_clean_sbu_0, # of connection points: 4
#     Node 3, Type 0, BuildingBlock: GALJAG_clean_sbu_0, # of connection points: 4
#     Node 4, Type 0, BuildingBlock: GALJAG_clean_sbu_0, # of connection points: 4
#     Node 5, Type 0, BuildingBlock: GALJAG_clean_sbu_0, # of connection points: 4
#     Node 6, Type 0, BuildingBlock: GALJAG_clean_sbu_0, # of connection points: 4
#     Node 7, Type 0, BuildingBlock: GALJAG_clean_sbu_0, # of connection points: 4
#     Node 8, Type 0, BuildingBlock: GALJAG_clean_sbu_0, # of connection points: 4
#     Node 9, Type 0, BuildingBlock: GALJAG_clean_sbu_0, # of connection points: 4
#     Node 10, Type 0, BuildingBlock: GALJAG_clean_sbu_0, # of connection points: 4
#     Node 11, Type 0, BuildingBlock: GALJAG_clean_sbu_0, # of connection points: 4
#     Node 12, Type 0, BuildingBlock: GALJAG_clean_sbu_0, # of connection points: 4
#     Node 13, Type 0, BuildingBlock: GALJAG_clean_sbu_0, # of connection points: 4
#     Node 14, Type 0, BuildingBlock: GALJAG_clean_sbu_0, # of connection points: 4
#     Node 15, Type 0, BuildingBlock: GALJAG_clean_sbu_0, # of connection points: 4
#     Node 16, Type 0, BuildingBlock: GALJAG_clean_sbu_0, # of connection points: 4
#     Node 17, Type 0, BuildingBlock: GALJAG_clean_sbu_0, # of connection points: 4
#     Node 18, Type 0, BuildingBlock: GALJAG_clean_sbu_0, # of connection points: 4
#     Node 19, Type 0, BuildingBlock: GALJAG_clean_sbu_0, # of connection points: 4
#     Node 20, Type 0, BuildingBlock: GALJAG_clean_sbu_0, # of connection points: 4
#     Node 21, Type 0, BuildingBlock: GALJAG_clean_sbu_0, # of connection points: 4
#     Node 22, Type 0, BuildingBlock: GALJAG_clean_sbu_0, # of connection points: 4
#     Node 23, Type 0, BuildingBlock: GALJAG_clean_sbu_0, # of connection points: 4
#     Node 24, Type 1, BuildingBlock: HISSIN_clean_sbu_0, # of connection points: 6
#     Node 25, Type 1, BuildingBlock: HISSIN_clean_sbu_0, # of connection points: 6
#     Node 26, Type 1, BuildingBlock: HISSIN_clean_sbu_0, # of connection points: 6
#     Node 27, Type 1, BuildingBlock: HISSIN_clean_sbu_0, # of connection points: 6
#     Node 28, Type 1, BuildingBlock: HISSIN_clean_sbu_0, # of connection points: 6
#     Node 29, Type 1, BuildingBlock: HISSIN_clean_sbu_0, # of connection points: 6
#     Node 30, Type 1, BuildingBlock: HISSIN_clean_sbu_0, # of connection points: 6
#     Node 31, Type 1, BuildingBlock: HISSIN_clean_sbu_0, # of connection points: 6
#     Node 32, Type 1, BuildingBlock: HISSIN_clean_sbu_0, # of connection points: 6
#     Node 33, Type 1, BuildingBlock: HISSIN_clean_sbu_0, # of connection points: 6
#     Node 34, Type 1, BuildingBlock: HISSIN_clean_sbu_0, # of connection points: 6
#     Node 35, Type 1, BuildingBlock: HISSIN_clean_sbu_0, # of connection points: 6
#     Node 36, Type 1, BuildingBlock: HISSIN_clean_sbu_0, # of connection points: 6
#     Node 37, Type 1, BuildingBlock: HISSIN_clean_sbu_0, # of connection points: 6
#     Node 38, Type 1, BuildingBlock: HISSIN_clean_sbu_0, # of connection points: 6
#     Node 39, Type 1, BuildingBlock: HISSIN_clean_sbu_0, # of connection points: 6
#     Edge 40, Type (0, 1), BuildingBlock: XIVTED_clean_linker_0, # of connection points: 2
#     Edge 41, Type (0, 1), BuildingBlock: XIVTED_clean_linker_0, # of connection points: 2
#     Edge 42, Type (0, 1), BuildingBlock: XIVTED_clean_linker_0, # of connection points: 2
#     Edge 43, Type (0, 1), BuildingBlock: XIVTED_clean_linker_0, # of connection points: 2
#     Edge 44, Type (0, 1), BuildingBlock: XIVTED_clean_linker_0, # of connection points: 2
#     Edge 45, Type (0, 1), BuildingBlock: XIVTED_clean_linker_0, # of connection points: 2
#     Edge 46, Type (0, 1), BuildingBlock: XIVTED_clean_linker_0, # of connection points: 2
#     Edge 47, Type (0, 1), BuildingBlock: XIVTED_clean_linker_0, # of connection points: 2
#     Edge 48, Type (0, 1), BuildingBlock: XIVTED_clean_linker_0, # of connection points: 2
#     Edge 49, Type (0, 1), BuildingBlock: XIVTED_clean_linker_0, # of connection points: 2
#     Edge 50, Type (0, 1), BuildingBlock: XIVTED_clean_linker_0, # of connection points: 2
#     Edge 51, Type (0, 1), BuildingBlock: XIVTED_clean_linker_0, # of connection points: 2
#     Edge 52, Type (0, 1), BuildingBlock: XIVTED_clean_linker_0, # of connection points: 2
#     Edge 53, Type (0, 1), BuildingBlock: XIVTED_clean_linker_0, # of connection points: 2
#     Edge 54, Type (0, 1), BuildingBlock: XIVTED_clean_linker_0, # of connection points: 2
#     Edge 55, Type (0, 1), BuildingBlock: XIVTED_clean_linker_0, # of connection points: 2
#     Edge 56, Type (0, 1), BuildingBlock: XIVTED_clean_linker_0, # of connection points: 2
#     Edge 57, Type (0, 1), BuildingBlock: XIVTED_clean_linker_0, # of connection points: 2
#     Edge 58, Type (0, 1), BuildingBlock: XIVTED_clean_linker_0, # of connection points: 2
#     Edge 59, Type (0, 1), BuildingBlock: XIVTED_clean_linker_0, # of connection points: 2
#     Edge 60, Type (0, 1), BuildingBlock: XIVTED_clean_linker_0, # of connection points: 2
#     Edge 61, Type (0, 1), BuildingBlock: XIVTED_clean_linker_0, # of connection points: 2
#     Edge 62, Type (0, 1), BuildingBlock: XIVTED_clean_linker_0, # of connection points: 2
#     Edge 63, Type (0, 1), BuildingBlock: XIVTED_clean_linker_0, # of connection points: 2
#     Edge 64, Type (0, 1), BuildingBlock: XIVTED_clean_linker_0, # of connection points: 2
#     Edge 65, Type (0, 1), BuildingBlock: XIVTED_clean_linker_0, # of connection points: 2
#     Edge 66, Type (0, 1), BuildingBlock: XIVTED_clean_linker_0, # of connection points: 2
#     Edge 67, Type (0, 1), BuildingBlock: XIVTED_clean_linker_0, # of connection points: 2
#     Edge 68, Type (0, 1), BuildingBlock: XIVTED_clean_linker_0, # of connection points: 2
#     Edge 69, Type (0, 1), BuildingBlock: XIVTED_clean_linker_0, # of connection points: 2
#     Edge 70, Type (0, 1), BuildingBlock: XIVTED_clean_linker_0, # of connection points: 2
#     Edge 71, Type (0, 1), BuildingBlock: XIVTED_clean_linker_0, # of connection points: 2
#     Edge 72, Type (0, 1), BuildingBlock: XIVTED_clean_linker_0, # of connection points: 2
#     Edge 73, Type (0, 1), BuildingBlock: XIVTED_clean_linker_0, # of connection points: 2
#     Edge 74, Type (0, 1), BuildingBlock: XIVTED_clean_linker_0, # of connection points: 2
#     Edge 75, Type (0, 1), BuildingBlock: XIVTED_clean_linker_0, # of connection points: 2
#     Edge 76, Type (0, 1), BuildingBlock: XIVTED_clean_linker_0, # of connection points: 2
#     Edge 77, Type (0, 1), BuildingBlock: XIVTED_clean_linker_0, # of connection points: 2
#     Edge 78, Type (0, 1), BuildingBlock: XIVTED_clean_linker_0, # of connection points: 2
#     Edge 79, Type (0, 1), BuildingBlock: XIVTED_clean_linker_0, # of connection points: 2
#     Edge 80, Type (0, 1), BuildingBlock: XIVTED_clean_linker_0, # of connection points: 2
#     Edge 81, Type (0, 1), BuildingBlock: XIVTED_clean_linker_0, # of connection points: 2
#     Edge 82, Type (0, 1), BuildingBlock: XIVTED_clean_linker_0, # of connection points: 2
#     Edge 83, Type (0, 1), BuildingBlock: XIVTED_clean_linker_0, # of connection points: 2
#     Edge 84, Type (0, 1), BuildingBlock: XIVTED_clean_linker_0, # of connection points: 2
#     Edge 85, Type (0, 1), BuildingBlock: XIVTED_clean_linker_0, # of connection points: 2
#     Edge 86, Type (0, 1), BuildingBlock: XIVTED_clean_linker_0, # of connection points: 2
#     Edge 87, Type (0, 1), BuildingBlock: XIVTED_clean_linker_0, # of connection points: 2
#     Edge 88, Type (0, 1), BuildingBlock: XIVTED_clean_linker_0, # of connection points: 2
#     Edge 89, Type (0, 1), BuildingBlock: XIVTED_clean_linker_0, # of connection points: 2
#     Edge 90, Type (0, 1), BuildingBlock: XIVTED_clean_linker_0, # of connection points: 2
#     Edge 91, Type (0, 1), BuildingBlock: XIVTED_clean_linker_0, # of connection points: 2
#     Edge 92, Type (0, 1), BuildingBlock: XIVTED_clean_linker_0, # of connection points: 2
#     Edge 93, Type (0, 1), BuildingBlock: XIVTED_clean_linker_0, # of connection points: 2
#     Edge 94, Type (0, 1), BuildingBlock: XIVTED_clean_linker_0, # of connection points: 2
#     Edge 95, Type (0, 1), BuildingBlock: XIVTED_clean_linker_0, # of connection points: 2
#     Edge 96, Type (0, 1), BuildingBlock: XIVTED_clean_linker_0, # of connection points: 2
#     Edge 97, Type (0, 1), BuildingBlock: XIVTED_clean_linker_0, # of connection points: 2
#     Edge 98, Type (0, 1), BuildingBlock: XIVTED_clean_linker_0, # of connection points: 2
#     Edge 99, Type (0, 1), BuildingBlock: XIVTED_clean_linker_0, # of connection points: 2
#     Edge 100, Type (0, 1), BuildingBlock: XIVTED_clean_linker_0, # of connection points: 2
#     Edge 101, Type (0, 1), BuildingBlock: XIVTED_clean_linker_0, # of connection points: 2
#     Edge 102, Type (0, 1), BuildingBlock: XIVTED_clean_linker_0, # of connection points: 2
#     Edge 103, Type (0, 1), BuildingBlock: XIVTED_clean_linker_0, # of connection points: 2
#     Edge 104, Type (0, 1), BuildingBlock: XIVTED_clean_linker_0, # of connection points: 2
#     Edge 105, Type (0, 1), BuildingBlock: XIVTED_clean_linker_0, # of connection points: 2
#     Edge 106, Type (0, 1), BuildingBlock: XIVTED_clean_linker_0, # of connection points: 2
#     Edge 107, Type (0, 1), BuildingBlock: XIVTED_clean_linker_0, # of connection points: 2
#     Edge 108, Type (0, 1), BuildingBlock: XIVTED_clean_linker_0, # of connection points: 2
#     Edge 109, Type (0, 1), BuildingBlock: XIVTED_clean_linker_0, # of connection points: 2
#     Edge 110, Type (0, 1), BuildingBlock: XIVTED_clean_linker_0, # of connection points: 2
#     Edge 111, Type (0, 1), BuildingBlock: XIVTED_clean_linker_0, # of connection points: 2
#     Edge 112, Type (0, 1), BuildingBlock: XIVTED_clean_linker_0, # of connection points: 2
#     Edge 113, Type (0, 1), BuildingBlock: XIVTED_clean_linker_0, # of connection points: 2
#     Edge 114, Type (0, 1), BuildingBlock: XIVTED_clean_linker_0, # of connection points: 2
#     Edge 115, Type (0, 1), BuildingBlock: XIVTED_clean_linker_0, # of connection points: 2
#     Edge 116, Type (0, 1), BuildingBlock: XIVTED_clean_linker_0, # of connection points: 2
#     Edge 117, Type (0, 1), BuildingBlock: XIVTED_clean_linker_0, # of connection points: 2
#     Edge 118, Type (0, 1), BuildingBlock: XIVTED_clean_linker_0, # of connection points: 2
#     Edge 119, Type (0, 1), BuildingBlock: XIVTED_clean_linker_0, # of connection points: 2
#     Edge 120, Type (0, 1), BuildingBlock: XIVTED_clean_linker_0, # of connection points: 2
#     Edge 121, Type (0, 1), BuildingBlock: XIVTED_clean_linker_0, # of connection points: 2
#     Edge 122, Type (0, 1), BuildingBlock: XIVTED_clean_linker_0, # of connection points: 2
#     Edge 123, Type (0, 1), BuildingBlock: XIVTED_clean_linker_0, # of connection points: 2
#     Edge 124, Type (0, 1), BuildingBlock: XIVTED_clean_linker_0, # of connection points: 2
#     Edge 125, Type (0, 1), BuildingBlock: XIVTED_clean_linker_0, # of connection points: 2
#     Edge 126, Type (0, 1), BuildingBlock: XIVTED_clean_linker_0, # of connection points: 2
#     Edge 127, Type (0, 1), BuildingBlock: XIVTED_clean_linker_0, # of connection points: 2
#     Edge 128, Type (0, 1), BuildingBlock: XIVTED_clean_linker_0, # of connection points: 2
#     Edge 129, Type (0, 1), BuildingBlock: XIVTED_clean_linker_0, # of connection points: 2
#     Edge 130, Type (0, 1), BuildingBlock: XIVTED_clean_linker_0, # of connection points: 2
#     Edge 131, Type (0, 1), BuildingBlock: XIVTED_clean_linker_0, # of connection points: 2
#     Edge 132, Type (0, 1), BuildingBlock: XIVTED_clean_linker_0, # of connection points: 2
#     Edge 133, Type (0, 1), BuildingBlock: XIVTED_clean_linker_0, # of connection points: 2
#     Edge 134, Type (0, 1), BuildingBlock: XIVTED_clean_linker_0, # of connection points: 2
#     Edge 135, Type (0, 1), BuildingBlock: XIVTED_clean_linker_0, # of connection points: 2
# Relax obj value: 0.191
# Max RMSD: 0.288
# Mean RMSD: 0.159
data_MOF--net-gar--node1-GALJAG_clean_sbu_0--node2-HISSIN_clean_sbu_0--edge1-XIVTED_clean_linker_0
_symmetry_space_group_name_H-M    P1
_symmetry_Int_Tables_number       1
_symmetry_cell_setting            triclinic
loop_
_symmetry_equiv_pos_as_xyz
'x, y, z'
_cell_length_a     59.860329
_cell_length_b     59.314923
_cell_length_c     57.391898
_cell_angle_alpha  100.18456
_cell_angle_beta   93.165477
_cell_angle_gamma 100.03712
loop_
_atom_site_label
_atom_site_type_symbol
_atom_site_fract_x
_atom_site_fract_y
_atom_site_fract_z
_atom_type_partial_charge
In0 In 0.08325 0.31803 0.38791 0.0
O1 O 0.10865 0.29714 0.3714 0.0
O2 O 0.11904 0.33397 0.38093 0.0
C3 C 0.06081 0.31287 0.34485 0.0
C4 C 0.07151 0.28857 0.41789 0.0
C5 C 0.07737 0.35807 0.41498 0.0
O6 O 0.07332 0.33173 0.35521 0.0
O7 O 0.05929 0.29648 0.3564 0.0
O8 O 0.06186 0.3454 0.4002 0.0
O9 O 0.0957 0.35044 0.4162 0.0
C10 C 0.12401 0.31475 0.37177 0.0
O11 O 0.09149 0.29974 0.41806 0.0
O12 O 0.0574 0.29197 0.40232 0.0
In13 In 0.02739 0.79049 0.67374 0.0
O14 O 0.0405 0.80251 0.64087 0.0
O15 O 0.01844 0.82209 0.65957 0.0
C16 C 0.03634 0.74944 0.65213 0.0
C17 C 0.05664 0.80441 0.7131 0.0
C18 C 0.98614 0.78228 0.69004 0.0
O19 O 0.05177 0.76722 0.65876 0.0
O20 O 0.01652 0.7524 0.6564 0.0
O21 O 0.98904 0.77607 0.66839 0.0
O22 O 1.00361 0.79385 0.70281 0.0
C23 C 0.03032 0.81945 0.64213 0.0
O24 O 0.04475 0.78424 0.70729 0.0
O25 O 0.05421 0.81785 0.69875 0.0
In26 In 0.61024 0.8336 0.91263 0.0
O27 O 0.62831 0.81718 0.88226 0.0
O28 O 0.64849 0.84251 0.90968 0.0
C29 C 0.57356 0.83568 0.88452 0.0
C30 C 0.60067 0.79732 0.93523 0.0
C31 C 0.61401 0.87668 0.9385 0.0
O32 O 0.59184 0.83155 0.87629 0.0
O33 O 0.5737 0.83835 0.90682 0.0
O34 O 0.60951 0.85857 0.94736 0.0
O35 O 0.61757 0.87306 0.91682 0.0
C36 C 0.64773 0.82899 0.88993 0.0
O37 O 0.61725 0.81388 0.94235 0.0
O38 O 0.58959 0.79875 0.91643 0.0
In39 In 0.54074 0.30437 0.18556 0.0
O40 O 0.53169 0.27468 0.15379 0.0
O41 O 0.55722 0.27207 0.1799 0.0
C42 C 0.54979 0.33399 0.15534 0.0
C43 C 0.49855 0.3012 0.19974 0.0
C44 C 0.56711 0.31641 0.22698 0.0
O45 O 0.56365 0.32166 0.16088 0.0
O46 O 0.53164 0.3319 0.16559 0.0
O47 O 0.55134 0.29875 0.22233 0.0
O48 O 0.56992 0.32792 0.21051 0.0
C49 C 0.54553 0.26288 0.1605 0.0
O50 O 0.50457 0.28509 0.18552 0.0
O51 O 0.51364 0.3193 0.20631 0.0
In52 In 0.10705 0.82039 0.13173 0.0
O53 O 0.11415 0.78877 0.10643 0.0
O54 O 0.11519 0.78785 0.14329 0.0
C55 C 0.10007 0.8364 0.09148 0.0
C56 C 0.06789 0.81847 0.15307 0.0
C57 C 0.14464 0.84329 0.15959 0.0
O58 O 0.08938 0.81717 0.09491 0.0
O59 O 0.11368 0.84801 0.10874 0.0
O60 O 0.12509 0.8412 0.16704 0.0
O61 O 0.14499 0.83476 0.13792 0.0
C62 C 0.11695 0.77736 0.12258 0.0
O63 O 0.07628 0.80085 0.14539 0.0
O64 O 0.079 0.83754 0.14955 0.0
In65 In 0.51819 0.80306 0.44456 0.0
O66 O 0.54395 0.78303 0.42567 0.0
O67 O 0.53918 0.81485 0.41596 0.0
C68 C 0.47994 0.7975 0.41588 0.0
C69 C 0.51881 0.77951 0.48033 0.0
C70 C 0.52478 0.84552 0.47187 0.0
O71 O 0.49079 0.81702 0.42662 0.0
O72 O 0.48794 0.78013 0.42012 0.0
O73 O 0.50611 0.83136 0.47004 0.0
O74 O 0.54004 0.83818 0.45997 0.0
C75 C 0.54942 0.79792 0.41275 0.0
O76 O 0.5351 0.79503 0.47741 0.0
O77 O 0.5024 0.77481 0.46437 0.0
In78 In 0.60302 0.32405 0.63739 0.0
O79 O 0.61387 0.28896 0.63518 0.0
O80 O 0.57872 0.28892 0.62785 0.0
C81 C 0.60384 0.34071 0.59666 0.0
C82 C 0.57092 0.33546 0.66604 0.0
C83 C 0.64451 0.33843 0.66089 0.0
O84 O 0.59595 0.31976 0.59738 0.0
O85 O 0.61098 0.35348 0.6166 0.0
O86 O 0.62709 0.34527 0.6688 0.0
O87 O 0.64109 0.32534 0.64067 0.0
C88 C 0.59409 0.27713 0.62978 0.0
O89 O 0.58678 0.32571 0.67218 0.0
O90 O 0.57144 0.34011 0.64541 0.0
In91 In 0.02479 0.31455 0.95262 0.0
O92 O 0.03887 0.30747 0.98736 0.0
O93 O 1.01164 0.2821 0.96785 0.0
C94 C 0.02057 0.35429 0.98114 0.0
C95 C 0.06087 0.31178 0.92679 0.0
C96 C 0.99055 0.30786 0.91863 0.0
O97 O 0.03947 0.34819 0.97788 0.0
O98 O 1.00354 0.34054 0.96957 0.0
O99 O 1.0077 0.32403 0.92062 0.0
O100 O 0.99072 0.29478 0.93376 0.0
C101 C 0.02513 0.28862 0.98649 0.0
O102 O 0.04837 0.29383 0.93115 0.0
O103 O 0.05532 0.33074 0.93572 0.0
In104 In 0.4184 0.06562 0.35401 0.0
O105 O 0.44238 0.08021 0.32863 0.0
O106 O 0.43308 0.0433 0.32438 0.0
C107 C 0.44458 0.08276 0.39536 0.0
C108 C 0.38908 0.09306 0.34436 0.0
C109 C 0.39322 0.02288 0.35192 0.0
O110 O 0.45255 0.07582 0.37614 0.0
O111 O 0.42331 0.08147 0.39377 0.0
O112 O 0.38791 0.03726 0.33987 0.0
O113 O 0.41162 0.02989 0.36509 0.0
C114 C 0.44409 0.06047 0.31709 0.0
O115 O 0.38651 0.08136 0.36066 0.0
O116 O 0.40705 0.09198 0.33413 0.0
In117 In 0.29365 0.19704 0.51444 0.0
O118 O 0.28026 0.21977 0.54503 0.0
O119 O 0.31602 0.2224 0.54531 0.0
C120 C 0.3005 0.21295 0.47324 0.0
C121 C 0.32255 0.16942 0.52534 0.0
C122 C 0.25047 0.17277 0.50754 0.0
O123 O 0.29514 0.19166 0.47408 0.0
O124 O 0.30254 0.22639 0.49321 0.0
O125 O 0.26763 0.1631 0.50571 0.0
O126 O 0.25504 0.19476 0.51256 0.0
C127 C 0.29954 0.22862 0.55587 0.0
O128 O 0.30346 0.16922 0.53367 0.0
O129 O 0.32699 0.18338 0.51123 0.0
In130 In 0.18462 0.03495 0.78102 0.0
O131 O 0.15194 0.03743 0.75546 0.0
O132 O 0.1795 0.02847 0.73801 0.0
C133 C 0.16131 0.03694 0.82463 0.0
C134 C 0.20644 0.99324 0.77957 0.0
C135 C 0.20954 0.08215 0.78354 0.0
O136 O 0.15265 0.02583 0.80426 0.0
O137 O 0.18172 0.04664 0.82335 0.0
O138 O 0.21877 0.06422 0.7812 0.0
O139 O 0.18845 0.07645 0.78528 0.0
C140 C 0.15975 0.03312 0.73544 0.0
O141 O 0.2169 1.01433 0.78345 0.0
O142 O 0.18521 0.99295 0.77636 0.0
In143 In 0.2951 0.97892 1.00592 0.0
O144 O 0.2901 0.94605 0.02167 0.0
O145 O 0.29739 0.97862 0.0457 0.0
C146 C 0.30044 0.9476 0.96676 0.0
C147 C 0.25407 0.99478 1.00558 0.0
C148 C 0.33882 1.00435 1.01385 0.0
O149 O 0.29481 0.9421 0.98614 0.0
O150 O 0.30291 0.96922 0.96661 0.0
O151 O 0.32637 1.00326 0.99497 0.0
O152 O 0.32882 0.99399 0.02876 0.0
C153 C 0.29367 0.95666 0.04299 0.0
O154 O 0.27268 1.00768 1.0146 0.0
O155 O 0.25647 0.97487 0.99547 0.0
In156 In 0.32829 0.39587 0.05032 0.0
O157 O 0.31587 0.36519 0.06915 0.0
O158 O 0.33586 0.39594 0.08974 0.0
C159 C 0.32177 0.37212 1.00461 0.0
C160 C 0.29418 0.42026 0.05262 0.0
C161 C 0.37072 0.42184 0.05356 0.0
O162 O 0.33305 0.36556 0.02058 0.0
O163 O 0.31388 0.39018 1.01179 0.0
O164 O 0.35371 0.43016 0.06046 0.0
O165 O 0.36646 0.40022 0.04515 0.0
C166 C 0.32482 0.37578 0.08944 0.0
O167 O 0.31427 0.42892 0.04927 0.0
O168 O 0.29124 0.39921 0.05503 0.0
In169 In 0.82184 0.1326 0.04838 0.0
O170 O 0.84259 0.10301 0.03628 0.0
O171 O 0.86043 0.1346 0.05672 0.0
C172 C 0.77724 0.10966 0.04363 0.0
C173 C 0.82026 0.16179 0.09013 0.0
C174 C 0.82217 0.15735 1.01315 0.0
O175 O 0.79157 0.10716 0.05958 0.0
O176 O 0.78578 0.12213 0.02958 0.0
O177 O 0.82595 0.16663 0.03486 0.0
O178 O 0.81882 0.13531 1.00896 0.0
C179 C 0.86171 0.11478 0.04536 0.0
O180 O 0.82557 0.16869 0.07128 0.0
O181 O 0.81647 0.13986 0.08836 0.0
In182 In 0.21907 0.57825 0.27332 0.0
O183 O 0.25063 0.5621 0.2713 0.0
O184 O 0.22603 0.55047 0.29408 0.0
C185 C 0.24238 0.61104 0.25253 0.0
C186 C 0.18497 0.54997 0.24384 0.0
C187 C 0.20407 0.60501 0.31 0.0
O188 O 0.25005 0.60586 0.27139 0.0
O189 O 0.2229 0.5998 0.24424 0.0
O190 O 0.19726 0.60409 0.28863 0.0
O191 O 0.21879 0.59268 0.31293 0.0
C192 C 0.24506 0.54913 0.28602 0.0
O193 O 0.18193 0.56023 0.26426 0.0
O194 O 0.20538 0.55306 0.23883 0.0
In195 In 0.82479 0.89972 0.54856 0.0
O196 O 0.81478 0.86895 0.56782 0.0
O197 O 0.83143 0.90133 0.58843 0.0
C198 C 0.81738 0.87153 0.50488 0.0
C199 C 0.79209 0.92571 0.5481 0.0
C200 C 0.86696 0.92596 0.55094 0.0
O201 O 0.80384 0.88437 0.51296 0.0
O202 O 0.83442 0.8722 0.5191 0.0
O203 O 0.86268 0.90428 0.54313 0.0
O204 O 0.84998 0.93449 0.55759 0.0
C205 C 0.82251 0.88044 0.58818 0.0
O206 O 0.81037 0.9301 0.53838 0.0
O207 O 0.79031 0.90821 0.5581 0.0
In208 In 0.92944 0.07017 0.27504 0.0
O209 O 0.96122 0.07908 0.25143 0.0
O210 O 0.9324 0.05747 0.23279 0.0
C211 C 0.95412 0.07241 0.32071 0.0
C212 C 0.9076 0.11194 0.27716 0.0
C213 C 0.90502 0.02294 0.27315 0.0
O214 O 0.96264 0.06984 0.30091 0.0
O215 O 0.93371 0.0752 0.31789 0.0
O216 O 0.89529 0.04011 0.27161 0.0
O217 O 0.9264 0.02939 0.27497 0.0
C218 C 0.95266 0.06743 0.23125 0.0
O219 O 0.92886 0.11216 0.27947 0.0
O220 O 0.8971 0.0909 0.2739 0.0
In221 In 0.32262 0.63657 0.54542 0.0
O222 O 0.34333 0.60669 0.5345 0.0
O223 O 0.36132 0.63873 0.55382 0.0
C224 C 0.27855 0.61222 0.54195 0.0
C225 C 0.31989 0.66732 0.58591 0.0
C226 C 0.32336 0.65945 0.50864 0.0
O227 O 0.29312 0.61197 0.55867 0.0
O228 O 0.28654 0.62342 0.52662 0.0
O229 O 0.32981 0.66952 0.5298 0.0
O230 O 0.317 0.6376 0.50584 0.0
C231 C 0.3625 0.61859 0.54322 0.0
O232 O 0.32294 0.67326 0.56613 0.0
O233 O 0.31877 0.64578 0.58559 0.0
In234 In 0.42938 0.57063 0.77613 0.0
O235 O 0.39692 0.59151 0.77617 0.0
O236 O 0.42869 0.61254 0.77963 0.0
C237 C 0.40517 0.52325 0.77389 0.0
C238 C 0.45258 0.56786 0.73229 0.0
C239 C 0.4543 0.5727 0.82174 0.0
O240 O 0.39537 0.54018 0.77139 0.0
O241 O 0.4265 0.53004 0.7769 0.0
O242 O 0.46274 0.57034 0.80188 0.0
O243 O 0.43386 0.57545 0.81903 0.0
C244 C 0.40742 0.61247 0.77838 0.0
O245 O 0.46112 0.57959 0.75245 0.0
O246 O 0.43236 0.55782 0.73388 0.0
In247 In 0.73965 0.06843 0.76559 0.0
O248 O 0.76629 0.04715 0.75301 0.0
O249 O 0.74577 0.03673 0.77986 0.0
C250 C 0.7728 0.10467 0.76329 0.0
C251 C 0.70457 0.05572 0.73172 0.0
C252 C 0.71761 0.08171 0.80393 0.0
O253 O 0.76754 0.09871 0.78257 0.0
O254 O 0.76148 0.09212 0.74495 0.0
O255 O 0.71391 0.08744 0.7842 0.0
O256 O 0.73275 0.06941 0.80458 0.0
C257 C 0.76205 0.03344 0.76739 0.0
O258 O 0.71392 0.04074 0.73956 0.0
O259 O 0.71357 0.07659 0.74011 0.0
In260 In 0.79105 0.70458 1.01432 0.0
O261 O 0.80239 0.67782 0.03404 0.0
O262 O 0.82364 0.68985 1.00862 0.0
C263 C 0.74827 0.67942 1.00931 0.0
C264 C 0.79726 0.73669 0.05532 0.0
C265 C 0.79702 0.71969 0.97259 0.0
O266 O 0.76577 0.67025 1.00792 0.0
O267 O 0.75226 0.70144 1.01305 0.0
O268 O 0.80282 0.73301 0.9925 0.0
O269 O 0.78822 0.69912 0.97383 0.0
C270 C 0.82047 0.67698 0.02392 0.0
O271 O 0.77801 0.72885 0.044 0.0
O272 O 0.81351 0.72932 0.04533 0.0
In273 In 0.91554 0.57001 0.84409 0.0
O274 O 0.88377 0.5855 0.85083 0.0
O275 O 0.90767 0.60149 0.82991 0.0
C276 C 0.88599 0.52973 0.84108 0.0
C277 C 0.94005 0.56295 0.80644 0.0
C278 C 0.94467 0.58126 0.88381 0.0
O279 O 0.88674 0.54175 0.82501 0.0
O280 O 0.90033 0.53794 0.85882 0.0
O281 O 0.94889 0.56971 0.86455 0.0
O282 O 0.92574 0.58779 0.88313 0.0
C283 C 0.88857 0.60078 0.83828 0.0
O284 O 0.93875 0.58315 0.81718 0.0
O285 O 0.92911 0.54647 0.81479 0.0
In286 In 0.79396 0.47535 0.51188 0.0
O287 O 0.78828 0.44229 0.52711 0.0
O288 O 0.79374 0.47459 0.55159 0.0
C289 C 0.7963 0.44653 0.47002 0.0
C290 C 0.75397 0.4929 0.51295 0.0
C291 C 0.83898 0.49723 0.51957 0.0
O292 O 0.79021 0.43947 0.48856 0.0
O293 O 0.80056 0.4685 0.47213 0.0
O294 O 0.82478 0.50376 0.50621 0.0
O295 O 0.83023 0.48086 0.52936 0.0
C296 C 0.79038 0.45258 0.54854 0.0
O297 O 0.77278 0.50474 0.5229 0.0
O298 O 0.75571 0.47323 0.50149 0.0
In299 In 0.68488 0.53477 0.28192 0.0
O300 O 0.7176 0.51444 0.28411 0.0
O301 O 0.68614 0.49291 0.27664 0.0
C302 C 0.70849 0.58241 0.28546 0.0
C303 C 0.66134 0.53309 0.23558 0.0
C304 C 0.66148 0.53826 0.32562 0.0
O305 O 0.71824 0.56481 0.28246 0.0
O306 O 0.68747 0.57617 0.28758 0.0
O307 O 0.65197 0.5294 0.30494 0.0
O308 O 0.68259 0.54521 0.32453 0.0
C309 C 0.70733 0.4933 0.28002 0.0
O310 O 0.6522 0.52424 0.25213 0.0
O311 O 0.68207 0.54171 0.24187 0.0
Eu312 Eu 0.07105 0.07749 0.03789 0.0
Eu313 Eu 0.04282 0.02581 0.01766 0.0
C314 C 0.07698 0.0506 0.9817 0.0
C315 C 0.0839 0.14073 0.06543 0.0
C316 C 0.06236 0.13808 0.0742 0.0
C317 C 0.0856 0.18233 0.07082 0.0
C318 C 0.05202 0.1574 0.08018 0.0
C319 C 0.09592 0.163 0.06487 0.0
C320 C 0.06303 0.17952 0.07722 0.0
C321 C 0.09187 0.12034 0.05302 0.0
O322 O 0.07983 0.021 0.02176 0.0
O323 O 0.09718 0.05582 0.0448 0.0
C324 C 0.09812 0.03482 0.03351 0.0
O325 O 0.05266 0.07052 0.07112 0.0
O326 O 0.021 0.99918 0.99087 0.0
O327 O 0.03186 0.99096 0.02465 0.0
O328 O 0.03096 0.03459 0.05607 0.0
C329 C 0.03667 0.05292 0.07381 0.0
O330 O 0.03448 0.08288 0.03228 0.0
O331 O 0.01617 0.04723 1.01157 0.0
O332 O 0.06041 0.03336 0.98409 0.0
O333 O 0.09293 0.10369 0.06495 0.0
O334 O 0.08235 0.1125 0.03139 0.0
O335 O 0.08335 0.06851 0.99976 0.0
C336 C 0.02875 0.9616 0.99126 0.0
C337 C 0.04925 0.96288 0.98043 0.0
C338 C 0.02704 0.92037 0.98978 0.0
C339 C 0.05916 0.94313 0.97533 0.0
C340 C 0.01709 0.94005 0.99465 0.0
C341 C 0.04891 0.92204 0.98154 0.0
C342 C 0.02186 0.98283 1.00326 0.0
C343 C 1.01589 0.06887 0.02146 0.0
H344 H 0.05285 0.12089 0.07471 0.0
H345 H 0.09453 0.19904 0.06809 0.0
H346 H 0.03474 0.15474 0.0853 0.0
H347 H 0.11252 0.16526 0.05803 0.0
H348 H 0.05848 0.97948 0.97768 0.0
H349 H 0.01859 0.90457 0.99495 0.0
H350 H 0.07576 0.9449 0.96851 0.0
H351 H 1.00126 0.93884 1.00306 0.0
Eu352 Eu 0.33105 0.81991 0.25554 0.0
Eu353 Eu 0.29924 0.80494 0.29724 0.0
C354 C 0.27866 0.82672 0.2555 0.0
C355 C 0.34706 0.84379 0.20164 0.0
C356 C 0.32459 0.83865 0.19103 0.0
C357 C 0.35624 0.87367 0.17791 0.0
C358 C 0.31801 0.85083 0.17399 0.0
C359 C 0.36286 0.86135 0.19496 0.0
C360 C 0.33373 0.8685 0.16729 0.0
C361 C 0.35347 0.83191 0.2207 0.0
O362 O 0.28868 0.77966 0.26272 0.0
O363 O 0.32437 0.78096 0.25128 0.0
C364 C 0.30355 0.76967 0.25092 0.0
O365 O 0.35545 0.81758 0.28566 0.0
O366 O 0.27631 0.77718 0.30895 0.0
O367 O 0.28558 0.81107 0.33188 0.0
O368 O 0.33165 0.7913 0.30217 0.0
C369 C 0.35214 0.80227 0.29965 0.0
O370 O 0.32361 0.85259 0.27727 0.0
O371 O 0.32125 0.83993 0.31255 0.0
O372 O 0.27839 0.8253 0.27811 0.0
O373 O 0.35646 0.84447 0.24211 0.0
O374 O 0.34173 0.81104 0.22 0.0
O375 O 0.29501 0.82065 0.24274 0.0
C376 C 0.28142 0.77773 0.34973 0.0
C377 C 0.30413 0.77974 0.3587 0.0
C378 C 0.26951 0.75011 0.37524 0.0
C379 C 0.30949 0.767 0.37586 0.0
C380 C 0.26416 0.76297 0.3582 0.0
C381 C 0.29225 0.75185 0.38412 0.0
C382 C 0.27585 0.78929 0.33012 0.0
C383 C 0.32475 0.8569 0.30053 0.0
H384 H 0.31197 0.82538 0.19611 0.0
H385 H 0.36873 0.88712 0.17294 0.0
H386 H 0.30048 0.84671 0.1664 0.0
H387 H 0.3802 0.86569 0.2031 0.0
H388 H 0.31776 0.79077 0.35208 0.0
H389 H 0.25584 0.73878 0.38145 0.0
H390 H 0.32718 0.7685 0.38214 0.0
H391 H 0.24657 0.76105 0.3513 0.0
Eu392 Eu 0.57984 0.0611 0.56446 0.0
Eu393 Eu 0.5307 0.05303 0.58873 0.0
C394 C 0.57609 0.04266 0.61289 0.0
C395 C 0.63664 0.05017 0.54427 0.0
C396 C 0.6594 0.05987 0.5425 0.0
C397 C 0.64717 1.01232 0.54338 0.0
C398 C 0.67604 0.04593 0.54138 0.0
C399 C 0.63058 0.0263 0.54459 0.0
C400 C 0.67017 0.02201 0.54203 0.0
C401 C 0.61963 0.06529 0.54748 0.0
O402 O 0.54137 0.09157 0.5909 0.0
O403 O 0.57979 0.09286 0.59234 0.0
C404 C 0.56229 0.10317 0.59598 0.0
O405 O 0.55722 0.07889 0.54422 0.0
O406 O 0.50937 0.06214 0.61727 0.0
O407 O 0.49533 0.03524 0.5868 0.0
O408 O 0.52302 0.05805 0.55143 0.0
C409 C 0.5351 0.07208 0.53956 0.0
O410 O 0.55967 0.02665 0.54564 0.0
O411 O 0.53742 1.01715 0.57507 0.0
O412 O 0.55837 0.05264 0.61686 0.0
O413 O 0.6004 0.05802 0.53422 0.0
O414 O 0.61661 0.07328 0.56951 0.0
O415 O 0.58312 0.03863 0.59159 0.0
C416 C 0.47243 0.06203 0.60057 0.0
C417 C 0.44958 0.05097 0.59916 0.0
C418 C 0.4605 0.09502 0.58709 0.0
C419 C 0.43225 0.06179 0.59149 0.0
C420 C 0.47773 0.08421 0.59467 0.0
C421 C 0.43758 0.08378 0.58497 0.0
C422 C 0.49086 0.0495 0.60525 0.0
C423 C 0.5469 1.0112 0.55537 0.0
H424 H 0.66439 0.07833 0.5425 0.0
H425 H 0.64198 0.99394 0.54358 0.0
H426 H 0.6936 0.05405 0.5407 0.0
H427 H 0.61307 1.01854 0.54614 0.0
H428 H 0.44519 0.03368 0.60326 0.0
H429 H 0.4652 0.11211 0.58263 0.0
H430 H 0.41478 0.05258 0.58985 0.0
H431 H 0.49527 0.09298 0.5953 0.0
Eu432 Eu 0.28194 0.30942 0.7764 0.0
Eu433 Eu 0.33203 0.29645 0.7819 0.0
C434 C 0.28633 0.255 0.78157 0.0
C435 C 0.22151 0.3161 0.7877 0.0
C436 C 0.22151 0.30302 0.80582 0.0
C437 C 0.18515 0.32553 0.79828 0.0
C438 C 0.20344 0.30129 0.82019 0.0
C439 C 0.20319 0.32717 0.78386 0.0
C440 C 0.18521 0.31277 0.81675 0.0
C441 C 0.24099 0.31909 0.77348 0.0
O442 O 0.32695 0.29754 0.74288 0.0
O443 O 0.28842 0.29596 0.73882 0.0
C444 C 0.30777 0.29469 0.72958 0.0
O445 O 0.30538 0.343 0.77008 0.0
O446 O 0.35718 0.27544 0.76992 0.0
O447 O 0.36565 0.30285 0.8011 0.0
O448 O 0.34001 0.33657 0.78359 0.0
C449 C 0.32744 0.35083 0.77639 0.0
O450 O 0.29232 0.31958 0.81561 0.0
O451 O 0.32073 0.29879 0.81897 0.0
O452 O 0.30825 0.26028 0.77817 0.0
O453 O 0.25885 0.33394 0.78396 0.0
O454 O 0.24631 0.29999 0.76215 0.0
O455 O 0.2741 0.2718 0.78427 0.0
C456 C 0.39437 0.29709 0.7758 0.0
C457 C 0.3951 0.31546 0.76329 0.0
C458 C 0.43368 0.29562 0.76877 0.0
C459 C 0.41501 0.32385 0.75351 0.0
C460 C 0.41374 0.28728 0.77858 0.0
C461 C 0.4345 0.31394 0.75603 0.0
C462 C 0.37329 0.28793 0.78551 0.0
C463 C 0.30649 0.31138 0.82861 0.0
H464 H 0.23568 0.2945 0.80908 0.0
H465 H 0.1712 0.33433 0.79504 0.0
H466 H 0.20408 0.29158 0.83444 0.0
H467 H 0.20298 0.33733 0.76994 0.0
H468 H 0.38022 0.32323 0.76101 0.0
H469 H 0.44827 0.28737 0.77071 0.0
H470 H 0.41516 0.33812 0.74403 0.0
H471 H 0.41337 0.27301 0.78811 0.0
Eu472 Eu 0.04801 0.07579 0.54092 0.0
Eu473 Eu 0.06488 0.02927 0.51484 0.0
C474 C 0.09592 0.07953 0.51565 0.0
C475 C 0.03193 0.13453 0.54669 0.0
C476 C 0.02417 0.1311 0.52254 0.0
C477 C 0.04039 0.17631 0.54795 0.0
C478 C 0.0248 0.15006 0.51113 0.0
C479 C 0.03963 0.15728 0.55943 0.0
C480 C 0.03339 0.17283 0.52356 0.0
C481 C 0.03448 0.11446 0.55777 0.0
O482 O 0.07666 0.03157 0.55476 0.0
O483 O 0.06874 0.06685 0.57233 0.0
C484 C 0.07773 0.04816 0.57391 0.0
O485 O 0.02433 0.04697 0.55267 0.0
O486 O 0.08873 1.00509 0.51211 0.0
O487 O 0.05839 0.99744 0.48782 0.0
O488 O 0.02928 1.01699 0.52359 0.0
C489 C 0.01798 0.0256 0.54082 0.0
O490 O 0.03026 0.06847 0.50251 0.0
O491 O 0.05158 0.04398 0.48288 0.0
O492 O 0.09461 0.05692 0.51231 0.0
O493 O 0.02054 0.09491 0.54904 0.0
O494 O 0.05538 0.11143 0.56128 0.0
O495 O 0.07941 0.08969 0.52393 0.0
C496 C 0.06875 0.96642 0.5042 0.0
C497 C 0.04586 0.95719 0.50649 0.0
C498 C 0.08033 0.93666 0.5238 0.0
C499 C 0.04032 0.93842 0.51802 0.0
C500 C 0.08587 0.95552 0.51229 0.0
C501 C 0.05754 0.92843 0.52746 0.0
C502 C 0.07497 0.98914 0.49683 0.0
C503 C 0.03599 0.05733 0.48221 0.0
H504 H 0.01845 0.1137 0.51219 0.0
H505 H 0.04694 0.19369 0.55801 0.0
H506 H 0.01962 0.14675 0.49227 0.0
H507 H 0.04583 0.16027 0.57802 0.0
H508 H 0.03222 0.9651 0.50032 0.0
H509 H 0.09399 0.92939 0.53099 0.0
H510 H 0.02258 0.93218 0.52019 0.0
H511 H 0.10364 0.96239 0.51083 0.0
Eu512 Eu 0.32848 0.81659 0.77072 0.0
Eu513 Eu 0.28325 0.788 0.78633 0.0
C514 C 0.31702 0.82731 0.82553 0.0
C515 C 0.39047 0.8405 0.76396 0.0
C516 C 0.40258 0.86218 0.77618 0.0
C517 C 0.42387 0.82342 0.77006 0.0
C518 C 0.42484 0.86427 0.78603 0.0
C519 C 0.40154 0.82127 0.76037 0.0
C520 C 0.43545 0.84476 0.78358 0.0
C521 C 0.366 0.83789 0.75679 0.0
O522 O 0.27114 0.82202 0.77835 0.0
O523 O 0.30469 0.84419 0.77197 0.0
C524 C 0.28263 0.84249 0.77506 0.0
O525 O 0.30638 0.80016 0.73673 0.0
O526 O 0.26331 0.77178 0.81174 0.0
O527 O 0.24824 0.77041 0.77604 0.0
O528 O 0.28929 0.76878 0.75059 0.0
C529 C 0.29661 0.77816 0.73286 0.0
O530 O 0.34008 0.78153 0.77637 0.0
O531 O 0.30818 0.76195 0.7895 0.0
O532 O 0.29715 0.8136 0.81966 0.0
O533 O 0.35523 0.81724 0.74637 0.0
O534 O 0.35418 0.84794 0.77248 0.0
O535 O 0.3329 0.82854 0.81065 0.0
C536 C 0.2252 0.77659 0.80689 0.0
C537 C 0.20369 0.76227 0.8041 0.0
C538 C 0.20793 0.81069 0.8174 0.0
C539 C 0.18428 0.77216 0.80701 0.0
C540 C 0.22734 0.80075 0.81455 0.0
C541 C 0.18616 0.79657 0.81254 0.0
C542 C 0.24458 0.76711 0.79753 0.0
C543 C 0.32939 0.76236 0.78328 0.0
H544 H 0.39449 0.87731 0.77895 0.0
H545 H 0.43162 0.80807 0.76804 0.0
H546 H 0.43352 0.88098 0.79616 0.0
H547 H 0.39271 0.80434 0.75092 0.0
H548 H 0.20179 0.74362 0.79797 0.0
H549 H 0.20992 0.8295 0.82187 0.0
H550 H 0.16778 0.76079 0.80284 0.0
H551 H 0.24389 0.81208 0.81668 0.0
Eu552 Eu 0.55837 0.05253 0.0652 0.0
Eu553 Eu 0.55759 0.07468 1.0168 0.0
C554 C 0.55296 0.10537 0.0671 0.0
C555 C 0.54688 0.03828 0.12617 0.0
C556 C 0.53336 0.05534 0.13091 0.0
C557 C 0.5393 0.02687 0.1639 0.0
C558 C 0.52285 0.05816 0.1521 0.0
C559 C 0.54982 0.02409 0.14273 0.0
C560 C 0.52567 0.04392 0.16881 0.0
C561 C 0.55787 0.03506 0.10398 0.0
O562 O 0.59418 0.0849 0.03298 0.0
O563 O 0.59507 0.05686 0.05571 0.0
C564 C 0.60565 0.07297 0.04496 0.0
O565 O 0.55604 0.0226 0.0347 0.0
O566 O 0.56548 0.10484 0.99977 0.0
O567 O 0.54831 0.07154 0.97898 0.0
O568 O 0.57237 0.04228 1.00723 0.0
C569 C 0.5667 0.02298 1.0154 0.0
O570 O 0.52148 0.05567 0.05699 0.0
O571 O 0.52202 0.05418 0.01691 0.0
O572 O 0.54473 0.09958 0.04479 0.0
O573 O 0.54437 0.02579 0.08481 0.0
O574 O 0.57302 0.05266 0.10086 0.0
O575 O 0.56307 0.0913 0.07731 0.0
C576 C 0.57599 0.09438 0.9613 0.0
C577 C 0.59212 0.07977 0.95989 0.0
C578 C 0.59374 0.11331 0.93108 0.0
C579 C 0.6088 0.08171 0.94398 0.0
C580 C 0.57692 0.11122 0.94693 0.0
C581 C 0.60984 0.09851 0.92938 0.0
C582 C 0.55892 0.09263 0.97852 0.0
C583 C 0.51067 0.05232 0.03566 0.0
H584 H 0.53088 0.06637 0.11819 0.0
H585 H 0.54203 1.01583 0.17654 0.0
H586 H 0.51224 0.07124 0.15523 0.0
H587 H 0.56027 1.01088 0.13929 0.0
H588 H 0.59179 0.0668 0.97108 0.0
H589 H 0.59425 0.12663 0.92032 0.0
H590 H 0.62065 0.06977 0.94289 0.0
H591 H 0.56474 0.12284 0.94808 0.0
Eu592 Eu 0.32014 0.31803 0.29616 0.0
Eu593 Eu 0.29524 0.26709 0.26413 0.0
C594 C 0.30429 0.31262 0.23999 0.0
C595 C 0.33872 0.3826 0.32005 0.0
C596 C 0.3333 0.38897 0.29833 0.0
C597 C 0.33587 0.42114 0.34085 0.0
C598 C 0.32892 0.4112 0.2979 0.0
C599 C 0.34044 0.39891 0.34125 0.0
C600 C 0.32962 0.4273 0.31919 0.0
C601 C 0.34024 0.3584 0.32094 0.0
O602 O 0.33065 0.2757 0.25328 0.0
O603 O 0.34651 0.2956 0.28963 0.0
C604 C 0.3486 0.28434 0.26834 0.0
O605 O 0.31238 0.29466 0.3225 0.0
O606 O 0.29683 0.23343 0.24262 0.0
O607 O 0.26398 0.24275 0.24889 0.0
O608 O 0.30871 0.25851 0.29867 0.0
C609 C 0.31123 0.27205 0.31984 0.0
O610 O 0.28285 0.31927 0.29117 0.0
O611 O 0.27105 0.28025 0.2891 0.0
O612 O 0.29068 0.29269 0.24023 0.0
O613 O 0.322 0.346 0.32687 0.0
O614 O 0.34894 0.34709 0.30314 0.0
O615 O 0.31861 0.3236 0.25833 0.0
C616 C 0.26852 0.20434 0.25017 0.0
C617 C 0.2695 0.20523 0.27479 0.0
C618 C 0.26918 0.16306 0.244 0.0
C619 C 0.27205 0.18552 0.284 0.0
C620 C 0.26694 0.18291 0.23478 0.0
C621 C 0.27367 0.16468 0.26867 0.0
C622 C 0.27488 0.22603 0.24131 0.0
C623 C 0.26712 0.30154 0.29325 0.0
H624 H 0.33157 0.37649 0.28178 0.0
H625 H 0.3366 0.43329 0.35748 0.0
H626 H 0.32377 0.41533 0.28099 0.0
H627 H 0.34448 0.39417 0.35816 0.0
H628 H 0.2707 0.22169 0.28694 0.0
H629 H 0.26965 0.14705 0.23174 0.0
H630 H 0.27536 0.18752 0.30306 0.0
H631 H 0.26609 0.18195 0.21572 0.0
Eu632 Eu 0.55016 0.57387 0.04083 0.0
Eu633 Eu 0.56712 0.52825 1.01462 0.0
C634 C 0.59696 0.57881 1.01617 0.0
C635 C 0.53866 0.63408 0.04956 0.0
C636 C 0.53449 0.63208 0.02491 0.0
C637 C 0.55047 0.67595 0.05339 0.0
C638 C 0.53861 0.65176 1.01453 0.0
C639 C 0.54625 0.65617 0.0638 0.0
C640 C 0.54715 0.67385 0.02857 0.0
C641 C 0.53863 0.61299 0.05967 0.0
O642 O 0.57455 0.5275 0.05478 0.0
O643 O 0.5743 0.56569 0.07016 0.0
C644 C 0.57946 0.5454 0.07293 0.0
O645 O 0.52581 0.54467 0.05156 0.0
O646 O 0.5938 0.50752 1.00927 0.0
O647 O 0.56133 0.49572 0.98858 0.0
O648 O 0.5319 0.51452 0.02318 0.0
C649 C 0.52011 0.52305 0.03999 0.0
O650 O 0.53163 0.56715 1.00285 0.0
O651 O 0.55304 0.54299 0.98288 0.0
O652 O 0.59729 0.55708 0.01737 0.0
O653 O 0.52386 0.59451 0.04946 0.0
O654 O 0.55879 0.60825 0.06367 0.0
O655 O 0.57855 0.58756 0.01982 0.0
C656 C 0.57829 0.46743 1.00375 0.0
C657 C 0.5571 0.4523 1.00169 0.0
C658 C 0.59383 0.44422 0.02923 0.0
C659 C 0.55408 0.43397 1.01413 0.0
C660 C 0.59688 0.46249 1.01668 0.0
C661 C 0.57216 0.43041 0.0289 0.0
C662 C 0.58028 0.48996 0.99565 0.0
C663 C 0.53725 0.55618 0.98241 0.0
H664 H 0.52908 0.61516 1.01346 0.0
H665 H 0.55687 0.69278 0.06467 0.0
H666 H 0.53624 0.64943 0.99535 0.0
H667 H 0.54985 0.658 0.08282 0.0
H668 H 0.54246 0.45535 0.99157 0.0
H669 H 0.60812 0.44197 0.04044 0.0
H670 H 0.53731 0.42323 1.01304 0.0
H671 H 0.61347 0.47371 0.01838 0.0
Eu672 Eu 0.83112 0.31799 0.27194 0.0
Eu673 Eu 0.78675 0.28959 0.28874 0.0
C674 C 0.81737 0.33101 0.32562 0.0
C675 C 0.88989 0.33034 0.25053 0.0
C676 C 0.89493 0.30929 0.25519 0.0
C677 C 0.92686 0.33902 0.23552 0.0
C678 C 0.91628 0.30379 0.25139 0.0
C679 C 0.90552 0.34469 0.23972 0.0
C680 C 0.93297 0.31915 0.24257 0.0
C681 C 0.86951 0.33836 0.25922 0.0
O682 O 0.77519 0.32466 0.28263 0.0
O683 O 0.8074 0.34532 0.27127 0.0
C684 C 0.78596 0.34433 0.2767 0.0
O685 O 0.8118 0.29825 0.23761 0.0
O686 O 0.76821 0.27402 0.31541 0.0
O687 O 0.75098 0.27347 0.28095 0.0
O688 O 0.79056 0.26929 0.25252 0.0
C689 C 0.79992 0.27708 0.2347 0.0
O690 O 0.84259 0.28298 0.27838 0.0
O691 O 0.8099 0.26159 0.28791 0.0
O692 O 0.80624 0.30956 0.32291 0.0
O693 O 0.85088 0.33183 0.24493 0.0
O694 O 0.86603 0.33629 0.28107 0.0
O695 O 0.82637 0.33879 0.30764 0.0
C696 C 0.7303 0.27979 0.31387 0.0
C697 C 0.73377 0.30359 0.3241 0.0
C698 C 0.68973 0.27706 0.31606 0.0
C699 C 0.71517 0.31427 0.32938 0.0
C700 C 0.70834 0.2664 0.31088 0.0
C701 C 0.69286 0.30134 0.32422 0.0
C702 C 0.74871 0.26999 0.30261 0.0
C703 C 0.83155 0.2629 0.2832 0.0
H704 H 0.88294 0.29785 0.26329 0.0
H705 H 0.93899 0.35093 0.22807 0.0
H706 H 0.92015 0.28844 0.25727 0.0
H707 H 0.90171 0.36085 0.23567 0.0
H708 H 0.7507 0.31421 0.32647 0.0
H709 H 0.67284 0.26654 0.31158 0.0
H710 H 0.71816 0.33292 0.33593 0.0
H711 H 0.70542 0.24805 0.30286 0.0
Eu712 Eu 0.06119 0.54285 0.56093 0.0
Eu713 Eu 0.0572 0.56474 0.51273 0.0
C714 C 0.05784 0.59528 0.56361 0.0
C715 C 0.0494 0.52923 0.62104 0.0
C716 C 0.03228 0.54269 0.6219 0.0
C717 C 0.04193 0.52174 0.66033 0.0
C718 C 0.02026 0.54593 0.64198 0.0
C719 C 0.05405 0.5186 0.64022 0.0
C720 C 0.02511 0.53569 0.66151 0.0
C721 C 0.06308 0.52737 0.60065 0.0
O722 O 0.09462 0.56312 0.51769 0.0
O723 O 0.09751 0.56043 0.55714 0.0
C724 C 0.10704 0.56416 0.53765 0.0
O725 O 0.07167 0.51768 0.53175 0.0
O726 O 0.0518 0.59396 0.49595 0.0
O727 O 0.05717 0.56182 0.47443 0.0
O728 O 0.04921 0.52552 0.50193 0.0
C729 C 0.06098 0.51162 0.51045 0.0
O730 O 0.02365 0.53228 0.54718 0.0
O731 O 0.02094 0.55874 0.52283 0.0
O732 O 0.06821 0.5942 0.54407 0.0
O733 O 0.0527 0.51476 0.58077 0.0
O734 O 0.075 0.54709 0.59761 0.0
O735 O 0.04837 0.57619 0.57027 0.0
C736 C 0.07319 0.59681 0.46308 0.0
C737 C 0.09577 0.59348 0.46512 0.0
C738 C 0.08358 0.62358 0.43635 0.0
C739 C 0.112 0.60452 0.45231 0.0
C740 C 0.06727 0.61231 0.44907 0.0
C741 C 0.10603 0.61934 0.43735 0.0
C742 C 0.05578 0.58362 0.47502 0.0
C743 C 1.01132 0.54297 0.53449 0.0
H744 H 0.02848 0.55099 0.60715 0.0
H745 H 0.04614 0.51378 0.67518 0.0
H746 H 1.00718 0.55648 0.64225 0.0
H747 H 0.0673 0.50824 0.63982 0.0
H748 H 0.10069 0.58168 0.47599 0.0
H749 H 0.07848 0.63516 0.42531 0.0
H750 H 0.12893 0.60045 0.4533 0.0
H751 H 0.04994 0.61529 0.44756 0.0
Eu752 Eu 0.7805 0.80947 0.27741 0.0
Eu753 Eu 0.83113 0.79652 0.28178 0.0
C754 C 0.78497 0.75506 0.2822 0.0
C755 C 0.7192 0.81409 0.28681 0.0
C756 C 0.72056 0.80635 0.30848 0.0
C757 C 0.67862 0.81221 0.2889 0.0
C758 C 0.70107 0.80185 0.32047 0.0
C759 C 0.69814 0.81679 0.27698 0.0
C760 C 0.6799 0.80492 0.31092 0.0
C761 C 0.7396 0.81913 0.27425 0.0
O762 O 0.8255 0.79873 0.24313 0.0
O763 O 0.78687 0.79657 0.23968 0.0
C764 C 0.80617 0.79597 0.23014 0.0
O765 O 0.80419 0.84396 0.27338 0.0
O766 O 0.85413 0.77305 0.26955 0.0
O767 O 0.86591 0.8026 0.29823 0.0
O768 O 0.83968 0.83628 0.28212 0.0
C769 C 0.82663 0.85112 0.27732 0.0
O770 O 0.78888 0.81549 0.31685 0.0
O771 O 0.82265 0.80234 0.31992 0.0
O772 O 0.80704 0.76071 0.27961 0.0
O773 O 0.75701 0.83321 0.28671 0.0
O774 O 0.74547 0.80115 0.26126 0.0
O775 O 0.77229 0.77144 0.28391 0.0
C776 C 0.89256 0.79127 0.27143 0.0
C777 C 0.90258 0.81436 0.27062 0.0
C778 C 0.92167 0.77747 0.24797 0.0
C779 C 0.92213 0.81894 0.25868 0.0
C780 C 0.90231 0.77293 0.26007 0.0
C781 C 0.9319 0.80054 0.24717 0.0
C782 C 0.87158 0.78576 0.2832 0.0
C783 C 0.80575 0.8108 0.32957 0.0
H784 H 0.73674 0.80403 0.31622 0.0
H785 H 0.66252 0.81438 0.28087 0.0
H786 H 0.70271 0.79653 0.33749 0.0
H787 H 0.6968 0.82251 0.26013 0.0
H788 H 0.8953 0.82886 0.27911 0.0
H789 H 0.92837 0.76282 0.23889 0.0
H790 H 0.92967 0.83691 0.25865 0.0
H791 H 0.89473 0.755 0.2603 0.0
Eu792 Eu 0.82873 0.32203 0.76749 0.0
Eu793 Eu 0.79889 0.31191 0.81288 0.0
C794 C 0.77524 0.31822 0.76413 0.0
C795 C 0.84239 0.34626 0.71317 0.0
C796 C 0.82505 0.35928 0.71722 0.0
C797 C 0.84559 0.35701 0.6745 0.0
C798 C 0.81809 0.3712 0.70006 0.0
C799 C 0.85266 0.3452 0.69178 0.0
C800 C 0.8282 0.37008 0.67847 0.0
C801 C 0.84887 0.33298 0.73085 0.0
O802 O 0.79956 0.27706 0.79005 0.0
O803 O 0.83127 0.28528 0.76972 0.0
C804 C 0.81588 0.27057 0.77754 0.0
O805 O 0.85455 0.32614 0.7987 0.0
O806 O 0.76906 0.29354 0.82651 0.0
O807 O 0.7942 0.3189 0.85069 0.0
O808 O 0.83329 0.30399 0.82163 0.0
C809 C 0.85295 0.31435 0.81609 0.0
O810 O 0.81606 0.35463 0.78237 0.0
O811 O 0.81553 0.34972 0.82088 0.0
O812 O 0.77588 0.32413 0.78732 0.0
O813 O 0.85423 0.34486 0.75245 0.0
O814 O 0.83534 0.31308 0.73033 0.0
O815 O 0.79198 0.30996 0.75405 0.0
C816 C 0.77846 0.2851 0.86402 0.0
C817 C 0.79082 0.26732 0.8573 0.0
C818 C 0.77367 0.27281 0.90184 0.0
C819 C 0.79474 0.25246 0.87281 0.0
C820 C 0.7697 0.28763 0.88625 0.0
C821 C 0.7865 0.25526 0.89541 0.0
C822 C 0.77652 0.30214 0.84868 0.0
C823 C 0.81689 0.36327 0.80511 0.0
H824 H 0.81672 0.36001 0.73355 0.0
H825 H 0.8538 0.35602 0.6581 0.0
H826 H 0.80446 0.38086 0.70346 0.0
H827 H 0.86596 0.3351 0.68836 0.0
H828 H 0.79797 0.26536 0.8403 0.0
H829 H 0.76688 0.27523 0.91903 0.0
H830 H 0.80493 0.23935 0.86742 0.0
H831 H 0.76025 0.30137 0.89175 0.0
Eu832 Eu 0.83207 0.81517 0.79026 0.0
Eu833 Eu 0.79191 0.77084 0.76339 0.0
C834 C 0.81135 0.81239 0.73661 0.0
C835 C 0.86553 0.87594 0.80514 0.0
C836 C 0.86073 0.88022 0.78227 0.0
C837 C 0.8663 0.91664 0.82156 0.0
C838 C 0.85777 0.90231 0.7792 0.0
C839 C 0.8693 0.89449 0.82463 0.0
C840 C 0.85938 0.92043 0.79897 0.0
C841 C 0.86258 0.85189 0.80914 0.0
O842 O 0.82387 0.75572 0.76219 0.0
O843 O 0.84969 0.79029 0.76781 0.0
C844 C 0.84441 0.76756 0.76165 0.0
O845 O 0.8324 0.78868 0.81379 0.0
O846 O 0.77816 0.74079 0.7354 0.0
O847 O 0.75692 0.75233 0.76264 0.0
O848 O 0.79652 0.76706 0.80177 0.0
C849 C 0.81468 0.77346 0.81711 0.0
O850 O 0.79907 0.8193 0.80567 0.0
O851 O 0.77588 0.80243 0.77218 0.0
O852 O 0.80424 0.78984 0.73458 0.0
O853 O 0.84417 0.84499 0.81902 0.0
O854 O 0.86597 0.83624 0.79137 0.0
O855 O 0.818 0.82603 0.75742 0.0
C856 C 0.75684 0.71193 0.75246 0.0
C857 C 0.75618 0.70982 0.77646 0.0
C858 C 0.7668 0.67361 0.74336 0.0
C859 C 0.76249 0.6906 0.78406 0.0
C860 C 0.76048 0.69289 0.73575 0.0
C861 C 0.76955 0.6732 0.76778 0.0
C862 C 0.75985 0.73522 0.74607 0.0
C863 C 0.77926 0.81556 0.7934 0.0
H864 H 0.85763 0.86615 0.76694 0.0
H865 H 0.86792 0.93041 0.83707 0.0
H866 H 0.85223 0.90455 0.7616 0.0
H867 H 0.873 0.89148 0.8424 0.0
H868 H 0.75319 0.72407 0.78983 0.0
H869 H 0.77162 0.66011 0.73037 0.0
H870 H 0.76433 0.69081 0.80298 0.0
H871 H 0.76084 0.69398 0.71712 0.0
Eu872 Eu 0.57099 0.57808 0.53883 0.0
Eu873 Eu 0.54288 0.5263 0.51876 0.0
C874 C 0.57693 0.55133 0.48274 0.0
C875 C 0.5825 0.64105 0.56659 0.0
C876 C 0.56097 0.63763 0.57533 0.0
C877 C 0.58253 0.68234 0.57147 0.0
C878 C 0.54979 0.65638 0.58105 0.0
C879 C 0.59368 0.66359 0.56579 0.0
C880 C 0.55995 0.6787 0.57783 0.0
C881 C 0.59121 0.62105 0.55434 0.0
O882 O 0.57974 0.52145 0.52402 0.0
O883 O 0.59754 0.55683 0.54562 0.0
C884 C 0.59814 0.53542 0.53531 0.0
O885 O 0.5525 0.57085 0.572 0.0
O886 O 0.52214 0.49926 0.49147 0.0
O887 O 0.53194 0.49143 0.52573 0.0
O888 O 0.53062 0.53501 0.55695 0.0
C889 C 0.53641 0.55332 0.57469 0.0
O890 O 0.53456 0.58356 0.53205 0.0
O891 O 0.51563 0.54728 0.51351 0.0
O892 O 0.5599 0.53451 0.48507 0.0
O893 O 0.59235 0.60438 0.56622 0.0
O894 O 0.58223 0.61319 0.53252 0.0
O895 O 0.58385 0.56895 0.50097 0.0
C896 C 0.53207 0.46269 0.49258 0.0
C897 C 0.52174 0.4405 0.49559 0.0
C898 C 0.56526 0.44741 0.47951 0.0
C899 C 0.53363 0.42213 0.4919 0.0
C900 C 0.55336 0.4658 0.4833 0.0
C901 C 0.55613 0.42581 0.48532 0.0
C902 C 0.5232 0.48299 0.50392 0.0
C903 C 0.51572 0.5693 0.5222 0.0
H904 H 0.55209 0.62024 0.57601 0.0
H905 H 0.59082 0.69922 0.56854 0.0
H906 H 0.53254 0.65307 0.58614 0.0
H907 H 0.61026 0.66644 0.55896 0.0
H908 H 0.50537 0.43789 0.50288 0.0
H909 H 0.58238 0.4507 0.47407 0.0
H910 H 0.52606 0.40583 0.49673 0.0
H911 H 0.56163 0.48292 0.48093 0.0
Eu912 Eu 0.08047 0.55656 0.05371 0.0
Eu913 Eu 0.03745 0.56685 0.08521 0.0
C914 C 0.08058 0.55045 0.1089 0.0
C915 C 0.13268 0.53433 0.03225 0.0
C916 C 0.13223 0.52041 0.04967 0.0
C917 C 0.16803 0.52313 0.02037 0.0
C918 C 0.14966 0.50796 0.05248 0.0
C919 C 0.15058 0.53556 0.01757 0.0
C920 C 0.16784 0.5093 0.03795 0.0
C921 C 0.1149 0.54809 0.02982 0.0
O922 O 0.06764 0.59577 0.09762 0.0
O923 O 0.0814 0.59505 0.06143 0.0
C924 C 0.07964 0.6062 0.08284 0.0
O925 O 0.05157 0.55664 0.02719 0.0
O926 O 0.0199 0.59227 0.10502 0.0
O927 O 1.0054 0.55551 0.0999 0.0
O928 O 0.03178 0.57974 0.05114 0.0
C929 C 0.03644 0.57022 0.02999 0.0
O930 O 0.06332 0.52289 0.06239 0.0
O931 O 0.02747 0.53107 0.06214 0.0
O932 O 0.05874 0.5512 0.10938 0.0
O933 O 0.09419 0.53625 0.0243 0.0
O934 O 0.11589 0.5663 0.04664 0.0
O935 O 0.09239 0.5556 0.09124 0.0
C936 C 0.98042 0.5818 0.09736 0.0
C937 C 0.97421 0.57687 0.0728 0.0
C938 C 0.94805 0.60103 0.10354 0.0
C939 C 0.95524 0.58427 0.06362 0.0
C940 C 0.96709 0.59365 0.1127 0.0
C941 C 0.94215 0.5968 0.07885 0.0
C942 C 1.00201 0.57676 0.10658 0.0
C943 C 0.04121 0.51602 0.06057 0.0
H944 H 0.11851 0.51938 0.06121 0.0
H945 H 0.18162 0.52426 1.00868 0.0
H946 H 0.14914 0.49769 0.06635 0.0
H947 H 0.15113 0.54623 1.00404 0.0
H948 H 0.98442 0.56784 0.06066 0.0
H949 H 0.93849 0.61087 0.11573 0.0
H950 H 0.95101 0.58046 0.04457 0.0
H951 H 0.97182 0.59782 0.13168 0.0
H952 H 0.05068 0.30138 0.02903 0.0
H953 H 0.01996 0.17445 0.05617 0.0
H954 H 0.99914 0.24628 0.98842 0.0
H955 H 0.07615 0.22693 0.0926 0.0
H956 H 1.00436 0.20439 0.04044 0.0
H957 H 0.05303 0.27805 0.05975 0.0
C958 C 0.03974 0.2844 0.02666 0.0
C959 C 0.02511 0.27543 1.00591 0.0
C960 C 0.01981 0.20949 0.05235 0.0
C961 C 0.02765 0.24873 0.04102 0.0
C962 C 0.02863 0.1924 0.06164 0.0
C963 C 0.04981 0.1981 0.07519 0.0
C964 C 0.03237 0.23232 0.05644 0.0
C965 C 0.06016 0.22169 0.08159 0.0
C966 C 0.04098 0.27117 0.04428 0.0
C967 C 1.01097 0.25361 1.00397 0.0
N968 N 0.05164 0.23789 0.07165 0.0
N969 N 1.01283 0.24082 0.02117 0.0
H970 H 0.18818 0.85251 0.14749 0.0
H971 H 0.2387 0.83583 0.27307 0.0
H972 H 0.14887 0.85026 0.20811 0.0
H973 H 0.27657 0.83764 0.21131 0.0
H974 H 0.20745 0.84782 0.25196 0.0
H975 H 0.22268 0.855 0.17317 0.0
C976 C 0.1869 0.85306 0.16634 0.0
C977 C 0.16566 0.85077 0.17566 0.0
C978 C 0.22272 0.8458 0.24315 0.0
C979 C 0.20493 0.85301 0.20505 0.0
C980 C 0.24052 0.83887 0.25515 0.0
C981 C 0.2601 0.83526 0.24377 0.0
C982 C 0.22457 0.84912 0.21964 0.0
C983 C 0.26164 0.83973 0.22065 0.0
C984 C 0.20659 0.85436 0.18099 0.0
C985 C 0.16494 0.85178 0.20021 0.0
N986 N 0.24405 0.84622 0.2093 0.0
N987 N 0.18428 0.85236 0.21402 0.0
H988 H 0.49582 0.86464 0.50131 0.0
H989 H 0.57188 0.9918 0.52185 0.0
H990 H 0.56173 0.88011 0.47469 0.0
H991 H 0.51554 0.97437 0.56337 0.0
H992 H 0.56704 0.95101 0.503 0.0
H993 H 0.50152 0.90488 0.5232 0.0
C994 C 0.51152 0.87649 0.50018 0.0
C995 C 0.5283 0.86918 0.48613 0.0
C996 C 0.55576 0.95605 0.51629 0.0
C997 C 0.53483 0.91498 0.51086 0.0
C998 C 0.55842 0.97938 0.52697 0.0
C999 C 0.54398 0.98648 0.54411 0.0
C1000 C 0.53841 0.93969 0.52259 0.0
C1001 C 0.52702 0.96958 0.55022 0.0
C1002 C 0.51477 0.89938 0.51269 0.0
C1003 C 0.54834 0.8851 0.48529 0.0
N1004 N 0.52459 0.9469 0.53933 0.0
N1005 N 0.55098 0.90732 0.49737 0.0
H1006 H 0.52995 0.34679 0.65376 0.0
H1007 H 0.47896 0.32072 0.77432 0.0
H1008 H 0.56895 0.33097 0.71227 0.0
H1009 H 0.43763 0.3257 0.71203 0.0
H1010 H 0.51308 0.33095 0.75414 0.0
H1011 H 0.49703 0.3461 0.67739 0.0
C1012 C 0.53168 0.34356 0.67171 0.0
C1013 C 0.55208 0.33869 0.68102 0.0
C1014 C 0.49655 0.32998 0.74494 0.0
C1015 C 0.51461 0.33771 0.70799 0.0
C1016 C 0.47706 0.32401 0.75641 0.0
C1017 C 0.45538 0.32207 0.74476 0.0
C1018 C 0.4944 0.33402 0.72161 0.0
C1019 C 0.45398 0.32709 0.72175 0.0
C1020 C 0.51288 0.34306 0.68513 0.0
C1021 C 0.55344 0.33459 0.70434 0.0
N1022 N 0.47322 0.33264 0.71085 0.0
N1023 N 0.53491 0.33402 0.71695 0.0
H1024 H 1.011 0.85796 0.6407 0.0
H1025 H 0.07469 0.8885 0.52785 0.0
H1026 H 0.05487 0.81606 0.60361 0.0
H1027 H 0.02786 0.92856 0.562 0.0
H1028 H 0.0669 0.86123 0.55504 0.0
H1029 H 0.01617 0.88368 0.61157 0.0
C1030 C 0.02165 0.85416 0.6264 0.0
C1031 C 0.03259 0.83494 0.62459 0.0
C1032 C 0.05821 0.87591 0.5565 0.0
C1033 C 0.0386 0.86416 0.59131 0.0
C1034 C 0.06272 0.8915 0.54103 0.0
C1035 C 0.05191 0.9108 0.54265 0.0
C1036 C 0.0429 0.87974 0.57385 0.0
C1037 C 0.03636 0.91374 0.55991 0.0
C1038 C 0.02459 0.8688 0.60978 0.0
C1039 C 0.04618 0.83075 0.60571 0.0
N1040 N 0.03242 0.89845 0.57492 0.0
N1041 N 0.04885 0.84527 0.58987 0.0
H1042 H 0.53453 0.84918 0.8988 0.0
H1043 H 0.47267 0.82734 0.76804 0.0
H1044 H 0.56764 0.8274 0.83597 0.0
H1045 H 0.4479 0.86431 0.83003 0.0
H1046 H 0.50731 0.82612 0.79229 0.0
H1047 H 0.50189 0.8533 0.87361 0.0
C1048 C 0.53489 0.84524 0.87967 0.0
C1049 C 0.55373 0.83788 0.8694 0.0
C1050 C 0.49438 0.8347 0.8005 0.0
C1051 C 0.51651 0.8426 0.84048 0.0
C1052 C 0.47465 0.83535 0.7867 0.0
C1053 C 0.45749 0.84596 0.79708 0.0
C1054 C 0.49672 0.84443 0.82486 0.0
C1055 C 0.46086 0.8562 0.82128 0.0
C1056 C 0.51632 0.8477 0.8653 0.0
C1057 C 0.55339 0.83309 0.84455 0.0
N1058 N 0.48 0.855 0.83439 0.0
N1059 N 0.53498 0.83544 0.83088 0.0
H1060 H 0.57122 0.23221 0.17286 0.0
H1061 H 0.53119 0.1383 0.05305 0.0
H1062 H 0.52377 0.24119 0.11735 0.0
H1063 H 0.57098 0.125 0.11254 0.0
H1064 H 0.52962 0.17676 0.07575 0.0
H1065 H 0.57295 0.19356 0.15025 0.0
C1066 C 0.56123 0.22606 0.15588 0.0
C1067 C 0.54733 0.23985 0.14693 0.0
C1068 C 0.53865 0.16541 0.08386 0.0
C1069 C 0.54917 0.1958 0.12106 0.0
C1070 C 0.53956 0.14343 0.0709 0.0
C1071 C 0.55125 0.1284 0.0809 0.0
C1072 C 0.5496 0.17247 0.10694 0.0
C1073 C 0.56176 0.136 0.10412 0.0
C1074 C 0.56216 0.204 0.14303 0.0
C1075 C 0.53469 0.23108 0.1249 0.0
N1076 N 0.56074 0.15755 0.11634 0.0
N1077 N 0.53593 0.20961 0.1127 0.0
H1078 H 0.13742 0.27554 0.34955 0.0
H1079 H 0.25535 0.34254 0.31507 0.0
H1080 H 0.15901 0.35024 0.36866 0.0
H1081 H 0.2295 0.26863 0.29327 0.0
H1082 H 0.22024 0.34649 0.33435 0.0
H1083 H 0.17176 0.27316 0.32916 0.0
C1084 C 0.14949 0.29144 0.34955 0.0
C1085 C 0.14543 0.3131 0.36079 0.0
C1086 C 0.22228 0.32946 0.3252 0.0
C1087 C 0.18472 0.3106 0.33731 0.0
C1088 C 0.24222 0.32724 0.31411 0.0
C1089 C 0.2454 0.30521 0.30274 0.0
C1090 C 0.20557 0.30952 0.32482 0.0
C1091 C 0.22791 0.28593 0.30205 0.0
C1092 C 0.16906 0.29011 0.33781 0.0
C1093 C 0.16158 0.33318 0.36021 0.0
N1094 N 0.20885 0.28853 0.31304 0.0
N1095 N 0.18057 0.33146 0.34861 0.0
H1096 H 0.99511 0.09166 0.22212 0.0
H1097 H 0.99781 0.0238 0.08527 0.0
H1098 H 0.9398 0.03845 0.18614 0.0
H1099 H 0.04636 0.08547 0.11706 0.0
H1100 H 0.97794 0.02719 0.12199 0.0
H1101 H 1.01486 0.08821 0.18533 0.0
C1102 C 0.98694 0.07917 0.20662 0.0
C1103 C 0.9653 0.06544 0.208 0.0
C1104 C 0.99297 0.04002 0.12111 0.0
C1105 C 0.98872 0.06107 0.16445 0.0
C1106 C 1.00457 0.03803 0.09986 0.0
C1107 C 0.02431 0.05423 0.09727 0.0
C1108 C 1.00088 0.0583 0.14084 0.0
C1109 C 0.03149 0.0723 0.11753 0.0
C1110 C 0.99841 0.07721 0.18531 0.0
C1111 C 0.95622 0.04963 0.18659 0.0
N1112 N 0.02008 0.0737 0.13797 0.0
N1113 N 0.96779 0.04788 0.16624 0.0
H1114 H 0.3392 0.7057 0.50983 0.0
H1115 H 0.27561 0.70572 0.38373 0.0
H1116 H 0.30297 0.64316 0.46346 0.0
H1117 H 0.32206 0.76541 0.42424 0.0
H1118 H 0.28485 0.68264 0.41302 0.0
H1119 H 0.33301 0.72792 0.47879 0.0
C1120 C 0.3301 0.69661 0.49302 0.0
C1121 C 0.32154 0.67256 0.48921 0.0
C1122 C 0.29309 0.70076 0.41546 0.0
C1123 C 0.31415 0.69793 0.4537 0.0
C1124 C 0.28769 0.71399 0.39885 0.0
C1125 C 0.29799 0.73757 0.40162 0.0
C1126 C 0.30877 0.7112 0.43514 0.0
C1127 C 0.31382 0.74727 0.42133 0.0
C1128 C 0.32656 0.70931 0.47531 0.0
C1129 C 0.30988 0.66167 0.46711 0.0
N1130 N 0.31862 0.73409 0.43741 0.0
N1131 N 0.30636 0.67447 0.45025 0.0
H1132 H 0.68794 1.01521 0.69957 0.0
H1133 H 0.57693 0.06167 0.65996 0.0
H1134 H 0.67322 0.08285 0.7281 0.0
H1135 H 0.60803 1.01475 0.61126 0.0
H1136 H 0.60594 0.06087 0.69136 0.0
H1137 H 0.65281 1.0072 0.67254 0.0
C1138 C 0.67724 0.02824 0.70022 0.0
C1139 C 0.68353 0.04983 0.71571 0.0
C1140 C 0.60612 0.05046 0.67387 0.0
C1141 C 0.64347 0.04061 0.68574 0.0
C1142 C 0.58952 0.05078 0.656 0.0
C1143 C 0.59035 0.03859 0.63291 0.0
C1144 C 0.62345 0.03766 0.66862 0.0
C1145 C 0.60704 0.02472 0.62878 0.0
C1146 C 0.6573 0.02367 0.68492 0.0
C1147 C 0.66913 0.06613 0.71609 0.0
N1148 N 0.62314 0.02481 0.64644 0.0
N1149 N 0.64975 0.06118 0.70134 0.0
H1150 H 0.34235 0.33724 0.98183 0.0
H1151 H 0.27892 0.33629 0.85466 0.0
H1152 H 0.29355 0.38047 0.96967 0.0
H1153 H 0.33517 0.30073 0.86272 0.0
H1154 H 0.28145 0.34883 0.8976 0.0
H1155 H 0.33753 0.32014 0.93912 0.0
C1156 C 0.33052 0.343 0.97023 0.0
C1157 C 0.3184 0.36037 0.97929 0.0
C1158 C 0.29323 0.33822 0.89004 0.0
C1159 C 0.31278 0.34093 0.9306 0.0
C1160 C 0.29177 0.33099 0.86544 0.0
C1161 C 0.30697 0.31754 0.85492 0.0
C1162 C 0.31001 0.33202 0.90447 0.0
C1163 C 0.32314 0.31115 0.86999 0.0
C1164 C 0.32783 0.33329 0.94588 0.0
C1165 C 0.30334 0.36722 0.96347 0.0
N1166 N 0.3243 0.31853 0.89399 0.0
N1167 N 0.301 0.35752 0.93999 0.0
H1168 H 0.94083 0.08224 0.36702 0.0
H1169 H 0.04611 0.04193 0.43537 0.0
H1170 H 0.99603 0.05913 0.33059 0.0
H1171 H 0.99869 0.07844 0.47275 0.0
H1172 H 0.02724 0.04597 0.39739 0.0
H1173 H 0.96027 0.07908 0.40506 0.0
C1174 C 0.95705 0.07654 0.36681 0.0
C1175 C 0.96651 0.07113 0.34487 0.0
C1176 C 0.02086 0.05314 0.41383 0.0
C1177 C 0.98934 0.067 0.38962 0.0
C1178 C 0.03174 0.0508 0.43583 0.0
C1179 C 0.02436 0.05979 0.45806 0.0
C1180 C 1.00188 0.06439 0.41328 0.0
C1181 C 1.0054 0.07111 0.45658 0.0
C1182 C 0.96827 0.07471 0.38883 0.0
C1183 C 0.98776 0.06371 0.34659 0.0
N1184 N 0.995 0.07291 0.43501 0.0
N1185 N 0.99816 0.0618 0.36813 0.0
H1186 H 0.32633 0.71488 0.59173 0.0
H1187 H 0.27983 0.73141 0.72057 0.0
H1188 H 0.30584 0.65831 0.62859 0.0
H1189 H 0.31533 0.78904 0.69232 0.0
H1190 H 0.28527 0.70481 0.68477 0.0
H1191 H 0.31929 0.74248 0.62645 0.0
C1192 C 0.32042 0.70826 0.60717 0.0
C1193 C 0.31673 0.68423 0.60728 0.0
C1194 C 0.29177 0.72328 0.68629 0.0
C1195 C 0.30835 0.71574 0.64698 0.0
C1196 C 0.28855 0.73858 0.70672 0.0
C1197 C 0.29718 0.76262 0.7096 0.0
C1198 C 0.30364 0.73192 0.66835 0.0
C1199 C 0.30834 0.7707 0.69092 0.0
C1200 C 0.3164 0.72404 0.62697 0.0
C1201 C 0.30903 0.67667 0.62776 0.0
N1202 N 0.31131 0.75538 0.67112 0.0
N1203 N 0.30501 0.69234 0.6467 0.0
H1204 H 0.72332 0.0734 0.84911 0.0
H1205 H 0.60491 0.10664 0.88398 0.0
H1206 H 0.68122 0.10356 0.80437 0.0
H1207 H 0.65451 0.09363 0.93511 0.0
H1208 H 0.63293 0.10609 0.85475 0.0
H1209 H 0.6986 0.08084 0.88111 0.0
C1210 C 0.70899 0.08176 0.84612 0.0
C1211 C 0.70418 0.08774 0.82407 0.0
C1212 C 0.63774 0.10355 0.87243 0.0
C1213 C 0.67582 0.09611 0.86036 0.0
C1214 C 0.62178 0.10399 0.88919 0.0
C1215 C 0.62726 0.09999 0.91202 0.0
C1216 C 0.6593 0.09885 0.87842 0.0
C1217 C 0.64933 0.09628 0.91758 0.0
C1218 C 0.69492 0.08603 0.86436 0.0
C1219 C 0.68546 0.09859 0.82109 0.0
N1220 N 0.66448 0.09559 0.90083 0.0
N1221 N 0.67183 0.10222 0.83896 0.0
H1222 H 0.34314 0.39593 0.13437 0.0
H1223 H 0.2825 0.29269 0.19567 0.0
H1224 H 0.29928 0.33394 0.09472 0.0
H1225 H 0.32806 0.35453 0.23349 0.0
H1226 H 0.28696 0.30776 0.15876 0.0
H1227 H 0.33689 0.38104 0.17089 0.0
C1228 C 0.33224 0.3791 0.13333 0.0
C1229 C 0.32176 0.36614 0.11142 0.0
C1230 C 0.29588 0.31805 0.17518 0.0
C1231 C 0.31435 0.34895 0.15339 0.0
C1232 C 0.29326 0.30951 0.1963 0.0
C1233 C 0.30497 0.32229 0.2178 0.0
C1234 C 0.3103 0.33955 0.17552 0.0
C1235 C 0.31875 0.34395 0.21741 0.0
C1236 C 0.32862 0.37061 0.15425 0.0
C1237 C 0.30775 0.34447 0.11122 0.0
N1238 N 0.32106 0.35181 0.19667 0.0
N1239 N 0.30443 0.33655 0.13189 0.0
H1240 H 0.21221 0.96905 0.9871 0.0
H1241 H 0.13998 0.05929 0.05433 0.0
H1242 H 0.24316 0.03473 0.03162 0.0
H1243 H 0.10906 0.99478 1.00761 0.0
H1244 H 0.17758 0.05002 0.04731 0.0
H1245 H 0.17453 0.97795 0.99473 0.0
C1246 C 0.21113 0.98548 0.99834 0.0
C1247 C 0.23107 1.00119 1.00861 0.0
C1248 C 0.1626 0.03779 0.03869 0.0
C1249 C 0.18755 1.01143 0.01776 0.0
C1250 C 0.14099 0.04301 0.04281 0.0
C1251 C 0.12103 0.0278 0.03168 0.0
C1252 C 0.16459 1.01716 0.02323 0.0
C1253 C 0.12377 1.00705 1.01678 0.0
C1254 C 0.18951 0.9905 1.00278 0.0
C1255 C 0.22838 0.02211 0.02316 0.0
N1256 N 0.14502 1.00243 1.01297 0.0
N1257 N 0.20714 0.02656 0.02733 0.0
H1258 H 0.70775 0.69464 1.01496 0.0
H1259 H 0.63631 0.56514 1.00285 0.0
H1260 H 0.73607 0.63207 0.99977 0.0
H1261 H 0.60625 0.62652 0.01951 0.0
H1262 H 0.67226 0.58978 0.99873 0.0
H1263 H 0.66988 0.67046 1.01402 0.0
C1264 C 0.70597 0.67583 1.01128 0.0
C1265 C 0.72509 0.66533 1.00755 0.0
C1266 C 0.65782 0.59793 1.00317 0.0
C1267 C 0.68194 0.63764 1.00647 0.0
C1268 C 0.63721 0.58383 1.00553 0.0
C1269 C 0.61822 0.59376 1.01172 0.0
C1270 C 0.65965 0.62225 1.00714 0.0
C1271 C 0.62046 0.61811 1.01477 0.0
C1272 C 0.68438 0.66205 1.01077 0.0
C1273 C 0.72184 0.64091 1.00285 0.0
N1274 N 0.64087 0.63156 1.01262 0.0
N1275 N 0.70073 0.62794 1.00254 0.0
H1276 H 0.68751 0.44582 0.27765 0.0
H1277 H 0.8043 0.39038 0.2717 0.0
H1278 H 0.75399 0.48827 0.28106 0.0
H1279 H 0.73986 0.35028 0.28234 0.0
H1280 H 0.78625 0.42489 0.27269 0.0
H1281 H 0.7054 0.41115 0.27704 0.0
C1282 C 0.70589 0.44816 0.27823 0.0
C1283 C 0.71877 0.471 0.27945 0.0
C1284 C 0.77586 0.40863 0.27476 0.0
C1285 C 0.74024 0.42954 0.27846 0.0
C1286 C 0.7863 0.38846 0.27413 0.0
C1287 C 0.77409 0.36633 0.2768 0.0
C1288 C 0.75236 0.40763 0.27786 0.0
C1289 C 0.75058 0.36628 0.28005 0.0
C1290 C 0.71626 0.42795 0.2779 0.0
C1291 C 0.74277 0.47167 0.28015 0.0
N1292 N 0.74081 0.38604 0.28034 0.0
N1293 N 0.75237 0.45179 0.27953 0.0
H1294 H 0.86472 0.52957 0.4974 0.0
H1295 H 0.98429 0.51284 0.55746 0.0
H1296 H 0.87085 0.48531 0.54856 0.0
H1297 H 0.97979 0.55947 0.5083 0.0
H1298 H 0.94267 0.50313 0.55455 0.0
H1299 H 0.90651 0.54155 0.50141 0.0
C1300 C 0.87478 0.52252 0.5096 0.0
C1301 C 0.86412 0.50639 0.52265 0.0
C1302 C 0.95074 0.51552 0.5444 0.0
C1303 C 0.91209 0.51986 0.52721 0.0
C1304 C 0.97462 0.52108 0.54604 0.0
C1305 C 0.9858 0.53701 0.53309 0.0
C1306 C 0.93768 0.52587 0.52964 0.0
C1307 C 0.97209 0.54709 0.51865 0.0
C1308 C 0.89867 0.5293 0.51184 0.0
C1309 C 0.87817 0.49776 0.53809 0.0
N1310 N 0.94888 0.54134 0.51728 0.0
N1311 N 0.90125 0.50451 0.53986 0.0
H1312 H 0.34764 0.09656 0.36163 0.0
H1313 H 0.30522 0.14199 0.24741 0.0
H1314 H 0.38904 0.11331 0.30555 0.0
H1315 H 0.27017 0.14925 0.31141 0.0
H1316 H 0.3316 0.1227 0.26619 0.0
H1317 H 0.31607 0.11 0.34223 0.0
C1318 C 0.35016 0.10331 0.34543 0.0
C1319 C 0.37097 0.1039 0.33518 0.0
C1320 C 0.31799 0.12828 0.27607 0.0
C1321 C 0.33499 0.11848 0.31274 0.0
C1322 C 0.30255 0.13895 0.26518 0.0
C1323 C 0.28546 0.14756 0.27788 0.0
C1324 C 0.31652 0.12622 0.29992 0.0
C1325 C 0.28335 0.14331 0.3011 0.0
C1326 C 0.33214 0.11078 0.33433 0.0
C1327 C 0.37333 0.11261 0.31412 0.0
N1328 N 0.29895 0.13319 0.31154 0.0
N1329 N 0.35552 0.11939 0.30353 0.0
H1330 H 0.36444 0.16653 0.50961 0.0
H1331 H 0.39474 0.08505 0.59961 0.0
H1332 H 0.31763 0.14014 0.55728 0.0
H1333 H 0.43919 0.10744 0.54802 0.0
H1334 H 0.36587 0.1043 0.58385 0.0
H1335 H 0.39179 0.14435 0.52305 0.0
C1336 C 0.35988 0.15597 0.52283 0.0
C1337 C 0.33877 0.15521 0.5324 0.0
C1338 C 0.38194 0.10496 0.57596 0.0
C1339 C 0.37001 0.12986 0.54797 0.0
C1340 C 0.39839 0.09388 0.58489 0.0
C1341 C 0.41953 0.09479 0.57529 0.0
C1342 C 0.38664 0.11705 0.55729 0.0
C1343 C 0.42335 0.10668 0.55634 0.0
C1344 C 0.3755 0.14331 0.53051 0.0
C1345 C 0.33374 0.14124 0.54947 0.0
N1346 N 0.40712 0.11738 0.54804 0.0
N1347 N 0.34929 0.12919 0.55679 0.0
H1348 H 0.68963 0.62273 0.2907 0.0
H1349 H 0.80484 0.71506 0.27849 0.0
H1350 H 0.75422 0.60184 0.28032 0.0
H1351 H 0.73969 0.73509 0.28774 0.0
H1352 H 0.78722 0.67446 0.27949 0.0
H1353 H 0.70759 0.66326 0.2901 0.0
C1354 C 0.70763 0.62647 0.28836 0.0
C1355 C 0.7201 0.60806 0.28564 0.0
C1356 C 0.77667 0.68764 0.28133 0.0
C1357 C 0.74141 0.65593 0.28484 0.0
C1358 C 0.78683 0.71117 0.28077 0.0
C1359 C 0.77408 0.72937 0.28303 0.0
C1360 C 0.7532 0.68143 0.28421 0.0
C1361 C 0.75063 0.72227 0.2859 0.0
C1362 C 0.71799 0.64994 0.28798 0.0
C1363 C 0.74354 0.6149 0.28258 0.0
N1364 N 0.7412 0.69933 0.28639 0.0
N1365 N 0.7532 0.63784 0.28228 0.0
H1366 H 0.8543 0.50897 0.80427 0.0
H1367 H 0.82937 0.38843 0.85014 0.0
H1368 H 0.88252 0.49909 0.87178 0.0
H1369 H 0.81406 0.39613 0.77785 0.0
H1370 H 0.84131 0.43076 0.86148 0.0
H1371 H 0.83192 0.46955 0.79774 0.0
C1372 C 0.8556 0.49856 0.81783 0.0
C1373 C 0.87054 0.50709 0.83841 0.0
C1374 C 0.83507 0.42316 0.84321 0.0
C1375 C 0.84507 0.46201 0.83103 0.0
C1376 C 0.82819 0.39903 0.83673 0.0
C1377 C 0.82109 0.38876 0.81294 0.0
C1378 C 0.83469 0.437 0.82578 0.0
C1379 C 0.81978 0.40331 0.79633 0.0
C1380 C 0.84283 0.47607 0.81409 0.0
C1381 C 0.87138 0.49302 0.85554 0.0
N1382 N 0.82672 0.42669 0.80303 0.0
N1383 N 0.85899 0.471 0.85134 0.0
H1384 H 0.06975 0.81593 0.05306 0.0
H1385 H 0.09399 0.92931 0.99759 0.0
H1386 H 0.1237 0.87519 0.07852 0.0
H1387 H 0.03542 0.87418 0.97507 0.0
H1388 H 0.11172 0.90349 0.01765 0.0
H1389 H 0.06293 0.8316 0.01717 0.0
C1390 C 0.08029 0.83214 0.05099 0.0
C1391 C 0.09694 0.84462 0.06899 0.0
C1392 C 0.09519 0.89682 1.00789 0.0
C1393 C 0.08942 0.86244 0.028 0.0
C1394 C 0.08509 0.91151 0.99605 0.0
C1395 C 0.0627 0.90423 0.9853 0.0
C1396 C 0.08271 0.87485 1.00931 0.0
C1397 C 0.05231 0.88085 0.98398 0.0
C1398 C 0.07648 0.84099 0.03046 0.0
C1399 C 0.11036 0.86528 0.06528 0.0
N1400 N 0.0621 0.86717 0.99651 0.0
N1401 N 0.10612 0.87369 0.04532 0.0
H1402 H 0.94944 0.27823 0.91402 0.0
H1403 H 0.89679 0.33562 0.81277 0.0
H1404 H 0.98751 0.33285 0.88349 0.0
H1405 H 0.85684 0.28742 0.84961 0.0
H1406 H 0.93109 0.33165 0.8355 0.0
H1407 H 0.91619 0.27789 0.8871 0.0
C1408 C 0.95084 0.28997 0.90148 0.0
C1409 C 0.97112 0.30572 0.90106 0.0
C1410 C 0.91481 0.32191 0.83855 0.0
C1411 C 0.93329 0.30554 0.87042 0.0
C1412 C 0.89522 0.32418 0.8256 0.0
C1413 C 0.87389 0.312 0.82944 0.0
C1414 C 0.91306 0.30731 0.8554 0.0
C1415 C 0.8729 0.29733 0.84621 0.0
C1416 C 0.93187 0.28984 0.8862 0.0
C1417 C 0.9721 0.32055 0.88448 0.0
N1418 N 0.89222 0.29545 0.85862 0.0
N1419 N 0.95339 0.32019 0.8699 0.0
H1420 H 0.62466 0.2485 0.63272 0.0
H1421 H 0.53065 0.13153 0.6007 0.0
H1422 H 0.55284 0.24769 0.61921 0.0
H1423 H 0.60307 0.1329 0.60921 0.0
H1424 H 0.53805 0.17406 0.61065 0.0
H1425 H 0.61668 0.20604 0.62691 0.0
C1426 C 0.6072 0.23935 0.62852 0.0
C1427 C 0.58938 0.25154 0.62631 0.0
C1428 C 0.5523 0.16503 0.61045 0.0
C1429 C 0.5801 0.20302 0.61972 0.0
C1430 C 0.5481 0.14075 0.60486 0.0
C1431 C 0.5663 0.12866 0.60397 0.0
C1432 C 0.57485 0.17727 0.61522 0.0
C1433 C 0.58853 0.1415 0.60953 0.0
C1434 C 0.60265 0.21513 0.62524 0.0
C1435 C 0.56707 0.23889 0.62096 0.0
N1436 N 0.59218 0.16513 0.61481 0.0
N1437 N 0.56305 0.21526 0.6178 0.0
H1438 H 0.55969 0.82595 0.38084 0.0
H1439 H 0.66634 0.77082 0.33684 0.0
H1440 H 0.57897 0.76704 0.40597 0.0
H1441 H 0.64691 0.83156 0.31577 0.0
H1442 H 0.63335 0.76712 0.36028 0.0
H1443 H 0.5901 0.82588 0.35452 0.0
C1444 C 0.57031 0.81289 0.38073 0.0
C1445 C 0.56692 0.79656 0.39572 0.0
C1446 C 0.63627 0.78115 0.3504 0.0
C1447 C 0.60202 0.79647 0.36562 0.0
C1448 C 0.65515 0.78336 0.33712 0.0
C1449 C 0.65944 0.80155 0.32431 0.0
C1450 C 0.62162 0.79728 0.35089 0.0
C1451 C 0.64417 0.81707 0.32505 0.0
C1452 C 0.58772 0.81287 0.36568 0.0
C1453 C 0.58109 0.77996 0.39471 0.0
N1454 N 0.62604 0.81462 0.33815 0.0
N1455 N 0.59818 0.78043 0.37999 0.0
H1456 H 0.09839 0.28123 0.45469 0.0
H1457 H 1.00448 0.18218 0.4892 0.0
H1458 H 0.03032 0.26065 0.4197 0.0
H1459 H 0.07061 0.20775 0.52776 0.0
H1460 H 1.01284 0.21177 0.46454 0.0
H1461 H 0.08795 0.25514 0.48239 0.0
C1462 C 0.08122 0.2712 0.45285 0.0
C1463 C 0.06522 0.27299 0.43481 0.0
C1464 C 0.02543 0.21106 0.47855 0.0
C1465 C 0.05312 0.24309 0.46648 0.0
C1466 C 0.02068 0.19415 0.49259 0.0
C1467 C 0.03691 0.19244 0.51049 0.0
C1468 C 0.04664 0.22625 0.48231 0.0
C1469 C 0.05752 0.20856 0.51431 0.0
C1470 C 0.07524 0.25636 0.46872 0.0
C1471 C 0.04319 0.25971 0.43332 0.0
N1472 N 0.06187 0.22465 0.5002 0.0
N1473 N 0.03781 0.24521 0.44889 0.0
H1474 H 0.56255 0.29568 0.26568 0.0
H1475 H 0.69169 0.34176 0.30783 0.0
H1476 H 0.60569 0.34981 0.23895 0.0
H1477 H 0.64895 0.28792 0.33545 0.0
H1478 H 0.65788 0.35349 0.29232 0.0
H1479 H 0.59081 0.30047 0.29934 0.0
C1480 C 0.57785 0.30883 0.2671 0.0
C1481 C 0.58214 0.32194 0.24921 0.0
C1482 C 0.65583 0.33947 0.30227 0.0
C1483 C 0.61458 0.32741 0.28756 0.0
C1484 C 0.67522 0.33287 0.31142 0.0
C1485 C 0.67319 0.31327 0.32233 0.0
C1486 C 0.63431 0.32614 0.30369 0.0
C1487 C 0.65129 0.30257 0.32638 0.0
C1488 C 0.59395 0.31162 0.28638 0.0
C1489 C 0.60197 0.33903 0.25214 0.0
N1490 N 0.63268 0.30873 0.31648 0.0
N1491 N 0.61769 0.34096 0.27071 0.0
H1492 H 0.62057 0.91789 0.92252 0.0
H1493 H 0.56164 0.98122 0.03011 0.0
H1494 H 0.60167 0.88786 0.98348 0.0
H1495 H 0.5894 1.01617 0.97522 0.0
H1496 H 0.57625 0.94685 1.01285 0.0
H1497 H 0.61046 0.95449 0.94174 0.0
C1498 C 0.61465 0.91913 0.94012 0.0
C1499 C 0.61178 0.89981 0.95139 0.0
C1500 C 0.57919 0.96202 1.00457 0.0
C1501 C 0.59985 0.94136 0.97323 0.0
C1502 C 0.5707 0.98165 1.01432 0.0
C1503 C 0.57422 1.00161 1.00404 0.0
C1504 C 0.5912 0.96224 0.98428 0.0
C1505 C 0.58622 1.00113 0.98367 0.0
C1506 C 0.60878 0.93998 0.95102 0.0
C1507 C 0.60404 0.90232 0.97413 0.0
N1508 N 0.59425 0.9817 0.97441 0.0
N1509 N 0.59811 0.92264 0.98421 0.0
H1510 H 0.97979 0.78553 0.7368 0.0
H1511 H 0.84605 0.74622 0.71604 0.0
H1512 H 0.94439 0.76076 0.66693 0.0
H1513 H 0.88412 0.76547 0.7847 0.0
H1514 H 0.88163 0.74344 0.6974 0.0
H1515 H 0.9451 0.77216 0.75432 0.0
C1516 C 0.96461 0.77737 0.72513 0.0
C1517 C 0.96481 0.77464 0.7004 0.0
C1518 C 0.88213 0.74747 0.7166 0.0
C1519 C 0.92487 0.7591 0.72037 0.0
C1520 C 0.8618 0.74868 0.72722 0.0
C1521 C 0.86239 0.75605 0.75184 0.0
C1522 C 0.90293 0.75393 0.73086 0.0
C1523 C 0.88313 0.75967 0.76562 0.0
C1524 C 0.94482 0.76949 0.73514 0.0
C1525 C 0.9448 0.76348 0.68611 0.0
N1526 N 0.90267 0.75899 0.75491 0.0
N1527 N 0.92548 0.75635 0.69633 0.0
H1528 H 0.11833 1.01338 0.83311 0.0
H1529 H 0.11665 0.07887 0.97096 0.0
H1530 H 0.17455 0.06478 0.87019 0.0
H1531 H 0.0665 0.01899 0.93785 0.0
H1532 H 0.13658 0.07562 0.9343 0.0
H1533 H 0.09845 1.01659 0.86983 0.0
C1534 C 0.12667 0.02541 0.84884 0.0
C1535 C 0.1486 0.03871 0.8478 0.0
C1536 C 0.12118 0.06316 0.93488 0.0
C1537 C 0.12506 0.04279 0.89123 0.0
C1538 C 0.10956 0.06507 0.95608 0.0
C1539 C 0.08935 0.04933 0.95828 0.0
C1540 C 0.11286 0.04543 0.91479 0.0
C1541 C 0.08175 0.03179 0.93768 0.0
C1542 C 0.11514 0.02724 0.8701 0.0
C1543 C 0.1579 0.05394 0.86948 0.0
N1544 N 0.09322 0.03046 0.91728 0.0
N1545 N 0.14627 0.05557 0.88978 0.0
H1546 H 0.78582 0.40566 0.5456 0.0
H1547 H 0.81922 0.41439 0.68427 0.0
H1548 H 0.79806 0.47052 0.5963 0.0
H1549 H 0.81917 0.35332 0.63074 0.0
H1550 H 0.80663 0.43416 0.65331 0.0
H1551 H 0.79263 0.38509 0.57777 0.0
C1552 C 0.78969 0.41554 0.56357 0.0
C1553 C 0.79155 0.43985 0.5683 0.0
C1554 C 0.80933 0.41642 0.64837 0.0
C1555 C 0.79957 0.41643 0.60518 0.0
C1556 C 0.81643 0.40512 0.66601 0.0
C1557 C 0.82038 0.38224 0.66001 0.0
C1558 C 0.806 0.4047 0.62459 0.0
C1559 C 0.81667 0.37108 0.63608 0.0
C1560 C 0.79368 0.4038 0.58191 0.0
C1561 C 0.79654 0.45177 0.59191 0.0
N1562 N 0.80969 0.38242 0.61926 0.0
N1563 N 0.80054 0.43994 0.60949 0.0
H1564 H 0.43045 0.09034 0.44007 0.0
H1565 H 0.55316 0.08947 0.50204 0.0
H1566 H 0.49083 0.08914 0.40245 0.0
H1567 H 0.48986 0.07291 0.5334 0.0
H1568 H 0.532 0.0989 0.46838 0.0
H1569 H 0.45371 0.09394 0.47743 0.0
C1570 C 0.44866 0.09126 0.43974 0.0
C1571 C 0.45872 0.08906 0.41818 0.0
C1572 C 0.52282 0.09342 0.48278 0.0
C1573 C 0.48532 0.09301 0.46065 0.0
C1574 C 0.53487 0.08806 0.50196 0.0
C1575 C 0.52317 0.07996 0.52025 0.0
C1576 C 0.499 0.09084 0.48209 0.0
C1577 C 0.49949 0.07861 0.51939 0.0
C1578 C 0.4619 0.09322 0.46102 0.0
C1579 C 0.48239 0.09047 0.41871 0.0
N1580 N 0.48817 0.08383 0.50053 0.0
N1581 N 0.49488 0.0921 0.43961 0.0
H1582 H 0.83645 0.75179 0.08505 0.0
H1583 H 0.76983 0.792 0.19758 0.0
H1584 H 0.76445 0.75278 0.08142 0.0
H1585 H 0.84149 0.78908 0.20251 0.0
H1586 H 0.76862 0.78164 0.15447 0.0
H1587 H 0.8397 0.76968 0.12724 0.0
C1588 C 0.82138 0.75611 0.09304 0.0
C1589 C 0.80011 0.75066 0.07973 0.0
C1590 C 0.78466 0.78339 0.16493 0.0
C1591 C 0.80366 0.77089 0.12807 0.0
C1592 C 0.78538 0.7893 0.18963 0.0
C1593 C 0.80577 0.79124 0.20382 0.0
C1594 C 0.80444 0.77926 0.15418 0.0
C1595 C 0.82536 0.78769 0.19235 0.0
C1596 C 0.82324 0.76623 0.11716 0.0
C1597 C 0.78117 0.7566 0.09101 0.0
N1598 N 0.82417 0.7817 0.16823 0.0
N1599 N 0.78336 0.7662 0.11455 0.0
H1600 H 0.16921 1.01673 0.68868 0.0
H1601 H 0.07564 0.07254 0.62021 0.0
H1602 H 0.12166 0.053 0.726 0.0
H1603 H 0.10735 1.01826 0.58387 0.0
H1604 H 0.09448 0.06853 0.65822 0.0
H1605 H 0.14965 0.01977 0.65059 0.0
C1606 C 0.15467 0.02534 0.68908 0.0
C1607 C 0.14734 0.03444 0.71129 0.0
C1608 C 0.0974 0.05744 0.64199 0.0
C1609 C 0.12453 0.03851 0.66649 0.0
C1610 C 0.08655 0.05976 0.61998 0.0
C1611 C 0.08948 0.04575 0.59804 0.0
C1612 C 0.11207 0.04122 0.64281 0.0
C1613 C 0.10414 0.02955 0.59982 0.0
C1614 C 0.14338 0.02708 0.66705 0.0
C1615 C 0.12819 0.04546 0.7098 0.0
N1616 N 0.11478 0.02793 0.62135 0.0
N1617 N 0.11781 0.0473 0.68823 0.0
H1618 H 0.81391 0.45643 0.42884 0.0
H1619 H 0.79974 0.32171 0.36683 0.0
H1620 H 0.78617 0.39902 0.46188 0.0
H1621 H 0.83318 0.37832 0.33574 0.0
H1622 H 0.7949 0.34991 0.40186 0.0
H1623 H 0.82066 0.42834 0.39425 0.0
C1624 C 0.80911 0.43795 0.42876 0.0
C1625 C 0.79941 0.43008 0.44826 0.0
C1626 C 0.80347 0.35617 0.38746 0.0
C1627 C 0.80723 0.39783 0.40887 0.0
C1628 C 0.80635 0.34003 0.36746 0.0
C1629 C 0.81696 0.34756 0.34825 0.0
C1630 C 0.81109 0.38014 0.38831 0.0
C1631 C 0.825 0.37162 0.35012 0.0
C1632 C 0.81307 0.42191 0.40907 0.0
C1633 C 0.79366 0.40591 0.44725 0.0
N1634 N 0.82177 0.38702 0.36968 0.0
N1635 N 0.79764 0.3907 0.42794 0.0
H1636 H 0.44995 0.01994 0.28917 0.0
H1637 H 0.5214 0.08452 0.19807 0.0
H1638 H 0.4679 0.09476 0.29719 0.0
H1639 H 0.50414 1.00968 0.19059 0.0
H1640 H 0.50228 0.08866 0.23469 0.0
H1641 H 0.47046 1.01582 0.25345 0.0
C1642 C 0.45831 0.0355 0.28346 0.0
C1643 C 0.45723 0.05772 0.29611 0.0
C1644 C 0.50271 0.07133 0.22506 0.0
C1645 C 0.48062 0.05317 0.25523 0.0
C1646 C 0.51351 0.06896 0.20408 0.0
C1647 C 0.51435 0.04672 0.19122 0.0
C1648 C 0.49261 0.05132 0.23325 0.0
C1649 C 0.50414 0.02717 0.20006 0.0
C1650 C 0.46999 0.03314 0.26305 0.0
C1651 C 0.46832 0.0773 0.28793 0.0
N1652 N 0.49365 0.02993 0.22049 0.0
N1653 N 0.47951 0.07456 0.26797 0.0
H1654 H 0.78052 0.69537 0.92837 0.0
H1655 H 0.84179 0.79113 0.85878 0.0
H1656 H 0.82115 0.76096 0.9643 0.0
H1657 H 0.78626 0.73554 0.82696 0.0
H1658 H 0.83836 0.77784 0.89672 0.0
H1659 H 0.78611 0.70759 0.8903 0.0
C1660 C 0.79064 0.71236 0.92825 0.0
C1661 C 0.80032 0.72721 0.94955 0.0
C1662 C 0.827 0.76853 0.88139 0.0
C1663 C 0.80694 0.74125 0.90594 0.0
C1664 C 0.82904 0.77599 0.85968 0.0
C1665 C 0.81423 0.76448 0.83964 0.0
C1666 C 0.81022 0.74925 0.88303 0.0
C1667 C 0.79795 0.74505 0.84194 0.0
C1668 C 0.7938 0.71933 0.9065 0.0
C1669 C 0.81329 0.74902 0.9483 0.0
N1670 N 0.79639 0.73806 0.86321 0.0
N1671 N 0.81629 0.75537 0.92684 0.0
H1672 H 0.8702 0.07351 0.01959 0.0
H1673 H 1.00687 0.11112 0.0439 0.0
H1674 H 0.90453 0.1388 0.0625 0.0
H1675 H 0.97316 0.04464 1.00269 0.0
H1676 H 0.96963 0.122 0.04952 0.0
H1677 H 0.90748 0.06278 1.01249 0.0
C1678 C 0.88553 0.08554 0.02765 0.0
C1679 C 0.88407 0.10709 0.04177 0.0
C1680 C 0.97034 0.10507 0.03911 0.0
C1681 C 0.92706 0.09499 0.03348 0.0
C1682 C 0.99172 0.09887 0.03574 0.0
C1683 C 0.99341 0.07689 0.02267 0.0
C1684 C 0.95026 0.08924 0.02942 0.0
C1685 C 0.97291 0.0618 1.01281 0.0
C1686 C 0.90687 0.07944 0.02351 0.0
C1687 C 0.90467 0.12198 0.05157 0.0
N1688 N 0.95233 0.0682 1.01644 0.0
N1689 N 0.92515 0.1157 0.04724 0.0
H1690 H 0.38378 0.46839 0.07194 0.0
H1691 H 0.50805 0.4758 0.0261 0.0
H1692 H 0.40956 0.40877 0.03717 0.0
H1693 H 0.48488 0.53512 0.06548 0.0
H1694 H 0.47269 0.45087 0.03171 0.0
H1695 H 0.42104 0.49289 0.07135 0.0
C1696 C 0.39733 0.46043 0.06429 0.0
C1697 C 0.39354 0.43652 0.05448 0.0
C1698 C 0.47533 0.4693 0.03925 0.0
C1699 C 0.43622 0.46448 0.05367 0.0
C1700 C 0.49555 0.48362 0.03603 0.0
C1701 C 0.4994 0.50769 0.04515 0.0
C1702 C 0.45863 0.47906 0.05157 0.0
C1703 C 0.48264 0.51668 0.05809 0.0
C1704 C 0.41861 0.47443 0.06398 0.0
C1705 C 0.41171 0.42713 0.04487 0.0
N1706 N 0.46289 0.50239 0.06074 0.0
N1707 N 0.43221 0.44115 0.04459 0.0
H1708 H 0.42705 0.65956 0.77798 0.0
H1709 H 0.31133 0.71677 0.79037 0.0
H1710 H 0.3611 0.61829 0.78091 0.0
H1711 H 0.37492 0.75559 0.77576 0.0
H1712 H 0.3292 0.68208 0.78912 0.0
H1713 H 0.40927 0.69437 0.77915 0.0
C1714 C 0.40882 0.6575 0.77891 0.0
C1715 C 0.39607 0.63493 0.77928 0.0
C1716 C 0.33945 0.6981 0.78623 0.0
C1717 C 0.3747 0.6766 0.78092 0.0
C1718 C 0.3291 0.71838 0.78702 0.0
C1719 C 0.34112 0.74023 0.78331 0.0
C1720 C 0.36266 0.69866 0.78186 0.0
C1721 C 0.36435 0.73984 0.77889 0.0
C1722 C 0.3985 0.6778 0.77957 0.0
C1723 C 0.37224 0.63465 0.78051 0.0
N1724 N 0.37401 0.71999 0.77842 0.0
N1725 N 0.3627 0.65461 0.78136 0.0
H1726 H 0.25467 0.59385 0.57636 0.0
H1727 H 0.13285 0.57493 0.50152 0.0
H1728 H 0.24545 0.60862 0.50593 0.0
H1729 H 0.13974 0.56663 0.57461 0.0
H1730 H 0.17421 0.58485 0.50235 0.0
H1731 H 0.21316 0.58117 0.57549 0.0
C1732 C 0.24398 0.59418 0.56061 0.0
C1733 C 0.25368 0.6023 0.54117 0.0
C1734 C 0.16675 0.58085 0.51824 0.0
C1735 C 0.206 0.58794 0.5401 0.0
C1736 C 0.14299 0.57515 0.5178 0.0
C1737 C 0.13251 0.56995 0.53805 0.0
C1738 C 0.1805 0.58135 0.53908 0.0
C1739 C 0.14688 0.57054 0.55854 0.0
C1740 C 0.22025 0.58706 0.56017 0.0
C1741 C 0.23886 0.6025 0.52134 0.0
N1742 N 0.17004 0.57612 0.55852 0.0
N1743 N 0.21592 0.59551 0.52135 0.0
H1744 H 0.75862 1.00567 0.80044 0.0
H1745 H 0.86448 0.94656 0.76379 0.0
H1746 H 0.79885 0.02362 0.74394 0.0
H1747 H 0.83115 0.94086 0.82789 0.0
H1748 H 0.84141 0.97516 0.75595 0.0
H1749 H 0.78492 0.98084 0.80971 0.0
C1750 C 0.77291 1.00421 0.78984 0.0
C1751 C 0.77657 1.01664 0.77137 0.0
C1752 C 0.83945 0.96789 0.77191 0.0
C1753 C 0.80694 0.98848 0.78207 0.0
C1754 C 0.85263 0.95164 0.77641 0.0
C1755 C 0.84967 0.94126 0.79647 0.0
C1756 C 0.8231 0.97352 0.78746 0.0
C1757 C 0.83421 0.94856 0.81234 0.0
C1758 C 0.78804 0.99019 0.79527 0.0
C1759 C 0.79542 1.01422 0.75829 0.0
N1760 N 0.82131 0.96402 0.80733 0.0
N1761 N 0.80994 1.00036 0.76388 0.0
H1762 H 0.75202 0.92072 0.56903 0.0
H1763 H 0.70784 0.0232 0.51662 0.0
H1764 H 0.79088 0.96233 0.52533 0.0
H1765 H 0.67338 0.98763 0.56772 0.0
H1766 H 0.73755 0.99986 0.51805 0.0
H1767 H 0.72208 0.94378 0.56717 0.0
C1768 C 0.75426 0.93473 0.55906 0.0
C1769 C 0.77397 0.93966 0.54734 0.0
C1770 C 0.72347 0.99715 0.52893 0.0
C1771 C 0.73975 0.96606 0.54506 0.0
C1772 C 0.70653 1.01055 0.5282 0.0
C1773 C 0.68803 1.00743 0.54208 0.0
C1774 C 0.72193 0.98044 0.54361 0.0
C1775 C 0.6871 0.99045 0.55643 0.0
C1776 C 0.73716 0.9479 0.55801 0.0
C1777 C 0.77597 0.95798 0.53467 0.0
N1778 N 0.7038 0.97763 0.55683 0.0
N1779 N 0.75906 0.9705 0.53383 0.0
H1780 H 0.42435 0.48531 0.78144 0.0
H1781 H 0.3073 0.38771 0.76559 0.0
H1782 H 0.35845 0.50169 0.76644 0.0
H1783 H 0.37326 0.37379 0.78528 0.0
H1784 H 0.32513 0.42834 0.76484 0.0
H1785 H 0.40605 0.4449 0.78192 0.0
C1786 C 0.40599 0.48059 0.77817 0.0
C1787 C 0.39328 0.49772 0.77386 0.0
C1788 C 0.33581 0.41649 0.76933 0.0
C1789 C 0.37153 0.44992 0.77437 0.0
C1790 C 0.32553 0.39296 0.76975 0.0
C1791 C 0.33844 0.37647 0.77554 0.0
C1792 C 0.35956 0.4244 0.77462 0.0
C1793 C 0.36218 0.38525 0.78072 0.0
C1794 C 0.39543 0.45719 0.77848 0.0
C1795 C 0.36935 0.48966 0.76985 0.0
N1796 N 0.37171 0.40811 0.7801 0.0
N1797 N 0.35949 0.46677 0.77017 0.0
H1798 H 0.22501 0.63284 0.21964 0.0
H1799 H 0.33143 0.73765 0.24537 0.0
H1800 H 0.28668 0.63313 0.26245 0.0
H1801 H 0.26165 0.74531 0.23288 0.0
H1802 H 0.31907 0.69515 0.23612 0.0
H1803 H 0.24283 0.66965 0.20912 0.0
C1804 C 0.24247 0.64038 0.22637 0.0
C1805 C 0.25426 0.63037 0.2424 0.0
C1806 C 0.30662 0.70621 0.23482 0.0
C1807 C 0.27463 0.67205 0.23032 0.0
C1808 C 0.31363 0.73037 0.24001 0.0
C1809 C 0.2974 0.74481 0.24035 0.0
C1810 C 0.28334 0.69667 0.22967 0.0
C1811 C 0.27457 0.73464 0.23327 0.0
C1812 C 0.25259 0.66132 0.22036 0.0
C1813 C 0.27689 0.64064 0.25044 0.0
N1814 N 0.26814 0.71112 0.22847 0.0
N1815 N 0.28629 0.66117 0.24457 0.0
H1816 H 0.54741 0.79356 0.52066 0.0
H1817 H 0.51657 0.67163 0.5568 0.0
H1818 H 0.49044 0.7403 0.48763 0.0
H1819 H 0.5713 0.72634 0.59237 0.0
H1820 H 0.4999 0.70022 0.53984 0.0
H1821 H 0.55025 0.77307 0.55359 0.0
C1822 C 0.53541 0.77756 0.52043 0.0
C1823 C 0.51907 0.7682 0.50114 0.0
C1824 C 0.51523 0.70614 0.55185 0.0
C1825 C 0.52223 0.74462 0.53875 0.0
C1826 C 0.52469 0.6898 0.56184 0.0
C1827 C 0.54585 0.6965 0.57541 0.0
C1828 C 0.5272 0.72918 0.55521 0.0
C1829 C 0.5554 0.72032 0.58129 0.0
C1830 C 0.53691 0.76597 0.53935 0.0
C1831 C 0.50357 0.74781 0.502 0.0
N1832 N 0.54635 0.73574 0.5706 0.0
N1833 N 0.50581 0.73642 0.52031 0.0
H1834 H 0.65351 0.35743 0.7082 0.0
H1835 H 0.77086 0.31137 0.71572 0.0
H1836 H 0.68434 0.32629 0.64736 0.0
H1837 H 0.73777 0.33653 0.77751 0.0
H1838 H 0.7413 0.3209 0.69049 0.0
H1839 H 0.6868 0.35517 0.7338 0.0
C1840 C 0.6675 0.35058 0.70018 0.0
C1841 C 0.66612 0.34181 0.67569 0.0
C1842 C 0.74046 0.32434 0.70956 0.0
C1843 C 0.70394 0.33884 0.7048 0.0
C1844 C 0.75728 0.31876 0.72402 0.0
C1845 C 0.75665 0.3229 0.7488 0.0
C1846 C 0.72278 0.33412 0.71988 0.0
C1847 C 0.73879 0.33283 0.75849 0.0
C1848 C 0.68639 0.34912 0.71482 0.0
C1849 C 0.68466 0.33308 0.6662 0.0
N1850 N 0.72249 0.33804 0.74398 0.0
N1851 N 0.70271 0.33159 0.68082 0.0
H1852 H 0.98562 0.37877 0.98255 0.0
H1853 H 0.06013 0.48318 0.07691 0.0
H1854 H 0.0516 0.37852 1.01671 0.0
H1855 H 1.00246 0.49195 0.03325 0.0
H1856 H 0.05028 0.44125 0.06284 0.0
H1857 H 0.98552 0.41687 1.00779 0.0
C1858 C 0.9999 0.38662 0.99557 0.0
C1859 C 0.01885 0.37586 0.99736 0.0
C1860 C 0.03955 0.45223 0.0565 0.0
C1861 C 0.0187 0.41881 0.02621 0.0
C1862 C 0.04516 0.47614 0.06456 0.0
C1863 C 0.03233 0.49089 0.05576 0.0
C1864 C 0.02126 0.44306 0.03913 0.0
C1865 C 1.01285 0.48101 0.0402 0.0
C1866 C 0.99983 0.40826 1.00991 0.0
C1867 C 0.03687 0.3865 1.0145 0.0
N1868 N 1.00813 0.45759 0.0319 0.0
N1869 N 0.03639 0.40745 0.02816 0.0
H1870 H 0.04715 0.7805 0.16906 0.0
H1871 H 0.94338 0.83432 0.22021 0.0
H1872 H 0.04239 0.85202 0.16758 0.0
H1873 H 0.96773 0.77734 0.24457 0.0
H1874 H 0.97677 0.83998 0.19753 0.0
H1875 H 1.01451 0.7773 0.19251 0.0
C1876 C 0.03915 0.79554 0.17359 0.0
C1877 C 0.0475 0.81659 0.16641 0.0
C1878 C 0.97475 0.82634 0.20796 0.0
C1879 C 1.01003 0.813 0.19332 0.0
C1880 C 0.95578 0.82314 0.221 0.0
C1881 C 0.95255 0.80515 0.23419 0.0
C1882 C 0.9904 0.81127 0.20789 0.0
C1883 C 0.9691 0.79104 0.23424 0.0
C1884 C 0.02058 0.79372 0.18711 0.0
C1885 C 0.03647 0.8355 0.17284 0.0
N1886 N 0.98716 0.79429 0.22116 0.0
N1887 N 0.01816 0.83325 0.18591 0.0
H1888 H 0.58649 0.33944 0.1292 0.0
H1889 H 0.53565 0.42394 0.05504 0.0
H1890 H 0.52205 0.36121 0.13977 0.0
H1891 H 0.59919 0.4009 0.04216 0.0
H1892 H 0.53014 0.40025 0.0855 0.0
H1893 H 0.59169 0.36185 0.09735 0.0
C1894 C 0.57351 0.34906 0.1249 0.0
C1895 C 0.55382 0.34853 0.13713 0.0
C1896 C 0.54524 0.40023 0.07594 0.0
C1897 C 0.55955 0.37398 0.10066 0.0
C1898 C 0.54829 0.41358 0.05832 0.0
C1899 C 0.56788 0.41433 0.04589 0.0
C1900 C 0.56193 0.38756 0.08133 0.0
C1901 C 0.58393 0.40099 0.05142 0.0
C1902 C 0.57644 0.36176 0.10667 0.0
C1903 C 0.5375 0.36119 0.13081 0.0
N1904 N 0.58063 0.38819 0.0688 0.0
N1905 N 0.54072 0.37338 0.11298 0.0
H1906 H 0.03151 0.27479 0.31917 0.0
H1907 H 0.97081 0.35396 0.25377 0.0
H1908 H 0.06055 0.34645 0.31811 0.0
H1909 H 0.95106 0.27884 0.23814 0.0
H1910 H 1.00766 0.35017 0.27028 0.0
H1911 H 1.00574 0.27413 0.28435 0.0
C1912 C 0.03269 0.29026 0.31137 0.0
C1913 C 0.04774 0.31088 0.32184 0.0
C1914 C 0.99548 0.33444 0.26281 0.0
C1915 C 0.01837 0.31032 0.28218 0.0
C1916 C 0.97432 0.33657 0.25305 0.0
C1917 C 0.95727 0.31669 0.24525 0.0
C1918 C 0.9995 0.31235 0.26535 0.0
C1919 C 0.96324 0.29473 0.24496 0.0
C1920 C 0.01808 0.28985 0.29142 0.0
C1921 C 0.04886 0.33032 0.31086 0.0
N1922 N 0.98361 0.29315 0.25558 0.0
N1923 N 0.03406 0.3297 0.29189 0.0
H1924 H 0.0747 0.74074 0.63125 0.0
H1925 H 0.03059 0.60341 0.59941 0.0
H1926 H 1.00835 0.70713 0.6457 0.0
H1927 H 0.08077 0.6387 0.56029 0.0
H1928 H 0.02648 0.64106 0.62206 0.0
H1929 H 0.08125 0.70294 0.61031 0.0
C1930 C 0.0616 0.72538 0.6301 0.0
C1931 C 0.04094 0.72694 0.64009 0.0
C1932 C 0.0384 0.64055 0.60853 0.0
C1933 C 0.04836 0.68399 0.61655 0.0
C1934 C 0.04083 0.61908 0.59564 0.0
C1935 C 0.05596 0.61797 0.57784 0.0
C1936 C 0.05137 0.66104 0.60379 0.0
C1937 C 0.0688 0.63883 0.57376 0.0
C1938 C 0.0653 0.70393 0.61811 0.0
C1939 C 0.02446 0.70663 0.63811 0.0
N1940 N 0.06625 0.6596 0.5867 0.0
N1941 N 0.02856 0.68595 0.62663 0.0
H1942 H 0.6915 0.85244 0.9024 0.0
H1943 H 0.73418 0.80378 0.77691 0.0
H1944 H 0.64862 0.8048 0.84514 0.0
H1945 H 0.77957 0.84229 0.83745 0.0
H1946 H 0.70182 0.80906 0.79996 0.0
H1947 H 0.72345 0.8528 0.87752 0.0
C1948 C 0.68886 0.84198 0.88465 0.0
C1949 C 0.66748 0.82844 0.87584 0.0
C1950 C 0.71886 0.81654 0.80812 0.0
C1951 C 0.7037 0.82903 0.84725 0.0
C1952 C 0.73735 0.81368 0.79491 0.0
C1953 C 0.75963 0.82234 0.80538 0.0
C1954 C 0.7227 0.82815 0.83193 0.0
C1955 C 0.76268 0.83509 0.82875 0.0
C1956 C 0.70704 0.84227 0.87043 0.0
C1957 C 0.66488 0.81535 0.85267 0.0
N1958 N 0.74442 0.83742 0.84134 0.0
N1959 N 0.68279 0.81598 0.83916 0.0
H1960 H 0.49497 0.59218 0.72307 0.0
H1961 H 0.49756 0.52423 0.58621 0.0
H1962 H 0.43974 0.5388 0.68721 0.0
H1963 H 0.54613 0.58591 0.61792 0.0
H1964 H 0.47774 0.52764 0.62297 0.0
H1965 H 0.51467 0.58873 0.68625 0.0
C1966 C 0.4868 0.57965 0.70759 0.0
C1967 C 0.4652 0.56587 0.70903 0.0
C1968 C 0.49277 0.54046 0.62206 0.0
C1969 C 0.48856 0.56152 0.66543 0.0
C1970 C 0.50433 0.53848 0.6008 0.0
C1971 C 0.52407 0.55467 0.59816 0.0
C1972 C 0.50069 0.55875 0.64179 0.0
C1973 C 0.53127 0.57274 0.61841 0.0
C1974 C 0.49824 0.57769 0.68626 0.0
C1975 C 0.45613 0.55002 0.68763 0.0
N1976 N 0.51988 0.57415 0.63888 0.0
N1977 N 0.46767 0.54829 0.66726 0.0
H1978 H 0.81014 0.14187 0.96537 0.0
H1979 H 0.79975 0.26927 0.94289 0.0
H1980 H 0.82773 0.20459 0.01889 0.0
H1981 H 0.78677 0.2082 0.88707 0.0
H1982 H 0.80998 0.24547 0.97086 0.0
H1983 H 0.8022 0.16556 0.93603 0.0
C1984 C 0.81256 0.16063 0.97087 0.0
C1985 C 0.81955 0.17129 0.99459 0.0
C1986 C 0.80491 0.23722 0.9525 0.0
C1987 C 0.81027 0.19841 0.9613 0.0
C1988 C 0.79886 0.25079 0.93655 0.0
C1989 C 0.79225 0.2407 0.91261 0.0
C1990 C 0.8043 0.2133 0.94455 0.0
C1991 C 0.7919 0.21673 0.90533 0.0
C1992 C 0.80795 0.17413 0.95416 0.0
C1993 C 0.82233 0.19564 1.00081 0.0
N1994 N 0.79778 0.20382 0.92125 0.0
N1995 N 0.81757 0.20833 0.98431 0.0
H1996 H 0.13952 0.54962 0.24736 0.0
H1997 H 0.11926 0.53237 0.10751 0.0
H1998 H 0.18726 0.52753 0.19855 0.0
H1999 H 0.06916 0.55144 0.15479 0.0
H2000 H 0.14113 0.52344 0.14048 0.0
H2001 H 0.11033 0.54255 0.21404 0.0
C2002 C 0.14368 0.54266 0.22972 0.0
C2003 C 0.16595 0.53963 0.22558 0.0
C2004 C 0.12527 0.52936 0.1437 0.0
C2005 C 0.13284 0.5319 0.18746 0.0
C2006 C 0.11282 0.53463 0.12488 0.0
C2007 C 0.09263 0.54318 0.12856 0.0
C2008 C 0.11771 0.53302 0.16655 0.0
C2009 C 0.08481 0.54518 0.15129 0.0
C2010 C 0.12704 0.53875 0.21069 0.0
C2011 C 0.17039 0.53047 0.20245 0.0
N2012 N 0.0976 0.54052 0.16958 0.0
N2013 N 0.1541 0.52733 0.18419 0.0
H2014 H 0.84674 0.84685 0.48115 0.0
H2015 H 0.77249 0.82554 0.35603 0.0
H2016 H 0.78146 0.86703 0.47191 0.0
H2017 H 0.83949 0.80851 0.36328 0.0
H2018 H 0.77412 0.83716 0.39906 0.0
H2019 H 0.84298 0.82907 0.43881 0.0
C2020 C 0.83151 0.8473 0.47028 0.0
C2021 C 0.81444 0.85853 0.48004 0.0
C2022 C 0.78845 0.83078 0.39129 0.0
C2023 C 0.81008 0.83838 0.4316 0.0
C2024 C 0.78754 0.82412 0.36664 0.0
C2025 C 0.80598 0.81619 0.35588 0.0
C2026 C 0.80795 0.82962 0.40547 0.0
C2027 C 0.8249 0.81459 0.37072 0.0
C2028 C 0.8294 0.83722 0.4461 0.0
C2029 C 0.79509 0.85864 0.46513 0.0
N2030 N 0.82546 0.8214 0.39473 0.0
N2031 N 0.7935 0.84886 0.44168 0.0
H2032 H 0.44122 0.58198 0.86825 0.0
H2033 H 0.5471 0.54125 0.93532 0.0
H2034 H 0.49632 0.55941 0.83122 0.0
H2035 H 0.49973 0.5772 0.97342 0.0
H2036 H 0.52798 0.5456 0.89758 0.0
H2037 H 0.46087 0.57845 0.90606 0.0
C2038 C 0.45747 0.57632 0.86785 0.0
C2039 C 0.46682 0.57119 0.8458 0.0
C2040 C 0.52167 0.55258 0.91413 0.0
C2041 C 0.48992 0.56661 0.8903 0.0
C2042 C 0.5327 0.55005 0.936 0.0
C2043 C 0.52542 0.55879 0.95837 0.0
C2044 C 0.50262 0.56378 0.91383 0.0
C2045 C 0.50638 0.57005 0.95714 0.0
C2046 C 0.46881 0.57427 0.88974 0.0
C2047 C 0.48812 0.5638 0.8473 0.0
N2048 N 0.49584 0.57204 0.9357 0.0
N2049 N 0.49863 0.56168 0.86871 0.0
H2050 H 0.80373 0.15197 0.13174 0.0
H2051 H 0.81671 0.28659 0.1932 0.0
H2052 H 0.82956 0.20931 0.09774 0.0
H2053 H 0.78398 0.22984 0.22454 0.0
H2054 H 0.82131 0.25846 0.15801 0.0
H2055 H 0.79694 0.18005 0.16627 0.0
C2056 C 0.80811 0.17045 0.13161 0.0
C2057 C 0.81728 0.1783 0.11186 0.0
C2058 C 0.81295 0.25216 0.1725 0.0
C2059 C 0.8094 0.21052 0.15118 0.0
C2060 C 0.81021 0.26826 0.19259 0.0
C2061 C 0.79991 0.26065 0.21192 0.0
C2062 C 0.80551 0.22818 0.17172 0.0
C2063 C 0.79194 0.23658 0.21007 0.0
C2064 C 0.80412 0.18647 0.15126 0.0
C2065 C 0.8225 0.20245 0.11259 0.0
N2066 N 0.79506 0.22123 0.19044 0.0
N2067 N 0.8185 0.21766 0.13188 0.0
H2068 H 0.16739 0.62635 0.30766 0.0
H2069 H 0.15255 0.63392 0.44578 0.0
H2070 H 0.21638 0.61074 0.35759 0.0
H2071 H 0.09715 0.62411 0.39124 0.0
H2072 H 0.17956 0.6389 0.41581 0.0
H2073 H 0.14558 0.63924 0.34062 0.0
C2074 C 0.17381 0.62609 0.32561 0.0
C2075 C 0.19344 0.61702 0.32992 0.0
C2076 C 0.16147 0.63613 0.41059 0.0
C2077 C 0.16863 0.63171 0.36756 0.0
C2078 C 0.14603 0.63316 0.42762 0.0
C2079 C 0.12247 0.62794 0.42096 0.0
C2080 C 0.15331 0.63409 0.38679 0.0
C2081 C 0.11508 0.628 0.39731 0.0
C2082 C 0.16134 0.63341 0.34438 0.0
C2083 C 0.20112 0.61727 0.35351 0.0
N2084 N 0.13045 0.63064 0.38102 0.0
N2085 N 0.1885 0.62419 0.37147 0.0
H2086 H 0.83672 0.90281 0.63374 0.0
H2087 H 0.79833 0.78978 0.69071 0.0
H2088 H 0.80459 0.83572 0.59263 0.0
H2089 H 0.82619 0.85798 0.73237 0.0
H2090 H 0.80084 0.80621 0.65469 0.0
H2091 H 0.83358 0.88658 0.66997 0.0
C2092 C 0.82902 0.88463 0.63233 0.0
C2093 C 0.82091 0.87058 0.61012 0.0
C2094 C 0.80637 0.81761 0.6717 0.0
C2095 C 0.81723 0.85187 0.65159 0.0
C2096 C 0.80493 0.80824 0.69235 0.0
C2097 C 0.81209 0.82249 0.71471 0.0
C2098 C 0.81511 0.84143 0.67329 0.0
C2099 C 0.82049 0.84629 0.71558 0.0
C2100 C 0.8272 0.87539 0.65305 0.0
C2101 C 0.81108 0.84716 0.60938 0.0
N2102 N 0.82182 0.85499 0.69518 0.0
N2103 N 0.80953 0.83854 0.62981 0.0
H2104 H 0.74438 0.53341 0.53919 0.0
H2105 H 0.60804 0.49384 0.51198 0.0
H2106 H 0.71163 0.46863 0.49421 0.0
H2107 H 0.64045 0.55986 0.55511 0.0
H2108 H 0.64568 0.48379 0.50656 0.0
H2109 H 0.70668 0.54324 0.5458 0.0
C2110 C 0.72931 0.52132 0.53055 0.0
C2111 C 0.73134 0.50018 0.51601 0.0
C2112 C 0.64458 0.50044 0.51733 0.0
C2113 C 0.68784 0.51122 0.52376 0.0
C2114 C 0.62299 0.50615 0.52059 0.0
C2115 C 0.62081 0.52777 0.53414 0.0
C2116 C 0.6644 0.5164 0.52762 0.0
C2117 C 0.64106 0.54297 0.54458 0.0
C2118 C 0.70772 0.5269 0.53442 0.0
C2119 C 0.71105 0.48517 0.50548 0.0
N2120 N 0.66185 0.53705 0.54106 0.0
N2121 N 0.69031 0.49093 0.50957 0.0
H2122 H 0.23656 0.12568 0.49433 0.0
H2123 H 0.10755 0.12742 0.52311 0.0
H2124 H 0.21101 0.18919 0.51571 0.0
H2125 H 0.13333 0.0648 0.49746 0.0
H2126 H 0.14445 0.15064 0.51833 0.0
H2127 H 0.19809 0.10335 0.49326 0.0
C2128 C 0.2228 0.13494 0.49866 0.0
C2129 C 0.22699 0.15931 0.50523 0.0
C2130 C 0.14194 0.13182 0.51358 0.0
C2131 C 0.18285 0.13384 0.50421 0.0
C2132 C 0.12086 0.11853 0.51628 0.0
C2133 C 0.11733 0.09407 0.51087 0.0
C2134 C 0.15964 0.12056 0.50548 0.0
C2135 C 0.13523 0.08357 0.50205 0.0
C2136 C 0.20081 0.12218 0.49804 0.0
C2137 C 0.20851 0.1704 0.51059 0.0
N2138 N 0.1556 0.09686 0.49979 0.0
N2139 N 0.18725 0.15757 0.51013 0.0
H2140 H 0.253 0.98879 0.78163 0.0
H2141 H 0.23612 0.84721 0.77792 0.0
H2142 H 0.18684 0.94518 0.7758 0.0
H2143 H 0.30109 0.88962 0.77312 0.0
H2144 H 0.21828 0.88199 0.77879 0.0
H2145 H 0.27051 0.95379 0.78028 0.0
C2146 C 0.24191 0.97201 0.7801 0.0
C2147 C 0.21791 0.97092 0.77883 0.0
C2148 C 0.23646 0.88388 0.7775 0.0
C2149 C 0.23875 0.929 0.7774 0.0
C2150 C 0.24688 0.86364 0.77695 0.0
C2151 C 0.27066 0.86444 0.77522 0.0
C2152 C 0.24946 0.90615 0.77661 0.0
C2153 C 0.28288 0.88718 0.77429 0.0
C2154 C 0.25214 0.95165 0.77929 0.0
C2155 C 0.20524 0.94779 0.77684 0.0
N2156 N 0.27241 0.9065 0.77506 0.0
N2157 N 0.21558 0.92838 0.7763 0.0
H2158 H 0.36677 1.01145 0.05478 0.0
H2159 H 0.48251 0.04721 0.99474 0.0
H2160 H 0.36791 0.01989 0.98175 0.0
H2161 H 0.48028 0.04444 0.06921 0.0
H2162 H 0.44088 0.03764 0.98964 0.0
H2163 H 0.4081 0.0242 0.0604 0.0
C2164 C 0.37568 1.01622 0.03993 0.0
C2165 C 0.3637 1.01461 0.01774 0.0
C2166 C 0.44946 0.03917 1.00712 0.0
C2167 C 0.4115 0.02903 0.02402 0.0
C2168 C 0.47333 0.04461 1.01008 0.0
C2169 C 0.48515 0.04663 0.03248 0.0
C2170 C 0.43705 0.03557 0.02665 0.0
C2171 C 0.47208 0.04308 0.0516 0.0
C2172 C 0.39938 0.02346 0.04316 0.0
C2173 C 0.37633 0.02097 0.9992 0.0
N2174 N 0.44885 0.03768 0.04823 0.0
N2175 N 0.39949 0.02773 1.00271 0.0
H2176 H 0.89305 0.63021 0.8067 0.0
H2177 H 0.76446 0.65003 0.80538 0.0
H2178 H 0.84529 0.60012 0.85153 0.0
H2179 H 0.80932 0.66417 0.75119 0.0
H2180 H 0.79374 0.6332 0.82423 0.0
H2181 H 0.86286 0.64618 0.78892 0.0
C2182 C 0.87628 0.62727 0.81306 0.0
C2183 C 0.87162 0.61378 0.83053 0.0
C2184 C 0.79696 0.63971 0.80802 0.0
C2185 C 0.83687 0.63161 0.80998 0.0
C2186 C 0.78025 0.64919 0.79722 0.0
C2187 C 0.78439 0.65843 0.77662 0.0
C2188 C 0.81799 0.63978 0.79829 0.0
C2189 C 0.80516 0.65693 0.76679 0.0
C2190 C 0.85898 0.63618 0.80273 0.0
C2191 C 0.84956 0.61044 0.83807 0.0
N2192 N 0.82124 0.64804 0.77784 0.0
N2193 N 0.83292 0.61923 0.82765 0.0
H2194 H 0.81792 0.64958 0.05759 0.0
H2195 H 0.94111 0.61743 0.0398 0.0
H2196 H 0.86089 0.67252 1.00512 0.0
H2197 H 0.90017 0.59854 0.09545 0.0
H2198 H 0.9106 0.63493 0.02481 0.0
H2199 H 0.84657 0.62821 0.06972 0.0
C2200 C 0.83334 0.65 0.04852 0.0
C2201 C 0.83709 0.66291 0.03038 0.0
C2202 C 0.90823 0.62688 0.04024 0.0
C2203 C 0.87 0.63855 0.04422 0.0
C2204 C 0.92559 0.61672 0.04873 0.0
C2205 C 0.92322 0.60649 0.06895 0.0
C2206 C 0.8883 0.62684 0.05203 0.0
C2207 C 0.90287 0.60647 0.07999 0.0
C2208 C 0.84971 0.63783 0.05548 0.0
C2209 C 0.85735 0.66283 0.01923 0.0
N2210 N 0.88622 0.61653 0.07142 0.0
N2211 N 0.87309 0.65091 0.02639 0.0
H2212 H 0.25559 0.10031 0.7787 0.0
H2213 H 0.24111 0.23618 0.7878 0.0
H2214 H 0.19185 0.12324 0.78848 0.0
H2215 H 0.30513 0.21409 0.77688 0.0
H2216 H 0.22336 0.19558 0.78845 0.0
H2217 H 0.27397 0.14098 0.77837 0.0
C2218 C 0.24531 0.11373 0.78085 0.0
C2219 C 0.22179 0.10758 0.78368 0.0
C2220 C 0.24131 0.19946 0.78592 0.0
C2221 C 0.2433 0.15549 0.78325 0.0
C2222 C 0.25163 0.22297 0.78555 0.0
C2223 C 0.27502 0.2294 0.78228 0.0
C2224 C 0.25412 0.18137 0.78302 0.0
C2225 C 0.28718 0.21066 0.77948 0.0
C2226 C 0.25596 0.13723 0.78062 0.0
C2227 C 0.20989 0.12649 0.78628 0.0
N2228 N 0.27676 0.18798 0.77991 0.0
N2229 N 0.22058 0.14907 0.786 0.0
H2230 H 0.3526 1.00575 0.326 0.0
H2231 H 0.34793 0.87461 0.34437 0.0
H2232 H 0.4026 0.98644 0.37202 0.0
H2233 H 0.31495 0.89457 0.28449 0.0
H2234 H 0.36164 0.91615 0.36156 0.0
H2235 H 0.332 0.96562 0.31796 0.0
C2236 C 0.35914 0.99307 0.33459 0.0
C2237 C 0.37954 0.99928 0.34936 0.0
C2238 C 0.35115 0.91134 0.34482 0.0
C2239 C 0.35606 0.9533 0.34015 0.0
C2240 C 0.34326 0.88774 0.33511 0.0
C2241 C 0.33058 0.88132 0.3129 0.0
C2242 C 0.34591 0.92836 0.33233 0.0
C2243 C 0.32499 0.89886 0.3015 0.0
C2244 C 0.34737 0.97017 0.32998 0.0
C2245 C 0.38705 0.98224 0.36029 0.0
N2246 N 0.33277 0.92157 0.3113 0.0
N2247 N 0.37542 0.95986 0.35525 0.0
H2248 H 0.58326 0.31829 0.55305 0.0
H2249 H 0.59985 0.4371 0.50598 0.0
H2250 H 0.62415 0.38354 0.58955 0.0
H2251 H 0.54687 0.3777 0.47729 0.0
H2252 H 0.61868 0.41261 0.52704 0.0
H2253 H 0.579 0.33541 0.51762 0.0
C2254 C 0.59162 0.33611 0.55348 0.0
C2255 C 0.60362 0.34975 0.57438 0.0
C2256 C 0.60323 0.40477 0.51567 0.0
C2257 C 0.59901 0.36926 0.53399 0.0
C2258 C 0.59254 0.4187 0.50331 0.0
C2259 C 0.57128 0.40961 0.49038 0.0
C2260 C 0.5925 0.3817 0.51528 0.0
C2261 C 0.56283 0.3856 0.48773 0.0
C2262 C 0.58924 0.34582 0.53325 0.0
C2263 C 0.61437 0.3726 0.57392 0.0
N2264 N 0.57315 0.37257 0.50062 0.0
N2265 N 0.61157 0.38173 0.55413 0.0
H2266 H 0.44746 0.75899 0.39584 0.0
H2267 H 0.39566 0.82655 0.30435 0.0
H2268 H 0.46898 0.83232 0.39569 0.0
H2269 H 0.35334 0.76972 0.32815 0.0
H2270 H 0.42707 0.82315 0.33147 0.0
H2271 H 0.41623 0.75766 0.36538 0.0
C2272 C 0.44559 0.77472 0.38942 0.0
C2273 C 0.46066 0.79581 0.39828 0.0
C2274 C 0.41093 0.81133 0.33063 0.0
C2275 C 0.4258 0.79428 0.3635 0.0
C2276 C 0.39301 0.81318 0.31508 0.0
C2277 C 0.37177 0.79856 0.31417 0.0
C2278 C 0.4077 0.79465 0.34524 0.0
C2279 C 0.36941 0.78148 0.32847 0.0
C2280 C 0.42787 0.77396 0.37216 0.0
C2281 C 0.45763 0.81574 0.38945 0.0
N2282 N 0.38721 0.78002 0.34356 0.0
N2283 N 0.44066 0.81444 0.37244 0.0
H2284 H 0.12064 0.75067 0.07953 0.0
H2285 H 0.08412 0.63346 0.12714 0.0
H2286 H 0.11736 0.74788 0.15393 0.0
H2287 H 0.09996 0.63516 0.05488 0.0
H2288 H 0.09945 0.67517 0.1379 0.0
H2289 H 0.11692 0.70829 0.0706 0.0
C2290 C 0.11953 0.74115 0.09402 0.0
C2291 C 0.11895 0.75266 0.11744 0.0
C2292 C 0.09982 0.66637 0.11975 0.0
C2293 C 0.11437 0.70431 0.10738 0.0
C2294 C 0.09095 0.64259 0.11357 0.0
C2295 C 0.09047 0.63093 0.09001 0.0
C2296 C 0.10798 0.67861 0.10217 0.0
C2297 C 0.09981 0.64352 0.07322 0.0
C2298 C 0.11739 0.71697 0.08893 0.0
C2299 C 0.11764 0.7396 0.13558 0.0
N2300 N 0.10793 0.66678 0.07957 0.0
N2301 N 0.11503 0.71604 0.13013 0.0
H2302 H 0.07675 0.2734 0.90474 0.0
H2303 H 0.16598 0.34916 0.83677 0.0
H2304 H 0.08802 0.34844 0.91397 0.0
H2305 H 0.16278 0.27546 0.83392 0.0
H2306 H 0.13608 0.34853 0.86389 0.0
H2307 H 0.10734 0.27309 0.87796 0.0
C2308 C 0.08573 0.28978 0.90122 0.0
C2309 C 0.07986 0.31097 0.91154 0.0
C2310 C 0.14188 0.33246 0.85738 0.0
C2311 C 0.11459 0.31076 0.88094 0.0
C2312 C 0.15884 0.33279 0.84173 0.0
C2313 C 0.1668 0.31232 0.83299 0.0
C2314 C 0.13268 0.31148 0.86434 0.0
C2315 C 0.15722 0.29168 0.84039 0.0
C2316 C 0.10314 0.2896 0.88595 0.0
C2317 C 0.09197 0.3317 0.90639 0.0
N2318 N 0.14059 0.29176 0.8556 0.0
N2319 N 0.10868 0.33106 0.8914 0.0
H2320 H 0.56427 0.76162 0.92397 0.0
H2321 H 0.58564 0.70771 0.03955 0.0
H2322 H 0.62032 0.79109 0.97736 0.0
H2323 H 0.52504 0.68571 0.99076 0.0
H2324 H 0.599 0.73822 0.01727 0.0
H2325 H 0.55063 0.73268 0.94774 0.0
C2326 C 0.5738 0.7619 0.94066 0.0
C2327 C 0.59346 0.77876 0.94873 0.0
C2328 C 0.58271 0.72681 1.01155 0.0
C2329 C 0.57782 0.74577 0.97617 0.0
C2330 C 0.57496 0.70953 0.02439 0.0
C2331 C 0.55421 0.69406 0.01695 0.0
C2332 C 0.56966 0.72857 0.99108 0.0
C2333 C 0.5413 0.69701 0.99693 0.0
C2334 C 0.56593 0.74544 0.95429 0.0
C2335 C 0.60511 0.77834 0.97049 0.0
N2336 N 0.5493 0.71381 0.98463 0.0
N2337 N 0.59709 0.76209 0.9835 0.0
H2338 H 0.09273 0.84112 0.72418 0.0
H2339 H 0.14288 0.78348 0.82525 0.0
H2340 H 0.05701 0.78257 0.75079 0.0
H2341 H 0.18295 0.83287 0.78992 0.0
H2342 H 0.10827 0.79273 0.80769 0.0
H2343 H 0.12256 0.84729 0.75698 0.0
C2344 C 0.09098 0.82987 0.73718 0.0
C2345 C 0.07276 0.81098 0.73454 0.0
C2346 C 0.12466 0.80195 0.80424 0.0
C2347 C 0.10652 0.81793 0.77193 0.0
C2348 C 0.1444 0.79668 0.81429 0.0
C2349 C 0.16581 0.80695 0.80855 0.0
C2350 C 0.12639 0.8174 0.7882 0.0
C2351 C 0.16681 0.82436 0.7947 0.0
C2352 C 0.10795 0.83339 0.75587 0.0
C2353 C 0.0711 0.79703 0.75192 0.0
N2354 N 0.14736 0.82865 0.78454 0.0
N2355 N 0.08792 0.80059 0.76971 0.0
H2356 H 0.10612 0.38518 0.45161 0.0
H2357 H 0.03638 0.48917 0.46843 0.0
H2358 H 0.04235 0.38161 0.41091 0.0
H2359 H 0.08924 0.4823 0.51962 0.0
H2360 H 0.0398 0.45131 0.44503 0.0
H2361 H 0.10174 0.42255 0.47481 0.0
C2362 C 0.09117 0.39228 0.4476 0.0
C2363 C 0.07455 0.38034 0.42938 0.0
C2364 C 0.05056 0.45813 0.46144 0.0
C2365 C 0.06948 0.4231 0.45571 0.0
C2366 C 0.04868 0.47973 0.47474 0.0
C2367 C 0.06253 0.48887 0.496 0.0
C2368 C 0.06657 0.44581 0.46938 0.0
C2369 C 0.07815 0.4759 0.50338 0.0
C2370 C 0.08865 0.41357 0.46086 0.0
C2371 C 0.05551 0.39027 0.4249 0.0
N2372 N 0.0798 0.45509 0.49005 0.0
N2373 N 0.05352 0.41119 0.43793 0.0
H2374 H 0.46203 0.26612 0.18477 0.0
H2375 H 0.3892 0.30963 0.29032 0.0
H2376 H 0.48456 0.32937 0.23676 0.0
H2377 H 0.35989 0.25946 0.22738 0.0
H2378 H 0.4261 0.31315 0.27384 0.0
H2379 H 0.42582 0.26021 0.20262 0.0
C2380 C 0.45927 0.27882 0.19987 0.0
C2381 C 0.47619 0.29831 0.2093 0.0
C2382 C 0.4116 0.30129 0.26372 0.0
C2383 C 0.43512 0.29148 0.22993 0.0
C2384 C 0.39058 0.29911 0.27318 0.0
C2385 C 0.37144 0.28433 0.26011 0.0
C2386 C 0.41349 0.28845 0.24114 0.0
C2387 C 0.3742 0.27118 0.23797 0.0
C2388 C 0.43866 0.27541 0.21005 0.0
C2389 C 0.47186 0.31419 0.2289 0.0
N2390 N 0.39486 0.27361 0.22912 0.0
N2391 N 0.45173 0.31038 0.23867 0.0
H2392 H 0.67728 0.56291 0.37181 0.0
H2393 H 0.56412 0.5214 0.43837 0.0
H2394 H 0.61672 0.51886 0.3341 0.0
H2395 H 0.61818 0.57734 0.47193 0.0
H2396 H 0.58369 0.51849 0.40152 0.0
H2397 H 0.65742 0.5665 0.40854 0.0
C2398 C 0.65983 0.55386 0.37102 0.0
C2399 C 0.64907 0.5405 0.34902 0.0
C2400 C 0.59138 0.5315 0.41684 0.0
C2401 C 0.62555 0.54448 0.39251 0.0
C2402 C 0.58005 0.53323 0.43823 0.0
C2403 C 0.58897 0.54985 0.45908 0.0
C2404 C 0.61247 0.54617 0.41554 0.0
C2405 C 0.61007 0.56432 0.45682 0.0
C2406 C 0.64834 0.556 0.39231 0.0
C2407 C 0.62617 0.52943 0.35009 0.0
N2408 N 0.62086 0.56206 0.43596 0.0
N2409 N 0.61551 0.53154 0.37103 0.0
H2410 H 0.30906 0.97543 0.0893 0.0
H2411 H 0.30756 0.85091 0.12536 0.0
H2412 H 0.2842 0.90979 0.04161 0.0
H2413 H 0.34314 0.91563 0.16858 0.0
H2414 H 0.29501 0.8726 0.09631 0.0
H2415 H 0.31738 0.95415 0.12062 0.0
C2416 C 0.30507 0.95655 0.08554 0.0
C2417 C 0.29604 0.94431 0.06284 0.0
C2418 C 0.30555 0.88208 0.11215 0.0
C2419 C 0.30566 0.91994 0.0984 0.0
C2420 C 0.31265 0.86972 0.12876 0.0
C2421 C 0.32645 0.8815 0.14937 0.0
C2422 C 0.3122 0.90644 0.11618 0.0
C2423 C 0.33275 0.90586 0.15277 0.0
C2424 C 0.30995 0.94443 0.10335 0.0
C2425 C 0.29125 0.91988 0.05886 0.0
N2426 N 0.32556 0.91754 0.13634 0.0
N2427 N 0.29622 0.90849 0.07644 0.0
H2428 H 0.93692 0.59922 0.92949 0.0
H2429 H 0.04579 0.55891 0.98387 0.0
H2430 H 0.98679 0.57054 0.88791 0.0
H2431 H 0.99977 0.59215 0.02751 0.0
H2432 H 0.02519 0.56533 0.94868 0.0
H2433 H 0.9607 0.59957 0.96582 0.0
C2434 C 0.95301 0.59332 0.92802 0.0
C2435 C 0.95984 0.58464 0.90573 0.0
C2436 C 0.01961 0.57134 0.96594 0.0
C2437 C 0.9869 0.58479 0.94698 0.0
C2438 C 0.03135 0.5676 0.98608 0.0
C2439 C 0.0244 0.57484 1.00868 0.0
C2440 C 1.00062 0.58226 0.96831 0.0
C2441 C 1.00567 0.5862 1.01041 0.0
C2442 C 0.96652 0.59345 0.94872 0.0
C2443 C 0.98079 0.57719 0.90475 0.0
N2444 N 0.9943 0.58942 0.99044 0.0
N2445 N 0.99347 0.57726 0.92507 0.0
H2446 H 0.33872 0.24463 0.58565 0.0
H2447 H 0.27176 0.28975 0.69637 0.0
H2448 H 0.26654 0.24459 0.58161 0.0
H2449 H 0.34323 0.28619 0.70267 0.0
H2450 H 0.27074 0.27726 0.65351 0.0
H2451 H 0.34186 0.26392 0.62747 0.0
C2452 C 0.32359 0.24897 0.59346 0.0
C2453 C 0.30231 0.2429 0.58015 0.0
C2454 C 0.2867 0.27932 0.66421 0.0
C2455 C 0.30574 0.26478 0.62803 0.0
C2456 C 0.28732 0.28648 0.68877 0.0
C2457 C 0.30759 0.28887 0.70329 0.0
C2458 C 0.30647 0.27438 0.6539 0.0
C2459 C 0.32719 0.28449 0.69224 0.0
C2460 C 0.32538 0.25989 0.61737 0.0
C2461 C 0.28327 0.24887 0.59121 0.0
N2462 N 0.3261 0.27731 0.66824 0.0
N2463 N 0.28542 0.25933 0.6145 0.0
H2464 H 0.67267 0.56447 0.20529 0.0
H2465 H 0.57984 0.50557 0.09336 0.0
H2466 H 0.62139 0.50513 0.20957 0.0
H2467 H 0.60654 0.5793 0.10857 0.0
H2468 H 0.59844 0.50228 0.1319 0.0
H2469 H 0.65305 0.56744 0.1673 0.0
C2470 C 0.65736 0.55188 0.19834 0.0
C2471 C 0.64901 0.5345 0.2114 0.0
C2472 C 0.6003 0.51923 0.12689 0.0
C2473 C 0.6261 0.53759 0.16628 0.0
C2474 C 0.58962 0.52115 0.10459 0.0
C2475 C 0.59118 0.54284 0.09701 0.0
C2476 C 0.61359 0.53896 0.14213 0.0
C2477 C 0.6044 0.56215 0.1131 0.0
C2478 C 0.64601 0.55368 0.17641 0.0
C2479 C 0.62879 0.51894 0.20073 0.0
N2480 N 0.61507 0.55971 0.13429 0.0
N2481 N 0.61841 0.52069 0.17907 0.0
H2482 H 0.2904 0.90039 0.96216 0.0
H2483 H 0.34287 0.87152 0.83708 0.0
H2484 H 0.31992 0.95416 0.9253 0.0
H2485 H 0.29638 0.82162 0.86586 0.0
H2486 H 0.34047 0.90132 0.87213 0.0
H2487 H 0.29764 0.8709 0.92955 0.0
C2488 C 0.2984 0.90603 0.94716 0.0
C2489 C 0.30441 0.92984 0.94643 0.0
C2490 C 0.33106 0.88375 0.87087 0.0
C2491 C 0.31304 0.89593 0.90893 0.0
C2492 C 0.33266 0.86666 0.85104 0.0
C2493 C 0.31987 0.84399 0.84855 0.0
C2494 C 0.31678 0.87805 0.88845 0.0
C2495 C 0.30655 0.83883 0.867 0.0
C2496 C 0.30256 0.88913 0.92852 0.0
C2497 C 0.31483 0.93601 0.92652 0.0
N2498 N 0.30532 0.85569 0.88606 0.0
N2499 N 0.31886 0.91917 0.90856 0.0
H2500 H 0.94707 0.52121 0.78229 0.0
H2501 H 1.01538 0.57703 0.68396 0.0
H2502 H 0.96263 0.59519 0.78309 0.0
H2503 H 1.00736 0.50425 0.6885 0.0
H2504 H 0.99501 0.58385 0.7195 0.0
H2505 H 0.96818 0.51448 0.74727 0.0
C2506 C 0.95498 0.53604 0.7751 0.0
C2507 C 0.95311 0.55879 0.78557 0.0
C2508 C 0.99773 0.56639 0.71276 0.0
C2509 C 0.97722 0.55123 0.74548 0.0
C2510 C 1.00922 0.56246 0.69239 0.0
C2511 C 1.01298 0.54001 0.68321 0.0
C2512 C 0.98981 0.54773 0.72401 0.0
C2513 C 1.00498 0.52185 0.69508 0.0
C2514 C 0.96704 0.5322 0.75513 0.0
C2515 C 0.96368 0.57737 0.77555 0.0
N2516 N 0.99369 0.52609 0.71482 0.0
N2517 N 0.97524 0.57317 0.756 0.0
H2518 H 0.31294 0.25792 0.46699 0.0
H2519 H 0.30298 0.2257 0.32438 0.0
H2520 H 0.29539 0.18715 0.428 0.0
H2521 H 0.32094 0.29564 0.36554 0.0
H2522 H 0.30161 0.21061 0.36162 0.0
H2523 H 0.31728 0.27159 0.4295 0.0
C2524 C 0.31004 0.24525 0.45052 0.0
C2525 C 0.30373 0.22139 0.45063 0.0
C2526 C 0.30595 0.22925 0.36242 0.0
C2527 C 0.30863 0.23689 0.40747 0.0
C2528 C 0.30677 0.23785 0.34116 0.0
C2529 C 0.3119 0.26199 0.34175 0.0
C2530 C 0.31034 0.24491 0.38436 0.0
C2531 C 0.31671 0.27691 0.36407 0.0
C2532 C 0.31253 0.25305 0.42907 0.0
C2533 C 0.30025 0.20573 0.42872 0.0
N2534 N 0.31573 0.26815 0.38435 0.0
N2535 N 0.30267 0.21375 0.40801 0.0
H2536 H 0.37052 0.57628 0.5195 0.0
H2537 H 0.50738 0.61255 0.54258 0.0
H2538 H 0.40557 0.64276 0.55934 0.0
H2539 H 0.47267 0.54501 0.50467 0.0
H2540 H 0.4704 0.62432 0.54752 0.0
H2541 H 0.40755 0.5647 0.51316 0.0
C2542 C 0.38595 0.58841 0.52704 0.0
C2543 C 0.38477 0.61053 0.54008 0.0
C2544 C 0.47085 0.60696 0.53799 0.0
C2545 C 0.42751 0.59743 0.53266 0.0
C2546 C 0.49206 0.60023 0.53501 0.0
C2547 C 0.4934 0.57769 0.52306 0.0
C2548 C 0.45056 0.5911 0.52903 0.0
C2549 C 0.4727 0.56257 0.51393 0.0
C2550 C 0.40716 0.58181 0.52334 0.0
C2551 C 0.40551 0.62551 0.54925 0.0
N2552 N 0.45229 0.56949 0.51715 0.0
N2553 N 0.42586 0.61873 0.54536 0.0
H2554 H 0.9052 0.91164 0.53495 0.0
H2555 H 0.98395 0.03883 0.5675 0.0
H2556 H 0.88101 0.97265 0.56882 0.0
H2557 H 1.0036 0.97881 0.52535 0.0
H2558 H 0.94762 1.01434 0.57224 0.0
H2559 H 0.94279 0.93555 0.53513 0.0
C2560 C 0.90784 0.93007 0.54252 0.0
C2561 C 0.88994 0.94021 0.55177 0.0
C2562 C 0.95997 1.00656 0.56206 0.0
C2563 C 0.93298 0.96775 0.55206 0.0
C2564 C 0.98074 0.02049 0.55943 0.0
C2565 C 0.99679 1.01092 0.54582 0.0
C2566 C 0.95532 0.98288 0.55111 0.0
C2567 C 0.99169 0.98705 0.53578 0.0
C2568 C 0.92931 0.94374 0.54261 0.0
C2569 C 0.89434 0.96418 0.5614 0.0
N2570 N 0.97142 0.97392 0.53855 0.0
N2571 N 0.91542 0.97717 0.56124 0.0
H2572 H 0.86113 0.11663 0.27708 0.0
H2573 H 0.87773 0.25775 0.27831 0.0
H2574 H 0.92711 0.1598 0.27955 0.0
H2575 H 0.81336 0.2161 0.28658 0.0
H2576 H 0.89551 0.22292 0.27707 0.0
H2577 H 0.84364 0.15168 0.27878 0.0
C2578 C 0.87218 0.13332 0.27794 0.0
C2579 C 0.89613 0.13428 0.27816 0.0
C2580 C 0.87748 0.2212 0.27919 0.0
C2581 C 0.87531 0.17624 0.27999 0.0
C2582 C 0.86709 0.24147 0.27993 0.0
C2583 C 0.8435 0.24091 0.28274 0.0
C2584 C 0.86462 0.19911 0.28096 0.0
C2585 C 0.83142 0.21835 0.28454 0.0
C2586 C 0.86197 0.15371 0.27895 0.0
C2587 C 0.90876 0.1573 0.27934 0.0
N2588 N 0.84185 0.19899 0.28356 0.0
N2589 N 0.89843 0.17673 0.28009 0.0
H2590 H 0.7445 0.11498 1.01115 0.0
H2591 H 0.63691 0.05682 0.07209 0.0
H2592 H 0.75234 0.08583 0.07416 0.0
H2593 H 0.63272 0.09867 0.01826 0.0
H2594 H 0.6786 0.06391 0.07147 0.0
H2595 H 0.70326 0.10525 1.01145 0.0
C2596 C 0.73757 0.10629 0.02497 0.0
C2597 C 0.75208 0.10125 0.04266 0.0
C2598 C 0.66852 0.07155 0.05984 0.0
C2599 C 0.70432 0.09012 0.04323 0.0
C2600 C 0.64468 0.0675 0.06016 0.0
C2601 C 0.6311 0.07724 0.0453 0.0
C2602 C 0.67896 0.08522 0.04433 0.0
C2603 C 0.6423 0.0909 0.0302 0.0
C2604 C 0.7139 0.10084 0.0252 0.0
C2605 C 0.74189 0.09001 0.06011 0.0
N2606 N 0.6654 0.09438 0.03008 0.0
N2607 N 0.71868 0.08487 0.05999 0.0
H2608 H 0.28552 0.54214 0.26935 0.0
H2609 H 0.30021 0.4463 0.34789 0.0
H2610 H 0.23841 0.52161 0.31944 0.0
H2611 H 0.33986 0.45792 0.28911 0.0
H2612 H 0.28194 0.47904 0.34274 0.0
H2613 H 0.30953 0.51593 0.28091 0.0
C2614 C 0.28027 0.53214 0.28284 0.0
C2615 C 0.25986 0.5338 0.2933 0.0
C2616 C 0.29483 0.4746 0.33115 0.0
C2617 C 0.28726 0.50395 0.30667 0.0
C2618 C 0.30543 0.45607 0.33423 0.0
C2619 C 0.32142 0.44932 0.31876 0.0
C2620 C 0.3003 0.48642 0.31249 0.0
C2621 C 0.32735 0.46239 0.30117 0.0
C2622 C 0.294 0.51723 0.28945 0.0
C2623 C 0.25393 0.52064 0.31079 0.0
N2624 N 0.31664 0.48022 0.29838 0.0
N2625 N 0.26755 0.50616 0.31687 0.0
H2626 H 0.24903 0.40515 0.05741 0.0
H2627 H 0.21355 0.52483 0.03704 0.0
H2628 H 0.29676 0.46538 0.04727 0.0
H2629 H 0.16512 0.46485 0.04658 0.0
H2630 H 0.24432 0.50351 0.04188 0.0
H2631 H 0.21811 0.42703 0.05501 0.0
C2632 C 0.253 0.42302 0.05481 0.0
C2633 C 0.27546 0.43347 0.05247 0.0
C2634 C 0.22698 0.49499 0.04295 0.0
C2635 C 0.24025 0.45853 0.04962 0.0
C2636 C 0.20937 0.50711 0.04004 0.0
C2637 C 0.18669 0.49657 0.04127 0.0
C2638 C 0.22193 0.47209 0.0471 0.0
C2639 C 0.18236 0.47373 0.04568 0.0
C2640 C 0.23536 0.43548 0.0534 0.0
C2641 C 0.27968 0.45664 0.04912 0.0
N2642 N 0.19981 0.46222 0.04836 0.0
N2643 N 0.26224 0.46835 0.04772 0.0
H2644 H 0.92412 0.98423 0.27804 0.0
H2645 H 0.80622 0.889 0.27001 0.0
H2646 H 0.8581 1.00237 0.26893 0.0
H2647 H 0.87277 0.87301 0.28245 0.0
H2648 H 0.8242 0.92951 0.26886 0.0
H2649 H 0.90562 0.94398 0.27894 0.0
C2650 C 0.90569 0.97993 0.27616 0.0
C2651 C 0.89301 0.9975 0.27335 0.0
C2652 C 0.83497 0.91723 0.27184 0.0
C2653 C 0.87103 0.94991 0.2744 0.0
C2654 C 0.82461 0.89377 0.27249 0.0
C2655 C 0.83764 0.87673 0.27636 0.0
C2656 C 0.85893 0.92451 0.27499 0.0
C2657 C 0.86158 0.8849 0.27943 0.0
C2658 C 0.89502 0.95662 0.27672 0.0
C2659 C 0.86899 0.98998 0.27111 0.0
N2660 N 0.87119 0.90771 0.27865 0.0
N2661 N 0.85901 0.96718 0.27165 0.0
H2662 H 0.78103 0.12606 0.72527 0.0
H2663 H 0.82028 0.24599 0.81202 0.0
H2664 H 0.80011 0.13305 0.80018 0.0
H2665 H 0.81645 0.24008 0.73596 0.0
H2666 H 0.8187 0.2041 0.80717 0.0
H2667 H 0.79994 0.16648 0.72726 0.0
C2668 C 0.78969 0.13594 0.742 0.0
C2669 C 0.78853 0.12651 0.76275 0.0
C2670 C 0.81852 0.21186 0.79146 0.0
C2671 C 0.80986 0.17258 0.7652 0.0
C2672 C 0.81923 0.23572 0.79427 0.0
C2673 C 0.81795 0.24609 0.77433 0.0
C2674 C 0.8159 0.19825 0.76846 0.0
C2675 C 0.81721 0.23241 0.75169 0.0
C2676 C 0.80046 0.159 0.74313 0.0
C2677 C 0.80018 0.13988 0.78389 0.0
N2678 N 0.81568 0.20895 0.7493 0.0
N2679 N 0.81 0.1624 0.78467 0.0
loop_
_geom_bond_atom_site_label_1
_geom_bond_atom_site_label_2
_geom_bond_distance
_geom_bond_site_symmetry_2
_ccdc_geom_bond_type
In0 O1 2.294 . S
In0 O2 2.326 . S
In0 O6 2.266 . S
In0 O7 2.326 . S
In0 O8 2.266 . S
In0 O9 2.326 . S
In0 O11 2.294 . S
In0 O12 2.326 . S
O1 In0 2.294 . S
O1 C10 1.240 . S
O2 In0 2.326 . S
O2 C10 1.252 . S
C3 O6 1.252 . S
C3 O7 1.260 . S
C4 O11 1.240 . S
C4 O12 1.252 . S
C5 O8 1.252 . S
C5 O9 1.260 . S
O6 In0 2.266 . S
O6 C3 1.252 . S
O7 In0 2.326 . S
O7 C3 1.260 . S
O8 In0 2.266 . S
O8 C5 1.252 . S
O9 In0 2.326 . S
O9 C5 1.260 . S
C10 O1 1.240 . S
C10 O2 1.252 . S
O11 In0 2.294 . S
O11 C4 1.240 . S
O12 In0 2.326 . S
O12 C4 1.252 . S
In13 O14 2.294 . S
In13 O15 2.326 . S
In13 O19 2.266 1_455 S
In13 O20 2.326 1_455 S
In13 O21 2.264 1_455 S
In13 O22 2.322 1_455 S
In13 O24 2.296 . S
In13 O25 2.330 . S
O14 In13 2.294 . S
O14 C23 1.240 . S
O15 In13 2.326 . S
O15 C23 1.252 . S
C16 O19 1.252 . S
C16 O20 1.260 . S
C17 O24 1.240 . S
C17 O25 1.252 . S
C18 O21 1.252 . S
C18 O22 1.260 . S
O19 In13 2.266 1_655 S
O19 C16 1.252 . S
O20 In13 2.326 1_655 S
O20 C16 1.260 . S
O21 In13 2.264 1_655 S
O21 C18 1.252 . S
O22 In13 2.322 1_655 S
O22 C18 1.260 . S
C23 O14 1.240 . S
C23 O15 1.252 . S
O24 In13 2.296 . S
O24 C17 1.240 . S
O25 In13 2.330 . S
O25 C17 1.252 . S
In26 O27 2.294 . S
In26 O28 2.326 . S
In26 O32 2.266 . S
In26 O33 2.326 . S
In26 O34 2.266 . S
In26 O35 2.326 . S
In26 O37 2.294 . S
In26 O38 2.326 . S
O27 In26 2.294 . S
O27 C36 1.240 . S
O28 In26 2.326 . S
O28 C36 1.252 . S
C29 O32 1.252 . S
C29 O33 1.260 . S
C30 O37 1.240 . S
C30 O38 1.252 . S
C31 O34 1.252 . S
C31 O35 1.260 . S
O32 In26 2.266 . S
O32 C29 1.252 . S
O33 In26 2.326 . S
O33 C29 1.260 . S
O34 In26 2.266 . S
O34 C31 1.252 . S
O35 In26 2.326 . S
O35 C31 1.260 . S
C36 O27 1.240 . S
C36 O28 1.252 . S
O37 In26 2.294 . S
O37 C30 1.240 . S
O38 In26 2.326 . S
O38 C30 1.252 . S
In39 O40 2.294 . S
In39 O41 2.326 . S
In39 O45 2.266 . S
In39 O46 2.326 . S
In39 O47 2.266 . S
In39 O48 2.326 . S
In39 O50 2.294 . S
In39 O51 2.326 . S
O40 In39 2.294 . S
O40 C49 1.240 . S
O41 In39 2.326 . S
O41 C49 1.252 . S
C42 O45 1.252 . S
C42 O46 1.260 . S
C43 O50 1.240 . S
C43 O51 1.252 . S
C44 O47 1.252 . S
C44 O48 1.260 . S
O45 In39 2.266 . S
O45 C42 1.252 . S
O46 In39 2.326 . S
O46 C42 1.260 . S
O47 In39 2.266 . S
O47 C44 1.252 . S
O48 In39 2.326 . S
O48 C44 1.260 . S
C49 O40 1.240 . S
C49 O41 1.252 . S
O50 In39 2.294 . S
O50 C43 1.240 . S
O51 In39 2.326 . S
O51 C43 1.252 . S
In52 O53 2.294 . S
In52 O54 2.326 . S
In52 O58 2.266 . S
In52 O59 2.326 . S
In52 O60 2.266 . S
In52 O61 2.326 . S
In52 O63 2.294 . S
In52 O64 2.326 . S
O53 In52 2.294 . S
O53 C62 1.240 . S
O54 In52 2.326 . S
O54 C62 1.252 . S
C55 O58 1.252 . S
C55 O59 1.260 . S
C56 O63 1.240 . S
C56 O64 1.252 . S
C57 O60 1.252 . S
C57 O61 1.260 . S
O58 In52 2.266 . S
O58 C55 1.252 . S
O59 In52 2.326 . S
O59 C55 1.260 . S
O60 In52 2.266 . S
O60 C57 1.252 . S
O61 In52 2.326 . S
O61 C57 1.260 . S
C62 O53 1.240 . S
C62 O54 1.252 . S
O63 In52 2.294 . S
O63 C56 1.240 . S
O64 In52 2.326 . S
O64 C56 1.252 . S
In65 O66 2.294 . S
In65 O67 2.326 . S
In65 O71 2.266 . S
In65 O72 2.326 . S
In65 O73 2.266 . S
In65 O74 2.326 . S
In65 O76 2.294 . S
In65 O77 2.326 . S
O66 In65 2.294 . S
O66 C75 1.240 . S
O67 In65 2.326 . S
O67 C75 1.252 . S
C68 O71 1.252 . S
C68 O72 1.260 . S
C69 O76 1.240 . S
C69 O77 1.252 . S
C70 O73 1.252 . S
C70 O74 1.260 . S
O71 In65 2.266 . S
O71 C68 1.252 . S
O72 In65 2.326 . S
O72 C68 1.260 . S
O73 In65 2.266 . S
O73 C70 1.252 . S
O74 In65 2.326 . S
O74 C70 1.260 . S
C75 O66 1.240 . S
C75 O67 1.252 . S
O76 In65 2.294 . S
O76 C69 1.240 . S
O77 In65 2.326 . S
O77 C69 1.252 . S
In78 O79 2.294 . S
In78 O80 2.326 . S
In78 O84 2.266 . S
In78 O85 2.326 . S
In78 O86 2.266 . S
In78 O87 2.326 . S
In78 O89 2.294 . S
In78 O90 2.326 . S
O79 In78 2.294 . S
O79 C88 1.240 . S
O80 In78 2.326 . S
O80 C88 1.252 . S
C81 O84 1.252 . S
C81 O85 1.260 . S
C82 O89 1.240 . S
C82 O90 1.252 . S
C83 O86 1.252 . S
C83 O87 1.260 . S
O84 In78 2.266 . S
O84 C81 1.252 . S
O85 In78 2.326 . S
O85 C81 1.260 . S
O86 In78 2.266 . S
O86 C83 1.252 . S
O87 In78 2.326 . S
O87 C83 1.260 . S
C88 O79 1.240 . S
C88 O80 1.252 . S
O89 In78 2.294 . S
O89 C82 1.240 . S
O90 In78 2.326 . S
O90 C82 1.252 . S
In91 O92 2.294 . S
In91 O93 2.326 . S
In91 O97 2.266 . S
In91 O98 2.326 . S
In91 O99 2.266 1_455 S
In91 O100 2.326 1_455 S
In91 O102 2.294 . S
In91 O103 2.326 . S
O92 In91 2.294 . S
O92 C101 1.240 . S
O93 In91 2.326 . S
O93 C101 1.252 . S
C94 O97 1.252 . S
C94 O98 1.260 . S
C95 O102 1.240 . S
C95 O103 1.252 . S
C96 O99 1.252 . S
C96 O100 1.260 . S
O97 In91 2.266 . S
O97 C94 1.252 . S
O98 In91 2.326 . S
O98 C94 1.260 . S
O99 In91 2.266 1_655 S
O99 C96 1.252 . S
O100 In91 2.326 1_655 S
O100 C96 1.260 . S
C101 O92 1.240 . S
C101 O93 1.252 . S
O102 In91 2.294 . S
O102 C95 1.240 . S
O103 In91 2.326 . S
O103 C95 1.252 . S
In104 O105 2.294 . S
In104 O106 2.326 . S
In104 O110 2.266 . S
In104 O111 2.326 . S
In104 O112 2.266 1_545 S
In104 O113 2.326 1_545 S
In104 O115 2.294 . S
In104 O116 2.326 . S
O105 In104 2.294 . S
O105 C114 1.240 . S
O106 In104 2.326 . S
O106 C114 1.252 . S
C107 O110 1.252 . S
C107 O111 1.260 . S
C108 O115 1.240 . S
C108 O116 1.252 . S
C109 O112 1.252 . S
C109 O113 1.260 . S
O110 In104 2.266 . S
O110 C107 1.252 . S
O111 In104 2.326 . S
O111 C107 1.260 . S
O112 In104 2.266 1_565 S
O112 C109 1.252 . S
O113 In104 2.326 1_565 S
O113 C109 1.260 . S
C114 O105 1.240 . S
C114 O106 1.252 . S
O115 In104 2.294 . S
O115 C108 1.240 . S
O116 In104 2.326 . S
O116 C108 1.252 . S
In117 O118 2.294 . S
In117 O119 2.326 . S
In117 O123 2.266 . S
In117 O124 2.326 . S
In117 O125 2.266 . S
In117 O126 2.326 . S
In117 O128 2.294 . S
In117 O129 2.326 . S
O118 In117 2.294 . S
O118 C127 1.240 . S
O119 In117 2.326 . S
O119 C127 1.252 . S
C120 O123 1.252 . S
C120 O124 1.260 . S
C121 O128 1.240 . S
C121 O129 1.252 . S
C122 O125 1.252 . S
C122 O126 1.260 . S
O123 In117 2.266 . S
O123 C120 1.252 . S
O124 In117 2.326 . S
O124 C120 1.260 . S
O125 In117 2.266 . S
O125 C122 1.252 . S
O126 In117 2.326 . S
O126 C122 1.260 . S
C127 O118 1.240 . S
C127 O119 1.252 . S
O128 In117 2.294 . S
O128 C121 1.240 . S
O129 In117 2.326 . S
O129 C121 1.252 . S
In130 O131 2.294 . S
In130 O132 2.326 . S
In130 O136 2.266 . S
In130 O137 2.326 . S
In130 O138 2.266 . S
In130 O139 2.326 . S
In130 O141 2.294 1_545 S
In130 O142 2.326 1_545 S
O131 In130 2.294 . S
O131 C140 1.240 . S
O132 In130 2.326 . S
O132 C140 1.252 . S
C133 O136 1.252 . S
C133 O137 1.260 . S
C134 O141 1.240 . S
C134 O142 1.252 . S
C135 O138 1.252 . S
C135 O139 1.260 . S
O136 In130 2.266 . S
O136 C133 1.252 . S
O137 In130 2.326 . S
O137 C133 1.260 . S
O138 In130 2.266 . S
O138 C135 1.252 . S
O139 In130 2.326 . S
O139 C135 1.260 . S
C140 O131 1.240 . S
C140 O132 1.252 . S
O141 In130 2.294 1_565 S
O141 C134 1.240 . S
O142 In130 2.326 1_565 S
O142 C134 1.252 . S
In143 O144 2.294 . S
In143 O145 2.326 . S
In143 O149 2.266 1_554 S
In143 O150 2.326 1_554 S
In143 O151 2.266 . S
In143 O152 2.326 . S
In143 O154 2.294 . S
In143 O155 2.326 . S
O144 In143 2.294 . S
O144 C153 1.240 . S
O145 In143 2.326 . S
O145 C153 1.252 . S
C146 O149 1.252 . S
C146 O150 1.260 . S
C147 O154 1.240 . S
C147 O155 1.252 . S
C148 O151 1.252 . S
C148 O152 1.260 . S
O149 In143 2.266 1_556 S
O149 C146 1.252 . S
O150 In143 2.326 1_556 S
O150 C146 1.260 . S
O151 In143 2.266 . S
O151 C148 1.252 . S
O152 In143 2.326 . S
O152 C148 1.260 . S
C153 O144 1.240 . S
C153 O145 1.252 . S
O154 In143 2.294 . S
O154 C147 1.240 . S
O155 In143 2.326 . S
O155 C147 1.252 . S
In156 O157 2.294 . S
In156 O158 2.326 . S
In156 O162 2.266 1_554 S
In156 O163 2.326 1_554 S
In156 O164 2.266 . S
In156 O165 2.326 . S
In156 O167 2.294 . S
In156 O168 2.326 . S
O157 In156 2.294 . S
O157 C166 1.240 . S
O158 In156 2.326 . S
O158 C166 1.252 . S
C159 O162 1.252 . S
C159 O163 1.260 . S
C160 O167 1.240 . S
C160 O168 1.252 . S
C161 O164 1.252 . S
C161 O165 1.260 . S
O162 In156 2.266 1_556 S
O162 C159 1.252 . S
O163 In156 2.326 1_556 S
O163 C159 1.260 . S
O164 In156 2.266 . S
O164 C161 1.252 . S
O165 In156 2.326 . S
O165 C161 1.260 . S
C166 O157 1.240 . S
C166 O158 1.252 . S
O167 In156 2.294 . S
O167 C160 1.240 . S
O168 In156 2.326 . S
O168 C160 1.252 . S
In169 O170 2.294 . S
In169 O171 2.326 . S
In169 O175 2.266 . S
In169 O176 2.326 . S
In169 O177 2.266 . S
In169 O178 2.326 1_554 S
In169 O180 2.294 . S
In169 O181 2.326 . S
O170 In169 2.294 . S
O170 C179 1.240 . S
O171 In169 2.326 . S
O171 C179 1.252 . S
C172 O175 1.252 . S
C172 O176 1.260 . S
C173 O180 1.240 . S
C173 O181 1.252 . S
C174 O177 1.252 1_556 S
C174 O178 1.260 . S
O175 In169 2.266 . S
O175 C172 1.252 . S
O176 In169 2.326 . S
O176 C172 1.260 . S
O177 In169 2.266 . S
O177 C174 1.252 1_554 S
O178 In169 2.326 1_556 S
O178 C174 1.260 . S
C179 O170 1.240 . S
C179 O171 1.252 . S
O180 In169 2.294 . S
O180 C173 1.240 . S
O181 In169 2.326 . S
O181 C173 1.252 . S
In182 O183 2.294 . S
In182 O184 2.326 . S
In182 O188 2.266 . S
In182 O189 2.326 . S
In182 O190 2.266 . S
In182 O191 2.326 . S
In182 O193 2.294 . S
In182 O194 2.326 . S
O183 In182 2.294 . S
O183 C192 1.240 . S
O184 In182 2.326 . S
O184 C192 1.252 . S
C185 O188 1.252 . S
C185 O189 1.260 . S
C186 O193 1.240 . S
C186 O194 1.252 . S
C187 O190 1.252 . S
C187 O191 1.260 . S
O188 In182 2.266 . S
O188 C185 1.252 . S
O189 In182 2.326 . S
O189 C185 1.260 . S
O190 In182 2.266 . S
O190 C187 1.252 . S
O191 In182 2.326 . S
O191 C187 1.260 . S
C192 O183 1.240 . S
C192 O184 1.252 . S
O193 In182 2.294 . S
O193 C186 1.240 . S
O194 In182 2.326 . S
O194 C186 1.252 . S
In195 O196 2.294 . S
In195 O197 2.326 . S
In195 O201 2.266 . S
In195 O202 2.326 . S
In195 O203 2.266 . S
In195 O204 2.326 . S
In195 O206 2.294 . S
In195 O207 2.326 . S
O196 In195 2.294 . S
O196 C205 1.240 . S
O197 In195 2.326 . S
O197 C205 1.252 . S
C198 O201 1.252 . S
C198 O202 1.260 . S
C199 O206 1.240 . S
C199 O207 1.252 . S
C200 O203 1.252 . S
C200 O204 1.260 . S
O201 In195 2.266 . S
O201 C198 1.252 . S
O202 In195 2.326 . S
O202 C198 1.260 . S
O203 In195 2.266 . S
O203 C200 1.252 . S
O204 In195 2.326 . S
O204 C200 1.260 . S
C205 O196 1.240 . S
C205 O197 1.252 . S
O206 In195 2.294 . S
O206 C199 1.240 . S
O207 In195 2.326 . S
O207 C199 1.252 . S
In208 O209 2.294 . S
In208 O210 2.326 . S
In208 O214 2.266 . S
In208 O215 2.326 . S
In208 O216 2.266 . S
In208 O217 2.326 . S
In208 O219 2.294 . S
In208 O220 2.326 . S
O209 In208 2.294 . S
O209 C218 1.240 . S
O210 In208 2.326 . S
O210 C218 1.252 . S
C211 O214 1.252 . S
C211 O215 1.260 . S
C212 O219 1.240 . S
C212 O220 1.252 . S
C213 O216 1.252 . S
C213 O217 1.260 . S
O214 In208 2.266 . S
O214 C211 1.252 . S
O215 In208 2.326 . S
O215 C211 1.260 . S
O216 In208 2.266 . S
O216 C213 1.252 . S
O217 In208 2.326 . S
O217 C213 1.260 . S
C218 O209 1.240 . S
C218 O210 1.252 . S
O219 In208 2.294 . S
O219 C212 1.240 . S
O220 In208 2.326 . S
O220 C212 1.252 . S
In221 O222 2.294 . S
In221 O223 2.326 . S
In221 O227 2.266 . S
In221 O228 2.326 . S
In221 O229 2.266 . S
In221 O230 2.326 . S
In221 O232 2.294 . S
In221 O233 2.326 . S
O222 In221 2.294 . S
O222 C231 1.240 . S
O223 In221 2.326 . S
O223 C231 1.252 . S
C224 O227 1.252 . S
C224 O228 1.260 . S
C225 O232 1.240 . S
C225 O233 1.252 . S
C226 O229 1.252 . S
C226 O230 1.260 . S
O227 In221 2.266 . S
O227 C224 1.252 . S
O228 In221 2.326 . S
O228 C224 1.260 . S
O229 In221 2.266 . S
O229 C226 1.252 . S
O230 In221 2.326 . S
O230 C226 1.260 . S
C231 O222 1.240 . S
C231 O223 1.252 . S
O232 In221 2.294 . S
O232 C225 1.240 . S
O233 In221 2.326 . S
O233 C225 1.252 . S
In234 O235 2.294 . S
In234 O236 2.326 . S
In234 O240 2.266 . S
In234 O241 2.326 . S
In234 O242 2.266 . S
In234 O243 2.326 . S
In234 O245 2.294 . S
In234 O246 2.326 . S
O235 In234 2.294 . S
O235 C244 1.240 . S
O236 In234 2.326 . S
O236 C244 1.252 . S
C237 O240 1.252 . S
C237 O241 1.260 . S
C238 O245 1.240 . S
C238 O246 1.252 . S
C239 O242 1.252 . S
C239 O243 1.260 . S
O240 In234 2.266 . S
O240 C237 1.252 . S
O241 In234 2.326 . S
O241 C237 1.260 . S
O242 In234 2.266 . S
O242 C239 1.252 . S
O243 In234 2.326 . S
O243 C239 1.260 . S
C244 O235 1.240 . S
C244 O236 1.252 . S
O245 In234 2.294 . S
O245 C238 1.240 . S
O246 In234 2.326 . S
O246 C238 1.252 . S
In247 O248 2.294 . S
In247 O249 2.326 . S
In247 O253 2.266 . S
In247 O254 2.326 . S
In247 O255 2.266 . S
In247 O256 2.326 . S
In247 O258 2.294 . S
In247 O259 2.326 . S
O248 In247 2.294 . S
O248 C257 1.240 . S
O249 In247 2.326 . S
O249 C257 1.252 . S
C250 O253 1.252 . S
C250 O254 1.260 . S
C251 O258 1.240 . S
C251 O259 1.252 . S
C252 O255 1.252 . S
C252 O256 1.260 . S
O253 In247 2.266 . S
O253 C250 1.252 . S
O254 In247 2.326 . S
O254 C250 1.260 . S
O255 In247 2.266 . S
O255 C252 1.252 . S
O256 In247 2.326 . S
O256 C252 1.260 . S
C257 O248 1.240 . S
C257 O249 1.252 . S
O258 In247 2.294 . S
O258 C251 1.240 . S
O259 In247 2.326 . S
O259 C251 1.252 . S
In260 O261 2.294 . S
In260 O262 2.326 . S
In260 O266 2.266 . S
In260 O267 2.326 . S
In260 O268 2.266 1_554 S
In260 O269 2.326 1_554 S
In260 O271 2.294 . S
In260 O272 2.326 . S
O261 In260 2.294 . S
O261 C270 1.240 . S
O262 In260 2.326 . S
O262 C270 1.252 . S
C263 O266 1.252 . S
C263 O267 1.260 . S
C264 O271 1.240 . S
C264 O272 1.252 . S
C265 O268 1.252 . S
C265 O269 1.260 . S
O266 In260 2.266 . S
O266 C263 1.252 . S
O267 In260 2.326 . S
O267 C263 1.260 . S
O268 In260 2.266 1_556 S
O268 C265 1.252 . S
O269 In260 2.326 1_556 S
O269 C265 1.260 . S
C270 O261 1.240 . S
C270 O262 1.252 . S
O271 In260 2.294 . S
O271 C264 1.240 . S
O272 In260 2.326 . S
O272 C264 1.252 . S
In273 O274 2.294 . S
In273 O275 2.326 . S
In273 O279 2.266 . S
In273 O280 2.326 . S
In273 O281 2.266 . S
In273 O282 2.326 . S
In273 O284 2.294 . S
In273 O285 2.326 . S
O274 In273 2.294 . S
O274 C283 1.240 . S
O275 In273 2.326 . S
O275 C283 1.252 . S
C276 O279 1.252 . S
C276 O280 1.260 . S
C277 O284 1.240 . S
C277 O285 1.252 . S
C278 O281 1.252 . S
C278 O282 1.260 . S
O279 In273 2.266 . S
O279 C276 1.252 . S
O280 In273 2.326 . S
O280 C276 1.260 . S
O281 In273 2.266 . S
O281 C278 1.252 . S
O282 In273 2.326 . S
O282 C278 1.260 . S
C283 O274 1.240 . S
C283 O275 1.252 . S
O284 In273 2.294 . S
O284 C277 1.240 . S
O285 In273 2.326 . S
O285 C277 1.252 . S
In286 O287 2.294 . S
In286 O288 2.326 . S
In286 O292 2.266 . S
In286 O293 2.326 . S
In286 O294 2.266 . S
In286 O295 2.326 . S
In286 O297 2.294 . S
In286 O298 2.326 . S
O287 In286 2.294 . S
O287 C296 1.240 . S
O288 In286 2.326 . S
O288 C296 1.252 . S
C289 O292 1.252 . S
C289 O293 1.260 . S
C290 O297 1.240 . S
C290 O298 1.252 . S
C291 O294 1.252 . S
C291 O295 1.260 . S
O292 In286 2.266 . S
O292 C289 1.252 . S
O293 In286 2.326 . S
O293 C289 1.260 . S
O294 In286 2.266 . S
O294 C291 1.252 . S
O295 In286 2.326 . S
O295 C291 1.260 . S
C296 O287 1.240 . S
C296 O288 1.252 . S
O297 In286 2.294 . S
O297 C290 1.240 . S
O298 In286 2.326 . S
O298 C290 1.252 . S
In299 O300 2.294 . S
In299 O301 2.326 . S
In299 O305 2.266 . S
In299 O306 2.326 . S
In299 O307 2.266 . S
In299 O308 2.326 . S
In299 O310 2.294 . S
In299 O311 2.326 . S
O300 In299 2.294 . S
O300 C309 1.240 . S
O301 In299 2.326 . S
O301 C309 1.252 . S
C302 O305 1.252 . S
C302 O306 1.260 . S
C303 O310 1.240 . S
C303 O311 1.252 . S
C304 O307 1.252 . S
C304 O308 1.260 . S
O305 In299 2.266 . S
O305 C302 1.252 . S
O306 In299 2.326 . S
O306 C302 1.260 . S
O307 In299 2.266 . S
O307 C304 1.252 . S
O308 In299 2.326 . S
O308 C304 1.260 . S
C309 O300 1.240 . S
C309 O301 1.252 . S
O310 In299 2.294 . S
O310 C303 1.240 . S
O311 In299 2.326 . S
O311 C303 1.252 . S
Eu312 C321 2.828 . S
Eu312 O323 2.392 . S
Eu312 O325 2.418 . S
Eu312 O330 2.373 . S
Eu312 O333 2.488 . S
Eu312 O334 2.471 . S
Eu312 O335 2.349 . S
Eu313 O322 2.373 . S
Eu313 O326 2.488 1_545 S
Eu313 O327 2.471 1_545 S
Eu313 O328 2.349 . S
Eu313 O331 2.392 . S
Eu313 O332 2.418 1_554 S
Eu313 C342 2.828 1_545 S
C314 O332 1.244 . S
C314 O335 1.265 1_556 S
C315 C316 1.379 1_554 S
C315 C319 1.373 . S
C315 C321 1.505 . S
C316 C315 1.379 1_556 S
C316 C318 1.369 . S
C316 H344 0.930 . S
C317 C319 1.383 . S
C317 C320 1.382 . S
C317 H345 0.930 . S
C318 C316 1.369 . S
C318 C320 1.392 1_556 S
C318 H346 0.930 . S
C319 C315 1.373 . S
C319 C317 1.383 . S
C319 H347 0.931 . S
C320 C317 1.382 . S
C320 C318 1.392 1_554 S
C321 Eu312 2.828 . S
C321 C315 1.505 . S
C321 O333 1.249 . S
C321 O334 1.244 . S
O322 Eu313 2.373 . S
O322 C324 1.258 . S
O323 Eu312 2.392 . S
O323 C324 1.242 . S
C324 O322 1.258 . S
C324 O323 1.242 . S
O325 Eu312 2.418 . S
O325 C329 1.244 . S
O326 Eu313 2.488 1_565 S
O326 C342 1.249 . S
O327 Eu313 2.471 1_565 S
O327 C342 1.244 . S
O328 Eu313 2.349 . S
O328 C329 1.265 . S
C329 O325 1.244 . S
C329 O328 1.265 . S
O330 Eu312 2.373 . S
O330 C343 1.258 . S
O331 Eu313 2.392 . S
O331 C343 1.242 . S
O332 Eu313 2.418 1_556 S
O332 C314 1.244 . S
O333 Eu312 2.488 . S
O333 C321 1.249 . S
O334 Eu312 2.471 . S
O334 C321 1.244 . S
O335 Eu312 2.349 . S
O335 C314 1.265 1_554 S
C336 C337 1.379 . S
C336 C340 1.373 . S
C336 C342 1.505 . S
C337 C336 1.379 . S
C337 C339 1.369 . S
C337 H348 0.930 . S
C338 C340 1.383 . S
C338 C341 1.382 . S
C338 H349 0.930 . S
C339 C337 1.369 . S
C339 C341 1.392 . S
C339 H350 0.930 . S
C340 C336 1.373 . S
C340 C338 1.383 . S
C340 H351 0.931 . S
C341 C338 1.382 . S
C341 C339 1.392 . S
C342 Eu313 2.828 1_565 S
C342 O326 1.249 . S
C342 O327 1.244 . S
C342 C336 1.505 . S
C343 O330 1.258 . S
C343 O331 1.242 . S
H344 C316 0.930 . S
H345 C317 0.930 . S
H346 C318 0.930 . S
H347 C319 0.931 . S
H348 C337 0.930 . S
H349 C338 0.930 . S
H350 C339 0.930 . S
H351 C340 0.931 . S
Eu352 C361 2.828 . S
Eu352 O363 2.392 . S
Eu352 O365 2.418 . S
Eu352 O370 2.373 . S
Eu352 O373 2.488 . S
Eu352 O374 2.471 . S
Eu352 O375 2.349 . S
Eu353 O362 2.373 . S
Eu353 O366 2.488 . S
Eu353 O367 2.471 . S
Eu353 O368 2.349 . S
Eu353 O371 2.392 . S
Eu353 O372 2.418 . S
Eu353 C382 2.828 . S
C354 O372 1.244 . S
C354 O375 1.265 . S
C355 C356 1.379 . S
C355 C359 1.373 . S
C355 C361 1.505 . S
C356 C355 1.379 . S
C356 C358 1.369 . S
C356 H384 0.930 . S
C357 C359 1.383 . S
C357 C360 1.382 . S
C357 H385 0.930 . S
C358 C356 1.369 . S
C358 C360 1.392 . S
C358 H386 0.930 . S
C359 C355 1.373 . S
C359 C357 1.383 . S
C359 H387 0.931 . S
C360 C357 1.382 . S
C360 C358 1.392 . S
C361 Eu352 2.828 . S
C361 C355 1.505 . S
C361 O373 1.249 . S
C361 O374 1.244 . S
O362 Eu353 2.373 . S
O362 C364 1.258 . S
O363 Eu352 2.392 . S
O363 C364 1.242 . S
C364 O362 1.258 . S
C364 O363 1.242 . S
O365 Eu352 2.418 . S
O365 C369 1.244 . S
O366 Eu353 2.488 . S
O366 C382 1.249 . S
O367 Eu353 2.471 . S
O367 C382 1.244 . S
O368 Eu353 2.349 . S
O368 C369 1.265 . S
C369 O365 1.244 . S
C369 O368 1.265 . S
O370 Eu352 2.373 . S
O370 C383 1.258 . S
O371 Eu353 2.392 . S
O371 C383 1.242 . S
O372 Eu353 2.418 . S
O372 C354 1.244 . S
O373 Eu352 2.488 . S
O373 C361 1.249 . S
O374 Eu352 2.471 . S
O374 C361 1.244 . S
O375 Eu352 2.349 . S
O375 C354 1.265 . S
C376 C377 1.379 . S
C376 C380 1.373 . S
C376 C382 1.505 . S
C377 C376 1.379 . S
C377 C379 1.369 . S
C377 H388 0.930 . S
C378 C380 1.383 . S
C378 C381 1.382 . S
C378 H389 0.930 . S
C379 C377 1.369 . S
C379 C381 1.392 . S
C379 H390 0.930 . S
C380 C376 1.373 . S
C380 C378 1.383 . S
C380 H391 0.931 . S
C381 C378 1.382 . S
C381 C379 1.392 . S
C382 Eu353 2.828 . S
C382 O366 1.249 . S
C382 O367 1.244 . S
C382 C376 1.505 . S
C383 O370 1.258 . S
C383 O371 1.242 . S
H384 C356 0.930 . S
H385 C357 0.930 . S
H386 C358 0.930 . S
H387 C359 0.931 . S
H388 C377 0.930 . S
H389 C378 0.930 . S
H390 C379 0.930 . S
H391 C380 0.931 . S
Eu392 C401 2.828 . S
Eu392 O403 2.392 . S
Eu392 O405 2.418 . S
Eu392 O410 2.373 1_545 S
Eu392 O413 2.488 . S
Eu392 O414 2.471 . S
Eu392 O415 2.349 . S
Eu393 O402 2.373 . S
Eu393 O406 2.488 . S
Eu393 O407 2.471 . S
Eu393 O408 2.349 . S
Eu393 O411 2.392 1_545 S
Eu393 O412 2.418 . S
Eu393 C422 2.828 . S
C394 O412 1.244 . S
C394 O415 1.265 . S
C395 C396 1.379 . S
C395 C399 1.373 . S
C395 C401 1.505 1_565 S
C396 C395 1.379 . S
C396 C398 1.369 . S
C396 H424 0.930 . S
C397 C399 1.383 . S
C397 C400 1.382 . S
C397 H425 0.930 . S
C398 C396 1.369 . S
C398 C400 1.392 . S
C398 H426 0.930 . S
C399 C395 1.373 . S
C399 C397 1.383 . S
C399 H427 0.931 . S
C400 C397 1.382 . S
C400 C398 1.392 . S
C401 Eu392 2.828 . S
C401 C395 1.505 1_545 S
C401 O413 1.249 . S
C401 O414 1.244 . S
O402 Eu393 2.373 . S
O402 C404 1.258 . S
O403 Eu392 2.392 . S
O403 C404 1.242 . S
C404 O402 1.258 . S
C404 O403 1.242 . S
O405 Eu392 2.418 . S
O405 C409 1.244 . S
O406 Eu393 2.488 . S
O406 C422 1.249 . S
O407 Eu393 2.471 . S
O407 C422 1.244 . S
O408 Eu393 2.349 . S
O408 C409 1.265 . S
C409 O405 1.244 . S
C409 O408 1.265 . S
O410 Eu392 2.373 1_565 S
O410 C423 1.258 . S
O411 Eu393 2.392 1_565 S
O411 C423 1.242 . S
O412 Eu393 2.418 . S
O412 C394 1.244 . S
O413 Eu392 2.488 . S
O413 C401 1.249 . S
O414 Eu392 2.471 . S
O414 C401 1.244 . S
O415 Eu392 2.349 . S
O415 C394 1.265 . S
C416 C417 1.379 . S
C416 C420 1.373 . S
C416 C422 1.505 . S
C417 C416 1.379 . S
C417 C419 1.369 . S
C417 H428 0.930 . S
C418 C420 1.383 . S
C418 C421 1.382 . S
C418 H429 0.930 . S
C419 C417 1.369 . S
C419 C421 1.392 . S
C419 H430 0.930 . S
C420 C416 1.373 . S
C420 C418 1.383 . S
C420 H431 0.931 . S
C421 C418 1.382 . S
C421 C419 1.392 . S
C422 Eu393 2.828 . S
C422 O406 1.249 . S
C422 O407 1.244 . S
C422 C416 1.505 . S
C423 O410 1.258 . S
C423 O411 1.242 . S
H424 C396 0.930 . S
H425 C397 0.930 . S
H426 C398 0.930 . S
H427 C399 0.931 . S
H428 C417 0.930 . S
H429 C418 0.930 . S
H430 C419 0.930 . S
H431 C420 0.931 . S
Eu432 C441 2.828 . S
Eu432 O443 2.392 . S
Eu432 O445 2.418 . S
Eu432 O450 2.373 . S
Eu432 O453 2.488 . S
Eu432 O454 2.471 . S
Eu432 O455 2.349 . S
Eu433 O442 2.373 . S
Eu433 O446 2.488 . S
Eu433 O447 2.471 . S
Eu433 O448 2.349 . S
Eu433 O451 2.392 . S
Eu433 O452 2.418 . S
Eu433 C462 2.828 . S
C434 O452 1.244 . S
C434 O455 1.265 . S
C435 C436 1.379 . S
C435 C439 1.373 . S
C435 C441 1.505 . S
C436 C435 1.379 . S
C436 C438 1.369 . S
C436 H464 0.930 . S
C437 C439 1.383 . S
C437 C440 1.382 . S
C437 H465 0.930 . S
C438 C436 1.369 . S
C438 C440 1.392 . S
C438 H466 0.930 . S
C439 C435 1.373 . S
C439 C437 1.383 . S
C439 H467 0.931 . S
C440 C437 1.382 . S
C440 C438 1.392 . S
C441 Eu432 2.828 . S
C441 C435 1.505 . S
C441 O453 1.249 . S
C441 O454 1.244 . S
O442 Eu433 2.373 . S
O442 C444 1.258 . S
O443 Eu432 2.392 . S
O443 C444 1.242 . S
C444 O442 1.258 . S
C444 O443 1.242 . S
O445 Eu432 2.418 . S
O445 C449 1.244 . S
O446 Eu433 2.488 . S
O446 C462 1.249 . S
O447 Eu433 2.471 . S
O447 C462 1.244 . S
O448 Eu433 2.349 . S
O448 C449 1.265 . S
C449 O445 1.244 . S
C449 O448 1.265 . S
O450 Eu432 2.373 . S
O450 C463 1.258 . S
O451 Eu433 2.392 . S
O451 C463 1.242 . S
O452 Eu433 2.418 . S
O452 C434 1.244 . S
O453 Eu432 2.488 . S
O453 C441 1.249 . S
O454 Eu432 2.471 . S
O454 C441 1.244 . S
O455 Eu432 2.349 . S
O455 C434 1.265 . S
C456 C457 1.379 . S
C456 C460 1.373 . S
C456 C462 1.505 . S
C457 C456 1.379 . S
C457 C459 1.369 . S
C457 H468 0.930 . S
C458 C460 1.383 . S
C458 C461 1.382 . S
C458 H469 0.930 . S
C459 C457 1.369 . S
C459 C461 1.392 . S
C459 H470 0.930 . S
C460 C456 1.373 . S
C460 C458 1.383 . S
C460 H471 0.931 . S
C461 C458 1.382 . S
C461 C459 1.392 . S
C462 Eu433 2.828 . S
C462 O446 1.249 . S
C462 O447 1.244 . S
C462 C456 1.505 . S
C463 O450 1.258 . S
C463 O451 1.242 . S
H464 C436 0.930 . S
H465 C437 0.930 . S
H466 C438 0.930 . S
H467 C439 0.931 . S
H468 C457 0.930 . S
H469 C458 0.930 . S
H470 C459 0.930 . S
H471 C460 0.931 . S
Eu472 C481 2.828 . S
Eu472 O483 2.392 . S
Eu472 O485 2.418 . S
Eu472 O490 2.373 . S
Eu472 O493 2.488 . S
Eu472 O494 2.471 . S
Eu472 O495 2.349 . S
Eu473 O482 2.368 1_565 S
Eu473 O486 2.527 . S
Eu473 O487 2.509 . S
Eu473 O488 2.329 1_565 S
Eu473 O491 2.363 1_565 S
Eu473 O492 2.401 1_565 S
Eu473 C502 2.870 . S
C474 O492 1.244 . S
C474 O495 1.265 . S
C475 C476 1.379 . S
C475 C479 1.373 . S
C475 C481 1.505 . S
C476 C475 1.379 . S
C476 C478 1.369 . S
C476 H504 0.930 . S
C477 C479 1.383 . S
C477 C480 1.382 . S
C477 H505 0.930 . S
C478 C476 1.369 . S
C478 C480 1.392 . S
C478 H506 0.930 . S
C479 C475 1.373 . S
C479 C477 1.383 . S
C479 H507 0.931 . S
C480 C477 1.382 . S
C480 C478 1.392 . S
C481 Eu472 2.828 . S
C481 C475 1.505 . S
C481 O493 1.249 . S
C481 O494 1.244 . S
O482 Eu473 2.368 1_545 S
O482 C484 1.258 . S
O483 Eu472 2.392 . S
O483 C484 1.242 . S
C484 O482 1.258 . S
C484 O483 1.242 . S
O485 Eu472 2.418 . S
O485 C489 1.244 . S
O486 Eu473 2.527 . S
O486 C502 1.249 . S
O487 Eu473 2.509 . S
O487 C502 1.244 . S
O488 Eu473 2.329 1_545 S
O488 C489 1.265 . S
C489 O485 1.244 . S
C489 O488 1.265 . S
O490 Eu472 2.373 . S
O490 C503 1.258 . S
O491 Eu473 2.363 1_545 S
O491 C503 1.242 . S
O492 Eu473 2.401 1_545 S
O492 C474 1.244 . S
O493 Eu472 2.488 . S
O493 C481 1.249 . S
O494 Eu472 2.471 . S
O494 C481 1.244 . S
O495 Eu472 2.349 . S
O495 C474 1.265 . S
C496 C497 1.379 . S
C496 C500 1.373 . S
C496 C502 1.505 . S
C497 C496 1.379 . S
C497 C499 1.369 . S
C497 H508 0.930 . S
C498 C500 1.383 . S
C498 C501 1.382 . S
C498 H509 0.930 . S
C499 C497 1.369 . S
C499 C501 1.392 . S
C499 H510 0.930 . S
C500 C496 1.373 . S
C500 C498 1.383 . S
C500 H511 0.931 . S
C501 C498 1.382 . S
C501 C499 1.392 . S
C502 Eu473 2.870 . S
C502 O486 1.249 . S
C502 O487 1.244 . S
C502 C496 1.505 . S
C503 O490 1.258 . S
C503 O491 1.242 . S
H504 C476 0.930 . S
H505 C477 0.930 . S
H506 C478 0.930 . S
H507 C479 0.931 . S
H508 C497 0.930 . S
H509 C498 0.930 . S
H510 C499 0.930 . S
H511 C500 0.931 . S
Eu512 C521 2.828 . S
Eu512 O523 2.392 . S
Eu512 O525 2.418 . S
Eu512 O530 2.373 . S
Eu512 O533 2.488 . S
Eu512 O534 2.471 . S
Eu512 O535 2.349 . S
Eu513 O522 2.373 . S
Eu513 O526 2.488 . S
Eu513 O527 2.471 . S
Eu513 O528 2.349 . S
Eu513 O531 2.392 . S
Eu513 O532 2.418 . S
Eu513 C542 2.828 . S
C514 O532 1.244 . S
C514 O535 1.265 . S
C515 C516 1.379 . S
C515 C519 1.373 . S
C515 C521 1.505 . S
C516 C515 1.379 . S
C516 C518 1.369 . S
C516 H544 0.930 . S
C517 C519 1.383 . S
C517 C520 1.382 . S
C517 H545 0.930 . S
C518 C516 1.369 . S
C518 C520 1.392 . S
C518 H546 0.930 . S
C519 C515 1.373 . S
C519 C517 1.383 . S
C519 H547 0.931 . S
C520 C517 1.382 . S
C520 C518 1.392 . S
C521 Eu512 2.828 . S
C521 C515 1.505 . S
C521 O533 1.249 . S
C521 O534 1.244 . S
O522 Eu513 2.373 . S
O522 C524 1.258 . S
O523 Eu512 2.392 . S
O523 C524 1.242 . S
C524 O522 1.258 . S
C524 O523 1.242 . S
O525 Eu512 2.418 . S
O525 C529 1.244 . S
O526 Eu513 2.488 . S
O526 C542 1.249 . S
O527 Eu513 2.471 . S
O527 C542 1.244 . S
O528 Eu513 2.349 . S
O528 C529 1.265 . S
C529 O525 1.244 . S
C529 O528 1.265 . S
O530 Eu512 2.373 . S
O530 C543 1.258 . S
O531 Eu513 2.392 . S
O531 C543 1.242 . S
O532 Eu513 2.418 . S
O532 C514 1.244 . S
O533 Eu512 2.488 . S
O533 C521 1.249 . S
O534 Eu512 2.471 . S
O534 C521 1.244 . S
O535 Eu512 2.349 . S
O535 C514 1.265 . S
C536 C537 1.379 . S
C536 C540 1.373 . S
C536 C542 1.505 . S
C537 C536 1.379 . S
C537 C539 1.369 . S
C537 H548 0.930 . S
C538 C540 1.383 . S
C538 C541 1.382 . S
C538 H549 0.930 . S
C539 C537 1.369 . S
C539 C541 1.392 . S
C539 H550 0.930 . S
C540 C536 1.373 . S
C540 C538 1.383 . S
C540 H551 0.931 . S
C541 C538 1.382 . S
C541 C539 1.392 . S
C542 Eu513 2.828 . S
C542 O526 1.249 . S
C542 O527 1.244 . S
C542 C536 1.505 . S
C543 O530 1.258 . S
C543 O531 1.242 . S
H544 C516 0.930 . S
H545 C517 0.930 . S
H546 C518 0.930 . S
H547 C519 0.931 . S
H548 C537 0.930 . S
H549 C538 0.930 . S
H550 C539 0.930 . S
H551 C540 0.931 . S
Eu552 C561 2.828 . S
Eu552 O563 2.392 . S
Eu552 O565 2.418 . S
Eu552 O570 2.373 . S
Eu552 O573 2.488 . S
Eu552 O574 2.471 . S
Eu552 O575 2.349 . S
Eu553 O562 2.377 . S
Eu553 O566 2.488 . S
Eu553 O567 2.471 . S
Eu553 O568 2.349 . S
Eu553 O571 2.392 . S
Eu553 O572 2.418 1_556 S
Eu553 C582 2.828 . S
C554 O572 1.244 . S
C554 O575 1.265 . S
C555 C556 1.379 . S
C555 C559 1.373 . S
C555 C561 1.505 . S
C556 C555 1.379 . S
C556 C558 1.369 . S
C556 H584 0.930 . S
C557 C559 1.388 . S
C557 C560 1.395 . S
C557 H585 0.913 1_545 S
C558 C556 1.369 . S
C558 C560 1.392 . S
C558 H586 0.930 . S
C559 C555 1.373 . S
C559 C557 1.388 . S
C559 H587 0.931 1_545 S
C560 C557 1.395 . S
C560 C558 1.392 . S
C561 Eu552 2.828 . S
C561 C555 1.505 . S
C561 O573 1.249 . S
C561 O574 1.244 . S
O562 Eu553 2.377 . S
O562 C564 1.248 1_556 S
O563 Eu552 2.392 . S
O563 C564 1.242 . S
C564 O562 1.248 1_554 S
C564 O563 1.242 . S
O565 Eu552 2.418 . S
O565 C569 1.272 . S
O566 Eu553 2.488 . S
O566 C582 1.249 . S
O567 Eu553 2.471 . S
O567 C582 1.244 . S
O568 Eu553 2.349 . S
O568 C569 1.254 1_556 S
C569 O565 1.272 . S
C569 O568 1.254 1_554 S
O570 Eu552 2.373 . S
O570 C583 1.258 . S
O571 Eu553 2.392 . S
O571 C583 1.242 1_556 S
O572 Eu553 2.418 1_554 S
O572 C554 1.244 . S
O573 Eu552 2.488 . S
O573 C561 1.249 . S
O574 Eu552 2.471 . S
O574 C561 1.244 . S
O575 Eu552 2.349 . S
O575 C554 1.265 . S
C576 C577 1.379 . S
C576 C580 1.373 . S
C576 C582 1.505 . S
C577 C576 1.379 . S
C577 C579 1.369 . S
C577 H588 0.930 . S
C578 C580 1.383 . S
C578 C581 1.382 . S
C578 H589 0.930 . S
C579 C577 1.369 . S
C579 C581 1.392 . S
C579 H590 0.930 . S
C580 C576 1.373 . S
C580 C578 1.383 . S
C580 H591 0.931 . S
C581 C578 1.382 . S
C581 C579 1.392 . S
C582 Eu553 2.828 . S
C582 O566 1.249 . S
C582 O567 1.244 . S
C582 C576 1.505 . S
C583 O570 1.258 . S
C583 O571 1.242 1_554 S
H584 C556 0.930 . S
H585 C557 0.913 1_565 S
H586 C558 0.930 . S
H587 C559 0.931 1_565 S
H588 C577 0.930 . S
H589 C578 0.930 . S
H590 C579 0.930 . S
H591 C580 0.931 . S
Eu592 C601 2.828 . S
Eu592 O603 2.392 . S
Eu592 O605 2.418 . S
Eu592 O610 2.373 . S
Eu592 O613 2.488 . S
Eu592 O614 2.471 . S
Eu592 O615 2.349 . S
Eu593 O602 2.373 . S
Eu593 O606 2.488 . S
Eu593 O607 2.471 . S
Eu593 O608 2.349 . S
Eu593 O611 2.392 . S
Eu593 O612 2.418 . S
Eu593 C622 2.828 . S
C594 O612 1.244 . S
C594 O615 1.265 . S
C595 C596 1.379 . S
C595 C599 1.373 . S
C595 C601 1.505 . S
C596 C595 1.379 . S
C596 C598 1.369 . S
C596 H624 0.930 . S
C597 C599 1.383 . S
C597 C600 1.382 . S
C597 H625 0.930 . S
C598 C596 1.369 . S
C598 C600 1.392 . S
C598 H626 0.930 . S
C599 C595 1.373 . S
C599 C597 1.383 . S
C599 H627 0.931 . S
C600 C597 1.382 . S
C600 C598 1.392 . S
C601 Eu592 2.828 . S
C601 C595 1.505 . S
C601 O613 1.249 . S
C601 O614 1.244 . S
O602 Eu593 2.373 . S
O602 C604 1.258 . S
O603 Eu592 2.392 . S
O603 C604 1.242 . S
C604 O602 1.258 . S
C604 O603 1.242 . S
O605 Eu592 2.418 . S
O605 C609 1.244 . S
O606 Eu593 2.488 . S
O606 C622 1.249 . S
O607 Eu593 2.471 . S
O607 C622 1.244 . S
O608 Eu593 2.349 . S
O608 C609 1.265 . S
C609 O605 1.244 . S
C609 O608 1.265 . S
O610 Eu592 2.373 . S
O610 C623 1.258 . S
O611 Eu593 2.392 . S
O611 C623 1.242 . S
O612 Eu593 2.418 . S
O612 C594 1.244 . S
O613 Eu592 2.488 . S
O613 C601 1.249 . S
O614 Eu592 2.471 . S
O614 C601 1.244 . S
O615 Eu592 2.349 . S
O615 C594 1.265 . S
C616 C617 1.379 . S
C616 C620 1.373 . S
C616 C622 1.505 . S
C617 C616 1.379 . S
C617 C619 1.369 . S
C617 H628 0.930 . S
C618 C620 1.383 . S
C618 C621 1.382 . S
C618 H629 0.930 . S
C619 C617 1.369 . S
C619 C621 1.392 . S
C619 H630 0.930 . S
C620 C616 1.373 . S
C620 C618 1.383 . S
C620 H631 0.931 . S
C621 C618 1.382 . S
C621 C619 1.392 . S
C622 Eu593 2.828 . S
C622 O606 1.249 . S
C622 O607 1.244 . S
C622 C616 1.505 . S
C623 O610 1.258 . S
C623 O611 1.242 . S
H624 C596 0.930 . S
H625 C597 0.930 . S
H626 C598 0.930 . S
H627 C599 0.931 . S
H628 C617 0.930 . S
H629 C618 0.930 . S
H630 C619 0.930 . S
H631 C620 0.931 . S
Eu632 C641 2.828 . S
Eu632 O643 2.392 . S
Eu632 O645 2.418 . S
Eu632 O650 2.373 1_554 S
Eu632 O653 2.488 . S
Eu632 O654 2.471 . S
Eu632 O655 2.349 . S
Eu633 O642 2.373 1_556 S
Eu633 O646 2.488 1_556 S
Eu633 O647 2.471 1_556 S
Eu633 O648 2.349 1_556 S
Eu633 O651 2.392 . S
Eu633 O652 2.417 1_556 S
Eu633 C662 2.828 1_556 S
C634 O652 1.243 . S
C634 O655 1.265 . S
C635 C636 1.379 . S
C635 C639 1.373 . S
C635 C641 1.505 1_556 S
C636 C635 1.379 . S
C636 C638 1.369 . S
C636 H664 0.930 . S
C637 C639 1.383 . S
C637 C640 1.382 . S
C637 H665 0.930 . S
C638 C636 1.369 . S
C638 C640 1.392 . S
C638 H666 0.930 . S
C639 C635 1.373 . S
C639 C637 1.383 . S
C639 H667 0.931 1_556 S
C640 C637 1.382 . S
C640 C638 1.392 . S
C641 Eu632 2.828 . S
C641 C635 1.505 1_554 S
C641 O653 1.249 . S
C641 O654 1.244 . S
O642 Eu633 2.373 1_554 S
O642 C644 1.258 . S
O643 Eu632 2.392 . S
O643 C644 1.242 . S
C644 O642 1.258 . S
C644 O643 1.242 . S
O645 Eu632 2.418 . S
O645 C649 1.244 . S
O646 Eu633 2.488 1_554 S
O646 C662 1.249 . S
O647 Eu633 2.471 1_554 S
O647 C662 1.244 . S
O648 Eu633 2.349 1_554 S
O648 C649 1.265 . S
C649 O645 1.244 . S
C649 O648 1.265 . S
O650 Eu632 2.373 1_556 S
O650 C663 1.258 . S
O651 Eu633 2.392 . S
O651 C663 1.242 . S
O652 Eu633 2.417 1_554 S
O652 C634 1.243 . S
O653 Eu632 2.488 . S
O653 C641 1.249 . S
O654 Eu632 2.471 . S
O654 C641 1.244 . S
O655 Eu632 2.349 . S
O655 C634 1.265 . S
C656 C657 1.379 . S
C656 C660 1.373 . S
C656 C662 1.505 . S
C657 C656 1.379 . S
C657 C659 1.369 . S
C657 H668 0.930 . S
C658 C660 1.383 . S
C658 C661 1.382 . S
C658 H669 0.930 . S
C659 C657 1.369 . S
C659 C661 1.392 . S
C659 H670 0.930 . S
C660 C656 1.373 . S
C660 C658 1.383 . S
C660 H671 0.931 . S
C661 C658 1.382 . S
C661 C659 1.392 . S
C662 Eu633 2.828 1_554 S
C662 O646 1.249 . S
C662 O647 1.244 . S
C662 C656 1.505 . S
C663 O650 1.258 . S
C663 O651 1.242 . S
H664 C636 0.930 . S
H665 C637 0.930 . S
H666 C638 0.930 . S
H667 C639 0.931 1_554 S
H668 C657 0.930 . S
H669 C658 0.930 . S
H670 C659 0.930 . S
H671 C660 0.931 . S
Eu672 C681 2.828 . S
Eu672 O683 2.392 . S
Eu672 O685 2.418 . S
Eu672 O690 2.373 . S
Eu672 O693 2.488 . S
Eu672 O694 2.471 . S
Eu672 O695 2.349 . S
Eu673 O682 2.373 . S
Eu673 O686 2.488 . S
Eu673 O687 2.471 . S
Eu673 O688 2.349 . S
Eu673 O691 2.392 . S
Eu673 O692 2.418 . S
Eu673 C702 2.828 . S
C674 O692 1.244 . S
C674 O695 1.265 . S
C675 C676 1.379 . S
C675 C679 1.373 . S
C675 C681 1.505 . S
C676 C675 1.379 . S
C676 C678 1.369 . S
C676 H704 0.930 . S
C677 C679 1.383 . S
C677 C680 1.382 . S
C677 H705 0.930 . S
C678 C676 1.369 . S
C678 C680 1.392 . S
C678 H706 0.930 . S
C679 C675 1.373 . S
C679 C677 1.383 . S
C679 H707 0.931 . S
C680 C677 1.382 . S
C680 C678 1.392 . S
C681 Eu672 2.828 . S
C681 C675 1.505 . S
C681 O693 1.249 . S
C681 O694 1.244 . S
O682 Eu673 2.373 . S
O682 C684 1.258 . S
O683 Eu672 2.392 . S
O683 C684 1.242 . S
C684 O682 1.258 . S
C684 O683 1.242 . S
O685 Eu672 2.418 . S
O685 C689 1.244 . S
O686 Eu673 2.488 . S
O686 C702 1.249 . S
O687 Eu673 2.471 . S
O687 C702 1.244 . S
O688 Eu673 2.349 . S
O688 C689 1.265 . S
C689 O685 1.244 . S
C689 O688 1.265 . S
O690 Eu672 2.373 . S
O690 C703 1.258 . S
O691 Eu673 2.392 . S
O691 C703 1.242 . S
O692 Eu673 2.418 . S
O692 C674 1.244 . S
O693 Eu672 2.488 . S
O693 C681 1.249 . S
O694 Eu672 2.471 . S
O694 C681 1.244 . S
O695 Eu672 2.349 . S
O695 C674 1.265 . S
C696 C697 1.379 . S
C696 C700 1.373 . S
C696 C702 1.505 . S
C697 C696 1.379 . S
C697 C699 1.369 . S
C697 H708 0.930 . S
C698 C700 1.383 . S
C698 C701 1.382 . S
C698 H709 0.930 . S
C699 C697 1.369 . S
C699 C701 1.392 . S
C699 H710 0.930 . S
C700 C696 1.373 . S
C700 C698 1.383 . S
C700 H711 0.931 . S
C701 C698 1.382 . S
C701 C699 1.392 . S
C702 Eu673 2.828 . S
C702 O686 1.249 . S
C702 O687 1.244 . S
C702 C696 1.505 . S
C703 O690 1.258 . S
C703 O691 1.242 . S
H704 C676 0.930 . S
H705 C677 0.930 . S
H706 C678 0.930 . S
H707 C679 0.931 . S
H708 C697 0.930 . S
H709 C698 0.930 . S
H710 C699 0.930 . S
H711 C700 0.931 . S
Eu712 C721 2.828 . S
Eu712 O723 2.392 . S
Eu712 O725 2.418 . S
Eu712 O730 2.373 . S
Eu712 O733 2.488 . S
Eu712 O734 2.471 . S
Eu712 O735 2.349 . S
Eu713 O722 2.373 . S
Eu713 O726 2.488 . S
Eu713 O727 2.471 . S
Eu713 O728 2.349 . S
Eu713 O731 2.392 1_455 S
Eu713 O732 2.418 . S
Eu713 C742 2.828 . S
C714 O732 1.244 . S
C714 O735 1.265 . S
C715 C716 1.379 1_455 S
C715 C719 1.373 . S
C715 C721 1.505 . S
C716 C715 1.379 1_655 S
C716 C718 1.369 . S
C716 H744 0.930 . S
C717 C719 1.383 1_655 S
C717 C720 1.382 . S
C717 H745 0.930 . S
C718 C716 1.369 . S
C718 C720 1.392 . S
C718 H746 0.930 . S
C719 C715 1.373 . S
C719 C717 1.383 1_455 S
C719 H747 0.931 . S
C720 C717 1.382 . S
C720 C718 1.392 . S
C721 Eu712 2.828 . S
C721 C715 1.505 . S
C721 O733 1.249 . S
C721 O734 1.244 . S
O722 Eu713 2.373 . S
O722 C724 1.258 . S
O723 Eu712 2.392 . S
O723 C724 1.242 . S
C724 O722 1.258 . S
C724 O723 1.242 . S
O725 Eu712 2.418 . S
O725 C729 1.244 . S
O726 Eu713 2.488 . S
O726 C742 1.249 . S
O727 Eu713 2.471 . S
O727 C742 1.244 . S
O728 Eu713 2.349 . S
O728 C729 1.265 . S
C729 O725 1.244 . S
C729 O728 1.265 . S
O730 Eu712 2.373 . S
O730 C743 1.258 1_455 S
O731 Eu713 2.392 1_655 S
O731 C743 1.242 . S
O732 Eu713 2.418 . S
O732 C714 1.244 . S
O733 Eu712 2.488 . S
O733 C721 1.249 . S
O734 Eu712 2.471 . S
O734 C721 1.244 . S
O735 Eu712 2.349 . S
O735 C714 1.265 . S
C736 C737 1.379 . S
C736 C740 1.373 . S
C736 C742 1.505 . S
C737 C736 1.379 . S
C737 C739 1.369 . S
C737 H748 0.930 . S
C738 C740 1.383 . S
C738 C741 1.382 . S
C738 H749 0.930 . S
C739 C737 1.369 . S
C739 C741 1.392 . S
C739 H750 0.930 . S
C740 C736 1.373 . S
C740 C738 1.383 . S
C740 H751 0.931 . S
C741 C738 1.382 . S
C741 C739 1.392 . S
C742 Eu713 2.828 . S
C742 O726 1.249 . S
C742 O727 1.244 . S
C742 C736 1.505 . S
C743 O730 1.258 1_655 S
C743 O731 1.242 . S
H744 C716 0.930 . S
H745 C717 0.930 . S
H746 C718 0.930 . S
H747 C719 0.931 . S
H748 C737 0.930 . S
H749 C738 0.930 . S
H750 C739 0.930 . S
H751 C740 0.931 . S
Eu752 C761 2.828 . S
Eu752 O763 2.392 . S
Eu752 O765 2.418 . S
Eu752 O770 2.373 . S
Eu752 O773 2.488 . S
Eu752 O774 2.471 . S
Eu752 O775 2.349 . S
Eu753 O762 2.373 . S
Eu753 O766 2.488 . S
Eu753 O767 2.471 . S
Eu753 O768 2.349 . S
Eu753 O771 2.392 . S
Eu753 O772 2.418 . S
Eu753 C782 2.828 . S
C754 O772 1.244 . S
C754 O775 1.265 . S
C755 C756 1.379 . S
C755 C759 1.373 . S
C755 C761 1.505 . S
C756 C755 1.379 . S
C756 C758 1.369 . S
C756 H784 0.930 . S
C757 C759 1.383 . S
C757 C760 1.382 . S
C757 H785 0.930 . S
C758 C756 1.369 . S
C758 C760 1.392 . S
C758 H786 0.930 . S
C759 C755 1.373 . S
C759 C757 1.383 . S
C759 H787 0.931 . S
C760 C757 1.382 . S
C760 C758 1.392 . S
C761 Eu752 2.828 . S
C761 C755 1.505 . S
C761 O773 1.249 . S
C761 O774 1.244 . S
O762 Eu753 2.373 . S
O762 C764 1.258 . S
O763 Eu752 2.392 . S
O763 C764 1.242 . S
C764 O762 1.258 . S
C764 O763 1.242 . S
O765 Eu752 2.418 . S
O765 C769 1.244 . S
O766 Eu753 2.488 . S
O766 C782 1.249 . S
O767 Eu753 2.471 . S
O767 C782 1.244 . S
O768 Eu753 2.349 . S
O768 C769 1.265 . S
C769 O765 1.244 . S
C769 O768 1.265 . S
O770 Eu752 2.373 . S
O770 C783 1.258 . S
O771 Eu753 2.392 . S
O771 C783 1.242 . S
O772 Eu753 2.418 . S
O772 C754 1.244 . S
O773 Eu752 2.488 . S
O773 C761 1.249 . S
O774 Eu752 2.471 . S
O774 C761 1.244 . S
O775 Eu752 2.349 . S
O775 C754 1.265 . S
C776 C777 1.379 . S
C776 C780 1.373 . S
C776 C782 1.505 . S
C777 C776 1.379 . S
C777 C779 1.369 . S
C777 H788 0.930 . S
C778 C780 1.383 . S
C778 C781 1.382 . S
C778 H789 0.930 . S
C779 C777 1.369 . S
C779 C781 1.392 . S
C779 H790 0.930 . S
C780 C776 1.373 . S
C780 C778 1.383 . S
C780 H791 0.931 . S
C781 C778 1.382 . S
C781 C779 1.392 . S
C782 Eu753 2.828 . S
C782 O766 1.249 . S
C782 O767 1.244 . S
C782 C776 1.505 . S
C783 O770 1.258 . S
C783 O771 1.242 . S
H784 C756 0.930 . S
H785 C757 0.930 . S
H786 C758 0.930 . S
H787 C759 0.931 . S
H788 C777 0.930 . S
H789 C778 0.930 . S
H790 C779 0.930 . S
H791 C780 0.931 . S
Eu792 C801 2.828 . S
Eu792 O803 2.392 . S
Eu792 O805 2.418 . S
Eu792 O810 2.373 . S
Eu792 O813 2.488 . S
Eu792 O814 2.471 . S
Eu792 O815 2.349 . S
Eu793 O802 2.373 . S
Eu793 O806 2.488 . S
Eu793 O807 2.471 . S
Eu793 O808 2.349 . S
Eu793 O811 2.392 . S
Eu793 O812 2.418 . S
Eu793 C822 2.828 . S
C794 O812 1.244 . S
C794 O815 1.265 . S
C795 C796 1.379 . S
C795 C799 1.373 . S
C795 C801 1.505 . S
C796 C795 1.379 . S
C796 C798 1.369 . S
C796 H824 0.930 . S
C797 C799 1.383 . S
C797 C800 1.382 . S
C797 H825 0.930 . S
C798 C796 1.369 . S
C798 C800 1.392 . S
C798 H826 0.930 . S
C799 C795 1.373 . S
C799 C797 1.383 . S
C799 H827 0.931 . S
C800 C797 1.382 . S
C800 C798 1.392 . S
C801 Eu792 2.828 . S
C801 C795 1.505 . S
C801 O813 1.249 . S
C801 O814 1.244 . S
O802 Eu793 2.373 . S
O802 C804 1.258 . S
O803 Eu792 2.392 . S
O803 C804 1.242 . S
C804 O802 1.258 . S
C804 O803 1.242 . S
O805 Eu792 2.418 . S
O805 C809 1.244 . S
O806 Eu793 2.488 . S
O806 C822 1.249 . S
O807 Eu793 2.471 . S
O807 C822 1.244 . S
O808 Eu793 2.349 . S
O808 C809 1.265 . S
C809 O805 1.244 . S
C809 O808 1.265 . S
O810 Eu792 2.373 . S
O810 C823 1.258 . S
O811 Eu793 2.392 . S
O811 C823 1.242 . S
O812 Eu793 2.418 . S
O812 C794 1.244 . S
O813 Eu792 2.488 . S
O813 C801 1.249 . S
O814 Eu792 2.471 . S
O814 C801 1.244 . S
O815 Eu792 2.349 . S
O815 C794 1.265 . S
C816 C817 1.379 . S
C816 C820 1.373 . S
C816 C822 1.505 . S
C817 C816 1.379 . S
C817 C819 1.369 . S
C817 H828 0.930 . S
C818 C820 1.383 . S
C818 C821 1.382 . S
C818 H829 0.930 . S
C819 C817 1.369 . S
C819 C821 1.392 . S
C819 H830 0.930 . S
C820 C816 1.373 . S
C820 C818 1.383 . S
C820 H831 0.931 . S
C821 C818 1.382 . S
C821 C819 1.392 . S
C822 Eu793 2.828 . S
C822 O806 1.249 . S
C822 O807 1.244 . S
C822 C816 1.505 . S
C823 O810 1.258 . S
C823 O811 1.242 . S
H824 C796 0.930 . S
H825 C797 0.930 . S
H826 C798 0.930 . S
H827 C799 0.931 . S
H828 C817 0.930 . S
H829 C818 0.930 . S
H830 C819 0.930 . S
H831 C820 0.931 . S
Eu832 C841 2.828 . S
Eu832 O843 2.392 . S
Eu832 O845 2.418 . S
Eu832 O850 2.373 . S
Eu832 O853 2.488 . S
Eu832 O854 2.471 . S
Eu832 O855 2.349 . S
Eu833 O842 2.373 . S
Eu833 O846 2.488 . S
Eu833 O847 2.471 . S
Eu833 O848 2.349 . S
Eu833 O851 2.392 . S
Eu833 O852 2.418 . S
Eu833 C862 2.828 . S
C834 O852 1.244 . S
C834 O855 1.265 . S
C835 C836 1.379 . S
C835 C839 1.373 . S
C835 C841 1.505 . S
C836 C835 1.379 . S
C836 C838 1.369 . S
C836 H864 0.930 . S
C837 C839 1.383 . S
C837 C840 1.382 . S
C837 H865 0.930 . S
C838 C836 1.369 . S
C838 C840 1.392 . S
C838 H866 0.930 . S
C839 C835 1.373 . S
C839 C837 1.383 . S
C839 H867 0.931 . S
C840 C837 1.382 . S
C840 C838 1.392 . S
C841 Eu832 2.828 . S
C841 C835 1.505 . S
C841 O853 1.249 . S
C841 O854 1.244 . S
O842 Eu833 2.373 . S
O842 C844 1.258 . S
O843 Eu832 2.392 . S
O843 C844 1.242 . S
C844 O842 1.258 . S
C844 O843 1.242 . S
O845 Eu832 2.418 . S
O845 C849 1.244 . S
O846 Eu833 2.488 . S
O846 C862 1.249 . S
O847 Eu833 2.471 . S
O847 C862 1.244 . S
O848 Eu833 2.349 . S
O848 C849 1.265 . S
C849 O845 1.244 . S
C849 O848 1.265 . S
O850 Eu832 2.373 . S
O850 C863 1.258 . S
O851 Eu833 2.392 . S
O851 C863 1.242 . S
O852 Eu833 2.418 . S
O852 C834 1.244 . S
O853 Eu832 2.488 . S
O853 C841 1.249 . S
O854 Eu832 2.471 . S
O854 C841 1.244 . S
O855 Eu832 2.349 . S
O855 C834 1.265 . S
C856 C857 1.379 . S
C856 C860 1.373 . S
C856 C862 1.505 . S
C857 C856 1.379 . S
C857 C859 1.369 . S
C857 H868 0.930 . S
C858 C860 1.383 . S
C858 C861 1.382 . S
C858 H869 0.930 . S
C859 C857 1.369 . S
C859 C861 1.392 . S
C859 H870 0.930 . S
C860 C856 1.373 . S
C860 C858 1.383 . S
C860 H871 0.931 . S
C861 C858 1.382 . S
C861 C859 1.392 . S
C862 Eu833 2.828 . S
C862 O846 1.249 . S
C862 O847 1.244 . S
C862 C856 1.505 . S
C863 O850 1.258 . S
C863 O851 1.242 . S
H864 C836 0.930 . S
H865 C837 0.930 . S
H866 C838 0.930 . S
H867 C839 0.931 . S
H868 C857 0.930 . S
H869 C858 0.930 . S
H870 C859 0.930 . S
H871 C860 0.931 . S
Eu872 C881 2.828 . S
Eu872 O883 2.392 . S
Eu872 O885 2.418 . S
Eu872 O890 2.373 . S
Eu872 O893 2.488 . S
Eu872 O894 2.471 . S
Eu872 O895 2.349 . S
Eu873 O882 2.373 . S
Eu873 O886 2.488 . S
Eu873 O887 2.471 . S
Eu873 O888 2.349 . S
Eu873 O891 2.392 . S
Eu873 O892 2.418 . S
Eu873 C902 2.828 . S
C874 O892 1.244 . S
C874 O895 1.265 . S
C875 C876 1.379 . S
C875 C879 1.373 . S
C875 C881 1.505 . S
C876 C875 1.379 . S
C876 C878 1.369 . S
C876 H904 0.930 . S
C877 C879 1.383 . S
C877 C880 1.382 . S
C877 H905 0.930 . S
C878 C876 1.369 . S
C878 C880 1.392 . S
C878 H906 0.930 . S
C879 C875 1.373 . S
C879 C877 1.383 . S
C879 H907 0.931 . S
C880 C877 1.382 . S
C880 C878 1.392 . S
C881 Eu872 2.828 . S
C881 C875 1.505 . S
C881 O893 1.249 . S
C881 O894 1.244 . S
O882 Eu873 2.373 . S
O882 C884 1.258 . S
O883 Eu872 2.392 . S
O883 C884 1.242 . S
C884 O882 1.258 . S
C884 O883 1.242 . S
O885 Eu872 2.418 . S
O885 C889 1.244 . S
O886 Eu873 2.488 . S
O886 C902 1.249 . S
O887 Eu873 2.471 . S
O887 C902 1.244 . S
O888 Eu873 2.349 . S
O888 C889 1.265 . S
C889 O885 1.244 . S
C889 O888 1.265 . S
O890 Eu872 2.373 . S
O890 C903 1.258 . S
O891 Eu873 2.392 . S
O891 C903 1.242 . S
O892 Eu873 2.418 . S
O892 C874 1.244 . S
O893 Eu872 2.488 . S
O893 C881 1.249 . S
O894 Eu872 2.471 . S
O894 C881 1.244 . S
O895 Eu872 2.349 . S
O895 C874 1.265 . S
C896 C897 1.379 . S
C896 C900 1.373 . S
C896 C902 1.505 . S
C897 C896 1.379 . S
C897 C899 1.369 . S
C897 H908 0.930 . S
C898 C900 1.383 . S
C898 C901 1.382 . S
C898 H909 0.930 . S
C899 C897 1.369 . S
C899 C901 1.392 . S
C899 H910 0.930 . S
C900 C896 1.373 . S
C900 C898 1.383 . S
C900 H911 0.931 . S
C901 C898 1.382 . S
C901 C899 1.392 . S
C902 Eu873 2.828 . S
C902 O886 1.249 . S
C902 O887 1.244 . S
C902 C896 1.505 . S
C903 O890 1.258 . S
C903 O891 1.242 . S
H904 C876 0.930 . S
H905 C877 0.930 . S
H906 C878 0.930 . S
H907 C879 0.931 . S
H908 C897 0.930 . S
H909 C898 0.930 . S
H910 C899 0.930 . S
H911 C900 0.931 . S
Eu912 C921 2.828 . S
Eu912 O923 2.392 . S
Eu912 O925 2.418 1_554 S
Eu912 O930 2.373 . S
Eu912 O933 2.488 1_554 S
Eu912 O934 2.471 . S
Eu912 O935 2.349 . S
Eu913 O922 2.385 . S
Eu913 O926 2.459 1_455 S
Eu913 O927 2.441 1_455 S
Eu913 O928 2.366 . S
Eu913 O931 2.412 . S
Eu913 O932 2.436 . S
Eu913 C942 2.795 1_455 S
C914 O932 1.244 . S
C914 O935 1.265 . S
C915 C916 1.379 . S
C915 C919 1.373 1_554 S
C915 C921 1.505 . S
C916 C915 1.379 . S
C916 C918 1.369 . S
C916 H944 0.930 . S
C917 C919 1.383 . S
C917 C920 1.382 1_556 S
C917 H945 0.930 . S
C918 C916 1.369 . S
C918 C920 1.392 . S
C918 H946 0.930 . S
C919 C915 1.373 1_556 S
C919 C917 1.383 . S
C919 H947 0.931 . S
C920 C917 1.382 1_554 S
C920 C918 1.392 . S
C921 Eu912 2.828 . S
C921 C915 1.505 . S
C921 O933 1.249 1_554 S
C921 O934 1.244 . S
O922 Eu913 2.385 . S
O922 C924 1.258 . S
O923 Eu912 2.392 . S
O923 C924 1.242 . S
C924 O922 1.258 . S
C924 O923 1.242 . S
O925 Eu912 2.418 1_556 S
O925 C929 1.244 . S
O926 Eu913 2.459 1_655 S
O926 C942 1.249 . S
O927 Eu913 2.441 1_655 S
O927 C942 1.244 . S
O928 Eu913 2.366 . S
O928 C929 1.265 1_554 S
C929 O925 1.244 . S
C929 O928 1.265 1_556 S
O930 Eu912 2.373 . S
O930 C943 1.258 . S
O931 Eu913 2.412 . S
O931 C943 1.242 . S
O932 Eu913 2.436 . S
O932 C914 1.244 . S
O933 Eu912 2.488 1_556 S
O933 C921 1.249 1_556 S
O934 Eu912 2.471 . S
O934 C921 1.244 . S
O935 Eu912 2.349 . S
O935 C914 1.265 . S
C936 C937 1.379 . S
C936 C940 1.373 . S
C936 C942 1.505 . S
C937 C936 1.379 . S
C937 C939 1.369 . S
C937 H948 0.930 . S
C938 C940 1.383 . S
C938 C941 1.382 . S
C938 H949 0.930 . S
C939 C937 1.369 . S
C939 C941 1.392 . S
C939 H950 0.930 . S
C940 C936 1.373 . S
C940 C938 1.383 . S
C940 H951 0.931 . S
C941 C938 1.382 . S
C941 C939 1.392 . S
C942 Eu913 2.795 1_655 S
C942 O926 1.249 . S
C942 O927 1.244 . S
C942 C936 1.505 . S
C943 O930 1.258 . S
C943 O931 1.242 . S
H944 C916 0.930 . S
H945 C917 0.930 . S
H946 C918 0.930 . S
H947 C919 0.931 . S
H948 C937 0.930 . S
H949 C938 0.930 . S
H950 C939 0.930 . S
H951 C940 0.931 . S
H952 C958 0.930 . S
H953 C962 0.930 . S
H954 C967 0.929 . S
H955 C965 0.929 . S
H956 C960 0.929 . S
H957 C966 0.929 . S
C958 H952 0.930 . S
C958 C959 1.367 . S
C958 C966 1.378 . S
C959 C958 1.367 . S
C959 C967 1.433 . S
C960 H956 0.929 . S
C960 C962 1.378 . S
C960 C964 1.350 . S
C961 C964 1.463 . S
C961 C966 1.350 . S
C961 N969 1.427 . S
C962 H953 0.930 . S
C962 C960 1.378 . S
C962 C963 1.367 . S
C963 C962 1.367 . S
C963 C965 1.433 1_556 S
C964 C960 1.350 . S
C964 C961 1.463 . S
C964 N968 1.427 . S
C965 H955 0.929 . S
C965 C963 1.433 1_554 S
C965 N968 1.384 1_554 S
C966 H957 0.929 . S
C966 C958 1.378 . S
C966 C961 1.350 . S
C967 H954 0.929 . S
C967 C959 1.433 . S
C967 N969 1.384 . S
N968 C964 1.427 . S
N968 C965 1.384 1_556 S
N969 C961 1.427 . S
N969 C967 1.384 . S
H970 C976 0.930 . S
H971 C980 0.930 . S
H972 C985 0.929 . S
H973 C983 0.929 . S
H974 C978 0.929 . S
H975 C984 0.929 . S
C976 H970 0.930 . S
C976 C977 1.367 . S
C976 C984 1.378 . S
C977 C976 1.367 . S
C977 C985 1.433 . S
C978 H974 0.929 . S
C978 C980 1.378 . S
C978 C982 1.350 . S
C979 C982 1.463 . S
C979 C984 1.350 . S
C979 N987 1.427 . S
C980 H971 0.930 . S
C980 C978 1.378 . S
C980 C981 1.367 . S
C981 C980 1.367 . S
C981 C983 1.433 . S
C982 C978 1.350 . S
C982 C979 1.463 . S
C982 N986 1.427 . S
C983 H973 0.929 . S
C983 C981 1.433 . S
C983 N986 1.384 . S
C984 H975 0.929 . S
C984 C976 1.378 . S
C984 C979 1.350 . S
C985 H972 0.929 . S
C985 C977 1.433 . S
C985 N987 1.384 . S
N986 C982 1.427 . S
N986 C983 1.384 . S
N987 C979 1.427 . S
N987 C985 1.384 . S
H988 C994 0.930 . S
H989 C998 0.930 . S
H990 C1003 0.929 . S
H991 C1001 0.929 . S
H992 C996 0.929 . S
H993 C1002 0.929 . S
C994 H988 0.930 . S
C994 C995 1.367 . S
C994 C1002 1.378 . S
C995 C994 1.367 . S
C995 C1003 1.433 . S
C996 H992 0.929 . S
C996 C998 1.378 . S
C996 C1000 1.350 . S
C997 C1000 1.463 . S
C997 C1002 1.350 . S
C997 N1005 1.427 . S
C998 H989 0.930 . S
C998 C996 1.378 . S
C998 C999 1.367 . S
C999 C998 1.367 . S
C999 C1001 1.433 . S
C1000 C996 1.350 . S
C1000 C997 1.463 . S
C1000 N1004 1.427 . S
C1001 H991 0.929 . S
C1001 C999 1.433 . S
C1001 N1004 1.384 . S
C1002 H993 0.929 . S
C1002 C994 1.378 . S
C1002 C997 1.350 . S
C1003 H990 0.929 . S
C1003 C995 1.433 . S
C1003 N1005 1.384 . S
N1004 C1000 1.427 . S
N1004 C1001 1.384 . S
N1005 C997 1.427 . S
N1005 C1003 1.384 . S
H1006 C1012 0.930 . S
H1007 C1016 0.930 . S
H1008 C1021 0.929 . S
H1009 C1019 0.929 . S
H1010 C1014 0.929 . S
H1011 C1020 0.929 . S
C1012 H1006 0.930 . S
C1012 C1013 1.367 . S
C1012 C1020 1.378 . S
C1013 C1012 1.367 . S
C1013 C1021 1.433 . S
C1014 H1010 0.929 . S
C1014 C1016 1.378 . S
C1014 C1018 1.350 . S
C1015 C1018 1.463 . S
C1015 C1020 1.350 . S
C1015 N1023 1.427 . S
C1016 H1007 0.930 . S
C1016 C1014 1.378 . S
C1016 C1017 1.367 . S
C1017 C1016 1.367 . S
C1017 C1019 1.433 . S
C1018 C1014 1.350 . S
C1018 C1015 1.463 . S
C1018 N1022 1.427 . S
C1019 H1009 0.929 . S
C1019 C1017 1.433 . S
C1019 N1022 1.384 . S
C1020 H1011 0.929 . S
C1020 C1012 1.378 . S
C1020 C1015 1.350 . S
C1021 H1008 0.929 . S
C1021 C1013 1.433 . S
C1021 N1023 1.384 . S
N1022 C1018 1.427 . S
N1022 C1019 1.384 . S
N1023 C1015 1.427 . S
N1023 C1021 1.384 . S
H1024 C1030 0.930 . S
H1025 C1034 0.930 . S
H1026 C1039 0.929 1_655 S
H1027 C1037 0.929 . S
H1028 C1032 0.929 . S
H1029 C1038 0.929 . S
C1030 H1024 0.930 . S
C1030 C1031 1.367 . S
C1030 C1038 1.378 . S
C1031 C1030 1.367 . S
C1031 C1039 1.433 . S
C1032 H1028 0.929 . S
C1032 C1034 1.378 . S
C1032 C1036 1.350 . S
C1033 C1036 1.463 . S
C1033 C1038 1.350 . S
C1033 N1041 1.427 . S
C1034 H1025 0.930 . S
C1034 C1032 1.378 . S
C1034 C1035 1.367 . S
C1035 C1034 1.367 . S
C1035 C1037 1.433 . S
C1036 C1032 1.350 . S
C1036 C1033 1.463 . S
C1036 N1040 1.427 . S
C1037 H1027 0.929 . S
C1037 C1035 1.433 . S
C1037 N1040 1.384 . S
C1038 H1029 0.929 . S
C1038 C1030 1.378 . S
C1038 C1033 1.350 . S
C1039 H1026 0.929 1_455 S
C1039 C1031 1.433 . S
C1039 N1041 1.384 . S
N1040 C1036 1.427 . S
N1040 C1037 1.384 . S
N1041 C1033 1.427 . S
N1041 C1039 1.384 . S
H1042 C1048 0.930 . S
H1043 C1052 0.930 . S
H1044 C1057 0.929 . S
H1045 C1055 0.929 . S
H1046 C1050 0.929 . S
H1047 C1056 0.929 . S
C1048 H1042 0.930 . S
C1048 C1049 1.367 . S
C1048 C1056 1.378 . S
C1049 C1048 1.367 . S
C1049 C1057 1.433 . S
C1050 H1046 0.929 . S
C1050 C1052 1.378 . S
C1050 C1054 1.350 . S
C1051 C1054 1.463 . S
C1051 C1056 1.350 . S
C1051 N1059 1.427 . S
C1052 H1043 0.930 . S
C1052 C1050 1.378 . S
C1052 C1053 1.367 . S
C1053 C1052 1.367 . S
C1053 C1055 1.433 . S
C1054 C1050 1.350 . S
C1054 C1051 1.463 . S
C1054 N1058 1.427 . S
C1055 H1045 0.929 . S
C1055 C1053 1.433 . S
C1055 N1058 1.384 . S
C1056 H1047 0.929 . S
C1056 C1048 1.378 . S
C1056 C1051 1.350 . S
C1057 H1044 0.929 . S
C1057 C1049 1.433 . S
C1057 N1059 1.384 . S
N1058 C1054 1.427 . S
N1058 C1055 1.384 . S
N1059 C1051 1.427 . S
N1059 C1057 1.384 . S
H1060 C1066 0.930 . S
H1061 C1070 0.930 . S
H1062 C1075 0.929 . S
H1063 C1073 0.929 . S
H1064 C1068 0.929 . S
H1065 C1074 0.929 . S
C1066 H1060 0.930 . S
C1066 C1067 1.367 . S
C1066 C1074 1.378 . S
C1067 C1066 1.367 . S
C1067 C1075 1.433 . S
C1068 H1064 0.929 . S
C1068 C1070 1.378 . S
C1068 C1072 1.350 . S
C1069 C1072 1.463 . S
C1069 C1074 1.350 . S
C1069 N1077 1.427 . S
C1070 H1061 0.930 . S
C1070 C1068 1.378 . S
C1070 C1071 1.367 . S
C1071 C1070 1.367 . S
C1071 C1073 1.433 . S
C1072 C1068 1.350 . S
C1072 C1069 1.463 . S
C1072 N1076 1.427 . S
C1073 H1063 0.929 . S
C1073 C1071 1.433 . S
C1073 N1076 1.384 . S
C1074 H1065 0.929 . S
C1074 C1066 1.378 . S
C1074 C1069 1.350 . S
C1075 H1062 0.929 . S
C1075 C1067 1.433 . S
C1075 N1077 1.384 . S
N1076 C1072 1.427 . S
N1076 C1073 1.384 . S
N1077 C1069 1.427 . S
N1077 C1075 1.384 . S
H1078 C1084 0.930 . S
H1079 C1088 0.930 . S
H1080 C1093 0.929 . S
H1081 C1091 0.929 . S
H1082 C1086 0.929 . S
H1083 C1092 0.929 . S
C1084 H1078 0.930 . S
C1084 C1085 1.367 . S
C1084 C1092 1.378 . S
C1085 C1084 1.367 . S
C1085 C1093 1.433 . S
C1086 H1082 0.929 . S
C1086 C1088 1.378 . S
C1086 C1090 1.350 . S
C1087 C1090 1.463 . S
C1087 C1092 1.350 . S
C1087 N1095 1.427 . S
C1088 H1079 0.930 . S
C1088 C1086 1.378 . S
C1088 C1089 1.367 . S
C1089 C1088 1.367 . S
C1089 C1091 1.433 . S
C1090 C1086 1.350 . S
C1090 C1087 1.463 . S
C1090 N1094 1.427 . S
C1091 H1081 0.929 . S
C1091 C1089 1.433 . S
C1091 N1094 1.384 . S
C1092 H1083 0.929 . S
C1092 C1084 1.378 . S
C1092 C1087 1.350 . S
C1093 H1080 0.929 . S
C1093 C1085 1.433 . S
C1093 N1095 1.384 . S
N1094 C1090 1.427 . S
N1094 C1091 1.384 . S
N1095 C1087 1.427 . S
N1095 C1093 1.384 . S
H1096 C1102 0.930 . S
H1097 C1106 0.930 . S
H1098 C1111 0.929 . S
H1099 C1109 0.929 . S
H1100 C1104 0.929 1_655 S
H1101 C1110 0.900 1_455 S
C1102 H1096 0.930 . S
C1102 C1103 1.367 . S
C1102 C1110 1.408 . S
C1103 C1102 1.367 . S
C1103 C1111 1.433 . S
C1104 H1100 0.929 1_455 S
C1104 C1106 1.378 . S
C1104 C1108 1.350 . S
C1105 C1108 1.463 1_655 S
C1105 C1110 1.350 . S
C1105 N1113 1.427 . S
C1106 H1097 0.930 . S
C1106 C1104 1.378 . S
C1106 C1107 1.367 . S
C1107 C1106 1.367 . S
C1107 C1109 1.433 . S
C1108 C1104 1.350 . S
C1108 C1105 1.463 1_455 S
C1108 N1112 1.427 . S
C1109 H1099 0.929 . S
C1109 C1107 1.433 . S
C1109 N1112 1.384 . S
C1110 H1101 0.900 1_655 S
C1110 C1102 1.408 . S
C1110 C1105 1.350 . S
C1111 H1098 0.929 . S
C1111 C1103 1.433 . S
C1111 N1113 1.384 . S
N1112 C1108 1.427 . S
N1112 C1109 1.384 . S
N1113 C1105 1.427 . S
N1113 C1111 1.384 . S
H1114 C1120 0.930 . S
H1115 C1124 0.930 . S
H1116 C1129 0.929 . S
H1117 C1127 0.929 . S
H1118 C1122 0.929 . S
H1119 C1128 0.929 . S
C1120 H1114 0.930 . S
C1120 C1121 1.367 . S
C1120 C1128 1.378 . S
C1121 C1120 1.367 . S
C1121 C1129 1.433 . S
C1122 H1118 0.929 . S
C1122 C1124 1.378 . S
C1122 C1126 1.350 . S
C1123 C1126 1.463 . S
C1123 C1128 1.350 . S
C1123 N1131 1.427 . S
C1124 H1115 0.930 . S
C1124 C1122 1.378 . S
C1124 C1125 1.367 . S
C1125 C1124 1.367 . S
C1125 C1127 1.433 . S
C1126 C1122 1.350 . S
C1126 C1123 1.463 . S
C1126 N1130 1.427 . S
C1127 H1117 0.929 . S
C1127 C1125 1.433 . S
C1127 N1130 1.384 . S
C1128 H1119 0.929 . S
C1128 C1120 1.378 . S
C1128 C1123 1.350 . S
C1129 H1116 0.929 . S
C1129 C1121 1.433 . S
C1129 N1131 1.384 . S
N1130 C1126 1.427 . S
N1130 C1127 1.384 . S
N1131 C1123 1.427 . S
N1131 C1129 1.384 . S
H1132 C1138 0.930 . S
H1133 C1142 0.930 . S
H1134 C1147 0.929 . S
H1135 C1145 0.929 . S
H1136 C1140 0.929 . S
H1137 C1146 0.929 . S
C1138 H1132 0.930 . S
C1138 C1139 1.367 . S
C1138 C1146 1.378 . S
C1139 C1138 1.367 . S
C1139 C1147 1.433 . S
C1140 H1136 0.929 . S
C1140 C1142 1.378 . S
C1140 C1144 1.350 . S
C1141 C1144 1.463 . S
C1141 C1146 1.350 . S
C1141 N1149 1.427 . S
C1142 H1133 0.930 . S
C1142 C1140 1.378 . S
C1142 C1143 1.367 . S
C1143 C1142 1.367 . S
C1143 C1145 1.433 . S
C1144 C1140 1.350 . S
C1144 C1141 1.463 . S
C1144 N1148 1.427 . S
C1145 H1135 0.929 . S
C1145 C1143 1.433 . S
C1145 N1148 1.384 . S
C1146 H1137 0.929 . S
C1146 C1138 1.378 . S
C1146 C1141 1.350 . S
C1147 H1134 0.929 . S
C1147 C1139 1.433 . S
C1147 N1149 1.384 . S
N1148 C1144 1.427 . S
N1148 C1145 1.384 . S
N1149 C1141 1.427 . S
N1149 C1147 1.384 . S
H1150 C1156 0.930 . S
H1151 C1160 0.930 . S
H1152 C1165 0.929 . S
H1153 C1163 0.929 . S
H1154 C1158 0.929 . S
H1155 C1164 0.929 . S
C1156 H1150 0.930 . S
C1156 C1157 1.367 . S
C1156 C1164 1.378 . S
C1157 C1156 1.367 . S
C1157 C1165 1.433 . S
C1158 H1154 0.929 . S
C1158 C1160 1.378 . S
C1158 C1162 1.350 . S
C1159 C1162 1.463 . S
C1159 C1164 1.350 . S
C1159 N1167 1.427 . S
C1160 H1151 0.930 . S
C1160 C1158 1.378 . S
C1160 C1161 1.367 . S
C1161 C1160 1.367 . S
C1161 C1163 1.433 . S
C1162 C1158 1.350 . S
C1162 C1159 1.463 . S
C1162 N1166 1.427 . S
C1163 H1153 0.929 . S
C1163 C1161 1.433 . S
C1163 N1166 1.384 . S
C1164 H1155 0.929 . S
C1164 C1156 1.378 . S
C1164 C1159 1.350 . S
C1165 H1152 0.929 . S
C1165 C1157 1.433 . S
C1165 N1167 1.384 . S
N1166 C1162 1.427 . S
N1166 C1163 1.384 . S
N1167 C1159 1.427 . S
N1167 C1165 1.384 . S
H1168 C1174 0.930 . S
H1169 C1178 0.930 . S
H1170 C1183 0.929 . S
H1171 C1181 0.929 . S
H1172 C1176 0.929 . S
H1173 C1182 0.929 . S
C1174 H1168 0.930 . S
C1174 C1175 1.367 . S
C1174 C1182 1.378 . S
C1175 C1174 1.367 . S
C1175 C1183 1.433 . S
C1176 H1172 0.929 . S
C1176 C1178 1.378 . S
C1176 C1180 1.350 . S
C1177 C1180 1.463 1_655 S
C1177 C1182 1.350 . S
C1177 N1185 1.440 . S
C1178 H1169 0.930 . S
C1178 C1176 1.378 . S
C1178 C1179 1.367 . S
C1179 C1178 1.367 . S
C1179 C1181 1.433 . S
C1180 C1176 1.350 . S
C1180 C1177 1.463 1_455 S
C1180 N1184 1.427 1_455 S
C1181 H1171 0.929 . S
C1181 C1179 1.433 . S
C1181 N1184 1.384 1_455 S
C1182 H1173 0.929 . S
C1182 C1174 1.378 . S
C1182 C1177 1.350 . S
C1183 H1170 0.929 . S
C1183 C1175 1.433 . S
C1183 N1185 1.398 . S
N1184 C1180 1.427 1_655 S
N1184 C1181 1.384 1_655 S
N1185 C1177 1.440 . S
N1185 C1183 1.398 . S
H1186 C1192 0.930 . S
H1187 C1196 0.930 . S
H1188 C1201 0.929 . S
H1189 C1199 0.929 . S
H1190 C1194 0.929 . S
H1191 C1200 0.929 . S
C1192 H1186 0.930 . S
C1192 C1193 1.367 . S
C1192 C1200 1.378 . S
C1193 C1192 1.367 . S
C1193 C1201 1.433 . S
C1194 H1190 0.929 . S
C1194 C1196 1.378 . S
C1194 C1198 1.350 . S
C1195 C1198 1.463 . S
C1195 C1200 1.350 . S
C1195 N1203 1.427 . S
C1196 H1187 0.930 . S
C1196 C1194 1.378 . S
C1196 C1197 1.367 . S
C1197 C1196 1.367 . S
C1197 C1199 1.433 . S
C1198 C1194 1.350 . S
C1198 C1195 1.463 . S
C1198 N1202 1.427 . S
C1199 H1189 0.929 . S
C1199 C1197 1.433 . S
C1199 N1202 1.384 . S
C1200 H1191 0.929 . S
C1200 C1192 1.378 . S
C1200 C1195 1.350 . S
C1201 H1188 0.929 . S
C1201 C1193 1.433 . S
C1201 N1203 1.384 . S
N1202 C1198 1.427 . S
N1202 C1199 1.384 . S
N1203 C1195 1.427 . S
N1203 C1201 1.384 . S
H1204 C1210 0.930 . S
H1205 C1214 0.930 . S
H1206 C1219 0.929 . S
H1207 C1217 0.929 . S
H1208 C1212 0.929 . S
H1209 C1218 0.929 . S
C1210 H1204 0.930 . S
C1210 C1211 1.367 . S
C1210 C1218 1.378 . S
C1211 C1210 1.367 . S
C1211 C1219 1.433 . S
C1212 H1208 0.929 . S
C1212 C1214 1.378 . S
C1212 C1216 1.350 . S
C1213 C1216 1.463 . S
C1213 C1218 1.350 . S
C1213 N1221 1.427 . S
C1214 H1205 0.930 . S
C1214 C1212 1.378 . S
C1214 C1215 1.367 . S
C1215 C1214 1.367 . S
C1215 C1217 1.433 . S
C1216 C1212 1.350 . S
C1216 C1213 1.463 . S
C1216 N1220 1.427 . S
C1217 H1207 0.929 . S
C1217 C1215 1.433 . S
C1217 N1220 1.384 . S
C1218 H1209 0.929 . S
C1218 C1210 1.378 . S
C1218 C1213 1.350 . S
C1219 H1206 0.929 . S
C1219 C1211 1.433 . S
C1219 N1221 1.384 . S
N1220 C1216 1.427 . S
N1220 C1217 1.384 . S
N1221 C1213 1.427 . S
N1221 C1219 1.384 . S
H1222 C1228 0.930 . S
H1223 C1232 0.930 . S
H1224 C1237 0.929 . S
H1225 C1235 0.929 . S
H1226 C1230 0.929 . S
H1227 C1236 0.929 . S
C1228 H1222 0.930 . S
C1228 C1229 1.367 . S
C1228 C1236 1.378 . S
C1229 C1228 1.367 . S
C1229 C1237 1.433 . S
C1230 H1226 0.929 . S
C1230 C1232 1.378 . S
C1230 C1234 1.350 . S
C1231 C1234 1.463 . S
C1231 C1236 1.350 . S
C1231 N1239 1.427 . S
C1232 H1223 0.930 . S
C1232 C1230 1.378 . S
C1232 C1233 1.367 . S
C1233 C1232 1.367 . S
C1233 C1235 1.433 . S
C1234 C1230 1.350 . S
C1234 C1231 1.463 . S
C1234 N1238 1.427 . S
C1235 H1225 0.929 . S
C1235 C1233 1.433 . S
C1235 N1238 1.384 . S
C1236 H1227 0.929 . S
C1236 C1228 1.378 . S
C1236 C1231 1.350 . S
C1237 H1224 0.929 . S
C1237 C1229 1.433 . S
C1237 N1239 1.384 . S
N1238 C1234 1.427 . S
N1238 C1235 1.384 . S
N1239 C1231 1.427 . S
N1239 C1237 1.384 . S
H1240 C1246 0.930 1_556 S
H1241 C1250 0.930 . S
H1242 C1255 0.926 1_545 S
H1243 C1253 0.929 1_565 S
H1244 C1248 0.929 . S
H1245 C1254 0.929 . S
C1246 H1240 0.930 1_554 S
C1246 C1247 1.367 . S
C1246 C1254 1.378 . S
C1247 C1246 1.367 . S
C1247 C1255 1.433 . S
C1248 H1244 0.929 . S
C1248 C1250 1.378 . S
C1248 C1252 1.350 . S
C1249 C1252 1.463 1_565 S
C1249 C1254 1.350 . S
C1249 N1257 1.427 1_565 S
C1250 H1241 0.930 . S
C1250 C1248 1.378 . S
C1250 C1251 1.367 . S
C1251 C1250 1.367 . S
C1251 C1253 1.433 . S
C1252 C1248 1.350 . S
C1252 C1249 1.463 1_545 S
C1252 N1256 1.427 1_545 S
C1253 H1243 0.929 1_545 S
C1253 C1251 1.433 . S
C1253 N1256 1.384 1_545 S
C1254 H1245 0.929 . S
C1254 C1246 1.378 . S
C1254 C1249 1.350 . S
C1255 H1242 0.926 1_565 S
C1255 C1247 1.433 . S
C1255 N1257 1.384 1_565 S
N1256 C1252 1.427 1_565 S
N1256 C1253 1.384 1_565 S
N1257 C1249 1.427 1_545 S
N1257 C1255 1.384 1_545 S
H1258 C1264 0.930 . S
H1259 C1268 0.930 . S
H1260 C1273 0.929 . S
H1261 C1271 0.929 . S
H1262 C1266 0.929 . S
H1263 C1272 0.929 . S
C1264 H1258 0.930 . S
C1264 C1265 1.367 . S
C1264 C1272 1.378 . S
C1265 C1264 1.367 . S
C1265 C1273 1.433 1_554 S
C1266 H1262 0.929 . S
C1266 C1268 1.378 . S
C1266 C1270 1.350 1_556 S
C1267 C1270 1.463 . S
C1267 C1272 1.350 . S
C1267 N1275 1.427 1_554 S
C1268 H1259 0.930 . S
C1268 C1266 1.378 . S
C1268 C1269 1.367 1_556 S
C1269 C1268 1.367 1_554 S
C1269 C1271 1.433 . S
C1270 C1266 1.350 1_554 S
C1270 C1267 1.463 . S
C1270 N1274 1.427 . S
C1271 H1261 0.929 . S
C1271 C1269 1.433 . S
C1271 N1274 1.384 . S
C1272 H1263 0.929 . S
C1272 C1264 1.378 . S
C1272 C1267 1.350 . S
C1273 H1260 0.929 . S
C1273 C1265 1.433 1_556 S
C1273 N1275 1.384 . S
N1274 C1270 1.427 . S
N1274 C1271 1.384 . S
N1275 C1267 1.427 1_556 S
N1275 C1273 1.384 . S
H1276 C1282 0.930 . S
H1277 C1286 0.930 . S
H1278 C1291 0.929 . S
H1279 C1289 0.929 . S
H1280 C1284 0.929 . S
H1281 C1290 0.929 . S
C1282 H1276 0.930 . S
C1282 C1283 1.367 . S
C1282 C1290 1.378 . S
C1283 C1282 1.367 . S
C1283 C1291 1.433 . S
C1284 H1280 0.929 . S
C1284 C1286 1.378 . S
C1284 C1288 1.350 . S
C1285 C1288 1.463 . S
C1285 C1290 1.350 . S
C1285 N1293 1.427 . S
C1286 H1277 0.930 . S
C1286 C1284 1.378 . S
C1286 C1287 1.367 . S
C1287 C1286 1.367 . S
C1287 C1289 1.433 . S
C1288 C1284 1.350 . S
C1288 C1285 1.463 . S
C1288 N1292 1.427 . S
C1289 H1279 0.929 . S
C1289 C1287 1.433 . S
C1289 N1292 1.384 . S
C1290 H1281 0.929 . S
C1290 C1282 1.378 . S
C1290 C1285 1.350 . S
C1291 H1278 0.929 . S
C1291 C1283 1.433 . S
C1291 N1293 1.384 . S
N1292 C1288 1.427 . S
N1292 C1289 1.384 . S
N1293 C1285 1.427 . S
N1293 C1291 1.384 . S
H1294 C1300 0.930 . S
H1295 C1304 0.930 . S
H1296 C1309 0.929 . S
H1297 C1307 0.929 . S
H1298 C1302 0.929 . S
H1299 C1308 0.929 . S
C1300 H1294 0.930 . S
C1300 C1301 1.367 . S
C1300 C1308 1.378 . S
C1301 C1300 1.367 . S
C1301 C1309 1.433 . S
C1302 H1298 0.929 . S
C1302 C1304 1.378 . S
C1302 C1306 1.350 . S
C1303 C1306 1.463 . S
C1303 C1308 1.350 . S
C1303 N1311 1.427 . S
C1304 H1295 0.930 . S
C1304 C1302 1.378 . S
C1304 C1305 1.367 . S
C1305 C1304 1.367 . S
C1305 C1307 1.433 . S
C1306 C1302 1.350 . S
C1306 C1303 1.463 . S
C1306 N1310 1.427 . S
C1307 H1297 0.929 . S
C1307 C1305 1.433 . S
C1307 N1310 1.384 . S
C1308 H1299 0.929 . S
C1308 C1300 1.378 . S
C1308 C1303 1.350 . S
C1309 H1296 0.929 . S
C1309 C1301 1.433 . S
C1309 N1311 1.384 . S
N1310 C1306 1.427 . S
N1310 C1307 1.384 . S
N1311 C1303 1.427 . S
N1311 C1309 1.384 . S
H1312 C1318 0.930 . S
H1313 C1322 0.930 . S
H1314 C1327 0.929 . S
H1315 C1325 0.929 . S
H1316 C1320 0.929 . S
H1317 C1326 0.929 . S
C1318 H1312 0.930 . S
C1318 C1319 1.367 . S
C1318 C1326 1.378 . S
C1319 C1318 1.367 . S
C1319 C1327 1.433 . S
C1320 H1316 0.929 . S
C1320 C1322 1.378 . S
C1320 C1324 1.350 . S
C1321 C1324 1.463 . S
C1321 C1326 1.350 . S
C1321 N1329 1.427 . S
C1322 H1313 0.930 . S
C1322 C1320 1.378 . S
C1322 C1323 1.367 . S
C1323 C1322 1.367 . S
C1323 C1325 1.433 . S
C1324 C1320 1.350 . S
C1324 C1321 1.463 . S
C1324 N1328 1.427 . S
C1325 H1315 0.929 . S
C1325 C1323 1.433 . S
C1325 N1328 1.384 . S
C1326 H1317 0.929 . S
C1326 C1318 1.378 . S
C1326 C1321 1.350 . S
C1327 H1314 0.929 . S
C1327 C1319 1.433 . S
C1327 N1329 1.384 . S
N1328 C1324 1.427 . S
N1328 C1325 1.384 . S
N1329 C1321 1.427 . S
N1329 C1327 1.384 . S
H1330 C1336 0.930 . S
H1331 C1340 0.930 . S
H1332 C1345 0.929 . S
H1333 C1343 0.929 . S
H1334 C1338 0.929 . S
H1335 C1344 0.929 . S
C1336 H1330 0.930 . S
C1336 C1337 1.367 . S
C1336 C1344 1.378 . S
C1337 C1336 1.367 . S
C1337 C1345 1.433 . S
C1338 H1334 0.929 . S
C1338 C1340 1.378 . S
C1338 C1342 1.350 . S
C1339 C1342 1.463 . S
C1339 C1344 1.350 . S
C1339 N1347 1.427 . S
C1340 H1331 0.930 . S
C1340 C1338 1.378 . S
C1340 C1341 1.367 . S
C1341 C1340 1.367 . S
C1341 C1343 1.433 . S
C1342 C1338 1.350 . S
C1342 C1339 1.463 . S
C1342 N1346 1.427 . S
C1343 H1333 0.929 . S
C1343 C1341 1.433 . S
C1343 N1346 1.384 . S
C1344 H1335 0.929 . S
C1344 C1336 1.378 . S
C1344 C1339 1.350 . S
C1345 H1332 0.929 . S
C1345 C1337 1.433 . S
C1345 N1347 1.384 . S
N1346 C1342 1.427 . S
N1346 C1343 1.384 . S
N1347 C1339 1.427 . S
N1347 C1345 1.384 . S
H1348 C1354 0.930 . S
H1349 C1358 0.930 . S
H1350 C1363 0.929 . S
H1351 C1361 0.929 . S
H1352 C1356 0.929 . S
H1353 C1362 0.929 . S
C1354 H1348 0.930 . S
C1354 C1355 1.367 . S
C1354 C1362 1.378 . S
C1355 C1354 1.367 . S
C1355 C1363 1.433 . S
C1356 H1352 0.929 . S
C1356 C1358 1.378 . S
C1356 C1360 1.350 . S
C1357 C1360 1.463 . S
C1357 C1362 1.350 . S
C1357 N1365 1.427 . S
C1358 H1349 0.930 . S
C1358 C1356 1.378 . S
C1358 C1359 1.367 . S
C1359 C1358 1.367 . S
C1359 C1361 1.433 . S
C1360 C1356 1.350 . S
C1360 C1357 1.463 . S
C1360 N1364 1.427 . S
C1361 H1351 0.929 . S
C1361 C1359 1.433 . S
C1361 N1364 1.384 . S
C1362 H1353 0.929 . S
C1362 C1354 1.378 . S
C1362 C1357 1.350 . S
C1363 H1350 0.929 . S
C1363 C1355 1.433 . S
C1363 N1365 1.384 . S
N1364 C1360 1.427 . S
N1364 C1361 1.384 . S
N1365 C1357 1.427 . S
N1365 C1363 1.384 . S
H1366 C1372 0.930 . S
H1367 C1376 0.930 . S
H1368 C1381 0.929 . S
H1369 C1379 0.929 . S
H1370 C1374 0.929 . S
H1371 C1380 0.929 . S
C1372 H1366 0.930 . S
C1372 C1373 1.367 . S
C1372 C1380 1.378 . S
C1373 C1372 1.367 . S
C1373 C1381 1.433 . S
C1374 H1370 0.929 . S
C1374 C1376 1.378 . S
C1374 C1378 1.350 . S
C1375 C1378 1.463 . S
C1375 C1380 1.350 . S
C1375 N1383 1.427 . S
C1376 H1367 0.930 . S
C1376 C1374 1.378 . S
C1376 C1377 1.367 . S
C1377 C1376 1.367 . S
C1377 C1379 1.433 . S
C1378 C1374 1.350 . S
C1378 C1375 1.463 . S
C1378 N1382 1.427 . S
C1379 H1369 0.929 . S
C1379 C1377 1.433 . S
C1379 N1382 1.384 . S
C1380 H1371 0.929 . S
C1380 C1372 1.378 . S
C1380 C1375 1.350 . S
C1381 H1368 0.929 . S
C1381 C1373 1.433 . S
C1381 N1383 1.384 . S
N1382 C1378 1.427 . S
N1382 C1379 1.384 . S
N1383 C1375 1.427 . S
N1383 C1381 1.384 . S
H1384 C1390 0.930 . S
H1385 C1394 0.930 . S
H1386 C1399 0.929 . S
H1387 C1397 0.929 . S
H1388 C1392 0.929 . S
H1389 C1398 0.929 . S
C1390 H1384 0.930 . S
C1390 C1391 1.367 . S
C1390 C1398 1.378 . S
C1391 C1390 1.367 . S
C1391 C1399 1.433 . S
C1392 H1388 0.929 . S
C1392 C1394 1.378 . S
C1392 C1396 1.350 . S
C1393 C1396 1.463 . S
C1393 C1398 1.350 . S
C1393 N1401 1.427 . S
C1394 H1385 0.930 . S
C1394 C1392 1.378 . S
C1394 C1395 1.367 . S
C1395 C1394 1.367 . S
C1395 C1397 1.433 . S
C1396 C1392 1.350 . S
C1396 C1393 1.463 . S
C1396 N1400 1.427 . S
C1397 H1387 0.929 . S
C1397 C1395 1.433 . S
C1397 N1400 1.384 . S
C1398 H1389 0.929 . S
C1398 C1390 1.378 . S
C1398 C1393 1.350 . S
C1399 H1386 0.929 . S
C1399 C1391 1.433 . S
C1399 N1401 1.384 . S
N1400 C1396 1.427 . S
N1400 C1397 1.384 . S
N1401 C1393 1.427 . S
N1401 C1399 1.384 . S
H1402 C1408 0.930 . S
H1403 C1412 0.930 . S
H1404 C1417 0.929 . S
H1405 C1415 0.929 . S
H1406 C1410 0.929 . S
H1407 C1416 0.929 . S
C1408 H1402 0.930 . S
C1408 C1409 1.367 . S
C1408 C1416 1.378 . S
C1409 C1408 1.367 . S
C1409 C1417 1.433 . S
C1410 H1406 0.929 . S
C1410 C1412 1.378 . S
C1410 C1414 1.350 . S
C1411 C1414 1.463 . S
C1411 C1416 1.350 . S
C1411 N1419 1.427 . S
C1412 H1403 0.930 . S
C1412 C1410 1.378 . S
C1412 C1413 1.367 . S
C1413 C1412 1.367 . S
C1413 C1415 1.433 . S
C1414 C1410 1.350 . S
C1414 C1411 1.463 . S
C1414 N1418 1.427 . S
C1415 H1405 0.929 . S
C1415 C1413 1.433 . S
C1415 N1418 1.384 . S
C1416 H1407 0.929 . S
C1416 C1408 1.378 . S
C1416 C1411 1.350 . S
C1417 H1404 0.929 . S
C1417 C1409 1.433 . S
C1417 N1419 1.384 . S
N1418 C1414 1.427 . S
N1418 C1415 1.384 . S
N1419 C1411 1.427 . S
N1419 C1417 1.384 . S
H1420 C1426 0.930 . S
H1421 C1430 0.930 . S
H1422 C1435 0.929 . S
H1423 C1433 0.929 . S
H1424 C1428 0.929 . S
H1425 C1434 0.929 . S
C1426 H1420 0.930 . S
C1426 C1427 1.367 . S
C1426 C1434 1.378 . S
C1427 C1426 1.367 . S
C1427 C1435 1.433 . S
C1428 H1424 0.929 . S
C1428 C1430 1.378 . S
C1428 C1432 1.350 . S
C1429 C1432 1.463 . S
C1429 C1434 1.350 . S
C1429 N1437 1.427 . S
C1430 H1421 0.930 . S
C1430 C1428 1.378 . S
C1430 C1431 1.367 . S
C1431 C1430 1.367 . S
C1431 C1433 1.433 . S
C1432 C1428 1.350 . S
C1432 C1429 1.463 . S
C1432 N1436 1.427 . S
C1433 H1423 0.929 . S
C1433 C1431 1.433 . S
C1433 N1436 1.384 . S
C1434 H1425 0.929 . S
C1434 C1426 1.378 . S
C1434 C1429 1.350 . S
C1435 H1422 0.929 . S
C1435 C1427 1.433 . S
C1435 N1437 1.384 . S
N1436 C1432 1.427 . S
N1436 C1433 1.384 . S
N1437 C1429 1.427 . S
N1437 C1435 1.384 . S
H1438 C1444 0.930 . S
H1439 C1448 0.930 . S
H1440 C1453 0.929 . S
H1441 C1451 0.929 . S
H1442 C1446 0.929 . S
H1443 C1452 0.929 . S
C1444 H1438 0.930 . S
C1444 C1445 1.367 . S
C1444 C1452 1.378 . S
C1445 C1444 1.367 . S
C1445 C1453 1.433 . S
C1446 H1442 0.929 . S
C1446 C1448 1.378 . S
C1446 C1450 1.350 . S
C1447 C1450 1.463 . S
C1447 C1452 1.350 . S
C1447 N1455 1.427 . S
C1448 H1439 0.930 . S
C1448 C1446 1.378 . S
C1448 C1449 1.367 . S
C1449 C1448 1.367 . S
C1449 C1451 1.433 . S
C1450 C1446 1.350 . S
C1450 C1447 1.463 . S
C1450 N1454 1.427 . S
C1451 H1441 0.929 . S
C1451 C1449 1.433 . S
C1451 N1454 1.384 . S
C1452 H1443 0.929 . S
C1452 C1444 1.378 . S
C1452 C1447 1.350 . S
C1453 H1440 0.929 . S
C1453 C1445 1.433 . S
C1453 N1455 1.384 . S
N1454 C1450 1.427 . S
N1454 C1451 1.384 . S
N1455 C1447 1.427 . S
N1455 C1453 1.384 . S
H1456 C1462 0.930 . S
H1457 C1466 0.930 . S
H1458 C1471 0.929 . S
H1459 C1469 0.929 . S
H1460 C1464 0.929 . S
H1461 C1470 0.929 . S
C1462 H1456 0.930 . S
C1462 C1463 1.367 . S
C1462 C1470 1.378 . S
C1463 C1462 1.367 . S
C1463 C1471 1.433 . S
C1464 H1460 0.929 . S
C1464 C1466 1.378 . S
C1464 C1468 1.350 . S
C1465 C1468 1.463 . S
C1465 C1470 1.350 . S
C1465 N1473 1.427 . S
C1466 H1457 0.930 . S
C1466 C1464 1.378 . S
C1466 C1467 1.367 . S
C1467 C1466 1.367 . S
C1467 C1469 1.433 . S
C1468 C1464 1.350 . S
C1468 C1465 1.463 . S
C1468 N1472 1.427 . S
C1469 H1459 0.929 . S
C1469 C1467 1.433 . S
C1469 N1472 1.384 . S
C1470 H1461 0.929 . S
C1470 C1462 1.378 . S
C1470 C1465 1.350 . S
C1471 H1458 0.929 . S
C1471 C1463 1.433 . S
C1471 N1473 1.384 . S
N1472 C1468 1.427 . S
N1472 C1469 1.384 . S
N1473 C1465 1.427 . S
N1473 C1471 1.384 . S
H1474 C1480 0.930 . S
H1475 C1484 0.930 . S
H1476 C1489 0.929 . S
H1477 C1487 0.929 . S
H1478 C1482 0.929 . S
H1479 C1488 0.929 . S
C1480 H1474 0.930 . S
C1480 C1481 1.367 . S
C1480 C1488 1.378 . S
C1481 C1480 1.367 . S
C1481 C1489 1.433 . S
C1482 H1478 0.929 . S
C1482 C1484 1.378 . S
C1482 C1486 1.350 . S
C1483 C1486 1.463 . S
C1483 C1488 1.350 . S
C1483 N1491 1.427 . S
C1484 H1475 0.930 . S
C1484 C1482 1.378 . S
C1484 C1485 1.367 . S
C1485 C1484 1.367 . S
C1485 C1487 1.433 . S
C1486 C1482 1.350 . S
C1486 C1483 1.463 . S
C1486 N1490 1.427 . S
C1487 H1477 0.929 . S
C1487 C1485 1.433 . S
C1487 N1490 1.384 . S
C1488 H1479 0.929 . S
C1488 C1480 1.378 . S
C1488 C1483 1.350 . S
C1489 H1476 0.929 . S
C1489 C1481 1.433 . S
C1489 N1491 1.384 . S
N1490 C1486 1.427 . S
N1490 C1487 1.384 . S
N1491 C1483 1.427 . S
N1491 C1489 1.384 . S
H1492 C1498 0.930 . S
H1493 C1502 0.930 1_554 S
H1494 C1507 0.929 . S
H1495 C1505 0.901 1_545 S
H1496 C1500 0.929 . S
H1497 C1506 0.929 . S
C1498 H1492 0.930 . S
C1498 C1499 1.367 . S
C1498 C1506 1.378 . S
C1499 C1498 1.367 . S
C1499 C1507 1.433 . S
C1500 H1496 0.929 . S
C1500 C1502 1.378 . S
C1500 C1504 1.350 . S
C1501 C1504 1.463 . S
C1501 C1506 1.350 . S
C1501 N1509 1.427 . S
C1502 H1493 0.930 1_556 S
C1502 C1500 1.378 . S
C1502 C1503 1.367 . S
C1503 C1502 1.367 . S
C1503 C1505 1.433 . S
C1504 C1500 1.350 . S
C1504 C1501 1.463 . S
C1504 N1508 1.427 . S
C1505 H1495 0.901 1_565 S
C1505 C1503 1.433 . S
C1505 N1508 1.384 . S
C1506 H1497 0.929 . S
C1506 C1498 1.378 . S
C1506 C1501 1.350 . S
C1507 H1494 0.929 . S
C1507 C1499 1.433 . S
C1507 N1509 1.384 . S
N1508 C1504 1.427 . S
N1508 C1505 1.384 . S
N1509 C1501 1.427 . S
N1509 C1507 1.384 . S
H1510 C1516 0.930 . S
H1511 C1520 0.930 . S
H1512 C1525 0.929 . S
H1513 C1523 0.929 . S
H1514 C1518 0.929 . S
H1515 C1524 0.929 . S
C1516 H1510 0.930 . S
C1516 C1517 1.367 . S
C1516 C1524 1.378 . S
C1517 C1516 1.367 . S
C1517 C1525 1.433 . S
C1518 H1514 0.929 . S
C1518 C1520 1.378 . S
C1518 C1522 1.350 . S
C1519 C1522 1.463 . S
C1519 C1524 1.350 . S
C1519 N1527 1.427 . S
C1520 H1511 0.930 . S
C1520 C1518 1.378 . S
C1520 C1521 1.367 . S
C1521 C1520 1.367 . S
C1521 C1523 1.433 . S
C1522 C1518 1.350 . S
C1522 C1519 1.463 . S
C1522 N1526 1.427 . S
C1523 H1513 0.929 . S
C1523 C1521 1.433 . S
C1523 N1526 1.384 . S
C1524 H1515 0.929 . S
C1524 C1516 1.378 . S
C1524 C1519 1.350 . S
C1525 H1512 0.929 . S
C1525 C1517 1.433 . S
C1525 N1527 1.384 . S
N1526 C1522 1.427 . S
N1526 C1523 1.384 . S
N1527 C1519 1.427 . S
N1527 C1525 1.384 . S
H1528 C1534 0.930 1_565 S
H1529 C1538 0.930 . S
H1530 C1543 0.929 . S
H1531 C1541 0.929 . S
H1532 C1536 0.929 . S
H1533 C1542 0.929 1_565 S
C1534 H1528 0.930 1_545 S
C1534 C1535 1.367 . S
C1534 C1542 1.378 . S
C1535 C1534 1.367 . S
C1535 C1543 1.433 . S
C1536 H1532 0.929 . S
C1536 C1538 1.378 . S
C1536 C1540 1.350 . S
C1537 C1540 1.463 . S
C1537 C1542 1.350 . S
C1537 N1545 1.427 . S
C1538 H1529 0.930 . S
C1538 C1536 1.378 . S
C1538 C1539 1.367 . S
C1539 C1538 1.367 . S
C1539 C1541 1.433 . S
C1540 C1536 1.350 . S
C1540 C1537 1.463 . S
C1540 N1544 1.427 . S
C1541 H1531 0.929 . S
C1541 C1539 1.433 . S
C1541 N1544 1.384 . S
C1542 H1533 0.929 1_545 S
C1542 C1534 1.378 . S
C1542 C1537 1.350 . S
C1543 H1530 0.929 . S
C1543 C1535 1.433 . S
C1543 N1545 1.384 . S
N1544 C1540 1.427 . S
N1544 C1541 1.384 . S
N1545 C1537 1.427 . S
N1545 C1543 1.384 . S
H1546 C1552 0.930 . S
H1547 C1556 0.930 . S
H1548 C1561 0.929 . S
H1549 C1559 0.929 . S
H1550 C1554 0.929 . S
H1551 C1560 0.929 . S
C1552 H1546 0.930 . S
C1552 C1553 1.367 . S
C1552 C1560 1.378 . S
C1553 C1552 1.367 . S
C1553 C1561 1.433 . S
C1554 H1550 0.929 . S
C1554 C1556 1.378 . S
C1554 C1558 1.350 . S
C1555 C1558 1.463 . S
C1555 C1560 1.350 . S
C1555 N1563 1.427 . S
C1556 H1547 0.930 . S
C1556 C1554 1.378 . S
C1556 C1557 1.367 . S
C1557 C1556 1.367 . S
C1557 C1559 1.433 . S
C1558 C1554 1.350 . S
C1558 C1555 1.463 . S
C1558 N1562 1.427 . S
C1559 H1549 0.929 . S
C1559 C1557 1.433 . S
C1559 N1562 1.384 . S
C1560 H1551 0.929 . S
C1560 C1552 1.378 . S
C1560 C1555 1.350 . S
C1561 H1548 0.929 . S
C1561 C1553 1.433 . S
C1561 N1563 1.384 . S
N1562 C1558 1.427 . S
N1562 C1559 1.384 . S
N1563 C1555 1.427 . S
N1563 C1561 1.384 . S
H1564 C1570 0.930 . S
H1565 C1574 0.930 . S
H1566 C1579 0.929 . S
H1567 C1577 0.929 1_565 S
H1568 C1572 0.929 . S
H1569 C1578 0.929 . S
C1570 H1564 0.930 . S
C1570 C1571 1.367 1_565 S
C1570 C1578 1.378 . S
C1571 C1570 1.367 1_545 S
C1571 C1579 1.433 . S
C1572 H1568 0.929 . S
C1572 C1574 1.378 . S
C1572 C1576 1.350 . S
C1573 C1576 1.463 . S
C1573 C1578 1.350 1_545 S
C1573 N1581 1.427 . S
C1574 H1565 0.930 . S
C1574 C1572 1.378 . S
C1574 C1575 1.367 . S
C1575 C1574 1.367 . S
C1575 C1577 1.433 . S
C1576 C1572 1.350 . S
C1576 C1573 1.463 . S
C1576 N1580 1.427 . S
C1577 H1567 0.929 1_545 S
C1577 C1575 1.433 . S
C1577 N1580 1.384 . S
C1578 H1569 0.929 . S
C1578 C1570 1.378 . S
C1578 C1573 1.350 1_565 S
C1579 H1566 0.929 . S
C1579 C1571 1.433 . S
C1579 N1581 1.384 . S
N1580 C1576 1.427 . S
N1580 C1577 1.384 . S
N1581 C1573 1.427 . S
N1581 C1579 1.384 . S
H1582 C1588 0.930 . S
H1583 C1592 0.930 . S
H1584 C1597 0.929 . S
H1585 C1595 0.929 . S
H1586 C1590 0.929 . S
H1587 C1596 0.929 . S
C1588 H1582 0.930 . S
C1588 C1589 1.367 . S
C1588 C1596 1.378 . S
C1589 C1588 1.367 . S
C1589 C1597 1.433 . S
C1590 H1586 0.929 . S
C1590 C1592 1.378 . S
C1590 C1594 1.350 . S
C1591 C1594 1.463 . S
C1591 C1596 1.350 . S
C1591 N1599 1.427 . S
C1592 H1583 0.930 . S
C1592 C1590 1.378 . S
C1592 C1593 1.367 . S
C1593 C1592 1.367 . S
C1593 C1595 1.433 . S
C1594 C1590 1.350 . S
C1594 C1591 1.463 . S
C1594 N1598 1.427 . S
C1595 H1585 0.929 . S
C1595 C1593 1.433 . S
C1595 N1598 1.384 . S
C1596 H1587 0.929 . S
C1596 C1588 1.378 . S
C1596 C1591 1.350 . S
C1597 H1584 0.929 . S
C1597 C1589 1.433 . S
C1597 N1599 1.384 . S
N1598 C1594 1.427 . S
N1598 C1595 1.384 . S
N1599 C1591 1.427 . S
N1599 C1597 1.384 . S
H1600 C1606 0.930 . S
H1601 C1610 0.930 . S
H1602 C1615 0.929 . S
H1603 C1613 0.919 1_565 S
H1604 C1608 0.929 . S
H1605 C1614 0.929 . S
C1606 H1600 0.930 . S
C1606 C1607 1.367 1_565 S
C1606 C1614 1.378 . S
C1607 C1606 1.367 1_545 S
C1607 C1615 1.433 . S
C1608 H1604 0.929 . S
C1608 C1610 1.378 . S
C1608 C1612 1.350 . S
C1609 C1612 1.463 . S
C1609 C1614 1.350 1_545 S
C1609 N1617 1.427 . S
C1610 H1601 0.930 . S
C1610 C1608 1.378 . S
C1610 C1611 1.367 . S
C1611 C1610 1.367 . S
C1611 C1613 1.451 . S
C1612 C1608 1.350 . S
C1612 C1609 1.463 . S
C1612 N1616 1.427 1_545 S
C1613 H1603 0.919 1_545 S
C1613 C1611 1.451 . S
C1613 N1616 1.377 1_545 S
C1614 H1605 0.929 . S
C1614 C1606 1.378 . S
C1614 C1609 1.350 1_565 S
C1615 H1602 0.929 . S
C1615 C1607 1.433 . S
C1615 N1617 1.384 . S
N1616 C1612 1.427 1_565 S
N1616 C1613 1.377 1_565 S
N1617 C1609 1.427 . S
N1617 C1615 1.384 . S
H1618 C1624 0.930 . S
H1619 C1628 0.930 . S
H1620 C1633 0.929 . S
H1621 C1631 0.929 . S
H1622 C1626 0.929 . S
H1623 C1632 0.929 . S
C1624 H1618 0.930 . S
C1624 C1625 1.367 . S
C1624 C1632 1.378 . S
C1625 C1624 1.367 . S
C1625 C1633 1.433 . S
C1626 H1622 0.929 . S
C1626 C1628 1.378 . S
C1626 C1630 1.350 . S
C1627 C1630 1.463 . S
C1627 C1632 1.350 . S
C1627 N1635 1.427 . S
C1628 H1619 0.930 . S
C1628 C1626 1.378 . S
C1628 C1629 1.367 . S
C1629 C1628 1.367 . S
C1629 C1631 1.433 . S
C1630 C1626 1.350 . S
C1630 C1627 1.463 . S
C1630 N1634 1.427 . S
C1631 H1621 0.929 . S
C1631 C1629 1.433 . S
C1631 N1634 1.384 . S
C1632 H1623 0.929 . S
C1632 C1624 1.378 . S
C1632 C1627 1.350 . S
C1633 H1620 0.929 . S
C1633 C1625 1.433 . S
C1633 N1635 1.384 . S
N1634 C1630 1.427 . S
N1634 C1631 1.384 . S
N1635 C1627 1.427 . S
N1635 C1633 1.384 . S
H1636 C1642 0.930 . S
H1637 C1646 0.930 . S
H1638 C1651 0.929 . S
H1639 C1649 0.929 . S
H1640 C1644 0.929 . S
H1641 C1650 0.929 . S
C1642 H1636 0.930 . S
C1642 C1643 1.367 1_565 S
C1642 C1650 1.378 . S
C1643 C1642 1.367 1_545 S
C1643 C1651 1.433 . S
C1644 H1640 0.929 . S
C1644 C1646 1.378 . S
C1644 C1648 1.350 . S
C1645 C1648 1.463 . S
C1645 C1650 1.350 1_545 S
C1645 N1653 1.427 . S
C1646 H1637 0.930 . S
C1646 C1644 1.378 . S
C1646 C1647 1.367 . S
C1647 C1646 1.367 . S
C1647 C1649 1.433 1_545 S
C1648 C1644 1.350 . S
C1648 C1645 1.463 . S
C1648 N1652 1.427 1_545 S
C1649 H1639 0.929 . S
C1649 C1647 1.433 1_565 S
C1649 N1652 1.384 . S
C1650 H1641 0.929 . S
C1650 C1642 1.378 . S
C1650 C1645 1.350 1_565 S
C1651 H1638 0.929 . S
C1651 C1643 1.433 . S
C1651 N1653 1.384 . S
N1652 C1648 1.427 1_565 S
N1652 C1649 1.384 . S
N1653 C1645 1.427 . S
N1653 C1651 1.384 . S
H1654 C1660 0.930 . S
H1655 C1664 0.930 . S
H1656 C1669 0.929 . S
H1657 C1667 0.929 . S
H1658 C1662 0.929 . S
H1659 C1668 0.929 . S
C1660 H1654 0.930 . S
C1660 C1661 1.367 . S
C1660 C1668 1.378 . S
C1661 C1660 1.367 . S
C1661 C1669 1.433 . S
C1662 H1658 0.929 . S
C1662 C1664 1.378 . S
C1662 C1666 1.350 . S
C1663 C1666 1.463 . S
C1663 C1668 1.350 . S
C1663 N1671 1.427 . S
C1664 H1655 0.930 . S
C1664 C1662 1.378 . S
C1664 C1665 1.367 . S
C1665 C1664 1.367 . S
C1665 C1667 1.433 . S
C1666 C1662 1.350 . S
C1666 C1663 1.463 . S
C1666 N1670 1.427 . S
C1667 H1657 0.929 . S
C1667 C1665 1.433 . S
C1667 N1670 1.384 . S
C1668 H1659 0.929 . S
C1668 C1660 1.378 . S
C1668 C1663 1.350 . S
C1669 H1656 0.929 . S
C1669 C1661 1.433 . S
C1669 N1671 1.384 . S
N1670 C1666 1.427 . S
N1670 C1667 1.384 . S
N1671 C1663 1.427 . S
N1671 C1669 1.384 . S
H1672 C1678 0.930 . S
H1673 C1682 0.951 . S
H1674 C1687 0.929 1_556 S
H1675 C1685 0.929 . S
H1676 C1680 0.929 1_556 S
H1677 C1686 0.929 . S
C1678 H1672 0.930 . S
C1678 C1679 1.367 . S
C1678 C1686 1.378 . S
C1679 C1678 1.367 . S
C1679 C1687 1.433 . S
C1680 H1676 0.929 1_554 S
C1680 C1682 1.375 1_554 S
C1680 C1684 1.350 . S
C1681 C1684 1.463 . S
C1681 C1686 1.350 . S
C1681 N1689 1.427 . S
C1682 H1673 0.951 . S
C1682 C1680 1.375 1_556 S
C1682 C1683 1.348 1_556 S
C1683 C1682 1.348 1_554 S
C1683 C1685 1.433 . S
C1684 C1680 1.350 . S
C1684 C1681 1.463 . S
C1684 N1688 1.427 . S
C1685 H1675 0.929 . S
C1685 C1683 1.433 . S
C1685 N1688 1.384 . S
C1686 H1677 0.929 . S
C1686 C1678 1.378 . S
C1686 C1681 1.350 . S
C1687 H1674 0.929 1_554 S
C1687 C1679 1.433 . S
C1687 N1689 1.384 . S
N1688 C1684 1.427 . S
N1688 C1685 1.384 . S
N1689 C1681 1.427 . S
N1689 C1687 1.384 . S
H1690 C1696 0.930 . S
H1691 C1700 0.930 . S
H1692 C1705 0.929 1_556 S
H1693 C1703 0.929 . S
H1694 C1698 0.929 . S
H1695 C1704 0.929 . S
C1696 H1690 0.930 . S
C1696 C1697 1.367 . S
C1696 C1704 1.378 . S
C1697 C1696 1.367 . S
C1697 C1705 1.433 . S
C1698 H1694 0.929 . S
C1698 C1700 1.378 . S
C1698 C1702 1.350 1_556 S
C1699 C1702 1.463 . S
C1699 C1704 1.350 . S
C1699 N1707 1.437 . S
C1700 H1691 0.930 . S
C1700 C1698 1.378 . S
C1700 C1701 1.367 1_556 S
C1701 C1700 1.367 1_554 S
C1701 C1703 1.433 . S
C1702 C1698 1.350 1_554 S
C1702 C1699 1.463 . S
C1702 N1706 1.427 . S
C1703 H1693 0.929 . S
C1703 C1701 1.433 . S
C1703 N1706 1.384 . S
C1704 H1695 0.929 . S
C1704 C1696 1.378 . S
C1704 C1699 1.350 . S
C1705 H1692 0.929 1_554 S
C1705 C1697 1.433 . S
C1705 N1707 1.387 . S
N1706 C1702 1.427 . S
N1706 C1703 1.384 . S
N1707 C1699 1.437 . S
N1707 C1705 1.387 . S
H1708 C1714 0.930 . S
H1709 C1718 0.930 . S
H1710 C1723 0.929 . S
H1711 C1721 0.929 . S
H1712 C1716 0.929 . S
H1713 C1722 0.929 . S
C1714 H1708 0.930 . S
C1714 C1715 1.367 . S
C1714 C1722 1.378 . S
C1715 C1714 1.367 . S
C1715 C1723 1.433 . S
C1716 H1712 0.929 . S
C1716 C1718 1.378 . S
C1716 C1720 1.350 . S
C1717 C1720 1.463 . S
C1717 C1722 1.350 . S
C1717 N1725 1.427 . S
C1718 H1709 0.930 . S
C1718 C1716 1.378 . S
C1718 C1719 1.367 . S
C1719 C1718 1.367 . S
C1719 C1721 1.433 . S
C1720 C1716 1.350 . S
C1720 C1717 1.463 . S
C1720 N1724 1.427 . S
C1721 H1711 0.929 . S
C1721 C1719 1.433 . S
C1721 N1724 1.384 . S
C1722 H1713 0.929 . S
C1722 C1714 1.378 . S
C1722 C1717 1.350 . S
C1723 H1710 0.929 . S
C1723 C1715 1.433 . S
C1723 N1725 1.384 . S
N1724 C1720 1.427 . S
N1724 C1721 1.384 . S
N1725 C1717 1.427 . S
N1725 C1723 1.384 . S
H1726 C1732 0.930 . S
H1727 C1736 0.930 . S
H1728 C1741 0.929 . S
H1729 C1739 0.929 . S
H1730 C1734 0.929 . S
H1731 C1740 0.929 . S
C1732 H1726 0.930 . S
C1732 C1733 1.367 . S
C1732 C1740 1.378 . S
C1733 C1732 1.367 . S
C1733 C1741 1.433 . S
C1734 H1730 0.929 . S
C1734 C1736 1.378 . S
C1734 C1738 1.350 . S
C1735 C1738 1.463 . S
C1735 C1740 1.350 . S
C1735 N1743 1.427 . S
C1736 H1727 0.930 . S
C1736 C1734 1.378 . S
C1736 C1737 1.367 . S
C1737 C1736 1.367 . S
C1737 C1739 1.433 . S
C1738 C1734 1.350 . S
C1738 C1735 1.463 . S
C1738 N1742 1.427 . S
C1739 H1729 0.929 . S
C1739 C1737 1.433 . S
C1739 N1742 1.384 . S
C1740 H1731 0.929 . S
C1740 C1732 1.378 . S
C1740 C1735 1.350 . S
C1741 H1728 0.929 . S
C1741 C1733 1.433 . S
C1741 N1743 1.384 . S
N1742 C1738 1.427 . S
N1742 C1739 1.384 . S
N1743 C1735 1.427 . S
N1743 C1741 1.384 . S
H1744 C1750 0.930 . S
H1745 C1754 0.930 . S
H1746 C1759 0.929 1_545 S
H1747 C1757 0.929 . S
H1748 C1752 0.929 . S
H1749 C1758 0.929 . S
C1750 H1744 0.930 . S
C1750 C1751 1.367 . S
C1750 C1758 1.378 1_545 S
C1751 C1750 1.367 . S
C1751 C1759 1.433 1_545 S
C1752 H1748 0.929 . S
C1752 C1754 1.378 . S
C1752 C1756 1.350 . S
C1753 C1756 1.463 . S
C1753 C1758 1.350 . S
C1753 N1761 1.427 . S
C1754 H1745 0.930 . S
C1754 C1752 1.378 . S
C1754 C1755 1.367 . S
C1755 C1754 1.367 . S
C1755 C1757 1.433 . S
C1756 C1752 1.350 . S
C1756 C1753 1.463 . S
C1756 N1760 1.427 . S
C1757 H1747 0.929 . S
C1757 C1755 1.433 . S
C1757 N1760 1.384 . S
C1758 H1749 0.929 . S
C1758 C1750 1.378 1_565 S
C1758 C1753 1.350 . S
C1759 H1746 0.929 1_565 S
C1759 C1751 1.433 1_565 S
C1759 N1761 1.384 . S
N1760 C1756 1.427 . S
N1760 C1757 1.384 . S
N1761 C1753 1.427 . S
N1761 C1759 1.384 . S
H1762 C1768 0.930 . S
H1763 C1772 0.930 . S
H1764 C1777 0.929 . S
H1765 C1775 0.929 . S
H1766 C1770 0.929 . S
H1767 C1776 0.929 . S
C1768 H1762 0.930 . S
C1768 C1769 1.367 . S
C1768 C1776 1.378 . S
C1769 C1768 1.367 . S
C1769 C1777 1.433 . S
C1770 H1766 0.929 . S
C1770 C1772 1.378 . S
C1770 C1774 1.350 . S
C1771 C1774 1.463 . S
C1771 C1776 1.350 . S
C1771 N1779 1.427 . S
C1772 H1763 0.930 . S
C1772 C1770 1.378 . S
C1772 C1773 1.367 . S
C1773 C1772 1.367 . S
C1773 C1775 1.433 . S
C1774 C1770 1.350 . S
C1774 C1771 1.463 . S
C1774 N1778 1.427 . S
C1775 H1765 0.929 . S
C1775 C1773 1.433 . S
C1775 N1778 1.384 . S
C1776 H1767 0.929 . S
C1776 C1768 1.378 . S
C1776 C1771 1.350 . S
C1777 H1764 0.929 . S
C1777 C1769 1.433 . S
C1777 N1779 1.384 . S
N1778 C1774 1.427 . S
N1778 C1775 1.384 . S
N1779 C1771 1.427 . S
N1779 C1777 1.384 . S
H1780 C1786 0.930 . S
H1781 C1790 0.930 . S
H1782 C1795 0.929 . S
H1783 C1793 0.929 . S
H1784 C1788 0.929 . S
H1785 C1794 0.929 . S
C1786 H1780 0.930 . S
C1786 C1787 1.367 . S
C1786 C1794 1.378 . S
C1787 C1786 1.367 . S
C1787 C1795 1.433 . S
C1788 H1784 0.929 . S
C1788 C1790 1.378 . S
C1788 C1792 1.350 . S
C1789 C1792 1.463 . S
C1789 C1794 1.350 . S
C1789 N1797 1.427 . S
C1790 H1781 0.930 . S
C1790 C1788 1.378 . S
C1790 C1791 1.367 . S
C1791 C1790 1.367 . S
C1791 C1793 1.433 . S
C1792 C1788 1.350 . S
C1792 C1789 1.463 . S
C1792 N1796 1.427 . S
C1793 H1783 0.929 . S
C1793 C1791 1.433 . S
C1793 N1796 1.384 . S
C1794 H1785 0.929 . S
C1794 C1786 1.378 . S
C1794 C1789 1.350 . S
C1795 H1782 0.929 . S
C1795 C1787 1.433 . S
C1795 N1797 1.384 . S
N1796 C1792 1.427 . S
N1796 C1793 1.384 . S
N1797 C1789 1.427 . S
N1797 C1795 1.384 . S
H1798 C1804 0.930 . S
H1799 C1808 0.930 . S
H1800 C1813 0.929 . S
H1801 C1811 0.929 . S
H1802 C1806 0.929 . S
H1803 C1812 0.929 . S
C1804 H1798 0.930 . S
C1804 C1805 1.367 . S
C1804 C1812 1.378 . S
C1805 C1804 1.367 . S
C1805 C1813 1.433 . S
C1806 H1802 0.929 . S
C1806 C1808 1.378 . S
C1806 C1810 1.350 . S
C1807 C1810 1.463 . S
C1807 C1812 1.350 . S
C1807 N1815 1.427 . S
C1808 H1799 0.930 . S
C1808 C1806 1.378 . S
C1808 C1809 1.367 . S
C1809 C1808 1.367 . S
C1809 C1811 1.433 . S
C1810 C1806 1.350 . S
C1810 C1807 1.463 . S
C1810 N1814 1.427 . S
C1811 H1801 0.929 . S
C1811 C1809 1.433 . S
C1811 N1814 1.384 . S
C1812 H1803 0.929 . S
C1812 C1804 1.378 . S
C1812 C1807 1.350 . S
C1813 H1800 0.929 . S
C1813 C1805 1.433 . S
C1813 N1815 1.384 . S
N1814 C1810 1.427 . S
N1814 C1811 1.384 . S
N1815 C1807 1.427 . S
N1815 C1813 1.384 . S
H1816 C1822 0.930 . S
H1817 C1826 0.930 . S
H1818 C1831 0.929 . S
H1819 C1829 0.929 . S
H1820 C1824 0.929 . S
H1821 C1830 0.929 . S
C1822 H1816 0.930 . S
C1822 C1823 1.367 . S
C1822 C1830 1.378 . S
C1823 C1822 1.367 . S
C1823 C1831 1.433 . S
C1824 H1820 0.929 . S
C1824 C1826 1.378 . S
C1824 C1828 1.350 . S
C1825 C1828 1.463 . S
C1825 C1830 1.350 . S
C1825 N1833 1.427 . S
C1826 H1817 0.930 . S
C1826 C1824 1.378 . S
C1826 C1827 1.367 . S
C1827 C1826 1.367 . S
C1827 C1829 1.433 . S
C1828 C1824 1.350 . S
C1828 C1825 1.463 . S
C1828 N1832 1.427 . S
C1829 H1819 0.929 . S
C1829 C1827 1.433 . S
C1829 N1832 1.384 . S
C1830 H1821 0.929 . S
C1830 C1822 1.378 . S
C1830 C1825 1.350 . S
C1831 H1818 0.929 . S
C1831 C1823 1.433 . S
C1831 N1833 1.384 . S
N1832 C1828 1.427 . S
N1832 C1829 1.384 . S
N1833 C1825 1.427 . S
N1833 C1831 1.384 . S
H1834 C1840 0.930 . S
H1835 C1844 0.930 . S
H1836 C1849 0.929 . S
H1837 C1847 0.929 . S
H1838 C1842 0.929 . S
H1839 C1848 0.929 . S
C1840 H1834 0.930 . S
C1840 C1841 1.367 . S
C1840 C1848 1.378 . S
C1841 C1840 1.367 . S
C1841 C1849 1.433 . S
C1842 H1838 0.929 . S
C1842 C1844 1.378 . S
C1842 C1846 1.350 . S
C1843 C1846 1.463 . S
C1843 C1848 1.350 . S
C1843 N1851 1.427 . S
C1844 H1835 0.930 . S
C1844 C1842 1.378 . S
C1844 C1845 1.367 . S
C1845 C1844 1.367 . S
C1845 C1847 1.433 . S
C1846 C1842 1.350 . S
C1846 C1843 1.463 . S
C1846 N1850 1.427 . S
C1847 H1837 0.929 . S
C1847 C1845 1.433 . S
C1847 N1850 1.384 . S
C1848 H1839 0.929 . S
C1848 C1840 1.378 . S
C1848 C1843 1.350 . S
C1849 H1836 0.929 . S
C1849 C1841 1.433 . S
C1849 N1851 1.384 . S
N1850 C1846 1.427 . S
N1850 C1847 1.384 . S
N1851 C1843 1.427 . S
N1851 C1849 1.384 . S
H1852 C1858 0.930 . S
H1853 C1862 0.930 . S
H1854 C1867 0.929 . S
H1855 C1865 0.929 1_655 S
H1856 C1860 0.929 . S
H1857 C1866 0.950 . S
C1858 H1852 0.930 . S
C1858 C1859 1.367 1_655 S
C1858 C1866 1.376 . S
C1859 C1858 1.367 1_455 S
C1859 C1867 1.433 . S
C1860 H1856 0.929 . S
C1860 C1862 1.378 . S
C1860 C1864 1.350 1_554 S
C1861 C1864 1.463 . S
C1861 C1866 1.331 1_455 S
C1861 N1869 1.427 . S
C1862 H1853 0.930 . S
C1862 C1860 1.378 . S
C1862 C1863 1.367 . S
C1863 C1862 1.367 . S
C1863 C1865 1.433 . S
C1864 C1860 1.350 1_556 S
C1864 C1861 1.463 . S
C1864 N1868 1.427 . S
C1865 H1855 0.929 1_455 S
C1865 C1863 1.433 . S
C1865 N1868 1.384 1_554 S
C1866 H1857 0.950 . S
C1866 C1858 1.376 . S
C1866 C1861 1.331 1_655 S
C1867 H1854 0.929 . S
C1867 C1859 1.433 . S
C1867 N1869 1.384 . S
N1868 C1864 1.427 . S
N1868 C1865 1.384 1_556 S
N1869 C1861 1.427 . S
N1869 C1867 1.384 . S
H1870 C1876 0.930 . S
H1871 C1880 0.930 . S
H1872 C1885 0.929 . S
H1873 C1883 0.929 . S
H1874 C1878 0.929 . S
H1875 C1884 0.929 . S
C1876 H1870 0.930 . S
C1876 C1877 1.367 . S
C1876 C1884 1.378 1_455 S
C1877 C1876 1.367 . S
C1877 C1885 1.433 . S
C1878 H1874 0.929 . S
C1878 C1880 1.378 . S
C1878 C1882 1.350 . S
C1879 C1882 1.463 . S
C1879 C1884 1.350 . S
C1879 N1887 1.427 . S
C1880 H1871 0.930 . S
C1880 C1878 1.378 . S
C1880 C1881 1.367 . S
C1881 C1880 1.367 . S
C1881 C1883 1.433 . S
C1882 C1878 1.350 . S
C1882 C1879 1.463 . S
C1882 N1886 1.427 . S
C1883 H1873 0.929 . S
C1883 C1881 1.433 . S
C1883 N1886 1.384 . S
C1884 H1875 0.929 . S
C1884 C1876 1.378 1_655 S
C1884 C1879 1.350 . S
C1885 H1872 0.929 . S
C1885 C1877 1.433 . S
C1885 N1887 1.384 1_455 S
N1886 C1882 1.427 . S
N1886 C1883 1.384 . S
N1887 C1879 1.427 . S
N1887 C1885 1.384 1_655 S
H1888 C1894 0.930 . S
H1889 C1898 0.930 . S
H1890 C1903 0.929 . S
H1891 C1901 0.929 . S
H1892 C1896 0.929 . S
H1893 C1902 0.929 . S
C1894 H1888 0.930 . S
C1894 C1895 1.367 . S
C1894 C1902 1.378 . S
C1895 C1894 1.367 . S
C1895 C1903 1.433 . S
C1896 H1892 0.929 . S
C1896 C1898 1.378 . S
C1896 C1900 1.350 . S
C1897 C1900 1.463 . S
C1897 C1902 1.350 . S
C1897 N1905 1.427 . S
C1898 H1889 0.930 . S
C1898 C1896 1.378 . S
C1898 C1899 1.367 . S
C1899 C1898 1.367 . S
C1899 C1901 1.433 . S
C1900 C1896 1.350 . S
C1900 C1897 1.463 . S
C1900 N1904 1.427 . S
C1901 H1891 0.929 . S
C1901 C1899 1.433 . S
C1901 N1904 1.384 . S
C1902 H1893 0.929 . S
C1902 C1894 1.378 . S
C1902 C1897 1.350 . S
C1903 H1890 0.929 . S
C1903 C1895 1.433 . S
C1903 N1905 1.384 . S
N1904 C1900 1.427 . S
N1904 C1901 1.384 . S
N1905 C1897 1.427 . S
N1905 C1903 1.384 . S
H1906 C1912 0.930 . S
H1907 C1916 0.930 . S
H1908 C1921 0.929 . S
H1909 C1919 0.929 . S
H1910 C1914 0.929 1_455 S
H1911 C1920 0.929 1_655 S
C1912 H1906 0.930 . S
C1912 C1913 1.367 . S
C1912 C1920 1.378 . S
C1913 C1912 1.367 . S
C1913 C1921 1.433 . S
C1914 H1910 0.929 1_655 S
C1914 C1916 1.378 . S
C1914 C1918 1.350 . S
C1915 C1918 1.463 1_455 S
C1915 C1920 1.350 . S
C1915 N1923 1.427 . S
C1916 H1907 0.930 . S
C1916 C1914 1.378 . S
C1916 C1917 1.367 . S
C1917 C1916 1.367 . S
C1917 C1919 1.433 . S
C1918 C1914 1.350 . S
C1918 C1915 1.463 1_655 S
C1918 N1922 1.427 . S
C1919 H1909 0.929 . S
C1919 C1917 1.433 . S
C1919 N1922 1.384 . S
C1920 H1911 0.929 1_455 S
C1920 C1912 1.378 . S
C1920 C1915 1.350 . S
C1921 H1908 0.929 . S
C1921 C1913 1.433 . S
C1921 N1923 1.384 . S
N1922 C1918 1.427 . S
N1922 C1919 1.384 . S
N1923 C1915 1.427 . S
N1923 C1921 1.384 . S
H1924 C1930 0.930 . S
H1925 C1934 0.930 . S
H1926 C1939 0.929 . S
H1927 C1937 0.929 . S
H1928 C1932 0.929 1_655 S
H1929 C1938 0.929 . S
C1930 H1924 0.930 . S
C1930 C1931 1.367 1_455 S
C1930 C1938 1.378 . S
C1931 C1930 1.367 1_655 S
C1931 C1939 1.433 . S
C1932 H1928 0.929 1_455 S
C1932 C1934 1.378 . S
C1932 C1936 1.350 . S
C1933 C1936 1.463 . S
C1933 C1938 1.350 . S
C1933 N1941 1.427 1_455 S
C1934 H1925 0.930 . S
C1934 C1932 1.378 . S
C1934 C1935 1.367 . S
C1935 C1934 1.367 . S
C1935 C1937 1.433 . S
C1936 C1932 1.350 . S
C1936 C1933 1.463 . S
C1936 N1940 1.427 . S
C1937 H1927 0.929 . S
C1937 C1935 1.433 . S
C1937 N1940 1.384 . S
C1938 H1929 0.929 . S
C1938 C1930 1.378 . S
C1938 C1933 1.350 . S
C1939 H1926 0.929 . S
C1939 C1931 1.433 . S
C1939 N1941 1.384 . S
N1940 C1936 1.427 . S
N1940 C1937 1.384 . S
N1941 C1933 1.427 1_655 S
N1941 C1939 1.384 . S
H1942 C1948 0.930 . S
H1943 C1952 0.930 . S
H1944 C1957 0.929 . S
H1945 C1955 0.929 . S
H1946 C1950 0.929 . S
H1947 C1956 0.929 . S
C1948 H1942 0.930 . S
C1948 C1949 1.367 . S
C1948 C1956 1.378 . S
C1949 C1948 1.367 . S
C1949 C1957 1.433 . S
C1950 H1946 0.929 . S
C1950 C1952 1.378 . S
C1950 C1954 1.350 . S
C1951 C1954 1.463 . S
C1951 C1956 1.350 . S
C1951 N1959 1.427 . S
C1952 H1943 0.930 . S
C1952 C1950 1.378 . S
C1952 C1953 1.367 . S
C1953 C1952 1.367 . S
C1953 C1955 1.433 . S
C1954 C1950 1.350 . S
C1954 C1951 1.463 . S
C1954 N1958 1.427 . S
C1955 H1945 0.929 . S
C1955 C1953 1.433 . S
C1955 N1958 1.384 . S
C1956 H1947 0.929 . S
C1956 C1948 1.378 . S
C1956 C1951 1.350 . S
C1957 H1944 0.929 . S
C1957 C1949 1.433 . S
C1957 N1959 1.384 . S
N1958 C1954 1.427 . S
N1958 C1955 1.384 . S
N1959 C1951 1.427 . S
N1959 C1957 1.384 . S
H1960 C1966 0.930 . S
H1961 C1970 0.930 . S
H1962 C1975 0.929 . S
H1963 C1973 0.929 . S
H1964 C1968 0.929 . S
H1965 C1974 0.929 . S
C1966 H1960 0.930 . S
C1966 C1967 1.367 . S
C1966 C1974 1.378 . S
C1967 C1966 1.367 . S
C1967 C1975 1.433 . S
C1968 H1964 0.929 . S
C1968 C1970 1.378 . S
C1968 C1972 1.350 . S
C1969 C1972 1.463 . S
C1969 C1974 1.350 . S
C1969 N1977 1.427 . S
C1970 H1961 0.930 . S
C1970 C1968 1.378 . S
C1970 C1971 1.367 . S
C1971 C1970 1.367 . S
C1971 C1973 1.433 . S
C1972 C1968 1.350 . S
C1972 C1969 1.463 . S
C1972 N1976 1.427 . S
C1973 H1963 0.929 . S
C1973 C1971 1.433 . S
C1973 N1976 1.384 . S
C1974 H1965 0.929 . S
C1974 C1966 1.378 . S
C1974 C1969 1.350 . S
C1975 H1962 0.929 . S
C1975 C1967 1.433 . S
C1975 N1977 1.384 . S
N1976 C1972 1.427 . S
N1976 C1973 1.384 . S
N1977 C1969 1.427 . S
N1977 C1975 1.384 . S
H1978 C1984 0.930 . S
H1979 C1988 0.930 . S
H1980 C1993 0.969 . S
H1981 C1991 0.929 . S
H1982 C1986 0.929 . S
H1983 C1992 0.929 . S
C1984 H1978 0.930 . S
C1984 C1985 1.367 . S
C1984 C1992 1.378 . S
C1985 C1984 1.367 . S
C1985 C1993 1.433 . S
C1986 H1982 0.929 . S
C1986 C1988 1.378 . S
C1986 C1990 1.350 . S
C1987 C1990 1.463 . S
C1987 C1992 1.350 . S
C1987 N1995 1.427 . S
C1988 H1979 0.930 . S
C1988 C1986 1.378 . S
C1988 C1989 1.367 . S
C1989 C1988 1.367 . S
C1989 C1991 1.433 . S
C1990 C1986 1.350 . S
C1990 C1987 1.463 . S
C1990 N1994 1.427 . S
C1991 H1981 0.929 . S
C1991 C1989 1.433 . S
C1991 N1994 1.384 . S
C1992 H1983 0.929 . S
C1992 C1984 1.378 . S
C1992 C1987 1.350 . S
C1993 H1980 0.969 . S
C1993 C1985 1.433 . S
C1993 N1995 1.384 . S
N1994 C1990 1.427 . S
N1994 C1991 1.384 . S
N1995 C1987 1.427 . S
N1995 C1993 1.384 . S
H1996 C2002 0.930 . S
H1997 C2006 0.930 . S
H1998 C2011 0.929 . S
H1999 C2009 0.929 . S
H2000 C2004 0.929 . S
H2001 C2010 0.929 . S
C2002 H1996 0.930 . S
C2002 C2003 1.367 . S
C2002 C2010 1.378 . S
C2003 C2002 1.367 . S
C2003 C2011 1.433 . S
C2004 H2000 0.929 . S
C2004 C2006 1.378 . S
C2004 C2008 1.350 . S
C2005 C2008 1.463 . S
C2005 C2010 1.350 . S
C2005 N2013 1.427 . S
C2006 H1997 0.930 . S
C2006 C2004 1.378 . S
C2006 C2007 1.367 . S
C2007 C2006 1.367 . S
C2007 C2009 1.433 . S
C2008 C2004 1.350 . S
C2008 C2005 1.463 . S
C2008 N2012 1.427 . S
C2009 H1999 0.929 . S
C2009 C2007 1.433 . S
C2009 N2012 1.384 . S
C2010 H2001 0.929 . S
C2010 C2002 1.378 . S
C2010 C2005 1.350 . S
C2011 H1998 0.929 . S
C2011 C2003 1.433 . S
C2011 N2013 1.384 . S
N2012 C2008 1.427 . S
N2012 C2009 1.384 . S
N2013 C2005 1.427 . S
N2013 C2011 1.384 . S
H2014 C2020 0.930 . S
H2015 C2024 0.930 . S
H2016 C2029 0.929 . S
H2017 C2027 0.929 . S
H2018 C2022 0.929 . S
H2019 C2028 0.929 . S
C2020 H2014 0.930 . S
C2020 C2021 1.367 . S
C2020 C2028 1.378 . S
C2021 C2020 1.367 . S
C2021 C2029 1.433 . S
C2022 H2018 0.929 . S
C2022 C2024 1.378 . S
C2022 C2026 1.350 . S
C2023 C2026 1.463 . S
C2023 C2028 1.350 . S
C2023 N2031 1.427 . S
C2024 H2015 0.930 . S
C2024 C2022 1.378 . S
C2024 C2025 1.367 . S
C2025 C2024 1.367 . S
C2025 C2027 1.433 . S
C2026 C2022 1.350 . S
C2026 C2023 1.463 . S
C2026 N2030 1.427 . S
C2027 H2017 0.929 . S
C2027 C2025 1.433 . S
C2027 N2030 1.384 . S
C2028 H2019 0.929 . S
C2028 C2020 1.378 . S
C2028 C2023 1.350 . S
C2029 H2016 0.929 . S
C2029 C2021 1.433 . S
C2029 N2031 1.384 . S
N2030 C2026 1.427 . S
N2030 C2027 1.384 . S
N2031 C2023 1.427 . S
N2031 C2029 1.384 . S
H2032 C2038 0.930 . S
H2033 C2042 0.930 . S
H2034 C2047 0.929 . S
H2035 C2045 0.929 . S
H2036 C2040 0.929 . S
H2037 C2046 0.929 . S
C2038 H2032 0.930 . S
C2038 C2039 1.367 . S
C2038 C2046 1.378 . S
C2039 C2038 1.367 . S
C2039 C2047 1.433 . S
C2040 H2036 0.929 . S
C2040 C2042 1.378 . S
C2040 C2044 1.350 . S
C2041 C2044 1.463 . S
C2041 C2046 1.350 . S
C2041 N2049 1.427 . S
C2042 H2033 0.930 . S
C2042 C2040 1.378 . S
C2042 C2043 1.367 . S
C2043 C2042 1.367 . S
C2043 C2045 1.433 . S
C2044 C2040 1.350 . S
C2044 C2041 1.463 . S
C2044 N2048 1.427 . S
C2045 H2035 0.929 . S
C2045 C2043 1.433 . S
C2045 N2048 1.384 . S
C2046 H2037 0.929 . S
C2046 C2038 1.378 . S
C2046 C2041 1.350 . S
C2047 H2034 0.929 . S
C2047 C2039 1.433 . S
C2047 N2049 1.384 . S
N2048 C2044 1.427 . S
N2048 C2045 1.384 . S
N2049 C2041 1.427 . S
N2049 C2047 1.384 . S
H2050 C2056 0.930 . S
H2051 C2060 0.930 . S
H2052 C2065 0.929 . S
H2053 C2063 0.929 . S
H2054 C2058 0.929 . S
H2055 C2064 0.929 . S
C2056 H2050 0.930 . S
C2056 C2057 1.367 . S
C2056 C2064 1.378 . S
C2057 C2056 1.367 . S
C2057 C2065 1.433 . S
C2058 H2054 0.929 . S
C2058 C2060 1.378 . S
C2058 C2062 1.350 . S
C2059 C2062 1.463 . S
C2059 C2064 1.350 . S
C2059 N2067 1.427 . S
C2060 H2051 0.930 . S
C2060 C2058 1.378 . S
C2060 C2061 1.367 . S
C2061 C2060 1.367 . S
C2061 C2063 1.433 . S
C2062 C2058 1.350 . S
C2062 C2059 1.463 . S
C2062 N2066 1.427 . S
C2063 H2053 0.929 . S
C2063 C2061 1.433 . S
C2063 N2066 1.384 . S
C2064 H2055 0.929 . S
C2064 C2056 1.378 . S
C2064 C2059 1.350 . S
C2065 H2052 0.929 . S
C2065 C2057 1.433 . S
C2065 N2067 1.384 . S
N2066 C2062 1.427 . S
N2066 C2063 1.384 . S
N2067 C2059 1.427 . S
N2067 C2065 1.384 . S
H2068 C2074 0.930 . S
H2069 C2078 0.930 . S
H2070 C2083 0.929 . S
H2071 C2081 0.929 . S
H2072 C2076 0.929 . S
H2073 C2082 0.929 . S
C2074 H2068 0.930 . S
C2074 C2075 1.367 . S
C2074 C2082 1.378 . S
C2075 C2074 1.367 . S
C2075 C2083 1.433 . S
C2076 H2072 0.929 . S
C2076 C2078 1.378 . S
C2076 C2080 1.350 . S
C2077 C2080 1.463 . S
C2077 C2082 1.350 . S
C2077 N2085 1.427 . S
C2078 H2069 0.930 . S
C2078 C2076 1.378 . S
C2078 C2079 1.367 . S
C2079 C2078 1.367 . S
C2079 C2081 1.433 . S
C2080 C2076 1.350 . S
C2080 C2077 1.463 . S
C2080 N2084 1.427 . S
C2081 H2071 0.929 . S
C2081 C2079 1.433 . S
C2081 N2084 1.384 . S
C2082 H2073 0.929 . S
C2082 C2074 1.378 . S
C2082 C2077 1.350 . S
C2083 H2070 0.929 . S
C2083 C2075 1.433 . S
C2083 N2085 1.384 . S
N2084 C2080 1.427 . S
N2084 C2081 1.384 . S
N2085 C2077 1.427 . S
N2085 C2083 1.384 . S
H2086 C2092 0.930 . S
H2087 C2096 0.930 . S
H2088 C2101 0.929 . S
H2089 C2099 0.929 . S
H2090 C2094 0.929 . S
H2091 C2100 0.929 . S
C2092 H2086 0.930 . S
C2092 C2093 1.367 . S
C2092 C2100 1.378 . S
C2093 C2092 1.367 . S
C2093 C2101 1.433 . S
C2094 H2090 0.929 . S
C2094 C2096 1.378 . S
C2094 C2098 1.350 . S
C2095 C2098 1.463 . S
C2095 C2100 1.350 . S
C2095 N2103 1.427 . S
C2096 H2087 0.930 . S
C2096 C2094 1.378 . S
C2096 C2097 1.367 . S
C2097 C2096 1.367 . S
C2097 C2099 1.433 . S
C2098 C2094 1.350 . S
C2098 C2095 1.463 . S
C2098 N2102 1.427 . S
C2099 H2089 0.929 . S
C2099 C2097 1.433 . S
C2099 N2102 1.384 . S
C2100 H2091 0.929 . S
C2100 C2092 1.378 . S
C2100 C2095 1.350 . S
C2101 H2088 0.929 . S
C2101 C2093 1.433 . S
C2101 N2103 1.384 . S
N2102 C2098 1.427 . S
N2102 C2099 1.384 . S
N2103 C2095 1.427 . S
N2103 C2101 1.384 . S
H2104 C2110 0.930 . S
H2105 C2114 0.930 . S
H2106 C2119 0.929 . S
H2107 C2117 0.929 . S
H2108 C2112 0.929 . S
H2109 C2118 0.929 . S
C2110 H2104 0.930 . S
C2110 C2111 1.367 . S
C2110 C2118 1.378 . S
C2111 C2110 1.367 . S
C2111 C2119 1.433 . S
C2112 H2108 0.929 . S
C2112 C2114 1.378 . S
C2112 C2116 1.350 . S
C2113 C2116 1.463 . S
C2113 C2118 1.350 . S
C2113 N2121 1.427 . S
C2114 H2105 0.930 . S
C2114 C2112 1.378 . S
C2114 C2115 1.367 . S
C2115 C2114 1.367 . S
C2115 C2117 1.433 . S
C2116 C2112 1.350 . S
C2116 C2113 1.463 . S
C2116 N2120 1.427 . S
C2117 H2107 0.929 . S
C2117 C2115 1.433 . S
C2117 N2120 1.384 . S
C2118 H2109 0.929 . S
C2118 C2110 1.378 . S
C2118 C2113 1.350 . S
C2119 H2106 0.929 . S
C2119 C2111 1.433 . S
C2119 N2121 1.384 . S
N2120 C2116 1.427 . S
N2120 C2117 1.384 . S
N2121 C2113 1.427 . S
N2121 C2119 1.384 . S
H2122 C2128 0.930 . S
H2123 C2132 0.930 . S
H2124 C2137 0.929 . S
H2125 C2135 0.929 . S
H2126 C2130 0.929 . S
H2127 C2136 0.929 . S
C2128 H2122 0.930 . S
C2128 C2129 1.367 . S
C2128 C2136 1.378 . S
C2129 C2128 1.367 . S
C2129 C2137 1.433 . S
C2130 H2126 0.929 . S
C2130 C2132 1.378 . S
C2130 C2134 1.350 . S
C2131 C2134 1.463 . S
C2131 C2136 1.350 . S
C2131 N2139 1.427 . S
C2132 H2123 0.930 . S
C2132 C2130 1.378 . S
C2132 C2133 1.367 . S
C2133 C2132 1.367 . S
C2133 C2135 1.433 . S
C2134 C2130 1.350 . S
C2134 C2131 1.463 . S
C2134 N2138 1.427 . S
C2135 H2125 0.929 . S
C2135 C2133 1.433 . S
C2135 N2138 1.384 . S
C2136 H2127 0.929 . S
C2136 C2128 1.378 . S
C2136 C2131 1.350 . S
C2137 H2124 0.929 . S
C2137 C2129 1.433 . S
C2137 N2139 1.384 . S
N2138 C2134 1.427 . S
N2138 C2135 1.384 . S
N2139 C2131 1.427 . S
N2139 C2137 1.384 . S
H2140 C2146 0.930 . S
H2141 C2150 0.930 . S
H2142 C2155 0.929 . S
H2143 C2153 0.929 . S
H2144 C2148 0.929 . S
H2145 C2154 0.929 . S
C2146 H2140 0.930 . S
C2146 C2147 1.367 . S
C2146 C2154 1.378 . S
C2147 C2146 1.367 . S
C2147 C2155 1.433 . S
C2148 H2144 0.929 . S
C2148 C2150 1.378 . S
C2148 C2152 1.350 . S
C2149 C2152 1.463 . S
C2149 C2154 1.350 . S
C2149 N2157 1.427 . S
C2150 H2141 0.930 . S
C2150 C2148 1.378 . S
C2150 C2151 1.367 . S
C2151 C2150 1.367 . S
C2151 C2153 1.433 . S
C2152 C2148 1.350 . S
C2152 C2149 1.463 . S
C2152 N2156 1.427 . S
C2153 H2143 0.929 . S
C2153 C2151 1.433 . S
C2153 N2156 1.384 . S
C2154 H2145 0.929 . S
C2154 C2146 1.378 . S
C2154 C2149 1.350 . S
C2155 H2142 0.929 . S
C2155 C2147 1.433 . S
C2155 N2157 1.384 . S
N2156 C2152 1.427 . S
N2156 C2153 1.384 . S
N2157 C2149 1.427 . S
N2157 C2155 1.384 . S
H2158 C2164 0.930 . S
H2159 C2168 0.930 . S
H2160 C2173 0.929 . S
H2161 C2171 0.929 . S
H2162 C2166 0.929 . S
H2163 C2172 0.929 . S
C2164 H2158 0.930 . S
C2164 C2165 1.367 . S
C2164 C2172 1.378 . S
C2165 C2164 1.367 . S
C2165 C2173 1.433 1_554 S
C2166 H2162 0.929 . S
C2166 C2168 1.378 . S
C2166 C2170 1.350 1_556 S
C2167 C2170 1.463 1_565 S
C2167 C2172 1.350 . S
C2167 N2175 1.427 1_554 S
C2168 H2159 0.930 . S
C2168 C2166 1.378 . S
C2168 C2169 1.367 1_556 S
C2169 C2168 1.367 1_554 S
C2169 C2171 1.433 . S
C2170 C2166 1.350 1_554 S
C2170 C2167 1.463 1_545 S
C2170 N2174 1.427 . S
C2171 H2161 0.929 . S
C2171 C2169 1.433 . S
C2171 N2174 1.384 . S
C2172 H2163 0.929 . S
C2172 C2164 1.378 . S
C2172 C2167 1.350 . S
C2173 H2160 0.929 . S
C2173 C2165 1.433 1_556 S
C2173 N2175 1.384 . S
N2174 C2170 1.427 . S
N2174 C2171 1.384 . S
N2175 C2167 1.427 1_556 S
N2175 C2173 1.384 . S
H2176 C2182 0.930 . S
H2177 C2186 0.930 . S
H2178 C2191 0.929 . S
H2179 C2189 0.929 . S
H2180 C2184 0.929 . S
H2181 C2190 0.929 . S
C2182 H2176 0.930 . S
C2182 C2183 1.367 . S
C2182 C2190 1.378 . S
C2183 C2182 1.367 . S
C2183 C2191 1.433 . S
C2184 H2180 0.929 . S
C2184 C2186 1.378 . S
C2184 C2188 1.350 . S
C2185 C2188 1.463 . S
C2185 C2190 1.350 . S
C2185 N2193 1.427 . S
C2186 H2177 0.930 . S
C2186 C2184 1.378 . S
C2186 C2187 1.367 . S
C2187 C2186 1.367 . S
C2187 C2189 1.433 . S
C2188 C2184 1.350 . S
C2188 C2185 1.463 . S
C2188 N2192 1.427 . S
C2189 H2179 0.929 . S
C2189 C2187 1.433 . S
C2189 N2192 1.384 . S
C2190 H2181 0.929 . S
C2190 C2182 1.378 . S
C2190 C2185 1.350 . S
C2191 H2178 0.929 . S
C2191 C2183 1.433 . S
C2191 N2193 1.384 . S
N2192 C2188 1.427 . S
N2192 C2189 1.384 . S
N2193 C2185 1.427 . S
N2193 C2191 1.384 . S
H2194 C2200 0.930 . S
H2195 C2204 0.930 . S
H2196 C2209 0.929 . S
H2197 C2207 0.929 . S
H2198 C2202 0.929 . S
H2199 C2208 0.929 . S
C2200 H2194 0.930 . S
C2200 C2201 1.367 . S
C2200 C2208 1.378 . S
C2201 C2200 1.367 . S
C2201 C2209 1.433 . S
C2202 H2198 0.929 . S
C2202 C2204 1.378 . S
C2202 C2206 1.350 . S
C2203 C2206 1.463 . S
C2203 C2208 1.350 . S
C2203 N2211 1.427 . S
C2204 H2195 0.930 . S
C2204 C2202 1.378 . S
C2204 C2205 1.367 . S
C2205 C2204 1.367 . S
C2205 C2207 1.433 . S
C2206 C2202 1.350 . S
C2206 C2203 1.463 . S
C2206 N2210 1.427 . S
C2207 H2197 0.929 . S
C2207 C2205 1.433 . S
C2207 N2210 1.384 . S
C2208 H2199 0.929 . S
C2208 C2200 1.378 . S
C2208 C2203 1.350 . S
C2209 H2196 0.929 . S
C2209 C2201 1.433 . S
C2209 N2211 1.384 . S
N2210 C2206 1.427 . S
N2210 C2207 1.384 . S
N2211 C2203 1.427 . S
N2211 C2209 1.384 . S
H2212 C2218 0.930 . S
H2213 C2222 0.930 . S
H2214 C2227 0.929 . S
H2215 C2225 0.929 . S
H2216 C2220 0.929 . S
H2217 C2226 0.929 . S
C2218 H2212 0.930 . S
C2218 C2219 1.367 . S
C2218 C2226 1.378 . S
C2219 C2218 1.367 . S
C2219 C2227 1.433 . S
C2220 H2216 0.929 . S
C2220 C2222 1.378 . S
C2220 C2224 1.350 . S
C2221 C2224 1.463 . S
C2221 C2226 1.350 . S
C2221 N2229 1.427 . S
C2222 H2213 0.930 . S
C2222 C2220 1.378 . S
C2222 C2223 1.367 . S
C2223 C2222 1.367 . S
C2223 C2225 1.433 . S
C2224 C2220 1.350 . S
C2224 C2221 1.463 . S
C2224 N2228 1.427 . S
C2225 H2215 0.929 . S
C2225 C2223 1.433 . S
C2225 N2228 1.384 . S
C2226 H2217 0.929 . S
C2226 C2218 1.378 . S
C2226 C2221 1.350 . S
C2227 H2214 0.929 . S
C2227 C2219 1.433 . S
C2227 N2229 1.384 . S
N2228 C2224 1.427 . S
N2228 C2225 1.384 . S
N2229 C2221 1.427 . S
N2229 C2227 1.384 . S
H2230 C2236 0.930 . S
H2231 C2240 0.930 . S
H2232 C2245 0.929 . S
H2233 C2243 0.929 . S
H2234 C2238 0.929 . S
H2235 C2244 0.929 . S
C2236 H2230 0.930 . S
C2236 C2237 1.367 . S
C2236 C2244 1.378 . S
C2237 C2236 1.367 . S
C2237 C2245 1.433 . S
C2238 H2234 0.929 . S
C2238 C2240 1.378 . S
C2238 C2242 1.350 . S
C2239 C2242 1.463 . S
C2239 C2244 1.350 . S
C2239 N2247 1.427 . S
C2240 H2231 0.930 . S
C2240 C2238 1.378 . S
C2240 C2241 1.367 . S
C2241 C2240 1.367 . S
C2241 C2243 1.433 . S
C2242 C2238 1.350 . S
C2242 C2239 1.463 . S
C2242 N2246 1.427 . S
C2243 H2233 0.929 . S
C2243 C2241 1.433 . S
C2243 N2246 1.384 . S
C2244 H2235 0.929 . S
C2244 C2236 1.378 . S
C2244 C2239 1.350 . S
C2245 H2232 0.929 . S
C2245 C2237 1.433 . S
C2245 N2247 1.384 . S
N2246 C2242 1.427 . S
N2246 C2243 1.384 . S
N2247 C2239 1.427 . S
N2247 C2245 1.384 . S
H2248 C2254 0.930 . S
H2249 C2258 0.930 . S
H2250 C2263 0.929 . S
H2251 C2261 0.929 . S
H2252 C2256 0.929 . S
H2253 C2262 0.929 . S
C2254 H2248 0.930 . S
C2254 C2255 1.367 . S
C2254 C2262 1.378 . S
C2255 C2254 1.367 . S
C2255 C2263 1.433 . S
C2256 H2252 0.929 . S
C2256 C2258 1.378 . S
C2256 C2260 1.350 . S
C2257 C2260 1.463 . S
C2257 C2262 1.350 . S
C2257 N2265 1.427 . S
C2258 H2249 0.930 . S
C2258 C2256 1.378 . S
C2258 C2259 1.367 . S
C2259 C2258 1.367 . S
C2259 C2261 1.433 . S
C2260 C2256 1.350 . S
C2260 C2257 1.463 . S
C2260 N2264 1.427 . S
C2261 H2251 0.929 . S
C2261 C2259 1.433 . S
C2261 N2264 1.384 . S
C2262 H2253 0.929 . S
C2262 C2254 1.378 . S
C2262 C2257 1.350 . S
C2263 H2250 0.929 . S
C2263 C2255 1.433 . S
C2263 N2265 1.384 . S
N2264 C2260 1.427 . S
N2264 C2261 1.384 . S
N2265 C2257 1.427 . S
N2265 C2263 1.384 . S
H2266 C2272 0.930 . S
H2267 C2276 0.930 . S
H2268 C2281 0.929 . S
H2269 C2279 0.929 . S
H2270 C2274 0.929 . S
H2271 C2280 0.929 . S
C2272 H2266 0.930 . S
C2272 C2273 1.367 . S
C2272 C2280 1.378 . S
C2273 C2272 1.367 . S
C2273 C2281 1.433 . S
C2274 H2270 0.929 . S
C2274 C2276 1.378 . S
C2274 C2278 1.350 . S
C2275 C2278 1.463 . S
C2275 C2280 1.350 . S
C2275 N2283 1.427 . S
C2276 H2267 0.930 . S
C2276 C2274 1.378 . S
C2276 C2277 1.367 . S
C2277 C2276 1.367 . S
C2277 C2279 1.433 . S
C2278 C2274 1.350 . S
C2278 C2275 1.463 . S
C2278 N2282 1.427 . S
C2279 H2269 0.929 . S
C2279 C2277 1.433 . S
C2279 N2282 1.384 . S
C2280 H2271 0.929 . S
C2280 C2272 1.378 . S
C2280 C2275 1.350 . S
C2281 H2268 0.929 . S
C2281 C2273 1.433 . S
C2281 N2283 1.384 . S
N2282 C2278 1.427 . S
N2282 C2279 1.384 . S
N2283 C2275 1.427 . S
N2283 C2281 1.384 . S
H2284 C2290 0.930 . S
H2285 C2294 0.930 . S
H2286 C2299 0.929 . S
H2287 C2297 0.929 . S
H2288 C2292 0.929 . S
H2289 C2298 0.929 . S
C2290 H2284 0.930 . S
C2290 C2291 1.367 . S
C2290 C2298 1.378 . S
C2291 C2290 1.367 . S
C2291 C2299 1.433 . S
C2292 H2288 0.929 . S
C2292 C2294 1.378 . S
C2292 C2296 1.350 . S
C2293 C2296 1.463 . S
C2293 C2298 1.350 . S
C2293 N2301 1.427 . S
C2294 H2285 0.930 . S
C2294 C2292 1.378 . S
C2294 C2295 1.367 . S
C2295 C2294 1.367 . S
C2295 C2297 1.433 . S
C2296 C2292 1.350 . S
C2296 C2293 1.463 . S
C2296 N2300 1.427 . S
C2297 H2287 0.929 . S
C2297 C2295 1.433 . S
C2297 N2300 1.384 . S
C2298 H2289 0.929 . S
C2298 C2290 1.378 . S
C2298 C2293 1.350 . S
C2299 H2286 0.929 . S
C2299 C2291 1.433 . S
C2299 N2301 1.384 . S
N2300 C2296 1.427 . S
N2300 C2297 1.384 . S
N2301 C2293 1.427 . S
N2301 C2299 1.384 . S
H2302 C2308 0.930 . S
H2303 C2312 0.930 . S
H2304 C2317 0.929 . S
H2305 C2315 0.929 . S
H2306 C2310 0.929 . S
H2307 C2316 0.929 . S
C2308 H2302 0.930 . S
C2308 C2309 1.367 . S
C2308 C2316 1.378 . S
C2309 C2308 1.367 . S
C2309 C2317 1.433 . S
C2310 H2306 0.929 . S
C2310 C2312 1.378 . S
C2310 C2314 1.350 . S
C2311 C2314 1.463 . S
C2311 C2316 1.350 . S
C2311 N2319 1.427 . S
C2312 H2303 0.930 . S
C2312 C2310 1.378 . S
C2312 C2313 1.367 . S
C2313 C2312 1.367 . S
C2313 C2315 1.433 . S
C2314 C2310 1.350 . S
C2314 C2311 1.463 . S
C2314 N2318 1.427 . S
C2315 H2305 0.929 . S
C2315 C2313 1.433 . S
C2315 N2318 1.384 . S
C2316 H2307 0.929 . S
C2316 C2308 1.378 . S
C2316 C2311 1.350 . S
C2317 H2304 0.929 . S
C2317 C2309 1.433 . S
C2317 N2319 1.384 . S
N2318 C2314 1.427 . S
N2318 C2315 1.384 . S
N2319 C2311 1.427 . S
N2319 C2317 1.384 . S
H2320 C2326 0.930 . S
H2321 C2330 0.930 . S
H2322 C2335 0.929 . S
H2323 C2333 0.929 . S
H2324 C2328 0.929 . S
H2325 C2334 0.929 . S
C2326 H2320 0.930 . S
C2326 C2327 1.367 . S
C2326 C2334 1.378 . S
C2327 C2326 1.367 . S
C2327 C2335 1.433 . S
C2328 H2324 0.929 . S
C2328 C2330 1.378 . S
C2328 C2332 1.350 . S
C2329 C2332 1.463 . S
C2329 C2334 1.350 . S
C2329 N2337 1.427 . S
C2330 H2321 0.930 . S
C2330 C2328 1.378 . S
C2330 C2331 1.367 . S
C2331 C2330 1.367 . S
C2331 C2333 1.433 . S
C2332 C2328 1.350 . S
C2332 C2329 1.463 . S
C2332 N2336 1.427 . S
C2333 H2323 0.929 . S
C2333 C2331 1.433 . S
C2333 N2336 1.384 . S
C2334 H2325 0.929 . S
C2334 C2326 1.378 . S
C2334 C2329 1.350 . S
C2335 H2322 0.929 . S
C2335 C2327 1.433 . S
C2335 N2337 1.384 . S
N2336 C2332 1.427 . S
N2336 C2333 1.384 . S
N2337 C2329 1.427 . S
N2337 C2335 1.384 . S
H2338 C2344 0.930 . S
H2339 C2348 0.930 . S
H2340 C2353 0.929 . S
H2341 C2351 0.929 . S
H2342 C2346 0.929 . S
H2343 C2352 0.929 . S
C2344 H2338 0.930 . S
C2344 C2345 1.367 . S
C2344 C2352 1.378 . S
C2345 C2344 1.367 . S
C2345 C2353 1.433 . S
C2346 H2342 0.929 . S
C2346 C2348 1.378 . S
C2346 C2350 1.350 . S
C2347 C2350 1.463 . S
C2347 C2352 1.350 . S
C2347 N2355 1.427 . S
C2348 H2339 0.930 . S
C2348 C2346 1.378 . S
C2348 C2349 1.367 . S
C2349 C2348 1.367 . S
C2349 C2351 1.433 . S
C2350 C2346 1.350 . S
C2350 C2347 1.463 . S
C2350 N2354 1.427 . S
C2351 H2341 0.929 . S
C2351 C2349 1.433 . S
C2351 N2354 1.384 . S
C2352 H2343 0.929 . S
C2352 C2344 1.378 . S
C2352 C2347 1.350 . S
C2353 H2340 0.929 . S
C2353 C2345 1.433 . S
C2353 N2355 1.384 . S
N2354 C2350 1.427 . S
N2354 C2351 1.384 . S
N2355 C2347 1.427 . S
N2355 C2353 1.384 . S
H2356 C2362 0.930 . S
H2357 C2366 0.930 . S
H2358 C2371 0.929 . S
H2359 C2369 0.929 . S
H2360 C2364 0.929 . S
H2361 C2370 0.929 . S
C2362 H2356 0.930 . S
C2362 C2363 1.367 . S
C2362 C2370 1.378 . S
C2363 C2362 1.367 . S
C2363 C2371 1.433 . S
C2364 H2360 0.929 . S
C2364 C2366 1.378 . S
C2364 C2368 1.350 . S
C2365 C2368 1.463 . S
C2365 C2370 1.350 . S
C2365 N2373 1.427 . S
C2366 H2357 0.930 . S
C2366 C2364 1.378 . S
C2366 C2367 1.367 . S
C2367 C2366 1.367 . S
C2367 C2369 1.433 . S
C2368 C2364 1.350 . S
C2368 C2365 1.463 . S
C2368 N2372 1.427 . S
C2369 H2359 0.929 . S
C2369 C2367 1.433 . S
C2369 N2372 1.384 . S
C2370 H2361 0.929 . S
C2370 C2362 1.378 . S
C2370 C2365 1.350 . S
C2371 H2358 0.929 . S
C2371 C2363 1.433 . S
C2371 N2373 1.384 . S
N2372 C2368 1.427 . S
N2372 C2369 1.384 . S
N2373 C2365 1.427 . S
N2373 C2371 1.384 . S
H2374 C2380 0.930 . S
H2375 C2384 0.930 . S
H2376 C2389 0.929 . S
H2377 C2387 0.929 . S
H2378 C2382 0.929 . S
H2379 C2388 0.929 . S
C2380 H2374 0.930 . S
C2380 C2381 1.367 . S
C2380 C2388 1.378 . S
C2381 C2380 1.367 . S
C2381 C2389 1.433 . S
C2382 H2378 0.929 . S
C2382 C2384 1.378 . S
C2382 C2386 1.350 . S
C2383 C2386 1.463 . S
C2383 C2388 1.350 . S
C2383 N2391 1.427 . S
C2384 H2375 0.930 . S
C2384 C2382 1.378 . S
C2384 C2385 1.367 . S
C2385 C2384 1.367 . S
C2385 C2387 1.433 . S
C2386 C2382 1.350 . S
C2386 C2383 1.463 . S
C2386 N2390 1.427 . S
C2387 H2377 0.929 . S
C2387 C2385 1.433 . S
C2387 N2390 1.384 . S
C2388 H2379 0.929 . S
C2388 C2380 1.378 . S
C2388 C2383 1.350 . S
C2389 H2376 0.929 . S
C2389 C2381 1.433 . S
C2389 N2391 1.384 . S
N2390 C2386 1.427 . S
N2390 C2387 1.384 . S
N2391 C2383 1.427 . S
N2391 C2389 1.384 . S
H2392 C2398 0.930 . S
H2393 C2402 0.930 . S
H2394 C2407 0.929 . S
H2395 C2405 0.929 . S
H2396 C2400 0.929 . S
H2397 C2406 0.929 . S
C2398 H2392 0.930 . S
C2398 C2399 1.367 . S
C2398 C2406 1.378 . S
C2399 C2398 1.367 . S
C2399 C2407 1.433 . S
C2400 H2396 0.929 . S
C2400 C2402 1.378 . S
C2400 C2404 1.350 . S
C2401 C2404 1.463 . S
C2401 C2406 1.350 . S
C2401 N2409 1.427 . S
C2402 H2393 0.930 . S
C2402 C2400 1.378 . S
C2402 C2403 1.367 . S
C2403 C2402 1.367 . S
C2403 C2405 1.433 . S
C2404 C2400 1.350 . S
C2404 C2401 1.463 . S
C2404 N2408 1.427 . S
C2405 H2395 0.929 . S
C2405 C2403 1.433 . S
C2405 N2408 1.384 . S
C2406 H2397 0.929 . S
C2406 C2398 1.378 . S
C2406 C2401 1.350 . S
C2407 H2394 0.929 . S
C2407 C2399 1.433 . S
C2407 N2409 1.384 . S
N2408 C2404 1.427 . S
N2408 C2405 1.384 . S
N2409 C2401 1.427 . S
N2409 C2407 1.384 . S
H2410 C2416 0.930 . S
H2411 C2420 0.930 . S
H2412 C2425 0.929 . S
H2413 C2423 0.929 . S
H2414 C2418 0.929 . S
H2415 C2424 0.929 . S
C2416 H2410 0.930 . S
C2416 C2417 1.367 . S
C2416 C2424 1.378 . S
C2417 C2416 1.367 . S
C2417 C2425 1.433 . S
C2418 H2414 0.929 . S
C2418 C2420 1.378 . S
C2418 C2422 1.350 . S
C2419 C2422 1.463 . S
C2419 C2424 1.350 . S
C2419 N2427 1.427 . S
C2420 H2411 0.930 . S
C2420 C2418 1.378 . S
C2420 C2421 1.367 . S
C2421 C2420 1.367 . S
C2421 C2423 1.433 . S
C2422 C2418 1.350 . S
C2422 C2419 1.463 . S
C2422 N2426 1.427 . S
C2423 H2413 0.929 . S
C2423 C2421 1.433 . S
C2423 N2426 1.384 . S
C2424 H2415 0.929 . S
C2424 C2416 1.378 . S
C2424 C2419 1.350 . S
C2425 H2412 0.929 . S
C2425 C2417 1.433 . S
C2425 N2427 1.384 . S
N2426 C2422 1.427 . S
N2426 C2423 1.384 . S
N2427 C2419 1.427 . S
N2427 C2425 1.384 . S
H2428 C2434 0.930 . S
H2429 C2438 0.930 . S
H2430 C2443 0.929 . S
H2431 C2441 0.929 . S
H2432 C2436 0.929 . S
H2433 C2442 0.929 . S
C2434 H2428 0.930 . S
C2434 C2435 1.367 . S
C2434 C2442 1.378 . S
C2435 C2434 1.367 . S
C2435 C2443 1.433 . S
C2436 H2432 0.929 . S
C2436 C2438 1.378 . S
C2436 C2440 1.350 1_455 S
C2437 C2440 1.463 . S
C2437 C2442 1.350 . S
C2437 N2445 1.427 . S
C2438 H2429 0.930 . S
C2438 C2436 1.378 . S
C2438 C2439 1.367 . S
C2439 C2438 1.367 . S
C2439 C2441 1.433 1_455 S
C2440 C2436 1.350 1_655 S
C2440 C2437 1.463 . S
C2440 N2444 1.427 . S
C2441 H2431 0.929 . S
C2441 C2439 1.433 1_655 S
C2441 N2444 1.384 . S
C2442 H2433 0.929 . S
C2442 C2434 1.378 . S
C2442 C2437 1.350 . S
C2443 H2430 0.929 . S
C2443 C2435 1.433 . S
C2443 N2445 1.384 . S
N2444 C2440 1.427 . S
N2444 C2441 1.384 . S
N2445 C2437 1.427 . S
N2445 C2443 1.384 . S
H2446 C2452 0.930 . S
H2447 C2456 0.930 . S
H2448 C2461 0.929 . S
H2449 C2459 0.929 . S
H2450 C2454 0.929 . S
H2451 C2460 0.929 . S
C2452 H2446 0.930 . S
C2452 C2453 1.367 . S
C2452 C2460 1.378 . S
C2453 C2452 1.367 . S
C2453 C2461 1.433 . S
C2454 H2450 0.929 . S
C2454 C2456 1.378 . S
C2454 C2458 1.350 . S
C2455 C2458 1.463 . S
C2455 C2460 1.350 . S
C2455 N2463 1.427 . S
C2456 H2447 0.930 . S
C2456 C2454 1.378 . S
C2456 C2457 1.367 . S
C2457 C2456 1.367 . S
C2457 C2459 1.433 . S
C2458 C2454 1.350 . S
C2458 C2455 1.463 . S
C2458 N2462 1.427 . S
C2459 H2449 0.929 . S
C2459 C2457 1.433 . S
C2459 N2462 1.384 . S
C2460 H2451 0.929 . S
C2460 C2452 1.378 . S
C2460 C2455 1.350 . S
C2461 H2448 0.929 . S
C2461 C2453 1.433 . S
C2461 N2463 1.384 . S
N2462 C2458 1.427 . S
N2462 C2459 1.384 . S
N2463 C2455 1.427 . S
N2463 C2461 1.384 . S
H2464 C2470 0.930 . S
H2465 C2474 0.930 . S
H2466 C2479 0.929 . S
H2467 C2477 0.929 . S
H2468 C2472 0.929 . S
H2469 C2478 0.929 . S
C2470 H2464 0.930 . S
C2470 C2471 1.367 . S
C2470 C2478 1.378 . S
C2471 C2470 1.367 . S
C2471 C2479 1.433 . S
C2472 H2468 0.929 . S
C2472 C2474 1.378 . S
C2472 C2476 1.350 . S
C2473 C2476 1.463 . S
C2473 C2478 1.350 . S
C2473 N2481 1.427 . S
C2474 H2465 0.930 . S
C2474 C2472 1.378 . S
C2474 C2475 1.367 . S
C2475 C2474 1.367 . S
C2475 C2477 1.433 . S
C2476 C2472 1.350 . S
C2476 C2473 1.463 . S
C2476 N2480 1.427 . S
C2477 H2467 0.929 . S
C2477 C2475 1.433 . S
C2477 N2480 1.384 . S
C2478 H2469 0.929 . S
C2478 C2470 1.378 . S
C2478 C2473 1.350 . S
C2479 H2466 0.929 . S
C2479 C2471 1.433 . S
C2479 N2481 1.384 . S
N2480 C2476 1.427 . S
N2480 C2477 1.384 . S
N2481 C2473 1.427 . S
N2481 C2479 1.384 . S
H2482 C2488 0.930 . S
H2483 C2492 0.930 . S
H2484 C2497 0.929 . S
H2485 C2495 0.929 . S
H2486 C2490 0.929 . S
H2487 C2496 0.929 . S
C2488 H2482 0.930 . S
C2488 C2489 1.367 . S
C2488 C2496 1.378 . S
C2489 C2488 1.367 . S
C2489 C2497 1.433 . S
C2490 H2486 0.929 . S
C2490 C2492 1.378 . S
C2490 C2494 1.350 . S
C2491 C2494 1.463 . S
C2491 C2496 1.350 . S
C2491 N2499 1.427 . S
C2492 H2483 0.930 . S
C2492 C2490 1.378 . S
C2492 C2493 1.367 . S
C2493 C2492 1.367 . S
C2493 C2495 1.433 . S
C2494 C2490 1.350 . S
C2494 C2491 1.463 . S
C2494 N2498 1.427 . S
C2495 H2485 0.929 . S
C2495 C2493 1.433 . S
C2495 N2498 1.384 . S
C2496 H2487 0.929 . S
C2496 C2488 1.378 . S
C2496 C2491 1.350 . S
C2497 H2484 0.929 . S
C2497 C2489 1.433 . S
C2497 N2499 1.384 . S
N2498 C2494 1.427 . S
N2498 C2495 1.384 . S
N2499 C2491 1.427 . S
N2499 C2497 1.384 . S
H2500 C2506 0.930 . S
H2501 C2510 0.930 . S
H2502 C2515 0.929 . S
H2503 C2513 0.929 . S
H2504 C2508 0.929 . S
H2505 C2514 0.929 . S
C2506 H2500 0.930 . S
C2506 C2507 1.367 . S
C2506 C2514 1.378 . S
C2507 C2506 1.367 . S
C2507 C2515 1.433 . S
C2508 H2504 0.929 . S
C2508 C2510 1.378 . S
C2508 C2512 1.350 . S
C2509 C2512 1.463 . S
C2509 C2514 1.350 . S
C2509 N2517 1.427 . S
C2510 H2501 0.930 . S
C2510 C2508 1.378 . S
C2510 C2511 1.367 . S
C2511 C2510 1.367 . S
C2511 C2513 1.433 . S
C2512 C2508 1.350 . S
C2512 C2509 1.463 . S
C2512 N2516 1.427 . S
C2513 H2503 0.929 . S
C2513 C2511 1.433 . S
C2513 N2516 1.384 . S
C2514 H2505 0.929 . S
C2514 C2506 1.378 . S
C2514 C2509 1.350 . S
C2515 H2502 0.929 . S
C2515 C2507 1.433 . S
C2515 N2517 1.384 . S
N2516 C2512 1.427 . S
N2516 C2513 1.384 . S
N2517 C2509 1.427 . S
N2517 C2515 1.384 . S
H2518 C2524 0.930 . S
H2519 C2528 0.930 . S
H2520 C2533 0.929 . S
H2521 C2531 0.929 . S
H2522 C2526 0.929 . S
H2523 C2532 0.929 . S
C2524 H2518 0.930 . S
C2524 C2525 1.367 . S
C2524 C2532 1.378 . S
C2525 C2524 1.367 . S
C2525 C2533 1.433 . S
C2526 H2522 0.929 . S
C2526 C2528 1.378 . S
C2526 C2530 1.350 . S
C2527 C2530 1.463 . S
C2527 C2532 1.350 . S
C2527 N2535 1.427 . S
C2528 H2519 0.930 . S
C2528 C2526 1.378 . S
C2528 C2529 1.367 . S
C2529 C2528 1.367 . S
C2529 C2531 1.433 . S
C2530 C2526 1.350 . S
C2530 C2527 1.463 . S
C2530 N2534 1.427 . S
C2531 H2521 0.929 . S
C2531 C2529 1.433 . S
C2531 N2534 1.384 . S
C2532 H2523 0.929 . S
C2532 C2524 1.378 . S
C2532 C2527 1.350 . S
C2533 H2520 0.929 . S
C2533 C2525 1.433 . S
C2533 N2535 1.384 . S
N2534 C2530 1.427 . S
N2534 C2531 1.384 . S
N2535 C2527 1.427 . S
N2535 C2533 1.384 . S
H2536 C2542 0.930 . S
H2537 C2546 0.930 . S
H2538 C2551 0.929 . S
H2539 C2549 0.929 . S
H2540 C2544 0.929 . S
H2541 C2550 0.929 . S
C2542 H2536 0.930 . S
C2542 C2543 1.367 . S
C2542 C2550 1.378 . S
C2543 C2542 1.367 . S
C2543 C2551 1.433 . S
C2544 H2540 0.929 . S
C2544 C2546 1.378 . S
C2544 C2548 1.350 . S
C2545 C2548 1.463 . S
C2545 C2550 1.350 . S
C2545 N2553 1.427 . S
C2546 H2537 0.930 . S
C2546 C2544 1.378 . S
C2546 C2547 1.367 . S
C2547 C2546 1.367 . S
C2547 C2549 1.433 . S
C2548 C2544 1.350 . S
C2548 C2545 1.463 . S
C2548 N2552 1.427 . S
C2549 H2539 0.929 . S
C2549 C2547 1.433 . S
C2549 N2552 1.384 . S
C2550 H2541 0.929 . S
C2550 C2542 1.378 . S
C2550 C2545 1.350 . S
C2551 H2538 0.929 . S
C2551 C2543 1.433 . S
C2551 N2553 1.384 . S
N2552 C2548 1.427 . S
N2552 C2549 1.384 . S
N2553 C2545 1.427 . S
N2553 C2551 1.384 . S
H2554 C2560 0.930 . S
H2555 C2564 0.930 . S
H2556 C2569 0.929 . S
H2557 C2567 0.929 . S
H2558 C2562 0.929 . S
H2559 C2568 0.929 . S
C2560 H2554 0.930 . S
C2560 C2561 1.367 . S
C2560 C2568 1.378 . S
C2561 C2560 1.367 . S
C2561 C2569 1.433 . S
C2562 H2558 0.929 . S
C2562 C2564 1.378 . S
C2562 C2566 1.350 . S
C2563 C2566 1.463 . S
C2563 C2568 1.350 . S
C2563 N2571 1.427 . S
C2564 H2555 0.930 . S
C2564 C2562 1.378 . S
C2564 C2565 1.367 . S
C2565 C2564 1.367 . S
C2565 C2567 1.433 . S
C2566 C2562 1.350 . S
C2566 C2563 1.463 . S
C2566 N2570 1.427 . S
C2567 H2557 0.929 . S
C2567 C2565 1.433 . S
C2567 N2570 1.384 . S
C2568 H2559 0.929 . S
C2568 C2560 1.378 . S
C2568 C2563 1.350 . S
C2569 H2556 0.929 . S
C2569 C2561 1.433 . S
C2569 N2571 1.384 . S
N2570 C2566 1.427 . S
N2570 C2567 1.384 . S
N2571 C2563 1.427 . S
N2571 C2569 1.384 . S
H2572 C2578 0.930 . S
H2573 C2582 0.930 . S
H2574 C2587 0.929 . S
H2575 C2585 0.929 . S
H2576 C2580 0.929 . S
H2577 C2586 0.929 . S
C2578 H2572 0.930 . S
C2578 C2579 1.367 . S
C2578 C2586 1.378 . S
C2579 C2578 1.367 . S
C2579 C2587 1.433 . S
C2580 H2576 0.929 . S
C2580 C2582 1.378 . S
C2580 C2584 1.350 . S
C2581 C2584 1.463 . S
C2581 C2586 1.350 . S
C2581 N2589 1.427 . S
C2582 H2573 0.930 . S
C2582 C2580 1.378 . S
C2582 C2583 1.367 . S
C2583 C2582 1.367 . S
C2583 C2585 1.433 . S
C2584 C2580 1.350 . S
C2584 C2581 1.463 . S
C2584 N2588 1.427 . S
C2585 H2575 0.929 . S
C2585 C2583 1.433 . S
C2585 N2588 1.384 . S
C2586 H2577 0.929 . S
C2586 C2578 1.378 . S
C2586 C2581 1.350 . S
C2587 H2574 0.929 . S
C2587 C2579 1.433 . S
C2587 N2589 1.384 . S
N2588 C2584 1.427 . S
N2588 C2585 1.384 . S
N2589 C2581 1.427 . S
N2589 C2587 1.384 . S
H2590 C2596 0.930 . S
H2591 C2600 0.930 . S
H2592 C2605 0.929 . S
H2593 C2603 0.929 . S
H2594 C2598 0.929 . S
H2595 C2604 0.929 . S
C2596 H2590 0.930 . S
C2596 C2597 1.367 . S
C2596 C2604 1.378 . S
C2597 C2596 1.367 . S
C2597 C2605 1.433 . S
C2598 H2594 0.929 . S
C2598 C2600 1.378 . S
C2598 C2602 1.350 . S
C2599 C2602 1.463 . S
C2599 C2604 1.350 . S
C2599 N2607 1.427 . S
C2600 H2591 0.930 . S
C2600 C2598 1.378 . S
C2600 C2601 1.367 . S
C2601 C2600 1.367 . S
C2601 C2603 1.433 . S
C2602 C2598 1.350 . S
C2602 C2599 1.463 . S
C2602 N2606 1.427 . S
C2603 H2593 0.929 . S
C2603 C2601 1.433 . S
C2603 N2606 1.384 . S
C2604 H2595 0.929 . S
C2604 C2596 1.378 . S
C2604 C2599 1.350 . S
C2605 H2592 0.929 . S
C2605 C2597 1.433 . S
C2605 N2607 1.384 . S
N2606 C2602 1.427 . S
N2606 C2603 1.384 . S
N2607 C2599 1.427 . S
N2607 C2605 1.384 . S
H2608 C2614 0.930 . S
H2609 C2618 0.930 . S
H2610 C2623 0.929 . S
H2611 C2621 0.929 . S
H2612 C2616 0.929 . S
H2613 C2622 0.929 . S
C2614 H2608 0.930 . S
C2614 C2615 1.367 . S
C2614 C2622 1.378 . S
C2615 C2614 1.367 . S
C2615 C2623 1.433 . S
C2616 H2612 0.929 . S
C2616 C2618 1.378 . S
C2616 C2620 1.350 . S
C2617 C2620 1.463 . S
C2617 C2622 1.350 . S
C2617 N2625 1.427 . S
C2618 H2609 0.930 . S
C2618 C2616 1.378 . S
C2618 C2619 1.367 . S
C2619 C2618 1.367 . S
C2619 C2621 1.433 . S
C2620 C2616 1.350 . S
C2620 C2617 1.463 . S
C2620 N2624 1.427 . S
C2621 H2611 0.929 . S
C2621 C2619 1.433 . S
C2621 N2624 1.384 . S
C2622 H2613 0.929 . S
C2622 C2614 1.378 . S
C2622 C2617 1.350 . S
C2623 H2610 0.929 . S
C2623 C2615 1.433 . S
C2623 N2625 1.384 . S
N2624 C2620 1.427 . S
N2624 C2621 1.384 . S
N2625 C2617 1.427 . S
N2625 C2623 1.384 . S
H2626 C2632 0.930 . S
H2627 C2636 0.930 . S
H2628 C2641 0.929 . S
H2629 C2639 0.929 . S
H2630 C2634 0.929 . S
H2631 C2640 0.912 1_556 S
C2632 H2626 0.930 . S
C2632 C2633 1.367 . S
C2632 C2640 1.378 . S
C2633 C2632 1.367 . S
C2633 C2641 1.433 . S
C2634 H2630 0.929 . S
C2634 C2636 1.378 . S
C2634 C2638 1.350 . S
C2635 C2638 1.463 . S
C2635 C2640 1.350 . S
C2635 N2643 1.427 . S
C2636 H2627 0.930 . S
C2636 C2634 1.378 . S
C2636 C2637 1.367 . S
C2637 C2636 1.367 . S
C2637 C2639 1.433 1_554 S
C2638 C2634 1.350 . S
C2638 C2635 1.463 . S
C2638 N2642 1.427 1_554 S
C2639 H2629 0.929 . S
C2639 C2637 1.433 1_556 S
C2639 N2642 1.384 . S
C2640 H2631 0.912 1_554 S
C2640 C2632 1.378 . S
C2640 C2635 1.350 . S
C2641 H2628 0.929 . S
C2641 C2633 1.433 . S
C2641 N2643 1.384 . S
N2642 C2638 1.427 1_556 S
N2642 C2639 1.384 . S
N2643 C2635 1.427 . S
N2643 C2641 1.384 . S
H2644 C2650 0.930 . S
H2645 C2654 0.930 . S
H2646 C2659 0.929 . S
H2647 C2657 0.929 . S
H2648 C2652 0.929 . S
H2649 C2658 0.929 . S
C2650 H2644 0.930 . S
C2650 C2651 1.367 . S
C2650 C2658 1.378 . S
C2651 C2650 1.367 . S
C2651 C2659 1.433 . S
C2652 H2648 0.929 . S
C2652 C2654 1.378 . S
C2652 C2656 1.350 . S
C2653 C2656 1.463 . S
C2653 C2658 1.350 . S
C2653 N2661 1.427 . S
C2654 H2645 0.930 . S
C2654 C2652 1.378 . S
C2654 C2655 1.367 . S
C2655 C2654 1.367 . S
C2655 C2657 1.433 . S
C2656 C2652 1.350 . S
C2656 C2653 1.463 . S
C2656 N2660 1.427 . S
C2657 H2647 0.929 . S
C2657 C2655 1.433 . S
C2657 N2660 1.384 . S
C2658 H2649 0.929 . S
C2658 C2650 1.378 . S
C2658 C2653 1.350 . S
C2659 H2646 0.929 . S
C2659 C2651 1.433 . S
C2659 N2661 1.384 . S
N2660 C2656 1.427 . S
N2660 C2657 1.384 . S
N2661 C2653 1.427 . S
N2661 C2659 1.384 . S
H2662 C2668 0.930 . S
H2663 C2672 0.930 . S
H2664 C2677 0.929 . S
H2665 C2675 0.929 . S
H2666 C2670 0.929 . S
H2667 C2676 0.929 . S
C2668 H2662 0.930 . S
C2668 C2669 1.367 . S
C2668 C2676 1.378 . S
C2669 C2668 1.367 . S
C2669 C2677 1.433 . S
C2670 H2666 0.929 . S
C2670 C2672 1.378 . S
C2670 C2674 1.350 . S
C2671 C2674 1.463 . S
C2671 C2676 1.350 . S
C2671 N2679 1.427 . S
C2672 H2663 0.930 . S
C2672 C2670 1.378 . S
C2672 C2673 1.367 . S
C2673 C2672 1.367 . S
C2673 C2675 1.433 . S
C2674 C2670 1.350 . S
C2674 C2671 1.463 . S
C2674 N2678 1.427 . S
C2675 H2665 0.929 . S
C2675 C2673 1.433 . S
C2675 N2678 1.384 . S
C2676 H2667 0.929 . S
C2676 C2668 1.378 . S
C2676 C2671 1.350 . S
C2677 H2664 0.929 . S
C2677 C2669 1.433 . S
C2677 N2679 1.384 . S
N2678 C2674 1.427 . S
N2678 C2675 1.384 . S
N2679 C2671 1.427 . S
N2679 C2677 1.384 . S
C959 C101 1.078 . S
C963 C320 1.081 1_556 S
C977 C57 1.464 . S
C981 C354 1.485 . S
C995 C70 0.545 . S
C999 C423 0.570 . S
C1017 C461 0.840 . S
C1013 C82 0.841 . S
C1031 C23 1.525 . S
C1035 C501 1.490 . S
C1053 C520 0.359 . S
C1049 C29 0.343 . S
C1071 C554 1.131 . S
C1067 C49 1.106 . S
C1085 C10 1.750 . S
C1089 C623 1.725 . S
C1107 C329 2.444 . S
C1103 C218 2.475 . S
C1121 C226 1.205 . S
C1125 C381 1.195 . S
C1143 C394 1.392 . S
C1139 C251 1.374 . S
C1161 C463 1.256 . S
C1157 C159 1.262 . S
C1175 C211 1.914 . S
C1179 C503 1.911 . S
C1197 C529 1.857 . S
C1193 C225 1.862 . S
C1215 C581 0.306 . S
C1211 C252 0.239 . S
C1233 C594 2.194 . S
C1229 C166 2.205 . S
C1251 C324 2.363 . S
C1247 C147 2.396 . S
C1265 C263 1.908 . S
C1269 C634 1.957 . S
C1287 C684 2.645 . S
C1283 C309 2.661 . S
C1305 C743 1.382 . S
C1301 C291 1.383 . S
C1319 C108 1.590 . S
C1323 C621 1.572 . S
C1337 C121 1.505 . S
C1341 C421 1.497 . S
C1355 C302 2.360 . S
C1359 C754 2.351 . S
C1377 C823 0.829 . S
C1373 C276 0.841 . S
C1395 C341 1.175 . S
C1391 C55 1.171 . S
C1413 C809 1.612 . S
C1409 C96 1.624 . S
C1427 C88 0.856 . S
C1431 C404 0.853 . S
C1445 C75 1.120 . S
C1449 C760 1.106 . S
C1467 C480 1.499 . S
C1463 C4 1.523 . S
C1481 C44 0.511 . S
C1485 C701 0.510 . S
C1503 C569 1.538 1_566 S
C1499 C31 1.557 . S
C1521 C844 1.779 . S
C1517 C18 1.787 . S
C1539 C314 2.545 . S
C1535 C133 2.584 . S
C1557 C800 1.111 . S
C1553 C296 1.118 . S
C1571 C107 1.618 . S
C1575 C409 1.602 . S
C1589 C264 1.596 . S
C1593 C764 1.600 . S
C1607 C140 2.115 . S
C1611 C484 2.133 . S
C1629 C674 1.976 . S
C1625 C289 2.018 . S
C1643 C114 0.505 . S
C1647 C560 0.515 . S
C1661 C265 2.402 . S
C1665 C849 2.385 . S
C1679 C179 2.684 . S
C1683 C343 2.655 1_655 S
C1697 C161 2.182 . S
C1701 C649 2.194 . S
C1715 C244 2.967 . S
C1719 C543 2.949 . S
C1733 C224 1.866 . S
C1737 C724 1.876 . S
C1755 C840 1.514 . S
C1751 C257 1.527 . S
C1769 C199 1.551 . S
C1773 C400 1.534 . S
C1791 C449 2.699 . S
C1787 C237 2.737 . S
C1809 C364 1.099 . S
C1805 C185 1.104 . S
C1823 C69 1.077 . S
C1827 C880 1.081 . S
C1845 C794 1.478 . S
C1841 C83 1.458 . S
C1859 C94 0.559 . S
C1863 C943 0.591 . S
C1877 C56 0.842 . S
C1881 C781 0.841 . S
C1895 C42 1.540 . S
C1899 C661 1.498 . S
C1917 C680 0.362 . S
C1913 C3 0.346 . S
C1935 C714 1.136 . S
C1931 C16 1.089 . S
C1953 C863 1.730 . S
C1949 C36 1.758 . S
C1971 C889 2.441 . S
C1967 C238 2.474 . S
C1985 C174 1.209 . S
C1989 C821 1.194 . S
C2007 C914 1.391 . S
C2003 C186 1.376 . S
C2025 C783 1.259 . S
C2021 C198 1.260 . S
C2043 C663 1.912 . S
C2039 C239 1.916 . S
C2057 C173 1.872 . S
C2061 C689 1.866 . S
C2079 C741 0.297 . S
C2075 C187 0.222 . S
C2093 C205 2.206 . S
C2097 C834 2.195 . S
C2115 C884 2.356 . S
C2111 C290 2.392 . S
C2129 C122 1.908 . S
C2133 C474 1.958 . S
C2151 C524 2.650 . S
C2147 C134 2.665 . S
C2169 C583 1.382 . S
C2165 C148 1.382 . S
C2187 C861 1.556 . S
C2183 C283 1.579 . S
C2201 C270 1.501 . S
C2205 C941 1.501 . S
C2223 C434 2.352 . S
C2219 C135 2.358 . S
C2241 C383 0.824 . S
C2237 C109 0.837 . S
C2255 C81 1.170 . S
C2259 C901 1.177 . S
C2277 C369 1.610 . S
C2273 C68 1.623 . S
C2291 C62 0.854 . S
C2295 C924 0.848 . S
C2309 C95 1.116 . S
C2313 C440 1.108 . S
C2327 C30 1.522 . S
C2331 C640 1.495 . S
C2349 C541 0.508 . S
C2345 C17 0.494 . S
C2363 C5 1.561 . S
C2367 C729 1.559 . S
C2381 C43 1.777 . S
C2385 C604 1.763 . S
C2403 C874 2.540 . S
C2399 C304 2.584 . S
C2417 C153 1.120 . S
C2421 C360 1.106 . S
C2439 C929 1.602 . S
C2435 C278 1.619 . S
C2453 C127 1.595 . S
C2457 C444 1.600 . S
C2471 C303 2.102 . S
C2475 C644 2.126 . S
C2493 C514 1.977 . S
C2489 C146 2.013 . S
C2507 C277 0.505 . S
C2511 C720 0.516 . S
C2529 C609 2.381 . S
C2525 C120 2.397 . S
C2547 C903 2.655 . S
C2543 C231 2.684 . S
C2565 C489 2.192 1_665 S
C2561 C200 2.179 . S
C2579 C212 2.969 . S
C2583 C703 2.950 . S
C2601 C564 1.872 . S
C2597 C172 1.864 . S
C2615 C192 1.535 . S
C2619 C600 1.525 . S
C2633 C160 1.554 . S
C2637 C920 1.535 . S
C2655 C769 2.702 . S
C2651 C213 2.738 1_565 S
C2673 C804 1.100 . S
C2669 C250 1.105 . S
