# Generated by pormake.
# Topology wbl, (4,4)-cn, num edge types: 1
# Building blocks:
#     Node 0, Type 0, BuildingBlock: MUDLON_clean_sbu_0, # of connection points: 4
#     Node 1, Type 0, BuildingBlock: MUDLON_clean_sbu_0, # of connection points: 4
#     Node 2, Type 0, BuildingBlock: MUDLON_clean_sbu_0, # of connection points: 4
#     Node 3, Type 0, BuildingBlock: MUDLON_clean_sbu_0, # of connection points: 4
#     Node 4, Type 0, BuildingBlock: MUDLON_clean_sbu_0, # of connection points: 4
#     Node 5, Type 0, BuildingBlock: MUDLON_clean_sbu_0, # of connection points: 4
#     Node 6, Type 0, BuildingBlock: MUDLON_clean_sbu_0, # of connection points: 4
#     Node 7, Type 0, BuildingBlock: MUDLON_clean_sbu_0, # of connection points: 4
#     Node 8, Type 1, BuildingBlock: CEKHIL_clean_sbu_0, # of connection points: 4
#     Node 9, Type 1, BuildingBlock: CEKHIL_clean_sbu_0, # of connection points: 4
#     Node 10, Type 1, BuildingBlock: CEKHIL_clean_sbu_0, # of connection points: 4
#     Node 11, Type 1, BuildingBlock: CEKHIL_clean_sbu_0, # of connection points: 4
#     Node 12, Type 1, BuildingBlock: CEKHIL_clean_sbu_0, # of connection points: 4
#     Node 13, Type 1, BuildingBlock: CEKHIL_clean_sbu_0, # of connection points: 4
#     Node 14, Type 1, BuildingBlock: CEKHIL_clean_sbu_0, # of connection points: 4
#     Node 15, Type 1, BuildingBlock: CEKHIL_clean_sbu_0, # of connection points: 4
#     Edge 16, Type (0, 1), BuildingBlock: AJUNOK_clean_linker_0, # of connection points: 2
#     Edge 17, Type (0, 1), BuildingBlock: AJUNOK_clean_linker_0, # of connection points: 2
#     Edge 18, Type (0, 1), BuildingBlock: AJUNOK_clean_linker_0, # of connection points: 2
#     Edge 19, Type (0, 1), BuildingBlock: AJUNOK_clean_linker_0, # of connection points: 2
#     Edge 20, Type (0, 1), BuildingBlock: AJUNOK_clean_linker_0, # of connection points: 2
#     Edge 21, Type (0, 1), BuildingBlock: AJUNOK_clean_linker_0, # of connection points: 2
#     Edge 22, Type (0, 1), BuildingBlock: AJUNOK_clean_linker_0, # of connection points: 2
#     Edge 23, Type (0, 1), BuildingBlock: AJUNOK_clean_linker_0, # of connection points: 2
#     Edge 24, Type (0, 1), BuildingBlock: AJUNOK_clean_linker_0, # of connection points: 2
#     Edge 25, Type (0, 1), BuildingBlock: AJUNOK_clean_linker_0, # of connection points: 2
#     Edge 26, Type (0, 1), BuildingBlock: AJUNOK_clean_linker_0, # of connection points: 2
#     Edge 27, Type (0, 1), BuildingBlock: AJUNOK_clean_linker_0, # of connection points: 2
#     Edge 28, Type (0, 1), BuildingBlock: AJUNOK_clean_linker_0, # of connection points: 2
#     Edge 29, Type (0, 1), BuildingBlock: AJUNOK_clean_linker_0, # of connection points: 2
#     Edge 30, Type (0, 1), BuildingBlock: AJUNOK_clean_linker_0, # of connection points: 2
#     Edge 31, Type (0, 1), BuildingBlock: AJUNOK_clean_linker_0, # of connection points: 2
#     Edge 32, Type (0, 1), BuildingBlock: AJUNOK_clean_linker_0, # of connection points: 2
#     Edge 33, Type (0, 1), BuildingBlock: AJUNOK_clean_linker_0, # of connection points: 2
#     Edge 34, Type (0, 1), BuildingBlock: AJUNOK_clean_linker_0, # of connection points: 2
#     Edge 35, Type (0, 1), BuildingBlock: AJUNOK_clean_linker_0, # of connection points: 2
#     Edge 36, Type (0, 1), BuildingBlock: AJUNOK_clean_linker_0, # of connection points: 2
#     Edge 37, Type (0, 1), BuildingBlock: AJUNOK_clean_linker_0, # of connection points: 2
#     Edge 38, Type (0, 1), BuildingBlock: AJUNOK_clean_linker_0, # of connection points: 2
#     Edge 39, Type (0, 1), BuildingBlock: AJUNOK_clean_linker_0, # of connection points: 2
#     Edge 40, Type (0, 1), BuildingBlock: AJUNOK_clean_linker_0, # of connection points: 2
#     Edge 41, Type (0, 1), BuildingBlock: AJUNOK_clean_linker_0, # of connection points: 2
#     Edge 42, Type (0, 1), BuildingBlock: AJUNOK_clean_linker_0, # of connection points: 2
#     Edge 43, Type (0, 1), BuildingBlock: AJUNOK_clean_linker_0, # of connection points: 2
#     Edge 44, Type (0, 1), BuildingBlock: AJUNOK_clean_linker_0, # of connection points: 2
#     Edge 45, Type (0, 1), BuildingBlock: AJUNOK_clean_linker_0, # of connection points: 2
#     Edge 46, Type (0, 1), BuildingBlock: AJUNOK_clean_linker_0, # of connection points: 2
#     Edge 47, Type (0, 1), BuildingBlock: AJUNOK_clean_linker_0, # of connection points: 2
# Relax obj value: 0.230
# Max RMSD: 0.220
# Mean RMSD: 0.174
data_MOF--net-wbl--node1-MUDLON_clean_sbu_0--node2-CEKHIL_clean_sbu_0--edge1-AJUNOK_clean_linker_0
_symmetry_space_group_name_H-M    P1
_symmetry_Int_Tables_number       1
_symmetry_cell_setting            triclinic
loop_
_symmetry_equiv_pos_as_xyz
'x, y, z'
_cell_length_a     25.639901
_cell_length_b     25.796708
_cell_length_c     56.080691
_cell_angle_alpha  90.386929
_cell_angle_beta   90.130349
_cell_angle_gamma 90.070517
loop_
_atom_site_label
_atom_site_type_symbol
_atom_site_fract_x
_atom_site_fract_y
_atom_site_fract_z
_atom_type_partial_charge
Mg0 Mg 0.01464 0.0388 0.34886 0.0
C1 C 0.05854 0.94678 0.37499 0.0
O2 O 0.09586 0.95265 0.3593 0.0
C3 C 0.94412 0.09647 0.31679 0.0
O4 O 0.9877 0.12301 0.31509 0.0
C5 C 0.09103 1.00064 0.31245 0.0
O6 O 0.05649 0.963 0.31157 0.0
O7 O 0.08303 0.03932 0.32615 0.0
O8 O 0.01652 0.97246 0.37263 0.0
O9 O 0.01456 0.09793 0.37635 0.0
C10 C 0.96945 0.10783 0.38463 0.0
O11 O 0.92849 0.08664 0.3744 0.0
O12 O 0.94427 0.05446 0.3286 0.0
Mg13 Mg 0.12272 0.52653 0.6009 0.0
C14 C 0.24461 0.52548 0.62747 0.0
O15 O 0.28228 0.50095 0.61633 0.0
C16 C 0.09924 0.41606 0.58064 0.0
O17 O 0.13247 0.39933 0.59667 0.0
C18 C 0.16358 0.60726 0.56972 0.0
O19 O 0.20091 0.57244 0.57019 0.0
O20 O 0.12191 0.59843 0.58135 0.0
O21 O 0.1996 0.52615 0.61789 0.0
O22 O 0.0708 0.51845 0.63083 0.0
C23 C 0.08791 0.48197 0.64381 0.0
O24 O 0.13156 0.45884 0.63782 0.0
O25 O 0.09395 0.46455 0.57745 0.0
Mg26 Mg 0.65974 0.63033 0.85115 0.0
C27 C 0.63839 0.73393 0.87187 0.0
O28 O 0.60296 0.7346 0.85494 0.0
C29 C 0.76375 0.59909 0.82661 0.0
O30 O 0.78308 0.64007 0.83752 0.0
C31 C 0.57533 0.6541 0.81448 0.0
O32 O 0.61583 0.66577 0.80125 0.0
O33 O 0.58253 0.63609 0.8353 0.0
O34 O 0.67691 0.70336 0.86939 0.0
O35 O 0.66103 0.58079 0.88208 0.0
C36 C 0.70597 0.58192 0.89174 0.0
O37 O 0.74224 0.61085 0.88207 0.0
O38 O 0.71499 0.59057 0.82769 0.0
Mg39 Mg 0.52536 0.1663 0.09536 0.0
C40 C 0.62329 0.15946 0.13257 0.0
O41 O 0.64912 0.12394 0.12062 0.0
C42 C 0.55119 0.05726 0.07601 0.0
O43 O 0.58509 0.05749 0.09357 0.0
C44 C 0.59619 0.22902 0.07031 0.0
O45 O 0.6173 0.18341 0.07406 0.0
O46 O 0.54834 0.23512 0.07581 0.0
O47 O 0.57961 0.17562 0.12502 0.0
O48 O 0.45802 0.15656 0.11883 0.0
C49 C 0.46897 0.11586 0.13065 0.0
O50 O 0.51048 0.08928 0.12465 0.0
O51 O 0.52476 0.09779 0.07188 0.0
Mg52 Mg 0.17252 0.53726 0.93088 0.0
C53 C 0.16295 0.62953 0.89196 0.0
O54 O 0.11858 0.64791 0.90004 0.0
C55 C 0.07499 0.50159 0.95601 0.0
O56 O 0.08941 0.45829 0.94554 0.0
C57 C 0.24148 0.59004 0.96503 0.0
O58 O 0.19552 0.60798 0.97121 0.0
O59 O 0.24411 0.55295 0.95004 0.0
O60 O 0.18426 0.59132 0.90217 0.0
O61 O 0.16276 0.46918 0.90838 0.0
C62 C 0.12195 0.47871 0.8962 0.0
O63 O 0.09771 0.52287 0.89991 0.0
O64 O 0.10236 0.54247 0.95316 0.0
Mg65 Mg 0.62489 0.65051 0.18155 0.0
C66 C 0.55484 0.69243 0.14324 0.0
O67 O 0.55872 0.73406 0.15668 0.0
C68 C 0.66427 0.57074 0.21405 0.0
O69 O 0.70572 0.59925 0.20995 0.0
C70 C 0.56267 0.72316 0.20948 0.0
O71 O 0.53406 0.68095 0.20821 0.0
O72 O 0.60848 0.72178 0.20077 0.0
O73 O 0.57378 0.64977 0.15054 0.0
O74 O 0.69721 0.64111 0.16203 0.0
C75 C 0.69852 0.59541 0.15326 0.0
O76 O 0.66188 0.56266 0.1596 0.0
O77 O 0.62067 0.58413 0.20513 0.0
Mg78 Mg 0.5125 0.13844 0.4288 0.0
C79 C 0.55866 0.22591 0.40049 0.0
O80 O 0.59599 0.22085 0.41632 0.0
C81 C 0.44302 0.07349 0.45572 0.0
O82 O 0.48489 0.04553 0.45165 0.0
C83 C 0.59584 0.17327 0.46458 0.0
O84 O 0.56621 0.2146 0.46648 0.0
O85 O 0.58195 0.13629 0.45081 0.0
O86 O 0.51535 0.2029 0.40389 0.0
O87 O 0.51189 0.07655 0.40245 0.0
C88 C 0.46731 0.06731 0.39329 0.0
O89 O 0.42666 0.09221 0.40177 0.0
O90 O 0.4433 0.12096 0.44958 0.0
Mg91 Mg 0.02486 1.00135 0.67959 0.0
C92 C 0.11929 0.99468 0.64202 0.0
O93 O 0.15468 0.01102 0.65728 0.0
C94 C 0.0135 0.07841 0.72017 0.0
O95 O 0.99053 0.03894 0.73045 0.0
C96 C 0.09262 0.9404 0.70833 0.0
O97 O 0.11443 0.98606 0.7056 0.0
O98 O 0.04666 0.93387 0.70017 0.0
O99 O 0.07176 0.99184 0.64805 0.0
O100 O 0.95277 0.01227 0.65972 0.0
C101 C 0.95498 0.05785 0.65106 0.0
O102 O 0.99304 0.08836 0.65814 0.0
O103 O 0.03525 0.07233 0.7 0.0
Co104 Co 0.48518 0.76145 0.00713 0.0
O105 O 0.45844 0.69484 0.99765 0.0
O106 O 0.41882 0.76957 0.99075 0.0
C107 C 0.50449 0.73747 0.04473 0.0
O108 O 0.50022 0.83741 0.01613 0.0
Co109 Co 0.601 0.77248 0.02103 0.0
O110 O 0.57483 0.83533 0.03733 0.0
C111 C 0.57366 0.76542 0.97026 0.0
C112 C 0.41836 0.71917 0.98933 0.0
C113 C 0.53337 0.85817 0.03069 0.0
O114 O 0.52498 0.76649 0.97599 0.0
O115 O 0.61056 0.76559 0.98565 0.0
O116 O 0.45758 0.75161 0.03902 0.0
O117 O 0.53715 0.73414 0.02717 0.0
Co118 Co 0.37598 0.98629 0.25237 0.0
O119 O 0.31922 0.02902 0.26297 0.0
O120 O 0.31901 0.94323 0.26313 0.0
C121 C 0.39123 0.03099 0.21858 0.0
O122 O 0.42664 0.9291 0.24221 0.0
Co123 Co 0.48742 0.03142 0.24681 0.0
O124 O 0.50465 0.96303 0.2329 0.0
C125 C 0.44658 0.00937 0.29485 0.0
C126 C 0.29465 0.98636 0.26776 0.0
C127 C 0.4738 0.92451 0.23452 0.0
O128 O 0.40624 0.98739 0.28559 0.0
O129 O 0.4815 0.03219 0.28245 0.0
O130 O 0.35458 0.99617 0.21912 0.0
O131 O 0.41451 0.03996 0.23863 0.0
Co132 Co 0.18653 0.88117 0.50174 0.0
O133 O 0.14277 0.82604 0.51264 0.0
O134 O 0.22897 0.82603 0.51491 0.0
C135 C 0.14526 0.89102 0.46643 0.0
O136 O 0.24392 0.93162 0.49156 0.0
Co137 Co 0.13749 0.98943 0.49334 0.0
O138 O 0.20786 0.0085 0.48209 0.0
C139 C 0.15689 0.95414 0.54223 0.0
C140 C 0.18499 0.80247 0.51914 0.0
C141 C 0.24719 0.97872 0.48405 0.0
O142 O 0.18198 0.91478 0.53417 0.0
O143 O 0.13235 0.98613 0.529 0.0
O144 O 0.18094 0.85579 0.46902 0.0
O145 O 0.13299 0.91613 0.48564 0.0
Co146 Co 0.2603 0.70103 0.75953 0.0
O147 O 0.1924 0.7249 0.74978 0.0
O148 O 0.26663 0.76597 0.74289 0.0
C149 C 0.23722 0.6828 0.79741 0.0
O150 O 0.33746 0.69053 0.76816 0.0
Co151 Co 0.27772 0.58778 0.77441 0.0
O152 O 0.34605 0.6129 0.78583 0.0
C153 C 0.26889 0.61155 0.72331 0.0
C154 C 0.21598 0.76537 0.74142 0.0
C155 C 0.36413 0.65675 0.77983 0.0
O156 O 0.2671 0.66032 0.72844 0.0
O157 O 0.27073 0.57619 0.73917 0.0
O158 O 0.24877 0.72977 0.7913 0.0
O159 O 0.23534 0.649 0.78022 0.0
Co160 Co 0.91196 0.20193 0.51815 0.0
O161 O 0.98061 0.22346 0.52747 0.0
O162 O 0.90894 0.26791 0.53522 0.0
C163 C 0.93311 0.18136 0.48046 0.0
O164 O 0.83471 0.1908 0.51005 0.0
Co165 Co 0.89676 0.08658 0.50439 0.0
O166 O 0.82846 0.11174 0.49303 0.0
C167 C 0.9038 0.11481 0.55506 0.0
C168 C 0.95957 0.2643 0.53683 0.0
C169 C 0.80854 0.15512 0.49905 0.0
O170 O 0.90434 0.16286 0.54904 0.0
O171 O 0.90429 0.07781 0.53974 0.0
O172 O 0.92229 0.22897 0.48616 0.0
O173 O 0.93604 0.14906 0.49793 0.0
Co174 Co 0.97142 0.39622 0.77003 0.0
O175 O 0.95418 0.46603 0.77895 0.0
O176 O 0.9034 0.39841 0.78547 0.0
C177 C 0.99809 0.41684 0.73312 0.0
O178 O 0.97738 0.31871 0.76222 0.0
Co179 Co 0.0874 0.37073 0.75795 0.0
O180 O 0.05736 0.30466 0.74658 0.0
C181 C 0.05608 0.38823 0.80782 0.0
C182 C 0.9106 0.44836 0.78718 0.0
C183 C 0.01168 0.28954 0.75201 0.0
O184 O 0.00777 0.3868 0.80155 0.0
O185 O 0.0937 0.38619 0.79288 0.0
O186 O 0.94882 0.4095 0.7373 0.0
O187 O 0.02825 0.41503 0.75154 0.0
Co188 Co 0.7711 0.4663 0.02043 0.0
O189 O 0.70274 0.44236 0.02931 0.0
O190 O 0.77555 0.39816 0.03462 0.0
C191 C 0.74848 0.49329 0.984 0.0
O192 O 0.84812 0.47776 0.012 0.0
Co193 Co 0.78916 0.58305 0.01092 0.0
O194 O 0.85935 0.56086 0.00078 0.0
C195 C 0.77721 0.54755 0.06018 0.0
C196 C 0.72497 0.40029 0.03664 0.0
C197 C 0.8764 0.51508 0.00385 0.0
O198 O 0.7794 0.50024 0.0528 0.0
O199 O 0.77618 0.58621 0.04605 0.0
O200 O 0.75898 0.44476 0.98756 0.0
O201 O 0.74712 0.52284 0.00269 0.0
Co202 Co 0.68452 0.28731 0.2722 0.0
O203 O 0.64082 0.34399 0.26267 0.0
O204 O 0.72692 0.34261 0.25933 0.0
C205 C 0.64441 0.2756 0.30769 0.0
O206 O 0.74265 0.23641 0.28118 0.0
Co207 Co 0.63838 0.17837 0.28069 0.0
O208 O 0.70613 0.16445 0.29614 0.0
C209 C 0.65872 0.21236 0.23144 0.0
C210 C 0.68324 0.3674 0.25629 0.0
C211 C 0.74597 0.1922 0.29171 0.0
O212 O 0.67802 0.25522 0.23934 0.0
O213 O 0.63926 0.17752 0.24491 0.0
O214 O 0.68045 0.31068 0.30538 0.0
O215 O 0.63162 0.25144 0.28827 0.0
C216 C 0.16639 0.03923 0.29097 0.0
C217 C 0.14149 0.99521 0.30011 0.0
C218 C 0.21544 0.03556 0.28018 0.0
C219 C 0.24182 0.98781 0.2784 0.0
H220 H 0.14779 0.07685 0.29214 0.0
H221 H 0.23293 0.07069 0.27336 0.0
S222 S 0.19445 0.86146 0.30116 0.0
N223 N 0.14712 0.90263 0.30751 0.0
N224 N 0.2398 0.89571 0.28753 0.0
C225 C 0.21735 0.94341 0.28761 0.0
C226 C 0.16705 0.94712 0.29839 0.0
C227 C 0.12838 0.69059 0.55399 0.0
C228 C 0.17054 0.65625 0.55636 0.0
C229 C 0.13375 0.73743 0.54182 0.0
C230 C 0.18161 0.75225 0.53165 0.0
H231 H 0.09072 0.68134 0.56159 0.0
H232 H 0.1 0.76251 0.54064 0.0
S233 S 0.30408 0.67599 0.53225 0.0
N234 N 0.26196 0.64 0.54701 0.0
N235 N 0.27187 0.72856 0.52434 0.0
C236 C 0.22419 0.7184 0.53377 0.0
C237 C 0.21866 0.67027 0.54602 0.0
C238 C 0.51112 0.65905 0.78074 0.0
C239 C 0.52171 0.66233 0.80538 0.0
C240 C 0.45969 0.66154 0.77206 0.0
C241 C 0.41758 0.66844 0.78772 0.0
H242 H 0.54241 0.65188 0.76821 0.0
H243 H 0.45261 0.65522 0.75321 0.0
S244 S 0.4249 0.68764 0.85315 0.0
N245 N 0.48601 0.6786 0.84489 0.0
N246 N 0.38987 0.68403 0.82845 0.0
C247 C 0.42795 0.67536 0.81209 0.0
C248 C 0.47995 0.67218 0.82097 0.0
C249 C 0.53344 0.00374 0.03916 0.0
C250 C 0.53763 0.00774 0.06415 0.0
C251 C 0.52713 0.95502 0.02794 0.0
C252 C 0.52389 0.90948 0.04152 0.0
H253 H 0.53811 0.03789 0.02823 0.0
H254 H 0.5282 0.95265 0.00865 0.0
S255 S 0.52196 0.90091 0.10744 0.0
N256 N 0.53057 0.96319 0.10203 0.0
N257 N 0.51814 0.87232 0.08106 0.0
C258 C 0.52345 0.91387 0.06647 0.0
C259 C 0.53047 0.9629 0.07779 0.0
C260 C 0.29727 0.63699 0.99451 0.0
C261 C 0.28815 0.62101 0.97089 0.0
C262 C 0.33903 0.67007 0.00016 0.0
C263 C 0.37179 0.68958 0.98227 0.0
H264 H 0.27222 0.6235 0.00872 0.0
H265 H 0.34595 0.68028 0.01868 0.0
S266 S 0.36135 0.66333 0.91746 0.0
N267 N 0.31372 0.62896 0.92934 0.0
N268 N 0.39117 0.69265 0.93999 0.0
C269 C 0.36237 0.67502 0.95854 0.0
C270 C 0.32066 0.64035 0.95283 0.0
C271 C 0.57045 0.81771 0.21906 0.0
C272 C 0.53916 0.77311 0.21723 0.0
C273 C 0.54882 0.86613 0.22455 0.0
C274 C 0.49482 0.87228 0.22845 0.0
H275 H 0.6121 0.81544 0.21602 0.0
H276 H 0.575 0.89903 0.22575 0.0
S277 S 0.39544 0.76756 0.22569 0.0
N278 N 0.45106 0.73806 0.21983 0.0
N279 N 0.4105 0.82909 0.23009 0.0
C280 C 0.46303 0.82787 0.22689 0.0
C281 C 0.48513 0.77838 0.22132 0.0
C282 C 0.35603 0.07667 0.47584 0.0
C283 C 0.39457 0.04797 0.4639 0.0
C284 C 0.30897 0.05347 0.48271 0.0
C285 C 0.29866 1.00075 0.47787 0.0
H286 H 0.36218 0.11737 0.47985 0.0
H287 H 0.28028 0.07712 0.49184 0.0
S288 S 0.38503 0.90968 0.44537 0.0
N289 N 0.41823 0.96452 0.44647 0.0
N290 N 0.32985 0.92114 0.45957 0.0
C291 C 0.33683 0.97158 0.46599 0.0
C292 C 0.38473 0.99518 0.45892 0.0
C293 C 0.1034 0.8459 0.71777 0.0
C294 C 0.12387 0.89655 0.71778 0.0
C295 C 0.1337 0.80361 0.72514 0.0
C296 C 0.18581 0.81021 0.73254 0.0
H297 H 0.06381 0.83867 0.71183 0.0
H298 H 0.11619 0.76537 0.7249 0.0
S299 S 0.25732 0.93494 0.73733 0.0
N300 N 0.19925 0.95091 0.72702 0.0
N301 N 0.25593 0.8714 0.74043 0.0
C302 C 0.20666 0.86056 0.73287 0.0
C303 C 0.17574 0.9037 0.72566 0.0
C304 C 0.85201 0.57254 0.812 0.0
C305 C 0.79931 0.55993 0.81571 0.0
C306 C 0.88731 0.53594 0.80301 0.0
C307 C 0.87176 0.48482 0.79751 0.0
H308 H 0.86636 0.6111 0.81609 0.0
H309 H 0.92739 0.54799 0.80047 0.0
S310 S 0.73838 0.43121 0.80422 0.0
N311 N 0.73326 0.49203 0.81327 0.0
N312 N 0.79999 0.42329 0.79651 0.0
C313 C 0.8193 0.47136 0.80123 0.0
C314 C 0.78303 0.50887 0.81022 0.0
C315 C 0.60699 0.31831 0.05323 0.0
C316 C 0.62942 0.27254 0.06198 0.0
C317 C 0.63828 0.35947 0.04532 0.0
C318 C 0.69324 0.35666 0.04596 0.0
H319 H 0.56499 0.32224 0.05224 0.0
H320 H 0.61903 0.39363 0.03845 0.0
S321 S 0.7714 0.24686 0.06901 0.0
N322 N 0.71028 0.22798 0.07199 0.0
N323 N 0.76857 0.30514 0.05714 0.0
C324 C 0.71613 0.31154 0.05512 0.0
C325 C 0.68437 0.26959 0.06311 0.0
C326 C 0.84797 0.10745 0.3212 0.0
C327 C 0.89422 0.12017 0.30918 0.0
C328 C 0.80083 0.13203 0.31578 0.0
C329 C 0.79773 0.17029 0.29801 0.0
H330 H 0.84822 0.07893 0.33529 0.0
H331 H 0.76643 0.12088 0.32569 0.0
S332 S 0.90732 0.2158 0.26039 0.0
N333 N 0.93401 0.17256 0.27823 0.0
N334 N 0.84508 0.21849 0.26783 0.0
C335 C 0.84369 0.18331 0.28574 0.0
C336 C 0.89192 0.15826 0.29134 0.0
C337 C 0.07901 0.32756 0.56466 0.0
C338 C 0.0632 0.37895 0.56871 0.0
C339 C 0.04492 0.29106 0.55449 0.0
C340 C 0.99321 0.30408 0.54838 0.0
H341 H 0.11819 0.31544 0.56925 0.0
H342 H 0.05933 0.25208 0.55155 0.0
S343 S 0.93151 0.43282 0.55663 0.0
N344 N 0.99175 0.44081 0.56649 0.0
N345 N 0.92746 0.37177 0.54774 0.0
C346 C 0.97651 0.35509 0.55271 0.0
C347 C 0.01157 0.39262 0.56273 0.0
C348 C 0.67075 0.12253 0.47987 0.0
C349 C 0.64759 0.17108 0.47626 0.0
C350 C 0.72189 0.11836 0.48816 0.0
C351 C 0.75257 0.16257 0.49307 0.0
H352 H 0.64954 0.08719 0.4758 0.0
H353 H 0.7378 0.07976 0.49023 0.0
S354 S 0.70921 0.29918 0.48776 0.0
N355 N 0.65799 0.2647 0.47931 0.0
N356 N 0.75491 0.25681 0.49479 0.0
C357 C 0.72924 0.21157 0.49053 0.0
C358 C 0.6766 0.21583 0.48214 0.0
C359 C 0.99079 0.17106 0.71446 0.0
C360 C 0.00672 0.13115 0.72981 0.0
C361 C 0.98726 0.22238 0.72256 0.0
C362 C 0.99969 0.23538 0.74623 0.0
H363 H 0.98216 0.16274 0.6959 0.0
H364 H 0.97762 0.2525 0.70992 0.0
S365 S 0.04299 0.14529 0.79344 0.0
N366 N 0.0334 0.10766 0.76986 0.0
N367 N 0.02819 0.20473 0.78496 0.0
C368 C 0.01398 0.19569 0.76195 0.0
C369 C 0.017 0.14328 0.75377 0.0
C370 C 0.98484 0.46886 0.9638 0.0
C371 C 0.02626 0.50228 0.97011 0.0
C372 C 0.93734 0.47001 0.97619 0.0
C373 C 0.92967 0.50473 0.99525 0.0
H374 H 0.98845 0.44289 0.94863 0.0
H375 H 0.90555 0.44568 0.96999 0.0
S376 S 0.02814 0.59399 0.02124 0.0
N377 N 0.0583 0.56653 0.99843 0.0
N378 N 0.96873 0.56913 0.02151 0.0
C379 C 0.97154 0.53625 0.00253 0.0
C380 C 0.0199 0.53503 0.98998 0.0
C381 C 0.6361 0.50334 0.24303 0.0
C382 C 0.67045 0.51961 0.22514 0.0
C383 C 0.64132 0.45422 0.25334 0.0
C384 C 0.68087 0.41982 0.24599 0.0
H385 H 0.60525 0.52878 0.24915 0.0
H386 H 0.61413 0.44307 0.26715 0.0
S387 S 0.77695 0.44247 0.1979 0.0
N388 N 0.74309 0.49681 0.19941 0.0
N389 N 0.75274 0.40436 0.2187 0.0
C390 C 0.71511 0.43558 0.22794 0.0
C391 C 0.70986 0.48557 0.21751 0.0
C392 C 0.06034 0.95383 0.41926 0.0
C393 C 0.07271 0.92561 0.39849 0.0
C394 C 0.08337 0.94177 0.44122 0.0
C395 C 0.11931 0.90082 0.44325 0.0
H396 H 0.03505 0.9874 0.41832 0.0
H397 H 0.07404 0.96577 0.45655 0.0
S398 S 0.15902 0.81087 0.39458 0.0
N399 N 0.11937 0.85244 0.38156 0.0
N400 N 0.16196 0.82874 0.42288 0.0
C401 C 0.12962 0.87045 0.42283 0.0
C402 C 0.10648 0.88311 0.40044 0.0
C403 C 0.22147 0.59052 0.65959 0.0
C404 C 0.25413 0.55039 0.65121 0.0
C405 C 0.22836 0.61259 0.68245 0.0
C406 C 0.26733 0.59442 0.69798 0.0
H407 H 0.18997 0.60465 0.6485 0.0
H408 H 0.20155 0.64241 0.68839 0.0
S409 S 0.36549 0.49316 0.6843 0.0
N410 N 0.32928 0.49617 0.65996 0.0
N411 N 0.34093 0.53645 0.70294 0.0
C412 C 0.30116 0.55561 0.68959 0.0
C413 C 0.29493 0.53394 0.66622 0.0
C414 C 0.64906 0.77724 0.91195 0.0
C415 C 0.62055 0.74488 0.89645 0.0
C416 C 0.63298 0.78492 0.93573 0.0
C417 C 0.58791 0.76045 0.94471 0.0
H418 H 0.68406 0.79636 0.90573 0.0
H419 H 0.65615 0.80986 0.94721 0.0
S420 S 0.50426 0.66667 0.91197 0.0
N421 N 0.54808 0.6849 0.89223 0.0
N422 N 0.51763 0.69965 0.93656 0.0
C423 C 0.55958 0.72767 0.92934 0.0
C424 C 0.57604 0.71972 0.90532 0.0
C425 C 0.47832 0.09411 0.17305 0.0
C426 C 0.44479 0.10314 0.15365 0.0
C427 C 0.46011 0.07195 0.19409 0.0
C428 C 0.40779 0.05685 0.19642 0.0
H429 H 0.51959 0.10284 0.17168 0.0
H430 H 0.48784 0.06489 0.20828 0.0
S431 S 0.30319 0.07569 0.15146 0.0
N432 N 0.35622 0.09849 0.13847 0.0
N433 N 0.32159 0.05561 0.17812 0.0
C434 C 0.37326 0.06716 0.17745 0.0
C435 C 0.39183 0.09077 0.15604 0.0
C436 C 0.15815 0.68259 0.85447 0.0
C437 C 0.18517 0.647 0.86886 0.0
C438 C 0.17589 0.69467 0.83146 0.0
C439 C 0.22051 0.67078 0.82188 0.0
H440 H 0.12247 0.7004 0.86076 0.0
H441 H 0.15373 0.72182 0.82082 0.0
S442 S 0.30916 0.58026 0.85292 0.0
N443 N 0.26272 0.59262 0.87245 0.0
N444 N 0.29354 0.61352 0.82893 0.0
C445 C 0.2488 0.63669 0.83622 0.0
C446 C 0.23181 0.62534 0.8598 0.0
C447 C 0.49498 0.72595 0.112 0.0
C448 C 0.54047 0.69883 0.11802 0.0
C449 C 0.48363 0.73788 0.0882 0.0
C450 C 0.51817 0.72444 0.06965 0.0
H451 H 0.46817 0.73833 0.12581 0.0
H452 H 0.44789 0.75863 0.0844 0.0
S453 S 0.64469 0.65636 0.07655 0.0
N454 N 0.62123 0.66033 0.10391 0.0
N455 N 0.60077 0.68396 0.0592 0.0
C456 C 0.56428 0.69796 0.07555 0.0
C457 C 0.57521 0.6848 0.09974 0.0
C458 C 0.50658 0.03396 0.35554 0.0
C459 C 0.4626 0.0394 0.37024 0.0
C460 C 0.50124 0.02074 0.3314 0.0
C461 C 0.45182 0.01185 0.32115 0.0
H462 H 0.54508 0.04382 0.36216 0.0
H463 H 0.53595 0.02024 0.32043 0.0
S464 S 0.32561 0.00934 0.35346 0.0
N465 N 0.36894 0.0262 0.37392 0.0
N466 N 0.3589 1.00108 0.32856 0.0
C467 C 0.40812 0.01151 0.33629 0.0
C468 C 0.41354 0.02539 0.36085 0.0
C469 C 0.17554 0.00253 0.60558 0.0
C470 C 0.13312 0.97942 0.61735 0.0
C471 C 0.18433 0.99316 0.58118 0.0
C472 C 0.15147 0.95981 0.56811 0.0
H473 H 0.20062 0.02968 0.61496 0.0
H474 H 0.21607 0.01303 0.57237 0.0
S475 S 0.0395 0.88476 0.591 0.0
N476 N 0.06092 0.91803 0.6143 0.0
N477 N 0.07817 0.90055 0.56869 0.0
C478 C 0.11097 0.93435 0.57987 0.0
C479 C 0.10162 0.94408 0.60448 0.0
C480 C 0.67621 0.54332 0.9302 0.0
C481 C 0.717 0.5552 0.91439 0.0
C482 C 0.68675 0.52301 0.95284 0.0
C483 C 0.73818 0.51324 0.96011 0.0
H484 H 0.63609 0.55129 0.92538 0.0
H485 H 0.65457 0.51523 0.96479 0.0
S486 S 0.85845 0.53379 0.92509 0.0
N487 N 0.81084 0.5533 0.90742 0.0
N488 N 0.82987 0.51422 0.9498 0.0
C489 C 0.77905 0.52312 0.94432 0.0
C490 C 0.76863 0.54437 0.92145 0.0
C491 C 0.66465 0.14166 0.1721 0.0
C492 C 0.64055 0.17678 0.15653 0.0
C493 C 0.67217 0.15425 0.19625 0.0
C494 C 0.65721 0.20286 0.20547 0.0
H495 H 0.67496 0.10313 0.16594 0.0
H496 H 0.68859 0.12526 0.20796 0.0
S497 S 0.59773 0.31055 0.17159 0.0
N498 N 0.60502 0.2636 0.1517 0.0
N499 N 0.62095 0.28763 0.19691 0.0
C500 C 0.63631 0.23956 0.18979 0.0
C501 C 0.62749 0.22639 0.16535 0.0
C502 C 0.99812 0.12108 0.42667 0.0
C503 C 0.96308 0.13271 0.40813 0.0
C504 C 0.98788 0.13674 0.45017 0.0
C505 C 0.94313 0.1657 0.4557 0.0
H506 H 0.03238 0.09768 0.4232 0.0
H507 H 0.01509 0.12611 0.46411 0.0
S508 S 0.84013 0.20737 0.41361 0.0
N509 N 0.8821 0.17505 0.39687 0.0
N510 N 0.86418 0.20646 0.44096 0.0
C511 C 0.90873 0.17908 0.43728 0.0
C512 C 0.91838 0.16201 0.41348 0.0
C513 C 0.09434 0.4541 0.68558 0.0
C514 C 0.06256 0.46691 0.66611 0.0
C515 C 0.07283 0.437 0.70691 0.0
C516 C 0.01863 0.43144 0.70956 0.0
H517 H 0.13638 0.45775 0.6844 0.0
H518 H 0.09916 0.42843 0.72149 0.0
S519 S 0.91869 0.45582 0.66294 0.0
N520 N 0.97462 0.47054 0.65003 0.0
N521 N 0.93352 0.43767 0.69034 0.0
C522 C 0.98624 0.44293 0.68997 0.0
C523 C 0.00837 0.46104 0.66819 0.0
C524 C 0.60984 0.28352 0.3736 0.0
C525 C 0.57323 0.24336 0.37631 0.0
C526 C 0.63192 0.29439 0.35128 0.0
C527 C 0.61887 0.26488 0.3309 0.0
H528 H 0.62253 0.30585 0.38899 0.0
H529 H 0.66027 0.32543 0.35015 0.0
S530 S 0.52523 0.15509 0.32854 0.0
N531 N 0.52463 0.17417 0.35669 0.0
N532 N 0.56634 0.19412 0.31492 0.0
C533 C 0.58151 0.22526 0.33331 0.0
C534 C 0.55859 0.21464 0.35595 0.0
C535 C 0.91471 0.03487 0.61171 0.0
C536 C 0.92688 0.07252 0.62906 0.0
C537 C 0.9043 0.04911 0.58805 0.0
C538 C 0.90569 0.10149 0.58087 0.0
H539 H 0.91729 0.99403 0.61593 0.0
H540 H 0.89788 0.01848 0.57506 0.0
S541 S 0.92619 0.21521 0.62092 0.0
N542 N 0.93228 0.16448 0.63846 0.0
N543 N 0.91313 0.19139 0.59419 0.0
C544 C 0.91295 0.13965 0.59868 0.0
C545 C 0.92337 0.12509 0.62272 0.0
C546 C 0.13731 0.41516 0.86304 0.0
C547 C 0.1026 0.44414 0.8771 0.0
C548 C 0.12085 0.39324 0.84132 0.0
C549 C 0.06914 0.3994 0.8331 0.0
H550 H 0.17814 0.41267 0.86791 0.0
H551 H 0.14961 0.37399 0.83026 0.0
S552 S 0.96126 0.4638 0.86599 0.0
N553 N 0.01288 0.4714 0.88327 0.0
N554 N 0.98188 0.43054 0.84263 0.0
C555 C 0.03303 0.42382 0.84831 0.0
C556 C 0.04986 0.44623 0.87026 0.0
C557 C 0.72901 0.53092 0.12322 0.0
C558 C 0.73164 0.58175 0.13253 0.0
C559 C 0.74766 0.5191 0.10041 0.0
C560 C 0.76976 0.55768 0.08601 0.0
H561 H 0.70934 0.50051 0.13296 0.0
H562 H 0.74129 0.4803 0.09347 0.0
S563 S 0.79814 0.69337 0.10439 0.0
N564 N 0.76683 0.6685 0.12734 0.0
N565 N 0.80248 0.6462 0.08445 0.0
C566 C 0.77807 0.60714 0.09615 0.0
C567 C 0.75899 0.61919 0.11945 0.0
loop_
_geom_bond_atom_site_label_1
_geom_bond_atom_site_label_2
_geom_bond_distance
_geom_bond_site_symmetry_2
_ccdc_geom_bond_type
Mg0 O7 2.141 . S
Mg0 O8 2.048 1_545 S
Mg0 O9 2.048 1_455 S
Mg0 O12 2.141 1_455 S
C1 O2 1.313 . S
C1 O8 1.195 . S
O2 C1 1.313 . S
C3 O4 1.245 . S
C3 O12 1.289 . S
O4 C3 1.245 . S
C5 O6 1.245 . S
C5 O7 1.289 1_565 S
O6 C5 1.245 . S
O7 Mg0 2.141 . S
O7 C5 1.289 1_545 S
O8 Mg0 2.048 1_565 S
O8 C1 1.195 . S
O9 Mg0 2.048 1_655 S
O9 C10 1.195 . S
C10 O9 1.195 . S
C10 O11 1.313 1_545 S
O11 C10 1.313 1_565 S
O12 Mg0 2.141 1_655 S
O12 C3 1.289 . S
Mg13 O20 2.141 . S
Mg13 O21 2.048 . S
Mg13 O22 2.048 . S
Mg13 O25 2.141 . S
C14 O15 1.313 . S
C14 O21 1.195 . S
O15 C14 1.313 . S
C16 O17 1.245 . S
C16 O25 1.289 . S
O17 C16 1.245 . S
C18 O19 1.245 . S
C18 O20 1.289 . S
O19 C18 1.245 . S
O20 Mg13 2.141 . S
O20 C18 1.289 . S
O21 Mg13 2.048 . S
O21 C14 1.195 . S
O22 Mg13 2.048 . S
O22 C23 1.195 . S
C23 O22 1.195 . S
C23 O24 1.313 . S
O24 C23 1.313 . S
O25 Mg13 2.141 . S
O25 C16 1.289 . S
Mg26 O33 2.141 . S
Mg26 O34 2.048 . S
Mg26 O35 2.048 . S
Mg26 O38 2.141 . S
C27 O28 1.313 . S
C27 O34 1.195 . S
O28 C27 1.313 . S
C29 O30 1.245 . S
C29 O38 1.289 . S
O30 C29 1.245 . S
C31 O32 1.245 . S
C31 O33 1.289 . S
O32 C31 1.245 . S
O33 Mg26 2.141 . S
O33 C31 1.289 . S
O34 Mg26 2.048 . S
O34 C27 1.195 . S
O35 Mg26 2.048 . S
O35 C36 1.195 . S
C36 O35 1.195 . S
C36 O37 1.313 . S
O37 C36 1.313 . S
O38 Mg26 2.141 . S
O38 C29 1.289 . S
Mg39 O46 2.141 . S
Mg39 O47 2.048 . S
Mg39 O48 2.048 . S
Mg39 O51 2.141 . S
C40 O41 1.313 . S
C40 O47 1.195 . S
O41 C40 1.313 . S
C42 O43 1.245 . S
C42 O51 1.289 . S
O43 C42 1.245 . S
C44 O45 1.245 . S
C44 O46 1.289 . S
O45 C44 1.245 . S
O46 Mg39 2.141 . S
O46 C44 1.289 . S
O47 Mg39 2.048 . S
O47 C40 1.195 . S
O48 Mg39 2.048 . S
O48 C49 1.195 . S
C49 O48 1.195 . S
C49 O50 1.313 . S
O50 C49 1.313 . S
O51 Mg39 2.141 . S
O51 C42 1.289 . S
Mg52 O59 2.141 . S
Mg52 O60 2.048 . S
Mg52 O61 2.048 . S
Mg52 O64 2.141 . S
C53 O54 1.313 . S
C53 O60 1.195 . S
O54 C53 1.313 . S
C55 O56 1.245 . S
C55 O64 1.289 . S
O56 C55 1.245 . S
C57 O58 1.245 . S
C57 O59 1.289 . S
O58 C57 1.245 . S
O59 Mg52 2.141 . S
O59 C57 1.289 . S
O60 Mg52 2.048 . S
O60 C53 1.195 . S
O61 Mg52 2.048 . S
O61 C62 1.195 . S
C62 O61 1.195 . S
C62 O63 1.313 . S
O63 C62 1.313 . S
O64 Mg52 2.141 . S
O64 C55 1.289 . S
Mg65 O72 2.141 . S
Mg65 O73 2.048 . S
Mg65 O74 2.048 . S
Mg65 O77 2.141 . S
C66 O67 1.313 . S
C66 O73 1.195 . S
O67 C66 1.313 . S
C68 O69 1.245 . S
C68 O77 1.289 . S
O69 C68 1.245 . S
C70 O71 1.245 . S
C70 O72 1.289 . S
O71 C70 1.245 . S
O72 Mg65 2.141 . S
O72 C70 1.289 . S
O73 Mg65 2.048 . S
O73 C66 1.195 . S
O74 Mg65 2.048 . S
O74 C75 1.195 . S
C75 O74 1.195 . S
C75 O76 1.313 . S
O76 C75 1.313 . S
O77 Mg65 2.141 . S
O77 C68 1.289 . S
Mg78 O85 2.141 . S
Mg78 O86 2.048 . S
Mg78 O87 2.048 . S
Mg78 O90 2.141 . S
C79 O80 1.313 . S
C79 O86 1.195 . S
O80 C79 1.313 . S
C81 O82 1.245 . S
C81 O90 1.289 . S
O82 C81 1.245 . S
C83 O84 1.245 . S
C83 O85 1.289 . S
O84 C83 1.245 . S
O85 Mg78 2.141 . S
O85 C83 1.289 . S
O86 Mg78 2.048 . S
O86 C79 1.195 . S
O87 Mg78 2.048 . S
O87 C88 1.195 . S
C88 O87 1.195 . S
C88 O89 1.313 . S
O89 C88 1.313 . S
O90 Mg78 2.141 . S
O90 C81 1.289 . S
Mg91 O98 2.141 1_655 S
Mg91 O99 2.048 1_655 S
Mg91 O100 2.048 1_565 S
Mg91 O103 2.141 1_565 S
C92 O93 1.313 . S
C92 O99 1.195 . S
O93 C92 1.313 . S
C94 O95 1.245 1_655 S
C94 O103 1.289 . S
O95 C94 1.245 1_455 S
C96 O97 1.245 . S
C96 O98 1.289 . S
O97 C96 1.245 . S
O98 Mg91 2.141 1_455 S
O98 C96 1.289 . S
O99 Mg91 2.048 1_455 S
O99 C92 1.195 . S
O100 Mg91 2.048 1_545 S
O100 C101 1.195 . S
C101 O100 1.195 . S
C101 O102 1.313 1_655 S
O102 C101 1.313 1_455 S
O103 Mg91 2.141 1_545 S
O103 C94 1.289 . S
Co104 O105 2.210 1_554 S
Co104 O106 2.093 . S
Co104 O108 2.004 . S
Co104 O114 2.021 1_554 S
Co104 O116 2.137 . S
Co104 O117 2.244 . S
O105 Co104 2.210 1_556 S
O105 C112 1.250 . S
O106 Co104 2.093 . S
O106 C112 1.261 1_554 S
C107 O116 1.247 . S
C107 O117 1.272 . S
O108 Co104 2.004 . S
O108 C113 1.259 . S
Co109 O110 2.061 . S
Co109 O115 2.052 1_554 S
Co109 O117 2.135 . S
O110 Co109 2.061 . S
O110 C113 1.235 . S
C111 O114 1.238 . S
C111 O115 1.241 . S
C112 O105 1.250 . S
C112 O106 1.261 1_556 S
C113 O108 1.259 . S
C113 O110 1.235 . S
O114 Co104 2.021 1_556 S
O114 C111 1.238 . S
O115 Co109 2.052 1_556 S
O115 C111 1.241 . S
O116 Co104 2.137 . S
O116 C107 1.247 . S
O117 Co104 2.244 . S
O117 C107 1.272 . S
O117 Co109 2.135 . S
Co118 O119 2.216 . S
Co118 O120 2.091 . S
Co118 O122 2.004 . S
Co118 O128 2.021 . S
Co118 O130 2.137 . S
Co118 O131 2.244 . S
O119 Co118 2.216 . S
O119 C126 1.247 . S
O120 Co118 2.091 . S
O120 C126 1.261 . S
C121 O130 1.247 . S
C121 O131 1.272 . S
O122 Co118 2.004 . S
O122 C127 1.259 . S
Co123 O124 2.061 . S
Co123 O129 2.052 . S
Co123 O131 2.135 . S
O124 Co123 2.061 . S
O124 C127 1.235 . S
C125 O128 1.238 . S
C125 O129 1.241 . S
C126 O119 1.247 . S
C126 O120 1.261 . S
C127 O122 1.259 . S
C127 O124 1.235 . S
O128 Co118 2.021 . S
O128 C125 1.238 . S
O129 Co123 2.052 . S
O129 C125 1.241 . S
O130 Co118 2.137 . S
O130 C121 1.247 . S
O131 Co118 2.244 . S
O131 C121 1.272 . S
O131 Co123 2.135 . S
Co132 O133 2.216 . S
Co132 O134 2.091 . S
Co132 O136 2.004 . S
Co132 O142 2.021 . S
Co132 O144 2.137 . S
Co132 O145 2.244 . S
O133 Co132 2.216 . S
O133 C140 1.247 . S
O134 Co132 2.091 . S
O134 C140 1.261 . S
C135 O144 1.247 . S
C135 O145 1.272 . S
O136 Co132 2.004 . S
O136 C141 1.259 . S
Co137 O138 2.061 . S
Co137 O143 2.052 . S
Co137 O145 2.135 . S
O138 Co137 2.061 . S
O138 C141 1.235 . S
C139 O142 1.238 . S
C139 O143 1.241 . S
C140 O133 1.247 . S
C140 O134 1.261 . S
C141 O136 1.259 . S
C141 O138 1.235 . S
O142 Co132 2.021 . S
O142 C139 1.238 . S
O143 Co137 2.052 . S
O143 C139 1.241 . S
O144 Co132 2.137 . S
O144 C135 1.247 . S
O145 Co132 2.244 . S
O145 C135 1.272 . S
O145 Co137 2.135 . S
Co146 O147 2.216 . S
Co146 O148 2.091 . S
Co146 O150 2.004 . S
Co146 O156 2.021 . S
Co146 O158 2.137 . S
Co146 O159 2.244 . S
O147 Co146 2.216 . S
O147 C154 1.247 . S
O148 Co146 2.091 . S
O148 C154 1.261 . S
C149 O158 1.247 . S
C149 O159 1.272 . S
O150 Co146 2.004 . S
O150 C155 1.259 . S
Co151 O152 2.061 . S
Co151 O157 2.052 . S
Co151 O159 2.135 . S
O152 Co151 2.061 . S
O152 C155 1.235 . S
C153 O156 1.238 . S
C153 O157 1.241 . S
C154 O147 1.247 . S
C154 O148 1.261 . S
C155 O150 1.259 . S
C155 O152 1.235 . S
O156 Co146 2.021 . S
O156 C153 1.238 . S
O157 Co151 2.052 . S
O157 C153 1.241 . S
O158 Co146 2.137 . S
O158 C149 1.247 . S
O159 Co146 2.244 . S
O159 C149 1.272 . S
O159 Co151 2.135 . S
Co160 O161 2.216 . S
Co160 O162 2.091 . S
Co160 O164 2.004 . S
Co160 O170 2.021 . S
Co160 O172 2.137 . S
Co160 O173 2.244 . S
O161 Co160 2.216 . S
O161 C168 1.247 . S
O162 Co160 2.091 . S
O162 C168 1.261 . S
C163 O172 1.247 . S
C163 O173 1.272 . S
O164 Co160 2.004 . S
O164 C169 1.259 . S
Co165 O166 2.061 . S
Co165 O171 2.052 . S
Co165 O173 2.135 . S
O166 Co165 2.061 . S
O166 C169 1.235 . S
C167 O170 1.238 . S
C167 O171 1.241 . S
C168 O161 1.247 . S
C168 O162 1.261 . S
C169 O164 1.259 . S
C169 O166 1.235 . S
O170 Co160 2.021 . S
O170 C167 1.238 . S
O171 Co165 2.052 . S
O171 C167 1.241 . S
O172 Co160 2.137 . S
O172 C163 1.247 . S
O173 Co160 2.244 . S
O173 C163 1.272 . S
O173 Co165 2.135 . S
Co174 O175 2.216 . S
Co174 O176 2.091 . S
Co174 O178 2.004 . S
Co174 O184 2.021 . S
Co174 O186 2.137 . S
Co174 O187 2.244 1_655 S
O175 Co174 2.216 . S
O175 C182 1.247 . S
O176 Co174 2.091 . S
O176 C182 1.261 . S
C177 O186 1.247 . S
C177 O187 1.272 1_655 S
O178 Co174 2.004 . S
O178 C183 1.259 . S
Co179 O180 2.061 . S
Co179 O185 2.052 . S
Co179 O187 2.135 . S
O180 Co179 2.061 . S
O180 C183 1.235 1_455 S
C181 O184 1.238 1_455 S
C181 O185 1.241 . S
C182 O175 1.247 . S
C182 O176 1.261 . S
C183 O178 1.259 . S
C183 O180 1.235 1_655 S
O184 Co174 2.021 . S
O184 C181 1.238 1_655 S
O185 Co179 2.052 . S
O185 C181 1.241 . S
O186 Co174 2.137 . S
O186 C177 1.247 . S
O187 Co174 2.244 1_455 S
O187 C177 1.272 1_455 S
O187 Co179 2.135 . S
Co188 O189 2.216 . S
Co188 O190 2.091 . S
Co188 O192 2.004 . S
Co188 O198 2.021 . S
Co188 O200 2.137 1_554 S
Co188 O201 2.244 . S
O189 Co188 2.216 . S
O189 C196 1.247 . S
O190 Co188 2.091 . S
O190 C196 1.261 . S
C191 O200 1.247 . S
C191 O201 1.272 1_556 S
O192 Co188 2.004 . S
O192 C197 1.259 . S
Co193 O194 2.061 . S
Co193 O199 2.052 . S
Co193 O201 2.135 . S
O194 Co193 2.061 . S
O194 C197 1.235 . S
C195 O198 1.238 . S
C195 O199 1.241 . S
C196 O189 1.247 . S
C196 O190 1.261 . S
C197 O192 1.259 . S
C197 O194 1.235 . S
O198 Co188 2.021 . S
O198 C195 1.238 . S
O199 Co193 2.052 . S
O199 C195 1.241 . S
O200 Co188 2.137 1_556 S
O200 C191 1.247 . S
O201 Co188 2.244 . S
O201 C191 1.272 1_554 S
O201 Co193 2.135 . S
Co202 O203 2.216 . S
Co202 O204 2.091 . S
Co202 O206 2.004 . S
Co202 O212 2.021 . S
Co202 O214 2.137 . S
Co202 O215 2.244 . S
O203 Co202 2.216 . S
O203 C210 1.247 . S
O204 Co202 2.091 . S
O204 C210 1.261 . S
C205 O214 1.247 . S
C205 O215 1.272 . S
O206 Co202 2.004 . S
O206 C211 1.259 . S
Co207 O208 2.061 . S
Co207 O213 2.052 . S
Co207 O215 2.135 . S
O208 Co207 2.061 . S
O208 C211 1.235 . S
C209 O212 1.238 . S
C209 O213 1.241 . S
C210 O203 1.247 . S
C210 O204 1.261 . S
C211 O206 1.259 . S
C211 O208 1.235 . S
O212 Co202 2.021 . S
O212 C209 1.238 . S
O213 Co207 2.052 . S
O213 C209 1.241 . S
O214 Co202 2.137 . S
O214 C205 1.247 . S
O215 Co202 2.244 . S
O215 C205 1.272 . S
O215 Co207 2.135 . S
C216 C217 1.369 . S
C216 C218 1.419 . S
C216 H220 0.930 1_565 S
C217 C216 1.369 . S
C217 C226 1.429 . S
C218 C216 1.419 . S
C218 C219 1.363 . S
C218 H221 0.929 1_565 S
C219 C218 1.363 . S
C219 C225 1.428 . S
H220 C216 0.930 1_545 S
H221 C218 0.929 1_545 S
S222 N223 1.613 . S
S222 N224 1.610 . S
N223 S222 1.613 . S
N223 C226 1.350 . S
N224 S222 1.610 . S
N224 C225 1.351 . S
C225 C219 1.428 . S
C225 N224 1.351 . S
C225 C226 1.434 . S
C226 C217 1.429 . S
C226 N223 1.350 . S
C226 C225 1.434 . S
C227 C228 1.369 . S
C227 C229 1.419 . S
C227 H231 0.930 . S
C228 C227 1.369 . S
C228 C237 1.429 . S
C229 C227 1.419 . S
C229 C230 1.363 . S
C229 H232 0.929 . S
C230 C229 1.363 . S
C230 C236 1.428 . S
H231 C227 0.930 . S
H232 C229 0.929 . S
S233 N234 1.613 . S
S233 N235 1.610 . S
N234 S233 1.613 . S
N234 C237 1.350 . S
N235 S233 1.610 . S
N235 C236 1.351 . S
C236 C230 1.428 . S
C236 N235 1.351 . S
C236 C237 1.434 . S
C237 C228 1.429 . S
C237 N234 1.350 . S
C237 C236 1.434 . S
C238 C239 1.369 . S
C238 C240 1.419 . S
C238 H242 0.930 . S
C239 C238 1.369 . S
C239 C248 1.429 . S
C240 C238 1.419 . S
C240 C241 1.363 . S
C240 H243 0.929 . S
C241 C240 1.363 . S
C241 C247 1.428 . S
H242 C238 0.930 . S
H243 C240 0.929 . S
S244 N245 1.613 . S
S244 N246 1.610 . S
N245 S244 1.613 . S
N245 C248 1.350 . S
N246 S244 1.610 . S
N246 C247 1.351 . S
C247 C241 1.428 . S
C247 N246 1.351 . S
C247 C248 1.434 . S
C248 C239 1.429 . S
C248 N245 1.350 . S
C248 C247 1.434 . S
C249 C250 1.369 . S
C249 C251 1.419 . S
C249 H253 0.930 . S
C250 C249 1.369 . S
C250 C259 1.429 . S
C251 C249 1.419 . S
C251 C252 1.363 1_545 S
C251 H254 0.929 . S
C252 C251 1.363 1_565 S
C252 C258 1.428 . S
H253 C249 0.930 . S
H254 C251 0.929 . S
S255 N256 1.613 1_565 S
S255 N257 1.610 . S
N256 S255 1.613 1_545 S
N256 C259 1.350 . S
N257 S255 1.610 . S
N257 C258 1.351 . S
C258 C252 1.428 . S
C258 N257 1.351 . S
C258 C259 1.434 1_565 S
C259 C250 1.429 . S
C259 N256 1.350 . S
C259 C258 1.434 1_545 S
C260 C261 1.369 . S
C260 C262 1.416 1_556 S
C260 H264 0.930 1_556 S
C261 C260 1.369 . S
C261 C270 1.429 . S
C262 C260 1.416 1_554 S
C262 C263 1.359 1_554 S
C262 H265 0.936 . S
C263 C262 1.359 1_556 S
C263 C269 1.428 . S
H264 C260 0.930 1_554 S
H265 C262 0.936 . S
S266 N267 1.613 . S
S266 N268 1.610 . S
N267 S266 1.613 . S
N267 C270 1.350 . S
N268 S266 1.610 . S
N268 C269 1.351 . S
C269 C263 1.428 . S
C269 N268 1.351 . S
C269 C270 1.434 . S
C270 C261 1.429 . S
C270 N267 1.350 . S
C270 C269 1.434 . S
C271 C272 1.369 . S
C271 C273 1.419 . S
C271 H275 0.930 . S
C272 C271 1.369 . S
C272 C281 1.429 . S
C273 C271 1.419 . S
C273 C274 1.363 . S
C273 H276 0.929 . S
C274 C273 1.363 . S
C274 C280 1.428 . S
H275 C271 0.930 . S
H276 C273 0.929 . S
S277 N278 1.613 . S
S277 N279 1.610 . S
N278 S277 1.613 . S
N278 C281 1.350 . S
N279 S277 1.610 . S
N279 C280 1.351 . S
C280 C274 1.428 . S
C280 N279 1.351 . S
C280 C281 1.434 . S
C281 C272 1.429 . S
C281 N278 1.350 . S
C281 C280 1.434 . S
C282 C283 1.369 . S
C282 C284 1.419 . S
C282 H286 0.930 . S
C283 C282 1.369 . S
C283 C292 1.429 1_545 S
C284 C282 1.419 . S
C284 C285 1.363 1_545 S
C284 H287 0.929 . S
C285 C284 1.363 1_565 S
C285 C291 1.428 . S
H286 C282 0.930 . S
H287 C284 0.929 . S
S288 N289 1.613 . S
S288 N290 1.610 . S
N289 S288 1.613 . S
N289 C292 1.350 . S
N290 S288 1.610 . S
N290 C291 1.351 . S
C291 C285 1.428 . S
C291 N290 1.351 . S
C291 C292 1.434 . S
C292 C283 1.429 1_565 S
C292 N289 1.350 . S
C292 C291 1.434 . S
C293 C294 1.369 . S
C293 C295 1.419 . S
C293 H297 0.930 . S
C294 C293 1.369 . S
C294 C303 1.429 . S
C295 C293 1.419 . S
C295 C296 1.363 . S
C295 H298 0.929 . S
C296 C295 1.363 . S
C296 C302 1.428 . S
H297 C293 0.930 . S
H298 C295 0.929 . S
S299 N300 1.613 . S
S299 N301 1.610 . S
N300 S299 1.613 . S
N300 C303 1.350 . S
N301 S299 1.610 . S
N301 C302 1.351 . S
C302 C296 1.428 . S
C302 N301 1.351 . S
C302 C303 1.434 . S
C303 C294 1.429 . S
C303 N300 1.350 . S
C303 C302 1.434 . S
C304 C305 1.369 . S
C304 C306 1.419 . S
C304 H308 0.930 . S
C305 C304 1.369 . S
C305 C314 1.429 . S
C306 C304 1.419 . S
C306 C307 1.363 . S
C306 H309 0.929 . S
C307 C306 1.363 . S
C307 C313 1.428 . S
H308 C304 0.930 . S
H309 C306 0.929 . S
S310 N311 1.613 . S
S310 N312 1.610 . S
N311 S310 1.613 . S
N311 C314 1.350 . S
N312 S310 1.610 . S
N312 C313 1.351 . S
C313 C307 1.428 . S
C313 N312 1.351 . S
C313 C314 1.434 . S
C314 C305 1.429 . S
C314 N311 1.350 . S
C314 C313 1.434 . S
C315 C316 1.369 . S
C315 C317 1.419 . S
C315 H319 0.930 . S
C316 C315 1.369 . S
C316 C325 1.429 . S
C317 C315 1.419 . S
C317 C318 1.363 . S
C317 H320 0.929 . S
C318 C317 1.363 . S
C318 C324 1.428 . S
H319 C315 0.930 . S
H320 C317 0.929 . S
S321 N322 1.613 . S
S321 N323 1.610 . S
N322 S321 1.613 . S
N322 C325 1.350 . S
N323 S321 1.610 . S
N323 C324 1.351 . S
C324 C318 1.428 . S
C324 N323 1.351 . S
C324 C325 1.434 . S
C325 C316 1.429 . S
C325 N322 1.350 . S
C325 C324 1.434 . S
C326 C327 1.369 . S
C326 C328 1.419 . S
C326 H330 0.930 . S
C327 C326 1.369 . S
C327 C336 1.429 . S
C328 C326 1.419 . S
C328 C329 1.363 . S
C328 H331 0.929 . S
C329 C328 1.363 . S
C329 C335 1.428 . S
H330 C326 0.930 . S
H331 C328 0.929 . S
S332 N333 1.613 . S
S332 N334 1.610 . S
N333 S332 1.613 . S
N333 C336 1.350 . S
N334 S332 1.610 . S
N334 C335 1.351 . S
C335 C329 1.428 . S
C335 N334 1.351 . S
C335 C336 1.434 . S
C336 C327 1.429 . S
C336 N333 1.350 . S
C336 C335 1.434 . S
C337 C338 1.369 . S
C337 C339 1.419 . S
C337 H341 0.930 . S
C338 C337 1.369 . S
C338 C347 1.429 . S
C339 C337 1.419 . S
C339 C340 1.363 1_455 S
C339 H342 0.929 . S
C340 C339 1.363 1_655 S
C340 C346 1.428 . S
H341 C337 0.930 . S
H342 C339 0.929 . S
S343 N344 1.613 . S
S343 N345 1.610 . S
N344 S343 1.613 . S
N344 C347 1.350 1_655 S
N345 S343 1.610 . S
N345 C346 1.351 . S
C346 C340 1.428 . S
C346 N345 1.351 . S
C346 C347 1.434 1_655 S
C347 C338 1.429 . S
C347 N344 1.350 1_455 S
C347 C346 1.434 1_455 S
C348 C349 1.369 . S
C348 C350 1.419 . S
C348 H352 0.930 . S
C349 C348 1.369 . S
C349 C358 1.429 . S
C350 C348 1.419 . S
C350 C351 1.363 . S
C350 H353 0.929 . S
C351 C350 1.363 . S
C351 C357 1.428 . S
H352 C348 0.930 . S
H353 C350 0.929 . S
S354 N355 1.613 . S
S354 N356 1.610 . S
N355 S354 1.613 . S
N355 C358 1.350 . S
N356 S354 1.610 . S
N356 C357 1.351 . S
C357 C351 1.428 . S
C357 N356 1.351 . S
C357 C358 1.434 . S
C358 C349 1.429 . S
C358 N355 1.350 . S
C358 C357 1.434 . S
C359 C360 1.369 . S
C359 C361 1.419 . S
C359 H363 0.930 . S
C360 C359 1.369 . S
C360 C369 1.429 1_655 S
C361 C359 1.419 . S
C361 C362 1.363 . S
C361 H364 0.929 . S
C362 C361 1.363 . S
C362 C368 1.430 1_655 S
H363 C359 0.930 . S
H364 C361 0.929 . S
S365 N366 1.613 . S
S365 N367 1.610 . S
N366 S365 1.613 . S
N366 C369 1.350 . S
N367 S365 1.610 . S
N367 C368 1.350 . S
C368 C362 1.430 1_455 S
C368 N367 1.350 . S
C368 C369 1.434 . S
C369 C360 1.429 1_455 S
C369 N366 1.350 . S
C369 C368 1.434 . S
C370 C371 1.369 . S
C370 C372 1.419 1_455 S
C370 H374 0.930 . S
C371 C370 1.369 . S
C371 C380 1.429 1_556 S
C372 C370 1.419 1_655 S
C372 C373 1.363 1_556 S
C372 H375 0.929 . S
C373 C372 1.363 1_554 S
C373 C379 1.428 1_655 S
H374 C370 0.930 . S
H375 C372 0.929 . S
S376 N377 1.613 . S
S376 N378 1.610 . S
N377 S376 1.613 . S
N377 C380 1.350 . S
N378 S376 1.610 . S
N378 C379 1.351 . S
C379 C373 1.428 1_455 S
C379 N378 1.351 . S
C379 C380 1.434 . S
C380 C371 1.429 1_554 S
C380 N377 1.350 . S
C380 C379 1.434 . S
C381 C382 1.369 . S
C381 C383 1.419 . S
C381 H385 0.930 . S
C382 C381 1.369 . S
C382 C391 1.429 . S
C383 C381 1.419 . S
C383 C384 1.363 . S
C383 H386 0.929 . S
C384 C383 1.363 . S
C384 C390 1.428 . S
H385 C381 0.930 . S
H386 C383 0.929 . S
S387 N388 1.613 . S
S387 N389 1.610 . S
N388 S387 1.613 . S
N388 C391 1.350 . S
N389 S387 1.610 . S
N389 C390 1.351 . S
C390 C384 1.428 . S
C390 N389 1.351 . S
C390 C391 1.434 . S
C391 C382 1.429 . S
C391 N388 1.350 . S
C391 C390 1.434 . S
C392 C393 1.369 . S
C392 C394 1.419 . S
C392 H396 0.930 . S
C393 C392 1.369 . S
C393 C402 1.429 . S
C394 C392 1.419 . S
C394 C395 1.363 . S
C394 H397 0.929 . S
C395 C394 1.363 . S
C395 C401 1.428 . S
H396 C392 0.930 . S
H397 C394 0.929 . S
S398 N399 1.613 . S
S398 N400 1.610 . S
N399 S398 1.613 . S
N399 C402 1.350 . S
N400 S398 1.610 . S
N400 C401 1.351 . S
C401 C395 1.428 . S
C401 N400 1.351 . S
C401 C402 1.434 . S
C402 C393 1.429 . S
C402 N399 1.350 . S
C402 C401 1.434 . S
C403 C404 1.369 . S
C403 C405 1.419 . S
C403 H407 0.930 . S
C404 C403 1.369 . S
C404 C413 1.429 . S
C405 C403 1.419 . S
C405 C406 1.363 . S
C405 H408 0.929 . S
C406 C405 1.363 . S
C406 C412 1.428 . S
H407 C403 0.930 . S
H408 C405 0.929 . S
S409 N410 1.613 . S
S409 N411 1.610 . S
N410 S409 1.613 . S
N410 C413 1.350 . S
N411 S409 1.610 . S
N411 C412 1.351 . S
C412 C406 1.428 . S
C412 N411 1.351 . S
C412 C413 1.434 . S
C413 C404 1.429 . S
C413 N410 1.350 . S
C413 C412 1.434 . S
C414 C415 1.369 . S
C414 C416 1.419 . S
C414 H418 0.930 . S
C415 C414 1.369 . S
C415 C424 1.429 . S
C416 C414 1.419 . S
C416 C417 1.363 . S
C416 H419 0.929 . S
C417 C416 1.363 . S
C417 C423 1.428 . S
H418 C414 0.930 . S
H419 C416 0.929 . S
S420 N421 1.613 . S
S420 N422 1.610 . S
N421 S420 1.613 . S
N421 C424 1.350 . S
N422 S420 1.610 . S
N422 C423 1.351 . S
C423 C417 1.428 . S
C423 N422 1.351 . S
C423 C424 1.434 . S
C424 C415 1.429 . S
C424 N421 1.350 . S
C424 C423 1.434 . S
C425 C426 1.369 . S
C425 C427 1.419 . S
C425 H429 0.930 . S
C426 C425 1.369 . S
C426 C435 1.429 . S
C427 C425 1.419 . S
C427 C428 1.363 . S
C427 H430 0.929 . S
C428 C427 1.363 . S
C428 C434 1.428 . S
H429 C425 0.930 . S
H430 C427 0.929 . S
S431 N432 1.613 . S
S431 N433 1.610 . S
N432 S431 1.613 . S
N432 C435 1.350 . S
N433 S431 1.610 . S
N433 C434 1.351 . S
C434 C428 1.428 . S
C434 N433 1.351 . S
C434 C435 1.434 . S
C435 C426 1.429 . S
C435 N432 1.350 . S
C435 C434 1.434 . S
C436 C437 1.369 . S
C436 C438 1.419 . S
C436 H440 0.930 . S
C437 C436 1.369 . S
C437 C446 1.429 . S
C438 C436 1.419 . S
C438 C439 1.363 . S
C438 H441 0.929 . S
C439 C438 1.363 . S
C439 C445 1.428 . S
H440 C436 0.930 . S
H441 C438 0.929 . S
S442 N443 1.613 . S
S442 N444 1.610 . S
N443 S442 1.613 . S
N443 C446 1.350 . S
N444 S442 1.610 . S
N444 C445 1.351 . S
C445 C439 1.428 . S
C445 N444 1.351 . S
C445 C446 1.434 . S
C446 C437 1.429 . S
C446 N443 1.350 . S
C446 C445 1.434 . S
C447 C448 1.369 . S
C447 C449 1.419 . S
C447 H451 0.930 . S
C448 C447 1.369 . S
C448 C457 1.429 . S
C449 C447 1.419 . S
C449 C450 1.363 . S
C449 H452 0.929 . S
C450 C449 1.363 . S
C450 C456 1.428 . S
H451 C447 0.930 . S
H452 C449 0.929 . S
S453 N454 1.613 . S
S453 N455 1.610 . S
N454 S453 1.613 . S
N454 C457 1.350 . S
N455 S453 1.610 . S
N455 C456 1.351 . S
C456 C450 1.428 . S
C456 N455 1.351 . S
C456 C457 1.434 . S
C457 C448 1.429 . S
C457 N454 1.350 . S
C457 C456 1.434 . S
C458 C459 1.369 . S
C458 C460 1.419 . S
C458 H462 0.930 . S
C459 C458 1.369 . S
C459 C468 1.429 . S
C460 C458 1.419 . S
C460 C461 1.363 . S
C460 H463 0.929 . S
C461 C460 1.363 . S
C461 C467 1.428 1_545 S
H462 C458 0.930 . S
H463 C460 0.929 . S
S464 N465 1.613 1_565 S
S464 N466 1.610 . S
N465 S464 1.613 1_545 S
N465 C468 1.350 . S
N466 S464 1.610 . S
N466 C467 1.351 . S
C467 C461 1.428 1_565 S
C467 N466 1.351 . S
C467 C468 1.434 1_565 S
C468 C459 1.429 . S
C468 N465 1.350 . S
C468 C467 1.434 1_545 S
C469 C470 1.369 . S
C469 C471 1.419 . S
C469 H473 0.930 . S
C470 C469 1.369 . S
C470 C479 1.429 . S
C471 C469 1.419 . S
C471 C472 1.363 . S
C471 H474 0.929 . S
C472 C471 1.363 . S
C472 C478 1.428 . S
H473 C469 0.930 . S
H474 C471 0.929 . S
S475 N476 1.613 . S
S475 N477 1.610 . S
N476 S475 1.613 . S
N476 C479 1.350 . S
N477 S475 1.610 . S
N477 C478 1.351 . S
C478 C472 1.428 . S
C478 N477 1.351 . S
C478 C479 1.434 . S
C479 C470 1.429 . S
C479 N476 1.350 . S
C479 C478 1.434 . S
C480 C481 1.369 . S
C480 C482 1.419 . S
C480 H484 0.930 . S
C481 C480 1.369 . S
C481 C490 1.429 . S
C482 C480 1.419 . S
C482 C483 1.363 . S
C482 H485 0.929 . S
C483 C482 1.363 . S
C483 C489 1.428 . S
H484 C480 0.930 . S
H485 C482 0.929 . S
S486 N487 1.613 . S
S486 N488 1.610 . S
N487 S486 1.613 . S
N487 C490 1.350 . S
N488 S486 1.610 . S
N488 C489 1.351 . S
C489 C483 1.428 . S
C489 N488 1.351 . S
C489 C490 1.434 . S
C490 C481 1.429 . S
C490 N487 1.350 . S
C490 C489 1.434 . S
C491 C492 1.369 . S
C491 C493 1.419 . S
C491 H495 0.930 . S
C492 C491 1.369 . S
C492 C501 1.429 . S
C493 C491 1.419 . S
C493 C494 1.363 . S
C493 H496 0.929 . S
C494 C493 1.363 . S
C494 C500 1.428 . S
H495 C491 0.930 . S
H496 C493 0.929 . S
S497 N498 1.613 . S
S497 N499 1.610 . S
N498 S497 1.613 . S
N498 C501 1.350 . S
N499 S497 1.610 . S
N499 C500 1.351 . S
C500 C494 1.428 . S
C500 N499 1.351 . S
C500 C501 1.434 . S
C501 C492 1.429 . S
C501 N498 1.350 . S
C501 C500 1.434 . S
C502 C503 1.369 . S
C502 C504 1.419 . S
C502 H506 0.930 . S
C503 C502 1.369 . S
C503 C512 1.429 . S
C504 C502 1.419 . S
C504 C505 1.363 . S
C504 H507 0.929 . S
C505 C504 1.363 . S
C505 C511 1.428 . S
H506 C502 0.930 . S
H507 C504 0.929 . S
S508 N509 1.613 . S
S508 N510 1.610 . S
N509 S508 1.613 . S
N509 C512 1.350 . S
N510 S508 1.610 . S
N510 C511 1.351 . S
C511 C505 1.428 . S
C511 N510 1.351 . S
C511 C512 1.434 . S
C512 C503 1.429 . S
C512 N509 1.350 . S
C512 C511 1.434 . S
C513 C514 1.369 . S
C513 C515 1.419 . S
C513 H517 0.930 . S
C514 C513 1.369 . S
C514 C523 1.429 . S
C515 C513 1.419 . S
C515 C516 1.363 . S
C515 H518 0.929 . S
C516 C515 1.363 . S
C516 C522 1.428 1_455 S
H517 C513 0.930 . S
H518 C515 0.929 . S
S519 N520 1.613 1_655 S
S519 N521 1.610 . S
N520 S519 1.613 1_455 S
N520 C523 1.350 . S
N521 S519 1.610 . S
N521 C522 1.351 . S
C522 C516 1.428 1_655 S
C522 N521 1.351 . S
C522 C523 1.434 1_655 S
C523 C514 1.429 . S
C523 N520 1.350 . S
C523 C522 1.434 1_455 S
C524 C525 1.369 . S
C524 C526 1.419 . S
C524 H528 0.930 . S
C525 C524 1.369 . S
C525 C534 1.429 . S
C526 C524 1.419 . S
C526 C527 1.363 . S
C526 H529 0.929 . S
C527 C526 1.363 . S
C527 C533 1.428 . S
H528 C524 0.930 . S
H529 C526 0.929 . S
S530 N531 1.613 . S
S530 N532 1.610 . S
N531 S530 1.613 . S
N531 C534 1.350 . S
N532 S530 1.610 . S
N532 C533 1.351 . S
C533 C527 1.428 . S
C533 N532 1.351 . S
C533 C534 1.434 . S
C534 C525 1.429 . S
C534 N531 1.350 . S
C534 C533 1.434 . S
C535 C536 1.369 . S
C535 C537 1.419 . S
C535 H539 0.930 . S
C536 C535 1.369 . S
C536 C545 1.429 . S
C537 C535 1.419 . S
C537 C538 1.363 . S
C537 H540 0.929 . S
C538 C537 1.363 . S
C538 C544 1.428 . S
H539 C535 0.930 . S
H540 C537 0.929 . S
S541 N542 1.613 . S
S541 N543 1.610 . S
N542 S541 1.613 . S
N542 C545 1.350 . S
N543 S541 1.610 . S
N543 C544 1.351 . S
C544 C538 1.428 . S
C544 N543 1.351 . S
C544 C545 1.434 . S
C545 C536 1.429 . S
C545 N542 1.350 . S
C545 C544 1.434 . S
C546 C547 1.369 . S
C546 C548 1.419 . S
C546 H550 0.930 . S
C547 C546 1.369 . S
C547 C556 1.429 . S
C548 C546 1.419 . S
C548 C549 1.363 . S
C548 H551 0.929 . S
C549 C548 1.363 . S
C549 C555 1.428 . S
H550 C546 0.930 . S
H551 C548 0.929 . S
S552 N553 1.613 1_655 S
S552 N554 1.610 . S
N553 S552 1.613 1_455 S
N553 C556 1.350 . S
N554 S552 1.610 . S
N554 C555 1.351 1_655 S
C555 C549 1.428 . S
C555 N554 1.351 1_455 S
C555 C556 1.434 . S
C556 C547 1.429 . S
C556 N553 1.350 . S
C556 C555 1.434 . S
C557 C558 1.369 . S
C557 C559 1.419 . S
C557 H561 0.930 . S
C558 C557 1.369 . S
C558 C567 1.429 . S
C559 C557 1.419 . S
C559 C560 1.363 . S
C559 H562 0.929 . S
C560 C559 1.363 . S
C560 C566 1.428 . S
H561 C557 0.930 . S
H562 C559 0.929 . S
S563 N564 1.613 . S
S563 N565 1.610 . S
N564 S563 1.613 . S
N564 C567 1.350 . S
N565 S563 1.610 . S
N565 C566 1.351 . S
C566 C560 1.428 . S
C566 N565 1.351 . S
C566 C567 1.434 . S
C567 C558 1.429 . S
C567 N564 1.350 . S
C567 C566 1.434 . S
C219 C126 1.390 . S
C217 C5 1.387 . S
C230 C140 1.407 . S
C228 C18 1.406 . S
C241 C155 1.377 . S
C239 C31 1.400 . S
C250 C42 1.301 . S
C252 C113 1.347 . S
C261 C57 1.464 . S
C263 C112 1.509 . S
C272 C70 1.473 . S
C274 C127 1.473 . S
C285 C141 1.480 . S
C283 C81 1.529 . S
C296 C154 1.520 . S
C294 C96 1.468 . S
C305 C29 1.510 . S
C307 C182 1.509 . S
C318 C196 1.519 . S
C316 C44 1.467 . S
C327 C3 1.522 . S
C329 C211 1.466 . S
C340 C168 1.518 . S
C338 C16 1.520 . S
C349 C83 1.387 . S
C351 C169 1.362 . S
C360 C94 1.326 . S
C362 C183 1.371 . S
C373 C197 1.386 . S
C371 C55 1.338 . S
C382 C68 1.341 . S
C384 C210 1.420 . S
C395 C135 1.435 . S
C393 C1 1.442 . S
C406 C153 1.410 . S
C404 C14 1.443 . S
C415 C27 1.440 . S
C417 C111 1.407 . S
C426 C49 1.437 . S
C428 C121 1.428 1_545 S
C437 C53 1.652 . S
C439 C149 1.747 . S
C450 C107 1.756 . S
C448 C66 1.655 . S
C461 C125 1.731 1_545 S
C459 C88 1.744 . S
C472 C139 1.728 . S
C470 C92 1.655 . S
C483 C191 1.745 . S
C481 C36 1.745 . S
C494 C209 1.718 . S
C492 C40 1.644 . S
C503 C10 1.743 . S
C505 C163 1.748 . S
C516 C177 1.753 1_455 S
C514 C23 1.743 . S
C527 C205 1.429 . S
C525 C79 1.443 . S
C536 C101 1.442 . S
C538 C167 1.410 . S
C549 C181 1.409 . S
C547 C62 1.440 . S
C560 C195 1.420 . S
C558 C75 1.452 . S
