# Generated by pormake.
# Topology anh, (6,3)-cn, num edge types: 1
# Building blocks:
#     Node 0, Type 0, BuildingBlock: CUKXOW_clean_sbu_0, # of connection points: 6
#     Node 1, Type 0, BuildingBlock: CUKXOW_clean_sbu_0, # of connection points: 6
#     Node 2, Type 0, BuildingBlock: CUKXOW_clean_sbu_0, # of connection points: 6
#     Node 3, Type 1, BuildingBlock: WUSLED_clean_sbu_0, # of connection points: 3
#     Node 4, Type 1, BuildingBlock: WUSLED_clean_sbu_0, # of connection points: 3
#     Node 5, Type 1, BuildingBlock: WUSLED_clean_sbu_0, # of connection points: 3
#     Node 6, Type 1, BuildingBlock: WUSLED_clean_sbu_0, # of connection points: 3
#     Node 7, Type 1, BuildingBlock: WUSLED_clean_sbu_0, # of connection points: 3
#     Node 8, Type 1, BuildingBlock: WUSLED_clean_sbu_0, # of connection points: 3
#     Edge 9, Type (0, 1), BuildingBlock: AJUNOK_clean_linker_0, # of connection points: 2
#     Edge 10, Type (0, 1), BuildingBlock: AJUNOK_clean_linker_0, # of connection points: 2
#     Edge 11, Type (0, 1), BuildingBlock: AJUNOK_clean_linker_0, # of connection points: 2
#     Edge 12, Type (0, 1), BuildingBlock: AJUNOK_clean_linker_0, # of connection points: 2
#     Edge 13, Type (0, 1), BuildingBlock: AJUNOK_clean_linker_0, # of connection points: 2
#     Edge 14, Type (0, 1), BuildingBlock: AJUNOK_clean_linker_0, # of connection points: 2
#     Edge 15, Type (0, 1), BuildingBlock: AJUNOK_clean_linker_0, # of connection points: 2
#     Edge 16, Type (0, 1), BuildingBlock: AJUNOK_clean_linker_0, # of connection points: 2
#     Edge 17, Type (0, 1), BuildingBlock: AJUNOK_clean_linker_0, # of connection points: 2
#     Edge 18, Type (0, 1), BuildingBlock: AJUNOK_clean_linker_0, # of connection points: 2
#     Edge 19, Type (0, 1), BuildingBlock: AJUNOK_clean_linker_0, # of connection points: 2
#     Edge 20, Type (0, 1), BuildingBlock: AJUNOK_clean_linker_0, # of connection points: 2
#     Edge 21, Type (0, 1), BuildingBlock: AJUNOK_clean_linker_0, # of connection points: 2
#     Edge 22, Type (0, 1), BuildingBlock: AJUNOK_clean_linker_0, # of connection points: 2
#     Edge 23, Type (0, 1), BuildingBlock: AJUNOK_clean_linker_0, # of connection points: 2
#     Edge 24, Type (0, 1), BuildingBlock: AJUNOK_clean_linker_0, # of connection points: 2
#     Edge 25, Type (0, 1), BuildingBlock: AJUNOK_clean_linker_0, # of connection points: 2
#     Edge 26, Type (0, 1), BuildingBlock: AJUNOK_clean_linker_0, # of connection points: 2
# Relax obj value: 0.130
# Max RMSD: 0.190
# Mean RMSD: 0.136
data_MOF--net-anh--node1-CUKXOW_clean_sbu_0--node2-WUSLED_clean_sbu_0--edge1-AJUNOK_clean_linker_0
_symmetry_space_group_name_H-M    P1
_symmetry_Int_Tables_number       1
_symmetry_cell_setting            triclinic
loop_
_symmetry_equiv_pos_as_xyz
'x, y, z'
_cell_length_a     30.21273
_cell_length_b     29.089593
_cell_length_c     54.517147
_cell_angle_alpha  95.453596
_cell_angle_beta   90.230657
_cell_angle_gamma 114.27358
loop_
_atom_site_label
_atom_site_type_symbol
_atom_site_fract_x
_atom_site_fract_y
_atom_site_fract_z
_atom_type_partial_charge
Tb0 Tb 0.08631 0.56037 0.16931 0.0
C1 C 0.05973 0.5089 0.21889 0.0
Tb2 Tb 0.0256 0.44171 0.16691 0.0
O3 O 1.02323 0.57919 0.16196 0.0
O4 O 1.01275 0.50796 0.16774 0.0
O5 O 0.08773 0.54909 0.20808 0.0
C6 C 0.94358 0.3613 0.17296 0.0
O7 O 0.03205 0.46473 0.20643 0.0
C8 C 0.1217 0.46418 0.16642 0.0
C9 C 0.0538 0.49595 0.11802 0.0
O10 O 0.96611 0.39957 0.18917 0.0
O11 O 0.96828 0.36708 0.15304 0.0
O12 O 0.08728 0.41841 0.16616 0.0
O13 O 0.09976 0.49358 0.16805 0.0
O14 O 1.0227 0.45624 0.12847 0.0
O15 O 0.08509 0.53846 0.13046 0.0
C16 C 0.16051 0.65138 0.17449 0.0
O17 O 0.15856 0.61275 0.15973 0.0
O18 O 0.12029 0.63888 0.18593 0.0
C19 C 0.98921 0.53369 0.16263 0.0
Tb20 Tb 0.48758 1.01014 0.51224 0.0
C21 C 0.53873 0.04104 0.46242 0.0
Tb22 Tb 0.59876 0.08023 0.51416 0.0
O23 O 0.47003 0.0717 0.50189 0.0
O24 O 0.5335 0.0881 0.5225 0.0
O25 O 0.50062 1.00899 0.47297 0.0
C26 C 0.67606 0.16523 0.50927 0.0
O27 O 0.57853 0.07366 0.4751 0.0
C28 C 0.58259 0.98283 0.51096 0.0
C29 C 0.54762 0.04648 0.56371 0.0
O30 O 0.63572 0.14828 0.4961 0.0
O31 O 0.67305 0.13439 0.52568 0.0
O32 O 0.6259 0.01967 0.5119 0.0
O33 O 0.55345 1.00347 0.5104 0.0
O34 O 0.58478 0.08106 0.55331 0.0
O35 O 0.5078 0.01262 0.55112 0.0
C36 C 0.40425 0.92877 0.50823 0.0
O37 O 0.41288 0.9695 0.5232 0.0
O38 O 0.44249 0.93404 0.49609 0.0
C39 C 0.51066 0.10778 0.511 0.0
Tb40 Tb 0.52386 0.52549 0.83659 0.0
C41 C 0.57689 0.53507 0.88803 0.0
Tb42 Tb 0.6375 0.56209 0.83911 0.0
O43 O 0.5031 0.44315 0.83205 0.0
O44 O 0.57467 0.49474 0.83655 0.0
O45 O 0.53603 0.52974 0.87636 0.0
C46 C 0.72339 0.56376 0.83999 0.0
O47 O 0.61844 0.54361 0.87697 0.0
C48 C 0.61233 0.63836 0.83735 0.0
C49 C 0.58186 0.5438 0.78746 0.0
O50 O 0.7089 0.58919 0.85641 0.0
O51 O 0.68932 0.5367 0.82347 0.0
O52 O 0.65707 0.64366 0.83667 0.0
O53 O 0.58707 0.5925 0.83958 0.0
O54 O 0.62239 0.54865 0.79925 0.0
O55 O 0.5419 0.54025 0.79872 0.0
C56 C 0.44283 0.53494 0.83386 0.0
O57 O 0.44955 0.49718 0.82265 0.0
O58 O 0.48055 0.56558 0.84752 0.0
C59 C 0.54787 0.4481 0.8331 0.0
C60 C 0.65403 0.14308 0.19789 0.0
C61 C 0.69044 0.16063 0.21685 0.0
C62 C 0.74804 0.21494 0.18941 0.0
C63 C 0.73712 0.19639 0.21264 0.0
C64 C 0.71064 0.1988 0.17097 0.0
C65 C 0.66427 0.16297 0.17514 0.0
U66 U 0.54542 0.04643 0.23116 0.0
O67 O 0.50856 0.96536 0.21736 0.0
O68 O 0.46842 0.01432 0.21799 0.0
C69 C 0.46845 0.9697 0.21124 0.0
C70 C 0.60664 0.10078 0.20012 0.0
C71 C 0.42251 0.92445 0.20726 0.0
C72 C 0.36502 0.85871 0.17796 0.0
C73 C 0.4081 0.90208 0.18298 0.0
C74 C 0.35009 0.8592 0.22162 0.0
C75 C 0.33544 0.83675 0.19718 0.0
C76 C 0.39337 0.90298 0.22663 0.0
C77 C 0.55647 0.0601 0.30474 0.0
C78 C 0.50304 0.02941 0.33851 0.0
C79 C 0.5898 0.07544 0.34685 0.0
C80 C 0.59622 0.08044 0.3218 0.0
C81 C 0.54322 0.05014 0.35569 0.0
C82 C 0.50962 0.03428 0.31316 0.0
C83 C 0.56657 0.06952 0.27879 0.0
O84 O 0.60767 0.05988 0.20789 0.0
O85 O 0.57139 0.11169 0.20909 0.0
O86 O 0.53981 0.08663 0.26661 0.0
O87 O 0.58067 0.03879 0.26507 0.0
H88 H 0.68319 0.14569 0.23457 0.0
H89 H 0.76504 0.20838 0.22732 0.0
H90 H 0.71718 0.21361 0.15321 0.0
H91 H 0.63654 0.14983 0.1603 0.0
H92 H 0.35466 0.84253 0.15898 0.0
H93 H 0.4303 0.91826 0.1678 0.0
H94 H 0.32851 0.84251 0.23686 0.0
H95 H 0.4042 0.91974 0.24549 0.0
H96 H 0.46652 1.01048 0.34467 0.0
H97 H 0.62164 0.09145 0.35935 0.0
H98 H 0.63262 0.10082 0.31572 0.0
H99 H 0.47834 0.01858 0.30029 0.0
C100 C 0.55109 0.67753 0.52959 0.0
C101 C 0.53641 0.70334 0.54872 0.0
C102 C 0.55594 0.77569 0.52463 0.0
C103 C 0.539 0.75218 0.5463 0.0
C104 C 0.57054 0.74932 0.50572 0.0
C105 C 0.56832 0.70113 0.50823 0.0
U106 U 0.55039 0.55834 0.55877 0.0
O107 O 0.50615 0.47846 0.54457 0.0
O108 O 0.58598 0.51045 0.5427 0.0
C109 C 0.54434 0.47134 0.53698 0.0
C110 C 0.54768 0.62549 0.5303 0.0
C111 C 0.54284 0.41979 0.53483 0.0
C112 C 0.53534 0.34583 0.50737 0.0
C113 C 0.53742 0.39478 0.51103 0.0
C114 C 0.54414 0.34549 0.55149 0.0
C115 C 0.53729 0.31977 0.52751 0.0
C116 C 0.54693 0.39526 0.55513 0.0
C117 C 0.56654 0.57178 0.63193 0.0
C118 C 0.5578 0.51448 0.66312 0.0
C119 C 0.58682 0.60479 0.67504 0.0
C120 C 0.58317 0.61265 0.65044 0.0
C121 C 0.57395 0.55569 0.68175 0.0
C122 C 0.55399 0.52245 0.6383 0.0
C123 C 0.56111 0.58322 0.60667 0.0
O124 O 0.58782 0.62116 0.5363 0.0
O125 O 0.50877 0.59204 0.53934 0.0
O126 O 0.51838 0.55942 0.59492 0.0
O127 O 0.59801 0.59206 0.59234 0.0
H128 H 0.5231 0.6859 0.56545 0.0
H129 H 0.52851 0.77173 0.56151 0.0
H130 H 0.58344 0.76582 0.48874 0.0
H131 H 0.57971 0.6819 0.49322 0.0
H132 H 0.53209 0.32836 0.48862 0.0
H133 H 0.53477 0.41327 0.49507 0.0
H134 H 0.54623 0.32675 0.56741 0.0
H135 H 0.55171 0.41424 0.57366 0.0
H136 H 0.54825 0.47626 0.66773 0.0
H137 H 0.59881 0.63719 0.68892 0.0
H138 H 0.59268 0.65095 0.64588 0.0
H139 H 0.54104 0.49037 0.62423 0.0
C140 C 0.99164 0.54012 0.85288 0.0
C141 C 0.95567 0.52225 0.87009 0.0
C142 C 0.90491 0.55009 0.84714 0.0
C143 C 0.91229 0.52694 0.86715 0.0
C144 C 0.941 0.56843 0.83005 0.0
C145 C 0.9844 0.56328 0.83288 0.0
U146 U 0.07019 0.52494 0.89934 0.0
O147 O 0.1174 0.48468 0.89884 0.0
O148 O 0.14739 0.56731 0.90986 0.0
C149 C 0.15636 0.5272 0.90407 0.0
C150 C 0.03817 0.53881 0.85766 0.0
C151 C 0.19516 0.53533 0.88736 0.0
C152 C 0.22422 0.53199 0.84624 0.0
C153 C 0.18596 0.52568 0.86164 0.0
C154 C 0.28028 0.56003 0.88227 0.0
C155 C 0.2713 0.54905 0.85665 0.0
C156 C 0.24228 0.55331 0.89754 0.0
C157 C 1.02469 0.50544 0.96316 0.0
C158 C 0.06957 0.48708 0.99507 0.0
C159 C 1.00467 0.51305 1.0057 0.0
C160 C 0.99649 0.51651 0.98099 0.0
C161 C 0.04111 0.49831 0.0129 0.0
C162 C 0.06159 0.49098 0.97021 0.0
C163 C 1.01644 0.51165 0.93753 0.0
O164 O 0.06672 0.57665 0.87339 0.0
O165 O 0.03527 0.49425 0.86251 0.0
O166 O 1.01355 0.47406 0.92122 0.0
O167 O 0.04341 0.55675 0.93096 0.0
H168 H 0.96148 0.50535 0.88599 0.0
H169 H 0.88465 0.51273 0.8805 0.0
H170 H 0.93589 0.58742 0.81482 0.0
H171 H 1.01253 0.57823 0.81989 0.0
H172 H 0.21721 0.5228 0.82647 0.0
H173 H 0.14938 0.51236 0.85363 0.0
H174 H 0.31653 0.572 0.89051 0.0
H175 H 0.2495 0.56113 0.91734 0.0
H176 H 0.09832 0.47638 1.00044 0.0
H177 H 0.98256 0.52204 0.0193 0.0
H178 H 0.96841 0.52834 0.97581 0.0
H179 H 0.08433 0.48322 0.95658 0.0
C180 C 0.91747 0.44223 0.48312 0.0
C181 C 0.90028 0.40156 0.46441 0.0
C182 C 0.83837 0.35159 0.4912 0.0
C183 C 0.86085 0.35645 0.46844 0.0
C184 C 0.85448 0.39332 0.50934 0.0
C185 C 0.89384 0.43811 0.50536 0.0
U186 U 1.01817 0.53931 0.44756 0.0
O187 O 0.09613 0.57579 0.45898 0.0
O188 O 0.0533 0.62231 0.45679 0.0
C189 C 0.09503 0.62066 0.46217 0.0
C190 C 0.96174 0.4881 0.48089 0.0
C191 C 0.13824 0.66641 0.47038 0.0
C192 C 0.19812 0.71967 0.50244 0.0
C193 C 0.15622 0.67607 0.49497 0.0
C194 C 0.20389 0.74384 0.46079 0.0
C195 C 0.2224 0.75374 0.48534 0.0
C196 C 0.16197 0.70056 0.45341 0.0
C197 C 1.00916 0.51596 0.37496 0.0
C198 C 0.0674 0.54998 0.34349 0.0
C199 C 0.98441 0.49163 0.33158 0.0
C200 C 0.97341 0.48895 0.35633 0.0
C201 C 0.03163 0.52144 0.32479 0.0
C202 C 0.05624 0.54725 0.36849 0.0
C203 C 0.99574 0.50719 0.40059 0.0
O204 O 0.99964 0.48082 0.47303 0.0
O205 O 0.95622 0.52539 0.47142 0.0
O206 O 0.98014 0.53837 0.4128 0.0
O207 O 1.02307 0.49312 0.41419 0.0
H208 H 0.91801 0.40427 0.44704 0.0
H209 H 0.84879 0.32496 0.45405 0.0
H210 H 0.83683 0.39125 0.52671 0.0
H211 H 0.90651 0.46932 0.5199 0.0
H212 H 0.21218 0.72609 0.52136 0.0
H213 H 0.13805 0.64985 0.50828 0.0
H214 H 0.22201 0.76955 0.44727 0.0
H215 H 0.1484 0.69336 0.43436 0.0
H216 H 0.10424 0.57296 0.33884 0.0
H217 H 0.95593 0.46969 0.31767 0.0
H218 H 0.93691 0.46463 0.36096 0.0
H219 H 0.0844 0.56843 0.38266 0.0
C220 C 0.57725 0.91312 0.82157 0.0
C221 C 0.56706 0.8779 0.80058 0.0
C222 C 0.5798 0.81802 0.8253 0.0
C223 C 0.56826 0.83058 0.80246 0.0
C224 C 0.59127 0.85439 0.84596 0.0
C225 C 0.58947 0.90106 0.84413 0.0
U226 U 0.57099 0.02868 0.79253 0.0
O227 O 0.61268 0.10815 0.80762 0.0
O228 O 0.53273 0.07392 0.80843 0.0
C229 C 0.57354 0.11375 0.8148 0.0
C230 C 0.57559 0.96281 0.82112 0.0
C231 C 0.57361 0.16427 0.81537 0.0
C232 C 0.57257 0.23737 0.84045 0.0
C233 C 0.57156 0.18882 0.83845 0.0
C234 C 0.57773 0.23767 0.79611 0.0
C235 C 0.57614 0.26265 0.81936 0.0
C236 C 0.57661 0.18875 0.79412 0.0
C237 C 0.56403 0.01818 0.71906 0.0
C238 C 0.54433 0.06101 0.68727 0.0
C239 C 0.57506 0.99732 0.67603 0.0
C240 C 0.57783 0.99018 0.70077 0.0
C241 C 0.55878 0.03308 0.66899 0.0
C242 C 0.54706 0.05371 0.71228 0.0
C243 C 0.56604 1.00634 0.74456 0.0
O244 O 0.61416 0.99903 0.81342 0.0
O245 O 0.53446 0.9632 0.81348 0.0
O246 O 0.52735 0.9967 0.75767 0.0
O247 O 0.60744 0.02978 0.75752 0.0
H248 H 0.55802 0.88684 0.78292 0.0
H249 H 0.55982 0.80371 0.7861 0.0
H250 H 0.60254 0.84732 0.86355 0.0
H251 H 0.59798 0.92809 0.86046 0.0
H252 H 0.56952 0.25464 0.85849 0.0
H253 H 0.56899 0.17024 0.85504 0.0
H254 H 0.57999 0.25608 0.77951 0.0
H255 H 0.57811 0.17019 0.77615 0.0
H256 H 0.53146 0.08868 0.68221 0.0
H257 H 0.58532 0.97446 0.66232 0.0
H258 H 0.59035 0.96209 0.70563 0.0
H259 H 0.53588 0.07543 0.72616 0.0
C260 C 0.6805 0.49119 0.14388 0.0
C261 C 0.7104 0.50126 0.12349 0.0
C262 C 0.7793 0.49752 0.14734 0.0
C263 C 0.75855 0.50401 0.12514 0.0
C264 C 0.74857 0.4864 0.16746 0.0
C265 C 0.70053 0.48339 0.16575 0.0
U266 U 0.55248 0.49008 0.1191 0.0
O267 O 0.51023 0.52763 0.13936 0.0
O268 O 0.47859 0.44515 0.13211 0.0
C269 C 0.47257 0.48505 0.14209 0.0
C270 C 0.62934 0.48957 0.14372 0.0
C271 C 0.42174 0.48425 0.14351 0.0
C272 C 0.35503 0.48358 0.16987 0.0
C273 C 0.40178 0.48415 0.16686 0.0
C274 C 0.34518 0.48276 0.12605 0.0
C275 C 0.32522 0.48299 0.14965 0.0
C276 C 0.39248 0.48351 0.12304 0.0
C277 C 0.55947 0.50069 0.04455 0.0
C278 C 0.53439 0.52542 0.00721 0.0
C279 C 0.59443 0.49026 1.00525 0.0
C280 C 0.59105 0.48538 0.03065 0.0
C281 C 0.5661 0.51033 0.99323 0.0
C282 C 0.53114 0.52067 0.0326 0.0
C283 C 0.55681 0.49693 0.07149 0.0
O284 O 0.62336 0.53085 0.1403 0.0
O285 O 0.59261 0.44845 0.13393 0.0
O286 O 0.54114 0.45313 0.08072 0.0
O287 O 0.5699 0.53706 0.08777 0.0
H288 H 0.69666 0.50715 0.10624 0.0
H289 H 0.77937 0.51092 0.10875 0.0
H290 H 0.76202 0.48119 0.18494 0.0
H291 H 0.67897 0.4755 0.18191 0.0
H292 H 0.34251 0.48418 0.18842 0.0
H293 H 0.42271 0.48462 0.18313 0.0
H294 H 0.32397 0.4809 0.10966 0.0
H295 H 0.40596 0.48321 0.10468 0.0
H296 H 0.51183 0.54061 0.99844 0.0
H297 H 0.61972 0.47902 0.99505 0.0
H298 H 0.61365 0.47035 0.03951 0.0
H299 H 0.50632 0.53246 0.04291 0.0
C300 C 0.19734 0.45033 0.17662 0.0
C301 C 0.1754 0.47534 0.1632 0.0
C302 C 0.24488 0.45358 0.17228 0.0
C303 C 0.27376 0.48113 0.15371 0.0
H304 H 0.17715 0.42723 0.19065 0.0
H305 H 0.2585 0.43275 0.18333 0.0
S306 S 0.23307 0.55249 0.1122 0.0
N307 N 0.18653 0.52814 0.1299 0.0
N308 N 0.27481 0.53418 0.12154 0.0
C309 C 0.25202 0.50628 0.13996 0.0
C310 C 0.20358 0.50352 0.14473 0.0
C311 C 0.71999 0.23374 0.48313 0.0
C312 C 0.71851 0.21179 0.50519 0.0
C313 C 0.7592 0.27852 0.4786 0.0
C314 C 0.79812 0.30321 0.49608 0.0
H315 H 0.6906 0.21622 0.4692 0.0
H316 H 0.75858 0.29441 0.46148 0.0
S317 S 0.81185 0.2604 0.55658 0.0
N318 N 0.75924 0.2173 0.54453 0.0
N319 N 0.83336 0.3016 0.53608 0.0
C320 C 0.79722 0.28132 0.51816 0.0
C321 C 0.75734 0.2355 0.52268 0.0
C322 C 0.61279 0.70532 0.81228 0.0
C323 C 0.59625 0.67827 0.83283 0.0
C324 C 0.6055 0.74919 0.80949 0.0
C325 C 0.58225 0.76828 0.82746 0.0
H326 H 0.63278 0.69323 0.79857 0.0
H327 H 0.62023 0.76954 0.7937 0.0
S328 S 0.53428 0.71176 0.88538 0.0
N329 N 0.55685 0.67358 0.87166 0.0
N330 N 0.54238 0.75568 0.86664 0.0
C331 C 0.56494 0.74082 0.84801 0.0
C332 C 0.57209 0.69588 0.85064 0.0
C333 C 0.89662 0.4804 0.16735 0.0
C334 C 0.93506 0.51926 0.15681 0.0
C335 C 0.84697 0.47319 0.16411 0.0
C336 C 0.83265 0.50392 0.1499 0.0
H337 H 0.90496 0.4564 0.17888 0.0
H338 H 0.8195 0.44317 0.17297 0.0
S339 S 0.91921 0.6107 0.11817 0.0
N340 N 0.95433 0.58813 0.13122 0.0
N341 N 0.86337 0.5753 0.12548 0.0
C342 C 0.871 0.54218 0.13905 0.0
C343 C 0.92114 0.54959 0.14243 0.0
C344 C 0.35259 0.84863 0.48346 0.0
C345 C 0.35782 0.88417 0.50384 0.0
C346 C 0.30871 0.80652 0.47782 0.0
C347 C 0.26851 0.79817 0.49244 0.0
H348 H 0.38244 0.85363 0.4715 0.0
H349 H 0.30628 0.78017 0.46188 0.0
S350 S 0.26392 0.87953 0.54817 0.0
N351 N 0.31983 0.90824 0.53897 0.0
N352 N 0.2367 0.82852 0.52835 0.0
C353 C 0.27342 0.83299 0.51313 0.0
C354 C 0.31825 0.87625 0.51881 0.0
C355 C 0.53559 0.36686 0.80932 0.0
C356 C 0.56213 0.40567 0.82788 0.0
C357 C 0.54206 0.32177 0.80603 0.0
C358 C 0.57466 0.31335 0.82154 0.0
H359 H 0.50859 0.37085 0.7976 0.0
H360 H 0.51966 0.29235 0.79196 0.0
S361 S 0.65359 0.40414 0.87273 0.0
N362 N 0.62324 0.43408 0.86147 0.0
N363 N 0.6351 0.34876 0.8558 0.0
C364 C 0.60239 0.35261 0.83987 0.0
C365 C 0.59632 0.39902 0.84287 0.0
C366 C 0.6084 0.91166 0.50775 0.0
C367 C 0.57238 0.92901 0.5139 0.0
C368 C 0.60268 0.86253 0.51147 0.0
C369 C 0.56059 0.82817 0.52159 0.0
H370 H 0.64171 0.93647 0.50004 0.0
H371 H 0.63203 0.85165 0.50662 0.0
S372 S 0.45534 0.85491 0.54145 0.0
N373 N 0.49349 0.90831 0.53148 0.0
N374 N 0.48172 0.81518 0.53758 0.0
C375 C 0.52404 0.84492 0.52787 0.0
C376 C 0.53007 0.89537 0.52416 0.0
C377 C 0.79935 0.5812 0.86273 0.0
C378 C 0.77067 0.56329 0.84077 0.0
C379 C 0.84342 0.57726 0.86457 0.0
C380 C 0.85961 0.55561 0.84442 0.0
H381 H 0.78722 0.59714 0.87873 0.0
H382 H 0.86478 0.59087 0.88185 0.0
S383 S 0.79773 0.50494 0.78273 0.0
N384 N 0.76136 0.52526 0.79828 0.0
N385 N 0.84433 0.51655 0.80197 0.0
C386 C 0.83153 0.53846 0.82223 0.0
C387 C 0.7868 0.54266 0.82033 0.0
C388 C 0.24803 0.70527 0.1694 0.0
C389 C 0.20374 0.69975 0.17961 0.0
C390 C 0.29038 0.7496 0.17525 0.0
C391 C 0.28996 0.79009 0.19148 0.0
H392 H 0.25027 0.67482 0.15711 0.0
H393 H 0.32389 0.75185 0.16725 0.0
S394 S 0.18227 0.79553 0.22182 0.0
N395 N 0.16136 0.73891 0.206 0.0
N396 N 0.24076 0.82266 0.2166 0.0
C397 C 0.24561 0.78531 0.20144 0.0
C398 C 0.20253 0.74008 0.19556 0.0
C399 C 0.55584 0.19765 0.53104 0.0
C400 C 0.51957 0.16233 0.51416 0.0
C401 C 0.56128 0.24835 0.53549 0.0
C402 C 0.5308 0.26564 0.52318 0.0
H403 H 0.5797 0.18592 0.54113 0.0
H404 H 0.58977 0.27423 0.54852 0.0
S405 S 0.43033 0.18782 0.47723 0.0
N406 N 0.45373 0.1486 0.48475 0.0
N407 N 0.46227 0.24229 0.49379 0.0
C408 C 0.49459 0.23045 0.50625 0.0
C409 C 0.4895 0.17934 0.50155 0.0
C410 C 0.35425 0.49867 0.82776 0.0
C411 C 0.39834 0.54137 0.83249 0.0
C412 C 0.31073 0.50273 0.83251 0.0
C413 C 0.31113 0.54955 0.84186 0.0
H414 H 0.3536 0.46145 0.82265 0.0
H415 H 0.27745 0.46839 0.83145 0.0
S416 S 0.41709 0.6733 0.8527 0.0
N417 N 0.44008 0.63248 0.84324 0.0
N418 N 0.35771 0.63999 0.85232 0.0
C419 C 0.35465 0.59324 0.84387 0.0
C420 C 0.39874 0.58911 0.83921 0.0
C421 C 0.87155 0.32654 0.19837 0.0
C422 C 0.89462 0.32206 0.17645 0.0
C423 C 0.82436 0.29191 0.20231 0.0
C424 C 0.79822 0.25114 0.18454 0.0
H425 H 0.88983 0.35753 0.2126 0.0
H426 H 0.808 0.29764 0.21931 0.0
S427 S 0.84271 0.22199 0.12409 0.0
N428 N 0.88807 0.27398 0.13669 0.0
N429 N 0.79963 0.20764 0.14425 0.0
C430 C 0.82101 0.24604 0.16251 0.0
C431 C 0.86915 0.28173 0.15845 0.0
C432 C 0.06225 0.54038 0.08076 0.0
C433 C 0.05254 0.49494 0.09109 0.0
C434 C 0.06058 0.54134 0.05529 0.0
C435 C 0.04971 0.49704 0.03928 0.0
H436 H 0.06988 0.57533 0.09243 0.0
H437 H 0.06672 0.57678 0.04803 0.0
S438 S 0.02574 0.36937 0.05693 0.0
N439 N 0.03455 0.40515 0.08348 0.0
N440 N 0.03182 0.40716 0.03518 0.0
C441 C 0.04189 0.45173 0.04923 0.0
C442 C 0.04299 0.45057 0.0753 0.0
C443 C 0.56533 0.08714 0.42504 0.0
C444 C 0.53681 0.04215 0.43522 0.0
C445 C 0.56554 0.08962 0.3995 0.0
C446 C 0.53786 0.04699 0.38285 0.0
H447 H 0.58771 0.12103 0.4369 0.0
H448 H 0.58805 0.12537 0.39274 0.0
S449 S 0.45708 0.91973 0.40006 0.0
N450 N 0.47933 0.95403 0.42673 0.0
N451 N 0.481 0.95814 0.37861 0.0
C452 C 0.50853 1.00186 0.3928 0.0
C453 C 0.50779 0.99955 0.41896 0.0
C454 C 0.62064 0.57731 0.74871 0.0
C455 C 0.58085 0.5433 0.76033 0.0
C456 C 0.6185 0.58014 0.7232 0.0
C457 C 0.57679 0.54852 0.70831 0.0
H458 H 0.653 0.60309 0.75952 0.0
H459 H 0.64957 0.60778 0.71509 0.0
S460 S 0.46376 0.45131 0.72988 0.0
N461 N 0.49927 0.47614 0.75511 0.0
N462 N 0.49522 0.48133 0.7072 0.0
C463 C 0.5373 0.51337 0.71969 0.0
C464 C 0.53931 0.51089 0.74568 0.0
C465 C 0.51042 0.03631 0.60494 0.0
C466 C 0.55125 0.04532 0.59063 0.0
C467 C 0.51347 0.03444 0.63054 0.0
C468 C 0.55717 0.04042 0.64249 0.0
H469 H 0.47599 0.03081 0.59632 0.0
H470 H 0.48113 0.02678 0.64092 0.0
S471 S 0.67387 0.06331 0.61306 0.0
N472 N 0.63631 0.05969 0.59014 0.0
N473 N 0.64195 0.05563 0.63805 0.0
C474 C 0.59813 0.04947 0.62831 0.0
C475 C 0.5952 0.05206 0.60242 0.0
C476 C 0.58231 0.56961 0.93239 0.0
C477 C 0.57534 0.52858 0.91466 0.0
C478 C 0.57944 0.56345 0.95774 0.0
C479 C 0.56981 0.51612 0.96626 0.0
H480 H 0.5898 0.60661 0.92661 0.0
H481 H 0.58503 0.59605 0.9708 0.0
S482 S 0.54704 0.39658 0.92688 0.0
N483 N 0.55727 0.43907 0.90709 0.0
N484 N 0.55214 0.42734 0.95458 0.0
C485 C 0.56291 0.47491 0.94857 0.0
C486 C 0.56556 0.48119 0.92281 0.0
C487 C 0.0332 0.46987 0.25825 0.0
C488 C 0.05705 0.5137 0.24623 0.0
C489 C 0.02646 0.47297 0.28365 0.0
C490 C 0.04298 0.52002 0.29822 0.0
H491 H 1.01895 0.43261 0.24798 0.0
H492 H 1.00766 0.43803 0.29192 0.0
S493 S 0.10674 0.6465 0.27598 0.0
N494 N 0.0972 0.60606 0.25107 0.0
N495 N 0.08389 0.61158 0.2988 0.0
C496 C 0.06747 0.56422 0.28663 0.0
C497 C 0.07456 0.56114 0.26067 0.0
loop_
_geom_bond_atom_site_label_1
_geom_bond_atom_site_label_2
_geom_bond_distance
_geom_bond_site_symmetry_2
_ccdc_geom_bond_type
Tb0 O3 2.453 1_455 S
Tb0 O4 2.596 1_455 S
Tb0 O5 2.374 . S
Tb0 O13 2.343 . S
Tb0 O15 2.353 . S
Tb0 O17 2.427 . S
Tb0 O18 2.513 . S
C1 O5 1.251 . S
C1 O7 1.263 . S
Tb2 O4 2.343 1_455 S
Tb2 O7 2.353 . S
Tb2 O10 2.427 1_455 S
Tb2 O11 2.513 1_455 S
Tb2 O12 2.453 . S
Tb2 O13 2.596 . S
Tb2 O14 2.374 . S
O3 Tb0 2.453 1_655 S
O3 C19 1.245 . S
O4 Tb0 2.596 1_655 S
O4 Tb2 2.343 1_655 S
O4 C19 1.259 . S
O5 Tb0 2.374 . S
O5 C1 1.251 . S
C6 O10 1.275 . S
C6 O11 1.246 . S
O7 C1 1.263 . S
O7 Tb2 2.353 . S
C8 O12 1.245 . S
C8 O13 1.259 . S
C9 O14 1.250 . S
C9 O15 1.263 . S
O10 Tb2 2.427 1_655 S
O10 C6 1.275 . S
O11 Tb2 2.513 1_655 S
O11 C6 1.246 . S
O12 Tb2 2.453 . S
O12 C8 1.245 . S
O13 Tb0 2.343 . S
O13 Tb2 2.596 . S
O13 C8 1.259 . S
O14 Tb2 2.374 . S
O14 C9 1.250 . S
O15 Tb0 2.353 . S
O15 C9 1.263 . S
C16 O17 1.275 . S
C16 O18 1.246 . S
O17 Tb0 2.427 . S
O17 C16 1.275 . S
O18 Tb0 2.513 . S
O18 C16 1.246 . S
C19 O3 1.245 . S
C19 O4 1.259 . S
Tb20 O23 2.453 . S
Tb20 O24 2.596 . S
Tb20 O25 2.374 . S
Tb20 O33 2.343 1_545 S
Tb20 O35 2.353 . S
Tb20 O37 2.427 1_545 S
Tb20 O38 2.513 1_545 S
C21 O25 1.251 . S
C21 O27 1.263 . S
Tb22 O24 2.343 . S
Tb22 O27 2.353 . S
Tb22 O30 2.427 . S
Tb22 O31 2.513 . S
Tb22 O32 2.453 1_545 S
Tb22 O33 2.596 1_545 S
Tb22 O34 2.374 . S
O23 Tb20 2.453 . S
O23 C39 1.245 . S
O24 Tb20 2.596 . S
O24 Tb22 2.343 . S
O24 C39 1.259 . S
O25 Tb20 2.374 . S
O25 C21 1.251 . S
C26 O30 1.275 . S
C26 O31 1.246 . S
O27 C21 1.263 . S
O27 Tb22 2.353 . S
C28 O32 1.245 . S
C28 O33 1.259 . S
C29 O34 1.250 . S
C29 O35 1.263 . S
O30 Tb22 2.427 . S
O30 C26 1.275 . S
O31 Tb22 2.513 . S
O31 C26 1.246 . S
O32 Tb22 2.453 1_565 S
O32 C28 1.245 . S
O33 Tb20 2.343 1_565 S
O33 Tb22 2.596 1_565 S
O33 C28 1.259 . S
O34 Tb22 2.374 . S
O34 C29 1.250 . S
O35 Tb20 2.353 . S
O35 C29 1.263 . S
C36 O37 1.275 . S
C36 O38 1.246 . S
O37 Tb20 2.427 1_565 S
O37 C36 1.275 . S
O38 Tb20 2.513 1_565 S
O38 C36 1.246 . S
C39 O23 1.245 . S
C39 O24 1.259 . S
Tb40 O43 2.453 . S
Tb40 O44 2.596 . S
Tb40 O45 2.374 . S
Tb40 O53 2.343 . S
Tb40 O55 2.353 . S
Tb40 O57 2.427 . S
Tb40 O58 2.513 . S
C41 O45 1.251 . S
C41 O47 1.263 . S
Tb42 O44 2.343 . S
Tb42 O47 2.353 . S
Tb42 O50 2.427 . S
Tb42 O51 2.513 . S
Tb42 O52 2.453 . S
Tb42 O53 2.596 . S
Tb42 O54 2.374 . S
O43 Tb40 2.453 . S
O43 C59 1.245 . S
O44 Tb40 2.596 . S
O44 Tb42 2.343 . S
O44 C59 1.259 . S
O45 Tb40 2.374 . S
O45 C41 1.251 . S
C46 O50 1.275 . S
C46 O51 1.246 . S
O47 C41 1.263 . S
O47 Tb42 2.353 . S
C48 O52 1.245 . S
C48 O53 1.259 . S
C49 O54 1.250 . S
C49 O55 1.263 . S
O50 Tb42 2.427 . S
O50 C46 1.275 . S
O51 Tb42 2.513 . S
O51 C46 1.246 . S
O52 Tb42 2.453 . S
O52 C48 1.245 . S
O53 Tb40 2.343 . S
O53 Tb42 2.596 . S
O53 C48 1.259 . S
O54 Tb42 2.374 . S
O54 C49 1.250 . S
O55 Tb40 2.353 . S
O55 C49 1.263 . S
C56 O57 1.275 . S
C56 O58 1.246 . S
O57 Tb40 2.427 . S
O57 C56 1.275 . S
O58 Tb40 2.513 . S
O58 C56 1.246 . S
C59 O43 1.245 . S
C59 O44 1.259 . S
C60 C61 1.264 . S
C60 C65 1.479 . S
C60 C70 1.465 . S
C61 C60 1.264 . S
C61 C63 1.339 . S
C61 H88 0.931 . S
C62 C63 1.395 . S
C62 C64 1.320 . S
C63 C61 1.339 . S
C63 C62 1.395 . S
C63 H89 0.929 . S
C64 C62 1.320 . S
C64 C65 1.405 . S
C64 H90 0.930 . S
C65 C60 1.479 . S
C65 C64 1.405 . S
C65 H91 0.931 . S
U66 O67 2.454 1_545 S
U66 O68 2.458 1_545 S
U66 C69 2.984 1_545 S
U66 C70 2.847 . S
U66 C83 2.882 . S
U66 O84 2.441 . S
U66 O85 2.420 . S
U66 O86 2.455 . S
U66 O87 2.449 . S
O67 U66 2.454 1_565 S
O67 C69 1.353 . S
O68 U66 2.458 1_565 S
O68 C69 1.286 . S
C69 U66 2.984 1_565 S
C69 O67 1.353 . S
C69 O68 1.286 . S
C69 C71 1.363 . S
C70 C60 1.465 . S
C70 U66 2.847 . S
C70 O84 1.249 . S
C70 O85 1.202 . S
C71 C69 1.363 . S
C71 C73 1.408 . S
C71 C76 1.342 . S
C72 C73 1.310 . S
C72 C75 1.461 . S
C72 H92 0.932 . S
C73 C71 1.408 . S
C73 C72 1.310 . S
C73 H93 0.930 . S
C74 C75 1.474 . S
C74 C76 1.285 . S
C74 H94 0.929 . S
C75 C72 1.461 . S
C75 C74 1.474 . S
C76 C71 1.342 . S
C76 C74 1.285 . S
C76 H95 0.930 . S
C77 C80 1.424 . S
C77 C82 1.245 . S
C77 C83 1.428 . S
C78 C81 1.260 . S
C78 C82 1.477 . S
C78 H96 0.932 . S
C79 C80 1.384 . S
C79 C81 1.479 . S
C79 H97 0.929 . S
C80 C77 1.424 . S
C80 C79 1.384 . S
C80 H98 0.928 . S
C81 C78 1.260 . S
C81 C79 1.479 . S
C82 C77 1.245 . S
C82 C78 1.477 . S
C82 H99 0.932 . S
C83 U66 2.882 . S
C83 C77 1.428 . S
C83 O86 1.301 . S
C83 O87 1.282 . S
O84 U66 2.441 . S
O84 C70 1.249 . S
O85 U66 2.420 . S
O85 C70 1.202 . S
O86 U66 2.455 . S
O86 C83 1.301 . S
O87 U66 2.449 . S
O87 C83 1.282 . S
H88 C61 0.931 . S
H89 C63 0.929 . S
H90 C64 0.930 . S
H91 C65 0.931 . S
H92 C72 0.932 . S
H93 C73 0.930 . S
H94 C74 0.929 . S
H95 C76 0.930 . S
H96 C78 0.932 . S
H97 C79 0.929 . S
H98 C80 0.928 . S
H99 C82 0.932 . S
C100 C101 1.264 . S
C100 C105 1.479 . S
C100 C110 1.465 . S
C101 C100 1.264 . S
C101 C103 1.339 . S
C101 H128 0.931 . S
C102 C103 1.395 . S
C102 C104 1.320 . S
C103 C101 1.339 . S
C103 C102 1.395 . S
C103 H129 0.929 . S
C104 C102 1.320 . S
C104 C105 1.405 . S
C104 H130 0.930 . S
C105 C100 1.479 . S
C105 C104 1.405 . S
C105 H131 0.931 . S
U106 O107 2.454 . S
U106 O108 2.458 . S
U106 C109 2.984 . S
U106 C110 2.847 . S
U106 C123 2.882 . S
U106 O124 2.441 . S
U106 O125 2.420 . S
U106 O126 2.455 . S
U106 O127 2.449 . S
O107 U106 2.454 . S
O107 C109 1.353 . S
O108 U106 2.458 . S
O108 C109 1.286 . S
C109 U106 2.984 . S
C109 O107 1.353 . S
C109 O108 1.286 . S
C109 C111 1.363 . S
C110 C100 1.465 . S
C110 U106 2.847 . S
C110 O124 1.249 . S
C110 O125 1.202 . S
C111 C109 1.363 . S
C111 C113 1.408 . S
C111 C116 1.342 . S
C112 C113 1.310 . S
C112 C115 1.461 . S
C112 H132 0.932 . S
C113 C111 1.408 . S
C113 C112 1.310 . S
C113 H133 0.930 . S
C114 C115 1.474 . S
C114 C116 1.285 . S
C114 H134 0.929 . S
C115 C112 1.461 . S
C115 C114 1.474 . S
C116 C111 1.342 . S
C116 C114 1.285 . S
C116 H135 0.930 . S
C117 C120 1.424 . S
C117 C122 1.245 . S
C117 C123 1.428 . S
C118 C121 1.260 . S
C118 C122 1.477 . S
C118 H136 0.932 . S
C119 C120 1.384 . S
C119 C121 1.479 . S
C119 H137 0.929 . S
C120 C117 1.424 . S
C120 C119 1.384 . S
C120 H138 0.928 . S
C121 C118 1.260 . S
C121 C119 1.479 . S
C122 C117 1.245 . S
C122 C118 1.477 . S
C122 H139 0.932 . S
C123 U106 2.882 . S
C123 C117 1.428 . S
C123 O126 1.301 . S
C123 O127 1.282 . S
O124 U106 2.441 . S
O124 C110 1.249 . S
O125 U106 2.420 . S
O125 C110 1.202 . S
O126 U106 2.455 . S
O126 C123 1.301 . S
O127 U106 2.449 . S
O127 C123 1.282 . S
H128 C101 0.931 . S
H129 C103 0.929 . S
H130 C104 0.930 . S
H131 C105 0.931 . S
H132 C112 0.932 . S
H133 C113 0.930 . S
H134 C114 0.929 . S
H135 C116 0.930 . S
H136 C118 0.932 . S
H137 C119 0.929 . S
H138 C120 0.928 . S
H139 C122 0.932 . S
C140 C141 1.264 . S
C140 C145 1.479 . S
C140 C150 1.465 . S
C141 C140 1.264 . S
C141 C143 1.339 . S
C141 H168 0.931 . S
C142 C143 1.395 . S
C142 C144 1.320 . S
C143 C141 1.339 . S
C143 C142 1.395 . S
C143 H169 0.929 . S
C144 C142 1.320 . S
C144 C145 1.405 . S
C144 H170 0.930 . S
C145 C140 1.479 . S
C145 C144 1.405 . S
C145 H171 0.931 . S
U146 O147 2.454 . S
U146 O148 2.458 . S
U146 C149 2.984 . S
U146 C150 2.847 1_455 S
U146 C163 2.882 . S
U146 O164 2.441 . S
U146 O165 2.420 1_455 S
U146 O166 2.455 . S
U146 O167 2.449 . S
O147 U146 2.454 . S
O147 C149 1.353 . S
O148 U146 2.458 . S
O148 C149 1.286 . S
C149 U146 2.984 . S
C149 O147 1.353 . S
C149 O148 1.286 . S
C149 C151 1.363 . S
C150 C140 1.465 . S
C150 U146 2.847 1_655 S
C150 O164 1.249 1_655 S
C150 O165 1.202 . S
C151 C149 1.363 . S
C151 C153 1.408 . S
C151 C156 1.342 . S
C152 C153 1.310 . S
C152 C155 1.461 . S
C152 H172 0.932 . S
C153 C151 1.408 . S
C153 C152 1.310 . S
C153 H173 0.930 . S
C154 C155 1.474 . S
C154 C156 1.285 . S
C154 H174 0.929 . S
C155 C152 1.461 . S
C155 C154 1.474 . S
C156 C151 1.342 . S
C156 C154 1.285 . S
C156 H175 0.930 . S
C157 C160 1.424 . S
C157 C162 1.245 . S
C157 C163 1.428 . S
C158 C161 1.254 1_556 S
C158 C162 1.488 . S
C158 H176 0.926 1_556 S
C159 C160 1.384 . S
C159 C161 1.479 1_556 S
C159 H177 0.929 1_456 S
C160 C157 1.424 . S
C160 C159 1.384 . S
C160 H178 0.928 1_455 S
C161 C158 1.254 1_554 S
C161 C159 1.479 1_554 S
C162 C157 1.245 . S
C162 C158 1.488 . S
C162 H179 0.932 . S
C163 U146 2.882 . S
C163 C157 1.428 . S
C163 O166 1.301 . S
C163 O167 1.282 . S
O164 U146 2.441 . S
O164 C150 1.249 1_455 S
O165 U146 2.420 1_655 S
O165 C150 1.202 . S
O166 U146 2.455 . S
O166 C163 1.301 . S
O167 U146 2.449 . S
O167 C163 1.282 . S
H168 C141 0.931 . S
H169 C143 0.929 . S
H170 C144 0.930 . S
H171 C145 0.931 . S
H172 C152 0.932 . S
H173 C153 0.930 . S
H174 C154 0.929 . S
H175 C156 0.930 . S
H176 C158 0.926 1_554 S
H177 C159 0.929 1_654 S
H178 C160 0.928 1_655 S
H179 C162 0.932 . S
C180 C181 1.264 . S
C180 C185 1.479 . S
C180 C190 1.465 . S
C181 C180 1.264 . S
C181 C183 1.339 . S
C181 H208 0.931 . S
C182 C183 1.395 . S
C182 C184 1.320 . S
C183 C181 1.339 . S
C183 C182 1.395 . S
C183 H209 0.929 . S
C184 C182 1.320 . S
C184 C185 1.405 . S
C184 H210 0.930 . S
C185 C180 1.479 . S
C185 C184 1.405 . S
C185 H211 0.931 . S
U186 O187 2.454 1_655 S
U186 O188 2.458 1_655 S
U186 C189 2.984 1_655 S
U186 C190 2.847 . S
U186 C203 2.882 . S
U186 O204 2.441 . S
U186 O205 2.420 . S
U186 O206 2.455 1_655 S
U186 O207 2.449 . S
O187 U186 2.454 1_455 S
O187 C189 1.353 . S
O188 U186 2.458 1_455 S
O188 C189 1.286 . S
C189 U186 2.984 1_455 S
C189 O187 1.353 . S
C189 O188 1.286 . S
C189 C191 1.363 . S
C190 C180 1.465 . S
C190 U186 2.847 . S
C190 O204 1.249 . S
C190 O205 1.202 . S
C191 C189 1.363 . S
C191 C193 1.408 . S
C191 C196 1.342 . S
C192 C193 1.310 . S
C192 C195 1.461 . S
C192 H212 0.932 . S
C193 C191 1.408 . S
C193 C192 1.310 . S
C193 H213 0.930 . S
C194 C195 1.474 . S
C194 C196 1.285 . S
C194 H214 0.929 . S
C195 C192 1.461 . S
C195 C194 1.474 . S
C196 C191 1.342 . S
C196 C194 1.285 . S
C196 H215 0.930 . S
C197 C200 1.424 . S
C197 C202 1.245 1_655 S
C197 C203 1.428 . S
C198 C201 1.260 1_455 S
C198 C202 1.477 . S
C198 H216 0.932 . S
C199 C200 1.384 . S
C199 C201 1.479 . S
C199 H217 0.929 . S
C200 C197 1.424 . S
C200 C199 1.384 . S
C200 H218 0.928 . S
C201 C198 1.260 1_655 S
C201 C199 1.479 . S
C202 C197 1.245 1_455 S
C202 C198 1.477 . S
C202 H219 0.932 . S
C203 U186 2.882 . S
C203 C197 1.428 . S
C203 O206 1.301 1_655 S
C203 O207 1.282 . S
O204 U186 2.441 . S
O204 C190 1.249 . S
O205 U186 2.420 . S
O205 C190 1.202 . S
O206 U186 2.455 1_455 S
O206 C203 1.301 1_455 S
O207 U186 2.449 . S
O207 C203 1.282 . S
H208 C181 0.931 . S
H209 C183 0.929 . S
H210 C184 0.930 . S
H211 C185 0.931 . S
H212 C192 0.932 . S
H213 C193 0.930 . S
H214 C194 0.929 . S
H215 C196 0.930 . S
H216 C198 0.932 . S
H217 C199 0.929 . S
H218 C200 0.928 . S
H219 C202 0.932 . S
C220 C221 1.264 . S
C220 C225 1.479 . S
C220 C230 1.465 . S
C221 C220 1.264 . S
C221 C223 1.339 . S
C221 H248 0.931 . S
C222 C223 1.395 . S
C222 C224 1.320 . S
C223 C221 1.339 . S
C223 C222 1.395 . S
C223 H249 0.929 . S
C224 C222 1.320 . S
C224 C225 1.405 . S
C224 H250 0.930 . S
C225 C220 1.479 . S
C225 C224 1.405 . S
C225 H251 0.931 . S
U226 O227 2.454 . S
U226 O228 2.458 . S
U226 C229 2.984 . S
U226 C230 2.847 1_545 S
U226 C243 2.882 . S
U226 O244 2.441 1_545 S
U226 O245 2.420 1_545 S
U226 O246 2.455 . S
U226 O247 2.449 1_545 S
O227 U226 2.454 . S
O227 C229 1.353 . S
O228 U226 2.458 . S
O228 C229 1.286 . S
C229 U226 2.984 . S
C229 O227 1.353 . S
C229 O228 1.286 . S
C229 C231 1.363 . S
C230 C220 1.465 . S
C230 U226 2.847 1_565 S
C230 O244 1.249 . S
C230 O245 1.202 . S
C231 C229 1.363 . S
C231 C233 1.408 . S
C231 C236 1.342 . S
C232 C233 1.310 . S
C232 C235 1.461 . S
C232 H252 0.932 . S
C233 C231 1.408 . S
C233 C232 1.310 . S
C233 H253 0.930 . S
C234 C235 1.474 . S
C234 C236 1.285 . S
C234 H254 0.929 . S
C235 C232 1.461 . S
C235 C234 1.474 . S
C236 C231 1.342 . S
C236 C234 1.285 . S
C236 H255 0.930 . S
C237 C240 1.426 1_545 S
C237 C242 1.243 . S
C237 C243 1.428 . S
C238 C241 1.260 1_545 S
C238 C242 1.477 . S
C238 H256 0.932 . S
C239 C240 1.384 . S
C239 C241 1.479 . S
C239 H257 0.929 . S
C240 C237 1.426 1_565 S
C240 C239 1.384 . S
C240 H258 0.928 . S
C241 C238 1.260 1_565 S
C241 C239 1.479 . S
C242 C237 1.243 . S
C242 C238 1.477 . S
C242 H259 0.932 . S
C243 U226 2.882 . S
C243 C237 1.428 . S
C243 O246 1.301 . S
C243 O247 1.283 1_545 S
O244 U226 2.441 1_565 S
O244 C230 1.249 . S
O245 U226 2.420 1_565 S
O245 C230 1.202 . S
O246 U226 2.455 . S
O246 C243 1.301 . S
O247 U226 2.449 1_565 S
O247 C243 1.283 1_565 S
H248 C221 0.931 . S
H249 C223 0.929 . S
H250 C224 0.930 . S
H251 C225 0.931 . S
H252 C232 0.932 . S
H253 C233 0.930 . S
H254 C234 0.929 . S
H255 C236 0.930 . S
H256 C238 0.932 . S
H257 C239 0.929 . S
H258 C240 0.928 . S
H259 C242 0.932 . S
C260 C261 1.264 . S
C260 C265 1.479 . S
C260 C270 1.465 . S
C261 C260 1.264 . S
C261 C263 1.339 . S
C261 H288 0.931 . S
C262 C263 1.395 . S
C262 C264 1.320 . S
C263 C261 1.339 . S
C263 C262 1.395 . S
C263 H289 0.929 . S
C264 C262 1.320 . S
C264 C265 1.405 . S
C264 H290 0.930 . S
C265 C260 1.479 . S
C265 C264 1.405 . S
C265 H291 0.931 . S
U266 O267 2.454 . S
U266 O268 2.458 . S
U266 C269 2.984 . S
U266 C270 2.847 . S
U266 C283 2.882 . S
U266 O284 2.441 . S
U266 O285 2.420 . S
U266 O286 2.455 . S
U266 O287 2.449 . S
O267 U266 2.454 . S
O267 C269 1.353 . S
O268 U266 2.458 . S
O268 C269 1.286 . S
C269 U266 2.984 . S
C269 O267 1.353 . S
C269 O268 1.286 . S
C269 C271 1.363 . S
C270 C260 1.465 . S
C270 U266 2.847 . S
C270 O284 1.249 . S
C270 O285 1.202 . S
C271 C269 1.363 . S
C271 C273 1.408 . S
C271 C276 1.342 . S
C272 C273 1.310 . S
C272 C275 1.461 . S
C272 H292 0.932 . S
C273 C271 1.408 . S
C273 C272 1.310 . S
C273 H293 0.930 . S
C274 C275 1.474 . S
C274 C276 1.285 . S
C274 H294 0.929 . S
C275 C272 1.461 . S
C275 C274 1.474 . S
C276 C271 1.342 . S
C276 C274 1.285 . S
C276 H295 0.930 . S
C277 C280 1.424 . S
C277 C282 1.245 . S
C277 C283 1.428 . S
C278 C281 1.260 . S
C278 C282 1.477 1_556 S
C278 H296 0.932 . S
C279 C280 1.349 1_556 S
C279 C281 1.498 . S
C279 H297 0.945 . S
C280 C277 1.424 . S
C280 C279 1.349 1_554 S
C280 H298 0.928 . S
C281 C278 1.260 . S
C281 C279 1.498 . S
C282 C277 1.245 . S
C282 C278 1.477 1_554 S
C282 H299 0.932 . S
C283 U266 2.882 . S
C283 C277 1.428 . S
C283 O286 1.301 . S
C283 O287 1.282 . S
O284 U266 2.441 . S
O284 C270 1.249 . S
O285 U266 2.420 . S
O285 C270 1.202 . S
O286 U266 2.455 . S
O286 C283 1.301 . S
O287 U266 2.449 . S
O287 C283 1.282 . S
H288 C261 0.931 . S
H289 C263 0.929 . S
H290 C264 0.930 . S
H291 C265 0.931 . S
H292 C272 0.932 . S
H293 C273 0.930 . S
H294 C274 0.929 . S
H295 C276 0.930 . S
H296 C278 0.932 . S
H297 C279 0.945 . S
H298 C280 0.928 . S
H299 C282 0.932 . S
C300 C301 1.369 . S
C300 C302 1.419 . S
C300 H304 0.930 . S
C301 C300 1.369 . S
C301 C310 1.429 . S
C302 C300 1.419 . S
C302 C303 1.363 . S
C302 H305 0.929 . S
C303 C302 1.363 . S
C303 C309 1.428 . S
H304 C300 0.930 . S
H305 C302 0.929 . S
S306 N307 1.613 . S
S306 N308 1.610 . S
N307 S306 1.613 . S
N307 C310 1.350 . S
N308 S306 1.610 . S
N308 C309 1.351 . S
C309 C303 1.428 . S
C309 N308 1.351 . S
C309 C310 1.434 . S
C310 C301 1.429 . S
C310 N307 1.350 . S
C310 C309 1.434 . S
C311 C312 1.369 . S
C311 C313 1.419 . S
C311 H315 0.930 . S
C312 C311 1.369 . S
C312 C321 1.429 . S
C313 C311 1.419 . S
C313 C314 1.363 . S
C313 H316 0.929 . S
C314 C313 1.363 . S
C314 C320 1.428 . S
H315 C311 0.930 . S
H316 C313 0.929 . S
S317 N318 1.613 . S
S317 N319 1.610 . S
N318 S317 1.613 . S
N318 C321 1.350 . S
N319 S317 1.610 . S
N319 C320 1.351 . S
C320 C314 1.428 . S
C320 N319 1.351 . S
C320 C321 1.434 . S
C321 C312 1.429 . S
C321 N318 1.350 . S
C321 C320 1.434 . S
C322 C323 1.369 . S
C322 C324 1.419 . S
C322 H326 0.930 . S
C323 C322 1.369 . S
C323 C332 1.429 . S
C324 C322 1.419 . S
C324 C325 1.363 . S
C324 H327 0.929 . S
C325 C324 1.363 . S
C325 C331 1.428 . S
H326 C322 0.930 . S
H327 C324 0.929 . S
S328 N329 1.613 . S
S328 N330 1.610 . S
N329 S328 1.613 . S
N329 C332 1.350 . S
N330 S328 1.610 . S
N330 C331 1.351 . S
C331 C325 1.428 . S
C331 N330 1.351 . S
C331 C332 1.434 . S
C332 C323 1.429 . S
C332 N329 1.350 . S
C332 C331 1.434 . S
C333 C334 1.369 . S
C333 C335 1.419 . S
C333 H337 0.930 . S
C334 C333 1.369 . S
C334 C343 1.429 . S
C335 C333 1.419 . S
C335 C336 1.363 . S
C335 H338 0.929 . S
C336 C335 1.363 . S
C336 C342 1.428 . S
H337 C333 0.930 . S
H338 C335 0.929 . S
S339 N340 1.613 . S
S339 N341 1.610 . S
N340 S339 1.613 . S
N340 C343 1.350 . S
N341 S339 1.610 . S
N341 C342 1.351 . S
C342 C336 1.428 . S
C342 N341 1.351 . S
C342 C343 1.434 . S
C343 C334 1.429 . S
C343 N340 1.350 . S
C343 C342 1.434 . S
C344 C345 1.369 . S
C344 C346 1.419 . S
C344 H348 0.930 . S
C345 C344 1.369 . S
C345 C354 1.429 . S
C346 C344 1.419 . S
C346 C347 1.363 . S
C346 H349 0.929 . S
C347 C346 1.363 . S
C347 C353 1.428 . S
H348 C344 0.930 . S
H349 C346 0.929 . S
S350 N351 1.613 . S
S350 N352 1.610 . S
N351 S350 1.613 . S
N351 C354 1.350 . S
N352 S350 1.610 . S
N352 C353 1.351 . S
C353 C347 1.428 . S
C353 N352 1.351 . S
C353 C354 1.434 . S
C354 C345 1.429 . S
C354 N351 1.350 . S
C354 C353 1.434 . S
C355 C356 1.369 . S
C355 C357 1.419 . S
C355 H359 0.930 . S
C356 C355 1.369 . S
C356 C365 1.429 . S
C357 C355 1.419 . S
C357 C358 1.363 . S
C357 H360 0.929 . S
C358 C357 1.363 . S
C358 C364 1.428 . S
H359 C355 0.930 . S
H360 C357 0.929 . S
S361 N362 1.613 . S
S361 N363 1.610 . S
N362 S361 1.613 . S
N362 C365 1.350 . S
N363 S361 1.610 . S
N363 C364 1.351 . S
C364 C358 1.428 . S
C364 N363 1.351 . S
C364 C365 1.434 . S
C365 C356 1.429 . S
C365 N362 1.350 . S
C365 C364 1.434 . S
C366 C367 1.369 . S
C366 C368 1.419 . S
C366 H370 0.930 . S
C367 C366 1.369 . S
C367 C376 1.429 . S
C368 C366 1.419 . S
C368 C369 1.363 . S
C368 H371 0.929 . S
C369 C368 1.363 . S
C369 C375 1.428 . S
H370 C366 0.930 . S
H371 C368 0.929 . S
S372 N373 1.613 . S
S372 N374 1.610 . S
N373 S372 1.613 . S
N373 C376 1.350 . S
N374 S372 1.610 . S
N374 C375 1.351 . S
C375 C369 1.428 . S
C375 N374 1.351 . S
C375 C376 1.434 . S
C376 C367 1.429 . S
C376 N373 1.350 . S
C376 C375 1.434 . S
C377 C378 1.369 . S
C377 C379 1.419 . S
C377 H381 0.930 . S
C378 C377 1.369 . S
C378 C387 1.429 . S
C379 C377 1.419 . S
C379 C380 1.363 . S
C379 H382 0.929 . S
C380 C379 1.363 . S
C380 C386 1.428 . S
H381 C377 0.930 . S
H382 C379 0.929 . S
S383 N384 1.613 . S
S383 N385 1.610 . S
N384 S383 1.613 . S
N384 C387 1.350 . S
N385 S383 1.610 . S
N385 C386 1.351 . S
C386 C380 1.428 . S
C386 N385 1.351 . S
C386 C387 1.434 . S
C387 C378 1.429 . S
C387 N384 1.350 . S
C387 C386 1.434 . S
C388 C389 1.369 . S
C388 C390 1.419 . S
C388 H392 0.930 . S
C389 C388 1.369 . S
C389 C398 1.429 . S
C390 C388 1.419 . S
C390 C391 1.363 . S
C390 H393 0.929 . S
C391 C390 1.363 . S
C391 C397 1.428 . S
H392 C388 0.930 . S
H393 C390 0.929 . S
S394 N395 1.613 . S
S394 N396 1.610 . S
N395 S394 1.613 . S
N395 C398 1.350 . S
N396 S394 1.610 . S
N396 C397 1.351 . S
C397 C391 1.428 . S
C397 N396 1.351 . S
C397 C398 1.434 . S
C398 C389 1.429 . S
C398 N395 1.350 . S
C398 C397 1.434 . S
C399 C400 1.369 . S
C399 C401 1.419 . S
C399 H403 0.930 . S
C400 C399 1.369 . S
C400 C409 1.429 . S
C401 C399 1.419 . S
C401 C402 1.363 . S
C401 H404 0.929 . S
C402 C401 1.363 . S
C402 C408 1.428 . S
H403 C399 0.930 . S
H404 C401 0.929 . S
S405 N406 1.613 . S
S405 N407 1.610 . S
N406 S405 1.613 . S
N406 C409 1.350 . S
N407 S405 1.610 . S
N407 C408 1.351 . S
C408 C402 1.428 . S
C408 N407 1.351 . S
C408 C409 1.434 . S
C409 C400 1.429 . S
C409 N406 1.350 . S
C409 C408 1.434 . S
C410 C411 1.369 . S
C410 C412 1.419 . S
C410 H414 0.930 . S
C411 C410 1.369 . S
C411 C420 1.429 . S
C412 C410 1.419 . S
C412 C413 1.363 . S
C412 H415 0.929 . S
C413 C412 1.363 . S
C413 C419 1.428 . S
H414 C410 0.930 . S
H415 C412 0.929 . S
S416 N417 1.613 . S
S416 N418 1.610 . S
N417 S416 1.613 . S
N417 C420 1.350 . S
N418 S416 1.610 . S
N418 C419 1.351 . S
C419 C413 1.428 . S
C419 N418 1.351 . S
C419 C420 1.434 . S
C420 C411 1.429 . S
C420 N417 1.350 . S
C420 C419 1.434 . S
C421 C422 1.369 . S
C421 C423 1.419 . S
C421 H425 0.930 . S
C422 C421 1.369 . S
C422 C431 1.429 . S
C423 C421 1.419 . S
C423 C424 1.363 . S
C423 H426 0.929 . S
C424 C423 1.363 . S
C424 C430 1.428 . S
H425 C421 0.930 . S
H426 C423 0.929 . S
S427 N428 1.613 . S
S427 N429 1.610 . S
N428 S427 1.613 . S
N428 C431 1.350 . S
N429 S427 1.610 . S
N429 C430 1.351 . S
C430 C424 1.428 . S
C430 N429 1.351 . S
C430 C431 1.434 . S
C431 C422 1.429 . S
C431 N428 1.350 . S
C431 C430 1.434 . S
C432 C433 1.369 . S
C432 C434 1.419 . S
C432 H436 0.930 . S
C433 C432 1.369 . S
C433 C442 1.429 . S
C434 C432 1.419 . S
C434 C435 1.363 . S
C434 H437 0.929 . S
C435 C434 1.363 . S
C435 C441 1.428 . S
H436 C432 0.930 . S
H437 C434 0.929 . S
S438 N439 1.613 . S
S438 N440 1.610 . S
N439 S438 1.613 . S
N439 C442 1.350 . S
N440 S438 1.610 . S
N440 C441 1.351 . S
C441 C435 1.428 . S
C441 N440 1.351 . S
C441 C442 1.434 . S
C442 C433 1.429 . S
C442 N439 1.350 . S
C442 C441 1.434 . S
C443 C444 1.369 . S
C443 C445 1.419 . S
C443 H447 0.930 . S
C444 C443 1.369 . S
C444 C453 1.429 . S
C445 C443 1.419 . S
C445 C446 1.363 . S
C445 H448 0.929 . S
C446 C445 1.363 . S
C446 C452 1.428 . S
H447 C443 0.930 . S
H448 C445 0.929 . S
S449 N450 1.613 . S
S449 N451 1.610 . S
N450 S449 1.613 . S
N450 C453 1.350 1_565 S
N451 S449 1.610 . S
N451 C452 1.351 1_565 S
C452 C446 1.428 . S
C452 N451 1.351 1_545 S
C452 C453 1.434 . S
C453 C444 1.429 . S
C453 N450 1.350 1_545 S
C453 C452 1.434 . S
C454 C455 1.369 . S
C454 C456 1.419 . S
C454 H458 0.930 . S
C455 C454 1.369 . S
C455 C464 1.429 . S
C456 C454 1.419 . S
C456 C457 1.363 . S
C456 H459 0.929 . S
C457 C456 1.363 . S
C457 C463 1.428 . S
H458 C454 0.930 . S
H459 C456 0.929 . S
S460 N461 1.613 . S
S460 N462 1.610 . S
N461 S460 1.613 . S
N461 C464 1.350 . S
N462 S460 1.610 . S
N462 C463 1.351 . S
C463 C457 1.428 . S
C463 N462 1.351 . S
C463 C464 1.434 . S
C464 C455 1.429 . S
C464 N461 1.350 . S
C464 C463 1.434 . S
C465 C466 1.369 . S
C465 C467 1.423 . S
C465 H469 0.930 . S
C466 C465 1.369 . S
C466 C475 1.429 . S
C467 C465 1.423 . S
C467 C468 1.356 . S
C467 H470 0.932 1_545 S
C468 C467 1.356 . S
C468 C474 1.428 . S
H469 C465 0.930 . S
H470 C467 0.932 1_565 S
S471 N472 1.613 . S
S471 N473 1.610 . S
N472 S471 1.613 . S
N472 C475 1.350 . S
N473 S471 1.610 . S
N473 C474 1.351 . S
C474 C468 1.428 . S
C474 N473 1.351 . S
C474 C475 1.434 . S
C475 C466 1.429 . S
C475 N472 1.350 . S
C475 C474 1.434 . S
C476 C477 1.369 . S
C476 C478 1.419 . S
C476 H480 0.930 . S
C477 C476 1.369 . S
C477 C486 1.429 . S
C478 C476 1.419 . S
C478 C479 1.363 . S
C478 H481 0.929 . S
C479 C478 1.363 . S
C479 C485 1.428 . S
H480 C476 0.930 . S
H481 C478 0.929 . S
S482 N483 1.613 . S
S482 N484 1.610 . S
N483 S482 1.613 . S
N483 C486 1.350 . S
N484 S482 1.610 . S
N484 C485 1.351 . S
C485 C479 1.428 . S
C485 N484 1.351 . S
C485 C486 1.434 . S
C486 C477 1.429 . S
C486 N483 1.350 . S
C486 C485 1.434 . S
C487 C488 1.369 1_655 S
C487 C489 1.419 . S
C487 H491 0.930 . S
C488 C487 1.369 1_455 S
C488 C497 1.429 . S
C489 C487 1.419 . S
C489 C490 1.363 . S
C489 H492 0.929 . S
C490 C489 1.363 . S
C490 C496 1.428 1_655 S
H491 C487 0.930 . S
H492 C489 0.929 . S
S493 N494 1.613 . S
S493 N495 1.610 . S
N494 S493 1.613 . S
N494 C497 1.350 . S
N495 S493 1.610 . S
N495 C496 1.351 . S
C496 C490 1.428 1_455 S
C496 N495 1.351 . S
C496 C497 1.434 . S
C497 C488 1.429 . S
C497 N494 1.350 . S
C497 C496 1.434 . S
C301 C8 2.162 . S
C303 C275 2.206 . S
C312 C26 1.458 . S
C314 C182 1.446 . S
C323 C48 1.625 . S
C325 C222 1.666 . S
C334 C19 2.027 . S
C336 C262 2.016 . S
C347 C195 1.669 . S
C345 C36 1.692 . S
C358 C235 1.924 . S
C356 C59 1.958 . S
C367 C28 1.651 . S
C369 C102 1.688 . S
C378 C46 1.365 . S
C380 C142 1.357 . S
C389 C16 1.759 . S
C391 C75 1.733 . S
C402 C115 1.886 . S
C400 C39 1.930 . S
C413 C155 1.159 . S
C411 C56 1.189 . S
C422 C6 1.517 . S
C424 C62 1.500 . S
C435 C161 1.423 . S
C433 C9 1.413 . S
C444 C21 1.530 . S
C446 C81 1.535 . S
C455 C49 1.501 . S
C457 C121 1.503 . S
C468 C241 1.493 1_545 S
C466 C29 1.499 . S
C479 C281 1.596 . S
C477 C41 1.581 . S
C488 C1 1.519 . S
C490 C201 1.526 . S
