# Generated by pormake.
# Topology zzz, (3,6)-cn, num edge types: 1
# Building blocks:
#     Node 0, Type 0, BuildingBlock: WUSLED_clean_sbu_0, # of connection points: 3
#     Node 1, Type 0, BuildingBlock: WUSLED_clean_sbu_0, # of connection points: 3
#     Node 2, Type 0, BuildingBlock: WUSLED_clean_sbu_0, # of connection points: 3
#     Node 3, Type 0, BuildingBlock: WUSLED_clean_sbu_0, # of connection points: 3
#     Node 4, Type 0, BuildingBlock: WUSLED_clean_sbu_0, # of connection points: 3
#     Node 5, Type 0, BuildingBlock: WUSLED_clean_sbu_0, # of connection points: 3
#     Node 6, Type 0, BuildingBlock: WUSLED_clean_sbu_0, # of connection points: 3
#     Node 7, Type 0, BuildingBlock: WUSLED_clean_sbu_0, # of connection points: 3
#     Node 8, Type 1, BuildingBlock: BETDAH_clean_sbu_0, # of connection points: 6
#     Node 9, Type 1, BuildingBlock: BETDAH_clean_sbu_0, # of connection points: 6
#     Node 10, Type 1, BuildingBlock: BETDAH_clean_sbu_0, # of connection points: 6
#     Node 11, Type 1, BuildingBlock: BETDAH_clean_sbu_0, # of connection points: 6
#     Edge 12, Type (0, 1), BuildingBlock: KIFKEQ_clean_linker_1, # of connection points: 2
#     Edge 13, Type (0, 1), BuildingBlock: KIFKEQ_clean_linker_1, # of connection points: 2
#     Edge 14, Type (0, 1), BuildingBlock: KIFKEQ_clean_linker_1, # of connection points: 2
#     Edge 15, Type (0, 1), BuildingBlock: KIFKEQ_clean_linker_1, # of connection points: 2
#     Edge 16, Type (0, 1), BuildingBlock: KIFKEQ_clean_linker_1, # of connection points: 2
#     Edge 17, Type (0, 1), BuildingBlock: KIFKEQ_clean_linker_1, # of connection points: 2
#     Edge 18, Type (0, 1), BuildingBlock: KIFKEQ_clean_linker_1, # of connection points: 2
#     Edge 19, Type (0, 1), BuildingBlock: KIFKEQ_clean_linker_1, # of connection points: 2
#     Edge 20, Type (0, 1), BuildingBlock: KIFKEQ_clean_linker_1, # of connection points: 2
#     Edge 21, Type (0, 1), BuildingBlock: KIFKEQ_clean_linker_1, # of connection points: 2
#     Edge 22, Type (0, 1), BuildingBlock: KIFKEQ_clean_linker_1, # of connection points: 2
#     Edge 23, Type (0, 1), BuildingBlock: KIFKEQ_clean_linker_1, # of connection points: 2
#     Edge 24, Type (0, 1), BuildingBlock: KIFKEQ_clean_linker_1, # of connection points: 2
#     Edge 25, Type (0, 1), BuildingBlock: KIFKEQ_clean_linker_1, # of connection points: 2
#     Edge 26, Type (0, 1), BuildingBlock: KIFKEQ_clean_linker_1, # of connection points: 2
#     Edge 27, Type (0, 1), BuildingBlock: KIFKEQ_clean_linker_1, # of connection points: 2
#     Edge 28, Type (0, 1), BuildingBlock: KIFKEQ_clean_linker_1, # of connection points: 2
#     Edge 29, Type (0, 1), BuildingBlock: KIFKEQ_clean_linker_1, # of connection points: 2
#     Edge 30, Type (0, 1), BuildingBlock: KIFKEQ_clean_linker_1, # of connection points: 2
#     Edge 31, Type (0, 1), BuildingBlock: KIFKEQ_clean_linker_1, # of connection points: 2
#     Edge 32, Type (0, 1), BuildingBlock: KIFKEQ_clean_linker_1, # of connection points: 2
#     Edge 33, Type (0, 1), BuildingBlock: KIFKEQ_clean_linker_1, # of connection points: 2
#     Edge 34, Type (0, 1), BuildingBlock: KIFKEQ_clean_linker_1, # of connection points: 2
#     Edge 35, Type (0, 1), BuildingBlock: KIFKEQ_clean_linker_1, # of connection points: 2
# Relax obj value: 0.412
# Max RMSD: 0.267
# Mean RMSD: 0.249
data_MOF--net-zzz--node1-WUSLED_clean_sbu_0--node2-BETDAH_clean_sbu_0--edge1-KIFKEQ_clean_linker_1
_symmetry_space_group_name_H-M    P1
_symmetry_Int_Tables_number       1
_symmetry_cell_setting            triclinic
loop_
_symmetry_equiv_pos_as_xyz
'x, y, z'
_cell_length_a     64.719994
_cell_length_b     64.697866
_cell_length_c     19.510321
_cell_angle_alpha  90.422631
_cell_angle_beta   90.129818
_cell_angle_gamma 90.137376
loop_
_atom_site_label
_atom_site_type_symbol
_atom_site_fract_x
_atom_site_fract_y
_atom_site_fract_z
_atom_type_partial_charge
C0 C 0.77925 0.53292 0.42486 0.0
C1 C 0.79668 0.53491 0.38233 0.0
C2 C 0.81987 0.52684 0.47778 0.0
C3 C 0.81668 0.53191 0.40841 0.0
C4 C 0.80237 0.5247 0.52003 0.0
C5 C 0.78237 0.52772 0.49392 0.0
U6 U 0.73465 0.52208 0.29857 0.0
O7 O 0.70079 0.51985 0.31228 0.0
O8 O 0.71399 0.54423 0.24823 0.0
C9 C 0.69708 0.53475 0.26836 0.0
C10 C 0.75789 0.5367 0.39888 0.0
C11 C 0.68095 0.53075 0.21507 0.0
C12 C 0.64586 0.51978 0.18543 0.0
C13 C 0.66178 0.52225 0.23384 0.0
C14 C 0.66789 0.53426 0.09807 0.0
C15 C 0.64862 0.52594 0.11695 0.0
C16 C 0.68383 0.53661 0.14635 0.0
C17 C 0.77391 0.48569 0.22973 0.0
C18 C 0.80504 0.47382 0.17345 0.0
C19 C 0.80644 0.48533 0.29194 0.0
C20 C 0.7852 0.48891 0.29044 0.0
C21 C 0.81665 0.47835 0.2328 0.0
C22 C 0.7838 0.47758 0.17184 0.0
C23 C 0.75284 0.49376 0.22413 0.0
O24 O 0.75627 0.54556 0.33866 0.0
O25 O 0.74441 0.52168 0.40729 0.0
O26 O 0.74049 0.48927 0.27536 0.0
O27 O 0.75208 0.5133 0.20643 0.0
H28 H 0.79494 0.53886 0.3288 0.0
H29 H 0.82967 0.53398 0.37426 0.0
H30 H 0.80407 0.52053 0.57338 0.0
H31 H 0.76928 0.52608 0.52797 0.0
H32 H 0.6312 0.51351 0.20211 0.0
H33 H 0.65896 0.51782 0.28645 0.0
H34 H 0.67071 0.5389 0.0457 0.0
H35 H 0.69833 0.54328 0.12977 0.0
H36 H 0.81259 0.46865 0.12688 0.0
H37 H 0.81502 0.4888 0.33839 0.0
H38 H 0.77776 0.49518 0.33566 0.0
H39 H 0.77534 0.47522 0.12444 0.0
C40 C 0.99926 0.77831 0.4659 0.0
C41 C 0.01564 0.79122 0.44528 0.0
C42 C 1.0014 0.82037 0.51061 0.0
C43 C 0.01674 0.81193 0.46762 0.0
C44 C 0.98486 0.80749 0.53007 0.0
C45 C 0.98386 0.78677 0.50823 0.0
U46 U 1.00283 0.7354 0.32927 0.0
O47 O 0.0169 0.70433 0.3303 0.0
O48 O 0.98368 0.70768 0.31183 0.0
C49 C 0.99956 0.69504 0.31258 0.0
C50 C 0.99807 0.75607 0.44502 0.0
C51 C 1.00081 0.68019 0.25436 0.0
C52 C 1.00204 0.64454 0.21276 0.0
C53 C 1.00143 0.65888 0.2671 0.0
C54 C 1.00155 0.67263 0.1317 0.0
C55 C 1.00207 0.65116 0.14409 0.0
C56 C 1.00094 0.68696 0.18614 0.0
C57 C 1.01216 0.78234 0.22808 0.0
C58 C 0.03004 0.81402 0.19881 0.0
C59 C 0.99988 0.81529 0.27228 0.0
C60 C 0.99821 0.79386 0.26822 0.0
C61 C 0.01577 0.8255 0.23755 0.0
C62 C 0.02818 0.79254 0.19388 0.0
C63 C 1.01093 0.75968 0.22694 0.0
O64 O 0.98253 0.75081 0.40494 0.0
O65 O 0.0155 0.74713 0.42709 0.0
O66 O 0.02556 0.75038 0.26187 0.0
O67 O 0.9924 0.75202 0.23793 0.0
H68 H 0.02766 0.78532 0.41198 0.0
H69 H 0.02953 0.82141 0.4506 0.0
H70 H 0.97283 0.81333 0.56344 0.0
H71 H 0.97106 0.77725 0.52496 0.0
H72 H 1.00274 0.62824 0.2247 0.0
H73 H 1.00137 0.65328 0.31931 0.0
H74 H 1.00125 0.67842 0.07978 0.0
H75 H 1.0004 0.70333 0.17495 0.0
H76 H 0.04231 0.82173 0.17119 0.0
H77 H 0.98881 0.82391 0.30266 0.0
H78 H 0.98604 0.78632 0.29679 0.0
H79 H 0.03928 0.78388 0.16375 0.0
C80 C 0.74506 0.99893 0.44181 0.0
C81 C 0.73342 0.01599 0.42015 0.0
C82 C 0.70443 1.0054 0.49266 0.0
C83 C 0.71328 0.01915 0.44509 0.0
C84 C 0.71627 0.98838 0.51404 0.0
C85 C 0.73628 0.9852 0.48885 0.0
U86 U 0.79155 1.00738 0.3192 0.0
O87 O 0.82507 1.00839 0.34121 0.0
O88 O 0.81218 0.98346 0.27765 0.0
C89 C 0.82902 0.99267 0.30023 0.0
C90 C 0.7663 0.99496 0.4166 0.0
C91 C 0.84535 0.99595 0.24824 0.0
C92 C 0.88149 0.99374 0.21383 0.0
C93 C 0.86604 0.99144 0.26363 0.0
C94 C 0.85576 1.00519 0.13249 0.0
C95 C 0.87658 1.00056 0.14731 0.0
C96 C 0.84038 1.003 0.18236 0.0
C97 C 0.7583 0.04639 0.22346 0.0
C98 C 0.74024 0.07661 0.18145 0.0
C99 C 0.72089 0.04641 0.21686 0.0
C100 C 0.73927 0.03653 0.23421 0.0
C101 C 0.72116 0.0664 0.18882 0.0
C102 C 0.75866 0.06663 0.19847 0.0
C103 C 0.77781 0.03536 0.23418 0.0
O104 O 0.76778 0.98576 0.35653 0.0
O105 O 0.77986 1.00994 0.425 0.0
O106 O 0.78798 0.04009 0.29055 0.0
O107 O 0.77727 0.0154 0.22105 0.0
H108 H 0.73992 0.02689 0.38424 0.0
H109 H 0.70475 0.03252 0.42778 0.0
H110 H 0.70996 0.97725 0.54955 0.0
H111 H 0.74493 0.97189 0.50614 0.0
H112 H 0.89731 0.99029 0.22772 0.0
H113 H 0.87024 0.98602 0.31417 0.0
H114 H 0.85119 1.01012 0.08178 0.0
H115 H 0.82452 1.00656 0.16912 0.0
H116 H 0.74098 0.09211 0.16099 0.0
H117 H 0.70657 0.03791 0.22234 0.0
H118 H 0.73864 0.02091 0.2537 0.0
H119 H 0.77323 0.07452 0.19033 0.0
C120 C 0.5101 0.7476 0.44773 0.0
C121 C 0.49955 0.73199 0.41103 0.0
C122 C 0.51217 0.70556 0.48982 0.0
C123 C 0.50054 0.71131 0.43184 0.0
C124 C 0.52308 0.72119 0.52546 0.0
C125 C 0.52197 0.7419 0.5049 0.0
U126 U 0.5189 0.79261 0.32348 0.0
O127 O 0.49766 0.81757 0.29434 0.0
O128 O 0.52767 0.82521 0.3405 0.0
C129 C 0.51093 0.83225 0.31032 0.0
C130 C 0.50826 0.76983 0.42888 0.0
C131 C 0.51411 0.84808 0.25711 0.0
C132 C 0.50756 0.88278 0.21494 0.0
C133 C 0.50555 0.8678 0.266 0.0
C134 C 0.52702 0.8586 0.1454 0.0
C135 C 0.5182 0.87837 0.15367 0.0
C136 C 0.52494 0.84359 0.19655 0.0
C137 C 0.54288 0.75004 0.22206 0.0
C138 C 0.54715 0.71905 0.1534 0.0
C139 C 0.54574 0.71664 0.27729 0.0
C140 C 0.54354 0.73806 0.28176 0.0
C141 C 0.54718 0.70684 0.21294 0.0
C142 C 0.54501 0.74048 0.158 0.0
C143 C 0.5377 0.77204 0.22636 0.0
O144 O 0.52555 0.78056 0.42691 0.0
O145 O 0.49564 0.77422 0.37815 0.0
O146 O 0.51777 0.77581 0.22524 0.0
O147 O 0.54769 0.7826 0.27386 0.0
H148 H 0.49024 0.73573 0.36666 0.0
H149 H 0.49169 0.69992 0.40328 0.0
H150 H 0.53256 0.71748 0.56944 0.0
H151 H 0.5303 0.75352 0.53421 0.0
H152 H 0.50083 0.89787 0.22367 0.0
H153 H 0.49713 0.87158 0.31235 0.0
H154 H 0.53511 0.85454 0.09871 0.0
H155 H 0.53157 0.8284 0.1885 0.0
H156 H 0.5478 0.71199 0.10295 0.0
H157 H 0.54586 0.70774 0.32409 0.0
H158 H 0.54173 0.74522 0.33175 0.0
H159 H 0.54424 0.74949 0.11147 0.0
C160 C 0.24633 0.50327 0.91089 0.0
C161 C 0.2304 0.49383 0.94848 0.0
C162 C 0.20443 0.50549 0.86573 0.0
C163 C 0.20976 0.49501 0.92642 0.0
C164 C 0.22048 0.51488 0.82827 0.0
C165 C 0.2411 0.5138 0.85062 0.0
U166 U 0.2887 0.50631 0.04951 0.0
O167 O 0.31598 0.48666 0.06584 0.0
O168 O 0.32003 0.51983 0.04836 0.0
C169 C 0.32889 0.50238 0.06604 0.0
C170 C 0.26838 0.50213 0.93296 0.0
C171 C 0.34316 0.50357 0.12542 0.0
C172 C 0.3783 0.50379 0.17069 0.0
C173 C 0.36459 0.50299 0.11492 0.0
C174 C 0.34934 0.50582 0.24858 0.0
C175 C 0.37091 0.50518 0.23847 0.0
C176 C 0.33564 0.50504 0.19272 0.0
C177 C 0.24276 0.51677 0.15833 0.0
C178 C 0.21072 0.51179 0.21963 0.0
C179 C 0.21 0.52089 0.0993 0.0
C180 C 0.23153 0.52147 0.09887 0.0
C181 C 0.19935 0.51572 0.15944 0.0
C182 C 0.23228 0.51218 0.2189 0.0
C183 C 0.26522 0.51449 0.1549 0.0
O184 O 0.27698 0.51962 0.95288 0.0
O185 O 0.27352 0.48648 0.97206 0.0
O186 O 0.27132 0.49569 0.13925 0.0
O187 O 0.27492 0.52893 0.12035 0.0
H188 H 0.23385 0.48566 0.99537 0.0
H189 H 0.19795 0.4879 0.95763 0.0
H190 H 0.21721 0.52281 0.78082 0.0
H191 H 0.25304 0.52111 0.82036 0.0
H192 H 0.39474 0.50357 0.1605 0.0
H193 H 0.37074 0.5019 0.06342 0.0
H194 H 0.34297 0.50661 0.29981 0.0
H195 H 0.31915 0.50546 0.20208 0.0
H196 H 0.20297 0.50828 0.2673 0.0
H197 H 0.20177 0.52389 0.05205 0.0
H198 H 0.23945 0.52501 0.05153 0.0
H199 H 0.24076 0.50846 0.26514 0.0
C200 C 0.02186 0.25149 0.91831 0.0
C201 C 0.02724 0.23577 0.96447 0.0
C202 C 0.01952 0.20896 0.87831 0.0
C203 C 0.02603 0.21481 0.94483 0.0
C204 C 0.014 0.22482 0.8326 0.0
C205 C 0.01515 0.24573 0.85236 0.0
U206 U 0.01769 0.29746 0.04576 0.0
O207 O 1.00639 0.32942 0.03341 0.0
O208 O 0.03872 0.32392 0.06081 0.0
C209 C 0.02394 0.33767 0.05424 0.0
C210 C 0.0237 0.27388 0.93662 0.0
C211 C 0.02247 0.35313 0.11067 0.0
C212 C 0.02279 0.38908 0.14991 0.0
C213 C 0.02373 0.37436 0.09663 0.0
C214 C 0.01934 0.36154 0.23228 0.0
C215 C 0.02057 0.38292 0.2187 0.0
C216 C 0.02023 0.34687 0.179 0.0
C217 C 1.00251 0.25543 0.16585 0.0
C218 C 1.00994 0.22557 0.23534 0.0
C219 C 0.99742 0.22091 0.11893 0.0
C220 C 0.99638 0.24234 0.11165 0.0
C221 C 1.00484 0.21243 0.18013 0.0
C222 C 1.00876 0.24694 0.22822 0.0
C223 C 1.00562 0.27755 0.15453 0.0
O224 O 1.00634 0.28383 0.9483 0.0
O225 O 0.03844 0.27905 0.98004 0.0
O226 O 0.02499 0.28259 0.14349 0.0
O227 O 0.99261 0.2864 0.11207 0.0
H228 H 0.03246 0.23966 0.01575 0.0
H229 H 0.03011 0.20319 0.98213 0.0
H230 H 1.0092 0.22115 0.78072 0.0
H231 H 1.01102 0.25748 0.81553 0.0
H232 H 0.02355 0.4053 0.13698 0.0
H233 H 0.02546 0.37957 0.04431 0.0
H234 H 0.01799 0.35605 0.28436 0.0
H235 H 0.01932 0.33059 0.19125 0.0
H236 H 0.01537 0.2193 0.28345 0.0
H237 H 0.99343 0.21104 0.07577 0.0
H238 H 0.99177 0.24864 0.06266 0.0
H239 H 1.01367 0.25683 0.27029 0.0
C240 C 0.28077 0.02824 0.95679 0.0
C241 C 0.29756 0.02685 1.00249 0.0
C242 C 0.32174 0.02231 0.90707 0.0
C243 C 0.31774 0.02393 0.97799 0.0
C244 C 0.30477 0.02321 0.86173 0.0
C245 C 0.28461 0.02618 0.88628 0.0
U246 U 0.23373 0.01953 0.07527 0.0
O247 O 0.21425 0.04323 0.12364 0.0
O248 O 0.2 0.01996 0.05625 0.0
C249 C 0.19694 0.03491 0.10115 0.0
C250 C 0.25943 0.03295 0.98087 0.0
C251 C 0.18084 0.03125 0.1539 0.0
C252 C 0.14447 0.02974 0.18641 0.0
C253 C 0.15982 0.03219 0.1363 0.0
C254 C 0.17094 0.02529 0.27267 0.0
C255 C 0.14979 0.02638 0.25558 0.0
C256 C 0.18623 0.02755 0.22255 0.0
C257 C 0.2677 0.97894 0.15269 0.0
C258 C 0.29468 0.9629 0.2197 0.0
C259 C 0.30184 0.97431 0.10399 0.0
C260 C 0.28139 0.98079 0.09739 0.0
C261 C 0.30889 0.96597 0.16614 0.0
C262 C 0.27424 0.9694 0.213 0.0
C263 C 0.24773 0.98947 0.15123 0.0
O264 O 0.24516 0.01889 0.96845 0.0
O265 O 0.25774 0.04138 0.04212 0.0
O266 O 0.24866 1.009 0.16985 0.0
O267 O 0.23647 0.98627 0.09597 0.0
H268 H 0.29518 0.02833 0.05724 0.0
H269 H 0.33027 0.02353 0.01481 0.0
H270 H 0.307 0.02162 0.80698 0.0
H271 H 0.272 0.02716 0.84985 0.0
H272 H 0.12843 0.03037 0.17071 0.0
H273 H 0.15525 0.03498 0.08373 0.0
H274 H 0.17582 0.02312 0.32523 0.0
H275 H 0.20231 0.02672 0.23782 0.0
H276 H 0.29966 0.95682 0.26858 0.0
H277 H 0.31237 0.9767 0.06166 0.0
H278 H 0.27653 0.98817 0.0504 0.0
H279 H 0.26387 0.96804 0.25627 0.0
C280 C 0.49739 0.28385 0.9596 0.0
C281 C 0.49795 0.30128 1.00311 0.0
C282 C 0.50172 0.32427 0.90468 0.0
C283 C 0.50005 0.32122 0.97601 0.0
C284 C 0.50177 0.30668 0.86165 0.0
C285 C 0.49957 0.28678 0.88878 0.0
U286 U 0.50475 0.23899 0.08807 0.0
O287 O 0.48055 0.21901 0.13074 0.0
O288 O 0.50574 0.20515 0.07148 0.0
C289 C 0.48987 0.20184 0.11208 0.0
C290 C 0.49317 0.26276 0.98596 0.0
C291 C 0.49248 0.18583 0.16604 0.0
C292 C 0.50442 0.15163 0.20063 0.0
C293 C 0.50257 0.16711 0.15094 0.0
C294 C 0.48595 0.17313 0.28158 0.0
C295 C 0.49612 0.1544 0.26675 0.0
C296 C 0.48417 0.18859 0.23208 0.0
C297 C 0.54331 0.27409 0.17909 0.0
C298 C 0.5614 0.29901 0.25049 0.0
C299 C 0.55322 0.30734 0.13254 0.0
C300 C 0.54402 0.28791 0.1241 0.0
C301 C 0.5617 0.31325 0.19628 0.0
C302 C 0.5523 0.2796 0.24185 0.0
C303 C 0.5322 0.25441 0.17317 0.0
O304 O 0.50817 0.24916 0.98067 0.0
O305 O 0.48321 0.26161 0.04448 0.0
O306 O 0.51219 0.25561 0.1836 0.0
O307 O 0.53712 0.2428 0.12012 0.0
H308 H 0.49633 0.29956 0.05803 0.0
H309 H 0.49974 0.33427 1.01104 0.0
H310 H 0.50345 0.30823 0.80674 0.0
H311 H 0.49922 0.27363 0.85408 0.0
H312 H 0.51253 0.13755 0.18731 0.0
H313 H 0.50899 0.1644 0.10045 0.0
H314 H 0.47898 0.17576 0.33127 0.0
H315 H 0.47605 0.20265 0.24566 0.0
H316 H 0.56736 0.30314 0.30065 0.0
H317 H 0.55334 0.31785 0.0896 0.0
H318 H 0.53709 0.28385 0.07521 0.0
H319 H 0.55173 0.26911 0.28487 0.0
Ho320 Ho 0.02637 1.00864 0.76768 0.0
Ho321 Ho 0.9985 0.01917 0.63164 0.0
C322 C 1.00915 0.97113 0.66987 0.0
C323 C 0.03864 1.00293 0.89195 0.0
C324 C 0.03363 0.99096 0.95285 0.0
C325 C 0.01721 0.97681 0.95259 0.0
C326 C 1.01386 0.9643 1.00945 0.0
C327 C 0.02716 0.96551 0.06638 0.0
C328 C 0.04319 0.98014 0.06718 0.0
C329 C 0.04631 0.9929 1.01082 0.0
C330 C 0.05019 0.0174 0.6553 0.0
C331 C 0.01516 0.05661 0.73002 0.0
C332 C 0.98739 0.02665 0.50744 0.0
C333 C 0.99484 0.04045 0.45398 0.0
C334 C 1.01367 0.05086 0.46224 0.0
C335 C 0.01976 0.06565 0.41489 0.0
C336 C 1.00667 0.07094 0.3601 0.0
C337 C 0.98813 0.05983 0.35064 0.0
C338 C 0.98233 0.0446 0.39718 0.0
C339 C 0.97472 1.01061 0.74416 0.0
O340 O 0.01635 0.97662 0.73158 0.0
O341 O 1.00323 0.98475 0.62312 0.0
O342 O 0.04562 0.99233 0.83939 0.0
O343 O 0.0254 0.01728 0.8747 0.0
O344 O 0.05754 1.01276 0.71507 0.0
O345 O 0.03087 0.0175 0.66132 0.0
O346 O 1.00863 0.05109 0.66769 0.0
O347 O 0.02077 0.04296 0.77701 0.0
O348 O 0.97938 0.03602 0.56089 0.0
O349 O 0.9998 1.01149 0.52393 0.0
O350 O 0.96734 0.01545 0.68454 0.0
O351 O 0.99403 1.01031 0.73793 0.0
H352 H 1.00755 0.97489 0.90763 0.0
H353 H 1.00165 0.95281 1.00724 0.0
H354 H 0.0537 0.98119 0.1104 0.0
H355 H 0.05908 1.00376 0.01148 0.0
H356 H 0.02325 0.04821 0.50682 0.0
H357 H 0.03432 0.07359 0.42307 0.0
H358 H 0.97752 0.06367 0.30972 0.0
H359 H 0.96764 0.03676 0.39059 0.0
Ho360 Ho 0.51798 0.02878 0.76037 0.0
Ho361 Ho 0.50856 0.99993 0.64668 0.0
C362 C 0.55571 1.01323 0.66169 0.0
C363 C 0.53129 0.04809 0.86837 0.0
C364 C 0.55098 0.05662 0.8932 0.0
C365 C 0.56969 0.0465 0.8799 0.0
C366 C 0.58813 0.05423 0.90707 0.0
C367 C 0.58823 0.07234 0.94754 0.0
C368 C 0.56949 0.0828 0.95876 0.0
C369 C 0.55102 0.07495 0.93189 0.0
C370 C 0.50455 0.04779 0.64518 0.0
C371 C 0.47119 0.01594 0.74303 0.0
C372 C 0.49575 0.97999 0.53914 0.0
C373 C 0.47761 0.97831 0.49356 0.0
C374 C 0.47278 0.99403 0.44689 0.0
C375 C 0.45636 0.99159 0.40109 0.0
C376 C 0.44439 0.97342 0.40106 0.0
C377 C 0.44924 0.95773 0.44785 0.0
C378 C 0.46575 0.96012 0.49339 0.0
C379 C 0.5215 0.98121 0.76341 0.0
O380 O 0.5504 0.02169 0.72119 0.0
O381 O 0.5417 1.00514 0.62035 0.0
O382 O 0.523 0.05743 0.81609 0.0
O383 O 0.5301 0.02794 0.86339 0.0
O384 O 0.49928 0.05304 0.70689 0.0
O385 O 0.51709 0.03287 0.64751 0.0
O386 O 0.47649 1.01065 0.67965 0.0
O387 O 0.4855 0.02074 0.78872 0.0
O388 O 0.49371 0.97304 0.60149 0.0
O389 O 0.50643 0.99713 0.53679 0.0
O390 O 0.52706 0.97569 0.70225 0.0
O391 O 0.50905 0.99607 0.75923 0.0
H392 H 0.57003 0.03236 0.84984 0.0
H393 H 0.60218 0.04556 0.89825 0.0
H394 H 0.56906 0.09692 0.98886 0.0
H395 H 0.5367 0.08305 0.94211 0.0
H396 H 0.4818 1.00814 0.44503 0.0
H397 H 0.45322 1.00385 0.36507 0.0
H398 H 0.44014 0.94368 0.44982 0.0
H399 H 0.46931 0.94768 0.52831 0.0
Ho400 Ho 0.4947 0.52053 0.75567 0.0
Ho401 Ho 0.51936 0.50713 0.62203 0.0
C402 C 0.50906 0.55594 0.65204 0.0
C403 C 0.48664 0.52947 0.88184 0.0
C404 C 0.49589 0.54302 0.93385 0.0
C405 C 0.51182 0.55663 0.91602 0.0
C406 C 0.52051 0.56971 0.96534 0.0
C407 C 0.51315 0.56962 0.03305 0.0
C408 C 0.49727 0.55581 0.0509 0.0
C409 C 0.48879 0.54248 1.00158 0.0
C410 C 0.46824 0.51227 0.64882 0.0
C411 C 0.50379 0.47154 0.72263 0.0
C412 C 0.53337 0.50105 0.4998 0.0
C413 C 0.54516 0.48543 0.46173 0.0
C414 C 0.53936 0.48084 0.39418 0.0
C415 C 0.54885 0.46473 0.35849 0.0
C416 C 0.56447 0.45294 0.38965 0.0
C417 C 0.57088 0.45822 0.45658 0.0
C418 C 0.56121 0.47426 0.49254 0.0
C419 C 0.5414 0.50944 0.73989 0.0
O420 O 0.50397 0.55175 0.71623 0.0
O421 O 0.5133 0.54122 0.60652 0.0
O422 O 0.47799 0.53884 0.82983 0.0
O423 O 0.49802 0.51368 0.8632 0.0
O424 O 0.46219 0.51776 0.7096 0.0
O425 O 0.48755 0.51111 0.65149 0.0
O426 O 0.50931 0.47576 0.65872 0.0
O427 O 0.49953 0.48621 0.76832 0.0
O428 O 0.54331 0.51176 0.54671 0.0
O429 O 0.51492 0.49524 0.51946 0.0
O430 O 0.54484 0.49608 0.69125 0.0
O431 O 0.52725 0.52172 0.72172 0.0
H432 H 0.51718 0.55742 0.86361 0.0
H433 H 0.53243 0.58048 0.94986 0.0
H434 H 0.49131 0.5555 0.10272 0.0
H435 H 0.47649 0.53199 0.01601 0.0
H436 H 0.52694 0.48927 0.36977 0.0
H437 H 0.54319 0.46091 0.30767 0.0
H438 H 0.58302 0.44963 0.48183 0.0
H439 H 0.5659 0.47757 0.54482 0.0
Ho440 Ho 1.00529 0.50154 0.74977 0.0
Ho441 Ho 0.01632 0.53055 0.61767 0.0
C442 C 0.96846 0.51766 0.65083 0.0
C443 C 0.9981 0.48733 0.87072 0.0
C444 C 0.98352 0.48842 0.92841 0.0
C445 C 0.97941 0.50689 0.96411 0.0
C446 C 0.96529 0.50705 0.01835 0.0
C447 C 0.95507 0.48876 0.03767 0.0
C448 C 0.9596 0.4703 1.00245 0.0
C449 C 0.97373 0.47014 0.94877 0.0
C450 C 0.01472 0.47882 0.63406 0.0
C451 C 0.05335 0.51275 0.71403 0.0
C452 C 0.02294 0.54295 0.49436 0.0
C453 C 0.0342 0.5359 0.43381 0.0
C454 C 0.048 0.51932 0.4379 0.0
C455 C 0.05992 0.51387 0.38118 0.0
C456 C 0.05836 0.52512 0.31997 0.0
C457 C 0.04381 0.54113 0.31529 0.0
C458 C 0.03175 0.54644 0.37192 0.0
C459 C 1.00691 0.55374 0.73186 0.0
O460 O 0.97344 0.51114 0.71334 0.0
O461 O 0.98245 0.52358 0.60535 0.0
O462 O 0.99097 0.47881 0.81431 0.0
O463 O 1.01024 0.5032 0.85945 0.0
O464 O 1.00972 0.47093 0.69256 0.0
O465 O 0.01482 0.49806 0.64317 0.0
O466 O 0.04803 0.52004 0.65275 0.0
O467 O 0.03959 0.50669 0.76025 0.0
O468 O 0.03434 0.54857 0.54698 0.0
O469 O 1.00694 0.53172 0.51157 0.0
O470 O 1.01185 0.56136 0.67283 0.0
O471 O 1.00696 0.53438 0.72453 0.0
H472 H 0.98693 0.52119 0.95004 0.0
H473 H 0.96228 0.5215 0.04482 0.0
H474 H 0.95176 0.45601 0.01476 0.0
H475 H 0.9768 0.45568 0.92232 0.0
H476 H 0.05009 0.5111 0.48561 0.0
H477 H 0.07126 0.50169 0.38661 0.0
H478 H 0.04233 0.55001 0.26867 0.0
H479 H 0.02103 0.55922 0.36811 0.0
H480 H 0.15036 1.00169 0.36983 0.0
H481 H 0.11203 0.04621 0.26546 0.0
H482 H 0.12541 1.00021 0.46268 0.0
H483 H 0.08665 0.04401 0.35792 0.0
H484 H 0.03881 0.01538 0.51852 0.0
H485 H 0.06161 0.01793 0.41818 0.0
H486 H 0.114 0.02597 0.55306 0.0
H487 H 0.09125 0.02419 0.65203 0.0
C488 C 0.13669 1.01124 0.36648 0.0
C489 C 0.13353 0.02432 0.31002 0.0
C490 C 0.12228 1.01028 0.41977 0.0
C491 C 0.10411 0.02213 0.41804 0.0
C492 C 0.10045 0.03461 0.36062 0.0
C493 C 0.11502 0.03579 0.30747 0.0
C494 C 0.05506 0.01833 0.52636 0.0
C495 C 0.06311 0.02002 0.59308 0.0
C496 C 0.06817 0.01958 0.46905 0.0
C497 C 0.08967 0.02201 0.47766 0.0
C498 C 0.09759 0.02383 0.54454 0.0
C499 C 0.0845 0.0229 0.6013 0.0
H500 H 0.5028 0.15921 0.40502 0.0
H501 H 0.4935 0.11205 0.24998 0.0
H502 H 0.50414 0.13274 0.49274 0.0
H503 H 0.49516 0.08546 0.33819 0.0
H504 H 0.52064 0.04376 0.51535 0.0
H505 H 0.51875 0.06886 0.42184 0.0
H506 H 0.48074 0.10848 0.54807 0.0
H507 H 0.48279 0.08363 0.64099 0.0
C508 C 0.50088 0.14322 0.38949 0.0
C509 C 0.49784 0.13791 0.32009 0.0
C510 C 0.50168 0.12798 0.44 0.0
C511 C 0.49957 0.10692 0.4228 0.0
C512 C 0.497 0.1015 0.3533 0.0
C513 C 0.49609 0.11679 0.30264 0.0
C514 C 0.51176 0.05777 0.52272 0.0
C515 C 0.50201 0.06179 0.58576 0.0
C516 C 0.51062 0.07213 0.46913 0.0
C517 C 0.49982 0.09086 0.47763 0.0
C518 C 0.48956 0.09446 0.54008 0.0
C519 C 0.49062 0.08012 0.59329 0.0
H520 H 0.3677 0.52801 0.35755 0.0
H521 H 0.40758 0.48418 0.25534 0.0
H522 H 0.39129 0.52908 0.45491 0.0
H523 H 0.43128 0.48539 0.35274 0.0
H524 H 0.47899 0.50978 0.51257 0.0
H525 H 0.45589 0.50766 0.41321 0.0
H526 H 0.40322 0.50818 0.54877 0.0
H527 H 0.42636 0.51031 0.64739 0.0
C528 C 0.38139 0.51843 0.35592 0.0
C529 C 0.38558 0.50596 0.29819 0.0
C530 C 0.39499 0.51906 0.41197 0.0
C531 C 0.41325 0.50726 0.41214 0.0
C532 C 0.41754 0.4949 0.35426 0.0
C533 C 0.4039 0.49423 0.29821 0.0
C534 C 0.46253 0.50903 0.52102 0.0
C535 C 0.45457 0.50993 0.58787 0.0
C536 C 0.44922 0.5079 0.46406 0.0
C537 C 0.42759 0.50781 0.47263 0.0
C538 C 0.41972 0.50854 0.53982 0.0
C539 C 0.43302 0.50961 0.59652 0.0
H540 H 0.04166 0.42004 0.23298 0.0
H541 H 0.99678 0.38159 0.33506 0.0
H542 H 0.0407 0.44451 0.32931 0.0
H543 H 0.99609 0.40576 0.43096 0.0
H544 H 0.01804 0.43746 0.62449 0.0
H545 H 0.01962 0.41573 0.52274 0.0
H546 H 0.01854 0.46999 0.39524 0.0
H547 H 0.01681 0.49194 0.49885 0.0
C548 C 0.03143 0.41684 0.27544 0.0
C549 C 0.01949 0.39855 0.27611 0.0
C550 C 0.03091 0.43092 0.33081 0.0
C551 C 0.01853 0.42704 0.38855 0.0
C552 C 1.00619 0.40908 0.38823 0.0
C553 C 1.00664 0.39511 0.33304 0.0
C554 C 0.01823 0.44486 0.57485 0.0
C555 C 0.01734 0.4665 0.56988 0.0
C556 C 0.019 0.43233 0.51627 0.0
C557 C 0.0189 0.44099 0.4504 0.0
C558 C 0.01868 0.46275 0.4451 0.0
C559 C 0.01777 0.47537 0.50435 0.0
H560 H 0.87964 0.03009 0.04731 0.0
H561 H 0.91083 0.97599 0.12426 0.0
H562 H 0.90445 0.03218 0.95418 0.0
H563 H 0.93606 0.97851 0.03141 0.0
H564 H 0.98707 1.0039 0.87815 0.0
H565 H 0.96475 1.00146 0.97999 0.0
H566 H 0.91113 1.01024 0.85149 0.0
H567 H 0.9332 1.01236 0.75128 0.0
C568 C 0.89172 0.01858 0.04448 0.0
C569 C 0.8929 1.00268 0.09321 0.0
C570 C 0.90606 0.01985 0.99108 0.0
C571 C 0.92215 1.00539 0.98485 0.0
C572 C 0.92393 0.98996 0.03492 0.0
C573 C 0.90943 0.98857 0.08826 0.0
C574 C 0.97053 1.00505 0.87203 0.0
C575 C 0.96195 1.00826 0.8068 0.0
C576 C 0.95773 1.0037 0.93016 0.0
C577 C 0.93613 1.00589 0.924 0.0
C578 C 0.92768 1.00885 0.85843 0.0
C579 C 0.94038 1.00995 0.80081 0.0
H580 H 0.55151 0.88748 0.0717 0.0
H581 H 0.48826 0.90518 0.10971 0.0
H582 H 0.55373 0.91315 0.98095 0.0
H583 H 0.4904 0.93069 0.01893 0.0
H584 H 0.505 0.98706 0.89104 0.0
H585 H 0.50535 0.96312 0.98735 0.0
H586 H 0.54153 0.92006 0.8675 0.0
H587 H 0.54159 0.94425 0.77217 0.0
C588 C 0.53803 0.89674 0.06047 0.0
C589 C 0.51972 0.89421 0.09833 0.0
C590 C 0.53929 0.9115 1.00832 0.0
C591 C 0.52227 0.92413 0.99237 0.0
C592 C 0.50399 0.9216 0.03042 0.0
C593 C 0.50274 0.90689 0.08259 0.0
C594 C 0.51321 0.97256 0.88564 0.0
C595 C 0.52319 0.96751 0.8239 0.0
C596 C 0.51327 0.95873 0.94066 0.0
C597 C 0.52331 0.93948 0.93533 0.0
C598 C 0.53381 0.93476 0.87403 0.0
C599 C 0.53376 0.94861 0.81911 0.0
H600 H 0.63697 0.55355 0.01778 0.0
H601 H 0.62125 0.49373 0.09955 0.0
H602 H 0.60981 0.54976 0.93155 0.0
H603 H 0.59376 0.49015 0.0143 0.0
H604 H 0.56623 0.48047 0.79667 0.0
H605 H 0.59082 0.48468 0.89081 0.0
H606 H 0.57217 0.54839 0.9147 0.0
H607 H 0.54793 0.54416 0.81878 0.0
C608 C 0.62773 0.53957 0.01745 0.0
C609 C 0.63147 0.52388 0.06555 0.0
C610 C 0.61195 0.53751 0.96843 0.0
C611 C 0.59953 0.51963 0.9657 0.0
C612 C 0.60311 0.50405 0.01433 0.0
C613 C 0.61879 0.50618 0.06369 0.0
C614 C 0.56726 0.49532 0.82246 0.0
C615 C 0.55497 0.51193 0.80087 0.0
C616 C 0.58128 0.49772 0.87678 0.0
C617 C 0.58355 0.51688 0.91066 0.0
C618 C 0.57098 0.53345 0.88958 0.0
C619 C 0.55685 0.53098 0.83534 0.0
H620 H 0.02292 0.65418 0.02193 0.0
H621 H 0.98272 0.61311 0.13356 0.0
H622 H 0.02329 0.62994 0.92612 0.0
H623 H 0.98316 0.58872 0.03726 0.0
H624 H 1.00568 0.54178 0.86811 0.0
H625 H 1.0043 0.56443 0.96977 0.0
H626 H 1.0007 0.6176 0.83775 0.0
H627 H 1.00231 0.5951 0.73784 0.0
C628 C 0.01398 0.64007 0.026 0.0
C629 C 1.00265 0.63584 0.08577 0.0
C630 C 0.0142 0.62608 0.9708 0.0
C631 C 1.00308 0.60735 0.97325 0.0
C632 C 0.99206 0.60286 0.0335 0.0
C633 C 0.99182 0.61691 0.08888 0.0
C634 C 1.00431 0.55824 0.86124 0.0
C635 C 1.00413 0.56655 0.79495 0.0
C636 C 1.00356 0.5713 0.91939 0.0
C637 C 1.0027 0.59299 0.91233 0.0
C638 C 1.00188 0.6011 0.84569 0.0
C639 C 1.00263 0.58812 0.78814 0.0
H640 H 0.03974 0.19342 0.22245 0.0
H641 H 0.97773 0.18115 0.15069 0.0
H642 H 0.04408 0.15694 0.24944 0.0
H643 H 0.98192 0.14455 0.17876 0.0
H644 H 0.99895 0.07761 0.22285 0.0
H645 H 1.00135 0.11058 0.16233 0.0
H646 H 0.02623 0.13939 0.34515 0.0
H647 H 0.02326 0.1072 0.40573 0.0
C648 C 0.02714 0.1828 0.21181 0.0
C649 C 1.00824 0.19002 0.18623 0.0
C650 C 0.02965 0.16198 0.22686 0.0
C651 C 1.01323 0.14805 0.21711 0.0
C652 C 0.99486 0.15497 0.18639 0.0
C653 C 0.9924 0.17588 0.17083 0.0
C654 C 1.00509 0.09097 0.2498 0.0
C655 C 1.01093 0.0897 0.3192 0.0
C656 C 1.00652 0.10976 0.21507 0.0
C657 C 0.01409 0.12745 0.24898 0.0
C658 C 0.02077 0.12591 0.31718 0.0
C659 C 0.01912 0.10733 0.35193 0.0
H660 H 0.32823 0.93464 0.23492 0.0
H661 H 0.34011 0.99186 0.12879 0.0
H662 H 0.36346 0.93514 0.27981 0.0
H663 H 0.37541 0.99194 0.17174 0.0
H664 H 0.4163 1.00279 0.36513 0.0
H665 H 0.38616 0.99877 0.2919 0.0
H666 H 0.40157 0.93462 0.2572 0.0
H667 H 0.43216 0.93872 0.32992 0.0
C668 C 0.33852 0.94702 0.2198 0.0
C669 C 0.33129 0.96337 0.17929 0.0
C670 C 0.35873 0.94721 0.24499 0.0
C671 C 0.37202 0.96378 0.23013 0.0
C672 C 0.36535 0.97916 0.18484 0.0
C673 C 0.34518 0.97897 0.15964 0.0
C674 C 0.41357 0.98794 0.34076 0.0
C675 C 0.42662 0.97108 0.3535 0.0
C676 C 0.3963 0.98564 0.29865 0.0
C677 C 0.3916 0.9664 0.26852 0.0
C678 C 0.4048 0.94959 0.2801 0.0
C679 C 0.42221 0.95193 0.322 0.0
H680 H 0.54474 0.34906 0.14858 0.0
H681 H 0.59489 0.3262 0.27349 0.0
H682 H 0.55238 0.38408 0.18653 0.0
H683 H 0.60214 0.36141 0.31289 0.0
H684 H 0.57343 0.41574 0.44807 0.0
H685 H 0.57939 0.38304 0.39001 0.0
H686 H 0.57793 0.41374 0.19436 0.0
H687 H 0.5726 0.44685 0.25264 0.0
C688 C 0.55781 0.35153 0.18246 0.0
C689 C 0.56899 0.33475 0.20885 0.0
C690 C 0.56219 0.37166 0.20424 0.0
C691 C 0.57772 0.37542 0.25318 0.0
C692 C 0.5899 0.35887 0.27575 0.0
C693 C 0.58566 0.33874 0.25348 0.0
C694 C 0.57517 0.41577 0.39289 0.0
C695 C 0.57222 0.43394 0.35504 0.0
C696 C 0.57857 0.39695 0.35954 0.0
C697 C 0.57892 0.39584 0.28765 0.0
C698 C 0.57747 0.41417 0.24985 0.0
C699 C 0.5743 0.43307 0.28327 0.0
H700 H 0.17157 0.54065 0.09327 0.0
H701 H 0.17535 0.48739 0.22514 0.0
H702 H 0.13408 0.54027 0.10358 0.0
H703 H 0.13822 0.48789 0.23938 0.0
H704 H 0.07209 0.48885 0.26323 0.0
H705 H 0.10401 0.48417 0.19837 0.0
H706 H 0.11263 0.55048 0.19533 0.0
H707 H 0.08066 0.55501 0.25753 0.0
C708 C 0.16441 0.5287 0.12375 0.0
C709 C 0.17648 0.51434 0.15974 0.0
C710 C 0.14292 0.52857 0.13005 0.0
C711 C 0.1331 0.51424 0.17304 0.0
C712 C 0.14513 0.49907 0.20531 0.0
C713 C 0.16654 0.49905 0.19839 0.0
C714 C 0.08056 0.50237 0.24663 0.0
C715 C 0.07413 0.52226 0.26619 0.0
C716 C 0.09886 0.49973 0.20983 0.0
C717 C 0.11116 0.51692 0.19309 0.0
C718 C 0.10356 0.53687 0.20681 0.0
C719 C 0.08518 0.5395 0.24278 0.0
H720 H 0.9856 0.85138 0.19681 0.0
H721 H 0.04765 0.85041 0.27761 0.0
H722 H 0.98829 0.88832 0.17854 0.0
H723 H 0.05013 0.88787 0.26385 0.0
H724 H 0.05816 0.94049 0.10617 0.0
H725 H 0.05505 0.9087 0.1699 0.0
H726 H 0.99084 0.92259 0.21143 0.0
H727 H 0.99389 0.95395 0.14314 0.0
C728 C 0.99961 0.85932 0.2126 0.0
C729 C 0.01654 0.84821 0.23745 0.0
C730 C 1.00113 0.88057 0.20288 0.0
C731 C 0.01954 0.8912 0.21903 0.0
C732 C 0.03591 0.88016 0.24915 0.0
C733 C 0.03453 0.85877 0.25734 0.0
C734 C 0.04355 0.93699 0.1306 0.0
C735 C 0.02618 0.94941 0.11921 0.0
C736 C 0.04174 0.91877 0.16764 0.0
C737 C 0.02256 0.91276 0.19499 0.0
C738 C 1.00569 0.92638 0.18933 0.0
C739 C 1.00742 0.94441 0.15082 0.0
H740 H 0.71625 0.08876 0.07123 0.0
H741 H 0.68217 0.06437 0.24303 0.0
H742 H 0.68399 0.09781 0.0152 0.0
H743 H 0.64996 0.07197 0.18485 0.0
H744 H 0.59293 0.08817 0.07737 0.0
H745 H 0.62509 0.09451 0.1388 0.0
H746 H 0.6595 0.07704 0.95775 0.0
H747 H 0.62744 0.07217 0.89521 0.0
C748 C 0.70191 0.08571 0.09782 0.0
C749 C 0.70181 0.07545 0.16115 0.0
C750 C 0.68337 0.09064 0.06515 0.0
C751 C 0.66434 0.0852 0.09462 0.0
C752 C 0.66427 0.07648 0.16046 0.0
C753 C 0.68279 0.0718 0.19351 0.0
C754 C 0.60735 0.08635 0.04997 0.0
C755 C 0.6076 0.0793 0.98162 0.0
C756 C 0.62582 0.08974 0.08554 0.0
C757 C 0.64493 0.08594 0.05377 0.0
C758 C 0.64514 0.08027 0.98401 0.0
C759 C 0.6267 0.07712 0.94829 0.0
H760 H 0.56896 0.68247 0.12377 0.0
H761 H 0.52451 0.6794 0.28837 0.0
H762 H 0.56317 0.64616 0.09845 0.0
H763 H 0.51969 0.64265 0.26596 0.0
H764 H 0.49006 0.59478 0.11422 0.0
H765 H 0.50169 0.62534 0.17618 0.0
H766 H 0.56504 0.61059 0.12576 0.0
H767 H 0.55315 0.58022 0.06166 0.0
C768 C 0.55828 0.67392 0.15552 0.0
C769 C 0.54687 0.68396 0.20702 0.0
C770 C 0.55518 0.65297 0.14174 0.0
C771 C 0.54074 0.64149 0.17964 0.0
C772 C 0.53062 0.65113 0.23494 0.0
C773 C 0.53358 0.67217 0.24831 0.0
C774 C 0.50651 0.59775 0.11806 0.0
C775 C 0.52069 0.58536 0.08242 0.0
C776 C 0.51323 0.61527 0.15386 0.0
C777 C 0.53432 0.62063 0.15519 0.0
C778 C 0.54865 0.60717 0.12439 0.0
C779 C 0.54189 0.58977 0.08792 0.0
H780 H 0.84281 0.50882 0.2755 0.0
H781 H 0.8418 0.44824 0.1811 0.0
H782 H 0.8796 0.51201 0.24956 0.0
H783 H 0.87855 0.45146 0.15492 0.0
H784 H 0.94671 0.45942 0.13473 0.0
H785 H 0.91527 0.45636 0.20299 0.0
H786 H 0.89474 0.51557 0.12883 0.0
H787 H 0.92565 0.51839 0.0589 0.0
C788 C 0.85061 0.49593 0.25113 0.0
C789 C 0.83948 0.47833 0.22971 0.0
C790 C 0.87159 0.49783 0.23597 0.0
C791 C 0.88182 0.48205 0.1999 0.0
C792 C 0.87106 0.46379 0.18326 0.0
C793 C 0.85002 0.462 0.19769 0.0
C794 C 0.93558 0.4719 0.13353 0.0
C795 C 0.9385 0.48896 0.09021 0.0
C796 C 0.91769 0.47017 0.17294 0.0
C797 C 0.90256 0.48564 0.17067 0.0
C798 C 0.90627 0.5035 0.13202 0.0
C799 C 0.92402 0.50512 0.09195 0.0
H800 H 0.04623 0.17742 0.91227 0.0
H801 H 0.99124 0.18932 0.79341 0.0
H802 H 0.04545 0.14142 0.87517 0.0
H803 H 0.99046 0.15326 0.75627 0.0
H804 H 1.00559 0.09092 0.65194 0.0
H805 H 1.00681 0.12736 0.68634 0.0
H806 H 0.02747 0.10974 0.88818 0.0
H807 H 0.02669 0.07363 0.85363 0.0
C808 C 0.03381 0.17239 0.87881 0.0
C809 C 0.0188 0.18655 0.85619 0.0
C810 C 0.03337 0.1516 0.8573 0.0
C811 C 0.01788 0.14416 0.81241 0.0
C812 C 1.00286 0.15832 0.78979 0.0
C813 C 1.0033 0.17912 0.81131 0.0
C814 C 1.01047 0.09481 0.70358 0.0
C815 C 0.01609 0.07911 0.74966 0.0
C816 C 1.01105 0.11579 0.7236 0.0
C817 C 0.01729 0.12175 0.79029 0.0
C818 C 0.02292 0.106 0.8361 0.0
C819 C 0.02234 0.08511 0.81619 0.0
H820 H 0.35456 1.00119 0.9639 0.0
H821 H 0.33857 0.03882 0.78962 0.0
H822 H 0.39003 0.99905 0.92283 0.0
H823 H 0.37396 0.03626 0.74807 0.0
H824 H 0.43612 1.01156 0.66307 0.0
H825 H 0.4 1.01215 0.70063 0.0
H826 H 0.42008 0.02161 0.90968 0.0
H827 H 0.45591 0.02091 0.87258 0.0
C828 C 0.35853 1.0091 0.917 0.0
C829 C 0.34346 0.02025 0.8805 0.0
C830 C 0.37895 1.00781 0.89327 0.0
C831 C 0.38498 0.01751 0.83204 0.0
C832 C 0.36989 0.02835 0.79487 0.0
C833 C 0.34949 0.02977 0.81883 0.0
C834 C 0.43282 1.01374 0.71703 0.0
C835 C 0.44904 0.01622 0.7646 0.0
C836 C 0.41208 0.01417 0.73859 0.0
C837 C 0.40703 0.01686 0.80837 0.0
C838 C 0.42329 0.01922 0.85574 0.0
C839 C 0.44392 0.01897 0.83422 0.0
H840 H 0.48463 0.33858 0.7844 0.0
H841 H 0.52131 0.35878 0.95784 0.0
H842 H 0.48567 0.37348 0.73822 0.0
H843 H 0.52192 0.39373 0.91217 0.0
H844 H 0.49772 0.45761 0.85311 0.0
H845 H 0.49778 0.42228 0.89423 0.0
H846 H 0.50902 0.39998 0.68865 0.0
H847 H 0.50885 0.43562 0.64684 0.0
C848 C 0.49314 0.35033 0.81246 0.0
C849 C 0.50285 0.34565 0.87526 0.0
C850 C 0.49368 0.37043 0.78586 0.0
C851 C 0.50379 0.38652 0.82148 0.0
C852 C 0.51369 0.38183 0.8838 0.0
C853 C 0.51328 0.36172 0.91016 0.0
C854 C 0.50015 0.44526 0.81624 0.0
C855 C 0.50326 0.44962 0.74636 0.0
C856 C 0.50035 0.42492 0.84015 0.0
C857 C 0.50354 0.4082 0.79501 0.0
C858 C 0.50639 0.41246 0.72489 0.0
C859 C 0.50636 0.43291 0.70091 0.0
H860 H 0.18431 0.53752 0.80065 0.0
H861 H 0.17413 0.4756 0.87491 0.0
H862 H 0.14853 0.53892 0.76131 0.0
H863 H 0.13837 0.47716 0.83644 0.0
H864 H 0.07016 0.49569 0.82957 0.0
H865 H 0.1062 0.49408 0.86393 0.0
H866 H 0.12392 0.52477 0.67728 0.0
H867 H 0.08756 0.52665 0.64288 0.0
C868 C 0.17457 0.5241 0.80816 0.0
C869 C 0.18235 0.50645 0.84141 0.0
C870 C 0.15396 0.52493 0.7855 0.0
C871 C 0.14039 0.50819 0.79565 0.0
C872 C 0.14817 0.49052 0.82859 0.0
C873 C 0.16878 0.48965 0.85095 0.0
C874 C 0.08165 0.50209 0.79543 0.0
C875 C 0.07575 0.51131 0.73318 0.0
C876 C 0.10246 0.50104 0.81515 0.0
C877 C 0.11815 0.50923 0.7735 0.0
C878 C 0.11231 0.51846 0.71112 0.0
C879 C 0.09141 0.51941 0.69111 0.0
H880 H 0.9701 0.84892 0.5197 0.0
H881 H 0.03539 0.84195 0.55812 0.0
H882 H 0.9718 0.88456 0.56138 0.0
H883 H 0.03713 0.87778 0.59934 0.0
H884 H 0.02706 0.93724 0.73236 0.0
H885 H 0.02536 0.9009 0.69558 0.0
H886 H 0.98627 0.91793 0.52581 0.0
H887 H 0.98791 0.95393 0.56211 0.0
C888 C 0.98483 0.85494 0.53727 0.0
C889 C 1.0026 0.84242 0.53538 0.0
C890 C 0.98584 0.8755 0.56078 0.0
C891 C 1.00461 0.88418 0.58393 0.0
C892 C 0.02237 0.87163 0.58259 0.0
C893 C 0.02141 0.85112 0.55821 0.0
C894 C 0.018 0.93321 0.68744 0.0
C895 C 1.00763 0.94868 0.65046 0.0
C896 C 0.01715 0.91236 0.666 0.0
C897 C 1.00565 0.90636 0.6076 0.0
C898 C 0.9951 0.92182 0.57137 0.0
C899 C 0.99614 0.94259 0.59218 0.0
H900 H 0.68999 0.99951 0.62372 0.0
H901 H 0.66987 0.01819 0.42239 0.0
H902 H 0.65457 1.00226 0.66544 0.0
H903 H 0.63457 0.02155 0.46464 0.0
H904 H 0.57113 0.99972 0.53897 0.0
H905 H 0.60675 0.99916 0.50031 0.0
H906 H 0.62641 0.02607 0.6929 0.0
H907 H 0.5905 0.02643 0.73234 0.0
C908 C 0.67804 1.00427 0.58828 0.0
C909 C 0.68289 1.00845 0.51935 0.0
C910 C 0.65771 1.00607 0.61252 0.0
C911 C 0.64156 1.01203 0.56852 0.0
C912 C 0.64649 0.01665 0.49996 0.0
C913 C 0.66684 0.01494 0.4758 0.0
C914 C 0.58296 1.00556 0.5734 0.0
C915 C 0.57778 1.0131 0.63906 0.0
C916 C 0.60349 1.00538 0.55081 0.0
C917 C 0.6196 1.01267 0.59311 0.0
C918 C 0.61448 0.02017 0.65898 0.0
C919 C 0.59384 0.02046 0.68157 0.0
H920 H 0.51101 0.66967 0.41233 0.0
H921 H 0.5139 0.69114 0.62239 0.0
H922 H 0.50981 0.63418 0.45168 0.0
H923 H 0.5143 0.65562 0.66153 0.0
H924 H 0.49361 0.59042 0.71705 0.0
H925 H 0.49435 0.6261 0.67795 0.0
H926 H 0.5285 0.60707 0.49815 0.0
H927 H 0.52688 0.57138 0.53584 0.0
C928 C 0.51145 0.66691 0.46697 0.0
C929 C 0.51247 0.68354 0.51389 0.0
C930 C 0.51109 0.64639 0.48969 0.0
C931 C 0.51197 0.64175 0.56013 0.0
C932 C 0.51326 0.65838 0.60698 0.0
C933 C 0.5134 0.6789 0.58429 0.0
C934 C 0.50129 0.59386 0.66918 0.0
C935 C 0.51011 0.57793 0.62959 0.0
C936 C 0.50184 0.61443 0.64678 0.0
C937 C 0.51148 0.61974 0.58451 0.0
C938 C 0.52054 0.60375 0.54555 0.0
C939 C 0.51975 0.58317 0.56751 0.0
H940 H 0.85364 0.50908 0.41511 0.0
H941 H 0.83504 0.53836 0.60478 0.0
H942 H 0.88876 0.50599 0.45889 0.0
H943 H 0.87019 0.53506 0.64877 0.0
H944 H 0.93309 0.50991 0.72659 0.0
H945 H 0.89709 0.51095 0.68708 0.0
H946 H 0.91778 0.52809 0.48509 0.0
H947 H 0.95335 0.52683 0.52367 0.0
C948 C 0.857 0.51498 0.46603 0.0
C949 C 0.84134 0.52412 0.50596 0.0
C950 C 0.87722 0.51316 0.49131 0.0
C951 C 0.88248 0.52038 0.55744 0.0
C952 C 0.86675 0.5291 0.598 0.0
C953 C 0.84651 0.53098 0.57262 0.0
C954 C 0.92994 0.51387 0.67375 0.0
C955 C 0.9463 0.51827 0.62861 0.0
C956 C 0.90927 0.51456 0.6511 0.0
C957 C 0.90441 0.5195 0.5826 0.0
C958 C 0.9208 0.52388 0.53779 0.0
C959 C 0.94133 0.5233 0.56035 0.0
loop_
_geom_bond_atom_site_label_1
_geom_bond_atom_site_label_2
_geom_bond_distance
_geom_bond_site_symmetry_2
_ccdc_geom_bond_type
C0 C1 1.264 . S
C0 C5 1.479 . S
C0 C10 1.465 . S
C1 C0 1.264 . S
C1 C3 1.339 . S
C1 H28 0.931 . S
C2 C3 1.395 . S
C2 C4 1.320 . S
C3 C1 1.339 . S
C3 C2 1.395 . S
C3 H29 0.929 . S
C4 C2 1.320 . S
C4 C5 1.405 . S
C4 H30 0.930 . S
C5 C0 1.479 . S
C5 C4 1.405 . S
C5 H31 0.931 . S
U6 O7 2.454 . S
U6 O8 2.458 . S
U6 C9 2.984 . S
U6 C10 2.847 . S
U6 C23 2.882 . S
U6 O24 2.441 . S
U6 O25 2.420 . S
U6 O26 2.455 . S
U6 O27 2.449 . S
O7 U6 2.454 . S
O7 C9 1.353 . S
O8 U6 2.458 . S
O8 C9 1.286 . S
C9 U6 2.984 . S
C9 O7 1.353 . S
C9 O8 1.286 . S
C9 C11 1.363 . S
C10 C0 1.465 . S
C10 U6 2.847 . S
C10 O24 1.249 . S
C10 O25 1.202 . S
C11 C9 1.363 . S
C11 C13 1.408 . S
C11 C16 1.342 . S
C12 C13 1.310 . S
C12 C15 1.461 . S
C12 H32 0.932 . S
C13 C11 1.408 . S
C13 C12 1.310 . S
C13 H33 0.930 . S
C14 C15 1.474 . S
C14 C16 1.285 . S
C14 H34 0.929 . S
C15 C12 1.461 . S
C15 C14 1.474 . S
C16 C11 1.342 . S
C16 C14 1.285 . S
C16 H35 0.930 . S
C17 C20 1.424 . S
C17 C22 1.245 . S
C17 C23 1.428 . S
C18 C21 1.260 . S
C18 C22 1.477 . S
C18 H36 0.932 . S
C19 C20 1.384 . S
C19 C21 1.479 . S
C19 H37 0.929 . S
C20 C17 1.424 . S
C20 C19 1.384 . S
C20 H38 0.928 . S
C21 C18 1.260 . S
C21 C19 1.479 . S
C22 C17 1.245 . S
C22 C18 1.477 . S
C22 H39 0.932 . S
C23 U6 2.882 . S
C23 C17 1.428 . S
C23 O26 1.301 . S
C23 O27 1.282 . S
O24 U6 2.441 . S
O24 C10 1.249 . S
O25 U6 2.420 . S
O25 C10 1.202 . S
O26 U6 2.455 . S
O26 C23 1.301 . S
O27 U6 2.449 . S
O27 C23 1.282 . S
H28 C1 0.931 . S
H29 C3 0.929 . S
H30 C4 0.930 . S
H31 C5 0.931 . S
H32 C12 0.932 . S
H33 C13 0.930 . S
H34 C14 0.929 . S
H35 C16 0.930 . S
H36 C18 0.932 . S
H37 C19 0.929 . S
H38 C20 0.928 . S
H39 C22 0.932 . S
C40 C41 1.264 . S
C40 C45 1.479 . S
C40 C50 1.465 . S
C41 C40 1.264 . S
C41 C43 1.339 . S
C41 H68 0.931 . S
C42 C43 1.408 . S
C42 C44 1.320 . S
C43 C41 1.339 . S
C43 C42 1.408 . S
C43 H69 0.929 . S
C44 C42 1.320 . S
C44 C45 1.415 . S
C44 H70 0.921 1_455 S
C45 C40 1.479 . S
C45 C44 1.415 . S
C45 H71 0.931 . S
U46 O47 2.454 . S
U46 O48 2.458 . S
U46 C49 2.984 . S
U46 C50 2.847 . S
U46 C63 2.882 . S
U46 O64 2.441 . S
U46 O65 2.420 . S
U46 O66 2.455 . S
U46 O67 2.449 . S
O47 U46 2.454 . S
O47 C49 1.353 . S
O48 U46 2.458 . S
O48 C49 1.286 . S
C49 U46 2.984 . S
C49 O47 1.353 . S
C49 O48 1.286 . S
C49 C51 1.363 . S
C50 C40 1.465 . S
C50 U46 2.847 . S
C50 O64 1.249 . S
C50 O65 1.202 . S
C51 C49 1.363 . S
C51 C53 1.408 . S
C51 C56 1.341 1_455 S
C52 C53 1.310 . S
C52 C55 1.461 1_455 S
C52 H72 0.932 1_455 S
C53 C51 1.408 . S
C53 C52 1.310 . S
C53 H73 0.930 . S
C54 C55 1.474 . S
C54 C56 1.286 . S
C54 H74 0.929 . S
C55 C52 1.461 1_655 S
C55 C54 1.474 . S
C56 C51 1.341 1_655 S
C56 C54 1.286 . S
C56 H75 0.929 . S
C57 C60 1.424 . S
C57 C62 1.245 . S
C57 C63 1.428 . S
C58 C61 1.260 . S
C58 C62 1.477 . S
C58 H76 0.932 . S
C59 C60 1.384 . S
C59 C61 1.479 . S
C59 H77 0.929 . S
C60 C57 1.424 . S
C60 C59 1.384 . S
C60 H78 0.928 . S
C61 C58 1.260 . S
C61 C59 1.479 . S
C62 C57 1.245 . S
C62 C58 1.477 . S
C62 H79 0.932 . S
C63 U46 2.882 . S
C63 C57 1.428 . S
C63 O66 1.301 . S
C63 O67 1.282 . S
O64 U46 2.441 . S
O64 C50 1.249 . S
O65 U46 2.420 . S
O65 C50 1.202 . S
O66 U46 2.455 . S
O66 C63 1.301 . S
O67 U46 2.449 . S
O67 C63 1.282 . S
H68 C41 0.931 . S
H69 C43 0.929 . S
H70 C44 0.921 1_655 S
H71 C45 0.931 . S
H72 C52 0.932 1_655 S
H73 C53 0.930 . S
H74 C54 0.929 . S
H75 C56 0.929 . S
H76 C58 0.932 . S
H77 C59 0.929 . S
H78 C60 0.928 . S
H79 C62 0.932 . S
C80 C81 1.264 . S
C80 C85 1.479 . S
C80 C90 1.465 . S
C81 C80 1.264 . S
C81 C83 1.339 . S
C81 H108 0.931 . S
C82 C83 1.395 . S
C82 C84 1.320 . S
C83 C81 1.339 . S
C83 C82 1.395 . S
C83 H109 0.929 . S
C84 C82 1.320 . S
C84 C85 1.405 . S
C84 H110 0.930 1_545 S
C85 C80 1.479 . S
C85 C84 1.405 . S
C85 H111 0.931 . S
U86 O87 2.454 . S
U86 O88 2.458 . S
U86 C89 2.984 . S
U86 C90 2.847 . S
U86 C103 2.882 . S
U86 O104 2.441 . S
U86 O105 2.420 . S
U86 O106 2.455 . S
U86 O107 2.449 . S
O87 U86 2.454 . S
O87 C89 1.353 . S
O88 U86 2.458 . S
O88 C89 1.286 . S
C89 U86 2.984 . S
C89 O87 1.353 . S
C89 O88 1.286 . S
C89 C91 1.363 . S
C90 C80 1.465 . S
C90 U86 2.847 . S
C90 O104 1.249 . S
C90 O105 1.202 . S
C91 C89 1.363 . S
C91 C93 1.408 . S
C91 C96 1.343 . S
C92 C93 1.313 . S
C92 C95 1.458 1_545 S
C92 H112 0.932 . S
C93 C91 1.408 . S
C93 C92 1.313 . S
C93 H113 0.930 . S
C94 C95 1.476 . S
C94 C96 1.285 1_565 S
C94 H114 0.929 . S
C95 C92 1.458 1_565 S
C95 C94 1.476 . S
C96 C91 1.343 . S
C96 C94 1.285 1_545 S
C96 H115 0.929 1_545 S
C97 C100 1.424 . S
C97 C102 1.245 . S
C97 C103 1.428 . S
C98 C101 1.260 . S
C98 C102 1.477 . S
C98 H116 0.932 . S
C99 C100 1.384 . S
C99 C101 1.479 . S
C99 H117 0.929 . S
C100 C97 1.424 . S
C100 C99 1.384 . S
C100 H118 0.928 . S
C101 C98 1.260 . S
C101 C99 1.479 . S
C102 C97 1.245 . S
C102 C98 1.477 . S
C102 H119 0.932 . S
C103 U86 2.882 . S
C103 C97 1.428 . S
C103 O106 1.301 . S
C103 O107 1.282 . S
O104 U86 2.441 . S
O104 C90 1.249 . S
O105 U86 2.420 . S
O105 C90 1.202 . S
O106 U86 2.455 . S
O106 C103 1.301 . S
O107 U86 2.449 . S
O107 C103 1.282 . S
H108 C81 0.931 . S
H109 C83 0.929 . S
H110 C84 0.930 1_565 S
H111 C85 0.931 . S
H112 C92 0.932 . S
H113 C93 0.930 . S
H114 C94 0.929 . S
H115 C96 0.929 1_565 S
H116 C98 0.932 . S
H117 C99 0.929 . S
H118 C100 0.928 . S
H119 C102 0.932 . S
C120 C121 1.264 . S
C120 C125 1.479 . S
C120 C130 1.465 . S
C121 C120 1.264 . S
C121 C123 1.339 . S
C121 H148 0.931 . S
C122 C123 1.395 . S
C122 C124 1.320 . S
C123 C121 1.339 . S
C123 C122 1.395 . S
C123 H149 0.929 . S
C124 C122 1.320 . S
C124 C125 1.405 . S
C124 H150 0.930 . S
C125 C120 1.479 . S
C125 C124 1.405 . S
C125 H151 0.931 . S
U126 O127 2.454 . S
U126 O128 2.458 . S
U126 C129 2.984 . S
U126 C130 2.847 . S
U126 C143 2.882 . S
U126 O144 2.441 . S
U126 O145 2.420 . S
U126 O146 2.455 . S
U126 O147 2.449 . S
O127 U126 2.454 . S
O127 C129 1.353 . S
O128 U126 2.458 . S
O128 C129 1.286 . S
C129 U126 2.984 . S
C129 O127 1.353 . S
C129 O128 1.286 . S
C129 C131 1.363 . S
C130 C120 1.465 . S
C130 U126 2.847 . S
C130 O144 1.249 . S
C130 O145 1.202 . S
C131 C129 1.363 . S
C131 C133 1.408 . S
C131 C136 1.342 . S
C132 C133 1.310 . S
C132 C135 1.461 . S
C132 H152 0.932 . S
C133 C131 1.408 . S
C133 C132 1.310 . S
C133 H153 0.930 . S
C134 C135 1.474 . S
C134 C136 1.285 . S
C134 H154 0.929 . S
C135 C132 1.461 . S
C135 C134 1.474 . S
C136 C131 1.342 . S
C136 C134 1.285 . S
C136 H155 0.930 . S
C137 C140 1.424 . S
C137 C142 1.245 . S
C137 C143 1.428 . S
C138 C141 1.260 . S
C138 C142 1.477 . S
C138 H156 0.932 . S
C139 C140 1.384 . S
C139 C141 1.479 . S
C139 H157 0.929 . S
C140 C137 1.424 . S
C140 C139 1.384 . S
C140 H158 0.928 . S
C141 C138 1.260 . S
C141 C139 1.479 . S
C142 C137 1.245 . S
C142 C138 1.477 . S
C142 H159 0.932 . S
C143 U126 2.882 . S
C143 C137 1.428 . S
C143 O146 1.301 . S
C143 O147 1.282 . S
O144 U126 2.441 . S
O144 C130 1.249 . S
O145 U126 2.420 . S
O145 C130 1.202 . S
O146 U126 2.455 . S
O146 C143 1.301 . S
O147 U126 2.449 . S
O147 C143 1.282 . S
H148 C121 0.931 . S
H149 C123 0.929 . S
H150 C124 0.930 . S
H151 C125 0.931 . S
H152 C132 0.932 . S
H153 C133 0.930 . S
H154 C134 0.929 . S
H155 C136 0.930 . S
H156 C138 0.932 . S
H157 C139 0.929 . S
H158 C140 0.928 . S
H159 C142 0.932 . S
C160 C161 1.264 . S
C160 C165 1.479 . S
C160 C170 1.465 . S
C161 C160 1.264 . S
C161 C163 1.339 . S
C161 H188 0.931 . S
C162 C163 1.395 . S
C162 C164 1.320 . S
C163 C161 1.339 . S
C163 C162 1.395 . S
C163 H189 0.929 . S
C164 C162 1.320 . S
C164 C165 1.405 . S
C164 H190 0.930 . S
C165 C160 1.479 . S
C165 C164 1.405 . S
C165 H191 0.931 . S
U166 O167 2.454 . S
U166 O168 2.458 . S
U166 C169 2.984 . S
U166 C170 2.847 1_554 S
U166 C183 2.882 . S
U166 O184 2.441 1_554 S
U166 O185 2.420 1_554 S
U166 O186 2.455 . S
U166 O187 2.449 . S
O167 U166 2.454 . S
O167 C169 1.353 . S
O168 U166 2.458 . S
O168 C169 1.286 . S
C169 U166 2.984 . S
C169 O167 1.353 . S
C169 O168 1.286 . S
C169 C171 1.363 . S
C170 C160 1.465 . S
C170 U166 2.847 1_556 S
C170 O184 1.249 . S
C170 O185 1.202 . S
C171 C169 1.363 . S
C171 C173 1.408 . S
C171 C176 1.342 . S
C172 C173 1.310 . S
C172 C175 1.461 . S
C172 H192 0.932 . S
C173 C171 1.408 . S
C173 C172 1.310 . S
C173 H193 0.930 1_554 S
C174 C175 1.474 . S
C174 C176 1.285 . S
C174 H194 0.929 . S
C175 C172 1.461 . S
C175 C174 1.474 . S
C176 C171 1.342 . S
C176 C174 1.285 . S
C176 H195 0.930 . S
C177 C180 1.424 . S
C177 C182 1.245 . S
C177 C183 1.428 . S
C178 C181 1.260 . S
C178 C182 1.477 . S
C178 H196 0.932 . S
C179 C180 1.384 . S
C179 C181 1.479 . S
C179 H197 0.929 . S
C180 C177 1.424 . S
C180 C179 1.384 . S
C180 H198 0.928 . S
C181 C178 1.260 . S
C181 C179 1.479 . S
C182 C177 1.245 . S
C182 C178 1.477 . S
C182 H199 0.932 . S
C183 U166 2.882 . S
C183 C177 1.428 . S
C183 O186 1.301 . S
C183 O187 1.282 . S
O184 U166 2.441 1_556 S
O184 C170 1.249 . S
O185 U166 2.420 1_556 S
O185 C170 1.202 . S
O186 U166 2.455 . S
O186 C183 1.301 . S
O187 U166 2.449 . S
O187 C183 1.282 . S
H188 C161 0.931 . S
H189 C163 0.929 . S
H190 C164 0.930 . S
H191 C165 0.931 . S
H192 C172 0.932 . S
H193 C173 0.930 1_556 S
H194 C174 0.929 . S
H195 C176 0.930 . S
H196 C178 0.932 . S
H197 C179 0.929 . S
H198 C180 0.928 . S
H199 C182 0.932 . S
C200 C201 1.264 . S
C200 C205 1.479 . S
C200 C210 1.465 . S
C201 C200 1.264 . S
C201 C203 1.339 . S
C201 H228 0.931 . S
C202 C203 1.395 . S
C202 C204 1.320 . S
C203 C201 1.339 . S
C203 C202 1.395 . S
C203 H229 0.929 . S
C204 C202 1.320 . S
C204 C205 1.405 . S
C204 H230 0.930 . S
C205 C200 1.479 . S
C205 C204 1.405 . S
C205 H231 0.931 . S
U206 O207 2.454 . S
U206 O208 2.458 . S
U206 C209 2.984 . S
U206 C210 2.847 1_554 S
U206 C223 2.882 . S
U206 O224 2.441 1_554 S
U206 O225 2.420 1_554 S
U206 O226 2.455 . S
U206 O227 2.449 . S
O207 U206 2.454 . S
O207 C209 1.353 . S
O208 U206 2.458 . S
O208 C209 1.286 . S
C209 U206 2.984 . S
C209 O207 1.353 . S
C209 O208 1.286 . S
C209 C211 1.363 . S
C210 C200 1.465 . S
C210 U206 2.847 1_556 S
C210 O224 1.249 . S
C210 O225 1.202 . S
C211 C209 1.363 . S
C211 C213 1.408 . S
C211 C216 1.342 . S
C212 C213 1.310 . S
C212 C215 1.461 . S
C212 H232 0.932 . S
C213 C211 1.408 . S
C213 C212 1.310 . S
C213 H233 0.930 1_554 S
C214 C215 1.474 . S
C214 C216 1.285 . S
C214 H234 0.931 . S
C215 C212 1.461 . S
C215 C214 1.474 . S
C216 C211 1.342 . S
C216 C214 1.285 . S
C216 H235 0.930 . S
C217 C220 1.424 . S
C217 C222 1.245 . S
C217 C223 1.428 . S
C218 C221 1.260 . S
C218 C222 1.477 . S
C218 H236 0.932 . S
C219 C220 1.384 . S
C219 C221 1.479 . S
C219 H237 0.929 . S
C220 C217 1.424 . S
C220 C219 1.384 . S
C220 H238 0.928 . S
C221 C218 1.260 . S
C221 C219 1.479 . S
C222 C217 1.245 . S
C222 C218 1.477 . S
C222 H239 0.932 . S
C223 U206 2.882 . S
C223 C217 1.428 . S
C223 O226 1.301 . S
C223 O227 1.282 . S
O224 U206 2.441 1_556 S
O224 C210 1.249 . S
O225 U206 2.420 1_556 S
O225 C210 1.202 . S
O226 U206 2.455 . S
O226 C223 1.301 . S
O227 U206 2.449 . S
O227 C223 1.282 . S
H228 C201 0.931 . S
H229 C203 0.929 . S
H230 C204 0.930 . S
H231 C205 0.931 . S
H232 C212 0.932 . S
H233 C213 0.930 1_556 S
H234 C214 0.931 . S
H235 C216 0.930 . S
H236 C218 0.932 . S
H237 C219 0.929 . S
H238 C220 0.928 . S
H239 C222 0.932 . S
C240 C241 1.264 . S
C240 C245 1.479 . S
C240 C250 1.465 . S
C241 C240 1.264 . S
C241 C243 1.339 . S
C241 H268 0.931 . S
C242 C243 1.395 . S
C242 C244 1.320 . S
C243 C241 1.339 . S
C243 C242 1.395 . S
C243 H269 0.929 . S
C244 C242 1.320 . S
C244 C245 1.405 . S
C244 H270 0.941 . S
C245 C240 1.479 . S
C245 C244 1.405 . S
C245 H271 0.931 . S
U246 O247 2.454 . S
U246 O248 2.458 . S
U246 C249 2.984 . S
U246 C250 2.847 1_554 S
U246 C263 2.882 . S
U246 O264 2.441 1_554 S
U246 O265 2.420 1_554 S
U246 O266 2.455 . S
U246 O267 2.449 . S
O247 U246 2.454 . S
O247 C249 1.353 . S
O248 U246 2.458 . S
O248 C249 1.286 . S
C249 U246 2.984 . S
C249 O247 1.353 . S
C249 O248 1.286 . S
C249 C251 1.363 . S
C250 C240 1.465 . S
C250 U246 2.847 1_556 S
C250 O264 1.249 . S
C250 O265 1.202 . S
C251 C249 1.363 . S
C251 C253 1.408 . S
C251 C256 1.342 . S
C252 C253 1.310 . S
C252 C255 1.461 . S
C252 H272 0.932 . S
C253 C251 1.408 . S
C253 C252 1.310 . S
C253 H273 0.930 1_554 S
C254 C255 1.474 . S
C254 C256 1.285 . S
C254 H274 0.930 1_545 S
C255 C252 1.461 . S
C255 C254 1.474 . S
C256 C251 1.342 . S
C256 C254 1.285 . S
C256 H275 0.930 . S
C257 C260 1.424 . S
C257 C262 1.245 . S
C257 C263 1.428 . S
C258 C261 1.260 . S
C258 C262 1.477 . S
C258 H276 0.932 . S
C259 C260 1.384 . S
C259 C261 1.479 . S
C259 H277 0.929 . S
C260 C257 1.424 . S
C260 C259 1.384 . S
C260 H278 0.928 . S
C261 C258 1.260 . S
C261 C259 1.479 . S
C262 C257 1.245 . S
C262 C258 1.477 . S
C262 H279 0.932 . S
C263 U246 2.882 . S
C263 C257 1.428 . S
C263 O266 1.301 . S
C263 O267 1.282 . S
O264 U246 2.441 1_556 S
O264 C250 1.249 . S
O265 U246 2.420 1_556 S
O265 C250 1.202 . S
O266 U246 2.455 . S
O266 C263 1.301 . S
O267 U246 2.449 . S
O267 C263 1.282 . S
H268 C241 0.931 . S
H269 C243 0.929 . S
H270 C244 0.941 . S
H271 C245 0.931 . S
H272 C252 0.932 . S
H273 C253 0.930 1_556 S
H274 C254 0.930 1_565 S
H275 C256 0.930 . S
H276 C258 0.932 . S
H277 C259 0.929 . S
H278 C260 0.928 . S
H279 C262 0.932 . S
C280 C281 1.264 . S
C280 C285 1.479 . S
C280 C290 1.465 . S
C281 C280 1.264 . S
C281 C283 1.339 . S
C281 H308 0.931 . S
C282 C283 1.395 . S
C282 C284 1.320 . S
C283 C281 1.339 . S
C283 C282 1.395 . S
C283 H309 0.929 . S
C284 C282 1.320 . S
C284 C285 1.405 . S
C284 H310 0.930 . S
C285 C280 1.479 . S
C285 C284 1.405 . S
C285 H311 0.931 . S
U286 O287 2.454 . S
U286 O288 2.458 . S
U286 C289 2.984 . S
U286 C290 2.847 1_554 S
U286 C303 2.882 . S
U286 O304 2.441 1_554 S
U286 O305 2.420 1_554 S
U286 O306 2.455 . S
U286 O307 2.449 . S
O287 U286 2.454 . S
O287 C289 1.353 . S
O288 U286 2.458 . S
O288 C289 1.286 . S
C289 U286 2.984 . S
C289 O287 1.353 . S
C289 O288 1.286 . S
C289 C291 1.363 . S
C290 C280 1.465 . S
C290 U286 2.847 1_556 S
C290 O304 1.249 . S
C290 O305 1.202 . S
C291 C289 1.363 . S
C291 C293 1.408 . S
C291 C296 1.342 . S
C292 C293 1.310 . S
C292 C295 1.461 . S
C292 H312 0.932 . S
C293 C291 1.408 . S
C293 C292 1.310 . S
C293 H313 0.930 1_554 S
C294 C295 1.474 . S
C294 C296 1.285 . S
C294 H314 0.929 . S
C295 C292 1.461 . S
C295 C294 1.474 . S
C296 C291 1.342 . S
C296 C294 1.285 . S
C296 H315 0.930 . S
C297 C300 1.424 . S
C297 C302 1.245 . S
C297 C303 1.428 . S
C298 C301 1.260 . S
C298 C302 1.477 . S
C298 H316 0.932 . S
C299 C300 1.384 . S
C299 C301 1.479 . S
C299 H317 0.929 . S
C300 C297 1.424 . S
C300 C299 1.384 . S
C300 H318 0.928 . S
C301 C298 1.260 . S
C301 C299 1.479 . S
C302 C297 1.245 . S
C302 C298 1.477 . S
C302 H319 0.932 . S
C303 U286 2.882 . S
C303 C297 1.428 . S
C303 O306 1.301 . S
C303 O307 1.282 . S
O304 U286 2.441 1_556 S
O304 C290 1.249 . S
O305 U286 2.420 1_556 S
O305 C290 1.202 . S
O306 U286 2.455 . S
O306 C303 1.301 . S
O307 U286 2.449 . S
O307 C303 1.282 . S
H308 C281 0.931 . S
H309 C283 0.929 . S
H310 C284 0.930 . S
H311 C285 0.931 . S
H312 C292 0.932 . S
H313 C293 0.930 1_556 S
H314 C294 0.929 . S
H315 C296 0.930 . S
H316 C298 0.932 . S
H317 C299 0.929 . S
H318 C300 0.928 . S
H319 C302 0.932 . S
Ho320 C323 2.811 . S
Ho320 O340 2.322 . S
Ho320 O342 2.378 . S
Ho320 O343 2.544 . S
Ho320 O344 2.381 . S
Ho320 O345 2.669 1_565 S
Ho320 O347 2.346 1_565 S
Ho320 O351 2.305 1_455 S
Ho321 C332 2.811 . S
Ho321 O341 2.346 1_545 S
Ho321 O345 2.305 1_655 S
Ho321 O346 2.322 . S
Ho321 O348 2.378 . S
Ho321 O349 2.539 . S
Ho321 O350 2.381 . S
Ho321 O351 2.669 1_545 S
C322 O340 1.259 1_655 S
C322 O341 1.268 . S
C323 Ho320 2.811 . S
C323 C324 1.488 . S
C323 O342 1.215 . S
C323 O343 1.337 . S
C324 C323 1.488 . S
C324 C325 1.348 . S
C324 C329 1.413 . S
C325 C324 1.348 . S
C325 C326 1.442 . S
C325 H352 0.930 1_455 S
C326 C325 1.442 . S
C326 C327 1.381 . S
C326 H353 0.931 1_455 S
C327 C326 1.381 . S
C327 C328 1.321 . S
C328 C327 1.321 . S
C328 C329 1.403 . S
C328 H354 0.934 . S
C329 C324 1.413 . S
C329 C328 1.403 . S
C329 H355 0.930 . S
C330 O344 1.292 . S
C330 O345 1.247 1_565 S
C331 O346 1.259 1_455 S
C331 O347 1.268 . S
C332 Ho321 2.811 . S
C332 C333 1.488 . S
C332 O348 1.215 . S
C332 O349 1.324 . S
C333 C332 1.488 . S
C333 C334 1.348 . S
C333 C338 1.413 . S
C334 C333 1.348 . S
C334 C335 1.442 . S
C334 H356 0.930 1_655 S
C335 C334 1.442 . S
C335 C336 1.381 . S
C335 H357 0.931 1_655 S
C336 C335 1.381 . S
C336 C337 1.321 . S
C337 C336 1.321 . S
C337 C338 1.403 . S
C337 H358 0.934 . S
C338 C333 1.413 . S
C338 C337 1.403 . S
C338 H359 0.930 . S
C339 O350 1.305 . S
C339 O351 1.240 1_545 S
O340 Ho320 2.322 . S
O340 C322 1.259 1_455 S
O341 Ho321 2.346 1_565 S
O341 C322 1.268 . S
O342 Ho320 2.378 . S
O342 C323 1.215 . S
O343 Ho320 2.544 . S
O343 C323 1.337 . S
O344 Ho320 2.381 . S
O344 C330 1.292 . S
O345 Ho320 2.669 1_545 S
O345 Ho321 2.305 1_455 S
O345 C330 1.247 1_545 S
O346 Ho321 2.322 . S
O346 C331 1.259 1_655 S
O347 Ho320 2.346 1_545 S
O347 C331 1.268 . S
O348 Ho321 2.378 . S
O348 C332 1.215 . S
O349 Ho321 2.539 . S
O349 C332 1.324 . S
O350 Ho321 2.381 . S
O350 C339 1.305 . S
O351 Ho320 2.305 1_655 S
O351 Ho321 2.669 1_565 S
O351 C339 1.240 1_565 S
H352 C325 0.930 1_655 S
H353 C326 0.931 1_655 S
H354 C328 0.934 . S
H355 C329 0.930 . S
H356 C334 0.930 1_455 S
H357 C335 0.931 1_455 S
H358 C337 0.934 . S
H359 C338 0.930 . S
Ho360 C363 2.811 . S
Ho360 O380 2.322 . S
Ho360 O382 2.378 . S
Ho360 O383 2.524 . S
Ho360 O384 2.381 . S
Ho360 O385 2.669 . S
Ho360 O387 2.346 . S
Ho360 O391 2.305 1_545 S
Ho361 C372 2.811 . S
Ho361 O381 2.346 . S
Ho361 O385 2.305 1_565 S
Ho361 O386 2.322 . S
Ho361 O388 2.378 . S
Ho361 O389 2.538 . S
Ho361 O390 2.381 . S
Ho361 O391 2.669 . S
C362 O380 1.259 1_565 S
C362 O381 1.268 . S
C363 Ho360 2.811 . S
C363 C364 1.488 . S
C363 O382 1.215 . S
C363 O383 1.289 . S
C364 C363 1.488 . S
C364 C365 1.348 . S
C364 C369 1.413 . S
C365 C364 1.348 . S
C365 C366 1.442 . S
C365 H392 0.930 1_545 S
C366 C365 1.442 . S
C366 C367 1.381 . S
C366 H393 0.931 1_545 S
C367 C366 1.381 . S
C367 C368 1.321 . S
C368 C367 1.321 . S
C368 C369 1.403 . S
C368 H394 0.934 . S
C369 C364 1.413 . S
C369 C368 1.403 . S
C369 H395 0.930 . S
C370 O384 1.275 . S
C370 O385 1.256 . S
C371 O386 1.259 1_545 S
C371 O387 1.268 . S
C372 Ho361 2.811 . S
C372 C373 1.488 . S
C372 O388 1.215 . S
C372 O389 1.323 . S
C373 C372 1.488 . S
C373 C374 1.348 . S
C373 C378 1.413 . S
C374 C373 1.348 . S
C374 C375 1.442 . S
C374 H396 0.930 1_565 S
C375 C374 1.442 . S
C375 C376 1.381 . S
C375 H397 0.931 1_565 S
C376 C375 1.381 . S
C376 C377 1.321 . S
C377 C376 1.321 . S
C377 C378 1.403 . S
C377 H398 0.934 . S
C378 C373 1.413 . S
C378 C377 1.403 . S
C378 H399 0.930 . S
C379 O390 1.275 . S
C379 O391 1.256 . S
O380 Ho360 2.322 . S
O380 C362 1.259 1_545 S
O381 Ho361 2.346 . S
O381 C362 1.268 . S
O382 Ho360 2.378 . S
O382 C363 1.215 . S
O383 Ho360 2.524 . S
O383 C363 1.289 . S
O384 Ho360 2.381 . S
O384 C370 1.275 . S
O385 Ho360 2.669 . S
O385 Ho361 2.305 1_545 S
O385 C370 1.256 . S
O386 Ho361 2.322 . S
O386 C371 1.259 1_565 S
O387 Ho360 2.346 . S
O387 C371 1.268 . S
O388 Ho361 2.378 . S
O388 C372 1.215 . S
O389 Ho361 2.538 . S
O389 C372 1.323 . S
O390 Ho361 2.381 . S
O390 C379 1.275 . S
O391 Ho360 2.305 1_565 S
O391 Ho361 2.669 . S
O391 C379 1.256 . S
H392 C365 0.930 1_565 S
H393 C366 0.931 1_565 S
H394 C368 0.934 . S
H395 C369 0.930 . S
H396 C374 0.930 1_545 S
H397 C375 0.931 1_545 S
H398 C377 0.934 . S
H399 C378 0.930 . S
Ho400 C403 2.811 . S
Ho400 O420 2.322 . S
Ho400 O422 2.378 . S
Ho400 O423 2.524 . S
Ho400 O424 2.381 . S
Ho400 O425 2.669 . S
Ho400 O427 2.346 . S
Ho400 O431 2.305 . S
Ho401 C412 2.811 . S
Ho401 O421 2.346 . S
Ho401 O425 2.305 . S
Ho401 O426 2.322 . S
Ho401 O428 2.378 . S
Ho401 O429 2.524 . S
Ho401 O430 2.381 . S
Ho401 O431 2.669 . S
C402 O420 1.259 . S
C402 O421 1.268 . S
C403 Ho400 2.811 . S
C403 C404 1.488 . S
C403 O422 1.215 . S
C403 O423 1.289 . S
C404 C403 1.488 . S
C404 C405 1.348 . S
C404 C409 1.413 . S
C405 C404 1.348 . S
C405 C406 1.442 . S
C405 H432 0.930 . S
C406 C405 1.442 . S
C406 C407 1.381 . S
C406 H433 0.931 . S
C407 C406 1.381 . S
C407 C408 1.321 . S
C408 C407 1.321 . S
C408 C409 1.403 . S
C408 H434 0.934 . S
C409 C404 1.413 . S
C409 C408 1.403 . S
C409 H435 0.930 . S
C410 O424 1.275 . S
C410 O425 1.256 . S
C411 O426 1.259 . S
C411 O427 1.268 . S
C412 Ho401 2.811 . S
C412 C413 1.488 . S
C412 O428 1.215 . S
C412 O429 1.289 . S
C413 C412 1.488 . S
C413 C414 1.348 . S
C413 C418 1.413 . S
C414 C413 1.348 . S
C414 C415 1.442 . S
C414 H436 0.930 . S
C415 C414 1.442 . S
C415 C416 1.381 . S
C415 H437 0.931 . S
C416 C415 1.381 . S
C416 C417 1.321 . S
C417 C416 1.321 . S
C417 C418 1.403 . S
C417 H438 0.934 . S
C418 C413 1.413 . S
C418 C417 1.403 . S
C418 H439 0.930 . S
C419 O430 1.275 . S
C419 O431 1.256 . S
O420 Ho400 2.322 . S
O420 C402 1.259 . S
O421 Ho401 2.346 . S
O421 C402 1.268 . S
O422 Ho400 2.378 . S
O422 C403 1.215 . S
O423 Ho400 2.524 . S
O423 C403 1.289 . S
O424 Ho400 2.381 . S
O424 C410 1.275 . S
O425 Ho400 2.669 . S
O425 Ho401 2.305 . S
O425 C410 1.256 . S
O426 Ho401 2.322 . S
O426 C411 1.259 . S
O427 Ho400 2.346 . S
O427 C411 1.268 . S
O428 Ho401 2.378 . S
O428 C412 1.215 . S
O429 Ho401 2.524 . S
O429 C412 1.289 . S
O430 Ho401 2.381 . S
O430 C419 1.275 . S
O431 Ho400 2.305 . S
O431 Ho401 2.669 . S
O431 C419 1.256 . S
H432 C405 0.930 . S
H433 C406 0.931 . S
H434 C408 0.934 . S
H435 C409 0.930 . S
H436 C414 0.930 . S
H437 C415 0.931 . S
H438 C417 0.934 . S
H439 C418 0.930 . S
Ho440 C443 2.811 . S
Ho440 O460 2.322 . S
Ho440 O462 2.378 . S
Ho440 O463 2.524 . S
Ho440 O464 2.381 . S
Ho440 O465 2.669 1_655 S
Ho440 O467 2.346 1_655 S
Ho440 O471 2.305 . S
Ho441 C452 2.811 . S
Ho441 O461 2.346 1_455 S
Ho441 O465 2.305 . S
Ho441 O466 2.322 . S
Ho441 O468 2.378 . S
Ho441 O469 2.524 . S
Ho441 O470 2.381 . S
Ho441 O471 2.669 1_455 S
C442 O460 1.259 . S
C442 O461 1.268 . S
C443 Ho440 2.811 . S
C443 C444 1.488 . S
C443 O462 1.215 . S
C443 O463 1.289 . S
C444 C443 1.488 . S
C444 C445 1.348 . S
C444 C449 1.413 . S
C445 C444 1.348 . S
C445 C446 1.442 . S
C445 H472 0.930 . S
C446 C445 1.442 . S
C446 C447 1.381 . S
C446 H473 0.931 . S
C447 C446 1.381 . S
C447 C448 1.321 . S
C448 C447 1.321 . S
C448 C449 1.403 . S
C448 H474 0.934 . S
C449 C444 1.413 . S
C449 C448 1.403 . S
C449 H475 0.930 . S
C450 O464 1.293 . S
C450 O465 1.246 1_655 S
C451 O466 1.259 . S
C451 O467 1.268 . S
C452 Ho441 2.811 . S
C452 C453 1.488 . S
C452 O468 1.215 . S
C452 O469 1.289 . S
C453 C452 1.488 . S
C453 C454 1.348 . S
C453 C458 1.413 . S
C454 C453 1.348 . S
C454 C455 1.442 . S
C454 H476 0.930 . S
C455 C454 1.442 . S
C455 C456 1.381 . S
C455 H477 0.931 . S
C456 C455 1.381 . S
C456 C457 1.321 . S
C457 C456 1.321 . S
C457 C458 1.403 . S
C457 H478 0.934 . S
C458 C453 1.413 . S
C458 C457 1.403 . S
C458 H479 0.930 . S
C459 O470 1.300 . S
C459 O471 1.243 1_455 S
O460 Ho440 2.322 . S
O460 C442 1.259 . S
O461 Ho441 2.346 1_655 S
O461 C442 1.268 . S
O462 Ho440 2.378 . S
O462 C443 1.215 . S
O463 Ho440 2.524 . S
O463 C443 1.289 . S
O464 Ho440 2.381 . S
O464 C450 1.293 . S
O465 Ho440 2.669 1_455 S
O465 Ho441 2.305 . S
O465 C450 1.246 1_455 S
O466 Ho441 2.322 . S
O466 C451 1.259 . S
O467 Ho440 2.346 1_455 S
O467 C451 1.268 . S
O468 Ho441 2.378 . S
O468 C452 1.215 . S
O469 Ho441 2.524 . S
O469 C452 1.289 . S
O470 Ho441 2.381 . S
O470 C459 1.300 . S
O471 Ho440 2.305 . S
O471 Ho441 2.669 1_655 S
O471 C459 1.243 1_655 S
H472 C445 0.930 . S
H473 C446 0.931 . S
H474 C448 0.934 . S
H475 C449 0.930 . S
H476 C454 0.930 . S
H477 C455 0.931 . S
H478 C457 0.934 . S
H479 C458 0.930 . S
H480 C488 0.950 . S
H481 C493 0.950 . S
H482 C490 0.950 . S
H483 C492 0.950 . S
H484 C494 0.950 . S
H485 C496 0.950 . S
H486 C498 0.950 . S
H487 C499 0.950 . S
C488 H480 0.950 . S
C488 C489 1.386 1_565 S
C488 C490 1.391 . S
C489 C488 1.386 1_545 S
C489 C493 1.393 . S
C490 H482 0.950 . S
C490 C488 1.391 . S
C490 C491 1.400 1_565 S
C491 C490 1.400 1_545 S
C491 C492 1.398 . S
C491 C497 1.491 . S
C492 H483 0.950 . S
C492 C491 1.398 . S
C492 C493 1.391 . S
C493 H481 0.950 . S
C493 C489 1.393 . S
C493 C492 1.391 . S
C494 H484 0.950 . S
C494 C495 1.386 . S
C494 C496 1.391 . S
C495 C494 1.386 . S
C495 C499 1.393 1_545 S
C496 H485 0.950 . S
C496 C494 1.391 . S
C496 C497 1.400 . S
C497 C491 1.491 . S
C497 C496 1.400 . S
C497 C498 1.398 1_545 S
C498 H486 0.950 . S
C498 C497 1.398 1_565 S
C498 C499 1.391 . S
C499 H487 0.950 . S
C499 C495 1.393 1_565 S
C499 C498 1.391 . S
H500 C508 0.950 . S
H501 C513 0.950 . S
H502 C510 0.950 . S
H503 C512 0.950 . S
H504 C514 0.950 . S
H505 C516 0.950 . S
H506 C518 0.950 . S
H507 C519 0.950 . S
C508 H500 0.950 . S
C508 C509 1.386 . S
C508 C510 1.391 . S
C509 C508 1.386 . S
C509 C513 1.393 . S
C510 H502 0.950 . S
C510 C508 1.391 . S
C510 C511 1.400 . S
C511 C510 1.400 . S
C511 C512 1.398 . S
C511 C517 1.491 . S
C512 H503 0.950 . S
C512 C511 1.398 . S
C512 C513 1.391 . S
C513 H501 0.950 . S
C513 C509 1.393 . S
C513 C512 1.391 . S
C514 H504 0.950 . S
C514 C515 1.386 . S
C514 C516 1.391 . S
C515 C514 1.386 . S
C515 C519 1.393 . S
C516 H505 0.950 . S
C516 C514 1.391 . S
C516 C517 1.400 . S
C517 C511 1.491 . S
C517 C516 1.400 . S
C517 C518 1.398 . S
C518 H506 0.950 . S
C518 C517 1.398 . S
C518 C519 1.391 . S
C519 H507 0.950 . S
C519 C515 1.393 . S
C519 C518 1.391 . S
H520 C528 0.950 . S
H521 C533 0.950 . S
H522 C530 0.950 . S
H523 C532 0.950 . S
H524 C534 0.950 . S
H525 C536 0.950 . S
H526 C538 0.950 . S
H527 C539 0.950 . S
C528 H520 0.950 . S
C528 C529 1.386 . S
C528 C530 1.391 . S
C529 C528 1.386 . S
C529 C533 1.393 . S
C530 H522 0.950 . S
C530 C528 1.391 . S
C530 C531 1.400 . S
C531 C530 1.400 . S
C531 C532 1.398 . S
C531 C537 1.491 . S
C532 H523 0.950 . S
C532 C531 1.398 . S
C532 C533 1.391 . S
C533 H521 0.950 . S
C533 C529 1.393 . S
C533 C532 1.391 . S
C534 H524 0.950 . S
C534 C535 1.386 . S
C534 C536 1.391 . S
C535 C534 1.386 . S
C535 C539 1.393 . S
C536 H525 0.950 . S
C536 C534 1.391 . S
C536 C537 1.400 . S
C537 C531 1.491 . S
C537 C536 1.400 . S
C537 C538 1.398 . S
C538 H526 0.950 . S
C538 C537 1.398 . S
C538 C539 1.391 . S
C539 H527 0.950 . S
C539 C535 1.393 . S
C539 C538 1.391 . S
H540 C548 0.950 . S
H541 C553 0.950 . S
H542 C550 0.950 . S
H543 C552 0.950 . S
H544 C554 0.950 . S
H545 C556 0.950 . S
H546 C558 0.950 . S
H547 C559 0.950 . S
C548 H540 0.950 . S
C548 C549 1.386 . S
C548 C550 1.391 . S
C549 C548 1.386 . S
C549 C553 1.393 1_455 S
C550 H542 0.950 . S
C550 C548 1.391 . S
C550 C551 1.400 . S
C551 C550 1.400 . S
C551 C552 1.398 1_455 S
C551 C557 1.491 . S
C552 H543 0.950 . S
C552 C551 1.398 1_655 S
C552 C553 1.391 . S
C553 H541 0.950 . S
C553 C549 1.393 1_655 S
C553 C552 1.391 . S
C554 H544 0.950 . S
C554 C555 1.386 1_655 S
C554 C556 1.391 . S
C555 C554 1.386 1_455 S
C555 C559 1.393 . S
C556 H545 0.950 . S
C556 C554 1.391 . S
C556 C557 1.400 1_655 S
C557 C551 1.491 . S
C557 C556 1.400 1_455 S
C557 C558 1.398 . S
C558 H546 0.950 . S
C558 C557 1.398 . S
C558 C559 1.391 . S
C559 H547 0.950 . S
C559 C555 1.393 . S
C559 C558 1.391 . S
H560 C568 0.950 . S
H561 C573 0.950 . S
H562 C570 0.950 . S
H563 C572 0.950 . S
H564 C574 0.950 . S
H565 C576 0.950 . S
H566 C578 0.950 . S
H567 C579 0.950 . S
C568 H560 0.950 . S
C568 C569 1.367 1_545 S
C568 C570 1.391 . S
C569 C568 1.367 1_565 S
C569 C573 1.412 . S
C570 H562 0.950 . S
C570 C568 1.391 . S
C570 C571 1.371 1_545 S
C571 C570 1.371 1_565 S
C571 C572 1.428 . S
C571 C577 1.493 1_554 S
C572 H563 0.950 . S
C572 C571 1.428 . S
C572 C573 1.391 . S
C573 H561 0.950 . S
C573 C569 1.412 . S
C573 C572 1.391 . S
C574 H564 0.950 . S
C574 C575 1.386 . S
C574 C576 1.391 . S
C575 C574 1.386 . S
C575 C579 1.393 1_565 S
C576 H565 0.950 . S
C576 C574 1.391 . S
C576 C577 1.400 . S
C577 C571 1.493 1_556 S
C577 C576 1.400 . S
C577 C578 1.398 1_565 S
C578 H566 0.950 . S
C578 C577 1.398 1_545 S
C578 C579 1.391 . S
C579 H567 0.950 . S
C579 C575 1.393 1_545 S
C579 C578 1.391 . S
H580 C588 0.950 . S
H581 C593 0.950 . S
H582 C590 0.950 . S
H583 C592 0.950 . S
H584 C594 0.950 . S
H585 C596 0.950 . S
H586 C598 0.950 . S
H587 C599 0.950 . S
C588 H580 0.950 . S
C588 C589 1.386 . S
C588 C590 1.391 . S
C589 C588 1.386 . S
C589 C593 1.393 . S
C590 H582 0.950 . S
C590 C588 1.391 . S
C590 C591 1.400 . S
C591 C590 1.400 . S
C591 C592 1.398 . S
C591 C597 1.491 1_554 S
C592 H583 0.950 . S
C592 C591 1.398 . S
C592 C593 1.391 . S
C593 H581 0.950 . S
C593 C589 1.393 . S
C593 C592 1.391 . S
C594 H584 0.950 . S
C594 C595 1.386 . S
C594 C596 1.391 . S
C595 C594 1.386 . S
C595 C599 1.393 . S
C596 H585 0.950 . S
C596 C594 1.391 . S
C596 C597 1.400 . S
C597 C591 1.491 1_556 S
C597 C596 1.400 . S
C597 C598 1.398 . S
C598 H586 0.950 . S
C598 C597 1.398 . S
C598 C599 1.391 . S
C599 H587 0.950 . S
C599 C595 1.393 . S
C599 C598 1.391 . S
H600 C608 0.950 . S
H601 C613 0.950 . S
H602 C610 0.950 . S
H603 C612 0.950 . S
H604 C614 0.950 . S
H605 C616 0.950 . S
H606 C618 0.950 . S
H607 C619 0.950 . S
C608 H600 0.950 . S
C608 C609 1.386 . S
C608 C610 1.391 . S
C609 C608 1.386 . S
C609 C613 1.393 . S
C610 H602 0.950 . S
C610 C608 1.391 . S
C610 C611 1.400 . S
C611 C610 1.400 . S
C611 C612 1.398 . S
C611 C617 1.491 1_554 S
C612 H603 0.950 . S
C612 C611 1.398 . S
C612 C613 1.391 . S
C613 H601 0.950 . S
C613 C609 1.393 . S
C613 C612 1.391 . S
C614 H604 0.950 . S
C614 C615 1.386 . S
C614 C616 1.391 . S
C615 C614 1.386 . S
C615 C619 1.393 . S
C616 H605 0.950 . S
C616 C614 1.391 . S
C616 C617 1.400 . S
C617 C611 1.491 1_556 S
C617 C616 1.400 . S
C617 C618 1.398 . S
C618 H606 0.950 . S
C618 C617 1.398 . S
C618 C619 1.391 . S
C619 H607 0.950 . S
C619 C615 1.393 . S
C619 C618 1.391 . S
H620 C628 0.950 . S
H621 C633 0.950 . S
H622 C630 0.950 . S
H623 C632 0.950 . S
H624 C634 0.950 . S
H625 C636 0.950 . S
H626 C638 0.950 . S
H627 C639 0.950 . S
C628 H620 0.950 . S
C628 C629 1.386 1_455 S
C628 C630 1.391 . S
C629 C628 1.386 1_655 S
C629 C633 1.393 . S
C630 H622 0.950 . S
C630 C628 1.391 . S
C630 C631 1.400 1_455 S
C631 C630 1.400 1_655 S
C631 C632 1.398 . S
C631 C637 1.491 1_554 S
C632 H623 0.950 . S
C632 C631 1.398 . S
C632 C633 1.391 . S
C633 H621 0.950 . S
C633 C629 1.393 . S
C633 C632 1.391 . S
C634 H624 0.950 . S
C634 C635 1.386 . S
C634 C636 1.391 . S
C635 C634 1.386 . S
C635 C639 1.393 1_655 S
C636 H625 0.950 . S
C636 C634 1.391 . S
C636 C637 1.400 . S
C637 C631 1.491 1_556 S
C637 C636 1.400 . S
C637 C638 1.398 1_655 S
C638 H626 0.950 . S
C638 C637 1.398 1_455 S
C638 C639 1.391 . S
C639 H627 0.950 . S
C639 C635 1.393 1_455 S
C639 C638 1.391 . S
H640 C648 0.950 . S
H641 C653 0.950 . S
H642 C650 0.950 . S
H643 C652 0.950 . S
H644 C654 0.950 . S
H645 C656 0.950 . S
H646 C658 0.950 1_455 S
H647 C659 0.950 . S
C648 H640 0.950 . S
C648 C649 1.386 . S
C648 C650 1.391 . S
C649 C648 1.386 . S
C649 C653 1.393 1_455 S
C650 H642 0.950 . S
C650 C648 1.391 . S
C650 C651 1.400 1_455 S
C651 C650 1.400 1_655 S
C651 C652 1.398 . S
C651 C657 1.491 . S
C652 H643 0.950 . S
C652 C651 1.398 . S
C652 C653 1.391 . S
C653 H641 0.950 . S
C653 C649 1.393 1_655 S
C653 C652 1.391 . S
C654 H644 0.950 . S
C654 C655 1.386 . S
C654 C656 1.391 . S
C655 C654 1.386 . S
C655 C659 1.393 . S
C656 H645 0.950 . S
C656 C654 1.391 . S
C656 C657 1.400 . S
C657 C651 1.491 . S
C657 C656 1.400 . S
C657 C658 1.398 . S
C658 H646 0.950 1_655 S
C658 C657 1.398 . S
C658 C659 1.391 . S
C659 H647 0.950 . S
C659 C655 1.393 . S
C659 C658 1.391 . S
H660 C668 0.950 . S
H661 C673 0.950 . S
H662 C670 0.950 . S
H663 C672 0.950 . S
H664 C674 0.950 . S
H665 C676 0.950 1_545 S
H666 C678 0.950 . S
H667 C679 0.950 . S
C668 H660 0.950 . S
C668 C669 1.386 1_565 S
C668 C670 1.391 . S
C669 C668 1.386 1_545 S
C669 C673 1.393 . S
C670 H662 0.950 . S
C670 C668 1.391 . S
C670 C671 1.400 . S
C671 C670 1.400 . S
C671 C672 1.398 1_565 S
C671 C677 1.491 . S
C672 H663 0.950 . S
C672 C671 1.398 1_545 S
C672 C673 1.391 . S
C673 H661 0.950 . S
C673 C669 1.393 . S
C673 C672 1.391 . S
C674 H664 0.950 . S
C674 C675 1.386 . S
C674 C676 1.391 . S
C675 C674 1.386 . S
C675 C679 1.393 . S
C676 H665 0.950 1_565 S
C676 C674 1.391 . S
C676 C677 1.400 . S
C677 C671 1.491 . S
C677 C676 1.400 . S
C677 C678 1.398 . S
C678 H666 0.950 . S
C678 C677 1.398 . S
C678 C679 1.391 . S
C679 H667 0.950 . S
C679 C675 1.393 . S
C679 C678 1.391 . S
H680 C688 0.950 . S
H681 C693 0.950 . S
H682 C690 0.950 . S
H683 C692 0.950 . S
H684 C694 0.950 . S
H685 C696 0.950 . S
H686 C698 0.950 . S
H687 C699 0.950 . S
C688 H680 0.950 . S
C688 C689 1.386 . S
C688 C690 1.391 . S
C689 C688 1.386 . S
C689 C693 1.393 . S
C690 H682 0.950 . S
C690 C688 1.391 . S
C690 C691 1.400 . S
C691 C690 1.400 . S
C691 C692 1.398 . S
C691 C697 1.491 . S
C692 H683 0.950 . S
C692 C691 1.398 . S
C692 C693 1.391 . S
C693 H681 0.950 . S
C693 C689 1.393 . S
C693 C692 1.391 . S
C694 H684 0.950 . S
C694 C695 1.386 . S
C694 C696 1.391 . S
C695 C694 1.386 . S
C695 C699 1.393 . S
C696 H685 0.950 . S
C696 C694 1.391 . S
C696 C697 1.400 . S
C697 C691 1.491 . S
C697 C696 1.400 . S
C697 C698 1.398 . S
C698 H686 0.950 . S
C698 C697 1.398 . S
C698 C699 1.391 . S
C699 H687 0.950 . S
C699 C695 1.393 . S
C699 C698 1.391 . S
H700 C708 0.950 . S
H701 C713 0.950 . S
H702 C710 0.950 . S
H703 C712 0.950 . S
H704 C714 0.950 . S
H705 C716 0.950 . S
H706 C718 0.950 . S
H707 C719 0.950 . S
C708 H700 0.950 . S
C708 C709 1.386 . S
C708 C710 1.391 . S
C709 C708 1.386 . S
C709 C713 1.393 . S
C710 H702 0.950 . S
C710 C708 1.391 . S
C710 C711 1.400 . S
C711 C710 1.400 . S
C711 C712 1.398 . S
C711 C717 1.491 . S
C712 H703 0.950 . S
C712 C711 1.398 . S
C712 C713 1.391 . S
C713 H701 0.950 . S
C713 C709 1.393 . S
C713 C712 1.391 . S
C714 H704 0.950 . S
C714 C715 1.386 . S
C714 C716 1.391 . S
C715 C714 1.386 . S
C715 C719 1.393 . S
C716 H705 0.950 . S
C716 C714 1.391 . S
C716 C717 1.400 . S
C717 C711 1.491 . S
C717 C716 1.400 . S
C717 C718 1.398 . S
C718 H706 0.950 . S
C718 C717 1.398 . S
C718 C719 1.391 . S
C719 H707 0.950 . S
C719 C715 1.393 . S
C719 C718 1.391 . S
H720 C728 0.950 . S
H721 C733 0.950 . S
H722 C730 0.950 . S
H723 C732 0.950 . S
H724 C734 0.950 . S
H725 C736 0.950 . S
H726 C738 0.950 1_655 S
H727 C739 0.950 . S
C728 H720 0.950 . S
C728 C729 1.386 . S
C728 C730 1.391 . S
C729 C728 1.386 . S
C729 C733 1.393 1_655 S
C730 H722 0.950 . S
C730 C728 1.391 . S
C730 C731 1.404 1_655 S
C731 C730 1.404 1_455 S
C731 C732 1.400 . S
C731 C737 1.485 1_554 S
C732 H723 0.950 . S
C732 C731 1.400 . S
C732 C733 1.391 . S
C733 H721 0.950 . S
C733 C729 1.393 1_455 S
C733 C732 1.391 . S
C734 H724 0.950 . S
C734 C735 1.386 . S
C734 C736 1.391 . S
C735 C734 1.386 . S
C735 C739 1.393 . S
C736 H725 0.950 . S
C736 C734 1.391 . S
C736 C737 1.400 . S
C737 C731 1.485 1_556 S
C737 C736 1.400 . S
C737 C738 1.398 . S
C738 H726 0.950 1_455 S
C738 C737 1.398 . S
C738 C739 1.391 . S
C739 H727 0.950 . S
C739 C735 1.393 . S
C739 C738 1.391 . S
H740 C748 0.950 . S
H741 C753 0.950 . S
H742 C750 0.948 1_565 S
H743 C752 0.950 . S
H744 C754 0.950 1_554 S
H745 C756 0.950 . S
H746 C758 0.950 . S
H747 C759 0.950 . S
C748 H740 0.950 . S
C748 C749 1.386 1_556 S
C748 C750 1.391 1_565 S
C749 C748 1.386 1_554 S
C749 C753 1.393 1_565 S
C750 H742 0.948 1_545 S
C750 C748 1.391 1_545 S
C750 C751 1.401 1_556 S
C751 C750 1.401 1_554 S
C751 C752 1.397 . S
C751 C757 1.491 1_554 S
C752 H743 0.950 . S
C752 C751 1.397 . S
C752 C753 1.391 . S
C753 H741 0.950 . S
C753 C749 1.393 1_545 S
C753 C752 1.391 . S
C754 H744 0.950 1_556 S
C754 C755 1.386 . S
C754 C756 1.391 1_556 S
C755 C754 1.386 . S
C755 C759 1.393 . S
C756 H745 0.950 . S
C756 C754 1.391 1_554 S
C756 C757 1.400 1_554 S
C757 C751 1.491 1_556 S
C757 C756 1.400 1_556 S
C757 C758 1.398 . S
C758 H746 0.950 . S
C758 C757 1.398 . S
C758 C759 1.391 . S
C759 H747 0.950 . S
C759 C755 1.393 . S
C759 C758 1.391 . S
H760 C768 0.950 . S
H761 C773 0.950 . S
H762 C770 0.947 1_556 S
H763 C772 0.950 . S
H764 C774 0.950 . S
H765 C776 0.950 . S
H766 C778 0.950 . S
H767 C779 0.950 . S
C768 H760 0.950 . S
C768 C769 1.386 . S
C768 C770 1.391 . S
C769 C768 1.386 . S
C769 C773 1.393 . S
C770 H762 0.947 1_554 S
C770 C768 1.391 . S
C770 C771 1.403 . S
C771 C770 1.403 . S
C771 C772 1.403 . S
C771 C777 1.484 1_554 S
C772 H763 0.950 . S
C772 C771 1.403 . S
C772 C773 1.391 . S
C773 H761 0.950 . S
C773 C769 1.393 . S
C773 C772 1.391 . S
C774 H764 0.950 . S
C774 C775 1.386 . S
C774 C776 1.391 . S
C775 C774 1.386 . S
C775 C779 1.393 . S
C776 H765 0.950 . S
C776 C774 1.391 . S
C776 C777 1.400 . S
C777 C771 1.484 1_556 S
C777 C776 1.400 . S
C777 C778 1.398 . S
C778 H766 0.950 . S
C778 C777 1.398 . S
C778 C779 1.391 . S
C779 H767 0.950 . S
C779 C775 1.393 . S
C779 C778 1.391 . S
H780 C788 0.950 . S
H781 C793 0.950 . S
H782 C790 0.950 . S
H783 C792 0.950 . S
H784 C794 0.950 . S
H785 C796 0.950 1_554 S
H786 C798 0.950 . S
H787 C799 0.950 . S
C788 H780 0.950 . S
C788 C789 1.386 . S
C788 C790 1.391 1_554 S
C789 C788 1.386 . S
C789 C793 1.393 . S
C790 H782 0.950 . S
C790 C788 1.391 1_556 S
C790 C791 1.398 1_556 S
C791 C790 1.398 1_554 S
C791 C792 1.407 . S
C791 C797 1.485 1_554 S
C792 H783 0.950 . S
C792 C791 1.407 . S
C792 C793 1.391 . S
C793 H781 0.950 . S
C793 C789 1.393 . S
C793 C792 1.391 . S
C794 H784 0.950 . S
C794 C795 1.386 . S
C794 C796 1.391 . S
C795 C794 1.386 . S
C795 C799 1.393 . S
C796 H785 0.950 1_556 S
C796 C794 1.391 . S
C796 C797 1.400 . S
C797 C791 1.485 1_556 S
C797 C796 1.400 . S
C797 C798 1.398 . S
C798 H786 0.950 . S
C798 C797 1.398 . S
C798 C799 1.391 . S
C799 H787 0.950 . S
C799 C795 1.393 . S
C799 C798 1.391 . S
H800 C808 0.950 . S
H801 C813 0.950 . S
H802 C810 0.950 . S
H803 C812 0.950 . S
H804 C814 0.950 . S
H805 C816 0.950 . S
H806 C818 0.950 . S
H807 C819 0.950 . S
C808 H800 0.950 . S
C808 C809 1.386 . S
C808 C810 1.391 . S
C809 C808 1.386 . S
C809 C813 1.393 1_455 S
C810 H802 0.950 . S
C810 C808 1.391 . S
C810 C811 1.400 . S
C811 C810 1.400 . S
C811 C812 1.398 1_455 S
C811 C817 1.491 . S
C812 H803 0.950 . S
C812 C811 1.398 1_655 S
C812 C813 1.391 . S
C813 H801 0.950 . S
C813 C809 1.393 1_655 S
C813 C812 1.391 . S
C814 H804 0.950 . S
C814 C815 1.386 1_655 S
C814 C816 1.391 . S
C815 C814 1.386 1_455 S
C815 C819 1.393 . S
C816 H805 0.950 . S
C816 C814 1.391 . S
C816 C817 1.400 1_655 S
C817 C811 1.491 . S
C817 C816 1.400 1_455 S
C817 C818 1.398 . S
C818 H806 0.950 . S
C818 C817 1.398 . S
C818 C819 1.391 . S
C819 H807 0.950 . S
C819 C815 1.393 . S
C819 C818 1.391 . S
H820 C828 0.950 . S
H821 C833 0.950 . S
H822 C830 0.950 . S
H823 C832 0.950 . S
H824 C834 0.950 . S
H825 C836 0.950 . S
H826 C838 0.950 1_565 S
H827 C839 0.950 1_565 S
C828 H820 0.950 . S
C828 C829 1.386 1_565 S
C828 C830 1.391 . S
C829 C828 1.386 1_545 S
C829 C833 1.393 . S
C830 H822 0.950 . S
C830 C828 1.391 . S
C830 C831 1.400 1_565 S
C831 C830 1.400 1_545 S
C831 C832 1.398 . S
C831 C837 1.491 . S
C832 H823 0.950 . S
C832 C831 1.398 . S
C832 C833 1.391 . S
C833 H821 0.950 . S
C833 C829 1.393 . S
C833 C832 1.391 . S
C834 H824 0.950 . S
C834 C835 1.386 . S
C834 C836 1.391 . S
C835 C834 1.386 . S
C835 C839 1.393 . S
C836 H825 0.950 . S
C836 C834 1.391 . S
C836 C837 1.400 . S
C837 C831 1.491 . S
C837 C836 1.400 . S
C837 C838 1.398 . S
C838 H826 0.950 1_545 S
C838 C837 1.398 . S
C838 C839 1.391 . S
C839 H827 0.950 1_545 S
C839 C835 1.393 . S
C839 C838 1.391 . S
H840 C848 0.950 . S
H841 C853 0.950 . S
H842 C850 0.950 . S
H843 C852 0.950 . S
H844 C854 0.950 . S
H845 C856 0.950 . S
H846 C858 0.950 . S
H847 C859 0.950 . S
C848 H840 0.950 . S
C848 C849 1.386 . S
C848 C850 1.391 . S
C849 C848 1.386 . S
C849 C853 1.393 . S
C850 H842 0.950 . S
C850 C848 1.391 . S
C850 C851 1.400 . S
C851 C850 1.400 . S
C851 C852 1.398 . S
C851 C857 1.491 . S
C852 H843 0.950 . S
C852 C851 1.398 . S
C852 C853 1.391 . S
C853 H841 0.950 . S
C853 C849 1.393 . S
C853 C852 1.391 . S
C854 H844 0.950 . S
C854 C855 1.386 . S
C854 C856 1.391 . S
C855 C854 1.386 . S
C855 C859 1.393 . S
C856 H845 0.950 . S
C856 C854 1.391 . S
C856 C857 1.400 . S
C857 C851 1.491 . S
C857 C856 1.400 . S
C857 C858 1.398 . S
C858 H846 0.950 . S
C858 C857 1.398 . S
C858 C859 1.391 . S
C859 H847 0.950 . S
C859 C855 1.393 . S
C859 C858 1.391 . S
H860 C868 0.950 . S
H861 C873 0.950 . S
H862 C870 0.950 . S
H863 C872 0.950 . S
H864 C874 0.950 . S
H865 C876 0.950 . S
H866 C878 0.950 . S
H867 C879 0.950 . S
C868 H860 0.950 . S
C868 C869 1.386 . S
C868 C870 1.391 . S
C869 C868 1.386 . S
C869 C873 1.393 . S
C870 H862 0.950 . S
C870 C868 1.391 . S
C870 C871 1.400 . S
C871 C870 1.400 . S
C871 C872 1.398 . S
C871 C877 1.491 . S
C872 H863 0.950 . S
C872 C871 1.398 . S
C872 C873 1.391 . S
C873 H861 0.950 . S
C873 C869 1.393 . S
C873 C872 1.391 . S
C874 H864 0.950 . S
C874 C875 1.386 . S
C874 C876 1.391 . S
C875 C874 1.386 . S
C875 C879 1.393 . S
C876 H865 0.950 . S
C876 C874 1.391 . S
C876 C877 1.400 . S
C877 C871 1.491 . S
C877 C876 1.400 . S
C877 C878 1.398 . S
C878 H866 0.950 . S
C878 C877 1.398 . S
C878 C879 1.391 . S
C879 H867 0.950 . S
C879 C875 1.393 . S
C879 C878 1.391 . S
H880 C888 0.950 . S
H881 C893 0.950 . S
H882 C890 0.950 . S
H883 C892 0.950 . S
H884 C894 0.950 . S
H885 C896 0.950 . S
H886 C898 0.950 . S
H887 C899 0.950 . S
C888 H880 0.950 . S
C888 C889 1.386 . S
C888 C890 1.391 . S
C889 C888 1.386 . S
C889 C893 1.393 1_655 S
C890 H882 0.950 . S
C890 C888 1.391 . S
C890 C891 1.400 . S
C891 C890 1.400 . S
C891 C892 1.398 1_655 S
C891 C897 1.491 . S
C892 H883 0.950 . S
C892 C891 1.398 1_455 S
C892 C893 1.391 . S
C893 H881 0.950 . S
C893 C889 1.393 1_455 S
C893 C892 1.391 . S
C894 H884 0.950 . S
C894 C895 1.386 1_455 S
C894 C896 1.391 . S
C895 C894 1.386 1_655 S
C895 C899 1.393 . S
C896 H885 0.950 . S
C896 C894 1.391 . S
C896 C897 1.400 1_455 S
C897 C891 1.491 . S
C897 C896 1.400 1_655 S
C897 C898 1.398 . S
C898 H886 0.950 . S
C898 C897 1.398 . S
C898 C899 1.391 . S
C899 H887 0.950 . S
C899 C895 1.393 . S
C899 C898 1.391 . S
H900 C908 0.950 . S
H901 C913 0.950 . S
H902 C910 0.950 . S
H903 C912 0.950 . S
H904 C914 0.950 1_545 S
H905 C916 0.935 1_545 S
H906 C918 0.950 . S
H907 C919 0.950 . S
C908 H900 0.950 . S
C908 C909 1.386 . S
C908 C910 1.391 . S
C909 C908 1.386 . S
C909 C913 1.393 1_565 S
C910 H902 0.950 . S
C910 C908 1.391 . S
C910 C911 1.400 . S
C911 C910 1.400 . S
C911 C912 1.398 1_565 S
C911 C917 1.491 . S
C912 H903 0.950 . S
C912 C911 1.398 1_545 S
C912 C913 1.391 . S
C913 H901 0.950 . S
C913 C909 1.393 1_545 S
C913 C912 1.391 . S
C914 H904 0.950 1_565 S
C914 C915 1.386 . S
C914 C916 1.395 . S
C915 C914 1.386 . S
C915 C919 1.393 . S
C916 H905 0.935 1_565 S
C916 C914 1.395 . S
C916 C917 1.414 . S
C917 C911 1.491 . S
C917 C916 1.414 . S
C917 C918 1.398 . S
C918 H906 0.950 . S
C918 C917 1.398 . S
C918 C919 1.391 . S
C919 H907 0.950 . S
C919 C915 1.393 . S
C919 C918 1.391 . S
H920 C928 0.950 . S
H921 C933 0.950 . S
H922 C930 0.950 . S
H923 C932 0.950 . S
H924 C934 0.950 . S
H925 C936 0.950 . S
H926 C938 0.950 . S
H927 C939 0.950 . S
C928 H920 0.950 . S
C928 C929 1.386 . S
C928 C930 1.391 . S
C929 C928 1.386 . S
C929 C933 1.393 . S
C930 H922 0.950 . S
C930 C928 1.391 . S
C930 C931 1.400 . S
C931 C930 1.400 . S
C931 C932 1.398 . S
C931 C937 1.491 . S
C932 H923 0.950 . S
C932 C931 1.398 . S
C932 C933 1.391 . S
C933 H921 0.950 . S
C933 C929 1.393 . S
C933 C932 1.391 . S
C934 H924 0.950 . S
C934 C935 1.386 . S
C934 C936 1.391 . S
C935 C934 1.386 . S
C935 C939 1.393 . S
C936 H925 0.950 . S
C936 C934 1.391 . S
C936 C937 1.400 . S
C937 C931 1.491 . S
C937 C936 1.400 . S
C937 C938 1.398 . S
C938 H926 0.950 . S
C938 C937 1.398 . S
C938 C939 1.391 . S
C939 H927 0.950 . S
C939 C935 1.393 . S
C939 C938 1.391 . S
H940 C948 0.950 . S
H941 C953 0.950 . S
H942 C950 0.950 . S
H943 C952 0.950 . S
H944 C954 0.950 . S
H945 C956 0.950 . S
H946 C958 0.950 . S
H947 C959 0.950 . S
C948 H940 0.950 . S
C948 C949 1.386 . S
C948 C950 1.391 . S
C949 C948 1.386 . S
C949 C953 1.393 . S
C950 H942 0.950 . S
C950 C948 1.391 . S
C950 C951 1.400 . S
C951 C950 1.400 . S
C951 C952 1.398 . S
C951 C957 1.491 . S
C952 H943 0.950 . S
C952 C951 1.398 . S
C952 C953 1.391 . S
C953 H941 0.950 . S
C953 C949 1.393 . S
C953 C952 1.391 . S
C954 H944 0.950 . S
C954 C955 1.386 . S
C954 C956 1.391 . S
C955 C954 1.386 . S
C955 C959 1.393 . S
C956 H945 0.950 . S
C956 C954 1.391 . S
C956 C957 1.400 . S
C957 C951 1.491 . S
C957 C956 1.400 . S
C957 C958 1.398 . S
C958 H946 0.950 . S
C958 C957 1.398 . S
C958 C959 1.391 . S
C959 H947 0.950 . S
C959 C955 1.393 . S
C959 C958 1.391 . S
C489 C255 2.210 . S
C495 C330 2.404 1_545 S
C515 C370 2.408 . S
C509 C295 2.219 . S
C535 C410 2.407 . S
C529 C175 2.209 . S
C555 C450 2.413 1_455 S
C549 C215 2.222 . S
C575 C339 2.412 1_565 S
C569 C95 2.230 . S
C589 C135 2.207 . S
C595 C379 2.409 . S
C609 C15 2.207 . S
C615 C419 2.408 . S
C629 C55 2.232 . S
C635 C459 2.412 1_655 S
C655 C336 0.417 . S
C649 C221 0.442 . S
C675 C376 0.444 . S
C669 C261 0.389 . S
C695 C416 0.460 . S
C689 C301 0.459 . S
C709 C181 0.387 . S
C715 C456 0.437 . S
C729 C61 0.481 1_655 S
C735 C327 0.424 . S
C755 C367 0.475 . S
C749 C101 0.541 1_565 S
C775 C407 0.431 . S
C769 C141 0.486 . S
C789 C21 0.505 . S
C795 C447 0.449 . S
C809 C202 3.128 . S
C815 C331 3.489 . S
C829 C242 3.138 . S
C835 C371 3.491 . S
C855 C411 3.482 . S
C849 C282 3.123 . S
C875 C451 3.486 . S
C869 C162 3.138 . S
C889 C42 3.149 1_655 S
C895 C322 3.490 . S
C915 C362 3.491 . S
C909 C82 3.147 1_565 S
C935 C402 3.482 . S
C929 C122 3.143 . S
C949 C2 3.142 . S
C955 C442 3.482 . S
