# Generated by pormake.
# Topology gar, (4,6)-cn, num edge types: 1
# Building blocks:
#     Node 0, Type 0, BuildingBlock: QUQFOY_clean_sbu_1, # of connection points: 4
#     Node 1, Type 0, BuildingBlock: QUQFOY_clean_sbu_1, # of connection points: 4
#     Node 2, Type 0, BuildingBlock: QUQFOY_clean_sbu_1, # of connection points: 4
#     Node 3, Type 0, BuildingBlock: QUQFOY_clean_sbu_1, # of connection points: 4
#     Node 4, Type 0, BuildingBlock: QUQFOY_clean_sbu_1, # of connection points: 4
#     Node 5, Type 0, BuildingBlock: QUQFOY_clean_sbu_1, # of connection points: 4
#     Node 6, Type 0, BuildingBlock: QUQFOY_clean_sbu_1, # of connection points: 4
#     Node 7, Type 0, BuildingBlock: QUQFOY_clean_sbu_1, # of connection points: 4
#     Node 8, Type 0, BuildingBlock: QUQFOY_clean_sbu_1, # of connection points: 4
#     Node 9, Type 0, BuildingBlock: QUQFOY_clean_sbu_1, # of connection points: 4
#     Node 10, Type 0, BuildingBlock: QUQFOY_clean_sbu_1, # of connection points: 4
#     Node 11, Type 0, BuildingBlock: QUQFOY_clean_sbu_1, # of connection points: 4
#     Node 12, Type 0, BuildingBlock: QUQFOY_clean_sbu_1, # of connection points: 4
#     Node 13, Type 0, BuildingBlock: QUQFOY_clean_sbu_1, # of connection points: 4
#     Node 14, Type 0, BuildingBlock: QUQFOY_clean_sbu_1, # of connection points: 4
#     Node 15, Type 0, BuildingBlock: QUQFOY_clean_sbu_1, # of connection points: 4
#     Node 16, Type 0, BuildingBlock: QUQFOY_clean_sbu_1, # of connection points: 4
#     Node 17, Type 0, BuildingBlock: QUQFOY_clean_sbu_1, # of connection points: 4
#     Node 18, Type 0, BuildingBlock: QUQFOY_clean_sbu_1, # of connection points: 4
#     Node 19, Type 0, BuildingBlock: QUQFOY_clean_sbu_1, # of connection points: 4
#     Node 20, Type 0, BuildingBlock: QUQFOY_clean_sbu_1, # of connection points: 4
#     Node 21, Type 0, BuildingBlock: QUQFOY_clean_sbu_1, # of connection points: 4
#     Node 22, Type 0, BuildingBlock: QUQFOY_clean_sbu_1, # of connection points: 4
#     Node 23, Type 0, BuildingBlock: QUQFOY_clean_sbu_1, # of connection points: 4
#     Node 24, Type 1, BuildingBlock: NUHQIS_clean_sbu_0, # of connection points: 6
#     Node 25, Type 1, BuildingBlock: NUHQIS_clean_sbu_0, # of connection points: 6
#     Node 26, Type 1, BuildingBlock: NUHQIS_clean_sbu_0, # of connection points: 6
#     Node 27, Type 1, BuildingBlock: NUHQIS_clean_sbu_0, # of connection points: 6
#     Node 28, Type 1, BuildingBlock: NUHQIS_clean_sbu_0, # of connection points: 6
#     Node 29, Type 1, BuildingBlock: NUHQIS_clean_sbu_0, # of connection points: 6
#     Node 30, Type 1, BuildingBlock: NUHQIS_clean_sbu_0, # of connection points: 6
#     Node 31, Type 1, BuildingBlock: NUHQIS_clean_sbu_0, # of connection points: 6
#     Node 32, Type 1, BuildingBlock: NUHQIS_clean_sbu_0, # of connection points: 6
#     Node 33, Type 1, BuildingBlock: NUHQIS_clean_sbu_0, # of connection points: 6
#     Node 34, Type 1, BuildingBlock: NUHQIS_clean_sbu_0, # of connection points: 6
#     Node 35, Type 1, BuildingBlock: NUHQIS_clean_sbu_0, # of connection points: 6
#     Node 36, Type 1, BuildingBlock: NUHQIS_clean_sbu_0, # of connection points: 6
#     Node 37, Type 1, BuildingBlock: NUHQIS_clean_sbu_0, # of connection points: 6
#     Node 38, Type 1, BuildingBlock: NUHQIS_clean_sbu_0, # of connection points: 6
#     Node 39, Type 1, BuildingBlock: NUHQIS_clean_sbu_0, # of connection points: 6
#     Edge 40, Type (0, 1), BuildingBlock: MIFKUJ_clean_linker_0, # of connection points: 2
#     Edge 41, Type (0, 1), BuildingBlock: MIFKUJ_clean_linker_0, # of connection points: 2
#     Edge 42, Type (0, 1), BuildingBlock: MIFKUJ_clean_linker_0, # of connection points: 2
#     Edge 43, Type (0, 1), BuildingBlock: MIFKUJ_clean_linker_0, # of connection points: 2
#     Edge 44, Type (0, 1), BuildingBlock: MIFKUJ_clean_linker_0, # of connection points: 2
#     Edge 45, Type (0, 1), BuildingBlock: MIFKUJ_clean_linker_0, # of connection points: 2
#     Edge 46, Type (0, 1), BuildingBlock: MIFKUJ_clean_linker_0, # of connection points: 2
#     Edge 47, Type (0, 1), BuildingBlock: MIFKUJ_clean_linker_0, # of connection points: 2
#     Edge 48, Type (0, 1), BuildingBlock: MIFKUJ_clean_linker_0, # of connection points: 2
#     Edge 49, Type (0, 1), BuildingBlock: MIFKUJ_clean_linker_0, # of connection points: 2
#     Edge 50, Type (0, 1), BuildingBlock: MIFKUJ_clean_linker_0, # of connection points: 2
#     Edge 51, Type (0, 1), BuildingBlock: MIFKUJ_clean_linker_0, # of connection points: 2
#     Edge 52, Type (0, 1), BuildingBlock: MIFKUJ_clean_linker_0, # of connection points: 2
#     Edge 53, Type (0, 1), BuildingBlock: MIFKUJ_clean_linker_0, # of connection points: 2
#     Edge 54, Type (0, 1), BuildingBlock: MIFKUJ_clean_linker_0, # of connection points: 2
#     Edge 55, Type (0, 1), BuildingBlock: MIFKUJ_clean_linker_0, # of connection points: 2
#     Edge 56, Type (0, 1), BuildingBlock: MIFKUJ_clean_linker_0, # of connection points: 2
#     Edge 57, Type (0, 1), BuildingBlock: MIFKUJ_clean_linker_0, # of connection points: 2
#     Edge 58, Type (0, 1), BuildingBlock: MIFKUJ_clean_linker_0, # of connection points: 2
#     Edge 59, Type (0, 1), BuildingBlock: MIFKUJ_clean_linker_0, # of connection points: 2
#     Edge 60, Type (0, 1), BuildingBlock: MIFKUJ_clean_linker_0, # of connection points: 2
#     Edge 61, Type (0, 1), BuildingBlock: MIFKUJ_clean_linker_0, # of connection points: 2
#     Edge 62, Type (0, 1), BuildingBlock: MIFKUJ_clean_linker_0, # of connection points: 2
#     Edge 63, Type (0, 1), BuildingBlock: MIFKUJ_clean_linker_0, # of connection points: 2
#     Edge 64, Type (0, 1), BuildingBlock: MIFKUJ_clean_linker_0, # of connection points: 2
#     Edge 65, Type (0, 1), BuildingBlock: MIFKUJ_clean_linker_0, # of connection points: 2
#     Edge 66, Type (0, 1), BuildingBlock: MIFKUJ_clean_linker_0, # of connection points: 2
#     Edge 67, Type (0, 1), BuildingBlock: MIFKUJ_clean_linker_0, # of connection points: 2
#     Edge 68, Type (0, 1), BuildingBlock: MIFKUJ_clean_linker_0, # of connection points: 2
#     Edge 69, Type (0, 1), BuildingBlock: MIFKUJ_clean_linker_0, # of connection points: 2
#     Edge 70, Type (0, 1), BuildingBlock: MIFKUJ_clean_linker_0, # of connection points: 2
#     Edge 71, Type (0, 1), BuildingBlock: MIFKUJ_clean_linker_0, # of connection points: 2
#     Edge 72, Type (0, 1), BuildingBlock: MIFKUJ_clean_linker_0, # of connection points: 2
#     Edge 73, Type (0, 1), BuildingBlock: MIFKUJ_clean_linker_0, # of connection points: 2
#     Edge 74, Type (0, 1), BuildingBlock: MIFKUJ_clean_linker_0, # of connection points: 2
#     Edge 75, Type (0, 1), BuildingBlock: MIFKUJ_clean_linker_0, # of connection points: 2
#     Edge 76, Type (0, 1), BuildingBlock: MIFKUJ_clean_linker_0, # of connection points: 2
#     Edge 77, Type (0, 1), BuildingBlock: MIFKUJ_clean_linker_0, # of connection points: 2
#     Edge 78, Type (0, 1), BuildingBlock: MIFKUJ_clean_linker_0, # of connection points: 2
#     Edge 79, Type (0, 1), BuildingBlock: MIFKUJ_clean_linker_0, # of connection points: 2
#     Edge 80, Type (0, 1), BuildingBlock: MIFKUJ_clean_linker_0, # of connection points: 2
#     Edge 81, Type (0, 1), BuildingBlock: MIFKUJ_clean_linker_0, # of connection points: 2
#     Edge 82, Type (0, 1), BuildingBlock: MIFKUJ_clean_linker_0, # of connection points: 2
#     Edge 83, Type (0, 1), BuildingBlock: MIFKUJ_clean_linker_0, # of connection points: 2
#     Edge 84, Type (0, 1), BuildingBlock: MIFKUJ_clean_linker_0, # of connection points: 2
#     Edge 85, Type (0, 1), BuildingBlock: MIFKUJ_clean_linker_0, # of connection points: 2
#     Edge 86, Type (0, 1), BuildingBlock: MIFKUJ_clean_linker_0, # of connection points: 2
#     Edge 87, Type (0, 1), BuildingBlock: MIFKUJ_clean_linker_0, # of connection points: 2
#     Edge 88, Type (0, 1), BuildingBlock: MIFKUJ_clean_linker_0, # of connection points: 2
#     Edge 89, Type (0, 1), BuildingBlock: MIFKUJ_clean_linker_0, # of connection points: 2
#     Edge 90, Type (0, 1), BuildingBlock: MIFKUJ_clean_linker_0, # of connection points: 2
#     Edge 91, Type (0, 1), BuildingBlock: MIFKUJ_clean_linker_0, # of connection points: 2
#     Edge 92, Type (0, 1), BuildingBlock: MIFKUJ_clean_linker_0, # of connection points: 2
#     Edge 93, Type (0, 1), BuildingBlock: MIFKUJ_clean_linker_0, # of connection points: 2
#     Edge 94, Type (0, 1), BuildingBlock: MIFKUJ_clean_linker_0, # of connection points: 2
#     Edge 95, Type (0, 1), BuildingBlock: MIFKUJ_clean_linker_0, # of connection points: 2
#     Edge 96, Type (0, 1), BuildingBlock: MIFKUJ_clean_linker_0, # of connection points: 2
#     Edge 97, Type (0, 1), BuildingBlock: MIFKUJ_clean_linker_0, # of connection points: 2
#     Edge 98, Type (0, 1), BuildingBlock: MIFKUJ_clean_linker_0, # of connection points: 2
#     Edge 99, Type (0, 1), BuildingBlock: MIFKUJ_clean_linker_0, # of connection points: 2
#     Edge 100, Type (0, 1), BuildingBlock: MIFKUJ_clean_linker_0, # of connection points: 2
#     Edge 101, Type (0, 1), BuildingBlock: MIFKUJ_clean_linker_0, # of connection points: 2
#     Edge 102, Type (0, 1), BuildingBlock: MIFKUJ_clean_linker_0, # of connection points: 2
#     Edge 103, Type (0, 1), BuildingBlock: MIFKUJ_clean_linker_0, # of connection points: 2
#     Edge 104, Type (0, 1), BuildingBlock: MIFKUJ_clean_linker_0, # of connection points: 2
#     Edge 105, Type (0, 1), BuildingBlock: MIFKUJ_clean_linker_0, # of connection points: 2
#     Edge 106, Type (0, 1), BuildingBlock: MIFKUJ_clean_linker_0, # of connection points: 2
#     Edge 107, Type (0, 1), BuildingBlock: MIFKUJ_clean_linker_0, # of connection points: 2
#     Edge 108, Type (0, 1), BuildingBlock: MIFKUJ_clean_linker_0, # of connection points: 2
#     Edge 109, Type (0, 1), BuildingBlock: MIFKUJ_clean_linker_0, # of connection points: 2
#     Edge 110, Type (0, 1), BuildingBlock: MIFKUJ_clean_linker_0, # of connection points: 2
#     Edge 111, Type (0, 1), BuildingBlock: MIFKUJ_clean_linker_0, # of connection points: 2
#     Edge 112, Type (0, 1), BuildingBlock: MIFKUJ_clean_linker_0, # of connection points: 2
#     Edge 113, Type (0, 1), BuildingBlock: MIFKUJ_clean_linker_0, # of connection points: 2
#     Edge 114, Type (0, 1), BuildingBlock: MIFKUJ_clean_linker_0, # of connection points: 2
#     Edge 115, Type (0, 1), BuildingBlock: MIFKUJ_clean_linker_0, # of connection points: 2
#     Edge 116, Type (0, 1), BuildingBlock: MIFKUJ_clean_linker_0, # of connection points: 2
#     Edge 117, Type (0, 1), BuildingBlock: MIFKUJ_clean_linker_0, # of connection points: 2
#     Edge 118, Type (0, 1), BuildingBlock: MIFKUJ_clean_linker_0, # of connection points: 2
#     Edge 119, Type (0, 1), BuildingBlock: MIFKUJ_clean_linker_0, # of connection points: 2
#     Edge 120, Type (0, 1), BuildingBlock: MIFKUJ_clean_linker_0, # of connection points: 2
#     Edge 121, Type (0, 1), BuildingBlock: MIFKUJ_clean_linker_0, # of connection points: 2
#     Edge 122, Type (0, 1), BuildingBlock: MIFKUJ_clean_linker_0, # of connection points: 2
#     Edge 123, Type (0, 1), BuildingBlock: MIFKUJ_clean_linker_0, # of connection points: 2
#     Edge 124, Type (0, 1), BuildingBlock: MIFKUJ_clean_linker_0, # of connection points: 2
#     Edge 125, Type (0, 1), BuildingBlock: MIFKUJ_clean_linker_0, # of connection points: 2
#     Edge 126, Type (0, 1), BuildingBlock: MIFKUJ_clean_linker_0, # of connection points: 2
#     Edge 127, Type (0, 1), BuildingBlock: MIFKUJ_clean_linker_0, # of connection points: 2
#     Edge 128, Type (0, 1), BuildingBlock: MIFKUJ_clean_linker_0, # of connection points: 2
#     Edge 129, Type (0, 1), BuildingBlock: MIFKUJ_clean_linker_0, # of connection points: 2
#     Edge 130, Type (0, 1), BuildingBlock: MIFKUJ_clean_linker_0, # of connection points: 2
#     Edge 131, Type (0, 1), BuildingBlock: MIFKUJ_clean_linker_0, # of connection points: 2
#     Edge 132, Type (0, 1), BuildingBlock: MIFKUJ_clean_linker_0, # of connection points: 2
#     Edge 133, Type (0, 1), BuildingBlock: MIFKUJ_clean_linker_0, # of connection points: 2
#     Edge 134, Type (0, 1), BuildingBlock: MIFKUJ_clean_linker_0, # of connection points: 2
#     Edge 135, Type (0, 1), BuildingBlock: MIFKUJ_clean_linker_0, # of connection points: 2
# Relax obj value: 0.183
# Max RMSD: 0.290
# Mean RMSD: 0.168
data_MOF--net-gar--node1-QUQFOY_clean_sbu_1--node2-NUHQIS_clean_sbu_0--edge1-MIFKUJ_clean_linker_0
_symmetry_space_group_name_H-M    P1
_symmetry_Int_Tables_number       1
_symmetry_cell_setting            triclinic
loop_
_symmetry_equiv_pos_as_xyz
'x, y, z'
_cell_length_a     75.700254
_cell_length_b     78.296599
_cell_length_c     74.864149
_cell_angle_alpha  93.743969
_cell_angle_beta   96.729045
_cell_angle_gamma 102.90219
loop_
_atom_site_label
_atom_site_type_symbol
_atom_site_fract_x
_atom_site_fract_y
_atom_site_fract_z
_atom_type_partial_charge
O0 O 0.05446 0.24452 0.4151 0.0
Cd1 Cd 0.05782 0.26177 0.39272 0.0
Cd2 Cd 0.03826 0.28363 0.42922 0.0
O3 O 0.04319 0.25709 0.43795 0.0
O4 O 0.07149 0.25175 0.37212 0.0
O5 O 0.08505 0.27544 0.38919 0.0
C6 C 0.08616 0.26418 0.37618 0.0
C7 C 0.04076 0.31445 0.44597 0.0
C8 C 0.04879 0.24373 0.43084 0.0
C9 C 0.01846 0.27389 0.38737 0.0
O10 O 0.02004 0.27931 0.40423 0.0
O11 O 0.03154 0.26812 0.38094 0.0
O12 O 0.02737 0.30097 0.44643 0.0
O13 O 0.05344 0.31056 0.43735 0.0
O14 O 0.02194 0.75177 0.64697 0.0
Cd15 Cd 0.02304 0.77161 0.66916 0.0
Cd16 Cd 0.04656 0.79528 0.63809 0.0
O17 O 0.03816 0.76647 0.62704 0.0
O18 O 1.00442 0.76135 0.68754 0.0
O19 O 1.00142 0.7843 0.67402 0.0
C20 C 0.9951 0.77319 0.6851 0.0
C21 C 0.04624 0.82483 0.62402 0.0
C22 C 0.02962 0.75163 0.63241 0.0
C23 C 0.06717 0.78845 0.67595 0.0
O24 O 0.06688 0.79562 0.66089 0.0
O25 O 0.05208 0.78006 0.68118 0.0
O26 O 0.05628 0.81431 0.61939 0.0
O27 O 0.03588 0.81869 0.63582 0.0
O28 O 0.58715 0.77414 0.90584 0.0
Cd29 Cd 0.56864 0.77125 0.92731 0.0
Cd30 Cd 0.54805 0.78986 0.89104 0.0
O31 O 0.57295 0.78378 0.8818 0.0
O32 O 0.57705 0.7546 0.94747 0.0
O33 O 0.55267 0.74451 0.92858 0.0
C34 C 0.56369 0.74116 0.94176 0.0
C35 C 0.51724 0.78551 0.87275 0.0
C36 C 0.58693 0.77865 0.88941 0.0
C37 C 0.55768 0.81104 0.93068 0.0
O38 O 0.55281 0.80958 0.91349 0.0
O39 O 0.56269 0.7978 0.93817 0.0
O40 O 0.53113 0.79769 0.87027 0.0
O41 O 0.52079 0.77516 0.88475 0.0
O42 O 0.52912 0.24302 0.14539 0.0
Cd43 Cd 0.52934 0.26328 0.16711 0.0
Cd44 Cd 0.5516 0.2865 0.13585 0.0
O45 O 0.54271 0.25772 0.12394 0.0
O46 O 0.50985 0.25337 0.18487 0.0
O47 O 0.50773 0.27637 0.17106 0.0
C48 C 0.50083 0.26538 0.182 0.0
C49 C 0.55066 0.3164 0.12254 0.0
C50 C 0.53536 0.2428 0.13001 0.0
C51 C 0.57313 0.28058 0.17406 0.0
O52 O 0.57249 0.28687 0.1585 0.0
O53 O 0.55815 0.27256 0.17976 0.0
O54 O 0.5606 0.30603 0.11733 0.0
O55 O 0.54069 0.30994 0.13452 0.0
O56 O 0.07014 0.80666 0.16033 0.0
Cd57 Cd 0.07333 0.83081 0.17416 0.0
Cd58 Cd 0.08958 0.83988 0.14648 0.0
O59 O 0.08087 0.81483 0.13528 0.0
O60 O 0.06004 0.8235 0.19448 0.0
O61 O 0.05063 0.83995 0.17413 0.0
C62 C 0.04779 0.83126 0.18798 0.0
C63 C 0.08014 0.86273 0.13523 0.0
C64 C 0.07344 0.80296 0.14453 0.0
C65 C 0.11326 0.84584 0.18095 0.0
O66 O 0.11277 0.84496 0.16397 0.0
O67 O 0.09855 0.84241 0.18795 0.0
O68 O 0.09289 0.85686 0.12858 0.0
O69 O 0.07231 0.85505 0.14798 0.0
O70 O 0.54078 0.73525 0.40389 0.0
Cd71 Cd 0.51714 0.73082 0.41573 0.0
Cd72 Cd 0.5064 0.74066 0.38547 0.0
O73 O 0.52658 0.731 0.37612 0.0
O74 O 0.52388 0.72082 0.43822 0.0
O75 O 0.50294 0.70595 0.41604 0.0
C76 C 0.51215 0.70655 0.4318 0.0
C77 C 0.47845 0.7383 0.36866 0.0
C78 C 0.54118 0.73306 0.38701 0.0
C79 C 0.51258 0.76598 0.41712 0.0
O80 O 0.5147 0.76434 0.40064 0.0
O81 O 0.50948 0.75249 0.42573 0.0
O82 O 0.49321 0.74754 0.36401 0.0
O83 O 0.47975 0.72905 0.38223 0.0
O84 O 0.57894 0.30431 0.66216 0.0
Cd85 Cd 0.58158 0.32846 0.67563 0.0
Cd86 Cd 0.59479 0.33866 0.64695 0.0
O87 O 0.58439 0.3136 0.63576 0.0
O88 O 0.56797 0.32187 0.696 0.0
O89 O 0.55845 0.33691 0.67424 0.0
C90 C 0.55541 0.32871 0.68838 0.0
C91 C 0.58531 0.3618 0.6358 0.0
C92 C 0.57963 0.30118 0.64548 0.0
C93 C 0.62119 0.34356 0.67987 0.0
O94 O 0.61928 0.34267 0.66276 0.0
O95 O 0.60724 0.34076 0.68812 0.0
O96 O 0.59646 0.35468 0.62779 0.0
O97 O 0.57942 0.35563 0.65015 0.0
O98 O 0.0141 0.20398 0.90256 0.0
Cd99 Cd 0.01434 0.22272 0.885 0.0
Cd100 Cd 1.009 0.24295 0.91209 0.0
O101 O 0.01781 0.22411 0.92554 0.0
O102 O 0.03142 0.22138 0.86731 0.0
O103 O 0.03609 0.24268 0.88984 0.0
C104 C 0.04161 0.23558 0.87614 0.0
C105 C 0.01822 0.27117 0.92608 0.0
C106 C 0.01746 0.20858 0.91939 0.0
C107 C 0.97891 0.23166 0.88131 0.0
O108 O 0.98347 0.23773 0.89772 0.0
O109 O 0.99008 0.22585 0.87265 0.0
O110 O 1.00658 0.25924 0.93233 0.0
O111 O 0.02501 0.26699 0.91186 0.0
O112 O 0.47005 0.07912 0.27434 0.0
Cd113 Cd 0.46301 0.0807 0.29983 0.0
Cd114 Cd 0.49459 0.07631 0.30428 0.0
O115 O 0.49943 0.0893 0.28228 0.0
O116 O 0.43793 0.0833 0.29414 0.0
O117 O 0.45979 0.10366 0.31074 0.0
C118 C 0.44311 0.0986 0.30294 0.0
C119 C 0.50649 0.08351 0.33338 0.0
C120 C 0.48589 0.08443 0.26995 0.0
C121 C 0.46552 0.04581 0.30519 0.0
O122 O 0.48064 0.05048 0.29914 0.0
O123 O 0.45766 0.05738 0.31084 0.0
O124 O 0.51585 0.07756 0.32203 0.0
O125 O 0.49132 0.08754 0.32741 0.0
O126 O 0.32652 0.16198 0.5598 0.0
Cd127 Cd 0.32614 0.1399 0.54019 0.0
Cd128 Cd 0.30576 0.16946 0.51648 0.0
O129 O 0.31315 0.18092 0.54482 0.0
O130 O 0.34211 0.12201 0.55008 0.0
O131 O 0.3506 0.13809 0.52884 0.0
C132 C 0.35418 0.12644 0.5393 0.0
C133 C 0.30681 0.18472 0.48744 0.0
C134 C 0.32026 0.1761 0.55979 0.0
C135 C 0.28281 0.13138 0.52361 0.0
O136 O 0.28485 0.14628 0.51684 0.0
O137 O 0.29686 0.12654 0.53158 0.0
O138 O 0.29461 0.18524 0.49807 0.0
O139 O 0.31888 0.17629 0.49329 0.0
O140 O 0.17698 0.03525 0.80845 0.0
Cd141 Cd 0.1956 0.03721 0.83074 0.0
Cd142 Cd 0.17078 0.05281 0.84359 0.0
O143 O 0.15481 0.04465 0.81935 0.0
O144 O 0.21157 0.02563 0.81801 0.0
O145 O 0.19791 0.01434 0.84053 0.0
C146 C 0.2074 0.01268 0.82757 0.0
C147 C 0.15756 0.04876 0.86943 0.0
C148 C 0.16113 0.03812 0.80628 0.0
C149 C 0.20796 0.07508 0.84195 0.0
O150 O 0.19158 0.0745 0.8444 0.0
O151 O 0.21303 0.06115 0.83778 0.0
O152 O 0.1547 0.06082 0.85931 0.0
O153 O 0.16791 0.03867 0.86466 0.0
O154 O 0.29536 0.87599 0.06203 0.0
Cd155 Cd 0.29285 0.89286 0.04269 0.0
Cd156 Cd 0.30628 0.86429 0.02399 0.0
O157 O 0.30096 0.85232 0.04794 0.0
O158 O 0.28506 0.91153 0.05723 0.0
O159 O 0.26806 0.89668 0.03284 0.0
C160 C 0.27018 0.90858 0.04617 0.0
C161 C 0.29981 0.85004 0.99399 0.0
C162 C 0.29816 0.8606 0.06226 0.0
C163 C 0.33052 0.90172 0.03235 0.0
O164 O 0.32887 0.88545 0.02768 0.0
O165 O 0.31707 0.90737 0.03688 0.0
O166 O 0.31302 0.8477 0.00539 0.0
O167 O 0.2894 0.85956 0.99987 0.0
O168 O 0.27338 0.39689 0.06908 0.0
Cd169 Cd 0.27275 0.41915 0.05247 0.0
Cd170 Cd 0.29093 0.38605 0.02778 0.0
O171 O 0.28483 0.37655 0.05436 0.0
O172 O 0.25906 0.43812 0.0635 0.0
O173 O 0.24642 0.42126 0.03933 0.0
C174 C 0.24498 0.43352 0.05115 0.0
C175 C 0.28899 0.36867 0.99763 0.0
C176 C 0.2786 0.38216 0.06859 0.0
C177 C 0.3135 0.42636 0.038 0.0
O178 O 0.31063 0.41047 0.03082 0.0
O179 O 0.30094 0.43163 0.04597 0.0
O180 O 0.30191 0.3695 0.0108 0.0
O181 O 0.27648 0.3766 1.00159 0.0
O182 O 0.79294 0.18859 0.05129 0.0
Cd183 Cd 0.78883 0.17219 0.02764 0.0
Cd184 Cd 0.77093 0.19668 0.01448 0.0
O185 O 0.77966 0.20907 0.04085 0.0
O186 O 0.80356 0.1545 0.03276 0.0
O187 O 0.80894 0.17313 0.01194 0.0
C188 C 0.81294 0.16028 0.02025 0.0
C189 C 0.77659 0.2088 0.98706 0.0
C190 C 0.78794 0.20292 0.05392 0.0
C191 C 0.7482 0.1603 0.01504 0.0
O192 O 0.74818 0.1761 0.01213 0.0
O193 O 0.76305 0.15611 0.02049 0.0
O194 O 0.76515 0.21359 0.99672 0.0
O195 O 0.78572 0.19794 0.99354 0.0
O196 O 0.12617 0.48228 0.2469 0.0
Cd197 Cd 0.13449 0.48451 0.27384 0.0
Cd198 Cd 0.10284 0.48716 0.27232 0.0
O199 O 0.0976 0.47079 0.24931 0.0
O200 O 0.15817 0.47853 0.27516 0.0
O201 O 0.13427 0.46291 0.28624 0.0
C202 C 0.15091 0.46492 0.28282 0.0
C203 C 0.09252 0.4842 0.2991 0.0
C204 C 0.11006 0.47526 0.23945 0.0
C205 C 0.13081 0.51948 0.27882 0.0
O206 O 0.11507 0.51294 0.27014 0.0
O207 O 0.1404 0.5095 0.28548 0.0
O208 O 0.08207 0.48734 0.28533 0.0
O209 O 0.10772 0.48002 0.29663 0.0
O210 O 0.77571 0.89889 0.57418 0.0
Cd211 Cd 0.77531 0.91996 0.55575 0.0
Cd212 Cd 0.79199 0.88678 0.53353 0.0
O213 O 0.78607 0.87754 0.56005 0.0
O214 O 0.76127 0.93922 0.565 0.0
O215 O 0.74912 0.92088 0.54166 0.0
C216 C 0.74739 0.93374 0.55257 0.0
C217 C 0.7883 0.86961 0.50321 0.0
C218 C 0.78036 0.88389 0.5742 0.0
C219 C 0.81606 0.92642 0.54212 0.0
O220 O 0.81301 0.91008 0.53646 0.0
O221 O 0.80327 0.93256 0.54872 0.0
O222 O 0.801 0.86914 0.51618 0.0
O223 O 0.77688 0.87875 0.50752 0.0
O224 O 0.89875 0.0154 0.18868 0.0
Cd225 Cd 0.88048 0.01276 0.20705 0.0
Cd226 Cd 0.90854 0.00994 0.23076 0.0
O227 O 0.92197 0.01936 0.2104 0.0
O228 O 0.86444 0.02967 0.20505 0.0
O229 O 0.88693 0.03135 0.22745 0.0
C230 C 0.87404 0.03782 0.21984 0.0
C231 C 0.92417 0.0183 0.25943 0.0
C232 C 0.91585 0.01916 0.19389 0.0
C233 C 0.8774 0.97831 0.22065 0.0
O234 O 0.89384 0.98468 0.2276 0.0
O235 O 0.86818 0.98783 0.21242 0.0
O236 O 0.92968 0.00832 0.24807 0.0
O237 O 0.90972 0.02384 0.25452 0.0
O238 O 0.28986 0.68499 0.54544 0.0
Cd239 Cd 0.28706 0.66884 0.522 0.0
Cd240 Cd 0.27138 0.69481 0.50776 0.0
O241 O 0.28115 0.70761 0.53401 0.0
O242 O 0.30031 0.65024 0.52859 0.0
O243 O 0.30876 0.66883 0.50851 0.0
C244 C 0.31135 0.65574 0.51728 0.0
C245 C 0.27689 0.70617 0.47993 0.0
C246 C 0.28693 0.70032 0.54761 0.0
C247 C 0.24663 0.65925 0.50888 0.0
O248 O 0.24759 0.67524 0.50599 0.0
O249 O 0.26094 0.65402 0.51409 0.0
O250 O 0.26663 0.71224 0.49011 0.0
O251 O 0.28501 0.69443 0.48603 0.0
O252 O 0.39698 0.51511 0.69498 0.0
Cd253 Cd 0.38353 0.515 0.71734 0.0
Cd254 Cd 0.41338 0.51096 0.7327 0.0
O255 O 0.42314 0.52488 0.71262 0.0
O256 O 0.36565 0.52988 0.7153 0.0
O257 O 0.39146 0.53651 0.73451 0.0
C258 C 0.37661 0.5406 0.7278 0.0
C259 C 0.42868 0.51742 0.76157 0.0
C260 C 0.41398 0.52211 0.69703 0.0
C261 C 0.383 0.48026 0.72731 0.0
O262 O 0.4 0.48511 0.72667 0.0
O263 O 0.37312 0.49137 0.72669 0.0
O264 O 0.43535 0.50984 0.74903 0.0
O265 O 0.41339 0.52187 0.75751 0.0
O266 O 0.62597 0.98518 0.74409 0.0
Cd267 Cd 0.63076 0.98684 0.77145 0.0
Cd268 Cd 0.5996 0.99157 0.76482 0.0
O269 O 0.59615 0.97651 0.74111 0.0
O270 O 0.65457 0.98106 0.77477 0.0
O271 O 0.62974 0.96496 0.78378 0.0
C272 C 0.64677 0.96722 0.78173 0.0
C273 C 0.58776 0.98771 0.7907 0.0
C274 C 0.61081 0.97984 0.73401 0.0
C275 C 0.62879 0.02264 0.77598 0.0
O276 O 0.61424 0.0171 0.76495 0.0
O277 O 0.63633 0.01171 0.7838 0.0
O278 O 0.57847 0.99258 0.77711 0.0
O279 O 0.60224 0.98218 0.78833 0.0
O280 O 0.82512 0.66418 0.06694 0.0
Cd281 Cd 0.82544 0.64237 0.04739 0.0
Cd282 Cd 0.80532 0.67184 0.02334 0.0
O283 O 0.81284 0.68353 0.05154 0.0
O284 O 0.84149 0.62492 0.05798 0.0
O285 O 0.84984 0.64028 0.03618 0.0
C286 C 0.85351 0.629 0.04708 0.0
C287 C 0.80674 0.68701 0.99431 0.0
C288 C 0.81938 0.67856 0.06664 0.0
C289 C 0.78238 0.63363 0.0302 0.0
O290 O 0.78426 0.64868 0.0237 0.0
O291 O 0.79647 0.62885 0.03815 0.0
O292 O 0.79549 0.68895 0.0056 0.0
O293 O 0.81762 0.67713 0.99944 0.0
O294 O 0.96842 0.58516 0.77926 0.0
Cd295 Cd 0.95825 0.58404 0.80319 0.0
Cd296 Cd 0.98841 0.57805 0.81166 0.0
O297 O 0.99717 0.59208 0.79121 0.0
O298 O 0.93583 0.59226 0.79784 0.0
O299 O 0.95962 0.60689 0.81747 0.0
C300 C 0.94362 0.60591 0.8088 0.0
C301 C 0.99673 0.58347 0.84171 0.0
C302 C 0.98518 0.58994 0.77742 0.0
C303 C 0.95812 0.54765 0.80682 0.0
O304 O 0.97478 0.55241 0.80455 0.0
O305 O 0.9491 0.55911 0.80997 0.0
O306 O 1.0075 0.57809 0.83159 0.0
O307 O 0.98216 0.58766 0.8344 0.0
O308 O 0.79715 0.37454 0.56835 0.0
Cd309 Cd 0.79436 0.39114 0.54864 0.0
Cd310 Cd 0.80822 0.3624 0.53073 0.0
O311 O 0.80305 0.35082 0.55473 0.0
O312 O 0.787 0.41027 0.56299 0.0
O313 O 0.76938 0.39492 0.5392 0.0
C314 C 0.77189 0.40717 0.55225 0.0
C315 C 0.80165 0.34791 0.50098 0.0
C316 C 0.80016 0.35923 0.56891 0.0
C317 C 0.83194 0.39978 0.5377 0.0
O318 O 0.83069 0.38343 0.53406 0.0
O319 O 0.8183 0.40543 0.54172 0.0
O320 O 0.81473 0.34543 0.51246 0.0
O321 O 0.79142 0.3577 0.5067 0.0
O322 O 0.69064 0.53882 0.31068 0.0
Cd323 Cd 0.70635 0.53826 0.33458 0.0
Cd324 Cd 0.6788 0.54634 0.34707 0.0
O325 O 0.66504 0.53499 0.32255 0.0
O326 O 0.72461 0.52602 0.327 0.0
O327 O 0.70375 0.51467 0.34413 0.0
C328 C 0.7168 0.51289 0.335 0.0
C329 C 0.66329 0.54271 0.37168 0.0
C330 C 0.67334 0.53535 0.3088 0.0
C331 C 0.71302 0.57432 0.34829 0.0
O332 O 0.69578 0.57072 0.3477 0.0
O333 O 0.72129 0.56211 0.34612 0.0
O334 O 0.65924 0.55244 0.35937 0.0
O335 O 0.6761 0.53453 0.3698 0.0
Tb336 Tb 0.02318 0.03455 0.03199 0.0
Eu337 Eu 0.07356 0.05121 0.04782 0.0
C338 C 0.04938 0.02708 0.01197 0.0
C339 C 0.04784 0.01228 0.05473 0.0
C340 C 0.9763 0.04241 0.02451 0.0
C341 C 0.95425 0.05229 0.00378 0.0
C342 C 0.96636 0.04145 0.00725 0.0
C343 C 0.9738 0.0544 0.03826 0.0
C344 C 0.96172 0.06528 0.03477 0.0
C345 C 0.95179 0.06431 0.0175 0.0
C346 C 0.98898 0.03073 0.02785 0.0
O347 O 0.03719 0.05604 0.0524 0.0
O348 O 0.06143 0.05569 0.07274 0.0
O349 O 0.06411 0.07291 0.03436 0.0
O350 O 0.03385 0.05929 0.02082 0.0
C351 C 0.04381 0.05438 0.06906 0.0
O352 O 0.10109 0.05841 0.06262 0.0
O353 O 0.09666 0.04994 0.03362 0.0
O354 O 0.05327 0.03412 0.0283 0.0
O355 O 0.03187 0.02295 0.00786 0.0
O356 O 0.0317 0.01419 0.04718 0.0
O357 O 0.06378 0.02377 0.05541 0.0
C358 C 0.04873 0.07246 0.02364 0.0
O359 O 0.99832 0.0282 0.01474 0.0
O360 O 0.99897 0.03283 0.04365 0.0
C361 C 0.11982 0.04041 0.05184 0.0
C362 C 0.1418 0.01604 0.05794 0.0
C363 C 0.14102 0.02872 0.07184 0.0
C364 C 0.13018 0.04083 0.06879 0.0
C365 C 0.12062 0.02773 0.03798 0.0
C366 C 0.13155 0.01578 0.04096 0.0
C367 C 0.10816 0.05306 0.04867 0.0
H368 H 0.94687 0.0513 0.99031 0.0
H369 H 0.96792 0.03227 0.99642 0.0
H370 H 0.98096 0.05528 0.05177 0.0
H371 H 0.95985 0.07417 0.04572 0.0
H372 H 0.14865 0.0292 0.08511 0.0
H373 H 0.12986 0.05046 0.07973 0.0
H374 H 0.1129 0.02705 0.02472 0.0
H375 H 0.13217 0.0065 0.0298 0.0
Tb376 Tb 0.29716 0.80347 0.28331 0.0
Eu377 Eu 0.28016 0.76203 0.25704 0.0
C378 C 0.25869 0.79282 0.27166 0.0
C379 C 0.28164 0.76672 0.30122 0.0
C380 C 0.32915 0.84647 0.29674 0.0
C381 C 0.33761 0.87792 0.29498 0.0
C382 C 0.3262 0.86329 0.3005 0.0
C383 C 0.34378 0.84441 0.2875 0.0
C384 C 0.35538 0.85912 0.2822 0.0
C385 C 0.35223 0.87591 0.28578 0.0
C386 C 0.31579 0.83129 0.30113 0.0
O387 O 0.3164 0.78934 0.27317 0.0
O388 O 0.30595 0.75946 0.27145 0.0
O389 O 0.29277 0.7813 0.23875 0.0
O390 O 0.29545 0.80875 0.25453 0.0
C391 C 0.31815 0.77379 0.2778 0.0
O392 O 0.27593 0.73825 0.23885 0.0
O393 O 0.25264 0.74877 0.24499 0.0
O394 O 0.26675 0.78129 0.26619 0.0
O395 O 0.26909 0.80614 0.28154 0.0
O396 O 0.28778 0.78406 0.30207 0.0
O397 O 0.27816 0.75603 0.28606 0.0
C398 C 0.29503 0.79855 0.23948 0.0
O399 O 0.29935 0.82967 0.29282 0.0
O400 O 0.32051 0.81625 0.30128 0.0
C401 C 0.24867 0.71848 0.24304 0.0
C402 C 0.22928 0.68886 0.25697 0.0
C403 C 0.24813 0.69484 0.26234 0.0
C404 C 0.25776 0.70967 0.25553 0.0
C405 C 0.22988 0.71231 0.23738 0.0
C406 C 0.22019 0.69754 0.24435 0.0
C407 C 0.25808 0.73542 0.23797 0.0
H408 H 0.33515 0.89083 0.29811 0.0
H409 H 0.31487 0.86506 0.30746 0.0
H410 H 0.34611 0.83149 0.28418 0.0
H411 H 0.36665 0.85739 0.27514 0.0
H412 H 0.2553 0.68833 0.27216 0.0
H413 H 0.27218 0.71453 0.26046 0.0
H414 H 0.22264 0.71921 0.22803 0.0
H415 H 0.20564 0.69293 0.23995 0.0
Tb416 Tb 0.53843 0.01308 0.53373 0.0
Eu417 Eu 0.56527 0.05112 0.54282 0.0
C418 C 0.54855 0.03016 0.57322 0.0
C419 C 0.52091 0.04843 0.53839 0.0
C420 C 0.52064 0.96704 0.51701 0.0
C421 C 0.53486 0.94248 0.52116 0.0
C422 C 0.5308 0.95784 0.52811 0.0
C423 C 0.51482 0.96073 0.49881 0.0
C424 C 0.519 0.9454 0.49183 0.0
C425 C 0.52894 0.93613 0.50301 0.0
C426 C 0.51705 0.98374 0.52393 0.0
O427 O 0.55257 0.01921 0.51071 0.0
O428 O 0.55501 0.04847 0.51365 0.0
O429 O 0.58455 0.03175 0.54155 0.0
O430 O 0.56483 1.00448 0.53726 0.0
C431 C 0.55304 0.03391 0.50351 0.0
O432 O 0.57857 0.07709 0.53602 0.0
O433 O 0.58777 0.06756 0.56131 0.0
O434 O 0.55153 0.04554 0.56707 0.0
O435 O 0.54618 0.01579 0.56248 0.0
O436 O 0.51896 0.03117 0.53458 0.0
O437 O 0.53755 0.05879 0.54245 0.0
C438 C 0.58184 0.01432 0.53998 0.0
O439 O 0.52344 0.98921 0.54076 0.0
O440 O 0.52001 0.99641 0.5134 0.0
C441 C 0.58769 0.09752 0.56149 0.0
C442 C 0.58391 0.12929 0.57825 0.0
C443 C 0.59292 0.12918 0.56287 0.0
C444 C 0.59485 0.11339 0.55461 0.0
C445 C 0.57873 0.09754 0.5769 0.0
C446 C 0.57698 0.11335 0.58531 0.0
C447 C 0.58862 0.08103 0.55179 0.0
H448 H 0.54263 0.93554 0.52997 0.0
H449 H 0.5357 0.96249 0.54214 0.0
H450 H 0.50711 0.96769 0.48997 0.0
H451 H 0.51409 0.94057 0.47783 0.0
H452 H 0.59808 0.14124 0.55693 0.0
H453 H 0.60158 0.11353 0.5426 0.0
H454 H 0.5729 0.08536 0.58233 0.0
H455 H 0.57015 0.11308 0.59725 0.0
Tb456 Tb 0.27876 0.27484 0.77006 0.0
Eu457 Eu 0.31953 0.27237 0.78373 0.0
C458 C 0.31064 0.30562 0.7673 0.0
C459 C 0.30193 0.25951 0.7415 0.0
C460 C 0.23116 0.27498 0.77237 0.0
C461 C 0.20757 0.28746 0.78355 0.0
C462 C 0.22106 0.28793 0.77229 0.0
C463 C 0.22766 0.26152 0.78392 0.0
C464 C 0.21404 0.26092 0.79502 0.0
C465 C 0.20391 0.27392 0.79499 0.0
C466 C 0.24625 0.27648 0.7615 0.0
O467 O 0.27675 0.25442 0.78817 0.0
O468 O 0.30161 0.24526 0.78121 0.0
O469 O 0.30941 0.27941 0.81034 0.0
O470 O 0.28431 0.28875 0.79812 0.0
C471 C 0.28577 0.24215 0.78703 0.0
O472 O 0.33931 0.25731 0.7932 0.0
O473 O 0.34836 0.28508 0.79004 0.0
O474 O 0.31918 0.30055 0.78136 0.0
O475 O 0.29642 0.29502 0.75783 0.0
O476 O 0.28567 0.25931 0.74667 0.0
O477 O 0.31692 0.26669 0.75285 0.0
C478 C 0.29609 0.28751 0.8124 0.0
O479 O 0.25963 0.29037 0.76607 0.0
O480 O 0.25212 0.26221 0.75853 0.0
C481 C 0.36627 0.26662 0.78045 0.0
C482 C 0.39293 0.26252 0.75859 0.0
C483 C 0.39376 0.25696 0.77612 0.0
C484 C 0.38053 0.25911 0.78703 0.0
C485 C 0.36474 0.27112 0.76259 0.0
C486 C 0.37802 0.26923 0.7518 0.0
C487 C 0.3532 0.27031 0.79217 0.0
H488 H 0.20015 0.29779 0.78341 0.0
H489 H 0.22381 0.29858 0.76371 0.0
H490 H 0.23547 0.25149 0.78448 0.0
H491 H 0.21132 0.25016 0.80346 0.0
H492 H 0.40491 0.25145 0.78161 0.0
H493 H 0.38168 0.25533 0.80071 0.0
H494 H 0.35368 0.27681 0.7572 0.0
H495 H 0.37705 0.27392 0.73852 0.0
Tb496 Tb 0.04835 0.02565 0.51364 0.0
Eu497 Eu 0.0475 0.04559 0.54958 0.0
C498 C 0.08639 0.04715 0.53368 0.0
C499 C 0.0517 1.00306 0.54788 0.0
C500 C 0.04035 0.01805 0.46506 0.0
C501 C 0.03628 0.01601 0.43251 0.0
C502 C 0.04421 0.01128 0.44862 0.0
C503 C 0.02915 0.03009 0.46544 0.0
C504 C 0.02127 0.03484 0.44941 0.0
C505 C 0.02446 0.02753 0.43286 0.0
C506 C 0.04757 0.01245 0.48193 0.0
O507 O 0.0194 0.01513 0.51879 0.0
O508 O 0.01677 0.03559 0.54061 0.0
O509 O 0.04071 0.06654 0.53127 0.0
O510 O 0.04769 0.05345 0.50591 0.0
C511 C 1.00915 0.02149 0.52948 0.0
O512 O 0.03603 0.04827 0.57471 0.0
O513 O 0.06062 0.0668 0.57039 0.0
O514 O 0.07667 0.05599 0.54245 0.0
O515 O 0.07781 0.03197 0.52471 0.0
O516 O 0.05181 1.00373 0.53027 0.0
O517 O 0.05095 0.01766 0.55774 0.0
C518 C 0.04387 0.06752 0.51435 0.0
O519 O 0.06171 0.02353 0.49082 0.0
O520 O 0.03533 0.0068 0.49228 0.0
C521 C 0.05872 0.05751 0.59944 0.0
C522 C 0.07406 0.04776 0.63198 0.0
C523 C 0.05615 0.05029 0.63007 0.0
C524 C 0.04858 0.05521 0.61393 0.0
C525 C 0.07664 0.05505 0.6013 0.0
C526 C 0.0843 0.05036 0.61751 0.0
C527 C 0.04986 0.06077 0.58202 0.0
H528 H 0.03874 0.0101 0.41983 0.0
H529 H 0.05292 1.00204 0.44825 0.0
H530 H 0.02606 0.03542 0.4781 0.0
H531 H 0.0123 0.04383 0.44994 0.0
H532 H 0.04785 0.04813 0.64092 0.0
H533 H 0.03463 0.05678 0.61257 0.0
H534 H 0.08466 0.05649 0.59019 0.0
H535 H 0.09823 0.04878 0.6187 0.0
Tb536 Tb 0.28506 0.75996 0.77431 0.0
Eu537 Eu 0.29934 0.79951 0.76436 0.0
C538 C 0.28808 0.79089 0.80377 0.0
C539 C 0.25471 0.78013 0.75809 0.0
C540 C 0.2885 0.71518 0.78028 0.0
C541 C 0.29151 0.68521 0.78212 0.0
C542 C 0.28162 0.69805 0.78455 0.0
C543 C 0.30545 0.71947 0.77377 0.0
C544 C 0.31535 0.70667 0.77139 0.0
C545 C 0.3084 0.68939 0.7754 0.0
C546 C 0.27797 0.72857 0.78221 0.0
O547 O 0.29196 0.756 0.74681 0.0
O548 O 0.30042 0.78408 0.73859 0.0
O549 O 0.32626 0.79119 0.77045 0.0
O550 O 0.31481 0.76746 0.78542 0.0
C551 C 0.29671 0.76704 0.73472 0.0
O552 O 0.2996 0.8196 0.74552 0.0
O553 O 0.31384 0.82671 0.77265 0.0
O554 O 0.29928 0.80086 0.79456 0.0
O555 O 0.27778 0.77575 0.79629 0.0
O556 O 0.25846 0.76534 0.76331 0.0
O557 O 0.26795 0.7945 0.75882 0.0
C558 C 0.32897 0.77912 0.78125 0.0
O559 O 0.28579 0.74197 0.79383 0.0
O560 O 0.27141 0.73354 0.76709 0.0
C561 C 0.29567 0.84473 0.76099 0.0
C562 C 0.27296 0.86754 0.76697 0.0
C563 C 0.28757 0.87249 0.75693 0.0
C564 C 0.2989 0.86106 0.75392 0.0
C565 C 0.28081 0.83962 0.77057 0.0
C566 C 0.2695 0.85091 0.77349 0.0
C567 C 0.30703 0.83237 0.758 0.0
H568 H 0.28594 0.672 0.78545 0.0
H569 H 0.26857 0.6946 0.7896 0.0
H570 H 0.31089 0.73266 0.77032 0.0
H571 H 0.3282 0.71018 0.76596 0.0
H572 H 0.29054 0.88536 0.75193 0.0
H573 H 0.31021 0.865 0.7463 0.0
H574 H 0.27805 0.82693 0.77596 0.0
H575 H 0.25819 0.84674 0.78107 0.0
Tb576 Tb 0.55103 0.0205 0.05059 0.0
Eu577 Eu 0.53356 0.02937 0.01306 0.0
C578 C 0.54601 0.99138 0.01517 0.0
C579 C 0.57664 0.04176 0.02604 0.0
C580 C 0.552 0.00793 0.09633 0.0
C581 C 0.54375 0.99036 0.12083 0.0
C582 C 0.55463 0.9946 0.10722 0.0
C583 C 0.53828 0.01687 0.09895 0.0
C584 C 0.52743 0.01266 0.11248 0.0
C585 C 0.53001 0.99933 0.12352 0.0
C586 C 0.56145 0.01056 0.08052 0.0
O587 O 0.55043 0.049 0.05757 0.0
O588 O 0.531 0.05263 0.03313 0.0
O589 O 0.51209 0.00907 0.02253 0.0
O590 O 0.52191 0.01755 0.05219 0.0
C591 C 0.54043 0.05892 0.04923 0.0
O592 O 0.5163 0.04416 0.99818 0.0
O593 O 0.52826 0.02575 0.98379 0.0
O594 O 0.5429 1.00379 0.00476 0.0
O595 O 0.5477 0.99503 0.03299 0.0
O596 O 0.57506 0.02969 0.03746 0.0
O597 O 0.5623 0.04526 0.01691 0.0
C598 C 0.50919 0.00916 0.0393 0.0
O599 O 0.55325 0.99992 0.0665 0.0
O600 O 0.56642 0.0267 0.07642 0.0
C601 C 0.52847 0.05202 0.97158 0.0
C602 C 0.55213 0.0655 0.94747 0.0
C603 C 0.53371 0.05762 0.94111 0.0
C604 C 0.52192 0.05069 0.95318 0.0
C605 C 0.54596 0.06245 0.97813 0.0
C606 C 0.55789 0.06898 0.96606 0.0
C607 C 0.52001 0.03862 0.98258 0.0
H608 H 0.54601 0.98007 0.1292 0.0
H609 H 0.56486 0.98726 0.10496 0.0
H610 H 0.53578 0.02695 0.09037 0.0
H611 H 0.51727 0.02014 0.11453 0.0
H612 H 0.52918 0.05459 0.92674 0.0
H613 H 0.50853 0.04255 0.94794 0.0
H614 H 0.55116 0.06364 0.99235 0.0
H615 H 0.57214 0.07477 0.97112 0.0
Tb616 Tb 0.30197 0.29178 0.28361 0.0
Eu617 Eu 0.28276 0.25601 0.26284 0.0
C618 C 0.29964 0.25908 0.30647 0.0
C619 C 0.32821 0.27241 0.26351 0.0
C620 C 0.29925 0.33451 0.29745 0.0
C621 C 0.28817 0.35911 0.30899 0.0
C622 C 0.3015 0.34927 0.3098 0.0
C623 C 0.28385 0.32979 0.28419 0.0
C624 C 0.27069 0.33951 0.28336 0.0
C625 C 0.27255 0.35402 0.29594 0.0
C626 C 0.31135 0.32247 0.29901 0.0
O627 O 0.29636 0.29876 0.25507 0.0
O628 O 0.27591 0.27427 0.24141 0.0
O629 O 0.25706 0.26283 0.27167 0.0
O630 O 0.27303 0.28636 0.291 0.0
C631 C 0.28512 0.29057 0.2406 0.0
O632 O 0.27865 0.23785 0.23849 0.0
O633 O 0.26843 0.22848 0.26263 0.0
O634 O 0.28705 0.25076 0.2931 0.0
O635 O 0.31015 0.27432 0.30374 0.0
O636 O 0.32709 0.28584 0.27461 0.0
O637 O 0.31332 0.25971 0.25827 0.0
C638 C 0.25728 0.27484 0.28493 0.0
O639 O 0.30515 0.30878 0.3073 0.0
O640 O 0.31669 0.31798 0.2839 0.0
C641 C 0.28653 0.21283 0.24843 0.0
C642 C 0.31569 0.19624 0.24877 0.0
C643 C 0.30113 0.19183 0.23453 0.0
C644 C 0.28664 0.20026 0.23427 0.0
C645 C 0.30087 0.21678 0.26285 0.0
C646 C 0.31524 0.20853 0.26306 0.0
C647 C 0.27361 0.22419 0.2473 0.0
H648 H 0.28973 0.37029 0.31885 0.0
H649 H 0.31319 0.35285 0.32026 0.0
H650 H 0.28168 0.31823 0.27475 0.0
H651 H 0.2589 0.33551 0.27303 0.0
H652 H 0.30125 0.18229 0.22342 0.0
H653 H 0.27589 0.19739 0.22286 0.0
H654 H 0.30131 0.22673 0.27375 0.0
H655 H 0.3261 0.21188 0.27439 0.0
Tb656 Tb 0.54955 0.52005 0.01759 0.0
Eu657 Eu 0.55035 0.53907 0.0547 0.0
C658 C 0.58765 0.5423 0.03699 0.0
C659 C 0.55363 0.49679 0.05167 0.0
C660 C 0.5408 0.5092 0.96856 0.0
C661 C 0.54309 0.52154 0.93987 0.0
C662 C 0.55145 0.51727 0.95598 0.0
C663 C 0.52164 0.50502 0.96463 0.0
C664 C 0.5133 0.50911 0.94847 0.0
C665 C 0.52394 0.51762 0.93607 0.0
C666 C 0.5498 0.50656 0.98621 0.0
O667 O 0.51932 0.51508 0.01929 0.0
O668 O 0.52032 0.52424 0.04896 0.0
O669 O 0.54353 0.56042 0.0367 0.0
O670 O 0.54971 0.54797 0.01051 0.0
C671 C 0.51084 0.516 0.03377 0.0
O672 O 0.53838 0.5448 0.07898 0.0
O673 O 0.56645 0.55722 0.07687 0.0
O674 O 0.5779 0.55115 0.04553 0.0
O675 O 0.57916 0.52668 0.02887 0.0
O676 O 0.5501 0.49719 0.03398 0.0
O677 O 0.55637 0.51189 0.06203 0.0
C678 C 0.54659 0.56194 0.01973 0.0
O679 O 0.56211 0.52009 0.9941 0.0
O680 O 0.53926 0.49917 0.99743 0.0
C681 C 0.56022 0.54696 0.10433 0.0
C682 C 0.57425 0.53566 0.13643 0.0
C683 C 0.56207 0.5468 0.13674 0.0
C684 C 0.5551 0.55248 0.12069 0.0
C685 C 0.57172 0.53517 0.10398 0.0
C686 C 0.57875 0.52961 0.11994 0.0
C687 C 0.55404 0.5536 0.08756 0.0
H688 H 0.55159 0.52815 0.93054 0.0
H689 H 0.56625 0.52066 0.95882 0.0
H690 H 0.51305 0.4988 0.9741 0.0
H691 H 0.49851 0.50553 0.94565 0.0
H692 H 0.55861 0.5517 0.14943 0.0
H693 H 0.54612 0.56148 0.12108 0.0
H694 H 0.57573 0.53067 0.09142 0.0
H695 H 0.58807 0.52095 0.11946 0.0
Tb696 Tb 0.79072 0.25871 0.28133 0.0
Eu697 Eu 0.80437 0.29842 0.27318 0.0
C698 C 0.79233 0.28814 0.31161 0.0
C699 C 0.76031 0.27917 0.26517 0.0
C700 C 0.79333 0.21308 0.28295 0.0
C701 C 0.80664 0.18929 0.29289 0.0
C702 C 0.79638 0.20169 0.29605 0.0
C703 C 0.80094 0.21216 0.26677 0.0
C704 C 0.81104 0.19973 0.26356 0.0
C705 C 0.81388 0.18813 0.27654 0.0
C706 C 0.78335 0.22669 0.28671 0.0
O707 O 0.8026 0.25753 0.25597 0.0
O708 O 0.79693 0.28277 0.24607 0.0
O709 O 0.83138 0.28931 0.27845 0.0
O710 O 0.81977 0.26664 0.29455 0.0
C711 C 0.7995 0.26703 0.24264 0.0
O712 O 0.80854 0.31906 0.2547 0.0
O713 O 0.81607 0.32575 0.28341 0.0
O714 O 0.80418 0.29832 0.30326 0.0
O715 O 0.78211 0.27332 0.30334 0.0
O716 O 0.76473 0.26402 0.26808 0.0
O717 O 0.77294 0.29411 0.2689 0.0
C718 C 0.83414 0.27776 0.29002 0.0
O719 O 0.79178 0.23917 0.29915 0.0
O720 O 0.77609 0.2329 0.27264 0.0
C721 C 0.80058 0.34387 0.26763 0.0
C722 C 0.77794 0.36774 0.26891 0.0
C723 C 0.79287 0.37082 0.25899 0.0
C724 C 0.80417 0.35897 0.25842 0.0
C725 C 0.78526 0.34037 0.27688 0.0
C726 C 0.77413 0.35224 0.27763 0.0
C727 C 0.81262 0.3316 0.26783 0.0
H728 H 0.80862 0.18041 0.30305 0.0
H729 H 0.79088 0.20243 0.30873 0.0
H730 H 0.79917 0.22107 0.25659 0.0
H731 H 0.81673 0.19924 0.25096 0.0
H732 H 0.79598 0.38251 0.25188 0.0
H733 H 0.8158 0.36169 0.25102 0.0
H734 H 0.78216 0.32865 0.28396 0.0
H735 H 0.76299 0.34955 0.28566 0.0
Tb736 Tb 0.04953 0.5299 0.55689 0.0
Eu737 Eu 0.0282 0.53867 0.5209 0.0
C738 C 0.04106 0.50059 0.5226 0.0
C739 C 0.07293 0.54879 0.52885 0.0
C740 C 0.052 0.51772 0.6023 0.0
C741 C 0.0433 0.49952 0.62624 0.0
C742 C 0.05424 0.50391 0.61267 0.0
C743 C 0.03859 0.52693 0.60537 0.0
C744 C 0.02776 0.52262 0.61887 0.0
C745 C 0.02994 0.50883 0.62941 0.0
C746 C 0.06171 0.52099 0.58668 0.0
O747 O 0.04503 0.55697 0.56528 0.0
O748 O 0.02902 0.56337 0.5397 0.0
O749 O 1.00583 0.53175 0.53765 0.0
O750 O 0.02097 0.51647 0.55649 0.0
C751 C 0.03683 0.56807 0.55653 0.0
O752 O 0.02186 0.55791 0.50306 0.0
O753 O 1.01045 0.53018 0.49523 0.0
O754 O 0.02871 0.50895 0.51581 0.0
O755 O 0.05301 0.50869 0.53671 0.0
O756 O 0.07265 0.54278 0.54472 0.0
O757 O 0.05799 0.54761 0.51756 0.0
C758 C 1.00584 0.5204 0.54958 0.0
O759 O 0.05473 0.50992 0.57263 0.0
O760 O 0.06521 0.53715 0.58244 0.0
C761 C 0.02371 0.54791 0.47401 0.0
C762 C 0.04881 0.55711 0.4497 0.0
C763 C 0.03522 0.5665 0.45133 0.0
C764 C 0.02278 0.56198 0.46357 0.0
C765 C 0.03695 0.53821 0.47191 0.0
C766 C 0.04933 0.54273 0.45984 0.0
C767 C 0.01426 0.54596 0.48985 0.0
H768 H 0.04526 0.48888 0.63422 0.0
H769 H 0.06422 0.49639 0.61009 0.0
H770 H 0.03632 0.53737 0.59721 0.0
H771 H 0.01797 0.53041 0.62129 0.0
H772 H 0.03451 0.57753 0.44348 0.0
H773 H 0.01299 0.56992 0.46548 0.0
H774 H 0.03828 0.5276 0.4802 0.0
H775 H 0.05937 0.53497 0.45849 0.0
Tb776 Tb 0.77333 0.77693 0.2749 0.0
Eu777 Eu 0.81344 0.77295 0.28848 0.0
C778 C 0.80639 0.80701 0.27121 0.0
C779 C 0.79665 0.76205 0.24632 0.0
C780 C 0.72648 0.77964 0.27684 0.0
C781 C 0.69634 0.78383 0.28023 0.0
C782 C 0.71044 0.78418 0.26972 0.0
C783 C 0.72859 0.77514 0.29467 0.0
C784 C 0.7145 0.77469 0.30514 0.0
C785 C 0.69817 0.77886 0.29795 0.0
C786 C 0.74124 0.77991 0.26593 0.0
O787 O 0.77009 0.75631 0.29282 0.0
O788 O 0.79436 0.7464 0.28554 0.0
O789 O 0.80303 0.77962 0.31496 0.0
O790 O 0.77967 0.79127 0.30268 0.0
C791 C 0.77856 0.74364 0.29143 0.0
O792 O 0.83196 0.75548 0.29278 0.0
O793 O 0.84176 0.78345 0.3004 0.0
O794 O 0.81609 0.80128 0.28405 0.0
O795 O 0.791 0.7972 0.26291 0.0
O796 O 0.78035 0.76106 0.25174 0.0
O797 O 0.81151 0.76962 0.2576 0.0
C798 C 0.79073 0.78895 0.31702 0.0
O799 O 0.75518 0.7933 0.27021 0.0
O800 O 0.74627 0.76508 0.2639 0.0
C801 C 0.86036 0.76897 0.28545 0.0
C802 C 0.88635 0.76882 0.26183 0.0
C803 C 0.8862 0.75873 0.27671 0.0
C804 C 0.87325 0.75884 0.28849 0.0
C805 C 0.8601 0.77861 0.27032 0.0
C806 C 0.87309 0.77866 0.25868 0.0
C807 C 0.8462 0.76852 0.29711 0.0
H808 H 0.68398 0.78731 0.27444 0.0
H809 H 0.70879 0.7879 0.25605 0.0
H810 H 0.74104 0.77175 0.3004 0.0
H811 H 0.71621 0.77056 0.31865 0.0
H812 H 0.89614 0.75086 0.27931 0.0
H813 H 0.87326 0.751 0.2999 0.0
H814 H 0.84994 0.78624 0.26756 0.0
H815 H 0.87302 0.78682 0.24754 0.0
Tb816 Tb 0.79826 0.30101 0.78651 0.0
Eu817 Eu 0.79419 0.2615 0.76686 0.0
C818 C 0.75969 0.27771 0.76916 0.0
C819 C 0.78847 0.26842 0.80864 0.0
C820 C 0.81823 0.34744 0.79761 0.0
C821 C 0.82899 0.3789 0.79773 0.0
C822 C 0.81577 0.36443 0.80117 0.0
C823 C 0.83389 0.34494 0.79043 0.0
C824 C 0.84715 0.35939 0.78709 0.0
C825 C 0.84476 0.37647 0.79067 0.0
C826 C 0.80391 0.33226 0.8001 0.0
O827 O 0.82283 0.2924 0.79497 0.0
O828 O 0.82362 0.27542 0.76945 0.0
O829 O 0.79325 0.2791 0.74467 0.0
O830 O 0.80902 0.30498 0.7607 0.0
C831 C 0.83179 0.28431 0.78467 0.0
O832 O 0.80265 0.23668 0.7669 0.0
O833 O 0.78327 0.2409 0.74488 0.0
O834 O 0.76541 0.26314 0.76898 0.0
O835 O 0.77061 0.29334 0.77304 0.0
O836 O 0.78507 0.28379 0.80538 0.0
O837 O 0.79497 0.25927 0.79676 0.0
C838 C 0.80235 0.29548 0.74521 0.0
O839 O 0.79247 0.32592 0.78561 0.0
O840 O 0.80945 0.31992 0.80843 0.0
C841 C 0.77732 0.21386 0.75665 0.0
C842 C 0.75061 0.18473 0.76283 0.0
C843 C 0.76356 0.18271 0.75133 0.0
C844 C 0.77686 0.19729 0.74819 0.0
C845 C 0.76467 0.21581 0.76844 0.0
C846 C 0.75135 0.20135 0.77147 0.0
C847 C 0.79053 0.22942 0.75309 0.0
H848 H 0.827 0.392 0.80082 0.0
H849 H 0.80362 0.36648 0.80648 0.0
H850 H 0.83578 0.33181 0.78729 0.0
H851 H 0.85915 0.35724 0.78154 0.0
H852 H 0.76313 0.16997 0.74449 0.0
H853 H 0.78659 0.19569 0.73906 0.0
H854 H 0.76499 0.22858 0.77517 0.0
H855 H 0.74165 0.20314 0.78058 0.0
Tb856 Tb 0.79792 0.79756 0.79155 0.0
Eu857 Eu 0.78021 0.76025 0.77139 0.0
C858 C 0.79754 0.76386 0.81489 0.0
C859 C 0.82473 0.77746 0.77169 0.0
C860 C 0.79913 0.84257 0.80466 0.0
C861 C 0.77919 0.85865 0.81774 0.0
C862 C 0.79284 0.84933 0.81987 0.0
C863 C 0.79263 0.84648 0.78737 0.0
C864 C 0.77906 0.85584 0.78526 0.0
C865 C 0.77177 0.86138 0.80037 0.0
C866 C 0.80889 0.82844 0.80651 0.0
O867 O 0.79116 0.80458 0.76342 0.0
O868 O 0.77546 0.77816 0.74871 0.0
O869 O 0.75507 0.76625 0.78303 0.0
O870 O 0.76842 0.7939 0.79649 0.0
C871 C 0.78261 0.79514 0.74827 0.0
O872 O 0.77752 0.74205 0.74734 0.0
O873 O 0.76342 0.73344 0.76973 0.0
O874 O 0.78945 0.75351 0.80017 0.0
O875 O 0.80303 0.78101 0.81388 0.0
O876 O 0.82281 0.79142 0.7816 0.0
O877 O 0.81065 0.76379 0.76763 0.0
C878 C 0.75394 0.7803 0.79325 0.0
O879 O 0.80062 0.81533 0.81451 0.0
O880 O 0.81474 0.82295 0.79207 0.0
C881 C 0.78043 0.71507 0.75708 0.0
C882 C 0.80782 0.69608 0.76114 0.0
C883 C 0.80007 0.69859 0.74381 0.0
C884 C 0.78644 0.70803 0.7418 0.0
C885 C 0.78779 0.71198 0.77436 0.0
C886 C 0.80135 0.70264 0.77636 0.0
C887 C 0.76982 0.7286 0.75529 0.0
H888 H 0.77387 0.86306 0.82959 0.0
H889 H 0.79753 0.84632 0.83327 0.0
H890 H 0.79704 0.84129 0.77532 0.0
H891 H 0.77345 0.85771 0.77172 0.0
H892 H 0.80479 0.69357 0.73186 0.0
H893 H 0.78125 0.71061 0.72838 0.0
H894 H 0.78385 0.7176 0.78647 0.0
H895 H 0.80733 0.70126 0.7899 0.0
Tb896 Tb 0.53198 0.54016 0.53942 0.0
Eu897 Eu 0.577 0.55017 0.55551 0.0
C898 C 0.56021 0.53201 0.51533 0.0
C899 C 0.55196 0.51217 0.55512 0.0
C900 C 0.48439 0.54593 0.5268 0.0
C901 C 0.45699 0.55079 0.5096 0.0
C902 C 0.47025 0.54102 0.5123 0.0
C903 C 0.48527 0.56096 0.5385 0.0
C904 C 0.47191 0.57069 0.53589 0.0
C905 C 0.45751 0.56564 0.52147 0.0
C906 C 0.49806 0.53524 0.52923 0.0
O907 O 0.53837 0.55887 0.56314 0.0
O908 O 0.55999 0.54739 0.57799 0.0
O909 O 0.56984 0.57576 0.55 0.0
O910 O 0.54516 0.56369 0.52814 0.0
C911 C 0.54594 0.5544 0.57816 0.0
O912 O 0.59794 0.55047 0.57829 0.0
O913 O 0.60594 0.55879 0.55279 0.0
O914 O 0.57361 0.54317 0.52569 0.0
O915 O 0.54382 0.52638 0.5198 0.0
O916 O 0.53704 0.51821 0.55405 0.0
O917 O 0.56746 0.5211 0.55098 0.0
C918 C 0.55825 0.57697 0.53592 0.0
O919 O 0.51037 0.53743 0.51829 0.0
O920 O 0.50512 0.53415 0.54576 0.0
C921 C 0.62339 0.54178 0.56894 0.0
C922 C 0.6456 0.5172 0.57064 0.0
C923 C 0.64722 0.53018 0.58505 0.0
C924 C 0.63624 0.54237 0.58418 0.0
C925 C 0.62149 0.5287 0.55463 0.0
C926 C 0.63258 0.51663 0.55541 0.0
C927 C 0.61127 0.55412 0.56859 0.0
H928 H 0.44636 0.54671 0.49815 0.0
H929 H 0.46949 0.5296 0.50299 0.0
H930 H 0.49619 0.5651 0.5497 0.0
H931 H 0.47266 0.58195 0.54539 0.0
H932 H 0.65682 0.53083 0.59713 0.0
H933 H 0.63764 0.55215 0.59549 0.0
H934 H 0.61143 0.52778 0.54285 0.0
H935 H 0.63108 0.50701 0.54394 0.0
Tb936 Tb 0.03677 0.51505 0.04612 0.0
Eu937 Eu 0.06446 0.55322 0.05348 0.0
C938 C 0.04508 0.53523 0.08469 0.0
C939 C 0.01971 0.55053 0.0491 0.0
C940 C 0.017 0.46883 0.03056 0.0
C941 C 0.02744 0.44177 0.03121 0.0
C942 C 0.02418 0.45659 0.04024 0.0
C943 C 0.01269 0.46574 0.01168 0.0
C944 C 0.01583 0.4508 1.00264 0.0
C945 C 0.02332 0.43876 0.01234 0.0
C946 C 0.01522 0.48524 0.04011 0.0
O947 O 0.04428 0.52017 0.01971 0.0
O948 O 0.05717 0.54979 0.02388 0.0
O949 O 0.08355 0.53374 0.05267 0.0
O950 O 0.06343 0.50686 0.04622 0.0
C951 C 0.05006 0.53532 0.01344 0.0
O952 O 0.07695 0.57937 0.04658 0.0
O953 O 0.08794 0.56949 0.07091 0.0
O954 O 0.05128 0.55015 0.0784 0.0
O955 O 0.04269 0.52022 0.075 0.0
O956 O 0.01748 0.5331 0.04772 0.0
O957 O 0.03646 0.56082 0.05094 0.0
C958 C 0.08056 0.5164 0.04945 0.0
O959 O 0.02634 0.49053 0.05506 0.0
O960 O 0.01408 0.49821 0.03029 0.0
C961 C 0.08678 0.59907 0.07235 0.0
C962 C 0.0822 0.6299 0.09028 0.0
C963 C 0.09455 0.63074 0.07753 0.0
C964 C 0.09683 0.61537 0.06863 0.0
C965 C 0.0746 0.59814 0.08522 0.0
C966 C 0.0724 0.61347 0.09421 0.0
C967 C 0.0879 0.58315 0.06182 0.0
H968 H 0.03337 0.43275 0.03899 0.0
H969 H 0.02763 0.45861 0.0548 0.0
H970 H 1.00707 0.47491 0.00385 0.0
H971 H 0.0122 0.44859 0.98811 0.0
H972 H 0.102 0.64327 0.07399 0.0
H973 H 0.10606 0.61622 0.05853 0.0
H974 H 0.06656 0.58559 0.08809 0.0
H975 H 0.06291 0.6125 0.10407 0.0
H976 H 1.00492 0.17304 0.91528 0.0
H977 H 1.0109 0.15239 0.93724 0.0
H978 H 0.04457 0.1955 0.97355 0.0
H979 H 0.03832 0.21625 0.95198 0.0
H980 H 0.05942 0.16341 0.96227 0.0
H981 H 1.01038 0.18257 0.98728 0.0
H982 H 0.97963 0.18835 0.98657 0.0
H983 H 0.9553 0.13372 0.97029 0.0
H984 H 0.98593 0.12771 0.97044 0.0
H985 H 0.07096 0.10556 0.03067 0.0
H986 H 0.06672 0.13183 0.0163 0.0
H987 H 0.0191 0.10067 0.98193 0.0
H988 H 0.02306 0.0746 0.99603 0.0
H989 H 0.01281 0.13055 0.99667 0.0
H990 H 0.058 0.11106 0.9661 0.0
H991 H 0.0872 0.10251 0.96418 0.0
H992 H 0.11679 0.15421 0.98691 0.0
H993 H 0.0877 0.16291 0.98935 0.0
C994 C 0.01357 0.17804 0.92796 0.0
C995 C 0.0212 0.1961 0.93206 0.0
C996 C 0.01684 0.16635 0.94044 0.0
C997 C 0.02799 0.17267 0.95686 0.0
C998 C 0.03582 0.19062 0.9609 0.0
C999 C 0.03225 0.20234 0.94863 0.0
C1000 C 0.03223 0.16032 0.96944 0.0
C1001 C 0.04943 0.15645 0.97015 0.0
C1002 C 0.01886 0.15109 0.97911 0.0
C1003 C 1.00045 0.15475 0.97864 0.0
C1004 C 0.99848 0.17185 0.98326 0.0
C1005 C 0.98107 0.17515 0.98302 0.0
C1006 C 0.96551 0.16143 0.97833 0.0
C1007 C 0.96735 0.14436 0.97386 0.0
C1008 C 0.98473 0.141 0.97401 0.0
C1009 C 0.05968 0.10433 0.01998 0.0
C1010 C 0.04729 0.0881 0.01452 0.0
C1011 C 0.05725 0.1193 0.0119 0.0
C1012 C 0.04255 0.11802 0.99826 0.0
C1013 C 0.03037 0.10182 0.99265 0.0
C1014 C 0.03274 0.08696 1.00068 0.0
C1015 C 0.03989 0.13337 0.98924 0.0
C1016 C 0.02298 0.1378 0.98915 0.0
C1017 C 0.05329 0.14272 0.97966 0.0
C1018 C 0.07073 0.13755 0.97815 0.0
C1019 C 0.07074 0.12054 0.97087 0.0
C1020 C 0.08725 0.11567 0.96967 0.0
C1021 C 0.10383 0.1278 0.97546 0.0
C1022 C 0.10393 0.14481 0.98247 0.0
C1023 C 0.08744 0.14972 0.98379 0.0
H1024 H 0.11661 0.12404 0.97443 0.0
H1025 H 0.95204 0.164 0.97822 0.0
H1026 H 0.14649 0.84798 0.16957 0.0
H1027 H 0.17146 0.83753 0.18533 0.0
H1028 H 0.14397 0.83309 0.23274 0.0
H1029 H 0.11896 0.84362 0.21724 0.0
H1030 H 0.18096 0.84427 0.24047 0.0
H1031 H 0.13632 0.79865 0.20133 0.0
H1032 H 0.11859 0.78505 0.17212 0.0
H1033 H 0.16841 0.78473 0.15008 0.0
H1034 H 0.18643 0.7986 0.17907 0.0
H1035 H 0.22767 0.79323 0.28609 0.0
H1036 H 0.19907 0.79697 0.26944 0.0
H1037 H 0.22272 0.79624 0.21962 0.0
H1038 H 0.25044 0.7909 0.23597 0.0
H1039 H 0.18716 0.78694 0.21248 0.0
H1040 H 0.23186 0.83451 0.24861 0.0
H1041 H 0.25116 0.84823 0.27705 0.0
H1042 H 0.20319 0.84583 0.30316 0.0
H1043 H 0.18365 0.83188 0.27493 0.0
C1044 C 0.14605 0.84542 0.18357 0.0
C1045 C 0.13059 0.8462 0.19207 0.0
C1046 C 0.16022 0.83929 0.19243 0.0
C1047 C 0.15904 0.83405 0.20983 0.0
C1048 C 0.1448 0.83687 0.21914 0.0
C1049 C 0.13061 0.84299 0.2103 0.0
C1050 C 0.17183 0.82444 0.21796 0.0
C1051 C 0.18221 0.83166 0.23446 0.0
C1052 C 0.17357 0.80819 0.20975 0.0
C1053 C 0.16271 0.79987 0.19231 0.0
C1054 C 0.14349 0.79583 0.19021 0.0
C1055 C 0.13339 0.78805 0.1737 0.0
C1056 C 0.14237 0.78407 0.15924 0.0
C1057 C 0.16147 0.78784 0.16127 0.0
C1058 C 0.17163 0.79567 0.17774 0.0
C1059 C 0.22636 0.79342 0.27154 0.0
C1060 C 0.24108 0.79277 0.26222 0.0
C1061 C 0.21015 0.79533 0.26205 0.0
C1062 C 0.20925 0.7976 0.24353 0.0
C1063 C 0.22329 0.79474 0.23395 0.0
C1064 C 0.23915 0.79205 0.24331 0.0
C1065 C 0.19602 0.80667 0.23515 0.0
C1066 C 0.18576 0.79948 0.21852 0.0
C1067 C 0.19461 0.82316 0.243 0.0
C1068 C 0.20632 0.83214 0.25973 0.0
C1069 C 0.22545 0.83695 0.26043 0.0
C1070 C 0.23643 0.84472 0.27651 0.0
C1071 C 0.2284 0.84791 0.2919 0.0
C1072 C 0.20938 0.84337 0.29123 0.0
C1073 C 0.19835 0.83555 0.2752 0.0
H1074 H 0.23692 0.8539 0.30435 0.0
H1075 H 0.13452 0.77803 0.14648 0.0
H1076 H 0.50557 0.77421 0.45112 0.0
H1077 H 0.51114 0.80362 0.46696 0.0
H1078 H 0.53101 0.82661 0.42017 0.0
H1079 H 0.52552 0.79735 0.40421 0.0
H1080 H 0.55332 0.84057 0.45239 0.0
H1081 H 0.49057 0.82742 0.42698 0.0
H1082 H 0.45894 0.80981 0.42062 0.0
H1083 H 0.45364 0.81426 0.47707 0.0
H1084 H 0.48558 0.83146 0.48391 0.0
H1085 H 0.54136 0.92838 0.4714 0.0
H1086 H 0.5424 0.89909 0.45842 0.0
H1087 H 0.52413 0.87668 0.5061 0.0
H1088 H 0.52284 0.90574 0.519 0.0
H1089 H 0.50207 0.86235 0.47392 0.0
H1090 H 0.56557 0.87737 0.49864 0.0
H1091 H 0.5973 0.89516 0.50372 0.0
H1092 H 0.60073 0.88837 0.44695 0.0
H1093 H 0.56889 0.87085 0.44146 0.0
C1094 C 0.51108 0.78554 0.44421 0.0
C1095 C 0.51506 0.78355 0.42645 0.0
C1096 C 0.51428 0.80225 0.45326 0.0
C1097 C 0.52151 0.81711 0.44465 0.0
C1098 C 0.52554 0.81519 0.42698 0.0
C1099 C 0.52224 0.79851 0.41787 0.0
C1100 C 0.52439 0.83476 0.45393 0.0
C1101 C 0.54215 0.84546 0.457 0.0
C1102 C 0.50974 0.84085 0.46001 0.0
C1103 C 0.49055 0.83053 0.45598 0.0
C1104 C 0.48275 0.82447 0.43807 0.0
C1105 C 0.46474 0.81457 0.43437 0.0
C1106 C 0.45425 0.81089 0.4484 0.0
C1107 C 0.46179 0.81708 0.46621 0.0
C1108 C 0.47987 0.82688 0.47002 0.0
C1109 C 0.53783 0.91719 0.47915 0.0
C1110 C 0.53194 0.91917 0.4961 0.0
C1111 C 0.53858 0.9006 0.47184 0.0
C1112 C 0.53338 0.88591 0.48142 0.0
C1113 C 0.52826 0.88798 0.49865 0.0
C1114 C 0.5276 0.90454 0.50599 0.0
C1115 C 0.53107 0.86815 0.47263 0.0
C1116 C 0.51332 0.85744 0.4695 0.0
C1117 C 0.54571 0.86219 0.46635 0.0
C1118 C 0.56477 0.87295 0.46962 0.0
C1119 C 0.573 0.87985 0.4872 0.0
C1120 C 0.59103 0.88986 0.49016 0.0
C1121 C 0.601 0.89293 0.47565 0.0
C1122 C 0.59297 0.88601 0.45816 0.0
C1123 C 0.57494 0.87605 0.45512 0.0
H1124 H 0.61496 0.90066 0.47794 0.0
H1125 H 0.44026 0.80327 0.44546 0.0
H1126 H 0.52288 0.32383 0.66696 0.0
H1127 H 0.49305 0.30907 0.67448 0.0
H1128 H 0.51707 0.30861 0.72965 0.0
H1129 H 0.54706 0.32252 0.72192 0.0
H1130 H 0.49795 0.27722 0.71718 0.0
H1131 H 0.48773 0.33656 0.71536 0.0
H1132 H 0.48653 0.36342 0.70022 0.0
H1133 H 0.44643 0.33297 0.65793 0.0
H1134 H 0.4476 0.30591 0.67273 0.0
H1135 H 0.4292 0.27117 0.77182 0.0
H1136 H 0.45479 0.27789 0.75473 0.0
H1137 H 0.41791 0.2643 0.7048 0.0
H1138 H 0.39202 0.25668 0.72185 0.0
H1139 H 0.44057 0.29804 0.70777 0.0
H1140 H 0.44638 0.23985 0.71264 0.0
H1141 H 0.44709 0.21286 0.72759 0.0
H1142 H 0.49489 0.24037 0.7635 0.0
H1143 H 0.49427 0.26764 0.74898 0.0
C1144 C 0.52165 0.32106 0.68081 0.0
C1145 C 0.53715 0.32439 0.69394 0.0
C1146 C 0.50463 0.31253 0.68506 0.0
C1147 C 0.50287 0.30774 0.70262 0.0
C1148 C 0.51819 0.31207 0.71598 0.0
C1149 C 0.53524 0.32019 0.71163 0.0
C1150 C 0.48536 0.29745 0.70706 0.0
C1151 C 0.48543 0.28184 0.71523 0.0
C1152 C 0.46884 0.30297 0.70365 0.0
C1153 C 0.46786 0.31926 0.69504 0.0
C1154 C 0.47872 0.33562 0.7028 0.0
C1155 C 0.47804 0.35086 0.69428 0.0
C1156 C 0.46643 0.3499 0.6781 0.0
C1157 C 0.45542 0.33369 0.67045 0.0
C1158 C 0.45607 0.31841 0.6789 0.0
C1159 C 0.42648 0.2689 0.75723 0.0
C1160 C 0.40852 0.26345 0.74821 0.0
C1161 C 0.44115 0.27289 0.74748 0.0
C1162 C 0.43813 0.27158 0.72857 0.0
C1163 C 0.42038 0.26539 0.71943 0.0
C1164 C 0.40567 0.26114 0.72919 0.0
C1165 C 0.45349 0.27839 0.71871 0.0
C1166 C 0.45301 0.29326 0.70941 0.0
C1167 C 0.46963 0.27218 0.72105 0.0
C1168 C 0.47025 0.25579 0.72973 0.0
C1169 C 0.45699 0.24017 0.72379 0.0
C1170 C 0.45737 0.22482 0.73219 0.0
C1171 C 0.47102 0.2249 0.74649 0.0
C1172 C 0.48433 0.24033 0.75241 0.0
C1173 C 0.48399 0.25573 0.74408 0.0
H1174 H 0.4713 0.21299 0.75298 0.0
H1175 H 0.46594 0.36171 0.67152 0.0
H1176 H 0.04353 0.85685 0.6416 0.0
H1177 H 0.04621 0.88594 0.63093 0.0
H1178 H 0.05166 0.8648 0.5778 0.0
H1179 H 0.05122 0.83609 0.58933 0.0
H1180 H 0.06665 0.89383 0.57541 0.0
H1181 H 1.00898 0.88481 0.60129 0.0
H1182 H 0.99007 0.87924 0.62597 0.0
H1183 H 0.02582 0.92319 0.65905 0.0
H1184 H 0.04498 0.9289 0.63461 0.0
H1185 H 0.05034 0.96957 0.53103 0.0
H1186 H 0.04938 0.94132 0.54341 0.0
H1187 H 0.05279 0.96626 0.59704 0.0
H1188 H 0.05303 0.9946 0.58443 0.0
H1189 H 0.03395 0.93633 0.59975 0.0
H1190 H 0.08989 0.94697 0.57438 0.0
H1191 H 0.11006 0.95335 0.55086 0.0
H1192 H 0.07885 0.90709 0.51785 0.0
H1193 H 0.05837 0.90057 0.54109 0.0
C1194 C 0.04524 0.85822 0.62757 0.0
C1195 C 0.04694 0.84332 0.61659 0.0
C1196 C 0.04643 0.87531 0.6211 0.0
C1197 C 0.04834 0.87871 0.6028 0.0
C1198 C 0.05009 0.86366 0.59187 0.0
C1199 C 0.0497 0.84674 0.59857 0.0
C1200 C 0.04895 0.89741 0.59516 0.0
C1201 C 0.05902 0.90269 0.58075 0.0
C1202 C 0.03999 0.9105 0.60176 0.0
C1203 C 0.02842 0.90717 0.61624 0.0
C1204 C 0.01277 0.89324 0.61385 0.0
C1205 C 1.00204 0.89006 0.62779 0.0
C1206 C 1.00676 0.90083 0.64408 0.0
C1207 C 0.02219 0.91485 0.64645 0.0
C1208 C 0.03297 0.91807 0.63256 0.0
C1209 C 0.05104 0.96931 0.54553 0.0
C1210 C 0.05196 0.98519 0.55639 0.0
C1211 C 0.05065 0.95273 0.55284 0.0
C1212 C 0.05147 0.95068 0.57167 0.0
C1213 C 0.05221 0.96657 0.58255 0.0
C1214 C 0.05246 0.9832 0.5752 0.0
C1215 C 0.0512 0.93236 0.57978 0.0
C1216 C 0.04133 0.92726 0.59431 0.0
C1217 C 0.06036 0.91947 0.57333 0.0
C1218 C 0.07254 0.92339 0.55936 0.0
C1219 C 0.08729 0.93823 0.56205 0.0
C1220 C 0.09877 0.94186 0.54878 0.0
C1221 C 0.09572 0.93065 0.53285 0.0
C1222 C 0.08119 0.91577 0.53017 0.0
C1223 C 0.06964 0.9121 0.54338 0.0
H1224 H 0.10464 0.93348 0.5226 0.0
H1225 H 0.99845 0.89834 0.65486 0.0
H1226 H 0.48362 0.7677 0.88132 0.0
H1227 H 0.45275 0.76666 0.86661 0.0
H1228 H 0.47545 0.79832 0.82613 0.0
H1229 H 0.50633 0.80033 0.84166 0.0
H1230 H 0.44781 0.80845 0.82985 0.0
H1231 H 0.45135 0.74758 0.822 0.0
H1232 H 0.45573 0.71915 0.8318 0.0
H1233 H 0.41275 0.71703 0.86489 0.0
H1234 H 0.40827 0.74553 0.85543 0.0
H1235 H 0.36254 0.79559 0.77132 0.0
H1236 H 0.39349 0.79589 0.78531 0.0
H1237 H 0.37108 0.7641 0.82584 0.0
H1238 H 0.34014 0.76283 0.81105 0.0
H1239 H 0.39857 0.75394 0.82189 0.0
H1240 H 0.39501 0.81455 0.8303 0.0
H1241 H 0.39019 0.84292 0.82073 0.0
H1242 H 0.43284 0.84565 0.78716 0.0
H1243 H 0.43774 0.8172 0.79638 0.0
C1244 C 0.48214 0.77438 0.8692 0.0
C1245 C 0.49792 0.78398 0.8628 0.0
C1246 C 0.46419 0.77363 0.86052 0.0
C1247 C 0.46101 0.78196 0.84458 0.0
C1248 C 0.47686 0.79159 0.83822 0.0
C1249 C 0.4948 0.79268 0.84715 0.0
C1250 C 0.44152 0.78115 0.83486 0.0
C1251 C 0.43726 0.79634 0.82796 0.0
C1252 C 0.42688 0.76575 0.83246 0.0
C1253 C 0.42963 0.74872 0.83817 0.0
C1254 C 0.44293 0.74108 0.83145 0.0
C1255 C 0.44541 0.72495 0.83694 0.0
C1256 C 0.43456 0.71631 0.849 0.0
C1257 C 0.42117 0.72375 0.85558 0.0
C1258 C 0.41865 0.73987 0.85016 0.0
C1259 C 0.36411 0.78859 0.78319 0.0
C1260 C 0.34841 0.77919 0.78987 0.0
C1261 C 0.3821 0.78896 0.7915 0.0
C1262 C 0.38537 0.78048 0.80732 0.0
C1263 C 0.36959 0.77092 0.81383 0.0
C1264 C 0.35162 0.77021 0.80528 0.0
C1265 C 0.40488 0.78124 0.8169 0.0
C1266 C 0.40914 0.76605 0.82377 0.0
C1267 C 0.41949 0.79665 0.81935 0.0
C1268 C 0.4166 0.81371 0.81387 0.0
C1269 C 0.40328 0.82118 0.82081 0.0
C1270 C 0.40054 0.83726 0.81545 0.0
C1271 C 0.41117 0.84606 0.80331 0.0
C1272 C 0.4246 0.83881 0.79653 0.0
C1273 C 0.42737 0.82272 0.80182 0.0
H1274 H 0.40902 0.85851 0.79917 0.0
H1275 H 0.43651 0.70383 0.85323 0.0
H1276 H 0.55855 0.22076 0.13957 0.0
H1277 H 0.55939 0.19129 0.12686 0.0
H1278 H 0.51418 0.19174 0.08652 0.0
H1279 H 0.51344 0.22146 0.09935 0.0
H1280 H 0.50873 0.15858 0.0948 0.0
H1281 H 0.56328 0.19525 0.07903 0.0
H1282 H 0.59286 0.21703 0.08471 0.0
H1283 H 0.61458 0.18385 0.12058 0.0
H1284 H 0.58502 0.16198 0.11529 0.0
H1285 H 0.51656 0.08091 0.03974 0.0
H1286 H 0.51559 0.11027 0.05265 0.0
H1287 H 0.56207 0.11058 0.09173 0.0
H1288 H 0.5629 0.08101 0.07887 0.0
H1289 H 0.56699 0.14332 0.08437 0.0
H1290 H 0.51426 0.10703 0.10127 0.0
H1291 H 0.48488 0.08509 0.09822 0.0
H1292 H 0.45989 0.11686 0.06317 0.0
H1293 H 0.48924 0.13888 0.0658 0.0
C1294 C 0.54885 0.21485 0.12781 0.0
C1295 C 0.53619 0.22442 0.12058 0.0
C1296 C 0.54936 0.19758 0.12032 0.0
C1297 C 0.53707 0.18836 0.10509 0.0
C1298 C 0.52413 0.19781 0.09805 0.0
C1299 C 0.52377 0.21525 0.10544 0.0
C1300 C 0.53769 0.16927 0.09683 0.0
C1301 C 0.52158 0.15559 0.0923 0.0
C1302 C 0.55417 0.16402 0.09373 0.0
C1303 C 0.57192 0.17706 0.09688 0.0
C1304 C 0.57434 0.19265 0.08821 0.0
C1305 C 0.59109 0.20501 0.09135 0.0
C1306 C 0.60558 0.20184 0.10302 0.0
C1307 C 0.60334 0.1863 0.11156 0.0
C1308 C 0.5866 0.17391 0.10848 0.0
C1309 C 0.52663 0.087 0.05116 0.0
C1310 C 0.53977 0.0777 0.05794 0.0
C1311 C 0.52601 0.1042 0.0588 0.0
C1312 C 0.53861 0.11362 0.07375 0.0
C1313 C 0.55193 0.10441 0.08039 0.0
C1314 C 0.55237 0.08706 0.07291 0.0
C1315 C 0.53798 0.13266 0.08213 0.0
C1316 C 0.5541 0.14631 0.08674 0.0
C1317 C 0.52153 0.13781 0.08553 0.0
C1318 C 0.50399 0.12449 0.08355 0.0
C1319 C 0.50255 0.10924 0.09275 0.0
C1320 C 0.4859 0.09681 0.09113 0.0
C1321 C 0.47054 0.09955 0.08046 0.0
C1322 C 0.47181 0.11474 0.07139 0.0
C1323 C 0.48845 0.1272 0.07294 0.0
H1324 H 0.45764 0.08994 0.07927 0.0
H1325 H 0.61855 0.21142 0.10543 0.0
H1326 H 0.08979 0.24989 0.34172 0.0
H1327 H 0.11679 0.25235 0.32621 0.0
H1328 H 0.15026 0.28249 0.3733 0.0
H1329 H 0.12283 0.28137 0.38805 0.0
H1330 H 0.16768 0.29426 0.35108 0.0
H1331 H 0.14553 0.23144 0.35065 0.0
H1332 H 0.12302 0.20292 0.34402 0.0
H1333 H 0.1175 0.21039 0.28749 0.0
H1334 H 0.13983 0.23902 0.29382 0.0
H1335 H 0.25342 0.28966 0.31901 0.0
H1336 H 0.22635 0.28745 0.33425 0.0
H1337 H 0.19287 0.25797 0.28683 0.0
H1338 H 0.22038 0.2589 0.27225 0.0
H1339 H 0.17546 0.24577 0.30922 0.0
H1340 H 0.19648 0.31039 0.31128 0.0
H1341 H 0.21918 0.33862 0.31928 0.0
H1342 H 0.22789 0.32644 0.37415 0.0
H1343 H 0.20481 0.29835 0.36667 0.0
C1344 C 0.10286 0.25709 0.34889 0.0
C1345 C 0.10353 0.26534 0.36649 0.0
C1346 C 0.11879 0.25828 0.33995 0.0
C1347 C 0.1367 0.26714 0.34828 0.0
C1348 C 0.13725 0.27544 0.36591 0.0
C1349 C 0.12123 0.27473 0.37462 0.0
C1350 C 0.15449 0.26819 0.33885 0.0
C1351 C 0.16916 0.28336 0.34215 0.0
C1352 C 0.1575 0.25458 0.32655 0.0
C1353 C 0.14419 0.2374 0.32273 0.0
C1354 C 0.13945 0.227 0.33682 0.0
C1355 C 0.12673 0.21083 0.33312 0.0
C1356 C 0.1188 0.20487 0.31535 0.0
C1357 C 0.12362 0.21504 0.30125 0.0
C1358 C 0.13632 0.23122 0.30488 0.0
C1359 C 0.24031 0.28282 0.31162 0.0
C1360 C 0.23968 0.27472 0.29397 0.0
C1361 C 0.22433 0.28173 0.32044 0.0
C1362 C 0.2064 0.27304 0.312 0.0
C1363 C 0.20588 0.26492 0.29429 0.0
C1364 C 0.22195 0.26559 0.28567 0.0
C1365 C 0.18858 0.27187 0.32142 0.0
C1366 C 0.17391 0.25667 0.31811 0.0
C1367 C 0.18562 0.28535 0.33387 0.0
C1368 C 0.1992 0.30224 0.33836 0.0
C1369 C 0.2033 0.31374 0.32503 0.0
C1370 C 0.21624 0.32968 0.32945 0.0
C1371 C 0.22529 0.33413 0.34706 0.0
C1372 C 0.22103 0.32288 0.36046 0.0
C1373 C 0.20793 0.30702 0.35618 0.0
H1374 H 0.23548 0.34639 0.35037 0.0
H1375 H 0.10895 0.19235 0.31252 0.0
H1376 H 0.90888 0.01909 0.15711 0.0
H1377 H 0.93154 0.02364 0.13599 0.0
H1378 H 0.975 0.0302 0.18049 0.0
H1379 H 0.95278 0.02617 0.20155 0.0
H1380 H 0.9826 0.05501 0.15934 0.0
H1381 H 0.96267 0.99276 0.15275 0.0
H1382 H 0.94096 0.96378 0.1474 0.0
H1383 H 0.92332 0.97494 0.09368 0.0
H1384 H 0.94474 1.00414 0.09882 0.0
H1385 H 0.05051 0.04098 0.10121 0.0
H1386 H 0.02902 0.03387 0.12329 0.0
H1387 H 0.98849 0.05258 0.08956 0.0
H1388 H 1.01022 0.06075 0.06812 0.0
H1389 H 0.98087 0.01356 0.10573 0.0
H1390 H 0.99949 0.07875 0.11686 0.0
H1391 H 0.02339 0.10631 0.1236 0.0
H1392 H 0.04601 0.08654 0.17111 0.0
H1393 H 0.02237 0.05873 0.16443 0.0
C1394 C 0.92327 0.02159 0.16234 0.0
C1395 C 0.92906 0.02237 0.18094 0.0
C1396 C 0.93614 0.02402 0.1503 0.0
C1397 C 0.95484 0.02708 0.15678 0.0
C1398 C 0.9606 0.02786 0.17531 0.0
C1399 C 0.94784 0.02557 0.18729 0.0
C1400 C 0.96862 0.0302 0.1444 0.0
C1401 C 0.98229 0.04582 0.14774 0.0
C1402 C 0.96821 0.01817 0.12935 0.0
C1403 C 0.95516 1.00072 0.12624 0.0
C1404 C 0.95402 0.98912 0.13986 0.0
C1405 C 0.9418 0.97264 0.13686 0.0
C1406 C 0.93072 0.96754 0.12023 0.0
C1407 C 0.93188 0.97892 0.10657 0.0
C1408 C 0.94407 0.99544 0.10951 0.0
C1409 C 0.03709 0.04377 0.09868 0.0
C1410 C 0.03175 0.05113 0.0829 0.0
C1411 C 0.02487 0.03957 0.11113 0.0
C1412 C 1.00729 0.04255 0.10772 0.0
C1413 C 1.00201 0.05003 0.09212 0.0
C1414 C 0.01432 0.05458 0.07992 0.0
C1415 C 0.99441 0.03836 0.12067 0.0
C1416 C 0.98103 0.02258 0.11742 0.0
C1417 C 0.99525 0.05 0.13603 0.0
C1418 C 1.00939 0.06664 0.14001 0.0
C1419 C 1.00971 0.08022 0.12861 0.0
C1420 C 0.02316 0.09589 0.13245 0.0
C1421 C 0.03625 0.09816 0.14774 0.0
C1422 C 0.03589 0.08476 0.15924 0.0
C1423 C 0.02248 0.06904 0.15544 0.0
H1424 H 0.04665 0.11031 0.1507 0.0
H1425 H 0.92129 0.95476 0.11792 0.0
H1426 H 0.27909 0.68592 0.44951 0.0
H1427 H 0.2778 0.69388 0.41844 0.0
H1428 H 0.27697 0.74698 0.43731 0.0
H1429 H 0.27654 0.73846 0.46816 0.0
H1430 H 0.25544 0.7397 0.40916 0.0
H1431 H 0.31702 0.73029 0.4214 0.0
H1432 H 0.33963 0.71287 0.42984 0.0
H1433 H 0.31417 0.67357 0.38612 0.0
H1434 H 0.29129 0.69065 0.37759 0.0
H1435 H 0.28339 0.78421 0.33455 0.0
H1436 H 0.28121 0.77207 0.36351 0.0
H1437 H 0.2722 0.71962 0.33719 0.0
H1438 H 0.27461 0.73174 0.30793 0.0
H1439 H 0.29665 0.72403 0.36725 0.0
H1440 H 0.23728 0.73423 0.35324 0.0
H1441 H 0.21447 0.75115 0.34401 0.0
H1442 H 0.23539 0.78846 0.39046 0.0
H1443 H 0.25855 0.77192 0.39978 0.0
C1444 C 0.27883 0.69934 0.44702 0.0
C1445 C 0.27814 0.71162 0.46134 0.0
C1446 C 0.27821 0.70397 0.42918 0.0
C1447 C 0.27776 0.72125 0.42526 0.0
C1448 C 0.27732 0.73356 0.43972 0.0
C1449 C 0.27723 0.72874 0.45745 0.0
C1450 C 0.2772 0.7265 0.40622 0.0
C1451 C 0.26473 0.73646 0.4002 0.0
C1452 C 0.28861 0.72176 0.39389 0.0
C1453 C 0.30241 0.71164 0.39898 0.0
C1454 C 0.31623 0.71789 0.41366 0.0
C1455 C 0.32907 0.70808 0.41845 0.0
C1456 C 0.32832 0.6921 0.40855 0.0
C1457 C 0.31473 0.68592 0.3938 0.0
C1458 C 0.30184 0.69566 0.38898 0.0
C1459 C 0.28084 0.77006 0.33477 0.0
C1460 C 0.27914 0.75899 0.31874 0.0
C1461 C 0.27951 0.76312 0.35145 0.0
C1462 C 0.27635 0.74488 0.35263 0.0
C1463 C 0.2746 0.73374 0.33668 0.0
C1464 C 0.27588 0.74069 0.31991 0.0
C1465 C 0.27541 0.73766 0.37062 0.0
C1466 C 0.28746 0.72727 0.37633 0.0
C1467 C 0.26363 0.74199 0.38266 0.0
C1468 C 0.24972 0.75192 0.37713 0.0
C1469 C 0.2371 0.74612 0.3614 0.0
C1470 C 0.2241 0.75563 0.35617 0.0
C1471 C 0.2235 0.77089 0.36663 0.0
C1472 C 0.23588 0.77665 0.38236 0.0
C1473 C 0.24894 0.76721 0.38763 0.0
H1474 H 0.21341 0.77822 0.36256 0.0
H1475 H 0.33828 0.68453 0.41229 0.0
H1476 H 0.5837 0.96782 0.70574 0.0
H1477 H 0.5776 0.9845 0.6801 0.0
H1478 H 0.62827 0.02289 0.69773 0.0
H1479 H 0.63526 1.00569 0.722 0.0
H1480 H 0.5727 0.01782 0.68571 0.0
H1481 H 0.64102 0.04155 0.67152 0.0
H1482 H 0.67072 0.03359 0.67051 0.0
H1483 H 0.64303 0.98259 0.6443 0.0
H1484 H 0.6132 0.99023 0.64551 0.0
H1485 H 0.55418 0.05711 0.59978 0.0
H1486 H 0.56997 0.05761 0.63038 0.0
H1487 H 0.56958 1.00262 0.6204 0.0
H1488 H 0.55377 1.00181 0.59011 0.0
H1489 H 0.60645 0.02984 0.63318 0.0
H1490 H 0.54103 1.0042 0.64608 0.0
H1491 H 0.50973 0.0091 0.64324 0.0
H1492 H 0.53069 0.06163 0.66893 0.0
H1493 H 0.5621 0.05698 0.67173 0.0
C1494 C 0.59394 0.97927 0.70348 0.0
C1495 C 0.6099 0.98539 0.71576 0.0
C1496 C 0.59034 0.98894 0.68912 0.0
C1497 C 0.60248 1.00494 0.68724 0.0
C1498 C 0.61898 0.0104 0.69871 0.0
C1499 C 0.62292 1.00043 0.7126 0.0
C1500 C 0.59714 0.01634 0.67396 0.0
C1501 C 0.58033 0.02094 0.67447 0.0
C1502 C 0.60735 0.02091 0.65969 0.0
C1503 C 0.62507 0.01639 0.65867 0.0
C1504 C 0.64137 0.02868 0.66551 0.0
C1505 C 0.65817 0.0242 0.66498 0.0
C1506 C 0.65877 0.00759 0.65735 0.0
C1507 C 0.64255 0.99542 0.65025 0.0
C1508 C 0.62571 0.99978 0.65093 0.0
C1509 C 0.55712 0.04505 0.60428 0.0
C1510 C 0.55304 0.02948 0.59256 0.0
C1511 C 0.56629 0.04547 0.62157 0.0
C1512 C 0.57136 0.03034 0.62703 0.0
C1513 C 0.56608 0.0145 0.61594 0.0
C1514 C 0.55681 0.014 0.59881 0.0
C1515 C 0.58171 0.03034 0.6446 0.0
C1516 C 0.59949 0.02794 0.64503 0.0
C1517 C 0.57248 0.02785 0.65975 0.0
C1518 C 0.55369 0.0302 0.65931 0.0
C1519 C 0.53885 0.0167 0.65129 0.0
C1520 C 0.52115 0.01946 0.64959 0.0
C1521 C 0.51821 0.03564 0.65596 0.0
C1522 C 0.53297 0.04908 0.66407 0.0
C1523 C 0.5507 0.04639 0.66573 0.0
H1524 H 0.5045 0.03779 0.65458 0.0
H1525 H 0.67179 1.00415 0.65693 0.0
H1526 H 0.26018 0.35654 0.96937 0.0
H1527 H 0.26062 0.34281 0.93891 0.0
H1528 H 0.31852 0.34735 0.95116 0.0
H1529 H 0.31801 0.3605 0.98181 0.0
H1530 H 0.30954 0.35738 0.91594 0.0
H1531 H 0.28921 0.3078 0.94869 0.0
H1532 H 0.26939 0.28955 0.96749 0.0
H1533 H 0.22299 0.28532 0.92711 0.0
H1534 H 0.2425 0.30383 0.9082 0.0
H1535 H 0.32333 0.29977 0.84167 0.0
H1536 H 0.32131 0.31332 0.8717 0.0
H1537 H 0.26342 0.30726 0.85712 0.0
H1538 H 0.26552 0.29428 0.82674 0.0
H1539 H 0.27139 0.2982 0.89306 0.0
H1540 H 0.28964 0.34676 0.86034 0.0
H1541 H 0.3076 0.36585 0.84081 0.0
H1542 H 0.35552 0.37334 0.88001 0.0
H1543 H 0.33789 0.35396 0.89964 0.0
C1544 C 0.27305 0.35455 0.96574 0.0
C1545 C 0.28903 0.35973 0.97859 0.0
C1546 C 0.2733 0.34658 0.94808 0.0
C1547 C 0.28962 0.34375 0.94215 0.0
C1548 C 0.30562 0.34917 0.95489 0.0
C1549 C 0.30529 0.35671 0.97269 0.0
C1550 C 0.29002 0.33524 0.92294 0.0
C1551 C 0.30136 0.34431 0.91119 0.0
C1552 C 0.27901 0.31836 0.91582 0.0
C1553 C 0.26725 0.30738 0.92717 0.0
C1554 C 0.27474 0.30314 0.94392 0.0
C1555 C 0.26357 0.29272 0.95457 0.0
C1556 C 0.24492 0.28633 0.94853 0.0
C1557 C 0.23742 0.29032 0.9318 0.0
C1558 C 0.24853 0.30078 0.92111 0.0
C1559 C 0.31009 0.30129 0.84472 0.0
C1560 C 0.29462 0.29576 0.83131 0.0
C1561 C 0.30895 0.30918 0.86211 0.0
C1562 C 0.29219 0.31157 0.86725 0.0
C1563 C 0.27662 0.30575 0.85399 0.0
C1564 C 0.27786 0.2983 0.83638 0.0
C1565 C 0.29109 0.32025 0.88618 0.0
C1566 C 0.27962 0.31124 0.89784 0.0
C1567 C 0.30176 0.3373 0.89313 0.0
C1568 C 0.31253 0.34869 0.88133 0.0
C1569 C 0.30407 0.35228 0.86469 0.0
C1570 C 0.31417 0.36319 0.85362 0.0
C1571 C 0.33271 0.37075 0.85913 0.0
C1572 C 0.34117 0.36742 0.87574 0.0
C1573 C 0.33114 0.35646 0.88684 0.0
H1574 H 0.34051 0.37923 0.85056 0.0
H1575 H 0.2363 0.27824 0.95679 0.0
H1576 H 0.96047 0.02336 0.26941 0.0
H1577 H 0.97652 0.02724 0.30012 0.0
H1578 H 0.92542 0.02498 0.3213 0.0
H1579 H 0.90948 0.02219 0.29041 0.0
H1580 H 0.95056 0.04783 0.34129 0.0
H1581 H 0.94518 0.98866 0.31892 0.0
H1582 H 0.94724 0.9635 0.29831 0.0
H1583 H 1.00562 0.98213 0.3039 0.0
H1584 H 1.00388 0.00754 0.32431 0.0
H1585 H 0.98801 0.02505 0.42655 0.0
H1586 H 0.96994 0.02639 0.39769 0.0
H1587 H 0.01926 0.03759 0.37256 0.0
H1588 H 0.03746 0.03615 0.40148 0.0
H1589 H 0.99291 0.0091 0.35589 0.0
H1590 H 0.9957 0.06912 0.38001 0.0
H1591 H 0.99104 0.0907 0.40346 0.0
H1592 H 0.93374 0.06589 0.39718 0.0
H1593 H 0.93813 0.044 0.37391 0.0
C1594 C 0.95275 0.02395 0.28066 0.0
C1595 C 0.93383 0.02246 0.27775 0.0
C1596 C 0.96186 0.026 0.29815 0.0
C1597 C 0.95205 0.02588 0.31292 0.0
C1598 C 0.93319 0.025 0.31003 0.0
C1599 C 0.92414 0.02345 0.29248 0.0
C1600 C 0.96157 0.02646 0.33133 0.0
C1601 C 0.95966 0.03923 0.34453 0.0
C1602 C 0.97332 0.01514 0.33559 0.0
C1603 C 0.97437 1.00008 0.32301 0.0
C1604 C 0.95843 0.98748 0.31561 0.0
C1605 C 0.95955 0.97316 0.30399 0.0
C1606 C 0.97655 0.97123 0.29977 0.0
C1607 C 0.99246 0.98364 0.30716 0.0
C1608 C 0.99142 0.998 0.31875 0.0
C1609 C 0.99501 0.02824 0.41495 0.0
C1610 C 0.01406 0.03051 0.41608 0.0
C1611 C 0.9847 0.02899 0.39854 0.0
C1612 C 0.99337 0.0322 0.38317 0.0
C1613 C 0.01245 0.03512 0.3844 0.0
C1614 C 0.02277 0.03426 0.4008 0.0
C1615 C 0.98242 0.03087 0.36546 0.0
C1616 C 0.98389 0.01776 0.35251 0.0
C1617 C 0.96989 0.04147 0.36167 0.0
C1618 C 0.96725 0.05492 0.37528 0.0
C1619 C 0.98212 0.06825 0.38368 0.0
C1620 C 0.97953 0.08053 0.39694 0.0
C1621 C 0.9621 0.07967 0.4018 0.0
C1622 C 0.94722 0.06655 0.3934 0.0
C1623 C 0.94975 0.05423 0.38016 0.0
H1624 H 0.96012 0.08918 0.41208 0.0
H1625 H 0.97739 0.96011 0.29081 0.0
H1626 H 0.28612 0.68381 0.57847 0.0
H1627 H 0.28732 0.69636 0.60936 0.0
H1628 H 0.29273 0.74806 0.59098 0.0
H1629 H 0.291 0.73542 0.55959 0.0
H1630 H 0.3187 0.74472 0.62316 0.0
H1631 H 0.25489 0.73212 0.60162 0.0
H1632 H 0.22518 0.71404 0.58688 0.0
H1633 H 0.22625 0.67712 0.62674 0.0
H1634 H 0.25617 0.69482 0.64153 0.0
H1635 H 0.30652 0.78609 0.70653 0.0
H1636 H 0.30479 0.77562 0.67491 0.0
H1637 H 0.28574 0.72218 0.68741 0.0
H1638 H 0.28704 0.73266 0.71926 0.0
H1639 H 0.26621 0.72744 0.65739 0.0
H1640 H 0.3302 0.73872 0.67814 0.0
H1641 H 0.36035 0.75595 0.69279 0.0
H1642 H 0.35943 0.79435 0.65448 0.0
H1643 H 0.32912 0.77748 0.63977 0.0
C1644 C 0.28768 0.69789 0.58089 0.0
C1645 C 0.2886 0.70862 0.56645 0.0
C1646 C 0.28826 0.70503 0.59863 0.0
C1647 C 0.29008 0.72314 0.60254 0.0
C1648 C 0.29133 0.73403 0.58828 0.0
C1649 C 0.29033 0.7268 0.57035 0.0
C1650 C 0.29072 0.73045 0.62161 0.0
C1651 C 0.30712 0.74123 0.63056 0.0
C1652 C 0.27581 0.72544 0.63146 0.0
C1653 C 0.25787 0.7147 0.62257 0.0
C1654 C 0.2489 0.72004 0.60713 0.0
C1655 C 0.232 0.70988 0.59878 0.0
C1656 C 0.22385 0.69442 0.60584 0.0
C1657 C 0.23259 0.68909 0.62127 0.0
C1658 C 0.24952 0.69918 0.62964 0.0
C1659 C 0.30209 0.77206 0.70269 0.0
C1660 C 0.29705 0.76023 0.71564 0.0
C1661 C 0.30115 0.76607 0.68449 0.0
C1662 C 0.29532 0.74805 0.67863 0.0
C1663 C 0.29031 0.73616 0.6915 0.0
C1664 C 0.2912 0.74216 0.70978 0.0
C1665 C 0.29427 0.74173 0.65908 0.0
C1666 C 0.27779 0.73106 0.65002 0.0
C1667 C 0.30916 0.74674 0.64914 0.0
C1668 C 0.32734 0.75693 0.65797 0.0
C1669 C 0.33637 0.75092 0.67293 0.0
C1670 C 0.35349 0.76061 0.68123 0.0
C1671 C 0.36179 0.77626 0.67459 0.0
C1672 C 0.35298 0.78224 0.65962 0.0
C1673 C 0.33583 0.77262 0.65129 0.0
H1674 H 0.37506 0.78373 0.68102 0.0
H1675 H 0.21075 0.68659 0.59938 0.0
H1676 H 0.59892 0.02161 0.80126 0.0
H1677 H 0.60055 0.0362 0.83143 0.0
H1678 H 0.57733 0.98628 0.85045 0.0
H1679 H 0.5764 0.97138 0.82007 0.0
H1680 H 0.55872 0.01651 0.85356 0.0
H1681 H 0.61605 1.001 0.86725 0.0
H1682 H 0.6472 0.99895 0.86253 0.0
H1683 H 0.66442 0.05533 0.86649 0.0
H1684 H 0.63325 0.05772 0.87084 0.0
H1685 H 0.56993 0.03985 0.94682 0.0
H1686 H 0.58358 0.02995 0.92131 0.0
H1687 H 0.57797 0.07644 0.89544 0.0
H1688 H 0.56303 0.08588 0.92061 0.0
H1689 H 0.61301 0.04833 0.89639 0.0
H1690 H 0.55343 0.06243 0.87226 0.0
H1691 H 0.52192 0.06447 0.87556 0.0
H1692 H 0.50918 0.0109 0.88877 0.0
H1693 H 0.54091 0.00887 0.88626 0.0
C1694 C 0.59415 0.01379 0.81193 0.0
C1695 C 0.58706 0.99557 0.80856 0.0
C1696 C 0.59539 0.02205 0.8291 0.0
C1697 C 0.58931 0.0122 0.843 0.0
C1698 C 0.58229 0.99392 0.83974 0.0
C1699 C 0.5815 0.98551 0.82253 0.0
C1700 C 0.58797 0.0216 0.86009 0.0
C1701 C 0.57058 0.02332 0.86301 0.0
C1702 C 0.60357 0.03093 0.8719 0.0
C1703 C 0.62226 0.02953 0.86914 0.0
C1704 C 0.62642 0.01296 0.86687 0.0
C1705 C 0.64409 0.01174 0.86431 0.0
C1706 C 0.65777 0.027 0.86415 0.0
C1707 C 0.6538 0.04352 0.86658 0.0
C1708 C 0.63613 0.04481 0.86909 0.0
C1709 C 0.57234 0.04831 0.93603 0.0
C1710 C 0.56556 0.06358 0.93547 0.0
C1711 C 0.58012 0.04266 0.92154 0.0
C1712 C 0.58142 0.05239 0.90655 0.0
C1713 C 0.57673 0.06874 0.90692 0.0
C1714 C 0.56838 0.07417 0.92124 0.0
C1715 C 0.58381 0.04349 0.88953 0.0
C1716 C 0.60126 0.04167 0.88675 0.0
C1717 C 0.56835 0.03432 0.87749 0.0
C1718 C 0.54961 0.03573 0.87972 0.0
C1719 C 0.54402 0.05127 0.87635 0.0
C1720 C 0.52612 0.0524 0.878 0.0
C1721 C 0.51359 0.03788 0.88256 0.0
C1722 C 0.51895 0.02221 0.88546 0.0
C1723 C 0.53691 0.0211 0.88405 0.0
H1724 H 0.49969 0.03873 0.88369 0.0
H1725 H 0.67146 0.02602 0.8622 0.0
H1726 H 0.25367 0.37783 0.09378 0.0
H1727 H 0.25311 0.36183 0.12069 0.0
H1728 H 0.30343 0.348 0.11113 0.0
H1729 H 0.30274 0.36247 0.08306 0.0
H1730 H 0.29175 0.32428 0.12735 0.0
H1731 H 0.29169 0.38329 0.14963 0.0
H1732 H 0.28061 0.41061 0.15179 0.0
H1733 H 0.2287 0.38138 0.16328 0.0
H1734 H 0.23943 0.35389 0.161 0.0
H1735 H 0.31247 0.31244 0.22511 0.0
H1736 H 0.31076 0.32636 0.19654 0.0
H1737 H 0.25278 0.30446 0.18666 0.0
H1738 H 0.25462 0.2897 0.21476 0.0
H1739 H 0.26805 0.34571 0.18131 0.0
H1740 H 0.27131 0.2869 0.16141 0.0
H1741 H 0.28493 0.26111 0.16107 0.0
H1742 H 0.33462 0.29264 0.1471 0.0
H1743 H 0.3214 0.31872 0.14775 0.0
C1744 C 0.26464 0.37133 0.09725 0.0
C1745 C 0.27822 0.37175 0.08566 0.0
C1746 C 0.26457 0.36225 0.11325 0.0
C1747 C 0.27867 0.35377 0.1194 0.0
C1748 C 0.29219 0.35412 0.1076 0.0
C1749 C 0.29185 0.36262 0.0912 0.0
C1750 C 0.2793 0.3445 0.13752 0.0
C1751 C 0.28672 0.32943 0.13903 0.0
C1752 C 0.27271 0.35017 0.15361 0.0
C1753 C 0.26628 0.36659 0.15496 0.0
C1754 C 0.27789 0.38273 0.15254 0.0
C1755 C 0.27167 0.39822 0.15378 0.0
C1756 C 0.25394 0.39772 0.15762 0.0
C1757 C 0.24241 0.38174 0.16028 0.0
C1758 C 0.24855 0.36621 0.15902 0.0
C1759 C 0.29927 0.3105 0.21695 0.0
C1760 C 0.2837 0.29973 0.22281 0.0
C1761 C 0.2983 0.31857 0.20034 0.0
C1762 C 0.2816 0.31685 0.18885 0.0
C1763 C 0.26596 0.30633 0.19483 0.0
C1764 C 0.26704 0.29774 0.21114 0.0
C1765 C 0.28054 0.32587 0.17087 0.0
C1766 C 0.27309 0.34081 0.16949 0.0
C1767 C 0.28749 0.32035 0.15511 0.0
C1768 C 0.29547 0.30478 0.15489 0.0
C1769 C 0.28523 0.28838 0.15852 0.0
C1770 C 0.29286 0.2737 0.15822 0.0
C1771 C 0.31066 0.27524 0.15413 0.0
C1772 C 0.32086 0.29147 0.15032 0.0
C1773 C 0.31331 0.30621 0.15066 0.0
H1774 H 0.31653 0.26385 0.15386 0.0
H1775 H 0.24915 0.40974 0.15858 0.0
H1776 H 0.23506 0.9022 0.02899 0.0
H1777 H 0.21205 0.91891 0.03386 0.0
H1778 H 0.25082 0.95449 0.0741 0.0
H1779 H 0.27359 0.93747 0.06982 0.0
H1780 H 0.21913 0.94848 0.08518 0.0
H1781 H 0.24088 0.96512 0.02996 0.0
H1782 H 0.24847 0.96076 0.9991 0.0
H1783 H 0.19223 0.93597 0.98007 0.0
H1784 H 0.18437 0.93997 0.01089 0.0
H1785 H 0.1761 0.02194 0.07728 0.0
H1786 H 0.19656 1.00176 0.0789 0.0
H1787 H 0.15484 0.96158 0.04626 0.0
H1788 H 0.13409 0.98135 0.04506 0.0
H1789 H 0.18766 0.9698 0.03224 0.0
H1790 H 0.16632 0.95599 0.08865 0.0
H1791 H 0.16002 0.96232 0.11965 0.0
H1792 H 0.2172 0.98454 0.13669 0.0
H1793 H 0.2238 0.97862 0.1057 0.0
C1794 C 0.23865 0.91357 0.03888 0.0
C1795 C 0.25617 0.9186 0.04891 0.0
C1796 C 0.22552 0.92314 0.04163 0.0
C1797 C 0.22981 0.93814 0.05415 0.0
C1798 C 0.24719 0.94299 0.06438 0.0
C1799 C 0.26023 0.93329 0.06182 0.0
C1800 C 0.21636 0.94905 0.05625 0.0
C1801 C 0.21239 0.9533 0.07362 0.0
C1802 C 0.20741 0.95521 0.04119 0.0
C1803 C 0.2121 0.95265 0.02272 0.0
C1804 C 0.23018 0.9586 0.01921 0.0
C1805 C 0.23452 0.95622 1.00173 0.0
C1806 C 0.22085 0.94804 0.98764 0.0
C1807 C 0.20281 0.94226 0.991 0.0
C1808 C 0.1984 0.94458 0.00846 0.0
C1809 C 0.17109 0.00866 0.07086 0.0
C1810 C 0.15354 1.00334 0.06081 0.0
C1811 C 0.18281 0.99717 0.07179 0.0
C1812 C 0.17717 0.98024 0.06267 0.0
C1813 C 0.15942 0.97464 0.05333 0.0
C1814 C 0.14766 0.98602 0.05253 0.0
C1815 C 0.19031 0.96904 0.06109 0.0
C1816 C 0.19432 0.96487 0.04378 0.0
C1817 C 0.19947 0.96328 0.07624 0.0
C1818 C 0.19551 0.96705 0.09481 0.0
C1819 C 0.17752 0.96242 0.09896 0.0
C1820 C 0.1739 0.96589 0.11654 0.0
C1821 C 0.18819 0.97388 0.13013 0.0
C1822 C 0.20614 0.97839 0.12615 0.0
C1823 C 0.20982 0.97498 0.10858 0.0
H1824 H 0.18537 0.97652 0.14374 0.0
H1825 H 0.22424 0.94623 0.97411 0.0
H1826 H 0.74961 0.64212 0.01846 0.0
H1827 H 0.71822 0.62633 0.01982 0.0
H1828 H 0.73779 0.58406 0.04306 0.0
H1829 H 0.7696 0.60002 0.04184 0.0
H1830 H 0.7067 0.57046 0.01835 0.0
H1831 H 0.7213 0.61533 0.06861 0.0
H1832 H 0.73173 0.6458 0.08288 0.0
H1833 H 0.68866 0.66089 0.04956 0.0
H1834 H 0.67815 0.63056 0.03491 0.0
H1835 H 0.61747 0.52659 0.03747 0.0
H1836 H 0.64985 0.54047 0.0376 0.0
H1837 H 0.63629 0.59081 0.03288 0.0
H1838 H 0.60433 0.57711 0.03479 0.0
H1839 H 0.66564 0.60011 0.04902 0.0
H1840 H 0.65206 0.55854 0.99639 0.0
H1841 H 0.64156 0.52946 0.97888 0.0
H1842 H 0.68159 0.50986 0.01183 0.0
H1843 H 0.69217 0.53876 0.02965 0.0
C1844 C 0.74747 0.6294 0.02378 0.0
C1845 C 0.76272 0.62257 0.02993 0.0
C1846 C 0.7292 0.62031 0.02469 0.0
C1847 C 0.72504 0.60381 0.03176 0.0
C1848 C 0.74017 0.59668 0.03753 0.0
C1849 C 0.75858 0.60591 0.0368 0.0
C1850 C 0.70511 0.59432 0.03322 0.0
C1851 C 0.69784 0.57694 0.02528 0.0
C1852 C 0.69281 0.60256 0.04165 0.0
C1853 C 0.69901 0.62071 0.0506 0.0
C1854 C 0.71412 0.62517 0.06427 0.0
C1855 C 0.72004 0.64242 0.07242 0.0
C1856 C 0.71088 0.65528 0.06712 0.0
C1857 C 0.69575 0.65092 0.05366 0.0
C1858 C 0.6898 0.6337 0.04544 0.0
C1859 C 0.62137 0.54063 0.03644 0.0
C1860 C 0.60788 0.55053 0.03605 0.0
C1861 C 0.64018 0.54872 0.03623 0.0
C1862 C 0.6464 0.56703 0.03463 0.0
C1863 C 0.6327 0.57681 0.03417 0.0
C1864 C 0.61407 0.56884 0.03513 0.0
C1865 C 0.66679 0.5761 0.0338 0.0
C1866 C 0.67426 0.59347 0.04195 0.0
C1867 C 0.67912 0.56804 0.02506 0.0
C1868 C 0.67278 0.55072 0.01442 0.0
C1869 C 0.65855 0.54799 0.99993 0.0
C1870 C 0.65259 0.53155 0.98996 0.0
C1871 C 0.66088 0.51781 0.99426 0.0
C1872 C 0.67517 0.52049 0.00853 0.0
C1873 C 0.68116 0.53689 0.01856 0.0
H1874 H 0.65626 0.5051 0.98652 0.0
H1875 H 0.71548 0.66862 0.07345 0.0
H1876 H 0.69429 0.48035 0.33464 0.0
H1877 H 0.69927 0.45265 0.32137 0.0
H1878 H 0.75379 0.47936 0.31345 0.0
H1879 H 0.74869 0.50704 0.32613 0.0
H1880 H 0.73485 0.46156 0.28289 0.0
H1881 H 0.74449 0.45001 0.34661 0.0
H1882 H 0.73399 0.44632 0.37641 0.0
H1883 H 0.68853 0.40472 0.35247 0.0
H1884 H 0.69865 0.40834 0.3225 0.0
H1885 H 0.79071 0.40339 0.27361 0.0
H1886 H 0.77411 0.4253 0.28178 0.0
H1887 H 0.72472 0.38464 0.27959 0.0
H1888 H 0.74109 0.36252 0.27066 0.0
H1889 H 0.73265 0.40583 0.31142 0.0
H1890 H 0.72524 0.41289 0.24949 0.0
H1891 H 0.73339 0.41608 0.21877 0.0
H1892 H 0.77143 0.46519 0.23747 0.0
H1893 H 0.76376 0.46214 0.26839 0.0
C1894 C 0.70751 0.48015 0.33056 0.0
C1895 C 0.72115 0.49576 0.33142 0.0
C1896 C 0.71029 0.46437 0.32289 0.0
C1897 C 0.72686 0.46404 0.31636 0.0
C1898 C 0.74085 0.47942 0.31827 0.0
C1899 C 0.73799 0.49517 0.32566 0.0
C1900 C 0.72955 0.44806 0.30657 0.0
C1901 C 0.73449 0.4494 0.28915 0.0
C1902 C 0.72797 0.43191 0.31432 0.0
C1903 C 0.72221 0.42954 0.33236 0.0
C1904 C 0.73221 0.44014 0.34772 0.0
C1905 C 0.72633 0.43806 0.36462 0.0
C1906 C 0.71058 0.42532 0.36633 0.0
C1907 C 0.70071 0.41459 0.35114 0.0
C1908 C 0.70652 0.41664 0.3342 0.0
C1909 C 0.77619 0.39909 0.27426 0.0
C1910 C 0.76725 0.38118 0.27151 0.0
C1911 C 0.76674 0.41164 0.27904 0.0
C1912 C 0.74821 0.40652 0.2812 0.0
C1913 C 0.73904 0.38877 0.27797 0.0
C1914 C 0.74845 0.37619 0.27297 0.0
C1915 C 0.73906 0.41976 0.28822 0.0
C1916 C 0.73273 0.41788 0.305 0.0
C1917 C 0.73912 0.43536 0.27979 0.0
C1918 C 0.74397 0.43724 0.26128 0.0
C1919 C 0.73546 0.4243 0.24709 0.0
C1920 C 0.73998 0.42609 0.22963 0.0
C1921 C 0.75293 0.44082 0.22617 0.0
C1922 C 0.7614 0.45378 0.24017 0.0
C1923 C 0.75696 0.45204 0.25767 0.0
H1924 H 0.75639 0.4422 0.21264 0.0
H1925 H 0.70604 0.42375 0.37942 0.0
H1926 H 0.83894 0.43568 0.53984 0.0
H1927 H 0.86883 0.45638 0.54388 0.0
H1928 H 0.89539 0.41306 0.54291 0.0
H1929 H 0.86554 0.3922 0.53873 0.0
H1930 H 0.9106 0.44071 0.57183 0.0
H1931 H 0.89405 0.43241 0.50727 0.0
H1932 H 0.87293 0.43097 0.47923 0.0
H1933 H 0.87156 0.48503 0.49117 0.0
H1934 H 0.89248 0.48669 0.51945 0.0
H1935 H 0.99931 0.48712 0.55969 0.0
H1936 H 0.96968 0.46707 0.55947 0.0
H1937 H 0.9428 0.50877 0.54653 0.0
H1938 H 0.97254 0.52866 0.54567 0.0
H1939 H 0.92734 0.48156 0.52533 0.0
H1940 H 0.94353 0.49036 0.5899 0.0
H1941 H 0.96378 0.49195 0.61852 0.0
H1942 H 0.96578 0.43796 0.60731 0.0
H1943 H 0.94535 0.43602 0.57865 0.0
C1944 C 0.85112 0.43054 0.54036 0.0
C1945 C 0.84988 0.4123 0.53883 0.0
C1946 C 0.86816 0.44237 0.54273 0.0
C1947 C 0.88422 0.43618 0.54373 0.0
C1948 C 0.88309 0.41803 0.54225 0.0
C1949 C 0.86604 0.40616 0.53968 0.0
C1950 C 0.9022 0.44875 0.54584 0.0
C1951 C 0.91441 0.44955 0.56162 0.0
C1952 C 0.90688 0.46046 0.53268 0.0
C1953 C 0.8947 0.45964 0.5155 0.0
C1954 C 0.88916 0.44396 0.50395 0.0
C1955 C 0.87724 0.4431 0.48802 0.0
C1956 C 0.87088 0.45789 0.48343 0.0
C1957 C 0.87649 0.47358 0.49474 0.0
C1958 C 0.88839 0.4745 0.51071 0.0
C1959 C 0.98711 0.49214 0.5572 0.0
C1960 C 0.9882 0.50946 0.55275 0.0
C1961 C 0.97013 0.48065 0.55714 0.0
C1962 C 0.95395 0.48643 0.55321 0.0
C1963 C 0.95508 0.50399 0.54957 0.0
C1964 C 0.97206 0.51537 0.54919 0.0
C1965 C 0.93588 0.47384 0.55152 0.0
C1966 C 0.92361 0.4729 0.5357 0.0
C1967 C 0.93112 0.46211 0.56473 0.0
C1968 C 0.94301 0.46308 0.58213 0.0
C1969 C 0.94832 0.47884 0.59354 0.0
C1970 C 0.95985 0.47981 0.60976 0.0
C1971 C 0.9662 0.46511 0.61469 0.0
C1972 C 0.96087 0.44935 0.60348 0.0
C1973 C 0.94924 0.44828 0.58729 0.0
H1974 H 0.9752 0.46593 0.62722 0.0
H1975 H 0.86163 0.4572 0.4711 0.0
H1976 H 0.45202 0.13442 0.30891 0.0
H1977 H 0.43228 0.15396 0.2993 0.0
H1978 H 0.3869 0.109 0.28438 0.0
H1979 H 0.40642 0.08947 0.29381 0.0
H1980 H 0.3947 0.12972 0.25639 0.0
H1981 H 0.38621 0.13646 0.31953 0.0
H1982 H 0.39791 0.14336 0.35196 0.0
H1983 H 0.42508 0.19551 0.3421 0.0
H1984 H 0.41369 0.18882 0.30954 0.0
H1985 H 0.31461 0.16135 0.24316 0.0
H1986 H 0.33991 0.14728 0.25072 0.0
H1987 H 0.37696 0.1983 0.26408 0.0
H1988 H 0.35174 0.21244 0.25635 0.0
H1989 H 0.3775 0.17792 0.29166 0.0
H1990 H 0.383 0.17288 0.22938 0.0
H1991 H 0.37321 0.16618 0.19662 0.0
H1992 H 0.35364 0.11159 0.20402 0.0
H1993 H 0.36307 0.11801 0.23689 0.0
C1994 C 0.4377 0.1288 0.30412 0.0
C1995 C 0.43073 0.1105 0.30188 0.0
C1996 C 0.42651 0.13992 0.29856 0.0
C1997 C 0.40832 0.13276 0.29094 0.0
C1998 C 0.40101 0.11463 0.29005 0.0
C1999 C 0.41214 0.10355 0.29552 0.0
C2000 C 0.39715 0.14389 0.28256 0.0
C2001 C 0.39077 0.14018 0.26407 0.0
C2002 C 0.39283 0.15792 0.29255 0.0
C2003 C 0.3992 0.16212 0.31214 0.0
C2004 C 0.39473 0.14938 0.32429 0.0
C2005 C 0.4013 0.15325 0.34268 0.0
C2006 C 0.41225 0.16986 0.34908 0.0
C2007 C 0.41659 0.18265 0.33711 0.0
C2008 C 0.41006 0.17884 0.3187 0.0
C2009 C 0.32826 0.16952 0.24711 0.0
C2010 C 0.33128 0.1879 0.24939 0.0
C2011 C 0.34267 0.16152 0.25147 0.0
C2012 C 0.3602 0.17184 0.25801 0.0
C2013 C 0.36347 0.1902 0.25913 0.0
C2014 C 0.3491 0.1982 0.25473 0.0
C2015 C 0.37451 0.1634 0.26551 0.0
C2016 C 0.38157 0.16763 0.28386 0.0
C2017 C 0.37957 0.1499 0.25534 0.0
C2018 C 0.37364 0.14596 0.23562 0.0
C2019 C 0.37645 0.15947 0.22405 0.0
C2020 C 0.371 0.15572 0.20545 0.0
C2021 C 0.36278 0.13848 0.19825 0.0
C2022 C 0.36 0.12495 0.20963 0.0
C2023 C 0.36542 0.12863 0.22824 0.0
H2024 H 0.3586 0.13559 0.18384 0.0
H2025 H 0.41735 0.17282 0.36333 0.0
H2026 H 0.39034 0.14315 0.53608 0.0
H2027 H 0.41774 0.13158 0.53725 0.0
H2028 H 0.38523 0.07961 0.54143 0.0
H2029 H 0.35825 0.09188 0.54259 0.0
H2030 H 0.41276 0.07568 0.55541 0.0
H2031 H 0.41318 0.10414 0.49934 0.0
H2032 H 0.41374 0.12901 0.48059 0.0
H2033 H 0.46244 0.15869 0.51385 0.0
H2034 H 0.46205 0.13405 0.53284 0.0
H2035 H 0.4834 0.03176 0.53318 0.0
H2036 H 0.45653 0.04445 0.53306 0.0
H2037 H 0.49172 0.09642 0.54318 0.0
H2038 H 0.51861 0.08374 0.54308 0.0
H2039 H 0.46389 0.10036 0.52212 0.0
H2040 H 0.4646 0.07118 0.57627 0.0
H2041 H 0.4649 0.04611 0.59452 0.0
H2042 H 0.41423 0.01737 0.56386 0.0
H2043 H 0.41379 0.04219 0.54526 0.0
C2044 C 0.3889 0.12921 0.53723 0.0
C2045 C 0.37148 0.11869 0.5391 0.0
C2046 C 0.40492 0.12227 0.53752 0.0
C2047 C 0.40453 0.10406 0.53859 0.0
C2048 C 0.38695 0.0936 0.54049 0.0
C2049 C 0.37108 0.10071 0.54104 0.0
C2050 C 0.42193 0.09601 0.53824 0.0
C2051 C 0.42355 0.08112 0.54766 0.0
C2052 C 0.43727 0.10266 0.52894 0.0
C2053 C 0.43747 0.11737 0.51756 0.0
C2054 C 0.42395 0.11601 0.50265 0.0
C2055 C 0.42425 0.13005 0.492 0.0
C2056 C 0.43809 0.14544 0.49606 0.0
C2057 C 0.45171 0.14679 0.51074 0.0
C2058 C 0.45146 0.13279 0.52144 0.0
C2059 C 0.48561 0.04592 0.53545 0.0
C2060 C 0.50377 0.05644 0.53826 0.0
C2061 C 0.46993 0.05333 0.53552 0.0
C2062 C 0.47134 0.07175 0.53846 0.0
C2063 C 0.48952 0.08226 0.54093 0.0
C2064 C 0.5052 0.07485 0.54094 0.0
C2065 C 0.45425 0.07998 0.53885 0.0
C2066 C 0.45284 0.0949 0.52958 0.0
C2067 C 0.43906 0.07328 0.54812 0.0
C2068 C 0.43925 0.05844 0.5593 0.0
C2069 C 0.45358 0.05946 0.57337 0.0
C2070 C 0.45378 0.04531 0.58377 0.0
C2071 C 0.43961 0.03014 0.58033 0.0
C2072 C 0.42521 0.02911 0.5665 0.0
C2073 C 0.42497 0.04321 0.55602 0.0
H2074 H 0.43978 0.01919 0.5884 0.0
H2075 H 0.43828 0.1563 0.4878 0.0
H2076 H 0.70373 0.60394 0.36123 0.0
H2077 H 0.7151 0.63374 0.353 0.0
H2078 H 0.75331 0.61507 0.32264 0.0
H2079 H 0.7428 0.58566 0.33171 0.0
H2080 H 0.7687 0.64503 0.33732 0.0
H2081 H 0.70967 0.62073 0.30317 0.0
H2082 H 0.67645 0.60782 0.29754 0.0
H2083 H 0.6665 0.65321 0.32643 0.0
H2084 H 0.69968 0.66626 0.33247 0.0
H2085 H 0.78579 0.71261 0.2803 0.0
H2086 H 0.77388 0.68384 0.29052 0.0
H2087 H 0.74207 0.70697 0.32528 0.0
H2088 H 0.75334 0.73571 0.31448 0.0
H2089 H 0.7233 0.67554 0.30903 0.0
H2090 H 0.78476 0.69929 0.34143 0.0
H2091 H 0.81795 0.71142 0.34266 0.0
H2092 H 0.82279 0.66488 0.31178 0.0
H2093 H 0.78961 0.65259 0.3102 0.0
C2094 C 0.71496 0.60639 0.35328 0.0
C2095 C 0.72248 0.5926 0.34716 0.0
C2096 C 0.72122 0.62331 0.34835 0.0
C2097 C 0.73467 0.62648 0.33679 0.0
C2098 C 0.74288 0.6129 0.33153 0.0
C2099 C 0.73696 0.59612 0.33683 0.0
C2100 C 0.74003 0.64379 0.32978 0.0
C2101 C 0.75873 0.65159 0.33101 0.0
C2102 C 0.72704 0.65244 0.32166 0.0
C2103 C 0.70715 0.64435 0.31847 0.0
C2104 C 0.7004 0.62786 0.3085 0.0
C2105 C 0.68158 0.62054 0.3052 0.0
C2106 C 0.66938 0.62966 0.31167 0.0
C2107 C 0.67597 0.64613 0.32146 0.0
C2108 C 0.69477 0.65348 0.32484 0.0
C2109 C 0.77617 0.71151 0.29005 0.0
C2110 C 0.77062 0.7263 0.29683 0.0
C2111 C 0.76943 0.69513 0.29588 0.0
C2112 C 0.75749 0.69346 0.30896 0.0
C2113 C 0.75139 0.7081 0.31525 0.0
C2114 C 0.75785 0.72445 0.30913 0.0
C2115 C 0.75185 0.67656 0.31656 0.0
C2116 C 0.73316 0.66892 0.31546 0.0
C2117 C 0.76481 0.66779 0.32436 0.0
C2118 C 0.78476 0.67508 0.32566 0.0
C2119 C 0.79292 0.69169 0.33488 0.0
C2120 C 0.81172 0.69859 0.33563 0.0
C2121 C 0.82247 0.68894 0.3273 0.0
C2122 C 0.81446 0.67234 0.31824 0.0
C2123 C 0.79568 0.6654 0.31744 0.0
H2124 H 0.83702 0.69431 0.32789 0.0
H2125 H 0.65481 0.624 0.30904 0.0
H2126 H 0.97248 0.51927 0.8133 0.0
H2127 H 0.95612 0.48818 0.80852 0.0
H2128 H 0.9068 0.50348 0.78774 0.0
H2129 H 0.92274 0.53432 0.79345 0.0
H2130 H 0.89962 0.4817 0.81118 0.0
H2131 H 0.93412 0.4833 0.75989 0.0
H2132 H 0.96254 0.48838 0.74579 0.0
H2133 H 0.98218 0.45152 0.77827 0.0
H2134 H 0.95391 0.44626 0.79253 0.0
H2135 H 0.83998 0.40497 0.77354 0.0
H2136 H 0.86277 0.43248 0.77311 0.0
H2137 H 0.90414 0.41015 0.80103 0.0
H2138 H 0.88142 0.38249 0.80131 0.0
H2139 H 0.91773 0.43386 0.77616 0.0
H2140 H 0.88185 0.43082 0.82539 0.0
H2141 H 0.85299 0.42525 0.8386 0.0
H2142 H 0.83599 0.46582 0.80984 0.0
H2143 H 0.86457 0.47134 0.79614 0.0
C2144 C 0.95813 0.51587 0.80778 0.0
C2145 C 0.94871 0.52904 0.80402 0.0
C2146 C 0.94887 0.49817 0.80486 0.0
C2147 C 0.93028 0.49354 0.79766 0.0
C2148 C 0.92111 0.50678 0.79345 0.0
C2149 C 0.93018 0.52437 0.79679 0.0
C2150 C 0.91975 0.47509 0.79557 0.0
C2151 C 0.90352 0.47134 0.8033 0.0
C2152 C 0.92517 0.46139 0.78595 0.0
C2153 C 0.94206 0.46454 0.77736 0.0
C2154 C 0.94459 0.4764 0.76408 0.0
C2155 C 0.96063 0.47929 0.75606 0.0
C2156 C 0.9742 0.47037 0.76121 0.0
C2157 C 0.97169 0.45846 0.77432 0.0
C2158 C 0.95565 0.45548 0.78233 0.0
C2159 C 0.85402 0.40586 0.77927 0.0
C2160 C 0.85896 0.39184 0.78775 0.0
C2161 C 0.867 0.42146 0.77891 0.0
C2162 C 0.88497 0.42331 0.78731 0.0
C2163 C 0.8903 0.40888 0.79449 0.0
C2164 C 0.87733 0.39317 0.79471 0.0
C2165 C 0.89727 0.44092 0.79094 0.0
C2166 C 0.9139 0.44435 0.78389 0.0
C2167 C 0.89223 0.45446 0.80113 0.0
C2168 C 0.87524 0.45138 0.80965 0.0
C2169 C 0.87189 0.43847 0.8218 0.0
C2170 C 0.85558 0.43531 0.82937 0.0
C2171 C 0.84265 0.44516 0.82504 0.0
C2172 C 0.846 0.45819 0.81316 0.0
C2173 C 0.86224 0.46133 0.80549 0.0
H2174 H 0.83003 0.4427 0.83093 0.0
H2175 H 0.98662 0.47264 0.755 0.0
H2176 H 0.04616 0.8689 0.13045 0.0
H2177 H 0.03763 0.89448 0.11758 0.0
H2178 H 0.09431 0.91708 0.11354 0.0
H2179 H 0.10282 0.89126 0.12558 0.0
H2180 H 0.06841 0.9397 0.12976 0.0
H2181 H 0.08134 0.90514 0.07893 0.0
H2182 H 0.07919 0.87722 0.06065 0.0
H2183 H 0.0207 0.86899 0.05113 0.0
H2184 H 0.02255 0.89675 0.06973 0.0
H2185 H 0.07831 1.00185 0.06795 0.0
H2186 H 0.07977 0.97516 0.08203 0.0
H2187 H 0.02092 0.95819 0.07306 0.0
H2188 H 0.01908 0.98515 0.05882 0.0
H2189 H 0.0439 0.93199 0.06443 0.0
H2190 H 0.03504 0.97334 0.11174 0.0
H2191 H 0.0421 1.00316 0.1276 0.0
H2192 H 0.09792 1.00034 0.14205 0.0
H2193 H 0.09125 0.97062 0.12595 0.0
C2194 C 0.05673 0.87941 0.12687 0.0
C2195 C 0.07504 0.87823 0.12868 0.0
C2196 C 0.05188 0.8939 0.11964 0.0
C2197 C 0.06542 0.90739 0.11473 0.0
C2198 C 0.08381 0.90663 0.11734 0.0
C2199 C 0.08859 0.89193 0.12403 0.0
C2200 C 0.06028 0.92175 0.10565 0.0
C2201 C 0.06291 0.93807 0.11554 0.0
C2202 C 0.05329 0.91938 0.08713 0.0
C2203 C 0.05205 0.90276 0.07598 0.0
C2204 C 0.06801 0.89722 0.07316 0.0
C2205 C 0.06686 0.88147 0.0627 0.0
C2206 C 0.0498 0.87128 0.05481 0.0
C2207 C 0.03389 0.87686 0.05732 0.0
C2208 C 0.03498 0.89258 0.06784 0.0
C2209 C 0.06559 0.99253 0.06888 0.0
C2210 C 0.04852 0.99573 0.06249 0.0
C2211 C 0.06652 0.97727 0.07686 0.0
C2212 C 0.05044 0.96504 0.07862 0.0
C2213 C 0.03339 0.9677 0.07173 0.0
C2214 C 0.0324 0.98308 0.06372 0.0
C2215 C 0.05178 0.94994 0.08858 0.0
C2216 C 0.0487 0.93349 0.07881 0.0
C2217 C 0.05881 0.95234 0.10713 0.0
C2218 C 0.06264 0.96979 0.11762 0.0
C2219 C 0.04882 0.9791 0.11828 0.0
C2220 C 0.05276 0.99599 0.12729 0.0
C2221 C 0.07045 1.00364 0.13583 0.0
C2222 C 0.08422 0.99438 0.13545 0.0
C2223 C 0.08036 0.97751 0.12641 0.0
H2224 H 0.07349 0.01674 0.14276 0.0
H2225 H 0.04893 0.85909 0.04669 0.0
H2226 H 0.95528 0.2495 0.8939 0.0
H2227 H 0.92895 0.25631 0.8766 0.0
H2228 H 0.93613 0.22391 0.83031 0.0
H2229 H 0.96305 0.21752 0.84739 0.0
H2230 H 0.93468 0.25558 0.82189 0.0
H2231 H 0.89906 0.21252 0.85393 0.0
H2232 H 0.89031 0.19836 0.88107 0.0
H2233 H 0.87659 0.24543 0.90195 0.0
H2234 H 0.88562 0.26001 0.8751 0.0
H2235 H 0.85193 0.26339 0.77015 0.0
H2236 H 0.87725 0.2536 0.78629 0.0
H2237 H 0.87646 0.28841 0.83316 0.0
H2238 H 0.85117 0.29831 0.81724 0.0
H2239 H 0.87357 0.25387 0.84049 0.0
H2240 H 0.91115 0.29758 0.81079 0.0
H2241 H 0.92128 0.31312 0.78486 0.0
H2242 H 0.93178 0.26574 0.76066 0.0
H2243 H 0.92142 0.24985 0.78634 0.0
C2244 C 0.95106 0.24352 0.88015 0.0
C2245 C 0.96129 0.23312 0.8719 0.0
C2246 C 0.93593 0.24735 0.87032 0.0
C2247 C 0.93058 0.2405 0.85224 0.0
C2248 C 0.94013 0.22929 0.84428 0.0
C2249 C 0.95545 0.22565 0.85403 0.0
C2250 C 0.91637 0.24667 0.84115 0.0
C2251 C 0.92116 0.25484 0.82573 0.0
C2252 C 0.89904 0.24626 0.84662 0.0
C2253 C 0.89314 0.23739 0.86256 0.0
C2254 C 0.89427 0.21988 0.86435 0.0
C2255 C 0.88927 0.21179 0.87968 0.0
C2256 C 0.88298 0.22102 0.89325 0.0
C2257 C 0.88152 0.23832 0.89145 0.0
C2258 C 0.88656 0.2465 0.87617 0.0
C2259 C 0.85744 0.26931 0.78372 0.0
C2260 C 0.84947 0.28147 0.79251 0.0
C2261 C 0.87184 0.26366 0.79291 0.0
C2262 C 0.87844 0.27021 0.81089 0.0
C2263 C 0.87131 0.28315 0.81931 0.0
C2264 C 0.85698 0.28885 0.81014 0.0
C2265 C 0.89196 0.2627 0.82132 0.0
C2266 C 0.88703 0.25436 0.83659 0.0
C2267 C 0.90919 0.26302 0.81582 0.0
C2268 C 0.91535 0.2725 0.80037 0.0
C2269 C 0.91546 0.29044 0.79985 0.0
C2270 C 0.92126 0.29932 0.78522 0.0
C2271 C 0.92712 0.29041 0.77109 0.0
C2272 C 0.92721 0.27262 0.77159 0.0
C2273 C 0.92138 0.26367 0.78618 0.0
H2274 H 0.93164 0.29731 0.75979 0.0
H2275 H 0.87928 0.21476 0.90517 0.0
H2276 H 0.55391 0.27311 0.65238 0.0
H2277 H 0.55027 0.24235 0.64077 0.0
H2278 H 0.59649 0.25795 0.61169 0.0
H2279 H 0.59915 0.28865 0.62213 0.0
H2280 H 0.57252 0.2356 0.59158 0.0
H2281 H 0.59801 0.23881 0.65434 0.0
H2282 H 0.59899 0.24446 0.68729 0.0
H2283 H 0.54813 0.20625 0.68526 0.0
H2284 H 0.54675 0.20059 0.65225 0.0
H2285 H 0.6085 0.16098 0.58364 0.0
H2286 H 0.60337 0.18911 0.59507 0.0
H2287 H 0.54873 0.16349 0.60352 0.0
H2288 H 0.55344 0.13528 0.59144 0.0
H2289 H 0.5713 0.18865 0.63317 0.0
H2290 H 0.55039 0.18377 0.56896 0.0
H2291 H 0.55342 0.17853 0.53674 0.0
H2292 H 0.60135 0.22098 0.54296 0.0
H2293 H 0.59876 0.22629 0.57527 0.0
C2294 C 0.56305 0.26985 0.64328 0.0
C2295 C 0.57666 0.28303 0.6379 0.0
C2296 C 0.56111 0.25235 0.63684 0.0
C2297 C 0.57328 0.24786 0.62559 0.0
C2298 C 0.58686 0.26114 0.62024 0.0
C2299 C 0.58837 0.27863 0.62617 0.0
C2300 C 0.57205 0.22939 0.6192 0.0
C2301 C 0.57236 0.2254 0.60075 0.0
C2302 C 0.57138 0.21596 0.63106 0.0
C2303 C 0.57216 0.21946 0.65085 0.0
C2304 C 0.58697 0.23174 0.66092 0.0
C2305 C 0.5876 0.23493 0.6796 0.0
C2306 C 0.5736 0.22576 0.68836 0.0
C2307 C 0.55894 0.21337 0.67846 0.0
C2308 C 0.55823 0.21018 0.65977 0.0
C2309 C 0.59535 0.16133 0.58782 0.0
C2310 C 0.58132 0.14599 0.58651 0.0
C2311 C 0.5925 0.17734 0.59442 0.0
C2312 C 0.57565 0.17819 0.59989 0.0
C2313 C 0.56181 0.1629 0.59928 0.0
C2314 C 0.56457 0.14686 0.5925 0.0
C2315 C 0.5725 0.19528 0.60584 0.0
C2316 C 0.5712 0.19891 0.6241 0.0
C2317 C 0.57288 0.20856 0.59395 0.0
C2318 C 0.57442 0.20535 0.57453 0.0
C2319 C 0.56165 0.19189 0.56348 0.0
C2320 C 0.56328 0.18892 0.54519 0.0
C2321 C 0.57757 0.1994 0.53781 0.0
C2322 C 0.59028 0.21288 0.54869 0.0
C2323 C 0.58872 0.21588 0.56698 0.0
H2324 H 0.5788 0.1971 0.52364 0.0
H2325 H 0.57412 0.22822 0.70282 0.0
H2326 H 0.54682 0.72762 0.35208 0.0
H2327 H 0.57557 0.73647 0.33979 0.0
H2328 H 0.60396 0.75449 0.39343 0.0
H2329 H 0.57518 0.74577 0.40592 0.0
H2330 H 0.61211 0.77887 0.36782 0.0
H2331 H 0.61056 0.71857 0.37511 0.0
H2332 H 0.59583 0.68692 0.37268 0.0
H2333 H 0.58775 0.68577 0.31483 0.0
H2334 H 0.60217 0.71751 0.31694 0.0
H2335 H 0.69902 0.78811 0.33405 0.0
H2336 H 0.67358 0.7813 0.3518 0.0
H2337 H 0.63702 0.75835 0.30333 0.0
H2338 H 0.66235 0.76449 0.28565 0.0
H2339 H 0.6354 0.73651 0.3301 0.0
H2340 H 0.63532 0.7972 0.32295 0.0
H2341 H 0.64854 0.82916 0.3254 0.0
H2342 H 0.65925 0.82991 0.3831 0.0
H2343 H 0.64638 0.79786 0.38095 0.0
C2344 C 0.55921 0.73321 0.3613 0.0
C2345 C 0.5588 0.73591 0.37996 0.0
C2346 C 0.57557 0.73831 0.35427 0.0
C2347 C 0.59175 0.74609 0.36578 0.0
C2348 C 0.59152 0.74853 0.38442 0.0
C2349 C 0.57514 0.74336 0.3915 0.0
C2350 C 0.60886 0.75169 0.35811 0.0
C2351 C 0.6175 0.76962 0.35986 0.0
C2352 C 0.61555 0.73957 0.34758 0.0
C2353 C 0.60739 0.7204 0.34619 0.0
C2354 C 0.60558 0.71157 0.36188 0.0
C2355 C 0.59728 0.69363 0.36056 0.0
C2356 C 0.59085 0.68434 0.34361 0.0
C2357 C 0.59275 0.69298 0.32794 0.0
C2358 C 0.60102 0.71094 0.32919 0.0
C2359 C 0.68553 0.78169 0.32719 0.0
C2360 C 0.68265 0.77678 0.30847 0.0
C2361 C 0.67104 0.77795 0.33731 0.0
C2362 C 0.65353 0.76936 0.3288 0.0
C2363 C 0.65051 0.76499 0.31007 0.0
C2364 C 0.66494 0.76866 0.29998 0.0
C2365 C 0.63847 0.7638 0.33941 0.0
C2366 C 0.63023 0.74579 0.33826 0.0
C2367 C 0.63223 0.77589 0.35049 0.0
C2368 C 0.64011 0.79511 0.35177 0.0
C2369 C 0.64069 0.80414 0.33614 0.0
C2370 C 0.64808 0.82228 0.33748 0.0
C2371 C 0.65479 0.83155 0.35439 0.0
C2372 C 0.65409 0.8227 0.37 0.0
C2373 C 0.64676 0.80455 0.36873 0.0
H2374 H 0.66047 0.8456 0.3554 0.0
H2375 H 0.5844 0.67045 0.34262 0.0
H2376 H 0.02725 0.22819 0.45715 0.0
H2377 H 0.02502 0.19979 0.46966 0.0
H2378 H 0.06742 0.1897 0.43977 0.0
H2379 H 0.06846 0.21746 0.42618 0.0
H2380 H 0.0518 0.1599 0.4413 0.0
H2381 H 0.06464 0.20083 0.49655 0.0
H2382 H 0.05772 0.22374 0.51708 0.0
H2383 H 1.004 0.19147 0.51829 0.0
H2384 H 1.01059 0.16847 0.49769 0.0
H2385 H 0.06287 0.08219 0.48632 0.0
H2386 H 0.06455 0.11039 0.47367 0.0
H2387 H 0.02543 0.12191 0.50725 0.0
H2388 H 0.02533 0.09442 0.52114 0.0
H2389 H 0.03883 0.15094 0.50363 0.0
H2390 H 0.02374 0.11051 0.44974 0.0
H2391 H 0.02764 0.08684 0.42815 0.0
H2392 H 0.08139 0.1167 0.42267 0.0
H2393 H 0.07782 0.14045 0.44432 0.0
C2394 C 0.03635 0.22015 0.45327 0.0
C2395 C 0.04828 0.22615 0.44046 0.0
C2396 C 0.03525 0.20345 0.46083 0.0
C2397 C 0.04648 0.19157 0.45675 0.0
C2398 C 0.05836 0.19768 0.44387 0.0
C2399 C 0.0591 0.21412 0.43597 0.0
C2400 C 0.04583 0.17312 0.46519 0.0
C2401 C 0.04921 0.15838 0.4551 0.0
C2402 C 0.0418 0.1694 0.48305 0.0
C2403 C 0.03805 0.18307 0.49554 0.0
C2404 C 0.05137 0.19868 0.50121 0.0
C2405 C 0.04749 0.21166 0.51283 0.0
C2406 C 0.03042 0.20908 0.51895 0.0
C2407 C 0.0172 0.19347 0.51353 0.0
C2408 C 0.021 0.18046 0.50191 0.0
C2409 C 0.05443 0.09056 0.49105 0.0
C2410 C 0.04377 0.0851 0.50499 0.0
C2411 C 0.05515 0.10713 0.48338 0.0
C2412 C 0.04461 0.11934 0.48838 0.0
C2413 C 0.03394 0.11371 0.50239 0.0
C2414 C 0.03372 0.09743 0.51049 0.0
C2415 C 0.04492 0.13768 0.4798 0.0
C2416 C 0.04149 0.15242 0.48985 0.0
C2417 C 0.04849 0.14126 0.46176 0.0
C2418 C 0.05059 0.12712 0.44874 0.0
C2419 C 0.03639 0.11197 0.44395 0.0
C2420 C 0.03854 0.09855 0.43171 0.0
C2421 C 0.05477 0.10025 0.42408 0.0
C2422 C 0.06884 0.11539 0.42861 0.0
C2423 C 0.06676 0.12883 0.44084 0.0
H2424 H 0.05643 0.08984 0.41464 0.0
H2425 H 0.02744 0.21916 0.52792 0.0
H2426 H 0.58234 0.26648 0.20662 0.0
H2427 H 0.61259 0.26598 0.22219 0.0
H2428 H 0.63813 0.29576 0.18192 0.0
H2429 H 0.60797 0.2959 0.16616 0.0
H2430 H 0.65823 0.27506 0.18867 0.0
H2431 H 0.63747 0.31175 0.23063 0.0
H2432 H 0.61715 0.32076 0.25098 0.0
H2433 H 0.6213 0.27732 0.28214 0.0
H2434 H 0.64143 0.26792 0.26179 0.0
H2435 H 0.74831 0.30406 0.24498 0.0
H2436 H 0.71738 0.30393 0.23041 0.0
H2437 H 0.69612 0.25498 0.25176 0.0
H2438 H 0.7272 0.25463 0.26569 0.0
H2439 H 0.67436 0.28513 0.2552 0.0
H2440 H 0.69654 0.24962 0.21233 0.0
H2441 H 0.71872 0.24332 0.19271 0.0
H2442 H 0.71321 0.28778 0.16364 0.0
H2443 H 0.69126 0.29455 0.18338 0.0
C2444 C 0.59432 0.27315 0.20109 0.0
C2445 C 0.59211 0.28141 0.18494 0.0
C2446 C 0.61196 0.27292 0.21019 0.0
C2447 C 0.62845 0.28106 0.20376 0.0
C2448 C 0.62617 0.28928 0.18761 0.0
C2449 C 0.60859 0.28948 0.17852 0.0
C2450 C 0.64779 0.28076 0.21339 0.0
C2451 C 0.66154 0.2775 0.20323 0.0
C2452 C 0.65302 0.28363 0.23254 0.0
C2453 C 0.6407 0.289 0.24456 0.0
C2454 C 0.63387 0.30403 0.24171 0.0
C2455 C 0.62243 0.30922 0.25327 0.0
C2456 C 0.61787 0.29958 0.26781 0.0
C2457 C 0.62478 0.28474 0.27084 0.0
C2458 C 0.6362 0.27947 0.2593 0.0
C2459 C 0.73712 0.29322 0.2467 0.0
C2460 C 0.74073 0.27939 0.25681 0.0
C2461 C 0.71922 0.29315 0.23821 0.0
C2462 C 0.70386 0.27949 0.23978 0.0
C2463 C 0.70735 0.26581 0.25015 0.0
C2464 C 0.72536 0.26561 0.25819 0.0
C2465 C 0.68446 0.27939 0.23044 0.0
C2466 C 0.67084 0.28264 0.24066 0.0
C2467 C 0.67942 0.27677 0.21136 0.0
C2468 C 0.69251 0.27274 0.19949 0.0
C2469 C 0.70024 0.25818 0.2019 0.0
C2470 C 0.71273 0.2545 0.19074 0.0
C2471 C 0.71745 0.26519 0.17699 0.0
C2472 C 0.7096 0.27955 0.17434 0.0
C2473 C 0.69715 0.28331 0.18551 0.0
H2474 H 0.72713 0.26233 0.16835 0.0
H2475 H 0.60903 0.30364 0.27676 0.0
H2476 H 0.55273 0.82062 0.96744 0.0
H2477 H 0.55061 0.8494 0.98167 0.0
H2478 H 0.56003 0.87266 0.93219 0.0
H2479 H 0.56173 0.84415 0.91799 0.0
H2480 H 0.57732 0.89747 0.95723 0.0
H2481 H 0.51656 0.86381 0.95002 0.0
H2482 H 0.49054 0.83926 0.95278 0.0
H2483 H 0.50046 0.84958 0.01056 0.0
H2484 H 0.52676 0.87404 0.00815 0.0
H2485 H 0.55081 0.97977 0.97974 0.0
H2486 H 0.55294 0.95068 0.96685 0.0
H2487 H 0.54589 0.93008 0.01804 0.0
H2488 H 0.54409 0.95927 0.03102 0.0
H2489 H 0.5275 0.90389 0.99263 0.0
H2490 H 0.58881 0.93856 0.99861 0.0
H2491 H 0.61341 0.96386 0.99422 0.0
H2492 H 0.6008 0.95202 0.93668 0.0
H2493 H 0.57593 0.9268 0.94074 0.0
C2494 C 0.5545 0.83178 0.95948 0.0
C2495 C 0.55755 0.82924 0.94117 0.0
C2496 C 0.55311 0.84861 0.96773 0.0
C2497 C 0.555 0.86418 0.95841 0.0
C2498 C 0.55845 0.86161 0.94031 0.0
C2499 C 0.55942 0.84483 0.932 0.0
C2500 C 0.55342 0.8828 0.96704 0.0
C2501 C 0.5662 0.89859 0.96479 0.0
C2502 C 0.53925 0.88546 0.97733 0.0
C2503 C 0.52377 0.87058 0.97892 0.0
C2504 C 0.51333 0.86071 0.96333 0.0
C2505 C 0.4985 0.84684 0.96482 0.0
C2506 C 0.49389 0.84282 0.98184 0.0
C2507 C 0.50409 0.85267 0.99739 0.0
C2508 C 0.51896 0.86654 0.99597 0.0
C2509 C 0.54975 0.96919 0.98846 0.0
C2510 C 0.54733 0.97271 0.0068 0.0
C2511 C 0.55107 0.95215 0.98094 0.0
C2512 C 0.5498 0.93723 0.9911 0.0
C2513 C 0.54702 0.94068 0.00935 0.0
C2514 C 0.54604 0.9578 0.01696 0.0
C2515 C 0.55148 0.91849 0.98293 0.0
C2516 C 0.53869 0.90271 0.98519 0.0
C2517 C 0.56552 0.91584 0.97247 0.0
C2518 C 0.58043 0.93091 0.96997 0.0
C2519 C 0.59121 0.94144 0.98502 0.0
C2520 C 0.6052 0.95575 0.98259 0.0
C2521 C 0.60864 0.95957 0.96518 0.0
C2522 C 0.59811 0.94906 0.95016 0.0
C2523 C 0.58407 0.93475 0.95251 0.0
H2524 H 0.6195 0.97065 0.96332 0.0
H2525 H 0.48237 0.83211 0.98297 0.0
H2526 H 0.97553 0.79971 0.68724 0.0
H2527 H 0.94823 0.80069 0.70178 0.0
H2528 H 0.94703 0.74908 0.71882 0.0
H2529 H 0.97447 0.74817 0.70445 0.0
H2530 H 0.91227 0.75034 0.70862 0.0
H2531 H 0.96056 0.79016 0.74866 0.0
H2532 H 0.98643 0.81596 0.75687 0.0
H2533 H 0.95234 0.85001 0.73816 0.0
H2534 H 0.92633 0.82438 0.72961 0.0
H2535 H 0.83998 0.74902 0.76333 0.0
H2536 H 0.8682 0.74827 0.7509 0.0
H2537 H 0.87897 0.8044 0.74811 0.0
H2538 H 0.85158 0.80523 0.76241 0.0
H2539 H 0.90937 0.80087 0.75062 0.0
H2540 H 0.86205 0.76311 0.70826 0.0
H2541 H 0.83533 0.73839 0.69854 0.0
H2542 H 0.86607 0.702 0.7184 0.0
H2543 H 0.8929 0.72654 0.7284 0.0
C2544 C 0.96962 0.7885 0.69411 0.0
C2545 C 0.97783 0.77387 0.69442 0.0
C2546 C 0.95376 0.78911 0.70266 0.0
C2547 C 0.94495 0.77504 0.71194 0.0
C2548 C 0.95301 0.76031 0.71202 0.0
C2549 C 0.96903 0.75981 0.70371 0.0
C2550 C 0.92757 0.77555 0.72129 0.0
C2551 C 0.91188 0.7614 0.71795 0.0
C2552 C 0.92597 0.78997 0.73325 0.0
C2553 C 0.94157 0.80535 0.73834 0.0
C2554 C 0.95863 0.80314 0.74617 0.0
C2555 C 0.97331 0.81773 0.7509 0.0
C2556 C 0.97105 0.83461 0.74799 0.0
C2557 C 0.95409 0.83693 0.74037 0.0
C2558 C 0.93937 0.82238 0.73559 0.0
C2559 C 0.84836 0.7613 0.76024 0.0
C2560 C 0.84298 0.77718 0.7642 0.0
C2561 C 0.86471 0.76086 0.75257 0.0
C2562 C 0.8763 0.77616 0.74734 0.0
C2563 C 0.87093 0.7921 0.75155 0.0
C2564 C 0.85492 0.79262 0.75987 0.0
C2565 C 0.89376 0.77567 0.73789 0.0
C2566 C 0.90955 0.78981 0.74122 0.0
C2567 C 0.89529 0.76143 0.72553 0.0
C2568 C 0.87939 0.74665 0.71918 0.0
C2569 C 0.86308 0.74983 0.71055 0.0
C2570 C 0.84792 0.73586 0.70502 0.0
C2571 C 0.84899 0.71864 0.70789 0.0
C2572 C 0.86525 0.71534 0.71621 0.0
C2573 C 0.88044 0.72927 0.72179 0.0
H2574 H 0.83722 0.70784 0.70366 0.0
H2575 H 0.98242 0.8459 0.75168 0.0
H2576 H 0.15271 0.02029 0.88905 0.0
H2577 H 0.13644 0.01648 0.91549 0.0
H2578 H 0.127 0.0687 0.91331 0.0
H2579 H 0.14307 0.0726 0.88693 0.0
H2580 H 0.13774 0.06098 0.94815 0.0
H2581 H 0.09424 0.03728 0.89621 0.0
H2582 H 0.08183 0.01881 0.86761 0.0
H2583 H 0.08206 0.97222 0.89481 0.0
H2584 H 0.0948 0.99046 0.92354 0.0
H2585 H 0.06241 0.05662 0.99651 0.0
H2586 H 0.08378 0.0602 0.97427 0.0
H2587 H 0.0865 1.00578 0.9761 0.0
H2588 H 0.06468 1.00218 0.99819 0.0
H2589 H 0.08064 0.01403 0.94237 0.0
H2590 H 0.12438 0.0401 0.99544 0.0
H2591 H 0.13611 0.0605 0.02298 0.0
H2592 H 0.1327 0.10453 0.99262 0.0
H2593 H 0.12124 0.08446 0.96482 0.0
C2594 C 0.14732 0.03099 0.89434 0.0
C2595 C 0.14898 0.04666 0.88594 0.0
C2596 C 0.13805 0.02879 0.90936 0.0
C2597 C 0.13055 0.0423 0.91613 0.0
C2598 C 0.13278 0.05819 0.90818 0.0
C2599 C 0.14183 0.06032 0.89309 0.0
C2600 C 0.1195 0.0396 0.93095 0.0
C2601 C 0.12523 0.05075 0.94694 0.0
C2602 C 0.10326 0.02624 0.92919 0.0
C2603 C 0.09573 0.01523 0.91195 0.0
C2604 C 0.09186 0.0231 0.89604 0.0
C2605 C 0.08472 0.01268 0.87982 0.0
C2606 C 0.08123 0.99435 0.87938 0.0
C2607 C 0.08483 0.98642 0.89517 0.0
C2608 C 0.09202 0.99679 0.91142 0.0
C2609 C 0.06773 0.04553 0.99224 0.0
C2610 C 0.06213 0.02916 0.99886 0.0
C2611 C 0.07999 0.04759 0.97968 0.0
C2612 C 0.08694 0.03332 0.97387 0.0
C2613 C 0.08135 0.01694 0.98059 0.0
C2614 C 0.06894 0.01487 0.99307 0.0
C2615 C 0.09903 0.0352 0.9598 0.0
C2616 C 0.09336 0.02401 0.9438 0.0
C2617 C 0.11515 0.04873 0.96144 0.0
C2618 C 0.12187 0.06079 0.97812 0.0
C2619 C 0.12603 0.05413 0.99468 0.0
C2620 C 0.13264 0.06562 0.01031 0.0
C2621 C 0.13494 0.08376 0.00958 0.0
C2622 C 0.13083 0.09047 0.99317 0.0
C2623 C 0.1244 0.07906 0.97745 0.0
H2624 H 0.14001 0.09261 0.02172 0.0
H2625 H 0.07567 0.9863 0.86681 0.0
H2626 H 0.80697 0.37808 0.60172 0.0
H2627 H 0.80956 0.36756 0.63156 0.0
H2628 H 0.79938 0.31421 0.60733 0.0
H2629 H 0.79704 0.32475 0.57701 0.0
H2630 H 0.77742 0.32048 0.63586 0.0
H2631 H 0.84067 0.33274 0.62523 0.0
H2632 H 0.86904 0.35141 0.61756 0.0
H2633 H 0.87027 0.3888 0.66255 0.0
H2634 H 0.84172 0.3705 0.67031 0.0
H2635 H 0.79533 0.27769 0.71175 0.0
H2636 H 0.79703 0.28952 0.68268 0.0
H2637 H 0.81659 0.34206 0.70926 0.0
H2638 H 0.81517 0.33018 0.73884 0.0
H2639 H 0.83407 0.33757 0.68004 0.0
H2640 H 0.77316 0.32899 0.69137 0.0
H2641 H 0.74407 0.31354 0.70065 0.0
H2642 H 0.73671 0.274 0.65613 0.0
H2643 H 0.76598 0.28903 0.64681 0.0
C2644 C 0.80524 0.36407 0.60261 0.0
C2645 C 0.80164 0.35222 0.58689 0.0
C2646 C 0.80687 0.35811 0.61976 0.0
C2647 C 0.80478 0.34014 0.62169 0.0
C2648 C 0.8011 0.32818 0.6061 0.0
C2649 C 0.79978 0.33419 0.58881 0.0
C2650 C 0.80582 0.33398 0.64008 0.0
C2651 C 0.78989 0.32391 0.6454 0.0
C2652 C 0.82181 0.33935 0.65288 0.0
C2653 C 0.83896 0.35034 0.64823 0.0
C2654 C 0.84689 0.34503 0.63338 0.0
C2655 C 0.86303 0.35553 0.62904 0.0
C2656 C 0.87143 0.37131 0.63953 0.0
C2657 C 0.86374 0.3766 0.65442 0.0
C2658 C 0.84758 0.36616 0.65879 0.0
C2659 C 0.80011 0.29178 0.71156 0.0
C2660 C 0.80493 0.303 0.72771 0.0
C2661 C 0.80104 0.29853 0.69483 0.0
C2662 C 0.8066 0.3167 0.69372 0.0
C2663 C 0.81217 0.32798 0.70979 0.0
C2664 C 0.81132 0.32118 0.72668 0.0
C2665 C 0.80577 0.32366 0.67566 0.0
C2666 C 0.82162 0.33402 0.67047 0.0
C2667 C 0.78955 0.31907 0.66311 0.0
C2668 C 0.77184 0.31004 0.66849 0.0
C2669 C 0.76541 0.31692 0.68364 0.0
C2670 C 0.74889 0.30825 0.68891 0.0
C2671 C 0.73856 0.29278 0.67901 0.0
C2672 C 0.74473 0.28598 0.6638 0.0
C2673 C 0.76129 0.29456 0.65852 0.0
H2674 H 0.72576 0.28609 0.6831 0.0
H2675 H 0.88393 0.37941 0.63616 0.0
H2676 H 0.53617 0.07387 0.34992 0.0
H2677 H 0.53813 0.06163 0.37896 0.0
H2678 H 0.48782 0.07534 0.38904 0.0
H2679 H 0.48571 0.08772 0.35998 0.0
H2680 H 0.51334 0.08194 0.41857 0.0
H2681 H 0.48542 0.03399 0.37552 0.0
H2682 H 0.47995 0.01351 0.34795 0.0
H2683 H 0.53086 0.99934 0.36324 0.0
H2684 H 0.53679 0.01993 0.39076 0.0
H2685 H 0.5183 0.03464 0.49403 0.0
H2686 H 0.50411 0.03862 0.46399 0.0
H2687 H 0.55407 0.03601 0.44249 0.0
H2688 H 0.56821 0.03177 0.47267 0.0
H2689 H 0.5207 0.02045 0.41864 0.0
H2690 H 0.55041 0.07454 0.45805 0.0
H2691 H 0.55432 0.09361 0.48649 0.0
H2692 H 0.49748 0.09466 0.47785 0.0
H2693 H 0.49324 0.07542 0.44945 0.0
C2694 C 0.52578 0.07474 0.3585 0.0
C2695 C 0.5107 0.08159 0.35263 0.0
C2696 C 0.52677 0.06749 0.37492 0.0
C2697 C 0.51274 0.06707 0.38564 0.0
C2698 C 0.49855 0.07531 0.38064 0.0
C2699 C 0.49751 0.08256 0.36418 0.0
C2700 C 0.51324 0.05821 0.40222 0.0
C2701 C 0.51451 0.06837 0.41858 0.0
C2702 C 0.51471 0.0405 0.40208 0.0
C2703 C 0.51161 0.02865 0.38514 0.0
C2704 C 0.49557 0.0267 0.37288 0.0
C2705 C 0.49236 0.01502 0.35728 0.0
C2706 C 0.50507 1.00517 0.35381 0.0
C2707 C 0.52104 0.00699 0.36592 0.0
C2708 C 0.52432 0.01866 0.38153 0.0
C2709 C 0.52597 0.03443 0.4827 0.0
C2710 C 0.54422 0.03309 0.48526 0.0
C2711 C 0.5179 0.03661 0.46569 0.0
C2712 C 0.52819 0.03773 0.45129 0.0
C2713 C 0.54602 0.03506 0.45359 0.0
C2714 C 0.55409 0.03278 0.47067 0.0
C2715 C 0.52158 0.04445 0.43472 0.0
C2716 C 0.51909 0.03387 0.41847 0.0
C2717 C 0.51884 0.06172 0.4349 0.0
C2718 C 0.52148 0.07346 0.45178 0.0
C2719 C 0.53875 0.07878 0.46229 0.0
C2720 C 0.54102 0.08962 0.47838 0.0
C2721 C 0.52615 0.09532 0.48399 0.0
C2722 C 0.50898 0.09023 0.4735 0.0
C2723 C 0.50664 0.07937 0.4574 0.0
H2724 H 0.52793 0.1037 0.49646 0.0
H2725 H 0.50253 0.99608 0.34176 0.0
H2726 H 0.7893 0.67422 0.08473 0.0
H2727 H 0.78563 0.6877 0.11408 0.0
H2728 H 0.84113 0.71844 0.11959 0.0
H2729 H 0.84499 0.70412 0.09042 0.0
H2730 H 0.83649 0.71193 0.15144 0.0
H2731 H 0.79671 0.7345 0.10931 0.0
H2732 H 0.77183 0.7326 0.0843 0.0
H2733 H 0.73363 0.70168 0.11449 0.0
H2734 H 0.75834 0.70326 0.1396 0.0
H2735 H 0.82696 0.76776 0.22798 0.0
H2736 H 0.83071 0.75538 0.19828 0.0
H2737 H 0.77502 0.72496 0.19154 0.0
H2738 H 0.77093 0.73834 0.22096 0.0
H2739 H 0.78003 0.73162 0.16023 0.0
H2740 H 0.82006 0.70914 0.20252 0.0
H2741 H 0.84488 0.712 0.2278 0.0
H2742 H 0.88272 0.7431 0.19741 0.0
H2743 H 0.85803 0.74066 0.17207 0.0
C2744 C 0.80076 0.68396 0.09207 0.0
C2745 C 0.81739 0.68808 0.08469 0.0
C2746 C 0.7986 0.69193 0.10908 0.0
C2747 C 0.81285 0.70482 0.11959 0.0
C2748 C 0.82963 0.70878 0.11225 0.0
C2749 C 0.83186 0.70059 0.09528 0.0
C2750 C 0.81035 0.71383 0.13802 0.0
C2751 C 0.82416 0.71638 0.15309 0.0
C2752 C 0.79427 0.71964 0.14117 0.0
C2753 C 0.77937 0.7189 0.12625 0.0
C2754 C 0.78301 0.72726 0.11057 0.0
C2755 C 0.76894 0.72623 0.09639 0.0
C2756 C 0.75117 0.717 0.0978 0.0
C2757 C 0.74741 0.70882 0.11342 0.0
C2758 C 0.76143 0.7098 0.12764 0.0
C2759 C 0.81539 0.75846 0.22026 0.0
C2760 C 0.79861 0.75421 0.2274 0.0
C2761 C 0.81764 0.75105 0.20304 0.0
C2762 C 0.80343 0.73843 0.19214 0.0
C2763 C 0.78651 0.73441 0.19917 0.0
C2764 C 0.78413 0.74214 0.21628 0.0
C2765 C 0.80611 0.72964 0.17368 0.0
C2766 C 0.79234 0.72713 0.1586 0.0
C2767 C 0.82224 0.72387 0.17054 0.0
C2768 C 0.8372 0.7248 0.18546 0.0
C2769 C 0.83368 0.71659 0.20125 0.0
C2770 C 0.84771 0.71817 0.2156 0.0
C2771 C 0.86536 0.72776 0.21423 0.0
C2772 C 0.86903 0.7357 0.19846 0.0
C2773 C 0.85504 0.73421 0.1841 0.0
H2774 H 0.87619 0.72902 0.22538 0.0
H2775 H 0.7403 0.7162 0.08679 0.0
H2776 H 0.16883 0.01982 0.77725 0.0
H2777 H 0.15355 0.01648 0.7463 0.0
H2778 H 0.11531 0.04572 0.76309 0.0
H2779 H 0.13033 0.04888 0.79425 0.0
H2780 H 0.09861 0.0176 0.74008 0.0
H2781 H 0.15243 0.06523 0.74387 0.0
H2782 H 0.18539 0.0793 0.74939 0.0
H2783 H 0.19562 0.04224 0.70929 0.0
H2784 H 0.16274 0.02779 0.70373 0.0
H2785 H 0.07072 0.05972 0.66609 0.0
H2786 H 0.08466 0.05177 0.69439 0.0
H2787 H 0.11018 0.0169 0.66495 0.0
H2788 H 0.09567 0.02423 0.6364 0.0
H2789 H 0.13398 0.04217 0.69208 0.0
H2790 H 0.07872 0.99757 0.6856 0.0
H2791 H 0.04538 0.98555 0.67943 0.0
H2792 H 0.0377 0.01895 0.7243 0.0
H2793 H 0.07098 0.03136 0.73056 0.0
C2794 C 0.15705 0.02541 0.7744 0.0
C2795 C 0.15078 0.03471 0.7881 0.0
C2796 C 0.14842 0.02353 0.75672 0.0
C2797 C 0.13355 0.03107 0.75249 0.0
C2798 C 0.12684 0.03983 0.76621 0.0
C2799 C 0.13539 0.04162 0.78395 0.0
C2800 C 0.12514 0.03023 0.73368 0.0
C2801 C 0.10632 0.02301 0.72959 0.0
C2802 C 0.1354 0.0368 0.71995 0.0
C2803 C 0.15518 0.04528 0.72358 0.0
C2804 C 0.16174 0.05996 0.73639 0.0
C2805 C 0.1804 0.06803 0.73949 0.0
C2806 C 0.1926 0.06163 0.72975 0.0
C2807 C 0.18616 0.04715 0.71687 0.0
C2808 C 0.16753 0.03901 0.71374 0.0
C2809 C 0.07898 0.05008 0.6656 0.0
C2810 C 0.08211 0.04258 0.64906 0.0
C2811 C 0.08696 0.04562 0.68174 0.0
C2812 C 0.09824 0.03369 0.68157 0.0
C2813 C 0.10143 0.02611 0.66517 0.0
C2814 C 0.09326 0.03041 0.64897 0.0
C2815 C 0.10743 0.03004 0.69871 0.0
C2816 C 0.12639 0.03638 0.70249 0.0
C2817 C 0.09731 0.02285 0.7122 0.0
C2818 C 0.07731 0.01542 0.7085 0.0
C2819 C 0.0699 1.00243 0.69406 0.0
C2820 C 0.05102 0.99554 0.69057 0.0
C2821 C 0.03943 1.00149 0.70146 0.0
C2822 C 0.0467 0.01434 0.71588 0.0
C2823 C 0.06556 0.02129 0.71942 0.0
H2824 H 0.02481 0.99612 0.69874 0.0
H2825 H 0.20703 0.06793 0.73213 0.0
H2826 H 0.82651 0.33563 0.48307 0.0
H2827 H 0.8238 0.32562 0.45097 0.0
H2828 H 0.76916 0.3339 0.4427 0.0
H2829 H 0.77192 0.34437 0.47481 0.0
H2830 H 0.77353 0.30032 0.42621 0.0
H2831 H 0.80055 0.36269 0.42927 0.0
H2832 H 0.82353 0.39011 0.44031 0.0
H2833 H 0.86592 0.36729 0.42281 0.0
H2834 H 0.84322 0.33963 0.41194 0.0
H2835 H 0.76253 0.28658 0.32981 0.0
H2836 H 0.76264 0.29691 0.36148 0.0
H2837 H 0.82174 0.30985 0.36912 0.0
H2838 H 0.82146 0.30104 0.33723 0.0
H2839 H 0.81392 0.33349 0.3864 0.0
H2840 H 0.79037 0.27125 0.3857 0.0
H2841 H 0.76957 0.24234 0.37557 0.0
H2842 H 0.724 0.26204 0.38984 0.0
H2843 H 0.74452 0.29114 0.39985 0.0
C2844 C 0.81384 0.33522 0.47449 0.0
C2845 C 0.79939 0.34074 0.48162 0.0
C2846 C 0.81235 0.32956 0.45608 0.0
C2847 C 0.79629 0.32903 0.44434 0.0
C2848 C 0.78168 0.33417 0.45146 0.0
C2849 C 0.78329 0.34016 0.46984 0.0
C2850 C 0.79486 0.32323 0.42467 0.0
C2851 C 0.7822 0.30766 0.41742 0.0
C2852 C 0.80656 0.33246 0.41328 0.0
C2853 C 0.82021 0.34903 0.41997 0.0
C2854 C 0.8148 0.36346 0.42795 0.0
C2855 C 0.82777 0.37905 0.43414 0.0
C2856 C 0.84618 0.38043 0.43231 0.0
C2857 C 0.85166 0.3662 0.42426 0.0
C2858 C 0.83875 0.35057 0.41808 0.0
C2859 C 0.77549 0.29159 0.33834 0.0
C2860 C 0.79197 0.293 0.33106 0.0
C2861 C 0.77561 0.29739 0.35656 0.0
C2862 C 0.79223 0.30398 0.36813 0.0
C2863 C 0.80867 0.30502 0.36074 0.0
C2864 C 0.80852 0.29985 0.34245 0.0
C2865 C 0.79274 0.31021 0.38773 0.0
C2866 C 0.80522 0.32597 0.39505 0.0
C2867 C 0.78126 0.30084 0.39932 0.0
C2868 C 0.76893 0.28338 0.39336 0.0
C2869 C 0.7759 0.26943 0.38658 0.0
C2870 C 0.76416 0.25301 0.38087 0.0
C2871 C 0.74547 0.25036 0.38203 0.0
C2872 C 0.73848 0.26412 0.38893 0.0
C2873 C 0.75015 0.28056 0.39464 0.0
H2874 H 0.73641 0.23764 0.37761 0.0
H2875 H 0.8562 0.39253 0.43708 0.0
H2876 H 0.46023 0.07185 0.24059 0.0
H2877 H 0.46381 0.05196 0.21546 0.0
H2878 H 0.52151 0.06121 0.23464 0.0
H2879 H 0.51824 0.08149 0.25924 0.0
H2880 H 0.51675 0.06002 0.20069 0.0
H2881 H 0.48864 0.02442 0.24422 0.0
H2882 H 0.4654 0.01224 0.26339 0.0
H2883 H 0.42535 0.99549 0.21635 0.0
H2884 H 0.44825 0.00781 0.19692 0.0
H2885 H 0.54353 0.9955 0.1579 0.0
H2886 H 0.53023 1.00261 0.18462 0.0
H2887 H 0.48073 1.00535 0.15121 0.0
H2888 H 0.49363 0.99747 0.12431 0.0
H2889 H 0.47916 0.99861 0.1919 0.0
H2890 H 0.50896 0.04007 0.15021 0.0
H2891 H 0.53419 0.05063 0.13259 0.0
H2892 H 0.57331 0.05444 0.17999 0.0
H2893 H 0.54826 0.04388 0.19782 0.0
C2894 C 0.4738 0.07013 0.23905 0.0
C2895 C 0.48894 0.07811 0.25197 0.0
C2896 C 0.47571 0.05849 0.22493 0.0
C2897 C 0.49276 0.05468 0.22367 0.0
C2898 C 0.50816 0.06383 0.23558 0.0
C2899 C 0.50632 0.07561 0.24951 0.0
C2900 C 0.49488 0.04141 0.2098 0.0
C2901 C 0.50857 0.04658 0.19898 0.0
C2902 C 0.48405 0.02391 0.20738 0.0
C2903 C 0.47009 0.01726 0.21914 0.0
C2904 C 0.4748 0.01838 0.23799 0.0
C2905 C 0.46171 0.01139 0.2489 0.0
C2906 C 0.4439 1.00313 0.24109 0.0
C2907 C 0.43913 1.00192 0.22238 0.0
C2908 C 0.45215 0.00891 0.21142 0.0
C2909 C 0.52939 0.99646 0.15626 0.0
C2910 C 0.51979 0.99653 0.13905 0.0
C2911 C 0.5218 1.00048 0.17157 0.0
C2912 C 0.50475 1.00483 0.16968 0.0
C2913 C 0.49394 1.00203 0.1528 0.0
C2914 C 0.50144 0.9978 0.13746 0.0
C2915 C 0.5012 0.01733 0.18341 0.0
C2916 C 0.48719 0.01209 0.19388 0.0
C2917 C 0.51192 0.03475 0.18593 0.0
C2918 C 0.52685 0.04102 0.17521 0.0
C2919 C 0.52297 0.04305 0.15679 0.0
C2920 C 0.53721 0.04906 0.1468 0.0
C2921 C 0.55534 0.0531 0.15514 0.0
C2922 C 0.55927 0.05125 0.17353 0.0
C2923 C 0.54507 0.04529 0.18358 0.0
H2924 H 0.56635 0.05773 0.14737 0.0
H2925 H 0.43381 0.99757 0.2495 0.0
H2926 H 0.82322 0.67957 0.96406 0.0
H2927 H 0.82231 0.69178 0.9348 0.0
H2928 H 0.79017 0.72666 0.95331 0.0
H2929 H 0.79013 0.71354 0.98219 0.0
H2930 H 0.77819 0.72135 0.92167 0.0
H2931 H 0.84186 0.7374 0.9439 0.0
H2932 H 0.87222 0.73334 0.95605 0.0
H2933 H 0.87182 0.69841 0.90923 0.0
H2934 H 0.84135 0.7021 0.89693 0.0
H2935 H 0.79932 0.7798 0.84976 0.0
H2936 H 0.80114 0.76724 0.87905 0.0
H2937 H 0.8031 0.7176 0.8522 0.0
H2938 H 0.80043 0.72989 0.82275 0.0
H2939 H 0.83122 0.73121 0.88749 0.0
H2940 H 0.76618 0.71376 0.86772 0.0
H2941 H 0.73587 0.71795 0.85643 0.0
H2942 H 0.74088 0.75865 0.89942 0.0
H2943 H 0.77128 0.75427 0.91122 0.0
C2944 C 0.81598 0.68991 0.96205 0.0
C2945 C 0.80685 0.69539 0.97607 0.0
C2946 C 0.81562 0.69721 0.94503 0.0
C2947 C 0.80655 0.71087 0.94112 0.0
C2948 C 0.79739 0.71631 0.95522 0.0
C2949 C 0.79745 0.70875 0.9721 0.0
C2950 C 0.80612 0.71905 0.92255 0.0
C2951 C 0.7901 0.72367 0.91463 0.0
C2952 C 0.82113 0.72224 0.91221 0.0
C2953 C 0.8393 0.71988 0.91961 0.0
C2954 C 0.84821 0.72876 0.93628 0.0
C2955 C 0.86544 0.72653 0.94317 0.0
C2956 C 0.87392 0.71558 0.93344 0.0
C2957 C 0.86522 0.70686 0.91677 0.0
C2958 C 0.84798 0.70901 0.90983 0.0
C2959 C 0.80023 0.76621 0.84993 0.0
C2960 C 0.79984 0.75612 0.83337 0.0
C2961 C 0.80123 0.75892 0.86694 0.0
C2962 C 0.80242 0.74125 0.86845 0.0
C2963 C 0.80233 0.73122 0.85195 0.0
C2964 C 0.80078 0.73836 0.83487 0.0
C2965 C 0.80342 0.73335 0.88698 0.0
C2966 C 0.81949 0.7289 0.8948 0.0
C2967 C 0.78867 0.73062 0.89744 0.0
C2968 C 0.77095 0.73386 0.89016 0.0
C2969 C 0.76086 0.72373 0.87462 0.0
C2970 C 0.74364 0.72611 0.86818 0.0
C2971 C 0.73644 0.73874 0.87706 0.0
C2972 C 0.74648 0.74893 0.89251 0.0
C2973 C 0.76367 0.74644 0.89914 0.0
H2974 H 0.72304 0.74055 0.87208 0.0
H2975 H 0.88727 0.71389 0.93879 0.0
H2976 H 0.84944 0.17492 0.02346 0.0
H2977 H 0.87375 0.15949 0.01956 0.0
H2978 H 0.83292 0.11144 1.00157 0.0
H2979 H 0.80886 0.12661 0.00699 0.0
H2980 H 0.8557 0.10354 0.0233 0.0
H2981 H 0.86274 0.13814 0.97331 0.0
H2982 H 0.86722 0.16496 0.95724 0.0
H2983 H 0.91925 0.18547 0.9898 0.0
H2984 H 0.91492 0.15892 0.0063 0.0
H2985 H 0.91753 0.05442 0.99839 0.0
H2986 H 0.89468 0.07199 0.99448 0.0
H2987 H 0.93261 0.11641 0.02531 0.0
H2988 H 0.9558 0.09908 0.02881 0.0
H2989 H 0.91177 0.12579 0.99555 0.0
H2990 H 0.90227 0.09037 0.04605 0.0
H2991 H 0.89756 0.06216 0.05973 0.0
H2992 H 0.84875 0.04172 0.02219 0.0
H2993 H 0.85334 0.06975 0.00813 0.0
C2994 C 0.84579 0.16113 0.01843 0.0
C2995 C 0.82743 0.15188 0.01542 0.0
C2996 C 0.85964 0.15232 0.01607 0.0
C2997 C 0.85526 0.13427 0.01001 0.0
C2998 C 0.83675 0.1253 0.00632 0.0
C2999 C 0.82299 0.13396 0.00929 0.0
C3000 C 0.86979 0.12433 0.00894 0.0
C3001 C 0.86773 0.10835 0.01686 0.0
C3002 C 0.88583 0.13062 1.00097 0.0
C3003 C 0.88841 0.14663 0.99116 0.0
C3004 C 0.87506 0.14845 0.97715 0.0
C3005 C 0.87758 0.16359 0.96796 0.0
C3006 C 0.89348 0.17693 0.97253 0.0
C3007 C 0.90691 0.17515 0.9863 0.0
C3008 C 0.90443 0.16006 0.99558 0.0
C3009 C 0.92116 0.06804 0.00402 0.0
C3010 C 0.93841 0.07534 0.01404 0.0
C3011 C 0.90806 0.07802 1.00185 0.0
C3012 C 0.91193 0.0954 0.00979 0.0
C3013 C 0.92938 0.10299 0.01912 0.0
C3014 C 0.94252 0.09302 0.02128 0.0
C3015 C 0.89733 0.10517 0.00964 0.0
C3016 C 0.89952 0.12108 1.0017 0.0
C3017 C 0.88121 0.0987 0.01724 0.0
C3018 C 0.87822 0.08206 0.02599 0.0
C3019 C 0.89058 0.07982 0.04069 0.0
C3020 C 0.88793 0.06387 0.0485 0.0
C3021 C 0.87288 0.05014 0.04181 0.0
C3022 C 0.86041 0.05236 0.02735 0.0
C3023 C 0.86301 0.06827 0.01946 0.0
H3024 H 0.87087 0.0378 0.04787 0.0
H3025 H 0.89541 0.18864 0.96538 0.0
H3026 H 0.33319 0.43035 0.00913 0.0
H3027 H 0.36463 0.44599 0.00784 0.0
H3028 H 0.37076 0.46316 0.06457 0.0
H3029 H 0.33849 0.44868 0.06531 0.0
H3030 H 0.39262 0.48647 0.05458 0.0
H3031 H 0.39007 0.42602 0.03906 0.0
H3032 H 0.37921 0.39654 0.02247 0.0
H3033 H 0.39231 0.41819 0.9731 0.0
H3034 H 0.40304 0.44784 0.98937 0.0
H3035 H 0.49095 0.51106 0.06264 0.0
H3036 H 0.45908 0.49663 0.06347 0.0
H3037 H 0.45075 0.4865 0.00552 0.0
H3038 H 0.48327 0.50027 0.00478 0.0
H3039 H 0.43044 0.45973 0.01648 0.0
H3040 H 0.43429 0.52129 0.03571 0.0
H3041 H 0.44711 0.54885 0.05545 0.0
H3042 H 0.43355 0.52198 0.10198 0.0
H3043 H 0.42083 0.49424 0.08254 0.0
C3044 C 0.34105 0.43772 0.02134 0.0
C3045 C 0.33266 0.43822 0.03725 0.0
C3046 C 0.35957 0.4465 0.02072 0.0
C3047 C 0.37131 0.45561 0.03625 0.0
C3048 C 0.36276 0.45642 0.05215 0.0
C3049 C 0.34395 0.44807 0.05261 0.0
C3050 C 0.39205 0.46421 0.03586 0.0
C3051 C 0.4007 0.48028 0.04632 0.0
C3052 C 0.40361 0.45689 0.02521 0.0
C3053 C 0.39719 0.43914 0.01539 0.0
C3054 C 0.39055 0.42449 0.02465 0.0
C3055 C 0.38441 0.40776 0.01531 0.0
C3056 C 0.38503 0.4055 0.99674 0.0
C3057 C 0.39182 0.41996 0.98748 0.0
C3058 C 0.39793 0.43673 0.99675 0.0
C3059 C 0.48247 0.50593 0.04992 0.0
C3060 C 0.49027 0.50733 0.0336 0.0
C3061 C 0.46378 0.49765 0.0504 0.0
C3062 C 0.45145 0.4906 0.03454 0.0
C3063 C 0.45931 0.49174 0.01817 0.0
C3064 C 0.47818 0.49983 0.01771 0.0
C3065 C 0.43082 0.48196 0.03504 0.0
C3066 C 0.42223 0.46588 0.02463 0.0
C3067 C 0.41948 0.48899 0.04615 0.0
C3068 C 0.42668 0.50573 0.0577 0.0
C3069 C 0.43405 0.52129 0.05015 0.0
C3070 C 0.44132 0.53692 0.06129 0.0
C3071 C 0.44115 0.53716 0.07995 0.0
C3072 C 0.43366 0.52178 0.08752 0.0
C3073 C 0.4264 0.50612 0.07646 0.0
H3074 H 0.44681 0.54927 0.08855 0.0
H3075 H 0.38029 0.39253 0.98953 0.0
H3076 H 0.34465 0.55053 0.71991 0.0
H3077 H 0.33781 0.57848 0.72907 0.0
H3078 H 0.39223 0.59661 0.75827 0.0
H3079 H 0.39903 0.56829 0.74958 0.0
H3080 H 0.36855 0.60626 0.77719 0.0
H3081 H 0.38159 0.61197 0.71792 0.0
H3082 H 0.38094 0.60343 0.68554 0.0
H3083 H 0.32338 0.60128 0.67628 0.0
H3084 H 0.32362 0.60952 0.70869 0.0
H3085 H 0.34506 0.69137 0.78338 0.0
H3086 H 0.36141 0.6686 0.7761 0.0
H3087 H 0.31043 0.63377 0.75199 0.0
H3088 H 0.29409 0.65642 0.75895 0.0
H3089 H 0.3393 0.63704 0.73042 0.0
H3090 H 0.32851 0.62873 0.79308 0.0
H3091 H 0.33226 0.63882 0.8255 0.0
H3092 H 0.39066 0.64908 0.82767 0.0
H3093 H 0.38724 0.63929 0.79518 0.0
C3094 C 0.35516 0.56043 0.72831 0.0
C3095 C 0.3724 0.55729 0.73393 0.0
C3096 C 0.35128 0.57643 0.73346 0.0
C3097 C 0.36467 0.58974 0.74399 0.0
C3098 C 0.38178 0.58653 0.75001 0.0
C3099 C 0.38562 0.57038 0.74503 0.0
C3100 C 0.36052 0.60688 0.74869 0.0
C3101 C 0.36252 0.61321 0.76694 0.0
C3102 C 0.35289 0.61607 0.7353 0.0
C3103 C 0.35261 0.61128 0.71575 0.0
C3104 C 0.36877 0.60957 0.709 0.0
C3105 C 0.36848 0.60479 0.69064 0.0
C3106 C 0.35213 0.60179 0.67886 0.0
C3107 C 0.33604 0.60361 0.68542 0.0
C3108 C 0.33625 0.60836 0.70378 0.0
C3109 C 0.33739 0.67885 0.77651 0.0
C3110 C 0.31832 0.67559 0.77178 0.0
C3111 C 0.34671 0.6659 0.77245 0.0
C3112 C 0.33705 0.64961 0.76357 0.0
C3113 C 0.31806 0.64633 0.75885 0.0
C3114 C 0.30874 0.65919 0.76298 0.0
C3115 C 0.34654 0.63582 0.7589 0.0
C3116 C 0.34566 0.63024 0.7406 0.0
C3117 C 0.35567 0.62768 0.77221 0.0
C3118 C 0.35763 0.6335 0.79169 0.0
C3119 C 0.34215 0.6333 0.80044 0.0
C3120 C 0.34421 0.63893 0.81883 0.0
C3121 C 0.36169 0.64464 0.82863 0.0
C3122 C 0.37714 0.64469 0.82006 0.0
C3123 C 0.37514 0.63911 0.80167 0.0
H3124 H 0.36326 0.64899 0.84287 0.0
H3125 H 0.35193 0.59809 0.66465 0.0
H3126 H 0.21516 0.65784 0.48602 0.0
H3127 H 0.18526 0.63767 0.48587 0.0
H3128 H 0.20758 0.61403 0.53122 0.0
H3129 H 0.23756 0.63309 0.53035 0.0
H3130 H 0.18673 0.58977 0.51175 0.0
H3131 H 0.17926 0.64643 0.53332 0.0
H3132 H 0.17968 0.67794 0.53234 0.0
H3133 H 0.14045 0.66591 0.48429 0.0
H3134 H 0.14002 0.63434 0.48485 0.0
H3135 H 0.10643 0.55493 0.54931 0.0
H3136 H 0.13527 0.57267 0.54281 0.0
H3137 H 0.10894 0.58204 0.4913 0.0
H3138 H 0.07974 0.56444 0.49778 0.0
H3139 H 0.1305 0.61245 0.51061 0.0
H3140 H 0.13702 0.55364 0.49365 0.0
H3141 H 0.13647 0.52286 0.49931 0.0
H3142 H 0.17809 0.54051 0.545 0.0
H3143 H 0.17867 0.57138 0.53978 0.0
C3144 C 0.21362 0.64817 0.49579 0.0
C3145 C 0.22864 0.64693 0.50813 0.0
C3146 C 0.19651 0.63676 0.49584 0.0
C3147 C 0.19395 0.62445 0.50876 0.0
C3148 C 0.20908 0.62326 0.52101 0.0
C3149 C 0.22625 0.6342 0.52055 0.0
C3150 C 0.17566 0.61279 0.50974 0.0
C3151 C 0.17452 0.59487 0.51165 0.0
C3152 C 0.15951 0.61917 0.50935 0.0
C3153 C 0.15976 0.63809 0.50901 0.0
C3154 C 0.17083 0.65053 0.52248 0.0
C3155 C 0.17106 0.66839 0.522 0.0
C3156 C 0.16013 0.67393 0.50823 0.0
C3157 C 0.14893 0.66161 0.49493 0.0
C3158 C 0.14869 0.64374 0.49531 0.0
C3159 C 0.10672 0.56058 0.53649 0.0
C3160 C 0.09073 0.55821 0.52404 0.0
C3161 C 0.12327 0.57072 0.5328 0.0
C3162 C 0.12428 0.57856 0.51652 0.0
C3163 C 0.10843 0.57609 0.50394 0.0
C3164 C 0.09179 0.56594 0.50764 0.0
C3165 C 0.14183 0.58971 0.51294 0.0
C3166 C 0.14276 0.60747 0.51052 0.0
C3167 C 0.15792 0.58334 0.5135 0.0
C3168 C 0.15786 0.56479 0.51634 0.0
C3169 C 0.14601 0.55094 0.50493 0.0
C3170 C 0.14568 0.53348 0.50807 0.0
C3171 C 0.15723 0.52973 0.5225 0.0
C3172 C 0.16916 0.54342 0.53382 0.0
C3173 C 0.16952 0.5609 0.53076 0.0
H3174 H 0.15695 0.5162 0.52492 0.0
H3175 H 0.16031 0.68776 0.5079 0.0
H3176 H 0.63523 0.93678 0.79732 0.0
H3177 H 0.65132 0.91292 0.80038 0.0
H3178 H 0.69628 0.94316 0.77693 0.0
H3179 H 0.68068 0.96695 0.77403 0.0
H3180 H 0.68097 0.90677 0.76124 0.0
H3181 H 0.70526 0.94354 0.81868 0.0
H3182 H 0.69903 0.95894 0.84625 0.0
H3183 H 0.66756 0.91019 0.86056 0.0
H3184 H 0.67355 0.89457 0.83297 0.0
H3185 H 0.76574 0.88653 0.77859 0.0
H3186 H 0.73847 0.89831 0.77436 0.0
H3187 H 0.71355 0.86369 0.81169 0.0
H3188 H 0.74094 0.85201 0.81614 0.0
H3189 H 0.71125 0.89551 0.82031 0.0
H3190 H 0.69436 0.85775 0.76494 0.0
H3191 H 0.69565 0.84351 0.73488 0.0
H3192 H 0.71115 0.89415 0.71492 0.0
H3193 H 0.70983 0.90867 0.7448 0.0
C3194 C 0.64863 0.93836 0.79303 0.0
C3195 C 0.65677 0.95366 0.78549 0.0
C3196 C 0.65767 0.92477 0.79469 0.0
C3197 C 0.67473 0.92643 0.78866 0.0
C3198 C 0.68297 0.94175 0.78144 0.0
C3199 C 0.67411 0.95534 0.77997 0.0
C3200 C 0.6845 0.91245 0.79006 0.0
C3201 C 0.68756 0.90409 0.77409 0.0
C3202 C 0.69249 0.90886 0.80687 0.0
C3203 C 0.68981 0.91795 0.82388 0.0
C3204 C 0.69707 0.93614 0.82778 0.0
C3205 C 0.69356 0.9449 0.84336 0.0
C3206 C 0.6829 0.93555 0.85515 0.0
C3207 C 0.67583 0.91741 0.85143 0.0
C3208 C 0.67931 0.90859 0.83586 0.0
C3209 C 0.75436 0.88136 0.78575 0.0
C3210 C 0.75544 0.86858 0.79784 0.0
C3211 C 0.73873 0.88791 0.78317 0.0
C3212 C 0.7239 0.88156 0.79245 0.0
C3213 C 0.72485 0.86861 0.80434 0.0
C3214 C 0.74053 0.86214 0.80702 0.0
C3215 C 0.70838 0.88998 0.79128 0.0
C3216 C 0.70426 0.89747 0.80737 0.0
C3217 C 0.69945 0.89283 0.77446 0.0
C3218 C 0.70204 0.88425 0.75708 0.0
C3219 C 0.69827 0.86583 0.75419 0.0
C3220 C 0.69884 0.85772 0.73715 0.0
C3221 C 0.70333 0.86793 0.72297 0.0
C3222 C 0.70756 0.88627 0.72587 0.0
C3223 C 0.70685 0.89443 0.74283 0.0
H3224 H 0.70358 0.86164 0.70973 0.0
H3225 H 0.68012 0.94236 0.86717 0.0
H3226 H 0.71039 0.91703 0.5427 0.0
H3227 H 0.68318 0.9289 0.54184 0.0
H3228 H 0.71728 0.98106 0.55648 0.0
H3229 H 0.74433 0.96862 0.55948 0.0
H3230 H 0.69143 0.98546 0.56804 0.0
H3231 H 0.68347 0.95509 0.50737 0.0
H3232 H 0.68008 0.9294 0.4852 0.0
H3233 H 0.63503 0.90108 0.50949 0.0
H3234 H 0.63817 0.92659 0.53175 0.0
H3235 H 0.61935 0.03012 0.54408 0.0
H3236 H 0.64582 0.01693 0.54579 0.0
H3237 H 0.60996 0.96528 0.54094 0.0
H3238 H 0.58334 0.97855 0.53858 0.0
H3239 H 0.63566 0.96029 0.52471 0.0
H3240 H 0.64249 0.99081 0.58386 0.0
H3241 H 0.64535 0.01625 0.60617 0.0
H3242 H 0.69235 0.04425 0.58443 0.0
H3243 H 0.6897 0.019 0.56196 0.0
C3244 C 0.71222 0.93108 0.54572 0.0
C3245 C 0.73013 0.94162 0.55106 0.0
C3246 C 0.69627 0.93816 0.54486 0.0
C3247 C 0.69713 0.95649 0.54825 0.0
C3248 C 0.7152 0.96698 0.55361 0.0
C3249 C 0.73109 0.95976 0.55524 0.0
C3250 C 0.67975 0.96468 0.54681 0.0
C3251 C 0.67957 0.9799 0.55814 0.0
C3252 C 0.6631 0.95785 0.53466 0.0
C3253 C 0.66119 0.94263 0.52128 0.0
C3254 C 0.67288 0.94335 0.50797 0.0
C3255 C 0.67098 0.92884 0.49539 0.0
C3256 C 0.65736 0.91361 0.49595 0.0
C3257 C 0.64557 0.91288 0.50906 0.0
C3258 C 0.64738 0.92736 0.52163 0.0
C3259 C 0.61689 0.01592 0.54341 0.0
C3260 C 0.59861 1.00571 0.54123 0.0
C3261 C 0.63239 0.0082 0.54462 0.0
C3262 C 0.63073 0.98971 0.54403 0.0
C3263 C 0.6124 0.97948 0.54161 0.0
C3264 C 0.59686 0.98721 0.54029 0.0
C3265 C 0.64772 0.98117 0.54557 0.0
C3266 C 0.64773 0.96587 0.53438 0.0
C3267 C 0.66423 0.98797 0.55776 0.0
C3268 C 0.66578 1.00313 0.57115 0.0
C3269 C 0.65336 1.00245 0.58379 0.0
C3270 C 0.65496 0.01681 0.59647 0.0
C3271 C 0.66898 0.03188 0.59667 0.0
C3272 C 0.68148 0.03259 0.58424 0.0
C3273 C 0.67995 0.01825 0.57156 0.0
H3274 H 0.67019 0.043 0.60648 0.0
H3275 H 0.65593 0.90238 0.48621 0.0
H3276 H 0.36149 0.46849 0.75234 0.0
H3277 H 0.35017 0.43769 0.75811 0.0
H3278 H 0.37517 0.42053 0.71343 0.0
H3279 H 0.38738 0.45135 0.70824 0.0
H3280 H 0.32979 0.40744 0.72251 0.0
H3281 H 0.39615 0.41096 0.7368 0.0
H3282 H 0.42693 0.42487 0.75264 0.0
H3283 H 0.40638 0.42124 0.80369 0.0
H3284 H 0.37533 0.40779 0.78805 0.0
H3285 H 0.30964 0.31612 0.73346 0.0
H3286 H 0.32241 0.34558 0.72507 0.0
H3287 H 0.33805 0.36437 0.78157 0.0
H3288 H 0.32642 0.33472 0.78984 0.0
H3289 H 0.3643 0.37664 0.76499 0.0
H3290 H 0.2997 0.37296 0.75378 0.0
H3291 H 0.26768 0.36023 0.74049 0.0
H3292 H 0.2827 0.36527 0.68718 0.0
H3293 H 0.31485 0.37782 0.70016 0.0
C3294 C 0.36447 0.45808 0.74377 0.0
C3295 C 0.37514 0.46201 0.72985 0.0
C3296 C 0.35816 0.44064 0.74713 0.0
C3297 C 0.36216 0.4271 0.73632 0.0
C3298 C 0.37233 0.43098 0.72205 0.0
C3299 C 0.37914 0.44844 0.71904 0.0
C3300 C 0.35504 0.40883 0.73963 0.0
C3301 C 0.33735 0.40049 0.73155 0.0
C3302 C 0.36484 0.40027 0.75189 0.0
C3303 C 0.38336 0.40879 0.76122 0.0
C3304 C 0.39811 0.41351 0.75136 0.0
C3305 C 0.41563 0.42122 0.76031 0.0
C3306 C 0.41859 0.42405 0.77916 0.0
C3307 C 0.40405 0.41915 0.78909 0.0
C3308 C 0.38648 0.41153 0.78018 0.0
C3309 C 0.31576 0.32663 0.74401 0.0
C3310 C 0.31716 0.32335 0.76223 0.0
C3311 C 0.32294 0.34342 0.73925 0.0
C3312 C 0.33097 0.3572 0.75272 0.0
C3313 C 0.332 0.3539 0.77096 0.0
C3314 C 0.32533 0.33704 0.77568 0.0
C3315 C 0.33881 0.375 0.7479 0.0
C3316 C 0.35665 0.38337 0.75577 0.0
C3317 C 0.32896 0.38372 0.73573 0.0
C3318 C 0.30967 0.37617 0.72793 0.0
C3319 C 0.29618 0.37123 0.73922 0.0
C3320 C 0.27801 0.36407 0.73175 0.0
C3321 C 0.27317 0.3619 0.713 0.0
C3322 C 0.28647 0.36693 0.70169 0.0
C3323 C 0.30466 0.37408 0.7091 0.0
H3324 H 0.25909 0.35637 0.70724 0.0
H3325 H 0.43219 0.42993 0.78607 0.0
H3326 H 0.1656 0.53346 0.2746 0.0
H3327 H 0.17998 0.56437 0.27373 0.0
H3328 H 0.12934 0.57838 0.28202 0.0
H3329 H 0.11438 0.54699 0.28155 0.0
H3330 H 0.14573 0.59835 0.25984 0.0
H3331 H 0.16563 0.58157 0.31815 0.0
H3332 H 0.1776 0.56151 0.33782 0.0
H3333 H 0.22734 0.57102 0.31387 0.0
H3334 H 0.21556 0.59094 0.29389 0.0
H3335 H 0.19798 0.68597 0.27206 0.0
H3336 H 0.17959 0.65922 0.28189 0.0
H3337 H 0.21948 0.63059 0.26813 0.0
H3338 H 0.23797 0.65729 0.25859 0.0
H3339 H 0.20538 0.62064 0.29884 0.0
H3340 H 0.18384 0.63129 0.23744 0.0
H3341 H 0.17289 0.65024 0.2157 0.0
H3342 H 0.12723 0.65162 0.2444 0.0
H3343 H 0.13811 0.63287 0.26646 0.0
C3344 C 0.15758 0.54316 0.2764 0.0
C3345 C 0.13913 0.53811 0.27877 0.0
C3346 C 0.16579 0.56077 0.27594 0.0
C3347 C 0.15592 0.57364 0.2788 0.0
C3348 C 0.13723 0.56858 0.28034 0.0
C3349 C 0.12878 0.55079 0.28013 0.0
C3350 C 0.16538 0.59233 0.28029 0.0
C3351 C 0.15852 0.60336 0.26872 0.0
C3352 C 0.18215 0.59878 0.29175 0.0
C3353 C 0.18974 0.58777 0.3046 0.0
C3354 C 0.17916 0.57944 0.31717 0.0
C3355 C 0.18588 0.56806 0.32832 0.0
C3356 C 0.20323 0.56501 0.32711 0.0
C3357 C 0.21393 0.57343 0.31483 0.0
C3358 C 0.20726 0.58482 0.30363 0.0
C3359 C 0.20283 0.67397 0.27137 0.0
C3360 C 0.21913 0.67343 0.2644 0.0
C3361 C 0.19245 0.65883 0.27705 0.0
C3362 C 0.19819 0.64305 0.2755 0.0
C3363 C 0.21496 0.64275 0.26946 0.0
C3364 C 0.22542 0.6579 0.26396 0.0
C3365 C 0.18592 0.62637 0.27812 0.0
C3366 C 0.19226 0.61576 0.29047 0.0
C3367 C 0.16877 0.62028 0.26731 0.0
C3368 C 0.16183 0.63084 0.25363 0.0
C3369 C 0.17148 0.63567 0.2391 0.0
C3370 C 0.16531 0.64638 0.22674 0.0
C3371 C 0.14939 0.65215 0.22868 0.0
C3372 C 0.13956 0.64715 0.24292 0.0
C3373 C 0.14571 0.63648 0.25535 0.0
H3374 H 0.14465 0.66049 0.21913 0.0
H3375 H 0.20837 0.55611 0.33569 0.0
H3376 H 0.50873 0.70539 0.46713 0.0
H3377 H 0.51467 0.68232 0.48583 0.0
H3378 H 0.52061 0.65098 0.43822 0.0
H3379 H 0.51346 0.67364 0.41937 0.0
H3380 H 0.50766 0.63034 0.46229 0.0
H3381 H 0.55771 0.68069 0.46322 0.0
H3382 H 0.57266 0.71234 0.46734 0.0
H3383 H 0.56329 0.71454 0.52284 0.0
H3384 H 0.54804 0.68294 0.51896 0.0
H3385 H 0.56514 0.58208 0.50223 0.0
H3386 H 0.55754 0.60547 0.48489 0.0
H3387 H 0.54499 0.63098 0.53313 0.0
H3388 H 0.55299 0.60764 0.5506 0.0
H3389 H 0.56106 0.65442 0.50935 0.0
H3390 H 0.51152 0.60313 0.50778 0.0
H3391 H 0.49785 0.57131 0.50308 0.0
H3392 H 0.50775 0.5706 0.44778 0.0
H3393 H 0.52182 0.60247 0.45223 0.0
C3394 C 0.51059 0.69325 0.46066 0.0
C3395 C 0.51074 0.69115 0.44195 0.0
C3396 C 0.51415 0.68019 0.47131 0.0
C3397 C 0.51873 0.6653 0.46344 0.0
C3398 C 0.51727 0.66248 0.44455 0.0
C3399 C 0.51314 0.67535 0.4338 0.0
C3400 C 0.52693 0.65374 0.47496 0.0
C3401 C 0.51942 0.63559 0.47245 0.0
C3402 C 0.54221 0.66064 0.48833 0.0
C3403 C 0.55161 0.67954 0.49076 0.0
C3404 C 0.55877 0.68796 0.47627 0.0
C3405 C 0.56729 0.70588 0.47857 0.0
C3406 C 0.56889 0.71545 0.49533 0.0
C3407 C 0.56202 0.70711 0.50986 0.0
C3408 C 0.55345 0.6892 0.50763 0.0
C3409 C 0.56154 0.59313 0.50921 0.0
C3410 C 0.55974 0.59337 0.52763 0.0
C3411 C 0.55704 0.60632 0.49932 0.0
C3412 C 0.55034 0.61961 0.50773 0.0
C3413 C 0.55011 0.62072 0.52649 0.0
C3414 C 0.5548 0.60756 0.53646 0.0
C3415 C 0.54178 0.63113 0.49665 0.0
C3416 C 0.54925 0.64924 0.49922 0.0
C3417 C 0.52663 0.62418 0.48321 0.0
C3418 C 0.51785 0.60512 0.48039 0.0
C3419 C 0.51088 0.59617 0.49465 0.0
C3420 C 0.50304 0.57812 0.49203 0.0
C3421 C 0.50193 0.56889 0.47516 0.0
C3422 C 0.50862 0.57774 0.46084 0.0
C3423 C 0.51653 0.59581 0.4634 0.0
H3424 H 0.49586 0.5549 0.47319 0.0
H3425 H 0.57548 0.72933 0.49708 0.0
H3426 H 0.65116 0.33846 0.6654 0.0
H3427 H 0.67572 0.32719 0.68082 0.0
H3428 H 0.65593 0.33531 0.73168 0.0
H3429 H 0.63107 0.34641 0.71639 0.0
H3430 H 0.69536 0.34251 0.73266 0.0
H3431 H 0.63973 0.2978 0.70903 0.0
H3432 H 0.61586 0.28174 0.68465 0.0
H3433 H 0.65694 0.267 0.65601 0.0
H3434 H 0.68107 0.28322 0.68008 0.0
H3435 H 0.73416 0.28912 0.78559 0.0
H3436 H 0.70895 0.29951 0.76989 0.0
H3437 H 0.7207 0.27889 0.71879 0.0
H3438 H 0.74514 0.26756 0.73466 0.0
H3439 H 0.68614 0.27831 0.7163 0.0
H3440 H 0.74141 0.32112 0.73685 0.0
H3441 H 0.76745 0.33797 0.75858 0.0
H3442 H 0.73053 0.35753 0.78942 0.0
H3443 H 0.70424 0.34059 0.76799 0.0
C3444 C 0.65239 0.3385 0.67996 0.0
C3445 C 0.63901 0.34304 0.68968 0.0
C3446 C 0.66635 0.33193 0.68868 0.0
C3447 C 0.66721 0.3301 0.7072 0.0
C3448 C 0.65524 0.33653 0.7173 0.0
C3449 C 0.64112 0.34293 0.70857 0.0
C3450 C 0.67925 0.31984 0.71574 0.0
C3451 C 0.6933 0.32845 0.72926 0.0
C3452 C 0.67677 0.30164 0.71069 0.0
C3453 C 0.66221 0.29192 0.69624 0.0
C3454 C 0.64368 0.29129 0.69745 0.0
C3455 C 0.63011 0.28213 0.6837 0.0
C3456 C 0.63489 0.27341 0.66876 0.0
C3457 C 0.65325 0.27379 0.66757 0.0
C3458 C 0.66688 0.28297 0.68125 0.0
C3459 C 0.73056 0.28594 0.77113 0.0
C3460 C 0.74118 0.27738 0.76125 0.0
C3461 C 0.71644 0.29211 0.76214 0.0
C3462 C 0.71343 0.29044 0.74319 0.0
C3463 C 0.72289 0.28036 0.73343 0.0
C3464 C 0.73669 0.27375 0.74248 0.0
C3465 C 0.70211 0.30089 0.73358 0.0
C3466 C 0.68826 0.29236 0.71976 0.0
C3467 C 0.7051 0.31929 0.73798 0.0
C3468 C 0.72086 0.32944 0.75093 0.0
C3469 C 0.73884 0.32891 0.74835 0.0
C3470 C 0.75365 0.33848 0.7606 0.0
C3471 C 0.75065 0.34877 0.77541 0.0
C3472 C 0.73283 0.34953 0.77797 0.0
C3473 C 0.71798 0.33995 0.76577 0.0
H3474 H 0.76213 0.35618 0.78488 0.0
H3475 H 0.62436 0.26635 0.65813 0.0
H3476 H 0.01174 0.28208 0.95924 0.0
H3477 H 0.01555 0.31228 0.97199 0.0
H3478 H 0.03774 0.33142 0.92458 0.0
H3479 H 0.03438 0.30103 0.91183 0.0
H3480 H 0.05574 0.35095 0.95535 0.0
H3481 H 0.9938 0.32987 0.92806 0.0
H3482 H 0.96335 0.30957 0.9214 0.0
H3483 H 0.95593 0.3155 0.97728 0.0
H3484 H 0.98647 0.3356 0.98433 0.0
H3485 H 0.03727 0.43558 0.98052 0.0
H3486 H 0.03961 0.40828 0.96401 0.0
H3487 H 0.01868 0.37879 0.00682 0.0
H3488 H 0.01556 0.40573 0.02293 0.0
H3489 H 0.99995 0.36631 0.97386 0.0
H3490 H 0.06342 0.38611 1.0011 0.0
H3491 H 0.09362 0.40695 0.00697 0.0
H3492 H 0.09761 0.40419 0.95015 0.0
H3493 H 0.06732 0.38355 0.94393 0.0
C3494 C 0.01765 0.29271 0.95161 0.0
C3495 C 0.02263 0.28929 0.9345 0.0
C3496 C 0.01974 0.30992 0.95887 0.0
C3497 C 0.02653 0.32395 0.94899 0.0
C3498 C 0.03237 0.32066 0.93229 0.0
C3499 C 0.03046 0.30337 0.92507 0.0
C3500 C 0.02678 0.34198 0.95597 0.0
C3501 C 0.04352 0.35446 0.95915 0.0
C3502 C 1.01078 0.3464 0.9609 0.0
C3503 C 0.99247 0.33416 0.95673 0.0
C3504 C 0.98574 0.32673 0.93895 0.0
C3505 C 0.96845 0.31527 0.93511 0.0
C3506 C 0.95772 0.31124 0.94891 0.0
C3507 C 0.96426 0.31863 0.9666 0.0
C3508 C 0.98155 0.33006 0.97052 0.0
C3509 C 0.03318 0.42325 0.98635 0.0
C3510 C 0.02615 0.4227 1.00293 0.0
C3511 C 0.03472 0.40776 0.97704 0.0
C3512 C 0.02937 0.39166 0.98431 0.0
C3513 C 0.02289 0.39118 1.00108 0.0
C3514 C 0.02124 0.40656 0.0103 0.0
C3515 C 0.02903 0.37502 0.97395 0.0
C3516 C 0.01217 0.36286 0.96994 0.0
C3517 C 0.04487 0.371 0.96822 0.0
C3518 C 0.06303 0.38345 0.97203 0.0
C3519 C 0.07067 0.39008 0.98985 0.0
C3520 C 0.08781 0.40184 0.99324 0.0
C3521 C 0.09748 0.40695 0.97893 0.0
C3522 C 0.09008 0.40026 0.96121 0.0
C3523 C 0.07293 0.38854 0.95775 0.0
H3524 H 0.11072 0.41609 0.98155 0.0
H3525 H 0.94432 0.3024 0.94589 0.0
H3526 H 0.01486 0.83212 0.16961 0.0
H3527 H 0.98489 0.81928 0.17821 0.0
H3528 H 1.01089 0.80933 0.22971 0.0
H3529 H 0.04083 0.82162 0.22098 0.0
H3530 H 0.98745 0.78044 0.21354 0.0
H3531 H 0.98714 0.84196 0.22567 0.0
H3532 H 0.9898 0.87226 0.21722 0.0
H3533 H 0.94489 0.85395 0.17467 0.0
H3534 H 0.94214 0.82349 0.18274 0.0
H3535 H 0.92244 0.7716 0.27302 0.0
H3536 H 0.94754 0.77906 0.25533 0.0
H3537 H 0.90924 0.7783 0.20765 0.0
H3538 H 0.88381 0.77027 0.2252 0.0
H3539 H 0.93579 0.80961 0.21567 0.0
H3540 H 0.93292 0.74851 0.20784 0.0
H3541 H 0.93032 0.7186 0.21731 0.0
H3542 H 0.98119 0.73609 0.2525 0.0
H3543 H 0.98394 0.7662 0.24349 0.0
C3544 C 0.01411 0.82765 0.18296 0.0
C3545 C 0.03006 0.82784 0.19467 0.0
C3546 C 0.99703 0.82022 0.18779 0.0
C3547 C 0.99577 0.81328 0.20452 0.0
C3548 C 0.01166 0.81446 0.21665 0.0
C3549 C 0.0287 0.82164 0.21174 0.0
C3550 C 0.97802 0.80407 0.20925 0.0
C3551 C 0.97617 0.78683 0.21409 0.0
C3552 C 0.96314 0.81219 0.20926 0.0
C3553 C 0.96453 0.83049 0.2047 0.0
C3554 C 0.97789 0.84441 0.21446 0.0
C3555 C 0.97942 0.8616 0.20975 0.0
C3556 C 0.96755 0.86503 0.19539 0.0
C3557 C 0.95408 0.85128 0.18577 0.0
C3558 C 0.95252 0.83406 0.19042 0.0
C3559 C 0.91927 0.77239 0.25865 0.0
C3560 C 0.90117 0.77043 0.2505 0.0
C3561 C 0.93364 0.77674 0.24859 0.0
C3562 C 0.93012 0.77918 0.23026 0.0
C3563 C 0.91209 0.77648 0.22183 0.0
C3564 C 0.89766 0.77197 0.23187 0.0
C3565 C 0.9455 0.78625 0.22058 0.0
C3566 C 0.94692 0.80307 0.21474 0.0
C3567 C 0.96002 0.77777 0.21975 0.0
C3568 C 0.95863 0.75962 0.225 0.0
C3569 C 0.94352 0.746 0.21766 0.0
C3570 C 0.94201 0.72901 0.22296 0.0
C3571 C 0.95559 0.72544 0.2355 0.0
C3572 C 0.9707 0.73887 0.24277 0.0
C3573 C 0.97226 0.7559 0.23755 0.0
H3574 H 0.9544 0.71227 0.23958 0.0
H3575 H 0.96876 0.87835 0.19175 0.0
H3576 H 0.54975 0.32679 0.08708 0.0
H3577 H 0.54911 0.3552 0.07584 0.0
H3578 H 0.55369 0.37843 0.13046 0.0
H3579 H 0.55194 0.34929 0.14134 0.0
H3580 H 0.5417 0.3998 0.11709 0.0
H3581 H 0.59016 0.38329 0.09007 0.0
H3582 H 0.60536 0.36462 0.07228 0.0
H3583 H 0.56642 0.36412 0.02553 0.0
H3584 H 0.55091 0.38265 0.04312 0.0
H3585 H 0.56286 0.48897 0.08775 0.0
H3586 H 0.56339 0.46065 0.09985 0.0
H3587 H 0.54529 0.43402 0.04653 0.0
H3588 H 0.54553 0.46239 0.0344 0.0
H3589 H 0.5651 0.41548 0.05992 0.0
H3590 H 0.51869 0.43543 0.09094 0.0
H3591 H 0.50869 0.45678 0.11085 0.0
H3592 H 0.55112 0.45378 0.15315 0.0
H3593 H 0.56144 0.43253 0.13342 0.0
C3594 C 0.55062 0.33787 0.09685 0.0
C3595 C 0.55096 0.33498 0.1154 0.0
C3596 C 0.55067 0.35479 0.0903 0.0
C3597 C 0.55225 0.37051 0.10186 0.0
C3598 C 0.55255 0.36746 0.12051 0.0
C3599 C 0.55165 0.35035 0.12697 0.0
C3600 C 0.55317 0.38954 0.09482 0.0
C3601 C 0.54712 0.40288 0.10463 0.0
C3602 C 0.56006 0.39514 0.0785 0.0
C3603 C 0.5693 0.38412 0.06792 0.0
C3604 C 0.58484 0.37912 0.07601 0.0
C3605 C 0.59349 0.36858 0.06597 0.0
C3606 C 0.58683 0.36314 0.0478 0.0
C3607 C 0.57154 0.3683 0.03961 0.0
C3608 C 0.56281 0.37882 0.04959 0.0
C3609 C 0.55895 0.47717 0.07844 0.0
C3610 C 0.55413 0.47876 0.05977 0.0
C3611 C 0.55901 0.46049 0.08556 0.0
C3612 C 0.55389 0.44404 0.0746 0.0
C3613 C 0.5493 0.44577 0.05591 0.0
C3614 C 0.5494 0.46242 0.04879 0.0
C3615 C 0.5535 0.42541 0.08209 0.0
C3616 C 0.55964 0.41219 0.07234 0.0
C3617 C 0.5474 0.42021 0.0988 0.0
C3618 C 0.54087 0.43253 0.11071 0.0
C3619 C 0.52586 0.43935 0.10449 0.0
C3620 C 0.52016 0.45144 0.11573 0.0
C3621 C 0.52928 0.45666 0.13324 0.0
C3622 C 0.54408 0.44974 0.13958 0.0
C3623 C 0.54984 0.43766 0.1284 0.0
H3624 H 0.52488 0.46605 0.1419 0.0
H3625 H 0.59354 0.35496 0.04005 0.0
H3626 H 1.0103 0.27855 0.35021 0.0
H3627 H 0.98058 0.27953 0.33307 0.0
H3628 H 0.95447 0.26918 0.38052 0.0
H3629 H 0.98399 0.26893 0.39773 0.0
H3630 H 0.93322 0.24838 0.34849 0.0
H3631 H 0.96147 0.3091 0.3677 0.0
H3632 H 0.98563 0.33641 0.37011 0.0
H3633 H 0.97923 0.33603 0.31231 0.0
H3634 H 0.95522 0.30853 0.30955 0.0
H3635 H 0.84432 0.26208 0.32056 0.0
H3636 H 0.87457 0.26188 0.33569 0.0
H3637 H 0.89937 0.292 0.29521 0.0
H3638 H 0.86882 0.29319 0.28069 0.0
H3639 H 0.92233 0.30218 0.32223 0.0
H3640 H 0.89526 0.24222 0.30156 0.0
H3641 H 0.87168 0.21433 0.29747 0.0
H3642 H 0.87693 0.21177 0.35491 0.0
H3643 H 0.90035 0.23976 0.35935 0.0
C3644 C 0.99829 0.27643 0.35707 0.0
C3645 C 1.00007 0.27366 0.37566 0.0
C3646 C 0.98107 0.27706 0.34716 0.0
C3647 C 0.96467 0.27443 0.35519 0.0
C3648 C 0.96646 0.27125 0.3736 0.0
C3649 C 0.98364 0.27115 0.38358 0.0
C3650 C 0.94585 0.27509 0.3448 0.0
C3651 C 0.93093 0.26026 0.34292 0.0
C3652 C 0.94228 0.29022 0.33679 0.0
C3653 C 0.95672 0.30666 0.33841 0.0
C3654 C 0.96536 0.31474 0.3555 0.0
C3655 C 0.97899 0.33027 0.35693 0.0
C3656 C 0.984 0.33793 0.34137 0.0
C3657 C 0.97536 0.33007 0.32435 0.0
C3658 C 0.96174 0.31451 0.32284 0.0
C3659 C 0.85612 0.26866 0.31469 0.0
C3660 C 0.85355 0.2775 0.29902 0.0
C3661 C 0.8738 0.26837 0.3234 0.0
C3662 C 0.89012 0.27637 0.31666 0.0
C3663 C 0.88756 0.28546 0.30108 0.0
C3664 C 0.86979 0.28609 0.29256 0.0
C3665 C 0.90946 0.2754 0.32587 0.0
C3666 C 0.92452 0.29019 0.32761 0.0
C3667 C 0.9133 0.26006 0.33342 0.0
C3668 C 0.89945 0.24313 0.33079 0.0
C3669 C 0.89133 0.23573 0.31331 0.0
C3670 C 0.87799 0.21992 0.31093 0.0
C3671 C 0.8728 0.21131 0.32592 0.0
C3672 C 0.88096 0.21846 0.34332 0.0
C3673 C 0.89428 0.23429 0.34578 0.0
H3674 H 0.86247 0.19908 0.32407 0.0
H3675 H 0.99455 0.34997 0.34251 0.0
H3676 H 0.05898 0.74002 0.62012 0.0
H3677 H 0.0613 0.71059 0.6096 0.0
H3678 H 1.00377 0.69098 0.61182 0.0
H3679 H 1.00219 0.7202 0.6245 0.0
H3680 H 0.01227 0.66454 0.61528 0.0
H3681 H 0.03599 0.69883 0.56825 0.0
H3682 H 0.05638 0.72287 0.55563 0.0
H3683 H 0.10331 0.70598 0.57937 0.0
H3684 H 0.08318 0.68194 0.59223 0.0
H3685 H 1.01018 0.58755 0.55065 0.0
H3686 H 1.00926 0.61706 0.56344 0.0
H3687 H 0.06167 0.62188 0.5949 0.0
H3688 H 0.06222 0.59189 0.58277 0.0
H3689 H 0.05635 0.65471 0.57406 0.0
H3690 H 0.03067 0.61823 0.61794 0.0
H3691 H 1.00914 0.59357 0.62833 0.0
H3692 H 0.9639 0.61441 0.60726 0.0
H3693 H 0.98518 0.63904 0.59644 0.0
C3694 C 0.04664 0.72959 0.61811 0.0
C3695 C 0.03023 0.73333 0.62295 0.0
C3696 C 0.04789 0.71225 0.61167 0.0
C3697 C 0.03259 0.69742 0.60864 0.0
C3698 C 0.01615 0.70132 0.61352 0.0
C3699 C 0.01511 0.71851 0.62071 0.0
C3700 C 0.03363 0.67821 0.60111 0.0
C3701 C 0.02185 0.66285 0.60602 0.0
C3702 C 0.04609 0.67446 0.58909 0.0
C3703 C 0.05813 0.68874 0.58129 0.0
C3704 C 0.05066 0.70029 0.57078 0.0
C3705 C 0.06217 0.71391 0.56361 0.0
C3706 C 0.08113 0.71598 0.56673 0.0
C3707 C 0.08863 0.70439 0.57698 0.0
C3708 C 0.07719 0.69076 0.58419 0.0
C3709 C 0.02155 0.59467 0.56043 0.0
C3710 C 0.03623 0.58658 0.56549 0.0
C3711 C 0.02102 0.6119 0.56783 0.0
C3712 C 0.03542 0.62253 0.58037 0.0
C3713 C 0.05021 0.61456 0.58534 0.0
C3714 C 0.05048 0.59705 0.57836 0.0
C3715 C 0.03492 0.64156 0.58811 0.0
C3716 C 0.04676 0.65671 0.58322 0.0
C3717 C 0.02228 0.64511 0.59979 0.0
C3718 C 1.00949 0.63035 0.60621 0.0
C3719 C 0.01612 0.61744 0.61534 0.0
C3720 C 1.00397 0.60349 0.62135 0.0
C3721 C 0.98516 0.6024 0.61841 0.0
C3722 C 0.97847 0.61526 0.60949 0.0
C3723 C 0.99057 0.62922 0.60342 0.0
H3724 H 0.97577 0.5916 0.62309 0.0
H3725 H 0.09001 0.72654 0.56118 0.0
H3726 H 0.6208 0.80297 0.89273 0.0
H3727 H 0.64725 0.80338 0.87643 0.0
H3728 H 0.61861 0.7547 0.84572 0.0
H3729 H 0.5921 0.75441 0.86206 0.0
H3730 H 0.65139 0.75185 0.84945 0.0
H3731 H 0.62936 0.79873 0.82832 0.0
H3732 H 0.61875 0.82626 0.82775 0.0
H3733 H 0.6713 0.85533 0.8542 0.0
H3734 H 0.68211 0.82788 0.85527 0.0
H3735 H 0.71964 0.75611 0.78759 0.0
H3736 H 0.69196 0.75579 0.80164 0.0
H3737 H 0.71909 0.80407 0.83388 0.0
H3738 H 0.74654 0.80483 0.81907 0.0
H3739 H 0.68623 0.80652 0.82863 0.0
H3740 H 0.70688 0.75453 0.84533 0.0
H3741 H 0.71419 0.726 0.83805 0.0
H3742 H 0.65898 0.7045 0.81326 0.0
H3743 H 0.6516 0.73328 0.81914 0.0
C3744 C 0.61998 0.79228 0.88251 0.0
C3745 C 0.60376 0.77865 0.87907 0.0
C3746 C 0.63537 0.79257 0.87287 0.0
C3747 C 0.63568 0.77919 0.85917 0.0
C3748 C 0.61949 0.76541 0.85594 0.0
C3749 C 0.604 0.76524 0.86543 0.0
C3750 C 0.65262 0.77944 0.84861 0.0
C3751 C 0.65876 0.76392 0.84486 0.0
C3752 C 0.663 0.79482 0.84203 0.0
C3753 C 0.65642 0.81123 0.84217 0.0
C3754 C 0.63856 0.81096 0.83428 0.0
C3755 C 0.63253 0.82655 0.83381 0.0
C3756 C 0.64431 0.84252 0.84102 0.0
C3757 C 0.66215 0.84293 0.84871 0.0
C3758 C 0.66823 0.82736 0.84928 0.0
C3759 C 0.71989 0.76681 0.7976 0.0
C3760 C 0.73602 0.78052 0.80183 0.0
C3761 C 0.70375 0.7665 0.80604 0.0
C3762 C 0.7027 0.77959 0.81977 0.0
C3763 C 0.71874 0.79349 0.82371 0.0
C3764 C 0.73482 0.79393 0.81506 0.0
C3765 C 0.68532 0.77901 0.82982 0.0
C3766 C 0.67904 0.79449 0.83345 0.0
C3767 C 0.67438 0.76343 0.83566 0.0
C3768 C 0.67877 0.74611 0.83253 0.0
C3769 C 0.69633 0.74375 0.83824 0.0
C3770 C 0.70049 0.72753 0.83434 0.0
C3771 C 0.68705 0.71337 0.82543 0.0
C3772 C 0.6694 0.71546 0.82018 0.0
C3773 C 0.66526 0.73178 0.82363 0.0
H3774 H 0.69034 0.70081 0.82254 0.0
H3775 H 0.63964 0.8546 0.84057 0.0
H3776 H 0.43832 0.55135 0.69145 0.0
H3777 H 0.45957 0.55377 0.66892 0.0
H3778 H 0.43478 0.50028 0.64708 0.0
H3779 H 0.4129 0.49806 0.66915 0.0
H3780 H 0.47929 0.51639 0.66247 0.0
H3781 H 0.42694 0.51675 0.61886 0.0
H3782 H 0.39899 0.52642 0.60831 0.0
H3783 H 0.42992 0.58001 0.61267 0.0
H3784 H 0.458 0.57066 0.62366 0.0
H3785 H 0.53731 0.5239 0.5933 0.0
H3786 H 0.51357 0.51578 0.61256 0.0
H3787 H 0.50596 0.56896 0.61492 0.0
H3788 H 0.52858 0.57657 0.59418 0.0
H3789 H 0.4753 0.54818 0.60749 0.0
H3790 H 0.52768 0.54839 0.65204 0.0
H3791 H 0.55571 0.53916 0.66337 0.0
H3792 H 0.52559 0.48524 0.65818 0.0
H3793 H 0.49745 0.49415 0.64662 0.0
C3794 C 0.43707 0.54036 0.68142 0.0
C3795 C 0.42391 0.52468 0.68159 0.0
C3796 C 0.44921 0.54169 0.66876 0.0
C3797 C 0.44854 0.52719 0.65652 0.0
C3798 C 0.43523 0.51158 0.65644 0.0
C3799 C 0.42271 0.51041 0.66881 0.0
C3800 C 0.46247 0.52842 0.64445 0.0
C3801 C 0.47843 0.52302 0.65022 0.0
C3802 C 0.46123 0.53737 0.62886 0.0
C3803 C 0.44446 0.54304 0.62228 0.0
C3804 C 0.42771 0.53062 0.6178 0.0
C3805 C 0.41187 0.53603 0.6117 0.0
C3806 C 0.41266 0.55383 0.60989 0.0
C3807 C 0.42932 0.56624 0.61414 0.0
C3808 C 0.44519 0.56089 0.6203 0.0
C3809 C 0.53082 0.53392 0.59831 0.0
C3810 C 0.53474 0.5509 0.59258 0.0
C3811 C 0.51732 0.52929 0.60936 0.0
C3812 C 0.50818 0.54183 0.61542 0.0
C3813 C 0.51284 0.55908 0.61037 0.0
C3814 C 0.52582 0.5635 0.59872 0.0
C3815 C 0.4927 0.53672 0.62572 0.0
C3816 C 0.47633 0.54138 0.6196 0.0
C3817 C 0.49369 0.52716 0.64107 0.0
C3818 C 0.51054 0.52192 0.64834 0.0
C3819 C 0.52708 0.53456 0.65325 0.0
C3820 C 0.54298 0.52939 0.65971 0.0
C3821 C 0.54244 0.51162 0.66145 0.0
C3822 C 0.52599 0.499 0.65681 0.0
C3823 C 0.51007 0.5041 0.65033 0.0
H3824 H 0.55477 0.50763 0.66643 0.0
H3825 H 0.40038 0.558 0.60515 0.0
H3826 H 0.79331 0.19576 0.96037 0.0
H3827 H 0.79414 0.20422 0.92955 0.0
H3828 H 0.76454 0.24385 0.94116 0.0
H3829 H 0.76301 0.23492 0.97175 0.0
H3830 H 0.75143 0.22787 0.90889 0.0
H3831 H 0.81383 0.25291 0.93897 0.0
H3832 H 0.8431 0.25074 0.95599 0.0
H3833 H 0.84934 0.21272 0.91461 0.0
H3834 H 0.82021 0.21473 0.89737 0.0
H3835 H 0.77211 0.28089 0.83621 0.0
H3836 H 0.76904 0.2694 0.8657 0.0
H3837 H 0.79589 0.22853 0.85076 0.0
H3838 H 0.79895 0.23979 0.82142 0.0
H3839 H 0.81011 0.24366 0.88379 0.0
H3840 H 0.75137 0.21821 0.85284 0.0
H3841 H 0.72185 0.21674 0.83431 0.0
H3842 H 0.70758 0.25045 0.8751 0.0
H3843 H 0.7372 0.25237 0.89375 0.0
C3844 C 0.78711 0.20639 0.95643 0.0
C3845 C 0.77828 0.21478 0.96867 0.0
C3846 C 0.78763 0.21126 0.93875 0.0
C3847 C 0.77969 0.22495 0.93296 0.0
C3848 C 0.77082 0.23329 0.94518 0.0
C3849 C 0.77007 0.22825 0.96277 0.0
C3850 C 0.78057 0.23061 0.91425 0.0
C3851 C 0.76432 0.23161 0.90356 0.0
C3852 C 0.79719 0.23475 0.90676 0.0
C3853 C 0.81486 0.23391 0.91697 0.0
C3854 C 0.82149 0.24411 0.93354 0.0
C3855 C 0.83806 0.24292 0.94319 0.0
C3856 C 0.84813 0.23165 0.93636 0.0
C3857 C 0.84164 0.22155 0.91984 0.0
C3858 C 0.82513 0.22273 0.9101 0.0
C3859 C 0.77727 0.2694 0.83916 0.0
C3860 C 0.78578 0.26131 0.82638 0.0
C3861 C 0.77545 0.2628 0.85603 0.0
C3862 C 0.78221 0.24805 0.8605 0.0
C3863 C 0.79061 0.23993 0.84771 0.0
C3864 C 0.79228 0.2464 0.83085 0.0
C3865 C 0.78107 0.24136 0.87867 0.0
C3866 C 0.79723 0.24008 0.88919 0.0
C3867 C 0.76433 0.23657 0.88579 0.0
C3868 C 0.74658 0.23561 0.87459 0.0
C3869 C 0.74202 0.22548 0.85777 0.0
C3870 C 0.72526 0.22453 0.84726 0.0
C3871 C 0.71286 0.23354 0.8535 0.0
C3872 C 0.71721 0.24351 0.87027 0.0
C3873 C 0.73399 0.24453 0.88082 0.0
H3874 H 0.69987 0.23277 0.84536 0.0
H3875 H 0.86093 0.23071 0.94387 0.0
H3876 H 0.07814 0.46161 0.2173 0.0
H3877 H 0.06571 0.47633 0.19255 0.0
H3878 H 0.11669 0.51525 0.1975 0.0
H3879 H 0.12957 0.50039 0.22154 0.0
H3880 H 0.07704 0.5257 0.19906 0.0
H3881 H 0.11684 0.502 0.16384 0.0
H3882 H 0.13217 0.47836 0.15611 0.0
H3883 H 0.07991 0.44267 0.13948 0.0
H3884 H 0.06431 0.46615 0.14734 0.0
H3885 H 0.06443 0.5595 0.11162 0.0
H3886 H 0.07199 0.55286 0.14255 0.0
H3887 H 0.03159 0.50359 0.13209 0.0
H3888 H 0.02422 0.50993 0.10105 0.0
H3889 H 0.0684 0.50133 0.13491 0.0
H3890 H 0.02989 0.53123 0.16714 0.0
H3891 H 0.01869 0.55771 0.17464 0.0
H3892 H 0.07331 0.58578 0.19623 0.0
H3893 H 0.08485 0.55949 0.18864 0.0
C3894 C 0.08689 0.4729 0.21265 0.0
C3895 C 0.10474 0.47984 0.22133 0.0
C3896 C 0.0797 0.48145 0.19887 0.0
C3897 C 0.09025 0.49704 0.19391 0.0
C3898 C 0.1084 0.50338 0.20162 0.0
C3899 C 0.11576 0.49463 0.21505 0.0
C3900 C 0.08231 0.50621 0.17998 0.0
C3901 C 0.0752 0.52059 0.18498 0.0
C3902 C 0.08034 0.49956 0.16184 0.0
C3903 C 0.08947 0.4857 0.15621 0.0
C3904 C 0.10866 0.48908 0.15854 0.0
C3905 C 0.11738 0.47574 0.15416 0.0
C3906 C 0.10701 0.45901 0.14732 0.0
C3907 C 0.08791 0.45564 0.14476 0.0
C3908 C 0.07912 0.46896 0.14914 0.0
C3909 C 0.05652 0.54768 0.11619 0.0
C3910 C 0.04423 0.53488 0.10399 0.0
C3911 C 0.06078 0.54397 0.13387 0.0
C3912 C 0.05252 0.52763 0.13928 0.0
C3913 C 0.0381 0.51621 0.12794 0.0
C3914 C 0.03401 0.51979 0.11025 0.0
C3915 C 0.06214 0.52043 0.15391 0.0
C3916 C 0.06995 0.50648 0.14897 0.0
C3917 C 0.06523 0.52799 0.17193 0.0
C3918 C 0.05821 0.54345 0.17728 0.0
C3919 C 0.03949 0.54307 0.17347 0.0
C3920 C 0.0331 0.55804 0.17772 0.0
C3921 C 0.04528 0.57343 0.18589 0.0
C3922 C 0.06389 0.57385 0.18992 0.0
C3923 C 0.07035 0.55891 0.18569 0.0
H3924 H 0.04031 0.58504 0.18911 0.0
H3925 H 0.11379 0.44866 0.144 0.0
H3926 H 0.81405 0.85461 0.48848 0.0
H3927 H 0.81352 0.8416 0.45767 0.0
H3928 H 0.76022 0.85125 0.44265 0.0
H3929 H 0.7608 0.86444 0.47355 0.0
H3930 H 0.76006 0.82048 0.42543 0.0
H3931 H 0.79973 0.87611 0.42851 0.0
H3932 H 0.82518 0.90147 0.43995 0.0
H3933 H 0.86379 0.8696 0.43339 0.0
H3934 H 0.83851 0.84393 0.42217 0.0
H3935 H 0.76372 0.80429 0.32912 0.0
H3936 H 0.76229 0.81766 0.3594 0.0
H3937 H 0.81386 0.80628 0.37876 0.0
H3938 H 0.81529 0.79287 0.34857 0.0
H3939 H 0.81372 0.83875 0.39309 0.0
H3940 H 0.77012 0.78246 0.38902 0.0
H3941 H 0.74293 0.76017 0.37451 0.0
H3942 H 0.70956 0.79746 0.37985 0.0
H3943 H 0.73662 0.82003 0.39424 0.0
C3944 C 0.80211 0.85396 0.47874 0.0
C3945 C 0.78746 0.86076 0.48401 0.0
C3946 C 0.80185 0.84651 0.46082 0.0
C3947 C 0.78688 0.84531 0.44716 0.0
C3948 C 0.77205 0.85177 0.4525 0.0
C3949 C 0.77241 0.85945 0.4704 0.0
C3950 C 0.78691 0.83764 0.42754 0.0
C3951 C 0.77182 0.82471 0.41845 0.0
C3952 C 0.80196 0.84281 0.41769 0.0
C3953 C 0.81722 0.85804 0.42472 0.0
C3954 C 0.81364 0.87445 0.4297 0.0
C3955 C 0.82803 0.88889 0.43611 0.0
C3956 C 0.84609 0.88714 0.43745 0.0
C3957 C 0.84979 0.87093 0.43238 0.0
C3958 C 0.83543 0.85642 0.426 0.0
C3959 C 0.7748 0.80456 0.33977 0.0
C3960 C 0.78961 0.79726 0.33595 0.0
C3961 C 0.77393 0.81223 0.35735 0.0
C3962 C 0.78788 0.8131 0.37201 0.0
C3963 C 0.80277 0.806 0.36811 0.0
C3964 C 0.80355 0.79815 0.35062 0.0
C3965 C 0.78712 0.82131 0.39119 0.0
C3966 C 0.80205 0.83442 0.40018 0.0
C3967 C 0.77172 0.81664 0.4007 0.0
C3968 C 0.75539 0.80294 0.3926 0.0
C3969 C 0.75699 0.7859 0.38706 0.0
C3970 C 0.7416 0.77323 0.37886 0.0
C3971 C 0.72453 0.77741 0.37623 0.0
C3972 C 0.72279 0.79425 0.3819 0.0
C3973 C 0.73814 0.80697 0.3901 0.0
H3974 H 0.71265 0.76759 0.36983 0.0
H3975 H 0.85722 0.89835 0.44237 0.0
H3976 H 0.41572 0.52767 0.79208 0.0
H3977 H 0.43051 0.52958 0.82328 0.0
H3978 H 0.47711 0.51484 0.80409 0.0
H3979 H 0.46239 0.51261 0.77305 0.0
H3980 H 0.46489 0.49583 0.83111 0.0
H3981 H 0.4783 0.55745 0.81832 0.0
H3982 H 0.46903 0.58428 0.8094 0.0
H3983 H 0.43791 0.58363 0.8539 0.0
H3984 H 0.44681 0.55664 0.86289 0.0
H3985 H 0.53405 0.51371 0.9026 0.0
H3986 H 0.51695 0.51707 0.8739 0.0
H3987 H 0.476 0.53333 0.9021 0.0
H3988 H 0.49358 0.53097 0.93099 0.0
H3989 H 0.48158 0.55086 0.87247 0.0
H3990 H 0.4692 0.49162 0.88721 0.0
H3991 H 0.4773 0.46461 0.89711 0.0
H3992 H 0.5039 0.45969 0.85005 0.0
H3993 H 0.49627 0.48689 0.84005 0.0
C3994 C 0.42919 0.52502 0.79454 0.0
C3995 C 0.43795 0.52003 0.7802 0.0
C3996 C 0.43758 0.52609 0.81232 0.0
C3997 C 0.45487 0.5224 0.81585 0.0
C3998 C 0.46371 0.51767 0.80154 0.0
C3999 C 0.45533 0.51648 0.78384 0.0
C4000 C 0.46385 0.52312 0.83445 0.0
C4001 C 0.46867 0.50789 0.84011 0.0
C4002 C 0.46806 0.53865 0.84637 0.0
C4003 C 0.46306 0.555 0.84115 0.0
C4004 C 0.4694 0.563 0.82612 0.0
C4005 C 0.46422 0.57822 0.82106 0.0
C4006 C 0.45285 0.58563 0.83105 0.0
C4007 C 0.4467 0.57787 0.84616 0.0
C4008 C 0.45181 0.56262 0.85125 0.0
C4009 C 0.5217 0.51849 0.90273 0.0
C4010 C 0.51494 0.52179 0.91896 0.0
C4011 C 0.51189 0.52027 0.88635 0.0
C4012 C 0.49507 0.52501 0.88602 0.0
C4013 C 0.4889 0.52948 0.90219 0.0
C4014 C 0.49882 0.52793 0.91861 0.0
C4015 C 0.48326 0.52379 0.86878 0.0
C4016 C 0.47772 0.5388 0.86349 0.0
C4017 C 0.47811 0.50796 0.85727 0.0
C4018 C 0.48228 0.49134 0.86295 0.0
C4019 C 0.47686 0.48482 0.87902 0.0
C4020 C 0.48137 0.46949 0.88465 0.0
C4021 C 0.49113 0.46045 0.87423 0.0
C4022 C 0.49635 0.46671 0.85811 0.0
C4023 C 0.49192 0.48208 0.85245 0.0
H4024 H 0.49463 0.44859 0.87862 0.0
H4025 H 0.44884 0.59742 0.8271 0.0
H4026 H 0.81319 0.20046 0.08236 0.0
H4027 H 0.8152 0.21169 0.11391 0.0
H4028 H 0.76897 0.23437 0.10018 0.0
H4029 H 0.76766 0.224 0.06837 0.0
H4030 H 0.79025 0.25549 0.1239 0.0
H4031 H 0.76736 0.19336 0.1217 0.0
H4032 H 0.76686 0.16198 0.115 0.0
H4033 H 0.81787 0.16872 0.14954 0.0
H4034 H 0.81881 0.2002 0.15621 0.0
H4035 H 0.77524 0.2713 0.21457 0.0
H4036 H 0.77222 0.26007 0.18295 0.0
H4037 H 0.81805 0.23645 0.19528 0.0
H4038 H 0.81991 0.24641 0.22739 0.0
H4039 H 0.79602 0.21568 0.17199 0.0
H4040 H 0.81789 0.27957 0.17286 0.0
H4041 H 0.81574 0.31032 0.17929 0.0
H4042 H 0.76299 0.299 0.14699 0.0
H4043 H 0.7648 0.26819 0.14051 0.0
C4044 C 0.8036 0.20805 0.08601 0.0
C4045 C 0.79029 0.21136 0.07277 0.0
C4046 C 0.80459 0.21429 0.10418 0.0
C4047 C 0.79191 0.22351 0.10977 0.0
C4048 C 0.77892 0.22725 0.09643 0.0
C4049 C 0.77819 0.22135 0.07816 0.0
C4050 C 0.79223 0.2293 0.1294 0.0
C4051 C 0.79132 0.24666 0.13434 0.0
C4052 C 0.79378 0.21803 0.14332 0.0
C4053 C 0.79324 0.19914 0.13931 0.0
C4054 C 0.77853 0.18816 0.12775 0.0
C4055 C 0.77816 0.17036 0.12398 0.0
C4056 C 0.79234 0.16337 0.13181 0.0
C4057 C 0.80691 0.17415 0.14346 0.0
C4058 C 0.80737 0.19197 0.14725 0.0
C4059 C 0.78468 0.26369 0.21053 0.0
C4060 C 0.79797 0.25991 0.22345 0.0
C4061 C 0.78309 0.25741 0.19231 0.0
C4062 C 0.79536 0.24791 0.18627 0.0
C4063 C 0.80847 0.24387 0.19933 0.0
C4064 C 0.8096 0.2496 0.21773 0.0
C4065 C 0.79439 0.24198 0.16654 0.0
C4066 C 0.79509 0.22454 0.16156 0.0
C4067 C 0.79234 0.25309 0.15254 0.0
C4068 C 0.79145 0.27163 0.15631 0.0
C4069 C 0.80584 0.28367 0.16718 0.0
C4070 C 0.80467 0.30109 0.17083 0.0
C4071 C 0.78923 0.30661 0.16357 0.0
C4072 C 0.77494 0.29472 0.1526 0.0
C4073 C 0.77604 0.2773 0.14892 0.0
H4074 H 0.78835 0.32009 0.16643 0.0
H4075 H 0.79203 0.14958 0.12888 0.0
H4076 H 0.0659 0.49992 0.30834 0.0
H4077 H 0.06739 0.51804 0.33638 0.0
H4078 H 0.11468 0.50066 0.35903 0.0
H4079 H 0.11347 0.48248 0.33088 0.0
H4080 H 0.08884 0.50181 0.38237 0.0
H4081 H 0.12355 0.54057 0.34594 0.0
H4082 H 0.13117 0.55608 0.31927 0.0
H4083 H 0.08338 0.57711 0.31922 0.0
H4084 H 0.07552 0.56176 0.34595 0.0
H4085 H 0.08547 0.55914 0.45454 0.0
H4086 H 0.10285 0.55307 0.43033 0.0
H4087 H 0.05823 0.55747 0.39075 0.0
H4088 H 0.04062 0.563 0.41476 0.0
H4089 H 0.09281 0.56564 0.37855 0.0
H4090 H 0.05384 0.5203 0.40812 0.0
H4091 H 0.04437 0.50436 0.43406 0.0
H4092 H 0.09801 0.49468 0.44564 0.0
H4093 H 0.10781 0.51074 0.41984 0.0
C4094 C 0.07632 0.49952 0.31942 0.0
C4095 C 0.08969 0.48991 0.31736 0.0
C4096 C 0.07734 0.51012 0.33529 0.0
C4097 C 0.09157 0.51109 0.34933 0.0
C4098 C 0.10388 0.50028 0.34805 0.0
C4099 C 0.10299 0.48975 0.33209 0.0
C4100 C 0.09314 0.52317 0.3655 0.0
C4101 C 0.09031 0.51587 0.38173 0.0
C4102 C 0.09477 0.54141 0.36442 0.0
C4103 C 0.09891 0.54994 0.34785 0.0
C4104 C 0.11457 0.54834 0.3401 0.0
C4105 C 0.11896 0.55716 0.32501 0.0
C4106 C 0.10771 0.56753 0.31751 0.0
C4107 C 0.09206 0.56907 0.32505 0.0
C4108 C 0.08767 0.56036 0.3402 0.0
C4109 C 0.07973 0.55954 0.44066 0.0
C4110 C 0.06154 0.56091 0.43636 0.0
C4111 C 0.0897 0.5562 0.42692 0.0
C4112 C 0.08154 0.55444 0.40894 0.0
C4113 C 0.06462 0.55874 0.40465 0.0
C4114 C 0.05457 0.5619 0.41837 0.0
C4115 C 0.08801 0.54416 0.39517 0.0
C4116 C 0.0922 0.55174 0.37938 0.0
C4117 C 0.08735 0.52609 0.39652 0.0
C4118 C 0.08165 0.51699 0.41234 0.0
C4119 C 0.06367 0.51497 0.41636 0.0
C4120 C 0.05822 0.50584 0.43097 0.0
C4121 C 0.07061 0.49859 0.44155 0.0
C4122 C 0.08846 0.50039 0.4375 0.0
C4123 C 0.09397 0.50951 0.4229 0.0
H4124 H 0.06635 0.4915 0.45284 0.0
H4125 H 0.11113 0.57445 0.30591 0.0
H4126 H 0.80807 0.87111 0.59282 0.0
H4127 H 0.80917 0.85757 0.62122 0.0
H4128 H 0.753 0.85916 0.62399 0.0
H4129 H 0.75283 0.87473 0.59653 0.0
H4130 H 0.7621 0.85907 0.65507 0.0
H4131 H 0.77793 0.81758 0.61332 0.0
H4132 H 0.79513 0.80701 0.5906 0.0
H4133 H 0.84485 0.82347 0.6277 0.0
H4134 H 0.82795 0.83429 0.65054 0.0
H4135 H 0.75854 0.7849 0.71561 0.0
H4136 H 0.75826 0.79881 0.68693 0.0
H4137 H 0.80555 0.83888 0.70994 0.0
H4138 H 0.80546 0.82547 0.73877 0.0
H4139 H 0.80016 0.81593 0.66626 0.0
H4140 H 0.78138 0.85967 0.70664 0.0
H4141 H 0.76215 0.86133 0.73083 0.0
H4142 H 0.71469 0.83308 0.69486 0.0
H4143 H 0.73378 0.83103 0.67055 0.0
C4144 C 0.79583 0.86853 0.59934 0.0
C4145 C 0.78028 0.87409 0.59168 0.0
C4146 C 0.79631 0.86029 0.61586 0.0
C4147 C 0.78091 0.85604 0.62541 0.0
C4148 C 0.76534 0.86173 0.61765 0.0
C4149 C 0.76514 0.8707 0.60152 0.0
C4150 C 0.7811 0.84624 0.64324 0.0
C4151 C 0.77051 0.84965 0.65701 0.0
C4152 C 0.79164 0.8334 0.64714 0.0
C4153 C 0.80174 0.82687 0.63352 0.0
C4154 C 0.79254 0.81898 0.61657 0.0
C4155 C 0.80223 0.81296 0.60369 0.0
C4156 C 0.82108 0.81461 0.60769 0.0
C4157 C 0.83026 0.82223 0.62461 0.0
C4158 C 0.82064 0.82829 0.63753 0.0
C4159 C 0.7689 0.79672 0.71474 0.0
C4160 C 0.78192 0.80388 0.73015 0.0
C4161 C 0.76879 0.80474 0.69804 0.0
C4162 C 0.78199 0.82011 0.69558 0.0
C4163 C 0.79513 0.82712 0.71088 0.0
C4164 C 0.79498 0.81937 0.72768 0.0
C4165 C 0.78164 0.82922 0.67761 0.0
C4166 C 0.792 0.82554 0.66398 0.0
C4167 C 0.7707 0.84142 0.67363 0.0
C4168 C 0.75891 0.84529 0.68687 0.0
C4169 C 0.76678 0.8541 0.70385 0.0
C4170 C 0.75597 0.85498 0.71759 0.0
C4171 C 0.73727 0.84721 0.7144 0.0
C4172 C 0.72921 0.83903 0.6973 0.0
C4173 C 0.74 0.83805 0.68352 0.0
H4174 H 0.72911 0.84735 0.72527 0.0
H4175 H 0.82856 0.80995 0.59769 0.0
H4176 H 0.77634 0.43714 0.57459 0.0
H4177 H 0.75386 0.45433 0.57928 0.0
H4178 H 0.71347 0.41738 0.54161 0.0
H4179 H 0.73626 0.40047 0.53626 0.0
H4180 H 0.71135 0.44856 0.53528 0.0
H4181 H 0.71395 0.41967 0.5895 0.0
H4182 H 0.72849 0.41023 0.61717 0.0
H4183 H 0.74925 0.4642 0.63851 0.0
H4184 H 0.73508 0.47397 0.61083 0.0
H4185 H 0.63679 0.4823 0.55759 0.0
H4186 H 0.65729 0.46233 0.55635 0.0
H4187 H 0.70187 0.5029 0.58446 0.0
H4188 H 0.68172 0.52324 0.58521 0.0
H4189 H 0.70057 0.46894 0.59638 0.0
H4190 H 0.69935 0.49732 0.54122 0.0
H4191 H 0.68391 0.50659 0.51394 0.0
H4192 H 0.65965 0.45252 0.49489 0.0
H4193 H 0.67473 0.44297 0.52225 0.0
C4194 C 0.76266 0.43263 0.56731 0.0
C4195 C 0.75806 0.41742 0.55505 0.0
C4196 C 0.74976 0.44241 0.57013 0.0
C4197 C 0.73182 0.43697 0.56111 0.0
C4198 C 0.7272 0.4218 0.54881 0.0
C4199 C 0.74021 0.41214 0.54576 0.0
C4200 C 0.71816 0.44754 0.56391 0.0
C4201 C 0.70878 0.45269 0.54866 0.0
C4202 C 0.71506 0.45337 0.58137 0.0
C4203 C 0.72359 0.44754 0.59803 0.0
C4204 C 0.72174 0.42953 0.60004 0.0
C4205 C 0.7299 0.42412 0.61573 0.0
C4206 C 0.73982 0.43661 0.62957 0.0
C4207 C 0.74158 0.45454 0.62777 0.0
C4208 C 0.73347 0.46002 0.61209 0.0
C4209 C 0.65097 0.48706 0.56344 0.0
C4210 C 0.65762 0.50451 0.57129 0.0
C4211 C 0.66261 0.47556 0.56286 0.0
C4212 C 0.68108 0.48122 0.5702 0.0
C4213 C 0.68762 0.4983 0.57878 0.0
C4214 C 0.67603 0.50988 0.57922 0.0
C4215 C 0.69387 0.46974 0.56778 0.0
C4216 C 0.7031 0.46456 0.58306 0.0
C4217 C 0.69679 0.46377 0.55039 0.0
C4218 C 0.688 0.46945 0.53382 0.0
C4219 C 0.69062 0.48743 0.53126 0.0
C4220 C 0.68194 0.49273 0.51579 0.0
C4221 C 0.67076 0.48015 0.5027 0.0
C4222 C 0.66829 0.46225 0.50505 0.0
C4223 C 0.6769 0.45688 0.52053 0.0
H4224 H 0.66405 0.48428 0.49073 0.0
H4225 H 0.74613 0.43239 0.64172 0.0
H4226 H 0.25043 0.14081 0.5125 0.0
H4227 H 0.21888 0.12606 0.51457 0.0
H4228 H 0.23714 0.08296 0.53741 0.0
H4229 H 0.26919 0.09793 0.53558 0.0
H4230 H 0.20478 0.07055 0.51252 0.0
H4231 H 0.2229 0.11429 0.56379 0.0
H4232 H 0.23532 0.1444 0.5785 0.0
H4233 H 0.19312 0.16247 0.54704 0.0
H4234 H 0.18062 0.13251 0.53195 0.0
H4235 H 0.11505 0.0301 0.53284 0.0
H4236 H 0.14762 0.0426 0.53252 0.0
H4237 H 0.137 0.09441 0.5309 0.0
H4238 H 0.10482 0.08197 0.53331 0.0
H4239 H 0.1669 0.10206 0.54574 0.0
H4240 H 0.14988 0.06182 0.49211 0.0
H4241 H 0.13757 0.03337 0.47376 0.0
H4242 H 0.17659 0.01066 0.50444 0.0
H4243 H 0.18898 0.03893 0.52309 0.0
C4244 C 0.24799 0.12811 0.51788 0.0
C4245 C 0.26298 0.12078 0.52374 0.0
C4246 C 0.22961 0.11962 0.51918 0.0
C4247 C 0.22501 0.10322 0.52634 0.0
C4248 C 0.23985 0.09555 0.53181 0.0
C4249 C 0.2584 0.1042 0.53073 0.0
C4250 C 0.20495 0.09448 0.52829 0.0
C4251 C 0.19662 0.07742 0.52002 0.0
C4252 C 0.19353 0.10327 0.53742 0.0
C4253 C 0.20089 0.12119 0.54669 0.0
C4254 C 0.21632 0.1247 0.55996 0.0
C4255 C 0.22338 0.14174 0.56836 0.0
C4256 C 0.21503 0.15534 0.56369 0.0
C4257 C 0.19958 0.15192 0.55064 0.0
C4258 C 0.19249 0.13492 0.54217 0.0
C4259 C 0.11963 0.04419 0.5325 0.0
C4260 C 0.10686 0.05485 0.53314 0.0
C4261 C 0.13856 0.05149 0.53196 0.0
C4262 C 0.14568 0.06978 0.53099 0.0
C4263 C 0.13273 0.08036 0.53164 0.0
C4264 C 0.11396 0.07314 0.53294 0.0
C4265 C 0.16623 0.07796 0.52967 0.0
C4266 C 0.1748 0.09502 0.53812 0.0
C4267 C 0.17769 0.06936 0.52017 0.0
C4268 C 0.17023 0.0524 0.50907 0.0
C4269 C 0.15576 0.05072 0.49498 0.0
C4270 C 0.14878 0.03464 0.48454 0.0
C4271 C 0.15627 0.02021 0.48796 0.0
C4272 C 0.17078 0.02184 0.50182 0.0
C4273 C 0.17779 0.03788 0.51233 0.0
H4274 H 0.15086 0.00778 0.47984 0.0
H4275 H 0.22051 0.16852 0.57022 0.0
H4276 H 0.21281 1.00193 0.79418 0.0
H4277 H 0.21873 0.97389 0.78388 0.0
H4278 H 0.21696 0.9573 0.83759 0.0
H4279 H 0.21043 0.98545 0.84808 0.0
H4280 H 0.25039 0.95753 0.81892 0.0
H4281 H 0.1848 0.93679 0.81067 0.0
H4282 H 0.15318 0.93787 0.79942 0.0
H4283 H 0.16518 0.93481 0.7448 0.0
H4284 H 0.19698 0.93404 0.75575 0.0
H4285 H 0.26406 0.8746 0.80013 0.0
H4286 H 0.24819 0.8968 0.8094 0.0
H4287 H 0.24231 0.91148 0.75483 0.0
H4288 H 0.25798 0.88882 0.74524 0.0
H4289 H 0.21093 0.91115 0.77386 0.0
H4290 H 0.27463 0.93555 0.77909 0.0
H4291 H 0.30742 0.93674 0.78708 0.0
H4292 H 0.30061 0.9364 0.84323 0.0
H4293 H 0.26765 0.93487 0.83549 0.0
C4294 C 0.21367 0.99234 0.80386 0.0
C4295 C 0.21147 0.99587 0.82201 0.0
C4296 C 0.21679 0.97629 0.79786 0.0
C4297 C 0.21798 0.96364 0.80997 0.0
C4298 C 0.2158 0.967 0.82811 0.0
C4299 C 0.21224 0.98301 0.83408 0.0
C4300 C 0.22357 0.94781 0.80387 0.0
C4301 C 0.24164 0.94713 0.80944 0.0
C4302 C 0.21237 0.935 0.79066 0.0
C4303 C 0.19331 0.93555 0.78405 0.0
C4304 C 0.18075 0.93655 0.79627 0.0
C4305 C 0.16279 0.93706 0.78995 0.0
C4306 C 0.15719 0.93646 0.77141 0.0
C4307 C 0.16954 0.93531 0.75915 0.0
C4308 C 0.18753 0.93483 0.76542 0.0
C4309 C 0.25901 0.88224 0.78999 0.0
C4310 C 0.26222 0.8801 0.77199 0.0
C4311 C 0.25001 0.89489 0.79532 0.0
C4312 C 0.24426 0.90567 0.78277 0.0
C4313 C 0.24668 0.90312 0.7646 0.0
C4314 C 0.25575 0.89041 0.75923 0.0
C4315 C 0.23759 0.92074 0.78926 0.0
C4316 C 0.21952 0.9214 0.78359 0.0
C4317 C 0.24893 0.93395 0.80193 0.0
C4318 C 0.26868 0.93484 0.8067 0.0
C4319 C 0.2801 0.93552 0.79312 0.0
C4320 C 0.29871 0.9363 0.7976 0.0
C4321 C 0.30609 0.93658 0.81565 0.0
C4322 C 0.29486 0.93613 0.82925 0.0
C4323 C 0.27622 0.93531 0.82483 0.0
H4324 H 0.32052 0.9372 0.8191 0.0
H4325 H 0.14326 0.93685 0.76654 0.0
H4326 H 0.33955 0.93661 0.04474 0.0
H4327 H 0.36996 0.95622 0.0504 0.0
H4328 H 0.39326 0.91438 0.03054 0.0
H4329 H 0.36287 0.8945 0.0251 0.0
H4330 H 0.41352 0.93227 0.06147 0.0
H4331 H 0.38682 0.94625 0.00421 0.0
H4332 H 0.36265 0.95444 0.98385 0.0
H4333 H 0.36923 1.00267 0.01744 0.0
H4334 H 0.39328 0.9946 0.03813 0.0
H4335 H 0.49173 0.97662 0.02487 0.0
H4336 H 0.46125 0.96021 0.02912 0.0
H4337 H 0.45605 1.00288 0.06608 0.0
H4338 H 0.48713 0.01917 0.06241 0.0
H4339 H 0.42643 0.98744 0.03122 0.0
H4340 H 0.45664 0.97451 0.08651 0.0
H4341 H 0.48149 0.9659 0.10546 0.0
H4342 H 0.4689 0.91543 0.07471 0.0
H4343 H 0.44423 0.9239 0.05528 0.0
C4344 C 0.35109 0.93157 0.04143 0.0
C4345 C 0.34874 0.91399 0.03431 0.0
C4346 C 0.36848 0.9428 0.04474 0.0
C4347 C 0.38384 0.93676 0.04084 0.0
C4348 C 0.38157 0.91926 0.03372 0.0
C4349 C 0.36418 0.90798 0.03046 0.0
C4350 C 0.40221 0.94884 0.04368 0.0
C4351 C 0.41634 0.94431 0.05484 0.0
C4352 C 0.4058 0.96475 0.03537 0.0
C4353 C 0.39168 0.96977 0.02277 0.0
C4354 C 0.38303 0.95856 0.00728 0.0
C4355 C 0.36937 0.96317 0.99569 0.0
C4356 C 0.36438 0.97905 0.99937 0.0
C4357 C 0.3731 0.99037 0.01462 0.0
C4358 C 0.38675 0.98579 0.02627 0.0
C4359 C 0.48417 0.98237 0.0341 0.0
C4360 C 0.49161 0.99907 0.04335 0.0
C4361 C 0.46684 0.97302 0.03651 0.0
C4362 C 0.45654 0.98039 0.04789 0.0
C4363 C 0.46395 0.99703 0.05731 0.0
C4364 C 0.48161 1.00623 0.05528 0.0
C4365 C 0.43766 0.97079 0.04889 0.0
C4366 C 0.42346 0.97564 0.03825 0.0
C4367 C 0.43406 0.95517 0.05759 0.0
C4368 C 0.4487 0.9499 0.06934 0.0
C4369 C 0.45929 0.96164 0.08367 0.0
C4370 C 0.47333 0.95678 0.09451 0.0
C4371 C 0.47679 0.94014 0.09127 0.0
C4372 C 0.46621 0.92832 0.07719 0.0
C4373 C 0.45219 0.93314 0.06626 0.0
H4374 H 0.48766 0.93639 0.09969 0.0
H4375 H 0.35378 0.9826 0.99039 0.0
H4376 H 0.95194 0.63326 0.78944 0.0
H4377 H 0.9314 0.65201 0.78019 0.0
H4378 H 0.89567 0.63024 0.81816 0.0
H4379 H 0.91574 0.61061 0.82646 0.0
H4380 H 0.8785 0.62557 0.78524 0.0
H4381 H 0.92131 0.6759 0.82121 0.0
H4382 H 0.95241 0.69483 0.82913 0.0
H4383 H 0.95261 0.70774 0.77425 0.0
H4384 H 0.92158 0.68877 0.766 0.0
H4385 H 0.81247 0.67249 0.78518 0.0
H4386 H 0.83899 0.66028 0.79191 0.0
H4387 H 0.86413 0.6869 0.74934 0.0
H4388 H 0.83785 0.70022 0.74322 0.0
H4389 H 0.88854 0.68961 0.77904 0.0
H4390 H 0.84658 0.64305 0.74281 0.0
H4391 H 0.81689 0.62265 0.73174 0.0
H4392 H 0.81649 0.60094 0.78295 0.0
H4393 H 0.84605 0.62139 0.79443 0.0
C4394 C 0.94011 0.63315 0.79635 0.0
C4395 C 0.93539 0.62091 0.80883 0.0
C4396 C 0.92839 0.64382 0.79107 0.0
C4397 C 0.91209 0.64258 0.79859 0.0
C4398 C 0.90825 0.63138 0.81226 0.0
C4399 C 0.91973 0.62037 0.81717 0.0
C4400 C 0.89777 0.65075 0.79039 0.0
C4401 C 0.88061 0.63962 0.7842 0.0
C4402 C 0.90097 0.66883 0.78776 0.0
C4403 C 0.91918 0.68092 0.793 0.0
C4404 C 0.92799 0.68281 0.81085 0.0
C4405 C 0.94561 0.69352 0.81539 0.0
C4406 C 0.95448 0.70248 0.8022 0.0
C4407 C 0.94571 0.70083 0.78447 0.0
C4408 C 0.9281 0.69014 0.77986 0.0
C4409 C 0.82364 0.67582 0.77727 0.0
C4410 C 0.8231 0.68728 0.76368 0.0
C4411 C 0.83871 0.66872 0.78101 0.0
C4412 C 0.85332 0.67248 0.7709 0.0
C4413 C 0.85287 0.68379 0.75717 0.0
C4414 C 0.8378 0.69116 0.75356 0.0
C4415 C 0.86899 0.66454 0.77509 0.0
C4416 C 0.88645 0.67557 0.78016 0.0
C4417 C 0.86624 0.64624 0.77634 0.0
C4418 C 0.84851 0.63379 0.76949 0.0
C4419 C 0.84011 0.63399 0.75174 0.0
C4420 C 0.82331 0.62241 0.7454 0.0
C4421 C 0.8148 0.61051 0.75664 0.0
C4422 C 0.8231 0.61015 0.77425 0.0
C4423 C 0.8399 0.62171 0.78068 0.0
H4424 H 0.80179 0.60156 0.7517 0.0
H4425 H 0.96815 0.71071 0.80572 0.0
H4426 H 0.88659 0.64177 0.03365 0.0
H4427 H 0.91412 0.63027 0.03466 0.0
H4428 H 0.88773 0.58592 0.06073 0.0
H4429 H 0.86076 0.5984 0.06111 0.0
H4430 H 0.91877 0.58809 0.07302 0.0
H4431 H 0.90123 0.59 0.00906 0.0
H4432 H 0.89375 0.60393 0.9814 0.0
H4433 H 0.946 0.64074 0.99171 0.0
H4434 H 0.95368 0.62714 0.01951 0.0
H4435 H 0.98343 0.53521 0.05375 0.0
H4436 H 0.95679 0.54834 0.05364 0.0
H4437 H 0.98983 0.59803 0.04334 0.0
H4438 H 0.01663 0.58503 0.04385 0.0
H4439 H 0.95646 0.5934 0.023 0.0
H4440 H 0.97456 0.59029 0.08544 0.0
H4441 H 0.9825 0.57645 0.11297 0.0
H4442 H 0.92916 0.54145 0.10502 0.0
H4443 H 0.92101 0.55492 0.07726 0.0
C4444 C 0.88648 0.62952 0.0396 0.0
C4445 C 0.87081 0.62121 0.04716 0.0
C4446 C 0.90251 0.62259 0.03994 0.0
C4447 C 0.90372 0.60644 0.04718 0.0
C4448 C 0.88799 0.59823 0.05487 0.0
C4449 C 0.87217 0.60545 0.055 0.0
C4450 C 0.92104 0.59833 0.04715 0.0
C4451 C 0.92656 0.58911 0.06173 0.0
C4452 C 0.93251 0.59958 0.03307 0.0
C4453 C 0.92794 0.60767 0.0164 0.0
C4454 C 0.91107 0.60111 0.00543 0.0
C4455 C 0.9068 0.60894 0.98975 0.0
C4456 C 0.91937 0.62323 0.98482 0.0
C4457 C 0.93626 0.62969 0.99555 0.0
C4458 C 0.94059 0.62192 0.01126 0.0
C4459 C 0.98522 0.54897 0.05149 0.0
C4460 C 1.00276 0.5588 0.04886 0.0
C4461 C 0.96971 0.55663 0.05149 0.0
C4462 C 0.97064 0.57454 0.04858 0.0
C4463 C 0.9881 0.58429 0.04564 0.0
C4464 C 1.00371 0.57672 0.046 0.0
C4465 C 0.95371 0.58296 0.0486 0.0
C4466 C 0.9484 0.59228 0.03411 0.0
C4467 C 0.94238 0.58169 0.06266 0.0
C4468 C 0.94726 0.57346 0.07918 0.0
C4469 C 0.96459 0.57953 0.08947 0.0
C4470 C 0.96912 0.57177 0.10513 0.0
C4471 C 0.95636 0.55804 0.11071 0.0
C4472 C 0.93904 0.55206 0.10066 0.0
C4473 C 0.93446 0.55974 0.08496 0.0
H4474 H 0.95988 0.55207 0.12286 0.0
H4475 H 0.91604 0.62928 0.97268 0.0
H4476 H 0.23405 0.08171 0.81995 0.0
H4477 H 0.24788 0.11029 0.81072 0.0
H4478 H 0.22219 0.13567 0.84995 0.0
H4479 H 0.20736 0.10685 0.85851 0.0
H4480 H 0.21656 0.14731 0.81801 0.0
H4481 H 0.26989 0.13734 0.85514 0.0
H4482 H 0.29159 0.11909 0.8639 0.0
H4483 H 0.30668 0.1182 0.81035 0.0
H4484 H 0.28492 0.13626 0.80125 0.0
H4485 H 0.26252 0.23469 0.81179 0.0
H4486 H 0.25019 0.20587 0.82165 0.0
H4487 H 0.27869 0.18192 0.78395 0.0
H4488 H 0.29193 0.21093 0.77484 0.0
H4489 H 0.28266 0.1691 0.8142 0.0
H4490 H 0.23134 0.17914 0.77647 0.0
H4491 H 0.20912 0.19614 0.76566 0.0
H4492 H 0.18923 0.19548 0.81709 0.0
H4493 H 0.21156 0.17874 0.82831 0.0
C4494 C 0.23181 0.0934 0.82701 0.0
C4495 C 0.21982 0.09217 0.84006 0.0
C4496 C 0.23966 0.10972 0.82168 0.0
C4497 C 0.23619 0.12507 0.8298 0.0
C4498 C 0.22499 0.12393 0.84354 0.0
C4499 C 0.21673 0.10755 0.84855 0.0
C4500 C 0.24343 0.14222 0.82327 0.0
C4501 C 0.23104 0.15224 0.81744 0.0
C4502 C 0.26218 0.14822 0.82181 0.0
C4503 C 0.2758 0.13808 0.82754 0.0
C4504 C 0.27787 0.13325 0.84527 0.0
C4505 C 0.29015 0.12292 0.85027 0.0
C4506 C 0.30051 0.11748 0.83769 0.0
C4507 C 0.29868 0.12243 0.82009 0.0
C4508 C 0.28641 0.13274 0.81501 0.0
C4509 C 0.26611 0.22324 0.80563 0.0
C4510 C 0.27813 0.22487 0.79263 0.0
C4511 C 0.25897 0.20681 0.81115 0.0
C4512 C 0.26327 0.19177 0.80327 0.0
C4513 C 0.27522 0.1934 0.79017 0.0
C4514 C 0.28275 0.20991 0.78499 0.0
C4515 C 0.25585 0.17438 0.80919 0.0
C4516 C 0.26817 0.16425 0.81481 0.0
C4517 C 0.23699 0.16818 0.81016 0.0
C4518 C 0.22321 0.17781 0.80327 0.0
C4519 C 0.22228 0.18269 0.7855 0.0
C4520 C 0.20967 0.19229 0.7793 0.0
C4521 C 0.19779 0.19693 0.7907 0.0
C4522 C 0.19845 0.1919 0.80828 0.0
C4523 C 0.21106 0.18234 0.81456 0.0
H4524 H 0.18807 0.20439 0.78589 0.0
H4525 H 0.30996 0.10944 0.84157 0.0
H4526 H 0.43214 0.03647 0.28638 0.0
H4527 H 0.41383 0.00683 0.27704 0.0
H4528 H 0.45612 0.98524 0.30455 0.0
H4529 H 0.47518 0.01524 0.31282 0.0
H4530 H 0.44134 0.96609 0.27349 0.0
H4531 H 0.41701 0.99005 0.32434 0.0
H4532 H 0.40512 0.01292 0.34004 0.0
H4533 H 0.36152 0.00707 0.29622 0.0
H4534 H 0.37328 0.9843 0.28022 0.0
H4535 H 0.38904 0.88521 0.29417 0.0
H4536 H 0.40901 0.91372 0.29123 0.0
H4537 H 0.3633 0.93033 0.26345 0.0
H4538 H 0.34315 0.90192 0.26696 0.0
H4539 H 0.37886 0.95245 0.29109 0.0
H4540 H 0.40065 0.92572 0.24196 0.0
H4541 H 0.41218 0.90268 0.2262 0.0
H4542 H 0.45992 0.91322 0.26602 0.0
H4543 H 0.44853 0.93616 0.28216 0.0
C4544 C 0.43744 0.02536 0.29052 0.0
C4545 C 0.45471 0.02789 0.30072 0.0
C4546 C 0.42702 0.00849 0.28517 0.0
C4547 C 0.43341 0.9939 0.29056 0.0
C4548 C 0.45093 0.99639 0.30039 0.0
C4549 C 0.46168 0.01339 0.30527 0.0
C4550 C 0.42138 0.97616 0.28653 0.0
C4551 C 0.42775 0.963 0.27748 0.0
C4552 C 0.40343 0.97237 0.29118 0.0
C4553 C 0.39604 0.98558 0.3011 0.0
C4554 C 0.40489 0.99367 0.31809 0.0
C4555 C 0.39819 0.00662 0.32702 0.0
C4556 C 0.38258 0.01146 0.31913 0.0
C4557 C 0.37359 1.00331 0.30233 0.0
C4558 C 0.38024 0.99036 0.29334 0.0
C4559 C 0.38342 0.89479 0.28699 0.0
C4560 C 0.36466 0.89158 0.28087 0.0
C4561 C 0.39482 0.91102 0.28523 0.0
C4562 C 0.38763 0.92406 0.27701 0.0
C4563 C 0.36907 0.9204 0.26984 0.0
C4564 C 0.35762 0.90426 0.27184 0.0
C4565 C 0.39887 0.94217 0.27826 0.0
C4566 C 0.39236 0.95548 0.28685 0.0
C4567 C 0.41662 0.94603 0.27317 0.0
C4568 C 0.42372 0.9326 0.26327 0.0
C4569 C 0.41358 0.92308 0.24737 0.0
C4570 C 0.42008 0.91003 0.23838 0.0
C4571 C 0.43677 0.90648 0.2451 0.0
C4572 C 0.44701 0.916 0.26081 0.0
C4573 C 0.44056 0.92904 0.26987 0.0
H4574 H 0.44177 0.89635 0.23814 0.0
H4575 H 0.37744 0.02152 0.32605 0.0
H4576 H 0.59863 0.39567 0.64875 0.0
H4577 H 0.59133 0.4215 0.63555 0.0
H4578 H 0.55218 0.38738 0.59434 0.0
H4579 H 0.56031 0.36162 0.60705 0.0
H4580 H 0.57293 0.41278 0.58002 0.0
H4581 H 0.53997 0.4101 0.63237 0.0
H4582 H 0.53784 0.40945 0.66496 0.0
H4583 H 0.57707 0.45908 0.67595 0.0
H4584 H 0.57963 0.45988 0.64347 0.0
H4585 H 0.5292 0.47943 0.548 0.0
H4586 H 0.53319 0.45293 0.56261 0.0
H4587 H 0.58029 0.48412 0.59765 0.0
H4588 H 0.57669 0.51024 0.58287 0.0
H4589 H 0.55458 0.46042 0.61512 0.0
H4590 H 0.59077 0.46368 0.56718 0.0
H4591 H 0.5976 0.46632 0.53597 0.0
H4592 H 0.55776 0.41808 0.51815 0.0
H4593 H 0.55044 0.41535 0.54928 0.0
C4594 C 0.58837 0.39383 0.63698 0.0
C4595 C 0.57982 0.37695 0.62886 0.0
C4596 C 0.58414 0.40849 0.62952 0.0
C4597 C 0.57096 0.40629 0.61419 0.0
C4598 C 0.56232 0.3893 0.60623 0.0
C4599 C 0.56684 0.37467 0.61347 0.0
C4600 C 0.56671 0.42169 0.60593 0.0
C4601 C 0.5685 0.42299 0.5876 0.0
C4602 C 0.56181 0.43539 0.61607 0.0
C4603 C 0.56004 0.43499 0.63553 0.0
C4604 C 0.54819 0.42082 0.64176 0.0
C4605 C 0.54691 0.42043 0.66021 0.0
C4606 C 0.55732 0.43421 0.67252 0.0
C4607 C 0.56901 0.44842 0.66641 0.0
C4608 C 0.57037 0.44885 0.64799 0.0
C4609 C 0.54023 0.48049 0.55894 0.0
C4610 C 0.55274 0.49658 0.56436 0.0
C4611 C 0.54252 0.4655 0.56717 0.0
C4612 C 0.55704 0.46678 0.58108 0.0
C4613 C 0.56903 0.48302 0.58694 0.0
C4614 C 0.56701 0.49782 0.57848 0.0
C4615 C 0.56029 0.4511 0.58923 0.0
C4616 C 0.55856 0.44993 0.60751 0.0
C4617 C 0.56572 0.43776 0.57922 0.0
C4618 C 0.56981 0.43948 0.56046 0.0
C4619 C 0.58325 0.45378 0.55655 0.0
C4620 C 0.58727 0.45526 0.5389 0.0
C4621 C 0.57805 0.44242 0.52506 0.0
C4622 C 0.56483 0.42806 0.52887 0.0
C4623 C 0.56073 0.42654 0.54651 0.0
H4624 H 0.58121 0.44356 0.5114 0.0
H4625 H 0.55631 0.43387 0.6868 0.0
H4626 H 0.47246 0.76075 0.34383 0.0
H4627 H 0.44341 0.76684 0.33216 0.0
H4628 H 0.415 0.72672 0.36223 0.0
H4629 H 0.4443 0.72058 0.37435 0.0
H4630 H 0.39996 0.72569 0.32528 0.0
H4631 H 0.41689 0.76605 0.37813 0.0
H4632 H 0.43614 0.78915 0.40047 0.0
H4633 H 0.44346 0.82492 0.35935 0.0
H4634 H 0.42425 0.80191 0.33671 0.0
H4635 H 0.3179 0.74999 0.3018 0.0
H4636 H 0.34401 0.74442 0.32069 0.0
H4637 H 0.37976 0.7873 0.29977 0.0
H4638 H 0.35325 0.7935 0.2813 0.0
H4639 H 0.38941 0.78578 0.33509 0.0
H4640 H 0.3736 0.74427 0.28172 0.0
H4641 H 0.3522 0.72168 0.2602 0.0
H4642 H 0.34207 0.6881 0.3028 0.0
H4643 H 0.36324 0.71061 0.32462 0.0
C4644 C 0.46007 0.75305 0.34787 0.0
C4645 C 0.46063 0.74013 0.35997 0.0
C4646 C 0.44353 0.75669 0.34132 0.0
C4647 C 0.42727 0.74742 0.34665 0.0
C4648 C 0.42757 0.73407 0.35819 0.0
C4649 C 0.44423 0.73052 0.36497 0.0
C4650 C 0.41 0.7515 0.3395 0.0
C4651 C 0.39742 0.7387 0.32768 0.0
C4652 C 0.40707 0.7686 0.34241 0.0
C4653 C 0.4193 0.78221 0.35572 0.0
C4654 C 0.42281 0.77877 0.37381 0.0
C4655 C 0.43366 0.79188 0.38655 0.0
C4656 C 0.44111 0.80851 0.38133 0.0
C4657 C 0.43771 0.81203 0.36336 0.0
C4658 C 0.42682 0.79897 0.35058 0.0
C4659 C 0.33135 0.75829 0.30132 0.0
C4660 C 0.33387 0.77186 0.28987 0.0
C4661 C 0.34617 0.75509 0.31208 0.0
C4662 C 0.36375 0.7651 0.31111 0.0
C4663 C 0.36621 0.77934 0.30044 0.0
C4664 C 0.35121 0.78283 0.28991 0.0
C4665 C 0.37959 0.76011 0.3206 0.0
C4666 C 0.39188 0.77273 0.33281 0.0
C4667 C 0.38227 0.74285 0.318 0.0
C4668 C 0.36992 0.72914 0.3048 0.0
C4669 C 0.36677 0.73209 0.28649 0.0
C4670 C 0.35467 0.71931 0.27425 0.0
C4671 C 0.34577 0.70347 0.28013 0.0
C4672 C 0.34898 0.70037 0.29827 0.0
C4673 C 0.36104 0.71312 0.31057 0.0
H4674 H 0.3364 0.6936 0.27064 0.0
H4675 H 0.44944 0.81871 0.3912 0.0
H4676 H 0.09944 0.78802 0.13407 0.0
H4677 H 0.09684 0.75683 0.12595 0.0
H4678 H 0.03953 0.74567 0.13249 0.0
H4679 H 0.04259 0.77698 0.14206 0.0
H4680 H 0.05475 0.72143 0.14573 0.0
H4681 H 0.05333 0.74705 0.08964 0.0
H4682 H 0.06393 0.76966 0.06938 0.0
H4683 H 0.11611 0.75614 0.07301 0.0
H4684 H 0.10589 0.73362 0.09349 0.0
H4685 H 0.04934 0.63673 0.09578 0.0
H4686 H 0.04374 0.66502 0.10642 0.0
H4687 H 0.10176 0.68807 0.11353 0.0
H4688 H 0.10755 0.65983 0.10338 0.0
H4689 H 0.07992 0.70479 0.09055 0.0
H4690 H 0.08175 0.68122 0.149 0.0
H4691 H 0.07135 0.65955 0.17025 0.0
H4692 H 0.01746 0.66918 0.16169 0.0
H4693 H 0.02748 0.69069 0.14013 0.0
C4694 C 0.08627 0.77888 0.13352 0.0
C4695 C 0.07107 0.78465 0.13811 0.0
C4696 C 0.08477 0.76114 0.12892 0.0
C4697 C 0.06783 0.7491 0.12806 0.0
C4698 C 0.05263 0.75486 0.13289 0.0
C4699 C 0.05432 0.77261 0.13815 0.0
C4700 C 0.06628 0.73053 0.12208 0.0
C4701 C 0.05986 0.71769 0.13346 0.0
C4702 C 0.07296 0.72576 0.10609 0.0
C4703 C 0.07883 0.73865 0.09306 0.0
C4704 C 0.06705 0.74889 0.08608 0.0
C4705 C 0.07301 0.76171 0.07459 0.0
C4706 C 0.09068 0.76433 0.0699 0.0
C4707 C 0.10241 0.75407 0.07662 0.0
C4708 C 0.09652 0.74124 0.08812 0.0
C4709 C 0.06092 0.64772 0.10007 0.0
C4710 C 0.07889 0.6462 0.09864 0.0
C4711 C 0.05768 0.6638 0.10606 0.0
C4712 C 0.07236 0.67844 0.11061 0.0
C4713 C 0.09032 0.67679 0.10994 0.0
C4714 C 0.09358 0.66075 0.10408 0.0
C4715 C 0.06912 0.69592 0.11457 0.0
C4716 C 0.07446 0.70849 0.10263 0.0
C4717 C 0.06127 0.70032 0.1299 0.0
C4718 C 0.05529 0.68737 0.14279 0.0
C4719 C 0.06763 0.67856 0.15149 0.0
C4720 C 0.06182 0.66634 0.16362 0.0
C4721 C 0.04374 0.66294 0.16727 0.0
C4722 C 0.03144 0.67178 0.15882 0.0
C4723 C 0.03718 0.68399 0.14665 0.0
H4724 H 0.03927 0.65349 0.17669 0.0
H4725 H 0.09529 0.77431 0.06106 0.0
H4726 H 0.07462 0.24003 0.89632 0.0
H4727 H 0.10458 0.24863 0.88589 0.0
H4728 H 0.0781 0.25745 0.83406 0.0
H4729 H 0.04824 0.24742 0.84408 0.0
H4730 H 0.09991 0.23844 0.82892 0.0
H4731 H 0.10576 0.29157 0.86917 0.0
H4732 H 0.10641 0.3078 0.89871 0.0
H4733 H 0.15052 0.2862 0.92131 0.0
H4734 H 0.14996 0.26967 0.89197 0.0
H4735 H 0.17044 0.28077 0.7859 0.0
H4736 H 0.14512 0.27703 0.80364 0.0
H4737 H 0.17801 0.26035 0.84712 0.0
H4738 H 0.20387 0.26485 0.82975 0.0
H4739 H 0.15544 0.28153 0.85913 0.0
H4740 H 0.15052 0.22965 0.81963 0.0
H4741 H 0.1505 0.21296 0.79054 0.0
H4742 H 0.10464 0.23171 0.7672 0.0
H4743 H 0.10458 0.24874 0.7961 0.0
C4744 C 0.07538 0.24408 0.88281 0.0
C4745 C 0.0594 0.24315 0.87089 0.0
C4746 C 0.09244 0.24911 0.8769 0.0
C4747 C 0.09363 0.25389 0.85924 0.0
C4748 C 0.07753 0.25376 0.84771 0.0
C4749 C 0.06052 0.24812 0.8534 0.0
C4750 C 0.11127 0.25735 0.85196 0.0
C4751 C 0.1119 0.24812 0.83545 0.0
C4752 C 0.1273 0.26922 0.86091 0.0
C4753 C 0.12769 0.27927 0.87845 0.0
C4754 C 0.11551 0.29021 0.88048 0.0
C4755 C 0.11588 0.29947 0.89718 0.0
C4756 C 0.12846 0.298 0.91189 0.0
C4757 C 0.14076 0.28731 0.90992 0.0
C4758 C 0.14043 0.27801 0.89326 0.0
C4759 C 0.1725 0.27675 0.79941 0.0
C4760 C 0.18911 0.27298 0.80638 0.0
C4761 C 0.15798 0.27451 0.80947 0.0
C4762 C 0.15972 0.2682 0.82652 0.0
C4763 C 0.17648 0.26519 0.83393 0.0
C4764 C 0.19111 0.26756 0.82391 0.0
C4765 C 0.14348 0.26337 0.83577 0.0
C4766 C 0.14329 0.27202 0.85269 0.0
C4767 C 0.12779 0.25093 0.82728 0.0
C4768 C 0.12765 0.24056 0.80996 0.0
C4769 C 0.14051 0.2303 0.80825 0.0
C4770 C 0.14051 0.22077 0.79181 0.0
C4771 C 0.1276 0.2213 0.77702 0.0
C4772 C 0.11464 0.23132 0.77866 0.0
C4773 C 0.11461 0.2409 0.79507 0.0
H4774 H 0.12762 0.21391 0.76429 0.0
H4775 H 0.12871 0.30517 0.92481 0.0
H4776 H 0.57133 0.70978 0.92748 0.0
H4777 H 0.56906 0.68119 0.93962 0.0
H4778 H 0.5478 0.70028 0.98589 0.0
H4779 H 0.55139 0.72932 0.97418 0.0
H4780 H 0.56184 0.67898 0.99965 0.0
H4781 H 0.52372 0.66351 0.9422 0.0
H4782 H 0.51591 0.66146 0.90906 0.0
H4783 H 0.55888 0.63483 0.90243 0.0
H4784 H 0.56705 0.63689 0.93551 0.0
H4785 H 0.53593 0.5925 0.03219 0.0
H4786 H 0.53746 0.62066 0.01941 0.0
H4787 H 0.56174 0.60234 0.97493 0.0
H4788 H 0.55914 0.57367 0.98729 0.0
H4789 H 0.546 0.62303 0.96023 0.0
H4790 H 0.58369 0.63885 0.01844 0.0
H4791 H 0.59003 0.64025 0.05167 0.0
H4792 H 0.54599 0.66583 0.05673 0.0
H4793 H 0.5393 0.66442 0.02354 0.0
C4794 C 0.56609 0.70803 0.94025 0.0
C4795 C 0.56153 0.72259 0.94947 0.0
C4796 C 0.56447 0.69112 0.94731 0.0
C4797 C 0.55757 0.68716 0.96392 0.0
C4798 C 0.55312 0.70189 0.97315 0.0
C4799 C 0.55512 0.71893 0.96626 0.0
C4800 C 0.55541 0.6684 0.97178 0.0
C4801 C 0.55809 0.66691 0.99071 0.0
C4802 C 0.55088 0.65164 0.9611 0.0
C4803 C 0.54611 0.65053 0.94128 0.0
C4804 C 0.53156 0.65732 0.93365 0.0
C4805 C 0.52706 0.65614 0.91489 0.0
C4806 C 0.53693 0.64807 0.90365 0.0
C4807 C 0.55128 0.64112 0.91114 0.0
C4808 C 0.55584 0.64228 0.92989 0.0
C4809 C 0.54161 0.59424 0.01963 0.0
C4810 C 0.54734 0.57999 0.01115 0.0
C4811 C 0.54282 0.61094 0.01224 0.0
C4812 C 0.55041 0.61501 0.996 0.0
C4813 C 0.55589 0.60059 0.98738 0.0
C4814 C 0.55439 0.58375 0.99464 0.0
C4815 C 0.55243 0.63369 0.98804 0.0
C4816 C 0.54974 0.63514 0.96911 0.0
C4817 C 0.5568 0.65041 0.99871 0.0
C4818 C 0.56092 0.6514 0.01857 0.0
C4819 C 0.57535 0.64472 0.02667 0.0
C4820 C 0.57899 0.64552 0.04548 0.0
C4821 C 0.56839 0.65309 0.05631 0.0
C4822 C 0.55417 0.65995 0.04834 0.0
C4823 C 0.55046 0.65918 0.02954 0.0
H4824 H 0.57122 0.65367 0.07087 0.0
H4825 H 0.53342 0.64717 0.88913 0.0
H4826 H 0.07621 0.76727 0.70276 0.0
H4827 H 0.10644 0.76509 0.71677 0.0
H4828 H 0.13176 0.80734 0.68738 0.0
H4829 H 0.10162 0.80884 0.67269 0.0
H4830 H 0.15307 0.78821 0.68748 0.0
H4831 H 0.1281 0.80762 0.73899 0.0
H4832 H 0.10584 0.80681 0.76066 0.0
H4833 H 0.11244 0.75583 0.7739 0.0
H4834 H 0.13457 0.75627 0.75213 0.0
H4835 H 0.24251 0.80595 0.73978 0.0
H4836 H 0.21146 0.80692 0.72707 0.0
H4837 H 0.1903 0.75695 0.74662 0.0
H4838 H 0.22154 0.75577 0.75916 0.0
H4839 H 0.1671 0.77898 0.75195 0.0
H4840 H 0.19327 0.7608 0.70111 0.0
H4841 H 0.21626 0.76256 0.68012 0.0
H4842 H 0.20789 0.81285 0.6664 0.0
H4843 H 0.18505 0.8115 0.68754 0.0
C4844 C 0.08815 0.77633 0.69941 0.0
C4845 C 0.08594 0.78843 0.68653 0.0
C4846 C 0.10576 0.77514 0.70763 0.0
C4847 C 0.12216 0.78625 0.70376 0.0
C4848 C 0.11986 0.79842 0.69098 0.0
C4849 C 0.10231 0.79942 0.68256 0.0
C4850 C 0.14151 0.785 0.71235 0.0
C4851 C 0.15594 0.78651 0.7017 0.0
C4852 C 0.1461 0.78224 0.73085 0.0
C4853 C 0.13277 0.78189 0.74381 0.0
C4854 C 0.12468 0.79619 0.74644 0.0
C4855 C 0.11211 0.7958 0.75875 0.0
C4856 C 0.10768 0.78125 0.76861 0.0
C4857 C 0.11585 0.76707 0.76622 0.0
C4858 C 0.1284 0.76738 0.75391 0.0
C4859 C 0.23135 0.79509 0.74148 0.0
C4860 C 0.23502 0.78076 0.75069 0.0
C4861 C 0.21334 0.79563 0.73402 0.0
C4862 C 0.19797 0.78197 0.73552 0.0
C4863 C 0.20154 0.76778 0.74504 0.0
C4864 C 0.21964 0.76709 0.75227 0.0
C4865 C 0.17846 0.78249 0.72711 0.0
C4866 C 0.16409 0.78079 0.73777 0.0
C4867 C 0.17395 0.78526 0.70868 0.0
C4868 C 0.18764 0.78614 0.69603 0.0
C4869 C 0.19647 0.7723 0.69373 0.0
C4870 C 0.20944 0.77321 0.68179 0.0
C4871 C 0.21358 0.78784 0.67197 0.0
C4872 C 0.20471 0.80155 0.67404 0.0
C4873 C 0.19175 0.80072 0.68599 0.0
H4874 H 0.22363 0.78852 0.66273 0.0
H4875 H 0.09794 0.78098 0.77814 0.0
H4876 H 0.07033 0.34417 0.45587 0.0
H4877 H 0.07066 0.37421 0.46834 0.0
H4878 H 0.01227 0.35974 0.46668 0.0
H4879 H 0.01199 0.32952 0.45488 0.0
H4880 H 0.02395 0.39449 0.45417 0.0
H4881 H 0.0409 0.36631 0.50712 0.0
H4882 H 0.06017 0.35044 0.52524 0.0
H4883 H 0.10743 0.39219 0.52342 0.0
H4884 H 0.08845 0.40818 0.50505 0.0
H4885 H 0.01391 0.47546 0.49983 0.0
H4886 H 0.01354 0.44555 0.48801 0.0
H4887 H 0.06889 0.45179 0.51357 0.0
H4888 H 0.0686 0.48132 0.52657 0.0
H4889 H 0.0594 0.42079 0.51314 0.0
H4890 H 0.04772 0.44847 0.46037 0.0
H4891 H 0.03293 0.46545 0.43909 0.0
H4892 H 0.98198 0.42716 0.43605 0.0
H4893 H 0.99644 0.41008 0.45751 0.0
C4894 C 0.05746 0.34715 0.45822 0.0
C4895 C 0.04114 0.3336 0.4542 0.0
C4896 C 0.05766 0.3647 0.46551 0.0
C4897 C 0.0415 0.37012 0.46884 0.0
C4898 C 0.02516 0.35666 0.46452 0.0
C4899 C 0.02502 0.33899 0.45771 0.0
C4900 C 0.0416 0.38937 0.47674 0.0
C4901 C 0.03154 0.39999 0.46723 0.0
C4902 C 0.05201 0.39781 0.49343 0.0
C4903 C 0.06331 0.38833 0.5046 0.0
C4904 C 0.05543 0.37203 0.51049 0.0
C4905 C 0.06629 0.36303 0.52081 0.0
C4906 C 0.08502 0.37027 0.52544 0.0
C4907 C 0.09292 0.38657 0.5198 0.0
C4908 C 0.08212 0.39561 0.50945 0.0
C4909 C 0.02615 0.47065 0.50298 0.0
C4910 C 0.04133 0.48165 0.51435 0.0
C4911 C 0.02607 0.45314 0.49581 0.0
C4912 C 0.04142 0.44542 0.49888 0.0
C4913 C 0.05659 0.45647 0.51039 0.0
C4914 C 0.0565 0.47385 0.51794 0.0
C4915 C 0.04157 0.42618 0.49066 0.0
C4916 C 0.05171 0.41548 0.50009 0.0
C4917 C 0.03186 0.41794 0.47347 0.0
C4918 C 0.02308 0.42814 0.4607 0.0
C4919 C 0.03333 0.44375 0.45525 0.0
C4920 C 0.02501 0.45338 0.44316 0.0
C4921 C 1.00651 0.44742 0.43628 0.0
C4922 C 0.9963 0.43179 0.44144 0.0
C4923 C 1.00454 0.42212 0.45356 0.0
H4924 H 1.00009 0.45489 0.42691 0.0
H4925 H 0.09342 0.36327 0.53343 0.0
H4926 H 0.47617 0.23909 0.19628 0.0
H4927 H 0.44817 0.24052 0.2095 0.0
H4928 H 0.45712 0.29558 0.2019 0.0
H4929 H 0.48476 0.29402 0.18798 0.0
H4930 H 0.44556 0.28904 0.23658 0.0
H4931 H 0.42325 0.26664 0.17543 0.0
H4932 H 0.41895 0.24656 0.1477 0.0
H4933 H 0.39506 0.20308 0.17602 0.0
H4934 H 0.39951 0.22288 0.20402 0.0
H4935 H 0.35881 0.29968 0.2616 0.0
H4936 H 0.38662 0.29929 0.24816 0.0
H4937 H 0.36816 0.24319 0.23529 0.0
H4938 H 0.33964 0.24392 0.24755 0.0
H4939 H 0.38542 0.25072 0.2109 0.0
H4940 H 0.40889 0.27213 0.27263 0.0
H4941 H 0.41368 0.29175 0.30081 0.0
H4942 H 0.43605 0.33602 0.27278 0.0
H4943 H 0.43118 0.31669 0.2444 0.0
C4944 C 0.4723 0.25159 0.19731 0.0
C4945 C 0.48329 0.2664 0.19074 0.0
C4946 C 0.45598 0.2524 0.20497 0.0
C4947 C 0.44984 0.26819 0.207 0.0
C4948 C 0.46101 0.28309 0.20078 0.0
C4949 C 0.47705 0.28217 0.19265 0.0
C4950 C 0.43199 0.26906 0.21534 0.0
C4951 C 0.43243 0.28071 0.23074 0.0
C4952 C 0.4144 0.25814 0.20853 0.0
C4953 C 0.41195 0.24618 0.19186 0.0
C4954 C 0.41728 0.25275 0.17579 0.0
C4955 C 0.41477 0.24144 0.16002 0.0
C4956 C 0.4068 0.22354 0.16011 0.0
C4957 C 0.40129 0.21693 0.17598 0.0
C4958 C 0.4038 0.22819 0.19181 0.0
C4959 C 0.36061 0.28714 0.25607 0.0
C4960 C 0.34649 0.27181 0.25613 0.0
C4961 C 0.377 0.28686 0.24838 0.0
C4962 C 0.38073 0.27109 0.24079 0.0
C4963 C 0.36649 0.25576 0.24084 0.0
C4964 C 0.34988 0.25613 0.24812 0.0
C4965 C 0.39882 0.27056 0.2325 0.0
C4966 C 0.39848 0.25898 0.21699 0.0
C4967 C 0.41657 0.2814 0.23941 0.0
C4968 C 0.41949 0.29301 0.25639 0.0
C4969 C 0.41473 0.28607 0.27248 0.0
C4970 C 0.41747 0.29713 0.28848 0.0
C4971 C 0.42511 0.31513 0.28857 0.0
C4972 C 0.43009 0.32209 0.27268 0.0
C4973 C 0.42735 0.31109 0.25664 0.0
H4974 H 0.42722 0.32367 0.30097 0.0
H4975 H 0.40484 0.2148 0.14787 0.0
H4976 H 0.66541 0.52074 0.3984 0.0
H4977 H 0.64712 0.51724 0.42342 0.0
H4978 H 0.62057 0.55756 0.40517 0.0
H4979 H 0.6388 0.5613 0.3804 0.0
H4980 H 0.62892 0.56031 0.44194 0.0
H4981 H 0.60008 0.51592 0.39301 0.0
H4982 H 0.59952 0.49129 0.3705 0.0
H4983 H 0.61297 0.46022 0.41304 0.0
H4984 H 0.61388 0.4848 0.43577 0.0
H4985 H 0.55142 0.5453 0.48435 0.0
H4986 H 0.56738 0.54414 0.4578 0.0
H4987 H 0.59498 0.50662 0.48129 0.0
H4988 H 0.5791 0.50789 0.50786 0.0
H4989 H 0.58672 0.50186 0.44267 0.0
H4990 H 0.61415 0.54633 0.49181 0.0
H4991 H 0.61349 0.5708 0.51399 0.0
H4992 H 0.60243 0.60212 0.47089 0.0
H4993 H 0.60258 0.57764 0.44844 0.0
C4994 C 0.65579 0.52895 0.39985 0.0
C4995 C 0.65332 0.5411 0.38736 0.0
C4996 C 0.64541 0.52695 0.41409 0.0
C4997 C 0.63245 0.53704 0.41588 0.0
C4998 C 0.63053 0.54968 0.40391 0.0
C4999 C 0.64085 0.55168 0.38971 0.0
C5000 C 0.61995 0.53369 0.42946 0.0
C5001 C 0.61961 0.54759 0.44206 0.0
C5002 C 0.60802 0.51702 0.42962 0.0
C5003 C 0.60723 0.50221 0.41603 0.0
C5004 C 0.60303 0.50386 0.39753 0.0
C5005 C 0.60264 0.48992 0.38474 0.0
C5006 C 0.60626 0.47421 0.39033 0.0
C5007 C 0.61021 0.4724 0.40873 0.0
C5008 C 0.61066 0.48633 0.42156 0.0
C5009 C 0.56015 0.53613 0.48329 0.0
C5010 C 0.56402 0.52646 0.49772 0.0
C5011 C 0.56933 0.53559 0.46831 0.0
C5012 C 0.58241 0.52546 0.46789 0.0
C5013 C 0.58484 0.51443 0.4815 0.0
C5014 C 0.57577 0.51508 0.49654 0.0
C5015 C 0.59556 0.5285 0.45495 0.0
C5016 C 0.59607 0.51456 0.44257 0.0
C5017 C 0.60763 0.54515 0.45498 0.0
C5018 C 0.60813 0.56007 0.46845 0.0
C5019 C 0.61143 0.55838 0.48706 0.0
C5020 C 0.61115 0.57226 0.49968 0.0
C5021 C 0.60786 0.58799 0.49385 0.0
C5022 C 0.60493 0.58991 0.47538 0.0
C5023 C 0.60509 0.57604 0.46271 0.0
H5024 H 0.60762 0.59871 0.50364 0.0
H5025 H 0.60595 0.46343 0.38041 0.0
H5026 H 0.28639 0.82648 0.07112 0.0
H5027 H 0.28695 0.8167 0.10183 0.0
H5028 H 0.31429 0.86939 0.12429 0.0
H5029 H 0.31347 0.87917 0.09402 0.0
H5030 H 0.32913 0.84482 0.14126 0.0
H5031 H 0.27135 0.85739 0.12582 0.0
H5032 H 0.24176 0.85611 0.1075 0.0
H5033 H 0.22501 0.80074 0.11277 0.0
H5034 H 0.2547 0.80163 0.13085 0.0
H5035 H 0.30977 0.83299 0.23312 0.0
H5036 H 0.31168 0.84486 0.20351 0.0
H5037 H 0.28479 0.7936 0.17685 0.0
H5038 H 0.28288 0.78178 0.20593 0.0
H5039 H 0.27015 0.81949 0.16275 0.0
H5040 H 0.33043 0.80884 0.17935 0.0
H5041 H 0.35991 0.81292 0.19889 0.0
H5042 H 0.37163 0.86836 0.19303 0.0
H5043 H 0.34206 0.86464 0.17368 0.0
C5044 C 0.2927 0.83585 0.08262 0.0
C5045 C 0.29978 0.85358 0.08017 0.0
C5046 C 0.29296 0.83031 0.10014 0.0
C5047 C 0.30063 0.84236 0.1154 0.0
C5048 C 0.30836 0.85986 0.11281 0.0
C5049 C 0.30777 0.86542 0.09546 0.0
C5050 C 0.29988 0.83708 0.13413 0.0
C5051 C 0.31622 0.83937 0.14599 0.0
C5052 C 0.28308 0.83022 0.14046 0.0
C5053 C 0.26532 0.82952 0.12945 0.0
C5054 C 0.26144 0.84489 0.12288 0.0
C5055 C 0.24464 0.84425 0.11258 0.0
C5056 C 0.23153 0.82834 0.10892 0.0
C5057 C 0.2352 0.81304 0.11557 0.0
C5058 C 0.25201 0.8136 0.12584 0.0
C5059 C 0.30427 0.8243 0.22092 0.0
C5060 C 0.29634 0.80639 0.22195 0.0
C5061 C 0.30542 0.83107 0.20402 0.0
C5062 C 0.29844 0.82008 0.18791 0.0
C5063 C 0.29028 0.80234 0.18902 0.0
C5064 C 0.28932 0.79558 0.20575 0.0
C5065 C 0.29943 0.82672 0.16975 0.0
C5066 C 0.28308 0.82483 0.15801 0.0
C5067 C 0.31621 0.83428 0.16368 0.0
C5068 C 0.33396 0.83649 0.17526 0.0
C5069 C 0.33922 0.82192 0.18237 0.0
C5070 C 0.35596 0.82417 0.19338 0.0
C5071 C 0.36762 0.8409 0.19725 0.0
C5072 C 0.36257 0.85542 0.19006 0.0
C5073 C 0.34583 0.85325 0.17907 0.0
H5074 H 0.38058 0.8426 0.20576 0.0
H5075 H 0.21851 0.82787 0.10097 0.0
H5076 H 0.01745 0.60358 0.87116 0.0
H5077 H 0.02365 0.59319 0.90104 0.0
H5078 H 0.98632 0.54315 0.88269 0.0
H5079 H 0.97951 0.55384 0.85331 0.0
H5080 H 0.98551 0.55174 0.91785 0.0
H5081 H 0.03123 0.54822 0.87885 0.0
H5082 H 0.05382 0.55993 0.85885 0.0
H5083 H 0.08401 0.59788 0.90197 0.0
H5084 H 0.06147 0.58648 0.92214 0.0
H5085 H 0.02858 0.51051 0.98774 0.0
H5086 H 0.01728 0.51561 0.95702 0.0
H5087 H 0.05034 0.56882 0.96547 0.0
H5088 H 0.06209 0.56376 0.99566 0.0
H5089 H 0.05162 0.55384 0.93318 0.0
H5090 H 1.00475 0.55869 0.97171 0.0
H5091 H 0.98202 0.5472 0.99166 0.0
H5092 H 0.95404 0.50674 0.94991 0.0
H5093 H 0.97676 0.51788 0.92981 0.0
C5094 C 1.01018 0.59065 0.87387 0.0
C5095 C 0.99802 0.57945 0.86033 0.0
C5096 C 0.01374 0.58468 0.89075 0.0
C5097 C 1.00565 0.56731 0.89381 0.0
C5098 C 0.99262 0.55658 0.88055 0.0
C5099 C 0.98879 0.56266 0.86387 0.0
C5100 C 0.01236 0.55964 0.90986 0.0
C5101 C 0.99993 0.55203 0.92118 0.0
C5102 C 0.03109 0.55983 0.91395 0.0
C5103 C 0.04466 0.56659 0.90191 0.0
C5104 C 0.04265 0.55911 0.884 0.0
C5105 C 0.05544 0.56568 0.87266 0.0
C5106 C 0.07033 0.57966 0.87913 0.0
C5107 C 0.07248 0.58706 0.89697 0.0
C5108 C 0.05973 0.58054 0.90837 0.0
C5109 C 0.03381 0.52312 0.98284 0.0
C5110 C 0.04616 0.53678 0.99408 0.0
C5111 C 0.02717 0.52605 0.96542 0.0
C5112 C 0.03279 0.54265 0.95926 0.0
C5113 C 0.04585 0.55592 0.9701 0.0
C5114 C 0.05256 0.55299 0.98734 0.0
C5115 C 0.02496 0.54676 0.94169 0.0
C5116 C 0.03716 0.55343 0.92985 0.0
C5117 C 1.00605 0.54571 0.93724 0.0
C5118 C 0.99255 0.53897 0.94937 0.0
C5119 C 0.99384 0.54725 0.96686 0.0
C5120 C 0.98094 0.54082 0.97818 0.0
C5121 C 0.96662 0.52622 0.97207 0.0
C5122 C 0.96516 0.51802 0.95463 0.0
C5123 C 0.97803 0.52439 0.94328 0.0
H5124 H 0.95663 0.52128 0.98084 0.0
H5125 H 0.08022 0.58473 0.87032 0.0
H5126 H 0.34452 0.18165 0.59199 0.0
H5127 H 0.34247 0.19633 0.62124 0.0
H5128 H 0.2907 0.20622 0.5997 0.0
H5129 H 0.29387 0.19315 0.56997 0.0
H5130 H 0.30053 0.23002 0.62213 0.0
H5131 H 0.30296 0.17133 0.63451 0.0
H5132 H 0.31536 0.14477 0.63557 0.0
H5133 H 0.36464 0.17484 0.66762 0.0
H5134 H 0.3526 0.2016 0.66654 0.0
H5135 H 0.27509 0.24714 0.71139 0.0
H5136 H 0.27814 0.2339 0.68153 0.0
H5137 H 0.33562 0.23925 0.69825 0.0
H5138 H 0.33265 0.25256 0.72801 0.0
H5139 H 0.32263 0.20792 0.679 0.0
H5140 H 0.31682 0.26637 0.66728 0.0
H5141 H 0.3015 0.29106 0.66706 0.0
H5142 H 0.25423 0.25814 0.63431 0.0
H5143 H 0.26919 0.23319 0.63459 0.0
C5144 C 0.33275 0.18711 0.59335 0.0
C5145 C 0.31949 0.1861 0.57808 0.0
C5146 C 0.33131 0.19535 0.61053 0.0
C5147 C 0.31598 0.20222 0.61381 0.0
C5148 C 0.30281 0.20131 0.59838 0.0
C5149 C 0.30462 0.19367 0.58104 0.0
C5150 C 0.31369 0.21041 0.63282 0.0
C5151 C 0.30518 0.22474 0.63437 0.0
C5152 C 0.31974 0.20442 0.64965 0.0
C5153 C 0.32699 0.18844 0.65026 0.0
C5154 C 0.31648 0.17226 0.64168 0.0
C5155 C 0.32344 0.15719 0.6423 0.0
C5156 C 0.3408 0.15812 0.65161 0.0
C5157 C 0.35122 0.17413 0.66037 0.0
C5158 C 0.34434 0.18925 0.65977 0.0
C5159 C 0.28846 0.24561 0.70881 0.0
C5160 C 0.30359 0.25123 0.72261 0.0
C5161 C 0.29025 0.23799 0.69144 0.0
C5162 C 0.30724 0.23546 0.68692 0.0
C5163 C 0.32227 0.24085 0.70081 0.0
C5164 C 0.32054 0.24864 0.71808 0.0
C5165 C 0.3094 0.22721 0.66807 0.0
C5166 C 0.31793 0.21298 0.66663 0.0
C5167 C 0.30291 0.23294 0.65136 0.0
C5168 C 0.29403 0.24792 0.65111 0.0
C5169 C 0.30311 0.26439 0.66014 0.0
C5170 C 0.2945 0.27842 0.65999 0.0
C5171 C 0.27688 0.27616 0.65071 0.0
C5172 C 0.26786 0.25987 0.64152 0.0
C5173 C 0.27639 0.24578 0.64167 0.0
H5174 H 0.27024 0.28704 0.65062 0.0
H5175 H 0.34617 0.14644 0.65207 0.0
H5176 H 0.63686 0.52119 0.29909 0.0
H5177 H 0.61965 0.51841 0.26882 0.0
H5178 H 0.66928 0.54126 0.24757 0.0
H5179 H 0.6866 0.54395 0.27763 0.0
H5180 H 0.64003 0.55691 0.23808 0.0
H5181 H 0.6537 0.50044 0.23817 0.0
H5182 H 0.65529 0.47224 0.25028 0.0
H5183 H 0.59671 0.45779 0.24648 0.0
H5184 H 0.5948 0.48611 0.23468 0.0
H5185 H 0.61071 0.5404 0.14532 0.0
H5186 H 0.62704 0.53694 0.17449 0.0
H5187 H 0.57563 0.51906 0.19471 0.0
H5188 H 0.55911 0.52257 0.1654 0.0
H5189 H 0.60521 0.50022 0.20468 0.0
H5190 H 0.59252 0.55796 0.20428 0.0
H5191 H 0.59224 0.58602 0.19128 0.0
H5192 H 0.65083 0.59802 0.19502 0.0
H5193 H 0.6514 0.56978 0.20764 0.0
C5194 C 0.64409 0.52549 0.28793 0.0
C5195 C 0.66303 0.53275 0.29063 0.0
C5196 C 0.63429 0.52386 0.27072 0.0
C5197 C 0.64332 0.52959 0.25614 0.0
C5198 C 0.6622 0.53676 0.25877 0.0
C5199 C 0.67203 0.5382 0.27589 0.0
C5200 C 0.63295 0.5287 0.23819 0.0
C5201 C 0.63256 0.54452 0.23068 0.0
C5202 C 0.62307 0.51253 0.22883 0.0
C5203 C 0.62412 0.49547 0.23578 0.0
C5204 C 0.64117 0.49133 0.2401 0.0
C5205 C 0.64213 0.47531 0.24688 0.0
C5206 C 0.62611 0.46325 0.24921 0.0
C5207 C 0.6091 0.46716 0.24471 0.0
C5208 C 0.60807 0.4832 0.23798 0.0
C5209 C 0.60291 0.53537 0.15588 0.0
C5210 C 0.58373 0.53177 0.15332 0.0
C5211 C 0.61222 0.53343 0.17245 0.0
C5212 C 0.60243 0.52784 0.18656 0.0
C5213 C 0.58327 0.52336 0.18381 0.0
C5214 C 0.57392 0.52548 0.16724 0.0
C5215 C 0.6123 0.52841 0.20466 0.0
C5216 C 0.61261 0.51258 0.21216 0.0
C5217 C 0.62226 0.54458 0.21399 0.0
C5218 C 0.62198 0.56167 0.20669 0.0
C5219 C 0.60532 0.5665 0.20215 0.0
C5220 C 0.60511 0.58244 0.19487 0.0
C5221 C 0.6215 0.59378 0.19227 0.0
C5222 C 0.63814 0.5892 0.197 0.0
C5223 C 0.63842 0.57323 0.2042 0.0
H5224 H 0.62131 0.60613 0.18664 0.0
H5225 H 0.62688 0.45084 0.25446 0.0
H5226 H 0.26865 0.84206 0.96896 0.0
H5227 H 0.26578 0.83145 0.93679 0.0
H5228 H 0.32339 0.83298 0.94256 0.0
H5229 H 0.32621 0.84276 0.97477 0.0
H5230 H 0.2981 0.85145 0.90966 0.0
H5231 H 0.31377 0.79996 0.937 0.0
H5232 H 0.3088 0.77726 0.95838 0.0
H5233 H 0.25252 0.75993 0.93481 0.0
H5234 H 0.2571 0.78289 0.91359 0.0
H5235 H 0.31379 0.81619 0.82538 0.0
H5236 H 0.31491 0.82538 0.85723 0.0
H5237 H 0.26354 0.7884 0.85851 0.0
H5238 H 0.26286 0.77843 0.82658 0.0
H5239 H 0.28389 0.78793 0.88822 0.0
H5240 H 0.26912 0.83573 0.85753 0.0
H5241 H 0.2731 0.85849 0.83612 0.0
H5242 H 0.32585 0.88328 0.86538 0.0
H5243 H 0.3223 0.86049 0.88679 0.0
C5244 C 0.28066 0.83995 0.96342 0.0
C5245 C 0.29762 0.84308 0.97455 0.0
C5246 C 0.27901 0.83392 0.94502 0.0
C5247 C 0.29434 0.83126 0.93725 0.0
C5248 C 0.31132 0.83469 0.94825 0.0
C5249 C 0.31289 0.84025 0.96671 0.0
C5250 C 0.29272 0.82512 0.91763 0.0
C5251 C 0.29516 0.83757 0.90496 0.0
C5252 C 0.28844 0.80705 0.91136 0.0
C5253 C 0.28568 0.79332 0.92402 0.0
C5254 C 0.30027 0.7915 0.9366 0.0
C5255 C 0.29754 0.77855 0.94863 0.0
C5256 C 0.28033 0.76721 0.94802 0.0
C5257 C 0.26582 0.76877 0.93533 0.0
C5258 C 0.26847 0.78177 0.92332 0.0
C5259 C 0.30262 0.81002 0.83234 0.0
C5260 C 0.28809 0.79667 0.82323 0.0
C5261 C 0.30324 0.81541 0.85067 0.0
C5262 C 0.28908 0.80801 0.86042 0.0
C5263 C 0.27463 0.79449 0.85141 0.0
C5264 C 0.27418 0.78883 0.83307 0.0
C5265 C 0.28957 0.81427 0.87999 0.0
C5266 C 0.2868 0.80184 0.89274 0.0
C5267 C 0.29351 0.83243 0.88629 0.0
C5268 C 0.29548 0.84636 0.87369 0.0
C5269 C 0.28159 0.846 0.85936 0.0
C5270 C 0.28377 0.8589 0.84721 0.0
C5271 C 0.29972 0.87232 0.84938 0.0
C5272 C 0.3135 0.87288 0.86372 0.0
C5273 C 0.31141 0.85999 0.87587 0.0
H5274 H 0.30139 0.88228 0.83996 0.0
H5275 H 0.27825 0.75716 0.95733 0.0
H5276 H 0.96288 0.58362 0.74525 0.0
H5277 H 0.96769 0.56571 0.7192 0.0
H5278 H 0.02318 0.5692 0.74332 0.0
H5279 H 0.01865 0.5873 0.76924 0.0
H5280 H 0.02091 0.56939 0.70827 0.0
H5281 H 0.98824 0.53532 0.75005 0.0
H5282 H 0.96325 0.5264 0.76828 0.0
H5283 H 0.92447 0.51263 0.71999 0.0
H5284 H 0.94921 0.52182 0.70147 0.0
H5285 H 0.04302 0.50325 0.66345 0.0
H5286 H 0.03032 0.51062 0.69049 0.0
H5287 H 0.98172 0.51664 0.65775 0.0
H5288 H 0.994 0.50854 0.63058 0.0
H5289 H 0.97905 0.50988 0.69748 0.0
H5290 H 0.01252 0.55083 0.65768 0.0
H5291 H 0.03831 0.55994 0.64033 0.0
H5292 H 0.0764 0.5592 0.68741 0.0
H5293 H 0.05078 0.55014 0.70498 0.0
C5294 C 0.97635 0.58119 0.74467 0.0
C5295 C 0.99027 0.58647 0.75947 0.0
C5296 C 0.97894 0.57072 0.72993 0.0
C5297 C 0.99549 0.5656 0.72985 0.0
C5298 C 1.01017 0.57279 0.74342 0.0
C5299 C 1.00763 0.58331 0.75813 0.0
C5300 C 0.99738 0.55209 0.71617 0.0
C5301 C 0.01183 0.55636 0.70608 0.0
C5302 C 0.9854 0.53511 0.71328 0.0
C5303 C 0.97053 0.52953 0.72439 0.0
C5304 C 0.97435 0.53059 0.74333 0.0
C5305 C 0.96023 0.5255 0.75372 0.0
C5306 C 0.94225 0.5191 0.74532 0.0
C5307 C 0.93839 0.51768 0.72649 0.0
C5308 C 0.95245 0.52285 0.71604 0.0
C5309 C 0.02914 0.50497 0.662 0.0
C5310 C 0.01969 0.50591 0.64493 0.0
C5311 C 0.02188 0.50915 0.6775 0.0
C5312 C 1.00538 0.51456 0.67593 0.0
C5313 C 0.99453 0.51254 0.65912 0.0
C5314 C 1.00166 0.50812 0.64362 0.0
C5315 C 1.00267 0.52728 0.68995 0.0
C5316 C 0.98806 0.52292 0.69988 0.0
C5317 C 0.01456 0.54419 0.69299 0.0
C5318 C 0.02985 0.54967 0.6825 0.0
C5319 C 0.02641 0.55255 0.66425 0.0
C5320 C 0.04097 0.55772 0.65441 0.0
C5321 C 0.05898 0.56005 0.66273 0.0
C5322 C 0.06246 0.55734 0.68096 0.0
C5323 C 0.04794 0.55224 0.69087 0.0
H5324 H 0.07023 0.56402 0.65508 0.0
H5325 H 0.93134 0.51513 0.7534 0.0
H5326 H 0.33498 0.19421 0.46613 0.0
H5327 H 0.33441 0.20699 0.43689 0.0
H5328 H 0.27743 0.20626 0.43673 0.0
H5329 H 0.27813 0.1941 0.46625 0.0
H5330 H 0.28463 0.19369 0.40201 0.0
H5331 H 0.30948 0.2448 0.44452 0.0
H5332 H 0.33158 0.26282 0.46918 0.0
H5333 H 0.37533 0.2622 0.43762 0.0
H5334 H 0.35351 0.24393 0.41287 0.0
H5335 H 0.27232 0.23854 0.3227 0.0
H5336 H 0.27339 0.2276 0.35244 0.0
H5337 H 0.3314 0.25029 0.36283 0.0
H5338 H 0.32979 0.2628 0.33357 0.0
H5339 H 0.32435 0.25107 0.39296 0.0
H5340 H 0.30335 0.19938 0.35203 0.0
H5341 H 0.28391 0.17942 0.3269 0.0
H5342 H 0.23688 0.1779 0.35429 0.0
H5343 H 0.25602 0.19802 0.37948 0.0
C5344 C 0.32228 0.19683 0.46003 0.0
C5345 C 0.30663 0.19296 0.46912 0.0
C5346 C 0.32196 0.20426 0.44306 0.0
C5347 C 0.30586 0.20787 0.43398 0.0
C5348 C 0.29017 0.2038 0.44295 0.0
C5349 C 0.2906 0.1968 0.46012 0.0
C5350 C 0.30528 0.21564 0.41534 0.0
C5351 C 0.29322 0.20637 0.40021 0.0
C5352 C 0.3168 0.23191 0.41207 0.0
C5353 C 0.32989 0.24285 0.42693 0.0
C5354 C 0.32384 0.24837 0.44291 0.0
C5355 C 0.33631 0.25865 0.45689 0.0
C5356 C 0.35486 0.26361 0.45499 0.0
C5357 C 0.36096 0.25832 0.43909 0.0
C5358 C 0.34855 0.24801 0.42508 0.0
C5359 C 0.28541 0.24119 0.3312 0.0
C5360 C 0.30099 0.25154 0.32509 0.0
C5361 C 0.28613 0.23457 0.34851 0.0
C5362 C 0.30267 0.23708 0.36056 0.0
C5363 C 0.31826 0.24764 0.35444 0.0
C5364 C 0.3174 0.25484 0.33733 0.0
C5365 C 0.30362 0.22912 0.37929 0.0
C5366 C 0.31575 0.23835 0.39453 0.0
C5367 C 0.29259 0.21247 0.38254 0.0
C5368 C 0.28108 0.20031 0.36753 0.0
C5369 C 0.28885 0.19483 0.35264 0.0
C5370 C 0.27789 0.1835 0.3384 0.0
C5371 C 0.25916 0.17743 0.33898 0.0
C5372 C 0.25138 0.18263 0.35385 0.0
C5373 C 0.26227 0.19399 0.36811 0.0
H5374 H 0.2507 0.16866 0.32794 0.0
H5375 H 0.36449 0.27159 0.46582 0.0
H5376 H 0.34715 0.67135 0.516 0.0
H5377 H 0.37256 0.65679 0.51528 0.0
H5378 H 0.33439 0.60611 0.51076 0.0
H5379 H 0.3094 0.62078 0.51326 0.0
H5380 H 0.36002 0.60393 0.53246 0.0
H5381 H 0.35947 0.6266 0.47431 0.0
H5382 H 0.36029 0.6493 0.45287 0.0
H5383 H 0.41317 0.67728 0.47954 0.0
H5384 H 0.41254 0.65487 0.50129 0.0
H5385 H 0.42085 0.55221 0.51093 0.0
H5386 H 0.39665 0.56815 0.50754 0.0
H5387 H 0.43625 0.61716 0.52393 0.0
H5388 H 0.46079 0.60137 0.52646 0.0
H5389 H 0.41087 0.62043 0.49611 0.0
H5390 H 0.41013 0.59625 0.55401 0.0
H5391 H 0.40885 0.57207 0.57371 0.0
H5392 H 0.35679 0.54498 0.54451 0.0
H5393 H 0.35791 0.5689 0.52448 0.0
C5394 C 0.34428 0.6571 0.51468 0.0
C5395 C 0.3264 0.64714 0.51464 0.0
C5396 C 0.35877 0.64874 0.51412 0.0
C5397 C 0.3555 0.63024 0.51265 0.0
C5398 C 0.33743 0.62036 0.512 0.0
C5399 C 0.3231 0.62873 0.5133 0.0
C5400 C 0.37083 0.62107 0.5129 0.0
C5401 C 0.37089 0.60742 0.52419 0.0
C5402 C 0.38546 0.62575 0.50259 0.0
C5403 C 0.38588 0.63916 0.48949 0.0
C5404 C 0.37122 0.63766 0.47566 0.0
C5405 C 0.37165 0.65046 0.46345 0.0
C5406 C 0.38675 0.66474 0.46487 0.0
C5407 C 0.40147 0.66623 0.47847 0.0
C5408 C 0.40109 0.65348 0.49073 0.0
C5409 C 0.42453 0.56641 0.51351 0.0
C5410 C 0.44282 0.57548 0.51905 0.0
C5411 C 0.41061 0.57549 0.51173 0.0
C5412 C 0.41461 0.59381 0.51576 0.0
C5413 C 0.43286 0.603 0.52084 0.0
C5414 C 0.44684 0.59393 0.52249 0.0
C5415 C 0.39965 0.60327 0.51531 0.0
C5416 C 0.3998 0.61698 0.50416 0.0
C5417 C 0.38499 0.59845 0.52546 0.0
C5418 C 0.38416 0.58429 0.53772 0.0
C5419 C 0.39845 0.5851 0.55177 0.0
C5420 C 0.39776 0.57144 0.56299 0.0
C5421 C 0.38276 0.55699 0.56036 0.0
C5422 C 0.3684 0.55618 0.54654 0.0
C5423 C 0.36905 0.56978 0.53526 0.0
H5424 H 0.38225 0.54643 0.56906 0.0
H5425 H 0.38707 0.67464 0.4554 0.0
H5426 H 0.8473 0.91492 0.5377 0.0
H5427 H 0.87836 0.93108 0.53584 0.0
H5428 H 0.86194 0.98002 0.54255 0.0
H5429 H 0.83034 0.96365 0.54464 0.0
H5430 H 0.88595 0.98236 0.51682 0.0
H5431 H 0.88915 0.96509 0.57692 0.0
H5432 H 0.88519 0.94478 0.60072 0.0
H5433 H 0.91941 0.91502 0.57728 0.0
H5434 H 0.92334 0.93501 0.55316 0.0
H5435 H 0.9801 0.0354 0.53844 0.0
H5436 H 0.94817 0.02034 0.54011 0.0
H5437 H 0.95998 0.9707 0.52436 0.0
H5438 H 0.99173 0.98585 0.52185 0.0
H5439 H 0.93848 0.96928 0.55505 0.0
H5440 H 0.93489 0.98474 0.49506 0.0
H5441 H 0.93924 1.00396 0.47039 0.0
H5442 H 0.90615 0.03577 0.49254 0.0
H5443 H 0.90187 0.01688 0.51756 0.0
C5444 C 0.85002 0.92915 0.53885 0.0
C5445 C 0.83563 0.93764 0.54137 0.0
C5446 C 0.86819 0.93854 0.53785 0.0
C5447 C 0.87327 0.95711 0.53916 0.0
C5448 C 0.85894 0.96578 0.54147 0.0
C5449 C 0.84062 0.9563 0.54276 0.0
C5450 C 0.8933 0.96707 0.53812 0.0
C5451 C 0.89728 0.97963 0.52551 0.0
C5452 C 0.9088 0.96354 0.54878 0.0
C5453 C 0.90638 0.95143 0.56315 0.0
C5454 C 0.89569 0.95412 0.57675 0.0
C5455 C 0.89348 0.94268 0.59031 0.0
C5456 C 0.902 0.92859 0.59049 0.0
C5457 C 0.91279 0.92592 0.57711 0.0
C5458 C 0.91502 0.9373 0.5635 0.0
C5459 C 0.97597 0.02129 0.53512 0.0
C5460 C 0.98894 0.01211 0.5298 0.0
C5461 C 0.95748 0.01256 0.53613 0.0
C5462 C 0.95107 0.99409 0.53246 0.0
C5463 C 0.96408 0.98485 0.52737 0.0
C5464 C 0.98244 0.99366 0.5258 0.0
C5465 C 0.93104 0.9846 0.53388 0.0
C5466 C 0.9271 0.9721 0.54649 0.0
C5467 C 0.91561 0.98806 0.52313 0.0
C5468 C 0.91828 0.99957 0.50831 0.0
C5469 C 0.92873 0.99597 0.4948 0.0
C5470 C 0.93115 0.00677 0.48073 0.0
C5471 C 0.92303 0.02112 0.47993 0.0
C5472 C 0.91247 0.02468 0.4932 0.0
C5473 C 0.91005 0.01393 0.50734 0.0
H5474 H 0.92489 0.02945 0.469 0.0
H5475 H 0.90029 0.91976 0.60101 0.0
H5476 H 0.89223 0.05793 0.25051 0.0
H5477 H 0.88749 0.08604 0.26278 0.0
H5478 H 0.84399 0.08326 0.21916 0.0
H5479 H 0.84878 0.05533 0.20666 0.0
H5480 H 0.86823 0.11568 0.22508 0.0
H5481 H 0.83555 0.07213 0.26153 0.0
H5482 H 0.83473 0.04911 0.2826 0.0
H5483 H 0.87465 0.08505 0.32107 0.0
H5484 H 0.87587 0.10819 0.30009 0.0
H5485 H 0.8087 0.16633 0.24585 0.0
H5486 H 0.82473 0.14353 0.23903 0.0
H5487 H 0.85764 0.15631 0.29138 0.0
H5488 H 0.84118 0.17905 0.29844 0.0
H5489 H 0.84681 0.1224 0.28475 0.0
H5490 H 0.87642 0.16722 0.25267 0.0
H5491 H 0.88009 0.1913 0.23281 0.0
H5492 H 0.85074 0.15533 0.18778 0.0
H5493 H 0.84661 0.13108 0.20744 0.0
C5494 C 0.88162 0.06329 0.24356 0.0
C5495 C 0.8708 0.05442 0.22764 0.0
C5496 C 0.87895 0.07932 0.2506 0.0
C5497 C 0.86536 0.08661 0.24189 0.0
C5498 C 0.85459 0.07781 0.22602 0.0
C5499 C 0.85726 0.06182 0.21896 0.0
C5500 C 0.86209 0.10338 0.2492 0.0
C5501 C 0.86347 0.11718 0.23809 0.0
C5502 C 0.85694 0.10562 0.26659 0.0
C5503 C 0.85593 0.09178 0.2792 0.0
C5504 C 0.84422 0.07506 0.27444 0.0
C5505 C 0.84368 0.06201 0.28637 0.0
C5506 C 0.85467 0.0656 0.30315 0.0
C5507 C 0.86618 0.08227 0.30806 0.0
C5508 C 0.86679 0.09536 0.29617 0.0
C5509 C 0.81948 0.1644 0.25583 0.0
C5510 C 0.82384 0.17448 0.27261 0.0
C5511 C 0.82869 0.15143 0.2519 0.0
C5512 C 0.84268 0.14852 0.26453 0.0
C5513 C 0.84699 0.15847 0.2814 0.0
C5514 C 0.83759 0.17138 0.28543 0.0
C5515 C 0.85198 0.13441 0.26019 0.0
C5516 C 0.8519 0.12114 0.27188 0.0
C5517 C 0.85877 0.13283 0.24349 0.0
C5518 C 0.86116 0.14734 0.23156 0.0
C5519 C 0.87064 0.16447 0.23856 0.0
C5520 C 0.87281 0.17815 0.22733 0.0
C5521 C 0.86564 0.17485 0.20905 0.0
C5522 C 0.85629 0.15786 0.20195 0.0
C5523 C 0.85405 0.14413 0.21312 0.0
H5524 H 0.86735 0.18546 0.20037 0.0
H5525 H 0.85424 0.05547 0.31236 0.0
H5526 H 0.74306 0.12584 0.02218 0.0
H5527 H 0.7141 0.10469 0.02247 0.0
H5528 H 0.68474 0.14308 0.00437 0.0
H5529 H 0.71368 0.16448 0.00438 0.0
H5530 H 0.67122 0.12901 0.03193 0.0
H5531 H 0.68577 0.10665 0.97648 0.0
H5532 H 0.70392 0.09539 0.95518 0.0
H5533 H 0.7068 0.05199 0.98679 0.0
H5534 H 0.68891 0.06317 0.00842 0.0
H5535 H 0.58384 0.07184 0.0093 0.0
H5536 H 0.61348 0.09084 0.00703 0.0
H5537 H 0.64037 0.05578 0.03594 0.0
H5538 H 0.61049 0.03653 0.03845 0.0
H5539 H 0.65509 0.06755 1.00342 0.0
H5540 H 0.6383 0.0912 0.05835 0.0
H5541 H 0.61763 0.10257 0.07663 0.0
H5542 H 0.61674 0.14433 0.04233 0.0
H5543 H 0.63714 0.13301 0.02365 0.0
C5544 C 0.73046 0.12975 0.01804 0.0
C5545 C 0.7307 0.1469 0.01332 0.0
C5546 C 0.71389 0.11759 0.01813 0.0
C5547 C 0.69724 0.12226 0.01335 0.0
C5548 C 0.69744 0.1392 0.00814 0.0
C5549 C 0.714 0.1514 0.0081 0.0
C5550 C 0.67966 0.10988 0.0149 0.0
C5551 C 0.66764 0.11565 0.02548 0.0
C5552 C 0.67507 0.09233 0.00682 0.0
C5553 C 0.68625 0.08587 0.99418 0.0
C5554 C 0.69049 0.09484 0.979 0.0
C5555 C 0.70068 0.08844 0.96684 0.0
C5556 C 0.70657 0.07302 0.96966 0.0
C5557 C 0.70228 0.06396 0.98465 0.0
C5558 C 0.69213 0.07032 0.99686 0.0
C5559 C 0.596 0.06801 0.01509 0.0
C5560 C 0.59481 0.05262 0.02404 0.0
C5561 C 0.61293 0.07898 0.01385 0.0
C5562 C 0.62902 0.07476 0.02146 0.0
C5563 C 0.62801 0.05923 0.03005 0.0
C5564 C 0.61098 0.04828 0.03148 0.0
C5565 C 0.64684 0.08674 0.02039 0.0
C5566 C 0.65885 0.08089 0.00992 0.0
C5567 C 0.65126 0.10432 0.02826 0.0
C5568 C 0.63909 0.11116 0.03952 0.0
C5569 C 0.63356 0.10271 0.05462 0.0
C5570 C 0.62191 0.10916 0.06507 0.0
C5571 C 0.61584 0.12414 0.06062 0.0
C5572 C 0.62143 0.13272 0.04574 0.0
C5573 C 0.63304 0.12629 0.03523 0.0
H5574 H 0.60682 0.12911 0.06873 0.0
H5575 H 0.71442 0.06806 0.9602 0.0
H5576 H 0.18685 0.46759 0.281 0.0
H5577 H 0.20274 0.44386 0.28145 0.0
H5578 H 0.15353 0.40752 0.29102 0.0
H5579 H 0.13742 0.43141 0.29081 0.0
H5580 H 0.18326 0.40366 0.31209 0.0
H5581 H 0.16579 0.4052 0.25027 0.0
H5582 H 0.16061 0.41762 0.22124 0.0
H5583 H 0.21851 0.43713 0.22261 0.0
H5584 H 0.22404 0.42516 0.25184 0.0
H5585 H 0.23629 0.33944 0.2932 0.0
H5586 H 0.21133 0.35467 0.29018 0.0
H5587 H 0.25059 0.40449 0.29393 0.0
H5588 H 0.27572 0.38935 0.2971 0.0
H5589 H 0.21947 0.39486 0.26251 0.0
H5590 H 0.23412 0.39821 0.32849 0.0
H5591 H 0.2375 0.38597 0.3579 0.0
H5592 H 0.1822 0.35515 0.34679 0.0
H5593 H 0.17859 0.3671 0.31722 0.0
C5594 C 0.17943 0.4546 0.28338 0.0
C5595 C 0.16092 0.45124 0.28579 0.0
C5596 C 0.18846 0.44106 0.28343 0.0
C5597 C 0.17904 0.42397 0.28572 0.0
C5598 C 0.16081 0.42067 0.28897 0.0
C5599 C 0.15174 0.43429 0.28899 0.0
C5600 C 0.18879 0.40986 0.28537 0.0
C5601 C 0.19079 0.40133 0.30104 0.0
C5602 C 0.19849 0.40693 0.27088 0.0
C5603 C 0.19532 0.41431 0.25332 0.0
C5604 C 0.17742 0.41227 0.24447 0.0
C5605 C 0.17442 0.41922 0.22796 0.0
C5606 C 0.18922 0.42817 0.22009 0.0
C5607 C 0.20705 0.43019 0.22872 0.0
C5608 C 0.21013 0.42331 0.24526 0.0
C5609 C 0.23956 0.35367 0.2935 0.0
C5610 C 0.25781 0.36334 0.29546 0.0
C5611 C 0.22537 0.36225 0.29178 0.0
C5612 C 0.22935 0.38053 0.29187 0.0
C5613 C 0.2475 0.39029 0.29389 0.0
C5614 C 0.26173 0.38172 0.29584 0.0
C5615 C 0.21454 0.38956 0.28955 0.0
C5616 C 0.21152 0.39691 0.27328 0.0
C5617 C 0.20366 0.39115 0.30332 0.0
C5618 C 0.20617 0.38336 0.32062 0.0
C5619 C 0.22278 0.38864 0.33223 0.0
C5620 C 0.22469 0.38186 0.34897 0.0
C5621 C 0.21003 0.36988 0.35425 0.0
C5622 C 0.19351 0.3645 0.34272 0.0
C5623 C 0.19153 0.37126 0.32598 0.0
H5624 H 0.21153 0.36467 0.36724 0.0
H5625 H 0.18687 0.43351 0.20729 0.0
H5626 H 0.20776 0.41786 0.04028 0.0
H5627 H 0.18083 0.42996 0.04102 0.0
H5628 H 0.21555 0.48092 0.06026 0.0
H5629 H 0.2423 0.46804 0.06157 0.0
H5630 H 0.1898 0.48496 0.07202 0.0
H5631 H 0.18095 0.45898 0.00944 0.0
H5632 H 0.17695 0.43494 0.9852 0.0
H5633 H 0.13204 0.40463 0.00818 0.0
H5634 H 0.13578 0.42849 0.03251 0.0
H5635 H 0.11823 0.53181 0.05379 0.0
H5636 H 0.14444 0.51837 0.05365 0.0
H5637 H 0.10805 0.46691 0.04555 0.0
H5638 H 0.08167 0.48049 0.04506 0.0
H5639 H 0.13361 0.46289 0.0284 0.0
H5640 H 0.14105 0.48975 0.08917 0.0
H5641 H 0.14423 0.51401 0.11295 0.0
H5642 H 0.19171 0.54301 0.0927 0.0
H5643 H 0.18868 0.51899 0.0687 0.0
C5644 C 0.20981 0.4317 0.04466 0.0
C5645 C 0.22784 0.44169 0.05074 0.0
C5646 C 0.19399 0.43897 0.04475 0.0
C5647 C 0.19506 0.45709 0.04993 0.0
C5648 C 0.21325 0.46704 0.05602 0.0
C5649 C 0.22899 0.45956 0.05668 0.0
C5650 C 0.17779 0.46555 0.04959 0.0
C5651 C 0.17785 0.48009 0.06204 0.0
C5652 C 0.161 0.45965 0.03739 0.0
C5653 C 0.15879 0.44538 0.02285 0.0
C5654 C 0.17027 0.44715 0.00932 0.0
C5655 C 0.16803 0.43357 0.99556 0.0
C5656 C 0.15428 0.41825 0.99518 0.0
C5657 C 0.1427 0.41649 0.00851 0.0
C5658 C 0.14484 0.43004 0.02225 0.0
C5659 C 0.11558 0.51759 0.05201 0.0
C5660 C 0.0972 0.50756 0.04952 0.0
C5661 C 0.13095 0.5097 0.05214 0.0
C5662 C 0.12911 0.49116 0.05007 0.0
C5663 C 0.11067 0.48113 0.04732 0.0
C5664 C 0.09526 0.48904 0.04709 0.0
C5665 C 0.146 0.4824 0.05047 0.0
C5666 C 0.14576 0.46779 0.03816 0.0
C5667 C 0.16266 0.48831 0.06268 0.0
C5668 C 0.16453 0.50268 0.07707 0.0
C5669 C 0.1521 0.50135 0.08975 0.0
C5670 C 0.15389 0.51505 0.10326 0.0
C5671 C 0.16813 0.53006 0.1043 0.0
C5672 C 0.18066 0.53139 0.09186 0.0
C5673 C 0.17893 0.51774 0.07832 0.0
H5674 H 0.16948 0.54066 0.11476 0.0
H5675 H 0.15256 0.40775 0.98452 0.0
H5676 H 0.8413 0.96081 0.2133 0.0
H5677 H 0.82794 0.93095 0.22044 0.0
H5678 H 0.88165 0.92502 0.24132 0.0
H5679 H 0.89506 0.95437 0.23391 0.0
H5680 H 0.86315 0.89591 0.22291 0.0
H5681 H 0.85404 0.93543 0.26969 0.0
H5682 H 0.84423 0.96064 0.28344 0.0
H5683 H 0.78835 0.93669 0.26207 0.0
H5684 H 0.7979 0.91145 0.24793 0.0
H5685 H 0.84008 0.82889 0.2809 0.0
H5686 H 0.85087 0.85833 0.27157 0.0
H5687 H 0.79815 0.85471 0.24064 0.0
H5688 H 0.78718 0.82526 0.24985 0.0
H5689 H 0.81509 0.88807 0.26346 0.0
H5690 H 0.82848 0.84642 0.21819 0.0
H5691 H 0.84185 0.82135 0.2105 0.0
H5692 H 0.89469 0.8507 0.23599 0.0
H5693 H 0.88152 0.87582 0.24408 0.0
C5694 C 0.85023 0.95301 0.21916 0.0
C5695 C 0.86917 0.95995 0.22317 0.0
C5696 C 0.8426 0.93605 0.22331 0.0
C5697 C 0.85384 0.92595 0.23157 0.0
C5698 C 0.87278 0.93262 0.23493 0.0
C5699 C 0.88038 0.94945 0.23076 0.0
C5700 C 0.84595 0.90867 0.23747 0.0
C5701 C 0.85265 0.89423 0.23177 0.0
C5702 C 0.83248 0.90655 0.24925 0.0
C5703 C 0.82669 0.92171 0.25756 0.0
C5704 C 0.83968 0.93564 0.26777 0.0
C5705 C 0.83417 0.94991 0.27566 0.0
C5706 C 0.81569 0.9503 0.27358 0.0
C5707 C 0.80267 0.93639 0.26362 0.0
C5708 C 0.80812 0.92211 0.25566 0.0
C5709 C 0.83076 0.83439 0.27219 0.0
C5710 C 0.81287 0.82477 0.26594 0.0
C5711 C 0.83692 0.85116 0.26693 0.0
C5712 C 0.82524 0.85847 0.25543 0.0
C5713 C 0.80725 0.84915 0.24957 0.0
C5714 C 0.8011 0.83233 0.25471 0.0
C5715 C 0.83215 0.87547 0.24868 0.0
C5716 C 0.82534 0.88981 0.25432 0.0
C5717 C 0.84601 0.87766 0.23741 0.0
C5718 C 0.85403 0.86292 0.23176 0.0
C5719 C 0.84294 0.84749 0.22216 0.0
C5720 C 0.85047 0.83328 0.21775 0.0
C5721 C 0.86911 0.83442 0.22276 0.0
C5722 C 0.88026 0.84983 0.23211 0.0
C5723 C 0.87278 0.86406 0.23658 0.0
H5724 H 0.8749 0.82338 0.21939 0.0
H5725 H 0.81144 0.96135 0.27973 0.0
H5726 H 0.61495 0.05058 0.76611 0.0
H5727 H 0.63212 0.08108 0.7662 0.0
H5728 H 0.68136 0.06662 0.78864 0.0
H5729 H 0.66424 0.03663 0.78946 0.0
H5730 H 0.6811 0.09621 0.80379 0.0
H5731 H 0.66875 0.07028 0.7417 0.0
H5732 H 0.64984 0.05655 0.71307 0.0
H5733 H 0.62529 0.10088 0.70998 0.0
H5734 H 0.64386 0.11475 0.73873 0.0
H5735 H 0.75441 0.15242 0.77134 0.0
H5736 H 0.7301 0.12737 0.77618 0.0
H5737 H 0.69 0.1582 0.76561 0.0
H5738 H 0.71424 0.18327 0.76066 0.0
H5739 H 0.68155 0.1242 0.74624 0.0
H5740 H 0.70025 0.15142 0.80719 0.0
H5741 H 0.72249 0.16414 0.83412 0.0
H5742 H 0.7389 0.11522 0.8372 0.0
H5743 H 0.71695 0.10229 0.81015 0.0
C5744 C 0.62938 0.05406 0.77135 0.0
C5745 C 0.63828 0.0413 0.7778 0.0
C5746 C 0.63918 0.07141 0.77126 0.0
C5747 C 0.65806 0.07604 0.77718 0.0
C5748 C 0.66678 0.06337 0.78409 0.0
C5749 C 0.65697 0.04621 0.78454 0.0
C5750 C 0.66913 0.09386 0.77588 0.0
C5751 C 0.68121 0.10228 0.79117 0.0
C5752 C 0.66897 0.10198 0.75952 0.0
C5753 C 0.65747 0.09341 0.7425 0.0
C5754 C 0.65915 0.07699 0.73502 0.0
C5755 C 0.64854 0.0692 0.71875 0.0
C5756 C 0.63632 0.0778 0.70975 0.0
C5757 C 0.63471 0.0942 0.717 0.0
C5758 C 0.64526 0.10202 0.73328 0.0
C5759 C 0.7404 0.15378 0.77001 0.0
C5760 C 0.7361 0.16965 0.76566 0.0
C5761 C 0.72661 0.1396 0.7729 0.0
C5762 C 0.70841 0.14115 0.77141 0.0
C5763 C 0.70405 0.15692 0.76691 0.0
C5764 C 0.71784 0.17115 0.76416 0.0
C5765 C 0.69388 0.12598 0.7739 0.0
C5766 C 0.68113 0.1182 0.7589 0.0
C5767 C 0.69379 0.11814 0.79033 0.0
C5768 C 0.707 0.12592 0.8066 0.0
C5769 C 0.70869 0.14342 0.81354 0.0
C5770 C 0.72123 0.15066 0.82884 0.0
C5771 C 0.73211 0.1405 0.83736 0.0
C5772 C 0.73046 0.12307 0.8306 0.0
C5773 C 0.71796 0.11578 0.8153 0.0
H5774 H 0.74179 0.14612 0.84921 0.0
H5775 H 0.62815 0.07177 0.69713 0.0
loop_
_geom_bond_atom_site_label_1
_geom_bond_atom_site_label_2
_geom_bond_distance
_geom_bond_site_symmetry_2
_ccdc_geom_bond_type
O0 Cd1 2.223 . S
O0 C8 1.315 . S
Cd1 O0 2.223 . S
Cd1 O4 2.297 . S
Cd1 O5 2.439 . S
Cd1 O11 2.240 . S
Cd2 O3 2.240 . S
Cd2 O10 2.207 1_455 S
Cd2 O12 2.297 . S
Cd2 O13 2.439 . S
O3 Cd2 2.240 . S
O3 C8 1.279 . S
O4 Cd1 2.297 . S
O4 C6 1.247 . S
O5 Cd1 2.439 . S
O5 C6 1.208 . S
C6 O4 1.247 . S
C6 O5 1.208 . S
C7 O12 1.247 . S
C7 O13 1.208 . S
C8 O0 1.315 . S
C8 O3 1.279 . S
C9 O10 1.311 1_455 S
C9 O11 1.279 . S
O10 Cd2 2.207 1_655 S
O10 C9 1.311 1_655 S
O11 Cd1 2.240 . S
O11 C9 1.279 . S
O12 Cd2 2.297 . S
O12 C7 1.247 . S
O13 Cd2 2.439 . S
O13 C7 1.208 . S
O14 Cd15 2.223 . S
O14 C22 1.315 . S
Cd15 O14 2.223 . S
Cd15 O18 2.297 1_455 S
Cd15 O19 2.391 1_455 S
Cd15 O25 2.240 . S
Cd16 O17 2.240 . S
Cd16 O24 2.223 . S
Cd16 O26 2.297 . S
Cd16 O27 2.439 . S
O17 Cd16 2.240 . S
O17 C22 1.279 . S
O18 Cd15 2.297 1_655 S
O18 C20 1.247 . S
O19 Cd15 2.391 1_655 S
O19 C20 1.234 . S
C20 O18 1.247 . S
C20 O19 1.234 . S
C21 O26 1.247 . S
C21 O27 1.208 . S
C22 O14 1.315 . S
C22 O17 1.279 . S
C23 O24 1.315 . S
C23 O25 1.279 . S
O24 Cd16 2.223 . S
O24 C23 1.315 . S
O25 Cd15 2.240 . S
O25 C23 1.279 . S
O26 Cd16 2.297 . S
O26 C21 1.247 . S
O27 Cd16 2.439 . S
O27 C21 1.208 . S
O28 Cd29 2.223 . S
O28 C36 1.315 . S
Cd29 O28 2.223 . S
Cd29 O32 2.297 . S
Cd29 O33 2.439 . S
Cd29 O39 2.240 . S
Cd30 O31 2.240 . S
Cd30 O38 2.223 . S
Cd30 O40 2.297 . S
Cd30 O41 2.439 . S
O31 Cd30 2.240 . S
O31 C36 1.279 . S
O32 Cd29 2.297 . S
O32 C34 1.247 . S
O33 Cd29 2.439 . S
O33 C34 1.208 . S
C34 O32 1.247 . S
C34 O33 1.208 . S
C35 O40 1.247 . S
C35 O41 1.208 . S
C36 O28 1.315 . S
C36 O31 1.279 . S
C37 O38 1.315 . S
C37 O39 1.279 . S
O38 Cd30 2.223 . S
O38 C37 1.315 . S
O39 Cd29 2.240 . S
O39 C37 1.279 . S
O40 Cd30 2.297 . S
O40 C35 1.247 . S
O41 Cd30 2.439 . S
O41 C35 1.208 . S
O42 Cd43 2.223 . S
O42 C50 1.315 . S
Cd43 O42 2.223 . S
Cd43 O46 2.297 . S
Cd43 O47 2.439 . S
Cd43 O53 2.240 . S
Cd44 O45 2.240 . S
Cd44 O52 2.223 . S
Cd44 O54 2.297 . S
Cd44 O55 2.439 . S
O45 Cd44 2.240 . S
O45 C50 1.279 . S
O46 Cd43 2.297 . S
O46 C48 1.247 . S
O47 Cd43 2.439 . S
O47 C48 1.208 . S
C48 O46 1.247 . S
C48 O47 1.208 . S
C49 O54 1.247 . S
C49 O55 1.208 . S
C50 O42 1.315 . S
C50 O45 1.279 . S
C51 O52 1.315 . S
C51 O53 1.279 . S
O52 Cd44 2.223 . S
O52 C51 1.315 . S
O53 Cd43 2.240 . S
O53 C51 1.279 . S
O54 Cd44 2.297 . S
O54 C49 1.247 . S
O55 Cd44 2.439 . S
O55 C49 1.208 . S
O56 Cd57 2.223 . S
O56 C64 1.315 . S
Cd57 O56 2.223 . S
Cd57 O60 2.297 . S
Cd57 O61 2.439 . S
Cd57 O67 2.240 . S
Cd58 O59 2.240 . S
Cd58 O66 2.223 . S
Cd58 O68 2.297 . S
Cd58 O69 2.439 . S
O59 Cd58 2.240 . S
O59 C64 1.279 . S
O60 Cd57 2.297 . S
O60 C62 1.247 . S
O61 Cd57 2.439 . S
O61 C62 1.208 . S
C62 O60 1.247 . S
C62 O61 1.208 . S
C63 O68 1.247 . S
C63 O69 1.208 . S
C64 O56 1.315 . S
C64 O59 1.279 . S
C65 O66 1.315 . S
C65 O67 1.279 . S
O66 Cd58 2.223 . S
O66 C65 1.315 . S
O67 Cd57 2.240 . S
O67 C65 1.279 . S
O68 Cd58 2.297 . S
O68 C63 1.247 . S
O69 Cd58 2.439 . S
O69 C63 1.208 . S
O70 Cd71 2.223 . S
O70 C78 1.315 . S
Cd71 O70 2.223 . S
Cd71 O74 2.297 . S
Cd71 O75 2.439 . S
Cd71 O81 2.240 . S
Cd72 O73 2.240 . S
Cd72 O80 2.223 . S
Cd72 O82 2.297 . S
Cd72 O83 2.439 . S
O73 Cd72 2.240 . S
O73 C78 1.279 . S
O74 Cd71 2.297 . S
O74 C76 1.247 . S
O75 Cd71 2.439 . S
O75 C76 1.208 . S
C76 O74 1.247 . S
C76 O75 1.208 . S
C77 O82 1.247 . S
C77 O83 1.208 . S
C78 O70 1.315 . S
C78 O73 1.279 . S
C79 O80 1.315 . S
C79 O81 1.279 . S
O80 Cd72 2.223 . S
O80 C79 1.315 . S
O81 Cd71 2.240 . S
O81 C79 1.279 . S
O82 Cd72 2.297 . S
O82 C77 1.247 . S
O83 Cd72 2.439 . S
O83 C77 1.208 . S
O84 Cd85 2.223 . S
O84 C92 1.315 . S
Cd85 O84 2.223 . S
Cd85 O88 2.297 . S
Cd85 O89 2.439 . S
Cd85 O95 2.240 . S
Cd86 O87 2.240 . S
Cd86 O94 2.223 . S
Cd86 O96 2.297 . S
Cd86 O97 2.439 . S
O87 Cd86 2.240 . S
O87 C92 1.279 . S
O88 Cd85 2.297 . S
O88 C90 1.247 . S
O89 Cd85 2.439 . S
O89 C90 1.208 . S
C90 O88 1.247 . S
C90 O89 1.208 . S
C91 O96 1.247 . S
C91 O97 1.208 . S
C92 O84 1.315 . S
C92 O87 1.279 . S
C93 O94 1.315 . S
C93 O95 1.279 . S
O94 Cd86 2.223 . S
O94 C93 1.315 . S
O95 Cd85 2.240 . S
O95 C93 1.279 . S
O96 Cd86 2.297 . S
O96 C91 1.247 . S
O97 Cd86 2.439 . S
O97 C91 1.208 . S
O98 Cd99 2.223 1_655 S
O98 C106 1.315 . S
Cd99 O98 2.223 1_455 S
Cd99 O102 2.297 . S
Cd99 O103 2.439 . S
Cd99 O109 2.240 1_455 S
Cd100 O101 2.240 1_655 S
Cd100 O108 2.223 . S
Cd100 O110 2.297 . S
Cd100 O111 2.439 1_655 S
O101 Cd100 2.240 1_455 S
O101 C106 1.279 1_455 S
O102 Cd99 2.297 . S
O102 C104 1.247 . S
O103 Cd99 2.439 . S
O103 C104 1.208 . S
C104 O102 1.247 . S
C104 O103 1.208 . S
C105 O110 1.254 . S
C105 O111 1.202 1_655 S
C106 O98 1.315 . S
C106 O101 1.279 1_655 S
C107 O108 1.315 . S
C107 O109 1.279 . S
O108 Cd100 2.223 . S
O108 C107 1.315 . S
O109 Cd99 2.240 1_655 S
O109 C107 1.279 . S
O110 Cd100 2.297 . S
O110 C105 1.254 . S
O111 Cd100 2.439 1_455 S
O111 C105 1.202 1_455 S
O112 Cd113 2.223 . S
O112 C120 1.315 . S
Cd113 O112 2.223 . S
Cd113 O116 2.297 . S
Cd113 O117 2.439 . S
Cd113 O123 2.240 . S
Cd114 O115 2.240 . S
Cd114 O122 2.223 . S
Cd114 O124 2.297 . S
Cd114 O125 2.439 . S
O115 Cd114 2.240 . S
O115 C120 1.279 . S
O116 Cd113 2.297 . S
O116 C118 1.247 . S
O117 Cd113 2.439 . S
O117 C118 1.208 . S
C118 O116 1.247 . S
C118 O117 1.208 . S
C119 O124 1.247 . S
C119 O125 1.208 . S
C120 O112 1.315 . S
C120 O115 1.279 . S
C121 O122 1.315 . S
C121 O123 1.279 . S
O122 Cd114 2.223 . S
O122 C121 1.315 . S
O123 Cd113 2.240 . S
O123 C121 1.279 . S
O124 Cd114 2.297 . S
O124 C119 1.247 . S
O125 Cd114 2.439 . S
O125 C119 1.208 . S
O126 Cd127 2.223 . S
O126 C134 1.315 . S
Cd127 O126 2.223 . S
Cd127 O130 2.297 . S
Cd127 O131 2.439 . S
Cd127 O137 2.240 . S
Cd128 O129 2.240 . S
Cd128 O136 2.223 . S
Cd128 O138 2.297 . S
Cd128 O139 2.439 . S
O129 Cd128 2.240 . S
O129 C134 1.279 . S
O130 Cd127 2.297 . S
O130 C132 1.247 . S
O131 Cd127 2.439 . S
O131 C132 1.208 . S
C132 O130 1.247 . S
C132 O131 1.208 . S
C133 O138 1.247 . S
C133 O139 1.208 . S
C134 O126 1.315 . S
C134 O129 1.279 . S
C135 O136 1.315 . S
C135 O137 1.279 . S
O136 Cd128 2.223 . S
O136 C135 1.315 . S
O137 Cd127 2.240 . S
O137 C135 1.279 . S
O138 Cd128 2.297 . S
O138 C133 1.247 . S
O139 Cd128 2.439 . S
O139 C133 1.208 . S
O140 Cd141 2.223 . S
O140 C148 1.315 . S
Cd141 O140 2.223 . S
Cd141 O144 2.297 . S
Cd141 O145 2.439 . S
Cd141 O151 2.240 . S
Cd142 O143 2.240 . S
Cd142 O150 2.223 . S
Cd142 O152 2.297 . S
Cd142 O153 2.439 . S
O143 Cd142 2.240 . S
O143 C148 1.279 . S
O144 Cd141 2.297 . S
O144 C146 1.247 . S
O145 Cd141 2.439 . S
O145 C146 1.208 . S
C146 O144 1.247 . S
C146 O145 1.208 . S
C147 O152 1.247 . S
C147 O153 1.208 . S
C148 O140 1.315 . S
C148 O143 1.279 . S
C149 O150 1.315 . S
C149 O151 1.279 . S
O150 Cd142 2.223 . S
O150 C149 1.315 . S
O151 Cd141 2.240 . S
O151 C149 1.279 . S
O152 Cd142 2.297 . S
O152 C147 1.247 . S
O153 Cd142 2.439 . S
O153 C147 1.208 . S
O154 Cd155 2.223 . S
O154 C162 1.315 . S
Cd155 O154 2.223 . S
Cd155 O158 2.297 . S
Cd155 O159 2.439 . S
Cd155 O165 2.240 . S
Cd156 O157 2.240 . S
Cd156 O164 2.223 . S
Cd156 O166 2.297 . S
Cd156 O167 2.439 . S
O157 Cd156 2.240 . S
O157 C162 1.279 . S
O158 Cd155 2.297 . S
O158 C160 1.247 . S
O159 Cd155 2.439 . S
O159 C160 1.208 . S
C160 O158 1.247 . S
C160 O159 1.208 . S
C161 O166 1.247 1_556 S
C161 O167 1.208 1_556 S
C162 O154 1.315 . S
C162 O157 1.279 . S
C163 O164 1.315 . S
C163 O165 1.279 . S
O164 Cd156 2.223 . S
O164 C163 1.315 . S
O165 Cd155 2.240 . S
O165 C163 1.279 . S
O166 Cd156 2.297 . S
O166 C161 1.247 1_554 S
O167 Cd156 2.439 . S
O167 C161 1.208 1_554 S
O168 Cd169 2.223 . S
O168 C176 1.315 . S
Cd169 O168 2.223 . S
Cd169 O172 2.297 . S
Cd169 O173 2.439 . S
Cd169 O179 2.240 . S
Cd170 O171 2.240 . S
Cd170 O178 2.223 . S
Cd170 O180 2.297 1_554 S
Cd170 O181 2.439 1_554 S
O171 Cd170 2.240 . S
O171 C176 1.279 . S
O172 Cd169 2.297 . S
O172 C174 1.247 . S
O173 Cd169 2.439 . S
O173 C174 1.208 . S
C174 O172 1.247 . S
C174 O173 1.208 . S
C175 O180 1.247 . S
C175 O181 1.208 . S
C176 O168 1.315 . S
C176 O171 1.279 . S
C177 O178 1.315 . S
C177 O179 1.279 . S
O178 Cd170 2.223 . S
O178 C177 1.315 . S
O179 Cd169 2.240 . S
O179 C177 1.279 . S
O180 Cd170 2.297 1_556 S
O180 C175 1.247 . S
O181 Cd170 2.439 1_556 S
O181 C175 1.208 . S
O182 Cd183 2.223 . S
O182 C190 1.315 . S
Cd183 O182 2.223 . S
Cd183 O186 2.297 . S
Cd183 O187 2.439 1_554 S
Cd183 O193 2.240 1_554 S
Cd184 O185 2.240 1_556 S
Cd184 O192 2.223 1_556 S
Cd184 O194 2.297 . S
Cd184 O195 2.439 . S
O185 Cd184 2.240 1_554 S
O185 C190 1.279 . S
O186 Cd183 2.297 . S
O186 C188 1.247 . S
O187 Cd183 2.439 1_556 S
O187 C188 1.208 1_556 S
C188 O186 1.247 . S
C188 O187 1.208 1_554 S
C189 O194 1.247 . S
C189 O195 1.208 . S
C190 O182 1.315 . S
C190 O185 1.279 . S
C191 O192 1.315 1_556 S
C191 O193 1.279 . S
O192 Cd184 2.223 1_554 S
O192 C191 1.315 1_554 S
O193 Cd183 2.240 1_556 S
O193 C191 1.279 . S
O194 Cd184 2.297 . S
O194 C189 1.247 . S
O195 Cd184 2.439 . S
O195 C189 1.208 . S
O196 Cd197 2.223 . S
O196 C204 1.315 . S
Cd197 O196 2.223 . S
Cd197 O200 2.297 . S
Cd197 O201 2.439 . S
Cd197 O207 2.240 . S
Cd198 O199 2.240 . S
Cd198 O206 2.223 . S
Cd198 O208 2.297 . S
Cd198 O209 2.439 . S
O199 Cd198 2.240 . S
O199 C204 1.279 . S
O200 Cd197 2.297 . S
O200 C202 1.247 . S
O201 Cd197 2.439 . S
O201 C202 1.208 . S
C202 O200 1.247 . S
C202 O201 1.208 . S
C203 O208 1.247 . S
C203 O209 1.208 . S
C204 O196 1.315 . S
C204 O199 1.279 . S
C205 O206 1.315 . S
C205 O207 1.279 . S
O206 Cd198 2.223 . S
O206 C205 1.315 . S
O207 Cd197 2.240 . S
O207 C205 1.279 . S
O208 Cd198 2.297 . S
O208 C203 1.247 . S
O209 Cd198 2.439 . S
O209 C203 1.208 . S
O210 Cd211 2.223 . S
O210 C218 1.315 . S
Cd211 O210 2.223 . S
Cd211 O214 2.297 . S
Cd211 O215 2.439 . S
Cd211 O221 2.240 . S
Cd212 O213 2.240 . S
Cd212 O220 2.223 . S
Cd212 O222 2.297 . S
Cd212 O223 2.439 . S
O213 Cd212 2.240 . S
O213 C218 1.279 . S
O214 Cd211 2.297 . S
O214 C216 1.247 . S
O215 Cd211 2.439 . S
O215 C216 1.208 . S
C216 O214 1.247 . S
C216 O215 1.208 . S
C217 O222 1.247 . S
C217 O223 1.208 . S
C218 O210 1.315 . S
C218 O213 1.279 . S
C219 O220 1.315 . S
C219 O221 1.279 . S
O220 Cd212 2.223 . S
O220 C219 1.315 . S
O221 Cd211 2.240 . S
O221 C219 1.279 . S
O222 Cd212 2.297 . S
O222 C217 1.247 . S
O223 Cd212 2.439 . S
O223 C217 1.208 . S
O224 Cd225 2.211 1_565 S
O224 C232 1.315 1_565 S
Cd225 O224 2.211 1_545 S
Cd225 O228 2.297 . S
Cd225 O229 2.439 . S
Cd225 O235 2.240 1_545 S
Cd226 O227 2.216 1_565 S
Cd226 O234 2.258 . S
Cd226 O236 2.314 . S
Cd226 O237 2.420 1_565 S
O227 Cd226 2.216 1_545 S
O227 C232 1.279 . S
O228 Cd225 2.297 . S
O228 C230 1.247 . S
O229 Cd225 2.439 . S
O229 C230 1.208 . S
C230 O228 1.247 . S
C230 O229 1.208 . S
C231 O236 1.247 1_545 S
C231 O237 1.208 . S
C232 O224 1.315 1_545 S
C232 O227 1.279 . S
C233 O234 1.315 . S
C233 O235 1.279 . S
O234 Cd226 2.258 . S
O234 C233 1.315 . S
O235 Cd225 2.240 1_565 S
O235 C233 1.279 . S
O236 Cd226 2.314 . S
O236 C231 1.247 1_565 S
O237 Cd226 2.420 1_545 S
O237 C231 1.208 . S
O238 Cd239 2.223 . S
O238 C246 1.315 . S
Cd239 O238 2.223 . S
Cd239 O242 2.297 . S
Cd239 O243 2.439 . S
Cd239 O249 2.240 . S
Cd240 O241 2.240 . S
Cd240 O248 2.223 . S
Cd240 O250 2.297 . S
Cd240 O251 2.439 . S
O241 Cd240 2.240 . S
O241 C246 1.279 . S
O242 Cd239 2.297 . S
O242 C244 1.247 . S
O243 Cd239 2.439 . S
O243 C244 1.208 . S
C244 O242 1.247 . S
C244 O243 1.208 . S
C245 O250 1.247 . S
C245 O251 1.208 . S
C246 O238 1.315 . S
C246 O241 1.279 . S
C247 O248 1.315 . S
C247 O249 1.279 . S
O248 Cd240 2.223 . S
O248 C247 1.315 . S
O249 Cd239 2.240 . S
O249 C247 1.279 . S
O250 Cd240 2.297 . S
O250 C245 1.247 . S
O251 Cd240 2.439 . S
O251 C245 1.208 . S
O252 Cd253 2.223 . S
O252 C260 1.315 . S
Cd253 O252 2.223 . S
Cd253 O256 2.297 . S
Cd253 O257 2.439 . S
Cd253 O263 2.240 . S
Cd254 O255 2.240 . S
Cd254 O262 2.223 . S
Cd254 O264 2.297 . S
Cd254 O265 2.439 . S
O255 Cd254 2.240 . S
O255 C260 1.279 . S
O256 Cd253 2.297 . S
O256 C258 1.247 . S
O257 Cd253 2.439 . S
O257 C258 1.208 . S
C258 O256 1.247 . S
C258 O257 1.208 . S
C259 O264 1.247 . S
C259 O265 1.208 . S
C260 O252 1.315 . S
C260 O255 1.279 . S
C261 O262 1.315 . S
C261 O263 1.279 . S
O262 Cd254 2.223 . S
O262 C261 1.315 . S
O263 Cd253 2.240 . S
O263 C261 1.279 . S
O264 Cd254 2.297 . S
O264 C259 1.247 . S
O265 Cd254 2.439 . S
O265 C259 1.208 . S
O266 Cd267 2.223 1_545 S
O266 C274 1.315 1_545 S
Cd267 O266 2.223 1_565 S
Cd267 O270 2.297 . S
Cd267 O271 2.439 . S
Cd267 O277 2.240 1_565 S
Cd268 O269 2.240 1_545 S
Cd268 O276 2.223 . S
Cd268 O278 2.297 . S
Cd268 O279 2.439 1_545 S
O269 Cd268 2.240 1_565 S
O269 C274 1.304 . S
O270 Cd267 2.297 . S
O270 C272 1.247 . S
O271 Cd267 2.439 . S
O271 C272 1.208 . S
C272 O270 1.247 . S
C272 O271 1.208 . S
C273 O278 1.247 . S
C273 O279 1.208 1_545 S
C274 O266 1.315 1_565 S
C274 O269 1.304 . S
C275 O276 1.315 . S
C275 O277 1.279 . S
O276 Cd268 2.223 . S
O276 C275 1.315 . S
O277 Cd267 2.240 1_545 S
O277 C275 1.279 . S
O278 Cd268 2.297 . S
O278 C273 1.247 . S
O279 Cd268 2.439 1_565 S
O279 C273 1.208 1_565 S
O280 Cd281 2.223 . S
O280 C288 1.315 . S
Cd281 O280 2.223 . S
Cd281 O284 2.297 . S
Cd281 O285 2.439 . S
Cd281 O291 2.240 . S
Cd282 O283 2.240 . S
Cd282 O290 2.223 . S
Cd282 O292 2.297 1_554 S
Cd282 O293 2.439 1_554 S
O283 Cd282 2.240 . S
O283 C288 1.279 . S
O284 Cd281 2.297 . S
O284 C286 1.247 . S
O285 Cd281 2.439 . S
O285 C286 1.208 . S
C286 O284 1.247 . S
C286 O285 1.208 . S
C287 O292 1.247 . S
C287 O293 1.208 . S
C288 O280 1.315 . S
C288 O283 1.279 . S
C289 O290 1.315 . S
C289 O291 1.279 . S
O290 Cd282 2.223 . S
O290 C289 1.315 . S
O291 Cd281 2.240 . S
O291 C289 1.279 . S
O292 Cd282 2.297 1_556 S
O292 C287 1.247 . S
O293 Cd282 2.439 1_556 S
O293 C287 1.208 . S
O294 Cd295 2.223 . S
O294 C302 1.315 . S
Cd295 O294 2.223 . S
Cd295 O298 2.297 . S
Cd295 O299 2.439 . S
Cd295 O305 2.240 . S
Cd296 O297 2.240 . S
Cd296 O304 2.223 . S
Cd296 O306 2.297 . S
Cd296 O307 2.439 . S
O297 Cd296 2.240 . S
O297 C302 1.279 . S
O298 Cd295 2.297 . S
O298 C300 1.247 . S
O299 Cd295 2.439 . S
O299 C300 1.208 . S
C300 O298 1.247 . S
C300 O299 1.208 . S
C301 O306 1.247 . S
C301 O307 1.208 . S
C302 O294 1.315 . S
C302 O297 1.279 . S
C303 O304 1.315 . S
C303 O305 1.279 . S
O304 Cd296 2.223 . S
O304 C303 1.315 . S
O305 Cd295 2.240 . S
O305 C303 1.279 . S
O306 Cd296 2.297 . S
O306 C301 1.247 . S
O307 Cd296 2.439 . S
O307 C301 1.208 . S
O308 Cd309 2.223 . S
O308 C316 1.315 . S
Cd309 O308 2.223 . S
Cd309 O312 2.297 . S
Cd309 O313 2.439 . S
Cd309 O319 2.240 . S
Cd310 O311 2.240 . S
Cd310 O318 2.223 . S
Cd310 O320 2.297 . S
Cd310 O321 2.439 . S
O311 Cd310 2.240 . S
O311 C316 1.279 . S
O312 Cd309 2.297 . S
O312 C314 1.247 . S
O313 Cd309 2.439 . S
O313 C314 1.208 . S
C314 O312 1.247 . S
C314 O313 1.208 . S
C315 O320 1.247 . S
C315 O321 1.208 . S
C316 O308 1.315 . S
C316 O311 1.279 . S
C317 O318 1.315 . S
C317 O319 1.279 . S
O318 Cd310 2.223 . S
O318 C317 1.315 . S
O319 Cd309 2.240 . S
O319 C317 1.279 . S
O320 Cd310 2.297 . S
O320 C315 1.247 . S
O321 Cd310 2.439 . S
O321 C315 1.208 . S
O322 Cd323 2.223 . S
O322 C330 1.315 . S
Cd323 O322 2.223 . S
Cd323 O326 2.297 . S
Cd323 O327 2.439 . S
Cd323 O333 2.240 . S
Cd324 O325 2.240 . S
Cd324 O332 2.223 . S
Cd324 O334 2.297 . S
Cd324 O335 2.439 . S
O325 Cd324 2.240 . S
O325 C330 1.279 . S
O326 Cd323 2.297 . S
O326 C328 1.247 . S
O327 Cd323 2.439 . S
O327 C328 1.208 . S
C328 O326 1.247 . S
C328 O327 1.208 . S
C329 O334 1.247 . S
C329 O335 1.208 . S
C330 O322 1.315 . S
C330 O325 1.279 . S
C331 O332 1.315 . S
C331 O333 1.279 . S
O332 Cd324 2.223 . S
O332 C331 1.315 . S
O333 Cd323 2.240 . S
O333 C331 1.279 . S
O334 Cd324 2.297 . S
O334 C329 1.247 . S
O335 Cd324 2.439 . S
O335 C329 1.208 . S
Tb336 C346 2.825 1_455 S
Tb336 O347 2.347 . S
Tb336 O350 2.366 . S
Tb336 O355 2.418 1_554 S
Tb336 O356 2.384 . S
Tb336 O359 2.479 1_455 S
Tb336 O360 2.471 1_455 S
Eu337 O348 2.418 . S
Eu337 O349 2.384 . S
Eu337 O352 2.479 . S
Eu337 O353 2.471 . S
Eu337 O354 2.347 . S
Eu337 O357 2.366 . S
Eu337 C367 2.825 . S
C338 O354 1.259 . S
C338 O355 1.265 1_554 S
C339 O356 1.255 . S
C339 O357 1.265 . S
C340 C342 1.380 1_554 S
C340 C343 1.374 . S
C340 C346 1.507 . S
C341 C342 1.384 . S
C341 C345 1.387 . S
C341 H368 0.930 . S
C342 C340 1.380 1_556 S
C342 C341 1.384 . S
C342 H369 0.931 . S
C343 C340 1.374 . S
C343 C344 1.390 . S
C343 H370 0.930 . S
C344 C343 1.390 . S
C344 C345 1.391 1_554 S
C344 H371 0.930 . S
C345 C341 1.387 . S
C345 C344 1.391 1_556 S
C346 Tb336 2.825 1_655 S
C346 C340 1.507 . S
C346 O359 1.238 . S
C346 O360 1.247 . S
O347 Tb336 2.347 . S
O347 C351 1.259 . S
O348 Eu337 2.418 . S
O348 C351 1.265 . S
O349 Eu337 2.384 . S
O349 C358 1.255 . S
O350 Tb336 2.366 . S
O350 C358 1.265 . S
C351 O347 1.259 . S
C351 O348 1.265 . S
O352 Eu337 2.479 . S
O352 C367 1.238 . S
O353 Eu337 2.471 . S
O353 C367 1.247 . S
O354 Eu337 2.347 . S
O354 C338 1.259 . S
O355 Tb336 2.418 1_556 S
O355 C338 1.265 1_556 S
O356 Tb336 2.384 . S
O356 C339 1.255 . S
O357 Eu337 2.366 . S
O357 C339 1.265 . S
C358 O349 1.255 . S
C358 O350 1.265 . S
O359 Tb336 2.479 1_655 S
O359 C346 1.238 . S
O360 Tb336 2.471 1_655 S
O360 C346 1.247 . S
C361 C364 1.380 . S
C361 C365 1.374 . S
C361 C367 1.507 . S
C362 C363 1.387 . S
C362 C366 1.391 . S
C363 C362 1.387 . S
C363 C364 1.384 . S
C363 H372 0.930 . S
C364 C361 1.380 . S
C364 C363 1.384 . S
C364 H373 0.931 . S
C365 C361 1.374 . S
C365 C366 1.390 . S
C365 H374 0.930 . S
C366 C362 1.391 . S
C366 C365 1.390 . S
C366 H375 0.930 1_545 S
C367 Eu337 2.825 . S
C367 O352 1.238 . S
C367 O353 1.247 . S
C367 C361 1.507 . S
H368 C341 0.930 . S
H369 C342 0.931 . S
H370 C343 0.930 . S
H371 C344 0.930 . S
H372 C363 0.930 . S
H373 C364 0.931 . S
H374 C365 0.930 . S
H375 C366 0.930 1_565 S
Tb376 C386 2.825 . S
Tb376 O387 2.347 . S
Tb376 O390 2.366 . S
Tb376 O395 2.418 . S
Tb376 O396 2.384 . S
Tb376 O399 2.479 . S
Tb376 O400 2.471 . S
Eu377 O388 2.418 . S
Eu377 O389 2.384 . S
Eu377 O392 2.479 . S
Eu377 O393 2.471 . S
Eu377 O394 2.347 . S
Eu377 O397 2.366 . S
Eu377 C407 2.825 . S
C378 O394 1.259 . S
C378 O395 1.265 . S
C379 O396 1.255 . S
C379 O397 1.265 . S
C380 C382 1.380 . S
C380 C383 1.374 . S
C380 C386 1.507 . S
C381 C382 1.384 . S
C381 C385 1.387 . S
C381 H408 0.930 . S
C382 C380 1.380 . S
C382 C381 1.384 . S
C382 H409 0.931 . S
C383 C380 1.374 . S
C383 C384 1.390 . S
C383 H410 0.930 . S
C384 C383 1.390 . S
C384 C385 1.391 . S
C384 H411 0.930 . S
C385 C381 1.387 . S
C385 C384 1.391 . S
C386 Tb376 2.825 . S
C386 C380 1.507 . S
C386 O399 1.238 . S
C386 O400 1.247 . S
O387 Tb376 2.347 . S
O387 C391 1.259 . S
O388 Eu377 2.418 . S
O388 C391 1.265 . S
O389 Eu377 2.384 . S
O389 C398 1.255 . S
O390 Tb376 2.366 . S
O390 C398 1.265 . S
C391 O387 1.259 . S
C391 O388 1.265 . S
O392 Eu377 2.479 . S
O392 C407 1.238 . S
O393 Eu377 2.471 . S
O393 C407 1.247 . S
O394 Eu377 2.347 . S
O394 C378 1.259 . S
O395 Tb376 2.418 . S
O395 C378 1.265 . S
O396 Tb376 2.384 . S
O396 C379 1.255 . S
O397 Eu377 2.366 . S
O397 C379 1.265 . S
C398 O389 1.255 . S
C398 O390 1.265 . S
O399 Tb376 2.479 . S
O399 C386 1.238 . S
O400 Tb376 2.471 . S
O400 C386 1.247 . S
C401 C404 1.380 . S
C401 C405 1.374 . S
C401 C407 1.507 . S
C402 C403 1.387 . S
C402 C406 1.391 . S
C403 C402 1.387 . S
C403 C404 1.384 . S
C403 H412 0.930 . S
C404 C401 1.380 . S
C404 C403 1.384 . S
C404 H413 0.931 . S
C405 C401 1.374 . S
C405 C406 1.390 . S
C405 H414 0.930 . S
C406 C402 1.391 . S
C406 C405 1.390 . S
C406 H415 0.930 . S
C407 Eu377 2.825 . S
C407 O392 1.238 . S
C407 O393 1.247 . S
C407 C401 1.507 . S
H408 C381 0.930 . S
H409 C382 0.931 . S
H410 C383 0.930 . S
H411 C384 0.930 . S
H412 C403 0.930 . S
H413 C404 0.931 . S
H414 C405 0.930 . S
H415 C406 0.930 . S
Tb416 C426 2.825 1_545 S
Tb416 O427 2.347 . S
Tb416 O430 2.381 . S
Tb416 O435 2.418 . S
Tb416 O436 2.384 . S
Tb416 O439 2.479 1_545 S
Tb416 O440 2.471 1_545 S
Eu417 O428 2.418 . S
Eu417 O429 2.384 . S
Eu417 O432 2.479 . S
Eu417 O433 2.471 . S
Eu417 O434 2.347 . S
Eu417 O437 2.366 . S
Eu417 C447 2.825 . S
C418 O434 1.259 . S
C418 O435 1.265 . S
C419 O436 1.255 . S
C419 O437 1.265 . S
C420 C422 1.380 . S
C420 C423 1.374 . S
C420 C426 1.507 . S
C421 C422 1.384 . S
C421 C425 1.387 . S
C421 H448 0.930 . S
C422 C420 1.380 . S
C422 C421 1.384 . S
C422 H449 0.931 . S
C423 C420 1.374 . S
C423 C424 1.390 . S
C423 H450 0.930 . S
C424 C423 1.390 . S
C424 C425 1.391 . S
C424 H451 0.930 . S
C425 C421 1.387 . S
C425 C424 1.391 . S
C426 Tb416 2.825 1_565 S
C426 C420 1.507 . S
C426 O439 1.238 . S
C426 O440 1.247 . S
O427 Tb416 2.347 . S
O427 C431 1.259 . S
O428 Eu417 2.418 . S
O428 C431 1.265 . S
O429 Eu417 2.384 . S
O429 C438 1.255 . S
O430 Tb416 2.381 . S
O430 C438 1.287 . S
C431 O427 1.259 . S
C431 O428 1.265 . S
O432 Eu417 2.479 . S
O432 C447 1.238 . S
O433 Eu417 2.471 . S
O433 C447 1.247 . S
O434 Eu417 2.347 . S
O434 C418 1.259 . S
O435 Tb416 2.418 . S
O435 C418 1.265 . S
O436 Tb416 2.384 . S
O436 C419 1.255 . S
O437 Eu417 2.366 . S
O437 C419 1.265 . S
C438 O429 1.255 . S
C438 O430 1.287 . S
O439 Tb416 2.479 1_565 S
O439 C426 1.238 . S
O440 Tb416 2.471 1_565 S
O440 C426 1.247 . S
C441 C444 1.380 . S
C441 C445 1.374 . S
C441 C447 1.507 . S
C442 C443 1.387 . S
C442 C446 1.391 . S
C443 C442 1.387 . S
C443 C444 1.384 . S
C443 H452 0.930 . S
C444 C441 1.380 . S
C444 C443 1.384 . S
C444 H453 0.931 . S
C445 C441 1.374 . S
C445 C446 1.390 . S
C445 H454 0.930 . S
C446 C442 1.391 . S
C446 C445 1.390 . S
C446 H455 0.930 . S
C447 Eu417 2.825 . S
C447 O432 1.238 . S
C447 O433 1.247 . S
C447 C441 1.507 . S
H448 C421 0.930 . S
H449 C422 0.931 . S
H450 C423 0.930 . S
H451 C424 0.930 . S
H452 C443 0.930 . S
H453 C444 0.931 . S
H454 C445 0.930 . S
H455 C446 0.930 . S
Tb456 C466 2.825 . S
Tb456 O467 2.347 . S
Tb456 O470 2.366 . S
Tb456 O475 2.418 . S
Tb456 O476 2.384 . S
Tb456 O479 2.479 . S
Tb456 O480 2.471 . S
Eu457 O468 2.418 . S
Eu457 O469 2.384 . S
Eu457 O472 2.479 . S
Eu457 O473 2.471 . S
Eu457 O474 2.347 . S
Eu457 O477 2.366 . S
Eu457 C487 2.825 . S
C458 O474 1.259 . S
C458 O475 1.265 . S
C459 O476 1.255 . S
C459 O477 1.265 . S
C460 C462 1.380 . S
C460 C463 1.374 . S
C460 C466 1.507 . S
C461 C462 1.384 . S
C461 C465 1.387 . S
C461 H488 0.930 . S
C462 C460 1.380 . S
C462 C461 1.384 . S
C462 H489 0.931 . S
C463 C460 1.374 . S
C463 C464 1.390 . S
C463 H490 0.930 . S
C464 C463 1.390 . S
C464 C465 1.391 . S
C464 H491 0.930 . S
C465 C461 1.387 . S
C465 C464 1.391 . S
C466 Tb456 2.825 . S
C466 C460 1.507 . S
C466 O479 1.238 . S
C466 O480 1.247 . S
O467 Tb456 2.347 . S
O467 C471 1.259 . S
O468 Eu457 2.418 . S
O468 C471 1.265 . S
O469 Eu457 2.384 . S
O469 C478 1.255 . S
O470 Tb456 2.366 . S
O470 C478 1.265 . S
C471 O467 1.259 . S
C471 O468 1.265 . S
O472 Eu457 2.479 . S
O472 C487 1.238 . S
O473 Eu457 2.471 . S
O473 C487 1.247 . S
O474 Eu457 2.347 . S
O474 C458 1.259 . S
O475 Tb456 2.418 . S
O475 C458 1.265 . S
O476 Tb456 2.384 . S
O476 C459 1.255 . S
O477 Eu457 2.366 . S
O477 C459 1.265 . S
C478 O469 1.255 . S
C478 O470 1.265 . S
O479 Tb456 2.479 . S
O479 C466 1.238 . S
O480 Tb456 2.471 . S
O480 C466 1.247 . S
C481 C484 1.380 . S
C481 C485 1.374 . S
C481 C487 1.507 . S
C482 C483 1.387 . S
C482 C486 1.391 . S
C483 C482 1.387 . S
C483 C484 1.384 . S
C483 H492 0.930 . S
C484 C481 1.380 . S
C484 C483 1.384 . S
C484 H493 0.931 . S
C485 C481 1.374 . S
C485 C486 1.390 . S
C485 H494 0.930 . S
C486 C482 1.391 . S
C486 C485 1.390 . S
C486 H495 0.930 . S
C487 Eu457 2.825 . S
C487 O472 1.238 . S
C487 O473 1.247 . S
C487 C481 1.507 . S
H488 C461 0.930 . S
H489 C462 0.931 . S
H490 C463 0.930 . S
H491 C464 0.930 . S
H492 C483 0.930 . S
H493 C484 0.931 . S
H494 C485 0.930 . S
H495 C486 0.930 . S
Tb496 C506 2.825 . S
Tb496 O507 2.347 . S
Tb496 O510 2.366 . S
Tb496 O515 2.418 . S
Tb496 O516 2.384 1_545 S
Tb496 O519 2.479 . S
Tb496 O520 2.471 . S
Eu497 O508 2.418 . S
Eu497 O509 2.384 . S
Eu497 O512 2.479 . S
Eu497 O513 2.471 . S
Eu497 O514 2.347 . S
Eu497 O517 2.366 . S
Eu497 C527 2.825 . S
C498 O514 1.259 . S
C498 O515 1.265 . S
C499 O516 1.255 . S
C499 O517 1.265 1_565 S
C500 C502 1.380 . S
C500 C503 1.317 1_455 S
C500 C506 1.507 . S
C501 C502 1.384 . S
C501 C505 1.387 . S
C501 H528 0.930 . S
C502 C500 1.380 . S
C502 C501 1.384 . S
C502 H529 0.931 . S
C503 C500 1.317 1_655 S
C503 C504 1.410 . S
C503 H530 0.970 . S
C504 C503 1.410 . S
C504 C505 1.391 1_655 S
C504 H531 0.930 . S
C505 C501 1.387 . S
C505 C504 1.391 1_455 S
C506 Tb496 2.825 . S
C506 C500 1.507 . S
C506 O519 1.238 . S
C506 O520 1.247 . S
O507 Tb496 2.347 . S
O507 C511 1.259 . S
O508 Eu497 2.418 . S
O508 C511 1.265 . S
O509 Eu497 2.384 . S
O509 C518 1.255 . S
O510 Tb496 2.366 . S
O510 C518 1.265 . S
C511 O507 1.259 . S
C511 O508 1.265 . S
O512 Eu497 2.479 . S
O512 C527 1.238 . S
O513 Eu497 2.471 . S
O513 C527 1.247 . S
O514 Eu497 2.347 . S
O514 C498 1.259 . S
O515 Tb496 2.418 . S
O515 C498 1.265 . S
O516 Tb496 2.384 1_565 S
O516 C499 1.255 . S
O517 Eu497 2.366 . S
O517 C499 1.265 1_545 S
C518 O509 1.255 . S
C518 O510 1.265 . S
O519 Tb496 2.479 . S
O519 C506 1.238 . S
O520 Tb496 2.471 . S
O520 C506 1.247 . S
C521 C524 1.380 . S
C521 C525 1.374 . S
C521 C527 1.507 . S
C522 C523 1.387 . S
C522 C526 1.391 . S
C523 C522 1.387 . S
C523 C524 1.384 . S
C523 H532 0.930 . S
C524 C521 1.380 . S
C524 C523 1.384 . S
C524 H533 0.931 . S
C525 C521 1.374 . S
C525 C526 1.390 . S
C525 H534 0.930 . S
C526 C522 1.391 . S
C526 C525 1.390 . S
C526 H535 0.930 . S
C527 Eu497 2.825 . S
C527 O512 1.238 . S
C527 O513 1.247 . S
C527 C521 1.507 . S
H528 C501 0.930 . S
H529 C502 0.931 . S
H530 C503 0.970 . S
H531 C504 0.930 . S
H532 C523 0.930 . S
H533 C524 0.931 . S
H534 C525 0.930 . S
H535 C526 0.930 . S
Tb536 C546 2.825 . S
Tb536 O547 2.347 . S
Tb536 O550 2.366 . S
Tb536 O555 2.418 . S
Tb536 O556 2.384 . S
Tb536 O559 2.479 . S
Tb536 O560 2.471 . S
Eu537 O548 2.418 . S
Eu537 O549 2.384 . S
Eu537 O552 2.479 . S
Eu537 O553 2.471 . S
Eu537 O554 2.347 . S
Eu537 O557 2.366 . S
Eu537 C567 2.825 . S
C538 O554 1.259 . S
C538 O555 1.265 . S
C539 O556 1.255 . S
C539 O557 1.265 . S
C540 C542 1.380 . S
C540 C543 1.374 . S
C540 C546 1.507 . S
C541 C542 1.384 . S
C541 C545 1.387 . S
C541 H568 0.930 . S
C542 C540 1.380 . S
C542 C541 1.384 . S
C542 H569 0.931 . S
C543 C540 1.374 . S
C543 C544 1.390 . S
C543 H570 0.930 . S
C544 C543 1.390 . S
C544 C545 1.391 . S
C544 H571 0.930 . S
C545 C541 1.387 . S
C545 C544 1.391 . S
C546 Tb536 2.825 . S
C546 C540 1.507 . S
C546 O559 1.238 . S
C546 O560 1.247 . S
O547 Tb536 2.347 . S
O547 C551 1.259 . S
O548 Eu537 2.418 . S
O548 C551 1.265 . S
O549 Eu537 2.384 . S
O549 C558 1.255 . S
O550 Tb536 2.366 . S
O550 C558 1.265 . S
C551 O547 1.259 . S
C551 O548 1.265 . S
O552 Eu537 2.479 . S
O552 C567 1.238 . S
O553 Eu537 2.471 . S
O553 C567 1.247 . S
O554 Eu537 2.347 . S
O554 C538 1.259 . S
O555 Tb536 2.418 . S
O555 C538 1.265 . S
O556 Tb536 2.384 . S
O556 C539 1.255 . S
O557 Eu537 2.366 . S
O557 C539 1.265 . S
C558 O549 1.255 . S
C558 O550 1.265 . S
O559 Tb536 2.479 . S
O559 C546 1.238 . S
O560 Tb536 2.471 . S
O560 C546 1.247 . S
C561 C564 1.380 . S
C561 C565 1.374 . S
C561 C567 1.507 . S
C562 C563 1.387 . S
C562 C566 1.391 . S
C563 C562 1.387 . S
C563 C564 1.384 . S
C563 H572 0.930 . S
C564 C561 1.380 . S
C564 C563 1.384 . S
C564 H573 0.931 . S
C565 C561 1.374 . S
C565 C566 1.390 . S
C565 H574 0.930 . S
C566 C562 1.391 . S
C566 C565 1.390 . S
C566 H575 0.930 . S
C567 Eu537 2.825 . S
C567 O552 1.238 . S
C567 O553 1.247 . S
C567 C561 1.507 . S
H568 C541 0.930 . S
H569 C542 0.931 . S
H570 C543 0.930 . S
H571 C544 0.930 . S
H572 C563 0.930 . S
H573 C564 0.931 . S
H574 C565 0.930 . S
H575 C566 0.930 . S
Tb576 C586 2.825 . S
Tb576 O587 2.347 . S
Tb576 O590 2.366 . S
Tb576 O595 2.418 1_545 S
Tb576 O596 2.384 . S
Tb576 O599 2.479 . S
Tb576 O600 2.471 . S
Eu577 O588 2.418 . S
Eu577 O589 2.384 . S
Eu577 O592 2.479 1_554 S
Eu577 O593 2.471 1_554 S
Eu577 O594 2.347 . S
Eu577 O597 2.366 . S
Eu577 C607 2.825 1_554 S
C578 O594 1.259 1_565 S
C578 O595 1.265 . S
C579 O596 1.255 . S
C579 O597 1.265 . S
C580 C582 1.380 1_545 S
C580 C583 1.374 . S
C580 C586 1.507 . S
C581 C582 1.384 . S
C581 C585 1.387 1_565 S
C581 H608 0.930 . S
C582 C580 1.380 1_565 S
C582 C581 1.384 . S
C582 H609 0.931 . S
C583 C580 1.374 . S
C583 C584 1.390 . S
C583 H610 0.930 . S
C584 C583 1.390 . S
C584 C585 1.391 . S
C584 H611 0.930 . S
C585 C581 1.387 1_545 S
C585 C584 1.391 . S
C586 Tb576 2.825 . S
C586 C580 1.507 . S
C586 O599 1.238 . S
C586 O600 1.247 . S
O587 Tb576 2.347 . S
O587 C591 1.259 . S
O588 Eu577 2.418 . S
O588 C591 1.265 . S
O589 Eu577 2.384 . S
O589 C598 1.255 . S
O590 Tb576 2.366 . S
O590 C598 1.265 . S
C591 O587 1.259 . S
C591 O588 1.265 . S
O592 Eu577 2.479 1_556 S
O592 C607 1.238 . S
O593 Eu577 2.471 1_556 S
O593 C607 1.247 . S
O594 Eu577 2.347 . S
O594 C578 1.259 1_545 S
O595 Tb576 2.418 1_565 S
O595 C578 1.265 . S
O596 Tb576 2.384 . S
O596 C579 1.255 . S
O597 Eu577 2.366 . S
O597 C579 1.265 . S
C598 O589 1.255 . S
C598 O590 1.265 . S
O599 Tb576 2.479 . S
O599 C586 1.238 . S
O600 Tb576 2.471 . S
O600 C586 1.247 . S
C601 C604 1.380 . S
C601 C605 1.374 . S
C601 C607 1.507 . S
C602 C603 1.387 . S
C602 C606 1.391 . S
C603 C602 1.387 . S
C603 C604 1.384 . S
C603 H612 0.930 . S
C604 C601 1.380 . S
C604 C603 1.384 . S
C604 H613 0.931 . S
C605 C601 1.374 . S
C605 C606 1.390 . S
C605 H614 0.930 . S
C606 C602 1.391 . S
C606 C605 1.390 . S
C606 H615 0.930 . S
C607 Eu577 2.825 1_556 S
C607 O592 1.238 . S
C607 O593 1.247 . S
C607 C601 1.507 . S
H608 C581 0.930 . S
H609 C582 0.931 . S
H610 C583 0.930 . S
H611 C584 0.930 . S
H612 C603 0.930 . S
H613 C604 0.931 . S
H614 C605 0.930 . S
H615 C606 0.930 . S
Tb616 C626 2.825 . S
Tb616 O627 2.347 . S
Tb616 O630 2.366 . S
Tb616 O635 2.418 . S
Tb616 O636 2.384 . S
Tb616 O639 2.479 . S
Tb616 O640 2.471 . S
Eu617 O628 2.418 . S
Eu617 O629 2.384 . S
Eu617 O632 2.479 . S
Eu617 O633 2.471 . S
Eu617 O634 2.347 . S
Eu617 O637 2.366 . S
Eu617 C647 2.825 . S
C618 O634 1.259 . S
C618 O635 1.265 . S
C619 O636 1.255 . S
C619 O637 1.265 . S
C620 C622 1.380 . S
C620 C623 1.374 . S
C620 C626 1.507 . S
C621 C622 1.384 . S
C621 C625 1.387 . S
C621 H648 0.930 . S
C622 C620 1.380 . S
C622 C621 1.384 . S
C622 H649 0.931 . S
C623 C620 1.374 . S
C623 C624 1.390 . S
C623 H650 0.930 . S
C624 C623 1.390 . S
C624 C625 1.391 . S
C624 H651 0.930 . S
C625 C621 1.387 . S
C625 C624 1.391 . S
C626 Tb616 2.825 . S
C626 C620 1.507 . S
C626 O639 1.238 . S
C626 O640 1.247 . S
O627 Tb616 2.347 . S
O627 C631 1.259 . S
O628 Eu617 2.418 . S
O628 C631 1.265 . S
O629 Eu617 2.384 . S
O629 C638 1.255 . S
O630 Tb616 2.366 . S
O630 C638 1.265 . S
C631 O627 1.259 . S
C631 O628 1.265 . S
O632 Eu617 2.479 . S
O632 C647 1.238 . S
O633 Eu617 2.471 . S
O633 C647 1.247 . S
O634 Eu617 2.347 . S
O634 C618 1.259 . S
O635 Tb616 2.418 . S
O635 C618 1.265 . S
O636 Tb616 2.384 . S
O636 C619 1.255 . S
O637 Eu617 2.366 . S
O637 C619 1.265 . S
C638 O629 1.255 . S
C638 O630 1.265 . S
O639 Tb616 2.479 . S
O639 C626 1.238 . S
O640 Tb616 2.471 . S
O640 C626 1.247 . S
C641 C644 1.380 . S
C641 C645 1.374 . S
C641 C647 1.507 . S
C642 C643 1.387 . S
C642 C646 1.391 . S
C643 C642 1.387 . S
C643 C644 1.384 . S
C643 H652 0.930 . S
C644 C641 1.380 . S
C644 C643 1.384 . S
C644 H653 0.931 . S
C645 C641 1.374 . S
C645 C646 1.390 . S
C645 H654 0.930 . S
C646 C642 1.391 . S
C646 C645 1.390 . S
C646 H655 0.930 . S
C647 Eu617 2.825 . S
C647 O632 1.238 . S
C647 O633 1.247 . S
C647 C641 1.507 . S
H648 C621 0.930 . S
H649 C622 0.931 . S
H650 C623 0.930 . S
H651 C624 0.930 . S
H652 C643 0.930 . S
H653 C644 0.931 . S
H654 C645 0.930 . S
H655 C646 0.930 . S
Tb656 C666 2.825 1_554 S
Tb656 O667 2.347 . S
Tb656 O670 2.366 . S
Tb656 O675 2.418 . S
Tb656 O676 2.384 . S
Tb656 O679 2.479 1_554 S
Tb656 O680 2.471 1_554 S
Eu657 O668 2.418 . S
Eu657 O669 2.384 . S
Eu657 O672 2.479 . S
Eu657 O673 2.471 . S
Eu657 O674 2.347 . S
Eu657 O677 2.366 . S
Eu657 C687 2.825 . S
C658 O674 1.259 . S
C658 O675 1.265 . S
C659 O676 1.255 . S
C659 O677 1.265 . S
C660 C662 1.380 . S
C660 C663 1.374 . S
C660 C666 1.507 . S
C661 C662 1.384 . S
C661 C665 1.387 . S
C661 H688 0.930 . S
C662 C660 1.380 . S
C662 C661 1.384 . S
C662 H689 0.931 . S
C663 C660 1.374 . S
C663 C664 1.390 . S
C663 H690 0.930 . S
C664 C663 1.390 . S
C664 C665 1.391 . S
C664 H691 0.930 . S
C665 C661 1.387 . S
C665 C664 1.391 . S
C666 Tb656 2.825 1_556 S
C666 C660 1.507 . S
C666 O679 1.238 . S
C666 O680 1.247 . S
O667 Tb656 2.347 . S
O667 C671 1.259 . S
O668 Eu657 2.418 . S
O668 C671 1.265 . S
O669 Eu657 2.384 . S
O669 C678 1.255 . S
O670 Tb656 2.366 . S
O670 C678 1.265 . S
C671 O667 1.259 . S
C671 O668 1.265 . S
O672 Eu657 2.479 . S
O672 C687 1.238 . S
O673 Eu657 2.471 . S
O673 C687 1.247 . S
O674 Eu657 2.347 . S
O674 C658 1.259 . S
O675 Tb656 2.418 . S
O675 C658 1.265 . S
O676 Tb656 2.384 . S
O676 C659 1.255 . S
O677 Eu657 2.366 . S
O677 C659 1.265 . S
C678 O669 1.255 . S
C678 O670 1.265 . S
O679 Tb656 2.479 1_556 S
O679 C666 1.238 . S
O680 Tb656 2.471 1_556 S
O680 C666 1.247 . S
C681 C684 1.380 . S
C681 C685 1.374 . S
C681 C687 1.507 . S
C682 C683 1.387 . S
C682 C686 1.391 . S
C683 C682 1.387 . S
C683 C684 1.384 . S
C683 H692 0.930 . S
C684 C681 1.380 . S
C684 C683 1.384 . S
C684 H693 0.931 . S
C685 C681 1.374 . S
C685 C686 1.390 . S
C685 H694 0.930 . S
C686 C682 1.391 . S
C686 C685 1.390 . S
C686 H695 0.930 . S
C687 Eu657 2.825 . S
C687 O672 1.238 . S
C687 O673 1.247 . S
C687 C681 1.507 . S
H688 C661 0.930 . S
H689 C662 0.931 . S
H690 C663 0.930 . S
H691 C664 0.930 . S
H692 C683 0.930 . S
H693 C684 0.931 . S
H694 C685 0.930 . S
H695 C686 0.930 . S
Tb696 C706 2.825 . S
Tb696 O707 2.347 . S
Tb696 O710 2.366 . S
Tb696 O715 2.418 . S
Tb696 O716 2.384 . S
Tb696 O719 2.479 . S
Tb696 O720 2.471 . S
Eu697 O708 2.418 . S
Eu697 O709 2.384 . S
Eu697 O712 2.479 . S
Eu697 O713 2.471 . S
Eu697 O714 2.347 . S
Eu697 O717 2.366 . S
Eu697 C727 2.825 . S
C698 O714 1.259 . S
C698 O715 1.265 . S
C699 O716 1.255 . S
C699 O717 1.265 . S
C700 C702 1.380 . S
C700 C703 1.374 . S
C700 C706 1.507 . S
C701 C702 1.384 . S
C701 C705 1.387 . S
C701 H728 0.930 . S
C702 C700 1.380 . S
C702 C701 1.384 . S
C702 H729 0.931 . S
C703 C700 1.374 . S
C703 C704 1.390 . S
C703 H730 0.930 . S
C704 C703 1.390 . S
C704 C705 1.391 . S
C704 H731 0.930 . S
C705 C701 1.387 . S
C705 C704 1.391 . S
C706 Tb696 2.825 . S
C706 C700 1.507 . S
C706 O719 1.238 . S
C706 O720 1.247 . S
O707 Tb696 2.347 . S
O707 C711 1.259 . S
O708 Eu697 2.418 . S
O708 C711 1.265 . S
O709 Eu697 2.384 . S
O709 C718 1.255 . S
O710 Tb696 2.366 . S
O710 C718 1.265 . S
C711 O707 1.259 . S
C711 O708 1.265 . S
O712 Eu697 2.479 . S
O712 C727 1.238 . S
O713 Eu697 2.471 . S
O713 C727 1.247 . S
O714 Eu697 2.347 . S
O714 C698 1.259 . S
O715 Tb696 2.418 . S
O715 C698 1.265 . S
O716 Tb696 2.384 . S
O716 C699 1.255 . S
O717 Eu697 2.366 . S
O717 C699 1.265 . S
C718 O709 1.255 . S
C718 O710 1.265 . S
O719 Tb696 2.479 . S
O719 C706 1.238 . S
O720 Tb696 2.471 . S
O720 C706 1.247 . S
C721 C724 1.380 . S
C721 C725 1.374 . S
C721 C727 1.507 . S
C722 C723 1.387 . S
C722 C726 1.391 . S
C723 C722 1.387 . S
C723 C724 1.384 . S
C723 H732 0.930 . S
C724 C721 1.380 . S
C724 C723 1.384 . S
C724 H733 0.931 . S
C725 C721 1.374 . S
C725 C726 1.390 . S
C725 H734 0.930 . S
C726 C722 1.391 . S
C726 C725 1.390 . S
C726 H735 0.930 . S
C727 Eu697 2.825 . S
C727 O712 1.238 . S
C727 O713 1.247 . S
C727 C721 1.507 . S
H728 C701 0.930 . S
H729 C702 0.931 . S
H730 C703 0.930 . S
H731 C704 0.930 . S
H732 C723 0.930 . S
H733 C724 0.931 . S
H734 C725 0.930 . S
H735 C726 0.930 . S
Tb736 C746 2.825 . S
Tb736 O747 2.347 . S
Tb736 O750 2.366 . S
Tb736 O755 2.418 . S
Tb736 O756 2.384 . S
Tb736 O759 2.479 . S
Tb736 O760 2.471 . S
Eu737 O748 2.418 . S
Eu737 O749 2.384 1_455 S
Eu737 O752 2.479 . S
Eu737 O753 2.471 . S
Eu737 O754 2.347 . S
Eu737 O757 2.366 . S
Eu737 C767 2.825 . S
C738 O754 1.259 . S
C738 O755 1.265 . S
C739 O756 1.255 . S
C739 O757 1.265 . S
C740 C742 1.380 . S
C740 C743 1.374 . S
C740 C746 1.507 . S
C741 C742 1.384 . S
C741 C745 1.387 1_455 S
C741 H768 0.930 . S
C742 C740 1.380 . S
C742 C741 1.384 . S
C742 H769 0.931 . S
C743 C740 1.374 . S
C743 C744 1.390 1_455 S
C743 H770 0.924 1_455 S
C744 C743 1.390 1_655 S
C744 C745 1.391 . S
C744 H771 0.930 . S
C745 C741 1.387 1_655 S
C745 C744 1.391 . S
C746 Tb736 2.825 . S
C746 C740 1.507 . S
C746 O759 1.238 . S
C746 O760 1.247 . S
O747 Tb736 2.347 . S
O747 C751 1.259 . S
O748 Eu737 2.418 . S
O748 C751 1.265 . S
O749 Eu737 2.384 1_655 S
O749 C758 1.255 . S
O750 Tb736 2.366 . S
O750 C758 1.265 1_455 S
C751 O747 1.259 . S
C751 O748 1.265 . S
O752 Eu737 2.479 . S
O752 C767 1.238 . S
O753 Eu737 2.471 . S
O753 C767 1.247 . S
O754 Eu737 2.347 . S
O754 C738 1.259 . S
O755 Tb736 2.418 . S
O755 C738 1.265 . S
O756 Tb736 2.384 . S
O756 C739 1.255 . S
O757 Eu737 2.366 . S
O757 C739 1.265 . S
C758 O749 1.255 . S
C758 O750 1.265 1_655 S
O759 Tb736 2.479 . S
O759 C746 1.238 . S
O760 Tb736 2.471 . S
O760 C746 1.247 . S
C761 C764 1.380 . S
C761 C765 1.374 . S
C761 C767 1.507 . S
C762 C763 1.387 . S
C762 C766 1.391 . S
C763 C762 1.387 . S
C763 C764 1.384 . S
C763 H772 0.930 . S
C764 C761 1.380 . S
C764 C763 1.384 . S
C764 H773 0.931 . S
C765 C761 1.374 . S
C765 C766 1.390 . S
C765 H774 0.930 . S
C766 C762 1.391 . S
C766 C765 1.390 . S
C766 H775 0.930 . S
C767 Eu737 2.825 . S
C767 O752 1.238 . S
C767 O753 1.247 . S
C767 C761 1.507 . S
H768 C741 0.930 . S
H769 C742 0.931 . S
H770 C743 0.924 1_655 S
H771 C744 0.930 . S
H772 C763 0.930 . S
H773 C764 0.931 . S
H774 C765 0.930 . S
H775 C766 0.930 . S
Tb776 C786 2.825 . S
Tb776 O787 2.347 . S
Tb776 O790 2.366 . S
Tb776 O795 2.418 . S
Tb776 O796 2.384 . S
Tb776 O799 2.479 . S
Tb776 O800 2.471 . S
Eu777 O788 2.418 . S
Eu777 O789 2.384 . S
Eu777 O792 2.479 . S
Eu777 O793 2.471 . S
Eu777 O794 2.347 . S
Eu777 O797 2.366 . S
Eu777 C807 2.825 . S
C778 O794 1.259 . S
C778 O795 1.265 . S
C779 O796 1.255 . S
C779 O797 1.265 . S
C780 C782 1.380 . S
C780 C783 1.374 . S
C780 C786 1.507 . S
C781 C782 1.384 . S
C781 C785 1.387 . S
C781 H808 0.930 . S
C782 C780 1.380 . S
C782 C781 1.384 . S
C782 H809 0.931 . S
C783 C780 1.374 . S
C783 C784 1.390 . S
C783 H810 0.930 . S
C784 C783 1.390 . S
C784 C785 1.391 . S
C784 H811 0.930 . S
C785 C781 1.387 . S
C785 C784 1.391 . S
C786 Tb776 2.825 . S
C786 C780 1.507 . S
C786 O799 1.238 . S
C786 O800 1.247 . S
O787 Tb776 2.347 . S
O787 C791 1.259 . S
O788 Eu777 2.418 . S
O788 C791 1.265 . S
O789 Eu777 2.384 . S
O789 C798 1.255 . S
O790 Tb776 2.366 . S
O790 C798 1.265 . S
C791 O787 1.259 . S
C791 O788 1.265 . S
O792 Eu777 2.479 . S
O792 C807 1.238 . S
O793 Eu777 2.471 . S
O793 C807 1.247 . S
O794 Eu777 2.347 . S
O794 C778 1.259 . S
O795 Tb776 2.418 . S
O795 C778 1.265 . S
O796 Tb776 2.384 . S
O796 C779 1.255 . S
O797 Eu777 2.366 . S
O797 C779 1.265 . S
C798 O789 1.255 . S
C798 O790 1.265 . S
O799 Tb776 2.479 . S
O799 C786 1.238 . S
O800 Tb776 2.471 . S
O800 C786 1.247 . S
C801 C804 1.380 . S
C801 C805 1.374 . S
C801 C807 1.507 . S
C802 C803 1.387 . S
C802 C806 1.391 . S
C803 C802 1.387 . S
C803 C804 1.384 . S
C803 H812 0.930 . S
C804 C801 1.380 . S
C804 C803 1.384 . S
C804 H813 0.931 . S
C805 C801 1.374 . S
C805 C806 1.390 . S
C805 H814 0.930 . S
C806 C802 1.391 . S
C806 C805 1.390 . S
C806 H815 0.930 . S
C807 Eu777 2.825 . S
C807 O792 1.238 . S
C807 O793 1.247 . S
C807 C801 1.507 . S
H808 C781 0.930 . S
H809 C782 0.931 . S
H810 C783 0.930 . S
H811 C784 0.930 . S
H812 C803 0.930 . S
H813 C804 0.931 . S
H814 C805 0.930 . S
H815 C806 0.930 . S
Tb816 C826 2.825 . S
Tb816 O827 2.347 . S
Tb816 O830 2.366 . S
Tb816 O835 2.418 . S
Tb816 O836 2.384 . S
Tb816 O839 2.479 . S
Tb816 O840 2.471 . S
Eu817 O828 2.418 . S
Eu817 O829 2.384 . S
Eu817 O832 2.479 . S
Eu817 O833 2.471 . S
Eu817 O834 2.347 . S
Eu817 O837 2.366 . S
Eu817 C847 2.825 . S
C818 O834 1.259 . S
C818 O835 1.265 . S
C819 O836 1.255 . S
C819 O837 1.265 . S
C820 C822 1.380 . S
C820 C823 1.374 . S
C820 C826 1.507 . S
C821 C822 1.384 . S
C821 C825 1.387 . S
C821 H848 0.930 . S
C822 C820 1.380 . S
C822 C821 1.384 . S
C822 H849 0.931 . S
C823 C820 1.374 . S
C823 C824 1.390 . S
C823 H850 0.930 . S
C824 C823 1.390 . S
C824 C825 1.391 . S
C824 H851 0.930 . S
C825 C821 1.387 . S
C825 C824 1.391 . S
C826 Tb816 2.825 . S
C826 C820 1.507 . S
C826 O839 1.238 . S
C826 O840 1.247 . S
O827 Tb816 2.347 . S
O827 C831 1.259 . S
O828 Eu817 2.418 . S
O828 C831 1.265 . S
O829 Eu817 2.384 . S
O829 C838 1.255 . S
O830 Tb816 2.366 . S
O830 C838 1.265 . S
C831 O827 1.259 . S
C831 O828 1.265 . S
O832 Eu817 2.479 . S
O832 C847 1.238 . S
O833 Eu817 2.471 . S
O833 C847 1.247 . S
O834 Eu817 2.347 . S
O834 C818 1.259 . S
O835 Tb816 2.418 . S
O835 C818 1.265 . S
O836 Tb816 2.384 . S
O836 C819 1.255 . S
O837 Eu817 2.366 . S
O837 C819 1.265 . S
C838 O829 1.255 . S
C838 O830 1.265 . S
O839 Tb816 2.479 . S
O839 C826 1.238 . S
O840 Tb816 2.471 . S
O840 C826 1.247 . S
C841 C844 1.380 . S
C841 C845 1.374 . S
C841 C847 1.507 . S
C842 C843 1.387 . S
C842 C846 1.391 . S
C843 C842 1.387 . S
C843 C844 1.384 . S
C843 H852 0.930 . S
C844 C841 1.380 . S
C844 C843 1.384 . S
C844 H853 0.931 . S
C845 C841 1.374 . S
C845 C846 1.390 . S
C845 H854 0.930 . S
C846 C842 1.391 . S
C846 C845 1.390 . S
C846 H855 0.930 . S
C847 Eu817 2.825 . S
C847 O832 1.238 . S
C847 O833 1.247 . S
C847 C841 1.507 . S
H848 C821 0.930 . S
H849 C822 0.931 . S
H850 C823 0.930 . S
H851 C824 0.930 . S
H852 C843 0.930 . S
H853 C844 0.931 . S
H854 C845 0.930 . S
H855 C846 0.930 . S
Tb856 C866 2.825 . S
Tb856 O867 2.347 . S
Tb856 O870 2.366 . S
Tb856 O875 2.418 . S
Tb856 O876 2.384 . S
Tb856 O879 2.479 . S
Tb856 O880 2.471 . S
Eu857 O868 2.418 . S
Eu857 O869 2.384 . S
Eu857 O872 2.479 . S
Eu857 O873 2.471 . S
Eu857 O874 2.347 . S
Eu857 O877 2.366 . S
Eu857 C887 2.825 . S
C858 O874 1.259 . S
C858 O875 1.265 . S
C859 O876 1.255 . S
C859 O877 1.265 . S
C860 C862 1.380 . S
C860 C863 1.374 . S
C860 C866 1.507 . S
C861 C862 1.384 . S
C861 C865 1.387 . S
C861 H888 0.930 . S
C862 C860 1.380 . S
C862 C861 1.384 . S
C862 H889 0.931 . S
C863 C860 1.374 . S
C863 C864 1.390 . S
C863 H890 0.930 . S
C864 C863 1.390 . S
C864 C865 1.391 . S
C864 H891 0.930 . S
C865 C861 1.387 . S
C865 C864 1.391 . S
C866 Tb856 2.825 . S
C866 C860 1.507 . S
C866 O879 1.238 . S
C866 O880 1.247 . S
O867 Tb856 2.347 . S
O867 C871 1.259 . S
O868 Eu857 2.418 . S
O868 C871 1.265 . S
O869 Eu857 2.384 . S
O869 C878 1.255 . S
O870 Tb856 2.366 . S
O870 C878 1.265 . S
C871 O867 1.259 . S
C871 O868 1.265 . S
O872 Eu857 2.479 . S
O872 C887 1.238 . S
O873 Eu857 2.471 . S
O873 C887 1.247 . S
O874 Eu857 2.347 . S
O874 C858 1.259 . S
O875 Tb856 2.418 . S
O875 C858 1.265 . S
O876 Tb856 2.384 . S
O876 C859 1.255 . S
O877 Eu857 2.366 . S
O877 C859 1.265 . S
C878 O869 1.255 . S
C878 O870 1.265 . S
O879 Tb856 2.479 . S
O879 C866 1.238 . S
O880 Tb856 2.471 . S
O880 C866 1.247 . S
C881 C884 1.380 . S
C881 C885 1.374 . S
C881 C887 1.507 . S
C882 C883 1.387 . S
C882 C886 1.391 . S
C883 C882 1.387 . S
C883 C884 1.384 . S
C883 H892 0.930 . S
C884 C881 1.380 . S
C884 C883 1.384 . S
C884 H893 0.931 . S
C885 C881 1.374 . S
C885 C886 1.390 . S
C885 H894 0.930 . S
C886 C882 1.391 . S
C886 C885 1.390 . S
C886 H895 0.930 . S
C887 Eu857 2.825 . S
C887 O872 1.238 . S
C887 O873 1.247 . S
C887 C881 1.507 . S
H888 C861 0.930 . S
H889 C862 0.931 . S
H890 C863 0.930 . S
H891 C864 0.930 . S
H892 C883 0.930 . S
H893 C884 0.931 . S
H894 C885 0.930 . S
H895 C886 0.930 . S
Tb896 C906 2.825 . S
Tb896 O907 2.347 . S
Tb896 O910 2.366 . S
Tb896 O915 2.418 . S
Tb896 O916 2.384 . S
Tb896 O919 2.479 . S
Tb896 O920 2.471 . S
Eu897 O908 2.418 . S
Eu897 O909 2.384 . S
Eu897 O912 2.479 . S
Eu897 O913 2.471 . S
Eu897 O914 2.347 . S
Eu897 O917 2.366 . S
Eu897 C927 2.825 . S
C898 O914 1.259 . S
C898 O915 1.265 . S
C899 O916 1.255 . S
C899 O917 1.265 . S
C900 C902 1.380 . S
C900 C903 1.374 . S
C900 C906 1.507 . S
C901 C902 1.384 . S
C901 C905 1.387 . S
C901 H928 0.930 . S
C902 C900 1.380 . S
C902 C901 1.384 . S
C902 H929 0.931 . S
C903 C900 1.374 . S
C903 C904 1.390 . S
C903 H930 0.930 . S
C904 C903 1.390 . S
C904 C905 1.391 . S
C904 H931 0.930 . S
C905 C901 1.387 . S
C905 C904 1.391 . S
C906 Tb896 2.825 . S
C906 C900 1.507 . S
C906 O919 1.238 . S
C906 O920 1.247 . S
O907 Tb896 2.347 . S
O907 C911 1.259 . S
O908 Eu897 2.418 . S
O908 C911 1.265 . S
O909 Eu897 2.384 . S
O909 C918 1.255 . S
O910 Tb896 2.366 . S
O910 C918 1.265 . S
C911 O907 1.259 . S
C911 O908 1.265 . S
O912 Eu897 2.479 . S
O912 C927 1.238 . S
O913 Eu897 2.471 . S
O913 C927 1.247 . S
O914 Eu897 2.347 . S
O914 C898 1.259 . S
O915 Tb896 2.418 . S
O915 C898 1.265 . S
O916 Tb896 2.384 . S
O916 C899 1.255 . S
O917 Eu897 2.366 . S
O917 C899 1.265 . S
C918 O909 1.255 . S
C918 O910 1.265 . S
O919 Tb896 2.479 . S
O919 C906 1.238 . S
O920 Tb896 2.471 . S
O920 C906 1.247 . S
C921 C924 1.380 . S
C921 C925 1.374 . S
C921 C927 1.507 . S
C922 C923 1.387 . S
C922 C926 1.391 . S
C923 C922 1.387 . S
C923 C924 1.384 . S
C923 H932 0.930 . S
C924 C921 1.380 . S
C924 C923 1.384 . S
C924 H933 0.931 . S
C925 C921 1.374 . S
C925 C926 1.390 . S
C925 H934 0.930 . S
C926 C922 1.391 . S
C926 C925 1.390 . S
C926 H935 0.930 . S
C927 Eu897 2.825 . S
C927 O912 1.238 . S
C927 O913 1.247 . S
C927 C921 1.507 . S
H928 C901 0.930 . S
H929 C902 0.931 . S
H930 C903 0.930 . S
H931 C904 0.930 . S
H932 C923 0.930 . S
H933 C924 0.931 . S
H934 C925 0.930 . S
H935 C926 0.930 . S
Tb936 C946 2.825 . S
Tb936 O947 2.347 . S
Tb936 O950 2.366 . S
Tb936 O955 2.418 . S
Tb936 O956 2.384 . S
Tb936 O959 2.479 . S
Tb936 O960 2.471 . S
Eu937 O948 2.418 . S
Eu937 O949 2.384 . S
Eu937 O952 2.479 . S
Eu937 O953 2.471 . S
Eu937 O954 2.347 . S
Eu937 O957 2.366 . S
Eu937 C967 2.825 . S
C938 O954 1.259 . S
C938 O955 1.265 . S
C939 O956 1.255 . S
C939 O957 1.265 . S
C940 C942 1.380 . S
C940 C943 1.374 . S
C940 C946 1.507 . S
C941 C942 1.384 . S
C941 C945 1.387 . S
C941 H968 0.930 . S
C942 C940 1.380 . S
C942 C941 1.384 . S
C942 H969 0.931 . S
C943 C940 1.374 . S
C943 C944 1.390 1_554 S
C943 H970 0.924 1_554 S
C944 C943 1.390 1_556 S
C944 C945 1.391 1_556 S
C944 H971 0.930 . S
C945 C941 1.387 . S
C945 C944 1.391 1_554 S
C946 Tb936 2.825 . S
C946 C940 1.507 . S
C946 O959 1.238 . S
C946 O960 1.247 . S
O947 Tb936 2.347 . S
O947 C951 1.259 . S
O948 Eu937 2.418 . S
O948 C951 1.265 . S
O949 Eu937 2.384 . S
O949 C958 1.255 . S
O950 Tb936 2.366 . S
O950 C958 1.265 . S
C951 O947 1.259 . S
C951 O948 1.265 . S
O952 Eu937 2.479 . S
O952 C967 1.238 . S
O953 Eu937 2.471 . S
O953 C967 1.247 . S
O954 Eu937 2.347 . S
O954 C938 1.259 . S
O955 Tb936 2.418 . S
O955 C938 1.265 . S
O956 Tb936 2.384 . S
O956 C939 1.255 . S
O957 Eu937 2.366 . S
O957 C939 1.265 . S
C958 O949 1.255 . S
C958 O950 1.265 . S
O959 Tb936 2.479 . S
O959 C946 1.238 . S
O960 Tb936 2.471 . S
O960 C946 1.247 . S
C961 C964 1.380 . S
C961 C965 1.374 . S
C961 C967 1.507 . S
C962 C963 1.387 . S
C962 C966 1.391 . S
C963 C962 1.387 . S
C963 C964 1.384 . S
C963 H972 0.930 . S
C964 C961 1.380 . S
C964 C963 1.384 . S
C964 H973 0.931 . S
C965 C961 1.374 . S
C965 C966 1.390 . S
C965 H974 0.930 . S
C966 C962 1.391 . S
C966 C965 1.390 . S
C966 H975 0.930 . S
C967 Eu937 2.825 . S
C967 O952 1.238 . S
C967 O953 1.247 . S
C967 C961 1.507 . S
H968 C941 0.930 . S
H969 C942 0.931 . S
H970 C943 0.924 1_556 S
H971 C944 0.930 . S
H972 C963 0.930 . S
H973 C964 0.931 . S
H974 C965 0.930 . S
H975 C966 0.930 . S
H976 C994 0.951 . S
H977 C996 0.951 . S
H978 C998 0.950 . S
H979 C999 0.950 . S
H980 C1001 0.950 . S
H981 C1004 0.950 . S
H982 C1005 0.950 . S
H983 C1007 0.950 . S
H984 C1008 0.950 . S
H985 C1009 0.951 . S
H986 C1011 0.951 . S
H987 C1013 0.939 1_655 S
H988 C1014 0.950 . S
H989 C1016 0.932 1_655 S
H990 C1019 0.950 . S
H991 C1020 0.950 . S
H992 C1022 0.950 . S
H993 C1023 0.950 . S
C994 H976 0.951 . S
C994 C995 1.366 . S
C994 C996 1.388 . S
C995 C994 1.366 . S
C995 C999 1.385 1_655 S
C996 H977 0.951 . S
C996 C994 1.388 . S
C996 C997 1.366 1_655 S
C997 C996 1.366 1_455 S
C997 C998 1.414 . S
C997 C1000 1.499 . S
C998 H978 0.950 . S
C998 C997 1.414 . S
C998 C999 1.374 . S
C999 H979 0.950 . S
C999 C995 1.385 1_455 S
C999 C998 1.374 . S
C1000 C997 1.499 . S
C1000 C1001 1.373 . S
C1000 C1002 1.389 1_455 S
C1001 H980 0.950 . S
C1001 C1000 1.373 . S
C1001 C1017 1.377 . S
C1002 C1000 1.389 1_655 S
C1002 C1003 1.524 . S
C1002 C1016 1.368 1_655 S
C1003 C1002 1.524 . S
C1003 C1004 1.397 . S
C1003 C1008 1.363 . S
C1004 H981 0.950 . S
C1004 C1003 1.397 . S
C1004 C1005 1.334 . S
C1005 H982 0.950 . S
C1005 C1004 1.334 . S
C1005 C1006 1.287 . S
C1006 C1005 1.287 . S
C1006 C1007 1.524 . S
C1006 H1025 0.913 . S
C1007 H983 0.950 . S
C1007 C1006 1.524 . S
C1007 C1008 1.415 . S
C1008 H984 0.950 . S
C1008 C1003 1.363 . S
C1008 C1007 1.415 . S
C1009 H985 0.951 . S
C1009 C1010 1.366 . S
C1009 C1011 1.388 . S
C1010 C1009 1.366 . S
C1010 C1014 1.385 . S
C1011 H986 0.951 . S
C1011 C1009 1.388 . S
C1011 C1012 1.366 1_554 S
C1012 C1011 1.366 1_556 S
C1012 C1013 1.414 . S
C1012 C1015 1.499 . S
C1013 H987 0.939 1_455 S
C1013 C1012 1.414 . S
C1013 C1014 1.374 1_556 S
C1014 H988 0.950 . S
C1014 C1010 1.385 . S
C1014 C1013 1.374 1_554 S
C1015 C1012 1.499 . S
C1015 C1016 1.401 . S
C1015 C1017 1.389 . S
C1016 H989 0.932 1_455 S
C1016 C1002 1.368 1_455 S
C1016 C1015 1.401 . S
C1017 C1001 1.377 . S
C1017 C1015 1.389 . S
C1017 C1018 1.524 . S
C1018 C1017 1.524 . S
C1018 C1019 1.397 . S
C1018 C1023 1.363 . S
C1019 H990 0.950 . S
C1019 C1018 1.397 . S
C1019 C1020 1.334 . S
C1020 H991 0.950 . S
C1020 C1019 1.334 . S
C1020 C1021 1.287 . S
C1021 C1020 1.287 . S
C1021 C1022 1.524 . S
C1021 H1024 0.999 . S
C1022 H992 0.950 . S
C1022 C1021 1.524 . S
C1022 C1023 1.415 . S
C1023 H993 0.950 . S
C1023 C1018 1.363 . S
C1023 C1022 1.415 . S
H1024 C1021 0.999 . S
H1025 C1006 0.913 . S
H1026 C1044 0.951 . S
H1027 C1046 0.951 . S
H1028 C1048 0.950 . S
H1029 C1049 0.950 . S
H1030 C1051 0.950 . S
H1031 C1054 0.950 . S
H1032 C1055 0.950 . S
H1033 C1057 0.950 . S
H1034 C1058 0.950 . S
H1035 C1059 0.951 . S
H1036 C1061 0.951 . S
H1037 C1063 0.950 . S
H1038 C1064 0.950 . S
H1039 C1066 0.950 . S
H1040 C1069 0.950 . S
H1041 C1070 0.950 . S
H1042 C1072 0.950 . S
H1043 C1073 0.950 . S
C1044 H1026 0.951 . S
C1044 C1045 1.366 . S
C1044 C1046 1.388 . S
C1045 C1044 1.366 . S
C1045 C1049 1.385 . S
C1046 H1027 0.951 . S
C1046 C1044 1.388 . S
C1046 C1047 1.366 . S
C1047 C1046 1.366 . S
C1047 C1048 1.414 . S
C1047 C1050 1.499 . S
C1048 H1028 0.950 . S
C1048 C1047 1.414 . S
C1048 C1049 1.374 . S
C1049 H1029 0.950 . S
C1049 C1045 1.385 . S
C1049 C1048 1.374 . S
C1050 C1047 1.499 . S
C1050 C1051 1.373 . S
C1050 C1052 1.389 . S
C1051 H1030 0.950 . S
C1051 C1050 1.373 . S
C1051 C1067 1.377 . S
C1052 C1050 1.389 . S
C1052 C1053 1.524 . S
C1052 C1066 1.377 . S
C1053 C1052 1.524 . S
C1053 C1054 1.397 . S
C1053 C1058 1.363 . S
C1054 H1031 0.950 . S
C1054 C1053 1.397 . S
C1054 C1055 1.334 . S
C1055 H1032 0.950 . S
C1055 C1054 1.334 . S
C1055 C1056 1.287 . S
C1056 C1055 1.287 . S
C1056 C1057 1.524 . S
C1056 H1075 0.913 . S
C1057 H1033 0.950 . S
C1057 C1056 1.524 . S
C1057 C1058 1.415 . S
C1058 H1034 0.950 . S
C1058 C1053 1.363 . S
C1058 C1057 1.415 . S
C1059 H1035 0.951 . S
C1059 C1060 1.366 . S
C1059 C1061 1.388 . S
C1060 C1059 1.366 . S
C1060 C1064 1.385 . S
C1061 H1036 0.951 . S
C1061 C1059 1.388 . S
C1061 C1062 1.366 . S
C1062 C1061 1.366 . S
C1062 C1063 1.414 . S
C1062 C1065 1.499 . S
C1063 H1037 0.950 . S
C1063 C1062 1.414 . S
C1063 C1064 1.374 . S
C1064 H1038 0.950 . S
C1064 C1060 1.385 . S
C1064 C1063 1.374 . S
C1065 C1062 1.499 . S
C1065 C1066 1.373 . S
C1065 C1067 1.389 . S
C1066 H1039 0.950 . S
C1066 C1052 1.377 . S
C1066 C1065 1.373 . S
C1067 C1051 1.377 . S
C1067 C1065 1.389 . S
C1067 C1068 1.524 . S
C1068 C1067 1.524 . S
C1068 C1069 1.397 . S
C1068 C1073 1.363 . S
C1069 H1040 0.950 . S
C1069 C1068 1.397 . S
C1069 C1070 1.334 . S
C1070 H1041 0.950 . S
C1070 C1069 1.334 . S
C1070 C1071 1.287 . S
C1071 C1070 1.287 . S
C1071 C1072 1.524 . S
C1071 H1074 0.999 . S
C1072 H1042 0.950 . S
C1072 C1071 1.524 . S
C1072 C1073 1.415 . S
C1073 H1043 0.950 . S
C1073 C1068 1.363 . S
C1073 C1072 1.415 . S
H1074 C1071 0.999 . S
H1075 C1056 0.913 . S
H1076 C1094 0.951 . S
H1077 C1096 0.951 . S
H1078 C1098 0.950 . S
H1079 C1099 0.950 . S
H1080 C1101 0.950 . S
H1081 C1104 0.950 . S
H1082 C1105 0.950 . S
H1083 C1107 0.950 . S
H1084 C1108 0.950 . S
H1085 C1109 0.951 . S
H1086 C1111 0.951 . S
H1087 C1113 0.950 . S
H1088 C1114 0.950 . S
H1089 C1116 0.950 . S
H1090 C1119 0.950 . S
H1091 C1120 0.950 . S
H1092 C1122 0.950 . S
H1093 C1123 0.950 . S
C1094 H1076 0.951 . S
C1094 C1095 1.366 . S
C1094 C1096 1.388 . S
C1095 C1094 1.366 . S
C1095 C1099 1.385 . S
C1096 H1077 0.951 . S
C1096 C1094 1.388 . S
C1096 C1097 1.366 . S
C1097 C1096 1.366 . S
C1097 C1098 1.414 . S
C1097 C1100 1.499 . S
C1098 H1078 0.950 . S
C1098 C1097 1.414 . S
C1098 C1099 1.374 . S
C1099 H1079 0.950 . S
C1099 C1095 1.385 . S
C1099 C1098 1.374 . S
C1100 C1097 1.499 . S
C1100 C1101 1.373 . S
C1100 C1102 1.389 . S
C1101 H1080 0.950 . S
C1101 C1100 1.373 . S
C1101 C1117 1.377 . S
C1102 C1100 1.389 . S
C1102 C1103 1.524 . S
C1102 C1116 1.377 . S
C1103 C1102 1.524 . S
C1103 C1104 1.397 . S
C1103 C1108 1.363 . S
C1104 H1081 0.950 . S
C1104 C1103 1.397 . S
C1104 C1105 1.334 . S
C1105 H1082 0.950 . S
C1105 C1104 1.334 . S
C1105 C1106 1.287 . S
C1106 C1105 1.287 . S
C1106 C1107 1.524 . S
C1106 H1125 0.913 . S
C1107 H1083 0.950 . S
C1107 C1106 1.524 . S
C1107 C1108 1.415 . S
C1108 H1084 0.950 . S
C1108 C1103 1.363 . S
C1108 C1107 1.415 . S
C1109 H1085 0.951 . S
C1109 C1110 1.366 . S
C1109 C1111 1.388 . S
C1110 C1109 1.366 . S
C1110 C1114 1.385 . S
C1111 H1086 0.951 . S
C1111 C1109 1.388 . S
C1111 C1112 1.366 . S
C1112 C1111 1.366 . S
C1112 C1113 1.414 . S
C1112 C1115 1.499 . S
C1113 H1087 0.950 . S
C1113 C1112 1.414 . S
C1113 C1114 1.374 . S
C1114 H1088 0.950 . S
C1114 C1110 1.385 . S
C1114 C1113 1.374 . S
C1115 C1112 1.499 . S
C1115 C1116 1.373 . S
C1115 C1117 1.389 . S
C1116 H1089 0.950 . S
C1116 C1102 1.377 . S
C1116 C1115 1.373 . S
C1117 C1101 1.377 . S
C1117 C1115 1.389 . S
C1117 C1118 1.524 . S
C1118 C1117 1.524 . S
C1118 C1119 1.397 . S
C1118 C1123 1.363 . S
C1119 H1090 0.950 . S
C1119 C1118 1.397 . S
C1119 C1120 1.334 . S
C1120 H1091 0.950 . S
C1120 C1119 1.334 . S
C1120 C1121 1.287 . S
C1121 C1120 1.287 . S
C1121 C1122 1.524 . S
C1121 H1124 0.999 . S
C1122 H1092 0.950 . S
C1122 C1121 1.524 . S
C1122 C1123 1.415 . S
C1123 H1093 0.950 . S
C1123 C1118 1.363 . S
C1123 C1122 1.415 . S
H1124 C1121 0.999 . S
H1125 C1106 0.913 . S
H1126 C1144 0.951 . S
H1127 C1146 0.951 . S
H1128 C1148 0.950 . S
H1129 C1149 0.950 . S
H1130 C1151 0.950 . S
H1131 C1154 0.950 . S
H1132 C1155 0.950 . S
H1133 C1157 0.950 . S
H1134 C1158 0.950 . S
H1135 C1159 0.951 . S
H1136 C1161 0.951 . S
H1137 C1163 0.950 . S
H1138 C1164 0.950 . S
H1139 C1166 0.950 . S
H1140 C1169 0.950 . S
H1141 C1170 0.950 . S
H1142 C1172 0.950 . S
H1143 C1173 0.950 . S
C1144 H1126 0.951 . S
C1144 C1145 1.366 . S
C1144 C1146 1.388 . S
C1145 C1144 1.366 . S
C1145 C1149 1.385 . S
C1146 H1127 0.951 . S
C1146 C1144 1.388 . S
C1146 C1147 1.366 . S
C1147 C1146 1.366 . S
C1147 C1148 1.414 . S
C1147 C1150 1.499 . S
C1148 H1128 0.950 . S
C1148 C1147 1.414 . S
C1148 C1149 1.374 . S
C1149 H1129 0.950 . S
C1149 C1145 1.385 . S
C1149 C1148 1.374 . S
C1150 C1147 1.499 . S
C1150 C1151 1.373 . S
C1150 C1152 1.389 . S
C1151 H1130 0.950 . S
C1151 C1150 1.373 . S
C1151 C1167 1.377 . S
C1152 C1150 1.389 . S
C1152 C1153 1.524 . S
C1152 C1166 1.377 . S
C1153 C1152 1.524 . S
C1153 C1154 1.397 . S
C1153 C1158 1.363 . S
C1154 H1131 0.950 . S
C1154 C1153 1.397 . S
C1154 C1155 1.334 . S
C1155 H1132 0.950 . S
C1155 C1154 1.334 . S
C1155 C1156 1.287 . S
C1156 C1155 1.287 . S
C1156 C1157 1.524 . S
C1156 H1175 0.913 . S
C1157 H1133 0.950 . S
C1157 C1156 1.524 . S
C1157 C1158 1.415 . S
C1158 H1134 0.950 . S
C1158 C1153 1.363 . S
C1158 C1157 1.415 . S
C1159 H1135 0.951 . S
C1159 C1160 1.366 . S
C1159 C1161 1.388 . S
C1160 C1159 1.366 . S
C1160 C1164 1.385 . S
C1161 H1136 0.951 . S
C1161 C1159 1.388 . S
C1161 C1162 1.366 . S
C1162 C1161 1.366 . S
C1162 C1163 1.414 . S
C1162 C1165 1.499 . S
C1163 H1137 0.950 . S
C1163 C1162 1.414 . S
C1163 C1164 1.374 . S
C1164 H1138 0.950 . S
C1164 C1160 1.385 . S
C1164 C1163 1.374 . S
C1165 C1162 1.499 . S
C1165 C1166 1.373 . S
C1165 C1167 1.389 . S
C1166 H1139 0.950 . S
C1166 C1152 1.377 . S
C1166 C1165 1.373 . S
C1167 C1151 1.377 . S
C1167 C1165 1.389 . S
C1167 C1168 1.524 . S
C1168 C1167 1.524 . S
C1168 C1169 1.397 . S
C1168 C1173 1.363 . S
C1169 H1140 0.950 . S
C1169 C1168 1.397 . S
C1169 C1170 1.334 . S
C1170 H1141 0.950 . S
C1170 C1169 1.334 . S
C1170 C1171 1.287 . S
C1171 C1170 1.287 . S
C1171 C1172 1.524 . S
C1171 H1174 0.999 . S
C1172 H1142 0.950 . S
C1172 C1171 1.524 . S
C1172 C1173 1.415 . S
C1173 H1143 0.950 . S
C1173 C1168 1.363 . S
C1173 C1172 1.415 . S
H1174 C1171 0.999 . S
H1175 C1156 0.913 . S
H1176 C1194 0.951 . S
H1177 C1196 0.951 . S
H1178 C1198 0.950 . S
H1179 C1199 0.950 . S
H1180 C1201 0.950 . S
H1181 C1204 0.950 . S
H1182 C1205 0.965 . S
H1183 C1207 0.950 . S
H1184 C1208 0.950 . S
H1185 C1209 0.951 . S
H1186 C1211 0.951 . S
H1187 C1213 0.950 . S
H1188 C1214 0.950 . S
H1189 C1216 0.950 . S
H1190 C1219 0.950 . S
H1191 C1220 0.950 . S
H1192 C1222 0.950 . S
H1193 C1223 0.950 . S
C1194 H1176 0.951 . S
C1194 C1195 1.366 . S
C1194 C1196 1.388 . S
C1195 C1194 1.366 . S
C1195 C1199 1.385 . S
C1196 H1177 0.951 . S
C1196 C1194 1.388 . S
C1196 C1197 1.366 . S
C1197 C1196 1.366 . S
C1197 C1198 1.414 . S
C1197 C1200 1.499 . S
C1198 H1178 0.950 . S
C1198 C1197 1.414 . S
C1198 C1199 1.374 . S
C1199 H1179 0.950 . S
C1199 C1195 1.385 . S
C1199 C1198 1.374 . S
C1200 C1197 1.499 . S
C1200 C1201 1.373 . S
C1200 C1202 1.389 . S
C1201 H1180 0.950 . S
C1201 C1200 1.373 . S
C1201 C1217 1.377 . S
C1202 C1200 1.389 . S
C1202 C1203 1.524 . S
C1202 C1216 1.377 . S
C1203 C1202 1.524 . S
C1203 C1204 1.397 . S
C1203 C1208 1.363 . S
C1204 H1181 0.950 . S
C1204 C1203 1.397 . S
C1204 C1205 1.318 1_455 S
C1205 H1182 0.965 . S
C1205 C1204 1.318 1_655 S
C1205 C1206 1.289 1_655 S
C1206 C1205 1.289 1_455 S
C1206 C1207 1.524 . S
C1206 H1225 0.913 1_455 S
C1207 H1183 0.950 . S
C1207 C1206 1.524 . S
C1207 C1208 1.415 . S
C1208 H1184 0.950 . S
C1208 C1203 1.363 . S
C1208 C1207 1.415 . S
C1209 H1185 0.951 . S
C1209 C1210 1.366 . S
C1209 C1211 1.388 . S
C1210 C1209 1.366 . S
C1210 C1214 1.385 . S
C1211 H1186 0.951 . S
C1211 C1209 1.388 . S
C1211 C1212 1.366 . S
C1212 C1211 1.366 . S
C1212 C1213 1.414 . S
C1212 C1215 1.499 . S
C1213 H1187 0.950 . S
C1213 C1212 1.414 . S
C1213 C1214 1.374 . S
C1214 H1188 0.950 . S
C1214 C1210 1.385 . S
C1214 C1213 1.374 . S
C1215 C1212 1.499 . S
C1215 C1216 1.373 . S
C1215 C1217 1.389 . S
C1216 H1189 0.950 . S
C1216 C1202 1.377 . S
C1216 C1215 1.373 . S
C1217 C1201 1.377 . S
C1217 C1215 1.389 . S
C1217 C1218 1.524 . S
C1218 C1217 1.524 . S
C1218 C1219 1.397 . S
C1218 C1223 1.363 . S
C1219 H1190 0.950 . S
C1219 C1218 1.397 . S
C1219 C1220 1.334 . S
C1220 H1191 0.950 . S
C1220 C1219 1.334 . S
C1220 C1221 1.287 . S
C1221 C1220 1.287 . S
C1221 C1222 1.524 . S
C1221 H1224 0.999 . S
C1222 H1192 0.950 . S
C1222 C1221 1.524 . S
C1222 C1223 1.415 . S
C1223 H1193 0.950 . S
C1223 C1218 1.363 . S
C1223 C1222 1.415 . S
H1224 C1221 0.999 . S
H1225 C1206 0.913 1_655 S
H1226 C1244 0.951 . S
H1227 C1246 0.951 . S
H1228 C1248 0.950 . S
H1229 C1249 0.950 . S
H1230 C1251 0.950 . S
H1231 C1254 0.950 . S
H1232 C1255 0.950 . S
H1233 C1257 0.950 . S
H1234 C1258 0.950 . S
H1235 C1259 0.951 . S
H1236 C1261 0.951 . S
H1237 C1263 0.950 . S
H1238 C1264 0.950 . S
H1239 C1266 0.950 . S
H1240 C1269 0.950 . S
H1241 C1270 0.950 . S
H1242 C1272 0.950 . S
H1243 C1273 0.950 . S
C1244 H1226 0.951 . S
C1244 C1245 1.366 . S
C1244 C1246 1.388 . S
C1245 C1244 1.366 . S
C1245 C1249 1.385 . S
C1246 H1227 0.951 . S
C1246 C1244 1.388 . S
C1246 C1247 1.366 . S
C1247 C1246 1.366 . S
C1247 C1248 1.414 . S
C1247 C1250 1.499 . S
C1248 H1228 0.950 . S
C1248 C1247 1.414 . S
C1248 C1249 1.374 . S
C1249 H1229 0.950 . S
C1249 C1245 1.385 . S
C1249 C1248 1.374 . S
C1250 C1247 1.499 . S
C1250 C1251 1.373 . S
C1250 C1252 1.389 . S
C1251 H1230 0.950 . S
C1251 C1250 1.373 . S
C1251 C1267 1.377 . S
C1252 C1250 1.389 . S
C1252 C1253 1.524 . S
C1252 C1266 1.377 . S
C1253 C1252 1.524 . S
C1253 C1254 1.397 . S
C1253 C1258 1.363 . S
C1254 H1231 0.950 . S
C1254 C1253 1.397 . S
C1254 C1255 1.334 . S
C1255 H1232 0.950 . S
C1255 C1254 1.334 . S
C1255 C1256 1.287 . S
C1256 C1255 1.287 . S
C1256 C1257 1.524 . S
C1256 H1275 0.913 . S
C1257 H1233 0.950 . S
C1257 C1256 1.524 . S
C1257 C1258 1.415 . S
C1258 H1234 0.950 . S
C1258 C1253 1.363 . S
C1258 C1257 1.415 . S
C1259 H1235 0.951 . S
C1259 C1260 1.366 . S
C1259 C1261 1.388 . S
C1260 C1259 1.366 . S
C1260 C1264 1.385 . S
C1261 H1236 0.951 . S
C1261 C1259 1.388 . S
C1261 C1262 1.366 . S
C1262 C1261 1.366 . S
C1262 C1263 1.414 . S
C1262 C1265 1.499 . S
C1263 H1237 0.950 . S
C1263 C1262 1.414 . S
C1263 C1264 1.374 . S
C1264 H1238 0.950 . S
C1264 C1260 1.385 . S
C1264 C1263 1.374 . S
C1265 C1262 1.499 . S
C1265 C1266 1.373 . S
C1265 C1267 1.389 . S
C1266 H1239 0.950 . S
C1266 C1252 1.377 . S
C1266 C1265 1.373 . S
C1267 C1251 1.377 . S
C1267 C1265 1.389 . S
C1267 C1268 1.524 . S
C1268 C1267 1.524 . S
C1268 C1269 1.397 . S
C1268 C1273 1.363 . S
C1269 H1240 0.950 . S
C1269 C1268 1.397 . S
C1269 C1270 1.334 . S
C1270 H1241 0.950 . S
C1270 C1269 1.334 . S
C1270 C1271 1.287 . S
C1271 C1270 1.287 . S
C1271 C1272 1.524 . S
C1271 H1274 0.999 . S
C1272 H1242 0.950 . S
C1272 C1271 1.524 . S
C1272 C1273 1.415 . S
C1273 H1243 0.950 . S
C1273 C1268 1.363 . S
C1273 C1272 1.415 . S
H1274 C1271 0.999 . S
H1275 C1256 0.913 . S
H1276 C1294 0.951 . S
H1277 C1296 0.951 . S
H1278 C1298 0.950 . S
H1279 C1299 0.950 . S
H1280 C1301 0.950 . S
H1281 C1304 0.950 . S
H1282 C1305 0.950 . S
H1283 C1307 0.950 . S
H1284 C1308 0.950 . S
H1285 C1309 0.951 . S
H1286 C1311 0.951 . S
H1287 C1313 0.950 . S
H1288 C1314 0.950 . S
H1289 C1316 0.950 . S
H1290 C1319 0.950 . S
H1291 C1320 0.950 . S
H1292 C1322 0.950 . S
H1293 C1323 0.950 . S
C1294 H1276 0.951 . S
C1294 C1295 1.366 . S
C1294 C1296 1.388 . S
C1295 C1294 1.366 . S
C1295 C1299 1.385 . S
C1296 H1277 0.951 . S
C1296 C1294 1.388 . S
C1296 C1297 1.366 . S
C1297 C1296 1.366 . S
C1297 C1298 1.414 . S
C1297 C1300 1.499 . S
C1298 H1278 0.950 . S
C1298 C1297 1.414 . S
C1298 C1299 1.374 . S
C1299 H1279 0.950 . S
C1299 C1295 1.385 . S
C1299 C1298 1.374 . S
C1300 C1297 1.499 . S
C1300 C1301 1.373 . S
C1300 C1302 1.389 . S
C1301 H1280 0.950 . S
C1301 C1300 1.373 . S
C1301 C1317 1.377 . S
C1302 C1300 1.389 . S
C1302 C1303 1.524 . S
C1302 C1316 1.377 . S
C1303 C1302 1.524 . S
C1303 C1304 1.397 . S
C1303 C1308 1.363 . S
C1304 H1281 0.950 . S
C1304 C1303 1.397 . S
C1304 C1305 1.334 . S
C1305 H1282 0.950 . S
C1305 C1304 1.334 . S
C1305 C1306 1.287 . S
C1306 C1305 1.287 . S
C1306 C1307 1.524 . S
C1306 H1325 0.913 . S
C1307 H1283 0.950 . S
C1307 C1306 1.524 . S
C1307 C1308 1.415 . S
C1308 H1284 0.950 . S
C1308 C1303 1.363 . S
C1308 C1307 1.415 . S
C1309 H1285 0.951 . S
C1309 C1310 1.366 . S
C1309 C1311 1.388 . S
C1310 C1309 1.366 . S
C1310 C1314 1.385 . S
C1311 H1286 0.951 . S
C1311 C1309 1.388 . S
C1311 C1312 1.366 . S
C1312 C1311 1.366 . S
C1312 C1313 1.414 . S
C1312 C1315 1.499 . S
C1313 H1287 0.950 . S
C1313 C1312 1.414 . S
C1313 C1314 1.374 . S
C1314 H1288 0.950 . S
C1314 C1310 1.385 . S
C1314 C1313 1.374 . S
C1315 C1312 1.499 . S
C1315 C1316 1.373 . S
C1315 C1317 1.389 . S
C1316 H1289 0.950 . S
C1316 C1302 1.377 . S
C1316 C1315 1.373 . S
C1317 C1301 1.377 . S
C1317 C1315 1.389 . S
C1317 C1318 1.524 . S
C1318 C1317 1.524 . S
C1318 C1319 1.397 . S
C1318 C1323 1.363 . S
C1319 H1290 0.950 . S
C1319 C1318 1.397 . S
C1319 C1320 1.334 . S
C1320 H1291 0.950 . S
C1320 C1319 1.334 . S
C1320 C1321 1.287 . S
C1321 C1320 1.287 . S
C1321 C1322 1.524 . S
C1321 H1324 0.999 . S
C1322 H1292 0.950 . S
C1322 C1321 1.524 . S
C1322 C1323 1.415 . S
C1323 H1293 0.950 . S
C1323 C1318 1.363 . S
C1323 C1322 1.415 . S
H1324 C1321 0.999 . S
H1325 C1306 0.913 . S
H1326 C1344 0.951 . S
H1327 C1346 0.951 . S
H1328 C1348 0.950 . S
H1329 C1349 0.950 . S
H1330 C1351 0.950 . S
H1331 C1354 0.950 . S
H1332 C1355 0.950 . S
H1333 C1357 0.950 . S
H1334 C1358 0.950 . S
H1335 C1359 0.951 . S
H1336 C1361 0.951 . S
H1337 C1363 0.950 . S
H1338 C1364 0.950 . S
H1339 C1366 0.950 . S
H1340 C1369 0.950 . S
H1341 C1370 0.950 . S
H1342 C1372 0.950 . S
H1343 C1373 0.950 . S
C1344 H1326 0.951 . S
C1344 C1345 1.366 . S
C1344 C1346 1.388 . S
C1345 C1344 1.366 . S
C1345 C1349 1.385 . S
C1346 H1327 0.951 . S
C1346 C1344 1.388 . S
C1346 C1347 1.366 . S
C1347 C1346 1.366 . S
C1347 C1348 1.414 . S
C1347 C1350 1.499 . S
C1348 H1328 0.950 . S
C1348 C1347 1.414 . S
C1348 C1349 1.374 . S
C1349 H1329 0.950 . S
C1349 C1345 1.385 . S
C1349 C1348 1.374 . S
C1350 C1347 1.499 . S
C1350 C1351 1.373 . S
C1350 C1352 1.389 . S
C1351 H1330 0.950 . S
C1351 C1350 1.373 . S
C1351 C1367 1.377 . S
C1352 C1350 1.389 . S
C1352 C1353 1.524 . S
C1352 C1366 1.377 . S
C1353 C1352 1.524 . S
C1353 C1354 1.397 . S
C1353 C1358 1.363 . S
C1354 H1331 0.950 . S
C1354 C1353 1.397 . S
C1354 C1355 1.334 . S
C1355 H1332 0.950 . S
C1355 C1354 1.334 . S
C1355 C1356 1.287 . S
C1356 C1355 1.287 . S
C1356 C1357 1.524 . S
C1356 H1375 0.913 . S
C1357 H1333 0.950 . S
C1357 C1356 1.524 . S
C1357 C1358 1.415 . S
C1358 H1334 0.950 . S
C1358 C1353 1.363 . S
C1358 C1357 1.415 . S
C1359 H1335 0.951 . S
C1359 C1360 1.366 . S
C1359 C1361 1.388 . S
C1360 C1359 1.366 . S
C1360 C1364 1.385 . S
C1361 H1336 0.951 . S
C1361 C1359 1.388 . S
C1361 C1362 1.366 . S
C1362 C1361 1.366 . S
C1362 C1363 1.414 . S
C1362 C1365 1.499 . S
C1363 H1337 0.950 . S
C1363 C1362 1.414 . S
C1363 C1364 1.374 . S
C1364 H1338 0.950 . S
C1364 C1360 1.385 . S
C1364 C1363 1.374 . S
C1365 C1362 1.499 . S
C1365 C1366 1.373 . S
C1365 C1367 1.389 . S
C1366 H1339 0.950 . S
C1366 C1352 1.377 . S
C1366 C1365 1.373 . S
C1367 C1351 1.377 . S
C1367 C1365 1.389 . S
C1367 C1368 1.524 . S
C1368 C1367 1.524 . S
C1368 C1369 1.397 . S
C1368 C1373 1.363 . S
C1369 H1340 0.950 . S
C1369 C1368 1.397 . S
C1369 C1370 1.334 . S
C1370 H1341 0.950 . S
C1370 C1369 1.334 . S
C1370 C1371 1.287 . S
C1371 C1370 1.287 . S
C1371 C1372 1.524 . S
C1371 H1374 0.999 . S
C1372 H1342 0.950 . S
C1372 C1371 1.524 . S
C1372 C1373 1.415 . S
C1373 H1343 0.950 . S
C1373 C1368 1.363 . S
C1373 C1372 1.415 . S
H1374 C1371 0.999 . S
H1375 C1356 0.913 . S
H1376 C1394 0.951 . S
H1377 C1396 0.951 . S
H1378 C1398 0.950 . S
H1379 C1399 0.950 . S
H1380 C1401 0.950 . S
H1381 C1404 0.950 . S
H1382 C1405 0.950 . S
H1383 C1407 0.950 . S
H1384 C1408 0.950 . S
H1385 C1409 0.951 . S
H1386 C1411 0.951 . S
H1387 C1413 0.950 . S
H1388 C1414 0.950 . S
H1389 C1416 0.950 . S
H1390 C1419 0.950 . S
H1391 C1420 0.950 . S
H1392 C1422 0.950 . S
H1393 C1423 0.950 . S
C1394 H1376 0.951 . S
C1394 C1395 1.366 . S
C1394 C1396 1.388 . S
C1395 C1394 1.366 . S
C1395 C1399 1.385 . S
C1396 H1377 0.951 . S
C1396 C1394 1.388 . S
C1396 C1397 1.366 . S
C1397 C1396 1.366 . S
C1397 C1398 1.414 . S
C1397 C1400 1.499 . S
C1398 H1378 0.950 . S
C1398 C1397 1.414 . S
C1398 C1399 1.374 . S
C1399 H1379 0.950 . S
C1399 C1395 1.385 . S
C1399 C1398 1.374 . S
C1400 C1397 1.499 . S
C1400 C1401 1.373 . S
C1400 C1402 1.389 . S
C1401 H1380 0.950 . S
C1401 C1400 1.373 . S
C1401 C1417 1.377 . S
C1402 C1400 1.389 . S
C1402 C1403 1.524 1_545 S
C1402 C1416 1.377 . S
C1403 C1402 1.524 1_565 S
C1403 C1404 1.397 . S
C1403 C1408 1.363 . S
C1404 H1381 0.950 . S
C1404 C1403 1.397 . S
C1404 C1405 1.334 . S
C1405 H1382 0.950 . S
C1405 C1404 1.334 . S
C1405 C1406 1.287 . S
C1406 C1405 1.287 . S
C1406 C1407 1.524 . S
C1406 H1425 0.913 . S
C1407 H1383 0.950 . S
C1407 C1406 1.524 . S
C1407 C1408 1.415 . S
C1408 H1384 0.950 . S
C1408 C1403 1.363 . S
C1408 C1407 1.415 . S
C1409 H1385 0.951 . S
C1409 C1410 1.366 . S
C1409 C1411 1.388 . S
C1410 C1409 1.366 . S
C1410 C1414 1.385 1_455 S
C1411 H1386 0.951 . S
C1411 C1409 1.388 . S
C1411 C1412 1.366 1_455 S
C1412 C1411 1.366 1_655 S
C1412 C1413 1.414 . S
C1412 C1415 1.499 . S
C1413 H1387 0.950 . S
C1413 C1412 1.414 . S
C1413 C1414 1.374 . S
C1414 H1388 0.950 . S
C1414 C1410 1.385 1_655 S
C1414 C1413 1.374 . S
C1415 C1412 1.499 . S
C1415 C1416 1.373 . S
C1415 C1417 1.389 . S
C1416 H1389 0.950 . S
C1416 C1402 1.377 . S
C1416 C1415 1.373 . S
C1417 C1401 1.377 . S
C1417 C1415 1.389 . S
C1417 C1418 1.524 . S
C1418 C1417 1.524 . S
C1418 C1419 1.397 . S
C1418 C1423 1.363 1_655 S
C1419 H1390 0.950 . S
C1419 C1418 1.397 . S
C1419 C1420 1.334 1_655 S
C1420 H1391 0.950 . S
C1420 C1419 1.334 1_455 S
C1420 C1421 1.287 . S
C1421 C1420 1.287 . S
C1421 C1422 1.524 . S
C1421 H1424 0.999 . S
C1422 H1392 0.950 . S
C1422 C1421 1.524 . S
C1422 C1423 1.415 . S
C1423 H1393 0.950 . S
C1423 C1418 1.363 1_455 S
C1423 C1422 1.415 . S
H1424 C1421 0.999 . S
H1425 C1406 0.913 . S
H1426 C1444 0.951 . S
H1427 C1446 0.951 . S
H1428 C1448 0.950 . S
H1429 C1449 0.950 . S
H1430 C1451 0.950 . S
H1431 C1454 0.950 . S
H1432 C1455 0.950 . S
H1433 C1457 0.950 . S
H1434 C1458 0.950 . S
H1435 C1459 0.951 . S
H1436 C1461 0.951 . S
H1437 C1463 0.950 . S
H1438 C1464 0.950 . S
H1439 C1466 0.950 . S
H1440 C1469 0.950 . S
H1441 C1470 0.950 . S
H1442 C1472 0.950 . S
H1443 C1473 0.950 . S
C1444 H1426 0.951 . S
C1444 C1445 1.366 . S
C1444 C1446 1.388 . S
C1445 C1444 1.366 . S
C1445 C1449 1.385 . S
C1446 H1427 0.951 . S
C1446 C1444 1.388 . S
C1446 C1447 1.366 . S
C1447 C1446 1.366 . S
C1447 C1448 1.414 . S
C1447 C1450 1.499 . S
C1448 H1428 0.950 . S
C1448 C1447 1.414 . S
C1448 C1449 1.374 . S
C1449 H1429 0.950 . S
C1449 C1445 1.385 . S
C1449 C1448 1.374 . S
C1450 C1447 1.499 . S
C1450 C1451 1.373 . S
C1450 C1452 1.389 . S
C1451 H1430 0.950 . S
C1451 C1450 1.373 . S
C1451 C1467 1.377 . S
C1452 C1450 1.389 . S
C1452 C1453 1.524 . S
C1452 C1466 1.377 . S
C1453 C1452 1.524 . S
C1453 C1454 1.397 . S
C1453 C1458 1.363 . S
C1454 H1431 0.950 . S
C1454 C1453 1.397 . S
C1454 C1455 1.334 . S
C1455 H1432 0.950 . S
C1455 C1454 1.334 . S
C1455 C1456 1.287 . S
C1456 C1455 1.287 . S
C1456 C1457 1.524 . S
C1456 H1475 0.913 . S
C1457 H1433 0.950 . S
C1457 C1456 1.524 . S
C1457 C1458 1.415 . S
C1458 H1434 0.950 . S
C1458 C1453 1.363 . S
C1458 C1457 1.415 . S
C1459 H1435 0.951 . S
C1459 C1460 1.366 . S
C1459 C1461 1.388 . S
C1460 C1459 1.366 . S
C1460 C1464 1.385 . S
C1461 H1436 0.951 . S
C1461 C1459 1.388 . S
C1461 C1462 1.366 . S
C1462 C1461 1.366 . S
C1462 C1463 1.414 . S
C1462 C1465 1.499 . S
C1463 H1437 0.950 . S
C1463 C1462 1.414 . S
C1463 C1464 1.374 . S
C1464 H1438 0.950 . S
C1464 C1460 1.385 . S
C1464 C1463 1.374 . S
C1465 C1462 1.499 . S
C1465 C1466 1.373 . S
C1465 C1467 1.389 . S
C1466 H1439 0.950 . S
C1466 C1452 1.377 . S
C1466 C1465 1.373 . S
C1467 C1451 1.377 . S
C1467 C1465 1.389 . S
C1467 C1468 1.524 . S
C1468 C1467 1.524 . S
C1468 C1469 1.397 . S
C1468 C1473 1.363 . S
C1469 H1440 0.950 . S
C1469 C1468 1.397 . S
C1469 C1470 1.334 . S
C1470 H1441 0.950 . S
C1470 C1469 1.334 . S
C1470 C1471 1.287 . S
C1471 C1470 1.287 . S
C1471 C1472 1.524 . S
C1471 H1474 0.999 . S
C1472 H1442 0.950 . S
C1472 C1471 1.524 . S
C1472 C1473 1.415 . S
C1473 H1443 0.950 . S
C1473 C1468 1.363 . S
C1473 C1472 1.415 . S
H1474 C1471 0.999 . S
H1475 C1456 0.913 . S
H1476 C1494 0.951 . S
H1477 C1496 0.951 . S
H1478 C1498 0.950 . S
H1479 C1499 0.950 . S
H1480 C1501 0.950 . S
H1481 C1504 0.950 . S
H1482 C1505 0.950 . S
H1483 C1507 0.950 . S
H1484 C1508 0.950 . S
H1485 C1509 0.951 . S
H1486 C1511 0.951 . S
H1487 C1513 0.950 1_565 S
H1488 C1514 0.950 1_565 S
H1489 C1516 0.950 . S
H1490 C1519 0.922 1_565 S
H1491 C1520 0.950 . S
H1492 C1522 0.950 . S
H1493 C1523 0.950 . S
C1494 H1476 0.951 . S
C1494 C1495 1.398 . S
C1494 C1496 1.388 . S
C1495 C1494 1.398 . S
C1495 C1499 1.339 1_565 S
C1496 H1477 0.951 . S
C1496 C1494 1.388 . S
C1496 C1497 1.366 1_565 S
C1497 C1496 1.366 1_545 S
C1497 C1498 1.414 . S
C1497 C1500 1.499 . S
C1498 H1478 0.950 . S
C1498 C1497 1.414 . S
C1498 C1499 1.374 . S
C1499 H1479 0.950 . S
C1499 C1495 1.339 1_545 S
C1499 C1498 1.374 . S
C1500 C1497 1.499 . S
C1500 C1501 1.373 . S
C1500 C1502 1.389 . S
C1501 H1480 0.950 . S
C1501 C1500 1.373 . S
C1501 C1517 1.377 . S
C1502 C1500 1.389 . S
C1502 C1503 1.525 1_545 S
C1502 C1516 1.377 . S
C1503 C1502 1.525 1_565 S
C1503 C1504 1.397 1_565 S
C1503 C1508 1.362 . S
C1504 H1481 0.950 . S
C1504 C1503 1.397 1_545 S
C1504 C1505 1.334 . S
C1505 H1482 0.950 . S
C1505 C1504 1.334 . S
C1505 C1506 1.287 1_545 S
C1506 C1505 1.287 1_565 S
C1506 C1507 1.524 . S
C1506 H1525 0.913 . S
C1507 H1483 0.950 . S
C1507 C1506 1.524 . S
C1507 C1508 1.415 . S
C1508 H1484 0.950 . S
C1508 C1503 1.362 . S
C1508 C1507 1.415 . S
C1509 H1485 0.951 . S
C1509 C1510 1.366 . S
C1509 C1511 1.388 . S
C1510 C1509 1.366 . S
C1510 C1514 1.385 . S
C1511 H1486 0.951 . S
C1511 C1509 1.388 . S
C1511 C1512 1.366 . S
C1512 C1511 1.366 . S
C1512 C1513 1.414 . S
C1512 C1515 1.499 . S
C1513 H1487 0.950 1_545 S
C1513 C1512 1.414 . S
C1513 C1514 1.374 . S
C1514 H1488 0.950 1_545 S
C1514 C1510 1.385 . S
C1514 C1513 1.374 . S
C1515 C1512 1.499 . S
C1515 C1516 1.373 . S
C1515 C1517 1.389 . S
C1516 H1489 0.950 . S
C1516 C1502 1.377 . S
C1516 C1515 1.373 . S
C1517 C1501 1.377 . S
C1517 C1515 1.389 . S
C1517 C1518 1.524 . S
C1518 C1517 1.524 . S
C1518 C1519 1.397 . S
C1518 C1523 1.363 . S
C1519 H1490 0.922 1_545 S
C1519 C1518 1.397 . S
C1519 C1520 1.334 . S
C1520 H1491 0.950 . S
C1520 C1519 1.334 . S
C1520 C1521 1.287 . S
C1521 C1520 1.287 . S
C1521 C1522 1.524 . S
C1521 H1524 0.999 . S
C1522 H1492 0.950 . S
C1522 C1521 1.524 . S
C1522 C1523 1.415 . S
C1523 H1493 0.950 . S
C1523 C1518 1.363 . S
C1523 C1522 1.415 . S
H1524 C1521 0.999 . S
H1525 C1506 0.913 . S
H1526 C1544 0.951 . S
H1527 C1546 0.951 . S
H1528 C1548 0.950 . S
H1529 C1549 0.950 . S
H1530 C1551 0.950 . S
H1531 C1554 0.950 . S
H1532 C1555 0.950 . S
H1533 C1557 0.950 . S
H1534 C1558 0.950 . S
H1535 C1559 0.951 . S
H1536 C1561 0.951 . S
H1537 C1563 0.950 . S
H1538 C1564 0.950 . S
H1539 C1566 0.950 . S
H1540 C1569 0.950 . S
H1541 C1570 0.950 . S
H1542 C1572 0.950 . S
H1543 C1573 0.950 . S
C1544 H1526 0.951 . S
C1544 C1545 1.366 . S
C1544 C1546 1.388 . S
C1545 C1544 1.366 . S
C1545 C1549 1.385 . S
C1546 H1527 0.951 . S
C1546 C1544 1.388 . S
C1546 C1547 1.366 . S
C1547 C1546 1.366 . S
C1547 C1548 1.414 . S
C1547 C1550 1.499 . S
C1548 H1528 0.950 . S
C1548 C1547 1.414 . S
C1548 C1549 1.374 . S
C1549 H1529 0.950 . S
C1549 C1545 1.385 . S
C1549 C1548 1.374 . S
C1550 C1547 1.499 . S
C1550 C1551 1.373 . S
C1550 C1552 1.389 . S
C1551 H1530 0.950 . S
C1551 C1550 1.373 . S
C1551 C1567 1.377 . S
C1552 C1550 1.389 . S
C1552 C1553 1.524 . S
C1552 C1566 1.377 . S
C1553 C1552 1.524 . S
C1553 C1554 1.397 . S
C1553 C1558 1.363 . S
C1554 H1531 0.950 . S
C1554 C1553 1.397 . S
C1554 C1555 1.334 . S
C1555 H1532 0.950 . S
C1555 C1554 1.334 . S
C1555 C1556 1.287 . S
C1556 C1555 1.287 . S
C1556 C1557 1.524 . S
C1556 H1575 0.913 . S
C1557 H1533 0.950 . S
C1557 C1556 1.524 . S
C1557 C1558 1.415 . S
C1558 H1534 0.950 . S
C1558 C1553 1.363 . S
C1558 C1557 1.415 . S
C1559 H1535 0.951 . S
C1559 C1560 1.366 . S
C1559 C1561 1.388 . S
C1560 C1559 1.366 . S
C1560 C1564 1.385 . S
C1561 H1536 0.951 . S
C1561 C1559 1.388 . S
C1561 C1562 1.366 . S
C1562 C1561 1.366 . S
C1562 C1563 1.414 . S
C1562 C1565 1.499 . S
C1563 H1537 0.950 . S
C1563 C1562 1.414 . S
C1563 C1564 1.374 . S
C1564 H1538 0.950 . S
C1564 C1560 1.385 . S
C1564 C1563 1.374 . S
C1565 C1562 1.499 . S
C1565 C1566 1.373 . S
C1565 C1567 1.389 . S
C1566 H1539 0.950 . S
C1566 C1552 1.377 . S
C1566 C1565 1.373 . S
C1567 C1551 1.377 . S
C1567 C1565 1.389 . S
C1567 C1568 1.524 . S
C1568 C1567 1.524 . S
C1568 C1569 1.397 . S
C1568 C1573 1.363 . S
C1569 H1540 0.950 . S
C1569 C1568 1.397 . S
C1569 C1570 1.334 . S
C1570 H1541 0.950 . S
C1570 C1569 1.334 . S
C1570 C1571 1.287 . S
C1571 C1570 1.287 . S
C1571 C1572 1.524 . S
C1571 H1574 0.999 . S
C1572 H1542 0.950 . S
C1572 C1571 1.524 . S
C1572 C1573 1.415 . S
C1573 H1543 0.950 . S
C1573 C1568 1.363 . S
C1573 C1572 1.415 . S
H1574 C1571 0.999 . S
H1575 C1556 0.913 . S
H1576 C1594 0.951 . S
H1577 C1596 0.951 . S
H1578 C1598 0.950 . S
H1579 C1599 0.950 1_565 S
H1580 C1601 0.950 . S
H1581 C1604 0.950 . S
H1582 C1605 0.950 . S
H1583 C1607 0.950 . S
H1584 C1608 0.995 . S
H1585 C1609 0.951 . S
H1586 C1611 0.951 . S
H1587 C1613 0.953 . S
H1588 C1614 0.950 . S
H1589 C1616 0.975 . S
H1590 C1619 0.950 . S
H1591 C1620 0.950 . S
H1592 C1622 0.950 . S
H1593 C1623 0.950 . S
C1594 H1576 0.951 . S
C1594 C1595 1.366 . S
C1594 C1596 1.388 . S
C1595 C1594 1.366 . S
C1595 C1599 1.385 . S
C1596 H1577 0.951 . S
C1596 C1594 1.388 . S
C1596 C1597 1.366 . S
C1597 C1596 1.366 . S
C1597 C1598 1.414 . S
C1597 C1600 1.499 . S
C1598 H1578 0.950 . S
C1598 C1597 1.414 . S
C1598 C1599 1.374 . S
C1599 H1579 0.950 1_545 S
C1599 C1595 1.385 . S
C1599 C1598 1.374 . S
C1600 C1597 1.499 . S
C1600 C1601 1.373 . S
C1600 C1602 1.389 . S
C1601 H1580 0.950 . S
C1601 C1600 1.373 . S
C1601 C1617 1.377 . S
C1602 C1600 1.389 . S
C1602 C1603 1.524 1_545 S
C1602 C1616 1.377 . S
C1603 C1602 1.524 1_565 S
C1603 C1604 1.397 . S
C1603 C1608 1.363 . S
C1604 H1581 0.950 . S
C1604 C1603 1.397 . S
C1604 C1605 1.334 . S
C1605 H1582 0.950 . S
C1605 C1604 1.334 . S
C1605 C1606 1.287 . S
C1606 C1605 1.287 . S
C1606 C1607 1.524 . S
C1606 H1625 0.913 . S
C1607 H1583 0.950 . S
C1607 C1606 1.524 . S
C1607 C1608 1.415 . S
C1608 H1584 0.995 . S
C1608 C1603 1.363 . S
C1608 C1607 1.415 . S
C1609 H1585 0.951 . S
C1609 C1610 1.366 1_655 S
C1609 C1611 1.388 . S
C1610 C1609 1.366 1_455 S
C1610 C1614 1.385 . S
C1611 H1586 0.951 . S
C1611 C1609 1.388 . S
C1611 C1612 1.366 . S
C1612 C1611 1.366 . S
C1612 C1613 1.410 1_655 S
C1612 C1615 1.499 . S
C1613 H1587 0.953 . S
C1613 C1612 1.410 1_455 S
C1613 C1614 1.376 . S
C1614 H1588 0.950 . S
C1614 C1610 1.385 . S
C1614 C1613 1.376 . S
C1615 C1612 1.499 . S
C1615 C1616 1.373 . S
C1615 C1617 1.389 . S
C1616 H1589 0.975 . S
C1616 C1602 1.377 . S
C1616 C1615 1.373 . S
C1617 C1601 1.377 . S
C1617 C1615 1.389 . S
C1617 C1618 1.524 . S
C1618 C1617 1.524 . S
C1618 C1619 1.397 . S
C1618 C1623 1.363 . S
C1619 H1590 0.950 . S
C1619 C1618 1.397 . S
C1619 C1620 1.334 . S
C1620 H1591 0.950 . S
C1620 C1619 1.334 . S
C1620 C1621 1.287 . S
C1621 C1620 1.287 . S
C1621 C1622 1.524 . S
C1621 H1624 0.999 . S
C1622 H1592 0.950 . S
C1622 C1621 1.524 . S
C1622 C1623 1.415 . S
C1623 H1593 0.950 . S
C1623 C1618 1.363 . S
C1623 C1622 1.415 . S
H1624 C1621 0.999 . S
H1625 C1606 0.913 . S
H1626 C1644 0.951 . S
H1627 C1646 0.951 . S
H1628 C1648 0.950 . S
H1629 C1649 0.950 . S
H1630 C1651 0.950 . S
H1631 C1654 0.950 . S
H1632 C1655 0.950 . S
H1633 C1657 0.950 . S
H1634 C1658 0.950 . S
H1635 C1659 0.951 . S
H1636 C1661 0.951 . S
H1637 C1663 0.950 . S
H1638 C1664 0.950 . S
H1639 C1666 0.950 . S
H1640 C1669 0.950 . S
H1641 C1670 0.950 . S
H1642 C1672 0.950 . S
H1643 C1673 0.950 . S
C1644 H1626 0.951 . S
C1644 C1645 1.366 . S
C1644 C1646 1.388 . S
C1645 C1644 1.366 . S
C1645 C1649 1.385 . S
C1646 H1627 0.951 . S
C1646 C1644 1.388 . S
C1646 C1647 1.366 . S
C1647 C1646 1.366 . S
C1647 C1648 1.414 . S
C1647 C1650 1.499 . S
C1648 H1628 0.950 . S
C1648 C1647 1.414 . S
C1648 C1649 1.374 . S
C1649 H1629 0.950 . S
C1649 C1645 1.385 . S
C1649 C1648 1.374 . S
C1650 C1647 1.499 . S
C1650 C1651 1.373 . S
C1650 C1652 1.389 . S
C1651 H1630 0.950 . S
C1651 C1650 1.373 . S
C1651 C1667 1.377 . S
C1652 C1650 1.389 . S
C1652 C1653 1.524 . S
C1652 C1666 1.377 . S
C1653 C1652 1.524 . S
C1653 C1654 1.397 . S
C1653 C1658 1.363 . S
C1654 H1631 0.950 . S
C1654 C1653 1.397 . S
C1654 C1655 1.334 . S
C1655 H1632 0.950 . S
C1655 C1654 1.334 . S
C1655 C1656 1.287 . S
C1656 C1655 1.287 . S
C1656 C1657 1.524 . S
C1656 H1675 0.913 . S
C1657 H1633 0.950 . S
C1657 C1656 1.524 . S
C1657 C1658 1.415 . S
C1658 H1634 0.950 . S
C1658 C1653 1.363 . S
C1658 C1657 1.415 . S
C1659 H1635 0.951 . S
C1659 C1660 1.366 . S
C1659 C1661 1.388 . S
C1660 C1659 1.366 . S
C1660 C1664 1.385 . S
C1661 H1636 0.951 . S
C1661 C1659 1.388 . S
C1661 C1662 1.366 . S
C1662 C1661 1.366 . S
C1662 C1663 1.414 . S
C1662 C1665 1.499 . S
C1663 H1637 0.950 . S
C1663 C1662 1.414 . S
C1663 C1664 1.374 . S
C1664 H1638 0.950 . S
C1664 C1660 1.385 . S
C1664 C1663 1.374 . S
C1665 C1662 1.499 . S
C1665 C1666 1.373 . S
C1665 C1667 1.389 . S
C1666 H1639 0.950 . S
C1666 C1652 1.377 . S
C1666 C1665 1.373 . S
C1667 C1651 1.377 . S
C1667 C1665 1.389 . S
C1667 C1668 1.524 . S
C1668 C1667 1.524 . S
C1668 C1669 1.397 . S
C1668 C1673 1.363 . S
C1669 H1640 0.950 . S
C1669 C1668 1.397 . S
C1669 C1670 1.334 . S
C1670 H1641 0.950 . S
C1670 C1669 1.334 . S
C1670 C1671 1.287 . S
C1671 C1670 1.287 . S
C1671 C1672 1.524 . S
C1671 H1674 0.999 . S
C1672 H1642 0.950 . S
C1672 C1671 1.524 . S
C1672 C1673 1.415 . S
C1673 H1643 0.950 . S
C1673 C1668 1.363 . S
C1673 C1672 1.415 . S
H1674 C1671 0.999 . S
H1675 C1656 0.913 . S
H1676 C1694 0.951 . S
H1677 C1696 0.951 . S
H1678 C1698 0.950 . S
H1679 C1699 0.950 . S
H1680 C1701 0.950 . S
H1681 C1704 0.944 1_565 S
H1682 C1705 0.950 1_565 S
H1683 C1707 0.950 . S
H1684 C1708 0.950 . S
H1685 C1709 0.951 . S
H1686 C1711 0.951 . S
H1687 C1713 0.950 . S
H1688 C1714 0.950 . S
H1689 C1716 0.950 . S
H1690 C1719 0.950 . S
H1691 C1720 0.950 . S
H1692 C1722 0.950 1_565 S
H1693 C1723 0.950 1_565 S
C1694 H1676 0.951 . S
C1694 C1695 1.391 . S
C1694 C1696 1.388 . S
C1695 C1694 1.391 . S
C1695 C1699 1.369 1_545 S
C1696 H1677 0.951 . S
C1696 C1694 1.388 . S
C1696 C1697 1.366 . S
C1697 C1696 1.366 . S
C1697 C1698 1.414 1_545 S
C1697 C1700 1.499 . S
C1698 H1678 0.950 . S
C1698 C1697 1.414 1_565 S
C1698 C1699 1.374 . S
C1699 H1679 0.950 . S
C1699 C1695 1.369 1_565 S
C1699 C1698 1.374 . S
C1700 C1697 1.499 . S
C1700 C1701 1.373 . S
C1700 C1702 1.389 . S
C1701 H1680 0.950 . S
C1701 C1700 1.373 . S
C1701 C1717 1.377 . S
C1702 C1700 1.389 . S
C1702 C1703 1.524 . S
C1702 C1716 1.377 . S
C1703 C1702 1.524 . S
C1703 C1704 1.397 . S
C1703 C1708 1.363 . S
C1704 H1681 0.944 1_545 S
C1704 C1703 1.397 . S
C1704 C1705 1.334 . S
C1705 H1682 0.950 1_545 S
C1705 C1704 1.334 . S
C1705 C1706 1.287 . S
C1706 C1705 1.287 . S
C1706 C1707 1.524 . S
C1706 H1725 0.913 . S
C1707 H1683 0.950 . S
C1707 C1706 1.524 . S
C1707 C1708 1.415 . S
C1708 H1684 0.950 . S
C1708 C1703 1.363 . S
C1708 C1707 1.415 . S
C1709 H1685 0.951 . S
C1709 C1710 1.366 . S
C1709 C1711 1.388 . S
C1710 C1709 1.366 . S
C1710 C1714 1.385 . S
C1711 H1686 0.951 . S
C1711 C1709 1.388 . S
C1711 C1712 1.366 . S
C1712 C1711 1.366 . S
C1712 C1713 1.414 . S
C1712 C1715 1.499 . S
C1713 H1687 0.950 . S
C1713 C1712 1.414 . S
C1713 C1714 1.374 . S
C1714 H1688 0.950 . S
C1714 C1710 1.385 . S
C1714 C1713 1.374 . S
C1715 C1712 1.499 . S
C1715 C1716 1.373 . S
C1715 C1717 1.389 . S
C1716 H1689 0.950 . S
C1716 C1702 1.377 . S
C1716 C1715 1.373 . S
C1717 C1701 1.377 . S
C1717 C1715 1.389 . S
C1717 C1718 1.524 . S
C1718 C1717 1.524 . S
C1718 C1719 1.397 . S
C1718 C1723 1.363 . S
C1719 H1690 0.950 . S
C1719 C1718 1.397 . S
C1719 C1720 1.334 . S
C1720 H1691 0.950 . S
C1720 C1719 1.334 . S
C1720 C1721 1.287 . S
C1721 C1720 1.287 . S
C1721 C1722 1.524 . S
C1721 H1724 0.999 . S
C1722 H1692 0.950 1_545 S
C1722 C1721 1.524 . S
C1722 C1723 1.415 . S
C1723 H1693 0.950 1_545 S
C1723 C1718 1.363 . S
C1723 C1722 1.415 . S
H1724 C1721 0.999 . S
H1725 C1706 0.913 . S
H1726 C1744 0.951 . S
H1727 C1746 0.951 . S
H1728 C1748 0.950 . S
H1729 C1749 0.950 . S
H1730 C1751 0.950 . S
H1731 C1754 0.950 . S
H1732 C1755 0.950 . S
H1733 C1757 0.950 . S
H1734 C1758 0.950 . S
H1735 C1759 0.951 . S
H1736 C1761 0.951 . S
H1737 C1763 0.950 . S
H1738 C1764 0.950 . S
H1739 C1766 0.950 . S
H1740 C1769 0.950 . S
H1741 C1770 0.950 . S
H1742 C1772 0.950 . S
H1743 C1773 0.950 . S
C1744 H1726 0.951 . S
C1744 C1745 1.366 . S
C1744 C1746 1.388 . S
C1745 C1744 1.366 . S
C1745 C1749 1.385 . S
C1746 H1727 0.951 . S
C1746 C1744 1.388 . S
C1746 C1747 1.366 . S
C1747 C1746 1.366 . S
C1747 C1748 1.414 . S
C1747 C1750 1.499 . S
C1748 H1728 0.950 . S
C1748 C1747 1.414 . S
C1748 C1749 1.374 . S
C1749 H1729 0.950 . S
C1749 C1745 1.385 . S
C1749 C1748 1.374 . S
C1750 C1747 1.499 . S
C1750 C1751 1.373 . S
C1750 C1752 1.389 . S
C1751 H1730 0.950 . S
C1751 C1750 1.373 . S
C1751 C1767 1.377 . S
C1752 C1750 1.389 . S
C1752 C1753 1.524 . S
C1752 C1766 1.377 . S
C1753 C1752 1.524 . S
C1753 C1754 1.397 . S
C1753 C1758 1.363 . S
C1754 H1731 0.950 . S
C1754 C1753 1.397 . S
C1754 C1755 1.334 . S
C1755 H1732 0.950 . S
C1755 C1754 1.334 . S
C1755 C1756 1.287 . S
C1756 C1755 1.287 . S
C1756 C1757 1.524 . S
C1756 H1775 0.913 . S
C1757 H1733 0.950 . S
C1757 C1756 1.524 . S
C1757 C1758 1.415 . S
C1758 H1734 0.950 . S
C1758 C1753 1.363 . S
C1758 C1757 1.415 . S
C1759 H1735 0.951 . S
C1759 C1760 1.366 . S
C1759 C1761 1.388 . S
C1760 C1759 1.366 . S
C1760 C1764 1.385 . S
C1761 H1736 0.951 . S
C1761 C1759 1.388 . S
C1761 C1762 1.366 . S
C1762 C1761 1.366 . S
C1762 C1763 1.414 . S
C1762 C1765 1.499 . S
C1763 H1737 0.950 . S
C1763 C1762 1.414 . S
C1763 C1764 1.374 . S
C1764 H1738 0.950 . S
C1764 C1760 1.385 . S
C1764 C1763 1.374 . S
C1765 C1762 1.499 . S
C1765 C1766 1.373 . S
C1765 C1767 1.389 . S
C1766 H1739 0.950 . S
C1766 C1752 1.377 . S
C1766 C1765 1.373 . S
C1767 C1751 1.377 . S
C1767 C1765 1.389 . S
C1767 C1768 1.524 . S
C1768 C1767 1.524 . S
C1768 C1769 1.397 . S
C1768 C1773 1.363 . S
C1769 H1740 0.950 . S
C1769 C1768 1.397 . S
C1769 C1770 1.334 . S
C1770 H1741 0.950 . S
C1770 C1769 1.334 . S
C1770 C1771 1.287 . S
C1771 C1770 1.287 . S
C1771 C1772 1.524 . S
C1771 H1774 0.999 . S
C1772 H1742 0.950 . S
C1772 C1771 1.524 . S
C1772 C1773 1.415 . S
C1773 H1743 0.950 . S
C1773 C1768 1.363 . S
C1773 C1772 1.415 . S
H1774 C1771 0.999 . S
H1775 C1756 0.913 . S
H1776 C1794 0.951 . S
H1777 C1796 0.951 . S
H1778 C1798 0.950 . S
H1779 C1799 0.950 . S
H1780 C1801 0.950 . S
H1781 C1804 0.950 . S
H1782 C1805 0.950 . S
H1783 C1807 0.950 . S
H1784 C1808 0.950 . S
H1785 C1809 0.951 1_545 S
H1786 C1811 0.951 . S
H1787 C1813 0.950 . S
H1788 C1814 0.950 . S
H1789 C1816 0.950 . S
H1790 C1819 0.950 . S
H1791 C1820 0.950 . S
H1792 C1822 0.950 . S
H1793 C1823 0.950 . S
C1794 H1776 0.951 . S
C1794 C1795 1.366 . S
C1794 C1796 1.388 . S
C1795 C1794 1.366 . S
C1795 C1799 1.385 . S
C1796 H1777 0.951 . S
C1796 C1794 1.388 . S
C1796 C1797 1.366 . S
C1797 C1796 1.366 . S
C1797 C1798 1.414 . S
C1797 C1800 1.499 . S
C1798 H1778 0.950 . S
C1798 C1797 1.414 . S
C1798 C1799 1.374 . S
C1799 H1779 0.950 . S
C1799 C1795 1.385 . S
C1799 C1798 1.374 . S
C1800 C1797 1.499 . S
C1800 C1801 1.373 . S
C1800 C1802 1.389 . S
C1801 H1780 0.950 . S
C1801 C1800 1.373 . S
C1801 C1817 1.377 . S
C1802 C1800 1.389 . S
C1802 C1803 1.524 . S
C1802 C1816 1.377 . S
C1803 C1802 1.524 . S
C1803 C1804 1.397 . S
C1803 C1808 1.363 . S
C1804 H1781 0.950 . S
C1804 C1803 1.397 . S
C1804 C1805 1.334 . S
C1805 H1782 0.950 . S
C1805 C1804 1.334 . S
C1805 C1806 1.287 1_554 S
C1806 C1805 1.287 1_556 S
C1806 C1807 1.524 . S
C1806 H1825 0.913 . S
C1807 H1783 0.950 . S
C1807 C1806 1.524 . S
C1807 C1808 1.415 1_556 S
C1808 H1784 0.950 . S
C1808 C1803 1.363 . S
C1808 C1807 1.415 1_554 S
C1809 H1785 0.951 1_565 S
C1809 C1810 1.366 . S
C1809 C1811 1.388 . S
C1810 C1809 1.366 . S
C1810 C1814 1.385 . S
C1811 H1786 0.951 . S
C1811 C1809 1.388 . S
C1811 C1812 1.366 . S
C1812 C1811 1.366 . S
C1812 C1813 1.414 . S
C1812 C1815 1.499 . S
C1813 H1787 0.950 . S
C1813 C1812 1.414 . S
C1813 C1814 1.374 . S
C1814 H1788 0.950 . S
C1814 C1810 1.385 . S
C1814 C1813 1.374 . S
C1815 C1812 1.499 . S
C1815 C1816 1.373 . S
C1815 C1817 1.389 . S
C1816 H1789 0.950 . S
C1816 C1802 1.377 . S
C1816 C1815 1.373 . S
C1817 C1801 1.377 . S
C1817 C1815 1.389 . S
C1817 C1818 1.524 . S
C1818 C1817 1.524 . S
C1818 C1819 1.397 . S
C1818 C1823 1.363 . S
C1819 H1790 0.950 . S
C1819 C1818 1.397 . S
C1819 C1820 1.334 . S
C1820 H1791 0.950 . S
C1820 C1819 1.334 . S
C1820 C1821 1.287 . S
C1821 C1820 1.287 . S
C1821 C1822 1.524 . S
C1821 H1824 0.999 . S
C1822 H1792 0.950 . S
C1822 C1821 1.524 . S
C1822 C1823 1.415 . S
C1823 H1793 0.950 . S
C1823 C1818 1.363 . S
C1823 C1822 1.415 . S
H1824 C1821 0.999 . S
H1825 C1806 0.913 . S
H1826 C1844 0.951 . S
H1827 C1846 0.951 . S
H1828 C1848 0.950 . S
H1829 C1849 0.950 . S
H1830 C1851 0.950 . S
H1831 C1854 0.950 . S
H1832 C1855 0.950 . S
H1833 C1857 0.950 . S
H1834 C1858 0.950 . S
H1835 C1859 0.951 . S
H1836 C1861 0.951 . S
H1837 C1863 0.950 . S
H1838 C1864 0.950 . S
H1839 C1866 0.950 . S
H1840 C1869 0.955 . S
H1841 C1870 0.950 . S
H1842 C1872 0.950 . S
H1843 C1873 0.950 . S
C1844 H1826 0.951 . S
C1844 C1845 1.366 . S
C1844 C1846 1.388 . S
C1845 C1844 1.366 . S
C1845 C1849 1.385 . S
C1846 H1827 0.951 . S
C1846 C1844 1.388 . S
C1846 C1847 1.366 . S
C1847 C1846 1.366 . S
C1847 C1848 1.414 . S
C1847 C1850 1.499 . S
C1848 H1828 0.950 . S
C1848 C1847 1.414 . S
C1848 C1849 1.374 . S
C1849 H1829 0.950 . S
C1849 C1845 1.385 . S
C1849 C1848 1.374 . S
C1850 C1847 1.499 . S
C1850 C1851 1.373 . S
C1850 C1852 1.389 . S
C1851 H1830 0.950 . S
C1851 C1850 1.373 . S
C1851 C1867 1.377 . S
C1852 C1850 1.389 . S
C1852 C1853 1.524 . S
C1852 C1866 1.377 . S
C1853 C1852 1.524 . S
C1853 C1854 1.397 . S
C1853 C1858 1.363 . S
C1854 H1831 0.950 . S
C1854 C1853 1.397 . S
C1854 C1855 1.334 . S
C1855 H1832 0.950 . S
C1855 C1854 1.334 . S
C1855 C1856 1.287 . S
C1856 C1855 1.287 . S
C1856 C1857 1.524 . S
C1856 H1875 0.913 . S
C1857 H1833 0.950 . S
C1857 C1856 1.524 . S
C1857 C1858 1.415 . S
C1858 H1834 0.950 . S
C1858 C1853 1.363 . S
C1858 C1857 1.415 . S
C1859 H1835 0.951 . S
C1859 C1860 1.366 . S
C1859 C1861 1.388 . S
C1860 C1859 1.366 . S
C1860 C1864 1.385 . S
C1861 H1836 0.951 . S
C1861 C1859 1.388 . S
C1861 C1862 1.366 . S
C1862 C1861 1.366 . S
C1862 C1863 1.414 . S
C1862 C1865 1.499 . S
C1863 H1837 0.950 . S
C1863 C1862 1.414 . S
C1863 C1864 1.374 . S
C1864 H1838 0.950 . S
C1864 C1860 1.385 . S
C1864 C1863 1.374 . S
C1865 C1862 1.499 . S
C1865 C1866 1.373 . S
C1865 C1867 1.389 . S
C1866 H1839 0.950 . S
C1866 C1852 1.377 . S
C1866 C1865 1.373 . S
C1867 C1851 1.377 . S
C1867 C1865 1.389 . S
C1867 C1868 1.524 . S
C1868 C1867 1.524 . S
C1868 C1869 1.383 1_554 S
C1868 C1873 1.363 . S
C1869 H1840 0.955 . S
C1869 C1868 1.383 1_556 S
C1869 C1870 1.343 . S
C1870 H1841 0.950 . S
C1870 C1869 1.343 . S
C1870 C1871 1.287 . S
C1871 C1870 1.287 . S
C1871 C1872 1.524 1_556 S
C1871 H1874 0.999 . S
C1872 H1842 0.950 . S
C1872 C1871 1.524 1_554 S
C1872 C1873 1.415 . S
C1873 H1843 0.950 . S
C1873 C1868 1.363 . S
C1873 C1872 1.415 . S
H1874 C1871 0.999 . S
H1875 C1856 0.913 . S
H1876 C1894 0.951 . S
H1877 C1896 0.951 . S
H1878 C1898 0.950 . S
H1879 C1899 0.950 . S
H1880 C1901 0.950 . S
H1881 C1904 0.950 . S
H1882 C1905 0.950 . S
H1883 C1907 0.950 . S
H1884 C1908 0.950 . S
H1885 C1909 0.951 . S
H1886 C1911 0.951 . S
H1887 C1913 0.950 . S
H1888 C1914 0.950 . S
H1889 C1916 0.950 . S
H1890 C1919 0.950 . S
H1891 C1920 0.950 . S
H1892 C1922 0.950 . S
H1893 C1923 0.950 . S
C1894 H1876 0.951 . S
C1894 C1895 1.366 . S
C1894 C1896 1.388 . S
C1895 C1894 1.366 . S
C1895 C1899 1.385 . S
C1896 H1877 0.951 . S
C1896 C1894 1.388 . S
C1896 C1897 1.366 . S
C1897 C1896 1.366 . S
C1897 C1898 1.414 . S
C1897 C1900 1.499 . S
C1898 H1878 0.950 . S
C1898 C1897 1.414 . S
C1898 C1899 1.374 . S
C1899 H1879 0.950 . S
C1899 C1895 1.385 . S
C1899 C1898 1.374 . S
C1900 C1897 1.499 . S
C1900 C1901 1.373 . S
C1900 C1902 1.389 . S
C1901 H1880 0.950 . S
C1901 C1900 1.373 . S
C1901 C1917 1.377 . S
C1902 C1900 1.389 . S
C1902 C1903 1.524 . S
C1902 C1916 1.377 . S
C1903 C1902 1.524 . S
C1903 C1904 1.397 . S
C1903 C1908 1.363 . S
C1904 H1881 0.950 . S
C1904 C1903 1.397 . S
C1904 C1905 1.334 . S
C1905 H1882 0.950 . S
C1905 C1904 1.334 . S
C1905 C1906 1.287 . S
C1906 C1905 1.287 . S
C1906 C1907 1.524 . S
C1906 H1925 0.913 . S
C1907 H1883 0.950 . S
C1907 C1906 1.524 . S
C1907 C1908 1.415 . S
C1908 H1884 0.950 . S
C1908 C1903 1.363 . S
C1908 C1907 1.415 . S
C1909 H1885 0.951 . S
C1909 C1910 1.366 . S
C1909 C1911 1.388 . S
C1910 C1909 1.366 . S
C1910 C1914 1.385 . S
C1911 H1886 0.951 . S
C1911 C1909 1.388 . S
C1911 C1912 1.366 . S
C1912 C1911 1.366 . S
C1912 C1913 1.414 . S
C1912 C1915 1.499 . S
C1913 H1887 0.950 . S
C1913 C1912 1.414 . S
C1913 C1914 1.374 . S
C1914 H1888 0.950 . S
C1914 C1910 1.385 . S
C1914 C1913 1.374 . S
C1915 C1912 1.499 . S
C1915 C1916 1.373 . S
C1915 C1917 1.389 . S
C1916 H1889 0.950 . S
C1916 C1902 1.377 . S
C1916 C1915 1.373 . S
C1917 C1901 1.377 . S
C1917 C1915 1.389 . S
C1917 C1918 1.524 . S
C1918 C1917 1.524 . S
C1918 C1919 1.397 . S
C1918 C1923 1.363 . S
C1919 H1890 0.950 . S
C1919 C1918 1.397 . S
C1919 C1920 1.334 . S
C1920 H1891 0.950 . S
C1920 C1919 1.334 . S
C1920 C1921 1.287 . S
C1921 C1920 1.287 . S
C1921 C1922 1.524 . S
C1921 H1924 0.999 . S
C1922 H1892 0.950 . S
C1922 C1921 1.524 . S
C1922 C1923 1.415 . S
C1923 H1893 0.950 . S
C1923 C1918 1.363 . S
C1923 C1922 1.415 . S
H1924 C1921 0.999 . S
H1925 C1906 0.913 . S
H1926 C1944 0.951 . S
H1927 C1946 0.951 . S
H1928 C1948 0.950 . S
H1929 C1949 0.950 . S
H1930 C1951 0.950 . S
H1931 C1954 0.950 . S
H1932 C1955 0.950 . S
H1933 C1957 0.950 . S
H1934 C1958 0.950 . S
H1935 C1959 0.951 . S
H1936 C1961 0.951 . S
H1937 C1963 0.950 . S
H1938 C1964 0.950 . S
H1939 C1966 0.950 . S
H1940 C1969 0.950 . S
H1941 C1970 0.950 . S
H1942 C1972 0.950 . S
H1943 C1973 0.950 . S
C1944 H1926 0.951 . S
C1944 C1945 1.366 . S
C1944 C1946 1.388 . S
C1945 C1944 1.366 . S
C1945 C1949 1.385 . S
C1946 H1927 0.951 . S
C1946 C1944 1.388 . S
C1946 C1947 1.366 . S
C1947 C1946 1.366 . S
C1947 C1948 1.414 . S
C1947 C1950 1.499 . S
C1948 H1928 0.950 . S
C1948 C1947 1.414 . S
C1948 C1949 1.374 . S
C1949 H1929 0.950 . S
C1949 C1945 1.385 . S
C1949 C1948 1.374 . S
C1950 C1947 1.499 . S
C1950 C1951 1.373 . S
C1950 C1952 1.389 . S
C1951 H1930 0.950 . S
C1951 C1950 1.373 . S
C1951 C1967 1.377 . S
C1952 C1950 1.389 . S
C1952 C1953 1.524 . S
C1952 C1966 1.377 . S
C1953 C1952 1.524 . S
C1953 C1954 1.397 . S
C1953 C1958 1.363 . S
C1954 H1931 0.950 . S
C1954 C1953 1.397 . S
C1954 C1955 1.334 . S
C1955 H1932 0.950 . S
C1955 C1954 1.334 . S
C1955 C1956 1.287 . S
C1956 C1955 1.287 . S
C1956 C1957 1.524 . S
C1956 H1975 0.913 . S
C1957 H1933 0.950 . S
C1957 C1956 1.524 . S
C1957 C1958 1.415 . S
C1958 H1934 0.950 . S
C1958 C1953 1.363 . S
C1958 C1957 1.415 . S
C1959 H1935 0.951 . S
C1959 C1960 1.366 . S
C1959 C1961 1.388 . S
C1960 C1959 1.366 . S
C1960 C1964 1.385 . S
C1961 H1936 0.951 . S
C1961 C1959 1.388 . S
C1961 C1962 1.366 . S
C1962 C1961 1.366 . S
C1962 C1963 1.414 . S
C1962 C1965 1.499 . S
C1963 H1937 0.950 . S
C1963 C1962 1.414 . S
C1963 C1964 1.374 . S
C1964 H1938 0.950 . S
C1964 C1960 1.385 . S
C1964 C1963 1.374 . S
C1965 C1962 1.499 . S
C1965 C1966 1.373 . S
C1965 C1967 1.389 . S
C1966 H1939 0.950 . S
C1966 C1952 1.377 . S
C1966 C1965 1.373 . S
C1967 C1951 1.377 . S
C1967 C1965 1.389 . S
C1967 C1968 1.524 . S
C1968 C1967 1.524 . S
C1968 C1969 1.397 . S
C1968 C1973 1.363 . S
C1969 H1940 0.950 . S
C1969 C1968 1.397 . S
C1969 C1970 1.334 . S
C1970 H1941 0.950 . S
C1970 C1969 1.334 . S
C1970 C1971 1.287 . S
C1971 C1970 1.287 . S
C1971 C1972 1.524 . S
C1971 H1974 0.999 . S
C1972 H1942 0.950 . S
C1972 C1971 1.524 . S
C1972 C1973 1.415 . S
C1973 H1943 0.950 . S
C1973 C1968 1.363 . S
C1973 C1972 1.415 . S
H1974 C1971 0.999 . S
H1975 C1956 0.913 . S
H1976 C1994 0.951 . S
H1977 C1996 0.951 . S
H1978 C1998 0.950 . S
H1979 C1999 0.950 . S
H1980 C2001 0.950 . S
H1981 C2004 0.950 . S
H1982 C2005 0.950 . S
H1983 C2007 0.950 . S
H1984 C2008 0.950 . S
H1985 C2009 0.951 . S
H1986 C2011 0.951 . S
H1987 C2013 0.950 . S
H1988 C2014 0.950 . S
H1989 C2016 0.950 . S
H1990 C2019 0.950 . S
H1991 C2020 0.950 . S
H1992 C2022 0.950 . S
H1993 C2023 0.950 . S
C1994 H1976 0.951 . S
C1994 C1995 1.366 . S
C1994 C1996 1.388 . S
C1995 C1994 1.366 . S
C1995 C1999 1.385 . S
C1996 H1977 0.951 . S
C1996 C1994 1.388 . S
C1996 C1997 1.366 . S
C1997 C1996 1.366 . S
C1997 C1998 1.414 . S
C1997 C2000 1.499 . S
C1998 H1978 0.950 . S
C1998 C1997 1.414 . S
C1998 C1999 1.374 . S
C1999 H1979 0.950 . S
C1999 C1995 1.385 . S
C1999 C1998 1.374 . S
C2000 C1997 1.499 . S
C2000 C2001 1.373 . S
C2000 C2002 1.389 . S
C2001 H1980 0.950 . S
C2001 C2000 1.373 . S
C2001 C2017 1.377 . S
C2002 C2000 1.389 . S
C2002 C2003 1.524 . S
C2002 C2016 1.377 . S
C2003 C2002 1.524 . S
C2003 C2004 1.397 . S
C2003 C2008 1.363 . S
C2004 H1981 0.950 . S
C2004 C2003 1.397 . S
C2004 C2005 1.334 . S
C2005 H1982 0.950 . S
C2005 C2004 1.334 . S
C2005 C2006 1.287 . S
C2006 C2005 1.287 . S
C2006 C2007 1.524 . S
C2006 H2025 0.913 . S
C2007 H1983 0.950 . S
C2007 C2006 1.524 . S
C2007 C2008 1.415 . S
C2008 H1984 0.950 . S
C2008 C2003 1.363 . S
C2008 C2007 1.415 . S
C2009 H1985 0.951 . S
C2009 C2010 1.366 . S
C2009 C2011 1.388 . S
C2010 C2009 1.366 . S
C2010 C2014 1.385 . S
C2011 H1986 0.951 . S
C2011 C2009 1.388 . S
C2011 C2012 1.366 . S
C2012 C2011 1.366 . S
C2012 C2013 1.414 . S
C2012 C2015 1.499 . S
C2013 H1987 0.950 . S
C2013 C2012 1.414 . S
C2013 C2014 1.374 . S
C2014 H1988 0.950 . S
C2014 C2010 1.385 . S
C2014 C2013 1.374 . S
C2015 C2012 1.499 . S
C2015 C2016 1.373 . S
C2015 C2017 1.389 . S
C2016 H1989 0.950 . S
C2016 C2002 1.377 . S
C2016 C2015 1.373 . S
C2017 C2001 1.377 . S
C2017 C2015 1.389 . S
C2017 C2018 1.524 . S
C2018 C2017 1.524 . S
C2018 C2019 1.397 . S
C2018 C2023 1.363 . S
C2019 H1990 0.950 . S
C2019 C2018 1.397 . S
C2019 C2020 1.334 . S
C2020 H1991 0.950 . S
C2020 C2019 1.334 . S
C2020 C2021 1.287 . S
C2021 C2020 1.287 . S
C2021 C2022 1.524 . S
C2021 H2024 0.999 . S
C2022 H1992 0.950 . S
C2022 C2021 1.524 . S
C2022 C2023 1.415 . S
C2023 H1993 0.950 . S
C2023 C2018 1.363 . S
C2023 C2022 1.415 . S
H2024 C2021 0.999 . S
H2025 C2006 0.913 . S
H2026 C2044 0.951 . S
H2027 C2046 0.951 . S
H2028 C2048 0.950 . S
H2029 C2049 0.950 . S
H2030 C2051 0.950 . S
H2031 C2054 0.950 . S
H2032 C2055 0.950 . S
H2033 C2057 0.950 . S
H2034 C2058 0.950 . S
H2035 C2059 0.951 . S
H2036 C2061 0.951 . S
H2037 C2063 0.950 . S
H2038 C2064 0.950 . S
H2039 C2066 0.950 . S
H2040 C2069 0.950 . S
H2041 C2070 0.950 . S
H2042 C2072 0.950 . S
H2043 C2073 0.950 . S
C2044 H2026 0.951 . S
C2044 C2045 1.366 . S
C2044 C2046 1.388 . S
C2045 C2044 1.366 . S
C2045 C2049 1.385 . S
C2046 H2027 0.951 . S
C2046 C2044 1.388 . S
C2046 C2047 1.366 . S
C2047 C2046 1.366 . S
C2047 C2048 1.414 . S
C2047 C2050 1.499 . S
C2048 H2028 0.950 . S
C2048 C2047 1.414 . S
C2048 C2049 1.374 . S
C2049 H2029 0.950 . S
C2049 C2045 1.385 . S
C2049 C2048 1.374 . S
C2050 C2047 1.499 . S
C2050 C2051 1.373 . S
C2050 C2052 1.389 . S
C2051 H2030 0.950 . S
C2051 C2050 1.373 . S
C2051 C2067 1.377 . S
C2052 C2050 1.389 . S
C2052 C2053 1.524 . S
C2052 C2066 1.377 . S
C2053 C2052 1.524 . S
C2053 C2054 1.397 . S
C2053 C2058 1.363 . S
C2054 H2031 0.950 . S
C2054 C2053 1.397 . S
C2054 C2055 1.334 . S
C2055 H2032 0.950 . S
C2055 C2054 1.334 . S
C2055 C2056 1.287 . S
C2056 C2055 1.287 . S
C2056 C2057 1.524 . S
C2056 H2075 0.913 . S
C2057 H2033 0.950 . S
C2057 C2056 1.524 . S
C2057 C2058 1.415 . S
C2058 H2034 0.950 . S
C2058 C2053 1.363 . S
C2058 C2057 1.415 . S
C2059 H2035 0.951 . S
C2059 C2060 1.366 . S
C2059 C2061 1.388 . S
C2060 C2059 1.366 . S
C2060 C2064 1.385 . S
C2061 H2036 0.951 . S
C2061 C2059 1.388 . S
C2061 C2062 1.366 . S
C2062 C2061 1.366 . S
C2062 C2063 1.414 . S
C2062 C2065 1.499 . S
C2063 H2037 0.950 . S
C2063 C2062 1.414 . S
C2063 C2064 1.374 . S
C2064 H2038 0.950 . S
C2064 C2060 1.385 . S
C2064 C2063 1.374 . S
C2065 C2062 1.499 . S
C2065 C2066 1.373 . S
C2065 C2067 1.389 . S
C2066 H2039 0.950 . S
C2066 C2052 1.377 . S
C2066 C2065 1.373 . S
C2067 C2051 1.377 . S
C2067 C2065 1.389 . S
C2067 C2068 1.524 . S
C2068 C2067 1.524 . S
C2068 C2069 1.397 . S
C2068 C2073 1.363 . S
C2069 H2040 0.950 . S
C2069 C2068 1.397 . S
C2069 C2070 1.334 . S
C2070 H2041 0.950 . S
C2070 C2069 1.334 . S
C2070 C2071 1.287 . S
C2071 C2070 1.287 . S
C2071 C2072 1.524 . S
C2071 H2074 0.999 . S
C2072 H2042 0.950 . S
C2072 C2071 1.524 . S
C2072 C2073 1.415 . S
C2073 H2043 0.950 . S
C2073 C2068 1.363 . S
C2073 C2072 1.415 . S
H2074 C2071 0.999 . S
H2075 C2056 0.913 . S
H2076 C2094 0.951 . S
H2077 C2096 0.951 . S
H2078 C2098 0.950 . S
H2079 C2099 0.950 . S
H2080 C2101 0.950 . S
H2081 C2104 0.950 . S
H2082 C2105 0.950 . S
H2083 C2107 0.950 . S
H2084 C2108 0.950 . S
H2085 C2109 0.951 . S
H2086 C2111 0.951 . S
H2087 C2113 0.950 . S
H2088 C2114 0.950 . S
H2089 C2116 0.950 . S
H2090 C2119 0.950 . S
H2091 C2120 0.950 . S
H2092 C2122 0.950 . S
H2093 C2123 0.950 . S
C2094 H2076 0.951 . S
C2094 C2095 1.366 . S
C2094 C2096 1.388 . S
C2095 C2094 1.366 . S
C2095 C2099 1.385 . S
C2096 H2077 0.951 . S
C2096 C2094 1.388 . S
C2096 C2097 1.366 . S
C2097 C2096 1.366 . S
C2097 C2098 1.414 . S
C2097 C2100 1.499 . S
C2098 H2078 0.950 . S
C2098 C2097 1.414 . S
C2098 C2099 1.374 . S
C2099 H2079 0.950 . S
C2099 C2095 1.385 . S
C2099 C2098 1.374 . S
C2100 C2097 1.499 . S
C2100 C2101 1.373 . S
C2100 C2102 1.389 . S
C2101 H2080 0.950 . S
C2101 C2100 1.373 . S
C2101 C2117 1.377 . S
C2102 C2100 1.389 . S
C2102 C2103 1.524 . S
C2102 C2116 1.377 . S
C2103 C2102 1.524 . S
C2103 C2104 1.397 . S
C2103 C2108 1.363 . S
C2104 H2081 0.950 . S
C2104 C2103 1.397 . S
C2104 C2105 1.334 . S
C2105 H2082 0.950 . S
C2105 C2104 1.334 . S
C2105 C2106 1.287 . S
C2106 C2105 1.287 . S
C2106 C2107 1.524 . S
C2106 H2125 0.913 . S
C2107 H2083 0.950 . S
C2107 C2106 1.524 . S
C2107 C2108 1.415 . S
C2108 H2084 0.950 . S
C2108 C2103 1.363 . S
C2108 C2107 1.415 . S
C2109 H2085 0.951 . S
C2109 C2110 1.366 . S
C2109 C2111 1.388 . S
C2110 C2109 1.366 . S
C2110 C2114 1.385 . S
C2111 H2086 0.951 . S
C2111 C2109 1.388 . S
C2111 C2112 1.366 . S
C2112 C2111 1.366 . S
C2112 C2113 1.414 . S
C2112 C2115 1.499 . S
C2113 H2087 0.950 . S
C2113 C2112 1.414 . S
C2113 C2114 1.374 . S
C2114 H2088 0.950 . S
C2114 C2110 1.385 . S
C2114 C2113 1.374 . S
C2115 C2112 1.499 . S
C2115 C2116 1.373 . S
C2115 C2117 1.389 . S
C2116 H2089 0.950 . S
C2116 C2102 1.377 . S
C2116 C2115 1.373 . S
C2117 C2101 1.377 . S
C2117 C2115 1.389 . S
C2117 C2118 1.524 . S
C2118 C2117 1.524 . S
C2118 C2119 1.397 . S
C2118 C2123 1.363 . S
C2119 H2090 0.950 . S
C2119 C2118 1.397 . S
C2119 C2120 1.334 . S
C2120 H2091 0.950 . S
C2120 C2119 1.334 . S
C2120 C2121 1.287 . S
C2121 C2120 1.287 . S
C2121 C2122 1.524 . S
C2121 H2124 0.999 . S
C2122 H2092 0.950 . S
C2122 C2121 1.524 . S
C2122 C2123 1.415 . S
C2123 H2093 0.950 . S
C2123 C2118 1.363 . S
C2123 C2122 1.415 . S
H2124 C2121 0.999 . S
H2125 C2106 0.913 . S
H2126 C2144 0.951 . S
H2127 C2146 0.951 . S
H2128 C2148 0.950 . S
H2129 C2149 0.950 . S
H2130 C2151 0.950 . S
H2131 C2154 0.950 . S
H2132 C2155 0.950 . S
H2133 C2157 0.950 . S
H2134 C2158 0.950 . S
H2135 C2159 0.951 . S
H2136 C2161 0.951 . S
H2137 C2163 0.950 . S
H2138 C2164 0.950 . S
H2139 C2166 0.950 . S
H2140 C2169 0.950 . S
H2141 C2170 0.950 . S
H2142 C2172 0.950 . S
H2143 C2173 0.950 . S
C2144 H2126 0.951 . S
C2144 C2145 1.366 . S
C2144 C2146 1.388 . S
C2145 C2144 1.366 . S
C2145 C2149 1.385 . S
C2146 H2127 0.951 . S
C2146 C2144 1.388 . S
C2146 C2147 1.366 . S
C2147 C2146 1.366 . S
C2147 C2148 1.414 . S
C2147 C2150 1.499 . S
C2148 H2128 0.950 . S
C2148 C2147 1.414 . S
C2148 C2149 1.374 . S
C2149 H2129 0.950 . S
C2149 C2145 1.385 . S
C2149 C2148 1.374 . S
C2150 C2147 1.499 . S
C2150 C2151 1.373 . S
C2150 C2152 1.389 . S
C2151 H2130 0.950 . S
C2151 C2150 1.373 . S
C2151 C2167 1.377 . S
C2152 C2150 1.389 . S
C2152 C2153 1.524 . S
C2152 C2166 1.377 . S
C2153 C2152 1.524 . S
C2153 C2154 1.397 . S
C2153 C2158 1.363 . S
C2154 H2131 0.950 . S
C2154 C2153 1.397 . S
C2154 C2155 1.334 . S
C2155 H2132 0.950 . S
C2155 C2154 1.334 . S
C2155 C2156 1.287 . S
C2156 C2155 1.287 . S
C2156 C2157 1.524 . S
C2156 H2175 0.913 . S
C2157 H2133 0.950 . S
C2157 C2156 1.524 . S
C2157 C2158 1.415 . S
C2158 H2134 0.950 . S
C2158 C2153 1.363 . S
C2158 C2157 1.415 . S
C2159 H2135 0.951 . S
C2159 C2160 1.366 . S
C2159 C2161 1.388 . S
C2160 C2159 1.366 . S
C2160 C2164 1.385 . S
C2161 H2136 0.951 . S
C2161 C2159 1.388 . S
C2161 C2162 1.366 . S
C2162 C2161 1.366 . S
C2162 C2163 1.414 . S
C2162 C2165 1.499 . S
C2163 H2137 0.950 . S
C2163 C2162 1.414 . S
C2163 C2164 1.374 . S
C2164 H2138 0.950 . S
C2164 C2160 1.385 . S
C2164 C2163 1.374 . S
C2165 C2162 1.499 . S
C2165 C2166 1.373 . S
C2165 C2167 1.389 . S
C2166 H2139 0.950 . S
C2166 C2152 1.377 . S
C2166 C2165 1.373 . S
C2167 C2151 1.377 . S
C2167 C2165 1.389 . S
C2167 C2168 1.524 . S
C2168 C2167 1.524 . S
C2168 C2169 1.397 . S
C2168 C2173 1.363 . S
C2169 H2140 0.950 . S
C2169 C2168 1.397 . S
C2169 C2170 1.334 . S
C2170 H2141 0.950 . S
C2170 C2169 1.334 . S
C2170 C2171 1.287 . S
C2171 C2170 1.287 . S
C2171 C2172 1.524 . S
C2171 H2174 0.999 . S
C2172 H2142 0.950 . S
C2172 C2171 1.524 . S
C2172 C2173 1.415 . S
C2173 H2143 0.950 . S
C2173 C2168 1.363 . S
C2173 C2172 1.415 . S
H2174 C2171 0.999 . S
H2175 C2156 0.913 . S
H2176 C2194 0.951 . S
H2177 C2196 0.951 . S
H2178 C2198 0.950 . S
H2179 C2199 0.950 . S
H2180 C2201 0.950 . S
H2181 C2204 0.950 . S
H2182 C2205 0.950 . S
H2183 C2207 0.950 . S
H2184 C2208 0.950 . S
H2185 C2209 0.951 . S
H2186 C2211 0.951 . S
H2187 C2213 0.950 . S
H2188 C2214 0.950 . S
H2189 C2216 0.950 . S
H2190 C2219 0.950 . S
H2191 C2220 0.950 . S
H2192 C2222 0.950 . S
H2193 C2223 0.950 . S
C2194 H2176 0.951 . S
C2194 C2195 1.366 . S
C2194 C2196 1.388 . S
C2195 C2194 1.366 . S
C2195 C2199 1.385 . S
C2196 H2177 0.951 . S
C2196 C2194 1.388 . S
C2196 C2197 1.366 . S
C2197 C2196 1.366 . S
C2197 C2198 1.414 . S
C2197 C2200 1.499 . S
C2198 H2178 0.950 . S
C2198 C2197 1.414 . S
C2198 C2199 1.374 . S
C2199 H2179 0.950 . S
C2199 C2195 1.385 . S
C2199 C2198 1.374 . S
C2200 C2197 1.499 . S
C2200 C2201 1.373 . S
C2200 C2202 1.389 . S
C2201 H2180 0.950 . S
C2201 C2200 1.373 . S
C2201 C2217 1.377 . S
C2202 C2200 1.389 . S
C2202 C2203 1.524 . S
C2202 C2216 1.377 . S
C2203 C2202 1.524 . S
C2203 C2204 1.397 . S
C2203 C2208 1.363 . S
C2204 H2181 0.950 . S
C2204 C2203 1.397 . S
C2204 C2205 1.334 . S
C2205 H2182 0.950 . S
C2205 C2204 1.334 . S
C2205 C2206 1.287 . S
C2206 C2205 1.287 . S
C2206 C2207 1.524 . S
C2206 H2225 0.913 . S
C2207 H2183 0.950 . S
C2207 C2206 1.524 . S
C2207 C2208 1.415 . S
C2208 H2184 0.950 . S
C2208 C2203 1.363 . S
C2208 C2207 1.415 . S
C2209 H2185 0.951 . S
C2209 C2210 1.366 . S
C2209 C2211 1.388 . S
C2210 C2209 1.366 . S
C2210 C2214 1.385 . S
C2211 H2186 0.951 . S
C2211 C2209 1.388 . S
C2211 C2212 1.366 . S
C2212 C2211 1.366 . S
C2212 C2213 1.414 . S
C2212 C2215 1.499 . S
C2213 H2187 0.950 . S
C2213 C2212 1.414 . S
C2213 C2214 1.374 . S
C2214 H2188 0.950 . S
C2214 C2210 1.385 . S
C2214 C2213 1.374 . S
C2215 C2212 1.499 . S
C2215 C2216 1.373 . S
C2215 C2217 1.389 . S
C2216 H2189 0.950 . S
C2216 C2202 1.377 . S
C2216 C2215 1.373 . S
C2217 C2201 1.377 . S
C2217 C2215 1.389 . S
C2217 C2218 1.524 . S
C2218 C2217 1.524 . S
C2218 C2219 1.397 . S
C2218 C2223 1.363 . S
C2219 H2190 0.950 . S
C2219 C2218 1.397 . S
C2219 C2220 1.334 . S
C2220 H2191 0.950 . S
C2220 C2219 1.334 . S
C2220 C2221 1.287 . S
C2221 C2220 1.287 . S
C2221 C2222 1.524 . S
C2221 H2224 0.999 1_565 S
C2222 H2192 0.950 . S
C2222 C2221 1.524 . S
C2222 C2223 1.415 . S
C2223 H2193 0.950 . S
C2223 C2218 1.363 . S
C2223 C2222 1.415 . S
H2224 C2221 0.999 1_545 S
H2225 C2206 0.913 . S
H2226 C2244 0.951 . S
H2227 C2246 0.951 . S
H2228 C2248 0.950 . S
H2229 C2249 0.950 . S
H2230 C2251 0.950 . S
H2231 C2254 0.950 . S
H2232 C2255 0.950 . S
H2233 C2257 0.950 . S
H2234 C2258 0.950 . S
H2235 C2259 0.951 . S
H2236 C2261 0.951 . S
H2237 C2263 0.950 . S
H2238 C2264 0.950 . S
H2239 C2266 0.950 . S
H2240 C2269 0.950 . S
H2241 C2270 0.950 . S
H2242 C2272 0.950 . S
H2243 C2273 0.950 . S
C2244 H2226 0.951 . S
C2244 C2245 1.366 . S
C2244 C2246 1.388 . S
C2245 C2244 1.366 . S
C2245 C2249 1.385 . S
C2246 H2227 0.951 . S
C2246 C2244 1.388 . S
C2246 C2247 1.366 . S
C2247 C2246 1.366 . S
C2247 C2248 1.414 . S
C2247 C2250 1.499 . S
C2248 H2228 0.950 . S
C2248 C2247 1.414 . S
C2248 C2249 1.374 . S
C2249 H2229 0.950 . S
C2249 C2245 1.385 . S
C2249 C2248 1.374 . S
C2250 C2247 1.499 . S
C2250 C2251 1.373 . S
C2250 C2252 1.389 . S
C2251 H2230 0.950 . S
C2251 C2250 1.373 . S
C2251 C2267 1.377 . S
C2252 C2250 1.389 . S
C2252 C2253 1.524 . S
C2252 C2266 1.377 . S
C2253 C2252 1.524 . S
C2253 C2254 1.397 . S
C2253 C2258 1.363 . S
C2254 H2231 0.950 . S
C2254 C2253 1.397 . S
C2254 C2255 1.334 . S
C2255 H2232 0.950 . S
C2255 C2254 1.334 . S
C2255 C2256 1.287 . S
C2256 C2255 1.287 . S
C2256 C2257 1.524 . S
C2256 H2275 0.913 . S
C2257 H2233 0.950 . S
C2257 C2256 1.524 . S
C2257 C2258 1.415 . S
C2258 H2234 0.950 . S
C2258 C2253 1.363 . S
C2258 C2257 1.415 . S
C2259 H2235 0.951 . S
C2259 C2260 1.366 . S
C2259 C2261 1.388 . S
C2260 C2259 1.366 . S
C2260 C2264 1.385 . S
C2261 H2236 0.951 . S
C2261 C2259 1.388 . S
C2261 C2262 1.366 . S
C2262 C2261 1.366 . S
C2262 C2263 1.414 . S
C2262 C2265 1.499 . S
C2263 H2237 0.950 . S
C2263 C2262 1.414 . S
C2263 C2264 1.374 . S
C2264 H2238 0.950 . S
C2264 C2260 1.385 . S
C2264 C2263 1.374 . S
C2265 C2262 1.499 . S
C2265 C2266 1.373 . S
C2265 C2267 1.389 . S
C2266 H2239 0.950 . S
C2266 C2252 1.377 . S
C2266 C2265 1.373 . S
C2267 C2251 1.377 . S
C2267 C2265 1.389 . S
C2267 C2268 1.524 . S
C2268 C2267 1.524 . S
C2268 C2269 1.397 . S
C2268 C2273 1.363 . S
C2269 H2240 0.950 . S
C2269 C2268 1.397 . S
C2269 C2270 1.334 . S
C2270 H2241 0.950 . S
C2270 C2269 1.334 . S
C2270 C2271 1.287 . S
C2271 C2270 1.287 . S
C2271 C2272 1.524 . S
C2271 H2274 0.999 . S
C2272 H2242 0.950 . S
C2272 C2271 1.524 . S
C2272 C2273 1.415 . S
C2273 H2243 0.950 . S
C2273 C2268 1.363 . S
C2273 C2272 1.415 . S
H2274 C2271 0.999 . S
H2275 C2256 0.913 . S
H2276 C2294 0.951 . S
H2277 C2296 0.951 . S
H2278 C2298 0.950 . S
H2279 C2299 0.950 . S
H2280 C2301 0.950 . S
H2281 C2304 0.950 . S
H2282 C2305 0.950 . S
H2283 C2307 0.950 . S
H2284 C2308 0.950 . S
H2285 C2309 0.951 . S
H2286 C2311 0.951 . S
H2287 C2313 0.950 . S
H2288 C2314 0.950 . S
H2289 C2316 0.950 . S
H2290 C2319 0.950 . S
H2291 C2320 0.950 . S
H2292 C2322 0.950 . S
H2293 C2323 0.950 . S
C2294 H2276 0.951 . S
C2294 C2295 1.366 . S
C2294 C2296 1.388 . S
C2295 C2294 1.366 . S
C2295 C2299 1.385 . S
C2296 H2277 0.951 . S
C2296 C2294 1.388 . S
C2296 C2297 1.366 . S
C2297 C2296 1.366 . S
C2297 C2298 1.414 . S
C2297 C2300 1.499 . S
C2298 H2278 0.950 . S
C2298 C2297 1.414 . S
C2298 C2299 1.374 . S
C2299 H2279 0.950 . S
C2299 C2295 1.385 . S
C2299 C2298 1.374 . S
C2300 C2297 1.499 . S
C2300 C2301 1.373 . S
C2300 C2302 1.389 . S
C2301 H2280 0.950 . S
C2301 C2300 1.373 . S
C2301 C2317 1.377 . S
C2302 C2300 1.389 . S
C2302 C2303 1.524 . S
C2302 C2316 1.377 . S
C2303 C2302 1.524 . S
C2303 C2304 1.397 . S
C2303 C2308 1.363 . S
C2304 H2281 0.950 . S
C2304 C2303 1.397 . S
C2304 C2305 1.334 . S
C2305 H2282 0.950 . S
C2305 C2304 1.334 . S
C2305 C2306 1.287 . S
C2306 C2305 1.287 . S
C2306 C2307 1.524 . S
C2306 H2325 0.913 . S
C2307 H2283 0.950 . S
C2307 C2306 1.524 . S
C2307 C2308 1.415 . S
C2308 H2284 0.950 . S
C2308 C2303 1.363 . S
C2308 C2307 1.415 . S
C2309 H2285 0.951 . S
C2309 C2310 1.366 . S
C2309 C2311 1.388 . S
C2310 C2309 1.366 . S
C2310 C2314 1.385 . S
C2311 H2286 0.951 . S
C2311 C2309 1.388 . S
C2311 C2312 1.366 . S
C2312 C2311 1.366 . S
C2312 C2313 1.414 . S
C2312 C2315 1.499 . S
C2313 H2287 0.950 . S
C2313 C2312 1.414 . S
C2313 C2314 1.374 . S
C2314 H2288 0.950 . S
C2314 C2310 1.385 . S
C2314 C2313 1.374 . S
C2315 C2312 1.499 . S
C2315 C2316 1.373 . S
C2315 C2317 1.389 . S
C2316 H2289 0.950 . S
C2316 C2302 1.377 . S
C2316 C2315 1.373 . S
C2317 C2301 1.377 . S
C2317 C2315 1.389 . S
C2317 C2318 1.524 . S
C2318 C2317 1.524 . S
C2318 C2319 1.397 . S
C2318 C2323 1.363 . S
C2319 H2290 0.950 . S
C2319 C2318 1.397 . S
C2319 C2320 1.334 . S
C2320 H2291 0.950 . S
C2320 C2319 1.334 . S
C2320 C2321 1.287 . S
C2321 C2320 1.287 . S
C2321 C2322 1.524 . S
C2321 H2324 0.999 . S
C2322 H2292 0.950 . S
C2322 C2321 1.524 . S
C2322 C2323 1.415 . S
C2323 H2293 0.950 . S
C2323 C2318 1.363 . S
C2323 C2322 1.415 . S
H2324 C2321 0.999 . S
H2325 C2306 0.913 . S
H2326 C2344 0.951 . S
H2327 C2346 0.951 . S
H2328 C2348 0.950 . S
H2329 C2349 0.950 . S
H2330 C2351 0.950 . S
H2331 C2354 0.950 . S
H2332 C2355 0.950 . S
H2333 C2357 0.950 . S
H2334 C2358 0.950 . S
H2335 C2359 0.951 . S
H2336 C2361 0.951 . S
H2337 C2363 0.950 . S
H2338 C2364 0.950 . S
H2339 C2366 0.950 . S
H2340 C2369 0.950 . S
H2341 C2370 0.950 . S
H2342 C2372 0.950 . S
H2343 C2373 0.950 . S
C2344 H2326 0.951 . S
C2344 C2345 1.366 . S
C2344 C2346 1.388 . S
C2345 C2344 1.366 . S
C2345 C2349 1.385 . S
C2346 H2327 0.951 . S
C2346 C2344 1.388 . S
C2346 C2347 1.366 . S
C2347 C2346 1.366 . S
C2347 C2348 1.414 . S
C2347 C2350 1.499 . S
C2348 H2328 0.950 . S
C2348 C2347 1.414 . S
C2348 C2349 1.374 . S
C2349 H2329 0.950 . S
C2349 C2345 1.385 . S
C2349 C2348 1.374 . S
C2350 C2347 1.499 . S
C2350 C2351 1.373 . S
C2350 C2352 1.389 . S
C2351 H2330 0.950 . S
C2351 C2350 1.373 . S
C2351 C2367 1.377 . S
C2352 C2350 1.389 . S
C2352 C2353 1.524 . S
C2352 C2366 1.377 . S
C2353 C2352 1.524 . S
C2353 C2354 1.397 . S
C2353 C2358 1.363 . S
C2354 H2331 0.950 . S
C2354 C2353 1.397 . S
C2354 C2355 1.334 . S
C2355 H2332 0.950 . S
C2355 C2354 1.334 . S
C2355 C2356 1.287 . S
C2356 C2355 1.287 . S
C2356 C2357 1.524 . S
C2356 H2375 0.913 . S
C2357 H2333 0.950 . S
C2357 C2356 1.524 . S
C2357 C2358 1.415 . S
C2358 H2334 0.950 . S
C2358 C2353 1.363 . S
C2358 C2357 1.415 . S
C2359 H2335 0.951 . S
C2359 C2360 1.366 . S
C2359 C2361 1.388 . S
C2360 C2359 1.366 . S
C2360 C2364 1.385 . S
C2361 H2336 0.951 . S
C2361 C2359 1.388 . S
C2361 C2362 1.366 . S
C2362 C2361 1.366 . S
C2362 C2363 1.414 . S
C2362 C2365 1.499 . S
C2363 H2337 0.950 . S
C2363 C2362 1.414 . S
C2363 C2364 1.374 . S
C2364 H2338 0.950 . S
C2364 C2360 1.385 . S
C2364 C2363 1.374 . S
C2365 C2362 1.499 . S
C2365 C2366 1.373 . S
C2365 C2367 1.389 . S
C2366 H2339 0.950 . S
C2366 C2352 1.377 . S
C2366 C2365 1.373 . S
C2367 C2351 1.377 . S
C2367 C2365 1.389 . S
C2367 C2368 1.524 . S
C2368 C2367 1.524 . S
C2368 C2369 1.397 . S
C2368 C2373 1.363 . S
C2369 H2340 0.950 . S
C2369 C2368 1.397 . S
C2369 C2370 1.334 . S
C2370 H2341 0.950 . S
C2370 C2369 1.334 . S
C2370 C2371 1.287 . S
C2371 C2370 1.287 . S
C2371 C2372 1.524 . S
C2371 H2374 0.999 . S
C2372 H2342 0.950 . S
C2372 C2371 1.524 . S
C2372 C2373 1.415 . S
C2373 H2343 0.950 . S
C2373 C2368 1.363 . S
C2373 C2372 1.415 . S
H2374 C2371 0.999 . S
H2375 C2356 0.913 . S
H2376 C2394 0.951 . S
H2377 C2396 0.951 . S
H2378 C2398 0.950 . S
H2379 C2399 0.950 . S
H2380 C2401 0.950 . S
H2381 C2404 0.950 . S
H2382 C2405 0.950 . S
H2383 C2407 0.950 . S
H2384 C2408 0.950 1_655 S
H2385 C2409 0.951 . S
H2386 C2411 0.951 . S
H2387 C2413 0.950 . S
H2388 C2414 0.950 . S
H2389 C2416 0.950 . S
H2390 C2419 0.950 . S
H2391 C2420 0.950 . S
H2392 C2422 0.950 . S
H2393 C2423 0.950 . S
C2394 H2376 0.951 . S
C2394 C2395 1.366 . S
C2394 C2396 1.388 . S
C2395 C2394 1.366 . S
C2395 C2399 1.385 . S
C2396 H2377 0.951 . S
C2396 C2394 1.388 . S
C2396 C2397 1.366 . S
C2397 C2396 1.366 . S
C2397 C2398 1.414 . S
C2397 C2400 1.499 . S
C2398 H2378 0.950 . S
C2398 C2397 1.414 . S
C2398 C2399 1.374 . S
C2399 H2379 0.950 . S
C2399 C2395 1.385 . S
C2399 C2398 1.374 . S
C2400 C2397 1.499 . S
C2400 C2401 1.373 . S
C2400 C2402 1.389 . S
C2401 H2380 0.950 . S
C2401 C2400 1.373 . S
C2401 C2417 1.377 . S
C2402 C2400 1.389 . S
C2402 C2403 1.524 . S
C2402 C2416 1.377 . S
C2403 C2402 1.524 . S
C2403 C2404 1.397 . S
C2403 C2408 1.363 . S
C2404 H2381 0.950 . S
C2404 C2403 1.397 . S
C2404 C2405 1.334 . S
C2405 H2382 0.950 . S
C2405 C2404 1.334 . S
C2405 C2406 1.287 . S
C2406 C2405 1.287 . S
C2406 C2407 1.524 1_455 S
C2406 H2425 0.913 . S
C2407 H2383 0.950 . S
C2407 C2406 1.524 1_655 S
C2407 C2408 1.415 1_655 S
C2408 H2384 0.950 1_455 S
C2408 C2403 1.363 . S
C2408 C2407 1.415 1_455 S
C2409 H2385 0.951 . S
C2409 C2410 1.366 . S
C2409 C2411 1.388 . S
C2410 C2409 1.366 . S
C2410 C2414 1.385 . S
C2411 H2386 0.951 . S
C2411 C2409 1.388 . S
C2411 C2412 1.366 . S
C2412 C2411 1.366 . S
C2412 C2413 1.414 . S
C2412 C2415 1.499 . S
C2413 H2387 0.950 . S
C2413 C2412 1.414 . S
C2413 C2414 1.374 . S
C2414 H2388 0.950 . S
C2414 C2410 1.385 . S
C2414 C2413 1.374 . S
C2415 C2412 1.499 . S
C2415 C2416 1.373 . S
C2415 C2417 1.389 . S
C2416 H2389 0.950 . S
C2416 C2402 1.377 . S
C2416 C2415 1.373 . S
C2417 C2401 1.377 . S
C2417 C2415 1.389 . S
C2417 C2418 1.524 . S
C2418 C2417 1.524 . S
C2418 C2419 1.397 . S
C2418 C2423 1.363 . S
C2419 H2390 0.950 . S
C2419 C2418 1.397 . S
C2419 C2420 1.334 . S
C2420 H2391 0.950 . S
C2420 C2419 1.334 . S
C2420 C2421 1.287 . S
C2421 C2420 1.287 . S
C2421 C2422 1.524 . S
C2421 H2424 0.999 . S
C2422 H2392 0.950 . S
C2422 C2421 1.524 . S
C2422 C2423 1.415 . S
C2423 H2393 0.950 . S
C2423 C2418 1.363 . S
C2423 C2422 1.415 . S
H2424 C2421 0.999 . S
H2425 C2406 0.913 . S
H2426 C2444 0.951 . S
H2427 C2446 0.951 . S
H2428 C2448 0.950 . S
H2429 C2449 0.950 . S
H2430 C2451 0.950 . S
H2431 C2454 0.950 . S
H2432 C2455 0.950 . S
H2433 C2457 0.950 . S
H2434 C2458 0.950 . S
H2435 C2459 0.951 . S
H2436 C2461 0.951 . S
H2437 C2463 0.950 . S
H2438 C2464 0.950 . S
H2439 C2466 0.950 . S
H2440 C2469 0.950 . S
H2441 C2470 0.950 . S
H2442 C2472 0.950 . S
H2443 C2473 0.950 . S
C2444 H2426 0.951 . S
C2444 C2445 1.366 . S
C2444 C2446 1.388 . S
C2445 C2444 1.366 . S
C2445 C2449 1.385 . S
C2446 H2427 0.951 . S
C2446 C2444 1.388 . S
C2446 C2447 1.366 . S
C2447 C2446 1.366 . S
C2447 C2448 1.414 . S
C2447 C2450 1.499 . S
C2448 H2428 0.950 . S
C2448 C2447 1.414 . S
C2448 C2449 1.374 . S
C2449 H2429 0.950 . S
C2449 C2445 1.385 . S
C2449 C2448 1.374 . S
C2450 C2447 1.499 . S
C2450 C2451 1.373 . S
C2450 C2452 1.389 . S
C2451 H2430 0.950 . S
C2451 C2450 1.373 . S
C2451 C2467 1.377 . S
C2452 C2450 1.389 . S
C2452 C2453 1.524 . S
C2452 C2466 1.377 . S
C2453 C2452 1.524 . S
C2453 C2454 1.397 . S
C2453 C2458 1.363 . S
C2454 H2431 0.950 . S
C2454 C2453 1.397 . S
C2454 C2455 1.334 . S
C2455 H2432 0.950 . S
C2455 C2454 1.334 . S
C2455 C2456 1.287 . S
C2456 C2455 1.287 . S
C2456 C2457 1.524 . S
C2456 H2475 0.913 . S
C2457 H2433 0.950 . S
C2457 C2456 1.524 . S
C2457 C2458 1.415 . S
C2458 H2434 0.950 . S
C2458 C2453 1.363 . S
C2458 C2457 1.415 . S
C2459 H2435 0.951 . S
C2459 C2460 1.366 . S
C2459 C2461 1.388 . S
C2460 C2459 1.366 . S
C2460 C2464 1.385 . S
C2461 H2436 0.951 . S
C2461 C2459 1.388 . S
C2461 C2462 1.366 . S
C2462 C2461 1.366 . S
C2462 C2463 1.414 . S
C2462 C2465 1.499 . S
C2463 H2437 0.950 . S
C2463 C2462 1.414 . S
C2463 C2464 1.374 . S
C2464 H2438 0.950 . S
C2464 C2460 1.385 . S
C2464 C2463 1.374 . S
C2465 C2462 1.499 . S
C2465 C2466 1.373 . S
C2465 C2467 1.389 . S
C2466 H2439 0.950 . S
C2466 C2452 1.377 . S
C2466 C2465 1.373 . S
C2467 C2451 1.377 . S
C2467 C2465 1.389 . S
C2467 C2468 1.524 . S
C2468 C2467 1.524 . S
C2468 C2469 1.397 . S
C2468 C2473 1.363 . S
C2469 H2440 0.950 . S
C2469 C2468 1.397 . S
C2469 C2470 1.334 . S
C2470 H2441 0.950 . S
C2470 C2469 1.334 . S
C2470 C2471 1.287 . S
C2471 C2470 1.287 . S
C2471 C2472 1.524 . S
C2471 H2474 0.999 . S
C2472 H2442 0.950 . S
C2472 C2471 1.524 . S
C2472 C2473 1.415 . S
C2473 H2443 0.950 . S
C2473 C2468 1.363 . S
C2473 C2472 1.415 . S
H2474 C2471 0.999 . S
H2475 C2456 0.913 . S
H2476 C2494 0.951 . S
H2477 C2496 0.951 . S
H2478 C2498 0.950 . S
H2479 C2499 0.950 . S
H2480 C2501 0.950 . S
H2481 C2504 0.950 . S
H2482 C2505 0.950 . S
H2483 C2507 0.950 . S
H2484 C2508 0.950 . S
H2485 C2509 0.951 . S
H2486 C2511 0.951 . S
H2487 C2513 0.950 . S
H2488 C2514 0.950 . S
H2489 C2516 0.950 . S
H2490 C2519 0.950 . S
H2491 C2520 0.950 . S
H2492 C2522 0.950 . S
H2493 C2523 0.950 . S
C2494 H2476 0.951 . S
C2494 C2495 1.366 . S
C2494 C2496 1.388 . S
C2495 C2494 1.366 . S
C2495 C2499 1.385 . S
C2496 H2477 0.951 . S
C2496 C2494 1.388 . S
C2496 C2497 1.366 . S
C2497 C2496 1.366 . S
C2497 C2498 1.414 . S
C2497 C2500 1.499 . S
C2498 H2478 0.950 . S
C2498 C2497 1.414 . S
C2498 C2499 1.374 . S
C2499 H2479 0.950 . S
C2499 C2495 1.385 . S
C2499 C2498 1.374 . S
C2500 C2497 1.499 . S
C2500 C2501 1.373 . S
C2500 C2502 1.389 . S
C2501 H2480 0.950 . S
C2501 C2500 1.373 . S
C2501 C2517 1.377 . S
C2502 C2500 1.389 . S
C2502 C2503 1.524 . S
C2502 C2516 1.377 . S
C2503 C2502 1.524 . S
C2503 C2504 1.397 . S
C2503 C2508 1.363 . S
C2504 H2481 0.950 . S
C2504 C2503 1.397 . S
C2504 C2505 1.334 . S
C2505 H2482 0.950 . S
C2505 C2504 1.334 . S
C2505 C2506 1.287 . S
C2506 C2505 1.287 . S
C2506 C2507 1.524 . S
C2506 H2525 0.913 . S
C2507 H2483 0.950 . S
C2507 C2506 1.524 . S
C2507 C2508 1.415 . S
C2508 H2484 0.950 . S
C2508 C2503 1.363 . S
C2508 C2507 1.415 . S
C2509 H2485 0.951 . S
C2509 C2510 1.366 1_556 S
C2509 C2511 1.388 . S
C2510 C2509 1.366 1_554 S
C2510 C2514 1.385 . S
C2511 H2486 0.951 . S
C2511 C2509 1.388 . S
C2511 C2512 1.366 . S
C2512 C2511 1.366 . S
C2512 C2513 1.414 1_556 S
C2512 C2515 1.499 . S
C2513 H2487 0.950 . S
C2513 C2512 1.414 1_554 S
C2513 C2514 1.374 . S
C2514 H2488 0.950 . S
C2514 C2510 1.385 . S
C2514 C2513 1.374 . S
C2515 C2512 1.499 . S
C2515 C2516 1.373 . S
C2515 C2517 1.389 . S
C2516 H2489 0.950 . S
C2516 C2502 1.377 . S
C2516 C2515 1.373 . S
C2517 C2501 1.377 . S
C2517 C2515 1.389 . S
C2517 C2518 1.524 . S
C2518 C2517 1.524 . S
C2518 C2519 1.397 . S
C2518 C2523 1.363 . S
C2519 H2490 0.950 . S
C2519 C2518 1.397 . S
C2519 C2520 1.334 . S
C2520 H2491 0.950 . S
C2520 C2519 1.334 . S
C2520 C2521 1.287 . S
C2521 C2520 1.287 . S
C2521 C2522 1.524 . S
C2521 H2524 0.999 . S
C2522 H2492 0.950 . S
C2522 C2521 1.524 . S
C2522 C2523 1.415 . S
C2523 H2493 0.950 . S
C2523 C2518 1.363 . S
C2523 C2522 1.415 . S
H2524 C2521 0.999 . S
H2525 C2506 0.913 . S
H2526 C2544 0.951 . S
H2527 C2546 0.951 . S
H2528 C2548 0.950 . S
H2529 C2549 0.950 . S
H2530 C2551 0.950 . S
H2531 C2554 0.950 . S
H2532 C2555 0.950 . S
H2533 C2557 0.950 . S
H2534 C2558 0.950 . S
H2535 C2559 0.951 . S
H2536 C2561 0.951 . S
H2537 C2563 0.950 . S
H2538 C2564 0.950 . S
H2539 C2566 0.950 . S
H2540 C2569 0.950 . S
H2541 C2570 0.950 . S
H2542 C2572 0.950 . S
H2543 C2573 0.950 . S
C2544 H2526 0.951 . S
C2544 C2545 1.366 . S
C2544 C2546 1.388 . S
C2545 C2544 1.366 . S
C2545 C2549 1.385 . S
C2546 H2527 0.951 . S
C2546 C2544 1.388 . S
C2546 C2547 1.366 . S
C2547 C2546 1.366 . S
C2547 C2548 1.414 . S
C2547 C2550 1.499 . S
C2548 H2528 0.950 . S
C2548 C2547 1.414 . S
C2548 C2549 1.374 . S
C2549 H2529 0.950 . S
C2549 C2545 1.385 . S
C2549 C2548 1.374 . S
C2550 C2547 1.499 . S
C2550 C2551 1.373 . S
C2550 C2552 1.389 . S
C2551 H2530 0.950 . S
C2551 C2550 1.373 . S
C2551 C2567 1.377 . S
C2552 C2550 1.389 . S
C2552 C2553 1.524 . S
C2552 C2566 1.377 . S
C2553 C2552 1.524 . S
C2553 C2554 1.397 . S
C2553 C2558 1.363 . S
C2554 H2531 0.950 . S
C2554 C2553 1.397 . S
C2554 C2555 1.334 . S
C2555 H2532 0.950 . S
C2555 C2554 1.334 . S
C2555 C2556 1.287 . S
C2556 C2555 1.287 . S
C2556 C2557 1.524 . S
C2556 H2575 0.913 . S
C2557 H2533 0.950 . S
C2557 C2556 1.524 . S
C2557 C2558 1.415 . S
C2558 H2534 0.950 . S
C2558 C2553 1.363 . S
C2558 C2557 1.415 . S
C2559 H2535 0.951 . S
C2559 C2560 1.366 . S
C2559 C2561 1.388 . S
C2560 C2559 1.366 . S
C2560 C2564 1.385 . S
C2561 H2536 0.951 . S
C2561 C2559 1.388 . S
C2561 C2562 1.366 . S
C2562 C2561 1.366 . S
C2562 C2563 1.414 . S
C2562 C2565 1.499 . S
C2563 H2537 0.950 . S
C2563 C2562 1.414 . S
C2563 C2564 1.374 . S
C2564 H2538 0.950 . S
C2564 C2560 1.385 . S
C2564 C2563 1.374 . S
C2565 C2562 1.499 . S
C2565 C2566 1.373 . S
C2565 C2567 1.389 . S
C2566 H2539 0.950 . S
C2566 C2552 1.377 . S
C2566 C2565 1.373 . S
C2567 C2551 1.377 . S
C2567 C2565 1.389 . S
C2567 C2568 1.524 . S
C2568 C2567 1.524 . S
C2568 C2569 1.397 . S
C2568 C2573 1.363 . S
C2569 H2540 0.950 . S
C2569 C2568 1.397 . S
C2569 C2570 1.334 . S
C2570 H2541 0.950 . S
C2570 C2569 1.334 . S
C2570 C2571 1.287 . S
C2571 C2570 1.287 . S
C2571 C2572 1.524 . S
C2571 H2574 0.999 . S
C2572 H2542 0.950 . S
C2572 C2571 1.524 . S
C2572 C2573 1.415 . S
C2573 H2543 0.950 . S
C2573 C2568 1.363 . S
C2573 C2572 1.415 . S
H2574 C2571 0.999 . S
H2575 C2556 0.913 . S
H2576 C2594 0.951 . S
H2577 C2596 0.951 . S
H2578 C2598 0.950 . S
H2579 C2599 0.950 . S
H2580 C2601 0.950 . S
H2581 C2604 0.950 . S
H2582 C2605 0.950 . S
H2583 C2607 0.950 . S
H2584 C2608 0.950 . S
H2585 C2609 0.951 . S
H2586 C2611 0.951 . S
H2587 C2613 0.950 . S
H2588 C2614 0.950 . S
H2589 C2616 0.950 . S
H2590 C2619 0.950 . S
H2591 C2620 0.915 1_554 S
H2592 C2622 0.950 . S
H2593 C2623 0.950 . S
C2594 H2576 0.951 . S
C2594 C2595 1.366 . S
C2594 C2596 1.388 . S
C2595 C2594 1.366 . S
C2595 C2599 1.385 . S
C2596 H2577 0.951 . S
C2596 C2594 1.388 . S
C2596 C2597 1.366 . S
C2597 C2596 1.366 . S
C2597 C2598 1.414 . S
C2597 C2600 1.499 . S
C2598 H2578 0.950 . S
C2598 C2597 1.414 . S
C2598 C2599 1.374 . S
C2599 H2579 0.950 . S
C2599 C2595 1.385 . S
C2599 C2598 1.374 . S
C2600 C2597 1.499 . S
C2600 C2601 1.373 . S
C2600 C2602 1.389 . S
C2601 H2580 0.950 . S
C2601 C2600 1.373 . S
C2601 C2617 1.377 . S
C2602 C2600 1.389 . S
C2602 C2603 1.524 . S
C2602 C2616 1.377 . S
C2603 C2602 1.524 . S
C2603 C2604 1.397 . S
C2603 C2608 1.363 1_545 S
C2604 H2581 0.950 . S
C2604 C2603 1.397 . S
C2604 C2605 1.334 . S
C2605 H2582 0.950 . S
C2605 C2604 1.334 . S
C2605 C2606 1.287 1_545 S
C2606 C2605 1.287 1_565 S
C2606 C2607 1.524 . S
C2606 H2625 0.913 . S
C2607 H2583 0.950 . S
C2607 C2606 1.524 . S
C2607 C2608 1.415 . S
C2608 H2584 0.950 . S
C2608 C2603 1.363 1_565 S
C2608 C2607 1.415 . S
C2609 H2585 0.951 . S
C2609 C2610 1.366 . S
C2609 C2611 1.388 . S
C2610 C2609 1.366 . S
C2610 C2614 1.385 . S
C2611 H2586 0.951 . S
C2611 C2609 1.388 . S
C2611 C2612 1.366 . S
C2612 C2611 1.366 . S
C2612 C2613 1.414 . S
C2612 C2615 1.499 . S
C2613 H2587 0.950 . S
C2613 C2612 1.414 . S
C2613 C2614 1.374 . S
C2614 H2588 0.950 . S
C2614 C2610 1.385 . S
C2614 C2613 1.374 . S
C2615 C2612 1.499 . S
C2615 C2616 1.373 . S
C2615 C2617 1.389 . S
C2616 H2589 0.950 . S
C2616 C2602 1.377 . S
C2616 C2615 1.373 . S
C2617 C2601 1.377 . S
C2617 C2615 1.389 . S
C2617 C2618 1.524 . S
C2618 C2617 1.524 . S
C2618 C2619 1.397 . S
C2618 C2623 1.363 . S
C2619 H2590 0.950 . S
C2619 C2618 1.397 . S
C2619 C2620 1.366 . S
C2620 H2591 0.915 1_556 S
C2620 C2619 1.366 . S
C2620 C2621 1.293 . S
C2621 C2620 1.293 . S
C2621 C2622 1.524 . S
C2621 H2624 0.999 1_556 S
C2622 H2592 0.950 . S
C2622 C2621 1.524 . S
C2622 C2623 1.415 . S
C2623 H2593 0.950 . S
C2623 C2618 1.363 . S
C2623 C2622 1.415 . S
H2624 C2621 0.999 1_554 S
H2625 C2606 0.913 . S
H2626 C2644 0.951 . S
H2627 C2646 0.951 . S
H2628 C2648 0.950 . S
H2629 C2649 0.950 . S
H2630 C2651 0.950 . S
H2631 C2654 0.950 . S
H2632 C2655 0.950 . S
H2633 C2657 0.950 . S
H2634 C2658 0.950 . S
H2635 C2659 0.951 . S
H2636 C2661 0.951 . S
H2637 C2663 0.950 . S
H2638 C2664 0.950 . S
H2639 C2666 0.950 . S
H2640 C2669 0.950 . S
H2641 C2670 0.950 . S
H2642 C2672 0.950 . S
H2643 C2673 0.950 . S
C2644 H2626 0.951 . S
C2644 C2645 1.366 . S
C2644 C2646 1.388 . S
C2645 C2644 1.366 . S
C2645 C2649 1.385 . S
C2646 H2627 0.951 . S
C2646 C2644 1.388 . S
C2646 C2647 1.366 . S
C2647 C2646 1.366 . S
C2647 C2648 1.414 . S
C2647 C2650 1.499 . S
C2648 H2628 0.950 . S
C2648 C2647 1.414 . S
C2648 C2649 1.374 . S
C2649 H2629 0.950 . S
C2649 C2645 1.385 . S
C2649 C2648 1.374 . S
C2650 C2647 1.499 . S
C2650 C2651 1.373 . S
C2650 C2652 1.389 . S
C2651 H2630 0.950 . S
C2651 C2650 1.373 . S
C2651 C2667 1.377 . S
C2652 C2650 1.389 . S
C2652 C2653 1.524 . S
C2652 C2666 1.377 . S
C2653 C2652 1.524 . S
C2653 C2654 1.397 . S
C2653 C2658 1.363 . S
C2654 H2631 0.950 . S
C2654 C2653 1.397 . S
C2654 C2655 1.334 . S
C2655 H2632 0.950 . S
C2655 C2654 1.334 . S
C2655 C2656 1.287 . S
C2656 C2655 1.287 . S
C2656 C2657 1.524 . S
C2656 H2675 0.913 . S
C2657 H2633 0.950 . S
C2657 C2656 1.524 . S
C2657 C2658 1.415 . S
C2658 H2634 0.950 . S
C2658 C2653 1.363 . S
C2658 C2657 1.415 . S
C2659 H2635 0.951 . S
C2659 C2660 1.366 . S
C2659 C2661 1.388 . S
C2660 C2659 1.366 . S
C2660 C2664 1.385 . S
C2661 H2636 0.951 . S
C2661 C2659 1.388 . S
C2661 C2662 1.366 . S
C2662 C2661 1.366 . S
C2662 C2663 1.414 . S
C2662 C2665 1.499 . S
C2663 H2637 0.950 . S
C2663 C2662 1.414 . S
C2663 C2664 1.374 . S
C2664 H2638 0.950 . S
C2664 C2660 1.385 . S
C2664 C2663 1.374 . S
C2665 C2662 1.499 . S
C2665 C2666 1.373 . S
C2665 C2667 1.389 . S
C2666 H2639 0.950 . S
C2666 C2652 1.377 . S
C2666 C2665 1.373 . S
C2667 C2651 1.377 . S
C2667 C2665 1.389 . S
C2667 C2668 1.524 . S
C2668 C2667 1.524 . S
C2668 C2669 1.397 . S
C2668 C2673 1.363 . S
C2669 H2640 0.950 . S
C2669 C2668 1.397 . S
C2669 C2670 1.334 . S
C2670 H2641 0.950 . S
C2670 C2669 1.334 . S
C2670 C2671 1.287 . S
C2671 C2670 1.287 . S
C2671 C2672 1.524 . S
C2671 H2674 0.999 . S
C2672 H2642 0.950 . S
C2672 C2671 1.524 . S
C2672 C2673 1.415 . S
C2673 H2643 0.950 . S
C2673 C2668 1.363 . S
C2673 C2672 1.415 . S
H2674 C2671 0.999 . S
H2675 C2656 0.913 . S
H2676 C2694 0.951 . S
H2677 C2696 0.951 . S
H2678 C2698 0.950 . S
H2679 C2699 0.950 . S
H2680 C2701 0.950 . S
H2681 C2704 0.950 . S
H2682 C2705 0.950 . S
H2683 C2707 0.950 . S
H2684 C2708 0.950 . S
H2685 C2709 0.951 . S
H2686 C2711 0.951 . S
H2687 C2713 0.950 . S
H2688 C2714 0.950 . S
H2689 C2716 0.950 . S
H2690 C2719 0.950 . S
H2691 C2720 0.950 . S
H2692 C2722 0.950 . S
H2693 C2723 0.950 . S
C2694 H2676 0.951 . S
C2694 C2695 1.366 . S
C2694 C2696 1.388 . S
C2695 C2694 1.366 . S
C2695 C2699 1.385 . S
C2696 H2677 0.951 . S
C2696 C2694 1.388 . S
C2696 C2697 1.366 . S
C2697 C2696 1.366 . S
C2697 C2698 1.414 . S
C2697 C2700 1.499 . S
C2698 H2678 0.950 . S
C2698 C2697 1.414 . S
C2698 C2699 1.374 . S
C2699 H2679 0.950 . S
C2699 C2695 1.385 . S
C2699 C2698 1.374 . S
C2700 C2697 1.499 . S
C2700 C2701 1.373 . S
C2700 C2702 1.389 . S
C2701 H2680 0.950 . S
C2701 C2700 1.373 . S
C2701 C2717 1.377 . S
C2702 C2700 1.389 . S
C2702 C2703 1.524 . S
C2702 C2716 1.377 . S
C2703 C2702 1.524 . S
C2703 C2704 1.397 . S
C2703 C2708 1.363 . S
C2704 H2681 0.950 . S
C2704 C2703 1.397 . S
C2704 C2705 1.334 1_545 S
C2705 H2682 0.950 . S
C2705 C2704 1.334 1_565 S
C2705 C2706 1.287 . S
C2706 C2705 1.287 . S
C2706 C2707 1.524 . S
C2706 H2725 0.913 . S
C2707 H2683 0.950 . S
C2707 C2706 1.524 . S
C2707 C2708 1.415 1_565 S
C2708 H2684 0.950 . S
C2708 C2703 1.363 . S
C2708 C2707 1.415 1_545 S
C2709 H2685 0.951 . S
C2709 C2710 1.366 . S
C2709 C2711 1.388 . S
C2710 C2709 1.366 . S
C2710 C2714 1.385 . S
C2711 H2686 0.951 . S
C2711 C2709 1.388 . S
C2711 C2712 1.366 . S
C2712 C2711 1.366 . S
C2712 C2713 1.414 . S
C2712 C2715 1.499 . S
C2713 H2687 0.950 . S
C2713 C2712 1.414 . S
C2713 C2714 1.374 . S
C2714 H2688 0.950 . S
C2714 C2710 1.385 . S
C2714 C2713 1.374 . S
C2715 C2712 1.499 . S
C2715 C2716 1.373 . S
C2715 C2717 1.389 . S
C2716 H2689 0.950 . S
C2716 C2702 1.377 . S
C2716 C2715 1.373 . S
C2717 C2701 1.377 . S
C2717 C2715 1.389 . S
C2717 C2718 1.524 . S
C2718 C2717 1.524 . S
C2718 C2719 1.397 . S
C2718 C2723 1.363 . S
C2719 H2690 0.950 . S
C2719 C2718 1.397 . S
C2719 C2720 1.334 . S
C2720 H2691 0.950 . S
C2720 C2719 1.334 . S
C2720 C2721 1.287 . S
C2721 C2720 1.287 . S
C2721 C2722 1.524 . S
C2721 H2724 0.999 . S
C2722 H2692 0.950 . S
C2722 C2721 1.524 . S
C2722 C2723 1.415 . S
C2723 H2693 0.950 . S
C2723 C2718 1.363 . S
C2723 C2722 1.415 . S
H2724 C2721 0.999 . S
H2725 C2706 0.913 . S
H2726 C2744 0.951 . S
H2727 C2746 0.951 . S
H2728 C2748 0.950 . S
H2729 C2749 0.950 . S
H2730 C2751 0.950 . S
H2731 C2754 0.950 . S
H2732 C2755 0.950 . S
H2733 C2757 0.950 . S
H2734 C2758 0.950 . S
H2735 C2759 0.951 . S
H2736 C2761 0.951 . S
H2737 C2763 0.950 . S
H2738 C2764 0.950 . S
H2739 C2766 0.950 . S
H2740 C2769 0.950 . S
H2741 C2770 0.950 . S
H2742 C2772 0.950 . S
H2743 C2773 0.950 . S
C2744 H2726 0.951 . S
C2744 C2745 1.366 . S
C2744 C2746 1.388 . S
C2745 C2744 1.366 . S
C2745 C2749 1.385 . S
C2746 H2727 0.951 . S
C2746 C2744 1.388 . S
C2746 C2747 1.366 . S
C2747 C2746 1.366 . S
C2747 C2748 1.414 . S
C2747 C2750 1.499 . S
C2748 H2728 0.950 . S
C2748 C2747 1.414 . S
C2748 C2749 1.374 . S
C2749 H2729 0.950 . S
C2749 C2745 1.385 . S
C2749 C2748 1.374 . S
C2750 C2747 1.499 . S
C2750 C2751 1.373 . S
C2750 C2752 1.389 . S
C2751 H2730 0.950 . S
C2751 C2750 1.373 . S
C2751 C2767 1.377 . S
C2752 C2750 1.389 . S
C2752 C2753 1.524 . S
C2752 C2766 1.377 . S
C2753 C2752 1.524 . S
C2753 C2754 1.397 . S
C2753 C2758 1.363 . S
C2754 H2731 0.950 . S
C2754 C2753 1.397 . S
C2754 C2755 1.334 . S
C2755 H2732 0.950 . S
C2755 C2754 1.334 . S
C2755 C2756 1.287 . S
C2756 C2755 1.287 . S
C2756 C2757 1.524 . S
C2756 H2775 0.913 . S
C2757 H2733 0.950 . S
C2757 C2756 1.524 . S
C2757 C2758 1.415 . S
C2758 H2734 0.950 . S
C2758 C2753 1.363 . S
C2758 C2757 1.415 . S
C2759 H2735 0.951 . S
C2759 C2760 1.366 . S
C2759 C2761 1.388 . S
C2760 C2759 1.366 . S
C2760 C2764 1.385 . S
C2761 H2736 0.951 . S
C2761 C2759 1.388 . S
C2761 C2762 1.366 . S
C2762 C2761 1.366 . S
C2762 C2763 1.414 . S
C2762 C2765 1.499 . S
C2763 H2737 0.950 . S
C2763 C2762 1.414 . S
C2763 C2764 1.374 . S
C2764 H2738 0.950 . S
C2764 C2760 1.385 . S
C2764 C2763 1.374 . S
C2765 C2762 1.499 . S
C2765 C2766 1.373 . S
C2765 C2767 1.389 . S
C2766 H2739 0.950 . S
C2766 C2752 1.377 . S
C2766 C2765 1.373 . S
C2767 C2751 1.377 . S
C2767 C2765 1.389 . S
C2767 C2768 1.524 . S
C2768 C2767 1.524 . S
C2768 C2769 1.397 . S
C2768 C2773 1.363 . S
C2769 H2740 0.950 . S
C2769 C2768 1.397 . S
C2769 C2770 1.334 . S
C2770 H2741 0.950 . S
C2770 C2769 1.334 . S
C2770 C2771 1.287 . S
C2771 C2770 1.287 . S
C2771 C2772 1.524 . S
C2771 H2774 0.999 . S
C2772 H2742 0.950 . S
C2772 C2771 1.524 . S
C2772 C2773 1.415 . S
C2773 H2743 0.950 . S
C2773 C2768 1.363 . S
C2773 C2772 1.415 . S
H2774 C2771 0.999 . S
H2775 C2756 0.913 . S
H2776 C2794 0.951 . S
H2777 C2796 0.951 . S
H2778 C2798 0.950 . S
H2779 C2799 0.950 . S
H2780 C2801 0.950 . S
H2781 C2804 0.950 . S
H2782 C2805 0.950 . S
H2783 C2807 0.950 . S
H2784 C2808 0.950 . S
H2785 C2809 0.951 . S
H2786 C2811 0.951 . S
H2787 C2813 0.950 . S
H2788 C2814 0.950 . S
H2789 C2816 0.950 . S
H2790 C2819 0.950 1_565 S
H2791 C2820 0.950 . S
H2792 C2822 0.950 . S
H2793 C2823 0.950 . S
C2794 H2776 0.951 . S
C2794 C2795 1.366 . S
C2794 C2796 1.388 . S
C2795 C2794 1.366 . S
C2795 C2799 1.385 . S
C2796 H2777 0.951 . S
C2796 C2794 1.388 . S
C2796 C2797 1.366 . S
C2797 C2796 1.366 . S
C2797 C2798 1.414 . S
C2797 C2800 1.499 . S
C2798 H2778 0.950 . S
C2798 C2797 1.414 . S
C2798 C2799 1.374 . S
C2799 H2779 0.950 . S
C2799 C2795 1.385 . S
C2799 C2798 1.374 . S
C2800 C2797 1.499 . S
C2800 C2801 1.373 . S
C2800 C2802 1.389 . S
C2801 H2780 0.950 . S
C2801 C2800 1.373 . S
C2801 C2817 1.377 . S
C2802 C2800 1.389 . S
C2802 C2803 1.524 . S
C2802 C2816 1.377 . S
C2803 C2802 1.524 . S
C2803 C2804 1.397 . S
C2803 C2808 1.363 . S
C2804 H2781 0.950 . S
C2804 C2803 1.397 . S
C2804 C2805 1.334 . S
C2805 H2782 0.950 . S
C2805 C2804 1.334 . S
C2805 C2806 1.287 . S
C2806 C2805 1.287 . S
C2806 C2807 1.524 . S
C2806 H2825 0.913 . S
C2807 H2783 0.950 . S
C2807 C2806 1.524 . S
C2807 C2808 1.415 . S
C2808 H2784 0.950 . S
C2808 C2803 1.363 . S
C2808 C2807 1.415 . S
C2809 H2785 0.951 . S
C2809 C2810 1.366 . S
C2809 C2811 1.388 . S
C2810 C2809 1.366 . S
C2810 C2814 1.385 . S
C2811 H2786 0.951 . S
C2811 C2809 1.388 . S
C2811 C2812 1.366 . S
C2812 C2811 1.366 . S
C2812 C2813 1.414 . S
C2812 C2815 1.499 . S
C2813 H2787 0.950 . S
C2813 C2812 1.414 . S
C2813 C2814 1.374 . S
C2814 H2788 0.950 . S
C2814 C2810 1.385 . S
C2814 C2813 1.374 . S
C2815 C2812 1.499 . S
C2815 C2816 1.373 . S
C2815 C2817 1.389 . S
C2816 H2789 0.950 . S
C2816 C2802 1.377 . S
C2816 C2815 1.373 . S
C2817 C2801 1.377 . S
C2817 C2815 1.389 . S
C2817 C2818 1.524 . S
C2818 C2817 1.524 . S
C2818 C2819 1.397 . S
C2818 C2823 1.363 . S
C2819 H2790 0.950 1_545 S
C2819 C2818 1.397 . S
C2819 C2820 1.334 1_545 S
C2820 H2791 0.950 . S
C2820 C2819 1.334 1_565 S
C2820 C2821 1.257 1_565 S
C2821 C2820 1.257 1_545 S
C2821 C2822 1.572 . S
C2821 H2824 0.991 1_545 S
C2822 H2792 0.950 . S
C2822 C2821 1.572 . S
C2822 C2823 1.415 . S
C2823 H2793 0.950 . S
C2823 C2818 1.363 . S
C2823 C2822 1.415 . S
H2824 C2821 0.991 1_565 S
H2825 C2806 0.913 . S
H2826 C2844 0.951 . S
H2827 C2846 0.951 . S
H2828 C2848 0.950 . S
H2829 C2849 0.950 . S
H2830 C2851 0.950 . S
H2831 C2854 0.950 . S
H2832 C2855 0.950 . S
H2833 C2857 0.950 . S
H2834 C2858 0.950 . S
H2835 C2859 0.951 . S
H2836 C2861 0.951 . S
H2837 C2863 0.950 . S
H2838 C2864 0.950 . S
H2839 C2866 0.950 . S
H2840 C2869 0.950 . S
H2841 C2870 0.950 . S
H2842 C2872 0.950 . S
H2843 C2873 0.950 . S
C2844 H2826 0.951 . S
C2844 C2845 1.366 . S
C2844 C2846 1.388 . S
C2845 C2844 1.366 . S
C2845 C2849 1.385 . S
C2846 H2827 0.951 . S
C2846 C2844 1.388 . S
C2846 C2847 1.366 . S
C2847 C2846 1.366 . S
C2847 C2848 1.414 . S
C2847 C2850 1.499 . S
C2848 H2828 0.950 . S
C2848 C2847 1.414 . S
C2848 C2849 1.374 . S
C2849 H2829 0.950 . S
C2849 C2845 1.385 . S
C2849 C2848 1.374 . S
C2850 C2847 1.499 . S
C2850 C2851 1.373 . S
C2850 C2852 1.389 . S
C2851 H2830 0.950 . S
C2851 C2850 1.373 . S
C2851 C2867 1.377 . S
C2852 C2850 1.389 . S
C2852 C2853 1.524 . S
C2852 C2866 1.377 . S
C2853 C2852 1.524 . S
C2853 C2854 1.397 . S
C2853 C2858 1.363 . S
C2854 H2831 0.950 . S
C2854 C2853 1.397 . S
C2854 C2855 1.334 . S
C2855 H2832 0.950 . S
C2855 C2854 1.334 . S
C2855 C2856 1.287 . S
C2856 C2855 1.287 . S
C2856 C2857 1.524 . S
C2856 H2875 0.913 . S
C2857 H2833 0.950 . S
C2857 C2856 1.524 . S
C2857 C2858 1.415 . S
C2858 H2834 0.950 . S
C2858 C2853 1.363 . S
C2858 C2857 1.415 . S
C2859 H2835 0.951 . S
C2859 C2860 1.366 . S
C2859 C2861 1.388 . S
C2860 C2859 1.366 . S
C2860 C2864 1.385 . S
C2861 H2836 0.951 . S
C2861 C2859 1.388 . S
C2861 C2862 1.366 . S
C2862 C2861 1.366 . S
C2862 C2863 1.414 . S
C2862 C2865 1.499 . S
C2863 H2837 0.950 . S
C2863 C2862 1.414 . S
C2863 C2864 1.374 . S
C2864 H2838 0.950 . S
C2864 C2860 1.385 . S
C2864 C2863 1.374 . S
C2865 C2862 1.499 . S
C2865 C2866 1.373 . S
C2865 C2867 1.389 . S
C2866 H2839 0.950 . S
C2866 C2852 1.377 . S
C2866 C2865 1.373 . S
C2867 C2851 1.377 . S
C2867 C2865 1.389 . S
C2867 C2868 1.524 . S
C2868 C2867 1.524 . S
C2868 C2869 1.397 . S
C2868 C2873 1.363 . S
C2869 H2840 0.950 . S
C2869 C2868 1.397 . S
C2869 C2870 1.334 . S
C2870 H2841 0.950 . S
C2870 C2869 1.334 . S
C2870 C2871 1.287 . S
C2871 C2870 1.287 . S
C2871 C2872 1.524 . S
C2871 H2874 0.999 . S
C2872 H2842 0.950 . S
C2872 C2871 1.524 . S
C2872 C2873 1.415 . S
C2873 H2843 0.950 . S
C2873 C2868 1.363 . S
C2873 C2872 1.415 . S
H2874 C2871 0.999 . S
H2875 C2856 0.913 . S
H2876 C2894 0.951 . S
H2877 C2896 0.951 . S
H2878 C2898 0.950 . S
H2879 C2899 0.950 . S
H2880 C2901 0.950 . S
H2881 C2904 0.951 1_545 S
H2882 C2905 0.950 . S
H2883 C2907 0.950 . S
H2884 C2908 0.950 . S
H2885 C2909 0.962 . S
H2886 C2911 0.951 . S
H2887 C2913 0.950 . S
H2888 C2914 0.949 . S
H2889 C2916 0.950 . S
H2890 C2919 0.950 . S
H2891 C2920 0.950 . S
H2892 C2922 0.950 . S
H2893 C2923 0.950 . S
C2894 H2876 0.951 . S
C2894 C2895 1.366 . S
C2894 C2896 1.388 . S
C2895 C2894 1.366 . S
C2895 C2899 1.385 . S
C2896 H2877 0.951 . S
C2896 C2894 1.388 . S
C2896 C2897 1.366 . S
C2897 C2896 1.366 . S
C2897 C2898 1.414 . S
C2897 C2900 1.499 . S
C2898 H2878 0.950 . S
C2898 C2897 1.414 . S
C2898 C2899 1.374 . S
C2899 H2879 0.950 . S
C2899 C2895 1.385 . S
C2899 C2898 1.374 . S
C2900 C2897 1.499 . S
C2900 C2901 1.373 . S
C2900 C2902 1.389 . S
C2901 H2880 0.950 . S
C2901 C2900 1.373 . S
C2901 C2917 1.377 . S
C2902 C2900 1.389 . S
C2902 C2903 1.524 . S
C2902 C2916 1.377 . S
C2903 C2902 1.524 . S
C2903 C2904 1.383 1_545 S
C2903 C2908 1.363 . S
C2904 H2881 0.951 1_565 S
C2904 C2903 1.383 1_565 S
C2904 C2905 1.347 . S
C2905 H2882 0.950 . S
C2905 C2904 1.347 . S
C2905 C2906 1.287 . S
C2906 C2905 1.287 . S
C2906 C2907 1.524 . S
C2906 H2925 0.913 . S
C2907 H2883 0.950 . S
C2907 C2906 1.524 . S
C2907 C2908 1.415 1_565 S
C2908 H2884 0.950 . S
C2908 C2903 1.363 . S
C2908 C2907 1.415 1_545 S
C2909 H2885 0.962 . S
C2909 C2910 1.368 1_545 S
C2909 C2911 1.388 . S
C2910 C2909 1.368 1_565 S
C2910 C2914 1.367 1_565 S
C2911 H2886 0.951 . S
C2911 C2909 1.388 . S
C2911 C2912 1.366 . S
C2912 C2911 1.366 . S
C2912 C2913 1.414 . S
C2912 C2915 1.499 . S
C2913 H2887 0.950 . S
C2913 C2912 1.414 . S
C2913 C2914 1.374 . S
C2914 H2888 0.949 . S
C2914 C2910 1.367 1_545 S
C2914 C2913 1.374 . S
C2915 C2912 1.499 . S
C2915 C2916 1.373 . S
C2915 C2917 1.389 . S
C2916 H2889 0.950 . S
C2916 C2902 1.377 . S
C2916 C2915 1.373 . S
C2917 C2901 1.377 . S
C2917 C2915 1.389 . S
C2917 C2918 1.524 . S
C2918 C2917 1.524 . S
C2918 C2919 1.397 . S
C2918 C2923 1.363 . S
C2919 H2890 0.950 . S
C2919 C2918 1.397 . S
C2919 C2920 1.334 . S
C2920 H2891 0.950 . S
C2920 C2919 1.334 . S
C2920 C2921 1.287 . S
C2921 C2920 1.287 . S
C2921 C2922 1.524 . S
C2921 H2924 0.999 . S
C2922 H2892 0.950 . S
C2922 C2921 1.524 . S
C2922 C2923 1.415 . S
C2923 H2893 0.950 . S
C2923 C2918 1.363 . S
C2923 C2922 1.415 . S
H2924 C2921 0.999 . S
H2925 C2906 0.913 . S
H2926 C2944 0.951 . S
H2927 C2946 0.951 . S
H2928 C2948 0.950 . S
H2929 C2949 0.950 . S
H2930 C2951 0.950 . S
H2931 C2954 0.950 . S
H2932 C2955 0.950 . S
H2933 C2957 0.950 . S
H2934 C2958 0.950 . S
H2935 C2959 0.951 . S
H2936 C2961 0.951 . S
H2937 C2963 0.950 . S
H2938 C2964 0.950 . S
H2939 C2966 0.950 . S
H2940 C2969 0.950 . S
H2941 C2970 0.950 . S
H2942 C2972 0.950 . S
H2943 C2973 0.950 . S
C2944 H2926 0.951 . S
C2944 C2945 1.366 . S
C2944 C2946 1.388 . S
C2945 C2944 1.366 . S
C2945 C2949 1.385 . S
C2946 H2927 0.951 . S
C2946 C2944 1.388 . S
C2946 C2947 1.366 . S
C2947 C2946 1.366 . S
C2947 C2948 1.414 . S
C2947 C2950 1.499 . S
C2948 H2928 0.950 . S
C2948 C2947 1.414 . S
C2948 C2949 1.374 . S
C2949 H2929 0.950 . S
C2949 C2945 1.385 . S
C2949 C2948 1.374 . S
C2950 C2947 1.499 . S
C2950 C2951 1.373 . S
C2950 C2952 1.389 . S
C2951 H2930 0.950 . S
C2951 C2950 1.373 . S
C2951 C2967 1.377 . S
C2952 C2950 1.389 . S
C2952 C2953 1.524 . S
C2952 C2966 1.377 . S
C2953 C2952 1.524 . S
C2953 C2954 1.397 . S
C2953 C2958 1.363 . S
C2954 H2931 0.950 . S
C2954 C2953 1.397 . S
C2954 C2955 1.334 . S
C2955 H2932 0.950 . S
C2955 C2954 1.334 . S
C2955 C2956 1.287 . S
C2956 C2955 1.287 . S
C2956 C2957 1.524 . S
C2956 H2975 0.913 . S
C2957 H2933 0.950 . S
C2957 C2956 1.524 . S
C2957 C2958 1.415 . S
C2958 H2934 0.950 . S
C2958 C2953 1.363 . S
C2958 C2957 1.415 . S
C2959 H2935 0.951 . S
C2959 C2960 1.366 . S
C2959 C2961 1.388 . S
C2960 C2959 1.366 . S
C2960 C2964 1.385 . S
C2961 H2936 0.951 . S
C2961 C2959 1.388 . S
C2961 C2962 1.366 . S
C2962 C2961 1.366 . S
C2962 C2963 1.414 . S
C2962 C2965 1.499 . S
C2963 H2937 0.950 . S
C2963 C2962 1.414 . S
C2963 C2964 1.374 . S
C2964 H2938 0.950 . S
C2964 C2960 1.385 . S
C2964 C2963 1.374 . S
C2965 C2962 1.499 . S
C2965 C2966 1.373 . S
C2965 C2967 1.389 . S
C2966 H2939 0.950 . S
C2966 C2952 1.377 . S
C2966 C2965 1.373 . S
C2967 C2951 1.377 . S
C2967 C2965 1.389 . S
C2967 C2968 1.524 . S
C2968 C2967 1.524 . S
C2968 C2969 1.397 . S
C2968 C2973 1.363 . S
C2969 H2940 0.950 . S
C2969 C2968 1.397 . S
C2969 C2970 1.334 . S
C2970 H2941 0.950 . S
C2970 C2969 1.334 . S
C2970 C2971 1.287 . S
C2971 C2970 1.287 . S
C2971 C2972 1.524 . S
C2971 H2974 0.999 . S
C2972 H2942 0.950 . S
C2972 C2971 1.524 . S
C2972 C2973 1.415 . S
C2973 H2943 0.950 . S
C2973 C2968 1.363 . S
C2973 C2972 1.415 . S
H2974 C2971 0.999 . S
H2975 C2956 0.913 . S
H2976 C2994 0.951 . S
H2977 C2996 0.951 . S
H2978 C2998 0.950 . S
H2979 C2999 0.946 1_556 S
H2980 C3001 0.950 . S
H2981 C3004 0.950 . S
H2982 C3005 0.950 . S
H2983 C3007 0.950 . S
H2984 C3008 0.950 1_554 S
H2985 C3009 0.951 . S
H2986 C3011 0.951 . S
H2987 C3013 0.950 . S
H2988 C3014 0.950 . S
H2989 C3016 0.950 . S
H2990 C3019 0.950 . S
H2991 C3020 0.950 . S
H2992 C3022 0.950 . S
H2993 C3023 0.950 . S
C2994 H2976 0.951 . S
C2994 C2995 1.366 . S
C2994 C2996 1.388 . S
C2995 C2994 1.366 . S
C2995 C2999 1.393 . S
C2996 H2977 0.951 . S
C2996 C2994 1.388 . S
C2996 C2997 1.366 . S
C2997 C2996 1.366 . S
C2997 C2998 1.414 1_554 S
C2997 C3000 1.499 . S
C2998 H2978 0.950 . S
C2998 C2997 1.414 1_556 S
C2998 C2999 1.370 1_556 S
C2999 H2979 0.946 1_554 S
C2999 C2995 1.393 . S
C2999 C2998 1.370 1_554 S
C3000 C2997 1.499 . S
C3000 C3001 1.373 . S
C3000 C3002 1.389 1_554 S
C3001 H2980 0.950 . S
C3001 C3000 1.373 . S
C3001 C3017 1.377 . S
C3002 C3000 1.389 1_556 S
C3002 C3003 1.524 . S
C3002 C3016 1.377 . S
C3003 C3002 1.524 . S
C3003 C3004 1.397 . S
C3003 C3008 1.363 . S
C3004 H2981 0.950 . S
C3004 C3003 1.397 . S
C3004 C3005 1.334 . S
C3005 H2982 0.950 . S
C3005 C3004 1.334 . S
C3005 C3006 1.287 . S
C3006 C3005 1.287 . S
C3006 C3007 1.524 . S
C3006 H3025 0.913 . S
C3007 H2983 0.950 . S
C3007 C3006 1.524 . S
C3007 C3008 1.415 . S
C3008 H2984 0.950 1_556 S
C3008 C3003 1.363 . S
C3008 C3007 1.415 . S
C3009 H2985 0.951 . S
C3009 C3010 1.366 . S
C3009 C3011 1.388 . S
C3010 C3009 1.366 . S
C3010 C3014 1.385 1_556 S
C3011 H2986 0.951 . S
C3011 C3009 1.388 . S
C3011 C3012 1.365 . S
C3012 C3011 1.365 . S
C3012 C3013 1.414 1_556 S
C3012 C3015 1.499 1_556 S
C3013 H2987 0.950 . S
C3013 C3012 1.414 1_554 S
C3013 C3014 1.374 . S
C3014 H2988 0.950 . S
C3014 C3010 1.385 1_554 S
C3014 C3013 1.374 . S
C3015 C3012 1.499 1_554 S
C3015 C3016 1.373 1_554 S
C3015 C3017 1.389 . S
C3016 H2989 0.950 . S
C3016 C3002 1.377 . S
C3016 C3015 1.373 1_556 S
C3017 C3001 1.377 . S
C3017 C3015 1.389 . S
C3017 C3018 1.524 . S
C3018 C3017 1.524 . S
C3018 C3019 1.397 . S
C3018 C3023 1.363 . S
C3019 H2990 0.950 . S
C3019 C3018 1.397 . S
C3019 C3020 1.334 . S
C3020 H2991 0.950 . S
C3020 C3019 1.334 . S
C3020 C3021 1.287 . S
C3021 C3020 1.287 . S
C3021 C3022 1.524 . S
C3021 H3024 0.999 . S
C3022 H2992 0.950 . S
C3022 C3021 1.524 . S
C3022 C3023 1.415 . S
C3023 H2993 0.950 . S
C3023 C3018 1.363 . S
C3023 C3022 1.415 . S
H3024 C3021 0.999 . S
H3025 C3006 0.913 . S
H3026 C3044 0.951 . S
H3027 C3046 0.951 . S
H3028 C3048 0.950 . S
H3029 C3049 0.950 . S
H3030 C3051 0.950 . S
H3031 C3054 0.950 . S
H3032 C3055 0.950 . S
H3033 C3057 0.950 . S
H3034 C3058 0.950 . S
H3035 C3059 0.951 . S
H3036 C3061 0.951 . S
H3037 C3063 0.950 . S
H3038 C3064 0.950 . S
H3039 C3066 0.950 . S
H3040 C3069 0.950 . S
H3041 C3070 0.950 . S
H3042 C3072 0.950 . S
H3043 C3073 0.950 . S
C3044 H3026 0.951 . S
C3044 C3045 1.366 . S
C3044 C3046 1.388 . S
C3045 C3044 1.366 . S
C3045 C3049 1.385 . S
C3046 H3027 0.951 . S
C3046 C3044 1.388 . S
C3046 C3047 1.366 . S
C3047 C3046 1.366 . S
C3047 C3048 1.414 . S
C3047 C3050 1.499 . S
C3048 H3028 0.950 . S
C3048 C3047 1.414 . S
C3048 C3049 1.374 . S
C3049 H3029 0.950 . S
C3049 C3045 1.385 . S
C3049 C3048 1.374 . S
C3050 C3047 1.499 . S
C3050 C3051 1.373 . S
C3050 C3052 1.389 . S
C3051 H3030 0.950 . S
C3051 C3050 1.373 . S
C3051 C3067 1.377 . S
C3052 C3050 1.389 . S
C3052 C3053 1.524 . S
C3052 C3066 1.377 . S
C3053 C3052 1.524 . S
C3053 C3054 1.397 . S
C3053 C3058 1.363 1_554 S
C3054 H3031 0.950 . S
C3054 C3053 1.397 . S
C3054 C3055 1.334 . S
C3055 H3032 0.950 . S
C3055 C3054 1.334 . S
C3055 C3056 1.287 1_554 S
C3056 C3055 1.287 1_556 S
C3056 C3057 1.524 . S
C3056 H3075 0.913 . S
C3057 H3033 0.950 . S
C3057 C3056 1.524 . S
C3057 C3058 1.415 . S
C3058 H3034 0.950 . S
C3058 C3053 1.363 1_556 S
C3058 C3057 1.415 . S
C3059 H3035 0.951 . S
C3059 C3060 1.366 . S
C3059 C3061 1.388 . S
C3060 C3059 1.366 . S
C3060 C3064 1.385 . S
C3061 H3036 0.951 . S
C3061 C3059 1.388 . S
C3061 C3062 1.366 . S
C3062 C3061 1.366 . S
C3062 C3063 1.414 . S
C3062 C3065 1.499 . S
C3063 H3037 0.950 . S
C3063 C3062 1.414 . S
C3063 C3064 1.374 . S
C3064 H3038 0.950 . S
C3064 C3060 1.385 . S
C3064 C3063 1.374 . S
C3065 C3062 1.499 . S
C3065 C3066 1.373 . S
C3065 C3067 1.389 . S
C3066 H3039 0.950 . S
C3066 C3052 1.377 . S
C3066 C3065 1.373 . S
C3067 C3051 1.377 . S
C3067 C3065 1.389 . S
C3067 C3068 1.524 . S
C3068 C3067 1.524 . S
C3068 C3069 1.397 . S
C3068 C3073 1.363 . S
C3069 H3040 0.950 . S
C3069 C3068 1.397 . S
C3069 C3070 1.334 . S
C3070 H3041 0.950 . S
C3070 C3069 1.334 . S
C3070 C3071 1.287 . S
C3071 C3070 1.287 . S
C3071 C3072 1.524 . S
C3071 H3074 0.999 . S
C3072 H3042 0.950 . S
C3072 C3071 1.524 . S
C3072 C3073 1.415 . S
C3073 H3043 0.950 . S
C3073 C3068 1.363 . S
C3073 C3072 1.415 . S
H3074 C3071 0.999 . S
H3075 C3056 0.913 . S
H3076 C3094 0.951 . S
H3077 C3096 0.951 . S
H3078 C3098 0.950 . S
H3079 C3099 0.950 . S
H3080 C3101 0.950 . S
H3081 C3104 0.950 . S
H3082 C3105 0.950 . S
H3083 C3107 0.950 . S
H3084 C3108 0.950 . S
H3085 C3109 0.951 . S
H3086 C3111 0.951 . S
H3087 C3113 0.950 . S
H3088 C3114 0.950 . S
H3089 C3116 0.950 . S
H3090 C3119 0.950 . S
H3091 C3120 0.950 . S
H3092 C3122 0.950 . S
H3093 C3123 0.950 . S
C3094 H3076 0.951 . S
C3094 C3095 1.366 . S
C3094 C3096 1.388 . S
C3095 C3094 1.366 . S
C3095 C3099 1.385 . S
C3096 H3077 0.951 . S
C3096 C3094 1.388 . S
C3096 C3097 1.366 . S
C3097 C3096 1.366 . S
C3097 C3098 1.414 . S
C3097 C3100 1.499 . S
C3098 H3078 0.950 . S
C3098 C3097 1.414 . S
C3098 C3099 1.374 . S
C3099 H3079 0.950 . S
C3099 C3095 1.385 . S
C3099 C3098 1.374 . S
C3100 C3097 1.499 . S
C3100 C3101 1.373 . S
C3100 C3102 1.389 . S
C3101 H3080 0.950 . S
C3101 C3100 1.373 . S
C3101 C3117 1.377 . S
C3102 C3100 1.389 . S
C3102 C3103 1.524 . S
C3102 C3116 1.377 . S
C3103 C3102 1.524 . S
C3103 C3104 1.397 . S
C3103 C3108 1.363 . S
C3104 H3081 0.950 . S
C3104 C3103 1.397 . S
C3104 C3105 1.334 . S
C3105 H3082 0.950 . S
C3105 C3104 1.334 . S
C3105 C3106 1.287 . S
C3106 C3105 1.287 . S
C3106 C3107 1.524 . S
C3106 H3125 0.913 . S
C3107 H3083 0.950 . S
C3107 C3106 1.524 . S
C3107 C3108 1.415 . S
C3108 H3084 0.950 . S
C3108 C3103 1.363 . S
C3108 C3107 1.415 . S
C3109 H3085 0.951 . S
C3109 C3110 1.366 . S
C3109 C3111 1.388 . S
C3110 C3109 1.366 . S
C3110 C3114 1.385 . S
C3111 H3086 0.951 . S
C3111 C3109 1.388 . S
C3111 C3112 1.366 . S
C3112 C3111 1.366 . S
C3112 C3113 1.414 . S
C3112 C3115 1.499 . S
C3113 H3087 0.950 . S
C3113 C3112 1.414 . S
C3113 C3114 1.374 . S
C3114 H3088 0.950 . S
C3114 C3110 1.385 . S
C3114 C3113 1.374 . S
C3115 C3112 1.499 . S
C3115 C3116 1.373 . S
C3115 C3117 1.389 . S
C3116 H3089 0.950 . S
C3116 C3102 1.377 . S
C3116 C3115 1.373 . S
C3117 C3101 1.377 . S
C3117 C3115 1.389 . S
C3117 C3118 1.524 . S
C3118 C3117 1.524 . S
C3118 C3119 1.397 . S
C3118 C3123 1.363 . S
C3119 H3090 0.950 . S
C3119 C3118 1.397 . S
C3119 C3120 1.334 . S
C3120 H3091 0.950 . S
C3120 C3119 1.334 . S
C3120 C3121 1.287 . S
C3121 C3120 1.287 . S
C3121 C3122 1.524 . S
C3121 H3124 0.999 . S
C3122 H3092 0.950 . S
C3122 C3121 1.524 . S
C3122 C3123 1.415 . S
C3123 H3093 0.950 . S
C3123 C3118 1.363 . S
C3123 C3122 1.415 . S
H3124 C3121 0.999 . S
H3125 C3106 0.913 . S
H3126 C3144 0.951 . S
H3127 C3146 0.951 . S
H3128 C3148 0.950 . S
H3129 C3149 0.950 . S
H3130 C3151 0.950 . S
H3131 C3154 0.950 . S
H3132 C3155 0.950 . S
H3133 C3157 0.950 . S
H3134 C3158 0.950 . S
H3135 C3159 0.951 . S
H3136 C3161 0.951 . S
H3137 C3163 0.950 . S
H3138 C3164 0.950 . S
H3139 C3166 0.950 . S
H3140 C3169 0.950 . S
H3141 C3170 0.950 . S
H3142 C3172 0.950 . S
H3143 C3173 0.950 . S
C3144 H3126 0.951 . S
C3144 C3145 1.366 . S
C3144 C3146 1.388 . S
C3145 C3144 1.366 . S
C3145 C3149 1.385 . S
C3146 H3127 0.951 . S
C3146 C3144 1.388 . S
C3146 C3147 1.366 . S
C3147 C3146 1.366 . S
C3147 C3148 1.414 . S
C3147 C3150 1.499 . S
C3148 H3128 0.950 . S
C3148 C3147 1.414 . S
C3148 C3149 1.374 . S
C3149 H3129 0.950 . S
C3149 C3145 1.385 . S
C3149 C3148 1.374 . S
C3150 C3147 1.499 . S
C3150 C3151 1.373 . S
C3150 C3152 1.389 . S
C3151 H3130 0.950 . S
C3151 C3150 1.373 . S
C3151 C3167 1.377 . S
C3152 C3150 1.389 . S
C3152 C3153 1.524 . S
C3152 C3166 1.377 . S
C3153 C3152 1.524 . S
C3153 C3154 1.397 . S
C3153 C3158 1.363 . S
C3154 H3131 0.950 . S
C3154 C3153 1.397 . S
C3154 C3155 1.334 . S
C3155 H3132 0.950 . S
C3155 C3154 1.334 . S
C3155 C3156 1.287 . S
C3156 C3155 1.287 . S
C3156 C3157 1.524 . S
C3156 H3175 0.913 . S
C3157 H3133 0.950 . S
C3157 C3156 1.524 . S
C3157 C3158 1.415 . S
C3158 H3134 0.950 . S
C3158 C3153 1.363 . S
C3158 C3157 1.415 . S
C3159 H3135 0.951 . S
C3159 C3160 1.366 . S
C3159 C3161 1.388 . S
C3160 C3159 1.366 . S
C3160 C3164 1.385 . S
C3161 H3136 0.951 . S
C3161 C3159 1.388 . S
C3161 C3162 1.366 . S
C3162 C3161 1.366 . S
C3162 C3163 1.414 . S
C3162 C3165 1.499 . S
C3163 H3137 0.950 . S
C3163 C3162 1.414 . S
C3163 C3164 1.374 . S
C3164 H3138 0.950 . S
C3164 C3160 1.385 . S
C3164 C3163 1.374 . S
C3165 C3162 1.499 . S
C3165 C3166 1.373 . S
C3165 C3167 1.389 . S
C3166 H3139 0.950 . S
C3166 C3152 1.377 . S
C3166 C3165 1.373 . S
C3167 C3151 1.377 . S
C3167 C3165 1.389 . S
C3167 C3168 1.524 . S
C3168 C3167 1.524 . S
C3168 C3169 1.397 . S
C3168 C3173 1.363 . S
C3169 H3140 0.950 . S
C3169 C3168 1.397 . S
C3169 C3170 1.334 . S
C3170 H3141 0.950 . S
C3170 C3169 1.334 . S
C3170 C3171 1.287 . S
C3171 C3170 1.287 . S
C3171 C3172 1.524 . S
C3171 H3174 0.999 . S
C3172 H3142 0.950 . S
C3172 C3171 1.524 . S
C3172 C3173 1.415 . S
C3173 H3143 0.950 . S
C3173 C3168 1.363 . S
C3173 C3172 1.415 . S
H3174 C3171 0.999 . S
H3175 C3156 0.913 . S
H3176 C3194 0.951 . S
H3177 C3196 0.951 . S
H3178 C3198 0.950 . S
H3179 C3199 0.950 . S
H3180 C3201 0.950 . S
H3181 C3204 0.950 . S
H3182 C3205 0.950 . S
H3183 C3207 0.950 . S
H3184 C3208 0.950 . S
H3185 C3209 0.951 . S
H3186 C3211 0.951 . S
H3187 C3213 0.950 . S
H3188 C3214 0.950 . S
H3189 C3216 0.950 . S
H3190 C3219 0.950 . S
H3191 C3220 0.950 . S
H3192 C3222 0.950 . S
H3193 C3223 0.950 . S
C3194 H3176 0.951 . S
C3194 C3195 1.366 . S
C3194 C3196 1.388 . S
C3195 C3194 1.366 . S
C3195 C3199 1.385 . S
C3196 H3177 0.951 . S
C3196 C3194 1.388 . S
C3196 C3197 1.366 . S
C3197 C3196 1.366 . S
C3197 C3198 1.414 . S
C3197 C3200 1.499 . S
C3198 H3178 0.950 . S
C3198 C3197 1.414 . S
C3198 C3199 1.374 . S
C3199 H3179 0.950 . S
C3199 C3195 1.385 . S
C3199 C3198 1.374 . S
C3200 C3197 1.499 . S
C3200 C3201 1.373 . S
C3200 C3202 1.389 . S
C3201 H3180 0.950 . S
C3201 C3200 1.373 . S
C3201 C3217 1.377 . S
C3202 C3200 1.389 . S
C3202 C3203 1.524 . S
C3202 C3216 1.377 . S
C3203 C3202 1.524 . S
C3203 C3204 1.397 . S
C3203 C3208 1.363 . S
C3204 H3181 0.950 . S
C3204 C3203 1.397 . S
C3204 C3205 1.334 . S
C3205 H3182 0.950 . S
C3205 C3204 1.334 . S
C3205 C3206 1.287 . S
C3206 C3205 1.287 . S
C3206 C3207 1.524 . S
C3206 H3225 0.913 . S
C3207 H3183 0.950 . S
C3207 C3206 1.524 . S
C3207 C3208 1.415 . S
C3208 H3184 0.950 . S
C3208 C3203 1.363 . S
C3208 C3207 1.415 . S
C3209 H3185 0.951 . S
C3209 C3210 1.366 . S
C3209 C3211 1.388 . S
C3210 C3209 1.366 . S
C3210 C3214 1.385 . S
C3211 H3186 0.951 . S
C3211 C3209 1.388 . S
C3211 C3212 1.366 . S
C3212 C3211 1.366 . S
C3212 C3213 1.414 . S
C3212 C3215 1.499 . S
C3213 H3187 0.950 . S
C3213 C3212 1.414 . S
C3213 C3214 1.374 . S
C3214 H3188 0.950 . S
C3214 C3210 1.385 . S
C3214 C3213 1.374 . S
C3215 C3212 1.499 . S
C3215 C3216 1.373 . S
C3215 C3217 1.389 . S
C3216 H3189 0.950 . S
C3216 C3202 1.377 . S
C3216 C3215 1.373 . S
C3217 C3201 1.377 . S
C3217 C3215 1.389 . S
C3217 C3218 1.524 . S
C3218 C3217 1.524 . S
C3218 C3219 1.397 . S
C3218 C3223 1.363 . S
C3219 H3190 0.950 . S
C3219 C3218 1.397 . S
C3219 C3220 1.334 . S
C3220 H3191 0.950 . S
C3220 C3219 1.334 . S
C3220 C3221 1.287 . S
C3221 C3220 1.287 . S
C3221 C3222 1.524 . S
C3221 H3224 0.999 . S
C3222 H3192 0.950 . S
C3222 C3221 1.524 . S
C3222 C3223 1.415 . S
C3223 H3193 0.950 . S
C3223 C3218 1.363 . S
C3223 C3222 1.415 . S
H3224 C3221 0.999 . S
H3225 C3206 0.913 . S
H3226 C3244 0.951 . S
H3227 C3246 0.951 . S
H3228 C3248 0.950 . S
H3229 C3249 0.950 . S
H3230 C3251 0.950 . S
H3231 C3254 0.950 . S
H3232 C3255 0.950 . S
H3233 C3257 0.950 . S
H3234 C3258 0.950 . S
H3235 C3259 0.951 . S
H3236 C3261 0.945 1_545 S
H3237 C3263 0.950 . S
H3238 C3264 0.950 . S
H3239 C3266 0.950 . S
H3240 C3269 0.950 . S
H3241 C3270 0.950 . S
H3242 C3272 0.950 . S
H3243 C3273 0.950 . S
C3244 H3226 0.951 . S
C3244 C3245 1.366 . S
C3244 C3246 1.388 . S
C3245 C3244 1.366 . S
C3245 C3249 1.385 . S
C3246 H3227 0.951 . S
C3246 C3244 1.388 . S
C3246 C3247 1.366 . S
C3247 C3246 1.366 . S
C3247 C3248 1.414 . S
C3247 C3250 1.499 . S
C3248 H3228 0.950 . S
C3248 C3247 1.414 . S
C3248 C3249 1.374 . S
C3249 H3229 0.950 . S
C3249 C3245 1.385 . S
C3249 C3248 1.374 . S
C3250 C3247 1.499 . S
C3250 C3251 1.373 . S
C3250 C3252 1.389 . S
C3251 H3230 0.950 . S
C3251 C3250 1.373 . S
C3251 C3267 1.377 . S
C3252 C3250 1.389 . S
C3252 C3253 1.524 . S
C3252 C3266 1.377 . S
C3253 C3252 1.524 . S
C3253 C3254 1.397 . S
C3253 C3258 1.363 . S
C3254 H3231 0.950 . S
C3254 C3253 1.397 . S
C3254 C3255 1.334 . S
C3255 H3232 0.950 . S
C3255 C3254 1.334 . S
C3255 C3256 1.287 . S
C3256 C3255 1.287 . S
C3256 C3257 1.524 . S
C3256 H3275 0.913 . S
C3257 H3233 0.950 . S
C3257 C3256 1.524 . S
C3257 C3258 1.415 . S
C3258 H3234 0.950 . S
C3258 C3253 1.363 . S
C3258 C3257 1.415 . S
C3259 H3235 0.951 . S
C3259 C3260 1.366 1_545 S
C3259 C3261 1.388 1_545 S
C3260 C3259 1.366 1_565 S
C3260 C3264 1.385 . S
C3261 H3236 0.945 1_565 S
C3261 C3259 1.388 1_565 S
C3261 C3262 1.366 . S
C3262 C3261 1.366 . S
C3262 C3263 1.414 . S
C3262 C3265 1.499 . S
C3263 H3237 0.950 . S
C3263 C3262 1.414 . S
C3263 C3264 1.374 . S
C3264 H3238 0.950 . S
C3264 C3260 1.385 . S
C3264 C3263 1.374 . S
C3265 C3262 1.499 . S
C3265 C3266 1.373 . S
C3265 C3267 1.389 . S
C3266 H3239 0.950 . S
C3266 C3252 1.377 . S
C3266 C3265 1.373 . S
C3267 C3251 1.377 . S
C3267 C3265 1.389 . S
C3267 C3268 1.524 . S
C3268 C3267 1.524 . S
C3268 C3269 1.397 . S
C3268 C3273 1.363 1_565 S
C3269 H3240 0.950 . S
C3269 C3268 1.397 . S
C3269 C3270 1.334 1_565 S
C3270 H3241 0.950 . S
C3270 C3269 1.334 1_545 S
C3270 C3271 1.287 . S
C3271 C3270 1.287 . S
C3271 C3272 1.524 . S
C3271 H3274 0.999 . S
C3272 H3242 0.950 . S
C3272 C3271 1.524 . S
C3272 C3273 1.415 . S
C3273 H3243 0.950 . S
C3273 C3268 1.363 1_545 S
C3273 C3272 1.415 . S
H3274 C3271 0.999 . S
H3275 C3256 0.913 . S
H3276 C3294 0.951 . S
H3277 C3296 0.951 . S
H3278 C3298 0.950 . S
H3279 C3299 0.950 . S
H3280 C3301 0.950 . S
H3281 C3304 0.950 . S
H3282 C3305 0.950 . S
H3283 C3307 0.950 . S
H3284 C3308 0.950 . S
H3285 C3309 0.951 . S
H3286 C3311 0.951 . S
H3287 C3313 0.950 . S
H3288 C3314 0.950 . S
H3289 C3316 0.950 . S
H3290 C3319 0.950 . S
H3291 C3320 0.950 . S
H3292 C3322 0.950 . S
H3293 C3323 0.950 . S
C3294 H3276 0.951 . S
C3294 C3295 1.366 . S
C3294 C3296 1.388 . S
C3295 C3294 1.366 . S
C3295 C3299 1.385 . S
C3296 H3277 0.951 . S
C3296 C3294 1.388 . S
C3296 C3297 1.366 . S
C3297 C3296 1.366 . S
C3297 C3298 1.414 . S
C3297 C3300 1.499 . S
C3298 H3278 0.950 . S
C3298 C3297 1.414 . S
C3298 C3299 1.374 . S
C3299 H3279 0.950 . S
C3299 C3295 1.385 . S
C3299 C3298 1.374 . S
C3300 C3297 1.499 . S
C3300 C3301 1.373 . S
C3300 C3302 1.389 . S
C3301 H3280 0.950 . S
C3301 C3300 1.373 . S
C3301 C3317 1.377 . S
C3302 C3300 1.389 . S
C3302 C3303 1.524 . S
C3302 C3316 1.377 . S
C3303 C3302 1.524 . S
C3303 C3304 1.397 . S
C3303 C3308 1.363 . S
C3304 H3281 0.950 . S
C3304 C3303 1.397 . S
C3304 C3305 1.334 . S
C3305 H3282 0.950 . S
C3305 C3304 1.334 . S
C3305 C3306 1.287 . S
C3306 C3305 1.287 . S
C3306 C3307 1.524 . S
C3306 H3325 0.913 . S
C3307 H3283 0.950 . S
C3307 C3306 1.524 . S
C3307 C3308 1.415 . S
C3308 H3284 0.950 . S
C3308 C3303 1.363 . S
C3308 C3307 1.415 . S
C3309 H3285 0.951 . S
C3309 C3310 1.366 . S
C3309 C3311 1.388 . S
C3310 C3309 1.366 . S
C3310 C3314 1.385 . S
C3311 H3286 0.951 . S
C3311 C3309 1.388 . S
C3311 C3312 1.366 . S
C3312 C3311 1.366 . S
C3312 C3313 1.414 . S
C3312 C3315 1.499 . S
C3313 H3287 0.950 . S
C3313 C3312 1.414 . S
C3313 C3314 1.374 . S
C3314 H3288 0.950 . S
C3314 C3310 1.385 . S
C3314 C3313 1.374 . S
C3315 C3312 1.499 . S
C3315 C3316 1.373 . S
C3315 C3317 1.389 . S
C3316 H3289 0.950 . S
C3316 C3302 1.377 . S
C3316 C3315 1.373 . S
C3317 C3301 1.377 . S
C3317 C3315 1.389 . S
C3317 C3318 1.524 . S
C3318 C3317 1.524 . S
C3318 C3319 1.397 . S
C3318 C3323 1.363 . S
C3319 H3290 0.950 . S
C3319 C3318 1.397 . S
C3319 C3320 1.334 . S
C3320 H3291 0.950 . S
C3320 C3319 1.334 . S
C3320 C3321 1.287 . S
C3321 C3320 1.287 . S
C3321 C3322 1.524 . S
C3321 H3324 0.999 . S
C3322 H3292 0.950 . S
C3322 C3321 1.524 . S
C3322 C3323 1.415 . S
C3323 H3293 0.950 . S
C3323 C3318 1.363 . S
C3323 C3322 1.415 . S
H3324 C3321 0.999 . S
H3325 C3306 0.913 . S
H3326 C3344 0.951 . S
H3327 C3346 0.951 . S
H3328 C3348 0.950 . S
H3329 C3349 0.950 . S
H3330 C3351 0.950 . S
H3331 C3354 0.950 . S
H3332 C3355 0.950 . S
H3333 C3357 0.950 . S
H3334 C3358 0.950 . S
H3335 C3359 0.951 . S
H3336 C3361 0.951 . S
H3337 C3363 0.950 . S
H3338 C3364 0.950 . S
H3339 C3366 0.950 . S
H3340 C3369 0.950 . S
H3341 C3370 0.950 . S
H3342 C3372 0.950 . S
H3343 C3373 0.950 . S
C3344 H3326 0.951 . S
C3344 C3345 1.366 . S
C3344 C3346 1.388 . S
C3345 C3344 1.366 . S
C3345 C3349 1.385 . S
C3346 H3327 0.951 . S
C3346 C3344 1.388 . S
C3346 C3347 1.366 . S
C3347 C3346 1.366 . S
C3347 C3348 1.414 . S
C3347 C3350 1.499 . S
C3348 H3328 0.950 . S
C3348 C3347 1.414 . S
C3348 C3349 1.374 . S
C3349 H3329 0.950 . S
C3349 C3345 1.385 . S
C3349 C3348 1.374 . S
C3350 C3347 1.499 . S
C3350 C3351 1.373 . S
C3350 C3352 1.389 . S
C3351 H3330 0.950 . S
C3351 C3350 1.373 . S
C3351 C3367 1.377 . S
C3352 C3350 1.389 . S
C3352 C3353 1.524 . S
C3352 C3366 1.377 . S
C3353 C3352 1.524 . S
C3353 C3354 1.397 . S
C3353 C3358 1.363 . S
C3354 H3331 0.950 . S
C3354 C3353 1.397 . S
C3354 C3355 1.334 . S
C3355 H3332 0.950 . S
C3355 C3354 1.334 . S
C3355 C3356 1.287 . S
C3356 C3355 1.287 . S
C3356 C3357 1.524 . S
C3356 H3375 0.913 . S
C3357 H3333 0.950 . S
C3357 C3356 1.524 . S
C3357 C3358 1.415 . S
C3358 H3334 0.950 . S
C3358 C3353 1.363 . S
C3358 C3357 1.415 . S
C3359 H3335 0.951 . S
C3359 C3360 1.366 . S
C3359 C3361 1.388 . S
C3360 C3359 1.366 . S
C3360 C3364 1.385 . S
C3361 H3336 0.951 . S
C3361 C3359 1.388 . S
C3361 C3362 1.366 . S
C3362 C3361 1.366 . S
C3362 C3363 1.414 . S
C3362 C3365 1.499 . S
C3363 H3337 0.950 . S
C3363 C3362 1.414 . S
C3363 C3364 1.374 . S
C3364 H3338 0.950 . S
C3364 C3360 1.385 . S
C3364 C3363 1.374 . S
C3365 C3362 1.499 . S
C3365 C3366 1.373 . S
C3365 C3367 1.389 . S
C3366 H3339 0.950 . S
C3366 C3352 1.377 . S
C3366 C3365 1.373 . S
C3367 C3351 1.377 . S
C3367 C3365 1.389 . S
C3367 C3368 1.524 . S
C3368 C3367 1.524 . S
C3368 C3369 1.397 . S
C3368 C3373 1.363 . S
C3369 H3340 0.950 . S
C3369 C3368 1.397 . S
C3369 C3370 1.334 . S
C3370 H3341 0.950 . S
C3370 C3369 1.334 . S
C3370 C3371 1.287 . S
C3371 C3370 1.287 . S
C3371 C3372 1.524 . S
C3371 H3374 0.999 . S
C3372 H3342 0.950 . S
C3372 C3371 1.524 . S
C3372 C3373 1.415 . S
C3373 H3343 0.950 . S
C3373 C3368 1.363 . S
C3373 C3372 1.415 . S
H3374 C3371 0.999 . S
H3375 C3356 0.913 . S
H3376 C3394 0.951 . S
H3377 C3396 0.951 . S
H3378 C3398 0.950 . S
H3379 C3399 0.950 . S
H3380 C3401 0.950 . S
H3381 C3404 0.950 . S
H3382 C3405 0.950 . S
H3383 C3407 0.950 . S
H3384 C3408 0.950 . S
H3385 C3409 0.951 . S
H3386 C3411 0.951 . S
H3387 C3413 0.950 . S
H3388 C3414 0.950 . S
H3389 C3416 0.950 . S
H3390 C3419 0.950 . S
H3391 C3420 0.950 . S
H3392 C3422 0.950 . S
H3393 C3423 0.950 . S
C3394 H3376 0.951 . S
C3394 C3395 1.366 . S
C3394 C3396 1.388 . S
C3395 C3394 1.366 . S
C3395 C3399 1.385 . S
C3396 H3377 0.951 . S
C3396 C3394 1.388 . S
C3396 C3397 1.366 . S
C3397 C3396 1.366 . S
C3397 C3398 1.414 . S
C3397 C3400 1.499 . S
C3398 H3378 0.950 . S
C3398 C3397 1.414 . S
C3398 C3399 1.374 . S
C3399 H3379 0.950 . S
C3399 C3395 1.385 . S
C3399 C3398 1.374 . S
C3400 C3397 1.499 . S
C3400 C3401 1.373 . S
C3400 C3402 1.389 . S
C3401 H3380 0.950 . S
C3401 C3400 1.373 . S
C3401 C3417 1.377 . S
C3402 C3400 1.389 . S
C3402 C3403 1.524 . S
C3402 C3416 1.377 . S
C3403 C3402 1.524 . S
C3403 C3404 1.397 . S
C3403 C3408 1.363 . S
C3404 H3381 0.950 . S
C3404 C3403 1.397 . S
C3404 C3405 1.334 . S
C3405 H3382 0.950 . S
C3405 C3404 1.334 . S
C3405 C3406 1.287 . S
C3406 C3405 1.287 . S
C3406 C3407 1.524 . S
C3406 H3425 0.913 . S
C3407 H3383 0.950 . S
C3407 C3406 1.524 . S
C3407 C3408 1.415 . S
C3408 H3384 0.950 . S
C3408 C3403 1.363 . S
C3408 C3407 1.415 . S
C3409 H3385 0.951 . S
C3409 C3410 1.366 . S
C3409 C3411 1.388 . S
C3410 C3409 1.366 . S
C3410 C3414 1.385 . S
C3411 H3386 0.951 . S
C3411 C3409 1.388 . S
C3411 C3412 1.366 . S
C3412 C3411 1.366 . S
C3412 C3413 1.414 . S
C3412 C3415 1.499 . S
C3413 H3387 0.950 . S
C3413 C3412 1.414 . S
C3413 C3414 1.374 . S
C3414 H3388 0.950 . S
C3414 C3410 1.385 . S
C3414 C3413 1.374 . S
C3415 C3412 1.499 . S
C3415 C3416 1.373 . S
C3415 C3417 1.389 . S
C3416 H3389 0.950 . S
C3416 C3402 1.377 . S
C3416 C3415 1.373 . S
C3417 C3401 1.377 . S
C3417 C3415 1.389 . S
C3417 C3418 1.524 . S
C3418 C3417 1.524 . S
C3418 C3419 1.397 . S
C3418 C3423 1.363 . S
C3419 H3390 0.950 . S
C3419 C3418 1.397 . S
C3419 C3420 1.334 . S
C3420 H3391 0.950 . S
C3420 C3419 1.334 . S
C3420 C3421 1.287 . S
C3421 C3420 1.287 . S
C3421 C3422 1.524 . S
C3421 H3424 0.999 . S
C3422 H3392 0.950 . S
C3422 C3421 1.524 . S
C3422 C3423 1.415 . S
C3423 H3393 0.950 . S
C3423 C3418 1.363 . S
C3423 C3422 1.415 . S
H3424 C3421 0.999 . S
H3425 C3406 0.913 . S
H3426 C3444 0.951 . S
H3427 C3446 0.951 . S
H3428 C3448 0.950 . S
H3429 C3449 0.950 . S
H3430 C3451 0.950 . S
H3431 C3454 0.950 . S
H3432 C3455 0.950 . S
H3433 C3457 0.950 . S
H3434 C3458 0.950 . S
H3435 C3459 0.951 . S
H3436 C3461 0.951 . S
H3437 C3463 0.950 . S
H3438 C3464 0.950 . S
H3439 C3466 0.950 . S
H3440 C3469 0.950 . S
H3441 C3470 0.950 . S
H3442 C3472 0.950 . S
H3443 C3473 0.950 . S
C3444 H3426 0.951 . S
C3444 C3445 1.366 . S
C3444 C3446 1.388 . S
C3445 C3444 1.366 . S
C3445 C3449 1.385 . S
C3446 H3427 0.951 . S
C3446 C3444 1.388 . S
C3446 C3447 1.366 . S
C3447 C3446 1.366 . S
C3447 C3448 1.414 . S
C3447 C3450 1.499 . S
C3448 H3428 0.950 . S
C3448 C3447 1.414 . S
C3448 C3449 1.374 . S
C3449 H3429 0.950 . S
C3449 C3445 1.385 . S
C3449 C3448 1.374 . S
C3450 C3447 1.499 . S
C3450 C3451 1.373 . S
C3450 C3452 1.389 . S
C3451 H3430 0.950 . S
C3451 C3450 1.373 . S
C3451 C3467 1.377 . S
C3452 C3450 1.389 . S
C3452 C3453 1.524 . S
C3452 C3466 1.377 . S
C3453 C3452 1.524 . S
C3453 C3454 1.397 . S
C3453 C3458 1.363 . S
C3454 H3431 0.950 . S
C3454 C3453 1.397 . S
C3454 C3455 1.334 . S
C3455 H3432 0.950 . S
C3455 C3454 1.334 . S
C3455 C3456 1.287 . S
C3456 C3455 1.287 . S
C3456 C3457 1.524 . S
C3456 H3475 0.913 . S
C3457 H3433 0.950 . S
C3457 C3456 1.524 . S
C3457 C3458 1.415 . S
C3458 H3434 0.950 . S
C3458 C3453 1.363 . S
C3458 C3457 1.415 . S
C3459 H3435 0.951 . S
C3459 C3460 1.366 . S
C3459 C3461 1.388 . S
C3460 C3459 1.366 . S
C3460 C3464 1.385 . S
C3461 H3436 0.951 . S
C3461 C3459 1.388 . S
C3461 C3462 1.366 . S
C3462 C3461 1.366 . S
C3462 C3463 1.414 . S
C3462 C3465 1.499 . S
C3463 H3437 0.950 . S
C3463 C3462 1.414 . S
C3463 C3464 1.374 . S
C3464 H3438 0.950 . S
C3464 C3460 1.385 . S
C3464 C3463 1.374 . S
C3465 C3462 1.499 . S
C3465 C3466 1.373 . S
C3465 C3467 1.389 . S
C3466 H3439 0.950 . S
C3466 C3452 1.377 . S
C3466 C3465 1.373 . S
C3467 C3451 1.377 . S
C3467 C3465 1.389 . S
C3467 C3468 1.524 . S
C3468 C3467 1.524 . S
C3468 C3469 1.397 . S
C3468 C3473 1.363 . S
C3469 H3440 0.950 . S
C3469 C3468 1.397 . S
C3469 C3470 1.334 . S
C3470 H3441 0.950 . S
C3470 C3469 1.334 . S
C3470 C3471 1.287 . S
C3471 C3470 1.287 . S
C3471 C3472 1.524 . S
C3471 H3474 0.999 . S
C3472 H3442 0.950 . S
C3472 C3471 1.524 . S
C3472 C3473 1.415 . S
C3473 H3443 0.950 . S
C3473 C3468 1.363 . S
C3473 C3472 1.415 . S
H3474 C3471 0.999 . S
H3475 C3456 0.913 . S
H3476 C3494 0.951 . S
H3477 C3496 0.951 . S
H3478 C3498 0.950 . S
H3479 C3499 0.950 . S
H3480 C3501 0.950 . S
H3481 C3504 0.950 . S
H3482 C3505 0.950 . S
H3483 C3507 0.950 . S
H3484 C3508 0.950 . S
H3485 C3509 0.951 . S
H3486 C3511 0.951 . S
H3487 C3513 0.950 . S
H3488 C3514 0.950 . S
H3489 C3516 0.950 . S
H3490 C3519 0.950 . S
H3491 C3520 0.913 1_554 S
H3492 C3522 0.950 . S
H3493 C3523 0.950 . S
C3494 H3476 0.951 . S
C3494 C3495 1.366 1_655 S
C3494 C3496 1.388 . S
C3495 C3494 1.366 1_455 S
C3495 C3499 1.385 . S
C3496 H3477 0.951 . S
C3496 C3494 1.388 . S
C3496 C3497 1.366 1_655 S
C3497 C3496 1.366 1_455 S
C3497 C3498 1.414 . S
C3497 C3500 1.499 . S
C3498 H3478 0.950 . S
C3498 C3497 1.414 . S
C3498 C3499 1.374 . S
C3499 H3479 0.950 . S
C3499 C3495 1.385 . S
C3499 C3498 1.374 . S
C3500 C3497 1.499 . S
C3500 C3501 1.373 . S
C3500 C3502 1.389 1_455 S
C3501 H3480 0.950 . S
C3501 C3500 1.373 . S
C3501 C3517 1.377 . S
C3502 C3500 1.389 1_655 S
C3502 C3503 1.524 . S
C3502 C3516 1.377 . S
C3503 C3502 1.524 . S
C3503 C3504 1.397 . S
C3503 C3508 1.363 . S
C3504 H3481 0.950 . S
C3504 C3503 1.397 . S
C3504 C3505 1.334 . S
C3505 H3482 0.950 . S
C3505 C3504 1.334 . S
C3505 C3506 1.287 . S
C3506 C3505 1.287 . S
C3506 C3507 1.524 . S
C3506 H3525 0.913 . S
C3507 H3483 0.950 . S
C3507 C3506 1.524 . S
C3507 C3508 1.415 . S
C3508 H3484 0.950 . S
C3508 C3503 1.363 . S
C3508 C3507 1.415 . S
C3509 H3485 0.951 . S
C3509 C3510 1.366 1_556 S
C3509 C3511 1.388 . S
C3510 C3509 1.366 1_554 S
C3510 C3514 1.385 . S
C3511 H3486 0.951 . S
C3511 C3509 1.388 . S
C3511 C3512 1.366 . S
C3512 C3511 1.366 . S
C3512 C3513 1.414 1_556 S
C3512 C3515 1.499 . S
C3513 H3487 0.950 . S
C3513 C3512 1.414 1_554 S
C3513 C3514 1.374 . S
C3514 H3488 0.950 . S
C3514 C3510 1.385 . S
C3514 C3513 1.374 . S
C3515 C3512 1.499 . S
C3515 C3516 1.373 1_455 S
C3515 C3517 1.389 . S
C3516 H3489 0.950 . S
C3516 C3502 1.377 . S
C3516 C3515 1.373 1_655 S
C3517 C3501 1.377 . S
C3517 C3515 1.389 . S
C3517 C3518 1.524 . S
C3518 C3517 1.524 . S
C3518 C3519 1.397 . S
C3518 C3523 1.363 . S
C3519 H3490 0.950 . S
C3519 C3518 1.397 . S
C3519 C3520 1.334 . S
C3520 H3491 0.913 1_556 S
C3520 C3519 1.334 . S
C3520 C3521 1.287 . S
C3521 C3520 1.287 . S
C3521 C3522 1.524 . S
C3521 H3524 0.999 . S
C3522 H3492 0.950 . S
C3522 C3521 1.524 . S
C3522 C3523 1.415 . S
C3523 H3493 0.950 . S
C3523 C3518 1.363 . S
C3523 C3522 1.415 . S
H3524 C3521 0.999 . S
H3525 C3506 0.913 . S
H3526 C3544 0.951 . S
H3527 C3546 0.951 . S
H3528 C3548 0.950 . S
H3529 C3549 0.950 . S
H3530 C3551 0.950 . S
H3531 C3554 0.950 . S
H3532 C3555 0.950 . S
H3533 C3557 0.950 . S
H3534 C3558 0.950 . S
H3535 C3559 0.951 . S
H3536 C3561 0.951 . S
H3537 C3563 0.950 . S
H3538 C3564 0.950 . S
H3539 C3566 0.950 . S
H3540 C3569 0.950 . S
H3541 C3570 0.950 . S
H3542 C3572 0.950 . S
H3543 C3573 0.950 . S
C3544 H3526 0.951 . S
C3544 C3545 1.366 . S
C3544 C3546 1.388 1_455 S
C3545 C3544 1.366 . S
C3545 C3549 1.385 . S
C3546 H3527 0.951 . S
C3546 C3544 1.388 1_655 S
C3546 C3547 1.366 . S
C3547 C3546 1.366 . S
C3547 C3548 1.414 1_655 S
C3547 C3550 1.499 . S
C3548 H3528 0.950 . S
C3548 C3547 1.414 1_455 S
C3548 C3549 1.374 . S
C3549 H3529 0.950 . S
C3549 C3545 1.385 . S
C3549 C3548 1.374 . S
C3550 C3547 1.499 . S
C3550 C3551 1.373 . S
C3550 C3552 1.389 . S
C3551 H3530 0.950 . S
C3551 C3550 1.373 . S
C3551 C3567 1.377 . S
C3552 C3550 1.389 . S
C3552 C3553 1.524 . S
C3552 C3566 1.377 . S
C3553 C3552 1.524 . S
C3553 C3554 1.397 . S
C3553 C3558 1.363 . S
C3554 H3531 0.950 . S
C3554 C3553 1.397 . S
C3554 C3555 1.334 . S
C3555 H3532 0.950 . S
C3555 C3554 1.334 . S
C3555 C3556 1.287 . S
C3556 C3555 1.287 . S
C3556 C3557 1.524 . S
C3556 H3575 0.913 . S
C3557 H3533 0.950 . S
C3557 C3556 1.524 . S
C3557 C3558 1.415 . S
C3558 H3534 0.950 . S
C3558 C3553 1.363 . S
C3558 C3557 1.415 . S
C3559 H3535 0.951 . S
C3559 C3560 1.366 . S
C3559 C3561 1.388 . S
C3560 C3559 1.366 . S
C3560 C3564 1.385 . S
C3561 H3536 0.951 . S
C3561 C3559 1.388 . S
C3561 C3562 1.366 . S
C3562 C3561 1.366 . S
C3562 C3563 1.414 . S
C3562 C3565 1.499 . S
C3563 H3537 0.950 . S
C3563 C3562 1.414 . S
C3563 C3564 1.374 . S
C3564 H3538 0.950 . S
C3564 C3560 1.385 . S
C3564 C3563 1.374 . S
C3565 C3562 1.499 . S
C3565 C3566 1.373 . S
C3565 C3567 1.389 . S
C3566 H3539 0.950 . S
C3566 C3552 1.377 . S
C3566 C3565 1.373 . S
C3567 C3551 1.377 . S
C3567 C3565 1.389 . S
C3567 C3568 1.524 . S
C3568 C3567 1.524 . S
C3568 C3569 1.397 . S
C3568 C3573 1.363 . S
C3569 H3540 0.950 . S
C3569 C3568 1.397 . S
C3569 C3570 1.334 . S
C3570 H3541 0.950 . S
C3570 C3569 1.334 . S
C3570 C3571 1.287 . S
C3571 C3570 1.287 . S
C3571 C3572 1.524 . S
C3571 H3574 0.999 . S
C3572 H3542 0.950 . S
C3572 C3571 1.524 . S
C3572 C3573 1.415 . S
C3573 H3543 0.950 . S
C3573 C3568 1.363 . S
C3573 C3572 1.415 . S
H3574 C3571 0.999 . S
H3575 C3556 0.913 . S
H3576 C3594 0.951 . S
H3577 C3596 0.951 . S
H3578 C3598 0.950 . S
H3579 C3599 0.950 . S
H3580 C3601 0.950 . S
H3581 C3604 0.950 . S
H3582 C3605 0.950 . S
H3583 C3607 0.950 . S
H3584 C3608 0.950 . S
H3585 C3609 0.951 . S
H3586 C3611 0.951 . S
H3587 C3613 0.950 . S
H3588 C3614 0.950 . S
H3589 C3616 0.950 . S
H3590 C3619 0.950 . S
H3591 C3620 0.950 . S
H3592 C3622 0.950 . S
H3593 C3623 0.950 . S
C3594 H3576 0.951 . S
C3594 C3595 1.366 . S
C3594 C3596 1.388 . S
C3595 C3594 1.366 . S
C3595 C3599 1.385 . S
C3596 H3577 0.951 . S
C3596 C3594 1.388 . S
C3596 C3597 1.366 . S
C3597 C3596 1.366 . S
C3597 C3598 1.414 . S
C3597 C3600 1.499 . S
C3598 H3578 0.950 . S
C3598 C3597 1.414 . S
C3598 C3599 1.374 . S
C3599 H3579 0.950 . S
C3599 C3595 1.385 . S
C3599 C3598 1.374 . S
C3600 C3597 1.499 . S
C3600 C3601 1.373 . S
C3600 C3602 1.389 . S
C3601 H3580 0.950 . S
C3601 C3600 1.373 . S
C3601 C3617 1.377 . S
C3602 C3600 1.389 . S
C3602 C3603 1.524 . S
C3602 C3616 1.377 . S
C3603 C3602 1.524 . S
C3603 C3604 1.397 . S
C3603 C3608 1.363 . S
C3604 H3581 0.950 . S
C3604 C3603 1.397 . S
C3604 C3605 1.334 . S
C3605 H3582 0.950 . S
C3605 C3604 1.334 . S
C3605 C3606 1.287 . S
C3606 C3605 1.287 . S
C3606 C3607 1.524 . S
C3606 H3625 0.913 . S
C3607 H3583 0.950 . S
C3607 C3606 1.524 . S
C3607 C3608 1.415 . S
C3608 H3584 0.950 . S
C3608 C3603 1.363 . S
C3608 C3607 1.415 . S
C3609 H3585 0.951 . S
C3609 C3610 1.366 . S
C3609 C3611 1.388 . S
C3610 C3609 1.366 . S
C3610 C3614 1.385 . S
C3611 H3586 0.951 . S
C3611 C3609 1.388 . S
C3611 C3612 1.366 . S
C3612 C3611 1.366 . S
C3612 C3613 1.414 . S
C3612 C3615 1.499 . S
C3613 H3587 0.950 . S
C3613 C3612 1.414 . S
C3613 C3614 1.374 . S
C3614 H3588 0.950 . S
C3614 C3610 1.385 . S
C3614 C3613 1.374 . S
C3615 C3612 1.499 . S
C3615 C3616 1.373 . S
C3615 C3617 1.389 . S
C3616 H3589 0.950 . S
C3616 C3602 1.377 . S
C3616 C3615 1.373 . S
C3617 C3601 1.377 . S
C3617 C3615 1.389 . S
C3617 C3618 1.524 . S
C3618 C3617 1.524 . S
C3618 C3619 1.397 . S
C3618 C3623 1.363 . S
C3619 H3590 0.950 . S
C3619 C3618 1.397 . S
C3619 C3620 1.334 . S
C3620 H3591 0.950 . S
C3620 C3619 1.334 . S
C3620 C3621 1.287 . S
C3621 C3620 1.287 . S
C3621 C3622 1.524 . S
C3621 H3624 0.999 . S
C3622 H3592 0.950 . S
C3622 C3621 1.524 . S
C3622 C3623 1.415 . S
C3623 H3593 0.950 . S
C3623 C3618 1.363 . S
C3623 C3622 1.415 . S
H3624 C3621 0.999 . S
H3625 C3606 0.913 . S
H3626 C3644 0.951 . S
H3627 C3646 0.951 . S
H3628 C3648 0.950 . S
H3629 C3649 0.950 . S
H3630 C3651 0.950 . S
H3631 C3654 0.950 . S
H3632 C3655 0.950 . S
H3633 C3657 0.950 . S
H3634 C3658 0.950 . S
H3635 C3659 0.951 . S
H3636 C3661 0.951 . S
H3637 C3663 0.950 . S
H3638 C3664 0.950 . S
H3639 C3666 0.950 . S
H3640 C3669 0.950 . S
H3641 C3670 0.950 . S
H3642 C3672 0.950 . S
H3643 C3673 0.950 . S
C3644 H3626 0.951 . S
C3644 C3645 1.366 . S
C3644 C3646 1.388 . S
C3645 C3644 1.366 . S
C3645 C3649 1.385 . S
C3646 H3627 0.951 . S
C3646 C3644 1.388 . S
C3646 C3647 1.366 . S
C3647 C3646 1.366 . S
C3647 C3648 1.414 . S
C3647 C3650 1.499 . S
C3648 H3628 0.950 . S
C3648 C3647 1.414 . S
C3648 C3649 1.374 . S
C3649 H3629 0.950 . S
C3649 C3645 1.385 . S
C3649 C3648 1.374 . S
C3650 C3647 1.499 . S
C3650 C3651 1.373 . S
C3650 C3652 1.389 . S
C3651 H3630 0.950 . S
C3651 C3650 1.373 . S
C3651 C3667 1.377 . S
C3652 C3650 1.389 . S
C3652 C3653 1.524 . S
C3652 C3666 1.377 . S
C3653 C3652 1.524 . S
C3653 C3654 1.397 . S
C3653 C3658 1.363 . S
C3654 H3631 0.950 . S
C3654 C3653 1.397 . S
C3654 C3655 1.334 . S
C3655 H3632 0.950 . S
C3655 C3654 1.334 . S
C3655 C3656 1.287 . S
C3656 C3655 1.287 . S
C3656 C3657 1.524 . S
C3656 H3675 0.913 . S
C3657 H3633 0.950 . S
C3657 C3656 1.524 . S
C3657 C3658 1.415 . S
C3658 H3634 0.950 . S
C3658 C3653 1.363 . S
C3658 C3657 1.415 . S
C3659 H3635 0.951 . S
C3659 C3660 1.366 . S
C3659 C3661 1.388 . S
C3660 C3659 1.366 . S
C3660 C3664 1.385 . S
C3661 H3636 0.951 . S
C3661 C3659 1.388 . S
C3661 C3662 1.366 . S
C3662 C3661 1.366 . S
C3662 C3663 1.414 . S
C3662 C3665 1.499 . S
C3663 H3637 0.950 . S
C3663 C3662 1.414 . S
C3663 C3664 1.374 . S
C3664 H3638 0.950 . S
C3664 C3660 1.385 . S
C3664 C3663 1.374 . S
C3665 C3662 1.499 . S
C3665 C3666 1.373 . S
C3665 C3667 1.389 . S
C3666 H3639 0.950 . S
C3666 C3652 1.377 . S
C3666 C3665 1.373 . S
C3667 C3651 1.377 . S
C3667 C3665 1.389 . S
C3667 C3668 1.524 . S
C3668 C3667 1.524 . S
C3668 C3669 1.397 . S
C3668 C3673 1.363 . S
C3669 H3640 0.950 . S
C3669 C3668 1.397 . S
C3669 C3670 1.334 . S
C3670 H3641 0.950 . S
C3670 C3669 1.334 . S
C3670 C3671 1.287 . S
C3671 C3670 1.287 . S
C3671 C3672 1.524 . S
C3671 H3674 0.999 . S
C3672 H3642 0.950 . S
C3672 C3671 1.524 . S
C3672 C3673 1.415 . S
C3673 H3643 0.950 . S
C3673 C3668 1.363 . S
C3673 C3672 1.415 . S
H3674 C3671 0.999 . S
H3675 C3656 0.913 . S
H3676 C3694 0.951 . S
H3677 C3696 0.951 . S
H3678 C3698 0.950 1_655 S
H3679 C3699 0.950 1_655 S
H3680 C3701 0.950 . S
H3681 C3704 0.950 . S
H3682 C3705 0.950 . S
H3683 C3707 0.950 . S
H3684 C3708 0.950 . S
H3685 C3709 0.951 1_655 S
H3686 C3711 0.951 1_655 S
H3687 C3713 0.950 . S
H3688 C3714 0.950 . S
H3689 C3716 0.950 . S
H3690 C3719 0.950 . S
H3691 C3720 0.935 1_455 S
H3692 C3722 0.950 . S
H3693 C3723 0.950 . S
C3694 H3676 0.951 . S
C3694 C3695 1.366 . S
C3694 C3696 1.388 . S
C3695 C3694 1.366 . S
C3695 C3699 1.385 . S
C3696 H3677 0.951 . S
C3696 C3694 1.388 . S
C3696 C3697 1.366 . S
C3697 C3696 1.366 . S
C3697 C3698 1.414 . S
C3697 C3700 1.499 . S
C3698 H3678 0.950 1_455 S
C3698 C3697 1.414 . S
C3698 C3699 1.374 . S
C3699 H3679 0.950 1_455 S
C3699 C3695 1.385 . S
C3699 C3698 1.374 . S
C3700 C3697 1.499 . S
C3700 C3701 1.373 . S
C3700 C3702 1.389 . S
C3701 H3680 0.950 . S
C3701 C3700 1.373 . S
C3701 C3717 1.377 . S
C3702 C3700 1.389 . S
C3702 C3703 1.524 . S
C3702 C3716 1.377 . S
C3703 C3702 1.524 . S
C3703 C3704 1.397 . S
C3703 C3708 1.363 . S
C3704 H3681 0.950 . S
C3704 C3703 1.397 . S
C3704 C3705 1.334 . S
C3705 H3682 0.950 . S
C3705 C3704 1.334 . S
C3705 C3706 1.287 . S
C3706 C3705 1.287 . S
C3706 C3707 1.524 . S
C3706 H3725 0.913 . S
C3707 H3683 0.950 . S
C3707 C3706 1.524 . S
C3707 C3708 1.415 . S
C3708 H3684 0.950 . S
C3708 C3703 1.363 . S
C3708 C3707 1.415 . S
C3709 H3685 0.951 1_455 S
C3709 C3710 1.366 . S
C3709 C3711 1.388 . S
C3710 C3709 1.366 . S
C3710 C3714 1.385 . S
C3711 H3686 0.951 1_455 S
C3711 C3709 1.388 . S
C3711 C3712 1.366 . S
C3712 C3711 1.366 . S
C3712 C3713 1.414 . S
C3712 C3715 1.499 . S
C3713 H3687 0.950 . S
C3713 C3712 1.414 . S
C3713 C3714 1.374 . S
C3714 H3688 0.950 . S
C3714 C3710 1.385 . S
C3714 C3713 1.374 . S
C3715 C3712 1.499 . S
C3715 C3716 1.373 . S
C3715 C3717 1.389 . S
C3716 H3689 0.950 . S
C3716 C3702 1.377 . S
C3716 C3715 1.373 . S
C3717 C3701 1.377 . S
C3717 C3715 1.389 . S
C3717 C3718 1.524 1_455 S
C3718 C3717 1.524 1_655 S
C3718 C3719 1.397 1_655 S
C3718 C3723 1.363 . S
C3719 H3690 0.950 . S
C3719 C3718 1.397 1_455 S
C3719 C3720 1.334 1_455 S
C3720 H3691 0.935 1_655 S
C3720 C3719 1.334 1_655 S
C3720 C3721 1.287 . S
C3721 C3720 1.287 . S
C3721 C3722 1.524 . S
C3721 H3724 0.999 . S
C3722 H3692 0.950 . S
C3722 C3721 1.524 . S
C3722 C3723 1.415 . S
C3723 H3693 0.950 . S
C3723 C3718 1.363 . S
C3723 C3722 1.415 . S
H3724 C3721 0.999 . S
H3725 C3706 0.913 . S
H3726 C3744 0.951 . S
H3727 C3746 0.951 . S
H3728 C3748 0.950 . S
H3729 C3749 0.950 . S
H3730 C3751 0.950 . S
H3731 C3754 0.950 . S
H3732 C3755 0.950 . S
H3733 C3757 0.950 . S
H3734 C3758 0.950 . S
H3735 C3759 0.951 . S
H3736 C3761 0.951 . S
H3737 C3763 0.950 . S
H3738 C3764 0.950 . S
H3739 C3766 0.950 . S
H3740 C3769 0.950 . S
H3741 C3770 0.950 . S
H3742 C3772 0.950 . S
H3743 C3773 0.950 . S
C3744 H3726 0.951 . S
C3744 C3745 1.366 . S
C3744 C3746 1.388 . S
C3745 C3744 1.366 . S
C3745 C3749 1.385 . S
C3746 H3727 0.951 . S
C3746 C3744 1.388 . S
C3746 C3747 1.366 . S
C3747 C3746 1.366 . S
C3747 C3748 1.414 . S
C3747 C3750 1.499 . S
C3748 H3728 0.950 . S
C3748 C3747 1.414 . S
C3748 C3749 1.374 . S
C3749 H3729 0.950 . S
C3749 C3745 1.385 . S
C3749 C3748 1.374 . S
C3750 C3747 1.499 . S
C3750 C3751 1.373 . S
C3750 C3752 1.389 . S
C3751 H3730 0.950 . S
C3751 C3750 1.373 . S
C3751 C3767 1.377 . S
C3752 C3750 1.389 . S
C3752 C3753 1.524 . S
C3752 C3766 1.377 . S
C3753 C3752 1.524 . S
C3753 C3754 1.397 . S
C3753 C3758 1.363 . S
C3754 H3731 0.950 . S
C3754 C3753 1.397 . S
C3754 C3755 1.334 . S
C3755 H3732 0.950 . S
C3755 C3754 1.334 . S
C3755 C3756 1.287 . S
C3756 C3755 1.287 . S
C3756 C3757 1.524 . S
C3756 H3775 0.913 . S
C3757 H3733 0.950 . S
C3757 C3756 1.524 . S
C3757 C3758 1.415 . S
C3758 H3734 0.950 . S
C3758 C3753 1.363 . S
C3758 C3757 1.415 . S
C3759 H3735 0.951 . S
C3759 C3760 1.366 . S
C3759 C3761 1.388 . S
C3760 C3759 1.366 . S
C3760 C3764 1.385 . S
C3761 H3736 0.951 . S
C3761 C3759 1.388 . S
C3761 C3762 1.366 . S
C3762 C3761 1.366 . S
C3762 C3763 1.414 . S
C3762 C3765 1.499 . S
C3763 H3737 0.950 . S
C3763 C3762 1.414 . S
C3763 C3764 1.374 . S
C3764 H3738 0.950 . S
C3764 C3760 1.385 . S
C3764 C3763 1.374 . S
C3765 C3762 1.499 . S
C3765 C3766 1.373 . S
C3765 C3767 1.389 . S
C3766 H3739 0.950 . S
C3766 C3752 1.377 . S
C3766 C3765 1.373 . S
C3767 C3751 1.377 . S
C3767 C3765 1.389 . S
C3767 C3768 1.524 . S
C3768 C3767 1.524 . S
C3768 C3769 1.397 . S
C3768 C3773 1.363 . S
C3769 H3740 0.950 . S
C3769 C3768 1.397 . S
C3769 C3770 1.334 . S
C3770 H3741 0.950 . S
C3770 C3769 1.334 . S
C3770 C3771 1.287 . S
C3771 C3770 1.287 . S
C3771 C3772 1.524 . S
C3771 H3774 0.999 . S
C3772 H3742 0.950 . S
C3772 C3771 1.524 . S
C3772 C3773 1.415 . S
C3773 H3743 0.950 . S
C3773 C3768 1.363 . S
C3773 C3772 1.415 . S
H3774 C3771 0.999 . S
H3775 C3756 0.913 . S
H3776 C3794 0.951 . S
H3777 C3796 0.951 . S
H3778 C3798 0.950 . S
H3779 C3799 0.950 . S
H3780 C3801 0.950 . S
H3781 C3804 0.950 . S
H3782 C3805 0.950 . S
H3783 C3807 0.950 . S
H3784 C3808 0.950 . S
H3785 C3809 0.951 . S
H3786 C3811 0.951 . S
H3787 C3813 0.950 . S
H3788 C3814 0.950 . S
H3789 C3816 0.950 . S
H3790 C3819 0.950 . S
H3791 C3820 0.950 . S
H3792 C3822 0.950 . S
H3793 C3823 0.950 . S
C3794 H3776 0.951 . S
C3794 C3795 1.366 . S
C3794 C3796 1.388 . S
C3795 C3794 1.366 . S
C3795 C3799 1.385 . S
C3796 H3777 0.951 . S
C3796 C3794 1.388 . S
C3796 C3797 1.366 . S
C3797 C3796 1.366 . S
C3797 C3798 1.414 . S
C3797 C3800 1.499 . S
C3798 H3778 0.950 . S
C3798 C3797 1.414 . S
C3798 C3799 1.374 . S
C3799 H3779 0.950 . S
C3799 C3795 1.385 . S
C3799 C3798 1.374 . S
C3800 C3797 1.499 . S
C3800 C3801 1.373 . S
C3800 C3802 1.389 . S
C3801 H3780 0.950 . S
C3801 C3800 1.373 . S
C3801 C3817 1.377 . S
C3802 C3800 1.389 . S
C3802 C3803 1.524 . S
C3802 C3816 1.377 . S
C3803 C3802 1.524 . S
C3803 C3804 1.397 . S
C3803 C3808 1.363 . S
C3804 H3781 0.950 . S
C3804 C3803 1.397 . S
C3804 C3805 1.334 . S
C3805 H3782 0.950 . S
C3805 C3804 1.334 . S
C3805 C3806 1.287 . S
C3806 C3805 1.287 . S
C3806 C3807 1.524 . S
C3806 H3825 0.913 . S
C3807 H3783 0.950 . S
C3807 C3806 1.524 . S
C3807 C3808 1.415 . S
C3808 H3784 0.950 . S
C3808 C3803 1.363 . S
C3808 C3807 1.415 . S
C3809 H3785 0.951 . S
C3809 C3810 1.366 . S
C3809 C3811 1.388 . S
C3810 C3809 1.366 . S
C3810 C3814 1.385 . S
C3811 H3786 0.951 . S
C3811 C3809 1.388 . S
C3811 C3812 1.366 . S
C3812 C3811 1.366 . S
C3812 C3813 1.414 . S
C3812 C3815 1.499 . S
C3813 H3787 0.950 . S
C3813 C3812 1.414 . S
C3813 C3814 1.374 . S
C3814 H3788 0.950 . S
C3814 C3810 1.385 . S
C3814 C3813 1.374 . S
C3815 C3812 1.499 . S
C3815 C3816 1.373 . S
C3815 C3817 1.389 . S
C3816 H3789 0.950 . S
C3816 C3802 1.377 . S
C3816 C3815 1.373 . S
C3817 C3801 1.377 . S
C3817 C3815 1.389 . S
C3817 C3818 1.524 . S
C3818 C3817 1.524 . S
C3818 C3819 1.397 . S
C3818 C3823 1.363 . S
C3819 H3790 0.950 . S
C3819 C3818 1.397 . S
C3819 C3820 1.334 . S
C3820 H3791 0.950 . S
C3820 C3819 1.334 . S
C3820 C3821 1.287 . S
C3821 C3820 1.287 . S
C3821 C3822 1.524 . S
C3821 H3824 0.999 . S
C3822 H3792 0.950 . S
C3822 C3821 1.524 . S
C3822 C3823 1.415 . S
C3823 H3793 0.950 . S
C3823 C3818 1.363 . S
C3823 C3822 1.415 . S
H3824 C3821 0.999 . S
H3825 C3806 0.913 . S
H3826 C3844 0.951 . S
H3827 C3846 0.951 . S
H3828 C3848 0.950 . S
H3829 C3849 0.950 . S
H3830 C3851 0.950 . S
H3831 C3854 0.950 . S
H3832 C3855 0.950 . S
H3833 C3857 0.950 . S
H3834 C3858 0.950 . S
H3835 C3859 0.951 . S
H3836 C3861 0.951 . S
H3837 C3863 0.950 . S
H3838 C3864 0.950 . S
H3839 C3866 0.950 . S
H3840 C3869 0.950 . S
H3841 C3870 0.950 . S
H3842 C3872 0.950 . S
H3843 C3873 0.950 . S
C3844 H3826 0.951 . S
C3844 C3845 1.366 . S
C3844 C3846 1.388 . S
C3845 C3844 1.366 . S
C3845 C3849 1.385 . S
C3846 H3827 0.951 . S
C3846 C3844 1.388 . S
C3846 C3847 1.366 . S
C3847 C3846 1.366 . S
C3847 C3848 1.414 . S
C3847 C3850 1.499 . S
C3848 H3828 0.950 . S
C3848 C3847 1.414 . S
C3848 C3849 1.374 . S
C3849 H3829 0.950 . S
C3849 C3845 1.385 . S
C3849 C3848 1.374 . S
C3850 C3847 1.499 . S
C3850 C3851 1.373 . S
C3850 C3852 1.389 . S
C3851 H3830 0.950 . S
C3851 C3850 1.373 . S
C3851 C3867 1.377 . S
C3852 C3850 1.389 . S
C3852 C3853 1.524 . S
C3852 C3866 1.377 . S
C3853 C3852 1.524 . S
C3853 C3854 1.397 . S
C3853 C3858 1.363 . S
C3854 H3831 0.950 . S
C3854 C3853 1.397 . S
C3854 C3855 1.334 . S
C3855 H3832 0.950 . S
C3855 C3854 1.334 . S
C3855 C3856 1.287 . S
C3856 C3855 1.287 . S
C3856 C3857 1.524 . S
C3856 H3875 0.913 . S
C3857 H3833 0.950 . S
C3857 C3856 1.524 . S
C3857 C3858 1.415 . S
C3858 H3834 0.950 . S
C3858 C3853 1.363 . S
C3858 C3857 1.415 . S
C3859 H3835 0.951 . S
C3859 C3860 1.366 . S
C3859 C3861 1.388 . S
C3860 C3859 1.366 . S
C3860 C3864 1.385 . S
C3861 H3836 0.951 . S
C3861 C3859 1.388 . S
C3861 C3862 1.366 . S
C3862 C3861 1.366 . S
C3862 C3863 1.414 . S
C3862 C3865 1.499 . S
C3863 H3837 0.950 . S
C3863 C3862 1.414 . S
C3863 C3864 1.374 . S
C3864 H3838 0.950 . S
C3864 C3860 1.385 . S
C3864 C3863 1.374 . S
C3865 C3862 1.499 . S
C3865 C3866 1.373 . S
C3865 C3867 1.389 . S
C3866 H3839 0.950 . S
C3866 C3852 1.377 . S
C3866 C3865 1.373 . S
C3867 C3851 1.377 . S
C3867 C3865 1.389 . S
C3867 C3868 1.524 . S
C3868 C3867 1.524 . S
C3868 C3869 1.397 . S
C3868 C3873 1.363 . S
C3869 H3840 0.950 . S
C3869 C3868 1.397 . S
C3869 C3870 1.334 . S
C3870 H3841 0.950 . S
C3870 C3869 1.334 . S
C3870 C3871 1.287 . S
C3871 C3870 1.287 . S
C3871 C3872 1.524 . S
C3871 H3874 0.999 . S
C3872 H3842 0.950 . S
C3872 C3871 1.524 . S
C3872 C3873 1.415 . S
C3873 H3843 0.950 . S
C3873 C3868 1.363 . S
C3873 C3872 1.415 . S
H3874 C3871 0.999 . S
H3875 C3856 0.913 . S
H3876 C3894 0.951 . S
H3877 C3896 0.951 . S
H3878 C3898 0.950 . S
H3879 C3899 0.950 . S
H3880 C3901 0.950 . S
H3881 C3904 0.950 . S
H3882 C3905 0.950 . S
H3883 C3907 0.950 . S
H3884 C3908 0.950 . S
H3885 C3909 0.951 . S
H3886 C3911 0.951 . S
H3887 C3913 0.950 . S
H3888 C3914 0.950 . S
H3889 C3916 0.950 . S
H3890 C3919 0.950 . S
H3891 C3920 0.950 . S
H3892 C3922 0.950 . S
H3893 C3923 0.950 . S
C3894 H3876 0.951 . S
C3894 C3895 1.366 . S
C3894 C3896 1.388 . S
C3895 C3894 1.366 . S
C3895 C3899 1.385 . S
C3896 H3877 0.951 . S
C3896 C3894 1.388 . S
C3896 C3897 1.366 . S
C3897 C3896 1.366 . S
C3897 C3898 1.414 . S
C3897 C3900 1.499 . S
C3898 H3878 0.950 . S
C3898 C3897 1.414 . S
C3898 C3899 1.374 . S
C3899 H3879 0.950 . S
C3899 C3895 1.385 . S
C3899 C3898 1.374 . S
C3900 C3897 1.499 . S
C3900 C3901 1.373 . S
C3900 C3902 1.389 . S
C3901 H3880 0.950 . S
C3901 C3900 1.373 . S
C3901 C3917 1.377 . S
C3902 C3900 1.389 . S
C3902 C3903 1.524 . S
C3902 C3916 1.377 . S
C3903 C3902 1.524 . S
C3903 C3904 1.397 . S
C3903 C3908 1.363 . S
C3904 H3881 0.950 . S
C3904 C3903 1.397 . S
C3904 C3905 1.334 . S
C3905 H3882 0.950 . S
C3905 C3904 1.334 . S
C3905 C3906 1.287 . S
C3906 C3905 1.287 . S
C3906 C3907 1.524 . S
C3906 H3925 0.913 . S
C3907 H3883 0.950 . S
C3907 C3906 1.524 . S
C3907 C3908 1.415 . S
C3908 H3884 0.950 . S
C3908 C3903 1.363 . S
C3908 C3907 1.415 . S
C3909 H3885 0.951 . S
C3909 C3910 1.366 . S
C3909 C3911 1.388 . S
C3910 C3909 1.366 . S
C3910 C3914 1.385 . S
C3911 H3886 0.951 . S
C3911 C3909 1.388 . S
C3911 C3912 1.366 . S
C3912 C3911 1.366 . S
C3912 C3913 1.414 . S
C3912 C3915 1.499 . S
C3913 H3887 0.950 . S
C3913 C3912 1.414 . S
C3913 C3914 1.374 . S
C3914 H3888 0.950 . S
C3914 C3910 1.385 . S
C3914 C3913 1.374 . S
C3915 C3912 1.499 . S
C3915 C3916 1.373 . S
C3915 C3917 1.389 . S
C3916 H3889 0.950 . S
C3916 C3902 1.377 . S
C3916 C3915 1.373 . S
C3917 C3901 1.377 . S
C3917 C3915 1.389 . S
C3917 C3918 1.524 . S
C3918 C3917 1.524 . S
C3918 C3919 1.397 . S
C3918 C3923 1.363 . S
C3919 H3890 0.950 . S
C3919 C3918 1.397 . S
C3919 C3920 1.334 . S
C3920 H3891 0.950 . S
C3920 C3919 1.334 . S
C3920 C3921 1.287 . S
C3921 C3920 1.287 . S
C3921 C3922 1.524 . S
C3921 H3924 0.999 . S
C3922 H3892 0.950 . S
C3922 C3921 1.524 . S
C3922 C3923 1.415 . S
C3923 H3893 0.950 . S
C3923 C3918 1.363 . S
C3923 C3922 1.415 . S
H3924 C3921 0.999 . S
H3925 C3906 0.913 . S
H3926 C3944 0.951 . S
H3927 C3946 0.951 . S
H3928 C3948 0.950 . S
H3929 C3949 0.950 . S
H3930 C3951 0.950 . S
H3931 C3954 0.950 . S
H3932 C3955 0.950 . S
H3933 C3957 0.950 . S
H3934 C3958 0.950 . S
H3935 C3959 0.951 . S
H3936 C3961 0.951 . S
H3937 C3963 0.950 . S
H3938 C3964 0.950 . S
H3939 C3966 0.950 . S
H3940 C3969 0.950 . S
H3941 C3970 0.950 . S
H3942 C3972 0.950 . S
H3943 C3973 0.950 . S
C3944 H3926 0.951 . S
C3944 C3945 1.366 . S
C3944 C3946 1.388 . S
C3945 C3944 1.366 . S
C3945 C3949 1.385 . S
C3946 H3927 0.951 . S
C3946 C3944 1.388 . S
C3946 C3947 1.366 . S
C3947 C3946 1.366 . S
C3947 C3948 1.414 . S
C3947 C3950 1.499 . S
C3948 H3928 0.950 . S
C3948 C3947 1.414 . S
C3948 C3949 1.374 . S
C3949 H3929 0.950 . S
C3949 C3945 1.385 . S
C3949 C3948 1.374 . S
C3950 C3947 1.499 . S
C3950 C3951 1.373 . S
C3950 C3952 1.389 . S
C3951 H3930 0.950 . S
C3951 C3950 1.373 . S
C3951 C3967 1.377 . S
C3952 C3950 1.389 . S
C3952 C3953 1.524 . S
C3952 C3966 1.377 . S
C3953 C3952 1.524 . S
C3953 C3954 1.397 . S
C3953 C3958 1.363 . S
C3954 H3931 0.950 . S
C3954 C3953 1.397 . S
C3954 C3955 1.334 . S
C3955 H3932 0.950 . S
C3955 C3954 1.334 . S
C3955 C3956 1.287 . S
C3956 C3955 1.287 . S
C3956 C3957 1.524 . S
C3956 H3975 0.913 . S
C3957 H3933 0.950 . S
C3957 C3956 1.524 . S
C3957 C3958 1.415 . S
C3958 H3934 0.950 . S
C3958 C3953 1.363 . S
C3958 C3957 1.415 . S
C3959 H3935 0.951 . S
C3959 C3960 1.366 . S
C3959 C3961 1.388 . S
C3960 C3959 1.366 . S
C3960 C3964 1.385 . S
C3961 H3936 0.951 . S
C3961 C3959 1.388 . S
C3961 C3962 1.366 . S
C3962 C3961 1.366 . S
C3962 C3963 1.414 . S
C3962 C3965 1.499 . S
C3963 H3937 0.950 . S
C3963 C3962 1.414 . S
C3963 C3964 1.374 . S
C3964 H3938 0.950 . S
C3964 C3960 1.385 . S
C3964 C3963 1.374 . S
C3965 C3962 1.499 . S
C3965 C3966 1.373 . S
C3965 C3967 1.389 . S
C3966 H3939 0.950 . S
C3966 C3952 1.377 . S
C3966 C3965 1.373 . S
C3967 C3951 1.377 . S
C3967 C3965 1.389 . S
C3967 C3968 1.524 . S
C3968 C3967 1.524 . S
C3968 C3969 1.397 . S
C3968 C3973 1.363 . S
C3969 H3940 0.950 . S
C3969 C3968 1.397 . S
C3969 C3970 1.334 . S
C3970 H3941 0.950 . S
C3970 C3969 1.334 . S
C3970 C3971 1.287 . S
C3971 C3970 1.287 . S
C3971 C3972 1.524 . S
C3971 H3974 0.999 . S
C3972 H3942 0.950 . S
C3972 C3971 1.524 . S
C3972 C3973 1.415 . S
C3973 H3943 0.950 . S
C3973 C3968 1.363 . S
C3973 C3972 1.415 . S
H3974 C3971 0.999 . S
H3975 C3956 0.913 . S
H3976 C3994 0.951 . S
H3977 C3996 0.951 . S
H3978 C3998 0.950 . S
H3979 C3999 0.950 . S
H3980 C4001 0.950 . S
H3981 C4004 0.950 . S
H3982 C4005 0.950 . S
H3983 C4007 0.950 . S
H3984 C4008 0.950 . S
H3985 C4009 0.951 . S
H3986 C4011 0.951 . S
H3987 C4013 0.950 . S
H3988 C4014 0.950 . S
H3989 C4016 0.950 . S
H3990 C4019 0.950 . S
H3991 C4020 0.950 . S
H3992 C4022 0.950 . S
H3993 C4023 0.950 . S
C3994 H3976 0.951 . S
C3994 C3995 1.366 . S
C3994 C3996 1.388 . S
C3995 C3994 1.366 . S
C3995 C3999 1.385 . S
C3996 H3977 0.951 . S
C3996 C3994 1.388 . S
C3996 C3997 1.366 . S
C3997 C3996 1.366 . S
C3997 C3998 1.414 . S
C3997 C4000 1.499 . S
C3998 H3978 0.950 . S
C3998 C3997 1.414 . S
C3998 C3999 1.374 . S
C3999 H3979 0.950 . S
C3999 C3995 1.385 . S
C3999 C3998 1.374 . S
C4000 C3997 1.499 . S
C4000 C4001 1.373 . S
C4000 C4002 1.389 . S
C4001 H3980 0.950 . S
C4001 C4000 1.373 . S
C4001 C4017 1.377 . S
C4002 C4000 1.389 . S
C4002 C4003 1.524 . S
C4002 C4016 1.377 . S
C4003 C4002 1.524 . S
C4003 C4004 1.397 . S
C4003 C4008 1.363 . S
C4004 H3981 0.950 . S
C4004 C4003 1.397 . S
C4004 C4005 1.334 . S
C4005 H3982 0.950 . S
C4005 C4004 1.334 . S
C4005 C4006 1.287 . S
C4006 C4005 1.287 . S
C4006 C4007 1.524 . S
C4006 H4025 0.913 . S
C4007 H3983 0.950 . S
C4007 C4006 1.524 . S
C4007 C4008 1.415 . S
C4008 H3984 0.950 . S
C4008 C4003 1.363 . S
C4008 C4007 1.415 . S
C4009 H3985 0.951 . S
C4009 C4010 1.366 . S
C4009 C4011 1.388 . S
C4010 C4009 1.366 . S
C4010 C4014 1.385 . S
C4011 H3986 0.951 . S
C4011 C4009 1.388 . S
C4011 C4012 1.366 . S
C4012 C4011 1.366 . S
C4012 C4013 1.414 . S
C4012 C4015 1.499 . S
C4013 H3987 0.950 . S
C4013 C4012 1.414 . S
C4013 C4014 1.374 . S
C4014 H3988 0.950 . S
C4014 C4010 1.385 . S
C4014 C4013 1.374 . S
C4015 C4012 1.499 . S
C4015 C4016 1.373 . S
C4015 C4017 1.389 . S
C4016 H3989 0.950 . S
C4016 C4002 1.377 . S
C4016 C4015 1.373 . S
C4017 C4001 1.377 . S
C4017 C4015 1.389 . S
C4017 C4018 1.524 . S
C4018 C4017 1.524 . S
C4018 C4019 1.397 . S
C4018 C4023 1.363 . S
C4019 H3990 0.950 . S
C4019 C4018 1.397 . S
C4019 C4020 1.334 . S
C4020 H3991 0.950 . S
C4020 C4019 1.334 . S
C4020 C4021 1.287 . S
C4021 C4020 1.287 . S
C4021 C4022 1.524 . S
C4021 H4024 0.999 . S
C4022 H3992 0.950 . S
C4022 C4021 1.524 . S
C4022 C4023 1.415 . S
C4023 H3993 0.950 . S
C4023 C4018 1.363 . S
C4023 C4022 1.415 . S
H4024 C4021 0.999 . S
H4025 C4006 0.913 . S
H4026 C4044 0.951 . S
H4027 C4046 0.951 . S
H4028 C4048 0.950 . S
H4029 C4049 0.950 . S
H4030 C4051 0.950 . S
H4031 C4054 0.950 . S
H4032 C4055 0.950 . S
H4033 C4057 0.950 . S
H4034 C4058 0.950 . S
H4035 C4059 0.951 . S
H4036 C4061 0.951 . S
H4037 C4063 0.950 . S
H4038 C4064 0.950 . S
H4039 C4066 0.950 . S
H4040 C4069 0.950 . S
H4041 C4070 0.950 . S
H4042 C4072 0.950 . S
H4043 C4073 0.950 . S
C4044 H4026 0.951 . S
C4044 C4045 1.366 . S
C4044 C4046 1.388 . S
C4045 C4044 1.366 . S
C4045 C4049 1.385 . S
C4046 H4027 0.951 . S
C4046 C4044 1.388 . S
C4046 C4047 1.366 . S
C4047 C4046 1.366 . S
C4047 C4048 1.414 . S
C4047 C4050 1.499 . S
C4048 H4028 0.950 . S
C4048 C4047 1.414 . S
C4048 C4049 1.374 . S
C4049 H4029 0.950 . S
C4049 C4045 1.385 . S
C4049 C4048 1.374 . S
C4050 C4047 1.499 . S
C4050 C4051 1.373 . S
C4050 C4052 1.389 . S
C4051 H4030 0.950 . S
C4051 C4050 1.373 . S
C4051 C4067 1.377 . S
C4052 C4050 1.389 . S
C4052 C4053 1.524 . S
C4052 C4066 1.377 . S
C4053 C4052 1.524 . S
C4053 C4054 1.397 . S
C4053 C4058 1.363 . S
C4054 H4031 0.950 . S
C4054 C4053 1.397 . S
C4054 C4055 1.334 . S
C4055 H4032 0.950 . S
C4055 C4054 1.334 . S
C4055 C4056 1.287 . S
C4056 C4055 1.287 . S
C4056 C4057 1.524 . S
C4056 H4075 0.913 . S
C4057 H4033 0.950 . S
C4057 C4056 1.524 . S
C4057 C4058 1.415 . S
C4058 H4034 0.950 . S
C4058 C4053 1.363 . S
C4058 C4057 1.415 . S
C4059 H4035 0.951 . S
C4059 C4060 1.366 . S
C4059 C4061 1.388 . S
C4060 C4059 1.366 . S
C4060 C4064 1.385 . S
C4061 H4036 0.951 . S
C4061 C4059 1.388 . S
C4061 C4062 1.366 . S
C4062 C4061 1.366 . S
C4062 C4063 1.414 . S
C4062 C4065 1.499 . S
C4063 H4037 0.950 . S
C4063 C4062 1.414 . S
C4063 C4064 1.374 . S
C4064 H4038 0.950 . S
C4064 C4060 1.385 . S
C4064 C4063 1.374 . S
C4065 C4062 1.499 . S
C4065 C4066 1.373 . S
C4065 C4067 1.389 . S
C4066 H4039 0.950 . S
C4066 C4052 1.377 . S
C4066 C4065 1.373 . S
C4067 C4051 1.377 . S
C4067 C4065 1.389 . S
C4067 C4068 1.524 . S
C4068 C4067 1.524 . S
C4068 C4069 1.397 . S
C4068 C4073 1.363 . S
C4069 H4040 0.950 . S
C4069 C4068 1.397 . S
C4069 C4070 1.334 . S
C4070 H4041 0.950 . S
C4070 C4069 1.334 . S
C4070 C4071 1.287 . S
C4071 C4070 1.287 . S
C4071 C4072 1.524 . S
C4071 H4074 0.999 . S
C4072 H4042 0.950 . S
C4072 C4071 1.524 . S
C4072 C4073 1.415 . S
C4073 H4043 0.950 . S
C4073 C4068 1.363 . S
C4073 C4072 1.415 . S
H4074 C4071 0.999 . S
H4075 C4056 0.913 . S
H4076 C4094 0.951 . S
H4077 C4096 0.951 . S
H4078 C4098 0.950 . S
H4079 C4099 0.950 . S
H4080 C4101 0.950 . S
H4081 C4104 0.950 . S
H4082 C4105 0.950 . S
H4083 C4107 0.950 . S
H4084 C4108 0.950 . S
H4085 C4109 0.951 . S
H4086 C4111 0.951 . S
H4087 C4113 0.950 . S
H4088 C4114 0.950 . S
H4089 C4116 0.950 . S
H4090 C4119 0.950 . S
H4091 C4120 0.950 . S
H4092 C4122 0.950 . S
H4093 C4123 0.950 . S
C4094 H4076 0.951 . S
C4094 C4095 1.366 . S
C4094 C4096 1.388 . S
C4095 C4094 1.366 . S
C4095 C4099 1.385 . S
C4096 H4077 0.951 . S
C4096 C4094 1.388 . S
C4096 C4097 1.366 . S
C4097 C4096 1.366 . S
C4097 C4098 1.414 . S
C4097 C4100 1.499 . S
C4098 H4078 0.950 . S
C4098 C4097 1.414 . S
C4098 C4099 1.374 . S
C4099 H4079 0.950 . S
C4099 C4095 1.385 . S
C4099 C4098 1.374 . S
C4100 C4097 1.499 . S
C4100 C4101 1.373 . S
C4100 C4102 1.389 . S
C4101 H4080 0.950 . S
C4101 C4100 1.373 . S
C4101 C4117 1.377 . S
C4102 C4100 1.389 . S
C4102 C4103 1.524 . S
C4102 C4116 1.377 . S
C4103 C4102 1.524 . S
C4103 C4104 1.397 . S
C4103 C4108 1.363 . S
C4104 H4081 0.950 . S
C4104 C4103 1.397 . S
C4104 C4105 1.334 . S
C4105 H4082 0.950 . S
C4105 C4104 1.334 . S
C4105 C4106 1.287 . S
C4106 C4105 1.287 . S
C4106 C4107 1.524 . S
C4106 H4125 0.913 . S
C4107 H4083 0.950 . S
C4107 C4106 1.524 . S
C4107 C4108 1.415 . S
C4108 H4084 0.950 . S
C4108 C4103 1.363 . S
C4108 C4107 1.415 . S
C4109 H4085 0.951 . S
C4109 C4110 1.366 . S
C4109 C4111 1.388 . S
C4110 C4109 1.366 . S
C4110 C4114 1.385 . S
C4111 H4086 0.951 . S
C4111 C4109 1.388 . S
C4111 C4112 1.366 . S
C4112 C4111 1.366 . S
C4112 C4113 1.414 . S
C4112 C4115 1.499 . S
C4113 H4087 0.950 . S
C4113 C4112 1.414 . S
C4113 C4114 1.374 . S
C4114 H4088 0.950 . S
C4114 C4110 1.385 . S
C4114 C4113 1.374 . S
C4115 C4112 1.499 . S
C4115 C4116 1.373 . S
C4115 C4117 1.389 . S
C4116 H4089 0.950 . S
C4116 C4102 1.377 . S
C4116 C4115 1.373 . S
C4117 C4101 1.377 . S
C4117 C4115 1.389 . S
C4117 C4118 1.524 . S
C4118 C4117 1.524 . S
C4118 C4119 1.397 . S
C4118 C4123 1.363 . S
C4119 H4090 0.950 . S
C4119 C4118 1.397 . S
C4119 C4120 1.334 . S
C4120 H4091 0.950 . S
C4120 C4119 1.334 . S
C4120 C4121 1.287 . S
C4121 C4120 1.287 . S
C4121 C4122 1.524 . S
C4121 H4124 0.999 . S
C4122 H4092 0.950 . S
C4122 C4121 1.524 . S
C4122 C4123 1.415 . S
C4123 H4093 0.950 . S
C4123 C4118 1.363 . S
C4123 C4122 1.415 . S
H4124 C4121 0.999 . S
H4125 C4106 0.913 . S
H4126 C4144 0.951 . S
H4127 C4146 0.951 . S
H4128 C4148 0.950 . S
H4129 C4149 0.950 . S
H4130 C4151 0.950 . S
H4131 C4154 0.950 . S
H4132 C4155 0.950 . S
H4133 C4157 0.950 . S
H4134 C4158 0.950 . S
H4135 C4159 0.951 . S
H4136 C4161 0.951 . S
H4137 C4163 0.950 . S
H4138 C4164 0.950 . S
H4139 C4166 0.950 . S
H4140 C4169 0.950 . S
H4141 C4170 0.950 . S
H4142 C4172 0.950 . S
H4143 C4173 0.950 . S
C4144 H4126 0.951 . S
C4144 C4145 1.366 . S
C4144 C4146 1.388 . S
C4145 C4144 1.366 . S
C4145 C4149 1.385 . S
C4146 H4127 0.951 . S
C4146 C4144 1.388 . S
C4146 C4147 1.366 . S
C4147 C4146 1.366 . S
C4147 C4148 1.414 . S
C4147 C4150 1.499 . S
C4148 H4128 0.950 . S
C4148 C4147 1.414 . S
C4148 C4149 1.374 . S
C4149 H4129 0.950 . S
C4149 C4145 1.385 . S
C4149 C4148 1.374 . S
C4150 C4147 1.499 . S
C4150 C4151 1.373 . S
C4150 C4152 1.389 . S
C4151 H4130 0.950 . S
C4151 C4150 1.373 . S
C4151 C4167 1.377 . S
C4152 C4150 1.389 . S
C4152 C4153 1.524 . S
C4152 C4166 1.377 . S
C4153 C4152 1.524 . S
C4153 C4154 1.397 . S
C4153 C4158 1.363 . S
C4154 H4131 0.950 . S
C4154 C4153 1.397 . S
C4154 C4155 1.334 . S
C4155 H4132 0.950 . S
C4155 C4154 1.334 . S
C4155 C4156 1.287 . S
C4156 C4155 1.287 . S
C4156 C4157 1.524 . S
C4156 H4175 0.913 . S
C4157 H4133 0.950 . S
C4157 C4156 1.524 . S
C4157 C4158 1.415 . S
C4158 H4134 0.950 . S
C4158 C4153 1.363 . S
C4158 C4157 1.415 . S
C4159 H4135 0.951 . S
C4159 C4160 1.366 . S
C4159 C4161 1.388 . S
C4160 C4159 1.366 . S
C4160 C4164 1.385 . S
C4161 H4136 0.951 . S
C4161 C4159 1.388 . S
C4161 C4162 1.366 . S
C4162 C4161 1.366 . S
C4162 C4163 1.414 . S
C4162 C4165 1.499 . S
C4163 H4137 0.950 . S
C4163 C4162 1.414 . S
C4163 C4164 1.374 . S
C4164 H4138 0.950 . S
C4164 C4160 1.385 . S
C4164 C4163 1.374 . S
C4165 C4162 1.499 . S
C4165 C4166 1.373 . S
C4165 C4167 1.389 . S
C4166 H4139 0.950 . S
C4166 C4152 1.377 . S
C4166 C4165 1.373 . S
C4167 C4151 1.377 . S
C4167 C4165 1.389 . S
C4167 C4168 1.524 . S
C4168 C4167 1.524 . S
C4168 C4169 1.397 . S
C4168 C4173 1.363 . S
C4169 H4140 0.950 . S
C4169 C4168 1.397 . S
C4169 C4170 1.334 . S
C4170 H4141 0.950 . S
C4170 C4169 1.334 . S
C4170 C4171 1.287 . S
C4171 C4170 1.287 . S
C4171 C4172 1.524 . S
C4171 H4174 0.999 . S
C4172 H4142 0.950 . S
C4172 C4171 1.524 . S
C4172 C4173 1.415 . S
C4173 H4143 0.950 . S
C4173 C4168 1.363 . S
C4173 C4172 1.415 . S
H4174 C4171 0.999 . S
H4175 C4156 0.913 . S
H4176 C4194 0.951 . S
H4177 C4196 0.951 . S
H4178 C4198 0.950 . S
H4179 C4199 0.950 . S
H4180 C4201 0.950 . S
H4181 C4204 0.950 . S
H4182 C4205 0.950 . S
H4183 C4207 0.950 . S
H4184 C4208 0.950 . S
H4185 C4209 0.951 . S
H4186 C4211 0.951 . S
H4187 C4213 0.950 . S
H4188 C4214 0.950 . S
H4189 C4216 0.950 . S
H4190 C4219 0.950 . S
H4191 C4220 0.950 . S
H4192 C4222 0.950 . S
H4193 C4223 0.950 . S
C4194 H4176 0.951 . S
C4194 C4195 1.366 . S
C4194 C4196 1.388 . S
C4195 C4194 1.366 . S
C4195 C4199 1.385 . S
C4196 H4177 0.951 . S
C4196 C4194 1.388 . S
C4196 C4197 1.366 . S
C4197 C4196 1.366 . S
C4197 C4198 1.414 . S
C4197 C4200 1.499 . S
C4198 H4178 0.950 . S
C4198 C4197 1.414 . S
C4198 C4199 1.374 . S
C4199 H4179 0.950 . S
C4199 C4195 1.385 . S
C4199 C4198 1.374 . S
C4200 C4197 1.499 . S
C4200 C4201 1.373 . S
C4200 C4202 1.389 . S
C4201 H4180 0.950 . S
C4201 C4200 1.373 . S
C4201 C4217 1.377 . S
C4202 C4200 1.389 . S
C4202 C4203 1.524 . S
C4202 C4216 1.377 . S
C4203 C4202 1.524 . S
C4203 C4204 1.397 . S
C4203 C4208 1.363 . S
C4204 H4181 0.950 . S
C4204 C4203 1.397 . S
C4204 C4205 1.334 . S
C4205 H4182 0.950 . S
C4205 C4204 1.334 . S
C4205 C4206 1.287 . S
C4206 C4205 1.287 . S
C4206 C4207 1.524 . S
C4206 H4225 0.913 . S
C4207 H4183 0.950 . S
C4207 C4206 1.524 . S
C4207 C4208 1.415 . S
C4208 H4184 0.950 . S
C4208 C4203 1.363 . S
C4208 C4207 1.415 . S
C4209 H4185 0.951 . S
C4209 C4210 1.366 . S
C4209 C4211 1.388 . S
C4210 C4209 1.366 . S
C4210 C4214 1.385 . S
C4211 H4186 0.951 . S
C4211 C4209 1.388 . S
C4211 C4212 1.366 . S
C4212 C4211 1.366 . S
C4212 C4213 1.414 . S
C4212 C4215 1.499 . S
C4213 H4187 0.950 . S
C4213 C4212 1.414 . S
C4213 C4214 1.374 . S
C4214 H4188 0.950 . S
C4214 C4210 1.385 . S
C4214 C4213 1.374 . S
C4215 C4212 1.499 . S
C4215 C4216 1.373 . S
C4215 C4217 1.389 . S
C4216 H4189 0.950 . S
C4216 C4202 1.377 . S
C4216 C4215 1.373 . S
C4217 C4201 1.377 . S
C4217 C4215 1.389 . S
C4217 C4218 1.524 . S
C4218 C4217 1.524 . S
C4218 C4219 1.397 . S
C4218 C4223 1.363 . S
C4219 H4190 0.950 . S
C4219 C4218 1.397 . S
C4219 C4220 1.334 . S
C4220 H4191 0.950 . S
C4220 C4219 1.334 . S
C4220 C4221 1.287 . S
C4221 C4220 1.287 . S
C4221 C4222 1.524 . S
C4221 H4224 0.999 . S
C4222 H4192 0.950 . S
C4222 C4221 1.524 . S
C4222 C4223 1.415 . S
C4223 H4193 0.950 . S
C4223 C4218 1.363 . S
C4223 C4222 1.415 . S
H4224 C4221 0.999 . S
H4225 C4206 0.913 . S
H4226 C4244 0.951 . S
H4227 C4246 0.951 . S
H4228 C4248 0.950 . S
H4229 C4249 0.950 . S
H4230 C4251 0.950 . S
H4231 C4254 0.950 . S
H4232 C4255 0.950 . S
H4233 C4257 0.950 . S
H4234 C4258 0.950 . S
H4235 C4259 0.951 . S
H4236 C4261 0.951 . S
H4237 C4263 0.950 . S
H4238 C4264 0.950 . S
H4239 C4266 0.950 . S
H4240 C4269 0.950 . S
H4241 C4270 0.950 . S
H4242 C4272 0.950 . S
H4243 C4273 0.950 . S
C4244 H4226 0.951 . S
C4244 C4245 1.366 . S
C4244 C4246 1.388 . S
C4245 C4244 1.366 . S
C4245 C4249 1.385 . S
C4246 H4227 0.951 . S
C4246 C4244 1.388 . S
C4246 C4247 1.366 . S
C4247 C4246 1.366 . S
C4247 C4248 1.414 . S
C4247 C4250 1.499 . S
C4248 H4228 0.950 . S
C4248 C4247 1.414 . S
C4248 C4249 1.374 . S
C4249 H4229 0.950 . S
C4249 C4245 1.385 . S
C4249 C4248 1.374 . S
C4250 C4247 1.499 . S
C4250 C4251 1.373 . S
C4250 C4252 1.389 . S
C4251 H4230 0.950 . S
C4251 C4250 1.373 . S
C4251 C4267 1.377 . S
C4252 C4250 1.389 . S
C4252 C4253 1.524 . S
C4252 C4266 1.377 . S
C4253 C4252 1.524 . S
C4253 C4254 1.397 . S
C4253 C4258 1.363 . S
C4254 H4231 0.950 . S
C4254 C4253 1.397 . S
C4254 C4255 1.334 . S
C4255 H4232 0.950 . S
C4255 C4254 1.334 . S
C4255 C4256 1.287 . S
C4256 C4255 1.287 . S
C4256 C4257 1.524 . S
C4256 H4275 0.913 . S
C4257 H4233 0.950 . S
C4257 C4256 1.524 . S
C4257 C4258 1.415 . S
C4258 H4234 0.950 . S
C4258 C4253 1.363 . S
C4258 C4257 1.415 . S
C4259 H4235 0.951 . S
C4259 C4260 1.366 . S
C4259 C4261 1.388 . S
C4260 C4259 1.366 . S
C4260 C4264 1.385 . S
C4261 H4236 0.951 . S
C4261 C4259 1.388 . S
C4261 C4262 1.366 . S
C4262 C4261 1.366 . S
C4262 C4263 1.414 . S
C4262 C4265 1.499 . S
C4263 H4237 0.950 . S
C4263 C4262 1.414 . S
C4263 C4264 1.374 . S
C4264 H4238 0.950 . S
C4264 C4260 1.385 . S
C4264 C4263 1.374 . S
C4265 C4262 1.499 . S
C4265 C4266 1.373 . S
C4265 C4267 1.389 . S
C4266 H4239 0.950 . S
C4266 C4252 1.377 . S
C4266 C4265 1.373 . S
C4267 C4251 1.377 . S
C4267 C4265 1.389 . S
C4267 C4268 1.524 . S
C4268 C4267 1.524 . S
C4268 C4269 1.397 . S
C4268 C4273 1.363 . S
C4269 H4240 0.950 . S
C4269 C4268 1.397 . S
C4269 C4270 1.334 . S
C4270 H4241 0.950 . S
C4270 C4269 1.334 . S
C4270 C4271 1.287 . S
C4271 C4270 1.287 . S
C4271 C4272 1.524 . S
C4271 H4274 0.999 . S
C4272 H4242 0.950 . S
C4272 C4271 1.524 . S
C4272 C4273 1.415 . S
C4273 H4243 0.950 . S
C4273 C4268 1.363 . S
C4273 C4272 1.415 . S
H4274 C4271 0.999 . S
H4275 C4256 0.913 . S
H4276 C4294 0.951 . S
H4277 C4296 0.951 . S
H4278 C4298 0.950 . S
H4279 C4299 0.950 . S
H4280 C4301 0.950 . S
H4281 C4304 0.950 . S
H4282 C4305 0.950 . S
H4283 C4307 0.950 . S
H4284 C4308 0.950 . S
H4285 C4309 0.951 . S
H4286 C4311 0.951 . S
H4287 C4313 0.950 . S
H4288 C4314 0.950 . S
H4289 C4316 0.950 . S
H4290 C4319 0.950 . S
H4291 C4320 0.950 . S
H4292 C4322 0.950 . S
H4293 C4323 0.950 . S
C4294 H4276 0.951 . S
C4294 C4295 1.366 . S
C4294 C4296 1.388 . S
C4295 C4294 1.366 . S
C4295 C4299 1.385 . S
C4296 H4277 0.951 . S
C4296 C4294 1.388 . S
C4296 C4297 1.366 . S
C4297 C4296 1.366 . S
C4297 C4298 1.414 . S
C4297 C4300 1.499 . S
C4298 H4278 0.950 . S
C4298 C4297 1.414 . S
C4298 C4299 1.374 . S
C4299 H4279 0.950 . S
C4299 C4295 1.385 . S
C4299 C4298 1.374 . S
C4300 C4297 1.499 . S
C4300 C4301 1.373 . S
C4300 C4302 1.389 . S
C4301 H4280 0.950 . S
C4301 C4300 1.373 . S
C4301 C4317 1.377 . S
C4302 C4300 1.389 . S
C4302 C4303 1.524 . S
C4302 C4316 1.377 . S
C4303 C4302 1.524 . S
C4303 C4304 1.397 . S
C4303 C4308 1.363 . S
C4304 H4281 0.950 . S
C4304 C4303 1.397 . S
C4304 C4305 1.334 . S
C4305 H4282 0.950 . S
C4305 C4304 1.334 . S
C4305 C4306 1.287 . S
C4306 C4305 1.287 . S
C4306 C4307 1.524 . S
C4306 H4325 0.913 . S
C4307 H4283 0.950 . S
C4307 C4306 1.524 . S
C4307 C4308 1.415 . S
C4308 H4284 0.950 . S
C4308 C4303 1.363 . S
C4308 C4307 1.415 . S
C4309 H4285 0.951 . S
C4309 C4310 1.366 . S
C4309 C4311 1.388 . S
C4310 C4309 1.366 . S
C4310 C4314 1.385 . S
C4311 H4286 0.951 . S
C4311 C4309 1.388 . S
C4311 C4312 1.366 . S
C4312 C4311 1.366 . S
C4312 C4313 1.414 . S
C4312 C4315 1.499 . S
C4313 H4287 0.950 . S
C4313 C4312 1.414 . S
C4313 C4314 1.374 . S
C4314 H4288 0.950 . S
C4314 C4310 1.385 . S
C4314 C4313 1.374 . S
C4315 C4312 1.499 . S
C4315 C4316 1.373 . S
C4315 C4317 1.389 . S
C4316 H4289 0.950 . S
C4316 C4302 1.377 . S
C4316 C4315 1.373 . S
C4317 C4301 1.377 . S
C4317 C4315 1.389 . S
C4317 C4318 1.524 . S
C4318 C4317 1.524 . S
C4318 C4319 1.397 . S
C4318 C4323 1.363 . S
C4319 H4290 0.950 . S
C4319 C4318 1.397 . S
C4319 C4320 1.334 . S
C4320 H4291 0.950 . S
C4320 C4319 1.334 . S
C4320 C4321 1.287 . S
C4321 C4320 1.287 . S
C4321 C4322 1.524 . S
C4321 H4324 0.999 . S
C4322 H4292 0.950 . S
C4322 C4321 1.524 . S
C4322 C4323 1.415 . S
C4323 H4293 0.950 . S
C4323 C4318 1.363 . S
C4323 C4322 1.415 . S
H4324 C4321 0.999 . S
H4325 C4306 0.913 . S
H4326 C4344 0.951 . S
H4327 C4346 0.951 . S
H4328 C4348 0.950 . S
H4329 C4349 0.950 . S
H4330 C4351 0.950 . S
H4331 C4354 0.950 . S
H4332 C4355 0.951 . S
H4333 C4357 0.950 . S
H4334 C4358 0.950 . S
H4335 C4359 0.951 . S
H4336 C4361 0.951 . S
H4337 C4363 0.950 . S
H4338 C4364 0.950 . S
H4339 C4366 0.950 . S
H4340 C4369 0.950 . S
H4341 C4370 0.950 . S
H4342 C4372 0.950 . S
H4343 C4373 0.950 . S
C4344 H4326 0.951 . S
C4344 C4345 1.366 . S
C4344 C4346 1.388 . S
C4345 C4344 1.366 . S
C4345 C4349 1.385 . S
C4346 H4327 0.951 . S
C4346 C4344 1.388 . S
C4346 C4347 1.366 . S
C4347 C4346 1.366 . S
C4347 C4348 1.414 . S
C4347 C4350 1.499 . S
C4348 H4328 0.950 . S
C4348 C4347 1.414 . S
C4348 C4349 1.374 . S
C4349 H4329 0.950 . S
C4349 C4345 1.385 . S
C4349 C4348 1.374 . S
C4350 C4347 1.499 . S
C4350 C4351 1.373 . S
C4350 C4352 1.389 . S
C4351 H4330 0.950 . S
C4351 C4350 1.373 . S
C4351 C4367 1.377 . S
C4352 C4350 1.389 . S
C4352 C4353 1.524 . S
C4352 C4366 1.377 . S
C4353 C4352 1.524 . S
C4353 C4354 1.397 . S
C4353 C4358 1.363 . S
C4354 H4331 0.950 . S
C4354 C4353 1.397 . S
C4354 C4355 1.333 1_554 S
C4355 H4332 0.951 . S
C4355 C4354 1.333 1_556 S
C4355 C4356 1.287 1_556 S
C4356 C4355 1.287 1_554 S
C4356 C4357 1.524 . S
C4356 H4375 0.913 1_554 S
C4357 H4333 0.950 . S
C4357 C4356 1.524 . S
C4357 C4358 1.415 . S
C4358 H4334 0.950 . S
C4358 C4353 1.363 . S
C4358 C4357 1.415 . S
C4359 H4335 0.951 . S
C4359 C4360 1.366 . S
C4359 C4361 1.388 . S
C4360 C4359 1.366 . S
C4360 C4364 1.385 1_565 S
C4361 H4336 0.951 . S
C4361 C4359 1.388 . S
C4361 C4362 1.366 . S
C4362 C4361 1.366 . S
C4362 C4363 1.414 . S
C4362 C4365 1.499 . S
C4363 H4337 0.950 . S
C4363 C4362 1.414 . S
C4363 C4364 1.374 1_565 S
C4364 H4338 0.950 . S
C4364 C4360 1.385 1_545 S
C4364 C4363 1.374 1_545 S
C4365 C4362 1.499 . S
C4365 C4366 1.373 . S
C4365 C4367 1.389 . S
C4366 H4339 0.950 . S
C4366 C4352 1.377 . S
C4366 C4365 1.373 . S
C4367 C4351 1.377 . S
C4367 C4365 1.389 . S
C4367 C4368 1.524 . S
C4368 C4367 1.524 . S
C4368 C4369 1.397 . S
C4368 C4373 1.363 . S
C4369 H4340 0.950 . S
C4369 C4368 1.397 . S
C4369 C4370 1.334 . S
C4370 H4341 0.950 . S
C4370 C4369 1.334 . S
C4370 C4371 1.287 . S
C4371 C4370 1.287 . S
C4371 C4372 1.524 . S
C4371 H4374 0.999 . S
C4372 H4342 0.950 . S
C4372 C4371 1.524 . S
C4372 C4373 1.415 . S
C4373 H4343 0.950 . S
C4373 C4368 1.363 . S
C4373 C4372 1.415 . S
H4374 C4371 0.999 . S
H4375 C4356 0.913 1_556 S
H4376 C4394 0.951 . S
H4377 C4396 0.951 . S
H4378 C4398 0.950 . S
H4379 C4399 0.950 . S
H4380 C4401 0.950 . S
H4381 C4404 0.950 . S
H4382 C4405 0.950 . S
H4383 C4407 0.950 . S
H4384 C4408 0.950 . S
H4385 C4409 0.951 . S
H4386 C4411 0.951 . S
H4387 C4413 0.950 . S
H4388 C4414 0.950 . S
H4389 C4416 0.950 . S
H4390 C4419 0.950 . S
H4391 C4420 0.950 . S
H4392 C4422 0.950 . S
H4393 C4423 0.950 . S
C4394 H4376 0.951 . S
C4394 C4395 1.366 . S
C4394 C4396 1.388 . S
C4395 C4394 1.366 . S
C4395 C4399 1.385 . S
C4396 H4377 0.951 . S
C4396 C4394 1.388 . S
C4396 C4397 1.366 . S
C4397 C4396 1.366 . S
C4397 C4398 1.414 . S
C4397 C4400 1.499 . S
C4398 H4378 0.950 . S
C4398 C4397 1.414 . S
C4398 C4399 1.374 . S
C4399 H4379 0.950 . S
C4399 C4395 1.385 . S
C4399 C4398 1.374 . S
C4400 C4397 1.499 . S
C4400 C4401 1.373 . S
C4400 C4402 1.389 . S
C4401 H4380 0.950 . S
C4401 C4400 1.373 . S
C4401 C4417 1.377 . S
C4402 C4400 1.389 . S
C4402 C4403 1.524 . S
C4402 C4416 1.377 . S
C4403 C4402 1.524 . S
C4403 C4404 1.397 . S
C4403 C4408 1.363 . S
C4404 H4381 0.950 . S
C4404 C4403 1.397 . S
C4404 C4405 1.334 . S
C4405 H4382 0.950 . S
C4405 C4404 1.334 . S
C4405 C4406 1.287 . S
C4406 C4405 1.287 . S
C4406 C4407 1.524 . S
C4406 H4425 0.913 . S
C4407 H4383 0.950 . S
C4407 C4406 1.524 . S
C4407 C4408 1.415 . S
C4408 H4384 0.950 . S
C4408 C4403 1.363 . S
C4408 C4407 1.415 . S
C4409 H4385 0.951 . S
C4409 C4410 1.366 . S
C4409 C4411 1.388 . S
C4410 C4409 1.366 . S
C4410 C4414 1.385 . S
C4411 H4386 0.951 . S
C4411 C4409 1.388 . S
C4411 C4412 1.366 . S
C4412 C4411 1.366 . S
C4412 C4413 1.414 . S
C4412 C4415 1.499 . S
C4413 H4387 0.950 . S
C4413 C4412 1.414 . S
C4413 C4414 1.374 . S
C4414 H4388 0.950 . S
C4414 C4410 1.385 . S
C4414 C4413 1.374 . S
C4415 C4412 1.499 . S
C4415 C4416 1.373 . S
C4415 C4417 1.389 . S
C4416 H4389 0.950 . S
C4416 C4402 1.377 . S
C4416 C4415 1.373 . S
C4417 C4401 1.377 . S
C4417 C4415 1.389 . S
C4417 C4418 1.524 . S
C4418 C4417 1.524 . S
C4418 C4419 1.397 . S
C4418 C4423 1.363 . S
C4419 H4390 0.950 . S
C4419 C4418 1.397 . S
C4419 C4420 1.334 . S
C4420 H4391 0.950 . S
C4420 C4419 1.334 . S
C4420 C4421 1.287 . S
C4421 C4420 1.287 . S
C4421 C4422 1.524 . S
C4421 H4424 0.999 . S
C4422 H4392 0.950 . S
C4422 C4421 1.524 . S
C4422 C4423 1.415 . S
C4423 H4393 0.950 . S
C4423 C4418 1.363 . S
C4423 C4422 1.415 . S
H4424 C4421 0.999 . S
H4425 C4406 0.913 . S
H4426 C4444 0.951 . S
H4427 C4446 0.951 . S
H4428 C4448 0.950 . S
H4429 C4449 0.950 . S
H4430 C4451 0.950 . S
H4431 C4454 0.950 . S
H4432 C4455 0.950 . S
H4433 C4457 0.950 . S
H4434 C4458 0.950 . S
H4435 C4459 0.951 . S
H4436 C4461 0.951 . S
H4437 C4463 0.950 . S
H4438 C4464 0.994 . S
H4439 C4466 0.950 . S
H4440 C4469 0.950 . S
H4441 C4470 0.950 . S
H4442 C4472 0.950 . S
H4443 C4473 0.950 . S
C4444 H4426 0.951 . S
C4444 C4445 1.366 . S
C4444 C4446 1.388 . S
C4445 C4444 1.366 . S
C4445 C4449 1.385 . S
C4446 H4427 0.951 . S
C4446 C4444 1.388 . S
C4446 C4447 1.366 . S
C4447 C4446 1.366 . S
C4447 C4448 1.414 . S
C4447 C4450 1.499 . S
C4448 H4428 0.950 . S
C4448 C4447 1.414 . S
C4448 C4449 1.374 . S
C4449 H4429 0.950 . S
C4449 C4445 1.385 . S
C4449 C4448 1.374 . S
C4450 C4447 1.499 . S
C4450 C4451 1.373 . S
C4450 C4452 1.389 . S
C4451 H4430 0.950 . S
C4451 C4450 1.373 . S
C4451 C4467 1.377 . S
C4452 C4450 1.389 . S
C4452 C4453 1.524 . S
C4452 C4466 1.377 . S
C4453 C4452 1.524 . S
C4453 C4454 1.397 . S
C4453 C4458 1.363 . S
C4454 H4431 0.950 . S
C4454 C4453 1.397 . S
C4454 C4455 1.334 1_554 S
C4455 H4432 0.950 . S
C4455 C4454 1.334 1_556 S
C4455 C4456 1.287 . S
C4456 C4455 1.287 . S
C4456 C4457 1.524 . S
C4456 H4475 0.913 . S
C4457 H4433 0.950 . S
C4457 C4456 1.524 . S
C4457 C4458 1.415 1_556 S
C4458 H4434 0.950 . S
C4458 C4453 1.363 . S
C4458 C4457 1.415 1_554 S
C4459 H4435 0.951 . S
C4459 C4460 1.366 . S
C4459 C4461 1.388 . S
C4460 C4459 1.366 . S
C4460 C4464 1.385 . S
C4461 H4436 0.951 . S
C4461 C4459 1.388 . S
C4461 C4462 1.366 . S
C4462 C4461 1.366 . S
C4462 C4463 1.414 . S
C4462 C4465 1.499 . S
C4463 H4437 0.950 . S
C4463 C4462 1.414 . S
C4463 C4464 1.374 . S
C4464 H4438 0.994 . S
C4464 C4460 1.385 . S
C4464 C4463 1.374 . S
C4465 C4462 1.499 . S
C4465 C4466 1.373 . S
C4465 C4467 1.389 . S
C4466 H4439 0.950 . S
C4466 C4452 1.377 . S
C4466 C4465 1.373 . S
C4467 C4451 1.377 . S
C4467 C4465 1.389 . S
C4467 C4468 1.524 . S
C4468 C4467 1.524 . S
C4468 C4469 1.397 . S
C4468 C4473 1.363 . S
C4469 H4440 0.950 . S
C4469 C4468 1.397 . S
C4469 C4470 1.334 . S
C4470 H4441 0.950 . S
C4470 C4469 1.334 . S
C4470 C4471 1.287 . S
C4471 C4470 1.287 . S
C4471 C4472 1.524 . S
C4471 H4474 0.999 . S
C4472 H4442 0.950 . S
C4472 C4471 1.524 . S
C4472 C4473 1.415 . S
C4473 H4443 0.950 . S
C4473 C4468 1.363 . S
C4473 C4472 1.415 . S
H4474 C4471 0.999 . S
H4475 C4456 0.913 . S
H4476 C4494 0.951 . S
H4477 C4496 0.951 . S
H4478 C4498 0.950 . S
H4479 C4499 0.950 . S
H4480 C4501 0.950 . S
H4481 C4504 0.950 . S
H4482 C4505 0.950 . S
H4483 C4507 0.950 . S
H4484 C4508 0.950 . S
H4485 C4509 0.951 . S
H4486 C4511 0.951 . S
H4487 C4513 0.950 . S
H4488 C4514 0.950 . S
H4489 C4516 0.950 . S
H4490 C4519 0.950 . S
H4491 C4520 0.950 . S
H4492 C4522 0.950 . S
H4493 C4523 0.950 . S
C4494 H4476 0.951 . S
C4494 C4495 1.366 . S
C4494 C4496 1.388 . S
C4495 C4494 1.366 . S
C4495 C4499 1.385 . S
C4496 H4477 0.951 . S
C4496 C4494 1.388 . S
C4496 C4497 1.366 . S
C4497 C4496 1.366 . S
C4497 C4498 1.414 . S
C4497 C4500 1.499 . S
C4498 H4478 0.950 . S
C4498 C4497 1.414 . S
C4498 C4499 1.374 . S
C4499 H4479 0.950 . S
C4499 C4495 1.385 . S
C4499 C4498 1.374 . S
C4500 C4497 1.499 . S
C4500 C4501 1.373 . S
C4500 C4502 1.389 . S
C4501 H4480 0.950 . S
C4501 C4500 1.373 . S
C4501 C4517 1.377 . S
C4502 C4500 1.389 . S
C4502 C4503 1.524 . S
C4502 C4516 1.377 . S
C4503 C4502 1.524 . S
C4503 C4504 1.397 . S
C4503 C4508 1.363 . S
C4504 H4481 0.950 . S
C4504 C4503 1.397 . S
C4504 C4505 1.334 . S
C4505 H4482 0.950 . S
C4505 C4504 1.334 . S
C4505 C4506 1.287 . S
C4506 C4505 1.287 . S
C4506 C4507 1.524 . S
C4506 H4525 0.913 . S
C4507 H4483 0.950 . S
C4507 C4506 1.524 . S
C4507 C4508 1.415 . S
C4508 H4484 0.950 . S
C4508 C4503 1.363 . S
C4508 C4507 1.415 . S
C4509 H4485 0.951 . S
C4509 C4510 1.366 . S
C4509 C4511 1.388 . S
C4510 C4509 1.366 . S
C4510 C4514 1.385 . S
C4511 H4486 0.951 . S
C4511 C4509 1.388 . S
C4511 C4512 1.366 . S
C4512 C4511 1.366 . S
C4512 C4513 1.414 . S
C4512 C4515 1.499 . S
C4513 H4487 0.950 . S
C4513 C4512 1.414 . S
C4513 C4514 1.374 . S
C4514 H4488 0.950 . S
C4514 C4510 1.385 . S
C4514 C4513 1.374 . S
C4515 C4512 1.499 . S
C4515 C4516 1.373 . S
C4515 C4517 1.389 . S
C4516 H4489 0.950 . S
C4516 C4502 1.377 . S
C4516 C4515 1.373 . S
C4517 C4501 1.377 . S
C4517 C4515 1.389 . S
C4517 C4518 1.524 . S
C4518 C4517 1.524 . S
C4518 C4519 1.397 . S
C4518 C4523 1.363 . S
C4519 H4490 0.950 . S
C4519 C4518 1.397 . S
C4519 C4520 1.334 . S
C4520 H4491 0.950 . S
C4520 C4519 1.334 . S
C4520 C4521 1.287 . S
C4521 C4520 1.287 . S
C4521 C4522 1.524 . S
C4521 H4524 0.999 . S
C4522 H4492 0.950 . S
C4522 C4521 1.524 . S
C4522 C4523 1.415 . S
C4523 H4493 0.950 . S
C4523 C4518 1.363 . S
C4523 C4522 1.415 . S
H4524 C4521 0.999 . S
H4525 C4506 0.913 . S
H4526 C4544 0.951 . S
H4527 C4546 0.955 . S
H4528 C4548 0.950 . S
H4529 C4549 0.940 . S
H4530 C4551 0.950 . S
H4531 C4554 0.950 . S
H4532 C4555 0.950 . S
H4533 C4557 0.992 . S
H4534 C4558 0.950 . S
H4535 C4559 0.951 . S
H4536 C4561 0.951 . S
H4537 C4563 0.950 . S
H4538 C4564 0.950 . S
H4539 C4566 0.950 . S
H4540 C4569 0.950 . S
H4541 C4570 0.950 . S
H4542 C4572 0.950 . S
H4543 C4573 0.950 . S
C4544 H4526 0.951 . S
C4544 C4545 1.366 . S
C4544 C4546 1.376 1_545 S
C4545 C4544 1.366 . S
C4545 C4549 1.430 . S
C4546 H4527 0.955 . S
C4546 C4544 1.376 1_565 S
C4546 C4547 1.382 . S
C4547 C4546 1.382 . S
C4547 C4548 1.414 . S
C4547 C4550 1.499 . S
C4548 H4528 0.950 . S
C4548 C4547 1.414 . S
C4548 C4549 1.340 1_565 S
C4549 H4529 0.940 . S
C4549 C4545 1.430 . S
C4549 C4548 1.340 1_545 S
C4550 C4547 1.499 . S
C4550 C4551 1.373 . S
C4550 C4552 1.389 . S
C4551 H4530 0.950 . S
C4551 C4550 1.373 . S
C4551 C4567 1.377 . S
C4552 C4550 1.389 . S
C4552 C4553 1.524 . S
C4552 C4566 1.377 . S
C4553 C4552 1.524 . S
C4553 C4554 1.397 . S
C4553 C4558 1.363 . S
C4554 H4531 0.950 . S
C4554 C4553 1.397 . S
C4554 C4555 1.334 1_565 S
C4555 H4532 0.950 . S
C4555 C4554 1.334 1_545 S
C4555 C4556 1.287 . S
C4556 C4555 1.287 . S
C4556 C4557 1.537 . S
C4556 H4575 0.913 . S
C4557 H4533 0.992 . S
C4557 C4556 1.537 . S
C4557 C4558 1.358 1_545 S
C4558 H4534 0.950 . S
C4558 C4553 1.363 . S
C4558 C4557 1.358 1_565 S
C4559 H4535 0.951 . S
C4559 C4560 1.366 . S
C4559 C4561 1.388 . S
C4560 C4559 1.366 . S
C4560 C4564 1.385 . S
C4561 H4536 0.951 . S
C4561 C4559 1.388 . S
C4561 C4562 1.366 . S
C4562 C4561 1.366 . S
C4562 C4563 1.414 . S
C4562 C4565 1.499 . S
C4563 H4537 0.950 . S
C4563 C4562 1.414 . S
C4563 C4564 1.374 . S
C4564 H4538 0.950 . S
C4564 C4560 1.385 . S
C4564 C4563 1.374 . S
C4565 C4562 1.499 . S
C4565 C4566 1.373 . S
C4565 C4567 1.389 . S
C4566 H4539 0.950 . S
C4566 C4552 1.377 . S
C4566 C4565 1.373 . S
C4567 C4551 1.377 . S
C4567 C4565 1.389 . S
C4567 C4568 1.524 . S
C4568 C4567 1.524 . S
C4568 C4569 1.397 . S
C4568 C4573 1.363 . S
C4569 H4540 0.950 . S
C4569 C4568 1.397 . S
C4569 C4570 1.334 . S
C4570 H4541 0.950 . S
C4570 C4569 1.334 . S
C4570 C4571 1.287 . S
C4571 C4570 1.287 . S
C4571 C4572 1.524 . S
C4571 H4574 0.999 . S
C4572 H4542 0.950 . S
C4572 C4571 1.524 . S
C4572 C4573 1.415 . S
C4573 H4543 0.950 . S
C4573 C4568 1.363 . S
C4573 C4572 1.415 . S
H4574 C4571 0.999 . S
H4575 C4556 0.913 . S
H4576 C4594 0.951 . S
H4577 C4596 0.951 . S
H4578 C4598 0.950 . S
H4579 C4599 0.950 . S
H4580 C4601 0.950 . S
H4581 C4604 0.950 . S
H4582 C4605 0.950 . S
H4583 C4607 0.950 . S
H4584 C4608 0.950 . S
H4585 C4609 0.951 . S
H4586 C4611 0.951 . S
H4587 C4613 0.950 . S
H4588 C4614 0.950 . S
H4589 C4616 0.950 . S
H4590 C4619 0.950 . S
H4591 C4620 0.950 . S
H4592 C4622 0.950 . S
H4593 C4623 0.950 . S
C4594 H4576 0.951 . S
C4594 C4595 1.366 . S
C4594 C4596 1.388 . S
C4595 C4594 1.366 . S
C4595 C4599 1.385 . S
C4596 H4577 0.951 . S
C4596 C4594 1.388 . S
C4596 C4597 1.366 . S
C4597 C4596 1.366 . S
C4597 C4598 1.414 . S
C4597 C4600 1.499 . S
C4598 H4578 0.950 . S
C4598 C4597 1.414 . S
C4598 C4599 1.374 . S
C4599 H4579 0.950 . S
C4599 C4595 1.385 . S
C4599 C4598 1.374 . S
C4600 C4597 1.499 . S
C4600 C4601 1.373 . S
C4600 C4602 1.389 . S
C4601 H4580 0.950 . S
C4601 C4600 1.373 . S
C4601 C4617 1.377 . S
C4602 C4600 1.389 . S
C4602 C4603 1.524 . S
C4602 C4616 1.377 . S
C4603 C4602 1.524 . S
C4603 C4604 1.397 . S
C4603 C4608 1.363 . S
C4604 H4581 0.950 . S
C4604 C4603 1.397 . S
C4604 C4605 1.334 . S
C4605 H4582 0.950 . S
C4605 C4604 1.334 . S
C4605 C4606 1.287 . S
C4606 C4605 1.287 . S
C4606 C4607 1.524 . S
C4606 H4625 0.913 . S
C4607 H4583 0.950 . S
C4607 C4606 1.524 . S
C4607 C4608 1.415 . S
C4608 H4584 0.950 . S
C4608 C4603 1.363 . S
C4608 C4607 1.415 . S
C4609 H4585 0.951 . S
C4609 C4610 1.366 . S
C4609 C4611 1.388 . S
C4610 C4609 1.366 . S
C4610 C4614 1.385 . S
C4611 H4586 0.951 . S
C4611 C4609 1.388 . S
C4611 C4612 1.366 . S
C4612 C4611 1.366 . S
C4612 C4613 1.414 . S
C4612 C4615 1.499 . S
C4613 H4587 0.950 . S
C4613 C4612 1.414 . S
C4613 C4614 1.374 . S
C4614 H4588 0.950 . S
C4614 C4610 1.385 . S
C4614 C4613 1.374 . S
C4615 C4612 1.499 . S
C4615 C4616 1.373 . S
C4615 C4617 1.389 . S
C4616 H4589 0.950 . S
C4616 C4602 1.377 . S
C4616 C4615 1.373 . S
C4617 C4601 1.377 . S
C4617 C4615 1.389 . S
C4617 C4618 1.524 . S
C4618 C4617 1.524 . S
C4618 C4619 1.397 . S
C4618 C4623 1.363 . S
C4619 H4590 0.950 . S
C4619 C4618 1.397 . S
C4619 C4620 1.334 . S
C4620 H4591 0.950 . S
C4620 C4619 1.334 . S
C4620 C4621 1.287 . S
C4621 C4620 1.287 . S
C4621 C4622 1.524 . S
C4621 H4624 0.999 . S
C4622 H4592 0.950 . S
C4622 C4621 1.524 . S
C4622 C4623 1.415 . S
C4623 H4593 0.950 . S
C4623 C4618 1.363 . S
C4623 C4622 1.415 . S
H4624 C4621 0.999 . S
H4625 C4606 0.913 . S
H4626 C4644 0.951 . S
H4627 C4646 0.951 . S
H4628 C4648 0.950 . S
H4629 C4649 0.950 . S
H4630 C4651 0.950 . S
H4631 C4654 0.950 . S
H4632 C4655 0.950 . S
H4633 C4657 0.950 . S
H4634 C4658 0.950 . S
H4635 C4659 0.951 . S
H4636 C4661 0.951 . S
H4637 C4663 0.950 . S
H4638 C4664 0.950 . S
H4639 C4666 0.950 . S
H4640 C4669 0.950 . S
H4641 C4670 0.950 . S
H4642 C4672 0.950 . S
H4643 C4673 0.950 . S
C4644 H4626 0.951 . S
C4644 C4645 1.366 . S
C4644 C4646 1.388 . S
C4645 C4644 1.366 . S
C4645 C4649 1.385 . S
C4646 H4627 0.951 . S
C4646 C4644 1.388 . S
C4646 C4647 1.366 . S
C4647 C4646 1.366 . S
C4647 C4648 1.414 . S
C4647 C4650 1.499 . S
C4648 H4628 0.950 . S
C4648 C4647 1.414 . S
C4648 C4649 1.374 . S
C4649 H4629 0.950 . S
C4649 C4645 1.385 . S
C4649 C4648 1.374 . S
C4650 C4647 1.499 . S
C4650 C4651 1.373 . S
C4650 C4652 1.389 . S
C4651 H4630 0.950 . S
C4651 C4650 1.373 . S
C4651 C4667 1.377 . S
C4652 C4650 1.389 . S
C4652 C4653 1.524 . S
C4652 C4666 1.377 . S
C4653 C4652 1.524 . S
C4653 C4654 1.397 . S
C4653 C4658 1.363 . S
C4654 H4631 0.950 . S
C4654 C4653 1.397 . S
C4654 C4655 1.334 . S
C4655 H4632 0.950 . S
C4655 C4654 1.334 . S
C4655 C4656 1.287 . S
C4656 C4655 1.287 . S
C4656 C4657 1.524 . S
C4656 H4675 0.913 . S
C4657 H4633 0.950 . S
C4657 C4656 1.524 . S
C4657 C4658 1.415 . S
C4658 H4634 0.950 . S
C4658 C4653 1.363 . S
C4658 C4657 1.415 . S
C4659 H4635 0.951 . S
C4659 C4660 1.366 . S
C4659 C4661 1.388 . S
C4660 C4659 1.366 . S
C4660 C4664 1.385 . S
C4661 H4636 0.951 . S
C4661 C4659 1.388 . S
C4661 C4662 1.366 . S
C4662 C4661 1.366 . S
C4662 C4663 1.414 . S
C4662 C4665 1.499 . S
C4663 H4637 0.950 . S
C4663 C4662 1.414 . S
C4663 C4664 1.374 . S
C4664 H4638 0.950 . S
C4664 C4660 1.385 . S
C4664 C4663 1.374 . S
C4665 C4662 1.499 . S
C4665 C4666 1.373 . S
C4665 C4667 1.389 . S
C4666 H4639 0.950 . S
C4666 C4652 1.377 . S
C4666 C4665 1.373 . S
C4667 C4651 1.377 . S
C4667 C4665 1.389 . S
C4667 C4668 1.524 . S
C4668 C4667 1.524 . S
C4668 C4669 1.397 . S
C4668 C4673 1.363 . S
C4669 H4640 0.950 . S
C4669 C4668 1.397 . S
C4669 C4670 1.334 . S
C4670 H4641 0.950 . S
C4670 C4669 1.334 . S
C4670 C4671 1.287 . S
C4671 C4670 1.287 . S
C4671 C4672 1.524 . S
C4671 H4674 0.999 . S
C4672 H4642 0.950 . S
C4672 C4671 1.524 . S
C4672 C4673 1.415 . S
C4673 H4643 0.950 . S
C4673 C4668 1.363 . S
C4673 C4672 1.415 . S
H4674 C4671 0.999 . S
H4675 C4656 0.913 . S
H4676 C4694 0.951 . S
H4677 C4696 0.951 . S
H4678 C4698 0.950 . S
H4679 C4699 0.950 . S
H4680 C4701 0.950 . S
H4681 C4704 0.950 . S
H4682 C4705 0.950 . S
H4683 C4707 0.950 . S
H4684 C4708 0.950 . S
H4685 C4709 0.951 . S
H4686 C4711 0.951 . S
H4687 C4713 0.950 . S
H4688 C4714 0.950 . S
H4689 C4716 0.950 . S
H4690 C4719 0.950 . S
H4691 C4720 0.950 . S
H4692 C4722 0.950 . S
H4693 C4723 0.950 . S
C4694 H4676 0.951 . S
C4694 C4695 1.366 . S
C4694 C4696 1.388 . S
C4695 C4694 1.366 . S
C4695 C4699 1.385 . S
C4696 H4677 0.951 . S
C4696 C4694 1.388 . S
C4696 C4697 1.366 . S
C4697 C4696 1.366 . S
C4697 C4698 1.414 . S
C4697 C4700 1.499 . S
C4698 H4678 0.950 . S
C4698 C4697 1.414 . S
C4698 C4699 1.374 . S
C4699 H4679 0.950 . S
C4699 C4695 1.385 . S
C4699 C4698 1.374 . S
C4700 C4697 1.499 . S
C4700 C4701 1.373 . S
C4700 C4702 1.389 . S
C4701 H4680 0.950 . S
C4701 C4700 1.373 . S
C4701 C4717 1.377 . S
C4702 C4700 1.389 . S
C4702 C4703 1.524 . S
C4702 C4716 1.377 . S
C4703 C4702 1.524 . S
C4703 C4704 1.397 . S
C4703 C4708 1.363 . S
C4704 H4681 0.950 . S
C4704 C4703 1.397 . S
C4704 C4705 1.334 . S
C4705 H4682 0.950 . S
C4705 C4704 1.334 . S
C4705 C4706 1.287 . S
C4706 C4705 1.287 . S
C4706 C4707 1.524 . S
C4706 H4725 0.913 . S
C4707 H4683 0.950 . S
C4707 C4706 1.524 . S
C4707 C4708 1.415 . S
C4708 H4684 0.950 . S
C4708 C4703 1.363 . S
C4708 C4707 1.415 . S
C4709 H4685 0.951 . S
C4709 C4710 1.366 . S
C4709 C4711 1.388 . S
C4710 C4709 1.366 . S
C4710 C4714 1.385 . S
C4711 H4686 0.951 . S
C4711 C4709 1.388 . S
C4711 C4712 1.366 . S
C4712 C4711 1.366 . S
C4712 C4713 1.414 . S
C4712 C4715 1.499 . S
C4713 H4687 0.950 . S
C4713 C4712 1.414 . S
C4713 C4714 1.374 . S
C4714 H4688 0.950 . S
C4714 C4710 1.385 . S
C4714 C4713 1.374 . S
C4715 C4712 1.499 . S
C4715 C4716 1.373 . S
C4715 C4717 1.389 . S
C4716 H4689 0.950 . S
C4716 C4702 1.377 . S
C4716 C4715 1.373 . S
C4717 C4701 1.377 . S
C4717 C4715 1.389 . S
C4717 C4718 1.524 . S
C4718 C4717 1.524 . S
C4718 C4719 1.397 . S
C4718 C4723 1.363 . S
C4719 H4690 0.950 . S
C4719 C4718 1.397 . S
C4719 C4720 1.334 . S
C4720 H4691 0.950 . S
C4720 C4719 1.334 . S
C4720 C4721 1.287 . S
C4721 C4720 1.287 . S
C4721 C4722 1.524 . S
C4721 H4724 0.999 . S
C4722 H4692 0.950 . S
C4722 C4721 1.524 . S
C4722 C4723 1.415 . S
C4723 H4693 0.950 . S
C4723 C4718 1.363 . S
C4723 C4722 1.415 . S
H4724 C4721 0.999 . S
H4725 C4706 0.913 . S
H4726 C4744 0.951 . S
H4727 C4746 0.951 . S
H4728 C4748 0.950 . S
H4729 C4749 0.950 . S
H4730 C4751 0.950 . S
H4731 C4754 0.950 . S
H4732 C4755 0.950 . S
H4733 C4757 0.950 . S
H4734 C4758 0.950 . S
H4735 C4759 0.951 . S
H4736 C4761 0.951 . S
H4737 C4763 0.950 . S
H4738 C4764 0.950 . S
H4739 C4766 0.950 . S
H4740 C4769 0.950 . S
H4741 C4770 0.950 . S
H4742 C4772 0.950 . S
H4743 C4773 0.950 . S
C4744 H4726 0.951 . S
C4744 C4745 1.366 . S
C4744 C4746 1.388 . S
C4745 C4744 1.366 . S
C4745 C4749 1.385 . S
C4746 H4727 0.951 . S
C4746 C4744 1.388 . S
C4746 C4747 1.366 . S
C4747 C4746 1.366 . S
C4747 C4748 1.414 . S
C4747 C4750 1.499 . S
C4748 H4728 0.950 . S
C4748 C4747 1.414 . S
C4748 C4749 1.374 . S
C4749 H4729 0.950 . S
C4749 C4745 1.385 . S
C4749 C4748 1.374 . S
C4750 C4747 1.499 . S
C4750 C4751 1.373 . S
C4750 C4752 1.389 . S
C4751 H4730 0.950 . S
C4751 C4750 1.373 . S
C4751 C4767 1.377 . S
C4752 C4750 1.389 . S
C4752 C4753 1.524 . S
C4752 C4766 1.377 . S
C4753 C4752 1.524 . S
C4753 C4754 1.397 . S
C4753 C4758 1.363 . S
C4754 H4731 0.950 . S
C4754 C4753 1.397 . S
C4754 C4755 1.334 . S
C4755 H4732 0.950 . S
C4755 C4754 1.334 . S
C4755 C4756 1.287 . S
C4756 C4755 1.287 . S
C4756 C4757 1.524 . S
C4756 H4775 0.913 . S
C4757 H4733 0.950 . S
C4757 C4756 1.524 . S
C4757 C4758 1.415 . S
C4758 H4734 0.950 . S
C4758 C4753 1.363 . S
C4758 C4757 1.415 . S
C4759 H4735 0.951 . S
C4759 C4760 1.366 . S
C4759 C4761 1.388 . S
C4760 C4759 1.366 . S
C4760 C4764 1.385 . S
C4761 H4736 0.951 . S
C4761 C4759 1.388 . S
C4761 C4762 1.366 . S
C4762 C4761 1.366 . S
C4762 C4763 1.414 . S
C4762 C4765 1.499 . S
C4763 H4737 0.950 . S
C4763 C4762 1.414 . S
C4763 C4764 1.374 . S
C4764 H4738 0.950 . S
C4764 C4760 1.385 . S
C4764 C4763 1.374 . S
C4765 C4762 1.499 . S
C4765 C4766 1.373 . S
C4765 C4767 1.389 . S
C4766 H4739 0.950 . S
C4766 C4752 1.377 . S
C4766 C4765 1.373 . S
C4767 C4751 1.377 . S
C4767 C4765 1.389 . S
C4767 C4768 1.524 . S
C4768 C4767 1.524 . S
C4768 C4769 1.397 . S
C4768 C4773 1.363 . S
C4769 H4740 0.950 . S
C4769 C4768 1.397 . S
C4769 C4770 1.334 . S
C4770 H4741 0.950 . S
C4770 C4769 1.334 . S
C4770 C4771 1.287 . S
C4771 C4770 1.287 . S
C4771 C4772 1.524 . S
C4771 H4774 0.999 . S
C4772 H4742 0.950 . S
C4772 C4771 1.524 . S
C4772 C4773 1.415 . S
C4773 H4743 0.950 . S
C4773 C4768 1.363 . S
C4773 C4772 1.415 . S
H4774 C4771 0.999 . S
H4775 C4756 0.913 . S
H4776 C4794 0.951 . S
H4777 C4796 0.951 . S
H4778 C4798 0.950 . S
H4779 C4799 0.950 . S
H4780 C4801 0.950 . S
H4781 C4804 0.950 . S
H4782 C4805 0.950 . S
H4783 C4807 0.950 . S
H4784 C4808 0.950 . S
H4785 C4809 0.951 . S
H4786 C4811 0.951 . S
H4787 C4813 0.950 . S
H4788 C4814 0.950 . S
H4789 C4816 0.950 . S
H4790 C4819 0.950 . S
H4791 C4820 0.950 . S
H4792 C4822 0.950 . S
H4793 C4823 0.950 . S
C4794 H4776 0.951 . S
C4794 C4795 1.366 . S
C4794 C4796 1.388 . S
C4795 C4794 1.366 . S
C4795 C4799 1.385 . S
C4796 H4777 0.951 . S
C4796 C4794 1.388 . S
C4796 C4797 1.366 . S
C4797 C4796 1.366 . S
C4797 C4798 1.414 . S
C4797 C4800 1.499 . S
C4798 H4778 0.950 . S
C4798 C4797 1.414 . S
C4798 C4799 1.374 . S
C4799 H4779 0.950 . S
C4799 C4795 1.385 . S
C4799 C4798 1.374 . S
C4800 C4797 1.499 . S
C4800 C4801 1.373 . S
C4800 C4802 1.389 . S
C4801 H4780 0.950 . S
C4801 C4800 1.373 . S
C4801 C4817 1.377 . S
C4802 C4800 1.389 . S
C4802 C4803 1.524 . S
C4802 C4816 1.377 . S
C4803 C4802 1.524 . S
C4803 C4804 1.397 . S
C4803 C4808 1.363 . S
C4804 H4781 0.950 . S
C4804 C4803 1.397 . S
C4804 C4805 1.334 . S
C4805 H4782 0.950 . S
C4805 C4804 1.334 . S
C4805 C4806 1.287 . S
C4806 C4805 1.287 . S
C4806 C4807 1.524 . S
C4806 H4825 0.913 . S
C4807 H4783 0.950 . S
C4807 C4806 1.524 . S
C4807 C4808 1.415 . S
C4808 H4784 0.950 . S
C4808 C4803 1.363 . S
C4808 C4807 1.415 . S
C4809 H4785 0.951 . S
C4809 C4810 1.364 . S
C4809 C4811 1.388 1_554 S
C4810 C4809 1.364 . S
C4810 C4814 1.389 1_554 S
C4811 H4786 0.951 . S
C4811 C4809 1.388 1_556 S
C4811 C4812 1.366 . S
C4812 C4811 1.366 . S
C4812 C4813 1.414 . S
C4812 C4815 1.499 . S
C4813 H4787 0.950 . S
C4813 C4812 1.414 . S
C4813 C4814 1.374 . S
C4814 H4788 0.950 . S
C4814 C4810 1.389 1_556 S
C4814 C4813 1.374 . S
C4815 C4812 1.499 . S
C4815 C4816 1.373 . S
C4815 C4817 1.389 . S
C4816 H4789 0.950 . S
C4816 C4802 1.377 . S
C4816 C4815 1.373 . S
C4817 C4801 1.377 . S
C4817 C4815 1.389 . S
C4817 C4818 1.524 1_556 S
C4818 C4817 1.524 1_554 S
C4818 C4819 1.397 . S
C4818 C4823 1.363 . S
C4819 H4790 0.950 . S
C4819 C4818 1.397 . S
C4819 C4820 1.334 . S
C4820 H4791 0.950 . S
C4820 C4819 1.334 . S
C4820 C4821 1.287 . S
C4821 C4820 1.287 . S
C4821 C4822 1.524 . S
C4821 H4824 0.999 . S
C4822 H4792 0.950 . S
C4822 C4821 1.524 . S
C4822 C4823 1.415 . S
C4823 H4793 0.950 . S
C4823 C4818 1.363 . S
C4823 C4822 1.415 . S
H4824 C4821 0.999 . S
H4825 C4806 0.913 . S
H4826 C4844 0.951 . S
H4827 C4846 0.951 . S
H4828 C4848 0.950 . S
H4829 C4849 0.950 . S
H4830 C4851 0.950 . S
H4831 C4854 0.950 . S
H4832 C4855 0.950 . S
H4833 C4857 0.950 . S
H4834 C4858 0.950 . S
H4835 C4859 0.951 . S
H4836 C4861 0.951 . S
H4837 C4863 0.950 . S
H4838 C4864 0.950 . S
H4839 C4866 0.950 . S
H4840 C4869 0.950 . S
H4841 C4870 0.950 . S
H4842 C4872 0.950 . S
H4843 C4873 0.950 . S
C4844 H4826 0.951 . S
C4844 C4845 1.366 . S
C4844 C4846 1.388 . S
C4845 C4844 1.366 . S
C4845 C4849 1.385 . S
C4846 H4827 0.951 . S
C4846 C4844 1.388 . S
C4846 C4847 1.366 . S
C4847 C4846 1.366 . S
C4847 C4848 1.414 . S
C4847 C4850 1.499 . S
C4848 H4828 0.950 . S
C4848 C4847 1.414 . S
C4848 C4849 1.374 . S
C4849 H4829 0.950 . S
C4849 C4845 1.385 . S
C4849 C4848 1.374 . S
C4850 C4847 1.499 . S
C4850 C4851 1.373 . S
C4850 C4852 1.389 . S
C4851 H4830 0.950 . S
C4851 C4850 1.373 . S
C4851 C4867 1.377 . S
C4852 C4850 1.389 . S
C4852 C4853 1.524 . S
C4852 C4866 1.377 . S
C4853 C4852 1.524 . S
C4853 C4854 1.397 . S
C4853 C4858 1.363 . S
C4854 H4831 0.950 . S
C4854 C4853 1.397 . S
C4854 C4855 1.334 . S
C4855 H4832 0.950 . S
C4855 C4854 1.334 . S
C4855 C4856 1.287 . S
C4856 C4855 1.287 . S
C4856 C4857 1.524 . S
C4856 H4875 0.913 . S
C4857 H4833 0.950 . S
C4857 C4856 1.524 . S
C4857 C4858 1.415 . S
C4858 H4834 0.950 . S
C4858 C4853 1.363 . S
C4858 C4857 1.415 . S
C4859 H4835 0.951 . S
C4859 C4860 1.366 . S
C4859 C4861 1.388 . S
C4860 C4859 1.366 . S
C4860 C4864 1.385 . S
C4861 H4836 0.951 . S
C4861 C4859 1.388 . S
C4861 C4862 1.366 . S
C4862 C4861 1.366 . S
C4862 C4863 1.414 . S
C4862 C4865 1.499 . S
C4863 H4837 0.950 . S
C4863 C4862 1.414 . S
C4863 C4864 1.374 . S
C4864 H4838 0.950 . S
C4864 C4860 1.385 . S
C4864 C4863 1.374 . S
C4865 C4862 1.499 . S
C4865 C4866 1.373 . S
C4865 C4867 1.389 . S
C4866 H4839 0.950 . S
C4866 C4852 1.377 . S
C4866 C4865 1.373 . S
C4867 C4851 1.377 . S
C4867 C4865 1.389 . S
C4867 C4868 1.524 . S
C4868 C4867 1.524 . S
C4868 C4869 1.397 . S
C4868 C4873 1.363 . S
C4869 H4840 0.950 . S
C4869 C4868 1.397 . S
C4869 C4870 1.334 . S
C4870 H4841 0.950 . S
C4870 C4869 1.334 . S
C4870 C4871 1.287 . S
C4871 C4870 1.287 . S
C4871 C4872 1.524 . S
C4871 H4874 0.999 . S
C4872 H4842 0.950 . S
C4872 C4871 1.524 . S
C4872 C4873 1.415 . S
C4873 H4843 0.950 . S
C4873 C4868 1.363 . S
C4873 C4872 1.415 . S
H4874 C4871 0.999 . S
H4875 C4856 0.913 . S
H4876 C4894 0.951 . S
H4877 C4896 0.951 . S
H4878 C4898 0.950 . S
H4879 C4899 0.950 . S
H4880 C4901 0.950 . S
H4881 C4904 0.950 . S
H4882 C4905 0.950 . S
H4883 C4907 0.950 . S
H4884 C4908 0.950 . S
H4885 C4909 0.951 . S
H4886 C4911 0.951 . S
H4887 C4913 0.950 . S
H4888 C4914 0.950 . S
H4889 C4916 0.950 . S
H4890 C4919 0.950 . S
H4891 C4920 0.950 . S
H4892 C4922 0.950 . S
H4893 C4923 0.950 . S
C4894 H4876 0.951 . S
C4894 C4895 1.366 . S
C4894 C4896 1.388 . S
C4895 C4894 1.366 . S
C4895 C4899 1.385 . S
C4896 H4877 0.951 . S
C4896 C4894 1.388 . S
C4896 C4897 1.366 . S
C4897 C4896 1.366 . S
C4897 C4898 1.414 . S
C4897 C4900 1.499 . S
C4898 H4878 0.950 . S
C4898 C4897 1.414 . S
C4898 C4899 1.374 . S
C4899 H4879 0.950 . S
C4899 C4895 1.385 . S
C4899 C4898 1.374 . S
C4900 C4897 1.499 . S
C4900 C4901 1.373 . S
C4900 C4902 1.389 . S
C4901 H4880 0.950 . S
C4901 C4900 1.373 . S
C4901 C4917 1.377 . S
C4902 C4900 1.389 . S
C4902 C4903 1.524 . S
C4902 C4916 1.377 . S
C4903 C4902 1.524 . S
C4903 C4904 1.397 . S
C4903 C4908 1.363 . S
C4904 H4881 0.950 . S
C4904 C4903 1.397 . S
C4904 C4905 1.334 . S
C4905 H4882 0.950 . S
C4905 C4904 1.334 . S
C4905 C4906 1.287 . S
C4906 C4905 1.287 . S
C4906 C4907 1.524 . S
C4906 H4925 0.913 . S
C4907 H4883 0.950 . S
C4907 C4906 1.524 . S
C4907 C4908 1.415 . S
C4908 H4884 0.950 . S
C4908 C4903 1.363 . S
C4908 C4907 1.415 . S
C4909 H4885 0.951 . S
C4909 C4910 1.366 . S
C4909 C4911 1.388 . S
C4910 C4909 1.366 . S
C4910 C4914 1.385 . S
C4911 H4886 0.951 . S
C4911 C4909 1.388 . S
C4911 C4912 1.366 . S
C4912 C4911 1.366 . S
C4912 C4913 1.414 . S
C4912 C4915 1.499 . S
C4913 H4887 0.950 . S
C4913 C4912 1.414 . S
C4913 C4914 1.374 . S
C4914 H4888 0.950 . S
C4914 C4910 1.385 . S
C4914 C4913 1.374 . S
C4915 C4912 1.499 . S
C4915 C4916 1.373 . S
C4915 C4917 1.389 . S
C4916 H4889 0.950 . S
C4916 C4902 1.377 . S
C4916 C4915 1.373 . S
C4917 C4901 1.377 . S
C4917 C4915 1.389 . S
C4917 C4918 1.524 . S
C4918 C4917 1.524 . S
C4918 C4919 1.397 . S
C4918 C4923 1.363 1_455 S
C4919 H4890 0.950 . S
C4919 C4918 1.397 . S
C4919 C4920 1.334 . S
C4920 H4891 0.950 . S
C4920 C4919 1.334 . S
C4920 C4921 1.287 1_455 S
C4921 C4920 1.287 1_655 S
C4921 C4922 1.524 . S
C4921 H4924 0.999 . S
C4922 H4892 0.950 . S
C4922 C4921 1.524 . S
C4922 C4923 1.415 . S
C4923 H4893 0.950 . S
C4923 C4918 1.363 1_655 S
C4923 C4922 1.415 . S
H4924 C4921 0.999 . S
H4925 C4906 0.913 . S
H4926 C4944 0.951 . S
H4927 C4946 0.951 . S
H4928 C4948 0.950 . S
H4929 C4949 0.950 . S
H4930 C4951 0.950 . S
H4931 C4954 0.950 . S
H4932 C4955 0.950 . S
H4933 C4957 0.950 . S
H4934 C4958 0.950 . S
H4935 C4959 0.951 . S
H4936 C4961 0.951 . S
H4937 C4963 0.950 . S
H4938 C4964 0.950 . S
H4939 C4966 0.950 . S
H4940 C4969 0.950 . S
H4941 C4970 0.950 . S
H4942 C4972 0.950 . S
H4943 C4973 0.950 . S
C4944 H4926 0.951 . S
C4944 C4945 1.366 . S
C4944 C4946 1.388 . S
C4945 C4944 1.366 . S
C4945 C4949 1.385 . S
C4946 H4927 0.951 . S
C4946 C4944 1.388 . S
C4946 C4947 1.366 . S
C4947 C4946 1.366 . S
C4947 C4948 1.414 . S
C4947 C4950 1.499 . S
C4948 H4928 0.950 . S
C4948 C4947 1.414 . S
C4948 C4949 1.374 . S
C4949 H4929 0.950 . S
C4949 C4945 1.385 . S
C4949 C4948 1.374 . S
C4950 C4947 1.499 . S
C4950 C4951 1.373 . S
C4950 C4952 1.389 . S
C4951 H4930 0.950 . S
C4951 C4950 1.373 . S
C4951 C4967 1.377 . S
C4952 C4950 1.389 . S
C4952 C4953 1.524 . S
C4952 C4966 1.377 . S
C4953 C4952 1.524 . S
C4953 C4954 1.397 . S
C4953 C4958 1.363 . S
C4954 H4931 0.950 . S
C4954 C4953 1.397 . S
C4954 C4955 1.334 . S
C4955 H4932 0.950 . S
C4955 C4954 1.334 . S
C4955 C4956 1.287 . S
C4956 C4955 1.287 . S
C4956 C4957 1.524 . S
C4956 H4975 0.913 . S
C4957 H4933 0.950 . S
C4957 C4956 1.524 . S
C4957 C4958 1.415 . S
C4958 H4934 0.950 . S
C4958 C4953 1.363 . S
C4958 C4957 1.415 . S
C4959 H4935 0.951 . S
C4959 C4960 1.366 . S
C4959 C4961 1.388 . S
C4960 C4959 1.366 . S
C4960 C4964 1.385 . S
C4961 H4936 0.951 . S
C4961 C4959 1.388 . S
C4961 C4962 1.366 . S
C4962 C4961 1.366 . S
C4962 C4963 1.414 . S
C4962 C4965 1.499 . S
C4963 H4937 0.950 . S
C4963 C4962 1.414 . S
C4963 C4964 1.374 . S
C4964 H4938 0.950 . S
C4964 C4960 1.385 . S
C4964 C4963 1.374 . S
C4965 C4962 1.499 . S
C4965 C4966 1.373 . S
C4965 C4967 1.389 . S
C4966 H4939 0.950 . S
C4966 C4952 1.377 . S
C4966 C4965 1.373 . S
C4967 C4951 1.377 . S
C4967 C4965 1.389 . S
C4967 C4968 1.524 . S
C4968 C4967 1.524 . S
C4968 C4969 1.397 . S
C4968 C4973 1.363 . S
C4969 H4940 0.950 . S
C4969 C4968 1.397 . S
C4969 C4970 1.334 . S
C4970 H4941 0.950 . S
C4970 C4969 1.334 . S
C4970 C4971 1.287 . S
C4971 C4970 1.287 . S
C4971 C4972 1.524 . S
C4971 H4974 0.999 . S
C4972 H4942 0.950 . S
C4972 C4971 1.524 . S
C4972 C4973 1.415 . S
C4973 H4943 0.950 . S
C4973 C4968 1.363 . S
C4973 C4972 1.415 . S
H4974 C4971 0.999 . S
H4975 C4956 0.913 . S
H4976 C4994 0.951 . S
H4977 C4996 0.951 . S
H4978 C4998 0.950 . S
H4979 C4999 0.950 . S
H4980 C5001 0.950 . S
H4981 C5004 0.950 . S
H4982 C5005 0.950 . S
H4983 C5007 0.950 . S
H4984 C5008 0.950 . S
H4985 C5009 0.951 . S
H4986 C5011 0.951 . S
H4987 C5013 0.950 . S
H4988 C5014 0.950 . S
H4989 C5016 0.950 . S
H4990 C5019 0.950 . S
H4991 C5020 0.950 . S
H4992 C5022 0.950 . S
H4993 C5023 0.950 . S
C4994 H4976 0.951 . S
C4994 C4995 1.366 . S
C4994 C4996 1.388 . S
C4995 C4994 1.366 . S
C4995 C4999 1.385 . S
C4996 H4977 0.951 . S
C4996 C4994 1.388 . S
C4996 C4997 1.366 . S
C4997 C4996 1.366 . S
C4997 C4998 1.414 . S
C4997 C5000 1.499 . S
C4998 H4978 0.950 . S
C4998 C4997 1.414 . S
C4998 C4999 1.374 . S
C4999 H4979 0.950 . S
C4999 C4995 1.385 . S
C4999 C4998 1.374 . S
C5000 C4997 1.499 . S
C5000 C5001 1.373 . S
C5000 C5002 1.389 . S
C5001 H4980 0.950 . S
C5001 C5000 1.373 . S
C5001 C5017 1.377 . S
C5002 C5000 1.389 . S
C5002 C5003 1.524 . S
C5002 C5016 1.377 . S
C5003 C5002 1.524 . S
C5003 C5004 1.397 . S
C5003 C5008 1.363 . S
C5004 H4981 0.950 . S
C5004 C5003 1.397 . S
C5004 C5005 1.334 . S
C5005 H4982 0.950 . S
C5005 C5004 1.334 . S
C5005 C5006 1.287 . S
C5006 C5005 1.287 . S
C5006 C5007 1.524 . S
C5006 H5025 0.913 . S
C5007 H4983 0.950 . S
C5007 C5006 1.524 . S
C5007 C5008 1.415 . S
C5008 H4984 0.950 . S
C5008 C5003 1.363 . S
C5008 C5007 1.415 . S
C5009 H4985 0.951 . S
C5009 C5010 1.366 . S
C5009 C5011 1.388 . S
C5010 C5009 1.366 . S
C5010 C5014 1.385 . S
C5011 H4986 0.951 . S
C5011 C5009 1.388 . S
C5011 C5012 1.366 . S
C5012 C5011 1.366 . S
C5012 C5013 1.414 . S
C5012 C5015 1.499 . S
C5013 H4987 0.950 . S
C5013 C5012 1.414 . S
C5013 C5014 1.374 . S
C5014 H4988 0.950 . S
C5014 C5010 1.385 . S
C5014 C5013 1.374 . S
C5015 C5012 1.499 . S
C5015 C5016 1.373 . S
C5015 C5017 1.389 . S
C5016 H4989 0.950 . S
C5016 C5002 1.377 . S
C5016 C5015 1.373 . S
C5017 C5001 1.377 . S
C5017 C5015 1.389 . S
C5017 C5018 1.524 . S
C5018 C5017 1.524 . S
C5018 C5019 1.397 . S
C5018 C5023 1.363 . S
C5019 H4990 0.950 . S
C5019 C5018 1.397 . S
C5019 C5020 1.334 . S
C5020 H4991 0.950 . S
C5020 C5019 1.334 . S
C5020 C5021 1.287 . S
C5021 C5020 1.287 . S
C5021 C5022 1.524 . S
C5021 H5024 0.999 . S
C5022 H4992 0.950 . S
C5022 C5021 1.524 . S
C5022 C5023 1.415 . S
C5023 H4993 0.950 . S
C5023 C5018 1.363 . S
C5023 C5022 1.415 . S
H5024 C5021 0.999 . S
H5025 C5006 0.913 . S
H5026 C5044 0.951 . S
H5027 C5046 0.951 . S
H5028 C5048 0.950 . S
H5029 C5049 0.950 . S
H5030 C5051 0.950 . S
H5031 C5054 0.950 . S
H5032 C5055 0.950 . S
H5033 C5057 0.950 . S
H5034 C5058 0.950 . S
H5035 C5059 0.951 . S
H5036 C5061 0.951 . S
H5037 C5063 0.950 . S
H5038 C5064 0.950 . S
H5039 C5066 0.950 . S
H5040 C5069 0.950 . S
H5041 C5070 0.950 . S
H5042 C5072 0.950 . S
H5043 C5073 0.950 . S
C5044 H5026 0.951 . S
C5044 C5045 1.366 . S
C5044 C5046 1.388 . S
C5045 C5044 1.366 . S
C5045 C5049 1.385 . S
C5046 H5027 0.951 . S
C5046 C5044 1.388 . S
C5046 C5047 1.366 . S
C5047 C5046 1.366 . S
C5047 C5048 1.414 . S
C5047 C5050 1.499 . S
C5048 H5028 0.950 . S
C5048 C5047 1.414 . S
C5048 C5049 1.374 . S
C5049 H5029 0.950 . S
C5049 C5045 1.385 . S
C5049 C5048 1.374 . S
C5050 C5047 1.499 . S
C5050 C5051 1.373 . S
C5050 C5052 1.389 . S
C5051 H5030 0.950 . S
C5051 C5050 1.373 . S
C5051 C5067 1.377 . S
C5052 C5050 1.389 . S
C5052 C5053 1.524 . S
C5052 C5066 1.377 . S
C5053 C5052 1.524 . S
C5053 C5054 1.397 . S
C5053 C5058 1.363 . S
C5054 H5031 0.950 . S
C5054 C5053 1.397 . S
C5054 C5055 1.334 . S
C5055 H5032 0.950 . S
C5055 C5054 1.334 . S
C5055 C5056 1.287 . S
C5056 C5055 1.287 . S
C5056 C5057 1.524 . S
C5056 H5075 0.913 . S
C5057 H5033 0.950 . S
C5057 C5056 1.524 . S
C5057 C5058 1.415 . S
C5058 H5034 0.950 . S
C5058 C5053 1.363 . S
C5058 C5057 1.415 . S
C5059 H5035 0.951 . S
C5059 C5060 1.366 . S
C5059 C5061 1.388 . S
C5060 C5059 1.366 . S
C5060 C5064 1.385 . S
C5061 H5036 0.951 . S
C5061 C5059 1.388 . S
C5061 C5062 1.366 . S
C5062 C5061 1.366 . S
C5062 C5063 1.414 . S
C5062 C5065 1.499 . S
C5063 H5037 0.950 . S
C5063 C5062 1.414 . S
C5063 C5064 1.374 . S
C5064 H5038 0.950 . S
C5064 C5060 1.385 . S
C5064 C5063 1.374 . S
C5065 C5062 1.499 . S
C5065 C5066 1.373 . S
C5065 C5067 1.389 . S
C5066 H5039 0.950 . S
C5066 C5052 1.377 . S
C5066 C5065 1.373 . S
C5067 C5051 1.377 . S
C5067 C5065 1.389 . S
C5067 C5068 1.524 . S
C5068 C5067 1.524 . S
C5068 C5069 1.397 . S
C5068 C5073 1.363 . S
C5069 H5040 0.950 . S
C5069 C5068 1.397 . S
C5069 C5070 1.334 . S
C5070 H5041 0.950 . S
C5070 C5069 1.334 . S
C5070 C5071 1.287 . S
C5071 C5070 1.287 . S
C5071 C5072 1.524 . S
C5071 H5074 0.999 . S
C5072 H5042 0.950 . S
C5072 C5071 1.524 . S
C5072 C5073 1.415 . S
C5073 H5043 0.950 . S
C5073 C5068 1.363 . S
C5073 C5072 1.415 . S
H5074 C5071 0.999 . S
H5075 C5056 0.913 . S
H5076 C5094 0.951 . S
H5077 C5096 0.964 . S
H5078 C5098 0.950 . S
H5079 C5099 0.950 . S
H5080 C5101 0.950 . S
H5081 C5104 0.950 . S
H5082 C5105 0.950 . S
H5083 C5107 0.950 . S
H5084 C5108 0.950 . S
H5085 C5109 0.951 . S
H5086 C5111 0.951 . S
H5087 C5113 0.950 . S
H5088 C5114 0.983 . S
H5089 C5116 0.950 . S
H5090 C5119 0.950 . S
H5091 C5120 0.950 . S
H5092 C5122 0.950 . S
H5093 C5123 0.950 . S
C5094 H5076 0.951 . S
C5094 C5095 1.366 . S
C5094 C5096 1.379 1_655 S
C5095 C5094 1.366 . S
C5095 C5099 1.385 . S
C5096 H5077 0.964 . S
C5096 C5094 1.379 1_455 S
C5096 C5097 1.362 1_455 S
C5097 C5096 1.362 1_655 S
C5097 C5098 1.414 . S
C5097 C5100 1.499 1_655 S
C5098 H5078 0.950 . S
C5098 C5097 1.414 . S
C5098 C5099 1.374 . S
C5099 H5079 0.950 . S
C5099 C5095 1.385 . S
C5099 C5098 1.374 . S
C5100 C5097 1.499 1_455 S
C5100 C5101 1.373 1_455 S
C5100 C5102 1.389 . S
C5101 H5080 0.950 . S
C5101 C5100 1.373 1_655 S
C5101 C5117 1.377 . S
C5102 C5100 1.389 . S
C5102 C5103 1.524 . S
C5102 C5116 1.377 . S
C5103 C5102 1.524 . S
C5103 C5104 1.397 . S
C5103 C5108 1.363 . S
C5104 H5081 0.950 . S
C5104 C5103 1.397 . S
C5104 C5105 1.334 . S
C5105 H5082 0.950 . S
C5105 C5104 1.334 . S
C5105 C5106 1.287 . S
C5106 C5105 1.287 . S
C5106 C5107 1.524 . S
C5106 H5125 0.913 . S
C5107 H5083 0.950 . S
C5107 C5106 1.524 . S
C5107 C5108 1.415 . S
C5108 H5084 0.950 . S
C5108 C5103 1.363 . S
C5108 C5107 1.415 . S
C5109 H5085 0.951 . S
C5109 C5110 1.366 1_556 S
C5109 C5111 1.388 . S
C5110 C5109 1.366 1_554 S
C5110 C5114 1.411 . S
C5111 H5086 0.951 . S
C5111 C5109 1.388 . S
C5111 C5112 1.366 . S
C5112 C5111 1.366 . S
C5112 C5113 1.414 . S
C5112 C5115 1.499 . S
C5113 H5087 0.950 . S
C5113 C5112 1.414 . S
C5113 C5114 1.317 1_556 S
C5114 H5088 0.983 . S
C5114 C5110 1.411 . S
C5114 C5113 1.317 1_554 S
C5115 C5112 1.499 . S
C5115 C5116 1.373 . S
C5115 C5117 1.389 1_455 S
C5116 H5089 0.950 . S
C5116 C5102 1.377 . S
C5116 C5115 1.373 . S
C5117 C5101 1.377 . S
C5117 C5115 1.389 1_655 S
C5117 C5118 1.524 . S
C5118 C5117 1.524 . S
C5118 C5119 1.397 . S
C5118 C5123 1.363 . S
C5119 H5090 0.950 . S
C5119 C5118 1.397 . S
C5119 C5120 1.334 . S
C5120 H5091 0.950 . S
C5120 C5119 1.334 . S
C5120 C5121 1.287 . S
C5121 C5120 1.287 . S
C5121 C5122 1.524 . S
C5121 H5124 0.999 . S
C5122 H5092 0.950 . S
C5122 C5121 1.524 . S
C5122 C5123 1.415 . S
C5123 H5093 0.950 . S
C5123 C5118 1.363 . S
C5123 C5122 1.415 . S
H5124 C5121 0.999 . S
H5125 C5106 0.913 . S
H5126 C5144 0.951 . S
H5127 C5146 0.951 . S
H5128 C5148 0.950 . S
H5129 C5149 0.950 . S
H5130 C5151 0.950 . S
H5131 C5154 0.950 . S
H5132 C5155 0.950 . S
H5133 C5157 0.950 . S
H5134 C5158 0.950 . S
H5135 C5159 0.951 . S
H5136 C5161 0.951 . S
H5137 C5163 0.950 . S
H5138 C5164 0.950 . S
H5139 C5166 0.950 . S
H5140 C5169 0.950 . S
H5141 C5170 0.950 . S
H5142 C5172 0.950 . S
H5143 C5173 0.950 . S
C5144 H5126 0.951 . S
C5144 C5145 1.366 . S
C5144 C5146 1.388 . S
C5145 C5144 1.366 . S
C5145 C5149 1.385 . S
C5146 H5127 0.951 . S
C5146 C5144 1.388 . S
C5146 C5147 1.366 . S
C5147 C5146 1.366 . S
C5147 C5148 1.414 . S
C5147 C5150 1.499 . S
C5148 H5128 0.950 . S
C5148 C5147 1.414 . S
C5148 C5149 1.374 . S
C5149 H5129 0.950 . S
C5149 C5145 1.385 . S
C5149 C5148 1.374 . S
C5150 C5147 1.499 . S
C5150 C5151 1.373 . S
C5150 C5152 1.389 . S
C5151 H5130 0.950 . S
C5151 C5150 1.373 . S
C5151 C5167 1.377 . S
C5152 C5150 1.389 . S
C5152 C5153 1.524 . S
C5152 C5166 1.377 . S
C5153 C5152 1.524 . S
C5153 C5154 1.397 . S
C5153 C5158 1.363 . S
C5154 H5131 0.950 . S
C5154 C5153 1.397 . S
C5154 C5155 1.334 . S
C5155 H5132 0.950 . S
C5155 C5154 1.334 . S
C5155 C5156 1.287 . S
C5156 C5155 1.287 . S
C5156 C5157 1.524 . S
C5156 H5175 0.913 . S
C5157 H5133 0.950 . S
C5157 C5156 1.524 . S
C5157 C5158 1.415 . S
C5158 H5134 0.950 . S
C5158 C5153 1.363 . S
C5158 C5157 1.415 . S
C5159 H5135 0.951 . S
C5159 C5160 1.366 . S
C5159 C5161 1.388 . S
C5160 C5159 1.366 . S
C5160 C5164 1.385 . S
C5161 H5136 0.951 . S
C5161 C5159 1.388 . S
C5161 C5162 1.366 . S
C5162 C5161 1.366 . S
C5162 C5163 1.414 . S
C5162 C5165 1.499 . S
C5163 H5137 0.950 . S
C5163 C5162 1.414 . S
C5163 C5164 1.374 . S
C5164 H5138 0.950 . S
C5164 C5160 1.385 . S
C5164 C5163 1.374 . S
C5165 C5162 1.499 . S
C5165 C5166 1.373 . S
C5165 C5167 1.389 . S
C5166 H5139 0.950 . S
C5166 C5152 1.377 . S
C5166 C5165 1.373 . S
C5167 C5151 1.377 . S
C5167 C5165 1.389 . S
C5167 C5168 1.524 . S
C5168 C5167 1.524 . S
C5168 C5169 1.397 . S
C5168 C5173 1.363 . S
C5169 H5140 0.950 . S
C5169 C5168 1.397 . S
C5169 C5170 1.334 . S
C5170 H5141 0.950 . S
C5170 C5169 1.334 . S
C5170 C5171 1.287 . S
C5171 C5170 1.287 . S
C5171 C5172 1.524 . S
C5171 H5174 0.999 . S
C5172 H5142 0.950 . S
C5172 C5171 1.524 . S
C5172 C5173 1.415 . S
C5173 H5143 0.950 . S
C5173 C5168 1.363 . S
C5173 C5172 1.415 . S
H5174 C5171 0.999 . S
H5175 C5156 0.913 . S
H5176 C5194 0.951 . S
H5177 C5196 0.951 . S
H5178 C5198 0.950 . S
H5179 C5199 0.950 . S
H5180 C5201 0.950 . S
H5181 C5204 0.950 . S
H5182 C5205 0.950 . S
H5183 C5207 0.950 . S
H5184 C5208 0.950 . S
H5185 C5209 0.951 . S
H5186 C5211 0.951 . S
H5187 C5213 0.950 . S
H5188 C5214 0.950 . S
H5189 C5216 0.950 . S
H5190 C5219 0.950 . S
H5191 C5220 0.950 . S
H5192 C5222 0.950 . S
H5193 C5223 0.950 . S
C5194 H5176 0.951 . S
C5194 C5195 1.366 . S
C5194 C5196 1.388 . S
C5195 C5194 1.366 . S
C5195 C5199 1.385 . S
C5196 H5177 0.951 . S
C5196 C5194 1.388 . S
C5196 C5197 1.366 . S
C5197 C5196 1.366 . S
C5197 C5198 1.414 . S
C5197 C5200 1.499 . S
C5198 H5178 0.950 . S
C5198 C5197 1.414 . S
C5198 C5199 1.374 . S
C5199 H5179 0.950 . S
C5199 C5195 1.385 . S
C5199 C5198 1.374 . S
C5200 C5197 1.499 . S
C5200 C5201 1.373 . S
C5200 C5202 1.389 . S
C5201 H5180 0.950 . S
C5201 C5200 1.373 . S
C5201 C5217 1.377 . S
C5202 C5200 1.389 . S
C5202 C5203 1.524 . S
C5202 C5216 1.377 . S
C5203 C5202 1.524 . S
C5203 C5204 1.397 . S
C5203 C5208 1.363 . S
C5204 H5181 0.950 . S
C5204 C5203 1.397 . S
C5204 C5205 1.334 . S
C5205 H5182 0.950 . S
C5205 C5204 1.334 . S
C5205 C5206 1.287 . S
C5206 C5205 1.287 . S
C5206 C5207 1.524 . S
C5206 H5225 0.913 . S
C5207 H5183 0.950 . S
C5207 C5206 1.524 . S
C5207 C5208 1.415 . S
C5208 H5184 0.950 . S
C5208 C5203 1.363 . S
C5208 C5207 1.415 . S
C5209 H5185 0.951 . S
C5209 C5210 1.366 . S
C5209 C5211 1.388 . S
C5210 C5209 1.366 . S
C5210 C5214 1.385 . S
C5211 H5186 0.951 . S
C5211 C5209 1.388 . S
C5211 C5212 1.366 . S
C5212 C5211 1.366 . S
C5212 C5213 1.414 . S
C5212 C5215 1.499 . S
C5213 H5187 0.950 . S
C5213 C5212 1.414 . S
C5213 C5214 1.374 . S
C5214 H5188 0.950 . S
C5214 C5210 1.385 . S
C5214 C5213 1.374 . S
C5215 C5212 1.499 . S
C5215 C5216 1.373 . S
C5215 C5217 1.389 . S
C5216 H5189 0.950 . S
C5216 C5202 1.377 . S
C5216 C5215 1.373 . S
C5217 C5201 1.377 . S
C5217 C5215 1.389 . S
C5217 C5218 1.524 . S
C5218 C5217 1.524 . S
C5218 C5219 1.397 . S
C5218 C5223 1.363 . S
C5219 H5190 0.950 . S
C5219 C5218 1.397 . S
C5219 C5220 1.334 . S
C5220 H5191 0.950 . S
C5220 C5219 1.334 . S
C5220 C5221 1.287 . S
C5221 C5220 1.287 . S
C5221 C5222 1.524 . S
C5221 H5224 0.999 . S
C5222 H5192 0.950 . S
C5222 C5221 1.524 . S
C5222 C5223 1.415 . S
C5223 H5193 0.950 . S
C5223 C5218 1.363 . S
C5223 C5222 1.415 . S
H5224 C5221 0.999 . S
H5225 C5206 0.913 . S
H5226 C5244 0.951 . S
H5227 C5246 0.951 . S
H5228 C5248 0.950 . S
H5229 C5249 0.950 . S
H5230 C5251 0.950 . S
H5231 C5254 0.950 . S
H5232 C5255 0.950 . S
H5233 C5257 0.950 . S
H5234 C5258 0.950 . S
H5235 C5259 0.951 . S
H5236 C5261 0.951 . S
H5237 C5263 0.950 . S
H5238 C5264 0.950 . S
H5239 C5266 0.950 . S
H5240 C5269 0.950 . S
H5241 C5270 0.950 . S
H5242 C5272 0.950 . S
H5243 C5273 0.950 . S
C5244 H5226 0.951 . S
C5244 C5245 1.366 . S
C5244 C5246 1.388 . S
C5245 C5244 1.366 . S
C5245 C5249 1.385 . S
C5246 H5227 0.951 . S
C5246 C5244 1.388 . S
C5246 C5247 1.366 . S
C5247 C5246 1.366 . S
C5247 C5248 1.414 . S
C5247 C5250 1.499 . S
C5248 H5228 0.950 . S
C5248 C5247 1.414 . S
C5248 C5249 1.374 . S
C5249 H5229 0.950 . S
C5249 C5245 1.385 . S
C5249 C5248 1.374 . S
C5250 C5247 1.499 . S
C5250 C5251 1.373 . S
C5250 C5252 1.389 . S
C5251 H5230 0.950 . S
C5251 C5250 1.373 . S
C5251 C5267 1.377 . S
C5252 C5250 1.389 . S
C5252 C5253 1.524 . S
C5252 C5266 1.377 . S
C5253 C5252 1.524 . S
C5253 C5254 1.397 . S
C5253 C5258 1.363 . S
C5254 H5231 0.950 . S
C5254 C5253 1.397 . S
C5254 C5255 1.334 . S
C5255 H5232 0.950 . S
C5255 C5254 1.334 . S
C5255 C5256 1.287 . S
C5256 C5255 1.287 . S
C5256 C5257 1.524 . S
C5256 H5275 0.913 . S
C5257 H5233 0.950 . S
C5257 C5256 1.524 . S
C5257 C5258 1.415 . S
C5258 H5234 0.950 . S
C5258 C5253 1.363 . S
C5258 C5257 1.415 . S
C5259 H5235 0.951 . S
C5259 C5260 1.366 . S
C5259 C5261 1.388 . S
C5260 C5259 1.366 . S
C5260 C5264 1.385 . S
C5261 H5236 0.951 . S
C5261 C5259 1.388 . S
C5261 C5262 1.366 . S
C5262 C5261 1.366 . S
C5262 C5263 1.414 . S
C5262 C5265 1.499 . S
C5263 H5237 0.950 . S
C5263 C5262 1.414 . S
C5263 C5264 1.374 . S
C5264 H5238 0.950 . S
C5264 C5260 1.385 . S
C5264 C5263 1.374 . S
C5265 C5262 1.499 . S
C5265 C5266 1.373 . S
C5265 C5267 1.389 . S
C5266 H5239 0.950 . S
C5266 C5252 1.377 . S
C5266 C5265 1.373 . S
C5267 C5251 1.377 . S
C5267 C5265 1.389 . S
C5267 C5268 1.524 . S
C5268 C5267 1.524 . S
C5268 C5269 1.397 . S
C5268 C5273 1.363 . S
C5269 H5240 0.950 . S
C5269 C5268 1.397 . S
C5269 C5270 1.334 . S
C5270 H5241 0.950 . S
C5270 C5269 1.334 . S
C5270 C5271 1.287 . S
C5271 C5270 1.287 . S
C5271 C5272 1.524 . S
C5271 H5274 0.999 . S
C5272 H5242 0.950 . S
C5272 C5271 1.524 . S
C5272 C5273 1.415 . S
C5273 H5243 0.950 . S
C5273 C5268 1.363 . S
C5273 C5272 1.415 . S
H5274 C5271 0.999 . S
H5275 C5256 0.913 . S
H5276 C5294 0.951 . S
H5277 C5296 0.951 . S
H5278 C5298 0.950 1_455 S
H5279 C5299 0.950 . S
H5280 C5301 0.950 1_455 S
H5281 C5304 0.950 . S
H5282 C5305 0.950 . S
H5283 C5307 0.950 . S
H5284 C5308 0.950 . S
H5285 C5309 0.951 . S
H5286 C5311 0.951 . S
H5287 C5313 0.950 . S
H5288 C5314 0.950 . S
H5289 C5316 0.950 . S
H5290 C5319 0.893 1_655 S
H5291 C5320 0.950 . S
H5292 C5322 0.950 . S
H5293 C5323 0.950 . S
C5294 H5276 0.951 . S
C5294 C5295 1.366 . S
C5294 C5296 1.388 . S
C5295 C5294 1.366 . S
C5295 C5299 1.385 . S
C5296 H5277 0.951 . S
C5296 C5294 1.388 . S
C5296 C5297 1.366 . S
C5297 C5296 1.366 . S
C5297 C5298 1.414 . S
C5297 C5300 1.499 . S
C5298 H5278 0.950 1_655 S
C5298 C5297 1.414 . S
C5298 C5299 1.374 . S
C5299 H5279 0.950 . S
C5299 C5295 1.385 . S
C5299 C5298 1.374 . S
C5300 C5297 1.499 . S
C5300 C5301 1.373 . S
C5300 C5302 1.389 . S
C5301 H5280 0.950 1_655 S
C5301 C5300 1.373 . S
C5301 C5317 1.377 . S
C5302 C5300 1.389 . S
C5302 C5303 1.524 . S
C5302 C5316 1.377 . S
C5303 C5302 1.524 . S
C5303 C5304 1.397 . S
C5303 C5308 1.363 . S
C5304 H5281 0.950 . S
C5304 C5303 1.397 . S
C5304 C5305 1.334 . S
C5305 H5282 0.950 . S
C5305 C5304 1.334 . S
C5305 C5306 1.287 . S
C5306 C5305 1.287 . S
C5306 C5307 1.524 . S
C5306 H5325 0.913 . S
C5307 H5283 0.950 . S
C5307 C5306 1.524 . S
C5307 C5308 1.415 . S
C5308 H5284 0.950 . S
C5308 C5303 1.363 . S
C5308 C5307 1.415 . S
C5309 H5285 0.951 . S
C5309 C5310 1.366 1_455 S
C5309 C5311 1.388 . S
C5310 C5309 1.366 1_655 S
C5310 C5314 1.385 . S
C5311 H5286 0.951 . S
C5311 C5309 1.388 . S
C5311 C5312 1.366 1_455 S
C5312 C5311 1.366 1_655 S
C5312 C5313 1.414 . S
C5312 C5315 1.499 . S
C5313 H5287 0.950 . S
C5313 C5312 1.414 . S
C5313 C5314 1.374 . S
C5314 H5288 0.950 . S
C5314 C5310 1.385 . S
C5314 C5313 1.374 . S
C5315 C5312 1.499 . S
C5315 C5316 1.373 . S
C5315 C5317 1.389 . S
C5316 H5289 0.950 . S
C5316 C5302 1.377 . S
C5316 C5315 1.373 . S
C5317 C5301 1.377 . S
C5317 C5315 1.389 . S
C5317 C5318 1.524 1_655 S
C5318 C5317 1.524 1_455 S
C5318 C5319 1.397 . S
C5318 C5323 1.363 . S
C5319 H5290 0.893 1_455 S
C5319 C5318 1.397 . S
C5319 C5320 1.334 . S
C5320 H5291 0.950 . S
C5320 C5319 1.334 . S
C5320 C5321 1.287 . S
C5321 C5320 1.287 . S
C5321 C5322 1.524 . S
C5321 H5324 0.999 . S
C5322 H5292 0.950 . S
C5322 C5321 1.524 . S
C5322 C5323 1.415 . S
C5323 H5293 0.950 . S
C5323 C5318 1.363 . S
C5323 C5322 1.415 . S
H5324 C5321 0.999 . S
H5325 C5306 0.913 . S
H5326 C5344 0.951 . S
H5327 C5346 0.951 . S
H5328 C5348 0.950 . S
H5329 C5349 0.950 . S
H5330 C5351 0.950 . S
H5331 C5354 0.950 . S
H5332 C5355 0.950 . S
H5333 C5357 0.950 . S
H5334 C5358 0.950 . S
H5335 C5359 0.951 . S
H5336 C5361 0.951 . S
H5337 C5363 0.950 . S
H5338 C5364 0.950 . S
H5339 C5366 0.950 . S
H5340 C5369 0.950 . S
H5341 C5370 0.950 . S
H5342 C5372 0.950 . S
H5343 C5373 0.950 . S
C5344 H5326 0.951 . S
C5344 C5345 1.366 . S
C5344 C5346 1.388 . S
C5345 C5344 1.366 . S
C5345 C5349 1.385 . S
C5346 H5327 0.951 . S
C5346 C5344 1.388 . S
C5346 C5347 1.366 . S
C5347 C5346 1.366 . S
C5347 C5348 1.414 . S
C5347 C5350 1.499 . S
C5348 H5328 0.950 . S
C5348 C5347 1.414 . S
C5348 C5349 1.374 . S
C5349 H5329 0.950 . S
C5349 C5345 1.385 . S
C5349 C5348 1.374 . S
C5350 C5347 1.499 . S
C5350 C5351 1.373 . S
C5350 C5352 1.389 . S
C5351 H5330 0.950 . S
C5351 C5350 1.373 . S
C5351 C5367 1.377 . S
C5352 C5350 1.389 . S
C5352 C5353 1.524 . S
C5352 C5366 1.377 . S
C5353 C5352 1.524 . S
C5353 C5354 1.397 . S
C5353 C5358 1.363 . S
C5354 H5331 0.950 . S
C5354 C5353 1.397 . S
C5354 C5355 1.334 . S
C5355 H5332 0.950 . S
C5355 C5354 1.334 . S
C5355 C5356 1.287 . S
C5356 C5355 1.287 . S
C5356 C5357 1.524 . S
C5356 H5375 0.913 . S
C5357 H5333 0.950 . S
C5357 C5356 1.524 . S
C5357 C5358 1.415 . S
C5358 H5334 0.950 . S
C5358 C5353 1.363 . S
C5358 C5357 1.415 . S
C5359 H5335 0.951 . S
C5359 C5360 1.366 . S
C5359 C5361 1.388 . S
C5360 C5359 1.366 . S
C5360 C5364 1.385 . S
C5361 H5336 0.951 . S
C5361 C5359 1.388 . S
C5361 C5362 1.366 . S
C5362 C5361 1.366 . S
C5362 C5363 1.414 . S
C5362 C5365 1.499 . S
C5363 H5337 0.950 . S
C5363 C5362 1.414 . S
C5363 C5364 1.374 . S
C5364 H5338 0.950 . S
C5364 C5360 1.385 . S
C5364 C5363 1.374 . S
C5365 C5362 1.499 . S
C5365 C5366 1.373 . S
C5365 C5367 1.389 . S
C5366 H5339 0.950 . S
C5366 C5352 1.377 . S
C5366 C5365 1.373 . S
C5367 C5351 1.377 . S
C5367 C5365 1.389 . S
C5367 C5368 1.524 . S
C5368 C5367 1.524 . S
C5368 C5369 1.397 . S
C5368 C5373 1.363 . S
C5369 H5340 0.950 . S
C5369 C5368 1.397 . S
C5369 C5370 1.334 . S
C5370 H5341 0.950 . S
C5370 C5369 1.334 . S
C5370 C5371 1.287 . S
C5371 C5370 1.287 . S
C5371 C5372 1.524 . S
C5371 H5374 0.999 . S
C5372 H5342 0.950 . S
C5372 C5371 1.524 . S
C5372 C5373 1.415 . S
C5373 H5343 0.950 . S
C5373 C5368 1.363 . S
C5373 C5372 1.415 . S
H5374 C5371 0.999 . S
H5375 C5356 0.913 . S
H5376 C5394 0.951 . S
H5377 C5396 0.951 . S
H5378 C5398 0.950 . S
H5379 C5399 0.950 . S
H5380 C5401 0.950 . S
H5381 C5404 0.950 . S
H5382 C5405 0.950 . S
H5383 C5407 0.950 . S
H5384 C5408 0.950 . S
H5385 C5409 0.951 . S
H5386 C5411 0.951 . S
H5387 C5413 0.950 . S
H5388 C5414 0.950 . S
H5389 C5416 0.950 . S
H5390 C5419 0.950 . S
H5391 C5420 0.950 . S
H5392 C5422 0.950 . S
H5393 C5423 0.950 . S
C5394 H5376 0.951 . S
C5394 C5395 1.366 . S
C5394 C5396 1.388 . S
C5395 C5394 1.366 . S
C5395 C5399 1.385 . S
C5396 H5377 0.951 . S
C5396 C5394 1.388 . S
C5396 C5397 1.366 . S
C5397 C5396 1.366 . S
C5397 C5398 1.414 . S
C5397 C5400 1.499 . S
C5398 H5378 0.950 . S
C5398 C5397 1.414 . S
C5398 C5399 1.374 . S
C5399 H5379 0.950 . S
C5399 C5395 1.385 . S
C5399 C5398 1.374 . S
C5400 C5397 1.499 . S
C5400 C5401 1.373 . S
C5400 C5402 1.389 . S
C5401 H5380 0.950 . S
C5401 C5400 1.373 . S
C5401 C5417 1.377 . S
C5402 C5400 1.389 . S
C5402 C5403 1.524 . S
C5402 C5416 1.377 . S
C5403 C5402 1.524 . S
C5403 C5404 1.397 . S
C5403 C5408 1.363 . S
C5404 H5381 0.950 . S
C5404 C5403 1.397 . S
C5404 C5405 1.334 . S
C5405 H5382 0.950 . S
C5405 C5404 1.334 . S
C5405 C5406 1.287 . S
C5406 C5405 1.287 . S
C5406 C5407 1.524 . S
C5406 H5425 0.913 . S
C5407 H5383 0.950 . S
C5407 C5406 1.524 . S
C5407 C5408 1.415 . S
C5408 H5384 0.950 . S
C5408 C5403 1.363 . S
C5408 C5407 1.415 . S
C5409 H5385 0.951 . S
C5409 C5410 1.366 . S
C5409 C5411 1.388 . S
C5410 C5409 1.366 . S
C5410 C5414 1.385 . S
C5411 H5386 0.951 . S
C5411 C5409 1.388 . S
C5411 C5412 1.366 . S
C5412 C5411 1.366 . S
C5412 C5413 1.414 . S
C5412 C5415 1.499 . S
C5413 H5387 0.950 . S
C5413 C5412 1.414 . S
C5413 C5414 1.374 . S
C5414 H5388 0.950 . S
C5414 C5410 1.385 . S
C5414 C5413 1.374 . S
C5415 C5412 1.499 . S
C5415 C5416 1.373 . S
C5415 C5417 1.389 . S
C5416 H5389 0.950 . S
C5416 C5402 1.377 . S
C5416 C5415 1.373 . S
C5417 C5401 1.377 . S
C5417 C5415 1.389 . S
C5417 C5418 1.524 . S
C5418 C5417 1.524 . S
C5418 C5419 1.397 . S
C5418 C5423 1.363 . S
C5419 H5390 0.950 . S
C5419 C5418 1.397 . S
C5419 C5420 1.334 . S
C5420 H5391 0.950 . S
C5420 C5419 1.334 . S
C5420 C5421 1.287 . S
C5421 C5420 1.287 . S
C5421 C5422 1.524 . S
C5421 H5424 0.999 . S
C5422 H5392 0.950 . S
C5422 C5421 1.524 . S
C5422 C5423 1.415 . S
C5423 H5393 0.950 . S
C5423 C5418 1.363 . S
C5423 C5422 1.415 . S
H5424 C5421 0.999 . S
H5425 C5406 0.913 . S
H5426 C5444 0.951 . S
H5427 C5446 0.951 . S
H5428 C5448 0.950 . S
H5429 C5449 0.950 . S
H5430 C5451 0.950 . S
H5431 C5454 0.950 . S
H5432 C5455 0.950 . S
H5433 C5457 0.950 . S
H5434 C5458 0.950 . S
H5435 C5459 0.951 . S
H5436 C5461 0.951 1_545 S
H5437 C5463 0.950 . S
H5438 C5464 0.950 . S
H5439 C5466 0.950 . S
H5440 C5469 0.950 . S
H5441 C5470 0.950 . S
H5442 C5472 0.950 . S
H5443 C5473 0.950 . S
C5444 H5426 0.951 . S
C5444 C5445 1.366 . S
C5444 C5446 1.388 . S
C5445 C5444 1.366 . S
C5445 C5449 1.385 . S
C5446 H5427 0.951 . S
C5446 C5444 1.388 . S
C5446 C5447 1.366 . S
C5447 C5446 1.366 . S
C5447 C5448 1.414 . S
C5447 C5450 1.499 . S
C5448 H5428 0.950 . S
C5448 C5447 1.414 . S
C5448 C5449 1.374 . S
C5449 H5429 0.950 . S
C5449 C5445 1.385 . S
C5449 C5448 1.374 . S
C5450 C5447 1.499 . S
C5450 C5451 1.373 . S
C5450 C5452 1.389 . S
C5451 H5430 0.950 . S
C5451 C5450 1.373 . S
C5451 C5467 1.377 . S
C5452 C5450 1.389 . S
C5452 C5453 1.524 . S
C5452 C5466 1.377 . S
C5453 C5452 1.524 . S
C5453 C5454 1.397 . S
C5453 C5458 1.363 . S
C5454 H5431 0.950 . S
C5454 C5453 1.397 . S
C5454 C5455 1.334 . S
C5455 H5432 0.950 . S
C5455 C5454 1.334 . S
C5455 C5456 1.287 . S
C5456 C5455 1.287 . S
C5456 C5457 1.524 . S
C5456 H5475 0.913 . S
C5457 H5433 0.950 . S
C5457 C5456 1.524 . S
C5457 C5458 1.415 . S
C5458 H5434 0.950 . S
C5458 C5453 1.363 . S
C5458 C5457 1.415 . S
C5459 H5435 0.951 . S
C5459 C5460 1.366 1_545 S
C5459 C5461 1.388 1_545 S
C5460 C5459 1.366 1_565 S
C5460 C5464 1.385 . S
C5461 H5436 0.951 1_565 S
C5461 C5459 1.388 1_565 S
C5461 C5462 1.366 . S
C5462 C5461 1.366 . S
C5462 C5463 1.414 . S
C5462 C5465 1.499 . S
C5463 H5437 0.950 . S
C5463 C5462 1.414 . S
C5463 C5464 1.374 . S
C5464 H5438 0.950 . S
C5464 C5460 1.385 . S
C5464 C5463 1.374 . S
C5465 C5462 1.499 . S
C5465 C5466 1.373 . S
C5465 C5467 1.389 . S
C5466 H5439 0.950 . S
C5466 C5452 1.377 . S
C5466 C5465 1.373 . S
C5467 C5451 1.377 . S
C5467 C5465 1.389 . S
C5467 C5468 1.524 . S
C5468 C5467 1.524 . S
C5468 C5469 1.397 . S
C5468 C5473 1.363 . S
C5469 H5440 0.950 . S
C5469 C5468 1.397 . S
C5469 C5470 1.334 . S
C5470 H5441 0.950 . S
C5470 C5469 1.334 . S
C5470 C5471 1.287 . S
C5471 C5470 1.287 . S
C5471 C5472 1.524 1_565 S
C5471 H5474 0.999 1_565 S
C5472 H5442 0.950 . S
C5472 C5471 1.524 1_545 S
C5472 C5473 1.415 1_545 S
C5473 H5443 0.950 . S
C5473 C5468 1.363 . S
C5473 C5472 1.415 1_565 S
H5474 C5471 0.999 1_545 S
H5475 C5456 0.913 . S
H5476 C5494 0.951 . S
H5477 C5496 0.951 . S
H5478 C5498 0.950 . S
H5479 C5499 0.950 . S
H5480 C5501 0.950 . S
H5481 C5504 0.950 . S
H5482 C5505 0.950 . S
H5483 C5507 0.950 . S
H5484 C5508 0.950 . S
H5485 C5509 0.951 . S
H5486 C5511 0.951 . S
H5487 C5513 0.950 . S
H5488 C5514 0.950 . S
H5489 C5516 0.950 . S
H5490 C5519 0.950 . S
H5491 C5520 0.950 . S
H5492 C5522 0.950 . S
H5493 C5523 0.950 . S
C5494 H5476 0.951 . S
C5494 C5495 1.366 . S
C5494 C5496 1.388 . S
C5495 C5494 1.366 . S
C5495 C5499 1.385 . S
C5496 H5477 0.951 . S
C5496 C5494 1.388 . S
C5496 C5497 1.366 . S
C5497 C5496 1.366 . S
C5497 C5498 1.414 . S
C5497 C5500 1.499 . S
C5498 H5478 0.950 . S
C5498 C5497 1.414 . S
C5498 C5499 1.374 . S
C5499 H5479 0.950 . S
C5499 C5495 1.385 . S
C5499 C5498 1.374 . S
C5500 C5497 1.499 . S
C5500 C5501 1.373 . S
C5500 C5502 1.389 . S
C5501 H5480 0.950 . S
C5501 C5500 1.373 . S
C5501 C5517 1.377 . S
C5502 C5500 1.389 . S
C5502 C5503 1.524 . S
C5502 C5516 1.377 . S
C5503 C5502 1.524 . S
C5503 C5504 1.397 . S
C5503 C5508 1.363 . S
C5504 H5481 0.950 . S
C5504 C5503 1.397 . S
C5504 C5505 1.334 . S
C5505 H5482 0.950 . S
C5505 C5504 1.334 . S
C5505 C5506 1.287 . S
C5506 C5505 1.287 . S
C5506 C5507 1.524 . S
C5506 H5525 0.913 . S
C5507 H5483 0.950 . S
C5507 C5506 1.524 . S
C5507 C5508 1.415 . S
C5508 H5484 0.950 . S
C5508 C5503 1.363 . S
C5508 C5507 1.415 . S
C5509 H5485 0.951 . S
C5509 C5510 1.366 . S
C5509 C5511 1.388 . S
C5510 C5509 1.366 . S
C5510 C5514 1.385 . S
C5511 H5486 0.951 . S
C5511 C5509 1.388 . S
C5511 C5512 1.366 . S
C5512 C5511 1.366 . S
C5512 C5513 1.414 . S
C5512 C5515 1.499 . S
C5513 H5487 0.950 . S
C5513 C5512 1.414 . S
C5513 C5514 1.374 . S
C5514 H5488 0.950 . S
C5514 C5510 1.385 . S
C5514 C5513 1.374 . S
C5515 C5512 1.499 . S
C5515 C5516 1.373 . S
C5515 C5517 1.389 . S
C5516 H5489 0.950 . S
C5516 C5502 1.377 . S
C5516 C5515 1.373 . S
C5517 C5501 1.377 . S
C5517 C5515 1.389 . S
C5517 C5518 1.524 . S
C5518 C5517 1.524 . S
C5518 C5519 1.397 . S
C5518 C5523 1.363 . S
C5519 H5490 0.950 . S
C5519 C5518 1.397 . S
C5519 C5520 1.334 . S
C5520 H5491 0.950 . S
C5520 C5519 1.334 . S
C5520 C5521 1.287 . S
C5521 C5520 1.287 . S
C5521 C5522 1.524 . S
C5521 H5524 0.999 . S
C5522 H5492 0.950 . S
C5522 C5521 1.524 . S
C5522 C5523 1.415 . S
C5523 H5493 0.950 . S
C5523 C5518 1.363 . S
C5523 C5522 1.415 . S
H5524 C5521 0.999 . S
H5525 C5506 0.913 . S
H5526 C5544 0.951 . S
H5527 C5546 0.951 . S
H5528 C5548 0.958 . S
H5529 C5549 0.950 . S
H5530 C5551 0.950 . S
H5531 C5554 0.950 . S
H5532 C5555 0.950 . S
H5533 C5557 0.950 . S
H5534 C5558 0.950 1_554 S
H5535 C5559 0.951 . S
H5536 C5561 0.951 . S
H5537 C5563 0.950 . S
H5538 C5564 0.950 . S
H5539 C5566 0.950 . S
H5540 C5569 0.950 . S
H5541 C5570 0.950 . S
H5542 C5572 0.950 . S
H5543 C5573 0.950 . S
C5544 H5526 0.951 . S
C5544 C5545 1.366 . S
C5544 C5546 1.388 . S
C5545 C5544 1.366 . S
C5545 C5549 1.385 1_554 S
C5546 H5527 0.951 . S
C5546 C5544 1.388 . S
C5546 C5547 1.366 . S
C5547 C5546 1.366 . S
C5547 C5548 1.394 1_554 S
C5547 C5550 1.499 . S
C5548 H5528 0.958 . S
C5548 C5547 1.394 1_556 S
C5548 C5549 1.389 . S
C5549 H5529 0.950 . S
C5549 C5545 1.385 1_556 S
C5549 C5548 1.389 . S
C5550 C5547 1.499 . S
C5550 C5551 1.373 . S
C5550 C5552 1.389 . S
C5551 H5530 0.950 . S
C5551 C5550 1.373 . S
C5551 C5567 1.377 . S
C5552 C5550 1.389 . S
C5552 C5553 1.524 1_554 S
C5552 C5566 1.377 . S
C5553 C5552 1.524 1_556 S
C5553 C5554 1.397 . S
C5553 C5558 1.363 . S
C5554 H5531 0.950 . S
C5554 C5553 1.397 . S
C5554 C5555 1.334 . S
C5555 H5532 0.950 . S
C5555 C5554 1.334 . S
C5555 C5556 1.287 . S
C5556 C5555 1.287 . S
C5556 C5557 1.524 . S
C5556 H5575 0.913 . S
C5557 H5533 0.950 . S
C5557 C5556 1.524 . S
C5557 C5558 1.415 . S
C5558 H5534 0.950 1_556 S
C5558 C5553 1.363 . S
C5558 C5557 1.415 . S
C5559 H5535 0.951 . S
C5559 C5560 1.366 . S
C5559 C5561 1.388 . S
C5560 C5559 1.366 . S
C5560 C5564 1.385 . S
C5561 H5536 0.951 . S
C5561 C5559 1.388 . S
C5561 C5562 1.366 . S
C5562 C5561 1.366 . S
C5562 C5563 1.414 . S
C5562 C5565 1.499 . S
C5563 H5537 0.950 . S
C5563 C5562 1.414 . S
C5563 C5564 1.374 . S
C5564 H5538 0.950 . S
C5564 C5560 1.385 . S
C5564 C5563 1.374 . S
C5565 C5562 1.499 . S
C5565 C5566 1.373 . S
C5565 C5567 1.389 . S
C5566 H5539 0.950 . S
C5566 C5552 1.377 . S
C5566 C5565 1.373 . S
C5567 C5551 1.377 . S
C5567 C5565 1.389 . S
C5567 C5568 1.524 . S
C5568 C5567 1.524 . S
C5568 C5569 1.397 . S
C5568 C5573 1.363 . S
C5569 H5540 0.950 . S
C5569 C5568 1.397 . S
C5569 C5570 1.334 . S
C5570 H5541 0.950 . S
C5570 C5569 1.334 . S
C5570 C5571 1.287 . S
C5571 C5570 1.287 . S
C5571 C5572 1.524 . S
C5571 H5574 0.999 . S
C5572 H5542 0.950 . S
C5572 C5571 1.524 . S
C5572 C5573 1.415 . S
C5573 H5543 0.950 . S
C5573 C5568 1.363 . S
C5573 C5572 1.415 . S
H5574 C5571 0.999 . S
H5575 C5556 0.913 . S
H5576 C5594 0.951 . S
H5577 C5596 0.951 . S
H5578 C5598 0.950 . S
H5579 C5599 0.950 . S
H5580 C5601 0.950 . S
H5581 C5604 0.950 . S
H5582 C5605 0.950 . S
H5583 C5607 0.950 . S
H5584 C5608 0.950 . S
H5585 C5609 0.951 . S
H5586 C5611 0.951 . S
H5587 C5613 0.950 . S
H5588 C5614 0.950 . S
H5589 C5616 0.950 . S
H5590 C5619 0.950 . S
H5591 C5620 0.950 . S
H5592 C5622 0.950 . S
H5593 C5623 0.950 . S
C5594 H5576 0.951 . S
C5594 C5595 1.366 . S
C5594 C5596 1.388 . S
C5595 C5594 1.366 . S
C5595 C5599 1.385 . S
C5596 H5577 0.951 . S
C5596 C5594 1.388 . S
C5596 C5597 1.366 . S
C5597 C5596 1.366 . S
C5597 C5598 1.414 . S
C5597 C5600 1.499 . S
C5598 H5578 0.950 . S
C5598 C5597 1.414 . S
C5598 C5599 1.374 . S
C5599 H5579 0.950 . S
C5599 C5595 1.385 . S
C5599 C5598 1.374 . S
C5600 C5597 1.499 . S
C5600 C5601 1.373 . S
C5600 C5602 1.389 . S
C5601 H5580 0.950 . S
C5601 C5600 1.373 . S
C5601 C5617 1.377 . S
C5602 C5600 1.389 . S
C5602 C5603 1.524 . S
C5602 C5616 1.377 . S
C5603 C5602 1.524 . S
C5603 C5604 1.397 . S
C5603 C5608 1.363 . S
C5604 H5581 0.950 . S
C5604 C5603 1.397 . S
C5604 C5605 1.334 . S
C5605 H5582 0.950 . S
C5605 C5604 1.334 . S
C5605 C5606 1.287 . S
C5606 C5605 1.287 . S
C5606 C5607 1.524 . S
C5606 H5625 0.913 . S
C5607 H5583 0.950 . S
C5607 C5606 1.524 . S
C5607 C5608 1.415 . S
C5608 H5584 0.950 . S
C5608 C5603 1.363 . S
C5608 C5607 1.415 . S
C5609 H5585 0.951 . S
C5609 C5610 1.366 . S
C5609 C5611 1.388 . S
C5610 C5609 1.366 . S
C5610 C5614 1.385 . S
C5611 H5586 0.951 . S
C5611 C5609 1.388 . S
C5611 C5612 1.366 . S
C5612 C5611 1.366 . S
C5612 C5613 1.414 . S
C5612 C5615 1.499 . S
C5613 H5587 0.950 . S
C5613 C5612 1.414 . S
C5613 C5614 1.374 . S
C5614 H5588 0.950 . S
C5614 C5610 1.385 . S
C5614 C5613 1.374 . S
C5615 C5612 1.499 . S
C5615 C5616 1.373 . S
C5615 C5617 1.389 . S
C5616 H5589 0.950 . S
C5616 C5602 1.377 . S
C5616 C5615 1.373 . S
C5617 C5601 1.377 . S
C5617 C5615 1.389 . S
C5617 C5618 1.524 . S
C5618 C5617 1.524 . S
C5618 C5619 1.397 . S
C5618 C5623 1.363 . S
C5619 H5590 0.950 . S
C5619 C5618 1.397 . S
C5619 C5620 1.334 . S
C5620 H5591 0.950 . S
C5620 C5619 1.334 . S
C5620 C5621 1.287 . S
C5621 C5620 1.287 . S
C5621 C5622 1.524 . S
C5621 H5624 0.999 . S
C5622 H5592 0.950 . S
C5622 C5621 1.524 . S
C5622 C5623 1.415 . S
C5623 H5593 0.950 . S
C5623 C5618 1.363 . S
C5623 C5622 1.415 . S
H5624 C5621 0.999 . S
H5625 C5606 0.913 . S
H5626 C5644 0.951 . S
H5627 C5646 0.951 . S
H5628 C5648 0.950 . S
H5629 C5649 0.950 . S
H5630 C5651 0.950 . S
H5631 C5654 0.956 . S
H5632 C5655 0.950 . S
H5633 C5657 0.950 . S
H5634 C5658 0.950 . S
H5635 C5659 0.951 . S
H5636 C5661 0.951 . S
H5637 C5663 0.950 . S
H5638 C5664 0.950 . S
H5639 C5666 0.950 . S
H5640 C5669 0.950 . S
H5641 C5670 0.950 . S
H5642 C5672 0.950 . S
H5643 C5673 0.950 . S
C5644 H5626 0.951 . S
C5644 C5645 1.366 . S
C5644 C5646 1.388 . S
C5645 C5644 1.366 . S
C5645 C5649 1.385 . S
C5646 H5627 0.951 . S
C5646 C5644 1.388 . S
C5646 C5647 1.366 . S
C5647 C5646 1.366 . S
C5647 C5648 1.414 . S
C5647 C5650 1.499 . S
C5648 H5628 0.950 . S
C5648 C5647 1.414 . S
C5648 C5649 1.374 . S
C5649 H5629 0.950 . S
C5649 C5645 1.385 . S
C5649 C5648 1.374 . S
C5650 C5647 1.499 . S
C5650 C5651 1.373 . S
C5650 C5652 1.389 . S
C5651 H5630 0.950 . S
C5651 C5650 1.373 . S
C5651 C5667 1.377 . S
C5652 C5650 1.389 . S
C5652 C5653 1.524 . S
C5652 C5666 1.377 . S
C5653 C5652 1.524 . S
C5653 C5654 1.359 1_554 S
C5653 C5658 1.363 . S
C5654 H5631 0.956 . S
C5654 C5653 1.359 1_556 S
C5654 C5655 1.368 . S
C5655 H5632 0.950 . S
C5655 C5654 1.368 . S
C5655 C5656 1.287 . S
C5656 C5655 1.287 . S
C5656 C5657 1.524 . S
C5656 H5675 0.913 . S
C5657 H5633 0.950 . S
C5657 C5656 1.524 . S
C5657 C5658 1.415 1_556 S
C5658 H5634 0.950 . S
C5658 C5653 1.363 . S
C5658 C5657 1.415 1_554 S
C5659 H5635 0.951 . S
C5659 C5660 1.366 . S
C5659 C5661 1.388 . S
C5660 C5659 1.366 . S
C5660 C5664 1.385 . S
C5661 H5636 0.951 . S
C5661 C5659 1.388 . S
C5661 C5662 1.366 . S
C5662 C5661 1.366 . S
C5662 C5663 1.414 . S
C5662 C5665 1.499 . S
C5663 H5637 0.950 . S
C5663 C5662 1.414 . S
C5663 C5664 1.374 . S
C5664 H5638 0.950 . S
C5664 C5660 1.385 . S
C5664 C5663 1.374 . S
C5665 C5662 1.499 . S
C5665 C5666 1.373 . S
C5665 C5667 1.389 . S
C5666 H5639 0.950 . S
C5666 C5652 1.377 . S
C5666 C5665 1.373 . S
C5667 C5651 1.377 . S
C5667 C5665 1.389 . S
C5667 C5668 1.524 . S
C5668 C5667 1.524 . S
C5668 C5669 1.397 . S
C5668 C5673 1.363 . S
C5669 H5640 0.950 . S
C5669 C5668 1.397 . S
C5669 C5670 1.334 . S
C5670 H5641 0.950 . S
C5670 C5669 1.334 . S
C5670 C5671 1.287 . S
C5671 C5670 1.287 . S
C5671 C5672 1.524 . S
C5671 H5674 0.999 . S
C5672 H5642 0.950 . S
C5672 C5671 1.524 . S
C5672 C5673 1.415 . S
C5673 H5643 0.950 . S
C5673 C5668 1.363 . S
C5673 C5672 1.415 . S
H5674 C5671 0.999 . S
H5675 C5656 0.913 . S
H5676 C5694 0.951 . S
H5677 C5696 0.951 . S
H5678 C5698 0.950 . S
H5679 C5699 0.950 . S
H5680 C5701 0.950 . S
H5681 C5704 0.950 . S
H5682 C5705 0.950 . S
H5683 C5707 0.950 . S
H5684 C5708 0.950 . S
H5685 C5709 0.951 . S
H5686 C5711 0.951 . S
H5687 C5713 0.950 . S
H5688 C5714 0.950 . S
H5689 C5716 0.950 . S
H5690 C5719 0.950 . S
H5691 C5720 0.950 . S
H5692 C5722 0.950 . S
H5693 C5723 0.950 . S
C5694 H5676 0.951 . S
C5694 C5695 1.366 . S
C5694 C5696 1.388 . S
C5695 C5694 1.366 . S
C5695 C5699 1.385 . S
C5696 H5677 0.951 . S
C5696 C5694 1.388 . S
C5696 C5697 1.366 . S
C5697 C5696 1.366 . S
C5697 C5698 1.414 . S
C5697 C5700 1.499 . S
C5698 H5678 0.950 . S
C5698 C5697 1.414 . S
C5698 C5699 1.374 . S
C5699 H5679 0.950 . S
C5699 C5695 1.385 . S
C5699 C5698 1.374 . S
C5700 C5697 1.499 . S
C5700 C5701 1.373 . S
C5700 C5702 1.389 . S
C5701 H5680 0.950 . S
C5701 C5700 1.373 . S
C5701 C5717 1.377 . S
C5702 C5700 1.389 . S
C5702 C5703 1.524 . S
C5702 C5716 1.377 . S
C5703 C5702 1.524 . S
C5703 C5704 1.397 . S
C5703 C5708 1.363 . S
C5704 H5681 0.950 . S
C5704 C5703 1.397 . S
C5704 C5705 1.334 . S
C5705 H5682 0.950 . S
C5705 C5704 1.334 . S
C5705 C5706 1.287 . S
C5706 C5705 1.287 . S
C5706 C5707 1.524 . S
C5706 H5725 0.913 . S
C5707 H5683 0.950 . S
C5707 C5706 1.524 . S
C5707 C5708 1.415 . S
C5708 H5684 0.950 . S
C5708 C5703 1.363 . S
C5708 C5707 1.415 . S
C5709 H5685 0.951 . S
C5709 C5710 1.366 . S
C5709 C5711 1.388 . S
C5710 C5709 1.366 . S
C5710 C5714 1.385 . S
C5711 H5686 0.951 . S
C5711 C5709 1.388 . S
C5711 C5712 1.366 . S
C5712 C5711 1.366 . S
C5712 C5713 1.414 . S
C5712 C5715 1.499 . S
C5713 H5687 0.950 . S
C5713 C5712 1.414 . S
C5713 C5714 1.374 . S
C5714 H5688 0.950 . S
C5714 C5710 1.385 . S
C5714 C5713 1.374 . S
C5715 C5712 1.499 . S
C5715 C5716 1.373 . S
C5715 C5717 1.389 . S
C5716 H5689 0.950 . S
C5716 C5702 1.377 . S
C5716 C5715 1.373 . S
C5717 C5701 1.377 . S
C5717 C5715 1.389 . S
C5717 C5718 1.524 . S
C5718 C5717 1.524 . S
C5718 C5719 1.397 . S
C5718 C5723 1.363 . S
C5719 H5690 0.950 . S
C5719 C5718 1.397 . S
C5719 C5720 1.334 . S
C5720 H5691 0.950 . S
C5720 C5719 1.334 . S
C5720 C5721 1.287 . S
C5721 C5720 1.287 . S
C5721 C5722 1.524 . S
C5721 H5724 0.999 . S
C5722 H5692 0.950 . S
C5722 C5721 1.524 . S
C5722 C5723 1.415 . S
C5723 H5693 0.950 . S
C5723 C5718 1.363 . S
C5723 C5722 1.415 . S
H5724 C5721 0.999 . S
H5725 C5706 0.913 . S
H5726 C5744 0.951 . S
H5727 C5746 0.951 . S
H5728 C5748 0.950 . S
H5729 C5749 0.950 . S
H5730 C5751 0.950 . S
H5731 C5754 0.950 . S
H5732 C5755 0.950 . S
H5733 C5757 0.950 . S
H5734 C5758 0.950 . S
H5735 C5759 0.951 . S
H5736 C5761 0.951 . S
H5737 C5763 0.950 . S
H5738 C5764 0.950 . S
H5739 C5766 0.950 . S
H5740 C5769 0.950 . S
H5741 C5770 0.950 . S
H5742 C5772 0.950 . S
H5743 C5773 0.950 . S
C5744 H5726 0.951 . S
C5744 C5745 1.366 . S
C5744 C5746 1.388 . S
C5745 C5744 1.366 . S
C5745 C5749 1.385 . S
C5746 H5727 0.951 . S
C5746 C5744 1.388 . S
C5746 C5747 1.366 . S
C5747 C5746 1.366 . S
C5747 C5748 1.414 . S
C5747 C5750 1.499 . S
C5748 H5728 0.950 . S
C5748 C5747 1.414 . S
C5748 C5749 1.374 . S
C5749 H5729 0.950 . S
C5749 C5745 1.385 . S
C5749 C5748 1.374 . S
C5750 C5747 1.499 . S
C5750 C5751 1.373 . S
C5750 C5752 1.389 . S
C5751 H5730 0.950 . S
C5751 C5750 1.373 . S
C5751 C5767 1.377 . S
C5752 C5750 1.389 . S
C5752 C5753 1.524 . S
C5752 C5766 1.377 . S
C5753 C5752 1.524 . S
C5753 C5754 1.397 . S
C5753 C5758 1.363 . S
C5754 H5731 0.950 . S
C5754 C5753 1.397 . S
C5754 C5755 1.334 . S
C5755 H5732 0.950 . S
C5755 C5754 1.334 . S
C5755 C5756 1.287 . S
C5756 C5755 1.287 . S
C5756 C5757 1.524 . S
C5756 H5775 0.913 . S
C5757 H5733 0.950 . S
C5757 C5756 1.524 . S
C5757 C5758 1.415 . S
C5758 H5734 0.950 . S
C5758 C5753 1.363 . S
C5758 C5757 1.415 . S
C5759 H5735 0.951 . S
C5759 C5760 1.366 . S
C5759 C5761 1.388 . S
C5760 C5759 1.366 . S
C5760 C5764 1.385 . S
C5761 H5736 0.951 . S
C5761 C5759 1.388 . S
C5761 C5762 1.366 . S
C5762 C5761 1.366 . S
C5762 C5763 1.414 . S
C5762 C5765 1.499 . S
C5763 H5737 0.950 . S
C5763 C5762 1.414 . S
C5763 C5764 1.374 . S
C5764 H5738 0.950 . S
C5764 C5760 1.385 . S
C5764 C5763 1.374 . S
C5765 C5762 1.499 . S
C5765 C5766 1.373 . S
C5765 C5767 1.389 . S
C5766 H5739 0.950 . S
C5766 C5752 1.377 . S
C5766 C5765 1.373 . S
C5767 C5751 1.377 . S
C5767 C5765 1.389 . S
C5767 C5768 1.524 . S
C5768 C5767 1.524 . S
C5768 C5769 1.397 . S
C5768 C5773 1.363 . S
C5769 H5740 0.950 . S
C5769 C5768 1.397 . S
C5769 C5770 1.334 . S
C5770 H5741 0.950 . S
C5770 C5769 1.334 . S
C5770 C5771 1.287 . S
C5771 C5770 1.287 . S
C5771 C5772 1.524 . S
C5771 H5774 0.999 . S
C5772 H5742 0.950 . S
C5772 C5771 1.524 . S
C5772 C5773 1.415 . S
C5773 H5743 0.950 . S
C5773 C5768 1.363 . S
C5773 C5772 1.415 . S
H5774 C5771 0.999 . S
H5775 C5756 0.913 . S
C995 C106 2.150 . S
C1010 C358 2.152 . S
C1045 C65 1.014 . S
C1060 C378 0.995 . S
C1095 C79 0.931 . S
C1110 C425 0.930 . S
C1160 C482 0.718 . S
C1145 C90 0.719 . S
C1195 C21 2.341 . S
C1210 C499 2.371 . S
C1260 C558 1.695 . S
C1245 C35 1.658 . S
C1310 C591 2.740 . S
C1295 C50 2.739 . S
C1345 C6 2.467 . S
C1360 C638 2.504 . S
C1410 C351 1.708 . S
C1395 C232 1.696 . S
C1445 C245 1.336 . S
C1460 C379 1.354 . S
C1510 C418 0.619 . S
C1495 C274 0.609 . S
C1560 C478 2.118 . S
C1545 C175 2.048 . S
C1595 C231 0.346 . S
C1610 C505 0.226 . S
C1660 C551 2.286 . S
C1645 C246 2.271 . S
C1710 C602 0.568 . S
C1695 C273 0.586 . S
C1760 C631 2.502 . S
C1745 C176 2.502 . S
C1810 C362 1.746 1_565 S
C1795 C160 1.692 . S
C1845 C289 2.246 . S
C1860 C658 2.220 . S
C1910 C722 1.206 . S
C1895 C328 1.179 . S
C1960 C758 1.348 . S
C1945 C317 1.349 . S
C1995 C118 1.117 . S
C2010 C642 1.186 . S
C2045 C132 2.584 . S
C2060 C419 2.635 . S
C2095 C331 1.522 . S
C2110 C791 1.523 . S
C2160 C825 0.402 . S
C2145 C303 0.356 . S
C2210 C339 1.691 1_565 S
C2195 C63 1.661 . S
C2260 C831 1.501 . S
C2245 C107 1.496 . S
C2295 C92 0.731 . S
C2310 C442 0.729 . S
C2345 C78 1.180 . S
C2360 C785 1.175 . S
C2410 C518 3.063 . S
C2395 C8 3.041 . S
C2445 C51 1.805 . S
C2460 C699 1.806 . S
C2510 C578 3.087 . S
C2495 C37 3.047 . S
C2560 C859 2.367 . S
C2545 C20 2.351 . S
C2610 C338 1.374 1_556 S
C2595 C147 1.324 . S
C2660 C838 1.494 . S
C2645 C316 1.494 . S
C2695 C119 0.589 . S
C2710 C431 0.590 . S
C2745 C288 2.209 . S
C2760 C779 2.215 . S
C2795 C148 0.394 . S
C2810 C522 0.383 . S
C2860 C698 2.303 . S
C2845 C315 2.283 . S
C2895 C120 0.316 . S
C2910 C585 0.360 1_565 S
C2945 C287 2.326 . S
C2960 C858 2.377 . S
C2995 C188 1.418 . S
C3010 C345 1.447 . S
C3045 C177 2.519 . S
C3060 C671 2.521 . S
C3095 C258 1.147 . S
C3110 C545 1.156 . S
C3145 C247 1.568 . S
C3160 C739 1.558 . S
C3210 C865 0.954 . S
C3195 C272 0.938 . S
C3245 C216 2.284 . S
C3260 C438 2.338 1_565 S
C3310 C458 1.803 . S
C3295 C261 1.750 . S
C3360 C402 0.253 . S
C3345 C205 0.252 . S
C3395 C76 1.708 . S
C3410 C918 1.774 . S
C3460 C818 1.087 . S
C3445 C93 1.112 . S
C3495 C105 0.538 1_455 S
C3510 C945 0.507 . S
C3545 C62 0.719 . S
C3560 C802 0.718 . S
C3595 C49 2.301 . S
C3610 C659 2.330 . S
C3660 C718 2.111 . S
C3645 C9 2.095 1_655 S
C3710 C751 2.645 . S
C3695 C22 2.644 . S
C3760 C878 2.867 . S
C3745 C36 2.874 . S
C3810 C911 1.599 . S
C3795 C260 1.587 . S
C3845 C189 1.207 . S
C3860 C819 1.223 . S
C3910 C938 0.496 . S
C3895 C204 0.480 . S
C3960 C798 1.810 . S
C3945 C217 1.757 . S
C4010 C665 0.267 . S
C3995 C259 0.376 . S
C4045 C190 2.395 . S
C4060 C711 2.410 . S
C4110 C762 0.494 . S
C4095 C203 0.509 . S
C4145 C218 2.539 . S
C4160 C871 2.539 . S
C4210 C922 1.724 . S
C4195 C314 1.666 . S
C4245 C135 2.330 . S
C4260 C498 2.309 . S
C4310 C562 1.148 . S
C4295 C146 1.118 1_565 S
C4360 C598 1.434 1_565 S
C4345 C163 1.430 . S
C4410 C882 1.192 . S
C4395 C300 1.126 . S
C4445 C286 2.448 . S
C4460 C939 2.506 1_655 S
C4510 C471 1.400 . S
C4495 C149 1.399 . S
C4560 C385 0.399 . S
C4545 C121 0.350 . S
C4595 C91 1.625 . S
C4610 C899 1.659 . S
C4660 C391 1.098 . S
C4645 C77 1.072 . S
C4695 C64 0.726 . S
C4710 C962 0.726 . S
C4745 C104 0.811 . S
C4760 C465 0.808 . S
C4795 C34 2.623 . S
C4810 C678 2.666 . S
C4860 C539 1.773 . S
C4845 C23 1.767 . S
C4895 C7 2.604 . S
C4910 C738 2.665 . S
C4945 C48 2.311 . S
C4960 C619 2.330 . S
C5010 C898 1.355 . S
C4995 C329 1.308 . S
C5045 C162 1.501 . S
C5060 C398 1.506 . S
C5110 C951 0.645 . S
C5095 C301 0.643 . S
C5145 C134 2.157 . S
C5160 C459 2.164 . S
C5195 C330 0.424 . S
C5210 C682 0.417 . S
C5260 C538 2.292 . S
C5245 C161 2.277 . S
C5295 C302 0.340 . S
C5310 C745 0.385 . S
C5360 C618 2.345 . S
C5345 C133 2.301 . S
C5410 C905 1.647 . S
C5395 C244 1.612 . S
C5460 C511 2.498 1_665 S
C5445 C219 2.499 . S
C5495 C230 0.970 . S
C5510 C705 0.973 . S
C5560 C579 1.515 . S
C5545 C191 1.530 1_554 S
C5595 C202 1.102 . S
C5610 C625 1.141 . S
C5645 C174 2.651 . S
C5660 C958 2.713 . S
C5710 C778 1.726 . S
C5695 C233 1.667 . S
C5760 C842 0.293 . S
C5745 C275 0.280 . S
