# Generated by pormake.
# Topology ssa, (4,4)-cn, num edge types: 1
# Building blocks:
#     Node 0, Type 0, BuildingBlock: KOZSID_clean_sbu_0, # of connection points: 4
#     Node 1, Type 0, BuildingBlock: KOZSID_clean_sbu_0, # of connection points: 4
#     Node 2, Type 0, BuildingBlock: KOZSID_clean_sbu_0, # of connection points: 4
#     Node 3, Type 0, BuildingBlock: KOZSID_clean_sbu_0, # of connection points: 4
#     Node 4, Type 0, BuildingBlock: KOZSID_clean_sbu_0, # of connection points: 4
#     Node 5, Type 0, BuildingBlock: KOZSID_clean_sbu_0, # of connection points: 4
#     Node 6, Type 1, BuildingBlock: NAWXER_clean_sbu_0, # of connection points: 4
#     Node 7, Type 1, BuildingBlock: NAWXER_clean_sbu_0, # of connection points: 4
#     Node 8, Type 1, BuildingBlock: NAWXER_clean_sbu_0, # of connection points: 4
#     Node 9, Type 1, BuildingBlock: NAWXER_clean_sbu_0, # of connection points: 4
#     Node 10, Type 1, BuildingBlock: NAWXER_clean_sbu_0, # of connection points: 4
#     Node 11, Type 1, BuildingBlock: NAWXER_clean_sbu_0, # of connection points: 4
#     Edge 12, Type (0, 1), BuildingBlock: XUDNAN_clean_linker_2, # of connection points: 2
#     Edge 13, Type (0, 1), BuildingBlock: XUDNAN_clean_linker_2, # of connection points: 2
#     Edge 14, Type (0, 1), BuildingBlock: XUDNAN_clean_linker_2, # of connection points: 2
#     Edge 15, Type (0, 1), BuildingBlock: XUDNAN_clean_linker_2, # of connection points: 2
#     Edge 16, Type (0, 1), BuildingBlock: XUDNAN_clean_linker_2, # of connection points: 2
#     Edge 17, Type (0, 1), BuildingBlock: XUDNAN_clean_linker_2, # of connection points: 2
#     Edge 18, Type (0, 1), BuildingBlock: XUDNAN_clean_linker_2, # of connection points: 2
#     Edge 19, Type (0, 1), BuildingBlock: XUDNAN_clean_linker_2, # of connection points: 2
#     Edge 20, Type (0, 1), BuildingBlock: XUDNAN_clean_linker_2, # of connection points: 2
#     Edge 21, Type (0, 1), BuildingBlock: XUDNAN_clean_linker_2, # of connection points: 2
#     Edge 22, Type (0, 1), BuildingBlock: XUDNAN_clean_linker_2, # of connection points: 2
#     Edge 23, Type (0, 1), BuildingBlock: XUDNAN_clean_linker_2, # of connection points: 2
#     Edge 24, Type (0, 1), BuildingBlock: XUDNAN_clean_linker_2, # of connection points: 2
#     Edge 25, Type (0, 1), BuildingBlock: XUDNAN_clean_linker_2, # of connection points: 2
#     Edge 26, Type (0, 1), BuildingBlock: XUDNAN_clean_linker_2, # of connection points: 2
#     Edge 27, Type (0, 1), BuildingBlock: XUDNAN_clean_linker_2, # of connection points: 2
#     Edge 28, Type (0, 1), BuildingBlock: XUDNAN_clean_linker_2, # of connection points: 2
#     Edge 29, Type (0, 1), BuildingBlock: XUDNAN_clean_linker_2, # of connection points: 2
#     Edge 30, Type (0, 1), BuildingBlock: XUDNAN_clean_linker_2, # of connection points: 2
#     Edge 31, Type (0, 1), BuildingBlock: XUDNAN_clean_linker_2, # of connection points: 2
#     Edge 32, Type (0, 1), BuildingBlock: XUDNAN_clean_linker_2, # of connection points: 2
#     Edge 33, Type (0, 1), BuildingBlock: XUDNAN_clean_linker_2, # of connection points: 2
#     Edge 34, Type (0, 1), BuildingBlock: XUDNAN_clean_linker_2, # of connection points: 2
#     Edge 35, Type (0, 1), BuildingBlock: XUDNAN_clean_linker_2, # of connection points: 2
# Relax obj value: 0.011
# Max RMSD: 0.029
# Mean RMSD: 0.017
data_MOF--net-ssa--node1-KOZSID_clean_sbu_0--node2-NAWXER_clean_sbu_0--edge1-XUDNAN_clean_linker_2
_symmetry_space_group_name_H-M    P1
_symmetry_Int_Tables_number       1
_symmetry_cell_setting            triclinic
loop_
_symmetry_equiv_pos_as_xyz
'x, y, z'
_cell_length_a     49.352092
_cell_length_b     50.666557
_cell_length_c     41.714032
_cell_angle_alpha  87.440806
_cell_angle_beta   89.803582
_cell_angle_gamma 122.84135
loop_
_atom_site_label
_atom_site_type_symbol
_atom_site_fract_x
_atom_site_fract_y
_atom_site_fract_z
_atom_type_partial_charge
C0 C 0.93275 0.50044 1.00192 0.0
C1 C 0.90302 0.48948 0.01667 0.0
C2 C 0.90304 0.47631 0.04598 0.0
C3 C 0.93265 0.47993 0.04726 0.0
N4 N 0.95199 0.49569 0.02113 0.0
Co5 Co 0.99439 0.50124 0.01004 0.0
N6 N 0.99171 0.47566 0.04945 0.0
C7 C 0.96883 0.46395 0.0733 0.0
C8 C 0.97489 0.45015 0.09887 0.0
C9 C 0.00378 0.45395 0.09129 0.0
C10 C 0.01363 0.46974 0.06129 0.0
N11 N 0.03551 0.5049 0.99747 0.0
C12 C 0.05202 0.4942 0.01312 0.0
C13 C 0.07934 0.50135 0.99556 0.0
C14 C 0.08063 0.51802 0.96829 0.0
C15 C 0.05396 0.51982 0.9706 0.0
N16 N 0.99789 0.52817 0.97165 0.0
C17 C 0.02342 0.54481 0.95088 0.0
C18 C 0.0178 0.55957 0.92585 0.0
C19 C 0.98656 0.55104 0.93048 0.0
C20 C 0.97491 0.53153 0.95822 0.0
N21 N 0.01866 0.53975 0.03531 0.0
C22 C 0.05479 0.59162 0.07418 0.0
C23 C 0.0687 0.58824 0.04675 0.0
C24 C 0.05033 0.56264 0.02766 0.0
C25 C 0.02222 0.56909 0.0813 0.0
C26 C 0.00482 0.54357 0.06185 0.0
N27 N 0.97021 0.46315 0.98496 0.0
C28 C 0.95578 0.43981 0.93342 0.0
C29 C 0.92958 0.412 0.94752 0.0
C30 C 0.92487 0.40968 0.98082 0.0
C31 C 0.94524 0.4354 0.99897 0.0
C32 C 0.976 0.46473 0.95253 0.0
H33 H 0.93987 0.43264 0.02418 0.0
H34 H 0.99577 0.48534 0.94045 0.0
H35 H 0.06256 0.56189 0.007 0.0
H36 H 0.98033 0.52708 0.06919 0.0
C37 C 0.94195 0.46629 0.07095 0.0
C38 C 0.94106 0.51335 0.96887 0.0
C39 C 0.04496 0.48066 0.04603 0.0
C40 C 0.04818 0.53915 0.95077 0.0
H41 H 0.88302 0.48988 0.00667 0.0
H42 H 0.88319 0.46401 0.06346 0.0
H43 H 0.96038 0.43924 0.12074 0.0
H44 H 0.01646 0.44663 0.10657 0.0
H45 H 0.09732 0.49641 1.00261 0.0
H46 H 0.09968 0.529 0.9499 0.0
H47 H 0.03341 0.57241 0.90504 0.0
H48 H 0.97334 0.55683 0.91413 0.0
H49 H 0.09372 0.60541 0.03987 0.0
H50 H 0.01033 0.57062 0.10237 0.0
H51 H 0.96072 0.44228 0.90777 0.0
H52 H 0.90497 0.3884 0.99272 0.0
C53 C 0.53236 0.02357 0.56871 0.0
C54 C 0.53309 0.01261 0.59956 0.0
C55 C 0.50548 0.98345 0.60415 0.0
C56 C 0.48947 0.9784 0.57602 0.0
N57 N 0.50568 0.00209 0.55333 0.0
Co58 Co 0.48908 0.00669 0.51096 0.0
N59 N 0.44695 0.96542 0.51885 0.0
C60 C 0.43832 0.94503 0.54467 0.0
C61 C 0.40935 0.91712 0.54177 0.0
C62 C 0.3994 0.91942 0.51185 0.0
C63 C 0.42293 0.94871 0.4983 0.0
N64 N 0.47185 0.01222 0.46952 0.0
C65 C 0.44456 0.99159 0.45445 0.0
C66 C 0.44226 0.00446 0.42533 0.0
C67 C 0.46945 0.03402 0.42159 0.0
C68 C 0.48674 0.03752 0.44851 0.0
N69 N 0.53183 0.04695 0.50211 0.0
C70 C 0.5415 0.06572 0.47494 0.0
C71 C 0.57182 0.09238 0.47638 0.0
C72 C 0.58175 0.09083 0.50654 0.0
C73 C 0.55672 0.06331 0.5218 0.0
N74 N 0.5052 0.98333 0.48912 0.0
C75 C 0.51233 0.9404 0.45515 0.0
C76 C 0.51773 0.968 0.4397 0.0
C77 C 0.51426 0.98916 0.45711 0.0
C78 C 0.50652 0.93636 0.48834 0.0
C79 C 0.50346 0.95806 0.50475 0.0
N80 N 0.47265 0.02972 0.53302 0.0
C81 C 0.47673 0.07843 0.54375 0.0
C82 C 0.45514 0.06392 0.5701 0.0
C83 C 0.44165 0.03185 0.57681 0.0
C84 C 0.45069 0.01541 0.55827 0.0
C85 C 0.48467 0.0609 0.52531 0.0
H86 H 0.44001 0.99127 0.56543 0.0
H87 H 0.50097 0.07321 0.50524 0.0
H88 H 0.51758 0.00935 0.44392 0.0
H89 H 0.49817 0.95301 0.52987 0.0
C90 C 0.45863 0.95242 0.57063 0.0
C91 C 0.55612 0.0554 0.5559 0.0
C92 C 0.42265 0.95861 0.465 0.0
C93 C 0.51927 0.06096 0.45159 0.0
H94 H 0.55113 0.02487 0.61729 0.0
H95 H 0.49744 0.9683 0.62586 0.0
H96 H 0.3975 0.89707 0.55888 0.0
H97 H 0.37787 0.90126 0.50072 0.0
H98 H 0.42383 0.9931 0.40777 0.0
H99 H 0.47687 0.05005 0.4006 0.0
H100 H 0.58422 0.11177 0.45856 0.0
H101 H 0.60403 0.10873 0.51683 0.0
H102 H 0.52278 0.97236 0.41405 0.0
H103 H 0.50314 0.9158 0.50151 0.0
H104 H 0.48734 0.10315 0.53729 0.0
H105 H 0.42484 0.01956 0.597 0.0
C106 C 0.57723 0.56352 0.95941 0.0
C107 C 0.58572 0.57998 0.92966 0.0
C108 C 0.55887 0.57855 0.91874 0.0
C109 C 0.53543 0.56139 0.94218 0.0
N110 N 0.54602 0.55255 0.96769 0.0
Co111 Co 0.51862 0.52541 1.00545 0.0
N112 N 0.48343 0.53159 0.99411 0.0
C113 C 0.47912 0.54168 0.96543 0.0
C114 C 0.45341 0.54526 0.9659 0.0
C115 C 0.44111 0.53718 0.99693 0.0
C116 C 0.46016 0.52921 0.01356 0.0
N117 N 0.49101 0.49841 0.04291 0.0
C118 C 0.46682 0.49858 0.05805 0.0
C119 C 0.45487 0.47754 0.08464 0.0
C120 C 0.47247 0.46387 0.08607 0.0
C121 C 0.49417 0.47737 0.06044 0.0
N122 N 0.55374 0.51917 0.01738 0.0
C123 C 0.55124 0.4975 0.0393 0.0
C124 C 0.57984 0.49954 0.04362 0.0
C125 C 0.60149 0.52342 0.02255 0.0
C126 C 0.58473 0.53438 0.00609 0.0
N127 N 0.53729 0.5622 0.03166 0.0
C128 C 0.55514 0.61129 0.07224 0.0
C129 C 0.55298 0.58381 0.0836 0.0
C130 C 0.54454 0.55981 0.06285 0.0
C131 C 0.54967 0.61439 0.0398 0.0
C132 C 0.54054 0.58948 0.01996 0.0
N133 N 0.49954 0.48825 0.97935 0.0
C134 C 0.50646 0.45872 0.94009 0.0
C135 C 0.47378 0.43446 0.94304 0.0
C136 C 0.45402 0.43823 0.96424 0.0
C137 C 0.4673 0.46534 0.98194 0.0
C138 C 0.51872 0.48491 0.95848 0.0
H139 H 0.45153 0.46763 0.99793 0.0
H140 H 0.54387 0.50244 0.95557 0.0
H141 H 0.5427 0.53883 0.07249 0.0
H142 H 0.53497 0.59187 0.99548 0.0
C143 C 0.50391 0.55474 0.94189 0.0
C144 C 0.597 0.55345 0.97556 0.0
C145 C 0.45542 0.51881 0.04753 0.0
C146 C 0.52259 0.47771 0.05744 0.0
H147 H 0.60839 0.59067 0.91631 0.0
H148 H 0.55664 0.58852 0.89618 0.0
H149 H 0.4459 0.55473 0.94667 0.0
H150 H 0.42097 0.5377 0.00642 0.0
H151 H 0.43621 0.47319 0.10178 0.0
H152 H 0.4713 0.44796 0.10504 0.0
H153 H 0.58442 0.48536 0.06007 0.0
H154 H 0.62629 0.5306 0.0182 0.0
H155 H 0.55736 0.58073 0.1085 0.0
H156 H 0.55105 0.63532 0.03019 0.0
H157 H 0.52279 0.45785 0.92342 0.0
H158 H 0.42859 0.42025 0.9676 0.0
C159 C 0.962 0.449 0.53128 0.0
C160 C 0.93049 0.4302 0.52133 0.0
C161 C 0.92491 0.44887 0.50137 0.0
C162 C 0.95324 0.47789 0.49997 0.0
N163 N 0.97655 0.47849 0.51734 0.0
Co164 Co 0.02053 0.51622 0.52248 0.0
N165 N 0.0164 0.53916 0.48499 0.0
C166 C 0.98882 0.53241 0.47147 0.0
C167 C 0.99414 0.55148 0.44453 0.0
C168 C 0.02711 0.57126 0.44093 0.0
C169 C 0.04004 0.56319 0.46606 0.0
N170 N 0.06414 0.55404 0.52749 0.0
C171 C 0.0837 0.57681 0.50507 0.0
C172 C 0.11306 0.59861 0.51772 0.0
C173 C 0.11169 0.58873 0.54928 0.0
C174 C 0.08162 0.56157 0.55403 0.0
N175 N 0.02505 0.49357 0.56008 0.0
C176 C 0.04701 0.50718 0.58299 0.0
C177 C 0.04366 0.48614 0.60703 0.0
C178 C 0.01768 0.45762 0.59909 0.0
C179 C 0.00651 0.4628 0.57047 0.0
N180 N 0.03904 0.49993 0.49392 0.0
C181 C 0.07129 0.48751 0.44739 0.0
C182 C 0.08435 0.49718 0.47763 0.0
C183 C 0.06771 0.50299 0.50064 0.0
C184 C 0.04102 0.48277 0.44163 0.0
C185 C 0.0253 0.48894 0.46515 0.0
N186 N 1.00218 0.533 0.5508 0.0
C187 C 0.99714 0.57561 0.56596 0.0
C188 C 0.97319 0.55579 0.58928 0.0
C189 C 0.96485 0.52461 0.59341 0.0
C190 C 0.97947 0.51375 0.57403 0.0
C191 C 0.01131 0.56377 0.54702 0.0
H192 H 0.972 0.48955 0.57777 0.0
H193 H 0.02934 0.57942 0.52895 0.0
H194 H 0.07867 0.51116 0.52341 0.0
H195 H 1.00267 0.48618 0.45943 0.0
C196 C 0.95995 0.50389 0.47996 0.0
C197 C 0.97582 0.43899 0.5566 0.0
C198 C 0.07454 0.57849 0.47207 0.0
C199 C 0.0721 0.53906 0.57955 0.0
H200 H 0.91305 0.40575 0.52837 0.0
H201 H 0.90295 0.44196 0.489 0.0
H202 H 0.97636 0.54979 0.42816 0.0
H203 H 0.03993 0.58898 0.42167 0.0
H204 H 0.13337 0.6191 0.50526 0.0
H205 H 0.13107 0.599 0.56603 0.0
H206 H 0.05841 0.4909 0.62781 0.0
H207 H 0.00745 0.43573 0.61337 0.0
H208 H 0.1074 0.50059 0.48335 0.0
H209 H 0.02996 0.47543 0.41862 0.0
H210 H 0.00434 0.59985 0.5618 0.0
H211 H 0.94706 0.50853 0.61157 0.0
C212 C 0.48264 0.98483 0.05754 0.0
C213 C 0.48666 0.99795 0.08694 0.0
C214 C 0.51549 0.02664 0.08447 0.0
C215 C 0.52731 0.02934 0.05375 0.0
N216 N 0.50754 0.00427 0.03682 0.0
Co217 Co 0.51568 0.9967 0.99265 0.0
N218 N 0.5629 0.02793 0.99491 0.0
C219 C 0.57712 0.05002 0.01679 0.0
C220 C 0.60993 0.06929 0.01194 0.0
C221 C 0.61676 0.05924 0.98495 0.0
C222 C 0.58758 0.03437 0.97463 0.0
N223 N 0.52336 0.98879 0.94829 0.0
C224 C 0.55136 0.99856 0.93187 0.0
C225 C 0.54535 0.98886 0.90061 0.0
C226 C 0.51265 0.9732 0.89721 0.0
C227 C 0.50044 0.97411 0.92643 0.0
N228 N 0.46845 0.96572 0.99097 0.0
C229 C 0.45144 0.95427 0.96442 0.0
C230 C 0.41952 0.93151 0.97133 0.0
C231 C 0.41646 0.92838 1.00428 0.0
C232 C 0.44676 0.94956 0.0156 0.0
N233 N 0.51026 0.03017 0.9754 0.0
C234 C 0.50569 0.08018 0.95195 0.0
C235 C 0.4828 0.0577 0.97455 0.0
C236 C 0.4857 0.03291 0.98622 0.0
C237 C 0.53014 0.07665 0.94076 0.0
C238 C 0.53182 0.05154 0.95251 0.0
N239 N 0.52094 0.96334 0.01002 0.0
C240 C 0.49983 0.90797 0.01549 0.0
C241 C 0.51447 0.91181 0.04516 0.0
C242 C 0.53548 0.94254 0.05483 0.0
C243 C 0.53836 0.96792 0.03692 0.0
C244 C 0.5036 0.93407 0.99817 0.0
H245 H 0.55271 0.99092 0.04629 0.0
H246 H 0.49059 0.93018 0.97638 0.0
H247 H 0.46835 0.01618 1.00421 0.0
H248 H 0.55096 0.04982 0.94311 0.0
C249 C 0.55931 0.05031 0.0429 0.0
C250 C 0.4548 0.95423 0.04956 0.0
C251 C 0.58393 0.02129 0.94296 0.0
C252 C 0.46763 0.95951 0.9349 0.0
H253 H 0.47075 0.98755 0.108 0.0
H254 H 0.5274 0.04253 0.10351 0.0
H255 H 0.62688 0.08841 0.02627 0.0
H256 H 0.64034 0.0699 0.97334 0.0
H257 H 0.56288 0.99376 0.8818 0.0
H258 H 0.49942 0.96256 0.87591 0.0
H259 H 0.40118 0.91722 0.95456 0.0
H260 H 0.39466 0.9119 0.01818 0.0
H261 H 0.46344 0.0597 0.98362 0.0
H262 H 0.54799 0.0933 0.92291 0.0
H263 H 0.48423 0.88482 0.00646 0.0
H264 H 0.5474 0.9469 0.07751 0.0
C265 C 0.49201 0.54314 0.48773 0.0
C266 C 0.48114 0.56025 0.50164 0.0
C267 C 0.46453 0.54364 0.52924 0.0
C268 C 0.4663 0.51752 0.53054 0.0
N269 N 0.48394 0.51698 0.50598 0.0
Co270 Co 0.49072 0.48245 0.4966 0.0
N271 N 0.46163 0.45532 0.53381 0.0
C272 C 0.44469 0.46188 0.55386 0.0
C273 C 0.42898 0.43973 0.57866 0.0
C274 C 0.43719 0.41828 0.5748 0.0
C275 C 0.45745 0.42861 0.54766 0.0
N276 N 0.49757 0.448 0.4873 0.0
C277 C 0.4899 0.42214 0.50587 0.0
C278 C 0.5012 0.40525 0.49231 0.0
C279 C 0.51762 0.4217 0.46455 0.0
C280 C 0.51534 0.44754 0.46283 0.0
N281 N 0.51969 0.50964 0.4593 0.0
C282 C 0.53649 0.50305 0.43911 0.0
C283 C 0.55179 0.52506 0.41406 0.0
C284 C 0.54348 0.54646 0.41797 0.0
C285 C 0.52361 0.53625 0.44532 0.0
N286 N 0.52805 0.50003 0.52551 0.0
C287 C 0.5762 0.51512 0.57066 0.0
C288 C 0.5792 0.50731 0.53977 0.0
C289 C 0.55529 0.50043 0.51755 0.0
C290 C 0.5495 0.51663 0.57812 0.0
C291 C 0.5259 0.50898 0.55545 0.0
N292 N 0.45332 0.46455 0.46781 0.0
C293 C 0.4302 0.44473 0.41642 0.0
C294 C 0.40296 0.44514 0.42438 0.0
C295 C 0.40079 0.45434 0.45484 0.0
C296 C 0.42584 0.46352 0.47612 0.0
C297 C 0.45495 0.45458 0.43824 0.0
H298 H 0.42268 0.47028 0.49891 0.0
H299 H 0.47548 0.45465 0.43027 0.0
H300 H 0.55905 0.49484 0.49432 0.0
H301 H 0.50574 0.50971 0.56306 0.0
C302 C 0.44811 0.49119 0.55172 0.0
C303 C 0.50633 0.55053 0.45545 0.0
C304 C 0.47546 0.41488 0.53809 0.0
C305 C 0.53331 0.47383 0.44147 0.0
H306 H 0.48347 0.58156 0.49183 0.0
H307 H 0.451 0.54892 0.54527 0.0
H308 H 0.41508 0.44026 0.59846 0.0
H309 H 0.43038 0.39836 0.59118 0.0
H310 H 0.49926 0.38423 0.50247 0.0
H311 H 0.5314 0.41655 0.44871 0.0
H312 H 0.56554 0.52448 0.39413 0.0
H313 H 0.54999 0.5664 0.40169 0.0
H314 H 0.59995 0.50661 0.53274 0.0
H315 H 0.54635 0.52286 0.60173 0.0
H316 H 0.433 0.43793 0.39299 0.0
H317 H 0.37988 0.45464 0.46219 0.0
C318 C 0.2585 0.44809 0.26562 0.0
C319 C 0.2033 0.47477 0.18458 0.0
O320 O 0.23723 0.42887 0.24691 0.0
Zn321 Zn 0.23 0.45917 0.22402 0.0
O322 O 0.26727 0.47697 0.26369 0.0
Zn323 Zn 0.25803 0.50786 0.2373 0.0
O324 O 0.2407 0.52072 0.27158 0.0
O325 O 0.20879 0.47078 0.26075 0.0
O326 O 0.22458 0.49784 0.20033 0.0
O327 O 0.19831 0.44753 0.19029 0.0
O328 O 0.27481 0.48827 0.19829 0.0
O329 O 0.29987 0.53653 0.21482 0.0
C330 C 0.21439 0.4941 0.27683 0.0
C331 C 0.2993 0.51668 0.19665 0.0
C332 C 0.81705 0.25586 0.69693 0.0
C333 C 0.74109 0.17306 0.77696 0.0
O334 O 0.79633 0.26114 0.70827 0.0
Zn335 Zn 0.75587 0.23845 0.7421 0.0
O336 O 0.81539 0.23079 0.70633 0.0
Zn337 Zn 0.77847 0.21333 0.73638 0.0
O338 O 0.73812 0.19927 0.70623 0.0
O339 O 0.71937 0.22898 0.71596 0.0
O340 O 0.76371 0.17411 0.76097 0.0
O341 O 0.73595 0.19521 0.77218 0.0
O342 O 0.77036 0.27 0.77403 0.0
O343 O 0.79644 0.24576 0.77421 0.0
C344 C 0.71754 0.20683 0.70087 0.0
C345 C 0.79152 0.26583 0.78598 0.0
C346 C 0.52146 0.79218 0.31639 0.0
C347 C 0.54718 0.73986 0.23612 0.0
O348 O 0.5494 0.80031 0.30617 0.0
Zn349 Zn 0.53577 0.76669 0.27632 0.0
O350 O 0.49657 0.76805 0.3053 0.0
Zn351 Zn 0.48546 0.73381 0.27089 0.0
O352 O 0.46271 0.69473 0.29628 0.0
O353 O 0.51455 0.72363 0.30658 0.0
O354 O 0.51691 0.72693 0.24195 0.0
O355 O 0.56746 0.76433 0.2505 0.0
O356 O 0.51429 0.77923 0.23914 0.0
O357 O 0.46251 0.74217 0.23852 0.0
C358 C 0.48662 0.69815 0.31147 0.0
C359 C 0.48656 0.7681 0.22694 0.0
C360 C 0.79338 0.50938 0.80865 0.0
C361 C 0.72977 0.52674 0.72936 0.0
O362 O 0.77105 0.48836 0.79207 0.0
Zn363 Zn 0.761 0.516 0.76791 0.0
O364 O 0.80114 0.53792 0.80469 0.0
Zn365 Zn 0.78847 0.56582 0.7769 0.0
O366 O 0.7729 0.58088 0.81069 0.0
O367 O 0.74221 0.52968 0.80513 0.0
O368 O 0.75151 0.55148 0.74277 0.0
O369 O 0.72685 0.50056 0.73634 0.0
O370 O 0.80344 0.54402 0.73878 0.0
O371 O 0.82841 0.59364 0.75105 0.0
C372 C 0.7481 0.55406 0.8194 0.0
C373 C 0.82714 0.57261 0.73427 0.0
C374 C 0.30787 0.7912 0.21403 0.0
C375 C 0.2327 0.71635 0.29965 0.0
O376 O 0.2882 0.79828 0.22445 0.0
Zn377 Zn 0.24959 0.78021 0.26034 0.0
O378 O 0.30621 0.76681 0.22602 0.0
Zn379 Zn 0.27054 0.75297 0.25654 0.0
O380 O 0.23054 0.73939 0.22634 0.0
O381 O 0.21239 0.76993 0.23447 0.0
O382 O 0.25437 0.71515 0.28441 0.0
O383 O 0.22894 0.73909 0.29283 0.0
O384 O 0.26764 0.81431 0.29045 0.0
O385 O 0.29246 0.789 0.29001 0.0
C386 C 0.21032 0.74723 0.22017 0.0
C387 C 0.2897 0.81069 0.30094 0.0
C388 C 0.44394 0.27106 0.80088 0.0
C389 C 0.44334 0.19911 0.72504 0.0
O390 O 0.47234 0.27843 0.79246 0.0
Zn391 Zn 0.49398 0.26131 0.76168 0.0
O392 O 0.41958 0.24708 0.78953 0.0
Zn393 Zn 0.4431 0.23442 0.76344 0.0
O394 O 0.46506 0.21975 0.79869 0.0
O395 O 0.51774 0.25226 0.7915 0.0
O396 O 0.41934 0.19766 0.73843 0.0
O397 O 0.47201 0.22131 0.73171 0.0
O398 O 0.51819 0.29619 0.73072 0.0
O399 O 0.46546 0.27175 0.72636 0.0
C400 C 0.49382 0.22888 0.80675 0.0
C401 C 0.49413 0.2935 0.71657 0.0
H402 H 0.05368 0.43534 0.07397 0.0
H403 H 0.09718 0.53609 0.06214 0.0
H404 H 0.14343 0.54507 0.09383 0.0
H405 H 0.07664 0.43522 0.15608 0.0
H406 H 0.08424 0.40452 0.15178 0.0
H407 H 0.05512 0.40594 0.12711 0.0
H408 H 0.08562 0.40668 0.07607 0.0
H409 H 0.11497 0.40548 0.10059 0.0
H410 H 0.12792 0.43663 0.06999 0.0
H411 H 0.18411 0.5434 0.12668 0.0
H412 H 0.21656 0.53174 0.16172 0.0
H413 H 0.147 0.43154 0.15452 0.0
C414 C 0.073 0.45921 0.07822 0.0
C415 C 0.07207 0.48512 0.06576 0.0
C416 C 0.09767 0.51606 0.07152 0.0
C417 C 0.12396 0.52134 0.08941 0.0
C418 C 0.12424 0.49538 0.10142 0.0
C419 C 0.09943 0.46491 0.09633 0.0
C420 C 0.10548 0.44134 0.11297 0.0
C421 C 0.07879 0.42053 0.1385 0.0
C422 C 0.10869 0.42135 0.08843 0.0
C423 C 0.13751 0.46337 0.12829 0.0
C424 C 0.14783 0.4944 0.12102 0.0
C425 C 0.17631 0.51922 0.13256 0.0
C426 C 0.19459 0.51226 0.15252 0.0
C427 C 0.18441 0.48068 0.16101 0.0
C428 C 0.15559 0.4559 0.14832 0.0
H429 H 0.61109 0.06701 0.58481 0.0
H430 H 0.54743 0.10082 0.5755 0.0
H431 H 0.58204 0.14411 0.61096 0.0
H432 H 0.62875 0.08333 0.66815 0.0
H433 H 0.67027 0.09525 0.66325 0.0
H434 H 0.64037 0.0672 0.63729 0.0
H435 H 0.67416 0.10276 0.58754 0.0
H436 H 0.70409 0.13099 0.61335 0.0
H437 H 0.68545 0.14313 0.58429 0.0
H438 H 0.624 0.18368 0.6478 0.0
H439 H 0.66923 0.21583 0.68332 0.0
H440 H 0.70556 0.15607 0.66792 0.0
C441 C 0.60453 0.08354 0.59045 0.0
C442 C 0.57668 0.08073 0.57779 0.0
C443 C 0.56872 0.10275 0.58524 0.0
C444 C 0.58822 0.12733 0.60526 0.0
C445 C 0.61566 0.12959 0.61745 0.0
C446 C 0.62379 0.10825 0.61033 0.0
C447 C 0.65449 0.11587 0.62646 0.0
C448 C 0.64807 0.0888 0.6502 0.0
C449 C 0.68112 0.12365 0.60141 0.0
C450 C 0.66239 0.14475 0.64383 0.0
C451 C 0.63975 0.15234 0.63835 0.0
C452 C 0.6419 0.17796 0.65219 0.0
C453 C 0.66771 0.19613 0.67231 0.0
C454 C 0.69109 0.18863 0.67841 0.0
C455 C 0.68827 0.16263 0.66371 0.0
H456 H 0.5203 0.60356 0.12653 0.0
H457 H 0.60317 0.67393 0.06786 0.0
H458 H 0.61303 0.71449 0.10575 0.0
H459 H 0.49186 0.65225 0.14387 0.0
H460 H 0.47807 0.63618 0.18438 0.0
H461 H 0.47921 0.61219 0.1546 0.0
H462 H 0.51508 0.60109 0.18989 0.0
H463 H 0.51392 0.62459 0.22038 0.0
H464 H 0.55217 0.63349 0.20443 0.0
H465 H 0.61352 0.74726 0.15098 0.0
H466 H 0.60095 0.77025 0.19555 0.0
H467 H 0.5159 0.67845 0.22192 0.0
C468 C 0.54075 0.62746 0.12194 0.0
C469 C 0.5613 0.63571 0.09464 0.0
C470 C 0.58732 0.66728 0.08882 0.0
C471 C 0.59314 0.69035 0.11026 0.0
C472 C 0.57246 0.68144 0.13713 0.0
C473 C 0.54654 0.65078 0.14275 0.0
C474 C 0.52663 0.64754 0.17208 0.0
C475 C 0.4919 0.63642 0.16317 0.0
C476 C 0.52699 0.62537 0.19824 0.0
C477 C 0.54513 0.6812 0.18197 0.0
C478 C 0.57185 0.70038 0.16197 0.0
C479 C 0.59262 0.73244 0.16674 0.0
C480 C 0.58544 0.74528 0.19217 0.0
C481 C 0.55744 0.72615 0.21204 0.0
C482 C 0.5374 0.69368 0.20699 0.0
H483 H 0.90902 0.52359 0.60665 0.0
H484 H 0.99913 0.6131 0.61656 0.0
H485 H 0.97097 0.62973 0.65158 0.0
H486 H 0.85593 0.55263 0.60689 0.0
H487 H 0.82453 0.51843 0.62983 0.0
H488 H 0.85145 0.51512 0.60354 0.0
H489 H 0.86684 0.49154 0.65112 0.0
H490 H 0.83993 0.49469 0.67748 0.0
H491 H 0.8818 0.51297 0.68702 0.0
H492 H 0.93243 0.63466 0.68918 0.0
H493 H 0.88823 0.62679 0.72533 0.0
H494 H 0.82493 0.53375 0.69004 0.0
C495 C 0.92296 0.54674 0.61611 0.0
C496 C 0.95637 0.56696 0.6089 0.0
C497 C 0.97345 0.59726 0.62146 0.0
C498 C 0.95766 0.60687 0.64147 0.0
C499 C 0.92475 0.58602 0.64852 0.0
C500 C 0.90767 0.55661 0.63604 0.0
C501 C 0.87295 0.53783 0.64819 0.0
C502 C 0.84986 0.53059 0.62046 0.0
C503 C 0.86493 0.50748 0.66708 0.0
C504 C 0.87312 0.56095 0.66999 0.0
C505 C 0.90303 0.58878 0.66981 0.0
C506 C 0.90887 0.61303 0.68924 0.0
C507 C 0.88362 0.60842 0.70964 0.0
C508 C 0.85308 0.57969 0.71057 0.0
C509 C 0.84791 0.55605 0.68999 0.0
H510 H 0.39215 0.92729 0.07314 0.0
H511 H 0.47792 0.92511 0.08509 0.0
H512 H 0.44917 0.88138 0.12631 0.0
H513 H 0.36967 0.91371 0.15746 0.0
H514 H 0.3269 0.89031 0.15111 0.0
H515 H 0.35376 0.92014 0.12121 0.0
H516 H 0.33177 0.87847 0.07825 0.0
H517 H 0.30489 0.84849 0.10805 0.0
H518 H 0.33274 0.84361 0.08507 0.0
H519 H 0.40991 0.83592 0.16437 0.0
H520 H 0.36609 0.79794 0.20269 0.0
H521 H 0.307 0.83251 0.16965 0.0
C522 C 0.40458 0.91715 0.08411 0.0
C523 C 0.43689 0.92854 0.07499 0.0
C524 C 0.45289 0.91582 0.0909 0.0
C525 C 0.43673 0.89105 0.11438 0.0
C526 C 0.4046 0.87965 0.12223 0.0
C527 C 0.38887 0.89271 0.10808 0.0
C528 C 0.35503 0.87754 0.12255 0.0
C529 C 0.35113 0.90188 0.13907 0.0
C530 C 0.32961 0.86105 0.09695 0.0
C531 C 0.35416 0.85385 0.14687 0.0
C532 C 0.38283 0.85512 0.14593 0.0
C533 C 0.38747 0.83494 0.16555 0.0
C534 C 0.36238 0.81332 0.18713 0.0
C535 C 0.33319 0.81235 0.18935 0.0
C536 C 0.32912 0.83284 0.16873 0.0
H537 H 0.43748 0.35765 0.5707 0.0
H538 H 0.53556 0.43878 0.56065 0.0
H539 H 0.55215 0.41567 0.60374 0.0
H540 H 0.4357 0.34981 0.6559 0.0
H541 H 0.41121 0.30742 0.65795 0.0
H542 H 0.40793 0.32926 0.62463 0.0
H543 H 0.42044 0.299 0.5849 0.0
H544 H 0.42371 0.27702 0.61812 0.0
H545 H 0.45667 0.29879 0.5891 0.0
H546 H 0.55724 0.38421 0.6495 0.0
H547 H 0.55036 0.34762 0.69477 0.0
H548 H 0.44823 0.2883 0.67603 0.0
C549 C 0.46243 0.37039 0.57762 0.0
C550 C 0.4853 0.39996 0.56274 0.0
C551 C 0.51781 0.41603 0.57197 0.0
C552 C 0.52739 0.40311 0.59637 0.0
C553 C 0.50408 0.37413 0.61119 0.0
C554 C 0.47226 0.35798 0.60216 0.0
C555 C 0.45163 0.328 0.62282 0.0
C556 C 0.42505 0.32868 0.64143 0.0
C557 C 0.43727 0.29899 0.60252 0.0
C558 C 0.4767 0.32986 0.64505 0.0
C559 C 0.50686 0.35647 0.63782 0.0
C560 C 0.53374 0.36327 0.65533 0.0
C561 C 0.5296 0.34235 0.68099 0.0
C562 C 0.49876 0.31515 0.68901 0.0
C563 C 0.47211 0.30893 0.67062 0.0
H564 H 0.55404 0.94303 0.40823 0.0
H565 H 0.46354 0.879 0.46061 0.0
H566 H 0.45736 0.8347 0.43191 0.0
H567 H 0.5299 0.90537 0.33249 0.0
H568 H 0.56857 0.91136 0.32295 0.0
H569 H 0.56616 0.93846 0.34747 0.0
H570 H 0.59678 0.92894 0.39206 0.0
H571 H 0.59914 0.9017 0.36773 0.0
H572 H 0.58135 0.88937 0.40775 0.0
H573 H 0.45975 0.79757 0.39735 0.0
H574 H 0.47081 0.76899 0.35866 0.0
H575 H 0.56088 0.85544 0.32888 0.0
C576 C 0.53296 0.91966 0.41353 0.0
C577 C 0.50939 0.9144 0.43692 0.0
C578 C 0.48213 0.88349 0.44322 0.0
C579 C 0.47833 0.85818 0.42694 0.0
C580 C 0.50209 0.86398 0.40443 0.0
C581 C 0.52893 0.89385 0.39765 0.0
C582 C 0.55079 0.8932 0.3723 0.0
C583 C 0.55404 0.91329 0.34201 0.0
C584 C 0.58398 0.90394 0.38578 0.0
C585 C 0.5319 0.85836 0.3659 0.0
C586 C 0.50383 0.84211 0.3847 0.0
C587 C 0.48173 0.80997 0.38261 0.0
C588 C 0.48823 0.79394 0.36051 0.0
C589 C 0.51678 0.80988 0.34087 0.0
C590 C 0.53909 0.84253 0.3439 0.0
H591 H 0.65546 0.59861 0.94439 0.0
H592 H 0.58806 0.49773 0.96012 0.0
H593 H 0.62154 0.48831 0.92513 0.0
H594 H 0.66965 0.59569 0.86052 0.0
H595 H 0.71184 0.62664 0.85985 0.0
H596 H 0.68432 0.62625 0.88865 0.0
H597 H 0.71981 0.62759 0.93493 0.0
H598 H 0.74744 0.62793 0.90627 0.0
H599 H 0.72939 0.59796 0.9385 0.0
H600 H 0.65972 0.48865 0.88791 0.0
H601 H 0.70032 0.49846 0.84718 0.0
H602 H 0.74385 0.5993 0.8511 0.0
C603 C 0.64796 0.57461 0.94049 0.0
C604 C 0.61907 0.54893 0.95512 0.0
C605 C 0.61001 0.51783 0.94938 0.0
C606 C 0.62894 0.51217 0.92954 0.0
C607 C 0.65688 0.53782 0.91519 0.0
C608 C 0.66645 0.56845 0.92008 0.0
C609 C 0.69671 0.59142 0.89978 0.0
C610 C 0.69024 0.61117 0.87578 0.0
C611 C 0.72502 0.61247 0.92115 0.0
C612 C 0.70229 0.56875 0.88268 0.0
C613 C 0.67903 0.53802 0.89241 0.0
C614 C 0.67814 0.51259 0.88006 0.0
C615 C 0.7014 0.51852 0.85677 0.0
C616 C 0.72537 0.5497 0.84567 0.0
C617 C 0.72599 0.57523 0.85914 0.0
H618 H 0.09248 0.63332 0.4368 0.0
H619 H 0.11423 0.56151 0.44977 0.0
H620 H 0.15705 0.58859 0.40719 0.0
H621 H 0.10445 0.64395 0.35016 0.0
H622 H 0.12243 0.68586 0.34957 0.0
H623 H 0.0935 0.66067 0.38097 0.0
H624 H 0.13494 0.69318 0.42376 0.0
H625 H 0.16403 0.71839 0.39249 0.0
H626 H 0.17414 0.69851 0.42233 0.0
H627 H 0.19757 0.62354 0.36256 0.0
H628 H 0.23293 0.66411 0.32046 0.0
H629 H 0.1845 0.713 0.33642 0.0
C630 C 0.10598 0.6231 0.43021 0.0
C631 C 0.09972 0.59498 0.44597 0.0
C632 C 0.11848 0.5828 0.43759 0.0
C633 C 0.14281 0.59801 0.41344 0.0
C634 C 0.14822 0.6255 0.39796 0.0
C635 C 0.13036 0.63799 0.40606 0.0
C636 C 0.14129 0.66804 0.38606 0.0
C637 C 0.11378 0.6644 0.36547 0.0
C638 C 0.15438 0.69619 0.40744 0.0
C639 C 0.16803 0.67049 0.36544 0.0
C640 C 0.17168 0.64574 0.37265 0.0
C641 C 0.19491 0.64303 0.35673 0.0
C642 C 0.21493 0.66621 0.33283 0.0
C643 C 0.21163 0.69183 0.32502 0.0
C644 C 0.18776 0.69379 0.3417 0.0
H645 H 0.45825 0.08071 0.91841 0.0
H646 H 0.5533 0.14139 0.95611 0.0
H647 H 0.55837 0.18731 0.92667 0.0
H648 H 0.47712 0.11477 0.84177 0.0
H649 H 0.43955 0.11173 0.83458 0.0
H650 H 0.44054 0.08436 0.86276 0.0
H651 H 0.41547 0.09935 0.90742 0.0
H652 H 0.41392 0.12649 0.87921 0.0
H653 H 0.43434 0.14007 0.9164 0.0
H654 H 0.55696 0.22456 0.88718 0.0
H655 H 0.54726 0.25219 0.84297 0.0
H656 H 0.45255 0.16821 0.83102 0.0
C657 C 0.47948 0.1039 0.92139 0.0
C658 C 0.50524 0.10777 0.93978 0.0
C659 C 0.53324 0.13819 0.94234 0.0
C660 C 0.53633 0.16433 0.92571 0.0
C661 C 0.5111 0.15967 0.90671 0.0
C662 C 0.48299 0.13035 0.90477 0.0
C663 C 0.46081 0.13147 0.88043 0.0
C664 C 0.45413 0.10927 0.85329 0.0
C665 C 0.42927 0.1239 0.89685 0.0
C666 C 0.48132 0.16569 0.86832 0.0
C667 C 0.51016 0.18153 0.88394 0.0
C668 C 0.53419 0.21264 0.87522 0.0
C669 C 0.52857 0.22807 0.84994 0.0
C670 C 0.49909 0.21243 0.83377 0.0
C671 C 0.47509 0.18092 0.84334 0.0
H672 H 0.37672 0.47922 0.40832 0.0
H673 H 0.3733 0.39475 0.38598 0.0
H674 H 0.33278 0.38373 0.34485 0.0
H675 H 0.29185 0.44937 0.39746 0.0
H676 H 0.30031 0.48619 0.37942 0.0
H677 H 0.32718 0.48589 0.40834 0.0
H678 H 0.37516 0.51737 0.36728 0.0
H679 H 0.34852 0.5178 0.33825 0.0
H680 H 0.37268 0.50233 0.32831 0.0
H681 H 0.29308 0.3831 0.3048 0.0
H682 H 0.26121 0.39489 0.26776 0.0
H683 H 0.29254 0.48029 0.31667 0.0
C684 C 0.36699 0.45808 0.39518 0.0
C685 C 0.37779 0.43761 0.40055 0.0
C686 C 0.36524 0.41069 0.38222 0.0
C687 C 0.34214 0.40419 0.35896 0.0
C688 C 0.33204 0.42497 0.35419 0.0
C689 C 0.34427 0.45146 0.37174 0.0
C690 C 0.33114 0.47116 0.36088 0.0
C691 C 0.31144 0.47326 0.38815 0.0
C692 C 0.3585 0.5041 0.3479 0.0
C693 C 0.30971 0.45176 0.33436 0.0
C694 C 0.31016 0.42501 0.33093 0.0
C695 C 0.29249 0.40394 0.30738 0.0
C696 C 0.27437 0.41072 0.28653 0.0
C697 C 0.27441 0.4385 0.28924 0.0
C698 C 0.29201 0.45887 0.31383 0.0
H699 H 0.89825 0.41334 0.89376 0.0
H700 H 0.91134 0.35087 0.95667 0.0
H701 H 0.87579 0.30649 0.9231 0.0
H702 H 0.81341 0.35638 0.879 0.0
H703 H 0.81638 0.36995 0.83767 0.0
H704 H 0.84261 0.39692 0.86666 0.0
H705 H 0.89256 0.41095 0.83174 0.0
H706 H 0.86661 0.38419 0.80249 0.0
H707 H 0.89755 0.38001 0.8199 0.0
H708 H 0.84245 0.27012 0.88102 0.0
H709 H 0.80998 0.24255 0.83471 0.0
H710 H 0.81491 0.32718 0.80034 0.0
C711 C 0.89355 0.39027 0.90037 0.0
C712 C 0.90759 0.38542 0.92767 0.0
C713 C 0.90068 0.35493 0.93591 0.0
C714 C 0.8806 0.32967 0.91697 0.0
C715 C 0.86724 0.3352 0.89014 0.0
C716 C 0.87309 0.36462 0.88199 0.0
C717 C 0.8555 0.36402 0.85195 0.0
C718 C 0.83048 0.3723 0.85927 0.0
C719 C 0.87949 0.3861 0.82492 0.0
C720 C 0.8393 0.32974 0.8442 0.0
C721 C 0.84663 0.31368 0.86651 0.0
C722 C 0.83618 0.2823 0.86363 0.0
C723 C 0.81786 0.26688 0.83721 0.0
C724 C 0.80973 0.28266 0.81419 0.0
C725 C 0.82031 0.31443 0.81793 0.0
H726 H 0.92365 0.55226 0.94277 0.0
H727 H 0.90076 0.45681 0.9431 0.0
H728 H 0.85886 0.44391 0.90288 0.0
H729 H 0.84224 0.53376 0.93396 0.0
H730 H 0.85477 0.56811 0.90793 0.0
H731 H 0.88174 0.56889 0.93742 0.0
H732 H 0.92547 0.58521 0.89268 0.0
H733 H 0.89866 0.58447 0.86306 0.0
H734 H 0.91585 0.56119 0.85868 0.0
H735 H 0.82007 0.44255 0.86089 0.0
H736 H 0.78866 0.45288 0.82172 0.0
H737 H 0.83846 0.54953 0.84955 0.0
C738 C 0.90966 0.52866 0.93437 0.0
C739 C 0.91528 0.5055 0.94569 0.0
C740 C 0.8966 0.47478 0.93448 0.0
C741 C 0.87285 0.46731 0.91169 0.0
C742 C 0.8681 0.49086 0.90055 0.0
C743 C 0.88602 0.5209 0.91163 0.0
C744 C 0.87695 0.54224 0.89551 0.0
C745 C 0.8631 0.55393 0.92018 0.0
C746 C 0.90596 0.5699 0.87634 0.0
C747 C 0.85124 0.51968 0.8735 0.0
C748 C 0.84626 0.4901 0.87669 0.0
C749 C 0.82375 0.46564 0.85833 0.0
C750 C 0.806 0.47169 0.83614 0.0
C751 C 0.81101 0.50199 0.83246 0.0
C752 C 0.83391 0.52607 0.85162 0.0
H753 H 0.36935 0.94462 0.43017 0.0
H754 H 0.4385 0.91816 0.44604 0.0
H755 H 0.41191 0.8777 0.40596 0.0
H756 H 0.30011 0.86627 0.41952 0.0
H757 H 0.28339 0.87855 0.38837 0.0
H758 H 0.30769 0.90534 0.41839 0.0
H759 H 0.34576 0.94636 0.37378 0.0
H760 H 0.32157 0.9197 0.3436 0.0
H761 H 0.3642 0.93533 0.34437 0.0
H762 H 0.37838 0.84068 0.36462 0.0
H763 H 0.33996 0.80855 0.32415 0.0
H764 H 0.29164 0.85856 0.3335 0.0
C765 C 0.37879 0.93026 0.425 0.0
C766 C 0.40598 0.9344 0.44091 0.0
C767 C 0.41769 0.9152 0.43396 0.0
C768 C 0.40277 0.89226 0.41126 0.0
C769 C 0.37612 0.88882 0.39577 0.0
C770 C 0.36416 0.90723 0.40226 0.0
C771 C 0.3352 0.8986 0.38199 0.0
C772 C 0.3048 0.88646 0.40335 0.0
C773 C 0.34211 0.92667 0.35961 0.0
C774 C 0.33273 0.87244 0.36315 0.0
C775 C 0.35664 0.86731 0.37161 0.0
C776 C 0.35955 0.84447 0.35779 0.0
C777 C 0.33747 0.82629 0.33474 0.0
C778 C 0.31259 0.83088 0.32548 0.0
C779 C 0.31032 0.85442 0.33996 0.0
H780 H 0.50524 0.40588 0.92478 0.0
H781 H 0.41338 0.39801 0.91719 0.0
H782 H 0.3941 0.35293 0.88293 0.0
H783 H 0.51144 0.39272 0.84323 0.0
H784 H 0.53066 0.37151 0.85151 0.0
H785 H 0.53571 0.40078 0.87809 0.0
H786 H 0.51439 0.35948 0.92609 0.0
H787 H 0.50925 0.33005 0.89964 0.0
H788 H 0.47559 0.3232 0.92405 0.0
H789 H 0.38583 0.30938 0.84708 0.0
H790 H 0.39038 0.2737 0.8119 0.0
H791 H 0.48913 0.31367 0.84043 0.0
C792 C 0.48108 0.39497 0.91591 0.0
C793 C 0.46097 0.40588 0.92386 0.0
C794 C 0.42925 0.39005 0.91204 0.0
C795 C 0.41811 0.36446 0.89233 0.0
C796 C 0.43894 0.35493 0.88447 0.0
C797 C 0.46981 0.36986 0.89588 0.0
C798 C 0.48828 0.3565 0.88262 0.0
C799 C 0.51829 0.38189 0.86268 0.0
C800 C 0.4974 0.34141 0.90972 0.0
C801 C 0.46315 0.33189 0.8616 0.0
C802 C 0.43465 0.33094 0.86324 0.0
C803 C 0.40806 0.30997 0.8457 0.0
C804 C 0.41083 0.28974 0.82581 0.0
C805 C 0.44013 0.29093 0.82327 0.0
C806 C 0.46643 0.31223 0.84166 0.0
H807 H 0.13621 0.52467 0.42935 0.0
H808 H 0.04613 0.43934 0.40701 0.0
H809 H 0.07338 0.43257 0.36159 0.0
H810 H 0.16446 0.55356 0.35066 0.0
H811 H 0.20632 0.56699 0.355 0.0
H812 H 0.18327 0.56616 0.38881 0.0
H813 H 0.19416 0.53082 0.42408 0.0
H814 H 0.22033 0.53311 0.39232 0.0
H815 H 0.18795 0.49529 0.40876 0.0
H816 H 0.10884 0.4353 0.31817 0.0
H817 H 0.15146 0.44638 0.27906 0.0
H818 H 0.22012 0.52999 0.32818 0.0
C819 C 0.12238 0.50432 0.41518 0.0
C820 C 0.08889 0.48258 0.42168 0.0
C821 C 0.0716 0.4565 0.40228 0.0
C822 C 0.08691 0.45238 0.3765 0.0
C823 C 0.11965 0.47442 0.37039 0.0
C824 C 0.13738 0.49977 0.3892 0.0
C825 C 0.17236 0.51991 0.37693 0.0
C826 C 0.1821 0.55363 0.36723 0.0
C827 C 0.19504 0.51976 0.40202 0.0
C828 C 0.17112 0.50235 0.34781 0.0
C829 C 0.14047 0.47603 0.34487 0.0
C830 C 0.13298 0.45576 0.32026 0.0
C831 C 0.15748 0.46233 0.29815 0.0
C832 C 0.18925 0.48909 0.30047 0.0
C833 C 0.19607 0.5095 0.32562 0.0
H834 H 0.60239 0.07805 0.91359 0.0
H835 H 0.62449 0.00616 0.91641 0.0
H836 H 0.66774 0.03714 0.87436 0.0
H837 H 0.61373 0.09537 0.82858 0.0
H838 H 0.63114 0.13692 0.83164 0.0
H839 H 0.6028 0.1093 0.86218 0.0
H840 H 0.6445 0.13872 0.90577 0.0
H841 H 0.67301 0.16649 0.87541 0.0
H842 H 0.68402 0.145 0.90201 0.0
H843 H 0.70865 0.07675 0.83148 0.0
H844 H 0.74291 0.12049 0.7916 0.0
H845 H 0.69288 0.1658 0.81703 0.0
C846 C 0.61646 0.06893 0.90539 0.0
C847 C 0.61042 0.03988 0.91822 0.0
C848 C 0.62903 0.02849 0.90687 0.0
C849 C 0.65354 0.04592 0.88305 0.0
C850 C 0.65894 0.0746 0.87083 0.0
C851 C 0.64083 0.08595 0.88166 0.0
C852 C 0.65099 0.11713 0.86453 0.0
C853 C 0.623 0.11451 0.8456 0.0
C854 C 0.66391 0.14338 0.88835 0.0
C855 C 0.67769 0.12169 0.84224 0.0
C856 C 0.68202 0.09698 0.84623 0.0
C857 C 0.70541 0.09616 0.82821 0.0
C858 C 0.72479 0.12116 0.80559 0.0
C859 C 0.72068 0.14667 0.80103 0.0
C860 C 0.69672 0.14672 0.81976 0.0
H861 H 0.5454 0.61076 0.42912 0.0
H862 H 0.4479 0.52851 0.42978 0.0
H863 H 0.43176 0.55732 0.39338 0.0
H864 H 0.52434 0.66794 0.42943 0.0
H865 H 0.55731 0.69631 0.40288 0.0
H866 H 0.56141 0.66894 0.42809 0.0
H867 H 0.57576 0.64969 0.37814 0.0
H868 H 0.57202 0.67721 0.3528 0.0
H869 H 0.54874 0.63596 0.34513 0.0
H870 H 0.42613 0.59566 0.35811 0.0
H871 H 0.43167 0.63992 0.32472 0.0
H872 H 0.53316 0.69734 0.34679 0.0
C873 C 0.52082 0.59885 0.42115 0.0
C874 C 0.49785 0.56746 0.43178 0.0
C875 C 0.46574 0.55254 0.42152 0.0
C876 C 0.45641 0.56872 0.40098 0.0
C877 C 0.47953 0.59981 0.39102 0.0
C878 C 0.51112 0.61467 0.40059 0.0
C879 C 0.53114 0.64827 0.38662 0.0
C880 C 0.54432 0.67174 0.41335 0.0
C881 C 0.55853 0.65305 0.36435 0.0
C882 C 0.50587 0.65004 0.36785 0.0
C883 C 0.47627 0.62186 0.37074 0.0
C884 C 0.44922 0.61783 0.35563 0.0
C885 C 0.4526 0.64317 0.33677 0.0
C886 C 0.48282 0.6722 0.33311 0.0
C887 C 0.50969 0.67556 0.34911 0.0
H888 H 0.49639 0.1205 0.59687 0.0
H889 H 0.39506 0.04714 0.59108 0.0
H890 H 0.38096 0.07429 0.62903 0.0
H891 H 0.49435 0.13035 0.68045 0.0
H892 H 0.52247 0.1724 0.67762 0.0
H893 H 0.52458 0.14844 0.64837 0.0
H894 H 0.51933 0.18142 0.60253 0.0
H895 H 0.51741 0.20566 0.63162 0.0
H896 H 0.48571 0.18622 0.6034 0.0
H897 H 0.37791 0.10845 0.66891 0.0
H898 H 0.38611 0.14719 0.70794 0.0
H899 H 0.48956 0.19807 0.68883 0.0
C900 C 0.47121 0.11051 0.60317 0.0
C901 C 0.44677 0.08177 0.59091 0.0
C902 C 0.41414 0.06906 0.60026 0.0
C903 C 0.40591 0.08435 0.62174 0.0
C904 C 0.43057 0.11234 0.63381 0.0
C905 C 0.46256 0.12535 0.62486 0.0
C906 C 0.48446 0.15502 0.64238 0.0
C907 C 0.50784 0.15131 0.66346 0.0
C908 C 0.5028 0.18378 0.61856 0.0
C909 C 0.45979 0.15653 0.66268 0.0
C910 C 0.42884 0.13177 0.65723 0.0
C911 C 0.40204 0.12799 0.67331 0.0
C912 C 0.40695 0.15014 0.69549 0.0
C913 C 0.43845 0.17573 0.70159 0.0
C914 C 0.46515 0.17881 0.68484 0.0
H915 H 0.39377 0.47815 0.07115 0.0
H916 H 0.47439 0.5749 0.07246 0.0
H917 H 0.44311 0.58642 0.10969 0.0
H918 H 0.33056 0.49372 0.07406 0.0
H919 H 0.30411 0.45919 0.09963 0.0
H920 H 0.3327 0.45938 0.07251 0.0
H921 H 0.35649 0.44459 0.12013 0.0
H922 H 0.32794 0.44429 0.14737 0.0
H923 H 0.37055 0.46879 0.15424 0.0
H924 H 0.40278 0.58602 0.14939 0.0
H925 H 0.35705 0.57419 0.18564 0.0
H926 H 0.30384 0.47761 0.15728 0.0
C927 C 0.40478 0.50169 0.07947 0.0
C928 C 0.43646 0.52561 0.06946 0.0
C929 C 0.45011 0.5563 0.08022 0.0
C930 C 0.43258 0.56297 0.10138 0.0
C931 C 0.40144 0.53866 0.11139 0.0
C932 C 0.38769 0.50866 0.10061 0.0
C933 C 0.35409 0.48653 0.115 0.0
C934 C 0.32888 0.47398 0.08873 0.0
C935 C 0.35217 0.45946 0.1354 0.0
C936 C 0.351 0.50859 0.13571 0.0
C937 C 0.37845 0.53859 0.13343 0.0
C938 C 0.38109 0.56263 0.15114 0.0
C939 C 0.35502 0.55573 0.17167 0.0
C940 C 0.32672 0.52503 0.17431 0.0
C941 C 0.32494 0.5014 0.15584 0.0
H942 H 0.92274 0.4206 0.59512 0.0
H943 H 0.98192 0.38835 0.55974 0.0
H944 H 0.94757 0.33751 0.59119 0.0
H945 H 0.90885 0.3856 0.67491 0.0
H946 H 0.86779 0.37541 0.6783 0.0
H947 H 0.89675 0.40871 0.65269 0.0
H948 H 0.85954 0.38511 0.60445 0.0
H949 H 0.83041 0.35175 0.62992 0.0
H950 H 0.84608 0.34582 0.59374 0.0
H951 H 0.90664 0.29031 0.62758 0.0
H952 H 0.86303 0.25094 0.66524 0.0
H953 H 0.83021 0.31416 0.67611 0.0
C954 C 0.92819 0.40263 0.59384 0.0
C955 C 0.95465 0.40804 0.57476 0.0
C956 C 0.96153 0.38438 0.574 0.0
C957 C 0.94217 0.35553 0.5918 0.0
C958 C 0.91606 0.3508 0.61026 0.0
C959 C 0.90905 0.37373 0.61133 0.0
C960 C 0.87983 0.36297 0.63317 0.0
C961 C 0.88886 0.38445 0.66144 0.0
C962 C 0.85234 0.36131 0.61418 0.0
C963 C 0.87147 0.33041 0.64439 0.0
C964 C 0.89263 0.3238 0.63094 0.0
C965 C 0.88991 0.29526 0.63813 0.0
C966 C 0.86501 0.27301 0.6596 0.0
C967 C 0.843 0.27926 0.67368 0.0
C968 C 0.84643 0.30844 0.66573 0.0
H969 H 0.55217 0.90349 0.08781 0.0
H970 H 0.45403 0.85836 0.0551 0.0
H971 H 0.43605 0.81601 0.09722 0.0
H972 H 0.54998 0.83208 0.11039 0.0
H973 H 0.57376 0.84861 0.14526 0.0
H974 H 0.57915 0.87386 0.11074 0.0
H975 H 0.56809 0.90762 0.14679 0.0
H976 H 0.5623 0.88229 0.18134 0.0
H977 H 0.53108 0.88899 0.17063 0.0
H978 H 0.42813 0.77999 0.1455 0.0
H979 H 0.43183 0.75223 0.19401 0.0
H980 H 0.53472 0.82222 0.19561 0.0
C981 C 0.52694 0.88458 0.08923 0.0
C982 C 0.50466 0.88426 0.0678 0.0
C983 C 0.47185 0.85886 0.07057 0.0
C984 C 0.46127 0.8348 0.09471 0.0
C985 C 0.48375 0.83635 0.11591 0.0
C986 C 0.51595 0.86047 0.11322 0.0
C987 C 0.53508 0.8573 0.13965 0.0
C988 C 0.56102 0.85268 0.12567 0.0
C989 C 0.55001 0.88574 0.16085 0.0
C990 C 0.50861 0.82774 0.15772 0.0
C991 C 0.47915 0.81594 0.14373 0.0
C992 C 0.45113 0.78892 0.15655 0.0
C993 C 0.45344 0.77337 0.18415 0.0
C994 C 0.48353 0.78499 0.19866 0.0
C995 C 0.51131 0.81265 0.1852 0.0
H996 H 0.6004 0.47934 0.59034 0.0
H997 H 0.60717 0.56677 0.60604 0.0
H998 H 0.64707 0.57872 0.64775 0.0
H999 H 0.60536 0.46055 0.67356 0.0
H1000 H 0.62912 0.44411 0.66595 0.0
H1001 H 0.60203 0.4426 0.6362 0.0
H1002 H 0.64889 0.47076 0.59386 0.0
H1003 H 0.67627 0.47222 0.62327 0.0
H1004 H 0.68474 0.50793 0.6023 0.0
H1005 H 0.68599 0.58171 0.68689 0.0
H1006 H 0.72118 0.57523 0.72327 0.0
H1007 H 0.6888 0.48469 0.68489 0.0
C1008 C 0.6106 0.50112 0.60241 0.0
C1009 C 0.6009 0.5223 0.59492 0.0
C1010 C 0.61426 0.55028 0.61152 0.0
C1011 C 0.63696 0.55727 0.63516 0.0
C1012 C 0.64586 0.53589 0.64218 0.0
C1013 C 0.63308 0.5083 0.62651 0.0
C1014 C 0.64631 0.48909 0.63957 0.0
C1015 C 0.61908 0.4572 0.65474 0.0
C1016 C 0.66518 0.48475 0.61318 0.0
C1017 C 0.66862 0.51033 0.66489 0.0
C1018 C 0.66798 0.53723 0.66571 0.0
C1019 C 0.68669 0.56074 0.68653 0.0
C1020 C 0.7067 0.55681 0.7071 0.0
C1021 C 0.70787 0.52944 0.70703 0.0
C1022 C 0.68836 0.50579 0.68566 0.0
H1023 H 0.11551 0.61332 0.09572 0.0
H1024 H 0.03785 0.6294 0.10123 0.0
H1025 H 0.06988 0.67264 0.13742 0.0
H1026 H 0.13647 0.62598 0.1777 0.0
H1027 H 0.17915 0.64489 0.16953 0.0
H1028 H 0.15067 0.61641 0.14296 0.0
H1029 H 0.17771 0.65738 0.09489 0.0
H1030 H 0.20627 0.68602 0.12134 0.0
H1031 H 0.18198 0.69494 0.09674 0.0
H1032 H 0.11097 0.71433 0.17376 0.0
H1033 H 0.15583 0.74832 0.20902 0.0
H1034 H 0.20553 0.70366 0.18011 0.0
C1035 C 0.10541 0.62621 0.10419 0.0
C1036 C 0.07424 0.6181 0.09546 0.0
C1037 C 0.06162 0.6351 0.10769 0.0
C1038 C 0.07971 0.65981 0.12812 0.0
C1039 C 0.11035 0.66716 0.1363 0.0
C1040 C 0.12299 0.65069 0.12481 0.0
C1041 C 0.15587 0.66223 0.13821 0.0
C1042 C 0.1555 0.63581 0.15829 0.0
C1043 C 0.182 0.67596 0.11118 0.0
C1044 C 0.15978 0.68771 0.15912 0.0
C1045 C 0.13345 0.69045 0.15756 0.0
C1046 C 0.13171 0.71236 0.17511 0.0
C1047 C 0.15734 0.73165 0.19502 0.0
C1048 C 0.18424 0.72872 0.19744 0.0
C1049 C 0.18536 0.70656 0.17893 0.0
loop_
_geom_bond_atom_site_label_1
_geom_bond_atom_site_label_2
_geom_bond_distance
_geom_bond_site_symmetry_2
_ccdc_geom_bond_type
C0 C1 1.443 . S
C0 N4 1.376 1_556 S
C0 C38 1.389 . S
C1 C0 1.443 . S
C1 C2 1.340 1_556 S
C1 H41 0.951 . S
C2 C1 1.340 1_554 S
C2 C3 1.439 . S
C2 H42 0.950 . S
C3 C2 1.439 . S
C3 N4 1.374 . S
C3 C37 1.395 . S
N4 C0 1.376 1_554 S
N4 C3 1.374 . S
N4 Co5 2.001 1_655 S
Co5 N4 2.001 1_455 S
Co5 N6 2.014 1_455 S
Co5 N11 2.015 1_554 S
Co5 N16 1.975 1_554 S
Co5 N21 2.298 . S
Co5 N27 2.267 1_454 S
N6 Co5 2.014 1_655 S
N6 C7 1.376 . S
N6 C10 1.383 1_655 S
C7 N6 1.376 . S
C7 C8 1.446 . S
C7 C37 1.391 . S
C8 C7 1.446 . S
C8 C9 1.339 . S
C8 H43 0.949 . S
C9 C8 1.339 . S
C9 C10 1.439 1_655 S
C9 H44 0.950 1_655 S
C10 N6 1.383 1_455 S
C10 C9 1.439 1_455 S
C10 C39 1.392 . S
N11 Co5 2.015 1_556 S
N11 C12 1.376 1_556 S
N11 C15 1.374 . S
C12 N11 1.376 1_554 S
C12 C13 1.443 . S
C12 C39 1.389 . S
C13 C12 1.443 . S
C13 C14 1.340 1_554 S
C13 H45 0.951 . S
C14 C13 1.340 1_556 S
C14 C15 1.439 . S
C14 H46 0.950 . S
C15 N11 1.374 . S
C15 C14 1.439 . S
C15 C40 1.395 . S
N16 Co5 1.975 1_556 S
N16 C17 1.376 . S
N16 C20 1.383 1_455 S
C17 N16 1.376 . S
C17 C18 1.446 . S
C17 C40 1.391 . S
C18 C17 1.446 . S
C18 C19 1.339 . S
C18 H47 0.949 . S
C19 C18 1.339 . S
C19 C20 1.439 1_455 S
C19 H48 0.950 1_455 S
C20 N16 1.383 1_655 S
C20 C19 1.439 1_655 S
C20 C38 1.392 . S
N21 Co5 2.298 . S
N21 C24 1.332 . S
N21 C26 1.332 . S
C22 C23 1.386 . S
C22 C25 1.388 . S
C23 C22 1.386 . S
C23 C24 1.382 . S
C23 H49 0.950 . S
C24 N21 1.332 . S
C24 C23 1.382 . S
C24 H35 0.952 . S
C25 C22 1.388 . S
C25 C26 1.382 . S
C25 H50 0.950 . S
C26 N21 1.332 . S
C26 C25 1.382 . S
C26 H36 0.948 1_455 S
N27 Co5 2.267 1_656 S
N27 C31 1.332 . S
N27 C32 1.332 . S
C28 C29 1.388 . S
C28 C32 1.382 . S
C28 H51 0.950 . S
C29 C28 1.388 . S
C29 C30 1.386 . S
C30 C29 1.386 . S
C30 C31 1.382 . S
C30 H52 0.950 . S
C31 N27 1.332 . S
C31 C30 1.382 . S
C31 H33 0.953 . S
C32 N27 1.332 . S
C32 C28 1.382 . S
C32 H34 0.948 1_655 S
H33 C31 0.953 . S
H34 C32 0.948 1_455 S
H35 C24 0.952 . S
H36 C26 0.948 1_655 S
C37 C3 1.395 . S
C37 C7 1.391 . S
C38 C0 1.389 . S
C38 C20 1.392 . S
C39 C10 1.392 . S
C39 C12 1.389 . S
C40 C15 1.395 . S
C40 C17 1.391 . S
H41 C1 0.951 . S
H42 C2 0.950 . S
H43 C8 0.949 . S
H44 C9 0.950 1_455 S
H45 C13 0.951 . S
H46 C14 0.950 . S
H47 C18 0.949 . S
H48 C19 0.950 1_655 S
H49 C23 0.950 . S
H50 C25 0.950 . S
H51 C28 0.950 . S
H52 C30 0.950 . S
C53 C54 1.441 1_545 S
C53 N57 1.376 1_545 S
C53 C91 1.389 . S
C54 C53 1.441 1_565 S
C54 C55 1.344 . S
C54 H94 0.950 1_565 S
C55 C54 1.344 . S
C55 C56 1.439 . S
C55 H95 0.950 . S
C56 C55 1.439 . S
C56 N57 1.374 . S
C56 C90 1.395 . S
N57 C53 1.376 1_565 S
N57 C56 1.374 . S
N57 Co58 1.995 1_565 S
Co58 N57 1.995 1_545 S
Co58 N59 1.976 1_545 S
Co58 N64 2.022 . S
Co58 N69 2.014 . S
Co58 N74 2.249 1_545 S
Co58 N80 2.316 . S
N59 Co58 1.976 1_565 S
N59 C60 1.376 . S
N59 C63 1.383 . S
C60 N59 1.376 . S
C60 C61 1.446 . S
C60 C90 1.391 . S
C61 C60 1.446 . S
C61 C62 1.339 . S
C61 H96 0.949 . S
C62 C61 1.339 . S
C62 C63 1.439 . S
C62 H97 0.950 . S
C63 N59 1.383 . S
C63 C62 1.439 . S
C63 C92 1.392 . S
N64 Co58 2.022 . S
N64 C65 1.376 1_545 S
N64 C68 1.374 . S
C65 N64 1.376 1_565 S
C65 C66 1.443 1_565 S
C65 C92 1.389 . S
C66 C65 1.443 1_545 S
C66 C67 1.340 . S
C66 H98 0.951 1_545 S
C67 C66 1.340 . S
C67 C68 1.439 . S
C67 H99 0.950 . S
C68 N64 1.374 . S
C68 C67 1.439 . S
C68 C93 1.395 . S
N69 Co58 2.014 . S
N69 C70 1.376 . S
N69 C73 1.383 . S
C70 N69 1.376 . S
C70 C71 1.446 . S
C70 C93 1.391 . S
C71 C70 1.446 . S
C71 C72 1.339 . S
C71 H100 0.949 . S
C72 C71 1.339 . S
C72 C73 1.439 . S
C72 H101 0.950 . S
C73 N69 1.383 . S
C73 C72 1.439 . S
C73 C91 1.392 . S
N74 Co58 2.249 1_565 S
N74 C77 1.332 . S
N74 C79 1.332 . S
C75 C76 1.386 . S
C75 C78 1.388 . S
C76 C75 1.386 . S
C76 C77 1.382 . S
C76 H102 0.950 . S
C77 N74 1.332 . S
C77 C76 1.382 . S
C77 H88 0.952 1_565 S
C78 C75 1.388 . S
C78 C79 1.382 . S
C78 H103 0.950 . S
C79 N74 1.332 . S
C79 C78 1.382 . S
C79 H89 0.948 . S
N80 Co58 2.316 . S
N80 C84 1.332 . S
N80 C85 1.332 . S
C81 C82 1.388 . S
C81 C85 1.382 . S
C81 H104 0.950 . S
C82 C81 1.388 . S
C82 C83 1.386 . S
C83 C82 1.386 . S
C83 C84 1.382 . S
C83 H105 0.950 . S
C84 N80 1.332 . S
C84 C83 1.382 . S
C84 H86 0.952 1_545 S
C85 N80 1.332 . S
C85 C81 1.382 . S
C85 H87 0.948 . S
H86 C84 0.952 1_565 S
H87 C85 0.948 . S
H88 C77 0.952 1_545 S
H89 C79 0.948 . S
C90 C56 1.395 . S
C90 C60 1.391 . S
C91 C53 1.389 . S
C91 C73 1.392 . S
C92 C63 1.392 . S
C92 C65 1.389 . S
C93 C68 1.395 . S
C93 C70 1.391 . S
H94 C54 0.950 1_545 S
H95 C55 0.950 . S
H96 C61 0.949 . S
H97 C62 0.950 . S
H98 C66 0.951 1_565 S
H99 C67 0.950 . S
H100 C71 0.949 . S
H101 C72 0.950 . S
H102 C76 0.950 . S
H103 C78 0.950 . S
H104 C81 0.950 . S
H105 C83 0.950 . S
C106 C107 1.443 . S
C106 N110 1.376 . S
C106 C144 1.389 . S
C107 C106 1.443 . S
C107 C108 1.340 . S
C107 H147 0.951 . S
C108 C107 1.340 . S
C108 C109 1.439 . S
C108 H148 0.950 . S
C109 C108 1.439 . S
C109 N110 1.374 . S
C109 C143 1.395 . S
N110 C106 1.376 . S
N110 C109 1.374 . S
N110 Co111 1.988 1_556 S
Co111 N110 1.988 1_554 S
Co111 N112 1.992 1_554 S
Co111 N117 2.029 . S
Co111 N122 1.997 . S
Co111 N127 2.296 . S
Co111 N133 2.269 1_554 S
N112 Co111 1.992 1_556 S
N112 C113 1.376 . S
N112 C116 1.383 1_556 S
C113 N112 1.376 . S
C113 C114 1.446 . S
C113 C143 1.391 . S
C114 C113 1.446 . S
C114 C115 1.339 1_556 S
C114 H149 0.949 . S
C115 C114 1.339 1_554 S
C115 C116 1.439 . S
C115 H150 0.950 . S
C116 N112 1.383 1_554 S
C116 C115 1.439 . S
C116 C145 1.392 . S
N117 Co111 2.029 . S
N117 C118 1.376 . S
N117 C121 1.374 . S
C118 N117 1.376 . S
C118 C119 1.443 . S
C118 C145 1.389 . S
C119 C118 1.443 . S
C119 C120 1.340 . S
C119 H151 0.951 . S
C120 C119 1.340 . S
C120 C121 1.439 . S
C120 H152 0.950 . S
C121 N117 1.374 . S
C121 C120 1.439 . S
C121 C146 1.395 . S
N122 Co111 1.997 . S
N122 C123 1.376 . S
N122 C126 1.383 1_554 S
C123 N122 1.376 . S
C123 C124 1.446 . S
C123 C146 1.391 . S
C124 C123 1.446 . S
C124 C125 1.339 1_554 S
C124 H153 0.949 . S
C125 C124 1.339 1_556 S
C125 C126 1.439 . S
C125 H154 0.950 . S
C126 N122 1.383 1_556 S
C126 C125 1.439 . S
C126 C144 1.392 . S
N127 Co111 2.296 . S
N127 C130 1.332 . S
N127 C132 1.332 . S
C128 C129 1.386 . S
C128 C131 1.388 . S
C129 C128 1.386 . S
C129 C130 1.382 . S
C129 H155 0.950 . S
C130 N127 1.332 . S
C130 C129 1.382 . S
C130 H141 0.952 . S
C131 C128 1.388 . S
C131 C132 1.382 . S
C131 H156 0.950 . S
C132 N127 1.332 . S
C132 C131 1.382 . S
C132 H142 0.948 . S
N133 Co111 2.269 1_556 S
N133 C137 1.332 . S
N133 C138 1.332 . S
C134 C135 1.388 . S
C134 C138 1.382 . S
C134 H157 0.950 . S
C135 C134 1.388 . S
C135 C136 1.386 . S
C136 C135 1.386 . S
C136 C137 1.382 . S
C136 H158 0.950 . S
C137 N133 1.332 . S
C137 C136 1.382 . S
C137 H139 0.952 . S
C138 N133 1.332 . S
C138 C134 1.382 . S
C138 H140 0.948 . S
H139 C137 0.952 . S
H140 C138 0.948 . S
H141 C130 0.952 . S
H142 C132 0.948 . S
C143 C109 1.395 . S
C143 C113 1.391 . S
C144 C106 1.389 . S
C144 C126 1.392 . S
C145 C116 1.392 . S
C145 C118 1.389 . S
C146 C121 1.395 . S
C146 C123 1.391 . S
H147 C107 0.951 . S
H148 C108 0.950 . S
H149 C114 0.949 . S
H150 C115 0.950 . S
H151 C119 0.951 . S
H152 C120 0.950 . S
H153 C124 0.949 . S
H154 C125 0.950 . S
H155 C129 0.950 . S
H156 C131 0.950 . S
H157 C134 0.950 . S
H158 C136 0.950 . S
C159 C160 1.443 . S
C159 N163 1.376 . S
C159 C197 1.389 . S
C160 C159 1.443 . S
C160 C161 1.340 . S
C160 H200 0.951 . S
C161 C160 1.340 . S
C161 C162 1.439 . S
C161 H201 0.950 . S
C162 C161 1.439 . S
C162 N163 1.374 . S
C162 C196 1.395 . S
N163 C159 1.376 . S
N163 C162 1.374 . S
N163 Co164 2.003 1_655 S
Co164 N163 2.003 1_455 S
Co164 N165 1.991 1_455 S
Co164 N170 2.013 . S
Co164 N175 1.998 . S
Co164 N180 2.288 . S
Co164 N186 2.277 1_455 S
N165 Co164 1.991 1_655 S
N165 C166 1.376 . S
N165 C169 1.383 1_655 S
C166 N165 1.376 . S
C166 C167 1.446 . S
C166 C196 1.391 . S
C167 C166 1.446 . S
C167 C168 1.339 . S
C167 H202 0.949 . S
C168 C167 1.339 . S
C168 C169 1.439 1_655 S
C168 H203 0.950 1_655 S
C169 N165 1.383 1_455 S
C169 C168 1.439 1_455 S
C169 C198 1.392 . S
N170 Co164 2.013 . S
N170 C171 1.376 . S
N170 C174 1.374 . S
C171 N170 1.376 . S
C171 C172 1.443 . S
C171 C198 1.389 . S
C172 C171 1.443 . S
C172 C173 1.340 . S
C172 H204 0.951 . S
C173 C172 1.340 . S
C173 C174 1.439 . S
C173 H205 0.950 . S
C174 N170 1.374 . S
C174 C173 1.439 . S
C174 C199 1.395 . S
N175 Co164 1.998 . S
N175 C176 1.376 . S
N175 C179 1.383 1_455 S
C176 N175 1.376 . S
C176 C177 1.446 . S
C176 C199 1.391 . S
C177 C176 1.446 . S
C177 C178 1.339 . S
C177 H206 0.949 . S
C178 C177 1.339 . S
C178 C179 1.439 1_455 S
C178 H207 0.950 1_455 S
C179 N175 1.383 1_655 S
C179 C178 1.439 1_655 S
C179 C197 1.392 . S
N180 Co164 2.288 . S
N180 C183 1.332 . S
N180 C185 1.332 . S
C181 C182 1.386 . S
C181 C184 1.388 . S
C182 C181 1.386 . S
C182 C183 1.382 . S
C182 H208 0.950 . S
C183 N180 1.332 . S
C183 C182 1.382 . S
C183 H194 0.952 . S
C184 C181 1.388 . S
C184 C185 1.382 . S
C184 H209 0.950 . S
C185 N180 1.332 . S
C185 C184 1.382 . S
C185 H195 0.948 1_455 S
N186 Co164 2.277 1_655 S
N186 C190 1.332 . S
N186 C191 1.332 . S
C187 C188 1.388 . S
C187 C191 1.382 . S
C187 H210 0.950 . S
C188 C187 1.388 . S
C188 C189 1.386 . S
C189 C188 1.386 . S
C189 C190 1.382 . S
C189 H211 0.950 . S
C190 N186 1.332 . S
C190 C189 1.382 . S
C190 H192 0.952 . S
C191 N186 1.332 . S
C191 C187 1.382 . S
C191 H193 0.948 1_655 S
H192 C190 0.952 . S
H193 C191 0.948 1_455 S
H194 C183 0.952 . S
H195 C185 0.948 1_655 S
C196 C162 1.395 . S
C196 C166 1.391 . S
C197 C159 1.389 . S
C197 C179 1.392 . S
C198 C169 1.392 . S
C198 C171 1.389 . S
C199 C174 1.395 . S
C199 C176 1.391 . S
H200 C160 0.951 . S
H201 C161 0.950 . S
H202 C167 0.949 . S
H203 C168 0.950 1_455 S
H204 C172 0.951 . S
H205 C173 0.950 . S
H206 C177 0.949 . S
H207 C178 0.950 1_655 S
H208 C182 0.950 . S
H209 C184 0.950 . S
H210 C187 0.950 . S
H211 C189 0.950 . S
C212 C213 1.443 1_565 S
C212 N216 1.376 1_565 S
C212 C250 1.389 . S
C213 C212 1.443 1_545 S
C213 C214 1.340 . S
C213 H253 0.951 1_545 S
C214 C213 1.340 . S
C214 C215 1.439 . S
C214 H254 0.950 . S
C215 C214 1.439 . S
C215 N216 1.374 . S
C215 C249 1.395 . S
N216 C212 1.376 1_545 S
N216 C215 1.374 . S
N216 Co217 2.046 . S
Co217 N216 2.046 . S
Co217 N218 2.015 . S
Co217 N223 1.971 1_544 S
Co217 N228 1.976 1_545 S
Co217 N233 2.303 1_554 S
Co217 N239 2.263 1_545 S
N218 Co217 2.015 . S
N218 C219 1.391 . S
N218 C222 1.368 1_554 S
C219 N218 1.391 . S
C219 C220 1.446 . S
C219 C249 1.391 . S
C220 C219 1.446 . S
C220 C221 1.339 1_554 S
C220 H255 0.949 . S
C221 C220 1.339 1_556 S
C221 C222 1.439 . S
C221 H256 0.950 . S
C222 N218 1.368 1_556 S
C222 C221 1.439 . S
C222 C251 1.392 . S
N223 Co217 1.971 1_566 S
N223 C224 1.376 1_565 S
N223 C227 1.374 . S
C224 N223 1.376 1_545 S
C224 C225 1.458 . S
C224 C251 1.389 . S
C225 C224 1.458 . S
C225 C226 1.324 1_545 S
C225 H257 0.954 . S
C226 C225 1.324 1_565 S
C226 C227 1.439 . S
C226 H258 0.950 . S
C227 N223 1.374 . S
C227 C226 1.439 . S
C227 C252 1.395 . S
N228 Co217 1.976 1_565 S
N228 C229 1.357 1_554 S
N228 C232 1.403 . S
C229 N228 1.357 1_556 S
C229 C230 1.446 . S
C229 C252 1.391 . S
C230 C229 1.446 . S
C230 C231 1.339 1_556 S
C230 H259 0.949 . S
C231 C230 1.339 1_554 S
C231 C232 1.439 . S
C231 H260 0.950 . S
C232 N228 1.403 . S
C232 C231 1.439 . S
C232 C250 1.392 . S
N233 Co217 2.303 1_556 S
N233 C236 1.332 . S
N233 C238 1.332 . S
C234 C235 1.386 . S
C234 C237 1.388 . S
C235 C234 1.386 . S
C235 C236 1.382 . S
C235 H261 0.950 . S
C236 N233 1.332 . S
C236 C235 1.382 . S
C236 H247 0.952 1_545 S
C237 C234 1.388 . S
C237 C238 1.382 . S
C237 H262 0.950 . S
C238 N233 1.332 . S
C238 C237 1.382 . S
C238 H248 0.948 . S
N239 Co217 2.263 1_565 S
N239 C243 1.332 . S
N239 C244 1.332 . S
C240 C241 1.388 . S
C240 C244 1.382 . S
C240 H263 0.950 . S
C241 C240 1.388 . S
C241 C242 1.386 . S
C242 C241 1.386 . S
C242 C243 1.382 . S
C242 H264 0.950 . S
C243 N239 1.332 . S
C243 C242 1.382 . S
C243 H245 0.952 1_565 S
C244 N239 1.332 . S
C244 C240 1.382 . S
C244 H246 0.948 . S
H245 C243 0.952 1_545 S
H246 C244 0.948 . S
H247 C236 0.952 1_565 S
H248 C238 0.948 . S
C249 C215 1.395 . S
C249 C219 1.391 . S
C250 C212 1.389 . S
C250 C232 1.392 . S
C251 C222 1.392 . S
C251 C224 1.389 . S
C252 C227 1.395 . S
C252 C229 1.391 . S
H253 C213 0.951 1_565 S
H254 C214 0.950 . S
H255 C220 0.949 . S
H256 C221 0.950 . S
H257 C225 0.954 . S
H258 C226 0.950 . S
H259 C230 0.949 . S
H260 C231 0.950 . S
H261 C235 0.950 . S
H262 C237 0.950 . S
H263 C240 0.950 . S
H264 C242 0.950 . S
C265 C266 1.443 . S
C265 N269 1.376 . S
C265 C303 1.389 . S
C266 C265 1.443 . S
C266 C267 1.340 . S
C266 H306 0.951 . S
C267 C266 1.340 . S
C267 C268 1.439 . S
C267 H307 0.950 . S
C268 C267 1.439 . S
C268 N269 1.374 . S
C268 C302 1.395 . S
N269 C265 1.376 . S
N269 C268 1.374 . S
N269 Co270 2.008 . S
Co270 N269 2.008 . S
Co270 N271 1.995 . S
Co270 N276 2.008 . S
Co270 N281 1.995 . S
Co270 N286 2.282 . S
Co270 N292 2.282 . S
N271 Co270 1.995 . S
N271 C272 1.376 . S
N271 C275 1.383 . S
C272 N271 1.376 . S
C272 C273 1.446 . S
C272 C302 1.391 . S
C273 C272 1.446 . S
C273 C274 1.339 . S
C273 H308 0.949 . S
C274 C273 1.339 . S
C274 C275 1.439 . S
C274 H309 0.950 . S
C275 N271 1.383 . S
C275 C274 1.439 . S
C275 C304 1.392 . S
N276 Co270 2.008 . S
N276 C277 1.376 . S
N276 C280 1.374 . S
C277 N276 1.376 . S
C277 C278 1.443 . S
C277 C304 1.389 . S
C278 C277 1.443 . S
C278 C279 1.340 . S
C278 H310 0.951 . S
C279 C278 1.340 . S
C279 C280 1.439 . S
C279 H311 0.950 . S
C280 N276 1.374 . S
C280 C279 1.439 . S
C280 C305 1.395 . S
N281 Co270 1.995 . S
N281 C282 1.376 . S
N281 C285 1.383 . S
C282 N281 1.376 . S
C282 C283 1.446 . S
C282 C305 1.391 . S
C283 C282 1.446 . S
C283 C284 1.339 . S
C283 H312 0.949 . S
C284 C283 1.339 . S
C284 C285 1.439 . S
C284 H313 0.950 . S
C285 N281 1.383 . S
C285 C284 1.439 . S
C285 C303 1.392 . S
N286 Co270 2.282 . S
N286 C289 1.332 . S
N286 C291 1.332 . S
C287 C288 1.386 . S
C287 C290 1.388 . S
C288 C287 1.386 . S
C288 C289 1.382 . S
C288 H314 0.950 . S
C289 N286 1.332 . S
C289 C288 1.382 . S
C289 H300 0.952 . S
C290 C287 1.388 . S
C290 C291 1.382 . S
C290 H315 0.950 . S
C291 N286 1.332 . S
C291 C290 1.382 . S
C291 H301 0.948 . S
N292 Co270 2.282 . S
N292 C296 1.332 . S
N292 C297 1.332 . S
C293 C294 1.388 . S
C293 C297 1.382 . S
C293 H316 0.950 . S
C294 C293 1.388 . S
C294 C295 1.386 . S
C295 C294 1.386 . S
C295 C296 1.382 . S
C295 H317 0.950 . S
C296 N292 1.332 . S
C296 C295 1.382 . S
C296 H298 0.952 . S
C297 N292 1.332 . S
C297 C293 1.382 . S
C297 H299 0.948 . S
H298 C296 0.952 . S
H299 C297 0.948 . S
H300 C289 0.952 . S
H301 C291 0.948 . S
C302 C268 1.395 . S
C302 C272 1.391 . S
C303 C265 1.389 . S
C303 C285 1.392 . S
C304 C275 1.392 . S
C304 C277 1.389 . S
C305 C280 1.395 . S
C305 C282 1.391 . S
H306 C266 0.951 . S
H307 C267 0.950 . S
H308 C273 0.949 . S
H309 C274 0.950 . S
H310 C278 0.951 . S
H311 C279 0.950 . S
H312 C283 0.949 . S
H313 C284 0.950 . S
H314 C288 0.950 . S
H315 C290 0.950 . S
H316 C293 0.950 . S
H317 C295 0.950 . S
C318 O320 1.247 . S
C318 O322 1.258 . S
C319 O326 1.247 . S
C319 O327 1.258 . S
O320 C318 1.247 . S
O320 Zn321 2.028 . S
Zn321 O320 2.028 . S
Zn321 O325 2.035 . S
Zn321 O327 2.035 . S
Zn321 O328 2.028 . S
O322 C318 1.258 . S
O322 Zn323 2.035 . S
Zn323 O322 2.035 . S
Zn323 O324 2.028 . S
Zn323 O326 2.028 . S
Zn323 O329 2.035 . S
O324 Zn323 2.028 . S
O324 C330 1.247 . S
O325 Zn321 2.035 . S
O325 C330 1.258 . S
O326 C319 1.247 . S
O326 Zn323 2.028 . S
O327 C319 1.258 . S
O327 Zn321 2.035 . S
O328 Zn321 2.028 . S
O328 C331 1.247 . S
O329 Zn323 2.035 . S
O329 C331 1.258 . S
C330 O324 1.247 . S
C330 O325 1.258 . S
C331 O328 1.247 . S
C331 O329 1.258 . S
C332 O334 1.247 . S
C332 O336 1.258 . S
C333 O340 1.247 . S
C333 O341 1.258 . S
O334 C332 1.247 . S
O334 Zn335 2.028 . S
Zn335 O334 2.028 . S
Zn335 O339 2.035 . S
Zn335 O341 2.035 . S
Zn335 O342 2.028 . S
O336 C332 1.258 . S
O336 Zn337 2.035 . S
Zn337 O336 2.035 . S
Zn337 O338 2.028 . S
Zn337 O340 2.028 . S
Zn337 O343 2.035 . S
O338 Zn337 2.028 . S
O338 C344 1.247 . S
O339 Zn335 2.035 . S
O339 C344 1.258 . S
O340 C333 1.247 . S
O340 Zn337 2.028 . S
O341 C333 1.258 . S
O341 Zn335 2.035 . S
O342 Zn335 2.028 . S
O342 C345 1.247 . S
O343 Zn337 2.035 . S
O343 C345 1.258 . S
C344 O338 1.247 . S
C344 O339 1.258 . S
C345 O342 1.247 . S
C345 O343 1.258 . S
C346 O348 1.247 . S
C346 O350 1.258 . S
C347 O354 1.247 . S
C347 O355 1.258 . S
O348 C346 1.247 . S
O348 Zn349 2.028 . S
Zn349 O348 2.028 . S
Zn349 O353 2.035 . S
Zn349 O355 2.035 . S
Zn349 O356 2.028 . S
O350 C346 1.258 . S
O350 Zn351 2.035 . S
Zn351 O350 2.035 . S
Zn351 O352 2.028 . S
Zn351 O354 2.028 . S
Zn351 O357 2.035 . S
O352 Zn351 2.028 . S
O352 C358 1.247 . S
O353 Zn349 2.035 . S
O353 C358 1.258 . S
O354 C347 1.247 . S
O354 Zn351 2.028 . S
O355 C347 1.258 . S
O355 Zn349 2.035 . S
O356 Zn349 2.028 . S
O356 C359 1.247 . S
O357 Zn351 2.035 . S
O357 C359 1.258 . S
C358 O352 1.247 . S
C358 O353 1.258 . S
C359 O356 1.247 . S
C359 O357 1.258 . S
C360 O362 1.247 . S
C360 O364 1.258 . S
C361 O368 1.247 . S
C361 O369 1.258 . S
O362 C360 1.247 . S
O362 Zn363 2.028 . S
Zn363 O362 2.028 . S
Zn363 O367 2.035 . S
Zn363 O369 2.035 . S
Zn363 O370 2.028 . S
O364 C360 1.258 . S
O364 Zn365 2.035 . S
Zn365 O364 2.035 . S
Zn365 O366 2.028 . S
Zn365 O368 2.028 . S
Zn365 O371 2.035 . S
O366 Zn365 2.028 . S
O366 C372 1.247 . S
O367 Zn363 2.035 . S
O367 C372 1.258 . S
O368 C361 1.247 . S
O368 Zn365 2.028 . S
O369 C361 1.258 . S
O369 Zn363 2.035 . S
O370 Zn363 2.028 . S
O370 C373 1.247 . S
O371 Zn365 2.035 . S
O371 C373 1.258 . S
C372 O366 1.247 . S
C372 O367 1.258 . S
C373 O370 1.247 . S
C373 O371 1.258 . S
C374 O376 1.247 . S
C374 O378 1.258 . S
C375 O382 1.247 . S
C375 O383 1.258 . S
O376 C374 1.247 . S
O376 Zn377 2.028 . S
Zn377 O376 2.028 . S
Zn377 O381 2.035 . S
Zn377 O383 2.035 . S
Zn377 O384 2.028 . S
O378 C374 1.258 . S
O378 Zn379 2.035 . S
Zn379 O378 2.035 . S
Zn379 O380 2.028 . S
Zn379 O382 2.028 . S
Zn379 O385 2.035 . S
O380 Zn379 2.028 . S
O380 C386 1.247 . S
O381 Zn377 2.035 . S
O381 C386 1.258 . S
O382 C375 1.247 . S
O382 Zn379 2.028 . S
O383 C375 1.258 . S
O383 Zn377 2.035 . S
O384 Zn377 2.028 . S
O384 C387 1.247 . S
O385 Zn379 2.035 . S
O385 C387 1.258 . S
C386 O380 1.247 . S
C386 O381 1.258 . S
C387 O384 1.247 . S
C387 O385 1.258 . S
C388 O390 1.247 . S
C388 O392 1.258 . S
C389 O396 1.247 . S
C389 O397 1.258 . S
O390 C388 1.247 . S
O390 Zn391 2.028 . S
Zn391 O390 2.028 . S
Zn391 O395 2.035 . S
Zn391 O397 2.035 . S
Zn391 O398 2.028 . S
O392 C388 1.258 . S
O392 Zn393 2.035 . S
Zn393 O392 2.035 . S
Zn393 O394 2.028 . S
Zn393 O396 2.028 . S
Zn393 O399 2.035 . S
O394 Zn393 2.028 . S
O394 C400 1.247 . S
O395 Zn391 2.035 . S
O395 C400 1.258 . S
O396 C389 1.247 . S
O396 Zn393 2.028 . S
O397 C389 1.258 . S
O397 Zn391 2.035 . S
O398 Zn391 2.028 . S
O398 C401 1.247 . S
O399 Zn393 2.035 . S
O399 C401 1.258 . S
C400 O394 1.247 . S
C400 O395 1.258 . S
C401 O398 1.247 . S
C401 O399 1.258 . S
H402 C414 0.930 . S
H403 C416 0.930 . S
H404 C417 0.930 . S
H405 C421 0.959 . S
H406 C421 0.959 . S
H407 C421 0.961 . S
H408 C422 0.960 . S
H409 C422 0.961 . S
H410 C422 0.959 . S
H411 C425 0.929 . S
H412 C426 0.931 . S
H413 C428 0.930 . S
C414 H402 0.930 . S
C414 C415 1.399 . S
C414 C419 1.399 . S
C415 C414 1.399 . S
C415 C416 1.376 . S
C416 H403 0.930 . S
C416 C415 1.376 . S
C416 C417 1.388 . S
C417 H404 0.930 . S
C417 C416 1.388 . S
C417 C418 1.390 . S
C418 C417 1.390 . S
C418 C419 1.394 . S
C418 C424 1.465 . S
C419 C414 1.399 . S
C419 C418 1.394 . S
C419 C420 1.516 . S
C420 C419 1.516 . S
C420 C421 1.502 . S
C420 C422 1.561 . S
C420 C423 1.526 . S
C421 H405 0.959 . S
C421 H406 0.959 . S
C421 H407 0.961 . S
C421 C420 1.502 . S
C422 H408 0.960 . S
C422 H409 0.961 . S
C422 H410 0.959 . S
C422 C420 1.561 . S
C423 C420 1.526 . S
C423 C424 1.396 . S
C423 C428 1.390 . S
C424 C418 1.465 . S
C424 C423 1.396 . S
C424 C425 1.399 . S
C425 H411 0.929 . S
C425 C424 1.399 . S
C425 C426 1.385 . S
C426 H412 0.931 . S
C426 C425 1.385 . S
C426 C427 1.389 . S
C427 C426 1.389 . S
C427 C428 1.387 . S
C428 H413 0.930 . S
C428 C423 1.390 . S
C428 C427 1.387 . S
H429 C441 0.930 . S
H430 C443 0.930 . S
H431 C444 0.930 . S
H432 C448 0.959 . S
H433 C448 0.959 . S
H434 C448 0.961 . S
H435 C449 0.960 . S
H436 C449 0.961 . S
H437 C449 0.959 . S
H438 C452 0.929 . S
H439 C453 0.931 . S
H440 C455 0.930 . S
C441 H429 0.930 . S
C441 C442 1.399 . S
C441 C446 1.399 . S
C442 C441 1.399 . S
C442 C443 1.376 . S
C443 H430 0.930 . S
C443 C442 1.376 . S
C443 C444 1.388 . S
C444 H431 0.930 . S
C444 C443 1.388 . S
C444 C445 1.390 . S
C445 C444 1.390 . S
C445 C446 1.394 . S
C445 C451 1.465 . S
C446 C441 1.399 . S
C446 C445 1.394 . S
C446 C447 1.516 . S
C447 C446 1.516 . S
C447 C448 1.502 . S
C447 C449 1.561 . S
C447 C450 1.526 . S
C448 H432 0.959 . S
C448 H433 0.959 . S
C448 H434 0.961 . S
C448 C447 1.502 . S
C449 H435 0.960 . S
C449 H436 0.961 . S
C449 H437 0.959 . S
C449 C447 1.561 . S
C450 C447 1.526 . S
C450 C451 1.396 . S
C450 C455 1.390 . S
C451 C445 1.465 . S
C451 C450 1.396 . S
C451 C452 1.399 . S
C452 H438 0.929 . S
C452 C451 1.399 . S
C452 C453 1.385 . S
C453 H439 0.931 . S
C453 C452 1.385 . S
C453 C454 1.389 . S
C454 C453 1.389 . S
C454 C455 1.387 . S
C455 H440 0.930 . S
C455 C450 1.390 . S
C455 C454 1.387 . S
H456 C468 0.930 . S
H457 C470 0.930 . S
H458 C471 0.930 . S
H459 C475 0.959 . S
H460 C475 0.959 . S
H461 C475 0.961 . S
H462 C476 0.960 . S
H463 C476 0.961 . S
H464 C476 0.959 . S
H465 C479 0.929 . S
H466 C480 0.931 . S
H467 C482 0.930 . S
C468 H456 0.930 . S
C468 C469 1.399 . S
C468 C473 1.399 . S
C469 C468 1.399 . S
C469 C470 1.376 . S
C470 H457 0.930 . S
C470 C469 1.376 . S
C470 C471 1.388 . S
C471 H458 0.930 . S
C471 C470 1.388 . S
C471 C472 1.390 . S
C472 C471 1.390 . S
C472 C473 1.394 . S
C472 C478 1.465 . S
C473 C468 1.399 . S
C473 C472 1.394 . S
C473 C474 1.516 . S
C474 C473 1.516 . S
C474 C475 1.502 . S
C474 C476 1.561 . S
C474 C477 1.526 . S
C475 H459 0.959 . S
C475 H460 0.959 . S
C475 H461 0.961 . S
C475 C474 1.502 . S
C476 H462 0.960 . S
C476 H463 0.961 . S
C476 H464 0.959 . S
C476 C474 1.561 . S
C477 C474 1.526 . S
C477 C478 1.396 . S
C477 C482 1.390 . S
C478 C472 1.465 . S
C478 C477 1.396 . S
C478 C479 1.399 . S
C479 H465 0.929 . S
C479 C478 1.399 . S
C479 C480 1.385 . S
C480 H466 0.931 . S
C480 C479 1.385 . S
C480 C481 1.389 . S
C481 C480 1.389 . S
C481 C482 1.387 . S
C482 H467 0.930 . S
C482 C477 1.390 . S
C482 C481 1.387 . S
H483 C495 0.930 . S
H484 C497 0.930 . S
H485 C498 0.930 . S
H486 C502 0.959 . S
H487 C502 0.959 . S
H488 C502 0.961 . S
H489 C503 0.960 . S
H490 C503 0.961 . S
H491 C503 0.959 . S
H492 C506 0.929 . S
H493 C507 0.931 . S
H494 C509 0.930 . S
C495 H483 0.930 . S
C495 C496 1.399 . S
C495 C500 1.399 . S
C496 C495 1.399 . S
C496 C497 1.376 . S
C497 H484 0.930 . S
C497 C496 1.376 . S
C497 C498 1.388 . S
C498 H485 0.930 . S
C498 C497 1.388 . S
C498 C499 1.390 . S
C499 C498 1.390 . S
C499 C500 1.394 . S
C499 C505 1.465 . S
C500 C495 1.399 . S
C500 C499 1.394 . S
C500 C501 1.516 . S
C501 C500 1.516 . S
C501 C502 1.502 . S
C501 C503 1.561 . S
C501 C504 1.526 . S
C502 H486 0.959 . S
C502 H487 0.959 . S
C502 H488 0.961 . S
C502 C501 1.502 . S
C503 H489 0.960 . S
C503 H490 0.961 . S
C503 H491 0.959 . S
C503 C501 1.561 . S
C504 C501 1.526 . S
C504 C505 1.396 . S
C504 C509 1.390 . S
C505 C499 1.465 . S
C505 C504 1.396 . S
C505 C506 1.399 . S
C506 H492 0.929 . S
C506 C505 1.399 . S
C506 C507 1.385 . S
C507 H493 0.931 . S
C507 C506 1.385 . S
C507 C508 1.389 . S
C508 C507 1.389 . S
C508 C509 1.387 . S
C509 H494 0.930 . S
C509 C504 1.390 . S
C509 C508 1.387 . S
H510 C522 0.930 . S
H511 C524 0.930 . S
H512 C525 0.930 . S
H513 C529 0.959 . S
H514 C529 0.959 . S
H515 C529 0.961 . S
H516 C530 0.960 . S
H517 C530 0.961 . S
H518 C530 0.959 . S
H519 C533 0.929 . S
H520 C534 0.931 . S
H521 C536 0.930 . S
C522 H510 0.930 . S
C522 C523 1.399 . S
C522 C527 1.399 . S
C523 C522 1.399 . S
C523 C524 1.376 . S
C524 H511 0.930 . S
C524 C523 1.376 . S
C524 C525 1.388 . S
C525 H512 0.930 . S
C525 C524 1.388 . S
C525 C526 1.390 . S
C526 C525 1.390 . S
C526 C527 1.394 . S
C526 C532 1.465 . S
C527 C522 1.399 . S
C527 C526 1.394 . S
C527 C528 1.516 . S
C528 C527 1.516 . S
C528 C529 1.502 . S
C528 C530 1.561 . S
C528 C531 1.526 . S
C529 H513 0.959 . S
C529 H514 0.959 . S
C529 H515 0.961 . S
C529 C528 1.502 . S
C530 H516 0.960 . S
C530 H517 0.961 . S
C530 H518 0.959 . S
C530 C528 1.561 . S
C531 C528 1.526 . S
C531 C532 1.396 . S
C531 C536 1.390 . S
C532 C526 1.465 . S
C532 C531 1.396 . S
C532 C533 1.399 . S
C533 H519 0.929 . S
C533 C532 1.399 . S
C533 C534 1.385 . S
C534 H520 0.931 . S
C534 C533 1.385 . S
C534 C535 1.389 . S
C535 C534 1.389 . S
C535 C536 1.387 . S
C536 H521 0.930 . S
C536 C531 1.390 . S
C536 C535 1.387 . S
H537 C549 0.930 . S
H538 C551 0.930 . S
H539 C552 0.930 . S
H540 C556 0.959 . S
H541 C556 0.959 . S
H542 C556 0.961 . S
H543 C557 0.960 . S
H544 C557 0.961 . S
H545 C557 0.959 . S
H546 C560 0.929 . S
H547 C561 0.931 . S
H548 C563 0.930 . S
C549 H537 0.930 . S
C549 C550 1.399 . S
C549 C554 1.399 . S
C550 C549 1.399 . S
C550 C551 1.376 . S
C551 H538 0.930 . S
C551 C550 1.376 . S
C551 C552 1.388 . S
C552 H539 0.930 . S
C552 C551 1.388 . S
C552 C553 1.390 . S
C553 C552 1.390 . S
C553 C554 1.394 . S
C553 C559 1.465 . S
C554 C549 1.399 . S
C554 C553 1.394 . S
C554 C555 1.516 . S
C555 C554 1.516 . S
C555 C556 1.502 . S
C555 C557 1.561 . S
C555 C558 1.526 . S
C556 H540 0.959 . S
C556 H541 0.959 . S
C556 H542 0.961 . S
C556 C555 1.502 . S
C557 H543 0.960 . S
C557 H544 0.961 . S
C557 H545 0.959 . S
C557 C555 1.561 . S
C558 C555 1.526 . S
C558 C559 1.396 . S
C558 C563 1.390 . S
C559 C553 1.465 . S
C559 C558 1.396 . S
C559 C560 1.399 . S
C560 H546 0.929 . S
C560 C559 1.399 . S
C560 C561 1.385 . S
C561 H547 0.931 . S
C561 C560 1.385 . S
C561 C562 1.389 . S
C562 C561 1.389 . S
C562 C563 1.387 . S
C563 H548 0.930 . S
C563 C558 1.390 . S
C563 C562 1.387 . S
H564 C576 0.930 . S
H565 C578 0.930 . S
H566 C579 0.930 . S
H567 C583 0.959 . S
H568 C583 0.959 . S
H569 C583 0.961 . S
H570 C584 0.960 . S
H571 C584 0.961 . S
H572 C584 0.959 . S
H573 C587 0.929 . S
H574 C588 0.931 . S
H575 C590 0.930 . S
C576 H564 0.930 . S
C576 C577 1.399 . S
C576 C581 1.399 . S
C577 C576 1.399 . S
C577 C578 1.376 . S
C578 H565 0.930 . S
C578 C577 1.376 . S
C578 C579 1.388 . S
C579 H566 0.930 . S
C579 C578 1.388 . S
C579 C580 1.390 . S
C580 C579 1.390 . S
C580 C581 1.394 . S
C580 C586 1.465 . S
C581 C576 1.399 . S
C581 C580 1.394 . S
C581 C582 1.516 . S
C582 C581 1.516 . S
C582 C583 1.502 . S
C582 C584 1.561 . S
C582 C585 1.526 . S
C583 H567 0.959 . S
C583 H568 0.959 . S
C583 H569 0.961 . S
C583 C582 1.502 . S
C584 H570 0.960 . S
C584 H571 0.961 . S
C584 H572 0.959 . S
C584 C582 1.561 . S
C585 C582 1.526 . S
C585 C586 1.396 . S
C585 C590 1.390 . S
C586 C580 1.465 . S
C586 C585 1.396 . S
C586 C587 1.399 . S
C587 H573 0.929 . S
C587 C586 1.399 . S
C587 C588 1.385 . S
C588 H574 0.931 . S
C588 C587 1.385 . S
C588 C589 1.389 . S
C589 C588 1.389 . S
C589 C590 1.387 . S
C590 H575 0.930 . S
C590 C585 1.390 . S
C590 C589 1.387 . S
H591 C603 0.930 . S
H592 C605 0.930 . S
H593 C606 0.930 . S
H594 C610 0.959 . S
H595 C610 0.959 . S
H596 C610 0.961 . S
H597 C611 0.960 . S
H598 C611 0.961 . S
H599 C611 0.959 . S
H600 C614 0.929 . S
H601 C615 0.931 . S
H602 C617 0.930 . S
C603 H591 0.930 . S
C603 C604 1.399 . S
C603 C608 1.399 . S
C604 C603 1.399 . S
C604 C605 1.376 . S
C605 H592 0.930 . S
C605 C604 1.376 . S
C605 C606 1.388 . S
C606 H593 0.930 . S
C606 C605 1.388 . S
C606 C607 1.390 . S
C607 C606 1.390 . S
C607 C608 1.394 . S
C607 C613 1.465 . S
C608 C603 1.399 . S
C608 C607 1.394 . S
C608 C609 1.516 . S
C609 C608 1.516 . S
C609 C610 1.502 . S
C609 C611 1.561 . S
C609 C612 1.526 . S
C610 H594 0.959 . S
C610 H595 0.959 . S
C610 H596 0.961 . S
C610 C609 1.502 . S
C611 H597 0.960 . S
C611 H598 0.961 . S
C611 H599 0.959 . S
C611 C609 1.561 . S
C612 C609 1.526 . S
C612 C613 1.396 . S
C612 C617 1.390 . S
C613 C607 1.465 . S
C613 C612 1.396 . S
C613 C614 1.399 . S
C614 H600 0.929 . S
C614 C613 1.399 . S
C614 C615 1.385 . S
C615 H601 0.931 . S
C615 C614 1.385 . S
C615 C616 1.389 . S
C616 C615 1.389 . S
C616 C617 1.387 . S
C617 H602 0.930 . S
C617 C612 1.390 . S
C617 C616 1.387 . S
H618 C630 0.930 . S
H619 C632 0.930 . S
H620 C633 0.930 . S
H621 C637 0.959 . S
H622 C637 0.959 . S
H623 C637 0.961 . S
H624 C638 0.960 . S
H625 C638 0.961 . S
H626 C638 0.959 . S
H627 C641 0.929 . S
H628 C642 0.931 . S
H629 C644 0.930 . S
C630 H618 0.930 . S
C630 C631 1.399 . S
C630 C635 1.399 . S
C631 C630 1.399 . S
C631 C632 1.376 . S
C632 H619 0.930 . S
C632 C631 1.376 . S
C632 C633 1.388 . S
C633 H620 0.930 . S
C633 C632 1.388 . S
C633 C634 1.390 . S
C634 C633 1.390 . S
C634 C635 1.394 . S
C634 C640 1.465 . S
C635 C630 1.399 . S
C635 C634 1.394 . S
C635 C636 1.516 . S
C636 C635 1.516 . S
C636 C637 1.502 . S
C636 C638 1.561 . S
C636 C639 1.526 . S
C637 H621 0.959 . S
C637 H622 0.959 . S
C637 H623 0.961 . S
C637 C636 1.502 . S
C638 H624 0.960 . S
C638 H625 0.961 . S
C638 H626 0.959 . S
C638 C636 1.561 . S
C639 C636 1.526 . S
C639 C640 1.396 . S
C639 C644 1.390 . S
C640 C634 1.465 . S
C640 C639 1.396 . S
C640 C641 1.399 . S
C641 H627 0.929 . S
C641 C640 1.399 . S
C641 C642 1.385 . S
C642 H628 0.931 . S
C642 C641 1.385 . S
C642 C643 1.389 . S
C643 C642 1.389 . S
C643 C644 1.387 . S
C644 H629 0.930 . S
C644 C639 1.390 . S
C644 C643 1.387 . S
H645 C657 0.930 . S
H646 C659 0.930 . S
H647 C660 0.930 . S
H648 C664 0.959 . S
H649 C664 0.959 . S
H650 C664 0.961 . S
H651 C665 0.960 . S
H652 C665 0.961 . S
H653 C665 0.959 . S
H654 C668 0.929 . S
H655 C669 0.931 . S
H656 C671 0.930 . S
C657 H645 0.930 . S
C657 C658 1.399 . S
C657 C662 1.399 . S
C658 C657 1.399 . S
C658 C659 1.376 . S
C659 H646 0.930 . S
C659 C658 1.376 . S
C659 C660 1.388 . S
C660 H647 0.930 . S
C660 C659 1.388 . S
C660 C661 1.390 . S
C661 C660 1.390 . S
C661 C662 1.394 . S
C661 C667 1.465 . S
C662 C657 1.399 . S
C662 C661 1.394 . S
C662 C663 1.516 . S
C663 C662 1.516 . S
C663 C664 1.502 . S
C663 C665 1.561 . S
C663 C666 1.526 . S
C664 H648 0.959 . S
C664 H649 0.959 . S
C664 H650 0.961 . S
C664 C663 1.502 . S
C665 H651 0.960 . S
C665 H652 0.961 . S
C665 H653 0.959 . S
C665 C663 1.561 . S
C666 C663 1.526 . S
C666 C667 1.396 . S
C666 C671 1.390 . S
C667 C661 1.465 . S
C667 C666 1.396 . S
C667 C668 1.399 . S
C668 H654 0.929 . S
C668 C667 1.399 . S
C668 C669 1.385 . S
C669 H655 0.931 . S
C669 C668 1.385 . S
C669 C670 1.389 . S
C670 C669 1.389 . S
C670 C671 1.387 . S
C671 H656 0.930 . S
C671 C666 1.390 . S
C671 C670 1.387 . S
H672 C684 0.930 . S
H673 C686 0.930 . S
H674 C687 0.930 . S
H675 C691 0.959 . S
H676 C691 0.959 . S
H677 C691 0.961 . S
H678 C692 0.960 . S
H679 C692 0.961 . S
H680 C692 0.959 . S
H681 C695 0.929 . S
H682 C696 0.931 . S
H683 C698 0.930 . S
C684 H672 0.930 . S
C684 C685 1.399 . S
C684 C689 1.399 . S
C685 C684 1.399 . S
C685 C686 1.376 . S
C686 H673 0.930 . S
C686 C685 1.376 . S
C686 C687 1.388 . S
C687 H674 0.930 . S
C687 C686 1.388 . S
C687 C688 1.390 . S
C688 C687 1.390 . S
C688 C689 1.394 . S
C688 C694 1.465 . S
C689 C684 1.399 . S
C689 C688 1.394 . S
C689 C690 1.516 . S
C690 C689 1.516 . S
C690 C691 1.502 . S
C690 C692 1.561 . S
C690 C693 1.526 . S
C691 H675 0.959 . S
C691 H676 0.959 . S
C691 H677 0.961 . S
C691 C690 1.502 . S
C692 H678 0.960 . S
C692 H679 0.961 . S
C692 H680 0.959 . S
C692 C690 1.561 . S
C693 C690 1.526 . S
C693 C694 1.396 . S
C693 C698 1.390 . S
C694 C688 1.465 . S
C694 C693 1.396 . S
C694 C695 1.399 . S
C695 H681 0.929 . S
C695 C694 1.399 . S
C695 C696 1.385 . S
C696 H682 0.931 . S
C696 C695 1.385 . S
C696 C697 1.389 . S
C697 C696 1.389 . S
C697 C698 1.387 . S
C698 H683 0.930 . S
C698 C693 1.390 . S
C698 C697 1.387 . S
H699 C711 0.930 . S
H700 C713 0.930 . S
H701 C714 0.930 . S
H702 C718 0.959 . S
H703 C718 0.959 . S
H704 C718 0.961 . S
H705 C719 0.960 . S
H706 C719 0.961 . S
H707 C719 0.959 . S
H708 C722 0.929 . S
H709 C723 0.931 . S
H710 C725 0.930 . S
C711 H699 0.930 . S
C711 C712 1.399 . S
C711 C716 1.399 . S
C712 C711 1.399 . S
C712 C713 1.376 . S
C713 H700 0.930 . S
C713 C712 1.376 . S
C713 C714 1.388 . S
C714 H701 0.930 . S
C714 C713 1.388 . S
C714 C715 1.390 . S
C715 C714 1.390 . S
C715 C716 1.394 . S
C715 C721 1.465 . S
C716 C711 1.399 . S
C716 C715 1.394 . S
C716 C717 1.516 . S
C717 C716 1.516 . S
C717 C718 1.502 . S
C717 C719 1.561 . S
C717 C720 1.526 . S
C718 H702 0.959 . S
C718 H703 0.959 . S
C718 H704 0.961 . S
C718 C717 1.502 . S
C719 H705 0.960 . S
C719 H706 0.961 . S
C719 H707 0.959 . S
C719 C717 1.561 . S
C720 C717 1.526 . S
C720 C721 1.396 . S
C720 C725 1.390 . S
C721 C715 1.465 . S
C721 C720 1.396 . S
C721 C722 1.399 . S
C722 H708 0.929 . S
C722 C721 1.399 . S
C722 C723 1.385 . S
C723 H709 0.931 . S
C723 C722 1.385 . S
C723 C724 1.389 . S
C724 C723 1.389 . S
C724 C725 1.387 . S
C725 H710 0.930 . S
C725 C720 1.390 . S
C725 C724 1.387 . S
H726 C738 0.930 . S
H727 C740 0.930 . S
H728 C741 0.930 . S
H729 C745 0.959 . S
H730 C745 0.959 . S
H731 C745 0.961 . S
H732 C746 0.960 . S
H733 C746 0.961 . S
H734 C746 0.959 . S
H735 C749 0.929 . S
H736 C750 0.931 . S
H737 C752 0.930 . S
C738 H726 0.930 . S
C738 C739 1.399 . S
C738 C743 1.399 . S
C739 C738 1.399 . S
C739 C740 1.376 . S
C740 H727 0.930 . S
C740 C739 1.376 . S
C740 C741 1.388 . S
C741 H728 0.930 . S
C741 C740 1.388 . S
C741 C742 1.390 . S
C742 C741 1.390 . S
C742 C743 1.394 . S
C742 C748 1.465 . S
C743 C738 1.399 . S
C743 C742 1.394 . S
C743 C744 1.516 . S
C744 C743 1.516 . S
C744 C745 1.502 . S
C744 C746 1.561 . S
C744 C747 1.526 . S
C745 H729 0.959 . S
C745 H730 0.959 . S
C745 H731 0.961 . S
C745 C744 1.502 . S
C746 H732 0.960 . S
C746 H733 0.961 . S
C746 H734 0.959 . S
C746 C744 1.561 . S
C747 C744 1.526 . S
C747 C748 1.396 . S
C747 C752 1.390 . S
C748 C742 1.465 . S
C748 C747 1.396 . S
C748 C749 1.399 . S
C749 H735 0.929 . S
C749 C748 1.399 . S
C749 C750 1.385 . S
C750 H736 0.931 . S
C750 C749 1.385 . S
C750 C751 1.389 . S
C751 C750 1.389 . S
C751 C752 1.387 . S
C752 H737 0.930 . S
C752 C747 1.390 . S
C752 C751 1.387 . S
H753 C765 0.930 . S
H754 C767 0.930 . S
H755 C768 0.930 . S
H756 C772 0.959 . S
H757 C772 0.959 . S
H758 C772 0.961 . S
H759 C773 0.960 . S
H760 C773 0.961 . S
H761 C773 0.959 . S
H762 C776 0.929 . S
H763 C777 0.931 . S
H764 C779 0.930 . S
C765 H753 0.930 . S
C765 C766 1.399 . S
C765 C770 1.399 . S
C766 C765 1.399 . S
C766 C767 1.376 . S
C767 H754 0.930 . S
C767 C766 1.376 . S
C767 C768 1.388 . S
C768 H755 0.930 . S
C768 C767 1.388 . S
C768 C769 1.390 . S
C769 C768 1.390 . S
C769 C770 1.394 . S
C769 C775 1.465 . S
C770 C765 1.399 . S
C770 C769 1.394 . S
C770 C771 1.516 . S
C771 C770 1.516 . S
C771 C772 1.502 . S
C771 C773 1.561 . S
C771 C774 1.526 . S
C772 H756 0.959 . S
C772 H757 0.959 . S
C772 H758 0.961 . S
C772 C771 1.502 . S
C773 H759 0.960 . S
C773 H760 0.961 . S
C773 H761 0.959 . S
C773 C771 1.561 . S
C774 C771 1.526 . S
C774 C775 1.396 . S
C774 C779 1.390 . S
C775 C769 1.465 . S
C775 C774 1.396 . S
C775 C776 1.399 . S
C776 H762 0.929 . S
C776 C775 1.399 . S
C776 C777 1.385 . S
C777 H763 0.931 . S
C777 C776 1.385 . S
C777 C778 1.389 . S
C778 C777 1.389 . S
C778 C779 1.387 . S
C779 H764 0.930 . S
C779 C774 1.390 . S
C779 C778 1.387 . S
H780 C792 0.930 . S
H781 C794 0.930 . S
H782 C795 0.930 . S
H783 C799 0.959 . S
H784 C799 0.959 . S
H785 C799 0.961 . S
H786 C800 0.960 . S
H787 C800 0.961 . S
H788 C800 0.959 . S
H789 C803 0.929 . S
H790 C804 0.931 . S
H791 C806 0.930 . S
C792 H780 0.930 . S
C792 C793 1.399 . S
C792 C797 1.399 . S
C793 C792 1.399 . S
C793 C794 1.376 . S
C794 H781 0.930 . S
C794 C793 1.376 . S
C794 C795 1.388 . S
C795 H782 0.930 . S
C795 C794 1.388 . S
C795 C796 1.390 . S
C796 C795 1.390 . S
C796 C797 1.394 . S
C796 C802 1.465 . S
C797 C792 1.399 . S
C797 C796 1.394 . S
C797 C798 1.516 . S
C798 C797 1.516 . S
C798 C799 1.502 . S
C798 C800 1.561 . S
C798 C801 1.526 . S
C799 H783 0.959 . S
C799 H784 0.959 . S
C799 H785 0.961 . S
C799 C798 1.502 . S
C800 H786 0.960 . S
C800 H787 0.961 . S
C800 H788 0.959 . S
C800 C798 1.561 . S
C801 C798 1.526 . S
C801 C802 1.396 . S
C801 C806 1.390 . S
C802 C796 1.465 . S
C802 C801 1.396 . S
C802 C803 1.399 . S
C803 H789 0.929 . S
C803 C802 1.399 . S
C803 C804 1.385 . S
C804 H790 0.931 . S
C804 C803 1.385 . S
C804 C805 1.389 . S
C805 C804 1.389 . S
C805 C806 1.387 . S
C806 H791 0.930 . S
C806 C801 1.390 . S
C806 C805 1.387 . S
H807 C819 0.930 . S
H808 C821 0.930 . S
H809 C822 0.930 . S
H810 C826 0.959 . S
H811 C826 0.959 . S
H812 C826 0.961 . S
H813 C827 0.960 . S
H814 C827 0.961 . S
H815 C827 0.959 . S
H816 C830 0.929 . S
H817 C831 0.931 . S
H818 C833 0.930 . S
C819 H807 0.930 . S
C819 C820 1.399 . S
C819 C824 1.399 . S
C820 C819 1.399 . S
C820 C821 1.376 . S
C821 H808 0.930 . S
C821 C820 1.376 . S
C821 C822 1.388 . S
C822 H809 0.930 . S
C822 C821 1.388 . S
C822 C823 1.390 . S
C823 C822 1.390 . S
C823 C824 1.394 . S
C823 C829 1.465 . S
C824 C819 1.399 . S
C824 C823 1.394 . S
C824 C825 1.516 . S
C825 C824 1.516 . S
C825 C826 1.502 . S
C825 C827 1.561 . S
C825 C828 1.526 . S
C826 H810 0.959 . S
C826 H811 0.959 . S
C826 H812 0.961 . S
C826 C825 1.502 . S
C827 H813 0.960 . S
C827 H814 0.961 . S
C827 H815 0.959 . S
C827 C825 1.561 . S
C828 C825 1.526 . S
C828 C829 1.396 . S
C828 C833 1.390 . S
C829 C823 1.465 . S
C829 C828 1.396 . S
C829 C830 1.399 . S
C830 H816 0.929 . S
C830 C829 1.399 . S
C830 C831 1.385 . S
C831 H817 0.931 . S
C831 C830 1.385 . S
C831 C832 1.389 . S
C832 C831 1.389 . S
C832 C833 1.387 . S
C833 H818 0.930 . S
C833 C828 1.390 . S
C833 C832 1.387 . S
H834 C846 0.930 . S
H835 C848 0.930 . S
H836 C849 0.930 . S
H837 C853 0.959 . S
H838 C853 0.959 . S
H839 C853 0.961 . S
H840 C854 0.960 . S
H841 C854 0.961 . S
H842 C854 0.959 . S
H843 C857 0.929 . S
H844 C858 0.931 . S
H845 C860 0.930 . S
C846 H834 0.930 . S
C846 C847 1.399 . S
C846 C851 1.399 . S
C847 C846 1.399 . S
C847 C848 1.376 . S
C848 H835 0.930 . S
C848 C847 1.376 . S
C848 C849 1.388 . S
C849 H836 0.930 . S
C849 C848 1.388 . S
C849 C850 1.390 . S
C850 C849 1.390 . S
C850 C851 1.394 . S
C850 C856 1.465 . S
C851 C846 1.399 . S
C851 C850 1.394 . S
C851 C852 1.516 . S
C852 C851 1.516 . S
C852 C853 1.502 . S
C852 C854 1.561 . S
C852 C855 1.526 . S
C853 H837 0.959 . S
C853 H838 0.959 . S
C853 H839 0.961 . S
C853 C852 1.502 . S
C854 H840 0.960 . S
C854 H841 0.961 . S
C854 H842 0.959 . S
C854 C852 1.561 . S
C855 C852 1.526 . S
C855 C856 1.396 . S
C855 C860 1.390 . S
C856 C850 1.465 . S
C856 C855 1.396 . S
C856 C857 1.399 . S
C857 H843 0.929 . S
C857 C856 1.399 . S
C857 C858 1.385 . S
C858 H844 0.931 . S
C858 C857 1.385 . S
C858 C859 1.389 . S
C859 C858 1.389 . S
C859 C860 1.387 . S
C860 H845 0.930 . S
C860 C855 1.390 . S
C860 C859 1.387 . S
H861 C873 0.930 . S
H862 C875 0.930 . S
H863 C876 0.930 . S
H864 C880 0.959 . S
H865 C880 0.959 . S
H866 C880 0.961 . S
H867 C881 0.960 . S
H868 C881 0.961 . S
H869 C881 0.959 . S
H870 C884 0.929 . S
H871 C885 0.931 . S
H872 C887 0.930 . S
C873 H861 0.930 . S
C873 C874 1.399 . S
C873 C878 1.399 . S
C874 C873 1.399 . S
C874 C875 1.376 . S
C875 H862 0.930 . S
C875 C874 1.376 . S
C875 C876 1.388 . S
C876 H863 0.930 . S
C876 C875 1.388 . S
C876 C877 1.390 . S
C877 C876 1.390 . S
C877 C878 1.394 . S
C877 C883 1.465 . S
C878 C873 1.399 . S
C878 C877 1.394 . S
C878 C879 1.516 . S
C879 C878 1.516 . S
C879 C880 1.502 . S
C879 C881 1.561 . S
C879 C882 1.526 . S
C880 H864 0.959 . S
C880 H865 0.959 . S
C880 H866 0.961 . S
C880 C879 1.502 . S
C881 H867 0.960 . S
C881 H868 0.961 . S
C881 H869 0.959 . S
C881 C879 1.561 . S
C882 C879 1.526 . S
C882 C883 1.396 . S
C882 C887 1.390 . S
C883 C877 1.465 . S
C883 C882 1.396 . S
C883 C884 1.399 . S
C884 H870 0.929 . S
C884 C883 1.399 . S
C884 C885 1.385 . S
C885 H871 0.931 . S
C885 C884 1.385 . S
C885 C886 1.389 . S
C886 C885 1.389 . S
C886 C887 1.387 . S
C887 H872 0.930 . S
C887 C882 1.390 . S
C887 C886 1.387 . S
H888 C900 0.930 . S
H889 C902 0.930 . S
H890 C903 0.930 . S
H891 C907 0.959 . S
H892 C907 0.959 . S
H893 C907 0.961 . S
H894 C908 0.960 . S
H895 C908 0.961 . S
H896 C908 0.959 . S
H897 C911 0.929 . S
H898 C912 0.931 . S
H899 C914 0.930 . S
C900 H888 0.930 . S
C900 C901 1.399 . S
C900 C905 1.399 . S
C901 C900 1.399 . S
C901 C902 1.376 . S
C902 H889 0.930 . S
C902 C901 1.376 . S
C902 C903 1.388 . S
C903 H890 0.930 . S
C903 C902 1.388 . S
C903 C904 1.390 . S
C904 C903 1.390 . S
C904 C905 1.394 . S
C904 C910 1.465 . S
C905 C900 1.399 . S
C905 C904 1.394 . S
C905 C906 1.516 . S
C906 C905 1.516 . S
C906 C907 1.502 . S
C906 C908 1.561 . S
C906 C909 1.526 . S
C907 H891 0.959 . S
C907 H892 0.959 . S
C907 H893 0.961 . S
C907 C906 1.502 . S
C908 H894 0.960 . S
C908 H895 0.961 . S
C908 H896 0.959 . S
C908 C906 1.561 . S
C909 C906 1.526 . S
C909 C910 1.396 . S
C909 C914 1.390 . S
C910 C904 1.465 . S
C910 C909 1.396 . S
C910 C911 1.399 . S
C911 H897 0.929 . S
C911 C910 1.399 . S
C911 C912 1.385 . S
C912 H898 0.931 . S
C912 C911 1.385 . S
C912 C913 1.389 . S
C913 C912 1.389 . S
C913 C914 1.387 . S
C914 H899 0.930 . S
C914 C909 1.390 . S
C914 C913 1.387 . S
H915 C927 0.930 . S
H916 C929 0.930 . S
H917 C930 0.930 . S
H918 C934 0.959 . S
H919 C934 0.959 . S
H920 C934 0.961 . S
H921 C935 0.960 . S
H922 C935 0.961 . S
H923 C935 0.959 . S
H924 C938 0.929 . S
H925 C939 0.931 . S
H926 C941 0.930 . S
C927 H915 0.930 . S
C927 C928 1.399 . S
C927 C932 1.399 . S
C928 C927 1.399 . S
C928 C929 1.376 . S
C929 H916 0.930 . S
C929 C928 1.376 . S
C929 C930 1.388 . S
C930 H917 0.930 . S
C930 C929 1.388 . S
C930 C931 1.390 . S
C931 C930 1.390 . S
C931 C932 1.394 . S
C931 C937 1.465 . S
C932 C927 1.399 . S
C932 C931 1.394 . S
C932 C933 1.516 . S
C933 C932 1.516 . S
C933 C934 1.502 . S
C933 C935 1.561 . S
C933 C936 1.526 . S
C934 H918 0.959 . S
C934 H919 0.959 . S
C934 H920 0.961 . S
C934 C933 1.502 . S
C935 H921 0.960 . S
C935 H922 0.961 . S
C935 H923 0.959 . S
C935 C933 1.561 . S
C936 C933 1.526 . S
C936 C937 1.396 . S
C936 C941 1.390 . S
C937 C931 1.465 . S
C937 C936 1.396 . S
C937 C938 1.399 . S
C938 H924 0.929 . S
C938 C937 1.399 . S
C938 C939 1.385 . S
C939 H925 0.931 . S
C939 C938 1.385 . S
C939 C940 1.389 . S
C940 C939 1.389 . S
C940 C941 1.387 . S
C941 H926 0.930 . S
C941 C936 1.390 . S
C941 C940 1.387 . S
H942 C954 0.930 . S
H943 C956 0.930 . S
H944 C957 0.930 . S
H945 C961 0.959 . S
H946 C961 0.959 . S
H947 C961 0.961 . S
H948 C962 0.960 . S
H949 C962 0.961 . S
H950 C962 0.959 . S
H951 C965 0.929 . S
H952 C966 0.931 . S
H953 C968 0.930 . S
C954 H942 0.930 . S
C954 C955 1.399 . S
C954 C959 1.399 . S
C955 C954 1.399 . S
C955 C956 1.376 . S
C956 H943 0.930 . S
C956 C955 1.376 . S
C956 C957 1.388 . S
C957 H944 0.930 . S
C957 C956 1.388 . S
C957 C958 1.390 . S
C958 C957 1.390 . S
C958 C959 1.394 . S
C958 C964 1.465 . S
C959 C954 1.399 . S
C959 C958 1.394 . S
C959 C960 1.516 . S
C960 C959 1.516 . S
C960 C961 1.502 . S
C960 C962 1.561 . S
C960 C963 1.526 . S
C961 H945 0.959 . S
C961 H946 0.959 . S
C961 H947 0.961 . S
C961 C960 1.502 . S
C962 H948 0.960 . S
C962 H949 0.961 . S
C962 H950 0.959 . S
C962 C960 1.561 . S
C963 C960 1.526 . S
C963 C964 1.396 . S
C963 C968 1.390 . S
C964 C958 1.465 . S
C964 C963 1.396 . S
C964 C965 1.399 . S
C965 H951 0.929 . S
C965 C964 1.399 . S
C965 C966 1.385 . S
C966 H952 0.931 . S
C966 C965 1.385 . S
C966 C967 1.389 . S
C967 C966 1.389 . S
C967 C968 1.387 . S
C968 H953 0.930 . S
C968 C963 1.390 . S
C968 C967 1.387 . S
H969 C981 0.930 . S
H970 C983 0.930 . S
H971 C984 0.930 . S
H972 C988 0.959 . S
H973 C988 0.959 . S
H974 C988 0.961 . S
H975 C989 0.960 . S
H976 C989 0.961 . S
H977 C989 0.959 . S
H978 C992 0.929 . S
H979 C993 0.931 . S
H980 C995 0.930 . S
C981 H969 0.930 . S
C981 C982 1.399 . S
C981 C986 1.399 . S
C982 C981 1.399 . S
C982 C983 1.376 . S
C983 H970 0.930 . S
C983 C982 1.376 . S
C983 C984 1.388 . S
C984 H971 0.930 . S
C984 C983 1.388 . S
C984 C985 1.390 . S
C985 C984 1.390 . S
C985 C986 1.394 . S
C985 C991 1.465 . S
C986 C981 1.399 . S
C986 C985 1.394 . S
C986 C987 1.516 . S
C987 C986 1.516 . S
C987 C988 1.502 . S
C987 C989 1.561 . S
C987 C990 1.526 . S
C988 H972 0.959 . S
C988 H973 0.959 . S
C988 H974 0.961 . S
C988 C987 1.502 . S
C989 H975 0.960 . S
C989 H976 0.961 . S
C989 H977 0.959 . S
C989 C987 1.561 . S
C990 C987 1.526 . S
C990 C991 1.396 . S
C990 C995 1.390 . S
C991 C985 1.465 . S
C991 C990 1.396 . S
C991 C992 1.399 . S
C992 H978 0.929 . S
C992 C991 1.399 . S
C992 C993 1.385 . S
C993 H979 0.931 . S
C993 C992 1.385 . S
C993 C994 1.389 . S
C994 C993 1.389 . S
C994 C995 1.387 . S
C995 H980 0.930 . S
C995 C990 1.390 . S
C995 C994 1.387 . S
H996 C1008 0.930 . S
H997 C1010 0.930 . S
H998 C1011 0.930 . S
H999 C1015 0.959 . S
H1000 C1015 0.959 . S
H1001 C1015 0.961 . S
H1002 C1016 0.960 . S
H1003 C1016 0.961 . S
H1004 C1016 0.959 . S
H1005 C1019 0.929 . S
H1006 C1020 0.931 . S
H1007 C1022 0.930 . S
C1008 H996 0.930 . S
C1008 C1009 1.399 . S
C1008 C1013 1.399 . S
C1009 C1008 1.399 . S
C1009 C1010 1.376 . S
C1010 H997 0.930 . S
C1010 C1009 1.376 . S
C1010 C1011 1.388 . S
C1011 H998 0.930 . S
C1011 C1010 1.388 . S
C1011 C1012 1.390 . S
C1012 C1011 1.390 . S
C1012 C1013 1.394 . S
C1012 C1018 1.465 . S
C1013 C1008 1.399 . S
C1013 C1012 1.394 . S
C1013 C1014 1.516 . S
C1014 C1013 1.516 . S
C1014 C1015 1.502 . S
C1014 C1016 1.561 . S
C1014 C1017 1.526 . S
C1015 H999 0.959 . S
C1015 H1000 0.959 . S
C1015 H1001 0.961 . S
C1015 C1014 1.502 . S
C1016 H1002 0.960 . S
C1016 H1003 0.961 . S
C1016 H1004 0.959 . S
C1016 C1014 1.561 . S
C1017 C1014 1.526 . S
C1017 C1018 1.396 . S
C1017 C1022 1.390 . S
C1018 C1012 1.465 . S
C1018 C1017 1.396 . S
C1018 C1019 1.399 . S
C1019 H1005 0.929 . S
C1019 C1018 1.399 . S
C1019 C1020 1.385 . S
C1020 H1006 0.931 . S
C1020 C1019 1.385 . S
C1020 C1021 1.389 . S
C1021 C1020 1.389 . S
C1021 C1022 1.387 . S
C1022 H1007 0.930 . S
C1022 C1017 1.390 . S
C1022 C1021 1.387 . S
H1023 C1035 0.930 . S
H1024 C1037 0.930 . S
H1025 C1038 0.930 . S
H1026 C1042 0.959 . S
H1027 C1042 0.959 . S
H1028 C1042 0.961 . S
H1029 C1043 0.960 . S
H1030 C1043 0.961 . S
H1031 C1043 0.959 . S
H1032 C1046 0.929 . S
H1033 C1047 0.931 . S
H1034 C1049 0.930 . S
C1035 H1023 0.930 . S
C1035 C1036 1.399 . S
C1035 C1040 1.399 . S
C1036 C1035 1.399 . S
C1036 C1037 1.376 . S
C1037 H1024 0.930 . S
C1037 C1036 1.376 . S
C1037 C1038 1.388 . S
C1038 H1025 0.930 . S
C1038 C1037 1.388 . S
C1038 C1039 1.390 . S
C1039 C1038 1.390 . S
C1039 C1040 1.394 . S
C1039 C1045 1.465 . S
C1040 C1035 1.399 . S
C1040 C1039 1.394 . S
C1040 C1041 1.516 . S
C1041 C1040 1.516 . S
C1041 C1042 1.502 . S
C1041 C1043 1.561 . S
C1041 C1044 1.526 . S
C1042 H1026 0.959 . S
C1042 H1027 0.959 . S
C1042 H1028 0.961 . S
C1042 C1041 1.502 . S
C1043 H1029 0.960 . S
C1043 H1030 0.961 . S
C1043 H1031 0.959 . S
C1043 C1041 1.561 . S
C1044 C1041 1.526 . S
C1044 C1045 1.396 . S
C1044 C1049 1.390 . S
C1045 C1039 1.465 . S
C1045 C1044 1.396 . S
C1045 C1046 1.399 . S
C1046 H1032 0.929 . S
C1046 C1045 1.399 . S
C1046 C1047 1.385 . S
C1047 H1033 0.931 . S
C1047 C1046 1.385 . S
C1047 C1048 1.389 . S
C1048 C1047 1.389 . S
C1048 C1049 1.387 . S
C1049 H1034 0.930 . S
C1049 C1044 1.390 . S
C1049 C1048 1.387 . S
C415 C39 1.702 . S
C427 C319 1.658 . S
C442 C91 1.706 . S
C454 C344 1.691 . S
C481 C347 1.534 . S
C469 C128 1.544 . S
C508 C373 1.516 . S
C496 C188 1.506 . S
C535 C374 1.617 . S
C523 C250 1.636 . S
C562 C401 1.622 . S
C550 C304 1.670 . S
C577 C75 1.570 . S
C589 C346 1.538 . S
C604 C144 1.696 . S
C616 C372 1.651 . S
C643 C375 1.625 . S
C631 C198 1.658 . S
C670 C400 1.463 . S
C658 C234 1.497 . S
C685 C294 1.497 . S
C697 C318 1.508 . S
C724 C345 1.531 . S
C712 C29 1.532 . S
C751 C360 1.669 . S
C739 C38 1.703 . S
C766 C92 1.711 . S
C778 C387 1.669 . S
C805 C388 1.543 . S
C793 C135 1.546 . S
C820 C181 1.507 . S
C832 C330 1.520 . S
C847 C251 1.625 . S
C859 C333 1.633 . S
C874 C303 1.659 . S
C886 C358 1.649 . S
C901 C82 1.563 . S
C913 C389 1.573 . S
C940 C331 1.651 . S
C928 C145 1.697 . S
C955 C197 1.642 . S
C967 C332 1.653 . S
C982 C241 1.505 . S
C994 C359 1.459 . S
C1009 C287 1.497 . S
C1021 C361 1.509 . S
C1036 C22 1.531 . S
C1048 C386 1.542 . S
