# Generated by pormake.
# Topology wbl, (4,4)-cn, num edge types: 1
# Building blocks:
#     Node 0, Type 0, BuildingBlock: MUDLON_clean_sbu_0, # of connection points: 4
#     Node 1, Type 0, BuildingBlock: MUDLON_clean_sbu_0, # of connection points: 4
#     Node 2, Type 0, BuildingBlock: MUDLON_clean_sbu_0, # of connection points: 4
#     Node 3, Type 0, BuildingBlock: MUDLON_clean_sbu_0, # of connection points: 4
#     Node 4, Type 0, BuildingBlock: MUDLON_clean_sbu_0, # of connection points: 4
#     Node 5, Type 0, BuildingBlock: MUDLON_clean_sbu_0, # of connection points: 4
#     Node 6, Type 0, BuildingBlock: MUDLON_clean_sbu_0, # of connection points: 4
#     Node 7, Type 0, BuildingBlock: MUDLON_clean_sbu_0, # of connection points: 4
#     Node 8, Type 1, BuildingBlock: NAHDIM_clean_sbu_0, # of connection points: 4
#     Node 9, Type 1, BuildingBlock: NAHDIM_clean_sbu_0, # of connection points: 4
#     Node 10, Type 1, BuildingBlock: NAHDIM_clean_sbu_0, # of connection points: 4
#     Node 11, Type 1, BuildingBlock: NAHDIM_clean_sbu_0, # of connection points: 4
#     Node 12, Type 1, BuildingBlock: NAHDIM_clean_sbu_0, # of connection points: 4
#     Node 13, Type 1, BuildingBlock: NAHDIM_clean_sbu_0, # of connection points: 4
#     Node 14, Type 1, BuildingBlock: NAHDIM_clean_sbu_0, # of connection points: 4
#     Node 15, Type 1, BuildingBlock: NAHDIM_clean_sbu_0, # of connection points: 4
#     Edge 16, Type (0, 1), BuildingBlock: OJICUG_clean_linker_0, # of connection points: 2
#     Edge 17, Type (0, 1), BuildingBlock: OJICUG_clean_linker_0, # of connection points: 2
#     Edge 18, Type (0, 1), BuildingBlock: OJICUG_clean_linker_0, # of connection points: 2
#     Edge 19, Type (0, 1), BuildingBlock: OJICUG_clean_linker_0, # of connection points: 2
#     Edge 20, Type (0, 1), BuildingBlock: OJICUG_clean_linker_0, # of connection points: 2
#     Edge 21, Type (0, 1), BuildingBlock: OJICUG_clean_linker_0, # of connection points: 2
#     Edge 22, Type (0, 1), BuildingBlock: OJICUG_clean_linker_0, # of connection points: 2
#     Edge 23, Type (0, 1), BuildingBlock: OJICUG_clean_linker_0, # of connection points: 2
#     Edge 24, Type (0, 1), BuildingBlock: OJICUG_clean_linker_0, # of connection points: 2
#     Edge 25, Type (0, 1), BuildingBlock: OJICUG_clean_linker_0, # of connection points: 2
#     Edge 26, Type (0, 1), BuildingBlock: OJICUG_clean_linker_0, # of connection points: 2
#     Edge 27, Type (0, 1), BuildingBlock: OJICUG_clean_linker_0, # of connection points: 2
#     Edge 28, Type (0, 1), BuildingBlock: OJICUG_clean_linker_0, # of connection points: 2
#     Edge 29, Type (0, 1), BuildingBlock: OJICUG_clean_linker_0, # of connection points: 2
#     Edge 30, Type (0, 1), BuildingBlock: OJICUG_clean_linker_0, # of connection points: 2
#     Edge 31, Type (0, 1), BuildingBlock: OJICUG_clean_linker_0, # of connection points: 2
#     Edge 32, Type (0, 1), BuildingBlock: OJICUG_clean_linker_0, # of connection points: 2
#     Edge 33, Type (0, 1), BuildingBlock: OJICUG_clean_linker_0, # of connection points: 2
#     Edge 34, Type (0, 1), BuildingBlock: OJICUG_clean_linker_0, # of connection points: 2
#     Edge 35, Type (0, 1), BuildingBlock: OJICUG_clean_linker_0, # of connection points: 2
#     Edge 36, Type (0, 1), BuildingBlock: OJICUG_clean_linker_0, # of connection points: 2
#     Edge 37, Type (0, 1), BuildingBlock: OJICUG_clean_linker_0, # of connection points: 2
#     Edge 38, Type (0, 1), BuildingBlock: OJICUG_clean_linker_0, # of connection points: 2
#     Edge 39, Type (0, 1), BuildingBlock: OJICUG_clean_linker_0, # of connection points: 2
#     Edge 40, Type (0, 1), BuildingBlock: OJICUG_clean_linker_0, # of connection points: 2
#     Edge 41, Type (0, 1), BuildingBlock: OJICUG_clean_linker_0, # of connection points: 2
#     Edge 42, Type (0, 1), BuildingBlock: OJICUG_clean_linker_0, # of connection points: 2
#     Edge 43, Type (0, 1), BuildingBlock: OJICUG_clean_linker_0, # of connection points: 2
#     Edge 44, Type (0, 1), BuildingBlock: OJICUG_clean_linker_0, # of connection points: 2
#     Edge 45, Type (0, 1), BuildingBlock: OJICUG_clean_linker_0, # of connection points: 2
#     Edge 46, Type (0, 1), BuildingBlock: OJICUG_clean_linker_0, # of connection points: 2
#     Edge 47, Type (0, 1), BuildingBlock: OJICUG_clean_linker_0, # of connection points: 2
# Relax obj value: 0.234
# Max RMSD: 0.230
# Mean RMSD: 0.183
data_MOF--net-wbl--node1-MUDLON_clean_sbu_0--node2-NAHDIM_clean_sbu_0--edge1-OJICUG_clean_linker_0
_symmetry_space_group_name_H-M    P1
_symmetry_Int_Tables_number       1
_symmetry_cell_setting            triclinic
loop_
_symmetry_equiv_pos_as_xyz
'x, y, z'
_cell_length_a     27.099315
_cell_length_b     26.020014
_cell_length_c     55.6057
_cell_angle_alpha  90.10346
_cell_angle_beta   90.122181
_cell_angle_gamma 90.354325
loop_
_atom_site_label
_atom_site_type_symbol
_atom_site_fract_x
_atom_site_fract_y
_atom_site_fract_z
_atom_type_partial_charge
Mg0 Mg 0.98608 0.00715 0.33643 0.0
C1 C 0.02236 0.90938 0.36007 0.0
O2 O 0.05833 0.9146 0.34449 0.0
C3 C 0.88319 0.99381 0.31479 0.0
O4 O 0.88091 0.95469 0.32966 0.0
C5 C 0.05671 0.97384 0.29914 0.0
O6 O 0.01792 0.9449 0.29449 0.0
O7 O 0.05382 0.00731 0.31578 0.0
O8 O 0.98453 0.93768 0.35815 0.0
O9 O 0.98087 0.06463 0.3647 0.0
C10 C 0.94747 0.05095 0.37947 0.0
O11 O 0.92137 0.00945 0.37472 0.0
O12 O 0.92291 0.01973 0.31336 0.0
Mg13 Mg 0.9655 0.52429 0.5929 0.0
C14 C 0.02377 0.47701 0.63222 0.0
O15 O 0.98376 0.4483 0.63298 0.0
C16 C 0.96965 0.42393 0.565 0.0
O17 O 0.0155 0.42486 0.57273 0.0
C18 C 0.02439 0.59615 0.56255 0.0
O19 O 0.05573 0.55826 0.56532 0.0
O20 O 0.98187 0.59248 0.57208 0.0
O21 O 0.02966 0.5073 0.61451 0.0
O22 O 0.91305 0.53636 0.62171 0.0
C23 C 0.88178 0.50094 0.62586 0.0
O24 O 0.87425 0.46571 0.60928 0.0
O25 O 0.94134 0.46093 0.57031 0.0
Mg26 Mg 0.48598 0.4631 0.83905 0.0
C27 C 0.53577 0.52923 0.87459 0.0
O28 O 0.566 0.48997 0.87398 0.0
C29 C 0.54652 0.42682 0.79548 0.0
O30 O 0.50612 0.43583 0.78313 0.0
C31 C 0.41311 0.51619 0.8077 0.0
O32 O 0.44949 0.54982 0.80778 0.0
O33 O 0.41847 0.47413 0.81898 0.0
O34 O 0.50339 0.53309 0.85811 0.0
O35 O 0.47677 0.4147 0.87033 0.0
C36 C 0.51181 0.38452 0.87555 0.0
O37 O 0.54381 0.37287 0.85872 0.0
O38 O 0.54753 0.43612 0.81791 0.0
Mg39 Mg 0.49123 0.00784 0.08252 0.0
C40 C 0.53121 0.9723 0.12949 0.0
O41 O 0.49107 0.94388 0.12812 0.0
C42 C 0.50405 0.89961 0.06342 0.0
O43 O 0.54175 0.90061 0.07831 0.0
C44 C 0.55972 0.07935 0.05637 0.0
O45 O 0.59149 0.04442 0.06333 0.0
O46 O 0.51427 0.07319 0.06133 0.0
O47 O 0.54457 -0.00217 0.11111 0.0
O48 O 0.42694 0.02432 0.1041 0.0
C49 C 0.39568 0.98853 0.10752 0.0
O50 O 0.39593 0.94876 0.09292 0.0
O51 O 0.47789 0.93959 0.06107 0.0
Mg52 Mg 0.02911 0.48147 0.9135 0.0
C53 C 0.98812 0.54613 0.87421 0.0
O54 O 0.95428 0.50981 0.87478 0.0
C55 C 0.93243 0.49577 0.94028 0.0
O56 O 0.93207 0.53908 0.92818 0.0
C57 C 0.10947 0.53389 0.94048 0.0
O58 O 0.07591 0.57006 0.93943 0.0
O59 O 0.09971 0.49013 0.93135 0.0
O60 O 0.01942 0.54869 0.89124 0.0
O61 O 0.02799 0.42329 0.8855 0.0
C62 C 0.98757 0.39911 0.88246 0.0
O63 O 0.95404 0.40155 0.89944 0.0
O64 O 0.96938 0.46627 0.93843 0.0
Mg65 Mg 0.50571 0.50712 0.16476 0.0
C66 C 0.45611 0.46703 0.121 0.0
O67 O 0.49146 0.43315 0.1235 0.0
C68 C 0.55235 0.43 0.19854 0.0
O69 O 0.58578 0.46661 0.20035 0.0
C70 C 0.4463 0.58022 0.19445 0.0
O71 O 0.41331 0.54384 0.1907 0.0
O72 O 0.48969 0.57443 0.18625 0.0
O73 O 0.44842 0.49875 0.138 0.0
O74 O 0.56716 0.51928 0.14047 0.0
C75 C 0.59393 0.48119 0.1349 0.0
O76 O 0.59085 0.43921 0.14789 0.0
O77 O 0.51438 0.43737 0.18555 0.0
Mg78 Mg 0.48103 0.0202 0.41334 0.0
C79 C 0.52355 0.11233 0.38821 0.0
O80 O 0.56065 0.102 0.40257 0.0
C81 C 0.41707 0.98203 0.4537 0.0
O82 O 0.46065 0.97091 0.46259 0.0
C83 C 0.54969 0.05817 0.45111 0.0
O84 O 0.51276 0.09041 0.45306 0.0
O85 O 0.54608 0.02121 0.43616 0.0
O86 O 0.48251 0.08956 0.39154 0.0
O87 O 0.4798 0.963 0.38479 0.0
C88 C 0.44854 0.97651 0.36892 0.0
O89 O 0.42178 0.01757 0.37288 0.0
O90 O 0.4144 0.006 0.43382 0.0
Mg91 Mg 0.0041 -0.00445 0.66175 0.0
C92 C 0.05567 0.03119 0.6179 0.0
O93 O 0.0186 0.06345 0.61865 0.0
C94 C 0.96201 0.0658 0.69907 0.0
O95 O 0.93679 0.0237 0.70374 0.0
C96 C 0.05765 0.9173 0.6913 0.0
O97 O 0.09398 0.94987 0.68737 0.0
O98 O 0.01494 0.92739 0.68316 0.0
O99 O 0.06289 0.00176 0.63579 0.0
O100 O 0.94194 0.98707 0.63752 0.0
C101 C 0.91152 0.02361 0.63501 0.0
O102 O 0.91245 0.06166 0.65054 0.0
O103 O -0.00479 0.06451 0.68298 0.0
C104 C 0.3045 0.58001 0.97742 0.0
O105 O 0.33904 0.54489 0.97621 0.0
O106 O 0.39576 0.58513 0.025 0.0
Zn107 Zn 0.38629 0.63184 0.99659 0.0
O108 O 0.42873 0.61538 0.96796 0.0
C109 C 0.44348 0.70787 0.01934 0.0
O110 O 0.47033 0.66664 0.02271 0.0
O111 O 0.31553 0.62405 0.98592 0.0
C112 C 0.47305 0.59984 0.96704 0.0
O113 O 0.49733 0.59067 0.98703 0.0
C114 C 0.41057 0.53898 0.02619 0.0
O115 O 0.42381 0.51473 0.00652 0.0
O116 O 0.40298 0.7036 0.00786 0.0
C117 C 0.24796 0.91919 0.26148 0.0
O118 O 0.28442 0.95266 0.26225 0.0
O119 O 0.33218 0.89512 0.20927 0.0
Zn120 Zn 0.32553 0.86177 0.24167 0.0
O121 O 0.37196 0.89286 0.26613 0.0
C122 C 0.38568 0.77842 0.23035 0.0
O123 O 0.41629 0.81757 0.22841 0.0
O124 O 0.25612 0.87437 0.25322 0.0
C125 C 0.3886 0.8675 0.2839 0.0
O126 O 0.37838 0.81822 0.28556 0.0
C127 C 0.34537 0.94113 0.20501 0.0
O128 O 0.35729 0.97167 0.22297 0.0
O129 O 0.34148 0.7869 0.23685 0.0
C130 C 0.2422 0.89432 0.49705 0.0
O131 O 0.23674 0.89429 0.52052 0.0
O132 O 0.12665 0.90943 0.52491 0.0
Zn133 Zn 0.13869 0.86404 0.49637 0.0
O134 O 0.09149 0.87605 0.46899 0.0
C135 C 0.08422 0.78409 0.51518 0.0
O136 O 0.0526 0.82203 0.51355 0.0
O137 O 0.20659 0.87974 0.48373 0.0
C138 C 0.09672 0.84533 0.45137 0.0
O139 O 0.12996 0.80892 0.45295 0.0
C140 C 0.115 0.95659 0.52542 0.0
O141 O 0.10765 0.98142 0.50519 0.0
O142 O 0.12826 0.79157 0.50802 0.0
C143 C 0.22244 0.57143 0.76925 0.0
O144 O 0.1846 0.54041 0.77244 0.0
O145 O 0.12517 0.5877 0.7223 0.0
Zn146 Zn 0.14511 0.63162 0.75066 0.0
O147 O 0.10321 0.62048 0.78016 0.0
C148 C 0.096 0.71759 0.73224 0.0
O149 O 0.06133 0.68217 0.73115 0.0
O150 O 0.21522 0.61507 0.75965 0.0
C151 C 0.05778 0.60831 0.78144 0.0
O152 O 0.03245 0.59997 0.76164 0.0
C153 C 0.10725 0.54244 0.72206 0.0
O154 O 0.09881 0.51852 0.74244 0.0
O155 O 0.13818 0.70546 0.74043 0.0
C156 C 0.74133 0.10988 0.49025 0.0
O157 O 0.77583 0.07469 0.49103 0.0
O158 O 0.83084 0.12531 0.53814 0.0
Zn159 Zn 0.82306 0.16396 0.50721 0.0
O160 O 0.86557 0.13365 0.48124 0.0
C161 C 0.88964 0.24008 0.52096 0.0
O162 O 0.91653 0.19822 0.52109 0.0
O163 O 0.7522 0.15561 0.49664 0.0
C164 C 0.88522 0.15926 0.46427 0.0
O165 O 0.8805 0.20947 0.46386 0.0
C166 C 0.84898 0.08073 0.54053 0.0
O167 O 0.86446 0.05578 0.52145 0.0
O168 O 0.8447 0.23667 0.5144 0.0
C169 C 0.72604 0.35617 0.75089 0.0
O170 O 0.73447 0.3659 0.72809 0.0
O171 O 0.83951 0.38379 0.72463 0.0
Zn172 Zn 0.83208 0.33817 0.75363 0.0
O173 O 0.87168 0.3586 0.78282 0.0
C174 C 0.89104 0.26282 0.73147 0.0
O175 O 0.91354 0.30499 0.72437 0.0
O176 O 0.7613 0.34116 0.76421 0.0
C177 C 0.91814 0.3602 0.78599 0.0
O178 O 0.94791 0.35244 0.76776 0.0
C179 C 0.85394 0.43012 0.72265 0.0
O180 O 0.86908 0.45544 0.74178 0.0
O181 O 0.85252 0.26659 0.74436 0.0
C182 C 0.75236 0.42192 0.98409 0.0
O183 O 0.71288 0.45091 0.98339 0.0
O184 O 0.66322 0.39708 0.03254 0.0
Zn185 Zn 0.67942 0.3572 0.0026 0.0
O186 O 0.63459 0.36683 0.974 0.0
C187 C 0.62643 0.27356 0.01778 0.0
O188 O 0.59454 0.31133 0.01697 0.0
O189 O 0.74834 0.37637 0.99219 0.0
C190 C 0.59134 0.38471 0.97155 0.0
O191 O 0.56855 0.40494 0.99008 0.0
C192 C 0.6479 0.44217 0.0369 0.0
O193 O 0.63741 0.47339 0.0191 0.0
O194 O 0.67104 0.28281 0.01202 0.0
C195 C 0.70493 0.07005 0.27054 0.0
O196 O 0.66403 0.04281 0.27171 0.0
O197 O 0.61734 0.09295 0.22167 0.0
Zn198 Zn 0.63603 0.13685 0.25012 0.0
O199 O 0.58979 0.12993 0.27823 0.0
C200 C 0.59022 0.22499 0.2336 0.0
O201 O 0.55395 0.19128 0.23447 0.0
O202 O 0.70334 0.11482 0.2614 0.0
C203 C 0.59899 0.16119 0.2953 0.0
O204 O 0.63553 0.19418 0.2928 0.0
C205 C 0.59002 0.05311 0.22156 0.0
O206 O 0.56967 0.0374 0.2417 0.0
O207 O 0.63334 0.21075 0.2396 0.0
C208 C 0.14601 0.99379 0.29193 0.0
C209 C 0.10484 0.9618 0.28803 0.0
H210 H 0.22337 0.00545 0.28656 0.0
C211 C 0.11083 0.91623 0.27472 0.0
H212 H 0.14264 0.0291 0.30213 0.0
C213 C 0.15725 0.90229 0.26603 0.0
C214 C 0.19853 0.93393 0.27025 0.0
H215 H 0.07988 0.89059 0.27147 0.0
H216 H 0.16079 0.86664 0.25611 0.0
C217 C 0.1923 0.98013 0.28303 0.0
C218 C 0.08748 0.64877 0.54043 0.0
C219 C 0.03926 0.64321 0.54945 0.0
H220 H 0.13966 0.6976 0.52249 0.0
C221 C 0.00575 0.68361 0.54635 0.0
H222 H 0.11421 0.61831 0.5425 0.0
C223 C 0.02032 0.72888 0.53487 0.0
C224 C 0.06877 0.73489 0.52625 0.0
H225 H 0.96832 0.68056 0.55301 0.0
H226 H 0.99361 0.75942 0.53304 0.0
C227 C 0.10211 0.69419 0.52896 0.0
C228 C 0.3253 0.49449 0.79764 0.0
C229 C 0.36531 0.52895 0.79634 0.0
H230 H 0.24897 0.48084 0.79008 0.0
C231 C 0.35853 0.57673 0.78507 0.0
H232 H 0.32929 0.45733 0.80616 0.0
C233 C 0.31237 0.59028 0.77585 0.0
C234 C 0.27206 0.55632 0.77772 0.0
H235 H 0.38863 0.60414 0.78373 0.0
H236 H 0.30813 0.6277 0.76762 0.0
C237 C 0.2792 0.50803 0.78844 0.0
C238 C 0.51864 0.8071 0.05354 0.0
C239 C 0.48988 0.85144 0.05093 0.0
H240 H 0.52663 0.72724 0.04559 0.0
C241 C 0.44639 0.84869 0.03709 0.0
H242 H 0.55236 0.80789 0.06403 0.0
C243 C 0.43148 0.80228 0.02654 0.0
C244 C 0.45981 0.75772 0.02956 0.0
H245 H 0.42335 0.88218 0.03474 0.0
H246 H 0.39748 0.80121 0.01626 0.0
C247 C 0.50381 0.7608 0.04296 0.0
C248 C 0.16972 0.59408 0.96029 0.0
C249 C 0.15871 0.54509 0.95088 0.0
H250 H 0.22434 0.64365 0.97606 0.0
C251 C 0.1957 0.50752 0.9508 0.0
H252 H 0.14203 0.62391 0.96062 0.0
C253 C 0.24283 0.5189 0.9596 0.0
C254 C 0.25407 0.56808 0.9687 0.0
H255 H 0.18847 0.46942 0.94369 0.0
H256 H 0.27056 0.48912 0.95909 0.0
C257 C 0.21691 0.60545 0.96912 0.0
C258 C 0.38298 0.6371 0.21354 0.0
C259 C 0.4318 0.62932 0.20586 0.0
H260 H 0.33004 0.69024 0.22745 0.0
C261 C 0.46591 0.66998 0.20789 0.0
H262 H 0.3558 0.60651 0.21231 0.0
C263 C 0.45112 0.7179 0.21651 0.0
C264 C 0.4019 0.72627 0.22336 0.0
H265 H 0.50384 0.66526 0.20223 0.0
H266 H 0.47814 0.7487 0.2173 0.0
C267 C 0.36818 0.68509 0.22223 0.0
C268 C 0.37286 0.94444 0.48916 0.0
C269 C 0.37194 0.96148 0.46518 0.0
H270 H 0.33241 0.91001 0.51813 0.0
C271 C 0.3282 0.95593 0.4518 0.0
H272 H 0.4061 0.94811 0.49989 0.0
C273 C 0.28648 0.93314 0.46205 0.0
C274 C 0.28728 0.91624 0.48605 0.0
H275 H 0.32643 0.96826 0.43322 0.0
H276 H 0.25338 0.92934 0.45122 0.0
C277 C 0.33076 0.92249 0.49957 0.0
C278 C 0.11458 0.8552 0.71162 0.0
C279 C 0.06706 0.86764 0.70333 0.0
H280 H 0.16111 0.798 0.72735 0.0
C281 C 0.02893 0.83119 0.70567 0.0
H282 H 0.14474 0.88249 0.71013 0.0
C283 C 0.03835 0.78288 0.71543 0.0
C284 C 0.08607 0.7699 0.72317 0.0
H285 H 0.99188 0.83954 0.69953 0.0
H286 H 0.00821 0.75547 0.71661 0.0
C287 C 0.12398 0.8068 0.72148 0.0
C288 C 0.59533 0.40496 0.75851 0.0
C289 C 0.59085 0.40565 0.78368 0.0
H290 H 0.64169 0.38861 0.72829 0.0
C291 C 0.62974 0.38656 0.79776 0.0
H292 H 0.56588 0.41922 0.74719 0.0
C293 C 0.67272 0.36854 0.787 0.0
C294 C 0.67812 0.36962 0.76188 0.0
H295 H 0.62726 0.38599 0.81721 0.0
H296 H 0.70227 0.35511 0.79848 0.0
C297 C 0.6387 0.38734 0.7477 0.0
C298 C 0.62747 0.13592 0.04028 0.0
C299 C 0.57699 0.1273 0.04476 0.0
H300 H 0.68296 0.18899 0.02812 0.0
C301 C 0.54315 0.16609 0.03911 0.0
H302 H 0.65449 0.10671 0.0444 0.0
C303 C 0.55944 0.213 0.02992 0.0
C304 C 0.60996 0.22229 0.02606 0.0
H305 H 0.50401 0.16072 0.04223 0.0
H306 H 0.53227 0.24228 0.02615 0.0
C307 C 0.64382 0.183 0.03096 0.0
C308 C 0.79429 0.98315 0.30326 0.0
C309 C 0.83856 0.01129 0.30184 0.0
H310 H 0.71753 0.97953 0.29444 0.0
C311 C 0.83905 0.05797 0.28908 0.0
H312 H 0.79266 0.94705 0.3129 0.0
C313 C 0.79586 0.07683 0.27862 0.0
C314 C 0.75133 0.04926 0.28055 0.0
H315 H 0.87255 0.08065 0.28764 0.0
H316 H 0.79726 0.11331 0.26929 0.0
C317 C 0.75119 0.00187 0.29269 0.0
C318 C 0.90032 0.37662 0.54448 0.0
C319 C 0.95001 0.37863 0.55187 0.0
H320 H 0.84222 0.33142 0.52875 0.0
C321 C 0.98019 0.33594 0.54756 0.0
H322 H 0.87608 0.40894 0.54747 0.0
C323 C 0.96076 0.29159 0.53687 0.0
C324 C 0.91072 0.28891 0.53019 0.0
H325 H 0.01864 0.33625 0.55292 0.0
H326 H 0.98487 0.259 0.5343 0.0
C327 C 0.88088 0.33222 0.53372 0.0
C328 C 0.63632 0.03452 0.4619 0.0
C329 C 0.5974 0.06978 0.46296 0.0
H330 H 0.71207 0.0195 0.46975 0.0
C331 C 0.60562 0.11785 0.47395 0.0
H332 H 0.63119 -0.00281 0.45357 0.0
C333 C 0.65224 0.13096 0.48302 0.0
C334 C 0.6914 0.09604 0.48148 0.0
H335 H 0.57643 0.146 0.47499 0.0
H336 H 0.65767 0.16857 0.491 0.0
C337 C 0.68272 0.04741 0.47115 0.0
C338 C 0.9048 0.1187 0.72423 0.0
C339 C 0.94647 0.11566 0.70928 0.0
H340 H 0.85435 0.16759 0.74291 0.0
C341 C 0.97084 0.16124 0.70261 0.0
H342 H 0.88514 0.08429 0.72968 0.0
C343 C 0.9531 0.20887 0.7101 0.0
C344 C 0.91058 0.21205 0.72444 0.0
H345 H 0.00306 0.16029 0.69112 0.0
H346 H 0.97239 0.24325 0.7043 0.0
C347 C 0.887 0.16644 0.73173 0.0
C348 C 0.84619 0.50994 0.95474 0.0
C349 C 0.88797 0.47843 0.95349 0.0
H350 H 0.77084 0.51688 0.96542 0.0
C351 C 0.88566 0.4289 0.96359 0.0
H352 H 0.84672 0.54829 0.9472 0.0
C353 C 0.84197 0.41072 0.974 0.0
C354 C 0.79974 0.44173 0.97455 0.0
H355 H 0.91722 0.4036 0.96292 0.0
H356 H 0.84104 0.37205 0.98117 0.0
C357 C 0.8026 0.49182 0.96516 0.0
C358 C 0.60791 0.36608 0.21852 0.0
C359 C 0.56141 0.37866 0.20899 0.0
H360 H 0.65376 0.30748 0.23362 0.0
C361 C 0.52432 0.34074 0.2083 0.0
H362 H 0.63733 0.39441 0.21924 0.0
C363 C 0.5337 0.29113 0.21656 0.0
C364 C 0.58048 0.27815 0.22557 0.0
H365 H 0.48809 0.34916 0.2011 0.0
H366 H 0.50434 0.26277 0.21554 0.0
C367 C 0.61742 0.31623 0.22665 0.0
C368 C 0.0704 0.84721 0.38468 0.0
C369 C 0.0329 0.88401 0.38323 0.0
H370 H 0.11943 0.80544 0.40746 0.0
C371 C 0.01199 0.90295 0.4046 0.0
H372 H 0.08713 0.83198 0.3685 0.0
C373 C 0.03123 0.88866 0.42695 0.0
C374 C 0.07104 0.85447 0.4283 0.0
H375 H 0.98322 0.93165 0.40409 0.0
H376 H 0.01631 0.90601 0.44307 0.0
C377 C 0.08898 0.83219 0.40701 0.0
C378 C 0.03909 0.46128 0.67605 0.0
C379 C 0.05276 0.48568 0.65447 0.0
H380 H 0.04571 0.46002 0.71446 0.0
C381 C 0.08913 0.52439 0.6552 0.0
H382 H 0.01118 0.4313 0.67613 0.0
C383 C 0.10842 0.54116 0.67716 0.0
C384 C 0.09215 0.5193 0.69886 0.0
H385 H 0.10074 0.54383 0.63894 0.0
H386 H 0.13474 0.57267 0.67717 0.0
C387 C 0.05873 0.47785 0.69805 0.0
C388 C 0.55262 0.54069 0.9186 0.0
C389 C 0.52771 0.55641 0.89764 0.0
H390 H 0.55472 0.54193 0.95714 0.0
C391 C 0.48905 0.59184 0.89973 0.0
H392 H 0.58254 0.51335 0.91766 0.0
C393 C 0.47287 0.60769 0.92233 0.0
C394 C 0.49524 0.58886 0.94334 0.0
H395 H 0.46928 0.60501 0.88397 0.0
H396 H 0.44148 0.63318 0.92334 0.0
C397 C 0.53654 0.55684 0.94127 0.0
C398 C 0.34511 0.93897 0.13704 0.0
C399 C 0.37308 0.98305 0.13161 0.0
H400 H 0.31447 0.89119 0.16448 0.0
C401 C 0.38638 0.01676 0.15041 0.0
H402 H 0.33403 0.91234 0.12301 0.0
C403 C 0.37538 0.00445 0.17428 0.0
C404 C 0.35084 0.95827 0.17979 0.0
H405 H 0.40799 0.05107 0.14688 0.0
H406 H 0.38831 0.02984 0.18844 0.0
C407 C 0.33421 0.92666 0.16087 0.0
C408 C 0.04248 0.6019 0.84889 0.0
C409 C -0.00043 0.57169 0.8511 0.0
H410 H 0.09457 0.63695 0.82513 0.0
C411 C 0.97253 0.55924 0.83023 0.0
H412 H 0.06408 0.61245 0.86458 0.0
C413 C 0.99011 0.57333 0.80753 0.0
C414 C 0.03513 0.59991 0.8053 0.0
H415 H 0.93926 0.53607 0.83128 0.0
H416 H 0.96973 0.56106 0.79173 0.0
C417 C 0.06018 0.61565 0.82624 0.0
C418 C 0.45544 0.45288 0.0764 0.0
C419 C 0.43635 0.47815 0.09675 0.0
H420 H 0.4623 0.45232 0.038 0.0
C421 C 0.40402 0.51949 0.09338 0.0
H422 H 0.48052 0.4209 0.07836 0.0
C423 C 0.39403 0.53769 0.07031 0.0
C424 C 0.41586 0.51475 0.05007 0.0
H425 H 0.38844 0.53963 0.10862 0.0
H426 H 0.37057 0.57101 0.06843 0.0
C427 C 0.44519 0.47099 0.05325 0.0
C428 C 0.42517 0.97509 0.32586 0.0
C429 C 0.4413 0.94813 0.34623 0.0
H430 H 0.39707 0.97093 0.29005 0.0
C431 C 0.44573 0.8945 0.34504 0.0
H432 H 0.42204 0.01658 0.3262 0.0
C433 C 0.43071 0.86802 0.32427 0.0
C434 C 0.41188 0.89497 0.30434 0.0
H435 H 0.45814 0.87294 0.36054 0.0
H436 H 0.43213 0.82643 0.32416 0.0
C437 C 0.41101 0.94889 0.30508 0.0
C438 C 0.11097 0.97704 0.59259 0.0
C439 C 0.07917 0.01925 0.59456 0.0
H440 H 0.14711 0.92422 0.56915 0.0
C441 C 0.06437 0.04484 0.57348 0.0
H442 H 0.12336 0.95662 0.60843 0.0
C443 C 0.07815 0.02622 0.55085 0.0
C444 C 0.10663 0.98152 0.54895 0.0
H445 H 0.03998 0.07761 0.57437 0.0
H446 H 0.06428 0.04519 0.53491 0.0
C447 C 0.12433 0.95824 0.57004 0.0
C448 C 0.56727 0.34773 0.9068 0.0
C449 C 0.52588 0.37746 0.90107 0.0
H450 H 0.62037 0.32698 0.93337 0.0
C451 C 0.50343 0.4066 0.91937 0.0
H452 H 0.5854 0.32481 0.89318 0.0
C453 C 0.52375 0.4081 0.94256 0.0
C454 C 0.56689 0.38062 0.9478 0.0
H455 H 0.47172 0.43037 0.91553 0.0
H456 H 0.5068 0.43229 0.95605 0.0
C457 C 0.58759 0.34939 0.92983 0.0
C458 C 0.59129 0.02089 0.1552 0.0
C459 C 0.55215 0.98545 0.15334 0.0
H460 H 0.63387 0.06996 0.17817 0.0
C461 C 0.52879 0.96848 0.1745 0.0
H462 H 0.61018 0.03465 0.13929 0.0
C463 C 0.54229 0.98893 0.19687 0.0
C464 C 0.57933 0.02679 0.19849 0.0
H465 H 0.49839 0.94129 0.17371 0.0
H466 H 0.5223 0.97661 0.21271 0.0
C467 C 0.60466 0.04138 0.17751 0.0
C468 C 0.91714 0.05221 0.42142 0.0
C469 C 0.93776 0.07907 0.40197 0.0
H470 H 0.88542 0.05619 0.4564 0.0
C471 C 0.94545 0.1323 0.40395 0.0
H472 H 0.91144 0.01098 0.42052 0.0
C473 C 0.92992 0.1586 0.42462 0.0
C474 C 0.90726 0.13179 0.44365 0.0
H475 H 0.96137 0.15379 0.38919 0.0
H476 H 0.93442 0.19995 0.42539 0.0
C477 C 0.9024 0.07815 0.44207 0.0
C478 C 0.88913 0.51626 0.67038 0.0
C479 C 0.86675 0.49012 0.65096 0.0
H480 H 0.90282 0.5177 0.7084 0.0
C481 C 0.83587 0.4479 0.6558 0.0
H482 H 0.91335 0.54883 0.66728 0.0
C483 C 0.83031 0.42987 0.67925 0.0
C484 C 0.85528 0.45379 0.69847 0.0
H485 H 0.81787 0.42705 0.64132 0.0
H486 H 0.80766 0.39601 0.68218 0.0
C487 C 0.88336 0.49827 0.69394 0.0
C488 C 0.57548 0.16804 0.36208 0.0
C489 C 0.53465 0.1351 0.36455 0.0
H490 H 0.62737 0.20279 0.33814 0.0
C491 C 0.51103 0.11621 0.34376 0.0
H492 H 0.5944 0.18301 0.37781 0.0
C493 C 0.53063 0.12644 0.321 0.0
C494 C 0.57356 0.15654 0.31868 0.0
H495 H 0.4797 0.09035 0.3451 0.0
H496 H 0.51341 0.10902 0.30536 0.0
C497 C 0.59447 0.17909 0.33934 0.0
C498 C 0.85528 0.07306 0.60825 0.0
C499 C 0.88655 0.03086 0.61162 0.0
H500 H 0.8186 0.12171 0.58313 0.0
C501 C 0.89984 0.00095 0.59157 0.0
H502 H 0.84408 0.09664 0.62334 0.0
C503 C 0.88547 0.01553 0.56842 0.0
C504 C 0.85747 0.06017 0.56494 0.0
H505 H 0.92393 0.96815 0.59355 0.0
H506 H 0.89845 0.99334 0.55323 0.0
C507 C 0.84088 0.08756 0.58516 0.0
C508 C 0.00469 0.38816 0.83828 0.0
C509 C 0.97275 0.38218 0.85804 0.0
H510 H 0.01248 0.38604 0.79987 0.0
C511 C 0.92385 0.36633 0.85382 0.0
H512 H 0.04253 0.40062 0.8409 0.0
C513 C 0.90653 0.35909 0.83044 0.0
C514 C 0.93781 0.36679 0.81064 0.0
H515 H 0.89817 0.36136 0.86855 0.0
H516 H 0.8683 0.34788 0.82792 0.0
C517 C 0.98742 0.38021 0.81478 0.0
C518 C 0.60073 0.51165 0.09222 0.0
C519 C 0.61585 0.47809 0.11062 0.0
H520 H 0.5987 0.52649 0.05428 0.0
C521 C 0.64594 0.43626 0.10474 0.0
H522 H 0.57717 0.54406 0.09615 0.0
C523 C 0.65789 0.42609 0.08084 0.0
C524 C 0.64007 0.45752 0.06224 0.0
H525 H 0.65836 0.40986 0.11849 0.0
H526 H 0.67975 0.39238 0.07693 0.0
C527 C 0.61274 0.50142 0.0682 0.0
loop_
_geom_bond_atom_site_label_1
_geom_bond_atom_site_label_2
_geom_bond_distance
_geom_bond_site_symmetry_2
_ccdc_geom_bond_type
Mg0 O7 2.141 1_545 S
Mg0 O8 2.048 1_545 S
Mg0 O9 2.048 1_455 S
Mg0 O12 2.141 1_455 S
C1 O2 1.313 . S
C1 O8 1.195 . S
O2 C1 1.313 . S
C3 O4 1.245 . S
C3 O12 1.289 . S
O4 C3 1.245 . S
C5 O6 1.245 . S
C5 O7 1.289 . S
O6 C5 1.245 . S
O7 Mg0 2.141 1_565 S
O7 C5 1.289 . S
O8 Mg0 2.048 1_565 S
O8 C1 1.195 . S
O9 Mg0 2.048 1_655 S
O9 C10 1.195 . S
C10 O9 1.195 . S
C10 O11 1.313 1_545 S
O11 C10 1.313 1_565 S
O12 Mg0 2.141 1_655 S
O12 C3 1.289 . S
Mg13 O20 2.141 1_655 S
Mg13 O21 2.048 1_655 S
Mg13 O22 2.048 . S
Mg13 O25 2.141 . S
C14 O15 1.313 . S
C14 O21 1.195 . S
O15 C14 1.313 . S
C16 O17 1.245 . S
C16 O25 1.289 . S
O17 C16 1.245 . S
C18 O19 1.245 . S
C18 O20 1.289 . S
O19 C18 1.245 . S
O20 Mg13 2.141 1_455 S
O20 C18 1.289 . S
O21 Mg13 2.048 1_455 S
O21 C14 1.195 . S
O22 Mg13 2.048 . S
O22 C23 1.195 . S
C23 O22 1.195 . S
C23 O24 1.313 1_655 S
O24 C23 1.313 1_455 S
O25 Mg13 2.141 . S
O25 C16 1.289 . S
Mg26 O33 2.141 . S
Mg26 O34 2.048 . S
Mg26 O35 2.048 . S
Mg26 O38 2.141 . S
C27 O28 1.313 . S
C27 O34 1.195 . S
O28 C27 1.313 . S
C29 O30 1.245 . S
C29 O38 1.289 . S
O30 C29 1.245 . S
C31 O32 1.245 . S
C31 O33 1.289 . S
O32 C31 1.245 . S
O33 Mg26 2.141 . S
O33 C31 1.289 . S
O34 Mg26 2.048 . S
O34 C27 1.195 . S
O35 Mg26 2.048 . S
O35 C36 1.195 . S
C36 O35 1.195 . S
C36 O37 1.313 . S
O37 C36 1.313 . S
O38 Mg26 2.141 . S
O38 C29 1.289 . S
Mg39 O46 2.141 . S
Mg39 O47 2.048 . S
Mg39 O48 2.048 1_545 S
Mg39 O51 2.141 1_545 S
C40 O41 1.313 . S
C40 O47 1.195 . S
O41 C40 1.313 . S
C42 O43 1.245 . S
C42 O51 1.289 . S
O43 C42 1.245 . S
C44 O45 1.245 . S
C44 O46 1.289 . S
O45 C44 1.245 . S
O46 Mg39 2.141 . S
O46 C44 1.289 . S
O47 Mg39 2.048 . S
O47 C40 1.195 . S
O48 Mg39 2.048 1_565 S
O48 C49 1.195 . S
C49 O48 1.195 . S
C49 O50 1.313 . S
O50 C49 1.313 . S
O51 Mg39 2.141 1_565 S
O51 C42 1.289 . S
Mg52 O59 2.141 . S
Mg52 O60 2.048 . S
Mg52 O61 2.048 1_455 S
Mg52 O64 2.141 1_455 S
C53 O54 1.313 . S
C53 O60 1.195 . S
O54 C53 1.313 . S
C55 O56 1.245 . S
C55 O64 1.289 . S
O56 C55 1.245 . S
C57 O58 1.245 . S
C57 O59 1.289 . S
O58 C57 1.245 . S
O59 Mg52 2.141 . S
O59 C57 1.289 . S
O60 Mg52 2.048 . S
O60 C53 1.195 . S
O61 Mg52 2.048 1_655 S
O61 C62 1.195 . S
C62 O61 1.195 . S
C62 O63 1.313 . S
O63 C62 1.313 . S
O64 Mg52 2.141 1_655 S
O64 C55 1.289 . S
Mg65 O72 2.141 . S
Mg65 O73 2.048 . S
Mg65 O74 2.048 . S
Mg65 O77 2.141 . S
C66 O67 1.313 . S
C66 O73 1.195 . S
O67 C66 1.313 . S
C68 O69 1.245 . S
C68 O77 1.289 . S
O69 C68 1.245 . S
C70 O71 1.245 . S
C70 O72 1.289 . S
O71 C70 1.245 . S
O72 Mg65 2.141 . S
O72 C70 1.289 . S
O73 Mg65 2.048 . S
O73 C66 1.195 . S
O74 Mg65 2.048 . S
O74 C75 1.195 . S
C75 O74 1.195 . S
C75 O76 1.313 . S
O76 C75 1.313 . S
O77 Mg65 2.141 . S
O77 C68 1.289 . S
Mg78 O85 2.141 1_565 S
Mg78 O86 2.048 1_565 S
Mg78 O87 2.048 . S
Mg78 O90 2.141 . S
C79 O80 1.313 . S
C79 O86 1.195 . S
O80 C79 1.313 . S
C81 O82 1.245 . S
C81 O90 1.289 . S
O82 C81 1.245 . S
C83 O84 1.245 . S
C83 O85 1.289 . S
O84 C83 1.245 . S
O85 Mg78 2.141 1_545 S
O85 C83 1.289 . S
O86 Mg78 2.048 1_545 S
O86 C79 1.195 . S
O87 Mg78 2.048 . S
O87 C88 1.195 . S
C88 O87 1.195 . S
C88 O89 1.313 1_565 S
O89 C88 1.313 1_545 S
O90 Mg78 2.141 . S
O90 C81 1.289 . S
Mg91 O98 2.141 1_655 S
Mg91 O99 2.048 1_655 S
Mg91 O100 2.048 1_565 S
Mg91 O103 2.141 1_565 S
C92 O93 1.313 . S
C92 O99 1.195 . S
O93 C92 1.313 . S
C94 O95 1.245 . S
C94 O103 1.289 . S
O95 C94 1.245 . S
C96 O97 1.245 . S
C96 O98 1.289 . S
O97 C96 1.245 . S
O98 Mg91 2.141 1_455 S
O98 C96 1.289 . S
O99 Mg91 2.048 1_455 S
O99 C92 1.195 . S
O100 Mg91 2.048 1_545 S
O100 C101 1.195 . S
C101 O100 1.195 . S
C101 O102 1.313 1_655 S
O102 C101 1.313 1_455 S
O103 Mg91 2.141 1_545 S
O103 C94 1.289 . S
C104 O105 1.160 1_556 S
C104 O111 1.185 . S
O105 C104 1.160 1_554 S
O106 Zn107 1.899 . S
O106 C114 1.284 . S
Zn107 O106 1.899 . S
Zn107 O108 2.032 1_554 S
Zn107 O111 2.086 1_554 S
Zn107 O116 1.977 . S
O108 Zn107 2.032 1_556 S
O108 C112 1.278 . S
C109 O110 1.203 . S
C109 O116 1.267 . S
O110 C109 1.203 . S
O111 C104 1.185 . S
O111 Zn107 2.086 1_556 S
C112 O108 1.278 . S
C112 O113 1.211 . S
O113 C112 1.211 . S
C114 O106 1.284 . S
C114 O115 1.273 . S
O115 C114 1.273 . S
O116 Zn107 1.977 . S
O116 C109 1.267 . S
C117 O118 1.160 . S
C117 O124 1.185 . S
O118 C117 1.160 . S
O119 Zn120 1.899 . S
O119 C127 1.284 . S
Zn120 O119 1.899 . S
Zn120 O121 2.032 . S
Zn120 O124 2.086 . S
Zn120 O129 1.977 . S
O121 Zn120 2.032 . S
O121 C125 1.278 . S
C122 O123 1.203 . S
C122 O129 1.267 . S
O123 C122 1.203 . S
O124 C117 1.185 . S
O124 Zn120 2.086 . S
C125 O121 1.278 . S
C125 O126 1.211 . S
O126 C125 1.211 . S
C127 O119 1.284 . S
C127 O128 1.273 . S
O128 C127 1.273 . S
O129 Zn120 1.977 . S
O129 C122 1.267 . S
C130 O131 1.160 . S
C130 O137 1.185 . S
O131 C130 1.160 . S
O132 Zn133 1.899 . S
O132 C140 1.284 . S
Zn133 O132 1.899 . S
Zn133 O134 2.032 . S
Zn133 O137 2.086 . S
Zn133 O142 1.977 . S
O134 Zn133 2.032 . S
O134 C138 1.278 . S
C135 O136 1.203 . S
C135 O142 1.267 . S
O136 C135 1.203 . S
O137 C130 1.185 . S
O137 Zn133 2.086 . S
C138 O134 1.278 . S
C138 O139 1.211 . S
O139 C138 1.211 . S
C140 O132 1.284 . S
C140 O141 1.273 . S
O141 C140 1.273 . S
O142 Zn133 1.977 . S
O142 C135 1.267 . S
C143 O144 1.160 . S
C143 O150 1.185 . S
O144 C143 1.160 . S
O145 Zn146 1.899 . S
O145 C153 1.284 . S
Zn146 O145 1.899 . S
Zn146 O147 2.032 . S
Zn146 O150 2.086 . S
Zn146 O155 1.977 . S
O147 Zn146 2.032 . S
O147 C151 1.278 . S
C148 O149 1.203 . S
C148 O155 1.267 . S
O149 C148 1.203 . S
O150 C143 1.185 . S
O150 Zn146 2.086 . S
C151 O147 1.278 . S
C151 O152 1.211 . S
O152 C151 1.211 . S
C153 O145 1.284 . S
C153 O154 1.273 . S
O154 C153 1.273 . S
O155 Zn146 1.977 . S
O155 C148 1.267 . S
C156 O157 1.160 . S
C156 O163 1.185 . S
O157 C156 1.160 . S
O158 Zn159 1.899 . S
O158 C166 1.284 . S
Zn159 O158 1.899 . S
Zn159 O160 2.032 . S
Zn159 O163 2.086 . S
Zn159 O168 1.977 . S
O160 Zn159 2.032 . S
O160 C164 1.278 . S
C161 O162 1.203 . S
C161 O168 1.267 . S
O162 C161 1.203 . S
O163 C156 1.185 . S
O163 Zn159 2.086 . S
C164 O160 1.278 . S
C164 O165 1.211 . S
O165 C164 1.211 . S
C166 O158 1.284 . S
C166 O167 1.273 . S
O167 C166 1.273 . S
O168 Zn159 1.977 . S
O168 C161 1.267 . S
C169 O170 1.160 . S
C169 O176 1.185 . S
O170 C169 1.160 . S
O171 Zn172 1.899 . S
O171 C179 1.284 . S
Zn172 O171 1.899 . S
Zn172 O173 2.032 . S
Zn172 O176 2.086 . S
Zn172 O181 1.977 . S
O173 Zn172 2.032 . S
O173 C177 1.278 . S
C174 O175 1.203 . S
C174 O181 1.267 . S
O175 C174 1.203 . S
O176 C169 1.185 . S
O176 Zn172 2.086 . S
C177 O173 1.278 . S
C177 O178 1.211 . S
O178 C177 1.211 . S
C179 O171 1.284 . S
C179 O180 1.273 . S
O180 C179 1.273 . S
O181 Zn172 1.977 . S
O181 C174 1.267 . S
C182 O183 1.160 1_556 S
C182 O189 1.185 . S
O183 C182 1.160 1_554 S
O184 Zn185 1.899 . S
O184 C192 1.284 . S
Zn185 O184 1.899 . S
Zn185 O186 2.032 1_554 S
Zn185 O189 2.086 1_554 S
Zn185 O194 1.977 . S
O186 Zn185 2.032 1_556 S
O186 C190 1.278 . S
C187 O188 1.203 . S
C187 O194 1.267 . S
O188 C187 1.203 . S
O189 C182 1.185 . S
O189 Zn185 2.086 1_556 S
C190 O186 1.278 . S
C190 O191 1.211 . S
O191 C190 1.211 . S
C192 O184 1.284 . S
C192 O193 1.273 . S
O193 C192 1.273 . S
O194 Zn185 1.977 . S
O194 C187 1.267 . S
C195 O196 1.160 . S
C195 O202 1.185 . S
O196 C195 1.160 . S
O197 Zn198 1.899 . S
O197 C205 1.284 . S
Zn198 O197 1.899 . S
Zn198 O199 2.032 . S
Zn198 O202 2.086 . S
Zn198 O207 1.977 . S
O199 Zn198 2.032 . S
O199 C203 1.278 . S
C200 O201 1.203 . S
C200 O207 1.267 . S
O201 C200 1.203 . S
O202 C195 1.185 . S
O202 Zn198 2.086 . S
C203 O199 1.278 . S
C203 O204 1.211 . S
O204 C203 1.211 . S
C205 O197 1.284 . S
C205 O206 1.273 . S
O206 C205 1.273 . S
O207 Zn198 1.977 . S
O207 C200 1.267 . S
C208 C209 1.387 . S
C208 H212 0.950 . S
C208 C217 1.390 . S
C209 C208 1.387 . S
C209 C211 1.387 . S
H210 C217 0.950 . S
C211 C209 1.387 . S
C211 C213 1.390 . S
C211 H215 0.950 . S
H212 C208 0.950 . S
C213 C211 1.390 . S
C213 C214 1.387 . S
C213 H216 0.950 . S
C214 C213 1.387 . S
C214 C217 1.387 . S
H215 C211 0.950 . S
H216 C213 0.950 . S
C217 C208 1.390 . S
C217 H210 0.950 . S
C217 C214 1.387 . S
C218 C219 1.387 . S
C218 H222 0.950 . S
C218 C227 1.390 . S
C219 C218 1.387 . S
C219 C221 1.387 . S
H220 C227 0.950 . S
C221 C219 1.387 . S
C221 C223 1.390 . S
C221 H225 0.950 . S
H222 C218 0.950 . S
C223 C221 1.390 . S
C223 C224 1.387 . S
C223 H226 0.950 . S
C224 C223 1.387 . S
C224 C227 1.387 . S
H225 C221 0.950 . S
H226 C223 0.950 . S
C227 C218 1.390 . S
C227 H220 0.950 . S
C227 C224 1.387 . S
C228 C229 1.387 . S
C228 H232 0.950 . S
C228 C237 1.390 . S
C229 C228 1.387 . S
C229 C231 1.387 . S
H230 C237 0.950 . S
C231 C229 1.387 . S
C231 C233 1.390 . S
C231 H235 0.950 . S
H232 C228 0.950 . S
C233 C231 1.390 . S
C233 C234 1.387 . S
C233 H236 0.950 . S
C234 C233 1.387 . S
C234 C237 1.387 . S
H235 C231 0.950 . S
H236 C233 0.950 . S
C237 C228 1.390 . S
C237 H230 0.950 . S
C237 C234 1.387 . S
C238 C239 1.387 . S
C238 H242 0.950 . S
C238 C247 1.390 . S
C239 C238 1.387 . S
C239 C241 1.387 . S
H240 C247 0.950 . S
C241 C239 1.387 . S
C241 C243 1.390 . S
C241 H245 0.950 . S
H242 C238 0.950 . S
C243 C241 1.390 . S
C243 C244 1.387 . S
C243 H246 0.950 . S
C244 C243 1.387 . S
C244 C247 1.387 . S
H245 C241 0.950 . S
H246 C243 0.950 . S
C247 C238 1.390 . S
C247 H240 0.950 . S
C247 C244 1.387 . S
C248 C249 1.387 . S
C248 H252 0.950 . S
C248 C257 1.390 . S
C249 C248 1.387 . S
C249 C251 1.387 . S
H250 C257 0.950 . S
C251 C249 1.387 . S
C251 C253 1.390 . S
C251 H255 0.950 . S
H252 C248 0.950 . S
C253 C251 1.390 . S
C253 C254 1.387 . S
C253 H256 0.950 . S
C254 C253 1.387 . S
C254 C257 1.387 . S
H255 C251 0.950 . S
H256 C253 0.950 . S
C257 C248 1.390 . S
C257 H250 0.950 . S
C257 C254 1.387 . S
C258 C259 1.387 . S
C258 H262 0.950 . S
C258 C267 1.390 . S
C259 C258 1.387 . S
C259 C261 1.387 . S
H260 C267 0.950 . S
C261 C259 1.387 . S
C261 C263 1.390 . S
C261 H265 0.950 . S
H262 C258 0.950 . S
C263 C261 1.390 . S
C263 C264 1.387 . S
C263 H266 0.950 . S
C264 C263 1.387 . S
C264 C267 1.387 . S
H265 C261 0.950 . S
H266 C263 0.950 . S
C267 C258 1.390 . S
C267 H260 0.950 . S
C267 C264 1.387 . S
C268 C269 1.387 . S
C268 H272 0.950 . S
C268 C277 1.390 . S
C269 C268 1.387 . S
C269 C271 1.387 . S
H270 C277 0.950 . S
C271 C269 1.387 . S
C271 C273 1.390 . S
C271 H275 0.950 . S
H272 C268 0.950 . S
C273 C271 1.390 . S
C273 C274 1.387 . S
C273 H276 0.950 . S
C274 C273 1.387 . S
C274 C277 1.387 . S
H275 C271 0.950 . S
H276 C273 0.950 . S
C277 C268 1.390 . S
C277 H270 0.950 . S
C277 C274 1.387 . S
C278 C279 1.387 . S
C278 H282 0.950 . S
C278 C287 1.390 . S
C279 C278 1.387 . S
C279 C281 1.387 . S
H280 C287 0.950 . S
C281 C279 1.387 . S
C281 C283 1.390 . S
C281 H285 0.950 . S
H282 C278 0.950 . S
C283 C281 1.390 . S
C283 C284 1.387 . S
C283 H286 0.950 . S
C284 C283 1.387 . S
C284 C287 1.387 . S
H285 C281 0.950 . S
H286 C283 0.950 . S
C287 C278 1.390 . S
C287 H280 0.950 . S
C287 C284 1.387 . S
C288 C289 1.387 . S
C288 H292 0.950 . S
C288 C297 1.390 . S
C289 C288 1.387 . S
C289 C291 1.387 . S
H290 C297 0.950 . S
C291 C289 1.387 . S
C291 C293 1.390 . S
C291 H295 0.950 . S
H292 C288 0.950 . S
C293 C291 1.390 . S
C293 C294 1.387 . S
C293 H296 0.950 . S
C294 C293 1.387 . S
C294 C297 1.387 . S
H295 C291 0.950 . S
H296 C293 0.950 . S
C297 C288 1.390 . S
C297 H290 0.950 . S
C297 C294 1.387 . S
C298 C299 1.387 . S
C298 H302 0.950 . S
C298 C307 1.390 . S
C299 C298 1.387 . S
C299 C301 1.387 . S
H300 C307 0.950 . S
C301 C299 1.387 . S
C301 C303 1.390 . S
C301 H305 0.950 . S
H302 C298 0.950 . S
C303 C301 1.390 . S
C303 C304 1.387 . S
C303 H306 0.990 . S
C304 C303 1.387 . S
C304 C307 1.387 . S
H305 C301 0.950 . S
H306 C303 0.990 . S
C307 C298 1.390 . S
C307 H300 0.950 . S
C307 C304 1.387 . S
C308 C309 1.387 . S
C308 H312 0.950 . S
C308 C317 1.390 . S
C309 C308 1.387 . S
C309 C311 1.387 . S
H310 C317 0.950 . S
C311 C309 1.387 . S
C311 C313 1.390 . S
C311 H315 0.950 . S
H312 C308 0.950 . S
C313 C311 1.390 . S
C313 C314 1.387 . S
C313 H316 0.950 . S
C314 C313 1.387 . S
C314 C317 1.387 . S
H315 C311 0.950 . S
H316 C313 0.950 . S
C317 C308 1.390 . S
C317 H310 0.950 . S
C317 C314 1.387 . S
C318 C319 1.387 . S
C318 H322 0.950 . S
C318 C327 1.390 . S
C319 C318 1.387 . S
C319 C321 1.387 . S
H320 C327 0.950 . S
C321 C319 1.387 . S
C321 C323 1.390 . S
C321 H325 0.950 . S
H322 C318 0.950 . S
C323 C321 1.390 . S
C323 C324 1.387 . S
C323 H326 0.950 . S
C324 C323 1.387 . S
C324 C327 1.387 . S
H325 C321 0.950 . S
H326 C323 0.950 . S
C327 C318 1.390 . S
C327 H320 0.950 . S
C327 C324 1.387 . S
C328 C329 1.387 . S
C328 H332 0.950 . S
C328 C337 1.390 . S
C329 C328 1.387 . S
C329 C331 1.387 . S
H330 C337 0.950 . S
C331 C329 1.387 . S
C331 C333 1.390 . S
C331 H335 0.950 . S
H332 C328 0.950 . S
C333 C331 1.390 . S
C333 C334 1.387 . S
C333 H336 0.950 . S
C334 C333 1.387 . S
C334 C337 1.387 . S
H335 C331 0.950 . S
H336 C333 0.950 . S
C337 C328 1.390 . S
C337 H330 0.950 . S
C337 C334 1.387 . S
C338 C339 1.387 . S
C338 H342 0.950 . S
C338 C347 1.390 . S
C339 C338 1.387 . S
C339 C341 1.387 . S
H340 C347 0.950 . S
C341 C339 1.387 . S
C341 C343 1.390 . S
C341 H345 0.950 . S
H342 C338 0.950 . S
C343 C341 1.390 . S
C343 C344 1.387 . S
C343 H346 0.950 . S
C344 C343 1.387 . S
C344 C347 1.387 . S
H345 C341 0.950 . S
H346 C343 0.950 . S
C347 C338 1.390 . S
C347 H340 0.950 . S
C347 C344 1.387 . S
C348 C349 1.387 . S
C348 H352 0.950 . S
C348 C357 1.390 . S
C349 C348 1.387 . S
C349 C351 1.387 . S
H350 C357 0.950 . S
C351 C349 1.387 . S
C351 C353 1.390 . S
C351 H355 0.950 . S
H352 C348 0.950 . S
C353 C351 1.390 . S
C353 C354 1.387 . S
C353 H356 0.950 . S
C354 C353 1.387 . S
C354 C357 1.387 . S
H355 C351 0.950 . S
H356 C353 0.950 . S
C357 C348 1.390 . S
C357 H350 0.950 . S
C357 C354 1.387 . S
C358 C359 1.387 . S
C358 H362 0.950 . S
C358 C367 1.390 . S
C359 C358 1.387 . S
C359 C361 1.387 . S
H360 C367 0.950 . S
C361 C359 1.387 . S
C361 C363 1.390 . S
C361 H365 0.950 . S
H362 C358 0.950 . S
C363 C361 1.390 . S
C363 C364 1.387 . S
C363 H366 0.950 . S
C364 C363 1.387 . S
C364 C367 1.387 . S
H365 C361 0.950 . S
H366 C363 0.950 . S
C367 C358 1.390 . S
C367 H360 0.950 . S
C367 C364 1.387 . S
C368 C369 1.387 . S
C368 H372 0.950 . S
C368 C377 1.390 . S
C369 C368 1.387 . S
C369 C371 1.387 . S
H370 C377 0.950 . S
C371 C369 1.387 . S
C371 C373 1.390 . S
C371 H375 0.950 . S
H372 C368 0.950 . S
C373 C371 1.390 . S
C373 C374 1.387 . S
C373 H376 0.950 . S
C374 C373 1.387 . S
C374 C377 1.387 . S
H375 C371 0.950 . S
H376 C373 0.950 . S
C377 C368 1.390 . S
C377 H370 0.950 . S
C377 C374 1.387 . S
C378 C379 1.387 . S
C378 H382 0.950 . S
C378 C387 1.390 . S
C379 C378 1.387 . S
C379 C381 1.387 . S
H380 C387 0.950 . S
C381 C379 1.387 . S
C381 C383 1.390 . S
C381 H385 0.950 . S
H382 C378 0.950 . S
C383 C381 1.390 . S
C383 C384 1.387 . S
C383 H386 0.950 . S
C384 C383 1.387 . S
C384 C387 1.387 . S
H385 C381 0.950 . S
H386 C383 0.950 . S
C387 C378 1.390 . S
C387 H380 0.950 . S
C387 C384 1.387 . S
C388 C389 1.387 . S
C388 H392 0.950 . S
C388 C397 1.390 . S
C389 C388 1.387 . S
C389 C391 1.387 . S
H390 C397 0.950 . S
C391 C389 1.387 . S
C391 C393 1.390 . S
C391 H395 0.950 . S
H392 C388 0.950 . S
C393 C391 1.390 . S
C393 C394 1.387 . S
C393 H396 0.950 . S
C394 C393 1.387 . S
C394 C397 1.387 . S
H395 C391 0.950 . S
H396 C393 0.950 . S
C397 C388 1.390 . S
C397 H390 0.950 . S
C397 C394 1.387 . S
C398 C399 1.387 . S
C398 H402 0.950 . S
C398 C407 1.390 . S
C399 C398 1.387 . S
C399 C401 1.387 . S
H400 C407 0.950 . S
C401 C399 1.387 . S
C401 C403 1.390 . S
C401 H405 0.950 . S
H402 C398 0.950 . S
C403 C401 1.390 . S
C403 C404 1.387 . S
C403 H406 0.950 . S
C404 C403 1.387 . S
C404 C407 1.387 . S
H405 C401 0.950 . S
H406 C403 0.950 . S
C407 C398 1.390 . S
C407 H400 0.950 . S
C407 C404 1.387 . S
C408 C409 1.387 . S
C408 H412 0.950 . S
C408 C417 1.390 . S
C409 C408 1.387 . S
C409 C411 1.387 . S
H410 C417 0.950 . S
C411 C409 1.387 . S
C411 C413 1.390 . S
C411 H415 0.950 . S
H412 C408 0.950 . S
C413 C411 1.390 . S
C413 C414 1.387 . S
C413 H416 0.950 . S
C414 C413 1.387 . S
C414 C417 1.387 . S
H415 C411 0.950 . S
H416 C413 0.950 . S
C417 C408 1.390 . S
C417 H410 0.950 . S
C417 C414 1.387 . S
C418 C419 1.387 . S
C418 H422 0.950 . S
C418 C427 1.390 . S
C419 C418 1.387 . S
C419 C421 1.387 . S
H420 C427 0.950 . S
C421 C419 1.387 . S
C421 C423 1.390 . S
C421 H425 0.950 . S
H422 C418 0.950 . S
C423 C421 1.390 . S
C423 C424 1.387 . S
C423 H426 0.950 . S
C424 C423 1.387 . S
C424 C427 1.387 . S
H425 C421 0.950 . S
H426 C423 0.950 . S
C427 C418 1.390 . S
C427 H420 0.950 . S
C427 C424 1.387 . S
C428 C429 1.387 . S
C428 H432 0.950 . S
C428 C437 1.390 . S
C429 C428 1.387 . S
C429 C431 1.387 . S
H430 C437 0.950 . S
C431 C429 1.387 . S
C431 C433 1.390 . S
C431 H435 0.950 . S
H432 C428 0.950 . S
C433 C431 1.390 . S
C433 C434 1.387 . S
C433 H436 0.950 . S
C434 C433 1.387 . S
C434 C437 1.387 . S
H435 C431 0.950 . S
H436 C433 0.950 . S
C437 C428 1.390 . S
C437 H430 0.950 . S
C437 C434 1.387 . S
C438 C439 1.387 . S
C438 H442 0.950 . S
C438 C447 1.390 . S
C439 C438 1.387 . S
C439 C441 1.387 . S
H440 C447 0.950 . S
C441 C439 1.387 . S
C441 C443 1.390 . S
C441 H445 0.950 . S
H442 C438 0.950 . S
C443 C441 1.390 . S
C443 C444 1.387 . S
C443 H446 0.950 . S
C444 C443 1.387 . S
C444 C447 1.387 . S
H445 C441 0.950 . S
H446 C443 0.950 . S
C447 C438 1.390 . S
C447 H440 0.950 . S
C447 C444 1.387 . S
C448 C449 1.387 . S
C448 H452 0.950 . S
C448 C457 1.390 . S
C449 C448 1.387 . S
C449 C451 1.387 . S
H450 C457 0.950 . S
C451 C449 1.387 . S
C451 C453 1.390 . S
C451 H455 0.950 . S
H452 C448 0.950 . S
C453 C451 1.390 . S
C453 C454 1.387 . S
C453 H456 0.950 . S
C454 C453 1.387 . S
C454 C457 1.387 . S
H455 C451 0.950 . S
H456 C453 0.950 . S
C457 C448 1.390 . S
C457 H450 0.950 . S
C457 C454 1.387 . S
C458 C459 1.387 . S
C458 H462 0.950 . S
C458 C467 1.390 . S
C459 C458 1.387 . S
C459 C461 1.387 . S
H460 C467 0.950 . S
C461 C459 1.387 . S
C461 C463 1.390 . S
C461 H465 0.950 . S
H462 C458 0.950 . S
C463 C461 1.390 . S
C463 C464 1.387 . S
C463 H466 0.950 . S
C464 C463 1.387 . S
C464 C467 1.387 . S
H465 C461 0.950 . S
H466 C463 0.950 . S
C467 C458 1.390 . S
C467 H460 0.950 . S
C467 C464 1.387 . S
C468 C469 1.387 . S
C468 H472 0.950 . S
C468 C477 1.390 . S
C469 C468 1.387 . S
C469 C471 1.387 . S
H470 C477 0.950 . S
C471 C469 1.387 . S
C471 C473 1.390 . S
C471 H475 0.950 . S
H472 C468 0.950 . S
C473 C471 1.390 . S
C473 C474 1.387 . S
C473 H476 0.950 . S
C474 C473 1.387 . S
C474 C477 1.387 . S
H475 C471 0.950 . S
H476 C473 0.950 . S
C477 C468 1.390 . S
C477 H470 0.950 . S
C477 C474 1.387 . S
C478 C479 1.387 . S
C478 H482 0.950 . S
C478 C487 1.390 . S
C479 C478 1.387 . S
C479 C481 1.387 . S
H480 C487 0.950 . S
C481 C479 1.387 . S
C481 C483 1.390 . S
C481 H485 0.950 . S
H482 C478 0.950 . S
C483 C481 1.390 . S
C483 C484 1.387 . S
C483 H486 0.950 . S
C484 C483 1.387 . S
C484 C487 1.387 . S
H485 C481 0.950 . S
H486 C483 0.950 . S
C487 C478 1.390 . S
C487 H480 0.950 . S
C487 C484 1.387 . S
C488 C489 1.387 . S
C488 H492 0.950 . S
C488 C497 1.390 . S
C489 C488 1.387 . S
C489 C491 1.387 . S
H490 C497 0.950 . S
C491 C489 1.387 . S
C491 C493 1.390 . S
C491 H495 0.950 . S
H492 C488 0.950 . S
C493 C491 1.390 . S
C493 C494 1.387 . S
C493 H496 0.950 . S
C494 C493 1.387 . S
C494 C497 1.387 . S
H495 C491 0.950 . S
H496 C493 0.950 . S
C497 C488 1.390 . S
C497 H490 0.950 . S
C497 C494 1.387 . S
C498 C499 1.387 . S
C498 H502 0.950 . S
C498 C507 1.390 . S
C499 C498 1.387 . S
C499 C501 1.387 . S
H500 C507 0.950 . S
C501 C499 1.387 . S
C501 C503 1.390 . S
C501 H505 0.950 . S
H502 C498 0.950 . S
C503 C501 1.390 . S
C503 C504 1.387 . S
C503 H506 0.950 . S
C504 C503 1.387 . S
C504 C507 1.387 . S
H505 C501 0.950 . S
H506 C503 0.950 . S
C507 C498 1.390 . S
C507 H500 0.950 . S
C507 C504 1.387 . S
C508 C509 1.387 . S
C508 H512 0.950 . S
C508 C517 1.390 . S
C509 C508 1.387 . S
C509 C511 1.387 . S
H510 C517 0.950 . S
C511 C509 1.387 . S
C511 C513 1.390 . S
C511 H515 0.950 . S
H512 C508 0.950 . S
C513 C511 1.390 . S
C513 C514 1.387 . S
C513 H516 0.950 . S
C514 C513 1.387 . S
C514 C517 1.387 . S
H515 C511 0.950 . S
H516 C513 0.950 . S
C517 C508 1.390 . S
C517 H510 0.950 . S
C517 C514 1.387 . S
C518 C519 1.387 . S
C518 H522 0.950 . S
C518 C527 1.390 . S
C519 C518 1.387 . S
C519 C521 1.387 . S
H520 C527 0.950 . S
C521 C519 1.387 . S
C521 C523 1.390 . S
C521 H525 0.950 . S
H522 C518 0.950 . S
C523 C521 1.390 . S
C523 C524 1.387 . S
C523 H526 0.950 . S
C524 C523 1.387 . S
C524 C527 1.387 . S
H525 C521 0.950 . S
H526 C523 0.950 . S
C527 C518 1.390 . S
C527 H520 0.950 . S
C527 C524 1.387 . S
C214 C117 1.348 . S
C209 C5 1.395 . S
C224 C135 1.282 . S
C219 C18 1.380 . S
C234 C143 1.345 . S
C229 C31 1.394 . S
C239 C42 1.391 . S
C244 C109 1.285 . S
C249 C57 1.394 . S
C254 C104 1.342 . S
C259 C70 1.383 . S
C264 C122 1.285 . S
C274 C130 1.345 . S
C269 C81 1.410 . S
C284 C148 1.281 . S
C279 C96 1.382 . S
C289 C29 1.408 . S
C294 C169 1.345 . S
C304 C187 1.285 . S
C299 C44 1.381 . S
C309 C3 1.408 . S
C314 C195 1.348 . S
C324 C161 1.282 . S
C319 C16 1.392 . S
C329 C83 1.395 . S
C334 C156 1.345 . S
C339 C94 1.391 . S
C344 C174 1.279 . S
C354 C182 1.347 . S
C349 C55 1.409 . S
C359 C68 1.391 . S
C364 C200 1.281 . S
C374 C138 1.439 . S
C369 C1 1.383 . S
C384 C153 1.388 . S
C379 C14 1.389 . S
C389 C27 1.385 . S
C394 C112 1.439 . S
C399 C49 1.433 . S
C404 C127 1.386 . S
C409 C53 1.384 . S
C414 C151 1.438 . S
C424 C114 1.388 . S
C419 C66 1.390 . S
C434 C125 1.440 . S
C429 C88 1.429 . S
C444 C140 1.385 . S
C439 C92 1.389 . S
C454 C190 1.439 . S
C449 C36 1.426 . S
C464 C205 1.385 . S
C459 C40 1.388 . S
C469 C10 1.426 . S
C474 C164 1.438 . S
C484 C179 1.388 . S
C479 C23 1.434 . S
C494 C203 1.439 . S
C489 C79 1.383 . S
C499 C101 1.433 . S
C504 C166 1.385 . S
C514 C177 1.439 . S
C509 C62 1.427 . S
C524 C192 1.388 . S
C519 C75 1.433 . S
