# Generated by pormake.
# Topology rtl, (3,6)-cn, num edge types: 1
# Building blocks:
#     Node 0, Type 0, BuildingBlock: WUSLED_clean_sbu_0, # of connection points: 3
#     Node 1, Type 0, BuildingBlock: WUSLED_clean_sbu_0, # of connection points: 3
#     Node 2, Type 0, BuildingBlock: WUSLED_clean_sbu_0, # of connection points: 3
#     Node 3, Type 0, BuildingBlock: WUSLED_clean_sbu_0, # of connection points: 3
#     Node 4, Type 1, BuildingBlock: LEVNOQ01_clean_sbu_1, # of connection points: 6
#     Node 5, Type 1, BuildingBlock: LEVNOQ01_clean_sbu_1, # of connection points: 6
#     Edge 6, Type (0, 1), BuildingBlock: XUDNAN_clean_linker_2, # of connection points: 2
#     Edge 7, Type (0, 1), BuildingBlock: XUDNAN_clean_linker_2, # of connection points: 2
#     Edge 8, Type (0, 1), BuildingBlock: XUDNAN_clean_linker_2, # of connection points: 2
#     Edge 9, Type (0, 1), BuildingBlock: XUDNAN_clean_linker_2, # of connection points: 2
#     Edge 10, Type (0, 1), BuildingBlock: XUDNAN_clean_linker_2, # of connection points: 2
#     Edge 11, Type (0, 1), BuildingBlock: XUDNAN_clean_linker_2, # of connection points: 2
#     Edge 12, Type (0, 1), BuildingBlock: XUDNAN_clean_linker_2, # of connection points: 2
#     Edge 13, Type (0, 1), BuildingBlock: XUDNAN_clean_linker_2, # of connection points: 2
#     Edge 14, Type (0, 1), BuildingBlock: XUDNAN_clean_linker_2, # of connection points: 2
#     Edge 15, Type (0, 1), BuildingBlock: XUDNAN_clean_linker_2, # of connection points: 2
#     Edge 16, Type (0, 1), BuildingBlock: XUDNAN_clean_linker_2, # of connection points: 2
#     Edge 17, Type (0, 1), BuildingBlock: XUDNAN_clean_linker_2, # of connection points: 2
# Relax obj value: 0.023
# Max RMSD: 0.059
# Mean RMSD: 0.042
data_MOF--net-rtl--node1-WUSLED_clean_sbu_0--node2-LEVNOQ01_clean_sbu_1--edge1-XUDNAN_clean_linker_2
_symmetry_space_group_name_H-M    P1
_symmetry_Int_Tables_number       1
_symmetry_cell_setting            triclinic
loop_
_symmetry_equiv_pos_as_xyz
'x, y, z'
_cell_length_a     40.061705
_cell_length_b     45.098745
_cell_length_c     31.228116
_cell_angle_alpha  90.186638
_cell_angle_beta   98.157184
_cell_angle_gamma 90.29677
loop_
_atom_site_label
_atom_site_type_symbol
_atom_site_fract_x
_atom_site_fract_y
_atom_site_fract_z
_atom_type_partial_charge
C0 C 0.14669 0.88949 0.13907 0.0
C1 C 0.12954 0.91643 0.13936 0.0
C2 C 0.13557 0.9155 0.2181 0.0
C3 C 0.12405 0.92935 0.17846 0.0
C4 C 0.15354 0.88877 0.21769 0.0
C5 C 0.15903 0.87585 0.17844 0.0
U6 U 0.18296 0.82975 0.07202 0.0
O7 O 0.23083 0.82126 0.11382 0.0
O8 O 0.18733 0.79203 0.11706 0.0
C9 C 0.21984 0.7964 0.1289 0.0
C10 C 0.15077 0.87569 0.09744 0.0
C11 C 0.24227 0.77046 0.12766 0.0
C12 C 0.29914 0.75054 0.13555 0.0
C13 C 0.27732 0.77435 0.13786 0.0
C14 C 0.25133 0.71796 0.11475 0.0
C15 C 0.28643 0.72217 0.12349 0.0
C16 C 0.22944 0.74189 0.11671 0.0
C17 C 0.16263 0.83078 0.94837 0.0
C18 C 0.14464 0.87367 0.90422 0.0
C19 C 0.13624 0.82427 0.8738 0.0
C20 C 0.1509 0.81222 0.91325 0.0
C21 C 0.13332 0.85515 0.8687 0.0
C22 C 0.159 0.86161 0.94374 0.0
C23 C 0.17913 0.81766 0.98912 0.0
O24 O 0.13688 0.84933 0.09039 0.0
O25 O 0.18113 0.8775 0.08629 0.0
O26 O 0.20372 0.83336 1.01079 0.0
O27 O 0.15886 0.80576 0.01399 0.0
H28 H 0.12004 0.92735 0.10925 0.0
H29 H 0.11063 0.95017 0.17763 0.0
H30 H 0.16249 0.8774 0.24757 0.0
H31 H 0.17241 0.85501 0.17875 0.0
H32 H 0.32606 0.75437 0.14306 0.0
H33 H 0.28793 0.79597 0.14714 0.0
H34 H 0.24085 0.69636 0.10517 0.0
H35 H 0.20255 0.73802 0.10908 0.0
H36 H 0.14227 0.89753 0.90149 0.0
H37 H 0.12793 0.80946 0.84698 0.0
H38 H 0.15343 0.78838 0.9162 0.0
H39 H 0.16754 0.87638 0.97053 0.0
C40 C 0.72186 0.65837 0.72657 0.0
C41 C 0.68854 0.64827 0.72588 0.0
C42 C 0.70217 0.63003 0.79975 0.0
C43 C 0.67878 0.63428 0.76216 0.0
C44 C 0.73582 0.6391 0.79948 0.0
C45 C 0.74549 0.65318 0.76332 0.0
U46 U 0.71978 0.67625 0.60573 0.0
O47 O 0.71801 0.71971 0.57356 0.0
O48 O 0.76107 0.69019 0.57067 0.0
C49 C 0.74792 0.71648 0.5616 0.0
C50 C 0.73222 0.67565 0.69056 0.0
C51 C 0.77093 0.74212 0.56958 0.0
C52 C 0.81761 0.76856 0.61197 0.0
C53 C 0.79523 0.74434 0.60664 0.0
C54 C 0.79092 0.78879 0.54394 0.0
C55 C 0.81601 0.79086 0.58029 0.0
C56 C 0.76874 0.76467 0.53865 0.0
C57 C 0.66569 0.63054 0.51848 0.0
C58 C 0.62493 0.60556 0.46518 0.0
C59 C 0.66918 0.63563 0.44173 0.0
C60 C 0.68148 0.64235 0.48493 0.0
C61 C 0.64078 0.61705 0.43128 0.0
C62 C 0.63731 0.61223 0.50832 0.0
C63 C 0.67852 0.63698 0.56414 0.0
O64 O 0.75104 0.66173 0.6658 0.0
O65 O 0.70888 0.69226 0.66874 0.0
O66 O 0.66824 0.66201 0.57938 0.0
O67 O 0.71084 0.63215 0.57597 0.0
H68 H 0.66986 0.65188 0.69776 0.0
H69 H 0.65261 0.62786 0.7613 0.0
H70 H 0.75464 0.63571 0.8275 0.0
H71 H 0.77136 0.66062 0.76442 0.0
H72 H 0.83666 0.76945 0.64027 0.0
H73 H 0.79718 0.72719 0.63107 0.0
H74 H 0.78841 0.80586 0.51938 0.0
H75 H 0.74998 0.7635 0.51004 0.0
H76 H 0.6027 0.59163 0.45842 0.0
H77 H 0.68226 0.64461 0.41657 0.0
H78 H 0.70342 0.6566 0.49218 0.0
H79 H 0.62468 0.60306 0.53379 0.0
C80 C 0.84336 0.2088 0.14577 0.0
C81 C 0.84654 0.17807 0.15216 0.0
C82 C 0.87466 0.18628 0.22583 0.0
C83 C 0.8619 0.16693 0.19188 0.0
C84 C 0.87189 0.21702 0.21902 0.0
C85 C 0.85628 0.22815 0.17942 0.0
U86 U 0.82206 0.208 0.02197 0.0
O87 O 0.77433 0.21768 0.9803 0.0
O88 O 0.81916 0.24501 0.97594 0.0
C89 C 0.78653 0.2416 0.9641 0.0
C90 C 0.82652 0.22115 0.10461 0.0
C91 C 0.76605 0.26844 0.96578 0.0
C92 C 0.71943 0.29922 0.93399 0.0
C93 C 0.74038 0.27469 0.93167 0.0
C94 C 0.75024 0.31189 1.00417 0.0
C95 C 0.72383 0.3179 0.97056 0.0
C96 C 0.77102 0.28732 1.00191 0.0
C97 C 0.85809 0.14795 0.95554 0.0
C98 C 0.84924 0.14802 0.87687 0.0
C99 C 0.88631 0.11181 0.91577 0.0
C100 C 0.87956 0.12361 0.95503 0.0
C101 C 0.87171 0.12418 0.87623 0.0
C102 C 0.84257 0.15988 0.91628 0.0
C103 C 0.85363 0.1615 0.99719 0.0
O104 O 0.8466 0.23259 0.07912 0.0
O105 O 0.80179 0.20522 0.08368 0.0
O106 O 0.82301 0.16019 1.00766 0.0
O107 O 0.86805 0.18759 1.00475 0.0
H108 H 0.83707 0.16267 0.12654 0.0
H109 H 0.86406 0.14313 0.19589 0.0
H110 H 0.88121 0.23249 0.2446 0.0
H111 H 0.8541 0.25193 0.17514 0.0
H112 H 0.69911 0.30296 0.90781 0.0
H113 H 0.73609 0.26024 0.90362 0.0
H114 H 0.75466 0.32604 0.03253 0.0
H115 H 0.79068 0.28282 0.02863 0.0
H116 H 0.83782 0.15817 0.847 0.0
H117 H 0.90333 0.09318 0.91637 0.0
H118 H 0.89167 0.1141 0.98505 0.0
H119 H 0.82595 0.17877 0.91617 0.0
C120 C 0.33115 0.41743 0.42331 0.0
C121 C 0.36066 0.43183 0.41515 0.0
C122 C 0.3393 0.43387 0.33808 0.0
C123 C 0.36475 0.43994 0.37301 0.0
C124 C 0.3095 0.41973 0.3466 0.0
C125 C 0.30552 0.41148 0.38879 0.0
U126 U 0.29451 0.36769 0.50469 0.0
O127 O 0.24438 0.35719 0.46917 0.0
O128 O 0.28631 0.32644 0.46668 0.0
C129 C 0.25389 0.33125 0.45598 0.0
C130 C 0.328 0.4083 0.46783 0.0
C131 C 0.23157 0.30597 0.46169 0.0
C132 C 0.20057 0.27534 0.50657 0.0
C133 C 0.22148 0.29976 0.50193 0.0
C134 C 0.19965 0.26311 0.43082 0.0
C135 C 0.18951 0.25659 0.4711 0.0
C136 C 0.22046 0.28756 0.42622 0.0
C137 C 0.32397 0.38046 0.62454 0.0
C138 C 0.33293 0.3991 0.69858 0.0
C139 C 0.37296 0.41106 0.64989 0.0
C140 C 0.35377 0.39473 0.61699 0.0
C141 C 0.36259 0.41384 0.69098 0.0
C142 C 0.31381 0.38258 0.66562 0.0
C143 C 0.30303 0.36402 0.5895 0.0
O144 O 0.34046 0.38215 0.47925 0.0
O145 O 0.29866 0.41319 0.48073 0.0
O146 O 0.27861 0.37931 0.56738 0.0
O147 O 0.31964 0.34767 0.56479 0.0
H148 H 0.3808 0.43645 0.44136 0.0
H149 H 0.3883 0.45023 0.36773 0.0
H150 H 0.28924 0.41496 0.32065 0.0
H151 H 0.28254 0.40031 0.39442 0.0
H152 H 0.19292 0.27126 0.53793 0.0
H153 H 0.22981 0.31375 0.52971 0.0
H154 H 0.19209 0.24898 0.40299 0.0
H155 H 0.22813 0.29198 0.39493 0.0
H156 H 0.32396 0.40099 0.72959 0.0
H157 H 0.39594 0.42161 0.64299 0.0
H158 H 0.3621 0.39344 0.58551 0.0
H159 H 0.29081 0.37179 0.67203 0.0
O160 O 0.01953 0.05624 0.65334 0.0
Mg161 Mg 0.05616 0.04529 0.61414 0.0
O162 O 0.97913 0.04526 0.60028 0.0
Mg163 Mg 0.00975 0.02437 0.54867 0.0
O164 O 0.05148 0.06316 0.55325 0.0
O165 O 0.08764 0.07939 0.61029 0.0
O166 O 0.04039 1.00335 0.49761 0.0
O167 O 0.98349 0.06059 0.49814 0.0
Mg168 Mg 0.96477 0.007 0.48732 0.0
O169 O 0.96892 0.98441 0.54482 0.0
O170 O 0.99943 1.00019 0.44332 0.0
O171 O 0.93292 0.04329 0.47718 0.0
O172 O 0.93605 0.97046 0.4836 0.0
C173 C 0.06426 0.98538 0.62306 0.0
C174 C 0.98849 0.05495 0.63859 0.0
C175 C 0.07546 0.08131 0.56991 0.0
C176 C 0.03035 0.99771 0.45785 0.0
C177 C 0.95365 0.06441 0.47826 0.0
C178 C 0.94692 0.96617 0.52389 0.0
O179 O 0.08413 0.00716 0.62918 0.0
O180 O 0.03603 0.98866 0.59885 0.0
O181 O 0.53611 0.5027 0.15737 0.0
Mg182 Mg 0.5189 0.47604 0.10225 0.0
O183 O 0.53738 0.54034 0.11339 0.0
Mg184 Mg 0.50756 0.52153 0.04941 0.0
O185 O 0.54229 0.47844 0.04768 0.0
O186 O 0.55213 0.44359 0.09919 0.0
O187 O 0.47814 0.50529 0.98351 0.0
O188 O 0.55335 0.53757 0.01299 0.0
Mg189 Mg 0.50381 0.5694 1.00848 0.0
O190 O 0.47211 0.56411 0.0531 0.0
O191 O 0.49103 0.54537 0.9493 0.0
O192 O 0.55352 0.58442 0.02885 0.0
O193 O 0.47242 0.60389 1.01008 0.0
C194 C 0.45143 0.47894 0.09524 0.0
C195 C 0.54364 0.52948 0.15125 0.0
C196 C 0.55773 0.4544 0.06273 0.0
C197 C 0.4785 0.51943 0.94822 0.0
C198 C 0.56867 0.56246 0.01616 0.0
C199 C 0.46043 0.59008 0.04066 0.0
O200 O 0.47084 0.45711 0.09575 0.0
O201 O 0.46204 0.5044 0.08534 0.0
H202 H 0.19492 0.2183 0.53974 0.0
H203 H 0.13603 0.23434 0.41438 0.0
H204 H 0.10152 0.18973 0.42346 0.0
H205 H 0.19517 0.13891 0.53331 0.0
H206 H 0.19147 0.13411 0.58972 0.0
H207 H 0.21192 0.16668 0.57231 0.0
H208 H 0.17081 0.20017 0.60748 0.0
H209 H 0.15041 0.16772 0.62524 0.0
H210 H 0.12598 0.19509 0.59277 0.0
H211 H 0.07252 0.14274 0.448 0.0
H212 H 0.05163 0.09987 0.48664 0.0
H213 H 0.12955 0.11699 0.59545 0.0
C214 C 0.17461 0.21269 0.51426 0.0
C215 C 0.16826 0.22994 0.47636 0.0
C216 C 0.14172 0.22132 0.44355 0.0
C217 C 0.12187 0.19606 0.44847 0.0
C218 C 0.12886 0.17959 0.48636 0.0
C219 C 0.15461 0.18771 0.51866 0.0
C220 C 0.15682 0.16687 0.55669 0.0
C221 C 0.19087 0.15069 0.56337 0.0
C222 C 0.15062 0.18345 0.59797 0.0
C223 C 0.12815 0.14585 0.54105 0.0
C224 C 0.1123 0.15324 0.50035 0.0
C225 C 0.08482 0.13681 0.47991 0.0
C226 C 0.0731 0.11251 0.50202 0.0
C227 C 0.08869 0.10515 0.54419 0.0
C228 C 0.11682 0.12197 0.56335 0.0
H229 H 0.34137 0.72418 0.08136 0.0
H230 H 0.28412 0.66458 0.15218 0.0
H231 H 0.32368 0.62388 0.14164 0.0
H232 H 0.35822 0.67206 1.00211 0.0
H233 H 0.39985 0.68638 0.99878 0.0
H234 H 0.36787 0.71057 0.01391 0.0
H235 H 0.40701 0.72472 0.08452 0.0
H236 H 0.43913 0.70054 0.0696 0.0
H237 H 0.42411 0.69589 0.12092 0.0
H238 H 0.37072 0.58959 0.12253 0.0
H239 H 0.41783 0.56488 0.09293 0.0
H240 H 0.44185 0.6479 0.03401 0.0
C241 C 0.33738 0.70268 0.09518 0.0
C242 C 0.30993 0.69756 0.11795 0.0
C243 C 0.30505 0.66891 0.13458 0.0
C244 C 0.32746 0.64575 0.12894 0.0
C245 C 0.3544 0.65163 0.10634 0.0
C246 C 0.35921 0.67942 0.08956 0.0
C247 C 0.38907 0.68002 0.06503 0.0
C248 C 0.37808 0.6877 0.01713 0.0
C249 C 0.41645 0.70156 0.08631 0.0
C250 C 0.40037 0.64819 0.07037 0.0
C251 C 0.38042 0.63207 0.09458 0.0
C252 C 0.38643 0.60206 0.10346 0.0
C253 C 0.41325 0.58822 0.08664 0.0
C254 C 0.43337 0.60439 0.06093 0.0
C255 C 0.42683 0.63479 0.05324 0.0
H256 H 0.84705 0.81445 0.51581 0.0
H257 H 0.84072 0.82405 0.65263 0.0
H258 H 0.87867 0.8679 0.65592 0.0
H259 H 0.93462 0.83883 0.51954 0.0
H260 H 0.92571 0.85779 0.4685 0.0
H261 H 0.90146 0.82549 0.47883 0.0
H262 H 0.84624 0.85567 0.4618 0.0
H263 H 0.87027 0.88796 0.45138 0.0
H264 H 0.8417 0.88962 0.49101 0.0
H265 H 0.91477 0.91384 0.6416 0.0
H266 H 0.94251 0.9567 0.61068 0.0
H267 H 0.92212 0.91598 0.48362 0.0
C268 C 0.85367 0.82564 0.54661 0.0
C269 C 0.84073 0.81588 0.5839 0.0
C270 C 0.85054 0.83097 0.62366 0.0
C271 C 0.87203 0.85594 0.62579 0.0
C272 C 0.88369 0.86536 0.58798 0.0
C273 C 0.87482 0.85046 0.54922 0.0
C274 C 0.88865 0.86567 0.51246 0.0
C275 C 0.91412 0.84576 0.49375 0.0
C276 C 0.86001 0.8753 0.47711 0.0
C277 C 0.9059 0.89203 0.53612 0.0
C278 C 0.90344 0.89146 0.57979 0.0
C279 C 0.91694 0.91433 0.60746 0.0
C280 C 0.9327 0.93855 0.58973 0.0
C281 C 0.93418 0.93978 0.54474 0.0
C282 C 0.92115 0.91586 0.51811 0.0
H283 H 0.6973 0.33362 0.04308 0.0
H284 H 0.69518 0.35708 0.90812 0.0
H285 H 0.6535 0.39638 0.9164 0.0
H286 H 0.611 0.34282 0.04772 0.0
H287 H 0.61715 0.3578 0.10188 0.0
H288 H 0.64767 0.33277 0.08512 0.0
H289 H 0.695 0.37178 0.10635 0.0
H290 H 0.6646 0.39693 0.1233 0.0
H291 H 0.69056 0.4085 0.08369 0.0
H292 H 0.61035 0.43318 0.94076 0.0
H293 H 0.56974 0.46161 0.97798 0.0
H294 H 0.60234 0.41259 0.09573 0.0
C295 C 0.68867 0.34734 0.01536 0.0
C296 C 0.69979 0.34239 0.97506 0.0
C297 C 0.68694 0.36037 0.93934 0.0
C298 C 0.66341 0.38286 0.94379 0.0
C299 C 0.65301 0.38707 0.98416 0.0
C300 C 0.66537 0.36971 0.01923 0.0
C301 C 0.64973 0.3777 0.05886 0.0
C302 C 0.63023 0.3512 0.07427 0.0
C303 C 0.67657 0.38943 0.09518 0.0
C304 C 0.62621 0.40202 0.04067 0.0
C305 C 0.62845 0.40749 0.99768 0.0
C306 C 0.6085 0.42904 0.97446 0.0
C307 C 0.58555 0.4451 0.99579 0.0
C308 C 0.58265 0.4392 0.03964 0.0
C309 C 0.60361 0.41756 0.06209 0.0
H310 H 0.07582 0.93961 0.23305 0.0
H311 H 0.17661 0.91985 0.29671 0.0
H312 H 0.16188 0.94036 0.36528 0.0
H313 H 0.06612 0.00906 0.28836 0.0
H314 H 0.02202 1.00255 0.29097 0.0
H315 H 0.04119 0.98707 0.24718 0.0
H316 H 0.02124 0.93454 0.26615 0.0
H317 H 1.00204 0.94985 0.30996 0.0
H318 H 0.03261 0.92062 0.32028 0.0
H319 H 0.13482 0.96271 0.42778 0.0
H320 H 0.09771 0.98313 0.47775 0.0
H321 H 0.01574 0.98805 0.37104 0.0
C322 C 0.09506 0.93999 0.26116 0.0
C323 C 0.12746 0.92829 0.25938 0.0
C324 C 0.15154 0.92854 0.29734 0.0
C325 C 0.14347 0.94031 0.33636 0.0
C326 C 0.11122 0.9517 0.33686 0.0
C327 C 0.08745 0.95157 0.30014 0.0
C328 C 0.05428 0.96424 0.30908 0.0
C329 C 0.0454 0.9924 0.28231 0.0
C330 C 0.02588 0.94092 0.30089 0.0
C331 C 0.0629 0.97139 0.35668 0.0
C332 C 0.09585 0.96421 0.3723 0.0
C333 C 0.10901 0.96849 0.41576 0.0
C334 C 0.08779 0.98014 0.4439 0.0
C335 C 0.0538 0.98719 0.42841 0.0
C336 C 0.04156 0.98293 0.38409 0.0
H337 H 0.65649 0.58489 0.80785 0.0
H338 H 0.7218 0.64911 0.88283 0.0
H339 H 0.7007 0.63259 0.9491 0.0
H340 H 0.58682 0.59615 0.86073 0.0
H341 H 0.57315 0.55797 0.85914 0.0
H342 H 0.59685 0.57174 0.81858 0.0
H343 H 0.64103 0.53033 0.83766 0.0
H344 H 0.61749 0.51656 0.8786 0.0
H345 H 0.66132 0.52651 0.89268 0.0
H346 H 0.6669 0.61498 1.00494 0.0
H347 H 0.6227 0.59692 0.04637 0.0
H348 H 0.58036 0.54264 0.93715 0.0
C349 C 0.66671 0.59519 0.8383 0.0
C350 C 0.69113 0.61813 0.84002 0.0
C351 C 0.7037 0.63106 0.88061 0.0
C352 C 0.69178 0.62188 0.91853 0.0
C353 C 0.66744 0.59953 0.91561 0.0
C354 C 0.65515 0.58619 0.8766 0.0
C355 C 0.62707 0.56438 0.8819 0.0
C356 C 0.59403 0.5731 0.85342 0.0
C357 C 0.63736 0.53255 0.87213 0.0
C358 C 0.62466 0.56842 0.9296 0.0
C359 C 0.64842 0.58862 0.9485 0.0
C360 C 0.64879 0.59853 0.99091 0.0
C361 C 0.62369 0.58816 0.01423 0.0
C362 C 0.59887 0.56783 0.9953 0.0
C363 C 0.59993 0.55725 0.95289 0.0
H364 H 0.8521 0.14044 0.27165 0.0
H365 H 0.93303 0.20508 0.2758 0.0
H366 H 0.96 0.1841 0.34531 0.0
H367 H 0.84814 0.1394 0.38771 0.0
H368 H 0.83965 0.10012 0.38806 0.0
H369 H 0.82589 0.12153 0.34025 0.0
H370 H 0.85823 0.0864 0.29486 0.0
H371 H 0.87181 0.06479 0.3424 0.0
H372 H 0.90255 0.08007 0.3116 0.0
H373 H 0.98036 0.1529 0.41207 0.0
H374 H 0.99183 0.11453 0.46882 0.0
H375 H 0.8964 0.07193 0.42079 0.0
C376 C 0.87547 0.15024 0.2872 0.0
C377 C 0.89048 0.17437 0.26826 0.0
C378 C 0.9209 0.18675 0.28992 0.0
C379 C 0.93642 0.17496 0.32937 0.0
C380 C 0.92101 0.15101 0.34702 0.0
C381 C 0.89108 0.13894 0.32664 0.0
C382 C 0.88014 0.11265 0.35128 0.0
C383 C 0.84646 0.11881 0.3678 0.0
C384 C 0.87808 0.08431 0.32338 0.0
C385 C 0.90893 0.11132 0.38822 0.0
C386 C 0.93226 0.13365 0.38551 0.0
C387 C 0.96201 0.13556 0.41477 0.0
C388 C 0.96833 0.11368 0.44694 0.0
C389 C 0.94502 0.09025 0.44952 0.0
C390 C 0.91462 0.0897 0.42028 0.0
H391 H 0.37619 0.40454 0.77964 0.0
H392 H 0.39229 0.46736 0.67925 0.0
H393 H 0.4248 0.49949 0.73388 0.0
H394 H 0.36462 0.45962 0.86048 0.0
H395 H 0.38605 0.43863 0.90506 0.0
H396 H 0.36476 0.41968 0.858 0.0
H397 H 0.42007 0.39241 0.84889 0.0
H398 H 0.44156 0.41136 0.89585 0.0
H399 H 0.45772 0.4137 0.84495 0.0
H400 H 0.45494 0.52511 0.79802 0.0
H401 H 0.48007 0.54402 0.8691 0.0
H402 H 0.44403 0.46603 0.93042 0.0
C403 C 0.38642 0.42511 0.76916 0.0
C404 C 0.38195 0.43313 0.72482 0.0
C405 C 0.39596 0.46024 0.71266 0.0
C406 C 0.41432 0.47881 0.74354 0.0
C407 C 0.41842 0.47016 0.78669 0.0
C408 C 0.40483 0.44407 0.79972 0.0
C409 C 0.41269 0.44051 0.84853 0.0
C410 C 0.38009 0.43956 0.86923 0.0
C411 C 0.4343 0.41285 0.86023 0.0
C412 C 0.43266 0.46877 0.86074 0.0
C413 C 0.43567 0.48537 0.82435 0.0
C414 C 0.45275 0.51236 0.82679 0.0
C415 C 0.46695 0.52291 0.86751 0.0
C416 C 0.46404 0.50662 0.90563 0.0
C417 C 0.44677 0.47902 0.90201 0.0
H418 H 0.61607 0.5634 0.3981 0.0
H419 H 0.63592 0.65362 0.36027 0.0
H420 H 0.61423 0.64104 0.28432 0.0
H421 H 0.63841 0.52721 0.3039 0.0
H422 H 0.60537 0.49973 0.3017 0.0
H423 H 0.62304 0.51578 0.35285 0.0
H424 H 0.56339 0.53185 0.36647 0.0
H425 H 0.54554 0.51581 0.31539 0.0
H426 H 0.53798 0.5542 0.32676 0.0
H427 H 0.58938 0.61849 0.21211 0.0
H428 H 0.56364 0.58787 0.15013 0.0
H429 H 0.55929 0.51293 0.23616 0.0
C430 C 0.61563 0.58065 0.374 0.0
C431 C 0.62779 0.60954 0.38535 0.0
C432 C 0.62722 0.63123 0.35245 0.0
C433 C 0.61474 0.62434 0.3092 0.0
C434 C 0.60287 0.59567 0.29927 0.0
C435 C 0.60321 0.5742 0.33078 0.0
C436 C 0.58883 0.54512 0.3118 0.0
C437 C 0.61551 0.52051 0.31793 0.0
C438 C 0.55705 0.53624 0.33126 0.0
C439 C 0.58027 0.55357 0.26466 0.0
C440 C 0.58856 0.5828 0.25799 0.0
C441 C 0.58281 0.59556 0.217 0.0
C442 C 0.56817 0.57799 0.18198 0.0
C443 C 0.55942 0.54796 0.18816 0.0
C444 C 0.56568 0.53576 0.23019 0.0
H445 H 0.93511 0.11114 0.86012 0.0
H446 H 0.83105 0.1133 0.7987 0.0
H447 H 0.8488 0.09554 0.73015 0.0
H448 H 0.97186 0.13672 0.76956 0.0
H449 H 0.00834 0.11327 0.78068 0.0
H450 H 0.98694 0.12573 0.82432 0.0
H451 H 0.97915 0.0712 0.84737 0.0
H452 H 1.00061 0.05859 0.80385 0.0
H453 H 0.95888 0.04494 0.80831 0.0
H454 H 0.87924 0.07666 0.66788 0.0
H455 H 0.91913 0.06015 0.61869 0.0
H456 H 1.00209 0.07137 0.7232 0.0
C457 C 0.91592 0.10756 0.83246 0.0
C458 C 0.88166 0.11334 0.83486 0.0
C459 C 0.85749 0.10907 0.79753 0.0
C460 C 0.86732 0.09889 0.75854 0.0
C461 C 0.90142 0.09328 0.75744 0.0
C462 C 0.92527 0.0976 0.79353 0.0
C463 C 0.96035 0.09054 0.78428 0.0
C464 C 0.9832 0.11821 0.79004 0.0
C465 C 0.97563 0.06478 0.81263 0.0
C466 C 0.95267 0.08145 0.73733 0.0
C467 C 0.91862 0.08303 0.72216 0.0
C468 C 0.90596 0.07542 0.6795 0.0
C469 C 0.92876 0.06606 0.6518 0.0
C470 C 0.96377 0.06454 0.66694 0.0
C471 C 0.97555 0.07236 0.71033 0.0
H472 H 0.37114 0.48271 0.30882 0.0
H473 H 0.32102 0.40021 0.26511 0.0
H474 H 0.33498 0.40891 0.19192 0.0
H475 H 0.35063 0.52445 0.2045 0.0
H476 H 0.39152 0.54209 0.21101 0.0
H477 H 0.37222 0.53255 0.25795 0.0
H478 H 0.42499 0.50215 0.28845 0.0
H479 H 0.44448 0.51188 0.24202 0.0
H480 H 0.43963 0.47341 0.25553 0.0
H481 H 0.36284 0.42128 0.12814 0.0
H482 H 0.40331 0.43624 0.07932 0.0
H483 H 0.43442 0.51147 0.1621 0.0
C484 C 0.36257 0.46671 0.28369 0.0
C485 C 0.3447 0.44085 0.29288 0.0
C486 C 0.33406 0.4205 0.25893 0.0
C487 C 0.34194 0.42523 0.21713 0.0
C488 C 0.3602 0.45058 0.20946 0.0
C489 C 0.37023 0.47111 0.24173 0.0
C490 C 0.39277 0.49476 0.22631 0.0
C491 C 0.37576 0.52527 0.22486 0.0
C492 C 0.42751 0.49557 0.25474 0.0
C493 C 0.39527 0.48346 0.18109 0.0
C494 C 0.37579 0.4582 0.17177 0.0
C495 C 0.37734 0.44153 0.13442 0.0
C496 C 0.40027 0.45021 0.10677 0.0
C497 C 0.42106 0.47547 0.11636 0.0
C498 C 0.41764 0.49287 0.15312 0.0
H499 H 0.15829 0.90194 0.8275 0.0
H500 H 0.0764 0.83784 0.81435 0.0
H501 H 0.05206 0.86104 0.74515 0.0
H502 H 0.10993 0.96359 0.78933 0.0
H503 H 0.14208 0.97972 0.76161 0.0
H504 H 0.15383 0.95648 0.80791 0.0
H505 H 0.18743 0.9227 0.76215 0.0
H506 H 0.17553 0.94578 0.71555 0.0
H507 H 0.16647 0.90658 0.71255 0.0
H508 H 0.03421 0.89466 0.68015 0.0
H509 H 0.02486 0.93521 0.62646 0.0
H510 H 0.11988 0.97544 0.68225 0.0
C511 C 0.13529 0.8927 0.81001 0.0
C512 C 0.11917 0.86816 0.82634 0.0
C513 C 0.0893 0.85652 0.80223 0.0
C514 C 0.0753 0.86956 0.76295 0.0
C515 C 0.09173 0.89396 0.74795 0.0
C516 C 0.12121 0.90524 0.77073 0.0
C517 C 0.1334 0.93225 0.74885 0.0
C518 C 0.13487 0.95962 0.77869 0.0
C519 C 0.16774 0.92647 0.73389 0.0
C520 C 0.10575 0.93496 0.71074 0.0
C521 C 0.08196 0.91265 0.71044 0.0
C522 C 0.05298 0.91196 0.67974 0.0
C523 C 0.0479 0.93504 0.64926 0.0
C524 C 0.07172 0.95844 0.64982 0.0
C525 C 0.10133 0.95777 0.68042 0.0
loop_
_geom_bond_atom_site_label_1
_geom_bond_atom_site_label_2
_geom_bond_distance
_geom_bond_site_symmetry_2
_ccdc_geom_bond_type
C0 C1 1.264 . S
C0 C5 1.479 . S
C0 C10 1.465 . S
C1 C0 1.264 . S
C1 C3 1.339 . S
C1 H28 0.931 . S
C2 C3 1.395 . S
C2 C4 1.320 . S
C3 C1 1.339 . S
C3 C2 1.395 . S
C3 H29 0.929 . S
C4 C2 1.320 . S
C4 C5 1.405 . S
C4 H30 0.930 . S
C5 C0 1.479 . S
C5 C4 1.405 . S
C5 H31 0.931 . S
U6 O7 2.454 . S
U6 O8 2.458 . S
U6 C9 2.984 . S
U6 C10 2.847 . S
U6 C23 2.882 . S
U6 O24 2.441 . S
U6 O25 2.420 . S
U6 O26 2.455 . S
U6 O27 2.449 . S
O7 U6 2.454 . S
O7 C9 1.353 . S
O8 U6 2.458 . S
O8 C9 1.286 . S
C9 U6 2.984 . S
C9 O7 1.353 . S
C9 O8 1.286 . S
C9 C11 1.363 . S
C10 C0 1.465 . S
C10 U6 2.847 . S
C10 O24 1.249 . S
C10 O25 1.202 . S
C11 C9 1.363 . S
C11 C13 1.408 . S
C11 C16 1.342 . S
C12 C13 1.310 . S
C12 C15 1.461 . S
C12 H32 0.932 . S
C13 C11 1.408 . S
C13 C12 1.310 . S
C13 H33 0.930 . S
C14 C15 1.474 . S
C14 C16 1.285 . S
C14 H34 0.929 . S
C15 C12 1.461 . S
C15 C14 1.474 . S
C16 C11 1.342 . S
C16 C14 1.285 . S
C16 H35 0.930 . S
C17 C20 1.424 . S
C17 C22 1.245 . S
C17 C23 1.428 1_556 S
C18 C21 1.260 . S
C18 C22 1.477 . S
C18 H36 0.932 . S
C19 C20 1.384 . S
C19 C21 1.479 . S
C19 H37 0.929 . S
C20 C17 1.424 . S
C20 C19 1.384 . S
C20 H38 0.928 1_556 S
C21 C18 1.260 . S
C21 C19 1.479 . S
C22 C17 1.245 . S
C22 C18 1.477 . S
C22 H39 0.932 . S
C23 U6 2.882 . S
C23 C17 1.428 1_554 S
C23 O26 1.301 . S
C23 O27 1.282 . S
O24 U6 2.441 . S
O24 C10 1.249 . S
O25 U6 2.420 . S
O25 C10 1.202 . S
O26 U6 2.455 . S
O26 C23 1.301 . S
O27 U6 2.449 . S
O27 C23 1.282 . S
H28 C1 0.931 . S
H29 C3 0.929 . S
H30 C4 0.930 . S
H31 C5 0.931 . S
H32 C12 0.932 . S
H33 C13 0.930 . S
H34 C14 0.929 . S
H35 C16 0.930 . S
H36 C18 0.932 . S
H37 C19 0.929 . S
H38 C20 0.928 1_554 S
H39 C22 0.932 . S
C40 C41 1.264 . S
C40 C45 1.479 . S
C40 C50 1.465 . S
C41 C40 1.264 . S
C41 C43 1.339 . S
C41 H68 0.931 . S
C42 C43 1.395 . S
C42 C44 1.320 . S
C43 C41 1.339 . S
C43 C42 1.395 . S
C43 H69 0.929 . S
C44 C42 1.320 . S
C44 C45 1.405 . S
C44 H70 0.930 . S
C45 C40 1.479 . S
C45 C44 1.405 . S
C45 H71 0.931 . S
U46 O47 2.454 . S
U46 O48 2.458 . S
U46 C49 2.984 . S
U46 C50 2.847 . S
U46 C63 2.882 . S
U46 O64 2.441 . S
U46 O65 2.420 . S
U46 O66 2.455 . S
U46 O67 2.449 . S
O47 U46 2.454 . S
O47 C49 1.353 . S
O48 U46 2.458 . S
O48 C49 1.286 . S
C49 U46 2.984 . S
C49 O47 1.353 . S
C49 O48 1.286 . S
C49 C51 1.363 . S
C50 C40 1.465 . S
C50 U46 2.847 . S
C50 O64 1.249 . S
C50 O65 1.202 . S
C51 C49 1.363 . S
C51 C53 1.408 . S
C51 C56 1.342 . S
C52 C53 1.310 . S
C52 C55 1.461 . S
C52 H72 0.932 . S
C53 C51 1.408 . S
C53 C52 1.310 . S
C53 H73 0.930 . S
C54 C55 1.474 . S
C54 C56 1.285 . S
C54 H74 0.929 . S
C55 C52 1.461 . S
C55 C54 1.474 . S
C56 C51 1.342 . S
C56 C54 1.285 . S
C56 H75 0.930 . S
C57 C60 1.424 . S
C57 C62 1.245 . S
C57 C63 1.428 . S
C58 C61 1.260 . S
C58 C62 1.477 . S
C58 H76 0.932 . S
C59 C60 1.384 . S
C59 C61 1.479 . S
C59 H77 0.929 . S
C60 C57 1.424 . S
C60 C59 1.384 . S
C60 H78 0.928 . S
C61 C58 1.260 . S
C61 C59 1.479 . S
C62 C57 1.245 . S
C62 C58 1.477 . S
C62 H79 0.932 . S
C63 U46 2.882 . S
C63 C57 1.428 . S
C63 O66 1.301 . S
C63 O67 1.282 . S
O64 U46 2.441 . S
O64 C50 1.249 . S
O65 U46 2.420 . S
O65 C50 1.202 . S
O66 U46 2.455 . S
O66 C63 1.301 . S
O67 U46 2.449 . S
O67 C63 1.282 . S
H68 C41 0.931 . S
H69 C43 0.929 . S
H70 C44 0.930 . S
H71 C45 0.931 . S
H72 C52 0.932 . S
H73 C53 0.930 . S
H74 C54 0.929 . S
H75 C56 0.930 . S
H76 C58 0.932 . S
H77 C59 0.929 . S
H78 C60 0.928 . S
H79 C62 0.932 . S
C80 C81 1.264 . S
C80 C85 1.479 . S
C80 C90 1.465 . S
C81 C80 1.264 . S
C81 C83 1.339 . S
C81 H108 0.931 . S
C82 C83 1.395 . S
C82 C84 1.320 . S
C83 C81 1.339 . S
C83 C82 1.395 . S
C83 H109 0.929 . S
C84 C82 1.320 . S
C84 C85 1.405 . S
C84 H110 0.930 . S
C85 C80 1.479 . S
C85 C84 1.405 . S
C85 H111 0.931 . S
U86 O87 2.454 . S
U86 O88 2.458 1_554 S
U86 C89 2.984 1_554 S
U86 C90 2.847 . S
U86 C103 2.882 1_554 S
U86 O104 2.441 . S
U86 O105 2.420 . S
U86 O106 2.455 1_554 S
U86 O107 2.449 1_554 S
O87 U86 2.454 . S
O87 C89 1.353 1_554 S
O88 U86 2.458 1_556 S
O88 C89 1.286 . S
C89 U86 2.984 1_556 S
C89 O87 1.353 1_556 S
C89 O88 1.286 . S
C89 C91 1.363 . S
C90 C80 1.465 . S
C90 U86 2.847 . S
C90 O104 1.249 . S
C90 O105 1.202 . S
C91 C89 1.363 . S
C91 C93 1.408 1_556 S
C91 C96 1.342 . S
C92 C93 1.310 . S
C92 C95 1.461 1_554 S
C92 H112 0.932 . S
C93 C91 1.408 1_554 S
C93 C92 1.310 . S
C93 H113 0.930 . S
C94 C95 1.474 . S
C94 C96 1.285 . S
C94 H114 0.929 . S
C95 C92 1.461 1_556 S
C95 C94 1.474 . S
C96 C91 1.342 . S
C96 C94 1.285 . S
C96 H115 0.930 . S
C97 C100 1.424 . S
C97 C102 1.245 . S
C97 C103 1.428 . S
C98 C101 1.260 . S
C98 C102 1.477 . S
C98 H116 0.932 . S
C99 C100 1.384 . S
C99 C101 1.479 . S
C99 H117 0.929 . S
C100 C97 1.424 . S
C100 C99 1.384 . S
C100 H118 0.928 . S
C101 C98 1.260 . S
C101 C99 1.479 . S
C102 C97 1.245 . S
C102 C98 1.477 . S
C102 H119 0.932 . S
C103 U86 2.882 1_556 S
C103 C97 1.428 . S
C103 O106 1.301 . S
C103 O107 1.282 . S
O104 U86 2.441 . S
O104 C90 1.249 . S
O105 U86 2.420 . S
O105 C90 1.202 . S
O106 U86 2.455 1_556 S
O106 C103 1.301 . S
O107 U86 2.449 1_556 S
O107 C103 1.282 . S
H108 C81 0.931 . S
H109 C83 0.929 . S
H110 C84 0.930 . S
H111 C85 0.931 . S
H112 C92 0.932 . S
H113 C93 0.930 . S
H114 C94 0.929 . S
H115 C96 0.930 . S
H116 C98 0.932 . S
H117 C99 0.929 . S
H118 C100 0.928 . S
H119 C102 0.932 . S
C120 C121 1.264 . S
C120 C125 1.479 . S
C120 C130 1.465 . S
C121 C120 1.264 . S
C121 C123 1.339 . S
C121 H148 0.931 . S
C122 C123 1.395 . S
C122 C124 1.320 . S
C123 C121 1.339 . S
C123 C122 1.395 . S
C123 H149 0.929 . S
C124 C122 1.320 . S
C124 C125 1.405 . S
C124 H150 0.930 . S
C125 C120 1.479 . S
C125 C124 1.405 . S
C125 H151 0.931 . S
U126 O127 2.454 . S
U126 O128 2.458 . S
U126 C129 2.984 . S
U126 C130 2.847 . S
U126 C143 2.882 . S
U126 O144 2.441 . S
U126 O145 2.420 . S
U126 O146 2.455 . S
U126 O147 2.449 . S
O127 U126 2.454 . S
O127 C129 1.353 . S
O128 U126 2.458 . S
O128 C129 1.286 . S
C129 U126 2.984 . S
C129 O127 1.353 . S
C129 O128 1.286 . S
C129 C131 1.363 . S
C130 C120 1.465 . S
C130 U126 2.847 . S
C130 O144 1.249 . S
C130 O145 1.202 . S
C131 C129 1.363 . S
C131 C133 1.408 . S
C131 C136 1.342 . S
C132 C133 1.310 . S
C132 C135 1.461 . S
C132 H152 0.932 . S
C133 C131 1.408 . S
C133 C132 1.310 . S
C133 H153 0.930 . S
C134 C135 1.474 . S
C134 C136 1.285 . S
C134 H154 0.929 . S
C135 C132 1.461 . S
C135 C134 1.474 . S
C136 C131 1.342 . S
C136 C134 1.285 . S
C136 H155 0.930 . S
C137 C140 1.424 . S
C137 C142 1.245 . S
C137 C143 1.428 . S
C138 C141 1.260 . S
C138 C142 1.477 . S
C138 H156 0.932 . S
C139 C140 1.384 . S
C139 C141 1.479 . S
C139 H157 0.929 . S
C140 C137 1.424 . S
C140 C139 1.384 . S
C140 H158 0.928 . S
C141 C138 1.260 . S
C141 C139 1.479 . S
C142 C137 1.245 . S
C142 C138 1.477 . S
C142 H159 0.932 . S
C143 U126 2.882 . S
C143 C137 1.428 . S
C143 O146 1.301 . S
C143 O147 1.282 . S
O144 U126 2.441 . S
O144 C130 1.249 . S
O145 U126 2.420 . S
O145 C130 1.202 . S
O146 U126 2.455 . S
O146 C143 1.301 . S
O147 U126 2.449 . S
O147 C143 1.282 . S
H148 C121 0.931 . S
H149 C123 0.929 . S
H150 C124 0.930 . S
H151 C125 0.931 . S
H152 C132 0.932 . S
H153 C133 0.930 . S
H154 C134 0.929 . S
H155 C136 0.930 . S
H156 C138 0.932 . S
H157 C139 0.929 . S
H158 C140 0.928 . S
H159 C142 0.932 . S
O160 Mg161 1.990 1_655 S
O160 C174 1.253 . S
Mg161 O160 1.990 1_455 S
Mg161 O164 2.180 . S
Mg161 O165 2.117 . S
Mg161 O179 2.030 . S
O162 Mg163 2.072 1_655 S
O162 C174 1.260 . S
Mg163 O162 2.072 1_455 S
Mg163 O164 2.099 . S
Mg163 O166 2.079 1_545 S
Mg163 O167 2.072 1_455 S
Mg163 O169 2.099 1_445 S
Mg163 O180 2.079 1_545 S
O164 Mg161 2.180 . S
O164 Mg163 2.099 . S
O164 C175 1.279 . S
O165 Mg161 2.117 . S
O165 C175 1.250 . S
O166 Mg163 2.079 1_565 S
O166 C176 1.264 . S
O167 Mg163 2.072 1_655 S
O167 C177 1.260 . S
Mg168 O169 2.180 . S
Mg168 O170 2.030 1_655 S
Mg168 O171 1.990 1_565 S
Mg168 O172 2.117 . S
O169 Mg163 2.099 1_665 S
O169 Mg168 2.180 . S
O169 C178 1.279 . S
O170 Mg168 2.030 1_455 S
O170 C176 1.248 . S
O171 Mg168 1.990 1_545 S
O171 C177 1.253 . S
O172 Mg168 2.117 . S
O172 C178 1.250 . S
C173 O179 1.248 1_565 S
C173 O180 1.264 . S
C174 O160 1.253 . S
C174 O162 1.260 . S
C175 O164 1.279 . S
C175 O165 1.250 . S
C176 O166 1.264 . S
C176 O170 1.248 . S
C177 O167 1.260 . S
C177 O171 1.253 . S
C178 O169 1.279 . S
C178 O172 1.250 . S
O179 Mg161 2.030 . S
O179 C173 1.248 1_545 S
O180 Mg163 2.079 1_565 S
O180 C173 1.264 . S
O181 Mg182 1.990 . S
O181 C195 1.253 . S
Mg182 O181 1.990 . S
Mg182 O185 2.180 . S
Mg182 O186 2.117 . S
Mg182 O200 2.030 . S
O183 Mg184 2.072 . S
O183 C195 1.260 . S
Mg184 O183 2.072 . S
Mg184 O185 2.099 . S
Mg184 O187 2.079 1_554 S
Mg184 O188 2.072 1_554 S
Mg184 O190 2.099 . S
Mg184 O201 2.079 . S
O185 Mg182 2.180 . S
O185 Mg184 2.099 . S
O185 C196 1.279 . S
O186 Mg182 2.117 . S
O186 C196 1.250 . S
O187 Mg184 2.079 1_556 S
O187 C197 1.264 . S
O188 Mg184 2.072 1_556 S
O188 C198 1.260 . S
Mg189 O190 2.180 1_556 S
Mg189 O191 2.030 . S
Mg189 O192 1.990 . S
Mg189 O193 2.117 1_556 S
O190 Mg184 2.099 . S
O190 Mg189 2.180 1_554 S
O190 C199 1.279 . S
O191 Mg189 2.030 . S
O191 C197 1.248 . S
O192 Mg189 1.990 . S
O192 C198 1.253 . S
O193 Mg189 2.117 1_554 S
O193 C199 1.250 . S
C194 O200 1.248 . S
C194 O201 1.264 . S
C195 O181 1.253 . S
C195 O183 1.260 . S
C196 O185 1.279 . S
C196 O186 1.250 . S
C197 O187 1.264 . S
C197 O191 1.248 . S
C198 O188 1.260 . S
C198 O192 1.253 . S
C199 O190 1.279 . S
C199 O193 1.250 . S
O200 Mg182 2.030 . S
O200 C194 1.248 . S
O201 Mg184 2.079 . S
O201 C194 1.264 . S
H202 C214 0.930 . S
H203 C216 0.930 . S
H204 C217 0.930 . S
H205 C221 0.959 . S
H206 C221 0.959 . S
H207 C221 0.961 . S
H208 C222 0.960 . S
H209 C222 0.961 . S
H210 C222 0.959 . S
H211 C225 0.929 . S
H212 C226 0.931 . S
H213 C228 0.930 . S
C214 H202 0.930 . S
C214 C215 1.399 . S
C214 C219 1.399 . S
C215 C214 1.399 . S
C215 C216 1.376 . S
C216 H203 0.930 . S
C216 C215 1.376 . S
C216 C217 1.388 . S
C217 H204 0.930 . S
C217 C216 1.388 . S
C217 C218 1.390 . S
C218 C217 1.390 . S
C218 C219 1.394 . S
C218 C224 1.465 . S
C219 C214 1.399 . S
C219 C218 1.394 . S
C219 C220 1.516 . S
C220 C219 1.516 . S
C220 C221 1.502 . S
C220 C222 1.561 . S
C220 C223 1.526 . S
C221 H205 0.959 . S
C221 H206 0.959 . S
C221 H207 0.961 . S
C221 C220 1.502 . S
C222 H208 0.960 . S
C222 H209 0.961 . S
C222 H210 0.959 . S
C222 C220 1.561 . S
C223 C220 1.526 . S
C223 C224 1.396 . S
C223 C228 1.390 . S
C224 C218 1.465 . S
C224 C223 1.396 . S
C224 C225 1.399 . S
C225 H211 0.929 . S
C225 C224 1.399 . S
C225 C226 1.385 . S
C226 H212 0.931 . S
C226 C225 1.385 . S
C226 C227 1.389 . S
C227 C226 1.389 . S
C227 C228 1.387 . S
C228 H213 0.930 . S
C228 C223 1.390 . S
C228 C227 1.387 . S
H229 C241 0.930 . S
H230 C243 0.930 . S
H231 C244 0.943 . S
H232 C248 0.959 . S
H233 C248 0.959 . S
H234 C248 0.961 . S
H235 C249 0.960 . S
H236 C249 0.961 . S
H237 C249 0.959 . S
H238 C252 0.929 1_556 S
H239 C253 0.931 1_556 S
H240 C255 0.930 . S
C241 H229 0.930 . S
C241 C242 1.399 . S
C241 C246 1.399 . S
C242 C241 1.399 . S
C242 C243 1.376 . S
C243 H230 0.930 . S
C243 C242 1.376 . S
C243 C244 1.388 . S
C244 H231 0.943 . S
C244 C243 1.388 . S
C244 C245 1.390 . S
C245 C244 1.390 . S
C245 C246 1.394 . S
C245 C251 1.465 . S
C246 C241 1.399 . S
C246 C245 1.394 . S
C246 C247 1.516 . S
C247 C246 1.516 . S
C247 C248 1.502 . S
C247 C249 1.561 . S
C247 C250 1.526 . S
C248 H232 0.959 . S
C248 H233 0.959 . S
C248 H234 0.961 . S
C248 C247 1.502 . S
C249 H235 0.960 . S
C249 H236 0.961 . S
C249 H237 0.959 . S
C249 C247 1.561 . S
C250 C247 1.526 . S
C250 C251 1.396 . S
C250 C255 1.390 . S
C251 C245 1.465 . S
C251 C250 1.396 . S
C251 C252 1.399 . S
C252 H238 0.929 1_554 S
C252 C251 1.399 . S
C252 C253 1.385 . S
C253 H239 0.931 1_554 S
C253 C252 1.385 . S
C253 C254 1.389 . S
C254 C253 1.389 . S
C254 C255 1.387 . S
C255 H240 0.930 . S
C255 C250 1.390 . S
C255 C254 1.387 . S
H256 C268 0.930 . S
H257 C270 0.930 . S
H258 C271 0.930 . S
H259 C275 0.959 . S
H260 C275 0.959 . S
H261 C275 0.961 . S
H262 C276 0.960 . S
H263 C276 0.961 . S
H264 C276 0.959 . S
H265 C279 0.929 . S
H266 C280 0.931 . S
H267 C282 0.930 . S
C268 H256 0.930 . S
C268 C269 1.399 . S
C268 C273 1.399 . S
C269 C268 1.399 . S
C269 C270 1.376 . S
C270 H257 0.930 . S
C270 C269 1.376 . S
C270 C271 1.388 . S
C271 H258 0.930 . S
C271 C270 1.388 . S
C271 C272 1.390 . S
C272 C271 1.390 . S
C272 C273 1.394 . S
C272 C278 1.465 . S
C273 C268 1.399 . S
C273 C272 1.394 . S
C273 C274 1.516 . S
C274 C273 1.516 . S
C274 C275 1.502 . S
C274 C276 1.561 . S
C274 C277 1.526 . S
C275 H259 0.959 . S
C275 H260 0.959 . S
C275 H261 0.961 . S
C275 C274 1.502 . S
C276 H262 0.960 . S
C276 H263 0.961 . S
C276 H264 0.959 . S
C276 C274 1.561 . S
C277 C274 1.526 . S
C277 C278 1.396 . S
C277 C282 1.390 . S
C278 C272 1.465 . S
C278 C277 1.396 . S
C278 C279 1.399 . S
C279 H265 0.929 . S
C279 C278 1.399 . S
C279 C280 1.385 . S
C280 H266 0.931 . S
C280 C279 1.385 . S
C280 C281 1.389 . S
C281 C280 1.389 . S
C281 C282 1.387 . S
C282 H267 0.930 . S
C282 C277 1.390 . S
C282 C281 1.387 . S
H283 C295 0.930 . S
H284 C297 0.930 . S
H285 C298 0.930 . S
H286 C302 0.959 . S
H287 C302 0.959 . S
H288 C302 0.961 . S
H289 C303 0.960 . S
H290 C303 0.961 . S
H291 C303 0.959 . S
H292 C306 0.929 . S
H293 C307 0.931 . S
H294 C309 0.930 . S
C295 H283 0.930 . S
C295 C296 1.399 . S
C295 C300 1.399 . S
C296 C295 1.399 . S
C296 C297 1.376 1_556 S
C297 H284 0.930 . S
C297 C296 1.376 1_554 S
C297 C298 1.388 . S
C298 H285 0.930 . S
C298 C297 1.388 . S
C298 C299 1.390 . S
C299 C298 1.390 . S
C299 C300 1.394 1_554 S
C299 C305 1.465 . S
C300 C295 1.399 . S
C300 C299 1.394 1_556 S
C300 C301 1.516 . S
C301 C300 1.516 . S
C301 C302 1.502 . S
C301 C303 1.561 . S
C301 C304 1.526 . S
C302 H286 0.959 . S
C302 H287 0.959 . S
C302 H288 0.961 . S
C302 C301 1.502 . S
C303 H289 0.960 . S
C303 H290 0.961 . S
C303 H291 0.959 . S
C303 C301 1.561 . S
C304 C301 1.526 . S
C304 C305 1.396 1_556 S
C304 C309 1.390 . S
C305 C299 1.465 . S
C305 C304 1.396 1_554 S
C305 C306 1.399 . S
C306 H292 0.929 . S
C306 C305 1.399 . S
C306 C307 1.385 . S
C307 H293 0.931 . S
C307 C306 1.385 . S
C307 C308 1.389 . S
C308 C307 1.389 . S
C308 C309 1.387 1_554 S
C309 H294 0.930 . S
C309 C304 1.390 . S
C309 C308 1.387 1_556 S
H310 C322 0.930 . S
H311 C324 0.930 . S
H312 C325 0.930 . S
H313 C329 0.959 1_545 S
H314 C329 0.959 . S
H315 C329 0.961 . S
H316 C330 0.960 . S
H317 C330 0.961 . S
H318 C330 0.959 . S
H319 C333 0.929 . S
H320 C334 0.931 . S
H321 C336 0.930 . S
C322 H310 0.930 . S
C322 C323 1.399 . S
C322 C327 1.399 . S
C323 C322 1.399 . S
C323 C324 1.376 . S
C324 H311 0.930 . S
C324 C323 1.376 . S
C324 C325 1.388 . S
C325 H312 0.930 . S
C325 C324 1.388 . S
C325 C326 1.390 . S
C326 C325 1.390 . S
C326 C327 1.394 . S
C326 C332 1.465 . S
C327 C322 1.399 . S
C327 C326 1.394 . S
C327 C328 1.516 . S
C328 C327 1.516 . S
C328 C329 1.502 . S
C328 C330 1.561 . S
C328 C331 1.526 . S
C329 H313 0.959 1_565 S
C329 H314 0.959 . S
C329 H315 0.961 . S
C329 C328 1.502 . S
C330 H316 0.960 . S
C330 H317 0.961 . S
C330 H318 0.959 . S
C330 C328 1.561 . S
C331 C328 1.526 . S
C331 C332 1.396 . S
C331 C336 1.390 . S
C332 C326 1.465 . S
C332 C331 1.396 . S
C332 C333 1.399 . S
C333 H319 0.929 . S
C333 C332 1.399 . S
C333 C334 1.385 . S
C334 H320 0.931 . S
C334 C333 1.385 . S
C334 C335 1.389 . S
C335 C334 1.389 . S
C335 C336 1.387 . S
C336 H321 0.930 . S
C336 C331 1.390 . S
C336 C335 1.387 . S
H337 C349 0.930 . S
H338 C351 0.930 . S
H339 C352 0.930 . S
H340 C356 0.959 . S
H341 C356 0.959 . S
H342 C356 0.961 . S
H343 C357 0.960 . S
H344 C357 0.961 . S
H345 C357 0.959 . S
H346 C360 0.929 . S
H347 C361 0.931 . S
H348 C363 0.930 . S
C349 H337 0.930 . S
C349 C350 1.399 . S
C349 C354 1.399 . S
C350 C349 1.399 . S
C350 C351 1.376 . S
C351 H338 0.930 . S
C351 C350 1.376 . S
C351 C352 1.388 . S
C352 H339 0.930 . S
C352 C351 1.388 . S
C352 C353 1.390 . S
C353 C352 1.390 . S
C353 C354 1.394 . S
C353 C359 1.465 . S
C354 C349 1.399 . S
C354 C353 1.394 . S
C354 C355 1.516 . S
C355 C354 1.516 . S
C355 C356 1.502 . S
C355 C357 1.561 . S
C355 C358 1.526 . S
C356 H340 0.959 . S
C356 H341 0.959 . S
C356 H342 0.961 . S
C356 C355 1.502 . S
C357 H343 0.960 . S
C357 H344 0.961 . S
C357 H345 0.959 . S
C357 C355 1.561 . S
C358 C355 1.526 . S
C358 C359 1.396 . S
C358 C363 1.390 . S
C359 C353 1.465 . S
C359 C358 1.396 . S
C359 C360 1.399 . S
C360 H346 0.929 . S
C360 C359 1.399 . S
C360 C361 1.385 . S
C361 H347 0.931 . S
C361 C360 1.385 . S
C361 C362 1.389 . S
C362 C361 1.389 . S
C362 C363 1.387 . S
C363 H348 0.930 . S
C363 C358 1.390 . S
C363 C362 1.387 . S
H364 C376 0.930 . S
H365 C378 0.930 . S
H366 C379 0.930 . S
H367 C383 0.959 . S
H368 C383 0.959 1_565 S
H369 C383 0.960 . S
H370 C384 0.960 1_565 S
H371 C384 0.961 1_565 S
H372 C384 0.959 . S
H373 C387 0.929 . S
H374 C388 0.931 . S
H375 C390 0.930 . S
C376 H364 0.930 . S
C376 C377 1.399 . S
C376 C381 1.399 . S
C377 C376 1.399 . S
C377 C378 1.376 . S
C378 H365 0.930 . S
C378 C377 1.376 . S
C378 C379 1.388 . S
C379 H366 0.930 . S
C379 C378 1.388 . S
C379 C380 1.390 . S
C380 C379 1.390 . S
C380 C381 1.394 . S
C380 C386 1.465 . S
C381 C376 1.399 . S
C381 C380 1.394 . S
C381 C382 1.516 . S
C382 C381 1.516 . S
C382 C383 1.502 . S
C382 C384 1.561 . S
C382 C385 1.526 . S
C383 H367 0.959 . S
C383 H368 0.959 1_545 S
C383 H369 0.960 . S
C383 C382 1.502 . S
C384 H370 0.960 1_545 S
C384 H371 0.961 1_545 S
C384 H372 0.959 . S
C384 C382 1.561 . S
C385 C382 1.526 . S
C385 C386 1.396 . S
C385 C390 1.390 . S
C386 C380 1.465 . S
C386 C385 1.396 . S
C386 C387 1.399 . S
C387 H373 0.929 . S
C387 C386 1.399 . S
C387 C388 1.385 . S
C388 H374 0.931 . S
C388 C387 1.385 . S
C388 C389 1.389 . S
C389 C388 1.389 . S
C389 C390 1.387 . S
C390 H375 0.930 . S
C390 C385 1.390 . S
C390 C389 1.387 . S
H391 C403 0.930 . S
H392 C405 0.930 . S
H393 C406 0.930 . S
H394 C410 0.959 . S
H395 C410 0.959 . S
H396 C410 0.961 . S
H397 C411 0.960 . S
H398 C411 0.961 . S
H399 C411 0.959 . S
H400 C414 0.929 . S
H401 C415 0.931 . S
H402 C417 0.930 . S
C403 H391 0.930 . S
C403 C404 1.399 . S
C403 C408 1.399 . S
C404 C403 1.399 . S
C404 C405 1.376 . S
C405 H392 0.930 . S
C405 C404 1.376 . S
C405 C406 1.388 . S
C406 H393 0.930 . S
C406 C405 1.388 . S
C406 C407 1.390 . S
C407 C406 1.390 . S
C407 C408 1.394 . S
C407 C413 1.465 . S
C408 C403 1.399 . S
C408 C407 1.394 . S
C408 C409 1.516 . S
C409 C408 1.516 . S
C409 C410 1.502 . S
C409 C411 1.561 . S
C409 C412 1.526 . S
C410 H394 0.959 . S
C410 H395 0.959 . S
C410 H396 0.961 . S
C410 C409 1.502 . S
C411 H397 0.960 . S
C411 H398 0.961 . S
C411 H399 0.959 . S
C411 C409 1.561 . S
C412 C409 1.526 . S
C412 C413 1.396 . S
C412 C417 1.390 . S
C413 C407 1.465 . S
C413 C412 1.396 . S
C413 C414 1.399 . S
C414 H400 0.929 . S
C414 C413 1.399 . S
C414 C415 1.385 . S
C415 H401 0.931 . S
C415 C414 1.385 . S
C415 C416 1.389 . S
C416 C415 1.389 . S
C416 C417 1.387 . S
C417 H402 0.930 . S
C417 C412 1.390 . S
C417 C416 1.387 . S
H418 C430 0.930 . S
H419 C432 0.930 . S
H420 C433 0.930 . S
H421 C437 0.959 . S
H422 C437 0.959 . S
H423 C437 0.961 . S
H424 C438 0.960 . S
H425 C438 0.961 . S
H426 C438 0.959 . S
H427 C441 0.929 . S
H428 C442 0.931 . S
H429 C444 0.930 . S
C430 H418 0.930 . S
C430 C431 1.399 . S
C430 C435 1.399 . S
C431 C430 1.399 . S
C431 C432 1.376 . S
C432 H419 0.930 . S
C432 C431 1.376 . S
C432 C433 1.388 . S
C433 H420 0.930 . S
C433 C432 1.388 . S
C433 C434 1.390 . S
C434 C433 1.390 . S
C434 C435 1.394 . S
C434 C440 1.465 . S
C435 C430 1.399 . S
C435 C434 1.394 . S
C435 C436 1.516 . S
C436 C435 1.516 . S
C436 C437 1.502 . S
C436 C438 1.561 . S
C436 C439 1.526 . S
C437 H421 0.959 . S
C437 H422 0.959 . S
C437 H423 0.961 . S
C437 C436 1.502 . S
C438 H424 0.960 . S
C438 H425 0.961 . S
C438 H426 0.959 . S
C438 C436 1.561 . S
C439 C436 1.526 . S
C439 C440 1.396 . S
C439 C444 1.390 . S
C440 C434 1.465 . S
C440 C439 1.396 . S
C440 C441 1.399 . S
C441 H427 0.929 . S
C441 C440 1.399 . S
C441 C442 1.385 . S
C442 H428 0.931 . S
C442 C441 1.385 . S
C442 C443 1.389 . S
C443 C442 1.389 . S
C443 C444 1.387 . S
C444 H429 0.930 . S
C444 C439 1.390 . S
C444 C443 1.387 . S
H445 C457 0.930 . S
H446 C459 0.930 . S
H447 C460 0.930 . S
H448 C464 0.959 . S
H449 C464 0.959 . S
H450 C464 0.961 . S
H451 C465 0.960 . S
H452 C465 0.961 1_565 S
H453 C465 0.959 . S
H454 C468 0.929 . S
H455 C469 0.931 . S
H456 C471 0.930 . S
C457 H445 0.930 . S
C457 C458 1.399 . S
C457 C462 1.399 . S
C458 C457 1.399 . S
C458 C459 1.376 . S
C459 H446 0.930 . S
C459 C458 1.376 . S
C459 C460 1.388 . S
C460 H447 0.930 . S
C460 C459 1.388 . S
C460 C461 1.390 . S
C461 C460 1.390 . S
C461 C462 1.394 . S
C461 C467 1.465 . S
C462 C457 1.399 . S
C462 C461 1.394 . S
C462 C463 1.516 . S
C463 C462 1.516 . S
C463 C464 1.502 . S
C463 C465 1.561 . S
C463 C466 1.526 . S
C464 H448 0.959 . S
C464 H449 0.959 . S
C464 H450 0.961 . S
C464 C463 1.502 . S
C465 H451 0.960 . S
C465 H452 0.961 1_545 S
C465 H453 0.959 . S
C465 C463 1.561 . S
C466 C463 1.526 . S
C466 C467 1.396 . S
C466 C471 1.390 . S
C467 C461 1.465 . S
C467 C466 1.396 . S
C467 C468 1.399 . S
C468 H454 0.929 . S
C468 C467 1.399 . S
C468 C469 1.385 . S
C469 H455 0.931 . S
C469 C468 1.385 . S
C469 C470 1.389 . S
C470 C469 1.389 . S
C470 C471 1.387 . S
C471 H456 0.930 . S
C471 C466 1.390 . S
C471 C470 1.387 . S
H472 C484 0.930 . S
H473 C486 0.930 . S
H474 C487 0.930 . S
H475 C491 0.959 . S
H476 C491 0.959 . S
H477 C491 0.961 . S
H478 C492 0.960 . S
H479 C492 0.961 . S
H480 C492 0.959 . S
H481 C495 0.929 . S
H482 C496 0.931 . S
H483 C498 0.930 . S
C484 H472 0.930 . S
C484 C485 1.399 . S
C484 C489 1.399 . S
C485 C484 1.399 . S
C485 C486 1.376 . S
C486 H473 0.930 . S
C486 C485 1.376 . S
C486 C487 1.388 . S
C487 H474 0.930 . S
C487 C486 1.388 . S
C487 C488 1.390 . S
C488 C487 1.390 . S
C488 C489 1.394 . S
C488 C494 1.465 . S
C489 C484 1.399 . S
C489 C488 1.394 . S
C489 C490 1.516 . S
C490 C489 1.516 . S
C490 C491 1.502 . S
C490 C492 1.561 . S
C490 C493 1.526 . S
C491 H475 0.959 . S
C491 H476 0.959 . S
C491 H477 0.961 . S
C491 C490 1.502 . S
C492 H478 0.960 . S
C492 H479 0.961 . S
C492 H480 0.959 . S
C492 C490 1.561 . S
C493 C490 1.526 . S
C493 C494 1.396 . S
C493 C498 1.390 . S
C494 C488 1.465 . S
C494 C493 1.396 . S
C494 C495 1.399 . S
C495 H481 0.929 . S
C495 C494 1.399 . S
C495 C496 1.385 . S
C496 H482 0.931 . S
C496 C495 1.385 . S
C496 C497 1.389 . S
C497 C496 1.389 . S
C497 C498 1.387 . S
C498 H483 0.930 . S
C498 C493 1.390 . S
C498 C497 1.387 . S
H499 C511 0.930 . S
H500 C513 0.930 . S
H501 C514 0.930 1_545 S
H502 C518 0.959 . S
H503 C518 0.959 . S
H504 C518 0.961 . S
H505 C519 0.960 . S
H506 C519 0.961 . S
H507 C519 0.959 . S
H508 C522 0.944 . S
H509 C523 0.931 . S
H510 C525 0.930 . S
C511 H499 0.930 . S
C511 C512 1.399 . S
C511 C516 1.399 . S
C512 C511 1.399 . S
C512 C513 1.376 . S
C513 H500 0.930 . S
C513 C512 1.376 . S
C513 C514 1.388 . S
C514 H501 0.930 1_565 S
C514 C513 1.388 . S
C514 C515 1.390 . S
C515 C514 1.390 . S
C515 C516 1.394 . S
C515 C521 1.465 . S
C516 C511 1.399 . S
C516 C515 1.394 . S
C516 C517 1.516 . S
C517 C516 1.516 . S
C517 C518 1.502 . S
C517 C519 1.561 . S
C517 C520 1.526 . S
C518 H502 0.959 . S
C518 H503 0.959 . S
C518 H504 0.961 . S
C518 C517 1.502 . S
C519 H505 0.960 . S
C519 H506 0.961 . S
C519 H507 0.959 . S
C519 C517 1.561 . S
C520 C517 1.526 . S
C520 C521 1.396 . S
C520 C525 1.390 . S
C521 C515 1.465 . S
C521 C520 1.396 . S
C521 C522 1.383 1_565 S
C522 H508 0.944 . S
C522 C521 1.383 1_545 S
C522 C523 1.386 . S
C523 H509 0.931 . S
C523 C522 1.386 . S
C523 C524 1.389 1_545 S
C524 C523 1.389 1_565 S
C524 C525 1.387 . S
C525 H510 0.930 . S
C525 C520 1.390 . S
C525 C524 1.387 . S
C227 C175 1.327 . S
C215 C135 1.528 . S
C242 C15 1.524 . S
C254 C199 1.325 . S
C269 C55 1.663 . S
C281 C178 1.539 . S
C296 C95 1.697 . S
C308 C196 1.448 . S
C335 C176 1.654 . S
C323 C2 1.659 . S
C362 C198 1.585 . S
C350 C42 1.596 . S
C377 C82 1.589 . S
C389 C177 1.551 . S
C404 C141 1.632 . S
C416 C197 1.502 . S
C443 C195 1.491 . S
C431 C61 1.600 . S
C470 C174 1.620 . S
C458 C101 1.672 . S
C497 C194 1.644 . S
C485 C122 1.668 . S
C512 C21 1.654 . S
C524 C173 1.542 . S
