# Generated by pormake.
# Topology ocu, (6,8)-cn, num edge types: 1
# Building blocks:
#     Node 0, Type 0, BuildingBlock: KUMBUR_clean_sbu_1, # of connection points: 6
#     Node 1, Type 0, BuildingBlock: KUMBUR_clean_sbu_1, # of connection points: 6
#     Node 2, Type 0, BuildingBlock: KUMBUR_clean_sbu_1, # of connection points: 6
#     Node 3, Type 0, BuildingBlock: KUMBUR_clean_sbu_1, # of connection points: 6
#     Node 4, Type 0, BuildingBlock: KUMBUR_clean_sbu_1, # of connection points: 6
#     Node 5, Type 0, BuildingBlock: KUMBUR_clean_sbu_1, # of connection points: 6
#     Node 6, Type 0, BuildingBlock: KUMBUR_clean_sbu_1, # of connection points: 6
#     Node 7, Type 0, BuildingBlock: KUMBUR_clean_sbu_1, # of connection points: 6
#     Node 8, Type 1, BuildingBlock: GIZVER_clean_sbu_0, # of connection points: 8
#     Node 9, Type 1, BuildingBlock: GIZVER_clean_sbu_0, # of connection points: 8
#     Node 10, Type 1, BuildingBlock: GIZVER_clean_sbu_0, # of connection points: 8
#     Node 11, Type 1, BuildingBlock: GIZVER_clean_sbu_0, # of connection points: 8
#     Node 12, Type 1, BuildingBlock: GIZVER_clean_sbu_0, # of connection points: 8
#     Node 13, Type 1, BuildingBlock: GIZVER_clean_sbu_0, # of connection points: 8
#     Edge 14, Type (0, 1), BuildingBlock: KIFKEQ_clean_linker_1, # of connection points: 2
#     Edge 15, Type (0, 1), BuildingBlock: KIFKEQ_clean_linker_1, # of connection points: 2
#     Edge 16, Type (0, 1), BuildingBlock: KIFKEQ_clean_linker_1, # of connection points: 2
#     Edge 17, Type (0, 1), BuildingBlock: KIFKEQ_clean_linker_1, # of connection points: 2
#     Edge 18, Type (0, 1), BuildingBlock: KIFKEQ_clean_linker_1, # of connection points: 2
#     Edge 19, Type (0, 1), BuildingBlock: KIFKEQ_clean_linker_1, # of connection points: 2
#     Edge 20, Type (0, 1), BuildingBlock: KIFKEQ_clean_linker_1, # of connection points: 2
#     Edge 21, Type (0, 1), BuildingBlock: KIFKEQ_clean_linker_1, # of connection points: 2
#     Edge 22, Type (0, 1), BuildingBlock: KIFKEQ_clean_linker_1, # of connection points: 2
#     Edge 23, Type (0, 1), BuildingBlock: KIFKEQ_clean_linker_1, # of connection points: 2
#     Edge 24, Type (0, 1), BuildingBlock: KIFKEQ_clean_linker_1, # of connection points: 2
#     Edge 25, Type (0, 1), BuildingBlock: KIFKEQ_clean_linker_1, # of connection points: 2
#     Edge 26, Type (0, 1), BuildingBlock: KIFKEQ_clean_linker_1, # of connection points: 2
#     Edge 27, Type (0, 1), BuildingBlock: KIFKEQ_clean_linker_1, # of connection points: 2
#     Edge 28, Type (0, 1), BuildingBlock: KIFKEQ_clean_linker_1, # of connection points: 2
#     Edge 29, Type (0, 1), BuildingBlock: KIFKEQ_clean_linker_1, # of connection points: 2
#     Edge 30, Type (0, 1), BuildingBlock: KIFKEQ_clean_linker_1, # of connection points: 2
#     Edge 31, Type (0, 1), BuildingBlock: KIFKEQ_clean_linker_1, # of connection points: 2
#     Edge 32, Type (0, 1), BuildingBlock: KIFKEQ_clean_linker_1, # of connection points: 2
#     Edge 33, Type (0, 1), BuildingBlock: KIFKEQ_clean_linker_1, # of connection points: 2
#     Edge 34, Type (0, 1), BuildingBlock: KIFKEQ_clean_linker_1, # of connection points: 2
#     Edge 35, Type (0, 1), BuildingBlock: KIFKEQ_clean_linker_1, # of connection points: 2
#     Edge 36, Type (0, 1), BuildingBlock: KIFKEQ_clean_linker_1, # of connection points: 2
#     Edge 37, Type (0, 1), BuildingBlock: KIFKEQ_clean_linker_1, # of connection points: 2
#     Edge 38, Type (0, 1), BuildingBlock: KIFKEQ_clean_linker_1, # of connection points: 2
#     Edge 39, Type (0, 1), BuildingBlock: KIFKEQ_clean_linker_1, # of connection points: 2
#     Edge 40, Type (0, 1), BuildingBlock: KIFKEQ_clean_linker_1, # of connection points: 2
#     Edge 41, Type (0, 1), BuildingBlock: KIFKEQ_clean_linker_1, # of connection points: 2
#     Edge 42, Type (0, 1), BuildingBlock: KIFKEQ_clean_linker_1, # of connection points: 2
#     Edge 43, Type (0, 1), BuildingBlock: KIFKEQ_clean_linker_1, # of connection points: 2
#     Edge 44, Type (0, 1), BuildingBlock: KIFKEQ_clean_linker_1, # of connection points: 2
#     Edge 45, Type (0, 1), BuildingBlock: KIFKEQ_clean_linker_1, # of connection points: 2
#     Edge 46, Type (0, 1), BuildingBlock: KIFKEQ_clean_linker_1, # of connection points: 2
#     Edge 47, Type (0, 1), BuildingBlock: KIFKEQ_clean_linker_1, # of connection points: 2
#     Edge 48, Type (0, 1), BuildingBlock: KIFKEQ_clean_linker_1, # of connection points: 2
#     Edge 49, Type (0, 1), BuildingBlock: KIFKEQ_clean_linker_1, # of connection points: 2
#     Edge 50, Type (0, 1), BuildingBlock: KIFKEQ_clean_linker_1, # of connection points: 2
#     Edge 51, Type (0, 1), BuildingBlock: KIFKEQ_clean_linker_1, # of connection points: 2
#     Edge 52, Type (0, 1), BuildingBlock: KIFKEQ_clean_linker_1, # of connection points: 2
#     Edge 53, Type (0, 1), BuildingBlock: KIFKEQ_clean_linker_1, # of connection points: 2
#     Edge 54, Type (0, 1), BuildingBlock: KIFKEQ_clean_linker_1, # of connection points: 2
#     Edge 55, Type (0, 1), BuildingBlock: KIFKEQ_clean_linker_1, # of connection points: 2
#     Edge 56, Type (0, 1), BuildingBlock: KIFKEQ_clean_linker_1, # of connection points: 2
#     Edge 57, Type (0, 1), BuildingBlock: KIFKEQ_clean_linker_1, # of connection points: 2
#     Edge 58, Type (0, 1), BuildingBlock: KIFKEQ_clean_linker_1, # of connection points: 2
#     Edge 59, Type (0, 1), BuildingBlock: KIFKEQ_clean_linker_1, # of connection points: 2
#     Edge 60, Type (0, 1), BuildingBlock: KIFKEQ_clean_linker_1, # of connection points: 2
#     Edge 61, Type (0, 1), BuildingBlock: KIFKEQ_clean_linker_1, # of connection points: 2
# Relax obj value: 0.163
# Max RMSD: 0.210
# Mean RMSD: 0.171
data_MOF--net-ocu--node1-KUMBUR_clean_sbu_1--node2-GIZVER_clean_sbu_0--edge1-KIFKEQ_clean_linker_1
_symmetry_space_group_name_H-M    P1
_symmetry_Int_Tables_number       1
_symmetry_cell_setting            triclinic
loop_
_symmetry_equiv_pos_as_xyz
'x, y, z'
_cell_length_a     43.068196
_cell_length_b     45.06808
_cell_length_c     35.485117
_cell_angle_alpha  101.26415
_cell_angle_beta   79.288438
_cell_angle_gamma 111.60509
loop_
_atom_site_label
_atom_site_type_symbol
_atom_site_fract_x
_atom_site_fract_y
_atom_site_fract_z
_atom_type_partial_charge
Tb0 Tb 0.27133 0.26647 0.21319 0.0
C1 C 0.34558 0.3619 0.348 0.0
N2 N 0.36018 0.34937 0.31452 0.0
C3 C 0.40385 0.40071 0.30962 0.0
C4 C 0.35938 0.3946 0.36341 0.0
C5 C 0.38925 0.36809 0.29554 0.0
C6 C 0.38878 0.41409 0.3436 0.0
C7 C 0.30091 0.35359 0.40196 0.0
C8 C 0.31663 0.34171 0.36693 0.0
C9 C 0.31437 0.38624 0.41728 0.0
C10 C 0.34352 0.4067 0.39804 0.0
Tb11 Tb 0.33338 0.29621 0.29381 0.0
N12 N 0.30388 0.31039 0.35068 0.0
C13 C 0.27233 0.3322 0.42066 0.0
C14 C 0.2773 0.2891 0.37003 0.0
C15 C 0.26076 0.29973 0.40487 0.0
H16 H 0.40168 0.35769 0.27013 0.0
H17 H 0.23936 0.28277 0.41978 0.0
H18 H 0.20555 0.20423 0.24294 0.0
H19 H 0.36116 0.27768 0.08362 0.0
H20 H 0.26919 0.26385 0.35944 0.0
H21 H 0.2595 0.34034 0.44768 0.0
H22 H 0.33486 0.29735 0.14615 0.0
H23 H 0.42688 0.41545 0.29442 0.0
H24 H 0.30256 0.39586 0.4441 0.0
H25 H 0.3537 0.43179 0.4103 0.0
H26 H 0.1799 0.14644 0.21992 0.0
H27 H 0.4002 0.43935 0.35449 0.0
H28 H 0.33831 0.22034 0.05569 0.0
N29 N 0.2446 0.21265 0.19543 0.0
C30 C 0.25715 0.20004 0.16054 0.0
C31 C 0.20181 0.16118 0.20311 0.0
C32 C 0.24273 0.16723 0.14583 0.0
C33 C 0.21686 0.19389 0.21646 0.0
C34 C 0.21486 0.14775 0.16773 0.0
N35 N 0.29902 0.25136 0.15558 0.0
C36 C 0.32538 0.27216 0.13532 0.0
C37 C 0.29885 0.20786 0.10358 0.0
C38 C 0.28494 0.22011 0.13968 0.0
C39 C 0.32688 0.22879 0.08354 0.0
C40 C 0.34 0.26113 0.09935 0.0
H41 H 0.20306 0.12241 0.15744 0.0
H42 H 0.24581 0.12978 0.09811 0.0
H43 H 0.29489 0.16534 0.06112 0.0
O44 O 0.26315 0.29771 0.18198 0.0
O45 O 0.30607 0.23933 0.21087 0.0
O46 O 0.35316 0.27531 0.23736 0.0
O47 O 0.22513 0.25212 0.1914 0.0
O48 O 0.31016 0.31498 0.21364 0.0
O49 O 0.35563 0.31332 0.23806 0.0
O50 O 0.33899 0.26292 0.3238 0.0
O51 O 0.2999 0.32436 0.29425 0.0
O52 O 0.25192 0.28866 0.26939 0.0
O53 O 0.37995 0.30673 0.3138 0.0
O54 O 0.29572 0.24735 0.29017 0.0
O55 O 0.24998 0.25112 0.26969 0.0
C56 C 0.338 0.24797 0.21611 0.0
C57 C 0.20653 0.29459 0.18962 0.0
C58 C 0.17699 0.32674 0.17428 0.0
C59 C 0.15875 0.32542 0.21152 0.0
C60 C 0.18761 0.293 0.22641 0.0
C61 C 0.16395 0.30846 0.23731 0.0
C62 C 0.20086 0.31116 0.16343 0.0
C63 C 0.34257 0.32579 0.21709 0.0
C64 C 0.23219 0.27912 0.17838 0.0
C65 C 0.25655 0.15493 0.10987 0.0
C66 C 0.2845 0.17519 0.08879 0.0
C67 C 0.2676 0.31579 0.29075 0.0
C68 C 0.37761 0.28396 0.3697 0.0
C69 C 0.39628 0.26323 0.41695 0.0
C70 C 0.39094 0.28797 0.44539 0.0
C71 C 0.37287 0.30862 0.39846 0.0
C72 C 0.38956 0.26144 0.37901 0.0
C73 C 0.37945 0.31054 0.43609 0.0
C74 C 0.26328 0.23713 0.2881 0.0
C75 C 0.3696 0.28074 0.33012 0.0
H76 H 0.14022 0.33723 0.22049 0.0
H77 H 0.19107 0.27967 0.24658 0.0
H78 H 0.14959 0.3073 0.2658 0.0
H79 H 0.2154 0.31242 0.13498 0.0
H80 H 0.3961 0.29014 0.47474 0.0
H81 H 0.36414 0.3264 0.39195 0.0
H82 H 0.39306 0.24223 0.35688 0.0
H83 H 0.37566 0.32963 0.45814 0.0
Tb84 Tb 0.76354 0.30222 0.26926 0.0
C85 C 0.87445 0.24957 0.1702 0.0
N86 N 0.84448 0.23305 0.18925 0.0
C87 C 0.83462 0.19135 0.13459 0.0
C88 C 0.88523 0.23824 0.13198 0.0
C89 C 0.8253 0.20345 0.17269 0.0
C90 C 0.86447 0.20906 0.1139 0.0
C91 C 0.92765 0.29378 0.17271 0.0
C92 C 0.89535 0.27683 0.19012 0.0
C93 C 0.93798 0.28355 0.134 0.0
C94 C 0.91679 0.25581 0.11365 0.0
Tb95 Tb 0.83084 0.2564 0.25043 0.0
N96 N 0.8843 0.28605 0.22731 0.0
C97 C 0.94879 0.31992 0.19511 0.0
C98 C 0.9057 0.30987 0.25022 0.0
C99 C 0.93796 0.32764 0.23424 0.0
H100 H 0.8029 0.1889 0.1889 0.0
H101 H 0.95448 0.34716 0.25211 0.0
H102 H 0.78323 0.34307 0.3549 0.0
H103 H 0.64891 0.21007 0.22427 0.0
H104 H 0.89745 0.31559 0.28052 0.0
H105 H 0.97381 0.33363 0.18282 0.0
H106 H 0.70514 0.25081 0.21403 0.0
H107 H 0.81898 0.16818 0.12139 0.0
H108 H 0.96258 0.29642 0.11988 0.0
H109 H 0.9254 0.24767 0.08415 0.0
H110 H 0.75654 0.34347 0.42273 0.0
H111 H 0.87181 0.19947 0.08454 0.0
H112 H 0.6197 0.20405 0.29078 0.0
N113 N 0.742 0.30407 0.33302 0.0
C114 C 0.70978 0.28408 0.34098 0.0
C115 C 0.74326 0.32641 0.40005 0.0
C116 C 0.69353 0.2835 0.37928 0.0
C117 C 0.75848 0.32588 0.36162 0.0
C118 C 0.71076 0.30495 0.40899 0.0
N119 N 0.71032 0.26471 0.27397 0.0
C120 C 0.69396 0.24693 0.24313 0.0
C121 C 0.66077 0.24134 0.31784 0.0
C122 C 0.69369 0.26331 0.31057 0.0
C123 C 0.64496 0.22131 0.28643 0.0
C124 C 0.66146 0.22447 0.24888 0.0
H125 H 0.69913 0.30531 0.43882 0.0
H126 H 0.64802 0.26042 0.41594 0.0
H127 H 0.61935 0.22346 0.36219 0.0
O128 O 0.72848 0.31753 0.25153 0.0
O129 O 0.7651 0.27015 0.30829 0.0
O130 O 0.77836 0.22929 0.2687 0.0
O131 O 0.76928 0.35156 0.28308 0.0
O132 O 0.76577 0.27234 0.21244 0.0
O133 O 0.78418 0.23256 0.22284 0.0
O134 O 0.84618 0.25285 0.30157 0.0
O135 O 0.84687 0.30252 0.22792 0.0
O136 O 0.79984 0.31144 0.21647 0.0
O137 O 0.84854 0.21858 0.2508 0.0
O138 O 0.82879 0.29137 0.30292 0.0
O139 O 0.81261 0.33075 0.28799 0.0
C140 C 0.7596 0.23925 0.29814 0.0
C141 C 0.73059 0.37312 0.26543 0.0
C142 C 0.69687 0.39403 0.23713 0.0
C143 C 0.70425 0.42142 0.26536 0.0
C144 C 0.73818 0.40084 0.29308 0.0
C145 C 0.72497 0.42484 0.29301 0.0
C146 C 0.71017 0.36994 0.23723 0.0
C147 C 0.76869 0.24358 0.20291 0.0
C148 C 0.74282 0.34702 0.26697 0.0
C149 C 0.66087 0.2614 0.38667 0.0
C150 C 0.64458 0.24031 0.35604 0.0
C151 C 0.83233 0.31585 0.21012 0.0
C152 C 0.8394 0.20095 0.31177 0.0
C153 C 0.85028 0.17028 0.35405 0.0
C154 C 0.81545 0.15614 0.36447 0.0
C155 C 0.80468 0.18616 0.32176 0.0
C156 C 0.86205 0.1927 0.32763 0.0
C157 C 0.79279 0.16391 0.34811 0.0
C158 C 0.83139 0.32171 0.30537 0.0
C159 C 0.85269 0.22668 0.28718 0.0
H160 H 0.69449 0.44044 0.26552 0.0
H161 H 0.75384 0.40372 0.31508 0.0
H162 H 0.73075 0.44612 0.31449 0.0
H163 H 0.70441 0.34873 0.21556 0.0
H164 H 0.80581 0.13874 0.38473 0.0
H165 H 0.78686 0.19201 0.30959 0.0
H166 H 0.88891 0.20428 0.3201 0.0
H167 H 0.76596 0.15276 0.35595 0.0
Tb168 Tb 0.78182 0.74946 0.29683 0.0
C169 C 0.87656 0.82053 0.16062 0.0
N170 N 0.86332 0.83421 0.19424 0.0
C171 C 0.91522 0.87898 0.1973 0.0
C172 C 0.90993 0.83543 0.1442 0.0
C173 C 0.88188 0.86341 0.21227 0.0
C174 C 0.9294 0.86483 0.16325 0.0
C175 C 0.8686 0.77723 0.10662 0.0
C176 C 0.85621 0.79182 0.14206 0.0
C177 C 0.90199 0.79173 0.0904 0.0
C178 C 0.92261 0.82074 0.10916 0.0
Tb179 Tb 0.8088 0.80616 0.21582 0.0
N180 N 0.82426 0.77808 0.15912 0.0
C181 C 0.84698 0.74861 0.0885 0.0
C182 C 0.8026 0.75114 0.14057 0.0
C183 C 0.81373 0.73571 0.10538 0.0
H184 H 0.87069 0.87526 0.23749 0.0
H185 H 0.79656 0.71403 0.09111 0.0
H186 H 0.71962 0.68166 0.26982 0.0
H187 H 0.79439 0.83409 0.42826 0.0
H188 H 0.77671 0.74163 0.15249 0.0
H189 H 0.85551 0.73662 0.06122 0.0
H190 H 0.81325 0.81157 0.36286 0.0
H191 H 0.92981 0.90207 0.21177 0.0
H192 H 0.91203 0.78082 0.06324 0.0
H193 H 0.94822 0.83178 0.09614 0.0
H194 H 0.66137 0.65263 0.29579 0.0
H195 H 0.95515 0.87707 0.15158 0.0
H196 H 0.73668 0.80786 0.45941 0.0
N197 N 0.72748 0.71988 0.3171 0.0
C198 C 0.71462 0.73112 0.35261 0.0
C199 C 0.67599 0.67482 0.31193 0.0
C200 C 0.68181 0.71457 0.36922 0.0
C201 C 0.70892 0.69174 0.29696 0.0
C202 C 0.66232 0.68632 0.34815 0.0
N203 N 0.76622 0.77439 0.35568 0.0
C204 C 0.78781 0.80056 0.37547 0.0
C205 C 0.72315 0.77051 0.4106 0.0
C206 C 0.73488 0.75888 0.37291 0.0
C207 C 0.74473 0.79814 0.43042 0.0
C208 C 0.77727 0.8131 0.41285 0.0
H209 H 0.63696 0.67293 0.35986 0.0
H210 H 0.6446 0.71397 0.41973 0.0
H211 H 0.6809 0.76284 0.45606 0.0
O212 O 0.82143 0.7467 0.32122 0.0
O213 O 0.75516 0.78514 0.30445 0.0
O214 O 0.78941 0.82786 0.27178 0.0
O215 O 0.77433 0.70717 0.31952 0.0
O216 O 0.83266 0.78622 0.29226 0.0
O217 O 0.83078 0.83006 0.26995 0.0
O218 O 0.77199 0.80738 0.1851 0.0
O219 O 0.83709 0.77266 0.21303 0.0
O220 O 0.79979 0.72822 0.2396 0.0
O221 O 0.81653 0.84889 0.19403 0.0
O222 O 0.7569 0.77098 0.2225 0.0
O223 O 0.76076 0.7272 0.24224 0.0
C224 C 0.76301 0.81484 0.29643 0.0
C225 C 0.80549 0.71453 0.37138 0.0
C226 C 0.83622 0.70403 0.41587 0.0
C227 C 0.80945 0.70408 0.4455 0.0
C228 C 0.77896 0.71401 0.40122 0.0
C229 C 0.7812 0.70926 0.43818 0.0
C230 C 0.83418 0.71007 0.37904 0.0
C231 C 0.84327 0.81748 0.29151 0.0
C232 C 0.80373 0.71857 0.33168 0.0
C233 C 0.66974 0.72639 0.40648 0.0
C234 C 0.69041 0.75421 0.42719 0.0
C235 C 0.82783 0.74201 0.21768 0.0
C236 C 0.79145 0.84226 0.13732 0.0
C237 C 0.76658 0.85592 0.08924 0.0
C238 C 0.79559 0.85688 0.06277 0.0
C239 C 0.82013 0.8436 0.11051 0.0
C240 C 0.7646 0.8478 0.12631 0.0
C241 C 0.82196 0.8505 0.07332 0.0
C242 C 0.74637 0.73974 0.22315 0.0
C243 C 0.7892 0.8365 0.17742 0.0
H244 H 0.80965 0.69897 0.47401 0.0
H245 H 0.75634 0.71672 0.39596 0.0
H246 H 0.76058 0.70878 0.46104 0.0
H247 H 0.85468 0.71079 0.3559 0.0
H248 H 0.79855 0.86358 0.03429 0.0
H249 H 0.84131 0.83987 0.11835 0.0
H250 H 0.74235 0.84622 0.14708 0.0
H251 H 0.84428 0.85169 0.05286 0.0
Tb252 Tb 0.2537 0.80689 0.27284 0.0
C253 C 0.3372 0.72703 0.29179 0.0
N254 N 0.3491 0.75828 0.2855 0.0
C255 C 0.38363 0.7723 0.33669 0.0
C256 C 0.34665 0.71743 0.32215 0.0
C257 C 0.37372 0.78046 0.30587 0.0
C258 C 0.36945 0.74079 0.34544 0.0
C259 C 0.30579 0.6713 0.26977 0.0
C260 C 0.3173 0.70428 0.26595 0.0
C261 C 0.31356 0.66172 0.30117 0.0
C262 C 0.33396 0.68476 0.32735 0.0
Tb263 Tb 0.32669 0.76916 0.23807 0.0
N264 N 0.30995 0.71458 0.23637 0.0
C265 C 0.28739 0.649 0.24149 0.0
C266 C 0.29361 0.69288 0.20759 0.0
C267 C 0.28177 0.65983 0.20992 0.0
H268 H 0.38614 0.8044 0.29823 0.0
H269 H 0.26831 0.64275 0.18738 0.0
H270 H 0.21977 0.78515 0.19054 0.0
H271 H 0.2947 0.92374 0.36084 0.0
H272 H 0.2893 0.70092 0.18304 0.0
H273 H 0.27812 0.62341 0.24329 0.0
H274 H 0.27162 0.8644 0.34953 0.0
H275 H 0.40249 0.79024 0.35335 0.0
H276 H 0.30461 0.63652 0.30494 0.0
H277 H 0.34055 0.67697 0.35083 0.0
H278 H 0.21809 0.81161 0.13664 0.0
H279 H 0.37735 0.73446 0.36912 0.0
H280 H 0.30271 0.95497 0.30745 0.0
N281 N 0.24751 0.82886 0.22306 0.0
C282 C 0.25955 0.86153 0.22655 0.0
C283 C 0.23016 0.82592 0.1616 0.0
C284 C 0.25911 0.87772 0.1966 0.0
C285 C 0.23134 0.81096 0.19208 0.0
C286 C 0.24463 0.85941 0.16354 0.0
N287 N 0.27027 0.86177 0.28929 0.0
C288 C 0.27661 0.87762 0.32553 0.0
C289 C 0.28392 0.91251 0.26596 0.0
C290 C 0.27191 0.87855 0.26061 0.0
C291 C 0.29335 0.92888 0.30211 0.0
C292 C 0.28897 0.91133 0.33227 0.0
H293 H 0.24378 0.87092 0.13983 0.0
H294 H 0.27298 0.92447 0.17805 0.0
H295 H 0.29462 0.955 0.23892 0.0
O296 O 0.21472 0.82178 0.30567 0.0
O297 O 0.29002 0.8173 0.22005 0.0
O298 O 0.33829 0.82045 0.23934 0.0
O299 O 0.20431 0.77335 0.27683 0.0
O300 O 0.28878 0.8199 0.31679 0.0
O301 O 0.33755 0.81174 0.28308 0.0
O302 O 0.34659 0.77646 0.18094 0.0
O303 O 0.2777 0.74031 0.26586 0.0
O304 O 0.26271 0.77813 0.3103 0.0
O305 O 0.3743 0.76486 0.21721 0.0
O306 O 0.28925 0.75686 0.19725 0.0
O307 O 0.24058 0.76124 0.23497 0.0
C308 C 0.32237 0.83199 0.22141 0.0
C309 C 0.1797 0.77945 0.34108 0.0
C310 C 0.18308 0.78457 0.41027 0.0
C311 C 0.15921 0.75341 0.41129 0.0
C312 C 0.15611 0.74823 0.34246 0.0
C313 C 0.14592 0.73535 0.37745 0.0
C314 C 0.19293 0.79722 0.37501 0.0
C315 C 0.32152 0.82535 0.31289 0.0
C316 C 0.19347 0.79236 0.30392 0.0
C317 C 0.27265 0.91153 0.20093 0.0
C318 C 0.28505 0.92891 0.23556 0.0
C319 C 0.26105 0.74813 0.29887 0.0
C320 C 0.38735 0.75411 0.14924 0.0
C321 C 0.3793 0.71023 0.09556 0.0
C322 C 0.41419 0.7224 0.08304 0.0
C323 C 0.42188 0.76567 0.13648 0.0
C324 C 0.36602 0.72696 0.12834 0.0
C325 C 0.43516 0.75003 0.10324 0.0
C326 C 0.25619 0.74909 0.20393 0.0
C327 C 0.37418 0.77185 0.18336 0.0
H328 H 0.15059 0.74326 0.43819 0.0
H329 H 0.14599 0.7337 0.31646 0.0
H330 H 0.12773 0.71125 0.37832 0.0
H331 H 0.21049 0.8216 0.37416 0.0
H332 H 0.42579 0.70984 0.05873 0.0
H333 H 0.43853 0.7869 0.15218 0.0
H334 H 0.3393 0.71861 0.13809 0.0
H335 H 0.46191 0.75889 0.09362 0.0
Tb336 Tb 0.26931 0.79332 0.76795 0.0
C337 C 0.38682 0.76408 0.6604 0.0
N338 N 0.35653 0.74287 0.67307 0.0
C339 C 0.35133 0.71443 0.6086 0.0
C340 C 0.40018 0.76174 0.62098 0.0
C341 C 0.33902 0.71786 0.64795 0.0
C342 C 0.38194 0.73657 0.59499 0.0
C343 C 0.43522 0.81159 0.67504 0.0
C344 C 0.40398 0.78879 0.68709 0.0
C345 C 0.44856 0.80951 0.63574 0.0
C346 C 0.43108 0.78464 0.60878 0.0
Tb347 Tb 0.33906 0.75111 0.7379 0.0
N348 N 0.38982 0.79062 0.72475 0.0
C349 C 0.4522 0.83567 0.70291 0.0
C350 C 0.40766 0.81241 0.75231 0.0
C351 C 0.4386 0.83573 0.74181 0.0
H352 H 0.31598 0.69999 0.65823 0.0
H353 H 0.45226 0.85333 0.76384 0.0
H354 H 0.29533 0.85929 0.83168 0.0
H355 H 0.15675 0.68765 0.77129 0.0
H356 H 0.39897 0.81122 0.78245 0.0
H357 H 0.47623 0.85369 0.69486 0.0
H358 H 0.20967 0.72414 0.74131 0.0
H359 H 0.33729 0.69459 0.58883 0.0
H360 H 0.47242 0.82694 0.62592 0.0
H361 H 0.4417 0.78332 0.57858 0.0
H362 H 0.2775 0.87849 0.89925 0.0
H363 H 0.39137 0.73389 0.56446 0.0
H364 H 0.13524 0.70202 0.83945 0.0
N365 N 0.25452 0.81461 0.82957 0.0
C366 C 0.22545 0.79623 0.84847 0.0
C367 C 0.26273 0.8552 0.88538 0.0
C368 C 0.21403 0.80643 0.8869 0.0
C369 C 0.27299 0.84405 0.84721 0.0
C370 C 0.23321 0.83625 0.9054 0.0
N371 N 0.21951 0.75784 0.79236 0.0
C372 C 0.20118 0.73033 0.77117 0.0
C373 C 0.17664 0.74719 0.84734 0.0
C374 C 0.20708 0.76703 0.82906 0.0
C375 C 0.15868 0.71805 0.82643 0.0
C376 C 0.17083 0.70978 0.78801 0.0
H377 H 0.22532 0.84498 0.93494 0.0
H378 H 0.17475 0.79398 0.9351 0.0
H379 H 0.14201 0.74207 0.90042 0.0
O380 O 0.24022 0.79307 0.7265 0.0
O381 O 0.26825 0.75901 0.80528 0.0
O382 O 0.291 0.72198 0.76766 0.0
O383 O 0.25393 0.8332 0.7717 0.0
O384 O 0.26932 0.76053 0.71272 0.0
O385 O 0.29002 0.72171 0.72009 0.0
O386 O 0.36826 0.74223 0.77342 0.0
O387 O 0.33581 0.78405 0.7011 0.0
O388 O 0.3191 0.82237 0.74298 0.0
O389 O 0.35321 0.71008 0.72027 0.0
O390 O 0.33751 0.78069 0.79538 0.0
O391 O 0.31823 0.82062 0.78835 0.0
C392 C 0.27054 0.73007 0.79704 0.0
C393 C 0.24913 0.84388 0.7109 0.0
C394 C 0.23179 0.86672 0.66502 0.0
C395 C 0.26584 0.8822 0.65168 0.0
C396 C 0.28296 0.86007 0.69782 0.0
C397 C 0.29123 0.87895 0.66816 0.0
C398 C 0.22364 0.84741 0.6946 0.0
C399 C 0.27015 0.73099 0.70473 0.0
C400 C 0.23993 0.82198 0.74001 0.0
C401 C 0.1839 0.78661 0.90551 0.0
C402 C 0.16524 0.75706 0.88577 0.0
C403 C 0.33764 0.81413 0.71189 0.0
C404 C 0.38749 0.6961 0.75582 0.0
C405 C 0.41191 0.67676 0.7983 0.0
C406 C 0.42443 0.65908 0.76593 0.0
C407 C 0.39974 0.67792 0.7238 0.0
C408 C 0.39338 0.69526 0.79318 0.0
C409 C 0.41818 0.65955 0.72891 0.0
C410 C 0.33555 0.80978 0.80579 0.0
C411 C 0.36955 0.71656 0.74981 0.0
H412 H 0.27283 0.89753 0.62926 0.0
H413 H 0.30295 0.85816 0.71042 0.0
H414 H 0.3174 0.89127 0.65812 0.0
H415 H 0.19748 0.83493 0.70472 0.0
H416 H 0.43864 0.64455 0.76942 0.0
H417 H 0.39549 0.67829 0.69477 0.0
H418 H 0.38383 0.70903 0.81811 0.0
H419 H 0.42771 0.64571 0.70412 0.0
Tb420 Tb 0.28287 0.24359 0.79651 0.0
C421 C 0.38259 0.31423 0.66398 0.0
N422 N 0.36906 0.32757 0.69769 0.0
C423 C 0.42203 0.37043 0.70407 0.0
C424 C 0.41664 0.32833 0.64922 0.0
C425 C 0.3881 0.35561 0.71754 0.0
C426 C 0.43641 0.35668 0.66986 0.0
C427 C 0.37526 0.27143 0.60936 0.0
C428 C 0.36219 0.28613 0.6443 0.0
C429 C 0.40918 0.28536 0.59456 0.0
C430 C 0.42983 0.31372 0.61446 0.0
Tb431 Tb 0.31348 0.30084 0.71644 0.0
N432 N 0.32975 0.27271 0.66019 0.0
C433 C 0.35382 0.24315 0.59042 0.0
C434 C 0.30836 0.24601 0.64089 0.0
C435 C 0.32015 0.23057 0.6061 0.0
H436 H 0.37704 0.36714 0.74324 0.0
H437 H 0.30318 0.20911 0.59123 0.0
H438 H 0.22472 0.1737 0.76738 0.0
H439 H 0.28331 0.33246 0.923 0.0
H440 H 0.28218 0.23666 0.65184 0.0
H441 H 0.36287 0.23111 0.56349 0.0
H442 H 0.30819 0.30769 0.86262 0.0
H443 H 0.43699 0.39261 0.71991 0.0
H444 H 0.4197 0.27439 0.56777 0.0
H445 H 0.45595 0.32418 0.60268 0.0
H446 H 0.16509 0.14399 0.78802 0.0
H447 H 0.46269 0.36827 0.65948 0.0
H448 H 0.22351 0.30646 0.94801 0.0
N449 N 0.22815 0.21286 0.81303 0.0
C450 C 0.21234 0.22472 0.84604 0.0
C451 C 0.17803 0.16679 0.80445 0.0
C452 C 0.17847 0.20821 0.85932 0.0
C453 C 0.21173 0.18396 0.79253 0.0
C454 C 0.16127 0.17903 0.83788 0.0
N455 N 0.26266 0.26912 0.85232 0.0
C456 C 0.28205 0.29648 0.8728 0.0
C457 C 0.21507 0.26659 0.90127 0.0
C458 C 0.23033 0.25351 0.86674 0.0
C459 C 0.23431 0.29557 0.92137 0.0
C460 C 0.26804 0.3104 0.90726 0.0
H461 H 0.1352 0.1656 0.84709 0.0
H462 H 0.13693 0.20897 0.90419 0.0
H463 H 0.16899 0.26008 0.9409 0.0
O464 O 0.31718 0.24433 0.83207 0.0
O465 O 0.2551 0.27748 0.79899 0.0
O466 O 0.29205 0.322 0.77173 0.0
O467 O 0.27551 0.20112 0.81871 0.0
O468 O 0.33411 0.27981 0.79333 0.0
O469 O 0.33189 0.32388 0.77235 0.0
O470 O 0.28005 0.30373 0.68209 0.0
O471 O 0.3418 0.26788 0.71566 0.0
O472 O 0.30403 0.22276 0.74065 0.0
O473 O 0.32484 0.34403 0.69403 0.0
O474 O 0.26166 0.26513 0.71927 0.0
O475 O 0.26452 0.22139 0.74055 0.0
C476 C 0.26444 0.30814 0.79429 0.0
C477 C 0.3265 0.19548 0.82574 0.0
C478 C 0.36952 0.18034 0.84519 0.0
C479 C 0.37387 0.1641 0.80754 0.0
C480 C 0.33087 0.17868 0.78862 0.0
C481 C 0.35458 0.16324 0.77955 0.0
C482 C 0.34572 0.1961 0.85406 0.0
C483 C 0.34414 0.31116 0.79387 0.0
C484 C 0.30322 0.2137 0.83463 0.0
C485 C 0.16298 0.22127 0.89356 0.0
C486 C 0.18124 0.25037 0.91449 0.0
C487 C 0.33212 0.23697 0.71901 0.0
C488 C 0.2763 0.35529 0.68994 0.0
C489 C 0.23446 0.37421 0.67431 0.0
C490 C 0.2361 0.39414 0.71032 0.0
C491 C 0.27785 0.37569 0.72541 0.0
C492 C 0.25458 0.35459 0.66451 0.0
C493 C 0.25764 0.39481 0.73562 0.0
C494 C 0.25033 0.234 0.72127 0.0
C495 C 0.29657 0.33409 0.67954 0.0
H496 H 0.39162 0.15136 0.79997 0.0
H497 H 0.31594 0.17749 0.7667 0.0
H498 H 0.35787 0.15039 0.75081 0.0
H499 H 0.3424 0.20911 0.88276 0.0
H500 H 0.22146 0.40997 0.71852 0.0
H501 H 0.29478 0.37693 0.74513 0.0
H502 H 0.25334 0.33873 0.63716 0.0
H503 H 0.25899 0.41051 0.76303 0.0
Tb504 Tb 0.77814 0.29735 0.75492 0.0
C505 C 0.82841 0.20433 0.81224 0.0
N506 N 0.84606 0.23421 0.8023 0.0
C507 C 0.87439 0.2485 0.85881 0.0
C508 C 0.83251 0.19563 0.84658 0.0
C509 C 0.86935 0.25605 0.82454 0.0
C510 C 0.85577 0.21822 0.87001 0.0
C511 C 0.78578 0.15191 0.79839 0.0
C512 C 0.80522 0.18285 0.78851 0.0
C513 C 0.78973 0.14313 0.8326 0.0
C514 C 0.81303 0.16492 0.85664 0.0
Tb515 Tb 0.83575 0.24369 0.74584 0.0
N516 N 0.80139 0.1925 0.75612 0.0
C517 C 0.76293 0.13074 0.7736 0.0
C518 C 0.78091 0.17103 0.73055 0.0
C519 C 0.76086 0.1402 0.73926 0.0
H520 H 0.88455 0.27909 0.81561 0.0
H521 H 0.74429 0.12353 0.71907 0.0
H522 H 0.71391 0.25786 0.7044 0.0
H523 H 0.87325 0.41586 0.75178 0.0
H524 H 0.78084 0.17679 0.70269 0.0
H525 H 0.74743 0.10682 0.78021 0.0
H526 H 0.84174 0.36491 0.77775 0.0
H527 H 0.89277 0.26599 0.87645 0.0
H528 H 0.77485 0.11954 0.84076 0.0
H529 H 0.81571 0.15784 0.88299 0.0
H530 H 0.69304 0.26472 0.64759 0.0
H531 H 0.85965 0.21248 0.89664 0.0
H532 H 0.85621 0.42747 0.69497 0.0
N533 N 0.75453 0.30253 0.70509 0.0
C534 C 0.76991 0.33027 0.68926 0.0
C535 C 0.71481 0.2833 0.6589 0.0
C536 C 0.75867 0.33545 0.65707 0.0
C537 C 0.72694 0.2793 0.69082 0.0
C538 C 0.73085 0.31142 0.6418 0.0
N539 N 0.80828 0.34652 0.73493 0.0
C540 C 0.83446 0.36906 0.75249 0.0
C541 C 0.8145 0.38233 0.68939 0.0
C542 C 0.79746 0.35328 0.70506 0.0
C543 C 0.84234 0.40489 0.70619 0.0
C544 C 0.85214 0.39833 0.73811 0.0
H545 H 0.72146 0.31441 0.617 0.0
H546 H 0.76758 0.3686 0.61618 0.0
H547 H 0.8165 0.40969 0.64453 0.0
O548 O 0.76988 0.32608 0.80705 0.0
O549 O 0.81564 0.30054 0.70295 0.0
O550 O 0.85885 0.28775 0.71784 0.0
O551 O 0.73001 0.30119 0.77139 0.0
O552 O 0.81351 0.30928 0.79808 0.0
O553 O 0.85857 0.29402 0.76769 0.0
O554 O 0.85187 0.21107 0.70405 0.0
O555 O 0.79924 0.24558 0.7985 0.0
O556 O 0.75573 0.25008 0.77484 0.0
O557 O 0.88652 0.2469 0.74023 0.0
O558 O 0.80523 0.2348 0.6983 0.0
O559 O 0.75862 0.24709 0.72915 0.0
C560 C 0.84739 0.30281 0.69836 0.0
C561 C 0.71733 0.29976 0.83914 0.0
C562 C 0.7098 0.3001 0.90944 0.0
C563 C 0.69053 0.26697 0.90382 0.0
C564 C 0.69662 0.26723 0.83463 0.0
C565 C 0.68333 0.25104 0.86689 0.0
C566 C 0.7229 0.31609 0.87639 0.0
C567 C 0.8455 0.31226 0.79409 0.0
C568 C 0.73754 0.31573 0.80568 0.0
C569 C 0.77571 0.36423 0.64106 0.0
C570 C 0.80354 0.38765 0.65722 0.0
C571 C 0.76678 0.23845 0.79869 0.0
C572 C 0.90395 0.2396 0.67276 0.0
C573 C 0.9089 0.2339 0.60244 0.0
C574 C 0.93266 0.26515 0.60291 0.0
C575 C 0.92752 0.27108 0.67317 0.0
C576 C 0.89567 0.22118 0.63728 0.0
C577 C 0.94194 0.28363 0.63829 0.0
C578 C 0.77352 0.23228 0.69997 0.0
C579 C 0.88338 0.22705 0.70812 0.0
H580 H 0.68036 0.25317 0.92774 0.0
H581 H 0.69165 0.254 0.80617 0.0
H582 H 0.66768 0.22587 0.86325 0.0
H583 H 0.73755 0.34153 0.8789 0.0
H584 H 0.94424 0.27493 0.57611 0.0
H585 H 0.93418 0.28619 0.70025 0.0
H586 H 0.87834 0.19653 0.63688 0.0
H587 H 0.9601 0.30784 0.63874 0.0
Tb588 Tb 0.77519 0.7633 0.71046 0.0
C589 C 0.8474 0.85663 0.84672 0.0
N590 N 0.86132 0.84623 0.81137 0.0
C591 C 0.90141 0.89949 0.80716 0.0
C592 C 0.85975 0.88915 0.86346 0.0
C593 C 0.88827 0.86701 0.79171 0.0
C594 C 0.88705 0.91064 0.84315 0.0
C595 C 0.80434 0.84474 0.90192 0.0
C596 C 0.81983 0.83468 0.86555 0.0
C597 C 0.81667 0.8771 0.91878 0.0
C598 C 0.84428 0.89924 0.8996 0.0
Tb599 Tb 0.83838 0.79251 0.79016 0.0
N600 N 0.80794 0.80366 0.84788 0.0
C601 C 0.77705 0.82193 0.92038 0.0
C602 C 0.78288 0.781 0.86715 0.0
C603 C 0.76658 0.78985 0.90313 0.0
H604 H 0.90043 0.85841 0.76476 0.0
H605 H 0.74641 0.77175 0.91793 0.0
H606 H 0.70711 0.70391 0.74041 0.0
H607 H 0.86285 0.77039 0.57908 0.0
H608 H 0.77618 0.75593 0.85606 0.0
H609 H 0.76447 0.82867 0.94834 0.0
H610 H 0.83731 0.79187 0.64111 0.0
H611 H 0.92282 0.91582 0.79147 0.0
H612 H 0.80503 0.88524 0.94668 0.0
H613 H 0.85341 0.92414 0.91291 0.0
H614 H 0.67933 0.64597 0.71914 0.0
H615 H 0.8973 0.93583 0.85503 0.0
H616 H 0.83933 0.71253 0.55348 0.0
N617 N 0.74626 0.70993 0.69311 0.0
C618 C 0.7586 0.69601 0.65903 0.0
C619 C 0.70176 0.65972 0.7021 0.0
C620 C 0.74315 0.66316 0.64532 0.0
C621 C 0.71786 0.69247 0.71439 0.0
C622 C 0.71453 0.64495 0.6675 0.0
N623 N 0.80131 0.74643 0.65247 0.0
C624 C 0.82757 0.7665 0.63124 0.0
C625 C 0.80026 0.70164 0.60205 0.0
C626 C 0.78688 0.71493 0.63777 0.0
C627 C 0.8283 0.72179 0.58111 0.0
C628 C 0.84176 0.75442 0.59558 0.0
H629 H 0.70192 0.61961 0.65799 0.0
H630 H 0.74517 0.62442 0.59894 0.0
H631 H 0.79509 0.65816 0.56098 0.0
O632 O 0.76855 0.7961 0.68043 0.0
O633 O 0.80898 0.73499 0.70723 0.0
O634 O 0.85688 0.76845 0.73475 0.0
O635 O 0.72752 0.75327 0.69369 0.0
O636 O 0.81549 0.81071 0.70995 0.0
O637 O 0.86077 0.80801 0.73366 0.0
O638 O 0.84778 0.76475 0.82522 0.0
O639 O 0.8069 0.82221 0.78935 0.0
O640 O 0.75818 0.78577 0.7676 0.0
O641 O 0.8864 0.80761 0.80781 0.0
O642 O 0.80078 0.74333 0.78765 0.0
O643 O 0.75547 0.74821 0.7674 0.0
C644 C 0.84087 0.74241 0.7119 0.0
C645 C 0.72698 0.77434 0.63778 0.0
C646 C 0.70286 0.79203 0.59281 0.0
C647 C 0.70866 0.76782 0.56385 0.0
C648 C 0.73202 0.75005 0.6086 0.0
C649 C 0.72296 0.74688 0.57185 0.0
C650 C 0.71204 0.7951 0.62986 0.0
C651 C 0.84801 0.82014 0.71199 0.0
C652 C 0.73733 0.77869 0.67644 0.0
C653 C 0.75666 0.64965 0.60995 0.0
C654 C 0.78511 0.66885 0.58834 0.0
C655 C 0.77455 0.8139 0.78651 0.0
C656 C 0.90355 0.76522 0.81481 0.0
C657 C 0.9291 0.7304 0.83211 0.0
C658 C 0.94754 0.73014 0.79499 0.0
C659 C 0.92261 0.76508 0.77813 0.0
C660 C 0.90716 0.74814 0.84191 0.0
C661 C 0.9444 0.74753 0.76829 0.0
C662 C 0.76841 0.7329 0.78443 0.0
C663 C 0.87942 0.78253 0.82487 0.0
H664 H 0.70179 0.76489 0.53513 0.0
H665 H 0.74284 0.7335 0.6141 0.0
H666 H 0.72708 0.72813 0.54947 0.0
H667 H 0.70816 0.81398 0.65228 0.0
H668 H 0.96465 0.7167 0.78679 0.0
H669 H 0.92064 0.77857 0.75715 0.0
H670 H 0.89243 0.7481 0.87024 0.0
H671 H 0.95886 0.74737 0.73987 0.0
Co672 Co 0.09499 0.97052 0.48081 0.0
Co673 Co 0.08669 1.00185 0.54844 0.0
Co674 Co 0.05571 0.02662 0.4971 0.0
O675 O 0.09252 1.01183 0.49959 0.0
H676 H 0.11415 0.02858 0.49537 0.0
O677 O 1.01932 0.04169 0.49361 0.0
Co678 Co 0.99646 0.06448 0.53214 0.0
Co679 Co 1.03717 0.08078 0.47936 0.0
H680 H 1.00465 0.02732 0.4752 0.0
O681 O 0.12063 1.00136 0.5706 0.0
O682 O 0.08446 0.95938 0.53565 0.0
O683 O 1.04796 1.00495 0.58324 0.0
O684 O 1.02124 0.99611 0.53272 0.0
O685 O 0.07167 0.05982 0.54238 0.0
O686 O 0.97005 0.08237 0.56584 0.0
O687 O 0.95695 0.04504 0.5134 0.0
O688 O 1.03702 0.08841 0.55739 0.0
O689 O 0.08976 0.05655 0.4602 0.0
O690 O 0.0834 0.10344 0.48359 0.0
O691 O 1.00717 0.10033 0.49934 0.0
O692 O 1.02263 0.08225 0.43634 0.0
C693 C 0.13314 0.95254 0.47091 0.0
C694 C 1.03221 0.96279 0.45254 0.0
C695 C 1.02084 0.99403 0.56827 0.0
C696 C 0.10652 0.97049 0.56059 0.0
C697 C 0.94832 0.06436 0.54221 0.0
C698 C 0.06364 0.08357 0.56153 0.0
C699 C 0.10146 0.08751 0.46477 0.0
C700 C 1.00539 0.09694 0.462 0.0
O701 O 0.10301 0.93417 0.46312 0.0
O702 O 0.13915 0.98275 0.48496 0.0
O703 O 1.04031 0.99298 0.45232 0.0
O704 O 1.04762 0.95201 0.4713 0.0
Co705 Co 0.59275 0.96893 0.95968 0.0
Co706 Co 0.57032 0.97113 0.02705 0.0
Co707 Co 0.55112 0.02671 0.00745 0.0
O708 O 0.58688 1.00528 0.99943 0.0
H709 H 0.60808 1.02023 0.0073 0.0
O710 O 0.51553 0.04736 0.01562 0.0
Co711 Co 0.51803 0.08987 0.04353 0.0
Co712 Co 0.51579 0.06359 0.97186 0.0
H713 H 0.49336 0.03186 0.02141 0.0
O714 O 0.59776 0.97133 0.05932 0.0
O715 O 0.58807 0.94172 1.0002 0.0
O716 O 0.52307 0.95249 0.03945 0.0
O717 O 0.51949 1.00125 0.05034 0.0
O718 O 0.57656 0.06082 0.04692 0.0
O719 O 0.51642 0.1279 0.07012 0.0
O720 O 0.47243 0.08287 0.05797 0.0
O721 O 0.56635 0.10318 0.03476 0.0
O722 O 0.58281 0.05387 0.96665 0.0
O723 O 0.55394 0.06892 0.93265 0.0
O724 O 0.51526 0.10404 0.9944 0.0
O725 O 0.47648 0.064 0.96082 0.0
C726 C 0.63152 0.95125 0.93043 0.0
C727 C 0.52239 0.96384 0.95611 0.0
C728 C 0.50648 0.97099 0.05282 0.0
C729 C 0.60349 0.9499 0.03124 0.0
C730 C 0.48395 0.11315 0.0735 0.0
C731 C 0.58439 0.09131 0.04789 0.0
C732 C 0.58131 0.06731 0.93866 0.0
C733 C 0.4879 0.09363 0.97747 0.0
O734 O 0.60033 0.93745 0.92415 0.0
O735 O 0.63953 0.97837 0.95448 0.0
O736 O 0.52496 0.99333 0.96753 0.0
O737 O 0.54558 0.95297 0.95756 0.0
Co738 Co 0.08457 0.4666 0.96839 0.0
Co739 Co 0.0863 0.49294 0.04031 0.0
Co740 Co 1.04829 0.5271 0.00613 0.0
O741 O 0.08641 0.50931 0.99645 0.0
H742 H 0.10802 0.52563 0.99059 0.0
O743 O 1.01008 0.54475 0.01581 0.0
Co744 Co 1.01155 0.58724 0.04392 0.0
Co745 Co 1.00985 0.56108 0.97212 0.0
H746 H 0.98853 0.52836 0.02167 0.0
O747 O 0.12536 0.49187 0.05108 0.0
O748 O 0.08612 0.45219 0.0178 0.0
O749 O 1.04843 0.48758 0.08066 0.0
O750 O 1.01755 0.49519 0.04239 0.0
O751 O 0.07007 0.55917 0.0493 0.0
O752 O 1.0091 0.62494 0.07085 0.0
O753 O 0.96562 0.57996 0.05702 0.0
O754 O 0.0598 0.60117 0.03663 0.0
O755 O 0.07891 0.55874 0.96962 0.0
O756 O 1.04765 0.56628 0.93175 0.0
O757 O 1.01011 0.60185 0.99459 0.0
O758 O 0.97074 0.56231 0.96139 0.0
C759 C 0.11898 0.44329 0.93881 0.0
C760 C 1.01931 0.46492 0.96083 0.0
C761 C 1.02 0.48428 0.072 0.0
C762 C 0.11299 0.462 0.03555 0.0
C763 C 0.97668 0.61004 0.07348 0.0
C764 C 0.07789 0.58958 0.05007 0.0
C765 C 0.07618 0.56933 0.93991 0.0
C766 C 0.98341 0.59224 0.9766 0.0
O767 O 0.08652 0.42872 0.94158 0.0
O768 O 0.13042 0.47338 0.95516 0.0
O769 O 1.02676 0.49536 0.96281 0.0
O770 O 1.03632 0.45309 0.97571 0.0
Co771 Co 0.58418 0.46456 0.99461 0.0
Co772 Co 0.58125 0.50666 0.05692 0.0
Co773 Co 0.55385 0.52523 0.99834 0.0
O774 O 0.5889 0.50907 1.0036 0.0
H775 H 0.61138 0.52339 0.99626 0.0
O776 O 0.51744 0.53998 0.99364 0.0
Co777 Co 0.49634 0.56316 0.03419 0.0
Co778 Co 0.52762 0.57437 0.97109 0.0
H779 H 0.50052 0.52259 0.98025 0.0
O780 O 0.61339 0.5051 0.08192 0.0
O781 O 0.57347 0.4631 0.05227 0.0
O782 O 0.54241 0.51366 0.08904 0.0
O783 O 0.51859 0.49707 0.03569 0.0
O784 O 0.57145 0.56016 0.04138 0.0
O785 O 0.47117 0.58085 0.07012 0.0
O786 O 0.45527 0.54113 0.02053 0.0
O787 O 0.53843 0.59 0.05407 0.0
O788 O 0.58901 0.55338 0.95991 0.0
O789 O 0.574 0.59607 0.96016 0.0
O790 O 0.50238 0.59681 1.00088 0.0
O791 O 0.49912 0.57235 0.93846 0.0
C792 C 0.61583 0.44026 0.99387 0.0
C793 C 0.5267 0.46016 0.95989 0.0
C794 C 0.51632 0.49905 0.07243 0.0
C795 C 0.59724 0.47431 0.07497 0.0
C796 C 0.44767 0.56046 0.05003 0.0
C797 C 0.56514 0.5854 0.05789 0.0
C798 C 0.59572 0.58222 0.9527 0.0
C799 C 0.49021 0.59103 0.96796 0.0
O800 O 0.58474 0.4249 0.98735 0.0
O801 O 0.62744 0.47168 0.99878 0.0
O802 O 0.5381 0.48986 0.95541 0.0
O803 O 0.53692 0.45053 0.98548 0.0
Co804 Co 0.11047 0.4919 0.50394 0.0
Co805 Co 0.09789 0.49047 0.43774 0.0
Co806 Co 0.05263 0.52762 0.50192 0.0
O807 O 0.07115 0.49098 0.48456 0.0
H808 H 0.05334 0.47031 0.48555 0.0
O809 O 1.03357 0.56397 0.51974 0.0
Co810 Co 0.99411 0.56226 0.49958 0.0
Co811 Co 1.00499 0.56269 0.5657 0.0
H812 H 0.05112 0.58486 0.51946 0.0
O813 O 0.09854 0.45201 0.40748 0.0
O814 O 0.13457 0.48281 0.44992 0.0
O815 O 0.11243 0.53008 0.41718 0.0
O816 O 0.08456 0.55675 0.46213 0.0
O817 O 1.01916 0.50596 0.46438 0.0
O818 O 0.96063 0.5634 0.47899 0.0
O819 O 1.00723 0.60478 0.49488 0.0
O820 O 0.97547 0.51672 0.49996 0.0
O821 O 1.02091 0.49827 0.54144 0.0
O822 O 0.98904 0.52207 0.58449 0.0
O823 O 0.96917 0.57139 0.55308 0.0
O824 O 1.00432 0.60046 0.59722 0.0
C825 C 0.12541 0.45956 0.522 0.0
C826 C 0.11809 0.55603 0.52967 0.0
C827 C 0.10581 0.55557 0.43146 0.0
C828 C 0.12573 0.45787 0.4228 0.0
C829 C 0.97866 0.59379 0.48039 0.0
C830 C 0.98745 0.49887 0.47347 0.0
C831 C 0.99781 0.49772 0.57049 0.0
C832 C 0.97785 0.5957 0.58103 0.0
O833 O 0.14421 0.48976 0.52326 0.0
O834 O 0.09639 0.44942 0.5087 0.0
O835 O 0.08642 0.54945 0.53909 0.0
O836 O 0.12964 0.53734 0.50392 0.0
Co837 Co 0.60247 0.98705 0.51041 0.0
Co838 Co 0.59278 0.98784 0.44373 0.0
Co839 Co 0.54862 0.02781 0.50647 0.0
O840 O 0.56479 0.98932 0.48978 0.0
H841 H 0.54597 0.96929 0.49019 0.0
O842 O 0.53243 0.06608 0.5231 0.0
Co843 Co 0.4929 0.06704 0.50548 0.0
Co844 Co 0.50788 0.06918 0.57149 0.0
H845 H 0.55103 0.08609 0.52071 0.0
O846 O 0.59264 0.94951 0.41242 0.0
O847 O 0.62748 0.97781 0.45715 0.0
O848 O 0.60932 0.02732 0.42265 0.0
O849 O 0.5804 0.05456 0.465 0.0
O850 O 0.51322 1.00661 0.47069 0.0
O851 O 0.45911 0.07153 0.48767 0.0
O852 O 0.50857 0.10957 0.50105 0.0
O853 O 0.4718 1.0217 0.50624 0.0
O854 O 0.5168 1.00115 0.54796 0.0
O855 O 0.49278 0.03041 0.59418 0.0
O856 O 0.47072 0.0764 0.55993 0.0
O857 O 0.50792 0.10884 0.60009 0.0
C858 C 0.61384 0.95201 0.52844 0.0
C859 C 0.61508 0.05326 0.5339 0.0
C860 C 0.6022 0.05275 0.43521 0.0
C861 C 0.61909 0.95412 0.42855 0.0
C862 C 0.47926 0.10136 0.48902 0.0
C863 C 0.48187 1.00213 0.48043 0.0
C864 C 0.49735 1.00398 0.57971 0.0
C865 C 0.48011 0.10213 0.58568 0.0
O866 O 0.63412 0.98178 0.53103 0.0
O867 O 0.58552 0.94419 0.51419 0.0
O868 O 0.5838 0.04944 0.54234 0.0
O869 O 0.62498 0.03218 0.51072 0.0
H870 H 0.19815 0.22711 0.31918 0.0
H871 H 0.27844 0.18907 0.30856 0.0
H872 H 0.16311 0.18775 0.36208 0.0
H873 H 0.24286 0.1492 0.35121 0.0
H874 H 0.13389 0.0656 0.3965 0.0
H875 H 0.17603 0.09954 0.35108 0.0
H876 H 0.17913 0.18423 0.43379 0.0
H877 H 0.13808 0.15084 0.47921 0.0
C878 C 0.20805 0.20994 0.32541 0.0
C879 C 0.24099 0.21114 0.31059 0.0
C880 C 0.18809 0.18757 0.35004 0.0
C881 C 0.20047 0.16565 0.35985 0.0
C882 C 0.23285 0.16585 0.34386 0.0
C883 C 0.25312 0.18868 0.31968 0.0
C884 C 0.14442 0.09133 0.4054 0.0
C885 C 0.13229 0.10562 0.44114 0.0
C886 C 0.16832 0.11068 0.37938 0.0
C887 C 0.18009 0.14439 0.38888 0.0
C888 C 0.16994 0.1583 0.4257 0.0
C889 C 0.14652 0.13913 0.45165 0.0
H890 H 0.85364 0.17034 0.43018 0.0
H891 H 0.90135 0.15075 0.31449 0.0
H892 H 0.89348 0.15514 0.45663 0.0
H893 H 0.94083 0.13519 0.34091 0.0
H894 H 0.96724 0.06755 0.40422 0.0
H895 H 0.93136 0.08745 0.37786 0.0
H896 H 0.95999 0.17523 0.45813 0.0
H897 H 0.99509 0.15454 0.48597 0.0
C898 C 0.87264 0.16276 0.41051 0.0
C899 C 0.87445 0.16156 0.37034 0.0
C900 C 0.89554 0.15436 0.42563 0.0
C901 C 0.92015 0.14404 0.40077 0.0
C902 C 0.92201 0.143 0.36064 0.0
C903 C 0.89955 0.15195 0.34558 0.0
C904 C 0.96571 0.09105 0.41643 0.0
C905 C 0.98338 0.10938 0.44753 0.0
C906 C 0.94536 0.10246 0.40121 0.0
C907 C 0.94267 0.13268 0.41638 0.0
C908 C 0.96104 0.15145 0.44678 0.0
C909 C 0.98102 0.13972 0.4626 0.0
H910 H 0.87876 0.79931 0.33414 0.0
H911 H 0.87088 0.8841 0.30351 0.0
H912 H 0.92238 0.83293 0.37391 0.0
H913 H 0.91666 0.91785 0.34044 0.0
H914 H 0.97905 0.97521 0.43618 0.0
H915 H 0.93384 0.94049 0.39915 0.0
H916 H 0.97683 0.86504 0.37964 0.0
H917 H 1.021 0.89957 0.41917 0.0
C918 C 0.88668 0.82518 0.33523 0.0
C919 C 0.8713 0.83872 0.31475 0.0
C920 C 0.91222 0.84467 0.35799 0.0
C921 C 0.92382 0.87856 0.36078 0.0
C922 C 0.9085 0.89205 0.33998 0.0
C923 C 0.88245 0.87252 0.31785 0.0
C924 C 0.97881 0.95114 0.42417 0.0
C925 C 1.00388 0.94033 0.43075 0.0
C926 C 0.95285 0.93111 0.40236 0.0
C927 C 0.9513 0.89963 0.38542 0.0
C928 C 0.97638 0.88875 0.39235 0.0
C929 C 1.00203 0.90866 0.415 0.0
H930 H 0.14368 0.7929 0.47822 0.0
H931 H 0.24596 0.82798 0.42311 0.0
H932 H 0.14906 0.84681 0.50956 0.0
H933 H 0.25021 0.88272 0.4522 0.0
H934 H 0.17808 0.96443 0.5219 0.0
H935 H 0.20637 0.92742 0.52805 0.0
H936 H 0.17484 0.87143 0.41968 0.0
H937 H 0.14498 0.90686 0.41483 0.0
C938 C 0.16815 0.81159 0.4749 0.0
C939 C 0.19357 0.80686 0.44598 0.0
C940 C 0.17128 0.84273 0.49306 0.0
C941 C 0.19944 0.8689 0.48172 0.0
C942 C 0.228 0.86293 0.46086 0.0
C943 C 0.22535 0.83153 0.44394 0.0
C944 C 0.17814 0.94471 0.49891 0.0
C945 C 0.15876 0.93777 0.46836 0.0
C946 C 0.19428 0.92368 0.50251 0.0
C947 C 0.19221 0.89658 0.47459 0.0
C948 C 0.17654 0.89226 0.44159 0.0
C949 C 0.15946 0.9124 0.4388 0.0
H950 H 0.22514 0.86459 0.58926 0.0
H951 H 0.17848 0.88207 0.70615 0.0
H952 H 0.18632 0.8825 0.56512 0.0
H953 H 0.13971 0.89985 0.68176 0.0
H954 H 0.1382 0.98543 0.62433 0.0
H955 H 0.16058 0.95254 0.64998 0.0
H956 H 0.12078 0.87295 0.56216 0.0
H957 H 0.09779 0.90616 0.53598 0.0
C958 C 0.20616 0.87165 0.60963 0.0
C959 C 0.20505 0.87235 0.64961 0.0
C960 C 0.18372 0.88149 0.59573 0.0
C961 C 0.16014 0.89256 0.62154 0.0
C962 C 0.1577 0.89138 0.66128 0.0
C963 C 0.17983 0.88119 0.67518 0.0
C964 C 0.1338 0.96083 0.61052 0.0
C965 C 0.11663 0.94856 0.57771 0.0
C966 C 0.14642 0.94191 0.62551 0.0
C967 C 0.14245 0.91028 0.60797 0.0
C968 C 0.1243 0.89739 0.57595 0.0
C969 C 0.11106 0.9163 0.56117 0.0
H970 H 0.23738 0.17082 0.68982 0.0
H971 H 0.19859 0.24828 0.70306 0.0
H972 H 0.19222 0.13591 0.65265 0.0
H973 H 0.15167 0.21285 0.66817 0.0
H974 H 0.08552 0.15001 0.57424 0.0
H975 H 0.12993 0.18643 0.61246 0.0
H976 H 0.13845 0.10428 0.65006 0.0
H977 H 0.09622 0.06848 0.60958 0.0
C978 C 0.21873 0.18022 0.68538 0.0
C979 C 0.22163 0.21235 0.69965 0.0
C980 C 0.19237 0.16001 0.66415 0.0
C981 C 0.16734 0.17092 0.65719 0.0
C982 C 0.1703 0.20322 0.67192 0.0
C983 C 0.19721 0.22366 0.69237 0.0
C984 C 0.09679 0.13992 0.59103 0.0
C985 C 0.08728 0.10632 0.5888 0.0
C986 C 0.12239 0.16084 0.61321 0.0
C987 C 0.13875 0.1488 0.63457 0.0
C988 C 0.12784 0.11503 0.63337 0.0
C989 C 0.10304 0.09425 0.61045 0.0
H990 H 0.95364 0.21649 0.54847 0.0
H991 H 0.84723 0.19834 0.5789 0.0
H992 H 0.94195 0.16016 0.52478 0.0
H993 H 0.83549 0.14136 0.55296 0.0
H994 H 0.91775 0.06083 0.48032 0.0
H995 H 0.89012 0.09853 0.4768 0.0
H996 H 0.88123 0.12192 0.60111 0.0
H997 H 0.91105 0.08614 0.60458 0.0
C998 C 0.92765 0.20115 0.54654 0.0
C999 C 0.90142 0.21137 0.56653 0.0
C1000 C 0.92093 0.1687 0.53256 0.0
C1001 C 0.8879 0.14664 0.53627 0.0
C1002 C 0.8611 0.15805 0.54936 0.0
C1003 C 0.86787 0.1907 0.56372 0.0
C1004 C 0.90833 0.07273 0.50708 0.0
C1005 C 0.91775 0.07181 0.54262 0.0
C1006 C 0.8922 0.09405 0.50496 0.0
C1007 C 0.88426 0.11336 0.53858 0.0
C1008 C 0.88717 0.10712 0.5748 0.0
C1009 C 0.90451 0.08686 0.5768 0.0
H1010 H 0.832 0.85908 0.67378 0.0
H1011 H 0.91671 0.83909 0.69749 0.0
H1012 H 0.87071 0.90277 0.63838 0.0
H1013 H 0.95505 0.88317 0.66323 0.0
H1014 H 0.96116 0.95254 0.54209 0.0
H1015 H 0.91684 0.91075 0.57619 0.0
H1016 H 0.96885 0.94495 0.67752 0.0
H1017 H 1.0125 0.98662 0.64425 0.0
C1018 C 0.8588 0.86397 0.67154 0.0
C1019 C 0.87125 0.84598 0.6893 0.0
C1020 C 0.8809 0.88894 0.65118 0.0
C1021 C 0.91586 0.89664 0.64855 0.0
C1022 C 0.92822 0.87815 0.66542 0.0
C1023 C 0.90621 0.85295 0.68517 0.0
C1024 C 0.96269 0.9516 0.57193 0.0
C1025 C 0.99065 0.97276 0.59021 0.0
C1026 C 0.93738 0.92763 0.59138 0.0
C1027 C 0.93982 0.92427 0.62922 0.0
C1028 C 0.96667 0.94658 0.64812 0.0
C1029 C 0.99162 0.97059 0.629 0.0
H1030 H 0.40549 0.25949 0.21521 0.0
H1031 H 0.31694 0.1881 0.17093 0.0
H1032 H 0.43868 0.22647 0.18239 0.0
H1033 H 0.35057 0.156 0.13543 0.0
H1034 H 0.41524 0.0904 0.09899 0.0
H1035 H 0.37979 0.12149 0.13354 0.0
H1036 H 0.46546 0.20942 0.12569 0.0
H1037 H 0.50062 0.17835 0.0933 0.0
C1038 C 0.39303 0.23695 0.19796 0.0
C1039 C 0.35835 0.22714 0.19536 0.0
C1040 C 0.41233 0.21789 0.17854 0.0
C1041 C 0.39795 0.1883 0.15517 0.0
C1042 C 0.36305 0.17831 0.153 0.0
C1043 C 0.34363 0.19719 0.17301 0.0
C1044 C 0.42647 0.11637 0.10482 0.0
C1045 C 0.46109 0.13161 0.09356 0.0
C1046 C 0.406 0.13443 0.12455 0.0
C1047 C 0.41936 0.16844 0.13331 0.0
C1048 C 0.45389 0.18346 0.121 0.0
C1049 C 0.47428 0.16546 0.10187 0.0
H1050 H 0.87032 0.30852 0.14081 0.0
H1051 H 0.84669 0.38044 0.22871 0.0
H1052 H 0.91369 0.35122 0.10708 0.0
H1053 H 0.89079 0.4232 0.1957 0.0
H1054 H 1.00928 0.47386 0.14769 0.0
H1055 H 0.96084 0.43416 0.17993 0.0
H1056 H 0.9138 0.40447 0.07515 0.0
H1057 H 0.96159 0.4449 0.04319 0.0
C1058 C 0.87414 0.33349 0.15253 0.0
C1059 C 0.85495 0.3413 0.18699 0.0
C1060 C 0.89891 0.35788 0.13332 0.0
C1061 C 0.90555 0.39051 0.14878 0.0
C1062 C 0.88614 0.39827 0.18314 0.0
C1063 C 0.86082 0.37388 0.20183 0.0
C1064 C 0.98833 0.45928 0.13175 0.0
C1065 C 0.9892 0.46279 0.09298 0.0
C1066 C 0.96064 0.43658 0.1502 0.0
C1067 C 0.93363 0.41623 0.12999 0.0
C1068 C 0.93429 0.41986 0.09137 0.0
C1069 C 0.96154 0.44317 0.07323 0.0
H1070 H 0.7276 0.88745 0.13777 0.0
H1071 H 0.74439 0.84686 0.01805 0.0
H1072 H 0.68648 0.90604 0.12181 0.0
H1073 H 0.7051 0.86836 1.00143 0.0
H1074 H 0.61009 0.89238 0.99333 0.0
H1075 H 0.64766 0.86658 0.00599 0.0
H1076 H 0.68905 0.94835 0.09109 0.0
H1077 H 0.65121 0.97306 0.0796 0.0
C1078 C 0.72244 0.88214 0.10802 0.0
C1079 C 0.73971 0.8656 0.07928 0.0
C1080 C 0.69917 0.89347 0.09867 0.0
C1081 C 0.69296 0.88944 0.06012 0.0
C1082 C 0.70924 0.87197 0.03142 0.0
C1083 C 0.73221 0.86005 0.04092 0.0
C1084 C 0.62727 0.90467 0.0147 0.0
C1085 C 0.6272 0.93443 0.03601 0.0
C1086 C 0.64887 0.88998 0.0219 0.0
C1087 C 0.67089 0.905 0.0503 0.0
C1088 C 0.67165 0.93542 0.0701 0.0
C1089 C 0.65 0.94976 0.06329 0.0
H1090 H 0.18937 0.71674 0.21984 0.0
H1091 H 0.27276 0.72281 0.12873 0.0
H1092 H 0.15124 0.67755 0.17718 0.0
H1093 H 0.2336 0.68224 0.08583 0.0
H1094 H 0.12888 0.57544 0.07082 0.0
H1095 H 0.17724 0.61307 0.10295 0.0
H1096 H 0.14479 0.69201 0.09883 0.0
H1097 H 0.09687 0.65502 0.06666 0.0
C1098 C 0.19974 0.70976 0.1907 0.0
C1099 C 0.23422 0.72349 0.17755 0.0
C1100 C 0.17775 0.68708 0.16641 0.0
C1101 C 0.18956 0.67716 0.12842 0.0
C1102 C 0.22409 0.68968 0.11521 0.0
C1103 C 0.24636 0.71284 0.13966 0.0
C1104 C 0.13233 0.60088 0.07626 0.0
C1105 C 0.10875 0.61215 0.06653 0.0
C1106 C 0.16015 0.62235 0.09423 0.0
C1107 C 0.1647 0.6553 0.10282 0.0
C1108 C 0.14192 0.6667 0.09195 0.0
C1109 C 0.11439 0.64543 0.07376 0.0
H1110 H 0.35812 0.87576 0.81534 0.0
H1111 H 0.36317 0.79552 0.86036 0.0
H1112 H 0.4006 0.91289 0.85511 0.0
H1113 H 0.40507 0.83274 0.90105 0.0
H1114 H 0.5109 0.90142 0.92225 0.0
H1115 H 0.46291 0.86498 0.89066 0.0
H1116 H 0.41606 0.93774 0.91855 0.0
H1117 H 0.46488 0.97486 0.94953 0.0
C1118 C 0.3677 0.86606 0.83441 0.0
C1119 C 0.35741 0.8326 0.8344 0.0
C1120 C 0.39209 0.88744 0.85736 0.0
C1121 C 0.40667 0.87589 0.88106 0.0
C1122 C 0.39499 0.8425 0.88254 0.0
C1123 C 0.37074 0.82113 0.85944 0.0
C1124 C 0.49038 0.90977 0.92192 0.0
C1125 C 0.492 0.94129 0.93836 0.0
C1126 C 0.46259 0.88865 0.90399 0.0
C1127 C 0.43539 0.89824 0.9021 0.0
C1128 C 0.43669 0.9296 0.91905 0.0
C1129 C 0.46465 0.95088 0.93697 0.0
H1130 H 0.2838 0.37442 0.8122 0.0
H1131 H 0.19877 0.28798 0.82961 0.0
H1132 H 0.25014 0.40714 0.84597 0.0
H1133 H 0.16566 0.32041 0.86571 0.0
H1134 H 0.10123 0.38403 0.89447 0.0
H1135 H 0.13606 0.35278 0.8612 0.0
H1136 H 0.22372 0.42793 0.90324 0.0
H1137 H 0.18848 0.4599 0.93573 0.0
C1138 C 0.25782 0.36227 0.82305 0.0
C1139 C 0.24403 0.32832 0.81707 0.0
C1140 C 0.23849 0.38119 0.84323 0.0
C1141 C 0.20459 0.36692 0.85874 0.0
C1142 C 0.19119 0.33282 0.85367 0.0
C1143 C 0.21045 0.31396 0.83317 0.0
C1144 C 0.12796 0.39411 0.89673 0.0
C1145 C 0.14176 0.42481 0.91803 0.0
C1146 C 0.14815 0.37583 0.87771 0.0
C1147 C 0.18316 0.3872 0.87932 0.0
C1148 C 0.19709 0.41808 0.90057 0.0
C1149 C 0.17677 0.43657 0.9195 0.0
H1150 H 0.77253 0.21653 0.86382 0.0
H1151 H 0.70399 0.20081 0.78163 0.0
H1152 H 0.73195 0.17151 0.89527 0.0
H1153 H 0.66237 0.15868 0.81473 0.0
H1154 H 0.59477 0.06993 0.86096 0.0
H1155 H 0.64209 0.10812 0.82678 0.0
H1156 H 0.684 0.15065 0.93472 0.0
H1157 H 0.63801 0.11015 0.96768 0.0
C1158 C 0.74878 0.20349 0.85249 0.0
C1159 C 0.7419 0.21206 0.81974 0.0
C1160 C 0.72508 0.17783 0.87091 0.0
C1161 C 0.69338 0.16055 0.85771 0.0
C1162 C 0.68656 0.16996 0.8254 0.0
C1163 C 0.71047 0.19486 0.80656 0.0
C1164 C 0.61467 0.08692 0.87703 0.0
C1165 C 0.61281 0.0868 0.91686 0.0
C1166 C 0.64169 0.10946 0.85762 0.0
C1167 C 0.66703 0.13365 0.87777 0.0
C1168 C 0.6656 0.1326 0.91761 0.0
C1169 C 0.63909 0.10926 0.93674 0.0
H1170 H 0.92376 0.66752 0.81919 0.0
H1171 H 0.94196 0.75063 0.90748 0.0
H1172 H 0.93235 0.63654 0.86291 0.0
H1173 H 0.95076 0.71943 0.95166 0.0
H1174 H 1.01341 0.65799 0.98039 0.0
H1175 H 0.99568 0.69357 0.95181 0.0
H1176 H 0.90477 0.61471 0.92575 0.0
H1177 H 0.92236 0.57927 0.95388 0.0
C1178 C 0.92944 0.67906 0.8481 0.0
C1179 C 0.93234 0.71144 0.85994 0.0
C1180 C 0.93407 0.66129 0.87327 0.0
C1181 C 0.94204 0.67555 0.91078 0.0
C1182 C 0.94464 0.70789 0.9229 0.0
C1183 C 0.93947 0.72562 0.89777 0.0
C1184 C 0.98924 0.64853 0.96951 0.0
C1185 C 0.96968 0.61566 0.96847 0.0
C1186 C 0.97907 0.6689 0.95322 0.0
C1187 C 0.94922 0.65665 0.9358 0.0
C1188 C 0.92825 0.62459 0.93821 0.0
C1189 C 0.93835 0.60433 0.95438 0.0
H1190 H 0.17848 0.38848 0.18894 0.0
H1191 H 0.16305 0.30635 0.09934 0.0
H1192 H 0.16712 0.4187 0.14642 0.0
H1193 H 0.1513 0.33674 0.05644 0.0
H1194 H 0.08407 0.39613 0.03169 0.0
H1195 H 0.10368 0.36108 0.05886 0.0
H1196 H 0.19437 0.441 0.08277 0.0
H1197 H 0.175 0.47586 0.05596 0.0
C1198 C 0.17276 0.37699 0.16003 0.0
C1199 C 0.17155 0.34515 0.14739 0.0
C1200 C 0.16652 0.39432 0.13558 0.0
C1201 C 0.15855 0.38009 0.09805 0.0
C1202 C 0.15742 0.34822 0.08522 0.0
C1203 C 0.16426 0.33097 0.10961 0.0
C1204 C 0.10859 0.40593 0.04177 0.0
C1205 C 0.1276 0.43891 0.04266 0.0
C1206 C 0.11982 0.38587 0.05724 0.0
C1207 C 0.15017 0.3986 0.07367 0.0
C1208 C 0.17055 0.43078 0.07103 0.0
C1209 C 0.15941 0.4507 0.05566 0.0
H1210 H 0.24313 0.73631 0.87283 0.0
H1211 H 0.24061 0.66644 0.77011 0.0
H1212 H 0.19777 0.6955 0.90683 0.0
H1213 H 0.19487 0.62577 0.80397 0.0
H1214 H 0.08354 0.58299 0.86608 0.0
H1215 H 0.13262 0.6203 0.83186 0.0
H1216 H 0.18711 0.64019 0.92962 0.0
H1217 H 0.13831 0.60248 0.96369 0.0
C1218 C 0.2332 0.71211 0.85771 0.0
C1219 C 0.24566 0.70452 0.81891 0.0
C1220 C 0.20726 0.68874 0.87719 0.0
C1221 C 0.19276 0.6574 0.85808 0.0
C1222 C 0.20549 0.64972 0.81941 0.0
C1223 C 0.23189 0.67291 0.80017 0.0
C1224 C 0.10614 0.59496 0.88008 0.0
C1225 C 0.10699 0.58955 0.91757 0.0
C1226 C 0.13426 0.61628 0.86044 0.0
C1227 C 0.16371 0.63321 0.87807 0.0
C1228 C 0.16473 0.62759 0.91535 0.0
C1229 C 0.13685 0.60577 0.93471 0.0
H1230 H 0.34596 0.16796 0.91966 0.0
H1231 H 0.43664 0.18993 0.83835 0.0
H1232 H 0.37545 0.15645 0.96455 0.0
H1233 H 0.46588 0.17785 0.88272 0.0
H1234 H 0.51548 0.15754 0.96828 0.0
H1235 H 0.48757 0.18865 0.94635 0.0
H1236 H 0.39331 0.10928 0.95644 0.0
H1237 H 0.42107 0.07859 0.97799 0.0
C1238 C 0.37241 0.17113 0.9118 0.0
C1239 C 0.38884 0.17928 0.87521 0.0
C1240 C 0.38925 0.1644 0.93743 0.0
C1241 C 0.4229 0.1659 0.92704 0.0
C1242 C 0.44005 0.17666 0.89178 0.0
C1243 C 0.42318 0.18318 0.86611 0.0
C1244 C 0.4886 0.1473 0.96694 0.0
C1245 C 0.47048 0.11553 0.97411 0.0
C1246 C 0.47267 0.16497 0.9542 0.0
C1247 C 0.43831 0.15127 0.94919 0.0
C1248 C 0.41971 0.12068 0.96014 0.0
C1249 C 0.43568 0.10295 0.97222 0.0
H1250 H 0.9138 0.33263 0.7837 0.0
H1251 H 0.83001 0.34865 0.86228 0.0
H1252 H 0.95258 0.36948 0.82742 0.0
H1253 H 0.86974 0.38672 0.90602 0.0
H1254 H 0.96879 0.47922 0.93974 0.0
H1255 H 0.92367 0.44313 0.9019 0.0
H1256 H 0.95968 0.36494 0.8983 0.0
H1257 H 1.00443 0.40057 0.93622 0.0
C1258 C 0.90356 0.34403 0.81033 0.0
C1259 C 0.86863 0.33706 0.8199 0.0
C1260 C 0.92589 0.36515 0.83535 0.0
C1261 C 0.91406 0.38044 0.87029 0.0
C1262 C 0.87936 0.37497 0.87925 0.0
C1263 C 0.85672 0.35326 0.85429 0.0
C1264 C 0.96686 0.45424 0.93118 0.0
C1265 C 0.99041 0.44282 0.94066 0.0
C1266 C 0.94092 0.43361 0.90981 0.0
C1267 C 0.93842 0.40141 0.89712 0.0
C1268 C 0.96125 0.38978 0.90761 0.0
C1269 C 0.98682 0.41018 0.92936 0.0
H1270 H 0.70679 0.80309 0.7918 0.0
H1271 H 0.79815 0.87513 0.82843 0.0
H1272 H 0.67515 0.83713 0.82577 0.0
H1273 H 0.76616 0.90831 0.86554 0.0
H1274 H 0.70106 0.97461 0.90578 0.0
H1275 H 0.73635 0.94305 0.8711 0.0
H1276 H 0.65098 0.85535 0.88278 0.0
H1277 H 0.61621 0.88667 0.91466 0.0
C1278 C 0.72024 0.82601 0.80768 0.0
C1279 C 0.75525 0.83563 0.80778 0.0
C1280 C 0.70184 0.84568 0.82787 0.0
C1281 C 0.71745 0.87576 0.84978 0.0
C1282 C 0.75269 0.88563 0.84933 0.0
C1283 C 0.77121 0.86612 0.8284 0.0
C1284 C 0.69001 0.94858 0.90087 0.0
C1285 C 0.65549 0.93341 0.91263 0.0
C1286 C 0.7103 0.93025 0.88095 0.0
C1287 C 0.69681 0.89612 0.87276 0.0
C1288 C 0.66262 0.88131 0.88651 0.0
C1289 C 0.64245 0.89949 0.90546 0.0
H1290 H 0.89101 0.76229 0.17587 0.0
H1291 H 0.81272 0.67598 0.20953 0.0
H1292 H 0.9245 0.73034 0.13983 0.0
H1293 H 0.84699 0.64391 0.17493 0.0
H1294 H 0.90651 0.59011 0.08226 0.0
H1295 H 0.8703 0.621 0.11536 0.0
H1296 H 0.95834 0.70193 0.1457 0.0
H1297 H 0.99402 0.6716 0.11215 0.0
C1298 C 0.88073 0.73644 0.17556 0.0
C1299 C 0.84871 0.72201 0.19562 0.0
C1300 C 0.90033 0.71792 0.15513 0.0
C1301 C 0.88899 0.6841 0.15422 0.0
C1302 C 0.85683 0.66965 0.17421 0.0
C1303 C 0.83712 0.68822 0.19451 0.0
C1304 C 0.91812 0.6145 0.09599 0.0
C1305 C 0.95346 0.62809 0.09422 0.0
C1306 C 0.89725 0.63234 0.11528 0.0
C1307 C 0.91097 0.66445 0.13344 0.0
C1308 C 0.94635 0.67775 0.13168 0.0
C1309 C 0.96705 0.66004 0.11248 0.0
H1310 H 0.31205 0.84249 0.15161 0.0
H1311 H 0.37943 0.88074 0.23909 0.0
H1312 H 0.35156 0.88142 0.10993 0.0
H1313 H 0.41859 0.91951 0.19792 0.0
H1314 H 0.47901 0.99636 0.12233 0.0
H1315 H 0.42889 0.96736 0.16408 0.0
H1316 H 0.40934 0.88435 0.0756 0.0
H1317 H 0.45927 0.91303 0.0345 0.0
C1318 C 0.33487 0.8597 0.16227 0.0
C1319 C 0.34281 0.85843 0.19843 0.0
C1320 C 0.35758 0.88188 0.13839 0.0
C1321 C 0.38834 0.90355 0.15053 0.0
C1322 C 0.39508 0.90346 0.18775 0.0
C1323 C 0.37274 0.88104 0.21124 0.0
C1324 C 0.46346 0.97224 0.11156 0.0
C1325 C 0.47315 0.95686 0.07533 0.0
C1326 C 0.43491 0.95555 0.13549 0.0
C1327 C 0.41515 0.92345 0.12325 0.0
C1328 C 0.42371 0.90906 0.08587 0.0
C1329 C 0.45246 0.92544 0.0624 0.0
H1330 H 0.74851 0.25693 0.14143 0.0
H1331 H 0.7406 0.17803 0.19897 0.0
H1332 H 0.70735 0.22007 0.09956 0.0
H1333 H 0.69856 0.14144 0.15853 0.0
H1334 H 0.63613 0.0769 0.06566 0.0
H1335 H 0.68456 0.11317 0.09751 0.0
H1336 H 0.64898 0.19228 0.10394 0.0
H1337 H 0.60146 0.15633 0.07079 0.0
C1338 C 0.73818 0.23163 0.14489 0.0
C1339 C 0.74763 0.2205 0.17377 0.0
C1340 C 0.71428 0.2105 0.12117 0.0
C1341 C 0.69904 0.1777 0.12588 0.0
C1342 C 0.70981 0.16637 0.15361 0.0
C1343 C 0.73395 0.18745 0.17702 0.0
C1344 C 0.63879 0.1021 0.07364 0.0
C1345 C 0.61478 0.11362 0.06572 0.0
C1346 C 0.66653 0.12293 0.09213 0.0
C1347 C 0.67085 0.15581 0.10358 0.0
C1348 C 0.64703 0.16734 0.09504 0.0
C1349 C 0.61953 0.1466 0.07619 0.0
H1350 H 0.78201 0.68435 0.80694 0.0
H1351 H 0.70284 0.72303 0.81321 0.0
H1352 H 0.74452 0.64436 0.84875 0.0
H1353 H 0.66596 0.68357 0.85465 0.0
H1354 H 0.62949 0.64562 0.9679 0.0
H1355 H 0.67422 0.67934 0.92582 0.0
H1356 H 0.68075 0.59467 0.84833 0.0
H1357 H 0.63514 0.56037 0.89087 0.0
C1358 C 0.75657 0.68408 0.81685 0.0
C1359 C 0.74533 0.70677 0.80665 0.0
C1360 C 0.73517 0.66117 0.84058 0.0
C1361 C 0.70249 0.66106 0.85505 0.0
C1362 C 0.69113 0.68325 0.84406 0.0
C1363 C 0.7122 0.70572 0.82009 0.0
C1364 C 0.64099 0.63405 0.94241 0.0
C1365 C 0.6286 0.6004 0.93245 0.0
C1366 C 0.66649 0.65339 0.91826 0.0
C1367 C 0.68041 0.63963 0.88351 0.0
C1368 C 0.67028 0.60581 0.87498 0.0
C1369 C 0.6444 0.58623 0.89936 0.0
H1370 H 0.47192 0.6968 0.8258 0.0
H1371 H 0.36528 0.65142 0.85726 0.0
H1372 H 0.48313 0.68268 0.88367 0.0
H1373 H 0.37644 0.63655 0.91513 0.0
H1374 H 0.43373 0.56518 0.933 0.0
H1375 H 0.4072 0.59444 0.90639 0.0
H1376 H 0.47313 0.68451 0.9598 0.0
H1377 H 0.49897 0.65485 0.98776 0.0
C1378 C 0.45089 0.6847 0.8459 0.0
C1379 C 0.41784 0.6749 0.83721 0.0
C1380 C 0.45722 0.67686 0.87916 0.0
C1381 C 0.43061 0.6585 0.90381 0.0
C1382 C 0.39733 0.65082 0.89661 0.0
C1383 C 0.39097 0.65925 0.86362 0.0
C1384 C 0.44151 0.59115 0.94042 0.0
C1385 C 0.46851 0.6079 0.96198 0.0
C1386 C 0.4262 0.6079 0.92543 0.0
C1387 C 0.43838 0.64173 0.93078 0.0
C1388 C 0.46334 0.65841 0.95534 0.0
C1389 C 0.47806 0.6415 0.9713 0.0
H1390 H 0.36167 0.37641 0.81666 0.0
H1391 H 0.38681 0.29447 0.82759 0.0
H1392 H 0.40444 0.41122 0.85748 0.0
H1393 H 0.43038 0.32939 0.86755 0.0
H1394 H 0.4872 0.3967 0.96709 0.0
H1395 H 0.44292 0.36073 0.92823 0.0
H1396 H 0.4623 0.436 0.8589 0.0
H1397 H 0.5053 0.4719 0.89828 0.0
C1398 C 0.37664 0.36585 0.82735 0.0
C1399 C 0.37088 0.3326 0.81837 0.0
C1400 C 0.40138 0.38589 0.85081 0.0
C1401 C 0.4214 0.37343 0.86593 0.0
C1402 C 0.4154 0.34005 0.85708 0.0
C1403 C 0.39046 0.31996 0.83381 0.0
C1404 C 0.48194 0.40554 0.94358 0.0
C1405 C 0.4999 0.43738 0.93613 0.0
C1406 C 0.45658 0.38481 0.92103 0.0
C1407 C 0.44856 0.39526 0.89023 0.0
C1408 C 0.46691 0.42702 0.88271 0.0
C1409 C 0.49195 0.4477 0.9053 0.0
H1410 H 0.75752 0.35937 0.93402 0.0
H1411 H 0.67018 0.28443 0.9798 0.0
H1412 H 0.7406 0.39922 0.97974 0.0
H1413 H 0.65747 0.32382 0.03022 0.0
H1414 H 0.59449 0.37659 0.99872 0.0
H1415 H 0.6264 0.3454 0.00699 0.0
H1416 H 0.71459 0.43182 0.01793 0.0
H1417 H 0.68196 0.46314 0.00758 0.0
C1418 C 0.73508 0.3511 0.95426 0.0
C1419 C 0.71234 0.31918 0.94911 0.0
C1420 C 0.72591 0.37414 0.98167 0.0
C1421 C 0.69489 0.36485 1.00542 0.0
C1422 C 0.67942 0.33194 0.00921 0.0
C1423 C 0.68704 0.30907 0.98007 0.0
C1424 C 0.62073 0.38904 1.00269 0.0
C1425 C 0.63608 0.42207 1.00064 0.0
C1426 C 0.63917 0.37115 0.00859 0.0
C1427 C 0.67376 0.38571 0.01252 0.0
C1428 C 0.68839 0.41943 0.01386 0.0
C1429 C 0.6698 0.4374 0.00757 0.0
H1430 H 0.71454 0.38666 0.15912 0.0
H1431 H 0.63378 0.39666 0.24711 0.0
H1432 H 0.68616 0.39482 0.11015 0.0
H1433 H 0.60513 0.40419 0.19815 0.0
H1434 H 0.56092 0.41373 0.09458 0.0
H1435 H 0.58092 0.38156 0.12683 0.0
H1436 H 0.68036 0.45356 0.11873 0.0
H1437 H 0.66047 0.48585 0.0884 0.0
C1438 C 0.69014 0.38941 0.16764 0.0
C1439 C 0.67646 0.39159 0.20678 0.0
C1440 C 0.67391 0.39392 0.13971 0.0
C1441 C 0.64355 0.4001 0.15055 0.0
C1442 C 0.62832 0.39909 0.18907 0.0
C1443 C 0.64484 0.39518 0.21708 0.0
C1444 C 0.5871 0.42228 0.09932 0.0
C1445 C 0.60903 0.45247 0.08974 0.0
C1446 C 0.59851 0.4039 0.11748 0.0
C1447 C 0.63217 0.4151 0.1249 0.0
C1448 C 0.6544 0.44422 0.11292 0.0
C1449 C 0.64286 0.4629 0.09606 0.0
H1450 H 0.69586 0.7532 0.2001 0.0
H1451 H 0.73516 0.67674 0.19235 0.0
H1452 H 0.65116 0.71708 0.16225 0.0
H1453 H 0.69239 0.64125 0.15245 0.0
H1454 H 0.59782 0.57214 0.10738 0.0
H1455 H 0.63908 0.60906 0.14821 0.0
H1456 H 0.63181 0.68953 0.10536 0.0
H1457 H 0.58817 0.65196 0.06668 0.0
C1458 C 0.69505 0.72866 0.19011 0.0
C1459 C 0.71886 0.7178 0.1999 0.0
C1460 C 0.66947 0.70783 0.16792 0.0
C1461 C 0.66731 0.67561 0.15402 0.0
C1462 C 0.69187 0.66524 0.16329 0.0
C1463 C 0.71684 0.6858 0.18617 0.0
C1464 C 0.6048 0.59777 0.10697 0.0
C1465 C 0.58949 0.60902 0.08385 0.0
C1466 C 0.62903 0.6192 0.13017 0.0
C1467 C 0.63983 0.65284 0.13024 0.0
C1468 C 0.62422 0.66408 0.10703 0.0
C1469 C 0.59914 0.6425 0.08455 0.0
H1470 H 0.3833 0.68082 0.01976 0.0
H1471 H 0.32734 0.6644 0.13281 0.0
H1472 H 0.37441 0.62386 1.00371 0.0
H1473 H 0.31635 0.60736 0.11543 0.0
H1474 H 0.40262 0.54288 0.99796 0.0
H1475 H 0.35769 0.56458 1.00195 0.0
H1476 H 0.37233 0.60557 0.1209 0.0
H1477 H 0.41737 0.58482 0.11638 0.0
C1478 C 0.36766 0.66495 0.0405 0.0
C1479 C 0.35863 0.67749 0.07874 0.0
C1480 C 0.36188 0.632 0.03096 0.0
C1481 C 0.34681 0.61163 0.05964 0.0
C1482 C 0.32948 0.62294 0.09353 0.0
C1483 C 0.33598 0.65596 0.10353 0.0
C1484 C 0.39519 0.55542 0.0254 0.0
C1485 C 0.41404 0.56314 0.05658 0.0
C1486 C 0.36932 0.56765 0.02769 0.0
C1487 C 0.36168 0.58717 0.06144 0.0
C1488 C 0.37729 0.59053 0.09438 0.0
C1489 C 0.40351 0.57895 0.09179 0.0
H1490 H 0.41126 0.34516 0.20273 0.0
H1491 H 0.32646 0.36495 0.17905 0.0
H1492 H 0.44958 0.38942 0.16891 0.0
H1493 H 0.36527 0.40866 0.14346 0.0
H1494 H 0.50668 0.49332 0.14931 0.0
H1495 H 0.46251 0.45224 0.18317 0.0
H1496 H 0.4129 0.4148 0.08023 0.0
H1497 H 0.45768 0.45585 0.04557 0.0
C1498 C 0.40071 0.35916 0.19078 0.0
C1499 C 0.36571 0.35204 0.19481 0.0
C1500 C 0.42274 0.38439 0.17109 0.0
C1501 C 0.41042 0.40275 0.15399 0.0
C1502 C 0.37543 0.39496 0.15651 0.0
C1503 C 0.35328 0.36999 0.17696 0.0
C1504 C 0.4862 0.47673 0.13382 0.0
C1505 C 0.48605 0.47781 0.09447 0.0
C1506 C 0.46094 0.45308 0.1533 0.0
C1507 C 0.43454 0.43009 0.13421 0.0
C1508 C 0.43299 0.43226 0.09563 0.0
C1509 C 0.45863 0.45579 0.07585 0.0
H1510 H 0.81626 0.67869 0.67759 0.0
H1511 H 0.90942 0.75722 0.69374 0.0
H1512 H 0.84786 0.64367 0.64389 0.0
H1513 H 0.94094 0.72241 0.66099 0.0
H1514 H 0.98882 0.64502 0.64146 0.0
H1515 H 0.95574 0.67899 0.67015 0.0
H1516 H 0.88499 0.62972 0.58749 0.0
H1517 H 0.91838 0.59489 0.5587 0.0
C1518 C 0.84348 0.68865 0.67396 0.0
C1519 C 0.86006 0.72091 0.68951 0.0
C1520 C 0.86175 0.66844 0.65443 0.0
C1521 C 0.89732 0.67965 0.64989 0.0
C1522 C 0.91373 0.71221 0.66454 0.0
C1523 C 0.89552 0.73237 0.68371 0.0
C1524 C 0.96629 0.64121 0.62904 0.0
C1525 C 0.95659 0.61678 0.59747 0.0
C1526 C 0.94722 0.66111 0.64556 0.0
C1527 C 0.91743 0.65769 0.63136 0.0
C1528 C 0.9075 0.6332 0.59974 0.0
C1529 C 0.92681 0.61317 0.58299 0.0
H1530 H 0.36294 0.81248 0.63447 0.0
H1531 H 0.37143 0.87457 0.74398 0.0
H1532 H 0.40411 0.85713 0.60209 0.0
H1533 H 0.41292 0.91849 0.71246 0.0
H1534 H 0.44927 1.00048 0.64231 0.0
H1535 H 0.41289 0.95387 0.67211 0.0
H1536 H 0.46189 0.8943 0.59231 0.0
H1537 H 0.49812 0.9415 0.561 0.0
C1538 C 0.37385 0.83556 0.65163 0.0
C1539 C 0.36362 0.84016 0.69168 0.0
C1540 C 0.39758 0.86112 0.63316 0.0
C1541 C 0.41159 0.89175 0.65446 0.0
C1542 C 0.40209 0.89567 0.69477 0.0
C1543 C 0.37829 0.87039 0.71298 0.0
C1544 C 0.45272 0.97762 0.63105 0.0
C1545 C 0.477 0.97504 0.59922 0.0
C1546 C 0.43178 0.9507 0.64845 0.0
C1547 C 0.43451 0.92015 0.63507 0.0
C1548 C 0.45886 0.91737 0.60329 0.0
C1549 C 0.47985 0.9445 0.58554 0.0
H1550 H 0.17098 0.37771 0.68924 0.0
H1551 H 0.25043 0.37417 0.59598 0.0
H1552 H 0.14121 0.38986 0.64547 0.0
H1553 H 0.21996 0.38493 0.55192 0.0
H1554 H 0.19034 0.46541 0.51931 0.0
H1555 H 0.21281 0.43574 0.55041 0.0
H1556 H 0.1118 0.37444 0.58678 0.0
H1557 H 0.0891 0.40472 0.55532 0.0
C1558 C 0.18179 0.37893 0.65923 0.0
C1559 C 0.21343 0.37562 0.64632 0.0
C1560 C 0.16447 0.38542 0.63401 0.0
C1561 C 0.17842 0.38872 0.59532 0.0
C1562 C 0.20879 0.38296 0.58171 0.0
C1563 C 0.22613 0.37654 0.60693 0.0
C1564 C 0.17288 0.44524 0.53334 0.0
C1565 C 0.13799 0.43758 0.53535 0.0
C1566 C 0.18578 0.42799 0.55089 0.0
C1567 C 0.16411 0.40276 0.5712 0.0
C1568 C 0.1291 0.39393 0.57153 0.0
C1569 C 0.11612 0.41107 0.5534 0.0
H1570 H 0.7058 0.20217 0.71206 0.0
H1571 H 0.7922 0.20538 0.62659 0.0
H1572 H 0.66961 0.16073 0.66943 0.0
H1573 H 0.7554 0.16379 0.58284 0.0
H1574 H 0.68137 0.06293 0.53719 0.0
H1575 H 0.72095 0.10729 0.57455 0.0
H1576 H 0.64552 0.15248 0.61183 0.0
H1577 H 0.60573 0.10773 0.57561 0.0
C1578 C 0.71706 0.19444 0.68377 0.0
C1579 C 0.75189 0.20754 0.67253 0.0
C1580 C 0.69617 0.17061 0.65914 0.0
C1581 C 0.70936 0.15913 0.62232 0.0
C1582 C 0.74434 0.17198 0.61103 0.0
C1583 C 0.76542 0.19591 0.63596 0.0
C1584 C 0.67331 0.08246 0.55315 0.0
C1585 C 0.64018 0.08153 0.55378 0.0
C1586 C 0.69612 0.10802 0.57443 0.0
C1587 C 0.6864 0.13337 0.59665 0.0
C1588 C 0.6537 0.13303 0.59586 0.0
C1589 C 0.63086 0.1074 0.5749 0.0
H1590 H 0.84865 0.31535 0.37303 0.0
H1591 H 0.86571 0.38407 0.29533 0.0
H1592 H 0.8861 0.35757 0.41582 0.0
H1593 H 0.90377 0.42577 0.33737 0.0
H1594 H 1.00171 0.47193 0.39979 0.0
H1595 H 0.96358 0.42805 0.36012 0.0
H1596 H 0.8836 0.41875 0.45522 0.0
H1597 H 0.92154 0.46348 0.49498 0.0
C1598 C 0.86055 0.33939 0.36505 0.0
C1599 C 0.85429 0.34657 0.331 0.0
C1600 C 0.88174 0.36346 0.38955 0.0
C1601 C 0.89764 0.39477 0.37974 0.0
C1602 C 0.89174 0.40177 0.34545 0.0
C1603 C 0.86995 0.37799 0.32154 0.0
C1604 C 0.97605 0.46049 0.41238 0.0
C1605 C 0.96453 0.47125 0.45044 0.0
C1606 C 0.95429 0.43546 0.38962 0.0
C1607 C 0.92081 0.42019 0.40473 0.0
C1608 C 0.90941 0.4302 0.44309 0.0
C1609 C 0.93101 0.45581 0.46567 0.0
H1610 H 0.76484 0.87291 0.28015 0.0
H1611 H 0.71285 0.80397 0.35959 0.0
H1612 H 0.73124 0.90631 0.31269 0.0
H1613 H 0.681 0.83855 0.39372 0.0
H1614 H 0.66452 0.9396 0.46194 0.0
H1615 H 0.6987 0.90562 0.43209 0.0
H1616 H 0.66021 0.8917 0.32387 0.0
H1617 H 0.62487 0.92393 0.35397 0.0
C1618 C 0.74676 0.86495 0.30496 0.0
C1619 C 0.74243 0.83559 0.31744 0.0
C1620 C 0.72742 0.88426 0.32367 0.0
C1621 C 0.70364 0.87549 0.35628 0.0
C1622 C 0.69942 0.84642 0.36912 0.0
C1623 C 0.71798 0.82655 0.34957 0.0
C1624 C 0.66308 0.92909 0.43193 0.0
C1625 C 0.64145 0.93448 0.41074 0.0
C1626 C 0.68274 0.90956 0.41475 0.0
C1627 C 0.68231 0.89582 0.37542 0.0
C1628 C 0.66128 0.90182 0.35412 0.0
C1629 C 0.64089 0.92034 0.37155 0.0
H1630 H 0.23551 0.74978 0.37636 0.0
H1631 H 0.22897 0.68664 0.26756 0.0
H1632 H 0.19621 0.70457 0.40942 0.0
H1633 H 0.18918 0.64231 0.29972 0.0
H1634 H 0.15513 0.56103 0.37005 0.0
H1635 H 0.19056 0.60808 0.34075 0.0
H1636 H 0.13863 0.66558 0.41954 0.0
H1637 H 0.10316 0.61774 0.45046 0.0
C1638 C 0.22544 0.72637 0.35947 0.0
C1639 C 0.23579 0.72174 0.31941 0.0
C1640 C 0.20277 0.70046 0.37836 0.0
C1641 C 0.18961 0.66946 0.35748 0.0
C1642 C 0.19924 0.66544 0.31716 0.0
C1643 C 0.22211 0.69101 0.29855 0.0
C1644 C 0.15078 0.58349 0.3813 0.0
C1645 C 0.12578 0.58517 0.41268 0.0
C1646 C 0.17122 0.61071 0.36412 0.0
C1647 C 0.1674 0.64084 0.3772 0.0
C1648 C 0.14248 0.64285 0.4087 0.0
C1649 C 0.12192 0.61534 0.42625 0.0
H1650 H 0.37404 0.23098 0.47991 0.0
H1651 H 0.44674 0.24186 0.37724 0.0
H1652 H 0.39502 0.19266 0.49755 0.0
H1653 H 0.46777 0.20342 0.39499 0.0
H1654 H 0.51782 0.16094 0.46822 0.0
H1655 H 0.49818 0.20036 0.45025 0.0
H1656 H 0.39545 0.1361 0.46894 0.0
H1657 H 0.4149 0.09674 0.48636 0.0
C1658 C 0.39456 0.22523 0.46117 0.0
C1659 C 0.4087 0.23941 0.42714 0.0
C1660 C 0.40645 0.20317 0.47117 0.0
C1661 C 0.43306 0.19508 0.44766 0.0
C1662 C 0.4474 0.20939 0.41378 0.0
C1663 C 0.43516 0.23113 0.40346 0.0
C1664 C 0.49107 0.1553 0.46847 0.0
C1665 C 0.46794 0.12569 0.47855 0.0
C1666 C 0.47986 0.17775 0.458 0.0
C1667 C 0.44528 0.17129 0.45821 0.0
C1668 C 0.42221 0.14184 0.46874 0.0
C1669 C 0.43341 0.11923 0.4785 0.0
H1670 H 0.64969 0.80871 0.63361 0.0
H1671 H 0.72256 0.82577 0.53162 0.0
H1672 H 0.62552 0.84587 0.61811 0.0
H1673 H 0.69873 0.86299 0.51645 0.0
H1674 H 0.67678 0.95888 0.54014 0.0
H1675 H 0.69628 0.91898 0.55559 0.0
H1676 H 0.59546 0.84963 0.55786 0.0
H1677 H 0.57565 0.88967 0.54129 0.0
C1678 C 0.66051 0.82043 0.60796 0.0
C1679 C 0.68801 0.81443 0.58382 0.0
C1680 C 0.64653 0.8414 0.59895 0.0
C1681 C 0.66027 0.85719 0.56609 0.0
C1682 C 0.68771 0.85113 0.54199 0.0
C1683 C 0.70126 0.8298 0.55059 0.0
C1684 C 0.65858 0.93521 0.54402 0.0
C1685 C 0.6246 0.92746 0.53939 0.0
C1686 C 0.66987 0.91233 0.55269 0.0
C1687 C 0.64742 0.88127 0.55776 0.0
C1688 C 0.61324 0.87351 0.55413 0.0
C1689 C 0.60197 0.89634 0.54456 0.0
H1690 H 0.73706 0.2423 0.37623 0.0
H1691 H 0.72017 0.18093 0.26703 0.0
H1692 H 0.69544 0.19872 0.41011 0.0
H1693 H 0.67854 0.13792 0.30019 0.0
H1694 H 0.60102 0.11509 0.45457 0.0
H1695 H 0.63576 0.16223 0.42222 0.0
H1696 H 0.68299 0.10271 0.33967 0.0
H1697 H 0.64834 0.05621 0.37076 0.0
C1698 C 0.724 0.21971 0.35947 0.0
C1699 C 0.73207 0.21483 0.31903 0.0
C1700 C 0.70013 0.19477 0.37881 0.0
C1701 C 0.684 0.16452 0.35798 0.0
C1702 C 0.69103 0.16051 0.31734 0.0
C1703 C 0.71487 0.18521 0.29823 0.0
C1704 C 0.61857 0.11208 0.42925 0.0
C1705 C 0.62156 0.08163 0.41525 0.0
C1706 C 0.63866 0.13915 0.41089 0.0
C1707 C 0.66202 0.13629 0.37806 0.0
C1708 C 0.66482 0.10584 0.36427 0.0
C1709 C 0.64493 0.07903 0.38241 0.0
H1710 H 0.87037 0.66936 0.3644 0.0
H1711 H 0.86672 0.71778 0.48224 0.0
H1712 H 0.91208 0.64943 0.37651 0.0
H1713 H 0.90677 0.69542 0.49515 0.0
H1714 H 0.99225 0.65921 0.50136 0.0
H1715 H 0.96374 0.69167 0.48312 0.0
H1716 H 0.90502 0.60746 0.41229 0.0
H1717 H 0.93358 0.57586 0.42956 0.0
C1718 C 0.87876 0.67629 0.39278 0.0
C1719 C 0.86466 0.695 0.42244 0.0
C1720 C 0.90245 0.66439 0.39987 0.0
C1721 C 0.91229 0.67025 0.43701 0.0
C1722 C 0.89979 0.69045 0.46618 0.0
C1723 C 0.87635 0.70282 0.45892 0.0
C1724 C 0.97375 0.64801 0.48126 0.0
C1725 C 0.96514 0.61504 0.46685 0.0
C1726 C 0.95722 0.66646 0.4711 0.0
C1727 C 0.9322 0.65222 0.44606 0.0
C1728 C 0.92456 0.61947 0.43098 0.0
C1729 C 0.94078 0.6012 0.4412 0.0
H1730 H 0.30376 0.85272 0.38722 0.0
H1731 H 0.38874 0.85671 0.29929 0.0
H1732 H 0.34054 0.89693 0.42811 0.0
H1733 H 0.42562 0.89665 0.34127 0.0
H1734 H 0.48552 0.98914 0.40255 0.0
H1735 H 0.44461 0.94881 0.36383 0.0
H1736 H 0.38197 0.91549 0.46839 0.0
H1737 H 0.42208 0.95851 0.50698 0.0
C1738 C 0.33021 0.86274 0.37671 0.0
C1739 C 0.34308 0.85092 0.33986 0.0
C1740 C 0.35155 0.8878 0.40044 0.0
C1741 C 0.38641 0.90104 0.3882 0.0
C1742 C 0.39903 0.88832 0.35173 0.0
C1743 C 0.37772 0.86439 0.32776 0.0
C1744 C 0.46296 0.97313 0.41713 0.0
C1745 C 0.45707 0.97659 0.45759 0.0
C1746 C 0.43945 0.94963 0.39496 0.0
C1747 C 0.40994 0.92789 0.41261 0.0
C1748 C 0.40403 0.93169 0.45344 0.0
C1749 C 0.42715 0.95613 0.47567 0.0
H1750 H 0.2907 0.38024 0.3227 0.0
H1751 H 0.19905 0.29876 0.31165 0.0
H1752 H 0.25791 0.41414 0.35656 0.0
H1753 H 0.16631 0.33239 0.34472 0.0
H1754 H 0.11379 0.40637 0.36497 0.0
H1755 H 0.14799 0.3735 0.3359 0.0
H1756 H 0.22201 0.42845 0.41327 0.0
H1757 H 0.18754 0.46219 0.44227 0.0
C1758 C 0.26355 0.36942 0.32744 0.0
C1759 C 0.24771 0.33665 0.31322 0.0
C1760 C 0.2446 0.38897 0.34711 0.0
C1761 C 0.20902 0.37655 0.35319 0.0
C1762 C 0.19342 0.3435 0.33993 0.0
C1763 C 0.21234 0.32401 0.32059 0.0
C1764 C 0.13729 0.41165 0.37613 0.0
C1765 C 0.14756 0.43733 0.40628 0.0
C1766 C 0.15702 0.39239 0.35942 0.0
C1767 C 0.18809 0.39773 0.37199 0.0
C1768 C 0.19853 0.42346 0.40225 0.0
C1769 C 0.17857 0.44283 0.41916 0.0
H1770 H 0.31292 0.17112 0.69622 0.0
H1771 H 0.39923 0.25823 0.68944 0.0
H1772 H 0.34772 0.13932 0.66211 0.0
H1773 H 0.43388 0.22665 0.65462 0.0
H1774 H 0.49475 0.1584 0.63646 0.0
H1775 H 0.45929 0.19027 0.66566 0.0
H1776 H 0.37943 0.12461 0.60116 0.0
H1777 H 0.4152 0.09232 0.57184 0.0
C1778 C 0.33935 0.18358 0.68752 0.0
C1779 C 0.35318 0.21739 0.69644 0.0
C1780 C 0.35935 0.16527 0.66744 0.0
C1781 C 0.39401 0.18007 0.65557 0.0
C1782 C 0.40758 0.21402 0.66371 0.0
C1783 C 0.38754 0.2323 0.68358 0.0
C1784 C 0.46969 0.15063 0.62819 0.0
C1785 C 0.45807 0.1224 0.60169 0.0
C1786 C 0.44925 0.16922 0.64493 0.0
C1787 C 0.41613 0.16034 0.63613 0.0
C1788 C 0.40452 0.13225 0.60925 0.0
C1789 C 0.42519 0.11371 0.59217 0.0
H1790 H 0.9148 0.33501 0.70334 0.0
H1791 H 0.83569 0.32545 0.63806 0.0
H1792 H 0.95307 0.3794 0.66877 0.0
H1793 H 0.87353 0.37051 0.60465 0.0
H1794 H 0.93313 0.48002 0.6051 0.0
H1795 H 0.89903 0.43034 0.63115 0.0
H1796 H 0.98234 0.39533 0.59924 0.0
H1797 H 1.01677 0.44539 0.57192 0.0
C1798 C 0.90572 0.3419 0.6811 0.0
C1799 C 0.87199 0.32675 0.67376 0.0
C1800 C 0.92768 0.36745 0.66137 0.0
C1801 C 0.9163 0.37875 0.63421 0.0
C1802 C 0.88302 0.36265 0.6257 0.0
C1803 C 0.86129 0.33685 0.64494 0.0
C1804 C 0.94441 0.46188 0.60359 0.0
C1805 C 0.97791 0.46695 0.58659 0.0
C1806 C 0.92466 0.4332 0.61831 0.0
C1807 C 0.93785 0.40877 0.61722 0.0
C1808 C 0.97146 0.41374 0.60057 0.0
C1809 C 0.99114 0.44235 0.58488 0.0
H1810 H 0.23102 0.7408 0.65851 0.0
H1811 H 0.25925 0.66648 0.68847 0.0
H1812 H 0.19505 0.70045 0.61313 0.0
H1813 H 0.22407 0.62676 0.6429 0.0
H1814 H 0.10389 0.60596 0.57795 0.0
H1815 H 0.14156 0.65021 0.61774 0.0
H1816 H 0.22305 0.61461 0.5701 0.0
H1817 H 0.18555 0.57037 0.53025 0.0
C1818 C 0.22976 0.716 0.65531 0.0
C1819 C 0.24844 0.70702 0.67679 0.0
C1820 C 0.20914 0.69293 0.62939 0.0
C1821 C 0.20711 0.66056 0.62417 0.0
C1822 C 0.22565 0.65163 0.64573 0.0
C1823 C 0.2458 0.67448 0.67192 0.0
C1824 C 0.12992 0.60771 0.57569 0.0
C1825 C 0.14162 0.58442 0.55119 0.0
C1826 C 0.15151 0.63318 0.59831 0.0
C1827 C 0.18514 0.63569 0.59721 0.0
C1828 C 0.19712 0.61303 0.57183 0.0
C1829 C 0.17566 0.58778 0.5489 0.0
loop_
_geom_bond_atom_site_label_1
_geom_bond_atom_site_label_2
_geom_bond_distance
_geom_bond_site_symmetry_2
_ccdc_geom_bond_type
Tb0 N29 2.617 . S
Tb0 N35 2.572 . S
Tb0 O44 2.465 . S
Tb0 O45 2.387 . S
Tb0 O47 2.428 . S
Tb0 O48 2.308 . S
Tb0 O52 2.349 . S
Tb0 O55 2.393 . S
Tb0 C64 2.802 . S
C1 N2 1.379 . S
C1 C4 1.416 . S
C1 C8 1.424 . S
N2 C1 1.379 . S
N2 C5 1.334 . S
N2 Tb11 2.617 . S
C3 C5 1.390 . S
C3 C6 1.339 . S
C3 H23 0.930 . S
C4 C1 1.416 . S
C4 C6 1.416 . S
C4 C10 1.448 . S
C5 N2 1.334 . S
C5 C3 1.390 . S
C5 H16 0.930 . S
C6 C3 1.339 . S
C6 C4 1.416 . S
C6 H27 0.930 . S
C7 C8 1.413 . S
C7 C9 1.427 . S
C7 C13 1.416 . S
C8 C1 1.424 . S
C8 C7 1.413 . S
C8 N12 1.361 . S
C9 C7 1.427 . S
C9 C10 1.328 . S
C9 H24 0.929 . S
C10 C4 1.448 . S
C10 C9 1.328 . S
C10 H25 0.930 . S
Tb11 N2 2.617 . S
Tb11 N12 2.572 . S
Tb11 O46 2.349 . S
Tb11 O49 2.393 . S
Tb11 O50 2.465 . S
Tb11 O51 2.387 . S
Tb11 O53 2.428 . S
Tb11 O54 2.308 . S
Tb11 C75 2.802 . S
N12 C8 1.361 . S
N12 Tb11 2.572 . S
N12 C14 1.340 . S
C13 C7 1.416 . S
C13 C15 1.332 . S
C13 H21 0.931 . S
C14 N12 1.340 . S
C14 C15 1.407 . S
C14 H20 0.930 . S
C15 C13 1.332 . S
C15 C14 1.407 . S
C15 H17 0.929 . S
H16 C5 0.930 . S
H17 C15 0.929 . S
H18 C33 0.930 . S
H19 C40 0.929 . S
H20 C14 0.930 . S
H21 C13 0.931 . S
H22 C36 0.930 . S
H23 C3 0.930 . S
H24 C9 0.929 . S
H25 C10 0.930 . S
H26 C31 0.930 . S
H27 C6 0.930 . S
H28 C39 0.931 . S
N29 Tb0 2.617 . S
N29 C30 1.379 . S
N29 C33 1.334 . S
C30 N29 1.379 . S
C30 C32 1.416 . S
C30 C38 1.424 . S
C31 H26 0.930 . S
C31 C33 1.390 . S
C31 C34 1.339 . S
C32 C30 1.416 . S
C32 C34 1.416 . S
C32 C65 1.448 . S
C33 H18 0.930 . S
C33 N29 1.334 . S
C33 C31 1.390 . S
C34 C31 1.339 . S
C34 C32 1.416 . S
C34 H41 0.930 . S
N35 Tb0 2.572 . S
N35 C36 1.340 . S
N35 C38 1.361 . S
C36 H22 0.930 . S
C36 N35 1.340 . S
C36 C40 1.407 . S
C37 C38 1.413 . S
C37 C39 1.416 . S
C37 C66 1.427 . S
C38 C30 1.424 . S
C38 N35 1.361 . S
C38 C37 1.413 . S
C39 H28 0.931 . S
C39 C37 1.416 . S
C39 C40 1.332 . S
C40 H19 0.929 . S
C40 C36 1.407 . S
C40 C39 1.332 . S
H41 C34 0.930 . S
H42 C65 0.930 . S
H43 C66 0.929 . S
O44 Tb0 2.465 . S
O44 C64 1.264 . S
O45 Tb0 2.387 . S
O45 C56 1.264 . S
O46 Tb11 2.349 . S
O46 C56 1.243 . S
O47 Tb0 2.428 . S
O47 C64 1.256 . S
O48 Tb0 2.308 . S
O48 C63 1.266 . S
O49 Tb11 2.393 . S
O49 C63 1.248 . S
O50 Tb11 2.465 . S
O50 C75 1.264 . S
O51 Tb11 2.387 . S
O51 C67 1.264 . S
O52 Tb0 2.349 . S
O52 C67 1.243 . S
O53 Tb11 2.428 . S
O53 C75 1.256 . S
O54 Tb11 2.308 . S
O54 C74 1.266 . S
O55 Tb0 2.393 . S
O55 C74 1.248 . S
C56 O45 1.264 . S
C56 O46 1.243 . S
C57 C60 1.399 . S
C57 C62 1.383 . S
C57 C64 1.496 . S
C58 C59 1.399 . S
C58 C62 1.389 . S
C59 C58 1.399 . S
C59 C61 1.380 . S
C59 H76 0.929 . S
C60 C57 1.399 . S
C60 C61 1.392 . S
C60 H77 0.929 . S
C61 C59 1.380 . S
C61 C60 1.392 . S
C61 H78 0.929 . S
C62 C57 1.383 . S
C62 C58 1.389 . S
C62 H79 0.931 . S
C63 O48 1.266 . S
C63 O49 1.248 . S
C64 Tb0 2.802 . S
C64 O44 1.264 . S
C64 O47 1.256 . S
C64 C57 1.496 . S
C65 C32 1.448 . S
C65 H42 0.930 . S
C65 C66 1.328 . S
C66 C37 1.427 . S
C66 H43 0.929 . S
C66 C65 1.328 . S
C67 O51 1.264 . S
C67 O52 1.243 . S
C68 C71 1.399 . S
C68 C72 1.383 . S
C68 C75 1.496 . S
C69 C70 1.399 . S
C69 C72 1.389 . S
C70 C69 1.399 . S
C70 C73 1.380 . S
C70 H80 0.929 . S
C71 C68 1.399 . S
C71 C73 1.392 . S
C71 H81 0.929 . S
C72 C68 1.383 . S
C72 C69 1.389 . S
C72 H82 0.931 . S
C73 C70 1.380 . S
C73 C71 1.392 . S
C73 H83 0.929 . S
C74 O54 1.266 . S
C74 O55 1.248 . S
C75 Tb11 2.802 . S
C75 O50 1.264 . S
C75 O53 1.256 . S
C75 C68 1.496 . S
H76 C59 0.929 . S
H77 C60 0.929 . S
H78 C61 0.929 . S
H79 C62 0.931 . S
H80 C70 0.929 . S
H81 C71 0.929 . S
H82 C72 0.931 . S
H83 C73 0.929 . S
Tb84 N113 2.617 . S
Tb84 N119 2.572 . S
Tb84 O128 2.465 . S
Tb84 O129 2.387 . S
Tb84 O131 2.428 . S
Tb84 O132 2.308 . S
Tb84 O136 2.349 . S
Tb84 O139 2.393 . S
Tb84 C148 2.802 . S
C85 N86 1.379 . S
C85 C88 1.416 . S
C85 C92 1.424 . S
N86 C85 1.379 . S
N86 C89 1.334 . S
N86 Tb95 2.617 . S
C87 C89 1.390 . S
C87 C90 1.339 . S
C87 H107 0.930 . S
C88 C85 1.416 . S
C88 C90 1.416 . S
C88 C94 1.448 . S
C89 N86 1.334 . S
C89 C87 1.390 . S
C89 H100 0.930 . S
C90 C87 1.339 . S
C90 C88 1.416 . S
C90 H111 0.930 . S
C91 C92 1.413 . S
C91 C93 1.427 . S
C91 C97 1.416 . S
C92 C85 1.424 . S
C92 C91 1.413 . S
C92 N96 1.361 . S
C93 C91 1.427 . S
C93 C94 1.328 . S
C93 H108 0.929 . S
C94 C88 1.448 . S
C94 C93 1.328 . S
C94 H109 0.930 . S
Tb95 N86 2.617 . S
Tb95 N96 2.572 . S
Tb95 O130 2.349 . S
Tb95 O133 2.393 . S
Tb95 O134 2.465 . S
Tb95 O135 2.387 . S
Tb95 O137 2.428 . S
Tb95 O138 2.308 . S
Tb95 C159 2.802 . S
N96 C92 1.361 . S
N96 Tb95 2.572 . S
N96 C98 1.340 . S
C97 C91 1.416 . S
C97 C99 1.332 . S
C97 H105 0.931 . S
C98 N96 1.340 . S
C98 C99 1.407 . S
C98 H104 0.930 . S
C99 C97 1.332 . S
C99 C98 1.407 . S
C99 H101 0.929 . S
H100 C89 0.930 . S
H101 C99 0.929 . S
H102 C117 0.930 . S
H103 C124 0.929 . S
H104 C98 0.930 . S
H105 C97 0.931 . S
H106 C120 0.930 . S
H107 C87 0.930 . S
H108 C93 0.929 . S
H109 C94 0.930 . S
H110 C115 0.930 . S
H111 C90 0.930 . S
H112 C123 0.931 . S
N113 Tb84 2.617 . S
N113 C114 1.379 . S
N113 C117 1.334 . S
C114 N113 1.379 . S
C114 C116 1.416 . S
C114 C122 1.424 . S
C115 H110 0.930 . S
C115 C117 1.390 . S
C115 C118 1.339 . S
C116 C114 1.416 . S
C116 C118 1.416 . S
C116 C149 1.448 . S
C117 H102 0.930 . S
C117 N113 1.334 . S
C117 C115 1.390 . S
C118 C115 1.339 . S
C118 C116 1.416 . S
C118 H125 0.930 . S
N119 Tb84 2.572 . S
N119 C120 1.340 . S
N119 C122 1.361 . S
C120 H106 0.930 . S
C120 N119 1.340 . S
C120 C124 1.407 . S
C121 C122 1.413 . S
C121 C123 1.416 . S
C121 C150 1.427 . S
C122 C114 1.424 . S
C122 N119 1.361 . S
C122 C121 1.413 . S
C123 H112 0.931 . S
C123 C121 1.416 . S
C123 C124 1.332 . S
C124 H103 0.929 . S
C124 C120 1.407 . S
C124 C123 1.332 . S
H125 C118 0.930 . S
H126 C149 0.930 . S
H127 C150 0.929 . S
O128 Tb84 2.465 . S
O128 C148 1.264 . S
O129 Tb84 2.387 . S
O129 C140 1.264 . S
O130 Tb95 2.349 . S
O130 C140 1.243 . S
O131 Tb84 2.428 . S
O131 C148 1.256 . S
O132 Tb84 2.308 . S
O132 C147 1.266 . S
O133 Tb95 2.393 . S
O133 C147 1.248 . S
O134 Tb95 2.465 . S
O134 C159 1.264 . S
O135 Tb95 2.387 . S
O135 C151 1.264 . S
O136 Tb84 2.349 . S
O136 C151 1.243 . S
O137 Tb95 2.428 . S
O137 C159 1.256 . S
O138 Tb95 2.308 . S
O138 C158 1.266 . S
O139 Tb84 2.393 . S
O139 C158 1.248 . S
C140 O129 1.264 . S
C140 O130 1.243 . S
C141 C144 1.399 . S
C141 C146 1.383 . S
C141 C148 1.496 . S
C142 C143 1.399 . S
C142 C146 1.389 . S
C143 C142 1.399 . S
C143 C145 1.380 . S
C143 H160 0.929 . S
C144 C141 1.399 . S
C144 C145 1.392 . S
C144 H161 0.929 . S
C145 C143 1.380 . S
C145 C144 1.392 . S
C145 H162 0.929 . S
C146 C141 1.383 . S
C146 C142 1.389 . S
C146 H163 0.931 . S
C147 O132 1.266 . S
C147 O133 1.248 . S
C148 Tb84 2.802 . S
C148 O128 1.264 . S
C148 O131 1.256 . S
C148 C141 1.496 . S
C149 C116 1.448 . S
C149 H126 0.930 . S
C149 C150 1.328 . S
C150 C121 1.427 . S
C150 H127 0.929 . S
C150 C149 1.328 . S
C151 O135 1.264 . S
C151 O136 1.243 . S
C152 C155 1.399 . S
C152 C156 1.383 . S
C152 C159 1.496 . S
C153 C154 1.399 . S
C153 C156 1.389 . S
C154 C153 1.399 . S
C154 C157 1.380 . S
C154 H164 0.929 . S
C155 C152 1.399 . S
C155 C157 1.392 . S
C155 H165 0.929 . S
C156 C152 1.383 . S
C156 C153 1.389 . S
C156 H166 0.931 . S
C157 C154 1.380 . S
C157 C155 1.392 . S
C157 H167 0.929 . S
C158 O138 1.266 . S
C158 O139 1.248 . S
C159 Tb95 2.802 . S
C159 O134 1.264 . S
C159 O137 1.256 . S
C159 C152 1.496 . S
H160 C143 0.929 . S
H161 C144 0.929 . S
H162 C145 0.929 . S
H163 C146 0.931 . S
H164 C154 0.929 . S
H165 C155 0.929 . S
H166 C156 0.931 . S
H167 C157 0.929 . S
Tb168 N197 2.617 . S
Tb168 N203 2.572 . S
Tb168 O212 2.465 . S
Tb168 O213 2.387 . S
Tb168 O215 2.428 . S
Tb168 O216 2.308 . S
Tb168 O220 2.349 . S
Tb168 O223 2.393 . S
Tb168 C232 2.802 . S
C169 N170 1.379 . S
C169 C172 1.416 . S
C169 C176 1.424 . S
N170 C169 1.379 . S
N170 C173 1.334 . S
N170 Tb179 2.617 . S
C171 C173 1.390 . S
C171 C174 1.339 . S
C171 H191 0.930 . S
C172 C169 1.416 . S
C172 C174 1.416 . S
C172 C178 1.448 . S
C173 N170 1.334 . S
C173 C171 1.390 . S
C173 H184 0.930 . S
C174 C171 1.339 . S
C174 C172 1.416 . S
C174 H195 0.930 . S
C175 C176 1.413 . S
C175 C177 1.427 . S
C175 C181 1.416 . S
C176 C169 1.424 . S
C176 C175 1.413 . S
C176 N180 1.361 . S
C177 C175 1.427 . S
C177 C178 1.328 . S
C177 H192 0.929 . S
C178 C172 1.448 . S
C178 C177 1.328 . S
C178 H193 0.930 . S
Tb179 N170 2.617 . S
Tb179 N180 2.572 . S
Tb179 O214 2.349 . S
Tb179 O217 2.393 . S
Tb179 O218 2.465 . S
Tb179 O219 2.387 . S
Tb179 O221 2.428 . S
Tb179 O222 2.308 . S
Tb179 C243 2.802 . S
N180 C176 1.361 . S
N180 Tb179 2.572 . S
N180 C182 1.340 . S
C181 C175 1.416 . S
C181 C183 1.332 . S
C181 H189 0.931 . S
C182 N180 1.340 . S
C182 C183 1.407 . S
C182 H188 0.930 . S
C183 C181 1.332 . S
C183 C182 1.407 . S
C183 H185 0.929 . S
H184 C173 0.930 . S
H185 C183 0.929 . S
H186 C201 0.930 . S
H187 C208 0.929 . S
H188 C182 0.930 . S
H189 C181 0.931 . S
H190 C204 0.930 . S
H191 C171 0.930 . S
H192 C177 0.929 . S
H193 C178 0.930 . S
H194 C199 0.930 . S
H195 C174 0.930 . S
H196 C207 0.931 . S
N197 Tb168 2.617 . S
N197 C198 1.379 . S
N197 C201 1.334 . S
C198 N197 1.379 . S
C198 C200 1.416 . S
C198 C206 1.424 . S
C199 H194 0.930 . S
C199 C201 1.390 . S
C199 C202 1.339 . S
C200 C198 1.416 . S
C200 C202 1.416 . S
C200 C233 1.448 . S
C201 H186 0.930 . S
C201 N197 1.334 . S
C201 C199 1.390 . S
C202 C199 1.339 . S
C202 C200 1.416 . S
C202 H209 0.930 . S
N203 Tb168 2.572 . S
N203 C204 1.340 . S
N203 C206 1.361 . S
C204 H190 0.930 . S
C204 N203 1.340 . S
C204 C208 1.407 . S
C205 C206 1.413 . S
C205 C207 1.416 . S
C205 C234 1.427 . S
C206 C198 1.424 . S
C206 N203 1.361 . S
C206 C205 1.413 . S
C207 H196 0.931 . S
C207 C205 1.416 . S
C207 C208 1.332 . S
C208 H187 0.929 . S
C208 C204 1.407 . S
C208 C207 1.332 . S
H209 C202 0.930 . S
H210 C233 0.930 . S
H211 C234 0.929 . S
O212 Tb168 2.465 . S
O212 C232 1.264 . S
O213 Tb168 2.387 . S
O213 C224 1.264 . S
O214 Tb179 2.349 . S
O214 C224 1.243 . S
O215 Tb168 2.428 . S
O215 C232 1.256 . S
O216 Tb168 2.308 . S
O216 C231 1.266 . S
O217 Tb179 2.393 . S
O217 C231 1.248 . S
O218 Tb179 2.465 . S
O218 C243 1.264 . S
O219 Tb179 2.387 . S
O219 C235 1.264 . S
O220 Tb168 2.349 . S
O220 C235 1.243 . S
O221 Tb179 2.428 . S
O221 C243 1.256 . S
O222 Tb179 2.308 . S
O222 C242 1.266 . S
O223 Tb168 2.393 . S
O223 C242 1.248 . S
C224 O213 1.264 . S
C224 O214 1.243 . S
C225 C228 1.399 . S
C225 C230 1.383 . S
C225 C232 1.496 . S
C226 C227 1.399 . S
C226 C230 1.389 . S
C227 C226 1.399 . S
C227 C229 1.380 . S
C227 H244 0.929 . S
C228 C225 1.399 . S
C228 C229 1.392 . S
C228 H245 0.929 . S
C229 C227 1.380 . S
C229 C228 1.392 . S
C229 H246 0.929 . S
C230 C225 1.383 . S
C230 C226 1.389 . S
C230 H247 0.931 . S
C231 O216 1.266 . S
C231 O217 1.248 . S
C232 Tb168 2.802 . S
C232 O212 1.264 . S
C232 O215 1.256 . S
C232 C225 1.496 . S
C233 C200 1.448 . S
C233 H210 0.930 . S
C233 C234 1.328 . S
C234 C205 1.427 . S
C234 H211 0.929 . S
C234 C233 1.328 . S
C235 O219 1.264 . S
C235 O220 1.243 . S
C236 C239 1.399 . S
C236 C240 1.383 . S
C236 C243 1.496 . S
C237 C238 1.399 . S
C237 C240 1.389 . S
C238 C237 1.399 . S
C238 C241 1.380 . S
C238 H248 0.929 . S
C239 C236 1.399 . S
C239 C241 1.392 . S
C239 H249 0.929 . S
C240 C236 1.383 . S
C240 C237 1.389 . S
C240 H250 0.931 . S
C241 C238 1.380 . S
C241 C239 1.392 . S
C241 H251 0.929 . S
C242 O222 1.266 . S
C242 O223 1.248 . S
C243 Tb179 2.802 . S
C243 O218 1.264 . S
C243 O221 1.256 . S
C243 C236 1.496 . S
H244 C227 0.929 . S
H245 C228 0.929 . S
H246 C229 0.929 . S
H247 C230 0.931 . S
H248 C238 0.929 . S
H249 C239 0.929 . S
H250 C240 0.931 . S
H251 C241 0.929 . S
Tb252 N281 2.617 . S
Tb252 N287 2.572 . S
Tb252 O296 2.465 . S
Tb252 O297 2.387 . S
Tb252 O299 2.428 . S
Tb252 O300 2.308 . S
Tb252 O304 2.349 . S
Tb252 O307 2.393 . S
Tb252 C316 2.802 . S
C253 N254 1.379 . S
C253 C256 1.416 . S
C253 C260 1.424 . S
N254 C253 1.379 . S
N254 C257 1.334 . S
N254 Tb263 2.617 . S
C255 C257 1.390 . S
C255 C258 1.339 . S
C255 H275 0.930 . S
C256 C253 1.416 . S
C256 C258 1.416 . S
C256 C262 1.448 . S
C257 N254 1.334 . S
C257 C255 1.390 . S
C257 H268 0.930 . S
C258 C255 1.339 . S
C258 C256 1.416 . S
C258 H279 0.930 . S
C259 C260 1.413 . S
C259 C261 1.427 . S
C259 C265 1.416 . S
C260 C253 1.424 . S
C260 C259 1.413 . S
C260 N264 1.361 . S
C261 C259 1.427 . S
C261 C262 1.328 . S
C261 H276 0.929 . S
C262 C256 1.448 . S
C262 C261 1.328 . S
C262 H277 0.930 . S
Tb263 N254 2.617 . S
Tb263 N264 2.572 . S
Tb263 O298 2.349 . S
Tb263 O301 2.393 . S
Tb263 O302 2.465 . S
Tb263 O303 2.387 . S
Tb263 O305 2.428 . S
Tb263 O306 2.308 . S
Tb263 C327 2.802 . S
N264 C260 1.361 . S
N264 Tb263 2.572 . S
N264 C266 1.340 . S
C265 C259 1.416 . S
C265 C267 1.332 . S
C265 H273 0.931 . S
C266 N264 1.340 . S
C266 C267 1.407 . S
C266 H272 0.930 . S
C267 C265 1.332 . S
C267 C266 1.407 . S
C267 H269 0.929 . S
H268 C257 0.930 . S
H269 C267 0.929 . S
H270 C285 0.930 . S
H271 C292 0.929 . S
H272 C266 0.930 . S
H273 C265 0.931 . S
H274 C288 0.930 . S
H275 C255 0.930 . S
H276 C261 0.929 . S
H277 C262 0.930 . S
H278 C283 0.930 . S
H279 C258 0.930 . S
H280 C291 0.931 . S
N281 Tb252 2.617 . S
N281 C282 1.379 . S
N281 C285 1.334 . S
C282 N281 1.379 . S
C282 C284 1.416 . S
C282 C290 1.424 . S
C283 H278 0.930 . S
C283 C285 1.390 . S
C283 C286 1.339 . S
C284 C282 1.416 . S
C284 C286 1.416 . S
C284 C317 1.448 . S
C285 H270 0.930 . S
C285 N281 1.334 . S
C285 C283 1.390 . S
C286 C283 1.339 . S
C286 C284 1.416 . S
C286 H293 0.930 . S
N287 Tb252 2.572 . S
N287 C288 1.340 . S
N287 C290 1.361 . S
C288 H274 0.930 . S
C288 N287 1.340 . S
C288 C292 1.407 . S
C289 C290 1.413 . S
C289 C291 1.416 . S
C289 C318 1.427 . S
C290 C282 1.424 . S
C290 N287 1.361 . S
C290 C289 1.413 . S
C291 H280 0.931 . S
C291 C289 1.416 . S
C291 C292 1.332 . S
C292 H271 0.929 . S
C292 C288 1.407 . S
C292 C291 1.332 . S
H293 C286 0.930 . S
H294 C317 0.930 . S
H295 C318 0.929 . S
O296 Tb252 2.465 . S
O296 C316 1.264 . S
O297 Tb252 2.387 . S
O297 C308 1.264 . S
O298 Tb263 2.349 . S
O298 C308 1.243 . S
O299 Tb252 2.428 . S
O299 C316 1.256 . S
O300 Tb252 2.308 . S
O300 C315 1.266 . S
O301 Tb263 2.393 . S
O301 C315 1.248 . S
O302 Tb263 2.465 . S
O302 C327 1.264 . S
O303 Tb263 2.387 . S
O303 C319 1.264 . S
O304 Tb252 2.349 . S
O304 C319 1.243 . S
O305 Tb263 2.428 . S
O305 C327 1.256 . S
O306 Tb263 2.308 . S
O306 C326 1.266 . S
O307 Tb252 2.393 . S
O307 C326 1.248 . S
C308 O297 1.264 . S
C308 O298 1.243 . S
C309 C312 1.399 . S
C309 C314 1.383 . S
C309 C316 1.496 . S
C310 C311 1.399 . S
C310 C314 1.389 . S
C311 C310 1.399 . S
C311 C313 1.380 . S
C311 H328 0.929 . S
C312 C309 1.399 . S
C312 C313 1.392 . S
C312 H329 0.929 . S
C313 C311 1.380 . S
C313 C312 1.392 . S
C313 H330 0.929 . S
C314 C309 1.383 . S
C314 C310 1.389 . S
C314 H331 0.931 . S
C315 O300 1.266 . S
C315 O301 1.248 . S
C316 Tb252 2.802 . S
C316 O296 1.264 . S
C316 O299 1.256 . S
C316 C309 1.496 . S
C317 C284 1.448 . S
C317 H294 0.930 . S
C317 C318 1.328 . S
C318 C289 1.427 . S
C318 H295 0.929 . S
C318 C317 1.328 . S
C319 O303 1.264 . S
C319 O304 1.243 . S
C320 C323 1.399 . S
C320 C324 1.383 . S
C320 C327 1.496 . S
C321 C322 1.399 . S
C321 C324 1.389 . S
C322 C321 1.399 . S
C322 C325 1.380 . S
C322 H332 0.929 . S
C323 C320 1.399 . S
C323 C325 1.392 . S
C323 H333 0.929 . S
C324 C320 1.383 . S
C324 C321 1.389 . S
C324 H334 0.931 . S
C325 C322 1.380 . S
C325 C323 1.392 . S
C325 H335 0.929 . S
C326 O306 1.266 . S
C326 O307 1.248 . S
C327 Tb263 2.802 . S
C327 O302 1.264 . S
C327 O305 1.256 . S
C327 C320 1.496 . S
H328 C311 0.929 . S
H329 C312 0.929 . S
H330 C313 0.929 . S
H331 C314 0.931 . S
H332 C322 0.929 . S
H333 C323 0.929 . S
H334 C324 0.931 . S
H335 C325 0.929 . S
Tb336 N365 2.617 . S
Tb336 N371 2.572 . S
Tb336 O380 2.465 . S
Tb336 O381 2.387 . S
Tb336 O383 2.428 . S
Tb336 O384 2.308 . S
Tb336 O388 2.349 . S
Tb336 O391 2.393 . S
Tb336 C400 2.802 . S
C337 N338 1.379 . S
C337 C340 1.416 . S
C337 C344 1.424 . S
N338 C337 1.379 . S
N338 C341 1.334 . S
N338 Tb347 2.617 . S
C339 C341 1.390 . S
C339 C342 1.339 . S
C339 H359 0.930 . S
C340 C337 1.416 . S
C340 C342 1.416 . S
C340 C346 1.448 . S
C341 N338 1.334 . S
C341 C339 1.390 . S
C341 H352 0.930 . S
C342 C339 1.339 . S
C342 C340 1.416 . S
C342 H363 0.930 . S
C343 C344 1.413 . S
C343 C345 1.427 . S
C343 C349 1.416 . S
C344 C337 1.424 . S
C344 C343 1.413 . S
C344 N348 1.361 . S
C345 C343 1.427 . S
C345 C346 1.328 . S
C345 H360 0.929 . S
C346 C340 1.448 . S
C346 C345 1.328 . S
C346 H361 0.930 . S
Tb347 N338 2.617 . S
Tb347 N348 2.572 . S
Tb347 O382 2.349 . S
Tb347 O385 2.393 . S
Tb347 O386 2.465 . S
Tb347 O387 2.387 . S
Tb347 O389 2.428 . S
Tb347 O390 2.308 . S
Tb347 C411 2.802 . S
N348 C344 1.361 . S
N348 Tb347 2.572 . S
N348 C350 1.340 . S
C349 C343 1.416 . S
C349 C351 1.332 . S
C349 H357 0.931 . S
C350 N348 1.340 . S
C350 C351 1.407 . S
C350 H356 0.930 . S
C351 C349 1.332 . S
C351 C350 1.407 . S
C351 H353 0.929 . S
H352 C341 0.930 . S
H353 C351 0.929 . S
H354 C369 0.930 . S
H355 C376 0.929 . S
H356 C350 0.930 . S
H357 C349 0.931 . S
H358 C372 0.930 . S
H359 C339 0.930 . S
H360 C345 0.929 . S
H361 C346 0.930 . S
H362 C367 0.930 . S
H363 C342 0.930 . S
H364 C375 0.931 . S
N365 Tb336 2.617 . S
N365 C366 1.379 . S
N365 C369 1.334 . S
C366 N365 1.379 . S
C366 C368 1.416 . S
C366 C374 1.424 . S
C367 H362 0.930 . S
C367 C369 1.390 . S
C367 C370 1.339 . S
C368 C366 1.416 . S
C368 C370 1.416 . S
C368 C401 1.448 . S
C369 H354 0.930 . S
C369 N365 1.334 . S
C369 C367 1.390 . S
C370 C367 1.339 . S
C370 C368 1.416 . S
C370 H377 0.930 . S
N371 Tb336 2.572 . S
N371 C372 1.340 . S
N371 C374 1.361 . S
C372 H358 0.930 . S
C372 N371 1.340 . S
C372 C376 1.407 . S
C373 C374 1.413 . S
C373 C375 1.416 . S
C373 C402 1.427 . S
C374 C366 1.424 . S
C374 N371 1.361 . S
C374 C373 1.413 . S
C375 H364 0.931 . S
C375 C373 1.416 . S
C375 C376 1.332 . S
C376 H355 0.929 . S
C376 C372 1.407 . S
C376 C375 1.332 . S
H377 C370 0.930 . S
H378 C401 0.930 . S
H379 C402 0.929 . S
O380 Tb336 2.465 . S
O380 C400 1.264 . S
O381 Tb336 2.387 . S
O381 C392 1.264 . S
O382 Tb347 2.349 . S
O382 C392 1.243 . S
O383 Tb336 2.428 . S
O383 C400 1.256 . S
O384 Tb336 2.308 . S
O384 C399 1.266 . S
O385 Tb347 2.393 . S
O385 C399 1.248 . S
O386 Tb347 2.465 . S
O386 C411 1.264 . S
O387 Tb347 2.387 . S
O387 C403 1.264 . S
O388 Tb336 2.349 . S
O388 C403 1.243 . S
O389 Tb347 2.428 . S
O389 C411 1.256 . S
O390 Tb347 2.308 . S
O390 C410 1.266 . S
O391 Tb336 2.393 . S
O391 C410 1.248 . S
C392 O381 1.264 . S
C392 O382 1.243 . S
C393 C396 1.399 . S
C393 C398 1.383 . S
C393 C400 1.496 . S
C394 C395 1.399 . S
C394 C398 1.389 . S
C395 C394 1.399 . S
C395 C397 1.380 . S
C395 H412 0.929 . S
C396 C393 1.399 . S
C396 C397 1.392 . S
C396 H413 0.929 . S
C397 C395 1.380 . S
C397 C396 1.392 . S
C397 H414 0.929 . S
C398 C393 1.383 . S
C398 C394 1.389 . S
C398 H415 0.931 . S
C399 O384 1.266 . S
C399 O385 1.248 . S
C400 Tb336 2.802 . S
C400 O380 1.264 . S
C400 O383 1.256 . S
C400 C393 1.496 . S
C401 C368 1.448 . S
C401 H378 0.930 . S
C401 C402 1.328 . S
C402 C373 1.427 . S
C402 H379 0.929 . S
C402 C401 1.328 . S
C403 O387 1.264 . S
C403 O388 1.243 . S
C404 C407 1.399 . S
C404 C408 1.383 . S
C404 C411 1.496 . S
C405 C406 1.399 . S
C405 C408 1.389 . S
C406 C405 1.399 . S
C406 C409 1.380 . S
C406 H416 0.929 . S
C407 C404 1.399 . S
C407 C409 1.392 . S
C407 H417 0.929 . S
C408 C404 1.383 . S
C408 C405 1.389 . S
C408 H418 0.931 . S
C409 C406 1.380 . S
C409 C407 1.392 . S
C409 H419 0.929 . S
C410 O390 1.266 . S
C410 O391 1.248 . S
C411 Tb347 2.802 . S
C411 O386 1.264 . S
C411 O389 1.256 . S
C411 C404 1.496 . S
H412 C395 0.929 . S
H413 C396 0.929 . S
H414 C397 0.929 . S
H415 C398 0.931 . S
H416 C406 0.929 . S
H417 C407 0.929 . S
H418 C408 0.931 . S
H419 C409 0.929 . S
Tb420 N449 2.617 . S
Tb420 N455 2.572 . S
Tb420 O464 2.465 . S
Tb420 O465 2.387 . S
Tb420 O467 2.428 . S
Tb420 O468 2.308 . S
Tb420 O472 2.349 . S
Tb420 O475 2.393 . S
Tb420 C484 2.802 . S
C421 N422 1.379 . S
C421 C424 1.416 . S
C421 C428 1.424 . S
N422 C421 1.379 . S
N422 C425 1.334 . S
N422 Tb431 2.617 . S
C423 C425 1.390 . S
C423 C426 1.339 . S
C423 H443 0.930 . S
C424 C421 1.416 . S
C424 C426 1.416 . S
C424 C430 1.448 . S
C425 N422 1.334 . S
C425 C423 1.390 . S
C425 H436 0.930 . S
C426 C423 1.339 . S
C426 C424 1.416 . S
C426 H447 0.930 . S
C427 C428 1.413 . S
C427 C429 1.427 . S
C427 C433 1.416 . S
C428 C421 1.424 . S
C428 C427 1.413 . S
C428 N432 1.361 . S
C429 C427 1.427 . S
C429 C430 1.328 . S
C429 H444 0.929 . S
C430 C424 1.448 . S
C430 C429 1.328 . S
C430 H445 0.930 . S
Tb431 N422 2.617 . S
Tb431 N432 2.572 . S
Tb431 O466 2.349 . S
Tb431 O469 2.393 . S
Tb431 O470 2.465 . S
Tb431 O471 2.387 . S
Tb431 O473 2.428 . S
Tb431 O474 2.308 . S
Tb431 C495 2.802 . S
N432 C428 1.361 . S
N432 Tb431 2.572 . S
N432 C434 1.340 . S
C433 C427 1.416 . S
C433 C435 1.332 . S
C433 H441 0.931 . S
C434 N432 1.340 . S
C434 C435 1.407 . S
C434 H440 0.930 . S
C435 C433 1.332 . S
C435 C434 1.407 . S
C435 H437 0.929 . S
H436 C425 0.930 . S
H437 C435 0.929 . S
H438 C453 0.930 . S
H439 C460 0.929 . S
H440 C434 0.930 . S
H441 C433 0.931 . S
H442 C456 0.930 . S
H443 C423 0.930 . S
H444 C429 0.929 . S
H445 C430 0.930 . S
H446 C451 0.930 . S
H447 C426 0.930 . S
H448 C459 0.931 . S
N449 Tb420 2.617 . S
N449 C450 1.379 . S
N449 C453 1.334 . S
C450 N449 1.379 . S
C450 C452 1.416 . S
C450 C458 1.424 . S
C451 H446 0.930 . S
C451 C453 1.390 . S
C451 C454 1.339 . S
C452 C450 1.416 . S
C452 C454 1.416 . S
C452 C485 1.448 . S
C453 H438 0.930 . S
C453 N449 1.334 . S
C453 C451 1.390 . S
C454 C451 1.339 . S
C454 C452 1.416 . S
C454 H461 0.930 . S
N455 Tb420 2.572 . S
N455 C456 1.340 . S
N455 C458 1.361 . S
C456 H442 0.930 . S
C456 N455 1.340 . S
C456 C460 1.407 . S
C457 C458 1.413 . S
C457 C459 1.416 . S
C457 C486 1.427 . S
C458 C450 1.424 . S
C458 N455 1.361 . S
C458 C457 1.413 . S
C459 H448 0.931 . S
C459 C457 1.416 . S
C459 C460 1.332 . S
C460 H439 0.929 . S
C460 C456 1.407 . S
C460 C459 1.332 . S
H461 C454 0.930 . S
H462 C485 0.930 . S
H463 C486 0.929 . S
O464 Tb420 2.465 . S
O464 C484 1.264 . S
O465 Tb420 2.387 . S
O465 C476 1.264 . S
O466 Tb431 2.349 . S
O466 C476 1.243 . S
O467 Tb420 2.428 . S
O467 C484 1.256 . S
O468 Tb420 2.308 . S
O468 C483 1.266 . S
O469 Tb431 2.393 . S
O469 C483 1.248 . S
O470 Tb431 2.465 . S
O470 C495 1.264 . S
O471 Tb431 2.387 . S
O471 C487 1.264 . S
O472 Tb420 2.349 . S
O472 C487 1.243 . S
O473 Tb431 2.428 . S
O473 C495 1.256 . S
O474 Tb431 2.308 . S
O474 C494 1.266 . S
O475 Tb420 2.393 . S
O475 C494 1.248 . S
C476 O465 1.264 . S
C476 O466 1.243 . S
C477 C480 1.399 . S
C477 C482 1.383 . S
C477 C484 1.496 . S
C478 C479 1.399 . S
C478 C482 1.389 . S
C479 C478 1.399 . S
C479 C481 1.380 . S
C479 H496 0.929 . S
C480 C477 1.399 . S
C480 C481 1.392 . S
C480 H497 0.929 . S
C481 C479 1.380 . S
C481 C480 1.392 . S
C481 H498 0.929 . S
C482 C477 1.383 . S
C482 C478 1.389 . S
C482 H499 0.931 . S
C483 O468 1.266 . S
C483 O469 1.248 . S
C484 Tb420 2.802 . S
C484 O464 1.264 . S
C484 O467 1.256 . S
C484 C477 1.496 . S
C485 C452 1.448 . S
C485 H462 0.930 . S
C485 C486 1.328 . S
C486 C457 1.427 . S
C486 H463 0.929 . S
C486 C485 1.328 . S
C487 O471 1.264 . S
C487 O472 1.243 . S
C488 C491 1.399 . S
C488 C492 1.383 . S
C488 C495 1.496 . S
C489 C490 1.399 . S
C489 C492 1.389 . S
C490 C489 1.399 . S
C490 C493 1.380 . S
C490 H500 0.929 . S
C491 C488 1.399 . S
C491 C493 1.392 . S
C491 H501 0.929 . S
C492 C488 1.383 . S
C492 C489 1.389 . S
C492 H502 0.931 . S
C493 C490 1.380 . S
C493 C491 1.392 . S
C493 H503 0.929 . S
C494 O474 1.266 . S
C494 O475 1.248 . S
C495 Tb431 2.802 . S
C495 O470 1.264 . S
C495 O473 1.256 . S
C495 C488 1.496 . S
H496 C479 0.929 . S
H497 C480 0.929 . S
H498 C481 0.929 . S
H499 C482 0.931 . S
H500 C490 0.929 . S
H501 C491 0.929 . S
H502 C492 0.931 . S
H503 C493 0.929 . S
Tb504 N533 2.617 . S
Tb504 N539 2.572 . S
Tb504 O548 2.465 . S
Tb504 O549 2.387 . S
Tb504 O551 2.428 . S
Tb504 O552 2.308 . S
Tb504 O556 2.349 . S
Tb504 O559 2.393 . S
Tb504 C568 2.802 . S
C505 N506 1.379 . S
C505 C508 1.416 . S
C505 C512 1.424 . S
N506 C505 1.379 . S
N506 C509 1.334 . S
N506 Tb515 2.617 . S
C507 C509 1.390 . S
C507 C510 1.339 . S
C507 H527 0.930 . S
C508 C505 1.416 . S
C508 C510 1.416 . S
C508 C514 1.448 . S
C509 N506 1.334 . S
C509 C507 1.390 . S
C509 H520 0.930 . S
C510 C507 1.339 . S
C510 C508 1.416 . S
C510 H531 0.930 . S
C511 C512 1.413 . S
C511 C513 1.427 . S
C511 C517 1.416 . S
C512 C505 1.424 . S
C512 C511 1.413 . S
C512 N516 1.361 . S
C513 C511 1.427 . S
C513 C514 1.328 . S
C513 H528 0.929 . S
C514 C508 1.448 . S
C514 C513 1.328 . S
C514 H529 0.930 . S
Tb515 N506 2.617 . S
Tb515 N516 2.572 . S
Tb515 O550 2.349 . S
Tb515 O553 2.393 . S
Tb515 O554 2.465 . S
Tb515 O555 2.387 . S
Tb515 O557 2.428 . S
Tb515 O558 2.308 . S
Tb515 C579 2.802 . S
N516 C512 1.361 . S
N516 Tb515 2.572 . S
N516 C518 1.340 . S
C517 C511 1.416 . S
C517 C519 1.332 . S
C517 H525 0.931 . S
C518 N516 1.340 . S
C518 C519 1.407 . S
C518 H524 0.930 . S
C519 C517 1.332 . S
C519 C518 1.407 . S
C519 H521 0.929 . S
H520 C509 0.930 . S
H521 C519 0.929 . S
H522 C537 0.930 . S
H523 C544 0.929 . S
H524 C518 0.930 . S
H525 C517 0.931 . S
H526 C540 0.930 . S
H527 C507 0.930 . S
H528 C513 0.929 . S
H529 C514 0.930 . S
H530 C535 0.930 . S
H531 C510 0.930 . S
H532 C543 0.931 . S
N533 Tb504 2.617 . S
N533 C534 1.379 . S
N533 C537 1.334 . S
C534 N533 1.379 . S
C534 C536 1.416 . S
C534 C542 1.424 . S
C535 H530 0.930 . S
C535 C537 1.390 . S
C535 C538 1.339 . S
C536 C534 1.416 . S
C536 C538 1.416 . S
C536 C569 1.448 . S
C537 H522 0.930 . S
C537 N533 1.334 . S
C537 C535 1.390 . S
C538 C535 1.339 . S
C538 C536 1.416 . S
C538 H545 0.930 . S
N539 Tb504 2.572 . S
N539 C540 1.340 . S
N539 C542 1.361 . S
C540 H526 0.930 . S
C540 N539 1.340 . S
C540 C544 1.407 . S
C541 C542 1.413 . S
C541 C543 1.416 . S
C541 C570 1.427 . S
C542 C534 1.424 . S
C542 N539 1.361 . S
C542 C541 1.413 . S
C543 H532 0.931 . S
C543 C541 1.416 . S
C543 C544 1.332 . S
C544 H523 0.929 . S
C544 C540 1.407 . S
C544 C543 1.332 . S
H545 C538 0.930 . S
H546 C569 0.930 . S
H547 C570 0.929 . S
O548 Tb504 2.465 . S
O548 C568 1.264 . S
O549 Tb504 2.387 . S
O549 C560 1.264 . S
O550 Tb515 2.349 . S
O550 C560 1.243 . S
O551 Tb504 2.428 . S
O551 C568 1.256 . S
O552 Tb504 2.308 . S
O552 C567 1.266 . S
O553 Tb515 2.393 . S
O553 C567 1.248 . S
O554 Tb515 2.465 . S
O554 C579 1.264 . S
O555 Tb515 2.387 . S
O555 C571 1.264 . S
O556 Tb504 2.349 . S
O556 C571 1.243 . S
O557 Tb515 2.428 . S
O557 C579 1.256 . S
O558 Tb515 2.308 . S
O558 C578 1.266 . S
O559 Tb504 2.393 . S
O559 C578 1.248 . S
C560 O549 1.264 . S
C560 O550 1.243 . S
C561 C564 1.399 . S
C561 C566 1.383 . S
C561 C568 1.496 . S
C562 C563 1.399 . S
C562 C566 1.389 . S
C563 C562 1.399 . S
C563 C565 1.380 . S
C563 H580 0.929 . S
C564 C561 1.399 . S
C564 C565 1.392 . S
C564 H581 0.929 . S
C565 C563 1.380 . S
C565 C564 1.392 . S
C565 H582 0.929 . S
C566 C561 1.383 . S
C566 C562 1.389 . S
C566 H583 0.931 . S
C567 O552 1.266 . S
C567 O553 1.248 . S
C568 Tb504 2.802 . S
C568 O548 1.264 . S
C568 O551 1.256 . S
C568 C561 1.496 . S
C569 C536 1.448 . S
C569 H546 0.930 . S
C569 C570 1.328 . S
C570 C541 1.427 . S
C570 H547 0.929 . S
C570 C569 1.328 . S
C571 O555 1.264 . S
C571 O556 1.243 . S
C572 C575 1.399 . S
C572 C576 1.383 . S
C572 C579 1.496 . S
C573 C574 1.399 . S
C573 C576 1.389 . S
C574 C573 1.399 . S
C574 C577 1.380 . S
C574 H584 0.929 . S
C575 C572 1.399 . S
C575 C577 1.392 . S
C575 H585 0.929 . S
C576 C572 1.383 . S
C576 C573 1.389 . S
C576 H586 0.931 . S
C577 C574 1.380 . S
C577 C575 1.392 . S
C577 H587 0.929 . S
C578 O558 1.266 . S
C578 O559 1.248 . S
C579 Tb515 2.802 . S
C579 O554 1.264 . S
C579 O557 1.256 . S
C579 C572 1.496 . S
H580 C563 0.929 . S
H581 C564 0.929 . S
H582 C565 0.929 . S
H583 C566 0.931 . S
H584 C574 0.929 . S
H585 C575 0.929 . S
H586 C576 0.931 . S
H587 C577 0.929 . S
Tb588 N617 2.617 . S
Tb588 N623 2.572 . S
Tb588 O632 2.465 . S
Tb588 O633 2.387 . S
Tb588 O635 2.428 . S
Tb588 O636 2.308 . S
Tb588 O640 2.349 . S
Tb588 O643 2.393 . S
Tb588 C652 2.802 . S
C589 N590 1.379 . S
C589 C592 1.416 . S
C589 C596 1.424 . S
N590 C589 1.379 . S
N590 C593 1.334 . S
N590 Tb599 2.617 . S
C591 C593 1.390 . S
C591 C594 1.339 . S
C591 H611 0.930 . S
C592 C589 1.416 . S
C592 C594 1.416 . S
C592 C598 1.448 . S
C593 N590 1.334 . S
C593 C591 1.390 . S
C593 H604 0.930 . S
C594 C591 1.339 . S
C594 C592 1.416 . S
C594 H615 0.930 . S
C595 C596 1.413 . S
C595 C597 1.427 . S
C595 C601 1.416 . S
C596 C589 1.424 . S
C596 C595 1.413 . S
C596 N600 1.361 . S
C597 C595 1.427 . S
C597 C598 1.328 . S
C597 H612 0.929 . S
C598 C592 1.448 . S
C598 C597 1.328 . S
C598 H613 0.930 . S
Tb599 N590 2.617 . S
Tb599 N600 2.572 . S
Tb599 O634 2.349 . S
Tb599 O637 2.393 . S
Tb599 O638 2.465 . S
Tb599 O639 2.387 . S
Tb599 O641 2.428 . S
Tb599 O642 2.308 . S
Tb599 C663 2.802 . S
N600 C596 1.361 . S
N600 Tb599 2.572 . S
N600 C602 1.340 . S
C601 C595 1.416 . S
C601 C603 1.332 . S
C601 H609 0.931 . S
C602 N600 1.340 . S
C602 C603 1.407 . S
C602 H608 0.930 . S
C603 C601 1.332 . S
C603 C602 1.407 . S
C603 H605 0.929 . S
H604 C593 0.930 . S
H605 C603 0.929 . S
H606 C621 0.930 . S
H607 C628 0.929 . S
H608 C602 0.930 . S
H609 C601 0.931 . S
H610 C624 0.930 . S
H611 C591 0.930 . S
H612 C597 0.929 . S
H613 C598 0.930 . S
H614 C619 0.930 . S
H615 C594 0.930 . S
H616 C627 0.931 . S
N617 Tb588 2.617 . S
N617 C618 1.379 . S
N617 C621 1.334 . S
C618 N617 1.379 . S
C618 C620 1.416 . S
C618 C626 1.424 . S
C619 H614 0.930 . S
C619 C621 1.390 . S
C619 C622 1.339 . S
C620 C618 1.416 . S
C620 C622 1.416 . S
C620 C653 1.448 . S
C621 H606 0.930 . S
C621 N617 1.334 . S
C621 C619 1.390 . S
C622 C619 1.339 . S
C622 C620 1.416 . S
C622 H629 0.930 . S
N623 Tb588 2.572 . S
N623 C624 1.340 . S
N623 C626 1.361 . S
C624 H610 0.930 . S
C624 N623 1.340 . S
C624 C628 1.407 . S
C625 C626 1.413 . S
C625 C627 1.416 . S
C625 C654 1.427 . S
C626 C618 1.424 . S
C626 N623 1.361 . S
C626 C625 1.413 . S
C627 H616 0.931 . S
C627 C625 1.416 . S
C627 C628 1.332 . S
C628 H607 0.929 . S
C628 C624 1.407 . S
C628 C627 1.332 . S
H629 C622 0.930 . S
H630 C653 0.930 . S
H631 C654 0.929 . S
O632 Tb588 2.465 . S
O632 C652 1.264 . S
O633 Tb588 2.387 . S
O633 C644 1.264 . S
O634 Tb599 2.349 . S
O634 C644 1.243 . S
O635 Tb588 2.428 . S
O635 C652 1.256 . S
O636 Tb588 2.308 . S
O636 C651 1.266 . S
O637 Tb599 2.393 . S
O637 C651 1.248 . S
O638 Tb599 2.465 . S
O638 C663 1.264 . S
O639 Tb599 2.387 . S
O639 C655 1.264 . S
O640 Tb588 2.349 . S
O640 C655 1.243 . S
O641 Tb599 2.428 . S
O641 C663 1.256 . S
O642 Tb599 2.308 . S
O642 C662 1.266 . S
O643 Tb588 2.393 . S
O643 C662 1.248 . S
C644 O633 1.264 . S
C644 O634 1.243 . S
C645 C648 1.399 . S
C645 C650 1.383 . S
C645 C652 1.496 . S
C646 C647 1.399 . S
C646 C650 1.389 . S
C647 C646 1.399 . S
C647 C649 1.380 . S
C647 H664 0.929 . S
C648 C645 1.399 . S
C648 C649 1.392 . S
C648 H665 0.929 . S
C649 C647 1.380 . S
C649 C648 1.392 . S
C649 H666 0.929 . S
C650 C645 1.383 . S
C650 C646 1.389 . S
C650 H667 0.931 . S
C651 O636 1.266 . S
C651 O637 1.248 . S
C652 Tb588 2.802 . S
C652 O632 1.264 . S
C652 O635 1.256 . S
C652 C645 1.496 . S
C653 C620 1.448 . S
C653 H630 0.930 . S
C653 C654 1.328 . S
C654 C625 1.427 . S
C654 H631 0.929 . S
C654 C653 1.328 . S
C655 O639 1.264 . S
C655 O640 1.243 . S
C656 C659 1.399 . S
C656 C660 1.383 . S
C656 C663 1.496 . S
C657 C658 1.399 . S
C657 C660 1.389 . S
C658 C657 1.399 . S
C658 C661 1.380 . S
C658 H668 0.929 . S
C659 C656 1.399 . S
C659 C661 1.392 . S
C659 H669 0.929 . S
C660 C656 1.383 . S
C660 C657 1.389 . S
C660 H670 0.931 . S
C661 C658 1.380 . S
C661 C659 1.392 . S
C661 H671 0.929 . S
C662 O642 1.266 . S
C662 O643 1.248 . S
C663 Tb599 2.802 . S
C663 O638 1.264 . S
C663 O641 1.256 . S
C663 C656 1.496 . S
H664 C647 0.929 . S
H665 C648 0.929 . S
H666 C649 0.929 . S
H667 C650 0.931 . S
H668 C658 0.929 . S
H669 C659 0.929 . S
H670 C660 0.931 . S
H671 C661 0.929 . S
Co672 O675 2.042 . S
Co672 O682 2.264 . S
Co672 O701 2.286 . S
Co672 O702 2.069 . S
Co672 O704 2.015 1_455 S
Co673 O675 2.122 . S
Co673 O681 2.073 . S
Co673 O682 2.327 . S
Co673 O683 1.976 1_455 S
Co674 O675 2.095 1_545 S
Co674 O677 2.079 1_455 S
Co674 O684 2.107 1_445 S
Co674 O685 2.147 . S
Co674 O689 2.115 . S
Co674 O703 2.140 1_445 S
O675 Co672 2.042 . S
O675 Co673 2.122 . S
O675 Co674 2.095 1_565 S
O675 H676 0.980 . S
H676 O675 0.980 . S
O677 Co674 2.079 1_655 S
O677 Co678 2.042 . S
O677 Co679 2.122 . S
O677 H680 0.980 . S
Co678 O677 2.042 . S
Co678 O686 2.286 . S
Co678 O687 2.069 . S
Co678 O688 2.015 1_655 S
Co678 O691 2.264 . S
Co679 O677 2.122 . S
Co679 O690 1.976 1_655 S
Co679 O691 2.327 . S
Co679 O692 2.073 . S
H680 O677 0.980 . S
O681 Co673 2.073 . S
O681 C696 1.245 . S
O682 Co672 2.264 . S
O682 Co673 2.327 . S
O682 C696 1.257 . S
O683 Co673 1.976 1_655 S
O683 C695 1.251 . S
O684 Co674 2.107 1_665 S
O684 C695 1.274 . S
O685 Co674 2.147 . S
O685 C698 1.246 . S
O686 Co678 2.286 . S
O686 C697 1.259 . S
O687 Co678 2.069 . S
O687 C697 1.289 . S
O688 Co678 2.015 1_455 S
O688 C698 1.257 . S
O689 Co674 2.115 . S
O689 C699 1.274 . S
O690 Co679 1.976 1_455 S
O690 C699 1.251 . S
O691 Co678 2.264 . S
O691 Co679 2.327 . S
O691 C700 1.257 . S
O692 Co679 2.073 . S
O692 C700 1.245 . S
C693 O701 1.259 . S
C693 O702 1.289 . S
C694 O703 1.246 . S
C694 O704 1.257 . S
C695 O683 1.251 . S
C695 O684 1.274 . S
C696 O681 1.245 . S
C696 O682 1.257 . S
C697 O686 1.259 . S
C697 O687 1.289 . S
C698 O685 1.246 . S
C698 O688 1.257 . S
C699 O689 1.274 . S
C699 O690 1.251 . S
C700 O691 1.257 . S
C700 O692 1.245 . S
O701 Co672 2.286 . S
O701 C693 1.259 . S
O702 Co672 2.069 . S
O702 C693 1.289 . S
O703 Co674 2.140 1_665 S
O703 C694 1.246 . S
O704 Co672 2.015 1_655 S
O704 C694 1.257 . S
Co705 O708 2.042 1_556 S
Co705 O715 2.264 1_556 S
Co705 O734 2.286 . S
Co705 O735 2.069 . S
Co705 O737 2.015 . S
Co706 O708 2.122 . S
Co706 O714 2.073 . S
Co706 O715 2.327 . S
Co706 O716 1.976 . S
Co707 O708 2.087 1_545 S
Co707 O710 2.087 1_554 S
Co707 O717 2.111 1_545 S
Co707 O718 2.143 . S
Co707 O722 2.111 1_554 S
Co707 O736 2.143 1_544 S
O708 Co705 2.042 1_554 S
O708 Co706 2.122 . S
O708 Co707 2.087 1_565 S
O708 H709 0.980 . S
H709 O708 0.980 . S
O710 Co707 2.087 1_556 S
O710 Co711 2.042 1_556 S
O710 Co712 2.122 . S
O710 H713 0.980 . S
Co711 O710 2.042 1_554 S
Co711 O719 2.286 . S
Co711 O720 2.069 . S
Co711 O721 2.015 . S
Co711 O724 2.264 1_554 S
Co712 O710 2.122 . S
Co712 O723 1.976 . S
Co712 O724 2.327 . S
Co712 O725 2.073 . S
H713 O710 0.980 . S
O714 Co706 2.073 . S
O714 C729 1.245 . S
O715 Co705 2.264 1_554 S
O715 Co706 2.327 . S
O715 C729 1.257 . S
O716 Co706 1.976 . S
O716 C728 1.251 . S
O717 Co707 2.111 1_565 S
O717 C728 1.274 . S
O718 Co707 2.143 . S
O718 C731 1.246 . S
O719 Co711 2.286 . S
O719 C730 1.259 . S
O720 Co711 2.069 . S
O720 C730 1.289 . S
O721 Co711 2.015 . S
O721 C731 1.257 . S
O722 Co707 2.111 1_556 S
O722 C732 1.274 . S
O723 Co712 1.976 . S
O723 C732 1.251 . S
O724 Co711 2.264 1_556 S
O724 Co712 2.327 . S
O724 C733 1.257 . S
O725 Co712 2.073 . S
O725 C733 1.245 . S
C726 O734 1.259 . S
C726 O735 1.289 . S
C727 O736 1.246 . S
C727 O737 1.257 . S
C728 O716 1.251 . S
C728 O717 1.274 . S
C729 O714 1.245 . S
C729 O715 1.257 . S
C730 O719 1.259 . S
C730 O720 1.289 . S
C731 O718 1.246 . S
C731 O721 1.257 . S
C732 O722 1.274 . S
C732 O723 1.251 . S
C733 O724 1.257 . S
C733 O725 1.245 . S
O734 Co705 2.286 . S
O734 C726 1.259 . S
O735 Co705 2.069 . S
O735 C726 1.289 . S
O736 Co707 2.143 1_566 S
O736 C727 1.246 . S
O737 Co705 2.015 . S
O737 C727 1.257 . S
Co738 O741 2.042 1_556 S
Co738 O748 2.264 1_556 S
Co738 O767 2.286 . S
Co738 O768 2.069 . S
Co738 O770 2.015 1_455 S
Co739 O741 2.122 . S
Co739 O747 2.073 . S
Co739 O748 2.327 . S
Co739 O749 1.976 1_455 S
Co740 O741 2.094 . S
Co740 O743 2.079 1_454 S
Co740 O750 2.107 1_455 S
Co740 O751 2.147 . S
Co740 O755 2.115 1_554 S
Co740 O769 2.140 1_454 S
O741 Co738 2.042 1_554 S
O741 Co739 2.122 . S
O741 Co740 2.094 . S
O741 H742 0.980 . S
H742 O741 0.980 . S
O743 Co740 2.079 1_656 S
O743 Co744 2.042 1_556 S
O743 Co745 2.122 . S
O743 H746 0.980 . S
Co744 O743 2.042 1_554 S
Co744 O752 2.286 . S
Co744 O753 2.069 . S
Co744 O754 2.015 1_655 S
Co744 O757 2.264 1_554 S
Co745 O743 2.122 . S
Co745 O756 1.976 1_655 S
Co745 O757 2.327 . S
Co745 O758 2.073 . S
H746 O743 0.980 . S
O747 Co739 2.073 . S
O747 C762 1.245 . S
O748 Co738 2.264 1_554 S
O748 Co739 2.327 . S
O748 C762 1.257 . S
O749 Co739 1.976 1_655 S
O749 C761 1.251 . S
O750 Co740 2.107 1_655 S
O750 C761 1.274 . S
O751 Co740 2.147 . S
O751 C764 1.246 . S
O752 Co744 2.286 . S
O752 C763 1.259 . S
O753 Co744 2.069 . S
O753 C763 1.289 . S
O754 Co744 2.015 1_455 S
O754 C764 1.257 . S
O755 Co740 2.115 1_556 S
O755 C765 1.274 . S
O756 Co745 1.976 1_455 S
O756 C765 1.251 . S
O757 Co744 2.264 1_556 S
O757 Co745 2.327 . S
O757 C766 1.257 . S
O758 Co745 2.073 . S
O758 C766 1.245 . S
C759 O767 1.259 . S
C759 O768 1.289 . S
C760 O769 1.246 . S
C760 O770 1.257 . S
C761 O749 1.251 . S
C761 O750 1.274 . S
C762 O747 1.245 . S
C762 O748 1.257 . S
C763 O752 1.259 . S
C763 O753 1.289 . S
C764 O751 1.246 . S
C764 O754 1.257 . S
C765 O755 1.274 . S
C765 O756 1.251 . S
C766 O757 1.257 . S
C766 O758 1.245 . S
O767 Co738 2.286 . S
O767 C759 1.259 . S
O768 Co738 2.069 . S
O768 C759 1.289 . S
O769 Co740 2.140 1_656 S
O769 C760 1.246 . S
O770 Co738 2.015 1_655 S
O770 C760 1.257 . S
Co771 O774 2.042 1_556 S
Co771 O781 2.264 1_556 S
Co771 O800 2.286 . S
Co771 O801 2.069 . S
Co771 O803 2.015 . S
Co772 O774 2.122 . S
Co772 O780 2.073 . S
Co772 O781 2.327 . S
Co772 O782 1.976 . S
Co773 O774 2.087 . S
Co773 O776 2.087 1_554 S
Co773 O783 2.111 . S
Co773 O784 2.143 . S
Co773 O788 2.111 1_554 S
Co773 O802 2.143 1_554 S
O774 Co771 2.042 1_554 S
O774 Co772 2.122 . S
O774 Co773 2.087 . S
O774 H775 0.980 . S
H775 O774 0.980 . S
O776 Co773 2.087 1_556 S
O776 Co777 2.042 1_556 S
O776 Co778 2.122 . S
O776 H779 0.980 . S
Co777 O776 2.042 1_554 S
Co777 O785 2.286 . S
Co777 O786 2.069 . S
Co777 O787 2.015 . S
Co777 O790 2.264 1_554 S
Co778 O776 2.122 . S
Co778 O789 1.976 . S
Co778 O790 2.327 . S
Co778 O791 2.073 . S
H779 O776 0.980 . S
O780 Co772 2.073 . S
O780 C795 1.245 . S
O781 Co771 2.264 1_554 S
O781 Co772 2.327 . S
O781 C795 1.257 . S
O782 Co772 1.976 . S
O782 C794 1.251 . S
O783 Co773 2.111 . S
O783 C794 1.274 . S
O784 Co773 2.143 . S
O784 C797 1.246 . S
O785 Co777 2.286 . S
O785 C796 1.259 . S
O786 Co777 2.069 . S
O786 C796 1.289 . S
O787 Co777 2.015 . S
O787 C797 1.257 . S
O788 Co773 2.111 1_556 S
O788 C798 1.274 . S
O789 Co778 1.976 . S
O789 C798 1.251 . S
O790 Co777 2.264 1_556 S
O790 Co778 2.327 . S
O790 C799 1.257 . S
O791 Co778 2.073 . S
O791 C799 1.245 . S
C792 O800 1.259 . S
C792 O801 1.289 . S
C793 O802 1.246 . S
C793 O803 1.257 . S
C794 O782 1.251 . S
C794 O783 1.274 . S
C795 O780 1.245 . S
C795 O781 1.257 . S
C796 O785 1.259 . S
C796 O786 1.289 . S
C797 O784 1.246 . S
C797 O787 1.257 . S
C798 O788 1.274 . S
C798 O789 1.251 . S
C799 O790 1.257 . S
C799 O791 1.245 . S
O800 Co771 2.286 . S
O800 C792 1.259 . S
O801 Co771 2.069 . S
O801 C792 1.289 . S
O802 Co773 2.143 1_556 S
O802 C793 1.246 . S
O803 Co771 2.015 . S
O803 C793 1.257 . S
Co804 O807 2.042 . S
Co804 O814 2.264 . S
Co804 O833 2.286 . S
Co804 O834 2.069 . S
Co804 O836 2.015 . S
Co805 O807 2.122 . S
Co805 O813 2.073 . S
Co805 O814 2.327 . S
Co805 O815 1.976 . S
Co806 O807 2.094 . S
Co806 O809 2.080 1_455 S
Co806 O816 2.113 . S
Co806 O817 2.139 1_455 S
Co806 O821 2.110 1_455 S
Co806 O835 2.148 . S
O807 Co804 2.042 . S
O807 Co805 2.122 . S
O807 Co806 2.094 . S
O807 H808 0.980 . S
H808 O807 0.980 . S
O809 Co806 2.080 1_655 S
O809 Co810 2.042 . S
O809 Co811 2.122 . S
O809 H812 0.980 . S
Co810 O809 2.042 . S
Co810 O818 2.286 . S
Co810 O819 2.069 . S
Co810 O820 2.015 . S
Co810 O823 2.264 . S
Co811 O809 2.122 . S
Co811 O822 1.976 . S
Co811 O823 2.327 . S
Co811 O824 2.073 . S
H812 O809 0.980 . S
O813 Co805 2.073 . S
O813 C828 1.245 . S
O814 Co804 2.264 . S
O814 Co805 2.327 . S
O814 C828 1.257 . S
O815 Co805 1.976 . S
O815 C827 1.251 . S
O816 Co806 2.113 . S
O816 C827 1.274 . S
O817 Co806 2.139 1_655 S
O817 C830 1.246 . S
O818 Co810 2.286 . S
O818 C829 1.259 . S
O819 Co810 2.069 . S
O819 C829 1.289 . S
O820 Co810 2.015 . S
O820 C830 1.257 . S
O821 Co806 2.110 1_655 S
O821 C831 1.274 . S
O822 Co811 1.976 . S
O822 C831 1.251 . S
O823 Co810 2.264 . S
O823 Co811 2.327 . S
O823 C832 1.257 . S
O824 Co811 2.073 . S
O824 C832 1.245 . S
C825 O833 1.259 . S
C825 O834 1.289 . S
C826 O835 1.246 . S
C826 O836 1.257 . S
C827 O815 1.251 . S
C827 O816 1.274 . S
C828 O813 1.245 . S
C828 O814 1.257 . S
C829 O818 1.259 . S
C829 O819 1.289 . S
C830 O817 1.246 . S
C830 O820 1.257 . S
C831 O821 1.274 . S
C831 O822 1.251 . S
C832 O823 1.257 . S
C832 O824 1.245 . S
O833 Co804 2.286 . S
O833 C825 1.259 . S
O834 Co804 2.069 . S
O834 C825 1.289 . S
O835 Co806 2.148 . S
O835 C826 1.246 . S
O836 Co804 2.015 . S
O836 C826 1.257 . S
Co837 O840 2.042 . S
Co837 O847 2.264 . S
Co837 O866 2.286 . S
Co837 O867 2.069 . S
Co837 O869 2.015 1_565 S
Co838 O840 2.122 . S
Co838 O846 2.073 . S
Co838 O847 2.327 . S
Co838 O848 1.976 1_565 S
Co839 O840 2.087 1_545 S
Co839 O842 2.087 . S
Co839 O849 2.111 . S
Co839 O850 2.143 1_545 S
Co839 O854 2.111 1_545 S
Co839 O868 2.143 . S
O840 Co837 2.042 . S
O840 Co838 2.122 . S
O840 Co839 2.087 1_565 S
O840 H841 0.980 . S
H841 O840 0.980 . S
O842 Co839 2.087 . S
O842 Co843 2.042 . S
O842 Co844 2.122 . S
O842 H845 0.980 . S
Co843 O842 2.042 . S
Co843 O851 2.286 . S
Co843 O852 2.069 . S
Co843 O853 2.015 1_545 S
Co843 O856 2.264 . S
Co844 O842 2.122 . S
Co844 O855 1.976 1_545 S
Co844 O856 2.327 . S
Co844 O857 2.073 . S
H845 O842 0.980 . S
O846 Co838 2.073 . S
O846 C861 1.245 . S
O847 Co837 2.264 . S
O847 Co838 2.327 . S
O847 C861 1.257 . S
O848 Co838 1.976 1_545 S
O848 C860 1.251 . S
O849 Co839 2.111 . S
O849 C860 1.274 . S
O850 Co839 2.143 1_565 S
O850 C863 1.246 . S
O851 Co843 2.286 . S
O851 C862 1.259 . S
O852 Co843 2.069 . S
O852 C862 1.289 . S
O853 Co843 2.015 1_565 S
O853 C863 1.257 . S
O854 Co839 2.111 1_565 S
O854 C864 1.274 . S
O855 Co844 1.976 1_565 S
O855 C864 1.251 . S
O856 Co843 2.264 . S
O856 Co844 2.327 . S
O856 C865 1.257 . S
O857 Co844 2.073 . S
O857 C865 1.245 . S
C858 O866 1.259 . S
C858 O867 1.289 . S
C859 O868 1.246 . S
C859 O869 1.257 . S
C860 O848 1.251 . S
C860 O849 1.274 . S
C861 O846 1.245 . S
C861 O847 1.257 . S
C862 O851 1.259 . S
C862 O852 1.289 . S
C863 O850 1.246 . S
C863 O853 1.257 . S
C864 O854 1.274 . S
C864 O855 1.251 . S
C865 O856 1.257 . S
C865 O857 1.245 . S
O866 Co837 2.286 . S
O866 C858 1.259 . S
O867 Co837 2.069 . S
O867 C858 1.289 . S
O868 Co839 2.143 . S
O868 C859 1.246 . S
O869 Co837 2.015 1_545 S
O869 C859 1.257 . S
H870 C878 0.950 . S
H871 C883 0.950 . S
H872 C880 0.950 . S
H873 C882 0.950 . S
H874 C884 0.950 . S
H875 C886 0.950 . S
H876 C888 0.950 . S
H877 C889 0.950 . S
C878 H870 0.950 . S
C878 C879 1.386 . S
C878 C880 1.391 . S
C879 C878 1.386 . S
C879 C883 1.393 . S
C880 H872 0.950 . S
C880 C878 1.391 . S
C880 C881 1.400 . S
C881 C880 1.400 . S
C881 C882 1.398 . S
C881 C887 1.491 . S
C882 H873 0.950 . S
C882 C881 1.398 . S
C882 C883 1.391 . S
C883 H871 0.950 . S
C883 C879 1.393 . S
C883 C882 1.391 . S
C884 H874 0.950 . S
C884 C885 1.386 . S
C884 C886 1.391 . S
C885 C884 1.386 . S
C885 C889 1.393 . S
C886 H875 0.950 . S
C886 C884 1.391 . S
C886 C887 1.400 . S
C887 C881 1.491 . S
C887 C886 1.400 . S
C887 C888 1.398 . S
C888 H876 0.950 . S
C888 C887 1.398 . S
C888 C889 1.391 . S
C889 H877 0.950 . S
C889 C885 1.393 . S
C889 C888 1.391 . S
H890 C898 0.950 . S
H891 C903 0.950 . S
H892 C900 0.950 . S
H893 C902 0.950 . S
H894 C904 0.950 . S
H895 C906 0.950 . S
H896 C908 0.950 . S
H897 C909 0.950 . S
C898 H890 0.950 . S
C898 C899 1.386 . S
C898 C900 1.391 . S
C899 C898 1.386 . S
C899 C903 1.393 . S
C900 H892 0.950 . S
C900 C898 1.391 . S
C900 C901 1.400 . S
C901 C900 1.400 . S
C901 C902 1.398 . S
C901 C907 1.491 . S
C902 H893 0.950 . S
C902 C901 1.398 . S
C902 C903 1.391 . S
C903 H891 0.950 . S
C903 C899 1.393 . S
C903 C902 1.391 . S
C904 H894 0.950 . S
C904 C905 1.386 . S
C904 C906 1.391 . S
C905 C904 1.386 . S
C905 C909 1.393 . S
C906 H895 0.950 . S
C906 C904 1.391 . S
C906 C907 1.400 . S
C907 C901 1.491 . S
C907 C906 1.400 . S
C907 C908 1.398 . S
C908 H896 0.950 . S
C908 C907 1.398 . S
C908 C909 1.391 . S
C909 H897 0.950 . S
C909 C905 1.393 . S
C909 C908 1.391 . S
H910 C918 0.950 . S
H911 C923 0.950 . S
H912 C920 0.950 . S
H913 C922 0.950 . S
H914 C924 0.950 . S
H915 C926 0.950 . S
H916 C928 0.950 . S
H917 C929 0.950 . S
C918 H910 0.950 . S
C918 C919 1.386 . S
C918 C920 1.391 . S
C919 C918 1.386 . S
C919 C923 1.393 . S
C920 H912 0.950 . S
C920 C918 1.391 . S
C920 C921 1.400 . S
C921 C920 1.400 . S
C921 C922 1.398 . S
C921 C927 1.491 . S
C922 H913 0.950 . S
C922 C921 1.398 . S
C922 C923 1.391 . S
C923 H911 0.950 . S
C923 C919 1.393 . S
C923 C922 1.391 . S
C924 H914 0.950 . S
C924 C925 1.386 . S
C924 C926 1.391 . S
C925 C924 1.386 . S
C925 C929 1.393 . S
C926 H915 0.950 . S
C926 C924 1.391 . S
C926 C927 1.400 . S
C927 C921 1.491 . S
C927 C926 1.400 . S
C927 C928 1.398 . S
C928 H916 0.950 . S
C928 C927 1.398 . S
C928 C929 1.391 . S
C929 H917 0.950 . S
C929 C925 1.393 . S
C929 C928 1.391 . S
H930 C938 0.950 . S
H931 C943 0.950 . S
H932 C940 0.950 . S
H933 C942 0.950 . S
H934 C944 0.950 . S
H935 C946 0.950 . S
H936 C948 0.950 . S
H937 C949 0.950 . S
C938 H930 0.950 . S
C938 C939 1.386 . S
C938 C940 1.391 . S
C939 C938 1.386 . S
C939 C943 1.393 . S
C940 H932 0.950 . S
C940 C938 1.391 . S
C940 C941 1.400 . S
C941 C940 1.400 . S
C941 C942 1.398 . S
C941 C947 1.491 . S
C942 H933 0.950 . S
C942 C941 1.398 . S
C942 C943 1.391 . S
C943 H931 0.950 . S
C943 C939 1.393 . S
C943 C942 1.391 . S
C944 H934 0.950 . S
C944 C945 1.386 . S
C944 C946 1.391 . S
C945 C944 1.386 . S
C945 C949 1.393 . S
C946 H935 0.950 . S
C946 C944 1.391 . S
C946 C947 1.400 . S
C947 C941 1.491 . S
C947 C946 1.400 . S
C947 C948 1.398 . S
C948 H936 0.950 . S
C948 C947 1.398 . S
C948 C949 1.391 . S
C949 H937 0.950 . S
C949 C945 1.393 . S
C949 C948 1.391 . S
H950 C958 0.950 . S
H951 C963 0.950 . S
H952 C960 0.950 . S
H953 C962 0.950 . S
H954 C964 0.950 . S
H955 C966 0.950 . S
H956 C968 0.950 . S
H957 C969 0.950 . S
C958 H950 0.950 . S
C958 C959 1.386 . S
C958 C960 1.391 . S
C959 C958 1.386 . S
C959 C963 1.393 . S
C960 H952 0.950 . S
C960 C958 1.391 . S
C960 C961 1.400 . S
C961 C960 1.400 . S
C961 C962 1.398 . S
C961 C967 1.491 . S
C962 H953 0.950 . S
C962 C961 1.398 . S
C962 C963 1.391 . S
C963 H951 0.950 . S
C963 C959 1.393 . S
C963 C962 1.391 . S
C964 H954 0.950 . S
C964 C965 1.386 . S
C964 C966 1.391 . S
C965 C964 1.386 . S
C965 C969 1.393 . S
C966 H955 0.950 . S
C966 C964 1.391 . S
C966 C967 1.400 . S
C967 C961 1.491 . S
C967 C966 1.400 . S
C967 C968 1.398 . S
C968 H956 0.950 . S
C968 C967 1.398 . S
C968 C969 1.391 . S
C969 H957 0.950 . S
C969 C965 1.393 . S
C969 C968 1.391 . S
H970 C978 0.950 . S
H971 C983 0.950 . S
H972 C980 0.950 . S
H973 C982 0.950 . S
H974 C984 0.950 . S
H975 C986 0.950 . S
H976 C988 0.950 . S
H977 C989 0.950 . S
C978 H970 0.950 . S
C978 C979 1.386 . S
C978 C980 1.391 . S
C979 C978 1.386 . S
C979 C983 1.393 . S
C980 H972 0.950 . S
C980 C978 1.391 . S
C980 C981 1.400 . S
C981 C980 1.400 . S
C981 C982 1.398 . S
C981 C987 1.491 . S
C982 H973 0.950 . S
C982 C981 1.398 . S
C982 C983 1.391 . S
C983 H971 0.950 . S
C983 C979 1.393 . S
C983 C982 1.391 . S
C984 H974 0.950 . S
C984 C985 1.386 . S
C984 C986 1.391 . S
C985 C984 1.386 . S
C985 C989 1.393 . S
C986 H975 0.950 . S
C986 C984 1.391 . S
C986 C987 1.400 . S
C987 C981 1.491 . S
C987 C986 1.400 . S
C987 C988 1.398 . S
C988 H976 0.950 . S
C988 C987 1.398 . S
C988 C989 1.391 . S
C989 H977 0.950 . S
C989 C985 1.393 . S
C989 C988 1.391 . S
H990 C998 0.950 . S
H991 C1003 0.950 . S
H992 C1000 0.950 . S
H993 C1002 0.950 . S
H994 C1004 0.950 . S
H995 C1006 0.950 . S
H996 C1008 0.950 . S
H997 C1009 0.950 . S
C998 H990 0.950 . S
C998 C999 1.386 . S
C998 C1000 1.391 . S
C999 C998 1.386 . S
C999 C1003 1.393 . S
C1000 H992 0.950 . S
C1000 C998 1.391 . S
C1000 C1001 1.400 . S
C1001 C1000 1.400 . S
C1001 C1002 1.398 . S
C1001 C1007 1.491 . S
C1002 H993 0.950 . S
C1002 C1001 1.398 . S
C1002 C1003 1.391 . S
C1003 H991 0.950 . S
C1003 C999 1.393 . S
C1003 C1002 1.391 . S
C1004 H994 0.950 . S
C1004 C1005 1.386 . S
C1004 C1006 1.391 . S
C1005 C1004 1.386 . S
C1005 C1009 1.393 . S
C1006 H995 0.950 . S
C1006 C1004 1.391 . S
C1006 C1007 1.400 . S
C1007 C1001 1.491 . S
C1007 C1006 1.400 . S
C1007 C1008 1.398 . S
C1008 H996 0.950 . S
C1008 C1007 1.398 . S
C1008 C1009 1.391 . S
C1009 H997 0.950 . S
C1009 C1005 1.393 . S
C1009 C1008 1.391 . S
H1010 C1018 0.950 . S
H1011 C1023 0.950 . S
H1012 C1020 0.950 . S
H1013 C1022 0.950 . S
H1014 C1024 0.950 . S
H1015 C1026 0.950 . S
H1016 C1028 0.950 . S
H1017 C1029 0.950 . S
C1018 H1010 0.950 . S
C1018 C1019 1.386 . S
C1018 C1020 1.391 . S
C1019 C1018 1.386 . S
C1019 C1023 1.393 . S
C1020 H1012 0.950 . S
C1020 C1018 1.391 . S
C1020 C1021 1.400 . S
C1021 C1020 1.400 . S
C1021 C1022 1.398 . S
C1021 C1027 1.491 . S
C1022 H1013 0.950 . S
C1022 C1021 1.398 . S
C1022 C1023 1.391 . S
C1023 H1011 0.950 . S
C1023 C1019 1.393 . S
C1023 C1022 1.391 . S
C1024 H1014 0.950 . S
C1024 C1025 1.386 . S
C1024 C1026 1.391 . S
C1025 C1024 1.386 . S
C1025 C1029 1.393 . S
C1026 H1015 0.950 . S
C1026 C1024 1.391 . S
C1026 C1027 1.400 . S
C1027 C1021 1.491 . S
C1027 C1026 1.400 . S
C1027 C1028 1.398 . S
C1028 H1016 0.950 . S
C1028 C1027 1.398 . S
C1028 C1029 1.391 . S
C1029 H1017 0.950 . S
C1029 C1025 1.393 . S
C1029 C1028 1.391 . S
H1030 C1038 0.950 . S
H1031 C1043 0.950 . S
H1032 C1040 0.950 . S
H1033 C1042 0.950 . S
H1034 C1044 0.950 . S
H1035 C1046 0.950 . S
H1036 C1048 0.950 . S
H1037 C1049 0.950 . S
C1038 H1030 0.950 . S
C1038 C1039 1.386 . S
C1038 C1040 1.391 . S
C1039 C1038 1.386 . S
C1039 C1043 1.393 . S
C1040 H1032 0.950 . S
C1040 C1038 1.391 . S
C1040 C1041 1.400 . S
C1041 C1040 1.400 . S
C1041 C1042 1.398 . S
C1041 C1047 1.491 . S
C1042 H1033 0.950 . S
C1042 C1041 1.398 . S
C1042 C1043 1.391 . S
C1043 H1031 0.950 . S
C1043 C1039 1.393 . S
C1043 C1042 1.391 . S
C1044 H1034 0.950 . S
C1044 C1045 1.386 . S
C1044 C1046 1.391 . S
C1045 C1044 1.386 . S
C1045 C1049 1.393 . S
C1046 H1035 0.950 . S
C1046 C1044 1.391 . S
C1046 C1047 1.400 . S
C1047 C1041 1.491 . S
C1047 C1046 1.400 . S
C1047 C1048 1.398 . S
C1048 H1036 0.950 . S
C1048 C1047 1.398 . S
C1048 C1049 1.391 . S
C1049 H1037 0.950 . S
C1049 C1045 1.393 . S
C1049 C1048 1.391 . S
H1050 C1058 0.950 . S
H1051 C1063 0.950 . S
H1052 C1060 0.950 . S
H1053 C1062 0.950 . S
H1054 C1064 0.950 . S
H1055 C1066 0.950 . S
H1056 C1068 0.950 . S
H1057 C1069 0.950 . S
C1058 H1050 0.950 . S
C1058 C1059 1.386 . S
C1058 C1060 1.391 . S
C1059 C1058 1.386 . S
C1059 C1063 1.393 . S
C1060 H1052 0.950 . S
C1060 C1058 1.391 . S
C1060 C1061 1.400 . S
C1061 C1060 1.400 . S
C1061 C1062 1.398 . S
C1061 C1067 1.491 . S
C1062 H1053 0.950 . S
C1062 C1061 1.398 . S
C1062 C1063 1.391 . S
C1063 H1051 0.950 . S
C1063 C1059 1.393 . S
C1063 C1062 1.391 . S
C1064 H1054 0.950 . S
C1064 C1065 1.386 . S
C1064 C1066 1.391 . S
C1065 C1064 1.386 . S
C1065 C1069 1.393 . S
C1066 H1055 0.950 . S
C1066 C1064 1.391 . S
C1066 C1067 1.400 . S
C1067 C1061 1.491 . S
C1067 C1066 1.400 . S
C1067 C1068 1.398 . S
C1068 H1056 0.950 . S
C1068 C1067 1.398 . S
C1068 C1069 1.391 . S
C1069 H1057 0.950 . S
C1069 C1065 1.393 . S
C1069 C1068 1.391 . S
H1070 C1078 0.950 . S
H1071 C1083 0.950 . S
H1072 C1080 0.950 . S
H1073 C1082 0.950 . S
H1074 C1084 0.950 . S
H1075 C1086 0.950 . S
H1076 C1088 0.950 . S
H1077 C1089 0.950 . S
C1078 H1070 0.950 . S
C1078 C1079 1.386 . S
C1078 C1080 1.391 . S
C1079 C1078 1.386 . S
C1079 C1083 1.393 . S
C1080 H1072 0.950 . S
C1080 C1078 1.391 . S
C1080 C1081 1.400 . S
C1081 C1080 1.400 . S
C1081 C1082 1.398 . S
C1081 C1087 1.491 . S
C1082 H1073 0.950 . S
C1082 C1081 1.398 . S
C1082 C1083 1.391 . S
C1083 H1071 0.950 . S
C1083 C1079 1.393 . S
C1083 C1082 1.391 . S
C1084 H1074 0.950 . S
C1084 C1085 1.386 . S
C1084 C1086 1.391 . S
C1085 C1084 1.386 . S
C1085 C1089 1.393 . S
C1086 H1075 0.950 . S
C1086 C1084 1.391 . S
C1086 C1087 1.400 . S
C1087 C1081 1.491 . S
C1087 C1086 1.400 . S
C1087 C1088 1.398 . S
C1088 H1076 0.950 . S
C1088 C1087 1.398 . S
C1088 C1089 1.391 . S
C1089 H1077 0.950 . S
C1089 C1085 1.393 . S
C1089 C1088 1.391 . S
H1090 C1098 0.950 . S
H1091 C1103 0.950 . S
H1092 C1100 0.950 . S
H1093 C1102 0.950 . S
H1094 C1104 0.950 . S
H1095 C1106 0.950 . S
H1096 C1108 0.950 . S
H1097 C1109 0.950 . S
C1098 H1090 0.950 . S
C1098 C1099 1.386 . S
C1098 C1100 1.391 . S
C1099 C1098 1.386 . S
C1099 C1103 1.393 . S
C1100 H1092 0.950 . S
C1100 C1098 1.391 . S
C1100 C1101 1.400 . S
C1101 C1100 1.400 . S
C1101 C1102 1.398 . S
C1101 C1107 1.491 . S
C1102 H1093 0.950 . S
C1102 C1101 1.398 . S
C1102 C1103 1.391 . S
C1103 H1091 0.950 . S
C1103 C1099 1.393 . S
C1103 C1102 1.391 . S
C1104 H1094 0.950 . S
C1104 C1105 1.386 . S
C1104 C1106 1.391 . S
C1105 C1104 1.386 . S
C1105 C1109 1.393 . S
C1106 H1095 0.950 . S
C1106 C1104 1.391 . S
C1106 C1107 1.400 . S
C1107 C1101 1.491 . S
C1107 C1106 1.400 . S
C1107 C1108 1.398 . S
C1108 H1096 0.950 . S
C1108 C1107 1.398 . S
C1108 C1109 1.391 . S
C1109 H1097 0.950 . S
C1109 C1105 1.393 . S
C1109 C1108 1.391 . S
H1110 C1118 0.950 . S
H1111 C1123 0.950 . S
H1112 C1120 0.950 . S
H1113 C1122 0.950 . S
H1114 C1124 0.950 . S
H1115 C1126 0.950 . S
H1116 C1128 0.950 . S
H1117 C1129 0.950 . S
C1118 H1110 0.950 . S
C1118 C1119 1.386 . S
C1118 C1120 1.391 . S
C1119 C1118 1.386 . S
C1119 C1123 1.393 . S
C1120 H1112 0.950 . S
C1120 C1118 1.391 . S
C1120 C1121 1.400 . S
C1121 C1120 1.400 . S
C1121 C1122 1.398 . S
C1121 C1127 1.491 . S
C1122 H1113 0.950 . S
C1122 C1121 1.398 . S
C1122 C1123 1.391 . S
C1123 H1111 0.950 . S
C1123 C1119 1.393 . S
C1123 C1122 1.391 . S
C1124 H1114 0.950 . S
C1124 C1125 1.386 . S
C1124 C1126 1.391 . S
C1125 C1124 1.386 . S
C1125 C1129 1.393 . S
C1126 H1115 0.950 . S
C1126 C1124 1.391 . S
C1126 C1127 1.400 . S
C1127 C1121 1.491 . S
C1127 C1126 1.400 . S
C1127 C1128 1.398 . S
C1128 H1116 0.950 . S
C1128 C1127 1.398 . S
C1128 C1129 1.391 . S
C1129 H1117 0.950 . S
C1129 C1125 1.393 . S
C1129 C1128 1.391 . S
H1130 C1138 0.950 . S
H1131 C1143 0.950 . S
H1132 C1140 0.950 . S
H1133 C1142 0.950 . S
H1134 C1144 0.950 . S
H1135 C1146 0.950 . S
H1136 C1148 0.950 . S
H1137 C1149 0.950 . S
C1138 H1130 0.950 . S
C1138 C1139 1.386 . S
C1138 C1140 1.391 . S
C1139 C1138 1.386 . S
C1139 C1143 1.393 . S
C1140 H1132 0.950 . S
C1140 C1138 1.391 . S
C1140 C1141 1.400 . S
C1141 C1140 1.400 . S
C1141 C1142 1.398 . S
C1141 C1147 1.491 . S
C1142 H1133 0.950 . S
C1142 C1141 1.398 . S
C1142 C1143 1.391 . S
C1143 H1131 0.950 . S
C1143 C1139 1.393 . S
C1143 C1142 1.391 . S
C1144 H1134 0.950 . S
C1144 C1145 1.386 . S
C1144 C1146 1.391 . S
C1145 C1144 1.386 . S
C1145 C1149 1.393 . S
C1146 H1135 0.950 . S
C1146 C1144 1.391 . S
C1146 C1147 1.400 . S
C1147 C1141 1.491 . S
C1147 C1146 1.400 . S
C1147 C1148 1.398 . S
C1148 H1136 0.950 . S
C1148 C1147 1.398 . S
C1148 C1149 1.391 . S
C1149 H1137 0.950 . S
C1149 C1145 1.393 . S
C1149 C1148 1.391 . S
H1150 C1158 0.950 . S
H1151 C1163 0.950 . S
H1152 C1160 0.950 . S
H1153 C1162 0.950 . S
H1154 C1164 0.950 . S
H1155 C1166 0.950 . S
H1156 C1168 0.950 . S
H1157 C1169 0.950 . S
C1158 H1150 0.950 . S
C1158 C1159 1.386 . S
C1158 C1160 1.391 . S
C1159 C1158 1.386 . S
C1159 C1163 1.393 . S
C1160 H1152 0.950 . S
C1160 C1158 1.391 . S
C1160 C1161 1.400 . S
C1161 C1160 1.400 . S
C1161 C1162 1.398 . S
C1161 C1167 1.491 . S
C1162 H1153 0.950 . S
C1162 C1161 1.398 . S
C1162 C1163 1.391 . S
C1163 H1151 0.950 . S
C1163 C1159 1.393 . S
C1163 C1162 1.391 . S
C1164 H1154 0.950 . S
C1164 C1165 1.386 . S
C1164 C1166 1.391 . S
C1165 C1164 1.386 . S
C1165 C1169 1.393 . S
C1166 H1155 0.950 . S
C1166 C1164 1.391 . S
C1166 C1167 1.400 . S
C1167 C1161 1.491 . S
C1167 C1166 1.400 . S
C1167 C1168 1.398 . S
C1168 H1156 0.950 . S
C1168 C1167 1.398 . S
C1168 C1169 1.391 . S
C1169 H1157 0.950 . S
C1169 C1165 1.393 . S
C1169 C1168 1.391 . S
H1170 C1178 0.950 . S
H1171 C1183 0.950 . S
H1172 C1180 0.950 . S
H1173 C1182 0.950 . S
H1174 C1184 0.950 . S
H1175 C1186 0.950 . S
H1176 C1188 0.950 . S
H1177 C1189 0.950 . S
C1178 H1170 0.950 . S
C1178 C1179 1.386 . S
C1178 C1180 1.391 . S
C1179 C1178 1.386 . S
C1179 C1183 1.393 . S
C1180 H1172 0.950 . S
C1180 C1178 1.391 . S
C1180 C1181 1.400 . S
C1181 C1180 1.400 . S
C1181 C1182 1.398 . S
C1181 C1187 1.491 . S
C1182 H1173 0.950 . S
C1182 C1181 1.398 . S
C1182 C1183 1.391 . S
C1183 H1171 0.950 . S
C1183 C1179 1.393 . S
C1183 C1182 1.391 . S
C1184 H1174 0.950 . S
C1184 C1185 1.386 . S
C1184 C1186 1.391 . S
C1185 C1184 1.386 . S
C1185 C1189 1.393 . S
C1186 H1175 0.950 . S
C1186 C1184 1.391 . S
C1186 C1187 1.400 . S
C1187 C1181 1.491 . S
C1187 C1186 1.400 . S
C1187 C1188 1.398 . S
C1188 H1176 0.950 . S
C1188 C1187 1.398 . S
C1188 C1189 1.391 . S
C1189 H1177 0.950 . S
C1189 C1185 1.393 . S
C1189 C1188 1.391 . S
H1190 C1198 0.950 . S
H1191 C1203 0.950 . S
H1192 C1200 0.950 . S
H1193 C1202 0.950 . S
H1194 C1204 0.950 . S
H1195 C1206 0.950 . S
H1196 C1208 0.950 . S
H1197 C1209 0.950 . S
C1198 H1190 0.950 . S
C1198 C1199 1.386 . S
C1198 C1200 1.391 . S
C1199 C1198 1.386 . S
C1199 C1203 1.393 . S
C1200 H1192 0.950 . S
C1200 C1198 1.391 . S
C1200 C1201 1.400 . S
C1201 C1200 1.400 . S
C1201 C1202 1.398 . S
C1201 C1207 1.491 . S
C1202 H1193 0.950 . S
C1202 C1201 1.398 . S
C1202 C1203 1.391 . S
C1203 H1191 0.950 . S
C1203 C1199 1.393 . S
C1203 C1202 1.391 . S
C1204 H1194 0.950 . S
C1204 C1205 1.386 . S
C1204 C1206 1.391 . S
C1205 C1204 1.386 . S
C1205 C1209 1.393 . S
C1206 H1195 0.950 . S
C1206 C1204 1.391 . S
C1206 C1207 1.400 . S
C1207 C1201 1.491 . S
C1207 C1206 1.400 . S
C1207 C1208 1.398 . S
C1208 H1196 0.950 . S
C1208 C1207 1.398 . S
C1208 C1209 1.391 . S
C1209 H1197 0.950 . S
C1209 C1205 1.393 . S
C1209 C1208 1.391 . S
H1210 C1218 0.950 . S
H1211 C1223 0.950 . S
H1212 C1220 0.950 . S
H1213 C1222 0.950 . S
H1214 C1224 0.950 . S
H1215 C1226 0.950 . S
H1216 C1228 0.950 . S
H1217 C1229 0.950 . S
C1218 H1210 0.950 . S
C1218 C1219 1.386 . S
C1218 C1220 1.391 . S
C1219 C1218 1.386 . S
C1219 C1223 1.393 . S
C1220 H1212 0.950 . S
C1220 C1218 1.391 . S
C1220 C1221 1.400 . S
C1221 C1220 1.400 . S
C1221 C1222 1.398 . S
C1221 C1227 1.491 . S
C1222 H1213 0.950 . S
C1222 C1221 1.398 . S
C1222 C1223 1.391 . S
C1223 H1211 0.950 . S
C1223 C1219 1.393 . S
C1223 C1222 1.391 . S
C1224 H1214 0.950 . S
C1224 C1225 1.386 . S
C1224 C1226 1.391 . S
C1225 C1224 1.386 . S
C1225 C1229 1.393 . S
C1226 H1215 0.950 . S
C1226 C1224 1.391 . S
C1226 C1227 1.400 . S
C1227 C1221 1.491 . S
C1227 C1226 1.400 . S
C1227 C1228 1.398 . S
C1228 H1216 0.950 . S
C1228 C1227 1.398 . S
C1228 C1229 1.391 . S
C1229 H1217 0.950 . S
C1229 C1225 1.393 . S
C1229 C1228 1.391 . S
H1230 C1238 0.950 . S
H1231 C1243 0.950 . S
H1232 C1240 0.950 . S
H1233 C1242 0.950 . S
H1234 C1244 0.950 . S
H1235 C1246 0.950 . S
H1236 C1248 0.950 . S
H1237 C1249 0.950 . S
C1238 H1230 0.950 . S
C1238 C1239 1.386 . S
C1238 C1240 1.391 . S
C1239 C1238 1.386 . S
C1239 C1243 1.393 . S
C1240 H1232 0.950 . S
C1240 C1238 1.391 . S
C1240 C1241 1.400 . S
C1241 C1240 1.400 . S
C1241 C1242 1.398 . S
C1241 C1247 1.491 . S
C1242 H1233 0.950 . S
C1242 C1241 1.398 . S
C1242 C1243 1.391 . S
C1243 H1231 0.950 . S
C1243 C1239 1.393 . S
C1243 C1242 1.391 . S
C1244 H1234 0.950 . S
C1244 C1245 1.386 . S
C1244 C1246 1.391 . S
C1245 C1244 1.386 . S
C1245 C1249 1.393 . S
C1246 H1235 0.950 . S
C1246 C1244 1.391 . S
C1246 C1247 1.400 . S
C1247 C1241 1.491 . S
C1247 C1246 1.400 . S
C1247 C1248 1.398 . S
C1248 H1236 0.950 . S
C1248 C1247 1.398 . S
C1248 C1249 1.391 . S
C1249 H1237 0.950 . S
C1249 C1245 1.393 . S
C1249 C1248 1.391 . S
H1250 C1258 0.950 . S
H1251 C1263 0.950 . S
H1252 C1260 0.950 . S
H1253 C1262 0.950 . S
H1254 C1264 0.950 . S
H1255 C1266 0.950 . S
H1256 C1268 0.950 . S
H1257 C1269 0.950 . S
C1258 H1250 0.950 . S
C1258 C1259 1.386 . S
C1258 C1260 1.391 . S
C1259 C1258 1.386 . S
C1259 C1263 1.393 . S
C1260 H1252 0.950 . S
C1260 C1258 1.391 . S
C1260 C1261 1.400 . S
C1261 C1260 1.400 . S
C1261 C1262 1.398 . S
C1261 C1267 1.491 . S
C1262 H1253 0.950 . S
C1262 C1261 1.398 . S
C1262 C1263 1.391 . S
C1263 H1251 0.950 . S
C1263 C1259 1.393 . S
C1263 C1262 1.391 . S
C1264 H1254 0.950 . S
C1264 C1265 1.386 . S
C1264 C1266 1.391 . S
C1265 C1264 1.386 . S
C1265 C1269 1.393 . S
C1266 H1255 0.950 . S
C1266 C1264 1.391 . S
C1266 C1267 1.400 . S
C1267 C1261 1.491 . S
C1267 C1266 1.400 . S
C1267 C1268 1.398 . S
C1268 H1256 0.950 . S
C1268 C1267 1.398 . S
C1268 C1269 1.391 . S
C1269 H1257 0.950 . S
C1269 C1265 1.393 . S
C1269 C1268 1.391 . S
H1270 C1278 0.950 . S
H1271 C1283 0.950 . S
H1272 C1280 0.950 . S
H1273 C1282 0.950 . S
H1274 C1284 0.950 . S
H1275 C1286 0.950 . S
H1276 C1288 0.950 . S
H1277 C1289 0.950 . S
C1278 H1270 0.950 . S
C1278 C1279 1.386 . S
C1278 C1280 1.391 . S
C1279 C1278 1.386 . S
C1279 C1283 1.393 . S
C1280 H1272 0.950 . S
C1280 C1278 1.391 . S
C1280 C1281 1.400 . S
C1281 C1280 1.400 . S
C1281 C1282 1.398 . S
C1281 C1287 1.491 . S
C1282 H1273 0.950 . S
C1282 C1281 1.398 . S
C1282 C1283 1.391 . S
C1283 H1271 0.950 . S
C1283 C1279 1.393 . S
C1283 C1282 1.391 . S
C1284 H1274 0.950 . S
C1284 C1285 1.386 . S
C1284 C1286 1.391 . S
C1285 C1284 1.386 . S
C1285 C1289 1.393 . S
C1286 H1275 0.950 . S
C1286 C1284 1.391 . S
C1286 C1287 1.400 . S
C1287 C1281 1.491 . S
C1287 C1286 1.400 . S
C1287 C1288 1.398 . S
C1288 H1276 0.950 . S
C1288 C1287 1.398 . S
C1288 C1289 1.391 . S
C1289 H1277 0.950 . S
C1289 C1285 1.393 . S
C1289 C1288 1.391 . S
H1290 C1298 0.950 . S
H1291 C1303 0.950 . S
H1292 C1300 0.950 . S
H1293 C1302 0.950 . S
H1294 C1304 0.950 . S
H1295 C1306 0.950 . S
H1296 C1308 0.950 . S
H1297 C1309 0.950 . S
C1298 H1290 0.950 . S
C1298 C1299 1.386 . S
C1298 C1300 1.391 . S
C1299 C1298 1.386 . S
C1299 C1303 1.393 . S
C1300 H1292 0.950 . S
C1300 C1298 1.391 . S
C1300 C1301 1.400 . S
C1301 C1300 1.400 . S
C1301 C1302 1.398 . S
C1301 C1307 1.491 . S
C1302 H1293 0.950 . S
C1302 C1301 1.398 . S
C1302 C1303 1.391 . S
C1303 H1291 0.950 . S
C1303 C1299 1.393 . S
C1303 C1302 1.391 . S
C1304 H1294 0.950 . S
C1304 C1305 1.386 . S
C1304 C1306 1.391 . S
C1305 C1304 1.386 . S
C1305 C1309 1.393 . S
C1306 H1295 0.950 . S
C1306 C1304 1.391 . S
C1306 C1307 1.400 . S
C1307 C1301 1.491 . S
C1307 C1306 1.400 . S
C1307 C1308 1.398 . S
C1308 H1296 0.950 . S
C1308 C1307 1.398 . S
C1308 C1309 1.391 . S
C1309 H1297 0.950 . S
C1309 C1305 1.393 . S
C1309 C1308 1.391 . S
H1310 C1318 0.950 . S
H1311 C1323 0.950 . S
H1312 C1320 0.950 . S
H1313 C1322 0.950 . S
H1314 C1324 0.950 . S
H1315 C1326 0.950 . S
H1316 C1328 0.950 . S
H1317 C1329 0.950 . S
C1318 H1310 0.950 . S
C1318 C1319 1.386 . S
C1318 C1320 1.391 . S
C1319 C1318 1.386 . S
C1319 C1323 1.393 . S
C1320 H1312 0.950 . S
C1320 C1318 1.391 . S
C1320 C1321 1.400 . S
C1321 C1320 1.400 . S
C1321 C1322 1.398 . S
C1321 C1327 1.491 . S
C1322 H1313 0.950 . S
C1322 C1321 1.398 . S
C1322 C1323 1.391 . S
C1323 H1311 0.950 . S
C1323 C1319 1.393 . S
C1323 C1322 1.391 . S
C1324 H1314 0.950 . S
C1324 C1325 1.386 . S
C1324 C1326 1.391 . S
C1325 C1324 1.386 . S
C1325 C1329 1.393 . S
C1326 H1315 0.950 . S
C1326 C1324 1.391 . S
C1326 C1327 1.400 . S
C1327 C1321 1.491 . S
C1327 C1326 1.400 . S
C1327 C1328 1.398 . S
C1328 H1316 0.950 . S
C1328 C1327 1.398 . S
C1328 C1329 1.391 . S
C1329 H1317 0.950 . S
C1329 C1325 1.393 . S
C1329 C1328 1.391 . S
H1330 C1338 0.950 . S
H1331 C1343 0.950 . S
H1332 C1340 0.950 . S
H1333 C1342 0.950 . S
H1334 C1344 0.950 . S
H1335 C1346 0.950 . S
H1336 C1348 0.950 . S
H1337 C1349 0.950 . S
C1338 H1330 0.950 . S
C1338 C1339 1.386 . S
C1338 C1340 1.391 . S
C1339 C1338 1.386 . S
C1339 C1343 1.393 . S
C1340 H1332 0.950 . S
C1340 C1338 1.391 . S
C1340 C1341 1.400 . S
C1341 C1340 1.400 . S
C1341 C1342 1.398 . S
C1341 C1347 1.491 . S
C1342 H1333 0.950 . S
C1342 C1341 1.398 . S
C1342 C1343 1.391 . S
C1343 H1331 0.950 . S
C1343 C1339 1.393 . S
C1343 C1342 1.391 . S
C1344 H1334 0.950 . S
C1344 C1345 1.386 . S
C1344 C1346 1.391 . S
C1345 C1344 1.386 . S
C1345 C1349 1.393 . S
C1346 H1335 0.950 . S
C1346 C1344 1.391 . S
C1346 C1347 1.400 . S
C1347 C1341 1.491 . S
C1347 C1346 1.400 . S
C1347 C1348 1.398 . S
C1348 H1336 0.950 . S
C1348 C1347 1.398 . S
C1348 C1349 1.391 . S
C1349 H1337 0.950 . S
C1349 C1345 1.393 . S
C1349 C1348 1.391 . S
H1350 C1358 0.950 . S
H1351 C1363 0.950 . S
H1352 C1360 0.950 . S
H1353 C1362 0.950 . S
H1354 C1364 0.950 . S
H1355 C1366 0.950 . S
H1356 C1368 0.950 . S
H1357 C1369 0.950 . S
C1358 H1350 0.950 . S
C1358 C1359 1.386 . S
C1358 C1360 1.391 . S
C1359 C1358 1.386 . S
C1359 C1363 1.393 . S
C1360 H1352 0.950 . S
C1360 C1358 1.391 . S
C1360 C1361 1.400 . S
C1361 C1360 1.400 . S
C1361 C1362 1.398 . S
C1361 C1367 1.491 . S
C1362 H1353 0.950 . S
C1362 C1361 1.398 . S
C1362 C1363 1.391 . S
C1363 H1351 0.950 . S
C1363 C1359 1.393 . S
C1363 C1362 1.391 . S
C1364 H1354 0.950 . S
C1364 C1365 1.386 . S
C1364 C1366 1.391 . S
C1365 C1364 1.386 . S
C1365 C1369 1.393 . S
C1366 H1355 0.950 . S
C1366 C1364 1.391 . S
C1366 C1367 1.400 . S
C1367 C1361 1.491 . S
C1367 C1366 1.400 . S
C1367 C1368 1.398 . S
C1368 H1356 0.950 . S
C1368 C1367 1.398 . S
C1368 C1369 1.391 . S
C1369 H1357 0.950 . S
C1369 C1365 1.393 . S
C1369 C1368 1.391 . S
H1370 C1378 0.950 . S
H1371 C1383 0.950 . S
H1372 C1380 0.950 . S
H1373 C1382 0.950 . S
H1374 C1384 0.950 . S
H1375 C1386 0.950 . S
H1376 C1388 0.950 . S
H1377 C1389 0.950 . S
C1378 H1370 0.950 . S
C1378 C1379 1.386 . S
C1378 C1380 1.391 . S
C1379 C1378 1.386 . S
C1379 C1383 1.393 . S
C1380 H1372 0.950 . S
C1380 C1378 1.391 . S
C1380 C1381 1.400 . S
C1381 C1380 1.400 . S
C1381 C1382 1.398 . S
C1381 C1387 1.491 . S
C1382 H1373 0.950 . S
C1382 C1381 1.398 . S
C1382 C1383 1.391 . S
C1383 H1371 0.950 . S
C1383 C1379 1.393 . S
C1383 C1382 1.391 . S
C1384 H1374 0.950 . S
C1384 C1385 1.386 . S
C1384 C1386 1.391 . S
C1385 C1384 1.386 . S
C1385 C1389 1.393 . S
C1386 H1375 0.950 . S
C1386 C1384 1.391 . S
C1386 C1387 1.400 . S
C1387 C1381 1.491 . S
C1387 C1386 1.400 . S
C1387 C1388 1.398 . S
C1388 H1376 0.950 . S
C1388 C1387 1.398 . S
C1388 C1389 1.391 . S
C1389 H1377 0.950 . S
C1389 C1385 1.393 . S
C1389 C1388 1.391 . S
H1390 C1398 0.950 . S
H1391 C1403 0.950 . S
H1392 C1400 0.950 . S
H1393 C1402 0.950 . S
H1394 C1404 0.950 . S
H1395 C1406 0.950 . S
H1396 C1408 0.950 . S
H1397 C1409 0.950 . S
C1398 H1390 0.950 . S
C1398 C1399 1.386 . S
C1398 C1400 1.391 . S
C1399 C1398 1.386 . S
C1399 C1403 1.393 . S
C1400 H1392 0.950 . S
C1400 C1398 1.391 . S
C1400 C1401 1.400 . S
C1401 C1400 1.400 . S
C1401 C1402 1.398 . S
C1401 C1407 1.491 . S
C1402 H1393 0.950 . S
C1402 C1401 1.398 . S
C1402 C1403 1.391 . S
C1403 H1391 0.950 . S
C1403 C1399 1.393 . S
C1403 C1402 1.391 . S
C1404 H1394 0.950 . S
C1404 C1405 1.386 . S
C1404 C1406 1.391 . S
C1405 C1404 1.386 . S
C1405 C1409 1.393 . S
C1406 H1395 0.950 . S
C1406 C1404 1.391 . S
C1406 C1407 1.400 . S
C1407 C1401 1.491 . S
C1407 C1406 1.400 . S
C1407 C1408 1.398 . S
C1408 H1396 0.950 . S
C1408 C1407 1.398 . S
C1408 C1409 1.391 . S
C1409 H1397 0.950 . S
C1409 C1405 1.393 . S
C1409 C1408 1.391 . S
H1410 C1418 0.950 . S
H1411 C1423 0.950 . S
H1412 C1420 0.950 . S
H1413 C1422 0.950 . S
H1414 C1424 0.950 . S
H1415 C1426 0.950 . S
H1416 C1428 0.950 . S
H1417 C1429 0.950 . S
C1418 H1410 0.950 . S
C1418 C1419 1.386 . S
C1418 C1420 1.391 . S
C1419 C1418 1.386 . S
C1419 C1423 1.393 . S
C1420 H1412 0.950 . S
C1420 C1418 1.391 . S
C1420 C1421 1.400 . S
C1421 C1420 1.400 . S
C1421 C1422 1.398 . S
C1421 C1427 1.491 . S
C1422 H1413 0.950 . S
C1422 C1421 1.398 . S
C1422 C1423 1.391 . S
C1423 H1411 0.950 . S
C1423 C1419 1.393 . S
C1423 C1422 1.391 . S
C1424 H1414 0.950 . S
C1424 C1425 1.386 . S
C1424 C1426 1.391 . S
C1425 C1424 1.386 . S
C1425 C1429 1.393 . S
C1426 H1415 0.950 . S
C1426 C1424 1.391 . S
C1426 C1427 1.400 . S
C1427 C1421 1.491 . S
C1427 C1426 1.400 . S
C1427 C1428 1.398 . S
C1428 H1416 0.950 . S
C1428 C1427 1.398 . S
C1428 C1429 1.391 . S
C1429 H1417 0.950 . S
C1429 C1425 1.393 . S
C1429 C1428 1.391 . S
H1430 C1438 0.950 . S
H1431 C1443 0.950 . S
H1432 C1440 0.950 . S
H1433 C1442 0.950 . S
H1434 C1444 0.950 . S
H1435 C1446 0.950 . S
H1436 C1448 0.950 . S
H1437 C1449 0.950 . S
C1438 H1430 0.950 . S
C1438 C1439 1.386 . S
C1438 C1440 1.391 . S
C1439 C1438 1.386 . S
C1439 C1443 1.393 . S
C1440 H1432 0.950 . S
C1440 C1438 1.391 . S
C1440 C1441 1.400 . S
C1441 C1440 1.400 . S
C1441 C1442 1.398 . S
C1441 C1447 1.491 . S
C1442 H1433 0.950 . S
C1442 C1441 1.398 . S
C1442 C1443 1.391 . S
C1443 H1431 0.950 . S
C1443 C1439 1.393 . S
C1443 C1442 1.391 . S
C1444 H1434 0.950 . S
C1444 C1445 1.386 . S
C1444 C1446 1.391 . S
C1445 C1444 1.386 . S
C1445 C1449 1.393 . S
C1446 H1435 0.950 . S
C1446 C1444 1.391 . S
C1446 C1447 1.400 . S
C1447 C1441 1.491 . S
C1447 C1446 1.400 . S
C1447 C1448 1.398 . S
C1448 H1436 0.950 . S
C1448 C1447 1.398 . S
C1448 C1449 1.391 . S
C1449 H1437 0.950 . S
C1449 C1445 1.393 . S
C1449 C1448 1.391 . S
H1450 C1458 0.950 . S
H1451 C1463 0.950 . S
H1452 C1460 0.950 . S
H1453 C1462 0.950 . S
H1454 C1464 0.950 . S
H1455 C1466 0.950 . S
H1456 C1468 0.950 . S
H1457 C1469 0.950 . S
C1458 H1450 0.950 . S
C1458 C1459 1.386 . S
C1458 C1460 1.391 . S
C1459 C1458 1.386 . S
C1459 C1463 1.393 . S
C1460 H1452 0.950 . S
C1460 C1458 1.391 . S
C1460 C1461 1.400 . S
C1461 C1460 1.400 . S
C1461 C1462 1.398 . S
C1461 C1467 1.491 . S
C1462 H1453 0.950 . S
C1462 C1461 1.398 . S
C1462 C1463 1.391 . S
C1463 H1451 0.950 . S
C1463 C1459 1.393 . S
C1463 C1462 1.391 . S
C1464 H1454 0.950 . S
C1464 C1465 1.386 . S
C1464 C1466 1.391 . S
C1465 C1464 1.386 . S
C1465 C1469 1.393 . S
C1466 H1455 0.950 . S
C1466 C1464 1.391 . S
C1466 C1467 1.400 . S
C1467 C1461 1.491 . S
C1467 C1466 1.400 . S
C1467 C1468 1.398 . S
C1468 H1456 0.950 . S
C1468 C1467 1.398 . S
C1468 C1469 1.391 . S
C1469 H1457 0.950 . S
C1469 C1465 1.393 . S
C1469 C1468 1.391 . S
H1470 C1478 0.950 . S
H1471 C1483 0.950 . S
H1472 C1480 0.950 . S
H1473 C1482 0.950 . S
H1474 C1484 0.950 . S
H1475 C1486 0.950 . S
H1476 C1488 0.950 . S
H1477 C1489 0.950 . S
C1478 H1470 0.950 . S
C1478 C1479 1.386 . S
C1478 C1480 1.391 . S
C1479 C1478 1.386 . S
C1479 C1483 1.393 . S
C1480 H1472 0.950 . S
C1480 C1478 1.391 . S
C1480 C1481 1.400 . S
C1481 C1480 1.400 . S
C1481 C1482 1.398 . S
C1481 C1487 1.491 . S
C1482 H1473 0.950 . S
C1482 C1481 1.398 . S
C1482 C1483 1.391 . S
C1483 H1471 0.950 . S
C1483 C1479 1.393 . S
C1483 C1482 1.391 . S
C1484 H1474 0.950 . S
C1484 C1485 1.386 . S
C1484 C1486 1.391 . S
C1485 C1484 1.386 . S
C1485 C1489 1.393 . S
C1486 H1475 0.950 . S
C1486 C1484 1.391 . S
C1486 C1487 1.400 . S
C1487 C1481 1.491 . S
C1487 C1486 1.400 . S
C1487 C1488 1.398 . S
C1488 H1476 0.950 . S
C1488 C1487 1.398 . S
C1488 C1489 1.391 . S
C1489 H1477 0.950 . S
C1489 C1485 1.393 . S
C1489 C1488 1.391 . S
H1490 C1498 0.950 . S
H1491 C1503 0.950 . S
H1492 C1500 0.950 . S
H1493 C1502 0.950 . S
H1494 C1504 0.950 . S
H1495 C1506 0.950 . S
H1496 C1508 0.950 . S
H1497 C1509 0.950 . S
C1498 H1490 0.950 . S
C1498 C1499 1.386 . S
C1498 C1500 1.391 . S
C1499 C1498 1.386 . S
C1499 C1503 1.393 . S
C1500 H1492 0.950 . S
C1500 C1498 1.391 . S
C1500 C1501 1.400 . S
C1501 C1500 1.400 . S
C1501 C1502 1.398 . S
C1501 C1507 1.491 . S
C1502 H1493 0.950 . S
C1502 C1501 1.398 . S
C1502 C1503 1.391 . S
C1503 H1491 0.950 . S
C1503 C1499 1.393 . S
C1503 C1502 1.391 . S
C1504 H1494 0.950 . S
C1504 C1505 1.386 . S
C1504 C1506 1.391 . S
C1505 C1504 1.386 . S
C1505 C1509 1.393 . S
C1506 H1495 0.950 . S
C1506 C1504 1.391 . S
C1506 C1507 1.400 . S
C1507 C1501 1.491 . S
C1507 C1506 1.400 . S
C1507 C1508 1.398 . S
C1508 H1496 0.950 . S
C1508 C1507 1.398 . S
C1508 C1509 1.391 . S
C1509 H1497 0.950 . S
C1509 C1505 1.393 . S
C1509 C1508 1.391 . S
H1510 C1518 0.950 . S
H1511 C1523 0.950 . S
H1512 C1520 0.950 . S
H1513 C1522 0.950 . S
H1514 C1524 0.950 . S
H1515 C1526 0.950 . S
H1516 C1528 0.950 . S
H1517 C1529 0.950 . S
C1518 H1510 0.950 . S
C1518 C1519 1.386 . S
C1518 C1520 1.391 . S
C1519 C1518 1.386 . S
C1519 C1523 1.393 . S
C1520 H1512 0.950 . S
C1520 C1518 1.391 . S
C1520 C1521 1.400 . S
C1521 C1520 1.400 . S
C1521 C1522 1.398 . S
C1521 C1527 1.491 . S
C1522 H1513 0.950 . S
C1522 C1521 1.398 . S
C1522 C1523 1.391 . S
C1523 H1511 0.950 . S
C1523 C1519 1.393 . S
C1523 C1522 1.391 . S
C1524 H1514 0.950 . S
C1524 C1525 1.386 . S
C1524 C1526 1.391 . S
C1525 C1524 1.386 . S
C1525 C1529 1.393 . S
C1526 H1515 0.950 . S
C1526 C1524 1.391 . S
C1526 C1527 1.400 . S
C1527 C1521 1.491 . S
C1527 C1526 1.400 . S
C1527 C1528 1.398 . S
C1528 H1516 0.950 . S
C1528 C1527 1.398 . S
C1528 C1529 1.391 . S
C1529 H1517 0.950 . S
C1529 C1525 1.393 . S
C1529 C1528 1.391 . S
H1530 C1538 0.950 . S
H1531 C1543 0.950 . S
H1532 C1540 0.950 . S
H1533 C1542 0.950 . S
H1534 C1544 0.950 . S
H1535 C1546 0.950 . S
H1536 C1548 0.950 . S
H1537 C1549 0.950 . S
C1538 H1530 0.950 . S
C1538 C1539 1.386 . S
C1538 C1540 1.391 . S
C1539 C1538 1.386 . S
C1539 C1543 1.393 . S
C1540 H1532 0.950 . S
C1540 C1538 1.391 . S
C1540 C1541 1.400 . S
C1541 C1540 1.400 . S
C1541 C1542 1.398 . S
C1541 C1547 1.491 . S
C1542 H1533 0.950 . S
C1542 C1541 1.398 . S
C1542 C1543 1.391 . S
C1543 H1531 0.950 . S
C1543 C1539 1.393 . S
C1543 C1542 1.391 . S
C1544 H1534 0.950 . S
C1544 C1545 1.386 . S
C1544 C1546 1.391 . S
C1545 C1544 1.386 . S
C1545 C1549 1.393 . S
C1546 H1535 0.950 . S
C1546 C1544 1.391 . S
C1546 C1547 1.400 . S
C1547 C1541 1.491 . S
C1547 C1546 1.400 . S
C1547 C1548 1.398 . S
C1548 H1536 0.950 . S
C1548 C1547 1.398 . S
C1548 C1549 1.391 . S
C1549 H1537 0.950 . S
C1549 C1545 1.393 . S
C1549 C1548 1.391 . S
H1550 C1558 0.950 . S
H1551 C1563 0.950 . S
H1552 C1560 0.950 . S
H1553 C1562 0.950 . S
H1554 C1564 0.950 . S
H1555 C1566 0.950 . S
H1556 C1568 0.950 . S
H1557 C1569 0.950 . S
C1558 H1550 0.950 . S
C1558 C1559 1.386 . S
C1558 C1560 1.391 . S
C1559 C1558 1.386 . S
C1559 C1563 1.393 . S
C1560 H1552 0.950 . S
C1560 C1558 1.391 . S
C1560 C1561 1.400 . S
C1561 C1560 1.400 . S
C1561 C1562 1.398 . S
C1561 C1567 1.491 . S
C1562 H1553 0.950 . S
C1562 C1561 1.398 . S
C1562 C1563 1.391 . S
C1563 H1551 0.950 . S
C1563 C1559 1.393 . S
C1563 C1562 1.391 . S
C1564 H1554 0.950 . S
C1564 C1565 1.386 . S
C1564 C1566 1.391 . S
C1565 C1564 1.386 . S
C1565 C1569 1.393 . S
C1566 H1555 0.950 . S
C1566 C1564 1.391 . S
C1566 C1567 1.400 . S
C1567 C1561 1.491 . S
C1567 C1566 1.400 . S
C1567 C1568 1.398 . S
C1568 H1556 0.950 . S
C1568 C1567 1.398 . S
C1568 C1569 1.391 . S
C1569 H1557 0.950 . S
C1569 C1565 1.393 . S
C1569 C1568 1.391 . S
H1570 C1578 0.950 . S
H1571 C1583 0.950 . S
H1572 C1580 0.950 . S
H1573 C1582 0.950 . S
H1574 C1584 0.950 . S
H1575 C1586 0.950 . S
H1576 C1588 0.950 . S
H1577 C1589 0.950 . S
C1578 H1570 0.950 . S
C1578 C1579 1.386 . S
C1578 C1580 1.391 . S
C1579 C1578 1.386 . S
C1579 C1583 1.393 . S
C1580 H1572 0.950 . S
C1580 C1578 1.391 . S
C1580 C1581 1.400 . S
C1581 C1580 1.400 . S
C1581 C1582 1.398 . S
C1581 C1587 1.491 . S
C1582 H1573 0.950 . S
C1582 C1581 1.398 . S
C1582 C1583 1.391 . S
C1583 H1571 0.950 . S
C1583 C1579 1.393 . S
C1583 C1582 1.391 . S
C1584 H1574 0.950 . S
C1584 C1585 1.386 . S
C1584 C1586 1.391 . S
C1585 C1584 1.386 . S
C1585 C1589 1.393 . S
C1586 H1575 0.950 . S
C1586 C1584 1.391 . S
C1586 C1587 1.400 . S
C1587 C1581 1.491 . S
C1587 C1586 1.400 . S
C1587 C1588 1.398 . S
C1588 H1576 0.950 . S
C1588 C1587 1.398 . S
C1588 C1589 1.391 . S
C1589 H1577 0.950 . S
C1589 C1585 1.393 . S
C1589 C1588 1.391 . S
H1590 C1598 0.950 . S
H1591 C1603 0.950 . S
H1592 C1600 0.950 . S
H1593 C1602 0.950 . S
H1594 C1604 0.950 . S
H1595 C1606 0.950 . S
H1596 C1608 0.950 . S
H1597 C1609 0.950 . S
C1598 H1590 0.950 . S
C1598 C1599 1.386 . S
C1598 C1600 1.391 . S
C1599 C1598 1.386 . S
C1599 C1603 1.393 . S
C1600 H1592 0.950 . S
C1600 C1598 1.391 . S
C1600 C1601 1.400 . S
C1601 C1600 1.400 . S
C1601 C1602 1.398 . S
C1601 C1607 1.491 . S
C1602 H1593 0.950 . S
C1602 C1601 1.398 . S
C1602 C1603 1.391 . S
C1603 H1591 0.950 . S
C1603 C1599 1.393 . S
C1603 C1602 1.391 . S
C1604 H1594 0.950 . S
C1604 C1605 1.386 . S
C1604 C1606 1.391 . S
C1605 C1604 1.386 . S
C1605 C1609 1.393 . S
C1606 H1595 0.950 . S
C1606 C1604 1.391 . S
C1606 C1607 1.400 . S
C1607 C1601 1.491 . S
C1607 C1606 1.400 . S
C1607 C1608 1.398 . S
C1608 H1596 0.950 . S
C1608 C1607 1.398 . S
C1608 C1609 1.391 . S
C1609 H1597 0.950 . S
C1609 C1605 1.393 . S
C1609 C1608 1.391 . S
H1610 C1618 0.950 . S
H1611 C1623 0.950 . S
H1612 C1620 0.950 . S
H1613 C1622 0.950 . S
H1614 C1624 0.950 . S
H1615 C1626 0.950 . S
H1616 C1628 0.950 . S
H1617 C1629 0.950 . S
C1618 H1610 0.950 . S
C1618 C1619 1.386 . S
C1618 C1620 1.391 . S
C1619 C1618 1.386 . S
C1619 C1623 1.393 . S
C1620 H1612 0.950 . S
C1620 C1618 1.391 . S
C1620 C1621 1.400 . S
C1621 C1620 1.400 . S
C1621 C1622 1.398 . S
C1621 C1627 1.491 . S
C1622 H1613 0.950 . S
C1622 C1621 1.398 . S
C1622 C1623 1.391 . S
C1623 H1611 0.950 . S
C1623 C1619 1.393 . S
C1623 C1622 1.391 . S
C1624 H1614 0.950 . S
C1624 C1625 1.386 . S
C1624 C1626 1.391 . S
C1625 C1624 1.386 . S
C1625 C1629 1.393 . S
C1626 H1615 0.950 . S
C1626 C1624 1.391 . S
C1626 C1627 1.400 . S
C1627 C1621 1.491 . S
C1627 C1626 1.400 . S
C1627 C1628 1.398 . S
C1628 H1616 0.950 . S
C1628 C1627 1.398 . S
C1628 C1629 1.391 . S
C1629 H1617 0.950 . S
C1629 C1625 1.393 . S
C1629 C1628 1.391 . S
H1630 C1638 0.950 . S
H1631 C1643 0.950 . S
H1632 C1640 0.950 . S
H1633 C1642 0.950 . S
H1634 C1644 0.950 . S
H1635 C1646 0.950 . S
H1636 C1648 0.950 . S
H1637 C1649 0.950 . S
C1638 H1630 0.950 . S
C1638 C1639 1.386 . S
C1638 C1640 1.391 . S
C1639 C1638 1.386 . S
C1639 C1643 1.393 . S
C1640 H1632 0.950 . S
C1640 C1638 1.391 . S
C1640 C1641 1.400 . S
C1641 C1640 1.400 . S
C1641 C1642 1.398 . S
C1641 C1647 1.491 . S
C1642 H1633 0.950 . S
C1642 C1641 1.398 . S
C1642 C1643 1.391 . S
C1643 H1631 0.950 . S
C1643 C1639 1.393 . S
C1643 C1642 1.391 . S
C1644 H1634 0.950 . S
C1644 C1645 1.386 . S
C1644 C1646 1.391 . S
C1645 C1644 1.386 . S
C1645 C1649 1.393 . S
C1646 H1635 0.950 . S
C1646 C1644 1.391 . S
C1646 C1647 1.400 . S
C1647 C1641 1.491 . S
C1647 C1646 1.400 . S
C1647 C1648 1.398 . S
C1648 H1636 0.950 . S
C1648 C1647 1.398 . S
C1648 C1649 1.391 . S
C1649 H1637 0.950 . S
C1649 C1645 1.393 . S
C1649 C1648 1.391 . S
H1650 C1658 0.950 . S
H1651 C1663 0.950 . S
H1652 C1660 0.950 . S
H1653 C1662 0.950 . S
H1654 C1664 0.950 . S
H1655 C1666 0.950 . S
H1656 C1668 0.950 . S
H1657 C1669 0.950 . S
C1658 H1650 0.950 . S
C1658 C1659 1.386 . S
C1658 C1660 1.391 . S
C1659 C1658 1.386 . S
C1659 C1663 1.393 . S
C1660 H1652 0.950 . S
C1660 C1658 1.391 . S
C1660 C1661 1.400 . S
C1661 C1660 1.400 . S
C1661 C1662 1.398 . S
C1661 C1667 1.491 . S
C1662 H1653 0.950 . S
C1662 C1661 1.398 . S
C1662 C1663 1.391 . S
C1663 H1651 0.950 . S
C1663 C1659 1.393 . S
C1663 C1662 1.391 . S
C1664 H1654 0.950 . S
C1664 C1665 1.386 . S
C1664 C1666 1.391 . S
C1665 C1664 1.386 . S
C1665 C1669 1.393 . S
C1666 H1655 0.950 . S
C1666 C1664 1.391 . S
C1666 C1667 1.400 . S
C1667 C1661 1.491 . S
C1667 C1666 1.400 . S
C1667 C1668 1.398 . S
C1668 H1656 0.950 . S
C1668 C1667 1.398 . S
C1668 C1669 1.391 . S
C1669 H1657 0.950 . S
C1669 C1665 1.393 . S
C1669 C1668 1.391 . S
H1670 C1678 0.950 . S
H1671 C1683 0.950 . S
H1672 C1680 0.950 . S
H1673 C1682 0.950 . S
H1674 C1684 0.950 . S
H1675 C1686 0.950 . S
H1676 C1688 0.950 . S
H1677 C1689 0.950 . S
C1678 H1670 0.950 . S
C1678 C1679 1.386 . S
C1678 C1680 1.391 . S
C1679 C1678 1.386 . S
C1679 C1683 1.393 . S
C1680 H1672 0.950 . S
C1680 C1678 1.391 . S
C1680 C1681 1.400 . S
C1681 C1680 1.400 . S
C1681 C1682 1.398 . S
C1681 C1687 1.491 . S
C1682 H1673 0.950 . S
C1682 C1681 1.398 . S
C1682 C1683 1.391 . S
C1683 H1671 0.950 . S
C1683 C1679 1.393 . S
C1683 C1682 1.391 . S
C1684 H1674 0.950 . S
C1684 C1685 1.386 . S
C1684 C1686 1.391 . S
C1685 C1684 1.386 . S
C1685 C1689 1.393 . S
C1686 H1675 0.950 . S
C1686 C1684 1.391 . S
C1686 C1687 1.400 . S
C1687 C1681 1.491 . S
C1687 C1686 1.400 . S
C1687 C1688 1.398 . S
C1688 H1676 0.950 . S
C1688 C1687 1.398 . S
C1688 C1689 1.391 . S
C1689 H1677 0.950 . S
C1689 C1685 1.393 . S
C1689 C1688 1.391 . S
H1690 C1698 0.950 . S
H1691 C1703 0.950 . S
H1692 C1700 0.950 . S
H1693 C1702 0.950 . S
H1694 C1704 0.950 . S
H1695 C1706 0.950 . S
H1696 C1708 0.950 . S
H1697 C1709 0.950 . S
C1698 H1690 0.950 . S
C1698 C1699 1.386 . S
C1698 C1700 1.391 . S
C1699 C1698 1.386 . S
C1699 C1703 1.393 . S
C1700 H1692 0.950 . S
C1700 C1698 1.391 . S
C1700 C1701 1.400 . S
C1701 C1700 1.400 . S
C1701 C1702 1.398 . S
C1701 C1707 1.491 . S
C1702 H1693 0.950 . S
C1702 C1701 1.398 . S
C1702 C1703 1.391 . S
C1703 H1691 0.950 . S
C1703 C1699 1.393 . S
C1703 C1702 1.391 . S
C1704 H1694 0.950 . S
C1704 C1705 1.386 . S
C1704 C1706 1.391 . S
C1705 C1704 1.386 . S
C1705 C1709 1.393 . S
C1706 H1695 0.950 . S
C1706 C1704 1.391 . S
C1706 C1707 1.400 . S
C1707 C1701 1.491 . S
C1707 C1706 1.400 . S
C1707 C1708 1.398 . S
C1708 H1696 0.950 . S
C1708 C1707 1.398 . S
C1708 C1709 1.391 . S
C1709 H1697 0.950 . S
C1709 C1705 1.393 . S
C1709 C1708 1.391 . S
H1710 C1718 0.950 . S
H1711 C1723 0.950 . S
H1712 C1720 0.950 . S
H1713 C1722 0.950 . S
H1714 C1724 0.950 . S
H1715 C1726 0.950 . S
H1716 C1728 0.950 . S
H1717 C1729 0.950 . S
C1718 H1710 0.950 . S
C1718 C1719 1.386 . S
C1718 C1720 1.391 . S
C1719 C1718 1.386 . S
C1719 C1723 1.393 . S
C1720 H1712 0.950 . S
C1720 C1718 1.391 . S
C1720 C1721 1.400 . S
C1721 C1720 1.400 . S
C1721 C1722 1.398 . S
C1721 C1727 1.491 . S
C1722 H1713 0.950 . S
C1722 C1721 1.398 . S
C1722 C1723 1.391 . S
C1723 H1711 0.950 . S
C1723 C1719 1.393 . S
C1723 C1722 1.391 . S
C1724 H1714 0.950 . S
C1724 C1725 1.386 . S
C1724 C1726 1.391 . S
C1725 C1724 1.386 . S
C1725 C1729 1.393 . S
C1726 H1715 0.950 . S
C1726 C1724 1.391 . S
C1726 C1727 1.400 . S
C1727 C1721 1.491 . S
C1727 C1726 1.400 . S
C1727 C1728 1.398 . S
C1728 H1716 0.950 . S
C1728 C1727 1.398 . S
C1728 C1729 1.391 . S
C1729 H1717 0.950 . S
C1729 C1725 1.393 . S
C1729 C1728 1.391 . S
H1730 C1738 0.950 . S
H1731 C1743 0.950 . S
H1732 C1740 0.950 . S
H1733 C1742 0.950 . S
H1734 C1744 0.950 . S
H1735 C1746 0.950 . S
H1736 C1748 0.950 . S
H1737 C1749 0.950 . S
C1738 H1730 0.950 . S
C1738 C1739 1.386 . S
C1738 C1740 1.391 . S
C1739 C1738 1.386 . S
C1739 C1743 1.393 . S
C1740 H1732 0.950 . S
C1740 C1738 1.391 . S
C1740 C1741 1.400 . S
C1741 C1740 1.400 . S
C1741 C1742 1.398 . S
C1741 C1747 1.491 . S
C1742 H1733 0.950 . S
C1742 C1741 1.398 . S
C1742 C1743 1.391 . S
C1743 H1731 0.950 . S
C1743 C1739 1.393 . S
C1743 C1742 1.391 . S
C1744 H1734 0.950 . S
C1744 C1745 1.386 . S
C1744 C1746 1.391 . S
C1745 C1744 1.386 . S
C1745 C1749 1.393 . S
C1746 H1735 0.950 . S
C1746 C1744 1.391 . S
C1746 C1747 1.400 . S
C1747 C1741 1.491 . S
C1747 C1746 1.400 . S
C1747 C1748 1.398 . S
C1748 H1736 0.950 . S
C1748 C1747 1.398 . S
C1748 C1749 1.391 . S
C1749 H1737 0.950 . S
C1749 C1745 1.393 . S
C1749 C1748 1.391 . S
H1750 C1758 0.950 . S
H1751 C1763 0.950 . S
H1752 C1760 0.950 . S
H1753 C1762 0.950 . S
H1754 C1764 0.950 . S
H1755 C1766 0.950 . S
H1756 C1768 0.950 . S
H1757 C1769 0.950 . S
C1758 H1750 0.950 . S
C1758 C1759 1.386 . S
C1758 C1760 1.391 . S
C1759 C1758 1.386 . S
C1759 C1763 1.393 . S
C1760 H1752 0.950 . S
C1760 C1758 1.391 . S
C1760 C1761 1.400 . S
C1761 C1760 1.400 . S
C1761 C1762 1.398 . S
C1761 C1767 1.491 . S
C1762 H1753 0.950 . S
C1762 C1761 1.398 . S
C1762 C1763 1.391 . S
C1763 H1751 0.950 . S
C1763 C1759 1.393 . S
C1763 C1762 1.391 . S
C1764 H1754 0.950 . S
C1764 C1765 1.386 . S
C1764 C1766 1.391 . S
C1765 C1764 1.386 . S
C1765 C1769 1.393 . S
C1766 H1755 0.950 . S
C1766 C1764 1.391 . S
C1766 C1767 1.400 . S
C1767 C1761 1.491 . S
C1767 C1766 1.400 . S
C1767 C1768 1.398 . S
C1768 H1756 0.950 . S
C1768 C1767 1.398 . S
C1768 C1769 1.391 . S
C1769 H1757 0.950 . S
C1769 C1765 1.393 . S
C1769 C1768 1.391 . S
H1770 C1778 0.950 . S
H1771 C1783 0.950 . S
H1772 C1780 0.950 . S
H1773 C1782 0.950 . S
H1774 C1784 0.950 . S
H1775 C1786 0.950 . S
H1776 C1788 0.950 . S
H1777 C1789 0.950 . S
C1778 H1770 0.950 . S
C1778 C1779 1.386 . S
C1778 C1780 1.391 . S
C1779 C1778 1.386 . S
C1779 C1783 1.393 . S
C1780 H1772 0.950 . S
C1780 C1778 1.391 . S
C1780 C1781 1.400 . S
C1781 C1780 1.400 . S
C1781 C1782 1.398 . S
C1781 C1787 1.491 . S
C1782 H1773 0.950 . S
C1782 C1781 1.398 . S
C1782 C1783 1.391 . S
C1783 H1771 0.950 . S
C1783 C1779 1.393 . S
C1783 C1782 1.391 . S
C1784 H1774 0.950 . S
C1784 C1785 1.386 . S
C1784 C1786 1.391 . S
C1785 C1784 1.386 . S
C1785 C1789 1.393 . S
C1786 H1775 0.950 . S
C1786 C1784 1.391 . S
C1786 C1787 1.400 . S
C1787 C1781 1.491 . S
C1787 C1786 1.400 . S
C1787 C1788 1.398 . S
C1788 H1776 0.950 . S
C1788 C1787 1.398 . S
C1788 C1789 1.391 . S
C1789 H1777 0.950 . S
C1789 C1785 1.393 . S
C1789 C1788 1.391 . S
H1790 C1798 0.950 . S
H1791 C1803 0.950 . S
H1792 C1800 0.950 . S
H1793 C1802 0.950 . S
H1794 C1804 0.950 . S
H1795 C1806 0.950 . S
H1796 C1808 0.950 . S
H1797 C1809 0.950 . S
C1798 H1790 0.950 . S
C1798 C1799 1.386 . S
C1798 C1800 1.391 . S
C1799 C1798 1.386 . S
C1799 C1803 1.393 . S
C1800 H1792 0.950 . S
C1800 C1798 1.391 . S
C1800 C1801 1.400 . S
C1801 C1800 1.400 . S
C1801 C1802 1.398 . S
C1801 C1807 1.491 . S
C1802 H1793 0.950 . S
C1802 C1801 1.398 . S
C1802 C1803 1.391 . S
C1803 H1791 0.950 . S
C1803 C1799 1.393 . S
C1803 C1802 1.391 . S
C1804 H1794 0.950 . S
C1804 C1805 1.386 . S
C1804 C1806 1.391 . S
C1805 C1804 1.386 . S
C1805 C1809 1.393 . S
C1806 H1795 0.950 . S
C1806 C1804 1.391 . S
C1806 C1807 1.400 . S
C1807 C1801 1.491 . S
C1807 C1806 1.400 . S
C1807 C1808 1.398 . S
C1808 H1796 0.950 . S
C1808 C1807 1.398 . S
C1808 C1809 1.391 . S
C1809 H1797 0.950 . S
C1809 C1805 1.393 . S
C1809 C1808 1.391 . S
H1810 C1818 0.950 . S
H1811 C1823 0.950 . S
H1812 C1820 0.950 . S
H1813 C1822 0.950 . S
H1814 C1824 0.950 . S
H1815 C1826 0.950 . S
H1816 C1828 0.950 . S
H1817 C1829 0.950 . S
C1818 H1810 0.950 . S
C1818 C1819 1.386 . S
C1818 C1820 1.391 . S
C1819 C1818 1.386 . S
C1819 C1823 1.393 . S
C1820 H1812 0.950 . S
C1820 C1818 1.391 . S
C1820 C1821 1.400 . S
C1821 C1820 1.400 . S
C1821 C1822 1.398 . S
C1821 C1827 1.491 . S
C1822 H1813 0.950 . S
C1822 C1821 1.398 . S
C1822 C1823 1.391 . S
C1823 H1811 0.950 . S
C1823 C1819 1.393 . S
C1823 C1822 1.391 . S
C1824 H1814 0.950 . S
C1824 C1825 1.386 . S
C1824 C1826 1.391 . S
C1825 C1824 1.386 . S
C1825 C1829 1.393 . S
C1826 H1815 0.950 . S
C1826 C1824 1.391 . S
C1826 C1827 1.400 . S
C1827 C1821 1.491 . S
C1827 C1826 1.400 . S
C1827 C1828 1.398 . S
C1828 H1816 0.950 . S
C1828 C1827 1.398 . S
C1828 C1829 1.391 . S
C1829 H1817 0.950 . S
C1829 C1825 1.393 . S
C1829 C1828 1.391 . S
C885 C699 1.376 . S
C879 C74 1.464 . S
C905 C700 1.595 . S
C899 C153 1.531 . S
C925 C694 1.574 . S
C919 C231 1.586 . S
C939 C310 0.941 . S
C945 C693 0.298 . S
C959 C394 1.542 . S
C965 C696 1.609 . S
C985 C698 1.586 . S
C979 C494 1.599 . S
C999 C573 0.909 . S
C1005 C697 0.278 . S
C1019 C651 1.462 . S
C1025 C695 1.375 . S
C1045 C730 2.618 . S
C1039 C56 2.613 . S
C1059 C151 1.622 . S
C1065 C761 1.483 . S
C1085 C729 1.358 . S
C1079 C237 1.279 . S
C1105 C764 1.357 . S
C1099 C326 1.336 . S
C1119 C410 1.636 . S
C1125 C727 1.629 . S
C1145 C759 2.627 . S
C1139 C476 2.628 . S
C1159 C571 1.352 . S
C1165 C732 1.249 . S
C1179 C657 1.231 . S
C1185 C766 1.348 . S
C1199 C58 1.268 . S
C1205 C762 1.320 . S
C1219 C392 1.619 . S
C1225 C765 1.517 . S
C1245 C733 1.384 . S
C1239 C478 1.270 . S
C1265 C760 1.361 . S
C1259 C567 1.324 . S
C1279 C655 2.618 . S
C1285 C726 2.617 . S
C1299 C235 2.628 . S
C1305 C763 2.627 . S
C1325 C728 1.233 . S
C1319 C308 1.343 . S
C1339 C147 1.630 . S
C1345 C731 1.622 . S
C1359 C662 1.509 . S
C1365 C798 1.398 . S
C1379 C405 1.237 . S
C1385 C799 1.238 . S
C1405 C793 1.392 . S
C1399 C483 1.403 . S
C1425 C792 0.313 . S
C1419 C562 0.687 . S
C1439 C142 1.258 . S
C1445 C795 1.238 . S
C1465 C797 1.392 . S
C1459 C242 1.405 . S
C1479 C321 0.727 . S
C1485 C796 0.272 . S
C1499 C63 1.518 . S
C1505 C794 1.390 . S
C1519 C644 2.824 . S
C1525 C832 2.730 . S
C1545 C864 1.306 . S
C1539 C403 1.397 . S
C1559 C489 1.129 . S
C1565 C825 1.313 . S
C1579 C578 1.632 . S
C1585 C859 1.614 . S
C1605 C830 1.334 . S
C1599 C158 1.348 . S
C1619 C224 2.846 . S
C1625 C861 2.759 . S
C1645 C827 1.660 . S
C1639 C319 1.722 . S
C1665 C862 1.320 . S
C1659 C69 1.207 . S
C1685 C858 1.321 . S
C1679 C646 1.220 . S
C1699 C140 1.397 . S
C1705 C860 1.307 . S
C1719 C226 1.171 . S
C1725 C829 1.308 . S
C1745 C863 1.611 . S
C1739 C315 1.625 . S
C1759 C67 2.820 . S
C1765 C828 2.744 . S
C1779 C487 2.846 . S
C1785 C865 2.758 . S
C1805 C831 1.634 . S
C1799 C560 1.726 . S
C1825 C826 1.352 . S
C1819 C399 1.334 . S
