# Generated by pormake.
# Topology bcu-b, (8,8)-cn, num edge types: 1
# Building blocks:
#     Node 0, Type 0, BuildingBlock: TAGTUT_clean_sbu_1, # of connection points: 8
#     Node 1, Type 1, BuildingBlock: TAGTUT_clean_sbu_1, # of connection points: 8
#     Edge 2, Type (0, 1), BuildingBlock: TEMPAE_clean_linker_10, # of connection points: 2
#     Edge 3, Type (0, 1), BuildingBlock: TEMPAE_clean_linker_10, # of connection points: 2
#     Edge 4, Type (0, 1), BuildingBlock: TEMPAE_clean_linker_10, # of connection points: 2
#     Edge 5, Type (0, 1), BuildingBlock: TEMPAE_clean_linker_10, # of connection points: 2
#     Edge 6, Type (0, 1), BuildingBlock: TEMPAE_clean_linker_10, # of connection points: 2
#     Edge 7, Type (0, 1), BuildingBlock: TEMPAE_clean_linker_10, # of connection points: 2
#     Edge 8, Type (0, 1), BuildingBlock: TEMPAE_clean_linker_10, # of connection points: 2
#     Edge 9, Type (0, 1), BuildingBlock: TEMPAE_clean_linker_10, # of connection points: 2
# Relax obj value: 0.017
# Max RMSD: 0.077
# Mean RMSD: 0.077
data_MOF--net-bcu-b--node1-TAGTUT_clean_sbu_1--node2-TAGTUT_clean_sbu_1--edge1-TEMPAE_clean_linker_10
_symmetry_space_group_name_H-M    P1
_symmetry_Int_Tables_number       1
_symmetry_cell_setting            triclinic
loop_
_symmetry_equiv_pos_as_xyz
'x, y, z'
_cell_length_a     19.80185
_cell_length_b     18.53395
_cell_length_c     21.786549
_cell_angle_alpha  89.767679
_cell_angle_beta   94.022414
_cell_angle_gamma 108.10673
loop_
_atom_site_label
_atom_site_type_symbol
_atom_site_fract_x
_atom_site_fract_y
_atom_site_fract_z
_atom_type_partial_charge
C0 C 0.80028 0.07985 0.04731 0.0
C1 C 0.83672 0.06592 0.85808 0.0
C2 C 0.93257 0.82577 0.93317 0.0
Mg3 Mg 0.93469 0.1311 0.97193 0.0
O4 O 0.93665 0.03625 -0.00068 0.0
Mg5 Mg 0.85156 0.94703 0.97508 0.0
Mg6 Mg 1.01639 0.99986 -0.02226 0.0
O7 O 0.09601 0.96335 0.95615 0.0
Mg8 Mg 0.09786 0.86837 -0.01661 0.0
Mg9 Mg 0.18114 0.05244 -0.0197 0.0
C10 C 0.10006 0.17387 0.02228 0.0
C11 C 0.09447 0.1025 0.86537 0.0
O12 O 0.78904 0.0102 0.03063 0.0
O13 O 0.85271 0.13447 0.02997 0.0
O14 O 0.81951 0.00319 0.88682 0.0
O15 O 0.88853 0.12287 0.8784 0.0
O16 O 0.04526 0.19256 0.00184 0.0
O17 O 0.0996 0.1041 0.02416 0.0
C18 C 0.93825 0.89713 0.09009 0.0
O19 O 0.9989 0.93264 0.06981 0.0
O20 O 0.87953 0.89544 0.06145 0.0
O21 O 0.24347 0.98916 0.9246 0.0
O22 O 0.17971 0.86492 0.92524 0.0
O23 O 0.21319 0.99619 0.06848 0.0
C24 C 0.23214 0.91951 0.90787 0.0
O25 O 0.14415 0.8765 0.07687 0.0
O26 O 0.98726 0.80685 0.95355 0.0
C27 C 0.19597 0.93343 0.09719 0.0
O28 O 0.93333 0.89563 0.93143 0.0
O29 O 0.03382 0.06704 0.88568 0.0
O30 O 0.15318 0.10414 0.89398 0.0
C31 C 0.42862 0.71908 0.55814 0.0
C32 C 0.49023 0.7089 0.37437 0.0
C33 C 0.37769 0.40737 0.39065 0.0
Mg34 Mg 0.55485 0.68343 0.5012 0.0
O35 O 0.48839 0.58616 0.50814 0.0
Mg36 Mg 0.39394 0.56706 0.46123 0.0
Mg37 Mg 0.51634 0.49968 0.47767 0.0
O38 O 0.54416 0.41315 0.44717 0.0
Mg39 Mg 0.47759 0.31589 0.45402 0.0
Mg40 Mg 0.63858 0.43215 0.494 0.0
C41 C 0.65482 0.59202 0.5647 0.0
C42 C 0.6578 0.57247 0.40079 0.0
O43 O 0.38325 0.66413 0.52641 0.0
O44 O 0.4961 0.73496 0.55526 0.0
O45 O 0.43622 0.65519 0.38894 0.0
O46 O 0.5478 0.72928 0.40925 0.0
O47 O 0.64545 0.6553 0.54799 0.0
O48 O 0.61061 0.52714 0.54813 0.0
C49 C 0.37484 0.42685 0.55453 0.0
O50 O 0.43691 0.42345 0.54416 0.0
O51 O 0.35051 0.47724 0.53005 0.0
O52 O 0.64915 0.33511 0.42873 0.0
O53 O 0.53627 0.26436 0.39987 0.0
O54 O 0.59629 0.34395 0.56624 0.0
C55 C 0.60374 0.28021 0.39698 0.0
O56 O 0.48471 0.26987 0.54592 0.0
O57 O 0.38691 0.34399 0.40725 0.0
C58 C 0.54229 0.29022 0.58079 0.0
O59 O 0.42211 0.4721 0.40729 0.0
O60 O 0.59575 0.57591 0.41117 0.0
O61 O 0.68208 0.52203 0.42524 0.0
C62 C 0.1458 0.30218 0.07189 0.0
C63 C 0.15697 0.23284 0.05799 0.0
C64 C 0.18427 0.34814 0.12133 0.0
C65 C 0.23698 0.32565 0.15594 0.0
C66 C 0.25568 0.26192 0.13647 0.0
C67 C 0.21469 0.21545 0.08803 0.0
C68 C 0.16261 0.41552 0.14059 0.0
C69 C 0.31461 0.23881 0.17039 0.0
C70 C 0.35737 0.44585 0.28437 0.0
C71 C 0.32974 0.40372 0.3356 0.0
C72 C 0.32572 0.4239 0.22503 0.0
C73 C 0.26388 0.36008 0.21762 0.0
C74 C 0.231 0.32357 0.27005 0.0
C75 C 0.26522 0.34498 0.32857 0.0
C76 C 0.36316 0.46402 0.17066 0.0
C77 C 0.16282 0.25773 0.26412 0.0
H78 H 0.10234 0.31736 0.04812 0.0
H79 H 0.22481 0.16302 0.07671 0.0
H80 H 0.13088 0.43365 0.10302 0.0
H81 H 0.12962 0.39983 0.18063 0.0
H82 H 0.20978 0.46445 0.15508 0.0
H83 H 0.33069 0.19685 0.14342 0.0
H84 H 0.36197 0.28917 0.18107 0.0
H85 H 0.29624 0.21283 0.21467 0.0
H86 H 0.40793 0.49086 0.28976 0.0
H87 H 0.24411 0.31261 0.36835 0.0
H88 H 0.3251 0.46565 0.13126 0.0
H89 H 0.39874 0.43286 0.15515 0.0
H90 H 0.39642 0.52307 0.1832 0.0
H91 H 0.12317 0.27092 0.23112 0.0
H92 H 0.13901 0.24335 0.30902 0.0
H93 H 0.17385 0.20693 0.24608 0.0
C94 C 0.75321 0.17188 0.09878 0.0
C95 C 0.75751 0.09803 0.09437 0.0
C96 C 0.72458 0.19513 0.14928 0.0
C97 C 0.70055 0.14357 0.19707 0.0
C98 C 0.70169 0.0678 0.19166 0.0
C99 C 0.72986 0.04572 0.14004 0.0
C100 C 0.72195 0.27563 0.15227 0.0
C101 C 0.67518 0.01094 0.24125 0.0
C102 C 0.69996 0.2411 0.35004 0.0
C103 C 0.62835 0.23789 0.35031 0.0
C104 C 0.72353 0.20668 0.302 0.0
C105 C 0.67461 0.16981 0.2526 0.0
C106 C 0.60194 0.16432 0.25375 0.0
C107 C 0.57967 0.19771 0.30274 0.0
C108 C 0.80128 0.2123 0.30284 0.0
C109 C 0.54823 0.12819 0.20126 0.0
H110 H 0.7741 0.21232 0.06335 0.0
H111 H 0.73362 0.98873 0.1371 0.0
H112 H 0.66693 0.27554 0.15914 0.0
H113 H 0.75671 0.30642 0.19217 0.0
H114 H 0.73955 0.30742 0.10989 0.0
H115 H 0.67907 0.95404 0.22985 0.0
H116 H 0.70664 0.03141 0.28546 0.0
H117 H 0.61879 0.00511 0.24838 0.0
H118 H 0.73777 0.27152 0.38674 0.0
H119 H 0.52417 0.19517 0.30198 0.0
H120 H 0.8263 0.2494 0.26521 0.0
H121 H 0.80692 0.15546 0.29461 0.0
H122 H 0.83091 0.23596 0.34719 0.0
H123 H 0.55151 0.17021 0.16426 0.0
H124 H 0.49292 0.11006 0.21594 0.0
H125 H 0.55927 0.07852 0.18133 0.0
C126 C 0.92038 0.89353 0.20065 0.0
C127 C 0.93138 0.85642 0.14819 0.0
C128 C 0.88142 0.85234 0.24789 0.0
C129 C 0.8522 0.77237 0.24177 0.0
C130 C 0.86822 0.73442 0.19109 0.0
C131 C 0.90774 0.77705 0.14491 0.0
C132 C 0.8667 0.89504 0.30157 0.0
C133 C 0.83847 0.64924 0.18287 0.0
C134 C 0.78008 0.64539 0.37423 0.0
C135 C 0.7061 0.62966 0.36283 0.0
C136 C 0.82825 0.69456 0.337 0.0
C137 C 0.80204 0.7282 0.28631 0.0
C138 C 0.72751 0.71519 0.27589 0.0
C139 C 0.68028 0.66645 0.31474 0.0
C140 C 0.90718 0.70872 0.35091 0.0
C141 C 0.69753 0.75044 0.22234 0.0
H142 H 0.93657 0.95508 0.20212 0.0
H143 H 0.91429 0.74866 0.10332 0.0
H144 H 0.81124 0.89711 0.29543 0.0
H145 H 0.8719 0.86592 0.34542 0.0
H146 H 0.90327 0.95426 0.30534 0.0
H147 H 0.8598 0.62813 0.14322 0.0
H148 H 0.85101 0.62071 0.22502 0.0
H149 H 0.77958 0.63244 0.17523 0.0
H150 H 0.80061 0.61854 0.41229 0.0
H151 H 0.62329 0.65494 0.30607 0.0
H152 H 0.93579 0.77061 0.35274 0.0
H153 H 0.92863 0.6837 0.31359 0.0
H154 H 0.91914 0.68379 0.39523 0.0
H155 H 0.72265 0.81294 0.22362 0.0
H156 H 0.63886 0.73768 0.22225 0.0
H157 H 0.71005 0.72882 0.1785 0.0
C158 C 0.22826 0.8735 0.19402 0.0
C159 C 0.24912 0.91965 0.14332 0.0
C160 C 0.27827 0.84954 0.23104 0.0
C161 C 0.35003 0.86899 0.21509 0.0
C162 C 0.37145 0.91685 0.16458 0.0
C163 C 0.32112 0.94276 0.13018 0.0
C164 C 0.25363 0.80077 0.28581 0.0
C165 C 0.44577 0.93556 0.14329 0.0
C166 C 0.48381 0.8332 0.33646 0.0
C167 C 0.47687 0.75703 0.32374 0.0
C168 C 0.44559 0.87212 0.29968 0.0
C169 C 0.40064 0.83424 0.2484 0.0
C170 C 0.39988 0.76013 0.23175 0.0
C171 C 0.43711 0.72205 0.27014 0.0
C172 C 0.44866 0.95132 0.31874 0.0
C173 C 0.35572 0.71885 0.17578 0.0
H174 H 0.17264 0.85493 0.20394 0.0
H175 H 0.33727 0.9767 0.08994 0.0
H176 H 0.25415 0.74213 0.27657 0.0
H177 H 0.29048 0.82297 0.32702 0.0
H178 H 0.19889 0.7983 0.29638 0.0
H179 H 0.45883 0.98636 0.11377 0.0
H180 H 0.48636 0.9452 0.18266 0.0
H181 H 0.4495 0.88682 0.11584 0.0
H182 H 0.51334 0.85993 0.37854 0.0
H183 H 0.43115 0.6629 0.26055 0.0
H184 H 0.39681 0.94987 0.33595 0.0
H185 H 0.45768 0.98948 0.27878 0.0
H186 H 0.49146 0.97578 0.35551 0.0
H187 H 0.29838 0.7026 0.18428 0.0
H188 H 0.36872 0.6665 0.16442 0.0
H189 H 0.36413 0.75636 0.13533 0.0
C190 C 0.30242 0.95357 0.81505 0.0
C191 C 0.27482 0.90129 0.86075 0.0
C192 C 0.33053 0.93146 0.7634 0.0
C193 C 0.33167 0.8557 0.758 0.0
C194 C 0.30768 0.80415 0.80581 0.0
C195 C 0.2791 0.82743 0.85634 0.0
C196 C 0.357 0.98831 0.7138 0.0
C197 C 0.31031 0.72365 0.80282 0.0
C198 C 0.33234 0.75814 0.60505 0.0
C199 C 0.40397 0.76139 0.60478 0.0
C200 C 0.30873 0.79255 0.65307 0.0
C201 C 0.35763 0.82946 0.70248 0.0
C202 C 0.43031 0.83497 0.70134 0.0
C203 C 0.45262 0.8016 0.65236 0.0
C204 C 0.23097 0.78689 0.65221 0.0
C205 C 0.484 0.87112 0.75384 0.0
H206 H 0.29867 0.01057 0.818 0.0
H207 H 0.25825 0.78701 0.89179 0.0
H208 H 0.41342 0.99423 0.70671 0.0
H209 H 0.3256 0.96776 0.66957 0.0
H210 H 0.35301 0.04518 0.72515 0.0
H211 H 0.2927 0.69186 0.8452 0.0
H212 H 0.27556 0.69286 0.76292 0.0
H213 H 0.36533 0.72374 0.79597 0.0
H214 H 0.29455 0.72769 0.56835 0.0
H215 H 0.50812 0.80417 0.65314 0.0
H216 H 0.22531 0.84372 0.66043 0.0
H217 H 0.20596 0.74979 0.68984 0.0
H218 H 0.20136 0.76321 0.60786 0.0
H219 H 0.47292 0.92076 0.77378 0.0
H220 H 0.53932 0.88931 0.73916 0.0
H221 H 0.48075 0.8291 0.79082 0.0
C222 C 0.11232 0.10598 0.75483 0.0
C223 C 0.10132 0.14315 0.80725 0.0
C224 C 0.15129 0.14711 0.70757 0.0
C225 C 0.18049 0.22709 0.71362 0.0
C226 C 0.16445 0.2651 0.76426 0.0
C227 C 0.12494 0.22252 0.81048 0.0
C228 C 0.16603 0.10436 0.65394 0.0
C229 C 0.19417 0.35028 0.77241 0.0
C230 C 0.35239 0.33296 0.64064 0.0
C231 C 0.32656 0.36967 0.5925 0.0
C232 C 0.30517 0.28425 0.67951 0.0
C233 C 0.23064 0.2712 0.66906 0.0
C234 C 0.20441 0.30475 0.61833 0.0
C235 C 0.25258 0.35389 0.58108 0.0
C236 C 0.33516 0.2491 0.73311 0.0
C237 C 0.12549 0.29054 0.6044 0.0
H238 H 0.09614 0.04443 0.75341 0.0
H239 H 0.11838 0.25095 0.85204 0.0
H240 H 0.16085 0.13341 0.61006 0.0
H241 H 0.2215 0.10229 0.66011 0.0
H242 H 0.12947 0.04512 0.65021 0.0
H243 H 0.17283 0.37144 0.81203 0.0
H244 H 0.25306 0.36711 0.78006 0.0
H245 H 0.18163 0.37875 0.73023 0.0
H246 H 0.40939 0.34452 0.64932 0.0
H247 H 0.23204 0.38067 0.54297 0.0
H248 H 0.31005 0.18659 0.73189 0.0
H249 H 0.32264 0.27078 0.77692 0.0
H250 H 0.39383 0.26186 0.7332 0.0
H251 H 0.09689 0.22865 0.60262 0.0
H252 H 0.11352 0.31541 0.56005 0.0
H253 H 0.10402 0.31561 0.64168 0.0
C254 C 0.71156 0.05643 0.82495 0.0
C255 C 0.78359 0.07964 0.81189 0.0
C256 C 0.66123 0.08229 0.79051 0.0
C257 C 0.68266 0.13023 0.74005 0.0
C258 C 0.75446 0.1498 0.72418 0.0
C259 C 0.80447 0.12588 0.76123 0.0
C260 C 0.58686 0.06344 0.81173 0.0
C261 C 0.77913 0.19867 0.66947 0.0
C262 C 0.5489 0.16593 0.6186 0.0
C263 C 0.55568 0.24205 0.63139 0.0
C264 C 0.58717 0.12706 0.65538 0.0
C265 C 0.63202 0.16492 0.70672 0.0
C266 C 0.63263 0.23897 0.72342 0.0
C267 C 0.59535 0.27702 0.68504 0.0
C268 C 0.58425 0.04793 0.63626 0.0
C269 C 0.67669 0.28024 0.77943 0.0
H270 H 0.69539 0.02242 0.86516 0.0
H271 H 0.86012 0.14454 0.75138 0.0
H272 H 0.58304 0.11211 0.83923 0.0
H273 H 0.54632 0.05383 0.77233 0.0
H274 H 0.57381 0.01258 0.84119 0.0
H275 H 0.83392 0.20125 0.65896 0.0
H276 H 0.74236 0.17646 0.62822 0.0
H277 H 0.77851 0.25726 0.67874 0.0
H278 H 0.51944 0.13923 0.57649 0.0
H279 H 0.6012 0.33612 0.69467 0.0
H280 H 0.57521 0.0097 0.6762 0.0
H281 H 0.63617 0.04949 0.61913 0.0
H282 H 0.54153 0.02346 0.59943 0.0
H283 H 0.66824 0.24269 0.81986 0.0
H284 H 0.66362 0.33254 0.7908 0.0
H285 H 0.73405 0.29655 0.77101 0.0
C286 C 0.88635 0.69748 0.88363 0.0
C287 C 0.87549 0.76699 0.89746 0.0
C288 C 0.8478 0.65162 0.83418 0.0
C289 C 0.79531 0.67438 0.7995 0.0
C290 C 0.77689 0.73831 0.81891 0.0
C291 C 0.81798 0.78469 0.86735 0.0
C292 C 0.86917 0.58403 0.81498 0.0
C293 C 0.71815 0.76169 0.78493 0.0
C294 C 0.76716 0.65465 0.62687 0.0
C295 C 0.70262 0.59593 0.61987 0.0
C296 C 0.80132 0.67621 0.68539 0.0
C297 C 0.76833 0.63991 0.73786 0.0
C298 C 0.7064 0.57618 0.73051 0.0
C299 C 0.67485 0.55405 0.67117 0.0
C300 C 0.86959 0.74194 0.69128 0.0
C301 C 0.66881 0.53632 0.7849 0.0
H302 H 0.92964 0.68207 0.90748 0.0
H303 H 0.8081 0.83726 0.87861 0.0
H304 H 0.82186 0.53516 0.80067 0.0
H305 H 0.90201 0.59945 0.77481 0.0
H306 H 0.90095 0.56589 0.8525 0.0
H307 H 0.70224 0.80379 0.81186 0.0
H308 H 0.73663 0.78757 0.74065 0.0
H309 H 0.67066 0.71146 0.77424 0.0
H310 H 0.78837 0.68684 0.58704 0.0
H311 H 0.62426 0.50908 0.6658 0.0
H312 H 0.90915 0.72872 0.72435 0.0
H313 H 0.85867 0.79285 0.70919 0.0
H314 H 0.89344 0.75614 0.64638 0.0
H315 H 0.63558 0.47723 0.77248 0.0
H316 H 0.63318 0.56756 0.80016 0.0
H317 H 0.70676 0.53485 0.82443 0.0
loop_
_geom_bond_atom_site_label_1
_geom_bond_atom_site_label_2
_geom_bond_distance
_geom_bond_site_symmetry_2
_ccdc_geom_bond_type
C0 O12 1.241 . S
C0 O13 1.280 . S
C1 O14 1.277 . S
C1 O15 1.245 . S
C2 O26 1.247 . S
C2 O28 1.289 . S
Mg3 O4 1.926 . S
Mg3 O13 1.984 . S
Mg3 O15 1.988 1_554 S
Mg3 O16 2.061 1_655 S
O4 Mg3 1.926 . S
O4 Mg5 1.986 1_554 S
O4 Mg6 1.917 1_655 S
Mg5 O4 1.986 1_556 S
Mg5 O12 2.042 1_556 S
Mg5 O14 2.041 . S
Mg5 O20 2.038 1_546 S
Mg5 O28 2.238 1_545 S
Mg6 O4 1.917 1_455 S
Mg6 O7 1.917 1_544 S
Mg6 O17 2.106 . S
Mg6 O19 2.079 1_445 S
Mg6 O28 2.106 1_444 S
Mg6 O29 2.079 1_554 S
O7 Mg6 1.917 1_566 S
O7 Mg8 1.926 . S
O7 Mg9 1.986 1_556 S
Mg8 O7 1.926 . S
Mg8 O22 1.984 . S
Mg8 O25 1.988 1_556 S
Mg8 O26 2.061 1_455 S
Mg9 O7 1.986 1_554 S
Mg9 O17 2.238 1_565 S
Mg9 O21 2.042 1_554 S
Mg9 O23 2.041 . S
Mg9 O30 2.038 1_564 S
C10 O16 1.247 . S
C10 O17 1.289 . S
C11 O29 1.245 . S
C11 O30 1.274 . S
O12 C0 1.241 . S
O12 Mg5 2.042 1_554 S
O13 C0 1.280 . S
O13 Mg3 1.984 . S
O14 C1 1.277 . S
O14 Mg5 2.041 . S
O15 C1 1.245 . S
O15 Mg3 1.988 1_556 S
O16 Mg3 2.061 1_455 S
O16 C10 1.247 . S
O17 Mg6 2.106 . S
O17 Mg9 2.238 1_545 S
O17 C10 1.289 . S
C18 O19 1.245 . S
C18 O20 1.274 . S
O19 Mg6 2.079 1_665 S
O19 C18 1.245 . S
O20 Mg5 2.038 1_564 S
O20 C18 1.274 . S
O21 Mg9 2.042 1_556 S
O21 C24 1.241 . S
O22 Mg8 1.984 . S
O22 C24 1.280 . S
O23 Mg9 2.041 . S
O23 C27 1.277 . S
C24 O21 1.241 . S
C24 O22 1.280 . S
O25 Mg8 1.988 1_554 S
O25 C27 1.245 . S
O26 C2 1.247 . S
O26 Mg8 2.061 1_655 S
C27 O23 1.277 . S
C27 O25 1.245 . S
O28 C2 1.289 . S
O28 Mg5 2.238 1_565 S
O28 Mg6 2.106 1_666 S
O29 Mg6 2.079 1_556 S
O29 C11 1.245 . S
O30 Mg9 2.038 1_546 S
O30 C11 1.274 . S
C31 O43 1.241 . S
C31 O44 1.280 . S
C32 O45 1.277 . S
C32 O46 1.245 . S
C33 O57 1.247 . S
C33 O59 1.289 . S
Mg34 O35 1.926 . S
Mg34 O44 1.984 . S
Mg34 O46 1.988 . S
Mg34 O47 2.061 . S
O35 Mg34 1.926 . S
O35 Mg36 1.986 . S
O35 Mg37 1.917 . S
Mg36 O35 1.986 . S
Mg36 O43 2.042 . S
Mg36 O45 2.041 . S
Mg36 O51 2.038 . S
Mg36 O59 2.238 . S
Mg37 O35 1.917 . S
Mg37 O38 1.917 . S
Mg37 O48 2.106 . S
Mg37 O50 2.079 . S
Mg37 O59 2.106 . S
Mg37 O60 2.079 . S
O38 Mg37 1.917 . S
O38 Mg39 1.926 . S
O38 Mg40 1.986 . S
Mg39 O38 1.926 . S
Mg39 O53 1.984 . S
Mg39 O56 1.988 . S
Mg39 O57 2.061 . S
Mg40 O38 1.986 . S
Mg40 O48 2.238 . S
Mg40 O52 2.042 . S
Mg40 O54 2.041 . S
Mg40 O61 2.038 . S
C41 O47 1.247 . S
C41 O48 1.289 . S
C42 O60 1.245 . S
C42 O61 1.274 . S
O43 C31 1.241 . S
O43 Mg36 2.042 . S
O44 C31 1.280 . S
O44 Mg34 1.984 . S
O45 C32 1.277 . S
O45 Mg36 2.041 . S
O46 C32 1.245 . S
O46 Mg34 1.988 . S
O47 Mg34 2.061 . S
O47 C41 1.247 . S
O48 Mg37 2.106 . S
O48 Mg40 2.238 . S
O48 C41 1.289 . S
C49 O50 1.245 . S
C49 O51 1.274 . S
O50 Mg37 2.079 . S
O50 C49 1.245 . S
O51 Mg36 2.038 . S
O51 C49 1.274 . S
O52 Mg40 2.042 . S
O52 C55 1.241 . S
O53 Mg39 1.984 . S
O53 C55 1.280 . S
O54 Mg40 2.041 . S
O54 C58 1.277 . S
C55 O52 1.241 . S
C55 O53 1.280 . S
O56 Mg39 1.988 . S
O56 C58 1.245 . S
O57 C33 1.247 . S
O57 Mg39 2.061 . S
C58 O54 1.277 . S
C58 O56 1.245 . S
O59 C33 1.289 . S
O59 Mg36 2.238 . S
O59 Mg37 2.106 . S
O60 Mg37 2.079 . S
O60 C42 1.245 . S
O61 Mg40 2.038 . S
O61 C42 1.274 . S
C62 C63 1.391 . S
C62 C64 1.394 . S
C62 H78 0.931 . S
C63 C62 1.391 . S
C63 C67 1.376 . S
C64 C62 1.394 . S
C64 C65 1.369 . S
C64 C68 1.531 . S
C65 C64 1.369 . S
C65 C66 1.410 . S
C65 C73 1.503 . S
C66 C65 1.410 . S
C66 C67 1.392 . S
C66 C69 1.511 . S
C67 C63 1.376 . S
C67 C66 1.392 . S
C67 H79 0.929 . S
C68 C64 1.531 . S
C68 H80 0.960 . S
C68 H81 0.962 . S
C68 H82 0.960 . S
C69 C66 1.511 . S
C69 H83 0.961 . S
C69 H84 0.961 . S
C69 H85 0.961 . S
C70 C71 1.370 . S
C70 C72 1.363 . S
C70 H86 0.931 . S
C71 C70 1.370 . S
C71 C75 1.408 . S
C72 C70 1.363 . S
C72 C73 1.370 . S
C72 C76 1.524 . S
C73 C65 1.503 . S
C73 C72 1.370 . S
C73 C74 1.403 . S
C74 C73 1.403 . S
C74 C75 1.404 . S
C74 C77 1.539 . S
C75 C71 1.408 . S
C75 C74 1.404 . S
C75 H87 0.930 . S
C76 C72 1.524 . S
C76 H88 0.956 . S
C76 H89 0.961 . S
C76 H90 0.961 . S
C77 C74 1.539 . S
C77 H91 0.958 . S
C77 H92 0.961 . S
C77 H93 0.960 . S
H78 C62 0.931 . S
H79 C67 0.929 . S
H80 C68 0.960 . S
H81 C68 0.962 . S
H82 C68 0.960 . S
H83 C69 0.961 . S
H84 C69 0.961 . S
H85 C69 0.961 . S
H86 C70 0.931 . S
H87 C75 0.930 . S
H88 C76 0.956 . S
H89 C76 0.961 . S
H90 C76 0.961 . S
H91 C77 0.958 . S
H92 C77 0.961 . S
H93 C77 0.960 . S
C94 C95 1.391 . S
C94 C96 1.394 . S
C94 H110 0.931 . S
C95 C94 1.391 . S
C95 C99 1.376 . S
C96 C94 1.394 . S
C96 C97 1.369 . S
C96 C100 1.531 . S
C97 C96 1.369 . S
C97 C98 1.410 . S
C97 C105 1.503 . S
C98 C97 1.410 . S
C98 C99 1.392 . S
C98 C101 1.511 . S
C99 C95 1.376 . S
C99 C98 1.392 . S
C99 H111 0.929 . S
C100 C96 1.531 . S
C100 H112 0.960 . S
C100 H113 0.962 . S
C100 H114 0.960 . S
C101 C98 1.511 . S
C101 H115 0.961 . S
C101 H116 0.961 . S
C101 H117 0.961 . S
C102 C103 1.370 . S
C102 C104 1.363 . S
C102 H118 0.931 . S
C103 C102 1.370 . S
C103 C107 1.408 . S
C104 C102 1.363 . S
C104 C105 1.370 . S
C104 C108 1.524 . S
C105 C97 1.503 . S
C105 C104 1.370 . S
C105 C106 1.403 . S
C106 C105 1.403 . S
C106 C107 1.404 . S
C106 C109 1.539 . S
C107 C103 1.408 . S
C107 C106 1.404 . S
C107 H119 0.930 . S
C108 C104 1.524 . S
C108 H120 0.956 . S
C108 H121 0.961 . S
C108 H122 0.961 . S
C109 C106 1.539 . S
C109 H123 0.958 . S
C109 H124 0.961 . S
C109 H125 0.960 . S
H110 C94 0.931 . S
H111 C99 0.929 . S
H112 C100 0.960 . S
H113 C100 0.962 . S
H114 C100 0.960 . S
H115 C101 0.961 . S
H116 C101 0.961 . S
H117 C101 0.961 . S
H118 C102 0.931 . S
H119 C107 0.930 . S
H120 C108 0.956 . S
H121 C108 0.961 . S
H122 C108 0.961 . S
H123 C109 0.958 . S
H124 C109 0.961 . S
H125 C109 0.960 . S
C126 C127 1.391 . S
C126 C128 1.394 . S
C126 H142 0.931 . S
C127 C126 1.391 . S
C127 C131 1.376 . S
C128 C126 1.394 . S
C128 C129 1.369 . S
C128 C132 1.531 . S
C129 C128 1.369 . S
C129 C130 1.410 . S
C129 C137 1.503 . S
C130 C129 1.410 . S
C130 C131 1.392 . S
C130 C133 1.511 . S
C131 C127 1.376 . S
C131 C130 1.392 . S
C131 H143 0.929 . S
C132 C128 1.531 . S
C132 H144 0.960 . S
C132 H145 0.962 . S
C132 H146 0.960 . S
C133 C130 1.511 . S
C133 H147 0.961 . S
C133 H148 0.961 . S
C133 H149 0.961 . S
C134 C135 1.370 . S
C134 C136 1.363 . S
C134 H150 0.931 . S
C135 C134 1.370 . S
C135 C139 1.408 . S
C136 C134 1.363 . S
C136 C137 1.370 . S
C136 C140 1.524 . S
C137 C129 1.503 . S
C137 C136 1.370 . S
C137 C138 1.403 . S
C138 C137 1.403 . S
C138 C139 1.404 . S
C138 C141 1.539 . S
C139 C135 1.408 . S
C139 C138 1.404 . S
C139 H151 0.930 . S
C140 C136 1.524 . S
C140 H152 0.956 . S
C140 H153 0.961 . S
C140 H154 0.961 . S
C141 C138 1.539 . S
C141 H155 0.958 . S
C141 H156 0.961 . S
C141 H157 0.960 . S
H142 C126 0.931 . S
H143 C131 0.929 . S
H144 C132 0.960 . S
H145 C132 0.962 . S
H146 C132 0.960 . S
H147 C133 0.961 . S
H148 C133 0.961 . S
H149 C133 0.961 . S
H150 C134 0.931 . S
H151 C139 0.930 . S
H152 C140 0.956 . S
H153 C140 0.961 . S
H154 C140 0.961 . S
H155 C141 0.958 . S
H156 C141 0.961 . S
H157 C141 0.960 . S
C158 C159 1.391 . S
C158 C160 1.394 . S
C158 H174 0.931 . S
C159 C158 1.391 . S
C159 C163 1.376 . S
C160 C158 1.394 . S
C160 C161 1.369 . S
C160 C164 1.531 . S
C161 C160 1.369 . S
C161 C162 1.410 . S
C161 C169 1.503 . S
C162 C161 1.410 . S
C162 C163 1.392 . S
C162 C165 1.511 . S
C163 C159 1.376 . S
C163 C162 1.392 . S
C163 H175 0.929 . S
C164 C160 1.531 . S
C164 H176 0.960 . S
C164 H177 0.962 . S
C164 H178 0.960 . S
C165 C162 1.511 . S
C165 H179 0.961 . S
C165 H180 0.961 . S
C165 H181 0.961 . S
C166 C167 1.370 . S
C166 C168 1.363 . S
C166 H182 0.931 . S
C167 C166 1.370 . S
C167 C171 1.408 . S
C168 C166 1.363 . S
C168 C169 1.370 . S
C168 C172 1.524 . S
C169 C161 1.503 . S
C169 C168 1.370 . S
C169 C170 1.403 . S
C170 C169 1.403 . S
C170 C171 1.404 . S
C170 C173 1.539 . S
C171 C167 1.408 . S
C171 C170 1.404 . S
C171 H183 0.930 . S
C172 C168 1.524 . S
C172 H184 0.956 . S
C172 H185 0.961 . S
C172 H186 0.961 . S
C173 C170 1.539 . S
C173 H187 0.958 . S
C173 H188 0.961 . S
C173 H189 0.960 . S
H174 C158 0.931 . S
H175 C163 0.929 . S
H176 C164 0.960 . S
H177 C164 0.962 . S
H178 C164 0.960 . S
H179 C165 0.961 . S
H180 C165 0.961 . S
H181 C165 0.961 . S
H182 C166 0.931 . S
H183 C171 0.930 . S
H184 C172 0.956 . S
H185 C172 0.961 . S
H186 C172 0.961 . S
H187 C173 0.958 . S
H188 C173 0.961 . S
H189 C173 0.960 . S
C190 C191 1.391 . S
C190 C192 1.394 . S
C190 H206 0.931 . S
C191 C190 1.391 . S
C191 C195 1.376 . S
C192 C190 1.394 . S
C192 C193 1.369 . S
C192 C196 1.531 . S
C193 C192 1.369 . S
C193 C194 1.410 . S
C193 C201 1.503 . S
C194 C193 1.410 . S
C194 C195 1.392 . S
C194 C197 1.511 . S
C195 C191 1.376 . S
C195 C194 1.392 . S
C195 H207 0.929 . S
C196 C192 1.531 . S
C196 H208 0.960 . S
C196 H209 0.962 . S
C196 H210 0.960 . S
C197 C194 1.511 . S
C197 H211 0.961 . S
C197 H212 0.961 . S
C197 H213 0.961 . S
C198 C199 1.370 . S
C198 C200 1.363 . S
C198 H214 0.931 . S
C199 C198 1.370 . S
C199 C203 1.408 . S
C200 C198 1.363 . S
C200 C201 1.370 . S
C200 C204 1.524 . S
C201 C193 1.503 . S
C201 C200 1.370 . S
C201 C202 1.403 . S
C202 C201 1.403 . S
C202 C203 1.404 . S
C202 C205 1.539 . S
C203 C199 1.408 . S
C203 C202 1.404 . S
C203 H215 0.930 . S
C204 C200 1.524 . S
C204 H216 0.956 . S
C204 H217 0.961 . S
C204 H218 0.961 . S
C205 C202 1.539 . S
C205 H219 0.958 . S
C205 H220 0.961 . S
C205 H221 0.960 . S
H206 C190 0.931 . S
H207 C195 0.929 . S
H208 C196 0.960 . S
H209 C196 0.962 . S
H210 C196 0.960 . S
H211 C197 0.961 . S
H212 C197 0.961 . S
H213 C197 0.961 . S
H214 C198 0.931 . S
H215 C203 0.930 . S
H216 C204 0.956 . S
H217 C204 0.961 . S
H218 C204 0.961 . S
H219 C205 0.958 . S
H220 C205 0.961 . S
H221 C205 0.960 . S
C222 C223 1.391 . S
C222 C224 1.394 . S
C222 H238 0.931 . S
C223 C222 1.391 . S
C223 C227 1.376 . S
C224 C222 1.394 . S
C224 C225 1.369 . S
C224 C228 1.531 . S
C225 C224 1.369 . S
C225 C226 1.410 . S
C225 C233 1.503 . S
C226 C225 1.410 . S
C226 C227 1.392 . S
C226 C229 1.511 . S
C227 C223 1.376 . S
C227 C226 1.392 . S
C227 H239 0.929 . S
C228 C224 1.531 . S
C228 H240 0.960 . S
C228 H241 0.962 . S
C228 H242 0.960 . S
C229 C226 1.511 . S
C229 H243 0.961 . S
C229 H244 0.961 . S
C229 H245 0.961 . S
C230 C231 1.370 . S
C230 C232 1.363 . S
C230 H246 0.931 . S
C231 C230 1.370 . S
C231 C235 1.408 . S
C232 C230 1.363 . S
C232 C233 1.370 . S
C232 C236 1.524 . S
C233 C225 1.503 . S
C233 C232 1.370 . S
C233 C234 1.403 . S
C234 C233 1.403 . S
C234 C235 1.404 . S
C234 C237 1.539 . S
C235 C231 1.408 . S
C235 C234 1.404 . S
C235 H247 0.930 . S
C236 C232 1.524 . S
C236 H248 0.956 . S
C236 H249 0.961 . S
C236 H250 0.961 . S
C237 C234 1.539 . S
C237 H251 0.958 . S
C237 H252 0.961 . S
C237 H253 0.960 . S
H238 C222 0.931 . S
H239 C227 0.929 . S
H240 C228 0.960 . S
H241 C228 0.962 . S
H242 C228 0.960 . S
H243 C229 0.961 . S
H244 C229 0.961 . S
H245 C229 0.961 . S
H246 C230 0.931 . S
H247 C235 0.930 . S
H248 C236 0.956 . S
H249 C236 0.961 . S
H250 C236 0.961 . S
H251 C237 0.958 . S
H252 C237 0.961 . S
H253 C237 0.960 . S
C254 C255 1.391 . S
C254 C256 1.394 . S
C254 H270 0.931 . S
C255 C254 1.391 . S
C255 C259 1.376 . S
C256 C254 1.394 . S
C256 C257 1.369 . S
C256 C260 1.531 . S
C257 C256 1.369 . S
C257 C258 1.410 . S
C257 C265 1.503 . S
C258 C257 1.410 . S
C258 C259 1.392 . S
C258 C261 1.511 . S
C259 C255 1.376 . S
C259 C258 1.392 . S
C259 H271 0.929 . S
C260 C256 1.531 . S
C260 H272 0.960 . S
C260 H273 0.962 . S
C260 H274 0.960 . S
C261 C258 1.511 . S
C261 H275 0.961 . S
C261 H276 0.961 . S
C261 H277 0.961 . S
C262 C263 1.370 . S
C262 C264 1.363 . S
C262 H278 0.931 . S
C263 C262 1.370 . S
C263 C267 1.408 . S
C264 C262 1.363 . S
C264 C265 1.370 . S
C264 C268 1.524 . S
C265 C257 1.503 . S
C265 C264 1.370 . S
C265 C266 1.403 . S
C266 C265 1.403 . S
C266 C267 1.404 . S
C266 C269 1.539 . S
C267 C263 1.408 . S
C267 C266 1.404 . S
C267 H279 0.930 . S
C268 C264 1.524 . S
C268 H280 0.956 . S
C268 H281 0.961 . S
C268 H282 0.961 . S
C269 C266 1.539 . S
C269 H283 0.958 . S
C269 H284 0.961 . S
C269 H285 0.960 . S
H270 C254 0.931 . S
H271 C259 0.929 . S
H272 C260 0.960 . S
H273 C260 0.962 . S
H274 C260 0.960 . S
H275 C261 0.961 . S
H276 C261 0.961 . S
H277 C261 0.961 . S
H278 C262 0.931 . S
H279 C267 0.930 . S
H280 C268 0.956 . S
H281 C268 0.961 . S
H282 C268 0.961 . S
H283 C269 0.958 . S
H284 C269 0.961 . S
H285 C269 0.960 . S
C286 C287 1.391 . S
C286 C288 1.394 . S
C286 H302 0.931 . S
C287 C286 1.391 . S
C287 C291 1.376 . S
C288 C286 1.394 . S
C288 C289 1.369 . S
C288 C292 1.531 . S
C289 C288 1.369 . S
C289 C290 1.410 . S
C289 C297 1.503 . S
C290 C289 1.410 . S
C290 C291 1.392 . S
C290 C293 1.511 . S
C291 C287 1.376 . S
C291 C290 1.392 . S
C291 H303 0.929 . S
C292 C288 1.531 . S
C292 H304 0.960 . S
C292 H305 0.962 . S
C292 H306 0.960 . S
C293 C290 1.511 . S
C293 H307 0.961 . S
C293 H308 0.961 . S
C293 H309 0.961 . S
C294 C295 1.370 . S
C294 C296 1.363 . S
C294 H310 0.931 . S
C295 C294 1.370 . S
C295 C299 1.408 . S
C296 C294 1.363 . S
C296 C297 1.370 . S
C296 C300 1.524 . S
C297 C289 1.503 . S
C297 C296 1.370 . S
C297 C298 1.403 . S
C298 C297 1.403 . S
C298 C299 1.404 . S
C298 C301 1.539 . S
C299 C295 1.408 . S
C299 C298 1.404 . S
C299 H311 0.930 . S
C300 C296 1.524 . S
C300 H312 0.956 . S
C300 H313 0.961 . S
C300 H314 0.961 . S
C301 C298 1.539 . S
C301 H315 0.958 . S
C301 H316 0.961 . S
C301 H317 0.960 . S
H302 C286 0.931 . S
H303 C291 0.929 . S
H304 C292 0.960 . S
H305 C292 0.962 . S
H306 C292 0.960 . S
H307 C293 0.961 . S
H308 C293 0.961 . S
H309 C293 0.961 . S
H310 C294 0.931 . S
H311 C299 0.930 . S
H312 C300 0.956 . S
H313 C300 0.961 . S
H314 C300 0.961 . S
H315 C301 0.958 . S
H316 C301 0.961 . S
H317 C301 0.960 . S
C63 C10 0.940 . S
C71 C33 0.871 . S
C95 C0 1.547 . S
C103 C55 1.574 . S
C127 C18 1.518 . S
C135 C42 1.555 . S
C159 C27 1.699 . S
C167 C32 1.736 . S
C191 C24 1.539 . S
C199 C31 1.582 . S
C231 C49 1.535 . S
C223 C11 1.568 . S
C255 C1 1.710 . S
C263 C58 1.733 . S
C295 C41 0.914 . S
C287 C2 0.847 . S
