# Generated by pormake.
# Topology wbl, (4,4)-cn, num edge types: 1
# Building blocks:
#     Node 0, Type 0, BuildingBlock: MUDLON_clean_sbu_0, # of connection points: 4
#     Node 1, Type 0, BuildingBlock: MUDLON_clean_sbu_0, # of connection points: 4
#     Node 2, Type 0, BuildingBlock: MUDLON_clean_sbu_0, # of connection points: 4
#     Node 3, Type 0, BuildingBlock: MUDLON_clean_sbu_0, # of connection points: 4
#     Node 4, Type 0, BuildingBlock: MUDLON_clean_sbu_0, # of connection points: 4
#     Node 5, Type 0, BuildingBlock: MUDLON_clean_sbu_0, # of connection points: 4
#     Node 6, Type 0, BuildingBlock: MUDLON_clean_sbu_0, # of connection points: 4
#     Node 7, Type 0, BuildingBlock: MUDLON_clean_sbu_0, # of connection points: 4
#     Node 8, Type 1, BuildingBlock: QUQFOY_clean_sbu_3, # of connection points: 4
#     Node 9, Type 1, BuildingBlock: QUQFOY_clean_sbu_3, # of connection points: 4
#     Node 10, Type 1, BuildingBlock: QUQFOY_clean_sbu_3, # of connection points: 4
#     Node 11, Type 1, BuildingBlock: QUQFOY_clean_sbu_3, # of connection points: 4
#     Node 12, Type 1, BuildingBlock: QUQFOY_clean_sbu_3, # of connection points: 4
#     Node 13, Type 1, BuildingBlock: QUQFOY_clean_sbu_3, # of connection points: 4
#     Node 14, Type 1, BuildingBlock: QUQFOY_clean_sbu_3, # of connection points: 4
#     Node 15, Type 1, BuildingBlock: QUQFOY_clean_sbu_3, # of connection points: 4
#     Edge 16, Type (0, 1), BuildingBlock: AJUNOK_clean_linker_0, # of connection points: 2
#     Edge 17, Type (0, 1), BuildingBlock: AJUNOK_clean_linker_0, # of connection points: 2
#     Edge 18, Type (0, 1), BuildingBlock: AJUNOK_clean_linker_0, # of connection points: 2
#     Edge 19, Type (0, 1), BuildingBlock: AJUNOK_clean_linker_0, # of connection points: 2
#     Edge 20, Type (0, 1), BuildingBlock: AJUNOK_clean_linker_0, # of connection points: 2
#     Edge 21, Type (0, 1), BuildingBlock: AJUNOK_clean_linker_0, # of connection points: 2
#     Edge 22, Type (0, 1), BuildingBlock: AJUNOK_clean_linker_0, # of connection points: 2
#     Edge 23, Type (0, 1), BuildingBlock: AJUNOK_clean_linker_0, # of connection points: 2
#     Edge 24, Type (0, 1), BuildingBlock: AJUNOK_clean_linker_0, # of connection points: 2
#     Edge 25, Type (0, 1), BuildingBlock: AJUNOK_clean_linker_0, # of connection points: 2
#     Edge 26, Type (0, 1), BuildingBlock: AJUNOK_clean_linker_0, # of connection points: 2
#     Edge 27, Type (0, 1), BuildingBlock: AJUNOK_clean_linker_0, # of connection points: 2
#     Edge 28, Type (0, 1), BuildingBlock: AJUNOK_clean_linker_0, # of connection points: 2
#     Edge 29, Type (0, 1), BuildingBlock: AJUNOK_clean_linker_0, # of connection points: 2
#     Edge 30, Type (0, 1), BuildingBlock: AJUNOK_clean_linker_0, # of connection points: 2
#     Edge 31, Type (0, 1), BuildingBlock: AJUNOK_clean_linker_0, # of connection points: 2
#     Edge 32, Type (0, 1), BuildingBlock: AJUNOK_clean_linker_0, # of connection points: 2
#     Edge 33, Type (0, 1), BuildingBlock: AJUNOK_clean_linker_0, # of connection points: 2
#     Edge 34, Type (0, 1), BuildingBlock: AJUNOK_clean_linker_0, # of connection points: 2
#     Edge 35, Type (0, 1), BuildingBlock: AJUNOK_clean_linker_0, # of connection points: 2
#     Edge 36, Type (0, 1), BuildingBlock: AJUNOK_clean_linker_0, # of connection points: 2
#     Edge 37, Type (0, 1), BuildingBlock: AJUNOK_clean_linker_0, # of connection points: 2
#     Edge 38, Type (0, 1), BuildingBlock: AJUNOK_clean_linker_0, # of connection points: 2
#     Edge 39, Type (0, 1), BuildingBlock: AJUNOK_clean_linker_0, # of connection points: 2
#     Edge 40, Type (0, 1), BuildingBlock: AJUNOK_clean_linker_0, # of connection points: 2
#     Edge 41, Type (0, 1), BuildingBlock: AJUNOK_clean_linker_0, # of connection points: 2
#     Edge 42, Type (0, 1), BuildingBlock: AJUNOK_clean_linker_0, # of connection points: 2
#     Edge 43, Type (0, 1), BuildingBlock: AJUNOK_clean_linker_0, # of connection points: 2
#     Edge 44, Type (0, 1), BuildingBlock: AJUNOK_clean_linker_0, # of connection points: 2
#     Edge 45, Type (0, 1), BuildingBlock: AJUNOK_clean_linker_0, # of connection points: 2
#     Edge 46, Type (0, 1), BuildingBlock: AJUNOK_clean_linker_0, # of connection points: 2
#     Edge 47, Type (0, 1), BuildingBlock: AJUNOK_clean_linker_0, # of connection points: 2
# Relax obj value: 0.235
# Max RMSD: 0.223
# Mean RMSD: 0.174
data_MOF--net-wbl--node1-MUDLON_clean_sbu_0--node2-QUQFOY_clean_sbu_3--edge1-AJUNOK_clean_linker_0
_symmetry_space_group_name_H-M    P1
_symmetry_Int_Tables_number       1
_symmetry_cell_setting            triclinic
loop_
_symmetry_equiv_pos_as_xyz
'x, y, z'
_cell_length_a     26.026852
_cell_length_b     26.344444
_cell_length_c     57.040251
_cell_angle_alpha  90.563854
_cell_angle_beta   90.187334
_cell_angle_gamma 89.674868
loop_
_atom_site_label
_atom_site_type_symbol
_atom_site_fract_x
_atom_site_fract_y
_atom_site_fract_z
_atom_type_partial_charge
Mg0 Mg 0.01382 0.00924 0.34012 0.0
C1 C 0.97217 0.95462 0.38091 0.0
O2 O 0.93637 0.98936 0.37804 0.0
C3 C 0.94651 0.07735 0.31161 0.0
O4 O 0.98895 0.10393 0.31322 0.0
C5 C 0.08268 -0.0004 0.29632 0.0
O6 O 0.04445 0.02255 0.28563 0.0
O7 O 0.07973 0.99104 0.31817 0.0
O8 O 0.00354 0.94687 0.3642 0.0
O9 O 0.03085 0.06667 0.36665 0.0
C10 C 0.99399 0.09358 0.37462 0.0
O11 O 0.95052 0.09447 0.36289 0.0
O12 O 0.94583 0.03334 0.32065 0.0
Mg13 Mg 0.14354 0.51468 0.59311 0.0
C14 C 0.25804 0.48746 0.60046 0.0
O15 O 0.30143 0.46435 0.59525 0.0
C16 C 0.10196 0.43034 0.56257 0.0
O17 O 0.1511 0.42619 0.55767 0.0
C18 C 0.17069 0.60222 0.56218 0.0
O19 O 0.20544 0.56882 0.55549 0.0
O20 O 0.13862 0.58996 0.57792 0.0
O21 O 0.22021 0.48387 0.58639 0.0
O22 O 0.12789 0.51389 0.63069 0.0
C23 C 0.13886 0.47285 0.6412 0.0
O24 O 0.15793 0.43479 0.6289 0.0
O25 O 0.08736 0.46522 0.57661 0.0
Mg26 Mg 0.63935 0.60947 0.82643 0.0
C27 C 0.61161 0.71034 0.84558 0.0
O28 O 0.56941 0.7001 0.83381 0.0
C29 C 0.74568 0.59486 0.80368 0.0
O30 O 0.75075 0.64294 0.8095 0.0
C31 C 0.56342 0.61685 0.78616 0.0
O32 O 0.60588 0.62405 0.77429 0.0
O33 O 0.56618 0.60803 0.808 0.0
O34 O 0.65209 0.6854 0.8404 0.0
O35 O 0.63719 0.57312 0.86038 0.0
C36 C 0.68004 0.58189 0.87036 0.0
O37 O 0.71673 0.60228 0.85786 0.0
O38 O 0.70299 0.57323 0.80753 0.0
Mg39 Mg 0.54082 0.14535 0.07773 0.0
C40 C 0.62108 0.17562 0.11352 0.0
O41 O 0.62215 0.21688 0.10083 0.0
C42 C 0.55752 0.03694 0.06227 0.0
O43 O 0.57196 0.03401 0.08425 0.0
C44 C 0.60131 0.21537 0.04817 0.0
O45 O 0.62743 0.17265 0.0465 0.0
O46 O 0.55946 0.21544 0.05966 0.0
O47 O 0.59501 0.13781 0.10642 0.0
O48 O 0.47207 0.14658 0.09956 0.0
C49 C 0.45231 0.10398 0.10451 0.0
O50 O 0.45926 0.06607 0.08975 0.0
O51 O 0.5433 0.07956 0.05417 0.0
Mg52 Mg 0.17496 0.49307 0.92746 0.0
C53 C 0.15945 0.54375 0.87847 0.0
O54 O 0.12393 0.57267 0.88813 0.0
C55 C 0.06077 0.49729 0.93585 0.0
O56 O 0.06122 0.46903 0.91679 0.0
C57 C 0.23421 0.58132 0.94756 0.0
O58 O 0.19308 0.60524 0.93996 0.0
O59 O 0.23668 0.53332 0.94512 0.0
O60 O 0.18251 0.51075 0.89077 0.0
O61 O 0.18414 0.41138 0.93289 0.0
C62 C 0.16607 0.37482 0.92064 0.0
O63 O 0.17207 0.32816 0.92809 0.0
O64 O 0.10284 0.51554 0.94334 0.0
Mg65 Mg 0.63904 0.64177 0.17436 0.0
C66 C 0.60656 0.60315 0.12668 0.0
O67 O 0.64508 0.57174 0.13028 0.0
C68 C 0.62062 0.56114 0.21244 0.0
O69 O 0.58054 0.58938 0.21785 0.0
C70 C 0.60519 0.72208 0.21235 0.0
O71 O 0.63418 0.69777 0.22749 0.0
O72 O 0.60349 0.70699 0.19117 0.0
O73 O 0.59093 0.63067 0.14367 0.0
O74 O 0.71021 0.65813 0.15659 0.0
C75 C 0.74157 0.62151 0.15365 0.0
O76 O 0.74075 0.58429 0.16881 0.0
O77 O 0.64934 0.5744 0.19564 0.0
Mg78 Mg 0.49986 0.13358 0.42789 0.0
C79 C 0.48139 0.20976 0.38959 0.0
O80 O 0.43429 0.19236 0.39054 0.0
C81 C 0.42337 0.08109 0.45579 0.0
O82 O 0.46026 0.04761 0.45228 0.0
C83 C 0.5913 0.16284 0.4564 0.0
O84 O 0.57004 0.2072 0.45224 0.0
O85 O 0.56909 0.12314 0.44867 0.0
O86 O 0.51166 0.20054 0.40657 0.0
O87 O 0.49316 0.07698 0.40024 0.0
C88 C 0.44835 0.07202 0.3916 0.0
O89 O 0.40947 0.09471 0.40201 0.0
O90 O 0.42999 0.12604 0.44842 0.0
Mg91 Mg 0.01804 0.0144 0.68735 0.0
C92 C 0.1115 0.01565 0.6563 0.0
O93 O 0.12988 0.98474 0.6722 0.0
C94 C 0.0495 0.0906 0.7243 0.0
O95 O 0.09433 0.06956 0.71977 0.0
C96 C 0.0579 0.9241 0.71779 0.0
O97 O 0.04715 0.95286 0.73609 0.0
O98 O 0.04692 0.93977 0.69736 0.0
O99 O 0.07024 0.03974 0.66069 0.0
O100 O 0.9518 0.01203 0.66443 0.0
C101 C 0.93189 0.05512 0.66013 0.0
O102 O 0.94284 0.09339 0.67417 0.0
O103 O 0.00985 0.07283 0.71422 0.0
C104 C 0.58385 0.68019 0.03272 0.0
O105 O 0.62634 0.68922 0.02281 0.0
Cd106 Cd 0.62896 0.74699 0.99004 0.0
O107 O 0.54199 0.69631 0.02391 0.0
Cd108 Cd 0.51383 0.73825 0.98724 0.0
C109 C 0.55713 0.84734 0.0103 0.0
O110 O 0.57954 0.71627 0.95739 0.0
O111 O 0.52957 0.78002 0.95002 0.0
O112 O 0.45924 0.66516 0.98046 0.0
C113 C 0.56345 0.7489 0.94276 0.0
O114 O 0.60104 0.83144 0.00362 0.0
C115 C 0.41742 0.68977 0.97846 0.0
O116 O 0.51747 0.81954 0.00828 0.0
O117 O 0.42005 0.73771 0.98104 0.0
C118 C 0.44331 0.05315 0.20315 0.0
O119 O 0.48284 0.06143 0.21565 0.0
Cd120 Cd 0.49622 0.02926 0.25428 0.0
O121 O 0.40638 0.02695 0.21104 0.0
Cd122 Cd 0.39189 0.9826 0.2489 0.0
C123 C 0.49202 0.90411 0.23983 0.0
O124 O 0.42286 0.04225 0.27875 0.0
O125 O 0.42108 0.96324 0.28861 0.0
O126 O 0.30417 0.01498 0.24839 0.0
C127 C 0.42468 0.00937 0.29483 0.0
O128 O 0.51848 0.93969 0.24898 0.0
C129 C 0.2832 0.97378 0.2544 0.0
O130 O 0.44435 0.91046 0.23543 0.0
O131 O 0.31242 0.93515 0.25608 0.0
C132 C 0.05924 0.94609 0.47341 0.0
O133 O 0.05058 0.98714 0.48454 0.0
Cd134 Cd 0.10708 0.01973 0.51434 0.0
O135 O 0.09564 0.91677 0.47982 0.0
Cd136 Cd 0.15466 0.91314 0.51457 0.0
C137 C 0.22882 0.00498 0.49178 0.0
O138 O 0.10982 0.96086 0.54571 0.0
O139 O 0.19094 0.94673 0.55091 0.0
O140 O 0.11948 0.83188 0.52583 0.0
C141 C 0.1487 0.96278 0.5592 0.0
O142 O 0.19271 0.03501 0.49798 0.0
C143 C 0.16145 0.80725 0.52487 0.0
O144 O 0.22443 0.95724 0.49463 0.0
O145 O 0.20069 0.83152 0.51806 0.0
C146 C 0.21095 0.5635 0.77975 0.0
O147 O 0.23004 0.526 0.76858 0.0
Cd148 Cd 0.26713 0.52773 0.73037 0.0
O149 O 0.20865 0.60733 0.77055 0.0
Cd150 Cd 0.23553 0.64669 0.73313 0.0
C151 C 0.36016 0.6133 0.74484 0.0
O152 O 0.21282 0.57732 0.70618 0.0
O153 O 0.25599 0.63862 0.69127 0.0
O154 O 0.15735 0.69859 0.73792 0.0
C155 C 0.23337 0.59665 0.68827 0.0
O156 O 0.34894 0.56929 0.73705 0.0
C157 C 0.17794 0.73946 0.73115 0.0
O158 O 0.32582 0.64775 0.74731 0.0
O159 O 0.22542 0.7377 0.72609 0.0
C160 C 0.95802 0.11954 0.47319 0.0
O161 O 0.95825 0.07728 0.48356 0.0
Cd162 Cd 0.89797 0.06936 0.51516 0.0
O163 O 0.93668 0.15796 0.48275 0.0
Cd164 Cd 0.9059 0.1794 0.5229 0.0
C165 C 0.79426 0.1446 0.49967 0.0
O166 O 0.92948 0.10997 0.54989 0.0
O167 O 0.86596 0.15865 0.56003 0.0
O168 O 0.98511 0.22541 0.52763 0.0
C169 C 0.89729 0.12363 0.5655 0.0
O170 O 0.81323 0.10021 0.502 0.0
C171 C 0.96492 0.268 0.53281 0.0
O172 O 0.82053 0.18336 0.50551 0.0
O173 O 0.91604 0.27002 0.53313 0.0
C174 C 0.11165 0.43765 0.74083 0.0
O175 O 0.14882 0.42047 0.75293 0.0
Cd176 Cd 0.14017 0.38027 0.79031 0.0
O177 O 0.06589 0.43673 0.74873 0.0
Cd178 Cd 0.01976 0.4093 0.78478 0.0
C179 C 0.05591 0.28787 0.77112 0.0
O180 O 0.08416 0.42863 0.81495 0.0
O181 O 0.02218 0.38029 0.82558 0.0
O182 O 0.97222 0.48959 0.78432 0.0
C183 C 0.06275 0.40392 0.83119 0.0
O184 O 0.09988 0.30053 0.77906 0.0
C185 C 0.92762 0.47045 0.78514 0.0
O186 O 0.01955 0.32054 0.76987 0.0
O187 O 0.92548 0.4222 0.78535 0.0
C188 C 0.72075 0.57457 0.97016 0.0
O189 O 0.74072 0.61324 0.97996 0.0
Cd190 Cd 0.79154 0.61257 0.01481 0.0
O191 O 0.72374 0.53109 0.97964 0.0
Cd192 Cd 0.76134 0.49449 0.01573 0.0
C193 C 0.87696 0.52631 0.99235 0.0
O194 O 0.74649 0.56444 0.04295 0.0
O195 O 0.79911 0.50709 0.05516 0.0
O196 O 0.68278 0.44513 0.02043 0.0
C197 C 0.77394 0.54746 0.0595 0.0
O198 O 0.86907 0.57114 0.00013 0.0
C199 C 0.70504 0.40238 0.02234 0.0
O200 O 0.84338 0.49172 -0.00521 0.0
O201 O 0.75375 0.40216 0.02054 0.0
C202 C 0.58546 0.20928 0.30031 0.0
O203 O 0.5779 0.16891 0.28851 0.0
Cd204 Cd 0.63187 0.14544 0.25605 0.0
O205 O 0.61816 0.24163 0.29346 0.0
Cd206 Cd 0.67173 0.25451 0.25785 0.0
C207 C 0.7546 0.16542 0.27698 0.0
O208 O 0.62611 0.20842 0.22629 0.0
O209 O 0.70493 0.22942 0.21976 0.0
O210 O 0.6225 0.33229 0.25422 0.0
C211 C 0.66306 0.21177 0.21187 0.0
O212 O 0.71969 0.13461 0.27048 0.0
C213 C 0.66033 0.36167 0.25143 0.0
O214 O 0.74723 0.21326 0.27569 0.0
O215 O 0.70488 0.34159 0.25253 0.0
C216 C 0.14646 0.01814 0.2649 0.0
C217 C 0.13073 0.98746 0.28356 0.0
C218 C 0.19494 0.0116 0.2546 0.0
C219 C 0.22896 0.97336 0.26218 0.0
H220 H 0.12228 0.04915 0.259 0.0
H221 H 0.20657 0.03786 0.24112 0.0
S222 S 0.20327 0.8789 0.30849 0.0
N223 N 0.15106 0.91476 0.30789 0.0
N224 N 0.24162 0.90166 0.28817 0.0
C225 C 0.21222 0.94023 0.27974 0.0
C226 C 0.16328 0.94755 0.29055 0.0
C227 C 0.12502 0.68412 0.55437 0.0
C228 C 0.16913 0.65358 0.55171 0.0
C229 C 0.12261 0.73307 0.54505 0.0
C230 C 0.16442 0.75388 0.53291 0.0
H231 H 0.09192 0.67019 0.56375 0.0
H232 H 0.08784 0.75511 0.54784 0.0
S233 S 0.28888 0.68946 0.52084 0.0
N234 N 0.25557 0.64745 0.53566 0.0
N235 N 0.25113 0.73971 0.51839 0.0
C236 C 0.20867 0.72364 0.52991 0.0
C237 C 0.21099 0.67347 0.53923 0.0
C238 C 0.4696 0.63787 0.78703 0.0
C239 C 0.51268 0.62007 0.77446 0.0
C240 C 0.42059 0.6391 0.7767 0.0
C241 C 0.41285 0.62141 0.75365 0.0
H242 H 0.47368 0.65045 0.80507 0.0
H243 H 0.38819 0.65149 0.78721 0.0
S244 S 0.51296 0.57332 0.71292 0.0
N245 N 0.54465 0.58712 0.73728 0.0
N246 N 0.45218 0.58754 0.71823 0.0
C247 C 0.45567 0.60476 0.74071 0.0
C248 C 0.50573 0.60465 0.75101 0.0
C249 C 0.53522 0.94564 0.0579 0.0
C250 C 0.55444 0.99025 0.04789 0.0
C251 C 0.53395 0.89992 0.04514 0.0
C252 C 0.55337 0.89702 0.02223 0.0
H253 H 0.52116 0.94607 0.07576 0.0
H254 H 0.51949 0.86621 0.05356 0.0
S255 S 0.60695 0.00299 0.98796 0.0
N256 N 0.59139 0.02916 0.01344 0.0
N257 N 0.59139 0.94243 0.98981 0.0
C258 C 0.57227 0.94134 0.01193 0.0
C259 C 0.57211 0.98826 0.02468 0.0
C260 C 0.32519 0.58413 0.96185 0.0
C261 C 0.27885 0.60992 0.95713 0.0
C262 C 0.36916 0.61024 0.96925 0.0
C263 C 0.36882 0.66334 0.97233 0.0
H264 H 0.32806 0.5434 0.95935 0.0
H265 H 0.404 0.58848 0.97216 0.0
S266 S 0.25635 0.74869 0.96406 0.0
N267 N 0.23459 0.69162 0.95734 0.0
N268 N 0.31732 0.74062 0.97126 0.0
C269 C 0.32236 0.68956 0.96843 0.0
C270 C 0.27743 0.66291 0.96083 0.0
C271 C 0.58599 0.79337 0.24055 0.0
C272 C 0.5743 0.76708 0.21963 0.0
C273 C 0.55874 0.83737 0.24712 0.0
C274 C 0.51805 0.85603 0.23329 0.0
H275 H 0.61715 0.7806 0.25169 0.0
H276 H 0.56967 0.85698 0.26314 0.0
S277 S 0.47129 0.80109 0.17714 0.0
N278 N 0.51859 0.76303 0.18521 0.0
N279 N 0.46716 0.84502 0.19789 0.0
C280 C 0.50519 0.82963 0.21264 0.0
C281 C 0.53339 0.78538 0.20571 0.0
C282 C 0.36862 0.01378 0.4733 0.0
C283 C 0.37351 0.06421 0.46565 0.0
C284 C 0.32172 0.99504 0.48138 0.0
C285 C 0.27748 0.02589 0.48232 0.0
H286 H 0.40127 0.98811 0.47294 0.0
H287 H 0.32042 0.95599 0.48713 0.0
S288 S 0.26902 0.16068 0.46396 0.0
N289 N 0.32958 0.14469 0.45929 0.0
N290 N 0.2414 0.10959 0.47459 0.0
C291 C 0.28169 0.07654 0.47479 0.0
C292 C 0.32962 0.09565 0.46646 0.0
C293 C 0.08664 0.85015 0.74222 0.0
C294 C 0.08708 0.87582 0.72066 0.0
C295 C 0.11554 0.80547 0.7455 0.0
C296 C 0.14723 0.78601 0.7276 0.0
H297 H 0.06359 0.86449 0.75664 0.0
H298 H 0.11391 0.78661 0.76227 0.0
S299 S 0.16134 0.83725 0.66774 0.0
N300 N 0.12055 0.87643 0.68079 0.0
N301 N 0.17651 0.79432 0.68752 0.0
C302 C 0.14806 0.81101 0.70603 0.0
C303 C 0.11754 0.85543 0.7024 0.0
C304 C 0.78904 0.51068 0.79649 0.0
C305 C 0.7911 0.56414 0.79612 0.0
C306 C 0.83287 0.48072 0.79215 0.0
C307 C 0.88068 0.50285 0.78721 0.0
H308 H 0.75369 0.49163 0.80096 0.0
H309 H 0.82945 0.43988 0.7934 0.0
S310 S 0.90558 0.64091 0.78133 0.0
N311 N 0.84423 0.63774 0.78839 0.0
N312 N 0.92635 0.58162 0.78021 0.0
C313 C 0.88276 0.55618 0.78566 0.0
C314 C 0.83812 0.58671 0.79011 0.0
C315 C 0.67522 0.26283 0.03114 0.0
C316 C 0.62451 0.26341 0.03976 0.0
C317 C 0.70045 0.30775 0.02518 0.0
C318 C 0.67597 0.35527 0.02731 0.0
H319 H 0.69638 0.22745 0.02952 0.0
H320 H 0.73979 0.30513 0.0191 0.0
S321 S 0.5424 0.37799 0.04786 0.0
N322 N 0.55005 0.31584 0.04932 0.0
N323 N 0.59725 0.40015 0.03787 0.0
C324 C 0.62469 0.35645 0.03518 0.0
C325 C 0.59905 0.31062 0.04146 0.0
C326 C 0.85307 0.07219 0.3011 0.0
C327 C 0.89873 0.10048 0.30192 0.0
C328 C 0.8069 0.09365 0.29311 0.0
C329 C 0.80417 0.14451 0.28576 0.0
H330 H 0.85272 0.0331 0.30679 0.0
H331 H 0.77291 0.07011 0.29292 0.0
S332 S 0.913 0.23475 0.28361 0.0
N333 N 0.9385 0.18205 0.29402 0.0
N334 N 0.85164 0.22227 0.2792 0.0
C335 C 0.84954 0.17324 0.28633 0.0
C336 C 0.89678 0.15126 0.2943 0.0
C337 C 0.08421 0.34729 0.54282 0.0
C338 C 0.06522 0.39186 0.55353 0.0
C339 C 0.05124 0.30824 0.53575 0.0
C340 C -0.00226 0.31211 0.53891 0.0
H341 H 0.1251 0.34171 0.54036 0.0
H342 H 0.06815 0.27435 0.52805 0.0
S343 S 0.92783 0.42262 0.56441 0.0
N344 N 0.98895 0.43887 0.5658 0.0
N345 N 0.9269 0.3654 0.55235 0.0
C346 C 0.97789 0.35722 0.54881 0.0
C347 C 0.01162 0.39704 0.55618 0.0
C348 C 0.66619 0.11187 0.47106 0.0
C349 C 0.64187 0.15935 0.46854 0.0
C350 C 0.71497 0.10759 0.48135 0.0
C351 C 0.74173 0.1506 0.48959 0.0
H352 H 0.64776 0.07756 0.46476 0.0
H353 H 0.73201 0.07009 0.48256 0.0
S354 S 0.69415 0.28379 0.48819 0.0
N355 N 0.64768 0.25037 0.47591 0.0
N356 N 0.73923 0.2423 0.4952 0.0
C357 C 0.71749 0.19831 0.48758 0.0
C358 C 0.66769 0.20268 0.4771 0.0
C359 C 0.08991 0.15369 0.75147 0.0
C360 C 0.04664 0.13809 0.73856 0.0
C361 C 0.09132 0.20108 0.76274 0.0
C362 C 0.04963 0.23541 0.76151 0.0
H363 H 0.12374 0.12964 0.75244 0.0
H364 H 0.12634 0.21136 0.7719 0.0
S365 S 0.9251 0.2112 0.73155 0.0
N366 N 0.95933 0.15931 0.72651 0.0
N367 N 0.96213 0.24867 0.74758 0.0
C368 C 0.00502 0.21935 0.74958 0.0
C369 C 0.00349 0.17071 0.73815 0.0
C370 C 0.01227 0.53863 0.96877 0.0
C371 C 0.01304 0.50421 0.94972 0.0
C372 C 0.96845 0.54479 0.98272 0.0
C373 C 0.92389 0.51617 0.97847 0.0
H374 H 0.04573 0.56133 0.97292 0.0
H375 H 0.96953 0.57221 -0.00301 0.0
S376 S 0.90513 0.42172 0.93055 0.0
N377 N 0.96456 0.44179 0.92711 0.0
N378 N 0.88261 0.45286 0.95361 0.0
C379 C 0.92405 0.48144 0.95959 0.0
C380 C 0.96844 0.47568 0.94513 0.0
C381 C 0.67949 0.48843 0.22186 0.0
C382 C 0.63159 0.5129 0.22488 0.0
C383 C 0.68964 0.44078 0.23169 0.0
C384 C 0.65208 0.41536 0.24468 0.0
H385 H 0.70917 0.50568 0.21138 0.0
H386 H 0.72637 0.4228 0.22815 0.0
S387 S 0.5222 0.46463 0.25966 0.0
N388 N 0.54763 0.50945 0.24342 0.0
N389 N 0.56649 0.41975 0.26159 0.0
C390 C 0.60487 0.44027 0.24872 0.0
C391 C 0.5947 0.48905 0.23892 0.0
C392 C 0.03578 0.91711 0.40918 0.0
C393 C 0.98741 0.93991 0.40513 0.0
C394 C 0.0572 0.9153 0.43179 0.0
C395 C 0.03117 0.93639 0.45116 0.0
H396 H 0.05896 0.90368 0.39464 0.0
H397 H 0.09597 0.90077 0.43378 0.0
S398 S 0.89888 0.98935 0.45103 0.0
N399 N 0.91062 0.97586 0.42323 0.0
N400 N 0.95112 0.97247 0.46555 0.0
C401 C 0.98087 0.95453 0.44775 0.0
C402 C 0.95889 0.95617 0.42479 0.0
C403 C 0.23143 0.56411 0.62354 0.0
C404 C 0.25283 0.51502 0.62292 0.0
C405 C 0.22515 0.59042 0.64485 0.0
C406 C 0.23919 0.56797 0.66618 0.0
H407 H 0.21991 0.58244 0.60747 0.0
H408 H 0.20873 0.62832 0.64468 0.0
S409 S 0.30095 0.44203 0.67374 0.0
N410 N 0.29124 0.44639 0.6452 0.0
N411 N 0.27832 0.49533 0.68529 0.0
C412 C 0.26152 0.51934 0.66573 0.0
C413 C 0.26886 0.49304 0.64404 0.0
C414 C 0.63826 0.71421 0.88778 0.0
C415 C 0.60612 0.7318 0.86964 0.0
C416 C 0.62519 0.7214 0.91143 0.0
C417 C 0.58025 0.74789 0.91789 0.0
H418 H 0.67203 0.69183 0.88371 0.0
H419 H 0.64962 0.70462 0.92471 0.0
S420 S 0.48836 0.81013 0.87717 0.0
N421 N 0.53095 0.78243 0.85981 0.0
N422 N 0.50717 0.79764 0.90419 0.0
C423 C 0.55043 0.76992 0.89998 0.0
C424 C 0.56324 0.76162 0.87589 0.0
C425 C 0.4055 0.10476 0.1432 0.0
C426 C 0.44851 0.09123 0.12959 0.0
C427 C 0.4032 0.09199 0.16715 0.0
C428 C 0.44457 0.06688 0.17814 0.0
H429 H 0.37351 0.12478 0.13528 0.0
H430 H 0.36943 0.10244 0.17717 0.0
S431 S 0.56479 0.0222 0.14987 0.0
N432 N 0.53208 0.04996 0.1287 0.0
N433 N 0.52868 0.02788 0.17348 0.0
C434 C 0.48752 0.05345 0.16463 0.0
C435 C 0.48924 0.06517 0.14039 0.0
C436 C 0.14387 0.58038 0.83846 0.0
C437 C 0.173 0.5488 0.8533 0.0
C438 C 0.15598 0.58495 0.81458 0.0
C439 C 0.19692 0.55725 0.80462 0.0
H440 H 0.11148 0.60179 0.8453 0.0
H441 H 0.1329 0.60994 0.8038 0.0
S442 S 0.28749 0.47218 0.83592 0.0
N443 N 0.24718 0.49221 0.85629 0.0
N444 N 0.26794 0.49898 0.81144 0.0
C445 C 0.22644 0.5258 0.81921 0.0
C446 C 0.21506 0.52213 0.84353 0.0
C447 C 0.56893 0.66475 0.09809 0.0
C448 C 0.59237 0.61731 0.10234 0.0
C449 C 0.56439 0.68374 0.0753 0.0
C450 C 0.58341 0.65624 0.05596 0.0
H451 H 0.55626 0.68868 0.11251 0.0
H452 H 0.54807 0.72128 0.07291 0.0
S453 S 0.63733 0.52605 0.05688 0.0
N454 N 0.62729 0.54015 0.08475 0.0
N455 N 0.61955 0.57661 0.04191 0.0
C456 C 0.6037 0.60757 0.05967 0.0
C457 C 0.60784 0.58787 0.08286 0.0
C458 C 0.40817 0.07909 0.35231 0.0
C459 C 0.44184 0.05312 0.36743 0.0
C460 C 0.40391 0.06535 0.32866 0.0
C461 C 0.4317 0.02396 0.31954 0.0
H462 H 0.3859 0.11124 0.35863 0.0
H463 H 0.37803 0.08674 0.31753 0.0
S464 S 0.52358 0.94236 0.35192 0.0
N465 N 0.50346 0.98422 0.37166 0.0
N466 N 0.4932 0.95634 0.32731 0.0
C467 C 0.46458 0.99681 0.33453 0.0
C468 C 0.47025 0.01194 0.35848 0.0
C469 C 0.09456 0.0267 0.61352 0.0
C470 C 0.12771 0.00995 0.63149 0.0
C471 C 0.1025 0.01237 0.59012 0.0
C472 C 0.14441 0.98153 0.58365 0.0
H473 H 0.06048 0.04886 0.61759 0.0
H474 H 0.0748 0.02458 0.57709 0.0
S475 S 0.24586 0.93225 0.62343 0.0
N476 N 0.20646 0.96415 0.64085 0.0
N477 N 0.22188 0.93795 0.59674 0.0
C478 C 0.17977 0.96722 0.60114 0.0
C479 C 0.17133 0.98131 0.62508 0.0
C480 C 0.72349 0.61104 0.90669 0.0
C481 C 0.68663 0.57932 0.89608 0.0
C482 C 0.73157 0.61114 0.93083 0.0
C483 C 0.70435 0.57834 0.94545 0.0
H484 H 0.74647 0.63648 0.89628 0.0
H485 H 0.76114 0.63574 0.93791 0.0
S486 S 0.60275 0.48836 0.92679 0.0
N487 N 0.62095 0.51557 0.9022 0.0
N488 N 0.63822 0.51382 0.94788 0.0
C489 C 0.66701 0.54654 0.93527 0.0
C490 C 0.65762 0.54752 0.91054 0.0
C491 C 0.60506 0.15918 0.15573 0.0
C492 C 0.6373 0.17863 0.13828 0.0
C493 C 0.61446 0.16891 0.17953 0.0
C494 C 0.65673 0.19822 0.18677 0.0
H495 H 0.5706 0.13878 0.15094 0.0
H496 H 0.58764 0.1544 0.19227 0.0
S497 S 0.75449 0.25526 0.14784 0.0
N498 N 0.71409 0.22668 0.12972 0.0
N499 N 0.73268 0.24454 0.17448 0.0
C500 C 0.69052 0.21616 0.16949 0.0
C501 C 0.68048 0.20663 0.14523 0.0
C502 C 0.95179 0.13927 0.40791 0.0
C503 C 0.99365 0.11026 0.39955 0.0
C504 C 0.9427 0.14516 0.43197 0.0
C505 C 0.97485 0.12189 0.44855 0.0
H506 H 0.92407 0.15522 0.3958 0.0
H507 H 0.90831 0.16521 0.43754 0.0
S508 S 0.09566 0.0517 0.43628 0.0
N509 N 0.07213 0.06488 0.4101 0.0
N510 N 0.05449 0.07604 0.45535 0.0
C511 C 0.01919 0.09663 0.44061 0.0
C512 C 0.02886 0.09098 0.41609 0.0
C513 C 0.16208 0.43094 0.67879 0.0
C514 C 0.13305 0.46795 0.66695 0.0
C515 C 0.15671 0.42354 0.70291 0.0
C516 C 0.12077 0.45164 0.71611 0.0
H517 H 0.18909 0.40709 0.66932 0.0
H518 H 0.17944 0.39395 0.71107 0.0
S519 S 0.03623 0.55428 0.69386 0.0
N520 N 0.06863 0.53481 0.67055 0.0
N521 N 0.0567 0.51905 0.71584 0.0
C522 C 0.09184 0.48925 0.70466 0.0
C523 C 0.09844 0.49788 0.68011 0.0
C524 C 0.48058 0.20094 0.34596 0.0
C525 C 0.50421 0.22061 0.36634 0.0
C526 C 0.50666 0.1988 0.32453 0.0
C527 C 0.55679 0.21771 0.3224 0.0
H528 H 0.44278 0.18417 0.34677 0.0
H529 H 0.48781 0.18099 0.30963 0.0
S530 S 0.63323 0.27957 0.36955 0.0
N531 N 0.57906 0.26354 0.38247 0.0
N532 N 0.62736 0.26124 0.3419 0.0
C533 C 0.5794 0.24114 0.34212 0.0
C534 C 0.55327 0.24224 0.36414 0.0
C535 C 0.9349 0.04043 0.61684 0.0
C536 C 0.9133 0.06633 0.63617 0.0
C537 C 0.92809 0.05827 0.59394 0.0
C538 C 0.89878 0.10221 0.58947 0.0
H539 H 0.96006 0.00806 0.61947 0.0
H540 H 0.94738 0.03837 0.57975 0.0
S541 S 0.82889 0.17998 0.63387 0.0
N542 N 0.85802 0.13543 0.64924 0.0
N543 N 0.84406 0.16844 0.60623 0.0
C544 C 0.87408 0.12638 0.60852 0.0
C545 C 0.88165 0.10858 0.63185 0.0
C546 C 0.16398 0.40502 0.87943 0.0
C547 C 0.13839 0.38356 0.89846 0.0
C548 C 0.13899 0.41215 0.85785 0.0
C549 C 0.08762 0.39721 0.85446 0.0
H550 H 0.20403 0.41545 0.88116 0.0
H551 H 0.16039 0.42831 0.84362 0.0
S552 S 0.0054 0.3343 0.89851 0.0
N553 N 0.06039 0.34406 0.91233 0.0
N554 N 0.01291 0.35727 0.87192 0.0
C555 C 0.06213 0.37412 0.87328 0.0
C556 C 0.08772 0.36693 0.8952 0.0
C557 C 0.78768 0.56469 0.12526 0.0
C558 C 0.76112 0.61056 0.12963 0.0
C559 C 0.79413 0.54582 0.10239 0.0
C560 C 0.7742 0.572 0.08299 0.0
H561 H 0.80092 0.5415 0.13966 0.0
H562 H 0.81243 0.50909 0.10006 0.0
S563 S 0.71036 0.69838 0.08436 0.0
N564 N 0.7215 0.68532 0.11216 0.0
N565 N 0.73327 0.64953 0.0693 0.0
C566 C 0.75159 0.61997 0.08689 0.0
C567 C 0.74535 0.63944 0.11017 0.0
loop_
_geom_bond_atom_site_label_1
_geom_bond_atom_site_label_2
_geom_bond_distance
_geom_bond_site_symmetry_2
_ccdc_geom_bond_type
Mg0 O7 2.141 . S
Mg0 O8 2.048 1_545 S
Mg0 O9 2.048 1_455 S
Mg0 O12 2.141 1_455 S
C1 O2 1.313 . S
C1 O8 1.195 . S
O2 C1 1.313 . S
C3 O4 1.245 . S
C3 O12 1.289 . S
O4 C3 1.245 . S
C5 O6 1.245 . S
C5 O7 1.289 1_565 S
O6 C5 1.245 . S
O7 Mg0 2.141 . S
O7 C5 1.289 1_545 S
O8 Mg0 2.048 1_565 S
O8 C1 1.195 . S
O9 Mg0 2.048 1_655 S
O9 C10 1.195 . S
C10 O9 1.195 . S
C10 O11 1.313 1_545 S
O11 C10 1.313 1_565 S
O12 Mg0 2.141 1_655 S
O12 C3 1.289 . S
Mg13 O20 2.141 . S
Mg13 O21 2.048 . S
Mg13 O22 2.048 . S
Mg13 O25 2.141 . S
C14 O15 1.313 . S
C14 O21 1.195 . S
O15 C14 1.313 . S
C16 O17 1.245 . S
C16 O25 1.289 . S
O17 C16 1.245 . S
C18 O19 1.245 . S
C18 O20 1.289 . S
O19 C18 1.245 . S
O20 Mg13 2.141 . S
O20 C18 1.289 . S
O21 Mg13 2.048 . S
O21 C14 1.195 . S
O22 Mg13 2.048 . S
O22 C23 1.195 . S
C23 O22 1.195 . S
C23 O24 1.313 . S
O24 C23 1.313 . S
O25 Mg13 2.141 . S
O25 C16 1.289 . S
Mg26 O33 2.141 . S
Mg26 O34 2.048 . S
Mg26 O35 2.048 . S
Mg26 O38 2.141 . S
C27 O28 1.313 . S
C27 O34 1.195 . S
O28 C27 1.313 . S
C29 O30 1.245 . S
C29 O38 1.289 . S
O30 C29 1.245 . S
C31 O32 1.245 . S
C31 O33 1.289 . S
O32 C31 1.245 . S
O33 Mg26 2.141 . S
O33 C31 1.289 . S
O34 Mg26 2.048 . S
O34 C27 1.195 . S
O35 Mg26 2.048 . S
O35 C36 1.195 . S
C36 O35 1.195 . S
C36 O37 1.313 . S
O37 C36 1.313 . S
O38 Mg26 2.141 . S
O38 C29 1.289 . S
Mg39 O46 2.141 . S
Mg39 O47 2.048 . S
Mg39 O48 2.048 . S
Mg39 O51 2.141 . S
C40 O41 1.313 . S
C40 O47 1.195 . S
O41 C40 1.313 . S
C42 O43 1.245 . S
C42 O51 1.289 . S
O43 C42 1.245 . S
C44 O45 1.245 . S
C44 O46 1.289 . S
O45 C44 1.245 . S
O46 Mg39 2.141 . S
O46 C44 1.289 . S
O47 Mg39 2.048 . S
O47 C40 1.195 . S
O48 Mg39 2.048 . S
O48 C49 1.195 . S
C49 O48 1.195 . S
C49 O50 1.313 . S
O50 C49 1.313 . S
O51 Mg39 2.141 . S
O51 C42 1.289 . S
Mg52 O59 2.141 . S
Mg52 O60 2.048 . S
Mg52 O61 2.048 . S
Mg52 O64 2.141 . S
C53 O54 1.313 . S
C53 O60 1.195 . S
O54 C53 1.313 . S
C55 O56 1.245 . S
C55 O64 1.289 . S
O56 C55 1.245 . S
C57 O58 1.245 . S
C57 O59 1.289 . S
O58 C57 1.245 . S
O59 Mg52 2.141 . S
O59 C57 1.289 . S
O60 Mg52 2.048 . S
O60 C53 1.195 . S
O61 Mg52 2.048 . S
O61 C62 1.195 . S
C62 O61 1.195 . S
C62 O63 1.313 . S
O63 C62 1.313 . S
O64 Mg52 2.141 . S
O64 C55 1.289 . S
Mg65 O72 2.141 . S
Mg65 O73 2.048 . S
Mg65 O74 2.048 . S
Mg65 O77 2.141 . S
C66 O67 1.313 . S
C66 O73 1.195 . S
O67 C66 1.313 . S
C68 O69 1.245 . S
C68 O77 1.289 . S
O69 C68 1.245 . S
C70 O71 1.245 . S
C70 O72 1.289 . S
O71 C70 1.245 . S
O72 Mg65 2.141 . S
O72 C70 1.289 . S
O73 Mg65 2.048 . S
O73 C66 1.195 . S
O74 Mg65 2.048 . S
O74 C75 1.195 . S
C75 O74 1.195 . S
C75 O76 1.313 . S
O76 C75 1.313 . S
O77 Mg65 2.141 . S
O77 C68 1.289 . S
Mg78 O85 2.141 . S
Mg78 O86 2.048 . S
Mg78 O87 2.048 . S
Mg78 O90 2.141 . S
C79 O80 1.313 . S
C79 O86 1.195 . S
O80 C79 1.313 . S
C81 O82 1.245 . S
C81 O90 1.289 . S
O82 C81 1.245 . S
C83 O84 1.245 . S
C83 O85 1.289 . S
O84 C83 1.245 . S
O85 Mg78 2.141 . S
O85 C83 1.289 . S
O86 Mg78 2.048 . S
O86 C79 1.195 . S
O87 Mg78 2.048 . S
O87 C88 1.195 . S
C88 O87 1.195 . S
C88 O89 1.313 . S
O89 C88 1.313 . S
O90 Mg78 2.141 . S
O90 C81 1.289 . S
Mg91 O98 2.141 1_655 S
Mg91 O99 2.048 1_655 S
Mg91 O100 2.048 1_565 S
Mg91 O103 2.141 1_565 S
C92 O93 1.313 . S
C92 O99 1.195 . S
O93 C92 1.313 . S
C94 O95 1.245 1_655 S
C94 O103 1.289 . S
O95 C94 1.245 1_455 S
C96 O97 1.245 . S
C96 O98 1.289 . S
O97 C96 1.245 . S
O98 Mg91 2.141 1_455 S
O98 C96 1.289 . S
O99 Mg91 2.048 1_455 S
O99 C92 1.195 . S
O100 Mg91 2.048 1_545 S
O100 C101 1.195 . S
C101 O100 1.195 . S
C101 O102 1.313 1_655 S
O102 C101 1.313 1_455 S
O103 Mg91 2.141 1_545 S
O103 C94 1.289 . S
C104 O105 1.306 . S
C104 O107 1.160 . S
O105 C104 1.306 . S
O105 Cd106 2.228 . S
Cd106 O105 2.228 . S
Cd106 O110 2.273 1_554 S
Cd106 O114 2.277 . S
O107 C104 1.160 . S
O107 Cd108 2.203 . S
Cd108 O107 2.203 . S
Cd108 O110 2.411 1_554 S
Cd108 O111 2.333 1_554 S
Cd108 O112 2.352 1_554 S
Cd108 O116 2.277 . S
Cd108 O117 2.356 1_554 S
C109 O114 1.209 . S
C109 O116 1.226 . S
O110 Cd106 2.273 1_556 S
O110 Cd108 2.411 1_556 S
O110 C113 1.320 . S
O111 Cd108 2.333 1_556 S
O111 C113 1.214 . S
O112 Cd108 2.352 1_556 S
O112 C115 1.258 . S
C113 O110 1.320 . S
C113 O111 1.214 . S
O114 Cd106 2.277 . S
O114 C109 1.209 . S
C115 O112 1.258 . S
C115 O117 1.282 . S
O116 Cd108 2.277 . S
O116 C109 1.226 . S
O117 Cd108 2.356 1_556 S
O117 C115 1.282 . S
C118 O119 1.306 . S
C118 O121 1.160 . S
O119 C118 1.306 . S
O119 Cd120 2.228 . S
Cd120 O119 2.228 . S
Cd120 O124 2.273 . S
Cd120 O128 2.277 . S
O121 C118 1.160 . S
O121 Cd122 2.203 . S
Cd122 O121 2.203 . S
Cd122 O124 2.411 . S
Cd122 O125 2.333 . S
Cd122 O126 2.352 . S
Cd122 O130 2.277 . S
Cd122 O131 2.356 . S
C123 O128 1.209 . S
C123 O130 1.226 . S
O124 Cd120 2.273 . S
O124 Cd122 2.411 . S
O124 C127 1.320 . S
O125 Cd122 2.333 . S
O125 C127 1.214 . S
O126 Cd122 2.352 . S
O126 C129 1.258 . S
C127 O124 1.320 . S
C127 O125 1.214 . S
O128 Cd120 2.277 . S
O128 C123 1.209 . S
C129 O126 1.258 . S
C129 O131 1.282 . S
O130 Cd122 2.277 . S
O130 C123 1.226 . S
O131 Cd122 2.356 . S
O131 C129 1.282 . S
C132 O133 1.306 . S
C132 O135 1.160 . S
O133 C132 1.306 . S
O133 Cd134 2.228 . S
Cd134 O133 2.228 . S
Cd134 O138 2.273 . S
Cd134 O142 2.277 . S
O135 C132 1.160 . S
O135 Cd136 2.203 . S
Cd136 O135 2.203 . S
Cd136 O138 2.411 . S
Cd136 O139 2.333 . S
Cd136 O140 2.352 . S
Cd136 O144 2.277 . S
Cd136 O145 2.356 . S
C137 O142 1.209 . S
C137 O144 1.226 . S
O138 Cd134 2.273 . S
O138 Cd136 2.411 . S
O138 C141 1.320 . S
O139 Cd136 2.333 . S
O139 C141 1.214 . S
O140 Cd136 2.352 . S
O140 C143 1.258 . S
C141 O138 1.320 . S
C141 O139 1.214 . S
O142 Cd134 2.277 . S
O142 C137 1.209 . S
C143 O140 1.258 . S
C143 O145 1.282 . S
O144 Cd136 2.277 . S
O144 C137 1.226 . S
O145 Cd136 2.356 . S
O145 C143 1.282 . S
C146 O147 1.306 . S
C146 O149 1.160 . S
O147 C146 1.306 . S
O147 Cd148 2.228 . S
Cd148 O147 2.228 . S
Cd148 O152 2.273 . S
Cd148 O156 2.277 . S
O149 C146 1.160 . S
O149 Cd150 2.203 . S
Cd150 O149 2.203 . S
Cd150 O152 2.411 . S
Cd150 O153 2.333 . S
Cd150 O154 2.352 . S
Cd150 O158 2.277 . S
Cd150 O159 2.356 . S
C151 O156 1.209 . S
C151 O158 1.226 . S
O152 Cd148 2.273 . S
O152 Cd150 2.411 . S
O152 C155 1.320 . S
O153 Cd150 2.333 . S
O153 C155 1.214 . S
O154 Cd150 2.352 . S
O154 C157 1.258 . S
C155 O152 1.320 . S
C155 O153 1.214 . S
O156 Cd148 2.277 . S
O156 C151 1.209 . S
C157 O154 1.258 . S
C157 O159 1.282 . S
O158 Cd150 2.277 . S
O158 C151 1.226 . S
O159 Cd150 2.356 . S
O159 C157 1.282 . S
C160 O161 1.306 . S
C160 O163 1.160 . S
O161 C160 1.306 . S
O161 Cd162 2.228 . S
Cd162 O161 2.228 . S
Cd162 O166 2.273 . S
Cd162 O170 2.277 . S
O163 C160 1.160 . S
O163 Cd164 2.203 . S
Cd164 O163 2.203 . S
Cd164 O166 2.411 . S
Cd164 O167 2.333 . S
Cd164 O168 2.352 . S
Cd164 O172 2.277 . S
Cd164 O173 2.356 . S
C165 O170 1.209 . S
C165 O172 1.226 . S
O166 Cd162 2.273 . S
O166 Cd164 2.411 . S
O166 C169 1.320 . S
O167 Cd164 2.333 . S
O167 C169 1.214 . S
O168 Cd164 2.352 . S
O168 C171 1.258 . S
C169 O166 1.320 . S
C169 O167 1.214 . S
O170 Cd162 2.277 . S
O170 C165 1.209 . S
C171 O168 1.258 . S
C171 O173 1.282 . S
O172 Cd164 2.277 . S
O172 C165 1.226 . S
O173 Cd164 2.356 . S
O173 C171 1.282 . S
C174 O175 1.306 1_655 S
C174 O177 1.160 . S
O175 C174 1.306 1_455 S
O175 Cd176 2.228 . S
Cd176 O175 2.228 . S
Cd176 O180 2.273 . S
Cd176 O184 2.279 . S
O177 C174 1.160 . S
O177 Cd178 2.203 . S
Cd178 O177 2.203 . S
Cd178 O180 2.411 1_655 S
Cd178 O181 2.333 . S
Cd178 O182 2.352 . S
Cd178 O186 2.277 . S
Cd178 O187 2.356 . S
C179 O184 1.206 1_655 S
C179 O186 1.226 . S
O180 Cd176 2.273 . S
O180 Cd178 2.411 1_455 S
O180 C183 1.320 1_455 S
O181 Cd178 2.333 . S
O181 C183 1.214 . S
O182 Cd178 2.352 . S
O182 C185 1.258 . S
C183 O180 1.320 1_655 S
C183 O181 1.214 . S
O184 Cd176 2.279 . S
O184 C179 1.206 1_455 S
C185 O182 1.258 . S
C185 O187 1.282 . S
O186 Cd178 2.277 . S
O186 C179 1.226 . S
O187 Cd178 2.356 . S
O187 C185 1.282 . S
C188 O189 1.306 . S
C188 O191 1.160 . S
O189 C188 1.306 . S
O189 Cd190 2.228 1_556 S
Cd190 O189 2.228 1_554 S
Cd190 O194 2.273 . S
Cd190 O198 2.277 . S
O191 C188 1.160 . S
O191 Cd192 2.203 1_556 S
Cd192 O191 2.203 1_554 S
Cd192 O194 2.411 . S
Cd192 O195 2.333 . S
Cd192 O196 2.352 . S
Cd192 O200 2.277 . S
Cd192 O201 2.356 . S
C193 O198 1.209 . S
C193 O200 1.226 . S
O194 Cd190 2.273 . S
O194 Cd192 2.411 . S
O194 C197 1.320 . S
O195 Cd192 2.333 . S
O195 C197 1.214 . S
O196 Cd192 2.352 . S
O196 C199 1.258 . S
C197 O194 1.320 . S
C197 O195 1.214 . S
O198 Cd190 2.277 . S
O198 C193 1.209 . S
C199 O196 1.258 . S
C199 O201 1.282 . S
O200 Cd192 2.277 . S
O200 C193 1.226 . S
O201 Cd192 2.356 . S
O201 C199 1.282 . S
C202 O203 1.306 . S
C202 O205 1.160 . S
O203 C202 1.306 . S
O203 Cd204 2.228 . S
Cd204 O203 2.228 . S
Cd204 O208 2.273 . S
Cd204 O212 2.277 . S
O205 C202 1.160 . S
O205 Cd206 2.203 . S
Cd206 O205 2.203 . S
Cd206 O208 2.411 . S
Cd206 O209 2.333 . S
Cd206 O210 2.352 . S
Cd206 O214 2.277 . S
Cd206 O215 2.356 . S
C207 O212 1.209 . S
C207 O214 1.226 . S
O208 Cd204 2.273 . S
O208 Cd206 2.411 . S
O208 C211 1.320 . S
O209 Cd206 2.333 . S
O209 C211 1.214 . S
O210 Cd206 2.352 . S
O210 C213 1.258 . S
C211 O208 1.320 . S
C211 O209 1.214 . S
O212 Cd204 2.277 . S
O212 C207 1.209 . S
C213 O210 1.258 . S
C213 O215 1.282 . S
O214 Cd206 2.277 . S
O214 C207 1.226 . S
O215 Cd206 2.356 . S
O215 C213 1.282 . S
C216 C217 1.369 . S
C216 C218 1.419 . S
C216 H220 0.930 . S
C217 C216 1.369 . S
C217 C226 1.429 . S
C218 C216 1.419 . S
C218 C219 1.363 . S
C218 H221 0.929 . S
C219 C218 1.363 . S
C219 C225 1.428 . S
H220 C216 0.930 . S
H221 C218 0.929 . S
S222 N223 1.613 . S
S222 N224 1.610 . S
N223 S222 1.613 . S
N223 C226 1.350 . S
N224 S222 1.610 . S
N224 C225 1.351 . S
C225 C219 1.428 . S
C225 N224 1.351 . S
C225 C226 1.434 . S
C226 C217 1.429 . S
C226 N223 1.350 . S
C226 C225 1.434 . S
C227 C228 1.369 . S
C227 C229 1.419 . S
C227 H231 0.930 . S
C228 C227 1.369 . S
C228 C237 1.429 . S
C229 C227 1.419 . S
C229 C230 1.363 . S
C229 H232 0.929 . S
C230 C229 1.363 . S
C230 C236 1.428 . S
H231 C227 0.930 . S
H232 C229 0.929 . S
S233 N234 1.613 . S
S233 N235 1.610 . S
N234 S233 1.613 . S
N234 C237 1.350 . S
N235 S233 1.610 . S
N235 C236 1.351 . S
C236 C230 1.428 . S
C236 N235 1.351 . S
C236 C237 1.434 . S
C237 C228 1.429 . S
C237 N234 1.350 . S
C237 C236 1.434 . S
C238 C239 1.369 . S
C238 C240 1.419 . S
C238 H242 0.930 . S
C239 C238 1.369 . S
C239 C248 1.429 . S
C240 C238 1.419 . S
C240 C241 1.363 . S
C240 H243 0.929 . S
C241 C240 1.363 . S
C241 C247 1.428 . S
H242 C238 0.930 . S
H243 C240 0.929 . S
S244 N245 1.613 . S
S244 N246 1.610 . S
N245 S244 1.613 . S
N245 C248 1.350 . S
N246 S244 1.610 . S
N246 C247 1.351 . S
C247 C241 1.428 . S
C247 N246 1.351 . S
C247 C248 1.434 . S
C248 C239 1.429 . S
C248 N245 1.350 . S
C248 C247 1.434 . S
C249 C250 1.380 . S
C249 C251 1.407 1_545 S
C249 H253 0.931 . S
C250 C249 1.380 . S
C250 C259 1.429 . S
C251 C249 1.407 1_565 S
C251 C252 1.363 . S
C251 H254 0.929 . S
C252 C251 1.363 . S
C252 C258 1.428 . S
H253 C249 0.931 . S
H254 C251 0.929 . S
S255 N256 1.613 1_556 S
S255 N257 1.610 1_545 S
N256 S255 1.613 1_554 S
N256 C259 1.350 . S
N257 S255 1.610 1_565 S
N257 C258 1.351 1_556 S
C258 C252 1.428 . S
C258 N257 1.351 1_554 S
C258 C259 1.434 1_565 S
C259 C250 1.429 . S
C259 N256 1.350 . S
C259 C258 1.434 1_545 S
C260 C261 1.369 . S
C260 C262 1.419 . S
C260 H264 0.930 . S
C261 C260 1.369 . S
C261 C270 1.429 . S
C262 C260 1.419 . S
C262 C263 1.363 . S
C262 H265 0.929 1_556 S
C263 C262 1.363 . S
C263 C269 1.428 . S
H264 C260 0.930 . S
H265 C262 0.929 1_554 S
S266 N267 1.613 . S
S266 N268 1.610 . S
N267 S266 1.613 . S
N267 C270 1.350 . S
N268 S266 1.610 . S
N268 C269 1.351 . S
C269 C263 1.428 . S
C269 N268 1.351 . S
C269 C270 1.434 . S
C270 C261 1.429 . S
C270 N267 1.350 . S
C270 C269 1.434 . S
C271 C272 1.369 . S
C271 C273 1.419 . S
C271 H275 0.930 . S
C272 C271 1.369 . S
C272 C281 1.429 . S
C273 C271 1.419 . S
C273 C274 1.363 . S
C273 H276 0.929 . S
C274 C273 1.363 . S
C274 C280 1.428 . S
H275 C271 0.930 . S
H276 C273 0.929 . S
S277 N278 1.613 . S
S277 N279 1.610 . S
N278 S277 1.613 . S
N278 C281 1.350 . S
N279 S277 1.610 . S
N279 C280 1.351 . S
C280 C274 1.428 . S
C280 N279 1.351 . S
C280 C281 1.434 . S
C281 C272 1.429 . S
C281 N278 1.350 . S
C281 C280 1.434 . S
C282 C283 1.369 . S
C282 C284 1.419 1_545 S
C282 H286 0.930 . S
C283 C282 1.369 . S
C283 C292 1.429 . S
C284 C282 1.419 1_565 S
C284 C285 1.363 . S
C284 H287 0.929 . S
C285 C284 1.363 . S
C285 C291 1.428 . S
H286 C282 0.930 . S
H287 C284 0.929 . S
S288 N289 1.613 . S
S288 N290 1.611 . S
N289 S288 1.613 . S
N289 C292 1.350 . S
N290 S288 1.611 . S
N290 C291 1.351 1_545 S
C291 C285 1.428 . S
C291 N290 1.351 1_565 S
C291 C292 1.434 1_565 S
C292 C283 1.429 . S
C292 N289 1.350 . S
C292 C291 1.434 1_545 S
C293 C294 1.369 . S
C293 C295 1.419 . S
C293 H297 0.930 . S
C294 C293 1.369 . S
C294 C303 1.429 . S
C295 C293 1.419 . S
C295 C296 1.363 . S
C295 H298 0.929 . S
C296 C295 1.363 . S
C296 C302 1.428 . S
H297 C293 0.930 . S
H298 C295 0.929 . S
S299 N300 1.613 . S
S299 N301 1.610 . S
N300 S299 1.613 . S
N300 C303 1.350 . S
N301 S299 1.610 . S
N301 C302 1.351 . S
C302 C296 1.428 . S
C302 N301 1.351 . S
C302 C303 1.434 . S
C303 C294 1.429 . S
C303 N300 1.350 . S
C303 C302 1.434 . S
C304 C305 1.369 . S
C304 C306 1.419 . S
C304 H308 0.930 . S
C305 C304 1.369 . S
C305 C314 1.429 . S
C306 C304 1.419 . S
C306 C307 1.363 . S
C306 H309 0.929 . S
C307 C306 1.363 . S
C307 C313 1.428 . S
H308 C304 0.930 . S
H309 C306 0.929 . S
S310 N311 1.613 . S
S310 N312 1.610 . S
N311 S310 1.613 . S
N311 C314 1.350 . S
N312 S310 1.610 . S
N312 C313 1.351 . S
C313 C307 1.428 . S
C313 N312 1.351 . S
C313 C314 1.434 . S
C314 C305 1.429 . S
C314 N311 1.350 . S
C314 C313 1.434 . S
C315 C316 1.369 . S
C315 C317 1.419 . S
C315 H319 0.930 . S
C316 C315 1.369 . S
C316 C325 1.429 . S
C317 C315 1.419 . S
C317 C318 1.363 . S
C317 H320 0.929 . S
C318 C317 1.363 . S
C318 C324 1.428 . S
H319 C315 0.930 . S
H320 C317 0.929 . S
S321 N322 1.613 . S
S321 N323 1.610 . S
N322 S321 1.613 . S
N322 C325 1.350 . S
N323 S321 1.610 . S
N323 C324 1.351 . S
C324 C318 1.428 . S
C324 N323 1.351 . S
C324 C325 1.434 . S
C325 C316 1.429 . S
C325 N322 1.350 . S
C325 C324 1.434 . S
C326 C327 1.369 . S
C326 C328 1.419 . S
C326 H330 0.930 . S
C327 C326 1.369 . S
C327 C336 1.429 . S
C328 C326 1.419 . S
C328 C329 1.363 . S
C328 H331 0.929 . S
C329 C328 1.363 . S
C329 C335 1.428 . S
H330 C326 0.930 . S
H331 C328 0.929 . S
S332 N333 1.613 . S
S332 N334 1.610 . S
N333 S332 1.613 . S
N333 C336 1.350 . S
N334 S332 1.610 . S
N334 C335 1.351 . S
C335 C329 1.428 . S
C335 N334 1.351 . S
C335 C336 1.434 . S
C336 C327 1.429 . S
C336 N333 1.350 . S
C336 C335 1.434 . S
C337 C338 1.369 . S
C337 C339 1.419 . S
C337 H341 0.930 . S
C338 C337 1.369 . S
C338 C347 1.429 . S
C339 C337 1.419 . S
C339 C340 1.363 1_455 S
C339 H342 0.929 . S
C340 C339 1.363 1_655 S
C340 C346 1.428 . S
H341 C337 0.930 . S
H342 C339 0.929 . S
S343 N344 1.613 1_655 S
S343 N345 1.610 . S
N344 S343 1.613 1_455 S
N344 C347 1.350 . S
N345 S343 1.610 . S
N345 C346 1.351 . S
C346 C340 1.428 . S
C346 N345 1.351 . S
C346 C347 1.434 1_655 S
C347 C338 1.429 . S
C347 N344 1.350 . S
C347 C346 1.434 1_455 S
C348 C349 1.369 . S
C348 C350 1.419 . S
C348 H352 0.930 . S
C349 C348 1.369 . S
C349 C358 1.429 . S
C350 C348 1.419 . S
C350 C351 1.363 . S
C350 H353 0.929 . S
C351 C350 1.363 . S
C351 C357 1.428 . S
H352 C348 0.930 . S
H353 C350 0.929 . S
S354 N355 1.613 . S
S354 N356 1.610 . S
N355 S354 1.613 . S
N355 C358 1.350 . S
N356 S354 1.610 . S
N356 C357 1.351 . S
C357 C351 1.428 . S
C357 N356 1.351 . S
C357 C358 1.434 . S
C358 C349 1.429 . S
C358 N355 1.350 . S
C358 C357 1.434 . S
C359 C360 1.369 1_455 S
C359 C361 1.419 . S
C359 H363 0.930 . S
C360 C359 1.369 1_655 S
C360 C369 1.429 . S
C361 C359 1.419 . S
C361 C362 1.363 1_455 S
C361 H364 0.929 . S
C362 C361 1.363 1_655 S
C362 C368 1.428 . S
H363 C359 0.930 . S
H364 C361 0.929 . S
S365 N366 1.613 . S
S365 N367 1.610 . S
N366 S365 1.613 . S
N366 C369 1.350 . S
N367 S365 1.610 . S
N367 C368 1.351 . S
C368 C362 1.428 . S
C368 N367 1.351 . S
C368 C369 1.434 . S
C369 C360 1.429 . S
C369 N366 1.350 . S
C369 C368 1.434 . S
C370 C371 1.369 . S
C370 C372 1.419 1_556 S
C370 H374 0.935 . S
C371 C370 1.369 . S
C371 C380 1.429 . S
C372 C370 1.419 1_554 S
C372 C373 1.370 1_455 S
C372 H375 0.929 . S
C373 C372 1.370 1_655 S
C373 C379 1.407 1_554 S
H374 C370 0.935 . S
H375 C372 0.929 . S
S376 N377 1.613 1_655 S
S376 N378 1.610 . S
N377 S376 1.613 1_455 S
N377 C380 1.350 . S
N378 S376 1.610 . S
N378 C379 1.351 . S
C379 C373 1.407 1_556 S
C379 N378 1.351 . S
C379 C380 1.434 1_655 S
C380 C371 1.429 . S
C380 N377 1.350 . S
C380 C379 1.434 1_455 S
C381 C382 1.369 . S
C381 C383 1.419 . S
C381 H385 0.930 . S
C382 C381 1.369 . S
C382 C391 1.429 . S
C383 C381 1.419 . S
C383 C384 1.363 . S
C383 H386 0.929 . S
C384 C383 1.363 . S
C384 C390 1.428 . S
H385 C381 0.930 . S
H386 C383 0.929 . S
S387 N388 1.613 . S
S387 N389 1.610 . S
N388 S387 1.613 . S
N388 C391 1.350 . S
N389 S387 1.610 . S
N389 C390 1.351 . S
C390 C384 1.428 . S
C390 N389 1.351 . S
C390 C391 1.434 . S
C391 C382 1.429 . S
C391 N388 1.350 . S
C391 C390 1.434 . S
C392 C393 1.369 . S
C392 C394 1.419 . S
C392 H396 0.930 . S
C393 C392 1.369 . S
C393 C402 1.429 . S
C394 C392 1.419 . S
C394 C395 1.363 . S
C394 H397 0.929 . S
C395 C394 1.363 . S
C395 C401 1.428 . S
H396 C392 0.930 . S
H397 C394 0.929 . S
S398 N399 1.613 . S
S398 N400 1.610 . S
N399 S398 1.613 . S
N399 C402 1.350 . S
N400 S398 1.610 . S
N400 C401 1.351 . S
C401 C395 1.428 . S
C401 N400 1.351 . S
C401 C402 1.434 . S
C402 C393 1.429 . S
C402 N399 1.350 . S
C402 C401 1.434 . S
C403 C404 1.369 . S
C403 C405 1.419 . S
C403 H407 0.930 . S
C404 C403 1.369 . S
C404 C413 1.429 . S
C405 C403 1.419 . S
C405 C406 1.363 . S
C405 H408 0.929 . S
C406 C405 1.363 . S
C406 C412 1.428 . S
H407 C403 0.930 . S
H408 C405 0.929 . S
S409 N410 1.613 . S
S409 N411 1.610 . S
N410 S409 1.613 . S
N410 C413 1.350 . S
N411 S409 1.610 . S
N411 C412 1.351 . S
C412 C406 1.428 . S
C412 N411 1.351 . S
C412 C413 1.434 . S
C413 C404 1.429 . S
C413 N410 1.350 . S
C413 C412 1.434 . S
C414 C415 1.369 . S
C414 C416 1.419 . S
C414 H418 0.930 . S
C415 C414 1.369 . S
C415 C424 1.429 . S
C416 C414 1.419 . S
C416 C417 1.363 . S
C416 H419 0.929 . S
C417 C416 1.363 . S
C417 C423 1.428 . S
H418 C414 0.930 . S
H419 C416 0.929 . S
S420 N421 1.613 . S
S420 N422 1.610 . S
N421 S420 1.613 . S
N421 C424 1.350 . S
N422 S420 1.610 . S
N422 C423 1.351 . S
C423 C417 1.428 . S
C423 N422 1.351 . S
C423 C424 1.434 . S
C424 C415 1.429 . S
C424 N421 1.350 . S
C424 C423 1.434 . S
C425 C426 1.369 . S
C425 C427 1.419 . S
C425 H429 0.930 . S
C426 C425 1.369 . S
C426 C435 1.429 . S
C427 C425 1.419 . S
C427 C428 1.363 . S
C427 H430 0.929 . S
C428 C427 1.363 . S
C428 C434 1.428 . S
H429 C425 0.930 . S
H430 C427 0.929 . S
S431 N432 1.613 . S
S431 N433 1.610 . S
N432 S431 1.613 . S
N432 C435 1.350 . S
N433 S431 1.610 . S
N433 C434 1.351 . S
C434 C428 1.428 . S
C434 N433 1.351 . S
C434 C435 1.434 . S
C435 C426 1.429 . S
C435 N432 1.350 . S
C435 C434 1.434 . S
C436 C437 1.369 . S
C436 C438 1.419 . S
C436 H440 0.930 . S
C437 C436 1.369 . S
C437 C446 1.429 . S
C438 C436 1.419 . S
C438 C439 1.363 . S
C438 H441 0.929 . S
C439 C438 1.363 . S
C439 C445 1.428 . S
H440 C436 0.930 . S
H441 C438 0.929 . S
S442 N443 1.613 . S
S442 N444 1.610 . S
N443 S442 1.613 . S
N443 C446 1.350 . S
N444 S442 1.610 . S
N444 C445 1.351 . S
C445 C439 1.428 . S
C445 N444 1.351 . S
C445 C446 1.434 . S
C446 C437 1.429 . S
C446 N443 1.350 . S
C446 C445 1.434 . S
C447 C448 1.369 . S
C447 C449 1.419 . S
C447 H451 0.930 . S
C448 C447 1.369 . S
C448 C457 1.429 . S
C449 C447 1.419 . S
C449 C450 1.363 . S
C449 H452 0.929 . S
C450 C449 1.363 . S
C450 C456 1.428 . S
H451 C447 0.930 . S
H452 C449 0.929 . S
S453 N454 1.613 . S
S453 N455 1.610 . S
N454 S453 1.613 . S
N454 C457 1.350 . S
N455 S453 1.610 . S
N455 C456 1.351 . S
C456 C450 1.428 . S
C456 N455 1.351 . S
C456 C457 1.434 . S
C457 C448 1.429 . S
C457 N454 1.350 . S
C457 C456 1.434 . S
C458 C459 1.369 . S
C458 C460 1.419 . S
C458 H462 0.930 . S
C459 C458 1.369 . S
C459 C468 1.429 . S
C460 C458 1.419 . S
C460 C461 1.363 1_545 S
C460 H463 0.929 . S
C461 C460 1.363 1_565 S
C461 C467 1.428 . S
H462 C458 0.930 . S
H463 C460 0.929 . S
S464 N465 1.613 . S
S464 N466 1.610 . S
N465 S464 1.613 . S
N465 C468 1.350 1_565 S
N466 S464 1.610 . S
N466 C467 1.351 . S
C467 C461 1.428 . S
C467 N466 1.351 . S
C467 C468 1.434 1_565 S
C468 C459 1.429 . S
C468 N465 1.350 1_545 S
C468 C467 1.434 1_545 S
C469 C470 1.369 . S
C469 C471 1.419 . S
C469 H473 0.930 . S
C470 C469 1.369 . S
C470 C479 1.429 . S
C471 C469 1.419 . S
C471 C472 1.363 . S
C471 H474 0.929 . S
C472 C471 1.363 . S
C472 C478 1.428 . S
H473 C469 0.930 . S
H474 C471 0.929 . S
S475 N476 1.613 . S
S475 N477 1.610 . S
N476 S475 1.613 . S
N476 C479 1.350 . S
N477 S475 1.610 . S
N477 C478 1.351 . S
C478 C472 1.428 . S
C478 N477 1.351 . S
C478 C479 1.434 . S
C479 C470 1.429 . S
C479 N476 1.350 . S
C479 C478 1.434 . S
C480 C481 1.369 . S
C480 C482 1.419 . S
C480 H484 0.930 . S
C481 C480 1.369 . S
C481 C490 1.429 . S
C482 C480 1.419 . S
C482 C483 1.363 . S
C482 H485 0.929 . S
C483 C482 1.363 . S
C483 C489 1.428 . S
H484 C480 0.930 . S
H485 C482 0.929 . S
S486 N487 1.613 . S
S486 N488 1.610 . S
N487 S486 1.613 . S
N487 C490 1.350 . S
N488 S486 1.610 . S
N488 C489 1.351 . S
C489 C483 1.428 . S
C489 N488 1.351 . S
C489 C490 1.434 . S
C490 C481 1.429 . S
C490 N487 1.350 . S
C490 C489 1.434 . S
C491 C492 1.369 . S
C491 C493 1.419 . S
C491 H495 0.930 . S
C492 C491 1.369 . S
C492 C501 1.429 . S
C493 C491 1.419 . S
C493 C494 1.363 . S
C493 H496 0.929 . S
C494 C493 1.363 . S
C494 C500 1.428 . S
H495 C491 0.930 . S
H496 C493 0.929 . S
S497 N498 1.613 . S
S497 N499 1.610 . S
N498 S497 1.613 . S
N498 C501 1.350 . S
N499 S497 1.610 . S
N499 C500 1.351 . S
C500 C494 1.428 . S
C500 N499 1.351 . S
C500 C501 1.434 . S
C501 C492 1.429 . S
C501 N498 1.350 . S
C501 C500 1.434 . S
C502 C503 1.369 . S
C502 C504 1.419 . S
C502 H506 0.930 . S
C503 C502 1.369 . S
C503 C512 1.429 . S
C504 C502 1.419 . S
C504 C505 1.363 . S
C504 H507 0.929 . S
C505 C504 1.363 . S
C505 C511 1.428 . S
H506 C502 0.930 . S
H507 C504 0.929 . S
S508 N509 1.613 . S
S508 N510 1.610 . S
N509 S508 1.613 . S
N509 C512 1.350 . S
N510 S508 1.610 . S
N510 C511 1.351 . S
C511 C505 1.428 . S
C511 N510 1.351 . S
C511 C512 1.434 . S
C512 C503 1.429 . S
C512 N509 1.350 . S
C512 C511 1.434 . S
C513 C514 1.369 . S
C513 C515 1.419 . S
C513 H517 0.930 . S
C514 C513 1.369 . S
C514 C523 1.429 . S
C515 C513 1.419 . S
C515 C516 1.363 . S
C515 H518 0.929 . S
C516 C515 1.363 . S
C516 C522 1.428 . S
H517 C513 0.930 . S
H518 C515 0.929 . S
S519 N520 1.613 1_655 S
S519 N521 1.610 . S
N520 S519 1.613 1_455 S
N520 C523 1.350 . S
N521 S519 1.610 . S
N521 C522 1.351 1_655 S
C522 C516 1.428 . S
C522 N521 1.351 1_455 S
C522 C523 1.434 . S
C523 C514 1.429 . S
C523 N520 1.350 . S
C523 C522 1.434 . S
C524 C525 1.369 . S
C524 C526 1.419 . S
C524 H528 0.930 . S
C525 C524 1.369 . S
C525 C534 1.429 . S
C526 C524 1.419 . S
C526 C527 1.363 . S
C526 H529 0.929 . S
C527 C526 1.363 . S
C527 C533 1.428 . S
H528 C524 0.930 . S
H529 C526 0.929 . S
S530 N531 1.613 . S
S530 N532 1.610 . S
N531 S530 1.613 . S
N531 C534 1.350 . S
N532 S530 1.610 . S
N532 C533 1.351 . S
C533 C527 1.428 . S
C533 N532 1.351 . S
C533 C534 1.434 . S
C534 C525 1.429 . S
C534 N531 1.350 . S
C534 C533 1.434 . S
C535 C536 1.369 . S
C535 C537 1.419 . S
C535 H539 0.930 . S
C536 C535 1.369 . S
C536 C545 1.429 . S
C537 C535 1.419 . S
C537 C538 1.363 . S
C537 H540 0.929 . S
C538 C537 1.363 . S
C538 C544 1.428 . S
H539 C535 0.930 . S
H540 C537 0.929 . S
S541 N542 1.613 . S
S541 N543 1.610 . S
N542 S541 1.613 . S
N542 C545 1.350 . S
N543 S541 1.610 . S
N543 C544 1.351 . S
C544 C538 1.428 . S
C544 N543 1.351 . S
C544 C545 1.434 . S
C545 C536 1.429 . S
C545 N542 1.350 . S
C545 C544 1.434 . S
C546 C547 1.369 . S
C546 C548 1.419 . S
C546 H550 0.930 . S
C547 C546 1.369 . S
C547 C556 1.429 . S
C548 C546 1.419 . S
C548 C549 1.363 . S
C548 H551 0.929 . S
C549 C548 1.363 . S
C549 C555 1.433 . S
H550 C546 0.930 . S
H551 C548 0.929 . S
S552 N553 1.613 . S
S552 N554 1.610 . S
N553 S552 1.613 . S
N553 C556 1.350 1_655 S
N554 S552 1.610 . S
N554 C555 1.342 1_655 S
C555 C549 1.433 . S
C555 N554 1.342 1_455 S
C555 C556 1.438 . S
C556 C547 1.429 . S
C556 N553 1.350 1_455 S
C556 C555 1.438 . S
C557 C558 1.369 . S
C557 C559 1.419 . S
C557 H561 0.930 . S
C558 C557 1.369 . S
C558 C567 1.429 . S
C559 C557 1.419 . S
C559 C560 1.363 . S
C559 H562 0.929 . S
C560 C559 1.363 . S
C560 C566 1.428 . S
H561 C557 0.930 . S
H562 C559 0.929 . S
S563 N564 1.613 . S
S563 N565 1.610 . S
N564 S563 1.613 . S
N564 C567 1.350 . S
N565 S563 1.610 . S
N565 C566 1.351 . S
C566 C560 1.428 . S
C566 N565 1.351 . S
C566 C567 1.434 . S
C567 C558 1.429 . S
C567 N564 1.350 . S
C567 C566 1.434 . S
C219 C129 1.364 . S
C217 C5 1.370 . S
C230 C143 1.400 . S
C228 C18 1.411 . S
C241 C151 1.404 . S
C239 C31 1.406 . S
C250 C42 1.284 . S
C252 C109 1.337 . S
C261 C57 1.452 . S
C263 C115 1.503 . S
C272 C70 1.488 . S
C274 C123 1.527 . S
C285 C137 1.539 . S
C283 C81 1.546 . S
C296 C157 1.517 . S
C294 C96 1.474 . S
C305 C29 1.504 . S
C307 C185 1.496 . S
C318 C199 1.515 . S
C316 C44 1.473 . S
C327 C3 1.526 . S
C329 C207 1.511 . S
C340 C171 1.521 . S
C338 C16 1.529 . S
C349 C83 1.370 . S
C351 C165 1.365 . S
C360 C94 1.319 . S
C362 C179 1.378 . S
C373 C193 1.418 . S
C371 C55 1.334 . S
C382 C68 1.364 . S
C384 C213 1.432 . S
C395 C132 1.383 . S
C393 C1 1.440 . S
C406 C155 1.425 . S
C404 C14 1.448 . S
C415 C27 1.434 . S
C417 C113 1.407 . S
C426 C49 1.424 . S
C428 C118 1.366 1_545 S
C437 C53 1.653 . S
C439 C146 1.674 . S
C450 C104 1.696 . S
C448 C66 1.653 . S
C461 C127 1.724 . S
C459 C88 1.749 . S
C472 C141 1.730 . S
C470 C92 1.657 . S
C483 C188 1.679 . S
C481 C36 1.736 . S
C494 C211 1.705 . S
C492 C40 1.627 . S
C503 C10 1.736 . S
C505 C160 1.674 . S
C516 C174 1.685 1_455 S
C514 C23 1.738 . S
C527 C202 1.386 . S
C525 C79 1.446 . S
C536 C101 1.448 . S
C538 C169 1.410 . S
C549 C183 1.410 1_455 S
C547 C62 1.448 . S
C560 C197 1.446 . S
C558 C75 1.466 . S
