# Generated by pormake.
# Topology myd, (4,6)-cn, num edge types: 1
# Building blocks:
#     Node 0, Type 0, BuildingBlock: NAWXER_clean_sbu_0, # of connection points: 4
#     Node 1, Type 0, BuildingBlock: NAWXER_clean_sbu_0, # of connection points: 4
#     Node 2, Type 0, BuildingBlock: NAWXER_clean_sbu_0, # of connection points: 4
#     Node 3, Type 0, BuildingBlock: NAWXER_clean_sbu_0, # of connection points: 4
#     Node 4, Type 0, BuildingBlock: NAWXER_clean_sbu_0, # of connection points: 4
#     Node 5, Type 0, BuildingBlock: NAWXER_clean_sbu_0, # of connection points: 4
#     Node 6, Type 0, BuildingBlock: NAWXER_clean_sbu_0, # of connection points: 4
#     Node 7, Type 0, BuildingBlock: NAWXER_clean_sbu_0, # of connection points: 4
#     Node 8, Type 0, BuildingBlock: NAWXER_clean_sbu_0, # of connection points: 4
#     Node 9, Type 0, BuildingBlock: NAWXER_clean_sbu_0, # of connection points: 4
#     Node 10, Type 0, BuildingBlock: NAWXER_clean_sbu_0, # of connection points: 4
#     Node 11, Type 0, BuildingBlock: NAWXER_clean_sbu_0, # of connection points: 4
#     Node 12, Type 1, BuildingBlock: MIDCAF_clean_sbu_0, # of connection points: 6
#     Node 13, Type 1, BuildingBlock: MIDCAF_clean_sbu_0, # of connection points: 6
#     Node 14, Type 1, BuildingBlock: MIDCAF_clean_sbu_0, # of connection points: 6
#     Node 15, Type 1, BuildingBlock: MIDCAF_clean_sbu_0, # of connection points: 6
#     Node 16, Type 1, BuildingBlock: MIDCAF_clean_sbu_0, # of connection points: 6
#     Node 17, Type 1, BuildingBlock: MIDCAF_clean_sbu_0, # of connection points: 6
#     Node 18, Type 1, BuildingBlock: MIDCAF_clean_sbu_0, # of connection points: 6
#     Node 19, Type 1, BuildingBlock: MIDCAF_clean_sbu_0, # of connection points: 6
#     Edge 20, Type (0, 1), BuildingBlock: MIFKUJ_clean_linker_0, # of connection points: 2
#     Edge 21, Type (0, 1), BuildingBlock: MIFKUJ_clean_linker_0, # of connection points: 2
#     Edge 22, Type (0, 1), BuildingBlock: MIFKUJ_clean_linker_0, # of connection points: 2
#     Edge 23, Type (0, 1), BuildingBlock: MIFKUJ_clean_linker_0, # of connection points: 2
#     Edge 24, Type (0, 1), BuildingBlock: MIFKUJ_clean_linker_0, # of connection points: 2
#     Edge 25, Type (0, 1), BuildingBlock: MIFKUJ_clean_linker_0, # of connection points: 2
#     Edge 26, Type (0, 1), BuildingBlock: MIFKUJ_clean_linker_0, # of connection points: 2
#     Edge 27, Type (0, 1), BuildingBlock: MIFKUJ_clean_linker_0, # of connection points: 2
#     Edge 28, Type (0, 1), BuildingBlock: MIFKUJ_clean_linker_0, # of connection points: 2
#     Edge 29, Type (0, 1), BuildingBlock: MIFKUJ_clean_linker_0, # of connection points: 2
#     Edge 30, Type (0, 1), BuildingBlock: MIFKUJ_clean_linker_0, # of connection points: 2
#     Edge 31, Type (0, 1), BuildingBlock: MIFKUJ_clean_linker_0, # of connection points: 2
#     Edge 32, Type (0, 1), BuildingBlock: MIFKUJ_clean_linker_0, # of connection points: 2
#     Edge 33, Type (0, 1), BuildingBlock: MIFKUJ_clean_linker_0, # of connection points: 2
#     Edge 34, Type (0, 1), BuildingBlock: MIFKUJ_clean_linker_0, # of connection points: 2
#     Edge 35, Type (0, 1), BuildingBlock: MIFKUJ_clean_linker_0, # of connection points: 2
#     Edge 36, Type (0, 1), BuildingBlock: MIFKUJ_clean_linker_0, # of connection points: 2
#     Edge 37, Type (0, 1), BuildingBlock: MIFKUJ_clean_linker_0, # of connection points: 2
#     Edge 38, Type (0, 1), BuildingBlock: MIFKUJ_clean_linker_0, # of connection points: 2
#     Edge 39, Type (0, 1), BuildingBlock: MIFKUJ_clean_linker_0, # of connection points: 2
#     Edge 40, Type (0, 1), BuildingBlock: MIFKUJ_clean_linker_0, # of connection points: 2
#     Edge 41, Type (0, 1), BuildingBlock: MIFKUJ_clean_linker_0, # of connection points: 2
#     Edge 42, Type (0, 1), BuildingBlock: MIFKUJ_clean_linker_0, # of connection points: 2
#     Edge 43, Type (0, 1), BuildingBlock: MIFKUJ_clean_linker_0, # of connection points: 2
#     Edge 44, Type (0, 1), BuildingBlock: MIFKUJ_clean_linker_0, # of connection points: 2
#     Edge 45, Type (0, 1), BuildingBlock: MIFKUJ_clean_linker_0, # of connection points: 2
#     Edge 46, Type (0, 1), BuildingBlock: MIFKUJ_clean_linker_0, # of connection points: 2
#     Edge 47, Type (0, 1), BuildingBlock: MIFKUJ_clean_linker_0, # of connection points: 2
#     Edge 48, Type (0, 1), BuildingBlock: MIFKUJ_clean_linker_0, # of connection points: 2
#     Edge 49, Type (0, 1), BuildingBlock: MIFKUJ_clean_linker_0, # of connection points: 2
#     Edge 50, Type (0, 1), BuildingBlock: MIFKUJ_clean_linker_0, # of connection points: 2
#     Edge 51, Type (0, 1), BuildingBlock: MIFKUJ_clean_linker_0, # of connection points: 2
#     Edge 52, Type (0, 1), BuildingBlock: MIFKUJ_clean_linker_0, # of connection points: 2
#     Edge 53, Type (0, 1), BuildingBlock: MIFKUJ_clean_linker_0, # of connection points: 2
#     Edge 54, Type (0, 1), BuildingBlock: MIFKUJ_clean_linker_0, # of connection points: 2
#     Edge 55, Type (0, 1), BuildingBlock: MIFKUJ_clean_linker_0, # of connection points: 2
#     Edge 56, Type (0, 1), BuildingBlock: MIFKUJ_clean_linker_0, # of connection points: 2
#     Edge 57, Type (0, 1), BuildingBlock: MIFKUJ_clean_linker_0, # of connection points: 2
#     Edge 58, Type (0, 1), BuildingBlock: MIFKUJ_clean_linker_0, # of connection points: 2
#     Edge 59, Type (0, 1), BuildingBlock: MIFKUJ_clean_linker_0, # of connection points: 2
#     Edge 60, Type (0, 1), BuildingBlock: MIFKUJ_clean_linker_0, # of connection points: 2
#     Edge 61, Type (0, 1), BuildingBlock: MIFKUJ_clean_linker_0, # of connection points: 2
#     Edge 62, Type (0, 1), BuildingBlock: MIFKUJ_clean_linker_0, # of connection points: 2
#     Edge 63, Type (0, 1), BuildingBlock: MIFKUJ_clean_linker_0, # of connection points: 2
#     Edge 64, Type (0, 1), BuildingBlock: MIFKUJ_clean_linker_0, # of connection points: 2
#     Edge 65, Type (0, 1), BuildingBlock: MIFKUJ_clean_linker_0, # of connection points: 2
#     Edge 66, Type (0, 1), BuildingBlock: MIFKUJ_clean_linker_0, # of connection points: 2
#     Edge 67, Type (0, 1), BuildingBlock: MIFKUJ_clean_linker_0, # of connection points: 2
# Relax obj value: 0.163
# Max RMSD: 0.104
# Mean RMSD: 0.094
data_MOF--net-myd--node1-NAWXER_clean_sbu_0--node2-MIDCAF_clean_sbu_0--edge1-MIFKUJ_clean_linker_0
_symmetry_space_group_name_H-M    P1
_symmetry_Int_Tables_number       1
_symmetry_cell_setting            triclinic
loop_
_symmetry_equiv_pos_as_xyz
'x, y, z'
_cell_length_a     58.286179
_cell_length_b     58.357492
_cell_length_c     58.218526
_cell_angle_alpha  90.075877
_cell_angle_beta   90.096952
_cell_angle_gamma 90.166183
loop_
_atom_site_label
_atom_site_type_symbol
_atom_site_fract_x
_atom_site_fract_y
_atom_site_fract_z
_atom_type_partial_charge
C0 C 0.97758 0.22325 0.25313 0.0
C1 C 0.98608 0.28245 0.3115 0.0
O2 O 0.99874 0.22712 0.25803 0.0
Zn3 Zn 0.01789 0.24774 0.28265 0.0
O4 O 0.96194 0.2327 0.26495 0.0
Zn5 Zn 0.98221 0.25033 0.28446 0.0
O6 O 0.99956 0.2721 0.25899 0.0
O7 O 0.03667 0.2648 0.26167 0.0
O8 O 0.96802 0.27233 0.30466 0.0
O9 O 0.00571 0.27503 0.30484 0.0
O10 O 0.0335 0.22583 0.30202 0.0
O11 O 0.99617 0.22436 0.30686 0.0
C12 C 0.02028 0.27557 0.25215 0.0
C13 C 0.01625 0.21679 0.3117 0.0
C14 C 0.00184 0.77866 0.25577 0.0
C15 C 0.99725 0.72064 0.19511 0.0
O16 O 0.0183 0.7662 0.24874 0.0
Zn17 Zn 1.00132 0.7508 0.22423 0.0
O18 O 0.98222 0.77728 0.24596 0.0
Zn19 Zn 0.96547 0.75861 0.21939 0.0
O20 O 0.94231 0.74248 0.23786 0.0
O21 O 0.978 0.73129 0.24408 0.0
O22 O 0.97839 0.73151 0.19815 0.0
O23 O 0.0151 0.7265 0.20632 0.0
O24 O 0.99478 0.77772 0.20035 0.0
O25 O 0.95737 0.78293 0.19807 0.0
C26 C 0.95653 0.72944 0.24809 0.0
C27 C 0.97759 0.78857 0.19203 0.0
C28 C 0.30483 0.0295 0.21865 0.0
C29 C 0.25003 0.03143 0.28162 0.0
O30 O 0.30054 0.00928 0.22621 0.0
Zn31 Zn 0.2801 0.99445 0.25331 0.0
O32 O 0.29588 0.04663 0.22858 0.0
Zn33 Zn 0.27831 0.03028 0.25124 0.0
O34 O 0.30321 0.0176 0.2758 0.0
O35 O 0.30193 0.97997 0.27335 0.0
O36 O 0.25838 0.04819 0.27048 0.0
O37 O 0.25672 0.01097 0.27705 0.0
O38 O 0.25936 0.97467 0.23662 0.0
O39 O 0.25338 0.01151 0.23071 0.0
C40 C 0.31031 0.99789 0.28249 0.0
C41 C 0.24799 0.99048 0.2269 0.0
C42 C 0.74738 0.49277 0.23416 0.0
C43 C 0.68409 0.50977 0.28641 0.0
O44 O 0.73741 0.47858 0.24742 0.0
Zn45 Zn 0.71415 0.4997 0.25862 0.0
O46 O 0.74019 0.51342 0.23271 0.0
Zn47 Zn 0.71452 0.53478 0.2477 0.0
O48 O 0.73462 0.5571 0.26267 0.0
O49 O 0.73584 0.5223 0.27762 0.0
O50 O 0.6907 0.52726 0.27481 0.0
O51 O 0.69239 0.49016 0.28186 0.0
O52 O 0.69393 0.50626 0.22882 0.0
O53 O 0.69612 0.54319 0.2212 0.0
C54 C 0.74245 0.54324 0.27763 0.0
C55 C 0.68856 0.52336 0.21614 0.0
C56 C 0.22125 0.32208 0.00397 0.0
C57 C 0.28003 0.26461 0.98747 0.0
O58 O 0.22704 0.31463 0.98427 0.0
Zn59 Zn 0.25153 0.29445 0.99404 0.0
O60 O 0.23228 0.31543 0.02182 0.0
Zn61 Zn 0.2597 0.29271 0.03028 0.0
O62 O 0.28432 0.31199 0.04206 0.0
O63 O 0.27853 0.31672 0.00484 0.0
O64 O 0.27856 0.27056 0.00856 0.0
O65 O 0.26715 0.27396 0.97249 0.0
O66 O 0.23325 0.26952 0.01315 0.0
O67 O 0.24438 0.26967 0.04941 0.0
C68 C 0.28968 0.32161 0.0232 0.0
C69 C 0.23191 0.26129 0.03346 0.0
C70 C 0.2249 0.74954 0.52447 0.0
C71 C 0.2855 0.69188 0.52273 0.0
O72 O 0.22956 0.74279 0.50398 0.0
Zn73 Zn 0.25203 0.71805 0.48758 0.0
O74 O 0.2348 0.74006 0.54145 0.0
Zn75 Zn 0.25308 0.71895 0.52368 0.0
O76 O 0.27533 0.74297 0.50592 0.0
O77 O 0.27009 0.73819 0.46861 0.0
O78 O 0.27481 0.69976 0.53999 0.0
O79 O 0.27854 0.6971 0.50249 0.0
O80 O 0.23132 0.69728 0.47216 0.0
O81 O 0.22711 0.69637 0.50972 0.0
C82 C 0.28002 0.74855 0.48511 0.0
C83 C 0.22073 0.68982 0.48964 0.0
C84 C 0.71991 0.82179 0.49701 0.0
C85 C 0.77941 0.76468 0.47892 0.0
O86 O 0.72588 0.8151 0.47707 0.0
Zn87 Zn 0.75091 0.79485 0.48604 0.0
O88 O 0.73141 0.81506 0.51454 0.0
Zn89 Zn 0.75993 0.79309 0.52193 0.0
O90 O 0.78467 0.81266 0.53301 0.0
O91 O 0.77841 0.81725 0.4959 0.0
O92 O 0.77836 0.77088 0.49995 0.0
O93 O 0.76616 0.77397 0.4642 0.0
O94 O 0.73288 0.76988 0.50578 0.0
O95 O 0.74593 0.76979 0.54151 0.0
C96 C 0.78991 0.82214 0.51406 0.0
C97 C 0.73257 0.76169 0.52615 0.0
C98 C 0.48098 0.78305 0.76435 0.0
C99 C 0.49175 0.7206 0.81979 0.0
O100 O 0.46512 0.77018 0.77214 0.0
Zn101 Zn 0.48447 0.75259 0.79328 0.0
O102 O 0.50159 0.78058 0.77145 0.0
Zn103 Zn 0.52106 0.75961 0.79377 0.0
O104 O 0.54078 0.7443 0.77114 0.0
O105 O 0.50425 0.73417 0.76927 0.0
O106 O 0.5102 0.73142 0.8146 0.0
O107 O 0.47263 0.72735 0.81166 0.0
O108 O 0.49519 0.77732 0.818 0.0
O109 O 0.53271 0.78213 0.81561 0.0
C110 C 0.52488 0.73221 0.76215 0.0
C111 C 0.51361 0.78728 0.82482 0.0
C112 C 0.49943 0.22368 0.74552 0.0
C113 C 0.51326 0.28432 0.68888 0.0
O114 O 0.48416 0.23728 0.73782 0.0
Zn115 Zn 0.50425 0.25296 0.71593 0.0
O116 O 0.51996 0.22477 0.73787 0.0
Zn117 Zn 0.54042 0.24392 0.71471 0.0
O118 O 0.56161 0.25796 0.73724 0.0
O119 O 0.52577 0.26997 0.73964 0.0
O120 O 0.53118 0.2727 0.69404 0.0
O121 O 0.49389 0.27835 0.69703 0.0
O122 O 0.51221 0.22641 0.69241 0.0
O123 O 0.54946 0.21996 0.69297 0.0
C124 C 0.54655 0.27071 0.74665 0.0
C125 C 0.52957 0.21508 0.68525 0.0
C126 C 0.76424 0.52097 0.72989 0.0
C127 C 0.82115 0.50518 0.79006 0.0
O128 O 0.77272 0.5358 0.74362 0.0
Zn129 Zn 0.79429 0.51494 0.75839 0.0
O130 O 0.77152 0.5003 0.73015 0.0
Zn131 Zn 0.79504 0.4793 0.749 0.0
O132 O 0.77293 0.45786 0.76236 0.0
O133 O 0.76914 0.49377 0.77405 0.0
O134 O 0.81589 0.48753 0.77801 0.0
O135 O 0.81311 0.52461 0.78442 0.0
O136 O 0.81731 0.50708 0.73092 0.0
O137 O 0.81582 0.46977 0.72487 0.0
C138 C 0.76237 0.47292 0.77411 0.0
C139 C 0.82372 0.48939 0.71953 0.0
C140 C 0.25346 0.02645 0.73321 0.0
C141 C 0.19607 0.02725 0.79475 0.0
O142 O 0.24591 0.00634 0.73812 0.0
Zn143 Zn 0.221 0.99109 0.76134 0.0
O144 O 0.24501 0.04378 0.74338 0.0
Zn145 Zn 0.2235 0.02703 0.76243 0.0
O146 O 0.24713 0.00826 0.7843 0.0
O147 O 0.24054 0.97132 0.77906 0.0
O148 O 0.20501 0.04415 0.78432 0.0
O149 O 0.20056 0.00687 0.78782 0.0
O150 O 0.19921 0.97654 0.74118 0.0
O151 O 0.19951 0.01405 0.73716 0.0
C152 C 0.25187 0.98724 0.78881 0.0
C153 C 0.19195 0.99429 0.73099 0.0
C154 C 0.71711 0.1881 0.00534 0.0
C155 C 0.77064 0.25216 0.01309 0.0
O156 O 0.72273 0.19814 0.02394 0.0
Zn157 Zn 0.74637 0.21798 0.01139 0.0
O158 O 0.72823 0.19251 0.98687 0.0
Zn159 Zn 0.75511 0.21482 0.9756 0.0
O160 O 0.78123 0.19523 0.96806 0.0
O161 O 0.77504 0.1964 0.00531 0.0
O162 O 0.77022 0.24306 0.99309 0.0
O163 O 0.75985 0.24279 0.02961 0.0
O164 O 0.72614 0.23752 0.98772 0.0
O165 O 0.73874 0.23247 0.9522 0.0
C166 C 0.78689 0.18922 0.98827 0.0
C167 C 0.72476 0.24181 0.9662 0.0
Zn168 Zn 0.05727 0.0639 0.08487 0.0
Zn169 Zn 0.02042 0.01782 0.01998 0.0
Zn170 Zn 0.04068 0.04378 0.05173 0.0
C171 C 0.06107 0.03631 1.00075 0.0
C172 C 0.02745 0.98918 0.05701 0.0
O173 O 0.01582 0.0702 0.06456 0.0
O174 O 0.03705 0.09009 0.08895 0.0
C175 C 0.08946 0.06833 0.05008 0.0
O176 O 0.06193 0.04727 0.02 0.0
O177 O 0.04542 0.02173 0.99706 0.0
O178 O 0.01854 0.98851 0.03724 0.0
O179 O 0.03681 0.00787 0.06435 0.0
O180 O 0.08743 0.07029 0.07154 0.0
O181 O 0.07281 0.0598 0.03817 0.0
O182 O 0.05216 0.01961 0.07966 0.0
O183 O 0.05813 0.04161 0.10992 0.0
C184 C 0.05805 0.02195 0.10097 0.0
O185 O 0.00628 0.05913 0.04519 0.0
O186 O 0.99224 0.03724 0.01745 0.0
C187 C 0.01828 0.08715 0.07864 0.0
C188 C 0.99022 0.05434 0.03064 0.0
Zn189 Zn 0.98792 0.49094 0.02572 0.0
Zn190 Zn 0.94179 0.43392 0.07405 0.0
Zn191 Zn 0.96295 0.46168 0.05138 0.0
C192 C 0.94209 0.47131 0.10149 0.0
C193 C 0.91541 0.43836 0.03633 0.0
O194 O 0.99817 0.44804 0.04823 0.0
O195 O 0.01766 0.47429 0.02892 0.0
C196 C 0.97062 0.51507 0.06401 0.0
O197 O 0.94886 0.47979 0.0822 0.0
O198 O 0.94063 0.4499 0.10376 0.0
O199 O 0.9127 0.43244 0.05694 0.0
O200 O 0.93417 0.44824 0.03011 0.0
O201 O 0.98164 0.51812 0.04559 0.0
O202 O 0.96258 0.49513 0.06908 0.0
O203 O 0.94662 0.46404 0.0168 0.0
O204 O 0.96978 0.48667 0.99693 0.0
C205 C 0.95193 0.47437 0.99796 0.0
O206 O 0.98591 0.43333 0.06344 0.0
O207 O 0.96129 0.40644 0.07346 0.0
C208 C 0.017 0.45518 0.03908 0.0
C209 C 0.98177 0.41284 0.07074 0.0
Zn210 Zn 0.0198 0.99184 0.49615 0.0
Zn211 Zn 0.07659 0.94426 0.44768 0.0
Zn212 Zn 0.04863 0.96583 0.47111 0.0
C213 C 0.09638 0.94336 0.48917 0.0
C214 C 0.03765 0.91795 0.4462 0.0
O215 O 0.04641 0.00091 0.45568 0.0
O216 O 0.02331 0.02085 0.47821 0.0
C217 C 0.05535 0.9763 0.52554 0.0
O218 O 0.07635 0.95165 0.49364 0.0
O219 O 0.10278 0.94136 0.46862 0.0
O220 O 0.05888 0.91598 0.44272 0.0
O221 O 0.02977 0.93628 0.45569 0.0
O222 O 0.03707 0.98792 0.52568 0.0
O223 O 0.06224 0.9668 0.50677 0.0
O224 O 0.01458 0.94865 0.46999 0.0
O225 O 0.99237 0.97196 0.49005 0.0
C226 C 0.99483 0.95378 0.47848 0.0
O227 O 0.06338 0.98845 0.44376 0.0
O228 O 0.08107 0.96402 0.42091 0.0
C229 C 0.0358 0.01972 0.46053 0.0
C230 C 0.07484 0.9842 0.42529 0.0
Zn231 Zn 0.91867 0.59037 0.41542 0.0
Zn232 Zn 0.98743 0.51563 0.4839 0.0
Zn233 Zn 0.96262 0.54159 0.46033 0.0
C234 C 0.97094 0.4892 0.4465 0.0
C235 C 0.01583 0.55208 0.47015 0.0
O236 O 0.9321 0.55551 0.47891 0.0
O237 O 0.92739 0.57083 0.44527 0.0
C238 C 0.93781 0.53897 0.41648 0.0
O239 O 0.96217 0.50869 0.44103 0.0
O240 O 0.98233 0.48736 0.46492 0.0
O241 O 0.01691 0.53303 0.48042 0.0
O242 O 0.99659 0.55876 0.46156 0.0
O243 O 0.93606 0.55932 0.42434 0.0
O244 O 0.9489 0.52472 0.42891 0.0
O245 O 0.98202 0.57223 0.4482 0.0
O246 O 0.94842 0.57934 0.43382 0.0
C247 C 0.96914 0.58582 0.43681 0.0
O248 O 0.94435 0.54027 0.4935 0.0
O249 O 0.96932 0.51943 0.51287 0.0
C250 C 0.91994 0.56815 0.4657 0.0
C251 C 0.95071 0.53051 0.51227 0.0
Zn252 Zn 0.42963 0.94207 0.563 0.0
Zn253 Zn 0.48441 0.98592 0.51498 0.0
Zn254 Zn 0.45873 0.96325 0.53975 0.0
C255 C 0.4464 0.9805 0.48853 0.0
C256 C 0.47919 0.01189 0.55407 0.0
O257 O 0.47815 0.93507 0.55665 0.0
O258 O 0.44928 0.91706 0.57341 0.0
C259 C 0.41334 0.93635 0.52026 0.0
O260 O 0.44377 0.96509 0.50422 0.0
O261 O 0.46232 0.99507 0.49054 0.0
O262 O 0.49375 0.00897 0.53833 0.0
O263 O 0.46215 0.99785 0.55592 0.0
O264 O 0.4064 0.93336 0.5405 0.0
O265 O 0.43226 0.94734 0.51653 0.0
O266 O 0.4432 0.98719 0.56623 0.0
O267 O 0.42063 0.9642 0.58629 0.0
C268 C 0.42889 0.98385 0.58286 0.0
O269 O 0.49269 0.94524 0.53988 0.0
O270 O 0.5065 0.96085 0.50832 0.0
C271 C 0.47039 0.91845 0.56898 0.0
C272 C 0.508 0.94587 0.52389 0.0
Zn273 Zn 0.51709 0.52156 0.52419 0.0
Zn274 Zn 0.57005 0.56771 0.57059 0.0
Zn275 Zn 0.54621 0.54604 0.54806 0.0
C276 C 0.56663 0.53248 0.5973 0.0
C277 C 0.59559 0.56443 0.53425 0.0
O278 O 0.51182 0.56282 0.5492 0.0
O279 O 0.48986 0.54191 0.52629 0.0
C280 C 0.53204 0.49416 0.56065 0.0
O281 O 0.56119 0.52538 0.57698 0.0
O282 O 0.56633 0.55369 0.60138 0.0
O283 O 0.59995 0.56225 0.55532 0.0
O284 O 0.57499 0.56038 0.52716 0.0
O285 O 0.51721 0.49465 0.54483 0.0
O286 O 0.54557 0.51137 0.56381 0.0
O287 O 0.56066 0.54526 0.51301 0.0
O288 O 0.53679 0.52105 0.49612 0.0
C289 C 0.5547 0.53331 0.49539 0.0
O290 O 0.52744 0.57568 0.56276 0.0
O291 O 0.55694 0.59885 0.56689 0.0
C292 C 0.49233 0.55899 0.5394 0.0
C293 C 0.53556 0.59569 0.5676 0.0
Zn294 Zn 0.51767 0.48674 0.98692 0.0
Zn295 Zn 0.59264 0.42304 0.91373 0.0
Zn296 Zn 0.54393 0.46338 0.96188 0.0
C297 C 0.58832 0.43968 0.96593 0.0
C298 C 0.54233 0.42055 0.93524 0.0
O299 O 0.54026 0.49703 0.94429 0.0
O300 O 0.51848 0.51587 0.96888 0.0
C301 C 0.5563 0.4742 0.01388 0.0
O302 O 0.57495 0.45022 0.97978 0.0
O303 O 0.58232 0.43941 0.94487 0.0
O304 O 0.56165 0.43028 0.93175 0.0
O305 O 0.52808 0.43141 0.94789 0.0
O306 O 0.53715 0.48426 0.01521 0.0
O307 O 0.56246 0.46487 0.99483 0.0
O308 O 0.51214 0.4429 0.9623 0.0
O309 O 0.49047 0.46603 0.98308 0.0
C310 C 0.49283 0.44764 0.97183 0.0
O311 O 0.55676 0.48431 0.93266 0.0
O312 O 0.57249 0.45165 0.92451 0.0
C313 C 0.52943 0.51535 0.95017 0.0
C314 C 0.56988 0.47278 0.91945 0.0
Zn315 Zn 0.48419 0.02046 0.99388 0.0
Zn316 Zn 0.43716 0.06128 0.93342 0.0
Zn317 Zn 0.45902 0.04298 0.96311 0.0
C318 C 0.47385 0.08881 0.93628 0.0
C319 C 0.44056 0.02011 0.91561 0.0
O320 O 0.44076 0.04614 0.99633 0.0
O321 O 0.46364 0.02757 0.02023 0.0
C322 C 0.51167 0.0558 0.97608 0.0
O323 O 0.48023 0.07103 0.94771 0.0
O324 O 0.4533 0.09058 0.92987 0.0
O325 O 0.43849 0.03993 0.90735 0.0
O326 O 0.44731 0.01773 0.93661 0.0
O327 O 0.51263 0.039 0.98971 0.0
O328 O 0.49311 0.05992 0.96477 0.0
O329 O 0.46291 0.0066 0.95196 0.0
O330 O 0.48287 0.98962 0.97939 0.0
C331 C 0.47274 0.98861 0.96023 0.0
O332 O 0.42801 0.05858 0.97934 0.0
O333 O 0.40707 0.06357 0.94826 0.0
C334 C 0.44551 0.03888 0.01668 0.0
C335 C 0.40895 0.06456 0.96979 0.0
H336 H 0.98326 0.19439 0.33672 0.0
H337 H 0.98818 0.16141 0.36215 0.0
H338 H 0.06072 0.16105 0.34764 0.0
H339 H 0.05602 0.1943 0.32264 0.0
H340 H 1.00142 0.11922 0.35477 0.0
H341 H 0.09042 0.1408 0.39359 0.0
H342 H 0.11378 0.17474 0.40352 0.0
H343 H 0.05263 0.21488 0.41113 0.0
H344 H 0.02891 0.18112 0.40155 0.0
H345 H 0.03983 0.02034 0.41363 0.0
H346 H 0.03957 0.05375 0.38826 0.0
H347 H 0.03129 0.09802 0.44707 0.0
H348 H 0.03307 0.06475 0.4725 0.0
H349 H 0.05856 0.11809 0.41801 0.0
H350 H 0.98517 0.08056 0.41239 0.0
H351 H 0.95896 0.04804 0.40527 0.0
H352 H 0.98363 0.0427 0.33601 0.0
H353 H 0.01021 0.07502 0.34283 0.0
C354 C 1.0003 0.18741 0.33906 0.0
C355 C 0.01925 0.19713 0.3277 0.0
C356 C 0.00308 0.16845 0.35354 0.0
C357 C 0.02486 0.15876 0.35704 0.0
C358 C 0.04379 0.16838 0.34561 0.0
C359 C 0.04105 0.1874 0.33122 0.0
C360 C 0.02768 0.13848 0.3724 0.0
C361 C 0.01396 0.11901 0.36856 0.0
C362 C 0.04384 0.13812 0.39063 0.0
C363 C 0.05792 0.15849 0.3966 0.0
C364 C 0.08197 0.15686 0.39745 0.0
C365 C 0.09527 0.17606 0.40301 0.0
C366 C 0.0847 0.19697 0.40787 0.0
C367 C 0.0608 0.1987 0.40727 0.0
C368 C 0.04742 0.17954 0.40174 0.0
C369 C 0.03884 0.03725 0.42118 0.0
C370 C 0.0371 0.03992 0.4451 0.0
C371 C 0.03821 0.05635 0.40663 0.0
C372 C 0.03512 0.07851 0.41566 0.0
C373 C 0.03375 0.08119 0.43961 0.0
C374 C 0.03465 0.06213 0.45414 0.0
C375 C 0.03238 0.09881 0.4003 0.0
C376 C 0.04613 0.11827 0.40411 0.0
C377 C 0.01589 0.09935 0.38238 0.0
C378 C 0.99981 0.08005 0.37819 0.0
C379 C 0.9851 0.07235 0.39569 0.0
C380 C 0.97017 0.05397 0.3917 0.0
C381 C 0.96967 0.04328 0.37022 0.0
C382 C 0.98406 0.05098 0.35266 0.0
C383 C 0.99904 0.06934 0.35657 0.0
H384 H 0.95811 0.02905 0.36717 0.0
H385 H 0.09502 0.21182 0.41216 0.0
H386 H 0.94918 0.29793 0.33607 0.0
H387 H 0.94581 0.33394 0.35729 0.0
H388 H 0.01528 0.35162 0.33869 0.0
H389 H 0.01904 0.3152 0.31832 0.0
H390 H 0.00979 0.36351 0.37974 0.0
H391 H 0.9658 0.37626 0.31224 0.0
H392 H 0.93636 0.3686 0.28272 0.0
H393 H 0.88351 0.3732 0.33381 0.0
H394 H 0.91268 0.3806 0.3637 0.0
H395 H 0.96267 0.48752 0.39984 0.0
H396 H 0.96444 0.4535 0.37495 0.0
H397 H 0.97522 0.41087 0.43447 0.0
H398 H 0.97429 0.44458 0.45909 0.0
H399 H 0.9425 0.41436 0.36925 0.0
H400 H 0.01268 0.36949 0.42445 0.0
H401 H 0.04504 0.38028 0.44965 0.0
H402 H 0.05079 0.44509 0.41527 0.0
H403 H 0.01871 0.43457 0.38966 0.0
C404 C 0.96379 0.30943 0.33664 0.0
C405 C 0.98439 0.30366 0.32552 0.0
C406 C 0.96177 0.33016 0.3486 0.0
C407 C 0.98011 0.34586 0.34927 0.0
C408 C 1.00083 0.33991 0.33847 0.0
C409 C 0.00298 0.31902 0.32683 0.0
C410 C 0.97792 0.36825 0.36158 0.0
C411 C 0.99506 0.37457 0.37737 0.0
C412 C 0.95906 0.3832 0.35815 0.0
C413 C 0.94145 0.37878 0.34024 0.0
C414 C 0.94792 0.37547 0.31721 0.0
C415 C 0.93128 0.3712 0.30041 0.0
C416 C 0.90809 0.37036 0.3064 0.0
C417 C 0.90149 0.37384 0.3292 0.0
C418 C 0.91806 0.37809 0.34607 0.0
C419 C 0.96519 0.47085 0.40758 0.0
C420 C 0.96872 0.4688 0.4314 0.0
C421 C 0.96621 0.4514 0.39335 0.0
C422 C 0.97059 0.42963 0.40274 0.0
C423 C 0.97253 0.4275 0.42668 0.0
C424 C 0.97188 0.44683 0.44078 0.0
C425 C 0.97406 0.40916 0.38776 0.0
C426 C 0.95722 0.40325 0.37151 0.0
C427 C 0.99361 0.39495 0.39012 0.0
C428 C 0.01314 0.4013 0.40528 0.0
C429 C 0.02092 0.386 0.4222 0.0
C430 C 0.0392 0.39208 0.43657 0.0
C431 C 0.04992 0.41338 0.43411 0.0
C432 C 0.04243 0.42862 0.41721 0.0
C433 C 0.02418 0.42262 0.40278 0.0
H434 H 0.06405 0.41806 0.44527 0.0
H435 H 0.89523 0.36705 0.29337 0.0
H436 H 0.01741 0.79977 0.17029 0.0
H437 H 0.02587 0.83412 0.14808 0.0
H438 H 0.95636 0.85745 0.15763 0.0
H439 H 0.94757 0.82262 0.17949 0.0
H440 H 0.96946 0.86641 0.11559 0.0
H441 H 0.00168 0.88202 0.18988 0.0
H442 H 0.02477 0.87434 0.22458 0.0
H443 H 0.08537 0.86816 0.18321 0.0
H444 H 0.06257 0.87564 0.14824 0.0
H445 H 0.02324 0.98748 0.10387 0.0
H446 H 0.01583 0.95366 0.1276 0.0
H447 H 0.01856 0.91083 0.06723 0.0
H448 H 0.02624 0.94454 0.04352 0.0
H449 H 0.03711 0.91375 0.137 0.0
H450 H 0.97682 0.87044 0.07047 0.0
H451 H 0.95103 0.88155 0.03875 0.0
H452 H 0.94146 0.94771 0.06958 0.0
H453 H 0.96691 0.93688 0.10163 0.0
C454 C 0.00383 0.81211 0.16757 0.0
C455 C 0.98182 0.80849 0.17679 0.0
C456 C 0.00877 0.83187 0.15498 0.0
C457 C 0.99194 0.84869 0.15162 0.0
C458 C 0.9697 0.84479 0.16012 0.0
C459 C 0.96467 0.82486 0.17258 0.0
C460 C 0.99767 0.87027 0.13923 0.0
C461 C 0.98423 0.87675 0.12031 0.0
C462 C 0.01668 0.8841 0.14559 0.0
C463 C 0.03042 0.87929 0.16648 0.0
C464 C 0.01991 0.87889 0.18819 0.0
C465 C 0.03294 0.87461 0.2079 0.0
C466 C 0.05652 0.87075 0.2061 0.0
C467 C 0.0671 0.87111 0.18457 0.0
C468 C 0.05414 0.87538 0.16481 0.0
C469 C 0.02302 0.97079 0.09577 0.0
C470 C 0.02565 0.96865 0.07187 0.0
C471 C 0.01854 0.95148 0.10932 0.0
C472 C 0.0163 0.92973 0.09916 0.0
C473 C 0.01983 0.92747 0.07541 0.0
C474 C 0.0243 0.94674 0.06189 0.0
C475 C 0.00917 0.90959 0.11311 0.0
C476 C 0.02234 0.9034 0.13231 0.0
C477 C 0.98955 0.89635 0.10736 0.0
C478 C 0.97396 0.90291 0.08832 0.0
C479 C 0.96914 0.88732 0.07052 0.0
C480 C 0.95459 0.89357 0.05247 0.0
C481 C 0.94468 0.91534 0.05211 0.0
C482 C 0.94922 0.93088 0.06983 0.0
C483 C 0.96372 0.9247 0.08793 0.0
H484 H 0.93344 0.92016 0.03812 0.0
H485 H 0.06659 0.8675 0.22138 0.0
H486 H 0.02154 0.6813 0.20166 0.0
H487 H 0.0159 0.64463 0.18206 0.0
H488 H 0.96665 0.67617 0.1366 0.0
H489 H 0.97127 0.71244 0.15714 0.0
H490 H 0.94987 0.63848 0.14891 0.0
H491 H 0.02429 0.65937 0.12043 0.0
H492 H 0.06492 0.67109 0.12283 0.0
H493 H 0.0807 0.60993 0.16054 0.0
H494 H 0.04009 0.59797 0.1586 0.0
H495 H 0.9629 0.55958 0.05342 0.0
H496 H 0.96567 0.59272 0.07917 0.0
H497 H 0.97863 0.54769 0.13634 0.0
H498 H 0.97508 0.51429 0.11071 0.0
H499 H 0.01324 0.58903 0.12144 0.0
H500 H 0.93653 0.56731 0.14381 0.0
H501 H 0.89649 0.55666 0.13554 0.0
H502 H 0.88524 0.62197 0.10372 0.0
H503 H 0.92555 0.63274 0.11101 0.0
C504 C 0.00987 0.68047 0.18718 0.0
C505 C 0.99699 0.69974 0.18077 0.0
C506 C 0.00661 0.65947 0.17596 0.0
C507 C 0.99095 0.65752 0.15763 0.0
C508 C 0.97871 0.67707 0.15075 0.0
C509 C 0.98152 0.69788 0.16234 0.0
C510 C 0.98665 0.63506 0.14609 0.0
C511 C 0.9638 0.62782 0.14278 0.0
C512 C 0.00471 0.62075 0.1384 0.0
C513 C 0.02912 0.62791 0.13959 0.0
C514 C 0.0364 0.64851 0.12938 0.0
C515 C 0.05942 0.65518 0.13064 0.0
C516 C 0.07536 0.6413 0.1419 0.0
C517 C 0.06832 0.62068 0.15187 0.0
C518 C 0.04531 0.61394 0.15068 0.0
C519 C 0.9658 0.55674 0.07158 0.0
C520 C 0.96863 0.53444 0.08016 0.0
C521 C 0.96743 0.57564 0.08621 0.0
C522 C 0.97241 0.57257 0.10955 0.0
C523 C 0.97471 0.5503 0.11834 0.0
C524 C 0.97248 0.5313 0.10377 0.0
C525 C 0.97668 0.59287 0.12419 0.0
C526 C 0.99945 0.59968 0.12793 0.0
C527 C 0.95859 0.60702 0.13174 0.0
C528 C 0.93421 0.60072 0.1277 0.0
C529 C 0.92567 0.57928 0.13471 0.0
C530 C 0.9029 0.57321 0.1302 0.0
C531 C 0.88833 0.58859 0.11907 0.0
C532 C 0.89654 0.61006 0.11234 0.0
C533 C 0.91938 0.61614 0.11661 0.0
H534 H 0.87066 0.58388 0.11573 0.0
H535 H 0.09318 0.64649 0.14285 0.0
H536 H 0.32908 0.99695 0.19521 0.0
H537 H 0.35167 0.00195 0.16026 0.0
H538 H 0.33491 0.07391 0.15948 0.0
H539 H 0.31274 0.06916 0.19477 0.0
H540 H 0.34043 0.01418 0.11843 0.0
H541 H 0.3789 0.10403 0.13533 0.0
H542 H 0.39038 0.12852 0.168 0.0
H543 H 0.40181 0.06879 0.20942 0.0
H544 H 0.39068 0.04396 0.17693 0.0
H545 H 0.39872 0.04474 0.01613 0.0
H546 H 0.37315 0.04835 0.04927 0.0
H547 H 0.43139 0.04263 0.09478 0.0
H548 H 0.45696 0.04074 0.06181 0.0
H549 H 0.40319 0.07145 0.11244 0.0
H550 H 0.39596 0.99563 0.07924 0.0
H551 H 0.38773 0.96818 0.048 0.0
H552 H 0.31918 0.99435 0.04224 0.0
H553 H 0.32711 0.02214 0.07329 0.0
C554 C 0.33031 0.01389 0.18771 0.0
C555 C 0.31919 0.03268 0.19789 0.0
C556 C 0.34314 0.01669 0.16764 0.0
C557 C 0.34512 0.03832 0.15727 0.0
C558 C 0.33394 0.05711 0.16732 0.0
C559 C 0.32123 0.05435 0.18751 0.0
C560 C 0.35888 0.04109 0.13594 0.0
C561 C 0.35409 0.02678 0.11711 0.0
C562 C 0.37681 0.05742 0.13417 0.0
C563 C 0.38368 0.07217 0.15378 0.0
C564 C 0.38391 0.09614 0.1514 0.0
C565 C 0.39035 0.11007 0.16989 0.0
C566 C 0.39673 0.10022 0.1908 0.0
C567 C 0.39676 0.0764 0.19325 0.0
C568 C 0.39036 0.06239 0.17481 0.0
C569 C 0.4061 0.04519 0.03316 0.0
C570 C 0.42988 0.04288 0.0363 0.0
C571 C 0.39144 0.0468 0.05214 0.0
C572 C 0.40027 0.04545 0.07461 0.0
C573 C 0.42409 0.04378 0.07769 0.0
C574 C 0.4387 0.04253 0.05879 0.0
C575 C 0.38494 0.04436 0.09501 0.0
C576 C 0.38934 0.05905 0.11365 0.0
C577 C 0.36706 0.02796 0.09684 0.0
C578 C 0.36219 0.01109 0.0784 0.0
C579 C 0.37917 0.99559 0.07122 0.0
C580 C 0.37456 0.97998 0.05356 0.0
C581 C 0.35297 0.97957 0.04309 0.0
C582 C 0.33591 0.99472 0.05033 0.0
C583 C 0.34044 0.01039 0.06797 0.0
H584 H 0.34944 0.96749 0.02941 0.0
H585 H 0.40171 0.11104 0.20509 0.0
H586 H 0.66454 0.48491 0.20452 0.0
H587 H 0.64485 0.47667 0.16848 0.0
H588 H 0.66286 0.54381 0.14319 0.0
H589 H 0.68218 0.55244 0.17963 0.0
H590 H 0.62103 0.53444 0.1313 0.0
H591 H 0.69161 0.4951 0.12516 0.0
H592 H 0.72313 0.46961 0.137 0.0
H593 H 0.67682 0.41226 0.1376 0.0
H594 H 0.64492 0.43747 0.12614 0.0
H595 H 0.60334 0.47034 0.01485 0.0
H596 H 0.62866 0.47857 0.04763 0.0
H597 H 0.56948 0.48779 0.09105 0.0
H598 H 0.54429 0.48024 0.05848 0.0
H599 H 0.63698 0.462 0.08955 0.0
H600 H 0.5764 0.53247 0.12589 0.0
H601 H 0.54811 0.56029 0.11135 0.0
H602 H 0.58079 0.55979 0.04531 0.0
H603 H 0.60947 0.53224 0.05954 0.0
C604 C 0.66423 0.49802 0.19136 0.0
C605 C 0.67502 0.51933 0.19493 0.0
C606 C 0.6531 0.49319 0.17066 0.0
C607 C 0.65281 0.5094 0.15286 0.0
C608 C 0.66298 0.53096 0.1566 0.0
C609 C 0.67397 0.5359 0.17745 0.0
C610 C 0.64156 0.50383 0.13057 0.0
C611 C 0.6246 0.51864 0.12217 0.0
C612 C 0.64666 0.48353 0.11817 0.0
C613 C 0.66582 0.46823 0.12495 0.0
C614 C 0.6881 0.47708 0.12798 0.0
C615 C 0.70605 0.46267 0.1346 0.0
C616 C 0.70198 0.43933 0.13809 0.0
C617 C 0.67995 0.43034 0.13491 0.0
C618 C 0.66193 0.44469 0.12833 0.0
C619 C 0.59578 0.47376 0.03148 0.0
C620 C 0.57182 0.47498 0.03402 0.0
C621 C 0.61026 0.47851 0.05019 0.0
C622 C 0.60096 0.48442 0.07166 0.0
C623 C 0.57706 0.48392 0.07452 0.0
C624 C 0.56267 0.47948 0.05588 0.0
C625 C 0.61588 0.49217 0.09092 0.0
C626 C 0.63355 0.47784 0.09867 0.0
C627 C 0.61195 0.51326 0.10235 0.0
C628 C 0.59497 0.53014 0.09375 0.0
C629 C 0.57762 0.53839 0.1083 0.0
C630 C 0.5615 0.5541 0.1001 0.0
C631 C 0.56262 0.56175 0.0774 0.0
C632 C 0.57991 0.55379 0.06287 0.0
C633 C 0.59608 0.53811 0.07099 0.0
H634 H 0.5501 0.57389 0.07108 0.0
H635 H 0.71589 0.42821 0.14321 0.0
H636 H 0.32966 0.95892 0.29998 0.0
H637 H 0.35421 0.95545 0.33387 0.0
H638 H 0.35267 0.0287 0.34314 0.0
H639 H 0.32836 0.03246 0.30897 0.0
H640 H 0.39796 0.00602 0.34958 0.0
H641 H 0.31913 0.00301 0.38965 0.0
H642 H 0.27918 0.98883 0.38738 0.0
H643 H 0.30359 0.92143 0.37085 0.0
H644 H 0.34362 0.93529 0.37313 0.0
H645 H 0.43409 0.01857 0.46469 0.0
H646 H 0.4115 0.02081 0.42936 0.0
H647 H 0.40243 0.94743 0.43013 0.0
H648 H 0.42558 0.94525 0.46529 0.0
H649 H 0.36264 0.96949 0.41795 0.0
H650 H 0.44183 0.97166 0.39528 0.0
H651 H 0.48172 0.98582 0.39587 0.0
H652 H 0.45885 0.05245 0.37478 0.0
H653 H 0.41876 0.03876 0.37438 0.0
C654 C 0.33468 0.97435 0.30906 0.0
C655 C 0.32688 0.99597 0.30181 0.0
C656 C 0.34863 0.97231 0.32851 0.0
C657 C 0.35492 0.99178 0.34123 0.0
C658 C 0.34793 0.01346 0.3336 0.0
C659 C 0.33402 0.01555 0.31407 0.0
C660 C 0.3679 0.98939 0.36306 0.0
C661 C 0.3903 0.99806 0.36456 0.0
C662 C 0.35805 0.97866 0.3824 0.0
C663 C 0.3342 0.97009 0.38176 0.0
C664 C 0.31589 0.98515 0.38568 0.0
C665 C 0.29327 0.97719 0.38435 0.0
C666 C 0.28884 0.95423 0.379 0.0
C667 C 0.30703 0.93919 0.37499 0.0
C668 C 0.32967 0.94707 0.37638 0.0
C669 C 0.42716 0.00291 0.45742 0.0
C670 C 0.43125 0.98167 0.46804 0.0
C671 C 0.41428 0.00422 0.43719 0.0
C672 C 0.40541 0.98428 0.42691 0.0
C673 C 0.40897 0.96309 0.43778 0.0
C674 C 0.42193 0.96181 0.45805 0.0
C675 C 0.39311 0.98556 0.40449 0.0
C676 C 0.37062 0.97698 0.40292 0.0
C677 C 0.40317 0.99597 0.38491 0.0
C678 C 0.42727 0.00423 0.38501 0.0
C679 C 0.44529 0.98937 0.39093 0.0
C680 C 0.46794 0.99731 0.39121 0.0
C681 C 0.47281 0.02003 0.38542 0.0
C682 C 0.45505 0.03485 0.37929 0.0
C683 C 0.43236 0.02701 0.37901 0.0
H684 H 0.49036 0.02615 0.38564 0.0
H685 H 0.27133 0.94811 0.37795 0.0
H686 H 0.67435 0.54987 0.30829 0.0
H687 H 0.6523 0.55526 0.34353 0.0
H688 H 0.63722 0.48294 0.34545 0.0
H689 H 0.65974 0.47724 0.31029 0.0
H690 H 0.59834 0.51469 0.35394 0.0
H691 H 0.67585 0.49872 0.37869 0.0
H692 H 0.71769 0.50503 0.37837 0.0
H693 H 0.70803 0.57425 0.40141 0.0
H694 H 0.66604 0.56846 0.40148 0.0
H695 H 0.55733 0.49841 0.46487 0.0
H696 H 0.57937 0.49646 0.42952 0.0
H697 H 0.60616 0.56432 0.44222 0.0
H698 H 0.58436 0.56606 0.47832 0.0
H699 H 0.63897 0.53787 0.42535 0.0
H700 H 0.56248 0.55471 0.40259 0.0
H701 H 0.5204 0.55052 0.40127 0.0
H702 H 0.52739 0.48292 0.37299 0.0
H703 H 0.56954 0.48657 0.37444 0.0
C704 C 0.66615 0.5351 0.31602 0.0
C705 C 0.6688 0.51309 0.30646 0.0
C706 C 0.65365 0.53824 0.33623 0.0
C707 C 0.64329 0.51949 0.34713 0.0
C708 C 0.64515 0.49761 0.33725 0.0
C709 C 0.65802 0.49438 0.31721 0.0
C710 C 0.631 0.52272 0.36918 0.0
C711 C 0.6072 0.51948 0.36964 0.0
C712 C 0.64255 0.52985 0.38938 0.0
C713 C 0.66779 0.53324 0.38983 0.0
C714 C 0.68262 0.51535 0.38351 0.0
C715 C 0.70636 0.51882 0.3834 0.0
C716 C 0.71549 0.54005 0.38978 0.0
C717 C 0.70091 0.55783 0.39642 0.0
C718 C 0.67714 0.55446 0.39651 0.0
C719 C 0.56789 0.51298 0.46019 0.0
C720 C 0.56897 0.5325 0.47434 0.0
C721 C 0.58045 0.51186 0.43988 0.0
C722 C 0.59402 0.53045 0.43283 0.0
C723 C 0.59569 0.5498 0.44721 0.0
C724 C 0.58329 0.55079 0.46785 0.0
C725 C 0.60616 0.52944 0.41034 0.0
C726 C 0.62998 0.53319 0.4097 0.0
C727 C 0.59456 0.5231 0.38983 0.0
C728 C 0.56919 0.52086 0.38879 0.0
C729 C 0.55505 0.53889 0.39623 0.0
C730 C 0.53118 0.53662 0.39544 0.0
C731 C 0.52123 0.51645 0.38709 0.0
C732 C 0.53513 0.49853 0.37946 0.0
C733 C 0.55901 0.5007 0.38024 0.0
H734 H 0.50274 0.51472 0.38649 0.0
H735 H 0.73387 0.54269 0.38962 0.0
H736 H 0.20691 0.34325 0.04318 0.0
H737 H 0.17166 0.36475 0.04923 0.0
H738 H 0.15348 0.35542 0.97796 0.0
H739 H 0.18909 0.33412 0.97163 0.0
H740 H 0.14388 0.39737 0.99071 0.0
H741 H 0.12773 0.32329 0.0202 0.0
H742 H 0.13266 0.2882 0.04319 0.0
H743 H 0.12865 0.32769 0.10532 0.0
H744 H 0.12412 0.3631 0.08269 0.0
H745 H 0.01914 0.40854 0.03589 0.0
H746 H 0.05348 0.38501 0.03087 0.0
H747 H 0.09582 0.44562 0.03563 0.0
H748 H 0.06152 0.46914 0.04061 0.0
H749 H 0.09131 0.37565 0.05408 0.0
H750 H 0.1394 0.44232 0.9979 0.0
H751 H 0.13031 0.47401 0.97142 0.0
H752 H 0.06492 0.44332 0.95645 0.0
H753 H 0.07375 0.4113 0.98257 0.0
C754 C 0.19553 0.34587 0.0287 0.0
C755 C 0.20081 0.33687 0.00691 0.0
C756 C 0.17526 0.35805 0.03226 0.0
C757 C 0.15967 0.36132 0.01418 0.0
C758 C 0.1652 0.353 0.99221 0.0
C759 C 0.18558 0.34087 0.9886 0.0
C760 C 0.13771 0.37357 0.01827 0.0
C761 C 0.1324 0.39259 0.00456 0.0
C762 C 0.1224 0.36704 0.03601 0.0
C763 C 0.12585 0.3459 0.04972 0.0
C764 C 0.12819 0.32454 0.03876 0.0
C765 C 0.13084 0.30458 0.05173 0.0
C766 C 0.13101 0.30571 0.0757 0.0
C767 C 0.12859 0.32684 0.08675 0.0
C768 C 0.12601 0.34687 0.07386 0.0
C769 C 0.03581 0.41673 0.03652 0.0
C770 C 0.03769 0.44062 0.03889 0.0
C771 C 0.05542 0.4033 0.03346 0.0
C772 C 0.07722 0.41358 0.03248 0.0
C773 C 0.07916 0.43735 0.03587 0.0
C774 C 0.05958 0.45076 0.03881 0.0
C775 C 0.0978 0.39969 0.02685 0.0
C776 C 0.10283 0.38039 0.04026 0.0
C777 C 0.1125 0.40551 0.00837 0.0
C778 C 0.10716 0.42454 0.99237 0.0
C779 C 0.12312 0.44229 0.98888 0.0
C780 C 0.11801 0.46032 0.97394 0.0
C781 C 0.09702 0.46072 0.96231 0.0
C782 C 0.08114 0.44304 0.96553 0.0
C783 C 0.08618 0.42496 0.98041 0.0
H784 H 0.09309 0.4747 0.95078 0.0
H785 H 0.13297 0.29022 0.0857 0.0
H786 H 0.18688 0.6815 0.52094 0.0
H787 H 0.1519 0.65901 0.51558 0.0
H788 H 0.1731 0.64186 0.4467 0.0
H789 H 0.20772 0.66521 0.45166 0.0
H790 H 0.12953 0.65024 0.44605 0.0
H791 H 0.17764 0.60325 0.49334 0.0
H792 H 0.20225 0.59414 0.52658 0.0
H793 H 0.14625 0.6077 0.57241 0.0
H794 H 0.12137 0.61716 0.53944 0.0
H795 H 0.06006 0.53814 0.47426 0.0
H796 H 0.09464 0.56164 0.47487 0.0
H797 H 0.05371 0.62233 0.4647 0.0
H798 H 0.01895 0.59864 0.46321 0.0
H799 H 0.1077 0.59166 0.5037 0.0
H800 H 0.08695 0.66466 0.43932 0.0
H801 H 0.06383 0.67051 0.40429 0.0
H802 H 0.06826 0.59879 0.38855 0.0
H803 H 0.092 0.5926 0.42306 0.0
C804 C 0.1842 0.67281 0.5047 0.0
C805 C 0.20021 0.67497 0.4868 0.0
C806 C 0.16416 0.65992 0.50165 0.0
C807 C 0.15993 0.64838 0.48084 0.0
C808 C 0.1759 0.65057 0.46291 0.0
C809 C 0.19578 0.66381 0.46582 0.0
C810 C 0.13898 0.63391 0.47788 0.0
C811 C 0.12477 0.63741 0.45864 0.0
C812 C 0.13283 0.6169 0.49408 0.0
C813 C 0.14771 0.6111 0.51393 0.0
C814 C 0.17062 0.60442 0.51051 0.0
C815 C 0.18461 0.59918 0.52931 0.0
C816 C 0.17583 0.60039 0.55159 0.0
C817 C 0.15303 0.60679 0.55513 0.0
C818 C 0.13897 0.61207 0.5364 0.0
C819 C 0.0584 0.55648 0.47191 0.0
C820 C 0.03674 0.56652 0.46872 0.0
C821 C 0.07822 0.56993 0.47234 0.0
C822 C 0.07691 0.59381 0.46984 0.0
C823 C 0.05529 0.60392 0.46633 0.0
C824 C 0.03539 0.59036 0.46552 0.0
C825 C 0.09817 0.60793 0.47188 0.0
C826 C 0.11242 0.60446 0.49105 0.0
C827 C 0.10461 0.62447 0.45527 0.0
C828 C 0.09101 0.62813 0.43399 0.0
C829 C 0.08312 0.65016 0.42832 0.0
C830 C 0.06987 0.65353 0.40856 0.0
C831 C 0.06439 0.63501 0.39433 0.0
C832 C 0.0724 0.61311 0.39966 0.0
C833 C 0.08579 0.60966 0.4193 0.0
H834 H 0.05401 0.63765 0.37913 0.0
H835 H 0.18669 0.59633 0.56612 0.0
H836 H 0.83039 0.81814 0.53735 0.0
H837 H 0.86639 0.83822 0.52952 0.0
H838 H 0.83216 0.87941 0.47836 0.0
H839 H 0.7966 0.85816 0.4851 0.0
H840 H 0.86954 0.8688 0.46145 0.0
H841 H 0.85073 0.89938 0.53526 0.0
H842 H 0.84037 0.89878 0.57631 0.0
H843 H 0.90284 0.86324 0.59207 0.0
H844 H 0.91345 0.86339 0.55106 0.0
H845 H 0.94999 0.96539 0.47426 0.0
H846 H 0.91651 0.94019 0.4776 0.0
H847 H 0.96101 0.88161 0.48319 0.0
H848 H 0.99473 0.90678 0.47931 0.0
H849 H 0.92101 0.8989 0.52237 0.0
H850 H 0.93806 0.87105 0.4443 0.0
H851 H 0.94604 0.87746 0.40316 0.0
H852 H 0.8837 0.91578 0.39647 0.0
H853 H 0.87534 0.90972 0.43756 0.0
C854 C 0.8305 0.83176 0.52473 0.0
C855 C 0.81064 0.83674 0.51199 0.0
C856 C 0.85113 0.84331 0.52025 0.0
C857 C 0.85217 0.86068 0.50349 0.0
C858 C 0.83204 0.86606 0.49127 0.0
C859 C 0.81162 0.85406 0.49528 0.0
C860 C 0.87425 0.87269 0.49807 0.0
C861 C 0.88062 0.87543 0.4749 0.0
C862 C 0.88911 0.88133 0.5154 0.0
C863 C 0.88275 0.88117 0.54006 0.0
C864 C 0.86217 0.89128 0.54746 0.0
C865 C 0.85627 0.89105 0.57072 0.0
C866 C 0.8709 0.88091 0.58678 0.0
C867 C 0.8915 0.87104 0.57961 0.0
C868 C 0.89748 0.87121 0.55636 0.0
C869 C 0.95264 0.94708 0.47564 0.0
C870 C 0.97496 0.93803 0.47641 0.0
C871 C 0.93351 0.93273 0.47756 0.0
C872 C 0.93631 0.90909 0.48065 0.0
C873 C 0.95853 0.89982 0.48066 0.0
C874 C 0.97775 0.91418 0.47829 0.0
C875 C 0.916 0.89473 0.48602 0.0
C876 C 0.90993 0.89182 0.50913 0.0
C877 C 0.90113 0.88655 0.4687 0.0
C878 C 0.9062 0.89014 0.44404 0.0
C879 C 0.92618 0.88104 0.43411 0.0
C880 C 0.93074 0.88455 0.41081 0.0
C881 C 0.91549 0.8971 0.39727 0.0
C882 C 0.89554 0.90609 0.40698 0.0
C883 C 0.89084 0.90258 0.43026 0.0
H884 H 0.91909 0.8998 0.37924 0.0
H885 H 0.8663 0.88076 0.60478 0.0
H886 H 0.30553 0.6773 0.56296 0.0
H887 H 0.34199 0.65702 0.56752 0.0
H888 H 0.35096 0.65678 0.49397 0.0
H889 H 0.31444 0.67648 0.48928 0.0
H890 H 0.3615 0.61743 0.50892 0.0
H891 H 0.3816 0.69298 0.53015 0.0
H892 H 0.38052 0.72993 0.55068 0.0
H893 H 0.39514 0.69577 0.61428 0.0
H894 H 0.39582 0.65852 0.59424 0.0
H895 H 0.49164 0.60597 0.53873 0.0
H896 H 0.45748 0.63053 0.53786 0.0
H897 H 0.41447 0.571 0.54763 0.0
H898 H 0.44837 0.54653 0.54729 0.0
H899 H 0.42284 0.64266 0.56254 0.0
H900 H 0.36681 0.57311 0.51724 0.0
H901 H 0.372 0.54021 0.49111 0.0
H902 H 0.43477 0.56962 0.46611 0.0
H903 H 0.4298 0.60282 0.49185 0.0
C904 C 0.3152 0.67279 0.54775 0.0
C905 C 0.30694 0.67844 0.52574 0.0
C906 C 0.33618 0.66138 0.5504 0.0
C907 C 0.34946 0.65557 0.53112 0.0
C908 C 0.3411 0.66103 0.50915 0.0
C909 C 0.32013 0.67229 0.50649 0.0
C910 C 0.37163 0.64305 0.53362 0.0
C911 C 0.37484 0.62299 0.52071 0.0
C912 C 0.38948 0.65058 0.54845 0.0
C913 C 0.38843 0.67288 0.56072 0.0
C914 C 0.38426 0.69328 0.54857 0.0
C915 C 0.38379 0.7143 0.56011 0.0
C916 C 0.38769 0.71518 0.58377 0.0
C917 C 0.39205 0.69505 0.59596 0.0
C918 C 0.39246 0.67397 0.58452 0.0
C919 C 0.47489 0.59828 0.54109 0.0
C920 C 0.47256 0.57438 0.54289 0.0
C921 C 0.45536 0.61229 0.54055 0.0
C922 C 0.43326 0.60259 0.54202 0.0
C923 C 0.4312 0.57888 0.54568 0.0
C924 C 0.45059 0.56489 0.54566 0.0
C925 C 0.41231 0.61679 0.53829 0.0
C926 C 0.40938 0.63712 0.55089 0.0
C927 C 0.39506 0.61012 0.52241 0.0
C928 C 0.39802 0.59034 0.50664 0.0
C929 C 0.38166 0.5726 0.50609 0.0
C930 C 0.38458 0.55389 0.49137 0.0
C931 C 0.40374 0.55279 0.47702 0.0
C932 C 0.41998 0.57045 0.47729 0.0
C933 C 0.41713 0.58921 0.49196 0.0
H934 H 0.40598 0.53828 0.46565 0.0
H935 H 0.38739 0.73148 0.59266 0.0
H936 H 0.52898 0.70532 0.84346 0.0
H937 H 0.53391 0.6686 0.86257 0.0
H938 H 0.46414 0.65015 0.84582 0.0
H939 H 0.45891 0.6873 0.8268 0.0
H940 H 0.47376 0.63692 0.88783 0.0
H941 H 0.50845 0.62705 0.81568 0.0
H942 H 0.5329 0.63594 0.78232 0.0
H943 H 0.59298 0.63179 0.82487 0.0
H944 H 0.56887 0.62319 0.85858 0.0
H945 H 0.53258 0.51673 0.9031 0.0
H946 H 0.52473 0.54975 0.87821 0.0
H947 H 0.51705 0.5927 0.9381 0.0
H948 H 0.52376 0.55974 0.96283 0.0
H949 H 0.54169 0.58942 0.86888 0.0
H950 H 0.47649 0.63147 0.93221 0.0
H951 H 0.44842 0.61925 0.96143 0.0
H952 H 0.4428 0.55331 0.92907 0.0
H953 H 0.47057 0.56523 0.89946 0.0
C954 C 0.51457 0.69357 0.84393 0.0
C955 C 0.49355 0.69924 0.83348 0.0
C956 C 0.5175 0.67246 0.85474 0.0
C957 C 0.49959 0.65635 0.85518 0.0
C958 C 0.47828 0.66224 0.84553 0.0
C959 C 0.47528 0.6835 0.83474 0.0
C960 C 0.50331 0.63355 0.86599 0.0
C961 C 0.48856 0.6265 0.88363 0.0
C962 C 0.52214 0.61946 0.85994 0.0
C963 C 0.5368 0.62464 0.83973 0.0
C964 C 0.52686 0.62821 0.81798 0.0
C965 C 0.54066 0.63317 0.79899 0.0
C966 C 0.56447 0.63448 0.80149 0.0
C967 C 0.57452 0.63079 0.82297 0.0
C968 C 0.5608 0.62584 0.84202 0.0
C969 C 0.52945 0.5333 0.91089 0.0
C970 C 0.52847 0.53561 0.93491 0.0
C971 C 0.52492 0.55216 0.89666 0.0
C972 C 0.5196 0.57364 0.90625 0.0
C973 C 0.52028 0.5762 0.93023 0.0
C974 C 0.52432 0.55735 0.94439 0.0
C975 C 0.51273 0.59334 0.89147 0.0
C976 C 0.52682 0.59975 0.87301 0.0
C977 C 0.49276 0.60639 0.89616 0.0
C978 C 0.47576 0.5992 0.91372 0.0
C979 C 0.46917 0.61441 0.93125 0.0
C980 C 0.45333 0.60752 0.9479 0.0
C981 C 0.44388 0.5855 0.94714 0.0
C982 C 0.45019 0.57034 0.92968 0.0
C983 C 0.46599 0.57714 0.91297 0.0
H984 H 0.43165 0.5802 0.96006 0.0
H985 H 0.57513 0.63832 0.78677 0.0
H986 H 0.54318 0.82324 0.8327 0.0
H987 H 0.53638 0.85656 0.8575 0.0
H988 H 0.47301 0.82611 0.8808 0.0
H989 H 0.47939 0.79331 0.85573 0.0
H990 H 0.46526 0.8678 0.86887 0.0
H991 H 0.52177 0.83063 0.91563 0.0
H992 H 0.55913 0.81285 0.92427 0.0
H993 H 0.59357 0.87583 0.90773 0.0
H994 H 0.55642 0.89391 0.89871 0.0
H995 H 0.47726 0.94541 0.97717 0.0
H996 H 0.48351 0.90996 0.95562 0.0
H997 H 0.47747 0.94716 0.89198 0.0
H998 H 0.47253 0.98287 0.91348 0.0
H999 H 0.5195 0.90171 0.9252 0.0
H1000 H 0.44994 0.90743 0.85339 0.0
H1001 H 0.40962 0.9189 0.8479 0.0
H1002 H 0.39779 0.91313 0.92043 0.0
H1003 H 0.4379 0.90123 0.92632 0.0
C1004 C 0.52804 0.82351 0.84344 0.0
C1005 C 0.51177 0.80572 0.84218 0.0
C1006 C 0.52414 0.84256 0.85761 0.0
C1007 C 0.50412 0.84391 0.87101 0.0
C1008 C 0.48845 0.82562 0.87048 0.0
C1009 C 0.49218 0.80681 0.85619 0.0
C1010 C 0.49861 0.8648 0.88459 0.0
C1011 C 0.4772 0.87525 0.88112 0.0
C1012 C 0.51399 0.87436 0.90085 0.0
C1013 C 0.53633 0.86354 0.90627 0.0
C1014 C 0.53733 0.84063 0.91366 0.0
C1015 C 0.55846 0.83051 0.91866 0.0
C1016 C 0.57872 0.84318 0.91649 0.0
C1017 C 0.57787 0.86603 0.90937 0.0
C1018 C 0.55678 0.87622 0.90433 0.0
C1019 C 0.47702 0.94602 0.95858 0.0
C1020 C 0.47374 0.96691 0.94701 0.0
C1021 C 0.48062 0.92576 0.94631 0.0
C1022 C 0.4808 0.92591 0.92222 0.0
C1023 C 0.47703 0.94661 0.91057 0.0
C1024 C 0.47382 0.96697 0.92287 0.0
C1025 C 0.48622 0.90466 0.90934 0.0
C1026 C 0.50767 0.8943 0.91283 0.0
C1027 C 0.47068 0.89486 0.89345 0.0
C1028 C 0.44704 0.90371 0.89031 0.0
C1029 C 0.43877 0.90875 0.86819 0.0
C1030 C 0.41592 0.91524 0.865 0.0
C1031 C 0.40114 0.91668 0.8838 0.0
C1032 C 0.40926 0.91197 0.90588 0.0
C1033 C 0.43209 0.90546 0.90917 0.0
H1034 H 0.38339 0.92146 0.88128 0.0
H1035 H 0.59506 0.83532 0.92037 0.0
H1036 H 0.47952 0.31336 0.67337 0.0
H1037 H 0.48462 0.34936 0.65232 0.0
H1038 H 0.55791 0.33947 0.65244 0.0
H1039 H 0.55303 0.30362 0.6734 0.0
H1040 H 0.54625 0.38375 0.66406 0.0
H1041 H 0.5285 0.32923 0.60459 0.0
H1042 H 0.50581 0.2989 0.5856 0.0
H1043 H 0.44772 0.34386 0.58201 0.0
H1044 H 0.46999 0.37437 0.60128 0.0
H1045 H 0.56894 0.47233 0.58043 0.0
H1046 H 0.56797 0.43677 0.60306 0.0
H1047 H 0.49402 0.43594 0.59842 0.0
H1048 H 0.4951 0.47065 0.57535 0.0
H1049 H 0.50875 0.39601 0.58858 0.0
H1050 H 0.52551 0.45042 0.6488 0.0
H1051 H 0.54782 0.48112 0.66767 0.0
H1052 H 0.60685 0.43738 0.67031 0.0
H1053 H 0.585 0.40651 0.65108 0.0
C1054 C 0.4967 0.31876 0.66879 0.0
C1055 C 0.51583 0.30549 0.67499 0.0
C1056 C 0.49961 0.33936 0.65678 0.0
C1057 C 0.52167 0.34708 0.65077 0.0
C1058 C 0.54075 0.3339 0.65696 0.0
C1059 C 0.53788 0.31329 0.66882 0.0
C1060 C 0.52486 0.36876 0.63778 0.0
C1061 C 0.53826 0.3864 0.64744 0.0
C1062 C 0.51424 0.3723 0.61624 0.0
C1063 C 0.50085 0.354 0.60457 0.0
C1064 C 0.51083 0.33259 0.59992 0.0
C1065 C 0.49806 0.31538 0.58907 0.0
C1066 C 0.47532 0.31943 0.58265 0.0
C1067 C 0.46533 0.34073 0.58702 0.0
C1068 C 0.47802 0.35799 0.59788 0.0
C1069 C 0.55256 0.46466 0.58462 0.0
C1070 C 0.53213 0.47417 0.57616 0.0
C1071 C 0.55197 0.44435 0.59751 0.0
C1072 C 0.53088 0.43361 0.60253 0.0
C1073 C 0.51051 0.44367 0.59464 0.0
C1074 C 0.51114 0.46358 0.5815 0.0
C1075 C 0.52964 0.41141 0.61507 0.0
C1076 C 0.51674 0.39351 0.60523 0.0
C1077 C 0.54059 0.40778 0.6365 0.0
C1078 C 0.55366 0.42621 0.64832 0.0
C1079 C 0.54329 0.44739 0.65327 0.0
C1080 C 0.55584 0.46481 0.66403 0.0
C1081 C 0.57872 0.46119 0.67018 0.0
C1082 C 0.58911 0.44014 0.66554 0.0
C1083 C 0.57665 0.42268 0.65471 0.0
H1084 H 0.58835 0.47464 0.67864 0.0
H1085 H 0.46546 0.30608 0.57426 0.0
H1086 H 0.48914 0.20227 0.66555 0.0
H1087 H 0.4807 0.16748 0.64406 0.0
H1088 H 0.55168 0.14742 0.64855 0.0
H1089 H 0.56044 0.18251 0.67034 0.0
H1090 H 0.53094 0.14079 0.60421 0.0
H1091 H 0.51538 0.11846 0.68406 0.0
H1092 H 0.49793 0.12555 0.72206 0.0
H1093 H 0.43157 0.13174 0.69055 0.0
H1094 H 0.44872 0.12498 0.6524 0.0
H1095 H 0.51992 0.02725 0.56989 0.0
H1096 H 0.52767 0.06103 0.59325 0.0
H1097 H 0.45504 0.07431 0.59802 0.0
H1098 H 0.44719 0.03982 0.57483 0.0
H1099 H 0.47587 0.08507 0.63772 0.0
H1100 H 0.489 0.10306 0.55899 0.0
H1101 H 0.50481 0.09802 0.52006 0.0
H1102 H 0.57325 0.1041 0.54683 0.0
H1103 H 0.55786 0.10886 0.586 0.0
C1104 C 0.5031 0.19063 0.66188 0.0
C1105 C 0.5255 0.19517 0.66984 0.0
C1106 C 0.49817 0.17064 0.64966 0.0
C1107 C 0.51545 0.15467 0.64509 0.0
C1108 C 0.53806 0.15949 0.65208 0.0
C1109 C 0.54305 0.17956 0.66446 0.0
C1110 C 0.50964 0.13285 0.63326 0.0
C1111 C 0.51918 0.12842 0.61165 0.0
C1112 C 0.49359 0.1172 0.64258 0.0
C1113 C 0.48325 0.121 0.66548 0.0
C1114 C 0.49706 0.12131 0.68529 0.0
C1115 C 0.48725 0.12531 0.70683 0.0
C1116 C 0.46365 0.12905 0.70872 0.0
C1117 C 0.44983 0.1288 0.68908 0.0
C1118 C 0.45957 0.12481 0.66752 0.0
C1119 C 0.50555 0.03723 0.57608 0.0
C1120 C 0.48293 0.031 0.57042 0.0
C1121 C 0.51002 0.05661 0.58938 0.0
C1122 C 0.49201 0.07065 0.59688 0.0
C1123 C 0.46925 0.06386 0.59227 0.0
C1124 C 0.46474 0.04412 0.57913 0.0
C1125 C 0.4973 0.09278 0.6086 0.0
C1126 C 0.48761 0.09737 0.63018 0.0
C1127 C 0.51293 0.10884 0.59901 0.0
C1128 C 0.52227 0.10612 0.57546 0.0
C1129 C 0.50743 0.10317 0.5566 0.0
C1130 C 0.51632 0.10038 0.53449 0.0
C1131 C 0.54002 0.10069 0.53098 0.0
C1132 C 0.55489 0.10384 0.54958 0.0
C1133 C 0.5461 0.10661 0.57174 0.0
H1134 H 0.54687 0.09853 0.51385 0.0
H1135 H 0.45608 0.13222 0.72537 0.0
H1136 H 0.84871 0.52714 0.7076 0.0
H1137 H 0.86858 0.53431 0.67145 0.0
H1138 H 0.85034 0.46656 0.64779 0.0
H1139 H 0.83094 0.45903 0.68428 0.0
H1140 H 0.8916 0.47556 0.63476 0.0
H1141 H 0.82093 0.51512 0.62977 0.0
H1142 H 0.79003 0.54114 0.64208 0.0
H1143 H 0.83673 0.59813 0.63992 0.0
H1144 H 0.86803 0.57239 0.62797 0.0
H1145 H 0.90382 0.53538 0.51545 0.0
H1146 H 0.88017 0.52877 0.54978 0.0
H1147 H 0.94149 0.52005 0.59039 0.0
H1148 H 0.96496 0.52587 0.55634 0.0
H1149 H 0.87415 0.54666 0.59146 0.0
H1150 H 0.93604 0.47704 0.62725 0.0
H1151 H 0.96332 0.44842 0.61237 0.0
H1152 H 0.92724 0.44673 0.54802 0.0
H1153 H 0.89956 0.47507 0.56262 0.0
C1154 C 0.84913 0.51365 0.69482 0.0
C1155 C 0.83816 0.49253 0.69881 0.0
C1156 C 0.86034 0.51785 0.67404 0.0
C1157 C 0.8605 0.5012 0.6566 0.0
C1158 C 0.85034 0.47975 0.66089 0.0
C1159 C 0.83931 0.47543 0.68181 0.0
C1160 C 0.87121 0.50625 0.63394 0.0
C1161 C 0.88773 0.49109 0.62532 0.0
C1162 C 0.86569 0.52617 0.62113 0.0
C1163 C 0.84688 0.54178 0.62815 0.0
C1164 C 0.82466 0.53318 0.63207 0.0
C1165 C 0.80706 0.54788 0.63897 0.0
C1166 C 0.81143 0.57126 0.64182 0.0
C1167 C 0.83339 0.58 0.63773 0.0
C1168 C 0.85106 0.56537 0.63087 0.0
C1169 C 0.91219 0.5324 0.5318 0.0
C1170 C 0.93622 0.53077 0.53315 0.0
C1171 C 0.89868 0.52858 0.55138 0.0
C1172 C 0.90905 0.52326 0.57256 0.0
C1173 C 0.93307 0.52343 0.57415 0.0
C1174 C 0.94648 0.52688 0.55466 0.0
C1175 C 0.8951 0.51638 0.59283 0.0
C1176 C 0.87793 0.53112 0.60092 0.0
C1177 C 0.89946 0.49569 0.60479 0.0
C1178 C 0.91584 0.47833 0.59599 0.0
C1179 C 0.93385 0.47047 0.60997 0.0
C1180 C 0.9494 0.45431 0.60157 0.0
C1181 C 0.94705 0.44581 0.57924 0.0
C1182 C 0.92909 0.45338 0.56529 0.0
C1183 C 0.91348 0.46951 0.57361 0.0
H1184 H 0.95913 0.43332 0.57277 0.0
H1185 H 0.79778 0.58262 0.64716 0.0
H1186 H 0.18315 0.02576 0.69738 0.0
H1187 H 0.15895 0.02094 0.6634 0.0
H1188 H 0.13994 0.95319 0.6863 0.0
H1189 H 0.16492 0.95757 0.71979 0.0
H1190 H 0.14795 0.95088 0.64367 0.0
H1191 H 0.10266 0.00128 0.68926 0.0
H1192 H 0.09416 0.03554 0.71256 0.0
H1193 H 0.10869 0.07877 0.65472 0.0
H1194 H 0.11757 0.04477 0.63116 0.0
H1195 H 0.03901 0.97831 0.5692 0.0
H1196 H 0.06085 0.97855 0.60505 0.0
H1197 H 0.12372 0.97064 0.56693 0.0
H1198 H 0.10193 0.97127 0.53091 0.0
H1199 H 0.09173 0.00929 0.61843 0.0
H1200 H 0.1622 0.93964 0.60283 0.0
H1201 H 0.16638 0.90073 0.58691 0.0
H1202 H 0.09357 0.89041 0.59134 0.0
H1203 H 0.08898 0.92908 0.60772 0.0
C1204 C 0.17365 0.00992 0.69528 0.0
C1205 C 0.1759 0.99207 0.71132 0.0
C1206 C 0.15973 0.00719 0.67585 0.0
C1207 C 0.14732 0.98678 0.67231 0.0
C1208 C 0.14935 0.96908 0.68852 0.0
C1209 C 0.16356 0.97164 0.70774 0.0
C1210 C 0.13279 0.98359 0.65142 0.0
C1211 C 0.13571 0.96371 0.63812 0.0
C1212 C 0.11635 1.0 0.64441 0.0
C1213 C 0.11098 0.02049 0.65851 0.0
C1214 C 0.1042 0.0181 0.68156 0.0
C1215 C 0.09929 0.03747 0.69481 0.0
C1216 C 0.10094 0.05932 0.68514 0.0
C1217 C 0.10745 0.06184 0.66219 0.0
C1218 C 0.1124 0.04252 0.64888 0.0
C1219 C 0.05748 0.97641 0.56843 0.0
C1220 C 0.0687 0.9743 0.54717 0.0
C1221 C 0.06994 0.97654 0.58896 0.0
C1222 C 0.09392 0.97446 0.58874 0.0
C1223 C 0.10519 0.97186 0.56758 0.0
C1224 C 0.0927 0.97196 0.54697 0.0
C1225 C 0.10715 0.97671 0.61053 0.0
C1226 C 0.10406 0.99651 0.62392 0.0
C1227 C 0.12287 0.95986 0.618 0.0
C1228 C 0.12523 0.93741 0.60626 0.0
C1229 C 0.14706 0.92914 0.60025 0.0
C1230 C 0.14951 0.90707 0.59123 0.0
C1231 C 0.13026 0.89309 0.58816 0.0
C1232 C 0.10847 0.90127 0.59376 0.0
C1233 C 0.10592 0.92331 0.60282 0.0
H1234 H 0.1322 0.87591 0.58144 0.0
H1235 H 0.09713 0.07429 0.69543 0.0
H1236 H 0.83317 0.5377 0.82228 0.0
H1237 H 0.854 0.53165 0.85839 0.0
H1238 H 0.86125 0.45994 0.84202 0.0
H1239 H 0.84037 0.46575 0.8062 0.0
H1240 H 0.8485 0.46507 0.88584 0.0
H1241 H 0.90616 0.49725 0.83603 0.0
H1242 H 0.92256 0.52618 0.80989 0.0
H1243 H 0.91802 0.57715 0.86294 0.0
H1244 H 0.90132 0.54857 0.88932 0.0
H1245 H 0.96554 0.47173 0.95364 0.0
H1246 H 0.94188 0.47484 0.91919 0.0
H1247 H 0.88118 0.47936 0.96137 0.0
H1248 H 0.90493 0.47502 0.99592 0.0
H1249 H 0.91912 0.50855 0.90519 0.0
H1250 H 0.83303 0.46694 0.92942 0.0
H1251 H 0.81739 0.43612 0.9538 0.0
H1252 H 0.88136 0.40008 0.94976 0.0
H1253 H 0.89733 0.43059 0.92512 0.0
C1254 C 0.83936 0.52069 0.82629 0.0
C1255 C 0.83514 0.50225 0.81125 0.0
C1256 C 0.85125 0.51723 0.84696 0.0
C1257 C 0.85925 0.49532 0.85295 0.0
C1258 C 0.85516 0.47697 0.83789 0.0
C1259 C 0.84331 0.48038 0.81729 0.0
C1260 C 0.87201 0.49134 0.87479 0.0
C1261 C 0.86395 0.47458 0.89012 0.0
C1262 C 0.89221 0.50365 0.88037 0.0
C1263 C 0.90227 0.52084 0.86456 0.0
C1264 C 0.9085 0.51467 0.84206 0.0
C1265 C 0.91788 0.531 0.82721 0.0
C1266 C 0.92127 0.55351 0.83473 0.0
C1267 C 0.91535 0.55972 0.85713 0.0
C1268 C 0.90594 0.54347 0.87204 0.0
C1269 C 0.94708 0.47286 0.95551 0.0
C1270 C 0.93704 0.47297 0.97741 0.0
C1271 C 0.93355 0.47481 0.93581 0.0
C1272 C 0.90965 0.4774 0.93749 0.0
C1273 C 0.89949 0.47696 0.95943 0.0
C1274 C 0.91306 0.47446 0.97921 0.0
C1275 C 0.89592 0.48189 0.91627 0.0
C1276 C 0.90368 0.49896 0.90106 0.0
C1277 C 0.87564 0.46961 0.91069 0.0
C1278 C 0.86642 0.45115 0.92558 0.0
C1279 C 0.84375 0.45242 0.9337 0.0
C1280 C 0.83483 0.43502 0.94756 0.0
C1281 C 0.84838 0.41619 0.95332 0.0
C1282 C 0.87091 0.41473 0.9453 0.0
C1283 C 0.87992 0.43209 0.93141 0.0
H1284 H 0.84132 0.40271 0.96391 0.0
H1285 H 0.92854 0.56612 0.82321 0.0
H1286 H 0.1818 0.99496 0.82546 0.0
H1287 H 0.15925 1.00043 0.86019 0.0
H1288 H 0.15447 0.07279 0.84593 0.0
H1289 H 0.17789 0.06751 0.81134 0.0
H1290 H 0.16125 0.06742 0.88993 0.0
H1291 H 0.10822 0.0354 0.83696 0.0
H1292 H 0.09338 0.00847 0.80781 0.0
H1293 H 0.09783 0.95322 0.85622 0.0
H1294 H 0.113 0.97976 0.88559 0.0
H1295 H 0.07238 0.07564 0.97756 0.0
H1296 H 0.09521 0.07815 0.94212 0.0
H1297 H 0.11048 0.006 0.94711 0.0
H1298 H 0.08729 0.00348 0.98193 0.0
H1299 H 0.09538 0.01583 0.90562 0.0
H1300 H 0.14952 0.0511 0.95875 0.0
H1301 H 0.15941 0.08065 0.98727 0.0
H1302 H 0.14936 0.13321 0.93668 0.0
H1303 H 0.13846 0.10392 0.90805 0.0
C1304 C 0.17587 0.01205 0.82957 0.0
C1305 C 0.18152 0.03076 0.81543 0.0
C1306 C 0.16287 0.01516 0.84948 0.0
C1307 C 0.15469 0.03698 0.85559 0.0
C1308 C 0.16046 0.05577 0.84162 0.0
C1309 C 0.17376 0.0527 0.82177 0.0
C1310 C 0.14029 0.03993 0.87661 0.0
C1311 C 0.14665 0.05633 0.8932 0.0
C1312 C 0.12112 0.02561 0.88101 0.0
C1313 C 0.11192 0.00956 0.86343 0.0
C1314 C 0.10618 0.01748 0.84135 0.0
C1315 C 0.09769 0.00229 0.82479 0.0
C1316 C 0.09471 0.97914 0.83014 0.0
C1317 C 0.10016 0.97115 0.85209 0.0
C1318 C 0.10868 0.98627 0.86871 0.0
C1319 C 0.08127 0.06057 0.97142 0.0
C1320 C 0.07848 0.03946 0.98263 0.0
C1321 C 0.09416 0.06193 0.95107 0.0
C1322 C 0.10465 0.04224 0.94185 0.0
C1323 C 0.10251 0.02141 0.95371 0.0
C1324 C 0.08946 0.02001 0.97374 0.0
C1325 C 0.11689 0.04263 0.91932 0.0
C1326 C 0.10997 0.02694 0.90233 0.0
C1327 C 0.13519 0.0579 0.91445 0.0
C1328 C 0.14295 0.07533 0.93132 0.0
C1329 C 0.14933 0.06896 0.95372 0.0
C1330 C 0.15509 0.08569 0.96992 0.0
C1331 C 0.15507 0.10884 0.96378 0.0
C1332 C 0.14935 0.11528 0.94141 0.0
C1333 C 0.14331 0.09862 0.9252 0.0
H1334 H 0.15942 0.12184 0.97634 0.0
H1335 H 0.08813 0.9674 0.8173 0.0
H1336 H 0.69953 0.83295 0.53774 0.0
H1337 H 0.66332 0.85294 0.54384 0.0
H1338 H 0.65563 0.86171 0.47072 0.0
H1339 H 0.69197 0.84153 0.46438 0.0
H1340 H 0.6455 0.90127 0.49566 0.0
H1341 H 0.62583 0.82115 0.49745 0.0
H1342 H 0.62926 0.78129 0.51097 0.0
H1343 H 0.61197 0.80253 0.57941 0.0
H1344 H 0.60883 0.84262 0.56637 0.0
H1345 H 0.5312 0.93248 0.48602 0.0
H1346 H 0.56643 0.9104 0.48379 0.0
H1347 H 0.56552 0.901 0.55725 0.0
H1348 H 0.52958 0.92306 0.55955 0.0
H1349 H 0.58074 0.86233 0.53498 0.0
H1350 H 0.59955 0.94181 0.53397 0.0
H1351 H 0.59686 0.98207 0.52149 0.0
H1352 H 0.61674 0.9627 0.4532 0.0
H1353 H 0.61922 0.92225 0.46519 0.0
C1354 C 0.69029 0.83925 0.52289 0.0
C1355 C 0.69873 0.83558 0.50052 0.0
C1356 C 0.66947 0.85058 0.52645 0.0
C1357 C 0.65658 0.85859 0.50775 0.0
C1358 C 0.66524 0.85559 0.48542 0.0
C1359 C 0.68602 0.84406 0.48182 0.0
C1360 C 0.63405 0.87002 0.51153 0.0
C1361 C 0.63126 0.89265 0.504 0.0
C1362 C 0.61569 0.85907 0.52316 0.0
C1363 C 0.61733 0.83494 0.53098 0.0
C1364 C 0.62295 0.81736 0.51542 0.0
C1365 C 0.62481 0.79472 0.523 0.0
C1366 C 0.6209 0.78939 0.54605 0.0
C1367 C 0.61504 0.80669 0.56157 0.0
C1368 C 0.6132 0.82938 0.55409 0.0
C1369 C 0.53831 0.92556 0.50176 0.0
C1370 C 0.52768 0.92976 0.52303 0.0
C1371 C 0.55855 0.91297 0.50044 0.0
C1372 C 0.56904 0.90451 0.52039 0.0
C1373 C 0.55786 0.90752 0.54162 0.0
C1374 C 0.5373 0.92006 0.54293 0.0
C1375 C 0.59207 0.89349 0.51877 0.0
C1376 C 0.595 0.87099 0.52674 0.0
C1377 C 0.6107 0.90462 0.50772 0.0
C1378 C 0.60939 0.92896 0.50045 0.0
C1379 C 0.6032 0.94611 0.51625 0.0
C1380 C 0.60173 0.96897 0.50927 0.0
C1381 C 0.60658 0.97493 0.48656 0.0
C1382 C 0.61297 0.95805 0.47079 0.0
C1383 C 0.61443 0.93515 0.47768 0.0
H1384 H 0.60544 0.99264 0.48118 0.0
H1385 H 0.62235 0.77185 0.55188 0.0
H1386 H 0.70151 0.16415 0.9682 0.0
H1387 H 0.66457 0.14509 0.96357 0.0
H1388 H 0.64733 0.16132 0.03374 0.0
H1389 H 0.68454 0.18044 0.03862 0.0
H1390 H 0.63483 0.1192 0.02416 0.0
H1391 H 0.6235 0.19118 0.99003 0.0
H1392 H 0.63019 0.22485 0.96536 0.0
H1393 H 0.6228 0.18284 0.9052 0.0
H1394 H 0.61648 0.14882 0.92948 0.0
H1395 H 0.5122 0.10258 0.97238 0.0
H1396 H 0.54558 0.12789 0.97729 0.0
H1397 H 0.5897 0.06876 0.98135 0.0
H1398 H 0.55642 0.0436 0.97726 0.0
H1399 H 0.58464 0.13774 0.9578 0.0
H1400 H 0.62969 0.07472 0.02116 0.0
H1401 H 0.61875 0.04524 0.04946 0.0
H1402 H 0.55284 0.07685 0.05769 0.0
H1403 H 0.5635 0.1067 0.02971 0.0
C1404 C 0.69 0.16352 0.98278 0.0
C1405 C 0.69602 0.17388 0.00381 0.0
C1406 C 0.66875 0.1528 0.98 0.0
C1407 C 0.65294 0.15222 0.99812 0.0
C1408 C 0.65919 0.16174 0.01944 0.0
C1409 C 0.68052 0.17254 0.02225 0.0
C1410 C 0.63019 0.14111 0.99481 0.0
C1411 C 0.62386 0.12331 0.00968 0.0
C1412 C 0.61539 0.14701 0.97638 0.0
C1413 C 0.61975 0.16734 0.96163 0.0
C1414 C 0.62358 0.18904 0.97154 0.0
C1415 C 0.62725 0.20822 0.95763 0.0
C1416 C 0.62699 0.20597 0.93374 0.0
C1417 C 0.62306 0.18454 0.92372 0.0
C1418 C 0.61943 0.1653 0.93755 0.0
C1419 C 0.52911 0.09508 0.97378 0.0
C1420 C 0.53177 0.07117 0.97456 0.0
C1421 C 0.54815 0.10953 0.97672 0.0
C1422 C 0.5701 0.10023 0.98035 0.0
C1423 C 0.57288 0.07635 0.9793 0.0
C1424 C 0.55389 0.06198 0.97679 0.0
C1425 C 0.58995 0.11513 0.9865 0.0
C1426 C 0.59564 0.1337 0.97228 0.0
C1427 C 0.60375 0.11054 0.00604 0.0
C1428 C 0.59735 0.09284 0.02318 0.0
C1429 C 0.61291 0.07545 0.0291 0.0
C1430 C 0.60675 0.05866 0.04507 0.0
C1431 C 0.5851 0.05913 0.05532 0.0
C1432 C 0.56958 0.07646 0.04969 0.0
C1433 C 0.57567 0.0933 0.03376 0.0
H1434 H 0.58035 0.0461 0.06766 0.0
H1435 H 0.62979 0.22083 0.92299 0.0
H1436 H 0.2958 0.35792 0.99482 0.0
H1437 H 0.33182 0.37738 0.98591 0.0
H1438 H 0.36677 0.33618 0.0365 0.0
H1439 H 0.33033 0.31748 0.0463 0.0
H1440 H 0.38546 0.376 0.03646 0.0
H1441 H 0.3675 0.32302 0.9774 0.0
H1442 H 0.34393 0.30371 0.94793 0.0
H1443 H 0.33964 0.3664 0.90966 0.0
H1444 H 0.36288 0.3862 0.9391 0.0
H1445 H 0.49372 0.40147 0.97936 0.0
H1446 H 0.46029 0.37678 0.98728 0.0
H1447 H 0.41501 0.43286 0.97136 0.0
H1448 H 0.44819 0.45774 0.96444 0.0
H1449 H 0.40508 0.38068 0.95361 0.0
H1450 H 0.41901 0.43307 0.01976 0.0
H1451 H 0.44507 0.44917 0.04911 0.0
H1452 H 0.46039 0.38137 0.07316 0.0
H1453 H 0.43465 0.36488 0.04368 0.0
C1454 C 0.31109 0.3534 0.0044 0.0
C1455 C 0.31032 0.33619 0.02121 0.0
C1456 C 0.33174 0.36432 0.99911 0.0
C1457 C 0.35224 0.35771 0.00993 0.0
C1458 C 0.35126 0.34145 0.02773 0.0
C1459 C 0.33042 0.33086 0.03342 0.0
C1460 C 0.37463 0.36726 0.00207 0.0
C1461 C 0.38979 0.37665 0.01836 0.0
C1462 C 0.38065 0.368 0.97844 0.0
C1463 C 0.3668 0.35614 0.96056 0.0
C1464 C 0.36142 0.33273 0.96277 0.0
C1465 C 0.34812 0.32169 0.94607 0.0
C1466 C 0.34026 0.33383 0.92696 0.0
C1467 C 0.34573 0.35703 0.92449 0.0
C1468 C 0.35898 0.36816 0.94117 0.0
C1469 C 0.4766 0.40827 0.97697 0.0
C1470 C 0.47342 0.43143 0.9713 0.0
C1471 C 0.45759 0.39424 0.9816 0.0
C1472 C 0.43528 0.40312 0.97998 0.0
C1473 C 0.43212 0.42575 0.97266 0.0
C1474 C 0.45104 0.4399 0.96869 0.0
C1475 C 0.41522 0.38976 0.98794 0.0
C1476 C 0.40064 0.37966 0.97168 0.0
C1477 C 0.41 0.38784 0.01154 0.0
C1478 C 0.42518 0.39776 0.02938 0.0
C1479 C 0.42812 0.42161 0.03117 0.0
C1480 C 0.44279 0.4308 0.04785 0.0
C1481 C 0.45444 0.4163 0.06294 0.0
C1482 C 0.45139 0.39258 0.06143 0.0
C1483 C 0.43677 0.3833 0.04475 0.0
H1484 H 0.46579 0.42344 0.07585 0.0
H1485 H 0.32997 0.32526 0.91404 0.0
H1486 H 0.81839 0.17283 0.9571 0.0
H1487 H 0.85298 0.15033 0.96521 0.0
H1488 H 0.83702 0.15148 0.0375 0.0
H1489 H 0.80248 0.17355 0.02959 0.0
H1490 H 0.89094 0.15955 0.99075 0.0
H1491 H 0.85378 0.10155 0.06199 0.0
H1492 H 0.81672 0.08452 0.0734 0.0
H1493 H 0.7937 0.08647 0.00333 0.0
H1494 H 0.83072 0.10321 0.99147 0.0
H1495 H 0.98466 0.09994 0.04156 0.0
H1496 H 0.95003 0.12319 0.03726 0.0
H1497 H 0.91475 0.06507 0.00767 0.0
H1498 H 0.94856 0.04145 0.01387 0.0
H1499 H 0.88636 0.08608 0.03327 0.0
H1500 H 0.94035 0.11096 0.97515 0.0
H1501 H 0.9773 0.12654 0.96154 0.0
H1502 H 0.96623 0.18809 1.00044 0.0
H1503 H 0.92929 0.1728 0.01437 0.0
C1504 C 0.82217 0.16815 0.97469 0.0
C1505 C 0.80753 0.1749 0.99265 0.0
C1506 C 0.84203 0.15541 0.97933 0.0
C1507 C 0.84755 0.14904 0.00196 0.0
C1508 C 0.83301 0.15588 0.01987 0.0
C1509 C 0.81323 0.16857 0.01528 0.0
C1510 C 0.8684 0.13517 0.00694 0.0
C1511 C 0.88994 0.14347 1.00003 0.0
C1512 C 0.86718 0.11415 0.019 0.0
C1513 C 0.84494 0.10385 0.0259 0.0
C1514 C 0.84083 0.09826 0.04901 0.0
C1515 C 0.81983 0.08868 0.05556 0.0
C1516 C 0.80284 0.08449 0.03911 0.0
C1517 C 0.80684 0.08981 0.01607 0.0
C1518 C 0.82782 0.09937 0.00943 0.0
C1519 C 0.96925 0.09192 0.03504 0.0
C1520 C 0.96925 0.06867 0.02871 0.0
C1521 C 0.94957 0.10538 0.03203 0.0
C1522 C 0.92972 0.09604 0.02182 0.0
C1523 C 0.92971 0.07277 0.01564 0.0
C1524 C 0.94918 0.05927 0.01906 0.0
C1525 C 0.90903 0.11032 0.01698 0.0
C1526 C 0.88745 0.10218 0.02404 0.0
C1527 C 0.91022 0.13129 0.00472 0.0
C1528 C 0.93221 0.14063 0.99601 0.0
C1529 C 0.94586 0.12777 0.98088 0.0
C1530 C 0.96679 0.13656 0.97309 0.0
C1531 C 0.97414 0.15826 0.98018 0.0
C1532 C 0.96054 0.17127 0.99499 0.0
C1533 C 0.9396 0.16256 0.00282 0.0
H1534 H 0.99036 0.16502 0.97415 0.0
H1535 H 0.78658 0.07708 0.04422 0.0
H1536 H 0.93841 0.19815 0.245 0.0
H1537 H 0.92949 0.17499 0.21069 0.0
H1538 H 0.99404 0.19498 0.18062 0.0
H1539 H 0.00337 0.21735 0.21489 0.0
H1540 H 0.95031 0.19657 0.15023 0.0
H1541 H 0.99659 0.14845 0.20374 0.0
H1542 H 0.00173 0.12965 0.24133 0.0
H1543 H 0.93676 0.09561 0.23342 0.0
H1544 H 0.93115 0.11449 0.19589 0.0
H1545 H 0.01915 0.13308 0.0815 0.0
H1546 H 0.99452 0.1563 0.10562 0.0
H1547 H 0.95029 0.09794 0.11706 0.0
H1548 H 0.97544 0.07444 0.09273 0.0
H1549 H 0.96546 0.11319 0.15621 0.0
H1550 H 0.92792 0.14878 0.09596 0.0
H1551 H 0.92232 0.16603 0.05781 0.0
H1552 H 0.9655 0.2227 0.07686 0.0
H1553 H 0.97179 0.2056 0.115 0.0
C1554 C 0.95063 0.19758 0.23102 0.0
C1555 C 0.97169 0.20933 0.23269 0.0
C1556 C 0.94546 0.18449 0.21145 0.0
C1557 C 0.96101 0.18353 0.19309 0.0
C1558 C 0.98173 0.19573 0.19453 0.0
C1559 C 0.98714 0.20827 0.21422 0.0
C1560 C 0.95706 0.16841 0.17304 0.0
C1561 C 0.95334 0.17829 0.15138 0.0
C1562 C 0.95985 0.14446 0.17479 0.0
C1563 C 0.96332 0.13308 0.19723 0.0
C1564 C 0.98332 0.13712 0.21014 0.0
C1565 C 0.98634 0.12642 0.2314 0.0
C1566 C 0.96954 0.1115 0.2398 0.0
C1567 C 0.94973 0.10721 0.22692 0.0
C1568 C 0.94662 0.1179 0.20567 0.0
C1569 C 0.00357 0.12549 0.08827 0.0
C1570 C 0.99917 0.10205 0.08539 0.0
C1571 C 0.98937 0.13881 0.10205 0.0
C1572 C 0.97047 0.12892 0.11328 0.0
C1573 C 0.96476 0.10594 0.10858 0.0
C1574 C 0.97899 0.09258 0.09455 0.0
C1575 C 0.9601 0.14146 0.13294 0.0
C1576 C 0.96123 0.13122 0.15474 0.0
C1577 C 0.95439 0.16498 0.13123 0.0
C1578 C 0.9503 0.17586 0.10847 0.0
C1579 C 0.9363 0.16489 0.09204 0.0
C1580 C 0.93302 0.17464 0.07037 0.0
C1581 C 0.94354 0.19546 0.06491 0.0
C1582 C 0.95732 0.2066 0.08114 0.0
C1583 C 0.9607 0.1969 0.10283 0.0
H1584 H 0.94103 0.20297 0.0481 0.0
H1585 H 0.97191 0.10323 0.25626 0.0
H1586 H 0.06087 0.28279 0.22934 0.0
H1587 H 0.06755 0.30771 0.1961 0.0
H1588 H 0.99658 0.32836 0.1975 0.0
H1589 H 0.9898 0.30373 0.2306 0.0
H1590 H 0.04806 0.30702 0.15309 0.0
H1591 H 0.99199 0.38332 0.18429 0.0
H1592 H 0.98238 0.40249 0.22078 0.0
H1593 H 0.04572 0.37935 0.25038 0.0
H1594 H 0.05588 0.36032 0.21397 0.0
H1595 H 0.98175 0.36645 0.07367 0.0
H1596 H 0.00378 0.34387 0.10092 0.0
H1597 H 0.04466 0.40336 0.11774 0.0
H1598 H 0.02224 0.42622 0.09054 0.0
H1599 H 0.02351 0.3883 0.15419 0.0
H1600 H 0.06891 0.35367 0.09766 0.0
H1601 H 0.07838 0.33454 0.06116 0.0
H1602 H 0.04011 0.27515 0.08163 0.0
H1603 H 0.02933 0.2942 0.11776 0.0
C1604 C 0.04674 0.29279 0.22267 0.0
C1605 C 0.0248 0.29132 0.2327 0.0
C1606 C 0.05058 0.30694 0.20362 0.0
C1607 C 0.03264 0.32007 0.19446 0.0
C1608 C 0.01078 0.31865 0.20449 0.0
C1609 C 0.0069 0.30448 0.22339 0.0
C1610 C 0.03623 0.33493 0.17408 0.0
C1611 C 0.04293 0.32486 0.15322 0.0
C1612 C 0.03041 0.35843 0.17456 0.0
C1613 C 0.02466 0.37031 0.19638 0.0
C1614 C 0.00396 0.38247 0.19851 0.0
C1615 C 0.99839 0.39328 0.21921 0.0
C1616 C 0.01341 0.39211 0.2379 0.0
C1617 C 0.03407 0.38019 0.23591 0.0
C1618 C 0.03973 0.36938 0.21525 0.0
C1619 C 0.99605 0.37451 0.08247 0.0
C1620 C 1.00007 0.39815 0.08024 0.0
C1621 C 0.00876 0.36153 0.09801 0.0
C1622 C 0.02581 0.37192 0.11158 0.0
C1623 C 0.03153 0.39499 0.10752 0.0
C1624 C 0.01881 0.40801 0.09185 0.0
C1625 C 0.03384 0.36004 0.1327 0.0
C1626 C 0.02929 0.37065 0.15388 0.0
C1627 C 0.0418 0.33711 0.13241 0.0
C1628 C 0.04827 0.32546 0.11058 0.0
C1629 C 0.06229 0.33661 0.09436 0.0
C1630 C 0.06791 0.32577 0.0737 0.0
C1631 C 0.06005 0.3036 0.06918 0.0
C1632 C 0.0463 0.29229 0.0852 0.0
C1633 C 0.04035 0.30314 0.10577 0.0
H1634 H 0.06456 0.29522 0.05322 0.0
H1635 H 0.00905 0.40045 0.25392 0.0
H1636 H 0.975 0.81491 0.26674 0.0
H1637 H 0.97515 0.83718 0.30219 0.0
H1638 H 0.03318 0.79855 0.32674 0.0
H1639 H 0.03315 0.77599 0.29102 0.0
H1640 H 0.99657 0.80288 0.35907 0.0
H1641 H 0.04177 0.85065 0.30884 0.0
H1642 H 0.04929 0.87201 0.27309 0.0
H1643 H 0.99039 0.91421 0.28559 0.0
H1644 H 0.98226 0.89281 0.32121 0.0
H1645 H 0.04535 0.87244 0.44446 0.0
H1646 H 0.03045 0.84651 0.41542 0.0
H1647 H 0.98212 0.89816 0.39386 0.0
H1648 H 0.99729 0.92433 0.42317 0.0
H1649 H 0.008 0.88711 0.35986 0.0
H1650 H 0.96542 0.84278 0.41284 0.0
H1651 H 0.95657 0.82089 0.44784 0.0
H1652 H 0.00859 0.77187 0.43064 0.0
H1653 H 0.01808 0.79373 0.39573 0.0
C1654 C 0.98798 0.81126 0.27956 0.0
C1655 C 0.00412 0.79372 0.27608 0.0
C1656 C 0.988 0.82401 0.29982 0.0
C1657 C 0.00413 0.81948 0.31708 0.0
C1658 C 0.02054 0.80222 0.3136 0.0
C1659 C 0.02067 0.78954 0.29314 0.0
C1660 C 0.00367 0.8328 0.33875 0.0
C1661 C 0.99934 0.82127 0.35943 0.0
C1662 C 0.00622 0.85689 0.33887 0.0
C1663 C 0.01127 0.86996 0.31758 0.0
C1664 C 0.03031 0.86435 0.30387 0.0
C1665 C 0.0347 0.87649 0.28364 0.0
C1666 C 0.0203 0.89442 0.27705 0.0
C1667 C 0.00151 0.90029 0.2907 0.0
C1668 C 0.99701 0.88817 0.31092 0.0
C1669 C 0.03077 0.87785 0.43431 0.0
C1670 C 0.0226 0.90041 0.43588 0.0
C1671 C 0.02217 0.86295 0.41765 0.0
C1672 C 0.00516 0.87031 0.40228 0.0
C1673 C 0.99522 0.89204 0.40553 0.0
C1674 C 0.00376 0.90696 0.4224 0.0
C1675 C 1.0013 0.85723 0.38065 0.0
C1676 C 0.00486 0.86878 0.35976 0.0
C1677 C 0.99794 0.83315 0.38041 0.0
C1678 C 0.99256 0.82007 0.40165 0.0
C1679 C 0.97515 0.8275 0.4166 0.0
C1680 C 0.96998 0.81504 0.43643 0.0
C1681 C 0.98202 0.795 0.44148 0.0
C1682 C 0.99927 0.78739 0.42671 0.0
C1683 C 0.00454 0.79982 0.40688 0.0
H1684 H 0.97797 0.78534 0.45681 0.0
H1685 H 0.02373 0.90379 0.26139 0.0
H1686 H 0.97029 0.68573 0.25107 0.0
H1687 H 0.9707 0.66235 0.28563 0.0
H1688 H 0.92953 0.71287 0.3206 0.0
H1689 H 0.92939 0.7366 0.28569 0.0
H1690 H 0.96708 0.70453 0.34424 0.0
H1691 H 0.90963 0.65775 0.31134 0.0
H1692 H 0.88903 0.6342 0.28277 0.0
H1693 H 0.94502 0.5866 0.28115 0.0
H1694 H 0.96615 0.61004 0.30944 0.0
H1695 H 0.9519 0.62818 0.44052 0.0
H1696 H 0.95175 0.65643 0.40964 0.0
H1697 H 0.00167 0.61639 0.37267 0.0
H1698 H 0.00207 0.58818 0.40393 0.0
H1699 H 0.95792 0.62038 0.35147 0.0
H1700 H 0.01423 0.66934 0.38714 0.0
H1701 H 0.03074 0.69275 0.41839 0.0
H1702 H 0.97169 0.73648 0.41733 0.0
H1703 H 0.95447 0.71303 0.38651 0.0
C1704 C 0.96051 0.69138 0.26584 0.0
C1705 C 0.94966 0.71282 0.26575 0.0
C1706 C 0.96077 0.67801 0.28563 0.0
C1707 C 0.95018 0.68582 0.30579 0.0
C1708 C 0.93783 0.70651 0.30523 0.0
C1709 C 0.93746 0.71991 0.28524 0.0
C1710 C 0.95469 0.67374 0.32779 0.0
C1711 C 0.96465 0.68618 0.34599 0.0
C1712 C 0.95198 0.64972 0.32992 0.0
C1713 C 0.9396 0.63583 0.31239 0.0
C1714 C 0.9177 0.64241 0.3047 0.0
C1715 C 0.90588 0.62904 0.28859 0.0
C1716 C 0.91573 0.60895 0.2801 0.0
C1717 C 0.93742 0.60218 0.28772 0.0
C1718 C 0.94932 0.61551 0.3038 0.0
C1719 C 0.96388 0.62617 0.42645 0.0
C1720 C 0.97714 0.60622 0.42457 0.0
C1721 C 0.96366 0.64223 0.40873 0.0
C1722 C 0.97651 0.63836 0.38879 0.0
C1723 C 0.99163 0.61964 0.38797 0.0
C1724 C 0.99209 0.6037 0.40592 0.0
C1725 C 0.97073 0.65109 0.36757 0.0
C1726 C 0.96037 0.63873 0.34962 0.0
C1727 C 0.97257 0.67519 0.36596 0.0
C1728 C 0.98293 0.68924 0.38461 0.0
C1729 C 0.00461 0.68378 0.39373 0.0
C1730 C 0.01413 0.69709 0.41134 0.0
C1731 C 0.00226 0.71605 0.41984 0.0
C1732 C 0.98084 0.72176 0.41075 0.0
C1733 C 0.97119 0.70846 0.39322 0.0
H1734 H 0.00969 0.72633 0.43345 0.0
H1735 H 0.90654 0.59861 0.26767 0.0
H1736 H 0.22796 0.94845 0.21907 0.0
H1737 H 0.19417 0.94008 0.19521 0.0
H1738 H 0.18932 0.0116 0.17734 0.0
H1739 H 0.22289 0.02006 0.20087 0.0
H1740 H 0.15006 0.95612 0.19868 0.0
H1741 H 0.17286 0.01742 0.12311 0.0
H1742 H 0.20729 0.03039 0.10225 0.0
H1743 H 0.24254 0.96878 0.12141 0.0
H1744 H 0.2082 0.95525 0.14209 0.0
H1745 H 0.06259 0.01833 0.14725 0.0
H1746 H 0.09255 0.99733 0.16701 0.0
H1747 H 0.10945 0.96229 0.10396 0.0
H1748 H 0.07968 0.98398 0.08384 0.0
H1749 H 0.14486 0.98424 0.11851 0.0
H1750 H 0.09292 0.93425 0.15402 0.0
H1751 H 0.05793 0.92242 0.17445 0.0
H1752 H 0.08035 0.9583 0.23478 0.0
H1753 H 0.11483 0.97166 0.21441 0.0
C1754 C 0.21979 0.96235 0.20989 0.0
C1755 C 0.22819 0.98493 0.21183 0.0
C1756 C 0.20045 0.95754 0.19635 0.0
C1757 C 0.18938 0.97516 0.18429 0.0
C1758 C 0.1978 0.99765 0.18618 0.0
C1759 C 0.21698 0.00248 0.19974 0.0
C1760 C 0.16856 0.9706 0.17024 0.0
C1761 C 0.14882 0.96201 0.18107 0.0
C1762 C 0.1673 0.9775 0.147 0.0
C1763 C 0.18793 0.98535 0.13424 0.0
C1764 C 0.18788 0.00654 0.12274 0.0
C1765 C 0.20741 0.01402 0.11098 0.0
C1766 C 0.2271 1.00043 0.11054 0.0
C1767 C 0.22729 0.97931 0.12181 0.0
C1768 C 0.2078 0.97174 0.13358 0.0
C1769 C 0.07205 0.00549 0.13775 0.0
C1770 C 0.06912 0.00317 0.1139 0.0
C1771 C 0.08918 0.99333 0.14914 0.0
C1772 C 0.10352 0.97833 0.13698 0.0
C1773 C 0.09873 0.9739 0.11369 0.0
C1774 C 0.08157 0.98618 0.10222 0.0
C1775 C 0.12574 0.97126 0.14741 0.0
C1776 C 0.14593 0.97768 0.1359 0.0
C1777 C 0.1273 0.96229 0.17 0.0
C1778 C 0.10664 0.95399 0.18257 0.0
C1779 C 0.09038 0.93982 0.17158 0.0
C1780 C 0.07059 0.93282 0.18317 0.0
C1781 C 0.06704 0.93935 0.20595 0.0
C1782 C 0.08317 0.95315 0.21715 0.0
C1783 C 0.10282 0.96054 0.20554 0.0
H1784 H 0.05175 0.93377 0.2149 0.0
H1785 H 0.2422 0.00627 0.10145 0.0
H1786 H 0.75517 0.49372 0.18837 0.0
H1787 H 0.79274 0.49287 0.16929 0.0
H1788 H 0.82567 0.48151 0.23464 0.0
H1789 H 0.78798 0.48144 0.25364 0.0
H1790 H 0.84105 0.52271 0.20292 0.0
H1791 H 0.8309 0.44063 0.20826 0.0
H1792 H 0.80933 0.40454 0.20343 0.0
H1793 H 0.8048 0.41629 0.13082 0.0
H1794 H 0.82618 0.45264 0.13522 0.0
H1795 H 0.94645 0.46524 0.14724 0.0
H1796 H 0.91677 0.47473 0.17514 0.0
H1797 H 0.88285 0.51672 0.12471 0.0
H1798 H 0.91275 0.50734 0.09661 0.0
H1799 H 0.8695 0.46086 0.15198 0.0
H1800 H 0.85247 0.5559 0.17482 0.0
H1801 H 0.87364 0.59196 0.18143 0.0
H1802 H 0.93399 0.55396 0.19943 0.0
H1803 H 0.91303 0.5177 0.19361 0.0
C1804 C 0.7704 0.49026 0.19847 0.0
C1805 C 0.76881 0.48707 0.2223 0.0
C1806 C 0.79179 0.49003 0.18765 0.0
C1807 C 0.81188 0.48731 0.20064 0.0
C1808 C 0.8103 0.48365 0.2244 0.0
C1809 C 0.78883 0.48327 0.23514 0.0
C1810 C 0.83452 0.48899 0.18933 0.0
C1811 C 0.84742 0.50922 0.19182 0.0
C1812 C 0.84262 0.47134 0.17493 0.0
C1813 C 0.82987 0.44949 0.17213 0.0
C1814 C 0.8251 0.43564 0.19129 0.0
C1815 C 0.81299 0.4151 0.18861 0.0
C1816 C 0.80567 0.40816 0.16682 0.0
C1817 C 0.81051 0.42171 0.14766 0.0
C1818 C 0.82264 0.44227 0.15024 0.0
C1819 C 0.93341 0.47758 0.1425 0.0
C1820 C 0.93172 0.48539 0.11974 0.0
C1821 C 0.91641 0.4829 0.15844 0.0
C1822 C 0.89761 0.49633 0.15194 0.0
C1823 C 0.89741 0.50656 0.13012 0.0
C1824 C 0.91457 0.50129 0.1141 0.0
C1825 C 0.87622 0.49466 0.16546 0.0
C1826 C 0.8633 0.47443 0.16311 0.0
C1827 C 0.86828 0.51231 0.18004 0.0
C1828 C 0.88125 0.53402 0.18332 0.0
C1829 C 0.87025 0.55522 0.18024 0.0
C1830 C 0.88218 0.57571 0.18397 0.0
C1831 C 0.90516 0.57525 0.1908 0.0
C1832 C 0.91622 0.55429 0.19402 0.0
C1833 C 0.90433 0.53375 0.19043 0.0
H1834 H 0.91441 0.59113 0.19356 0.0
H1835 H 0.79628 0.39225 0.16478 0.0
H1836 H 0.23222 0.9999 0.31109 0.0
H1837 H 0.20039 0.0047 0.33764 0.0
H1838 H 0.19493 0.0759 0.31862 0.0
H1839 H 0.22687 0.07118 0.29164 0.0
H1840 H 0.19299 0.03082 0.37472 0.0
H1841 H 0.13599 0.08824 0.31925 0.0
H1842 H 0.13063 0.09915 0.27862 0.0
H1843 H 0.1565 0.03373 0.25711 0.0
H1844 H 0.16173 0.02238 0.29758 0.0
H1845 H 0.09225 0.02584 0.43807 0.0
H1846 H 0.11843 0.04925 0.41478 0.0
H1847 H 0.10428 0.0063 0.35602 0.0
H1848 H 0.0782 0.9832 0.37906 0.0
H1849 H 0.11639 0.04913 0.34235 0.0
H1850 H 0.14372 0.9894 0.39491 0.0
H1851 H 0.14788 0.97242 0.4335 0.0
H1852 H 0.181 0.0338 0.4575 0.0
H1853 H 0.1767 0.05124 0.41909 0.0
C1854 C 0.22443 0.01666 0.31262 0.0
C1855 C 0.23199 0.03511 0.2991 0.0
C1856 C 0.20629 0.01941 0.32794 0.0
C1857 C 0.1952 0.04062 0.33004 0.0
C1858 C 0.20315 0.05934 0.31714 0.0
C1859 C 0.22142 0.05661 0.30179 0.0
C1860 C 0.17455 0.04232 0.3448 0.0
C1861 C 0.17632 0.03535 0.36778 0.0
C1862 C 0.15275 0.04809 0.33576 0.0
C1863 C 0.14956 0.05464 0.31139 0.0
C1864 C 0.14051 0.07621 0.30582 0.0
C1865 C 0.13749 0.08246 0.28284 0.0
C1866 C 0.14332 0.06718 0.26529 0.0
C1867 C 0.15209 0.04559 0.2707 0.0
C1868 C 0.15511 0.03925 0.29366 0.0
C1869 C 0.09396 0.02214 0.41991 0.0
C1870 C 0.0836 0.00257 0.41036 0.0
C1871 C 0.10894 0.03546 0.40665 0.0
C1872 C 0.11369 0.02918 0.38381 0.0
C1873 C 0.10097 0.01144 0.3736 0.0
C1874 C 0.08615 0.99814 0.38681 0.0
C1875 C 0.13482 0.03711 0.37206 0.0
C1876 C 0.13319 0.04576 0.34963 0.0
C1877 C 0.15675 0.03225 0.38135 0.0
C1878 C 0.15966 0.02169 0.40429 0.0
C1879 C 0.15179 0.99929 0.40847 0.0
C1880 C 0.15416 0.98959 0.43029 0.0
C1881 C 0.16464 0.00205 0.44796 0.0
C1882 C 0.17283 0.0242 0.44382 0.0
C1883 C 0.17042 0.034 0.42204 0.0
H1884 H 0.16646 0.99452 0.46484 0.0
H1885 H 0.14099 0.07206 0.24751 0.0
H1886 H 0.74983 0.52523 0.31961 0.0
H1887 H 0.78493 0.52738 0.342 0.0
H1888 H 0.81237 0.57728 0.29467 0.0
H1889 H 0.77705 0.57468 0.27165 0.0
H1890 H 0.84156 0.54385 0.29983 0.0
H1891 H 0.80121 0.59075 0.3515 0.0
H1892 H 0.76996 0.60437 0.37644 0.0
H1893 H 0.77745 0.54504 0.41926 0.0
H1894 H 0.80845 0.53076 0.39433 0.0
H1895 H 0.93741 0.5617 0.37649 0.0
H1896 H 0.90552 0.56217 0.34928 0.0
H1897 H 0.87454 0.50498 0.38455 0.0
H1898 H 0.90681 0.50433 0.41175 0.0
H1899 H 0.84852 0.54561 0.3847 0.0
H1900 H 0.8898 0.49953 0.32963 0.0
H1901 H 0.92242 0.48967 0.30463 0.0
H1902 H 0.91474 0.5533 0.26854 0.0
H1903 H 0.88237 0.5638 0.29365 0.0
C1904 C 0.76308 0.53715 0.31429 0.0
C1905 C 0.76081 0.5497 0.29384 0.0
C1906 C 0.78315 0.53845 0.32719 0.0
C1907 C 0.80135 0.5525 0.32007 0.0
C1908 C 0.79854 0.5663 0.30046 0.0
C1909 C 0.7783 0.565 0.28747 0.0
C1910 C 0.82394 0.55051 0.3317 0.0
C1911 C 0.84317 0.54471 0.31838 0.0
C1912 C 0.82601 0.55127 0.35592 0.0
C1913 C 0.80708 0.55957 0.37087 0.0
C1914 C 0.79605 0.58045 0.36608 0.0
C1915 C 0.7784 0.58832 0.38026 0.0
C1916 C 0.77171 0.57556 0.3994 0.0
C1917 C 0.78267 0.5549 0.40442 0.0
C1918 C 0.80028 0.54691 0.39026 0.0
C1919 C 0.9244 0.54844 0.37764 0.0
C1920 C 0.92451 0.53287 0.39601 0.0
C1921 C 0.90612 0.54882 0.36218 0.0
C1922 C 0.88761 0.53374 0.36503 0.0
C1923 C 0.88873 0.51674 0.3821 0.0
C1924 C 0.90725 0.51617 0.39744 0.0
C1925 C 0.86577 0.53828 0.35287 0.0
C1926 C 0.84679 0.54477 0.36616 0.0
C1927 C 0.86414 0.53874 0.32865 0.0
C1928 C 0.88377 0.53253 0.31369 0.0
C1929 C 0.89522 0.51155 0.31655 0.0
C1930 C 0.91365 0.50583 0.30232 0.0
C1931 C 0.9207 0.52089 0.28507 0.0
C1932 C 0.90931 0.5417 0.28197 0.0
C1933 C 0.89092 0.54753 0.29619 0.0
H1934 H 0.93494 0.51642 0.27405 0.0
H1935 H 0.758 0.58166 0.41031 0.0
H1936 H 0.19866 0.24603 0.00479 0.0
H1937 H 0.17742 0.21037 0.00669 0.0
H1938 H 0.2097 0.19439 0.07144 0.0
H1939 H 0.23189 0.23031 0.06931 0.0
H1940 H 0.21002 0.15797 0.04281 0.0
H1941 H 0.15355 0.20984 0.06947 0.0
H1942 H 0.12998 0.24485 0.0698 0.0
H1943 H 0.1002 0.22587 0.005 0.0
H1944 H 0.12387 0.19092 0.00406 0.0
H1945 H 0.13211 0.0685 0.06787 0.0
H1946 H 0.16032 0.0983 0.06198 0.0
H1947 H 0.12211 0.12266 0.00329 0.0
H1948 H 0.0927 0.09352 0.01045 0.0
H1949 H 0.12583 0.15499 0.03088 0.0
H1950 H 0.18826 0.10647 0.00161 0.0
H1951 H 0.21241 0.0718 0.00166 0.0
H1952 H 0.23171 0.08519 0.07164 0.0
H1953 H 0.20724 0.11967 0.07197 0.0
C1954 C 0.20117 0.23514 0.01964 0.0
C1955 C 0.21698 0.24106 0.03696 0.0
C1956 C 0.18887 0.21473 0.02072 0.0
C1957 C 0.19173 0.19982 0.03932 0.0
C1958 C 0.20717 0.20575 0.05697 0.0
C1959 C 0.21966 0.22633 0.05586 0.0
C1960 C 0.17907 0.17773 0.03947 0.0
C1961 C 0.19157 0.15726 0.04039 0.0
C1962 C 0.15505 0.17682 0.03607 0.0
C1963 C 0.14063 0.1978 0.03663 0.0
C1964 C 0.1421 0.2132 0.0552 0.0
C1965 C 0.1287 0.23303 0.05551 0.0
C1966 C 0.11362 0.23759 0.03743 0.0
C1967 C 0.11189 0.22232 0.019 0.0
C1968 C 0.12528 0.20248 0.01858 0.0
C1969 C 0.13022 0.07958 0.05306 0.0
C1970 C 0.11006 0.07887 0.03977 0.0
C1971 C 0.14661 0.09664 0.04954 0.0
C1972 C 0.14358 0.113 0.03216 0.0
C1973 C 0.12487 0.11038 0.01694 0.0
C1974 C 0.10817 0.09346 0.02076 0.0
C1975 C 0.15684 0.13494 0.03298 0.0
C1976 C 0.14434 0.15553 0.03273 0.0
C1977 C 0.18086 0.13593 0.03699 0.0
C1978 C 0.19547 0.11522 0.03692 0.0
C1979 C 0.19727 0.10169 0.01708 0.0
C1980 C 0.21114 0.08219 0.01701 0.0
C1981 C 0.22347 0.07619 0.0367 0.0
C1982 C 0.22207 0.08979 0.05643 0.0
C1983 C 0.20822 0.10932 0.05654 0.0
H1984 H 0.23421 0.06109 0.03664 0.0
H1985 H 0.10324 0.25294 0.03771 0.0
H1986 H 0.19938 0.77131 0.49193 0.0
H1987 H 0.17594 0.80546 0.49646 0.0
H1988 H 0.19077 0.80649 0.56908 0.0
H1989 H 0.21467 0.77224 0.56462 0.0
H1990 H 0.13832 0.81555 0.52003 0.0
H1991 H 0.19414 0.86425 0.58509 0.0
H1992 H 0.23415 0.86552 0.59902 0.0
H1993 H 0.25784 0.84109 0.53363 0.0
H1994 H 0.21801 0.83998 0.51925 0.0
H1995 H 0.08103 0.91944 0.5264 0.0
H1996 H 0.10188 0.88799 0.54462 0.0
H1997 H 0.16341 0.90798 0.50864 0.0
H1998 H 0.14269 0.93933 0.49055 0.0
H1999 H 0.17515 0.8875 0.54696 0.0
H2000 H 0.12274 0.87206 0.48377 0.0
H2001 H 0.08473 0.87226 0.46509 0.0
H2002 H 0.05733 0.83095 0.51961 0.0
H2003 H 0.09517 0.83083 0.53878 0.0
C2004 C 0.19757 0.77863 0.50894 0.0
C2005 C 0.20905 0.76909 0.52789 0.0
C2006 C 0.18404 0.79814 0.51152 0.0
C2007 C 0.1817 0.80867 0.53307 0.0
C2008 C 0.19251 0.79879 0.55223 0.0
C2009 C 0.20609 0.77917 0.54966 0.0
C2010 C 0.16876 0.83051 0.53487 0.0
C2011 C 0.14623 0.83119 0.52636 0.0
C2012 C 0.17909 0.85102 0.54288 0.0
C2013 C 0.2031 0.85174 0.55124 0.0
C2014 C 0.20791 0.85919 0.5737 0.0
C2015 C 0.23055 0.85989 0.58166 0.0
C2016 C 0.24852 0.8533 0.56725 0.0
C2017 C 0.2439 0.84609 0.54481 0.0
C2018 C 0.2213 0.8454 0.53676 0.0
C2019 C 0.09927 0.9178 0.5233 0.0
C2020 C 0.11018 0.9315 0.50675 0.0
C2021 C 0.11116 0.8997 0.53359 0.0
C2022 C 0.13407 0.89521 0.5275 0.0
C2023 C 0.14572 0.91091 0.51348 0.0
C2024 C 0.13385 0.92887 0.50312 0.0
C2025 C 0.14474 0.87254 0.53208 0.0
C2026 C 0.16688 0.8717 0.54157 0.0
C2027 C 0.13427 0.85192 0.5245 0.0
C2028 C 0.11166 0.85164 0.51281 0.0
C2029 C 0.10857 0.8631 0.4918 0.0
C2030 C 0.08706 0.86321 0.48114 0.0
C2031 C 0.0686 0.85167 0.49119 0.0
C2032 C 0.07163 0.83993 0.51188 0.0
C2033 C 0.0931 0.83984 0.52266 0.0
H2034 H 0.05195 0.85176 0.48293 0.0
H2035 H 0.26603 0.85383 0.57346 0.0
H2036 H 0.81864 0.75403 0.50097 0.0
H2037 H 0.8408 0.71904 0.49794 0.0
H2038 H 0.79813 0.69656 0.44155 0.0
H2039 H 0.77515 0.73176 0.44506 0.0
H2040 H 0.80261 0.66327 0.47227 0.0
H2041 H 0.85521 0.71169 0.4335 0.0
H2042 H 0.87934 0.7457 0.42632 0.0
H2043 H 0.91785 0.73208 0.48771 0.0
H2044 H 0.89375 0.69816 0.49546 0.0
H2045 H 0.88043 0.573 0.44257 0.0
H2046 H 0.85355 0.60473 0.44625 0.0
H2047 H 0.88882 0.62748 0.50741 0.0
H2048 H 0.91584 0.59536 0.50375 0.0
H2049 H 0.88756 0.66001 0.47295 0.0
H2050 H 0.83311 0.60985 0.5098 0.0
H2051 H 0.80916 0.57518 0.51366 0.0
H2052 H 0.77438 0.59145 0.45073 0.0
H2053 H 0.79837 0.62603 0.44627 0.0
C2054 C 0.81417 0.74187 0.48759 0.0
C2055 C 0.79515 0.74567 0.47321 0.0
C2056 C 0.82698 0.72185 0.48581 0.0
C2057 C 0.82131 0.70515 0.46942 0.0
C2058 C 0.80285 0.70924 0.45433 0.0
C2059 C 0.7899 0.72944 0.45614 0.0
C2060 C 0.8338 0.68292 0.46945 0.0
C2061 C 0.82116 0.66253 0.47189 0.0
C2062 C 0.85808 0.68192 0.46962 0.0
C2063 C 0.87252 0.70246 0.46516 0.0
C2064 C 0.86869 0.71606 0.44559 0.0
C2065 C 0.88239 0.7353 0.4414 0.0
C2066 C 0.90009 0.74107 0.45657 0.0
C2067 C 0.90413 0.72759 0.47597 0.0
C2068 C 0.89046 0.70834 0.48026 0.0
C2069 C 0.88178 0.58417 0.45741 0.0
C2070 C 0.90003 0.58171 0.473 0.0
C2071 C 0.86645 0.60236 0.45944 0.0
C2072 C 0.86919 0.61855 0.47705 0.0
C2073 C 0.88639 0.61513 0.49371 0.0
C2074 C 0.90164 0.59666 0.49181 0.0
C2075 C 0.85633 0.64047 0.47598 0.0
C2076 C 0.86897 0.6608 0.47324 0.0
C2077 C 0.83208 0.6413 0.47499 0.0
C2078 C 0.81771 0.62043 0.4776 0.0
C2079 C 0.82052 0.60592 0.49666 0.0
C2080 C 0.8069 0.5863 0.49897 0.0
C2081 C 0.79032 0.58107 0.4824 0.0
C2082 C 0.78729 0.59548 0.4635 0.0
C2083 C 0.80088 0.6151 0.46108 0.0
H2084 H 0.77977 0.56589 0.48424 0.0
H2085 H 0.91069 0.75596 0.45328 0.0
H2086 H 0.2927 0.76717 0.44362 0.0
H2087 H 0.3196 0.79898 0.43717 0.0
H2088 H 0.33109 0.80416 0.51021 0.0
H2089 H 0.30473 0.77251 0.51676 0.0
H2090 H 0.31791 0.84316 0.45186 0.0
H2091 H 0.3846 0.81709 0.52192 0.0
H2092 H 0.40127 0.78159 0.53759 0.0
H2093 H 0.38681 0.74654 0.4743 0.0
H2094 H 0.37034 0.78189 0.45811 0.0
H2095 H 0.36762 0.9322 0.51376 0.0
H2096 H 0.34853 0.90044 0.49443 0.0
H2097 H 0.41364 0.87744 0.46784 0.0
H2098 H 0.43291 0.90884 0.48823 0.0
H2099 H 0.3945 0.84433 0.48918 0.0
H2100 H 0.36822 0.8939 0.43147 0.0
H2101 H 0.35286 0.92998 0.41642 0.0
H2102 H 0.28888 0.91765 0.45079 0.0
H2103 H 0.3041 0.88154 0.46655 0.0
C2104 C 0.30113 0.77499 0.45826 0.0
C2105 C 0.29663 0.76725 0.4807 0.0
C2106 C 0.31643 0.79317 0.45454 0.0
C2107 C 0.32759 0.80369 0.47317 0.0
C2108 C 0.32304 0.79599 0.49553 0.0
C2109 C 0.30783 0.77794 0.49925 0.0
C2110 C 0.34337 0.82335 0.46981 0.0
C2111 C 0.33482 0.84339 0.45967 0.0
C2112 C 0.3657 0.82339 0.47937 0.0
C2113 C 0.37617 0.80218 0.48881 0.0
C2114 C 0.38516 0.80188 0.51126 0.0
C2115 C 0.39452 0.78176 0.52025 0.0
C2116 C 0.39508 0.76182 0.50695 0.0
C2117 C 0.38633 0.76198 0.4846 0.0
C2118 C 0.37695 0.78206 0.47551 0.0
C2119 C 0.3777 0.92096 0.50294 0.0
C2120 C 0.40165 0.92317 0.50214 0.0
C2121 C 0.36678 0.90276 0.49183 0.0
C2122 C 0.37959 0.88652 0.4795 0.0
C2123 C 0.40338 0.88977 0.47719 0.0
C2124 C 0.41435 0.90788 0.48856 0.0
C2125 C 0.36856 0.86461 0.47238 0.0
C2126 C 0.37797 0.84406 0.48062 0.0
C2127 C 0.34722 0.86405 0.46072 0.0
C2128 C 0.33737 0.88502 0.45026 0.0
C2129 C 0.35087 0.89886 0.43585 0.0
C2130 C 0.34219 0.91939 0.42724 0.0
C2131 C 0.31991 0.92623 0.43271 0.0
C2132 C 0.30616 0.91235 0.44659 0.0
C2133 C 0.3148 0.89181 0.45535 0.0
H2134 H 0.31329 0.94228 0.42623 0.0
H2135 H 0.40232 0.74626 0.51395 0.0
H2136 H 0.5039 0.69172 0.75527 0.0
H2137 H 0.50264 0.66947 0.71984 0.0
H2138 H 0.55251 0.7149 0.68941 0.0
H2139 H 0.55357 0.7377 0.72511 0.0
H2140 H 0.50885 0.70748 0.66337 0.0
H2141 H 0.56951 0.66462 0.7006 0.0
H2142 H 0.5863 0.64387 0.73343 0.0
H2143 H 0.53088 0.59528 0.73134 0.0
H2144 H 0.51356 0.61595 0.69872 0.0
H2145 H 0.5396 0.64196 0.56546 0.0
H2146 H 0.53157 0.66733 0.59773 0.0
H2147 H 0.49308 0.61331 0.63063 0.0
H2148 H 0.50159 0.58774 0.59847 0.0
H2149 H 0.52888 0.62529 0.656 0.0
H2150 H 0.46786 0.66585 0.62053 0.0
H2151 H 0.44748 0.68643 0.58969 0.0
H2152 H 0.49987 0.73833 0.58948 0.0
H2153 H 0.52073 0.71787 0.62011 0.0
C2154 C 0.51495 0.69674 0.74119 0.0
C2155 C 0.52881 0.71643 0.74284 0.0
C2156 C 0.51415 0.68406 0.72095 0.0
C2157 C 0.52718 0.69079 0.70195 0.0
C2158 C 0.54205 0.70972 0.70387 0.0
C2159 C 0.54295 0.72246 0.7243 0.0
C2160 C 0.52431 0.67838 0.67996 0.0
C2161 C 0.51377 0.68968 0.66148 0.0
C2162 C 0.52937 0.65479 0.67812 0.0
C2163 C 0.54015 0.64194 0.6973 0.0
C2164 C 0.56084 0.64958 0.70721 0.0
C2165 C 0.57045 0.63783 0.72578 0.0
C2166 C 0.55964 0.6183 0.73449 0.0
C2167 C 0.53924 0.61042 0.72458 0.0
C2168 C 0.52953 0.62213 0.70603 0.0
C2169 C 0.52853 0.63589 0.5791 0.0
C2170 C 0.52175 0.61281 0.57988 0.0
C2171 C 0.5239 0.6504 0.59756 0.0
C2172 C 0.51215 0.64205 0.61686 0.0
C2173 C 0.50247 0.61998 0.61604 0.0
C2174 C 0.50709 0.60546 0.59751 0.0
C2175 C 0.51391 0.65453 0.63901 0.0
C2176 C 0.52415 0.64319 0.65767 0.0
C2177 C 0.50829 0.67798 0.64108 0.0
C2178 C 0.49589 0.6903 0.62257 0.0
C2179 C 0.47511 0.68158 0.6138 0.0
C2180 C 0.46346 0.69323 0.59638 0.0
C2181 C 0.47238 0.71367 0.58762 0.0
C2182 C 0.49298 0.72249 0.59627 0.0
C2183 C 0.50471 0.71089 0.61369 0.0
H2184 H 0.46332 0.72268 0.57416 0.0
H2185 H 0.56708 0.60925 0.7489 0.0
H2186 H 0.45555 0.77683 0.72533 0.0
H2187 H 0.45792 0.80019 0.69025 0.0
H2188 H 0.50118 0.84885 0.72567 0.0
H2189 H 0.4992 0.82544 0.76044 0.0
H2190 H 0.46817 0.86928 0.69596 0.0
H2191 H 0.52712 0.81113 0.69509 0.0
H2192 H 0.54241 0.77178 0.69656 0.0
H2193 H 0.50004 0.75276 0.6392 0.0
H2194 H 0.48447 0.79192 0.63742 0.0
H2195 H 0.50379 0.9288 0.59981 0.0
H2196 H 0.51199 0.90464 0.63321 0.0
H2197 H 0.47604 0.8484 0.60098 0.0
H2198 H 0.46821 0.87237 0.56765 0.0
H2199 H 0.50755 0.83235 0.63009 0.0
H2200 H 0.44725 0.88885 0.63123 0.0
H2201 H 0.4311 0.9278 0.62874 0.0
H2202 H 0.47318 0.94933 0.68545 0.0
H2203 H 0.48993 0.91062 0.68798 0.0
C2204 C 0.4649 0.7929 0.72578 0.0
C2205 C 0.47709 0.79946 0.74554 0.0
C2206 C 0.46647 0.80607 0.70571 0.0
C2207 C 0.47998 0.82607 0.70534 0.0
C2208 C 0.49073 0.83346 0.72559 0.0
C2209 C 0.48951 0.82014 0.74544 0.0
C2210 C 0.48427 0.83854 0.68358 0.0
C2211 C 0.47702 0.86132 0.68165 0.0
C2212 C 0.49556 0.82805 0.66484 0.0
C2213 C 0.50454 0.80438 0.66622 0.0
C2214 C 0.52093 0.79848 0.68292 0.0
C2215 C 0.52971 0.77623 0.68376 0.0
C2216 C 0.52227 0.75981 0.66792 0.0
C2217 C 0.50589 0.76551 0.65136 0.0
C2218 C 0.49711 0.78773 0.65041 0.0
C2219 C 0.499 0.91085 0.59927 0.0
C2220 C 0.48532 0.9024 0.58129 0.0
C2221 C 0.50332 0.89716 0.61853 0.0
C2222 C 0.49387 0.87499 0.61992 0.0
C2223 C 0.48327 0.86552 0.60044 0.0
C2224 C 0.47899 0.87917 0.58126 0.0
C2225 C 0.49141 0.86315 0.64237 0.0
C2226 C 0.4989 0.84043 0.64445 0.0
C2227 C 0.48006 0.87364 0.66117 0.0
C2228 C 0.47004 0.89693 0.65962 0.0
C2229 C 0.45321 0.90195 0.64304 0.0
C2230 C 0.44393 0.92397 0.64163 0.0
C2231 C 0.45114 0.94103 0.65691 0.0
C2232 C 0.46766 0.93611 0.6736 0.0
C2233 C 0.47706 0.91414 0.67501 0.0
H2234 H 0.44386 0.95802 0.65592 0.0
H2235 H 0.5293 0.74272 0.66836 0.0
H2236 H 0.57925 0.26581 0.78093 0.0
H2237 H 0.5809 0.28775 0.81718 0.0
H2238 H 0.52495 0.32998 0.79352 0.0
H2239 H 0.52401 0.3092 0.7576 0.0
H2240 H 0.55437 0.35533 0.81339 0.0
H2241 H 0.51994 0.28102 0.83077 0.0
H2242 H 0.52118 0.23891 0.83347 0.0
H2243 H 0.57693 0.24342 0.88162 0.0
H2244 H 0.57637 0.28562 0.87879 0.0
H2245 H 0.50635 0.40854 0.90764 0.0
H2246 H 0.50732 0.37757 0.87901 0.0
H2247 H 0.57028 0.35243 0.9086 0.0
H2248 H 0.56956 0.38352 0.93677 0.0
H2249 H 0.54218 0.3168 0.88831 0.0
H2250 H 0.57572 0.38949 0.87221 0.0
H2251 H 0.57934 0.43095 0.86682 0.0
H2252 H 0.52624 0.42914 0.81554 0.0
H2253 H 0.52248 0.38731 0.82067 0.0
C2254 C 0.56783 0.28021 0.78335 0.0
C2255 C 0.55146 0.28575 0.7665 0.0
C2256 C 0.56851 0.29248 0.80417 0.0
C2257 C 0.5527 0.31024 0.80832 0.0
C2258 C 0.53726 0.31634 0.7909 0.0
C2259 C 0.53674 0.30438 0.7703 0.0
C2260 C 0.55148 0.32279 0.83055 0.0
C2261 C 0.55138 0.3468 0.82967 0.0
C2262 C 0.54848 0.31176 0.85205 0.0
C2263 C 0.54834 0.28646 0.85427 0.0
C2264 C 0.53257 0.27303 0.84182 0.0
C2265 C 0.53316 0.24914 0.84337 0.0
C2266 C 0.54925 0.23849 0.85759 0.0
C2267 C 0.56459 0.25171 0.8705 0.0
C2268 C 0.56415 0.27561 0.86891 0.0
C2269 C 0.5197 0.39571 0.90869 0.0
C2270 C 0.53784 0.39828 0.92431 0.0
C2271 C 0.52035 0.37812 0.89229 0.0
C2272 C 0.53903 0.36287 0.89156 0.0
C2273 C 0.5557 0.3639 0.9089 0.0
C2274 C 0.55525 0.38167 0.92498 0.0
C2275 C 0.5436 0.34915 0.8706 0.0
C2276 C 0.54481 0.32515 0.87189 0.0
C2277 C 0.54751 0.36006 0.84928 0.0
C2278 C 0.54871 0.38533 0.847 0.0
C2279 C 0.56464 0.39796 0.86 0.0
C2280 C 0.56675 0.42156 0.85692 0.0
C2281 C 0.55294 0.43281 0.84087 0.0
C2282 C 0.53692 0.42042 0.82797 0.0
C2283 C 0.53483 0.39674 0.83093 0.0
H2284 H 0.55472 0.45108 0.83829 0.0
H2285 H 0.54984 0.21999 0.85863 0.0
H2286 H 0.5179 0.18183 0.75126 0.0
H2287 H 0.51913 0.15948 0.78657 0.0
H2288 H 0.47394 0.20801 0.81922 0.0
H2289 H 0.47283 0.23073 0.78364 0.0
H2290 H 0.51317 0.19893 0.84486 0.0
H2291 H 0.45488 0.15508 0.80543 0.0
H2292 H 0.43884 0.13367 0.77253 0.0
H2293 H 0.49434 0.0856 0.77642 0.0
H2294 H 0.51088 0.10691 0.80916 0.0
H2295 H 0.47065 0.13484 0.93743 0.0
H2296 H 0.48472 0.15985 0.90721 0.0
H2297 H 0.52638 0.10472 0.88098 0.0
H2298 H 0.51226 0.07965 0.91164 0.0
H2299 H 0.49369 0.11648 0.85133 0.0
H2300 H 0.55067 0.15685 0.89218 0.0
H2301 H 0.56968 0.17854 0.92319 0.0
H2302 H 0.52052 0.23269 0.9159 0.0
H2303 H 0.50087 0.21112 0.88515 0.0
C2304 C 0.50773 0.18742 0.76578 0.0
C2305 C 0.49512 0.20789 0.76473 0.0
C2306 C 0.50851 0.17467 0.78596 0.0
C2307 C 0.49665 0.18209 0.80552 0.0
C2308 C 0.48322 0.20203 0.80427 0.0
C2309 C 0.48231 0.21479 0.78391 0.0
C2310 C 0.49929 0.16946 0.82744 0.0
C2311 C 0.50864 0.18099 0.84648 0.0
C2312 C 0.49441 0.14578 0.82906 0.0
C2313 C 0.48422 0.13271 0.80964 0.0
C2314 C 0.46374 0.14002 0.79919 0.0
C2315 C 0.45454 0.12789 0.78058 0.0
C2316 C 0.46558 0.10831 0.77237 0.0
C2317 C 0.48581 0.10078 0.7828 0.0
C2318 C 0.49508 0.11286 0.8014 0.0
C2319 C 0.48389 0.12852 0.9261 0.0
C2320 C 0.49023 0.10536 0.92667 0.0
C2321 C 0.49192 0.14282 0.90871 0.0
C2322 C 0.50633 0.13406 0.89155 0.0
C2323 C 0.51516 0.11178 0.89399 0.0
C2324 C 0.50728 0.09752 0.91164 0.0
C2325 C 0.50736 0.14601 0.86909 0.0
C2326 C 0.49857 0.13437 0.84982 0.0
C2327 C 0.513 0.16953 0.86725 0.0
C2328 C 0.52416 0.18224 0.88641 0.0
C2329 C 0.5437 0.17324 0.89737 0.0
C2330 C 0.55465 0.18556 0.91487 0.0
C2331 C 0.54632 0.20698 0.92151 0.0
C2332 C 0.52693 0.21607 0.91077 0.0
C2333 C 0.51586 0.20379 0.89331 0.0
H2334 H 0.55492 0.21655 0.93496 0.0
H2335 H 0.45846 0.09895 0.75795 0.0
H2336 H 0.72337 0.53809 0.74419 0.0
H2337 H 0.6867 0.53517 0.72339 0.0
H2338 H 0.72236 0.50962 0.6638 0.0
H2339 H 0.75881 0.51197 0.68472 0.0
H2340 H 0.68832 0.54229 0.65368 0.0
H2341 H 0.69823 0.4728 0.69649 0.0
H2342 H 0.70367 0.44814 0.73039 0.0
H2343 H 0.6416 0.47422 0.76002 0.0
H2344 H 0.63595 0.49934 0.72642 0.0
H2345 H 0.60002 0.50186 0.58743 0.0
H2346 H 0.63213 0.49354 0.61308 0.0
H2347 H 0.59544 0.52398 0.66956 0.0
H2348 H 0.56335 0.53256 0.64388 0.0
H2349 H 0.62941 0.48768 0.68217 0.0
H2350 H 0.6208 0.55881 0.64146 0.0
H2351 H 0.61379 0.58255 0.60736 0.0
H2352 H 0.67359 0.55461 0.57484 0.0
H2353 H 0.68039 0.52981 0.60853 0.0
C2354 C 0.72339 0.53265 0.72639 0.0
C2355 C 0.74385 0.52568 0.71582 0.0
C2356 C 0.70245 0.53061 0.71468 0.0
C2357 C 0.70183 0.52188 0.69218 0.0
C2358 C 0.72248 0.51631 0.68117 0.0
C2359 C 0.74327 0.51788 0.69301 0.0
C2360 C 0.67973 0.518 0.68011 0.0
C2361 C 0.67558 0.53016 0.65981 0.0
C2362 C 0.6629 0.50248 0.68836 0.0
C2363 C 0.66679 0.48814 0.70903 0.0
C2364 C 0.6859 0.47353 0.71036 0.0
C2365 C 0.68895 0.45935 0.72946 0.0
C2366 C 0.6729 0.4595 0.74726 0.0
C2367 C 0.65393 0.47404 0.74614 0.0
C2368 C 0.65081 0.48826 0.72709 0.0
C2369 C 0.59815 0.50543 0.6056 0.0
C2370 C 0.57928 0.51798 0.61366 0.0
C2371 C 0.61664 0.50088 0.62022 0.0
C2372 C 0.61632 0.50862 0.64307 0.0
C2373 C 0.59605 0.51797 0.65196 0.0
C2374 C 0.57767 0.52277 0.63728 0.0
C2375 C 0.63819 0.51185 0.65574 0.0
C2376 C 0.64222 0.49973 0.67611 0.0
C2377 C 0.65494 0.52753 0.64772 0.0
C2378 C 0.6509 0.54222 0.62736 0.0
C2379 C 0.63226 0.55745 0.62691 0.0
C2380 C 0.62838 0.57116 0.60768 0.0
C2381 C 0.64333 0.57023 0.58899 0.0
C2382 C 0.66205 0.55533 0.58937 0.0
C2383 C 0.66587 0.54136 0.60849 0.0
H2384 H 0.64043 0.58107 0.57426 0.0
H2385 H 0.67522 0.44842 0.76197 0.0
H2386 H 0.27606 0.06589 0.72025 0.0
H2387 H 0.30769 0.06948 0.69265 0.0
H2388 H 0.30544 0.99655 0.68078 0.0
H2389 H 0.27393 0.99284 0.70795 0.0
H2390 H 0.3508 0.05113 0.69173 0.0
H2391 H 0.3152 0.98488 0.6258 0.0
H2392 H 0.27768 0.97178 0.6111 0.0
H2393 H 0.2478 0.03656 0.62891 0.0
H2394 H 0.28521 0.05019 0.6434 0.0
H2395 H 0.43133 0.98743 0.62886 0.0
H2396 H 0.40336 0.00705 0.65292 0.0
H2397 H 0.37538 0.0402 0.59291 0.0
H2398 H 0.40342 0.02014 0.56877 0.0
H2399 H 0.34329 0.01704 0.61396 0.0
H2400 H 0.39807 0.07091 0.63751 0.0
H2401 H 0.43569 0.0848 0.65048 0.0
H2402 H 0.42692 0.05029 0.71497 0.0
H2403 H 0.38949 0.0353 0.70199 0.0
C2404 C 0.28223 0.05064 0.71165 0.0
C2405 C 0.27232 0.02909 0.71624 0.0
C2406 C 0.30038 0.05272 0.69597 0.0
C2407 C 0.30879 0.03333 0.68443 0.0
C2408 C 0.29903 0.01183 0.68916 0.0
C2409 C 0.281 0.00973 0.70479 0.0
C2410 C 0.32782 0.03519 0.66749 0.0
C2411 C 0.34918 0.04386 0.67465 0.0
C2412 C 0.32551 0.02642 0.64492 0.0
C2413 C 0.30302 0.0185 0.6358 0.0
C2414 C 0.30067 0.99639 0.62643 0.0
C2415 C 0.27941 0.98886 0.61817 0.0
C2416 C 0.26036 0.00331 0.61911 0.0
C2417 C 0.26255 0.02536 0.62825 0.0
C2418 C 0.28378 0.03299 0.63651 0.0
C2419 C 0.42 0.99984 0.62102 0.0
C2420 C 0.41968 0.00252 0.59707 0.0
C2421 C 0.40389 0.01101 0.63475 0.0
C2422 C 0.3871 0.02508 0.62477 0.0
C2423 C 0.38813 0.02942 0.60102 0.0
C2424 C 0.40436 0.01824 0.58726 0.0
C2425 C 0.36667 0.03194 0.63853 0.0
C2426 C 0.34495 0.0248 0.63082 0.0
C2427 C 0.36866 0.04246 0.66041 0.0
C2428 C 0.39093 0.05186 0.66869 0.0
C2429 C 0.40418 0.06611 0.65441 0.0
C2430 C 0.42553 0.07419 0.66178 0.0
C2431 C 0.43373 0.06852 0.68359 0.0
C2432 C 0.42055 0.0547 0.69808 0.0
C2433 C 0.39925 0.04635 0.69069 0.0
H2434 H 0.45029 0.07482 0.68926 0.0
H2435 H 0.24391 0.99743 0.61274 0.0
H2436 H 0.72223 0.4913 0.76222 0.0
H2437 H 0.68738 0.49268 0.78533 0.0
H2438 H 0.71844 0.44745 0.835 0.0
H2439 H 0.75347 0.44583 0.81146 0.0
H2440 H 0.67411 0.43821 0.83075 0.0
H2441 H 0.71908 0.50624 0.84224 0.0
H2442 H 0.74062 0.54038 0.82955 0.0
H2443 H 0.67943 0.56797 0.79926 0.0
H2444 H 0.65759 0.53383 0.81151 0.0
H2445 H 0.60968 0.4951 0.92729 0.0
H2446 H 0.64179 0.49666 0.90009 0.0
H2447 H 0.59747 0.47113 0.84642 0.0
H2448 H 0.56516 0.47054 0.87357 0.0
H2449 H 0.64906 0.51616 0.85383 0.0
H2450 H 0.6292 0.42314 0.82625 0.0
H2451 H 0.61569 0.38605 0.84155 0.0
H2452 H 0.63395 0.40722 0.90978 0.0
H2453 H 0.64739 0.44449 0.89497 0.0
C2454 C 0.72131 0.48111 0.77775 0.0
C2455 C 0.74028 0.46829 0.78509 0.0
C2456 C 0.70153 0.48213 0.79106 0.0
C2457 C 0.70051 0.47062 0.81214 0.0
C2458 C 0.71893 0.45654 0.8188 0.0
C2459 C 0.73881 0.45542 0.80533 0.0
C2460 C 0.68074 0.47434 0.8277 0.0
C2461 C 0.66856 0.45526 0.83567 0.0
C2462 C 0.67379 0.49661 0.83452 0.0
C2463 C 0.68674 0.51742 0.82767 0.0
C2464 C 0.71024 0.51955 0.83281 0.0
C2465 C 0.7225 0.5389 0.82569 0.0
C2466 C 0.71141 0.55631 0.81357 0.0
C2467 C 0.688 0.55446 0.80864 0.0
C2468 C 0.67567 0.53513 0.81569 0.0
C2469 C 0.60656 0.49113 0.90936 0.0
C2470 C 0.58505 0.48292 0.90225 0.0
C2471 C 0.62495 0.49163 0.89396 0.0
C2472 C 0.62204 0.48353 0.87143 0.0
C2473 C 0.60007 0.47719 0.86383 0.0
C2474 C 0.58164 0.47708 0.87917 0.0
C2475 C 0.64222 0.48001 0.85648 0.0
C2476 C 0.65446 0.49915 0.84864 0.0
C2477 C 0.64957 0.45778 0.85017 0.0
C2478 C 0.63894 0.43671 0.85954 0.0
C2479 C 0.63002 0.41998 0.84457 0.0
C2480 C 0.62252 0.39889 0.85314 0.0
C2481 C 0.62396 0.39431 0.87665 0.0
C2482 C 0.63275 0.41087 0.89162 0.0
C2483 C 0.64011 0.43206 0.88318 0.0
H2484 H 0.61823 0.37795 0.88326 0.0
H2485 H 0.72094 0.57126 0.80805 0.0
H2486 H 0.27664 0.01727 0.8147 0.0
H2487 H 0.30998 0.00934 0.83851 0.0
H2488 H 0.30423 0.93728 0.82278 0.0
H2489 H 0.27069 0.94516 0.7985 0.0
H2490 H 0.31657 0.98414 0.87613 0.0
H2491 H 0.36203 0.91719 0.82075 0.0
H2492 H 0.36283 0.90313 0.78073 0.0
H2493 H 0.34248 0.96953 0.75652 0.0
H2494 H 0.34185 0.98402 0.79634 0.0
H2495 H 0.41995 0.98163 0.93269 0.0
H2496 H 0.39014 0.95986 0.91264 0.0
H2497 H 0.40727 0.99441 0.84945 0.0
H2498 H 0.43714 0.01588 0.86929 0.0
H2499 H 0.3875 0.95483 0.83955 0.0
H2500 H 0.37112 0.02051 0.88934 0.0
H2501 H 0.37235 0.04047 0.92663 0.0
H2502 H 0.33597 0.98467 0.95812 0.0
H2503 H 0.33467 0.9643 0.92088 0.0
C2504 C 0.28229 0.99969 0.81637 0.0
C2505 C 0.27106 0.98187 0.80458 0.0
C2506 C 0.30132 0.99516 0.83011 0.0
C2507 C 0.30965 0.97273 0.83237 0.0
C2508 C 0.29816 0.95473 0.82115 0.0
C2509 C 0.27898 0.95927 0.80735 0.0
C2510 C 0.331 0.9689 0.84571 0.0
C2511 C 0.33194 0.97716 0.86832 0.0
C2512 C 0.35112 0.95995 0.83552 0.0
C2513 C 0.3515 0.95153 0.81152 0.0
C2514 C 0.35771 0.92876 0.80686 0.0
C2515 C 0.35816 0.92073 0.78423 0.0
C2516 C 0.35259 0.9354 0.76611 0.0
C2517 C 0.34667 0.95816 0.77058 0.0
C2518 C 0.34623 0.96627 0.79317 0.0
C2519 C 0.41815 0.98369 0.91429 0.0
C2520 C 0.43035 0.00089 0.90263 0.0
C2521 C 0.40101 0.97131 0.90284 0.0
C2522 C 0.39595 0.97607 0.87971 0.0
C2523 C 0.41063 0.9906 0.86735 0.0
C2524 C 0.42769 0.00296 0.87874 0.0
C2525 C 0.37313 0.97051 0.86975 0.0
C2526 C 0.37188 0.96061 0.84779 0.0
C2527 C 0.35275 0.97851 0.88026 0.0
C2528 C 0.35299 0.99084 0.90248 0.0
C2529 C 0.36341 0.01252 0.90425 0.0
C2530 C 0.36415 0.02388 0.92537 0.0
C2531 C 0.35433 0.01382 0.9448 0.0
C2532 C 0.34362 0.99242 0.94308 0.0
C2533 C 0.34286 0.98096 0.92197 0.0
H2534 H 0.35496 0.02262 0.96116 0.0
H2535 H 0.35293 0.92915 0.7486 0.0
H2536 H 0.74483 0.72077 0.54502 0.0
H2537 H 0.72282 0.68476 0.54262 0.0
H2538 H 0.66589 0.72132 0.51281 0.0
H2539 H 0.68798 0.75703 0.51464 0.0
H2540 H 0.65365 0.68878 0.54726 0.0
H2541 H 0.69833 0.69521 0.47825 0.0
H2542 H 0.73368 0.69958 0.45546 0.0
H2543 H 0.76061 0.6378 0.48485 0.0
H2544 H 0.72554 0.63325 0.50813 0.0
H2545 H 0.58526 0.6008 0.50736 0.0
H2546 H 0.61078 0.63358 0.50162 0.0
H2547 H 0.66766 0.5943 0.5277 0.0
H2548 H 0.64215 0.56142 0.53342 0.0
H2549 H 0.68112 0.62763 0.49476 0.0
H2550 H 0.63968 0.62241 0.56553 0.0
H2551 H 0.60675 0.61891 0.59189 0.0
H2552 H 0.5758 0.6783 0.56173 0.0
H2553 H 0.60846 0.68206 0.53498 0.0
C2554 C 0.72737 0.72113 0.53862 0.0
C2555 C 0.71791 0.74159 0.53027 0.0
C2556 C 0.71497 0.70058 0.53695 0.0
C2557 C 0.69287 0.7004 0.52725 0.0
C2558 C 0.68294 0.72111 0.52025 0.0
C2559 C 0.69547 0.74147 0.52145 0.0
C2560 C 0.68016 0.67866 0.52374 0.0
C2561 C 0.6595 0.67555 0.53554 0.0
C2562 C 0.68816 0.6612 0.50887 0.0
C2563 C 0.7094 0.66403 0.49514 0.0
C2564 C 0.7119 0.6827 0.48007 0.0
C2565 C 0.73185 0.68517 0.46701 0.0
C2566 C 0.74935 0.66897 0.46869 0.0
C2567 C 0.74701 0.65032 0.48354 0.0
C2568 C 0.7271 0.64778 0.49668 0.0
C2569 C 0.60345 0.59868 0.51057 0.0
C2570 C 0.61173 0.57861 0.52091 0.0
C2571 C 0.61797 0.61757 0.50762 0.0
C2572 C 0.64096 0.61653 0.5148 0.0
C2573 C 0.64994 0.59551 0.52217 0.0
C2574 C 0.63539 0.57667 0.52527 0.0
C2575 C 0.65442 0.63793 0.51807 0.0
C2576 C 0.67523 0.64093 0.50634 0.0
C2577 C 0.64672 0.65532 0.53319 0.0
C2578 C 0.62633 0.65229 0.54807 0.0
C2579 C 0.62564 0.63444 0.56423 0.0
C2580 C 0.60712 0.63248 0.57931 0.0
C2581 C 0.58926 0.64834 0.57848 0.0
C2582 C 0.58969 0.66604 0.56235 0.0
C2583 C 0.60819 0.66809 0.54722 0.0
H2584 H 0.57522 0.64701 0.59052 0.0
H2585 H 0.76464 0.67081 0.45835 0.0
H2586 H 0.68189 0.24713 0.98253 0.0
H2587 H 0.65847 0.28151 0.98009 0.0
H2588 H 0.70678 0.31115 0.93243 0.0
H2589 H 0.73058 0.27653 0.93513 0.0
H2590 H 0.70009 0.33867 0.96827 0.0
H2591 H 0.65071 0.29913 0.91621 0.0
H2592 H 0.62684 0.26733 0.90157 0.0
H2593 H 0.58258 0.2731 0.96013 0.0
H2594 H 0.6063 0.30479 0.97527 0.0
H2595 H 0.63045 0.43713 0.94751 0.0
H2596 H 0.65518 0.40345 0.94813 0.0
H2597 H 0.61109 0.37201 0.99858 0.0
H2598 H 0.58643 0.4061 0.99823 0.0
H2599 H 0.61577 0.34585 0.95959 0.0
H2600 H 0.6661 0.38502 0.01179 0.0
H2601 H 0.69003 0.41702 0.02583 0.0
H2602 H 0.7326 0.41192 0.96593 0.0
H2603 H 0.70871 0.38011 0.95135 0.0
C2604 C 0.68711 0.26067 0.97091 0.0
C2605 C 0.708 0.25923 0.95899 0.0
C2606 C 0.67367 0.28032 0.96949 0.0
C2607 C 0.68083 0.29897 0.95609 0.0
C2608 C 0.70093 0.29694 0.94287 0.0
C2609 C 0.71438 0.2771 0.94419 0.0
C2610 C 0.66889 0.32133 0.95839 0.0
C2611 C 0.6817 0.34036 0.96589 0.0
C2612 C 0.64479 0.32334 0.95604 0.0
C2613 C 0.63043 0.30426 0.94697 0.0
C2614 C 0.63599 0.29352 0.92606 0.0
C2615 C 0.62245 0.27554 0.91765 0.0
C2616 C 0.60323 0.26817 0.92993 0.0
C2617 C 0.59748 0.27882 0.95063 0.0
C2618 C 0.61094 0.29683 0.95912 0.0
C2619 C 0.62675 0.42352 0.95963 0.0
C2620 C 0.60682 0.42427 0.97311 0.0
C2621 C 0.64075 0.40418 0.9598 0.0
C2622 C 0.63488 0.38512 0.97324 0.0
C2623 C 0.61589 0.38654 0.98805 0.0
C2624 C 0.60203 0.40612 0.98814 0.0
C2625 C 0.64696 0.36304 0.96968 0.0
C2626 C 0.63416 0.34412 0.96188 0.0
C2627 C 0.67107 0.36114 0.97164 0.0
C2628 C 0.68547 0.3803 0.98038 0.0
C2629 C 0.68043 0.39085 0.00151 0.0
C2630 C 0.69402 0.40893 0.00958 0.0
C2631 C 0.71279 0.41654 0.99675 0.0
C2632 C 0.71804 0.40604 0.97584 0.0
C2633 C 0.70449 0.38796 0.96767 0.0
H2634 H 0.7233 0.43053 0.00304 0.0
H2635 H 0.5928 0.25422 0.92342 0.0
H2636 H 0.27299 0.2296 0.95668 0.0
H2637 H 0.2936 0.19285 0.95632 0.0
H2638 H 0.34072 0.21895 0.00737 0.0
H2639 H 0.32065 0.25545 0.00738 0.0
H2640 H 0.36266 0.19336 0.97775 0.0
H2641 H 0.29248 0.18739 0.02141 0.0
H2642 H 0.2505 0.18972 0.02628 0.0
H2643 H 0.24107 0.13743 0.97517 0.0
H2644 H 0.28296 0.13513 0.96962 0.0
H2645 H 0.41373 0.09192 0.00782 0.0
H2646 H 0.38831 0.12392 0.0172 0.0
H2647 H 0.33912 0.09935 0.96741 0.0
H2648 H 0.36377 0.06696 0.95893 0.0
H2649 H 0.31753 0.12411 0.99824 0.0
H2650 H 0.38659 0.13329 0.95176 0.0
H2651 H 0.42837 0.13158 0.94543 0.0
H2652 H 0.43935 0.17837 0.00143 0.0
H2653 H 0.39761 0.18007 0.00828 0.0
C2654 C 0.28824 0.22766 0.96715 0.0
C2655 C 0.29524 0.24525 0.9821 0.0
C2656 C 0.29977 0.2066 0.96723 0.0
C2657 C 0.31833 0.20299 0.98229 0.0
C2658 C 0.32634 0.22124 0.99578 0.0
C2659 C 0.31489 0.24212 0.99572 0.0
C2660 C 0.32896 0.18008 0.98507 0.0
C2661 C 0.35278 0.1783 0.98248 0.0
C2662 C 0.31605 0.16035 0.99105 0.0
C2663 C 0.29088 0.16129 0.99489 0.0
C2664 C 0.28146 0.17649 0.0111 0.0
C2665 C 0.25767 0.17781 0.01398 0.0
C2666 C 0.24314 0.16383 1.00094 0.0
C2667 C 0.25236 0.14832 0.98517 0.0
C2668 C 0.27612 0.14701 0.98215 0.0
C2669 C 0.39695 0.09266 0.99983 0.0
C2670 C 0.39095 0.07727 0.98225 0.0
C2671 C 0.38253 0.11112 0.00499 0.0
C2672 C 0.36229 0.11458 0.99223 0.0
C2673 C 0.35481 0.09732 0.9772 0.0
C2674 C 0.36899 0.07876 0.97234 0.0
C2675 C 0.35125 0.13749 0.99104 0.0
C2676 C 0.32737 0.13927 0.99377 0.0
C2677 C 0.36404 0.15731 0.98513 0.0
C2678 C 0.38905 0.15662 0.98067 0.0
C2679 C 0.39794 0.14315 0.96276 0.0
C2680 C 0.42161 0.14217 0.9591 0.0
C2681 C 0.43652 0.15481 0.97308 0.0
C2682 C 0.42778 0.16854 0.99066 0.0
C2683 C 0.40413 0.16952 0.99444 0.0
H2684 H 0.45485 0.15404 0.97031 0.0
H2685 H 0.22474 0.16502 0.00299 0.0
H2686 H 0.76618 0.28777 0.98438 0.0
H2687 H 0.78788 0.32355 0.9843 0.0
H2688 H 0.82311 0.30257 0.04606 0.0
H2689 H 0.80036 0.26694 0.04673 0.0
H2690 H 0.81605 0.34664 0.0475 0.0
H2691 H 0.8468 0.29549 0.99131 0.0
H2692 H 0.8458 0.26948 0.9579 0.0
H2693 H 0.82281 0.32459 0.91491 0.0
H2694 H 0.82336 0.35088 0.94815 0.0
H2695 H 0.9237 0.40498 0.00571 0.0
H2696 H 0.8951 0.37599 0.99584 0.0
H2697 H 0.84142 0.42061 0.02015 0.0
H2698 H 0.87034 0.44887 0.03165 0.0
H2699 H 0.85786 0.36449 0.97543 0.0
H2700 H 0.80647 0.39349 0.05442 0.0
H2701 H 0.81198 0.41722 0.0891 0.0
H2702 H 0.88384 0.40114 0.08942 0.0
H2703 H 0.87872 0.37735 0.05469 0.0
C2704 C 0.77834 0.29097 0.99813 0.0
C2705 C 0.78185 0.27463 0.01546 0.0
C2706 C 0.79083 0.31134 0.99799 0.0
C2707 C 0.80763 0.31547 0.01476 0.0
C2708 C 0.81035 0.29966 0.03282 0.0
C2709 C 0.79739 0.27937 0.03325 0.0
C2710 C 0.82287 0.33582 0.01281 0.0
C2711 C 0.82507 0.35058 0.03169 0.0
C2712 C 0.83505 0.34081 0.99232 0.0
C2713 C 0.83489 0.32509 0.97227 0.0
C2714 C 0.84138 0.30203 0.97476 0.0
C2715 C 0.84092 0.28724 0.95585 0.0
C2716 C 0.83419 0.29536 0.93431 0.0
C2717 C 0.82798 0.31832 0.93162 0.0
C2718 C 0.82838 0.33317 0.95048 0.0
C2719 C 0.9057 0.40906 0.0078 0.0
C2720 C 0.89912 0.4289 0.01967 0.0
C2721 C 0.88933 0.39237 0.00237 0.0
C2722 C 0.86623 0.39569 0.00833 0.0
C2723 C 0.85928 0.41734 0.01627 0.0
C2724 C 0.87573 0.43369 0.02242 0.0
C2725 C 0.85056 0.37562 0.00991 0.0
C2726 C 0.84848 0.36077 0.99107 0.0
C2727 C 0.83906 0.37012 0.03067 0.0
C2728 C 0.84221 0.38379 0.05193 0.0
C2729 C 0.8234 0.39492 0.062 0.0
C2730 C 0.82648 0.40841 0.08163 0.0
C2731 C 0.84825 0.41067 0.0915 0.0
C2732 C 0.86699 0.3994 0.08176 0.0
C2733 C 0.86402 0.38594 0.06208 0.0
H2734 H 0.85059 0.42115 0.10669 0.0
H2735 H 0.83384 0.28389 0.9197 0.0
loop_
_geom_bond_atom_site_label_1
_geom_bond_atom_site_label_2
_geom_bond_distance
_geom_bond_site_symmetry_2
_ccdc_geom_bond_type
C0 O2 1.247 . S
C0 O4 1.258 1_455 S
C1 O8 1.247 . S
C1 O9 1.258 1_655 S
O2 C0 1.247 . S
O2 Zn3 2.028 . S
Zn3 O2 2.028 . S
Zn3 O7 2.035 . S
Zn3 O9 2.035 . S
Zn3 O10 2.028 . S
O4 C0 1.258 1_655 S
O4 Zn5 2.035 . S
Zn5 O4 2.035 . S
Zn5 O6 2.028 . S
Zn5 O8 2.028 . S
Zn5 O11 2.035 . S
O6 Zn5 2.028 . S
O6 C12 1.247 . S
O7 Zn3 2.035 . S
O7 C12 1.258 1_455 S
O8 C1 1.247 . S
O8 Zn5 2.028 . S
O9 C1 1.258 1_455 S
O9 Zn3 2.035 . S
O10 Zn3 2.028 . S
O10 C13 1.247 . S
O11 Zn5 2.035 . S
O11 C13 1.258 1_655 S
C12 O6 1.247 . S
C12 O7 1.258 1_655 S
C13 O10 1.247 . S
C13 O11 1.258 1_455 S
C14 O16 1.247 . S
C14 O18 1.258 1_455 S
C15 O22 1.247 . S
C15 O23 1.258 1_655 S
O16 C14 1.247 . S
O16 Zn17 2.028 . S
Zn17 O16 2.028 . S
Zn17 O21 2.035 . S
Zn17 O23 2.035 . S
Zn17 O24 2.028 . S
O18 C14 1.258 1_655 S
O18 Zn19 2.035 . S
Zn19 O18 2.035 . S
Zn19 O20 2.028 . S
Zn19 O22 2.028 . S
Zn19 O25 2.035 . S
O20 Zn19 2.028 . S
O20 C26 1.247 . S
O21 Zn17 2.035 . S
O21 C26 1.258 1_455 S
O22 C15 1.247 . S
O22 Zn19 2.028 . S
O23 C15 1.258 1_455 S
O23 Zn17 2.035 . S
O24 Zn17 2.028 . S
O24 C27 1.247 . S
O25 Zn19 2.035 . S
O25 C27 1.258 1_655 S
C26 O20 1.247 . S
C26 O21 1.258 1_655 S
C27 O24 1.247 . S
C27 O25 1.258 1_455 S
C28 O30 1.247 1_545 S
C28 O32 1.258 . S
C29 O36 1.251 . S
C29 O37 1.254 1_545 S
O30 C28 1.247 1_565 S
O30 Zn31 2.028 . S
Zn31 O30 2.028 . S
Zn31 O35 2.035 . S
Zn31 O37 2.035 . S
Zn31 O38 2.028 . S
O32 C28 1.258 . S
O32 Zn33 2.035 . S
Zn33 O32 2.035 . S
Zn33 O34 2.028 . S
Zn33 O36 2.028 . S
Zn33 O39 2.035 . S
O34 Zn33 2.028 . S
O34 C40 1.246 . S
O35 Zn31 2.035 . S
O35 C40 1.259 1_565 S
O36 C29 1.251 . S
O36 Zn33 2.028 . S
O37 C29 1.254 1_565 S
O37 Zn31 2.035 . S
O38 Zn31 2.028 . S
O38 C41 1.247 1_565 S
O39 Zn33 2.035 . S
O39 C41 1.258 . S
C40 O34 1.246 . S
C40 O35 1.259 1_545 S
C41 O38 1.247 1_545 S
C41 O39 1.258 . S
C42 O44 1.247 . S
C42 O46 1.258 . S
C43 O50 1.247 . S
C43 O51 1.258 . S
O44 C42 1.247 . S
O44 Zn45 2.028 . S
Zn45 O44 2.028 . S
Zn45 O49 2.035 . S
Zn45 O51 2.035 . S
Zn45 O52 2.028 . S
O46 C42 1.258 . S
O46 Zn47 2.035 . S
Zn47 O46 2.035 . S
Zn47 O48 2.028 . S
Zn47 O50 2.028 . S
Zn47 O53 2.035 . S
O48 Zn47 2.028 . S
O48 C54 1.247 . S
O49 Zn45 2.035 . S
O49 C54 1.258 . S
O50 C43 1.247 . S
O50 Zn47 2.028 . S
O51 C43 1.258 . S
O51 Zn45 2.035 . S
O52 Zn45 2.028 . S
O52 C55 1.247 . S
O53 Zn47 2.035 . S
O53 C55 1.258 . S
C54 O48 1.247 . S
C54 O49 1.258 . S
C55 O52 1.247 . S
C55 O53 1.258 . S
C56 O58 1.247 1_554 S
C56 O60 1.258 . S
C57 O64 1.247 1_556 S
C57 O65 1.258 . S
O58 C56 1.247 1_556 S
O58 Zn59 2.028 . S
Zn59 O58 2.028 . S
Zn59 O63 2.035 . S
Zn59 O65 2.035 . S
Zn59 O66 2.028 . S
O60 C56 1.258 . S
O60 Zn61 2.035 . S
Zn61 O60 2.035 . S
Zn61 O62 2.028 . S
Zn61 O64 2.028 . S
Zn61 O67 2.035 . S
O62 Zn61 2.028 . S
O62 C68 1.247 1_554 S
O63 Zn59 2.035 . S
O63 C68 1.258 . S
O64 C57 1.247 1_554 S
O64 Zn61 2.028 . S
O65 C57 1.258 . S
O65 Zn59 2.035 . S
O66 Zn59 2.028 . S
O66 C69 1.247 1_556 S
O67 Zn61 2.035 . S
O67 C69 1.258 . S
C68 O62 1.247 1_556 S
C68 O63 1.258 . S
C69 O66 1.247 1_554 S
C69 O67 1.258 . S
C70 O72 1.247 . S
C70 O74 1.258 . S
C71 O78 1.247 . S
C71 O79 1.258 . S
O72 C70 1.247 . S
O72 Zn73 2.028 . S
Zn73 O72 2.028 . S
Zn73 O77 2.035 . S
Zn73 O79 2.035 . S
Zn73 O80 2.028 . S
O74 C70 1.258 . S
O74 Zn75 2.035 . S
Zn75 O74 2.035 . S
Zn75 O76 2.028 . S
Zn75 O78 2.028 . S
Zn75 O81 2.035 . S
O76 Zn75 2.028 . S
O76 C82 1.247 . S
O77 Zn73 2.035 . S
O77 C82 1.258 . S
O78 C71 1.247 . S
O78 Zn75 2.028 . S
O79 C71 1.258 . S
O79 Zn73 2.035 . S
O80 Zn73 2.028 . S
O80 C83 1.247 . S
O81 Zn75 2.035 . S
O81 C83 1.258 . S
C82 O76 1.247 . S
C82 O77 1.258 . S
C83 O80 1.247 . S
C83 O81 1.258 . S
C84 O86 1.247 . S
C84 O88 1.258 . S
C85 O92 1.247 . S
C85 O93 1.258 . S
O86 C84 1.247 . S
O86 Zn87 2.028 . S
Zn87 O86 2.028 . S
Zn87 O91 2.035 . S
Zn87 O93 2.035 . S
Zn87 O94 2.028 . S
O88 C84 1.258 . S
O88 Zn89 2.035 . S
Zn89 O88 2.035 . S
Zn89 O90 2.028 . S
Zn89 O92 2.028 . S
Zn89 O95 2.035 . S
O90 Zn89 2.028 . S
O90 C96 1.247 . S
O91 Zn87 2.035 . S
O91 C96 1.258 . S
O92 C85 1.247 . S
O92 Zn89 2.028 . S
O93 C85 1.258 . S
O93 Zn87 2.035 . S
O94 Zn87 2.028 . S
O94 C97 1.247 . S
O95 Zn89 2.035 . S
O95 C97 1.258 . S
C96 O90 1.247 . S
C96 O91 1.258 . S
C97 O94 1.247 . S
C97 O95 1.258 . S
C98 O100 1.247 . S
C98 O102 1.258 . S
C99 O106 1.247 . S
C99 O107 1.258 . S
O100 C98 1.247 . S
O100 Zn101 2.028 . S
Zn101 O100 2.028 . S
Zn101 O105 2.035 . S
Zn101 O107 2.035 . S
Zn101 O108 2.028 . S
O102 C98 1.258 . S
O102 Zn103 2.035 . S
Zn103 O102 2.035 . S
Zn103 O104 2.028 . S
Zn103 O106 2.028 . S
Zn103 O109 2.035 . S
O104 Zn103 2.028 . S
O104 C110 1.247 . S
O105 Zn101 2.035 . S
O105 C110 1.258 . S
O106 C99 1.247 . S
O106 Zn103 2.028 . S
O107 C99 1.258 . S
O107 Zn101 2.035 . S
O108 Zn101 2.028 . S
O108 C111 1.247 . S
O109 Zn103 2.035 . S
O109 C111 1.258 . S
C110 O104 1.247 . S
C110 O105 1.258 . S
C111 O108 1.247 . S
C111 O109 1.258 . S
C112 O114 1.247 . S
C112 O116 1.258 . S
C113 O120 1.247 . S
C113 O121 1.258 . S
O114 C112 1.247 . S
O114 Zn115 2.028 . S
Zn115 O114 2.028 . S
Zn115 O119 2.035 . S
Zn115 O121 2.035 . S
Zn115 O122 2.028 . S
O116 C112 1.258 . S
O116 Zn117 2.035 . S
Zn117 O116 2.035 . S
Zn117 O118 2.028 . S
Zn117 O120 2.028 . S
Zn117 O123 2.035 . S
O118 Zn117 2.028 . S
O118 C124 1.247 . S
O119 Zn115 2.035 . S
O119 C124 1.258 . S
O120 C113 1.247 . S
O120 Zn117 2.028 . S
O121 C113 1.258 . S
O121 Zn115 2.035 . S
O122 Zn115 2.028 . S
O122 C125 1.247 . S
O123 Zn117 2.035 . S
O123 C125 1.258 . S
C124 O118 1.247 . S
C124 O119 1.258 . S
C125 O122 1.247 . S
C125 O123 1.258 . S
C126 O128 1.247 . S
C126 O130 1.258 . S
C127 O134 1.247 . S
C127 O135 1.258 . S
O128 C126 1.247 . S
O128 Zn129 2.028 . S
Zn129 O128 2.028 . S
Zn129 O133 2.035 . S
Zn129 O135 2.035 . S
Zn129 O136 2.028 . S
O130 C126 1.258 . S
O130 Zn131 2.035 . S
Zn131 O130 2.035 . S
Zn131 O132 2.028 . S
Zn131 O134 2.028 . S
Zn131 O137 2.035 . S
O132 Zn131 2.028 . S
O132 C138 1.247 . S
O133 Zn129 2.035 . S
O133 C138 1.258 . S
O134 C127 1.247 . S
O134 Zn131 2.028 . S
O135 C127 1.258 . S
O135 Zn129 2.035 . S
O136 Zn129 2.028 . S
O136 C139 1.247 . S
O137 Zn131 2.035 . S
O137 C139 1.258 . S
C138 O132 1.247 . S
C138 O133 1.258 . S
C139 O136 1.247 . S
C139 O137 1.258 . S
C140 O142 1.247 . S
C140 O144 1.258 1_565 S
C141 O148 1.247 . S
C141 O149 1.258 1_545 S
O142 C140 1.247 . S
O142 Zn143 2.028 . S
Zn143 O142 2.028 . S
Zn143 O147 2.035 . S
Zn143 O149 2.035 . S
Zn143 O150 2.028 . S
O144 C140 1.258 1_545 S
O144 Zn145 2.035 . S
Zn145 O144 2.035 . S
Zn145 O146 2.028 . S
Zn145 O148 2.028 . S
Zn145 O151 2.035 . S
O146 Zn145 2.028 . S
O146 C152 1.247 . S
O147 Zn143 2.035 . S
O147 C152 1.258 1_565 S
O148 C141 1.247 . S
O148 Zn145 2.028 . S
O149 C141 1.258 1_565 S
O149 Zn143 2.035 . S
O150 Zn143 2.028 . S
O150 C153 1.247 . S
O151 Zn145 2.035 . S
O151 C153 1.258 1_545 S
C152 O146 1.247 . S
C152 O147 1.258 1_545 S
C153 O150 1.247 . S
C153 O151 1.258 1_565 S
C154 O156 1.247 1_556 S
C154 O158 1.258 . S
C155 O162 1.247 1_554 S
C155 O163 1.258 . S
O156 C154 1.247 1_554 S
O156 Zn157 2.028 . S
Zn157 O156 2.028 . S
Zn157 O161 2.035 . S
Zn157 O163 2.035 . S
Zn157 O164 2.028 . S
O158 C154 1.258 . S
O158 Zn159 2.035 . S
Zn159 O158 2.035 . S
Zn159 O160 2.028 . S
Zn159 O162 2.028 . S
Zn159 O165 2.035 . S
O160 Zn159 2.028 . S
O160 C166 1.247 1_556 S
O161 Zn157 2.035 . S
O161 C166 1.258 . S
O162 C155 1.247 1_556 S
O162 Zn159 2.028 . S
O163 C155 1.258 . S
O163 Zn157 2.035 . S
O164 Zn157 2.028 . S
O164 C167 1.247 1_554 S
O165 Zn159 2.035 . S
O165 C167 1.258 . S
C166 O160 1.247 1_554 S
C166 O161 1.258 . S
C167 O164 1.247 1_556 S
C167 O165 1.258 . S
Zn168 O174 1.920 . S
Zn168 O180 1.898 . S
Zn168 O183 1.905 . S
Zn169 O177 1.905 1_554 S
Zn169 O178 1.898 1_545 S
Zn169 O186 1.920 1_455 S
Zn170 O173 2.080 . S
Zn170 O176 2.114 . S
Zn170 O179 2.120 . S
Zn170 O181 2.120 . S
Zn170 O182 2.114 . S
Zn170 O185 2.080 . S
C171 O176 1.166 . S
C171 O177 1.182 1_554 S
C172 O178 1.167 1_545 S
C172 O179 1.299 . S
O173 Zn170 2.080 . S
O173 C187 1.305 . S
O174 Zn168 1.920 . S
O174 C187 1.234 . S
C175 O180 1.167 . S
C175 O181 1.299 . S
O176 Zn170 2.114 . S
O176 C171 1.166 . S
O177 Zn169 1.905 1_556 S
O177 C171 1.182 1_556 S
O178 Zn169 1.898 1_565 S
O178 C172 1.167 1_565 S
O179 Zn170 2.120 . S
O179 C172 1.299 . S
O180 Zn168 1.898 . S
O180 C175 1.167 . S
O181 Zn170 2.120 . S
O181 C175 1.299 . S
O182 Zn170 2.114 . S
O182 C184 1.166 . S
O183 Zn168 1.905 . S
O183 C184 1.182 . S
C184 O182 1.166 . S
C184 O183 1.182 . S
O185 Zn170 2.080 . S
O185 C188 1.305 1_455 S
O186 Zn169 1.920 1_655 S
O186 C188 1.234 . S
C187 O173 1.305 . S
C187 O174 1.234 . S
C188 O185 1.305 1_655 S
C188 O186 1.234 . S
Zn189 O195 1.920 1_655 S
Zn189 O201 1.898 . S
Zn189 O204 1.905 1_554 S
Zn190 O198 1.905 . S
Zn190 O199 1.898 . S
Zn190 O207 1.920 . S
Zn191 O194 2.080 . S
Zn191 O197 2.114 . S
Zn191 O200 2.120 . S
Zn191 O202 2.120 . S
Zn191 O203 2.114 . S
Zn191 O206 2.080 . S
C192 O197 1.166 . S
C192 O198 1.182 . S
C193 O199 1.167 . S
C193 O200 1.299 . S
O194 Zn191 2.080 . S
O194 C208 1.305 1_655 S
O195 Zn189 1.920 1_455 S
O195 C208 1.234 . S
C196 O201 1.167 . S
C196 O202 1.299 . S
O197 Zn191 2.114 . S
O197 C192 1.166 . S
O198 Zn190 1.905 . S
O198 C192 1.182 . S
O199 Zn190 1.898 . S
O199 C193 1.167 . S
O200 Zn191 2.120 . S
O200 C193 1.299 . S
O201 Zn189 1.898 . S
O201 C196 1.167 . S
O202 Zn191 2.120 . S
O202 C196 1.299 . S
O203 Zn191 2.114 . S
O203 C205 1.166 . S
O204 Zn189 1.905 1_556 S
O204 C205 1.182 1_556 S
C205 O203 1.166 . S
C205 O204 1.182 1_554 S
O206 Zn191 2.080 . S
O206 C209 1.305 . S
O207 Zn190 1.920 . S
O207 C209 1.234 . S
C208 O194 1.305 1_455 S
C208 O195 1.234 . S
C209 O206 1.305 . S
C209 O207 1.234 . S
Zn210 O216 1.920 1_565 S
Zn210 O222 1.898 . S
Zn210 O225 1.905 1_455 S
Zn211 O219 1.905 . S
Zn211 O220 1.898 . S
Zn211 O228 1.920 . S
Zn212 O215 2.080 . S
Zn212 O218 2.114 . S
Zn212 O221 2.120 . S
Zn212 O223 2.120 . S
Zn212 O224 2.114 . S
Zn212 O227 2.080 . S
C213 O218 1.166 . S
C213 O219 1.182 . S
C214 O220 1.167 . S
C214 O221 1.299 . S
O215 Zn212 2.080 . S
O215 C229 1.305 1_565 S
O216 Zn210 1.920 1_545 S
O216 C229 1.234 . S
C217 O222 1.167 . S
C217 O223 1.299 . S
O218 Zn212 2.114 . S
O218 C213 1.166 . S
O219 Zn211 1.905 . S
O219 C213 1.182 . S
O220 Zn211 1.898 . S
O220 C214 1.167 . S
O221 Zn212 2.120 . S
O221 C214 1.299 . S
O222 Zn210 1.898 . S
O222 C217 1.167 . S
O223 Zn212 2.120 . S
O223 C217 1.299 . S
O224 Zn212 2.114 . S
O224 C226 1.166 . S
O225 Zn210 1.905 1_655 S
O225 C226 1.182 1_655 S
C226 O224 1.166 . S
C226 O225 1.182 1_455 S
O227 Zn212 2.080 . S
O227 C230 1.305 . S
O228 Zn211 1.920 . S
O228 C230 1.234 . S
C229 O215 1.305 1_545 S
C229 O216 1.234 . S
C230 O227 1.305 . S
C230 O228 1.234 . S
Zn231 O237 1.920 . S
Zn231 O243 1.898 . S
Zn231 O246 1.905 . S
Zn232 O240 1.905 . S
Zn232 O241 1.898 1_655 S
Zn232 O249 1.920 . S
Zn233 O236 2.080 . S
Zn233 O239 2.114 . S
Zn233 O242 2.120 . S
Zn233 O244 2.120 . S
Zn233 O245 2.114 . S
Zn233 O248 2.080 . S
C234 O239 1.166 . S
C234 O240 1.182 . S
C235 O241 1.167 . S
C235 O242 1.299 1_455 S
O236 Zn233 2.080 . S
O236 C250 1.305 . S
O237 Zn231 1.920 . S
O237 C250 1.234 . S
C238 O243 1.167 . S
C238 O244 1.299 . S
O239 Zn233 2.114 . S
O239 C234 1.166 . S
O240 Zn232 1.905 . S
O240 C234 1.182 . S
O241 Zn232 1.898 1_455 S
O241 C235 1.167 . S
O242 Zn233 2.120 . S
O242 C235 1.299 1_655 S
O243 Zn231 1.898 . S
O243 C238 1.167 . S
O244 Zn233 2.120 . S
O244 C238 1.299 . S
O245 Zn233 2.114 . S
O245 C247 1.166 . S
O246 Zn231 1.905 . S
O246 C247 1.182 . S
C247 O245 1.166 . S
C247 O246 1.182 . S
O248 Zn233 2.080 . S
O248 C251 1.305 . S
O249 Zn232 1.920 . S
O249 C251 1.234 . S
C250 O236 1.305 . S
C250 O237 1.234 . S
C251 O248 1.305 . S
C251 O249 1.234 . S
Zn252 O258 1.920 . S
Zn252 O264 1.898 . S
Zn252 O267 1.905 . S
Zn253 O261 1.905 . S
Zn253 O262 1.898 1_565 S
Zn253 O270 1.920 . S
Zn254 O257 2.080 . S
Zn254 O260 2.114 . S
Zn254 O263 2.120 . S
Zn254 O265 2.120 . S
Zn254 O266 2.114 . S
Zn254 O269 2.080 . S
C255 O260 1.166 . S
C255 O261 1.182 . S
C256 O262 1.167 . S
C256 O263 1.299 1_545 S
O257 Zn254 2.080 . S
O257 C271 1.305 . S
O258 Zn252 1.920 . S
O258 C271 1.234 . S
C259 O264 1.167 . S
C259 O265 1.299 . S
O260 Zn254 2.114 . S
O260 C255 1.166 . S
O261 Zn253 1.905 . S
O261 C255 1.182 . S
O262 Zn253 1.898 1_545 S
O262 C256 1.167 . S
O263 Zn254 2.120 . S
O263 C256 1.299 1_565 S
O264 Zn252 1.898 . S
O264 C259 1.167 . S
O265 Zn254 2.120 . S
O265 C259 1.299 . S
O266 Zn254 2.114 . S
O266 C268 1.166 . S
O267 Zn252 1.905 . S
O267 C268 1.182 . S
C268 O266 1.166 . S
C268 O267 1.182 . S
O269 Zn254 2.080 . S
O269 C272 1.305 . S
O270 Zn253 1.920 . S
O270 C272 1.234 . S
C271 O257 1.305 . S
C271 O258 1.234 . S
C272 O269 1.305 . S
C272 O270 1.234 . S
Zn273 O279 1.920 . S
Zn273 O285 1.898 . S
Zn273 O288 1.905 . S
Zn274 O282 1.905 . S
Zn274 O283 1.898 . S
Zn274 O291 1.920 . S
Zn275 O278 2.080 . S
Zn275 O281 2.114 . S
Zn275 O284 2.120 . S
Zn275 O286 2.120 . S
Zn275 O287 2.114 . S
Zn275 O290 2.080 . S
C276 O281 1.166 . S
C276 O282 1.182 . S
C277 O283 1.167 . S
C277 O284 1.299 . S
O278 Zn275 2.080 . S
O278 C292 1.305 . S
O279 Zn273 1.920 . S
O279 C292 1.234 . S
C280 O285 1.167 . S
C280 O286 1.299 . S
O281 Zn275 2.114 . S
O281 C276 1.166 . S
O282 Zn274 1.905 . S
O282 C276 1.182 . S
O283 Zn274 1.898 . S
O283 C277 1.167 . S
O284 Zn275 2.120 . S
O284 C277 1.299 . S
O285 Zn273 1.898 . S
O285 C280 1.167 . S
O286 Zn275 2.120 . S
O286 C280 1.299 . S
O287 Zn275 2.114 . S
O287 C289 1.166 . S
O288 Zn273 1.905 . S
O288 C289 1.182 . S
C289 O287 1.166 . S
C289 O288 1.182 . S
O290 Zn275 2.080 . S
O290 C293 1.305 . S
O291 Zn274 1.920 . S
O291 C293 1.234 . S
C292 O278 1.305 . S
C292 O279 1.234 . S
C293 O290 1.305 . S
C293 O291 1.234 . S
Zn294 O300 1.920 . S
Zn294 O306 1.898 1_556 S
Zn294 O309 1.905 . S
Zn295 O303 1.905 . S
Zn295 O304 1.898 . S
Zn295 O312 1.920 . S
Zn296 O299 2.080 . S
Zn296 O302 2.114 . S
Zn296 O305 2.120 . S
Zn296 O307 2.120 . S
Zn296 O308 2.114 . S
Zn296 O311 2.080 . S
C297 O302 1.166 . S
C297 O303 1.182 . S
C298 O304 1.167 . S
C298 O305 1.299 . S
O299 Zn296 2.080 . S
O299 C313 1.305 . S
O300 Zn294 1.920 . S
O300 C313 1.234 . S
C301 O306 1.167 . S
C301 O307 1.299 1_554 S
O302 Zn296 2.114 . S
O302 C297 1.166 . S
O303 Zn295 1.905 . S
O303 C297 1.182 . S
O304 Zn295 1.898 . S
O304 C298 1.167 . S
O305 Zn296 2.120 . S
O305 C298 1.299 . S
O306 Zn294 1.898 1_554 S
O306 C301 1.167 . S
O307 Zn296 2.120 . S
O307 C301 1.299 1_556 S
O308 Zn296 2.114 . S
O308 C310 1.166 . S
O309 Zn294 1.905 . S
O309 C310 1.182 . S
C310 O308 1.166 . S
C310 O309 1.182 . S
O311 Zn296 2.080 . S
O311 C314 1.305 . S
O312 Zn295 1.920 . S
O312 C314 1.234 . S
C313 O299 1.305 . S
C313 O300 1.234 . S
C314 O311 1.305 . S
C314 O312 1.234 . S
Zn315 O321 1.920 1_556 S
Zn315 O327 1.898 . S
Zn315 O330 1.905 1_545 S
Zn316 O324 1.905 . S
Zn316 O325 1.898 . S
Zn316 O333 1.920 . S
Zn317 O320 2.080 . S
Zn317 O323 2.114 . S
Zn317 O326 2.120 . S
Zn317 O328 2.120 . S
Zn317 O329 2.114 . S
Zn317 O332 2.080 . S
C318 O323 1.166 . S
C318 O324 1.182 . S
C319 O325 1.167 . S
C319 O326 1.299 . S
O320 Zn317 2.080 . S
O320 C334 1.305 1_556 S
O321 Zn315 1.920 1_554 S
O321 C334 1.234 . S
C322 O327 1.167 . S
C322 O328 1.299 . S
O323 Zn317 2.114 . S
O323 C318 1.166 . S
O324 Zn316 1.905 . S
O324 C318 1.182 . S
O325 Zn316 1.898 . S
O325 C319 1.167 . S
O326 Zn317 2.120 . S
O326 C319 1.299 . S
O327 Zn315 1.898 . S
O327 C322 1.167 . S
O328 Zn317 2.120 . S
O328 C322 1.299 . S
O329 Zn317 2.114 . S
O329 C331 1.166 . S
O330 Zn315 1.905 1_565 S
O330 C331 1.182 1_565 S
C331 O329 1.166 . S
C331 O330 1.182 1_545 S
O332 Zn317 2.080 . S
O332 C335 1.305 . S
O333 Zn316 1.920 . S
O333 C335 1.234 . S
C334 O320 1.305 1_554 S
C334 O321 1.234 . S
C335 O332 1.305 . S
C335 O333 1.234 . S
H336 C354 0.976 . S
H337 C356 0.951 1_655 S
H338 C358 0.950 . S
H339 C359 0.950 . S
H340 C361 0.950 . S
H341 C364 0.950 . S
H342 C365 0.950 . S
H343 C367 0.950 . S
H344 C368 0.950 . S
H345 C369 0.951 . S
H346 C371 0.951 . S
H347 C373 0.950 . S
H348 C374 0.950 . S
H349 C376 0.950 . S
H350 C379 0.950 . S
H351 C380 0.950 . S
H352 C382 0.950 . S
H353 C383 0.950 . S
C354 H336 0.976 . S
C354 C355 1.347 1_655 S
C354 C356 1.384 1_655 S
C355 C354 1.347 1_455 S
C355 C359 1.385 . S
C356 H337 0.951 1_455 S
C356 C354 1.384 1_455 S
C356 C357 1.366 . S
C357 C356 1.366 . S
C357 C358 1.414 . S
C357 C360 1.499 . S
C358 H338 0.950 . S
C358 C357 1.414 . S
C358 C359 1.374 . S
C359 H339 0.950 . S
C359 C355 1.385 . S
C359 C358 1.374 . S
C360 C357 1.499 . S
C360 C361 1.373 . S
C360 C362 1.389 . S
C361 H340 0.950 . S
C361 C360 1.373 . S
C361 C377 1.377 . S
C362 C360 1.389 . S
C362 C363 1.524 . S
C362 C376 1.377 . S
C363 C362 1.524 . S
C363 C364 1.397 . S
C363 C368 1.363 . S
C364 H341 0.950 . S
C364 C363 1.397 . S
C364 C365 1.334 . S
C365 H342 0.950 . S
C365 C364 1.334 . S
C365 C366 1.287 . S
C366 C365 1.287 . S
C366 C367 1.524 . S
C366 H385 0.913 . S
C367 H343 0.950 . S
C367 C366 1.524 . S
C367 C368 1.415 . S
C368 H344 0.950 . S
C368 C363 1.363 . S
C368 C367 1.415 . S
C369 H345 0.951 . S
C369 C370 1.366 . S
C369 C371 1.388 . S
C370 C369 1.366 . S
C370 C374 1.385 . S
C371 H346 0.951 . S
C371 C369 1.388 . S
C371 C372 1.366 . S
C372 C371 1.366 . S
C372 C373 1.414 . S
C372 C375 1.499 . S
C373 H347 0.950 . S
C373 C372 1.414 . S
C373 C374 1.374 . S
C374 H348 0.950 . S
C374 C370 1.385 . S
C374 C373 1.374 . S
C375 C372 1.499 . S
C375 C376 1.373 . S
C375 C377 1.389 . S
C376 H349 0.950 . S
C376 C362 1.377 . S
C376 C375 1.373 . S
C377 C361 1.377 . S
C377 C375 1.389 . S
C377 C378 1.524 . S
C378 C377 1.524 . S
C378 C379 1.397 1_455 S
C378 C383 1.363 . S
C379 H350 0.950 . S
C379 C378 1.397 1_655 S
C379 C380 1.334 . S
C380 H351 0.950 . S
C380 C379 1.334 . S
C380 C381 1.287 1_655 S
C381 C380 1.287 1_455 S
C381 C382 1.524 . S
C381 H384 0.999 . S
C382 H352 0.950 . S
C382 C381 1.524 . S
C382 C383 1.415 . S
C383 H353 0.950 . S
C383 C378 1.363 . S
C383 C382 1.415 . S
H384 C381 0.999 . S
H385 C366 0.913 . S
H386 C404 0.951 . S
H387 C406 0.951 . S
H388 C408 0.950 . S
H389 C409 0.950 . S
H390 C411 0.930 1_455 S
H391 C414 0.950 . S
H392 C415 0.950 . S
H393 C417 0.950 . S
H394 C418 0.950 . S
H395 C419 0.951 . S
H396 C421 0.951 . S
H397 C423 0.950 . S
H398 C424 0.950 . S
H399 C426 0.950 . S
H400 C429 0.950 . S
H401 C430 0.950 . S
H402 C432 0.950 . S
H403 C433 0.950 . S
C404 H386 0.951 . S
C404 C405 1.366 . S
C404 C406 1.388 . S
C405 C404 1.366 . S
C405 C409 1.385 . S
C406 H387 0.951 . S
C406 C404 1.388 . S
C406 C407 1.366 . S
C407 C406 1.366 . S
C407 C408 1.414 . S
C407 C410 1.499 . S
C408 H388 0.950 . S
C408 C407 1.414 . S
C408 C409 1.374 . S
C409 H389 0.950 . S
C409 C405 1.385 . S
C409 C408 1.374 . S
C410 C407 1.499 . S
C410 C411 1.392 . S
C410 C412 1.389 . S
C411 H390 0.930 1_655 S
C411 C410 1.392 . S
C411 C427 1.378 . S
C412 C410 1.389 . S
C412 C413 1.524 . S
C412 C426 1.377 . S
C413 C412 1.524 . S
C413 C414 1.397 . S
C413 C418 1.363 . S
C414 H391 0.950 . S
C414 C413 1.397 . S
C414 C415 1.334 . S
C415 H392 0.950 . S
C415 C414 1.334 . S
C415 C416 1.287 . S
C416 C415 1.287 . S
C416 C417 1.524 . S
C416 H435 0.913 . S
C417 H393 0.950 . S
C417 C416 1.524 . S
C417 C418 1.415 . S
C418 H394 0.950 . S
C418 C413 1.363 . S
C418 C417 1.415 . S
C419 H395 0.951 . S
C419 C420 1.366 . S
C419 C421 1.388 . S
C420 C419 1.366 . S
C420 C424 1.385 . S
C421 H396 0.951 . S
C421 C419 1.388 . S
C421 C422 1.366 . S
C422 C421 1.366 . S
C422 C423 1.414 . S
C422 C425 1.499 . S
C423 H397 0.950 . S
C423 C422 1.414 . S
C423 C424 1.374 . S
C424 H398 0.950 . S
C424 C420 1.385 . S
C424 C423 1.374 . S
C425 C422 1.499 . S
C425 C426 1.373 . S
C425 C427 1.389 . S
C426 H399 0.950 . S
C426 C412 1.377 . S
C426 C425 1.373 . S
C427 C411 1.378 . S
C427 C425 1.389 . S
C427 C428 1.524 1_655 S
C428 C427 1.524 1_455 S
C428 C429 1.397 . S
C428 C433 1.363 . S
C429 H400 0.950 . S
C429 C428 1.397 . S
C429 C430 1.334 . S
C430 H401 0.950 . S
C430 C429 1.334 . S
C430 C431 1.287 . S
C431 C430 1.287 . S
C431 C432 1.524 . S
C431 H434 0.999 . S
C432 H402 0.950 . S
C432 C431 1.524 . S
C432 C433 1.415 . S
C433 H403 0.950 . S
C433 C428 1.363 . S
C433 C432 1.415 . S
H434 C431 0.999 . S
H435 C416 0.913 . S
H436 C454 0.951 . S
H437 C456 0.951 . S
H438 C458 0.950 . S
H439 C459 0.950 . S
H440 C461 0.950 1_655 S
H441 C464 0.950 . S
H442 C465 0.950 . S
H443 C467 0.950 . S
H444 C468 0.950 . S
H445 C469 0.951 . S
H446 C471 0.951 . S
H447 C473 0.950 . S
H448 C474 0.950 . S
H449 C476 0.950 . S
H450 C479 0.950 . S
H451 C480 0.950 . S
H452 C482 0.950 . S
H453 C483 0.950 . S
C454 H436 0.951 . S
C454 C455 1.366 . S
C454 C456 1.388 . S
C455 C454 1.366 . S
C455 C459 1.385 . S
C456 H437 0.951 . S
C456 C454 1.388 . S
C456 C457 1.366 . S
C457 C456 1.366 . S
C457 C458 1.414 . S
C457 C460 1.499 . S
C458 H438 0.950 . S
C458 C457 1.414 . S
C458 C459 1.374 . S
C459 H439 0.950 . S
C459 C455 1.385 . S
C459 C458 1.374 . S
C460 C457 1.499 . S
C460 C461 1.373 . S
C460 C462 1.389 . S
C461 H440 0.950 1_455 S
C461 C460 1.373 . S
C461 C477 1.377 . S
C462 C460 1.389 . S
C462 C463 1.524 . S
C462 C476 1.377 . S
C463 C462 1.524 . S
C463 C464 1.397 . S
C463 C468 1.363 . S
C464 H441 0.950 . S
C464 C463 1.397 . S
C464 C465 1.334 . S
C465 H442 0.950 . S
C465 C464 1.334 . S
C465 C466 1.287 . S
C466 C465 1.287 . S
C466 C467 1.524 . S
C466 H485 0.913 . S
C467 H443 0.950 . S
C467 C466 1.524 . S
C467 C468 1.415 . S
C468 H444 0.950 . S
C468 C463 1.363 . S
C468 C467 1.415 . S
C469 H445 0.951 . S
C469 C470 1.366 . S
C469 C471 1.388 . S
C470 C469 1.366 . S
C470 C474 1.385 . S
C471 H446 0.951 . S
C471 C469 1.388 . S
C471 C472 1.366 . S
C472 C471 1.366 . S
C472 C473 1.414 . S
C472 C475 1.499 . S
C473 H447 0.950 . S
C473 C472 1.414 . S
C473 C474 1.374 . S
C474 H448 0.950 . S
C474 C470 1.385 . S
C474 C473 1.374 . S
C475 C472 1.499 . S
C475 C476 1.373 . S
C475 C477 1.389 . S
C476 H449 0.950 . S
C476 C462 1.377 . S
C476 C475 1.373 . S
C477 C461 1.377 . S
C477 C475 1.389 . S
C477 C478 1.524 1_455 S
C478 C477 1.524 1_655 S
C478 C479 1.397 . S
C478 C483 1.363 . S
C479 H450 0.950 . S
C479 C478 1.397 . S
C479 C480 1.334 . S
C480 H451 0.950 . S
C480 C479 1.334 . S
C480 C481 1.287 . S
C481 C480 1.287 . S
C481 C482 1.524 . S
C481 H484 0.999 . S
C482 H452 0.950 . S
C482 C481 1.524 . S
C482 C483 1.415 . S
C483 H453 0.950 . S
C483 C478 1.363 . S
C483 C482 1.415 . S
H484 C481 0.999 . S
H485 C466 0.913 . S
H486 C504 0.951 . S
H487 C506 0.951 . S
H488 C508 0.950 . S
H489 C509 0.950 . S
H490 C511 0.950 . S
H491 C514 0.950 . S
H492 C515 0.950 . S
H493 C517 0.950 . S
H494 C518 0.950 . S
H495 C519 0.951 . S
H496 C521 0.951 . S
H497 C523 0.950 . S
H498 C524 0.950 . S
H499 C526 0.961 . S
H500 C529 0.950 . S
H501 C530 0.950 . S
H502 C532 0.950 . S
H503 C533 0.950 . S
C504 H486 0.951 . S
C504 C505 1.366 . S
C504 C506 1.388 . S
C505 C504 1.366 . S
C505 C509 1.385 . S
C506 H487 0.951 . S
C506 C504 1.388 . S
C506 C507 1.366 . S
C507 C506 1.366 . S
C507 C508 1.414 . S
C507 C510 1.499 . S
C508 H488 0.950 . S
C508 C507 1.414 . S
C508 C509 1.374 . S
C509 H489 0.950 . S
C509 C505 1.385 . S
C509 C508 1.374 . S
C510 C507 1.499 . S
C510 C511 1.373 . S
C510 C512 1.389 . S
C511 H490 0.950 . S
C511 C510 1.373 . S
C511 C527 1.377 . S
C512 C510 1.389 . S
C512 C513 1.524 1_655 S
C512 C526 1.377 . S
C513 C512 1.524 1_455 S
C513 C514 1.397 . S
C513 C518 1.363 . S
C514 H491 0.950 . S
C514 C513 1.397 . S
C514 C515 1.334 . S
C515 H492 0.950 . S
C515 C514 1.334 . S
C515 C516 1.287 . S
C516 C515 1.287 . S
C516 C517 1.524 . S
C516 H535 0.913 . S
C517 H493 0.950 . S
C517 C516 1.524 . S
C517 C518 1.415 . S
C518 H494 0.950 . S
C518 C513 1.363 . S
C518 C517 1.415 . S
C519 H495 0.951 . S
C519 C520 1.366 . S
C519 C521 1.388 . S
C520 C519 1.366 . S
C520 C524 1.385 . S
C521 H496 0.951 . S
C521 C519 1.388 . S
C521 C522 1.366 . S
C522 C521 1.366 . S
C522 C523 1.414 . S
C522 C525 1.499 . S
C523 H497 0.950 . S
C523 C522 1.414 . S
C523 C524 1.374 . S
C524 H498 0.950 . S
C524 C520 1.385 . S
C524 C523 1.374 . S
C525 C522 1.499 . S
C525 C526 1.373 . S
C525 C527 1.389 . S
C526 H499 0.961 . S
C526 C512 1.377 . S
C526 C525 1.373 . S
C527 C511 1.377 . S
C527 C525 1.389 . S
C527 C528 1.524 . S
C528 C527 1.524 . S
C528 C529 1.397 . S
C528 C533 1.363 . S
C529 H500 0.950 . S
C529 C528 1.397 . S
C529 C530 1.334 . S
C530 H501 0.950 . S
C530 C529 1.334 . S
C530 C531 1.287 . S
C531 C530 1.287 . S
C531 C532 1.524 . S
C531 H534 0.999 . S
C532 H502 0.950 . S
C532 C531 1.524 . S
C532 C533 1.415 . S
C533 H503 0.950 . S
C533 C528 1.363 . S
C533 C532 1.415 . S
H534 C531 0.999 . S
H535 C516 0.913 . S
H536 C554 0.951 1_565 S
H537 C556 0.951 1_565 S
H538 C558 0.950 . S
H539 C559 0.950 . S
H540 C561 0.950 . S
H541 C564 0.950 . S
H542 C565 0.950 . S
H543 C567 0.950 . S
H544 C568 0.950 . S
H545 C569 0.951 . S
H546 C571 0.951 . S
H547 C573 0.950 . S
H548 C574 0.950 . S
H549 C576 0.950 . S
H550 C579 0.950 1_565 S
H551 C580 0.950 . S
H552 C582 0.950 . S
H553 C583 0.950 . S
C554 H536 0.951 1_545 S
C554 C555 1.366 . S
C554 C556 1.388 . S
C555 C554 1.366 . S
C555 C559 1.385 . S
C556 H537 0.951 1_545 S
C556 C554 1.388 . S
C556 C557 1.366 . S
C557 C556 1.366 . S
C557 C558 1.414 . S
C557 C560 1.499 . S
C558 H538 0.950 . S
C558 C557 1.414 . S
C558 C559 1.374 . S
C559 H539 0.950 . S
C559 C555 1.385 . S
C559 C558 1.374 . S
C560 C557 1.499 . S
C560 C561 1.373 . S
C560 C562 1.389 . S
C561 H540 0.950 . S
C561 C560 1.373 . S
C561 C577 1.377 . S
C562 C560 1.389 . S
C562 C563 1.524 . S
C562 C576 1.377 . S
C563 C562 1.524 . S
C563 C564 1.397 . S
C563 C568 1.363 . S
C564 H541 0.950 . S
C564 C563 1.397 . S
C564 C565 1.334 . S
C565 H542 0.950 . S
C565 C564 1.334 . S
C565 C566 1.287 . S
C566 C565 1.287 . S
C566 C567 1.524 . S
C566 H585 0.913 . S
C567 H543 0.950 . S
C567 C566 1.524 . S
C567 C568 1.415 . S
C568 H544 0.950 . S
C568 C563 1.363 . S
C568 C567 1.415 . S
C569 H545 0.951 . S
C569 C570 1.366 . S
C569 C571 1.388 . S
C570 C569 1.366 . S
C570 C574 1.385 . S
C571 H546 0.951 . S
C571 C569 1.388 . S
C571 C572 1.366 . S
C572 C571 1.366 . S
C572 C573 1.414 . S
C572 C575 1.499 . S
C573 H547 0.950 . S
C573 C572 1.414 . S
C573 C574 1.374 . S
C574 H548 0.950 . S
C574 C570 1.385 . S
C574 C573 1.374 . S
C575 C572 1.499 . S
C575 C576 1.373 . S
C575 C577 1.389 . S
C576 H549 0.950 . S
C576 C562 1.377 . S
C576 C575 1.373 . S
C577 C561 1.377 . S
C577 C575 1.389 . S
C577 C578 1.524 . S
C578 C577 1.524 . S
C578 C579 1.397 . S
C578 C583 1.363 . S
C579 H550 0.950 1_545 S
C579 C578 1.397 . S
C579 C580 1.334 1_545 S
C580 H551 0.950 . S
C580 C579 1.334 1_565 S
C580 C581 1.287 1_565 S
C581 C580 1.287 1_545 S
C581 C582 1.524 . S
C581 H584 0.999 . S
C582 H552 0.950 . S
C582 C581 1.524 . S
C582 C583 1.415 . S
C583 H553 0.950 . S
C583 C578 1.363 . S
C583 C582 1.415 . S
H584 C581 0.999 . S
H585 C566 0.913 . S
H586 C604 0.951 . S
H587 C606 0.951 . S
H588 C608 0.950 . S
H589 C609 0.950 . S
H590 C611 0.950 . S
H591 C614 0.950 . S
H592 C615 0.950 . S
H593 C617 0.950 . S
H594 C618 0.950 . S
H595 C619 0.951 . S
H596 C621 0.951 . S
H597 C623 0.950 . S
H598 C624 0.950 . S
H599 C626 0.950 . S
H600 C629 0.950 . S
H601 C630 0.950 . S
H602 C632 0.950 . S
H603 C633 0.950 . S
C604 H586 0.951 . S
C604 C605 1.366 . S
C604 C606 1.388 . S
C605 C604 1.366 . S
C605 C609 1.385 . S
C606 H587 0.951 . S
C606 C604 1.388 . S
C606 C607 1.366 . S
C607 C606 1.366 . S
C607 C608 1.414 . S
C607 C610 1.499 . S
C608 H588 0.950 . S
C608 C607 1.414 . S
C608 C609 1.374 . S
C609 H589 0.950 . S
C609 C605 1.385 . S
C609 C608 1.374 . S
C610 C607 1.499 . S
C610 C611 1.373 . S
C610 C612 1.389 . S
C611 H590 0.950 . S
C611 C610 1.373 . S
C611 C627 1.377 . S
C612 C610 1.389 . S
C612 C613 1.524 . S
C612 C626 1.377 . S
C613 C612 1.524 . S
C613 C614 1.397 . S
C613 C618 1.363 . S
C614 H591 0.950 . S
C614 C613 1.397 . S
C614 C615 1.334 . S
C615 H592 0.950 . S
C615 C614 1.334 . S
C615 C616 1.287 . S
C616 C615 1.287 . S
C616 C617 1.524 . S
C616 H635 0.913 . S
C617 H593 0.950 . S
C617 C616 1.524 . S
C617 C618 1.415 . S
C618 H594 0.950 . S
C618 C613 1.363 . S
C618 C617 1.415 . S
C619 H595 0.951 . S
C619 C620 1.366 . S
C619 C621 1.388 . S
C620 C619 1.366 . S
C620 C624 1.385 . S
C621 H596 0.951 . S
C621 C619 1.388 . S
C621 C622 1.366 . S
C622 C621 1.366 . S
C622 C623 1.414 . S
C622 C625 1.499 . S
C623 H597 0.950 . S
C623 C622 1.414 . S
C623 C624 1.374 . S
C624 H598 0.950 . S
C624 C620 1.385 . S
C624 C623 1.374 . S
C625 C622 1.499 . S
C625 C626 1.373 . S
C625 C627 1.389 . S
C626 H599 0.950 . S
C626 C612 1.377 . S
C626 C625 1.373 . S
C627 C611 1.377 . S
C627 C625 1.389 . S
C627 C628 1.524 . S
C628 C627 1.524 . S
C628 C629 1.397 . S
C628 C633 1.363 . S
C629 H600 0.950 . S
C629 C628 1.397 . S
C629 C630 1.334 . S
C630 H601 0.950 . S
C630 C629 1.334 . S
C630 C631 1.287 . S
C631 C630 1.287 . S
C631 C632 1.524 . S
C631 H634 0.999 . S
C632 H602 0.950 . S
C632 C631 1.524 . S
C632 C633 1.415 . S
C633 H603 0.950 . S
C633 C628 1.363 . S
C633 C632 1.415 . S
H634 C631 0.999 . S
H635 C616 0.913 . S
H636 C654 0.951 . S
H637 C656 0.951 . S
H638 C658 0.950 . S
H639 C659 0.950 . S
H640 C661 0.950 . S
H641 C664 0.950 . S
H642 C665 0.950 . S
H643 C667 0.950 . S
H644 C668 0.950 . S
H645 C669 0.951 1_545 S
H646 C671 0.951 1_545 S
H647 C673 0.950 . S
H648 C674 0.950 . S
H649 C676 0.950 . S
H650 C679 0.950 1_565 S
H651 C680 0.950 . S
H652 C682 0.950 . S
H653 C683 0.950 . S
C654 H636 0.951 . S
C654 C655 1.366 . S
C654 C656 1.388 . S
C655 C654 1.366 . S
C655 C659 1.385 1_565 S
C656 H637 0.951 . S
C656 C654 1.388 . S
C656 C657 1.366 . S
C657 C656 1.366 . S
C657 C658 1.414 1_565 S
C657 C660 1.499 . S
C658 H638 0.950 . S
C658 C657 1.414 1_545 S
C658 C659 1.374 . S
C659 H639 0.950 . S
C659 C655 1.385 1_545 S
C659 C658 1.374 . S
C660 C657 1.499 . S
C660 C661 1.373 1_565 S
C660 C662 1.389 . S
C661 H640 0.950 . S
C661 C660 1.373 1_545 S
C661 C677 1.377 1_545 S
C662 C660 1.389 . S
C662 C663 1.524 . S
C662 C676 1.377 . S
C663 C662 1.524 . S
C663 C664 1.397 . S
C663 C668 1.363 . S
C664 H641 0.950 . S
C664 C663 1.397 . S
C664 C665 1.334 . S
C665 H642 0.950 . S
C665 C664 1.334 . S
C665 C666 1.287 . S
C666 C665 1.287 . S
C666 C667 1.524 . S
C666 H685 0.913 . S
C667 H643 0.950 . S
C667 C666 1.524 . S
C667 C668 1.415 . S
C668 H644 0.950 . S
C668 C663 1.363 . S
C668 C667 1.415 . S
C669 H645 0.951 1_565 S
C669 C670 1.366 . S
C669 C671 1.388 . S
C670 C669 1.366 . S
C670 C674 1.385 . S
C671 H646 0.951 1_565 S
C671 C669 1.388 . S
C671 C672 1.366 . S
C672 C671 1.366 . S
C672 C673 1.414 . S
C672 C675 1.499 . S
C673 H647 0.950 . S
C673 C672 1.414 . S
C673 C674 1.374 . S
C674 H648 0.950 . S
C674 C670 1.385 . S
C674 C673 1.374 . S
C675 C672 1.499 . S
C675 C676 1.373 . S
C675 C677 1.386 . S
C676 H649 0.950 . S
C676 C662 1.377 . S
C676 C675 1.373 . S
C677 C661 1.377 1_565 S
C677 C675 1.386 . S
C677 C678 1.527 1_565 S
C678 C677 1.527 1_545 S
C678 C679 1.397 . S
C678 C683 1.363 . S
C679 H650 0.950 1_545 S
C679 C678 1.397 . S
C679 C680 1.334 . S
C680 H651 0.950 . S
C680 C679 1.334 . S
C680 C681 1.287 . S
C681 C680 1.287 . S
C681 C682 1.524 . S
C681 H684 0.999 . S
C682 H652 0.950 . S
C682 C681 1.524 . S
C682 C683 1.415 . S
C683 H653 0.950 . S
C683 C678 1.363 . S
C683 C682 1.415 . S
H684 C681 0.999 . S
H685 C666 0.913 . S
H686 C704 0.951 . S
H687 C706 0.951 . S
H688 C708 0.950 . S
H689 C709 0.950 . S
H690 C711 0.950 . S
H691 C714 0.950 . S
H692 C715 0.950 . S
H693 C717 0.950 . S
H694 C718 0.950 . S
H695 C719 0.951 . S
H696 C721 0.951 . S
H697 C723 0.950 . S
H698 C724 0.950 . S
H699 C726 0.950 . S
H700 C729 0.950 . S
H701 C730 0.950 . S
H702 C732 0.950 . S
H703 C733 0.950 . S
C704 H686 0.951 . S
C704 C705 1.366 . S
C704 C706 1.388 . S
C705 C704 1.366 . S
C705 C709 1.385 . S
C706 H687 0.951 . S
C706 C704 1.388 . S
C706 C707 1.366 . S
C707 C706 1.366 . S
C707 C708 1.414 . S
C707 C710 1.499 . S
C708 H688 0.950 . S
C708 C707 1.414 . S
C708 C709 1.374 . S
C709 H689 0.950 . S
C709 C705 1.385 . S
C709 C708 1.374 . S
C710 C707 1.499 . S
C710 C711 1.373 . S
C710 C712 1.389 . S
C711 H690 0.950 . S
C711 C710 1.373 . S
C711 C727 1.377 . S
C712 C710 1.389 . S
C712 C713 1.524 . S
C712 C726 1.377 . S
C713 C712 1.524 . S
C713 C714 1.397 . S
C713 C718 1.363 . S
C714 H691 0.950 . S
C714 C713 1.397 . S
C714 C715 1.334 . S
C715 H692 0.950 . S
C715 C714 1.334 . S
C715 C716 1.287 . S
C716 C715 1.287 . S
C716 C717 1.524 . S
C716 H735 0.913 . S
C717 H693 0.950 . S
C717 C716 1.524 . S
C717 C718 1.415 . S
C718 H694 0.950 . S
C718 C713 1.363 . S
C718 C717 1.415 . S
C719 H695 0.951 . S
C719 C720 1.366 . S
C719 C721 1.388 . S
C720 C719 1.366 . S
C720 C724 1.385 . S
C721 H696 0.951 . S
C721 C719 1.388 . S
C721 C722 1.366 . S
C722 C721 1.366 . S
C722 C723 1.414 . S
C722 C725 1.499 . S
C723 H697 0.950 . S
C723 C722 1.414 . S
C723 C724 1.374 . S
C724 H698 0.950 . S
C724 C720 1.385 . S
C724 C723 1.374 . S
C725 C722 1.499 . S
C725 C726 1.373 . S
C725 C727 1.389 . S
C726 H699 0.950 . S
C726 C712 1.377 . S
C726 C725 1.373 . S
C727 C711 1.377 . S
C727 C725 1.389 . S
C727 C728 1.524 . S
C728 C727 1.524 . S
C728 C729 1.397 . S
C728 C733 1.363 . S
C729 H700 0.950 . S
C729 C728 1.397 . S
C729 C730 1.334 . S
C730 H701 0.950 . S
C730 C729 1.334 . S
C730 C731 1.287 . S
C731 C730 1.287 . S
C731 C732 1.524 . S
C731 H734 0.999 . S
C732 H702 0.950 . S
C732 C731 1.524 . S
C732 C733 1.415 . S
C733 H703 0.950 . S
C733 C728 1.363 . S
C733 C732 1.415 . S
H734 C731 0.999 . S
H735 C716 0.913 . S
H736 C754 0.951 . S
H737 C756 0.951 . S
H738 C758 0.950 . S
H739 C759 0.950 . S
H740 C761 0.950 1_556 S
H741 C764 0.950 . S
H742 C765 0.950 . S
H743 C767 0.950 . S
H744 C768 0.950 . S
H745 C769 0.951 . S
H746 C771 0.951 . S
H747 C773 0.950 . S
H748 C774 0.950 . S
H749 C776 0.950 . S
H750 C779 0.950 . S
H751 C780 0.950 . S
H752 C782 0.950 . S
H753 C783 0.950 . S
C754 H736 0.951 . S
C754 C755 1.366 . S
C754 C756 1.388 . S
C755 C754 1.366 . S
C755 C759 1.385 . S
C756 H737 0.951 . S
C756 C754 1.388 . S
C756 C757 1.366 . S
C757 C756 1.366 . S
C757 C758 1.414 . S
C757 C760 1.499 . S
C758 H738 0.950 . S
C758 C757 1.414 . S
C758 C759 1.374 . S
C759 H739 0.950 . S
C759 C755 1.385 . S
C759 C758 1.374 . S
C760 C757 1.499 . S
C760 C761 1.373 . S
C760 C762 1.389 . S
C761 H740 0.950 1_554 S
C761 C760 1.373 . S
C761 C777 1.377 . S
C762 C760 1.389 . S
C762 C763 1.524 . S
C762 C776 1.377 . S
C763 C762 1.524 . S
C763 C764 1.397 . S
C763 C768 1.363 . S
C764 H741 0.950 . S
C764 C763 1.397 . S
C764 C765 1.334 . S
C765 H742 0.950 . S
C765 C764 1.334 . S
C765 C766 1.287 . S
C766 C765 1.287 . S
C766 C767 1.524 . S
C766 H785 0.913 . S
C767 H743 0.950 . S
C767 C766 1.524 . S
C767 C768 1.415 . S
C768 H744 0.950 . S
C768 C763 1.363 . S
C768 C767 1.415 . S
C769 H745 0.951 . S
C769 C770 1.366 . S
C769 C771 1.388 . S
C770 C769 1.366 . S
C770 C774 1.385 . S
C771 H746 0.951 . S
C771 C769 1.388 . S
C771 C772 1.366 . S
C772 C771 1.366 . S
C772 C773 1.414 . S
C772 C775 1.499 . S
C773 H747 0.950 . S
C773 C772 1.414 . S
C773 C774 1.374 . S
C774 H748 0.950 . S
C774 C770 1.385 . S
C774 C773 1.374 . S
C775 C772 1.499 . S
C775 C776 1.373 . S
C775 C777 1.389 . S
C776 H749 0.950 . S
C776 C762 1.377 . S
C776 C775 1.373 . S
C777 C761 1.377 . S
C777 C775 1.389 . S
C777 C778 1.524 1_554 S
C778 C777 1.524 1_556 S
C778 C779 1.397 . S
C778 C783 1.363 . S
C779 H750 0.950 . S
C779 C778 1.397 . S
C779 C780 1.334 . S
C780 H751 0.950 . S
C780 C779 1.334 . S
C780 C781 1.287 . S
C781 C780 1.287 . S
C781 C782 1.524 . S
C781 H784 0.999 . S
C782 H752 0.950 . S
C782 C781 1.524 . S
C782 C783 1.415 . S
C783 H753 0.950 . S
C783 C778 1.363 . S
C783 C782 1.415 . S
H784 C781 0.999 . S
H785 C766 0.913 . S
H786 C804 0.951 . S
H787 C806 0.951 . S
H788 C808 0.950 . S
H789 C809 0.950 . S
H790 C811 0.950 . S
H791 C814 0.950 . S
H792 C815 0.950 . S
H793 C817 0.950 . S
H794 C818 0.950 . S
H795 C819 0.951 . S
H796 C821 0.951 . S
H797 C823 0.950 . S
H798 C824 0.950 . S
H799 C826 0.950 . S
H800 C829 0.950 . S
H801 C830 0.950 . S
H802 C832 0.950 . S
H803 C833 0.950 . S
C804 H786 0.951 . S
C804 C805 1.366 . S
C804 C806 1.388 . S
C805 C804 1.366 . S
C805 C809 1.385 . S
C806 H787 0.951 . S
C806 C804 1.388 . S
C806 C807 1.366 . S
C807 C806 1.366 . S
C807 C808 1.414 . S
C807 C810 1.499 . S
C808 H788 0.950 . S
C808 C807 1.414 . S
C808 C809 1.374 . S
C809 H789 0.950 . S
C809 C805 1.385 . S
C809 C808 1.374 . S
C810 C807 1.499 . S
C810 C811 1.373 . S
C810 C812 1.389 . S
C811 H790 0.950 . S
C811 C810 1.373 . S
C811 C827 1.377 . S
C812 C810 1.389 . S
C812 C813 1.524 . S
C812 C826 1.377 . S
C813 C812 1.524 . S
C813 C814 1.397 . S
C813 C818 1.363 . S
C814 H791 0.950 . S
C814 C813 1.397 . S
C814 C815 1.334 . S
C815 H792 0.950 . S
C815 C814 1.334 . S
C815 C816 1.287 . S
C816 C815 1.287 . S
C816 C817 1.524 . S
C816 H835 0.913 . S
C817 H793 0.950 . S
C817 C816 1.524 . S
C817 C818 1.415 . S
C818 H794 0.950 . S
C818 C813 1.363 . S
C818 C817 1.415 . S
C819 H795 0.951 . S
C819 C820 1.366 . S
C819 C821 1.388 . S
C820 C819 1.366 . S
C820 C824 1.385 . S
C821 H796 0.951 . S
C821 C819 1.388 . S
C821 C822 1.366 . S
C822 C821 1.366 . S
C822 C823 1.414 . S
C822 C825 1.499 . S
C823 H797 0.950 . S
C823 C822 1.414 . S
C823 C824 1.374 . S
C824 H798 0.950 . S
C824 C820 1.385 . S
C824 C823 1.374 . S
C825 C822 1.499 . S
C825 C826 1.373 . S
C825 C827 1.389 . S
C826 H799 0.950 . S
C826 C812 1.377 . S
C826 C825 1.373 . S
C827 C811 1.377 . S
C827 C825 1.389 . S
C827 C828 1.524 . S
C828 C827 1.524 . S
C828 C829 1.397 . S
C828 C833 1.363 . S
C829 H800 0.950 . S
C829 C828 1.397 . S
C829 C830 1.334 . S
C830 H801 0.950 . S
C830 C829 1.334 . S
C830 C831 1.287 . S
C831 C830 1.287 . S
C831 C832 1.524 . S
C831 H834 0.999 . S
C832 H802 0.950 . S
C832 C831 1.524 . S
C832 C833 1.415 . S
C833 H803 0.950 . S
C833 C828 1.363 . S
C833 C832 1.415 . S
H834 C831 0.999 . S
H835 C816 0.913 . S
H836 C854 0.951 . S
H837 C856 0.951 . S
H838 C858 0.950 . S
H839 C859 0.950 . S
H840 C861 0.950 . S
H841 C864 0.950 . S
H842 C865 0.950 . S
H843 C867 0.950 . S
H844 C868 0.950 . S
H845 C869 0.951 . S
H846 C871 0.951 . S
H847 C873 0.950 . S
H848 C874 0.950 . S
H849 C876 0.950 . S
H850 C879 0.950 . S
H851 C880 0.950 . S
H852 C882 0.950 . S
H853 C883 0.950 . S
C854 H836 0.951 . S
C854 C855 1.366 . S
C854 C856 1.388 . S
C855 C854 1.366 . S
C855 C859 1.385 . S
C856 H837 0.951 . S
C856 C854 1.388 . S
C856 C857 1.366 . S
C857 C856 1.366 . S
C857 C858 1.414 . S
C857 C860 1.499 . S
C858 H838 0.950 . S
C858 C857 1.414 . S
C858 C859 1.374 . S
C859 H839 0.950 . S
C859 C855 1.385 . S
C859 C858 1.374 . S
C860 C857 1.499 . S
C860 C861 1.373 . S
C860 C862 1.389 . S
C861 H840 0.950 . S
C861 C860 1.373 . S
C861 C877 1.377 . S
C862 C860 1.389 . S
C862 C863 1.524 . S
C862 C876 1.377 . S
C863 C862 1.524 . S
C863 C864 1.397 . S
C863 C868 1.363 . S
C864 H841 0.950 . S
C864 C863 1.397 . S
C864 C865 1.334 . S
C865 H842 0.950 . S
C865 C864 1.334 . S
C865 C866 1.287 . S
C866 C865 1.287 . S
C866 C867 1.524 . S
C866 H885 0.913 . S
C867 H843 0.950 . S
C867 C866 1.524 . S
C867 C868 1.415 . S
C868 H844 0.950 . S
C868 C863 1.363 . S
C868 C867 1.415 . S
C869 H845 0.951 . S
C869 C870 1.366 . S
C869 C871 1.388 . S
C870 C869 1.366 . S
C870 C874 1.385 . S
C871 H846 0.951 . S
C871 C869 1.388 . S
C871 C872 1.366 . S
C872 C871 1.366 . S
C872 C873 1.414 . S
C872 C875 1.499 . S
C873 H847 0.950 . S
C873 C872 1.414 . S
C873 C874 1.374 . S
C874 H848 0.950 . S
C874 C870 1.385 . S
C874 C873 1.374 . S
C875 C872 1.499 . S
C875 C876 1.373 . S
C875 C877 1.389 . S
C876 H849 0.950 . S
C876 C862 1.377 . S
C876 C875 1.373 . S
C877 C861 1.377 . S
C877 C875 1.389 . S
C877 C878 1.524 . S
C878 C877 1.524 . S
C878 C879 1.397 . S
C878 C883 1.363 . S
C879 H850 0.950 . S
C879 C878 1.397 . S
C879 C880 1.334 . S
C880 H851 0.950 . S
C880 C879 1.334 . S
C880 C881 1.287 . S
C881 C880 1.287 . S
C881 C882 1.524 . S
C881 H884 0.999 . S
C882 H852 0.950 . S
C882 C881 1.524 . S
C882 C883 1.415 . S
C883 H853 0.950 . S
C883 C878 1.363 . S
C883 C882 1.415 . S
H884 C881 0.999 . S
H885 C866 0.913 . S
H886 C904 0.951 . S
H887 C906 0.951 . S
H888 C908 0.950 . S
H889 C909 0.950 . S
H890 C911 0.950 . S
H891 C914 0.950 . S
H892 C915 0.950 . S
H893 C917 0.950 . S
H894 C918 0.950 . S
H895 C919 0.951 . S
H896 C921 0.951 . S
H897 C923 0.950 . S
H898 C924 0.950 . S
H899 C926 0.950 . S
H900 C929 0.950 . S
H901 C930 0.950 . S
H902 C932 0.950 . S
H903 C933 0.950 . S
C904 H886 0.951 . S
C904 C905 1.366 . S
C904 C906 1.388 . S
C905 C904 1.366 . S
C905 C909 1.385 . S
C906 H887 0.951 . S
C906 C904 1.388 . S
C906 C907 1.366 . S
C907 C906 1.366 . S
C907 C908 1.414 . S
C907 C910 1.499 . S
C908 H888 0.950 . S
C908 C907 1.414 . S
C908 C909 1.374 . S
C909 H889 0.950 . S
C909 C905 1.385 . S
C909 C908 1.374 . S
C910 C907 1.499 . S
C910 C911 1.373 . S
C910 C912 1.389 . S
C911 H890 0.950 . S
C911 C910 1.373 . S
C911 C927 1.377 . S
C912 C910 1.389 . S
C912 C913 1.524 . S
C912 C926 1.377 . S
C913 C912 1.524 . S
C913 C914 1.397 . S
C913 C918 1.363 . S
C914 H891 0.950 . S
C914 C913 1.397 . S
C914 C915 1.334 . S
C915 H892 0.950 . S
C915 C914 1.334 . S
C915 C916 1.287 . S
C916 C915 1.287 . S
C916 C917 1.524 . S
C916 H935 0.913 . S
C917 H893 0.950 . S
C917 C916 1.524 . S
C917 C918 1.415 . S
C918 H894 0.950 . S
C918 C913 1.363 . S
C918 C917 1.415 . S
C919 H895 0.951 . S
C919 C920 1.366 . S
C919 C921 1.388 . S
C920 C919 1.366 . S
C920 C924 1.385 . S
C921 H896 0.951 . S
C921 C919 1.388 . S
C921 C922 1.366 . S
C922 C921 1.366 . S
C922 C923 1.414 . S
C922 C925 1.499 . S
C923 H897 0.950 . S
C923 C922 1.414 . S
C923 C924 1.374 . S
C924 H898 0.950 . S
C924 C920 1.385 . S
C924 C923 1.374 . S
C925 C922 1.499 . S
C925 C926 1.373 . S
C925 C927 1.389 . S
C926 H899 0.950 . S
C926 C912 1.377 . S
C926 C925 1.373 . S
C927 C911 1.377 . S
C927 C925 1.389 . S
C927 C928 1.524 . S
C928 C927 1.524 . S
C928 C929 1.397 . S
C928 C933 1.363 . S
C929 H900 0.950 . S
C929 C928 1.397 . S
C929 C930 1.334 . S
C930 H901 0.950 . S
C930 C929 1.334 . S
C930 C931 1.287 . S
C931 C930 1.287 . S
C931 C932 1.524 . S
C931 H934 0.999 . S
C932 H902 0.950 . S
C932 C931 1.524 . S
C932 C933 1.415 . S
C933 H903 0.950 . S
C933 C928 1.363 . S
C933 C932 1.415 . S
H934 C931 0.999 . S
H935 C916 0.913 . S
H936 C954 0.951 . S
H937 C956 0.951 . S
H938 C958 0.950 . S
H939 C959 0.950 . S
H940 C961 0.950 . S
H941 C964 0.950 . S
H942 C965 0.950 . S
H943 C967 0.950 . S
H944 C968 0.950 . S
H945 C969 0.951 . S
H946 C971 0.951 . S
H947 C973 0.950 . S
H948 C974 0.950 . S
H949 C976 0.950 . S
H950 C979 0.950 . S
H951 C980 0.950 . S
H952 C982 0.950 . S
H953 C983 0.950 . S
C954 H936 0.951 . S
C954 C955 1.366 . S
C954 C956 1.388 . S
C955 C954 1.366 . S
C955 C959 1.385 . S
C956 H937 0.951 . S
C956 C954 1.388 . S
C956 C957 1.366 . S
C957 C956 1.366 . S
C957 C958 1.414 . S
C957 C960 1.499 . S
C958 H938 0.950 . S
C958 C957 1.414 . S
C958 C959 1.374 . S
C959 H939 0.950 . S
C959 C955 1.385 . S
C959 C958 1.374 . S
C960 C957 1.499 . S
C960 C961 1.373 . S
C960 C962 1.389 . S
C961 H940 0.950 . S
C961 C960 1.373 . S
C961 C977 1.377 . S
C962 C960 1.389 . S
C962 C963 1.524 . S
C962 C976 1.377 . S
C963 C962 1.524 . S
C963 C964 1.397 . S
C963 C968 1.363 . S
C964 H941 0.950 . S
C964 C963 1.397 . S
C964 C965 1.334 . S
C965 H942 0.950 . S
C965 C964 1.334 . S
C965 C966 1.287 . S
C966 C965 1.287 . S
C966 C967 1.524 . S
C966 H985 0.913 . S
C967 H943 0.950 . S
C967 C966 1.524 . S
C967 C968 1.415 . S
C968 H944 0.950 . S
C968 C963 1.363 . S
C968 C967 1.415 . S
C969 H945 0.951 . S
C969 C970 1.366 . S
C969 C971 1.388 . S
C970 C969 1.366 . S
C970 C974 1.385 . S
C971 H946 0.951 . S
C971 C969 1.388 . S
C971 C972 1.366 . S
C972 C971 1.366 . S
C972 C973 1.414 . S
C972 C975 1.499 . S
C973 H947 0.950 . S
C973 C972 1.414 . S
C973 C974 1.374 . S
C974 H948 0.950 . S
C974 C970 1.385 . S
C974 C973 1.374 . S
C975 C972 1.499 . S
C975 C976 1.373 . S
C975 C977 1.389 . S
C976 H949 0.950 . S
C976 C962 1.377 . S
C976 C975 1.373 . S
C977 C961 1.377 . S
C977 C975 1.389 . S
C977 C978 1.524 . S
C978 C977 1.524 . S
C978 C979 1.397 . S
C978 C983 1.363 . S
C979 H950 0.950 . S
C979 C978 1.397 . S
C979 C980 1.334 . S
C980 H951 0.950 . S
C980 C979 1.334 . S
C980 C981 1.287 . S
C981 C980 1.287 . S
C981 C982 1.524 . S
C981 H984 0.999 . S
C982 H952 0.950 . S
C982 C981 1.524 . S
C982 C983 1.415 . S
C983 H953 0.950 . S
C983 C978 1.363 . S
C983 C982 1.415 . S
H984 C981 0.999 . S
H985 C966 0.913 . S
H986 C1004 0.951 . S
H987 C1006 0.951 . S
H988 C1008 0.950 . S
H989 C1009 0.950 . S
H990 C1011 0.950 . S
H991 C1014 0.950 . S
H992 C1015 0.950 . S
H993 C1017 0.950 . S
H994 C1018 0.950 . S
H995 C1019 0.951 . S
H996 C1021 0.951 . S
H997 C1023 0.950 . S
H998 C1024 0.950 . S
H999 C1026 0.950 . S
H1000 C1029 0.950 . S
H1001 C1030 0.950 . S
H1002 C1032 0.950 . S
H1003 C1033 0.950 . S
C1004 H986 0.951 . S
C1004 C1005 1.366 . S
C1004 C1006 1.388 . S
C1005 C1004 1.366 . S
C1005 C1009 1.385 . S
C1006 H987 0.951 . S
C1006 C1004 1.388 . S
C1006 C1007 1.366 . S
C1007 C1006 1.366 . S
C1007 C1008 1.414 . S
C1007 C1010 1.499 . S
C1008 H988 0.950 . S
C1008 C1007 1.414 . S
C1008 C1009 1.374 . S
C1009 H989 0.950 . S
C1009 C1005 1.385 . S
C1009 C1008 1.374 . S
C1010 C1007 1.499 . S
C1010 C1011 1.373 . S
C1010 C1012 1.389 . S
C1011 H990 0.950 . S
C1011 C1010 1.373 . S
C1011 C1027 1.377 . S
C1012 C1010 1.389 . S
C1012 C1013 1.524 . S
C1012 C1026 1.377 . S
C1013 C1012 1.524 . S
C1013 C1014 1.397 . S
C1013 C1018 1.363 . S
C1014 H991 0.950 . S
C1014 C1013 1.397 . S
C1014 C1015 1.334 . S
C1015 H992 0.950 . S
C1015 C1014 1.334 . S
C1015 C1016 1.287 . S
C1016 C1015 1.287 . S
C1016 C1017 1.524 . S
C1016 H1035 0.913 . S
C1017 H993 0.950 . S
C1017 C1016 1.524 . S
C1017 C1018 1.415 . S
C1018 H994 0.950 . S
C1018 C1013 1.363 . S
C1018 C1017 1.415 . S
C1019 H995 0.951 . S
C1019 C1020 1.366 . S
C1019 C1021 1.388 . S
C1020 C1019 1.366 . S
C1020 C1024 1.385 . S
C1021 H996 0.951 . S
C1021 C1019 1.388 . S
C1021 C1022 1.366 . S
C1022 C1021 1.366 . S
C1022 C1023 1.414 . S
C1022 C1025 1.499 . S
C1023 H997 0.950 . S
C1023 C1022 1.414 . S
C1023 C1024 1.374 . S
C1024 H998 0.950 . S
C1024 C1020 1.385 . S
C1024 C1023 1.374 . S
C1025 C1022 1.499 . S
C1025 C1026 1.373 . S
C1025 C1027 1.389 . S
C1026 H999 0.950 . S
C1026 C1012 1.377 . S
C1026 C1025 1.373 . S
C1027 C1011 1.377 . S
C1027 C1025 1.389 . S
C1027 C1028 1.524 . S
C1028 C1027 1.524 . S
C1028 C1029 1.397 . S
C1028 C1033 1.363 . S
C1029 H1000 0.950 . S
C1029 C1028 1.397 . S
C1029 C1030 1.334 . S
C1030 H1001 0.950 . S
C1030 C1029 1.334 . S
C1030 C1031 1.287 . S
C1031 C1030 1.287 . S
C1031 C1032 1.524 . S
C1031 H1034 0.999 . S
C1032 H1002 0.950 . S
C1032 C1031 1.524 . S
C1032 C1033 1.415 . S
C1033 H1003 0.950 . S
C1033 C1028 1.363 . S
C1033 C1032 1.415 . S
H1034 C1031 0.999 . S
H1035 C1016 0.913 . S
H1036 C1054 0.951 . S
H1037 C1056 0.951 . S
H1038 C1058 0.950 . S
H1039 C1059 0.950 . S
H1040 C1061 0.950 . S
H1041 C1064 0.950 . S
H1042 C1065 0.950 . S
H1043 C1067 0.950 . S
H1044 C1068 0.950 . S
H1045 C1069 0.951 . S
H1046 C1071 0.951 . S
H1047 C1073 0.950 . S
H1048 C1074 0.950 . S
H1049 C1076 0.950 . S
H1050 C1079 0.950 . S
H1051 C1080 0.950 . S
H1052 C1082 0.950 . S
H1053 C1083 0.950 . S
C1054 H1036 0.951 . S
C1054 C1055 1.366 . S
C1054 C1056 1.388 . S
C1055 C1054 1.366 . S
C1055 C1059 1.385 . S
C1056 H1037 0.951 . S
C1056 C1054 1.388 . S
C1056 C1057 1.366 . S
C1057 C1056 1.366 . S
C1057 C1058 1.414 . S
C1057 C1060 1.499 . S
C1058 H1038 0.950 . S
C1058 C1057 1.414 . S
C1058 C1059 1.374 . S
C1059 H1039 0.950 . S
C1059 C1055 1.385 . S
C1059 C1058 1.374 . S
C1060 C1057 1.499 . S
C1060 C1061 1.373 . S
C1060 C1062 1.389 . S
C1061 H1040 0.950 . S
C1061 C1060 1.373 . S
C1061 C1077 1.377 . S
C1062 C1060 1.389 . S
C1062 C1063 1.524 . S
C1062 C1076 1.377 . S
C1063 C1062 1.524 . S
C1063 C1064 1.397 . S
C1063 C1068 1.363 . S
C1064 H1041 0.950 . S
C1064 C1063 1.397 . S
C1064 C1065 1.334 . S
C1065 H1042 0.950 . S
C1065 C1064 1.334 . S
C1065 C1066 1.287 . S
C1066 C1065 1.287 . S
C1066 C1067 1.524 . S
C1066 H1085 0.913 . S
C1067 H1043 0.950 . S
C1067 C1066 1.524 . S
C1067 C1068 1.415 . S
C1068 H1044 0.950 . S
C1068 C1063 1.363 . S
C1068 C1067 1.415 . S
C1069 H1045 0.951 . S
C1069 C1070 1.366 . S
C1069 C1071 1.388 . S
C1070 C1069 1.366 . S
C1070 C1074 1.385 . S
C1071 H1046 0.951 . S
C1071 C1069 1.388 . S
C1071 C1072 1.366 . S
C1072 C1071 1.366 . S
C1072 C1073 1.414 . S
C1072 C1075 1.499 . S
C1073 H1047 0.950 . S
C1073 C1072 1.414 . S
C1073 C1074 1.374 . S
C1074 H1048 0.950 . S
C1074 C1070 1.385 . S
C1074 C1073 1.374 . S
C1075 C1072 1.499 . S
C1075 C1076 1.373 . S
C1075 C1077 1.389 . S
C1076 H1049 0.950 . S
C1076 C1062 1.377 . S
C1076 C1075 1.373 . S
C1077 C1061 1.377 . S
C1077 C1075 1.389 . S
C1077 C1078 1.524 . S
C1078 C1077 1.524 . S
C1078 C1079 1.397 . S
C1078 C1083 1.363 . S
C1079 H1050 0.950 . S
C1079 C1078 1.397 . S
C1079 C1080 1.334 . S
C1080 H1051 0.950 . S
C1080 C1079 1.334 . S
C1080 C1081 1.287 . S
C1081 C1080 1.287 . S
C1081 C1082 1.524 . S
C1081 H1084 0.999 . S
C1082 H1052 0.950 . S
C1082 C1081 1.524 . S
C1082 C1083 1.415 . S
C1083 H1053 0.950 . S
C1083 C1078 1.363 . S
C1083 C1082 1.415 . S
H1084 C1081 0.999 . S
H1085 C1066 0.913 . S
H1086 C1104 0.951 . S
H1087 C1106 0.951 . S
H1088 C1108 0.950 . S
H1089 C1109 0.950 . S
H1090 C1111 0.950 . S
H1091 C1114 0.950 . S
H1092 C1115 0.950 . S
H1093 C1117 0.950 . S
H1094 C1118 0.950 . S
H1095 C1119 0.951 . S
H1096 C1121 0.951 . S
H1097 C1123 0.950 . S
H1098 C1124 0.950 . S
H1099 C1126 0.950 . S
H1100 C1129 0.950 . S
H1101 C1130 0.950 . S
H1102 C1132 0.950 . S
H1103 C1133 0.950 . S
C1104 H1086 0.951 . S
C1104 C1105 1.366 . S
C1104 C1106 1.388 . S
C1105 C1104 1.366 . S
C1105 C1109 1.385 . S
C1106 H1087 0.951 . S
C1106 C1104 1.388 . S
C1106 C1107 1.366 . S
C1107 C1106 1.366 . S
C1107 C1108 1.414 . S
C1107 C1110 1.499 . S
C1108 H1088 0.950 . S
C1108 C1107 1.414 . S
C1108 C1109 1.374 . S
C1109 H1089 0.950 . S
C1109 C1105 1.385 . S
C1109 C1108 1.374 . S
C1110 C1107 1.499 . S
C1110 C1111 1.373 . S
C1110 C1112 1.389 . S
C1111 H1090 0.950 . S
C1111 C1110 1.373 . S
C1111 C1127 1.377 . S
C1112 C1110 1.389 . S
C1112 C1113 1.524 . S
C1112 C1126 1.377 . S
C1113 C1112 1.524 . S
C1113 C1114 1.397 . S
C1113 C1118 1.363 . S
C1114 H1091 0.950 . S
C1114 C1113 1.397 . S
C1114 C1115 1.334 . S
C1115 H1092 0.950 . S
C1115 C1114 1.334 . S
C1115 C1116 1.287 . S
C1116 C1115 1.287 . S
C1116 C1117 1.524 . S
C1116 H1135 0.913 . S
C1117 H1093 0.950 . S
C1117 C1116 1.524 . S
C1117 C1118 1.415 . S
C1118 H1094 0.950 . S
C1118 C1113 1.363 . S
C1118 C1117 1.415 . S
C1119 H1095 0.951 . S
C1119 C1120 1.366 . S
C1119 C1121 1.388 . S
C1120 C1119 1.366 . S
C1120 C1124 1.385 . S
C1121 H1096 0.951 . S
C1121 C1119 1.388 . S
C1121 C1122 1.366 . S
C1122 C1121 1.366 . S
C1122 C1123 1.414 . S
C1122 C1125 1.499 . S
C1123 H1097 0.950 . S
C1123 C1122 1.414 . S
C1123 C1124 1.374 . S
C1124 H1098 0.950 . S
C1124 C1120 1.385 . S
C1124 C1123 1.374 . S
C1125 C1122 1.499 . S
C1125 C1126 1.373 . S
C1125 C1127 1.389 . S
C1126 H1099 0.950 . S
C1126 C1112 1.377 . S
C1126 C1125 1.373 . S
C1127 C1111 1.377 . S
C1127 C1125 1.389 . S
C1127 C1128 1.524 . S
C1128 C1127 1.524 . S
C1128 C1129 1.397 . S
C1128 C1133 1.363 . S
C1129 H1100 0.950 . S
C1129 C1128 1.397 . S
C1129 C1130 1.334 . S
C1130 H1101 0.950 . S
C1130 C1129 1.334 . S
C1130 C1131 1.287 . S
C1131 C1130 1.287 . S
C1131 C1132 1.524 . S
C1131 H1134 0.999 . S
C1132 H1102 0.950 . S
C1132 C1131 1.524 . S
C1132 C1133 1.415 . S
C1133 H1103 0.950 . S
C1133 C1128 1.363 . S
C1133 C1132 1.415 . S
H1134 C1131 0.999 . S
H1135 C1116 0.913 . S
H1136 C1154 0.951 . S
H1137 C1156 0.951 . S
H1138 C1158 0.950 . S
H1139 C1159 0.950 . S
H1140 C1161 0.950 . S
H1141 C1164 0.950 . S
H1142 C1165 0.950 . S
H1143 C1167 0.950 . S
H1144 C1168 0.950 . S
H1145 C1169 0.951 . S
H1146 C1171 0.951 . S
H1147 C1173 0.950 . S
H1148 C1174 0.950 . S
H1149 C1176 0.950 . S
H1150 C1179 0.950 . S
H1151 C1180 0.950 . S
H1152 C1182 0.950 . S
H1153 C1183 0.950 . S
C1154 H1136 0.951 . S
C1154 C1155 1.366 . S
C1154 C1156 1.388 . S
C1155 C1154 1.366 . S
C1155 C1159 1.385 . S
C1156 H1137 0.951 . S
C1156 C1154 1.388 . S
C1156 C1157 1.366 . S
C1157 C1156 1.366 . S
C1157 C1158 1.414 . S
C1157 C1160 1.499 . S
C1158 H1138 0.950 . S
C1158 C1157 1.414 . S
C1158 C1159 1.374 . S
C1159 H1139 0.950 . S
C1159 C1155 1.385 . S
C1159 C1158 1.374 . S
C1160 C1157 1.499 . S
C1160 C1161 1.373 . S
C1160 C1162 1.389 . S
C1161 H1140 0.950 . S
C1161 C1160 1.373 . S
C1161 C1177 1.377 . S
C1162 C1160 1.389 . S
C1162 C1163 1.524 . S
C1162 C1176 1.377 . S
C1163 C1162 1.524 . S
C1163 C1164 1.397 . S
C1163 C1168 1.363 . S
C1164 H1141 0.950 . S
C1164 C1163 1.397 . S
C1164 C1165 1.334 . S
C1165 H1142 0.950 . S
C1165 C1164 1.334 . S
C1165 C1166 1.287 . S
C1166 C1165 1.287 . S
C1166 C1167 1.524 . S
C1166 H1185 0.913 . S
C1167 H1143 0.950 . S
C1167 C1166 1.524 . S
C1167 C1168 1.415 . S
C1168 H1144 0.950 . S
C1168 C1163 1.363 . S
C1168 C1167 1.415 . S
C1169 H1145 0.951 . S
C1169 C1170 1.366 . S
C1169 C1171 1.388 . S
C1170 C1169 1.366 . S
C1170 C1174 1.385 . S
C1171 H1146 0.951 . S
C1171 C1169 1.388 . S
C1171 C1172 1.366 . S
C1172 C1171 1.366 . S
C1172 C1173 1.414 . S
C1172 C1175 1.499 . S
C1173 H1147 0.950 . S
C1173 C1172 1.414 . S
C1173 C1174 1.374 . S
C1174 H1148 0.950 . S
C1174 C1170 1.385 . S
C1174 C1173 1.374 . S
C1175 C1172 1.499 . S
C1175 C1176 1.373 . S
C1175 C1177 1.389 . S
C1176 H1149 0.950 . S
C1176 C1162 1.377 . S
C1176 C1175 1.373 . S
C1177 C1161 1.377 . S
C1177 C1175 1.389 . S
C1177 C1178 1.524 . S
C1178 C1177 1.524 . S
C1178 C1179 1.397 . S
C1178 C1183 1.363 . S
C1179 H1150 0.950 . S
C1179 C1178 1.397 . S
C1179 C1180 1.334 . S
C1180 H1151 0.950 . S
C1180 C1179 1.334 . S
C1180 C1181 1.287 . S
C1181 C1180 1.287 . S
C1181 C1182 1.524 . S
C1181 H1184 0.999 . S
C1182 H1152 0.950 . S
C1182 C1181 1.524 . S
C1182 C1183 1.415 . S
C1183 H1153 0.950 . S
C1183 C1178 1.363 . S
C1183 C1182 1.415 . S
H1184 C1181 0.999 . S
H1185 C1166 0.913 . S
H1186 C1204 0.951 . S
H1187 C1206 0.951 . S
H1188 C1208 0.950 . S
H1189 C1209 0.950 . S
H1190 C1211 0.950 . S
H1191 C1214 0.950 . S
H1192 C1215 0.950 . S
H1193 C1217 0.950 . S
H1194 C1218 0.950 . S
H1195 C1219 0.951 . S
H1196 C1221 0.951 . S
H1197 C1223 0.932 1_545 S
H1198 C1224 0.950 . S
H1199 C1226 0.948 . S
H1200 C1229 0.950 . S
H1201 C1230 0.950 . S
H1202 C1232 0.950 . S
H1203 C1233 0.950 . S
C1204 H1186 0.951 . S
C1204 C1205 1.366 1_545 S
C1204 C1206 1.388 . S
C1205 C1204 1.366 1_565 S
C1205 C1209 1.385 . S
C1206 H1187 0.951 . S
C1206 C1204 1.388 . S
C1206 C1207 1.366 1_545 S
C1207 C1206 1.366 1_565 S
C1207 C1208 1.414 . S
C1207 C1210 1.499 . S
C1208 H1188 0.950 . S
C1208 C1207 1.414 . S
C1208 C1209 1.374 . S
C1209 H1189 0.950 . S
C1209 C1205 1.385 . S
C1209 C1208 1.374 . S
C1210 C1207 1.499 . S
C1210 C1211 1.373 . S
C1210 C1212 1.389 1_565 S
C1211 H1190 0.950 . S
C1211 C1210 1.373 . S
C1211 C1227 1.377 . S
C1212 C1210 1.389 1_545 S
C1212 C1213 1.524 . S
C1212 C1226 1.376 . S
C1213 C1212 1.524 . S
C1213 C1214 1.397 . S
C1213 C1218 1.363 . S
C1214 H1191 0.950 . S
C1214 C1213 1.397 . S
C1214 C1215 1.334 . S
C1215 H1192 0.950 . S
C1215 C1214 1.334 . S
C1215 C1216 1.287 . S
C1216 C1215 1.287 . S
C1216 C1217 1.524 . S
C1216 H1235 0.913 . S
C1217 H1193 0.950 . S
C1217 C1216 1.524 . S
C1217 C1218 1.415 . S
C1218 H1194 0.950 . S
C1218 C1213 1.363 . S
C1218 C1217 1.415 . S
C1219 H1195 0.951 . S
C1219 C1220 1.366 . S
C1219 C1221 1.388 . S
C1220 C1219 1.366 . S
C1220 C1224 1.385 . S
C1221 H1196 0.951 . S
C1221 C1219 1.388 . S
C1221 C1222 1.366 . S
C1222 C1221 1.366 . S
C1222 C1223 1.414 . S
C1222 C1225 1.499 . S
C1223 H1197 0.932 1_565 S
C1223 C1222 1.414 . S
C1223 C1224 1.374 . S
C1224 H1198 0.950 . S
C1224 C1220 1.385 . S
C1224 C1223 1.374 . S
C1225 C1222 1.499 . S
C1225 C1226 1.376 1_565 S
C1225 C1227 1.389 . S
C1226 H1199 0.948 . S
C1226 C1212 1.376 . S
C1226 C1225 1.376 1_545 S
C1227 C1211 1.377 . S
C1227 C1225 1.389 . S
C1227 C1228 1.524 . S
C1228 C1227 1.524 . S
C1228 C1229 1.397 . S
C1228 C1233 1.363 . S
C1229 H1200 0.950 . S
C1229 C1228 1.397 . S
C1229 C1230 1.334 . S
C1230 H1201 0.950 . S
C1230 C1229 1.334 . S
C1230 C1231 1.287 . S
C1231 C1230 1.287 . S
C1231 C1232 1.524 . S
C1231 H1234 0.999 . S
C1232 H1202 0.950 . S
C1232 C1231 1.524 . S
C1232 C1233 1.415 . S
C1233 H1203 0.950 . S
C1233 C1228 1.363 . S
C1233 C1232 1.415 . S
H1234 C1231 0.999 . S
H1235 C1216 0.913 . S
H1236 C1254 0.951 . S
H1237 C1256 0.951 . S
H1238 C1258 0.950 . S
H1239 C1259 0.950 . S
H1240 C1261 0.950 . S
H1241 C1264 0.950 . S
H1242 C1265 0.950 . S
H1243 C1267 0.950 . S
H1244 C1268 0.950 . S
H1245 C1269 0.951 . S
H1246 C1271 0.951 . S
H1247 C1273 0.950 . S
H1248 C1274 0.950 . S
H1249 C1276 0.950 . S
H1250 C1279 0.950 . S
H1251 C1280 0.950 . S
H1252 C1282 0.950 . S
H1253 C1283 0.950 . S
C1254 H1236 0.951 . S
C1254 C1255 1.366 . S
C1254 C1256 1.388 . S
C1255 C1254 1.366 . S
C1255 C1259 1.385 . S
C1256 H1237 0.951 . S
C1256 C1254 1.388 . S
C1256 C1257 1.366 . S
C1257 C1256 1.366 . S
C1257 C1258 1.414 . S
C1257 C1260 1.499 . S
C1258 H1238 0.950 . S
C1258 C1257 1.414 . S
C1258 C1259 1.374 . S
C1259 H1239 0.950 . S
C1259 C1255 1.385 . S
C1259 C1258 1.374 . S
C1260 C1257 1.499 . S
C1260 C1261 1.373 . S
C1260 C1262 1.389 . S
C1261 H1240 0.950 . S
C1261 C1260 1.373 . S
C1261 C1277 1.377 . S
C1262 C1260 1.389 . S
C1262 C1263 1.524 . S
C1262 C1276 1.377 . S
C1263 C1262 1.524 . S
C1263 C1264 1.397 . S
C1263 C1268 1.363 . S
C1264 H1241 0.950 . S
C1264 C1263 1.397 . S
C1264 C1265 1.334 . S
C1265 H1242 0.950 . S
C1265 C1264 1.334 . S
C1265 C1266 1.287 . S
C1266 C1265 1.287 . S
C1266 C1267 1.524 . S
C1266 H1285 0.913 . S
C1267 H1243 0.950 . S
C1267 C1266 1.524 . S
C1267 C1268 1.415 . S
C1268 H1244 0.950 . S
C1268 C1263 1.363 . S
C1268 C1267 1.415 . S
C1269 H1245 0.951 . S
C1269 C1270 1.366 . S
C1269 C1271 1.388 . S
C1270 C1269 1.366 . S
C1270 C1274 1.385 . S
C1271 H1246 0.951 . S
C1271 C1269 1.388 . S
C1271 C1272 1.366 . S
C1272 C1271 1.366 . S
C1272 C1273 1.414 . S
C1272 C1275 1.499 . S
C1273 H1247 0.950 . S
C1273 C1272 1.414 . S
C1273 C1274 1.374 . S
C1274 H1248 0.950 . S
C1274 C1270 1.385 . S
C1274 C1273 1.374 . S
C1275 C1272 1.499 . S
C1275 C1276 1.373 . S
C1275 C1277 1.389 . S
C1276 H1249 0.950 . S
C1276 C1262 1.377 . S
C1276 C1275 1.373 . S
C1277 C1261 1.377 . S
C1277 C1275 1.389 . S
C1277 C1278 1.524 . S
C1278 C1277 1.524 . S
C1278 C1279 1.397 . S
C1278 C1283 1.363 . S
C1279 H1250 0.950 . S
C1279 C1278 1.397 . S
C1279 C1280 1.334 . S
C1280 H1251 0.950 . S
C1280 C1279 1.334 . S
C1280 C1281 1.287 . S
C1281 C1280 1.287 . S
C1281 C1282 1.524 . S
C1281 H1284 0.999 . S
C1282 H1252 0.950 . S
C1282 C1281 1.524 . S
C1282 C1283 1.415 . S
C1283 H1253 0.950 . S
C1283 C1278 1.363 . S
C1283 C1282 1.415 . S
H1284 C1281 0.999 . S
H1285 C1266 0.913 . S
H1286 C1304 0.951 . S
H1287 C1306 0.951 . S
H1288 C1308 0.950 . S
H1289 C1309 0.950 . S
H1290 C1311 0.950 . S
H1291 C1314 0.950 1_545 S
H1292 C1315 0.950 . S
H1293 C1317 0.950 . S
H1294 C1318 0.950 . S
H1295 C1319 0.951 . S
H1296 C1321 0.951 . S
H1297 C1323 0.950 1_565 S
H1298 C1324 0.950 . S
H1299 C1326 0.950 1_565 S
H1300 C1329 0.950 . S
H1301 C1330 0.950 . S
H1302 C1332 0.950 . S
H1303 C1333 0.950 . S
C1304 H1286 0.951 . S
C1304 C1305 1.366 1_565 S
C1304 C1306 1.388 . S
C1305 C1304 1.366 1_545 S
C1305 C1309 1.385 . S
C1306 H1287 0.951 . S
C1306 C1304 1.388 . S
C1306 C1307 1.366 1_565 S
C1307 C1306 1.366 1_545 S
C1307 C1308 1.414 . S
C1307 C1310 1.499 . S
C1308 H1288 0.950 . S
C1308 C1307 1.414 . S
C1308 C1309 1.374 . S
C1309 H1289 0.950 . S
C1309 C1305 1.385 . S
C1309 C1308 1.374 . S
C1310 C1307 1.499 . S
C1310 C1311 1.373 . S
C1310 C1312 1.389 . S
C1311 H1290 0.950 . S
C1311 C1310 1.373 . S
C1311 C1327 1.377 . S
C1312 C1310 1.389 . S
C1312 C1313 1.524 1_545 S
C1312 C1326 1.377 . S
C1313 C1312 1.524 1_565 S
C1313 C1314 1.397 . S
C1313 C1318 1.363 . S
C1314 H1291 0.950 1_565 S
C1314 C1313 1.397 . S
C1314 C1315 1.334 . S
C1315 H1292 0.950 . S
C1315 C1314 1.334 . S
C1315 C1316 1.287 . S
C1316 C1315 1.287 . S
C1316 C1317 1.524 . S
C1316 H1335 0.913 . S
C1317 H1293 0.950 . S
C1317 C1316 1.524 . S
C1317 C1318 1.415 . S
C1318 H1294 0.950 . S
C1318 C1313 1.363 . S
C1318 C1317 1.415 . S
C1319 H1295 0.951 . S
C1319 C1320 1.366 . S
C1319 C1321 1.388 . S
C1320 C1319 1.366 . S
C1320 C1324 1.385 . S
C1321 H1296 0.951 . S
C1321 C1319 1.388 . S
C1321 C1322 1.366 . S
C1322 C1321 1.366 . S
C1322 C1323 1.414 . S
C1322 C1325 1.499 . S
C1323 H1297 0.950 1_545 S
C1323 C1322 1.414 . S
C1323 C1324 1.374 . S
C1324 H1298 0.950 . S
C1324 C1320 1.385 . S
C1324 C1323 1.374 . S
C1325 C1322 1.499 . S
C1325 C1326 1.373 . S
C1325 C1327 1.389 . S
C1326 H1299 0.950 1_545 S
C1326 C1312 1.377 . S
C1326 C1325 1.373 . S
C1327 C1311 1.377 . S
C1327 C1325 1.389 . S
C1327 C1328 1.524 . S
C1328 C1327 1.524 . S
C1328 C1329 1.397 . S
C1328 C1333 1.363 . S
C1329 H1300 0.950 . S
C1329 C1328 1.397 . S
C1329 C1330 1.334 . S
C1330 H1301 0.950 . S
C1330 C1329 1.334 . S
C1330 C1331 1.287 . S
C1331 C1330 1.287 . S
C1331 C1332 1.524 . S
C1331 H1334 0.999 . S
C1332 H1302 0.950 . S
C1332 C1331 1.524 . S
C1332 C1333 1.415 . S
C1333 H1303 0.950 . S
C1333 C1328 1.363 . S
C1333 C1332 1.415 . S
H1334 C1331 0.999 . S
H1335 C1316 0.913 . S
H1336 C1354 0.951 . S
H1337 C1356 0.951 . S
H1338 C1358 0.950 . S
H1339 C1359 0.950 . S
H1340 C1361 0.950 . S
H1341 C1364 0.950 . S
H1342 C1365 0.950 . S
H1343 C1367 0.950 . S
H1344 C1368 0.950 . S
H1345 C1369 0.951 . S
H1346 C1371 0.951 . S
H1347 C1373 0.950 . S
H1348 C1374 0.950 . S
H1349 C1376 0.950 . S
H1350 C1379 0.950 . S
H1351 C1380 0.950 . S
H1352 C1382 0.950 . S
H1353 C1383 0.950 . S
C1354 H1336 0.951 . S
C1354 C1355 1.366 . S
C1354 C1356 1.388 . S
C1355 C1354 1.366 . S
C1355 C1359 1.385 . S
C1356 H1337 0.951 . S
C1356 C1354 1.388 . S
C1356 C1357 1.366 . S
C1357 C1356 1.366 . S
C1357 C1358 1.414 . S
C1357 C1360 1.499 . S
C1358 H1338 0.950 . S
C1358 C1357 1.414 . S
C1358 C1359 1.374 . S
C1359 H1339 0.950 . S
C1359 C1355 1.385 . S
C1359 C1358 1.374 . S
C1360 C1357 1.499 . S
C1360 C1361 1.373 . S
C1360 C1362 1.389 . S
C1361 H1340 0.950 . S
C1361 C1360 1.373 . S
C1361 C1377 1.377 . S
C1362 C1360 1.389 . S
C1362 C1363 1.524 . S
C1362 C1376 1.377 . S
C1363 C1362 1.524 . S
C1363 C1364 1.397 . S
C1363 C1368 1.363 . S
C1364 H1341 0.950 . S
C1364 C1363 1.397 . S
C1364 C1365 1.334 . S
C1365 H1342 0.950 . S
C1365 C1364 1.334 . S
C1365 C1366 1.287 . S
C1366 C1365 1.287 . S
C1366 C1367 1.524 . S
C1366 H1385 0.913 . S
C1367 H1343 0.950 . S
C1367 C1366 1.524 . S
C1367 C1368 1.415 . S
C1368 H1344 0.950 . S
C1368 C1363 1.363 . S
C1368 C1367 1.415 . S
C1369 H1345 0.951 . S
C1369 C1370 1.366 . S
C1369 C1371 1.388 . S
C1370 C1369 1.366 . S
C1370 C1374 1.385 . S
C1371 H1346 0.951 . S
C1371 C1369 1.388 . S
C1371 C1372 1.366 . S
C1372 C1371 1.366 . S
C1372 C1373 1.414 . S
C1372 C1375 1.499 . S
C1373 H1347 0.950 . S
C1373 C1372 1.414 . S
C1373 C1374 1.374 . S
C1374 H1348 0.950 . S
C1374 C1370 1.385 . S
C1374 C1373 1.374 . S
C1375 C1372 1.499 . S
C1375 C1376 1.373 . S
C1375 C1377 1.389 . S
C1376 H1349 0.950 . S
C1376 C1362 1.377 . S
C1376 C1375 1.373 . S
C1377 C1361 1.377 . S
C1377 C1375 1.389 . S
C1377 C1378 1.524 . S
C1378 C1377 1.524 . S
C1378 C1379 1.397 . S
C1378 C1383 1.363 . S
C1379 H1350 0.950 . S
C1379 C1378 1.397 . S
C1379 C1380 1.334 . S
C1380 H1351 0.950 . S
C1380 C1379 1.334 . S
C1380 C1381 1.287 . S
C1381 C1380 1.287 . S
C1381 C1382 1.524 . S
C1381 H1384 0.999 . S
C1382 H1352 0.950 . S
C1382 C1381 1.524 . S
C1382 C1383 1.415 . S
C1383 H1353 0.950 . S
C1383 C1378 1.363 . S
C1383 C1382 1.415 . S
H1384 C1381 0.999 . S
H1385 C1366 0.913 . S
H1386 C1404 0.951 . S
H1387 C1406 0.951 . S
H1388 C1408 0.942 1_554 S
H1389 C1409 0.950 . S
H1390 C1411 0.950 . S
H1391 C1414 0.950 . S
H1392 C1415 0.950 . S
H1393 C1417 0.950 . S
H1394 C1418 0.950 . S
H1395 C1419 0.951 . S
H1396 C1421 0.951 . S
H1397 C1423 0.950 . S
H1398 C1424 0.950 . S
H1399 C1426 0.950 . S
H1400 C1429 0.950 . S
H1401 C1430 0.950 . S
H1402 C1432 0.950 . S
H1403 C1433 0.950 . S
C1404 H1386 0.951 . S
C1404 C1405 1.366 . S
C1404 C1406 1.388 . S
C1405 C1404 1.366 . S
C1405 C1409 1.385 1_556 S
C1406 H1387 0.951 . S
C1406 C1404 1.388 . S
C1406 C1407 1.366 . S
C1407 C1406 1.366 . S
C1407 C1408 1.424 . S
C1407 C1410 1.499 . S
C1408 H1388 0.942 1_556 S
C1408 C1407 1.424 . S
C1408 C1409 1.372 1_556 S
C1409 H1389 0.950 . S
C1409 C1405 1.385 1_554 S
C1409 C1408 1.372 1_554 S
C1410 C1407 1.499 . S
C1410 C1411 1.373 1_556 S
C1410 C1412 1.389 . S
C1411 H1390 0.950 . S
C1411 C1410 1.373 1_554 S
C1411 C1427 1.378 . S
C1412 C1410 1.389 . S
C1412 C1413 1.524 . S
C1412 C1426 1.377 . S
C1413 C1412 1.524 . S
C1413 C1414 1.397 . S
C1413 C1418 1.363 . S
C1414 H1391 0.950 . S
C1414 C1413 1.397 . S
C1414 C1415 1.334 . S
C1415 H1392 0.950 . S
C1415 C1414 1.334 . S
C1415 C1416 1.287 . S
C1416 C1415 1.287 . S
C1416 C1417 1.524 . S
C1416 H1435 0.913 . S
C1417 H1393 0.950 . S
C1417 C1416 1.524 . S
C1417 C1418 1.415 . S
C1418 H1394 0.950 . S
C1418 C1413 1.363 . S
C1418 C1417 1.415 . S
C1419 H1395 0.951 . S
C1419 C1420 1.366 . S
C1419 C1421 1.388 . S
C1420 C1419 1.366 . S
C1420 C1424 1.385 . S
C1421 H1396 0.951 . S
C1421 C1419 1.388 . S
C1421 C1422 1.366 . S
C1422 C1421 1.366 . S
C1422 C1423 1.414 . S
C1422 C1425 1.499 . S
C1423 H1397 0.950 . S
C1423 C1422 1.414 . S
C1423 C1424 1.374 . S
C1424 H1398 0.950 . S
C1424 C1420 1.385 . S
C1424 C1423 1.374 . S
C1425 C1422 1.499 . S
C1425 C1426 1.373 . S
C1425 C1427 1.368 1_556 S
C1426 H1399 0.950 . S
C1426 C1412 1.377 . S
C1426 C1425 1.373 . S
C1427 C1411 1.378 . S
C1427 C1425 1.368 1_554 S
C1427 C1428 1.546 . S
C1428 C1427 1.546 . S
C1428 C1429 1.397 . S
C1428 C1433 1.363 . S
C1429 H1400 0.950 . S
C1429 C1428 1.397 . S
C1429 C1430 1.334 . S
C1430 H1401 0.950 . S
C1430 C1429 1.334 . S
C1430 C1431 1.287 . S
C1431 C1430 1.287 . S
C1431 C1432 1.524 . S
C1431 H1434 0.999 . S
C1432 H1402 0.950 . S
C1432 C1431 1.524 . S
C1432 C1433 1.415 . S
C1433 H1403 0.950 . S
C1433 C1428 1.363 . S
C1433 C1432 1.415 . S
H1434 C1431 0.999 . S
H1435 C1416 0.913 . S
H1436 C1454 0.951 . S
H1437 C1456 0.951 . S
H1438 C1458 0.950 1_554 S
H1439 C1459 0.962 . S
H1440 C1461 0.950 . S
H1441 C1464 0.950 . S
H1442 C1465 0.950 . S
H1443 C1467 0.950 . S
H1444 C1468 0.950 . S
H1445 C1469 0.951 . S
H1446 C1471 0.951 . S
H1447 C1473 0.950 . S
H1448 C1474 0.950 . S
H1449 C1476 0.950 . S
H1450 C1479 0.950 . S
H1451 C1480 0.950 . S
H1452 C1482 0.950 . S
H1453 C1483 0.950 . S
C1454 H1436 0.951 . S
C1454 C1455 1.366 . S
C1454 C1456 1.388 . S
C1455 C1454 1.366 . S
C1455 C1459 1.377 1_556 S
C1456 H1437 0.951 . S
C1456 C1454 1.388 . S
C1456 C1457 1.366 . S
C1457 C1456 1.366 . S
C1457 C1458 1.414 . S
C1457 C1460 1.499 . S
C1458 H1438 0.950 1_556 S
C1458 C1457 1.414 . S
C1458 C1459 1.370 1_556 S
C1459 H1439 0.962 . S
C1459 C1455 1.377 1_554 S
C1459 C1458 1.370 1_554 S
C1460 C1457 1.499 . S
C1460 C1461 1.373 1_556 S
C1460 C1462 1.389 . S
C1461 H1440 0.950 . S
C1461 C1460 1.373 1_554 S
C1461 C1477 1.377 . S
C1462 C1460 1.389 . S
C1462 C1463 1.524 . S
C1462 C1476 1.377 . S
C1463 C1462 1.524 . S
C1463 C1464 1.397 . S
C1463 C1468 1.363 . S
C1464 H1441 0.950 . S
C1464 C1463 1.397 . S
C1464 C1465 1.334 . S
C1465 H1442 0.950 . S
C1465 C1464 1.334 . S
C1465 C1466 1.287 . S
C1466 C1465 1.287 . S
C1466 C1467 1.524 . S
C1466 H1485 0.913 . S
C1467 H1443 0.950 . S
C1467 C1466 1.524 . S
C1467 C1468 1.415 . S
C1468 H1444 0.950 . S
C1468 C1463 1.363 . S
C1468 C1467 1.415 . S
C1469 H1445 0.951 . S
C1469 C1470 1.366 . S
C1469 C1471 1.388 . S
C1470 C1469 1.366 . S
C1470 C1474 1.385 . S
C1471 H1446 0.951 . S
C1471 C1469 1.388 . S
C1471 C1472 1.366 . S
C1472 C1471 1.366 . S
C1472 C1473 1.414 . S
C1472 C1475 1.499 . S
C1473 H1447 0.950 . S
C1473 C1472 1.414 . S
C1473 C1474 1.374 . S
C1474 H1448 0.950 . S
C1474 C1470 1.385 . S
C1474 C1473 1.374 . S
C1475 C1472 1.499 . S
C1475 C1476 1.373 . S
C1475 C1477 1.389 1_556 S
C1476 H1449 0.950 . S
C1476 C1462 1.377 . S
C1476 C1475 1.373 . S
C1477 C1461 1.377 . S
C1477 C1475 1.389 1_554 S
C1477 C1478 1.524 . S
C1478 C1477 1.524 . S
C1478 C1479 1.397 . S
C1478 C1483 1.363 . S
C1479 H1450 0.950 . S
C1479 C1478 1.397 . S
C1479 C1480 1.334 . S
C1480 H1451 0.950 . S
C1480 C1479 1.334 . S
C1480 C1481 1.287 . S
C1481 C1480 1.287 . S
C1481 C1482 1.524 . S
C1481 H1484 0.999 . S
C1482 H1452 0.950 . S
C1482 C1481 1.524 . S
C1482 C1483 1.415 . S
C1483 H1453 0.950 . S
C1483 C1478 1.363 . S
C1483 C1482 1.415 . S
H1484 C1481 0.999 . S
H1485 C1466 0.913 . S
H1486 C1504 0.951 . S
H1487 C1506 0.951 . S
H1488 C1508 0.950 . S
H1489 C1509 0.950 . S
H1490 C1511 0.950 . S
H1491 C1514 0.950 . S
H1492 C1515 0.950 . S
H1493 C1517 0.950 . S
H1494 C1518 0.950 . S
H1495 C1519 0.951 . S
H1496 C1521 0.951 . S
H1497 C1523 0.950 . S
H1498 C1524 0.950 . S
H1499 C1526 0.950 . S
H1500 C1529 0.950 . S
H1501 C1530 0.950 . S
H1502 C1532 0.950 . S
H1503 C1533 0.950 1_554 S
C1504 H1486 0.951 . S
C1504 C1505 1.366 . S
C1504 C1506 1.388 . S
C1505 C1504 1.366 . S
C1505 C1509 1.385 . S
C1506 H1487 0.951 . S
C1506 C1504 1.388 . S
C1506 C1507 1.366 . S
C1507 C1506 1.366 . S
C1507 C1508 1.414 . S
C1507 C1510 1.499 . S
C1508 H1488 0.950 . S
C1508 C1507 1.414 . S
C1508 C1509 1.374 . S
C1509 H1489 0.950 . S
C1509 C1505 1.385 . S
C1509 C1508 1.374 . S
C1510 C1507 1.499 . S
C1510 C1511 1.373 . S
C1510 C1512 1.389 . S
C1511 H1490 0.950 . S
C1511 C1510 1.373 . S
C1511 C1527 1.377 . S
C1512 C1510 1.389 . S
C1512 C1513 1.524 . S
C1512 C1526 1.377 . S
C1513 C1512 1.524 . S
C1513 C1514 1.397 . S
C1513 C1518 1.363 . S
C1514 H1491 0.950 . S
C1514 C1513 1.397 . S
C1514 C1515 1.334 . S
C1515 H1492 0.950 . S
C1515 C1514 1.334 . S
C1515 C1516 1.287 . S
C1516 C1515 1.287 . S
C1516 C1517 1.524 . S
C1516 H1535 0.913 . S
C1517 H1493 0.950 . S
C1517 C1516 1.524 . S
C1517 C1518 1.415 . S
C1518 H1494 0.950 . S
C1518 C1513 1.363 . S
C1518 C1517 1.415 . S
C1519 H1495 0.951 . S
C1519 C1520 1.366 . S
C1519 C1521 1.388 . S
C1520 C1519 1.366 . S
C1520 C1524 1.385 . S
C1521 H1496 0.951 . S
C1521 C1519 1.388 . S
C1521 C1522 1.366 . S
C1522 C1521 1.366 . S
C1522 C1523 1.414 . S
C1522 C1525 1.499 . S
C1523 H1497 0.950 . S
C1523 C1522 1.414 . S
C1523 C1524 1.374 . S
C1524 H1498 0.950 . S
C1524 C1520 1.385 . S
C1524 C1523 1.374 . S
C1525 C1522 1.499 . S
C1525 C1526 1.373 . S
C1525 C1527 1.389 . S
C1526 H1499 0.950 . S
C1526 C1512 1.377 . S
C1526 C1525 1.373 . S
C1527 C1511 1.377 . S
C1527 C1525 1.389 . S
C1527 C1528 1.524 1_554 S
C1528 C1527 1.524 1_556 S
C1528 C1529 1.397 . S
C1528 C1533 1.363 . S
C1529 H1500 0.950 . S
C1529 C1528 1.397 . S
C1529 C1530 1.334 . S
C1530 H1501 0.950 . S
C1530 C1529 1.334 . S
C1530 C1531 1.287 . S
C1531 C1530 1.287 . S
C1531 C1532 1.524 . S
C1531 H1534 0.999 . S
C1532 H1502 0.950 . S
C1532 C1531 1.524 . S
C1532 C1533 1.415 . S
C1533 H1503 0.950 1_556 S
C1533 C1528 1.363 . S
C1533 C1532 1.415 . S
H1534 C1531 0.999 . S
H1535 C1516 0.913 . S
H1536 C1554 0.951 1_655 S
H1537 C1556 0.951 1_655 S
H1538 C1558 0.950 . S
H1539 C1559 0.950 . S
H1540 C1561 0.950 . S
H1541 C1564 0.950 . S
H1542 C1565 0.950 . S
H1543 C1567 0.950 . S
H1544 C1568 0.950 . S
H1545 C1569 0.951 . S
H1546 C1571 0.951 . S
H1547 C1573 0.950 . S
H1548 C1574 0.950 . S
H1549 C1576 0.950 . S
H1550 C1579 0.950 . S
H1551 C1580 0.950 . S
H1552 C1582 0.939 1_455 S
H1553 C1583 0.950 . S
C1554 H1536 0.951 1_455 S
C1554 C1555 1.366 . S
C1554 C1556 1.388 . S
C1555 C1554 1.366 . S
C1555 C1559 1.385 . S
C1556 H1537 0.951 1_455 S
C1556 C1554 1.388 . S
C1556 C1557 1.366 . S
C1557 C1556 1.366 . S
C1557 C1558 1.414 . S
C1557 C1560 1.499 . S
C1558 H1538 0.950 . S
C1558 C1557 1.414 . S
C1558 C1559 1.374 . S
C1559 H1539 0.950 . S
C1559 C1555 1.385 . S
C1559 C1558 1.374 . S
C1560 C1557 1.499 . S
C1560 C1561 1.373 . S
C1560 C1562 1.389 . S
C1561 H1540 0.950 . S
C1561 C1560 1.373 . S
C1561 C1577 1.377 . S
C1562 C1560 1.389 . S
C1562 C1563 1.524 . S
C1562 C1576 1.377 . S
C1563 C1562 1.524 . S
C1563 C1564 1.397 . S
C1563 C1568 1.363 . S
C1564 H1541 0.950 . S
C1564 C1563 1.397 . S
C1564 C1565 1.334 . S
C1565 H1542 0.950 . S
C1565 C1564 1.334 . S
C1565 C1566 1.287 . S
C1566 C1565 1.287 . S
C1566 C1567 1.524 . S
C1566 H1585 0.913 . S
C1567 H1543 0.950 . S
C1567 C1566 1.524 . S
C1567 C1568 1.415 . S
C1568 H1544 0.950 . S
C1568 C1563 1.363 . S
C1568 C1567 1.415 . S
C1569 H1545 0.951 . S
C1569 C1570 1.366 . S
C1569 C1571 1.388 . S
C1570 C1569 1.366 . S
C1570 C1574 1.385 . S
C1571 H1546 0.951 . S
C1571 C1569 1.388 . S
C1571 C1572 1.366 . S
C1572 C1571 1.366 . S
C1572 C1573 1.414 . S
C1572 C1575 1.499 . S
C1573 H1547 0.950 . S
C1573 C1572 1.414 . S
C1573 C1574 1.374 . S
C1574 H1548 0.950 . S
C1574 C1570 1.385 . S
C1574 C1573 1.374 . S
C1575 C1572 1.499 . S
C1575 C1576 1.373 . S
C1575 C1577 1.389 . S
C1576 H1549 0.950 . S
C1576 C1562 1.377 . S
C1576 C1575 1.373 . S
C1577 C1561 1.377 . S
C1577 C1575 1.389 . S
C1577 C1578 1.524 . S
C1578 C1577 1.524 . S
C1578 C1579 1.397 1_455 S
C1578 C1583 1.363 . S
C1579 H1550 0.950 . S
C1579 C1578 1.397 1_655 S
C1579 C1580 1.334 . S
C1580 H1551 0.950 . S
C1580 C1579 1.334 . S
C1580 C1581 1.287 . S
C1581 C1580 1.287 . S
C1581 C1582 1.552 . S
C1581 H1584 0.999 . S
C1582 H1552 0.939 1_655 S
C1582 C1581 1.552 . S
C1582 C1583 1.400 1_655 S
C1583 H1553 0.950 . S
C1583 C1578 1.363 . S
C1583 C1582 1.400 1_455 S
H1584 C1581 0.999 . S
H1585 C1566 0.913 . S
H1586 C1604 0.953 . S
H1587 C1606 0.951 1_455 S
H1588 C1608 0.950 . S
H1589 C1609 0.950 . S
H1590 C1611 0.950 . S
H1591 C1614 0.950 . S
H1592 C1615 0.950 . S
H1593 C1617 0.950 . S
H1594 C1618 0.950 . S
H1595 C1619 0.951 . S
H1596 C1621 0.951 . S
H1597 C1623 0.950 . S
H1598 C1624 0.950 . S
H1599 C1626 0.950 . S
H1600 C1629 0.950 . S
H1601 C1630 0.950 . S
H1602 C1632 0.950 . S
H1603 C1633 0.950 . S
C1604 H1586 0.953 . S
C1604 C1605 1.364 1_455 S
C1604 C1606 1.387 1_455 S
C1605 C1604 1.364 1_655 S
C1605 C1609 1.385 . S
C1606 H1587 0.951 1_655 S
C1606 C1604 1.387 1_655 S
C1606 C1607 1.366 . S
C1607 C1606 1.366 . S
C1607 C1608 1.414 . S
C1607 C1610 1.499 . S
C1608 H1588 0.950 . S
C1608 C1607 1.414 . S
C1608 C1609 1.374 . S
C1609 H1589 0.950 . S
C1609 C1605 1.385 . S
C1609 C1608 1.374 . S
C1610 C1607 1.499 . S
C1610 C1611 1.373 . S
C1610 C1612 1.389 . S
C1611 H1590 0.950 . S
C1611 C1610 1.373 . S
C1611 C1627 1.377 . S
C1612 C1610 1.389 . S
C1612 C1613 1.524 . S
C1612 C1626 1.377 . S
C1613 C1612 1.524 . S
C1613 C1614 1.397 . S
C1613 C1618 1.363 . S
C1614 H1591 0.950 . S
C1614 C1613 1.397 . S
C1614 C1615 1.334 . S
C1615 H1592 0.950 . S
C1615 C1614 1.334 . S
C1615 C1616 1.287 . S
C1616 C1615 1.287 . S
C1616 C1617 1.524 . S
C1616 H1635 0.913 . S
C1617 H1593 0.950 . S
C1617 C1616 1.524 . S
C1617 C1618 1.415 . S
C1618 H1594 0.950 . S
C1618 C1613 1.363 . S
C1618 C1617 1.415 . S
C1619 H1595 0.951 . S
C1619 C1620 1.366 . S
C1619 C1621 1.388 . S
C1620 C1619 1.366 . S
C1620 C1624 1.385 . S
C1621 H1596 0.951 . S
C1621 C1619 1.388 . S
C1621 C1622 1.366 . S
C1622 C1621 1.366 . S
C1622 C1623 1.414 . S
C1622 C1625 1.499 . S
C1623 H1597 0.950 . S
C1623 C1622 1.414 . S
C1623 C1624 1.374 . S
C1624 H1598 0.950 . S
C1624 C1620 1.385 . S
C1624 C1623 1.374 . S
C1625 C1622 1.499 . S
C1625 C1626 1.373 . S
C1625 C1627 1.389 . S
C1626 H1599 0.950 . S
C1626 C1612 1.377 . S
C1626 C1625 1.373 . S
C1627 C1611 1.377 . S
C1627 C1625 1.389 . S
C1627 C1628 1.524 1_655 S
C1628 C1627 1.524 1_455 S
C1628 C1629 1.397 . S
C1628 C1633 1.363 1_455 S
C1629 H1600 0.950 . S
C1629 C1628 1.397 . S
C1629 C1630 1.334 . S
C1630 H1601 0.950 . S
C1630 C1629 1.334 . S
C1630 C1631 1.287 . S
C1631 C1630 1.287 . S
C1631 C1632 1.524 . S
C1631 H1634 0.999 . S
C1632 H1602 0.950 . S
C1632 C1631 1.524 . S
C1632 C1633 1.415 1_455 S
C1633 H1603 0.950 . S
C1633 C1628 1.363 1_655 S
C1633 C1632 1.415 1_655 S
H1634 C1631 0.999 . S
H1635 C1616 0.913 . S
H1636 C1654 0.951 . S
H1637 C1656 0.951 . S
H1638 C1658 0.950 . S
H1639 C1659 0.950 . S
H1640 C1661 0.950 . S
H1641 C1664 0.950 . S
H1642 C1665 0.950 1_455 S
H1643 C1667 0.950 . S
H1644 C1668 0.950 . S
H1645 C1669 0.951 . S
H1646 C1671 0.951 . S
H1647 C1673 0.950 1_655 S
H1648 C1674 0.950 1_655 S
H1649 C1676 0.950 1_655 S
H1650 C1679 0.950 . S
H1651 C1680 0.950 . S
H1652 C1682 0.950 . S
H1653 C1683 0.950 . S
C1654 H1636 0.951 . S
C1654 C1655 1.366 1_655 S
C1654 C1656 1.388 . S
C1655 C1654 1.366 1_455 S
C1655 C1659 1.385 . S
C1656 H1637 0.951 . S
C1656 C1654 1.388 . S
C1656 C1657 1.366 1_655 S
C1657 C1656 1.366 1_455 S
C1657 C1658 1.414 . S
C1657 C1660 1.499 . S
C1658 H1638 0.950 . S
C1658 C1657 1.414 . S
C1658 C1659 1.374 . S
C1659 H1639 0.950 . S
C1659 C1655 1.385 . S
C1659 C1658 1.374 . S
C1660 C1657 1.499 . S
C1660 C1661 1.373 . S
C1660 C1662 1.389 . S
C1661 H1640 0.950 . S
C1661 C1660 1.373 . S
C1661 C1677 1.377 . S
C1662 C1660 1.389 . S
C1662 C1663 1.524 1_455 S
C1662 C1676 1.377 . S
C1663 C1662 1.524 1_655 S
C1663 C1664 1.397 1_655 S
C1663 C1668 1.363 . S
C1664 H1641 0.950 . S
C1664 C1663 1.397 1_455 S
C1664 C1665 1.334 1_455 S
C1665 H1642 0.950 1_655 S
C1665 C1664 1.334 1_655 S
C1665 C1666 1.287 . S
C1666 C1665 1.287 . S
C1666 C1667 1.524 . S
C1666 H1685 0.913 . S
C1667 H1643 0.950 . S
C1667 C1666 1.524 . S
C1667 C1668 1.415 . S
C1668 H1644 0.950 . S
C1668 C1663 1.363 . S
C1668 C1667 1.415 . S
C1669 H1645 0.951 . S
C1669 C1670 1.366 . S
C1669 C1671 1.388 . S
C1670 C1669 1.366 . S
C1670 C1674 1.385 . S
C1671 H1646 0.951 . S
C1671 C1669 1.388 . S
C1671 C1672 1.366 . S
C1672 C1671 1.366 . S
C1672 C1673 1.414 . S
C1672 C1675 1.499 . S
C1673 H1647 0.950 1_455 S
C1673 C1672 1.414 . S
C1673 C1674 1.374 . S
C1674 H1648 0.950 1_455 S
C1674 C1670 1.385 . S
C1674 C1673 1.374 . S
C1675 C1672 1.499 . S
C1675 C1676 1.373 . S
C1675 C1677 1.389 . S
C1676 H1649 0.950 1_455 S
C1676 C1662 1.377 . S
C1676 C1675 1.373 . S
C1677 C1661 1.377 . S
C1677 C1675 1.389 . S
C1677 C1678 1.524 . S
C1678 C1677 1.524 . S
C1678 C1679 1.397 . S
C1678 C1683 1.363 . S
C1679 H1650 0.950 . S
C1679 C1678 1.397 . S
C1679 C1680 1.334 . S
C1680 H1651 0.950 . S
C1680 C1679 1.334 . S
C1680 C1681 1.287 . S
C1681 C1680 1.287 . S
C1681 C1682 1.524 . S
C1681 H1684 0.999 . S
C1682 H1652 0.950 . S
C1682 C1681 1.524 . S
C1682 C1683 1.415 . S
C1683 H1653 0.950 . S
C1683 C1678 1.363 . S
C1683 C1682 1.415 . S
H1684 C1681 0.999 . S
H1685 C1666 0.913 . S
H1686 C1704 0.951 . S
H1687 C1706 0.951 . S
H1688 C1708 0.950 1_455 S
H1689 C1709 0.950 1_455 S
H1690 C1711 0.950 . S
H1691 C1714 0.950 . S
H1692 C1715 0.950 . S
H1693 C1717 0.950 . S
H1694 C1718 0.950 . S
H1695 C1719 0.951 . S
H1696 C1721 0.951 . S
H1697 C1723 0.950 . S
H1698 C1724 0.950 . S
H1699 C1726 0.950 . S
H1700 C1729 0.950 . S
H1701 C1730 0.950 . S
H1702 C1732 0.950 . S
H1703 C1733 0.950 . S
C1704 H1686 0.951 . S
C1704 C1705 1.366 . S
C1704 C1706 1.388 . S
C1705 C1704 1.366 . S
C1705 C1709 1.385 . S
C1706 H1687 0.951 . S
C1706 C1704 1.388 . S
C1706 C1707 1.366 . S
C1707 C1706 1.366 . S
C1707 C1708 1.414 . S
C1707 C1710 1.499 . S
C1708 H1688 0.950 1_655 S
C1708 C1707 1.414 . S
C1708 C1709 1.374 . S
C1709 H1689 0.950 1_655 S
C1709 C1705 1.385 . S
C1709 C1708 1.374 . S
C1710 C1707 1.499 . S
C1710 C1711 1.373 1_655 S
C1710 C1712 1.389 . S
C1711 H1690 0.950 . S
C1711 C1710 1.373 1_455 S
C1711 C1727 1.377 . S
C1712 C1710 1.389 . S
C1712 C1713 1.524 . S
C1712 C1726 1.377 . S
C1713 C1712 1.524 . S
C1713 C1714 1.397 . S
C1713 C1718 1.363 . S
C1714 H1691 0.950 . S
C1714 C1713 1.397 . S
C1714 C1715 1.334 . S
C1715 H1692 0.950 . S
C1715 C1714 1.334 . S
C1715 C1716 1.287 . S
C1716 C1715 1.287 . S
C1716 C1717 1.524 . S
C1716 H1735 0.913 . S
C1717 H1693 0.950 . S
C1717 C1716 1.524 . S
C1717 C1718 1.415 . S
C1718 H1694 0.950 . S
C1718 C1713 1.363 . S
C1718 C1717 1.415 . S
C1719 H1695 0.951 . S
C1719 C1720 1.366 . S
C1719 C1721 1.388 . S
C1720 C1719 1.366 . S
C1720 C1724 1.385 . S
C1721 H1696 0.951 . S
C1721 C1719 1.388 . S
C1721 C1722 1.366 . S
C1722 C1721 1.366 . S
C1722 C1723 1.414 . S
C1722 C1725 1.499 . S
C1723 H1697 0.950 . S
C1723 C1722 1.414 . S
C1723 C1724 1.374 . S
C1724 H1698 0.950 . S
C1724 C1720 1.385 . S
C1724 C1723 1.374 . S
C1725 C1722 1.499 . S
C1725 C1726 1.373 . S
C1725 C1727 1.389 1_655 S
C1726 H1699 0.950 . S
C1726 C1712 1.377 . S
C1726 C1725 1.373 . S
C1727 C1711 1.377 . S
C1727 C1725 1.389 1_455 S
C1727 C1728 1.524 . S
C1728 C1727 1.524 . S
C1728 C1729 1.397 . S
C1728 C1733 1.363 . S
C1729 H1700 0.950 . S
C1729 C1728 1.397 . S
C1729 C1730 1.334 . S
C1730 H1701 0.950 . S
C1730 C1729 1.334 . S
C1730 C1731 1.287 . S
C1731 C1730 1.287 . S
C1731 C1732 1.524 . S
C1731 H1734 0.999 . S
C1732 H1702 0.950 . S
C1732 C1731 1.524 . S
C1732 C1733 1.415 . S
C1733 H1703 0.950 . S
C1733 C1728 1.363 . S
C1733 C1732 1.415 . S
H1734 C1731 0.999 . S
H1735 C1716 0.913 . S
H1736 C1754 0.951 . S
H1737 C1756 0.951 . S
H1738 C1758 0.950 . S
H1739 C1759 0.950 . S
H1740 C1761 0.950 1_565 S
H1741 C1764 0.950 . S
H1742 C1765 0.950 . S
H1743 C1767 0.950 . S
H1744 C1768 0.950 . S
H1745 C1769 0.951 . S
H1746 C1771 0.951 . S
H1747 C1773 0.950 . S
H1748 C1774 0.950 . S
H1749 C1776 0.950 . S
H1750 C1779 0.950 . S
H1751 C1780 0.950 . S
H1752 C1782 0.950 . S
H1753 C1783 0.950 . S
C1754 H1736 0.951 . S
C1754 C1755 1.366 . S
C1754 C1756 1.388 . S
C1755 C1754 1.366 . S
C1755 C1759 1.385 . S
C1756 H1737 0.951 . S
C1756 C1754 1.388 . S
C1756 C1757 1.366 . S
C1757 C1756 1.366 . S
C1757 C1758 1.414 . S
C1757 C1760 1.499 . S
C1758 H1738 0.950 . S
C1758 C1757 1.414 . S
C1758 C1759 1.374 . S
C1759 H1739 0.950 . S
C1759 C1755 1.385 . S
C1759 C1758 1.374 . S
C1760 C1757 1.499 . S
C1760 C1761 1.373 . S
C1760 C1762 1.389 . S
C1761 H1740 0.950 1_545 S
C1761 C1760 1.373 . S
C1761 C1777 1.377 . S
C1762 C1760 1.389 . S
C1762 C1763 1.524 . S
C1762 C1776 1.377 . S
C1763 C1762 1.524 . S
C1763 C1764 1.397 . S
C1763 C1768 1.363 . S
C1764 H1741 0.950 . S
C1764 C1763 1.397 . S
C1764 C1765 1.334 . S
C1765 H1742 0.950 . S
C1765 C1764 1.334 . S
C1765 C1766 1.287 . S
C1766 C1765 1.287 . S
C1766 C1767 1.524 . S
C1766 H1785 0.913 . S
C1767 H1743 0.950 . S
C1767 C1766 1.524 . S
C1767 C1768 1.415 . S
C1768 H1744 0.950 . S
C1768 C1763 1.363 . S
C1768 C1767 1.415 . S
C1769 H1745 0.951 . S
C1769 C1770 1.366 . S
C1769 C1771 1.388 . S
C1770 C1769 1.366 . S
C1770 C1774 1.385 . S
C1771 H1746 0.951 . S
C1771 C1769 1.388 . S
C1771 C1772 1.366 . S
C1772 C1771 1.366 . S
C1772 C1773 1.414 . S
C1772 C1775 1.499 . S
C1773 H1747 0.950 . S
C1773 C1772 1.414 . S
C1773 C1774 1.374 . S
C1774 H1748 0.950 . S
C1774 C1770 1.385 . S
C1774 C1773 1.374 . S
C1775 C1772 1.499 . S
C1775 C1776 1.373 . S
C1775 C1777 1.389 . S
C1776 H1749 0.950 . S
C1776 C1762 1.377 . S
C1776 C1775 1.373 . S
C1777 C1761 1.377 . S
C1777 C1775 1.389 . S
C1777 C1778 1.524 1_545 S
C1778 C1777 1.524 1_565 S
C1778 C1779 1.397 . S
C1778 C1783 1.363 . S
C1779 H1750 0.950 . S
C1779 C1778 1.397 . S
C1779 C1780 1.334 . S
C1780 H1751 0.950 . S
C1780 C1779 1.334 . S
C1780 C1781 1.287 . S
C1781 C1780 1.287 . S
C1781 C1782 1.524 . S
C1781 H1784 0.999 . S
C1782 H1752 0.950 . S
C1782 C1781 1.524 . S
C1782 C1783 1.415 . S
C1783 H1753 0.950 . S
C1783 C1778 1.363 . S
C1783 C1782 1.415 . S
H1784 C1781 0.999 . S
H1785 C1766 0.913 . S
H1786 C1804 0.951 . S
H1787 C1806 0.951 . S
H1788 C1808 0.950 . S
H1789 C1809 0.950 . S
H1790 C1811 0.950 . S
H1791 C1814 0.950 . S
H1792 C1815 0.950 . S
H1793 C1817 0.950 . S
H1794 C1818 0.950 . S
H1795 C1819 0.951 . S
H1796 C1821 0.951 . S
H1797 C1823 0.950 . S
H1798 C1824 0.950 . S
H1799 C1826 0.950 . S
H1800 C1829 0.950 . S
H1801 C1830 0.950 . S
H1802 C1832 0.950 . S
H1803 C1833 0.950 . S
C1804 H1786 0.951 . S
C1804 C1805 1.366 . S
C1804 C1806 1.388 . S
C1805 C1804 1.366 . S
C1805 C1809 1.385 . S
C1806 H1787 0.951 . S
C1806 C1804 1.388 . S
C1806 C1807 1.366 . S
C1807 C1806 1.366 . S
C1807 C1808 1.414 . S
C1807 C1810 1.499 . S
C1808 H1788 0.950 . S
C1808 C1807 1.414 . S
C1808 C1809 1.374 . S
C1809 H1789 0.950 . S
C1809 C1805 1.385 . S
C1809 C1808 1.374 . S
C1810 C1807 1.499 . S
C1810 C1811 1.373 . S
C1810 C1812 1.389 . S
C1811 H1790 0.950 . S
C1811 C1810 1.373 . S
C1811 C1827 1.377 . S
C1812 C1810 1.389 . S
C1812 C1813 1.524 . S
C1812 C1826 1.377 . S
C1813 C1812 1.524 . S
C1813 C1814 1.397 . S
C1813 C1818 1.363 . S
C1814 H1791 0.950 . S
C1814 C1813 1.397 . S
C1814 C1815 1.334 . S
C1815 H1792 0.950 . S
C1815 C1814 1.334 . S
C1815 C1816 1.287 . S
C1816 C1815 1.287 . S
C1816 C1817 1.524 . S
C1816 H1835 0.913 . S
C1817 H1793 0.950 . S
C1817 C1816 1.524 . S
C1817 C1818 1.415 . S
C1818 H1794 0.950 . S
C1818 C1813 1.363 . S
C1818 C1817 1.415 . S
C1819 H1795 0.951 . S
C1819 C1820 1.366 . S
C1819 C1821 1.388 . S
C1820 C1819 1.366 . S
C1820 C1824 1.385 . S
C1821 H1796 0.951 . S
C1821 C1819 1.388 . S
C1821 C1822 1.366 . S
C1822 C1821 1.366 . S
C1822 C1823 1.414 . S
C1822 C1825 1.499 . S
C1823 H1797 0.950 . S
C1823 C1822 1.414 . S
C1823 C1824 1.374 . S
C1824 H1798 0.950 . S
C1824 C1820 1.385 . S
C1824 C1823 1.374 . S
C1825 C1822 1.499 . S
C1825 C1826 1.373 . S
C1825 C1827 1.389 . S
C1826 H1799 0.950 . S
C1826 C1812 1.377 . S
C1826 C1825 1.373 . S
C1827 C1811 1.377 . S
C1827 C1825 1.389 . S
C1827 C1828 1.524 . S
C1828 C1827 1.524 . S
C1828 C1829 1.397 . S
C1828 C1833 1.363 . S
C1829 H1800 0.950 . S
C1829 C1828 1.397 . S
C1829 C1830 1.334 . S
C1830 H1801 0.950 . S
C1830 C1829 1.334 . S
C1830 C1831 1.287 . S
C1831 C1830 1.287 . S
C1831 C1832 1.524 . S
C1831 H1834 0.999 . S
C1832 H1802 0.950 . S
C1832 C1831 1.524 . S
C1832 C1833 1.415 . S
C1833 H1803 0.950 . S
C1833 C1828 1.363 . S
C1833 C1832 1.415 . S
H1834 C1831 0.999 . S
H1835 C1816 0.913 . S
H1836 C1854 0.951 . S
H1837 C1856 0.951 . S
H1838 C1858 0.950 . S
H1839 C1859 0.950 1_545 S
H1840 C1861 0.950 . S
H1841 C1864 0.950 . S
H1842 C1865 0.950 . S
H1843 C1867 0.950 . S
H1844 C1868 0.950 . S
H1845 C1869 0.951 . S
H1846 C1871 0.951 . S
H1847 C1873 0.950 . S
H1848 C1874 0.950 . S
H1849 C1876 0.949 1_545 S
H1850 C1879 0.950 . S
H1851 C1880 0.950 . S
H1852 C1882 0.950 . S
H1853 C1883 0.950 . S
C1854 H1836 0.951 . S
C1854 C1855 1.366 . S
C1854 C1856 1.388 . S
C1855 C1854 1.366 . S
C1855 C1859 1.385 . S
C1856 H1837 0.951 . S
C1856 C1854 1.388 . S
C1856 C1857 1.366 . S
C1857 C1856 1.366 . S
C1857 C1858 1.414 . S
C1857 C1860 1.499 . S
C1858 H1838 0.950 . S
C1858 C1857 1.414 . S
C1858 C1859 1.374 . S
C1859 H1839 0.950 1_565 S
C1859 C1855 1.385 . S
C1859 C1858 1.374 . S
C1860 C1857 1.499 . S
C1860 C1861 1.373 . S
C1860 C1862 1.389 1_565 S
C1861 H1840 0.950 . S
C1861 C1860 1.373 . S
C1861 C1877 1.377 . S
C1862 C1860 1.389 1_545 S
C1862 C1863 1.524 . S
C1862 C1876 1.376 1_545 S
C1863 C1862 1.524 . S
C1863 C1864 1.397 . S
C1863 C1868 1.363 . S
C1864 H1841 0.950 . S
C1864 C1863 1.397 . S
C1864 C1865 1.334 . S
C1865 H1842 0.950 . S
C1865 C1864 1.334 . S
C1865 C1866 1.287 . S
C1866 C1865 1.287 . S
C1866 C1867 1.524 . S
C1866 H1885 0.913 . S
C1867 H1843 0.950 . S
C1867 C1866 1.524 . S
C1867 C1868 1.415 . S
C1868 H1844 0.950 . S
C1868 C1863 1.363 . S
C1868 C1867 1.415 . S
C1869 H1845 0.951 . S
C1869 C1870 1.366 . S
C1869 C1871 1.388 . S
C1870 C1869 1.366 . S
C1870 C1874 1.385 . S
C1871 H1846 0.951 . S
C1871 C1869 1.388 . S
C1871 C1872 1.366 . S
C1872 C1871 1.366 . S
C1872 C1873 1.414 . S
C1872 C1875 1.499 . S
C1873 H1847 0.950 . S
C1873 C1872 1.414 . S
C1873 C1874 1.374 . S
C1874 H1848 0.950 . S
C1874 C1870 1.385 . S
C1874 C1873 1.374 . S
C1875 C1872 1.499 . S
C1875 C1876 1.375 . S
C1875 C1877 1.389 . S
C1876 H1849 0.949 1_565 S
C1876 C1862 1.376 1_565 S
C1876 C1875 1.375 . S
C1877 C1861 1.377 . S
C1877 C1875 1.389 . S
C1877 C1878 1.524 . S
C1878 C1877 1.524 . S
C1878 C1879 1.397 . S
C1878 C1883 1.363 . S
C1879 H1850 0.950 . S
C1879 C1878 1.397 . S
C1879 C1880 1.334 . S
C1880 H1851 0.950 . S
C1880 C1879 1.334 . S
C1880 C1881 1.287 . S
C1881 C1880 1.287 . S
C1881 C1882 1.524 . S
C1881 H1884 0.999 . S
C1882 H1852 0.950 . S
C1882 C1881 1.524 . S
C1882 C1883 1.415 . S
C1883 H1853 0.950 . S
C1883 C1878 1.363 . S
C1883 C1882 1.415 . S
H1884 C1881 0.999 . S
H1885 C1866 0.913 . S
H1886 C1904 0.951 . S
H1887 C1906 0.951 . S
H1888 C1908 0.950 . S
H1889 C1909 0.950 . S
H1890 C1911 0.950 . S
H1891 C1914 0.950 . S
H1892 C1915 0.950 . S
H1893 C1917 0.950 . S
H1894 C1918 0.950 . S
H1895 C1919 0.951 . S
H1896 C1921 0.951 . S
H1897 C1923 0.950 . S
H1898 C1924 0.950 . S
H1899 C1926 0.950 . S
H1900 C1929 0.950 . S
H1901 C1930 0.950 . S
H1902 C1932 0.950 . S
H1903 C1933 0.950 . S
C1904 H1886 0.951 . S
C1904 C1905 1.366 . S
C1904 C1906 1.388 . S
C1905 C1904 1.366 . S
C1905 C1909 1.385 . S
C1906 H1887 0.951 . S
C1906 C1904 1.388 . S
C1906 C1907 1.366 . S
C1907 C1906 1.366 . S
C1907 C1908 1.414 . S
C1907 C1910 1.499 . S
C1908 H1888 0.950 . S
C1908 C1907 1.414 . S
C1908 C1909 1.374 . S
C1909 H1889 0.950 . S
C1909 C1905 1.385 . S
C1909 C1908 1.374 . S
C1910 C1907 1.499 . S
C1910 C1911 1.373 . S
C1910 C1912 1.389 . S
C1911 H1890 0.950 . S
C1911 C1910 1.373 . S
C1911 C1927 1.377 . S
C1912 C1910 1.389 . S
C1912 C1913 1.524 . S
C1912 C1926 1.377 . S
C1913 C1912 1.524 . S
C1913 C1914 1.397 . S
C1913 C1918 1.363 . S
C1914 H1891 0.950 . S
C1914 C1913 1.397 . S
C1914 C1915 1.334 . S
C1915 H1892 0.950 . S
C1915 C1914 1.334 . S
C1915 C1916 1.287 . S
C1916 C1915 1.287 . S
C1916 C1917 1.524 . S
C1916 H1935 0.913 . S
C1917 H1893 0.950 . S
C1917 C1916 1.524 . S
C1917 C1918 1.415 . S
C1918 H1894 0.950 . S
C1918 C1913 1.363 . S
C1918 C1917 1.415 . S
C1919 H1895 0.951 . S
C1919 C1920 1.366 . S
C1919 C1921 1.388 . S
C1920 C1919 1.366 . S
C1920 C1924 1.385 . S
C1921 H1896 0.951 . S
C1921 C1919 1.388 . S
C1921 C1922 1.366 . S
C1922 C1921 1.366 . S
C1922 C1923 1.414 . S
C1922 C1925 1.499 . S
C1923 H1897 0.950 . S
C1923 C1922 1.414 . S
C1923 C1924 1.374 . S
C1924 H1898 0.950 . S
C1924 C1920 1.385 . S
C1924 C1923 1.374 . S
C1925 C1922 1.499 . S
C1925 C1926 1.373 . S
C1925 C1927 1.389 . S
C1926 H1899 0.950 . S
C1926 C1912 1.377 . S
C1926 C1925 1.373 . S
C1927 C1911 1.377 . S
C1927 C1925 1.389 . S
C1927 C1928 1.524 . S
C1928 C1927 1.524 . S
C1928 C1929 1.397 . S
C1928 C1933 1.363 . S
C1929 H1900 0.950 . S
C1929 C1928 1.397 . S
C1929 C1930 1.334 . S
C1930 H1901 0.950 . S
C1930 C1929 1.334 . S
C1930 C1931 1.287 . S
C1931 C1930 1.287 . S
C1931 C1932 1.524 . S
C1931 H1934 0.999 . S
C1932 H1902 0.950 . S
C1932 C1931 1.524 . S
C1932 C1933 1.415 . S
C1933 H1903 0.950 . S
C1933 C1928 1.363 . S
C1933 C1932 1.415 . S
H1934 C1931 0.999 . S
H1935 C1916 0.913 . S
H1936 C1954 0.951 . S
H1937 C1956 0.951 . S
H1938 C1958 0.950 . S
H1939 C1959 0.950 . S
H1940 C1961 0.950 . S
H1941 C1964 0.950 . S
H1942 C1965 0.977 . S
H1943 C1967 0.950 . S
H1944 C1968 0.950 . S
H1945 C1969 0.951 . S
H1946 C1971 0.951 . S
H1947 C1973 0.950 1_556 S
H1948 C1974 0.950 1_556 S
H1949 C1976 0.950 . S
H1950 C1979 0.950 . S
H1951 C1980 0.950 . S
H1952 C1982 0.950 . S
H1953 C1983 0.950 . S
C1954 H1936 0.951 . S
C1954 C1955 1.366 1_556 S
C1954 C1956 1.388 . S
C1955 C1954 1.366 1_554 S
C1955 C1959 1.385 . S
C1956 H1937 0.951 . S
C1956 C1954 1.388 . S
C1956 C1957 1.366 1_556 S
C1957 C1956 1.366 1_554 S
C1957 C1958 1.414 . S
C1957 C1960 1.499 . S
C1958 H1938 0.950 . S
C1958 C1957 1.414 . S
C1958 C1959 1.374 . S
C1959 H1939 0.950 . S
C1959 C1955 1.385 . S
C1959 C1958 1.374 . S
C1960 C1957 1.499 . S
C1960 C1961 1.373 . S
C1960 C1962 1.389 . S
C1961 H1940 0.950 . S
C1961 C1960 1.373 . S
C1961 C1977 1.377 . S
C1962 C1960 1.389 . S
C1962 C1963 1.524 1_554 S
C1962 C1976 1.377 . S
C1963 C1962 1.524 1_556 S
C1963 C1964 1.397 1_556 S
C1963 C1968 1.363 . S
C1964 H1941 0.950 . S
C1964 C1963 1.397 1_554 S
C1964 C1965 1.355 . S
C1965 H1942 0.977 . S
C1965 C1964 1.355 . S
C1965 C1966 1.240 1_554 S
C1966 C1965 1.240 1_556 S
C1966 C1967 1.524 . S
C1966 H1985 0.913 . S
C1967 H1943 0.950 . S
C1967 C1966 1.524 . S
C1967 C1968 1.415 . S
C1968 H1944 0.950 . S
C1968 C1963 1.363 . S
C1968 C1967 1.415 . S
C1969 H1945 0.951 . S
C1969 C1970 1.366 . S
C1969 C1971 1.388 . S
C1970 C1969 1.366 . S
C1970 C1974 1.385 . S
C1971 H1946 0.951 . S
C1971 C1969 1.388 . S
C1971 C1972 1.366 . S
C1972 C1971 1.366 . S
C1972 C1973 1.414 . S
C1972 C1975 1.499 . S
C1973 H1947 0.950 1_554 S
C1973 C1972 1.414 . S
C1973 C1974 1.374 . S
C1974 H1948 0.950 1_554 S
C1974 C1970 1.385 . S
C1974 C1973 1.374 . S
C1975 C1972 1.499 . S
C1975 C1976 1.373 . S
C1975 C1977 1.389 . S
C1976 H1949 0.950 . S
C1976 C1962 1.377 . S
C1976 C1975 1.373 . S
C1977 C1961 1.377 . S
C1977 C1975 1.389 . S
C1977 C1978 1.524 . S
C1978 C1977 1.524 . S
C1978 C1979 1.397 . S
C1978 C1983 1.363 . S
C1979 H1950 0.950 . S
C1979 C1978 1.397 . S
C1979 C1980 1.334 . S
C1980 H1951 0.950 . S
C1980 C1979 1.334 . S
C1980 C1981 1.287 . S
C1981 C1980 1.287 . S
C1981 C1982 1.524 . S
C1981 H1984 0.999 . S
C1982 H1952 0.950 . S
C1982 C1981 1.524 . S
C1982 C1983 1.415 . S
C1983 H1953 0.950 . S
C1983 C1978 1.363 . S
C1983 C1982 1.415 . S
H1984 C1981 0.999 . S
H1985 C1966 0.913 . S
H1986 C2004 0.951 . S
H1987 C2006 0.951 . S
H1988 C2008 0.950 . S
H1989 C2009 0.950 . S
H1990 C2011 0.950 . S
H1991 C2014 0.950 . S
H1992 C2015 0.950 . S
H1993 C2017 0.950 . S
H1994 C2018 0.950 . S
H1995 C2019 0.951 . S
H1996 C2021 0.951 . S
H1997 C2023 0.950 . S
H1998 C2024 0.950 . S
H1999 C2026 0.950 . S
H2000 C2029 0.950 . S
H2001 C2030 0.950 . S
H2002 C2032 0.950 . S
H2003 C2033 0.950 . S
C2004 H1986 0.951 . S
C2004 C2005 1.366 . S
C2004 C2006 1.388 . S
C2005 C2004 1.366 . S
C2005 C2009 1.385 . S
C2006 H1987 0.951 . S
C2006 C2004 1.388 . S
C2006 C2007 1.366 . S
C2007 C2006 1.366 . S
C2007 C2008 1.414 . S
C2007 C2010 1.499 . S
C2008 H1988 0.950 . S
C2008 C2007 1.414 . S
C2008 C2009 1.374 . S
C2009 H1989 0.950 . S
C2009 C2005 1.385 . S
C2009 C2008 1.374 . S
C2010 C2007 1.499 . S
C2010 C2011 1.373 . S
C2010 C2012 1.389 . S
C2011 H1990 0.950 . S
C2011 C2010 1.373 . S
C2011 C2027 1.377 . S
C2012 C2010 1.389 . S
C2012 C2013 1.524 . S
C2012 C2026 1.377 . S
C2013 C2012 1.524 . S
C2013 C2014 1.397 . S
C2013 C2018 1.363 . S
C2014 H1991 0.950 . S
C2014 C2013 1.397 . S
C2014 C2015 1.334 . S
C2015 H1992 0.950 . S
C2015 C2014 1.334 . S
C2015 C2016 1.287 . S
C2016 C2015 1.287 . S
C2016 C2017 1.524 . S
C2016 H2035 0.913 . S
C2017 H1993 0.950 . S
C2017 C2016 1.524 . S
C2017 C2018 1.415 . S
C2018 H1994 0.950 . S
C2018 C2013 1.363 . S
C2018 C2017 1.415 . S
C2019 H1995 0.951 . S
C2019 C2020 1.366 . S
C2019 C2021 1.388 . S
C2020 C2019 1.366 . S
C2020 C2024 1.385 . S
C2021 H1996 0.951 . S
C2021 C2019 1.388 . S
C2021 C2022 1.366 . S
C2022 C2021 1.366 . S
C2022 C2023 1.414 . S
C2022 C2025 1.499 . S
C2023 H1997 0.950 . S
C2023 C2022 1.414 . S
C2023 C2024 1.374 . S
C2024 H1998 0.950 . S
C2024 C2020 1.385 . S
C2024 C2023 1.374 . S
C2025 C2022 1.499 . S
C2025 C2026 1.373 . S
C2025 C2027 1.389 . S
C2026 H1999 0.950 . S
C2026 C2012 1.377 . S
C2026 C2025 1.373 . S
C2027 C2011 1.377 . S
C2027 C2025 1.389 . S
C2027 C2028 1.524 . S
C2028 C2027 1.524 . S
C2028 C2029 1.397 . S
C2028 C2033 1.363 . S
C2029 H2000 0.950 . S
C2029 C2028 1.397 . S
C2029 C2030 1.334 . S
C2030 H2001 0.950 . S
C2030 C2029 1.334 . S
C2030 C2031 1.287 . S
C2031 C2030 1.287 . S
C2031 C2032 1.524 . S
C2031 H2034 0.999 . S
C2032 H2002 0.950 . S
C2032 C2031 1.524 . S
C2032 C2033 1.415 . S
C2033 H2003 0.950 . S
C2033 C2028 1.363 . S
C2033 C2032 1.415 . S
H2034 C2031 0.999 . S
H2035 C2016 0.913 . S
H2036 C2054 0.951 . S
H2037 C2056 0.951 . S
H2038 C2058 0.950 . S
H2039 C2059 0.950 . S
H2040 C2061 0.950 . S
H2041 C2064 0.950 . S
H2042 C2065 0.950 . S
H2043 C2067 0.950 . S
H2044 C2068 0.950 . S
H2045 C2069 0.951 . S
H2046 C2071 0.951 . S
H2047 C2073 0.950 . S
H2048 C2074 0.950 . S
H2049 C2076 0.950 . S
H2050 C2079 0.950 . S
H2051 C2080 0.950 . S
H2052 C2082 0.950 . S
H2053 C2083 0.950 . S
C2054 H2036 0.951 . S
C2054 C2055 1.366 . S
C2054 C2056 1.388 . S
C2055 C2054 1.366 . S
C2055 C2059 1.385 . S
C2056 H2037 0.951 . S
C2056 C2054 1.388 . S
C2056 C2057 1.366 . S
C2057 C2056 1.366 . S
C2057 C2058 1.414 . S
C2057 C2060 1.499 . S
C2058 H2038 0.950 . S
C2058 C2057 1.414 . S
C2058 C2059 1.374 . S
C2059 H2039 0.950 . S
C2059 C2055 1.385 . S
C2059 C2058 1.374 . S
C2060 C2057 1.499 . S
C2060 C2061 1.373 . S
C2060 C2062 1.389 . S
C2061 H2040 0.950 . S
C2061 C2060 1.373 . S
C2061 C2077 1.377 . S
C2062 C2060 1.389 . S
C2062 C2063 1.524 . S
C2062 C2076 1.377 . S
C2063 C2062 1.524 . S
C2063 C2064 1.397 . S
C2063 C2068 1.363 . S
C2064 H2041 0.950 . S
C2064 C2063 1.397 . S
C2064 C2065 1.334 . S
C2065 H2042 0.950 . S
C2065 C2064 1.334 . S
C2065 C2066 1.287 . S
C2066 C2065 1.287 . S
C2066 C2067 1.524 . S
C2066 H2085 0.913 . S
C2067 H2043 0.950 . S
C2067 C2066 1.524 . S
C2067 C2068 1.415 . S
C2068 H2044 0.950 . S
C2068 C2063 1.363 . S
C2068 C2067 1.415 . S
C2069 H2045 0.951 . S
C2069 C2070 1.366 . S
C2069 C2071 1.388 . S
C2070 C2069 1.366 . S
C2070 C2074 1.385 . S
C2071 H2046 0.951 . S
C2071 C2069 1.388 . S
C2071 C2072 1.366 . S
C2072 C2071 1.366 . S
C2072 C2073 1.414 . S
C2072 C2075 1.499 . S
C2073 H2047 0.950 . S
C2073 C2072 1.414 . S
C2073 C2074 1.374 . S
C2074 H2048 0.950 . S
C2074 C2070 1.385 . S
C2074 C2073 1.374 . S
C2075 C2072 1.499 . S
C2075 C2076 1.373 . S
C2075 C2077 1.389 . S
C2076 H2049 0.950 . S
C2076 C2062 1.377 . S
C2076 C2075 1.373 . S
C2077 C2061 1.377 . S
C2077 C2075 1.389 . S
C2077 C2078 1.524 . S
C2078 C2077 1.524 . S
C2078 C2079 1.397 . S
C2078 C2083 1.363 . S
C2079 H2050 0.950 . S
C2079 C2078 1.397 . S
C2079 C2080 1.334 . S
C2080 H2051 0.950 . S
C2080 C2079 1.334 . S
C2080 C2081 1.287 . S
C2081 C2080 1.287 . S
C2081 C2082 1.524 . S
C2081 H2084 0.999 . S
C2082 H2052 0.950 . S
C2082 C2081 1.524 . S
C2082 C2083 1.415 . S
C2083 H2053 0.950 . S
C2083 C2078 1.363 . S
C2083 C2082 1.415 . S
H2084 C2081 0.999 . S
H2085 C2066 0.913 . S
H2086 C2104 0.951 . S
H2087 C2106 0.951 . S
H2088 C2108 0.950 . S
H2089 C2109 0.950 . S
H2090 C2111 0.950 . S
H2091 C2114 0.950 . S
H2092 C2115 0.950 . S
H2093 C2117 0.950 . S
H2094 C2118 0.950 . S
H2095 C2119 0.951 . S
H2096 C2121 0.951 . S
H2097 C2123 0.950 . S
H2098 C2124 0.950 . S
H2099 C2126 0.950 . S
H2100 C2129 0.950 . S
H2101 C2130 0.950 . S
H2102 C2132 0.950 . S
H2103 C2133 0.950 . S
C2104 H2086 0.951 . S
C2104 C2105 1.366 . S
C2104 C2106 1.388 . S
C2105 C2104 1.366 . S
C2105 C2109 1.385 . S
C2106 H2087 0.951 . S
C2106 C2104 1.388 . S
C2106 C2107 1.366 . S
C2107 C2106 1.366 . S
C2107 C2108 1.414 . S
C2107 C2110 1.499 . S
C2108 H2088 0.950 . S
C2108 C2107 1.414 . S
C2108 C2109 1.374 . S
C2109 H2089 0.950 . S
C2109 C2105 1.385 . S
C2109 C2108 1.374 . S
C2110 C2107 1.499 . S
C2110 C2111 1.373 . S
C2110 C2112 1.389 . S
C2111 H2090 0.950 . S
C2111 C2110 1.373 . S
C2111 C2127 1.377 . S
C2112 C2110 1.389 . S
C2112 C2113 1.524 . S
C2112 C2126 1.377 . S
C2113 C2112 1.524 . S
C2113 C2114 1.397 . S
C2113 C2118 1.363 . S
C2114 H2091 0.950 . S
C2114 C2113 1.397 . S
C2114 C2115 1.334 . S
C2115 H2092 0.950 . S
C2115 C2114 1.334 . S
C2115 C2116 1.287 . S
C2116 C2115 1.287 . S
C2116 C2117 1.524 . S
C2116 H2135 0.913 . S
C2117 H2093 0.950 . S
C2117 C2116 1.524 . S
C2117 C2118 1.415 . S
C2118 H2094 0.950 . S
C2118 C2113 1.363 . S
C2118 C2117 1.415 . S
C2119 H2095 0.951 . S
C2119 C2120 1.366 . S
C2119 C2121 1.388 . S
C2120 C2119 1.366 . S
C2120 C2124 1.385 . S
C2121 H2096 0.951 . S
C2121 C2119 1.388 . S
C2121 C2122 1.366 . S
C2122 C2121 1.366 . S
C2122 C2123 1.414 . S
C2122 C2125 1.499 . S
C2123 H2097 0.950 . S
C2123 C2122 1.414 . S
C2123 C2124 1.374 . S
C2124 H2098 0.950 . S
C2124 C2120 1.385 . S
C2124 C2123 1.374 . S
C2125 C2122 1.499 . S
C2125 C2126 1.373 . S
C2125 C2127 1.389 . S
C2126 H2099 0.950 . S
C2126 C2112 1.377 . S
C2126 C2125 1.373 . S
C2127 C2111 1.377 . S
C2127 C2125 1.389 . S
C2127 C2128 1.524 . S
C2128 C2127 1.524 . S
C2128 C2129 1.397 . S
C2128 C2133 1.363 . S
C2129 H2100 0.950 . S
C2129 C2128 1.397 . S
C2129 C2130 1.334 . S
C2130 H2101 0.950 . S
C2130 C2129 1.334 . S
C2130 C2131 1.287 . S
C2131 C2130 1.287 . S
C2131 C2132 1.524 . S
C2131 H2134 0.999 . S
C2132 H2102 0.950 . S
C2132 C2131 1.524 . S
C2132 C2133 1.415 . S
C2133 H2103 0.950 . S
C2133 C2128 1.363 . S
C2133 C2132 1.415 . S
H2134 C2131 0.999 . S
H2135 C2116 0.913 . S
H2136 C2154 0.951 . S
H2137 C2156 0.951 . S
H2138 C2158 0.950 . S
H2139 C2159 0.950 . S
H2140 C2161 0.950 . S
H2141 C2164 0.950 . S
H2142 C2165 0.950 . S
H2143 C2167 0.950 . S
H2144 C2168 0.950 . S
H2145 C2169 0.951 . S
H2146 C2171 0.951 . S
H2147 C2173 0.950 . S
H2148 C2174 0.950 . S
H2149 C2176 0.950 . S
H2150 C2179 0.950 . S
H2151 C2180 0.950 . S
H2152 C2182 0.950 . S
H2153 C2183 0.950 . S
C2154 H2136 0.951 . S
C2154 C2155 1.366 . S
C2154 C2156 1.388 . S
C2155 C2154 1.366 . S
C2155 C2159 1.385 . S
C2156 H2137 0.951 . S
C2156 C2154 1.388 . S
C2156 C2157 1.366 . S
C2157 C2156 1.366 . S
C2157 C2158 1.414 . S
C2157 C2160 1.499 . S
C2158 H2138 0.950 . S
C2158 C2157 1.414 . S
C2158 C2159 1.374 . S
C2159 H2139 0.950 . S
C2159 C2155 1.385 . S
C2159 C2158 1.374 . S
C2160 C2157 1.499 . S
C2160 C2161 1.373 . S
C2160 C2162 1.389 . S
C2161 H2140 0.950 . S
C2161 C2160 1.373 . S
C2161 C2177 1.377 . S
C2162 C2160 1.389 . S
C2162 C2163 1.524 . S
C2162 C2176 1.377 . S
C2163 C2162 1.524 . S
C2163 C2164 1.397 . S
C2163 C2168 1.363 . S
C2164 H2141 0.950 . S
C2164 C2163 1.397 . S
C2164 C2165 1.334 . S
C2165 H2142 0.950 . S
C2165 C2164 1.334 . S
C2165 C2166 1.287 . S
C2166 C2165 1.287 . S
C2166 C2167 1.524 . S
C2166 H2185 0.913 . S
C2167 H2143 0.950 . S
C2167 C2166 1.524 . S
C2167 C2168 1.415 . S
C2168 H2144 0.950 . S
C2168 C2163 1.363 . S
C2168 C2167 1.415 . S
C2169 H2145 0.951 . S
C2169 C2170 1.366 . S
C2169 C2171 1.388 . S
C2170 C2169 1.366 . S
C2170 C2174 1.385 . S
C2171 H2146 0.951 . S
C2171 C2169 1.388 . S
C2171 C2172 1.366 . S
C2172 C2171 1.366 . S
C2172 C2173 1.414 . S
C2172 C2175 1.499 . S
C2173 H2147 0.950 . S
C2173 C2172 1.414 . S
C2173 C2174 1.374 . S
C2174 H2148 0.950 . S
C2174 C2170 1.385 . S
C2174 C2173 1.374 . S
C2175 C2172 1.499 . S
C2175 C2176 1.373 . S
C2175 C2177 1.389 . S
C2176 H2149 0.950 . S
C2176 C2162 1.377 . S
C2176 C2175 1.373 . S
C2177 C2161 1.377 . S
C2177 C2175 1.389 . S
C2177 C2178 1.524 . S
C2178 C2177 1.524 . S
C2178 C2179 1.397 . S
C2178 C2183 1.363 . S
C2179 H2150 0.950 . S
C2179 C2178 1.397 . S
C2179 C2180 1.334 . S
C2180 H2151 0.950 . S
C2180 C2179 1.334 . S
C2180 C2181 1.287 . S
C2181 C2180 1.287 . S
C2181 C2182 1.524 . S
C2181 H2184 0.999 . S
C2182 H2152 0.950 . S
C2182 C2181 1.524 . S
C2182 C2183 1.415 . S
C2183 H2153 0.950 . S
C2183 C2178 1.363 . S
C2183 C2182 1.415 . S
H2184 C2181 0.999 . S
H2185 C2166 0.913 . S
H2186 C2204 0.951 . S
H2187 C2206 0.951 . S
H2188 C2208 0.950 . S
H2189 C2209 0.950 . S
H2190 C2211 0.950 . S
H2191 C2214 0.950 . S
H2192 C2215 0.950 . S
H2193 C2217 0.950 . S
H2194 C2218 0.950 . S
H2195 C2219 0.951 . S
H2196 C2221 0.951 . S
H2197 C2223 0.950 . S
H2198 C2224 0.950 . S
H2199 C2226 0.950 . S
H2200 C2229 0.950 . S
H2201 C2230 0.950 . S
H2202 C2232 0.950 . S
H2203 C2233 0.950 . S
C2204 H2186 0.951 . S
C2204 C2205 1.366 . S
C2204 C2206 1.388 . S
C2205 C2204 1.366 . S
C2205 C2209 1.385 . S
C2206 H2187 0.951 . S
C2206 C2204 1.388 . S
C2206 C2207 1.366 . S
C2207 C2206 1.366 . S
C2207 C2208 1.414 . S
C2207 C2210 1.499 . S
C2208 H2188 0.950 . S
C2208 C2207 1.414 . S
C2208 C2209 1.374 . S
C2209 H2189 0.950 . S
C2209 C2205 1.385 . S
C2209 C2208 1.374 . S
C2210 C2207 1.499 . S
C2210 C2211 1.373 . S
C2210 C2212 1.389 . S
C2211 H2190 0.950 . S
C2211 C2210 1.373 . S
C2211 C2227 1.377 . S
C2212 C2210 1.389 . S
C2212 C2213 1.524 . S
C2212 C2226 1.377 . S
C2213 C2212 1.524 . S
C2213 C2214 1.397 . S
C2213 C2218 1.363 . S
C2214 H2191 0.950 . S
C2214 C2213 1.397 . S
C2214 C2215 1.334 . S
C2215 H2192 0.950 . S
C2215 C2214 1.334 . S
C2215 C2216 1.287 . S
C2216 C2215 1.287 . S
C2216 C2217 1.524 . S
C2216 H2235 0.913 . S
C2217 H2193 0.950 . S
C2217 C2216 1.524 . S
C2217 C2218 1.415 . S
C2218 H2194 0.950 . S
C2218 C2213 1.363 . S
C2218 C2217 1.415 . S
C2219 H2195 0.951 . S
C2219 C2220 1.366 . S
C2219 C2221 1.388 . S
C2220 C2219 1.366 . S
C2220 C2224 1.385 . S
C2221 H2196 0.951 . S
C2221 C2219 1.388 . S
C2221 C2222 1.366 . S
C2222 C2221 1.366 . S
C2222 C2223 1.414 . S
C2222 C2225 1.499 . S
C2223 H2197 0.950 . S
C2223 C2222 1.414 . S
C2223 C2224 1.374 . S
C2224 H2198 0.950 . S
C2224 C2220 1.385 . S
C2224 C2223 1.374 . S
C2225 C2222 1.499 . S
C2225 C2226 1.373 . S
C2225 C2227 1.389 . S
C2226 H2199 0.950 . S
C2226 C2212 1.377 . S
C2226 C2225 1.373 . S
C2227 C2211 1.377 . S
C2227 C2225 1.389 . S
C2227 C2228 1.524 . S
C2228 C2227 1.524 . S
C2228 C2229 1.397 . S
C2228 C2233 1.363 . S
C2229 H2200 0.950 . S
C2229 C2228 1.397 . S
C2229 C2230 1.334 . S
C2230 H2201 0.950 . S
C2230 C2229 1.334 . S
C2230 C2231 1.287 . S
C2231 C2230 1.287 . S
C2231 C2232 1.524 . S
C2231 H2234 0.999 . S
C2232 H2202 0.950 . S
C2232 C2231 1.524 . S
C2232 C2233 1.415 . S
C2233 H2203 0.950 . S
C2233 C2228 1.363 . S
C2233 C2232 1.415 . S
H2234 C2231 0.999 . S
H2235 C2216 0.913 . S
H2236 C2254 0.951 . S
H2237 C2256 0.951 . S
H2238 C2258 0.950 . S
H2239 C2259 0.950 . S
H2240 C2261 0.950 . S
H2241 C2264 0.950 . S
H2242 C2265 0.950 . S
H2243 C2267 0.950 . S
H2244 C2268 0.950 . S
H2245 C2269 0.951 . S
H2246 C2271 0.951 . S
H2247 C2273 0.950 . S
H2248 C2274 0.950 . S
H2249 C2276 0.950 . S
H2250 C2279 0.950 . S
H2251 C2280 0.950 . S
H2252 C2282 0.950 . S
H2253 C2283 0.950 . S
C2254 H2236 0.951 . S
C2254 C2255 1.366 . S
C2254 C2256 1.388 . S
C2255 C2254 1.366 . S
C2255 C2259 1.385 . S
C2256 H2237 0.951 . S
C2256 C2254 1.388 . S
C2256 C2257 1.366 . S
C2257 C2256 1.366 . S
C2257 C2258 1.414 . S
C2257 C2260 1.499 . S
C2258 H2238 0.950 . S
C2258 C2257 1.414 . S
C2258 C2259 1.374 . S
C2259 H2239 0.950 . S
C2259 C2255 1.385 . S
C2259 C2258 1.374 . S
C2260 C2257 1.499 . S
C2260 C2261 1.373 . S
C2260 C2262 1.389 . S
C2261 H2240 0.950 . S
C2261 C2260 1.373 . S
C2261 C2277 1.377 . S
C2262 C2260 1.389 . S
C2262 C2263 1.524 . S
C2262 C2276 1.377 . S
C2263 C2262 1.524 . S
C2263 C2264 1.397 . S
C2263 C2268 1.363 . S
C2264 H2241 0.950 . S
C2264 C2263 1.397 . S
C2264 C2265 1.334 . S
C2265 H2242 0.950 . S
C2265 C2264 1.334 . S
C2265 C2266 1.287 . S
C2266 C2265 1.287 . S
C2266 C2267 1.524 . S
C2266 H2285 0.913 . S
C2267 H2243 0.950 . S
C2267 C2266 1.524 . S
C2267 C2268 1.415 . S
C2268 H2244 0.950 . S
C2268 C2263 1.363 . S
C2268 C2267 1.415 . S
C2269 H2245 0.951 . S
C2269 C2270 1.366 . S
C2269 C2271 1.388 . S
C2270 C2269 1.366 . S
C2270 C2274 1.385 . S
C2271 H2246 0.951 . S
C2271 C2269 1.388 . S
C2271 C2272 1.366 . S
C2272 C2271 1.366 . S
C2272 C2273 1.414 . S
C2272 C2275 1.499 . S
C2273 H2247 0.950 . S
C2273 C2272 1.414 . S
C2273 C2274 1.374 . S
C2274 H2248 0.950 . S
C2274 C2270 1.385 . S
C2274 C2273 1.374 . S
C2275 C2272 1.499 . S
C2275 C2276 1.373 . S
C2275 C2277 1.389 . S
C2276 H2249 0.950 . S
C2276 C2262 1.377 . S
C2276 C2275 1.373 . S
C2277 C2261 1.377 . S
C2277 C2275 1.389 . S
C2277 C2278 1.524 . S
C2278 C2277 1.524 . S
C2278 C2279 1.397 . S
C2278 C2283 1.363 . S
C2279 H2250 0.950 . S
C2279 C2278 1.397 . S
C2279 C2280 1.334 . S
C2280 H2251 0.950 . S
C2280 C2279 1.334 . S
C2280 C2281 1.287 . S
C2281 C2280 1.287 . S
C2281 C2282 1.524 . S
C2281 H2284 0.999 . S
C2282 H2252 0.950 . S
C2282 C2281 1.524 . S
C2282 C2283 1.415 . S
C2283 H2253 0.950 . S
C2283 C2278 1.363 . S
C2283 C2282 1.415 . S
H2284 C2281 0.999 . S
H2285 C2266 0.913 . S
H2286 C2304 0.951 . S
H2287 C2306 0.951 . S
H2288 C2308 0.950 . S
H2289 C2309 0.950 . S
H2290 C2311 0.950 . S
H2291 C2314 0.950 . S
H2292 C2315 0.950 . S
H2293 C2317 0.950 . S
H2294 C2318 0.950 . S
H2295 C2319 0.951 . S
H2296 C2321 0.951 . S
H2297 C2323 0.950 . S
H2298 C2324 0.950 . S
H2299 C2326 0.950 . S
H2300 C2329 0.950 . S
H2301 C2330 0.950 . S
H2302 C2332 0.950 . S
H2303 C2333 0.950 . S
C2304 H2286 0.951 . S
C2304 C2305 1.366 . S
C2304 C2306 1.388 . S
C2305 C2304 1.366 . S
C2305 C2309 1.385 . S
C2306 H2287 0.951 . S
C2306 C2304 1.388 . S
C2306 C2307 1.366 . S
C2307 C2306 1.366 . S
C2307 C2308 1.414 . S
C2307 C2310 1.499 . S
C2308 H2288 0.950 . S
C2308 C2307 1.414 . S
C2308 C2309 1.374 . S
C2309 H2289 0.950 . S
C2309 C2305 1.385 . S
C2309 C2308 1.374 . S
C2310 C2307 1.499 . S
C2310 C2311 1.373 . S
C2310 C2312 1.389 . S
C2311 H2290 0.950 . S
C2311 C2310 1.373 . S
C2311 C2327 1.377 . S
C2312 C2310 1.389 . S
C2312 C2313 1.524 . S
C2312 C2326 1.377 . S
C2313 C2312 1.524 . S
C2313 C2314 1.397 . S
C2313 C2318 1.363 . S
C2314 H2291 0.950 . S
C2314 C2313 1.397 . S
C2314 C2315 1.334 . S
C2315 H2292 0.950 . S
C2315 C2314 1.334 . S
C2315 C2316 1.287 . S
C2316 C2315 1.287 . S
C2316 C2317 1.524 . S
C2316 H2335 0.913 . S
C2317 H2293 0.950 . S
C2317 C2316 1.524 . S
C2317 C2318 1.415 . S
C2318 H2294 0.950 . S
C2318 C2313 1.363 . S
C2318 C2317 1.415 . S
C2319 H2295 0.951 . S
C2319 C2320 1.366 . S
C2319 C2321 1.388 . S
C2320 C2319 1.366 . S
C2320 C2324 1.385 . S
C2321 H2296 0.951 . S
C2321 C2319 1.388 . S
C2321 C2322 1.366 . S
C2322 C2321 1.366 . S
C2322 C2323 1.414 . S
C2322 C2325 1.499 . S
C2323 H2297 0.950 . S
C2323 C2322 1.414 . S
C2323 C2324 1.374 . S
C2324 H2298 0.950 . S
C2324 C2320 1.385 . S
C2324 C2323 1.374 . S
C2325 C2322 1.499 . S
C2325 C2326 1.373 . S
C2325 C2327 1.389 . S
C2326 H2299 0.950 . S
C2326 C2312 1.377 . S
C2326 C2325 1.373 . S
C2327 C2311 1.377 . S
C2327 C2325 1.389 . S
C2327 C2328 1.524 . S
C2328 C2327 1.524 . S
C2328 C2329 1.397 . S
C2328 C2333 1.363 . S
C2329 H2300 0.950 . S
C2329 C2328 1.397 . S
C2329 C2330 1.334 . S
C2330 H2301 0.950 . S
C2330 C2329 1.334 . S
C2330 C2331 1.287 . S
C2331 C2330 1.287 . S
C2331 C2332 1.524 . S
C2331 H2334 0.999 . S
C2332 H2302 0.950 . S
C2332 C2331 1.524 . S
C2332 C2333 1.415 . S
C2333 H2303 0.950 . S
C2333 C2328 1.363 . S
C2333 C2332 1.415 . S
H2334 C2331 0.999 . S
H2335 C2316 0.913 . S
H2336 C2354 0.951 . S
H2337 C2356 0.951 . S
H2338 C2358 0.950 . S
H2339 C2359 0.950 . S
H2340 C2361 0.950 . S
H2341 C2364 0.950 . S
H2342 C2365 0.950 . S
H2343 C2367 0.950 . S
H2344 C2368 0.950 . S
H2345 C2369 0.951 . S
H2346 C2371 0.951 . S
H2347 C2373 0.950 . S
H2348 C2374 0.950 . S
H2349 C2376 0.950 . S
H2350 C2379 0.950 . S
H2351 C2380 0.950 . S
H2352 C2382 0.950 . S
H2353 C2383 0.950 . S
C2354 H2336 0.951 . S
C2354 C2355 1.366 . S
C2354 C2356 1.388 . S
C2355 C2354 1.366 . S
C2355 C2359 1.385 . S
C2356 H2337 0.951 . S
C2356 C2354 1.388 . S
C2356 C2357 1.366 . S
C2357 C2356 1.366 . S
C2357 C2358 1.414 . S
C2357 C2360 1.499 . S
C2358 H2338 0.950 . S
C2358 C2357 1.414 . S
C2358 C2359 1.374 . S
C2359 H2339 0.950 . S
C2359 C2355 1.385 . S
C2359 C2358 1.374 . S
C2360 C2357 1.499 . S
C2360 C2361 1.373 . S
C2360 C2362 1.389 . S
C2361 H2340 0.950 . S
C2361 C2360 1.373 . S
C2361 C2377 1.377 . S
C2362 C2360 1.389 . S
C2362 C2363 1.524 . S
C2362 C2376 1.377 . S
C2363 C2362 1.524 . S
C2363 C2364 1.397 . S
C2363 C2368 1.363 . S
C2364 H2341 0.950 . S
C2364 C2363 1.397 . S
C2364 C2365 1.334 . S
C2365 H2342 0.950 . S
C2365 C2364 1.334 . S
C2365 C2366 1.287 . S
C2366 C2365 1.287 . S
C2366 C2367 1.524 . S
C2366 H2385 0.913 . S
C2367 H2343 0.950 . S
C2367 C2366 1.524 . S
C2367 C2368 1.415 . S
C2368 H2344 0.950 . S
C2368 C2363 1.363 . S
C2368 C2367 1.415 . S
C2369 H2345 0.951 . S
C2369 C2370 1.366 . S
C2369 C2371 1.388 . S
C2370 C2369 1.366 . S
C2370 C2374 1.385 . S
C2371 H2346 0.951 . S
C2371 C2369 1.388 . S
C2371 C2372 1.366 . S
C2372 C2371 1.366 . S
C2372 C2373 1.414 . S
C2372 C2375 1.499 . S
C2373 H2347 0.950 . S
C2373 C2372 1.414 . S
C2373 C2374 1.374 . S
C2374 H2348 0.950 . S
C2374 C2370 1.385 . S
C2374 C2373 1.374 . S
C2375 C2372 1.499 . S
C2375 C2376 1.373 . S
C2375 C2377 1.389 . S
C2376 H2349 0.950 . S
C2376 C2362 1.377 . S
C2376 C2375 1.373 . S
C2377 C2361 1.377 . S
C2377 C2375 1.389 . S
C2377 C2378 1.524 . S
C2378 C2377 1.524 . S
C2378 C2379 1.397 . S
C2378 C2383 1.363 . S
C2379 H2350 0.950 . S
C2379 C2378 1.397 . S
C2379 C2380 1.334 . S
C2380 H2351 0.950 . S
C2380 C2379 1.334 . S
C2380 C2381 1.287 . S
C2381 C2380 1.287 . S
C2381 C2382 1.524 . S
C2381 H2384 0.999 . S
C2382 H2352 0.950 . S
C2382 C2381 1.524 . S
C2382 C2383 1.415 . S
C2383 H2353 0.950 . S
C2383 C2378 1.363 . S
C2383 C2382 1.415 . S
H2384 C2381 0.999 . S
H2385 C2366 0.913 . S
H2386 C2404 0.962 . S
H2387 C2406 0.951 1_545 S
H2388 C2408 0.950 . S
H2389 C2409 0.950 . S
H2390 C2411 0.950 . S
H2391 C2414 0.950 . S
H2392 C2415 0.950 . S
H2393 C2417 0.950 . S
H2394 C2418 0.950 . S
H2395 C2419 0.951 . S
H2396 C2421 0.951 . S
H2397 C2423 0.950 . S
H2398 C2424 0.950 . S
H2399 C2426 0.950 . S
H2400 C2429 0.950 . S
H2401 C2430 0.950 . S
H2402 C2432 0.962 . S
H2403 C2433 0.950 . S
C2404 H2386 0.962 . S
C2404 C2405 1.357 1_545 S
C2404 C2406 1.386 1_545 S
C2405 C2404 1.357 1_565 S
C2405 C2409 1.385 . S
C2406 H2387 0.951 1_565 S
C2406 C2404 1.386 1_565 S
C2406 C2407 1.366 . S
C2407 C2406 1.366 . S
C2407 C2408 1.414 . S
C2407 C2410 1.499 . S
C2408 H2388 0.950 . S
C2408 C2407 1.414 . S
C2408 C2409 1.374 . S
C2409 H2389 0.950 . S
C2409 C2405 1.385 . S
C2409 C2408 1.374 . S
C2410 C2407 1.499 . S
C2410 C2411 1.373 . S
C2410 C2412 1.389 . S
C2411 H2390 0.950 . S
C2411 C2410 1.373 . S
C2411 C2427 1.377 . S
C2412 C2410 1.389 . S
C2412 C2413 1.524 . S
C2412 C2426 1.377 . S
C2413 C2412 1.524 . S
C2413 C2414 1.397 . S
C2413 C2418 1.363 . S
C2414 H2391 0.950 . S
C2414 C2413 1.397 . S
C2414 C2415 1.334 . S
C2415 H2392 0.950 . S
C2415 C2414 1.334 . S
C2415 C2416 1.287 . S
C2416 C2415 1.287 . S
C2416 C2417 1.524 . S
C2416 H2435 0.913 . S
C2417 H2393 0.950 . S
C2417 C2416 1.524 . S
C2417 C2418 1.415 . S
C2418 H2394 0.950 . S
C2418 C2413 1.363 . S
C2418 C2417 1.415 . S
C2419 H2395 0.951 . S
C2419 C2420 1.366 . S
C2419 C2421 1.388 . S
C2420 C2419 1.366 . S
C2420 C2424 1.385 . S
C2421 H2396 0.951 . S
C2421 C2419 1.388 . S
C2421 C2422 1.366 . S
C2422 C2421 1.366 . S
C2422 C2423 1.414 . S
C2422 C2425 1.499 . S
C2423 H2397 0.950 . S
C2423 C2422 1.414 . S
C2423 C2424 1.374 . S
C2424 H2398 0.950 . S
C2424 C2420 1.385 . S
C2424 C2423 1.374 . S
C2425 C2422 1.499 . S
C2425 C2426 1.373 . S
C2425 C2427 1.389 . S
C2426 H2399 0.950 . S
C2426 C2412 1.377 . S
C2426 C2425 1.373 . S
C2427 C2411 1.377 . S
C2427 C2425 1.389 . S
C2427 C2428 1.524 . S
C2428 C2427 1.524 . S
C2428 C2429 1.397 1_565 S
C2428 C2433 1.363 . S
C2429 H2400 0.950 . S
C2429 C2428 1.397 1_545 S
C2429 C2430 1.334 . S
C2430 H2401 0.950 . S
C2430 C2429 1.334 . S
C2430 C2431 1.287 . S
C2431 C2430 1.287 . S
C2431 C2432 1.498 1_545 S
C2431 H2434 0.999 . S
C2432 H2402 0.962 . S
C2432 C2431 1.498 1_565 S
C2432 C2433 1.428 . S
C2433 H2403 0.950 . S
C2433 C2428 1.363 . S
C2433 C2432 1.428 . S
H2434 C2431 0.999 . S
H2435 C2416 0.913 . S
H2436 C2454 0.951 . S
H2437 C2456 0.951 . S
H2438 C2458 0.950 . S
H2439 C2459 0.950 . S
H2440 C2461 0.950 . S
H2441 C2464 0.950 . S
H2442 C2465 0.950 . S
H2443 C2467 0.950 . S
H2444 C2468 0.950 . S
H2445 C2469 0.951 . S
H2446 C2471 0.951 . S
H2447 C2473 0.950 . S
H2448 C2474 0.950 . S
H2449 C2476 0.950 . S
H2450 C2479 0.950 . S
H2451 C2480 0.950 . S
H2452 C2482 0.950 . S
H2453 C2483 0.950 . S
C2454 H2436 0.951 . S
C2454 C2455 1.366 . S
C2454 C2456 1.388 . S
C2455 C2454 1.366 . S
C2455 C2459 1.385 . S
C2456 H2437 0.951 . S
C2456 C2454 1.388 . S
C2456 C2457 1.366 . S
C2457 C2456 1.366 . S
C2457 C2458 1.414 . S
C2457 C2460 1.499 . S
C2458 H2438 0.950 . S
C2458 C2457 1.414 . S
C2458 C2459 1.374 . S
C2459 H2439 0.950 . S
C2459 C2455 1.385 . S
C2459 C2458 1.374 . S
C2460 C2457 1.499 . S
C2460 C2461 1.373 . S
C2460 C2462 1.389 . S
C2461 H2440 0.950 . S
C2461 C2460 1.373 . S
C2461 C2477 1.377 . S
C2462 C2460 1.389 . S
C2462 C2463 1.524 . S
C2462 C2476 1.377 . S
C2463 C2462 1.524 . S
C2463 C2464 1.397 . S
C2463 C2468 1.363 . S
C2464 H2441 0.950 . S
C2464 C2463 1.397 . S
C2464 C2465 1.334 . S
C2465 H2442 0.950 . S
C2465 C2464 1.334 . S
C2465 C2466 1.287 . S
C2466 C2465 1.287 . S
C2466 C2467 1.524 . S
C2466 H2485 0.913 . S
C2467 H2443 0.950 . S
C2467 C2466 1.524 . S
C2467 C2468 1.415 . S
C2468 H2444 0.950 . S
C2468 C2463 1.363 . S
C2468 C2467 1.415 . S
C2469 H2445 0.951 . S
C2469 C2470 1.366 . S
C2469 C2471 1.388 . S
C2470 C2469 1.366 . S
C2470 C2474 1.385 . S
C2471 H2446 0.951 . S
C2471 C2469 1.388 . S
C2471 C2472 1.366 . S
C2472 C2471 1.366 . S
C2472 C2473 1.414 . S
C2472 C2475 1.499 . S
C2473 H2447 0.950 . S
C2473 C2472 1.414 . S
C2473 C2474 1.374 . S
C2474 H2448 0.950 . S
C2474 C2470 1.385 . S
C2474 C2473 1.374 . S
C2475 C2472 1.499 . S
C2475 C2476 1.373 . S
C2475 C2477 1.389 . S
C2476 H2449 0.950 . S
C2476 C2462 1.377 . S
C2476 C2475 1.373 . S
C2477 C2461 1.377 . S
C2477 C2475 1.389 . S
C2477 C2478 1.524 . S
C2478 C2477 1.524 . S
C2478 C2479 1.397 . S
C2478 C2483 1.363 . S
C2479 H2450 0.950 . S
C2479 C2478 1.397 . S
C2479 C2480 1.334 . S
C2480 H2451 0.950 . S
C2480 C2479 1.334 . S
C2480 C2481 1.287 . S
C2481 C2480 1.287 . S
C2481 C2482 1.524 . S
C2481 H2484 0.999 . S
C2482 H2452 0.950 . S
C2482 C2481 1.524 . S
C2482 C2483 1.415 . S
C2483 H2453 0.950 . S
C2483 C2478 1.363 . S
C2483 C2482 1.415 . S
H2484 C2481 0.999 . S
H2485 C2466 0.913 . S
H2486 C2504 0.951 . S
H2487 C2506 0.951 . S
H2488 C2508 0.950 . S
H2489 C2509 0.950 . S
H2490 C2511 0.950 . S
H2491 C2514 0.950 . S
H2492 C2515 0.950 . S
H2493 C2517 0.950 . S
H2494 C2518 0.950 . S
H2495 C2519 0.951 . S
H2496 C2521 0.951 . S
H2497 C2523 0.950 . S
H2498 C2524 0.950 . S
H2499 C2526 0.955 . S
H2500 C2529 0.950 . S
H2501 C2530 0.950 . S
H2502 C2532 0.950 . S
H2503 C2533 0.950 . S
C2504 H2486 0.951 . S
C2504 C2505 1.366 . S
C2504 C2506 1.388 . S
C2505 C2504 1.366 . S
C2505 C2509 1.385 . S
C2506 H2487 0.951 . S
C2506 C2504 1.388 . S
C2506 C2507 1.366 . S
C2507 C2506 1.366 . S
C2507 C2508 1.414 . S
C2507 C2510 1.499 . S
C2508 H2488 0.950 . S
C2508 C2507 1.414 . S
C2508 C2509 1.374 . S
C2509 H2489 0.950 . S
C2509 C2505 1.385 . S
C2509 C2508 1.374 . S
C2510 C2507 1.499 . S
C2510 C2511 1.373 . S
C2510 C2512 1.389 . S
C2511 H2490 0.950 . S
C2511 C2510 1.373 . S
C2511 C2527 1.377 . S
C2512 C2510 1.389 . S
C2512 C2513 1.524 1_545 S
C2512 C2526 1.377 . S
C2513 C2512 1.524 1_565 S
C2513 C2514 1.397 . S
C2513 C2518 1.363 . S
C2514 H2491 0.950 . S
C2514 C2513 1.397 . S
C2514 C2515 1.334 . S
C2515 H2492 0.950 . S
C2515 C2514 1.334 . S
C2515 C2516 1.287 . S
C2516 C2515 1.287 . S
C2516 C2517 1.524 . S
C2516 H2535 0.913 . S
C2517 H2493 0.950 . S
C2517 C2516 1.524 . S
C2517 C2518 1.415 . S
C2518 H2494 0.950 . S
C2518 C2513 1.363 . S
C2518 C2517 1.415 . S
C2519 H2495 0.951 . S
C2519 C2520 1.366 . S
C2519 C2521 1.388 . S
C2520 C2519 1.366 . S
C2520 C2524 1.385 . S
C2521 H2496 0.951 . S
C2521 C2519 1.388 . S
C2521 C2522 1.366 . S
C2522 C2521 1.366 . S
C2522 C2523 1.414 . S
C2522 C2525 1.499 . S
C2523 H2497 0.950 . S
C2523 C2522 1.414 . S
C2523 C2524 1.374 . S
C2524 H2498 0.950 . S
C2524 C2520 1.385 . S
C2524 C2523 1.374 . S
C2525 C2522 1.499 . S
C2525 C2526 1.373 . S
C2525 C2527 1.389 . S
C2526 H2499 0.955 . S
C2526 C2512 1.377 . S
C2526 C2525 1.373 . S
C2527 C2511 1.377 . S
C2527 C2525 1.389 . S
C2527 C2528 1.524 . S
C2528 C2527 1.524 . S
C2528 C2529 1.397 . S
C2528 C2533 1.363 . S
C2529 H2500 0.950 . S
C2529 C2528 1.397 . S
C2529 C2530 1.334 . S
C2530 H2501 0.950 . S
C2530 C2529 1.334 . S
C2530 C2531 1.287 . S
C2531 C2530 1.287 . S
C2531 C2532 1.524 . S
C2531 H2534 0.999 . S
C2532 H2502 0.950 . S
C2532 C2531 1.524 . S
C2532 C2533 1.415 . S
C2533 H2503 0.950 . S
C2533 C2528 1.363 . S
C2533 C2532 1.415 . S
H2534 C2531 0.999 . S
H2535 C2516 0.913 . S
H2536 C2554 0.951 . S
H2537 C2556 0.951 . S
H2538 C2558 0.950 . S
H2539 C2559 0.950 . S
H2540 C2561 0.950 . S
H2541 C2564 0.950 . S
H2542 C2565 0.950 . S
H2543 C2567 0.950 . S
H2544 C2568 0.950 . S
H2545 C2569 0.951 . S
H2546 C2571 0.951 . S
H2547 C2573 0.950 . S
H2548 C2574 0.950 . S
H2549 C2576 0.950 . S
H2550 C2579 0.950 . S
H2551 C2580 0.950 . S
H2552 C2582 0.950 . S
H2553 C2583 0.950 . S
C2554 H2536 0.951 . S
C2554 C2555 1.366 . S
C2554 C2556 1.388 . S
C2555 C2554 1.366 . S
C2555 C2559 1.385 . S
C2556 H2537 0.951 . S
C2556 C2554 1.388 . S
C2556 C2557 1.366 . S
C2557 C2556 1.366 . S
C2557 C2558 1.414 . S
C2557 C2560 1.499 . S
C2558 H2538 0.950 . S
C2558 C2557 1.414 . S
C2558 C2559 1.374 . S
C2559 H2539 0.950 . S
C2559 C2555 1.385 . S
C2559 C2558 1.374 . S
C2560 C2557 1.499 . S
C2560 C2561 1.373 . S
C2560 C2562 1.389 . S
C2561 H2540 0.950 . S
C2561 C2560 1.373 . S
C2561 C2577 1.377 . S
C2562 C2560 1.389 . S
C2562 C2563 1.524 . S
C2562 C2576 1.377 . S
C2563 C2562 1.524 . S
C2563 C2564 1.397 . S
C2563 C2568 1.363 . S
C2564 H2541 0.950 . S
C2564 C2563 1.397 . S
C2564 C2565 1.334 . S
C2565 H2542 0.950 . S
C2565 C2564 1.334 . S
C2565 C2566 1.287 . S
C2566 C2565 1.287 . S
C2566 C2567 1.524 . S
C2566 H2585 0.913 . S
C2567 H2543 0.950 . S
C2567 C2566 1.524 . S
C2567 C2568 1.415 . S
C2568 H2544 0.950 . S
C2568 C2563 1.363 . S
C2568 C2567 1.415 . S
C2569 H2545 0.951 . S
C2569 C2570 1.366 . S
C2569 C2571 1.388 . S
C2570 C2569 1.366 . S
C2570 C2574 1.385 . S
C2571 H2546 0.951 . S
C2571 C2569 1.388 . S
C2571 C2572 1.366 . S
C2572 C2571 1.366 . S
C2572 C2573 1.414 . S
C2572 C2575 1.499 . S
C2573 H2547 0.950 . S
C2573 C2572 1.414 . S
C2573 C2574 1.374 . S
C2574 H2548 0.950 . S
C2574 C2570 1.385 . S
C2574 C2573 1.374 . S
C2575 C2572 1.499 . S
C2575 C2576 1.373 . S
C2575 C2577 1.389 . S
C2576 H2549 0.950 . S
C2576 C2562 1.377 . S
C2576 C2575 1.373 . S
C2577 C2561 1.377 . S
C2577 C2575 1.389 . S
C2577 C2578 1.524 . S
C2578 C2577 1.524 . S
C2578 C2579 1.397 . S
C2578 C2583 1.363 . S
C2579 H2550 0.950 . S
C2579 C2578 1.397 . S
C2579 C2580 1.334 . S
C2580 H2551 0.950 . S
C2580 C2579 1.334 . S
C2580 C2581 1.287 . S
C2581 C2580 1.287 . S
C2581 C2582 1.524 . S
C2581 H2584 0.999 . S
C2582 H2552 0.950 . S
C2582 C2581 1.524 . S
C2582 C2583 1.415 . S
C2583 H2553 0.950 . S
C2583 C2578 1.363 . S
C2583 C2582 1.415 . S
H2584 C2581 0.999 . S
H2585 C2566 0.913 . S
H2586 C2604 0.951 . S
H2587 C2606 0.951 . S
H2588 C2608 0.950 . S
H2589 C2609 0.950 . S
H2590 C2611 0.950 . S
H2591 C2614 0.950 . S
H2592 C2615 0.950 . S
H2593 C2617 0.950 . S
H2594 C2618 0.950 . S
H2595 C2619 0.951 . S
H2596 C2621 0.951 . S
H2597 C2623 0.950 1_554 S
H2598 C2624 0.950 1_554 S
H2599 C2626 0.950 . S
H2600 C2629 0.950 1_554 S
H2601 C2630 0.950 1_554 S
H2602 C2632 0.950 . S
H2603 C2633 0.950 . S
C2604 H2586 0.951 . S
C2604 C2605 1.366 1_554 S
C2604 C2606 1.388 . S
C2605 C2604 1.366 1_556 S
C2605 C2609 1.385 . S
C2606 H2587 0.951 . S
C2606 C2604 1.388 . S
C2606 C2607 1.366 1_554 S
C2607 C2606 1.366 1_556 S
C2607 C2608 1.414 . S
C2607 C2610 1.499 . S
C2608 H2588 0.950 . S
C2608 C2607 1.414 . S
C2608 C2609 1.374 . S
C2609 H2589 0.950 . S
C2609 C2605 1.385 . S
C2609 C2608 1.374 . S
C2610 C2607 1.499 . S
C2610 C2611 1.373 . S
C2610 C2612 1.389 . S
C2611 H2590 0.950 . S
C2611 C2610 1.373 . S
C2611 C2627 1.377 . S
C2612 C2610 1.389 . S
C2612 C2613 1.524 . S
C2612 C2626 1.377 . S
C2613 C2612 1.524 . S
C2613 C2614 1.397 . S
C2613 C2618 1.363 1_556 S
C2614 H2591 0.950 . S
C2614 C2613 1.397 . S
C2614 C2615 1.334 . S
C2615 H2592 0.950 . S
C2615 C2614 1.334 . S
C2615 C2616 1.287 . S
C2616 C2615 1.287 . S
C2616 C2617 1.524 1_556 S
C2616 H2635 0.913 . S
C2617 H2593 0.950 . S
C2617 C2616 1.524 1_554 S
C2617 C2618 1.415 . S
C2618 H2594 0.950 . S
C2618 C2613 1.363 1_554 S
C2618 C2617 1.415 . S
C2619 H2595 0.951 . S
C2619 C2620 1.366 . S
C2619 C2621 1.388 . S
C2620 C2619 1.366 . S
C2620 C2624 1.385 . S
C2621 H2596 0.951 . S
C2621 C2619 1.388 . S
C2621 C2622 1.366 . S
C2622 C2621 1.366 . S
C2622 C2623 1.414 . S
C2622 C2625 1.499 . S
C2623 H2597 0.950 1_556 S
C2623 C2622 1.414 . S
C2623 C2624 1.374 . S
C2624 H2598 0.950 1_556 S
C2624 C2620 1.385 . S
C2624 C2623 1.374 . S
C2625 C2622 1.499 . S
C2625 C2626 1.373 . S
C2625 C2627 1.389 . S
C2626 H2599 0.950 . S
C2626 C2612 1.377 . S
C2626 C2625 1.373 . S
C2627 C2611 1.377 . S
C2627 C2625 1.389 . S
C2627 C2628 1.524 . S
C2628 C2627 1.524 . S
C2628 C2629 1.397 . S
C2628 C2633 1.363 . S
C2629 H2600 0.950 1_556 S
C2629 C2628 1.397 . S
C2629 C2630 1.334 . S
C2630 H2601 0.950 1_556 S
C2630 C2629 1.334 . S
C2630 C2631 1.287 . S
C2631 C2630 1.287 . S
C2631 C2632 1.524 . S
C2631 H2634 0.999 . S
C2632 H2602 0.950 . S
C2632 C2631 1.524 . S
C2632 C2633 1.415 . S
C2633 H2603 0.950 . S
C2633 C2628 1.363 . S
C2633 C2632 1.415 . S
H2634 C2631 0.999 . S
H2635 C2616 0.913 . S
H2636 C2654 0.951 . S
H2637 C2656 0.951 . S
H2638 C2658 0.950 . S
H2639 C2659 0.950 . S
H2640 C2661 0.950 . S
H2641 C2664 0.950 . S
H2642 C2665 0.950 . S
H2643 C2667 0.950 . S
H2644 C2668 0.950 . S
H2645 C2669 0.919 1_554 S
H2646 C2671 0.951 . S
H2647 C2673 0.950 . S
H2648 C2674 0.950 . S
H2649 C2676 0.950 . S
H2650 C2679 0.950 1_556 S
H2651 C2680 0.950 . S
H2652 C2682 0.950 . S
H2653 C2683 0.950 . S
C2654 H2636 0.951 . S
C2654 C2655 1.366 . S
C2654 C2656 1.388 . S
C2655 C2654 1.366 . S
C2655 C2659 1.385 1_556 S
C2656 H2637 0.951 . S
C2656 C2654 1.388 . S
C2656 C2657 1.366 . S
C2657 C2656 1.366 . S
C2657 C2658 1.414 1_556 S
C2657 C2660 1.499 . S
C2658 H2638 0.950 . S
C2658 C2657 1.414 1_554 S
C2658 C2659 1.374 . S
C2659 H2639 0.950 . S
C2659 C2655 1.385 1_554 S
C2659 C2658 1.374 . S
C2660 C2657 1.499 . S
C2660 C2661 1.373 1_556 S
C2660 C2662 1.389 . S
C2661 H2640 0.950 . S
C2661 C2660 1.373 1_554 S
C2661 C2677 1.377 . S
C2662 C2660 1.389 . S
C2662 C2663 1.524 . S
C2662 C2676 1.377 . S
C2663 C2662 1.524 . S
C2663 C2664 1.397 . S
C2663 C2668 1.363 . S
C2664 H2641 0.950 . S
C2664 C2663 1.397 . S
C2664 C2665 1.334 . S
C2665 H2642 0.950 . S
C2665 C2664 1.334 . S
C2665 C2666 1.287 . S
C2666 C2665 1.287 . S
C2666 C2667 1.524 . S
C2666 H2685 0.913 . S
C2667 H2643 0.950 . S
C2667 C2666 1.524 . S
C2667 C2668 1.415 . S
C2668 H2644 0.950 . S
C2668 C2663 1.363 . S
C2668 C2667 1.415 . S
C2669 H2645 0.919 1_556 S
C2669 C2670 1.401 . S
C2669 C2671 1.385 1_556 S
C2670 C2669 1.401 . S
C2670 C2674 1.385 . S
C2671 H2646 0.951 . S
C2671 C2669 1.385 1_554 S
C2671 C2672 1.366 1_554 S
C2672 C2671 1.366 1_556 S
C2672 C2673 1.414 . S
C2672 C2675 1.499 . S
C2673 H2647 0.950 . S
C2673 C2672 1.414 . S
C2673 C2674 1.374 . S
C2674 H2648 0.950 . S
C2674 C2670 1.385 . S
C2674 C2673 1.374 . S
C2675 C2672 1.499 . S
C2675 C2676 1.373 . S
C2675 C2677 1.389 1_556 S
C2676 H2649 0.950 . S
C2676 C2662 1.377 . S
C2676 C2675 1.373 . S
C2677 C2661 1.377 . S
C2677 C2675 1.389 1_554 S
C2677 C2678 1.524 . S
C2678 C2677 1.524 . S
C2678 C2679 1.397 . S
C2678 C2683 1.363 . S
C2679 H2650 0.950 1_554 S
C2679 C2678 1.397 . S
C2679 C2680 1.334 . S
C2680 H2651 0.950 . S
C2680 C2679 1.334 . S
C2680 C2681 1.287 . S
C2681 C2680 1.287 . S
C2681 C2682 1.524 . S
C2681 H2684 0.999 . S
C2682 H2652 0.950 . S
C2682 C2681 1.524 . S
C2682 C2683 1.415 . S
C2683 H2653 0.950 . S
C2683 C2678 1.363 . S
C2683 C2682 1.415 . S
H2684 C2681 0.999 . S
H2685 C2666 0.913 . S
H2686 C2704 0.951 . S
H2687 C2706 0.951 . S
H2688 C2708 0.950 . S
H2689 C2709 0.950 . S
H2690 C2711 0.950 . S
H2691 C2714 0.950 . S
H2692 C2715 0.950 . S
H2693 C2717 0.950 . S
H2694 C2718 0.950 . S
H2695 C2719 0.951 . S
H2696 C2721 0.951 . S
H2697 C2723 0.950 1_556 S
H2698 C2724 0.950 1_556 S
H2699 C2726 0.950 1_556 S
H2700 C2729 0.950 . S
H2701 C2730 0.950 . S
H2702 C2732 0.950 . S
H2703 C2733 0.950 . S
C2704 H2686 0.951 . S
C2704 C2705 1.366 1_556 S
C2704 C2706 1.388 . S
C2705 C2704 1.366 1_554 S
C2705 C2709 1.385 . S
C2706 H2687 0.951 . S
C2706 C2704 1.388 . S
C2706 C2707 1.366 1_556 S
C2707 C2706 1.366 1_554 S
C2707 C2708 1.414 . S
C2707 C2710 1.499 . S
C2708 H2688 0.950 . S
C2708 C2707 1.414 . S
C2708 C2709 1.374 . S
C2709 H2689 0.950 . S
C2709 C2705 1.385 . S
C2709 C2708 1.374 . S
C2710 C2707 1.499 . S
C2710 C2711 1.373 . S
C2710 C2712 1.359 1_554 S
C2711 H2690 0.950 . S
C2711 C2710 1.373 . S
C2711 C2727 1.377 . S
C2712 C2710 1.359 1_556 S
C2712 C2713 1.560 . S
C2712 C2726 1.373 1_556 S
C2713 C2712 1.560 . S
C2713 C2714 1.397 . S
C2713 C2718 1.363 . S
C2714 H2691 0.950 . S
C2714 C2713 1.397 . S
C2714 C2715 1.334 . S
C2715 H2692 0.950 . S
C2715 C2714 1.334 . S
C2715 C2716 1.287 . S
C2716 C2715 1.287 . S
C2716 C2717 1.524 . S
C2716 H2735 0.913 . S
C2717 H2693 0.950 . S
C2717 C2716 1.524 . S
C2717 C2718 1.415 . S
C2718 H2694 0.950 . S
C2718 C2713 1.363 . S
C2718 C2717 1.415 . S
C2719 H2695 0.951 . S
C2719 C2720 1.366 . S
C2719 C2721 1.388 . S
C2720 C2719 1.366 . S
C2720 C2724 1.385 . S
C2721 H2696 0.951 . S
C2721 C2719 1.388 . S
C2721 C2722 1.366 . S
C2722 C2721 1.366 . S
C2722 C2723 1.414 . S
C2722 C2725 1.499 . S
C2723 H2697 0.950 1_554 S
C2723 C2722 1.414 . S
C2723 C2724 1.374 . S
C2724 H2698 0.950 1_554 S
C2724 C2720 1.385 . S
C2724 C2723 1.374 . S
C2725 C2722 1.499 . S
C2725 C2726 1.373 . S
C2725 C2727 1.389 . S
C2726 H2699 0.950 1_554 S
C2726 C2712 1.373 1_554 S
C2726 C2725 1.373 . S
C2727 C2711 1.377 . S
C2727 C2725 1.389 . S
C2727 C2728 1.524 . S
C2728 C2727 1.524 . S
C2728 C2729 1.397 . S
C2728 C2733 1.363 . S
C2729 H2700 0.950 . S
C2729 C2728 1.397 . S
C2729 C2730 1.334 . S
C2730 H2701 0.950 . S
C2730 C2729 1.334 . S
C2730 C2731 1.287 . S
C2731 C2730 1.287 . S
C2731 C2732 1.524 . S
C2731 H2734 0.999 . S
C2732 H2702 0.950 . S
C2732 C2731 1.524 . S
C2732 C2733 1.415 . S
C2733 H2703 0.950 . S
C2733 C2728 1.363 . S
C2733 C2732 1.415 . S
H2734 C2731 0.999 . S
H2735 C2716 0.913 . S
C355 C13 1.600 . S
C370 C229 1.542 . S
C420 C234 1.560 . S
C405 C1 1.616 . S
C470 C172 1.554 1_565 S
C455 C27 1.618 . S
C505 C15 1.568 . S
C520 C196 1.504 . S
C555 C28 1.581 . S
C570 C334 1.525 . S
C605 C55 1.578 . S
C620 C301 1.517 . S
C670 C255 1.564 . S
C655 C40 1.622 1_565 S
C705 C43 1.644 . S
C720 C289 1.584 . S
C770 C208 1.564 . S
C755 C56 1.621 . S
C820 C235 1.506 . S
C805 C83 1.568 . S
C855 C96 1.611 . S
C870 C226 1.553 1_655 S
C905 C71 1.618 . S
C920 C292 1.558 . S
C970 C313 1.543 . S
C955 C99 1.600 . S
C1020 C331 1.559 1_565 S
C1005 C111 1.616 . S
C1055 C113 1.618 . S
C1070 C280 1.553 . S
C1120 C256 1.505 . S
C1105 C125 1.568 . S
C1155 C139 1.582 . S
C1170 C251 1.526 . S
C1205 C153 1.578 . S
C1220 C217 1.516 . S
C1270 C205 1.563 1_556 S
C1255 C127 1.622 . S
C1305 C141 1.643 . S
C1320 C171 1.584 1_556 S
C1370 C272 1.564 . S
C1355 C84 1.622 . S
C1420 C322 1.507 . S
C1405 C154 1.568 . S
C1455 C68 1.611 . S
C1470 C310 1.554 . S
C1505 C166 1.618 . S
C1520 C188 1.558 . S
C1570 C187 1.033 . S
C1555 C0 1.193 . S
C1605 C12 1.180 . S
C1620 C209 1.025 . S
C1670 C214 1.033 . S
C1655 C14 1.194 . S
C1720 C247 1.073 . S
C1705 C26 1.236 . S
C1755 C41 1.226 . S
C1770 C184 1.064 . S
C1805 C42 1.242 . S
C1820 C192 1.076 . S
C1870 C230 1.029 . S
C1855 C29 1.180 1_565 S
C1905 C54 1.181 . S
C1920 C238 1.022 . S
C1955 C69 1.187 . S
C1970 C175 1.025 . S
C2020 C213 1.070 . S
C2005 C70 1.230 . S
C2055 C85 1.181 . S
C2070 C250 1.028 . S
C2105 C82 1.182 . S
C2120 C259 1.022 . S
C2170 C293 1.033 . S
C2155 C110 1.193 . S
C2205 C98 1.180 . S
C2220 C271 1.027 . S
C2255 C124 1.195 . S
C2270 C298 1.032 . S
C2305 C112 1.235 . S
C2320 C318 1.073 . S
C2355 C126 1.227 . S
C2370 C276 1.067 . S
C2420 C268 1.076 . S
C2405 C140 1.242 . S
C2455 C138 1.181 . S
C2470 C314 1.029 . S
C2520 C319 1.025 . S
C2505 C152 1.181 . S
C2570 C277 1.026 . S
C2555 C97 1.187 . S
C2620 C297 1.068 . S
C2605 C167 1.230 . S
C2670 C335 1.027 . S
C2655 C57 1.182 . S
C2705 C155 1.181 . S
C2720 C193 1.020 . S
