# Generated by pormake.
# Topology ctn, (3,4)-cn, num edge types: 1
# Building blocks:
#     Node 0, Type 0, BuildingBlock: OLANEW_clean_sbu_2, # of connection points: 3
#     Node 1, Type 0, BuildingBlock: OLANEW_clean_sbu_2, # of connection points: 3
#     Node 2, Type 0, BuildingBlock: OLANEW_clean_sbu_2, # of connection points: 3
#     Node 3, Type 0, BuildingBlock: OLANEW_clean_sbu_2, # of connection points: 3
#     Node 4, Type 0, BuildingBlock: OLANEW_clean_sbu_2, # of connection points: 3
#     Node 5, Type 0, BuildingBlock: OLANEW_clean_sbu_2, # of connection points: 3
#     Node 6, Type 0, BuildingBlock: OLANEW_clean_sbu_2, # of connection points: 3
#     Node 7, Type 0, BuildingBlock: OLANEW_clean_sbu_2, # of connection points: 3
#     Node 8, Type 0, BuildingBlock: OLANEW_clean_sbu_2, # of connection points: 3
#     Node 9, Type 0, BuildingBlock: OLANEW_clean_sbu_2, # of connection points: 3
#     Node 10, Type 0, BuildingBlock: OLANEW_clean_sbu_2, # of connection points: 3
#     Node 11, Type 0, BuildingBlock: OLANEW_clean_sbu_2, # of connection points: 3
#     Node 12, Type 0, BuildingBlock: OLANEW_clean_sbu_2, # of connection points: 3
#     Node 13, Type 0, BuildingBlock: OLANEW_clean_sbu_2, # of connection points: 3
#     Node 14, Type 0, BuildingBlock: OLANEW_clean_sbu_2, # of connection points: 3
#     Node 15, Type 0, BuildingBlock: OLANEW_clean_sbu_2, # of connection points: 3
#     Node 16, Type 1, BuildingBlock: NAHDIM_clean_sbu_0, # of connection points: 4
#     Node 17, Type 1, BuildingBlock: NAHDIM_clean_sbu_0, # of connection points: 4
#     Node 18, Type 1, BuildingBlock: NAHDIM_clean_sbu_0, # of connection points: 4
#     Node 19, Type 1, BuildingBlock: NAHDIM_clean_sbu_0, # of connection points: 4
#     Node 20, Type 1, BuildingBlock: NAHDIM_clean_sbu_0, # of connection points: 4
#     Node 21, Type 1, BuildingBlock: NAHDIM_clean_sbu_0, # of connection points: 4
#     Node 22, Type 1, BuildingBlock: NAHDIM_clean_sbu_0, # of connection points: 4
#     Node 23, Type 1, BuildingBlock: NAHDIM_clean_sbu_0, # of connection points: 4
#     Node 24, Type 1, BuildingBlock: NAHDIM_clean_sbu_0, # of connection points: 4
#     Node 25, Type 1, BuildingBlock: NAHDIM_clean_sbu_0, # of connection points: 4
#     Node 26, Type 1, BuildingBlock: NAHDIM_clean_sbu_0, # of connection points: 4
#     Node 27, Type 1, BuildingBlock: NAHDIM_clean_sbu_0, # of connection points: 4
#     Edge 28, Type (0, 1), BuildingBlock: AJUNOK_clean_linker_0, # of connection points: 2
#     Edge 29, Type (0, 1), BuildingBlock: AJUNOK_clean_linker_0, # of connection points: 2
#     Edge 30, Type (0, 1), BuildingBlock: AJUNOK_clean_linker_0, # of connection points: 2
#     Edge 31, Type (0, 1), BuildingBlock: AJUNOK_clean_linker_0, # of connection points: 2
#     Edge 32, Type (0, 1), BuildingBlock: AJUNOK_clean_linker_0, # of connection points: 2
#     Edge 33, Type (0, 1), BuildingBlock: AJUNOK_clean_linker_0, # of connection points: 2
#     Edge 34, Type (0, 1), BuildingBlock: AJUNOK_clean_linker_0, # of connection points: 2
#     Edge 35, Type (0, 1), BuildingBlock: AJUNOK_clean_linker_0, # of connection points: 2
#     Edge 36, Type (0, 1), BuildingBlock: AJUNOK_clean_linker_0, # of connection points: 2
#     Edge 37, Type (0, 1), BuildingBlock: AJUNOK_clean_linker_0, # of connection points: 2
#     Edge 38, Type (0, 1), BuildingBlock: AJUNOK_clean_linker_0, # of connection points: 2
#     Edge 39, Type (0, 1), BuildingBlock: AJUNOK_clean_linker_0, # of connection points: 2
#     Edge 40, Type (0, 1), BuildingBlock: AJUNOK_clean_linker_0, # of connection points: 2
#     Edge 41, Type (0, 1), BuildingBlock: AJUNOK_clean_linker_0, # of connection points: 2
#     Edge 42, Type (0, 1), BuildingBlock: AJUNOK_clean_linker_0, # of connection points: 2
#     Edge 43, Type (0, 1), BuildingBlock: AJUNOK_clean_linker_0, # of connection points: 2
#     Edge 44, Type (0, 1), BuildingBlock: AJUNOK_clean_linker_0, # of connection points: 2
#     Edge 45, Type (0, 1), BuildingBlock: AJUNOK_clean_linker_0, # of connection points: 2
#     Edge 46, Type (0, 1), BuildingBlock: AJUNOK_clean_linker_0, # of connection points: 2
#     Edge 47, Type (0, 1), BuildingBlock: AJUNOK_clean_linker_0, # of connection points: 2
#     Edge 48, Type (0, 1), BuildingBlock: AJUNOK_clean_linker_0, # of connection points: 2
#     Edge 49, Type (0, 1), BuildingBlock: AJUNOK_clean_linker_0, # of connection points: 2
#     Edge 50, Type (0, 1), BuildingBlock: AJUNOK_clean_linker_0, # of connection points: 2
#     Edge 51, Type (0, 1), BuildingBlock: AJUNOK_clean_linker_0, # of connection points: 2
#     Edge 52, Type (0, 1), BuildingBlock: AJUNOK_clean_linker_0, # of connection points: 2
#     Edge 53, Type (0, 1), BuildingBlock: AJUNOK_clean_linker_0, # of connection points: 2
#     Edge 54, Type (0, 1), BuildingBlock: AJUNOK_clean_linker_0, # of connection points: 2
#     Edge 55, Type (0, 1), BuildingBlock: AJUNOK_clean_linker_0, # of connection points: 2
#     Edge 56, Type (0, 1), BuildingBlock: AJUNOK_clean_linker_0, # of connection points: 2
#     Edge 57, Type (0, 1), BuildingBlock: AJUNOK_clean_linker_0, # of connection points: 2
#     Edge 58, Type (0, 1), BuildingBlock: AJUNOK_clean_linker_0, # of connection points: 2
#     Edge 59, Type (0, 1), BuildingBlock: AJUNOK_clean_linker_0, # of connection points: 2
#     Edge 60, Type (0, 1), BuildingBlock: AJUNOK_clean_linker_0, # of connection points: 2
#     Edge 61, Type (0, 1), BuildingBlock: AJUNOK_clean_linker_0, # of connection points: 2
#     Edge 62, Type (0, 1), BuildingBlock: AJUNOK_clean_linker_0, # of connection points: 2
#     Edge 63, Type (0, 1), BuildingBlock: AJUNOK_clean_linker_0, # of connection points: 2
#     Edge 64, Type (0, 1), BuildingBlock: AJUNOK_clean_linker_0, # of connection points: 2
#     Edge 65, Type (0, 1), BuildingBlock: AJUNOK_clean_linker_0, # of connection points: 2
#     Edge 66, Type (0, 1), BuildingBlock: AJUNOK_clean_linker_0, # of connection points: 2
#     Edge 67, Type (0, 1), BuildingBlock: AJUNOK_clean_linker_0, # of connection points: 2
#     Edge 68, Type (0, 1), BuildingBlock: AJUNOK_clean_linker_0, # of connection points: 2
#     Edge 69, Type (0, 1), BuildingBlock: AJUNOK_clean_linker_0, # of connection points: 2
#     Edge 70, Type (0, 1), BuildingBlock: AJUNOK_clean_linker_0, # of connection points: 2
#     Edge 71, Type (0, 1), BuildingBlock: AJUNOK_clean_linker_0, # of connection points: 2
#     Edge 72, Type (0, 1), BuildingBlock: AJUNOK_clean_linker_0, # of connection points: 2
#     Edge 73, Type (0, 1), BuildingBlock: AJUNOK_clean_linker_0, # of connection points: 2
#     Edge 74, Type (0, 1), BuildingBlock: AJUNOK_clean_linker_0, # of connection points: 2
#     Edge 75, Type (0, 1), BuildingBlock: AJUNOK_clean_linker_0, # of connection points: 2
# Relax obj value: 0.055
# Max RMSD: 0.167
# Mean RMSD: 0.093
data_MOF--net-ctn--node1-OLANEW_clean_sbu_2--node2-NAHDIM_clean_sbu_0--edge1-AJUNOK_clean_linker_0
_symmetry_space_group_name_H-M    P1
_symmetry_Int_Tables_number       1
_symmetry_cell_setting            triclinic
loop_
_symmetry_equiv_pos_as_xyz
'x, y, z'
_cell_length_a     43.714128
_cell_length_b     45.727019
_cell_length_c     41.750384
_cell_angle_alpha  92.903179
_cell_angle_beta   95.574483
_cell_angle_gamma 99.00135
loop_
_atom_site_label
_atom_site_type_symbol
_atom_site_fract_x
_atom_site_fract_y
_atom_site_fract_z
_atom_type_partial_charge
O0 O 0.04961 0.05741 0.99798 0.0
Cd1 Cd 0.05082 0.0196 0.03759 0.0
O2 O 0.02329 0.083 0.02816 0.0
Cd3 Cd 0.02069 0.05425 0.06823 0.0
O4 O 0.00527 0.03969 0.11384 0.0
C5 C 0.98308 0.05146 0.12361 0.0
O6 O 0.97127 0.07064 0.10571 0.0
C7 C 0.03613 0.07979 0.00243 0.0
C8 C 0.10011 0.98732 0.03571 0.0
O9 O 0.07401 0.97858 0.01859 0.0
O10 O 0.10301 0.01161 0.0533 0.0
O11 O 0.32758 0.7378 0.26362 0.0
Cd12 Cd 0.27403 0.73144 0.23765 0.0
O13 O 0.32852 0.68985 0.2614 0.0
Cd14 Cd 0.27955 0.67617 0.24389 0.0
O15 O 0.237 0.64561 0.24897 0.0
C16 C 0.2382 0.63103 0.27407 0.0
O17 O 0.26383 0.6361 0.2941 0.0
C18 C 0.34225 0.71626 0.26875 0.0
C19 C 0.26826 0.76499 0.18383 0.0
O20 O 0.26459 0.77553 0.21198 0.0
O21 O 0.2748 0.73866 0.18128 0.0
O22 O 0.98101 0.47268 0.11613 0.0
Cd23 Cd 0.95842 0.46892 0.05987 0.0
O24 O 0.01647 0.44513 0.10654 0.0
Cd25 Cd 0.0013 0.4338 0.05549 0.0
O26 O -0.00077 0.4045 0.0121 0.0
C27 C 0.01278 0.3821 0.01602 0.0
O28 O 0.02633 0.37883 0.04483 0.0
C29 C 0.00421 0.46074 0.12618 0.0
C30 C 0.91709 0.50931 0.0502 0.0
O31 O 0.90792 0.48312 0.05871 0.0
O32 O 0.9459 0.51633 0.04595 0.0
O33 O 0.77926 0.82782 0.24403 0.0
Cd34 Cd 0.74505 0.77973 0.23863 0.0
O35 O 0.7401 0.85271 0.24307 0.0
Cd36 Cd 0.70429 0.81366 0.24196 0.0
O37 O 0.66481 0.78646 0.25974 0.0
C38 C 0.664 0.78873 0.29009 0.0
O39 O 0.68696 0.80603 0.30775 0.0
C40 C 0.76924 0.85248 0.24481 0.0
C41 C 0.75101 0.74611 0.18249 0.0
O42 O 0.73154 0.76434 0.18269 0.0
O43 O 0.76781 0.74392 0.20892 0.0
O44 O 0.08803 0.9867 0.50613 0.0
Cd45 Cd 0.03725 0.95524 0.49159 0.0
O46 O 0.07259 0.01599 0.54252 0.0
Cd47 Cd 0.02436 -0.00292 0.5268 0.0
O48 O 0.98842 -0.00869 0.48602 0.0
C49 C -0.00193 0.00114 0.46024 0.0
O50 O 0.02754 0.01298 0.46091 0.0
C51 C 0.09428 0.00824 0.52748 0.0
C52 C 0.02261 0.91143 0.53452 0.0
O53 O 0.03801 0.90676 0.51067 0.0
O54 O 0.01444 0.93699 0.53825 0.0
O55 O 0.26086 0.73406 0.86086 0.0
Cd56 Cd 0.24617 0.69896 0.81362 0.0
O57 O 0.21386 0.74319 0.84868 0.0
Cd58 Cd 0.17308 0.76526 0.84887 0.0
O59 O 0.12809 0.77447 0.82834 0.0
C60 C 0.12379 0.77308 0.79773 0.0
O61 O 0.14665 0.76743 0.78138 0.0
C62 C 0.2395 0.74882 0.86672 0.0
C63 C 0.2804 0.65255 0.80977 0.0
O64 O 0.28928 0.67737 0.79787 0.0
O65 O 0.25559 0.64998 0.82416 0.0
O66 O 0.96897 0.5572 0.44937 0.0
Cd67 Cd 0.93419 0.56954 0.48867 0.0
O68 O 0.00376 0.54494 0.4857 0.0
Cd69 Cd 0.98238 0.56426 0.52525 0.0
O70 O 0.97125 0.59662 0.56102 0.0
C71 C 0.96451 0.62099 0.55136 0.0
O72 O 0.96373 0.62518 0.52041 0.0
C73 C -0.00608 0.54676 0.4563 0.0
C74 C 0.88879 0.52055 0.49502 0.0
O75 O 0.88521 0.53852 0.4729 0.0
O76 O 0.91376 0.52596 0.51461 0.0
O77 O 0.77807 0.74325 0.87017 0.0
Cd78 Cd 0.77684 0.78409 0.83456 0.0
O79 O 0.72719 0.72985 0.86316 0.0
Cd80 Cd 0.7183 0.76894 0.83797 0.0
O81 O 0.69961 0.80924 0.82623 0.0
C82 C 0.70786 0.83263 0.8448 0.0
O83 O 0.72855 0.83218 0.86973 0.0
C84 C 0.75385 0.72539 0.87503 0.0
C85 C 0.81546 0.77953 0.78549 0.0
O86 O 0.82565 0.79429 0.81235 0.0
O87 O 0.78686 0.76705 0.7818 0.0
O88 O 0.279 0.2446 0.36104 0.0
Cd89 Cd 0.28044 0.28485 0.32426 0.0
O90 O 0.22784 0.23828 0.35794 0.0
Cd91 Cd 0.22265 0.2772 0.33086 0.0
O92 O 0.20756 0.31839 0.31616 0.0
C93 C 0.19289 0.33159 0.33573 0.0
O94 O 0.18807 0.31996 0.36332 0.0
C95 C 0.25345 0.23039 0.36826 0.0
C96 C 0.32342 0.28228 0.27915 0.0
O97 O 0.33092 0.29757 0.30614 0.0
O98 O 0.2956 0.26795 0.27361 0.0
O99 O 0.47751 0.98009 0.61341 0.0
Cd100 Cd 0.45471 0.97566 0.55725 0.0
O101 O 0.50682 0.94594 0.60586 0.0
Cd102 Cd 0.49175 0.93388 0.55498 0.0
O103 O 0.4922 0.90237 0.51408 0.0
C104 C 0.48893 0.87524 0.52045 0.0
O105 O 0.48429 0.86852 0.55001 0.0
C106 C 0.49762 0.96488 0.62445 0.0
C107 C 0.41338 0.01596 0.54733 0.0
O108 O 0.4044 -0.00991 0.55679 0.0
O109 O 0.44198 0.02271 0.54216 0.0
O110 O 0.24812 0.34046 0.71433 0.0
Cd111 Cd 0.21121 0.294 0.70972 0.0
O112 O 0.25957 0.33797 0.76642 0.0
Cd113 Cd 0.22428 0.29936 0.77008 0.0
O114 O 0.18179 0.27518 0.78541 0.0
C115 C 0.15577 0.28046 0.77273 0.0
O116 O 0.15562 0.29893 0.74963 0.0
C117 C 0.26374 0.35118 0.74076 0.0
C118 C 0.22449 0.25375 0.66252 0.0
O119 O 0.20591 0.27219 0.65574 0.0
O120 O 0.23679 0.2544 0.69174 0.0
O121 O 0.81525 0.24301 0.78789 0.0
Cd122 Cd 0.76544 0.23752 0.75406 0.0
O123 O 0.82193 0.19716 0.7761 0.0
Cd124 Cd 0.77452 0.18233 0.75378 0.0
O125 O 0.73221 0.15017 0.75505 0.0
C126 C 0.73514 0.12927 0.77349 0.0
O127 O 0.76258 0.12879 0.78924 0.0
C128 C 0.832 0.22268 0.79005 0.0
C129 C 0.76802 0.27436 0.70245 0.0
O130 O 0.75966 0.28308 0.72944 0.0
O131 O 0.77528 0.2483 0.70001 0.0
O132 O 0.53929 0.54305 0.47522 0.0
Cd133 Cd 0.53622 0.49844 0.50571 0.0
O134 O 0.52993 0.57149 0.51595 0.0
Cd135 Cd 0.52588 0.53739 0.55073 0.0
O136 O 0.50706 0.52081 0.59414 0.0
C137 C 0.48296 0.53124 0.60078 0.0
O138 O 0.47199 0.54959 0.58113 0.0
C139 C 0.53524 0.56829 0.48668 0.0
C140 C 0.59121 0.47434 0.51168 0.0
O141 O 0.57222 0.46925 0.48591 0.0
O142 O 0.58449 0.49119 0.53455 0.0
O143 O 0.58627 0.49984 0.01155 0.0
Cd144 Cd 0.53439 0.47092 0.99577 0.0
O145 O 0.56952 0.53301 0.0425 0.0
Cd146 Cd 0.52172 0.51656 0.02268 0.0
O147 O 0.48596 0.50833 0.98169 0.0
C148 C 0.49527 0.51439 0.95452 0.0
O149 O 0.52492 0.52472 0.95339 0.0
C150 C 0.59196 0.52253 0.03145 0.0
C151 C 0.516 0.43124 0.04178 0.0
O152 O 0.53023 0.42336 0.01814 0.0
O153 O 0.51043 0.45792 0.04359 0.0
O154 O 0.73774 0.22138 0.40262 0.0
Cd155 Cd 0.72235 0.17575 0.3677 0.0
O156 O 0.69572 0.23183 0.37622 0.0
Cd157 Cd 0.6569 0.25536 0.36372 0.0
O158 O 0.61739 0.26865 0.33553 0.0
C159 C 0.62086 0.27565 0.30689 0.0
O160 O 0.64828 0.27582 0.29646 0.0
C161 C 0.71871 0.23941 0.39767 0.0
C162 C 0.76786 0.14042 0.35934 0.0
O163 O 0.75109 0.13737 0.38287 0.0
O164 O 0.76368 0.16089 0.34028 0.0
O165 O 0.49411 0.02294 0.97279 0.0
Cd166 Cd 0.46379 0.03847 0.01507 0.0
O167 O 0.53657 0.05297 0.99308 0.0
Cd168 Cd 0.51469 0.07292 0.03178 0.0
O169 O 0.50105 0.10319 0.06802 0.0
C170 C 0.48578 0.12331 0.05888 0.0
O171 O 0.47767 0.12446 0.02788 0.0
C172 C 0.52274 0.03323 0.97172 0.0
C173 C 0.41134 -0.00339 0.02189 0.0
O174 O 0.40998 0.01736 0.00253 0.0
O175 O 0.43764 -0.00436 0.03796 0.0
C176 C 0.20379 0.92043 0.03989 0.0
O177 O 0.22992 0.93186 0.05744 0.0
O178 O 0.23486 0.84515 0.98696 0.0
Zn179 Zn 0.24013 0.8751 0.02539 0.0
O180 O 0.27781 0.90634 0.02234 0.0
C181 C 0.25604 0.83024 0.06781 0.0
O182 O 0.26526 0.81936 0.04135 0.0
O183 O 0.20233 0.89561 0.02417 0.0
C184 C 0.30407 0.90728 0.0387 0.0
O185 O 0.30755 0.88688 0.0592 0.0
C186 C 0.25796 0.84054 0.97219 0.0
O187 O 0.28557 0.85577 0.98211 0.0
O188 O 0.24456 0.85414 0.06692 0.0
C189 C 0.14057 0.43837 0.3066 0.0
O190 O 0.14406 0.45151 0.27962 0.0
O191 O 0.07673 0.49265 0.3505 0.0
Zn192 Zn 0.10369 0.48392 0.31568 0.0
O193 O 0.13736 0.51904 0.31304 0.0
C194 C 0.05235 0.47896 0.26232 0.0
O195 O 0.03603 0.49054 0.28297 0.0
O196 O 0.1241 0.44862 0.32659 0.0
C197 C 0.13522 0.53751 0.29149 0.0
O198 O 0.11007 0.53396 0.27082 0.0
C199 C 0.06593 0.51683 0.3526 0.0
O200 O 0.0715 0.53625 0.3309 0.0
O201 O 0.07962 0.4744 0.27172 0.0
C202 C 0.83341 0.59616 0.03062 0.0
O203 O 0.84245 0.62002 0.01552 0.0
O204 O 0.77904 0.64231 0.99356 0.0
Zn205 Zn 0.77469 0.61957 0.03371 0.0
O206 O 0.73227 0.59418 0.03028 0.0
C207 C 0.75945 0.66827 0.06965 0.0
O208 O 0.74051 0.66761 0.04309 0.0
O209 O 0.80648 0.59238 0.04026 0.0
C210 C 0.71745 0.58926 0.05471 0.0
O211 O 0.7302 0.6007 0.08329 0.0
C212 C 0.75971 0.6357 0.96848 0.0
O213 O 0.73815 0.61216 0.96792 0.0
O214 O 0.77784 0.64931 0.07168 0.0
C215 C 0.84737 0.05451 0.32714 0.0
O216 O 0.84983 0.03167 0.34448 0.0
O217 O 0.91481 0.01821 0.3251 0.0
Zn218 Zn 0.88323 0.02311 0.28815 0.0
O219 O 0.85221 0.98565 0.27798 0.0
C220 C 0.93032 0.02446 0.24387 0.0
O221 O 0.94333 0.00927 0.26571 0.0
O222 O 0.8601 0.05601 0.30101 0.0
C223 C 0.85971 0.96151 0.26738 0.0
O224 O 0.88896 0.96072 0.26316 0.0
C225 C 0.90994 -0.00088 0.3459 0.0
O226 O 0.88314 0.98113 0.34339 0.0
O227 O 0.90475 0.03309 0.24862 0.0
C228 C 0.32783 0.10039 0.52374 0.0
O229 O 0.3333 0.11981 0.50201 0.0
O230 O 0.2732 0.14503 0.48689 0.0
Zn231 Zn 0.26856 0.12285 0.52756 0.0
O232 O 0.22863 0.09353 0.52268 0.0
C233 C 0.24582 0.16894 0.56117 0.0
O234 O 0.22716 0.16588 0.53415 0.0
O235 O 0.30302 0.09914 0.53747 0.0
C236 C 0.21446 0.0856 0.54678 0.0
O237 O 0.22576 0.09725 0.57574 0.0
C238 C 0.25059 0.1427 0.4648 0.0
O239 O 0.22493 0.12439 0.46798 0.0
O240 O 0.26677 0.1526 0.56439 0.0
C241 C 0.34266 0.54974 0.79281 0.0
O242 O 0.33044 0.52435 0.80326 0.0
O243 O 0.4211 0.51619 0.81085 0.0
Zn244 Zn 0.38985 0.51639 0.77217 0.0
O245 O 0.36005 0.47791 0.7686 0.0
C246 C 0.43071 0.50712 0.72193 0.0
O247 O 0.44083 0.48746 0.74039 0.0
O248 O 0.36733 0.55102 0.77882 0.0
C249 C 0.34753 0.46404 0.7423 0.0
O250 O 0.35349 0.47543 0.71487 0.0
C251 C 0.41079 0.50614 0.83627 0.0
O252 O 0.38087 0.49618 0.83561 0.0
O253 O 0.41027 0.52155 0.7313 0.0
C254 C 0.70412 0.42145 0.52004 0.0
O255 O 0.72415 0.42825 0.49904 0.0
O256 O 0.74335 0.34895 0.50854 0.0
Zn257 Zn 0.74794 0.38308 0.54268 0.0
O258 O 0.78533 0.41414 0.53722 0.0
C259 C 0.76855 0.34411 0.58907 0.0
O260 O 0.78182 0.33506 0.56428 0.0
O261 O 0.70923 0.40266 0.54055 0.0
C262 C 0.79373 0.41889 0.50937 0.0
O263 O 0.77899 0.40221 0.48434 0.0
C264 C 0.72732 0.34675 0.48118 0.0
O265 O 0.7117 0.36801 0.47306 0.0
O266 O 0.75328 0.36548 0.58601 0.0
C267 C 0.65165 0.93953 0.8296 0.0
O268 O 0.66628 0.96475 0.84402 0.0
O269 O 0.5808 0.98403 0.84265 0.0
Zn270 Zn 0.60632 0.97595 0.80637 0.0
O271 O 0.64007 0.01087 0.80297 0.0
C272 C 0.55417 0.9796 0.75784 0.0
O273 O 0.5436 -0.00533 0.78079 0.0
O274 O 0.6256 0.93911 0.81303 0.0
C275 C 0.63346 0.03436 0.79085 0.0
O276 O 0.6042 0.03592 0.78172 0.0
C277 C 0.59361 -0.00126 0.86842 0.0
O278 O 0.62377 0.00822 0.87112 0.0
O279 O 0.57942 0.96946 0.76396 0.0
C280 C 0.02953 0.17154 0.91071 0.0
O281 O 0.04398 0.17242 0.88455 0.0
O282 O 0.9713 0.22379 0.86408 0.0
Zn283 Zn 0.0125 0.22835 0.89191 0.0
O284 O 0.01652 0.26401 0.92339 0.0
C285 C 0.04463 0.24445 0.83655 0.0
O286 O 0.01715 0.25008 0.82544 0.0
O287 O 0.01471 0.19244 0.91766 0.0
C288 C 0.0127 0.28956 0.91467 0.0
O289 O 0.00666 0.29326 0.88384 0.0
C290 C 0.94842 0.2347 0.87353 0.0
O291 O 0.95099 0.24755 0.90273 0.0
O292 O 0.048 0.23456 0.86436 0.0
C293 C 0.52641 0.66846 0.40677 0.0
O294 O 0.53492 0.66927 0.37747 0.0
O295 O 0.47294 0.71781 0.36068 0.0
Zn296 Zn 0.50989 0.72666 0.39452 0.0
O297 O 0.50187 0.75817 0.42676 0.0
C298 C 0.55267 0.73544 0.34529 0.0
O299 O 0.52973 0.71925 0.32648 0.0
O300 O 0.51509 0.69019 0.41835 0.0
C301 C 0.51158 0.78568 0.42507 0.0
O302 O 0.52785 0.7943 0.40139 0.0
C303 C 0.46253 0.73871 0.3464 0.0
O304 O 0.47662 0.76613 0.35352 0.0
O305 O 0.54912 0.7411 0.37468 0.0
C306 C 0.99136 0.8158 0.61907 0.0
O307 O 0.00545 0.79252 0.61686 0.0
O308 O 0.92857 0.78452 0.69337 0.0
Zn309 Zn 0.96364 0.78099 0.66601 0.0
O310 O 0.95471 0.74404 0.63589 0.0
C311 C 0.00483 0.78161 0.72545 0.0
O312 O 0.9797 0.78437 0.73944 0.0
O313 O 0.97135 0.81629 0.63917 0.0
C314 C 0.96004 0.71899 0.6448 0.0
O315 O 0.97005 0.71671 0.67514 0.0
C316 C 0.90163 0.76883 0.68867 0.0
O317 O 0.89515 0.74932 0.6638 0.0
O318 O 0.00316 0.77982 0.69481 0.0
C319 C 0.48092 0.34535 0.13594 0.0
O320 O 0.47591 0.35338 0.16538 0.0
O321 O 0.43681 0.29129 0.18478 0.0
Zn322 Zn 0.47288 0.28605 0.15937 0.0
O323 O 0.46638 0.2465 0.13377 0.0
C324 C 0.51069 0.28584 0.2204 0.0
O325 O 0.48341 0.28121 0.2316 0.0
O326 O 0.48019 0.318 0.12821 0.0
C327 C 0.47324 0.22321 0.14618 0.0
O328 O 0.48289 0.22459 0.17708 0.0
C329 C 0.4127 0.27191 0.18561 0.0
O330 O 0.40927 0.24725 0.16714 0.0
O331 O 0.51179 0.2888 0.19039 0.0
C332 C 0.2198 0.77868 0.90989 0.0
C333 C 0.24473 0.77236 0.89331 0.0
C334 C 0.22428 0.80081 0.93519 0.0
C335 C 0.25392 0.81751 0.94498 0.0
H336 H 0.19671 0.76602 0.90384 0.0
H337 H 0.2043 0.80465 0.94727 0.0
S338 S 0.32697 0.80959 0.90903 0.0
N339 N 0.30011 0.78454 0.88825 0.0
N340 N 0.3087 0.82605 0.93574 0.0
C341 C 0.27911 0.81133 0.92855 0.0
C342 C 0.2745 0.78874 0.90283 0.0
C343 C 0.00878 0.55047 0.40014 0.0
C344 C 0.01193 0.53789 0.43012 0.0
C345 C 0.02634 0.54351 0.37529 0.0
C346 C 0.0473 0.52323 0.37918 0.0
H347 H -0.00695 0.56632 0.39597 0.0
H348 H 0.02332 0.55404 0.35278 0.0
S349 S 0.06356 0.48337 0.45264 0.0
N350 N 0.03739 0.50383 0.46215 0.0
N351 N 0.06994 0.49029 0.41521 0.0
C352 C 0.0503 0.51005 0.40882 0.0
C353 C 0.03278 0.51752 0.43435 0.0
C354 C 0.7822 0.70213 0.91948 0.0
C355 C 0.75636 0.70055 0.89618 0.0
C356 C 0.78354 0.68056 0.94207 0.0
C357 C 0.75929 0.65632 0.94206 0.0
H358 H 0.80105 0.72077 0.9211 0.0
H359 H 0.80348 0.68333 0.96015 0.0
S360 S 0.68803 0.6402 0.88364 0.0
N361 N 0.70707 0.67162 0.87285 0.0
N362 N 0.70967 0.63094 0.91495 0.0
C363 C 0.73404 0.6537 0.91781 0.0
C364 C 0.73254 0.67584 0.89502 0.0
C365 C 0.94556 0.98528 0.42924 0.0
C366 C 0.9765 -8e-05 0.43029 0.0
C367 C 0.92444 0.98455 0.40161 0.0
C368 C 0.93331 -0.00134 0.37399 0.0
H369 H 0.93743 0.97442 0.45001 0.0
H370 H 0.90078 0.97335 0.40222 0.0
S371 S 0.01199 0.03877 0.36347 0.0
N372 N 0.01526 0.02792 0.40058 0.0
N373 N 0.97552 0.02663 0.34884 0.0
C374 C 0.96432 0.01291 0.37442 0.0
C375 C 0.9859 0.0135 0.40249 0.0
C376 C 0.21492 0.23047 0.60619 0.0
C377 C 0.23108 0.23222 0.63724 0.0
C378 C 0.22005 0.2101 0.58189 0.0
C379 C 0.24168 0.19064 0.58747 0.0
H380 H 0.1979 0.2448 0.60053 0.0
H381 H 0.20681 0.20967 0.55851 0.0
S382 S 0.2906 0.18646 0.66447 0.0
N383 N 0.27002 0.21285 0.67218 0.0
N384 N 0.27971 0.17463 0.62645 0.0
C385 C 0.25828 0.19229 0.61833 0.0
C386 C 0.25296 0.21302 0.64319 0.0
C387 C 0.48253 0.50751 0.65372 0.0
C388 C 0.46844 0.52422 0.63082 0.0
C389 C 0.47001 0.50178 0.68292 0.0
C390 C 0.44297 0.51261 0.69044 0.0
H391 H 0.50366 0.49907 0.64933 0.0
H392 H 0.48195 0.48914 0.6999 0.0
S393 S 0.3958 0.55577 0.63777 0.0
N394 N 0.42492 0.55026 0.6171 0.0
N395 N 0.40156 0.53959 0.67177 0.0
C396 C 0.42825 0.5288 0.66745 0.0
C397 C 0.44092 0.53456 0.63772 0.0
C398 C 0.78125 0.28426 0.64659 0.0
C399 C 0.76894 0.29346 0.67463 0.0
C400 C 0.7816 0.30113 0.61949 0.0
C401 C 0.76946 0.32789 0.61908 0.0
H402 H 0.79057 0.26368 0.64536 0.0
H403 H 0.79103 0.29272 0.59847 0.0
S404 S 0.73547 0.36256 0.68674 0.0
N405 N 0.74507 0.33171 0.70066 0.0
N406 N 0.74557 0.36331 0.64967 0.0
C407 C 0.75752 0.33768 0.64715 0.0
C408 C 0.75731 0.32052 0.67489 0.0
C409 C 0.53558 0.95422 0.66927 0.0
C410 C 0.51079 0.96893 0.65886 0.0
C411 C 0.54899 0.95757 0.70129 0.0
C412 C 0.5382 0.97571 0.7245 0.0
H413 H 0.54505 0.94008 0.65251 0.0
H414 H 0.56816 0.94587 0.70776 0.0
S415 S 0.47322 0.01859 0.71018 0.0
N416 N 0.47548 0.00199 0.67464 0.0
N417 N 0.50072 0.00827 0.73498 0.0
C418 C 0.51313 -0.0097 0.71465 0.0
C419 C 0.49946 0.98696 0.68184 0.0
C420 C 0.88383 0.20812 0.80624 0.0
C421 C 0.86246 0.22776 0.81022 0.0
C422 C 0.91179 0.21086 0.82644 0.0
C423 C 0.91929 0.23305 0.85178 0.0
H424 H 0.87883 0.19025 0.7875 0.0
H425 H 0.92731 0.19502 0.82259 0.0
S426 S 0.87221 0.29108 0.87164 0.0
N427 N 0.85145 0.27101 0.84071 0.0
N428 N 0.90385 0.27592 0.87889 0.0
C429 C 0.89849 0.25322 0.8557 0.0
C430 C 0.87017 0.25068 0.83484 0.0
C431 C 0.50554 0.85991 0.4672 0.0
C432 C 0.49284 0.8519 0.49583 0.0
C433 C 0.51138 0.83836 0.4445 0.0
C434 C 0.50454 0.80789 0.44933 0.0
H435 H 0.51161 0.88305 0.46246 0.0
H436 H 0.52147 0.84577 0.42303 0.0
S437 S 0.46967 0.77505 0.5197 0.0
N438 N 0.47265 0.81121 0.52729 0.0
N439 N 0.48349 0.77078 0.48466 0.0
C440 C 0.49122 0.79951 0.47757 0.0
C441 C 0.48542 0.82148 0.50078 0.0
C442 C 0.12807 0.25464 0.81564 0.0
C443 C 0.12658 0.26885 0.78654 0.0
C444 C 0.10136 0.24617 0.83111 0.0
C445 C 0.07194 0.25144 0.81809 0.0
H446 H 0.15022 0.25074 0.82721 0.0
H447 H 0.10403 0.23597 0.85385 0.0
S448 S 0.05478 0.28526 0.74064 0.0
N449 N 0.09281 0.28587 0.74404 0.0
N450 N 0.04259 0.26992 0.77303 0.0
C451 C 0.06985 0.26447 0.78826 0.0
C452 C 0.09713 0.27318 0.77252 0.0
C453 C 0.52597 0.62008 0.47809 0.0
C454 C 0.53483 0.59374 0.46585 0.0
C455 C 0.52352 0.64397 0.45885 0.0
C456 C 0.52994 0.64275 0.42647 0.0
H457 H 0.52038 0.62225 0.50272 0.0
H458 H 0.51634 0.66353 0.46957 0.0
S459 S 0.5552 0.57935 0.38279 0.0
N460 N 0.55086 0.56818 0.4193 0.0
N461 N 0.54635 0.61316 0.38314 0.0
C462 C 0.53938 0.61677 0.41396 0.0
C463 C 0.54178 0.5923 0.43361 0.0
C464 C 0.86716 0.79219 0.76423 0.0
C465 C 0.83637 0.77686 0.75981 0.0
C466 C 0.88778 0.78973 0.74094 0.0
C467 C 0.87862 0.77171 0.71218 0.0
H468 H 0.8756 0.80619 0.786 0.0
H469 H 0.91128 0.80185 0.74583 0.0
S470 S 0.80024 0.72739 0.68829 0.0
N471 N 0.79748 0.74339 0.72401 0.0
N472 N 0.83626 0.7387 0.68028 0.0
C473 C 0.84778 0.75647 0.70722 0.0
C474 C 0.82668 0.75906 0.73097 0.0
C475 C 0.02591 0.86085 0.55344 0.0
C476 C 0.01437 0.88777 0.55679 0.0
C477 C 0.01838 0.83791 0.57372 0.0
C478 C -0.00118 0.84077 0.59819 0.0
H479 H 0.04098 0.85735 0.53497 0.0
H480 H 0.02792 0.81768 0.56997 0.0
S481 S 0.96244 0.90684 0.61732 0.0
N482 N 0.98239 0.91604 0.58673 0.0
N483 N 0.96816 0.87289 0.62476 0.0
C484 C 0.98709 0.86759 0.6019 0.0
C485 C -0.00511 0.89107 0.58127 0.0
C486 C 0.09005 0.77592 0.74653 0.0
C487 C 0.09333 0.77639 0.78043 0.0
C488 C 0.06149 0.77783 0.72915 0.0
C489 C 0.03485 0.78027 0.74487 0.0
H490 H 0.10969 0.77388 0.7331 0.0
H491 H 0.06035 0.77721 0.70309 0.0
S492 S 0.0309 0.78288 0.83346 0.0
N493 N 0.06744 0.77983 0.82921 0.0
N494 N 0.01369 0.7834 0.79656 0.0
C495 C 0.03779 0.78107 0.77883 0.0
C496 C 0.067 0.77915 0.79658 0.0
C497 C 0.96804 0.64309 0.60808 0.0
C498 C 0.96034 0.64524 0.57484 0.0
C499 C 0.96695 0.66667 0.63054 0.0
C500 C 0.95803 0.69342 0.62076 0.0
H501 H 0.97583 0.62332 0.61686 0.0
H502 H 0.97391 0.66408 0.65571 0.0
S503 S 0.93259 0.70939 0.53681 0.0
N504 N 0.94131 0.67561 0.5335 0.0
N505 N 0.93921 0.71983 0.5756 0.0
C506 C 0.94901 0.69543 0.58772 0.0
C507 C 0.95019 0.67141 0.56482 0.0
C508 C 0.82337 0.88087 0.24661 0.0
C509 C 0.7915 0.88084 0.24919 0.0
C510 C 0.8451 0.90707 0.25212 0.0
C511 C 0.83594 0.93434 0.26067 0.0
H512 H 0.83173 0.86043 0.24044 0.0
H513 H 0.86936 0.90577 0.25002 0.0
S514 S 0.75516 0.94656 0.27022 0.0
N515 N 0.75178 0.9107 0.26047 0.0
N516 N 0.79257 0.9598 0.27091 0.0
C517 C 0.80408 0.93474 0.26299 0.0
C518 C 0.7819 0.90807 0.25722 0.0
C519 C 0.80417 0.12049 0.3242 0.0
C520 C 0.79006 0.11982 0.35313 0.0
C521 C 0.82312 0.0997 0.31633 0.0
C522 C 0.82881 0.07737 0.33706 0.0
H523 H 0.79999 0.13677 0.30702 0.0
H524 H 0.83286 0.10087 0.29345 0.0
S525 S 0.79962 0.06744 0.41715 0.0
N526 N 0.7847 0.096 0.40357 0.0
N527 N 0.8203 0.05704 0.38887 0.0
C528 C 0.81572 0.07706 0.36662 0.0
C529 C 0.79639 0.09823 0.37462 0.0
C530 C 0.386 0.95151 0.04668 0.0
C531 C 0.38346 0.97437 0.02571 0.0
C532 C 0.36023 0.93011 0.0508 0.0
C533 C 0.33077 0.9306 0.0341 0.0
H534 H 0.40813 0.94999 0.06009 0.0
H535 H 0.36359 0.91297 0.06716 0.0
S536 S 0.31137 0.98609 0.9766 0.0
N537 N 0.34885 -0.00363 0.98823 0.0
N538 N 0.30049 0.95625 0.99594 0.0
C539 C 0.32781 0.95344 0.01313 0.0
C540 C 0.35409 0.97526 0.00894 0.0
C541 C 0.16323 0.37228 0.3494 0.0
C542 C 0.18063 0.35918 0.32766 0.0
C543 C 0.15066 0.39788 0.34244 0.0
C544 C 0.15492 0.41161 0.31343 0.0
H545 H 0.15901 0.36261 0.37204 0.0
H546 H 0.13732 0.40684 0.36001 0.0
S547 S 0.19928 0.38668 0.24847 0.0
N548 N 0.20194 0.36226 0.27597 0.0
N549 N 0.17835 0.41037 0.26288 0.0
C550 C 0.17256 0.39896 0.29153 0.0
C551 C 0.18538 0.3728 0.29863 0.0
C552 C 0.13495 0.04478 0.56111 0.0
C553 C 0.1261 0.02579 0.53303 0.0
C554 C 0.16388 0.06348 0.5657 0.0
C555 C 0.18489 0.0643 0.54216 0.0
H556 H 0.11926 0.04549 0.57958 0.0
H557 H 0.16942 0.07798 0.58752 0.0
S558 S 0.17362 0.01816 0.46488 0.0
N559 N 0.14134 0.00822 0.48182 0.0
N560 N 0.19545 0.04361 0.49032 0.0
C561 C 0.17665 0.04502 0.51427 0.0
C562 C 0.14737 0.02568 0.50976 0.0
C563 C 0.71363 0.08142 0.79553 0.0
C564 C 0.70851 0.1057 0.77745 0.0
C565 C 0.68925 0.05865 0.7998 0.0
C566 C 0.65859 0.05922 0.78633 0.0
H567 H 0.73676 0.07977 0.80645 0.0
H568 H 0.69458 0.04046 0.81384 0.0
S569 S 0.6325 0.11794 0.73702 0.0
N570 N 0.67028 0.12901 0.74604 0.0
N571 N 0.6244 0.08629 0.75412 0.0
C572 C 0.65302 0.08346 0.76832 0.0
C573 C 0.67795 0.10664 0.76384 0.0
C574 C 0.39957 0.06268 0.52512 0.0
C575 C 0.39139 0.03741 0.5423 0.0
C576 C 0.379 0.08298 0.51944 0.0
C577 C 0.34954 0.07904 0.531 0.0
H578 H 0.42191 0.06669 0.51558 0.0
H579 H 0.38632 0.1019 0.50581 0.0
S580 S 0.3172 0.01691 0.57832 0.0
N581 N 0.35195 0.00987 0.57143 0.0
N582 N 0.31346 0.04799 0.56101 0.0
C583 C 0.34124 0.05405 0.54866 0.0
C584 C 0.36209 0.03326 0.55421 0.0
C585 C 0.63452 0.45502 0.487 0.0
C586 C 0.62008 0.46109 0.51471 0.0
C587 C 0.66188 0.4425 0.48907 0.0
C588 C 0.67536 0.43484 0.51881 0.0
H589 H 0.62482 0.46033 0.46353 0.0
H590 H 0.67229 0.4384 0.4671 0.0
S591 S 0.64639 0.44569 0.59846 0.0
N592 N 0.62133 0.45856 0.57285 0.0
N593 N 0.67225 0.43415 0.57659 0.0
C594 C 0.661 0.44047 0.54667 0.0
C595 C 0.63352 0.45387 0.54467 0.0
C596 C 0.73222 0.26802 0.45096 0.0
C597 C 0.72219 0.26747 0.41788 0.0
C598 C 0.7341 0.29384 0.47114 0.0
C599 C 0.72601 0.3201 0.45899 0.0
H600 H 0.73798 0.24815 0.4615 0.0
H601 H 0.7414 0.29299 0.49658 0.0
S602 S 0.7029 0.33135 0.37312 0.0
N603 N 0.70767 0.29625 0.37315 0.0
N604 N 0.71022 0.34456 0.41111 0.0
C605 C 0.71698 0.32009 0.4257 0.0
C606 C 0.71533 0.29384 0.40513 0.0
C607 C 0.5723 0.03302 0.94632 0.0
C608 C 0.54007 0.02296 0.94545 0.0
C609 C 0.5893 0.02475 0.92156 0.0
C610 C 0.57486 0.00612 0.89469 0.0
H611 H 0.58466 0.04763 0.96624 0.0
H612 H 0.61398 0.03339 0.92346 0.0
S613 S 0.49109 0.97293 0.88087 0.0
N614 N 0.49442 -0.00728 0.91557 0.0
N615 N 0.52635 0.97725 0.869 0.0
C616 C 0.54269 -0.00447 0.8936 0.0
C617 C 0.52534 0.0039 0.91896 0.0
C618 C 0.2797 0.20447 0.41202 0.0
C619 C 0.25336 0.20584 0.39024 0.0
C620 C 0.27893 0.18342 0.43539 0.0
C621 C 0.25189 0.1627 0.43774 0.0
H622 H 0.30074 0.22048 0.41183 0.0
H623 H 0.29951 0.18393 0.45224 0.0
S624 S 0.17785 0.1547 0.38373 0.0
N625 N 0.20033 0.18309 0.37073 0.0
N626 N 0.1989 0.14344 0.41424 0.0
C627 C 0.22591 0.1629 0.41499 0.0
C628 C 0.22663 0.18449 0.39139 0.0
C629 C 0.48371 0.52147 0.89586 0.0
C630 C 0.47327 0.51094 0.92466 0.0
C631 C 0.46347 0.51948 0.86741 0.0
C632 C 0.4319 0.50681 0.8665 0.0
H633 H 0.5077 0.53172 0.89523 0.0
H634 H 0.47268 0.52826 0.84607 0.0
S635 S 0.39309 0.4744 0.93493 0.0
N636 N 0.42942 0.48635 0.95021 0.0
N637 N 0.39136 0.48251 0.8968 0.0
C638 C 0.42122 0.49564 0.89498 0.0
C639 C 0.44188 0.49773 0.92402 0.0
C640 C 0.77326 0.70589 0.1543 0.0
C641 C 0.75365 0.72756 0.15291 0.0
C642 C 0.77537 0.68722 0.12719 0.0
C643 C 0.75795 0.68942 0.09748 0.0
H644 H 0.78688 0.70296 0.17666 0.0
H645 H 0.79048 0.67065 0.12977 0.0
S646 S 0.70435 0.74362 0.08038 0.0
N647 N 0.71734 0.7509 0.11886 0.0
N648 N 0.7213 0.71593 0.06797 0.0
C649 C 0.73872 0.71142 0.09552 0.0
C650 C 0.73657 0.73044 0.12317 0.0
C651 C 0.94423 0.05569 0.16302 0.0
C652 C 0.9705 0.04403 0.15452 0.0
C653 C 0.93159 0.04929 0.1919 0.0
C654 C 0.94472 0.03103 0.21369 0.0
H655 H 0.9331 0.06987 0.1472 0.0
H656 H 0.9113 0.05884 0.1971 0.0
S657 S 0.01392 -0.00503 0.20312 0.0
N658 N 0.00941 0.01334 0.17042 0.0
N659 N 0.98572 0.00135 0.22477 0.0
C660 C 0.97113 0.01927 0.20563 0.0
C661 C 0.98397 0.02573 0.17606 0.0
C662 C 0.2719 0.77104 0.12503 0.0
C663 C 0.26503 0.78248 0.15495 0.0
C664 C 0.26901 0.78673 0.09723 0.0
C665 C 0.25897 0.81452 0.09801 0.0
H666 H 0.27966 0.74973 0.12293 0.0
H667 H 0.2746 0.77677 0.07489 0.0
S668 S 0.23804 0.85453 0.17033 0.0
N669 N 0.24778 0.82353 0.18373 0.0
N670 N 0.24225 0.85297 0.13145 0.0
C671 C 0.25202 0.82632 0.12778 0.0
C672 C 0.25508 0.81034 0.15621 0.0
C673 C 0.00108 0.47897 0.18332 0.0
C674 C 0.01681 0.46473 0.16081 0.0
C675 C 0.01241 0.483 0.2161 0.0
C676 C 0.04006 0.47311 0.22776 0.0
H677 H 0.97976 0.48713 0.17563 0.0
H678 H -0.00048 0.49431 0.23232 0.0
S679 S 0.09 0.43402 0.17901 0.0
N680 N 0.06147 0.44036 0.15275 0.0
N681 N 0.08268 0.44792 0.21416 0.0
C682 C 0.05594 0.45861 0.20558 0.0
C683 C 0.04435 0.45443 0.17221 0.0
C684 C 0.38816 0.7506 0.29747 0.0
C685 C 0.37443 0.7217 0.28554 0.0
C686 C 0.41708 0.75596 0.31626 0.0
C687 C 0.43342 0.73264 0.32404 0.0
H688 H 0.37615 0.76924 0.29306 0.0
H689 H 0.42618 0.77851 0.32556 0.0
S690 S 0.40953 0.6533 0.2959 0.0
N691 N 0.38084 0.6697 0.28074 0.0
N692 N 0.43502 0.67987 0.31618 0.0
C693 C 0.42067 0.70381 0.31117 0.0
C694 C 0.39127 0.69833 0.29189 0.0
C695 C 0.02551 0.33361 0.99562 0.0
C696 C 0.01297 0.35951 0.9892 0.0
C697 C 0.02556 0.31141 0.97131 0.0
C698 C 0.01329 0.31417 0.93941 0.0
H699 H 0.03516 0.33018 0.01977 0.0
H700 H 0.0353 0.29185 0.97771 0.0
S701 S 0.97791 0.37774 0.90953 0.0
N702 N 0.9881 0.38676 0.94832 0.0
N703 N 0.98832 0.34502 0.90255 0.0
C704 C 0.00097 0.3401 0.93243 0.0
C705 C 0.00076 0.36272 0.95732 0.0
C706 C 0.61059 0.75841 0.28536 0.0
C707 C 0.6367 0.77386 0.305 0.0
C708 C 0.58378 0.74567 0.29863 0.0
C709 C 0.58194 0.74788 0.33211 0.0
H710 H 0.61056 0.7565 0.25938 0.0
H711 H 0.56418 0.73445 0.28237 0.0
S712 S 0.64468 0.7842 0.39447 0.0
N713 N 0.65955 0.78932 0.35996 0.0
N714 N 0.60926 0.76548 0.38484 0.0
C715 C 0.60817 0.76261 0.35215 0.0
C716 C 0.63551 0.77555 0.33864 0.0
C717 C 0.01916 0.12642 0.98387 0.0
C718 C 0.03488 0.10236 0.97805 0.0
C719 C 0.01739 0.14829 0.96186 0.0
C720 C 0.03131 0.14726 0.93291 0.0
H721 H 0.00804 0.12857 0.00577 0.0
H722 H 0.0051 0.1663 0.96784 0.0
S723 S 0.07488 0.08873 0.9055 0.0
N724 N 0.06438 0.07859 0.94076 0.0
N725 N 0.0611 0.11981 0.89929 0.0
C726 C 0.04697 0.12324 0.92652 0.0
C727 C 0.04875 0.10081 0.94906 0.0
C728 C 0.33978 0.25917 0.2292 0.0
C729 C 0.34622 0.28087 0.25514 0.0
C730 C 0.3612 0.25672 0.20667 0.0
C731 C 0.38983 0.27608 0.2089 0.0
H732 H 0.31818 0.24357 0.22647 0.0
H733 H 0.35525 0.23936 0.18743 0.0
S734 S 0.41756 0.33759 0.27166 0.0
N735 N 0.3831 0.32263 0.28131 0.0
N736 N 0.42317 0.31824 0.23891 0.0
C737 C 0.39633 0.2983 0.23439 0.0
C738 C 0.37462 0.30061 0.25752 0.0
C739 C 0.50897 0.37988 0.06092 0.0
C740 C 0.50635 0.40999 0.06611 0.0
C741 C 0.50033 0.35923 0.08341 0.0
C742 C 0.4889 0.3678 0.11225 0.0
H743 H 0.51778 0.37205 0.03924 0.0
H744 H 0.50302 0.33638 0.07819 0.0
S745 S 0.47705 0.44395 0.1374 0.0
N746 N 0.49104 0.44733 0.10221 0.0
N747 N 0.47498 0.40856 0.14455 0.0
C748 C 0.48598 0.39783 0.11774 0.0
C749 C 0.49463 0.41888 0.09468 0.0
C750 C 0.56388 0.27727 0.29561 0.0
C751 C 0.5937 0.28079 0.28486 0.0
C752 C 0.53741 0.27961 0.27477 0.0
C753 C 0.53954 0.28558 0.24225 0.0
H754 H 0.56075 0.27204 0.32022 0.0
H755 H 0.515 0.27613 0.28423 0.0
S756 S 0.61245 0.29898 0.2025 0.0
N757 N 0.62401 0.29226 0.23984 0.0
N758 N 0.57426 0.29663 0.2007 0.0
C759 C 0.56933 0.29013 0.23138 0.0
C760 C 0.59636 0.28776 0.25266 0.0
C761 C 0.46807 0.17179 0.07079 0.0
C762 C 0.4799 0.14691 0.08224 0.0
C763 C 0.46501 0.1958 0.09177 0.0
C764 C 0.47356 0.19601 0.12519 0.0
H765 H 0.46189 0.17322 0.04522 0.0
H766 H 0.45659 0.2147 0.08147 0.0
S767 S 0.50279 0.13492 0.16802 0.0
N768 N 0.49803 0.12297 0.12961 0.0
N769 N 0.49223 0.16804 0.16906 0.0
C770 C 0.48409 0.17067 0.13721 0.0
C771 C 0.48728 0.14619 0.11576 0.0
C772 C 0.29199 0.3931 0.71311 0.0
C773 C 0.2859 0.37951 0.74185 0.0
C774 C 0.31197 0.4203 0.71349 0.0
C775 C 0.32664 0.43514 0.74263 0.0
H776 H 0.28116 0.38274 0.69001 0.0
H777 H 0.31577 0.42979 0.69067 0.0
S778 S 0.31875 0.40904 0.82478 0.0
N779 N 0.29646 0.38303 0.80042 0.0
N780 N 0.33384 0.43402 0.80113 0.0
C781 C 0.32091 0.42175 0.7716 0.0
C782 C 0.30063 0.394 0.77121 0.0
C783 C 0.28574 0.59953 0.81728 0.0
C784 C 0.29753 0.62716 0.80611 0.0
C785 C 0.30054 0.57478 0.81298 0.0
C786 C 0.32782 0.57656 0.79734 0.0
H787 H 0.26465 0.59681 0.82921 0.0
H788 H 0.29032 0.55404 0.82188 0.0
S789 S 0.36888 0.64404 0.76433 0.0
N790 N 0.33864 0.655 0.77926 0.0
N791 N 0.36646 0.60858 0.77118 0.0
C792 C 0.34014 0.60417 0.78638 0.0
C793 C 0.32502 0.62941 0.79076 0.0
C794 C 0.86324 0.48082 0.5274 0.0
C795 C 0.86475 0.49434 0.49791 0.0
C796 C 0.84026 0.45642 0.53092 0.0
C797 C 0.81829 0.44422 0.50491 0.0
H798 H 0.87963 0.48944 0.54812 0.0
H799 H 0.8398 0.44697 0.55418 0.0
S800 S 0.8127 0.47094 0.42232 0.0
N801 N 0.8425 0.49346 0.4421 0.0
N802 N 0.79971 0.44743 0.44852 0.0
C803 C 0.81985 0.45726 0.47514 0.0
C804 C 0.84294 0.48236 0.47171 0.0
C805 C 0.70504 0.88599 0.85874 0.0
C806 C 0.69349 0.85965 0.83953 0.0
C807 C 0.69146 0.91162 0.85522 0.0
C808 C 0.66558 0.912 0.83248 0.0
H809 H 0.72475 0.88692 0.87682 0.0
H810 H 0.70125 0.93122 0.87073 0.0
S811 S 0.62664 0.84906 0.7756 0.0
N812 N 0.6548 0.83571 0.79641 0.0
N813 N 0.62924 0.88377 0.7899 0.0
C814 C 0.65387 0.88587 0.8129 0.0
C815 C 0.66783 0.85978 0.81636 0.0
C816 C 0.64671 0.5349 0.01803 0.0
C817 C 0.62438 0.53807 0.03951 0.0
C818 C 0.67678 0.55137 0.02332 0.0
C819 C 0.68591 0.57127 0.05061 0.0
H820 H 0.64069 0.52025 0.99636 0.0
H821 H 0.69295 0.54856 0.00575 0.0
S822 S 0.63677 0.58654 0.11522 0.0
N823 N 0.61378 0.56192 0.08975 0.0
N824 N 0.6705 0.59252 0.1 0.0
C825 C 0.66414 0.574 0.07285 0.0
C826 C 0.63333 0.55752 0.06721 0.0
C827 C 0.18492 0.60208 0.25771 0.0
C828 C 0.2118 0.60792 0.27997 0.0
C829 C 0.16017 0.57963 0.26196 0.0
C830 C 0.16126 0.56199 0.2886 0.0
H831 H 0.18301 0.61472 0.23656 0.0
H832 H 0.14022 0.57587 0.24386 0.0
S833 S 0.22573 0.56907 0.35481 0.0
N834 N 0.23753 0.59477 0.33038 0.0
N835 N 0.1911 0.55263 0.33826 0.0
C836 C 0.18775 0.56792 0.3114 0.0
C837 C 0.21296 0.59085 0.30711 0.0
C838 C 0.90506 0.55826 0.03257 0.0
C839 C 0.8952 0.53093 0.04548 0.0
C840 C 0.88497 0.57912 0.02785 0.0
C841 C 0.85419 0.57364 0.03601 0.0
H842 H 0.92852 0.56364 0.02589 0.0
H843 H 0.89377 0.59976 0.01778 0.0
S844 S 0.81681 0.50552 0.07092 0.0
N845 N 0.85248 0.49956 0.0665 0.0
N846 N 0.81482 0.53866 0.05778 0.0
C847 C 0.84402 0.5464 0.04906 0.0
C848 C 0.86446 0.5251 0.05373 0.0
C849 C 0.15436 0.98017 0.05498 0.0
C850 C 0.12607 0.96978 0.03579 0.0
C851 C 0.17914 0.96403 0.05613 0.0
C852 C 0.1768 0.93672 0.03816 0.0
H853 H 0.15748 0.001 0.0694 0.0
H854 H 0.20032 0.97316 0.07134 0.0
S855 S 0.10779 0.89956 0.98383 0.0
N856 N 0.09722 0.93032 0.99819 0.0
N857 N 0.14374 0.90001 0.00036 0.0
C858 C 0.14866 0.92602 0.01877 0.0
C859 C 0.12336 0.94252 0.01757 0.0
loop_
_geom_bond_atom_site_label_1
_geom_bond_atom_site_label_2
_geom_bond_distance
_geom_bond_site_symmetry_2
_ccdc_geom_bond_type
O0 Cd1 2.300 . S
O0 C7 1.275 . S
Cd1 O0 2.300 . S
Cd1 O9 2.381 . S
Cd1 O10 2.378 . S
O2 Cd3 2.385 . S
O2 C7 1.255 . S
Cd3 O2 2.385 . S
Cd3 O4 2.317 . S
O4 Cd3 2.317 . S
O4 C5 1.232 1_455 S
C5 O4 1.232 1_655 S
C5 O6 1.218 . S
O6 C5 1.218 . S
C7 O0 1.275 . S
C7 O2 1.255 . S
C8 O9 1.258 1_565 S
C8 O10 1.256 1_565 S
O9 Cd1 2.381 . S
O9 C8 1.258 1_545 S
O10 Cd1 2.378 . S
O10 C8 1.256 1_545 S
O11 Cd12 2.300 . S
O11 C18 1.275 . S
Cd12 O11 2.300 . S
Cd12 O20 2.381 . S
Cd12 O21 2.378 . S
O13 Cd14 2.385 . S
O13 C18 1.255 . S
Cd14 O13 2.385 . S
Cd14 O15 2.317 . S
O15 Cd14 2.317 . S
O15 C16 1.232 . S
C16 O15 1.232 . S
C16 O17 1.218 . S
O17 C16 1.218 . S
C18 O11 1.275 . S
C18 O13 1.255 . S
C19 O20 1.258 . S
C19 O21 1.256 . S
O20 Cd12 2.381 . S
O20 C19 1.258 . S
O21 Cd12 2.378 . S
O21 C19 1.256 . S
O22 Cd23 2.300 . S
O22 C29 1.275 . S
Cd23 O22 2.300 . S
Cd23 O31 2.381 . S
Cd23 O32 2.378 . S
O24 Cd25 2.385 . S
O24 C29 1.255 1_455 S
Cd25 O24 2.385 . S
Cd25 O26 2.317 1_455 S
O26 Cd25 2.317 1_655 S
O26 C27 1.232 . S
C27 O26 1.232 . S
C27 O28 1.218 1_655 S
O28 C27 1.218 1_455 S
C29 O22 1.275 . S
C29 O24 1.255 1_655 S
C30 O31 1.258 . S
C30 O32 1.256 . S
O31 Cd23 2.381 . S
O31 C30 1.258 . S
O32 Cd23 2.378 . S
O32 C30 1.256 . S
O33 Cd34 2.300 . S
O33 C40 1.275 . S
Cd34 O33 2.300 . S
Cd34 O42 2.381 . S
Cd34 O43 2.378 . S
O35 Cd36 2.385 . S
O35 C40 1.255 . S
Cd36 O35 2.385 . S
Cd36 O37 2.317 . S
O37 Cd36 2.317 . S
O37 C38 1.232 . S
C38 O37 1.232 . S
C38 O39 1.218 . S
O39 C38 1.218 . S
C40 O33 1.275 . S
C40 O35 1.255 . S
C41 O42 1.258 . S
C41 O43 1.256 . S
O42 Cd34 2.381 . S
O42 C41 1.258 . S
O43 Cd34 2.378 . S
O43 C41 1.256 . S
O44 Cd45 2.300 . S
O44 C51 1.275 1_565 S
Cd45 O44 2.300 . S
Cd45 O53 2.381 . S
Cd45 O54 2.378 . S
O46 Cd47 2.385 . S
O46 C51 1.255 . S
Cd47 O46 2.385 . S
Cd47 O48 2.317 . S
O48 Cd47 2.317 . S
O48 C49 1.232 . S
C49 O48 1.232 . S
C49 O50 1.218 . S
O50 C49 1.218 . S
C51 O44 1.275 1_545 S
C51 O46 1.255 . S
C52 O53 1.258 . S
C52 O54 1.256 . S
O53 Cd45 2.381 . S
O53 C52 1.258 . S
O54 Cd45 2.378 . S
O54 C52 1.256 . S
O55 Cd56 2.300 . S
O55 C62 1.275 . S
Cd56 O55 2.300 . S
Cd56 O64 2.381 . S
Cd56 O65 2.378 . S
O57 Cd58 2.385 . S
O57 C62 1.255 . S
Cd58 O57 2.385 . S
Cd58 O59 2.317 . S
O59 Cd58 2.317 . S
O59 C60 1.232 . S
C60 O59 1.232 . S
C60 O61 1.218 . S
O61 C60 1.218 . S
C62 O55 1.275 . S
C62 O57 1.255 . S
C63 O64 1.258 . S
C63 O65 1.256 . S
O64 Cd56 2.381 . S
O64 C63 1.258 . S
O65 Cd56 2.378 . S
O65 C63 1.256 . S
O66 Cd67 2.300 . S
O66 C73 1.275 1_655 S
Cd67 O66 2.300 . S
Cd67 O75 2.381 . S
Cd67 O76 2.378 . S
O68 Cd69 2.385 . S
O68 C73 1.255 . S
Cd69 O68 2.385 . S
Cd69 O70 2.317 . S
O70 Cd69 2.317 . S
O70 C71 1.232 . S
C71 O70 1.232 . S
C71 O72 1.218 . S
O72 C71 1.218 . S
C73 O66 1.275 1_455 S
C73 O68 1.255 . S
C74 O75 1.258 . S
C74 O76 1.256 . S
O75 Cd67 2.381 . S
O75 C74 1.258 . S
O76 Cd67 2.378 . S
O76 C74 1.256 . S
O77 Cd78 2.300 . S
O77 C84 1.275 . S
Cd78 O77 2.300 . S
Cd78 O86 2.381 . S
Cd78 O87 2.378 . S
O79 Cd80 2.385 . S
O79 C84 1.255 . S
Cd80 O79 2.385 . S
Cd80 O81 2.317 . S
O81 Cd80 2.317 . S
O81 C82 1.232 . S
C82 O81 1.232 . S
C82 O83 1.218 . S
O83 C82 1.218 . S
C84 O77 1.275 . S
C84 O79 1.255 . S
C85 O86 1.258 . S
C85 O87 1.256 . S
O86 Cd78 2.381 . S
O86 C85 1.258 . S
O87 Cd78 2.378 . S
O87 C85 1.256 . S
O88 Cd89 2.300 . S
O88 C95 1.275 . S
Cd89 O88 2.300 . S
Cd89 O97 2.381 . S
Cd89 O98 2.378 . S
O90 Cd91 2.385 . S
O90 C95 1.255 . S
Cd91 O90 2.385 . S
Cd91 O92 2.317 . S
O92 Cd91 2.317 . S
O92 C93 1.232 . S
C93 O92 1.232 . S
C93 O94 1.218 . S
O94 C93 1.218 . S
C95 O88 1.275 . S
C95 O90 1.255 . S
C96 O97 1.258 . S
C96 O98 1.256 . S
O97 Cd89 2.381 . S
O97 C96 1.258 . S
O98 Cd89 2.378 . S
O98 C96 1.256 . S
O99 Cd100 2.300 1_565 S
O99 C106 1.275 . S
Cd100 O99 2.300 1_545 S
Cd100 O108 2.381 . S
Cd100 O109 2.378 . S
O101 Cd102 2.385 . S
O101 C106 1.255 . S
Cd102 O101 2.385 . S
Cd102 O103 2.317 . S
O103 Cd102 2.317 . S
O103 C104 1.232 . S
C104 O103 1.232 . S
C104 O105 1.218 . S
O105 C104 1.218 . S
C106 O99 1.275 . S
C106 O101 1.255 . S
C107 O108 1.258 . S
C107 O109 1.256 . S
O108 Cd100 2.381 . S
O108 C107 1.258 . S
O109 Cd100 2.378 . S
O109 C107 1.256 . S
O110 Cd111 2.300 . S
O110 C117 1.275 . S
Cd111 O110 2.300 . S
Cd111 O119 2.381 . S
Cd111 O120 2.378 . S
O112 Cd113 2.385 . S
O112 C117 1.255 . S
Cd113 O112 2.385 . S
Cd113 O114 2.317 . S
O114 Cd113 2.317 . S
O114 C115 1.232 . S
C115 O114 1.232 . S
C115 O116 1.218 . S
O116 C115 1.218 . S
C117 O110 1.275 . S
C117 O112 1.255 . S
C118 O119 1.258 . S
C118 O120 1.256 . S
O119 Cd111 2.381 . S
O119 C118 1.258 . S
O120 Cd111 2.378 . S
O120 C118 1.256 . S
O121 Cd122 2.300 . S
O121 C128 1.275 . S
Cd122 O121 2.300 . S
Cd122 O130 2.381 . S
Cd122 O131 2.378 . S
O123 Cd124 2.385 . S
O123 C128 1.255 . S
Cd124 O123 2.385 . S
Cd124 O125 2.317 . S
O125 Cd124 2.317 . S
O125 C126 1.232 . S
C126 O125 1.232 . S
C126 O127 1.218 . S
O127 C126 1.218 . S
C128 O121 1.275 . S
C128 O123 1.255 . S
C129 O130 1.258 . S
C129 O131 1.256 . S
O130 Cd122 2.381 . S
O130 C129 1.258 . S
O131 Cd122 2.378 . S
O131 C129 1.256 . S
O132 Cd133 2.300 . S
O132 C139 1.275 . S
Cd133 O132 2.300 . S
Cd133 O141 2.381 . S
Cd133 O142 2.378 . S
O134 Cd135 2.385 . S
O134 C139 1.255 . S
Cd135 O134 2.385 . S
Cd135 O136 2.317 . S
O136 Cd135 2.317 . S
O136 C137 1.232 . S
C137 O136 1.232 . S
C137 O138 1.218 . S
O138 C137 1.218 . S
C139 O132 1.275 . S
C139 O134 1.255 . S
C140 O141 1.258 . S
C140 O142 1.256 . S
O141 Cd133 2.381 . S
O141 C140 1.258 . S
O142 Cd133 2.378 . S
O142 C140 1.256 . S
O143 Cd144 2.300 1_556 S
O143 C150 1.275 . S
Cd144 O143 2.300 1_554 S
Cd144 O152 2.381 . S
Cd144 O153 2.378 . S
O145 Cd146 2.385 . S
O145 C150 1.255 . S
Cd146 O145 2.385 . S
Cd146 O147 2.317 . S
O147 Cd146 2.317 . S
O147 C148 1.232 . S
C148 O147 1.232 . S
C148 O149 1.218 . S
O149 C148 1.218 . S
C150 O143 1.275 . S
C150 O145 1.255 . S
C151 O152 1.258 . S
C151 O153 1.256 . S
O152 Cd144 2.381 . S
O152 C151 1.258 . S
O153 Cd144 2.378 . S
O153 C151 1.256 . S
O154 Cd155 2.300 . S
O154 C161 1.275 . S
Cd155 O154 2.300 . S
Cd155 O163 2.381 . S
Cd155 O164 2.378 . S
O156 Cd157 2.385 . S
O156 C161 1.255 . S
Cd157 O156 2.385 . S
Cd157 O158 2.317 . S
O158 Cd157 2.317 . S
O158 C159 1.232 . S
C159 O158 1.232 . S
C159 O160 1.218 . S
O160 C159 1.218 . S
C161 O154 1.275 . S
C161 O156 1.255 . S
C162 O163 1.258 . S
C162 O164 1.256 . S
O163 Cd155 2.381 . S
O163 C162 1.258 . S
O164 Cd155 2.378 . S
O164 C162 1.256 . S
O165 Cd166 2.300 1_556 S
O165 C172 1.275 . S
Cd166 O165 2.300 1_554 S
Cd166 O174 2.381 1_544 S
Cd166 O175 2.378 1_545 S
O167 Cd168 2.385 1_556 S
O167 C172 1.255 . S
Cd168 O167 2.385 1_554 S
Cd168 O169 2.317 . S
O169 Cd168 2.317 . S
O169 C170 1.232 . S
C170 O169 1.232 . S
C170 O171 1.218 . S
O171 C170 1.218 . S
C172 O165 1.275 . S
C172 O167 1.255 . S
C173 O174 1.258 1_554 S
C173 O175 1.256 . S
O174 Cd166 2.381 1_566 S
O174 C173 1.258 1_556 S
O175 Cd166 2.378 1_565 S
O175 C173 1.256 . S
C176 O177 1.160 1_554 S
C176 O183 1.185 . S
O177 C176 1.160 1_556 S
O178 Zn179 1.899 1_556 S
O178 C186 1.284 . S
Zn179 O178 1.899 1_554 S
Zn179 O180 2.032 . S
Zn179 O183 2.086 . S
Zn179 O188 1.977 . S
O180 Zn179 2.032 . S
O180 C184 1.278 . S
C181 O182 1.203 . S
C181 O188 1.267 . S
O182 C181 1.203 . S
O183 C176 1.185 . S
O183 Zn179 2.086 . S
C184 O180 1.278 . S
C184 O185 1.211 . S
O185 C184 1.211 . S
C186 O178 1.284 . S
C186 O187 1.273 . S
O187 C186 1.273 . S
O188 Zn179 1.977 . S
O188 C181 1.267 . S
C189 O190 1.160 . S
C189 O196 1.185 . S
O190 C189 1.160 . S
O191 Zn192 1.899 . S
O191 C199 1.284 . S
Zn192 O191 1.899 . S
Zn192 O193 2.032 . S
Zn192 O196 2.086 . S
Zn192 O201 1.977 . S
O193 Zn192 2.032 . S
O193 C197 1.278 . S
C194 O195 1.203 . S
C194 O201 1.267 . S
O195 C194 1.203 . S
O196 C189 1.185 . S
O196 Zn192 2.086 . S
C197 O193 1.278 . S
C197 O198 1.211 . S
O198 C197 1.211 . S
C199 O191 1.284 . S
C199 O200 1.273 . S
O200 C199 1.273 . S
O201 Zn192 1.977 . S
O201 C194 1.267 . S
C202 O203 1.160 1_554 S
C202 O209 1.185 . S
O203 C202 1.160 1_556 S
O204 Zn205 1.899 1_556 S
O204 C212 1.284 . S
Zn205 O204 1.899 1_554 S
Zn205 O206 2.030 1_554 S
Zn205 O209 2.086 . S
Zn205 O214 1.977 . S
O206 Zn205 2.030 1_556 S
O206 C210 1.278 . S
C207 O208 1.203 . S
C207 O214 1.267 . S
O208 C207 1.203 . S
O209 C202 1.185 . S
O209 Zn205 2.086 . S
C210 O206 1.278 . S
C210 O211 1.207 1_556 S
O211 C210 1.207 1_554 S
C212 O204 1.284 . S
C212 O213 1.273 . S
O213 C212 1.273 . S
O214 Zn205 1.977 . S
O214 C207 1.267 . S
C215 O216 1.160 . S
C215 O222 1.185 . S
O216 C215 1.160 . S
O217 Zn218 1.899 . S
O217 C225 1.284 . S
Zn218 O217 1.899 . S
Zn218 O219 2.032 . S
Zn218 O222 2.086 . S
Zn218 O227 1.977 . S
O219 Zn218 2.032 . S
O219 C223 1.278 1_545 S
C220 O221 1.203 . S
C220 O227 1.267 . S
O221 C220 1.203 . S
O222 C215 1.185 . S
O222 Zn218 2.086 . S
C223 O219 1.278 1_565 S
C223 O224 1.211 . S
O224 C223 1.211 . S
C225 O217 1.284 . S
C225 O226 1.273 1_545 S
O226 C225 1.273 1_565 S
O227 Zn218 1.977 . S
O227 C220 1.267 . S
C228 O229 1.160 . S
C228 O235 1.185 . S
O229 C228 1.160 . S
O230 Zn231 1.899 . S
O230 C238 1.284 . S
Zn231 O230 1.899 . S
Zn231 O232 2.032 . S
Zn231 O235 2.086 . S
Zn231 O240 1.977 . S
O232 Zn231 2.032 . S
O232 C236 1.278 . S
C233 O234 1.203 . S
C233 O240 1.267 . S
O234 C233 1.203 . S
O235 C228 1.185 . S
O235 Zn231 2.086 . S
C236 O232 1.278 . S
C236 O237 1.211 . S
O237 C236 1.211 . S
C238 O230 1.284 . S
C238 O239 1.273 . S
O239 C238 1.273 . S
O240 Zn231 1.977 . S
O240 C233 1.267 . S
C241 O242 1.160 . S
C241 O248 1.185 . S
O242 C241 1.160 . S
O243 Zn244 1.899 . S
O243 C251 1.284 . S
Zn244 O243 1.899 . S
Zn244 O245 2.032 . S
Zn244 O248 2.086 . S
Zn244 O253 1.977 . S
O245 Zn244 2.032 . S
O245 C249 1.278 . S
C246 O247 1.203 . S
C246 O253 1.267 . S
O247 C246 1.203 . S
O248 C241 1.185 . S
O248 Zn244 2.086 . S
C249 O245 1.278 . S
C249 O250 1.211 . S
O250 C249 1.211 . S
C251 O243 1.284 . S
C251 O252 1.273 . S
O252 C251 1.273 . S
O253 Zn244 1.977 . S
O253 C246 1.267 . S
C254 O255 1.160 . S
C254 O261 1.185 . S
O255 C254 1.160 . S
O256 Zn257 1.899 . S
O256 C264 1.284 . S
Zn257 O256 1.899 . S
Zn257 O258 2.032 . S
Zn257 O261 2.086 . S
Zn257 O266 1.977 . S
O258 Zn257 2.032 . S
O258 C262 1.278 . S
C259 O260 1.203 . S
C259 O266 1.267 . S
O260 C259 1.203 . S
O261 C254 1.185 . S
O261 Zn257 2.086 . S
C262 O258 1.278 . S
C262 O263 1.211 . S
O263 C262 1.211 . S
C264 O256 1.284 . S
C264 O265 1.273 . S
O265 C264 1.273 . S
O266 Zn257 1.977 . S
O266 C259 1.267 . S
C267 O268 1.160 . S
C267 O274 1.185 . S
O268 C267 1.160 . S
O269 Zn270 1.899 . S
O269 C277 1.284 1_565 S
Zn270 O269 1.899 . S
Zn270 O271 2.032 1_565 S
Zn270 O274 2.086 . S
Zn270 O279 1.977 . S
O271 Zn270 2.032 1_545 S
O271 C275 1.278 . S
C272 O273 1.203 1_565 S
C272 O279 1.267 . S
O273 C272 1.203 1_545 S
O274 C267 1.185 . S
O274 Zn270 2.086 . S
C275 O271 1.278 . S
C275 O276 1.211 . S
O276 C275 1.211 . S
C277 O269 1.284 1_545 S
C277 O278 1.273 . S
O278 C277 1.273 . S
O279 Zn270 1.977 . S
O279 C272 1.267 . S
C280 O281 1.160 1_455 S
C280 O287 1.185 . S
O281 C280 1.160 1_655 S
O282 Zn283 1.899 1_655 S
O282 C290 1.284 . S
Zn283 O282 1.899 1_455 S
Zn283 O284 2.032 . S
Zn283 O287 2.086 . S
Zn283 O292 1.977 . S
O284 Zn283 2.032 . S
O284 C288 1.278 . S
C285 O286 1.203 . S
C285 O292 1.267 . S
O286 C285 1.203 . S
O287 C280 1.185 . S
O287 Zn283 2.086 . S
C288 O284 1.278 . S
C288 O289 1.211 . S
O289 C288 1.211 . S
C290 O282 1.284 . S
C290 O291 1.273 . S
O291 C290 1.273 . S
O292 Zn283 1.977 . S
O292 C285 1.267 . S
C293 O294 1.160 . S
C293 O300 1.185 . S
O294 C293 1.160 . S
O295 Zn296 1.899 . S
O295 C303 1.284 . S
Zn296 O295 1.899 . S
Zn296 O297 2.032 . S
Zn296 O300 2.086 . S
Zn296 O305 1.977 . S
O297 Zn296 2.032 . S
O297 C301 1.278 . S
C298 O299 1.203 . S
C298 O305 1.267 . S
O299 C298 1.203 . S
O300 C293 1.185 . S
O300 Zn296 2.086 . S
C301 O297 1.278 . S
C301 O302 1.211 . S
O302 C301 1.211 . S
C303 O295 1.284 . S
C303 O304 1.273 . S
O304 C303 1.273 . S
O305 Zn296 1.977 . S
O305 C298 1.267 . S
C306 O307 1.160 . S
C306 O313 1.185 . S
O307 C306 1.160 . S
O308 Zn309 1.899 . S
O308 C316 1.284 1_455 S
Zn309 O308 1.899 . S
Zn309 O310 2.032 . S
Zn309 O313 2.086 . S
Zn309 O318 1.977 . S
O310 Zn309 2.032 . S
O310 C314 1.278 . S
C311 O312 1.203 . S
C311 O318 1.267 . S
O312 C311 1.203 . S
O313 C306 1.185 . S
O313 Zn309 2.086 . S
C314 O310 1.278 . S
C314 O315 1.211 . S
O315 C314 1.211 . S
C316 O308 1.284 1_655 S
C316 O317 1.273 . S
O317 C316 1.273 . S
O318 Zn309 1.977 . S
O318 C311 1.267 . S
C319 O320 1.160 . S
C319 O326 1.185 . S
O320 C319 1.160 . S
O321 Zn322 1.899 . S
O321 C329 1.284 . S
Zn322 O321 1.899 . S
Zn322 O323 2.032 . S
Zn322 O326 2.086 . S
Zn322 O331 1.977 . S
O323 Zn322 2.032 . S
O323 C327 1.278 . S
C324 O325 1.203 . S
C324 O331 1.267 . S
O325 C324 1.203 . S
O326 C319 1.185 . S
O326 Zn322 2.086 . S
C327 O323 1.278 . S
C327 O328 1.211 . S
O328 C327 1.211 . S
C329 O321 1.284 . S
C329 O330 1.273 . S
O330 C329 1.273 . S
O331 Zn322 1.977 . S
O331 C324 1.267 . S
C332 C333 1.369 . S
C332 C334 1.419 . S
C332 H336 0.930 . S
C333 C332 1.369 . S
C333 C342 1.429 . S
C334 C332 1.419 . S
C334 C335 1.363 . S
C334 H337 0.929 . S
C335 C334 1.363 . S
C335 C341 1.428 . S
H336 C332 0.930 . S
H337 C334 0.929 . S
S338 N339 1.613 . S
S338 N340 1.610 . S
N339 S338 1.613 . S
N339 C342 1.350 . S
N340 S338 1.610 . S
N340 C341 1.351 . S
C341 C335 1.428 . S
C341 N340 1.351 . S
C341 C342 1.434 . S
C342 C333 1.429 . S
C342 N339 1.350 . S
C342 C341 1.434 . S
C343 C344 1.369 . S
C343 C345 1.419 . S
C343 H347 0.930 . S
C344 C343 1.369 . S
C344 C353 1.429 . S
C345 C343 1.419 . S
C345 C346 1.363 . S
C345 H348 0.929 . S
C346 C345 1.363 . S
C346 C352 1.428 . S
H347 C343 0.930 . S
H348 C345 0.929 . S
S349 N350 1.613 . S
S349 N351 1.610 . S
N350 S349 1.613 . S
N350 C353 1.350 . S
N351 S349 1.610 . S
N351 C352 1.351 . S
C352 C346 1.428 . S
C352 N351 1.351 . S
C352 C353 1.434 . S
C353 C344 1.429 . S
C353 N350 1.350 . S
C353 C352 1.434 . S
C354 C355 1.369 . S
C354 C356 1.419 . S
C354 H358 0.930 . S
C355 C354 1.369 . S
C355 C364 1.429 . S
C356 C354 1.419 . S
C356 C357 1.363 . S
C356 H359 0.929 . S
C357 C356 1.363 . S
C357 C363 1.428 . S
H358 C354 0.930 . S
H359 C356 0.929 . S
S360 N361 1.613 . S
S360 N362 1.610 . S
N361 S360 1.613 . S
N361 C364 1.350 . S
N362 S360 1.610 . S
N362 C363 1.351 . S
C363 C357 1.428 . S
C363 N362 1.351 . S
C363 C364 1.434 . S
C364 C355 1.429 . S
C364 N361 1.350 . S
C364 C363 1.434 . S
C365 C366 1.369 1_565 S
C365 C367 1.419 . S
C365 H369 0.930 . S
C366 C365 1.369 1_545 S
C366 C375 1.429 . S
C367 C365 1.419 . S
C367 C368 1.363 1_565 S
C367 H370 0.929 . S
C368 C367 1.363 1_545 S
C368 C374 1.428 . S
H369 C365 0.930 . S
H370 C367 0.929 . S
S371 N372 1.613 . S
S371 N373 1.610 . S
N372 S371 1.613 . S
N372 C375 1.350 . S
N373 S371 1.610 . S
N373 C374 1.351 . S
C374 C368 1.428 . S
C374 N373 1.351 . S
C374 C375 1.434 . S
C375 C366 1.429 . S
C375 N372 1.350 . S
C375 C374 1.434 . S
C376 C377 1.369 . S
C376 C378 1.419 . S
C376 H380 0.930 . S
C377 C376 1.369 . S
C377 C386 1.429 . S
C378 C376 1.419 . S
C378 C379 1.363 . S
C378 H381 0.929 . S
C379 C378 1.363 . S
C379 C385 1.428 . S
H380 C376 0.930 . S
H381 C378 0.929 . S
S382 N383 1.613 . S
S382 N384 1.610 . S
N383 S382 1.613 . S
N383 C386 1.350 . S
N384 S382 1.610 . S
N384 C385 1.351 . S
C385 C379 1.428 . S
C385 N384 1.351 . S
C385 C386 1.434 . S
C386 C377 1.429 . S
C386 N383 1.350 . S
C386 C385 1.434 . S
C387 C388 1.369 . S
C387 C389 1.419 . S
C387 H391 0.930 . S
C388 C387 1.369 . S
C388 C397 1.429 . S
C389 C387 1.419 . S
C389 C390 1.363 . S
C389 H392 0.929 . S
C390 C389 1.363 . S
C390 C396 1.428 . S
H391 C387 0.930 . S
H392 C389 0.929 . S
S393 N394 1.613 . S
S393 N395 1.610 . S
N394 S393 1.613 . S
N394 C397 1.350 . S
N395 S393 1.610 . S
N395 C396 1.351 . S
C396 C390 1.428 . S
C396 N395 1.351 . S
C396 C397 1.434 . S
C397 C388 1.429 . S
C397 N394 1.350 . S
C397 C396 1.434 . S
C398 C399 1.369 . S
C398 C400 1.419 . S
C398 H402 0.930 . S
C399 C398 1.369 . S
C399 C408 1.429 . S
C400 C398 1.419 . S
C400 C401 1.363 . S
C400 H403 0.929 . S
C401 C400 1.363 . S
C401 C407 1.428 . S
H402 C398 0.930 . S
H403 C400 0.929 . S
S404 N405 1.613 . S
S404 N406 1.610 . S
N405 S404 1.613 . S
N405 C408 1.350 . S
N406 S404 1.610 . S
N406 C407 1.351 . S
C407 C401 1.428 . S
C407 N406 1.351 . S
C407 C408 1.434 . S
C408 C399 1.429 . S
C408 N405 1.350 . S
C408 C407 1.434 . S
C409 C410 1.369 . S
C409 C411 1.419 . S
C409 H413 0.930 . S
C410 C409 1.369 . S
C410 C419 1.429 1_565 S
C411 C409 1.419 . S
C411 C412 1.363 . S
C411 H414 0.929 . S
C412 C411 1.363 . S
C412 C418 1.428 1_565 S
H413 C409 0.930 . S
H414 C411 0.929 . S
S415 N416 1.613 . S
S415 N417 1.610 . S
N416 S415 1.613 . S
N416 C419 1.350 . S
N417 S415 1.610 . S
N417 C418 1.351 . S
C418 C412 1.428 1_545 S
C418 N417 1.351 . S
C418 C419 1.434 . S
C419 C410 1.429 1_545 S
C419 N416 1.350 . S
C419 C418 1.434 . S
C420 C421 1.369 . S
C420 C422 1.419 . S
C420 H424 0.930 . S
C421 C420 1.369 . S
C421 C430 1.429 . S
C422 C420 1.419 . S
C422 C423 1.363 . S
C422 H425 0.929 . S
C423 C422 1.363 . S
C423 C429 1.428 . S
H424 C420 0.930 . S
H425 C422 0.929 . S
S426 N427 1.613 . S
S426 N428 1.610 . S
N427 S426 1.613 . S
N427 C430 1.350 . S
N428 S426 1.610 . S
N428 C429 1.351 . S
C429 C423 1.428 . S
C429 N428 1.351 . S
C429 C430 1.434 . S
C430 C421 1.429 . S
C430 N427 1.350 . S
C430 C429 1.434 . S
C431 C432 1.369 . S
C431 C433 1.419 . S
C431 H435 0.930 . S
C432 C431 1.369 . S
C432 C441 1.429 . S
C433 C431 1.419 . S
C433 C434 1.363 . S
C433 H436 0.929 . S
C434 C433 1.363 . S
C434 C440 1.428 . S
H435 C431 0.930 . S
H436 C433 0.929 . S
S437 N438 1.613 . S
S437 N439 1.610 . S
N438 S437 1.613 . S
N438 C441 1.350 . S
N439 S437 1.610 . S
N439 C440 1.351 . S
C440 C434 1.428 . S
C440 N439 1.351 . S
C440 C441 1.434 . S
C441 C432 1.429 . S
C441 N438 1.350 . S
C441 C440 1.434 . S
C442 C443 1.369 . S
C442 C444 1.419 . S
C442 H446 0.930 . S
C443 C442 1.369 . S
C443 C452 1.429 . S
C444 C442 1.419 . S
C444 C445 1.363 . S
C444 H447 0.929 . S
C445 C444 1.363 . S
C445 C451 1.428 . S
H446 C442 0.930 . S
H447 C444 0.929 . S
S448 N449 1.613 . S
S448 N450 1.610 . S
N449 S448 1.613 . S
N449 C452 1.350 . S
N450 S448 1.610 . S
N450 C451 1.351 . S
C451 C445 1.428 . S
C451 N450 1.351 . S
C451 C452 1.434 . S
C452 C443 1.429 . S
C452 N449 1.350 . S
C452 C451 1.434 . S
C453 C454 1.369 . S
C453 C455 1.419 . S
C453 H457 0.930 . S
C454 C453 1.369 . S
C454 C463 1.429 . S
C455 C453 1.419 . S
C455 C456 1.363 . S
C455 H458 0.929 . S
C456 C455 1.363 . S
C456 C462 1.428 . S
H457 C453 0.930 . S
H458 C455 0.929 . S
S459 N460 1.613 . S
S459 N461 1.610 . S
N460 S459 1.613 . S
N460 C463 1.350 . S
N461 S459 1.610 . S
N461 C462 1.351 . S
C462 C456 1.428 . S
C462 N461 1.351 . S
C462 C463 1.434 . S
C463 C454 1.429 . S
C463 N460 1.350 . S
C463 C462 1.434 . S
C464 C465 1.369 . S
C464 C466 1.419 . S
C464 H468 0.930 . S
C465 C464 1.369 . S
C465 C474 1.429 . S
C466 C464 1.419 . S
C466 C467 1.363 . S
C466 H469 0.929 . S
C467 C466 1.363 . S
C467 C473 1.428 . S
H468 C464 0.930 . S
H469 C466 0.929 . S
S470 N471 1.613 . S
S470 N472 1.610 . S
N471 S470 1.613 . S
N471 C474 1.350 . S
N472 S470 1.610 . S
N472 C473 1.351 . S
C473 C467 1.428 . S
C473 N472 1.351 . S
C473 C474 1.434 . S
C474 C465 1.429 . S
C474 N471 1.350 . S
C474 C473 1.434 . S
C475 C476 1.369 . S
C475 C477 1.419 . S
C475 H479 0.930 . S
C476 C475 1.369 . S
C476 C485 1.429 . S
C477 C475 1.419 . S
C477 C478 1.363 . S
C477 H480 0.929 . S
C478 C477 1.363 . S
C478 C484 1.428 . S
H479 C475 0.930 . S
H480 C477 0.929 . S
S481 N482 1.613 . S
S481 N483 1.610 . S
N482 S481 1.613 . S
N482 C485 1.350 . S
N483 S481 1.610 . S
N483 C484 1.351 . S
C484 C478 1.428 . S
C484 N483 1.351 . S
C484 C485 1.434 . S
C485 C476 1.429 . S
C485 N482 1.350 . S
C485 C484 1.434 . S
C486 C487 1.369 . S
C486 C488 1.419 . S
C486 H490 0.930 . S
C487 C486 1.369 . S
C487 C496 1.429 . S
C488 C486 1.419 . S
C488 C489 1.363 . S
C488 H491 0.929 . S
C489 C488 1.363 . S
C489 C495 1.428 . S
H490 C486 0.930 . S
H491 C488 0.929 . S
S492 N493 1.613 . S
S492 N494 1.610 . S
N493 S492 1.613 . S
N493 C496 1.350 . S
N494 S492 1.610 . S
N494 C495 1.351 . S
C495 C489 1.428 . S
C495 N494 1.351 . S
C495 C496 1.434 . S
C496 C487 1.429 . S
C496 N493 1.350 . S
C496 C495 1.434 . S
C497 C498 1.369 . S
C497 C499 1.419 . S
C497 H501 0.930 . S
C498 C497 1.369 . S
C498 C507 1.429 1_455 S
C499 C497 1.419 . S
C499 C500 1.363 . S
C499 H502 0.929 . S
C500 C499 1.363 . S
C500 C506 1.428 1_455 S
H501 C497 0.930 . S
H502 C499 0.929 . S
S503 N504 1.613 . S
S503 N505 1.610 . S
N504 S503 1.613 . S
N504 C507 1.350 . S
N505 S503 1.610 . S
N505 C506 1.351 . S
C506 C500 1.428 1_655 S
C506 N505 1.351 . S
C506 C507 1.434 . S
C507 C498 1.429 1_655 S
C507 N504 1.350 . S
C507 C506 1.434 . S
C508 C509 1.369 . S
C508 C510 1.419 . S
C508 H512 0.930 . S
C509 C508 1.369 . S
C509 C518 1.429 . S
C510 C508 1.419 . S
C510 C511 1.363 . S
C510 H513 0.929 . S
C511 C510 1.363 . S
C511 C517 1.428 . S
H512 C508 0.930 . S
H513 C510 0.929 . S
S514 N515 1.613 . S
S514 N516 1.610 . S
N515 S514 1.613 . S
N515 C518 1.350 . S
N516 S514 1.610 . S
N516 C517 1.351 . S
C517 C511 1.428 . S
C517 N516 1.351 . S
C517 C518 1.434 . S
C518 C509 1.429 . S
C518 N515 1.350 . S
C518 C517 1.434 . S
C519 C520 1.369 . S
C519 C521 1.419 . S
C519 H523 0.930 . S
C520 C519 1.369 . S
C520 C529 1.429 . S
C521 C519 1.419 . S
C521 C522 1.363 . S
C521 H524 0.929 . S
C522 C521 1.363 . S
C522 C528 1.428 . S
H523 C519 0.930 . S
H524 C521 0.929 . S
S525 N526 1.613 . S
S525 N527 1.610 . S
N526 S525 1.613 . S
N526 C529 1.350 . S
N527 S525 1.610 . S
N527 C528 1.351 . S
C528 C522 1.428 . S
C528 N527 1.351 . S
C528 C529 1.434 . S
C529 C520 1.429 . S
C529 N526 1.350 . S
C529 C528 1.434 . S
C530 C531 1.369 . S
C530 C532 1.419 . S
C530 H534 0.930 . S
C531 C530 1.369 . S
C531 C540 1.429 1_554 S
C532 C530 1.419 . S
C532 C533 1.363 . S
C532 H535 0.929 . S
C533 C532 1.363 . S
C533 C539 1.428 1_554 S
H534 C530 0.930 . S
H535 C532 0.929 . S
S536 N537 1.613 . S
S536 N538 1.610 . S
N537 S536 1.613 . S
N537 C540 1.350 . S
N538 S536 1.610 . S
N538 C539 1.351 . S
C539 C533 1.428 1_556 S
C539 N538 1.351 . S
C539 C540 1.434 . S
C540 C531 1.429 1_556 S
C540 N537 1.350 . S
C540 C539 1.434 . S
C541 C542 1.369 . S
C541 C543 1.419 . S
C541 H545 0.930 . S
C542 C541 1.369 . S
C542 C551 1.429 . S
C543 C541 1.419 . S
C543 C544 1.363 . S
C543 H546 0.929 . S
C544 C543 1.363 . S
C544 C550 1.428 . S
H545 C541 0.930 . S
H546 C543 0.929 . S
S547 N548 1.613 . S
S547 N549 1.610 . S
N548 S547 1.613 . S
N548 C551 1.350 . S
N549 S547 1.610 . S
N549 C550 1.351 . S
C550 C544 1.428 . S
C550 N549 1.351 . S
C550 C551 1.434 . S
C551 C542 1.429 . S
C551 N548 1.350 . S
C551 C550 1.434 . S
C552 C553 1.369 . S
C552 C554 1.419 . S
C552 H556 0.930 . S
C553 C552 1.369 . S
C553 C562 1.429 . S
C554 C552 1.419 . S
C554 C555 1.363 . S
C554 H557 0.929 . S
C555 C554 1.363 . S
C555 C561 1.428 . S
H556 C552 0.930 . S
H557 C554 0.929 . S
S558 N559 1.613 . S
S558 N560 1.610 . S
N559 S558 1.613 . S
N559 C562 1.350 . S
N560 S558 1.610 . S
N560 C561 1.351 . S
C561 C555 1.428 . S
C561 N560 1.351 . S
C561 C562 1.434 . S
C562 C553 1.429 . S
C562 N559 1.350 . S
C562 C561 1.434 . S
C563 C564 1.369 . S
C563 C565 1.419 . S
C563 H567 0.930 . S
C564 C563 1.369 . S
C564 C573 1.429 . S
C565 C563 1.419 . S
C565 C566 1.363 . S
C565 H568 0.929 . S
C566 C565 1.363 . S
C566 C572 1.428 . S
H567 C563 0.930 . S
H568 C565 0.929 . S
S569 N570 1.613 . S
S569 N571 1.610 . S
N570 S569 1.613 . S
N570 C573 1.350 . S
N571 S569 1.610 . S
N571 C572 1.351 . S
C572 C566 1.428 . S
C572 N571 1.351 . S
C572 C573 1.434 . S
C573 C564 1.429 . S
C573 N570 1.350 . S
C573 C572 1.434 . S
C574 C575 1.369 . S
C574 C576 1.419 . S
C574 H578 0.930 . S
C575 C574 1.369 . S
C575 C584 1.429 . S
C576 C574 1.419 . S
C576 C577 1.363 . S
C576 H579 0.929 . S
C577 C576 1.363 . S
C577 C583 1.428 . S
H578 C574 0.930 . S
H579 C576 0.929 . S
S580 N581 1.613 . S
S580 N582 1.610 . S
N581 S580 1.613 . S
N581 C584 1.350 . S
N582 S580 1.610 . S
N582 C583 1.351 . S
C583 C577 1.428 . S
C583 N582 1.351 . S
C583 C584 1.434 . S
C584 C575 1.429 . S
C584 N581 1.350 . S
C584 C583 1.434 . S
C585 C586 1.369 . S
C585 C587 1.419 . S
C585 H589 0.930 . S
C586 C585 1.369 . S
C586 C595 1.429 . S
C587 C585 1.419 . S
C587 C588 1.363 . S
C587 H590 0.929 . S
C588 C587 1.363 . S
C588 C594 1.428 . S
H589 C585 0.930 . S
H590 C587 0.929 . S
S591 N592 1.613 . S
S591 N593 1.610 . S
N592 S591 1.613 . S
N592 C595 1.350 . S
N593 S591 1.610 . S
N593 C594 1.351 . S
C594 C588 1.428 . S
C594 N593 1.351 . S
C594 C595 1.434 . S
C595 C586 1.429 . S
C595 N592 1.350 . S
C595 C594 1.434 . S
C596 C597 1.369 . S
C596 C598 1.419 . S
C596 H600 0.930 . S
C597 C596 1.369 . S
C597 C606 1.429 . S
C598 C596 1.419 . S
C598 C599 1.363 . S
C598 H601 0.929 . S
C599 C598 1.363 . S
C599 C605 1.428 . S
H600 C596 0.930 . S
H601 C598 0.929 . S
S602 N603 1.613 . S
S602 N604 1.610 . S
N603 S602 1.613 . S
N603 C606 1.350 . S
N604 S602 1.610 . S
N604 C605 1.351 . S
C605 C599 1.428 . S
C605 N604 1.351 . S
C605 C606 1.434 . S
C606 C597 1.429 . S
C606 N603 1.350 . S
C606 C605 1.434 . S
C607 C608 1.369 . S
C607 C609 1.419 . S
C607 H611 0.930 . S
C608 C607 1.369 . S
C608 C617 1.429 . S
C609 C607 1.419 . S
C609 C610 1.363 . S
C609 H612 0.929 . S
C610 C609 1.363 . S
C610 C616 1.428 1_545 S
H611 C607 0.930 . S
H612 C609 0.929 . S
S613 N614 1.613 . S
S613 N615 1.610 . S
N614 S613 1.613 . S
N614 C617 1.350 1_565 S
N615 S613 1.610 . S
N615 C616 1.351 . S
C616 C610 1.428 1_565 S
C616 N615 1.351 . S
C616 C617 1.434 1_565 S
C617 C608 1.429 . S
C617 N614 1.350 1_545 S
C617 C616 1.434 1_545 S
C618 C619 1.369 . S
C618 C620 1.419 . S
C618 H622 0.930 . S
C619 C618 1.369 . S
C619 C628 1.429 . S
C620 C618 1.419 . S
C620 C621 1.363 . S
C620 H623 0.929 . S
C621 C620 1.363 . S
C621 C627 1.428 . S
H622 C618 0.930 . S
H623 C620 0.929 . S
S624 N625 1.613 . S
S624 N626 1.610 . S
N625 S624 1.613 . S
N625 C628 1.350 . S
N626 S624 1.610 . S
N626 C627 1.351 . S
C627 C621 1.428 . S
C627 N626 1.351 . S
C627 C628 1.434 . S
C628 C619 1.429 . S
C628 N625 1.350 . S
C628 C627 1.434 . S
C629 C630 1.369 . S
C629 C631 1.419 . S
C629 H633 0.930 . S
C630 C629 1.369 . S
C630 C639 1.429 . S
C631 C629 1.419 . S
C631 C632 1.363 . S
C631 H634 0.929 . S
C632 C631 1.363 . S
C632 C638 1.428 . S
H633 C629 0.930 . S
H634 C631 0.929 . S
S635 N636 1.613 . S
S635 N637 1.610 . S
N636 S635 1.613 . S
N636 C639 1.350 . S
N637 S635 1.610 . S
N637 C638 1.351 . S
C638 C632 1.428 . S
C638 N637 1.351 . S
C638 C639 1.434 . S
C639 C630 1.429 . S
C639 N636 1.350 . S
C639 C638 1.434 . S
C640 C641 1.369 . S
C640 C642 1.419 . S
C640 H644 0.930 . S
C641 C640 1.369 . S
C641 C650 1.429 . S
C642 C640 1.419 . S
C642 C643 1.363 . S
C642 H645 0.929 . S
C643 C642 1.363 . S
C643 C649 1.428 . S
H644 C640 0.930 . S
H645 C642 0.929 . S
S646 N647 1.613 . S
S646 N648 1.610 . S
N647 S646 1.613 . S
N647 C650 1.350 . S
N648 S646 1.610 . S
N648 C649 1.351 . S
C649 C643 1.428 . S
C649 N648 1.351 . S
C649 C650 1.434 . S
C650 C641 1.429 . S
C650 N647 1.350 . S
C650 C649 1.434 . S
C651 C652 1.369 . S
C651 C653 1.419 . S
C651 H655 0.930 . S
C652 C651 1.369 . S
C652 C661 1.429 . S
C653 C651 1.419 . S
C653 C654 1.363 . S
C653 H656 0.929 . S
C654 C653 1.363 . S
C654 C660 1.428 . S
H655 C651 0.930 . S
H656 C653 0.929 . S
S657 N658 1.613 . S
S657 N659 1.610 . S
N658 S657 1.613 . S
N658 C661 1.350 1_565 S
N659 S657 1.610 . S
N659 C660 1.351 1_565 S
C660 C654 1.428 . S
C660 N659 1.351 1_545 S
C660 C661 1.434 . S
C661 C652 1.429 . S
C661 N658 1.350 1_545 S
C661 C660 1.434 . S
C662 C663 1.369 . S
C662 C664 1.419 . S
C662 H666 0.930 . S
C663 C662 1.369 . S
C663 C672 1.429 . S
C664 C662 1.419 . S
C664 C665 1.363 . S
C664 H667 0.929 . S
C665 C664 1.363 . S
C665 C671 1.428 . S
H666 C662 0.930 . S
H667 C664 0.929 . S
S668 N669 1.613 . S
S668 N670 1.610 . S
N669 S668 1.613 . S
N669 C672 1.350 . S
N670 S668 1.610 . S
N670 C671 1.351 . S
C671 C665 1.428 . S
C671 N670 1.351 . S
C671 C672 1.434 . S
C672 C663 1.429 . S
C672 N669 1.350 . S
C672 C671 1.434 . S
C673 C674 1.369 . S
C673 C675 1.419 . S
C673 H677 0.930 1_455 S
C674 C673 1.369 . S
C674 C683 1.429 . S
C675 C673 1.419 . S
C675 C676 1.363 . S
C675 H678 0.929 . S
C676 C675 1.363 . S
C676 C682 1.428 . S
H677 C673 0.930 1_655 S
H678 C675 0.929 . S
S679 N680 1.613 . S
S679 N681 1.610 . S
N680 S679 1.613 . S
N680 C683 1.350 . S
N681 S679 1.610 . S
N681 C682 1.351 . S
C682 C676 1.428 . S
C682 N681 1.351 . S
C682 C683 1.434 . S
C683 C674 1.429 . S
C683 N680 1.350 . S
C683 C682 1.434 . S
C684 C685 1.369 . S
C684 C686 1.419 . S
C684 H688 0.930 . S
C685 C684 1.369 . S
C685 C694 1.429 . S
C686 C684 1.419 . S
C686 C687 1.363 . S
C686 H689 0.929 . S
C687 C686 1.363 . S
C687 C693 1.428 . S
H688 C684 0.930 . S
H689 C686 0.929 . S
S690 N691 1.613 . S
S690 N692 1.610 . S
N691 S690 1.613 . S
N691 C694 1.350 . S
N692 S690 1.610 . S
N692 C693 1.351 . S
C693 C687 1.428 . S
C693 N692 1.351 . S
C693 C694 1.434 . S
C694 C685 1.429 . S
C694 N691 1.350 . S
C694 C693 1.434 . S
C695 C696 1.369 . S
C695 C697 1.419 . S
C695 H699 0.930 . S
C696 C695 1.369 . S
C696 C705 1.429 1_554 S
C697 C695 1.419 . S
C697 C698 1.363 1_654 S
C697 H700 0.929 . S
C698 C697 1.363 1_456 S
C698 C704 1.428 . S
H699 C695 0.930 . S
H700 C697 0.929 . S
S701 N702 1.613 1_455 S
S701 N703 1.610 . S
N702 S701 1.613 1_655 S
N702 C705 1.350 . S
N703 S701 1.610 . S
N703 C704 1.351 . S
C704 C698 1.428 . S
C704 N703 1.351 . S
C704 C705 1.434 1_455 S
C705 C696 1.429 1_556 S
C705 N702 1.350 . S
C705 C704 1.434 1_655 S
C706 C707 1.369 . S
C706 C708 1.419 . S
C706 H710 0.930 . S
C707 C706 1.369 . S
C707 C716 1.429 . S
C708 C706 1.419 . S
C708 C709 1.363 . S
C708 H711 0.929 . S
C709 C708 1.363 . S
C709 C715 1.428 . S
H710 C706 0.930 . S
H711 C708 0.929 . S
S712 N713 1.613 . S
S712 N714 1.610 . S
N713 S712 1.613 . S
N713 C716 1.350 . S
N714 S712 1.610 . S
N714 C715 1.351 . S
C715 C709 1.428 . S
C715 N714 1.351 . S
C715 C716 1.434 . S
C716 C707 1.429 . S
C716 N713 1.350 . S
C716 C715 1.434 . S
C717 C718 1.369 . S
C717 C719 1.419 . S
C717 H721 0.930 . S
C718 C717 1.369 . S
C718 C727 1.425 1_454 S
C719 C717 1.419 . S
C719 C720 1.363 1_554 S
C719 H722 0.929 . S
C720 C719 1.363 1_556 S
C720 C726 1.428 1_455 S
H721 C717 0.930 . S
H722 C719 0.929 . S
S723 N724 1.613 . S
S723 N725 1.610 . S
N724 S723 1.613 . S
N724 C727 1.351 . S
N725 S723 1.610 . S
N725 C726 1.351 . S
C726 C720 1.428 1_655 S
C726 N725 1.351 . S
C726 C727 1.438 . S
C727 C718 1.425 1_656 S
C727 N724 1.351 . S
C727 C726 1.438 . S
C728 C729 1.369 . S
C728 C730 1.419 . S
C728 H732 0.930 . S
C729 C728 1.369 . S
C729 C738 1.429 . S
C730 C728 1.419 . S
C730 C731 1.363 . S
C730 H733 0.929 . S
C731 C730 1.363 . S
C731 C737 1.428 . S
H732 C728 0.930 . S
H733 C730 0.929 . S
S734 N735 1.613 . S
S734 N736 1.610 . S
N735 S734 1.613 . S
N735 C738 1.350 . S
N736 S734 1.610 . S
N736 C737 1.351 . S
C737 C731 1.428 . S
C737 N736 1.351 . S
C737 C738 1.434 . S
C738 C729 1.429 . S
C738 N735 1.350 . S
C738 C737 1.434 . S
C739 C740 1.369 . S
C739 C741 1.419 . S
C739 H743 0.930 . S
C740 C739 1.369 . S
C740 C749 1.429 . S
C741 C739 1.419 . S
C741 C742 1.363 . S
C741 H744 0.929 . S
C742 C741 1.363 . S
C742 C748 1.428 . S
H743 C739 0.930 . S
H744 C741 0.929 . S
S745 N746 1.613 . S
S745 N747 1.610 . S
N746 S745 1.613 . S
N746 C749 1.350 . S
N747 S745 1.610 . S
N747 C748 1.351 . S
C748 C742 1.428 . S
C748 N747 1.351 . S
C748 C749 1.434 . S
C749 C740 1.429 . S
C749 N746 1.350 . S
C749 C748 1.434 . S
C750 C751 1.369 . S
C750 C752 1.419 . S
C750 H754 0.930 . S
C751 C750 1.369 . S
C751 C760 1.429 . S
C752 C750 1.419 . S
C752 C753 1.363 . S
C752 H755 0.929 . S
C753 C752 1.363 . S
C753 C759 1.428 . S
H754 C750 0.930 . S
H755 C752 0.929 . S
S756 N757 1.613 . S
S756 N758 1.610 . S
N757 S756 1.613 . S
N757 C760 1.350 . S
N758 S756 1.610 . S
N758 C759 1.351 . S
C759 C753 1.428 . S
C759 N758 1.351 . S
C759 C760 1.434 . S
C760 C751 1.429 . S
C760 N757 1.350 . S
C760 C759 1.434 . S
C761 C762 1.369 . S
C761 C763 1.419 . S
C761 H765 0.930 . S
C762 C761 1.369 . S
C762 C771 1.429 . S
C763 C761 1.419 . S
C763 C764 1.363 . S
C763 H766 0.929 . S
C764 C763 1.363 . S
C764 C770 1.428 . S
H765 C761 0.930 . S
H766 C763 0.929 . S
S767 N768 1.613 . S
S767 N769 1.610 . S
N768 S767 1.613 . S
N768 C771 1.350 . S
N769 S767 1.610 . S
N769 C770 1.351 . S
C770 C764 1.428 . S
C770 N769 1.351 . S
C770 C771 1.434 . S
C771 C762 1.429 . S
C771 N768 1.350 . S
C771 C770 1.434 . S
C772 C773 1.369 . S
C772 C774 1.419 . S
C772 H776 0.930 . S
C773 C772 1.369 . S
C773 C782 1.429 . S
C774 C772 1.419 . S
C774 C775 1.363 . S
C774 H777 0.929 . S
C775 C774 1.363 . S
C775 C781 1.428 . S
H776 C772 0.930 . S
H777 C774 0.929 . S
S778 N779 1.613 . S
S778 N780 1.610 . S
N779 S778 1.613 . S
N779 C782 1.350 . S
N780 S778 1.610 . S
N780 C781 1.351 . S
C781 C775 1.428 . S
C781 N780 1.351 . S
C781 C782 1.434 . S
C782 C773 1.429 . S
C782 N779 1.350 . S
C782 C781 1.434 . S
C783 C784 1.369 . S
C783 C785 1.419 . S
C783 H787 0.930 . S
C784 C783 1.369 . S
C784 C793 1.429 . S
C785 C783 1.419 . S
C785 C786 1.363 . S
C785 H788 0.929 . S
C786 C785 1.363 . S
C786 C792 1.428 . S
H787 C783 0.930 . S
H788 C785 0.929 . S
S789 N790 1.613 . S
S789 N791 1.610 . S
N790 S789 1.613 . S
N790 C793 1.350 . S
N791 S789 1.610 . S
N791 C792 1.351 . S
C792 C786 1.428 . S
C792 N791 1.351 . S
C792 C793 1.434 . S
C793 C784 1.429 . S
C793 N790 1.350 . S
C793 C792 1.434 . S
C794 C795 1.369 . S
C794 C796 1.419 . S
C794 H798 0.930 . S
C795 C794 1.369 . S
C795 C804 1.429 . S
C796 C794 1.419 . S
C796 C797 1.363 . S
C796 H799 0.929 . S
C797 C796 1.363 . S
C797 C803 1.428 . S
H798 C794 0.930 . S
H799 C796 0.929 . S
S800 N801 1.613 . S
S800 N802 1.610 . S
N801 S800 1.613 . S
N801 C804 1.350 . S
N802 S800 1.610 . S
N802 C803 1.351 . S
C803 C797 1.428 . S
C803 N802 1.351 . S
C803 C804 1.434 . S
C804 C795 1.429 . S
C804 N801 1.350 . S
C804 C803 1.434 . S
C805 C806 1.369 . S
C805 C807 1.419 . S
C805 H809 0.930 . S
C806 C805 1.369 . S
C806 C815 1.429 . S
C807 C805 1.419 . S
C807 C808 1.363 . S
C807 H810 0.929 . S
C808 C807 1.363 . S
C808 C814 1.428 . S
H809 C805 0.930 . S
H810 C807 0.929 . S
S811 N812 1.613 . S
S811 N813 1.610 . S
N812 S811 1.613 . S
N812 C815 1.350 . S
N813 S811 1.610 . S
N813 C814 1.351 . S
C814 C808 1.428 . S
C814 N813 1.351 . S
C814 C815 1.434 . S
C815 C806 1.429 . S
C815 N812 1.350 . S
C815 C814 1.434 . S
C816 C817 1.358 1_554 S
C816 C818 1.419 . S
C816 H820 0.942 . S
C817 C816 1.358 1_556 S
C817 C826 1.429 . S
C818 C816 1.419 . S
C818 C819 1.363 1_554 S
C818 H821 0.929 . S
C819 C818 1.363 1_556 S
C819 C825 1.428 . S
H820 C816 0.942 . S
H821 C818 0.929 . S
S822 N823 1.613 . S
S822 N824 1.610 . S
N823 S822 1.613 . S
N823 C826 1.350 . S
N824 S822 1.610 . S
N824 C825 1.351 . S
C825 C819 1.428 . S
C825 N824 1.351 . S
C825 C826 1.434 . S
C826 C817 1.429 . S
C826 N823 1.350 . S
C826 C825 1.434 . S
C827 C828 1.369 . S
C827 C829 1.419 . S
C827 H831 0.930 . S
C828 C827 1.369 . S
C828 C837 1.429 . S
C829 C827 1.419 . S
C829 C830 1.363 . S
C829 H832 0.929 . S
C830 C829 1.363 . S
C830 C836 1.428 . S
H831 C827 0.930 . S
H832 C829 0.929 . S
S833 N834 1.613 . S
S833 N835 1.610 . S
N834 S833 1.613 . S
N834 C837 1.350 . S
N835 S833 1.610 . S
N835 C836 1.351 . S
C836 C830 1.428 . S
C836 N835 1.351 . S
C836 C837 1.434 . S
C837 C828 1.429 . S
C837 N834 1.350 . S
C837 C836 1.434 . S
C838 C839 1.369 . S
C838 C840 1.419 . S
C838 H842 0.930 . S
C839 C838 1.369 . S
C839 C848 1.429 . S
C840 C838 1.419 . S
C840 C841 1.363 . S
C840 H843 0.929 . S
C841 C840 1.363 . S
C841 C847 1.428 . S
H842 C838 0.930 . S
H843 C840 0.929 . S
S844 N845 1.613 . S
S844 N846 1.610 . S
N845 S844 1.613 . S
N845 C848 1.350 . S
N846 S844 1.610 . S
N846 C847 1.351 . S
C847 C841 1.428 . S
C847 N846 1.351 . S
C847 C848 1.434 . S
C848 C839 1.429 . S
C848 N845 1.350 . S
C848 C847 1.434 . S
C849 C850 1.369 . S
C849 C851 1.419 . S
C849 H853 0.930 1_565 S
C850 C849 1.369 . S
C850 C859 1.429 . S
C851 C849 1.419 . S
C851 C852 1.363 . S
C851 H854 0.929 . S
C852 C851 1.363 . S
C852 C858 1.428 . S
H853 C849 0.930 1_545 S
H854 C851 0.929 . S
S855 N856 1.613 . S
S855 N857 1.610 . S
N856 S855 1.613 . S
N856 C859 1.350 . S
N857 S855 1.610 . S
N857 C858 1.351 . S
C858 C852 1.428 . S
C858 N857 1.351 . S
C858 C859 1.434 . S
C859 C850 1.429 . S
C859 N856 1.350 . S
C859 C858 1.434 . S
C335 C186 1.161 . S
C333 C62 1.160 . S
C346 C199 1.624 . S
C344 C73 1.569 . S
C355 C84 1.476 . S
C357 C212 1.530 . S
C368 C225 1.363 . S
C366 C49 1.178 1_655 S
C379 C233 1.389 . S
C377 C118 1.392 . S
C390 C246 1.551 . S
C388 C137 1.331 . S
C399 C129 1.561 . S
C401 C259 1.555 . S
C412 C272 1.801 . S
C410 C106 1.771 . S
C421 C128 1.694 . S
C423 C290 1.729 . S
C434 C301 1.611 . S
C432 C104 1.447 . S
C443 C115 1.498 . S
C445 C285 1.701 . S
C456 C293 1.653 . S
C454 C139 1.655 . S
C465 C85 1.566 . S
C467 C316 1.554 . S
C476 C52 1.269 . S
C478 C306 1.250 . S
C487 C60 1.049 . S
C489 C311 1.107 . S
C498 C71 1.522 . S
C500 C314 1.600 . S
C509 C40 1.596 . S
C511 C223 1.690 . S
C520 C162 1.180 . S
C522 C215 1.149 . S
C533 C184 1.242 . S
C531 C173 1.267 . S
C544 C189 1.722 . S
C542 C93 1.562 . S
C553 C51 1.452 . S
C555 C236 1.476 . S
C566 C275 1.530 . S
C564 C126 1.399 . S
C577 C228 1.711 . S
C575 C107 1.706 . S
C588 C254 1.558 . S
C586 C140 1.558 . S
C599 C264 1.162 . S
C597 C161 1.160 . S
C608 C172 1.564 . S
C610 C277 1.623 . S
C619 C95 1.478 . S
C621 C238 1.530 . S
C632 C251 1.360 . S
C630 C148 1.192 . S
C641 C41 1.396 . S
C643 C207 1.386 . S
C654 C220 1.549 . S
C652 C5 1.341 . S
C665 C181 1.555 . S
C663 C19 1.560 . S
C676 C194 1.805 . S
C674 C29 1.778 1_455 S
C685 C18 1.688 . S
C687 C303 1.731 . S
C696 C27 1.451 . S
C698 C288 1.609 . S
C707 C38 1.491 . S
C709 C298 1.703 . S
C718 C7 1.655 . S
C720 C280 1.653 . S
C731 C329 1.557 . S
C729 C96 1.569 . S
C742 C319 1.249 . S
C740 C151 1.268 . S
C753 C324 1.115 . S
C751 C159 1.064 . S
C762 C170 1.509 . S
C764 C327 1.597 . S
C773 C117 1.596 . S
C775 C249 1.690 . S
C786 C241 1.154 . S
C784 C63 1.178 . S
C797 C262 1.240 . S
C795 C74 1.268 . S
C808 C267 1.721 . S
C806 C82 1.550 . S
C817 C150 1.457 . S
C819 C210 1.478 . S
C830 C197 1.534 . S
C828 C16 1.388 . S
C839 C30 1.706 . S
C841 C202 1.711 . S
C852 C176 1.556 . S
C850 C8 1.560 . S
