# Generated by pormake.
# Topology anh, (6,3)-cn, num edge types: 1
# Building blocks:
#     Node 0, Type 0, BuildingBlock: MIFKUJ_clean_sbu_0, # of connection points: 6
#     Node 1, Type 0, BuildingBlock: MIFKUJ_clean_sbu_0, # of connection points: 6
#     Node 2, Type 0, BuildingBlock: MIFKUJ_clean_sbu_0, # of connection points: 6
#     Node 3, Type 1, BuildingBlock: WUSLED_clean_sbu_0, # of connection points: 3
#     Node 4, Type 1, BuildingBlock: WUSLED_clean_sbu_0, # of connection points: 3
#     Node 5, Type 1, BuildingBlock: WUSLED_clean_sbu_0, # of connection points: 3
#     Node 6, Type 1, BuildingBlock: WUSLED_clean_sbu_0, # of connection points: 3
#     Node 7, Type 1, BuildingBlock: WUSLED_clean_sbu_0, # of connection points: 3
#     Node 8, Type 1, BuildingBlock: WUSLED_clean_sbu_0, # of connection points: 3
#     Edge 9, Type (0, 1), BuildingBlock: XUDNAN_clean_linker_2, # of connection points: 2
#     Edge 10, Type (0, 1), BuildingBlock: XUDNAN_clean_linker_2, # of connection points: 2
#     Edge 11, Type (0, 1), BuildingBlock: XUDNAN_clean_linker_2, # of connection points: 2
#     Edge 12, Type (0, 1), BuildingBlock: XUDNAN_clean_linker_2, # of connection points: 2
#     Edge 13, Type (0, 1), BuildingBlock: XUDNAN_clean_linker_2, # of connection points: 2
#     Edge 14, Type (0, 1), BuildingBlock: XUDNAN_clean_linker_2, # of connection points: 2
#     Edge 15, Type (0, 1), BuildingBlock: XUDNAN_clean_linker_2, # of connection points: 2
#     Edge 16, Type (0, 1), BuildingBlock: XUDNAN_clean_linker_2, # of connection points: 2
#     Edge 17, Type (0, 1), BuildingBlock: XUDNAN_clean_linker_2, # of connection points: 2
#     Edge 18, Type (0, 1), BuildingBlock: XUDNAN_clean_linker_2, # of connection points: 2
#     Edge 19, Type (0, 1), BuildingBlock: XUDNAN_clean_linker_2, # of connection points: 2
#     Edge 20, Type (0, 1), BuildingBlock: XUDNAN_clean_linker_2, # of connection points: 2
#     Edge 21, Type (0, 1), BuildingBlock: XUDNAN_clean_linker_2, # of connection points: 2
#     Edge 22, Type (0, 1), BuildingBlock: XUDNAN_clean_linker_2, # of connection points: 2
#     Edge 23, Type (0, 1), BuildingBlock: XUDNAN_clean_linker_2, # of connection points: 2
#     Edge 24, Type (0, 1), BuildingBlock: XUDNAN_clean_linker_2, # of connection points: 2
#     Edge 25, Type (0, 1), BuildingBlock: XUDNAN_clean_linker_2, # of connection points: 2
#     Edge 26, Type (0, 1), BuildingBlock: XUDNAN_clean_linker_2, # of connection points: 2
# Relax obj value: 0.128
# Max RMSD: 0.180
# Mean RMSD: 0.138
data_MOF--net-anh--node1-MIFKUJ_clean_sbu_0--node2-WUSLED_clean_sbu_0--edge1-XUDNAN_clean_linker_2
_symmetry_space_group_name_H-M    P1
_symmetry_Int_Tables_number       1
_symmetry_cell_setting            triclinic
loop_
_symmetry_equiv_pos_as_xyz
'x, y, z'
_cell_length_a     39.925889
_cell_length_b     40.036089
_cell_length_c     67.401403
_cell_angle_alpha  93.467763
_cell_angle_beta   90.911303
_cell_angle_gamma 120.03356
loop_
_atom_site_label
_atom_site_type_symbol
_atom_site_fract_x
_atom_site_fract_y
_atom_site_fract_z
_atom_type_partial_charge
Zn0 Zn 0.06029 0.5522 0.17719 0.0
Zn1 Zn 0.93737 0.48041 0.16853 0.0
C2 C 0.13462 0.55564 0.18323 0.0
O3 O 0.14666 0.5914 0.19022 0.0
C4 C 0.88078 0.48918 0.14951 0.0
O5 O 0.88715 0.46721 0.13666 0.0
O6 O 0.09195 0.6105 0.17759 0.0
O7 O 0.03092 0.53025 0.15032 0.0
O8 O 0.96748 0.4909 0.14414 0.0
C9 C 0.10977 0.62623 0.16229 0.0
O10 O 0.10415 0.60431 0.14585 0.0
O11 O 0.09917 0.5337 0.17754 0.0
C12 C 0.87453 0.4097 0.17998 0.0
O13 O 0.87232 0.43389 0.19322 0.0
O14 O 0.90174 0.42273 0.168 0.0
O15 O 0.96942 0.49968 0.19409 0.0
O16 O 0.03176 0.53698 0.20284 0.0
O17 O 0.90101 0.5015 0.16586 0.0
C18 C 1.0016 0.51032 0.13831 0.0
C19 C 0.99678 0.5162 0.20741 0.0
Zn20 Zn 0.5719 0.07173 0.5019 0.0
Zn21 Zn 0.52999 0.95829 0.50233 0.0
C22 C 0.65188 0.13025 0.50585 0.0
O23 O 0.64055 0.13707 0.52305 0.0
C24 C 0.45197 0.8983 0.50768 0.0
O25 O 0.47066 0.88722 0.51932 0.0
O26 O 0.55749 0.11336 0.50576 0.0
O27 O 0.53897 0.03465 0.47868 0.0
O28 O 0.55202 0.98699 0.47784 0.0
C29 C 0.55911 0.13276 0.49117 0.0
O30 O 0.56752 0.12339 0.47369 0.0
O31 O 0.62772 0.1015 0.49426 0.0
C32 C 0.55519 0.90353 0.51475 0.0
O33 O 0.56038 0.91984 0.5329 0.0
O34 O 0.54388 0.91592 0.50067 0.0
O35 O 0.54683 0.9873 0.52946 0.0
O36 O 0.56885 0.05038 0.52851 0.0
O37 O 0.47114 0.92951 0.49912 0.0
C38 C 0.54877 0.01271 0.46923 0.0
C39 C 0.5604 0.02101 0.53813 0.0
Zn40 Zn 0.56661 0.50378 0.83605 0.0
Zn41 Zn 0.50418 0.56482 0.84021 0.0
C42 C 0.53127 0.41694 0.83567 0.0
O43 O 0.49641 0.4123 0.8369 0.0
C44 C 0.52503 0.638 0.82832 0.0
O45 O 0.50097 0.61549 0.81353 0.0
O46 O 0.62404 0.53817 0.84196 0.0
O47 O 0.55453 0.51419 0.80863 0.0
O48 O 0.52546 0.54623 0.81819 0.0
C49 C 0.64595 0.53128 0.83108 0.0
O50 O 0.63021 0.50495 0.81599 0.0
O51 O 0.56037 0.45069 0.83518 0.0
C52 C 0.42432 0.53756 0.84829 0.0
O53 O 0.43687 0.53526 0.86599 0.0
O54 O 0.44754 0.5479 0.83424 0.0
O55 O 0.50862 0.54464 0.86609 0.0
O56 O 0.53963 0.51244 0.85945 0.0
O57 O 0.53238 0.62304 0.84263 0.0
C58 C 0.53909 0.53414 0.80448 0.0
C59 C 0.52142 0.5229 0.87128 0.0
C60 C 0.56196 0.09672 0.19256 0.0
C61 C 0.57265 0.13404 0.2008 0.0
C62 C 0.63284 0.16148 0.18349 0.0
C63 C 0.60756 0.16605 0.19623 0.0
C64 C 0.62173 0.12414 0.17503 0.0
C65 C 0.5866 0.0922 0.17944 0.0
U66 U 0.50344 0.03376 0.23278 0.0
O67 O 0.44111 0.00173 0.23762 0.0
O68 O 0.47325 0.97055 0.23428 0.0
C69 C 0.43938 0.96798 0.23633 0.0
C70 C 0.52671 0.06208 0.19838 0.0
C71 C 0.40661 0.93631 0.22427 0.0
C72 C 0.35941 0.91163 0.19616 0.0
C73 C 0.39215 0.9423 0.20653 0.0
C74 C 0.35602 0.86878 0.22094 0.0
C75 C 0.34071 0.87459 0.20339 0.0
C76 C 0.38854 0.89935 0.23126 0.0
C77 C 0.54451 0.06249 0.28606 0.0
C78 C 0.52209 0.01576 0.31105 0.0
C79 C 0.56625 0.08366 0.32075 0.0
C80 C 0.56623 0.09219 0.30092 0.0
C81 C 0.5448 0.04523 0.32592 0.0
C82 C 0.52179 0.02434 0.2913 0.0
C83 C 0.54698 0.07103 0.26507 0.0
O84 O 0.53265 0.03528 0.20518 0.0
O85 O 0.50235 0.06817 0.20878 0.0
O86 O 0.52025 0.07779 0.25801 0.0
O87 O 0.5531 0.04783 0.253 0.0
H88 H 0.55437 0.13856 0.21102 0.0
H89 H 0.6147 0.19438 0.20272 0.0
H90 H 0.64058 0.11933 0.16539 0.0
H91 H 0.57911 0.06372 0.17297 0.0
H92 H 0.34826 0.91711 0.18274 0.0
H93 H 0.40578 0.97069 0.20087 0.0
H94 H 0.34294 0.84051 0.22671 0.0
H95 H 0.39941 0.89417 0.24488 0.0
H96 H 0.50488 0.98598 0.31467 0.0
H97 H 0.5841 0.10688 0.33192 0.0
H98 H 0.58384 0.1218 0.29711 0.0
H99 H 0.50453 1.00107 0.28004 0.0
C100 C 0.56612 0.59571 0.5266 0.0
C101 C 0.55418 0.61486 0.54037 0.0
C102 C 0.568 0.66466 0.51757 0.0
C103 C 0.55491 0.64881 0.53588 0.0
C104 C 0.58042 0.64555 0.5039 0.0
C105 C 0.57942 0.61134 0.50839 0.0
U106 U 0.56045 0.53144 0.56603 0.0
O107 O 0.52589 0.46846 0.56806 0.0
O108 O 0.58945 0.49806 0.57116 0.0
C109 C 0.55666 0.46482 0.57011 0.0
C110 C 0.56513 0.5599 0.53153 0.0
C111 C 0.55565 0.43226 0.55816 0.0
C112 C 0.57303 0.4054 0.52948 0.0
C113 C 0.57364 0.43702 0.54 0.0
C114 C 0.53594 0.36404 0.55502 0.0
C115 C 0.55436 0.36853 0.53695 0.0
C116 C 0.53667 0.39557 0.56549 0.0
C117 C 0.55501 0.56919 0.61921 0.0
C118 C 0.57034 0.55215 0.65077 0.0
C119 C 0.53345 0.58514 0.64995 0.0
C120 C 0.53539 0.58527 0.6293 0.0
C121 C 0.55137 0.5691 0.661 0.0
C122 C 0.5721 0.55214 0.63002 0.0
C123 C 0.55808 0.57182 0.59758 0.0
O124 O 0.59567 0.56509 0.54199 0.0
O125 O 0.53225 0.53366 0.53827 0.0
O126 O 0.52708 0.54689 0.58654 0.0
O127 O 0.59055 0.57689 0.59033 0.0
H128 H 0.54401 0.60336 0.55459 0.0
H129 H 0.54453 0.66221 0.54665 0.0
H130 H 0.59123 0.65717 0.4898 0.0
H131 H 0.58909 0.59715 0.49765 0.0
H132 H 0.58777 0.40999 0.5157 0.0
H133 H 0.58841 0.46515 0.53406 0.0
H134 H 0.52066 0.33602 0.56104 0.0
H135 H 0.52247 0.39132 0.57945 0.0
H136 H 0.58464 0.53975 0.65881 0.0
H137 H 0.51787 0.59766 0.65725 0.0
H138 H 0.52181 0.59833 0.62119 0.0
H139 H 0.58727 0.53938 0.62249 0.0
C140 C 0.97526 0.57419 0.86558 0.0
C141 C 0.95448 0.57549 0.8819 0.0
C142 C 0.90869 0.58075 0.85991 0.0
C143 C 0.92156 0.57874 0.87911 0.0
C144 C 0.92968 0.57949 0.84356 0.0
C145 C 0.96277 0.57626 0.84639 0.0
U146 U 0.03739 0.55897 0.90162 0.0
O147 O 0.06293 0.52142 0.9002 0.0
O148 O 0.10045 0.5844 0.90634 0.0
C149 C 0.09848 0.55068 0.90347 0.0
C150 C 0.00919 0.56961 0.86879 0.0
C151 C 0.12883 0.54967 0.89184 0.0
C152 C 0.15158 0.53152 0.86207 0.0
C153 C 0.12248 0.53489 0.87183 0.0
C154 C 0.19349 0.55848 0.89206 0.0
C155 C 0.18711 0.5426 0.87226 0.0
C156 C 0.16465 0.56191 0.90172 0.0
C157 C 0.00935 0.55044 0.9555 0.0
C158 C 0.02871 0.51974 0.97961 0.0
C159 C 0.00307 0.56078 0.9908 0.0
C160 C 0.99898 0.56773 0.97107 0.0
C161 C 0.01733 0.53616 0.99522 0.0
C162 C 0.02499 0.52701 0.95992 0.0
C163 C 0.00304 0.55648 0.93478 0.0
O164 O 0.0379 0.59803 0.87986 0.0
O165 O 1.00093 0.5352 0.87385 0.0
O166 O 0.99164 0.52633 0.9219 0.0
O167 O 0.02994 0.58895 0.92822 0.0
H168 H 0.96356 0.57359 0.89683 0.0
H169 H 0.90572 0.57886 0.89199 0.0
H170 H 0.92066 0.58122 0.8286 0.0
H171 H 0.97844 0.57519 0.83362 0.0
H172 H 0.1459 0.51921 0.8468 0.0
H173 H 0.09494 0.52529 0.86395 0.0
H174 H 0.2208 0.56806 0.9002 0.0
H175 H 0.1701 0.57348 0.91713 0.0
H176 H 0.04015 0.50097 0.98263 0.0
H177 H 0.99379 0.57355 1.00252 0.0
H178 H 0.98705 0.58604 0.96793 0.0
H179 H 0.03369 0.5138 0.94812 0.0
C180 C 0.97027 0.43267 0.48193 0.0
C181 C 0.96583 0.40018 0.47031 0.0
C182 C 0.90276 0.35922 0.48359 0.0
C183 C 0.93265 0.36394 0.47122 0.0
C184 C 0.90768 0.39157 0.4956 0.0
C185 C 0.94111 0.42784 0.4948 0.0
U186 U 0.02782 0.51108 0.44813 0.0
O187 O 0.0902 0.54893 0.44469 0.0
O188 O 0.0535 0.57439 0.45105 0.0
C189 C 0.08878 0.58082 0.44843 0.0
C190 C 0.00352 0.4719 0.47964 0.0
C191 C 0.1211 0.61306 0.46088 0.0
C192 C 0.15064 0.6791 0.47604 0.0
C193 C 0.11793 0.64494 0.46822 0.0
C194 C 0.1902 0.64973 0.47028 0.0
C195 C 0.18739 0.68234 0.47657 0.0
C196 C 0.15748 0.61555 0.46245 0.0
C197 C 0.98805 0.48639 0.39332 0.0
C198 C 0.01642 0.49713 0.36096 0.0
C199 C 0.95222 0.48823 0.36435 0.0
C200 C 0.9549 0.48446 0.38466 0.0
C201 C 0.98251 0.49363 0.35214 0.0
C202 C 0.01917 0.49352 0.38137 0.0
C203 C 0.9879 0.47797 0.41437 0.0
O204 O 0.03193 0.47347 0.46934 0.0
O205 O 0.99423 0.49784 0.4751 0.0
O206 O 0.97928 0.49825 0.42718 0.0
O207 O 0.01592 0.4727 0.42101 0.0
H208 H 0.98763 0.40276 0.46017 0.0
H209 H 0.93035 0.33964 0.46205 0.0
H210 H 0.88518 0.38923 0.50515 0.0
H211 H 0.94368 0.45241 0.50385 0.0
H212 H 0.14735 0.70347 0.48105 0.0
H213 H 0.0905 0.64425 0.46703 0.0
H214 H 0.21807 0.65127 0.47027 0.0
H215 H 0.16118 0.59184 0.45665 0.0
H216 H 0.04019 0.50107 0.35196 0.0
H217 H 0.92602 0.48619 0.35813 0.0
H218 H 0.93055 0.47904 0.39356 0.0
H219 H 0.04518 0.49523 0.38764 0.0
C220 C 0.53709 0.95128 0.81388 0.0
C221 C 0.53876 0.92944 0.79727 0.0
C222 C 0.55146 0.89011 0.81885 0.0
C223 C 0.54581 0.89917 0.79972 0.0
C224 C 0.54898 0.91153 0.83555 0.0
C225 C 0.542 0.9421 0.83306 0.0
U226 U 0.52754 0.01191 0.77713 0.0
O227 O 0.49112 0.03878 0.77481 0.0
O228 O 0.55464 0.07452 0.77528 0.0
C229 C 0.52138 0.07387 0.77522 0.0
C230 C 0.53173 0.98432 0.81075 0.0
C231 C 0.52018 0.10428 0.78809 0.0
C232 C 0.54861 0.1557 0.81476 0.0
C233 C 0.54555 0.1224 0.80496 0.0
C234 C 0.49916 0.15162 0.79179 0.0
C235 C 0.5263 0.17135 0.80789 0.0
C236 C 0.49623 0.11845 0.78198 0.0
C237 C 0.53402 0.98447 0.72289 0.0
C238 C 0.53392 0.02343 0.69669 0.0
C239 C 0.54711 0.97126 0.68917 0.0
C240 C 0.54253 0.96258 0.70907 0.0
C241 C 0.54332 0.00209 0.68279 0.0
C242 C 0.5294 0.01473 0.71659 0.0
C243 C 0.53252 0.97709 0.74399 0.0
O244 O 0.56168 0.01358 0.80349 0.0
O245 O 0.49862 0.97527 0.80154 0.0
O246 O 0.49948 0.96732 0.75216 0.0
O247 O 0.56283 0.00292 0.75515 0.0
H248 H 0.53495 0.93609 0.78234 0.0
H249 H 0.5467 0.88273 0.78657 0.0
H250 H 0.55327 0.9052 0.85046 0.0
H251 H 0.54089 0.95878 0.84603 0.0
H252 H 0.56936 0.16994 0.8273 0.0
H253 H 0.56418 0.11184 0.81005 0.0
H254 H 0.4818 0.16307 0.78601 0.0
H255 H 0.47656 0.10494 0.76896 0.0
H256 H 0.53025 0.04697 0.69221 0.0
H257 H 0.55478 0.95457 0.67893 0.0
H258 H 0.54647 0.93931 0.71376 0.0
H259 H 0.52292 0.03199 0.72713 0.0
C260 C 0.59108 0.5377 0.14659 0.0
C261 C 0.61632 0.55305 0.13112 0.0
C262 C 0.65857 0.53188 0.14493 0.0
C263 C 0.64977 0.55041 0.13038 0.0
C264 C 0.63427 0.51805 0.16095 0.0
C265 C 0.60061 0.52081 0.16172 0.0
U266 U 0.51126 0.52679 0.1131 0.0
O267 O 0.44773 0.49267 0.11289 0.0
O268 O 0.47699 0.55594 0.112 0.0
C269 C 0.44396 0.52353 0.11309 0.0
C270 C 0.55297 0.53521 0.14532 0.0
C271 C 0.41562 0.52515 0.12635 0.0
C272 C 0.36512 0.49604 0.14994 0.0
C273 C 0.39604 0.49708 0.13992 0.0
C274 C 0.37398 0.55199 0.13366 0.0
C275 C 0.3532 0.52299 0.14659 0.0
C276 C 0.40475 0.55297 0.12364 0.0
C277 C 0.52935 0.51678 0.05744 0.0
C278 C 0.48996 0.47767 0.02798 0.0
C279 C 0.54724 0.53983 0.02456 0.0
C280 C 0.55424 0.54516 0.0452 0.0
C281 C 0.51539 0.50576 0.01571 0.0
C282 C 0.49677 0.48316 0.04867 0.0
C283 C 0.53977 0.52163 0.07898 0.0
O284 O 0.55271 0.56445 0.13754 0.0
O285 O 0.52446 0.50137 0.13806 0.0
O286 O 0.51923 0.49177 0.08935 0.0
O287 O 0.54791 0.55484 0.08831 0.0
H288 H 0.60948 0.56585 0.11913 0.0
H289 H 0.6682 0.56188 0.11802 0.0
H290 H 0.64023 0.50344 0.17231 0.0
H291 H 0.58129 0.50841 0.17366 0.0
H292 H 0.34999 0.47363 0.15999 0.0
H293 H 0.40373 0.47519 0.14232 0.0
H294 H 0.3653 0.57286 0.13049 0.0
H295 H 0.41908 0.57461 0.1131 0.0
H296 H 0.465 0.45129 0.02155 0.0
H297 H 0.5676 0.56177 0.01547 0.0
H298 H 0.57974 0.57112 0.05157 0.0
H299 H 0.47698 0.46072 0.05769 0.0
H300 H 0.21355 0.60003 0.18314 0.0
H301 H 0.11913 0.48098 0.17618 0.0
H302 H 0.16598 0.4591 0.1691 0.0
H303 H 0.26485 0.59196 0.1432 0.0
H304 H 0.31223 0.62386 0.15496 0.0
H305 H 0.27194 0.62973 0.16168 0.0
H306 H 0.28478 0.62347 0.19871 0.0
H307 H 0.32523 0.61766 0.1921 0.0
H308 H 0.28672 0.5816 0.20554 0.0
H309 H 0.22257 0.45069 0.16062 0.0
H310 H 0.28391 0.4565 0.14983 0.0
H311 H 0.34128 0.58119 0.16204 0.0
C312 C 0.20277 0.56928 0.18053 0.0
C313 C 0.16272 0.54214 0.1804 0.0
C314 C 0.14971 0.50225 0.17644 0.0
C315 C 0.17611 0.48955 0.17248 0.0
C316 C 0.21537 0.51712 0.17247 0.0
C317 C 0.22865 0.55617 0.17635 0.0
C318 C 0.27185 0.58013 0.17391 0.0
C319 C 0.28072 0.60805 0.15746 0.0
C320 C 0.29341 0.602 0.19375 0.0
C321 C 0.28073 0.54851 0.16775 0.0
C322 C 0.24787 0.51234 0.16724 0.0
C323 C 0.24859 0.47882 0.1612 0.0
C324 C 0.28366 0.4824 0.15522 0.0
C325 C 0.31753 0.51927 0.15519 0.0
C326 C 0.31594 0.5526 0.16185 0.0
H327 H 0.71179 0.1915 0.52797 0.0
H328 H 0.67905 0.13359 0.46845 0.0
H329 H 0.74078 0.18456 0.45659 0.0
H330 H 0.75505 0.2868 0.51394 0.0
H331 H 0.7939 0.30694 0.53289 0.0
H332 H 0.74854 0.26454 0.53711 0.0
H333 H 0.78431 0.22717 0.54428 0.0
H334 H 0.82988 0.26961 0.54027 0.0
H335 H 0.81576 0.22442 0.52617 0.0
H336 H 0.80358 0.24456 0.45068 0.0
H337 H 0.86427 0.30723 0.45139 0.0
H338 H 0.85748 0.32493 0.51509 0.0
C339 C 0.7178 0.18919 0.51249 0.0
C340 C 0.69055 0.15844 0.49915 0.0
C341 C 0.69953 0.15667 0.479 0.0
C342 C 0.7345 0.18556 0.4721 0.0
C343 C 0.76036 0.21583 0.48558 0.0
C344 C 0.75265 0.21761 0.5054 0.0
C345 C 0.78489 0.25371 0.51671 0.0
C346 C 0.76967 0.27951 0.52568 0.0
C347 C 0.8049 0.24308 0.53281 0.0
C348 C 0.81152 0.27245 0.50005 0.0
C349 C 0.79689 0.25006 0.48224 0.0
C350 C 0.81563 0.26201 0.46461 0.0
C351 C 0.8503 0.29765 0.46521 0.0
C352 C 0.86615 0.32107 0.48334 0.0
C353 C 0.84626 0.308 0.50096 0.0
H354 H 0.50672 0.68437 0.85105 0.0
H355 H 0.57924 0.68443 0.80397 0.0
H356 H 0.60134 0.75335 0.79989 0.0
H357 H 0.47261 0.7358 0.82728 0.0
H358 H 0.47057 0.76291 0.84912 0.0
H359 H 0.46659 0.71654 0.8513 0.0
H360 H 0.52446 0.74742 0.87741 0.0
H361 H 0.52849 0.79399 0.8754 0.0
H362 H 0.56984 0.78812 0.8714 0.0
H363 H 0.60939 0.8186 0.79815 0.0
H364 H 0.60105 0.8755 0.79765 0.0
H365 H 0.52026 0.83248 0.84466 0.0
C366 C 0.52839 0.69957 0.84046 0.0
C367 C 0.54234 0.67996 0.82817 0.0
C368 C 0.56914 0.69965 0.81376 0.0
C369 C 0.5818 0.73865 0.81139 0.0
C370 C 0.56697 0.75721 0.82344 0.0
C371 C 0.5408 0.73838 0.83769 0.0
C372 C 0.52552 0.76336 0.84683 0.0
C373 C 0.48121 0.74346 0.84342 0.0
C374 C 0.53782 0.77385 0.86908 0.0
C375 C 0.54611 0.79856 0.83499 0.0
C376 C 0.57045 0.79467 0.82188 0.0
C377 C 0.59077 0.8222 0.80849 0.0
C378 C 0.58559 0.85425 0.80821 0.0
C379 C 0.5599 0.85834 0.82106 0.0
C380 C 0.54057 0.83046 0.8349 0.0
H381 H 0.84617 0.51755 0.17543 0.0
H382 H 0.84275 0.47721 0.11373 0.0
H383 H 0.78657 0.48476 0.10619 0.0
H384 H 0.74388 0.46954 0.17977 0.0
H385 H 0.74412 0.50807 0.19518 0.0
H386 H 0.78574 0.50178 0.19588 0.0
H387 H 0.82957 0.57261 0.18722 0.0
H388 H 0.78812 0.57922 0.18665 0.0
H389 H 0.81742 0.58896 0.16534 0.0
H390 H 0.72998 0.49384 0.10523 0.0
H391 H 0.67588 0.50561 0.11072 0.0
H392 H 0.71426 0.54028 0.173 0.0
C393 C 0.83389 0.51085 0.1603 0.0
C394 C 0.84895 0.49689 0.14515 0.0
C395 C 0.83176 0.48792 0.12558 0.0
C396 C 0.79981 0.49212 0.12113 0.0
C397 C 0.78527 0.50529 0.13639 0.0
C398 C 0.80168 0.51471 0.15557 0.0
C399 C 0.77939 0.52727 0.16921 0.0
C400 C 0.76227 0.50003 0.186 0.0
C401 C 0.80517 0.56953 0.1776 0.0
C402 C 0.74782 0.52308 0.15468 0.0
C403 C 0.75203 0.5105 0.13584 0.0
C404 C 0.72653 0.50407 0.11986 0.0
C405 C 0.696 0.51103 0.12312 0.0
C406 C 0.69112 0.52435 0.14222 0.0
C407 C 0.71726 0.53011 0.15825 0.0
H408 H 0.40665 0.82318 0.51668 0.0
H409 H 0.40189 0.91534 0.48834 0.0
H410 H 0.3322 0.87118 0.47945 0.0
H411 H 0.34667 0.74851 0.48047 0.0
H412 H 0.32346 0.71212 0.49788 0.0
H413 H 0.37186 0.75186 0.50361 0.0
H414 H 0.34999 0.76959 0.53665 0.0
H415 H 0.30148 0.7298 0.53104 0.0
H416 H 0.30974 0.77814 0.53613 0.0
H417 H 0.26394 0.8159 0.47215 0.0
H418 H 0.20318 0.7535 0.46584 0.0
H419 H 0.2528 0.69722 0.49872 0.0
C420 C 0.39087 0.83436 0.50889 0.0
C421 C 0.40969 0.87288 0.50334 0.0
C422 C 0.38808 0.88603 0.49282 0.0
C423 C 0.34847 0.86118 0.48775 0.0
C424 C 0.33095 0.82325 0.49326 0.0
C425 C 0.35149 0.80988 0.50358 0.0
C426 C 0.32652 0.76724 0.50667 0.0
C427 C 0.34312 0.74355 0.49655 0.0
C428 C 0.32165 0.76083 0.52895 0.0
C429 C 0.28881 0.75851 0.49625 0.0
C430 C 0.29184 0.79129 0.48881 0.0
C431 C 0.26113 0.79016 0.47809 0.0
C432 C 0.22659 0.75456 0.47471 0.0
C433 C 0.22298 0.72039 0.48191 0.0
C434 C 0.25457 0.72271 0.49299 0.0
H435 H 0.47636 0.33905 0.83186 0.0
H436 H 0.60059 0.41902 0.83623 0.0
H437 H 0.61222 0.36428 0.83256 0.0
H438 H 0.47917 0.26222 0.8584 0.0
H439 H 0.44105 0.22382 0.8424 0.0
H440 H 0.44202 0.26911 0.84716 0.0
H441 H 0.44083 0.2762 0.80923 0.0
H442 H 0.43984 0.23101 0.80437 0.0
H443 H 0.47728 0.27427 0.79456 0.0
H444 H 0.61105 0.30202 0.82643 0.0
H445 H 0.59693 0.23575 0.81677 0.0
H446 H 0.47362 0.19509 0.81626 0.0
C447 C 0.50598 0.34499 0.83232 0.0
C448 C 0.53751 0.38339 0.83441 0.0
C449 C 0.57588 0.38992 0.83469 0.0
C450 C 0.58286 0.35899 0.83269 0.0
C451 C 0.55123 0.32158 0.83049 0.0
C452 C 0.51354 0.31434 0.83029 0.0
C453 C 0.48489 0.27136 0.82659 0.0
C454 C 0.46033 0.25571 0.84472 0.0
C455 C 0.45921 0.26272 0.80755 0.0
C456 C 0.51245 0.25587 0.82409 0.0
C457 C 0.55056 0.28532 0.82676 0.0
C458 C 0.58133 0.27858 0.82456 0.0
C459 C 0.57299 0.24075 0.8192 0.0
C460 C 0.53417 0.21012 0.81594 0.0
C461 C 0.50357 0.21787 0.81869 0.0
H462 H 0.57677 0.86722 0.54138 0.0
H463 H 0.54189 0.86077 0.47925 0.0
H464 H 0.54439 0.80079 0.4729 0.0
H465 H 0.64309 0.8301 0.53266 0.0
H466 H 0.63003 0.80345 0.55457 0.0
H467 H 0.62765 0.84716 0.55402 0.0
H468 H 0.55564 0.8096 0.56284 0.0
H469 H 0.55774 0.76578 0.56332 0.0
H470 H 0.52177 0.76704 0.54738 0.0
H471 H 0.54671 0.73936 0.47366 0.0
H472 H 0.54965 0.68145 0.48142 0.0
H473 H 0.58521 0.72882 0.54276 0.0
C474 C 0.57008 0.85347 0.52639 0.0
C475 C 0.5592 0.86885 0.51082 0.0
C476 C 0.55043 0.84971 0.49144 0.0
C477 C 0.55176 0.81558 0.48766 0.0
C478 C 0.56215 0.80097 0.50337 0.0
C479 C 0.5714 0.8194 0.52232 0.0
C480 C 0.58059 0.797 0.53668 0.0
C481 C 0.62286 0.82085 0.54497 0.0
C482 C 0.55224 0.78409 0.55354 0.0
C483 C 0.57431 0.76277 0.52291 0.0
C484 C 0.56388 0.76571 0.50375 0.0
C485 C 0.55534 0.73696 0.48857 0.0
C486 C 0.55733 0.70424 0.49311 0.0
C487 C 0.56783 0.70043 0.51269 0.0
C488 C 0.57674 0.73047 0.52768 0.0
H489 H 0.69786 0.51457 0.81371 0.0
H490 H 0.68826 0.58683 0.86135 0.0
H491 H 0.75648 0.61127 0.8724 0.0
H492 H 0.75237 0.48597 0.84148 0.0
H493 H 0.78184 0.48613 0.82146 0.0
H494 H 0.73382 0.47762 0.81601 0.0
H495 H 0.76155 0.53462 0.79333 0.0
H496 H 0.80974 0.54326 0.79866 0.0
H497 H 0.79924 0.58183 0.80322 0.0
H498 H 0.82408 0.62398 0.87972 0.0
H499 H 0.8858 0.62404 0.88283 0.0
H500 H 0.85025 0.54213 0.83084 0.0
C501 C 0.71025 0.53612 0.82623 0.0
C502 C 0.68776 0.54898 0.83659 0.0
C503 C 0.70498 0.57673 0.85311 0.0
C504 C 0.74372 0.5908 0.85948 0.0
C505 C 0.76482 0.57692 0.84914 0.0
C506 C 0.74872 0.55031 0.83282 0.0
C507 C 0.77673 0.53815 0.82506 0.0
C508 C 0.7602 0.49438 0.82608 0.0
C509 C 0.78745 0.55019 0.80381 0.0
C510 C 0.81087 0.56147 0.83982 0.0
C511 C 0.80357 0.58392 0.85347 0.0
C512 C 0.83021 0.60674 0.86902 0.0
C513 C 0.86507 0.60636 0.87074 0.0
C514 C 0.87293 0.58311 0.85708 0.0
C515 C 0.84549 0.56076 0.8413 0.0
H516 H 0.14079 0.67508 0.19618 0.0
H517 H 0.1507 0.66967 0.13218 0.0
H518 H 0.20828 0.73528 0.13538 0.0
H519 H 0.17439 0.77975 0.20341 0.0
H520 H 0.20031 0.78515 0.22662 0.0
H521 H 0.15728 0.73984 0.21895 0.0
H522 H 0.19601 0.70419 0.22235 0.0
H523 H 0.23918 0.74935 0.22982 0.0
H524 H 0.23926 0.71931 0.20881 0.0
H525 H 0.26839 0.799 0.14596 0.0
H526 H 0.3257 0.85564 0.16306 0.0
H527 H 0.27581 0.81923 0.22002 0.0
C528 C 0.15444 0.68802 0.18277 0.0
C529 C 0.14104 0.66731 0.1639 0.0
C530 C 0.1603 0.68504 0.14678 0.0
C531 C 0.19303 0.72232 0.14845 0.0
C532 C 0.20606 0.74154 0.16733 0.0
C533 C 0.1872 0.72508 0.18417 0.0
C534 C 0.20853 0.75059 0.20285 0.0
C535 C 0.18364 0.76467 0.21359 0.0
C536 C 0.22151 0.7296 0.21677 0.0
C537 C 0.2428 0.78353 0.19392 0.0
C538 C 0.24072 0.77802 0.17341 0.0
C539 C 0.27004 0.80388 0.162 0.0
C540 C 0.30243 0.83605 0.17184 0.0
C541 C 0.30533 0.84195 0.19289 0.0
C542 C 0.27473 0.81544 0.20394 0.0
H543 H 0.56172 0.17227 0.52646 0.0
H544 H 0.54796 0.17215 0.46244 0.0
H545 H 0.54465 0.2321 0.46709 0.0
H546 H 0.49814 0.20899 0.54032 0.0
H547 H 0.52865 0.23851 0.56167 0.0
H548 H 0.52824 0.19471 0.5533 0.0
H549 H 0.60269 0.23371 0.55048 0.0
H550 H 0.6033 0.27764 0.55876 0.0
H551 H 0.62347 0.27449 0.53545 0.0
H552 H 0.54398 0.29288 0.47874 0.0
H553 H 0.54553 0.34946 0.49655 0.0
H554 H 0.56237 0.31102 0.5528 0.0
C555 C 0.55751 0.18456 0.51343 0.0
C556 C 0.55481 0.16736 0.49408 0.0
C557 C 0.55 0.18476 0.4774 0.0
C558 C 0.54809 0.21881 0.47989 0.0
C559 C 0.5513 0.23528 0.49914 0.0
C560 C 0.55593 0.21875 0.51562 0.0
C561 C 0.55992 0.2429 0.53465 0.0
C562 C 0.52675 0.2199 0.54828 0.0
C563 C 0.59971 0.25808 0.54546 0.0
C564 C 0.55655 0.27544 0.52631 0.0
C565 C 0.55159 0.27055 0.50581 0.0
C566 C 0.54792 0.29704 0.4948 0.0
C567 C 0.54912 0.32926 0.50505 0.0
C568 C 0.55403 0.3348 0.5261 0.0
C569 C 0.55798 0.30745 0.53674 0.0
H570 H 0.36728 0.5108 0.87473 0.0
H571 H 0.39351 0.55491 0.81633 0.0
H572 H 0.33141 0.55467 0.81436 0.0
H573 H 0.26095 0.44928 0.86495 0.0
H574 H 0.25161 0.46045 0.88983 0.0
H575 H 0.29538 0.45927 0.88527 0.0
H576 H 0.33615 0.52921 0.90171 0.0
H577 H 0.29265 0.53071 0.90618 0.0
H578 H 0.32998 0.56718 0.89238 0.0
H579 H 0.26943 0.55634 0.82069 0.0
H580 H 0.21399 0.55959 0.83471 0.0
H581 H 0.22931 0.51377 0.88862 0.0
C582 C 0.35968 0.51964 0.86131 0.0
C583 C 0.38521 0.53276 0.84566 0.0
C584 C 0.37425 0.54442 0.82845 0.0
C585 C 0.33904 0.54439 0.8272 0.0
C586 C 0.315 0.53222 0.84319 0.0
C587 C 0.32479 0.5197 0.85982 0.0
C588 C 0.29557 0.51062 0.8756 0.0
C589 C 0.27463 0.46733 0.87911 0.0
C590 C 0.31475 0.53595 0.8951 0.0
C591 C 0.26854 0.52138 0.86561 0.0
C592 C 0.27974 0.53326 0.84681 0.0
C593 C 0.26011 0.54655 0.83527 0.0
C594 C 0.22862 0.54822 0.84331 0.0
C595 C 0.21748 0.53708 0.86276 0.0
C596 C 0.23733 0.52277 0.87377 0.0
H597 H 0.82239 0.36857 0.20724 0.0
H598 H 0.85477 0.35923 0.14687 0.0
H599 H 0.79747 0.29363 0.14145 0.0
H600 H 0.78576 0.26633 0.21645 0.0
H601 H 0.74749 0.26398 0.23121 0.0
H602 H 0.79239 0.30908 0.23059 0.0
H603 H 0.75429 0.34208 0.21945 0.0
H604 H 0.70937 0.29703 0.21978 0.0
H605 H 0.72223 0.32233 0.19743 0.0
H606 H 0.73334 0.23178 0.14166 0.0
H607 H 0.67005 0.17601 0.1483 0.0
H608 H 0.68193 0.22416 0.20925 0.0
C609 C 0.81771 0.35249 0.19297 0.0
C610 C 0.84296 0.36894 0.17747 0.0
C611 C 0.83593 0.34704 0.15901 0.0
C612 C 0.80339 0.30983 0.15576 0.0
C613 C 0.77861 0.29477 0.17123 0.0
C614 C 0.78575 0.31514 0.18958 0.0
C615 C 0.75438 0.2926 0.20365 0.0
C616 C 0.771 0.28239 0.22153 0.0
C617 C 0.73386 0.31484 0.21047 0.0
C618 C 0.72784 0.25689 0.19015 0.0
C619 C 0.74233 0.25865 0.17153 0.0
C620 C 0.72205 0.22974 0.15631 0.0
C621 C 0.68614 0.19805 0.16027 0.0
C622 C 0.67088 0.19535 0.17935 0.0
C623 C 0.69234 0.22531 0.19444 0.0
H624 H 0.0378 0.56936 0.11398 0.0
H625 H 0.97562 0.44444 0.11458 0.0
H626 H 0.97915 0.43799 0.07808 0.0
H627 H 0.98763 0.57068 0.07114 0.0
H628 H 0.02832 0.61147 0.06136 0.0
H629 H 0.02646 0.60675 0.08775 0.0
H630 H 0.09314 0.61047 0.08846 0.0
H631 H 0.09533 0.61541 0.06203 0.0
H632 H 0.1001 0.57727 0.07218 0.0
H633 H 0.98563 0.4447 0.04175 0.0
H634 H 0.99018 0.46377 0.00733 0.0
H635 H 0.04442 0.5844 0.02967 0.0
C636 C 0.02591 0.5408 0.10638 0.0
C637 C 0.00709 0.50733 0.11693 0.0
C638 C 0.99051 0.4703 0.10662 0.0
C639 C 0.99249 0.4664 0.08596 0.0
C640 C 0.01066 0.49987 0.07585 0.0
C641 C 0.02682 0.53638 0.08564 0.0
C642 C 0.04084 0.56735 0.07097 0.0
C643 C 0.01953 0.5904 0.07292 0.0
C644 C 0.08498 0.59421 0.07357 0.0
C645 C 0.0294 0.54246 0.05145 0.0
C646 C 0.01275 0.5037 0.05466 0.0
C647 C 0.99892 0.47497 0.03901 0.0
C648 C 1.00175 0.48608 0.01953 0.0
C649 C 0.01778 0.52552 0.01587 0.0
C650 C 0.03204 0.55404 0.03207 0.0
H651 H 0.54102 0.06132 0.44465 0.0
H652 H 0.56207 0.96476 0.44412 0.0
H653 H 0.56426 0.96359 0.40763 0.0
H654 H 0.47939 0.029 0.40044 0.0
H655 H 0.49813 0.07665 0.3919 0.0
H656 H 0.49911 0.07077 0.41814 0.0
H657 H 0.57315 0.11838 0.42087 0.0
H658 H 0.57245 0.12454 0.39464 0.0
H659 H 0.60411 0.10933 0.40499 0.0
H660 H 0.56171 0.97083 0.37133 0.0
H661 H 0.55706 0.98791 0.33722 0.0
H662 H 0.539 0.08055 0.36097 0.0
C663 C 0.5463 0.04006 0.4369 0.0
C664 C 0.55125 0.01307 0.44733 0.0
C665 C 0.55809 0.98572 0.43654 0.0
C666 C 0.55941 0.98479 0.41578 0.0
C667 C 0.55409 0.01154 0.40599 0.0
C668 C 0.54791 0.03882 0.41615 0.0
C669 C 0.54283 0.06409 0.40193 0.0
C670 C 0.50246 0.05985 0.40318 0.0
C671 C 0.57506 0.1066 0.40584 0.0
C672 C 0.54685 0.04649 0.3822 0.0
C673 C 0.55323 0.01614 0.38493 0.0
C674 C 0.55687 0.99462 0.36898 0.0
C675 C 0.55395 0.00437 0.34968 0.0
C676 C 0.54759 0.03545 0.3465 0.0
C677 C 0.5442 0.05687 0.36301 0.0
H678 H 0.53469 0.49269 0.76964 0.0
H679 H 0.54676 0.60157 0.79315 0.0
H680 H 0.55101 0.62229 0.75907 0.0
H681 H 0.6013 0.53084 0.73112 0.0
H682 H 0.57328 0.49027 0.7132 0.0
H683 H 0.57003 0.48345 0.73942 0.0
H684 H 0.49557 0.45399 0.73601 0.0
H685 H 0.49857 0.46046 0.70975 0.0
H686 H 0.47594 0.48107 0.72516 0.0
H687 H 0.55656 0.63212 0.72269 0.0
H688 H 0.5597 0.6294 0.6862 0.0
H689 H 0.54226 0.51321 0.68595 0.0
C690 C 0.53789 0.52074 0.76754 0.0
C691 C 0.53949 0.54527 0.78396 0.0
C692 C 0.54405 0.58187 0.78071 0.0
C693 C 0.54702 0.59405 0.76143 0.0
C694 C 0.54527 0.56919 0.74555 0.0
C695 C 0.54054 0.53319 0.74835 0.0
C696 C 0.53939 0.51204 0.72869 0.0
C697 C 0.57301 0.50367 0.72808 0.0
C698 C 0.50002 0.47468 0.72467 0.0
C699 C 0.54456 0.54193 0.71444 0.0
C700 C 0.54803 0.5747 0.7245 0.0
C701 C 0.55347 0.60644 0.71461 0.0
C702 C 0.55497 0.60449 0.69385 0.0
C703 C 0.55079 0.57093 0.68311 0.0
C704 C 0.54579 0.53938 0.69367 0.0
H705 H 0.53297 0.96433 0.56446 0.0
H706 H 0.59674 0.08915 0.56169 0.0
H707 H 0.60026 0.09773 0.59835 0.0
H708 H 0.47582 0.9632 0.60447 0.0
H709 H 0.47656 0.92393 0.61582 0.0
H710 H 0.48087 0.92738 0.58938 0.0
H711 H 0.54526 0.92653 0.59192 0.0
H712 H 0.54106 0.92284 0.61838 0.0
H713 H 0.5841 0.9615 0.6089 0.0
H714 H 0.59504 0.09291 0.63519 0.0
H715 H 0.58247 0.07496 0.66979 0.0
H716 H 0.52066 0.95338 0.64852 0.0
C717 C 0.5481 0.9935 0.57153 0.0
C718 C 0.56465 0.02607 0.56015 0.0
C719 C 0.58381 0.06372 0.57005 0.0
C720 C 0.586 0.06892 0.59088 0.0
C721 C 0.56887 0.03622 0.60161 0.0
C722 C 0.5504 0.99924 0.5923 0.0
C723 C 0.53336 0.969 0.60729 0.0
C724 C 0.48903 0.94444 0.60404 0.0
C725 C 0.55207 0.94347 0.60658 0.0
C726 C 0.54501 0.99478 0.62648 0.0
C727 C 0.56553 0.03344 0.62287 0.0
C728 C 0.57899 0.06273 0.63822 0.0
C729 C 0.57142 0.05223 0.65781 0.0
C730 C 0.55045 0.01276 0.6619 0.0
C731 C 0.53713 0.98378 0.64593 0.0
H732 H 0.52311 0.56587 0.90458 0.0
H733 H 0.51066 0.45509 0.88447 0.0
H734 H 0.50286 0.43648 0.91924 0.0
H735 H 0.58141 0.57962 0.94833 0.0
H736 H 0.56135 0.6037 0.96314 0.0
H737 H 0.56272 0.60667 0.93659 0.0
H738 H 0.48858 0.57978 0.9342 0.0
H739 H 0.48695 0.57659 0.96075 0.0
H740 H 0.4566 0.5343 0.94423 0.0
H741 H 0.49681 0.43054 0.95635 0.0
H742 H 0.49982 0.44004 0.99308 0.0
H743 H 0.51993 0.55628 0.98877 0.0
C744 C 0.51832 0.53753 0.9075 0.0
C745 C 0.51704 0.51167 0.89192 0.0
C746 C 0.51166 0.47522 0.89628 0.0
C747 C 0.50701 0.46438 0.91592 0.0
C748 C 0.50846 0.49063 0.93098 0.0
C749 C 0.51454 0.52667 0.92701 0.0
C750 C 0.51793 0.55073 0.94594 0.0
C751 C 0.55825 0.58733 0.94866 0.0
C752 C 0.48558 0.56093 0.94629 0.0
C753 C 0.51259 0.52255 0.96124 0.0
C754 C 0.50668 0.48787 0.95232 0.0
C755 C 0.50139 0.45756 0.96348 0.0
C756 C 0.50292 0.46313 0.98431 0.0
C757 C 0.51012 0.49889 0.99373 0.0
C758 C 0.51458 0.52872 0.98196 0.0
H759 H 0.04484 0.55234 0.24126 0.0
H760 H 0.92769 0.46379 0.22138 0.0
H761 H 0.91159 0.44984 0.25602 0.0
H762 H 0.05628 0.50211 0.28046 0.0
H763 H 0.08276 0.54457 0.29748 0.0
H764 H 0.0853 0.54891 0.27103 0.0
H765 H 0.06248 0.59914 0.2744 0.0
H766 H 0.05998 0.59506 0.30088 0.0
H767 H 0.01798 0.58679 0.28623 0.0
H768 H 0.90827 0.44336 0.29228 0.0
H769 H 0.91754 0.44568 0.3286 0.0
H770 H 0.03624 0.53935 0.3259 0.0
C771 C 0.01576 0.53016 0.24421 0.0
C772 C 0.98748 0.50928 0.22851 0.0
C773 C 0.94978 0.48045 0.23306 0.0
C774 C 0.94033 0.47219 0.25273 0.0
C775 C 0.9688 0.49311 0.2678 0.0
C776 C 0.00569 0.52163 0.26387 0.0
C777 C 0.03077 0.53952 0.28298 0.0
C778 C 0.06585 0.53339 0.28298 0.0
C779 C 0.04355 0.58269 0.28631 0.0
C780 C 1.0023 0.51609 0.29814 0.0
C781 C 0.96672 0.48963 0.28899 0.0
C782 C 0.93585 0.46425 0.29968 0.0
C783 C 0.94136 0.46599 0.32035 0.0
C784 C 0.97746 0.49301 0.33019 0.0
C785 C 0.00833 0.51832 0.31884 0.0
loop_
_geom_bond_atom_site_label_1
_geom_bond_atom_site_label_2
_geom_bond_distance
_geom_bond_site_symmetry_2
_ccdc_geom_bond_type
Zn0 O6 1.969 . S
Zn0 O7 1.965 . S
Zn0 O11 2.024 . S
Zn0 O16 1.969 . S
Zn1 O8 1.969 . S
Zn1 O14 1.969 . S
Zn1 O15 1.965 . S
Zn1 O17 2.024 . S
C2 O3 1.229 . S
C2 O11 1.058 . S
O3 C2 1.229 . S
C4 O5 1.229 . S
C4 O17 1.058 . S
O5 C4 1.229 . S
O6 Zn0 1.969 . S
O6 C9 1.267 . S
O7 Zn0 1.965 . S
O7 C18 1.260 1_455 S
O8 Zn1 1.969 . S
O8 C18 1.258 . S
C9 O6 1.267 . S
C9 O10 1.228 . S
O10 C9 1.228 . S
O11 Zn0 2.024 . S
O11 C2 1.058 . S
C12 O13 1.228 . S
C12 O14 1.267 . S
O13 C12 1.228 . S
O14 Zn1 1.969 . S
O14 C12 1.267 . S
O15 Zn1 1.965 . S
O15 C19 1.260 1_655 S
O16 Zn0 1.969 . S
O16 C19 1.258 . S
O17 Zn1 2.024 . S
O17 C4 1.058 . S
C18 O7 1.260 1_655 S
C18 O8 1.258 . S
C19 O15 1.260 1_455 S
C19 O16 1.258 . S
Zn20 O26 1.969 . S
Zn20 O27 1.965 . S
Zn20 O31 2.024 . S
Zn20 O36 1.969 . S
Zn21 O28 1.969 . S
Zn21 O34 1.969 . S
Zn21 O35 1.965 . S
Zn21 O37 2.024 . S
C22 O23 1.229 . S
C22 O31 1.058 . S
O23 C22 1.229 . S
C24 O25 1.229 . S
C24 O37 1.058 . S
O25 C24 1.229 . S
O26 Zn20 1.969 . S
O26 C29 1.267 . S
O27 Zn20 1.965 . S
O27 C38 1.260 . S
O28 Zn21 1.969 . S
O28 C38 1.258 1_565 S
C29 O26 1.267 . S
C29 O30 1.228 . S
O30 C29 1.228 . S
O31 Zn20 2.024 . S
O31 C22 1.058 . S
C32 O33 1.228 . S
C32 O34 1.267 . S
O33 C32 1.228 . S
O34 Zn21 1.969 . S
O34 C32 1.267 . S
O35 Zn21 1.965 . S
O35 C39 1.260 1_565 S
O36 Zn20 1.969 . S
O36 C39 1.258 . S
O37 Zn21 2.024 . S
O37 C24 1.058 . S
C38 O27 1.260 . S
C38 O28 1.258 1_545 S
C39 O35 1.260 1_545 S
C39 O36 1.258 . S
Zn40 O46 1.969 . S
Zn40 O47 1.965 . S
Zn40 O51 2.024 . S
Zn40 O56 1.969 . S
Zn41 O48 1.969 . S
Zn41 O54 1.969 . S
Zn41 O55 1.965 . S
Zn41 O57 2.024 . S
C42 O43 1.229 . S
C42 O51 1.058 . S
O43 C42 1.229 . S
C44 O45 1.229 . S
C44 O57 1.058 . S
O45 C44 1.229 . S
O46 Zn40 1.969 . S
O46 C49 1.267 . S
O47 Zn40 1.965 . S
O47 C58 1.260 . S
O48 Zn41 1.969 . S
O48 C58 1.258 . S
C49 O46 1.267 . S
C49 O50 1.228 . S
O50 C49 1.228 . S
O51 Zn40 2.024 . S
O51 C42 1.058 . S
C52 O53 1.228 . S
C52 O54 1.267 . S
O53 C52 1.228 . S
O54 Zn41 1.969 . S
O54 C52 1.267 . S
O55 Zn41 1.965 . S
O55 C59 1.260 . S
O56 Zn40 1.969 . S
O56 C59 1.258 . S
O57 Zn41 2.024 . S
O57 C44 1.058 . S
C58 O47 1.260 . S
C58 O48 1.258 . S
C59 O55 1.260 . S
C59 O56 1.258 . S
C60 C61 1.264 . S
C60 C65 1.479 . S
C60 C70 1.465 . S
C61 C60 1.264 . S
C61 C63 1.339 . S
C61 H88 0.931 . S
C62 C63 1.395 . S
C62 C64 1.320 . S
C63 C61 1.339 . S
C63 C62 1.395 . S
C63 H89 0.929 . S
C64 C62 1.320 . S
C64 C65 1.405 . S
C64 H90 0.930 . S
C65 C60 1.479 . S
C65 C64 1.405 . S
C65 H91 0.931 . S
U66 O67 2.450 1_545 S
U66 O68 2.458 1_545 S
U66 C69 2.984 1_545 S
U66 C70 2.847 . S
U66 C83 2.882 . S
U66 O84 2.441 . S
U66 O85 2.420 . S
U66 O86 2.455 . S
U66 O87 2.449 . S
O67 U66 2.450 1_565 S
O67 C69 1.359 . S
O68 U66 2.458 1_565 S
O68 C69 1.286 . S
C69 U66 2.984 1_565 S
C69 O67 1.359 . S
C69 O68 1.286 . S
C69 C71 1.363 . S
C70 C60 1.465 . S
C70 U66 2.847 . S
C70 O84 1.249 . S
C70 O85 1.202 . S
C71 C69 1.363 . S
C71 C73 1.408 . S
C71 C76 1.342 . S
C72 C73 1.310 . S
C72 C75 1.461 . S
C72 H92 0.932 . S
C73 C71 1.408 . S
C73 C72 1.310 . S
C73 H93 0.930 . S
C74 C75 1.474 . S
C74 C76 1.285 . S
C74 H94 0.929 . S
C75 C72 1.461 . S
C75 C74 1.474 . S
C76 C71 1.342 . S
C76 C74 1.285 . S
C76 H95 0.930 . S
C77 C80 1.424 . S
C77 C82 1.245 . S
C77 C83 1.428 . S
C78 C81 1.260 . S
C78 C82 1.477 . S
C78 H96 0.932 1_545 S
C79 C80 1.384 . S
C79 C81 1.479 . S
C79 H97 0.929 . S
C80 C77 1.424 . S
C80 C79 1.384 . S
C80 H98 0.928 . S
C81 C78 1.260 . S
C81 C79 1.479 . S
C82 C77 1.245 . S
C82 C78 1.477 . S
C82 H99 0.932 1_545 S
C83 U66 2.882 . S
C83 C77 1.428 . S
C83 O86 1.301 . S
C83 O87 1.282 . S
O84 U66 2.441 . S
O84 C70 1.249 . S
O85 U66 2.420 . S
O85 C70 1.202 . S
O86 U66 2.455 . S
O86 C83 1.301 . S
O87 U66 2.449 . S
O87 C83 1.282 . S
H88 C61 0.931 . S
H89 C63 0.929 . S
H90 C64 0.930 . S
H91 C65 0.931 . S
H92 C72 0.932 . S
H93 C73 0.930 . S
H94 C74 0.929 . S
H95 C76 0.930 . S
H96 C78 0.932 1_565 S
H97 C79 0.929 . S
H98 C80 0.928 . S
H99 C82 0.932 1_565 S
C100 C101 1.264 . S
C100 C105 1.479 . S
C100 C110 1.465 . S
C101 C100 1.264 . S
C101 C103 1.339 . S
C101 H128 0.931 . S
C102 C103 1.395 . S
C102 C104 1.320 . S
C103 C101 1.339 . S
C103 C102 1.395 . S
C103 H129 0.929 . S
C104 C102 1.320 . S
C104 C105 1.405 . S
C104 H130 0.930 . S
C105 C100 1.479 . S
C105 C104 1.405 . S
C105 H131 0.931 . S
U106 O107 2.454 . S
U106 O108 2.458 . S
U106 C109 2.984 . S
U106 C110 2.847 . S
U106 C123 2.882 . S
U106 O124 2.441 . S
U106 O125 2.420 . S
U106 O126 2.455 . S
U106 O127 2.449 . S
O107 U106 2.454 . S
O107 C109 1.353 . S
O108 U106 2.458 . S
O108 C109 1.286 . S
C109 U106 2.984 . S
C109 O107 1.353 . S
C109 O108 1.286 . S
C109 C111 1.363 . S
C110 C100 1.465 . S
C110 U106 2.847 . S
C110 O124 1.249 . S
C110 O125 1.202 . S
C111 C109 1.363 . S
C111 C113 1.408 . S
C111 C116 1.342 . S
C112 C113 1.310 . S
C112 C115 1.461 . S
C112 H132 0.932 . S
C113 C111 1.408 . S
C113 C112 1.310 . S
C113 H133 0.930 . S
C114 C115 1.474 . S
C114 C116 1.285 . S
C114 H134 0.929 . S
C115 C112 1.461 . S
C115 C114 1.474 . S
C116 C111 1.342 . S
C116 C114 1.285 . S
C116 H135 0.930 . S
C117 C120 1.424 . S
C117 C122 1.245 . S
C117 C123 1.428 . S
C118 C121 1.260 . S
C118 C122 1.477 . S
C118 H136 0.932 . S
C119 C120 1.384 . S
C119 C121 1.479 . S
C119 H137 0.929 . S
C120 C117 1.424 . S
C120 C119 1.384 . S
C120 H138 0.928 . S
C121 C118 1.260 . S
C121 C119 1.479 . S
C122 C117 1.245 . S
C122 C118 1.477 . S
C122 H139 0.932 . S
C123 U106 2.882 . S
C123 C117 1.428 . S
C123 O126 1.301 . S
C123 O127 1.282 . S
O124 U106 2.441 . S
O124 C110 1.249 . S
O125 U106 2.420 . S
O125 C110 1.202 . S
O126 U106 2.455 . S
O126 C123 1.301 . S
O127 U106 2.449 . S
O127 C123 1.282 . S
H128 C101 0.931 . S
H129 C103 0.929 . S
H130 C104 0.930 . S
H131 C105 0.931 . S
H132 C112 0.932 . S
H133 C113 0.930 . S
H134 C114 0.929 . S
H135 C116 0.930 . S
H136 C118 0.932 . S
H137 C119 0.929 . S
H138 C120 0.928 . S
H139 C122 0.932 . S
C140 C141 1.264 . S
C140 C145 1.479 . S
C140 C150 1.465 . S
C141 C140 1.264 . S
C141 C143 1.339 . S
C141 H168 0.931 . S
C142 C143 1.395 . S
C142 C144 1.320 . S
C143 C141 1.339 . S
C143 C142 1.395 . S
C143 H169 0.929 . S
C144 C142 1.320 . S
C144 C145 1.405 . S
C144 H170 0.930 . S
C145 C140 1.479 . S
C145 C144 1.405 . S
C145 H171 0.931 . S
U146 O147 2.454 . S
U146 O148 2.458 . S
U146 C149 2.984 . S
U146 C150 2.847 1_455 S
U146 C163 2.882 . S
U146 O164 2.441 1_455 S
U146 O165 2.420 1_455 S
U146 O166 2.455 . S
U146 O167 2.449 1_455 S
O147 U146 2.454 . S
O147 C149 1.353 . S
O148 U146 2.458 . S
O148 C149 1.286 . S
C149 U146 2.984 . S
C149 O147 1.353 . S
C149 O148 1.286 . S
C149 C151 1.363 . S
C150 C140 1.465 . S
C150 U146 2.847 1_655 S
C150 O164 1.249 . S
C150 O165 1.202 . S
C151 C149 1.363 . S
C151 C153 1.408 . S
C151 C156 1.342 . S
C152 C153 1.310 . S
C152 C155 1.461 . S
C152 H172 0.932 . S
C153 C151 1.408 . S
C153 C152 1.310 . S
C153 H173 0.930 . S
C154 C155 1.474 . S
C154 C156 1.285 . S
C154 H174 0.929 . S
C155 C152 1.461 . S
C155 C154 1.474 . S
C156 C151 1.342 . S
C156 C154 1.285 . S
C156 H175 0.930 . S
C157 C160 1.424 1_455 S
C157 C162 1.245 . S
C157 C163 1.428 . S
C158 C161 1.260 . S
C158 C162 1.477 . S
C158 H176 0.932 . S
C159 C160 1.384 . S
C159 C161 1.479 1_655 S
C159 H177 0.929 . S
C160 C157 1.424 1_655 S
C160 C159 1.384 . S
C160 H178 0.928 . S
C161 C158 1.260 . S
C161 C159 1.479 1_455 S
C162 C157 1.245 . S
C162 C158 1.477 . S
C162 H179 0.932 . S
C163 U146 2.882 . S
C163 C157 1.428 . S
C163 O166 1.301 . S
C163 O167 1.282 1_455 S
O164 U146 2.441 1_655 S
O164 C150 1.249 . S
O165 U146 2.420 1_655 S
O165 C150 1.202 . S
O166 U146 2.455 . S
O166 C163 1.301 . S
O167 U146 2.449 1_655 S
O167 C163 1.282 1_655 S
H168 C141 0.931 . S
H169 C143 0.929 . S
H170 C144 0.930 . S
H171 C145 0.931 . S
H172 C152 0.932 . S
H173 C153 0.930 . S
H174 C154 0.929 . S
H175 C156 0.930 . S
H176 C158 0.932 . S
H177 C159 0.929 . S
H178 C160 0.928 . S
H179 C162 0.932 . S
C180 C181 1.264 . S
C180 C185 1.479 . S
C180 C190 1.465 . S
C181 C180 1.264 . S
C181 C183 1.339 . S
C181 H208 0.931 . S
C182 C183 1.395 . S
C182 C184 1.320 . S
C183 C181 1.339 . S
C183 C182 1.395 . S
C183 H209 0.929 . S
C184 C182 1.320 . S
C184 C185 1.405 . S
C184 H210 0.930 . S
C185 C180 1.479 . S
C185 C184 1.405 . S
C185 H211 0.931 . S
U186 O187 2.454 . S
U186 O188 2.458 . S
U186 C189 2.984 . S
U186 C190 2.847 1_455 S
U186 C203 2.882 . S
U186 O204 2.441 1_455 S
U186 O205 2.420 1_455 S
U186 O206 2.455 . S
U186 O207 2.449 1_455 S
O187 U186 2.454 . S
O187 C189 1.353 . S
O188 U186 2.458 . S
O188 C189 1.286 . S
C189 U186 2.984 . S
C189 O187 1.353 . S
C189 O188 1.286 . S
C189 C191 1.363 . S
C190 C180 1.465 . S
C190 U186 2.847 1_655 S
C190 O204 1.249 . S
C190 O205 1.202 . S
C191 C189 1.363 . S
C191 C193 1.408 . S
C191 C196 1.342 . S
C192 C193 1.310 . S
C192 C195 1.461 . S
C192 H212 0.932 . S
C193 C191 1.408 . S
C193 C192 1.310 . S
C193 H213 0.930 . S
C194 C195 1.474 . S
C194 C196 1.285 . S
C194 H214 0.929 . S
C195 C192 1.461 . S
C195 C194 1.474 . S
C196 C191 1.342 . S
C196 C194 1.285 . S
C196 H215 0.930 . S
C197 C200 1.424 1_455 S
C197 C202 1.245 . S
C197 C203 1.428 . S
C198 C201 1.260 . S
C198 C202 1.477 . S
C198 H216 0.932 . S
C199 C200 1.384 . S
C199 C201 1.479 1_655 S
C199 H217 0.929 . S
C200 C197 1.424 1_655 S
C200 C199 1.384 . S
C200 H218 0.928 . S
C201 C198 1.260 . S
C201 C199 1.479 1_455 S
C202 C197 1.245 . S
C202 C198 1.477 . S
C202 H219 0.932 . S
C203 U186 2.882 . S
C203 C197 1.428 . S
C203 O206 1.301 . S
C203 O207 1.282 1_455 S
O204 U186 2.441 1_655 S
O204 C190 1.249 . S
O205 U186 2.420 1_655 S
O205 C190 1.202 . S
O206 U186 2.455 . S
O206 C203 1.301 . S
O207 U186 2.449 1_655 S
O207 C203 1.282 1_655 S
H208 C181 0.931 . S
H209 C183 0.929 . S
H210 C184 0.930 . S
H211 C185 0.931 . S
H212 C192 0.932 . S
H213 C193 0.930 . S
H214 C194 0.929 . S
H215 C196 0.930 . S
H216 C198 0.932 . S
H217 C199 0.929 . S
H218 C200 0.928 . S
H219 C202 0.932 . S
C220 C221 1.264 . S
C220 C225 1.479 . S
C220 C230 1.465 . S
C221 C220 1.264 . S
C221 C223 1.339 . S
C221 H248 0.931 . S
C222 C223 1.395 . S
C222 C224 1.320 . S
C223 C221 1.339 . S
C223 C222 1.395 . S
C223 H249 0.929 . S
C224 C222 1.320 . S
C224 C225 1.405 . S
C224 H250 0.930 . S
C225 C220 1.479 . S
C225 C224 1.405 . S
C225 H251 0.931 . S
U226 O227 2.454 . S
U226 O228 2.458 . S
U226 C229 2.984 . S
U226 C230 2.847 1_545 S
U226 C243 2.882 . S
U226 O244 2.441 1_545 S
U226 O245 2.420 1_545 S
U226 O246 2.455 . S
U226 O247 2.449 1_545 S
O227 U226 2.454 . S
O227 C229 1.353 . S
O228 U226 2.458 . S
O228 C229 1.286 . S
C229 U226 2.984 . S
C229 O227 1.353 . S
C229 O228 1.286 . S
C229 C231 1.363 . S
C230 C220 1.465 . S
C230 U226 2.847 1_565 S
C230 O244 1.249 . S
C230 O245 1.202 . S
C231 C229 1.363 . S
C231 C233 1.408 . S
C231 C236 1.342 . S
C232 C233 1.310 . S
C232 C235 1.461 . S
C232 H252 0.932 . S
C233 C231 1.408 . S
C233 C232 1.310 . S
C233 H253 0.930 . S
C234 C235 1.474 . S
C234 C236 1.285 . S
C234 H254 0.929 . S
C235 C232 1.461 . S
C235 C234 1.474 . S
C236 C231 1.342 . S
C236 C234 1.285 . S
C236 H255 0.930 . S
C237 C240 1.424 1_545 S
C237 C242 1.245 . S
C237 C243 1.428 . S
C238 C241 1.260 . S
C238 C242 1.477 . S
C238 H256 0.932 . S
C239 C240 1.384 . S
C239 C241 1.479 1_565 S
C239 H257 0.929 . S
C240 C237 1.424 1_565 S
C240 C239 1.384 . S
C240 H258 0.928 . S
C241 C238 1.260 . S
C241 C239 1.479 1_545 S
C242 C237 1.245 . S
C242 C238 1.477 . S
C242 H259 0.932 . S
C243 U226 2.882 . S
C243 C237 1.428 . S
C243 O246 1.301 . S
C243 O247 1.282 1_545 S
O244 U226 2.441 1_565 S
O244 C230 1.249 . S
O245 U226 2.420 1_565 S
O245 C230 1.202 . S
O246 U226 2.455 . S
O246 C243 1.301 . S
O247 U226 2.449 1_565 S
O247 C243 1.282 1_565 S
H248 C221 0.931 . S
H249 C223 0.929 . S
H250 C224 0.930 . S
H251 C225 0.931 . S
H252 C232 0.932 . S
H253 C233 0.930 . S
H254 C234 0.929 . S
H255 C236 0.930 . S
H256 C238 0.932 . S
H257 C239 0.929 . S
H258 C240 0.928 . S
H259 C242 0.932 . S
C260 C261 1.264 . S
C260 C265 1.479 . S
C260 C270 1.465 . S
C261 C260 1.264 . S
C261 C263 1.339 . S
C261 H288 0.931 . S
C262 C263 1.395 . S
C262 C264 1.320 . S
C263 C261 1.339 . S
C263 C262 1.395 . S
C263 H289 0.929 . S
C264 C262 1.320 . S
C264 C265 1.405 . S
C264 H290 0.930 . S
C265 C260 1.479 . S
C265 C264 1.405 . S
C265 H291 0.931 . S
U266 O267 2.454 . S
U266 O268 2.458 . S
U266 C269 2.984 . S
U266 C270 2.847 . S
U266 C283 2.882 . S
U266 O284 2.441 . S
U266 O285 2.420 . S
U266 O286 2.455 . S
U266 O287 2.449 . S
O267 U266 2.454 . S
O267 C269 1.353 . S
O268 U266 2.458 . S
O268 C269 1.286 . S
C269 U266 2.984 . S
C269 O267 1.353 . S
C269 O268 1.286 . S
C269 C271 1.363 . S
C270 C260 1.465 . S
C270 U266 2.847 . S
C270 O284 1.249 . S
C270 O285 1.202 . S
C271 C269 1.363 . S
C271 C273 1.408 . S
C271 C276 1.342 . S
C272 C273 1.310 . S
C272 C275 1.461 . S
C272 H292 0.932 . S
C273 C271 1.408 . S
C273 C272 1.310 . S
C273 H293 0.930 . S
C274 C275 1.474 . S
C274 C276 1.285 . S
C274 H294 0.929 . S
C275 C272 1.461 . S
C275 C274 1.474 . S
C276 C271 1.342 . S
C276 C274 1.285 . S
C276 H295 0.930 . S
C277 C280 1.424 . S
C277 C282 1.245 . S
C277 C283 1.428 . S
C278 C281 1.260 . S
C278 C282 1.477 . S
C278 H296 0.932 . S
C279 C280 1.384 . S
C279 C281 1.479 . S
C279 H297 0.929 . S
C280 C277 1.424 . S
C280 C279 1.384 . S
C280 H298 0.928 . S
C281 C278 1.260 . S
C281 C279 1.479 . S
C282 C277 1.245 . S
C282 C278 1.477 . S
C282 H299 0.932 . S
C283 U266 2.882 . S
C283 C277 1.428 . S
C283 O286 1.301 . S
C283 O287 1.282 . S
O284 U266 2.441 . S
O284 C270 1.249 . S
O285 U266 2.420 . S
O285 C270 1.202 . S
O286 U266 2.455 . S
O286 C283 1.301 . S
O287 U266 2.449 . S
O287 C283 1.282 . S
H288 C261 0.931 . S
H289 C263 0.929 . S
H290 C264 0.930 . S
H291 C265 0.931 . S
H292 C272 0.932 . S
H293 C273 0.930 . S
H294 C274 0.929 . S
H295 C276 0.930 . S
H296 C278 0.932 . S
H297 C279 0.929 . S
H298 C280 0.928 . S
H299 C282 0.932 . S
H300 C312 0.930 . S
H301 C314 0.930 . S
H302 C315 0.930 . S
H303 C319 0.959 . S
H304 C319 0.959 . S
H305 C319 0.961 . S
H306 C320 0.960 . S
H307 C320 0.961 . S
H308 C320 0.959 . S
H309 C323 0.929 . S
H310 C324 0.931 . S
H311 C326 0.930 . S
C312 H300 0.930 . S
C312 C313 1.399 . S
C312 C317 1.399 . S
C313 C312 1.399 . S
C313 C314 1.376 . S
C314 H301 0.930 . S
C314 C313 1.376 . S
C314 C315 1.388 . S
C315 H302 0.930 . S
C315 C314 1.388 . S
C315 C316 1.390 . S
C316 C315 1.390 . S
C316 C317 1.394 . S
C316 C322 1.465 . S
C317 C312 1.399 . S
C317 C316 1.394 . S
C317 C318 1.516 . S
C318 C317 1.516 . S
C318 C319 1.502 . S
C318 C320 1.561 . S
C318 C321 1.526 . S
C319 H303 0.959 . S
C319 H304 0.959 . S
C319 H305 0.961 . S
C319 C318 1.502 . S
C320 H306 0.960 . S
C320 H307 0.961 . S
C320 H308 0.959 . S
C320 C318 1.561 . S
C321 C318 1.526 . S
C321 C322 1.396 . S
C321 C326 1.390 . S
C322 C316 1.465 . S
C322 C321 1.396 . S
C322 C323 1.399 . S
C323 H309 0.929 . S
C323 C322 1.399 . S
C323 C324 1.385 . S
C324 H310 0.931 . S
C324 C323 1.385 . S
C324 C325 1.389 . S
C325 C324 1.389 . S
C325 C326 1.387 . S
C326 H311 0.930 . S
C326 C321 1.390 . S
C326 C325 1.387 . S
H327 C339 0.930 . S
H328 C341 0.930 . S
H329 C342 0.930 . S
H330 C346 0.959 . S
H331 C346 0.959 . S
H332 C346 0.961 . S
H333 C347 0.960 . S
H334 C347 0.961 . S
H335 C347 0.959 . S
H336 C350 0.929 . S
H337 C351 0.931 . S
H338 C353 0.930 . S
C339 H327 0.930 . S
C339 C340 1.399 . S
C339 C344 1.399 . S
C340 C339 1.399 . S
C340 C341 1.376 . S
C341 H328 0.930 . S
C341 C340 1.376 . S
C341 C342 1.388 . S
C342 H329 0.930 . S
C342 C341 1.388 . S
C342 C343 1.390 . S
C343 C342 1.390 . S
C343 C344 1.394 . S
C343 C349 1.465 . S
C344 C339 1.399 . S
C344 C343 1.394 . S
C344 C345 1.516 . S
C345 C344 1.516 . S
C345 C346 1.502 . S
C345 C347 1.561 . S
C345 C348 1.526 . S
C346 H330 0.959 . S
C346 H331 0.959 . S
C346 H332 0.961 . S
C346 C345 1.502 . S
C347 H333 0.960 . S
C347 H334 0.961 . S
C347 H335 0.959 . S
C347 C345 1.561 . S
C348 C345 1.526 . S
C348 C349 1.396 . S
C348 C353 1.390 . S
C349 C343 1.465 . S
C349 C348 1.396 . S
C349 C350 1.399 . S
C350 H336 0.929 . S
C350 C349 1.399 . S
C350 C351 1.385 . S
C351 H337 0.931 . S
C351 C350 1.385 . S
C351 C352 1.389 . S
C352 C351 1.389 . S
C352 C353 1.387 . S
C353 H338 0.930 . S
C353 C348 1.390 . S
C353 C352 1.387 . S
H354 C366 0.930 . S
H355 C368 0.930 . S
H356 C369 0.930 . S
H357 C373 0.959 . S
H358 C373 0.959 . S
H359 C373 0.961 . S
H360 C374 0.960 . S
H361 C374 0.961 . S
H362 C374 0.959 . S
H363 C377 0.929 . S
H364 C378 0.931 . S
H365 C380 0.930 . S
C366 H354 0.930 . S
C366 C367 1.399 . S
C366 C371 1.399 . S
C367 C366 1.399 . S
C367 C368 1.376 . S
C368 H355 0.930 . S
C368 C367 1.376 . S
C368 C369 1.388 . S
C369 H356 0.930 . S
C369 C368 1.388 . S
C369 C370 1.390 . S
C370 C369 1.390 . S
C370 C371 1.394 . S
C370 C376 1.465 . S
C371 C366 1.399 . S
C371 C370 1.394 . S
C371 C372 1.516 . S
C372 C371 1.516 . S
C372 C373 1.502 . S
C372 C374 1.561 . S
C372 C375 1.526 . S
C373 H357 0.959 . S
C373 H358 0.959 . S
C373 H359 0.961 . S
C373 C372 1.502 . S
C374 H360 0.960 . S
C374 H361 0.961 . S
C374 H362 0.959 . S
C374 C372 1.561 . S
C375 C372 1.526 . S
C375 C376 1.396 . S
C375 C380 1.390 . S
C376 C370 1.465 . S
C376 C375 1.396 . S
C376 C377 1.399 . S
C377 H363 0.929 . S
C377 C376 1.399 . S
C377 C378 1.385 . S
C378 H364 0.931 . S
C378 C377 1.385 . S
C378 C379 1.389 . S
C379 C378 1.389 . S
C379 C380 1.387 . S
C380 H365 0.930 . S
C380 C375 1.390 . S
C380 C379 1.387 . S
H381 C393 0.930 . S
H382 C395 0.930 . S
H383 C396 0.930 . S
H384 C400 0.959 . S
H385 C400 0.959 . S
H386 C400 0.961 . S
H387 C401 0.960 . S
H388 C401 0.961 . S
H389 C401 0.959 . S
H390 C404 0.929 . S
H391 C405 0.931 . S
H392 C407 0.930 . S
C393 H381 0.930 . S
C393 C394 1.399 . S
C393 C398 1.399 . S
C394 C393 1.399 . S
C394 C395 1.376 . S
C395 H382 0.930 . S
C395 C394 1.376 . S
C395 C396 1.388 . S
C396 H383 0.930 . S
C396 C395 1.388 . S
C396 C397 1.390 . S
C397 C396 1.390 . S
C397 C398 1.394 . S
C397 C403 1.465 . S
C398 C393 1.399 . S
C398 C397 1.394 . S
C398 C399 1.516 . S
C399 C398 1.516 . S
C399 C400 1.502 . S
C399 C401 1.561 . S
C399 C402 1.526 . S
C400 H384 0.959 . S
C400 H385 0.959 . S
C400 H386 0.961 . S
C400 C399 1.502 . S
C401 H387 0.960 . S
C401 H388 0.961 . S
C401 H389 0.959 . S
C401 C399 1.561 . S
C402 C399 1.526 . S
C402 C403 1.396 . S
C402 C407 1.390 . S
C403 C397 1.465 . S
C403 C402 1.396 . S
C403 C404 1.399 . S
C404 H390 0.929 . S
C404 C403 1.399 . S
C404 C405 1.385 . S
C405 H391 0.931 . S
C405 C404 1.385 . S
C405 C406 1.389 . S
C406 C405 1.389 . S
C406 C407 1.387 . S
C407 H392 0.930 . S
C407 C402 1.390 . S
C407 C406 1.387 . S
H408 C420 0.930 . S
H409 C422 0.930 . S
H410 C423 0.930 . S
H411 C427 0.959 . S
H412 C427 0.959 . S
H413 C427 0.961 . S
H414 C428 0.960 . S
H415 C428 0.961 . S
H416 C428 0.959 . S
H417 C431 0.929 . S
H418 C432 0.931 . S
H419 C434 0.930 . S
C420 H408 0.930 . S
C420 C421 1.399 . S
C420 C425 1.399 . S
C421 C420 1.399 . S
C421 C422 1.376 . S
C422 H409 0.930 . S
C422 C421 1.376 . S
C422 C423 1.388 . S
C423 H410 0.930 . S
C423 C422 1.388 . S
C423 C424 1.390 . S
C424 C423 1.390 . S
C424 C425 1.394 . S
C424 C430 1.465 . S
C425 C420 1.399 . S
C425 C424 1.394 . S
C425 C426 1.516 . S
C426 C425 1.516 . S
C426 C427 1.502 . S
C426 C428 1.561 . S
C426 C429 1.526 . S
C427 H411 0.959 . S
C427 H412 0.959 . S
C427 H413 0.961 . S
C427 C426 1.502 . S
C428 H414 0.960 . S
C428 H415 0.961 . S
C428 H416 0.959 . S
C428 C426 1.561 . S
C429 C426 1.526 . S
C429 C430 1.396 . S
C429 C434 1.390 . S
C430 C424 1.465 . S
C430 C429 1.396 . S
C430 C431 1.399 . S
C431 H417 0.929 . S
C431 C430 1.399 . S
C431 C432 1.385 . S
C432 H418 0.931 . S
C432 C431 1.385 . S
C432 C433 1.389 . S
C433 C432 1.389 . S
C433 C434 1.387 . S
C434 H419 0.930 . S
C434 C429 1.390 . S
C434 C433 1.387 . S
H435 C447 0.930 . S
H436 C449 0.930 . S
H437 C450 0.930 . S
H438 C454 0.959 . S
H439 C454 0.959 . S
H440 C454 0.961 . S
H441 C455 0.960 . S
H442 C455 0.961 . S
H443 C455 0.959 . S
H444 C458 0.929 . S
H445 C459 0.931 . S
H446 C461 0.930 . S
C447 H435 0.930 . S
C447 C448 1.399 . S
C447 C452 1.399 . S
C448 C447 1.399 . S
C448 C449 1.376 . S
C449 H436 0.930 . S
C449 C448 1.376 . S
C449 C450 1.388 . S
C450 H437 0.930 . S
C450 C449 1.388 . S
C450 C451 1.390 . S
C451 C450 1.390 . S
C451 C452 1.394 . S
C451 C457 1.465 . S
C452 C447 1.399 . S
C452 C451 1.394 . S
C452 C453 1.516 . S
C453 C452 1.516 . S
C453 C454 1.502 . S
C453 C455 1.561 . S
C453 C456 1.526 . S
C454 H438 0.959 . S
C454 H439 0.959 . S
C454 H440 0.961 . S
C454 C453 1.502 . S
C455 H441 0.960 . S
C455 H442 0.961 . S
C455 H443 0.959 . S
C455 C453 1.561 . S
C456 C453 1.526 . S
C456 C457 1.396 . S
C456 C461 1.390 . S
C457 C451 1.465 . S
C457 C456 1.396 . S
C457 C458 1.399 . S
C458 H444 0.929 . S
C458 C457 1.399 . S
C458 C459 1.385 . S
C459 H445 0.931 . S
C459 C458 1.385 . S
C459 C460 1.389 . S
C460 C459 1.389 . S
C460 C461 1.387 . S
C461 H446 0.930 . S
C461 C456 1.390 . S
C461 C460 1.387 . S
H462 C474 0.930 . S
H463 C476 0.930 . S
H464 C477 0.930 . S
H465 C481 0.959 . S
H466 C481 0.959 . S
H467 C481 0.961 . S
H468 C482 0.960 . S
H469 C482 0.961 . S
H470 C482 0.959 . S
H471 C485 0.929 . S
H472 C486 0.931 . S
H473 C488 0.930 . S
C474 H462 0.930 . S
C474 C475 1.399 . S
C474 C479 1.399 . S
C475 C474 1.399 . S
C475 C476 1.376 . S
C476 H463 0.930 . S
C476 C475 1.376 . S
C476 C477 1.388 . S
C477 H464 0.930 . S
C477 C476 1.388 . S
C477 C478 1.390 . S
C478 C477 1.390 . S
C478 C479 1.394 . S
C478 C484 1.465 . S
C479 C474 1.399 . S
C479 C478 1.394 . S
C479 C480 1.516 . S
C480 C479 1.516 . S
C480 C481 1.502 . S
C480 C482 1.561 . S
C480 C483 1.526 . S
C481 H465 0.959 . S
C481 H466 0.959 . S
C481 H467 0.961 . S
C481 C480 1.502 . S
C482 H468 0.960 . S
C482 H469 0.961 . S
C482 H470 0.959 . S
C482 C480 1.561 . S
C483 C480 1.526 . S
C483 C484 1.396 . S
C483 C488 1.390 . S
C484 C478 1.465 . S
C484 C483 1.396 . S
C484 C485 1.399 . S
C485 H471 0.929 . S
C485 C484 1.399 . S
C485 C486 1.385 . S
C486 H472 0.931 . S
C486 C485 1.385 . S
C486 C487 1.389 . S
C487 C486 1.389 . S
C487 C488 1.387 . S
C488 H473 0.930 . S
C488 C483 1.390 . S
C488 C487 1.387 . S
H489 C501 0.930 . S
H490 C503 0.930 . S
H491 C504 0.930 . S
H492 C508 0.959 . S
H493 C508 0.959 . S
H494 C508 0.961 . S
H495 C509 0.960 . S
H496 C509 0.961 . S
H497 C509 0.959 . S
H498 C512 0.929 . S
H499 C513 0.931 . S
H500 C515 0.930 . S
C501 H489 0.930 . S
C501 C502 1.399 . S
C501 C506 1.399 . S
C502 C501 1.399 . S
C502 C503 1.376 . S
C503 H490 0.930 . S
C503 C502 1.376 . S
C503 C504 1.388 . S
C504 H491 0.930 . S
C504 C503 1.388 . S
C504 C505 1.390 . S
C505 C504 1.390 . S
C505 C506 1.394 . S
C505 C511 1.465 . S
C506 C501 1.399 . S
C506 C505 1.394 . S
C506 C507 1.516 . S
C507 C506 1.516 . S
C507 C508 1.502 . S
C507 C509 1.561 . S
C507 C510 1.526 . S
C508 H492 0.959 . S
C508 H493 0.959 . S
C508 H494 0.961 . S
C508 C507 1.502 . S
C509 H495 0.960 . S
C509 H496 0.961 . S
C509 H497 0.959 . S
C509 C507 1.561 . S
C510 C507 1.526 . S
C510 C511 1.396 . S
C510 C515 1.390 . S
C511 C505 1.465 . S
C511 C510 1.396 . S
C511 C512 1.399 . S
C512 H498 0.929 . S
C512 C511 1.399 . S
C512 C513 1.385 . S
C513 H499 0.931 . S
C513 C512 1.385 . S
C513 C514 1.389 . S
C514 C513 1.389 . S
C514 C515 1.387 . S
C515 H500 0.930 . S
C515 C510 1.390 . S
C515 C514 1.387 . S
H516 C528 0.930 . S
H517 C530 0.930 . S
H518 C531 0.930 . S
H519 C535 0.959 . S
H520 C535 0.959 . S
H521 C535 0.961 . S
H522 C536 0.960 . S
H523 C536 0.961 . S
H524 C536 0.959 . S
H525 C539 0.929 . S
H526 C540 0.931 . S
H527 C542 0.930 . S
C528 H516 0.930 . S
C528 C529 1.399 . S
C528 C533 1.399 . S
C529 C528 1.399 . S
C529 C530 1.376 . S
C530 H517 0.930 . S
C530 C529 1.376 . S
C530 C531 1.388 . S
C531 H518 0.930 . S
C531 C530 1.388 . S
C531 C532 1.390 . S
C532 C531 1.390 . S
C532 C533 1.394 . S
C532 C538 1.465 . S
C533 C528 1.399 . S
C533 C532 1.394 . S
C533 C534 1.516 . S
C534 C533 1.516 . S
C534 C535 1.502 . S
C534 C536 1.561 . S
C534 C537 1.526 . S
C535 H519 0.959 . S
C535 H520 0.959 . S
C535 H521 0.961 . S
C535 C534 1.502 . S
C536 H522 0.960 . S
C536 H523 0.961 . S
C536 H524 0.959 . S
C536 C534 1.561 . S
C537 C534 1.526 . S
C537 C538 1.396 . S
C537 C542 1.390 . S
C538 C532 1.465 . S
C538 C537 1.396 . S
C538 C539 1.399 . S
C539 H525 0.929 . S
C539 C538 1.399 . S
C539 C540 1.385 . S
C540 H526 0.931 . S
C540 C539 1.385 . S
C540 C541 1.389 . S
C541 C540 1.389 . S
C541 C542 1.387 . S
C542 H527 0.930 . S
C542 C537 1.390 . S
C542 C541 1.387 . S
H543 C555 0.930 . S
H544 C557 0.930 . S
H545 C558 0.930 . S
H546 C562 0.959 . S
H547 C562 0.959 . S
H548 C562 0.961 . S
H549 C563 0.960 . S
H550 C563 0.961 . S
H551 C563 0.959 . S
H552 C566 0.929 . S
H553 C567 0.931 . S
H554 C569 0.930 . S
C555 H543 0.930 . S
C555 C556 1.399 . S
C555 C560 1.399 . S
C556 C555 1.399 . S
C556 C557 1.376 . S
C557 H544 0.930 . S
C557 C556 1.376 . S
C557 C558 1.388 . S
C558 H545 0.930 . S
C558 C557 1.388 . S
C558 C559 1.390 . S
C559 C558 1.390 . S
C559 C560 1.394 . S
C559 C565 1.465 . S
C560 C555 1.399 . S
C560 C559 1.394 . S
C560 C561 1.516 . S
C561 C560 1.516 . S
C561 C562 1.502 . S
C561 C563 1.561 . S
C561 C564 1.526 . S
C562 H546 0.959 . S
C562 H547 0.959 . S
C562 H548 0.961 . S
C562 C561 1.502 . S
C563 H549 0.960 . S
C563 H550 0.961 . S
C563 H551 0.959 . S
C563 C561 1.561 . S
C564 C561 1.526 . S
C564 C565 1.396 . S
C564 C569 1.390 . S
C565 C559 1.465 . S
C565 C564 1.396 . S
C565 C566 1.399 . S
C566 H552 0.929 . S
C566 C565 1.399 . S
C566 C567 1.385 . S
C567 H553 0.931 . S
C567 C566 1.385 . S
C567 C568 1.389 . S
C568 C567 1.389 . S
C568 C569 1.387 . S
C569 H554 0.930 . S
C569 C564 1.390 . S
C569 C568 1.387 . S
H570 C582 0.930 . S
H571 C584 0.930 . S
H572 C585 0.930 . S
H573 C589 0.959 . S
H574 C589 0.959 . S
H575 C589 0.961 . S
H576 C590 0.960 . S
H577 C590 0.961 . S
H578 C590 0.959 . S
H579 C593 0.929 . S
H580 C594 0.931 . S
H581 C596 0.930 . S
C582 H570 0.930 . S
C582 C583 1.399 . S
C582 C587 1.399 . S
C583 C582 1.399 . S
C583 C584 1.376 . S
C584 H571 0.930 . S
C584 C583 1.376 . S
C584 C585 1.388 . S
C585 H572 0.930 . S
C585 C584 1.388 . S
C585 C586 1.390 . S
C586 C585 1.390 . S
C586 C587 1.394 . S
C586 C592 1.465 . S
C587 C582 1.399 . S
C587 C586 1.394 . S
C587 C588 1.516 . S
C588 C587 1.516 . S
C588 C589 1.502 . S
C588 C590 1.561 . S
C588 C591 1.526 . S
C589 H573 0.959 . S
C589 H574 0.959 . S
C589 H575 0.961 . S
C589 C588 1.502 . S
C590 H576 0.960 . S
C590 H577 0.961 . S
C590 H578 0.959 . S
C590 C588 1.561 . S
C591 C588 1.526 . S
C591 C592 1.396 . S
C591 C596 1.390 . S
C592 C586 1.465 . S
C592 C591 1.396 . S
C592 C593 1.399 . S
C593 H579 0.929 . S
C593 C592 1.399 . S
C593 C594 1.385 . S
C594 H580 0.931 . S
C594 C593 1.385 . S
C594 C595 1.389 . S
C595 C594 1.389 . S
C595 C596 1.387 . S
C596 H581 0.930 . S
C596 C591 1.390 . S
C596 C595 1.387 . S
H597 C609 0.930 . S
H598 C611 0.930 . S
H599 C612 0.930 . S
H600 C616 0.959 . S
H601 C616 0.959 . S
H602 C616 0.961 . S
H603 C617 0.960 . S
H604 C617 0.961 . S
H605 C617 0.959 . S
H606 C620 0.929 . S
H607 C621 0.931 . S
H608 C623 0.930 . S
C609 H597 0.930 . S
C609 C610 1.399 . S
C609 C614 1.399 . S
C610 C609 1.399 . S
C610 C611 1.376 . S
C611 H598 0.930 . S
C611 C610 1.376 . S
C611 C612 1.388 . S
C612 H599 0.930 . S
C612 C611 1.388 . S
C612 C613 1.390 . S
C613 C612 1.390 . S
C613 C614 1.394 . S
C613 C619 1.465 . S
C614 C609 1.399 . S
C614 C613 1.394 . S
C614 C615 1.516 . S
C615 C614 1.516 . S
C615 C616 1.502 . S
C615 C617 1.561 . S
C615 C618 1.526 . S
C616 H600 0.959 . S
C616 H601 0.959 . S
C616 H602 0.961 . S
C616 C615 1.502 . S
C617 H603 0.960 . S
C617 H604 0.961 . S
C617 H605 0.959 . S
C617 C615 1.561 . S
C618 C615 1.526 . S
C618 C619 1.396 . S
C618 C623 1.390 . S
C619 C613 1.465 . S
C619 C618 1.396 . S
C619 C620 1.399 . S
C620 H606 0.929 . S
C620 C619 1.399 . S
C620 C621 1.385 . S
C621 H607 0.931 . S
C621 C620 1.385 . S
C621 C622 1.389 . S
C622 C621 1.389 . S
C622 C623 1.387 . S
C623 H608 0.930 . S
C623 C618 1.390 . S
C623 C622 1.387 . S
H624 C636 0.930 . S
H625 C638 0.930 . S
H626 C639 0.933 1_655 S
H627 C643 0.959 1_655 S
H628 C643 0.959 . S
H629 C643 0.961 . S
H630 C644 0.960 . S
H631 C644 0.961 . S
H632 C644 0.959 . S
H633 C647 0.929 . S
H634 C648 0.931 . S
H635 C650 0.930 . S
C636 H624 0.930 . S
C636 C637 1.399 . S
C636 C641 1.399 . S
C637 C636 1.399 . S
C637 C638 1.376 1_455 S
C638 H625 0.930 . S
C638 C637 1.376 1_655 S
C638 C639 1.387 1_655 S
C639 H626 0.933 1_455 S
C639 C638 1.387 1_455 S
C639 C640 1.389 . S
C640 C639 1.389 . S
C640 C641 1.394 . S
C640 C646 1.465 . S
C641 C636 1.399 . S
C641 C640 1.394 . S
C641 C642 1.516 . S
C642 C641 1.516 . S
C642 C643 1.502 . S
C642 C644 1.561 . S
C642 C645 1.526 . S
C643 H627 0.959 1_455 S
C643 H628 0.959 . S
C643 H629 0.961 . S
C643 C642 1.502 . S
C644 H630 0.960 . S
C644 H631 0.961 . S
C644 H632 0.959 . S
C644 C642 1.561 . S
C645 C642 1.526 . S
C645 C646 1.396 . S
C645 C650 1.390 . S
C646 C640 1.465 . S
C646 C645 1.396 . S
C646 C647 1.399 . S
C647 H633 0.929 . S
C647 C646 1.399 . S
C647 C648 1.385 . S
C648 H634 0.931 . S
C648 C647 1.385 . S
C648 C649 1.389 . S
C649 C648 1.389 . S
C649 C650 1.387 . S
C650 H635 0.930 . S
C650 C645 1.390 . S
C650 C649 1.387 . S
H651 C663 0.930 . S
H652 C665 0.952 . S
H653 C666 0.930 . S
H654 C670 0.966 . S
H655 C670 0.959 . S
H656 C670 0.961 . S
H657 C671 0.960 . S
H658 C671 0.961 . S
H659 C671 0.959 . S
H660 C674 0.929 . S
H661 C675 0.931 . S
H662 C677 0.930 . S
C663 H651 0.930 . S
C663 C664 1.399 . S
C663 C668 1.399 . S
C664 C663 1.399 . S
C664 C665 1.376 . S
C665 H652 0.952 . S
C665 C664 1.376 . S
C665 C666 1.388 . S
C666 H653 0.930 . S
C666 C665 1.388 . S
C666 C667 1.390 . S
C667 C666 1.390 . S
C667 C668 1.394 . S
C667 C673 1.465 . S
C668 C663 1.399 . S
C668 C667 1.394 . S
C668 C669 1.516 . S
C669 C668 1.516 . S
C669 C670 1.502 . S
C669 C671 1.561 . S
C669 C672 1.526 . S
C670 H654 0.966 . S
C670 H655 0.959 . S
C670 H656 0.961 . S
C670 C669 1.502 . S
C671 H657 0.960 . S
C671 H658 0.961 . S
C671 H659 0.959 . S
C671 C669 1.561 . S
C672 C669 1.526 . S
C672 C673 1.396 . S
C672 C677 1.390 . S
C673 C667 1.465 . S
C673 C672 1.396 . S
C673 C674 1.399 . S
C674 H660 0.929 . S
C674 C673 1.399 . S
C674 C675 1.385 . S
C675 H661 0.931 . S
C675 C674 1.385 . S
C675 C676 1.389 . S
C676 C675 1.389 . S
C676 C677 1.387 . S
C677 H662 0.930 . S
C677 C672 1.390 . S
C677 C676 1.387 . S
H678 C690 0.930 . S
H679 C692 0.930 . S
H680 C693 0.930 . S
H681 C697 0.959 . S
H682 C697 0.959 . S
H683 C697 0.961 . S
H684 C698 0.960 . S
H685 C698 0.961 . S
H686 C698 0.959 . S
H687 C701 0.929 . S
H688 C702 0.931 . S
H689 C704 0.930 . S
C690 H678 0.930 . S
C690 C691 1.399 . S
C690 C695 1.399 . S
C691 C690 1.399 . S
C691 C692 1.376 . S
C692 H679 0.930 . S
C692 C691 1.376 . S
C692 C693 1.388 . S
C693 H680 0.930 . S
C693 C692 1.388 . S
C693 C694 1.390 . S
C694 C693 1.390 . S
C694 C695 1.394 . S
C694 C700 1.465 . S
C695 C690 1.399 . S
C695 C694 1.394 . S
C695 C696 1.516 . S
C696 C695 1.516 . S
C696 C697 1.502 . S
C696 C698 1.561 . S
C696 C699 1.526 . S
C697 H681 0.959 . S
C697 H682 0.959 . S
C697 H683 0.961 . S
C697 C696 1.502 . S
C698 H684 0.960 . S
C698 H685 0.961 . S
C698 H686 0.959 . S
C698 C696 1.561 . S
C699 C696 1.526 . S
C699 C700 1.396 . S
C699 C704 1.390 . S
C700 C694 1.465 . S
C700 C699 1.396 . S
C700 C701 1.399 . S
C701 H687 0.929 . S
C701 C700 1.399 . S
C701 C702 1.385 . S
C702 H688 0.931 . S
C702 C701 1.385 . S
C702 C703 1.389 . S
C703 C702 1.389 . S
C703 C704 1.387 . S
C704 H689 0.930 . S
C704 C699 1.390 . S
C704 C703 1.387 . S
H705 C717 0.930 . S
H706 C719 0.930 . S
H707 C720 0.930 . S
H708 C724 0.959 . S
H709 C724 0.959 . S
H710 C724 0.961 . S
H711 C725 0.960 . S
H712 C725 0.961 . S
H713 C725 0.959 . S
H714 C728 0.929 . S
H715 C729 0.931 . S
H716 C731 0.930 . S
C717 H705 0.930 . S
C717 C718 1.399 1_565 S
C717 C722 1.399 . S
C718 C717 1.399 1_545 S
C718 C719 1.376 . S
C719 H706 0.930 . S
C719 C718 1.376 . S
C719 C720 1.388 . S
C720 H707 0.930 . S
C720 C719 1.388 . S
C720 C721 1.390 . S
C721 C720 1.390 . S
C721 C722 1.394 1_545 S
C721 C727 1.465 . S
C722 C717 1.399 . S
C722 C721 1.394 1_565 S
C722 C723 1.516 . S
C723 C722 1.516 . S
C723 C724 1.502 . S
C723 C725 1.561 . S
C723 C726 1.526 . S
C724 H708 0.959 . S
C724 H709 0.959 . S
C724 H710 0.961 . S
C724 C723 1.502 . S
C725 H711 0.960 . S
C725 H712 0.961 . S
C725 H713 0.959 . S
C725 C723 1.561 . S
C726 C723 1.526 . S
C726 C727 1.396 1_565 S
C726 C731 1.390 . S
C727 C721 1.465 . S
C727 C726 1.396 1_545 S
C727 C728 1.399 . S
C728 H714 0.929 . S
C728 C727 1.399 . S
C728 C729 1.385 . S
C729 H715 0.931 . S
C729 C728 1.385 . S
C729 C730 1.389 . S
C730 C729 1.389 . S
C730 C731 1.387 1_545 S
C731 H716 0.930 . S
C731 C726 1.390 . S
C731 C730 1.387 1_565 S
H732 C744 0.930 . S
H733 C746 0.930 . S
H734 C747 0.930 . S
H735 C751 0.959 . S
H736 C751 0.959 . S
H737 C751 0.961 . S
H738 C752 0.960 . S
H739 C752 0.961 . S
H740 C752 0.959 . S
H741 C755 0.929 . S
H742 C756 0.931 . S
H743 C758 0.930 . S
C744 H732 0.930 . S
C744 C745 1.399 . S
C744 C749 1.399 . S
C745 C744 1.399 . S
C745 C746 1.376 . S
C746 H733 0.930 . S
C746 C745 1.376 . S
C746 C747 1.388 . S
C747 H734 0.930 . S
C747 C746 1.388 . S
C747 C748 1.390 . S
C748 C747 1.390 . S
C748 C749 1.394 . S
C748 C754 1.465 . S
C749 C744 1.399 . S
C749 C748 1.394 . S
C749 C750 1.516 . S
C750 C749 1.516 . S
C750 C751 1.502 . S
C750 C752 1.561 . S
C750 C753 1.526 . S
C751 H735 0.959 . S
C751 H736 0.959 . S
C751 H737 0.961 . S
C751 C750 1.502 . S
C752 H738 0.960 . S
C752 H739 0.961 . S
C752 H740 0.959 . S
C752 C750 1.561 . S
C753 C750 1.526 . S
C753 C754 1.396 . S
C753 C758 1.390 . S
C754 C748 1.465 . S
C754 C753 1.396 . S
C754 C755 1.399 . S
C755 H741 0.929 . S
C755 C754 1.399 . S
C755 C756 1.385 . S
C756 H742 0.931 . S
C756 C755 1.385 . S
C756 C757 1.389 . S
C757 C756 1.389 . S
C757 C758 1.387 . S
C758 H743 0.930 . S
C758 C753 1.390 . S
C758 C757 1.387 . S
H759 C771 0.930 . S
H760 C773 0.930 . S
H761 C774 0.930 . S
H762 C778 0.959 . S
H763 C778 0.959 . S
H764 C778 0.961 . S
H765 C779 0.960 . S
H766 C779 0.961 . S
H767 C779 0.959 1_655 S
H768 C782 0.929 . S
H769 C783 0.931 . S
H770 C785 0.930 . S
C771 H759 0.930 . S
C771 C772 1.399 1_455 S
C771 C776 1.399 . S
C772 C771 1.399 1_655 S
C772 C773 1.376 . S
C773 H760 0.930 . S
C773 C772 1.376 . S
C773 C774 1.388 . S
C774 H761 0.930 . S
C774 C773 1.388 . S
C774 C775 1.390 . S
C775 C774 1.390 . S
C775 C776 1.394 1_655 S
C775 C781 1.465 . S
C776 C771 1.399 . S
C776 C775 1.394 1_455 S
C776 C777 1.516 . S
C777 C776 1.516 . S
C777 C778 1.502 . S
C777 C779 1.561 . S
C777 C780 1.526 . S
C778 H762 0.959 . S
C778 H763 0.959 . S
C778 H764 0.961 . S
C778 C777 1.502 . S
C779 H765 0.960 . S
C779 H766 0.961 . S
C779 H767 0.959 1_455 S
C779 C777 1.561 . S
C780 C777 1.526 . S
C780 C781 1.396 1_455 S
C780 C785 1.390 . S
C781 C775 1.465 . S
C781 C780 1.396 1_655 S
C781 C782 1.399 . S
C782 H768 0.929 . S
C782 C781 1.399 . S
C782 C783 1.385 . S
C783 H769 0.931 . S
C783 C782 1.385 . S
C783 C784 1.390 1_655 S
C784 C783 1.390 1_455 S
C784 C785 1.386 . S
C785 H770 0.930 . S
C785 C780 1.390 . S
C785 C784 1.386 . S
C313 C2 1.421 . S
C325 C275 1.474 . S
C340 C22 1.357 . S
C352 C182 1.415 . S
C367 C44 1.457 . S
C379 C222 1.486 . S
C394 C4 1.588 . S
C406 C262 1.653 . S
C433 C195 1.692 . S
C421 C24 1.710 . S
C460 C235 1.611 . S
C448 C42 1.566 . S
C475 C32 1.349 . S
C487 C102 1.366 . S
C502 C49 1.328 . S
C514 C142 1.283 . S
C529 C9 1.291 . S
C541 C75 1.348 . S
C568 C115 1.339 . S
C556 C29 1.263 . S
C595 C155 1.384 . S
C583 C52 1.286 . S
C610 C12 1.271 . S
C622 C62 1.355 . S
C649 C161 1.399 1_554 S
C637 C18 1.442 1_455 S
C664 C38 1.447 . S
C676 C81 1.453 . S
C691 C58 1.393 . S
C703 C121 1.425 . S
C730 C241 1.505 . S
C718 C39 1.466 . S
C757 C281 1.463 1_556 S
C745 C59 1.454 . S
C772 C19 1.489 1_655 S
C784 C201 1.490 . S
