# Generated by pormake.
# Topology ocu, (6,8)-cn, num edge types: 1
# Building blocks:
#     Node 0, Type 0, BuildingBlock: FUNLAD_clean_sbu_0, # of connection points: 6
#     Node 1, Type 0, BuildingBlock: FUNLAD_clean_sbu_0, # of connection points: 6
#     Node 2, Type 0, BuildingBlock: FUNLAD_clean_sbu_0, # of connection points: 6
#     Node 3, Type 0, BuildingBlock: FUNLAD_clean_sbu_0, # of connection points: 6
#     Node 4, Type 0, BuildingBlock: FUNLAD_clean_sbu_0, # of connection points: 6
#     Node 5, Type 0, BuildingBlock: FUNLAD_clean_sbu_0, # of connection points: 6
#     Node 6, Type 0, BuildingBlock: FUNLAD_clean_sbu_0, # of connection points: 6
#     Node 7, Type 0, BuildingBlock: FUNLAD_clean_sbu_0, # of connection points: 6
#     Node 8, Type 1, BuildingBlock: VETTIZ_charged_sbu_0, # of connection points: 8
#     Node 9, Type 1, BuildingBlock: VETTIZ_charged_sbu_0, # of connection points: 8
#     Node 10, Type 1, BuildingBlock: VETTIZ_charged_sbu_0, # of connection points: 8
#     Node 11, Type 1, BuildingBlock: VETTIZ_charged_sbu_0, # of connection points: 8
#     Node 12, Type 1, BuildingBlock: VETTIZ_charged_sbu_0, # of connection points: 8
#     Node 13, Type 1, BuildingBlock: VETTIZ_charged_sbu_0, # of connection points: 8
#     Edge 14, Type (0, 1), None
#     Edge 15, Type (0, 1), None
#     Edge 16, Type (0, 1), None
#     Edge 17, Type (0, 1), None
#     Edge 18, Type (0, 1), None
#     Edge 19, Type (0, 1), None
#     Edge 20, Type (0, 1), None
#     Edge 21, Type (0, 1), None
#     Edge 22, Type (0, 1), None
#     Edge 23, Type (0, 1), None
#     Edge 24, Type (0, 1), None
#     Edge 25, Type (0, 1), None
#     Edge 26, Type (0, 1), None
#     Edge 27, Type (0, 1), None
#     Edge 28, Type (0, 1), None
#     Edge 29, Type (0, 1), None
#     Edge 30, Type (0, 1), None
#     Edge 31, Type (0, 1), None
#     Edge 32, Type (0, 1), None
#     Edge 33, Type (0, 1), None
#     Edge 34, Type (0, 1), None
#     Edge 35, Type (0, 1), None
#     Edge 36, Type (0, 1), None
#     Edge 37, Type (0, 1), None
#     Edge 38, Type (0, 1), None
#     Edge 39, Type (0, 1), None
#     Edge 40, Type (0, 1), None
#     Edge 41, Type (0, 1), None
#     Edge 42, Type (0, 1), None
#     Edge 43, Type (0, 1), None
#     Edge 44, Type (0, 1), None
#     Edge 45, Type (0, 1), None
#     Edge 46, Type (0, 1), None
#     Edge 47, Type (0, 1), None
#     Edge 48, Type (0, 1), None
#     Edge 49, Type (0, 1), None
#     Edge 50, Type (0, 1), None
#     Edge 51, Type (0, 1), None
#     Edge 52, Type (0, 1), None
#     Edge 53, Type (0, 1), None
#     Edge 54, Type (0, 1), None
#     Edge 55, Type (0, 1), None
#     Edge 56, Type (0, 1), None
#     Edge 57, Type (0, 1), None
#     Edge 58, Type (0, 1), None
#     Edge 59, Type (0, 1), None
#     Edge 60, Type (0, 1), None
#     Edge 61, Type (0, 1), None
# Relax obj value: 0.272
# Max RMSD: 0.290
# Mean RMSD: 0.178
data_MOF--net-ocu--node1-FUNLAD_clean_sbu_0--node2-VETTIZ_charged_sbu_0--edge1-none
_symmetry_space_group_name_H-M    P1
_symmetry_Int_Tables_number       1
_symmetry_cell_setting            triclinic
loop_
_symmetry_equiv_pos_as_xyz
'x, y, z'
_cell_length_a     19.879461
_cell_length_b     19.823017
_cell_length_c     19.647428
_cell_angle_alpha  80.935025
_cell_angle_beta   79.824289
_cell_angle_gamma 76.484784
loop_
_atom_site_label
_atom_site_type_symbol
_atom_site_fract_x
_atom_site_fract_y
_atom_site_fract_z
_atom_type_partial_charge
C0 C 0.18053 0.30024 0.38948 0.0
N1 N 0.20501 0.14105 0.26393 0.0
C2 C 0.13616 0.16315 0.25705 0.0
C3 C 0.09437 0.11409 0.27057 0.0
C4 C 0.12499 0.04865 0.30257 0.0
C5 C 0.19553 0.02287 0.27973 0.0
C6 C 0.23693 0.07211 0.26607 0.0
Zn7 Zn 0.25682 0.20767 0.28173 0.0
C8 C 0.21739 0.34409 0.18111 0.0
N9 N 0.36456 0.35252 0.3123 0.0
C10 C 0.32472 0.41859 0.30933 0.0
C11 C 0.42508 0.33726 0.26963 0.0
C12 C 0.42701 0.37227 0.20381 0.0
C13 C 0.37448 0.43241 0.19027 0.0
C14 C 0.32701 0.46023 0.24556 0.0
Zn15 Zn 0.31286 0.28626 0.28408 0.0
O16 O 0.16911 0.25317 0.35869 0.0
C17 C 0.36111 0.15309 0.37422 0.0
O18 O 0.23898 0.31778 0.37119 0.0
H19 H 0.46069 0.2874 0.27858 0.0
H20 H 0.1124 0.21826 0.25068 0.0
H21 H 0.28328 0.43362 0.3513 0.0
O22 O 0.30809 0.13367 0.36195 0.0
O23 O 0.37193 0.21205 0.34716 0.0
H24 H 0.29255 0.05512 0.26715 0.0
O25 O 0.38873 0.24672 0.18943 0.0
O26 O 0.3338 0.16124 0.20926 0.0
O27 O 0.25423 0.36833 0.21352 0.0
O28 O 0.21223 0.28065 0.19956 0.0
C29 C 0.38212 0.1881 0.17448 0.0
H30 H 0.03809 0.13266 0.27773 0.0
H31 H 0.21956 0.96898 0.29448 0.0
H32 H 0.46682 0.35005 0.16344 0.0
H33 H 0.28966 0.50932 0.23841 0.0
C34 C 0.64023 0.34729 0.23399 0.0
N35 N 0.76461 0.16617 0.18911 0.0
C36 C 0.73962 0.1068 0.21288 0.0
C37 C 0.69309 0.08701 0.17726 0.0
C38 C 0.67271 0.12802 0.11604 0.0
C39 C 0.70704 0.18295 0.08801 0.0
C40 C 0.75361 0.20047 0.12483 0.0
Zn41 Zn 0.76892 0.23243 0.26171 0.0
C42 C 0.83679 0.35199 0.19909 0.0
N43 N 0.73775 0.39043 0.39734 0.0
C44 C 0.7579 0.44805 0.35893 0.0
C45 C 0.76692 0.3625 0.45613 0.0
C46 C 0.82743 0.38166 0.46819 0.0
C47 C 0.85811 0.4309 0.42015 0.0
C48 C 0.82036 0.46645 0.3666 0.0
Zn49 Zn 0.72845 0.31692 0.33276 0.0
O50 O 0.68728 0.29435 0.22093 0.0
C51 C 0.65179 0.20135 0.37969 0.0
O52 O 0.64247 0.38019 0.28406 0.0
H53 H 0.75065 0.31766 0.48784 0.0
H54 H 0.74888 0.07913 0.26351 0.0
H55 H 0.7346 0.47071 0.31293 0.0
O56 O 0.69736 0.18348 0.32854 0.0
O57 O 0.65088 0.25868 0.40338 0.0
H58 H 0.77273 0.24783 0.10626 0.0
O59 O 0.81205 0.24871 0.38267 0.0
O60 O 0.84991 0.16589 0.31441 0.0
O61 O 0.79966 0.37118 0.25473 0.0
O62 O 0.84111 0.2891 0.18822 0.0
C63 C 0.85209 0.19084 0.37008 0.0
H64 H 0.67006 0.04264 0.19984 0.0
H65 H 0.69534 0.2147 0.03967 0.0
H66 H 0.8529 0.35417 0.51206 0.0
H67 H 0.84011 0.50615 0.32932 0.0
C68 C 0.86957 0.64899 0.35976 0.0
N69 N 0.87549 0.83952 0.29233 0.0
C70 C 0.85993 0.81566 0.36164 0.0
C71 C 0.88525 0.8355 0.41297 0.0
C72 C 0.92467 0.88501 0.39617 0.0
C73 C 0.94291 0.91121 0.32572 0.0
C74 C 0.91787 0.88643 0.27328 0.0
Zn75 Zn 0.82129 0.78486 0.24626 0.0
C76 C 0.88434 0.6873 0.16027 0.0
N77 N 0.70314 0.64766 0.257 0.0
C78 C 0.66199 0.60365 0.29183 0.0
C79 C 0.71459 0.65682 0.18549 0.0
C80 C 0.6922 0.6175 0.14681 0.0
C81 C 0.65354 0.57018 0.18071 0.0
C82 C 0.6351 0.56428 0.25367 0.0
Zn83 Zn 0.75731 0.70926 0.28974 0.0
O84 O 0.88138 0.69776 0.31243 0.0
C85 C 0.68779 0.81233 0.3695 0.0
O86 O 0.80978 0.6332 0.36855 0.0
H87 H 0.74303 0.69408 0.15556 0.0
H88 H 0.8263 0.77978 0.38086 0.0
H89 H 0.65126 0.5982 0.34812 0.0
O90 O 0.73657 0.82917 0.32428 0.0
O91 O 0.67572 0.75166 0.37206 0.0
H92 H 0.93062 0.90563 0.21894 0.0
O93 O 0.70375 0.78858 0.21492 0.0
O94 O 0.76834 0.86556 0.17391 0.0
O95 O 0.84066 0.66369 0.20779 0.0
O96 O 0.89611 0.74748 0.16234 0.0
C97 C 0.71369 0.84234 0.17331 0.0
H98 H 0.87006 0.81483 0.4667 0.0
H99 H 0.97347 0.95129 0.31209 0.0
H100 H 0.70425 0.62501 0.09038 0.0
H101 H 0.60231 0.52879 0.2804 0.0
C102 C 0.15225 0.85068 0.37048 0.0
N103 N 0.35111 0.77575 0.38254 0.0
C104 C 0.32624 0.84653 0.38309 0.0
C105 C 0.3642 0.88968 0.39871 0.0
C106 C 0.43201 0.86269 0.40911 0.0
C107 C 0.45964 0.79024 0.40956 0.0
C108 C 0.41752 0.74692 0.39585 0.0
Zn109 Zn 0.29101 0.74146 0.32306 0.0
C110 C 0.18168 0.66792 0.37434 0.0
N111 N 0.15687 0.76188 0.1908 0.0
C112 C 0.10736 0.79739 0.1512 0.0
C113 C 0.17455 0.69008 0.19687 0.0
C114 C 0.14376 0.65155 0.16467 0.0
C115 C 0.09542 0.68587 0.12197 0.0
C116 C 0.07613 0.75989 0.1151 0.0
Zn117 Zn 0.21325 0.79284 0.25454 0.0
O118 O 0.2082 0.80677 0.37592 0.0
C119 C 0.3174 0.87155 0.19854 0.0
O120 O 0.13093 0.8667 0.31098 0.0
H121 H 0.21239 0.65968 0.22869 0.0
H122 H 0.28199 0.87494 0.35954 0.0
H123 H 0.09272 0.85382 0.14715 0.0
O124 O 0.33514 0.82428 0.24804 0.0
O125 O 0.2571 0.87649 0.18143 0.0
H126 H 0.4396 0.6924 0.39043 0.0
O127 O 0.29972 0.71938 0.20258 0.0
O128 O 0.37323 0.6667 0.27489 0.0
O129 O 0.16559 0.71569 0.32606 0.0
O130 O 0.24288 0.65846 0.39217 0.0
C131 C 0.35442 0.67428 0.2152 0.0
H132 H 0.34229 0.94545 0.3965 0.0
H133 H 0.51308 0.76817 0.41825 0.0
H134 H 0.16078 0.59509 0.17074 0.0
H135 H 0.0384 0.78813 0.08154 0.0
C136 C 0.18255 0.82555 0.68896 0.0
N137 N 0.29686 0.6259 0.66179 0.0
C138 C 0.2677 0.6539 0.60301 0.0
C139 C 0.20719 0.63475 0.59091 0.0
C140 C 0.17652 0.58547 0.63891 0.0
C141 C 0.21426 0.54988 0.69243 0.0
C142 C 0.27672 0.56824 0.70013 0.0
Zn143 Zn 0.3062 0.69948 0.72627 0.0
C144 C 0.38284 0.81505 0.67931 0.0
N145 N 0.27004 0.8503 0.86986 0.0
C146 C 0.28107 0.81594 0.93411 0.0
C147 C 0.29502 0.90968 0.84614 0.0
C148 C 0.34155 0.92944 0.88177 0.0
C149 C 0.36194 0.88839 0.94297 0.0
C150 C 0.32764 0.83344 0.97096 0.0
Zn151 Zn 0.26573 0.78398 0.79731 0.0
O152 O 0.22258 0.76768 0.67636 0.0
C153 C 0.19786 0.66441 0.85994 0.0
O154 O 0.18473 0.8505 0.74462 0.0
H155 H 0.28576 0.93736 0.79551 0.0
H156 H 0.28399 0.69875 0.57134 0.0
H157 H 0.26196 0.76856 0.95265 0.0
O158 O 0.23499 0.64523 0.8043 0.0
O159 O 0.19354 0.7273 0.87082 0.0
H160 H 0.29999 0.54557 0.74615 0.0
O161 O 0.34739 0.72207 0.8381 0.0
O162 O 0.39219 0.63623 0.77496 0.0
O163 O 0.33728 0.83292 0.73047 0.0
O164 O 0.38375 0.75772 0.65562 0.0
C165 C 0.39443 0.66913 0.82503 0.0
H166 H 0.18173 0.66229 0.54705 0.0
H167 H 0.19449 0.51016 0.72968 0.0
H168 H 0.36456 0.97382 0.85922 0.0
H169 H 0.33936 0.80165 1.01927 0.0
C170 C 0.32096 0.17407 0.8857 0.0
N171 N 0.33153 0.36873 0.80201 0.0
C172 C 0.32007 0.3596 0.87352 0.0
C173 C 0.34246 0.39892 0.9122 0.0
C174 C 0.38114 0.44622 0.8783 0.0
C175 C 0.3996 0.45209 0.80534 0.0
C176 C 0.37271 0.41272 0.76718 0.0
Zn177 Zn 0.27734 0.30714 0.76927 0.0
C178 C 0.34685 0.20407 0.68951 0.0
N179 N 0.15915 0.17688 0.76669 0.0
C180 C 0.11679 0.12995 0.78576 0.0
C181 C 0.1747 0.20073 0.69739 0.0
C182 C 0.14937 0.1809 0.64606 0.0
C183 C 0.10996 0.13137 0.66287 0.0
C184 C 0.09174 0.10517 0.73331 0.0
Zn185 Zn 0.21336 0.23154 0.81275 0.0
O186 O 0.3309 0.22782 0.8441 0.0
C187 C 0.15032 0.3291 0.89874 0.0
O188 O 0.26631 0.15083 0.8851 0.0
H189 H 0.20833 0.23662 0.67816 0.0
H190 H 0.29161 0.32235 0.90345 0.0
H191 H 0.10405 0.11075 0.84009 0.0
O192 O 0.19399 0.35271 0.85122 0.0
O193 O 0.13855 0.26892 0.89667 0.0
H194 H 0.38345 0.41815 0.71089 0.0
O195 O 0.15327 0.31864 0.74659 0.0
O196 O 0.22487 0.38319 0.69046 0.0
O197 O 0.29807 0.18723 0.73472 0.0
O198 O 0.35893 0.26474 0.68695 0.0
C199 C 0.16508 0.3674 0.69925 0.0
H200 H 0.3304 0.39143 0.96863 0.0
H201 H 0.43241 0.48757 0.77861 0.0
H202 H 0.16455 0.20157 0.59233 0.0
H203 H 0.0612 0.06508 0.74695 0.0
C204 C 0.68024 0.34212 0.84382 0.0
N205 N 0.87778 0.25451 0.86823 0.0
C206 C 0.8601 0.32631 0.86215 0.0
C207 C 0.8909 0.36485 0.89434 0.0
C208 C 0.93924 0.33054 0.93703 0.0
C209 C 0.95855 0.25652 0.94389 0.0
C210 C 0.92732 0.21901 0.9078 0.0
Zn211 Zn 0.8214 0.22355 0.80448 0.0
C212 C 0.71725 0.14485 0.8605 0.0
N213 N 0.68354 0.24054 0.67658 0.0
C214 C 0.6172 0.26945 0.66309 0.0
C215 C 0.70841 0.16977 0.67601 0.0
C216 C 0.67044 0.12665 0.66035 0.0
C217 C 0.60266 0.15369 0.64987 0.0
C218 C 0.57508 0.22616 0.64933 0.0
Zn219 Zn 0.74364 0.27493 0.73597 0.0
O220 O 0.73493 0.29702 0.85644 0.0
C221 C 0.85296 0.34846 0.68467 0.0
O222 O 0.66143 0.3497 0.78412 0.0
H223 H 0.75265 0.14136 0.69956 0.0
H224 H 0.82225 0.35671 0.83033 0.0
H225 H 0.59517 0.32399 0.66843 0.0
O226 O 0.86905 0.3007 0.73296 0.0
O227 O 0.79176 0.35791 0.66683 0.0
H228 H 0.94197 0.16258 0.91183 0.0
O229 O 0.82642 0.2096 0.68313 0.0
O230 O 0.90372 0.14969 0.74805 0.0
O231 O 0.69951 0.19213 0.81102 0.0
O232 O 0.77755 0.1399 0.8776 0.0
C233 C 0.88237 0.1657 0.68856 0.0
H234 H 0.87387 0.42131 0.88827 0.0
H235 H 0.99629 0.22828 0.97744 0.0
H236 H 0.69231 0.07087 0.6626 0.0
H237 H 0.52167 0.24827 0.64054 0.0
C238 C 0.65251 0.82832 0.88454 0.0
N239 N 0.67015 0.66379 0.74665 0.0
C240 C 0.6097 0.67916 0.78939 0.0
C241 C 0.60774 0.64415 0.8552 0.0
C242 C 0.66022 0.58396 0.86873 0.0
C243 C 0.70762 0.55608 0.81343 0.0
C244 C 0.70986 0.59766 0.74962 0.0
Zn245 Zn 0.72175 0.73014 0.77495 0.0
C246 C 0.67352 0.8633 0.68477 0.0
N247 N 0.82963 0.87533 0.79507 0.0
C248 C 0.79772 0.94428 0.79295 0.0
C249 C 0.89848 0.85322 0.80196 0.0
C250 C 0.94028 0.90227 0.78845 0.0
C251 C 0.90966 0.96773 0.75647 0.0
C252 C 0.83912 0.9935 0.77932 0.0
Zn253 Zn 0.77781 0.80872 0.77727 0.0
O254 O 0.64587 0.7697 0.86957 0.0
C255 C 0.81724 0.6723 0.8779 0.0
O256 O 0.70084 0.85515 0.84977 0.0
H257 H 0.92224 0.79811 0.80831 0.0
H258 H 0.57413 0.72905 0.78044 0.0
H259 H 0.7421 0.96126 0.79186 0.0
O260 O 0.78037 0.64807 0.84552 0.0
O261 O 0.82242 0.73573 0.85942 0.0
H262 H 0.75123 0.58256 0.70762 0.0
O263 O 0.86551 0.76324 0.70029 0.0
O264 O 0.79565 0.69858 0.68787 0.0
O265 O 0.72653 0.88273 0.69707 0.0
O266 O 0.66271 0.80434 0.71183 0.0
C267 C 0.85409 0.71614 0.66954 0.0
H268 H 0.56795 0.66639 0.89558 0.0
H269 H 0.74491 0.50695 0.82057 0.0
H270 H 0.99655 0.88371 0.78128 0.0
H271 H 0.81501 0.04737 0.76459 0.0
Fe272 Fe 1.01377 0.09021 0.49628 0.0
O273 O 0.95715 0.01918 0.52421 0.0
Fe274 Fe 0.17453 0.98798 0.50906 0.0
Fe275 Fe 0.86011 0.02841 0.54997 0.0
O276 O 0.07749 1.0035 0.53412 0.0
O277 O 0.07748 0.99722 0.53482 0.0
O278 O 0.95714 0.01289 0.52491 0.0
Fe279 Fe 0.02086 0.92618 0.56276 0.0
C280 C 0.90637 0.1263 0.62851 0.0
O281 O 0.93121 0.16324 0.45559 0.0
O282 O 0.85205 0.09549 0.45748 0.0
O283 O 0.06454 0.89567 0.46214 0.0
O284 O 0.17685 0.90569 0.45645 0.0
O285 O 0.15534 0.04911 0.41457 0.0
O286 O 0.0435 0.05672 0.40268 0.0
O287 O 0.87726 0.94363 0.49353 0.0
O288 O 0.99764 0.90135 0.47149 0.0
C289 C 0.10812 0.04431 0.37838 0.0
O290 O 0.10342 0.85315 0.60345 0.0
O291 O 0.18258 0.92089 0.60155 0.0
O292 O 0.97009 0.12071 0.5969 0.0
O293 O 0.85778 0.11071 0.60258 0.0
C294 C 0.883 0.14582 0.42915 0.0
C295 C 0.93426 0.91455 0.45522 0.0
C296 C 0.92652 0.97209 0.68065 0.0
O297 O 0.87929 0.96729 0.64447 0.0
O298 O 0.99114 0.95968 0.65635 0.0
C299 C 0.12826 0.89008 0.43052 0.0
O300 O 0.15737 0.07275 0.56551 0.0
O301 O 0.037 0.11504 0.58754 0.0
C302 C 0.15163 0.87057 0.62988 0.0
C303 C 0.10037 0.10184 0.60382 0.0
Fe304 Fe 0.51972 0.85178 0.08762 0.0
O305 O 0.5228 0.95225 0.07585 0.0
Fe306 Fe 0.43312 0.02168 0.04054 0.0
Fe307 Fe 0.60152 0.99472 1.01848 0.0
O308 O 0.51346 0.95358 0.0781 0.0
O309 O 0.51184 0.06416 0.98318 0.0
O310 O 0.52118 0.06283 0.98093 0.0
Fe311 Fe 0.51492 0.16462 0.97141 0.0
C312 C 0.66029 0.87286 0.12617 0.0
O313 O 0.59255 0.82854 1.0006 0.0
O314 O 0.60998 0.93057 0.94112 0.0
O315 O 0.43091 0.1692 0.91821 0.0
O316 O 0.36127 0.09778 0.98631 0.0
O317 O 0.4356 0.96114 0.96363 0.0
O318 O 0.44016 0.85858 1.02822 0.0
O319 O 0.67333 0.05402 0.94982 0.0
O320 O 0.59744 0.14082 0.89207 0.0
C321 C 0.41717 0.90269 0.97846 0.0
O322 O 0.44208 0.18787 0.05842 0.0
O323 O 0.42466 0.08584 0.11791 0.0
O324 O 0.60374 0.84721 0.14081 0.0
O325 O 0.67337 0.91863 0.07271 0.0
C326 C 0.61183 0.86489 0.94431 0.0
C327 C 0.66057 0.10848 0.90207 0.0
C328 C 0.61747 0.11372 0.08057 0.0
O329 O 0.59905 0.05527 0.0954 0.0
O330 O 0.59448 0.15783 0.03081 0.0
C331 C 0.37436 0.14355 0.93285 0.0
O332 O 0.36132 0.96238 0.10921 0.0
O333 O 0.43721 0.87559 0.16696 0.0
C334 C 0.42281 0.15152 0.11471 0.0
C335 C 0.37408 0.90792 0.15697 0.0
Fe336 Fe 0.99716 0.66257 0.95679 0.0
O337 O 1.00914 0.55962 0.97755 0.0
Fe338 Fe 0.0991 0.50567 1.02288 0.0
Fe339 Fe 0.93554 0.51074 0.03613 0.0
O340 O 0.01746 0.5601 0.97685 0.0
O341 O 0.0255 0.45679 0.08146 0.0
O342 O 1.01718 0.4563 0.08216 0.0
Fe343 Fe 0.03748 0.35384 0.10222 0.0
C344 C 0.91215 0.64771 0.09969 0.0
O345 O 0.92906 0.64864 0.89876 0.0
O346 O 0.86023 0.58093 0.97318 0.0
O347 O 0.11723 0.33481 1.02012 0.0
O348 O 0.11736 0.43493 0.95038 0.0
O349 O 0.16279 0.57169 0.95102 0.0
O350 O 0.08417 0.64465 0.88403 0.0
O351 O 0.95419 0.43788 0.96629 0.0
O352 O 0.97282 0.34019 0.04044 0.0
C353 C 0.14661 0.622 0.89961 0.0
O354 O 0.10557 0.36776 0.16025 0.0
O355 O 0.17441 0.43547 0.08583 0.0
O356 O 0.91741 0.68159 0.03889 0.0
O357 O 0.91728 0.58148 0.10863 0.0
C358 C 0.87154 0.62761 0.91848 0.0
C359 C 0.96047 0.37155 0.98168 0.0
C360 C 0.88803 0.39441 0.15941 0.0
O361 O 0.87186 0.44471 0.108 0.0
O362 O 0.95048 0.37176 0.17498 0.0
C363 C 0.1225 0.36869 0.95933 0.0
O364 O 0.08046 0.57853 0.09272 0.0
O365 O 0.06182 0.67622 1.01857 0.0
C366 C 0.16309 0.38879 0.14053 0.0
C367 C 0.07418 0.64486 0.07733 0.0
Fe368 Fe 0.53232 0.51274 0.95218 0.0
O369 O 0.56666 0.4458 0.03072 0.0
Fe370 Fe 0.36643 0.59767 1.02245 0.0
Fe371 Fe 0.66824 0.41873 0.03657 0.0
O372 O 0.4665 0.56732 1.02262 0.0
O373 O 0.46802 0.57061 1.02829 0.0
O374 O 0.56818 0.4491 0.03638 0.0
Fe375 Fe 0.50236 0.50367 0.10683 0.0
C376 C 0.64496 0.38549 0.89939 0.0
O377 O 0.59993 0.56523 0.97405 0.0
O378 O 0.69741 0.49123 0.95418 0.0
O379 O 0.42882 0.56926 0.17426 0.0
O380 O 0.36989 0.65462 0.0994 0.0
O381 O 0.40333 0.66169 0.94024 0.0
O382 O 0.48688 0.58703 0.87486 0.0
O383 O 0.67041 0.48175 0.11034 0.0
O384 O 0.56933 0.55985 0.1191 0.0
C385 C 0.43498 0.64046 0.88152 0.0
O386 O 0.43476 0.45117 0.08496 0.0
O387 O 0.33727 0.52516 0.10483 0.0
O388 O 0.60585 0.44715 0.88475 0.0
O389 O 0.66478 0.36178 0.95962 0.0
C390 C 0.65877 0.55076 0.93965 0.0
C391 C 0.62834 0.53286 0.13725 0.0
C392 C 0.5997 0.37596 0.1775 0.0
O393 O 0.63134 0.35472 0.11878 0.0
O394 O 0.5478 0.4294 0.18415 0.0
C395 C 0.38971 0.63091 0.15962 0.0
O396 O 0.36427 0.53465 0.94866 0.0
O397 O 0.46535 0.45656 0.9399 0.0
C398 C 0.37592 0.46563 0.11935 0.0
C399 C 0.40634 0.48355 0.92175 0.0
Fe400 Fe 0.02328 0.42668 0.54019 0.0
O401 O 0.9757 0.50969 0.58975 0.0
Fe402 Fe 0.05857 0.51102 0.36929 0.0
Fe403 Fe 0.97606 0.50536 0.68973 0.0
O404 O 0.06269 0.49832 0.47089 0.0
O405 O 0.05894 0.5067 0.46927 0.0
O406 O 0.97195 0.51807 0.58813 0.0
Fe407 Fe 1.01136 0.58971 0.51882 0.0
C408 C 0.90528 0.39359 0.6581 0.0
O409 O 0.11095 0.40973 0.5942 0.0
O410 O 0.04549 0.41185 0.69591 0.0
O411 O 0.07154 0.64859 0.441 0.0
O412 O 0.13526 0.56891 0.36781 0.0
O413 O 0.12341 0.41473 0.37632 0.0
O414 O 0.08192 0.3482 0.47551 0.0
O415 O 0.0626 0.55441 0.68117 0.0
O416 O 0.09721 0.57617 0.56702 0.0
C417 C 0.12289 0.35628 0.41588 0.0
O418 O 0.92369 0.60666 0.46481 0.0
O419 O 0.98915 0.60454 0.36311 0.0
O420 O 0.9631 0.3678 0.61801 0.0
O421 O 0.89938 0.44747 0.6912 0.0
C422 C 0.10584 0.40378 0.66063 0.0
C423 C 0.1081 0.57034 0.62937 0.0
C424 C 0.91173 0.66011 0.64313 0.0
O425 O 0.91122 0.60165 0.68269 0.0
O426 O 0.95271 0.66819 0.58351 0.0
C427 C 0.12936 0.6228 0.40091 0.0
O428 O 0.97202 0.46198 0.37785 0.0
O429 O 0.93743 0.44023 0.49201 0.0
C430 C 0.92881 0.61262 0.39838 0.0
C431 C 0.92653 0.44606 0.42966 0.0
Fe432 Fe 0.53346 0.92537 0.53431 0.0
O433 O 0.47419 1.00223 0.5879 0.0
Fe434 Fe 0.56714 0.01541 0.37065 0.0
Fe435 Fe 0.4675 1.00099 0.68834 0.0
O436 O 0.56505 1.0055 0.47245 0.0
O437 O 0.56044 0.01417 0.47109 0.0
O438 O 0.46959 0.0109 0.58654 0.0
Fe439 Fe 0.50117 0.09103 0.52468 0.0
C440 C 0.43162 0.86446 0.65373 0.0
O441 O 0.61634 0.91347 0.58857 0.0
O442 O 0.55852 0.92604 0.69506 0.0
O443 O 0.54976 0.16514 0.45434 0.0
O444 O 0.61765 0.0967 0.3723 0.0
O445 O 0.64992 0.93155 0.38098 0.0
O446 O 0.60016 0.85545 0.46525 0.0
O447 O 0.52244 0.0793 0.68595 0.0
O448 O 0.57977 0.08142 0.57892 0.0
C449 C 0.64413 0.86883 0.40945 0.0
O450 O 0.41829 0.10292 0.47042 0.0
O451 O 0.47612 0.09036 0.36393 0.0
O452 O 0.48486 0.85126 0.60465 0.0
O453 O 0.41699 0.9197 0.68669 0.0
C454 C 0.61543 0.91049 0.65372 0.0
C455 C 0.5643 0.1043 0.63709 0.0
C456 C 0.3905 0.14757 0.64955 0.0
O457 O 0.38471 0.08485 0.67801 0.0
O458 O 0.43447 0.16095 0.59374 0.0
C459 C 0.60301 0.15194 0.40526 0.0
O460 O 0.5122 0.93709 0.37302 0.0
O461 O 0.45486 0.93499 0.48005 0.0
C462 C 0.4192 0.1059 0.40527 0.0
C463 C 0.47034 0.91211 0.42189 0.0
loop_
_geom_bond_atom_site_label_1
_geom_bond_atom_site_label_2
_geom_bond_distance
_geom_bond_site_symmetry_2
_ccdc_geom_bond_type
C0 O16 1.251 . S
C0 O18 1.254 . S
N1 C2 1.333 . S
N1 C6 1.307 . S
N1 Zn7 2.020 . S
C2 N1 1.333 . S
C2 C3 1.379 . S
C2 H20 0.952 . S
C3 C2 1.379 . S
C3 C4 1.390 . S
C3 H30 0.949 . S
C4 C3 1.390 . S
C4 C5 1.357 . S
C5 C4 1.357 . S
C5 C6 1.370 . S
C5 H31 0.950 . S
C6 N1 1.307 . S
C6 C5 1.370 . S
C6 H24 0.948 . S
Zn7 N1 2.020 . S
Zn7 O16 2.039 . S
Zn7 O22 2.034 . S
Zn7 O26 2.025 . S
Zn7 O28 2.024 . S
C8 O27 1.246 . S
C8 O28 1.249 . S
N9 C10 1.307 . S
N9 C11 1.333 . S
N9 Zn15 2.020 . S
C10 N9 1.307 . S
C10 C14 1.370 . S
C10 H21 0.948 . S
C11 N9 1.333 . S
C11 C12 1.379 . S
C11 H19 0.952 . S
C12 C11 1.379 . S
C12 C13 1.390 . S
C12 H32 0.949 . S
C13 C12 1.390 . S
C13 C14 1.357 . S
C14 C10 1.370 . S
C14 C13 1.357 . S
C14 H33 0.950 . S
Zn15 N9 2.020 . S
Zn15 O18 2.025 . S
Zn15 O23 2.024 . S
Zn15 O25 2.039 . S
Zn15 O27 2.034 . S
O16 C0 1.251 . S
O16 Zn7 2.039 . S
C17 O22 1.246 . S
C17 O23 1.249 . S
O18 C0 1.254 . S
O18 Zn15 2.025 . S
H19 C11 0.952 . S
H20 C2 0.952 . S
H21 C10 0.948 . S
O22 Zn7 2.034 . S
O22 C17 1.246 . S
O23 Zn15 2.024 . S
O23 C17 1.249 . S
H24 C6 0.948 . S
O25 Zn15 2.039 . S
O25 C29 1.251 . S
O26 Zn7 2.025 . S
O26 C29 1.254 . S
O27 C8 1.246 . S
O27 Zn15 2.034 . S
O28 Zn7 2.024 . S
O28 C8 1.249 . S
C29 O25 1.251 . S
C29 O26 1.254 . S
H30 C3 0.949 . S
H31 C5 0.950 . S
H32 C12 0.949 . S
H33 C14 0.950 . S
C34 O50 1.251 . S
C34 O52 1.254 . S
N35 C36 1.333 . S
N35 C40 1.307 . S
N35 Zn41 2.020 . S
C36 N35 1.333 . S
C36 C37 1.379 . S
C36 H54 0.952 . S
C37 C36 1.379 . S
C37 C38 1.390 . S
C37 H64 0.949 . S
C38 C37 1.390 . S
C38 C39 1.357 . S
C39 C38 1.357 . S
C39 C40 1.370 . S
C39 H65 0.950 . S
C40 N35 1.307 . S
C40 C39 1.370 . S
C40 H58 0.948 . S
Zn41 N35 2.020 . S
Zn41 O50 2.039 . S
Zn41 O56 2.034 . S
Zn41 O60 2.025 . S
Zn41 O62 2.024 . S
C42 O61 1.246 . S
C42 O62 1.249 . S
N43 C44 1.307 . S
N43 C45 1.333 . S
N43 Zn49 2.020 . S
C44 N43 1.307 . S
C44 C48 1.370 . S
C44 H55 0.948 . S
C45 N43 1.333 . S
C45 C46 1.379 . S
C45 H53 0.952 . S
C46 C45 1.379 . S
C46 C47 1.390 . S
C46 H66 0.949 . S
C47 C46 1.390 . S
C47 C48 1.357 . S
C48 C44 1.370 . S
C48 C47 1.357 . S
C48 H67 0.950 . S
Zn49 N43 2.020 . S
Zn49 O52 2.025 . S
Zn49 O57 2.024 . S
Zn49 O59 2.039 . S
Zn49 O61 2.034 . S
O50 C34 1.251 . S
O50 Zn41 2.039 . S
C51 O56 1.246 . S
C51 O57 1.249 . S
O52 C34 1.254 . S
O52 Zn49 2.025 . S
H53 C45 0.952 . S
H54 C36 0.952 . S
H55 C44 0.948 . S
O56 Zn41 2.034 . S
O56 C51 1.246 . S
O57 Zn49 2.024 . S
O57 C51 1.249 . S
H58 C40 0.948 . S
O59 Zn49 2.039 . S
O59 C63 1.251 . S
O60 Zn41 2.025 . S
O60 C63 1.254 . S
O61 C42 1.246 . S
O61 Zn49 2.034 . S
O62 Zn41 2.024 . S
O62 C42 1.249 . S
C63 O59 1.251 . S
C63 O60 1.254 . S
H64 C37 0.949 . S
H65 C39 0.950 . S
H66 C46 0.949 . S
H67 C48 0.950 . S
C68 O84 1.251 . S
C68 O86 1.254 . S
N69 C70 1.333 . S
N69 C74 1.307 . S
N69 Zn75 2.020 . S
C70 N69 1.333 . S
C70 C71 1.379 . S
C70 H88 0.952 . S
C71 C70 1.379 . S
C71 C72 1.390 . S
C71 H98 0.949 . S
C72 C71 1.390 . S
C72 C73 1.357 . S
C73 C72 1.357 . S
C73 C74 1.370 . S
C73 H99 0.950 . S
C74 N69 1.307 . S
C74 C73 1.370 . S
C74 H92 0.948 . S
Zn75 N69 2.020 . S
Zn75 O84 2.039 . S
Zn75 O90 2.034 . S
Zn75 O94 2.025 . S
Zn75 O96 2.024 . S
C76 O95 1.246 . S
C76 O96 1.249 . S
N77 C78 1.307 . S
N77 C79 1.333 . S
N77 Zn83 2.020 . S
C78 N77 1.307 . S
C78 C82 1.370 . S
C78 H89 0.948 . S
C79 N77 1.333 . S
C79 C80 1.379 . S
C79 H87 0.952 . S
C80 C79 1.379 . S
C80 C81 1.390 . S
C80 H100 0.949 . S
C81 C80 1.390 . S
C81 C82 1.357 . S
C82 C78 1.370 . S
C82 C81 1.357 . S
C82 H101 0.950 . S
Zn83 N77 2.020 . S
Zn83 O86 2.025 . S
Zn83 O91 2.024 . S
Zn83 O93 2.039 . S
Zn83 O95 2.034 . S
O84 C68 1.251 . S
O84 Zn75 2.039 . S
C85 O90 1.246 . S
C85 O91 1.249 . S
O86 C68 1.254 . S
O86 Zn83 2.025 . S
H87 C79 0.952 . S
H88 C70 0.952 . S
H89 C78 0.948 . S
O90 Zn75 2.034 . S
O90 C85 1.246 . S
O91 Zn83 2.024 . S
O91 C85 1.249 . S
H92 C74 0.948 . S
O93 Zn83 2.039 . S
O93 C97 1.251 . S
O94 Zn75 2.025 . S
O94 C97 1.254 . S
O95 C76 1.246 . S
O95 Zn83 2.034 . S
O96 Zn75 2.024 . S
O96 C76 1.249 . S
C97 O93 1.251 . S
C97 O94 1.254 . S
H98 C71 0.949 . S
H99 C73 0.950 . S
H100 C80 0.949 . S
H101 C82 0.950 . S
C102 O118 1.251 . S
C102 O120 1.254 . S
N103 C104 1.333 . S
N103 C108 1.307 . S
N103 Zn109 2.020 . S
C104 N103 1.333 . S
C104 C105 1.379 . S
C104 H122 0.952 . S
C105 C104 1.379 . S
C105 C106 1.390 . S
C105 H132 0.949 . S
C106 C105 1.390 . S
C106 C107 1.357 . S
C107 C106 1.357 . S
C107 C108 1.370 . S
C107 H133 0.950 . S
C108 N103 1.307 . S
C108 C107 1.370 . S
C108 H126 0.948 . S
Zn109 N103 2.020 . S
Zn109 O118 2.039 . S
Zn109 O124 2.034 . S
Zn109 O128 2.025 . S
Zn109 O130 2.024 . S
C110 O129 1.246 . S
C110 O130 1.249 . S
N111 C112 1.307 . S
N111 C113 1.333 . S
N111 Zn117 2.020 . S
C112 N111 1.307 . S
C112 C116 1.370 . S
C112 H123 0.948 . S
C113 N111 1.333 . S
C113 C114 1.379 . S
C113 H121 0.952 . S
C114 C113 1.379 . S
C114 C115 1.390 . S
C114 H134 0.949 . S
C115 C114 1.390 . S
C115 C116 1.357 . S
C116 C112 1.370 . S
C116 C115 1.357 . S
C116 H135 0.950 . S
Zn117 N111 2.020 . S
Zn117 O120 2.025 . S
Zn117 O125 2.024 . S
Zn117 O127 2.039 . S
Zn117 O129 2.034 . S
O118 C102 1.251 . S
O118 Zn109 2.039 . S
C119 O124 1.246 . S
C119 O125 1.249 . S
O120 C102 1.254 . S
O120 Zn117 2.025 . S
H121 C113 0.952 . S
H122 C104 0.952 . S
H123 C112 0.948 . S
O124 Zn109 2.034 . S
O124 C119 1.246 . S
O125 Zn117 2.024 . S
O125 C119 1.249 . S
H126 C108 0.948 . S
O127 Zn117 2.039 . S
O127 C131 1.251 . S
O128 Zn109 2.025 . S
O128 C131 1.254 . S
O129 C110 1.246 . S
O129 Zn117 2.034 . S
O130 Zn109 2.024 . S
O130 C110 1.249 . S
C131 O127 1.251 . S
C131 O128 1.254 . S
H132 C105 0.949 . S
H133 C107 0.950 . S
H134 C114 0.949 . S
H135 C116 0.950 . S
C136 O152 1.251 . S
C136 O154 1.254 . S
N137 C138 1.333 . S
N137 C142 1.307 . S
N137 Zn143 2.020 . S
C138 N137 1.333 . S
C138 C139 1.379 . S
C138 H156 0.952 . S
C139 C138 1.379 . S
C139 C140 1.390 . S
C139 H166 0.949 . S
C140 C139 1.390 . S
C140 C141 1.357 . S
C141 C140 1.357 . S
C141 C142 1.370 . S
C141 H167 0.950 . S
C142 N137 1.307 . S
C142 C141 1.370 . S
C142 H160 0.948 . S
Zn143 N137 2.020 . S
Zn143 O152 2.039 . S
Zn143 O158 2.034 . S
Zn143 O162 2.025 . S
Zn143 O164 2.024 . S
C144 O163 1.246 . S
C144 O164 1.249 . S
N145 C146 1.307 . S
N145 C147 1.333 . S
N145 Zn151 2.020 . S
C146 N145 1.307 . S
C146 C150 1.370 . S
C146 H157 0.948 . S
C147 N145 1.333 . S
C147 C148 1.379 . S
C147 H155 0.952 . S
C148 C147 1.379 . S
C148 C149 1.390 . S
C148 H168 0.949 . S
C149 C148 1.390 . S
C149 C150 1.357 . S
C150 C146 1.370 . S
C150 C149 1.357 . S
C150 H169 0.950 . S
Zn151 N145 2.020 . S
Zn151 O154 2.025 . S
Zn151 O159 2.024 . S
Zn151 O161 2.039 . S
Zn151 O163 2.034 . S
O152 C136 1.251 . S
O152 Zn143 2.039 . S
C153 O158 1.246 . S
C153 O159 1.249 . S
O154 C136 1.254 . S
O154 Zn151 2.025 . S
H155 C147 0.952 . S
H156 C138 0.952 . S
H157 C146 0.948 . S
O158 Zn143 2.034 . S
O158 C153 1.246 . S
O159 Zn151 2.024 . S
O159 C153 1.249 . S
H160 C142 0.948 . S
O161 Zn151 2.039 . S
O161 C165 1.251 . S
O162 Zn143 2.025 . S
O162 C165 1.254 . S
O163 C144 1.246 . S
O163 Zn151 2.034 . S
O164 Zn143 2.024 . S
O164 C144 1.249 . S
C165 O161 1.251 . S
C165 O162 1.254 . S
H166 C139 0.949 . S
H167 C141 0.950 . S
H168 C148 0.949 . S
H169 C150 0.950 . S
C170 O186 1.251 . S
C170 O188 1.254 . S
N171 C172 1.333 . S
N171 C176 1.307 . S
N171 Zn177 2.020 . S
C172 N171 1.333 . S
C172 C173 1.379 . S
C172 H190 0.952 . S
C173 C172 1.379 . S
C173 C174 1.390 . S
C173 H200 0.949 . S
C174 C173 1.390 . S
C174 C175 1.357 . S
C175 C174 1.357 . S
C175 C176 1.370 . S
C175 H201 0.950 . S
C176 N171 1.307 . S
C176 C175 1.370 . S
C176 H194 0.948 . S
Zn177 N171 2.020 . S
Zn177 O186 2.039 . S
Zn177 O192 2.034 . S
Zn177 O196 2.025 . S
Zn177 O198 2.024 . S
C178 O197 1.246 . S
C178 O198 1.249 . S
N179 C180 1.307 . S
N179 C181 1.333 . S
N179 Zn185 2.020 . S
C180 N179 1.307 . S
C180 C184 1.370 . S
C180 H191 0.948 . S
C181 N179 1.333 . S
C181 C182 1.379 . S
C181 H189 0.952 . S
C182 C181 1.379 . S
C182 C183 1.390 . S
C182 H202 0.949 . S
C183 C182 1.390 . S
C183 C184 1.357 . S
C184 C180 1.370 . S
C184 C183 1.357 . S
C184 H203 0.950 . S
Zn185 N179 2.020 . S
Zn185 O188 2.025 . S
Zn185 O193 2.024 . S
Zn185 O195 2.039 . S
Zn185 O197 2.034 . S
O186 C170 1.251 . S
O186 Zn177 2.039 . S
C187 O192 1.246 . S
C187 O193 1.249 . S
O188 C170 1.254 . S
O188 Zn185 2.025 . S
H189 C181 0.952 . S
H190 C172 0.952 . S
H191 C180 0.948 . S
O192 Zn177 2.034 . S
O192 C187 1.246 . S
O193 Zn185 2.024 . S
O193 C187 1.249 . S
H194 C176 0.948 . S
O195 Zn185 2.039 . S
O195 C199 1.251 . S
O196 Zn177 2.025 . S
O196 C199 1.254 . S
O197 C178 1.246 . S
O197 Zn185 2.034 . S
O198 Zn177 2.024 . S
O198 C178 1.249 . S
C199 O195 1.251 . S
C199 O196 1.254 . S
H200 C173 0.949 . S
H201 C175 0.950 . S
H202 C182 0.949 . S
H203 C184 0.950 . S
C204 O220 1.251 . S
C204 O222 1.254 . S
N205 C206 1.333 . S
N205 C210 1.307 . S
N205 Zn211 2.020 . S
C206 N205 1.333 . S
C206 C207 1.379 . S
C206 H224 0.952 . S
C207 C206 1.379 . S
C207 C208 1.390 . S
C207 H234 0.949 . S
C208 C207 1.390 . S
C208 C209 1.357 . S
C209 C208 1.357 . S
C209 C210 1.370 . S
C209 H235 0.950 . S
C210 N205 1.307 . S
C210 C209 1.370 . S
C210 H228 0.948 . S
Zn211 N205 2.020 . S
Zn211 O220 2.039 . S
Zn211 O226 2.034 . S
Zn211 O230 2.025 . S
Zn211 O232 2.024 . S
C212 O231 1.246 . S
C212 O232 1.249 . S
N213 C214 1.307 . S
N213 C215 1.333 . S
N213 Zn219 2.020 . S
C214 N213 1.307 . S
C214 C218 1.370 . S
C214 H225 0.948 . S
C215 N213 1.333 . S
C215 C216 1.379 . S
C215 H223 0.952 . S
C216 C215 1.379 . S
C216 C217 1.390 . S
C216 H236 0.949 . S
C217 C216 1.390 . S
C217 C218 1.357 . S
C218 C214 1.370 . S
C218 C217 1.357 . S
C218 H237 0.950 . S
Zn219 N213 2.020 . S
Zn219 O222 2.025 . S
Zn219 O227 2.024 . S
Zn219 O229 2.039 . S
Zn219 O231 2.034 . S
O220 C204 1.251 . S
O220 Zn211 2.039 . S
C221 O226 1.246 . S
C221 O227 1.249 . S
O222 C204 1.254 . S
O222 Zn219 2.025 . S
H223 C215 0.952 . S
H224 C206 0.952 . S
H225 C214 0.948 . S
O226 Zn211 2.034 . S
O226 C221 1.246 . S
O227 Zn219 2.024 . S
O227 C221 1.249 . S
H228 C210 0.948 . S
O229 Zn219 2.039 . S
O229 C233 1.251 . S
O230 Zn211 2.025 . S
O230 C233 1.254 . S
O231 C212 1.246 . S
O231 Zn219 2.034 . S
O232 Zn211 2.024 . S
O232 C212 1.249 . S
C233 O229 1.251 . S
C233 O230 1.254 . S
H234 C207 0.949 . S
H235 C209 0.950 . S
H236 C216 0.949 . S
H237 C218 0.950 . S
C238 O254 1.251 . S
C238 O256 1.254 . S
N239 C240 1.333 . S
N239 C244 1.307 . S
N239 Zn245 2.020 . S
C240 N239 1.333 . S
C240 C241 1.379 . S
C240 H258 0.952 . S
C241 C240 1.379 . S
C241 C242 1.390 . S
C241 H268 0.949 . S
C242 C241 1.390 . S
C242 C243 1.357 . S
C243 C242 1.357 . S
C243 C244 1.370 . S
C243 H269 0.950 . S
C244 N239 1.307 . S
C244 C243 1.370 . S
C244 H262 0.948 . S
Zn245 N239 2.020 . S
Zn245 O254 2.039 . S
Zn245 O260 2.034 . S
Zn245 O264 2.025 . S
Zn245 O266 2.024 . S
C246 O265 1.246 . S
C246 O266 1.249 . S
N247 C248 1.307 . S
N247 C249 1.333 . S
N247 Zn253 2.020 . S
C248 N247 1.307 . S
C248 C252 1.370 . S
C248 H259 0.948 . S
C249 N247 1.333 . S
C249 C250 1.379 . S
C249 H257 0.952 . S
C250 C249 1.379 . S
C250 C251 1.390 . S
C250 H270 0.949 . S
C251 C250 1.390 . S
C251 C252 1.357 . S
C252 C248 1.370 . S
C252 C251 1.357 . S
C252 H271 0.950 . S
Zn253 N247 2.020 . S
Zn253 O256 2.025 . S
Zn253 O261 2.024 . S
Zn253 O263 2.039 . S
Zn253 O265 2.034 . S
O254 C238 1.251 . S
O254 Zn245 2.039 . S
C255 O260 1.246 . S
C255 O261 1.249 . S
O256 C238 1.254 . S
O256 Zn253 2.025 . S
H257 C249 0.952 . S
H258 C240 0.952 . S
H259 C248 0.948 . S
O260 Zn245 2.034 . S
O260 C255 1.246 . S
O261 Zn253 2.024 . S
O261 C255 1.249 . S
H262 C244 0.948 . S
O263 Zn253 2.039 . S
O263 C267 1.251 . S
O264 Zn245 2.025 . S
O264 C267 1.254 . S
O265 C246 1.246 . S
O265 Zn253 2.034 . S
O266 Zn245 2.024 . S
O266 C246 1.249 . S
C267 O263 1.251 . S
C267 O264 1.254 . S
H268 C241 0.949 . S
H269 C243 0.950 . S
H270 C250 0.949 . S
H271 C252 0.950 . S
Fe272 O273 1.886 . S
Fe272 O276 1.715 1_655 S
Fe272 O281 2.077 . S
Fe272 O286 1.935 1_655 S
Fe272 O292 2.077 . S
Fe272 O301 1.935 1_655 S
O273 Fe272 1.886 . S
O273 Fe275 1.715 . S
Fe274 O276 1.886 1_565 S
Fe274 O277 1.715 . S
Fe274 O284 1.935 . S
Fe274 O285 2.077 1_565 S
Fe274 O291 1.935 . S
Fe274 O300 2.077 1_565 S
Fe275 O273 1.715 . S
Fe275 O278 1.886 1_545 S
Fe275 O282 1.935 . S
Fe275 O287 2.077 1_545 S
Fe275 O293 1.935 . S
Fe275 O297 2.077 1_545 S
O276 Fe272 1.715 1_455 S
O276 Fe274 1.886 1_545 S
O277 Fe274 1.715 . S
O277 Fe279 1.886 . S
O278 Fe275 1.886 1_565 S
O278 Fe279 1.715 1_655 S
Fe279 O277 1.886 . S
Fe279 O278 1.715 1_455 S
Fe279 O283 2.077 . S
Fe279 O288 1.935 1_455 S
Fe279 O290 2.077 . S
Fe279 O298 1.935 1_455 S
C280 O292 1.381 . S
C280 O293 1.421 . S
O281 Fe272 2.077 . S
O281 C294 1.381 . S
O282 Fe275 1.935 . S
O282 C294 1.421 . S
O283 Fe279 2.077 . S
O283 C299 1.381 . S
O284 Fe274 1.935 . S
O284 C299 1.421 . S
O285 Fe274 2.077 1_545 S
O285 C289 1.381 . S
O286 Fe272 1.935 1_455 S
O286 C289 1.421 . S
O287 Fe275 2.077 1_565 S
O287 C295 1.381 . S
O288 Fe279 1.935 1_655 S
O288 C295 1.421 . S
C289 O285 1.381 . S
C289 O286 1.421 . S
O290 Fe279 2.077 . S
O290 C302 1.381 . S
O291 Fe274 1.935 . S
O291 C302 1.421 . S
O292 Fe272 2.077 . S
O292 C280 1.381 . S
O293 Fe275 1.935 . S
O293 C280 1.421 . S
C294 O281 1.381 . S
C294 O282 1.421 . S
C295 O287 1.381 . S
C295 O288 1.421 . S
C296 O297 1.381 . S
C296 O298 1.421 . S
O297 Fe275 2.077 1_565 S
O297 C296 1.381 . S
O298 Fe279 1.935 1_655 S
O298 C296 1.421 . S
C299 O283 1.381 . S
C299 O284 1.421 . S
O300 Fe274 2.077 1_545 S
O300 C303 1.381 . S
O301 Fe272 1.935 1_455 S
O301 C303 1.421 . S
C302 O290 1.381 . S
C302 O291 1.421 . S
C303 O300 1.381 . S
C303 O301 1.421 . S
Fe304 O305 1.886 1_554 S
Fe304 O308 1.715 . S
Fe304 O313 2.077 1_554 S
Fe304 O318 1.935 1_554 S
Fe304 O324 2.077 . S
Fe304 O333 1.935 . S
O305 Fe304 1.886 1_556 S
O305 Fe307 1.715 . S
Fe306 O308 1.886 1_545 S
Fe306 O309 1.714 . S
Fe306 O316 1.935 1_554 S
Fe306 O317 2.077 1_544 S
Fe306 O323 1.935 . S
Fe306 O332 2.077 1_545 S
Fe307 O305 1.715 . S
Fe307 O310 1.886 1_565 S
Fe307 O314 1.935 . S
Fe307 O319 2.077 1_565 S
Fe307 O325 1.935 1_556 S
Fe307 O329 2.077 1_566 S
O308 Fe304 1.715 . S
O308 Fe306 1.886 1_565 S
O309 Fe306 1.714 . S
O309 Fe311 1.886 1_554 S
O310 Fe307 1.886 1_545 S
O310 Fe311 1.715 . S
Fe311 O309 1.886 1_556 S
Fe311 O310 1.715 . S
Fe311 O315 2.077 . S
Fe311 O320 1.935 . S
Fe311 O322 2.077 1_556 S
Fe311 O330 1.935 1_556 S
C312 O324 1.381 . S
C312 O325 1.421 . S
O313 Fe304 2.077 1_556 S
O313 C326 1.381 . S
O314 Fe307 1.935 . S
O314 C326 1.421 . S
O315 Fe311 2.077 . S
O315 C331 1.381 . S
O316 Fe306 1.935 1_556 S
O316 C331 1.421 . S
O317 Fe306 2.077 1_566 S
O317 C321 1.381 . S
O318 Fe304 1.935 1_556 S
O318 C321 1.421 . S
O319 Fe307 2.077 1_545 S
O319 C327 1.381 . S
O320 Fe311 1.935 . S
O320 C327 1.421 . S
C321 O317 1.381 . S
C321 O318 1.421 . S
O322 Fe311 2.077 1_554 S
O322 C334 1.381 . S
O323 Fe306 1.935 . S
O323 C334 1.421 . S
O324 Fe304 2.077 . S
O324 C312 1.381 . S
O325 Fe307 1.935 1_554 S
O325 C312 1.421 . S
C326 O313 1.381 . S
C326 O314 1.421 . S
C327 O319 1.381 . S
C327 O320 1.421 . S
C328 O329 1.381 . S
C328 O330 1.421 . S
O329 Fe307 2.077 1_544 S
O329 C328 1.381 . S
O330 Fe311 1.935 1_554 S
O330 C328 1.421 . S
C331 O315 1.381 . S
C331 O316 1.421 . S
O332 Fe306 2.077 1_565 S
O332 C335 1.381 . S
O333 Fe304 1.935 . S
O333 C335 1.421 . S
C334 O322 1.381 . S
C334 O323 1.421 . S
C335 O332 1.381 . S
C335 O333 1.421 . S
Fe336 O337 1.887 1_556 S
Fe336 O340 1.715 1_655 S
Fe336 O345 2.077 . S
Fe336 O350 1.935 1_655 S
Fe336 O356 2.077 1_556 S
Fe336 O365 1.935 1_656 S
O337 Fe336 1.887 1_554 S
O337 Fe339 1.714 . S
Fe338 O340 1.886 . S
Fe338 O341 1.715 . S
Fe338 O348 1.935 . S
Fe338 O349 2.077 . S
Fe338 O355 1.935 1_556 S
Fe338 O364 2.077 1_556 S
Fe339 O337 1.714 . S
Fe339 O342 1.886 . S
Fe339 O346 1.935 1_554 S
Fe339 O351 2.077 1_554 S
Fe339 O357 1.935 . S
Fe339 O361 2.077 . S
O340 Fe336 1.715 1_455 S
O340 Fe338 1.886 . S
O341 Fe338 1.715 . S
O341 Fe343 1.886 1_556 S
O342 Fe339 1.886 . S
O342 Fe343 1.715 1_655 S
Fe343 O341 1.886 1_554 S
Fe343 O342 1.715 1_455 S
Fe343 O347 2.077 1_554 S
Fe343 O352 1.935 1_454 S
Fe343 O354 2.077 . S
Fe343 O362 1.935 1_455 S
C344 O356 1.381 . S
C344 O357 1.421 . S
O345 Fe336 2.077 . S
O345 C358 1.381 . S
O346 Fe339 1.935 1_556 S
O346 C358 1.421 . S
O347 Fe343 2.077 1_556 S
O347 C363 1.381 . S
O348 Fe338 1.935 . S
O348 C363 1.421 . S
O349 Fe338 2.077 . S
O349 C353 1.381 . S
O350 Fe336 1.935 1_455 S
O350 C353 1.421 . S
O351 Fe339 2.077 1_556 S
O351 C359 1.381 . S
O352 Fe343 1.935 1_656 S
O352 C359 1.421 . S
C353 O349 1.381 . S
C353 O350 1.421 . S
O354 Fe343 2.077 . S
O354 C366 1.381 . S
O355 Fe338 1.935 1_554 S
O355 C366 1.421 . S
O356 Fe336 2.077 1_554 S
O356 C344 1.381 . S
O357 Fe339 1.935 . S
O357 C344 1.421 . S
C358 O345 1.381 . S
C358 O346 1.421 . S
C359 O351 1.381 . S
C359 O352 1.421 . S
C360 O361 1.381 . S
C360 O362 1.421 . S
O361 Fe339 2.077 . S
O361 C360 1.381 . S
O362 Fe343 1.935 1_655 S
O362 C360 1.421 . S
C363 O347 1.381 . S
C363 O348 1.421 . S
O364 Fe338 2.077 1_554 S
O364 C367 1.381 . S
O365 Fe336 1.935 1_454 S
O365 C367 1.421 . S
C366 O354 1.381 . S
C366 O355 1.421 . S
C367 O364 1.381 . S
C367 O365 1.421 . S
Fe368 O369 1.886 . S
Fe368 O372 1.715 . S
Fe368 O377 2.077 . S
Fe368 O382 1.935 . S
Fe368 O388 2.077 . S
Fe368 O397 1.935 . S
O369 Fe368 1.886 . S
O369 Fe371 1.715 . S
Fe370 O372 1.886 1_554 S
Fe370 O373 1.715 . S
Fe370 O380 1.935 . S
Fe370 O381 2.077 1_554 S
Fe370 O387 1.935 . S
Fe370 O396 2.077 1_554 S
Fe371 O369 1.715 . S
Fe371 O374 1.886 1_556 S
Fe371 O378 1.935 . S
Fe371 O383 2.077 1_556 S
Fe371 O389 1.935 . S
Fe371 O393 2.077 1_556 S
O372 Fe368 1.715 . S
O372 Fe370 1.886 1_556 S
O373 Fe370 1.715 . S
O373 Fe375 1.886 . S
O374 Fe371 1.886 1_554 S
O374 Fe375 1.715 . S
Fe375 O373 1.886 . S
Fe375 O374 1.715 . S
Fe375 O379 2.077 . S
Fe375 O384 1.935 . S
Fe375 O386 2.077 . S
Fe375 O394 1.935 . S
C376 O388 1.381 . S
C376 O389 1.421 . S
O377 Fe368 2.077 . S
O377 C390 1.381 . S
O378 Fe371 1.935 . S
O378 C390 1.421 . S
O379 Fe375 2.077 . S
O379 C395 1.381 . S
O380 Fe370 1.935 . S
O380 C395 1.421 . S
O381 Fe370 2.077 1_556 S
O381 C385 1.381 . S
O382 Fe368 1.935 . S
O382 C385 1.421 . S
O383 Fe371 2.077 1_554 S
O383 C391 1.381 . S
O384 Fe375 1.935 . S
O384 C391 1.421 . S
C385 O381 1.381 . S
C385 O382 1.421 . S
O386 Fe375 2.077 . S
O386 C398 1.381 . S
O387 Fe370 1.935 . S
O387 C398 1.421 . S
O388 Fe368 2.077 . S
O388 C376 1.381 . S
O389 Fe371 1.935 . S
O389 C376 1.421 . S
C390 O377 1.381 . S
C390 O378 1.421 . S
C391 O383 1.381 . S
C391 O384 1.421 . S
C392 O393 1.381 . S
C392 O394 1.421 . S
O393 Fe371 2.077 1_554 S
O393 C392 1.381 . S
O394 Fe375 1.935 . S
O394 C392 1.421 . S
C395 O379 1.381 . S
C395 O380 1.421 . S
O396 Fe370 2.077 1_556 S
O396 C399 1.381 . S
O397 Fe368 1.935 . S
O397 C399 1.421 . S
C398 O386 1.381 . S
C398 O387 1.421 . S
C399 O396 1.381 . S
C399 O397 1.421 . S
Fe400 O401 1.886 . S
Fe400 O404 1.715 . S
Fe400 O409 2.077 . S
Fe400 O414 1.935 . S
Fe400 O420 2.077 1_455 S
Fe400 O429 1.935 1_455 S
O401 Fe400 1.886 . S
O401 Fe403 1.715 1_455 S
Fe402 O404 1.886 . S
Fe402 O405 1.715 1_455 S
Fe402 O412 1.935 . S
Fe402 O413 2.077 . S
Fe402 O419 1.935 1_455 S
Fe402 O428 2.077 1_455 S
Fe403 O401 1.715 1_655 S
Fe403 O406 1.886 . S
Fe403 O410 1.935 1_655 S
Fe403 O415 2.077 1_655 S
Fe403 O421 1.935 . S
Fe403 O425 2.077 . S
O404 Fe400 1.715 . S
O404 Fe402 1.886 . S
O405 Fe402 1.715 1_655 S
O405 Fe407 1.886 . S
O406 Fe403 1.886 . S
O406 Fe407 1.715 . S
Fe407 O405 1.886 . S
Fe407 O406 1.715 . S
Fe407 O411 2.077 1_655 S
Fe407 O416 1.935 1_655 S
Fe407 O418 2.077 . S
Fe407 O426 1.935 . S
C408 O420 1.381 . S
C408 O421 1.421 . S
O409 Fe400 2.077 . S
O409 C422 1.381 . S
O410 Fe403 1.935 1_455 S
O410 C422 1.421 . S
O411 Fe407 2.077 1_455 S
O411 C427 1.381 . S
O412 Fe402 1.935 . S
O412 C427 1.421 . S
O413 Fe402 2.077 . S
O413 C417 1.381 . S
O414 Fe400 1.935 . S
O414 C417 1.421 . S
O415 Fe403 2.077 1_455 S
O415 C423 1.381 . S
O416 Fe407 1.935 1_455 S
O416 C423 1.421 . S
C417 O413 1.381 . S
C417 O414 1.421 . S
O418 Fe407 2.077 . S
O418 C430 1.381 . S
O419 Fe402 1.935 1_655 S
O419 C430 1.421 . S
O420 Fe400 2.077 1_655 S
O420 C408 1.381 . S
O421 Fe403 1.935 . S
O421 C408 1.421 . S
C422 O409 1.381 . S
C422 O410 1.421 . S
C423 O415 1.381 . S
C423 O416 1.421 . S
C424 O425 1.381 . S
C424 O426 1.421 . S
O425 Fe403 2.077 . S
O425 C424 1.381 . S
O426 Fe407 1.935 . S
O426 C424 1.421 . S
C427 O411 1.381 . S
C427 O412 1.421 . S
O428 Fe402 2.077 1_655 S
O428 C431 1.381 . S
O429 Fe400 1.935 1_655 S
O429 C431 1.421 . S
C430 O418 1.381 . S
C430 O419 1.421 . S
C431 O428 1.381 . S
C431 O429 1.421 . S
Fe432 O433 1.886 . S
Fe432 O436 1.715 . S
Fe432 O441 2.077 . S
Fe432 O446 1.935 . S
Fe432 O452 2.077 . S
Fe432 O461 1.935 . S
O433 Fe432 1.886 . S
O433 Fe435 1.715 . S
Fe434 O436 1.886 1_545 S
Fe434 O437 1.715 . S
Fe434 O444 1.935 . S
Fe434 O445 2.077 1_545 S
Fe434 O451 1.935 . S
Fe434 O460 2.077 1_545 S
Fe435 O433 1.715 . S
Fe435 O438 1.886 1_565 S
Fe435 O442 1.935 . S
Fe435 O447 2.077 1_565 S
Fe435 O453 1.935 . S
Fe435 O457 2.077 1_565 S
O436 Fe432 1.715 . S
O436 Fe434 1.886 1_565 S
O437 Fe434 1.715 . S
O437 Fe439 1.886 . S
O438 Fe435 1.886 1_545 S
O438 Fe439 1.715 . S
Fe439 O437 1.886 . S
Fe439 O438 1.715 . S
Fe439 O443 2.077 . S
Fe439 O448 1.935 . S
Fe439 O450 2.077 . S
Fe439 O458 1.935 . S
C440 O452 1.381 . S
C440 O453 1.421 . S
O441 Fe432 2.077 . S
O441 C454 1.381 . S
O442 Fe435 1.935 . S
O442 C454 1.421 . S
O443 Fe439 2.077 . S
O443 C459 1.381 . S
O444 Fe434 1.935 . S
O444 C459 1.421 . S
O445 Fe434 2.077 1_565 S
O445 C449 1.381 . S
O446 Fe432 1.935 . S
O446 C449 1.421 . S
O447 Fe435 2.077 1_545 S
O447 C455 1.381 . S
O448 Fe439 1.935 . S
O448 C455 1.421 . S
C449 O445 1.381 . S
C449 O446 1.421 . S
O450 Fe439 2.077 . S
O450 C462 1.381 . S
O451 Fe434 1.935 . S
O451 C462 1.421 . S
O452 Fe432 2.077 . S
O452 C440 1.381 . S
O453 Fe435 1.935 . S
O453 C440 1.421 . S
C454 O441 1.381 . S
C454 O442 1.421 . S
C455 O447 1.381 . S
C455 O448 1.421 . S
C456 O457 1.381 . S
C456 O458 1.421 . S
O457 Fe435 2.077 1_545 S
O457 C456 1.381 . S
O458 Fe439 1.935 . S
O458 C456 1.421 . S
C459 O443 1.381 . S
C459 O444 1.421 . S
O460 Fe434 2.077 1_565 S
O460 C463 1.381 . S
O461 Fe432 1.935 . S
O461 C463 1.421 . S
C462 O450 1.381 . S
C462 O451 1.421 . S
C463 O460 1.381 . S
C463 O461 1.421 . S
C289 C4 1.496 . S
C294 C63 2.213 . S
C295 C72 2.257 . S
C102 C299 2.246 . S
C136 C302 2.212 . S
C303 C183 2.258 . S
C233 C280 2.244 . S
C251 C296 1.492 . S
C334 C29 1.761 . S
C42 C360 2.714 . S
C312 C97 1.933 . S
C367 C115 2.024 . S
C149 C321 2.186 . S
C363 C187 2.031 . S
C212 C327 2.764 . S
C255 C358 1.761 . S
C8 C366 1.758 . S
C153 C353 2.713 . S
C331 C170 1.936 . S
C359 C208 2.024 . S
C238 C326 1.764 . S
C76 C344 2.028 . S
C335 C119 2.764 . S
C38 C328 2.187 . S
C242 C390 1.230 . S
C165 C385 1.754 . S
C399 C174 1.719 . S
C376 C204 1.997 . S
C34 C392 1.751 . S
C391 C81 1.716 . S
C131 C395 1.994 . S
C13 C398 1.229 . S
C267 C424 1.620 . S
C440 C144 2.972 . S
C199 C422 1.993 . S
C217 C455 2.101 . S
C431 C47 2.664 . S
C85 C449 1.712 . S
C427 C110 3.089 . S
C462 C17 1.632 . S
C454 C246 1.633 . S
C51 C459 2.970 . S
C68 C430 1.995 . S
C463 C106 2.103 . S
C0 C417 1.618 . S
C178 C456 1.710 . S
C408 C221 3.091 . S
C423 C140 2.662 . S
