# Generated by pormake.
# Topology gar, (4,6)-cn, num edge types: 1
# Building blocks:
#     Node 0, Type 0, BuildingBlock: GALJAG_clean_sbu_0, # of connection points: 4
#     Node 1, Type 0, BuildingBlock: GALJAG_clean_sbu_0, # of connection points: 4
#     Node 2, Type 0, BuildingBlock: GALJAG_clean_sbu_0, # of connection points: 4
#     Node 3, Type 0, BuildingBlock: GALJAG_clean_sbu_0, # of connection points: 4
#     Node 4, Type 0, BuildingBlock: GALJAG_clean_sbu_0, # of connection points: 4
#     Node 5, Type 0, BuildingBlock: GALJAG_clean_sbu_0, # of connection points: 4
#     Node 6, Type 0, BuildingBlock: GALJAG_clean_sbu_0, # of connection points: 4
#     Node 7, Type 0, BuildingBlock: GALJAG_clean_sbu_0, # of connection points: 4
#     Node 8, Type 0, BuildingBlock: GALJAG_clean_sbu_0, # of connection points: 4
#     Node 9, Type 0, BuildingBlock: GALJAG_clean_sbu_0, # of connection points: 4
#     Node 10, Type 0, BuildingBlock: GALJAG_clean_sbu_0, # of connection points: 4
#     Node 11, Type 0, BuildingBlock: GALJAG_clean_sbu_0, # of connection points: 4
#     Node 12, Type 0, BuildingBlock: GALJAG_clean_sbu_0, # of connection points: 4
#     Node 13, Type 0, BuildingBlock: GALJAG_clean_sbu_0, # of connection points: 4
#     Node 14, Type 0, BuildingBlock: GALJAG_clean_sbu_0, # of connection points: 4
#     Node 15, Type 0, BuildingBlock: GALJAG_clean_sbu_0, # of connection points: 4
#     Node 16, Type 0, BuildingBlock: GALJAG_clean_sbu_0, # of connection points: 4
#     Node 17, Type 0, BuildingBlock: GALJAG_clean_sbu_0, # of connection points: 4
#     Node 18, Type 0, BuildingBlock: GALJAG_clean_sbu_0, # of connection points: 4
#     Node 19, Type 0, BuildingBlock: GALJAG_clean_sbu_0, # of connection points: 4
#     Node 20, Type 0, BuildingBlock: GALJAG_clean_sbu_0, # of connection points: 4
#     Node 21, Type 0, BuildingBlock: GALJAG_clean_sbu_0, # of connection points: 4
#     Node 22, Type 0, BuildingBlock: GALJAG_clean_sbu_0, # of connection points: 4
#     Node 23, Type 0, BuildingBlock: GALJAG_clean_sbu_0, # of connection points: 4
#     Node 24, Type 1, BuildingBlock: MIFKUJ_clean_sbu_0, # of connection points: 6
#     Node 25, Type 1, BuildingBlock: MIFKUJ_clean_sbu_0, # of connection points: 6
#     Node 26, Type 1, BuildingBlock: MIFKUJ_clean_sbu_0, # of connection points: 6
#     Node 27, Type 1, BuildingBlock: MIFKUJ_clean_sbu_0, # of connection points: 6
#     Node 28, Type 1, BuildingBlock: MIFKUJ_clean_sbu_0, # of connection points: 6
#     Node 29, Type 1, BuildingBlock: MIFKUJ_clean_sbu_0, # of connection points: 6
#     Node 30, Type 1, BuildingBlock: MIFKUJ_clean_sbu_0, # of connection points: 6
#     Node 31, Type 1, BuildingBlock: MIFKUJ_clean_sbu_0, # of connection points: 6
#     Node 32, Type 1, BuildingBlock: MIFKUJ_clean_sbu_0, # of connection points: 6
#     Node 33, Type 1, BuildingBlock: MIFKUJ_clean_sbu_0, # of connection points: 6
#     Node 34, Type 1, BuildingBlock: MIFKUJ_clean_sbu_0, # of connection points: 6
#     Node 35, Type 1, BuildingBlock: MIFKUJ_clean_sbu_0, # of connection points: 6
#     Node 36, Type 1, BuildingBlock: MIFKUJ_clean_sbu_0, # of connection points: 6
#     Node 37, Type 1, BuildingBlock: MIFKUJ_clean_sbu_0, # of connection points: 6
#     Node 38, Type 1, BuildingBlock: MIFKUJ_clean_sbu_0, # of connection points: 6
#     Node 39, Type 1, BuildingBlock: MIFKUJ_clean_sbu_0, # of connection points: 6
#     Edge 40, Type (0, 1), BuildingBlock: UVAHIK_clean_linker_0, # of connection points: 2
#     Edge 41, Type (0, 1), BuildingBlock: UVAHIK_clean_linker_0, # of connection points: 2
#     Edge 42, Type (0, 1), BuildingBlock: UVAHIK_clean_linker_0, # of connection points: 2
#     Edge 43, Type (0, 1), BuildingBlock: UVAHIK_clean_linker_0, # of connection points: 2
#     Edge 44, Type (0, 1), BuildingBlock: UVAHIK_clean_linker_0, # of connection points: 2
#     Edge 45, Type (0, 1), BuildingBlock: UVAHIK_clean_linker_0, # of connection points: 2
#     Edge 46, Type (0, 1), BuildingBlock: UVAHIK_clean_linker_0, # of connection points: 2
#     Edge 47, Type (0, 1), BuildingBlock: UVAHIK_clean_linker_0, # of connection points: 2
#     Edge 48, Type (0, 1), BuildingBlock: UVAHIK_clean_linker_0, # of connection points: 2
#     Edge 49, Type (0, 1), BuildingBlock: UVAHIK_clean_linker_0, # of connection points: 2
#     Edge 50, Type (0, 1), BuildingBlock: UVAHIK_clean_linker_0, # of connection points: 2
#     Edge 51, Type (0, 1), BuildingBlock: UVAHIK_clean_linker_0, # of connection points: 2
#     Edge 52, Type (0, 1), BuildingBlock: UVAHIK_clean_linker_0, # of connection points: 2
#     Edge 53, Type (0, 1), BuildingBlock: UVAHIK_clean_linker_0, # of connection points: 2
#     Edge 54, Type (0, 1), BuildingBlock: UVAHIK_clean_linker_0, # of connection points: 2
#     Edge 55, Type (0, 1), BuildingBlock: UVAHIK_clean_linker_0, # of connection points: 2
#     Edge 56, Type (0, 1), BuildingBlock: UVAHIK_clean_linker_0, # of connection points: 2
#     Edge 57, Type (0, 1), BuildingBlock: UVAHIK_clean_linker_0, # of connection points: 2
#     Edge 58, Type (0, 1), BuildingBlock: UVAHIK_clean_linker_0, # of connection points: 2
#     Edge 59, Type (0, 1), BuildingBlock: UVAHIK_clean_linker_0, # of connection points: 2
#     Edge 60, Type (0, 1), BuildingBlock: UVAHIK_clean_linker_0, # of connection points: 2
#     Edge 61, Type (0, 1), BuildingBlock: UVAHIK_clean_linker_0, # of connection points: 2
#     Edge 62, Type (0, 1), BuildingBlock: UVAHIK_clean_linker_0, # of connection points: 2
#     Edge 63, Type (0, 1), BuildingBlock: UVAHIK_clean_linker_0, # of connection points: 2
#     Edge 64, Type (0, 1), BuildingBlock: UVAHIK_clean_linker_0, # of connection points: 2
#     Edge 65, Type (0, 1), BuildingBlock: UVAHIK_clean_linker_0, # of connection points: 2
#     Edge 66, Type (0, 1), BuildingBlock: UVAHIK_clean_linker_0, # of connection points: 2
#     Edge 67, Type (0, 1), BuildingBlock: UVAHIK_clean_linker_0, # of connection points: 2
#     Edge 68, Type (0, 1), BuildingBlock: UVAHIK_clean_linker_0, # of connection points: 2
#     Edge 69, Type (0, 1), BuildingBlock: UVAHIK_clean_linker_0, # of connection points: 2
#     Edge 70, Type (0, 1), BuildingBlock: UVAHIK_clean_linker_0, # of connection points: 2
#     Edge 71, Type (0, 1), BuildingBlock: UVAHIK_clean_linker_0, # of connection points: 2
#     Edge 72, Type (0, 1), BuildingBlock: UVAHIK_clean_linker_0, # of connection points: 2
#     Edge 73, Type (0, 1), BuildingBlock: UVAHIK_clean_linker_0, # of connection points: 2
#     Edge 74, Type (0, 1), BuildingBlock: UVAHIK_clean_linker_0, # of connection points: 2
#     Edge 75, Type (0, 1), BuildingBlock: UVAHIK_clean_linker_0, # of connection points: 2
#     Edge 76, Type (0, 1), BuildingBlock: UVAHIK_clean_linker_0, # of connection points: 2
#     Edge 77, Type (0, 1), BuildingBlock: UVAHIK_clean_linker_0, # of connection points: 2
#     Edge 78, Type (0, 1), BuildingBlock: UVAHIK_clean_linker_0, # of connection points: 2
#     Edge 79, Type (0, 1), BuildingBlock: UVAHIK_clean_linker_0, # of connection points: 2
#     Edge 80, Type (0, 1), BuildingBlock: UVAHIK_clean_linker_0, # of connection points: 2
#     Edge 81, Type (0, 1), BuildingBlock: UVAHIK_clean_linker_0, # of connection points: 2
#     Edge 82, Type (0, 1), BuildingBlock: UVAHIK_clean_linker_0, # of connection points: 2
#     Edge 83, Type (0, 1), BuildingBlock: UVAHIK_clean_linker_0, # of connection points: 2
#     Edge 84, Type (0, 1), BuildingBlock: UVAHIK_clean_linker_0, # of connection points: 2
#     Edge 85, Type (0, 1), BuildingBlock: UVAHIK_clean_linker_0, # of connection points: 2
#     Edge 86, Type (0, 1), BuildingBlock: UVAHIK_clean_linker_0, # of connection points: 2
#     Edge 87, Type (0, 1), BuildingBlock: UVAHIK_clean_linker_0, # of connection points: 2
#     Edge 88, Type (0, 1), BuildingBlock: UVAHIK_clean_linker_0, # of connection points: 2
#     Edge 89, Type (0, 1), BuildingBlock: UVAHIK_clean_linker_0, # of connection points: 2
#     Edge 90, Type (0, 1), BuildingBlock: UVAHIK_clean_linker_0, # of connection points: 2
#     Edge 91, Type (0, 1), BuildingBlock: UVAHIK_clean_linker_0, # of connection points: 2
#     Edge 92, Type (0, 1), BuildingBlock: UVAHIK_clean_linker_0, # of connection points: 2
#     Edge 93, Type (0, 1), BuildingBlock: UVAHIK_clean_linker_0, # of connection points: 2
#     Edge 94, Type (0, 1), BuildingBlock: UVAHIK_clean_linker_0, # of connection points: 2
#     Edge 95, Type (0, 1), BuildingBlock: UVAHIK_clean_linker_0, # of connection points: 2
#     Edge 96, Type (0, 1), BuildingBlock: UVAHIK_clean_linker_0, # of connection points: 2
#     Edge 97, Type (0, 1), BuildingBlock: UVAHIK_clean_linker_0, # of connection points: 2
#     Edge 98, Type (0, 1), BuildingBlock: UVAHIK_clean_linker_0, # of connection points: 2
#     Edge 99, Type (0, 1), BuildingBlock: UVAHIK_clean_linker_0, # of connection points: 2
#     Edge 100, Type (0, 1), BuildingBlock: UVAHIK_clean_linker_0, # of connection points: 2
#     Edge 101, Type (0, 1), BuildingBlock: UVAHIK_clean_linker_0, # of connection points: 2
#     Edge 102, Type (0, 1), BuildingBlock: UVAHIK_clean_linker_0, # of connection points: 2
#     Edge 103, Type (0, 1), BuildingBlock: UVAHIK_clean_linker_0, # of connection points: 2
#     Edge 104, Type (0, 1), BuildingBlock: UVAHIK_clean_linker_0, # of connection points: 2
#     Edge 105, Type (0, 1), BuildingBlock: UVAHIK_clean_linker_0, # of connection points: 2
#     Edge 106, Type (0, 1), BuildingBlock: UVAHIK_clean_linker_0, # of connection points: 2
#     Edge 107, Type (0, 1), BuildingBlock: UVAHIK_clean_linker_0, # of connection points: 2
#     Edge 108, Type (0, 1), BuildingBlock: UVAHIK_clean_linker_0, # of connection points: 2
#     Edge 109, Type (0, 1), BuildingBlock: UVAHIK_clean_linker_0, # of connection points: 2
#     Edge 110, Type (0, 1), BuildingBlock: UVAHIK_clean_linker_0, # of connection points: 2
#     Edge 111, Type (0, 1), BuildingBlock: UVAHIK_clean_linker_0, # of connection points: 2
#     Edge 112, Type (0, 1), BuildingBlock: UVAHIK_clean_linker_0, # of connection points: 2
#     Edge 113, Type (0, 1), BuildingBlock: UVAHIK_clean_linker_0, # of connection points: 2
#     Edge 114, Type (0, 1), BuildingBlock: UVAHIK_clean_linker_0, # of connection points: 2
#     Edge 115, Type (0, 1), BuildingBlock: UVAHIK_clean_linker_0, # of connection points: 2
#     Edge 116, Type (0, 1), BuildingBlock: UVAHIK_clean_linker_0, # of connection points: 2
#     Edge 117, Type (0, 1), BuildingBlock: UVAHIK_clean_linker_0, # of connection points: 2
#     Edge 118, Type (0, 1), BuildingBlock: UVAHIK_clean_linker_0, # of connection points: 2
#     Edge 119, Type (0, 1), BuildingBlock: UVAHIK_clean_linker_0, # of connection points: 2
#     Edge 120, Type (0, 1), BuildingBlock: UVAHIK_clean_linker_0, # of connection points: 2
#     Edge 121, Type (0, 1), BuildingBlock: UVAHIK_clean_linker_0, # of connection points: 2
#     Edge 122, Type (0, 1), BuildingBlock: UVAHIK_clean_linker_0, # of connection points: 2
#     Edge 123, Type (0, 1), BuildingBlock: UVAHIK_clean_linker_0, # of connection points: 2
#     Edge 124, Type (0, 1), BuildingBlock: UVAHIK_clean_linker_0, # of connection points: 2
#     Edge 125, Type (0, 1), BuildingBlock: UVAHIK_clean_linker_0, # of connection points: 2
#     Edge 126, Type (0, 1), BuildingBlock: UVAHIK_clean_linker_0, # of connection points: 2
#     Edge 127, Type (0, 1), BuildingBlock: UVAHIK_clean_linker_0, # of connection points: 2
#     Edge 128, Type (0, 1), BuildingBlock: UVAHIK_clean_linker_0, # of connection points: 2
#     Edge 129, Type (0, 1), BuildingBlock: UVAHIK_clean_linker_0, # of connection points: 2
#     Edge 130, Type (0, 1), BuildingBlock: UVAHIK_clean_linker_0, # of connection points: 2
#     Edge 131, Type (0, 1), BuildingBlock: UVAHIK_clean_linker_0, # of connection points: 2
#     Edge 132, Type (0, 1), BuildingBlock: UVAHIK_clean_linker_0, # of connection points: 2
#     Edge 133, Type (0, 1), BuildingBlock: UVAHIK_clean_linker_0, # of connection points: 2
#     Edge 134, Type (0, 1), BuildingBlock: UVAHIK_clean_linker_0, # of connection points: 2
#     Edge 135, Type (0, 1), BuildingBlock: UVAHIK_clean_linker_0, # of connection points: 2
# Relax obj value: 0.115
# Max RMSD: 0.261
# Mean RMSD: 0.151
data_MOF--net-gar--node1-GALJAG_clean_sbu_0--node2-MIFKUJ_clean_sbu_0--edge1-UVAHIK_clean_linker_0
_symmetry_space_group_name_H-M    P1
_symmetry_Int_Tables_number       1
_symmetry_cell_setting            triclinic
loop_
_symmetry_equiv_pos_as_xyz
'x, y, z'
_cell_length_a     71.945832
_cell_length_b     71.931691
_cell_length_c     69.503835
_cell_angle_alpha  94.194547
_cell_angle_beta   94.210674
_cell_angle_gamma 98.236576
loop_
_atom_site_label
_atom_site_type_symbol
_atom_site_fract_x
_atom_site_fract_y
_atom_site_fract_z
_atom_type_partial_charge
In0 In 0.02406 0.26971 0.3902 0.0
O1 O 0.0382 0.2566 0.36508 0.0
O2 O 0.05565 0.27433 0.38692 0.0
C3 C 0.9899 0.27097 0.37177 0.0
C4 C 0.0209 0.24007 0.41192 0.0
C5 C 0.02961 0.30449 0.40885 0.0
O6 O 0.00508 0.27735 0.36499 0.0
O7 O 0.99195 0.26374 0.38761 0.0
O8 O 0.02805 0.28972 0.41772 0.0
O9 O 0.02853 0.30168 0.39064 0.0
C10 C 0.05467 0.26401 0.37134 0.0
O11 O 0.02641 0.25676 0.41909 0.0
O12 O 0.01703 0.23836 0.39381 0.0
In13 In 0.00477 0.75698 0.64079 0.0
O14 O 0.01127 0.77256 0.61413 0.0
O15 O 0.01198 0.78891 0.64096 0.0
C16 C 0.99257 0.72276 0.62205 0.0
C17 C 0.03865 0.7523 0.65752 0.0
C18 C 0.97447 0.76381 0.65935 0.0
O19 O 0.99291 0.73783 0.61381 0.0
O20 O 0.99809 0.72497 0.63982 0.0
O21 O 0.99016 0.76281 0.6683 0.0
O22 O 0.97412 0.76131 0.64118 0.0
C23 C 0.01385 0.78874 0.62305 0.0
O24 O 0.02474 0.75399 0.66722 0.0
O25 O 0.03548 0.75317 0.63956 0.0
In26 In 0.52294 0.76646 0.89476 0.0
O27 O 0.53894 0.74945 0.87433 0.0
O28 O 0.54941 0.77848 0.8811 0.0
C29 C 0.49352 0.76452 0.86799 0.0
C30 C 0.51965 0.74061 0.92116 0.0
C31 C 0.52542 0.79866 0.91804 0.0
O32 O 0.50571 0.77904 0.87163 0.0
O33 O 0.49653 0.75072 0.87739 0.0
O34 O 0.53904 0.78948 0.91692 0.0
O35 O 0.51072 0.79151 0.90763 0.0
C36 C 0.55145 0.76313 0.87213 0.0
O37 O 0.50582 0.7478 0.91447 0.0
O38 O 0.53508 0.74647 0.91458 0.0
In39 In 0.50433 0.25704 0.13352 0.0
O40 O 0.49657 0.23712 0.10628 0.0
O41 O 0.49547 0.22515 0.13325 0.0
C42 C 0.51178 0.28815 0.11427 0.0
C43 C 0.47523 0.26496 0.15371 0.0
C44 C 0.53858 0.25215 0.14908 0.0
O45 O 0.50213 0.27306 0.10667 0.0
O46 O 0.51762 0.28771 0.13178 0.0
O47 O 0.525 0.25395 0.15924 0.0
O48 O 0.53488 0.25291 0.13116 0.0
C49 C 0.49335 0.22243 0.11504 0.0
O50 O 0.49138 0.26441 0.16179 0.0
O51 O 0.47381 0.26152 0.13559 0.0
In52 In 0.02325 0.77355 0.14273 0.0
O53 O 0.01853 0.75234 0.11586 0.0
O54 O 0.02438 0.74228 0.14331 0.0
C55 C 0.02108 0.80044 0.11776 0.0
C56 C 0.99491 0.77448 0.16597 0.0
C57 C 0.05674 0.77975 0.16416 0.0
O58 O 0.00671 0.78985 0.12203 0.0
O59 O 0.03644 0.79724 0.1258 0.0
O60 O 0.04166 0.78298 0.171 0.0
O61 O 0.05492 0.77371 0.14654 0.0
C62 C 0.02104 0.73843 0.1253 0.0
O63 O 0.00696 0.78873 0.16433 0.0
O64 O 0.99704 0.75984 0.15574 0.0
In65 In 0.51525 0.75241 0.38883 0.0
O66 O 0.52799 0.74742 0.36024 0.0
O67 O 0.54542 0.76398 0.38308 0.0
C68 C 0.47889 0.74384 0.37437 0.0
C69 C 0.52436 0.7235 0.40862 0.0
C70 C 0.51385 0.78743 0.40489 0.0
O71 O 0.49234 0.7469 0.36385 0.0
O72 O 0.48376 0.74476 0.39225 0.0
O73 O 0.51456 0.77355 0.4149 0.0
O74 O 0.51403 0.78364 0.3869 0.0
C75 C 0.54386 0.75686 0.36579 0.0
O76 O 0.52606 0.74014 0.41632 0.0
O77 O 0.51797 0.72146 0.39111 0.0
In78 In 0.52432 0.27247 0.65021 0.0
O79 O 0.52446 0.25193 0.62331 0.0
O80 O 0.52044 0.2406 0.6503 0.0
C81 C 0.52298 0.30468 0.63294 0.0
C82 C 0.49288 0.27006 0.66925 0.0
C83 C 0.55941 0.27864 0.66826 0.0
O84 O 0.51967 0.2887 0.62351 0.0
O85 O 0.52701 0.3043 0.65086 0.0
O86 O 0.54492 0.27995 0.67711 0.0
O87 O 0.55622 0.27435 0.65029 0.0
C88 C 0.52198 0.23738 0.63248 0.0
O89 O 0.50857 0.26744 0.67705 0.0
O90 O 0.49297 0.27365 0.65175 0.0
In91 In 0.0193 0.24981 0.89013 0.0
O92 O 0.0313 0.23706 0.91694 0.0
O93 O 0.01318 0.21898 0.8959 0.0
C94 C 0.01984 0.28174 0.91332 0.0
C95 C 0.04568 0.25187 0.86429 0.0
C96 C 0.98563 0.24587 0.86933 0.0
O97 O 0.00488 0.27217 0.90531 0.0
O98 O 0.03469 0.27509 0.90988 0.0
O99 O 0.00088 0.2516 0.86229 0.0
O100 O 0.9874 0.24219 0.88678 0.0
C101 C 0.02299 0.22061 0.91185 0.0
O102 O 0.0374 0.23642 0.86902 0.0
O103 O 0.04083 0.2663 0.87276 0.0
In104 In 0.39898 0.02673 0.27342 0.0
O105 O 0.4249 0.03155 0.25633 0.0
O106 O 0.40209 0.01088 0.24448 0.0
C107 C 0.42019 0.039 0.30673 0.0
C108 C 0.37773 0.05246 0.26104 0.0
C109 C 0.3814 0.99388 0.28426 0.0
O110 O 0.42719 0.03638 0.29083 0.0
O111 O 0.40241 0.03572 0.3058 0.0
O112 O 0.37337 0.00829 0.28312 0.0
O113 O 0.39829 0.99609 0.28008 0.0
C114 C 0.41846 0.0192 0.24276 0.0
O115 O 0.37416 0.0352 0.25541 0.0
O116 O 0.39213 0.05685 0.27281 0.0
In117 In 0.26877 0.13636 0.50306 0.0
O118 O 0.2655 0.16296 0.52192 0.0
O119 O 0.27293 0.13949 0.53596 0.0
C120 C 0.27277 0.15393 0.47019 0.0
C121 C 0.2986 0.1177 0.50759 0.0
C122 C 0.23353 0.11692 0.499 0.0
O123 O 0.27824 0.16209 0.48673 0.0
O124 O 0.26538 0.13695 0.47024 0.0
O125 O 0.2475 0.10998 0.49327 0.0
O126 O 0.23731 0.13372 0.50634 0.0
C127 C 0.26925 0.15612 0.53771 0.0
O128 O 0.28193 0.11017 0.50923 0.0
O129 O 0.30024 0.13464 0.50352 0.0
In130 In 0.148 0.01498 0.78826 0.0
O131 O 0.12115 0.00999 0.7677 0.0
O132 O 0.14748 0.01511 0.75555 0.0
C133 C 0.12893 0.01282 0.82032 0.0
C134 C 0.16502 0.9841 0.78368 0.0
C135 C 0.16725 0.05039 0.79288 0.0
O136 O 0.12202 0.01761 0.80458 0.0
O137 O 0.14555 0.00922 0.82 0.0
O138 O 0.17401 0.0366 0.79929 0.0
O139 O 0.15083 0.04633 0.78468 0.0
C140 C 0.12977 0.01188 0.75262 0.0
O141 O 0.17386 0.0006 0.78396 0.0
O142 O 0.14769 0.98321 0.78602 0.0
In143 In 0.25713 0.8823 0.01335 0.0
O144 O 0.24767 0.85746 0.03077 0.0
O145 O 0.27098 0.87747 0.04275 0.0
C146 C 0.24482 0.86383 0.97858 0.0
C147 C 0.23371 0.90643 0.02478 0.0
C148 C 0.29204 0.89599 0.00443 0.0
O149 O 0.24868 0.85544 0.99334 0.0
O150 O 0.2468 0.88155 0.98145 0.0
O151 O 0.27919 0.90613 0.00576 0.0
O152 O 0.28726 0.879 0.00756 0.0
C153 C 0.26022 0.86236 0.04455 0.0
O154 O 0.25136 0.91005 0.0281 0.0
O155 O 0.22782 0.89057 0.01578 0.0
In156 In 0.26491 0.38842 0.0337 0.0
O157 O 0.255 0.36082 0.04659 0.0
O158 O 0.26385 0.38512 0.06608 0.0
C159 C 0.26549 0.37285 0.99724 0.0
C160 C 0.2354 0.40755 0.02959 0.0
C161 C 0.30083 0.4057 0.04157 0.0
O162 O 0.26691 0.36357 0.01186 0.0
O163 O 0.26377 0.38989 0.00104 0.0
O164 O 0.28686 0.41385 0.04488 0.0
O165 O 0.29666 0.38877 0.03474 0.0
C166 C 0.25759 0.36773 0.06394 0.0
O167 O 0.25228 0.4155 0.03045 0.0
O168 O 0.23343 0.39002 0.0311 0.0
In169 In 0.78779 0.12985 0.02111 0.0
O170 O 0.79867 0.10194 0.02529 0.0
O171 O 0.81383 0.12093 0.00814 0.0
C172 C 0.75188 0.11537 0.02578 0.0
C173 C 0.80015 0.15263 0.05361 0.0
C174 C 0.78392 0.14837 0.98906 0.0
O175 O 0.76287 0.10611 0.01712 0.0
O176 O 0.75897 0.13198 0.03201 0.0
O177 O 0.79781 0.1525 0.00154 0.0
O178 O 0.77225 0.13435 0.99232 0.0
C179 C 0.81239 0.1052 0.01517 0.0
O180 O 0.79652 0.15868 0.03745 0.0
O181 O 0.79774 0.13491 0.05351 0.0
In182 In 0.14371 0.49696 0.26446 0.0
O183 O 0.17112 0.48456 0.268 0.0
O184 O 0.14603 0.46803 0.27502 0.0
C185 C 0.16122 0.53251 0.2626 0.0
C186 C 0.12751 0.48399 0.22881 0.0
C187 C 0.12133 0.50438 0.29267 0.0
O188 O 0.16963 0.51984 0.26928 0.0
O189 O 0.14414 0.52722 0.25685 0.0
O190 O 0.1159 0.50313 0.27493 0.0
O191 O 0.13814 0.50171 0.29634 0.0
C192 C 0.1636 0.46938 0.27401 0.0
O193 O 0.11973 0.48048 0.24406 0.0
O194 O 0.14381 0.49339 0.23156 0.0
In195 In 0.76592 0.89155 0.53544 0.0
O196 O 0.75503 0.86443 0.54849 0.0
O197 O 0.7643 0.88871 0.56793 0.0
C198 C 0.76996 0.87222 0.50155 0.0
C199 C 0.73579 0.90922 0.52759 0.0
C200 C 0.80031 0.91147 0.54637 0.0
O201 O 0.76904 0.86469 0.51732 0.0
O202 O 0.76894 0.88962 0.50281 0.0
O203 O 0.78526 0.91811 0.54869 0.0
O204 O 0.79799 0.8947 0.5389 0.0
C205 C 0.75756 0.87142 0.56581 0.0
O206 O 0.75245 0.91676 0.52596 0.0
O207 O 0.73434 0.89283 0.53312 0.0
In208 In 0.89377 0.02429 0.25633 0.0
O209 O 0.91665 0.04146 0.24072 0.0
O210 O 0.90258 0.0158 0.22644 0.0
C211 C 0.91231 0.02118 0.29084 0.0
C212 C 0.87327 0.05285 0.26039 0.0
C213 C 0.87341 0.98964 0.25061 0.0
O214 O 0.92074 0.02517 0.27605 0.0
O215 O 0.89456 0.01886 0.28825 0.0
O216 O 0.86616 0.0044 0.2483 0.0
O217 O 0.89087 0.99241 0.25567 0.0
C218 C 0.91511 0.02985 0.22604 0.0
O219 O 0.86793 0.03847 0.24878 0.0
O220 O 0.88899 0.05295 0.26966 0.0
In221 In 0.28538 0.63269 0.52527 0.0
O222 O 0.30038 0.60688 0.52819 0.0
O223 O 0.3073 0.62402 0.50553 0.0
C224 C 0.24978 0.61721 0.52994 0.0
C225 C 0.30023 0.65174 0.55919 0.0
C226 C 0.27779 0.65539 0.49749 0.0
O227 O 0.26149 0.60786 0.52265 0.0
O228 O 0.25606 0.6343 0.53493 0.0
O229 O 0.28968 0.66066 0.51178 0.0
O230 O 0.26995 0.63847 0.49694 0.0
C231 C 0.30998 0.60963 0.51397 0.0
O232 O 0.30341 0.65768 0.54299 0.0
O233 O 0.29002 0.63588 0.55832 0.0
In234 In 0.39706 0.52099 0.75657 0.0
O235 O 0.37034 0.53362 0.76226 0.0
O236 O 0.39509 0.55246 0.75875 0.0
C237 C 0.3729 0.48832 0.75376 0.0
C238 C 0.41635 0.52459 0.72472 0.0
C239 C 0.42083 0.51923 0.78808 0.0
O240 O 0.37814 0.49803 0.76957 0.0
O241 O 0.37976 0.49513 0.73913 0.0
O242 O 0.41637 0.50566 0.77525 0.0
O243 O 0.41363 0.5338 0.7848 0.0
C244 C 0.37793 0.55048 0.76194 0.0
O245 O 0.42418 0.52267 0.74113 0.0
O246 O 0.39879 0.52455 0.72433 0.0
In247 In 0.64275 0.99843 0.75812 0.0
O248 O 0.66956 0.98488 0.75787 0.0
O249 O 0.6461 0.97044 0.77031 0.0
C250 C 0.66255 0.03219 0.75261 0.0
C251 C 0.62064 0.98238 0.72645 0.0
C252 C 0.62386 0.00946 0.78811 0.0
O253 O 0.66887 0.02091 0.76356 0.0
O254 O 0.64639 0.02636 0.7443 0.0
O255 O 0.61888 0.01159 0.77077 0.0
O256 O 0.63852 0.00187 0.79045 0.0
C257 C 0.66297 0.97076 0.76633 0.0
O258 O 0.61508 0.98292 0.74322 0.0
O259 O 0.63764 0.98943 0.72566 0.0
In260 In 0.77347 0.64028 0.00418 0.0
O261 O 0.78541 0.61342 0.01036 0.0
O262 O 0.80447 0.63688 0.00343 0.0
C263 C 0.73744 0.62289 0.00126 0.0
C264 C 0.77645 0.6605 0.03886 0.0
C265 C 0.77741 0.65689 0.97075 0.0
O266 O 0.75083 0.61469 0.99606 0.0
O267 O 0.74219 0.63988 0.00768 0.0
O268 O 0.7832 0.66539 0.98707 0.0
O269 O 0.7698 0.64004 0.97131 0.0
C270 C 0.80219 0.62008 0.00797 0.0
O271 O 0.77211 0.66736 0.02323 0.0
O272 O 0.77935 0.64362 0.03691 0.0
In273 In 0.89718 0.52986 0.76558 0.0
O274 O 0.87274 0.53813 0.74678 0.0
O275 O 0.88802 0.55898 0.76742 0.0
C276 C 0.87985 0.4954 0.77229 0.0
C277 C 0.91991 0.52777 0.73656 0.0
C278 C 0.91572 0.53895 0.80093 0.0
O279 O 0.87108 0.50927 0.77076 0.0
O280 O 0.89724 0.49887 0.77019 0.0
O281 O 0.92409 0.53723 0.78575 0.0
O282 O 0.89797 0.53655 0.79824 0.0
C283 C 0.87468 0.55484 0.75432 0.0
O284 O 0.92211 0.54146 0.74933 0.0
O285 O 0.90597 0.51535 0.73814 0.0
In286 In 0.75311 0.38629 0.50701 0.0
O287 O 0.7481 0.36022 0.52374 0.0
O288 O 0.75829 0.38661 0.53963 0.0
C289 C 0.74515 0.36245 0.47457 0.0
C290 C 0.72764 0.40962 0.51342 0.0
C291 C 0.78839 0.40372 0.50361 0.0
O292 O 0.75824 0.36137 0.48725 0.0
O293 O 0.73575 0.3756 0.47819 0.0
O294 O 0.77424 0.40783 0.49394 0.0
O295 O 0.78467 0.39112 0.51498 0.0
C296 C 0.75345 0.36907 0.54002 0.0
O297 O 0.7434 0.41513 0.50728 0.0
O298 O 0.72454 0.39226 0.51583 0.0
In299 In 0.64995 0.51662 0.28801 0.0
O300 O 0.67617 0.50285 0.28316 0.0
O301 O 0.64975 0.48511 0.28105 0.0
C302 C 0.6681 0.55224 0.29572 0.0
C303 C 0.6318 0.52005 0.25334 0.0
C304 C 0.63209 0.50875 0.32003 0.0
O305 O 0.67646 0.53804 0.29691 0.0
O306 O 0.6506 0.54841 0.2912 0.0
O307 O 0.62379 0.50662 0.30324 0.0
O308 O 0.64949 0.5148 0.32075 0.0
C309 C 0.66728 0.48637 0.27987 0.0
O310 O 0.6235 0.51924 0.26869 0.0
O311 O 0.64917 0.51904 0.25549 0.0
Zn312 Zn 0.05281 0.01829 0.04043 0.0
Zn313 Zn 0.0132 0.01714 0.02254 0.0
C314 C 0.04401 0.98399 0.05722 0.0
O315 O 0.05196 0.99521 0.07226 0.0
C316 C 0.01525 0.04845 0.0021 0.0
O317 O 0.00712 0.03441 0.98976 0.0
O318 O 0.08011 0.01908 0.0499 0.0
O319 O 0.05187 0.02499 0.01284 0.0
O320 O 0.02746 0.00339 0.0034 0.0
C321 C 0.09369 0.0242 0.03982 0.0
O322 O 0.09022 0.03172 0.02352 0.0
O323 O 0.04242 0.99066 0.04084 0.0
C324 C 0.97648 0.022 0.02665 0.0
O325 O 0.98627 0.03214 0.04147 0.0
O326 O 0.98512 0.01265 0.01489 0.0
O327 O 0.0151 0.01189 0.05059 0.0
O328 O 0.03979 0.03307 0.05988 0.0
O329 O 0.02033 0.0449 0.0192 0.0
C330 C 0.04267 0.01334 -0.0003 0.0
C331 C 0.02426 0.02375 0.06353 0.0
Zn332 Zn 0.2559 0.76303 0.30026 0.0
Zn333 Zn 0.27223 0.77152 0.26232 0.0
C334 C 0.23208 0.72887 0.28641 0.0
O335 O 0.21925 0.7388 0.29222 0.0
C336 C 0.29644 0.80433 0.27634 0.0
O337 O 0.30795 0.79384 0.26861 0.0
O338 O 0.248 0.76078 0.32711 0.0
O339 O 0.28424 0.76894 0.30305 0.0
O340 O 0.28876 0.75485 0.27493 0.0
C341 C 0.25767 0.7692 0.34207 0.0
O342 O 0.27252 0.7816 0.33996 0.0
O343 O 0.24924 0.73649 0.28788 0.0
C344 C 0.26833 0.78688 0.22781 0.0
O345 O 0.25772 0.79528 0.23921 0.0
O346 O 0.27781 0.77488 0.23468 0.0
O347 O 0.24439 0.76324 0.25994 0.0
O348 O 0.23972 0.77959 0.28649 0.0
O349 O 0.27908 0.7976 0.27604 0.0
C350 C 0.29418 0.75968 0.29265 0.0
C351 C 0.23418 0.77306 0.26924 0.0
Zn352 Zn 0.49713 0.01504 0.52556 0.0
Zn353 Zn 0.53523 0.00818 0.51424 0.0
C354 C 0.50907 0.04558 0.55345 0.0
O355 O 0.4993 0.03354 0.56357 0.0
C356 C 0.52331 0.97779 0.4863 0.0
O357 O 0.53244 0.9902 0.47607 0.0
O358 O 0.47009 0.01846 0.52877 0.0
O359 O 0.49823 0.01165 0.49686 0.0
O360 O 0.52678 0.02725 0.49685 0.0
C361 C 0.46646 0.03323 0.52112 0.0
O362 O 0.47968 0.04295 0.51231 0.0
O363 O 0.51145 0.04053 0.536 0.0
C364 C 0.56671 0.99104 0.51934 0.0
O365 O 0.55401 0.98132 0.52878 0.0
O366 O 0.56239 0.00534 0.51126 0.0
O367 O 0.53357 0.01204 0.54304 0.0
O368 O 0.50543 0.9953 0.54216 0.0
O369 O 0.52145 0.98246 0.50397 0.0
C370 C 0.51011 0.02272 0.48888 0.0
C371 C 0.52165 0.00086 0.55086 0.0
Zn372 Zn 0.28353 0.26651 0.76448 0.0
Zn373 Zn 0.24387 0.27404 0.76444 0.0
C374 C 0.27823 0.24265 0.73064 0.0
O375 O 0.28676 0.2331 0.74308 0.0
C376 C 0.24787 0.29815 0.79887 0.0
O377 O 0.24033 0.30861 0.78663 0.0
O378 O 0.31144 0.26571 0.76496 0.0
O379 O 0.28146 0.29357 0.77169 0.0
O380 O 0.25845 0.29342 0.74917 0.0
C381 C 0.31898 0.27667 0.75321 0.0
O382 O 0.30836 0.28693 0.74369 0.0
O383 O 0.27444 0.25878 0.73638 0.0
C384 C 0.2037 0.26341 0.75345 0.0
O385 O 0.20885 0.24851 0.74447 0.0
O386 O 0.21629 0.27641 0.76151 0.0
O387 O 0.24558 0.24631 0.76019 0.0
O388 O 0.27082 0.24675 0.78019 0.0
O389 O 0.25109 0.28193 0.79274 0.0
C390 C 0.27282 0.3022 0.75942 0.0
C391 C 0.25532 0.23805 0.77196 0.0
Zn392 Zn 0.01911 0.99749 0.52567 0.0
Zn393 Zn 0.01073 0.03724 0.52182 0.0
C394 C 0.04457 0.00413 0.55841 0.0
O395 O 0.05412 0.99631 0.54545 0.0
C396 C 0.98829 0.03297 0.48705 0.0
O397 O 0.97936 0.04351 0.49831 0.0
O398 O 0.0211 0.96985 0.52595 0.0
O399 O 0.99148 0.9987 0.52047 0.0
O400 O 0.99125 0.02518 0.53831 0.0
C401 C 0.01248 0.96275 0.53964 0.0
O402 O 0.00269 0.97327 0.54992 0.0
O403 O 0.028 0.00717 0.55337 0.0
C404 C 0.02236 0.07294 0.51089 0.0
O405 O 0.03385 0.06256 0.50302 0.0
O406 O 0.01005 0.06523 0.52124 0.0
O407 O 0.03795 0.03523 0.52849 0.0
O408 O 0.03794 0.01006 0.5087 0.0
O409 O 0.00298 0.02715 0.49412 0.0
C410 C 0.98315 0.00883 0.53175 0.0
C411 C 0.04644 0.02567 0.51685 0.0
Zn412 Zn 0.26026 0.78167 0.75252 0.0
Zn413 Zn 0.27194 0.74664 0.76989 0.0
C414 C 0.22919 0.76273 0.7279 0.0
O415 O 0.23955 0.77086 0.71517 0.0
C416 C 0.30344 0.76371 0.7947 0.0
O417 O 0.29221 0.75666 0.80728 0.0
O418 O 0.25448 0.80746 0.74655 0.0
O419 O 0.2658 0.78473 0.78129 0.0
O420 O 0.25321 0.7562 0.78692 0.0
C421 C 0.23944 0.81072 0.7539 0.0
O422 O 0.23024 0.79759 0.76324 0.0
O423 O 0.23563 0.76434 0.74555 0.0
C424 C 0.29146 0.71647 0.76891 0.0
O425 O 0.3006 0.72849 0.75829 0.0
O426 O 0.27675 0.72069 0.77624 0.0
O427 O 0.26658 0.74422 0.74104 0.0
O428 O 0.27982 0.77273 0.73616 0.0
O429 O 0.29729 0.76258 0.77698 0.0
C430 C 0.25655 0.77379 0.79188 0.0
C431 C 0.27669 0.75514 0.73109 0.0
Zn432 Zn 0.52237 0.02357 0.99308 0.0
Zn433 Zn 0.51413 0.00642 0.03056 0.0
C434 C 0.5546 0.04905 0.0103 0.0
O435 O 0.54427 0.06165 0.00475 0.0
C436 C 0.48411 0.97824 0.01554 0.0
O437 O 0.49574 0.96806 0.02373 0.0
O438 O 0.52583 0.03171 0.96643 0.0
O439 O 0.51767 0.9953 0.99032 0.0
O440 O 0.53364 0.99317 0.01799 0.0
C441 C 0.51795 0.0219 0.95131 0.0
O442 O 0.50578 0.0068 0.95312 0.0
O443 O 0.54782 0.03167 0.00751 0.0
C444 C 0.49595 0.0007 0.06412 0.0
O445 O 0.4831 0.00687 0.05287 0.0
O446 O 0.51182 -0.00104 0.05781 0.0
O447 O 0.51698 0.03464 0.03374 0.0
O448 O 0.50338 0.03776 0.00507 0.0
O449 O 0.48896 0.99599 0.01602 0.0
C450 C 0.5277 0.98625 0.00092 0.0
C451 C 0.50705 0.0435 0.02284 0.0
Zn452 Zn 0.2689 0.23645 0.24913 0.0
Zn453 Zn 0.26008 0.27142 0.2745 0.0
C454 C 0.29879 0.25342 0.22985 0.0
O455 O 0.28621 0.24672 0.21543 0.0
C456 C 0.23038 0.25329 0.29395 0.0
O457 O 0.24322 0.2588 0.30845 0.0
O458 O 0.27114 0.211 0.23621 0.0
O459 O 0.26555 0.23196 0.27694 0.0
O460 O 0.27941 0.25964 0.29008 0.0
C461 C 0.26356 0.19578 0.24241 0.0
O462 O 0.25188 0.19661 0.25601 0.0
O463 O 0.29453 0.25137 0.24708 0.0
C464 C 0.24241 0.3027 0.28164 0.0
O465 O 0.23018 0.29161 0.26939 0.0
O466 O 0.25796 0.29729 0.28684 0.0
O467 O 0.26363 0.27609 0.24682 0.0
O468 O 0.24976 0.24846 0.23355 0.0
O469 O 0.23447 0.25622 0.27683 0.0
C470 C 0.27493 0.24202 0.29117 0.0
C471 C 0.25405 0.26612 0.23267 0.0
Zn472 Zn 0.52668 0.49713 0.02586 0.0
Zn473 Zn 0.51182 0.53429 0.01954 0.0
C474 C 0.55039 0.5087 0.05954 0.0
O475 O 0.56204 0.50275 0.0476 0.0
C476 C 0.49018 0.52158 0.98412 0.0
O477 O 0.47682 0.52567 0.9949 0.0
O478 O 0.53428 0.47142 0.02663 0.0
O479 O 0.49859 0.49304 0.02003 0.0
O480 O 0.49339 0.51946 0.03528 0.0
C481 C 0.52505 0.4565 0.01774 0.0
O482 O 0.51046 0.45775 0.00563 0.0
O483 O 0.53321 0.50822 0.05345 0.0
C484 C 0.51785 0.57088 0.00915 0.0
O485 O 0.53107 0.56298 0.00113 0.0
O486 O 0.50635 0.56098 0.01875 0.0
O487 O 0.53958 0.53709 0.02751 0.0
O488 O 0.54344 0.51226 0.00889 0.0
O489 O 0.50703 0.52354 0.99172 0.0
C490 C 0.48792 0.50223 0.02948 0.0
C491 C 0.54969 0.52877 0.01651 0.0
Zn492 Zn 0.76088 0.28527 0.24603 0.0
Zn493 Zn 0.77072 0.24995 0.26419 0.0
C494 C 0.73026 0.26665 0.22043 0.0
O495 O 0.74118 0.27447 0.20798 0.0
C496 C 0.80119 0.26826 0.29096 0.0
O497 O 0.78924 0.26253 0.30347 0.0
O498 O 0.7562 0.31116 0.23926 0.0
O499 O 0.76535 0.28837 0.27492 0.0
O500 O 0.75088 0.2602 0.27919 0.0
C501 C 0.74083 0.31519 0.24523 0.0
O502 O 0.7304 0.30269 0.25428 0.0
O503 O 0.73615 0.26837 0.23825 0.0
C504 C 0.78938 0.21894 0.26773 0.0
O505 O 0.80155 0.23074 0.25974 0.0
O506 O 0.77358 0.22374 0.27143 0.0
O507 O 0.76774 0.24716 0.23523 0.0
O508 O 0.7808 0.27586 0.23058 0.0
O509 O 0.79606 0.26549 0.27296 0.0
C510 C 0.75534 0.27753 0.28501 0.0
C511 C 0.778 0.25826 0.22558 0.0
Zn512 Zn 0.01886 0.5262 0.49338 0.0
Zn513 Zn 0.01447 0.51029 0.53186 0.0
C514 C 0.05245 0.55102 0.50809 0.0
O515 O 0.04229 0.56379 0.50259 0.0
C516 C 0.98174 0.48396 0.52213 0.0
O517 O 0.993 0.47336 0.53022 0.0
O518 O 0.02049 0.534 0.46638 0.0
O519 O 0.01357 0.49805 0.49061 0.0
O520 O 0.03111 0.49505 0.51711 0.0
C521 C 0.01152 0.52386 0.45199 0.0
O522 O -0.00069 0.50919 0.45506 0.0
O523 O 0.04517 0.53375 0.50604 0.0
C524 C 0.02484 0.51397 0.57292 0.0
O525 O 0.03695 0.52818 0.56853 0.0
O526 O 0.0148 0.50354 0.55936 0.0
O527 O 0.0183 0.53864 0.53397 0.0
O528 O 0.00114 0.54069 0.507 0.0
O529 O 0.98789 0.50123 0.52077 0.0
C530 C 0.02429 0.48877 0.50009 0.0
C531 C 0.0069 0.54703 0.52425 0.0
Zn532 Zn 0.78914 0.76702 0.26744 0.0
Zn533 Zn 0.7499 0.77703 0.27182 0.0
C534 C 0.78405 0.7434 0.23369 0.0
O535 O 0.79121 0.73329 0.24655 0.0
C536 C 0.75494 0.77544 0.31324 0.0
O537 O 0.74153 0.76087 0.30973 0.0
O538 O 0.81691 0.76488 0.26865 0.0
O539 O 0.78816 0.79467 0.27406 0.0
O540 O 0.76271 0.79554 0.25498 0.0
C541 C 0.82626 0.77745 0.25979 0.0
O542 O 0.81744 0.78997 0.25161 0.0
O543 O 0.78073 0.75975 0.23925 0.0
C544 C 0.70903 0.77117 0.26396 0.0
O545 O 0.7118 0.75765 0.25122 0.0
O546 O 0.72314 0.78143 0.27328 0.0
O547 O 0.74908 0.74932 0.26519 0.0
O548 O 0.77533 0.74729 0.2827 0.0
O549 O 0.76123 0.78401 0.29919 0.0
C550 C 0.77866 0.80353 0.26271 0.0
C551 C 0.75889 0.73992 0.27562 0.0
Zn552 Zn 0.76407 0.25915 0.79076 0.0
Zn553 Zn 0.78 0.27145 0.75379 0.0
C554 C 0.73929 0.22622 0.77441 0.0
O555 O 0.72654 0.23624 0.78027 0.0
C556 C 0.80408 0.30339 0.77118 0.0
O557 O 0.81594 0.29391 0.76264 0.0
O558 O 0.75685 0.25542 0.81764 0.0
O559 O 0.79252 0.26431 0.79298 0.0
O560 O 0.79664 0.25352 0.76336 0.0
C561 C 0.76709 0.26319 0.83255 0.0
O562 O 0.78186 0.27566 0.83039 0.0
O563 O 0.75659 0.23336 0.7768 0.0
C564 C 0.77804 0.29264 0.7228 0.0
O565 O 0.76914 0.30106 0.73594 0.0
O566 O 0.78524 0.27811 0.7269 0.0
O567 O 0.7523 0.26312 0.75092 0.0
O568 O 0.74798 0.27702 0.77895 0.0
O569 O 0.78684 0.29609 0.77046 0.0
C570 C 0.80239 0.25655 0.78119 0.0
C571 C 0.74237 0.27227 0.7613 0.0
Zn572 Zn 0.76459 0.73772 0.749 0.0
Zn573 Zn 0.75803 0.77306 0.77446 0.0
C574 C 0.79482 0.75411 0.72962 0.0
O575 O 0.78225 0.74768 0.71511 0.0
C576 C 0.72891 0.75732 0.79551 0.0
O577 O 0.74234 0.76383 0.80919 0.0
O578 O 0.76623 0.71226 0.73574 0.0
O579 O 0.76164 0.73336 0.77694 0.0
O580 O 0.77725 0.76061 0.78935 0.0
C581 C 0.75901 0.69694 0.74202 0.0
O582 O 0.74805 0.69758 0.75628 0.0
O583 O 0.7904 0.75214 0.74681 0.0
C584 C 0.74162 0.80507 0.78199 0.0
O585 O 0.72863 0.79399 0.77057 0.0
O586 O 0.75714 0.79932 0.7866 0.0
O587 O 0.76083 0.77746 0.74665 0.0
O588 O 0.74567 0.75025 0.73367 0.0
O589 O 0.73235 0.7586 0.77793 0.0
C590 C 0.77197 0.74316 0.79074 0.0
C591 C 0.75053 0.76784 0.73277 0.0
Zn592 Zn 0.54471 0.51519 0.53599 0.0
Zn593 Zn 0.50862 0.52115 0.50949 0.0
C594 C 0.53195 0.48597 0.55805 0.0
O595 O 0.53831 0.49993 0.57121 0.0
C596 C 0.52675 0.5498 0.48856 0.0
O597 O 0.52089 0.53644 0.47463 0.0
O598 O 0.57089 0.51579 0.5484 0.0
O599 O 0.54839 0.51688 0.50774 0.0
O600 O 0.52106 0.50131 0.49554 0.0
C601 C 0.58536 0.52415 0.54146 0.0
O602 O 0.5831 0.53541 0.5277 0.0
O603 O 0.53228 0.48902 0.54028 0.0
C604 C 0.47626 0.5362 0.4937 0.0
O605 O 0.48767 0.55217 0.49779 0.0
O606 O 0.48221 0.52077 0.4968 0.0
O607 O 0.50407 0.51898 0.53742 0.0
O608 O 0.53136 0.53369 0.55087 0.0
O609 O 0.52364 0.54657 0.50588 0.0
C610 C 0.53861 0.50606 0.49431 0.0
C611 C 0.51378 0.52871 0.55164 0.0
Zn612 Zn 0.99802 0.51396 0.02532 0.0
Zn613 Zn 0.03514 0.50602 0.00982 0.0
C614 C 0.01148 0.54622 0.04993 0.0
O615 O 0.00379 0.53454 0.06179 0.0
C616 C 0.02301 0.4733 0.98562 0.0
O617 O 0.03093 0.48492 0.97382 0.0
O618 O 0.97127 0.51738 0.03029 0.0
O619 O 0.99666 0.50749 0.99657 0.0
O620 O 0.02429 0.52291 0.99156 0.0
C621 C 0.96672 0.53095 0.02107 0.0
O622 O 0.97886 0.53925 0.01001 0.0
O623 O 0.01205 0.5403 0.03232 0.0
C624 C 0.06706 0.48979 0.01412 0.0
O625 O 0.05511 0.48075 0.02487 0.0
O626 O 0.06209 0.50337 0.00521 0.0
O627 O 0.03614 0.51287 0.0383 0.0
O628 O 0.00898 0.49668 0.0434 0.0
O629 O 0.02158 0.47951 0.00296 0.0
C630 C 0.00702 0.51745 0.98599 0.0
C631 C 0.02627 0.50234 0.04878 0.0
C632 C 0.03444 0.20666 0.94184 0.0
C633 C 0.02391 0.20453 0.92374 0.0
C634 C 0.03437 0.19139 0.95327 0.0
C635 C 0.00543 0.14621 0.96014 0.0
H636 H 0.05134 0.13166 0.98328 0.0
C637 C 0.00927 0.07111 0.97787 0.0
C638 C 0.01755 0.06785 0.99602 0.0
C639 C 0.01062 0.08926 0.97194 0.0
C640 C 0.03839 0.13578 0.97719 0.0
H641 H 0.00549 0.18472 0.90323 0.0
H642 H 0.00547 0.15824 0.92299 0.0
H643 H 0.05279 0.1611 0.96729 0.0
H644 H 0.03416 0.08108 0.02201 0.0
H645 H 0.03672 0.11316 0.01136 0.0
H646 H 0.99109 0.12072 0.96937 0.0
C647 C 0.01352 0.1717 0.92854 0.0
C648 C 0.03921 0.15257 0.96805 0.0
C649 C 0.01364 0.18685 0.91715 0.0
C650 C 0.02757 0.08319 0.00798 0.0
C651 C 0.02908 0.10148 0.0019 0.0
C652 C 0.00462 0.12951 0.96919 0.0
C653 C 0.02367 0.17383 0.94682 0.0
C654 C 0.02279 0.15761 0.95889 0.0
C655 C 0.02037 0.10466 0.98391 0.0
C656 C 0.02115 0.12382 0.97725 0.0
H657 H 0.0425 0.22015 0.94725 0.0
H658 H 0.04233 0.19341 0.96731 0.0
H659 H 0.99247 0.14997 0.95364 0.0
H660 H 0.00151 0.05964 0.96823 0.0
H661 H 0.00405 0.09126 0.95785 0.0
C662 C 0.09083 0.77666 0.16767 0.0
C663 C 0.07489 0.78175 0.17599 0.0
C664 C 0.10767 0.77701 0.17904 0.0
C665 C 0.13459 0.79617 0.22483 0.0
H666 H 0.15926 0.75206 0.21665 0.0
C667 C 0.2022 0.7832 0.27068 0.0
C668 C 0.21577 0.77592 0.25999 0.0
C669 C 0.18448 0.78478 0.26167 0.0
C670 C 0.15264 0.76454 0.21901 0.0
H671 H 0.06423 0.79186 0.20258 0.0
H672 H 0.09387 0.79248 0.22254 0.0
H673 H 0.12944 0.75359 0.19843 0.0
H674 H 0.22175 0.76543 0.23135 0.0
H675 H 0.19121 0.7684 0.21576 0.0
H676 H 0.15808 0.80719 0.24531 0.0
C677 C 0.09325 0.78825 0.2072 0.0
C678 C 0.13556 0.76541 0.20857 0.0
C679 C 0.07631 0.78783 0.1958 0.0
C680 C 0.21152 0.77081 0.24009 0.0
C681 C 0.19397 0.77244 0.23114 0.0
C682 C 0.15181 0.79533 0.23529 0.0
C683 C 0.10897 0.78247 0.19897 0.0
C684 C 0.12653 0.78136 0.21109 0.0
C685 C 0.18012 0.77911 0.24185 0.0
C686 C 0.16116 0.77964 0.23218 0.0
H687 H 0.0902 0.77203 0.15242 0.0
H688 H 0.11967 0.7728 0.17224 0.0
H689 H 0.1279 0.80864 0.22704 0.0
H690 H 0.2051 0.78728 0.28604 0.0
H691 H 0.17405 0.78996 0.27028 0.0
C692 C 0.51291 0.82161 0.40158 0.0
C693 C 0.5129 0.80664 0.41346 0.0
C694 C 0.51227 0.83986 0.40957 0.0
C695 C 0.49972 0.86705 0.45252 0.0
H696 H 0.53377 0.90761 0.43444 0.0
C697 C 0.5143 0.94329 0.48989 0.0
C698 C 0.51769 0.95813 0.47793 0.0
C699 C 0.51174 0.92454 0.482 0.0
C700 C 0.52394 0.89651 0.43945 0.0
H701 H 0.51193 0.79894 0.44299 0.0
H702 H 0.51091 0.83095 0.45702 0.0
H703 H 0.5334 0.87544 0.42087 0.0
H704 H 0.51977 0.96504 0.44824 0.0
H705 H 0.51484 0.93247 0.43446 0.0
H706 H 0.49029 0.88824 0.47116 0.0
C707 C 0.51128 0.82851 0.4415 0.0
C708 C 0.52377 0.87805 0.43169 0.0
C709 C 0.51199 0.81023 0.43349 0.0
C710 C 0.51742 0.9539 0.45786 0.0
C711 C 0.51472 0.93522 0.44998 0.0
C712 C 0.49983 0.8856 0.46027 0.0
C713 C 0.51157 0.84354 0.42963 0.0
C714 C 0.51164 0.86312 0.43808 0.0
C715 C 0.51242 0.92031 0.462 0.0
C716 C 0.51191 0.90055 0.45376 0.0
H717 H 0.5135 0.81926 0.38608 0.0
H718 H 0.51225 0.85109 0.40002 0.0
H719 H 0.4901 0.85584 0.45761 0.0
H720 H 0.5145 0.94613 0.50544 0.0
H721 H 0.51009 0.9134 0.49169 0.0
C722 C 0.46066 0.27806 0.67276 0.0
C723 C 0.47599 0.26984 0.68004 0.0
C724 C 0.44512 0.27894 0.68349 0.0
C725 C 0.41791 0.25662 0.71933 0.0
H726 H 0.40129 0.30527 0.72801 0.0
C727 C 0.35044 0.26539 0.75777 0.0
C728 C 0.33883 0.277 0.7489 0.0
C729 C 0.36879 0.26506 0.75239 0.0
C730 C 0.40565 0.29155 0.72562 0.0
H731 H 0.48693 0.25562 0.7039 0.0
H732 H 0.45933 0.25671 0.72245 0.0
H733 H 0.42993 0.30297 0.71189 0.0
H734 H 0.33748 0.29762 0.72772 0.0
H735 H 0.36894 0.29672 0.71811 0.0
H736 H 0.39313 0.24499 0.73213 0.0
C737 C 0.45955 0.26265 0.70857 0.0
C738 C 0.42207 0.29028 0.71645 0.0
C739 C 0.47529 0.26207 0.698 0.0
C740 C 0.34604 0.28854 0.73491 0.0
C741 C 0.36422 0.28814 0.72949 0.0
C742 C 0.40127 0.25783 0.72827 0.0
C743 C 0.44448 0.27134 0.70151 0.0
C744 C 0.42812 0.27276 0.71287 0.0
C745 C 0.37581 0.27633 0.73803 0.0
C746 C 0.39471 0.27527 0.73108 0.0
H747 H 0.46085 0.28418 0.65898 0.0
H748 H 0.43354 0.28555 0.67768 0.0
H749 H 0.42234 0.24295 0.71668 0.0
H750 H 0.34527 0.25636 0.76863 0.0
H751 H 0.37742 0.25593 0.75938 0.0
C752 C 0.0182 0.82378 0.62325 0.0
C753 C 0.01801 0.80613 0.61316 0.0
C754 C 0.02101 0.84022 0.61368 0.0
C755 C 0.0165 0.85696 0.56489 0.0
H756 H 0.04133 0.9039 0.59224 0.0
C757 C 0.02261 0.9309 0.53364 0.0
C758 C 0.01513 0.944 0.54571 0.0
C759 C 0.02555 0.91346 0.54013 0.0
C760 C 0.03449 0.89085 0.58439 0.0
H761 H 0.02119 0.7918 0.58532 0.0
H762 H 0.0265 0.82058 0.56865 0.0
H763 H 0.04262 0.87435 0.60702 0.0
H764 H 0.00499 0.94918 0.574 0.0
H765 H 0.01043 0.9191 0.58528 0.0
H766 H 0.00827 0.87373 0.54233 0.0
C767 C 0.02411 0.82171 0.58386 0.0
C768 C 0.03509 0.87395 0.59288 0.0
C769 C 0.02117 0.80524 0.59343 0.0
C770 C 0.01069 0.93939 0.56429 0.0
C771 C 0.01394 0.92223 0.57085 0.0
C772 C 0.0161 0.8739 0.55629 0.0
C773 C 0.02386 0.83939 0.59384 0.0
C774 C 0.02556 0.85688 0.58354 0.0
C775 C 0.02145 0.90915 0.5589 0.0
C776 C 0.02458 0.89101 0.56626 0.0
H777 H 0.01572 0.8249 0.63845 0.0
H778 H 0.02035 0.85353 0.62176 0.0
H779 H 0.00888 0.84411 0.55734 0.0
H780 H 0.02615 0.9341 0.51925 0.0
H781 H 0.03131 0.9035 0.53066 0.0
C782 C 0.46248 0.74814 0.85252 0.0
C783 C 0.47592 0.76448 0.85564 0.0
C784 C 0.44467 0.74883 0.84342 0.0
C785 C 0.41612 0.77816 0.81499 0.0
H786 H 0.37536 0.75226 0.84095 0.0
C787 C 0.33018 0.77182 0.82021 0.0
C788 C 0.32377 0.7691 0.8005 0.0
C789 C 0.34937 0.77339 0.82598 0.0
C790 C 0.38656 0.75976 0.83366 0.0
H791 H 0.48167 0.79411 0.85072 0.0
H792 H 0.45047 0.79538 0.83508 0.0
H793 H 0.40771 0.74979 0.85161 0.0
H794 H 0.33252 0.76706 0.7713 0.0
H795 H 0.36605 0.76954 0.7814 0.0
H796 H 0.39478 0.78848 0.79732 0.0
C797 C 0.45372 0.78199 0.83948 0.0
C798 C 0.40513 0.75807 0.83955 0.0
C799 C 0.47158 0.78128 0.84852 0.0
C800 C 0.33704 0.7692 0.78661 0.0
C801 C 0.35627 0.77063 0.7924 0.0
C802 C 0.39746 0.77987 0.80907 0.0
C803 C 0.43988 0.7659 0.83735 0.0
C804 C 0.42015 0.76723 0.83031 0.0
C805 C 0.36256 0.7721 0.81217 0.0
C806 C 0.38248 0.77076 0.81843 0.0
H807 H 0.46549 0.73496 0.85772 0.0
H808 H 0.43445 0.73608 0.8416 0.0
H809 H 0.42738 0.78533 0.80752 0.0
H810 H 0.32031 0.77201 0.83124 0.0
H811 H 0.35381 0.77501 0.84132 0.0
C812 C 0.48508 0.20153 0.08445 0.0
C813 C 0.48878 0.20351 0.10467 0.0
C814 C 0.4826 0.18374 0.07434 0.0
C815 C 0.47513 0.13227 0.0805 0.0
H816 H 0.50251 0.12945 0.03459 0.0
C817 C 0.50162 0.06507 0.05095 0.0
C818 C 0.50066 0.06087 0.0308 0.0
C819 C 0.49649 0.08185 0.05868 0.0
C820 C 0.4945 0.13001 0.04717 0.0
H821 H 0.49207 0.18844 0.13029 0.0
H822 H 0.48822 0.15739 0.11266 0.0
H823 H 0.50003 0.16008 0.05064 0.0
H824 H 0.49308 0.07073 0.00295 0.0
H825 H 0.48426 0.10027 0.01654 0.0
H826 H 0.47034 0.10207 0.07739 0.0
C827 C 0.48689 0.16951 0.10457 0.0
C828 C 0.49304 0.14758 0.05638 0.0
C829 C 0.48922 0.18731 0.11469 0.0
C830 C 0.49402 0.07361 0.01853 0.0
C831 C 0.48903 0.09051 0.02629 0.0
C832 C 0.4767 0.11469 0.07135 0.0
C833 C 0.48393 0.16755 0.08424 0.0
C834 C 0.48365 0.14893 0.07337 0.0
C835 C 0.49039 0.09486 0.04645 0.0
C836 C 0.48671 0.11339 0.05481 0.0
H837 H 0.4845 0.21378 0.07637 0.0
H838 H 0.47999 0.1827 0.05873 0.0
H839 H 0.4675 0.13281 0.09335 0.0
H840 H 0.50656 0.05548 0.06079 0.0
H841 H 0.49789 0.08491 0.07426 0.0
C842 C 0.0891 0.27136 0.36774 0.0
C843 C 0.07156 0.26057 0.3616 0.0
C844 C 0.10528 0.26781 0.35911 0.0
C845 C 0.12196 0.24423 0.31574 0.0
H846 H 0.16846 0.25033 0.34897 0.0
C847 C 0.20714 0.23857 0.3152 0.0
C848 C 0.21077 0.24722 0.29815 0.0
C849 C 0.18899 0.23617 0.32138 0.0
C850 C 0.1556 0.24817 0.33945 0.0
H851 H 0.05711 0.23771 0.3415 0.0
H852 H 0.08553 0.23115 0.32668 0.0
H853 H 0.13928 0.25406 0.36296 0.0
H854 H 0.19819 0.2592 0.27357 0.0
H855 H 0.16663 0.25575 0.28469 0.0
H856 H 0.13835 0.23788 0.29227 0.0
C857 C 0.08673 0.24259 0.33794 0.0
C858 C 0.13885 0.25068 0.34747 0.0
C859 C 0.07047 0.24628 0.34648 0.0
C860 C 0.19572 0.25237 0.28673 0.0
C861 C 0.17761 0.25033 0.29312 0.0
C862 C 0.13876 0.2415 0.3077 0.0
C863 C 0.10438 0.25322 0.34428 0.0
C864 C 0.12188 0.24915 0.3357 0.0
C865 C 0.17416 0.24282 0.31089 0.0
C866 C 0.15586 0.24373 0.31943 0.0
H867 H 0.09034 0.28258 0.37924 0.0
H868 H 0.11852 0.27661 0.36404 0.0
H869 H 0.10917 0.243 0.30621 0.0
H870 H 0.21849 0.23429 0.32415 0.0
H871 H 0.18678 0.22978 0.33481 0.0
C872 C 0.9263 0.0172 0.19535 0.0
C873 C 0.92782 0.03166 0.21032 0.0
C874 C 0.93918 0.01794 0.18129 0.0
C875 C 0.97315 0.04936 0.15743 0.0
H876 H 0.99195 0.00276 0.14324 0.0
C877 C 0.02327 0.04146 0.09601 0.0
C878 C 0.01693 0.02571 0.08277 0.0
C879 C 0.0151 0.04344 0.11362 0.0
C880 C 0.98685 0.01589 0.14705 0.0
H881 H 0.94368 0.05853 0.22204 0.0
H882 H 0.96624 0.05989 0.1972 0.0
H883 H 0.97188 0.00421 0.16987 0.0
H884 H 0.99747 -0.00053 0.07782 0.0
H885 H 0.98343 0.0029 0.10825 0.0
H886 H 0.98774 0.06081 0.13411 0.0
C887 C 0.95506 0.04798 0.19645 0.0
C888 C 0.97533 0.01671 0.16226 0.0
C889 C 0.94218 0.04719 0.21064 0.0
C890 C 0.00267 0.01182 0.08766 0.0
C891 C 0.9947 0.0137 0.1052 0.0
C892 C 0.98471 0.04853 0.14212 0.0
C893 C 0.95387 0.03318 0.18184 0.0
C894 C 0.96789 0.03326 0.16723 0.0
C895 C 0.0007 0.02956 0.11833 0.0
C896 C 0.99119 0.03159 0.13643 0.0
H897 H 0.91535 0.00509 0.19467 0.0
H898 H 0.93768 0.0065 0.16998 0.0
H899 H 0.96761 0.0623 0.16097 0.0
H900 H 0.03421 0.0524 0.09258 0.0
H901 H 0.02001 0.05579 0.12353 0.0
C902 C 0.25776 0.66281 0.46898 0.0
C903 C 0.27312 0.66822 0.48287 0.0
C904 C 0.25318 0.67513 0.45535 0.0
C905 C 0.26178 0.72543 0.44457 0.0
H906 H 0.24804 0.70426 0.39168 0.0
C907 C 0.268 0.76754 0.37701 0.0
C908 C 0.25458 0.76203 0.36115 0.0
C909 C 0.26716 0.75787 0.39373 0.0
C910 C 0.25151 0.71038 0.40644 0.0
H911 H 0.29573 0.69069 0.49347 0.0
H912 H 0.28815 0.71196 0.46934 0.0
H913 H 0.25301 0.68342 0.41691 0.0
H914 H 0.22875 0.74328 0.35108 0.0
H915 H 0.22727 0.72656 0.38028 0.0
H916 H 0.26096 0.7525 0.43376 0.0
C917 C 0.27932 0.69842 0.46921 0.0
C918 C 0.25437 0.69842 0.42093 0.0
C919 C 0.28379 0.68617 0.48293 0.0
C920 C 0.23946 0.74772 0.36295 0.0
C921 C 0.23864 0.73807 0.37963 0.0
C922 C 0.25904 0.73742 0.43001 0.0
C923 C 0.26398 0.69304 0.45523 0.0
C924 C 0.25975 0.70579 0.44013 0.0
C925 C 0.25288 0.74255 0.39486 0.0
C926 C 0.25406 0.73001 0.41076 0.0
H927 H 0.24917 0.64912 0.46873 0.0
H928 H 0.24111 0.67063 0.44497 0.0
H929 H 0.2656 0.73155 0.45927 0.0
H930 H 0.27979 0.77854 0.37611 0.0
H931 H 0.27837 0.76162 0.40523 0.0
C932 C 0.58806 0.97283 0.71062 0.0
C933 C 0.60759 0.9763 0.70902 0.0
C934 C 0.57543 0.97033 0.69407 0.0
C935 C 0.5562 0.98497 0.65894 0.0
H936 H 0.56168 0.95671 0.61049 0.0
C937 C 0.53806 0.00823 0.58373 0.0
C938 C 0.52665 0.99522 0.57024 0.0
C939 C 0.5443 0.00276 0.60161 0.0
C940 C 0.5598 0.96442 0.62402 0.0
H941 H 0.62926 0.97846 0.68888 0.0
H942 H 0.60716 0.97388 0.65991 0.0
H943 H 0.58016 0.95123 0.64011 0.0
H944 H 0.51259 0.96641 0.56474 0.0
H945 H 0.52422 0.95657 0.59607 0.0
H946 H 0.53681 -0.00098 0.64263 0.0
C947 C 0.60164 0.97315 0.67397 0.0
C948 C 0.57042 0.96138 0.64088 0.0
C949 C 0.61428 0.97587 0.69054 0.0
C950 C 0.52128 0.97669 0.57503 0.0
C951 C 0.52796 0.97106 0.59281 0.0
C952 C 0.54587 0.98823 0.64206 0.0
C953 C 0.58211 0.97102 0.67562 0.0
C954 C 0.56899 0.97193 0.6584 0.0
C955 C 0.53959 0.98408 0.60616 0.0
C956 C 0.5479 0.97828 0.62441 0.0
H957 H 0.58248 0.97301 0.72468 0.0
H958 H 0.56044 0.96858 0.69571 0.0
H959 H 0.55498 0.99345 0.6722 0.0
H960 H 0.54233 0.02261 0.58036 0.0
H961 H 0.55338 0.01299 0.61165 0.0
C962 C 0.26341 0.37543 0.96157 0.0
C963 C 0.26578 0.3645 0.97725 0.0
C964 C 0.26349 0.36761 0.94261 0.0
C965 C 0.25603 0.32213 0.91303 0.0
H966 H 0.27933 0.35225 0.87474 0.0
C967 C 0.25776 0.29328 0.83328 0.0
C968 C 0.25238 0.30522 0.81942 0.0
C969 C 0.26129 0.29994 0.85281 0.0
C970 C 0.27271 0.3437 0.88527 0.0
H971 H 0.27026 0.33688 0.98544 0.0
H972 H 0.27061 0.32322 0.95225 0.0
H973 H 0.28205 0.36489 0.90851 0.0
H974 H 0.24693 0.33358 0.81508 0.0
H975 H 0.25305 0.34513 0.84907 0.0
H976 H 0.24655 0.30101 0.88968 0.0
C977 C 0.26845 0.33777 0.95462 0.0
C978 C 0.27422 0.35094 0.9046 0.0
C979 C 0.26834 0.34561 0.97362 0.0
C980 C 0.25098 0.32401 0.82541 0.0
C981 C 0.25463 0.33068 0.84487 0.0
C982 C 0.25457 0.31486 0.89369 0.0
C983 C 0.266 0.34869 0.9389 0.0
C984 C 0.26562 0.34038 0.91865 0.0
C985 C 0.25968 0.31869 0.8588 0.0
C986 C 0.26263 0.3257 0.87956 0.0
H987 H 0.26134 0.39002 0.96393 0.0
H988 H 0.26124 0.37632 0.93084 0.0
H989 H 0.24907 0.31371 0.92345 0.0
H990 H 0.259 0.27874 0.82909 0.0
H991 H 0.26531 0.29044 0.86323 0.0
C992 C 0.94177 0.0262 0.31317 0.0
C993 C 0.92238 0.0196 0.30977 0.0
C994 C 0.95107 0.02562 0.33144 0.0
C995 C 0.94833 0.00326 0.37723 0.0
H996 H 0.97532 0.05108 0.40063 0.0
C997 C 0.97045 0.0412 0.45764 0.0
C998 C 0.98216 0.02952 0.46621 0.0
C999 C 0.96512 0.03873 0.43783 0.0
C1000 C 0.96797 0.0376 0.39419 0.0
H1001 H 0.89764 0.00658 0.32249 0.0
H1002 H 0.91397 0.00537 0.35437 0.0
H1003 H 0.96259 0.04846 0.3668 0.0
H1004 H 0.99721 0.00587 0.46086 0.0
H1005 H 0.98731 0.00118 0.42602 0.0
H1006 H 0.95349 0.99256 0.40485 0.0
C1007 C 0.92194 0.01101 0.34293 0.0
C1008 C 0.96079 0.03607 0.37485 0.0
C1009 C 0.91259 0.01184 0.32475 0.0
C1010 C 0.9882 0.01508 0.4546 0.0
C1011 C 0.98253 0.01238 0.43475 0.0
C1012 C 0.95579 0.00472 0.39653 0.0
C1013 C 0.9412 0.01815 0.34652 0.0
C1014 C 0.95056 0.01901 0.36631 0.0
C1015 C 0.97113 0.02435 0.42622 0.0
C1016 C 0.96528 0.02203 0.40526 0.0
H1017 H 0.94967 0.03222 0.30186 0.0
H1018 H 0.96595 0.03115 0.33385 0.0
H1019 H 0.94056 0.98993 0.37091 0.0
H1020 H 0.96563 0.05251 0.46617 0.0
H1021 H 0.95615 0.04801 0.43159 0.0
C1022 C 0.31414 0.68236 0.5775 0.0
C1023 C 0.30606 0.66339 0.57758 0.0
C1024 C 0.31696 0.69421 0.59464 0.0
C1025 C 0.31779 0.69474 0.6481 0.0
H1026 H 0.29476 0.74006 0.64434 0.0
C1027 C 0.28331 0.72733 0.71072 0.0
C1028 C 0.28475 0.74701 0.71401 0.0
C1029 C 0.29068 0.71924 0.69473 0.0
C1030 C 0.30164 0.72772 0.64563 0.0
H1031 H 0.29567 0.64162 0.59575 0.0
H1032 H 0.30061 0.66223 0.62565 0.0
H1033 H 0.29994 0.7216 0.61491 0.0
H1034 H 0.2953 0.77368 0.70318 0.0
H1035 H 0.3081 0.7594 0.67485 0.0
H1036 H 0.31878 0.70044 0.67883 0.0
C1037 C 0.30484 0.66799 0.6124 0.0
C1038 C 0.30462 0.71713 0.62876 0.0
C1039 C 0.30191 0.65619 0.59526 0.0
C1040 C 0.29393 0.75847 0.70099 0.0
C1041 C 0.30123 0.75031 0.6848 0.0
C1042 C 0.31486 0.70533 0.66494 0.0
C1043 C 0.3119 0.68724 0.61219 0.0
C1044 C 0.3121 0.70017 0.62985 0.0
C1045 C 0.29965 0.73059 0.68153 0.0
C1046 C 0.3061 0.72154 0.66388 0.0
H1047 H 0.31752 0.68828 0.56407 0.0
H1048 H 0.3226 0.70893 0.59409 0.0
H1049 H 0.3239 0.68192 0.64936 0.0
H1050 H 0.27639 0.71805 0.72048 0.0
H1051 H 0.28889 0.704 0.69245 0.0
C1052 C 0.59669 0.02321 0.8007 0.0
C1053 C 0.6129 0.01475 0.80424 0.0
C1054 C 0.5857 0.0273 0.81576 0.0
C1055 C 0.58645 0.03298 0.86922 0.0
H1056 H 0.53221 0.01966 0.85962 0.0
C1057 C 0.52009 0.01215 0.91634 0.0
C1058 C 0.52506 0.02554 0.9323 0.0
C1059 C 0.5293 0.01394 0.89941 0.0
C1060 C 0.54732 0.02347 0.86252 0.0
H1061 H 0.63053 0.00423 0.82633 0.0
H1062 H 0.61124 0.01114 0.8526 0.0
H1063 H 0.55215 0.01654 0.83303 0.0
H1064 H 0.54248 0.05211 0.94248 0.0
H1065 H 0.55828 0.05539 0.91282 0.0
H1066 H 0.58175 0.03905 0.89885 0.0
C1067 C 0.60713 0.01487 0.83825 0.0
C1068 C 0.55875 0.02187 0.84725 0.0
C1069 C 0.61813 0.0108 0.82319 0.0
C1070 C 0.53848 0.04143 0.93051 0.0
C1071 C 0.54762 0.04326 0.91356 0.0
C1072 C 0.57505 0.03456 0.88448 0.0
C1073 C 0.59069 0.023 0.83467 0.0
C1074 C 0.57847 0.02628 0.85051 0.0
C1075 C 0.54359 0.02921 0.89806 0.0
C1076 C 0.55537 0.02952 0.88138 0.0
H1077 H 0.59236 0.02648 0.78623 0.0
H1078 H 0.57326 0.03379 0.81258 0.0
H1079 H 0.60157 0.03674 0.87215 0.0
H1080 H 0.50979 -0.00024 0.91723 0.0
H1081 H 0.52593 0.00279 0.88781 0.0
C1082 C 0.24773 0.33677 0.07725 0.0
C1083 C 0.25382 0.35629 0.08041 0.0
C1084 C 0.24467 0.32586 0.09287 0.0
C1085 C 0.23654 0.32915 0.14487 0.0
H1086 H 0.25753 0.28243 0.1454 0.0
C1087 C 0.25251 0.29477 0.21483 0.0
C1088 C 0.24977 0.27501 0.21466 0.0
C1089 C 0.24994 0.30348 0.19778 0.0
C1090 C 0.25126 0.29525 0.14534 0.0
H1091 H 0.26123 0.37972 0.10235 0.0
H1092 H 0.256 0.36068 0.12962 0.0
H1093 H 0.25893 0.30006 0.11674 0.0
H1094 H 0.24162 0.24889 0.19647 0.0
H1095 H 0.23706 0.26419 0.1665 0.0
H1096 H 0.22922 0.32456 0.17361 0.0
C1097 C 0.2534 0.35382 0.11508 0.0
C1098 C 0.2521 0.30537 0.12892 0.0
C1099 C 0.25652 0.36472 0.09947 0.0
C1100 C 0.24386 0.26414 0.19707 0.0
C1101 C 0.24136 0.27289 0.17991 0.0
C1102 C 0.23568 0.31903 0.16125 0.0
C1103 C 0.24754 0.33425 0.11197 0.0
C1104 C 0.24509 0.32264 0.12867 0.0
C1105 C 0.24457 0.29267 0.18007 0.0
C1106 C 0.24339 0.30217 0.16184 0.0
H1107 H 0.24548 0.32989 0.0627 0.0
H1108 H 0.23999 0.31085 0.09 0.0
H1109 H 0.23068 0.34222 0.14497 0.0
H1110 H 0.257 0.30358 0.22815 0.0
H1111 H 0.25279 0.31872 0.1984 0.0
C1112 C 0.20147 0.91529 0.02617 0.0
C1113 C 0.22103 0.91992 0.03047 0.0
C1114 C 0.18951 0.9283 0.03087 0.0
C1115 C 0.18906 0.97919 0.04019 0.0
H1116 H 0.13994 0.96241 0.05759 0.0
C1117 C 0.11518 0.00789 0.06049 0.0
C1118 C 0.1121 0.01784 0.04415 0.0
C1119 C 0.13085 0.99853 0.06252 0.0
C1120 C 0.15372 0.96746 0.05308 0.0
H1121 H 0.24342 0.94165 0.04336 0.0
H1122 H 0.22249 0.96437 0.05169 0.0
H1123 H 0.16234 0.9403 0.05435 0.0
H1124 H 0.12389 0.02704 0.01798 0.0
H1125 H 0.15102 0.01055 0.0214 0.0
H1126 H 0.18033 0.00635 0.03878 0.0
C1127 C 0.21642 0.95075 0.04451 0.0
C1128 C 0.16646 0.95469 0.05096 0.0
C1129 C 0.22839 0.93771 0.03982 0.0
C1130 C 0.12578 0.01944 0.0307 0.0
C1131 C 0.14142 0.01003 0.03271 0.0
C1132 C 0.17629 0.99199 0.04232 0.0
C1133 C 0.19685 0.94623 0.03999 0.0
C1134 C 0.18411 0.96029 0.04409 0.0
C1135 C 0.14376 -0.00111 0.04826 0.0
C1136 C 0.15832 0.98617 0.04842 0.0
H1137 H 0.19539 0.9017 0.01892 0.0
H1138 H 0.17453 0.92447 0.02692 0.0
H1139 H 0.20251 0.98394 0.03478 0.0
H1140 H 0.10502 0.00654 0.07124 0.0
H1141 H 0.13247 0.9904 0.07489 0.0
C1142 C 0.71317 0.59422 0.9934 0.0
C1143 C 0.71789 0.61317 0.00075 0.0
C1144 C 0.69487 0.58477 0.99399 0.0
C1145 C 0.6532 0.58618 0.02107 0.0
H1146 H 0.6267 0.55359 0.97774 0.0
C1147 C 0.57484 0.55682 0.02074 0.0
C1148 C 0.56886 0.53798 0.01355 0.0
C1149 C 0.59301 0.56559 0.01845 0.0
C1150 C 0.63402 0.56246 0.99004 0.0
H1151 H 0.70712 0.63723 0.01403 0.0
H1152 H 0.67519 0.62074 0.01503 0.0
H1153 H 0.65853 0.5698 0.97481 0.0
H1154 H 0.5772 0.51359 0.99815 0.0
H1155 H 0.60918 0.52888 0.99441 0.0
H1156 H 0.62891 0.57881 0.0364 0.0
C1157 C 0.68566 0.61314 0.009 0.0
C1158 C 0.6522 0.57176 0.98835 0.0
C1159 C 0.70391 0.6226 0.00833 0.0
C1160 C 0.5814 0.52814 0.00382 0.0
C1161 C 0.59967 0.53692 0.0016 0.0
C1162 C 0.63511 0.57685 0.0228 0.0
C1163 C 0.68101 0.59407 0.00205 0.0
C1164 C 0.66189 0.58384 0.0038 0.0
C1165 C 0.60571 0.55571 0.00903 0.0
C1166 C 0.62522 0.56503 0.00725 0.0
H1167 H 0.72369 0.58661 0.98746 0.0
H1168 H 0.6917 0.57004 0.98864 0.0
H1169 H 0.66047 0.5951 0.03336 0.0
H1170 H 0.56549 0.56486 0.02817 0.0
H1171 H 0.59708 0.58018 0.024 0.0
C1172 C 0.69587 0.47213 0.27182 0.0
C1173 C 0.67647 0.46995 0.27421 0.0
C1174 C 0.70435 0.45663 0.26576 0.0
C1175 C 0.69282 0.40826 0.24152 0.0
H1176 H 0.74041 0.40047 0.26726 0.0
C1177 C 0.71587 0.33572 0.24463 0.0
C1178 C 0.73487 0.33379 0.24319 0.0
C1179 C 0.71013 0.35341 0.24488 0.0
C1180 C 0.72731 0.40263 0.25966 0.0
H1181 H 0.65078 0.44983 0.27234 0.0
H1182 H 0.66556 0.42277 0.26211 0.0
H1183 H 0.72768 0.42951 0.27524 0.0
H1184 H 0.76273 0.3488 0.24028 0.0
H1185 H 0.75266 0.38005 0.24099 0.0
H1186 H 0.69212 0.3811 0.22647 0.0
C1187 C 0.6742 0.43649 0.26454 0.0
C1188 C 0.71998 0.41925 0.26426 0.0
C1189 C 0.66575 0.45196 0.27058 0.0
C1190 C 0.74798 0.3499 0.24134 0.0
C1191 C 0.74225 0.36774 0.24187 0.0
C1192 C 0.7001 0.39167 0.23699 0.0
C1193 C 0.69357 0.43864 0.26194 0.0
C1194 C 0.70241 0.42202 0.2556 0.0
C1195 C 0.72328 0.36966 0.24389 0.0
C1196 C 0.71717 0.38846 0.24637 0.0
H1197 H 0.70448 0.48586 0.27445 0.0
H1198 H 0.71927 0.45877 0.26379 0.0
H1199 H 0.67947 0.41017 0.23424 0.0
H1200 H 0.70542 0.32355 0.246 0.0
H1201 H 0.69546 0.35443 0.24668 0.0
C1202 C 0.823 0.40466 0.50991 0.0
C1203 C 0.80787 0.41257 0.50168 0.0
C1204 C 0.84152 0.41281 0.50824 0.0
C1205 C 0.87058 0.45729 0.50318 0.0
H1206 H 0.90805 0.42563 0.4905 0.0
C1207 C 0.94989 0.48709 0.50653 0.0
C1208 C 0.96201 0.47605 0.51557 0.0
C1209 C 0.93098 0.47974 0.50129 0.0
C1210 C 0.89778 0.43466 0.49415 0.0
H1211 H 0.80016 0.43522 0.48527 0.0
H1212 H 0.83279 0.4498 0.48269 0.0
H1213 H 0.87482 0.41204 0.48801 0.0
H1214 H 0.96391 0.44857 0.52585 0.0
H1215 H 0.93102 0.43595 0.51714 0.0
H1216 H 0.89355 0.47971 0.5102 0.0
C1217 C 0.8302 0.43718 0.4903 0.0
C1218 C 0.87878 0.42689 0.49265 0.0
C1219 C 0.81159 0.42884 0.49174 0.0
C1220 C 0.95497 0.45743 0.51888 0.0
C1221 C 0.9361 0.45014 0.51373 0.0
C1222 C 0.88964 0.46505 0.50485 0.0
C1223 C 0.84531 0.42917 0.49849 0.0
C1224 C 0.86505 0.43802 0.49759 0.0
C1225 C 0.92383 0.46124 0.50501 0.0
C1226 C 0.9035 0.45369 0.50083 0.0
H1227 H 0.82056 0.39211 0.51763 0.0
H1228 H 0.8529 0.4065 0.51492 0.0
H1229 H 0.86026 0.46613 0.50719 0.0
H1230 H 0.95495 0.50146 0.50368 0.0
H1231 H 0.92195 0.48858 0.4944 0.0
C1232 C 0.34955 0.06045 0.24192 0.0
C1233 C 0.36563 0.06624 0.25485 0.0
C1234 C 0.33761 0.07332 0.23674 0.0
C1235 C 0.33544 0.12448 0.23663 0.0
H1236 H 0.28152 0.10907 0.2366 0.0
C1237 C 0.26671 0.1624 0.24819 0.0
C1238 C 0.27104 0.17806 0.2375 0.0
C1239 C 0.2766 0.14709 0.24633 0.0
C1240 C 0.29654 0.11358 0.23652 0.0
H1241 H 0.38199 0.09005 0.27229 0.0
H1242 H 0.36109 0.11245 0.26346 0.0
H1243 H 0.30291 0.08611 0.24169 0.0
H1244 H 0.288 0.1892 0.21521 0.0
H1245 H 0.30499 0.16234 0.21171 0.0
H1246 H 0.32921 0.15211 0.23241 0.0
C1247 C 0.3578 0.09805 0.25708 0.0
C1248 C 0.30879 0.10038 0.23924 0.0
C1249 C 0.36973 0.08519 0.26225 0.0
C1250 C 0.28446 0.17745 0.22383 0.0
C1251 C 0.29429 0.16211 0.22191 0.0
C1252 C 0.32321 0.13765 0.23393 0.0
C1253 C 0.34153 0.09224 0.24438 0.0
C1254 C 0.32841 0.10578 0.23971 0.0
C1255 C 0.29098 0.14707 0.23366 0.0
C1256 C 0.30363 0.13246 0.23419 0.0
H1257 H 0.34607 0.04593 0.23593 0.0
H1258 H 0.32531 0.06844 0.22675 0.0
H1259 H 0.35046 0.12903 0.23662 0.0
H1260 H 0.25644 0.16239 0.25883 0.0
H1261 H 0.27374 0.13582 0.2557 0.0
C1262 C 0.31243 0.08903 0.51603 0.0
C1263 C 0.31492 0.10766 0.51074 0.0
C1264 C 0.32797 0.07972 0.51945 0.0
C1265 C 0.37957 0.08909 0.53118 0.0
H1266 H 0.37862 0.03755 0.50985 0.0
C1267 C 0.44657 0.05847 0.5175 0.0
C1268 C 0.44822 0.04018 0.52255 0.0
C1269 C 0.42961 0.0655 0.51858 0.0
C1270 C 0.37896 0.05182 0.51618 0.0
H1271 H 0.33556 0.13108 0.50466 0.0
H1272 H 0.36262 0.11479 0.51036 0.0
H1273 H 0.35006 0.05229 0.50655 0.0
H1274 H 0.43333 0.01486 0.53266 0.0
H1275 H 0.40327 0.0272 0.53429 0.0
H1276 H 0.40858 0.08884 0.54026 0.0
C1277 C 0.34872 0.10746 0.51221 0.0
C1278 C 0.36265 0.06028 0.51428 0.0
C1279 C 0.33321 0.11675 0.5088 0.0
C1280 C 0.43245 0.02901 0.52871 0.0
C1281 C 0.41529 0.03603 0.52959 0.0
C1282 C 0.39583 0.08068 0.53301 0.0
C1283 C 0.3463 0.08887 0.51769 0.0
C1284 C 0.36293 0.07917 0.52133 0.0
C1285 C 0.4138 0.0544 0.52462 0.0
C1286 C 0.39583 0.06214 0.52511 0.0
H1287 H 0.29848 0.08169 0.51767 0.0
H1288 H 0.32566 0.06546 0.52376 0.0
H1289 H 0.38012 0.10349 0.5372 0.0
H1290 H 0.45843 0.06749 0.51272 0.0
H1291 H 0.4288 0.07958 0.51436 0.0
C1292 C 0.69783 0.57551 0.30162 0.0
C1293 C 0.67815 0.57176 0.29757 0.0
C1294 C 0.70746 0.5938 0.30112 0.0
C1295 C 0.7028 0.63659 0.27727 0.0
H1296 H 0.74202 0.66165 0.31558 0.0
C1297 C 0.73133 0.71463 0.2755 0.0
C1298 C 0.75076 0.72066 0.2796 0.0
C1299 C 0.72337 0.69643 0.27873 0.0
C1300 C 0.73128 0.65473 0.30463 0.0
H1301 H 0.65306 0.5843 0.29069 0.0
H1302 H 0.66985 0.6161 0.28979 0.0
H1303 H 0.72635 0.62986 0.31996 0.0
H1304 H 0.77706 0.71239 0.29063 0.0
H1305 H 0.76315 0.68023 0.29591 0.0
H1306 H 0.70775 0.66107 0.26173 0.0
C1307 C 0.67785 0.60491 0.29316 0.0
C1308 C 0.72228 0.63658 0.30719 0.0
C1309 C 0.66823 0.58673 0.29379 0.0
C1310 C 0.76204 0.70813 0.28732 0.0
C1311 C 0.75406 0.68976 0.29042 0.0
C1312 C 0.71184 0.65457 0.27464 0.0
C1313 C 0.69758 0.60856 0.29639 0.0
C1314 C 0.70775 0.62748 0.29366 0.0
C1315 C 0.73464 0.68366 0.28595 0.0
C1316 C 0.72597 0.66402 0.28842 0.0
H1317 H 0.70583 0.56424 0.3046 0.0
H1318 H 0.72269 0.59622 0.30362 0.0
H1319 H 0.69196 0.62974 0.26637 0.0
H1320 H 0.72216 0.72401 0.26983 0.0
H1321 H 0.7083 0.6924 0.27559 0.0
C1322 C 0.85117 0.47317 0.77839 0.0
C1323 C 0.87062 0.47658 0.77636 0.0
C1324 C 0.84251 0.45524 0.78204 0.0
C1325 C 0.85282 0.40976 0.79898 0.0
H1326 H 0.8067 0.38868 0.76779 0.0
C1327 C 0.82957 0.33045 0.78088 0.0
C1328 C 0.81027 0.32321 0.77872 0.0
C1329 C 0.83554 0.34974 0.78506 0.0
C1330 C 0.81935 0.39446 0.77694 0.0
H1331 H 0.8963 0.46403 0.77679 0.0
H1332 H 0.88119 0.43276 0.7829 0.0
H1333 H 0.81979 0.42164 0.76622 0.0
H1334 H 0.7821 0.33034 0.78035 0.0
H1335 H 0.7926 0.36416 0.78768 0.0
H1336 H 0.8527 0.38237 0.80919 0.0
C1337 C 0.87264 0.44394 0.78196 0.0
C1338 C 0.82688 0.41336 0.77601 0.0
C1339 C 0.88128 0.46182 0.77828 0.0
C1340 C 0.79708 0.33552 0.7819 0.0
C1341 C 0.80307 0.35488 0.78596 0.0
C1342 C 0.8453 0.39087 0.7999 0.0
C1343 C 0.85315 0.44041 0.7838 0.0
C1344 C 0.84396 0.42108 0.78663 0.0
C1345 C 0.82235 0.36224 0.7871 0.0
C1346 C 0.82874 0.38289 0.78852 0.0
H1347 H 0.84263 0.48431 0.77707 0.0
H1348 H 0.82749 0.453 0.78353 0.0
H1349 H 0.8658 0.41541 0.80765 0.0
H1350 H 0.84008 0.32132 0.77861 0.0
H1351 H 0.85048 0.35495 0.78565 0.0
C1352 C 0.00264 0.82193 0.10016 0.0
C1353 C 0.02004 0.81627 0.10555 0.0
C1354 C 0.00196 0.83829 0.09058 0.0
C1355 C 0.00758 0.88061 0.08656 0.0
H1356 H 0.0418 0.89649 0.04828 0.0
C1357 C 0.03516 0.95802 0.07818 0.0
C1358 C 0.03716 0.96399 0.05955 0.0
C1359 C 0.02965 0.93904 0.08073 0.0
C1360 C 0.03194 0.89216 0.05872 0.0
H1361 H 0.05028 0.82266 0.10425 0.0
H1362 H 0.04911 0.85113 0.08755 0.0
H1363 H 0.03852 0.864 0.05717 0.0
H1364 H 0.03454 0.95483 0.02892 0.0
H1365 H 0.02514 0.92142 0.03345 0.0
H1366 H 0.00146 0.90892 0.08859 0.0
C1367 C 0.03598 0.84295 0.09063 0.0
C1368 C 0.03018 0.87362 0.06393 0.0
C1369 C 0.03666 0.82671 0.10033 0.0
C1370 C 0.03313 0.95062 0.04345 0.0
C1371 C 0.02782 0.93152 0.04603 0.0
C1372 C 0.00943 0.89916 0.08145 0.0
C1373 C 0.01866 0.84916 0.08605 0.0
C1374 C 0.01835 0.8678 0.07827 0.0
C1375 C 0.02616 0.92555 0.06473 0.0
C1376 C 0.02201 0.90526 0.06788 0.0
H1377 H 0.9896 0.81412 0.10397 0.0
H1378 H 0.9884 0.84266 0.08708 0.0
H1379 H 0.99845 0.8766 0.09775 0.0
H1380 H 0.03805 0.968 0.09087 0.0
H1381 H 0.02873 0.93484 0.09532 0.0
C1382 C 0.95053 0.24067 0.86779 0.0
C1383 C 0.96707 0.24415 0.8583 0.0
C1384 C 0.93292 0.2397 0.85762 0.0
C1385 C 0.91013 0.25447 0.81305 0.0
H1386 H 0.86698 0.22119 0.82744 0.0
C1387 C 0.83487 0.25 0.77525 0.0
C1388 C 0.82108 0.25235 0.78816 0.0
C1389 C 0.85285 0.24699 0.78217 0.0
C1390 C 0.87893 0.23053 0.82328 0.0
H1391 H 0.97825 0.24888 0.83066 0.0
H1392 H 0.94743 0.24671 0.81271 0.0
H1393 H 0.89836 0.21926 0.84227 0.0
H1394 H 0.81507 0.25287 0.81832 0.0
H1395 H 0.84633 0.24734 0.83032 0.0
H1396 H 0.89054 0.26568 0.79402 0.0
C1397 C 0.94805 0.24514 0.82811 0.0
C1398 C 0.89688 0.22951 0.83182 0.0
C1399 C 0.9657 0.24629 0.83836 0.0
C1400 C 0.82543 0.25118 0.80803 0.0
C1401 C 0.84327 0.24789 0.81489 0.0
C1402 C 0.89217 0.25533 0.80434 0.0
C1403 C 0.93144 0.24199 0.83766 0.0
C1404 C 0.91265 0.24177 0.82714 0.0
C1405 C 0.8572 0.24595 0.80206 0.0
C1406 C 0.87638 0.24363 0.80968 0.0
H1407 H 0.95117 0.23906 0.88319 0.0
H1408 H 0.92049 0.23763 0.86555 0.0
H1409 H 0.92189 0.26429 0.80927 0.0
H1410 H 0.83192 0.25091 0.75986 0.0
H1411 H 0.86336 0.24549 0.77201 0.0
C1412 C 0.51839 0.20264 0.63463 0.0
C1413 C 0.52137 0.21806 0.62338 0.0
C1414 C 0.51807 0.18432 0.62639 0.0
C1415 C 0.53333 0.15674 0.58526 0.0
H1416 H 0.49538 0.11759 0.59986 0.0
C1417 C 0.51937 0.07977 0.54923 0.0
C1418 C 0.51457 0.06539 0.56142 0.0
C1419 C 0.52173 0.09873 0.55646 0.0
C1420 C 0.50623 0.1283 0.59582 0.0
H1421 H 0.52643 0.22643 0.59467 0.0
H1422 H 0.52573 0.19423 0.58013 0.0
H1423 H 0.49582 0.15004 0.61259 0.0
H1424 H 0.50977 0.05951 0.59097 0.0
H1425 H 0.51421 0.09243 0.60359 0.0
H1426 H 0.5437 0.13483 0.56844 0.0
C1427 C 0.52379 0.19639 0.5954 0.0
C1428 C 0.50645 0.14692 0.60309 0.0
C1429 C 0.52407 0.21479 0.60367 0.0
C1430 C 0.51323 0.07027 0.58115 0.0
C1431 C 0.51565 0.08915 0.58836 0.0
C1432 C 0.53311 0.13803 0.57796 0.0
C1433 C 0.52071 0.18096 0.60667 0.0
C1434 C 0.5201 0.16134 0.59807 0.0
C1435 C 0.51937 0.10361 0.576 0.0
C1436 C 0.51967 0.12358 0.58335 0.0
H1437 H 0.51637 0.2047 0.64989 0.0
H1438 H 0.51597 0.17277 0.63555 0.0
H1439 H 0.54412 0.16752 0.58125 0.0
H1440 H 0.52045 0.07644 0.53394 0.0
H1441 H 0.52454 0.10953 0.54655 0.0
C1442 C 0.55749 0.74953 0.33456 0.0
C1443 C 0.55928 0.75949 0.35293 0.0
C1444 C 0.5721 0.75192 0.32239 0.0
C1445 C 0.61413 0.78451 0.31313 0.0
H1446 H 0.63099 0.73979 0.29007 0.0
C1447 C 0.68741 0.78545 0.28528 0.0
C1448 C 0.68987 0.77265 0.26973 0.0
C1449 C 0.66985 0.78516 0.29262 0.0
C1450 C 0.62624 0.75246 0.29602 0.0
H1451 H 0.57762 0.77991 0.37288 0.0
H1452 H 0.60316 0.78413 0.35156 0.0
H1453 H 0.6034 0.73658 0.30855 0.0
H1454 H 0.67555 0.7503 0.24892 0.0
H1455 H 0.64473 0.75007 0.26152 0.0
H1456 H 0.63703 0.80042 0.30075 0.0
C1457 C 0.59041 0.77455 0.34656 0.0
C1458 C 0.61046 0.75059 0.30668 0.0
C1459 C 0.57587 0.77203 0.35881 0.0
C1460 C 0.67414 0.76026 0.261 0.0
C1461 C 0.65652 0.76003 0.26831 0.0
C1462 C 0.62982 0.7864 0.30233 0.0
C1463 C 0.58871 0.76445 0.32827 0.0
C1464 C 0.60448 0.76658 0.31566 0.0
C1465 C 0.65428 0.77216 0.28453 0.0
C1466 C 0.6363 0.77037 0.29397 0.0
H1467 H 0.54484 0.73979 0.32963 0.0
H1468 H 0.57037 0.74406 0.30831 0.0
H1469 H 0.60963 0.79709 0.31964 0.0
H1470 H 0.69921 0.7952 0.29235 0.0
H1471 H 0.66875 0.79456 0.30526 0.0
C1472 C 0.0133 0.2055 0.41494 0.0
C1473 C 0.01937 0.22377 0.42373 0.0
C1474 C 0.01257 0.18996 0.42591 0.0
C1475 C 0.01191 0.1753 0.47577 0.0
H1476 H 0.03249 0.13249 0.45342 0.0
C1477 C 0.00679 0.10172 0.507 0.0
C1478 C 0.02263 0.09247 0.50561 0.0
C1479 C 0.00629 0.11897 0.49896 0.0
C1480 C 0.02682 0.14438 0.45995 0.0
H1481 H 0.02895 0.24019 0.45098 0.0
H1482 H 0.02784 0.21295 0.47015 0.0
H1483 H 0.03125 0.15994 0.43526 0.0
H1484 H 0.05089 0.09466 0.49618 0.0
H1485 H 0.05011 0.12471 0.48251 0.0
H1486 H 0.00775 0.15963 0.50063 0.0
C1487 C 0.0235 0.21068 0.4548 0.0
C1488 C 0.02588 0.16002 0.44942 0.0
C1489 C 0.02426 0.22625 0.4438 0.0
C1490 C 0.03836 0.10131 0.49721 0.0
C1491 C 0.03789 0.11849 0.48929 0.0
C1492 C 0.01278 0.15954 0.48632 0.0
C1493 C 0.01789 0.19234 0.44591 0.0
C1494 C 0.01845 0.17567 0.4572 0.0
C1495 C 0.02164 0.1272 0.48949 0.0
C1496 C 0.02039 0.14398 0.47855 0.0
H1497 H 0.00932 0.20316 0.39952 0.0
H1498 H 0.00791 0.17603 0.41869 0.0
H1499 H 0.00599 0.18713 0.48208 0.0
H1500 H 0.99445 0.0952 0.51338 0.0
H1501 H 0.99356 0.12537 0.49931 0.0
C1502 C 0.56089 0.24844 0.17747 0.0
C1503 C 0.55742 0.24959 0.15747 0.0
C1504 C 0.57888 0.24653 0.18539 0.0
C1505 C 0.62501 0.23404 0.1723 0.0
H1506 H 0.64461 0.26578 0.21893 0.0
C1507 C 0.70416 0.25655 0.19441 0.0
C1508 C 0.71046 0.25867 0.21418 0.0
C1509 C 0.685 0.25164 0.18852 0.0
C1510 C 0.63926 0.25654 0.20611 0.0
H1511 H 0.56995 0.24936 0.13003 0.0
H1512 H 0.60137 0.24638 0.14384 0.0
H1513 H 0.61186 0.26468 0.20672 0.0
H1514 H 0.70172 0.25628 0.24323 0.0
H1515 H 0.66821 0.24766 0.23289 0.0
H1516 H 0.65267 0.22643 0.17138 0.0
C1517 C 0.59017 0.24663 0.15341 0.0
C1518 C 0.62047 0.25592 0.1991 0.0
C1519 C 0.57219 0.2485 0.14551 0.0
C1520 C 0.69731 0.25482 0.22789 0.0
C1521 C 0.67811 0.25 0.22199 0.0
C1522 C 0.64384 0.23472 0.17928 0.0
C1523 C 0.59378 0.24576 0.17346 0.0
C1524 C 0.61321 0.24494 0.1819 0.0
C1525 C 0.67171 0.24881 0.20227 0.0
C1526 C 0.65125 0.24625 0.19608 0.0
H1527 H 0.54973 0.24914 0.18703 0.0
H1528 H 0.58113 0.24568 0.20085 0.0
H1529 H 0.61977 0.22516 0.15921 0.0
H1530 H 0.71395 0.25936 0.18349 0.0
H1531 H 0.68053 0.25098 0.17323 0.0
C1532 C 0.54268 0.8238 0.94248 0.0
C1533 C 0.52661 0.81669 0.92996 0.0
C1534 C 0.5438 0.84123 0.95321 0.0
C1535 C 0.514 0.87679 0.96923 0.0
H1536 H 0.56064 0.91185 0.97244 0.0
C1537 C 0.51669 0.95663 0.97988 0.0
C1538 C 0.52939 0.96654 0.99472 0.0
C1539 C 0.51733 0.9377 0.97455 0.0
C1540 C 0.54762 0.90208 0.97187 0.0
H1541 H 0.49914 0.82215 0.91883 0.0
H1542 H 0.50124 0.85257 0.93701 0.0
H1543 H 0.55979 0.87949 0.95847 0.0
H1544 H 0.55297 0.96452 0.01536 0.0
H1545 H 0.55443 0.93127 0.00551 0.0
H1546 H 0.50165 0.89971 0.98171 0.0
C1547 C 0.51282 0.84461 0.93903 0.0
C1548 C 0.54712 0.88355 0.96394 0.0
C1549 C 0.51166 0.8272 0.92847 0.0
C1550 C 0.54301 0.9572 0.00388 0.0
C1551 C 0.54387 0.93826 0.99826 0.0
C1552 C 0.51446 0.89533 0.97689 0.0
C1553 C 0.52889 0.85188 0.95153 0.0
C1554 C 0.53016 0.87082 0.96209 0.0
C1555 C 0.53086 0.92834 0.98372 0.0
C1556 C 0.53116 0.90823 0.97788 0.0
H1557 H 0.5544 0.81594 0.94394 0.0
H1558 H 0.5563 0.84633 0.96284 0.0
H1559 H 0.50084 0.86724 0.96851 0.0
H1560 H 0.50594 0.96337 0.97261 0.0
H1561 H 0.50727 0.93038 0.96316 0.0
C1562 C 0.95812 0.76866 0.68956 0.0
C1563 C 0.95771 0.7674 0.66926 0.0
C1564 C 0.94194 0.77138 0.69875 0.0
C1565 C 0.89505 0.78654 0.69054 0.0
H1566 H 0.8806 0.75294 0.72981 0.0
C1567 C 0.81844 0.76493 0.70675 0.0
C1568 C 0.81429 0.76157 0.72574 0.0
C1569 C 0.83705 0.76975 0.70242 0.0
C1570 C 0.88458 0.76272 0.71918 0.0
H1571 H 0.94023 0.76838 0.64268 0.0
H1572 H 0.91205 0.77296 0.65865 0.0
H1573 H 0.91148 0.75358 0.71742 0.0
H1574 H 0.82632 0.76156 0.75528 0.0
H1575 H 0.85896 0.77001 0.74766 0.0
H1576 H 0.8679 0.79521 0.69184 0.0
C1577 C 0.92487 0.77207 0.66752 0.0
C1578 C 0.90229 0.76307 0.71206 0.0
C1579 C 0.94098 0.76929 0.65835 0.0
C1580 C 0.82908 0.764 0.74049 0.0
C1581 C 0.84777 0.76873 0.73612 0.0
C1582 C 0.87737 0.7862 0.69767 0.0
C1583 C 0.92511 0.773 0.68781 0.0
C1584 C 0.90749 0.77459 0.69727 0.0
C1585 C 0.85196 0.77127 0.71696 0.0
C1586 C 0.87173 0.77389 0.71167 0.0
H1587 H 0.97086 0.76732 0.69833 0.0
H1588 H 0.94259 0.77216 0.71441 0.0
H1589 H 0.89882 0.79584 0.67942 0.0
H1590 H 0.80735 0.76327 0.69507 0.0
H1591 H 0.83978 0.7714 0.68747 0.0
C1592 C 0.12555 0.0038 0.85412 0.0
C1593 C 0.11833 0.01154 0.83769 0.0
C1594 C 0.11552 0.00273 0.87059 0.0
C1595 C 0.08098 0.02549 0.89583 0.0
H1596 H 0.07595 0.98098 0.92449 0.0
C1597 C 0.04241 0.9971 0.96638 0.0
C1598 C 0.04926 0.01236 0.98005 0.0
C1599 C 0.04928 0.99619 0.94804 0.0
C1600 C 0.07709 0.99342 0.91652 0.0
H1601 H 0.09492 0.02406 0.8255 0.0
H1602 H 0.07752 0.0224 0.85436 0.0
H1603 H 0.09104 0.98051 0.89403 0.0
H1604 H 0.06835 0.03882 0.9851 0.0
H1605 H 0.08009 0.0373 0.95318 0.0
H1606 H 0.06738 0.03853 0.91847 0.0
C1607 C 0.09092 0.01717 0.8545 0.0
C1608 C 0.08586 0.99322 0.89922 0.0
C1609 C 0.10085 0.01807 0.83798 0.0
C1610 C 0.06283 0.02682 0.97493 0.0
C1611 C 0.06948 0.02604 0.9566 0.0
C1612 C 0.07241 0.02576 0.91321 0.0
C1613 C 0.09818 0.00954 0.87099 0.0
C1614 C 0.08804 0.00932 0.8888 0.0
C1615 C 0.06286 0.01069 0.94301 0.0
C1616 C 0.07056 0.0098 0.92383 0.0
H1617 H 0.13896 0.99861 0.85429 0.0
H1618 H 0.12154 0.99695 0.88317 0.0
H1619 H 0.08257 0.03814 0.88818 0.0
H1620 H 0.03196 0.98575 0.96993 0.0
H1621 H 0.0439 0.98424 0.93777 0.0
C1622 C 0.75414 0.33997 0.55747 0.0
C1623 C 0.75476 0.35962 0.55804 0.0
C1624 C 0.75645 0.33121 0.57461 0.0
C1625 C 0.75136 0.33731 0.62639 0.0
H1626 H 0.7896 0.30473 0.63248 0.0
C1627 C 0.77543 0.31815 0.70113 0.0
C1628 C 0.77818 0.2995 0.70337 0.0
C1629 C 0.77308 0.3244 0.68276 0.0
C1630 C 0.77868 0.31357 0.63091 0.0
H1631 H 0.75792 0.38549 0.57684 0.0
H1632 H 0.76155 0.37015 0.60677 0.0
H1633 H 0.78334 0.31722 0.60119 0.0
H1634 H 0.78142 0.27288 0.68826 0.0
H1635 H 0.7769 0.28372 0.65586 0.0
H1636 H 0.74647 0.33366 0.65586 0.0
C1637 C 0.75938 0.36155 0.5931 0.0
C1638 C 0.77513 0.32071 0.61303 0.0
C1639 C 0.75736 0.37032 0.576 0.0
C1640 C 0.77937 0.28736 0.68688 0.0
C1641 C 0.77679 0.29358 0.66838 0.0
C1642 C 0.75476 0.33006 0.64413 0.0
C1643 C 0.75907 0.34195 0.59256 0.0
C1644 C 0.7617 0.33294 0.61078 0.0
C1645 C 0.77315 0.31205 0.66615 0.0
C1646 C 0.76876 0.31846 0.64675 0.0
H1647 H 0.75223 0.33142 0.54379 0.0
H1648 H 0.75607 0.31607 0.57387 0.0
H1649 H 0.74071 0.34646 0.62489 0.0
H1650 H 0.77472 0.32789 0.71362 0.0
H1651 H 0.77091 0.33888 0.68159 0.0
C1652 C 0.45169 0.04762 0.32541 0.0
C1653 C 0.43195 0.0442 0.32516 0.0
C1654 C 0.46289 0.05068 0.34297 0.0
C1655 C 0.461 0.06043 0.39615 0.0
H1656 H 0.50208 0.03097 0.39975 0.0
C1657 C 0.48482 0.02953 0.46528 0.0
C1658 C 0.50414 0.03011 0.47053 0.0
C1659 C 0.47871 0.03588 0.44782 0.0
C1660 C 0.49094 0.03961 0.3989 0.0
H1661 H 0.40841 0.04198 0.34303 0.0
H1662 H 0.42785 0.04691 0.37363 0.0
H1663 H 0.48608 0.03386 0.36819 0.0
H1664 H 0.53226 0.03795 0.46166 0.0
H1665 H 0.52142 0.04864 0.43053 0.0
H1666 H 0.4652 0.06519 0.42704 0.0
C1667 C 0.43477 0.04758 0.36032 0.0
C1668 C 0.48175 0.04129 0.38082 0.0
C1669 C 0.42359 0.04461 0.34277 0.0
C1670 C 0.51729 0.03739 0.45798 0.0
C1671 C 0.51111 0.04346 0.44022 0.0
C1672 C 0.47008 0.05862 0.41421 0.0
C1673 C 0.45456 0.05031 0.36064 0.0
C1674 C 0.46627 0.0512 0.37931 0.0
C1675 C 0.49174 0.04272 0.43501 0.0
C1676 C 0.48473 0.04769 0.4158 0.0
H1677 H 0.45852 0.0475 0.31202 0.0
H1678 H 0.47808 0.05299 0.34271 0.0
H1679 H 0.44942 0.06852 0.39545 0.0
H1680 H 0.47432 0.02405 0.47464 0.0
H1681 H 0.46369 0.03486 0.44404 0.0
C1682 C 0.77285 0.68936 0.05997 0.0
C1683 C 0.77768 0.67111 0.05802 0.0
C1684 C 0.77369 0.69908 0.0783 0.0
C1685 C 0.79556 0.69983 0.12814 0.0
H1686 H 0.75403 0.72505 0.14321 0.0
C1687 C 0.78575 0.71826 0.20755 0.0
C1688 C 0.78157 0.73629 0.21302 0.0
C1689 C 0.78508 0.71186 0.18808 0.0
C1690 C 0.76583 0.71828 0.13911 0.0
H1691 H 0.7872 0.64872 0.07364 0.0
H1692 H 0.78861 0.66555 0.10547 0.0
H1693 H 0.75375 0.71125 0.1099 0.0
H1694 H 0.77276 0.76152 0.20232 0.0
H1695 H 0.77153 0.75019 0.16804 0.0
H1696 H 0.80751 0.70652 0.15732 0.0
C1697 C 0.78437 0.6725 0.0929 0.0
C1698 C 0.76569 0.71041 0.12006 0.0
C1699 C 0.78345 0.6628 0.07467 0.0
C1700 C 0.77607 0.74756 0.19855 0.0
C1701 C 0.77534 0.74108 0.17895 0.0
C1702 C 0.79568 0.70765 0.14711 0.0
C1703 C 0.77951 0.69074 0.09495 0.0
C1704 C 0.78038 0.70074 0.11451 0.0
C1705 C 0.7802 0.72329 0.17355 0.0
C1706 C 0.78064 0.71659 0.15292 0.0
H1707 H 0.76833 0.6961 0.04737 0.0
H1708 H 0.76997 0.71316 0.07943 0.0
H1709 H 0.80729 0.69286 0.1242 0.0
H1710 H 0.78987 0.70913 0.21831 0.0
H1711 H 0.78849 0.69792 0.18437 0.0
C1712 C 0.13039 0.01131 0.71677 0.0
C1713 C 0.11998 0.0109 0.73309 0.0
C1714 C 0.12131 0.01075 0.69826 0.0
C1715 C 0.07848 0.02096 0.67189 0.0
H1716 H 0.09326 0.98817 0.63079 0.0
C1717 C 0.04104 0.00972 0.59392 0.0
C1718 C 0.05261 0.00767 0.57871 0.0
C1719 C 0.04859 0.01081 0.61318 0.0
C1720 C 0.08913 0.99759 0.64204 0.0
H1721 H 0.09194 0.00967 0.7429 0.0
H1722 H 0.07602 0.00877 0.71039 0.0
H1723 H 0.10753 0.98821 0.66363 0.0
H1724 H 0.08127 0.0063 0.57165 0.0
H1725 H 0.09448 0.00868 0.60508 0.0
H1726 H 0.06026 0.03054 0.65016 0.0
C1727 C 0.09121 0.00956 0.712 0.0
C1728 C 0.09726 0.99755 0.66086 0.0
C1729 C 0.1003 0.00996 0.73055 0.0
C1730 C 0.07196 0.00762 0.58307 0.0
C1731 C 0.0795 0.00885 0.60224 0.0
C1732 C 0.07039 0.02108 0.65297 0.0
C1733 C 0.10164 0.0099 0.69568 0.0
C1734 C 0.09219 0.00936 0.67594 0.0
C1735 C 0.06786 0.00997 0.61753 0.0
C1736 C 0.07581 0.00955 0.6378 0.0
H1737 H 0.14558 0.01209 0.71829 0.0
H1738 H 0.12973 0.01126 0.68596 0.0
H1739 H 0.07441 0.03031 0.68324 0.0
H1740 H 0.02605 0.00973 0.59095 0.0
H1741 H 0.03923 0.0116 0.62463 0.0
C1742 C 0.72882 0.35278 0.44148 0.0
C1743 C 0.74216 0.35006 0.45641 0.0
C1744 C 0.72772 0.34233 0.42352 0.0
C1745 C 0.72462 0.31222 0.38886 0.0
H1746 H 0.77372 0.31312 0.36897 0.0
C1747 C 0.73963 0.27338 0.31589 0.0
C1748 C 0.75109 0.28471 0.30442 0.0
C1749 C 0.73663 0.28014 0.33465 0.0
C1750 C 0.75992 0.31273 0.37435 0.0
H1751 H 0.76395 0.33353 0.46474 0.0
H1752 H 0.76203 0.31541 0.4335 0.0
H1753 H 0.77149 0.32636 0.40182 0.0
H1754 H 0.76792 0.31217 0.30342 0.0
H1755 H 0.76288 0.32373 0.33605 0.0
H1756 H 0.71314 0.29873 0.36106 0.0
C1757 C 0.7526 0.32572 0.43555 0.0
C1758 C 0.75865 0.32015 0.39319 0.0
C1759 C 0.75366 0.33608 0.45344 0.0
C1760 C 0.7591 0.30302 0.31188 0.0
C1761 C 0.75628 0.30965 0.33059 0.0
C1762 C 0.72592 0.30456 0.36998 0.0
C1763 C 0.73999 0.32909 0.42027 0.0
C1764 C 0.741 0.32014 0.40059 0.0
C1765 C 0.74525 0.29821 0.34224 0.0
C1766 C 0.74359 0.30503 0.36252 0.0
H1767 H 0.71975 0.36343 0.44342 0.0
H1768 H 0.71793 0.34526 0.41193 0.0
H1769 H 0.71086 0.312 0.39428 0.0
H1770 H 0.7332 0.25924 0.31049 0.0
H1771 H 0.72809 0.27107 0.34342 0.0
C1772 C 0.42056 0.0029 0.21023 0.0
C1773 C 0.42934 0.01459 0.22635 0.0
C1774 C 0.43077 0.99861 0.1946 0.0
C1775 C 0.47383 0.01607 0.17153 0.0
H1776 H 0.46053 0.96837 0.14037 0.0
C1777 C 0.50613 0.00079 0.09936 0.0
C1778 C 0.49194 0.99692 0.08403 0.0
C1779 C 0.50147 -8e-05 0.11852 0.0
C1780 C 0.46452 0.98167 0.14907 0.0
H1781 H 0.45577 0.03059 0.23906 0.0
H1782 H 0.47377 0.02274 0.21197 0.0
H1783 H 0.44677 0.97298 0.17112 0.0
H1784 H 0.4621 0.98791 0.0764 0.0
H1785 H 0.45405 0.98589 0.10971 0.0
H1786 H 0.4914 0.02475 0.14924 0.0
C1787 C 0.45889 0.01721 0.21116 0.0
C1788 C 0.45653 0.9844 0.16657 0.0
C1789 C 0.4486 0.02167 0.22671 0.0
C1790 C 0.47327 0.99104 0.08801 0.0
C1791 C 0.46869 0.98977 0.10704 0.0
C1792 C 0.48201 0.01323 0.15414 0.0
C1793 C 0.45007 0.00572 0.19484 0.0
C1794 C 0.46059 0.00187 0.1777 0.0
C1795 C 0.48264 0.9947 0.12249 0.0
C1796 C 0.47696 0.99622 0.14248 0.0
H1797 H 0.4057 0.99729 0.20954 0.0
H1798 H 0.42337 0.99007 0.18213 0.0
H1799 H 0.47717 0.02976 0.17957 0.0
H1800 H 0.52062 0.00545 0.09661 0.0
H1801 H 0.51244 0.00378 0.13023 0.0
C1802 C 0.78646 0.68514 0.95251 0.0
C1803 C 0.77887 0.66602 0.95245 0.0
C1804 C 0.78703 0.6939 0.9352 0.0
C1805 C 0.76392 0.6889 0.88558 0.0
H1806 H 0.80695 0.72432 0.8745 0.0
C1807 C 0.76988 0.71529 0.81028 0.0
C1808 C 0.77544 0.7347 0.80922 0.0
C1809 C 0.77151 0.70732 0.8279 0.0
C1810 C 0.79477 0.71459 0.87749 0.0
H1811 H 0.76637 0.64094 0.93423 0.0
H1812 H 0.76756 0.65611 0.90405 0.0
H1813 H 0.80752 0.70954 0.9051 0.0
H1814 H 0.78771 0.76088 0.82577 0.0
H1815 H 0.7905 0.74689 0.8567 0.0
H1816 H 0.75115 0.69387 0.85807 0.0
C1817 C 0.77278 0.66446 0.91747 0.0
C1818 C 0.79509 0.70614 0.895 0.0
C1819 C 0.7722 0.65573 0.93475 0.0
C1820 C 0.78331 0.74588 0.8261 0.0
C1821 C 0.78495 0.73786 0.8438 0.0
C1822 C 0.76362 0.6973 0.86813 0.0
C1823 C 0.78001 0.68369 0.9175 0.0
C1824 C 0.77971 0.69307 0.89915 0.0
C1825 C 0.77874 0.71855 0.84492 0.0
C1826 C 0.77909 0.71011 0.86379 0.0
H1827 H 0.7917 0.69342 0.96596 0.0
H1828 H 0.79255 0.70877 0.93573 0.0
H1829 H 0.75167 0.67924 0.88851 0.0
H1830 H 0.76395 0.70622 0.79753 0.0
H1831 H 0.76697 0.69233 0.8282 0.0
C1832 C 0.84279 0.0975 0.00385 0.0
C1833 C 0.82594 0.09187 0.01223 0.0
C1834 C 0.85618 0.08532 0.00223 0.0
C1835 C 0.88046 0.05511 0.99424 0.0
H1836 H 0.8895 0.0281 0.03944 0.0
C1837 C 0.94641 0.01832 0.00489 0.0
C1838 C 0.95619 0.02313 0.02324 0.0
C1839 C 0.92789 0.022 0.00147 0.0
C1840 C 0.88712 0.03548 0.02666 0.0
H1841 H 0.80942 0.06881 0.02459 0.0
H1842 H 0.83257 0.04735 0.02135 0.0
H1843 H 0.86221 0.04434 0.03669 0.0
H1844 H 0.95394 0.03451 0.05262 0.0
H1845 H 0.92205 0.04102 0.04668 0.0
H1846 H 0.9062 0.04732 0.98494 0.0
C1847 C 0.8357 0.06133 0.01647 0.0
C1848 C 0.87132 0.04464 0.02495 0.0
C1849 C 0.82239 0.07359 0.01827 0.0
C1850 C 0.94683 0.03073 0.03828 0.0
C1851 C 0.92842 0.0343 0.03491 0.0
C1852 C 0.89638 0.04605 0.99602 0.0
C1853 C 0.85293 0.06716 0.00878 0.0
C1854 C 0.86809 0.05508 0.00902 0.0
C1855 C 0.91883 0.03038 0.01638 0.0
C1856 C 0.90022 0.03669 0.01259 0.0
H1857 H 0.84589 0.11152 -0.00093 0.0
H1858 H 0.86938 0.09046 0.99653 0.0
H1859 H 0.87819 0.06267 0.98156 0.0
H1860 H 0.9533 0.01245 0.99303 0.0
H1861 H 0.92081 0.01868 0.98707 0.0
C1862 C 0.33526 0.40588 0.03908 0.0
C1863 C 0.32042 0.41554 0.04398 0.0
C1864 C 0.35355 0.41551 0.03937 0.0
C1865 C 0.385 0.45944 0.05742 0.0
H1866 H 0.41129 0.44792 0.01229 0.0
C1867 C 0.45547 0.50313 0.04039 0.0
C1868 C 0.46892 0.49285 0.03291 0.0
C1869 C 0.43734 0.49407 0.04288 0.0
C1870 C 0.40426 0.45116 0.02511 0.0
H1871 H 0.31317 0.4427 0.05379 0.0
H1872 H 0.34522 0.4596 0.05421 0.0
H1873 H 0.37994 0.43117 0.0152 0.0
H1874 H 0.47407 0.46492 0.02277 0.0
H1875 H 0.44275 0.44921 0.02734 0.0
H1876 H 0.40947 0.47948 0.0673 0.0
C1877 C 0.3427 0.44455 0.05024 0.0
C1878 C 0.38628 0.44154 0.02678 0.0
C1879 C 0.32435 0.43489 0.04993 0.0
C1880 C 0.46401 0.47332 0.02836 0.0
C1881 C 0.44599 0.46431 0.0309 0.0
C1882 C 0.40309 0.46907 0.05577 0.0
C1883 C 0.35741 0.43502 0.04455 0.0
C1884 C 0.3765 0.44546 0.043 0.0
C1885 C 0.43236 0.47458 0.03795 0.0
C1886 C 0.41296 0.46491 0.03965 0.0
H1887 H 0.33268 0.39094 0.03455 0.0
H1888 H 0.36467 0.40772 0.03525 0.0
H1889 H 0.37782 0.4627 0.07013 0.0
H1890 H 0.45883 0.51821 0.04403 0.0
H1891 H 0.42711 0.5024 0.04822 0.0
C1892 C 0.34872 0.56378 0.76951 0.0
C1893 C 0.3677 0.56663 0.76539 0.0
C1894 C 0.33916 0.57915 0.77297 0.0
C1895 C 0.34763 0.6307 0.78621 0.0
H1896 H 0.29735 0.6297 0.76146 0.0
C1897 C 0.31759 0.69737 0.76913 0.0
C1898 C 0.29879 0.69876 0.77238 0.0
C1899 C 0.32478 0.68065 0.77155 0.0
C1900 C 0.31124 0.63005 0.76876 0.0
H1901 H 0.39154 0.58774 0.76157 0.0
H1902 H 0.37486 0.61449 0.76728 0.0
H1903 H 0.31237 0.6013 0.75911 0.0
H1904 H 0.27276 0.6838 0.78092 0.0
H1905 H 0.28535 0.65414 0.78482 0.0
H1906 H 0.34679 0.65964 0.7952 0.0
C1907 C 0.36741 0.60044 0.76821 0.0
C1908 C 0.31986 0.61381 0.76741 0.0
C1909 C 0.37694 0.5851 0.76477 0.0
C1910 C 0.28732 0.6831 0.77835 0.0
C1911 C 0.29448 0.66616 0.78051 0.0
C1912 C 0.33907 0.64691 0.78747 0.0
C1913 C 0.34842 0.59767 0.7724 0.0
C1914 C 0.33836 0.61412 0.77568 0.0
C1915 C 0.31329 0.66482 0.7771 0.0
C1916 C 0.321 0.64689 0.77833 0.0
H1917 H 0.34126 0.54967 0.77013 0.0
H1918 H 0.32458 0.57655 0.77628 0.0
H1919 H 0.36171 0.63128 0.79315 0.0
H1920 H 0.32683 0.70922 0.76462 0.0
H1921 H 0.33925 0.67997 0.76857 0.0
C1922 C 0.22415 0.58955 0.52804 0.0
C1923 C 0.23002 0.60904 0.53165 0.0
C1924 C 0.20522 0.58198 0.52864 0.0
C1925 C 0.15942 0.59344 0.54446 0.0
H1926 H 0.13843 0.55446 0.50407 0.0
C1927 C 0.08015 0.57563 0.51909 0.0
C1928 C 0.07252 0.55652 0.51504 0.0
C1929 C 0.09945 0.58094 0.52402 0.0
C1930 C 0.14413 0.56514 0.51561 0.0
H1931 H 0.22083 0.63588 0.53902 0.0
H1932 H 0.18776 0.62282 0.53949 0.0
H1933 H 0.17212 0.56576 0.50711 0.0
H1934 H 0.07905 0.52793 0.51367 0.0
H1935 H 0.11282 0.53727 0.52208 0.0
H1936 H 0.13114 0.59326 0.55235 0.0
C1937 C 0.19776 0.61325 0.53665 0.0
C1938 C 0.16347 0.5716 0.51741 0.0
C1939 C 0.21671 0.62078 0.53625 0.0
C1940 C 0.0845 0.54278 0.51665 0.0
C1941 C 0.10383 0.54811 0.52138 0.0
C1942 C 0.14003 0.58709 0.54252 0.0
C1943 C 0.19173 0.59378 0.53265 0.0
C1944 C 0.17135 0.58599 0.53172 0.0
C1945 C 0.11152 0.56725 0.52482 0.0
C1946 C 0.13219 0.57302 0.52795 0.0
H1947 H 0.23416 0.58015 0.52461 0.0
H1948 H 0.20116 0.56688 0.52584 0.0
H1949 H 0.16504 0.60428 0.55587 0.0
H1950 H 0.07127 0.58653 0.51805 0.0
H1951 H 0.10503 0.5958 0.52646 0.0
C1952 C 0.6657 0.93982 0.77951 0.0
C1953 C 0.67422 0.95598 0.77159 0.0
C1954 C 0.67627 0.92583 0.78461 0.0
C1955 C 0.7199 0.90696 0.7744 0.0
H1956 H 0.70718 0.87764 0.81752 0.0
C1957 C 0.75237 0.83979 0.78867 0.0
C1958 C 0.73813 0.82417 0.78815 0.0
C1959 C 0.74786 0.8581 0.79094 0.0
C1960 C 0.71102 0.88584 0.80556 0.0
H1961 H 0.70054 0.97037 0.76308 0.0
H1962 H 0.71911 0.94603 0.77225 0.0
H1963 H 0.69292 0.90595 0.81279 0.0
H1964 H 0.70847 0.8152 0.79091 0.0
H1965 H 0.70072 0.847 0.7954 0.0
H1966 H 0.73769 0.88652 0.76699 0.0
C1967 C 0.70419 0.94401 0.77425 0.0
C1968 C 0.70275 0.90195 0.80273 0.0
C1969 C 0.69357 0.95797 0.76903 0.0
C1970 C 0.71967 0.82706 0.79124 0.0
C1971 C 0.71527 0.84525 0.79391 0.0
C1972 C 0.72831 0.89093 0.77735 0.0
C1973 C 0.69565 0.92773 0.78205 0.0
C1974 C 0.70656 0.91232 0.78671 0.0
C1975 C 0.72917 0.86095 0.79319 0.0
C1976 C 0.72345 0.87988 0.79258 0.0
H1977 H 0.6508 0.93787 0.78161 0.0
H1978 H 0.6691 0.91331 0.79017 0.0
H1979 H 0.72308 0.9145 0.76183 0.0
H1980 H 0.76668 0.83787 0.78617 0.0
H1981 H 0.75882 0.87001 0.79035 0.0
C1982 C 0.72148 0.9372 0.51764 0.0
C1983 C 0.71928 0.9188 0.52355 0.0
C1984 C 0.70575 0.94628 0.51418 0.0
C1985 C 0.65379 0.93658 0.50448 0.0
H1986 H 0.65515 0.98811 0.52602 0.0
C1987 C 0.58743 0.96642 0.52266 0.0
C1988 C 0.58506 0.98446 0.51735 0.0
C1989 C 0.60441 0.95965 0.52063 0.0
C1990 C 0.65467 0.97383 0.51963 0.0
H1991 H 0.69898 0.89544 0.5304 0.0
H1992 H 0.67166 0.91126 0.52461 0.0
H1993 H 0.68399 0.97372 0.52761 0.0
H1994 H 0.59872 0.00965 0.50588 0.0
H1995 H 0.62884 0.9978 0.50266 0.0
H1996 H 0.62436 0.93644 0.4972 0.0
C1997 C 0.68544 0.91863 0.52233 0.0
C1998 C 0.67116 0.96558 0.52053 0.0
C1999 C 0.70111 0.9096 0.5258 0.0
C2000 C 0.60016 0.99569 0.51007 0.0
C2001 C 0.61735 0.98895 0.50827 0.0
C2002 C 0.63735 0.94477 0.50368 0.0
C2003 C 0.68755 0.93708 0.51649 0.0
C2004 C 0.67076 0.94668 0.51343 0.0
C2005 C 0.61954 0.97079 0.51339 0.0
C2006 C 0.63752 0.96329 0.51172 0.0
H2007 H 0.73534 0.94462 0.51577 0.0
H2008 H 0.70783 0.96044 0.50957 0.0
H2009 H 0.65311 0.92215 0.49846 0.0
H2010 H 0.57609 0.95738 0.52828 0.0
H2011 H 0.6058 0.94572 0.52498 0.0
C2012 C 0.3558 0.46204 0.76994 0.0
C2013 C 0.36037 0.47008 0.75276 0.0
C2014 C 0.34493 0.4443 0.76928 0.0
C2015 C 0.31054 0.40946 0.74002 0.0
H2016 H 0.33163 0.3741 0.77162 0.0
C2017 C 0.27797 0.33026 0.73994 0.0
C2018 C 0.27957 0.32228 0.75772 0.0
C2019 C 0.28664 0.34874 0.73823 0.0
C2020 C 0.32536 0.38384 0.76293 0.0
H2021 H 0.3566 0.46618 0.72142 0.0
H2022 H 0.33725 0.43504 0.72029 0.0
H2023 H 0.3488 0.40559 0.77063 0.0
H2024 H 0.29013 0.32763 0.78792 0.0
H2025 H 0.30452 0.35986 0.78519 0.0
H2026 H 0.28682 0.38775 0.73268 0.0
C2027 C 0.34222 0.44254 0.73422 0.0
C2028 C 0.33527 0.40186 0.7623 0.0
C2029 C 0.35334 0.46027 0.73488 0.0
C2030 C 0.28899 0.33334 0.77395 0.0
C2031 C 0.29735 0.35178 0.77233 0.0
C2032 C 0.30044 0.3914 0.74082 0.0
C2033 C 0.33823 0.43428 0.75144 0.0
C2034 C 0.32788 0.41492 0.75106 0.0
C2035 C 0.29683 0.35954 0.75435 0.0
C2036 C 0.30763 0.37848 0.75254 0.0
H2037 H 0.36096 0.46928 0.78394 0.0
H2038 H 0.34187 0.43832 0.78276 0.0
H2039 H 0.30456 0.41933 0.73125 0.0
H2040 H 0.27078 0.32196 0.72721 0.0
H2041 H 0.28598 0.35428 0.72416 0.0
C2042 C 0.1596 0.56609 0.25692 0.0
C2043 C 0.17041 0.55213 0.26194 0.0
C2044 C 0.16801 0.58481 0.25695 0.0
C2045 C 0.21006 0.61774 0.27765 0.0
H2046 H 0.19129 0.65047 0.24125 0.0
C2047 C 0.24045 0.69667 0.27889 0.0
C2048 C 0.22674 0.70874 0.27966 0.0
C2049 C 0.23513 0.6773 0.27425 0.0
C2050 C 0.19667 0.64147 0.25149 0.0
H2051 H 0.19857 0.54667 0.27045 0.0
H2052 H 0.21342 0.57936 0.27007 0.0
H2053 H 0.17942 0.61677 0.23759 0.0
H2054 H 0.19683 0.71016 0.27533 0.0
H2055 H 0.18759 0.67639 0.267 0.0
H2056 H 0.22728 0.64254 0.29153 0.0
C2057 C 0.19835 0.57592 0.2665 0.0
C2058 C 0.18983 0.62219 0.24947 0.0
C2059 C 0.18988 0.55718 0.26663 0.0
C2060 C 0.20771 0.70119 0.27494 0.0
C2061 C 0.20242 0.68189 0.27006 0.0
C2062 C 0.21705 0.63699 0.27953 0.0
C2063 C 0.18748 0.59 0.26182 0.0
C2064 C 0.19614 0.61014 0.26278 0.0
C2065 C 0.21604 0.66972 0.27001 0.0
C2066 C 0.21014 0.64908 0.2667 0.0
H2067 H 0.14453 0.56262 0.25333 0.0
H2068 H 0.15911 0.59528 0.25364 0.0
H2069 H 0.21507 0.60897 0.28833 0.0
H2070 H 0.25524 0.70208 0.28246 0.0
H2071 H 0.24591 0.66822 0.27419 0.0
C2072 C 0.5334 0.7096 0.43937 0.0
C2073 C 0.52937 0.70759 0.41917 0.0
C2074 C 0.53751 0.69424 0.44929 0.0
C2075 C 0.553 0.64763 0.44245 0.0
H2076 H 0.52348 0.63488 0.48539 0.0
C2077 C 0.53666 0.57226 0.46426 0.0
C2078 C 0.53384 0.56904 0.48359 0.0
C2079 C 0.54057 0.59059 0.45878 0.0
C2080 C 0.5322 0.63841 0.47374 0.0
H2081 H 0.52694 0.68813 0.39345 0.0
H2082 H 0.53422 0.66142 0.41071 0.0
H2083 H 0.52187 0.6647 0.47127 0.0
H2084 H 0.53413 0.58249 0.51259 0.0
H2085 H 0.54124 0.61461 0.50304 0.0
H2086 H 0.56305 0.62122 0.44461 0.0
C2087 C 0.53426 0.67484 0.4189 0.0
C2088 C 0.53122 0.6555 0.46562 0.0
C2089 C 0.52994 0.69009 0.40903 0.0
C2090 C 0.53612 0.58452 0.49755 0.0
C2091 C 0.54007 0.60292 0.49206 0.0
C2092 C 0.5541 0.63063 0.45066 0.0
C2093 C 0.53793 0.67669 0.43913 0.0
C2094 C 0.54115 0.66 0.44952 0.0
C2095 C 0.54184 0.60617 0.47251 0.0
C2096 C 0.54325 0.62553 0.466 0.0
H2097 H 0.53308 0.72295 0.44754 0.0
H2098 H 0.54034 0.69606 0.46489 0.0
H2099 H 0.56106 0.65091 0.43025 0.0
H2100 H 0.5351 0.56065 0.45314 0.0
H2101 H 0.54163 0.5925 0.44357 0.0
C2102 C 0.59408 0.27892 0.66775 0.0
C2103 C 0.5785 0.28109 0.67827 0.0
C2104 C 0.61197 0.27992 0.67731 0.0
C2105 C 0.64078 0.29577 0.72332 0.0
H2106 H 0.66937 0.2567 0.70644 0.0
C2107 C 0.71002 0.28094 0.76445 0.0
C2108 C 0.72411 0.27626 0.75281 0.0
C2109 C 0.69227 0.2831 0.75596 0.0
C2110 C 0.66168 0.26785 0.71119 0.0
H2111 H 0.56946 0.28663 0.70695 0.0
H2112 H 0.6008 0.28823 0.72371 0.0
H2113 H 0.6385 0.25784 0.69029 0.0
H2114 H 0.7311 0.27133 0.72319 0.0
H2115 H 0.70045 0.27536 0.7085 0.0
H2116 H 0.66412 0.30571 0.74431 0.0
C2117 C 0.59918 0.28589 0.70806 0.0
C2118 C 0.64399 0.2685 0.70192 0.0
C2119 C 0.58124 0.28487 0.69848 0.0
C2120 C 0.72042 0.27459 0.73258 0.0
C2121 C 0.70283 0.27684 0.72415 0.0
C2122 C 0.65858 0.29514 0.73262 0.0
C2123 C 0.61466 0.28309 0.69759 0.0
C2124 C 0.6334 0.28255 0.70775 0.0
C2125 C 0.68841 0.28067 0.73572 0.0
C2126 C 0.66928 0.28126 0.7265 0.0
H2127 H 0.59241 0.27612 0.65214 0.0
H2128 H 0.62371 0.27803 0.66882 0.0
H2129 H 0.63295 0.3068 0.72807 0.0
H2130 H 0.71251 0.28233 0.78009 0.0
H2131 H 0.6814 0.28602 0.76524 0.0
C2132 C 0.00285 0.30665 0.92753 0.0
C2133 C 0.01991 0.29988 0.92473 0.0
C2134 C 0.00284 0.32457 0.93672 0.0
C2135 C 0.03287 0.37044 0.94504 0.0
H2136 H 0.99492 0.38272 0.97877 0.0
C2137 C 0.01585 0.43958 0.99329 0.0
C2138 C 0.019 0.45289 0.9796 0.0
C2139 C 0.01498 0.42032 0.98785 0.0
C2140 C 0.00567 0.37948 0.96948 0.0
H2141 H 0.0503 0.30617 0.9301 0.0
H2142 H 0.0503 0.3375 0.94629 0.0
H2143 H 0.99632 0.34972 0.96842 0.0
H2144 H 0.02253 0.4564 0.94927 0.0
H2145 H 0.02077 0.42294 0.9398 0.0
H2146 H 0.04227 0.40008 0.94608 0.0
C2147 C 0.03694 0.32903 0.94114 0.0
C2148 C 0.0064 0.36062 0.96345 0.0
C2149 C 0.03694 0.31108 0.93196 0.0
C2150 C 0.02027 0.44653 0.96022 0.0
C2151 C 0.01941 0.42736 0.9548 0.0
C2152 C 0.0321 0.38923 0.951 0.0
C2153 C 0.01989 0.33612 0.94328 0.0
C2154 C 0.01991 0.35592 0.95101 0.0
C2155 C 0.01727 0.41409 0.96864 0.0
C2156 C 0.01834 0.39398 0.96306 0.0
H2157 H 0.98948 0.29832 0.92213 0.0
H2158 H 0.98948 0.32967 0.93795 0.0
H2159 H 0.0433 0.36734 0.93529 0.0
H2160 H 0.01487 0.44406 0.00836 0.0
H2161 H 0.01334 0.41042 -0.00117 0.0
C2162 C 0.97618 0.79203 0.18791 0.0
C2163 C 0.97951 0.77489 0.17881 0.0
C2164 C 0.96123 0.79249 0.19957 0.0
C2165 C 0.9285 0.76357 0.22763 0.0
H2166 H 0.89535 0.80007 0.21638 0.0
C2167 C 0.85341 0.76023 0.25379 0.0
C2168 C 0.84626 0.77726 0.25675 0.0
C2169 C 0.87133 0.76017 0.24718 0.0
C2170 C 0.90462 0.79004 0.22008 0.0
H2171 H 0.97017 0.74471 0.17518 0.0
H2172 H 0.94404 0.74552 0.19566 0.0
H2173 H 0.92355 0.79964 0.19936 0.0
H2174 H 0.8526 0.80762 0.25686 0.0
H2175 H 0.8841 0.80766 0.24633 0.0
H2176 H 0.90952 0.75397 0.24841 0.0
C2177 C 0.95303 0.75858 0.19379 0.0
C2178 C 0.92077 0.78976 0.21022 0.0
C2179 C 0.96788 0.75814 0.18196 0.0
C2180 C 0.85775 0.79428 0.25443 0.0
C2181 C 0.87572 0.79426 0.24822 0.0
C2182 C 0.91239 0.76397 0.2377 0.0
C2183 C 0.94942 0.77579 0.20251 0.0
C2184 C 0.93281 0.77646 0.21378 0.0
C2185 C 0.88245 0.77718 0.24372 0.0
C2186 C 0.90019 0.77717 0.23396 0.0
H2187 H 0.98496 0.80515 0.18579 0.0
H2188 H 0.95884 0.80593 0.20625 0.0
H2189 H 0.93764 0.75324 0.23074 0.0
H2190 H 0.84472 0.74692 0.25536 0.0
H2191 H 0.87599 0.74674 0.24378 0.0
C2192 C 0.50693 0.30532 0.08484 0.0
C2193 C 0.51595 0.30488 0.10337 0.0
C2194 C 0.51067 0.32113 0.07447 0.0
C2195 C 0.52925 0.37198 0.08145 0.0
H2196 H 0.52894 0.36702 0.02545 0.0
C2197 C 0.54267 0.437 0.03877 0.0
C2198 C 0.52863 0.43796 0.02384 0.0
C2199 C 0.544 0.42006 0.04698 0.0
C2200 C 0.52906 0.36858 0.04108 0.0
H2201 H 0.53627 0.32041 0.12546 0.0
H2202 H 0.54318 0.34793 0.10718 0.0
H2203 H 0.52589 0.33879 0.04319 0.0
H2204 H 0.50589 0.42158 0.00488 0.0
H2205 H 0.5083 0.39194 0.01921 0.0
H2206 H 0.53234 0.40174 0.07932 0.0
C2207 C 0.53289 0.33623 0.1008 0.0
C2208 C 0.52723 0.35244 0.05125 0.0
C2209 C 0.529 0.32045 0.11126 0.0
C2210 C 0.51681 0.42133 0.0164 0.0
C2211 C 0.51822 0.40433 0.02457 0.0
C2212 C 0.53124 0.38808 0.0713 0.0
C2213 C 0.52367 0.33682 0.08232 0.0
C2214 C 0.52702 0.35394 0.07155 0.0
C2215 C 0.53143 0.4037 0.04036 0.0
C2216 C 0.53093 0.38655 0.05101 0.0
H2217 H 0.49675 0.29352 0.07842 0.0
H2218 H 0.50305 0.3212 0.06045 0.0
H2219 H 0.52881 0.3737 0.09701 0.0
H2220 H 0.55213 0.44951 0.04475 0.0
H2221 H 0.55451 0.41989 0.05893 0.0
C2222 C 0.96913 0.28557 0.34867 0.0
C2223 C 0.97118 0.27246 0.36239 0.0
C2224 C 0.95122 0.28768 0.34065 0.0
C2225 C 0.90035 0.27618 0.34897 0.0
H2226 H 0.89268 0.28789 0.2957 0.0
C2227 C 0.8354 0.27061 0.28591 0.0
C2228 C 0.82117 0.27455 0.29768 0.0
C2229 C 0.85423 0.2734 0.29345 0.0
C2230 C 0.8945 0.28447 0.31056 0.0
H2231 H 0.95629 0.25084 0.37803 0.0
H2232 H 0.9252 0.25376 0.36342 0.0
H2233 H 0.92418 0.28515 0.30923 0.0
H2234 H 0.81548 0.2859 0.326 0.0
H2235 H 0.84841 0.29186 0.33887 0.0
H2236 H 0.87062 0.27417 0.35 0.0
C2237 C 0.93724 0.26302 0.35934 0.0
C2238 C 0.91268 0.28317 0.31844 0.0
C2239 C 0.95509 0.26118 0.3676 0.0
C2240 C 0.8262 0.28256 0.31669 0.0
C2241 C 0.84507 0.28577 0.3241 0.0
C2242 C 0.88217 0.27714 0.34101 0.0
C2243 C 0.935 0.27648 0.34596 0.0
C2244 C 0.91582 0.27877 0.3377 0.0
C2245 C 0.85928 0.28057 0.31282 0.0
C2246 C 0.87893 0.28113 0.32163 0.0
H2247 H 0.98134 0.29455 0.34451 0.0
H2248 H 0.95011 0.29836 0.33061 0.0
H2249 H 0.90219 0.27322 0.36398 0.0
H2250 H 0.83189 0.26427 0.27123 0.0
H2251 H 0.86463 0.26899 0.28432 0.0
C2252 C 0.98148 0.70224 0.59162 0.0
C2253 C 0.98759 0.704 0.61142 0.0
C2254 C 0.97876 0.68463 0.58109 0.0
C2255 C 0.97525 0.63308 0.5863 0.0
H2256 H 0.99781 0.63235 0.5373 0.0
C2257 C 0.00411 0.5689 0.55307 0.0
C2258 C 0.00081 0.56423 0.533 0.0
C2259 C -0.0013 0.58525 0.56149 0.0
C2260 C 0.99115 0.63233 0.55078 0.0
H2261 H 0.9949 0.68869 0.63592 0.0
H2262 H 0.99058 0.65807 0.61755 0.0
H2263 H 0.99467 0.66241 0.5543 0.0
H2264 H 0.98905 0.57291 0.50604 0.0
H2265 H 0.97983 0.60178 0.52084 0.0
H2266 H 0.9726 0.60295 0.58312 0.0
C2267 C 0.98755 0.67017 0.61014 0.0
C2268 C 0.98929 0.64955 0.56052 0.0
C2269 C 0.99016 0.68775 0.62067 0.0
C2270 C 0.99179 0.57616 0.52155 0.0
C2271 C 0.98656 0.59268 0.52998 0.0
C2272 C 0.97724 0.61587 0.57662 0.0
C2273 C 0.9822 0.66845 0.59014 0.0
C2274 C 0.98174 0.65014 0.57862 0.0
C2275 C 0.99001 0.59738 0.55003 0.0
C2276 C 0.98561 0.61537 0.55899 0.0
H2277 H 0.97926 0.71454 0.58415 0.0
H2278 H 0.97434 0.68374 0.56577 0.0
H2279 H 0.96903 0.63303 0.60002 0.0
H2280 H 0.01094 0.55994 0.56231 0.0
H2281 H 0.00177 0.58866 0.57695 0.0
C2282 C 0.58183 0.77669 0.85996 0.0
C2283 C 0.5679 0.7611 0.86106 0.0
C2284 C 0.59824 0.77454 0.85105 0.0
C2285 C 0.62007 0.74318 0.81791 0.0
H2286 H 0.6663 0.76801 0.84662 0.0
C2287 C 0.70655 0.74816 0.82005 0.0
C2288 C 0.70952 0.7518 0.80085 0.0
C2289 C 0.68845 0.74642 0.82629 0.0
C2290 C 0.65355 0.7608 0.83851 0.0
H2291 H 0.55983 0.73117 0.85302 0.0
H2292 H 0.58863 0.72739 0.83748 0.0
H2293 H 0.6362 0.77135 0.8591 0.0
H2294 H 0.69576 0.75518 0.77278 0.0
H2295 H 0.66404 0.75234 0.78379 0.0
H2296 H 0.63764 0.73256 0.79733 0.0
C2297 C 0.5868 0.74128 0.84344 0.0
C2298 C 0.63627 0.76295 0.84553 0.0
C2299 C 0.57036 0.74344 0.85241 0.0
C2300 C 0.69388 0.75236 0.78766 0.0
C2301 C 0.67571 0.75071 0.79396 0.0
C2302 C 0.63744 0.7411 0.81079 0.0
C2303 C 0.60108 0.75675 0.84303 0.0
C2304 C 0.61933 0.75426 0.8353 0.0
C2305 C 0.67293 0.74841 0.81352 0.0
C2306 C 0.65437 0.74988 0.82106 0.0
H2307 H 0.58028 0.7905 0.86638 0.0
H2308 H 0.60885 0.78679 0.85066 0.0
H2309 H 0.60723 0.73637 0.80968 0.0
H2310 H 0.71831 0.7474 0.83048 0.0
H2311 H 0.6867 0.74419 0.84134 0.0
C2312 C 0.44663 0.52823 0.7088 0.0
C2313 C 0.42687 0.52666 0.70734 0.0
C2314 C 0.45653 0.53 0.69228 0.0
C2315 C 0.45046 0.51914 0.63965 0.0
H2316 H 0.49591 0.55526 0.63907 0.0
C2317 C 0.48499 0.53049 0.5691 0.0
C2318 C 0.50472 0.53213 0.56972 0.0
C2319 C 0.47596 0.53151 0.58614 0.0
C2320 C 0.48336 0.54497 0.63907 0.0
H2321 H 0.40199 0.52591 0.68753 0.0
H2322 H 0.41926 0.52889 0.65871 0.0
H2323 H 0.47927 0.55348 0.6685 0.0
H2324 H 0.53053 0.53689 0.5887 0.0
H2325 H 0.51471 0.53823 0.61862 0.0
H2326 H 0.45458 0.5103 0.61049 0.0
C2327 C 0.42709 0.52865 0.67259 0.0
C2328 C 0.47383 0.54397 0.6559 0.0
C2329 C 0.41721 0.52702 0.6891 0.0
C2330 C 0.5153 0.5356 0.58777 0.0
C2331 C 0.50622 0.53641 0.6049 0.0
C2332 C 0.46002 0.52004 0.62292 0.0
C2333 C 0.44685 0.53007 0.67399 0.0
C2334 C 0.4572 0.53112 0.6563 0.0
C2335 C 0.48641 0.53395 0.60428 0.0
C2336 C 0.4765 0.53306 0.62233 0.0
H2337 H 0.45445 0.52803 0.72269 0.0
H2338 H 0.47174 0.53091 0.69378 0.0
H2339 H 0.4379 0.50884 0.63963 0.0
H2340 H 0.47644 0.52808 0.5554 0.0
H2341 H 0.46072 0.53009 0.58507 0.0
C2342 C 0.79385 0.17616 0.97076 0.0
C2343 C 0.78082 0.1601 0.97293 0.0
C2344 C 0.79027 0.18822 0.95655 0.0
C2345 C 0.76252 0.19036 0.91047 0.0
H2346 H 0.77453 0.24441 0.92304 0.0
C2347 C 0.74915 0.24145 0.85344 0.0
C2348 C 0.76459 0.25533 0.85141 0.0
C2349 C 0.74856 0.23138 0.86985 0.0
C2350 C 0.77115 0.22936 0.91931 0.0
H2351 H 0.75394 0.14389 0.96179 0.0
H2352 H 0.74766 0.16499 0.93688 0.0
H2353 H 0.77903 0.22304 0.94813 0.0
H2354 H 0.79081 0.2705 0.86564 0.0
H2355 H 0.78989 0.25279 0.89417 0.0
H2356 H 0.75506 0.19658 0.88158 0.0
C2357 C 0.7607 0.16819 0.94612 0.0
C2358 C 0.77377 0.21712 0.93364 0.0
C2359 C 0.76429 0.15612 0.96037 0.0
C2360 C 0.77874 0.25987 0.86674 0.0
C2361 C 0.77818 0.24974 0.88314 0.0
C2362 C 0.75993 0.20258 0.89614 0.0
C2363 C 0.77357 0.18447 0.9442 0.0
C2364 C 0.76974 0.19748 0.9293 0.0
C2365 C 0.76341 0.23495 0.88456 0.0
C2366 C 0.76444 0.22221 0.90033 0.0
H2367 H 0.80673 0.17958 0.98023 0.0
H2368 H 0.80062 0.20046 0.95519 0.0
H2369 H 0.75949 0.1753 0.90661 0.0
H2370 H 0.7379 0.23777 0.84197 0.0
H2371 H 0.73679 0.22034 0.87073 0.0
C2372 C 0.09807 0.47228 0.20737 0.0
C2373 C 0.11729 0.47996 0.20942 0.0
C2374 C 0.08751 0.47178 0.18957 0.0
C2375 C 0.08757 0.49871 0.1472 0.0
H2376 H 0.049 0.45867 0.12352 0.0
C2377 C 0.05489 0.50198 0.07094 0.0
C2378 C 0.03524 0.49739 0.06716 0.0
C2379 C 0.06381 0.49815 0.0883 0.0
C2380 C 0.05957 0.47003 0.13013 0.0
H2381 H 0.14085 0.49175 0.19418 0.0
H2382 H 0.1225 0.4907 0.16311 0.0
H2383 H 0.06735 0.45397 0.15353 0.0
H2384 H 0.00959 0.48463 0.07847 0.0
H2385 H 0.02537 0.47808 0.1093 0.0
H2386 H 0.07988 0.51486 0.12414 0.0
C2387 C 0.11551 0.48541 0.17533 0.0
C2388 C 0.0701 0.46731 0.14721 0.0
C2389 C 0.12604 0.4859 0.19307 0.0
C2390 C 0.02474 0.4884 0.08103 0.0
C2391 C 0.03376 0.48458 0.0986 0.0
C2392 C 0.07707 0.50143 0.13029 0.0
C2393 C 0.096 0.479 0.17358 0.0
C2394 C 0.08444 0.48155 0.15569 0.0
C2395 C 0.05337 0.48973 0.10248 0.0
C2396 C 0.0632 0.48702 0.12135 0.0
H2397 H 0.09096 0.46756 0.21974 0.0
H2398 H 0.07251 0.46678 0.18865 0.0
H2399 H 0.09812 0.51015 0.1537 0.0
H2400 H 0.0635 0.50864 0.06049 0.0
H2401 H 0.07899 0.50187 0.09065 0.0
C2402 C 0.76901 0.84155 0.48197 0.0
C2403 C 0.77157 0.86135 0.48307 0.0
C2404 C 0.76963 0.83114 0.46433 0.0
C2405 C 0.78685 0.83338 0.41615 0.0
H2406 H 0.74409 0.79472 0.40011 0.0
C2407 C 0.77029 0.80183 0.33711 0.0
C2408 C 0.7609 0.78326 0.33336 0.0
C2409 C 0.77389 0.8101 0.35607 0.0
C2410 C 0.75637 0.80514 0.40446 0.0
H2411 H 0.77732 0.8858 0.46678 0.0
H2412 H 0.77865 0.86753 0.43591 0.0
H2413 H 0.74623 0.81161 0.43199 0.0
H2414 H 0.74898 0.75838 0.34656 0.0
H2415 H 0.75589 0.77255 0.37973 0.0
H2416 H 0.79714 0.82687 0.38874 0.0
C2417 C 0.77612 0.86012 0.44871 0.0
C2418 C 0.75752 0.81489 0.42272 0.0
C2419 C 0.77525 0.87055 0.46632 0.0
C2420 C 0.75606 0.7728 0.349 0.0
C2421 C 0.7599 0.78099 0.368 0.0
C2422 C 0.78586 0.82344 0.39796 0.0
C2423 C 0.77307 0.84032 0.44752 0.0
C2424 C 0.77262 0.82927 0.42863 0.0
C2425 C 0.76841 0.79991 0.37176 0.0
C2426 C 0.77045 0.80938 0.39175 0.0
H2427 H 0.76617 0.83408 0.49466 0.0
H2428 H 0.76735 0.81589 0.46381 0.0
H2429 H 0.79875 0.84428 0.42048 0.0
H2430 H 0.77416 0.81029 0.32535 0.0
H2431 H 0.78023 0.82476 0.3583 0.0
C2432 C 0.4379 0.53361 0.81943 0.0
C2433 C 0.43242 0.51774 0.80618 0.0
C2434 C 0.44734 0.5319 0.83735 0.0
C2435 C 0.45161 0.49759 0.87284 0.0
H2436 H 0.49161 0.53571 0.89738 0.0
C2437 C 0.50027 0.51777 0.95046 0.0
C2438 C 0.48584 0.51668 0.96309 0.0
C2439 C 0.49589 0.51526 0.9304 0.0
C2440 C 0.48064 0.52479 0.89064 0.0
H2441 H 0.43304 0.48775 0.80098 0.0
H2442 H 0.44946 0.48475 0.83241 0.0
H2443 H 0.48085 0.53692 0.86339 0.0
H2444 H 0.45558 0.51115 0.96468 0.0
H2445 H 0.44796 0.50666 0.92977 0.0
H2446 H 0.45103 0.48577 0.90024 0.0
C2447 C 0.44639 0.49848 0.82894 0.0
C2448 C 0.47437 0.52559 0.87125 0.0
C2449 C 0.43708 0.50023 0.81093 0.0
C2450 C 0.46701 0.51216 0.95532 0.0
C2451 C 0.46265 0.50946 0.93532 0.0
C2452 C 0.45777 0.49688 0.89228 0.0
C2453 C 0.45138 0.51426 0.84244 0.0
C2454 C 0.45955 0.51221 0.86226 0.0
C2455 C 0.47701 0.51138 0.92264 0.0
C2456 C 0.4721 0.51069 0.90147 0.0
H2457 H 0.43449 0.54729 0.81616 0.0
H2458 H 0.45082 0.54427 0.84754 0.0
H2459 H 0.44007 0.48715 0.86635 0.0
H2460 H 0.51493 0.52123 0.95602 0.0
H2461 H 0.50724 0.51667 0.92096 0.0
C2462 C 0.80866 0.18501 0.07016 0.0
C2463 C 0.80522 0.16542 0.07137 0.0
C2464 C 0.8112 0.19735 0.08691 0.0
C2465 C 0.81888 0.1998 0.14064 0.0
H2466 H 0.7887 0.24029 0.13838 0.0
C2467 C 0.7872 0.23095 0.20643 0.0
C2468 C 0.78624 0.25036 0.20854 0.0
C2469 C 0.79408 0.22296 0.19007 0.0
C2470 C 0.79753 0.22933 0.13919 0.0
H2471 H 0.80263 0.14333 0.09101 0.0
H2472 H 0.80666 0.16485 0.12029 0.0
H2473 H 0.79272 0.2216 0.10879 0.0
H2474 H 0.79226 0.27675 0.19541 0.0
H2475 H 0.80412 0.26261 0.16642 0.0
H2476 H 0.82289 0.20705 0.17125 0.0
C2477 C 0.8077 0.17072 0.10643 0.0
C2478 C 0.79986 0.21859 0.12222 0.0
C2479 C 0.80527 0.15837 0.08966 0.0
C2480 C 0.79279 0.26174 0.19413 0.0
C2481 C 0.79953 0.25366 0.17756 0.0
C2482 C 0.81648 0.2105 0.15763 0.0
C2483 C 0.81023 0.19036 0.10522 0.0
C2484 C 0.81013 0.20337 0.12282 0.0
C2485 C 0.80007 0.23415 0.17533 0.0
C2486 C 0.80534 0.22502 0.15713 0.0
H2487 H 0.80888 0.19084 0.05622 0.0
H2488 H 0.81346 0.21238 0.08548 0.0
H2489 H 0.82718 0.18841 0.14154 0.0
H2490 H 0.78241 0.22182 0.21737 0.0
H2491 H 0.79406 0.20786 0.18866 0.0
C2492 C 0.11463 0.50796 0.32743 0.0
C2493 C 0.10894 0.50879 0.30781 0.0
C2494 C 0.10273 0.51198 0.34167 0.0
C2495 C 0.05267 0.51463 0.34866 0.0
H2496 H 0.07389 0.53991 0.39822 0.0
C2497 C 0.03029 0.54222 0.42896 0.0
C2498 C 0.01789 0.52612 0.43246 0.0
C2499 C 0.03927 0.54279 0.41183 0.0
C2500 C 0.06763 0.53315 0.38436 0.0
H2501 H 0.08651 0.51477 0.28766 0.0
H2502 H 0.06591 0.52219 0.31252 0.0
H2503 H 0.09431 0.53596 0.37239 0.0
H2504 H 0.00416 0.49854 0.4202 0.0
H2505 H 0.02013 0.49932 0.39061 0.0
H2506 H 0.02593 0.51205 0.36059 0.0
C2507 C 0.07938 0.51806 0.31693 0.0
C2508 C 0.07942 0.53059 0.36964 0.0
C2509 C 0.09122 0.51389 0.30269 0.0
C2510 C 0.01363 0.51116 0.41793 0.0
C2511 C 0.02277 0.51165 0.40089 0.0
C2512 C 0.04083 0.51731 0.36335 0.0
C2513 C 0.08495 0.51708 0.33659 0.0
C2514 C 0.07216 0.52099 0.35174 0.0
C2515 C 0.03619 0.5272 0.39794 0.0
C2516 C 0.04822 0.5263 0.3815 0.0
H2517 H 0.12819 0.50399 0.33177 0.0
H2518 H 0.10734 0.51077 0.35665 0.0
H2519 H 0.0466 0.50706 0.33509 0.0
H2520 H 0.03368 0.55407 0.4398 0.0
H2521 H 0.04917 0.55519 0.4098 0.0
C2522 C 0.75602 0.86834 0.60133 0.0
C2523 C 0.75321 0.86006 0.58222 0.0
C2524 C 0.7524 0.85739 0.61681 0.0
C2525 C 0.74947 0.80859 0.63002 0.0
H2526 H 0.72682 0.82791 0.6748 0.0
C2527 C 0.73991 0.76646 0.69731 0.0
C2528 C 0.7461 0.77703 0.715 0.0
C2529 C 0.73752 0.77553 0.68033 0.0
C2530 C 0.7332 0.82233 0.66241 0.0
H2531 H 0.74411 0.83391 0.56427 0.0
H2532 H 0.73776 0.81481 0.59132 0.0
H2533 H 0.72916 0.84605 0.64653 0.0
H2534 H 0.75382 0.80539 0.72892 0.0
H2535 H 0.74982 0.82107 0.69951 0.0
H2536 H 0.75399 0.78514 0.64609 0.0
C2537 C 0.74291 0.82972 0.59435 0.0
C2538 C 0.73457 0.83274 0.64625 0.0
C2539 C 0.74648 0.84068 0.57887 0.0
C2540 C 0.74914 0.79681 0.7155 0.0
C2541 C 0.74668 0.80583 0.69864 0.0
C2542 C 0.74814 0.7982 0.64621 0.0
C2543 C 0.74594 0.83793 0.6135 0.0
C2544 C 0.74304 0.82616 0.63002 0.0
C2545 C 0.74113 0.79533 0.6808 0.0
C2546 C 0.74034 0.80514 0.66274 0.0
H2547 H 0.76122 0.88324 0.60434 0.0
H2548 H 0.7551 0.86409 0.63142 0.0
H2549 H 0.75623 0.80322 0.61781 0.0
H2550 H 0.73745 0.7512 0.69647 0.0
H2551 H 0.73307 0.76707 0.66681 0.0
C2552 C 0.7166 0.44099 0.51238 0.0
C2553 C 0.71423 0.4226 0.51826 0.0
C2554 C 0.70407 0.45337 0.51735 0.0
C2555 C 0.6562 0.45358 0.53387 0.0
H2556 H 0.6732 0.50725 0.54465 0.0
C2557 C 0.60505 0.50269 0.55729 0.0
C2558 C 0.60364 0.5173 0.54512 0.0
C2559 C 0.6205 0.49297 0.55722 0.0
C2560 C 0.66831 0.49228 0.5417 0.0
H2561 H 0.69722 0.40282 0.53428 0.0
H2562 H 0.67573 0.42449 0.54346 0.0
H2563 H 0.69607 0.48608 0.53776 0.0
H2564 H 0.61825 0.5344 0.52483 0.0
H2565 H 0.64533 0.51746 0.52485 0.0
H2566 H 0.6285 0.45976 0.5379 0.0
C2567 C 0.68688 0.42928 0.53454 0.0
C2568 C 0.68135 0.48016 0.53762 0.0
C2569 C 0.69924 0.41685 0.52934 0.0
C2570 C 0.61885 0.52314 0.53428 0.0
C2571 C 0.63439 0.51347 0.53431 0.0
C2572 C 0.64326 0.46564 0.53818 0.0
C2573 C 0.68905 0.44767 0.52851 0.0
C2574 C 0.67542 0.46065 0.5335 0.0
C2575 C 0.63492 0.49777 0.54512 0.0
C2576 C 0.64914 0.48511 0.54203 0.0
H2577 H 0.72805 0.44578 0.5038 0.0
H2578 H 0.70602 0.46729 0.51217 0.0
H2579 H 0.65099 0.43875 0.53034 0.0
H2580 H 0.59369 0.49795 0.566 0.0
H2581 H 0.62074 0.48112 0.56594 0.0
C2582 C 0.21052 0.08753 0.48936 0.0
C2583 C 0.21453 0.10593 0.49847 0.0
C2584 C 0.19284 0.07674 0.49023 0.0
C2585 C 0.15382 0.07205 0.52103 0.0
H2586 H 0.12295 0.04666 0.47599 0.0
C2587 C 0.075 0.04994 0.52309 0.0
C2588 C 0.06631 0.03251 0.51386 0.0
C2589 C 0.09372 0.0567 0.52072 0.0
C2590 C 0.13156 0.05339 0.48873 0.0
H2591 H 0.20311 0.12764 0.51519 0.0
H2592 H 0.17241 0.10879 0.51682 0.0
H2593 H 0.15474 0.06284 0.47232 0.0
H2594 H 0.07047 0.00855 0.4947 0.0
H2595 H 0.10353 0.02045 0.49061 0.0
H2596 H 0.13083 0.06285 0.53748 0.0
C2597 C 0.18292 0.10267 0.5091 0.0
C2598 C 0.14969 0.06267 0.48661 0.0
C2599 C 0.20045 0.11349 0.50806 0.0
C2600 C 0.07679 0.02202 0.50202 0.0
C2601 C 0.09566 0.02885 0.49963 0.0
C2602 C 0.13585 0.06271 0.52316 0.0
C2603 C 0.17903 0.08412 0.50044 0.0
C2604 C 0.16073 0.07253 0.50269 0.0
C2605 C 0.10433 0.04621 0.50911 0.0
C2606 C 0.12429 0.05376 0.50698 0.0
H2607 H 0.22113 0.08138 0.48184 0.0
H2608 H 0.19016 0.06246 0.48344 0.0
H2609 H 0.16223 0.07919 0.53372 0.0
H2610 H 0.06734 0.0585 0.5322 0.0
H2611 H 0.09982 0.07032 0.52787 0.0
C2612 C 0.19297 0.96863 0.77598 0.0
C2613 C 0.17408 0.96711 0.7804 0.0
C2614 C 0.20134 0.95244 0.77249 0.0
C2615 C 0.19654 0.90254 0.78232 0.0
H2616 H 0.22591 0.89635 0.73827 0.0
C2617 C 0.21419 0.83048 0.75785 0.0
C2618 C 0.23273 0.82915 0.75349 0.0
C2619 C 0.20807 0.84794 0.76005 0.0
C2620 C 0.21794 0.89799 0.75075 0.0
H2621 H 0.14914 0.94753 0.78458 0.0
H2622 H 0.16371 0.91935 0.77857 0.0
H2623 H 0.21347 0.92595 0.74484 0.0
H2624 H 0.25918 0.84502 0.7471 0.0
H2625 H 0.24845 0.87587 0.75117 0.0
H2626 H 0.20088 0.87472 0.7883 0.0
C2627 C 0.17212 0.93302 0.77794 0.0
C2628 C 0.21082 0.91491 0.75451 0.0
C2629 C 0.16374 0.94915 0.7813 0.0
C2630 C 0.2448 0.84565 0.75045 0.0
C2631 C 0.23867 0.86327 0.75278 0.0
C2632 C 0.20365 0.88573 0.77861 0.0
C2633 C 0.191 0.93447 0.77352 0.0
C2634 C 0.19976 0.91719 0.77015 0.0
C2635 C 0.22037 0.86458 0.75813 0.0
C2636 C 0.21411 0.8831 0.76257 0.0
H2637 H 0.20126 0.98231 0.77514 0.0
H2638 H 0.21595 0.95398 0.76925 0.0
H2639 H 0.18843 0.90404 0.79472 0.0
H2640 H 0.20445 0.818 0.75998 0.0
H2641 H 0.19374 0.84842 0.76362 0.0
C2642 C 0.31664 0.92294 -0.00104 0.0
C2643 C 0.31139 0.90355 0.00038 0.0
C2644 C 0.33533 0.93023 0.9966 0.0
C2645 C 0.38309 0.91922 0.00681 0.0
H2646 H 0.39769 0.96075 0.97581 0.0
C2647 C 0.46073 0.9496 0.00508 0.0
C2648 C 0.46499 0.96932 0.00791 0.0
C2649 C 0.44219 0.9409 0.00038 0.0
C2650 C 0.3938 0.94919 0.98458 0.0
H2651 H 0.32132 0.87645 -0.00044 0.0
H2652 H 0.35388 0.88912 0.99522 0.0
H2653 H 0.36456 0.94662 0.97461 0.0
H2654 H 0.45337 0.99547 0.00694 0.0
H2655 H 0.42087 0.98026 -0.00091 0.0
H2656 H 0.41209 0.922 0.01718 0.0
C2657 C 0.34366 0.89875 0.99628 0.0
C2658 C 0.37485 0.94111 0.9839 0.0
C2659 C 0.325 0.89149 -0.00132 0.0
C2660 C 0.45049 0.98023 0.00487 0.0
C2661 C 0.43188 0.97151 0.00029 0.0
C2662 C 0.40196 0.92727 0.00749 0.0
C2663 C 0.34911 0.91824 0.99559 0.0
C2664 C 0.36929 0.92614 0.99515 0.0
C2665 C 0.42747 0.95173 0.99855 0.0
C2666 C 0.40754 0.94245 0.99652 0.0
H2667 H 0.30642 0.93256 0.0002 0.0
H2668 H 0.33911 0.94532 0.99631 0.0
H2669 H 0.37925 0.90797 0.01596 0.0
H2670 H 0.47167 0.94083 0.00702 0.0
H2671 H 0.4393 0.92564 -0.0013 0.0
C2672 C 0.84629 0.56264 0.73529 0.0
C2673 C 0.86203 0.56834 0.7487 0.0
C2674 C 0.83395 0.5753 0.7306 0.0
C2675 C 0.83063 0.62618 0.73224 0.0
H2676 H 0.77684 0.61005 0.73246 0.0
C2677 C 0.7622 0.6633 0.74662 0.0
C2678 C 0.76621 0.67926 0.73625 0.0
C2679 C 0.77198 0.64799 0.7439 0.0
C2680 C 0.79182 0.61474 0.73228 0.0
H2681 H 0.87735 0.59178 0.76752 0.0
H2682 H 0.85584 0.61382 0.75939 0.0
H2683 H 0.79861 0.58719 0.73644 0.0
H2684 H 0.78237 0.69091 0.71362 0.0
H2685 H 0.79919 0.66409 0.70869 0.0
H2686 H 0.82403 0.65384 0.72895 0.0
C2687 C 0.8531 0.59965 0.75235 0.0
C2688 C 0.80427 0.60162 0.73439 0.0
C2689 C 0.86536 0.58699 0.7571 0.0
C2690 C 0.7791 0.67893 0.72202 0.0
C2691 C 0.78883 0.66361 0.71926 0.0
C2692 C 0.81821 0.63926 0.73008 0.0
C2693 C 0.8372 0.59393 0.73913 0.0
C2694 C 0.82384 0.60731 0.73483 0.0
C2695 C 0.78591 0.64829 0.7307 0.0
C2696 C 0.79868 0.63378 0.73046 0.0
H2697 H 0.84338 0.54834 0.72858 0.0
H2698 H 0.82189 0.57054 0.72026 0.0
H2699 H 0.84561 0.63094 0.73226 0.0
H2700 H 0.75233 0.66307 0.75766 0.0
H2701 H 0.76943 0.63647 0.75302 0.0
C2702 C 0.81494 0.59106 0.01725 0.0
C2703 C 0.81802 0.60935 0.01107 0.0
C2704 C 0.83008 0.58123 0.02091 0.0
C2705 C 0.8818 0.58923 0.03182 0.0
H2706 H 0.87912 0.53674 0.01289 0.0
C2707 C 0.94704 0.55626 0.01707 0.0
C2708 C 0.94879 0.53835 0.02317 0.0
C2709 C 0.93035 0.56368 0.01854 0.0
C2710 C 0.87993 0.55129 0.01858 0.0
H2711 H 0.83924 0.63155 0.00354 0.0
H2712 H 0.86558 0.61437 0.00964 0.0
H2713 H 0.85103 0.55223 0.00926 0.0
H2714 H 0.93435 0.51411 0.03559 0.0
H2715 H 0.90465 0.52713 0.03785 0.0
H2716 H 0.91082 0.58852 0.04048 0.0
C2717 C 0.85155 0.60772 0.01203 0.0
C2718 C 0.8639 0.56017 0.01648 0.0
C2719 C 0.83645 0.61752 0.00838 0.0
C2720 C 0.93339 0.52797 0.03083 0.0
C2721 C 0.91644 0.53537 0.03206 0.0
C2722 C 0.89777 0.5804 0.03385 0.0
C2723 C 0.84858 0.58954 0.0185 0.0
C2724 C 0.86483 0.5794 0.02258 0.0
C2725 C 0.91487 0.55335 0.026 0.0
C2726 C 0.89715 0.56151 0.02676 0.0
H2727 H 0.80087 0.58442 0.01948 0.0
H2728 H 0.82735 0.56729 0.02597 0.0
H2729 H 0.88286 0.60391 0.03714 0.0
H2730 H 0.95864 0.56468 0.01115 0.0
H2731 H 0.92946 0.57745 0.01349 0.0
C2732 C 0.19637 0.07389 0.80264 0.0
C2733 C 0.17805 0.06951 0.79337 0.0
C2734 C 0.20695 0.09166 0.80154 0.0
C2735 C 0.21127 0.12996 0.76979 0.0
H2736 H 0.23543 0.16236 0.81436 0.0
C2737 C 0.23174 0.20887 0.76564 0.0
C2738 C 0.24881 0.21815 0.77517 0.0
C2739 C 0.22534 0.19013 0.76837 0.0
C2740 C 0.22905 0.15333 0.80175 0.0
H2741 H 0.15625 0.0804 0.77622 0.0
H2742 H 0.1747 0.11118 0.77421 0.0
H2743 H 0.21999 0.13044 0.81871 0.0
H2744 H 0.27253 0.21497 0.79516 0.0
H2745 H 0.2613 0.18194 0.79986 0.0
H2746 H 0.22007 0.15264 0.75278 0.0
C2747 C 0.18094 0.10091 0.7822 0.0
C2748 C 0.2202 0.13512 0.80426 0.0
C2749 C 0.17034 0.08332 0.78346 0.0
C2750 C 0.25933 0.20821 0.78761 0.0
C2751 C 0.25287 0.18934 0.79035 0.0
C2752 C 0.22018 0.14801 0.76726 0.0
C2753 C 0.19943 0.10516 0.79094 0.0
C2754 C 0.21077 0.12351 0.78834 0.0
C2755 C 0.23584 0.18009 0.78065 0.0
C2756 C 0.22867 0.16012 0.78326 0.0
H2757 H 0.20263 0.06349 0.8104 0.0
H2758 H 0.22118 0.09464 0.80841 0.0
H2759 H 0.20444 0.12112 0.75722 0.0
H2760 H 0.2232 0.21608 0.75604 0.0
H2761 H 0.21197 0.18357 0.76099 0.0
C2762 C 0.3813 0.96009 0.29032 0.0
C2763 C 0.37159 0.97562 0.28924 0.0
C2764 C 0.37181 0.94246 0.29371 0.0
C2765 C 0.32472 0.91465 0.28701 0.0
H2766 H 0.34859 0.87976 0.3169 0.0
C2767 C 0.29107 0.83692 0.2877 0.0
C2768 C 0.30353 0.82403 0.28375 0.0
C2769 C 0.29798 0.856 0.29266 0.0
C2770 C 0.34173 0.88935 0.30853 0.0
H2771 H 0.34449 0.98509 0.2915 0.0
H2772 H 0.32787 0.95423 0.29748 0.0
H2773 H 0.36344 0.91255 0.31772 0.0
H2774 H 0.33299 0.82082 0.2829 0.0
H2775 H 0.34496 0.85393 0.29141 0.0
H2776 H 0.30336 0.89133 0.27728 0.0
C2777 C 0.34279 0.95567 0.29552 0.0
C2778 C 0.35024 0.90811 0.30897 0.0
C2779 C 0.35231 0.97333 0.29218 0.0
C2780 C 0.32301 0.83041 0.28574 0.0
C2781 C 0.3299 0.84939 0.2908 0.0
C2782 C 0.31621 0.89589 0.28656 0.0
C2783 C 0.35239 0.93998 0.29608 0.0
C2784 C 0.34209 0.92084 0.2978 0.0
C2785 C 0.31746 0.86248 0.29393 0.0
C2786 C 0.3249 0.88291 0.29689 0.0
H2787 H 0.39617 0.96143 0.28811 0.0
H2788 H 0.37957 0.93063 0.29378 0.0
H2789 H 0.31818 0.92405 0.27809 0.0
H2790 H 0.27597 0.83241 0.28632 0.0
H2791 H 0.28807 0.86574 0.29516 0.0
C2792 C 0.51941 0.32289 0.60374 0.0
C2793 C 0.52218 0.32256 0.62393 0.0
C2794 C 0.51914 0.34003 0.59544 0.0
C2795 C 0.53509 0.39114 0.60665 0.0
H2796 H 0.49971 0.39691 0.5634 0.0
C2797 C 0.52615 0.46407 0.58385 0.0
C2798 C 0.52686 0.46673 0.56408 0.0
C2799 C 0.52395 0.44597 0.59011 0.0
C2800 C 0.50975 0.39543 0.57538 0.0
H2801 H 0.52631 0.33978 0.65127 0.0
H2802 H 0.52551 0.36947 0.63692 0.0
H2803 H 0.49935 0.36606 0.5763 0.0
H2804 H 0.52472 0.45244 0.53525 0.0
H2805 H 0.52086 0.42064 0.54628 0.0
H2806 H 0.5454 0.42041 0.60591 0.0
C2807 C 0.52398 0.35664 0.6274 0.0
C2808 C 0.50959 0.37779 0.58274 0.0
C2809 C 0.52433 0.33959 0.63565 0.0
C2810 C 0.52427 0.45083 0.55059 0.0
C2811 C 0.52203 0.43264 0.55688 0.0
C2812 C 0.53518 0.4087 0.59939 0.0
C2813 C 0.52161 0.35712 0.6072 0.0
C2814 C 0.52212 0.37552 0.59862 0.0
C2815 C 0.5224 0.43008 0.57676 0.0
C2816 C 0.52238 0.41112 0.58385 0.0
H2817 H 0.5177 0.30996 0.59435 0.0
H2818 H 0.51742 0.33993 0.57982 0.0
H2819 H 0.54527 0.3898 0.61855 0.0
H2820 H 0.52786 0.47599 0.59462 0.0
H2821 H 0.52387 0.44442 0.60549 0.0
C2822 C 0.45448 0.73912 0.34631 0.0
C2823 C 0.45901 0.74095 0.36643 0.0
C2824 C 0.43584 0.73835 0.33872 0.0
C2825 C 0.3924 0.75491 0.35104 0.0
H2826 H 0.36928 0.72168 0.30661 0.0
C2827 C 0.31619 0.75684 0.32136 0.0
C2828 C 0.3123 0.7553 0.30116 0.0
C2829 C 0.33342 0.75319 0.3296 0.0
C2830 C 0.37561 0.73119 0.3189 0.0
H2831 H 0.44758 0.74267 0.3944 0.0
H2832 H 0.41498 0.74144 0.38112 0.0
H2833 H 0.40059 0.71812 0.32066 0.0
H2834 H 0.32332 0.74852 0.27372 0.0
H2835 H 0.3537 0.74265 0.28809 0.0
H2836 H 0.36787 0.76843 0.34903 0.0
C2837 C 0.42587 0.74069 0.37124 0.0
C2838 C 0.39349 0.72908 0.32698 0.0
C2839 C 0.44449 0.7413 0.37883 0.0
C2840 C 0.32591 0.74977 0.28935 0.0
C2841 C 0.34327 0.7463 0.2976 0.0
C2842 C 0.37464 0.75713 0.34289 0.0
C2843 C 0.42142 0.73956 0.35112 0.0
C2844 C 0.40206 0.74096 0.3431 0.0
C2845 C 0.34728 0.74812 0.31784 0.0
C2846 C 0.36602 0.74534 0.32669 0.0
H2847 H 0.46539 0.73878 0.3364 0.0
H2848 H 0.43283 0.73761 0.32316 0.0
H2849 H 0.39882 0.76451 0.36323 0.0
H2850 H 0.30589 0.76084 0.33087 0.0
H2851 H 0.33585 0.75434 0.34523 0.0
C2852 C 0.01865 0.7154 0.09597 0.0
C2853 C 0.02042 0.71913 0.1162 0.0
C2854 C 0.01842 0.69704 0.08762 0.0
C2855 C 0.00835 0.6476 0.09866 0.0
H2856 H 0.03896 0.6371 0.05664 0.0
C2857 C 0.01842 0.57211 0.07635 0.0
C2858 C 0.01655 0.56642 0.05647 0.0
C2859 C 0.02026 0.59115 0.08277 0.0
C2860 C 0.0302 0.63984 0.06824 0.0
H2861 H 0.0234 0.70667 0.14355 0.0
H2862 H 0.02293 0.67479 0.12904 0.0
H2863 H 0.03858 0.66977 0.06914 0.0
H2864 H 0.01606 0.57622 0.02769 0.0
H2865 H 0.01905 0.60961 0.03895 0.0
H2866 H -0.00017 0.61787 0.09782 0.0
C2867 C 0.02158 0.68594 0.1196 0.0
C2868 C 0.02997 0.65852 0.07536 0.0
C2869 C 0.02193 0.70423 0.12791 0.0
C2870 C 0.01755 0.58022 0.04312 0.0
C2871 C 0.01927 0.59933 0.04956 0.0
C2872 C 0.00853 0.62902 0.09153 0.0
C2873 C 0.01979 0.68212 0.09939 0.0
C2874 C 0.01923 0.66254 0.09084 0.0
C2875 C 0.02009 0.60494 0.06946 0.0
C2876 C 0.01967 0.62488 0.07644 0.0
H2877 H 0.01751 0.72665 0.08661 0.0
H2878 H 0.01691 0.69446 0.07199 0.0
H2879 H -0.00036 0.65028 0.11032 0.0
H2880 H 0.01792 0.56181 0.08699 0.0
H2881 H 0.02137 0.59504 0.09821 0.0
C2882 C 0.07019 0.27031 0.84667 0.0
C2883 C 0.05964 0.25295 0.84972 0.0
C2884 C 0.08354 0.27128 0.83301 0.0
C2885 C 0.1126 0.24142 0.80644 0.0
H2886 H 0.12247 0.28503 0.777 0.0
C2887 C 0.17081 0.24667 0.75426 0.0
C2888 C 0.18387 0.26331 0.75781 0.0
C2889 C 0.15326 0.24542 0.76185 0.0
C2890 C 0.11982 0.27276 0.7851 0.0
H2891 H 0.05437 0.22308 0.84056 0.0
H2892 H 0.07734 0.22479 0.81642 0.0
H2893 H 0.09635 0.28254 0.79769 0.0
H2894 H 0.18815 0.29216 0.77071 0.0
H2895 H 0.15751 0.28996 0.78385 0.0
H2896 H 0.13617 0.23174 0.79404 0.0
C2897 C 0.07566 0.23762 0.82486 0.0
C2898 C 0.10494 0.27136 0.79704 0.0
C2899 C 0.06245 0.23663 0.83864 0.0
C2900 C 0.17845 0.27911 0.76781 0.0
C2901 C 0.16085 0.27788 0.77527 0.0
C2902 C 0.12735 0.24275 0.79441 0.0
C2903 C 0.0865 0.25493 0.82198 0.0
C2904 C 0.10135 0.25582 0.80811 0.0
C2905 C 0.14836 0.26081 0.77297 0.0
C2906 C 0.13132 0.25856 0.78385 0.0
H2907 H 0.06833 0.28312 0.85503 0.0
H2908 H 0.09183 0.2848 0.83143 0.0
H2909 H 0.11049 0.22941 0.81498 0.0
H2910 H 0.17451 0.23427 0.74654 0.0
H2911 H 0.14379 0.23217 0.75962 0.0
C2912 C 0.53375 0.71825 0.9416 0.0
C2913 C 0.51787 0.72606 0.9351 0.0
C2914 C 0.53201 0.70378 0.95397 0.0
C2915 C 0.49743 0.66551 0.96768 0.0
H2916 H 0.53776 0.66078 0.00639 0.0
C2917 C 0.49939 0.59797 0.00796 0.0
C2918 C 0.51641 0.59077 0.00635 0.0
C2919 C 0.49793 0.61637 0.00333 0.0
C2920 C 0.52633 0.66196 0.99571 0.0
H2921 H 0.48781 0.72526 0.93686 0.0
H2922 H 0.48478 0.69999 0.95864 0.0
H2923 H 0.53813 0.69 0.99058 0.0
H2924 H 0.54547 0.59738 -0.00037 0.0
H2925 H 0.54298 0.62933 0.99177 0.0
H2926 H 0.48597 0.63721 0.97243 0.0
C2927 C 0.49854 0.70493 0.95399 0.0
C2928 C 0.52657 0.67865 0.98661 0.0
C2929 C 0.50028 0.71943 0.94159 0.0
C2930 C 0.53212 0.6025 0.00089 0.0
C2931 C 0.53075 0.62088 0.99655 0.0
C2932 C 0.49715 0.64883 0.97687 0.0
C2933 C 0.51437 0.69682 0.96017 0.0
C2934 C 0.51248 0.68037 0.97201 0.0
C2935 C 0.51358 0.62791 0.99738 0.0
C2936 C 0.51194 0.64667 0.99049 0.0
H2937 H 0.54749 0.72304 0.93682 0.0
H2938 H 0.54444 0.69765 0.95816 0.0
H2939 H 0.48643 0.66631 0.95641 0.0
H2940 H 0.48705 0.58919 0.01212 0.0
H2941 H 0.48454 0.62149 0.00412 0.0
C2942 C 0.07207 0.74768 0.65464 0.0
C2943 C 0.05719 0.74935 0.66633 0.0
C2944 C 0.08971 0.74509 0.66282 0.0
C2945 C 0.11962 0.75334 0.70863 0.0
H2946 H 0.1505 0.72215 0.68113 0.0
C2947 C 0.19653 0.75109 0.73632 0.0
C2948 C 0.20934 0.7546 0.72221 0.0
C2949 C 0.17723 0.74632 0.7309 0.0
C2950 C 0.14202 0.73088 0.68899 0.0
H2951 H 0.04897 0.7493 0.69572 0.0
H2952 H 0.07987 0.74467 0.71007 0.0
H2953 H 0.11771 0.72187 0.66911 0.0
H2954 H 0.21214 0.75465 0.69136 0.0
H2955 H 0.17856 0.74635 0.68194 0.0
H2956 H 0.14406 0.76273 0.72821 0.0
C2957 C 0.07792 0.74556 0.69458 0.0
C2958 C 0.12328 0.73077 0.68209 0.0
C2959 C 0.06023 0.74816 0.68637 0.0
C2960 C 0.20261 0.75212 0.70257 0.0
C2961 C 0.18336 0.74724 0.69716 0.0
C2962 C 0.13835 0.75341 0.71556 0.0
C2963 C 0.09288 0.74407 0.68289 0.0
C2964 C 0.112 0.74238 0.69154 0.0
C2965 C 0.17041 0.74482 0.71129 0.0
C2966 C 0.14989 0.74254 0.70554 0.0
H2967 H 0.07016 0.74856 0.63915 0.0
H2968 H 0.101 0.74435 0.65344 0.0
H2969 H 0.11139 0.76259 0.71615 0.0
H2970 H 0.20128 0.75285 0.75158 0.0
H2971 H 0.16758 0.74432 0.74209 0.0
C2972 C 0.03074 0.33924 0.40816 0.0
C2973 C 0.03171 0.32356 0.41888 0.0
C2974 C 0.03149 0.35718 0.41756 0.0
C2975 C 0.04606 0.3862 0.46323 0.0
H2976 H 0.00729 0.41478 0.44549 0.0
C2977 C 0.03327 0.45658 0.50313 0.0
C2978 C 0.02778 0.47036 0.4915 0.0
C2979 C 0.03496 0.43865 0.49478 0.0
C2980 C 0.01841 0.40715 0.45046 0.0
H2981 H 0.03485 0.31437 0.44781 0.0
H2982 H 0.03631 0.34588 0.4643 0.0
H2983 H 0.00838 0.38366 0.42986 0.0
H2984 H 0.02078 0.47658 0.462 0.0
H2985 H 0.02429 0.4457 0.44746 0.0
H2986 H 0.05624 0.40986 0.48369 0.0
C2987 C 0.03495 0.34423 0.44862 0.0
C2988 C 0.01897 0.38928 0.44152 0.0
C2989 C 0.03402 0.32622 0.43919 0.0
C2990 C 0.02475 0.46615 0.47138 0.0
C2991 C 0.02665 0.44839 0.46305 0.0
C2992 C 0.0456 0.40422 0.4721 0.0
C2993 C 0.03338 0.35981 0.43788 0.0
C2994 C 0.03285 0.37867 0.44772 0.0
C2995 C 0.03136 0.43427 0.47466 0.0
C2996 C 0.03184 0.41496 0.4657 0.0
H2997 H 0.02902 0.33763 0.39248 0.0
H2998 H 0.03048 0.369 0.40894 0.0
H2999 H 0.05695 0.37831 0.46822 0.0
H3000 H 0.03563 0.45945 0.5187 0.0
H3001 H 0.0385 0.42807 0.50416 0.0
C3002 C 0.44193 0.27079 0.15436 0.0
C3003 C 0.45908 0.26888 0.16447 0.0
C3004 C 0.42631 0.27367 0.16434 0.0
C3005 C 0.40569 0.26436 0.20975 0.0
H3006 H 0.37044 0.29651 0.19138 0.0
C3007 C 0.33313 0.26367 0.24023 0.0
C3008 C 0.31807 0.26133 0.22577 0.0
C3009 C 0.35167 0.2688 0.23554 0.0
C3010 C 0.38016 0.28749 0.19671 0.0
H3011 H 0.47349 0.26888 0.19298 0.0
H3012 H 0.44604 0.27381 0.2105 0.0
H3013 H 0.40089 0.29755 0.17786 0.0
H3014 H 0.31049 0.26364 0.19534 0.0
H3015 H 0.34263 0.27246 0.18719 0.0
H3016 H 0.38468 0.25375 0.22804 0.0
C3017 C 0.44471 0.27302 0.19483 0.0
C3018 C 0.39758 0.28808 0.18896 0.0
C3019 C 0.46042 0.27026 0.18482 0.0
C3020 C 0.32179 0.26521 0.2068 0.0
C3021 C 0.34024 0.27043 0.20215 0.0
C3022 C 0.38824 0.26375 0.21749 0.0
C3023 C 0.42745 0.27462 0.18467 0.0
C3024 C 0.4103 0.27611 0.19497 0.0
C3025 C 0.35543 0.27187 0.21636 0.0
C3026 C 0.37506 0.27489 0.21062 0.0
H3027 H 0.44047 0.26981 0.13868 0.0
H3028 H 0.41315 0.27455 0.15607 0.0
H3029 H 0.41512 0.25486 0.21458 0.0
H3030 H 0.3307 0.26082 0.255 0.0
H3031 H 0.36308 0.26998 0.24684 0.0
C3032 C 0.60262 0.49819 0.33569 0.0
C3033 C 0.62204 0.50491 0.33745 0.0
C3034 C 0.59291 0.49526 0.35215 0.0
C3035 C 0.59983 0.48944 0.40464 0.0
H3036 H 0.55172 0.50759 0.40648 0.0
C3037 C 0.56697 0.50545 0.47578 0.0
C3038 C 0.5473 0.50151 0.47623 0.0
C3039 C 0.57533 0.50287 0.45849 0.0
C3040 C 0.56497 0.50213 0.40608 0.0
H3041 H 0.6466 0.51355 0.35778 0.0
H3042 H 0.62964 0.50865 0.38656 0.0
H3043 H 0.56789 0.50893 0.3769 0.0
H3044 H 0.52102 0.49115 0.45896 0.0
H3045 H 0.53569 0.48659 0.42864 0.0
H3046 H 0.59709 0.48306 0.43399 0.0
C3047 C 0.62193 0.5054 0.37246 0.0
C3048 C 0.57426 0.50292 0.38913 0.0
C3049 C 0.63164 0.50833 0.35598 0.0
C3050 C 0.53621 0.49433 0.45909 0.0
C3051 C 0.54459 0.49184 0.44171 0.0
C3052 C 0.59055 0.48867 0.42159 0.0
C3053 C 0.60242 0.49898 0.37074 0.0
C3054 C 0.59194 0.49685 0.3883 0.0
C3055 C 0.56423 0.49632 0.44119 0.0
C3056 C 0.57315 0.49529 0.42261 0.0
H3057 H 0.59486 0.49535 0.32157 0.0
H3058 H 0.57794 0.49007 0.35031 0.0
H3059 H 0.61327 0.48433 0.40436 0.0
H3060 H 0.57595 0.51093 0.48874 0.0
H3061 H 0.59046 0.50667 0.45858 0.0
C3062 C 0.2759 0.85787 0.07679 0.0
C3063 C 0.26227 0.85125 0.06139 0.0
C3064 C 0.2776 0.84757 0.09293 0.0
C3065 C 0.28386 0.81936 0.12224 0.0
H3066 H 0.23706 0.79998 0.14301 0.0
C3067 C 0.28093 0.78418 0.195 0.0
C3068 C 0.26839 0.79111 0.20733 0.0
C3069 C 0.28068 0.7886 0.17568 0.0
C3070 C 0.25026 0.80525 0.13735 0.0
H3071 H 0.24014 0.82841 0.05047 0.0
H3072 H 0.24321 0.81033 0.07861 0.0
H3073 H 0.23616 0.81342 0.11192 0.0
H3074 H 0.24566 0.80791 0.20902 0.0
H3075 H 0.24535 0.8156 0.17568 0.0
H3076 H 0.29786 0.81198 0.14826 0.0
C3077 C 0.25239 0.82361 0.07835 0.0
C3078 C 0.24975 0.81278 0.11943 0.0
C3079 C 0.25066 0.83394 0.06222 0.0
C3080 C 0.25555 0.80234 0.19996 0.0
C3081 C 0.25523 0.80662 0.18075 0.0
C3082 C 0.28435 0.81181 0.14022 0.0
C3083 C 0.26575 0.83041 0.09399 0.0
C3084 C 0.26652 0.82035 0.11188 0.0
C3085 C 0.26776 0.79983 0.16838 0.0
C3086 C 0.26752 0.80517 0.14818 0.0
H3087 H 0.28507 0.87116 0.07652 0.0
H3088 H 0.28783 0.85337 0.10485 0.0
H3089 H 0.29703 0.82482 0.11666 0.0
H3090 H 0.29097 0.77548 0.2003 0.0
H3091 H 0.29048 0.78315 0.16643 0.0
C3092 C 0.91568 0.5399 0.83687 0.0
C3093 C 0.9258 0.54157 0.82042 0.0
C3094 C 0.92514 0.53973 0.8551 0.0
C3095 C 0.97093 0.5509 0.88379 0.0
H3096 H 0.95137 0.50833 0.91132 0.0
C3097 C 0.01004 0.52895 0.95288 0.0
C3098 C -0.00129 0.52222 0.96725 0.0
C3099 C 0.00176 0.53269 0.93497 0.0
C3100 C 0.95688 0.52047 0.90401 0.0
H3101 H 0.95376 0.54549 0.81021 0.0
H3102 H 0.97031 0.54533 0.8422 0.0
H3103 H 0.93553 0.51352 0.88054 0.0
H3104 H 0.96986 0.51487 0.97444 0.0
H3105 H 0.95556 0.52186 0.9437 0.0
H3106 H 0.99222 0.55795 0.90746 0.0
C3107 C 0.95508 0.54411 0.84095 0.0
C3108 C 0.94779 0.52341 0.88635 0.0
C3109 C 0.9456 0.54413 0.82266 0.0
C3110 C 0.97902 0.51979 0.96358 0.0
C3111 C 0.97079 0.52371 0.94588 0.0
C3112 C 0.97997 0.54806 0.90164 0.0
C3113 C 0.94489 0.54137 0.85724 0.0
C3114 C 0.95464 0.53869 0.87611 0.0
C3115 C 0.98202 0.52989 0.93121 0.0
C3116 C 0.97295 0.53286 0.91201 0.0
H3117 H 0.90042 0.53798 0.83559 0.0
H3118 H 0.91697 0.53785 0.8675 0.0
H3119 H 0.97648 0.56279 0.87614 0.0
H3120 H 0.02527 0.53095 0.95531 0.0
H3121 H 0.01082 0.53732 0.92393 0.0
C3122 C 0.2721 0.15754 0.57378 0.0
C3123 C 0.26866 0.16638 0.5568 0.0
C3124 C 0.27091 0.16681 0.59189 0.0
C3125 C 0.27302 0.21368 0.61746 0.0
H3126 H 0.2498 0.18485 0.65673 0.0
C3127 C 0.26807 0.24585 0.69578 0.0
C3128 C 0.2738 0.23477 0.71031 0.0
C3129 C 0.26505 0.23838 0.67642 0.0
C3130 C 0.25637 0.19308 0.64593 0.0
H3131 H 0.26147 0.19195 0.54543 0.0
H3132 H 0.2594 0.20824 0.57722 0.0
H3133 H 0.24945 0.17025 0.62393 0.0
H3134 H 0.28036 0.20706 0.71603 0.0
H3135 H 0.27516 0.19416 0.68252 0.0
H3136 H 0.2803 0.23639 0.63968 0.0
C3137 C 0.26308 0.19414 0.57647 0.0
C3138 C 0.2562 0.18472 0.62716 0.0
C3139 C 0.26422 0.1848 0.55829 0.0
C3140 C 0.27599 0.216 0.7052 0.0
C3141 C 0.27287 0.20854 0.68598 0.0
C3142 C 0.2732 0.22207 0.6363 0.0
C3143 C 0.26626 0.18516 0.59345 0.0
C3144 C 0.2649 0.19476 0.61283 0.0
C3145 C 0.26751 0.21965 0.67134 0.0
C3146 C 0.26526 0.2117 0.65084 0.0
H3147 H 0.27562 0.14337 0.5731 0.0
H3148 H 0.27379 0.15964 0.6047 0.0
H3149 H 0.27992 0.22175 0.60675 0.0
H3150 H 0.26628 0.26037 0.69929 0.0
H3151 H 0.26082 0.24723 0.66545 0.0
C3152 C 0.6322 0.52342 0.21789 0.0
C3153 C 0.62204 0.52208 0.23434 0.0
C3154 C 0.62305 0.52513 0.19984 0.0
C3155 C 0.57666 0.51485 0.17249 0.0
H3156 H 0.60123 0.54673 0.13631 0.0
C3157 C 0.54444 0.51691 0.09407 0.0
C3158 C 0.55715 0.51471 0.07994 0.0
C3159 C 0.55102 0.52089 0.11361 0.0
C3160 C 0.59419 0.53776 0.14626 0.0
H3161 H 0.59438 0.52166 0.2449 0.0
H3162 H 0.57834 0.52468 0.21326 0.0
H3163 H 0.61528 0.54773 0.16946 0.0
H3164 H 0.58672 0.51577 0.07507 0.0
H3165 H 0.59811 0.52264 0.10897 0.0
H3166 H 0.55584 0.50452 0.14912 0.0
C3167 C 0.59337 0.52428 0.21433 0.0
C3168 C 0.60226 0.5383 0.16522 0.0
C3169 C 0.60255 0.52262 0.23243 0.0
C3170 C 0.57655 0.5173 0.08561 0.0
C3171 C 0.58311 0.52139 0.10505 0.0
C3172 C 0.56859 0.51431 0.15351 0.0
C3173 C 0.60353 0.52552 0.19783 0.0
C3174 C 0.59383 0.52651 0.17841 0.0
C3175 C 0.57042 0.52293 0.11931 0.0
C3176 C 0.57752 0.52543 0.14006 0.0
H3177 H 0.64723 0.52302 0.21891 0.0
H3178 H 0.63123 0.52574 0.18737 0.0
H3179 H 0.56991 0.50548 0.18226 0.0
H3180 H 0.52941 0.51502 0.09012 0.0
H3181 H 0.54093 0.52216 0.12428 0.0
C3182 C 0.23919 0.83413 0.9566 0.0
C3183 C 0.2401 0.85381 0.95917 0.0
C3184 C 0.23718 0.8249 0.93799 0.0
C3185 C 0.24908 0.83454 0.88935 0.0
H3186 H 0.21931 0.78574 0.8736 0.0
C3187 C 0.2492 0.80105 0.81245 0.0
C3188 C 0.25062 0.78177 0.81019 0.0
C3189 C 0.245 0.80928 0.83005 0.0
C3190 C 0.22781 0.7993 0.87786 0.0
H3191 H 0.23847 0.87913 0.94442 0.0
H3192 H 0.2349 0.86302 0.91194 0.0
H3193 H 0.21661 0.80132 0.90559 0.0
H3194 H 0.24813 0.75578 0.82435 0.0
H3195 H 0.24134 0.77033 0.85552 0.0
H3196 H 0.26077 0.83245 0.86212 0.0
C3197 C 0.23599 0.85476 0.92428 0.0
C3198 C 0.22621 0.80823 0.89612 0.0
C3199 C 0.23795 0.86397 0.94287 0.0
C3200 C 0.24711 0.77069 0.82572 0.0
C3201 C 0.24314 0.77901 0.84352 0.0
C3202 C 0.25077 0.82561 0.87124 0.0
C3203 C 0.23611 0.83521 0.92165 0.0
C3204 C 0.23684 0.82595 0.90202 0.0
C3205 C 0.24243 0.7985 0.84597 0.0
C3206 C 0.24015 0.8079 0.86522 0.0
H3207 H 0.24076 0.82593 0.96892 0.0
H3208 H 0.23742 0.80985 0.93641 0.0
H3209 H 0.2578 0.84798 0.89366 0.0
H3210 H 0.25152 0.8099 0.80063 0.0
H3211 H 0.24405 0.82421 0.83126 0.0
C3212 C 0.93021 0.5103 0.70778 0.0
C3213 C 0.93311 0.52601 0.72147 0.0
C3214 C 0.943 0.50834 0.69386 0.0
C3215 C 0.97933 0.53589 0.66867 0.0
H3216 H 0.99209 0.4867 0.65311 0.0
C3217 C 0.0275 0.52683 0.60762 0.0
C3218 C 0.01997 0.51254 0.59311 0.0
C3219 C 0.02017 0.52747 0.62569 0.0
C3220 C 0.98866 0.50052 0.65731 0.0
H3221 H 0.95168 0.55193 0.73144 0.0
H3222 H 0.97407 0.54847 0.70716 0.0
H3223 H 0.97234 0.49018 0.67987 0.0
H3224 H -8e-05 0.48688 0.5867 0.0
H3225 H 0.98711 0.48806 0.6181 0.0
H3226 H 0.99523 0.54618 0.64585 0.0
C3227 C 0.96182 0.53776 0.70706 0.0
C3228 C 0.9773 0.50251 0.67258 0.0
C3229 C 0.94902 0.53972 0.72098 0.0
C3230 C 0.00597 0.49814 0.59753 0.0
C3231 C -0.00132 0.49876 0.61559 0.0
C3232 C 0.99069 0.53391 0.65343 0.0
C3233 C 0.95896 0.52204 0.69335 0.0
C3234 C 0.97223 0.52015 0.67819 0.0
C3235 C 0.00524 0.51379 0.62962 0.0
C3236 C 0.99521 0.51615 0.64735 0.0
H3237 H 0.91806 0.4995 0.70782 0.0
H3238 H 0.94021 0.49622 0.6833 0.0
H3239 H 0.97551 0.54963 0.67247 0.0
H3240 H 0.03838 0.53807 0.60474 0.0
H3241 H 0.02574 0.53905 0.63635 0.0
C3242 C 0.26852 0.15353 0.43418 0.0
C3243 C 0.27457 0.16351 0.45219 0.0
C3244 C 0.2697 0.16261 0.41714 0.0
C3245 C 0.29306 0.20483 0.39631 0.0
H3246 H 0.25097 0.19258 0.35713 0.0
C3247 C 0.28453 0.24485 0.32696 0.0
C3248 C 0.27777 0.2336 0.30978 0.0
C3249 C 0.28533 0.23682 0.34471 0.0
C3250 C 0.26293 0.19603 0.36784 0.0
H3251 H 0.28683 0.19076 0.46651 0.0
H3252 H 0.28869 0.20673 0.43669 0.0
H3253 H 0.2499 0.17768 0.3874 0.0
H3254 H 0.26743 0.20497 0.29767 0.0
H3255 H 0.26895 0.1911 0.32845 0.0
H3256 H 0.30599 0.2233 0.37661 0.0
C3257 C 0.28322 0.19183 0.43574 0.0
C3258 C 0.26233 0.18747 0.38519 0.0
C3259 C 0.28206 0.18271 0.45281 0.0
C3260 C 0.27252 0.21411 0.31063 0.0
C3261 C 0.27328 0.20614 0.3283 0.0
C3262 C 0.29364 0.21346 0.3789 0.0
C3263 C 0.2769 0.1819 0.41772 0.0
C3264 C 0.27746 0.19159 0.39956 0.0
C3265 C 0.27933 0.21744 0.34558 0.0
C3266 C 0.27866 0.20896 0.3644 0.0
H3267 H 0.26279 0.13869 0.43323 0.0
H3268 H 0.26502 0.15447 0.40348 0.0
H3269 H 0.30501 0.2082 0.40703 0.0
H3270 H 0.28868 0.25991 0.32678 0.0
H3271 H 0.29001 0.24589 0.35782 0.0
C3272 C 0.33618 0.60275 0.49423 0.0
C3273 C 0.32352 0.59723 0.5079 0.0
C3274 C 0.34968 0.59153 0.48918 0.0
C3275 C 0.37522 0.55497 0.5084 0.0
H3276 H 0.39497 0.55502 0.45796 0.0
C3277 C 0.44217 0.52311 0.49431 0.0
C3278 C 0.45614 0.53676 0.48848 0.0
C3279 C 0.42328 0.52591 0.49297 0.0
C3280 C 0.38946 0.55473 0.47205 0.0
H3281 H 0.31445 0.5753 0.52641 0.0
H3282 H 0.3377 0.55542 0.51725 0.0
H3283 H 0.3663 0.56859 0.46305 0.0
H3284 H 0.46124 0.56314 0.47518 0.0
H3285 H 0.42832 0.56783 0.47248 0.0
H3286 H 0.3986 0.54144 0.51745 0.0
C3287 C 0.33755 0.56864 0.51076 0.0
C3288 C 0.37314 0.56262 0.47503 0.0
C3289 C 0.32419 0.57998 0.51597 0.0
C3290 C 0.45075 0.55244 0.47987 0.0
C3291 C 0.43189 0.55507 0.47822 0.0
C3292 C 0.39139 0.54688 0.50534 0.0
C3293 C 0.35068 0.57441 0.49752 0.0
C3294 C 0.36619 0.56343 0.49344 0.0
C3295 C 0.41807 0.5422 0.48542 0.0
C3296 C 0.399 0.54723 0.48732 0.0
H3297 H 0.33601 0.616 0.48779 0.0
H3298 H 0.35973 0.59665 0.47923 0.0
H3299 H 0.37047 0.55551 0.52283 0.0
H3300 H 0.44597 0.51092 0.50107 0.0
H3301 H 0.41286 0.51575 0.49854 0.0
C3302 C 0.82111 0.94194 0.55737 0.0
C3303 C 0.81915 0.92275 0.55083 0.0
C3304 C 0.83894 0.95294 0.55993 0.0
C3305 C 0.89015 0.94969 0.56392 0.0
H3306 H 0.89517 0.99738 0.54068 0.0
C3307 C 0.95803 0.98157 0.53389 0.0
C3308 C 0.96444 0.00099 0.53754 0.0
C3309 C 0.94057 0.97376 0.53936 0.0
C3310 C 0.89396 0.98428 0.54757 0.0
H3311 H 0.83429 0.89989 0.54242 0.0
H3312 H 0.86526 0.91901 0.54667 0.0
H3313 H 0.86381 0.98021 0.54371 0.0
H3314 H 0.95749 0.02749 0.54975 0.0
H3315 H 0.9265 0.01373 0.55902 0.0
H3316 H 0.9203 0.95336 0.56694 0.0
C3317 C 0.85314 0.92559 0.55008 0.0
C3318 C 0.87601 0.97444 0.54933 0.0
C3319 C 0.83536 0.91463 0.5475 0.0
C3320 C 0.95292 0.01247 0.54677 0.0
C3321 C 0.93522 0.00464 0.55204 0.0
C3322 C 0.90805 0.95946 0.56207 0.0
C3323 C 0.85513 0.94493 0.55606 0.0
C3324 C 0.87394 0.95675 0.55697 0.0
C3325 C 0.92896 0.98517 0.54845 0.0
C3326 C 0.91012 0.97656 0.55334 0.0
H3327 H 0.80885 0.94857 0.56009 0.0
H3328 H 0.84003 0.96776 0.56473 0.0
H3329 H 0.88903 0.93631 0.57028 0.0
H3330 H 0.96654 0.97229 0.52684 0.0
H3331 H 0.93599 0.95877 0.53612 0.0
C3332 C 0.86994 0.08522 0.27375 0.0
C3333 C 0.86192 0.06821 0.26325 0.0
C3334 C 0.85929 0.09979 0.27663 0.0
C3335 C 0.81633 0.11724 0.25703 0.0
H3336 H 0.82703 0.1515 0.30356 0.0
C3337 C 0.78068 0.18415 0.26965 0.0
C3338 C 0.79429 0.20039 0.27189 0.0
C3339 C 0.78616 0.16635 0.2712 0.0
C3340 C 0.82377 0.14192 0.29059 0.0
H3341 H 0.8364 0.05291 0.2478 0.0
H3342 H 0.81757 0.07818 0.25325 0.0
H3343 H 0.84173 0.12299 0.30106 0.0
H3344 H 0.82397 0.21106 0.27855 0.0
H3345 H 0.83341 0.18014 0.28188 0.0
H3346 H 0.79841 0.13639 0.24665 0.0
C3347 C 0.83222 0.08047 0.25891 0.0
C3348 C 0.83232 0.12569 0.28904 0.0
C3349 C 0.84298 0.06596 0.25582 0.0
C3350 C 0.81323 0.19871 0.27669 0.0
C3351 C 0.81861 0.18106 0.2787 0.0
C3352 C 0.80755 0.13334 0.25874 0.0
C3353 C 0.84026 0.09761 0.26931 0.0
C3354 C 0.82921 0.11347 0.27197 0.0
C3355 C 0.80521 0.1647 0.27555 0.0
C3356 C 0.81165 0.14608 0.27529 0.0
H3357 H 0.88454 0.08738 0.27957 0.0
H3358 H 0.86614 0.11291 0.2843 0.0
H3359 H 0.81371 0.1083 0.24361 0.0
H3360 H 0.766 0.18513 0.26582 0.0
H3361 H 0.77561 0.15388 0.26869 0.0
C3362 C 0.71925 0.11947 0.03349 0.0
C3363 C 0.7321 0.10757 0.02788 0.0
C3364 C 0.70029 0.11222 0.03448 0.0
C3365 C 0.66494 0.07105 0.01576 0.0
H3366 H 0.63436 0.0923 0.05285 0.0
C3367 C 0.58688 0.04133 0.01868 0.0
C3368 C 0.57463 0.05484 0.01737 0.0
C3369 C 0.60624 0.04694 0.02287 0.0
C3370 C 0.64277 0.08626 0.04243 0.0
H3371 H 0.73545 0.07867 0.01967 0.0
H3372 H 0.70254 0.06586 0.02201 0.0
H3373 H 0.66823 0.1034 0.05476 0.0
H3374 H 0.57291 0.08475 0.02061 0.0
H3375 H 0.60676 0.09453 0.02812 0.0
H3376 H 0.63949 0.05389 0.0035 0.0
C3377 C 0.7069 0.0809 0.02508 0.0
C3378 C 0.66214 0.09265 0.04343 0.0
C3379 C 0.72579 0.0882 0.02384 0.0
C3380 C 0.582 0.07402 0.02141 0.0
C3381 C 0.60136 0.07962 0.02581 0.0
C3382 C 0.64566 0.06452 0.01492 0.0
C3383 C 0.69383 0.09285 0.03011 0.0
C3384 C 0.67344 0.08529 0.02995 0.0
C3385 C 0.6137 0.06615 0.02606 0.0
C3386 C 0.63435 0.0722 0.02809 0.0
H3387 H 0.72374 0.13449 0.03663 0.0
H3388 H 0.69063 0.12191 0.03811 0.0
H3389 H 0.67306 0.06531 0.00487 0.0
H3390 H 0.58164 0.02643 0.01572 0.0
H3391 H 0.61544 0.03627 0.02319 0.0
C3392 C 0.19423 0.45704 0.27942 0.0
C3393 C 0.17449 0.45437 0.27943 0.0
C3394 C 0.20445 0.44266 0.28426 0.0
C3395 C 0.20021 0.39705 0.30699 0.0
H3396 H 0.23923 0.3864 0.27397 0.0
C3397 C 0.21907 0.32362 0.28972 0.0
C3398 C 0.23798 0.32132 0.28837 0.0
C3399 C 0.21417 0.34148 0.29351 0.0
C3400 C 0.22867 0.38943 0.2836 0.0
H3401 H 0.15 0.43469 0.28467 0.0
H3402 H 0.1677 0.40948 0.2926 0.0
H3403 H 0.22496 0.41489 0.27073 0.0
H3404 H 0.26674 0.33571 0.29059 0.0
H3405 H 0.25806 0.36733 0.29675 0.0
H3406 H 0.20323 0.37095 0.31902 0.0
C3407 C 0.1754 0.42278 0.2893 0.0
C3408 C 0.22046 0.40575 0.28175 0.0
C3409 C 0.1652 0.43717 0.28457 0.0
C3410 C 0.25206 0.33715 0.29166 0.0
C3411 C 0.2471 0.35518 0.29508 0.0
C3412 C 0.20831 0.38067 0.3087 0.0
C3413 C 0.19514 0.4253 0.28913 0.0
C3414 C 0.20572 0.40946 0.29301 0.0
C3415 C 0.22807 0.35749 0.29571 0.0
C3416 C 0.22222 0.37643 0.29664 0.0
H3417 H 0.20178 0.47022 0.27563 0.0
H3418 H 0.21965 0.44515 0.28417 0.0
H3419 H 0.18923 0.39971 0.31623 0.0
H3420 H 0.20796 0.3116 0.28732 0.0
H3421 H 0.19938 0.34285 0.29371 0.0
C3422 C 0.22205 0.43693 0.02278 0.0
C3423 C 0.21923 0.41776 0.02623 0.0
C3424 C 0.20665 0.44632 0.01882 0.0
C3425 C 0.15576 0.43696 0.00246 0.0
H3426 H 0.15441 0.48686 0.02709 0.0
C3427 C 0.08738 0.46481 0.01612 0.0
C3428 C 0.08538 0.48327 0.01196 0.0
C3429 C 0.10457 0.4583 0.01482 0.0
C3430 C 0.15475 0.47308 0.01982 0.0
H3431 H 0.19815 0.39347 0.0286 0.0
H3432 H 0.17134 0.40987 0.0221 0.0
H3433 H 0.18313 0.47249 0.03124 0.0
H3434 H 0.09977 0.50942 0.00309 0.0
H3435 H 0.13033 0.49802 0.00124 0.0
H3436 H 0.12715 0.43722 0.99177 0.0
C3437 C 0.18541 0.4176 0.022 0.0
C3438 C 0.17116 0.46483 0.02221 0.0
C3439 C 0.20077 0.40822 0.0259 0.0
C3440 C 0.10095 0.49511 0.00632 0.0
C3441 C 0.11838 0.48864 0.00533 0.0
C3442 C 0.13939 0.44514 0.0002 0.0
C3443 C 0.18815 0.43671 0.01825 0.0
C3444 C 0.17164 0.44645 0.01399 0.0
C3445 C 0.12027 0.47015 0.00955 0.0
C3446 C 0.13856 0.46305 0.00928 0.0
H3447 H 0.23616 0.44462 0.02289 0.0
H3448 H 0.20924 0.46101 0.01589 0.0
H3449 H 0.15583 0.423 0.99551 0.0
H3450 H 0.07562 0.45531 0.02041 0.0
H3451 H 0.10569 0.44407 0.01839 0.0
C3452 C 0.87092 0.95494 0.25255 0.0
C3453 C 0.86234 0.97058 0.24803 0.0
C3454 C 0.86047 0.93692 0.2508 0.0
C3455 C 0.81179 0.91222 0.24969 0.0
H3456 H 0.83568 0.86892 0.23484 0.0
C3457 C 0.77574 0.83388 0.24769 0.0
C3458 C 0.78652 0.8228 0.2585 0.0
C3459 C 0.78357 0.85202 0.24369 0.0
C3460 C 0.82882 0.88091 0.23892 0.0
H3461 H 0.83617 0.97966 0.2378 0.0
H3462 H 0.81789 0.94803 0.23443 0.0
H3463 H 0.85206 0.90059 0.2321 0.0
H3464 H 0.81387 0.8222 0.27374 0.0
H3465 H 0.8275 0.85347 0.26637 0.0
H3466 H 0.78859 0.89231 0.25662 0.0
C3467 C 0.83265 0.94975 0.2396 0.0
C3468 C 0.83821 0.89903 0.23747 0.0
C3469 C 0.84313 0.96784 0.24145 0.0
C3470 C 0.8052 0.83024 0.26523 0.0
C3471 C 0.81306 0.84814 0.26096 0.0
C3472 C 0.8023 0.89402 0.25094 0.0
C3473 C 0.8412 0.93409 0.24436 0.0
C3474 C 0.83008 0.91492 0.24341 0.0
C3475 C 0.80237 0.85918 0.25014 0.0
C3476 C 0.81099 0.87825 0.24611 0.0
H3477 H 0.88568 0.95662 0.25775 0.0
H3478 H 0.86743 0.92527 0.25498 0.0
H3479 H 0.80517 0.92414 0.25451 0.0
H3480 H 0.76129 0.82857 0.24237 0.0
H3481 H 0.77505 0.86034 0.23535 0.0
C3482 C 0.66323 0.06485 0.74257 0.0
C3483 C 0.67275 0.05113 0.75054 0.0
C3484 C 0.6724 0.08325 0.74204 0.0
C3485 C 0.71336 0.11599 0.76602 0.0
H3486 H 0.69942 0.14811 0.72657 0.0
C3487 C 0.74697 0.19376 0.76709 0.0
C3488 C 0.73368 0.2063 0.76699 0.0
C3489 C 0.74125 0.17449 0.76222 0.0
C3490 C 0.70347 0.13924 0.73763 0.0
H3491 H 0.69955 0.04555 0.76334 0.0
H3492 H 0.71585 0.07748 0.76175 0.0
H3493 H 0.68674 0.11456 0.72307 0.0
H3494 H 0.70419 0.20871 0.76067 0.0
H3495 H 0.69427 0.17506 0.75183 0.0
H3496 H 0.73015 0.14074 0.78047 0.0
C3497 C 0.70111 0.07427 0.75648 0.0
C3498 C 0.69614 0.12006 0.73572 0.0
C3499 C 0.69183 0.05593 0.75729 0.0
C3500 C 0.71473 0.19936 0.76098 0.0
C3501 C 0.70907 0.18014 0.75581 0.0
C3502 C 0.7209 0.13508 0.76775 0.0
C3503 C 0.69141 0.08828 0.7492 0.0
C3504 C 0.70067 0.10825 0.75011 0.0
C3505 C 0.7222 0.16749 0.75683 0.0
C3506 C 0.71575 0.14694 0.75377 0.0
H3507 H 0.64847 0.06155 0.73734 0.0
H3508 H 0.66434 0.09366 0.73663 0.0
H3509 H 0.71694 0.1075 0.77758 0.0
H3510 H 0.76168 0.1987 0.77166 0.0
H3511 H 0.75165 0.16501 0.76301 0.0
loop_
_geom_bond_atom_site_label_1
_geom_bond_atom_site_label_2
_geom_bond_distance
_geom_bond_site_symmetry_2
_ccdc_geom_bond_type
In0 O1 2.294 . S
In0 O2 2.326 . S
In0 O6 2.266 . S
In0 O7 2.326 1_455 S
In0 O8 2.266 . S
In0 O9 2.326 . S
In0 O11 2.294 . S
In0 O12 2.326 . S
O1 In0 2.294 . S
O1 C10 1.240 . S
O2 In0 2.326 . S
O2 C10 1.252 . S
C3 O6 1.252 1_655 S
C3 O7 1.260 . S
C4 O11 1.240 . S
C4 O12 1.252 . S
C5 O8 1.252 . S
C5 O9 1.260 . S
O6 In0 2.266 . S
O6 C3 1.252 1_455 S
O7 In0 2.326 1_655 S
O7 C3 1.260 . S
O8 In0 2.266 . S
O8 C5 1.252 . S
O9 In0 2.326 . S
O9 C5 1.260 . S
C10 O1 1.240 . S
C10 O2 1.252 . S
O11 In0 2.294 . S
O11 C4 1.240 . S
O12 In0 2.326 . S
O12 C4 1.252 . S
In13 O14 2.294 . S
In13 O15 2.326 . S
In13 O19 2.266 . S
In13 O20 2.326 . S
In13 O21 2.266 1_455 S
In13 O22 2.326 1_455 S
In13 O24 2.294 . S
In13 O25 2.326 . S
O14 In13 2.294 . S
O14 C23 1.240 . S
O15 In13 2.326 . S
O15 C23 1.252 . S
C16 O19 1.252 . S
C16 O20 1.260 . S
C17 O24 1.240 . S
C17 O25 1.252 . S
C18 O21 1.252 . S
C18 O22 1.260 . S
O19 In13 2.266 . S
O19 C16 1.252 . S
O20 In13 2.326 . S
O20 C16 1.260 . S
O21 In13 2.266 1_655 S
O21 C18 1.252 . S
O22 In13 2.326 1_655 S
O22 C18 1.260 . S
C23 O14 1.240 . S
C23 O15 1.252 . S
O24 In13 2.294 . S
O24 C17 1.240 . S
O25 In13 2.326 . S
O25 C17 1.252 . S
In26 O27 2.294 . S
In26 O28 2.326 . S
In26 O32 2.266 . S
In26 O33 2.326 . S
In26 O34 2.266 . S
In26 O35 2.326 . S
In26 O37 2.294 . S
In26 O38 2.326 . S
O27 In26 2.294 . S
O27 C36 1.240 . S
O28 In26 2.326 . S
O28 C36 1.252 . S
C29 O32 1.252 . S
C29 O33 1.260 . S
C30 O37 1.240 . S
C30 O38 1.252 . S
C31 O34 1.252 . S
C31 O35 1.260 . S
O32 In26 2.266 . S
O32 C29 1.252 . S
O33 In26 2.326 . S
O33 C29 1.260 . S
O34 In26 2.266 . S
O34 C31 1.252 . S
O35 In26 2.326 . S
O35 C31 1.260 . S
C36 O27 1.240 . S
C36 O28 1.252 . S
O37 In26 2.294 . S
O37 C30 1.240 . S
O38 In26 2.326 . S
O38 C30 1.252 . S
In39 O40 2.294 . S
In39 O41 2.326 . S
In39 O45 2.266 . S
In39 O46 2.326 . S
In39 O47 2.266 . S
In39 O48 2.326 . S
In39 O50 2.294 . S
In39 O51 2.326 . S
O40 In39 2.294 . S
O40 C49 1.240 . S
O41 In39 2.326 . S
O41 C49 1.252 . S
C42 O45 1.252 . S
C42 O46 1.260 . S
C43 O50 1.240 . S
C43 O51 1.252 . S
C44 O47 1.252 . S
C44 O48 1.260 . S
O45 In39 2.266 . S
O45 C42 1.252 . S
O46 In39 2.326 . S
O46 C42 1.260 . S
O47 In39 2.266 . S
O47 C44 1.252 . S
O48 In39 2.326 . S
O48 C44 1.260 . S
C49 O40 1.240 . S
C49 O41 1.252 . S
O50 In39 2.294 . S
O50 C43 1.240 . S
O51 In39 2.326 . S
O51 C43 1.252 . S
In52 O53 2.294 . S
In52 O54 2.326 . S
In52 O58 2.266 . S
In52 O59 2.326 . S
In52 O60 2.266 . S
In52 O61 2.326 . S
In52 O63 2.294 . S
In52 O64 2.326 1_455 S
O53 In52 2.294 . S
O53 C62 1.240 . S
O54 In52 2.326 . S
O54 C62 1.252 . S
C55 O58 1.252 . S
C55 O59 1.260 . S
C56 O63 1.240 1_655 S
C56 O64 1.252 . S
C57 O60 1.252 . S
C57 O61 1.260 . S
O58 In52 2.266 . S
O58 C55 1.252 . S
O59 In52 2.326 . S
O59 C55 1.260 . S
O60 In52 2.266 . S
O60 C57 1.252 . S
O61 In52 2.326 . S
O61 C57 1.260 . S
C62 O53 1.240 . S
C62 O54 1.252 . S
O63 In52 2.294 . S
O63 C56 1.240 1_455 S
O64 In52 2.326 1_655 S
O64 C56 1.252 . S
In65 O66 2.294 . S
In65 O67 2.326 . S
In65 O71 2.266 . S
In65 O72 2.326 . S
In65 O73 2.266 . S
In65 O74 2.326 . S
In65 O76 2.294 . S
In65 O77 2.326 . S
O66 In65 2.294 . S
O66 C75 1.240 . S
O67 In65 2.326 . S
O67 C75 1.252 . S
C68 O71 1.252 . S
C68 O72 1.260 . S
C69 O76 1.240 . S
C69 O77 1.252 . S
C70 O73 1.252 . S
C70 O74 1.260 . S
O71 In65 2.266 . S
O71 C68 1.252 . S
O72 In65 2.326 . S
O72 C68 1.260 . S
O73 In65 2.266 . S
O73 C70 1.252 . S
O74 In65 2.326 . S
O74 C70 1.260 . S
C75 O66 1.240 . S
C75 O67 1.252 . S
O76 In65 2.294 . S
O76 C69 1.240 . S
O77 In65 2.326 . S
O77 C69 1.252 . S
In78 O79 2.294 . S
In78 O80 2.326 . S
In78 O84 2.266 . S
In78 O85 2.326 . S
In78 O86 2.266 . S
In78 O87 2.326 . S
In78 O89 2.294 . S
In78 O90 2.326 . S
O79 In78 2.294 . S
O79 C88 1.240 . S
O80 In78 2.326 . S
O80 C88 1.252 . S
C81 O84 1.252 . S
C81 O85 1.260 . S
C82 O89 1.240 . S
C82 O90 1.252 . S
C83 O86 1.252 . S
C83 O87 1.260 . S
O84 In78 2.266 . S
O84 C81 1.252 . S
O85 In78 2.326 . S
O85 C81 1.260 . S
O86 In78 2.266 . S
O86 C83 1.252 . S
O87 In78 2.326 . S
O87 C83 1.260 . S
C88 O79 1.240 . S
C88 O80 1.252 . S
O89 In78 2.294 . S
O89 C82 1.240 . S
O90 In78 2.326 . S
O90 C82 1.252 . S
In91 O92 2.294 . S
In91 O93 2.326 . S
In91 O97 2.266 . S
In91 O98 2.326 . S
In91 O99 2.266 1_455 S
In91 O100 2.326 1_455 S
In91 O102 2.294 . S
In91 O103 2.326 . S
O92 In91 2.294 . S
O92 C101 1.240 . S
O93 In91 2.326 . S
O93 C101 1.252 . S
C94 O97 1.252 . S
C94 O98 1.260 . S
C95 O102 1.240 . S
C95 O103 1.252 . S
C96 O99 1.252 . S
C96 O100 1.260 . S
O97 In91 2.266 . S
O97 C94 1.252 . S
O98 In91 2.326 . S
O98 C94 1.260 . S
O99 In91 2.266 1_655 S
O99 C96 1.252 . S
O100 In91 2.326 1_655 S
O100 C96 1.260 . S
C101 O92 1.240 . S
C101 O93 1.252 . S
O102 In91 2.294 . S
O102 C95 1.240 . S
O103 In91 2.326 . S
O103 C95 1.252 . S
In104 O105 2.294 . S
In104 O106 2.326 . S
In104 O110 2.266 . S
In104 O111 2.326 . S
In104 O112 2.288 . S
In104 O113 2.326 1_545 S
In104 O115 2.294 . S
In104 O116 2.326 . S
O105 In104 2.294 . S
O105 C114 1.240 . S
O106 In104 2.326 . S
O106 C114 1.252 . S
C107 O110 1.252 . S
C107 O111 1.260 . S
C108 O115 1.240 . S
C108 O116 1.252 . S
C109 O112 1.223 1_565 S
C109 O113 1.260 . S
O110 In104 2.266 . S
O110 C107 1.252 . S
O111 In104 2.326 . S
O111 C107 1.260 . S
O112 In104 2.288 . S
O112 C109 1.223 1_545 S
O113 In104 2.326 1_565 S
O113 C109 1.260 . S
C114 O105 1.240 . S
C114 O106 1.252 . S
O115 In104 2.294 . S
O115 C108 1.240 . S
O116 In104 2.326 . S
O116 C108 1.252 . S
In117 O118 2.294 . S
In117 O119 2.326 . S
In117 O123 2.266 . S
In117 O124 2.326 . S
In117 O125 2.266 . S
In117 O126 2.326 . S
In117 O128 2.294 . S
In117 O129 2.326 . S
O118 In117 2.294 . S
O118 C127 1.240 . S
O119 In117 2.326 . S
O119 C127 1.252 . S
C120 O123 1.252 . S
C120 O124 1.260 . S
C121 O128 1.240 . S
C121 O129 1.252 . S
C122 O125 1.252 . S
C122 O126 1.260 . S
O123 In117 2.266 . S
O123 C120 1.252 . S
O124 In117 2.326 . S
O124 C120 1.260 . S
O125 In117 2.266 . S
O125 C122 1.252 . S
O126 In117 2.326 . S
O126 C122 1.260 . S
C127 O118 1.240 . S
C127 O119 1.252 . S
O128 In117 2.294 . S
O128 C121 1.240 . S
O129 In117 2.326 . S
O129 C121 1.252 . S
In130 O131 2.294 . S
In130 O132 2.326 . S
In130 O136 2.266 . S
In130 O137 2.326 . S
In130 O138 2.266 . S
In130 O139 2.326 . S
In130 O141 2.294 1_545 S
In130 O142 2.326 1_545 S
O131 In130 2.294 . S
O131 C140 1.240 . S
O132 In130 2.326 . S
O132 C140 1.252 . S
C133 O136 1.252 . S
C133 O137 1.260 . S
C134 O141 1.240 . S
C134 O142 1.252 . S
C135 O138 1.252 . S
C135 O139 1.260 . S
O136 In130 2.266 . S
O136 C133 1.252 . S
O137 In130 2.326 . S
O137 C133 1.260 . S
O138 In130 2.266 . S
O138 C135 1.252 . S
O139 In130 2.326 . S
O139 C135 1.260 . S
C140 O131 1.240 . S
C140 O132 1.252 . S
O141 In130 2.294 1_565 S
O141 C134 1.240 . S
O142 In130 2.326 1_565 S
O142 C134 1.252 . S
In143 O144 2.294 . S
In143 O145 2.326 . S
In143 O149 2.266 1_554 S
In143 O150 2.326 1_554 S
In143 O151 2.266 . S
In143 O152 2.326 . S
In143 O154 2.294 . S
In143 O155 2.326 . S
O144 In143 2.294 . S
O144 C153 1.240 . S
O145 In143 2.326 . S
O145 C153 1.252 . S
C146 O149 1.252 . S
C146 O150 1.260 . S
C147 O154 1.240 . S
C147 O155 1.252 . S
C148 O151 1.252 . S
C148 O152 1.260 . S
O149 In143 2.266 1_556 S
O149 C146 1.252 . S
O150 In143 2.326 1_556 S
O150 C146 1.260 . S
O151 In143 2.266 . S
O151 C148 1.252 . S
O152 In143 2.326 . S
O152 C148 1.260 . S
C153 O144 1.240 . S
C153 O145 1.252 . S
O154 In143 2.294 . S
O154 C147 1.240 . S
O155 In143 2.326 . S
O155 C147 1.252 . S
In156 O157 2.294 . S
In156 O158 2.326 . S
In156 O162 2.266 . S
In156 O163 2.326 . S
In156 O164 2.266 . S
In156 O165 2.326 . S
In156 O167 2.294 . S
In156 O168 2.326 . S
O157 In156 2.294 . S
O157 C166 1.240 . S
O158 In156 2.326 . S
O158 C166 1.252 . S
C159 O162 1.275 . S
C159 O163 1.264 . S
C160 O167 1.240 . S
C160 O168 1.252 . S
C161 O164 1.252 . S
C161 O165 1.260 . S
O162 In156 2.266 . S
O162 C159 1.275 . S
O163 In156 2.326 . S
O163 C159 1.264 . S
O164 In156 2.266 . S
O164 C161 1.252 . S
O165 In156 2.326 . S
O165 C161 1.260 . S
C166 O157 1.240 . S
C166 O158 1.252 . S
O167 In156 2.294 . S
O167 C160 1.240 . S
O168 In156 2.326 . S
O168 C160 1.252 . S
In169 O170 2.294 . S
In169 O171 2.326 . S
In169 O175 2.266 . S
In169 O176 2.326 . S
In169 O177 2.266 . S
In169 O178 2.326 1_554 S
In169 O180 2.294 . S
In169 O181 2.326 . S
O170 In169 2.294 . S
O170 C179 1.240 . S
O171 In169 2.326 . S
O171 C179 1.252 . S
C172 O175 1.252 . S
C172 O176 1.260 . S
C173 O180 1.240 . S
C173 O181 1.252 . S
C174 O177 1.252 1_556 S
C174 O178 1.260 . S
O175 In169 2.266 . S
O175 C172 1.252 . S
O176 In169 2.326 . S
O176 C172 1.260 . S
O177 In169 2.266 . S
O177 C174 1.252 1_554 S
O178 In169 2.326 1_556 S
O178 C174 1.260 . S
C179 O170 1.240 . S
C179 O171 1.252 . S
O180 In169 2.294 . S
O180 C173 1.240 . S
O181 In169 2.326 . S
O181 C173 1.252 . S
In182 O183 2.294 . S
In182 O184 2.326 . S
In182 O188 2.266 . S
In182 O189 2.326 . S
In182 O190 2.266 . S
In182 O191 2.326 . S
In182 O193 2.294 . S
In182 O194 2.326 . S
O183 In182 2.294 . S
O183 C192 1.240 . S
O184 In182 2.326 . S
O184 C192 1.252 . S
C185 O188 1.252 . S
C185 O189 1.260 . S
C186 O193 1.240 . S
C186 O194 1.252 . S
C187 O190 1.252 . S
C187 O191 1.260 . S
O188 In182 2.266 . S
O188 C185 1.252 . S
O189 In182 2.326 . S
O189 C185 1.260 . S
O190 In182 2.266 . S
O190 C187 1.252 . S
O191 In182 2.326 . S
O191 C187 1.260 . S
C192 O183 1.240 . S
C192 O184 1.252 . S
O193 In182 2.294 . S
O193 C186 1.240 . S
O194 In182 2.326 . S
O194 C186 1.252 . S
In195 O196 2.294 . S
In195 O197 2.326 . S
In195 O201 2.266 . S
In195 O202 2.326 . S
In195 O203 2.266 . S
In195 O204 2.326 . S
In195 O206 2.294 . S
In195 O207 2.326 . S
O196 In195 2.294 . S
O196 C205 1.240 . S
O197 In195 2.326 . S
O197 C205 1.252 . S
C198 O201 1.252 . S
C198 O202 1.260 . S
C199 O206 1.240 . S
C199 O207 1.252 . S
C200 O203 1.252 . S
C200 O204 1.260 . S
O201 In195 2.266 . S
O201 C198 1.252 . S
O202 In195 2.326 . S
O202 C198 1.260 . S
O203 In195 2.266 . S
O203 C200 1.252 . S
O204 In195 2.326 . S
O204 C200 1.260 . S
C205 O196 1.240 . S
C205 O197 1.252 . S
O206 In195 2.294 . S
O206 C199 1.240 . S
O207 In195 2.326 . S
O207 C199 1.252 . S
In208 O209 2.294 . S
In208 O210 2.326 . S
In208 O214 2.266 . S
In208 O215 2.326 . S
In208 O216 2.266 1_545 S
In208 O217 2.326 1_545 S
In208 O219 2.294 . S
In208 O220 2.326 . S
O209 In208 2.294 . S
O209 C218 1.240 . S
O210 In208 2.326 . S
O210 C218 1.252 . S
C211 O214 1.252 . S
C211 O215 1.260 . S
C212 O219 1.240 . S
C212 O220 1.252 . S
C213 O216 1.252 . S
C213 O217 1.260 . S
O214 In208 2.266 . S
O214 C211 1.252 . S
O215 In208 2.326 . S
O215 C211 1.260 . S
O216 In208 2.266 1_565 S
O216 C213 1.252 . S
O217 In208 2.326 1_565 S
O217 C213 1.260 . S
C218 O209 1.240 . S
C218 O210 1.252 . S
O219 In208 2.294 . S
O219 C212 1.240 . S
O220 In208 2.326 . S
O220 C212 1.252 . S
In221 O222 2.294 . S
In221 O223 2.326 . S
In221 O227 2.266 . S
In221 O228 2.326 . S
In221 O229 2.266 . S
In221 O230 2.326 . S
In221 O232 2.294 . S
In221 O233 2.326 . S
O222 In221 2.294 . S
O222 C231 1.240 . S
O223 In221 2.326 . S
O223 C231 1.252 . S
C224 O227 1.252 . S
C224 O228 1.260 . S
C225 O232 1.240 . S
C225 O233 1.252 . S
C226 O229 1.252 . S
C226 O230 1.260 . S
O227 In221 2.266 . S
O227 C224 1.252 . S
O228 In221 2.326 . S
O228 C224 1.260 . S
O229 In221 2.266 . S
O229 C226 1.252 . S
O230 In221 2.326 . S
O230 C226 1.260 . S
C231 O222 1.240 . S
C231 O223 1.252 . S
O232 In221 2.294 . S
O232 C225 1.240 . S
O233 In221 2.326 . S
O233 C225 1.252 . S
In234 O235 2.294 . S
In234 O236 2.326 . S
In234 O240 2.266 . S
In234 O241 2.326 . S
In234 O242 2.266 . S
In234 O243 2.326 . S
In234 O245 2.294 . S
In234 O246 2.326 . S
O235 In234 2.294 . S
O235 C244 1.240 . S
O236 In234 2.326 . S
O236 C244 1.252 . S
C237 O240 1.252 . S
C237 O241 1.260 . S
C238 O245 1.240 . S
C238 O246 1.252 . S
C239 O242 1.252 . S
C239 O243 1.260 . S
O240 In234 2.266 . S
O240 C237 1.252 . S
O241 In234 2.326 . S
O241 C237 1.260 . S
O242 In234 2.266 . S
O242 C239 1.252 . S
O243 In234 2.326 . S
O243 C239 1.260 . S
C244 O235 1.240 . S
C244 O236 1.252 . S
O245 In234 2.294 . S
O245 C238 1.240 . S
O246 In234 2.326 . S
O246 C238 1.252 . S
In247 O248 2.294 1_545 S
In247 O249 2.326 1_545 S
In247 O253 2.266 . S
In247 O254 2.326 . S
In247 O255 2.266 . S
In247 O256 2.326 . S
In247 O258 2.294 1_545 S
In247 O259 2.326 . S
O248 In247 2.294 1_565 S
O248 C257 1.240 . S
O249 In247 2.326 1_565 S
O249 C257 1.252 . S
C250 O253 1.252 . S
C250 O254 1.260 . S
C251 O258 1.240 . S
C251 O259 1.252 1_565 S
C252 O255 1.252 . S
C252 O256 1.260 . S
O253 In247 2.266 . S
O253 C250 1.252 . S
O254 In247 2.326 . S
O254 C250 1.260 . S
O255 In247 2.266 . S
O255 C252 1.252 . S
O256 In247 2.326 . S
O256 C252 1.260 . S
C257 O248 1.240 . S
C257 O249 1.252 . S
O258 In247 2.294 1_565 S
O258 C251 1.240 . S
O259 In247 2.326 . S
O259 C251 1.252 1_545 S
In260 O261 2.299 . S
In260 O262 2.328 . S
In260 O266 2.264 1_554 S
In260 O267 2.325 1_554 S
In260 O268 2.241 1_554 S
In260 O269 2.289 1_554 S
In260 O271 2.317 . S
In260 O272 2.363 . S
O261 In260 2.299 . S
O261 C270 1.240 . S
O262 In260 2.328 . S
O262 C270 1.252 . S
C263 O266 1.252 . S
C263 O267 1.260 . S
C264 O271 1.240 . S
C264 O272 1.252 . S
C265 O268 1.252 . S
C265 O269 1.260 . S
O266 In260 2.264 1_556 S
O266 C263 1.252 . S
O267 In260 2.325 1_556 S
O267 C263 1.260 . S
O268 In260 2.241 1_556 S
O268 C265 1.252 . S
O269 In260 2.289 1_556 S
O269 C265 1.260 . S
C270 O261 1.240 . S
C270 O262 1.252 . S
O271 In260 2.317 . S
O271 C264 1.240 . S
O272 In260 2.363 . S
O272 C264 1.252 . S
In273 O274 2.294 . S
In273 O275 2.326 . S
In273 O279 2.266 . S
In273 O280 2.326 . S
In273 O281 2.266 . S
In273 O282 2.326 . S
In273 O284 2.294 . S
In273 O285 2.326 . S
O274 In273 2.294 . S
O274 C283 1.240 . S
O275 In273 2.326 . S
O275 C283 1.252 . S
C276 O279 1.252 . S
C276 O280 1.260 . S
C277 O284 1.240 . S
C277 O285 1.252 . S
C278 O281 1.252 . S
C278 O282 1.260 . S
O279 In273 2.266 . S
O279 C276 1.252 . S
O280 In273 2.326 . S
O280 C276 1.260 . S
O281 In273 2.266 . S
O281 C278 1.252 . S
O282 In273 2.326 . S
O282 C278 1.260 . S
C283 O274 1.240 . S
C283 O275 1.252 . S
O284 In273 2.294 . S
O284 C277 1.240 . S
O285 In273 2.326 . S
O285 C277 1.252 . S
In286 O287 2.294 . S
In286 O288 2.326 . S
In286 O292 2.266 . S
In286 O293 2.326 . S
In286 O294 2.266 . S
In286 O295 2.326 . S
In286 O297 2.294 . S
In286 O298 2.326 . S
O287 In286 2.294 . S
O287 C296 1.240 . S
O288 In286 2.326 . S
O288 C296 1.252 . S
C289 O292 1.252 . S
C289 O293 1.260 . S
C290 O297 1.240 . S
C290 O298 1.252 . S
C291 O294 1.252 . S
C291 O295 1.260 . S
O292 In286 2.266 . S
O292 C289 1.252 . S
O293 In286 2.326 . S
O293 C289 1.260 . S
O294 In286 2.266 . S
O294 C291 1.252 . S
O295 In286 2.326 . S
O295 C291 1.260 . S
C296 O287 1.240 . S
C296 O288 1.252 . S
O297 In286 2.294 . S
O297 C290 1.240 . S
O298 In286 2.326 . S
O298 C290 1.252 . S
In299 O300 2.294 . S
In299 O301 2.326 . S
In299 O305 2.266 . S
In299 O306 2.326 . S
In299 O307 2.266 . S
In299 O308 2.326 . S
In299 O310 2.294 . S
In299 O311 2.326 . S
O300 In299 2.294 . S
O300 C309 1.240 . S
O301 In299 2.326 . S
O301 C309 1.252 . S
C302 O305 1.252 . S
C302 O306 1.260 . S
C303 O310 1.240 . S
C303 O311 1.252 . S
C304 O307 1.252 . S
C304 O308 1.260 . S
O305 In299 2.266 . S
O305 C302 1.252 . S
O306 In299 2.326 . S
O306 C302 1.260 . S
O307 In299 2.266 . S
O307 C304 1.252 . S
O308 In299 2.326 . S
O308 C304 1.260 . S
C309 O300 1.240 . S
C309 O301 1.252 . S
O310 In299 2.294 . S
O310 C303 1.240 . S
O311 In299 2.326 . S
O311 C303 1.252 . S
Zn312 O318 1.969 . S
Zn312 O319 1.965 . S
Zn312 O323 2.024 1_545 S
Zn312 O328 1.969 . S
Zn313 O320 1.969 . S
Zn313 O326 1.969 1_455 S
Zn313 O327 1.965 . S
Zn313 O329 2.024 . S
C314 O315 1.229 . S
C314 O323 1.058 . S
O315 C314 1.229 . S
C316 O317 1.229 . S
C316 O329 1.058 . S
O317 C316 1.229 . S
O318 Zn312 1.969 . S
O318 C321 1.267 . S
O319 Zn312 1.965 . S
O319 C330 1.260 . S
O320 Zn313 1.969 . S
O320 C330 1.258 . S
C321 O318 1.267 . S
C321 O322 1.228 1_545 S
O322 C321 1.228 1_565 S
O323 Zn312 2.024 1_565 S
O323 C314 1.058 . S
C324 O325 1.228 . S
C324 O326 1.267 . S
O325 C324 1.228 . S
O326 Zn313 1.969 1_655 S
O326 C324 1.267 . S
O327 Zn313 1.965 . S
O327 C331 1.260 . S
O328 Zn312 1.969 . S
O328 C331 1.258 . S
O329 Zn313 2.024 . S
O329 C316 1.058 . S
C330 O319 1.260 . S
C330 O320 1.258 . S
C331 O327 1.260 . S
C331 O328 1.258 . S
Zn332 O338 1.969 . S
Zn332 O339 1.965 . S
Zn332 O343 2.024 . S
Zn332 O348 1.969 . S
Zn333 O340 1.969 . S
Zn333 O346 1.969 . S
Zn333 O347 1.965 . S
Zn333 O349 2.024 . S
C334 O335 1.229 . S
C334 O343 1.058 . S
O335 C334 1.229 . S
C336 O337 1.229 . S
C336 O349 1.058 . S
O337 C336 1.229 . S
O338 Zn332 1.969 . S
O338 C341 1.267 . S
O339 Zn332 1.965 . S
O339 C350 1.260 . S
O340 Zn333 1.969 . S
O340 C350 1.258 . S
C341 O338 1.267 . S
C341 O342 1.228 . S
O342 C341 1.228 . S
O343 Zn332 2.024 . S
O343 C334 1.058 . S
C344 O345 1.228 . S
C344 O346 1.267 . S
O345 C344 1.228 . S
O346 Zn333 1.969 . S
O346 C344 1.267 . S
O347 Zn333 1.965 . S
O347 C351 1.260 . S
O348 Zn332 1.969 . S
O348 C351 1.258 . S
O349 Zn333 2.024 . S
O349 C336 1.058 . S
C350 O339 1.260 . S
C350 O340 1.258 . S
C351 O347 1.260 . S
C351 O348 1.258 . S
Zn352 O358 1.969 . S
Zn352 O359 1.965 . S
Zn352 O363 2.024 . S
Zn352 O368 1.969 . S
Zn353 O360 1.969 . S
Zn353 O366 1.969 . S
Zn353 O367 1.967 1_565 S
Zn353 O369 2.024 . S
C354 O355 1.229 . S
C354 O363 1.058 . S
O355 C354 1.229 . S
C356 O357 1.229 . S
C356 O369 1.058 . S
O357 C356 1.229 . S
O358 Zn352 1.969 . S
O358 C361 1.267 . S
O359 Zn352 1.965 . S
O359 C370 1.260 . S
O360 Zn353 1.969 . S
O360 C370 1.258 1_565 S
C361 O358 1.267 . S
C361 O362 1.228 . S
O362 C361 1.228 . S
O363 Zn352 2.024 . S
O363 C354 1.058 . S
C364 O365 1.228 . S
C364 O366 1.267 . S
O365 C364 1.228 . S
O366 Zn353 1.969 . S
O366 C364 1.267 . S
O367 Zn353 1.967 1_545 S
O367 C371 1.259 . S
O368 Zn352 1.969 . S
O368 C371 1.258 . S
O369 Zn353 2.024 . S
O369 C356 1.058 . S
C370 O359 1.260 . S
C370 O360 1.258 1_545 S
C371 O367 1.259 . S
C371 O368 1.258 . S
Zn372 O378 1.969 . S
Zn372 O379 1.965 . S
Zn372 O383 2.024 . S
Zn372 O388 1.969 . S
Zn373 O380 1.969 . S
Zn373 O386 1.969 . S
Zn373 O387 1.965 . S
Zn373 O389 2.024 . S
C374 O375 1.229 . S
C374 O383 1.058 . S
O375 C374 1.229 . S
C376 O377 1.229 . S
C376 O389 1.058 . S
O377 C376 1.229 . S
O378 Zn372 1.969 . S
O378 C381 1.267 . S
O379 Zn372 1.965 . S
O379 C390 1.260 . S
O380 Zn373 1.969 . S
O380 C390 1.258 . S
C381 O378 1.267 . S
C381 O382 1.228 . S
O382 C381 1.228 . S
O383 Zn372 2.024 . S
O383 C374 1.058 . S
C384 O385 1.228 . S
C384 O386 1.267 . S
O385 C384 1.228 . S
O386 Zn373 1.969 . S
O386 C384 1.267 . S
O387 Zn373 1.965 . S
O387 C391 1.260 . S
O388 Zn372 1.969 . S
O388 C391 1.258 . S
O389 Zn373 2.024 . S
O389 C376 1.058 . S
C390 O379 1.260 . S
C390 O380 1.258 . S
C391 O387 1.260 . S
C391 O388 1.258 . S
Zn392 O398 1.969 . S
Zn392 O399 1.965 . S
Zn392 O403 2.024 1_565 S
Zn392 O408 1.969 1_565 S
Zn393 O400 1.969 1_455 S
Zn393 O406 1.969 . S
Zn393 O407 1.965 . S
Zn393 O409 2.024 . S
C394 O395 1.192 1_545 S
C394 O403 1.080 . S
O395 C394 1.192 1_565 S
C396 O397 1.229 1_455 S
C396 O409 1.058 . S
O397 C396 1.229 1_655 S
O398 Zn392 1.969 . S
O398 C401 1.267 . S
O399 Zn392 1.965 . S
O399 C410 1.260 1_455 S
O400 Zn393 1.969 1_655 S
O400 C410 1.258 1_545 S
C401 O398 1.267 . S
C401 O402 1.228 . S
O402 C401 1.228 . S
O403 Zn392 2.024 1_545 S
O403 C394 1.080 . S
C404 O405 1.228 . S
C404 O406 1.267 . S
O405 C404 1.228 . S
O406 Zn393 1.969 . S
O406 C404 1.267 . S
O407 Zn393 1.965 . S
O407 C411 1.260 . S
O408 Zn392 1.969 1_545 S
O408 C411 1.258 . S
O409 Zn393 2.024 . S
O409 C396 1.058 . S
C410 O399 1.260 1_655 S
C410 O400 1.258 1_565 S
C411 O407 1.260 . S
C411 O408 1.258 . S
Zn412 O418 1.969 . S
Zn412 O419 1.965 . S
Zn412 O423 2.024 . S
Zn412 O428 1.969 . S
Zn413 O420 1.969 . S
Zn413 O426 1.969 . S
Zn413 O427 1.965 . S
Zn413 O429 2.024 . S
C414 O415 1.229 . S
C414 O423 1.058 . S
O415 C414 1.229 . S
C416 O417 1.229 . S
C416 O429 1.058 . S
O417 C416 1.229 . S
O418 Zn412 1.969 . S
O418 C421 1.267 . S
O419 Zn412 1.965 . S
O419 C430 1.260 . S
O420 Zn413 1.969 . S
O420 C430 1.258 . S
C421 O418 1.267 . S
C421 O422 1.228 . S
O422 C421 1.228 . S
O423 Zn412 2.024 . S
O423 C414 1.058 . S
C424 O425 1.228 . S
C424 O426 1.267 . S
O425 C424 1.228 . S
O426 Zn413 1.969 . S
O426 C424 1.267 . S
O427 Zn413 1.965 . S
O427 C431 1.260 . S
O428 Zn412 1.969 . S
O428 C431 1.258 . S
O429 Zn413 2.024 . S
O429 C416 1.058 . S
C430 O419 1.260 . S
C430 O420 1.258 . S
C431 O427 1.260 . S
C431 O428 1.258 . S
Zn432 O438 1.969 . S
Zn432 O439 1.965 . S
Zn432 O443 2.024 1_556 S
Zn432 O448 1.969 1_556 S
Zn433 O440 1.969 1_545 S
Zn433 O446 1.969 . S
Zn433 O447 1.965 . S
Zn433 O449 2.024 . S
C434 O435 1.229 1_554 S
C434 O443 1.058 . S
O435 C434 1.229 1_556 S
C436 O437 1.229 1_545 S
C436 O449 1.058 . S
O437 C436 1.229 1_565 S
O438 Zn432 1.969 . S
O438 C441 1.267 . S
O439 Zn432 1.965 . S
O439 C450 1.260 1_545 S
O440 Zn433 1.969 1_565 S
O440 C450 1.258 1_554 S
C441 O438 1.267 . S
C441 O442 1.228 . S
O442 C441 1.228 . S
O443 Zn432 2.024 1_554 S
O443 C434 1.058 . S
C444 O445 1.228 . S
C444 O446 1.267 . S
O445 C444 1.228 . S
O446 Zn433 1.969 . S
O446 C444 1.267 . S
O447 Zn433 1.965 . S
O447 C451 1.260 . S
O448 Zn432 1.969 1_554 S
O448 C451 1.258 . S
O449 Zn433 2.024 . S
O449 C436 1.058 . S
C450 O439 1.260 1_565 S
C450 O440 1.258 1_556 S
C451 O447 1.260 . S
C451 O448 1.258 . S
Zn452 O458 1.969 . S
Zn452 O459 1.965 . S
Zn452 O463 2.024 . S
Zn452 O468 1.969 . S
Zn453 O460 1.969 . S
Zn453 O466 1.969 . S
Zn453 O467 1.965 . S
Zn453 O469 2.024 . S
C454 O455 1.229 . S
C454 O463 1.058 . S
O455 C454 1.229 . S
C456 O457 1.229 . S
C456 O469 1.058 . S
O457 C456 1.229 . S
O458 Zn452 1.969 . S
O458 C461 1.267 . S
O459 Zn452 1.965 . S
O459 C470 1.260 . S
O460 Zn453 1.969 . S
O460 C470 1.258 . S
C461 O458 1.267 . S
C461 O462 1.228 . S
O462 C461 1.228 . S
O463 Zn452 2.024 . S
O463 C454 1.058 . S
C464 O465 1.228 . S
C464 O466 1.267 . S
O465 C464 1.228 . S
O466 Zn453 1.969 . S
O466 C464 1.267 . S
O467 Zn453 1.965 . S
O467 C471 1.260 . S
O468 Zn452 1.969 . S
O468 C471 1.258 . S
O469 Zn453 2.024 . S
O469 C456 1.058 . S
C470 O459 1.260 . S
C470 O460 1.258 . S
C471 O467 1.260 . S
C471 O468 1.258 . S
Zn472 O478 1.969 . S
Zn472 O479 1.965 . S
Zn472 O483 2.024 . S
Zn472 O488 1.969 . S
Zn473 O480 1.954 1_556 S
Zn473 O486 1.969 . S
Zn473 O487 1.965 1_556 S
Zn473 O489 2.024 . S
C474 O475 1.229 . S
C474 O483 1.058 . S
O475 C474 1.229 . S
C476 O477 1.229 . S
C476 O489 1.058 . S
O477 C476 1.229 . S
O478 Zn472 1.969 . S
O478 C481 1.267 . S
O479 Zn472 1.965 . S
O479 C490 1.260 . S
O480 Zn473 1.954 1_554 S
O480 C490 1.277 . S
C481 O478 1.267 . S
C481 O482 1.228 . S
O482 C481 1.228 . S
O483 Zn472 2.024 . S
O483 C474 1.058 . S
C484 O485 1.228 . S
C484 O486 1.267 . S
O485 C484 1.228 . S
O486 Zn473 1.969 . S
O486 C484 1.267 . S
O487 Zn473 1.965 1_554 S
O487 C491 1.260 . S
O488 Zn472 1.969 . S
O488 C491 1.258 . S
O489 Zn473 2.024 . S
O489 C476 1.058 . S
C490 O479 1.260 . S
C490 O480 1.277 . S
C491 O487 1.260 . S
C491 O488 1.258 . S
Zn492 O498 1.969 . S
Zn492 O499 1.965 . S
Zn492 O503 2.024 . S
Zn492 O508 1.969 . S
Zn493 O500 1.969 . S
Zn493 O506 1.969 . S
Zn493 O507 1.965 . S
Zn493 O509 2.024 . S
C494 O495 1.229 . S
C494 O503 1.058 . S
O495 C494 1.229 . S
C496 O497 1.229 . S
C496 O509 1.058 . S
O497 C496 1.229 . S
O498 Zn492 1.969 . S
O498 C501 1.267 . S
O499 Zn492 1.965 . S
O499 C510 1.260 . S
O500 Zn493 1.969 . S
O500 C510 1.258 . S
C501 O498 1.267 . S
C501 O502 1.228 . S
O502 C501 1.228 . S
O503 Zn492 2.024 . S
O503 C494 1.058 . S
C504 O505 1.228 . S
C504 O506 1.267 . S
O505 C504 1.228 . S
O506 Zn493 1.969 . S
O506 C504 1.267 . S
O507 Zn493 1.965 . S
O507 C511 1.260 . S
O508 Zn492 1.969 . S
O508 C511 1.258 . S
O509 Zn493 2.024 . S
O509 C496 1.058 . S
C510 O499 1.260 . S
C510 O500 1.258 . S
C511 O507 1.260 . S
C511 O508 1.258 . S
Zn512 O518 1.969 . S
Zn512 O519 1.965 . S
Zn512 O523 2.024 . S
Zn512 O528 1.969 . S
Zn513 O520 1.969 . S
Zn513 O526 1.969 . S
Zn513 O527 1.965 1_655 S
Zn513 O529 2.024 . S
C514 O515 1.229 . S
C514 O523 1.058 . S
O515 C514 1.229 . S
C516 O517 1.229 . S
C516 O529 1.058 . S
O517 C516 1.229 . S
O518 Zn512 1.969 . S
O518 C521 1.267 . S
O519 Zn512 1.965 . S
O519 C530 1.260 . S
O520 Zn513 1.969 . S
O520 C530 1.258 1_655 S
C521 O518 1.267 . S
C521 O522 1.228 . S
O522 C521 1.228 . S
O523 Zn512 2.024 . S
O523 C514 1.058 . S
C524 O525 1.228 . S
C524 O526 1.267 . S
O525 C524 1.228 . S
O526 Zn513 1.969 . S
O526 C524 1.267 . S
O527 Zn513 1.965 1_455 S
O527 C531 1.260 . S
O528 Zn512 1.969 . S
O528 C531 1.258 . S
O529 Zn513 2.024 . S
O529 C516 1.058 . S
C530 O519 1.260 . S
C530 O520 1.258 1_455 S
C531 O527 1.260 . S
C531 O528 1.258 . S
Zn532 O538 1.969 . S
Zn532 O539 1.965 . S
Zn532 O543 2.024 . S
Zn532 O548 1.969 . S
Zn533 O540 1.969 . S
Zn533 O546 1.969 . S
Zn533 O547 1.965 . S
Zn533 O549 2.024 . S
C534 O535 1.229 . S
C534 O543 1.058 . S
O535 C534 1.229 . S
C536 O537 1.229 . S
C536 O549 1.058 . S
O537 C536 1.229 . S
O538 Zn532 1.969 . S
O538 C541 1.267 . S
O539 Zn532 1.965 . S
O539 C550 1.260 . S
O540 Zn533 1.969 . S
O540 C550 1.258 . S
C541 O538 1.267 . S
C541 O542 1.228 . S
O542 C541 1.228 . S
O543 Zn532 2.024 . S
O543 C534 1.058 . S
C544 O545 1.228 . S
C544 O546 1.267 . S
O545 C544 1.228 . S
O546 Zn533 1.969 . S
O546 C544 1.267 . S
O547 Zn533 1.965 . S
O547 C551 1.260 . S
O548 Zn532 1.969 . S
O548 C551 1.258 . S
O549 Zn533 2.024 . S
O549 C536 1.058 . S
C550 O539 1.260 . S
C550 O540 1.258 . S
C551 O547 1.260 . S
C551 O548 1.258 . S
Zn552 O558 1.969 . S
Zn552 O559 1.965 . S
Zn552 O563 2.024 . S
Zn552 O568 1.969 . S
Zn553 O560 1.969 . S
Zn553 O566 1.969 . S
Zn553 O567 1.965 . S
Zn553 O569 2.024 . S
C554 O555 1.229 . S
C554 O563 1.058 . S
O555 C554 1.229 . S
C556 O557 1.229 . S
C556 O569 1.058 . S
O557 C556 1.229 . S
O558 Zn552 1.969 . S
O558 C561 1.267 . S
O559 Zn552 1.965 . S
O559 C570 1.260 . S
O560 Zn553 1.969 . S
O560 C570 1.258 . S
C561 O558 1.267 . S
C561 O562 1.228 . S
O562 C561 1.228 . S
O563 Zn552 2.024 . S
O563 C554 1.058 . S
C564 O565 1.228 . S
C564 O566 1.267 . S
O565 C564 1.228 . S
O566 Zn553 1.969 . S
O566 C564 1.267 . S
O567 Zn553 1.965 . S
O567 C571 1.260 . S
O568 Zn552 1.969 . S
O568 C571 1.258 . S
O569 Zn553 2.024 . S
O569 C556 1.058 . S
C570 O559 1.260 . S
C570 O560 1.258 . S
C571 O567 1.260 . S
C571 O568 1.258 . S
Zn572 O578 1.969 . S
Zn572 O579 1.965 . S
Zn572 O583 2.024 . S
Zn572 O588 1.969 . S
Zn573 O580 1.969 . S
Zn573 O586 1.969 . S
Zn573 O587 1.965 . S
Zn573 O589 2.024 . S
C574 O575 1.229 . S
C574 O583 1.058 . S
O575 C574 1.229 . S
C576 O577 1.229 . S
C576 O589 1.058 . S
O577 C576 1.229 . S
O578 Zn572 1.969 . S
O578 C581 1.267 . S
O579 Zn572 1.965 . S
O579 C590 1.260 . S
O580 Zn573 1.969 . S
O580 C590 1.258 . S
C581 O578 1.267 . S
C581 O582 1.228 . S
O582 C581 1.228 . S
O583 Zn572 2.024 . S
O583 C574 1.058 . S
C584 O585 1.228 . S
C584 O586 1.267 . S
O585 C584 1.228 . S
O586 Zn573 1.969 . S
O586 C584 1.267 . S
O587 Zn573 1.965 . S
O587 C591 1.260 . S
O588 Zn572 1.969 . S
O588 C591 1.258 . S
O589 Zn573 2.024 . S
O589 C576 1.058 . S
C590 O579 1.260 . S
C590 O580 1.258 . S
C591 O587 1.260 . S
C591 O588 1.258 . S
Zn592 O598 1.969 . S
Zn592 O599 1.965 . S
Zn592 O603 2.024 . S
Zn592 O608 1.969 . S
Zn593 O600 1.969 . S
Zn593 O606 1.969 . S
Zn593 O607 1.965 . S
Zn593 O609 2.024 . S
C594 O595 1.229 . S
C594 O603 1.058 . S
O595 C594 1.229 . S
C596 O597 1.229 . S
C596 O609 1.058 . S
O597 C596 1.229 . S
O598 Zn592 1.969 . S
O598 C601 1.267 . S
O599 Zn592 1.965 . S
O599 C610 1.260 . S
O600 Zn593 1.969 . S
O600 C610 1.258 . S
C601 O598 1.267 . S
C601 O602 1.228 . S
O602 C601 1.228 . S
O603 Zn592 2.024 . S
O603 C594 1.058 . S
C604 O605 1.228 . S
C604 O606 1.267 . S
O605 C604 1.228 . S
O606 Zn593 1.969 . S
O606 C604 1.267 . S
O607 Zn593 1.965 . S
O607 C611 1.260 . S
O608 Zn592 1.969 . S
O608 C611 1.258 . S
O609 Zn593 2.024 . S
O609 C596 1.058 . S
C610 O599 1.260 . S
C610 O600 1.258 . S
C611 O607 1.260 . S
C611 O608 1.258 . S
Zn612 O618 1.969 . S
Zn612 O619 1.965 . S
Zn612 O623 2.024 1_655 S
Zn612 O628 1.969 1_655 S
Zn613 O620 1.969 1_554 S
Zn613 O626 1.969 . S
Zn613 O627 1.965 . S
Zn613 O629 2.024 . S
C614 O615 1.229 1_455 S
C614 O623 1.058 . S
O615 C614 1.229 1_655 S
C616 O617 1.229 1_554 S
C616 O629 1.058 . S
O617 C616 1.229 1_556 S
O618 Zn612 1.969 . S
O618 C621 1.267 . S
O619 Zn612 1.965 . S
O619 C630 1.231 1_554 S
O620 Zn613 1.969 1_556 S
O620 C630 1.255 1_455 S
C621 O618 1.267 . S
C621 O622 1.228 . S
O622 C621 1.228 . S
O623 Zn612 2.024 1_455 S
O623 C614 1.058 . S
C624 O625 1.228 . S
C624 O626 1.267 . S
O625 C624 1.228 . S
O626 Zn613 1.969 . S
O626 C624 1.267 . S
O627 Zn613 1.965 . S
O627 C631 1.260 . S
O628 Zn612 1.969 1_455 S
O628 C631 1.258 . S
O629 Zn613 2.024 . S
O629 C616 1.058 . S
C630 O619 1.231 1_556 S
C630 O620 1.255 1_655 S
C631 O627 1.260 . S
C631 O628 1.258 . S
C632 C633 1.349 . S
C632 C634 1.327 . S
C632 H657 0.950 . S
C633 C632 1.349 . S
C633 C649 1.349 . S
C634 C632 1.327 . S
C634 C653 1.429 . S
C634 H658 0.950 . S
C635 C652 1.574 . S
C635 C654 1.368 . S
C635 H659 0.949 . S
H636 C640 0.949 1_554 S
C637 C638 1.349 1_556 S
C637 C639 1.327 . S
C637 H660 0.950 . S
C638 C637 1.349 1_554 S
C638 C650 1.349 . S
C639 C637 1.327 . S
C639 C655 1.429 . S
C639 H661 0.950 . S
C640 H636 0.949 1_556 S
C640 C648 1.574 . S
C640 C656 1.368 . S
H641 C649 0.950 . S
H642 C647 0.950 . S
H643 C648 0.949 . S
H644 C650 0.950 . S
H645 C651 0.950 . S
H646 C652 0.949 . S
C647 H642 0.950 . S
C647 C649 1.327 . S
C647 C653 1.429 . S
C648 C640 1.574 . S
C648 H643 0.949 . S
C648 C654 1.368 . S
C649 C633 1.349 . S
C649 H641 0.950 . S
C649 C647 1.327 . S
C650 C638 1.349 . S
C650 H644 0.950 . S
C650 C651 1.327 . S
C651 H645 0.950 . S
C651 C650 1.327 . S
C651 C655 1.429 1_554 S
C652 C635 1.574 . S
C652 H646 0.949 . S
C652 C656 1.368 . S
C653 C634 1.429 . S
C653 C647 1.429 . S
C653 C654 1.523 . S
C654 C635 1.368 . S
C654 C648 1.368 . S
C654 C653 1.523 . S
C655 C639 1.429 . S
C655 C651 1.429 1_556 S
C655 C656 1.523 . S
C656 C640 1.368 . S
C656 C652 1.368 . S
C656 C655 1.523 . S
H657 C632 0.950 . S
H658 C634 0.950 . S
H659 C635 0.949 . S
H660 C637 0.950 . S
H661 C639 0.950 . S
C662 C663 1.349 . S
C662 C664 1.327 . S
C662 H687 0.950 . S
C663 C662 1.349 . S
C663 C679 1.349 . S
C664 C662 1.327 . S
C664 C683 1.429 . S
C664 H688 0.950 . S
C665 C682 1.574 . S
C665 C684 1.368 . S
C665 H689 0.949 . S
H666 C670 0.949 . S
C667 C668 1.349 . S
C667 C669 1.327 . S
C667 H690 0.950 . S
C668 C667 1.349 . S
C668 C680 1.349 . S
C669 C667 1.327 . S
C669 C685 1.429 . S
C669 H691 0.950 . S
C670 H666 0.949 . S
C670 C678 1.574 . S
C670 C686 1.368 . S
H671 C679 0.950 . S
H672 C677 0.950 . S
H673 C678 0.949 . S
H674 C680 0.950 . S
H675 C681 0.950 . S
H676 C682 0.949 . S
C677 H672 0.950 . S
C677 C679 1.327 . S
C677 C683 1.429 . S
C678 C670 1.574 . S
C678 H673 0.949 . S
C678 C684 1.368 . S
C679 C663 1.349 . S
C679 H671 0.950 . S
C679 C677 1.327 . S
C680 C668 1.349 . S
C680 H674 0.950 . S
C680 C681 1.327 . S
C681 H675 0.950 . S
C681 C680 1.327 . S
C681 C685 1.429 . S
C682 C665 1.574 . S
C682 H676 0.949 . S
C682 C686 1.368 . S
C683 C664 1.429 . S
C683 C677 1.429 . S
C683 C684 1.523 . S
C684 C665 1.368 . S
C684 C678 1.368 . S
C684 C683 1.523 . S
C685 C669 1.429 . S
C685 C681 1.429 . S
C685 C686 1.523 . S
C686 C670 1.368 . S
C686 C682 1.368 . S
C686 C685 1.523 . S
H687 C662 0.950 . S
H688 C664 0.950 . S
H689 C665 0.949 . S
H690 C667 0.950 . S
H691 C669 0.950 . S
C692 C693 1.349 . S
C692 C694 1.327 . S
C692 H717 0.950 . S
C693 C692 1.349 . S
C693 C709 1.349 . S
C694 C692 1.327 . S
C694 C713 1.429 . S
C694 H718 0.950 . S
C695 C712 1.574 . S
C695 C714 1.368 . S
C695 H719 0.949 . S
H696 C700 0.949 . S
C697 C698 1.349 . S
C697 C699 1.327 . S
C697 H720 0.950 . S
C698 C697 1.349 . S
C698 C710 1.349 . S
C699 C697 1.327 . S
C699 C715 1.429 . S
C699 H721 0.950 . S
C700 H696 0.949 . S
C700 C708 1.574 . S
C700 C716 1.368 . S
H701 C709 0.950 . S
H702 C707 0.950 . S
H703 C708 0.949 . S
H704 C710 0.950 . S
H705 C711 0.950 . S
H706 C712 0.949 . S
C707 H702 0.950 . S
C707 C709 1.327 . S
C707 C713 1.429 . S
C708 C700 1.574 . S
C708 H703 0.949 . S
C708 C714 1.368 . S
C709 C693 1.349 . S
C709 H701 0.950 . S
C709 C707 1.327 . S
C710 C698 1.349 . S
C710 H704 0.950 . S
C710 C711 1.327 . S
C711 H705 0.950 . S
C711 C710 1.327 . S
C711 C715 1.429 . S
C712 C695 1.574 . S
C712 H706 0.949 . S
C712 C716 1.368 . S
C713 C694 1.429 . S
C713 C707 1.429 . S
C713 C714 1.523 . S
C714 C695 1.368 . S
C714 C708 1.368 . S
C714 C713 1.523 . S
C715 C699 1.429 . S
C715 C711 1.429 . S
C715 C716 1.523 . S
C716 C700 1.368 . S
C716 C712 1.368 . S
C716 C715 1.523 . S
H717 C692 0.950 . S
H718 C694 0.950 . S
H719 C695 0.949 . S
H720 C697 0.950 . S
H721 C699 0.950 . S
C722 C723 1.349 . S
C722 C724 1.327 . S
C722 H747 0.950 . S
C723 C722 1.349 . S
C723 C739 1.349 . S
C724 C722 1.327 . S
C724 C743 1.429 . S
C724 H748 0.950 . S
C725 C742 1.574 . S
C725 C744 1.368 . S
C725 H749 0.949 . S
H726 C730 0.949 . S
C727 C728 1.349 . S
C727 C729 1.327 . S
C727 H750 0.950 . S
C728 C727 1.349 . S
C728 C740 1.349 . S
C729 C727 1.327 . S
C729 C745 1.429 . S
C729 H751 0.950 . S
C730 H726 0.949 . S
C730 C738 1.574 . S
C730 C746 1.368 . S
H731 C739 0.950 . S
H732 C737 0.950 . S
H733 C738 0.949 . S
H734 C740 0.950 . S
H735 C741 0.950 . S
H736 C742 0.949 . S
C737 H732 0.950 . S
C737 C739 1.327 . S
C737 C743 1.429 . S
C738 C730 1.574 . S
C738 H733 0.949 . S
C738 C744 1.368 . S
C739 C723 1.349 . S
C739 H731 0.950 . S
C739 C737 1.327 . S
C740 C728 1.349 . S
C740 H734 0.950 . S
C740 C741 1.327 . S
C741 H735 0.950 . S
C741 C740 1.327 . S
C741 C745 1.429 . S
C742 C725 1.574 . S
C742 H736 0.949 . S
C742 C746 1.368 . S
C743 C724 1.429 . S
C743 C737 1.429 . S
C743 C744 1.523 . S
C744 C725 1.368 . S
C744 C738 1.368 . S
C744 C743 1.523 . S
C745 C729 1.429 . S
C745 C741 1.429 . S
C745 C746 1.523 . S
C746 C730 1.368 . S
C746 C742 1.368 . S
C746 C745 1.523 . S
H747 C722 0.950 . S
H748 C724 0.950 . S
H749 C725 0.949 . S
H750 C727 0.950 . S
H751 C729 0.950 . S
C752 C753 1.349 . S
C752 C754 1.327 . S
C752 H777 0.950 . S
C753 C752 1.349 . S
C753 C769 1.349 . S
C754 C752 1.327 . S
C754 C773 1.429 . S
C754 H778 0.950 . S
C755 C772 1.574 . S
C755 C774 1.368 . S
C755 H779 0.949 . S
H756 C760 0.949 . S
C757 C758 1.349 . S
C757 C759 1.327 . S
C757 H780 0.950 . S
C758 C757 1.349 . S
C758 C770 1.349 . S
C759 C757 1.327 . S
C759 C775 1.429 . S
C759 H781 0.950 . S
C760 H756 0.949 . S
C760 C768 1.574 . S
C760 C776 1.368 . S
H761 C769 0.950 . S
H762 C767 0.950 . S
H763 C768 0.949 . S
H764 C770 0.950 . S
H765 C771 0.950 . S
H766 C772 0.949 . S
C767 H762 0.950 . S
C767 C769 1.327 . S
C767 C773 1.429 . S
C768 C760 1.574 . S
C768 H763 0.949 . S
C768 C774 1.368 . S
C769 C753 1.349 . S
C769 H761 0.950 . S
C769 C767 1.327 . S
C770 C758 1.349 . S
C770 H764 0.950 . S
C770 C771 1.327 . S
C771 H765 0.950 . S
C771 C770 1.327 . S
C771 C775 1.429 . S
C772 C755 1.574 . S
C772 H766 0.949 . S
C772 C776 1.368 . S
C773 C754 1.429 . S
C773 C767 1.429 . S
C773 C774 1.523 . S
C774 C755 1.368 . S
C774 C768 1.368 . S
C774 C773 1.523 . S
C775 C759 1.429 . S
C775 C771 1.429 . S
C775 C776 1.523 . S
C776 C760 1.368 . S
C776 C772 1.368 . S
C776 C775 1.523 . S
H777 C752 0.950 . S
H778 C754 0.950 . S
H779 C755 0.949 . S
H780 C757 0.950 . S
H781 C759 0.950 . S
C782 C783 1.349 . S
C782 C784 1.327 . S
C782 H807 0.950 . S
C783 C782 1.349 . S
C783 C799 1.349 . S
C784 C782 1.327 . S
C784 C803 1.429 . S
C784 H808 0.950 . S
C785 C802 1.574 . S
C785 C804 1.368 . S
C785 H809 0.949 . S
H786 C790 0.949 . S
C787 C788 1.349 . S
C787 C789 1.327 . S
C787 H810 0.950 . S
C788 C787 1.349 . S
C788 C800 1.349 . S
C789 C787 1.327 . S
C789 C805 1.429 . S
C789 H811 0.950 . S
C790 H786 0.949 . S
C790 C798 1.574 . S
C790 C806 1.368 . S
H791 C799 0.950 . S
H792 C797 0.950 . S
H793 C798 0.949 . S
H794 C800 0.950 . S
H795 C801 0.950 . S
H796 C802 0.949 . S
C797 H792 0.950 . S
C797 C799 1.327 . S
C797 C803 1.429 . S
C798 C790 1.574 . S
C798 H793 0.949 . S
C798 C804 1.368 . S
C799 C783 1.349 . S
C799 H791 0.950 . S
C799 C797 1.327 . S
C800 C788 1.349 . S
C800 H794 0.950 . S
C800 C801 1.327 . S
C801 H795 0.950 . S
C801 C800 1.327 . S
C801 C805 1.429 . S
C802 C785 1.574 . S
C802 H796 0.949 . S
C802 C806 1.368 . S
C803 C784 1.429 . S
C803 C797 1.429 . S
C803 C804 1.523 . S
C804 C785 1.368 . S
C804 C798 1.368 . S
C804 C803 1.523 . S
C805 C789 1.429 . S
C805 C801 1.429 . S
C805 C806 1.523 . S
C806 C790 1.368 . S
C806 C802 1.368 . S
C806 C805 1.523 . S
H807 C782 0.950 . S
H808 C784 0.950 . S
H809 C785 0.949 . S
H810 C787 0.950 . S
H811 C789 0.950 . S
C812 C813 1.349 . S
C812 C814 1.327 . S
C812 H837 0.950 . S
C813 C812 1.349 . S
C813 C829 1.349 . S
C814 C812 1.327 . S
C814 C833 1.429 . S
C814 H838 0.950 . S
C815 C832 1.574 . S
C815 C834 1.368 . S
C815 H839 0.949 . S
H816 C820 0.949 . S
C817 C818 1.349 . S
C817 C819 1.327 . S
C817 H840 0.950 . S
C818 C817 1.349 . S
C818 C830 1.349 . S
C819 C817 1.327 . S
C819 C835 1.429 . S
C819 H841 0.950 . S
C820 H816 0.949 . S
C820 C828 1.574 . S
C820 C836 1.368 . S
H821 C829 0.950 . S
H822 C827 0.950 . S
H823 C828 0.949 . S
H824 C830 0.950 . S
H825 C831 0.950 . S
H826 C832 0.949 . S
C827 H822 0.950 . S
C827 C829 1.327 . S
C827 C833 1.429 . S
C828 C820 1.574 . S
C828 H823 0.949 . S
C828 C834 1.368 . S
C829 C813 1.349 . S
C829 H821 0.950 . S
C829 C827 1.327 . S
C830 C818 1.349 . S
C830 H824 0.950 . S
C830 C831 1.327 . S
C831 H825 0.950 . S
C831 C830 1.327 . S
C831 C835 1.429 . S
C832 C815 1.574 . S
C832 H826 0.949 . S
C832 C836 1.368 . S
C833 C814 1.429 . S
C833 C827 1.429 . S
C833 C834 1.523 . S
C834 C815 1.368 . S
C834 C828 1.368 . S
C834 C833 1.523 . S
C835 C819 1.429 . S
C835 C831 1.429 . S
C835 C836 1.523 . S
C836 C820 1.368 . S
C836 C832 1.368 . S
C836 C835 1.523 . S
H837 C812 0.950 . S
H838 C814 0.950 . S
H839 C815 0.949 . S
H840 C817 0.950 . S
H841 C819 0.950 . S
C842 C843 1.349 . S
C842 C844 1.327 . S
C842 H867 0.950 . S
C843 C842 1.349 . S
C843 C859 1.349 . S
C844 C842 1.327 . S
C844 C863 1.429 . S
C844 H868 0.950 . S
C845 C862 1.574 . S
C845 C864 1.368 . S
C845 H869 0.949 . S
H846 C850 0.949 . S
C847 C848 1.349 . S
C847 C849 1.327 . S
C847 H870 0.950 . S
C848 C847 1.349 . S
C848 C860 1.349 . S
C849 C847 1.327 . S
C849 C865 1.429 . S
C849 H871 0.950 . S
C850 H846 0.949 . S
C850 C858 1.574 . S
C850 C866 1.368 . S
H851 C859 0.950 . S
H852 C857 0.950 . S
H853 C858 0.949 . S
H854 C860 0.950 . S
H855 C861 0.950 . S
H856 C862 0.949 . S
C857 H852 0.950 . S
C857 C859 1.327 . S
C857 C863 1.429 . S
C858 C850 1.574 . S
C858 H853 0.949 . S
C858 C864 1.368 . S
C859 C843 1.349 . S
C859 H851 0.950 . S
C859 C857 1.327 . S
C860 C848 1.349 . S
C860 H854 0.950 . S
C860 C861 1.327 . S
C861 H855 0.950 . S
C861 C860 1.327 . S
C861 C865 1.429 . S
C862 C845 1.574 . S
C862 H856 0.949 . S
C862 C866 1.368 . S
C863 C844 1.429 . S
C863 C857 1.429 . S
C863 C864 1.523 . S
C864 C845 1.368 . S
C864 C858 1.368 . S
C864 C863 1.523 . S
C865 C849 1.429 . S
C865 C861 1.429 . S
C865 C866 1.523 . S
C866 C850 1.368 . S
C866 C862 1.368 . S
C866 C865 1.523 . S
H867 C842 0.950 . S
H868 C844 0.950 . S
H869 C845 0.949 . S
H870 C847 0.950 . S
H871 C849 0.950 . S
C872 C873 1.349 . S
C872 C874 1.327 . S
C872 H897 0.950 . S
C873 C872 1.349 . S
C873 C889 1.349 . S
C874 C872 1.327 . S
C874 C893 1.429 . S
C874 H898 0.950 . S
C875 C892 1.574 . S
C875 C894 1.368 . S
C875 H899 0.949 . S
H876 C880 0.949 . S
C877 C878 1.349 . S
C877 C879 1.327 . S
C877 H900 0.950 . S
C878 C877 1.349 . S
C878 C890 1.349 . S
C879 C877 1.327 . S
C879 C895 1.429 1_455 S
C879 H901 0.950 . S
C880 H876 0.949 . S
C880 C888 1.574 . S
C880 C896 1.368 . S
H881 C889 0.950 . S
H882 C887 0.950 . S
H883 C888 0.949 . S
H884 C890 0.950 . S
H885 C891 0.950 . S
H886 C892 0.949 . S
C887 H882 0.950 . S
C887 C889 1.327 . S
C887 C893 1.429 . S
C888 C880 1.574 . S
C888 H883 0.949 . S
C888 C894 1.368 . S
C889 C873 1.349 . S
C889 H881 0.950 . S
C889 C887 1.327 . S
C890 C878 1.349 . S
C890 H884 0.950 . S
C890 C891 1.327 1_455 S
C891 H885 0.950 . S
C891 C890 1.327 1_655 S
C891 C895 1.429 . S
C892 C875 1.574 . S
C892 H886 0.949 . S
C892 C896 1.368 . S
C893 C874 1.429 . S
C893 C887 1.429 . S
C893 C894 1.523 . S
C894 C875 1.368 . S
C894 C888 1.368 . S
C894 C893 1.523 . S
C895 C879 1.429 1_655 S
C895 C891 1.429 . S
C895 C896 1.523 . S
C896 C880 1.368 . S
C896 C892 1.368 . S
C896 C895 1.523 . S
H897 C872 0.950 . S
H898 C874 0.950 . S
H899 C875 0.949 . S
H900 C877 0.950 . S
H901 C879 0.950 . S
C902 C903 1.349 . S
C902 C904 1.327 . S
C902 H927 0.950 . S
C903 C902 1.349 . S
C903 C919 1.349 . S
C904 C902 1.327 . S
C904 C923 1.429 . S
C904 H928 0.950 . S
C905 C922 1.574 . S
C905 C924 1.368 . S
C905 H929 0.949 . S
H906 C910 0.949 . S
C907 C908 1.349 . S
C907 C909 1.327 . S
C907 H930 0.950 . S
C908 C907 1.349 . S
C908 C920 1.349 . S
C909 C907 1.327 . S
C909 C925 1.429 . S
C909 H931 0.950 . S
C910 H906 0.949 . S
C910 C918 1.574 . S
C910 C926 1.368 . S
H911 C919 0.950 . S
H912 C917 0.950 . S
H913 C918 0.949 . S
H914 C920 0.950 . S
H915 C921 0.950 . S
H916 C922 0.949 . S
C917 H912 0.950 . S
C917 C919 1.327 . S
C917 C923 1.429 . S
C918 C910 1.574 . S
C918 H913 0.949 . S
C918 C924 1.368 . S
C919 C903 1.349 . S
C919 H911 0.950 . S
C919 C917 1.327 . S
C920 C908 1.349 . S
C920 H914 0.950 . S
C920 C921 1.327 . S
C921 H915 0.950 . S
C921 C920 1.327 . S
C921 C925 1.429 . S
C922 C905 1.574 . S
C922 H916 0.949 . S
C922 C926 1.368 . S
C923 C904 1.429 . S
C923 C917 1.429 . S
C923 C924 1.523 . S
C924 C905 1.368 . S
C924 C918 1.368 . S
C924 C923 1.523 . S
C925 C909 1.429 . S
C925 C921 1.429 . S
C925 C926 1.523 . S
C926 C910 1.368 . S
C926 C922 1.368 . S
C926 C925 1.523 . S
H927 C902 0.950 . S
H928 C904 0.950 . S
H929 C905 0.949 . S
H930 C907 0.950 . S
H931 C909 0.950 . S
C932 C933 1.349 . S
C932 C934 1.327 . S
C932 H957 0.950 . S
C933 C932 1.349 . S
C933 C949 1.349 1_565 S
C934 C932 1.327 . S
C934 C953 1.429 . S
C934 H958 0.950 . S
C935 C952 1.574 . S
C935 C954 1.368 1_545 S
C935 H959 0.949 . S
H936 C940 0.949 . S
C937 C938 1.349 1_545 S
C937 C939 1.327 . S
C937 H960 0.950 . S
C938 C937 1.349 1_565 S
C938 C950 1.349 . S
C939 C937 1.327 . S
C939 C955 1.429 1_545 S
C939 H961 0.950 . S
C940 H936 0.949 . S
C940 C948 1.574 . S
C940 C956 1.368 . S
H941 C949 0.950 . S
H942 C947 0.950 . S
H943 C948 0.949 . S
H944 C950 0.950 . S
H945 C951 0.950 . S
H946 C952 0.949 . S
C947 H942 0.950 . S
C947 C949 1.327 . S
C947 C953 1.429 1_545 S
C948 C940 1.574 . S
C948 H943 0.949 . S
C948 C954 1.368 . S
C949 C933 1.349 1_545 S
C949 H941 0.950 . S
C949 C947 1.327 . S
C950 C938 1.349 . S
C950 H944 0.950 . S
C950 C951 1.327 . S
C951 H945 0.950 . S
C951 C950 1.327 . S
C951 C955 1.429 . S
C952 C935 1.574 . S
C952 H946 0.949 . S
C952 C956 1.368 1_545 S
C953 C934 1.429 . S
C953 C947 1.429 1_565 S
C953 C954 1.523 . S
C954 C935 1.368 1_565 S
C954 C948 1.368 . S
C954 C953 1.523 . S
C955 C939 1.429 1_565 S
C955 C951 1.429 . S
C955 C956 1.523 . S
C956 C940 1.368 . S
C956 C952 1.368 1_565 S
C956 C955 1.523 . S
H957 C932 0.950 . S
H958 C934 0.950 . S
H959 C935 0.949 . S
H960 C937 0.950 . S
H961 C939 0.950 . S
C962 C963 1.349 . S
C962 C964 1.327 . S
C962 H987 0.950 . S
C963 C962 1.349 . S
C963 C979 1.349 . S
C964 C962 1.327 . S
C964 C983 1.429 . S
C964 H988 0.950 . S
C965 C982 1.574 . S
C965 C984 1.368 . S
C965 H989 0.949 . S
H966 C970 0.949 . S
C967 C968 1.349 . S
C967 C969 1.327 . S
C967 H990 0.950 . S
C968 C967 1.349 . S
C968 C980 1.349 . S
C969 C967 1.327 . S
C969 C985 1.429 . S
C969 H991 0.950 . S
C970 H966 0.949 . S
C970 C978 1.574 . S
C970 C986 1.368 . S
H971 C979 0.950 . S
H972 C977 0.950 . S
H973 C978 0.949 . S
H974 C980 0.950 . S
H975 C981 0.950 . S
H976 C982 0.949 . S
C977 H972 0.950 . S
C977 C979 1.327 . S
C977 C983 1.429 . S
C978 C970 1.574 . S
C978 H973 0.949 . S
C978 C984 1.368 . S
C979 C963 1.349 . S
C979 H971 0.950 . S
C979 C977 1.327 . S
C980 C968 1.349 . S
C980 H974 0.950 . S
C980 C981 1.327 . S
C981 H975 0.950 . S
C981 C980 1.327 . S
C981 C985 1.429 . S
C982 C965 1.574 . S
C982 H976 0.949 . S
C982 C986 1.368 . S
C983 C964 1.429 . S
C983 C977 1.429 . S
C983 C984 1.523 . S
C984 C965 1.368 . S
C984 C978 1.368 . S
C984 C983 1.523 . S
C985 C969 1.429 . S
C985 C981 1.429 . S
C985 C986 1.523 . S
C986 C970 1.368 . S
C986 C982 1.368 . S
C986 C985 1.523 . S
H987 C962 0.950 . S
H988 C964 0.950 . S
H989 C965 0.949 . S
H990 C967 0.950 . S
H991 C969 0.950 . S
C992 C993 1.349 . S
C992 C994 1.327 . S
C992 H1017 0.950 1_545 S
C993 C992 1.349 . S
C993 C1009 1.349 . S
C994 C992 1.327 . S
C994 C1013 1.429 . S
C994 H1018 0.950 1_545 S
C995 C1012 1.574 . S
C995 C1014 1.368 . S
C995 H1019 0.949 . S
H996 C1000 0.949 . S
C997 C998 1.349 1_655 S
C997 C999 1.327 . S
C997 H1020 0.950 . S
C998 C997 1.349 1_455 S
C998 C1010 1.349 1_545 S
C999 C997 1.327 . S
C999 C1015 1.429 . S
C999 H1021 0.950 . S
C1000 H996 0.949 . S
C1000 C1008 1.574 . S
C1000 C1016 1.368 1_565 S
H1001 C1009 0.950 . S
H1002 C1007 0.950 . S
H1003 C1008 0.949 . S
H1004 C1010 0.950 . S
H1005 C1011 0.950 . S
H1006 C1012 0.949 . S
C1007 H1002 0.950 . S
C1007 C1009 1.327 . S
C1007 C1013 1.429 . S
C1008 C1000 1.574 . S
C1008 H1003 0.949 . S
C1008 C1014 1.368 1_565 S
C1009 C993 1.349 . S
C1009 H1001 0.950 . S
C1009 C1007 1.327 . S
C1010 C998 1.349 1_565 S
C1010 H1004 0.950 . S
C1010 C1011 1.327 1_455 S
C1011 H1005 0.950 . S
C1011 C1010 1.327 1_655 S
C1011 C1015 1.429 1_565 S
C1012 C995 1.574 . S
C1012 H1006 0.949 . S
C1012 C1016 1.368 . S
C1013 C994 1.429 . S
C1013 C1007 1.429 . S
C1013 C1014 1.523 . S
C1014 C995 1.368 . S
C1014 C1008 1.368 1_545 S
C1014 C1013 1.523 . S
C1015 C999 1.429 . S
C1015 C1011 1.429 1_545 S
C1015 C1016 1.523 . S
C1016 C1000 1.368 1_545 S
C1016 C1012 1.368 . S
C1016 C1015 1.523 . S
H1017 C992 0.950 1_565 S
H1018 C994 0.950 1_565 S
H1019 C995 0.949 . S
H1020 C997 0.950 . S
H1021 C999 0.950 . S
C1022 C1023 1.349 . S
C1022 C1024 1.327 . S
C1022 H1047 0.950 . S
C1023 C1022 1.349 . S
C1023 C1039 1.349 . S
C1024 C1022 1.327 . S
C1024 C1043 1.429 . S
C1024 H1048 0.950 . S
C1025 C1042 1.574 . S
C1025 C1044 1.368 . S
C1025 H1049 0.949 . S
H1026 C1030 0.949 . S
C1027 C1028 1.349 . S
C1027 C1029 1.327 . S
C1027 H1050 0.950 . S
C1028 C1027 1.349 . S
C1028 C1040 1.349 . S
C1029 C1027 1.327 . S
C1029 C1045 1.429 . S
C1029 H1051 0.950 . S
C1030 H1026 0.949 . S
C1030 C1038 1.574 . S
C1030 C1046 1.368 . S
H1031 C1039 0.950 . S
H1032 C1037 0.950 . S
H1033 C1038 0.949 . S
H1034 C1040 0.950 . S
H1035 C1041 0.950 . S
H1036 C1042 0.949 . S
C1037 H1032 0.950 . S
C1037 C1039 1.327 . S
C1037 C1043 1.429 . S
C1038 C1030 1.574 . S
C1038 H1033 0.949 . S
C1038 C1044 1.368 . S
C1039 C1023 1.349 . S
C1039 H1031 0.950 . S
C1039 C1037 1.327 . S
C1040 C1028 1.349 . S
C1040 H1034 0.950 . S
C1040 C1041 1.327 . S
C1041 H1035 0.950 . S
C1041 C1040 1.327 . S
C1041 C1045 1.429 . S
C1042 C1025 1.574 . S
C1042 H1036 0.949 . S
C1042 C1046 1.368 . S
C1043 C1024 1.429 . S
C1043 C1037 1.429 . S
C1043 C1044 1.523 . S
C1044 C1025 1.368 . S
C1044 C1038 1.368 . S
C1044 C1043 1.523 . S
C1045 C1029 1.429 . S
C1045 C1041 1.429 . S
C1045 C1046 1.523 . S
C1046 C1030 1.368 . S
C1046 C1042 1.368 . S
C1046 C1045 1.523 . S
H1047 C1022 0.950 . S
H1048 C1024 0.950 . S
H1049 C1025 0.949 . S
H1050 C1027 0.950 . S
H1051 C1029 0.950 . S
C1052 C1053 1.349 . S
C1052 C1054 1.327 . S
C1052 H1077 0.950 . S
C1053 C1052 1.349 . S
C1053 C1069 1.351 1_545 S
C1054 C1052 1.327 . S
C1054 C1073 1.429 . S
C1054 H1078 0.950 . S
C1055 C1072 1.574 . S
C1055 C1074 1.368 . S
C1055 H1079 0.918 1_545 S
H1056 C1060 0.949 . S
C1057 C1058 1.349 . S
C1057 C1059 1.327 . S
C1057 H1080 0.950 . S
C1058 C1057 1.349 . S
C1058 C1070 1.349 . S
C1059 C1057 1.327 . S
C1059 C1075 1.429 . S
C1059 H1081 0.950 . S
C1060 H1056 0.949 . S
C1060 C1068 1.574 . S
C1060 C1076 1.368 . S
H1061 C1069 0.947 . S
H1062 C1067 0.950 1_565 S
H1063 C1068 0.949 . S
H1064 C1070 0.950 . S
H1065 C1071 0.950 . S
H1066 C1072 0.949 . S
C1067 H1062 0.950 1_545 S
C1067 C1069 1.328 1_545 S
C1067 C1073 1.429 . S
C1068 C1060 1.574 . S
C1068 H1063 0.949 . S
C1068 C1074 1.368 . S
C1069 C1053 1.351 1_565 S
C1069 H1061 0.947 . S
C1069 C1067 1.328 1_565 S
C1070 C1058 1.349 . S
C1070 H1064 0.950 . S
C1070 C1071 1.327 . S
C1071 H1065 0.950 . S
C1071 C1070 1.327 . S
C1071 C1075 1.429 . S
C1072 C1055 1.574 . S
C1072 H1066 0.949 . S
C1072 C1076 1.368 . S
C1073 C1054 1.429 . S
C1073 C1067 1.429 . S
C1073 C1074 1.523 . S
C1074 C1055 1.368 . S
C1074 C1068 1.368 . S
C1074 C1073 1.523 . S
C1075 C1059 1.429 . S
C1075 C1071 1.429 . S
C1075 C1076 1.523 . S
C1076 C1060 1.368 . S
C1076 C1072 1.368 . S
C1076 C1075 1.523 . S
H1077 C1052 0.950 . S
H1078 C1054 0.950 . S
H1079 C1055 0.918 1_565 S
H1080 C1057 0.950 . S
H1081 C1059 0.950 . S
C1082 C1083 1.349 . S
C1082 C1084 1.327 . S
C1082 H1107 0.950 . S
C1083 C1082 1.349 . S
C1083 C1099 1.349 . S
C1084 C1082 1.327 . S
C1084 C1103 1.429 . S
C1084 H1108 0.950 . S
C1085 C1102 1.574 . S
C1085 C1104 1.368 . S
C1085 H1109 0.949 . S
H1086 C1090 0.949 . S
C1087 C1088 1.349 . S
C1087 C1089 1.327 . S
C1087 H1110 0.950 . S
C1088 C1087 1.349 . S
C1088 C1100 1.349 . S
C1089 C1087 1.327 . S
C1089 C1105 1.429 . S
C1089 H1111 0.950 . S
C1090 H1086 0.949 . S
C1090 C1098 1.574 . S
C1090 C1106 1.368 . S
H1091 C1099 0.950 . S
H1092 C1097 0.950 . S
H1093 C1098 0.949 . S
H1094 C1100 0.950 . S
H1095 C1101 0.950 . S
H1096 C1102 0.949 . S
C1097 H1092 0.950 . S
C1097 C1099 1.327 . S
C1097 C1103 1.429 . S
C1098 C1090 1.574 . S
C1098 H1093 0.949 . S
C1098 C1104 1.368 . S
C1099 C1083 1.349 . S
C1099 H1091 0.950 . S
C1099 C1097 1.327 . S
C1100 C1088 1.349 . S
C1100 H1094 0.950 . S
C1100 C1101 1.327 . S
C1101 H1095 0.950 . S
C1101 C1100 1.327 . S
C1101 C1105 1.429 . S
C1102 C1085 1.574 . S
C1102 H1096 0.949 . S
C1102 C1106 1.368 . S
C1103 C1084 1.429 . S
C1103 C1097 1.429 . S
C1103 C1104 1.523 . S
C1104 C1085 1.368 . S
C1104 C1098 1.368 . S
C1104 C1103 1.523 . S
C1105 C1089 1.429 . S
C1105 C1101 1.429 . S
C1105 C1106 1.523 . S
C1106 C1090 1.368 . S
C1106 C1102 1.368 . S
C1106 C1105 1.523 . S
H1107 C1082 0.950 . S
H1108 C1084 0.950 . S
H1109 C1085 0.949 . S
H1110 C1087 0.950 . S
H1111 C1089 0.950 . S
C1112 C1113 1.349 . S
C1112 C1114 1.327 . S
C1112 H1137 0.950 1_554 S
C1113 C1112 1.349 . S
C1113 C1129 1.349 . S
C1114 C1112 1.327 . S
C1114 C1133 1.429 . S
C1114 H1138 0.950 . S
C1115 C1132 1.574 . S
C1115 C1134 1.368 . S
C1115 H1139 0.949 . S
H1116 C1120 0.949 . S
C1117 C1118 1.349 . S
C1117 C1119 1.327 1_545 S
C1117 H1140 0.950 . S
C1118 C1117 1.349 . S
C1118 C1130 1.349 1_545 S
C1119 C1117 1.327 1_565 S
C1119 C1135 1.429 . S
C1119 H1141 0.950 . S
C1120 H1116 0.949 . S
C1120 C1128 1.574 . S
C1120 C1136 1.368 . S
H1121 C1129 0.950 . S
H1122 C1127 0.950 . S
H1123 C1128 0.949 . S
H1124 C1130 0.950 . S
H1125 C1131 0.950 . S
H1126 C1132 0.949 . S
C1127 H1122 0.950 . S
C1127 C1129 1.327 . S
C1127 C1133 1.429 . S
C1128 C1120 1.574 . S
C1128 H1123 0.949 . S
C1128 C1134 1.368 . S
C1129 C1113 1.349 . S
C1129 H1121 0.950 . S
C1129 C1127 1.327 . S
C1130 C1118 1.349 1_565 S
C1130 H1124 0.950 . S
C1130 C1131 1.327 . S
C1131 H1125 0.950 . S
C1131 C1130 1.327 . S
C1131 C1135 1.429 . S
C1132 C1115 1.574 . S
C1132 H1126 0.949 . S
C1132 C1136 1.368 . S
C1133 C1114 1.429 . S
C1133 C1127 1.429 . S
C1133 C1134 1.523 . S
C1134 C1115 1.368 . S
C1134 C1128 1.368 . S
C1134 C1133 1.523 . S
C1135 C1119 1.429 . S
C1135 C1131 1.429 . S
C1135 C1136 1.523 . S
C1136 C1120 1.368 . S
C1136 C1132 1.368 . S
C1136 C1135 1.523 . S
H1137 C1112 0.950 1_556 S
H1138 C1114 0.950 . S
H1139 C1115 0.949 . S
H1140 C1117 0.950 . S
H1141 C1119 0.950 . S
C1142 C1143 1.349 . S
C1142 C1144 1.327 . S
C1142 H1167 0.950 . S
C1143 C1142 1.349 . S
C1143 C1159 1.326 1_556 S
C1144 C1142 1.327 . S
C1144 C1163 1.429 . S
C1144 H1168 0.950 . S
C1145 C1162 1.574 . S
C1145 C1164 1.368 1_554 S
C1145 H1169 0.949 . S
H1146 C1150 0.949 . S
C1147 C1148 1.349 . S
C1147 C1149 1.327 . S
C1147 H1170 0.950 . S
C1148 C1147 1.349 . S
C1148 C1160 1.349 1_554 S
C1149 C1147 1.327 . S
C1149 C1165 1.438 . S
C1149 H1171 0.950 . S
C1150 H1146 0.949 . S
C1150 C1158 1.574 . S
C1150 C1166 1.385 . S
H1151 C1159 0.965 . S
H1152 C1157 0.950 . S
H1153 C1158 0.949 . S
H1154 C1160 0.950 . S
H1155 C1161 0.950 . S
H1156 C1162 0.949 . S
C1157 H1152 0.950 . S
C1157 C1159 1.339 . S
C1157 C1163 1.429 1_554 S
C1158 C1150 1.574 . S
C1158 H1153 0.949 . S
C1158 C1164 1.368 . S
C1159 C1143 1.326 1_554 S
C1159 H1151 0.965 . S
C1159 C1157 1.339 . S
C1160 C1148 1.349 1_556 S
C1160 H1154 0.950 . S
C1160 C1161 1.327 . S
C1161 H1155 0.950 . S
C1161 C1160 1.327 . S
C1161 C1165 1.424 1_556 S
C1162 C1145 1.574 . S
C1162 H1156 0.949 . S
C1162 C1166 1.358 1_554 S
C1163 C1144 1.429 . S
C1163 C1157 1.429 1_556 S
C1163 C1164 1.523 . S
C1164 C1145 1.368 1_556 S
C1164 C1158 1.368 . S
C1164 C1163 1.523 . S
C1165 C1149 1.438 . S
C1165 C1161 1.424 1_554 S
C1165 C1166 1.514 1_554 S
C1166 C1150 1.385 . S
C1166 C1162 1.358 1_556 S
C1166 C1165 1.514 1_556 S
H1167 C1142 0.950 . S
H1168 C1144 0.950 . S
H1169 C1145 0.949 . S
H1170 C1147 0.950 . S
H1171 C1149 0.950 . S
C1172 C1173 1.349 . S
C1172 C1174 1.327 . S
C1172 H1197 0.950 . S
C1173 C1172 1.349 . S
C1173 C1189 1.349 . S
C1174 C1172 1.327 . S
C1174 C1193 1.429 . S
C1174 H1198 0.950 . S
C1175 C1192 1.574 . S
C1175 C1194 1.368 . S
C1175 H1199 0.949 . S
H1176 C1180 0.949 . S
C1177 C1178 1.349 . S
C1177 C1179 1.327 . S
C1177 H1200 0.950 . S
C1178 C1177 1.349 . S
C1178 C1190 1.349 . S
C1179 C1177 1.327 . S
C1179 C1195 1.429 . S
C1179 H1201 0.950 . S
C1180 H1176 0.949 . S
C1180 C1188 1.574 . S
C1180 C1196 1.368 . S
H1181 C1189 0.950 . S
H1182 C1187 0.950 . S
H1183 C1188 0.949 . S
H1184 C1190 0.950 . S
H1185 C1191 0.950 . S
H1186 C1192 0.949 . S
C1187 H1182 0.950 . S
C1187 C1189 1.327 . S
C1187 C1193 1.429 . S
C1188 C1180 1.574 . S
C1188 H1183 0.949 . S
C1188 C1194 1.368 . S
C1189 C1173 1.349 . S
C1189 H1181 0.950 . S
C1189 C1187 1.327 . S
C1190 C1178 1.349 . S
C1190 H1184 0.950 . S
C1190 C1191 1.327 . S
C1191 H1185 0.950 . S
C1191 C1190 1.327 . S
C1191 C1195 1.429 . S
C1192 C1175 1.574 . S
C1192 H1186 0.949 . S
C1192 C1196 1.368 . S
C1193 C1174 1.429 . S
C1193 C1187 1.429 . S
C1193 C1194 1.523 . S
C1194 C1175 1.368 . S
C1194 C1188 1.368 . S
C1194 C1193 1.523 . S
C1195 C1179 1.429 . S
C1195 C1191 1.429 . S
C1195 C1196 1.523 . S
C1196 C1180 1.368 . S
C1196 C1192 1.368 . S
C1196 C1195 1.523 . S
H1197 C1172 0.950 . S
H1198 C1174 0.950 . S
H1199 C1175 0.949 . S
H1200 C1177 0.950 . S
H1201 C1179 0.950 . S
C1202 C1203 1.349 . S
C1202 C1204 1.327 . S
C1202 H1227 0.950 . S
C1203 C1202 1.349 . S
C1203 C1219 1.349 . S
C1204 C1202 1.327 . S
C1204 C1223 1.429 . S
C1204 H1228 0.950 . S
C1205 C1222 1.574 . S
C1205 C1224 1.368 . S
C1205 H1229 0.949 . S
H1206 C1210 0.949 . S
C1207 C1208 1.349 . S
C1207 C1209 1.327 . S
C1207 H1230 0.950 . S
C1208 C1207 1.349 . S
C1208 C1220 1.349 . S
C1209 C1207 1.327 . S
C1209 C1225 1.429 . S
C1209 H1231 0.950 . S
C1210 H1206 0.949 . S
C1210 C1218 1.574 . S
C1210 C1226 1.368 . S
H1211 C1219 0.950 . S
H1212 C1217 0.950 . S
H1213 C1218 0.949 . S
H1214 C1220 0.950 . S
H1215 C1221 0.950 . S
H1216 C1222 0.949 . S
C1217 H1212 0.950 . S
C1217 C1219 1.327 . S
C1217 C1223 1.429 . S
C1218 C1210 1.574 . S
C1218 H1213 0.949 . S
C1218 C1224 1.368 . S
C1219 C1203 1.349 . S
C1219 H1211 0.950 . S
C1219 C1217 1.327 . S
C1220 C1208 1.349 . S
C1220 H1214 0.950 . S
C1220 C1221 1.327 . S
C1221 H1215 0.950 . S
C1221 C1220 1.327 . S
C1221 C1225 1.429 . S
C1222 C1205 1.574 . S
C1222 H1216 0.949 . S
C1222 C1226 1.368 . S
C1223 C1204 1.429 . S
C1223 C1217 1.429 . S
C1223 C1224 1.523 . S
C1224 C1205 1.368 . S
C1224 C1218 1.368 . S
C1224 C1223 1.523 . S
C1225 C1209 1.429 . S
C1225 C1221 1.429 . S
C1225 C1226 1.523 . S
C1226 C1210 1.368 . S
C1226 C1222 1.368 . S
C1226 C1225 1.523 . S
H1227 C1202 0.950 . S
H1228 C1204 0.950 . S
H1229 C1205 0.949 . S
H1230 C1207 0.950 . S
H1231 C1209 0.950 . S
C1232 C1233 1.349 . S
C1232 C1234 1.327 . S
C1232 H1257 0.950 . S
C1233 C1232 1.349 . S
C1233 C1249 1.349 . S
C1234 C1232 1.327 . S
C1234 C1253 1.429 . S
C1234 H1258 0.950 . S
C1235 C1252 1.574 . S
C1235 C1254 1.368 . S
C1235 H1259 0.949 . S
H1236 C1240 0.949 . S
C1237 C1238 1.349 . S
C1237 C1239 1.327 . S
C1237 H1260 0.950 . S
C1238 C1237 1.349 . S
C1238 C1250 1.349 . S
C1239 C1237 1.327 . S
C1239 C1255 1.429 . S
C1239 H1261 0.950 . S
C1240 H1236 0.949 . S
C1240 C1248 1.574 . S
C1240 C1256 1.368 . S
H1241 C1249 0.950 . S
H1242 C1247 0.950 . S
H1243 C1248 0.949 . S
H1244 C1250 0.950 . S
H1245 C1251 0.950 . S
H1246 C1252 0.949 . S
C1247 H1242 0.950 . S
C1247 C1249 1.327 . S
C1247 C1253 1.429 . S
C1248 C1240 1.574 . S
C1248 H1243 0.949 . S
C1248 C1254 1.368 . S
C1249 C1233 1.349 . S
C1249 H1241 0.950 . S
C1249 C1247 1.327 . S
C1250 C1238 1.349 . S
C1250 H1244 0.950 . S
C1250 C1251 1.327 . S
C1251 H1245 0.950 . S
C1251 C1250 1.327 . S
C1251 C1255 1.429 . S
C1252 C1235 1.574 . S
C1252 H1246 0.949 . S
C1252 C1256 1.368 . S
C1253 C1234 1.429 . S
C1253 C1247 1.429 . S
C1253 C1254 1.523 . S
C1254 C1235 1.368 . S
C1254 C1248 1.368 . S
C1254 C1253 1.523 . S
C1255 C1239 1.429 . S
C1255 C1251 1.429 . S
C1255 C1256 1.523 . S
C1256 C1240 1.368 . S
C1256 C1252 1.368 . S
C1256 C1255 1.523 . S
H1257 C1232 0.950 . S
H1258 C1234 0.950 . S
H1259 C1235 0.949 . S
H1260 C1237 0.950 . S
H1261 C1239 0.950 . S
C1262 C1263 1.349 . S
C1262 C1264 1.327 . S
C1262 H1287 0.950 . S
C1263 C1262 1.349 . S
C1263 C1279 1.349 . S
C1264 C1262 1.327 . S
C1264 C1283 1.429 . S
C1264 H1288 0.950 . S
C1265 C1282 1.574 . S
C1265 C1284 1.368 . S
C1265 H1289 0.949 . S
H1266 C1270 0.949 . S
C1267 C1268 1.349 . S
C1267 C1269 1.327 . S
C1267 H1290 0.950 . S
C1268 C1267 1.349 . S
C1268 C1280 1.349 . S
C1269 C1267 1.327 . S
C1269 C1285 1.429 . S
C1269 H1291 0.950 . S
C1270 H1266 0.949 . S
C1270 C1278 1.574 . S
C1270 C1286 1.368 . S
H1271 C1279 0.950 . S
H1272 C1277 0.950 . S
H1273 C1278 0.949 . S
H1274 C1280 0.950 . S
H1275 C1281 0.950 . S
H1276 C1282 0.949 . S
C1277 H1272 0.950 . S
C1277 C1279 1.327 . S
C1277 C1283 1.429 . S
C1278 C1270 1.574 . S
C1278 H1273 0.949 . S
C1278 C1284 1.368 . S
C1279 C1263 1.349 . S
C1279 H1271 0.950 . S
C1279 C1277 1.327 . S
C1280 C1268 1.349 . S
C1280 H1274 0.950 . S
C1280 C1281 1.327 . S
C1281 H1275 0.950 . S
C1281 C1280 1.327 . S
C1281 C1285 1.429 . S
C1282 C1265 1.574 . S
C1282 H1276 0.949 . S
C1282 C1286 1.368 . S
C1283 C1264 1.429 . S
C1283 C1277 1.429 . S
C1283 C1284 1.523 . S
C1284 C1265 1.368 . S
C1284 C1278 1.368 . S
C1284 C1283 1.523 . S
C1285 C1269 1.429 . S
C1285 C1281 1.429 . S
C1285 C1286 1.523 . S
C1286 C1270 1.368 . S
C1286 C1282 1.368 . S
C1286 C1285 1.523 . S
H1287 C1262 0.950 . S
H1288 C1264 0.950 . S
H1289 C1265 0.949 . S
H1290 C1267 0.950 . S
H1291 C1269 0.950 . S
C1292 C1293 1.349 . S
C1292 C1294 1.327 . S
C1292 H1317 0.950 . S
C1293 C1292 1.349 . S
C1293 C1309 1.349 . S
C1294 C1292 1.327 . S
C1294 C1313 1.429 . S
C1294 H1318 0.950 . S
C1295 C1312 1.574 . S
C1295 C1314 1.368 . S
C1295 H1319 0.949 . S
H1296 C1300 0.949 . S
C1297 C1298 1.349 . S
C1297 C1299 1.327 . S
C1297 H1320 0.950 . S
C1298 C1297 1.349 . S
C1298 C1310 1.349 . S
C1299 C1297 1.327 . S
C1299 C1315 1.429 . S
C1299 H1321 0.950 . S
C1300 H1296 0.949 . S
C1300 C1308 1.574 . S
C1300 C1316 1.368 . S
H1301 C1309 0.950 . S
H1302 C1307 0.950 . S
H1303 C1308 0.949 . S
H1304 C1310 0.950 . S
H1305 C1311 0.950 . S
H1306 C1312 0.949 . S
C1307 H1302 0.950 . S
C1307 C1309 1.327 . S
C1307 C1313 1.429 . S
C1308 C1300 1.574 . S
C1308 H1303 0.949 . S
C1308 C1314 1.368 . S
C1309 C1293 1.349 . S
C1309 H1301 0.950 . S
C1309 C1307 1.327 . S
C1310 C1298 1.349 . S
C1310 H1304 0.950 . S
C1310 C1311 1.327 . S
C1311 H1305 0.950 . S
C1311 C1310 1.327 . S
C1311 C1315 1.429 . S
C1312 C1295 1.574 . S
C1312 H1306 0.949 . S
C1312 C1316 1.368 . S
C1313 C1294 1.429 . S
C1313 C1307 1.429 . S
C1313 C1314 1.523 . S
C1314 C1295 1.368 . S
C1314 C1308 1.368 . S
C1314 C1313 1.523 . S
C1315 C1299 1.429 . S
C1315 C1311 1.429 . S
C1315 C1316 1.523 . S
C1316 C1300 1.368 . S
C1316 C1312 1.368 . S
C1316 C1315 1.523 . S
H1317 C1292 0.950 . S
H1318 C1294 0.950 . S
H1319 C1295 0.949 . S
H1320 C1297 0.950 . S
H1321 C1299 0.950 . S
C1322 C1323 1.349 . S
C1322 C1324 1.327 . S
C1322 H1347 0.950 . S
C1323 C1322 1.349 . S
C1323 C1339 1.349 . S
C1324 C1322 1.327 . S
C1324 C1343 1.429 . S
C1324 H1348 0.950 . S
C1325 C1342 1.574 . S
C1325 C1344 1.368 . S
C1325 H1349 0.949 . S
H1326 C1330 0.949 . S
C1327 C1328 1.349 . S
C1327 C1329 1.327 . S
C1327 H1350 0.950 . S
C1328 C1327 1.349 . S
C1328 C1340 1.349 . S
C1329 C1327 1.327 . S
C1329 C1345 1.429 . S
C1329 H1351 0.950 . S
C1330 H1326 0.949 . S
C1330 C1338 1.574 . S
C1330 C1346 1.368 . S
H1331 C1339 0.950 . S
H1332 C1337 0.950 . S
H1333 C1338 0.949 . S
H1334 C1340 0.950 . S
H1335 C1341 0.950 . S
H1336 C1342 0.949 . S
C1337 H1332 0.950 . S
C1337 C1339 1.327 . S
C1337 C1343 1.429 . S
C1338 C1330 1.574 . S
C1338 H1333 0.949 . S
C1338 C1344 1.368 . S
C1339 C1323 1.349 . S
C1339 H1331 0.950 . S
C1339 C1337 1.327 . S
C1340 C1328 1.349 . S
C1340 H1334 0.950 . S
C1340 C1341 1.327 . S
C1341 H1335 0.950 . S
C1341 C1340 1.327 . S
C1341 C1345 1.429 . S
C1342 C1325 1.574 . S
C1342 H1336 0.949 . S
C1342 C1346 1.368 . S
C1343 C1324 1.429 . S
C1343 C1337 1.429 . S
C1343 C1344 1.523 . S
C1344 C1325 1.368 . S
C1344 C1338 1.368 . S
C1344 C1343 1.523 . S
C1345 C1329 1.429 . S
C1345 C1341 1.429 . S
C1345 C1346 1.523 . S
C1346 C1330 1.368 . S
C1346 C1342 1.368 . S
C1346 C1345 1.523 . S
H1347 C1322 0.950 . S
H1348 C1324 0.950 . S
H1349 C1325 0.949 . S
H1350 C1327 0.950 . S
H1351 C1329 0.950 . S
C1352 C1353 1.349 . S
C1352 C1354 1.327 . S
C1352 H1377 0.950 . S
C1353 C1352 1.349 . S
C1353 C1369 1.349 . S
C1354 C1352 1.327 . S
C1354 C1373 1.429 . S
C1354 H1378 0.950 . S
C1355 C1372 1.574 . S
C1355 C1374 1.368 . S
C1355 H1379 0.949 . S
H1356 C1360 0.949 . S
C1357 C1358 1.349 . S
C1357 C1359 1.327 . S
C1357 H1380 0.950 . S
C1358 C1357 1.349 . S
C1358 C1370 1.349 . S
C1359 C1357 1.327 . S
C1359 C1375 1.429 . S
C1359 H1381 0.950 . S
C1360 H1356 0.949 . S
C1360 C1368 1.574 . S
C1360 C1376 1.368 . S
H1361 C1369 0.950 . S
H1362 C1367 0.950 . S
H1363 C1368 0.949 . S
H1364 C1370 0.950 . S
H1365 C1371 0.950 . S
H1366 C1372 0.949 . S
C1367 H1362 0.950 . S
C1367 C1369 1.327 . S
C1367 C1373 1.429 . S
C1368 C1360 1.574 . S
C1368 H1363 0.949 . S
C1368 C1374 1.368 . S
C1369 C1353 1.349 . S
C1369 H1361 0.950 . S
C1369 C1367 1.327 . S
C1370 C1358 1.349 . S
C1370 H1364 0.950 . S
C1370 C1371 1.327 . S
C1371 H1365 0.950 . S
C1371 C1370 1.327 . S
C1371 C1375 1.429 . S
C1372 C1355 1.574 . S
C1372 H1366 0.949 . S
C1372 C1376 1.368 . S
C1373 C1354 1.429 . S
C1373 C1367 1.429 . S
C1373 C1374 1.523 . S
C1374 C1355 1.368 . S
C1374 C1368 1.368 . S
C1374 C1373 1.523 . S
C1375 C1359 1.429 . S
C1375 C1371 1.429 . S
C1375 C1376 1.523 . S
C1376 C1360 1.368 . S
C1376 C1372 1.368 . S
C1376 C1375 1.523 . S
H1377 C1352 0.950 . S
H1378 C1354 0.950 . S
H1379 C1355 0.949 . S
H1380 C1357 0.950 . S
H1381 C1359 0.950 . S
C1382 C1383 1.349 . S
C1382 C1384 1.327 . S
C1382 H1407 0.950 . S
C1383 C1382 1.349 . S
C1383 C1399 1.349 . S
C1384 C1382 1.327 . S
C1384 C1403 1.429 . S
C1384 H1408 0.950 . S
C1385 C1402 1.574 . S
C1385 C1404 1.368 . S
C1385 H1409 0.949 . S
H1386 C1390 0.949 . S
C1387 C1388 1.349 . S
C1387 C1389 1.327 . S
C1387 H1410 0.950 . S
C1388 C1387 1.349 . S
C1388 C1400 1.349 . S
C1389 C1387 1.327 . S
C1389 C1405 1.429 . S
C1389 H1411 0.950 . S
C1390 H1386 0.949 . S
C1390 C1398 1.574 . S
C1390 C1406 1.368 . S
H1391 C1399 0.950 . S
H1392 C1397 0.950 . S
H1393 C1398 0.949 . S
H1394 C1400 0.950 . S
H1395 C1401 0.950 . S
H1396 C1402 0.949 . S
C1397 H1392 0.950 . S
C1397 C1399 1.327 . S
C1397 C1403 1.429 . S
C1398 C1390 1.574 . S
C1398 H1393 0.949 . S
C1398 C1404 1.368 . S
C1399 C1383 1.349 . S
C1399 H1391 0.950 . S
C1399 C1397 1.327 . S
C1400 C1388 1.349 . S
C1400 H1394 0.950 . S
C1400 C1401 1.327 . S
C1401 H1395 0.950 . S
C1401 C1400 1.327 . S
C1401 C1405 1.429 . S
C1402 C1385 1.574 . S
C1402 H1396 0.949 . S
C1402 C1406 1.368 . S
C1403 C1384 1.429 . S
C1403 C1397 1.429 . S
C1403 C1404 1.523 . S
C1404 C1385 1.368 . S
C1404 C1398 1.368 . S
C1404 C1403 1.523 . S
C1405 C1389 1.429 . S
C1405 C1401 1.429 . S
C1405 C1406 1.523 . S
C1406 C1390 1.368 . S
C1406 C1402 1.368 . S
C1406 C1405 1.523 . S
H1407 C1382 0.950 . S
H1408 C1384 0.950 . S
H1409 C1385 0.949 . S
H1410 C1387 0.950 . S
H1411 C1389 0.950 . S
C1412 C1413 1.349 . S
C1412 C1414 1.327 . S
C1412 H1437 0.950 . S
C1413 C1412 1.349 . S
C1413 C1429 1.349 . S
C1414 C1412 1.327 . S
C1414 C1433 1.429 . S
C1414 H1438 0.950 . S
C1415 C1432 1.574 . S
C1415 C1434 1.368 . S
C1415 H1439 0.949 . S
H1416 C1420 0.949 . S
C1417 C1418 1.349 . S
C1417 C1419 1.327 . S
C1417 H1440 0.950 . S
C1418 C1417 1.349 . S
C1418 C1430 1.349 . S
C1419 C1417 1.327 . S
C1419 C1435 1.429 . S
C1419 H1441 0.950 . S
C1420 H1416 0.949 . S
C1420 C1428 1.574 . S
C1420 C1436 1.368 . S
H1421 C1429 0.950 . S
H1422 C1427 0.950 . S
H1423 C1428 0.949 . S
H1424 C1430 0.950 . S
H1425 C1431 0.950 . S
H1426 C1432 0.949 . S
C1427 H1422 0.950 . S
C1427 C1429 1.327 . S
C1427 C1433 1.429 . S
C1428 C1420 1.574 . S
C1428 H1423 0.949 . S
C1428 C1434 1.368 . S
C1429 C1413 1.349 . S
C1429 H1421 0.950 . S
C1429 C1427 1.327 . S
C1430 C1418 1.349 . S
C1430 H1424 0.950 . S
C1430 C1431 1.327 . S
C1431 H1425 0.950 . S
C1431 C1430 1.327 . S
C1431 C1435 1.429 . S
C1432 C1415 1.574 . S
C1432 H1426 0.949 . S
C1432 C1436 1.368 . S
C1433 C1414 1.429 . S
C1433 C1427 1.429 . S
C1433 C1434 1.523 . S
C1434 C1415 1.368 . S
C1434 C1428 1.368 . S
C1434 C1433 1.523 . S
C1435 C1419 1.429 . S
C1435 C1431 1.429 . S
C1435 C1436 1.523 . S
C1436 C1420 1.368 . S
C1436 C1432 1.368 . S
C1436 C1435 1.523 . S
H1437 C1412 0.950 . S
H1438 C1414 0.950 . S
H1439 C1415 0.949 . S
H1440 C1417 0.950 . S
H1441 C1419 0.950 . S
C1442 C1443 1.349 . S
C1442 C1444 1.327 . S
C1442 H1467 0.950 . S
C1443 C1442 1.349 . S
C1443 C1459 1.349 . S
C1444 C1442 1.327 . S
C1444 C1463 1.429 . S
C1444 H1468 0.950 . S
C1445 C1462 1.574 . S
C1445 C1464 1.368 . S
C1445 H1469 0.949 . S
H1446 C1450 0.949 . S
C1447 C1448 1.349 . S
C1447 C1449 1.327 . S
C1447 H1470 0.950 . S
C1448 C1447 1.349 . S
C1448 C1460 1.349 . S
C1449 C1447 1.327 . S
C1449 C1465 1.429 . S
C1449 H1471 0.950 . S
C1450 H1446 0.949 . S
C1450 C1458 1.574 . S
C1450 C1466 1.368 . S
H1451 C1459 0.950 . S
H1452 C1457 0.950 . S
H1453 C1458 0.949 . S
H1454 C1460 0.950 . S
H1455 C1461 0.950 . S
H1456 C1462 0.949 . S
C1457 H1452 0.950 . S
C1457 C1459 1.327 . S
C1457 C1463 1.429 . S
C1458 C1450 1.574 . S
C1458 H1453 0.949 . S
C1458 C1464 1.368 . S
C1459 C1443 1.349 . S
C1459 H1451 0.950 . S
C1459 C1457 1.327 . S
C1460 C1448 1.349 . S
C1460 H1454 0.950 . S
C1460 C1461 1.327 . S
C1461 H1455 0.950 . S
C1461 C1460 1.327 . S
C1461 C1465 1.429 . S
C1462 C1445 1.574 . S
C1462 H1456 0.949 . S
C1462 C1466 1.368 . S
C1463 C1444 1.429 . S
C1463 C1457 1.429 . S
C1463 C1464 1.523 . S
C1464 C1445 1.368 . S
C1464 C1458 1.368 . S
C1464 C1463 1.523 . S
C1465 C1449 1.429 . S
C1465 C1461 1.429 . S
C1465 C1466 1.523 . S
C1466 C1450 1.368 . S
C1466 C1462 1.368 . S
C1466 C1465 1.523 . S
H1467 C1442 0.950 . S
H1468 C1444 0.950 . S
H1469 C1445 0.949 . S
H1470 C1447 0.950 . S
H1471 C1449 0.950 . S
C1472 C1473 1.349 . S
C1472 C1474 1.327 . S
C1472 H1497 0.950 . S
C1473 C1472 1.349 . S
C1473 C1489 1.349 . S
C1474 C1472 1.327 . S
C1474 C1493 1.429 . S
C1474 H1498 0.950 . S
C1475 C1492 1.574 . S
C1475 C1494 1.368 . S
C1475 H1499 0.979 . S
H1476 C1480 0.949 . S
C1477 C1478 1.349 . S
C1477 C1479 1.327 . S
C1477 H1500 0.950 1_455 S
C1478 C1477 1.349 . S
C1478 C1490 1.349 . S
C1479 C1477 1.327 . S
C1479 C1495 1.429 . S
C1479 H1501 0.950 1_455 S
C1480 H1476 0.949 . S
C1480 C1488 1.574 . S
C1480 C1496 1.368 . S
H1481 C1489 0.950 . S
H1482 C1487 0.950 . S
H1483 C1488 0.949 . S
H1484 C1490 0.950 . S
H1485 C1491 0.950 . S
H1486 C1492 0.949 1_655 S
C1487 H1482 0.950 . S
C1487 C1489 1.327 . S
C1487 C1493 1.429 . S
C1488 C1480 1.574 . S
C1488 H1483 0.949 . S
C1488 C1494 1.368 . S
C1489 C1473 1.349 . S
C1489 H1481 0.950 . S
C1489 C1487 1.327 . S
C1490 C1478 1.349 . S
C1490 H1484 0.950 . S
C1490 C1491 1.327 . S
C1491 H1485 0.950 . S
C1491 C1490 1.327 . S
C1491 C1495 1.429 . S
C1492 C1475 1.574 . S
C1492 H1486 0.949 1_455 S
C1492 C1496 1.368 . S
C1493 C1474 1.429 . S
C1493 C1487 1.429 . S
C1493 C1494 1.523 . S
C1494 C1475 1.368 . S
C1494 C1488 1.368 . S
C1494 C1493 1.523 . S
C1495 C1479 1.429 . S
C1495 C1491 1.429 . S
C1495 C1496 1.523 . S
C1496 C1480 1.368 . S
C1496 C1492 1.368 . S
C1496 C1495 1.523 . S
H1497 C1472 0.950 . S
H1498 C1474 0.950 . S
H1499 C1475 0.979 . S
H1500 C1477 0.950 1_655 S
H1501 C1479 0.950 1_655 S
C1502 C1503 1.349 . S
C1502 C1504 1.327 . S
C1502 H1527 0.950 . S
C1503 C1502 1.349 . S
C1503 C1519 1.349 . S
C1504 C1502 1.327 . S
C1504 C1523 1.429 . S
C1504 H1528 0.950 . S
C1505 C1522 1.574 . S
C1505 C1524 1.368 . S
C1505 H1529 0.949 . S
H1506 C1510 0.949 . S
C1507 C1508 1.349 . S
C1507 C1509 1.327 . S
C1507 H1530 0.950 . S
C1508 C1507 1.349 . S
C1508 C1520 1.349 . S
C1509 C1507 1.327 . S
C1509 C1525 1.429 . S
C1509 H1531 0.950 . S
C1510 H1506 0.949 . S
C1510 C1518 1.574 . S
C1510 C1526 1.368 . S
H1511 C1519 0.950 . S
H1512 C1517 0.950 . S
H1513 C1518 0.949 . S
H1514 C1520 0.950 . S
H1515 C1521 0.950 . S
H1516 C1522 0.949 . S
C1517 H1512 0.950 . S
C1517 C1519 1.327 . S
C1517 C1523 1.429 . S
C1518 C1510 1.574 . S
C1518 H1513 0.949 . S
C1518 C1524 1.368 . S
C1519 C1503 1.349 . S
C1519 H1511 0.950 . S
C1519 C1517 1.327 . S
C1520 C1508 1.349 . S
C1520 H1514 0.950 . S
C1520 C1521 1.327 . S
C1521 H1515 0.950 . S
C1521 C1520 1.327 . S
C1521 C1525 1.429 . S
C1522 C1505 1.574 . S
C1522 H1516 0.949 . S
C1522 C1526 1.368 . S
C1523 C1504 1.429 . S
C1523 C1517 1.429 . S
C1523 C1524 1.523 . S
C1524 C1505 1.368 . S
C1524 C1518 1.368 . S
C1524 C1523 1.523 . S
C1525 C1509 1.429 . S
C1525 C1521 1.429 . S
C1525 C1526 1.523 . S
C1526 C1510 1.368 . S
C1526 C1522 1.368 . S
C1526 C1525 1.523 . S
H1527 C1502 0.950 . S
H1528 C1504 0.950 . S
H1529 C1505 0.949 . S
H1530 C1507 0.950 . S
H1531 C1509 0.950 . S
C1532 C1533 1.349 . S
C1532 C1534 1.327 . S
C1532 H1557 0.950 . S
C1533 C1532 1.349 . S
C1533 C1549 1.349 . S
C1534 C1532 1.327 . S
C1534 C1553 1.429 . S
C1534 H1558 0.950 . S
C1535 C1552 1.574 . S
C1535 C1554 1.368 . S
C1535 H1559 0.949 . S
H1536 C1540 0.949 . S
C1537 C1538 1.349 . S
C1537 C1539 1.327 . S
C1537 H1560 0.950 . S
C1538 C1537 1.349 . S
C1538 C1550 1.349 . S
C1539 C1537 1.327 . S
C1539 C1555 1.429 . S
C1539 H1561 0.950 . S
C1540 H1536 0.949 . S
C1540 C1548 1.574 . S
C1540 C1556 1.368 . S
H1541 C1549 0.950 . S
H1542 C1547 0.950 . S
H1543 C1548 0.949 . S
H1544 C1550 0.950 1_554 S
H1545 C1551 0.950 . S
H1546 C1552 0.949 . S
C1547 H1542 0.950 . S
C1547 C1549 1.327 . S
C1547 C1553 1.429 . S
C1548 C1540 1.574 . S
C1548 H1543 0.949 . S
C1548 C1554 1.368 . S
C1549 C1533 1.349 . S
C1549 H1541 0.950 . S
C1549 C1547 1.327 . S
C1550 C1538 1.349 . S
C1550 H1544 0.950 1_556 S
C1550 C1551 1.327 . S
C1551 H1545 0.950 . S
C1551 C1550 1.327 . S
C1551 C1555 1.429 . S
C1552 C1535 1.574 . S
C1552 H1546 0.949 . S
C1552 C1556 1.368 . S
C1553 C1534 1.429 . S
C1553 C1547 1.429 . S
C1553 C1554 1.523 . S
C1554 C1535 1.368 . S
C1554 C1548 1.368 . S
C1554 C1553 1.523 . S
C1555 C1539 1.429 . S
C1555 C1551 1.429 . S
C1555 C1556 1.523 . S
C1556 C1540 1.368 . S
C1556 C1552 1.368 . S
C1556 C1555 1.523 . S
H1557 C1532 0.950 . S
H1558 C1534 0.950 . S
H1559 C1535 0.949 . S
H1560 C1537 0.950 . S
H1561 C1539 0.950 . S
C1562 C1563 1.349 . S
C1562 C1564 1.327 . S
C1562 H1587 0.950 . S
C1563 C1562 1.349 . S
C1563 C1579 1.349 . S
C1564 C1562 1.327 . S
C1564 C1583 1.429 . S
C1564 H1588 0.950 . S
C1565 C1582 1.574 . S
C1565 C1584 1.368 . S
C1565 H1589 0.949 . S
H1566 C1570 0.949 . S
C1567 C1568 1.349 . S
C1567 C1569 1.327 . S
C1567 H1590 0.950 . S
C1568 C1567 1.349 . S
C1568 C1580 1.349 . S
C1569 C1567 1.327 . S
C1569 C1585 1.429 . S
C1569 H1591 0.950 . S
C1570 H1566 0.949 . S
C1570 C1578 1.574 . S
C1570 C1586 1.368 . S
H1571 C1579 0.950 . S
H1572 C1577 0.950 . S
H1573 C1578 0.949 . S
H1574 C1580 0.950 . S
H1575 C1581 0.950 . S
H1576 C1582 0.949 . S
C1577 H1572 0.950 . S
C1577 C1579 1.327 . S
C1577 C1583 1.429 . S
C1578 C1570 1.574 . S
C1578 H1573 0.949 . S
C1578 C1584 1.368 . S
C1579 C1563 1.349 . S
C1579 H1571 0.950 . S
C1579 C1577 1.327 . S
C1580 C1568 1.349 . S
C1580 H1574 0.950 . S
C1580 C1581 1.327 . S
C1581 H1575 0.950 . S
C1581 C1580 1.327 . S
C1581 C1585 1.429 . S
C1582 C1565 1.574 . S
C1582 H1576 0.949 . S
C1582 C1586 1.368 . S
C1583 C1564 1.429 . S
C1583 C1577 1.429 . S
C1583 C1584 1.523 . S
C1584 C1565 1.368 . S
C1584 C1578 1.368 . S
C1584 C1583 1.523 . S
C1585 C1569 1.429 . S
C1585 C1581 1.429 . S
C1585 C1586 1.523 . S
C1586 C1570 1.368 . S
C1586 C1582 1.368 . S
C1586 C1585 1.523 . S
H1587 C1562 0.950 . S
H1588 C1564 0.950 . S
H1589 C1565 0.949 . S
H1590 C1567 0.950 . S
H1591 C1569 0.950 . S
C1592 C1593 1.349 . S
C1592 C1594 1.327 . S
C1592 H1617 0.950 1_545 S
C1593 C1592 1.349 . S
C1593 C1609 1.349 . S
C1594 C1592 1.327 . S
C1594 C1613 1.429 . S
C1594 H1618 0.950 1_545 S
C1595 C1612 1.574 . S
C1595 C1614 1.368 . S
C1595 H1619 0.949 . S
H1596 C1600 0.949 1_565 S
C1597 C1598 1.349 . S
C1597 C1599 1.327 . S
C1597 H1620 0.950 . S
C1598 C1597 1.349 . S
C1598 C1610 1.349 . S
C1599 C1597 1.327 . S
C1599 C1615 1.429 . S
C1599 H1621 0.950 . S
C1600 H1596 0.949 1_545 S
C1600 C1608 1.574 . S
C1600 C1616 1.368 . S
H1601 C1609 0.950 . S
H1602 C1607 0.950 . S
H1603 C1608 0.949 1_565 S
H1604 C1610 0.950 1_565 S
H1605 C1611 0.950 1_565 S
H1606 C1612 0.949 . S
C1607 H1602 0.950 . S
C1607 C1609 1.327 . S
C1607 C1613 1.429 . S
C1608 C1600 1.574 . S
C1608 H1603 0.949 1_545 S
C1608 C1614 1.368 . S
C1609 C1593 1.349 . S
C1609 H1601 0.950 . S
C1609 C1607 1.327 . S
C1610 C1598 1.349 . S
C1610 H1604 0.950 1_545 S
C1610 C1611 1.327 . S
C1611 H1605 0.950 1_545 S
C1611 C1610 1.327 . S
C1611 C1615 1.429 . S
C1612 C1595 1.574 . S
C1612 H1606 0.949 . S
C1612 C1616 1.368 . S
C1613 C1594 1.429 . S
C1613 C1607 1.429 . S
C1613 C1614 1.523 . S
C1614 C1595 1.368 . S
C1614 C1608 1.368 . S
C1614 C1613 1.523 . S
C1615 C1599 1.429 . S
C1615 C1611 1.429 . S
C1615 C1616 1.523 . S
C1616 C1600 1.368 . S
C1616 C1612 1.368 . S
C1616 C1615 1.523 . S
H1617 C1592 0.950 1_565 S
H1618 C1594 0.950 1_565 S
H1619 C1595 0.949 . S
H1620 C1597 0.950 . S
H1621 C1599 0.950 . S
C1622 C1623 1.349 . S
C1622 C1624 1.327 . S
C1622 H1647 0.950 . S
C1623 C1622 1.349 . S
C1623 C1639 1.349 . S
C1624 C1622 1.327 . S
C1624 C1643 1.429 . S
C1624 H1648 0.950 . S
C1625 C1642 1.574 . S
C1625 C1644 1.368 . S
C1625 H1649 0.949 . S
H1626 C1630 0.949 . S
C1627 C1628 1.349 . S
C1627 C1629 1.327 . S
C1627 H1650 0.950 . S
C1628 C1627 1.349 . S
C1628 C1640 1.349 . S
C1629 C1627 1.327 . S
C1629 C1645 1.429 . S
C1629 H1651 0.950 . S
C1630 H1626 0.949 . S
C1630 C1638 1.574 . S
C1630 C1646 1.368 . S
H1631 C1639 0.950 . S
H1632 C1637 0.950 . S
H1633 C1638 0.949 . S
H1634 C1640 0.950 . S
H1635 C1641 0.950 . S
H1636 C1642 0.949 . S
C1637 H1632 0.950 . S
C1637 C1639 1.327 . S
C1637 C1643 1.429 . S
C1638 C1630 1.574 . S
C1638 H1633 0.949 . S
C1638 C1644 1.368 . S
C1639 C1623 1.349 . S
C1639 H1631 0.950 . S
C1639 C1637 1.327 . S
C1640 C1628 1.349 . S
C1640 H1634 0.950 . S
C1640 C1641 1.327 . S
C1641 H1635 0.950 . S
C1641 C1640 1.327 . S
C1641 C1645 1.429 . S
C1642 C1625 1.574 . S
C1642 H1636 0.949 . S
C1642 C1646 1.368 . S
C1643 C1624 1.429 . S
C1643 C1637 1.429 . S
C1643 C1644 1.523 . S
C1644 C1625 1.368 . S
C1644 C1638 1.368 . S
C1644 C1643 1.523 . S
C1645 C1629 1.429 . S
C1645 C1641 1.429 . S
C1645 C1646 1.523 . S
C1646 C1630 1.368 . S
C1646 C1642 1.368 . S
C1646 C1645 1.523 . S
H1647 C1622 0.950 . S
H1648 C1624 0.950 . S
H1649 C1625 0.949 . S
H1650 C1627 0.950 . S
H1651 C1629 0.950 . S
C1652 C1653 1.349 . S
C1652 C1654 1.327 . S
C1652 H1677 0.953 . S
C1653 C1652 1.349 . S
C1653 C1669 1.349 . S
C1654 C1652 1.327 . S
C1654 C1673 1.429 . S
C1654 H1678 0.950 1_545 S
C1655 C1672 1.574 . S
C1655 C1674 1.368 . S
C1655 H1679 0.949 . S
H1656 C1660 0.949 1_565 S
C1657 C1658 1.349 . S
C1657 C1659 1.327 . S
C1657 H1680 0.950 . S
C1658 C1657 1.349 . S
C1658 C1670 1.349 1_545 S
C1659 C1657 1.327 . S
C1659 C1675 1.429 . S
C1659 H1681 0.950 . S
C1660 H1656 0.949 1_545 S
C1660 C1668 1.574 . S
C1660 C1676 1.368 . S
H1661 C1669 0.950 . S
H1662 C1667 0.950 . S
H1663 C1668 0.949 1_565 S
H1664 C1670 0.950 . S
H1665 C1671 0.949 . S
H1666 C1672 0.949 . S
C1667 H1662 0.950 . S
C1667 C1669 1.327 . S
C1667 C1673 1.429 . S
C1668 C1660 1.574 . S
C1668 H1663 0.949 1_545 S
C1668 C1674 1.368 . S
C1669 C1653 1.349 . S
C1669 H1661 0.950 . S
C1669 C1667 1.327 . S
C1670 C1658 1.349 1_565 S
C1670 H1664 0.950 . S
C1670 C1671 1.327 . S
C1671 H1665 0.949 . S
C1671 C1670 1.327 . S
C1671 C1675 1.429 1_565 S
C1672 C1655 1.574 . S
C1672 H1666 0.949 . S
C1672 C1676 1.368 . S
C1673 C1654 1.429 . S
C1673 C1667 1.429 . S
C1673 C1674 1.523 . S
C1674 C1655 1.368 . S
C1674 C1668 1.368 . S
C1674 C1673 1.523 . S
C1675 C1659 1.429 . S
C1675 C1671 1.429 1_545 S
C1675 C1676 1.523 . S
C1676 C1660 1.368 . S
C1676 C1672 1.368 . S
C1676 C1675 1.523 . S
H1677 C1652 0.953 . S
H1678 C1654 0.950 1_565 S
H1679 C1655 0.949 . S
H1680 C1657 0.950 . S
H1681 C1659 0.950 . S
C1682 C1683 1.349 . S
C1682 C1684 1.327 . S
C1682 H1707 0.950 . S
C1683 C1682 1.349 . S
C1683 C1699 1.349 . S
C1684 C1682 1.327 . S
C1684 C1703 1.429 . S
C1684 H1708 0.950 . S
C1685 C1702 1.574 . S
C1685 C1704 1.368 . S
C1685 H1709 0.949 . S
H1686 C1690 0.949 . S
C1687 C1688 1.349 . S
C1687 C1689 1.327 . S
C1687 H1710 0.950 . S
C1688 C1687 1.349 . S
C1688 C1700 1.349 . S
C1689 C1687 1.327 . S
C1689 C1705 1.429 . S
C1689 H1711 0.950 . S
C1690 H1686 0.949 . S
C1690 C1698 1.574 . S
C1690 C1706 1.368 . S
H1691 C1699 0.950 . S
H1692 C1697 0.950 . S
H1693 C1698 0.949 . S
H1694 C1700 0.950 . S
H1695 C1701 0.950 . S
H1696 C1702 0.949 . S
C1697 H1692 0.950 . S
C1697 C1699 1.327 . S
C1697 C1703 1.429 . S
C1698 C1690 1.574 . S
C1698 H1693 0.949 . S
C1698 C1704 1.368 . S
C1699 C1683 1.349 . S
C1699 H1691 0.950 . S
C1699 C1697 1.327 . S
C1700 C1688 1.349 . S
C1700 H1694 0.950 . S
C1700 C1701 1.327 . S
C1701 H1695 0.950 . S
C1701 C1700 1.327 . S
C1701 C1705 1.429 . S
C1702 C1685 1.574 . S
C1702 H1696 0.949 . S
C1702 C1706 1.368 . S
C1703 C1684 1.429 . S
C1703 C1697 1.429 . S
C1703 C1704 1.523 . S
C1704 C1685 1.368 . S
C1704 C1698 1.368 . S
C1704 C1703 1.523 . S
C1705 C1689 1.429 . S
C1705 C1701 1.429 . S
C1705 C1706 1.523 . S
C1706 C1690 1.368 . S
C1706 C1702 1.368 . S
C1706 C1705 1.523 . S
H1707 C1682 0.950 . S
H1708 C1684 0.950 . S
H1709 C1685 0.949 . S
H1710 C1687 0.950 . S
H1711 C1689 0.950 . S
C1712 C1713 1.349 . S
C1712 C1714 1.327 . S
C1712 H1737 0.950 . S
C1713 C1712 1.349 . S
C1713 C1729 1.349 1_545 S
C1714 C1712 1.327 . S
C1714 C1733 1.429 . S
C1714 H1738 0.950 . S
C1715 C1732 1.574 . S
C1715 C1734 1.368 1_565 S
C1715 H1739 0.949 . S
H1716 C1720 0.949 . S
C1717 C1718 1.353 . S
C1717 C1719 1.324 1_545 S
C1717 H1740 0.948 1_545 S
C1718 C1717 1.353 . S
C1718 C1730 1.349 . S
C1719 C1717 1.324 1_565 S
C1719 C1735 1.427 1_565 S
C1719 H1741 0.953 . S
C1720 H1716 0.949 . S
C1720 C1728 1.574 . S
C1720 C1736 1.368 . S
H1721 C1729 0.950 . S
H1722 C1727 0.950 . S
H1723 C1728 0.949 . S
H1724 C1730 0.950 . S
H1725 C1731 0.950 . S
H1726 C1732 0.949 . S
C1727 H1722 0.950 . S
C1727 C1729 1.327 . S
C1727 C1733 1.429 1_565 S
C1728 C1720 1.574 . S
C1728 H1723 0.949 . S
C1728 C1734 1.368 . S
C1729 C1713 1.349 1_565 S
C1729 H1721 0.950 . S
C1729 C1727 1.327 . S
C1730 C1718 1.349 . S
C1730 H1724 0.950 . S
C1730 C1731 1.327 . S
C1731 H1725 0.950 . S
C1731 C1730 1.327 . S
C1731 C1735 1.429 . S
C1732 C1715 1.574 . S
C1732 H1726 0.949 . S
C1732 C1736 1.368 1_565 S
C1733 C1714 1.429 . S
C1733 C1727 1.429 1_545 S
C1733 C1734 1.523 . S
C1734 C1715 1.368 1_545 S
C1734 C1728 1.368 . S
C1734 C1733 1.523 . S
C1735 C1719 1.427 1_545 S
C1735 C1731 1.429 . S
C1735 C1736 1.523 . S
C1736 C1720 1.368 . S
C1736 C1732 1.368 1_545 S
C1736 C1735 1.523 . S
H1737 C1712 0.950 . S
H1738 C1714 0.950 . S
H1739 C1715 0.949 . S
H1740 C1717 0.948 1_565 S
H1741 C1719 0.953 . S
C1742 C1743 1.349 . S
C1742 C1744 1.327 . S
C1742 H1767 0.950 . S
C1743 C1742 1.349 . S
C1743 C1759 1.349 . S
C1744 C1742 1.327 . S
C1744 C1763 1.429 . S
C1744 H1768 0.950 . S
C1745 C1762 1.574 . S
C1745 C1764 1.368 . S
C1745 H1769 0.949 . S
H1746 C1750 0.949 . S
C1747 C1748 1.349 . S
C1747 C1749 1.327 . S
C1747 H1770 0.950 . S
C1748 C1747 1.349 . S
C1748 C1760 1.349 . S
C1749 C1747 1.327 . S
C1749 C1765 1.429 . S
C1749 H1771 0.950 . S
C1750 H1746 0.949 . S
C1750 C1758 1.574 . S
C1750 C1766 1.368 . S
H1751 C1759 0.950 . S
H1752 C1757 0.950 . S
H1753 C1758 0.949 . S
H1754 C1760 0.950 . S
H1755 C1761 0.950 . S
H1756 C1762 0.949 . S
C1757 H1752 0.950 . S
C1757 C1759 1.327 . S
C1757 C1763 1.429 . S
C1758 C1750 1.574 . S
C1758 H1753 0.949 . S
C1758 C1764 1.368 . S
C1759 C1743 1.349 . S
C1759 H1751 0.950 . S
C1759 C1757 1.327 . S
C1760 C1748 1.349 . S
C1760 H1754 0.950 . S
C1760 C1761 1.327 . S
C1761 H1755 0.950 . S
C1761 C1760 1.327 . S
C1761 C1765 1.429 . S
C1762 C1745 1.574 . S
C1762 H1756 0.949 . S
C1762 C1766 1.368 . S
C1763 C1744 1.429 . S
C1763 C1757 1.429 . S
C1763 C1764 1.523 . S
C1764 C1745 1.368 . S
C1764 C1758 1.368 . S
C1764 C1763 1.523 . S
C1765 C1749 1.429 . S
C1765 C1761 1.429 . S
C1765 C1766 1.523 . S
C1766 C1750 1.368 . S
C1766 C1762 1.368 . S
C1766 C1765 1.523 . S
H1767 C1742 0.950 . S
H1768 C1744 0.950 . S
H1769 C1745 0.949 . S
H1770 C1747 0.950 . S
H1771 C1749 0.950 . S
C1772 C1773 1.349 . S
C1772 C1774 1.327 . S
C1772 H1797 0.950 . S
C1773 C1772 1.349 . S
C1773 C1789 1.349 . S
C1774 C1772 1.327 . S
C1774 C1793 1.429 . S
C1774 H1798 0.950 1_545 S
C1775 C1792 1.574 . S
C1775 C1794 1.368 . S
C1775 H1799 0.949 . S
H1776 C1780 0.949 1_565 S
C1777 C1778 1.349 . S
C1777 C1779 1.327 . S
C1777 H1800 0.950 . S
C1778 C1777 1.349 . S
C1778 C1790 1.350 1_545 S
C1779 C1777 1.327 . S
C1779 C1795 1.429 . S
C1779 H1801 0.950 . S
C1780 H1776 0.949 1_545 S
C1780 C1788 1.574 . S
C1780 C1796 1.368 . S
H1781 C1789 0.950 . S
H1782 C1787 0.950 . S
H1783 C1788 0.949 1_565 S
H1784 C1790 0.948 . S
H1785 C1791 0.950 1_565 S
H1786 C1792 0.949 . S
C1787 H1782 0.950 . S
C1787 C1789 1.327 . S
C1787 C1793 1.429 . S
C1788 C1780 1.574 . S
C1788 H1783 0.949 1_545 S
C1788 C1794 1.368 . S
C1789 C1773 1.349 . S
C1789 H1781 0.950 . S
C1789 C1787 1.327 . S
C1790 C1778 1.350 1_565 S
C1790 H1784 0.948 . S
C1790 C1791 1.327 1_565 S
C1791 H1785 0.950 1_545 S
C1791 C1790 1.327 1_545 S
C1791 C1795 1.429 . S
C1792 C1775 1.574 . S
C1792 H1786 0.949 . S
C1792 C1796 1.368 . S
C1793 C1774 1.429 . S
C1793 C1787 1.429 . S
C1793 C1794 1.523 . S
C1794 C1775 1.368 . S
C1794 C1788 1.368 . S
C1794 C1793 1.523 . S
C1795 C1779 1.429 . S
C1795 C1791 1.429 . S
C1795 C1796 1.523 . S
C1796 C1780 1.368 . S
C1796 C1792 1.368 . S
C1796 C1795 1.523 . S
H1797 C1772 0.950 . S
H1798 C1774 0.950 1_565 S
H1799 C1775 0.949 . S
H1800 C1777 0.950 . S
H1801 C1779 0.950 . S
C1802 C1803 1.349 . S
C1802 C1804 1.327 . S
C1802 H1827 0.950 . S
C1803 C1802 1.349 . S
C1803 C1819 1.349 . S
C1804 C1802 1.327 . S
C1804 C1823 1.429 . S
C1804 H1828 0.950 . S
C1805 C1822 1.574 . S
C1805 C1824 1.368 . S
C1805 H1829 0.949 . S
H1806 C1810 0.949 . S
C1807 C1808 1.349 . S
C1807 C1809 1.327 . S
C1807 H1830 0.950 . S
C1808 C1807 1.349 . S
C1808 C1820 1.349 . S
C1809 C1807 1.327 . S
C1809 C1825 1.429 . S
C1809 H1831 0.950 . S
C1810 H1806 0.949 . S
C1810 C1818 1.574 . S
C1810 C1826 1.368 . S
H1811 C1819 0.950 . S
H1812 C1817 0.950 . S
H1813 C1818 0.949 . S
H1814 C1820 0.950 . S
H1815 C1821 0.950 . S
H1816 C1822 0.949 . S
C1817 H1812 0.950 . S
C1817 C1819 1.327 . S
C1817 C1823 1.429 . S
C1818 C1810 1.574 . S
C1818 H1813 0.949 . S
C1818 C1824 1.368 . S
C1819 C1803 1.349 . S
C1819 H1811 0.950 . S
C1819 C1817 1.327 . S
C1820 C1808 1.349 . S
C1820 H1814 0.950 . S
C1820 C1821 1.327 . S
C1821 H1815 0.950 . S
C1821 C1820 1.327 . S
C1821 C1825 1.429 . S
C1822 C1805 1.574 . S
C1822 H1816 0.949 . S
C1822 C1826 1.368 . S
C1823 C1804 1.429 . S
C1823 C1817 1.429 . S
C1823 C1824 1.523 . S
C1824 C1805 1.368 . S
C1824 C1818 1.368 . S
C1824 C1823 1.523 . S
C1825 C1809 1.429 . S
C1825 C1821 1.429 . S
C1825 C1826 1.523 . S
C1826 C1810 1.368 . S
C1826 C1822 1.368 . S
C1826 C1825 1.523 . S
H1827 C1802 0.950 . S
H1828 C1804 0.950 . S
H1829 C1805 0.949 . S
H1830 C1807 0.950 . S
H1831 C1809 0.950 . S
C1832 C1833 1.349 . S
C1832 C1834 1.327 . S
C1832 H1857 0.950 . S
C1833 C1832 1.349 . S
C1833 C1849 1.349 . S
C1834 C1832 1.327 . S
C1834 C1853 1.429 . S
C1834 H1858 0.950 . S
C1835 C1852 1.574 . S
C1835 C1854 1.368 . S
C1835 H1859 0.949 . S
H1836 C1840 0.949 . S
C1837 C1838 1.349 . S
C1837 C1839 1.327 . S
C1837 H1860 0.950 . S
C1838 C1837 1.349 . S
C1838 C1850 1.349 . S
C1839 C1837 1.327 . S
C1839 C1855 1.429 . S
C1839 H1861 0.950 . S
C1840 H1836 0.949 . S
C1840 C1848 1.574 . S
C1840 C1856 1.368 . S
H1841 C1849 0.950 . S
H1842 C1847 0.950 . S
H1843 C1848 0.949 . S
H1844 C1850 0.950 . S
H1845 C1851 0.950 . S
H1846 C1852 0.949 . S
C1847 H1842 0.950 . S
C1847 C1849 1.327 . S
C1847 C1853 1.429 . S
C1848 C1840 1.574 . S
C1848 H1843 0.949 . S
C1848 C1854 1.368 . S
C1849 C1833 1.349 . S
C1849 H1841 0.950 . S
C1849 C1847 1.327 . S
C1850 C1838 1.349 . S
C1850 H1844 0.950 . S
C1850 C1851 1.327 . S
C1851 H1845 0.950 . S
C1851 C1850 1.327 . S
C1851 C1855 1.429 . S
C1852 C1835 1.574 . S
C1852 H1846 0.949 . S
C1852 C1856 1.368 . S
C1853 C1834 1.429 . S
C1853 C1847 1.429 . S
C1853 C1854 1.523 . S
C1854 C1835 1.368 . S
C1854 C1848 1.368 . S
C1854 C1853 1.523 . S
C1855 C1839 1.429 . S
C1855 C1851 1.429 . S
C1855 C1856 1.523 . S
C1856 C1840 1.368 . S
C1856 C1852 1.368 . S
C1856 C1855 1.523 . S
H1857 C1832 0.950 . S
H1858 C1834 0.950 . S
H1859 C1835 0.949 . S
H1860 C1837 0.950 . S
H1861 C1839 0.950 . S
C1862 C1863 1.349 . S
C1862 C1864 1.327 . S
C1862 H1887 0.950 . S
C1863 C1862 1.349 . S
C1863 C1879 1.349 . S
C1864 C1862 1.327 . S
C1864 C1883 1.429 . S
C1864 H1888 0.950 . S
C1865 C1882 1.574 . S
C1865 C1884 1.368 . S
C1865 H1889 0.949 . S
H1866 C1870 0.949 . S
C1867 C1868 1.349 . S
C1867 C1869 1.327 . S
C1867 H1890 0.950 . S
C1868 C1867 1.349 . S
C1868 C1880 1.349 . S
C1869 C1867 1.327 . S
C1869 C1885 1.429 . S
C1869 H1891 0.950 . S
C1870 H1866 0.949 . S
C1870 C1878 1.574 . S
C1870 C1886 1.368 . S
H1871 C1879 0.950 . S
H1872 C1877 0.950 . S
H1873 C1878 0.949 . S
H1874 C1880 0.950 . S
H1875 C1881 0.950 . S
H1876 C1882 0.949 . S
C1877 H1872 0.950 . S
C1877 C1879 1.327 . S
C1877 C1883 1.429 . S
C1878 C1870 1.574 . S
C1878 H1873 0.949 . S
C1878 C1884 1.368 . S
C1879 C1863 1.349 . S
C1879 H1871 0.950 . S
C1879 C1877 1.327 . S
C1880 C1868 1.349 . S
C1880 H1874 0.950 . S
C1880 C1881 1.327 . S
C1881 H1875 0.950 . S
C1881 C1880 1.327 . S
C1881 C1885 1.429 . S
C1882 C1865 1.574 . S
C1882 H1876 0.949 . S
C1882 C1886 1.368 . S
C1883 C1864 1.429 . S
C1883 C1877 1.429 . S
C1883 C1884 1.523 . S
C1884 C1865 1.368 . S
C1884 C1878 1.368 . S
C1884 C1883 1.523 . S
C1885 C1869 1.429 . S
C1885 C1881 1.429 . S
C1885 C1886 1.523 . S
C1886 C1870 1.368 . S
C1886 C1882 1.368 . S
C1886 C1885 1.523 . S
H1887 C1862 0.950 . S
H1888 C1864 0.950 . S
H1889 C1865 0.949 . S
H1890 C1867 0.950 . S
H1891 C1869 0.950 . S
C1892 C1893 1.349 . S
C1892 C1894 1.327 . S
C1892 H1917 0.950 . S
C1893 C1892 1.349 . S
C1893 C1909 1.349 . S
C1894 C1892 1.327 . S
C1894 C1913 1.429 . S
C1894 H1918 0.950 . S
C1895 C1912 1.574 . S
C1895 C1914 1.368 . S
C1895 H1919 0.949 . S
H1896 C1900 0.949 . S
C1897 C1898 1.349 . S
C1897 C1899 1.327 . S
C1897 H1920 0.950 . S
C1898 C1897 1.349 . S
C1898 C1910 1.349 . S
C1899 C1897 1.327 . S
C1899 C1915 1.429 . S
C1899 H1921 0.950 . S
C1900 H1896 0.949 . S
C1900 C1908 1.574 . S
C1900 C1916 1.368 . S
H1901 C1909 0.950 . S
H1902 C1907 0.950 . S
H1903 C1908 0.949 . S
H1904 C1910 0.950 . S
H1905 C1911 0.950 . S
H1906 C1912 0.949 . S
C1907 H1902 0.950 . S
C1907 C1909 1.327 . S
C1907 C1913 1.429 . S
C1908 C1900 1.574 . S
C1908 H1903 0.949 . S
C1908 C1914 1.368 . S
C1909 C1893 1.349 . S
C1909 H1901 0.950 . S
C1909 C1907 1.327 . S
C1910 C1898 1.349 . S
C1910 H1904 0.950 . S
C1910 C1911 1.327 . S
C1911 H1905 0.950 . S
C1911 C1910 1.327 . S
C1911 C1915 1.429 . S
C1912 C1895 1.574 . S
C1912 H1906 0.949 . S
C1912 C1916 1.368 . S
C1913 C1894 1.429 . S
C1913 C1907 1.429 . S
C1913 C1914 1.523 . S
C1914 C1895 1.368 . S
C1914 C1908 1.368 . S
C1914 C1913 1.523 . S
C1915 C1899 1.429 . S
C1915 C1911 1.429 . S
C1915 C1916 1.523 . S
C1916 C1900 1.368 . S
C1916 C1912 1.368 . S
C1916 C1915 1.523 . S
H1917 C1892 0.950 . S
H1918 C1894 0.950 . S
H1919 C1895 0.949 . S
H1920 C1897 0.950 . S
H1921 C1899 0.950 . S
C1922 C1923 1.349 . S
C1922 C1924 1.327 . S
C1922 H1947 0.950 . S
C1923 C1922 1.349 . S
C1923 C1939 1.349 . S
C1924 C1922 1.327 . S
C1924 C1943 1.429 . S
C1924 H1948 0.950 . S
C1925 C1942 1.574 . S
C1925 C1944 1.368 . S
C1925 H1949 0.949 . S
H1926 C1930 0.949 . S
C1927 C1928 1.349 . S
C1927 C1929 1.327 . S
C1927 H1950 0.950 . S
C1928 C1927 1.349 . S
C1928 C1940 1.349 . S
C1929 C1927 1.327 . S
C1929 C1945 1.429 . S
C1929 H1951 0.950 . S
C1930 H1926 0.949 . S
C1930 C1938 1.574 . S
C1930 C1946 1.368 . S
H1931 C1939 0.950 . S
H1932 C1937 0.950 . S
H1933 C1938 0.949 . S
H1934 C1940 0.950 . S
H1935 C1941 0.950 . S
H1936 C1942 0.949 . S
C1937 H1932 0.950 . S
C1937 C1939 1.327 . S
C1937 C1943 1.429 . S
C1938 C1930 1.574 . S
C1938 H1933 0.949 . S
C1938 C1944 1.368 . S
C1939 C1923 1.349 . S
C1939 H1931 0.950 . S
C1939 C1937 1.327 . S
C1940 C1928 1.349 . S
C1940 H1934 0.950 . S
C1940 C1941 1.327 . S
C1941 H1935 0.950 . S
C1941 C1940 1.327 . S
C1941 C1945 1.429 . S
C1942 C1925 1.574 . S
C1942 H1936 0.949 . S
C1942 C1946 1.368 . S
C1943 C1924 1.429 . S
C1943 C1937 1.429 . S
C1943 C1944 1.523 . S
C1944 C1925 1.368 . S
C1944 C1938 1.368 . S
C1944 C1943 1.523 . S
C1945 C1929 1.429 . S
C1945 C1941 1.429 . S
C1945 C1946 1.523 . S
C1946 C1930 1.368 . S
C1946 C1942 1.368 . S
C1946 C1945 1.523 . S
H1947 C1922 0.950 . S
H1948 C1924 0.950 . S
H1949 C1925 0.949 . S
H1950 C1927 0.950 . S
H1951 C1929 0.950 . S
C1952 C1953 1.349 . S
C1952 C1954 1.327 . S
C1952 H1977 0.950 . S
C1953 C1952 1.349 . S
C1953 C1969 1.349 . S
C1954 C1952 1.327 . S
C1954 C1973 1.429 . S
C1954 H1978 0.950 . S
C1955 C1972 1.574 . S
C1955 C1974 1.368 . S
C1955 H1979 0.949 . S
H1956 C1960 0.949 . S
C1957 C1958 1.349 . S
C1957 C1959 1.327 . S
C1957 H1980 0.950 . S
C1958 C1957 1.349 . S
C1958 C1970 1.349 . S
C1959 C1957 1.327 . S
C1959 C1975 1.429 . S
C1959 H1981 0.950 . S
C1960 H1956 0.949 . S
C1960 C1968 1.574 . S
C1960 C1976 1.368 . S
H1961 C1969 0.950 . S
H1962 C1967 0.950 . S
H1963 C1968 0.949 . S
H1964 C1970 0.950 . S
H1965 C1971 0.950 . S
H1966 C1972 0.949 . S
C1967 H1962 0.950 . S
C1967 C1969 1.327 . S
C1967 C1973 1.429 . S
C1968 C1960 1.574 . S
C1968 H1963 0.949 . S
C1968 C1974 1.368 . S
C1969 C1953 1.349 . S
C1969 H1961 0.950 . S
C1969 C1967 1.327 . S
C1970 C1958 1.349 . S
C1970 H1964 0.950 . S
C1970 C1971 1.327 . S
C1971 H1965 0.950 . S
C1971 C1970 1.327 . S
C1971 C1975 1.429 . S
C1972 C1955 1.574 . S
C1972 H1966 0.949 . S
C1972 C1976 1.368 . S
C1973 C1954 1.429 . S
C1973 C1967 1.429 . S
C1973 C1974 1.523 . S
C1974 C1955 1.368 . S
C1974 C1968 1.368 . S
C1974 C1973 1.523 . S
C1975 C1959 1.429 . S
C1975 C1971 1.429 . S
C1975 C1976 1.523 . S
C1976 C1960 1.368 . S
C1976 C1972 1.368 . S
C1976 C1975 1.523 . S
H1977 C1952 0.950 . S
H1978 C1954 0.950 . S
H1979 C1955 0.949 . S
H1980 C1957 0.950 . S
H1981 C1959 0.950 . S
C1982 C1983 1.349 . S
C1982 C1984 1.327 . S
C1982 H2007 0.950 . S
C1983 C1982 1.349 . S
C1983 C1999 1.349 . S
C1984 C1982 1.327 . S
C1984 C2003 1.429 . S
C1984 H2008 0.950 . S
C1985 C2002 1.574 . S
C1985 C2004 1.368 . S
C1985 H2009 0.949 . S
H1986 C1990 0.949 . S
C1987 C1988 1.349 . S
C1987 C1989 1.327 . S
C1987 H2010 0.950 . S
C1988 C1987 1.349 . S
C1988 C2000 1.349 . S
C1989 C1987 1.327 . S
C1989 C2005 1.429 . S
C1989 H2011 0.950 . S
C1990 H1986 0.949 . S
C1990 C1998 1.574 . S
C1990 C2006 1.368 . S
H1991 C1999 0.950 . S
H1992 C1997 0.950 . S
H1993 C1998 0.949 . S
H1994 C2000 0.950 . S
H1995 C2001 0.950 . S
H1996 C2002 0.949 . S
C1997 H1992 0.950 . S
C1997 C1999 1.327 . S
C1997 C2003 1.429 . S
C1998 C1990 1.574 . S
C1998 H1993 0.949 . S
C1998 C2004 1.368 . S
C1999 C1983 1.349 . S
C1999 H1991 0.950 . S
C1999 C1997 1.327 . S
C2000 C1988 1.349 . S
C2000 H1994 0.950 . S
C2000 C2001 1.327 . S
C2001 H1995 0.950 . S
C2001 C2000 1.327 . S
C2001 C2005 1.429 . S
C2002 C1985 1.574 . S
C2002 H1996 0.949 . S
C2002 C2006 1.368 . S
C2003 C1984 1.429 . S
C2003 C1997 1.429 . S
C2003 C2004 1.523 . S
C2004 C1985 1.368 . S
C2004 C1998 1.368 . S
C2004 C2003 1.523 . S
C2005 C1989 1.429 . S
C2005 C2001 1.429 . S
C2005 C2006 1.523 . S
C2006 C1990 1.368 . S
C2006 C2002 1.368 . S
C2006 C2005 1.523 . S
H2007 C1982 0.950 . S
H2008 C1984 0.950 . S
H2009 C1985 0.949 . S
H2010 C1987 0.950 . S
H2011 C1989 0.950 . S
C2012 C2013 1.349 . S
C2012 C2014 1.327 . S
C2012 H2037 0.950 . S
C2013 C2012 1.349 . S
C2013 C2029 1.349 . S
C2014 C2012 1.327 . S
C2014 C2033 1.429 . S
C2014 H2038 0.950 . S
C2015 C2032 1.574 . S
C2015 C2034 1.368 . S
C2015 H2039 0.949 . S
H2016 C2020 0.949 . S
C2017 C2018 1.349 . S
C2017 C2019 1.327 . S
C2017 H2040 0.950 . S
C2018 C2017 1.349 . S
C2018 C2030 1.349 . S
C2019 C2017 1.327 . S
C2019 C2035 1.429 . S
C2019 H2041 0.950 . S
C2020 H2016 0.949 . S
C2020 C2028 1.574 . S
C2020 C2036 1.368 . S
H2021 C2029 0.950 . S
H2022 C2027 0.950 . S
H2023 C2028 0.949 . S
H2024 C2030 0.950 . S
H2025 C2031 0.950 . S
H2026 C2032 0.949 . S
C2027 H2022 0.950 . S
C2027 C2029 1.327 . S
C2027 C2033 1.429 . S
C2028 C2020 1.574 . S
C2028 H2023 0.949 . S
C2028 C2034 1.368 . S
C2029 C2013 1.349 . S
C2029 H2021 0.950 . S
C2029 C2027 1.327 . S
C2030 C2018 1.349 . S
C2030 H2024 0.950 . S
C2030 C2031 1.327 . S
C2031 H2025 0.950 . S
C2031 C2030 1.327 . S
C2031 C2035 1.429 . S
C2032 C2015 1.574 . S
C2032 H2026 0.949 . S
C2032 C2036 1.368 . S
C2033 C2014 1.429 . S
C2033 C2027 1.429 . S
C2033 C2034 1.523 . S
C2034 C2015 1.368 . S
C2034 C2028 1.368 . S
C2034 C2033 1.523 . S
C2035 C2019 1.429 . S
C2035 C2031 1.429 . S
C2035 C2036 1.523 . S
C2036 C2020 1.368 . S
C2036 C2032 1.368 . S
C2036 C2035 1.523 . S
H2037 C2012 0.950 . S
H2038 C2014 0.950 . S
H2039 C2015 0.949 . S
H2040 C2017 0.950 . S
H2041 C2019 0.950 . S
C2042 C2043 1.349 . S
C2042 C2044 1.327 . S
C2042 H2067 0.950 . S
C2043 C2042 1.349 . S
C2043 C2059 1.349 . S
C2044 C2042 1.327 . S
C2044 C2063 1.429 . S
C2044 H2068 0.950 . S
C2045 C2062 1.574 . S
C2045 C2064 1.368 . S
C2045 H2069 0.949 . S
H2046 C2050 0.949 . S
C2047 C2048 1.349 . S
C2047 C2049 1.327 . S
C2047 H2070 0.950 . S
C2048 C2047 1.349 . S
C2048 C2060 1.349 . S
C2049 C2047 1.327 . S
C2049 C2065 1.429 . S
C2049 H2071 0.950 . S
C2050 H2046 0.949 . S
C2050 C2058 1.574 . S
C2050 C2066 1.368 . S
H2051 C2059 0.950 . S
H2052 C2057 0.950 . S
H2053 C2058 0.949 . S
H2054 C2060 0.950 . S
H2055 C2061 0.950 . S
H2056 C2062 0.949 . S
C2057 H2052 0.950 . S
C2057 C2059 1.327 . S
C2057 C2063 1.429 . S
C2058 C2050 1.574 . S
C2058 H2053 0.949 . S
C2058 C2064 1.368 . S
C2059 C2043 1.349 . S
C2059 H2051 0.950 . S
C2059 C2057 1.327 . S
C2060 C2048 1.349 . S
C2060 H2054 0.950 . S
C2060 C2061 1.327 . S
C2061 H2055 0.950 . S
C2061 C2060 1.327 . S
C2061 C2065 1.429 . S
C2062 C2045 1.574 . S
C2062 H2056 0.949 . S
C2062 C2066 1.368 . S
C2063 C2044 1.429 . S
C2063 C2057 1.429 . S
C2063 C2064 1.523 . S
C2064 C2045 1.368 . S
C2064 C2058 1.368 . S
C2064 C2063 1.523 . S
C2065 C2049 1.429 . S
C2065 C2061 1.429 . S
C2065 C2066 1.523 . S
C2066 C2050 1.368 . S
C2066 C2062 1.368 . S
C2066 C2065 1.523 . S
H2067 C2042 0.950 . S
H2068 C2044 0.950 . S
H2069 C2045 0.949 . S
H2070 C2047 0.950 . S
H2071 C2049 0.950 . S
C2072 C2073 1.349 . S
C2072 C2074 1.327 . S
C2072 H2097 0.950 . S
C2073 C2072 1.349 . S
C2073 C2089 1.349 . S
C2074 C2072 1.327 . S
C2074 C2093 1.429 . S
C2074 H2098 0.950 . S
C2075 C2092 1.574 . S
C2075 C2094 1.368 . S
C2075 H2099 0.949 . S
H2076 C2080 0.949 . S
C2077 C2078 1.349 . S
C2077 C2079 1.327 . S
C2077 H2100 0.950 . S
C2078 C2077 1.349 . S
C2078 C2090 1.349 . S
C2079 C2077 1.327 . S
C2079 C2095 1.429 . S
C2079 H2101 0.950 . S
C2080 H2076 0.949 . S
C2080 C2088 1.574 . S
C2080 C2096 1.368 . S
H2081 C2089 0.950 . S
H2082 C2087 0.950 . S
H2083 C2088 0.949 . S
H2084 C2090 0.950 . S
H2085 C2091 0.950 . S
H2086 C2092 0.949 . S
C2087 H2082 0.950 . S
C2087 C2089 1.327 . S
C2087 C2093 1.429 . S
C2088 C2080 1.574 . S
C2088 H2083 0.949 . S
C2088 C2094 1.368 . S
C2089 C2073 1.349 . S
C2089 H2081 0.950 . S
C2089 C2087 1.327 . S
C2090 C2078 1.349 . S
C2090 H2084 0.950 . S
C2090 C2091 1.327 . S
C2091 H2085 0.950 . S
C2091 C2090 1.327 . S
C2091 C2095 1.429 . S
C2092 C2075 1.574 . S
C2092 H2086 0.949 . S
C2092 C2096 1.368 . S
C2093 C2074 1.429 . S
C2093 C2087 1.429 . S
C2093 C2094 1.523 . S
C2094 C2075 1.368 . S
C2094 C2088 1.368 . S
C2094 C2093 1.523 . S
C2095 C2079 1.429 . S
C2095 C2091 1.429 . S
C2095 C2096 1.523 . S
C2096 C2080 1.368 . S
C2096 C2092 1.368 . S
C2096 C2095 1.523 . S
H2097 C2072 0.950 . S
H2098 C2074 0.950 . S
H2099 C2075 0.949 . S
H2100 C2077 0.950 . S
H2101 C2079 0.950 . S
C2102 C2103 1.349 . S
C2102 C2104 1.327 . S
C2102 H2127 0.950 . S
C2103 C2102 1.349 . S
C2103 C2119 1.349 . S
C2104 C2102 1.327 . S
C2104 C2123 1.429 . S
C2104 H2128 0.950 . S
C2105 C2122 1.574 . S
C2105 C2124 1.368 . S
C2105 H2129 0.949 . S
H2106 C2110 0.949 . S
C2107 C2108 1.349 . S
C2107 C2109 1.327 . S
C2107 H2130 0.950 . S
C2108 C2107 1.349 . S
C2108 C2120 1.349 . S
C2109 C2107 1.327 . S
C2109 C2125 1.429 . S
C2109 H2131 0.950 . S
C2110 H2106 0.949 . S
C2110 C2118 1.574 . S
C2110 C2126 1.368 . S
H2111 C2119 0.950 . S
H2112 C2117 0.950 . S
H2113 C2118 0.949 . S
H2114 C2120 0.950 . S
H2115 C2121 0.950 . S
H2116 C2122 0.949 . S
C2117 H2112 0.950 . S
C2117 C2119 1.327 . S
C2117 C2123 1.429 . S
C2118 C2110 1.574 . S
C2118 H2113 0.949 . S
C2118 C2124 1.368 . S
C2119 C2103 1.349 . S
C2119 H2111 0.950 . S
C2119 C2117 1.327 . S
C2120 C2108 1.349 . S
C2120 H2114 0.950 . S
C2120 C2121 1.327 . S
C2121 H2115 0.950 . S
C2121 C2120 1.327 . S
C2121 C2125 1.429 . S
C2122 C2105 1.574 . S
C2122 H2116 0.949 . S
C2122 C2126 1.368 . S
C2123 C2104 1.429 . S
C2123 C2117 1.429 . S
C2123 C2124 1.523 . S
C2124 C2105 1.368 . S
C2124 C2118 1.368 . S
C2124 C2123 1.523 . S
C2125 C2109 1.429 . S
C2125 C2121 1.429 . S
C2125 C2126 1.523 . S
C2126 C2110 1.368 . S
C2126 C2122 1.368 . S
C2126 C2125 1.523 . S
H2127 C2102 0.950 . S
H2128 C2104 0.950 . S
H2129 C2105 0.949 . S
H2130 C2107 0.950 . S
H2131 C2109 0.950 . S
C2132 C2133 1.349 1_655 S
C2132 C2134 1.327 . S
C2132 H2157 0.950 . S
C2133 C2132 1.349 1_455 S
C2133 C2149 1.349 . S
C2134 C2132 1.327 . S
C2134 C2153 1.429 1_655 S
C2134 H2158 0.950 . S
C2135 C2152 1.574 . S
C2135 C2154 1.368 . S
C2135 H2159 0.949 . S
H2136 C2140 0.949 . S
C2137 C2138 1.349 . S
C2137 C2139 1.327 1_554 S
C2137 H2160 0.950 . S
C2138 C2137 1.349 . S
C2138 C2150 1.349 1_455 S
C2139 C2137 1.327 1_556 S
C2139 C2155 1.429 . S
C2139 H2161 0.950 . S
C2140 H2136 0.949 . S
C2140 C2148 1.574 . S
C2140 C2156 1.368 1_655 S
H2141 C2149 0.950 . S
H2142 C2147 0.950 . S
H2143 C2148 0.949 . S
H2144 C2150 0.950 . S
H2145 C2151 0.950 . S
H2146 C2152 0.949 . S
C2147 H2142 0.950 . S
C2147 C2149 1.327 . S
C2147 C2153 1.429 . S
C2148 C2140 1.574 . S
C2148 H2143 0.949 . S
C2148 C2154 1.368 1_655 S
C2149 C2133 1.349 . S
C2149 H2141 0.950 . S
C2149 C2147 1.327 . S
C2150 C2138 1.349 1_655 S
C2150 H2144 0.950 . S
C2150 C2151 1.327 1_554 S
C2151 H2145 0.950 . S
C2151 C2150 1.327 1_556 S
C2151 C2155 1.429 1_655 S
C2152 C2135 1.574 . S
C2152 H2146 0.949 . S
C2152 C2156 1.368 . S
C2153 C2134 1.429 1_455 S
C2153 C2147 1.429 . S
C2153 C2154 1.523 . S
C2154 C2135 1.368 . S
C2154 C2148 1.368 1_455 S
C2154 C2153 1.523 . S
C2155 C2139 1.429 . S
C2155 C2151 1.429 1_455 S
C2155 C2156 1.523 . S
C2156 C2140 1.368 1_455 S
C2156 C2152 1.368 . S
C2156 C2155 1.523 . S
H2157 C2132 0.950 . S
H2158 C2134 0.950 . S
H2159 C2135 0.949 . S
H2160 C2137 0.950 . S
H2161 C2139 0.950 . S
C2162 C2163 1.349 . S
C2162 C2164 1.327 . S
C2162 H2187 0.950 . S
C2163 C2162 1.349 . S
C2163 C2179 1.349 . S
C2164 C2162 1.327 . S
C2164 C2183 1.429 . S
C2164 H2188 0.950 . S
C2165 C2182 1.574 . S
C2165 C2184 1.368 . S
C2165 H2189 0.949 . S
H2166 C2170 0.949 . S
C2167 C2168 1.349 . S
C2167 C2169 1.327 . S
C2167 H2190 0.950 . S
C2168 C2167 1.349 . S
C2168 C2180 1.349 . S
C2169 C2167 1.327 . S
C2169 C2185 1.429 . S
C2169 H2191 0.950 . S
C2170 H2166 0.949 . S
C2170 C2178 1.574 . S
C2170 C2186 1.368 . S
H2171 C2179 0.950 . S
H2172 C2177 0.950 . S
H2173 C2178 0.949 . S
H2174 C2180 0.950 . S
H2175 C2181 0.950 . S
H2176 C2182 0.949 . S
C2177 H2172 0.950 . S
C2177 C2179 1.327 . S
C2177 C2183 1.429 . S
C2178 C2170 1.574 . S
C2178 H2173 0.949 . S
C2178 C2184 1.368 . S
C2179 C2163 1.349 . S
C2179 H2171 0.950 . S
C2179 C2177 1.327 . S
C2180 C2168 1.349 . S
C2180 H2174 0.950 . S
C2180 C2181 1.327 . S
C2181 H2175 0.950 . S
C2181 C2180 1.327 . S
C2181 C2185 1.429 . S
C2182 C2165 1.574 . S
C2182 H2176 0.949 . S
C2182 C2186 1.368 . S
C2183 C2164 1.429 . S
C2183 C2177 1.429 . S
C2183 C2184 1.523 . S
C2184 C2165 1.368 . S
C2184 C2178 1.368 . S
C2184 C2183 1.523 . S
C2185 C2169 1.429 . S
C2185 C2181 1.429 . S
C2185 C2186 1.523 . S
C2186 C2170 1.368 . S
C2186 C2182 1.368 . S
C2186 C2185 1.523 . S
H2187 C2162 0.950 . S
H2188 C2164 0.950 . S
H2189 C2165 0.949 . S
H2190 C2167 0.950 . S
H2191 C2169 0.950 . S
C2192 C2193 1.349 . S
C2192 C2194 1.327 . S
C2192 H2217 0.950 . S
C2193 C2192 1.349 . S
C2193 C2209 1.349 . S
C2194 C2192 1.327 . S
C2194 C2213 1.429 . S
C2194 H2218 0.950 . S
C2195 C2212 1.574 . S
C2195 C2214 1.368 . S
C2195 H2219 0.949 . S
H2196 C2200 0.949 . S
C2197 C2198 1.349 . S
C2197 C2199 1.327 . S
C2197 H2220 0.950 . S
C2198 C2197 1.349 . S
C2198 C2210 1.349 . S
C2199 C2197 1.327 . S
C2199 C2215 1.429 . S
C2199 H2221 0.950 . S
C2200 H2196 0.949 . S
C2200 C2208 1.574 . S
C2200 C2216 1.368 . S
H2201 C2209 0.950 . S
H2202 C2207 0.950 . S
H2203 C2208 0.949 . S
H2204 C2210 0.950 . S
H2205 C2211 0.950 . S
H2206 C2212 0.949 . S
C2207 H2202 0.950 . S
C2207 C2209 1.327 . S
C2207 C2213 1.429 . S
C2208 C2200 1.574 . S
C2208 H2203 0.949 . S
C2208 C2214 1.368 . S
C2209 C2193 1.349 . S
C2209 H2201 0.950 . S
C2209 C2207 1.327 . S
C2210 C2198 1.349 . S
C2210 H2204 0.950 . S
C2210 C2211 1.327 . S
C2211 H2205 0.950 . S
C2211 C2210 1.327 . S
C2211 C2215 1.429 . S
C2212 C2195 1.574 . S
C2212 H2206 0.949 . S
C2212 C2216 1.368 . S
C2213 C2194 1.429 . S
C2213 C2207 1.429 . S
C2213 C2214 1.523 . S
C2214 C2195 1.368 . S
C2214 C2208 1.368 . S
C2214 C2213 1.523 . S
C2215 C2199 1.429 . S
C2215 C2211 1.429 . S
C2215 C2216 1.523 . S
C2216 C2200 1.368 . S
C2216 C2212 1.368 . S
C2216 C2215 1.523 . S
H2217 C2192 0.950 . S
H2218 C2194 0.950 . S
H2219 C2195 0.949 . S
H2220 C2197 0.950 . S
H2221 C2199 0.950 . S
C2222 C2223 1.349 . S
C2222 C2224 1.327 . S
C2222 H2247 0.950 . S
C2223 C2222 1.349 . S
C2223 C2239 1.349 . S
C2224 C2222 1.327 . S
C2224 C2243 1.429 . S
C2224 H2248 0.950 . S
C2225 C2242 1.574 . S
C2225 C2244 1.368 . S
C2225 H2249 0.949 . S
H2226 C2230 0.949 . S
C2227 C2228 1.349 . S
C2227 C2229 1.327 . S
C2227 H2250 0.950 . S
C2228 C2227 1.349 . S
C2228 C2240 1.349 . S
C2229 C2227 1.327 . S
C2229 C2245 1.429 . S
C2229 H2251 0.950 . S
C2230 H2226 0.949 . S
C2230 C2238 1.574 . S
C2230 C2246 1.368 . S
H2231 C2239 0.950 . S
H2232 C2237 0.950 . S
H2233 C2238 0.949 . S
H2234 C2240 0.950 . S
H2235 C2241 0.950 . S
H2236 C2242 0.949 . S
C2237 H2232 0.950 . S
C2237 C2239 1.327 . S
C2237 C2243 1.429 . S
C2238 C2230 1.574 . S
C2238 H2233 0.949 . S
C2238 C2244 1.368 . S
C2239 C2223 1.349 . S
C2239 H2231 0.950 . S
C2239 C2237 1.327 . S
C2240 C2228 1.349 . S
C2240 H2234 0.950 . S
C2240 C2241 1.327 . S
C2241 H2235 0.950 . S
C2241 C2240 1.327 . S
C2241 C2245 1.429 . S
C2242 C2225 1.574 . S
C2242 H2236 0.949 . S
C2242 C2246 1.368 . S
C2243 C2224 1.429 . S
C2243 C2237 1.429 . S
C2243 C2244 1.523 . S
C2244 C2225 1.368 . S
C2244 C2238 1.368 . S
C2244 C2243 1.523 . S
C2245 C2229 1.429 . S
C2245 C2241 1.429 . S
C2245 C2246 1.523 . S
C2246 C2230 1.368 . S
C2246 C2242 1.368 . S
C2246 C2245 1.523 . S
H2247 C2222 0.950 . S
H2248 C2224 0.950 . S
H2249 C2225 0.949 . S
H2250 C2227 0.950 . S
H2251 C2229 0.950 . S
C2252 C2253 1.349 . S
C2252 C2254 1.327 . S
C2252 H2277 0.950 . S
C2253 C2252 1.349 . S
C2253 C2269 1.349 . S
C2254 C2252 1.327 . S
C2254 C2273 1.429 . S
C2254 H2278 0.950 . S
C2255 C2272 1.574 . S
C2255 C2274 1.368 . S
C2255 H2279 0.950 . S
H2256 C2260 0.949 . S
C2257 C2258 1.349 . S
C2257 C2259 1.327 . S
C2257 H2280 0.949 1_455 S
C2258 C2257 1.349 . S
C2258 C2270 1.349 . S
C2259 C2257 1.327 . S
C2259 C2275 1.429 . S
C2259 H2281 0.948 1_455 S
C2260 H2256 0.949 . S
C2260 C2268 1.574 . S
C2260 C2276 1.368 . S
H2261 C2269 0.959 . S
H2262 C2267 0.951 . S
H2263 C2268 0.949 . S
H2264 C2270 0.950 . S
H2265 C2271 0.950 . S
H2266 C2272 0.949 1_655 S
C2267 H2262 0.951 . S
C2267 C2269 1.327 . S
C2267 C2273 1.429 . S
C2268 C2260 1.574 . S
C2268 H2263 0.949 . S
C2268 C2274 1.368 . S
C2269 C2253 1.349 . S
C2269 H2261 0.959 . S
C2269 C2267 1.327 . S
C2270 C2258 1.349 . S
C2270 H2264 0.950 . S
C2270 C2271 1.327 . S
C2271 H2265 0.950 . S
C2271 C2270 1.327 . S
C2271 C2275 1.429 . S
C2272 C2255 1.574 . S
C2272 H2266 0.949 1_455 S
C2272 C2276 1.368 . S
C2273 C2254 1.429 . S
C2273 C2267 1.429 . S
C2273 C2274 1.523 . S
C2274 C2255 1.368 . S
C2274 C2268 1.368 . S
C2274 C2273 1.523 . S
C2275 C2259 1.429 . S
C2275 C2271 1.429 . S
C2275 C2276 1.523 . S
C2276 C2260 1.368 . S
C2276 C2272 1.368 . S
C2276 C2275 1.523 . S
H2277 C2252 0.950 . S
H2278 C2254 0.950 . S
H2279 C2255 0.950 . S
H2280 C2257 0.949 1_655 S
H2281 C2259 0.948 1_655 S
C2282 C2283 1.349 . S
C2282 C2284 1.327 . S
C2282 H2307 0.950 . S
C2283 C2282 1.349 . S
C2283 C2299 1.349 . S
C2284 C2282 1.327 . S
C2284 C2303 1.429 . S
C2284 H2308 0.950 . S
C2285 C2302 1.574 . S
C2285 C2304 1.368 . S
C2285 H2309 0.949 . S
H2286 C2290 0.949 . S
C2287 C2288 1.349 . S
C2287 C2289 1.327 . S
C2287 H2310 0.950 . S
C2288 C2287 1.349 . S
C2288 C2300 1.349 . S
C2289 C2287 1.327 . S
C2289 C2305 1.429 . S
C2289 H2311 0.950 . S
C2290 H2286 0.949 . S
C2290 C2298 1.574 . S
C2290 C2306 1.368 . S
H2291 C2299 0.950 . S
H2292 C2297 0.950 . S
H2293 C2298 0.949 . S
H2294 C2300 0.950 . S
H2295 C2301 0.950 . S
H2296 C2302 0.949 . S
C2297 H2292 0.950 . S
C2297 C2299 1.327 . S
C2297 C2303 1.429 . S
C2298 C2290 1.574 . S
C2298 H2293 0.949 . S
C2298 C2304 1.368 . S
C2299 C2283 1.349 . S
C2299 H2291 0.950 . S
C2299 C2297 1.327 . S
C2300 C2288 1.349 . S
C2300 H2294 0.950 . S
C2300 C2301 1.327 . S
C2301 H2295 0.950 . S
C2301 C2300 1.327 . S
C2301 C2305 1.429 . S
C2302 C2285 1.574 . S
C2302 H2296 0.949 . S
C2302 C2306 1.368 . S
C2303 C2284 1.429 . S
C2303 C2297 1.429 . S
C2303 C2304 1.523 . S
C2304 C2285 1.368 . S
C2304 C2298 1.368 . S
C2304 C2303 1.523 . S
C2305 C2289 1.429 . S
C2305 C2301 1.429 . S
C2305 C2306 1.523 . S
C2306 C2290 1.368 . S
C2306 C2302 1.368 . S
C2306 C2305 1.523 . S
H2307 C2282 0.950 . S
H2308 C2284 0.950 . S
H2309 C2285 0.949 . S
H2310 C2287 0.950 . S
H2311 C2289 0.950 . S
C2312 C2313 1.349 . S
C2312 C2314 1.327 . S
C2312 H2337 0.950 . S
C2313 C2312 1.349 . S
C2313 C2329 1.349 . S
C2314 C2312 1.327 . S
C2314 C2333 1.429 . S
C2314 H2338 0.950 . S
C2315 C2332 1.574 . S
C2315 C2334 1.368 . S
C2315 H2339 0.949 . S
H2316 C2320 0.949 . S
C2317 C2318 1.349 . S
C2317 C2319 1.327 . S
C2317 H2340 0.950 . S
C2318 C2317 1.349 . S
C2318 C2330 1.349 . S
C2319 C2317 1.327 . S
C2319 C2335 1.429 . S
C2319 H2341 0.950 . S
C2320 H2316 0.949 . S
C2320 C2328 1.574 . S
C2320 C2336 1.368 . S
H2321 C2329 0.950 . S
H2322 C2327 0.950 . S
H2323 C2328 0.949 . S
H2324 C2330 0.950 . S
H2325 C2331 0.950 . S
H2326 C2332 0.949 . S
C2327 H2322 0.950 . S
C2327 C2329 1.327 . S
C2327 C2333 1.429 . S
C2328 C2320 1.574 . S
C2328 H2323 0.949 . S
C2328 C2334 1.368 . S
C2329 C2313 1.349 . S
C2329 H2321 0.950 . S
C2329 C2327 1.327 . S
C2330 C2318 1.349 . S
C2330 H2324 0.950 . S
C2330 C2331 1.327 . S
C2331 H2325 0.950 . S
C2331 C2330 1.327 . S
C2331 C2335 1.429 . S
C2332 C2315 1.574 . S
C2332 H2326 0.949 . S
C2332 C2336 1.368 . S
C2333 C2314 1.429 . S
C2333 C2327 1.429 . S
C2333 C2334 1.523 . S
C2334 C2315 1.368 . S
C2334 C2328 1.368 . S
C2334 C2333 1.523 . S
C2335 C2319 1.429 . S
C2335 C2331 1.429 . S
C2335 C2336 1.523 . S
C2336 C2320 1.368 . S
C2336 C2332 1.368 . S
C2336 C2335 1.523 . S
H2337 C2312 0.950 . S
H2338 C2314 0.950 . S
H2339 C2315 0.949 . S
H2340 C2317 0.950 . S
H2341 C2319 0.950 . S
C2342 C2343 1.349 . S
C2342 C2344 1.327 . S
C2342 H2367 0.950 . S
C2343 C2342 1.349 . S
C2343 C2359 1.349 . S
C2344 C2342 1.327 . S
C2344 C2363 1.429 . S
C2344 H2368 0.950 . S
C2345 C2362 1.574 . S
C2345 C2364 1.368 . S
C2345 H2369 0.949 . S
H2346 C2350 0.949 . S
C2347 C2348 1.349 . S
C2347 C2349 1.327 . S
C2347 H2370 0.950 . S
C2348 C2347 1.349 . S
C2348 C2360 1.349 . S
C2349 C2347 1.327 . S
C2349 C2365 1.429 . S
C2349 H2371 0.950 . S
C2350 H2346 0.949 . S
C2350 C2358 1.574 . S
C2350 C2366 1.368 . S
H2351 C2359 0.950 . S
H2352 C2357 0.950 . S
H2353 C2358 0.949 . S
H2354 C2360 0.950 . S
H2355 C2361 0.950 . S
H2356 C2362 0.949 . S
C2357 H2352 0.950 . S
C2357 C2359 1.327 . S
C2357 C2363 1.429 . S
C2358 C2350 1.574 . S
C2358 H2353 0.949 . S
C2358 C2364 1.368 . S
C2359 C2343 1.349 . S
C2359 H2351 0.950 . S
C2359 C2357 1.327 . S
C2360 C2348 1.349 . S
C2360 H2354 0.950 . S
C2360 C2361 1.327 . S
C2361 H2355 0.950 . S
C2361 C2360 1.327 . S
C2361 C2365 1.429 . S
C2362 C2345 1.574 . S
C2362 H2356 0.949 . S
C2362 C2366 1.368 . S
C2363 C2344 1.429 . S
C2363 C2357 1.429 . S
C2363 C2364 1.523 . S
C2364 C2345 1.368 . S
C2364 C2358 1.368 . S
C2364 C2363 1.523 . S
C2365 C2349 1.429 . S
C2365 C2361 1.429 . S
C2365 C2366 1.523 . S
C2366 C2350 1.368 . S
C2366 C2362 1.368 . S
C2366 C2365 1.523 . S
H2367 C2342 0.950 . S
H2368 C2344 0.950 . S
H2369 C2345 0.949 . S
H2370 C2347 0.950 . S
H2371 C2349 0.950 . S
C2372 C2373 1.349 . S
C2372 C2374 1.327 . S
C2372 H2397 0.950 . S
C2373 C2372 1.349 . S
C2373 C2389 1.349 . S
C2374 C2372 1.327 . S
C2374 C2393 1.429 . S
C2374 H2398 0.950 . S
C2375 C2392 1.574 . S
C2375 C2394 1.368 . S
C2375 H2399 0.949 . S
H2376 C2380 0.949 . S
C2377 C2378 1.349 . S
C2377 C2379 1.327 . S
C2377 H2400 0.950 . S
C2378 C2377 1.349 . S
C2378 C2390 1.349 . S
C2379 C2377 1.327 . S
C2379 C2395 1.429 . S
C2379 H2401 0.950 . S
C2380 H2376 0.949 . S
C2380 C2388 1.574 . S
C2380 C2396 1.368 . S
H2381 C2389 0.950 . S
H2382 C2387 0.950 . S
H2383 C2388 0.949 . S
H2384 C2390 0.950 . S
H2385 C2391 0.950 . S
H2386 C2392 0.949 . S
C2387 H2382 0.950 . S
C2387 C2389 1.327 . S
C2387 C2393 1.429 . S
C2388 C2380 1.574 . S
C2388 H2383 0.949 . S
C2388 C2394 1.368 . S
C2389 C2373 1.349 . S
C2389 H2381 0.950 . S
C2389 C2387 1.327 . S
C2390 C2378 1.349 . S
C2390 H2384 0.950 . S
C2390 C2391 1.327 . S
C2391 H2385 0.950 . S
C2391 C2390 1.327 . S
C2391 C2395 1.429 . S
C2392 C2375 1.574 . S
C2392 H2386 0.949 . S
C2392 C2396 1.368 . S
C2393 C2374 1.429 . S
C2393 C2387 1.429 . S
C2393 C2394 1.523 . S
C2394 C2375 1.368 . S
C2394 C2388 1.368 . S
C2394 C2393 1.523 . S
C2395 C2379 1.429 . S
C2395 C2391 1.429 . S
C2395 C2396 1.523 . S
C2396 C2380 1.368 . S
C2396 C2392 1.368 . S
C2396 C2395 1.523 . S
H2397 C2372 0.950 . S
H2398 C2374 0.950 . S
H2399 C2375 0.949 . S
H2400 C2377 0.950 . S
H2401 C2379 0.950 . S
C2402 C2403 1.349 . S
C2402 C2404 1.327 . S
C2402 H2427 0.950 . S
C2403 C2402 1.349 . S
C2403 C2419 1.349 . S
C2404 C2402 1.327 . S
C2404 C2423 1.429 . S
C2404 H2428 0.950 . S
C2405 C2422 1.574 . S
C2405 C2424 1.368 . S
C2405 H2429 0.949 . S
H2406 C2410 0.949 . S
C2407 C2408 1.349 . S
C2407 C2409 1.327 . S
C2407 H2430 0.950 . S
C2408 C2407 1.349 . S
C2408 C2420 1.349 . S
C2409 C2407 1.327 . S
C2409 C2425 1.429 . S
C2409 H2431 0.950 . S
C2410 H2406 0.949 . S
C2410 C2418 1.574 . S
C2410 C2426 1.368 . S
H2411 C2419 0.950 . S
H2412 C2417 0.950 . S
H2413 C2418 0.949 . S
H2414 C2420 0.950 . S
H2415 C2421 0.950 . S
H2416 C2422 0.949 . S
C2417 H2412 0.950 . S
C2417 C2419 1.327 . S
C2417 C2423 1.429 . S
C2418 C2410 1.574 . S
C2418 H2413 0.949 . S
C2418 C2424 1.368 . S
C2419 C2403 1.349 . S
C2419 H2411 0.950 . S
C2419 C2417 1.327 . S
C2420 C2408 1.349 . S
C2420 H2414 0.950 . S
C2420 C2421 1.327 . S
C2421 H2415 0.950 . S
C2421 C2420 1.327 . S
C2421 C2425 1.429 . S
C2422 C2405 1.574 . S
C2422 H2416 0.949 . S
C2422 C2426 1.368 . S
C2423 C2404 1.429 . S
C2423 C2417 1.429 . S
C2423 C2424 1.523 . S
C2424 C2405 1.368 . S
C2424 C2418 1.368 . S
C2424 C2423 1.523 . S
C2425 C2409 1.429 . S
C2425 C2421 1.429 . S
C2425 C2426 1.523 . S
C2426 C2410 1.368 . S
C2426 C2422 1.368 . S
C2426 C2425 1.523 . S
H2427 C2402 0.950 . S
H2428 C2404 0.950 . S
H2429 C2405 0.949 . S
H2430 C2407 0.950 . S
H2431 C2409 0.950 . S
C2432 C2433 1.349 . S
C2432 C2434 1.327 . S
C2432 H2457 0.950 . S
C2433 C2432 1.349 . S
C2433 C2449 1.349 . S
C2434 C2432 1.327 . S
C2434 C2453 1.429 . S
C2434 H2458 0.950 . S
C2435 C2452 1.574 . S
C2435 C2454 1.368 . S
C2435 H2459 0.949 . S
H2436 C2440 0.949 . S
C2437 C2438 1.349 . S
C2437 C2439 1.327 . S
C2437 H2460 0.950 . S
C2438 C2437 1.349 . S
C2438 C2450 1.349 . S
C2439 C2437 1.327 . S
C2439 C2455 1.429 . S
C2439 H2461 0.950 . S
C2440 H2436 0.949 . S
C2440 C2448 1.574 . S
C2440 C2456 1.368 . S
H2441 C2449 0.950 . S
H2442 C2447 0.950 . S
H2443 C2448 0.949 . S
H2444 C2450 0.950 . S
H2445 C2451 0.950 . S
H2446 C2452 0.949 . S
C2447 H2442 0.950 . S
C2447 C2449 1.327 . S
C2447 C2453 1.429 . S
C2448 C2440 1.574 . S
C2448 H2443 0.949 . S
C2448 C2454 1.368 . S
C2449 C2433 1.349 . S
C2449 H2441 0.950 . S
C2449 C2447 1.327 . S
C2450 C2438 1.349 . S
C2450 H2444 0.950 . S
C2450 C2451 1.327 . S
C2451 H2445 0.950 . S
C2451 C2450 1.327 . S
C2451 C2455 1.429 . S
C2452 C2435 1.574 . S
C2452 H2446 0.949 . S
C2452 C2456 1.368 . S
C2453 C2434 1.429 . S
C2453 C2447 1.429 . S
C2453 C2454 1.523 . S
C2454 C2435 1.368 . S
C2454 C2448 1.368 . S
C2454 C2453 1.523 . S
C2455 C2439 1.429 . S
C2455 C2451 1.429 . S
C2455 C2456 1.523 . S
C2456 C2440 1.368 . S
C2456 C2452 1.368 . S
C2456 C2455 1.523 . S
H2457 C2432 0.950 . S
H2458 C2434 0.950 . S
H2459 C2435 0.949 . S
H2460 C2437 0.950 . S
H2461 C2439 0.950 . S
C2462 C2463 1.349 . S
C2462 C2464 1.327 . S
C2462 H2487 0.950 . S
C2463 C2462 1.349 . S
C2463 C2479 1.349 . S
C2464 C2462 1.327 . S
C2464 C2483 1.429 . S
C2464 H2488 0.950 . S
C2465 C2482 1.574 . S
C2465 C2484 1.368 . S
C2465 H2489 0.949 . S
H2466 C2470 0.949 . S
C2467 C2468 1.349 . S
C2467 C2469 1.327 . S
C2467 H2490 0.950 . S
C2468 C2467 1.349 . S
C2468 C2480 1.349 . S
C2469 C2467 1.327 . S
C2469 C2485 1.429 . S
C2469 H2491 0.950 . S
C2470 H2466 0.949 . S
C2470 C2478 1.574 . S
C2470 C2486 1.368 . S
H2471 C2479 0.950 . S
H2472 C2477 0.950 . S
H2473 C2478 0.949 . S
H2474 C2480 0.950 . S
H2475 C2481 0.950 . S
H2476 C2482 0.949 . S
C2477 H2472 0.950 . S
C2477 C2479 1.327 . S
C2477 C2483 1.429 . S
C2478 C2470 1.574 . S
C2478 H2473 0.949 . S
C2478 C2484 1.368 . S
C2479 C2463 1.349 . S
C2479 H2471 0.950 . S
C2479 C2477 1.327 . S
C2480 C2468 1.349 . S
C2480 H2474 0.950 . S
C2480 C2481 1.327 . S
C2481 H2475 0.950 . S
C2481 C2480 1.327 . S
C2481 C2485 1.429 . S
C2482 C2465 1.574 . S
C2482 H2476 0.949 . S
C2482 C2486 1.368 . S
C2483 C2464 1.429 . S
C2483 C2477 1.429 . S
C2483 C2484 1.523 . S
C2484 C2465 1.368 . S
C2484 C2478 1.368 . S
C2484 C2483 1.523 . S
C2485 C2469 1.429 . S
C2485 C2481 1.429 . S
C2485 C2486 1.523 . S
C2486 C2470 1.368 . S
C2486 C2482 1.368 . S
C2486 C2485 1.523 . S
H2487 C2462 0.950 . S
H2488 C2464 0.950 . S
H2489 C2465 0.949 . S
H2490 C2467 0.950 . S
H2491 C2469 0.950 . S
C2492 C2493 1.349 . S
C2492 C2494 1.327 . S
C2492 H2517 0.950 . S
C2493 C2492 1.349 . S
C2493 C2509 1.349 . S
C2494 C2492 1.327 . S
C2494 C2513 1.429 . S
C2494 H2518 0.950 . S
C2495 C2512 1.574 . S
C2495 C2514 1.368 . S
C2495 H2519 0.949 . S
H2496 C2500 0.949 . S
C2497 C2498 1.349 . S
C2497 C2499 1.327 . S
C2497 H2520 0.950 . S
C2498 C2497 1.349 . S
C2498 C2510 1.349 . S
C2499 C2497 1.327 . S
C2499 C2515 1.429 . S
C2499 H2521 0.950 . S
C2500 H2496 0.949 . S
C2500 C2508 1.574 . S
C2500 C2516 1.368 . S
H2501 C2509 0.950 . S
H2502 C2507 0.950 . S
H2503 C2508 0.949 . S
H2504 C2510 0.950 . S
H2505 C2511 0.950 . S
H2506 C2512 0.949 . S
C2507 H2502 0.950 . S
C2507 C2509 1.327 . S
C2507 C2513 1.429 . S
C2508 C2500 1.574 . S
C2508 H2503 0.949 . S
C2508 C2514 1.368 . S
C2509 C2493 1.349 . S
C2509 H2501 0.950 . S
C2509 C2507 1.327 . S
C2510 C2498 1.349 . S
C2510 H2504 0.950 . S
C2510 C2511 1.327 . S
C2511 H2505 0.950 . S
C2511 C2510 1.327 . S
C2511 C2515 1.429 . S
C2512 C2495 1.574 . S
C2512 H2506 0.949 . S
C2512 C2516 1.368 . S
C2513 C2494 1.429 . S
C2513 C2507 1.429 . S
C2513 C2514 1.523 . S
C2514 C2495 1.368 . S
C2514 C2508 1.368 . S
C2514 C2513 1.523 . S
C2515 C2499 1.429 . S
C2515 C2511 1.429 . S
C2515 C2516 1.523 . S
C2516 C2500 1.368 . S
C2516 C2512 1.368 . S
C2516 C2515 1.523 . S
H2517 C2492 0.950 . S
H2518 C2494 0.950 . S
H2519 C2495 0.949 . S
H2520 C2497 0.950 . S
H2521 C2499 0.950 . S
C2522 C2523 1.349 . S
C2522 C2524 1.327 . S
C2522 H2547 0.950 . S
C2523 C2522 1.349 . S
C2523 C2539 1.349 . S
C2524 C2522 1.327 . S
C2524 C2543 1.429 . S
C2524 H2548 0.950 . S
C2525 C2542 1.574 . S
C2525 C2544 1.368 . S
C2525 H2549 0.949 . S
H2526 C2530 0.949 . S
C2527 C2528 1.349 . S
C2527 C2529 1.327 . S
C2527 H2550 0.950 . S
C2528 C2527 1.349 . S
C2528 C2540 1.349 . S
C2529 C2527 1.327 . S
C2529 C2545 1.429 . S
C2529 H2551 0.950 . S
C2530 H2526 0.949 . S
C2530 C2538 1.574 . S
C2530 C2546 1.368 . S
H2531 C2539 0.950 . S
H2532 C2537 0.950 . S
H2533 C2538 0.949 . S
H2534 C2540 0.950 . S
H2535 C2541 0.950 . S
H2536 C2542 0.949 . S
C2537 H2532 0.950 . S
C2537 C2539 1.327 . S
C2537 C2543 1.429 . S
C2538 C2530 1.574 . S
C2538 H2533 0.949 . S
C2538 C2544 1.368 . S
C2539 C2523 1.349 . S
C2539 H2531 0.950 . S
C2539 C2537 1.327 . S
C2540 C2528 1.349 . S
C2540 H2534 0.950 . S
C2540 C2541 1.327 . S
C2541 H2535 0.950 . S
C2541 C2540 1.327 . S
C2541 C2545 1.429 . S
C2542 C2525 1.574 . S
C2542 H2536 0.949 . S
C2542 C2546 1.368 . S
C2543 C2524 1.429 . S
C2543 C2537 1.429 . S
C2543 C2544 1.523 . S
C2544 C2525 1.368 . S
C2544 C2538 1.368 . S
C2544 C2543 1.523 . S
C2545 C2529 1.429 . S
C2545 C2541 1.429 . S
C2545 C2546 1.523 . S
C2546 C2530 1.368 . S
C2546 C2542 1.368 . S
C2546 C2545 1.523 . S
H2547 C2522 0.950 . S
H2548 C2524 0.950 . S
H2549 C2525 0.949 . S
H2550 C2527 0.950 . S
H2551 C2529 0.950 . S
C2552 C2553 1.349 . S
C2552 C2554 1.327 . S
C2552 H2577 0.950 . S
C2553 C2552 1.349 . S
C2553 C2569 1.349 . S
C2554 C2552 1.327 . S
C2554 C2573 1.429 . S
C2554 H2578 0.950 . S
C2555 C2572 1.574 . S
C2555 C2574 1.368 . S
C2555 H2579 0.949 . S
H2556 C2560 0.949 . S
C2557 C2558 1.349 . S
C2557 C2559 1.327 . S
C2557 H2580 0.950 . S
C2558 C2557 1.349 . S
C2558 C2570 1.349 . S
C2559 C2557 1.327 . S
C2559 C2575 1.429 . S
C2559 H2581 0.950 . S
C2560 H2556 0.949 . S
C2560 C2568 1.574 . S
C2560 C2576 1.368 . S
H2561 C2569 0.950 . S
H2562 C2567 0.950 . S
H2563 C2568 0.949 . S
H2564 C2570 0.950 . S
H2565 C2571 0.950 . S
H2566 C2572 0.949 . S
C2567 H2562 0.950 . S
C2567 C2569 1.327 . S
C2567 C2573 1.429 . S
C2568 C2560 1.574 . S
C2568 H2563 0.949 . S
C2568 C2574 1.368 . S
C2569 C2553 1.349 . S
C2569 H2561 0.950 . S
C2569 C2567 1.327 . S
C2570 C2558 1.349 . S
C2570 H2564 0.950 . S
C2570 C2571 1.327 . S
C2571 H2565 0.950 . S
C2571 C2570 1.327 . S
C2571 C2575 1.429 . S
C2572 C2555 1.574 . S
C2572 H2566 0.949 . S
C2572 C2576 1.368 . S
C2573 C2554 1.429 . S
C2573 C2567 1.429 . S
C2573 C2574 1.523 . S
C2574 C2555 1.368 . S
C2574 C2568 1.368 . S
C2574 C2573 1.523 . S
C2575 C2559 1.429 . S
C2575 C2571 1.429 . S
C2575 C2576 1.523 . S
C2576 C2560 1.368 . S
C2576 C2572 1.368 . S
C2576 C2575 1.523 . S
H2577 C2552 0.950 . S
H2578 C2554 0.950 . S
H2579 C2555 0.949 . S
H2580 C2557 0.950 . S
H2581 C2559 0.950 . S
C2582 C2583 1.349 . S
C2582 C2584 1.327 . S
C2582 H2607 0.950 . S
C2583 C2582 1.349 . S
C2583 C2599 1.349 . S
C2584 C2582 1.327 . S
C2584 C2603 1.429 . S
C2584 H2608 0.950 . S
C2585 C2602 1.574 . S
C2585 C2604 1.368 . S
C2585 H2609 0.949 . S
H2586 C2590 0.949 . S
C2587 C2588 1.349 . S
C2587 C2589 1.327 . S
C2587 H2610 0.950 . S
C2588 C2587 1.349 . S
C2588 C2600 1.349 . S
C2589 C2587 1.327 . S
C2589 C2605 1.429 . S
C2589 H2611 0.950 . S
C2590 H2586 0.949 . S
C2590 C2598 1.574 . S
C2590 C2606 1.368 . S
H2591 C2599 0.950 . S
H2592 C2597 0.950 . S
H2593 C2598 0.949 . S
H2594 C2600 0.950 . S
H2595 C2601 0.950 . S
H2596 C2602 0.949 . S
C2597 H2592 0.950 . S
C2597 C2599 1.327 . S
C2597 C2603 1.429 . S
C2598 C2590 1.574 . S
C2598 H2593 0.949 . S
C2598 C2604 1.368 . S
C2599 C2583 1.349 . S
C2599 H2591 0.950 . S
C2599 C2597 1.327 . S
C2600 C2588 1.349 . S
C2600 H2594 0.950 . S
C2600 C2601 1.327 . S
C2601 H2595 0.950 . S
C2601 C2600 1.327 . S
C2601 C2605 1.429 . S
C2602 C2585 1.574 . S
C2602 H2596 0.949 . S
C2602 C2606 1.368 . S
C2603 C2584 1.429 . S
C2603 C2597 1.429 . S
C2603 C2604 1.523 . S
C2604 C2585 1.368 . S
C2604 C2598 1.368 . S
C2604 C2603 1.523 . S
C2605 C2589 1.429 . S
C2605 C2601 1.429 . S
C2605 C2606 1.523 . S
C2606 C2590 1.368 . S
C2606 C2602 1.368 . S
C2606 C2605 1.523 . S
H2607 C2582 0.950 . S
H2608 C2584 0.950 . S
H2609 C2585 0.949 . S
H2610 C2587 0.950 . S
H2611 C2589 0.950 . S
C2612 C2613 1.349 . S
C2612 C2614 1.327 . S
C2612 H2637 0.950 . S
C2613 C2612 1.349 . S
C2613 C2629 1.349 . S
C2614 C2612 1.327 . S
C2614 C2633 1.429 . S
C2614 H2638 0.950 . S
C2615 C2632 1.574 . S
C2615 C2634 1.368 . S
C2615 H2639 0.949 . S
H2616 C2620 0.949 . S
C2617 C2618 1.349 . S
C2617 C2619 1.327 . S
C2617 H2640 0.950 . S
C2618 C2617 1.349 . S
C2618 C2630 1.349 . S
C2619 C2617 1.327 . S
C2619 C2635 1.429 . S
C2619 H2641 0.950 . S
C2620 H2616 0.949 . S
C2620 C2628 1.574 . S
C2620 C2636 1.368 . S
H2621 C2629 0.950 . S
H2622 C2627 0.950 . S
H2623 C2628 0.949 . S
H2624 C2630 0.950 . S
H2625 C2631 0.950 . S
H2626 C2632 0.949 . S
C2627 H2622 0.950 . S
C2627 C2629 1.327 . S
C2627 C2633 1.429 . S
C2628 C2620 1.574 . S
C2628 H2623 0.949 . S
C2628 C2634 1.368 . S
C2629 C2613 1.349 . S
C2629 H2621 0.950 . S
C2629 C2627 1.327 . S
C2630 C2618 1.349 . S
C2630 H2624 0.950 . S
C2630 C2631 1.327 . S
C2631 H2625 0.950 . S
C2631 C2630 1.327 . S
C2631 C2635 1.429 . S
C2632 C2615 1.574 . S
C2632 H2626 0.949 . S
C2632 C2636 1.368 . S
C2633 C2614 1.429 . S
C2633 C2627 1.429 . S
C2633 C2634 1.523 . S
C2634 C2615 1.368 . S
C2634 C2628 1.368 . S
C2634 C2633 1.523 . S
C2635 C2619 1.429 . S
C2635 C2631 1.429 . S
C2635 C2636 1.523 . S
C2636 C2620 1.368 . S
C2636 C2632 1.368 . S
C2636 C2635 1.523 . S
H2637 C2612 0.950 . S
H2638 C2614 0.950 . S
H2639 C2615 0.949 . S
H2640 C2617 0.950 . S
H2641 C2619 0.950 . S
C2642 C2643 1.349 . S
C2642 C2644 1.327 . S
C2642 H2667 0.950 . S
C2643 C2642 1.349 . S
C2643 C2659 1.349 . S
C2644 C2642 1.327 . S
C2644 C2663 1.429 . S
C2644 H2668 0.950 . S
C2645 C2662 1.574 . S
C2645 C2664 1.368 . S
C2645 H2669 0.960 . S
H2646 C2650 0.949 . S
C2647 C2648 1.346 1_566 S
C2647 C2649 1.318 1_556 S
C2647 H2670 0.955 . S
C2648 C2647 1.346 1_544 S
C2648 C2660 1.349 . S
C2649 C2647 1.318 1_554 S
C2649 C2665 1.447 . S
C2649 H2671 0.941 1_554 S
C2650 H2646 0.949 . S
C2650 C2658 1.574 . S
C2650 C2666 1.368 . S
H2651 C2659 0.950 . S
H2652 C2657 0.950 . S
H2653 C2658 0.949 . S
H2654 C2660 0.950 . S
H2655 C2661 0.950 1_545 S
H2656 C2662 0.949 1_556 S
C2657 H2652 0.950 . S
C2657 C2659 1.327 . S
C2657 C2663 1.429 . S
C2658 C2650 1.574 . S
C2658 H2653 0.949 . S
C2658 C2664 1.368 . S
C2659 C2643 1.349 . S
C2659 H2651 0.950 . S
C2659 C2657 1.327 . S
C2660 C2648 1.349 . S
C2660 H2654 0.950 . S
C2660 C2661 1.327 1_545 S
C2661 H2655 0.950 1_565 S
C2661 C2660 1.327 1_565 S
C2661 C2665 1.429 . S
C2662 C2645 1.574 . S
C2662 H2656 0.949 1_554 S
C2662 C2666 1.368 . S
C2663 C2644 1.429 . S
C2663 C2657 1.429 . S
C2663 C2664 1.523 . S
C2664 C2645 1.368 . S
C2664 C2658 1.368 . S
C2664 C2663 1.523 . S
C2665 C2649 1.447 . S
C2665 C2661 1.429 . S
C2665 C2666 1.523 . S
C2666 C2650 1.368 . S
C2666 C2662 1.368 . S
C2666 C2665 1.523 . S
H2667 C2642 0.950 . S
H2668 C2644 0.950 . S
H2669 C2645 0.960 . S
H2670 C2647 0.955 . S
H2671 C2649 0.941 1_556 S
C2672 C2673 1.349 . S
C2672 C2674 1.327 . S
C2672 H2697 0.950 . S
C2673 C2672 1.349 . S
C2673 C2689 1.349 . S
C2674 C2672 1.327 . S
C2674 C2693 1.429 . S
C2674 H2698 0.950 . S
C2675 C2692 1.574 . S
C2675 C2694 1.368 . S
C2675 H2699 0.949 . S
H2676 C2680 0.949 . S
C2677 C2678 1.349 . S
C2677 C2679 1.327 . S
C2677 H2700 0.950 . S
C2678 C2677 1.349 . S
C2678 C2690 1.349 . S
C2679 C2677 1.327 . S
C2679 C2695 1.429 . S
C2679 H2701 0.950 . S
C2680 H2676 0.949 . S
C2680 C2688 1.574 . S
C2680 C2696 1.368 . S
H2681 C2689 0.950 . S
H2682 C2687 0.950 . S
H2683 C2688 0.949 . S
H2684 C2690 0.950 . S
H2685 C2691 0.950 . S
H2686 C2692 0.949 . S
C2687 H2682 0.950 . S
C2687 C2689 1.327 . S
C2687 C2693 1.429 . S
C2688 C2680 1.574 . S
C2688 H2683 0.949 . S
C2688 C2694 1.368 . S
C2689 C2673 1.349 . S
C2689 H2681 0.950 . S
C2689 C2687 1.327 . S
C2690 C2678 1.349 . S
C2690 H2684 0.950 . S
C2690 C2691 1.327 . S
C2691 H2685 0.950 . S
C2691 C2690 1.327 . S
C2691 C2695 1.429 . S
C2692 C2675 1.574 . S
C2692 H2686 0.949 . S
C2692 C2696 1.368 . S
C2693 C2674 1.429 . S
C2693 C2687 1.429 . S
C2693 C2694 1.523 . S
C2694 C2675 1.368 . S
C2694 C2688 1.368 . S
C2694 C2693 1.523 . S
C2695 C2679 1.429 . S
C2695 C2691 1.429 . S
C2695 C2696 1.523 . S
C2696 C2680 1.368 . S
C2696 C2692 1.368 . S
C2696 C2695 1.523 . S
H2697 C2672 0.950 . S
H2698 C2674 0.950 . S
H2699 C2675 0.949 . S
H2700 C2677 0.950 . S
H2701 C2679 0.950 . S
C2702 C2703 1.349 . S
C2702 C2704 1.327 . S
C2702 H2727 0.950 . S
C2703 C2702 1.349 . S
C2703 C2719 1.349 1_554 S
C2704 C2702 1.327 . S
C2704 C2723 1.429 . S
C2704 H2728 0.950 . S
C2705 C2722 1.574 . S
C2705 C2724 1.368 . S
C2705 H2729 0.949 1_554 S
H2706 C2710 0.949 . S
C2707 C2708 1.349 . S
C2707 C2709 1.327 . S
C2707 H2730 0.950 . S
C2708 C2707 1.349 . S
C2708 C2720 1.349 . S
C2709 C2707 1.327 . S
C2709 C2725 1.429 . S
C2709 H2731 0.991 . S
C2710 H2706 0.949 . S
C2710 C2718 1.574 . S
C2710 C2726 1.368 . S
H2711 C2719 0.950 . S
H2712 C2717 0.950 . S
H2713 C2718 0.949 . S
H2714 C2720 0.950 . S
H2715 C2721 0.950 . S
H2716 C2722 0.949 1_556 S
C2717 H2712 0.950 . S
C2717 C2719 1.327 . S
C2717 C2723 1.429 1_556 S
C2718 C2710 1.574 . S
C2718 H2713 0.949 . S
C2718 C2724 1.368 . S
C2719 C2703 1.349 1_556 S
C2719 H2711 0.950 . S
C2719 C2717 1.327 . S
C2720 C2708 1.349 . S
C2720 H2714 0.950 . S
C2720 C2721 1.327 . S
C2721 H2715 0.950 . S
C2721 C2720 1.327 . S
C2721 C2725 1.429 . S
C2722 C2705 1.574 . S
C2722 H2716 0.949 1_554 S
C2722 C2726 1.368 . S
C2723 C2704 1.429 . S
C2723 C2717 1.429 1_554 S
C2723 C2724 1.523 . S
C2724 C2705 1.368 . S
C2724 C2718 1.368 . S
C2724 C2723 1.523 . S
C2725 C2709 1.429 . S
C2725 C2721 1.429 . S
C2725 C2726 1.523 . S
C2726 C2710 1.368 . S
C2726 C2722 1.368 . S
C2726 C2725 1.523 . S
H2727 C2702 0.950 . S
H2728 C2704 0.950 . S
H2729 C2705 0.949 1_556 S
H2730 C2707 0.950 . S
H2731 C2709 0.991 . S
C2732 C2733 1.349 . S
C2732 C2734 1.327 . S
C2732 H2757 0.950 . S
C2733 C2732 1.349 . S
C2733 C2749 1.349 . S
C2734 C2732 1.327 . S
C2734 C2753 1.429 . S
C2734 H2758 0.950 . S
C2735 C2752 1.574 . S
C2735 C2754 1.368 . S
C2735 H2759 0.949 . S
H2736 C2740 0.949 . S
C2737 C2738 1.349 . S
C2737 C2739 1.327 . S
C2737 H2760 0.950 . S
C2738 C2737 1.349 . S
C2738 C2750 1.349 . S
C2739 C2737 1.327 . S
C2739 C2755 1.429 . S
C2739 H2761 0.950 . S
C2740 H2736 0.949 . S
C2740 C2748 1.574 . S
C2740 C2756 1.368 . S
H2741 C2749 0.950 . S
H2742 C2747 0.950 . S
H2743 C2748 0.949 . S
H2744 C2750 0.950 . S
H2745 C2751 0.950 . S
H2746 C2752 0.949 . S
C2747 H2742 0.950 . S
C2747 C2749 1.327 . S
C2747 C2753 1.429 . S
C2748 C2740 1.574 . S
C2748 H2743 0.949 . S
C2748 C2754 1.368 . S
C2749 C2733 1.349 . S
C2749 H2741 0.950 . S
C2749 C2747 1.327 . S
C2750 C2738 1.349 . S
C2750 H2744 0.950 . S
C2750 C2751 1.327 . S
C2751 H2745 0.950 . S
C2751 C2750 1.327 . S
C2751 C2755 1.429 . S
C2752 C2735 1.574 . S
C2752 H2746 0.949 . S
C2752 C2756 1.368 . S
C2753 C2734 1.429 . S
C2753 C2747 1.429 . S
C2753 C2754 1.523 . S
C2754 C2735 1.368 . S
C2754 C2748 1.368 . S
C2754 C2753 1.523 . S
C2755 C2739 1.429 . S
C2755 C2751 1.429 . S
C2755 C2756 1.523 . S
C2756 C2740 1.368 . S
C2756 C2752 1.368 . S
C2756 C2755 1.523 . S
H2757 C2732 0.950 . S
H2758 C2734 0.950 . S
H2759 C2735 0.949 . S
H2760 C2737 0.950 . S
H2761 C2739 0.950 . S
C2762 C2763 1.349 . S
C2762 C2764 1.327 . S
C2762 H2787 0.950 . S
C2763 C2762 1.349 . S
C2763 C2779 1.349 . S
C2764 C2762 1.327 . S
C2764 C2783 1.429 . S
C2764 H2788 0.950 . S
C2765 C2782 1.574 . S
C2765 C2784 1.368 . S
C2765 H2789 0.949 . S
H2766 C2770 0.949 . S
C2767 C2768 1.349 . S
C2767 C2769 1.327 . S
C2767 H2790 0.950 . S
C2768 C2767 1.349 . S
C2768 C2780 1.349 . S
C2769 C2767 1.327 . S
C2769 C2785 1.429 . S
C2769 H2791 0.950 . S
C2770 H2766 0.949 . S
C2770 C2778 1.574 . S
C2770 C2786 1.368 . S
H2771 C2779 0.950 . S
H2772 C2777 0.950 . S
H2773 C2778 0.949 . S
H2774 C2780 0.950 . S
H2775 C2781 0.950 . S
H2776 C2782 0.949 . S
C2777 H2772 0.950 . S
C2777 C2779 1.327 . S
C2777 C2783 1.429 . S
C2778 C2770 1.574 . S
C2778 H2773 0.949 . S
C2778 C2784 1.368 . S
C2779 C2763 1.349 . S
C2779 H2771 0.950 . S
C2779 C2777 1.327 . S
C2780 C2768 1.349 . S
C2780 H2774 0.950 . S
C2780 C2781 1.327 . S
C2781 H2775 0.950 . S
C2781 C2780 1.327 . S
C2781 C2785 1.429 . S
C2782 C2765 1.574 . S
C2782 H2776 0.949 . S
C2782 C2786 1.368 . S
C2783 C2764 1.429 . S
C2783 C2777 1.429 . S
C2783 C2784 1.523 . S
C2784 C2765 1.368 . S
C2784 C2778 1.368 . S
C2784 C2783 1.523 . S
C2785 C2769 1.429 . S
C2785 C2781 1.429 . S
C2785 C2786 1.523 . S
C2786 C2770 1.368 . S
C2786 C2782 1.368 . S
C2786 C2785 1.523 . S
H2787 C2762 0.950 . S
H2788 C2764 0.950 . S
H2789 C2765 0.949 . S
H2790 C2767 0.950 . S
H2791 C2769 0.950 . S
C2792 C2793 1.349 . S
C2792 C2794 1.327 . S
C2792 H2817 0.950 . S
C2793 C2792 1.349 . S
C2793 C2809 1.349 . S
C2794 C2792 1.327 . S
C2794 C2813 1.429 . S
C2794 H2818 0.950 . S
C2795 C2812 1.574 . S
C2795 C2814 1.368 . S
C2795 H2819 0.949 . S
H2796 C2800 0.949 . S
C2797 C2798 1.349 . S
C2797 C2799 1.327 . S
C2797 H2820 0.950 . S
C2798 C2797 1.349 . S
C2798 C2810 1.349 . S
C2799 C2797 1.327 . S
C2799 C2815 1.429 . S
C2799 H2821 0.950 . S
C2800 H2796 0.949 . S
C2800 C2808 1.574 . S
C2800 C2816 1.368 . S
H2801 C2809 0.950 . S
H2802 C2807 0.950 . S
H2803 C2808 0.949 . S
H2804 C2810 0.950 . S
H2805 C2811 0.950 . S
H2806 C2812 0.949 . S
C2807 H2802 0.950 . S
C2807 C2809 1.327 . S
C2807 C2813 1.429 . S
C2808 C2800 1.574 . S
C2808 H2803 0.949 . S
C2808 C2814 1.368 . S
C2809 C2793 1.349 . S
C2809 H2801 0.950 . S
C2809 C2807 1.327 . S
C2810 C2798 1.349 . S
C2810 H2804 0.950 . S
C2810 C2811 1.327 . S
C2811 H2805 0.950 . S
C2811 C2810 1.327 . S
C2811 C2815 1.429 . S
C2812 C2795 1.574 . S
C2812 H2806 0.949 . S
C2812 C2816 1.368 . S
C2813 C2794 1.429 . S
C2813 C2807 1.429 . S
C2813 C2814 1.523 . S
C2814 C2795 1.368 . S
C2814 C2808 1.368 . S
C2814 C2813 1.523 . S
C2815 C2799 1.429 . S
C2815 C2811 1.429 . S
C2815 C2816 1.523 . S
C2816 C2800 1.368 . S
C2816 C2812 1.368 . S
C2816 C2815 1.523 . S
H2817 C2792 0.950 . S
H2818 C2794 0.950 . S
H2819 C2795 0.949 . S
H2820 C2797 0.950 . S
H2821 C2799 0.950 . S
C2822 C2823 1.349 . S
C2822 C2824 1.327 . S
C2822 H2847 0.950 . S
C2823 C2822 1.349 . S
C2823 C2839 1.349 . S
C2824 C2822 1.327 . S
C2824 C2843 1.429 . S
C2824 H2848 0.950 . S
C2825 C2842 1.574 . S
C2825 C2844 1.368 . S
C2825 H2849 0.949 . S
H2826 C2830 0.949 . S
C2827 C2828 1.349 . S
C2827 C2829 1.327 . S
C2827 H2850 0.950 . S
C2828 C2827 1.349 . S
C2828 C2840 1.349 . S
C2829 C2827 1.327 . S
C2829 C2845 1.429 . S
C2829 H2851 0.950 . S
C2830 H2826 0.949 . S
C2830 C2838 1.574 . S
C2830 C2846 1.368 . S
H2831 C2839 0.950 . S
H2832 C2837 0.950 . S
H2833 C2838 0.949 . S
H2834 C2840 0.950 . S
H2835 C2841 0.950 . S
H2836 C2842 0.949 . S
C2837 H2832 0.950 . S
C2837 C2839 1.327 . S
C2837 C2843 1.429 . S
C2838 C2830 1.574 . S
C2838 H2833 0.949 . S
C2838 C2844 1.368 . S
C2839 C2823 1.349 . S
C2839 H2831 0.950 . S
C2839 C2837 1.327 . S
C2840 C2828 1.349 . S
C2840 H2834 0.950 . S
C2840 C2841 1.327 . S
C2841 H2835 0.950 . S
C2841 C2840 1.327 . S
C2841 C2845 1.429 . S
C2842 C2825 1.574 . S
C2842 H2836 0.949 . S
C2842 C2846 1.368 . S
C2843 C2824 1.429 . S
C2843 C2837 1.429 . S
C2843 C2844 1.523 . S
C2844 C2825 1.368 . S
C2844 C2838 1.368 . S
C2844 C2843 1.523 . S
C2845 C2829 1.429 . S
C2845 C2841 1.429 . S
C2845 C2846 1.523 . S
C2846 C2830 1.368 . S
C2846 C2842 1.368 . S
C2846 C2845 1.523 . S
H2847 C2822 0.950 . S
H2848 C2824 0.950 . S
H2849 C2825 0.949 . S
H2850 C2827 0.950 . S
H2851 C2829 0.950 . S
C2852 C2853 1.349 . S
C2852 C2854 1.327 . S
C2852 H2877 0.950 . S
C2853 C2852 1.349 . S
C2853 C2869 1.349 . S
C2854 C2852 1.327 . S
C2854 C2873 1.429 . S
C2854 H2878 0.950 . S
C2855 C2872 1.574 . S
C2855 C2874 1.368 . S
C2855 H2879 0.978 . S
H2856 C2860 0.949 . S
C2857 C2858 1.349 . S
C2857 C2859 1.327 . S
C2857 H2880 0.950 1_455 S
C2858 C2857 1.349 . S
C2858 C2870 1.349 . S
C2859 C2857 1.327 . S
C2859 C2875 1.429 . S
C2859 H2881 0.950 1_455 S
C2860 H2856 0.949 . S
C2860 C2868 1.574 . S
C2860 C2876 1.368 . S
H2861 C2869 0.950 . S
H2862 C2867 0.950 . S
H2863 C2868 0.949 . S
H2864 C2870 0.950 . S
H2865 C2871 0.950 . S
H2866 C2872 0.949 1_655 S
C2867 H2862 0.950 . S
C2867 C2869 1.327 . S
C2867 C2873 1.429 . S
C2868 C2860 1.574 . S
C2868 H2863 0.949 . S
C2868 C2874 1.368 . S
C2869 C2853 1.349 . S
C2869 H2861 0.950 . S
C2869 C2867 1.327 . S
C2870 C2858 1.349 . S
C2870 H2864 0.950 . S
C2870 C2871 1.327 . S
C2871 H2865 0.950 . S
C2871 C2870 1.327 . S
C2871 C2875 1.429 . S
C2872 C2855 1.574 . S
C2872 H2866 0.949 1_455 S
C2872 C2876 1.368 . S
C2873 C2854 1.429 . S
C2873 C2867 1.429 . S
C2873 C2874 1.523 . S
C2874 C2855 1.368 . S
C2874 C2868 1.368 . S
C2874 C2873 1.523 . S
C2875 C2859 1.429 . S
C2875 C2871 1.429 . S
C2875 C2876 1.523 . S
C2876 C2860 1.368 . S
C2876 C2872 1.368 . S
C2876 C2875 1.523 . S
H2877 C2852 0.950 . S
H2878 C2854 0.950 . S
H2879 C2855 0.978 . S
H2880 C2857 0.950 1_655 S
H2881 C2859 0.950 1_655 S
C2882 C2883 1.349 . S
C2882 C2884 1.327 . S
C2882 H2907 0.950 . S
C2883 C2882 1.349 . S
C2883 C2899 1.349 . S
C2884 C2882 1.327 . S
C2884 C2903 1.429 . S
C2884 H2908 0.950 . S
C2885 C2902 1.574 . S
C2885 C2904 1.368 . S
C2885 H2909 0.949 . S
H2886 C2890 0.949 . S
C2887 C2888 1.349 . S
C2887 C2889 1.327 . S
C2887 H2910 0.950 . S
C2888 C2887 1.349 . S
C2888 C2900 1.349 . S
C2889 C2887 1.327 . S
C2889 C2905 1.429 . S
C2889 H2911 0.950 . S
C2890 H2886 0.949 . S
C2890 C2898 1.574 . S
C2890 C2906 1.368 . S
H2891 C2899 0.950 . S
H2892 C2897 0.950 . S
H2893 C2898 0.949 . S
H2894 C2900 0.950 . S
H2895 C2901 0.950 . S
H2896 C2902 0.949 . S
C2897 H2892 0.950 . S
C2897 C2899 1.327 . S
C2897 C2903 1.429 . S
C2898 C2890 1.574 . S
C2898 H2893 0.949 . S
C2898 C2904 1.368 . S
C2899 C2883 1.349 . S
C2899 H2891 0.950 . S
C2899 C2897 1.327 . S
C2900 C2888 1.349 . S
C2900 H2894 0.950 . S
C2900 C2901 1.327 . S
C2901 H2895 0.950 . S
C2901 C2900 1.327 . S
C2901 C2905 1.429 . S
C2902 C2885 1.574 . S
C2902 H2896 0.949 . S
C2902 C2906 1.368 . S
C2903 C2884 1.429 . S
C2903 C2897 1.429 . S
C2903 C2904 1.523 . S
C2904 C2885 1.368 . S
C2904 C2898 1.368 . S
C2904 C2903 1.523 . S
C2905 C2889 1.429 . S
C2905 C2901 1.429 . S
C2905 C2906 1.523 . S
C2906 C2890 1.368 . S
C2906 C2902 1.368 . S
C2906 C2905 1.523 . S
H2907 C2882 0.950 . S
H2908 C2884 0.950 . S
H2909 C2885 0.949 . S
H2910 C2887 0.950 . S
H2911 C2889 0.950 . S
C2912 C2913 1.349 . S
C2912 C2914 1.327 . S
C2912 H2937 0.950 . S
C2913 C2912 1.349 . S
C2913 C2929 1.349 . S
C2914 C2912 1.327 . S
C2914 C2933 1.429 . S
C2914 H2938 0.950 . S
C2915 C2932 1.574 . S
C2915 C2934 1.368 . S
C2915 H2939 0.949 . S
H2916 C2920 0.949 . S
C2917 C2918 1.349 . S
C2917 C2919 1.327 . S
C2917 H2940 0.966 . S
C2918 C2917 1.349 . S
C2918 C2930 1.349 . S
C2919 C2917 1.327 . S
C2919 C2935 1.429 . S
C2919 H2941 0.950 . S
C2920 H2916 0.949 . S
C2920 C2928 1.574 . S
C2920 C2936 1.368 . S
H2921 C2929 0.950 . S
H2922 C2927 0.950 . S
H2923 C2928 0.949 . S
H2924 C2930 0.950 . S
H2925 C2931 0.950 . S
H2926 C2932 0.949 . S
C2927 H2922 0.950 . S
C2927 C2929 1.327 . S
C2927 C2933 1.429 . S
C2928 C2920 1.574 . S
C2928 H2923 0.949 . S
C2928 C2934 1.368 . S
C2929 C2913 1.349 . S
C2929 H2921 0.950 . S
C2929 C2927 1.327 . S
C2930 C2918 1.349 . S
C2930 H2924 0.950 . S
C2930 C2931 1.327 . S
C2931 H2925 0.950 . S
C2931 C2930 1.327 . S
C2931 C2935 1.429 . S
C2932 C2915 1.574 . S
C2932 H2926 0.949 . S
C2932 C2936 1.368 . S
C2933 C2914 1.429 . S
C2933 C2927 1.429 . S
C2933 C2934 1.523 . S
C2934 C2915 1.368 . S
C2934 C2928 1.368 . S
C2934 C2933 1.523 . S
C2935 C2919 1.429 . S
C2935 C2931 1.429 . S
C2935 C2936 1.523 . S
C2936 C2920 1.368 . S
C2936 C2932 1.368 . S
C2936 C2935 1.523 . S
H2937 C2912 0.950 . S
H2938 C2914 0.950 . S
H2939 C2915 0.949 . S
H2940 C2917 0.966 . S
H2941 C2919 0.950 . S
C2942 C2943 1.349 . S
C2942 C2944 1.327 . S
C2942 H2967 0.950 . S
C2943 C2942 1.349 . S
C2943 C2959 1.349 . S
C2944 C2942 1.327 . S
C2944 C2963 1.429 . S
C2944 H2968 0.950 . S
C2945 C2962 1.574 . S
C2945 C2964 1.368 . S
C2945 H2969 0.949 . S
H2946 C2950 0.949 . S
C2947 C2948 1.349 . S
C2947 C2949 1.327 . S
C2947 H2970 0.950 . S
C2948 C2947 1.349 . S
C2948 C2960 1.349 . S
C2949 C2947 1.327 . S
C2949 C2965 1.429 . S
C2949 H2971 0.950 . S
C2950 H2946 0.949 . S
C2950 C2958 1.574 . S
C2950 C2966 1.368 . S
H2951 C2959 0.950 . S
H2952 C2957 0.950 . S
H2953 C2958 0.949 . S
H2954 C2960 0.950 . S
H2955 C2961 0.950 . S
H2956 C2962 0.949 . S
C2957 H2952 0.950 . S
C2957 C2959 1.327 . S
C2957 C2963 1.429 . S
C2958 C2950 1.574 . S
C2958 H2953 0.949 . S
C2958 C2964 1.368 . S
C2959 C2943 1.349 . S
C2959 H2951 0.950 . S
C2959 C2957 1.327 . S
C2960 C2948 1.349 . S
C2960 H2954 0.950 . S
C2960 C2961 1.327 . S
C2961 H2955 0.950 . S
C2961 C2960 1.327 . S
C2961 C2965 1.429 . S
C2962 C2945 1.574 . S
C2962 H2956 0.949 . S
C2962 C2966 1.368 . S
C2963 C2944 1.429 . S
C2963 C2957 1.429 . S
C2963 C2964 1.523 . S
C2964 C2945 1.368 . S
C2964 C2958 1.368 . S
C2964 C2963 1.523 . S
C2965 C2949 1.429 . S
C2965 C2961 1.429 . S
C2965 C2966 1.523 . S
C2966 C2950 1.368 . S
C2966 C2962 1.368 . S
C2966 C2965 1.523 . S
H2967 C2942 0.950 . S
H2968 C2944 0.950 . S
H2969 C2945 0.949 . S
H2970 C2947 0.950 . S
H2971 C2949 0.950 . S
C2972 C2973 1.349 . S
C2972 C2974 1.327 . S
C2972 H2997 0.950 . S
C2973 C2972 1.349 . S
C2973 C2989 1.349 . S
C2974 C2972 1.327 . S
C2974 C2993 1.429 . S
C2974 H2998 0.950 . S
C2975 C2992 1.574 . S
C2975 C2994 1.368 . S
C2975 H2999 0.949 . S
H2976 C2980 0.949 . S
C2977 C2978 1.349 . S
C2977 C2979 1.327 . S
C2977 H3000 0.950 . S
C2978 C2977 1.349 . S
C2978 C2990 1.349 . S
C2979 C2977 1.327 . S
C2979 C2995 1.429 . S
C2979 H3001 0.950 . S
C2980 H2976 0.949 . S
C2980 C2988 1.574 . S
C2980 C2996 1.368 . S
H2981 C2989 0.950 . S
H2982 C2987 0.950 . S
H2983 C2988 0.949 . S
H2984 C2990 0.930 1_655 S
H2985 C2991 0.971 . S
H2986 C2992 0.949 . S
C2987 H2982 0.950 . S
C2987 C2989 1.327 . S
C2987 C2993 1.429 . S
C2988 C2980 1.574 . S
C2988 H2983 0.949 . S
C2988 C2994 1.368 . S
C2989 C2973 1.349 . S
C2989 H2981 0.950 . S
C2989 C2987 1.327 . S
C2990 C2978 1.349 . S
C2990 H2984 0.930 1_455 S
C2990 C2991 1.327 . S
C2991 H2985 0.971 . S
C2991 C2990 1.327 . S
C2991 C2995 1.429 . S
C2992 C2975 1.574 . S
C2992 H2986 0.949 . S
C2992 C2996 1.368 . S
C2993 C2974 1.429 . S
C2993 C2987 1.429 . S
C2993 C2994 1.523 . S
C2994 C2975 1.368 . S
C2994 C2988 1.368 . S
C2994 C2993 1.523 . S
C2995 C2979 1.429 . S
C2995 C2991 1.429 . S
C2995 C2996 1.523 . S
C2996 C2980 1.368 . S
C2996 C2992 1.368 . S
C2996 C2995 1.523 . S
H2997 C2972 0.950 . S
H2998 C2974 0.950 . S
H2999 C2975 0.949 . S
H3000 C2977 0.950 . S
H3001 C2979 0.950 . S
C3002 C3003 1.349 . S
C3002 C3004 1.327 . S
C3002 H3027 0.950 . S
C3003 C3002 1.349 . S
C3003 C3019 1.349 . S
C3004 C3002 1.327 . S
C3004 C3023 1.429 . S
C3004 H3028 0.950 . S
C3005 C3022 1.574 . S
C3005 C3024 1.368 . S
C3005 H3029 0.949 . S
H3006 C3010 0.949 . S
C3007 C3008 1.349 . S
C3007 C3009 1.327 . S
C3007 H3030 0.950 . S
C3008 C3007 1.349 . S
C3008 C3020 1.349 . S
C3009 C3007 1.327 . S
C3009 C3025 1.429 . S
C3009 H3031 0.950 . S
C3010 H3006 0.949 . S
C3010 C3018 1.574 . S
C3010 C3026 1.368 . S
H3011 C3019 0.950 . S
H3012 C3017 0.950 . S
H3013 C3018 0.949 . S
H3014 C3020 0.950 . S
H3015 C3021 0.950 . S
H3016 C3022 0.949 . S
C3017 H3012 0.950 . S
C3017 C3019 1.327 . S
C3017 C3023 1.429 . S
C3018 C3010 1.574 . S
C3018 H3013 0.949 . S
C3018 C3024 1.368 . S
C3019 C3003 1.349 . S
C3019 H3011 0.950 . S
C3019 C3017 1.327 . S
C3020 C3008 1.349 . S
C3020 H3014 0.950 . S
C3020 C3021 1.327 . S
C3021 H3015 0.950 . S
C3021 C3020 1.327 . S
C3021 C3025 1.429 . S
C3022 C3005 1.574 . S
C3022 H3016 0.949 . S
C3022 C3026 1.368 . S
C3023 C3004 1.429 . S
C3023 C3017 1.429 . S
C3023 C3024 1.523 . S
C3024 C3005 1.368 . S
C3024 C3018 1.368 . S
C3024 C3023 1.523 . S
C3025 C3009 1.429 . S
C3025 C3021 1.429 . S
C3025 C3026 1.523 . S
C3026 C3010 1.368 . S
C3026 C3022 1.368 . S
C3026 C3025 1.523 . S
H3027 C3002 0.950 . S
H3028 C3004 0.950 . S
H3029 C3005 0.949 . S
H3030 C3007 0.950 . S
H3031 C3009 0.950 . S
C3032 C3033 1.349 . S
C3032 C3034 1.327 . S
C3032 H3057 0.950 . S
C3033 C3032 1.349 . S
C3033 C3049 1.349 . S
C3034 C3032 1.327 . S
C3034 C3053 1.429 . S
C3034 H3058 0.950 . S
C3035 C3052 1.574 . S
C3035 C3054 1.368 . S
C3035 H3059 0.949 . S
H3036 C3040 0.949 . S
C3037 C3038 1.349 . S
C3037 C3039 1.327 . S
C3037 H3060 0.950 . S
C3038 C3037 1.349 . S
C3038 C3050 1.349 . S
C3039 C3037 1.327 . S
C3039 C3055 1.429 . S
C3039 H3061 0.950 . S
C3040 H3036 0.949 . S
C3040 C3048 1.574 . S
C3040 C3056 1.368 . S
H3041 C3049 0.950 . S
H3042 C3047 0.950 . S
H3043 C3048 0.949 . S
H3044 C3050 0.950 . S
H3045 C3051 0.950 . S
H3046 C3052 0.949 . S
C3047 H3042 0.950 . S
C3047 C3049 1.327 . S
C3047 C3053 1.429 . S
C3048 C3040 1.574 . S
C3048 H3043 0.949 . S
C3048 C3054 1.368 . S
C3049 C3033 1.349 . S
C3049 H3041 0.950 . S
C3049 C3047 1.327 . S
C3050 C3038 1.349 . S
C3050 H3044 0.950 . S
C3050 C3051 1.327 . S
C3051 H3045 0.950 . S
C3051 C3050 1.327 . S
C3051 C3055 1.429 . S
C3052 C3035 1.574 . S
C3052 H3046 0.949 . S
C3052 C3056 1.368 . S
C3053 C3034 1.429 . S
C3053 C3047 1.429 . S
C3053 C3054 1.523 . S
C3054 C3035 1.368 . S
C3054 C3048 1.368 . S
C3054 C3053 1.523 . S
C3055 C3039 1.429 . S
C3055 C3051 1.429 . S
C3055 C3056 1.523 . S
C3056 C3040 1.368 . S
C3056 C3052 1.368 . S
C3056 C3055 1.523 . S
H3057 C3032 0.950 . S
H3058 C3034 0.950 . S
H3059 C3035 0.949 . S
H3060 C3037 0.950 . S
H3061 C3039 0.950 . S
C3062 C3063 1.349 . S
C3062 C3064 1.327 . S
C3062 H3087 0.950 . S
C3063 C3062 1.349 . S
C3063 C3079 1.349 . S
C3064 C3062 1.327 . S
C3064 C3083 1.429 . S
C3064 H3088 0.950 . S
C3065 C3082 1.574 . S
C3065 C3084 1.368 . S
C3065 H3089 0.949 . S
H3066 C3070 0.949 . S
C3067 C3068 1.349 . S
C3067 C3069 1.327 . S
C3067 H3090 0.950 . S
C3068 C3067 1.349 . S
C3068 C3080 1.349 . S
C3069 C3067 1.327 . S
C3069 C3085 1.429 . S
C3069 H3091 0.950 . S
C3070 H3066 0.949 . S
C3070 C3078 1.574 . S
C3070 C3086 1.368 . S
H3071 C3079 0.950 . S
H3072 C3077 0.950 . S
H3073 C3078 0.949 . S
H3074 C3080 0.950 . S
H3075 C3081 0.950 . S
H3076 C3082 0.949 . S
C3077 H3072 0.950 . S
C3077 C3079 1.327 . S
C3077 C3083 1.429 . S
C3078 C3070 1.574 . S
C3078 H3073 0.949 . S
C3078 C3084 1.368 . S
C3079 C3063 1.349 . S
C3079 H3071 0.950 . S
C3079 C3077 1.327 . S
C3080 C3068 1.349 . S
C3080 H3074 0.950 . S
C3080 C3081 1.327 . S
C3081 H3075 0.950 . S
C3081 C3080 1.327 . S
C3081 C3085 1.429 . S
C3082 C3065 1.574 . S
C3082 H3076 0.949 . S
C3082 C3086 1.368 . S
C3083 C3064 1.429 . S
C3083 C3077 1.429 . S
C3083 C3084 1.523 . S
C3084 C3065 1.368 . S
C3084 C3078 1.368 . S
C3084 C3083 1.523 . S
C3085 C3069 1.429 . S
C3085 C3081 1.429 . S
C3085 C3086 1.523 . S
C3086 C3070 1.368 . S
C3086 C3082 1.368 . S
C3086 C3085 1.523 . S
H3087 C3062 0.950 . S
H3088 C3064 0.950 . S
H3089 C3065 0.949 . S
H3090 C3067 0.950 . S
H3091 C3069 0.950 . S
C3092 C3093 1.349 . S
C3092 C3094 1.327 . S
C3092 H3117 0.950 . S
C3093 C3092 1.349 . S
C3093 C3109 1.349 . S
C3094 C3092 1.327 . S
C3094 C3113 1.429 . S
C3094 H3118 0.950 . S
C3095 C3112 1.574 . S
C3095 C3114 1.368 . S
C3095 H3119 0.949 . S
H3096 C3100 0.949 . S
C3097 C3098 1.343 1_455 S
C3097 C3099 1.322 1_455 S
C3097 H3120 0.962 . S
C3098 C3097 1.343 1_655 S
C3098 C3110 1.349 . S
C3099 C3097 1.322 1_655 S
C3099 C3115 1.429 . S
C3099 H3121 0.950 . S
C3100 H3096 0.949 . S
C3100 C3108 1.574 . S
C3100 C3116 1.368 . S
H3101 C3109 0.950 . S
H3102 C3107 0.950 . S
H3103 C3108 0.949 . S
H3104 C3110 0.950 . S
H3105 C3111 0.950 . S
H3106 C3112 0.949 . S
C3107 H3102 0.950 . S
C3107 C3109 1.327 . S
C3107 C3113 1.429 . S
C3108 C3100 1.574 . S
C3108 H3103 0.949 . S
C3108 C3114 1.368 . S
C3109 C3093 1.349 . S
C3109 H3101 0.950 . S
C3109 C3107 1.327 . S
C3110 C3098 1.349 . S
C3110 H3104 0.950 . S
C3110 C3111 1.327 . S
C3111 H3105 0.950 . S
C3111 C3110 1.327 . S
C3111 C3115 1.429 . S
C3112 C3095 1.574 . S
C3112 H3106 0.949 . S
C3112 C3116 1.368 . S
C3113 C3094 1.429 . S
C3113 C3107 1.429 . S
C3113 C3114 1.523 . S
C3114 C3095 1.368 . S
C3114 C3108 1.368 . S
C3114 C3113 1.523 . S
C3115 C3099 1.429 . S
C3115 C3111 1.429 . S
C3115 C3116 1.523 . S
C3116 C3100 1.368 . S
C3116 C3112 1.368 . S
C3116 C3115 1.523 . S
H3117 C3092 0.950 . S
H3118 C3094 0.950 . S
H3119 C3095 0.949 . S
H3120 C3097 0.962 . S
H3121 C3099 0.950 . S
C3122 C3123 1.349 . S
C3122 C3124 1.327 . S
C3122 H3147 0.950 . S
C3123 C3122 1.349 . S
C3123 C3139 1.349 . S
C3124 C3122 1.327 . S
C3124 C3143 1.429 . S
C3124 H3148 0.950 . S
C3125 C3142 1.574 . S
C3125 C3144 1.368 . S
C3125 H3149 0.949 . S
H3126 C3130 0.949 . S
C3127 C3128 1.349 . S
C3127 C3129 1.327 . S
C3127 H3150 0.950 . S
C3128 C3127 1.349 . S
C3128 C3140 1.349 . S
C3129 C3127 1.327 . S
C3129 C3145 1.429 . S
C3129 H3151 0.950 . S
C3130 H3126 0.949 . S
C3130 C3138 1.574 . S
C3130 C3146 1.368 . S
H3131 C3139 0.950 . S
H3132 C3137 0.950 . S
H3133 C3138 0.949 . S
H3134 C3140 0.950 . S
H3135 C3141 0.950 . S
H3136 C3142 0.949 . S
C3137 H3132 0.950 . S
C3137 C3139 1.327 . S
C3137 C3143 1.429 . S
C3138 C3130 1.574 . S
C3138 H3133 0.949 . S
C3138 C3144 1.368 . S
C3139 C3123 1.349 . S
C3139 H3131 0.950 . S
C3139 C3137 1.327 . S
C3140 C3128 1.349 . S
C3140 H3134 0.950 . S
C3140 C3141 1.327 . S
C3141 H3135 0.950 . S
C3141 C3140 1.327 . S
C3141 C3145 1.429 . S
C3142 C3125 1.574 . S
C3142 H3136 0.949 . S
C3142 C3146 1.368 . S
C3143 C3124 1.429 . S
C3143 C3137 1.429 . S
C3143 C3144 1.523 . S
C3144 C3125 1.368 . S
C3144 C3138 1.368 . S
C3144 C3143 1.523 . S
C3145 C3129 1.429 . S
C3145 C3141 1.429 . S
C3145 C3146 1.523 . S
C3146 C3130 1.368 . S
C3146 C3142 1.368 . S
C3146 C3145 1.523 . S
H3147 C3122 0.950 . S
H3148 C3124 0.950 . S
H3149 C3125 0.949 . S
H3150 C3127 0.950 . S
H3151 C3129 0.950 . S
C3152 C3153 1.349 . S
C3152 C3154 1.327 . S
C3152 H3177 0.950 . S
C3153 C3152 1.349 . S
C3153 C3169 1.349 . S
C3154 C3152 1.327 . S
C3154 C3173 1.429 . S
C3154 H3178 0.950 . S
C3155 C3172 1.574 . S
C3155 C3174 1.368 . S
C3155 H3179 0.949 . S
H3156 C3160 0.949 . S
C3157 C3158 1.349 . S
C3157 C3159 1.327 . S
C3157 H3180 0.950 . S
C3158 C3157 1.349 . S
C3158 C3170 1.349 . S
C3159 C3157 1.327 . S
C3159 C3175 1.429 . S
C3159 H3181 0.950 . S
C3160 H3156 0.949 . S
C3160 C3168 1.574 . S
C3160 C3176 1.368 . S
H3161 C3169 0.950 . S
H3162 C3167 0.950 . S
H3163 C3168 0.949 . S
H3164 C3170 0.950 . S
H3165 C3171 0.950 . S
H3166 C3172 0.949 . S
C3167 H3162 0.950 . S
C3167 C3169 1.327 . S
C3167 C3173 1.429 . S
C3168 C3160 1.574 . S
C3168 H3163 0.949 . S
C3168 C3174 1.368 . S
C3169 C3153 1.349 . S
C3169 H3161 0.950 . S
C3169 C3167 1.327 . S
C3170 C3158 1.349 . S
C3170 H3164 0.950 . S
C3170 C3171 1.327 . S
C3171 H3165 0.950 . S
C3171 C3170 1.327 . S
C3171 C3175 1.429 . S
C3172 C3155 1.574 . S
C3172 H3166 0.949 . S
C3172 C3176 1.368 . S
C3173 C3154 1.429 . S
C3173 C3167 1.429 . S
C3173 C3174 1.523 . S
C3174 C3155 1.368 . S
C3174 C3168 1.368 . S
C3174 C3173 1.523 . S
C3175 C3159 1.429 . S
C3175 C3171 1.429 . S
C3175 C3176 1.523 . S
C3176 C3160 1.368 . S
C3176 C3172 1.368 . S
C3176 C3175 1.523 . S
H3177 C3152 0.950 . S
H3178 C3154 0.950 . S
H3179 C3155 0.949 . S
H3180 C3157 0.950 . S
H3181 C3159 0.950 . S
C3182 C3183 1.349 . S
C3182 C3184 1.327 . S
C3182 H3207 0.950 . S
C3183 C3182 1.349 . S
C3183 C3199 1.349 . S
C3184 C3182 1.327 . S
C3184 C3203 1.429 . S
C3184 H3208 0.950 . S
C3185 C3202 1.574 . S
C3185 C3204 1.368 . S
C3185 H3209 0.949 . S
H3186 C3190 0.949 . S
C3187 C3188 1.349 . S
C3187 C3189 1.327 . S
C3187 H3210 0.950 . S
C3188 C3187 1.349 . S
C3188 C3200 1.349 . S
C3189 C3187 1.327 . S
C3189 C3205 1.429 . S
C3189 H3211 0.950 . S
C3190 H3186 0.949 . S
C3190 C3198 1.574 . S
C3190 C3206 1.368 . S
H3191 C3199 0.950 . S
H3192 C3197 0.950 . S
H3193 C3198 0.949 . S
H3194 C3200 0.950 . S
H3195 C3201 0.950 . S
H3196 C3202 0.949 . S
C3197 H3192 0.950 . S
C3197 C3199 1.327 . S
C3197 C3203 1.429 . S
C3198 C3190 1.574 . S
C3198 H3193 0.949 . S
C3198 C3204 1.368 . S
C3199 C3183 1.349 . S
C3199 H3191 0.950 . S
C3199 C3197 1.327 . S
C3200 C3188 1.349 . S
C3200 H3194 0.950 . S
C3200 C3201 1.327 . S
C3201 H3195 0.950 . S
C3201 C3200 1.327 . S
C3201 C3205 1.429 . S
C3202 C3185 1.574 . S
C3202 H3196 0.949 . S
C3202 C3206 1.368 . S
C3203 C3184 1.429 . S
C3203 C3197 1.429 . S
C3203 C3204 1.523 . S
C3204 C3185 1.368 . S
C3204 C3198 1.368 . S
C3204 C3203 1.523 . S
C3205 C3189 1.429 . S
C3205 C3201 1.429 . S
C3205 C3206 1.523 . S
C3206 C3190 1.368 . S
C3206 C3202 1.368 . S
C3206 C3205 1.523 . S
H3207 C3182 0.950 . S
H3208 C3184 0.950 . S
H3209 C3185 0.949 . S
H3210 C3187 0.950 . S
H3211 C3189 0.950 . S
C3212 C3213 1.349 . S
C3212 C3214 1.327 . S
C3212 H3237 0.950 . S
C3213 C3212 1.349 . S
C3213 C3229 1.349 . S
C3214 C3212 1.327 . S
C3214 C3233 1.429 . S
C3214 H3238 0.950 . S
C3215 C3232 1.574 . S
C3215 C3234 1.368 . S
C3215 H3239 0.949 . S
H3216 C3220 0.949 . S
C3217 C3218 1.349 . S
C3217 C3219 1.327 . S
C3217 H3240 0.950 . S
C3218 C3217 1.349 . S
C3218 C3230 1.349 . S
C3219 C3217 1.327 . S
C3219 C3235 1.429 . S
C3219 H3241 0.950 . S
C3220 H3216 0.949 . S
C3220 C3228 1.574 . S
C3220 C3236 1.368 . S
H3221 C3229 0.950 . S
H3222 C3227 0.950 . S
H3223 C3228 0.949 . S
H3224 C3230 0.950 . S
H3225 C3231 0.950 . S
H3226 C3232 0.949 . S
C3227 H3222 0.950 . S
C3227 C3229 1.327 . S
C3227 C3233 1.429 . S
C3228 C3220 1.574 . S
C3228 H3223 0.949 . S
C3228 C3234 1.368 . S
C3229 C3213 1.349 . S
C3229 H3221 0.950 . S
C3229 C3227 1.327 . S
C3230 C3218 1.349 . S
C3230 H3224 0.950 . S
C3230 C3231 1.327 . S
C3231 H3225 0.950 . S
C3231 C3230 1.327 . S
C3231 C3235 1.429 . S
C3232 C3215 1.574 . S
C3232 H3226 0.949 . S
C3232 C3236 1.368 . S
C3233 C3214 1.429 . S
C3233 C3227 1.429 . S
C3233 C3234 1.523 . S
C3234 C3215 1.368 . S
C3234 C3228 1.368 . S
C3234 C3233 1.523 . S
C3235 C3219 1.429 . S
C3235 C3231 1.429 . S
C3235 C3236 1.523 . S
C3236 C3220 1.368 . S
C3236 C3232 1.368 . S
C3236 C3235 1.523 . S
H3237 C3212 0.950 . S
H3238 C3214 0.950 . S
H3239 C3215 0.949 . S
H3240 C3217 0.950 . S
H3241 C3219 0.950 . S
C3242 C3243 1.349 . S
C3242 C3244 1.327 . S
C3242 H3267 0.950 . S
C3243 C3242 1.349 . S
C3243 C3259 1.349 . S
C3244 C3242 1.327 . S
C3244 C3263 1.429 . S
C3244 H3268 0.950 . S
C3245 C3262 1.574 . S
C3245 C3264 1.368 . S
C3245 H3269 0.949 . S
H3246 C3250 0.949 . S
C3247 C3248 1.349 . S
C3247 C3249 1.327 . S
C3247 H3270 0.950 . S
C3248 C3247 1.349 . S
C3248 C3260 1.349 . S
C3249 C3247 1.327 . S
C3249 C3265 1.429 . S
C3249 H3271 0.950 . S
C3250 H3246 0.949 . S
C3250 C3258 1.574 . S
C3250 C3266 1.368 . S
H3251 C3259 0.950 . S
H3252 C3257 0.950 . S
H3253 C3258 0.949 . S
H3254 C3260 0.950 . S
H3255 C3261 0.950 . S
H3256 C3262 0.949 . S
C3257 H3252 0.950 . S
C3257 C3259 1.327 . S
C3257 C3263 1.429 . S
C3258 C3250 1.574 . S
C3258 H3253 0.949 . S
C3258 C3264 1.368 . S
C3259 C3243 1.349 . S
C3259 H3251 0.950 . S
C3259 C3257 1.327 . S
C3260 C3248 1.349 . S
C3260 H3254 0.950 . S
C3260 C3261 1.327 . S
C3261 H3255 0.950 . S
C3261 C3260 1.327 . S
C3261 C3265 1.429 . S
C3262 C3245 1.574 . S
C3262 H3256 0.949 . S
C3262 C3266 1.368 . S
C3263 C3244 1.429 . S
C3263 C3257 1.429 . S
C3263 C3264 1.523 . S
C3264 C3245 1.368 . S
C3264 C3258 1.368 . S
C3264 C3263 1.523 . S
C3265 C3249 1.429 . S
C3265 C3261 1.429 . S
C3265 C3266 1.523 . S
C3266 C3250 1.368 . S
C3266 C3262 1.368 . S
C3266 C3265 1.523 . S
H3267 C3242 0.950 . S
H3268 C3244 0.950 . S
H3269 C3245 0.949 . S
H3270 C3247 0.950 . S
H3271 C3249 0.950 . S
C3272 C3273 1.349 . S
C3272 C3274 1.327 . S
C3272 H3297 0.950 . S
C3273 C3272 1.349 . S
C3273 C3289 1.349 . S
C3274 C3272 1.327 . S
C3274 C3293 1.429 . S
C3274 H3298 0.950 . S
C3275 C3292 1.574 . S
C3275 C3294 1.368 . S
C3275 H3299 0.949 . S
H3276 C3280 0.949 . S
C3277 C3278 1.349 . S
C3277 C3279 1.327 . S
C3277 H3300 0.950 . S
C3278 C3277 1.349 . S
C3278 C3290 1.349 . S
C3279 C3277 1.327 . S
C3279 C3295 1.429 . S
C3279 H3301 0.950 . S
C3280 H3276 0.949 . S
C3280 C3288 1.574 . S
C3280 C3296 1.368 . S
H3281 C3289 0.950 . S
H3282 C3287 0.950 . S
H3283 C3288 0.949 . S
H3284 C3290 0.950 . S
H3285 C3291 0.950 . S
H3286 C3292 0.949 . S
C3287 H3282 0.950 . S
C3287 C3289 1.327 . S
C3287 C3293 1.429 . S
C3288 C3280 1.574 . S
C3288 H3283 0.949 . S
C3288 C3294 1.368 . S
C3289 C3273 1.349 . S
C3289 H3281 0.950 . S
C3289 C3287 1.327 . S
C3290 C3278 1.349 . S
C3290 H3284 0.950 . S
C3290 C3291 1.327 . S
C3291 H3285 0.950 . S
C3291 C3290 1.327 . S
C3291 C3295 1.429 . S
C3292 C3275 1.574 . S
C3292 H3286 0.949 . S
C3292 C3296 1.368 . S
C3293 C3274 1.429 . S
C3293 C3287 1.429 . S
C3293 C3294 1.523 . S
C3294 C3275 1.368 . S
C3294 C3288 1.368 . S
C3294 C3293 1.523 . S
C3295 C3279 1.429 . S
C3295 C3291 1.429 . S
C3295 C3296 1.523 . S
C3296 C3280 1.368 . S
C3296 C3292 1.368 . S
C3296 C3295 1.523 . S
H3297 C3272 0.950 . S
H3298 C3274 0.950 . S
H3299 C3275 0.949 . S
H3300 C3277 0.950 . S
H3301 C3279 0.950 . S
C3302 C3303 1.349 . S
C3302 C3304 1.327 . S
C3302 H3327 0.950 . S
C3303 C3302 1.349 . S
C3303 C3319 1.349 . S
C3304 C3302 1.327 . S
C3304 C3323 1.429 . S
C3304 H3328 0.950 . S
C3305 C3322 1.574 . S
C3305 C3324 1.368 . S
C3305 H3329 0.949 . S
H3306 C3310 0.949 . S
C3307 C3308 1.349 . S
C3307 C3309 1.327 . S
C3307 H3330 0.950 . S
C3308 C3307 1.349 . S
C3308 C3320 1.349 . S
C3309 C3307 1.327 . S
C3309 C3325 1.429 . S
C3309 H3331 0.950 . S
C3310 H3306 0.949 . S
C3310 C3318 1.574 . S
C3310 C3326 1.368 . S
H3311 C3319 0.950 . S
H3312 C3317 0.950 . S
H3313 C3318 0.949 . S
H3314 C3320 0.950 1_545 S
H3315 C3321 0.950 . S
H3316 C3322 0.949 . S
C3317 H3312 0.950 . S
C3317 C3319 1.327 . S
C3317 C3323 1.429 . S
C3318 C3310 1.574 . S
C3318 H3313 0.949 . S
C3318 C3324 1.368 . S
C3319 C3303 1.349 . S
C3319 H3311 0.950 . S
C3319 C3317 1.327 . S
C3320 C3308 1.349 . S
C3320 H3314 0.950 1_565 S
C3320 C3321 1.327 . S
C3321 H3315 0.950 . S
C3321 C3320 1.327 . S
C3321 C3325 1.429 . S
C3322 C3305 1.574 . S
C3322 H3316 0.949 . S
C3322 C3326 1.368 . S
C3323 C3304 1.429 . S
C3323 C3317 1.429 . S
C3323 C3324 1.523 . S
C3324 C3305 1.368 . S
C3324 C3318 1.368 . S
C3324 C3323 1.523 . S
C3325 C3309 1.429 . S
C3325 C3321 1.429 . S
C3325 C3326 1.523 . S
C3326 C3310 1.368 . S
C3326 C3322 1.368 . S
C3326 C3325 1.523 . S
H3327 C3302 0.950 . S
H3328 C3304 0.950 . S
H3329 C3305 0.949 . S
H3330 C3307 0.950 . S
H3331 C3309 0.950 . S
C3332 C3333 1.349 . S
C3332 C3334 1.327 . S
C3332 H3357 0.950 . S
C3333 C3332 1.349 . S
C3333 C3349 1.349 . S
C3334 C3332 1.327 . S
C3334 C3353 1.429 . S
C3334 H3358 0.950 . S
C3335 C3352 1.574 . S
C3335 C3354 1.368 . S
C3335 H3359 0.949 . S
H3336 C3340 0.949 . S
C3337 C3338 1.349 . S
C3337 C3339 1.327 . S
C3337 H3360 0.950 . S
C3338 C3337 1.349 . S
C3338 C3350 1.349 . S
C3339 C3337 1.327 . S
C3339 C3355 1.429 . S
C3339 H3361 0.950 . S
C3340 H3336 0.949 . S
C3340 C3348 1.574 . S
C3340 C3356 1.368 . S
H3341 C3349 0.950 . S
H3342 C3347 0.950 . S
H3343 C3348 0.949 . S
H3344 C3350 0.950 . S
H3345 C3351 0.950 . S
H3346 C3352 0.949 . S
C3347 H3342 0.950 . S
C3347 C3349 1.327 . S
C3347 C3353 1.429 . S
C3348 C3340 1.574 . S
C3348 H3343 0.949 . S
C3348 C3354 1.368 . S
C3349 C3333 1.349 . S
C3349 H3341 0.950 . S
C3349 C3347 1.327 . S
C3350 C3338 1.349 . S
C3350 H3344 0.950 . S
C3350 C3351 1.327 . S
C3351 H3345 0.950 . S
C3351 C3350 1.327 . S
C3351 C3355 1.429 . S
C3352 C3335 1.574 . S
C3352 H3346 0.949 . S
C3352 C3356 1.368 . S
C3353 C3334 1.429 . S
C3353 C3347 1.429 . S
C3353 C3354 1.523 . S
C3354 C3335 1.368 . S
C3354 C3348 1.368 . S
C3354 C3353 1.523 . S
C3355 C3339 1.429 . S
C3355 C3351 1.429 . S
C3355 C3356 1.523 . S
C3356 C3340 1.368 . S
C3356 C3352 1.368 . S
C3356 C3355 1.523 . S
H3357 C3332 0.950 . S
H3358 C3334 0.950 . S
H3359 C3335 0.949 . S
H3360 C3337 0.950 . S
H3361 C3339 0.950 . S
C3362 C3363 1.349 . S
C3362 C3364 1.327 . S
C3362 H3387 0.950 . S
C3363 C3362 1.349 . S
C3363 C3379 1.355 . S
C3364 C3362 1.327 . S
C3364 C3383 1.429 . S
C3364 H3388 0.950 . S
C3365 C3382 1.574 . S
C3365 C3384 1.368 1_556 S
C3365 H3389 0.949 . S
H3366 C3370 0.949 . S
C3367 C3368 1.349 1_556 S
C3367 C3369 1.327 . S
C3367 H3390 0.950 . S
C3368 C3367 1.349 1_554 S
C3368 C3380 1.349 . S
C3369 C3367 1.327 . S
C3369 C3385 1.429 1_556 S
C3369 H3391 0.950 . S
C3370 H3366 0.949 . S
C3370 C3378 1.574 . S
C3370 C3386 1.368 . S
H3371 C3379 0.942 1_556 S
H3372 C3377 0.967 . S
H3373 C3378 0.949 . S
H3374 C3380 0.950 . S
H3375 C3381 0.950 . S
H3376 C3382 0.949 . S
C3377 H3372 0.967 . S
C3377 C3379 1.330 1_556 S
C3377 C3383 1.410 1_556 S
C3378 C3370 1.574 . S
C3378 H3373 0.949 . S
C3378 C3384 1.368 . S
C3379 C3363 1.355 . S
C3379 H3371 0.942 1_554 S
C3379 C3377 1.330 1_554 S
C3380 C3368 1.349 . S
C3380 H3374 0.950 . S
C3380 C3381 1.327 . S
C3381 H3375 0.950 . S
C3381 C3380 1.327 . S
C3381 C3385 1.429 . S
C3382 C3365 1.574 . S
C3382 H3376 0.949 . S
C3382 C3386 1.368 1_556 S
C3383 C3364 1.429 . S
C3383 C3377 1.410 1_554 S
C3383 C3384 1.523 . S
C3384 C3365 1.368 1_554 S
C3384 C3378 1.368 . S
C3384 C3383 1.523 . S
C3385 C3369 1.429 1_554 S
C3385 C3381 1.429 . S
C3385 C3386 1.523 . S
C3386 C3370 1.368 . S
C3386 C3382 1.368 1_554 S
C3386 C3385 1.523 . S
H3387 C3362 0.950 . S
H3388 C3364 0.950 . S
H3389 C3365 0.949 . S
H3390 C3367 0.950 . S
H3391 C3369 0.950 . S
C3392 C3393 1.349 . S
C3392 C3394 1.327 . S
C3392 H3417 0.950 . S
C3393 C3392 1.349 . S
C3393 C3409 1.349 . S
C3394 C3392 1.327 . S
C3394 C3413 1.429 . S
C3394 H3418 0.950 . S
C3395 C3412 1.574 . S
C3395 C3414 1.368 . S
C3395 H3419 0.949 . S
H3396 C3400 0.949 . S
C3397 C3398 1.349 . S
C3397 C3399 1.327 . S
C3397 H3420 0.950 . S
C3398 C3397 1.349 . S
C3398 C3410 1.349 . S
C3399 C3397 1.327 . S
C3399 C3415 1.429 . S
C3399 H3421 0.950 . S
C3400 H3396 0.949 . S
C3400 C3408 1.574 . S
C3400 C3416 1.368 . S
H3401 C3409 0.950 . S
H3402 C3407 0.950 . S
H3403 C3408 0.949 . S
H3404 C3410 0.950 . S
H3405 C3411 0.950 . S
H3406 C3412 0.949 . S
C3407 H3402 0.950 . S
C3407 C3409 1.327 . S
C3407 C3413 1.429 . S
C3408 C3400 1.574 . S
C3408 H3403 0.949 . S
C3408 C3414 1.368 . S
C3409 C3393 1.349 . S
C3409 H3401 0.950 . S
C3409 C3407 1.327 . S
C3410 C3398 1.349 . S
C3410 H3404 0.950 . S
C3410 C3411 1.327 . S
C3411 H3405 0.950 . S
C3411 C3410 1.327 . S
C3411 C3415 1.429 . S
C3412 C3395 1.574 . S
C3412 H3406 0.949 . S
C3412 C3416 1.368 . S
C3413 C3394 1.429 . S
C3413 C3407 1.429 . S
C3413 C3414 1.523 . S
C3414 C3395 1.368 . S
C3414 C3408 1.368 . S
C3414 C3413 1.523 . S
C3415 C3399 1.429 . S
C3415 C3411 1.429 . S
C3415 C3416 1.523 . S
C3416 C3400 1.368 . S
C3416 C3412 1.368 . S
C3416 C3415 1.523 . S
H3417 C3392 0.950 . S
H3418 C3394 0.950 . S
H3419 C3395 0.949 . S
H3420 C3397 0.950 . S
H3421 C3399 0.950 . S
C3422 C3423 1.349 . S
C3422 C3424 1.327 . S
C3422 H3447 0.950 . S
C3423 C3422 1.349 . S
C3423 C3439 1.349 . S
C3424 C3422 1.327 . S
C3424 C3443 1.429 . S
C3424 H3448 0.950 . S
C3425 C3442 1.574 . S
C3425 C3444 1.368 . S
C3425 H3449 0.949 . S
H3426 C3430 0.949 . S
C3427 C3428 1.349 . S
C3427 C3429 1.327 . S
C3427 H3450 0.930 1_554 S
C3428 C3427 1.349 . S
C3428 C3440 1.349 . S
C3429 C3427 1.327 . S
C3429 C3445 1.429 . S
C3429 H3451 0.950 . S
C3430 H3426 0.949 . S
C3430 C3438 1.574 . S
C3430 C3446 1.368 . S
H3431 C3439 0.950 . S
H3432 C3437 0.950 . S
H3433 C3438 0.949 . S
H3434 C3440 0.950 . S
H3435 C3441 0.950 . S
H3436 C3442 0.949 . S
C3437 H3432 0.950 . S
C3437 C3439 1.327 . S
C3437 C3443 1.429 . S
C3438 C3430 1.574 . S
C3438 H3433 0.949 . S
C3438 C3444 1.368 . S
C3439 C3423 1.349 . S
C3439 H3431 0.950 . S
C3439 C3437 1.327 . S
C3440 C3428 1.349 . S
C3440 H3434 0.950 . S
C3440 C3441 1.327 . S
C3441 H3435 0.950 . S
C3441 C3440 1.327 . S
C3441 C3445 1.429 . S
C3442 C3425 1.574 . S
C3442 H3436 0.949 . S
C3442 C3446 1.368 . S
C3443 C3424 1.429 . S
C3443 C3437 1.429 . S
C3443 C3444 1.523 . S
C3444 C3425 1.368 . S
C3444 C3438 1.368 . S
C3444 C3443 1.523 . S
C3445 C3429 1.429 . S
C3445 C3441 1.429 . S
C3445 C3446 1.523 . S
C3446 C3430 1.368 . S
C3446 C3442 1.368 . S
C3446 C3445 1.523 . S
H3447 C3422 0.950 . S
H3448 C3424 0.950 . S
H3449 C3425 0.949 . S
H3450 C3427 0.930 1_556 S
H3451 C3429 0.950 . S
C3452 C3453 1.349 . S
C3452 C3454 1.327 . S
C3452 H3477 0.950 . S
C3453 C3452 1.349 . S
C3453 C3469 1.349 . S
C3454 C3452 1.327 . S
C3454 C3473 1.429 . S
C3454 H3478 0.950 . S
C3455 C3472 1.574 . S
C3455 C3474 1.368 . S
C3455 H3479 0.949 . S
H3456 C3460 0.949 . S
C3457 C3458 1.349 . S
C3457 C3459 1.327 . S
C3457 H3480 0.950 . S
C3458 C3457 1.349 . S
C3458 C3470 1.349 . S
C3459 C3457 1.327 . S
C3459 C3475 1.429 . S
C3459 H3481 0.950 . S
C3460 H3456 0.949 . S
C3460 C3468 1.574 . S
C3460 C3476 1.368 . S
H3461 C3469 0.950 . S
H3462 C3467 0.950 . S
H3463 C3468 0.949 . S
H3464 C3470 0.950 . S
H3465 C3471 0.950 . S
H3466 C3472 0.949 . S
C3467 H3462 0.950 . S
C3467 C3469 1.327 . S
C3467 C3473 1.429 . S
C3468 C3460 1.574 . S
C3468 H3463 0.949 . S
C3468 C3474 1.368 . S
C3469 C3453 1.349 . S
C3469 H3461 0.950 . S
C3469 C3467 1.327 . S
C3470 C3458 1.349 . S
C3470 H3464 0.950 . S
C3470 C3471 1.327 . S
C3471 H3465 0.950 . S
C3471 C3470 1.327 . S
C3471 C3475 1.429 . S
C3472 C3455 1.574 . S
C3472 H3466 0.949 . S
C3472 C3476 1.368 . S
C3473 C3454 1.429 . S
C3473 C3467 1.429 . S
C3473 C3474 1.523 . S
C3474 C3455 1.368 . S
C3474 C3468 1.368 . S
C3474 C3473 1.523 . S
C3475 C3459 1.429 . S
C3475 C3471 1.429 . S
C3475 C3476 1.523 . S
C3476 C3460 1.368 . S
C3476 C3472 1.368 . S
C3476 C3475 1.523 . S
H3477 C3452 0.950 . S
H3478 C3454 0.950 . S
H3479 C3455 0.949 . S
H3480 C3457 0.950 . S
H3481 C3459 0.950 . S
C3482 C3483 1.349 . S
C3482 C3484 1.327 . S
C3482 H3507 0.950 . S
C3483 C3482 1.349 . S
C3483 C3499 1.349 . S
C3484 C3482 1.327 . S
C3484 C3503 1.429 . S
C3484 H3508 0.950 . S
C3485 C3502 1.574 . S
C3485 C3504 1.368 . S
C3485 H3509 0.949 . S
H3486 C3490 0.949 . S
C3487 C3488 1.349 . S
C3487 C3489 1.327 . S
C3487 H3510 0.950 . S
C3488 C3487 1.349 . S
C3488 C3500 1.349 . S
C3489 C3487 1.327 . S
C3489 C3505 1.429 . S
C3489 H3511 0.950 . S
C3490 H3486 0.949 . S
C3490 C3498 1.574 . S
C3490 C3506 1.368 . S
H3491 C3499 0.950 . S
H3492 C3497 0.950 . S
H3493 C3498 0.949 . S
H3494 C3500 0.950 . S
H3495 C3501 0.950 . S
H3496 C3502 0.949 . S
C3497 H3492 0.950 . S
C3497 C3499 1.327 . S
C3497 C3503 1.429 . S
C3498 C3490 1.574 . S
C3498 H3493 0.949 . S
C3498 C3504 1.368 . S
C3499 C3483 1.349 . S
C3499 H3491 0.950 . S
C3499 C3497 1.327 . S
C3500 C3488 1.349 . S
C3500 H3494 0.950 . S
C3500 C3501 1.327 . S
C3501 H3495 0.950 . S
C3501 C3500 1.327 . S
C3501 C3505 1.429 . S
C3502 C3485 1.574 . S
C3502 H3496 0.949 . S
C3502 C3506 1.368 . S
C3503 C3484 1.429 . S
C3503 C3497 1.429 . S
C3503 C3504 1.523 . S
C3504 C3485 1.368 . S
C3504 C3498 1.368 . S
C3504 C3503 1.523 . S
C3505 C3489 1.429 . S
C3505 C3501 1.429 . S
C3505 C3506 1.523 . S
C3506 C3490 1.368 . S
C3506 C3502 1.368 . S
C3506 C3505 1.523 . S
H3507 C3482 0.950 . S
H3508 C3484 0.950 . S
H3509 C3485 0.949 . S
H3510 C3487 0.950 . S
H3511 C3489 0.950 . S
C633 C101 1.280 . S
C638 C316 1.118 . S
C663 C57 1.383 . S
C668 C351 1.341 . S
C693 C70 0.843 . S
C698 C356 0.809 . S
C728 C381 1.318 . S
C723 C82 1.413 . S
C753 C23 1.413 . S
C758 C401 1.318 . S
C788 C416 0.809 . S
C783 C29 0.844 . S
C818 C451 1.331 . S
C813 C49 1.374 . S
C843 C10 1.280 . S
C848 C456 1.118 . S
C878 C331 1.354 . S
C873 C218 1.423 . S
C903 C226 0.850 . S
C908 C341 0.822 . S
C938 C371 1.339 1_565 S
C933 C251 1.383 . S
C968 C376 0.934 . S
C963 C159 0.985 1_556 S
C993 C211 1.010 . S
C998 C396 0.934 . S
C1028 C431 1.340 . S
C1023 C225 1.384 . S
C1058 C441 0.821 . S
C1053 C252 0.849 . S
C1088 C471 1.354 . S
C1083 C166 1.422 . S
C1118 C321 1.231 . S
C1113 C147 1.359 . S
C1143 C263 1.649 . S
C1148 C491 1.612 . S
C1178 C501 1.348 . S
C1173 C309 1.461 . S
C1208 C516 0.824 . S
C1203 C291 0.864 . S
C1233 C108 1.361 . S
C1238 C461 1.232 . S
C1263 C121 1.464 . S
C1268 C361 1.352 . S
C1293 C302 1.651 . S
C1298 C551 1.614 . S
C1328 C556 0.824 . S
C1323 C276 0.864 . S
C1358 C314 1.355 . S
C1353 C55 1.488 . S
C1388 C570 1.657 . S
C1383 C96 1.694 . S
C1413 C88 1.181 . S
C1418 C354 1.097 . S
C1443 C75 1.692 . S
C1448 C544 1.613 . S
C1478 C404 1.613 . S
C1473 C4 1.692 . S
C1503 C44 1.190 . S
C1508 C494 1.106 . S
C1538 C450 1.656 . S
C1533 C31 1.693 . S
C1568 C574 1.356 . S
C1563 C18 1.488 . S
C1598 C330 1.645 1_556 S
C1593 C133 1.700 . S
C1628 C564 1.113 . S
C1623 C296 1.164 . S
C1653 C107 1.668 . S
C1658 C370 1.630 . S
C1683 C264 1.350 . S
C1688 C534 1.249 . S
C1713 C140 1.350 . S
C1718 C394 1.265 . S
C1748 C510 1.631 . S
C1743 C289 1.669 . S
C1773 C114 1.168 . S
C1778 C444 1.116 . S
C1803 C265 1.701 . S
C1808 C590 1.646 . S
C1833 C179 1.541 . S
C1838 C324 1.449 . S
C1863 C161 1.966 . S
C1868 C490 1.927 . S
C1893 C244 1.713 . S
C1898 C424 1.625 . S
C1923 C224 1.200 . S
C1928 C514 1.120 . S
C1958 C584 1.448 . S
C1953 C257 1.540 . S
C1983 C199 1.712 . S
C1988 C364 1.624 . S
C2018 C390 1.926 . S
C2013 C237 1.964 . S
C2048 C334 1.119 . S
C2043 C185 1.199 . S
C2073 C69 1.281 . S
C2078 C596 1.119 . S
C2108 C571 1.341 . S
C2103 C83 1.383 . S
C2133 C94 0.845 . S
C2138 C616 0.809 . S
C2163 C56 1.413 . S
C2168 C541 1.318 . S
C2193 C42 1.423 . S
C2198 C481 1.327 . S
C2228 C496 0.809 . S
C2223 C3 0.845 . S
C2258 C531 1.341 . S
C2253 C16 1.384 . S
C2288 C576 1.119 . S
C2283 C36 1.280 . S
C2318 C611 1.354 . S
C2313 C238 1.423 . S
C2343 C174 0.849 . S
C2348 C561 0.821 . S
C2378 C631 1.340 . S
C2373 C186 1.383 . S
C2408 C536 0.933 . S
C2403 C198 1.010 . S
C2438 C476 0.934 . S
C2433 C239 1.011 . S
C2463 C173 1.383 . S
C2468 C511 1.339 . S
C2498 C521 0.822 . S
C2493 C187 0.850 . S
C2523 C205 1.422 . S
C2528 C591 1.354 . S
C2558 C601 1.230 . S
C2553 C290 1.358 . S
C2583 C122 1.651 . S
C2588 C411 1.613 . S
C2618 C421 1.353 . S
C2613 C134 1.465 . S
C2648 C436 0.824 . S
C2643 C148 0.864 . S
C2678 C581 1.229 . S
C2673 C283 1.357 . S
C2703 C270 1.463 . S
C2708 C621 1.350 . S
C2738 C391 1.613 . S
C2733 C135 1.651 . S
C2768 C336 0.823 . S
C2763 C109 0.863 . S
C2793 C81 1.488 . S
C2798 C594 1.355 . S
C2828 C350 1.657 . S
C2823 C68 1.694 . S
C2853 C62 1.181 . S
C2858 C614 1.097 . S
C2883 C95 1.691 . S
C2888 C384 1.613 . S
C2913 C30 1.692 . S
C2918 C484 1.613 . S
C2948 C414 1.097 . S
C2943 C17 1.181 . S
C2973 C5 1.694 . S
C2978 C530 1.657 . S
C3003 C43 1.480 . S
C3008 C454 1.346 . S
C3038 C610 1.645 . S
C3033 C304 1.700 . S
C3063 C153 1.163 . S
C3068 C344 1.112 . S
C3098 C630 1.670 . S
C3093 C278 1.668 . S
C3123 C127 1.349 . S
C3128 C374 1.248 . S
C3153 C303 1.345 . S
C3158 C474 1.245 . S
C3188 C430 1.629 . S
C3183 C146 1.667 . S
C3213 C277 1.164 . S
C3218 C524 1.113 . S
C3248 C470 1.644 . S
C3243 C120 1.699 . S
C3278 C604 1.449 . S
C3273 C231 1.541 . S
C3308 C410 1.926 . S
C3303 C200 1.965 . S
C3333 C212 1.715 . S
C3338 C504 1.627 . S
C3368 C434 1.119 . S
C3363 C172 1.199 . S
C3393 C192 1.538 . S
C3398 C464 1.445 . S
C3423 C160 1.712 . S
C3428 C624 1.624 . S
C3458 C550 1.927 . S
C3453 C213 1.966 . S
C3488 C554 1.120 . S
C3483 C250 1.200 . S
