# Generated by pormake.
# Topology iac, (4,6)-cn, num edge types: 1
# Building blocks:
#     Node 0, Type 0, BuildingBlock: CEKHIL_clean_sbu_0, # of connection points: 4
#     Node 1, Type 0, BuildingBlock: CEKHIL_clean_sbu_0, # of connection points: 4
#     Node 2, Type 0, BuildingBlock: CEKHIL_clean_sbu_0, # of connection points: 4
#     Node 3, Type 0, BuildingBlock: CEKHIL_clean_sbu_0, # of connection points: 4
#     Node 4, Type 0, BuildingBlock: CEKHIL_clean_sbu_0, # of connection points: 4
#     Node 5, Type 0, BuildingBlock: CEKHIL_clean_sbu_0, # of connection points: 4
#     Node 6, Type 0, BuildingBlock: CEKHIL_clean_sbu_0, # of connection points: 4
#     Node 7, Type 0, BuildingBlock: CEKHIL_clean_sbu_0, # of connection points: 4
#     Node 8, Type 0, BuildingBlock: CEKHIL_clean_sbu_0, # of connection points: 4
#     Node 9, Type 0, BuildingBlock: CEKHIL_clean_sbu_0, # of connection points: 4
#     Node 10, Type 0, BuildingBlock: CEKHIL_clean_sbu_0, # of connection points: 4
#     Node 11, Type 0, BuildingBlock: CEKHIL_clean_sbu_0, # of connection points: 4
#     Node 12, Type 0, BuildingBlock: CEKHIL_clean_sbu_0, # of connection points: 4
#     Node 13, Type 0, BuildingBlock: CEKHIL_clean_sbu_0, # of connection points: 4
#     Node 14, Type 0, BuildingBlock: CEKHIL_clean_sbu_0, # of connection points: 4
#     Node 15, Type 0, BuildingBlock: CEKHIL_clean_sbu_0, # of connection points: 4
#     Node 16, Type 0, BuildingBlock: CEKHIL_clean_sbu_0, # of connection points: 4
#     Node 17, Type 0, BuildingBlock: CEKHIL_clean_sbu_0, # of connection points: 4
#     Node 18, Type 0, BuildingBlock: CEKHIL_clean_sbu_0, # of connection points: 4
#     Node 19, Type 0, BuildingBlock: CEKHIL_clean_sbu_0, # of connection points: 4
#     Node 20, Type 0, BuildingBlock: CEKHIL_clean_sbu_0, # of connection points: 4
#     Node 21, Type 0, BuildingBlock: CEKHIL_clean_sbu_0, # of connection points: 4
#     Node 22, Type 0, BuildingBlock: CEKHIL_clean_sbu_0, # of connection points: 4
#     Node 23, Type 0, BuildingBlock: CEKHIL_clean_sbu_0, # of connection points: 4
#     Node 24, Type 1, BuildingBlock: VOLQOD_clean_sbu_1, # of connection points: 6
#     Node 25, Type 1, BuildingBlock: VOLQOD_clean_sbu_1, # of connection points: 6
#     Node 26, Type 1, BuildingBlock: VOLQOD_clean_sbu_1, # of connection points: 6
#     Node 27, Type 1, BuildingBlock: VOLQOD_clean_sbu_1, # of connection points: 6
#     Node 28, Type 1, BuildingBlock: VOLQOD_clean_sbu_1, # of connection points: 6
#     Node 29, Type 1, BuildingBlock: VOLQOD_clean_sbu_1, # of connection points: 6
#     Node 30, Type 1, BuildingBlock: VOLQOD_clean_sbu_1, # of connection points: 6
#     Node 31, Type 1, BuildingBlock: VOLQOD_clean_sbu_1, # of connection points: 6
#     Node 32, Type 1, BuildingBlock: VOLQOD_clean_sbu_1, # of connection points: 6
#     Node 33, Type 1, BuildingBlock: VOLQOD_clean_sbu_1, # of connection points: 6
#     Node 34, Type 1, BuildingBlock: VOLQOD_clean_sbu_1, # of connection points: 6
#     Node 35, Type 1, BuildingBlock: VOLQOD_clean_sbu_1, # of connection points: 6
#     Node 36, Type 1, BuildingBlock: VOLQOD_clean_sbu_1, # of connection points: 6
#     Node 37, Type 1, BuildingBlock: VOLQOD_clean_sbu_1, # of connection points: 6
#     Node 38, Type 1, BuildingBlock: VOLQOD_clean_sbu_1, # of connection points: 6
#     Node 39, Type 1, BuildingBlock: VOLQOD_clean_sbu_1, # of connection points: 6
#     Edge 40, Type (0, 1), BuildingBlock: UVAHIK_clean_linker_0, # of connection points: 2
#     Edge 41, Type (0, 1), BuildingBlock: UVAHIK_clean_linker_0, # of connection points: 2
#     Edge 42, Type (0, 1), BuildingBlock: UVAHIK_clean_linker_0, # of connection points: 2
#     Edge 43, Type (0, 1), BuildingBlock: UVAHIK_clean_linker_0, # of connection points: 2
#     Edge 44, Type (0, 1), BuildingBlock: UVAHIK_clean_linker_0, # of connection points: 2
#     Edge 45, Type (0, 1), BuildingBlock: UVAHIK_clean_linker_0, # of connection points: 2
#     Edge 46, Type (0, 1), BuildingBlock: UVAHIK_clean_linker_0, # of connection points: 2
#     Edge 47, Type (0, 1), BuildingBlock: UVAHIK_clean_linker_0, # of connection points: 2
#     Edge 48, Type (0, 1), BuildingBlock: UVAHIK_clean_linker_0, # of connection points: 2
#     Edge 49, Type (0, 1), BuildingBlock: UVAHIK_clean_linker_0, # of connection points: 2
#     Edge 50, Type (0, 1), BuildingBlock: UVAHIK_clean_linker_0, # of connection points: 2
#     Edge 51, Type (0, 1), BuildingBlock: UVAHIK_clean_linker_0, # of connection points: 2
#     Edge 52, Type (0, 1), BuildingBlock: UVAHIK_clean_linker_0, # of connection points: 2
#     Edge 53, Type (0, 1), BuildingBlock: UVAHIK_clean_linker_0, # of connection points: 2
#     Edge 54, Type (0, 1), BuildingBlock: UVAHIK_clean_linker_0, # of connection points: 2
#     Edge 55, Type (0, 1), BuildingBlock: UVAHIK_clean_linker_0, # of connection points: 2
#     Edge 56, Type (0, 1), BuildingBlock: UVAHIK_clean_linker_0, # of connection points: 2
#     Edge 57, Type (0, 1), BuildingBlock: UVAHIK_clean_linker_0, # of connection points: 2
#     Edge 58, Type (0, 1), BuildingBlock: UVAHIK_clean_linker_0, # of connection points: 2
#     Edge 59, Type (0, 1), BuildingBlock: UVAHIK_clean_linker_0, # of connection points: 2
#     Edge 60, Type (0, 1), BuildingBlock: UVAHIK_clean_linker_0, # of connection points: 2
#     Edge 61, Type (0, 1), BuildingBlock: UVAHIK_clean_linker_0, # of connection points: 2
#     Edge 62, Type (0, 1), BuildingBlock: UVAHIK_clean_linker_0, # of connection points: 2
#     Edge 63, Type (0, 1), BuildingBlock: UVAHIK_clean_linker_0, # of connection points: 2
#     Edge 64, Type (0, 1), BuildingBlock: UVAHIK_clean_linker_0, # of connection points: 2
#     Edge 65, Type (0, 1), BuildingBlock: UVAHIK_clean_linker_0, # of connection points: 2
#     Edge 66, Type (0, 1), BuildingBlock: UVAHIK_clean_linker_0, # of connection points: 2
#     Edge 67, Type (0, 1), BuildingBlock: UVAHIK_clean_linker_0, # of connection points: 2
#     Edge 68, Type (0, 1), BuildingBlock: UVAHIK_clean_linker_0, # of connection points: 2
#     Edge 69, Type (0, 1), BuildingBlock: UVAHIK_clean_linker_0, # of connection points: 2
#     Edge 70, Type (0, 1), BuildingBlock: UVAHIK_clean_linker_0, # of connection points: 2
#     Edge 71, Type (0, 1), BuildingBlock: UVAHIK_clean_linker_0, # of connection points: 2
#     Edge 72, Type (0, 1), BuildingBlock: UVAHIK_clean_linker_0, # of connection points: 2
#     Edge 73, Type (0, 1), BuildingBlock: UVAHIK_clean_linker_0, # of connection points: 2
#     Edge 74, Type (0, 1), BuildingBlock: UVAHIK_clean_linker_0, # of connection points: 2
#     Edge 75, Type (0, 1), BuildingBlock: UVAHIK_clean_linker_0, # of connection points: 2
#     Edge 76, Type (0, 1), BuildingBlock: UVAHIK_clean_linker_0, # of connection points: 2
#     Edge 77, Type (0, 1), BuildingBlock: UVAHIK_clean_linker_0, # of connection points: 2
#     Edge 78, Type (0, 1), BuildingBlock: UVAHIK_clean_linker_0, # of connection points: 2
#     Edge 79, Type (0, 1), BuildingBlock: UVAHIK_clean_linker_0, # of connection points: 2
#     Edge 80, Type (0, 1), BuildingBlock: UVAHIK_clean_linker_0, # of connection points: 2
#     Edge 81, Type (0, 1), BuildingBlock: UVAHIK_clean_linker_0, # of connection points: 2
#     Edge 82, Type (0, 1), BuildingBlock: UVAHIK_clean_linker_0, # of connection points: 2
#     Edge 83, Type (0, 1), BuildingBlock: UVAHIK_clean_linker_0, # of connection points: 2
#     Edge 84, Type (0, 1), BuildingBlock: UVAHIK_clean_linker_0, # of connection points: 2
#     Edge 85, Type (0, 1), BuildingBlock: UVAHIK_clean_linker_0, # of connection points: 2
#     Edge 86, Type (0, 1), BuildingBlock: UVAHIK_clean_linker_0, # of connection points: 2
#     Edge 87, Type (0, 1), BuildingBlock: UVAHIK_clean_linker_0, # of connection points: 2
#     Edge 88, Type (0, 1), BuildingBlock: UVAHIK_clean_linker_0, # of connection points: 2
#     Edge 89, Type (0, 1), BuildingBlock: UVAHIK_clean_linker_0, # of connection points: 2
#     Edge 90, Type (0, 1), BuildingBlock: UVAHIK_clean_linker_0, # of connection points: 2
#     Edge 91, Type (0, 1), BuildingBlock: UVAHIK_clean_linker_0, # of connection points: 2
#     Edge 92, Type (0, 1), BuildingBlock: UVAHIK_clean_linker_0, # of connection points: 2
#     Edge 93, Type (0, 1), BuildingBlock: UVAHIK_clean_linker_0, # of connection points: 2
#     Edge 94, Type (0, 1), BuildingBlock: UVAHIK_clean_linker_0, # of connection points: 2
#     Edge 95, Type (0, 1), BuildingBlock: UVAHIK_clean_linker_0, # of connection points: 2
#     Edge 96, Type (0, 1), BuildingBlock: UVAHIK_clean_linker_0, # of connection points: 2
#     Edge 97, Type (0, 1), BuildingBlock: UVAHIK_clean_linker_0, # of connection points: 2
#     Edge 98, Type (0, 1), BuildingBlock: UVAHIK_clean_linker_0, # of connection points: 2
#     Edge 99, Type (0, 1), BuildingBlock: UVAHIK_clean_linker_0, # of connection points: 2
#     Edge 100, Type (0, 1), BuildingBlock: UVAHIK_clean_linker_0, # of connection points: 2
#     Edge 101, Type (0, 1), BuildingBlock: UVAHIK_clean_linker_0, # of connection points: 2
#     Edge 102, Type (0, 1), BuildingBlock: UVAHIK_clean_linker_0, # of connection points: 2
#     Edge 103, Type (0, 1), BuildingBlock: UVAHIK_clean_linker_0, # of connection points: 2
#     Edge 104, Type (0, 1), BuildingBlock: UVAHIK_clean_linker_0, # of connection points: 2
#     Edge 105, Type (0, 1), BuildingBlock: UVAHIK_clean_linker_0, # of connection points: 2
#     Edge 106, Type (0, 1), BuildingBlock: UVAHIK_clean_linker_0, # of connection points: 2
#     Edge 107, Type (0, 1), BuildingBlock: UVAHIK_clean_linker_0, # of connection points: 2
#     Edge 108, Type (0, 1), BuildingBlock: UVAHIK_clean_linker_0, # of connection points: 2
#     Edge 109, Type (0, 1), BuildingBlock: UVAHIK_clean_linker_0, # of connection points: 2
#     Edge 110, Type (0, 1), BuildingBlock: UVAHIK_clean_linker_0, # of connection points: 2
#     Edge 111, Type (0, 1), BuildingBlock: UVAHIK_clean_linker_0, # of connection points: 2
#     Edge 112, Type (0, 1), BuildingBlock: UVAHIK_clean_linker_0, # of connection points: 2
#     Edge 113, Type (0, 1), BuildingBlock: UVAHIK_clean_linker_0, # of connection points: 2
#     Edge 114, Type (0, 1), BuildingBlock: UVAHIK_clean_linker_0, # of connection points: 2
#     Edge 115, Type (0, 1), BuildingBlock: UVAHIK_clean_linker_0, # of connection points: 2
#     Edge 116, Type (0, 1), BuildingBlock: UVAHIK_clean_linker_0, # of connection points: 2
#     Edge 117, Type (0, 1), BuildingBlock: UVAHIK_clean_linker_0, # of connection points: 2
#     Edge 118, Type (0, 1), BuildingBlock: UVAHIK_clean_linker_0, # of connection points: 2
#     Edge 119, Type (0, 1), BuildingBlock: UVAHIK_clean_linker_0, # of connection points: 2
#     Edge 120, Type (0, 1), BuildingBlock: UVAHIK_clean_linker_0, # of connection points: 2
#     Edge 121, Type (0, 1), BuildingBlock: UVAHIK_clean_linker_0, # of connection points: 2
#     Edge 122, Type (0, 1), BuildingBlock: UVAHIK_clean_linker_0, # of connection points: 2
#     Edge 123, Type (0, 1), BuildingBlock: UVAHIK_clean_linker_0, # of connection points: 2
#     Edge 124, Type (0, 1), BuildingBlock: UVAHIK_clean_linker_0, # of connection points: 2
#     Edge 125, Type (0, 1), BuildingBlock: UVAHIK_clean_linker_0, # of connection points: 2
#     Edge 126, Type (0, 1), BuildingBlock: UVAHIK_clean_linker_0, # of connection points: 2
#     Edge 127, Type (0, 1), BuildingBlock: UVAHIK_clean_linker_0, # of connection points: 2
#     Edge 128, Type (0, 1), BuildingBlock: UVAHIK_clean_linker_0, # of connection points: 2
#     Edge 129, Type (0, 1), BuildingBlock: UVAHIK_clean_linker_0, # of connection points: 2
#     Edge 130, Type (0, 1), BuildingBlock: UVAHIK_clean_linker_0, # of connection points: 2
#     Edge 131, Type (0, 1), BuildingBlock: UVAHIK_clean_linker_0, # of connection points: 2
#     Edge 132, Type (0, 1), BuildingBlock: UVAHIK_clean_linker_0, # of connection points: 2
#     Edge 133, Type (0, 1), BuildingBlock: UVAHIK_clean_linker_0, # of connection points: 2
#     Edge 134, Type (0, 1), BuildingBlock: UVAHIK_clean_linker_0, # of connection points: 2
#     Edge 135, Type (0, 1), BuildingBlock: UVAHIK_clean_linker_0, # of connection points: 2
# Relax obj value: 0.303
# Max RMSD: 0.289
# Mean RMSD: 0.141
data_MOF--net-iac--node1-CEKHIL_clean_sbu_0--node2-VOLQOD_clean_sbu_1--edge1-UVAHIK_clean_linker_0
_symmetry_space_group_name_H-M    P1
_symmetry_Int_Tables_number       1
_symmetry_cell_setting            triclinic
loop_
_symmetry_equiv_pos_as_xyz
'x, y, z'
_cell_length_a     70.117409
_cell_length_b     69.270886
_cell_length_c     68.4444
_cell_angle_alpha  90.048111
_cell_angle_beta   90.26491
_cell_angle_gamma 90.722628
loop_
_atom_site_label
_atom_site_type_symbol
_atom_site_fract_x
_atom_site_fract_y
_atom_site_fract_z
_atom_type_partial_charge
Co0 Co 0.99448 0.27708 0.13183 0.0
O1 O 0.96748 0.28014 0.13282 0.0
O2 O 0.98454 0.26453 0.155 0.0
C3 C 0.0025 0.30746 0.12397 0.0
O4 O 0.02285 0.27205 0.13534 0.0
Co5 Co 0.01353 0.28137 0.09126 0.0
O6 O 0.03709 0.2816 0.10747 0.0
C7 C 0.99149 0.24645 0.09958 0.0
C8 C 0.96788 0.26994 0.14868 0.0
C9 C 0.03786 0.27602 0.12522 0.0
O10 O 0.99074 0.25212 0.11739 0.0
O11 O -0.0014 0.25686 0.08594 0.0
O12 O -0.0013 0.30298 0.14199 0.0
O13 O -0.00144 0.2942 0.11116 0.0
Co14 Co 0.02585 0.76555 0.35541 0.0
O15 O 0.04769 0.76327 0.33883 0.0
O16 O 0.02121 0.74542 0.33649 0.0
C17 C 0.02451 0.79785 0.35528 0.0
O18 O 0.00016 0.76406 0.36865 0.0
Co19 Co 0.0266 0.78603 0.39562 0.0
O20 O -0.00164 0.78661 0.39207 0.0
C21 C 0.0429 0.74711 0.39175 0.0
C22 C 0.03828 0.74935 0.33023 0.0
C23 C 0.99053 0.77433 0.38061 0.0
O24 O 0.0368 0.7461 0.37402 0.0
O25 O 0.04122 0.76217 0.40244 0.0
O26 O 0.01707 0.78808 0.34082 0.0
O27 O 0.0336 0.78801 0.36823 0.0
Co28 Co 0.49291 0.77676 0.63499 0.0
O29 O 0.46578 0.77849 0.63622 0.0
O30 O 0.48378 0.76207 0.65703 0.0
C31 C 0.5 0.80779 0.62939 0.0
O32 O 0.52134 0.7727 0.63843 0.0
Co33 Co 0.51234 0.78421 0.59521 0.0
O34 O 0.53601 0.78341 0.6112 0.0
C35 C 0.49108 0.74829 0.60062 0.0
C36 C 0.46683 0.76688 0.65106 0.0
C37 C 0.53644 0.77719 0.62872 0.0
O38 O 0.48999 0.75279 0.61874 0.0
O39 O 0.49841 0.75962 0.58787 0.0
O40 O 0.49619 0.80194 0.64702 0.0
O41 O 0.49647 0.79541 0.61556 0.0
Co42 Co 0.52111 0.2701 0.87147 0.0
O43 O 0.54817 0.26647 0.86953 0.0
O44 O 0.52626 0.25232 0.85065 0.0
C45 C 0.52102 0.30236 0.8745 0.0
O46 O 0.49236 0.27062 0.86827 0.0
Co47 Co 0.50228 0.28625 0.90886 0.0
O48 O 0.47911 0.2881 0.89217 0.0
C49 C 0.51825 0.24728 0.9092 0.0
C50 C 0.5441 0.25434 0.85554 0.0
C51 C 0.47801 0.27914 0.87592 0.0
O52 O 0.51983 0.24802 0.89051 0.0
O53 O 0.51278 0.26156 0.91954 0.0
O54 O 0.5227 0.29458 0.85728 0.0
O55 O 0.52172 0.29057 0.88909 0.0
Co56 Co 0.14058 0.01932 0.28327 0.0
O57 O 0.13438 0.99213 0.28211 0.0
O58 O 0.16155 0.00535 0.27207 0.0
C59 C 0.1307 0.02406 0.31415 0.0
O60 O 0.15269 0.04635 0.28291 0.0
Co61 Co 0.1094 0.05034 0.28961 0.0
O62 O 0.13128 0.06838 0.29238 0.0
C63 C 0.11197 0.02986 0.25186 0.0
C64 C 0.15121 0.98986 0.27467 0.0
C65 C 0.14815 0.06371 0.28761 0.0
O66 O 0.12828 0.02286 0.25669 0.0
O67 O 0.10174 0.0397 0.26356 0.0
O68 O 0.14746 0.01692 0.31097 0.0
O69 O 0.12011 0.02647 0.29894 0.0
Co70 Co 0.25201 0.90645 0.49085 0.0
O71 O 0.22487 0.90791 0.4932 0.0
O72 O 0.24573 0.92503 0.51078 0.0
C73 C 0.25303 0.90705 0.45822 0.0
O74 O 0.28087 0.90918 0.49213 0.0
Co75 Co 0.27094 0.87142 0.47055 0.0
O76 O 0.29484 0.88681 0.47336 0.0
C77 C 0.25254 0.86662 0.50884 0.0
C78 C 0.22805 0.92037 0.50706 0.0
C79 C 0.2957 0.90176 0.48421 0.0
O80 O 0.25186 0.88508 0.51077 0.0
O81 O 0.25817 0.85835 0.4932 0.0
O82 O 0.2518 0.92324 0.46773 0.0
O83 O 0.252 0.89146 0.46841 0.0
Co84 Co 0.36301 0.98289 0.76688 0.0
O85 O 0.37011 0.0099 0.76701 0.0
O86 O 0.34343 -0.0024 0.75432 0.0
C87 C 0.37134 0.97718 0.7981 0.0
O88 O 0.34979 0.95668 0.76467 0.0
Co89 Co 0.39149 0.94978 0.77389 0.0
O90 O 0.3684 0.93316 0.77624 0.0
C91 C 0.39402 0.97426 0.73869 0.0
C92 C 0.35404 0.0127 0.75793 0.0
C93 C 0.35237 0.93912 0.77004 0.0
O94 O 0.37675 0.9797 0.74138 0.0
O95 O 0.40292 0.9636 0.7509 0.0
O96 O 0.35487 0.9848 0.79418 0.0
O97 O 0.38232 0.97439 0.78335 0.0
Co98 Co 0.24513 0.10608 0.01469 0.0
O99 O 0.27158 0.105 0.02153 0.0
O100 O 0.25006 0.08205 0.02796 0.0
C101 C 0.24934 0.11626 0.98388 0.0
O102 O 0.21688 0.10184 0.00935 0.0
Co103 Co 0.226 0.1447 0.00339 0.0
O104 O 0.20426 0.12801 0.99515 0.0
C105 C 0.23783 0.13738 0.04417 0.0
C106 C 0.26759 0.08828 0.02915 0.0
C107 C 0.20311 0.11046 0.00062 0.0
O108 O 0.2402 0.11943 0.04022 0.0
O109 O 0.23358 0.14996 0.03121 0.0
O110 O 0.25051 0.09798 0.98794 0.0
O111 O 0.24722 0.12768 -0.00141 0.0
Co112 Co 0.76412 0.39364 -0.00301 0.0
O113 O 0.73737 0.38794 0.99411 0.0
O114 O 0.74952 0.41593 0.00422 0.0
C115 C 0.7735 0.38079 0.9686 0.0
O116 O 0.79079 0.40503 0.001 0.0
Co117 Co 0.7936 0.36062 -7e-05 0.0
O118 O 0.81217 0.38183 0.9952 0.0
C119 C 0.76814 0.36842 0.03294 0.0
C120 C 0.7345 0.40532 0.00049 0.0
C121 C 0.808 0.39945 -0.00191 0.0
O122 O 0.76285 0.3841 0.02466 0.0
O123 O 0.77942 0.35638 0.02499 0.0
O124 O 0.7665 0.39809 0.96896 0.0
O125 O 0.7728 0.37134 0.98483 0.0
Co126 Co 0.86492 0.48479 0.27053 0.0
O127 O 0.86895 0.51229 0.27161 0.0
O128 O 0.84621 0.49742 0.25446 0.0
C129 C 0.86793 0.47977 0.30281 0.0
O130 O 0.85516 0.45725 0.26675 0.0
Co131 Co 0.89586 0.45579 0.28265 0.0
O132 O 0.87535 0.43601 0.28012 0.0
C133 C 0.90108 0.48005 0.24784 0.0
C134 C 0.85433 0.5135 0.25996 0.0
C135 C 0.85949 0.44004 0.27207 0.0
O136 O 0.88306 0.48339 0.24782 0.0
O137 O 0.90929 0.47066 0.26153 0.0
O138 O 0.8518 0.48559 0.29559 0.0
O139 O 0.88187 0.47855 0.29062 0.0
Co140 Co 0.73669 0.62001 0.50006 0.0
O141 O 0.7613 0.63101 0.50625 0.0
O142 O 0.75285 0.60032 0.51062 0.0
C143 C 0.73345 0.63372 0.47053 0.0
O144 O 0.71326 0.60322 0.49511 0.0
Co145 Co 0.70113 0.64552 0.49408 0.0
O146 O 0.68905 0.62129 0.48432 0.0
C147 C 0.71911 0.642 0.53293 0.0
C148 C 0.76573 0.61388 0.51237 0.0
C149 C 0.69646 0.60494 0.48781 0.0
O150 O 0.72793 0.62697 0.527 0.0
O151 O 0.70892 0.65239 0.52157 0.0
O152 O 0.74328 0.61801 0.47243 0.0
O153 O 0.72737 0.64127 0.48653 0.0
Co154 Co 0.62982 0.51752 0.79085 0.0
O155 O 0.62593 0.4899 0.79126 0.0
O156 O 0.64957 0.50514 0.77609 0.0
C157 C 0.62522 0.52311 0.82286 0.0
O158 O 0.63931 0.54529 0.78787 0.0
Co159 Co 0.59762 0.54606 0.80176 0.0
O160 O 0.61809 0.56597 0.8004 0.0
C161 C 0.59536 0.52416 0.7649 0.0
C162 C 0.64119 0.48892 0.7806 0.0
C163 C 0.63432 0.56235 0.79306 0.0
O164 O 0.61291 0.51913 0.76686 0.0
O165 O 0.58633 0.5334 0.77806 0.0
O166 O 0.64165 0.51697 0.81686 0.0
O167 O 0.61191 0.52366 0.80981 0.0
Co168 Co 0.01272 0.76678 0.89031 0.0
O169 O 0.03688 0.7538 0.88999 0.0
O170 O 0.01574 0.75392 0.86576 0.0
C171 C 0.02382 0.79489 0.9024 0.0
O172 O 0.98727 0.77858 0.88412 0.0
Co173 Co 0.99286 0.78219 0.92729 0.0
O174 O 0.97344 0.79324 0.90944 0.0
C175 C 0.99161 0.74036 0.91832 0.0
C176 C 0.03233 0.74874 0.87224 0.0
C177 C 0.97381 0.78857 0.89146 0.0
O178 O -0.0002 0.74341 0.90181 0.0
O179 O 0.98889 0.75366 0.93097 0.0
O180 O 0.02533 0.79112 0.88387 0.0
O181 O 0.01686 0.78123 0.91317 0.0
Co182 Co 0.99492 0.26352 0.61258 0.0
O183 O 0.96815 0.26805 0.60937 0.0
O184 O 0.98135 0.25427 0.63524 0.0
C185 C 0.00408 0.29342 0.60336 0.0
O186 O 0.02174 0.2572 0.62167 0.0
Co187 Co 0.02216 0.26449 0.57802 0.0
O188 O 0.04279 0.26337 0.5979 0.0
C189 C 0.99764 0.2303 0.5835 0.0
C190 C 0.96608 0.2606 0.62662 0.0
C191 C 0.03895 0.25864 0.61542 0.0
O192 O 0.992 0.23764 0.59967 0.0
O193 O 0.00885 0.23927 0.57181 0.0
O194 O -0.00105 0.2898 0.62118 0.0
O195 O 0.00243 0.27914 0.59115 0.0
Co196 Co 0.50692 0.25694 0.39534 0.0
O197 O 0.52857 0.24005 0.3953 0.0
O198 O 0.50977 0.24586 0.36987 0.0
C199 C 0.52123 0.28177 0.41082 0.0
O200 O 0.48432 0.27359 0.38881 0.0
Co201 Co 0.48708 0.27196 0.43253 0.0
O202 O 0.47249 0.28902 0.41475 0.0
C203 C 0.48001 0.23184 0.41917 0.0
C204 C 0.52472 0.23737 0.37687 0.0
C205 C 0.47292 0.28579 0.39644 0.0
O206 O 0.48962 0.23514 0.40355 0.0
O207 O 0.4785 0.24416 0.43304 0.0
O208 O 0.52371 0.27925 0.39219 0.0
O209 O 0.51151 0.26849 0.41973 0.0
Co210 Co 0.49745 0.75781 0.1448 0.0
O211 O 0.47036 0.75483 0.14617 0.0
O212 O 0.49025 0.74843 0.17046 0.0
C213 C 0.49672 0.78751 0.13159 0.0
O214 O 0.52623 0.76005 0.14872 0.0
Co215 Co 0.51699 0.76218 0.10461 0.0
O216 O 0.53985 0.76898 0.1204 0.0
C217 C 0.50353 0.72375 0.11754 0.0
C218 C 0.47275 0.74967 0.1642 0.0
C219 C 0.54082 0.7655 0.13865 0.0
O220 O 0.4997 0.73071 0.13448 0.0
O221 O 0.50915 0.73421 0.1032 0.0
O222 O 0.49531 0.78516 0.15033 0.0
O223 O 0.49706 0.77184 0.1213 0.0
Co224 Co 0.90275 0.02559 0.76621 0.0
O225 O 0.91021 0.05106 0.75769 0.0
O226 O 0.88648 0.03361 0.74511 0.0
C227 C 0.9032 0.03268 0.79831 0.0
O228 O 0.88999 -0.00028 0.771 0.0
Co229 Co 0.9279 -0.0001 0.79262 0.0
O230 O 0.90628 0.98109 0.79183 0.0
C231 C 0.93551 0.00208 0.7502 0.0
C232 C 0.8958 0.04993 0.7457 0.0
C233 C 0.89203 0.98401 0.78065 0.0
O234 O 0.92091 0.01293 0.74765 0.0
O235 O 0.94145 0.99678 0.76706 0.0
O236 O 0.88847 0.03689 0.78765 0.0
O237 O 0.91753 0.02548 0.78916 0.0
Co238 Co 0.77732 0.14214 0.4877 0.0
O239 O 0.8042 0.13973 0.49215 0.0
O240 O 0.78172 0.12249 0.50702 0.0
C241 C 0.7796 0.14201 0.45503 0.0
O242 O 0.74855 0.13961 0.48667 0.0
Co243 Co 0.75953 0.17681 0.4666 0.0
O244 O 0.73505 0.16215 0.46789 0.0
C245 C 0.7708 0.18043 0.50809 0.0
C246 C 0.79977 0.12576 0.504 0.0
C247 C 0.73386 0.14717 0.47861 0.0
O248 O 0.77544 0.16253 0.50833 0.0
O249 O 0.76537 0.18917 0.49259 0.0
O250 O 0.77924 0.12592 0.46471 0.0
O251 O 0.77955 0.15771 0.4653 0.0
Co252 Co 0.62427 0.98614 0.27797 0.0
O253 O 0.62199 0.95906 0.27203 0.0
O254 O 0.64438 0.97892 0.26065 0.0
C255 C 0.61998 0.98233 0.31027 0.0
O256 O 0.63231 0.01404 0.28084 0.0
Co257 Co 0.59258 0.01043 0.29658 0.0
O258 O 0.61066 0.03269 0.29529 0.0
C259 C 0.5912 0.00156 0.25428 0.0
C260 C 0.63755 0.96146 0.26201 0.0
C261 C 0.62674 0.03046 0.28712 0.0
O262 O 0.60744 0.99319 0.25536 0.0
O263 O 0.58235 0.00794 0.26923 0.0
O264 O 0.63667 0.97982 0.30259 0.0
O265 O 0.6063 0.98629 0.29825 0.0
Co266 Co 0.72787 0.85337 0.00216 0.0
O267 O 0.70127 0.84672 0.005 0.0
O268 O 0.71717 0.86791 0.02329 0.0
C269 C 0.72693 0.85726 0.96956 0.0
O270 O 0.75453 0.865 0.00338 0.0
Co271 Co 0.75595 0.82887 0.97776 0.0
O272 O 0.77428 0.85046 0.98243 0.0
C273 C 0.7463 0.81698 0.01808 0.0
C274 C 0.70094 0.85989 0.01853 0.0
C275 C 0.77082 0.86349 0.99504 0.0
O276 O 0.73591 0.83203 0.02033 0.0
O277 O 0.75427 0.81259 0.0019 0.0
O278 O 0.72133 0.87098 0.98102 0.0
O279 O 0.73137 0.84122 0.97796 0.0
Co280 Co 0.28001 0.66936 0.9959 0.0
O281 O 0.30727 0.66995 -0.00165 0.0
O282 O 0.28798 0.64971 0.014 0.0
C283 C 0.27969 0.67047 0.96316 0.0
O284 O 0.25156 0.66371 -0.00334 0.0
Co285 Co 0.25794 0.70324 0.97781 0.0
O286 O 0.23496 0.68655 0.98103 0.0
C287 C 0.27114 0.70593 0.01864 0.0
C288 C 0.30531 0.65524 0.00993 0.0
C289 C 0.23578 0.67074 0.99047 0.0
O290 O 0.27739 0.6886 0.01755 0.0
O291 O 0.26414 0.71494 0.00399 0.0
O292 O 0.28194 0.65422 0.97224 0.0
O293 O 0.27905 0.68577 0.97401 0.0
Co294 Co 0.1122 0.48304 0.78056 0.0
O295 O 0.10659 0.4563 0.77535 0.0
O296 O 0.13128 0.47276 0.76356 0.0
C297 C 0.10765 0.48036 0.81297 0.0
O298 O 0.12356 0.50991 0.7828 0.0
Co299 Co 0.08365 0.51129 0.79865 0.0
O300 O 0.10435 0.53104 0.79743 0.0
C301 C 0.08114 0.50179 0.75652 0.0
C302 C 0.12244 0.45629 0.76558 0.0
C303 C 0.11997 0.52692 0.78908 0.0
O304 O 0.09633 0.49162 0.75773 0.0
O305 O 0.07311 0.50942 0.77136 0.0
O306 O 0.12384 0.47578 0.80523 0.0
O307 O 0.09447 0.48574 0.80094 0.0
Co308 Co 0.22185 0.37043 0.49814 0.0
O309 O 0.19529 0.36524 0.50296 0.0
O310 O 0.21256 0.38823 0.51735 0.0
C311 C 0.21899 0.36935 0.46545 0.0
O312 O 0.24887 0.38107 0.49674 0.0
Co313 Co 0.24813 0.34199 0.47705 0.0
O314 O 0.26762 0.36301 0.47787 0.0
C315 C 0.23868 0.33559 0.51856 0.0
C316 C 0.19599 0.38 0.51468 0.0
C317 C 0.2649 0.37786 0.48843 0.0
O318 O 0.22963 0.35162 0.51892 0.0
O319 O 0.24593 0.32859 0.50299 0.0
O320 O 0.21513 0.38505 0.47494 0.0
O321 O 0.22355 0.35456 0.47593 0.0
Co322 Co 0.40986 0.52263 0.25835 0.0
O323 O 0.41496 0.54878 0.25021 0.0
O324 O 0.38944 0.53145 0.24189 0.0
C325 C 0.41684 0.52825 0.28997 0.0
O326 O 0.39872 0.49619 0.26406 0.0
Co327 Co 0.43972 0.49612 0.2775 0.0
O328 O 0.41889 0.47655 0.27961 0.0
C329 C 0.43844 0.50033 0.23438 0.0
C330 C 0.3983 0.54805 0.24182 0.0
C331 C 0.40272 0.47991 0.27188 0.0
O332 O 0.42391 0.51149 0.23544 0.0
O333 O 0.44743 0.49414 0.2494 0.0
O334 O 0.40011 0.53222 0.28301 0.0
O335 O 0.42914 0.52182 0.27763 0.0
O336 O 0.967 0.04906 0.04315 0.0
Zn337 Zn 0.97678 0.02871 0.02583 0.0
O338 O 0.97312 0.00391 0.03837 0.0
Zn339 Zn 0.99736 0.99102 0.0417 0.0
Zn340 Zn 0.96003 0.00651 0.06358 0.0
Zn341 Zn 0.95839 0.98837 0.02062 0.0
O342 O -0.00053 0.96656 0.02598 0.0
O343 O 0.97482 0.97006 0.00592 0.0
O344 O 0.00439 0.03408 0.01961 0.0
O345 O 0.01832 0.00796 0.03147 0.0
O346 O 0.00314 0.9865 0.06995 0.0
O347 O 0.97861 -0.00039 0.08535 0.0
O348 O 0.93678 0.98807 0.06453 0.0
O349 O 0.96096 0.03149 0.00154 0.0
O350 O 0.93942 0.97336 0.03569 0.0
O351 O 0.9444 0.00408 0.00077 0.0
C352 C 0.9571 0.04982 0.05863 0.0
C353 C 0.99022 0.96175 0.01066 0.0
C354 C 0.99484 0.99145 0.08565 0.0
C355 C 0.01928 0.02425 0.02293 0.0
C356 C 0.93159 0.97503 0.05231 0.0
C357 C 0.94782 0.02092 0.99418 0.0
O358 O 0.95243 0.03465 0.06816 0.0
O359 O 0.23925 0.73111 0.22834 0.0
Zn360 Zn 0.24131 0.72697 0.25734 0.0
O361 O 0.24867 0.75071 0.27062 0.0
Zn362 Zn 0.27103 0.74595 0.28688 0.0
Zn363 Zn 0.25458 0.77081 0.25159 0.0
Zn364 Zn 0.22787 0.75924 0.28688 0.0
O365 O 0.26829 0.75812 0.31347 0.0
O366 O 0.23766 0.76583 0.3135 0.0
O367 O 0.26063 0.70647 0.26239 0.0
O368 O 0.27816 0.71772 0.28715 0.0
O369 O 0.29384 0.75861 0.275 0.0
O370 O 0.28297 0.77624 0.25042 0.0
O371 O 0.23978 0.79497 0.25668 0.0
O372 O 0.2159 0.71712 0.2666 0.0
O373 O 0.21748 0.78474 0.27736 0.0
O374 O 0.20689 0.73907 0.28829 0.0
C375 C 0.24148 0.74602 0.21768 0.0
C376 C 0.25394 0.76562 0.32179 0.0
C377 C 0.29674 0.77001 0.26076 0.0
C378 C 0.27379 0.70432 0.27507 0.0
C379 C 0.22461 0.79782 0.26639 0.0
C380 C 0.20404 0.72326 0.2791 0.0
O381 O 0.24691 0.76211 0.22487 0.0
O382 O 0.53099 0.98338 0.54716 0.0
Zn383 Zn 0.51802 -0.00163 0.52647 0.0
O384 O 0.51829 0.02549 0.53372 0.0
Zn385 Zn 0.49248 0.03425 0.53812 0.0
Zn386 Zn 0.53439 0.02997 0.55684 0.0
Zn387 Zn 0.52817 0.0398 0.51194 0.0
O388 O 0.48451 0.05494 0.51919 0.0
O389 O 0.5075 0.05306 0.49709 0.0
O390 O 0.49123 0.98796 0.52305 0.0
O391 O 0.47392 0.01242 0.53367 0.0
O392 O 0.48934 0.04314 0.56569 0.0
O393 O 0.51814 0.0399 0.57889 0.0
O394 O 0.55557 0.04954 0.55081 0.0
O395 O 0.53343 0.99321 0.50245 0.0
O396 O 0.54707 0.05947 0.52114 0.0
O397 O 0.54233 0.02272 0.4937 0.0
C398 C 0.54181 0.98732 0.56162 0.0
C399 C 0.49134 0.05918 0.50251 0.0
C400 C 0.5006 0.04433 0.58031 0.0
C401 C 0.47515 0.99525 0.52719 0.0
C402 C 0.55767 0.06086 0.53623 0.0
C403 C 0.54292 0.00452 0.49147 0.0
O404 O 0.54529 0.00468 0.56689 0.0
O405 O 0.24647 0.23342 0.80412 0.0
Zn406 Zn 0.25463 0.25316 0.78439 0.0
O407 O 0.25061 0.24306 0.75801 0.0
Zn408 Zn 0.27482 0.23912 0.74455 0.0
Zn409 Zn 0.23569 0.21893 0.75873 0.0
Zn410 Zn 0.23672 0.26221 0.74397 0.0
O411 O 0.27569 0.25226 0.71809 0.0
O412 O 0.24876 0.26868 0.71868 0.0
O413 O 0.28258 0.25849 0.78864 0.0
O414 O 0.29662 0.24917 0.76119 0.0
O415 O 0.27872 0.21084 0.73986 0.0
O416 O 0.25049 0.1974 0.74637 0.0
O417 O 0.20954 0.2217 0.74584 0.0
O418 O 0.24086 0.27831 0.78945 0.0
O419 O 0.21033 0.25293 0.73842 0.0
O420 O 0.23458 0.28657 0.75878 0.0
C421 C 0.2378 0.21719 0.80302 0.0
C422 C 0.26401 0.26382 0.71015 0.0
C423 C 0.26767 0.19613 0.74055 0.0
C424 C 0.2975 0.25633 0.77835 0.0
C425 C 0.20151 0.2368 0.73925 0.0
C426 C 0.23536 0.29056 0.77685 0.0
O427 O 0.23237 0.21021 0.78665 0.0
O428 O 0.00488 -0.00228 0.48231 0.0
Zn429 Zn 0.98729 0.98259 0.49993 0.0
O430 O 0.99756 0.98147 0.52617 0.0
Zn431 Zn 0.00738 0.95593 0.53231 0.0
Zn432 Zn 0.01791 0.00044 0.52903 0.0
Zn433 Zn 0.97693 0.98791 0.54334 0.0
O434 O 0.99536 0.94564 0.55722 0.0
O435 O 0.97563 0.96924 0.56533 0.0
O436 O 0.98594 0.95598 0.48889 0.0
O437 O 0.00255 0.93763 0.5094 0.0
O438 O 0.03557 0.95773 0.53856 0.0
O439 O 0.04058 0.98924 0.5425 0.0
O440 O 0.00907 0.02373 0.54353 0.0
O441 O 0.9607 0.99348 0.49924 0.0
O442 O 0.97994 0.0153 0.55325 0.0
O443 O 0.95181 0.98738 0.52967 0.0
C444 C 0.02034 0.00711 0.48544 0.0
C445 C 0.98324 0.95301 0.56878 0.0
C446 C 0.04624 0.9719 0.54377 0.0
C447 C 0.9931 0.93983 0.49356 0.0
C448 C 0.99351 0.02764 0.55209 0.0
C449 C 0.94781 0.99226 0.51226 0.0
O450 O 0.02703 0.00915 0.50265 0.0
O451 O 0.27927 0.72611 0.71325 0.0
Zn452 Zn 0.25702 0.7327 0.72941 0.0
O453 O 0.23403 0.72351 0.7168 0.0
Zn454 Zn 0.21592 0.74475 0.71467 0.0
Zn455 Zn 0.23961 0.71204 0.6912 0.0
Zn456 Zn 0.22386 0.70379 0.73349 0.0
O457 O 0.19169 0.73912 0.73014 0.0
O458 O 0.20063 0.71305 0.74654 0.0
O459 O 0.25643 0.76093 0.7345 0.0
O460 O 0.22734 0.76972 0.72557 0.0
O461 O 0.21062 0.75009 0.68626 0.0
O462 O 0.22944 0.7298 0.67031 0.0
O463 O 0.22688 0.6855 0.68789 0.0
O464 O 0.2621 0.71992 0.75502 0.0
O465 O 0.2161 0.68108 0.71809 0.0
O466 O 0.24181 0.69523 0.75443 0.0
C467 C 0.28215 0.71622 0.69791 0.0
C468 C 0.18879 0.72642 0.74333 0.0
C469 C 0.21774 0.74377 0.6704 0.0
C470 C 0.24371 0.77374 0.73276 0.0
C471 C 0.21798 0.67545 0.70058 0.0
C472 C 0.25581 0.70422 0.7622 0.0
O473 O 0.26833 0.7093 0.68779 0.0
O474 O 0.53571 0.03531 0.04821 0.0
Zn475 Zn 0.53076 0.02822 0.01993 0.0
O476 O 0.50482 0.01794 0.01682 0.0
Zn477 Zn 0.50507 0.99261 0.00481 0.0
Zn478 Zn 0.49248 0.01617 0.04217 0.0
Zn479 Zn 0.49018 0.0348 0.00031 0.0
O480 O 0.49052 0.99181 0.97944 0.0
O481 O 0.4843 0.02273 0.97427 0.0
O482 O 0.55008 0.0079 0.01286 0.0
O483 O 0.53197 0.98408 0.0009 0.0
O484 O 0.4939 0.9727 0.02266 0.0
O485 O 0.48946 0.98848 0.05045 0.0
O486 O 0.46619 0.02698 0.04167 0.0
O487 O 0.53436 0.05293 0.00428 0.0
O488 O 0.46439 0.03941 0.01184 0.0
O489 O 0.50431 0.05974 0.99633 0.0
C490 C 0.52498 0.0359 0.06317 0.0
C491 C 0.48382 0.00518 0.96876 0.0
C492 C 0.48946 0.97285 0.04066 0.0
C493 C 0.54829 0.99107 0.00543 0.0
C494 C 0.45691 0.03547 0.02829 0.0
C495 C 0.52193 0.06439 -0.00264 0.0
O496 O 0.50781 0.02981 0.06257 0.0
O497 O 0.22463 0.27137 0.23347 0.0
Zn498 Zn 0.24482 0.27177 0.25413 0.0
O499 O 0.26889 0.27988 0.24263 0.0
Zn500 Zn 0.28799 0.25964 0.24584 0.0
Zn501 Zn 0.26572 0.2866 0.21506 0.0
Zn502 Zn 0.277 0.30271 0.2563 0.0
O503 O 0.31052 0.26939 0.26223 0.0
O504 O 0.29909 0.29706 0.27348 0.0
O505 O 0.24667 0.24535 0.26595 0.0
O506 O 0.27633 0.2364 0.25943 0.0
O507 O 0.29597 0.24915 0.21958 0.0
O508 O 0.27837 0.26636 0.19906 0.0
O509 O 0.27803 0.31256 0.2081 0.0
O510 O 0.23544 0.2903 0.27456 0.0
O511 O 0.2859 0.32271 0.23791 0.0
O512 O 0.25651 0.31429 0.27236 0.0
C513 C 0.22331 0.27812 0.21622 0.0
C514 C 0.31179 0.28413 0.27341 0.0
C515 C 0.29004 0.2528 0.20235 0.0
C516 C 0.25993 0.23299 0.26667 0.0
C517 C 0.28547 0.32508 0.21955 0.0
C518 C 0.24109 0.30724 0.27911 0.0
O519 O 0.23768 0.28567 0.20759 0.0
O520 O 0.51523 0.52066 0.9828 0.0
Zn521 Zn 0.49333 0.50418 0.99243 0.0
O522 O 0.49915 0.49365 0.0182 0.0
Zn523 Zn 0.50267 0.46582 0.01735 0.0
Zn524 Zn 0.52221 0.5056 0.02871 0.0
Zn525 Zn 0.47804 0.49929 0.03507 0.0
O526 O 0.48772 0.45219 0.03873 0.0
O527 O 0.46951 0.47593 0.04945 0.0
O528 O 0.48945 0.48233 0.97319 0.0
O529 O 0.49435 0.4559 0.99096 0.0
O530 O 0.53043 0.45936 0.02174 0.0
O531 O 0.54153 0.4859 0.03628 0.0
O532 O 0.51663 0.52328 0.05115 0.0
O533 O 0.46916 0.52004 0.99282 0.0
O534 O 0.48532 0.51986 0.05463 0.0
O535 O 0.456 0.50981 0.02044 0.0
C536 C 0.53096 0.52605 0.9906 0.0
C537 C 0.47461 0.45839 0.04983 0.0
C538 C 0.54369 0.46851 0.03075 0.0
C539 C 0.48996 0.46402 0.97485 0.0
C540 C 0.50112 0.52779 0.05951 0.0
C541 C 0.45508 0.5192 0.00453 0.0
O542 O 0.53527 0.52132 0.00801 0.0
O543 O 0.77553 0.23334 0.22523 0.0
Zn544 Zn 0.75321 0.23453 0.24279 0.0
O545 O 0.73052 0.22743 0.2282 0.0
Zn546 Zn 0.71202 0.24822 0.22994 0.0
Zn547 Zn 0.73655 0.22106 0.20089 0.0
Zn548 Zn 0.72029 0.20491 0.24065 0.0
O549 O 0.68846 0.23996 0.24529 0.0
O550 O 0.69723 0.21109 0.25596 0.0
O551 O 0.75192 0.2613 0.25356 0.0
O552 O 0.72389 0.27177 0.24299 0.0
O553 O 0.7053 0.25752 0.2031 0.0
O554 O 0.72491 0.24144 0.18361 0.0
O555 O 0.72528 0.19489 0.19262 0.0
O556 O 0.75938 0.21598 0.26424 0.0
O557 O 0.71237 0.18591 0.22086 0.0
O558 O 0.73888 0.19208 0.25843 0.0
C559 C 0.77885 0.22726 0.20806 0.0
C560 C 0.68551 0.22493 0.25569 0.0
C561 C 0.71239 0.25438 0.1863 0.0
C562 C 0.73962 0.27454 0.25198 0.0
C563 C 0.71534 0.18317 0.20282 0.0
C564 C 0.75331 0.19892 0.26748 0.0
O565 O 0.7654 0.22126 0.19688 0.0
O566 O 0.02832 0.55089 0.55099 0.0
Zn567 Zn 0.02368 0.54437 0.52255 0.0
O568 O -0.00231 0.53475 0.51832 0.0
Zn569 Zn -0.00148 0.51065 0.50388 0.0
Zn570 Zn 0.98477 0.53085 0.54321 0.0
Zn571 Zn 0.98346 0.55303 0.50303 0.0
O572 O 0.98187 0.51057 0.47994 0.0
O573 O 0.96933 0.53978 0.48104 0.0
O574 O 0.04233 0.52369 0.51571 0.0
O575 O 0.02533 0.50283 0.49795 0.0
O576 O 0.9891 0.48927 0.52071 0.0
O577 O 0.98061 0.50231 0.54892 0.0
O578 O 0.96009 0.54553 0.5444 0.0
O579 O 0.02922 0.56757 0.50547 0.0
O580 O 0.96324 0.5654 0.51912 0.0
O581 O 0.00103 0.57314 0.49175 0.0
C582 C 0.01781 0.54869 0.56599 0.0
C583 C 0.97039 0.52309 0.47335 0.0
C584 C 0.98297 0.48758 0.53807 0.0
C585 C 0.04116 0.50849 0.50528 0.0
C586 C 0.95444 0.55992 0.53442 0.0
C587 C 0.01869 0.57722 0.49391 0.0
O588 O 0.00114 0.54132 0.56475 0.0
O589 O 0.75783 0.75006 0.2936 0.0
Zn590 Zn 0.7738 0.76599 0.27512 0.0
O591 O 0.77462 0.75408 0.24941 0.0
Zn592 Zn 0.80005 0.74461 0.24326 0.0
Zn593 Zn 0.75621 0.73283 0.24795 0.0
Zn594 Zn 0.76773 0.77378 0.23094 0.0
O595 O 0.8089 0.75424 0.21669 0.0
O596 O 0.78553 0.77415 0.20856 0.0
O597 O 0.80027 0.76743 0.28625 0.0
O598 O 0.81865 0.75208 0.26495 0.0
O599 O 0.79931 0.7157 0.24039 0.0
O600 O 0.76837 0.70853 0.23827 0.0
O601 O 0.73336 0.73975 0.23147 0.0
O602 O 0.76358 0.79307 0.27412 0.0
O603 O 0.74114 0.76904 0.22076 0.0
O604 O 0.76739 0.80002 0.24276 0.0
C605 C 0.74828 0.73445 0.29136 0.0
C606 C 0.8012 0.76597 0.2048 0.0
C607 C 0.78579 0.70359 0.23735 0.0
C608 C 0.81648 0.76123 0.281 0.0
C609 C 0.72932 0.75499 0.22197 0.0
C610 C 0.76364 0.80517 0.26012 0.0
O611 O 0.74677 0.72627 0.27476 0.0
O612 O 0.73231 0.2328 0.71172 0.0
Zn613 Zn 0.7395 0.23158 0.74011 0.0
O614 O 0.74833 0.25698 0.74926 0.0
Zn615 Zn 0.77393 0.25462 0.76012 0.0
Zn616 Zn 0.74822 0.27569 0.72772 0.0
Zn617 Zn 0.73188 0.26612 0.76975 0.0
O618 O 0.77657 0.26503 0.78743 0.0
O619 O 0.74689 0.27385 0.79342 0.0
O620 O 0.76046 0.21185 0.74224 0.0
O621 O 0.78321 0.22746 0.7587 0.0
O622 O 0.7922 0.26944 0.74376 0.0
O623 O 0.77519 0.28389 0.72072 0.0
O624 O 0.7323 0.29907 0.73403 0.0
O625 O 0.71685 0.22197 0.75559 0.0
O626 O 0.71848 0.29039 0.76187 0.0
O627 O 0.71293 0.24559 0.77721 0.0
C628 C 0.73225 0.24627 0.69906 0.0
C629 C 0.7643 0.2727 0.79853 0.0
C630 C 0.79117 0.28006 0.72867 0.0
C631 C 0.77686 0.21226 0.75034 0.0
C632 C 0.72075 0.30237 0.74794 0.0
C633 C 0.70836 0.22908 0.77031 0.0
O634 O 0.7376 0.26337 0.70342 0.0
O635 O 0.72334 0.7745 0.73623 0.0
Zn636 Zn 0.74458 0.77187 0.7554 0.0
O637 O 0.76837 0.77552 0.74167 0.0
Zn638 Zn 0.78251 0.7515 0.74045 0.0
Zn639 Zn 0.76418 0.78697 0.71608 0.0
Zn640 Zn 0.78312 0.79338 0.75637 0.0
O641 O 0.80742 0.75312 0.75607 0.0
O642 O 0.80169 0.77985 0.77297 0.0
O643 O 0.74254 0.74517 0.76681 0.0
O644 O 0.7667 0.73015 0.75263 0.0
O645 O 0.78624 0.74374 0.71233 0.0
O646 O 0.77234 0.76759 0.69606 0.0
O647 O 0.77943 0.81206 0.71224 0.0
O648 O 0.74041 0.79237 0.77597 0.0
O649 O 0.79744 0.811 0.739 0.0
O650 O 0.76702 0.80973 0.77333 0.0
C651 C 0.72159 0.78316 0.71994 0.0
C652 C 0.81128 0.7647 0.7701 0.0
C653 C 0.78071 0.75136 0.69634 0.0
C654 C 0.75183 0.72988 0.76327 0.0
C655 C 0.79349 0.81826 0.72247 0.0
C656 C 0.75048 0.80716 0.78045 0.0
O657 O 0.7359 0.79063 0.71117 0.0
O658 O 0.48426 0.5467 0.54036 0.0
Zn659 Zn 0.49167 0.52398 0.52468 0.0
O660 O 0.48185 0.50077 0.53667 0.0
Zn661 Zn 0.50275 0.48416 0.54444 0.0
Zn662 Zn 0.46519 0.50678 0.55873 0.0
Zn663 Zn 0.4679 0.48721 0.51688 0.0
O664 O 0.50177 0.45818 0.53106 0.0
O665 O 0.48333 0.46581 0.50586 0.0
O666 O 0.51988 0.52289 0.52131 0.0
O667 O 0.52791 0.49546 0.53569 0.0
O668 O 0.50356 0.48162 0.57352 0.0
O669 O 0.47845 0.49816 0.5837 0.0
O670 O 0.43943 0.49222 0.55593 0.0
O671 O 0.48035 0.52874 0.49822 0.0
O672 O 0.4446 0.47598 0.5284 0.0
O673 O 0.46002 0.50425 0.49477 0.0
C674 C 0.47152 0.5499 0.55311 0.0
C675 C 0.49519 0.45465 0.51404 0.0
C676 C 0.49333 0.48828 0.58726 0.0
C677 C 0.53239 0.51067 0.52628 0.0
C678 C 0.4344 0.47957 0.54323 0.0
C679 C 0.46714 0.52012 0.48876 0.0
O680 O 0.46186 0.53613 0.56084 0.0
O681 O 0.03517 0.48813 0.05808 0.0
Zn682 Zn 0.02208 0.50308 0.03744 0.0
O683 O 0.0255 0.53042 0.04288 0.0
Zn684 Zn 0.001 0.54234 0.04759 0.0
Zn685 Zn 0.04288 0.53479 0.0651 0.0
Zn686 Zn 0.03565 0.54195 0.01977 0.0
O687 O 0.99565 0.56432 0.02908 0.0
O688 O 0.01608 0.55723 0.00553 0.0
O689 O 0.9943 0.49571 0.03547 0.0
O690 O 0.97988 0.52318 0.04252 0.0
O691 O -0.00109 0.55027 0.07563 0.0
O692 O 0.02756 0.54434 0.08814 0.0
O693 O 0.06414 0.55428 0.05796 0.0
O694 O 0.03499 0.49471 0.01265 0.0
O695 O 0.057 0.55948 0.02677 0.0
O696 O 0.04642 0.52254 0.00166 0.0
C697 C 0.04821 0.49193 0.07054 0.0
C698 C 0.00173 0.56645 0.01168 0.0
C699 C 0.01034 0.54977 0.09013 0.0
C700 C 0.97916 0.50542 0.03777 0.0
C701 C 0.06731 0.56286 0.04173 0.0
C702 C 0.04479 0.50431 0.00038 0.0
O703 O 0.05396 0.50914 0.07408 0.0
C704 C 0.98102 0.21365 0.11057 0.0
C705 C 0.98412 0.22678 0.09521 0.0
C706 C 0.97424 0.195 0.10684 0.0
C707 C 0.97058 0.159 0.06717 0.0
H708 H 0.93835 0.1317 0.10425 0.0
C709 C 0.94608 0.08261 0.0508 0.0
C710 C 0.95131 0.06912 0.06509 0.0
C711 C 0.94549 0.10218 0.05526 0.0
C712 C 0.94733 0.13919 0.0938 0.0
H713 H 0.98204 0.23074 0.06387 0.0
H714 H 0.96969 0.19824 0.05733 0.0
H715 H 0.94633 0.16579 0.10967 0.0
H716 H 0.95836 0.06514 0.09562 0.0
H717 H 0.95745 0.09975 0.10353 0.0
H718 H 0.97157 0.13248 0.05131 0.0
C719 C 0.97296 0.20225 0.07228 0.0
C720 C 0.952 0.15867 0.0969 0.0
C721 C 0.97999 0.2209 0.076 0.0
C722 C 0.9542 0.07531 0.08441 0.0
C723 C 0.95372 0.09507 0.08889 0.0
C724 C 0.96574 0.13968 0.06397 0.0
C725 C 0.97015 0.18901 0.08766 0.0
C726 C 0.96389 0.16875 0.08372 0.0
C727 C 0.95028 0.1087 0.07407 0.0
C728 C 0.9542 0.12953 0.0773 0.0
H729 H 0.98414 0.21763 0.12557 0.0
H730 H 0.97267 0.18515 0.11902 0.0
H731 H 0.98009 0.16607 0.05693 0.0
H732 H 0.94359 0.07811 0.03582 0.0
H733 H 0.94239 0.11234 0.04368 0.0
C734 C 0.04504 0.71704 0.31607 0.0
C735 C 0.04763 0.73718 0.31567 0.0
C736 C 0.05749 0.70513 0.30581 0.0
C737 C 0.09887 0.69159 0.30337 0.0
H738 H 0.1241 0.70599 0.25518 0.0
C739 C 0.17499 0.71566 0.29872 0.0
C740 C 0.18589 0.71259 0.28189 0.0
C741 C 0.1566 0.70792 0.3001 0.0
C742 C 0.11711 0.70119 0.26843 0.0
H743 H 0.06361 0.76083 0.30282 0.0
H744 H 0.08494 0.74022 0.2845 0.0
H745 H 0.09038 0.71293 0.25938 0.0
H746 H 0.18665 0.69786 0.2539 0.0
H747 H 0.1541 0.68489 0.2561 0.0
H748 H 0.1261 0.68178 0.31324 0.0
C749 C 0.07351 0.73349 0.29275 0.0
C750 C 0.0978 0.70522 0.27083 0.0
C751 C 0.06143 0.74532 0.30336 0.0
C752 C 0.17853 0.70054 0.26703 0.0
C753 C 0.15995 0.69307 0.26827 0.0
C754 C 0.11821 0.68771 0.30104 0.0
C755 C 0.07231 0.7133 0.29468 0.0
C756 C 0.08895 0.70178 0.28887 0.0
C757 C 0.14863 0.6972 0.28457 0.0
C758 C 0.12777 0.69382 0.28411 0.0
H759 H 0.0345 0.71047 0.32558 0.0
H760 H 0.05637 0.68962 0.30761 0.0
H761 H 0.0924 0.68874 0.31744 0.0
H762 H 0.18037 0.72471 0.31048 0.0
H763 H 0.14813 0.71157 0.31275 0.0
C764 C 0.51649 0.83141 0.60733 0.0
C765 C 0.50979 0.82645 0.62597 0.0
C766 C 0.52619 0.84891 0.60438 0.0
C767 C 0.52984 0.8977 0.62405 0.0
H768 H 0.57216 0.90218 0.58801 0.0
C769 C 0.55011 0.97143 0.59336 0.0
C770 C 0.54928 0.97093 0.57287 0.0
C771 C 0.5523 0.95427 0.60392 0.0
C772 C 0.56046 0.90117 0.59825 0.0
H773 H 0.50821 0.83573 0.65621 0.0
H774 H 0.52494 0.86636 0.65098 0.0
H775 H 0.56108 0.87025 0.59842 0.0
H776 H 0.5523 0.95278 0.54731 0.0
H777 H 0.55609 0.92311 0.56548 0.0
H778 H 0.52834 0.92845 0.62297 0.0
C779 C 0.52269 0.85675 0.63866 0.0
C780 C 0.55408 0.8829 0.60413 0.0
C781 C 0.51309 0.83923 0.64162 0.0
C782 C 0.55268 0.9535 0.56313 0.0
C783 C 0.55503 0.93648 0.5736 0.0
C784 C 0.53613 0.91595 0.61807 0.0
C785 C 0.5293 0.8618 0.62001 0.0
C786 C 0.53822 0.88099 0.61647 0.0
C787 C 0.55389 0.93649 0.59409 0.0
C788 C 0.55097 0.91786 0.60443 0.0
H789 H 0.51423 0.82181 0.59501 0.0
H790 H 0.53085 0.85256 0.58976 0.0
H791 H 0.51755 0.89669 0.63354 0.0
H792 H 0.54755 0.98474 0.60119 0.0
H793 H 0.55162 0.95476 0.61972 0.0
C794 C 0.4587 0.27107 0.84615 0.0
C795 C 0.4596 0.27851 0.86525 0.0
C796 C 0.44144 0.27035 0.83596 0.0
C797 C 0.39268 0.29015 0.83496 0.0
H798 H 0.38142 0.24378 0.80504 0.0
C799 C 0.31756 0.27002 0.80555 0.0
C800 C 0.3163 0.26159 0.78687 0.0
C801 C 0.33531 0.27382 0.81416 0.0
C802 C 0.38446 0.25694 0.8131 0.0
H803 H 0.44304 0.2913 0.88852 0.0
H804 H 0.41278 0.28965 0.87084 0.0
H805 H 0.41174 0.24686 0.82223 0.0
H806 H 0.33278 0.25124 0.76231 0.0
H807 H 0.36374 0.25792 0.77736 0.0
H808 H 0.36513 0.3 0.82604 0.0
C809 C 0.42552 0.28463 0.86366 0.0
C810 C 0.40184 0.25871 0.82296 0.0
C811 C 0.44285 0.28544 0.87384 0.0
C812 C 0.33321 0.25761 0.77676 0.0
C813 C 0.35096 0.26136 0.78541 0.0
C814 C 0.37522 0.28833 0.82514 0.0
C815 C 0.42462 0.27695 0.84465 0.0
C816 C 0.40616 0.27532 0.83402 0.0
C817 C 0.35218 0.26923 0.80431 0.0
C818 C 0.37094 0.27168 0.81413 0.0
H819 H 0.47135 0.26583 0.83895 0.0
H820 H 0.44131 0.26469 0.82121 0.0
H821 H 0.39569 0.30323 0.84314 0.0
H822 H 0.30483 0.27334 0.81374 0.0
H823 H 0.3358 0.27976 0.8288 0.0
C824 C 0.00031 0.82368 0.35902 0.0
C825 C 0.01937 0.8178 0.35984 0.0
C826 C 0.99465 0.84014 0.36929 0.0
C827 C 0.01371 0.88174 0.39886 0.0
H828 H 0.97088 0.87004 0.43274 0.0
C829 C 0.00751 0.91175 0.47647 0.0
C830 C 0.99206 0.92418 0.47896 0.0
C831 C 0.00827 0.8997 0.46012 0.0
C832 C 0.98274 0.87352 0.42323 0.0
H833 H 0.04771 0.82507 0.3703 0.0
H834 H 0.03811 0.85365 0.38786 0.0
H835 H 0.97689 0.84952 0.40435 0.0
H836 H 0.96465 0.93277 0.46722 0.0
H837 H 0.96571 0.91103 0.43898 0.0
H838 H 0.02025 0.90494 0.4186 0.0
C839 C 0.02739 0.8459 0.37943 0.0
C840 C 0.98609 0.86195 0.40686 0.0
C841 C 0.03295 0.82946 0.36938 0.0
C842 C 0.97676 0.92334 0.46559 0.0
C843 C 0.97733 0.91097 0.44948 0.0
C844 C 0.01056 0.89303 0.41538 0.0
C845 C 0.00805 0.85095 0.3803 0.0
C846 C 0.00199 0.86557 0.39484 0.0
C847 C 0.99339 0.89958 0.4463 0.0
C848 C 0.99539 0.88867 0.42795 0.0
H849 H 0.98956 0.81469 0.35196 0.0
H850 H 0.97968 0.84379 0.3695 0.0
H851 H 0.02583 0.88519 0.38969 0.0
H852 H 0.01954 0.91221 0.48646 0.0
H853 H 0.02073 0.89088 0.45792 0.0
C854 C 0.45032 0.73909 0.66741 0.0
C855 C 0.44945 0.75728 0.65838 0.0
C856 C 0.43358 0.72839 0.67076 0.0
C857 C 0.39426 0.71466 0.68531 0.0
H858 H 0.35406 0.72059 0.64671 0.0
C859 C 0.31678 0.71749 0.70573 0.0
C860 C 0.30215 0.71254 0.69248 0.0
C861 C 0.33581 0.71555 0.70065 0.0
C862 C 0.36519 0.71825 0.65744 0.0
H863 H 0.43054 0.77903 0.64683 0.0
H864 H 0.40146 0.76079 0.65326 0.0
H865 H 0.38608 0.73215 0.63952 0.0
H866 H 0.29606 0.7004 0.66388 0.0
H867 H 0.32966 0.69707 0.65482 0.0
H868 H 0.37325 0.70102 0.70336 0.0
C869 C 0.41499 0.75441 0.65713 0.0
C870 C 0.3835 0.72519 0.65344 0.0
C871 C 0.43162 0.765 0.6537 0.0
C872 C 0.30702 0.70457 0.67431 0.0
C873 C 0.32623 0.70265 0.66915 0.0
C874 C 0.37596 0.70753 0.68925 0.0
C875 C 0.41579 0.73577 0.66514 0.0
C876 C 0.3979 0.72449 0.66777 0.0
C877 C 0.34082 0.70856 0.68214 0.0
C878 C 0.36097 0.71032 0.67581 0.0
H879 H 0.46393 0.73273 0.67097 0.0
H880 H 0.43462 0.71411 0.67708 0.0
H881 H 0.40513 0.71368 0.69654 0.0
H882 H 0.31361 0.72342 0.71999 0.0
H883 H 0.34656 0.7206 0.71091 0.0
C884 C 0.53569 0.216 0.91034 0.0
C885 C 0.52332 0.22916 0.91921 0.0
C886 C 0.54072 0.19899 0.91991 0.0
C887 C 0.5385 0.17459 0.96863 0.0
H888 H 0.53991 0.12789 0.9374 0.0
C889 C 0.5155 0.09937 0.99425 0.0
C890 C 0.5277 0.08383 0.99085 0.0
C891 C 0.52001 0.11769 0.98717 0.0
C892 C 0.53996 0.14087 0.94625 0.0
H893 H 0.50656 0.23486 0.94506 0.0
H894 H 0.51454 0.20487 0.96137 0.0
H895 H 0.53769 0.15912 0.92126 0.0
H896 H 0.55434 0.07519 0.97776 0.0
H897 H 0.56185 0.10741 0.96443 0.0
H898 H 0.53923 0.15596 0.99363 0.0
C899 C 0.52094 0.20789 0.94731 0.0
C900 C 0.5387 0.1588 0.93704 0.0
C901 C 0.51617 0.22503 0.93788 0.0
C902 C 0.54475 0.087 0.98057 0.0
C903 C 0.54903 0.10532 0.97298 0.0
C904 C 0.5394 0.15663 0.97781 0.0
C905 C 0.53326 0.19461 0.93846 0.0
C906 C 0.53737 0.17586 0.94813 0.0
C907 C 0.53659 0.12074 0.97616 0.0
C908 C 0.53963 0.13963 0.96668 0.0
H909 H 0.54168 0.21895 0.89607 0.0
H910 H 0.55048 0.18931 0.91277 0.0
H911 H 0.53807 0.18742 0.97765 0.0
H912 H 0.50233 0.0973 0.00225 0.0
H913 H 0.51013 0.12935 0.98961 0.0
C914 C 0.07325 0.2806 0.12401 0.0
C915 C 0.05695 0.27473 0.13446 0.0
C916 C 0.09123 0.28037 0.13274 0.0
C917 C 0.12485 0.2905 0.15879 0.0
H918 H 0.1414 0.24678 0.18953 0.0
C919 C 0.20222 0.28392 0.18705 0.0
C920 C 0.20451 0.27724 0.20629 0.0
C921 C 0.18432 0.28315 0.17797 0.0
C922 C 0.13691 0.25918 0.18115 0.0
H923 H 0.04689 0.26369 0.16229 0.0
H924 H 0.07848 0.26326 0.17757 0.0
H925 H 0.10965 0.24631 0.17474 0.0
H926 H 0.18971 0.26446 0.23104 0.0
H927 H 0.15864 0.2634 0.21533 0.0
H928 H 0.15198 0.30348 0.1653 0.0
C929 C 0.07722 0.26798 0.16254 0.0
C930 C 0.11874 0.2589 0.1727 0.0
C931 C 0.05914 0.26829 0.15381 0.0
C932 C 0.18853 0.26969 0.21618 0.0
C933 C 0.17068 0.26895 0.20713 0.0
C934 C 0.14298 0.29082 0.16728 0.0
C935 C 0.09341 0.2742 0.15212 0.0
C936 C 0.11254 0.27455 0.16141 0.0
C937 C 0.16835 0.27569 0.18794 0.0
C938 C 0.14923 0.27516 0.17856 0.0
H939 H 0.07218 0.28563 0.10907 0.0
H940 H 0.10347 0.28497 0.12425 0.0
H941 H 0.12035 0.3029 0.15039 0.0
H942 H 0.21424 0.28974 0.17899 0.0
H943 H 0.18301 0.28826 0.16308 0.0
C944 C 0.08849 0.03699 0.22553 0.0
C945 C 0.10382 0.02588 0.23224 0.0
C946 C 0.07878 0.03206 0.20845 0.0
C947 C 0.06759 0.99047 0.1769 0.0
H948 H 0.04499 0.03028 0.14474 0.0
C949 C 0.02243 0.97928 0.10532 0.0
C950 C 0.00574 0.99034 0.10419 0.0
C951 C 0.03495 0.98137 0.12117 0.0
C952 C 0.05113 0.01902 0.15367 0.0
H953 H 0.12152 0.00129 0.22569 0.0
H954 H 0.10458 0.99276 0.19537 0.0
H955 H 0.06812 0.03925 0.16987 0.0
H956 H 0.98844 0.01117 0.11952 0.0
H957 H 0.01044 0.01494 0.14704 0.0
H958 H 0.05061 0.97025 0.16022 0.0
C959 C 0.09997 0.00517 0.20365 0.0
C960 C 0.0644 0.02413 0.16805 0.0
C961 C 0.10979 0.01016 0.22089 0.0
C962 C 0.00117 0.00247 0.1199 0.0
C963 C 0.01381 0.00475 0.13558 0.0
C964 C 0.05446 0.98532 0.16223 0.0
C965 C 0.08414 0.01591 0.19743 0.0
C966 C 0.07238 0.01 0.18024 0.0
C967 C 0.0311 0.99472 0.13601 0.0
C968 C 0.04575 -0.00036 0.15088 0.0
H969 H 0.08355 0.04927 0.23382 0.0
H970 H 0.06652 0.04053 0.20434 0.0
H971 H 0.07336 0.97924 0.1861 0.0
H972 H 0.02629 0.9697 0.0935 0.0
H973 H 0.04817 0.97344 0.12123 0.0
C974 C 0.27454 0.9031 0.43028 0.0
C975 C 0.25597 0.90564 0.43719 0.0
C976 C 0.27757 0.89249 0.41321 0.0
C977 C 0.25246 0.86456 0.3737 0.0
H978 H 0.28652 0.82383 0.39011 0.0
C979 C 0.24116 0.78749 0.34735 0.0
C980 C 0.25697 0.7786 0.33873 0.0
C981 C 0.24356 0.80426 0.3584 0.0
C982 C 0.27715 0.83517 0.3852 0.0
H983 H 0.22599 0.90134 0.43096 0.0
H984 H 0.23106 0.88309 0.40119 0.0
H985 H 0.287 0.8546 0.40737 0.0
H986 H 0.28789 0.77909 0.33694 0.0
H987 H 0.29203 0.80822 0.35672 0.0
H988 H 0.24194 0.84464 0.35218 0.0
C989 C 0.2434 0.88921 0.40861 0.0
C990 C 0.27754 0.85291 0.39493 0.0
C991 C 0.24043 0.89977 0.42564 0.0
C992 C 0.27539 0.7856 0.3433 0.0
C993 C 0.27779 0.80237 0.3545 0.0
C994 C 0.25197 0.84678 0.3641 0.0
C995 C 0.26201 0.88423 0.40304 0.0
C996 C 0.26474 0.86758 0.38971 0.0
C997 C 0.26181 0.81236 0.36125 0.0
C998 C 0.26386 0.83172 0.3702 0.0
H999 H 0.28672 0.90741 0.43913 0.0
H1000 H 0.29206 0.88926 0.40903 0.0
H1001 H 0.24264 0.87564 0.36914 0.0
H1002 H 0.22679 0.78235 0.34436 0.0
H1003 H 0.23104 0.81138 0.36399 0.0
C1004 C 0.39631 0.99485 0.70852 0.0
C1005 C 0.40487 0.98225 0.72197 0.0
C1006 C 0.40733 0.00427 0.69435 0.0
C1007 C 0.4545 0.00249 0.67003 0.0
H1008 H 0.44363 0.05562 0.65647 0.0
C1009 C 0.50244 0.04158 0.61666 0.0
C1010 C 0.49223 0.04712 0.59989 0.0
C1011 C 0.49288 0.03815 0.63418 0.0
C1012 C 0.44686 0.04083 0.66026 0.0
H1013 H 0.43171 0.96942 0.73074 0.0
H1014 H 0.45077 0.98603 0.70653 0.0
H1015 H 0.424 0.03894 0.68084 0.0
H1016 H 0.46459 0.05622 0.58913 0.0
H1017 H 0.44799 0.05027 0.61974 0.0
H1018 H 0.47729 0.00433 0.64953 0.0
C1019 C 0.43554 0.98843 0.70659 0.0
C1020 C 0.43552 0.0312 0.67402 0.0
C1021 C 0.42455 0.9789 0.72057 0.0
C1022 C 0.47281 0.05164 0.60171 0.0
C1023 C 0.46328 0.04832 0.61928 0.0
C1024 C 0.46592 0.01217 0.65653 0.0
C1025 C 0.42714 0.00138 0.69343 0.0
C1026 C 0.43913 0.01184 0.67894 0.0
C1027 C 0.47303 0.0404 0.63527 0.0
C1028 C 0.46215 0.03136 0.65139 0.0
H1029 H 0.38119 -0.00222 0.70919 0.0
H1030 H 0.40033 0.01387 0.68419 0.0
H1031 H 0.45748 0.9875 0.67311 0.0
H1032 H 0.51746 0.03822 0.61586 0.0
H1033 H 0.50077 0.0324 0.64647 0.0
C1034 C 0.25222 0.14361 0.96072 0.0
C1035 C 0.24941 0.12376 0.96378 0.0
C1036 C 0.25175 0.15122 0.94193 0.0
C1037 C 0.23118 0.14403 0.89393 0.0
H1038 H 0.26898 0.18258 0.87902 0.0
C1039 C 0.23117 0.18557 0.81973 0.0
C1040 C 0.23603 0.20531 0.82089 0.0
C1041 C 0.23245 0.17378 0.83626 0.0
C1042 C 0.25824 0.17193 0.88302 0.0
H1043 H 0.24398 0.0962 0.94965 0.0
H1044 H 0.24281 0.10972 0.91646 0.0
H1045 H 0.27321 0.16446 0.90917 0.0
H1046 H 0.24475 0.22839 0.8406 0.0
H1047 H 0.24666 0.20795 0.86934 0.0
H1048 H 0.21594 0.15196 0.86796 0.0
C1049 C 0.24548 0.11927 0.92874 0.0
C1050 C 0.26073 0.1615 0.9002 0.0
C1051 C 0.24623 0.11157 0.94764 0.0
C1052 C 0.24113 0.21321 0.83912 0.0
C1053 C 0.24237 0.20147 0.85557 0.0
C1054 C 0.22865 0.15455 0.87668 0.0
C1055 C 0.24826 0.13918 0.92577 0.0
C1056 C 0.24698 0.14785 0.9061 0.0
C1057 C 0.23861 0.18154 0.85421 0.0
C1058 C 0.2419 0.169 0.87138 0.0
H1059 H 0.25474 0.15334 0.97289 0.0
H1060 H 0.25369 0.16665 0.94009 0.0
H1061 H 0.22034 0.13362 0.89823 0.0
H1062 H 0.2272 0.17902 0.8059 0.0
H1063 H 0.22943 0.15847 0.8348 0.0
C1064 C 0.10951 0.04257 0.33606 0.0
C1065 C 0.12353 0.02849 0.33381 0.0
C1066 C 0.10032 0.04485 0.35391 0.0
C1067 C 0.0725 0.0351 0.38555 0.0
H1068 H 0.09419 0.02364 0.43633 0.0
C1069 C 0.02641 0.00916 0.4495 0.0
C1070 C 0.03156 0.0144 0.46866 0.0
C1071 C 0.03806 0.01423 0.4338 0.0
C1072 C 0.08793 0.02719 0.42232 0.0
H1073 H 0.13979 0.00648 0.34858 0.0
H1074 H 0.12317 0.00982 0.37968 0.0
H1075 H 0.11515 0.02747 0.40823 0.0
H1076 H 0.05261 0.02985 0.48624 0.0
H1077 H 0.07273 0.03907 0.45873 0.0
H1078 H 0.04536 0.03505 0.39957 0.0
C1079 C 0.11953 0.01947 0.36783 0.0
C1080 C 0.09994 0.02913 0.40615 0.0
C1081 C 0.12903 0.01747 0.35001 0.0
C1082 C 0.04827 0.02547 0.47167 0.0
C1083 C 0.05989 0.03066 0.45592 0.0
C1084 C 0.06056 0.03333 0.40169 0.0
C1085 C 0.10461 0.03277 0.36979 0.0
C1086 C 0.09233 0.03275 0.38748 0.0
C1087 C 0.05507 0.02482 0.43683 0.0
C1088 C 0.06805 0.0289 0.42019 0.0
H1089 H 0.10524 0.05149 0.32386 0.0
H1090 H 0.08936 0.05567 0.35504 0.0
H1091 H 0.06601 0.03761 0.37141 0.0
H1092 H 0.01371 0.00054 0.44664 0.0
H1093 H 0.03403 0.00923 0.41935 0.0
C1094 C 0.23563 0.86208 0.54076 0.0
C1095 C 0.24605 0.85428 0.5252 0.0
C1096 C 0.22879 0.85016 0.55571 0.0
C1097 C 0.21881 0.79869 0.56763 0.0
H1098 H 0.22381 0.81631 0.62119 0.0
C1099 C 0.22232 0.7483 0.63439 0.0
C1100 C 0.21419 0.75447 0.65204 0.0
C1101 C 0.22191 0.76013 0.61788 0.0
C1102 C 0.22196 0.8113 0.6063 0.0
H1103 H 0.25763 0.82786 0.51328 0.0
H1104 H 0.24617 0.80727 0.53952 0.0
H1105 H 0.23208 0.83811 0.59461 0.0
H1106 H 0.19794 0.77728 0.66569 0.0
H1107 H 0.19729 0.79787 0.63685 0.0
H1108 H 0.20939 0.77159 0.57947 0.0
C1109 C 0.24285 0.82249 0.53997 0.0
C1110 C 0.22672 0.82379 0.59105 0.0
C1111 C 0.24958 0.83435 0.52499 0.0
C1112 C 0.20449 0.77213 0.6524 0.0
C1113 C 0.20419 0.78399 0.63592 0.0
C1114 C 0.21416 0.78614 0.5829 0.0
C1115 C 0.2323 0.83022 0.55546 0.0
C1116 C 0.22555 0.81752 0.57155 0.0
C1117 C 0.21343 0.77839 0.6187 0.0
C1118 C 0.216 0.79222 0.6024 0.0
H1119 H 0.23247 0.87734 0.54126 0.0
H1120 H 0.22055 0.85655 0.56734 0.0
H1121 H 0.21736 0.79354 0.55274 0.0
H1122 H 0.2298 0.73475 0.63355 0.0
H1123 H 0.22923 0.75545 0.60484 0.0
C1124 C 0.3956 0.96392 0.82062 0.0
C1125 C 0.37875 0.97441 0.81806 0.0
C1126 C 0.40554 0.96476 0.83824 0.0
C1127 C 0.42986 0.9873 0.86733 0.0
H1128 H 0.41286 0.97728 0.92023 0.0
C1129 C 0.46977 0.01418 0.93643 0.0
C1130 C 0.47329 9e-05 0.95071 0.0
C1131 C 0.458 0.00994 0.92044 0.0
C1132 C 0.41774 0.98007 0.90549 0.0
H1133 H 0.35811 0.99252 0.83246 0.0
H1134 H 0.37559 0.9938 0.86366 0.0
H1135 H 0.39112 0.97085 0.89259 0.0
H1136 H 0.46742 0.97046 0.95935 0.0
H1137 H 0.44659 0.96322 0.93147 0.0
H1138 H 0.45627 0.99688 0.88008 0.0
C1139 C 0.38105 0.98508 0.85185 0.0
C1140 C 0.40532 0.9765 0.88979 0.0
C1141 C 0.37107 0.98432 0.83406 0.0
C1142 C 0.4651 0.98157 0.9485 0.0
C1143 C 0.45303 0.97747 0.9327 0.0
C1144 C 0.4421 0.99119 0.88298 0.0
C1145 C 0.39878 0.97598 0.85371 0.0
C1146 C 0.41139 0.97993 0.87059 0.0
C1147 C 0.44927 0.99167 0.91865 0.0
C1148 C 0.4362 0.98751 0.90217 0.0
H1149 H 0.40173 0.95593 0.80863 0.0
H1150 H 0.41904 0.9574 0.83947 0.0
H1151 H 0.43477 0.99022 0.85263 0.0
H1152 H 0.47586 0.02856 0.93777 0.0
H1153 H 0.45528 0.02111 0.90975 0.0
C1154 C 0.25377 0.13384 0.07681 0.0
C1155 C 0.24183 0.1443 0.0642 0.0
C1156 C 0.26021 0.14205 0.09437 0.0
C1157 C 0.25159 0.18243 0.12863 0.0
H1158 H 0.3065 0.1828 0.13641 0.0
C1159 C 0.28851 0.24384 0.16717 0.0
C1160 C 0.29355 0.2389 0.18641 0.0
C1161 C 0.28567 0.2295 0.15316 0.0
C1162 C 0.29115 0.18255 0.1345 0.0
H1163 H 0.22629 0.17096 0.06069 0.0
H1164 H 0.23739 0.18516 0.09114 0.0
H1165 H 0.29206 0.16157 0.11148 0.0
H1166 H 0.30192 0.21532 0.20537 0.0
H1167 H 0.29702 0.19019 0.18055 0.0
H1168 H 0.2508 0.20413 0.15085 0.0
C1169 C 0.24182 0.17066 0.08758 0.0
C1170 C 0.28286 0.17038 0.12039 0.0
C1171 C 0.23554 0.16256 0.07003 0.0
C1172 C 0.29798 0.21958 0.19068 0.0
C1173 C 0.29516 0.20518 0.17655 0.0
C1174 C 0.25986 0.19462 0.14253 0.0
C1175 C 0.25461 0.16072 0.0997 0.0
C1176 C 0.26304 0.17069 0.11691 0.0
C1177 C 0.28802 0.21004 0.15807 0.0
C1178 C 0.2797 0.19516 0.14516 0.0
H1179 H 0.25892 0.11974 0.07268 0.0
H1180 H 0.26991 0.134 0.10354 0.0
H1181 H 0.23627 0.18272 0.12653 0.0
H1182 H 0.28523 0.25861 0.16335 0.0
H1183 H 0.28027 0.23347 0.13887 0.0
C1184 C 0.1683 0.10964 0.99214 0.0
C1185 C 0.18489 0.09985 -0.00223 0.0
C1186 C 0.15074 0.09994 0.99132 0.0
C1187 C 0.12686 0.05834 0.01372 0.0
H1188 H 0.08656 0.06913 0.97644 0.0
C1189 C 0.0543 0.01999 0.01848 0.0
C1190 C 0.03816 0.03172 0.01681 0.0
C1191 C 0.07229 0.02708 0.01345 0.0
C1192 C 0.09767 0.06607 0.98699 0.0
H1193 H 0.19625 0.07187 0.00558 0.0
H1194 H 0.16567 0.05493 0.0039 0.0
H1195 H 0.1183 0.08343 0.97178 0.0
H1196 H 0.0282 0.05995 0.008 0.0
H1197 H 0.0598 0.07249 -0.00047 0.0
H1198 H 0.10631 0.04135 0.02915 0.0
C1199 C 0.16618 0.07022 0.00061 0.0
C1200 C 0.11582 0.07422 0.98432 0.0
C1201 C 0.1837 0.07993 0.00153 0.0
C1202 C 0.04036 0.05057 0.0095 0.0
C1203 C 0.05843 0.0577 0.00452 0.0
C1204 C 0.1088 0.05021 0.01637 0.0
C1205 C 0.14944 0.08023 0.99602 0.0
C1206 C 0.13055 0.07055 -0.00224 0.0
C1207 C 0.07461 0.04611 0.00672 0.0
C1208 C 0.09397 0.0541 0.00314 0.0
H1209 H 0.16872 0.12497 0.98905 0.0
H1210 H 0.13809 0.10808 0.98787 0.0
H1211 H 0.13777 0.05555 0.02457 0.0
H1212 H 0.05311 0.00531 0.02382 0.0
H1213 H 0.08445 0.0177 0.01499 0.0
C1214 C 0.69916 0.40041 -0.00025 0.0
C1215 C 0.71503 0.41205 0.00464 0.0
C1216 C 0.68078 0.40606 0.00475 0.0
C1217 C 0.64475 0.4156 0.02674 0.0
H1218 H 0.63019 0.46905 0.02057 0.0
C1219 C 0.56668 0.44175 0.02443 0.0
C1220 C 0.56272 0.45972 0.03298 0.0
C1221 C 0.58538 0.43497 0.02389 0.0
C1222 C 0.63412 0.45412 0.02268 0.0
H1223 H 0.7241 0.43877 0.01855 0.0
H1224 H 0.69199 0.44859 0.02748 0.0
H1225 H 0.66267 0.45959 0.01318 0.0
H1226 H 0.57513 0.48395 0.04894 0.0
H1227 H 0.60761 0.47206 0.04803 0.0
H1228 H 0.61596 0.41013 0.03578 0.0
C1229 C 0.69373 0.4352 0.01954 0.0
C1230 C 0.65274 0.44869 0.01843 0.0
C1231 C 0.71213 0.42957 0.01445 0.0
C1232 C 0.57767 0.47016 0.04203 0.0
C1233 C 0.59632 0.46341 0.04144 0.0
C1234 C 0.62607 0.42103 0.0309 0.0
C1235 C 0.67784 0.42345 0.01484 0.0
C1236 C 0.65825 0.42934 0.02023 0.0
C1237 C 0.60046 0.44604 0.03185 0.0
C1238 C 0.62053 0.44032 0.02877 0.0
H1239 H 0.70093 0.38683 0.99216 0.0
H1240 H 0.66885 0.39685 0.00058 0.0
H1241 H 0.64863 0.40063 0.02864 0.0
H1242 H 0.55551 0.4333 0.01739 0.0
H1243 H 0.58814 0.42155 0.01635 0.0
C1244 C 0.82554 0.42861 0.27054 0.0
C1245 C 0.84508 0.42447 0.2697 0.0
C1246 C 0.81191 0.4137 0.27017 0.0
C1247 C 0.80771 0.36044 0.27747 0.0
H1248 H 0.75789 0.36721 0.25391 0.0
C1249 C 0.74289 0.30975 0.24558 0.0
C1250 C 0.74517 0.29411 0.25834 0.0
C1251 C 0.75231 0.32729 0.24927 0.0
C1252 C 0.77178 0.36497 0.26044 0.0
H1253 H 0.86568 0.40162 0.26687 0.0
H1254 H 0.84202 0.37572 0.26507 0.0
H1255 H 0.78079 0.39382 0.2538 0.0
H1256 H 0.75729 0.28492 0.28586 0.0
H1257 H 0.77246 0.31592 0.29321 0.0
H1258 H 0.79945 0.33129 0.28279 0.0
C1259 C 0.8371 0.39035 0.26694 0.0
C1260 C 0.78488 0.38039 0.26062 0.0
C1261 C 0.85071 0.40522 0.26776 0.0
C1262 C 0.7555 0.29677 0.27573 0.0
C1263 C 0.76441 0.31448 0.27974 0.0
C1264 C 0.79482 0.34496 0.27691 0.0
C1265 C 0.81751 0.39432 0.26857 0.0
C1266 C 0.80314 0.37825 0.26893 0.0
C1267 C 0.76382 0.32967 0.26607 0.0
C1268 C 0.7767 0.34689 0.26824 0.0
H1269 H 0.82079 0.44334 0.27225 0.0
H1270 H 0.79704 0.41739 0.27171 0.0
H1271 H 0.82138 0.35829 0.2845 0.0
H1272 H 0.73512 0.30794 0.23197 0.0
H1273 H 0.75153 0.33846 0.23826 0.0
C1274 C 0.7917 0.5914 0.52171 0.0
C1275 C 0.78441 0.61014 0.52138 0.0
C1276 C 0.80981 0.58802 0.52944 0.0
C1277 C 0.85516 0.61396 0.53965 0.0
H1278 H 0.86941 0.56342 0.55858 0.0
C1279 C 0.92614 0.56419 0.55636 0.0
C1280 C 0.93651 0.56965 0.53968 0.0
C1281 C 0.90814 0.57195 0.55989 0.0
C1282 C 0.86572 0.57779 0.55377 0.0
H1283 H 0.78962 0.63987 0.52996 0.0
H1284 H 0.82093 0.63391 0.54417 0.0
H1285 H 0.8359 0.57124 0.5552 0.0
H1286 H 0.93654 0.58833 0.51421 0.0
H1287 H 0.90525 0.60125 0.51995 0.0
H1288 H 0.88495 0.62061 0.5385 0.0
C1289 C 0.81307 0.62189 0.5378 0.0
C1290 C 0.84645 0.58216 0.55149 0.0
C1291 C 0.79512 0.62532 0.5297 0.0
C1292 C 0.92895 0.58372 0.52718 0.0
C1293 C 0.91099 0.59132 0.5306 0.0
C1294 C 0.87439 0.60971 0.54226 0.0
C1295 C 0.82086 0.60327 0.53738 0.0
C1296 C 0.84095 0.59997 0.54352 0.0
C1297 C 0.90014 0.58523 0.54674 0.0
C1298 C 0.87994 0.59125 0.54842 0.0
H1299 H 0.78369 0.57945 0.5154 0.0
H1300 H 0.81538 0.57355 0.52847 0.0
H1301 H 0.8516 0.62784 0.53348 0.0
H1302 H 0.93166 0.55353 0.56641 0.0
H1303 H 0.9003 0.56717 0.57263 0.0
C1304 C 0.15722 0.09841 0.28431 0.0
C1305 C 0.16282 0.07924 0.28722 0.0
C1306 C 0.17059 0.11344 0.28474 0.0
C1307 C 0.2224 0.12486 0.28212 0.0
H1308 H 0.20435 0.1739 0.30144 0.0
C1309 C 0.245 0.21151 0.29156 0.0
C1310 C 0.25533 0.21362 0.27421 0.0
C1311 C 0.23763 0.19347 0.29695 0.0
C1312 C 0.21 0.16032 0.29641 0.0
H1313 H 0.18696 0.06074 0.29264 0.0
H1314 H 0.21045 0.08722 0.29406 0.0
H1315 H 0.18417 0.14567 0.30393 0.0
H1316 H 0.26688 0.19864 0.24927 0.0
H1317 H 0.25298 0.16743 0.25781 0.0
H1318 H 0.24859 0.13949 0.27531 0.0
C1319 C 0.19569 0.09057 0.29106 0.0
C1320 C 0.19812 0.14408 0.29744 0.0
C1321 C 0.18225 0.07539 0.29029 0.0
C1322 C 0.25904 0.19727 0.26282 0.0
C1323 C 0.25111 0.17933 0.26783 0.0
C1324 C 0.23451 0.14111 0.28144 0.0
C1325 C 0.18996 0.10983 0.28851 0.0
C1326 C 0.20383 0.1263 0.28966 0.0
C1327 C 0.2397 0.1773 0.28464 0.0
C1328 C 0.22825 0.15924 0.28803 0.0
H1329 H 0.14241 0.10184 0.28157 0.0
H1330 H 0.16565 0.12794 0.28201 0.0
H1331 H 0.22735 0.1114 0.27605 0.0
H1332 H 0.24216 0.22394 0.30067 0.0
H1333 H 0.22964 0.19245 0.3104 0.0
C1334 C 0.31609 0.92765 0.49952 0.0
C1335 C 0.31461 0.9107 0.48828 0.0
C1336 C 0.33392 0.93577 0.50388 0.0
C1337 C 0.3842 0.93674 0.48824 0.0
H1338 H 0.3929 0.95701 0.54041 0.0
C1339 C 0.45775 0.96605 0.51411 0.0
C1340 C 0.45741 0.98388 0.52392 0.0
C1341 C 0.44079 0.95589 0.51025 0.0
C1342 C 0.39064 0.9515 0.52575 0.0
H1343 H 0.33077 0.88916 0.47258 0.0
H1344 H 0.36188 0.90325 0.48041 0.0
H1345 H 0.36232 0.94183 0.53233 0.0
H1346 H 0.439 0.00482 0.53773 0.0
H1347 H 0.40955 0.98713 0.53098 0.0
H1348 H 0.41255 0.94652 0.48168 0.0
C1349 C 0.34922 0.91034 0.48568 0.0
C1350 C 0.37312 0.94286 0.52111 0.0
C1351 C 0.33137 0.90222 0.48127 0.0
C1352 C 0.4398 0.99114 0.53012 0.0
C1353 C 0.42291 0.98095 0.52636 0.0
C1354 C 0.40176 0.94535 0.49291 0.0
C1355 C 0.35069 0.92713 0.49716 0.0
C1356 C 0.36961 0.93559 0.50223 0.0
C1357 C 0.42319 0.9633 0.51627 0.0
C1358 C 0.40507 0.95301 0.51165 0.0
H1359 H 0.30349 0.93467 0.50502 0.0
H1360 H 0.33455 0.94892 0.51244 0.0
H1361 H 0.38187 0.93145 0.47351 0.0
H1362 H 0.47108 0.96005 0.50915 0.0
H1363 H 0.44143 0.94223 0.50259 0.0
C1364 C 0.85149 0.54897 0.26486 0.0
C1365 C 0.8468 0.53237 0.25398 0.0
C1366 C 0.84339 0.56666 0.26017 0.0
C1367 C 0.82436 0.59614 0.22225 0.0
H1368 H 0.79544 0.62071 0.26338 0.0
C1369 C 0.80892 0.67786 0.22838 0.0
C1370 C 0.79042 0.68312 0.23396 0.0
C1371 C 0.81387 0.65842 0.22728 0.0
C1372 C 0.80328 0.61392 0.25168 0.0
H1373 H 0.83057 0.52133 0.22924 0.0
H1374 H 0.81681 0.55265 0.22068 0.0
H1375 H 0.80853 0.58859 0.2687 0.0
H1376 H 0.76238 0.67214 0.24187 0.0
H1377 H 0.77125 0.63817 0.24039 0.0
H1378 H 0.81986 0.62196 0.20558 0.0
C1379 C 0.82654 0.55175 0.23297 0.0
C1380 C 0.81084 0.59566 0.25478 0.0
C1381 C 0.83435 0.53391 0.23791 0.0
C1382 C 0.77675 0.66855 0.23757 0.0
C1383 C 0.7818 0.64913 0.23676 0.0
C1384 C 0.8171 0.61464 0.21928 0.0
C1385 C 0.83077 0.56815 0.2443 0.0
C1386 C 0.82161 0.58674 0.24019 0.0
C1387 C 0.8005 0.64394 0.232 0.0
C1388 C 0.80665 0.62372 0.23406 0.0
H1389 H 0.86101 0.5482 0.27733 0.0
H1390 H 0.8469 0.5792 0.26902 0.0
H1391 H 0.83269 0.58947 0.21085 0.0
H1392 H 0.81971 0.68876 0.22537 0.0
H1393 H 0.82842 0.65476 0.2237 0.0
C1394 C 0.6373 0.45347 0.77438 0.0
C1395 C 0.64885 0.4702 0.77418 0.0
C1396 C 0.64478 0.43563 0.76895 0.0
C1397 C 0.68861 0.40918 0.76998 0.0
H1398 H 0.66451 0.37419 0.73275 0.0
C1399 C 0.70893 0.33282 0.73223 0.0
C1400 C 0.71088 0.32112 0.74889 0.0
C1401 C 0.7007 0.35109 0.73367 0.0
C1402 C 0.67138 0.38389 0.7431 0.0
H1403 H 0.67716 0.48146 0.76791 0.0
H1404 H 0.69036 0.45012 0.75903 0.0
H1405 H 0.65128 0.40651 0.73794 0.0
H1406 H 0.70553 0.31936 0.78007 0.0
H1407 H 0.69168 0.35138 0.78257 0.0
H1408 H 0.70826 0.3864 0.7757 0.0
C1409 C 0.6755 0.45091 0.76317 0.0
C1410 C 0.66381 0.40227 0.74612 0.0
C1411 C 0.66793 0.4688 0.76821 0.0
C1412 C 0.70418 0.32795 0.76693 0.0
C1413 C 0.69635 0.34631 0.76842 0.0
C1414 C 0.69591 0.39071 0.76728 0.0
C1415 C 0.66401 0.43415 0.76361 0.0
C1416 C 0.67235 0.41503 0.75963 0.0
C1417 C 0.69468 0.35809 0.75186 0.0
C1418 C 0.68731 0.37789 0.7539 0.0
H1419 H 0.62252 0.45415 0.77881 0.0
H1420 H 0.63568 0.42288 0.76953 0.0
H1421 H 0.69537 0.41871 0.78057 0.0
H1422 H 0.71391 0.32793 0.71813 0.0
H1423 H 0.69956 0.35998 0.72071 0.0
C1424 C 0.03031 0.81653 0.93066 0.0
C1425 C 0.02757 0.81423 0.91047 0.0
C1426 C 0.03166 0.83493 0.93882 0.0
C1427 C 0.01103 0.88094 0.932 0.0
H1428 H 0.04547 0.89781 0.97327 0.0
C1429 C 0.99425 0.9481 0.97733 0.0
C1430 C -0.00199 0.94706 -0.00254 0.0
C1431 C 0.0016 0.93437 0.96462 0.0
C1432 C 0.03564 0.89325 0.96188 0.0
H1433 H 0.02502 0.82918 0.88278 0.0
H1434 H 0.02673 0.86156 0.89725 0.0
H1435 H 0.05277 0.86893 0.95432 0.0
H1436 H 0.01259 0.93113 0.02013 0.0
H1437 H 0.0245 0.90638 -0.00185 0.0
H1438 H 0.99309 0.90408 0.94028 0.0
C1439 C 0.02809 0.84907 0.90664 0.0
C1440 C 0.03996 0.87686 0.95092 0.0
C1441 C 0.02711 0.83061 0.89841 0.0
C1442 C 0.00947 0.93221 0.00465 0.0
C1443 C 0.01647 0.91816 0.99198 0.0
C1444 C 0.00653 0.89708 0.94315 0.0
C1445 C 0.02996 0.85133 0.92696 0.0
C1446 C 0.02746 0.87037 0.93618 0.0
C1447 C 0.01249 0.91898 0.9718 0.0
C1448 C 0.01854 0.9032 0.95854 0.0
H1449 H 0.03086 0.80409 0.94023 0.0
H1450 H 0.03291 0.83632 0.95455 0.0
H1451 H 0.00102 0.87603 0.9209 0.0
H1452 H 0.98577 0.95967 0.97135 0.0
H1453 H -0.00137 0.9358 0.94916 0.0
C1454 C 0.94617 0.25756 0.65666 0.0
C1455 C 0.94748 0.26109 0.63653 0.0
C1456 C 0.92904 0.26057 0.66646 0.0
C1457 C 0.88422 0.28779 0.66181 0.0
H1458 H 0.86792 0.25478 0.70442 0.0
C1459 C 0.80957 0.28866 0.69856 0.0
C1460 C 0.8092 0.28523 0.7188 0.0
C1461 C 0.82688 0.28839 0.68847 0.0
C1462 C 0.87243 0.26427 0.6927 0.0
H1463 H 0.9317 0.26953 0.61063 0.0
H1464 H 0.90169 0.27427 0.62762 0.0
H1465 H 0.89667 0.24698 0.68644 0.0
H1466 H 0.82673 0.28102 0.74463 0.0
H1467 H 0.8568 0.28077 0.72706 0.0
H1468 H 0.85962 0.30484 0.66795 0.0
C1469 C 0.914 0.26972 0.63597 0.0
C1470 C 0.88889 0.25979 0.68239 0.0
C1471 C 0.93115 0.26683 0.62621 0.0
C1472 C 0.82653 0.28341 0.72898 0.0
C1473 C 0.84374 0.28315 0.71894 0.0
C1474 C 0.86764 0.29219 0.67206 0.0
C1475 C 0.91285 0.26704 0.65627 0.0
C1476 C 0.89503 0.27153 0.66688 0.0
C1477 C 0.84399 0.28473 0.69851 0.0
C1478 C 0.86168 0.28054 0.68769 0.0
H1479 H 0.95856 0.25321 0.665 0.0
H1480 H 0.92869 0.25851 0.68214 0.0
H1481 H 0.88872 0.2973 0.65012 0.0
H1482 H 0.79644 0.29008 0.69032 0.0
H1483 H 0.82669 0.28971 0.67271 0.0
C1484 C 0.47213 0.19862 0.40678 0.0
C1485 C 0.47111 0.21253 0.4217 0.0
C1486 C 0.46624 0.1796 0.4102 0.0
C1487 C 0.44345 0.14667 0.44662 0.0
H1488 H 0.48693 0.11476 0.43492 0.0
C1489 C 0.46913 0.08654 0.49685 0.0
C1490 C 0.48074 0.072 0.48932 0.0
C1491 C 0.46147 0.10046 0.48442 0.0
C1492 C 0.4743 0.12308 0.4379 0.0
H1493 H 0.46138 0.21776 0.4513 0.0
H1494 H 0.45161 0.18458 0.45738 0.0
H1495 H 0.48428 0.14596 0.41973 0.0
H1496 H 0.49173 0.05919 0.46284 0.0
H1497 H 0.47772 0.08293 0.44104 0.0
H1498 H 0.43398 0.12394 0.46556 0.0
C1499 C 0.45678 0.18835 0.44298 0.0
C1500 C 0.4728 0.14111 0.42913 0.0
C1501 C 0.46261 0.20737 0.43955 0.0
C1502 C 0.48319 0.07056 0.46904 0.0
C1503 C 0.47518 0.08418 0.45658 0.0
C1504 C 0.44487 0.12848 0.45532 0.0
C1505 C 0.45927 0.17411 0.42862 0.0
C1506 C 0.45785 0.15345 0.43406 0.0
C1507 C 0.46501 0.09984 0.46419 0.0
C1508 C 0.4608 0.11685 0.45174 0.0
H1509 H 0.47825 0.20217 0.39271 0.0
H1510 H 0.46803 0.16898 0.39876 0.0
H1511 H 0.4316 0.15579 0.45044 0.0
H1512 H 0.46696 0.08789 0.51246 0.0
H1513 H 0.45388 0.11236 0.49089 0.0
C1514 C 0.57632 0.76925 0.13695 0.0
C1515 C 0.55977 0.76689 0.14828 0.0
C1516 C 0.59433 0.76948 0.1457 0.0
C1517 C 0.63069 0.77825 0.16782 0.0
H1518 H 0.64016 0.7423 0.21003 0.0
C1519 C 0.70353 0.77515 0.20735 0.0
C1520 C 0.71014 0.75693 0.21312 0.0
C1521 C 0.68503 0.77726 0.20007 0.0
C1522 C 0.63782 0.7523 0.19812 0.0
H1523 H 0.54922 0.76356 0.17785 0.0
H1524 H 0.58071 0.76441 0.1932 0.0
H1525 H 0.60822 0.74469 0.19631 0.0
H1526 H 0.70262 0.72656 0.21531 0.0
H1527 H 0.67059 0.73009 0.20198 0.0
H1528 H 0.66044 0.78521 0.169 0.0
C1529 C 0.57974 0.76563 0.17745 0.0
C1530 C 0.6194 0.7539 0.19047 0.0
C1531 C 0.56167 0.76525 0.16867 0.0
C1532 C 0.69793 0.74081 0.21111 0.0
C1533 C 0.67949 0.74288 0.20361 0.0
C1534 C 0.64913 0.77652 0.17536 0.0
C1535 C 0.59631 0.76753 0.16604 0.0
C1536 C 0.61563 0.76676 0.17508 0.0
C1537 C 0.67274 0.76116 0.19816 0.0
C1538 C 0.65298 0.7634 0.1905 0.0
H1539 H 0.57546 0.77047 0.1212 0.0
H1540 H 0.60673 0.77063 0.13638 0.0
H1541 H 0.62827 0.78853 0.15619 0.0
H1542 H 0.7125 0.78792 0.20888 0.0
H1543 H 0.68026 0.79159 0.1963 0.0
C1544 C 0.98192 0.19913 0.59315 0.0
C1545 C 0.99209 0.21 0.57919 0.0
C1546 C 0.97879 0.17938 0.59051 0.0
C1547 C 0.97759 0.13974 0.55518 0.0
H1548 H 0.9966 0.10881 0.59818 0.0
C1549 C 0.97255 0.05602 0.55757 0.0
C1550 C 0.99062 0.04756 0.55896 0.0
C1551 C 0.97043 0.07576 0.56116 0.0
C1552 C 0.99109 0.11729 0.58617 0.0
H1553 H 0.00584 0.20875 0.55087 0.0
H1554 H 0.00011 0.17414 0.5462 0.0
H1555 H 0.99635 0.14401 0.60109 0.0
H1556 H 0.02039 0.05273 0.56612 0.0
H1557 H 0.0165 0.08707 0.57316 0.0
H1558 H 0.97249 0.11291 0.54023 0.0
C1559 C 0.99472 0.18103 0.55924 0.0
C1560 C 0.99088 0.13737 0.58784 0.0
C1561 C -0.00195 0.20082 0.56196 0.0
C1562 C 0.00631 0.05891 0.56496 0.0
C1563 C 0.00409 0.07851 0.56899 0.0
C1564 C 0.97748 0.1196 0.55366 0.0
C1565 C 0.98554 0.17007 0.57376 0.0
C1566 C 0.98438 0.14878 0.57226 0.0
C1567 C 0.98624 0.08717 0.56667 0.0
C1568 C 0.98451 0.10826 0.56903 0.0
H1569 H 0.97695 0.20569 0.60654 0.0
H1570 H 0.97148 0.17126 0.6018 0.0
H1571 H 0.97249 0.14826 0.54301 0.0
H1572 H 0.96026 0.04761 0.55279 0.0
H1573 H 0.95652 0.08217 0.55935 0.0
C1574 C 0.53685 0.2304 0.34355 0.0
C1575 C 0.53817 0.22757 0.36381 0.0
C1576 C 0.55175 0.225 0.33136 0.0
C1577 C 0.60364 0.2183 0.33504 0.0
H1578 H 0.59875 0.2092 0.2793 0.0
C1579 C 0.66809 0.21048 0.28384 0.0
C1580 C 0.6682 0.22312 0.26777 0.0
C1581 C 0.65179 0.20819 0.2952 0.0
C1582 C 0.60025 0.21174 0.29486 0.0
H1583 H 0.555 0.21491 0.38701 0.0
H1584 H 0.58068 0.20461 0.36561 0.0
H1585 H 0.57046 0.20725 0.29999 0.0
H1586 H 0.65126 0.24308 0.25083 0.0
H1587 H 0.62245 0.23879 0.27069 0.0
H1588 H 0.63347 0.22256 0.32983 0.0
C1589 C 0.56855 0.21181 0.3592 0.0
C1590 C 0.5841 0.21066 0.30672 0.0
C1591 C 0.55378 0.21754 0.37146 0.0
C1592 C 0.6516 0.23334 0.2632 0.0
C1593 C 0.63512 0.23077 0.27441 0.0
C1594 C 0.61978 0.21902 0.32324 0.0
C1595 C 0.56815 0.21635 0.33915 0.0
C1596 C 0.58552 0.2144 0.32691 0.0
C1597 C 0.63516 0.21824 0.29055 0.0
C1598 C 0.61816 0.21617 0.30302 0.0
H1599 H 0.52495 0.23803 0.33721 0.0
H1600 H 0.55087 0.22887 0.31607 0.0
H1601 H 0.60535 0.22168 0.3504 0.0
H1602 H 0.68069 0.20243 0.28777 0.0
H1603 H 0.65213 0.19845 0.30758 0.0
C1604 C 0.49433 0.82323 0.13457 0.0
C1605 C 0.49591 0.80681 0.12266 0.0
C1606 C 0.49211 0.84144 0.12627 0.0
C1607 C 0.47623 0.86523 0.08111 0.0
H1608 H 0.50429 0.90934 0.10186 0.0
C1609 C 0.48538 0.93698 0.03983 0.0
C1610 C 0.48567 0.95427 0.05059 0.0
C1611 C 0.48407 0.91922 0.04932 0.0
C1612 C 0.49609 0.89724 0.09612 0.0
H1613 H 0.49683 0.79656 0.09275 0.0
H1614 H 0.4932 0.8285 0.07818 0.0
H1615 H 0.50816 0.87775 0.11685 0.0
H1616 H 0.48374 0.96651 0.07971 0.0
H1617 H 0.48135 0.9354 0.09629 0.0
H1618 H 0.46439 0.88471 0.06019 0.0
C1619 C 0.49337 0.82722 0.09395 0.0
C1620 C 0.49836 0.87913 0.10466 0.0
C1621 C 0.49561 0.80897 0.10227 0.0
C1622 C 0.48369 0.95345 0.071 0.0
C1623 C 0.48242 0.93565 0.08051 0.0
C1624 C 0.47396 0.88335 0.07257 0.0
C1625 C 0.49143 0.84361 0.10588 0.0
C1626 C 0.48862 0.8629 0.09712 0.0
C1627 C 0.48303 0.91836 0.06978 0.0
C1628 C 0.48403 0.89949 0.07986 0.0
H1629 H 0.49446 0.822 0.15035 0.0
H1630 H 0.49048 0.85377 0.13584 0.0
H1631 H 0.46825 0.85304 0.07523 0.0
H1632 H 0.48678 0.93708 0.02407 0.0
H1633 H 0.48473 0.90615 0.04066 0.0
C1634 C 0.95898 0.79026 0.85846 0.0
C1635 C 0.95713 0.79214 0.87881 0.0
C1636 C 0.94289 0.78849 0.84657 0.0
C1637 C 0.89373 0.77054 0.85017 0.0
H1638 H 0.89018 0.78805 0.79648 0.0
C1639 C 0.82584 0.76604 0.80299 0.0
C1640 C 0.82767 0.7616 0.78308 0.0
C1641 C 0.84191 0.76766 0.81491 0.0
C1642 C 0.89117 0.78282 0.81136 0.0
H1643 H 0.93698 0.79561 0.90246 0.0
H1644 H 0.90873 0.79296 0.88154 0.0
H1645 H 0.91682 0.79899 0.81691 0.0
H1646 H 0.84744 0.75432 0.76012 0.0
H1647 H 0.87588 0.75737 0.78107 0.0
H1648 H 0.86787 0.75465 0.84465 0.0
C1649 C 0.92269 0.79231 0.87489 0.0
C1650 C 0.90632 0.78918 0.8231 0.0
C1651 C 0.93886 0.79408 0.88683 0.0
C1652 C 0.84573 0.75759 0.77549 0.0
C1653 C 0.86194 0.75954 0.78739 0.0
C1654 C 0.87852 0.76429 0.83847 0.0
C1655 C 0.92457 0.78864 0.85476 0.0
C1656 C 0.90778 0.78311 0.84264 0.0
C1657 C 0.86015 0.76517 0.80706 0.0
C1658 C 0.8771 0.77036 0.81896 0.0
H1659 H 0.9729 0.78893 0.85182 0.0
H1660 H 0.94489 0.78569 0.83115 0.0
H1661 H 0.89467 0.76521 0.865 0.0
H1662 H 0.812 0.76922 0.80912 0.0
H1663 H 0.84011 0.77211 0.82996 0.0
C1664 C 0.88788 0.04322 0.82951 0.0
C1665 C 0.90389 0.03635 0.8195 0.0
C1666 C 0.88888 0.04687 0.84961 0.0
C1667 C 0.92358 0.05554 0.88948 0.0
H1668 H 0.88615 0.0308 0.92298 0.0
C1669 C 0.9392 0.04714 0.9707 0.0
C1670 C 0.93693 0.02799 0.97716 0.0
C1671 C 0.93056 0.05319 0.95337 0.0
C1672 C 0.89662 0.03794 0.91382 0.0
H1673 H 0.93347 0.02802 0.82255 0.0
H1674 H 0.93519 0.03426 0.85742 0.0
H1675 H 0.88058 0.03203 0.88773 0.0
H1676 H 0.9227 0.00059 0.97126 0.0
H1677 H 0.90816 0.01092 0.94084 0.0
H1678 H 0.9403 0.06026 0.91516 0.0
C1679 C 0.92194 0.03708 0.8498 0.0
C1680 C 0.89335 0.0388 0.89368 0.0
C1681 C 0.9209 0.03331 0.82985 0.0
C1682 C 0.92487 0.01539 0.96661 0.0
C1683 C 0.91634 0.0214 0.94924 0.0
C1684 C 0.92687 0.05466 0.90955 0.0
C1685 C 0.90597 0.04391 0.85989 0.0
C1686 C 0.90723 0.04681 0.88127 0.0
C1687 C 0.91958 0.04018 0.9421 0.0
C1688 C 0.91383 0.04509 0.92184 0.0
H1689 H 0.87459 0.04573 0.82184 0.0
H1690 H 0.87637 0.0521 0.85707 0.0
H1691 H 0.93435 0.06213 0.88025 0.0
H1692 H 0.94813 0.05732 0.9787 0.0
H1693 H 0.93305 0.06785 0.94844 0.0
C1694 C 0.77298 0.18065 0.54449 0.0
C1695 C 0.76959 0.19068 0.52701 0.0
C1696 C 0.76873 0.189 0.56243 0.0
C1697 C 0.73782 0.22595 0.58394 0.0
H1698 H 0.76633 0.21312 0.63073 0.0
C1699 C 0.7296 0.25579 0.66386 0.0
C1700 C 0.72921 0.24129 0.67827 0.0
C1701 C 0.7318 0.25092 0.64419 0.0
C1702 C 0.75822 0.21672 0.61775 0.0
H1703 H 0.7603 0.21794 0.51479 0.0
H1704 H 0.7534 0.23274 0.54628 0.0
H1705 H 0.77864 0.20389 0.59893 0.0
H1706 H 0.72865 0.21029 0.68309 0.0
H1707 H 0.7328 0.20195 0.64882 0.0
H1708 H 0.71765 0.23926 0.60314 0.0
C1709 C 0.75883 0.21817 0.546 0.0
C1710 C 0.76522 0.21143 0.59956 0.0
C1711 C 0.76297 0.20974 0.52797 0.0
C1712 C 0.72911 0.22183 0.67243 0.0
C1713 C 0.73153 0.21701 0.65283 0.0
C1714 C 0.73096 0.23155 0.60223 0.0
C1715 C 0.76121 0.20769 0.5634 0.0
C1716 C 0.7549 0.21555 0.58245 0.0
C1717 C 0.73376 0.23154 0.63875 0.0
C1718 C 0.74092 0.22654 0.61924 0.0
H1719 H 0.77807 0.16595 0.54436 0.0
H1720 H 0.77054 0.18038 0.57548 0.0
H1721 H 0.72941 0.22919 0.57108 0.0
H1722 H 0.7295 0.27091 0.66788 0.0
H1723 H 0.73343 0.26232 0.63347 0.0
C1724 C 0.59749 0.97956 0.33806 0.0
C1725 C 0.61627 0.979 0.33115 0.0
C1726 C 0.59359 0.97581 0.3576 0.0
C1727 C 0.61443 0.98021 0.40562 0.0
H1728 H 0.56662 0.95536 0.41994 0.0
C1729 C 0.56712 0.00886 0.4652 0.0
C1730 C 0.55546 0.99647 0.4763 0.0
C1731 C 0.57884 0.00151 0.45071 0.0
C1732 C 0.58027 0.96193 0.4164 0.0
H1733 H 0.64574 0.97391 0.33917 0.0
H1734 H 0.6389 0.9677 0.37372 0.0
H1735 H 0.57937 0.95074 0.38728 0.0
H1736 H 0.54751 0.9665 0.48139 0.0
H1737 H 0.56795 0.95365 0.45575 0.0
H1738 H 0.61491 0.99209 0.43449 0.0
C1739 C 0.62723 0.97091 0.36387 0.0
C1740 C 0.58747 0.95943 0.39763 0.0
C1741 C 0.63113 0.97454 0.34417 0.0
C1742 C 0.55619 0.97645 0.47294 0.0
C1743 C 0.56792 0.96908 0.45833 0.0
C1744 C 0.60726 0.98267 0.42443 0.0
C1745 C 0.60839 0.9715 0.37073 0.0
C1746 C 0.60399 0.96949 0.39174 0.0
C1747 C 0.5792 0.98158 0.44692 0.0
C1748 C 0.58953 0.97449 0.42959 0.0
H1749 H 0.58572 0.98291 0.32838 0.0
H1750 H 0.57898 0.97684 0.36255 0.0
H1751 H 0.62727 0.98804 0.40152 0.0
H1752 H 0.56704 0.02433 0.46748 0.0
H1753 H 0.58704 0.01158 0.44191 0.0
C1754 C 0.74231 0.80847 0.05342 0.0
C1755 C 0.75175 0.80579 0.0356 0.0
C1756 C 0.75 0.80119 0.07073 0.0
C1757 C 0.78834 0.77012 0.09152 0.0
H1758 H 0.78442 0.80654 0.13424 0.0
C1759 C 0.80508 0.75236 0.17188 0.0
C1760 C 0.80819 0.76783 0.18477 0.0
C1761 C 0.80319 0.75579 0.15184 0.0
C1762 C 0.78612 0.79635 0.1224 0.0
H1763 H 0.77591 0.79201 0.02182 0.0
H1764 H 0.78954 0.77993 0.05195 0.0
H1765 H 0.76898 0.81345 0.10356 0.0
H1766 H 0.81433 0.79839 0.18705 0.0
H1767 H 0.81266 0.80423 0.15196 0.0
H1768 H 0.80606 0.75331 0.1104 0.0
C1769 C 0.77609 0.7874 0.05263 0.0
C1770 C 0.77677 0.8001 0.10486 0.0
C1771 C 0.76825 0.79441 0.03529 0.0
C1772 C 0.81199 0.78626 0.17728 0.0
C1773 C 0.81066 0.78961 0.15722 0.0
C1774 C 0.79793 0.76644 0.1091 0.0
C1775 C 0.76747 0.79137 0.07064 0.0
C1776 C 0.77747 0.78693 0.08929 0.0
C1777 C 0.80468 0.77472 0.14448 0.0
C1778 C 0.79677 0.77944 0.12485 0.0
H1779 H 0.72943 0.81692 0.05412 0.0
H1780 H 0.74261 0.80393 0.08429 0.0
H1781 H 0.7892 0.75964 0.07983 0.0
H1782 H 0.80182 0.73806 0.17745 0.0
H1783 H 0.79865 0.74392 0.14256 0.0
C1784 C 0.96157 0.98302 0.73457 0.0
C1785 C 0.94424 0.99298 0.73291 0.0
C1786 C 0.96815 0.97173 0.7191 0.0
C1787 C 0.95052 0.94473 0.67674 0.0
H1788 H -0.00082 0.95581 0.65232 0.0
C1789 C 0.96107 0.9461 0.59595 0.0
C1790 C 0.97919 0.94394 0.58774 0.0
C1791 C 0.95829 0.94294 0.61581 0.0
C1792 C 0.98581 0.95195 0.65926 0.0
H1793 H 0.9206 -0.00065 0.71347 0.0
H1794 H 0.93208 0.97968 0.68662 0.0
H1795 H 0.99195 0.97006 0.68398 0.0
H1796 H 0.00818 0.93487 0.59321 0.0
H1797 H 0.00339 0.92956 0.62827 0.0
H1798 H 0.94393 0.9274 0.65167 0.0
C1799 C 0.94044 0.98048 0.69996 0.0
C1800 C 0.98165 0.96027 0.67733 0.0
C1801 C 0.93402 0.99197 0.71524 0.0
C1802 C 0.99406 0.93662 0.59927 0.0
C1803 C 0.99135 0.93371 0.61931 0.0
C1804 C 0.95474 0.93627 0.65881 0.0
C1805 C 0.95733 0.96997 0.70189 0.0
C1806 C 0.96356 0.95759 0.68561 0.0
C1807 C 0.97367 0.93783 0.62793 0.0
C1808 C 0.97195 0.94078 0.64931 0.0
H1809 H 0.96979 0.98351 0.74801 0.0
H1810 H 0.98133 0.96391 0.7208 0.0
H1811 H 0.93661 0.94214 0.68313 0.0
H1812 H 0.94937 0.95163 0.58729 0.0
H1813 H 0.94452 0.94639 0.62191 0.0
C1814 C 0.77897 0.12543 0.42262 0.0
C1815 C 0.7817 0.14235 0.43368 0.0
C1816 C 0.78109 0.12583 0.40234 0.0
C1817 C 0.80134 0.15423 0.36185 0.0
H1818 H 0.75492 0.14035 0.33397 0.0
C1819 C 0.77529 0.19573 0.29601 0.0
C1820 C 0.76276 0.18708 0.28246 0.0
C1821 C 0.7826 0.18503 0.31149 0.0
C1822 C 0.76828 0.14378 0.34126 0.0
H1823 H 0.78939 0.17274 0.43243 0.0
H1824 H 0.79313 0.17342 0.39706 0.0
H1825 H 0.75875 0.13071 0.36782 0.0
H1826 H 0.74945 0.16005 0.2734 0.0
H1827 H 0.76255 0.14124 0.30028 0.0
H1828 H 0.81061 0.16793 0.33551 0.0
C1829 C 0.78945 0.15986 0.40405 0.0
C1830 C 0.77042 0.13828 0.36072 0.0
C1831 C 0.78705 0.15953 0.42424 0.0
C1832 C 0.75876 0.1672 0.28388 0.0
C1833 C 0.76628 0.15642 0.29926 0.0
C1834 C 0.79933 0.15952 0.3423 0.0
C1835 C 0.7863 0.14307 0.39292 0.0
C1836 C 0.7865 0.14435 0.37142 0.0
C1837 C 0.77773 0.16538 0.31362 0.0
C1838 C 0.7823 0.1553 0.33213 0.0
H1839 H 0.77494 0.11196 0.42959 0.0
H1840 H 0.77851 0.11275 0.39401 0.0
H1841 H 0.81402 0.15878 0.36979 0.0
H1842 H 0.77873 0.211 0.29525 0.0
H1843 H 0.79114 0.19252 0.32239 0.0
C1844 C 0.56531 0.01456 0.2329 0.0
C1845 C 0.5833 0.00596 0.23474 0.0
C1846 C 0.55891 0.0211 0.21478 0.0
C1847 C 0.57644 0.03702 0.16687 0.0
H1848 H 0.525 0.0251 0.14934 0.0
C1849 C 0.55238 0.03835 0.08648 0.0
C1850 C 0.53303 0.0414 0.08233 0.0
C1851 C 0.55895 0.03889 0.10577 0.0
C1852 C 0.53927 0.029 0.15415 0.0
H1853 H 0.60839 0.99696 0.2188 0.0
H1854 H 0.59705 0.00819 0.18715 0.0
H1855 H 0.5352 0.01498 0.18165 0.0
H1856 H 0.5059 0.04978 0.0946 0.0
H1857 H 0.5175 0.05138 0.12816 0.0
H1858 H 0.5806 0.05081 0.13919 0.0
C1859 C 0.58808 0.01013 0.19983 0.0
C1860 C 0.54513 0.02307 0.17265 0.0
C1861 C 0.59445 0.00348 0.21793 0.0
C1862 C 0.52083 0.047 0.09747 0.0
C1863 C 0.52745 0.04781 0.11669 0.0
C1864 C 0.57055 0.04307 0.14836 0.0
C1865 C 0.57038 0.01924 0.19814 0.0
C1866 C 0.56387 0.02669 0.17904 0.0
C1867 C 0.5463 0.04272 0.12116 0.0
C1868 C 0.55199 0.03882 0.14166 0.0
H1869 H 0.55634 0.01672 0.24554 0.0
H1870 H 0.5452 0.02809 0.21388 0.0
H1871 H 0.59088 0.04031 0.17161 0.0
H1872 H 0.5621 0.03403 0.07507 0.0
H1873 H 0.57356 0.03488 0.10869 0.0
C1874 C 0.71878 0.87454 0.93859 0.0
C1875 C 0.72882 0.85995 0.94834 0.0
C1876 C 0.71986 0.87623 0.91825 0.0
C1877 C 0.74937 0.86367 0.87635 0.0
H1878 H 0.70242 0.85406 0.84757 0.0
C1879 C 0.72826 0.81637 0.80733 0.0
C1880 C 0.74357 0.82112 0.79503 0.0
C1881 C 0.72386 0.82825 0.82313 0.0
C1882 C 0.71561 0.85704 0.85536 0.0
H1883 H 0.74828 0.83616 0.94471 0.0
H1884 H 0.75052 0.8394 0.90941 0.0
H1885 H 0.70115 0.86199 0.88242 0.0
H1886 H 0.76489 0.84311 0.78827 0.0
H1887 H 0.75711 0.86384 0.81577 0.0
H1888 H 0.764 0.85745 0.84992 0.0
C1889 C 0.74176 0.84945 0.91741 0.0
C1890 C 0.71487 0.86173 0.87522 0.0
C1891 C 0.74037 0.8475 0.93758 0.0
C1892 C 0.75328 0.83882 0.79778 0.0
C1893 C 0.74881 0.85074 0.81348 0.0
C1894 C 0.75013 0.85914 0.85655 0.0
C1895 C 0.73138 0.86367 0.90755 0.0
C1896 C 0.7318 0.86411 0.88602 0.0
C1897 C 0.73463 0.84515 0.82683 0.0
C1898 C 0.7333 0.85484 0.84608 0.0
H1899 H 0.70971 0.88428 0.94661 0.0
H1900 H 0.71167 0.88723 0.91088 0.0
H1901 H 0.7626 0.86559 0.88442 0.0
H1902 H 0.72041 0.80292 0.80548 0.0
H1903 H 0.71294 0.82345 0.83323 0.0
C1904 C 0.783 0.89208 0.0141 0.0
C1905 C 0.78658 0.87641 0.0016 0.0
C1906 C 0.79806 0.90321 0.02171 0.0
C1907 C 0.8494 0.91427 0.01425 0.0
H1908 H 0.84815 0.93106 0.06836 0.0
C1909 C 0.9165 0.9428 0.04985 0.0
C1910 C 0.9153 0.96202 0.05616 0.0
C1911 C 0.90003 0.93174 0.04691 0.0
C1912 C 0.84859 0.92649 0.05323 0.0
H1913 H 0.80882 0.86033 0.98715 0.0
H1914 H 0.83498 0.87942 0.00063 0.0
H1915 H 0.82068 0.91358 0.05435 0.0
H1916 H 0.89625 0.98424 0.0662 0.0
H1917 H 0.86712 0.96468 0.0611 0.0
H1918 H 0.87739 0.92675 0.01322 0.0
C1919 C 0.82055 0.8834 0.0043 0.0
C1920 C 0.83287 0.91661 0.04514 0.0
C1921 C 0.80551 0.87238 0.99658 0.0
C1922 C 0.8975 0.96938 0.0615 0.0
C1923 C 0.88088 0.95825 0.05848 0.0
C1924 C 0.86509 0.92388 0.02236 0.0
C1925 C 0.81703 0.89888 0.01707 0.0
C1926 C 0.8332 0.91022 0.02558 0.0
C1927 C 0.88204 0.93974 0.05013 0.0
C1928 C 0.86495 0.92988 0.04197 0.0
H1929 H 0.76857 0.89564 0.01822 0.0
H1930 H 0.79482 0.91522 0.03122 0.0
H1931 H 0.84999 0.91006 -0.00098 0.0
H1932 H 0.93011 0.93681 0.04571 0.0
H1933 H 0.9013 0.91738 0.04079 0.0
C1934 C 0.31929 0.62505 0.02352 0.0
C1935 C 0.3219 0.64337 0.01509 0.0
C1936 C 0.33426 0.61192 0.02386 0.0
C1937 C 0.37561 0.60042 0.99444 0.0
H1938 H 0.38832 0.56513 0.03627 0.0
C1939 C 0.43979 0.54893 0.99145 0.0
C1940 C 0.43818 0.53124 0.00132 0.0
C1941 C 0.42498 0.56224 0.99228 0.0
C1942 C 0.38472 0.57467 0.02432 0.0
H1943 H 0.34265 0.66303 0.00222 0.0
H1944 H 0.36873 0.64014 0.00294 0.0
H1945 H 0.36468 0.59005 0.04182 0.0
H1946 H 0.41927 0.51278 0.0182 0.0
H1947 H 0.39321 0.53563 0.019 0.0
H1948 H 0.3953 0.5849 0.97679 0.0
C1949 C 0.35504 0.6358 0.00888 0.0
C1950 C 0.37129 0.58902 0.02759 0.0
C1951 C 0.34014 0.64893 0.00862 0.0
C1952 C 0.42098 0.52645 0.01067 0.0
C1953 C 0.40613 0.53961 0.0113 0.0
C1954 C 0.38891 0.58598 0.99111 0.0
C1955 C 0.35201 0.61693 0.01574 0.0
C1956 C 0.36668 0.60208 0.01271 0.0
C1957 C 0.40825 0.55796 0.0028 0.0
C1958 C 0.39364 0.57294 0.00601 0.0
H1959 H 0.30539 0.62039 0.02867 0.0
H1960 H 0.33156 0.59746 0.02929 0.0
H1961 H 0.37202 0.61007 0.98257 0.0
H1962 H 0.45294 0.55304 0.98423 0.0
H1963 H 0.42712 0.57626 0.9856 0.0
C1964 C 0.12564 0.56093 0.77846 0.0
C1965 C 0.13297 0.54264 0.78281 0.0
C1966 C 0.13623 0.57398 0.7672 0.0
C1967 C 0.18362 0.58665 0.74869 0.0
H1968 H 0.15574 0.6055 0.70362 0.0
C1969 C 0.22008 0.64009 0.69824 0.0
C1970 C 0.20923 0.65678 0.69582 0.0
C1971 C 0.21122 0.62277 0.70381 0.0
C1972 C 0.16374 0.60039 0.71611 0.0
H1973 H 0.1578 0.52442 0.78051 0.0
H1974 H 0.17649 0.5475 0.76134 0.0
H1975 H 0.13985 0.58412 0.72691 0.0
H1976 H 0.18073 0.66824 0.69511 0.0
H1977 H 0.1652 0.63828 0.70469 0.0
H1978 H 0.20724 0.60353 0.73856 0.0
C1979 C 0.16244 0.55156 0.7663 0.0
C1980 C 0.15461 0.58824 0.72949 0.0
C1981 C 0.15176 0.53839 0.77731 0.0
C1982 C 0.1893 0.6554 0.69656 0.0
C1983 C 0.18044 0.63818 0.70221 0.0
C1984 C 0.19271 0.599 0.73545 0.0
C1985 C 0.15442 0.56908 0.76041 0.0
C1986 C 0.16437 0.58156 0.74608 0.0
C1987 C 0.19143 0.62205 0.70724 0.0
C1988 C 0.18278 0.60631 0.71917 0.0
H1989 H 0.11119 0.5646 0.78241 0.0
H1990 H 0.12989 0.58759 0.76313 0.0
H1991 H 0.19146 0.58165 0.76135 0.0
H1992 H 0.23552 0.64096 0.69804 0.0
H1993 H 0.22004 0.61045 0.70707 0.0
C1994 C 0.16052 0.38167 0.51549 0.0
C1995 C 0.17834 0.38926 0.52131 0.0
C1996 C 0.14422 0.39295 0.51669 0.0
C1997 C 0.12463 0.43895 0.53513 0.0
H1998 H 0.09954 0.44 0.48449 0.0
C1999 C 0.07509 0.50082 0.51336 0.0
C2000 C 0.05777 0.49556 0.50427 0.0
C2001 C 0.08955 0.48733 0.51567 0.0
C2002 C 0.10621 0.43974 0.49879 0.0
H2003 H 0.19271 0.41369 0.53503 0.0
H2004 H 0.16427 0.43336 0.53707 0.0
H2005 H 0.12369 0.41592 0.49105 0.0
H2006 H 0.04251 0.47226 0.48948 0.0
H2007 H 0.06766 0.44877 0.49362 0.0
H2008 H 0.10722 0.46292 0.54279 0.0
C2009 C 0.16288 0.41877 0.5315 0.0
C2010 C 0.11999 0.42588 0.5026 0.0
C2011 C 0.1792 0.4075 0.53029 0.0
C2012 C 0.05567 0.47683 0.49654 0.0
C2013 C 0.07011 0.46333 0.49891 0.0
C2014 C 0.11078 0.45279 0.53134 0.0
C2015 C 0.14545 0.41197 0.52377 0.0
C2016 C 0.12946 0.42543 0.52074 0.0
C2017 C 0.08699 0.46828 0.50897 0.0
C2018 C 0.10156 0.45346 0.51305 0.0
H2019 H 0.15936 0.36756 0.50872 0.0
H2020 H 0.13085 0.38718 0.51105 0.0
H2021 H 0.13162 0.43887 0.54927 0.0
H2022 H 0.07724 0.51516 0.51938 0.0
H2023 H 0.10259 0.49171 0.52306 0.0
C2024 C 0.86155 0.97134 0.76621 0.0
C2025 C 0.87894 0.96779 0.77583 0.0
C2026 C 0.85123 0.95624 0.75748 0.0
C2027 C 0.82896 0.91878 0.74767 0.0
H2028 H 0.85988 0.88476 0.71622 0.0
C2029 C 0.79476 0.85257 0.71152 0.0
C2030 C 0.80431 0.8357 0.71693 0.0
C2031 C 0.80404 0.87053 0.71313 0.0
C2032 C 0.85104 0.89415 0.72489 0.0
H2033 H 0.89846 0.94544 0.78495 0.0
H2034 H 0.88038 0.91908 0.76971 0.0
H2035 H 0.87488 0.91191 0.73334 0.0
H2036 H 0.83139 0.82393 0.72598 0.0
H2037 H 0.84757 0.85494 0.72861 0.0
H2038 H 0.80525 0.90057 0.74003 0.0
C2039 C 0.87491 0.9336 0.76876 0.0
C2040 C 0.85964 0.90961 0.73477 0.0
C2041 C 0.88511 0.94866 0.7777 0.0
C2042 C 0.82376 0.83679 0.72174 0.0
C2043 C 0.83303 0.85462 0.7232 0.0
C2044 C 0.82036 0.90319 0.73794 0.0
C2045 C 0.85823 0.93736 0.75804 0.0
C2046 C 0.84877 0.92177 0.74665 0.0
C2047 C 0.82298 0.87176 0.72001 0.0
C2048 C 0.83139 0.89038 0.72685 0.0
H2049 H 0.85639 0.98593 0.76459 0.0
H2050 H 0.83835 0.95949 0.74939 0.0
H2051 H 0.82026 0.928 0.75669 0.0
H2052 H 0.77971 0.85206 0.70788 0.0
H2053 H 0.79603 0.8835 0.71023 0.0
C2054 C 0.69802 0.14772 0.4768 0.0
C2055 C 0.71484 0.13911 0.48363 0.0
C2056 C 0.68019 0.14123 0.48339 0.0
C2057 C 0.65793 0.11594 0.52484 0.0
H2058 H 0.61589 0.10643 0.48905 0.0
C2059 C 0.59127 0.0703 0.54473 0.0
C2060 C 0.57397 0.07452 0.53537 0.0
C2061 C 0.60781 0.08091 0.54029 0.0
C2062 C 0.62733 0.10938 0.49934 0.0
H2063 H 0.72598 0.1164 0.50222 0.0
H2064 H 0.69501 0.10517 0.51353 0.0
H2065 H 0.64598 0.11916 0.47662 0.0
H2066 H 0.55993 0.09423 0.51553 0.0
H2067 H 0.58853 0.11312 0.50834 0.0
H2068 H 0.63935 0.10607 0.54758 0.0
C2069 C 0.69563 0.11712 0.50335 0.0
C2070 C 0.6446 0.1166 0.49216 0.0
C2071 C 0.71338 0.12349 0.4967 0.0
C2072 C 0.57315 0.09049 0.52277 0.0
C2073 C 0.58957 0.10121 0.51852 0.0
C2074 C 0.64061 0.10883 0.53206 0.0
C2075 C 0.67888 0.12611 0.49702 0.0
C2076 C 0.66016 0.11966 0.50479 0.0
C2077 C 0.60725 0.09605 0.52657 0.0
C2078 C 0.62517 0.10522 0.51936 0.0
H2079 H 0.69861 0.15977 0.46675 0.0
H2080 H 0.66749 0.14841 0.47827 0.0
H2081 H 0.66961 0.11848 0.53497 0.0
H2082 H 0.59234 0.05801 0.55443 0.0
H2083 H 0.62119 0.07647 0.54671 0.0
C2084 C 0.12455 0.42054 0.76821 0.0
C2085 C 0.13212 0.43805 0.76114 0.0
C2086 C 0.13598 0.40425 0.76943 0.0
C2087 C 0.18121 0.3827 0.75412 0.0
H2088 H 0.18098 0.36057 0.80622 0.0
C2089 C 0.23561 0.32598 0.7739 0.0
C2090 C 0.22805 0.30935 0.78274 0.0
C2091 C 0.22526 0.34301 0.77375 0.0
C2092 C 0.18113 0.3665 0.79158 0.0
H2093 H 0.15685 0.4517 0.74783 0.0
H2094 H 0.17672 0.42315 0.74973 0.0
H2095 H 0.15862 0.38606 0.79798 0.0
H2096 H 0.2046 0.29751 0.79947 0.0
H2097 H 0.18615 0.32718 0.7989 0.0
H2098 H 0.2034 0.36301 0.7475 0.0
C2099 C 0.16205 0.42209 0.75455 0.0
C2100 C 0.16828 0.38101 0.78683 0.0
C2101 C 0.15065 0.43843 0.75343 0.0
C2102 C 0.21078 0.31034 0.79287 0.0
C2103 C 0.20022 0.32732 0.79243 0.0
C2104 C 0.19396 0.36811 0.75881 0.0
C2105 C 0.15509 0.40516 0.76343 0.0
C2106 C 0.16818 0.38921 0.76805 0.0
C2107 C 0.20694 0.34352 0.78198 0.0
C2108 C 0.1941 0.35984 0.7776 0.0
H2109 H 0.11026 0.41976 0.77413 0.0
H2110 H 0.13016 0.39121 0.77592 0.0
H2111 H 0.18136 0.38872 0.73952 0.0
H2112 H 0.24891 0.32541 0.76594 0.0
H2113 H 0.23109 0.35541 0.7661 0.0
C2114 C 0.36885 0.56496 0.23092 0.0
C2115 C 0.38799 0.56594 0.23709 0.0
C2116 C 0.35726 0.58118 0.23228 0.0
C2117 C 0.35301 0.62251 0.26434 0.0
H2118 H 0.31291 0.63862 0.22903 0.0
C2119 C 0.30477 0.6876 0.28069 0.0
C2120 C 0.2859 0.68704 0.2737 0.0
C2121 C 0.31738 0.67282 0.27606 0.0
C2122 C 0.32385 0.6341 0.2392 0.0
H2123 H 0.41053 0.5852 0.24739 0.0
H2124 H 0.39029 0.61345 0.2497 0.0
H2125 H 0.33542 0.61411 0.21856 0.0
H2126 H 0.26506 0.66987 0.2576 0.0
H2127 H 0.28679 0.64373 0.25022 0.0
H2128 H 0.34122 0.64189 0.28523 0.0
C2129 C 0.38418 0.60007 0.24417 0.0
C2130 C 0.33684 0.62019 0.23309 0.0
C2131 C 0.39581 0.58391 0.24267 0.0
C2132 C 0.27957 0.67081 0.26305 0.0
C2133 C 0.2921 0.65593 0.25862 0.0
C2134 C 0.33993 0.63624 0.27052 0.0
C2135 C 0.36461 0.5986 0.2399 0.0
C2136 C 0.35155 0.61428 0.24561 0.0
C2137 C 0.31132 0.65703 0.26453 0.0
C2138 C 0.32514 0.6422 0.25806 0.0
H2139 H 0.36243 0.55134 0.22648 0.0
H2140 H 0.34222 0.57965 0.22882 0.0
H2141 H 0.36396 0.61791 0.27447 0.0
H2142 H 0.31014 0.69998 0.28879 0.0
H2143 H 0.33208 0.67426 0.28077 0.0
C2144 C 0.47323 0.71778 0.60829 0.0
C2145 C 0.48386 0.72889 0.59486 0.0
C2146 C 0.46746 0.69896 0.60377 0.0
C2147 C 0.46125 0.66411 0.56317 0.0
H2148 H 0.47136 0.62591 0.60322 0.0
C2149 C 0.4744 0.58494 0.54557 0.0
C2150 C 0.46782 0.57031 0.55817 0.0
C2151 C 0.4721 0.60431 0.55026 0.0
C2152 C 0.46804 0.6364 0.59202 0.0
H2153 H 0.49607 0.72908 0.56582 0.0
H2154 H 0.48615 0.696 0.55799 0.0
H2155 H 0.47558 0.66011 0.61066 0.0
H2156 H 0.45312 0.56459 0.58539 0.0
H2157 H 0.44924 0.59883 0.59378 0.0
H2158 H 0.45426 0.64033 0.54436 0.0
C2159 C 0.48217 0.70201 0.57198 0.0
C2160 C 0.47051 0.65602 0.59625 0.0
C2161 C 0.48795 0.72093 0.57649 0.0
C2162 C 0.45838 0.57554 0.57542 0.0
C2163 C 0.45622 0.5951 0.58023 0.0
C2164 C 0.45876 0.6445 0.55895 0.0
C2165 C 0.47216 0.69071 0.58573 0.0
C2166 C 0.4676 0.67007 0.58173 0.0
C2167 C 0.46321 0.60967 0.56772 0.0
C2168 C 0.46264 0.63041 0.57317 0.0
H2169 H 0.46952 0.72352 0.62248 0.0
H2170 H 0.45947 0.69078 0.61453 0.0
H2171 H 0.45852 0.6746 0.5518 0.0
H2172 H 0.48159 0.58148 0.53207 0.0
H2173 H 0.47792 0.61511 0.54044 0.0
C2174 C 0.57743 0.24237 0.8544 0.0
C2175 C 0.55894 0.24242 0.84651 0.0
C2176 C 0.59147 0.23093 0.84613 0.0
C2177 C 0.60558 0.21187 0.79946 0.0
H2178 H 0.64644 0.19086 0.83101 0.0
C2179 C 0.68019 0.20653 0.76801 0.0
C2180 C 0.69228 0.2185 0.77927 0.0
C2181 C 0.66309 0.19945 0.77589 0.0
C2182 C 0.635 0.19629 0.82193 0.0
H2183 H 0.54044 0.23015 0.8241 0.0
H2184 H 0.56525 0.2104 0.80933 0.0
H2185 H 0.6158 0.19793 0.84608 0.0
H2186 H 0.69711 0.2308 0.80801 0.0
H2187 H 0.66756 0.21848 0.82174 0.0
H2188 H 0.6252 0.2117 0.77568 0.0
C2189 C 0.56878 0.21916 0.82198 0.0
C2190 C 0.61752 0.20041 0.83056 0.0
C2191 C 0.55465 0.23052 0.83038 0.0
C2192 C 0.6879 0.22182 0.79895 0.0
C2193 C 0.67106 0.21453 0.80687 0.0
C2194 C 0.62307 0.20776 0.79084 0.0
C2195 C 0.58737 0.21935 0.82973 0.0
C2196 C 0.60312 0.20942 0.81967 0.0
C2197 C 0.65809 0.20397 0.79522 0.0
C2198 C 0.63833 0.20118 0.80231 0.0
H2199 H 0.58113 0.25125 0.86692 0.0
H2200 H 0.60576 0.23171 0.8522 0.0
H2201 H 0.59472 0.21874 0.79068 0.0
H2202 H 0.68333 0.20368 0.7528 0.0
H2203 H 0.65335 0.19131 0.76662 0.0
C2204 C 0.01362 0.34057 0.13299 0.0
C2205 C 0.01249 0.32567 0.1191 0.0
C2206 C 0.02345 0.3577 0.12883 0.0
C2207 C 0.04057 0.38666 0.08704 0.0
H2208 H 0.06467 0.41724 0.12802 0.0
C2209 C 0.06613 0.46171 0.06908 0.0
C2210 C 0.05671 0.47541 0.08046 0.0
C2211 C 0.0679 0.44279 0.0757 0.0
C2212 C 0.05815 0.40876 0.11642 0.0
H2213 H 0.0211 0.31677 0.09014 0.0
H2214 H 0.03879 0.34645 0.08303 0.0
H2215 H 0.05322 0.38451 0.13517 0.0
H2216 H 0.04326 0.4809 0.10824 0.0
H2217 H 0.04622 0.44768 0.11992 0.0
H2218 H 0.04516 0.4109 0.0684 0.0
C2219 C 0.03169 0.34515 0.09698 0.0
C2220 C 0.05144 0.39008 0.12051 0.0
C2221 C 0.02157 0.32811 0.10104 0.0
C2222 C 0.05086 0.47056 0.0994 0.0
C2223 C 0.05252 0.45154 0.10603 0.0
C2224 C 0.04747 0.40515 0.08292 0.0
C2225 C 0.03263 0.36025 0.11078 0.0
C2226 C 0.04207 0.37901 0.10599 0.0
C2227 C 0.05997 0.43725 0.09368 0.0
C2228 C 0.05591 0.41658 0.09766 0.0
H2229 H 0.00671 0.3391 0.14704 0.0
H2230 H 0.02345 0.36911 0.13966 0.0
H2231 H 0.03318 0.3788 0.07555 0.0
H2232 H 0.07057 0.46519 0.05434 0.0
H2233 H 0.07396 0.43212 0.06603 0.0
C2234 C 0.96138 0.75553 0.3717 0.0
C2235 C 0.96956 0.77241 0.37964 0.0
C2236 C 0.94214 0.75482 0.36666 0.0
C2237 C 0.90489 0.78773 0.35038 0.0
H2238 H 0.876 0.73976 0.34619 0.0
C2239 C 0.83266 0.77878 0.30857 0.0
C2240 C 0.83285 0.76399 0.29445 0.0
C2241 C 0.84756 0.78073 0.32209 0.0
C2242 C 0.8839 0.75327 0.34735 0.0
H2243 H 0.9637 0.80132 0.38996 0.0
H2244 H 0.92975 0.79998 0.3814 0.0
H2245 H 0.90418 0.74137 0.36723 0.0
H2246 H 0.84877 0.73969 0.28345 0.0
H2247 H 0.87465 0.74291 0.30737 0.0
H2248 H 0.8845 0.7995 0.33036 0.0
C2249 C 0.93838 0.7874 0.37877 0.0
C2250 C 0.90003 0.75422 0.35936 0.0
C2251 C 0.95776 0.7881 0.38387 0.0
C2252 C 0.84828 0.75128 0.29406 0.0
C2253 C 0.86298 0.753 0.30784 0.0
C2254 C 0.88855 0.78685 0.33862 0.0
C2255 C 0.93052 0.77097 0.36944 0.0
C2256 C 0.91119 0.77123 0.36039 0.0
C2257 C 0.86269 0.76769 0.32201 0.0
C2258 C 0.87835 0.76941 0.33647 0.0
H2259 H 0.97009 0.74315 0.36841 0.0
H2260 H 0.93676 0.74199 0.35934 0.0
H2261 H 0.91319 0.80101 0.35063 0.0
H2262 H 0.82096 0.78882 0.30919 0.0
H2263 H 0.84707 0.79219 0.33286 0.0
C2264 C 0.51305 0.33537 0.86154 0.0
C2265 C 0.5151 0.32254 0.87734 0.0
C2266 C 0.50622 0.35409 0.86467 0.0
C2267 C 0.47587 0.38093 0.89676 0.0
H2268 H 0.51233 0.42341 0.89894 0.0
C2269 C 0.48075 0.43238 0.96002 0.0
C2270 C 0.48622 0.45176 0.95755 0.0
C2271 C 0.47917 0.42009 0.94396 0.0
C2272 C 0.5017 0.41197 0.89786 0.0
H2273 H 0.512 0.31939 0.90874 0.0
H2274 H 0.49979 0.35155 0.91398 0.0
H2275 H 0.51999 0.39424 0.88055 0.0
H2276 H 0.49353 0.47375 0.93621 0.0
H2277 H 0.49124 0.45196 0.908 0.0
H2278 H 0.45822 0.39787 0.91535 0.0
C2279 C 0.50338 0.34718 0.89924 0.0
C2280 C 0.5061 0.39531 0.88731 0.0
C2281 C 0.51046 0.32879 0.89622 0.0
C2282 C 0.48928 0.45885 0.93854 0.0
C2283 C 0.488 0.44642 0.92242 0.0
C2284 C 0.47144 0.39755 0.90721 0.0
C2285 C 0.50103 0.3599 0.88354 0.0
C2286 C 0.4937 0.37928 0.88773 0.0
C2287 C 0.48324 0.42684 0.92505 0.0
C2288 C 0.48486 0.41269 0.90892 0.0
H2289 H 0.51657 0.33092 0.84684 0.0
H2290 H 0.50468 0.36384 0.85243 0.0
H2291 H 0.4661 0.36868 0.89721 0.0
H2292 H 0.47816 0.42653 0.97447 0.0
H2293 H 0.47576 0.40501 0.94653 0.0
C2294 C 0.93278 0.2721 0.15197 0.0
C2295 C 0.94985 0.26318 0.15746 0.0
C2296 C 0.91527 0.26426 0.1575 0.0
C2297 C 0.88074 0.23846 0.15936 0.0
H2298 H 0.87006 0.2227 0.21251 0.0
C2299 C 0.80433 0.21821 0.18394 0.0
C2300 C 0.79896 0.22697 0.20157 0.0
C2301 C 0.82353 0.21806 0.17834 0.0
C2302 C 0.87285 0.22698 0.19757 0.0
H2303 H 0.96204 0.23942 0.17365 0.0
H2304 H 0.93114 0.22561 0.18348 0.0
H2305 H 0.90251 0.23206 0.2035 0.0
H2306 H 0.80963 0.24232 0.22719 0.0
H2307 H 0.84262 0.24245 0.21727 0.0
H2308 H 0.85096 0.23454 0.15365 0.0
C2309 C 0.93142 0.23872 0.17487 0.0
C2310 C 0.89147 0.23216 0.19239 0.0
C2311 C 0.94908 0.24666 0.16935 0.0
C2312 C 0.81318 0.23537 0.21352 0.0
C2313 C 0.83223 0.23525 0.20794 0.0
C2314 C 0.86213 0.23337 0.16455 0.0
C2315 C 0.91434 0.24721 0.16856 0.0
C2316 C 0.89544 0.23868 0.17341 0.0
C2317 C 0.83767 0.22667 0.19028 0.0
C2318 C 0.85784 0.22829 0.1839 0.0
H2319 H 0.93292 0.28495 0.14295 0.0
H2320 H 0.90239 0.2715 0.15293 0.0
H2321 H 0.88348 0.24295 0.14446 0.0
H2322 H 0.79374 0.21149 0.17449 0.0
H2323 H 0.8273 0.21125 0.16467 0.0
C2324 C 0.05553 0.71351 0.38916 0.0
C2325 C 0.05067 0.72945 0.40076 0.0
C2326 C 0.05976 0.6958 0.39782 0.0
C2327 C 0.06602 0.67107 0.44619 0.0
H2328 H 0.03612 0.63076 0.42079 0.0
C2329 C 0.01567 0.60325 0.46891 0.0
C2330 C 0.02711 0.59317 0.48226 0.0
C2331 C 0.02341 0.61806 0.45759 0.0
C2332 C 0.04462 0.64182 0.42804 0.0
H2333 H 0.04803 0.73972 0.43058 0.0
H2334 H 0.05466 0.70886 0.44558 0.0
H2335 H 0.04261 0.66064 0.40356 0.0
H2336 H 0.05575 0.59079 0.49413 0.0
H2337 H 0.06928 0.61689 0.47424 0.0
H2338 H 0.06668 0.65257 0.47125 0.0
C2339 C 0.05558 0.70997 0.42983 0.0
C2340 C 0.04861 0.65891 0.41804 0.0
C2341 C 0.05159 0.72771 0.4212 0.0
C2342 C 0.04653 0.5983 0.48401 0.0
C2343 C 0.05429 0.61324 0.47266 0.0
C2344 C 0.0619 0.65396 0.45626 0.0
C2345 C 0.05896 0.6936 0.41824 0.0
C2346 C 0.05869 0.67407 0.42727 0.0
C2347 C 0.04279 0.6232 0.45926 0.0
C2348 C 0.05045 0.63953 0.44754 0.0
H2349 H 0.05533 0.71448 0.37336 0.0
H2350 H 0.06279 0.68362 0.38846 0.0
H2351 H 0.07416 0.6823 0.45358 0.0
H2352 H 0.00066 0.59976 0.46718 0.0
H2353 H 0.01405 0.62574 0.44773 0.0
C2354 C 0.55658 0.78032 0.65867 0.0
C2355 C 0.55509 0.77637 0.63861 0.0
C2356 C 0.57445 0.78162 0.66767 0.0
C2357 C 0.61291 0.77469 0.68588 0.0
H2358 H 0.65596 0.794 0.65604 0.0
C2359 C 0.68913 0.76906 0.71532 0.0
C2360 C 0.70255 0.78354 0.71074 0.0
C2361 C 0.67117 0.76887 0.70659 0.0
C2362 C 0.64406 0.78886 0.66471 0.0
H2363 H 0.57091 0.76998 0.61233 0.0
H2364 H 0.60205 0.7711 0.62819 0.0
H2365 H 0.62455 0.7926 0.64102 0.0
H2366 H 0.70771 0.80932 0.69357 0.0
H2367 H 0.67587 0.80957 0.67888 0.0
H2368 H 0.63215 0.77196 0.70989 0.0
C2369 C 0.58956 0.77401 0.63689 0.0
C2370 C 0.62606 0.7877 0.65596 0.0
C2371 C 0.57171 0.77314 0.62782 0.0
C2372 C 0.69763 0.79795 0.69729 0.0
C2373 C 0.67943 0.79799 0.68881 0.0
C2374 C 0.63081 0.77621 0.69474 0.0
C2375 C 0.5912 0.77859 0.65687 0.0
C2376 C 0.61028 0.78035 0.66635 0.0
C2377 C 0.66598 0.7834 0.69334 0.0
C2378 C 0.6467 0.78302 0.68419 0.0
H2379 H 0.54398 0.78318 0.66725 0.0
H2380 H 0.5751 0.78553 0.68297 0.0
H2381 H 0.60121 0.76877 0.69433 0.0
H2382 H 0.69263 0.75757 0.72541 0.0
H2383 H 0.66148 0.75708 0.71005 0.0
C2384 C 0.59246 0.50655 0.73273 0.0
C2385 C 0.58475 0.51898 0.74681 0.0
C2386 C 0.58182 0.50131 0.71612 0.0
C2387 C 0.54138 0.51763 0.68598 0.0
H2388 H 0.53947 0.46482 0.66716 0.0
C2389 C 0.49171 0.49676 0.62285 0.0
C2390 C 0.50042 0.48656 0.60761 0.0
C2391 C 0.50056 0.49823 0.64113 0.0
C2392 C 0.53993 0.47964 0.67223 0.0
H2393 H 0.55975 0.53564 0.75437 0.0
H2394 H 0.54142 0.52648 0.72572 0.0
H2395 H 0.55894 0.47299 0.69586 0.0
H2396 H 0.52441 0.46844 0.60023 0.0
H2397 H 0.53984 0.47118 0.63199 0.0
H2398 H 0.52264 0.52442 0.66237 0.0
C2399 C 0.55571 0.52091 0.72734 0.0
C2400 C 0.55113 0.48432 0.68858 0.0
C2401 C 0.56625 0.52608 0.74386 0.0
C2402 C 0.51738 0.47659 0.61156 0.0
C2403 C 0.52621 0.47806 0.62984 0.0
C2404 C 0.53021 0.51297 0.66971 0.0
C2405 C 0.56334 0.5085 0.71326 0.0
C2406 C 0.55194 0.50338 0.69563 0.0
C2407 C 0.51828 0.48951 0.64458 0.0
C2408 C 0.52932 0.49393 0.66263 0.0
H2409 H 0.60663 0.50075 0.73459 0.0
H2410 H 0.58814 0.49183 0.70542 0.0
H2411 H 0.54196 0.53251 0.69083 0.0
H2412 H 0.47856 0.50445 0.6204 0.0
H2413 H 0.49388 0.5068 0.65237 0.0
C2414 C 0.7928 0.35578 0.95192 0.0
C2415 C 0.78103 0.37199 0.95071 0.0
C2416 C 0.79799 0.34586 0.93505 0.0
C2417 C 0.7947 0.34724 0.88039 0.0
H2418 H 0.7881 0.29184 0.88622 0.0
C2419 C 0.75948 0.29734 0.8244 0.0
C2420 C 0.77062 0.2825 0.81662 0.0
C2421 C 0.76603 0.30811 0.84029 0.0
C2422 C 0.79039 0.30724 0.88445 0.0
H2423 H 0.7663 0.39122 0.931 0.0
H2424 H 0.77451 0.37349 0.90163 0.0
H2425 H 0.79074 0.31214 0.9152 0.0
H2426 H 0.79712 0.26692 0.81971 0.0
H2427 H 0.80822 0.28547 0.84836 0.0
H2428 H 0.79254 0.34221 0.84954 0.0
C2429 C 0.78026 0.36862 0.91545 0.0
C2430 C 0.79199 0.31893 0.90101 0.0
C2431 C 0.77538 0.37875 0.93231 0.0
C2432 C 0.78826 0.27828 0.82543 0.0
C2433 C 0.79464 0.28886 0.84169 0.0
C2434 C 0.79276 0.33556 0.86386 0.0
C2435 C 0.79117 0.35171 0.91666 0.0
C2436 C 0.79344 0.33916 0.8992 0.0
C2437 C 0.78367 0.30405 0.84894 0.0
C2438 C 0.78999 0.31559 0.86585 0.0
H2439 H 0.79761 0.35046 0.96595 0.0
H2440 H 0.8068 0.33322 0.9365 0.0
H2441 H 0.7963 0.36269 0.87841 0.0
H2442 H 0.74591 0.30106 0.81787 0.0
H2443 H 0.75729 0.31964 0.84588 0.0
C2444 C 0.93302 0.48608 0.23261 0.0
C2445 C 0.91313 0.48851 0.23219 0.0
C2446 C 0.94471 0.49549 0.2191 0.0
C2447 C 0.94571 0.53665 0.18453 0.0
H2448 H 0.98818 0.50913 0.16218 0.0
C2449 C 0.98305 0.55666 0.11239 0.0
C2450 C 0.00231 0.55174 0.11002 0.0
C2451 C 0.97375 0.55304 0.13003 0.0
C2452 C 0.97665 0.5172 0.16858 0.0
H2453 H 0.88995 0.50255 0.21687 0.0
H2454 H 0.91037 0.51859 0.19294 0.0
H2455 H 0.96826 0.49333 0.18643 0.0
H2456 H 0.02749 0.54148 0.12516 0.0
H2457 H 0.01127 0.53538 0.15599 0.0
H2458 H 0.95386 0.56033 0.16606 0.0
C2459 C 0.91692 0.50969 0.20403 0.0
C2460 C 0.96515 0.50809 0.18245 0.0
C2461 C 0.90519 0.5003 0.21762 0.0
C2462 C 0.01259 0.54522 0.12637 0.0
C2463 C 0.00326 0.54156 0.14401 0.0
C2464 C 0.95721 0.54576 0.17055 0.0
C2465 C 0.93684 0.50753 0.20473 0.0
C2466 C 0.94941 0.5176 0.19045 0.0
C2467 C 0.98352 0.54446 0.14566 0.0
C2468 C 0.97269 0.53605 0.16227 0.0
H2469 H 0.93969 0.47722 0.24367 0.0
H2470 H 0.95999 0.49366 0.22021 0.0
H2471 H 0.93391 0.54451 0.19067 0.0
H2472 H 0.97474 0.56195 0.10017 0.0
H2473 H 0.95855 0.55551 0.13083 0.0
C2474 C 0.73494 0.63394 0.43393 0.0
C2475 C 0.72986 0.64297 0.4515 0.0
C2476 C 0.73268 0.64358 0.41612 0.0
C2477 C 0.7346 0.69177 0.39681 0.0
H2478 H 0.7108 0.67076 0.35006 0.0
C2479 C 0.73652 0.7351 0.32578 0.0
C2480 C 0.74029 0.72467 0.30868 0.0
C2481 C 0.73118 0.72546 0.34286 0.0
C2482 C 0.71767 0.67678 0.36293 0.0
H2483 H 0.7178 0.66879 0.46421 0.0
H2484 H 0.71431 0.68568 0.43321 0.0
H2485 H 0.70967 0.65235 0.38053 0.0
H2486 H 0.74072 0.69608 0.29576 0.0
H2487 H 0.73235 0.67923 0.32565 0.0
H2488 H 0.74364 0.71559 0.37938 0.0
C2489 C 0.71994 0.67118 0.43321 0.0
C2490 C 0.71692 0.66625 0.38035 0.0
C2491 C 0.72194 0.66149 0.45092 0.0
C2492 C 0.73783 0.70452 0.30873 0.0
C2493 C 0.7329 0.69485 0.32589 0.0
C2494 C 0.73566 0.70211 0.3794 0.0
C2495 C 0.72556 0.66245 0.41571 0.0
C2496 C 0.72547 0.67366 0.39738 0.0
C2497 C 0.72997 0.70516 0.34332 0.0
C2498 C 0.72733 0.69473 0.36216 0.0
H2499 H 0.74099 0.61963 0.43397 0.0
H2500 H 0.73721 0.63662 0.40277 0.0
H2501 H 0.74151 0.69766 0.40974 0.0
H2502 H 0.73804 0.75068 0.32607 0.0
H2503 H 0.72848 0.73395 0.35582 0.0
C2504 C 0.63583 0.52887 0.85758 0.0
C2505 C 0.62206 0.53068 0.84273 0.0
C2506 C 0.63194 0.53526 0.87658 0.0
C2507 C 0.59725 0.56418 0.90531 0.0
H2508 H 0.60272 0.52378 0.94398 0.0
C2509 C 0.54036 0.54364 0.96018 0.0
C2510 C 0.54542 0.53603 0.97847 0.0
C2511 C 0.55444 0.54982 0.94719 0.0
C2512 C 0.6015 0.53551 0.9336 0.0
H2513 H 0.59379 0.54125 0.83593 0.0
H2514 H 0.58704 0.55215 0.86867 0.0
H2515 H 0.6201 0.52172 0.9134 0.0
H2516 H 0.56913 0.53039 -0.00191 0.0
H2517 H 0.59372 0.5409 0.97514 0.0
H2518 H 0.57741 0.57711 0.92494 0.0
C2519 C 0.60092 0.5461 0.86581 0.0
C2520 C 0.6115 0.53433 0.91605 0.0
C2521 C 0.60472 0.53961 0.84701 0.0
C2522 C 0.56476 0.53609 0.98405 0.0
C2523 C 0.57887 0.54206 0.97093 0.0
C2524 C 0.58716 0.56529 0.9228 0.0
C2525 C 0.61432 0.54375 0.88091 0.0
C2526 C 0.60861 0.54807 0.90128 0.0
C2527 C 0.57385 0.54836 0.95213 0.0
C2528 C 0.58841 0.55041 0.93664 0.0
H2529 H 0.64937 0.52212 0.85464 0.0
H2530 H 0.64254 0.53326 0.88794 0.0
H2531 H 0.59511 0.57524 0.89436 0.0
H2532 H 0.52559 0.54394 0.95552 0.0
H2533 H 0.55012 0.55445 0.93273 0.0
C2534 C 0.74053 0.36858 0.05577 0.0
C2535 C 0.75938 0.36317 0.05175 0.0
C2536 C 0.73101 0.36096 0.07196 0.0
C2537 C 0.73618 0.33878 0.11942 0.0
H2538 H 0.69668 0.30189 0.10416 0.0
C2539 C 0.7129 0.2635 0.15097 0.0
C2540 C 0.70838 0.26812 0.17038 0.0
C2541 C 0.71318 0.27785 0.13666 0.0
C2542 C 0.70738 0.31243 0.10864 0.0
H2543 H 0.78349 0.34673 0.0621 0.0
H2544 H 0.76702 0.33396 0.09085 0.0
H2545 H 0.71004 0.3242 0.07981 0.0
H2546 H 0.69916 0.29105 0.1897 0.0
H2547 H 0.70028 0.31618 0.16473 0.0
H2548 H 0.73403 0.32662 0.14808 0.0
C2549 C 0.75959 0.34385 0.0813 0.0
C2550 C 0.71496 0.32516 0.09481 0.0
C2551 C 0.76896 0.35106 0.06486 0.0
C2552 C 0.70271 0.28702 0.17487 0.0
C2553 C 0.70338 0.30144 0.16065 0.0
C2554 C 0.72831 0.32637 0.13334 0.0
C2555 C 0.74041 0.34829 0.08461 0.0
C2556 C 0.72985 0.33793 0.09999 0.0
C2557 C 0.70925 0.29706 0.14162 0.0
C2558 C 0.71433 0.31266 0.12789 0.0
H2559 H 0.73278 0.3778 0.04581 0.0
H2560 H 0.71619 0.36448 0.0743 0.0
H2561 H 0.74773 0.34848 0.12363 0.0
H2562 H 0.71723 0.24905 0.14707 0.0
H2563 H 0.71787 0.27421 0.12206 0.0
C2564 C 0.86074 0.48925 0.33717 0.0
C2565 C 0.87147 0.47836 0.32396 0.0
C2566 C 0.86698 0.49155 0.35648 0.0
C2567 C 0.90107 0.47443 0.39387 0.0
H2568 H 0.90988 0.52892 0.40397 0.0
C2569 C 0.95996 0.50088 0.44635 0.0
C2570 C 0.95701 0.51763 0.45745 0.0
C2571 C 0.94672 0.49511 0.43214 0.0
C2572 C 0.90722 0.51365 0.40171 0.0
H2573 H 0.8959 0.45979 0.32088 0.0
H2574 H 0.90657 0.46348 0.35462 0.0
H2575 H 0.88976 0.51903 0.37665 0.0
H2576 H 0.93772 0.54136 0.46249 0.0
H2577 H 0.91443 0.53107 0.43802 0.0
H2578 H 0.91873 0.46899 0.41876 0.0
C2579 C 0.8935 0.4704 0.35011 0.0
C2580 C 0.89564 0.50799 0.38603 0.0
C2581 C 0.88746 0.46836 0.33077 0.0
C2582 C 0.94054 0.5285 0.45401 0.0
C2583 C 0.92718 0.5226 0.43996 0.0
C2584 C 0.91248 0.48008 0.40971 0.0
C2585 C 0.88381 0.4827 0.36289 0.0
C2586 C 0.8929 0.48835 0.38163 0.0
C2587 C 0.93008 0.5058 0.42885 0.0
C2588 C 0.91617 0.49976 0.41347 0.0
H2589 H 0.84835 0.49711 0.33225 0.0
H2590 H 0.85919 0.501 0.36613 0.0
H2591 H 0.89905 0.45918 0.39085 0.0
H2592 H 0.97254 0.49222 0.4486 0.0
H2593 H 0.94968 0.48235 0.42356 0.0
C2594 C 0.73586 0.63936 0.56527 0.0
C2595 C 0.72284 0.64895 0.55307 0.0
C2596 C 0.74225 0.64794 0.58264 0.0
C2597 C 0.73338 0.68903 0.6165 0.0
H2598 H 0.78818 0.68763 0.62468 0.0
C2599 C 0.77145 0.74663 0.66141 0.0
C2600 C 0.78053 0.73958 0.67827 0.0
C2601 C 0.76635 0.73414 0.64625 0.0
C2602 C 0.77286 0.688 0.62259 0.0
H2603 H 0.70531 0.67442 0.55031 0.0
H2604 H 0.71663 0.68943 0.58018 0.0
H2605 H 0.7734 0.66715 0.59953 0.0
H2606 H 0.79338 0.71428 0.69135 0.0
H2607 H 0.78476 0.69252 0.66445 0.0
H2608 H 0.73303 0.71052 0.63895 0.0
C2609 C 0.72184 0.67523 0.57655 0.0
C2610 C 0.76434 0.67619 0.60835 0.0
C2611 C 0.71538 0.66663 0.55929 0.0
C2612 C 0.78625 0.72016 0.67865 0.0
C2613 C 0.78131 0.70768 0.6633 0.0
C2614 C 0.74193 0.70099 0.63046 0.0
C2615 C 0.73578 0.66628 0.58813 0.0
C2616 C 0.74453 0.67685 0.60489 0.0
C2617 C 0.77051 0.71443 0.64748 0.0
C2618 C 0.76175 0.70085 0.63336 0.0
H2619 H 0.74182 0.62564 0.56101 0.0
H2620 H 0.75268 0.64047 0.59145 0.0
H2621 H 0.71806 0.68958 0.61457 0.0
H2622 H 0.76703 0.76153 0.66046 0.0
H2623 H 0.75831 0.73969 0.63396 0.0
C2624 C 0.68998 0.56969 0.49337 0.0
C2625 C 0.68461 0.58735 0.48495 0.0
C2626 C 0.67731 0.55396 0.49343 0.0
C2627 C 0.63034 0.53643 0.47438 0.0
H2628 H 0.62139 0.52192 0.52832 0.0
C2629 C 0.5564 0.52797 0.5058 0.0
C2630 C 0.55224 0.51357 0.51962 0.0
C2631 C 0.57486 0.53041 0.49875 0.0
C2632 C 0.62392 0.52533 0.5131 0.0
H2633 H 0.66253 0.60171 0.4683 0.0
H2634 H 0.64047 0.57447 0.46857 0.0
H2635 H 0.6513 0.53771 0.51946 0.0
H2636 H 0.56422 0.49031 0.53681 0.0
H2637 H 0.5968 0.49499 0.52473 0.0
H2638 H 0.60233 0.52526 0.46835 0.0
C2639 C 0.65443 0.57269 0.47512 0.0
C2640 C 0.64109 0.53435 0.50799 0.0
C2641 C 0.66701 0.58842 0.47517 0.0
C2642 C 0.567 0.5016 0.52622 0.0
C2643 C 0.5856 0.5042 0.51928 0.0
C2644 C 0.61317 0.52744 0.4795 0.0
C2645 C 0.65914 0.55555 0.48491 0.0
C2646 C 0.64399 0.54098 0.4888 0.0
C2647 C 0.58965 0.51861 0.50543 0.0
C2648 C 0.60941 0.52283 0.49911 0.0
H2649 H 0.70354 0.56831 0.50084 0.0
H2650 H 0.68137 0.54085 0.50091 0.0
H2651 H 0.63238 0.54103 0.4594 0.0
H2652 H 0.54539 0.53737 0.50029 0.0
H2653 H 0.57763 0.54193 0.48841 0.0
C2654 C 0.21377 0.94517 0.52922 0.0
C2655 C 0.21219 0.9277 0.51885 0.0
C2656 C 0.19821 0.95204 0.53984 0.0
C2657 C 0.15689 0.96699 0.54402 0.0
H2658 H 0.12484 0.93209 0.57412 0.0
C2659 C 0.07812 0.98375 0.55586 0.0
C2660 C 0.06604 0.96831 0.55028 0.0
C2661 C 0.09743 0.98067 0.55969 0.0
C2662 C 0.13367 0.94208 0.56588 0.0
H2663 H 0.19364 0.90328 0.51215 0.0
H2664 H 0.16676 0.91506 0.53078 0.0
H2665 H 0.15754 0.9231 0.56648 0.0
H2666 H 0.06452 0.93733 0.54569 0.0
H2667 H 0.09814 0.93203 0.5519 0.0
H2668 H 0.13268 0.98527 0.54197 0.0
C2669 C 0.17987 0.92351 0.53071 0.0
C2670 C 0.15238 0.93698 0.56161 0.0
C2671 C 0.19518 0.91689 0.51983 0.0
C2672 C 0.07343 0.94957 0.54981 0.0
C2673 C 0.09273 0.94651 0.55359 0.0
C2674 C 0.13811 0.97203 0.54814 0.0
C2675 C 0.18113 0.94124 0.54061 0.0
C2676 C 0.1638 0.94895 0.54982 0.0
C2677 C 0.10507 0.9621 0.55801 0.0
C2678 C 0.12601 0.95916 0.55824 0.0
H2679 H 0.22681 0.95371 0.52872 0.0
H2680 H 0.19943 0.96581 0.54727 0.0
H2681 H 0.1654 0.97643 0.53483 0.0
H2682 H 0.07283 -0.00165 0.55664 0.0
H2683 H 0.10651 0.99293 0.56333 0.0
C2684 C 0.33731 0.90703 0.77753 0.0
C2685 C 0.33614 0.92528 0.76871 0.0
C2686 C 0.32221 0.89379 0.77598 0.0
C2687 C 0.28304 0.87993 0.74374 0.0
H2688 H 0.27027 0.84561 0.78658 0.0
C2689 C 0.23865 0.80967 0.73226 0.0
C2690 C 0.24831 0.79352 0.73955 0.0
C2691 C 0.2444 0.82836 0.73781 0.0
C2692 C 0.27355 0.85518 0.77451 0.0
H2693 H 0.31795 0.94407 0.75163 0.0
H2694 H 0.29165 0.92073 0.74871 0.0
H2695 H 0.29014 0.87417 0.7927 0.0
H2696 H 0.27082 0.7842 0.75913 0.0
H2697 H 0.28069 0.81649 0.76876 0.0
H2698 H 0.26726 0.86036 0.72537 0.0
C2699 C 0.30429 0.91676 0.75684 0.0
C2700 C 0.28495 0.87148 0.77801 0.0
C2701 C 0.31935 0.9301 0.75855 0.0
C2702 C 0.26319 0.79635 0.7531 0.0
C2703 C 0.26872 0.81487 0.75881 0.0
C2704 C 0.27164 0.86357 0.74023 0.0
C2705 C 0.30562 0.89843 0.76546 0.0
C2706 C 0.29049 0.88356 0.76251 0.0
C2707 C 0.25964 0.8311 0.751 0.0
C2708 C 0.26751 0.85059 0.75544 0.0
H2709 H 0.34995 0.90286 0.78555 0.0
H2710 H 0.32379 0.87967 0.78253 0.0
H2711 H 0.2871 0.88897 0.7315 0.0
H2712 H 0.22711 0.8079 0.72181 0.0
H2713 H 0.23715 0.84064 0.73159 0.0
C2714 C 0.28456 0.05716 0.03248 0.0
C2715 C 0.28284 0.07666 0.03762 0.0
C2716 C 0.3017 0.04764 0.03598 0.0
C2717 C 0.34723 0.04422 0.05889 0.0
H2718 H 0.37089 0.05283 0.00849 0.0
C2719 C 0.42904 0.04371 0.04918 0.0
C2720 C 0.4364 0.03847 0.03094 0.0
C2721 C 0.40936 0.04541 0.05171 0.0
C2722 C 0.36457 0.04972 0.02255 0.0
H2723 H 0.29633 0.1009 0.05241 0.0
H2724 H 0.32608 0.08402 0.05911 0.0
H2725 H 0.33708 0.05817 0.0123 0.0
H2726 H 0.42921 0.02997 0.00134 0.0
H2727 H 0.39504 0.03171 0.00593 0.0
H2728 H 0.37465 0.0355 0.06919 0.0
C2729 C 0.31437 0.0762 0.05222 0.0
C2730 C 0.34515 0.05288 0.02469 0.0
C2731 C 0.29748 0.08586 0.04826 0.0
C2732 C 0.42386 0.03453 0.01541 0.0
C2733 C 0.40423 0.03559 0.01809 0.0
C2734 C 0.36669 0.04052 0.05665 0.0
C2735 C 0.31692 0.05742 0.04519 0.0
C2736 C 0.33646 0.05049 0.04289 0.0
C2737 C 0.39666 0.0413 0.03619 0.0
C2738 C 0.3757 0.04363 0.03851 0.0
H2739 H 0.27342 0.04988 0.02416 0.0
H2740 H 0.30359 0.03323 0.03021 0.0
H2741 H 0.3407 0.04255 0.07311 0.0
H2742 H 0.43852 0.0467 0.06138 0.0
H2743 H 0.4042 0.0502 0.06575 0.0
C2744 C 0.66774 0.57547 0.79273 0.0
C2745 C 0.64806 0.5785 0.7908 0.0
C2746 C 0.68062 0.59103 0.79181 0.0
C2747 C 0.6822 0.64501 0.7941 0.0
H2748 H 0.73245 0.63833 0.77202 0.0
C2749 C 0.74612 0.69457 0.75854 0.0
C2750 C 0.74403 0.71119 0.77004 0.0
C2751 C 0.7364 0.67751 0.76331 0.0
C2752 C 0.71841 0.64055 0.77806 0.0
H2753 H 0.62642 0.59998 0.78572 0.0
H2754 H 0.64878 0.62689 0.78294 0.0
H2755 H 0.71091 0.61077 0.77447 0.0
H2756 H 0.73138 0.72267 0.79632 0.0
H2757 H 0.71537 0.69261 0.80542 0.0
H2758 H 0.68901 0.67497 0.79631 0.0
C2759 C 0.65439 0.61273 0.78608 0.0
C2760 C 0.70611 0.6246 0.77977 0.0
C2761 C 0.64152 0.59727 0.78746 0.0
C2762 C 0.73303 0.71011 0.78708 0.0
C2763 C 0.72371 0.69289 0.79215 0.0
C2764 C 0.6943 0.661 0.79198 0.0
C2765 C 0.67412 0.60992 0.78853 0.0
C2766 C 0.68771 0.62664 0.78759 0.0
C2767 C 0.7247 0.67652 0.77996 0.0
C2768 C 0.71252 0.65908 0.78373 0.0
H2769 H 0.67314 0.56114 0.79554 0.0
H2770 H 0.69562 0.58824 0.79408 0.0
H2771 H 0.66839 0.64717 0.8007 0.0
H2772 H 0.75442 0.69505 0.74523 0.0
H2773 H 0.7374 0.66543 0.75335 0.0
C2774 C 0.84229 0.40831 0.99336 0.0
C2775 C 0.82385 0.41374 -0.00106 0.0
C2776 C 0.85764 0.42109 0.99543 0.0
C2777 C 0.87353 0.46213 0.025 0.0
H2778 H 0.9156 0.46276 0.98838 0.0
C2779 C 0.94344 0.50634 0.03728 0.0
C2780 C 0.96038 0.49632 0.0336 0.0
C2781 C 0.92576 0.4983 0.03208 0.0
C2782 C 0.90397 0.46267 -0.00124 0.0
H2783 H 0.80697 0.43724 0.01031 0.0
H2784 H 0.83397 0.45968 0.01392 0.0
H2785 H 0.88594 0.44599 0.97975 0.0
H2786 H 0.97199 0.46984 0.02187 0.0
H2787 H 0.94114 0.45583 0.01289 0.0
H2788 H 0.89176 0.47855 0.04414 0.0
C2789 C 0.83647 0.44538 0.00813 0.0
C2790 C 0.887 0.45312 0.99382 0.0
C2791 C 0.82101 0.43256 0.00598 0.0
C2792 C 0.95923 0.47796 0.02492 0.0
C2793 C 0.94158 0.47 0.0196 0.0
C2794 C 0.89051 0.47177 0.02992 0.0
C2795 C 0.85498 0.43966 0.00313 0.0
C2796 C 0.87179 0.45228 0.0071 0.0
C2797 C 0.92469 0.48016 0.02297 0.0
C2798 C 0.90606 0.47168 0.01705 0.0
H2799 H 0.845 0.39399 0.98773 0.0
H2800 H 0.87175 0.41613 0.99166 0.0
H2801 H 0.86214 0.46159 0.03563 0.0
H2802 H 0.94381 0.52052 0.04397 0.0
H2803 H 0.91296 0.50646 0.03481 0.0
C2804 C 0.33302 0.03444 0.73862 0.0
C2805 C 0.3478 0.03217 0.75233 0.0
C2806 C 0.32608 0.05277 0.73436 0.0
C2807 C 0.31822 0.09813 0.75798 0.0
H2808 H 0.30872 0.11873 0.70616 0.0
C2809 C 0.26693 0.16034 0.74483 0.0
C2810 C 0.27568 0.17685 0.73678 0.0
C2811 C 0.27608 0.14259 0.74427 0.0
C2812 C 0.31133 0.11308 0.72067 0.0
H2813 H 0.36738 0.04726 0.77182 0.0
H2814 H 0.3548 0.07933 0.76474 0.0
H2815 H 0.32568 0.08805 0.70985 0.0
H2816 H 0.3002 0.18743 0.72058 0.0
H2817 H 0.31597 0.1561 0.71919 0.0
H2818 H 0.30342 0.12273 0.76882 0.0
C2819 C 0.34876 0.06691 0.75722 0.0
C2820 C 0.32097 0.09563 0.72277 0.0
C2821 C 0.35594 0.0486 0.76123 0.0
C2822 C 0.29317 0.17497 0.727 0.0
C2823 C 0.30216 0.15709 0.72614 0.0
C2824 C 0.30828 0.1153 0.75586 0.0
C2825 C 0.33358 0.06909 0.74396 0.0
C2826 C 0.32446 0.08803 0.74147 0.0
C2827 C 0.29395 0.14094 0.73534 0.0
C2828 C 0.30467 0.12285 0.73721 0.0
H2829 H 0.32659 0.02202 0.73143 0.0
H2830 H 0.31429 0.0541 0.72418 0.0
H2831 H 0.32058 0.09246 0.77253 0.0
H2832 H 0.25349 0.1613 0.7525 0.0
H2833 H 0.26947 0.13023 0.75134 0.0
C2834 C 0.17833 0.96724 0.26981 0.0
C2835 C 0.15859 0.97042 0.27043 0.0
C2836 C 0.18531 0.94852 0.26775 0.0
C2837 C 0.17462 0.90012 0.25001 0.0
H2838 H 0.20777 0.88238 0.29169 0.0
C2839 C 0.20491 0.82384 0.28132 0.0
C2840 C 0.21557 0.81698 0.26547 0.0
C2841 C 0.19754 0.84251 0.28103 0.0
C2842 C 0.19853 0.88718 0.27998 0.0
H2843 H 0.13069 0.9567 0.26845 0.0
H2844 H 0.14296 0.92401 0.26422 0.0
H2845 H 0.19637 0.91568 0.29194 0.0
H2846 H 0.22628 0.82401 0.23663 0.0
H2847 H 0.2128 0.85646 0.23591 0.0
H2848 H 0.17713 0.87166 0.23787 0.0
C2849 C 0.15297 0.93599 0.26561 0.0
C2850 C 0.19214 0.9062 0.28004 0.0
C2851 C 0.14597 0.95465 0.2681 0.0
C2852 C 0.21818 0.82894 0.24908 0.0
C2853 C 0.21043 0.84744 0.24862 0.0
C2854 C 0.18139 0.88119 0.24971 0.0
C2855 C 0.17269 0.93273 0.26583 0.0
C2856 C 0.18003 0.9128 0.26515 0.0
C2857 C 0.20031 0.85448 0.26471 0.0
C2858 C 0.19326 0.87453 0.26479 0.0
H2859 H 0.18838 0.97912 0.27161 0.0
H2860 H 0.20059 0.94634 0.26787 0.0
H2861 H 0.1653 0.90492 0.23837 0.0
H2862 H 0.20274 0.81499 0.29418 0.0
H2863 H 0.18971 0.84763 0.29357 0.0
C2864 C 0.52565 0.30134 0.44104 0.0
C2865 C 0.52628 0.30006 0.42058 0.0
C2866 C 0.52784 0.31918 0.45029 0.0
C2867 C 0.51527 0.36814 0.44153 0.0
H2868 H 0.54306 0.37951 0.48937 0.0
C2869 C 0.50285 0.43887 0.48247 0.0
C2870 C 0.5023 0.43803 0.50294 0.0
C2871 C 0.50962 0.42335 0.47169 0.0
C2872 C 0.53507 0.37649 0.47612 0.0
H2873 H 0.53082 0.3161 0.39377 0.0
H2874 H 0.53417 0.34745 0.41 0.0
H2875 H 0.54925 0.34957 0.47165 0.0
H2876 H 0.50863 0.42051 0.52829 0.0
H2877 H 0.51946 0.39283 0.50943 0.0
H2878 H 0.50012 0.39412 0.44641 0.0
C2879 C 0.53211 0.33462 0.41882 0.0
C2880 C 0.53877 0.35946 0.46592 0.0
C2881 C 0.5302 0.31672 0.40957 0.0
C2882 C 0.50888 0.42147 0.51249 0.0
C2883 C 0.51527 0.40572 0.50166 0.0
C2884 C 0.51134 0.38494 0.45185 0.0
C2885 C 0.53042 0.33603 0.43921 0.0
C2886 C 0.5287 0.35506 0.44868 0.0
C2887 C 0.51556 0.40641 0.48109 0.0
C2888 C 0.52098 0.38923 0.46944 0.0
H2889 H 0.52279 0.28867 0.44986 0.0
H2890 H 0.52634 0.31994 0.46602 0.0
H2891 H 0.50706 0.36489 0.42846 0.0
H2892 H 0.49824 0.45164 0.47474 0.0
H2893 H 0.51011 0.42467 0.45593 0.0
C2894 C 0.45821 0.74857 0.19768 0.0
C2895 C 0.45609 0.74821 0.17724 0.0
C2896 C 0.4423 0.75145 0.20964 0.0
C2897 C 0.39764 0.77665 0.20786 0.0
H2898 H 0.37925 0.74373 0.24962 0.0
C2899 C 0.32071 0.77917 0.23538 0.0
C2900 C 0.31665 0.77369 0.25467 0.0
C2901 C 0.3394 0.77865 0.22844 0.0
C2902 C 0.38442 0.75336 0.23832 0.0
H2903 H 0.43555 0.74892 0.15341 0.0
H2904 H 0.40808 0.75407 0.1742 0.0
H2905 H 0.40898 0.7359 0.23303 0.0
H2906 H 0.32917 0.76504 0.28232 0.0
H2907 H 0.36184 0.76474 0.27037 0.0
H2908 H 0.37329 0.79414 0.21295 0.0
C2909 C 0.42197 0.75241 0.18095 0.0
C2910 C 0.40138 0.74877 0.22879 0.0
C2911 C 0.43771 0.74937 0.16909 0.0
C2912 C 0.33183 0.76913 0.26729 0.0
C2913 C 0.35054 0.7688 0.26041 0.0
C2914 C 0.38088 0.78139 0.21753 0.0
C2915 C 0.42422 0.75416 0.20123 0.0
C2916 C 0.40777 0.76008 0.21311 0.0
C2917 C 0.35446 0.77286 0.24071 0.0
C2918 C 0.37373 0.76949 0.23248 0.0
H2919 H 0.47221 0.74773 0.20435 0.0
H2920 H 0.44428 0.75264 0.22531 0.0
H2921 H 0.40252 0.78575 0.19598 0.0
H2922 H 0.30934 0.78265 0.22527 0.0
H2923 H 0.3418 0.7817 0.21313 0.0
C2924 C 0.97717 0.71639 0.94146 0.0
C2925 C 0.98527 0.72048 0.92314 0.0
C2926 C 0.97262 0.69745 0.9467 0.0
C2927 C 0.98946 0.64918 0.93692 0.0
H2928 H 0.9494 0.63441 0.97304 0.0
C2929 C 0.99485 0.5784 0.97811 0.0
C2930 C 0.99252 0.58027 -0.00161 0.0
C2931 C 0.98821 0.59262 0.96549 0.0
C2932 C 0.96062 0.6383 0.96291 0.0
H2933 H 0.99363 0.70795 0.89542 0.0
H2934 H 0.98564 0.67485 0.90463 0.0
H2935 H 0.94796 0.66554 0.9563 0.0
H2936 H 0.98027 0.59772 0.02131 0.0
H2937 H 0.96934 0.62301 -0.00065 0.0
H2938 H 0.00274 0.62267 0.94419 0.0
C2939 C 0.9831 0.68633 0.91502 0.0
C2940 C 0.95978 0.65608 0.95331 0.0
C2941 C 0.9877 0.70529 0.90977 0.0
C2942 C 0.98235 0.59599 0.00574 0.0
C2943 C 0.97594 0.61039 0.99311 0.0
C2944 C 0.99032 0.6315 0.94651 0.0
C2945 C 0.97601 0.68216 0.93374 0.0
C2946 C 0.97456 0.66197 0.94076 0.0
C2947 C 0.9794 0.60917 0.9729 0.0
C2948 C 0.97628 0.62614 0.96013 0.0
H2949 H 0.97492 0.72773 0.95208 0.0
H2950 H 0.9674 0.69472 0.96132 0.0
H2951 H 0.00121 0.65337 0.92756 0.0
H2952 H 0.00226 0.56619 0.972 0.0
H2953 H 0.99067 0.59101 0.94996 0.0
C2954 C 0.07387 0.25742 0.62339 0.0
C2955 C 0.05482 0.25434 0.62906 0.0
C2956 C 0.0888 0.25372 0.63637 0.0
C2957 C 0.10172 0.22759 0.68139 0.0
H2958 H 0.14133 0.267 0.68495 0.0
C2959 C 0.17104 0.25287 0.73113 0.0
C2960 C 0.18189 0.23596 0.73135 0.0
C2961 C 0.15395 0.25356 0.72073 0.0
C2962 C 0.13031 0.25592 0.68428 0.0
H2963 H 0.03663 0.24448 0.65273 0.0
H2964 H 0.06277 0.23814 0.67538 0.0
H2965 H 0.11506 0.2711 0.66214 0.0
H2966 H 0.1827 0.20607 0.72211 0.0
H2967 H 0.15273 0.20735 0.7035 0.0
H2968 H 0.11711 0.21249 0.70375 0.0
C2969 C 0.06608 0.24332 0.66085 0.0
C2970 C 0.11538 0.25816 0.67101 0.0
C2971 C 0.05111 0.24712 0.6479 0.0
C2972 C 0.17461 0.21929 0.72214 0.0
C2973 C 0.15747 0.22003 0.71152 0.0
C2974 C 0.1168 0.22528 0.69466 0.0
C2975 C 0.08507 0.24679 0.65528 0.0
C2976 C 0.10093 0.24405 0.66939 0.0
C2977 C 0.14739 0.23742 0.71013 0.0
C2978 C 0.13118 0.2395 0.6963 0.0
H2979 H 0.07728 0.26286 0.60898 0.0
H2980 H 0.10331 0.25631 0.63159 0.0
H2981 H 0.09081 0.21643 0.68036 0.0
H2982 H 0.17612 0.26585 0.73842 0.0
H2983 H 0.14623 0.267 0.72038 0.0
C2984 C 0.50607 0.69446 0.09627 0.0
C2985 C 0.50219 0.70256 0.11465 0.0
C2986 C 0.50595 0.67448 0.09372 0.0
C2987 C 0.51735 0.63278 0.09549 0.0
H2988 H 0.47758 0.59968 0.11676 0.0
C2989 C 0.51849 0.55199 0.08036 0.0
C2990 C 0.50117 0.5443 0.07324 0.0
C2991 C 0.51894 0.56975 0.09003 0.0
C2992 C 0.4888 0.60874 0.11078 0.0
H2993 H 0.49466 0.69589 0.14466 0.0
H2994 H 0.49459 0.66093 0.14016 0.0
H2995 H 0.47722 0.63438 0.12336 0.0
H2996 H 0.47055 0.54842 0.07212 0.0
H2997 H 0.4714 0.57956 0.08853 0.0
H2998 H 0.52851 0.60753 0.08217 0.0
C2999 C 0.49763 0.67012 0.12773 0.0
C3000 C 0.48868 0.62858 0.11467 0.0
C3001 C 0.49773 0.69016 0.1303 0.0
C3002 C 0.48415 0.55398 0.07737 0.0
C3003 C 0.48463 0.57184 0.08687 0.0
C3004 C 0.51747 0.61304 0.09159 0.0
C3005 C 0.502 0.66208 0.10947 0.0
C3006 C 0.50275 0.64085 0.10672 0.0
C3007 C 0.50212 0.58028 0.0926 0.0
C3008 C 0.50304 0.6008 0.09891 0.0
H3009 H 0.50941 0.70352 0.08383 0.0
H3010 H 0.50898 0.66874 0.07936 0.0
H3011 H 0.52858 0.6418 0.08943 0.0
H3012 H 0.53182 0.54473 0.0777 0.0
H3013 H 0.5326 0.57562 0.09473 0.0
C3014 C 0.04323 0.74034 0.83879 0.0
C3015 C 0.04629 0.73988 0.85908 0.0
C3016 C 0.05786 0.73564 0.82598 0.0
C3017 C 0.11037 0.73523 0.82566 0.0
H3018 H 0.10308 0.71572 0.77297 0.0
C3019 C 0.17227 0.7183 0.77432 0.0
C3020 C 0.17176 0.72718 0.75586 0.0
C3021 C 0.15645 0.71863 0.78647 0.0
C3022 C 0.10521 0.72129 0.78762 0.0
H3023 H 0.06629 0.73231 0.88194 0.0
H3024 H 0.09164 0.72323 0.85959 0.0
H3025 H 0.07621 0.71571 0.79565 0.0
H3026 H 0.15421 0.74318 0.73554 0.0
H3027 H 0.1261 0.74341 0.75692 0.0
H3028 H 0.13946 0.74038 0.81769 0.0
C3029 C 0.07822 0.72803 0.85353 0.0
C3030 C 0.08988 0.72129 0.80062 0.0
C3031 C 0.06367 0.73306 0.86635 0.0
C3032 C 0.15499 0.7363 0.74972 0.0
C3033 C 0.13894 0.73632 0.76184 0.0
C3034 C 0.12569 0.73493 0.81279 0.0
C3035 C 0.07577 0.7301 0.83321 0.0
C3036 C 0.09226 0.72841 0.81977 0.0
C3037 C 0.13966 0.72758 0.78035 0.0
C3038 C 0.12321 0.7281 0.79366 0.0
H3039 H 0.02994 0.74552 0.83275 0.0
H3040 H 0.05543 0.73753 0.81047 0.0
H3041 H 0.11268 0.7413 0.84007 0.0
H3042 H 0.18502 0.71123 0.77952 0.0
H3043 H 0.15728 0.71174 0.80066 0.0
C3044 C 0.00777 0.32846 0.61083 0.0
C3045 C 0.00674 0.31359 0.59687 0.0
C3046 C 0.00661 0.34774 0.60512 0.0
C3047 C 0.00878 0.38067 0.5626 0.0
H3048 H 0.97325 0.41098 0.59285 0.0
C3049 C 0.98056 0.45199 0.53336 0.0
C3050 C 0.98119 0.46786 0.54616 0.0
C3051 C 0.98301 0.43331 0.54037 0.0
C3052 C 0.98334 0.40277 0.58438 0.0
H3053 H 0.005 0.30725 0.5659 0.0
H3054 H 0.00289 0.34097 0.55588 0.0
H3055 H 0.98107 0.37836 0.60338 0.0
H3056 H 0.98356 0.47646 0.57655 0.0
H3057 H 0.98781 0.44363 0.58887 0.0
H3058 H 0.01091 0.40499 0.5435 0.0
C3059 C 0.00464 0.33774 0.57125 0.0
C3060 C 0.98789 0.38411 0.59043 0.0
C3061 C 0.00583 0.31841 0.57698 0.0
C3062 C 0.98294 0.46452 0.56634 0.0
C3063 C 0.98544 0.44573 0.57338 0.0
C3064 C 0.00421 0.39929 0.55655 0.0
C3065 C 0.00439 0.35256 0.58533 0.0
C3066 C 0.00054 0.37279 0.57951 0.0
C3067 C 0.98618 0.43004 0.56035 0.0
C3068 C 0.99127 0.41046 0.56724 0.0
H3069 H 0.00869 0.32519 0.62628 0.0
H3070 H 0.00692 0.35885 0.61627 0.0
H3071 H 0.01879 0.37244 0.55405 0.0
H3072 H 0.97899 0.45406 0.51774 0.0
H3073 H 0.98297 0.42145 0.53004 0.0
C3074 C 0.44241 0.30375 0.39119 0.0
C3075 C 0.45841 0.29445 0.3835 0.0
C3076 C 0.42694 0.30817 0.37907 0.0
C3077 C 0.41049 0.30776 0.32682 0.0
H3078 H 0.36263 0.29093 0.34976 0.0
C3079 C 0.34612 0.27869 0.28205 0.0
C3080 C 0.32844 0.28691 0.28642 0.0
C3081 C 0.36205 0.28268 0.29382 0.0
C3082 C 0.37587 0.29585 0.34322 0.0
H3083 H 0.47158 0.28442 0.35674 0.0
H3084 H 0.44469 0.29151 0.33596 0.0
H3085 H 0.3907 0.29488 0.37047 0.0
H3086 H 0.31343 0.30534 0.30675 0.0
H3087 H 0.34112 0.31182 0.3275 0.0
H3088 H 0.39565 0.30761 0.29935 0.0
C3089 C 0.44392 0.29557 0.35121 0.0
C3090 C 0.39194 0.29832 0.3551 0.0
C3091 C 0.45935 0.29129 0.36324 0.0
C3092 C 0.32689 0.29883 0.30298 0.0
C3093 C 0.34269 0.30253 0.31488 0.0
C3094 C 0.39446 0.30499 0.3149 0.0
C3095 C 0.4272 0.30332 0.35909 0.0
C3096 C 0.40956 0.30391 0.34699 0.0
C3097 C 0.36044 0.29466 0.31031 0.0
C3098 C 0.37713 0.29868 0.32297 0.0
H3099 H 0.44134 0.30661 0.4067 0.0
H3100 H 0.41446 0.3146 0.38553 0.0
H3101 H 0.42372 0.31245 0.32013 0.0
H3102 H 0.34773 0.26955 0.26932 0.0
H3103 H 0.3756 0.2763 0.29016 0.0
C3104 C 0.40783 0.53187 0.32495 0.0
C3105 C 0.42192 0.53186 0.31049 0.0
C3106 C 0.4128 0.53513 0.34447 0.0
C3107 C 0.45496 0.53386 0.37744 0.0
H3108 H 0.41925 0.55511 0.4146 0.0
C3109 C 0.47294 0.53999 0.45892 0.0
C3110 C 0.46073 0.52801 0.4699 0.0
C3111 C 0.46794 0.54532 0.43994 0.0
C3112 C 0.42938 0.54935 0.40428 0.0
H3113 H 0.452 0.53621 0.30469 0.0
H3114 H 0.46061 0.5429 0.33849 0.0
H3115 H 0.4115 0.55542 0.37973 0.0
H3116 H 0.43314 0.5135 0.47033 0.0
H3117 H 0.42427 0.52319 0.43722 0.0
H3118 H 0.47285 0.52799 0.40206 0.0
C3119 C 0.44584 0.53954 0.33509 0.0
C3120 C 0.42491 0.54931 0.38436 0.0
C3121 C 0.44093 0.53578 0.31568 0.0
C3122 C 0.4429 0.52258 0.4621 0.0
C3123 C 0.43775 0.52824 0.44326 0.0
C3124 C 0.45958 0.53431 0.39725 0.0
C3125 C 0.4319 0.53891 0.34982 0.0
C3126 C 0.43744 0.54108 0.37073 0.0
C3127 C 0.4505 0.53912 0.43185 0.0
C3128 C 0.44665 0.54162 0.41084 0.0
H3129 H 0.39305 0.52889 0.32124 0.0
H3130 H 0.40169 0.53415 0.35536 0.0
H3131 H 0.46484 0.52705 0.36758 0.0
H3132 H 0.48677 0.54442 0.4646 0.0
H3133 H 0.47796 0.55372 0.43132 0.0
C3134 C 0.27319 0.70344 0.05491 0.0
C3135 C 0.26949 0.71469 0.03825 0.0
C3136 C 0.26795 0.70989 0.07335 0.0
C3137 C 0.25901 0.74955 0.10464 0.0
H3138 H 0.22339 0.71466 0.13035 0.0
C3139 C 0.23811 0.76116 0.18473 0.0
C3140 C 0.23894 0.74445 0.19634 0.0
C3141 C 0.23797 0.75974 0.16439 0.0
C3142 C 0.23336 0.72453 0.12342 0.0
H3143 H 0.25884 0.74229 0.02817 0.0
H3144 H 0.25018 0.75376 0.0608 0.0
H3145 H 0.23268 0.70858 0.09662 0.0
H3146 H 0.2393 0.71315 0.19579 0.0
H3147 H 0.23964 0.71067 0.16043 0.0
H3148 H 0.26076 0.76484 0.13172 0.0
C3149 C 0.25679 0.7398 0.05927 0.0
C3150 C 0.23857 0.72109 0.10413 0.0
C3151 C 0.26179 0.73322 0.04068 0.0
C3152 C 0.23866 0.72629 0.18725 0.0
C3153 C 0.23872 0.72488 0.16693 0.0
C3154 C 0.25402 0.75286 0.12408 0.0
C3155 C 0.25922 0.72783 0.07557 0.0
C3156 C 0.25182 0.73326 0.09483 0.0
C3157 C 0.23883 0.74161 0.15527 0.0
C3158 C 0.24158 0.74002 0.13386 0.0
H3159 H 0.2792 0.68916 0.05367 0.0
H3160 H 0.2702 0.7006 0.08586 0.0
H3161 H 0.26927 0.75907 0.09764 0.0
H3162 H 0.23802 0.77537 0.19134 0.0
H3163 H 0.23766 0.77288 0.15583 0.0
C3164 C 0.11713 0.46813 0.84594 0.0
C3165 C 0.10364 0.47705 0.8338 0.0
C3166 C 0.1128 0.46403 0.86542 0.0
C3167 C 0.0721 0.46039 0.89992 0.0
H3168 H 0.10904 0.47815 0.93844 0.0
C3169 C 0.04994 0.47526 0.9791 0.0
C3170 C 0.05476 0.49432 0.98444 0.0
C3171 C 0.05865 0.46662 0.96301 0.0
C3172 C 0.09866 0.47286 0.92787 0.0
H3173 H 0.0751 0.48869 0.83245 0.0
H3174 H 0.06774 0.48206 0.86646 0.0
H3175 H 0.11845 0.47545 0.90435 0.0
H3176 H 0.07335 0.51876 0.97795 0.0
H3177 H 0.08827 0.50389 0.95003 0.0
H3178 H 0.0519 0.45934 0.92319 0.0
C3179 C 0.08148 0.47775 0.86089 0.0
C3180 C 0.10408 0.47118 0.90837 0.0
C3181 C 0.08579 0.48181 0.84146 0.0
C3182 C 0.06912 0.50416 0.97408 0.0
C3183 C 0.07791 0.4955 0.95821 0.0
C3184 C 0.06666 0.46215 0.91941 0.0
C3185 C 0.09491 0.46879 0.87308 0.0
C3186 C 0.09056 0.46595 0.89405 0.0
C3187 C 0.0725 0.47682 0.95223 0.0
C3188 C 0.07962 0.46943 0.93336 0.0
H3189 H 0.13096 0.46413 0.84035 0.0
H3190 H 0.12342 0.4571 0.87446 0.0
H3191 H 0.06152 0.45582 0.88924 0.0
H3192 H 0.03901 0.46729 0.98693 0.0
H3193 H 0.05426 0.45218 0.95872 0.0
C3194 C 0.25411 0.30934 0.53813 0.0
C3195 C 0.2424 0.3257 0.53733 0.0
C3196 C 0.25962 0.3016 0.55612 0.0
C3197 C 0.26638 0.31637 0.6071 0.0
H3198 H 0.26315 0.26183 0.61954 0.0
C3199 C 0.25847 0.28855 0.6846 0.0
C3200 C 0.26755 0.27153 0.69041 0.0
C3201 C 0.25977 0.29501 0.66543 0.0
C3202 C 0.26455 0.27705 0.61613 0.0
H3203 H 0.22645 0.34601 0.55485 0.0
H3204 H 0.23595 0.33242 0.58607 0.0
H3205 H 0.25569 0.27274 0.58639 0.0
H3206 H 0.28572 0.24827 0.68091 0.0
H3207 H 0.28781 0.25957 0.64696 0.0
H3208 H 0.27466 0.32082 0.63688 0.0
C3209 C 0.24118 0.32586 0.57279 0.0
C3210 C 0.26019 0.28328 0.59721 0.0
C3211 C 0.23562 0.33355 0.55488 0.0
C3212 C 0.27861 0.26146 0.67679 0.0
C3213 C 0.27972 0.26784 0.65741 0.0
C3214 C 0.27076 0.31016 0.62592 0.0
C3215 C 0.25359 0.31012 0.5736 0.0
C3216 C 0.26043 0.30308 0.59276 0.0
C3217 C 0.27007 0.28455 0.65153 0.0
C3218 C 0.26925 0.29052 0.6308 0.0
H3219 H 0.25956 0.30288 0.5249 0.0
H3220 H 0.26914 0.28941 0.55636 0.0
H3221 H 0.26716 0.33168 0.6039 0.0
H3222 H 0.24993 0.29669 0.69479 0.0
H3223 H 0.25197 0.30779 0.66129 0.0
C3224 C 0.45978 0.4803 0.21355 0.0
C3225 C 0.44351 0.49188 0.21525 0.0
C3226 C 0.46286 0.46944 0.1967 0.0
C3227 C 0.43734 0.44858 0.15418 0.0
H3228 H 0.48696 0.45018 0.12956 0.0
C3229 C 0.44915 0.45034 0.07343 0.0
C3230 C 0.46731 0.44647 0.06599 0.0
C3231 C 0.44484 0.44595 0.09278 0.0
C3232 C 0.47314 0.44894 0.13647 0.0
H3233 H 0.41812 0.50166 0.20015 0.0
H3234 H 0.42376 0.48303 0.17056 0.0
H3235 H 0.48298 0.46467 0.1615 0.0
H3236 H 0.49403 0.43209 0.07164 0.0
H3237 H 0.48646 0.42428 0.10556 0.0
H3238 H 0.4273 0.43364 0.12865 0.0
C3239 C 0.43388 0.48204 0.18252 0.0
C3240 C 0.47084 0.45745 0.15476 0.0
C3241 C 0.43082 0.49297 0.19935 0.0
C3242 C 0.47997 0.43538 0.07712 0.0
C3243 C 0.47569 0.43106 0.09659 0.0
C3244 C 0.43965 0.43997 0.13589 0.0
C3245 C 0.44972 0.46987 0.18118 0.0
C3246 C 0.45274 0.45812 0.16339 0.0
C3247 C 0.45872 0.43776 0.105 0.0
C3248 C 0.45738 0.4409 0.12641 0.0
H3249 H 0.46987 0.47909 0.22551 0.0
H3250 H 0.47523 0.46026 0.19607 0.0
H3251 H 0.42332 0.44841 0.16078 0.0
H3252 H 0.43906 0.45866 0.06499 0.0
H3253 H 0.43156 0.45122 0.09864 0.0
C3254 C 0.27781 0.65442 0.93065 0.0
C3255 C 0.27966 0.67143 0.94172 0.0
C3256 C 0.27855 0.65513 0.91031 0.0
C3257 C 0.2957 0.68416 0.86935 0.0
H3258 H 0.25269 0.66218 0.84091 0.0
C3259 C 0.27417 0.70954 0.79303 0.0
C3260 C 0.26404 0.69696 0.78056 0.0
C3261 C 0.27983 0.70344 0.81154 0.0
C3262 C 0.2651 0.66796 0.84847 0.0
H3263 H 0.28394 0.70245 0.94036 0.0
H3264 H 0.28534 0.70367 0.9047 0.0
H3265 H 0.25521 0.65721 0.87595 0.0
H3266 H 0.25336 0.66766 0.77691 0.0
H3267 H 0.26383 0.65676 0.80901 0.0
H3268 H 0.3056 0.69503 0.84193 0.0
C3269 C 0.28337 0.68982 0.91181 0.0
C3270 C 0.26644 0.6652 0.86859 0.0
C3271 C 0.28237 0.68915 0.93215 0.0
C3272 C 0.26084 0.67777 0.78639 0.0
C3273 C 0.26679 0.67156 0.80479 0.0
C3274 C 0.29453 0.6867 0.84915 0.0
C3275 C 0.28142 0.67282 0.90075 0.0
C3276 C 0.28144 0.67375 0.87924 0.0
C3277 C 0.27574 0.68453 0.81785 0.0
C3278 C 0.27888 0.67914 0.83857 0.0
H3279 H 0.27577 0.64055 0.93769 0.0
H3280 H 0.27702 0.64185 0.90204 0.0
H3281 H 0.30756 0.69063 0.87729 0.0
H3282 H 0.27687 0.72443 0.78891 0.0
H3283 H 0.28648 0.71392 0.82124 0.0
C3284 C 0.05589 0.5157 0.73495 0.0
C3285 C 0.07367 0.50673 0.73693 0.0
C3286 C 0.04991 0.52271 0.71685 0.0
C3287 C 0.06845 0.54003 0.66998 0.0
H3288 H 0.01721 0.52942 0.65106 0.0
C3289 C 0.04504 0.54887 0.58959 0.0
C3290 C 0.02571 0.55226 0.58566 0.0
C3291 C 0.05146 0.54729 0.60888 0.0
C3292 C 0.03144 0.53294 0.65627 0.0
H3293 H 0.09892 0.49768 0.72129 0.0
H3294 H 0.08837 0.50986 0.68966 0.0
H3295 H 0.0269 0.51739 0.68286 0.0
H3296 H -0.00158 0.55894 0.59858 0.0
H3297 H 0.00975 0.55703 0.6322 0.0
H3298 H 0.07301 0.55554 0.64332 0.0
C3299 C 0.07918 0.5116 0.7022 0.0
C3300 C 0.03701 0.5259 0.67446 0.0
C3301 C 0.08509 0.50442 0.72027 0.0
C3302 C 0.01335 0.556 0.60124 0.0
C3303 C 0.01981 0.55475 0.62048 0.0
C3304 C 0.06282 0.54723 0.6518 0.0
C3305 C 0.06165 0.52103 0.70039 0.0
C3306 C 0.05563 0.52915 0.68138 0.0
C3307 C 0.03868 0.54934 0.62453 0.0
C3308 C 0.0443 0.54358 0.64463 0.0
H3309 H 0.04674 0.51774 0.74747 0.0
H3310 H 0.03634 0.52996 0.71585 0.0
H3311 H 0.08281 0.54299 0.67514 0.0
H3312 H 0.05487 0.54589 0.57782 0.0
H3313 H 0.06609 0.54309 0.61143 0.0
C3314 C 0.21375 0.34956 0.43557 0.0
C3315 C 0.21625 0.3678 0.44419 0.0
C3316 C 0.21043 0.34791 0.41557 0.0
C3317 C 0.22289 0.36938 0.37042 0.0
H3318 H 0.18434 0.33454 0.34912 0.0
C3319 C 0.23267 0.33876 0.29422 0.0
C3320 C 0.23038 0.3186 0.29346 0.0
C3321 C 0.22489 0.34928 0.30957 0.0
C3322 C 0.19517 0.34434 0.3548 0.0
H3323 H 0.21721 0.39864 0.4388 0.0
H3324 H 0.21221 0.39562 0.40338 0.0
H3325 H 0.18253 0.34467 0.38325 0.0
H3326 H 0.21702 0.29378 0.30723 0.0
H3327 H 0.20425 0.31186 0.33448 0.0
H3328 H 0.23661 0.36779 0.3428 0.0
C3329 C 0.21244 0.38272 0.41229 0.0
C3330 C 0.19403 0.35022 0.37426 0.0
C3331 C 0.21538 0.38441 0.43245 0.0
C3332 C 0.21906 0.30931 0.30752 0.0
C3333 C 0.21159 0.31977 0.32307 0.0
C3334 C 0.22423 0.36325 0.35107 0.0
C3335 C 0.20986 0.36444 0.40375 0.0
C3336 C 0.20833 0.36212 0.3824 0.0
C3337 C 0.21502 0.33979 0.32468 0.0
C3338 C 0.21086 0.34994 0.34329 0.0
H3339 H 0.21421 0.33654 0.44431 0.0
H3340 H 0.20882 0.33364 0.40922 0.0
H3341 H 0.23413 0.3785 0.37645 0.0
H3342 H 0.24101 0.34634 0.2833 0.0
H3343 H 0.22737 0.36474 0.31005 0.0
C3344 C 0.29981 0.38611 0.48754 0.0
C3345 C 0.28118 0.39102 0.49289 0.0
C3346 C 0.31537 0.39734 0.49378 0.0
C3347 C 0.32973 0.43216 0.5323 0.0
H3348 H 0.37419 0.43852 0.4994 0.0
C3349 C 0.39906 0.47848 0.54935 0.0
C3350 C 0.41603 0.46907 0.54445 0.0
C3351 C 0.38135 0.46964 0.54523 0.0
C3352 C 0.36188 0.4368 0.50878 0.0
H3353 H 0.26425 0.41218 0.5083 0.0
H3354 H 0.29138 0.43195 0.51881 0.0
H3355 H 0.34562 0.42297 0.4862 0.0
H3356 H 0.42792 0.44248 0.53341 0.0
H3357 H 0.39726 0.42714 0.52652 0.0
H3358 H 0.34626 0.44621 0.55485 0.0
C3359 C 0.29399 0.41915 0.51017 0.0
C3360 C 0.34553 0.42784 0.50124 0.0
C3361 C 0.27842 0.40787 0.504 0.0
C3362 C 0.41504 0.45014 0.53711 0.0
C3363 C 0.39751 0.4414 0.53305 0.0
C3364 C 0.34612 0.44132 0.53982 0.0
C3365 C 0.31267 0.41384 0.50541 0.0
C3366 C 0.32938 0.42502 0.51301 0.0
C3367 C 0.38053 0.45138 0.53621 0.0
C3368 C 0.36247 0.44329 0.52822 0.0
H3369 H 0.30249 0.3732 0.4791 0.0
H3370 H 0.32957 0.39267 0.49003 0.0
H3371 H 0.31759 0.43008 0.54183 0.0
H3372 H 0.39947 0.49312 0.55491 0.0
H3373 H 0.36839 0.47756 0.54788 0.0
C3374 C 0.833 0.11379 0.50323 0.0
C3375 C 0.81434 0.11196 0.51042 0.0
C3376 C 0.84555 0.09845 0.50467 0.0
C3377 C 0.85867 0.05471 0.52877 0.0
H3378 H 0.87464 0.03809 0.47725 0.0
C3379 C 0.91347 0.99494 0.52103 0.0
C3380 C 0.92851 -0.00049 0.50827 0.0
C3381 C 0.89647 0.00516 0.5202 0.0
C3382 C 0.8704 0.04257 0.49174 0.0
H3383 H 0.79481 0.09344 0.52654 0.0
H3384 H 0.81719 0.06667 0.52953 0.0
H3385 H 0.85221 0.06452 0.48042 0.0
H3386 H 0.937 0.01716 0.48359 0.0
H3387 H 0.90767 0.03533 0.48244 0.0
H3388 H 0.87765 0.03365 0.54025 0.0
C3389 C 0.82181 0.0799 0.52246 0.0
C3390 C 0.85755 0.05764 0.49352 0.0
C3391 C 0.80909 0.09521 0.52079 0.0
C3392 C 0.92565 0.01331 0.4936 0.0
C3393 C 0.90875 0.02371 0.49293 0.0
C3394 C 0.8718 0.03981 0.52702 0.0
C3395 C 0.83978 0.08116 0.51361 0.0
C3396 C 0.85195 0.06409 0.51204 0.0
C3397 C 0.89428 0.02029 0.50675 0.0
C3398 C 0.87817 0.03388 0.50847 0.0
H3399 H 0.83753 0.12656 0.49529 0.0
H3400 H 0.85952 0.09976 0.49804 0.0
H3401 H 0.85446 0.0595 0.54318 0.0
H3402 H 0.91519 0.98413 0.53231 0.0
H3403 H 0.88539 0.00178 0.53068 0.0
C3404 C 0.62874 0.06453 0.27554 0.0
C3405 C 0.63801 0.04747 0.2809 0.0
C3406 C 0.6381 0.07826 0.26395 0.0
C3407 C 0.68493 0.0944 0.24552 0.0
H3408 H 0.65573 0.1111 0.20043 0.0
C3409 C 0.71875 0.14876 0.19558 0.0
C3410 C 0.70742 0.16526 0.19472 0.0
C3411 C 0.71041 0.13084 0.1999 0.0
C3412 C 0.66409 0.1065 0.21289 0.0
H3413 H 0.66485 0.03227 0.28007 0.0
H3414 H 0.68127 0.05641 0.26025 0.0
H3415 H 0.64115 0.08917 0.22416 0.0
H3416 H 0.67854 0.17576 0.19447 0.0
H3417 H 0.66393 0.14473 0.20179 0.0
H3418 H 0.70762 0.11217 0.23483 0.0
C3419 C 0.66673 0.05907 0.2647 0.0
C3420 C 0.65569 0.09411 0.22657 0.0
C3421 C 0.65734 0.04528 0.27611 0.0
C3422 C 0.68751 0.16314 0.19488 0.0
C3423 C 0.67916 0.14529 0.19927 0.0
C3424 C 0.69329 0.10686 0.23194 0.0
C3425 C 0.65693 0.07525 0.25777 0.0
C3426 C 0.66593 0.08822 0.24319 0.0
C3427 C 0.6907 0.12936 0.20351 0.0
C3428 C 0.68288 0.11333 0.21561 0.0
H3429 H 0.61382 0.06657 0.27891 0.0
H3430 H 0.63035 0.09085 0.25915 0.0
H3431 H 0.69314 0.09013 0.25821 0.0
H3432 H 0.73416 0.15012 0.19566 0.0
H3433 H 0.71962 0.11865 0.2025 0.0
C3434 C 0.66548 0.86201 0.01636 0.0
C3435 C 0.68276 0.86859 0.02461 0.0
C3436 C 0.64931 0.87357 0.01693 0.0
C3437 C 0.62918 0.91896 0.03703 0.0
H3438 H 0.60765 0.92335 0.98493 0.0
C3439 C 0.58183 0.9829 0.01497 0.0
C3440 C 0.56493 0.97811 0.00483 0.0
C3441 C 0.59605 0.96915 0.0176 0.0
C3442 C 0.61335 0.92219 -0.00039 0.0
H3443 H 0.69603 0.89132 0.04196 0.0
H3444 H 0.66793 0.91149 0.04284 0.0
H3445 H 0.63087 0.89845 0.99176 0.0
H3446 H 0.55029 0.95546 0.98847 0.0
H3447 H 0.57506 0.93163 0.99299 0.0
H3448 H 0.61178 0.94297 0.04474 0.0
C3449 C 0.66681 0.89749 0.03585 0.0
C3450 C 0.62658 0.90781 0.00358 0.0
C3451 C 0.68297 0.8859 0.03533 0.0
C3452 C 0.5631 0.95965 0.99639 0.0
C3453 C 0.57733 0.94596 -0.00104 0.0
C3454 C 0.61593 0.93337 0.03305 0.0
C3455 C 0.65013 0.89191 0.02575 0.0
C3456 C 0.63473 0.90607 0.02231 0.0
C3457 C 0.59373 0.95038 0.01004 0.0
C3458 C 0.60796 0.93522 0.01425 0.0
H3459 H 0.6648 0.84862 0.00818 0.0
H3460 H 0.63648 0.86863 0.00949 0.0
H3461 H 0.6351 0.91792 0.05163 0.0
H3462 H 0.58372 0.99697 0.02167 0.0
H3463 H 0.60871 0.9731 0.02588 0.0
C3464 C 0.39548 0.44492 0.26632 0.0
C3465 C 0.38897 0.46388 0.26874 0.0
C3466 C 0.38334 0.43063 0.25863 0.0
C3467 C 0.33329 0.41738 0.24942 0.0
H3468 H 0.35353 0.38831 0.20586 0.0
C3469 C 0.28649 0.36014 0.21359 0.0
C3470 C 0.29541 0.34222 0.21213 0.0
C3471 C 0.29744 0.37704 0.2155 0.0
C3472 C 0.34766 0.39626 0.21802 0.0
H3473 H 0.36434 0.48238 0.26643 0.0
H3474 H 0.34306 0.45729 0.25351 0.0
H3475 H 0.37361 0.41243 0.22234 0.0
H3476 H 0.32245 0.32779 0.20986 0.0
H3477 H 0.34164 0.35706 0.21334 0.0
H3478 H 0.30766 0.40086 0.24577 0.0
C3479 C 0.35757 0.45356 0.25728 0.0
C3480 C 0.3592 0.40999 0.2275 0.0
C3481 C 0.36975 0.4679 0.26471 0.0
C3482 C 0.3153 0.34156 0.21053 0.0
C3483 C 0.32629 0.35839 0.21266 0.0
C3484 C 0.32183 0.40353 0.24009 0.0
C3485 C 0.36444 0.43498 0.25352 0.0
C3486 C 0.35218 0.42051 0.24343 0.0
C3487 C 0.31748 0.37615 0.21642 0.0
C3488 C 0.32892 0.39263 0.22439 0.0
H3489 H 0.41024 0.44141 0.26916 0.0
H3490 H 0.38888 0.41631 0.25617 0.0
H3491 H 0.32755 0.42524 0.26171 0.0
H3492 H 0.27114 0.36089 0.21519 0.0
H3493 H 0.2902 0.39056 0.21781 0.0
C3494 C 0.20072 0.67105 -0.00291 0.0
C3495 C 0.21781 0.66077 0.99591 0.0
C3496 C 0.18411 0.6621 0.00402 0.0
C3497 C 0.14853 0.6377 0.00896 0.0
H3498 H 0.15188 0.59711 0.04778 0.0
C3499 C 0.08746 0.58406 0.02066 0.0
C3500 C 0.0837 0.57639 0.03931 0.0
C3501 C 0.10322 0.59598 0.01747 0.0
C3502 C 0.15063 0.60864 0.03719 0.0
H3503 H 0.23078 0.63288 0.00051 0.0
H3504 H 0.20166 0.617 0.01167 0.0
H3505 H 0.18058 0.6148 0.0382 0.0
H3506 H 0.09356 0.57566 0.06936 0.0
H3507 H 0.12118 0.59704 0.06382 0.0
H3508 H 0.11855 0.63198 0.00835 0.0
C3509 C 0.20117 0.63218 0.00797 0.0
C3510 C 0.16716 0.61857 0.03142 0.0
C3511 C 0.21784 0.64122 0.00135 0.0
C3512 C 0.09605 0.5813 0.05483 0.0
C3513 C 0.11191 0.59346 0.05162 0.0
C3514 C 0.13201 0.62798 0.01492 0.0
C3515 C 0.18412 0.64255 0.00964 0.0
C3516 C 0.16638 0.63293 0.01689 0.0
C3517 C 0.11569 0.60086 0.03283 0.0
C3518 C 0.1329 0.61295 0.0287 0.0
H3519 H 0.20029 0.68621 0.99326 0.0
H3520 H 0.17138 0.67067 0.00534 0.0
H3521 H 0.14729 0.64855 -0.00233 0.0
H3522 H 0.07841 0.58056 0.00825 0.0
H3523 H 0.10586 0.60095 0.00272 0.0
C3524 C 0.64543 0.92667 0.26421 0.0
C3525 C 0.64906 0.9449 0.25597 0.0
C3526 C 0.65914 0.91231 0.2632 0.0
C3527 C 0.70124 0.89447 0.23938 0.0
H3528 H 0.71727 0.87972 0.29159 0.0
C3529 C 0.76032 0.83936 0.24951 0.0
C3530 C 0.75627 0.82475 0.26314 0.0
C3531 C 0.74994 0.8564 0.24952 0.0
C3532 C 0.71289 0.88353 0.27691 0.0
H3533 H 0.66884 0.96177 0.23843 0.0
H3534 H 0.69261 0.93631 0.2362 0.0
H3535 H 0.69176 0.90296 0.28741 0.0
H3536 H 0.73928 0.81705 0.2884 0.0
H3537 H 0.72074 0.84638 0.28808 0.0
H3538 H 0.72162 0.87445 0.22875 0.0
C3539 C 0.67933 0.93336 0.24373 0.0
C3540 C 0.69831 0.89682 0.27455 0.0
C3541 C 0.66574 0.94787 0.245 0.0
C3542 C 0.74274 0.8281 0.27775 0.0
C3543 C 0.73213 0.84499 0.27756 0.0
C3544 C 0.71561 0.88089 0.24172 0.0
C3545 C 0.67648 0.91586 0.25363 0.0
C3546 C 0.69221 0.90216 0.25579 0.0
C3547 C 0.73507 0.85899 0.26295 0.0
C3548 C 0.72144 0.87505 0.26053 0.0
H3549 H 0.6327 0.92395 0.27273 0.0
H3550 H 0.65661 0.89876 0.2707 0.0
H3551 H 0.69675 0.8985 0.22479 0.0
H3552 H 0.7709 0.83723 0.23825 0.0
H3553 H 0.75299 0.86715 0.23845 0.0
C3554 C 0.86973 0.06675 0.72782 0.0
C3555 C 0.88785 0.06747 0.73671 0.0
C3556 C 0.85949 0.08369 0.72486 0.0
C3557 C 0.85528 0.12951 0.74994 0.0
H3558 H 0.81832 0.14158 0.70961 0.0
C3559 C 0.80869 0.19693 0.75474 0.0
C3560 C 0.78961 0.19546 0.74845 0.0
C3561 C 0.82133 0.1819 0.75148 0.0
C3562 C 0.82845 0.13827 0.72108 0.0
H3563 H 0.91046 0.0866 0.74702 0.0
H3564 H 0.89269 0.11614 0.74161 0.0
H3565 H 0.84052 0.11505 0.70465 0.0
H3566 H 0.76879 0.17678 0.73409 0.0
H3567 H 0.7908 0.15024 0.72889 0.0
H3568 H 0.84296 0.15209 0.76671 0.0
C3569 C 0.88619 0.10247 0.73744 0.0
C3570 C 0.84124 0.12318 0.71816 0.0
C3571 C 0.89642 0.08555 0.74041 0.0
C3572 C 0.78339 0.17839 0.73914 0.0
C3573 C 0.79605 0.16326 0.73596 0.0
C3574 C 0.84247 0.14443 0.75291 0.0
C3575 C 0.86723 0.1016 0.7307 0.0
C3576 C 0.85476 0.11864 0.7326 0.0
C3577 C 0.81522 0.16491 0.74197 0.0
C3578 C 0.82885 0.14899 0.73857 0.0
H3579 H 0.86279 0.05304 0.72467 0.0
H3580 H 0.84494 0.08255 0.71957 0.0
H3581 H 0.86517 0.12604 0.76159 0.0
H3582 H 0.81406 0.20991 0.76181 0.0
H3583 H 0.83604 0.18381 0.75606 0.0
loop_
_geom_bond_atom_site_label_1
_geom_bond_atom_site_label_2
_geom_bond_distance
_geom_bond_site_symmetry_2
_ccdc_geom_bond_type
Co0 O1 2.216 1_455 S
Co0 O2 2.091 1_455 S
Co0 O4 2.004 . S
Co0 O10 2.021 . S
Co0 O12 2.135 1_455 S
Co0 O13 2.244 . S
O1 Co0 2.216 1_655 S
O1 C8 1.247 . S
O2 Co0 2.091 1_655 S
O2 C8 1.261 . S
C3 O12 1.232 1_455 S
C3 O13 1.272 . S
O4 Co0 2.004 . S
O4 C9 1.259 . S
Co5 O6 2.061 . S
Co5 O11 2.052 . S
Co5 O13 2.135 . S
O6 Co5 2.061 . S
O6 C9 1.235 . S
C7 O10 1.238 . S
C7 O11 1.241 . S
C8 O1 1.247 . S
C8 O2 1.261 . S
C9 O4 1.259 . S
C9 O6 1.235 . S
O10 Co0 2.021 . S
O10 C7 1.238 . S
O11 Co5 2.052 . S
O11 C7 1.241 . S
O12 Co0 2.135 1_655 S
O12 C3 1.232 1_655 S
O13 Co0 2.244 . S
O13 C3 1.272 . S
O13 Co5 2.135 . S
Co14 O15 2.216 . S
Co14 O16 2.091 . S
Co14 O18 2.004 1_455 S
Co14 O24 2.021 . S
Co14 O26 2.137 . S
Co14 O27 2.254 . S
O15 Co14 2.216 . S
O15 C22 1.247 . S
O16 Co14 2.091 . S
O16 C22 1.261 . S
C17 O26 1.247 . S
C17 O27 1.281 . S
O18 Co14 2.004 1_655 S
O18 C23 1.259 . S
Co19 O20 2.061 . S
Co19 O25 2.052 . S
Co19 O27 2.109 1_655 S
O20 Co19 2.061 . S
O20 C23 1.235 . S
C21 O24 1.238 . S
C21 O25 1.241 1_455 S
C22 O15 1.247 . S
C22 O16 1.261 . S
C23 O18 1.259 . S
C23 O20 1.235 . S
O24 Co14 2.021 . S
O24 C21 1.238 . S
O25 Co19 2.052 . S
O25 C21 1.241 1_655 S
O26 Co14 2.137 . S
O26 C17 1.247 . S
O27 Co14 2.254 . S
O27 C17 1.281 . S
O27 Co19 2.109 1_455 S
Co28 O29 2.216 . S
Co28 O30 2.091 . S
Co28 O32 2.004 . S
Co28 O38 2.021 . S
Co28 O40 2.137 . S
Co28 O41 2.244 . S
O29 Co28 2.216 . S
O29 C36 1.247 . S
O30 Co28 2.091 . S
O30 C36 1.261 . S
C31 O40 1.247 . S
C31 O41 1.272 . S
O32 Co28 2.004 . S
O32 C37 1.259 . S
Co33 O34 2.061 . S
Co33 O39 2.052 . S
Co33 O41 2.135 . S
O34 Co33 2.061 . S
O34 C37 1.235 . S
C35 O38 1.238 . S
C35 O39 1.241 . S
C36 O29 1.247 . S
C36 O30 1.261 . S
C37 O32 1.259 . S
C37 O34 1.235 . S
O38 Co28 2.021 . S
O38 C35 1.238 . S
O39 Co33 2.052 . S
O39 C35 1.241 . S
O40 Co28 2.137 . S
O40 C31 1.247 . S
O41 Co28 2.244 . S
O41 C31 1.272 . S
O41 Co33 2.135 . S
Co42 O43 2.216 . S
Co42 O44 2.091 . S
Co42 O46 2.004 . S
Co42 O52 2.021 . S
Co42 O54 2.137 . S
Co42 O55 2.244 . S
O43 Co42 2.216 . S
O43 C50 1.247 . S
O44 Co42 2.091 . S
O44 C50 1.261 . S
C45 O54 1.247 . S
C45 O55 1.272 . S
O46 Co42 2.004 . S
O46 C51 1.259 . S
Co47 O48 2.061 . S
Co47 O53 2.052 . S
Co47 O55 2.135 . S
O48 Co47 2.061 . S
O48 C51 1.235 . S
C49 O52 1.238 . S
C49 O53 1.241 . S
C50 O43 1.247 . S
C50 O44 1.261 . S
C51 O46 1.259 . S
C51 O48 1.235 . S
O52 Co42 2.021 . S
O52 C49 1.238 . S
O53 Co47 2.052 . S
O53 C49 1.241 . S
O54 Co42 2.137 . S
O54 C45 1.247 . S
O55 Co42 2.244 . S
O55 C45 1.272 . S
O55 Co47 2.135 . S
Co56 O57 2.216 1_545 S
Co56 O58 2.091 1_545 S
Co56 O60 2.004 . S
Co56 O66 2.021 . S
Co56 O68 2.137 . S
Co56 O69 2.244 . S
O57 Co56 2.216 1_565 S
O57 C64 1.247 . S
O58 Co56 2.091 1_565 S
O58 C64 1.261 . S
C59 O68 1.247 . S
C59 O69 1.272 . S
O60 Co56 2.004 . S
O60 C65 1.259 . S
Co61 O62 2.061 . S
Co61 O67 2.052 . S
Co61 O69 2.135 . S
O62 Co61 2.061 . S
O62 C65 1.235 . S
C63 O66 1.238 . S
C63 O67 1.241 . S
C64 O57 1.247 . S
C64 O58 1.261 . S
C65 O60 1.259 . S
C65 O62 1.235 . S
O66 Co56 2.021 . S
O66 C63 1.238 . S
O67 Co61 2.052 . S
O67 C63 1.241 . S
O68 Co56 2.137 . S
O68 C59 1.247 . S
O69 Co56 2.244 . S
O69 C59 1.272 . S
O69 Co61 2.135 . S
Co70 O71 2.216 . S
Co70 O72 2.091 . S
Co70 O74 2.004 . S
Co70 O80 2.021 . S
Co70 O82 2.137 . S
Co70 O83 2.244 . S
O71 Co70 2.216 . S
O71 C78 1.247 . S
O72 Co70 2.091 . S
O72 C78 1.261 . S
C73 O82 1.247 . S
C73 O83 1.272 . S
O74 Co70 2.004 . S
O74 C79 1.259 . S
Co75 O76 2.061 . S
Co75 O81 2.052 . S
Co75 O83 2.135 . S
O76 Co75 2.061 . S
O76 C79 1.235 . S
C77 O80 1.238 . S
C77 O81 1.241 . S
C78 O71 1.247 . S
C78 O72 1.261 . S
C79 O74 1.259 . S
C79 O76 1.235 . S
O80 Co70 2.021 . S
O80 C77 1.238 . S
O81 Co75 2.052 . S
O81 C77 1.241 . S
O82 Co70 2.137 . S
O82 C73 1.247 . S
O83 Co70 2.244 . S
O83 C73 1.272 . S
O83 Co75 2.135 . S
Co84 O85 2.216 . S
Co84 O86 2.091 . S
Co84 O88 2.004 1_545 S
Co84 O94 2.021 . S
Co84 O96 2.137 . S
Co84 O97 2.244 1_545 S
O85 Co84 2.216 . S
O85 C92 1.247 . S
O86 Co84 2.091 . S
O86 C92 1.261 . S
C87 O96 1.262 . S
C87 O97 1.261 1_545 S
O88 Co84 2.004 1_565 S
O88 C93 1.259 . S
Co89 O90 2.061 . S
Co89 O95 2.052 . S
Co89 O97 2.135 . S
O90 Co89 2.061 . S
O90 C93 1.235 . S
C91 O94 1.238 1_565 S
C91 O95 1.241 . S
C92 O85 1.247 . S
C92 O86 1.261 . S
C93 O88 1.259 . S
C93 O90 1.235 . S
O94 Co84 2.021 . S
O94 C91 1.238 1_545 S
O95 Co89 2.052 . S
O95 C91 1.241 . S
O96 Co84 2.137 . S
O96 C87 1.262 . S
O97 Co84 2.244 1_565 S
O97 C87 1.261 1_565 S
O97 Co89 2.135 . S
Co98 O99 2.216 . S
Co98 O100 2.091 . S
Co98 O102 2.004 . S
Co98 O108 2.021 . S
Co98 O110 2.137 1_554 S
Co98 O111 2.244 1_554 S
O99 Co98 2.216 . S
O99 C106 1.247 . S
O100 Co98 2.091 . S
O100 C106 1.261 . S
C101 O110 1.247 . S
C101 O111 1.272 . S
O102 Co98 2.004 . S
O102 C107 1.259 . S
Co103 O104 2.061 . S
Co103 O109 2.052 . S
Co103 O111 2.135 1_554 S
O104 Co103 2.061 . S
O104 C107 1.235 . S
C105 O108 1.238 . S
C105 O109 1.241 . S
C106 O99 1.247 . S
C106 O100 1.261 . S
C107 O102 1.259 . S
C107 O104 1.235 . S
O108 Co98 2.021 . S
O108 C105 1.238 . S
O109 Co103 2.052 . S
O109 C105 1.241 . S
O110 Co98 2.137 1_556 S
O110 C101 1.247 . S
O111 Co98 2.244 1_556 S
O111 C101 1.272 . S
O111 Co103 2.135 1_556 S
Co112 O113 2.216 . S
Co112 O114 2.091 . S
Co112 O116 2.004 . S
Co112 O122 2.021 . S
Co112 O124 2.137 1_554 S
Co112 O125 2.244 1_554 S
O113 Co112 2.216 . S
O113 C120 1.247 . S
O114 Co112 2.091 . S
O114 C120 1.261 . S
C115 O124 1.247 . S
C115 O125 1.272 . S
O116 Co112 2.004 . S
O116 C121 1.259 . S
Co117 O118 2.061 . S
Co117 O123 2.052 . S
Co117 O125 2.135 1_554 S
O118 Co117 2.061 . S
O118 C121 1.235 . S
C119 O122 1.238 . S
C119 O123 1.241 . S
C120 O113 1.247 . S
C120 O114 1.261 . S
C121 O116 1.259 . S
C121 O118 1.235 . S
O122 Co112 2.021 . S
O122 C119 1.238 . S
O123 Co117 2.052 . S
O123 C119 1.241 . S
O124 Co112 2.137 1_556 S
O124 C115 1.247 . S
O125 Co112 2.244 1_556 S
O125 C115 1.272 . S
O125 Co117 2.135 1_556 S
Co126 O127 2.216 . S
Co126 O128 2.091 . S
Co126 O130 2.004 . S
Co126 O136 2.021 . S
Co126 O138 2.137 . S
Co126 O139 2.244 . S
O127 Co126 2.216 . S
O127 C134 1.247 . S
O128 Co126 2.091 . S
O128 C134 1.261 . S
C129 O138 1.247 . S
C129 O139 1.272 . S
O130 Co126 2.004 . S
O130 C135 1.259 . S
Co131 O132 2.061 . S
Co131 O137 2.052 . S
Co131 O139 2.135 . S
O132 Co131 2.061 . S
O132 C135 1.235 . S
C133 O136 1.238 . S
C133 O137 1.241 . S
C134 O127 1.247 . S
C134 O128 1.261 . S
C135 O130 1.259 . S
C135 O132 1.235 . S
O136 Co126 2.021 . S
O136 C133 1.238 . S
O137 Co131 2.052 . S
O137 C133 1.241 . S
O138 Co126 2.137 . S
O138 C129 1.247 . S
O139 Co126 2.244 . S
O139 C129 1.272 . S
O139 Co131 2.135 . S
Co140 O141 2.216 . S
Co140 O142 2.091 . S
Co140 O144 2.004 . S
Co140 O150 2.021 . S
Co140 O152 2.137 . S
Co140 O153 2.244 . S
O141 Co140 2.216 . S
O141 C148 1.247 . S
O142 Co140 2.091 . S
O142 C148 1.261 . S
C143 O152 1.247 . S
C143 O153 1.272 . S
O144 Co140 2.004 . S
O144 C149 1.259 . S
Co145 O146 2.061 . S
Co145 O151 2.052 . S
Co145 O153 2.135 . S
O146 Co145 2.061 . S
O146 C149 1.235 . S
C147 O150 1.238 . S
C147 O151 1.241 . S
C148 O141 1.247 . S
C148 O142 1.261 . S
C149 O144 1.259 . S
C149 O146 1.235 . S
O150 Co140 2.021 . S
O150 C147 1.238 . S
O151 Co145 2.052 . S
O151 C147 1.241 . S
O152 Co140 2.137 . S
O152 C143 1.247 . S
O153 Co140 2.244 . S
O153 C143 1.272 . S
O153 Co145 2.135 . S
Co154 O155 2.216 . S
Co154 O156 2.091 . S
Co154 O158 2.004 . S
Co154 O164 2.021 . S
Co154 O166 2.137 . S
Co154 O167 2.244 . S
O155 Co154 2.216 . S
O155 C162 1.247 . S
O156 Co154 2.091 . S
O156 C162 1.261 . S
C157 O166 1.247 . S
C157 O167 1.272 . S
O158 Co154 2.004 . S
O158 C163 1.259 . S
Co159 O160 2.061 . S
Co159 O165 2.052 . S
Co159 O167 2.135 . S
O160 Co159 2.061 . S
O160 C163 1.235 . S
C161 O164 1.238 . S
C161 O165 1.241 . S
C162 O155 1.247 . S
C162 O156 1.261 . S
C163 O158 1.259 . S
C163 O160 1.235 . S
O164 Co154 2.021 . S
O164 C161 1.238 . S
O165 Co159 2.052 . S
O165 C161 1.241 . S
O166 Co154 2.137 . S
O166 C157 1.247 . S
O167 Co154 2.244 . S
O167 C157 1.272 . S
O167 Co159 2.135 . S
Co168 O169 2.216 . S
Co168 O170 2.091 . S
Co168 O172 2.004 1_455 S
Co168 O178 2.021 . S
Co168 O180 2.137 . S
Co168 O181 2.244 1_455 S
O169 Co168 2.216 . S
O169 C176 1.247 . S
O170 Co168 2.091 . S
O170 C176 1.261 . S
C171 O180 1.247 . S
C171 O181 1.272 1_455 S
O172 Co168 2.004 1_655 S
O172 C177 1.259 . S
Co173 O174 2.061 . S
Co173 O179 2.052 . S
Co173 O181 2.134 . S
O174 Co173 2.061 . S
O174 C177 1.235 . S
C175 O178 1.238 . S
C175 O179 1.241 1_455 S
C176 O169 1.247 . S
C176 O170 1.261 . S
C177 O172 1.259 . S
C177 O174 1.235 . S
O178 Co168 2.021 . S
O178 C175 1.238 . S
O179 Co173 2.052 . S
O179 C175 1.241 1_655 S
O180 Co168 2.137 . S
O180 C171 1.247 . S
O181 Co168 2.244 1_655 S
O181 C171 1.272 1_655 S
O181 Co173 2.134 . S
Co182 O183 2.216 1_455 S
Co182 O184 2.091 1_455 S
Co182 O186 2.004 . S
Co182 O192 2.021 . S
Co182 O194 2.137 . S
Co182 O195 2.244 . S
O183 Co182 2.216 1_655 S
O183 C190 1.247 . S
O184 Co182 2.091 1_655 S
O184 C190 1.261 . S
C185 O194 1.245 . S
C185 O195 1.272 . S
O186 Co182 2.004 . S
O186 C191 1.259 . S
Co187 O188 2.061 . S
Co187 O193 2.052 . S
Co187 O195 2.135 . S
O188 Co187 2.061 . S
O188 C191 1.235 . S
C189 O192 1.238 . S
C189 O193 1.241 . S
C190 O183 1.247 . S
C190 O184 1.261 . S
C191 O186 1.259 . S
C191 O188 1.235 . S
O192 Co182 2.021 . S
O192 C189 1.238 . S
O193 Co187 2.052 . S
O193 C189 1.241 . S
O194 Co182 2.137 . S
O194 C185 1.245 . S
O195 Co182 2.244 . S
O195 C185 1.272 . S
O195 Co187 2.135 . S
Co196 O197 2.216 . S
Co196 O198 2.091 . S
Co196 O200 2.004 . S
Co196 O206 2.021 . S
Co196 O208 2.137 . S
Co196 O209 2.244 . S
O197 Co196 2.216 . S
O197 C204 1.247 . S
O198 Co196 2.091 . S
O198 C204 1.261 . S
C199 O208 1.247 . S
C199 O209 1.272 . S
O200 Co196 2.004 . S
O200 C205 1.259 . S
Co201 O202 2.061 . S
Co201 O207 2.052 . S
Co201 O209 2.135 . S
O202 Co201 2.061 . S
O202 C205 1.235 . S
C203 O206 1.238 . S
C203 O207 1.241 . S
C204 O197 1.247 . S
C204 O198 1.261 . S
C205 O200 1.259 . S
C205 O202 1.235 . S
O206 Co196 2.021 . S
O206 C203 1.238 . S
O207 Co201 2.052 . S
O207 C203 1.241 . S
O208 Co196 2.137 . S
O208 C199 1.247 . S
O209 Co196 2.244 . S
O209 C199 1.272 . S
O209 Co201 2.135 . S
Co210 O211 2.216 . S
Co210 O212 2.091 . S
Co210 O214 2.004 . S
Co210 O220 2.021 . S
Co210 O222 2.137 . S
Co210 O223 2.244 . S
O211 Co210 2.216 . S
O211 C218 1.247 . S
O212 Co210 2.091 . S
O212 C218 1.261 . S
C213 O222 1.247 . S
C213 O223 1.272 . S
O214 Co210 2.004 . S
O214 C219 1.259 . S
Co215 O216 2.061 . S
Co215 O221 2.052 . S
Co215 O223 2.135 . S
O216 Co215 2.061 . S
O216 C219 1.235 . S
C217 O220 1.238 . S
C217 O221 1.241 . S
C218 O211 1.247 . S
C218 O212 1.261 . S
C219 O214 1.259 . S
C219 O216 1.235 . S
O220 Co210 2.021 . S
O220 C217 1.238 . S
O221 Co215 2.052 . S
O221 C217 1.241 . S
O222 Co210 2.137 . S
O222 C213 1.247 . S
O223 Co210 2.244 . S
O223 C213 1.272 . S
O223 Co215 2.135 . S
Co224 O225 2.216 . S
Co224 O226 2.091 . S
Co224 O228 2.004 1_545 S
Co224 O234 2.021 . S
Co224 O236 2.137 . S
Co224 O237 2.244 . S
O225 Co224 2.216 . S
O225 C232 1.247 . S
O226 Co224 2.091 . S
O226 C232 1.261 . S
C227 O236 1.247 . S
C227 O237 1.272 . S
O228 Co224 2.004 1_565 S
O228 C233 1.259 . S
Co229 O230 2.061 . S
Co229 O235 2.052 1_565 S
Co229 O237 2.135 1_565 S
O230 Co229 2.061 . S
O230 C233 1.235 . S
C231 O234 1.238 . S
C231 O235 1.241 . S
C232 O225 1.247 . S
C232 O226 1.261 . S
C233 O228 1.259 . S
C233 O230 1.235 . S
O234 Co224 2.021 . S
O234 C231 1.238 . S
O235 Co229 2.052 1_545 S
O235 C231 1.241 . S
O236 Co224 2.137 . S
O236 C227 1.247 . S
O237 Co224 2.244 . S
O237 C227 1.272 . S
O237 Co229 2.135 1_545 S
Co238 O239 2.216 . S
Co238 O240 2.091 . S
Co238 O242 2.004 . S
Co238 O248 2.021 . S
Co238 O250 2.137 . S
Co238 O251 2.244 . S
O239 Co238 2.216 . S
O239 C246 1.247 . S
O240 Co238 2.091 . S
O240 C246 1.261 . S
C241 O250 1.247 . S
C241 O251 1.272 . S
O242 Co238 2.004 . S
O242 C247 1.259 . S
Co243 O244 2.061 . S
Co243 O249 2.052 . S
Co243 O251 2.135 . S
O244 Co243 2.061 . S
O244 C247 1.235 . S
C245 O248 1.238 . S
C245 O249 1.241 . S
C246 O239 1.247 . S
C246 O240 1.261 . S
C247 O242 1.259 . S
C247 O244 1.235 . S
O248 Co238 2.021 . S
O248 C245 1.238 . S
O249 Co243 2.052 . S
O249 C245 1.241 . S
O250 Co238 2.137 . S
O250 C241 1.247 . S
O251 Co238 2.244 . S
O251 C241 1.272 . S
O251 Co243 2.135 . S
Co252 O253 2.216 . S
Co252 O254 2.091 . S
Co252 O256 2.004 1_565 S
Co252 O262 2.021 . S
Co252 O264 2.137 . S
Co252 O265 2.244 1_565 S
O253 Co252 2.216 . S
O253 C260 1.247 . S
O254 Co252 2.091 . S
O254 C260 1.261 . S
C255 O264 1.227 1_545 S
C255 O265 1.289 . S
O256 Co252 2.004 1_545 S
O256 C261 1.259 . S
Co257 O258 2.061 . S
Co257 O263 2.052 . S
Co257 O265 2.135 . S
O258 Co257 2.061 . S
O258 C261 1.235 . S
C259 O262 1.238 1_545 S
C259 O263 1.241 . S
C260 O253 1.247 . S
C260 O254 1.261 . S
C261 O256 1.259 . S
C261 O258 1.235 . S
O262 Co252 2.021 . S
O262 C259 1.238 1_565 S
O263 Co257 2.052 . S
O263 C259 1.241 . S
O264 Co252 2.137 . S
O264 C255 1.227 1_565 S
O265 Co252 2.244 1_545 S
O265 C255 1.289 . S
O265 Co257 2.135 . S
Co266 O267 2.217 . S
Co266 O268 2.094 . S
Co266 O270 2.004 . S
Co266 O276 2.046 . S
Co266 O278 2.111 1_554 S
Co266 O279 2.232 1_554 S
O267 Co266 2.217 . S
O267 C274 1.247 . S
O268 Co266 2.094 . S
O268 C274 1.261 . S
C269 O278 1.247 . S
C269 O279 1.272 . S
O270 Co266 2.004 . S
O270 C275 1.262 . S
Co271 O272 2.061 . S
Co271 O277 2.052 . S
Co271 O279 2.135 1_554 S
O272 Co271 2.061 . S
O272 C275 1.235 . S
C273 O276 1.238 . S
C273 O277 1.241 . S
C274 O267 1.247 . S
C274 O268 1.261 . S
C275 O270 1.262 . S
C275 O272 1.235 . S
O276 Co266 2.046 . S
O276 C273 1.238 . S
O277 Co271 2.052 . S
O277 C273 1.241 . S
O278 Co266 2.111 1_556 S
O278 C269 1.247 . S
O279 Co266 2.232 1_556 S
O279 C269 1.272 . S
O279 Co271 2.135 1_556 S
Co280 O281 2.215 1_556 S
Co280 O282 2.091 1_556 S
Co280 O284 2.005 . S
Co280 O290 2.024 1_556 S
Co280 O292 2.134 . S
Co280 O293 2.242 . S
O281 Co280 2.215 1_554 S
O281 C288 1.254 . S
O282 Co280 2.091 1_554 S
O282 C288 1.261 . S
C283 O292 1.247 . S
C283 O293 1.272 . S
O284 Co280 2.005 . S
O284 C289 1.258 1_556 S
Co285 O286 2.061 . S
Co285 O291 2.052 . S
Co285 O293 2.135 1_554 S
O286 Co285 2.061 . S
O286 C289 1.235 . S
C287 O290 1.238 . S
C287 O291 1.241 . S
C288 O281 1.254 . S
C288 O282 1.261 . S
C289 O284 1.258 1_554 S
C289 O286 1.235 . S
O290 Co280 2.024 1_554 S
O290 C287 1.238 . S
O291 Co285 2.052 . S
O291 C287 1.241 . S
O292 Co280 2.134 . S
O292 C283 1.247 . S
O293 Co280 2.242 . S
O293 C283 1.272 . S
O293 Co285 2.135 1_556 S
Co294 O295 2.216 . S
Co294 O296 2.091 . S
Co294 O298 2.004 . S
Co294 O304 2.021 . S
Co294 O306 2.137 . S
Co294 O307 2.244 . S
O295 Co294 2.216 . S
O295 C302 1.247 . S
O296 Co294 2.091 . S
O296 C302 1.261 . S
C297 O306 1.247 . S
C297 O307 1.272 . S
O298 Co294 2.004 . S
O298 C303 1.259 . S
Co299 O300 2.061 . S
Co299 O305 2.052 . S
Co299 O307 2.135 . S
O300 Co299 2.061 . S
O300 C303 1.235 . S
C301 O304 1.238 . S
C301 O305 1.241 . S
C302 O295 1.247 . S
C302 O296 1.261 . S
C303 O298 1.259 . S
C303 O300 1.235 . S
O304 Co294 2.021 . S
O304 C301 1.238 . S
O305 Co299 2.052 . S
O305 C301 1.241 . S
O306 Co294 2.137 . S
O306 C297 1.247 . S
O307 Co294 2.244 . S
O307 C297 1.272 . S
O307 Co299 2.135 . S
Co308 O309 2.216 . S
Co308 O310 2.091 . S
Co308 O312 2.004 . S
Co308 O318 2.021 . S
Co308 O320 2.137 . S
Co308 O321 2.244 . S
O309 Co308 2.216 . S
O309 C316 1.247 . S
O310 Co308 2.091 . S
O310 C316 1.261 . S
C311 O320 1.247 . S
C311 O321 1.272 . S
O312 Co308 2.004 . S
O312 C317 1.259 . S
Co313 O314 2.061 . S
Co313 O319 2.052 . S
Co313 O321 2.135 . S
O314 Co313 2.061 . S
O314 C317 1.235 . S
C315 O318 1.238 . S
C315 O319 1.241 . S
C316 O309 1.247 . S
C316 O310 1.261 . S
C317 O312 1.259 . S
C317 O314 1.235 . S
O318 Co308 2.021 . S
O318 C315 1.238 . S
O319 Co313 2.052 . S
O319 C315 1.241 . S
O320 Co308 2.137 . S
O320 C311 1.247 . S
O321 Co308 2.244 . S
O321 C311 1.272 . S
O321 Co313 2.135 . S
Co322 O323 2.216 . S
Co322 O324 2.091 . S
Co322 O326 2.004 . S
Co322 O332 2.021 . S
Co322 O334 2.137 . S
Co322 O335 2.244 . S
O323 Co322 2.216 . S
O323 C330 1.247 . S
O324 Co322 2.091 . S
O324 C330 1.261 . S
C325 O334 1.247 . S
C325 O335 1.272 . S
O326 Co322 2.004 . S
O326 C331 1.259 . S
Co327 O328 2.061 . S
Co327 O333 2.052 . S
Co327 O335 2.135 . S
O328 Co327 2.061 . S
O328 C331 1.235 . S
C329 O332 1.238 . S
C329 O333 1.241 . S
C330 O323 1.247 . S
C330 O324 1.261 . S
C331 O326 1.259 . S
C331 O328 1.235 . S
O332 Co322 2.021 . S
O332 C329 1.238 . S
O333 Co327 2.052 . S
O333 C329 1.241 . S
O334 Co322 2.137 . S
O334 C325 1.247 . S
O335 Co322 2.244 . S
O335 C325 1.272 . S
O335 Co327 2.135 . S
O336 Zn337 1.953 . S
O336 C352 1.225 1_455 S
Zn337 O336 1.953 . S
Zn337 O338 1.959 . S
Zn337 O344 1.919 . S
Zn337 O349 1.924 1_454 S
O338 Zn337 1.959 . S
O338 Zn339 1.946 1_545 S
O338 Zn340 1.932 1_455 S
O338 Zn341 1.930 1_444 S
Zn339 O338 1.946 1_565 S
Zn339 O342 1.933 . S
Zn339 O345 1.941 1_565 S
Zn339 O346 1.965 . S
Zn340 O338 1.932 1_655 S
Zn340 O347 1.938 . S
Zn340 O348 1.906 1_545 S
Zn340 O358 1.953 . S
Zn341 O338 1.930 1_666 S
Zn341 O343 1.932 . S
Zn341 O350 1.977 1_556 S
Zn341 O351 1.910 1_565 S
O342 Zn339 1.933 . S
O342 C353 1.250 . S
O343 Zn341 1.932 . S
O343 C353 1.294 1_656 S
O344 Zn337 1.919 . S
O344 C355 1.253 . S
O345 Zn339 1.941 1_545 S
O345 C355 1.283 . S
O346 Zn339 1.965 . S
O346 C354 1.303 1_565 S
O347 Zn340 1.938 . S
O347 C354 1.247 1_655 S
O348 Zn340 1.906 1_565 S
O348 C356 1.304 . S
O349 Zn337 1.924 1_656 S
O349 C357 1.311 . S
O350 Zn341 1.977 1_554 S
O350 C356 1.272 . S
O351 Zn341 1.910 1_545 S
O351 C357 1.231 . S
C352 O336 1.225 1_655 S
C352 O358 1.298 . S
C353 O342 1.250 . S
C353 O343 1.294 1_454 S
C354 O346 1.303 1_545 S
C354 O347 1.247 1_455 S
C355 O344 1.253 . S
C355 O345 1.283 . S
C356 O348 1.304 . S
C356 O350 1.272 . S
C357 O349 1.311 . S
C357 O351 1.231 . S
O358 Zn340 1.953 . S
O358 C352 1.298 . S
O359 Zn360 1.953 . S
O359 C375 1.225 . S
Zn360 O359 1.953 . S
Zn360 O361 1.949 . S
Zn360 O367 1.919 . S
Zn360 O372 1.924 . S
O361 Zn360 1.949 . S
O361 Zn362 1.923 . S
O361 Zn363 1.950 . S
O361 Zn364 1.945 . S
Zn362 O361 1.923 . S
Zn362 O365 1.933 . S
Zn362 O368 1.941 . S
Zn362 O369 1.965 . S
Zn363 O361 1.950 . S
Zn363 O370 1.938 . S
Zn363 O371 1.906 . S
Zn363 O381 1.953 . S
Zn364 O361 1.945 . S
Zn364 O366 1.932 . S
Zn364 O373 1.977 . S
Zn364 O374 1.910 . S
O365 Zn362 1.933 . S
O365 C376 1.226 . S
O366 Zn364 1.932 . S
O366 C376 1.307 . S
O367 Zn360 1.919 . S
O367 C378 1.253 . S
O368 Zn362 1.941 . S
O368 C378 1.283 . S
O369 Zn362 1.965 . S
O369 C377 1.303 . S
O370 Zn363 1.938 . S
O370 C377 1.247 . S
O371 Zn363 1.906 . S
O371 C379 1.304 . S
O372 Zn360 1.924 . S
O372 C380 1.311 . S
O373 Zn364 1.977 . S
O373 C379 1.272 . S
O374 Zn364 1.910 . S
O374 C380 1.231 . S
C375 O359 1.225 . S
C375 O381 1.298 . S
C376 O365 1.226 . S
C376 O366 1.307 . S
C377 O369 1.303 . S
C377 O370 1.247 . S
C378 O367 1.253 . S
C378 O368 1.283 . S
C379 O371 1.304 . S
C379 O373 1.272 . S
C380 O372 1.311 . S
C380 O374 1.231 . S
O381 Zn363 1.953 . S
O381 C375 1.298 . S
O382 Zn383 1.953 . S
O382 C398 1.225 . S
Zn383 O382 1.953 . S
Zn383 O384 1.949 1_565 S
Zn383 O390 1.919 . S
Zn383 O395 1.924 . S
O384 Zn383 1.949 1_545 S
O384 Zn385 1.923 . S
O384 Zn386 1.950 . S
O384 Zn387 1.945 . S
Zn385 O384 1.923 . S
Zn385 O388 1.933 . S
Zn385 O391 1.941 . S
Zn385 O392 1.965 . S
Zn386 O384 1.950 . S
Zn386 O393 1.938 . S
Zn386 O394 1.906 . S
Zn386 O404 1.953 1_545 S
Zn387 O384 1.945 . S
Zn387 O389 1.932 . S
Zn387 O396 1.977 . S
Zn387 O397 1.910 . S
O388 Zn385 1.933 . S
O388 C399 1.226 . S
O389 Zn387 1.932 . S
O389 C399 1.307 . S
O390 Zn383 1.919 . S
O390 C401 1.253 1_565 S
O391 Zn385 1.941 . S
O391 C401 1.283 . S
O392 Zn385 1.965 . S
O392 C400 1.303 . S
O393 Zn386 1.938 . S
O393 C400 1.247 . S
O394 Zn386 1.906 . S
O394 C402 1.304 . S
O395 Zn383 1.924 . S
O395 C403 1.311 . S
O396 Zn387 1.977 . S
O396 C402 1.272 . S
O397 Zn387 1.910 . S
O397 C403 1.231 1_545 S
C398 O382 1.225 . S
C398 O404 1.298 . S
C399 O388 1.226 . S
C399 O389 1.307 . S
C400 O392 1.303 . S
C400 O393 1.247 . S
C401 O390 1.253 1_545 S
C401 O391 1.283 . S
C402 O394 1.304 . S
C402 O396 1.272 . S
C403 O395 1.311 . S
C403 O397 1.231 1_565 S
O404 Zn386 1.953 1_565 S
O404 C398 1.298 . S
O405 Zn406 1.953 . S
O405 C421 1.225 . S
Zn406 O405 1.953 . S
Zn406 O407 1.949 . S
Zn406 O413 1.919 . S
Zn406 O418 1.924 . S
O407 Zn406 1.949 . S
O407 Zn408 1.923 . S
O407 Zn409 1.950 . S
O407 Zn410 1.945 . S
Zn408 O407 1.923 . S
Zn408 O411 1.933 . S
Zn408 O414 1.941 . S
Zn408 O415 1.965 . S
Zn409 O407 1.950 . S
Zn409 O416 1.938 . S
Zn409 O417 1.906 . S
Zn409 O427 1.953 . S
Zn410 O407 1.945 . S
Zn410 O412 1.932 . S
Zn410 O419 1.977 . S
Zn410 O420 1.910 . S
O411 Zn408 1.933 . S
O411 C422 1.226 . S
O412 Zn410 1.932 . S
O412 C422 1.307 . S
O413 Zn406 1.919 . S
O413 C424 1.253 . S
O414 Zn408 1.941 . S
O414 C424 1.283 . S
O415 Zn408 1.965 . S
O415 C423 1.303 . S
O416 Zn409 1.938 . S
O416 C423 1.247 . S
O417 Zn409 1.906 . S
O417 C425 1.304 . S
O418 Zn406 1.924 . S
O418 C426 1.311 . S
O419 Zn410 1.977 . S
O419 C425 1.272 . S
O420 Zn410 1.910 . S
O420 C426 1.231 . S
C421 O405 1.225 . S
C421 O427 1.298 . S
C422 O411 1.226 . S
C422 O412 1.307 . S
C423 O415 1.303 . S
C423 O416 1.247 . S
C424 O413 1.253 . S
C424 O414 1.283 . S
C425 O417 1.304 . S
C425 O419 1.272 . S
C426 O418 1.311 . S
C426 O420 1.231 . S
O427 Zn409 1.953 . S
O427 C421 1.298 . S
O428 Zn429 1.953 1_455 S
O428 C444 1.225 . S
Zn429 O428 1.953 1_655 S
Zn429 O430 1.949 1_655 S
Zn429 O436 1.919 1_545 S
Zn429 O441 1.924 . S
O430 Zn429 1.949 1_455 S
O430 Zn431 1.923 1_545 S
O430 Zn432 1.950 . S
O430 Zn433 1.945 1_455 S
Zn431 O430 1.923 1_565 S
Zn431 O434 1.933 . S
Zn431 O437 1.941 . S
Zn431 O438 1.965 . S
Zn432 O430 1.950 . S
Zn432 O439 1.938 . S
Zn432 O440 1.906 . S
Zn432 O450 1.953 . S
Zn433 O430 1.945 1_655 S
Zn433 O435 1.932 . S
Zn433 O442 1.977 1_655 S
Zn433 O443 1.910 . S
O434 Zn431 1.933 . S
O434 C445 1.210 1_465 S
O435 Zn433 1.932 . S
O435 C445 1.331 . S
O436 Zn429 1.919 1_565 S
O436 C447 1.270 . S
O437 Zn431 1.941 . S
O437 C447 1.244 1_455 S
O438 Zn431 1.965 . S
O438 C446 1.280 1_565 S
O439 Zn432 1.938 . S
O439 C446 1.292 . S
O440 Zn432 1.906 . S
O440 C448 1.304 . S
O441 Zn429 1.924 . S
O441 C449 1.311 . S
O442 Zn433 1.977 1_455 S
O442 C448 1.272 . S
O443 Zn433 1.910 . S
O443 C449 1.231 . S
C444 O428 1.225 . S
C444 O450 1.298 . S
C445 O434 1.210 1_645 S
C445 O435 1.331 . S
C446 O438 1.280 1_545 S
C446 O439 1.292 . S
C447 O436 1.270 . S
C447 O437 1.244 1_655 S
C448 O440 1.304 . S
C448 O442 1.272 . S
C449 O441 1.311 . S
C449 O443 1.231 . S
O450 Zn432 1.953 . S
O450 C444 1.298 . S
O451 Zn452 1.953 . S
O451 C467 1.225 . S
Zn452 O451 1.953 . S
Zn452 O453 1.949 . S
Zn452 O459 1.919 . S
Zn452 O464 1.924 . S
O453 Zn452 1.949 . S
O453 Zn454 1.923 . S
O453 Zn455 1.950 . S
O453 Zn456 1.945 . S
Zn454 O453 1.923 . S
Zn454 O457 1.933 . S
Zn454 O460 1.941 . S
Zn454 O461 1.965 . S
Zn455 O453 1.950 . S
Zn455 O462 1.938 . S
Zn455 O463 1.906 . S
Zn455 O473 1.953 . S
Zn456 O453 1.945 . S
Zn456 O458 1.932 . S
Zn456 O465 1.977 . S
Zn456 O466 1.910 . S
O457 Zn454 1.933 . S
O457 C468 1.226 . S
O458 Zn456 1.932 . S
O458 C468 1.307 . S
O459 Zn452 1.919 . S
O459 C470 1.253 . S
O460 Zn454 1.941 . S
O460 C470 1.283 . S
O461 Zn454 1.965 . S
O461 C469 1.303 . S
O462 Zn455 1.938 . S
O462 C469 1.247 . S
O463 Zn455 1.906 . S
O463 C471 1.304 . S
O464 Zn452 1.924 . S
O464 C472 1.311 . S
O465 Zn456 1.977 . S
O465 C471 1.272 . S
O466 Zn456 1.910 . S
O466 C472 1.231 . S
C467 O451 1.225 . S
C467 O473 1.298 . S
C468 O457 1.226 . S
C468 O458 1.307 . S
C469 O461 1.303 . S
C469 O462 1.247 . S
C470 O459 1.253 . S
C470 O460 1.283 . S
C471 O463 1.304 . S
C471 O465 1.272 . S
C472 O464 1.311 . S
C472 O466 1.231 . S
O473 Zn455 1.953 . S
O473 C467 1.298 . S
O474 Zn475 1.953 . S
O474 C490 1.225 . S
Zn475 O474 1.953 . S
Zn475 O476 1.949 . S
Zn475 O482 1.927 . S
Zn475 O487 1.924 . S
O476 Zn475 1.949 . S
O476 Zn477 1.923 1_545 S
O476 Zn478 1.950 . S
O476 Zn479 1.945 1_554 S
Zn477 O476 1.923 1_565 S
Zn477 O480 1.933 1_554 S
Zn477 O483 1.947 . S
Zn477 O484 1.965 . S
Zn478 O476 1.950 . S
Zn478 O485 1.938 1_545 S
Zn478 O486 1.906 . S
Zn478 O496 1.953 . S
Zn479 O476 1.945 1_556 S
Zn479 O481 1.932 . S
Zn479 O488 1.977 1_556 S
Zn479 O489 1.910 . S
O480 Zn477 1.933 1_556 S
O480 C491 1.226 . S
O481 Zn479 1.932 . S
O481 C491 1.307 1_545 S
O482 Zn475 1.927 . S
O482 C493 1.232 1_544 S
O483 Zn477 1.947 . S
O483 C493 1.281 1_554 S
O484 Zn477 1.965 . S
O484 C492 1.303 . S
O485 Zn478 1.938 1_565 S
O485 C492 1.247 . S
O486 Zn478 1.906 . S
O486 C494 1.304 . S
O487 Zn475 1.924 . S
O487 C495 1.311 . S
O488 Zn479 1.977 1_554 S
O488 C494 1.272 . S
O489 Zn479 1.910 . S
O489 C495 1.231 1_556 S
C490 O474 1.225 . S
C490 O496 1.298 . S
C491 O480 1.226 . S
C491 O481 1.307 1_565 S
C492 O484 1.303 . S
C492 O485 1.247 . S
C493 O482 1.232 1_566 S
C493 O483 1.281 1_556 S
C494 O486 1.304 . S
C494 O488 1.272 . S
C495 O487 1.311 . S
C495 O489 1.231 1_554 S
O496 Zn478 1.953 . S
O496 C490 1.298 . S
O497 Zn498 1.953 . S
O497 C513 1.225 . S
Zn498 O497 1.953 . S
Zn498 O499 1.949 . S
Zn498 O505 1.919 . S
Zn498 O510 1.924 . S
O499 Zn498 1.949 . S
O499 Zn500 1.923 . S
O499 Zn501 1.950 . S
O499 Zn502 1.945 . S
Zn500 O499 1.923 . S
Zn500 O503 1.933 . S
Zn500 O506 1.941 . S
Zn500 O507 1.965 . S
Zn501 O499 1.950 . S
Zn501 O508 1.938 . S
Zn501 O509 1.906 . S
Zn501 O519 1.953 . S
Zn502 O499 1.945 . S
Zn502 O504 1.932 . S
Zn502 O511 1.977 . S
Zn502 O512 1.910 . S
O503 Zn500 1.933 . S
O503 C514 1.226 . S
O504 Zn502 1.932 . S
O504 C514 1.307 . S
O505 Zn498 1.919 . S
O505 C516 1.253 . S
O506 Zn500 1.941 . S
O506 C516 1.283 . S
O507 Zn500 1.965 . S
O507 C515 1.303 . S
O508 Zn501 1.938 . S
O508 C515 1.247 . S
O509 Zn501 1.906 . S
O509 C517 1.304 . S
O510 Zn498 1.924 . S
O510 C518 1.311 . S
O511 Zn502 1.977 . S
O511 C517 1.272 . S
O512 Zn502 1.910 . S
O512 C518 1.231 . S
C513 O497 1.225 . S
C513 O519 1.298 . S
C514 O503 1.226 . S
C514 O504 1.307 . S
C515 O507 1.303 . S
C515 O508 1.247 . S
C516 O505 1.253 . S
C516 O506 1.283 . S
C517 O509 1.304 . S
C517 O511 1.272 . S
C518 O510 1.311 . S
C518 O512 1.231 . S
O519 Zn501 1.953 . S
O519 C513 1.298 . S
O520 Zn521 1.953 . S
O520 C536 1.225 . S
Zn521 O520 1.953 . S
Zn521 O522 1.949 1_556 S
Zn521 O528 1.919 . S
Zn521 O533 1.924 . S
O522 Zn521 1.949 1_554 S
O522 Zn523 1.923 . S
O522 Zn524 1.950 . S
O522 Zn525 1.945 . S
Zn523 O522 1.923 . S
Zn523 O526 1.933 . S
Zn523 O529 1.941 . S
Zn523 O530 1.965 . S
Zn524 O522 1.950 . S
Zn524 O531 1.938 . S
Zn524 O532 1.906 . S
Zn524 O542 1.953 1_554 S
Zn525 O522 1.945 . S
Zn525 O527 1.932 . S
Zn525 O534 1.977 . S
Zn525 O535 1.910 . S
O526 Zn523 1.933 . S
O526 C537 1.226 . S
O527 Zn525 1.932 . S
O527 C537 1.307 . S
O528 Zn521 1.919 . S
O528 C539 1.253 1_556 S
O529 Zn523 1.941 . S
O529 C539 1.283 . S
O530 Zn523 1.965 . S
O530 C538 1.303 . S
O531 Zn524 1.938 . S
O531 C538 1.247 . S
O532 Zn524 1.906 . S
O532 C540 1.304 . S
O533 Zn521 1.924 . S
O533 C541 1.311 . S
O534 Zn525 1.977 . S
O534 C540 1.272 . S
O535 Zn525 1.910 . S
O535 C541 1.231 1_554 S
C536 O520 1.225 . S
C536 O542 1.298 . S
C537 O526 1.226 . S
C537 O527 1.307 . S
C538 O530 1.303 . S
C538 O531 1.247 . S
C539 O528 1.253 1_554 S
C539 O529 1.283 . S
C540 O532 1.304 . S
C540 O534 1.272 . S
C541 O533 1.311 . S
C541 O535 1.231 1_556 S
O542 Zn524 1.953 1_556 S
O542 C536 1.298 . S
O543 Zn544 1.953 . S
O543 C559 1.225 . S
Zn544 O543 1.953 . S
Zn544 O545 1.949 . S
Zn544 O551 1.919 . S
Zn544 O556 1.924 . S
O545 Zn544 1.949 . S
O545 Zn546 1.923 . S
O545 Zn547 1.950 . S
O545 Zn548 1.945 . S
Zn546 O545 1.923 . S
Zn546 O549 1.933 . S
Zn546 O552 1.941 . S
Zn546 O553 1.965 . S
Zn547 O545 1.950 . S
Zn547 O554 1.938 . S
Zn547 O555 1.906 . S
Zn547 O565 1.953 . S
Zn548 O545 1.945 . S
Zn548 O550 1.932 . S
Zn548 O557 1.977 . S
Zn548 O558 1.910 . S
O549 Zn546 1.933 . S
O549 C560 1.226 . S
O550 Zn548 1.932 . S
O550 C560 1.307 . S
O551 Zn544 1.919 . S
O551 C562 1.253 . S
O552 Zn546 1.941 . S
O552 C562 1.283 . S
O553 Zn546 1.965 . S
O553 C561 1.303 . S
O554 Zn547 1.938 . S
O554 C561 1.247 . S
O555 Zn547 1.906 . S
O555 C563 1.304 . S
O556 Zn544 1.924 . S
O556 C564 1.311 . S
O557 Zn548 1.977 . S
O557 C563 1.272 . S
O558 Zn548 1.910 . S
O558 C564 1.231 . S
C559 O543 1.225 . S
C559 O565 1.298 . S
C560 O549 1.226 . S
C560 O550 1.307 . S
C561 O553 1.303 . S
C561 O554 1.247 . S
C562 O551 1.253 . S
C562 O552 1.283 . S
C563 O555 1.304 . S
C563 O557 1.272 . S
C564 O556 1.311 . S
C564 O558 1.231 . S
O565 Zn547 1.953 . S
O565 C559 1.298 . S
O566 Zn567 1.953 . S
O566 C582 1.225 . S
Zn567 O566 1.953 . S
Zn567 O568 1.966 . S
Zn567 O574 1.919 . S
Zn567 O579 1.924 . S
O568 Zn567 1.966 . S
O568 Zn569 1.924 . S
O568 Zn570 1.941 1_455 S
O568 Zn571 1.937 1_455 S
Zn569 O568 1.924 . S
Zn569 O572 1.933 1_455 S
Zn569 O575 1.941 . S
Zn569 O576 1.965 1_455 S
Zn570 O568 1.941 1_655 S
Zn570 O577 1.938 . S
Zn570 O578 1.906 . S
Zn570 O588 1.927 1_655 S
Zn571 O568 1.937 1_655 S
Zn571 O573 1.932 . S
Zn571 O580 1.977 . S
Zn571 O581 1.890 1_655 S
O572 Zn569 1.933 1_655 S
O572 C583 1.226 . S
O573 Zn571 1.932 . S
O573 C583 1.307 . S
O574 Zn567 1.919 . S
O574 C585 1.253 . S
O575 Zn569 1.941 . S
O575 C585 1.283 . S
O576 Zn569 1.965 1_655 S
O576 C584 1.303 . S
O577 Zn570 1.938 . S
O577 C584 1.247 . S
O578 Zn570 1.906 . S
O578 C586 1.304 . S
O579 Zn567 1.924 . S
O579 C587 1.311 . S
O580 Zn571 1.977 . S
O580 C586 1.272 . S
O581 Zn571 1.890 1_455 S
O581 C587 1.271 . S
C582 O566 1.225 . S
C582 O588 1.348 . S
C583 O572 1.226 . S
C583 O573 1.307 . S
C584 O576 1.303 . S
C584 O577 1.247 . S
C585 O574 1.253 . S
C585 O575 1.283 . S
C586 O578 1.304 . S
C586 O580 1.272 . S
C587 O579 1.311 . S
C587 O581 1.271 . S
O588 Zn570 1.927 1_455 S
O588 C582 1.348 . S
O589 Zn590 1.953 . S
O589 C605 1.225 . S
Zn590 O589 1.953 . S
Zn590 O591 1.949 . S
Zn590 O597 1.919 . S
Zn590 O602 1.924 . S
O591 Zn590 1.949 . S
O591 Zn592 1.923 . S
O591 Zn593 1.950 . S
O591 Zn594 1.945 . S
Zn592 O591 1.923 . S
Zn592 O595 1.933 . S
Zn592 O598 1.941 . S
Zn592 O599 1.965 . S
Zn593 O591 1.950 . S
Zn593 O600 1.938 . S
Zn593 O601 1.906 . S
Zn593 O611 1.953 . S
Zn594 O591 1.945 . S
Zn594 O596 1.932 . S
Zn594 O603 1.977 . S
Zn594 O604 1.910 . S
O595 Zn592 1.933 . S
O595 C606 1.226 . S
O596 Zn594 1.932 . S
O596 C606 1.307 . S
O597 Zn590 1.919 . S
O597 C608 1.253 . S
O598 Zn592 1.941 . S
O598 C608 1.283 . S
O599 Zn592 1.965 . S
O599 C607 1.303 . S
O600 Zn593 1.938 . S
O600 C607 1.247 . S
O601 Zn593 1.906 . S
O601 C609 1.304 . S
O602 Zn590 1.924 . S
O602 C610 1.311 . S
O603 Zn594 1.977 . S
O603 C609 1.272 . S
O604 Zn594 1.910 . S
O604 C610 1.231 . S
C605 O589 1.225 . S
C605 O611 1.298 . S
C606 O595 1.226 . S
C606 O596 1.307 . S
C607 O599 1.303 . S
C607 O600 1.247 . S
C608 O597 1.253 . S
C608 O598 1.283 . S
C609 O601 1.304 . S
C609 O603 1.272 . S
C610 O602 1.311 . S
C610 O604 1.231 . S
O611 Zn593 1.953 . S
O611 C605 1.298 . S
O612 Zn613 1.953 . S
O612 C628 1.225 . S
Zn613 O612 1.953 . S
Zn613 O614 1.949 . S
Zn613 O620 1.919 . S
Zn613 O625 1.924 . S
O614 Zn613 1.949 . S
O614 Zn615 1.923 . S
O614 Zn616 1.950 . S
O614 Zn617 1.945 . S
Zn615 O614 1.923 . S
Zn615 O618 1.933 . S
Zn615 O621 1.941 . S
Zn615 O622 1.965 . S
Zn616 O614 1.950 . S
Zn616 O623 1.938 . S
Zn616 O624 1.906 . S
Zn616 O634 1.953 . S
Zn617 O614 1.945 . S
Zn617 O619 1.932 . S
Zn617 O626 1.977 . S
Zn617 O627 1.910 . S
O618 Zn615 1.933 . S
O618 C629 1.226 . S
O619 Zn617 1.932 . S
O619 C629 1.307 . S
O620 Zn613 1.919 . S
O620 C631 1.253 . S
O621 Zn615 1.941 . S
O621 C631 1.283 . S
O622 Zn615 1.965 . S
O622 C630 1.303 . S
O623 Zn616 1.938 . S
O623 C630 1.247 . S
O624 Zn616 1.906 . S
O624 C632 1.304 . S
O625 Zn613 1.924 . S
O625 C633 1.311 . S
O626 Zn617 1.977 . S
O626 C632 1.272 . S
O627 Zn617 1.910 . S
O627 C633 1.231 . S
C628 O612 1.225 . S
C628 O634 1.298 . S
C629 O618 1.226 . S
C629 O619 1.307 . S
C630 O622 1.303 . S
C630 O623 1.247 . S
C631 O620 1.253 . S
C631 O621 1.283 . S
C632 O624 1.304 . S
C632 O626 1.272 . S
C633 O625 1.311 . S
C633 O627 1.231 . S
O634 Zn616 1.953 . S
O634 C628 1.298 . S
O635 Zn636 1.953 . S
O635 C651 1.225 . S
Zn636 O635 1.953 . S
Zn636 O637 1.949 . S
Zn636 O643 1.919 . S
Zn636 O648 1.924 . S
O637 Zn636 1.949 . S
O637 Zn638 1.923 . S
O637 Zn639 1.950 . S
O637 Zn640 1.945 . S
Zn638 O637 1.923 . S
Zn638 O641 1.933 . S
Zn638 O644 1.941 . S
Zn638 O645 1.965 . S
Zn639 O637 1.950 . S
Zn639 O646 1.938 . S
Zn639 O647 1.906 . S
Zn639 O657 1.953 . S
Zn640 O637 1.945 . S
Zn640 O642 1.932 . S
Zn640 O649 1.977 . S
Zn640 O650 1.910 . S
O641 Zn638 1.933 . S
O641 C652 1.226 . S
O642 Zn640 1.932 . S
O642 C652 1.307 . S
O643 Zn636 1.919 . S
O643 C654 1.253 . S
O644 Zn638 1.941 . S
O644 C654 1.283 . S
O645 Zn638 1.965 . S
O645 C653 1.303 . S
O646 Zn639 1.938 . S
O646 C653 1.247 . S
O647 Zn639 1.906 . S
O647 C655 1.304 . S
O648 Zn636 1.924 . S
O648 C656 1.311 . S
O649 Zn640 1.977 . S
O649 C655 1.272 . S
O650 Zn640 1.910 . S
O650 C656 1.231 . S
C651 O635 1.225 . S
C651 O657 1.298 . S
C652 O641 1.226 . S
C652 O642 1.307 . S
C653 O645 1.303 . S
C653 O646 1.247 . S
C654 O643 1.253 . S
C654 O644 1.283 . S
C655 O647 1.304 . S
C655 O649 1.272 . S
C656 O648 1.311 . S
C656 O650 1.231 . S
O657 Zn639 1.953 . S
O657 C651 1.298 . S
O658 Zn659 1.953 . S
O658 C674 1.225 . S
Zn659 O658 1.953 . S
Zn659 O660 1.949 . S
Zn659 O666 1.919 . S
Zn659 O671 1.924 . S
O660 Zn659 1.949 . S
O660 Zn661 1.923 . S
O660 Zn662 1.950 . S
O660 Zn663 1.945 . S
Zn661 O660 1.923 . S
Zn661 O664 1.933 . S
Zn661 O667 1.941 . S
Zn661 O668 1.965 . S
Zn662 O660 1.950 . S
Zn662 O669 1.938 . S
Zn662 O670 1.906 . S
Zn662 O680 1.953 . S
Zn663 O660 1.945 . S
Zn663 O665 1.932 . S
Zn663 O672 1.977 . S
Zn663 O673 1.910 . S
O664 Zn661 1.933 . S
O664 C675 1.226 . S
O665 Zn663 1.932 . S
O665 C675 1.307 . S
O666 Zn659 1.919 . S
O666 C677 1.253 . S
O667 Zn661 1.941 . S
O667 C677 1.283 . S
O668 Zn661 1.965 . S
O668 C676 1.303 . S
O669 Zn662 1.938 . S
O669 C676 1.247 . S
O670 Zn662 1.906 . S
O670 C678 1.304 . S
O671 Zn659 1.924 . S
O671 C679 1.311 . S
O672 Zn663 1.977 . S
O672 C678 1.272 . S
O673 Zn663 1.910 . S
O673 C679 1.231 . S
C674 O658 1.225 . S
C674 O680 1.298 . S
C675 O664 1.226 . S
C675 O665 1.307 . S
C676 O668 1.303 . S
C676 O669 1.247 . S
C677 O666 1.253 . S
C677 O667 1.283 . S
C678 O670 1.304 . S
C678 O672 1.272 . S
C679 O671 1.311 . S
C679 O673 1.231 . S
O680 Zn662 1.953 . S
O680 C674 1.298 . S
O681 Zn682 1.950 1_455 S
O681 C697 1.225 . S
Zn682 O681 1.950 1_655 S
Zn682 O683 1.944 1_655 S
Zn682 O689 1.932 . S
Zn682 O694 1.918 1_654 S
O683 Zn682 1.944 1_455 S
O683 Zn684 1.923 1_455 S
O683 Zn685 1.950 . S
O683 Zn686 1.945 1_554 S
Zn684 O683 1.923 1_655 S
Zn684 O687 1.933 . S
Zn684 O690 1.941 . S
Zn684 O691 1.965 . S
Zn685 O683 1.950 . S
Zn685 O692 1.938 . S
Zn685 O693 1.906 . S
Zn685 O703 1.953 . S
Zn686 O683 1.945 1_556 S
Zn686 O688 1.932 . S
Zn686 O695 1.977 1_556 S
Zn686 O696 1.910 . S
O687 Zn684 1.933 . S
O687 C698 1.231 . S
O688 Zn686 1.932 . S
O688 C698 1.304 1_456 S
O689 Zn682 1.932 . S
O689 C700 1.253 . S
O690 Zn684 1.941 . S
O690 C700 1.283 . S
O691 Zn684 1.965 . S
O691 C699 1.303 . S
O692 Zn685 1.938 . S
O692 C699 1.247 1_455 S
O693 Zn685 1.906 . S
O693 C701 1.304 . S
O694 Zn682 1.918 1_456 S
O694 C702 1.311 . S
O695 Zn686 1.977 1_554 S
O695 C701 1.272 . S
O696 Zn686 1.910 . S
O696 C702 1.231 . S
C697 O681 1.225 . S
C697 O703 1.298 . S
C698 O687 1.231 . S
C698 O688 1.304 1_654 S
C699 O691 1.303 . S
C699 O692 1.247 1_655 S
C700 O689 1.253 . S
C700 O690 1.283 . S
C701 O693 1.304 . S
C701 O695 1.272 . S
C702 O694 1.311 . S
C702 O696 1.231 . S
O703 Zn685 1.953 . S
O703 C697 1.298 . S
C704 C705 1.349 1_655 S
C704 C706 1.327 . S
C704 H729 0.950 . S
C705 C704 1.349 1_455 S
C705 C721 1.349 . S
C706 C704 1.327 . S
C706 C725 1.431 1_655 S
C706 H730 0.950 . S
C707 C724 1.574 . S
C707 C726 1.368 1_455 S
C707 H731 0.949 . S
H708 C712 0.949 . S
C709 C710 1.349 . S
C709 C711 1.327 . S
C709 H732 0.950 1_655 S
C710 C709 1.349 . S
C710 C722 1.349 . S
C711 C709 1.327 . S
C711 C727 1.429 . S
C711 H733 0.950 1_655 S
C712 H708 0.949 . S
C712 C720 1.574 . S
C712 C728 1.368 . S
H713 C721 0.950 . S
H714 C719 0.950 . S
H715 C720 0.949 . S
H716 C722 0.950 . S
H717 C723 0.950 . S
H718 C724 0.949 . S
C719 H714 0.950 . S
C719 C721 1.327 . S
C719 C725 1.426 . S
C720 C712 1.574 . S
C720 H715 0.949 . S
C720 C726 1.368 . S
C721 C705 1.349 . S
C721 H713 0.950 . S
C721 C719 1.327 . S
C722 C710 1.349 . S
C722 H716 0.950 . S
C722 C723 1.327 . S
C723 H717 0.950 . S
C723 C722 1.327 . S
C723 C727 1.429 . S
C724 C707 1.574 . S
C724 H718 0.949 . S
C724 C728 1.368 1_455 S
C725 C706 1.431 1_455 S
C725 C719 1.426 . S
C725 C726 1.523 1_455 S
C726 C707 1.368 1_655 S
C726 C720 1.368 . S
C726 C725 1.523 1_655 S
C727 C711 1.429 . S
C727 C723 1.429 . S
C727 C728 1.523 . S
C728 C712 1.368 . S
C728 C724 1.368 1_655 S
C728 C727 1.523 . S
H729 C704 0.950 . S
H730 C706 0.950 . S
H731 C707 0.949 . S
H732 C709 0.950 1_455 S
H733 C711 0.950 1_455 S
C734 C735 1.349 . S
C734 C736 1.327 . S
C734 H759 0.950 . S
C735 C734 1.349 . S
C735 C751 1.349 . S
C736 C734 1.327 . S
C736 C755 1.429 . S
C736 H760 0.950 . S
C737 C754 1.574 . S
C737 C756 1.368 . S
C737 H761 0.949 . S
H738 C742 0.949 . S
C739 C740 1.349 . S
C739 C741 1.327 . S
C739 H762 0.950 . S
C740 C739 1.349 . S
C740 C752 1.349 . S
C741 C739 1.327 . S
C741 C757 1.429 . S
C741 H763 0.950 . S
C742 H738 0.949 . S
C742 C750 1.574 . S
C742 C758 1.368 . S
H743 C751 0.950 . S
H744 C749 0.950 . S
H745 C750 0.949 . S
H746 C752 0.950 . S
H747 C753 0.950 . S
H748 C754 0.949 . S
C749 H744 0.950 . S
C749 C751 1.327 . S
C749 C755 1.429 . S
C750 C742 1.574 . S
C750 H745 0.949 . S
C750 C756 1.368 . S
C751 C735 1.349 . S
C751 H743 0.950 . S
C751 C749 1.327 . S
C752 C740 1.349 . S
C752 H746 0.950 . S
C752 C753 1.327 . S
C753 H747 0.950 . S
C753 C752 1.327 . S
C753 C757 1.429 . S
C754 C737 1.574 . S
C754 H748 0.949 . S
C754 C758 1.368 . S
C755 C736 1.429 . S
C755 C749 1.429 . S
C755 C756 1.523 . S
C756 C737 1.368 . S
C756 C750 1.368 . S
C756 C755 1.523 . S
C757 C741 1.429 . S
C757 C753 1.429 . S
C757 C758 1.523 . S
C758 C742 1.368 . S
C758 C754 1.368 . S
C758 C757 1.523 . S
H759 C734 0.950 . S
H760 C736 0.950 . S
H761 C737 0.949 . S
H762 C739 0.950 . S
H763 C741 0.950 . S
C764 C765 1.349 . S
C764 C766 1.327 . S
C764 H789 0.950 . S
C765 C764 1.349 . S
C765 C781 1.349 . S
C766 C764 1.327 . S
C766 C785 1.429 . S
C766 H790 0.950 . S
C767 C784 1.574 . S
C767 C786 1.368 . S
C767 H791 0.949 . S
H768 C772 0.949 . S
C769 C770 1.349 . S
C769 C771 1.327 . S
C769 H792 0.950 . S
C770 C769 1.349 . S
C770 C782 1.349 . S
C771 C769 1.327 . S
C771 C787 1.429 . S
C771 H793 0.950 . S
C772 H768 0.949 . S
C772 C780 1.574 . S
C772 C788 1.368 . S
H773 C781 0.950 . S
H774 C779 0.950 . S
H775 C780 0.949 . S
H776 C782 0.950 . S
H777 C783 0.950 . S
H778 C784 0.949 . S
C779 H774 0.950 . S
C779 C781 1.327 . S
C779 C785 1.429 . S
C780 C772 1.574 . S
C780 H775 0.949 . S
C780 C786 1.368 . S
C781 C765 1.349 . S
C781 H773 0.950 . S
C781 C779 1.327 . S
C782 C770 1.349 . S
C782 H776 0.950 . S
C782 C783 1.327 . S
C783 H777 0.950 . S
C783 C782 1.327 . S
C783 C787 1.429 . S
C784 C767 1.574 . S
C784 H778 0.949 . S
C784 C788 1.368 . S
C785 C766 1.429 . S
C785 C779 1.429 . S
C785 C786 1.523 . S
C786 C767 1.368 . S
C786 C780 1.368 . S
C786 C785 1.523 . S
C787 C771 1.429 . S
C787 C783 1.429 . S
C787 C788 1.523 . S
C788 C772 1.368 . S
C788 C784 1.368 . S
C788 C787 1.523 . S
H789 C764 0.950 . S
H790 C766 0.950 . S
H791 C767 0.949 . S
H792 C769 0.950 . S
H793 C771 0.950 . S
C794 C795 1.349 . S
C794 C796 1.327 . S
C794 H819 0.950 . S
C795 C794 1.349 . S
C795 C811 1.349 . S
C796 C794 1.327 . S
C796 C815 1.429 . S
C796 H820 0.950 . S
C797 C814 1.574 . S
C797 C816 1.368 . S
C797 H821 0.949 . S
H798 C802 0.949 . S
C799 C800 1.349 . S
C799 C801 1.327 . S
C799 H822 0.950 . S
C800 C799 1.349 . S
C800 C812 1.349 . S
C801 C799 1.327 . S
C801 C817 1.429 . S
C801 H823 0.950 . S
C802 H798 0.949 . S
C802 C810 1.574 . S
C802 C818 1.368 . S
H803 C811 0.950 . S
H804 C809 0.950 . S
H805 C810 0.949 . S
H806 C812 0.950 . S
H807 C813 0.950 . S
H808 C814 0.949 . S
C809 H804 0.950 . S
C809 C811 1.327 . S
C809 C815 1.429 . S
C810 C802 1.574 . S
C810 H805 0.949 . S
C810 C816 1.368 . S
C811 C795 1.349 . S
C811 H803 0.950 . S
C811 C809 1.327 . S
C812 C800 1.349 . S
C812 H806 0.950 . S
C812 C813 1.327 . S
C813 H807 0.950 . S
C813 C812 1.327 . S
C813 C817 1.429 . S
C814 C797 1.574 . S
C814 H808 0.949 . S
C814 C818 1.368 . S
C815 C796 1.429 . S
C815 C809 1.429 . S
C815 C816 1.523 . S
C816 C797 1.368 . S
C816 C810 1.368 . S
C816 C815 1.523 . S
C817 C801 1.429 . S
C817 C813 1.429 . S
C817 C818 1.523 . S
C818 C802 1.368 . S
C818 C814 1.368 . S
C818 C817 1.523 . S
H819 C794 0.950 . S
H820 C796 0.950 . S
H821 C797 0.949 . S
H822 C799 0.950 . S
H823 C801 0.950 . S
C824 C825 1.349 1_655 S
C824 C826 1.327 . S
C824 H849 0.950 . S
C825 C824 1.349 1_455 S
C825 C841 1.349 . S
C826 C824 1.327 . S
C826 C845 1.429 1_655 S
C826 H850 0.950 . S
C827 C844 1.574 . S
C827 C846 1.399 . S
C827 H851 0.949 . S
H828 C832 0.949 . S
C829 C830 1.349 1_455 S
C829 C831 1.327 . S
C829 H852 0.950 . S
C830 C829 1.349 1_655 S
C830 C842 1.349 . S
C831 C829 1.327 . S
C831 C847 1.429 1_455 S
C831 H853 0.950 . S
C832 H828 0.949 . S
C832 C840 1.574 . S
C832 C848 1.368 . S
H833 C841 0.950 . S
H834 C839 0.950 . S
H835 C840 0.949 . S
H836 C842 0.950 . S
H837 C843 0.950 . S
H838 C844 0.949 . S
C839 H834 0.950 . S
C839 C841 1.327 . S
C839 C845 1.429 . S
C840 C832 1.574 . S
C840 H835 0.949 . S
C840 C846 1.336 1_655 S
C841 C825 1.349 . S
C841 H833 0.950 . S
C841 C839 1.327 . S
C842 C830 1.349 . S
C842 H836 0.950 . S
C842 C843 1.327 . S
C843 H837 0.950 . S
C843 C842 1.327 . S
C843 C847 1.429 . S
C844 C827 1.574 . S
C844 H838 0.949 . S
C844 C848 1.368 1_455 S
C845 C826 1.429 1_455 S
C845 C839 1.429 . S
C845 C846 1.527 . S
C846 C827 1.399 . S
C846 C840 1.336 1_455 S
C846 C845 1.527 . S
C847 C831 1.429 1_655 S
C847 C843 1.429 . S
C847 C848 1.523 . S
C848 C832 1.368 . S
C848 C844 1.368 1_655 S
C848 C847 1.523 . S
H849 C824 0.950 . S
H850 C826 0.950 . S
H851 C827 0.949 . S
H852 C829 0.950 . S
H853 C831 0.950 . S
C854 C855 1.349 . S
C854 C856 1.327 . S
C854 H879 0.950 . S
C855 C854 1.349 . S
C855 C871 1.349 . S
C856 C854 1.327 . S
C856 C875 1.429 . S
C856 H880 0.950 . S
C857 C874 1.574 . S
C857 C876 1.368 . S
C857 H881 0.949 . S
H858 C862 0.949 . S
C859 C860 1.349 . S
C859 C861 1.327 . S
C859 H882 0.950 . S
C860 C859 1.349 . S
C860 C872 1.349 . S
C861 C859 1.327 . S
C861 C877 1.429 . S
C861 H883 0.950 . S
C862 H858 0.949 . S
C862 C870 1.574 . S
C862 C878 1.368 . S
H863 C871 0.950 . S
H864 C869 0.950 . S
H865 C870 0.949 . S
H866 C872 0.950 . S
H867 C873 0.950 . S
H868 C874 0.949 . S
C869 H864 0.950 . S
C869 C871 1.327 . S
C869 C875 1.429 . S
C870 C862 1.574 . S
C870 H865 0.949 . S
C870 C876 1.368 . S
C871 C855 1.349 . S
C871 H863 0.950 . S
C871 C869 1.327 . S
C872 C860 1.349 . S
C872 H866 0.950 . S
C872 C873 1.327 . S
C873 H867 0.950 . S
C873 C872 1.327 . S
C873 C877 1.429 . S
C874 C857 1.574 . S
C874 H868 0.949 . S
C874 C878 1.368 . S
C875 C856 1.429 . S
C875 C869 1.429 . S
C875 C876 1.523 . S
C876 C857 1.368 . S
C876 C870 1.368 . S
C876 C875 1.523 . S
C877 C861 1.429 . S
C877 C873 1.429 . S
C877 C878 1.523 . S
C878 C862 1.368 . S
C878 C874 1.368 . S
C878 C877 1.523 . S
H879 C854 0.950 . S
H880 C856 0.950 . S
H881 C857 0.949 . S
H882 C859 0.950 . S
H883 C861 0.950 . S
C884 C885 1.349 . S
C884 C886 1.327 . S
C884 H909 0.950 . S
C885 C884 1.349 . S
C885 C901 1.349 . S
C886 C884 1.327 . S
C886 C905 1.429 . S
C886 H910 0.950 . S
C887 C904 1.574 . S
C887 C906 1.368 . S
C887 H911 0.949 . S
H888 C892 0.949 . S
C889 C890 1.349 . S
C889 C891 1.327 1_554 S
C889 H912 0.950 . S
C890 C889 1.349 . S
C890 C902 1.349 1_554 S
C891 C889 1.327 1_556 S
C891 C907 1.429 . S
C891 H913 0.950 1_556 S
C892 H888 0.949 . S
C892 C900 1.574 . S
C892 C908 1.368 . S
H893 C901 0.950 . S
H894 C899 0.950 . S
H895 C900 0.949 . S
H896 C902 0.950 . S
H897 C903 0.950 . S
H898 C904 0.949 . S
C899 H894 0.950 . S
C899 C901 1.327 . S
C899 C905 1.429 . S
C900 C892 1.574 . S
C900 H895 0.949 . S
C900 C906 1.368 . S
C901 C885 1.349 . S
C901 H893 0.950 . S
C901 C899 1.327 . S
C902 C890 1.349 1_556 S
C902 H896 0.950 . S
C902 C903 1.327 . S
C903 H897 0.950 . S
C903 C902 1.327 . S
C903 C907 1.429 . S
C904 C887 1.574 . S
C904 H898 0.949 . S
C904 C908 1.368 . S
C905 C886 1.429 . S
C905 C899 1.429 . S
C905 C906 1.523 . S
C906 C887 1.368 . S
C906 C900 1.368 . S
C906 C905 1.523 . S
C907 C891 1.429 . S
C907 C903 1.429 . S
C907 C908 1.523 . S
C908 C892 1.368 . S
C908 C904 1.368 . S
C908 C907 1.523 . S
H909 C884 0.950 . S
H910 C886 0.950 . S
H911 C887 0.949 . S
H912 C889 0.950 . S
H913 C891 0.950 1_554 S
C914 C915 1.349 . S
C914 C916 1.327 . S
C914 H939 0.950 . S
C915 C914 1.349 . S
C915 C931 1.349 . S
C916 C914 1.327 . S
C916 C935 1.429 . S
C916 H940 0.950 . S
C917 C934 1.574 . S
C917 C936 1.368 . S
C917 H941 0.949 . S
H918 C922 0.949 . S
C919 C920 1.349 . S
C919 C921 1.327 . S
C919 H942 0.950 . S
C920 C919 1.349 . S
C920 C932 1.349 . S
C921 C919 1.327 . S
C921 C937 1.429 . S
C921 H943 0.950 . S
C922 H918 0.949 . S
C922 C930 1.574 . S
C922 C938 1.368 . S
H923 C931 0.950 . S
H924 C929 0.950 . S
H925 C930 0.949 . S
H926 C932 0.950 . S
H927 C933 0.950 . S
H928 C934 0.949 . S
C929 H924 0.950 . S
C929 C931 1.327 . S
C929 C935 1.429 . S
C930 C922 1.574 . S
C930 H925 0.949 . S
C930 C936 1.368 . S
C931 C915 1.349 . S
C931 H923 0.950 . S
C931 C929 1.327 . S
C932 C920 1.349 . S
C932 H926 0.950 . S
C932 C933 1.327 . S
C933 H927 0.950 . S
C933 C932 1.327 . S
C933 C937 1.429 . S
C934 C917 1.574 . S
C934 H928 0.949 . S
C934 C938 1.368 . S
C935 C916 1.429 . S
C935 C929 1.429 . S
C935 C936 1.523 . S
C936 C917 1.368 . S
C936 C930 1.368 . S
C936 C935 1.523 . S
C937 C921 1.429 . S
C937 C933 1.429 . S
C937 C938 1.523 . S
C938 C922 1.368 . S
C938 C934 1.368 . S
C938 C937 1.523 . S
H939 C914 0.950 . S
H940 C916 0.950 . S
H941 C917 0.949 . S
H942 C919 0.950 . S
H943 C921 0.950 . S
C944 C945 1.349 . S
C944 C946 1.327 . S
C944 H969 0.950 . S
C945 C944 1.349 . S
C945 C961 1.349 . S
C946 C944 1.327 . S
C946 C965 1.429 . S
C946 H970 0.950 . S
C947 C964 1.574 . S
C947 C966 1.368 1_565 S
C947 H971 0.949 . S
H948 C952 0.949 . S
C949 C950 1.349 1_565 S
C949 C951 1.327 . S
C949 H972 0.950 . S
C950 C949 1.349 1_545 S
C950 C962 1.349 . S
C951 C949 1.327 . S
C951 C967 1.429 1_565 S
C951 H973 0.950 . S
C952 H948 0.949 . S
C952 C960 1.574 . S
C952 C968 1.368 . S
H953 C961 0.950 1_565 S
H954 C959 0.950 1_565 S
H955 C960 0.949 . S
H956 C962 0.950 . S
H957 C963 0.950 . S
H958 C964 0.949 . S
C959 H954 0.950 1_545 S
C959 C961 1.327 . S
C959 C965 1.429 . S
C960 C952 1.574 . S
C960 H955 0.949 . S
C960 C966 1.368 . S
C961 C945 1.349 . S
C961 H953 0.950 1_545 S
C961 C959 1.327 . S
C962 C950 1.349 . S
C962 H956 0.950 . S
C962 C963 1.327 . S
C963 H957 0.950 . S
C963 C962 1.327 . S
C963 C967 1.429 . S
C964 C947 1.574 . S
C964 H958 0.949 . S
C964 C968 1.368 1_565 S
C965 C946 1.429 . S
C965 C959 1.429 . S
C965 C966 1.523 . S
C966 C947 1.368 1_545 S
C966 C960 1.368 . S
C966 C965 1.523 . S
C967 C951 1.429 1_545 S
C967 C963 1.429 . S
C967 C968 1.523 . S
C968 C952 1.368 . S
C968 C964 1.368 1_545 S
C968 C967 1.523 . S
H969 C944 0.950 . S
H970 C946 0.950 . S
H971 C947 0.949 . S
H972 C949 0.950 . S
H973 C951 0.950 . S
C974 C975 1.349 . S
C974 C976 1.327 . S
C974 H999 0.950 . S
C975 C974 1.349 . S
C975 C991 1.349 . S
C976 C974 1.327 . S
C976 C995 1.429 . S
C976 H1000 0.950 . S
C977 C994 1.574 . S
C977 C996 1.368 . S
C977 H1001 0.949 . S
H978 C982 0.949 . S
C979 C980 1.349 . S
C979 C981 1.327 . S
C979 H1002 0.950 . S
C980 C979 1.349 . S
C980 C992 1.349 . S
C981 C979 1.327 . S
C981 C997 1.429 . S
C981 H1003 0.950 . S
C982 H978 0.949 . S
C982 C990 1.574 . S
C982 C998 1.368 . S
H983 C991 0.950 . S
H984 C989 0.950 . S
H985 C990 0.949 . S
H986 C992 0.950 . S
H987 C993 0.950 . S
H988 C994 0.949 . S
C989 H984 0.950 . S
C989 C991 1.327 . S
C989 C995 1.429 . S
C990 C982 1.574 . S
C990 H985 0.949 . S
C990 C996 1.368 . S
C991 C975 1.349 . S
C991 H983 0.950 . S
C991 C989 1.327 . S
C992 C980 1.349 . S
C992 H986 0.950 . S
C992 C993 1.327 . S
C993 H987 0.950 . S
C993 C992 1.327 . S
C993 C997 1.429 . S
C994 C977 1.574 . S
C994 H988 0.949 . S
C994 C998 1.368 . S
C995 C976 1.429 . S
C995 C989 1.429 . S
C995 C996 1.523 . S
C996 C977 1.368 . S
C996 C990 1.368 . S
C996 C995 1.523 . S
C997 C981 1.429 . S
C997 C993 1.429 . S
C997 C998 1.523 . S
C998 C982 1.368 . S
C998 C994 1.368 . S
C998 C997 1.523 . S
H999 C974 0.950 . S
H1000 C976 0.950 . S
H1001 C977 0.949 . S
H1002 C979 0.950 . S
H1003 C981 0.950 . S
C1004 C1005 1.349 . S
C1004 C1006 1.327 . S
C1004 H1029 0.950 . S
C1005 C1004 1.349 . S
C1005 C1021 1.349 1_545 S
C1006 C1004 1.327 . S
C1006 C1025 1.429 . S
C1006 H1030 0.950 . S
C1007 C1024 1.574 . S
C1007 C1026 1.368 1_565 S
C1007 H1031 0.949 . S
H1008 C1012 0.949 . S
C1009 C1010 1.349 . S
C1009 C1011 1.330 . S
C1009 H1032 0.950 1_545 S
C1010 C1009 1.349 . S
C1010 C1022 1.349 . S
C1011 C1009 1.330 . S
C1011 C1027 1.444 . S
C1011 H1033 0.932 1_545 S
C1012 H1008 0.949 . S
C1012 C1020 1.574 . S
C1012 C1028 1.368 . S
H1013 C1021 0.950 . S
H1014 C1019 0.950 . S
H1015 C1020 0.949 . S
H1016 C1022 0.950 . S
H1017 C1023 0.950 . S
H1018 C1024 0.949 . S
C1019 H1014 0.950 . S
C1019 C1021 1.327 . S
C1019 C1025 1.429 1_565 S
C1020 C1012 1.574 . S
C1020 H1015 0.949 . S
C1020 C1026 1.368 . S
C1021 C1005 1.349 1_565 S
C1021 H1013 0.950 . S
C1021 C1019 1.327 . S
C1022 C1010 1.349 . S
C1022 H1016 0.950 . S
C1022 C1023 1.327 . S
C1023 H1017 0.950 . S
C1023 C1022 1.327 . S
C1023 C1027 1.429 . S
C1024 C1007 1.574 . S
C1024 H1018 0.949 . S
C1024 C1028 1.368 1_565 S
C1025 C1006 1.429 . S
C1025 C1019 1.429 1_545 S
C1025 C1026 1.523 . S
C1026 C1007 1.368 1_545 S
C1026 C1020 1.368 . S
C1026 C1025 1.523 . S
C1027 C1011 1.444 . S
C1027 C1023 1.429 . S
C1027 C1028 1.523 . S
C1028 C1012 1.368 . S
C1028 C1024 1.368 1_545 S
C1028 C1027 1.523 . S
H1029 C1004 0.950 . S
H1030 C1006 0.950 . S
H1031 C1007 0.949 . S
H1032 C1009 0.950 1_565 S
H1033 C1011 0.932 1_565 S
C1034 C1035 1.349 . S
C1034 C1036 1.327 . S
C1034 H1059 0.950 . S
C1035 C1034 1.349 . S
C1035 C1051 1.349 . S
C1036 C1034 1.327 . S
C1036 C1055 1.429 . S
C1036 H1060 0.950 . S
C1037 C1054 1.574 . S
C1037 C1056 1.368 . S
C1037 H1061 0.949 . S
H1038 C1042 0.949 . S
C1039 C1040 1.349 . S
C1039 C1041 1.327 . S
C1039 H1062 0.950 . S
C1040 C1039 1.349 . S
C1040 C1052 1.349 . S
C1041 C1039 1.327 . S
C1041 C1057 1.429 . S
C1041 H1063 0.950 . S
C1042 H1038 0.949 . S
C1042 C1050 1.574 . S
C1042 C1058 1.368 . S
H1043 C1051 0.950 . S
H1044 C1049 0.950 . S
H1045 C1050 0.949 . S
H1046 C1052 0.950 . S
H1047 C1053 0.950 . S
H1048 C1054 0.949 . S
C1049 H1044 0.950 . S
C1049 C1051 1.327 . S
C1049 C1055 1.429 . S
C1050 C1042 1.574 . S
C1050 H1045 0.949 . S
C1050 C1056 1.368 . S
C1051 C1035 1.349 . S
C1051 H1043 0.950 . S
C1051 C1049 1.327 . S
C1052 C1040 1.349 . S
C1052 H1046 0.950 . S
C1052 C1053 1.327 . S
C1053 H1047 0.950 . S
C1053 C1052 1.327 . S
C1053 C1057 1.429 . S
C1054 C1037 1.574 . S
C1054 H1048 0.949 . S
C1054 C1058 1.368 . S
C1055 C1036 1.429 . S
C1055 C1049 1.429 . S
C1055 C1056 1.523 . S
C1056 C1037 1.368 . S
C1056 C1050 1.368 . S
C1056 C1055 1.523 . S
C1057 C1041 1.429 . S
C1057 C1053 1.429 . S
C1057 C1058 1.523 . S
C1058 C1042 1.368 . S
C1058 C1054 1.368 . S
C1058 C1057 1.523 . S
H1059 C1034 0.950 . S
H1060 C1036 0.950 . S
H1061 C1037 0.949 . S
H1062 C1039 0.950 . S
H1063 C1041 0.950 . S
C1064 C1065 1.349 . S
C1064 C1066 1.327 . S
C1064 H1089 0.950 . S
C1065 C1064 1.349 . S
C1065 C1081 1.349 . S
C1066 C1064 1.327 . S
C1066 C1085 1.429 . S
C1066 H1090 0.950 . S
C1067 C1084 1.574 . S
C1067 C1086 1.368 . S
C1067 H1091 0.949 1_545 S
H1068 C1072 0.949 . S
C1069 C1070 1.349 . S
C1069 C1071 1.327 . S
C1069 H1092 0.950 . S
C1070 C1069 1.349 . S
C1070 C1082 1.349 . S
C1071 C1069 1.327 . S
C1071 C1087 1.429 . S
C1071 H1093 0.950 . S
C1072 H1068 0.949 . S
C1072 C1080 1.574 . S
C1072 C1088 1.368 . S
H1073 C1081 0.950 1_565 S
H1074 C1079 0.950 1_565 S
H1075 C1080 0.949 . S
H1076 C1082 0.950 . S
H1077 C1083 0.950 . S
H1078 C1084 0.948 . S
C1079 H1074 0.950 1_545 S
C1079 C1081 1.327 . S
C1079 C1085 1.429 . S
C1080 C1072 1.574 . S
C1080 H1075 0.949 . S
C1080 C1086 1.368 . S
C1081 C1065 1.349 . S
C1081 H1073 0.950 1_545 S
C1081 C1079 1.327 . S
C1082 C1070 1.349 . S
C1082 H1076 0.950 . S
C1082 C1083 1.327 . S
C1083 H1077 0.950 . S
C1083 C1082 1.327 . S
C1083 C1087 1.429 . S
C1084 C1067 1.574 . S
C1084 H1078 0.948 . S
C1084 C1088 1.368 . S
C1085 C1066 1.429 . S
C1085 C1079 1.429 . S
C1085 C1086 1.523 . S
C1086 C1067 1.368 . S
C1086 C1080 1.368 . S
C1086 C1085 1.523 . S
C1087 C1071 1.429 . S
C1087 C1083 1.429 . S
C1087 C1088 1.523 . S
C1088 C1072 1.368 . S
C1088 C1084 1.368 . S
C1088 C1087 1.523 . S
H1089 C1064 0.950 . S
H1090 C1066 0.950 . S
H1091 C1067 0.949 1_565 S
H1092 C1069 0.950 . S
H1093 C1071 0.950 . S
C1094 C1095 1.349 . S
C1094 C1096 1.327 . S
C1094 H1119 0.950 . S
C1095 C1094 1.349 . S
C1095 C1111 1.349 . S
C1096 C1094 1.327 . S
C1096 C1115 1.429 . S
C1096 H1120 0.950 . S
C1097 C1114 1.574 . S
C1097 C1116 1.368 . S
C1097 H1121 0.949 . S
H1098 C1102 0.949 . S
C1099 C1100 1.349 . S
C1099 C1101 1.327 . S
C1099 H1122 0.950 . S
C1100 C1099 1.349 . S
C1100 C1112 1.349 . S
C1101 C1099 1.327 . S
C1101 C1117 1.429 . S
C1101 H1123 0.950 . S
C1102 H1098 0.949 . S
C1102 C1110 1.574 . S
C1102 C1118 1.368 . S
H1103 C1111 0.950 . S
H1104 C1109 0.950 . S
H1105 C1110 0.949 . S
H1106 C1112 0.950 . S
H1107 C1113 0.950 . S
H1108 C1114 0.949 . S
C1109 H1104 0.950 . S
C1109 C1111 1.327 . S
C1109 C1115 1.429 . S
C1110 C1102 1.574 . S
C1110 H1105 0.949 . S
C1110 C1116 1.368 . S
C1111 C1095 1.349 . S
C1111 H1103 0.950 . S
C1111 C1109 1.327 . S
C1112 C1100 1.349 . S
C1112 H1106 0.950 . S
C1112 C1113 1.327 . S
C1113 H1107 0.950 . S
C1113 C1112 1.327 . S
C1113 C1117 1.429 . S
C1114 C1097 1.574 . S
C1114 H1108 0.949 . S
C1114 C1118 1.368 . S
C1115 C1096 1.429 . S
C1115 C1109 1.429 . S
C1115 C1116 1.523 . S
C1116 C1097 1.368 . S
C1116 C1110 1.368 . S
C1116 C1115 1.523 . S
C1117 C1101 1.429 . S
C1117 C1113 1.429 . S
C1117 C1118 1.523 . S
C1118 C1102 1.368 . S
C1118 C1114 1.368 . S
C1118 C1117 1.523 . S
H1119 C1094 0.950 . S
H1120 C1096 0.950 . S
H1121 C1097 0.949 . S
H1122 C1099 0.950 . S
H1123 C1101 0.950 . S
C1124 C1125 1.348 . S
C1124 C1126 1.327 . S
C1124 H1149 0.950 . S
C1125 C1124 1.348 . S
C1125 C1141 1.350 1_565 S
C1126 C1124 1.327 . S
C1126 C1145 1.429 . S
C1126 H1150 0.950 . S
C1127 C1144 1.574 . S
C1127 C1146 1.368 1_545 S
C1127 H1151 0.949 . S
H1128 C1132 0.949 . S
C1129 C1130 1.349 1_545 S
C1129 C1131 1.327 . S
C1129 H1152 0.950 . S
C1130 C1129 1.349 1_565 S
C1130 C1142 1.349 . S
C1131 C1129 1.327 . S
C1131 C1147 1.429 1_545 S
C1131 H1153 0.950 . S
C1132 H1128 0.949 . S
C1132 C1140 1.574 . S
C1132 C1148 1.368 . S
H1133 C1141 0.950 . S
H1134 C1139 0.950 . S
H1135 C1140 0.949 . S
H1136 C1142 0.950 . S
H1137 C1143 0.950 . S
H1138 C1144 0.949 . S
C1139 H1134 0.950 . S
C1139 C1141 1.327 . S
C1139 C1145 1.429 1_545 S
C1140 C1132 1.574 . S
C1140 H1135 0.949 . S
C1140 C1146 1.368 . S
C1141 C1125 1.350 1_545 S
C1141 H1133 0.950 . S
C1141 C1139 1.327 . S
C1142 C1130 1.349 . S
C1142 H1136 0.950 . S
C1142 C1143 1.327 . S
C1143 H1137 0.950 . S
C1143 C1142 1.327 . S
C1143 C1147 1.429 . S
C1144 C1127 1.574 . S
C1144 H1138 0.949 . S
C1144 C1148 1.368 1_545 S
C1145 C1126 1.429 . S
C1145 C1139 1.429 1_565 S
C1145 C1146 1.523 . S
C1146 C1127 1.368 1_565 S
C1146 C1140 1.368 . S
C1146 C1145 1.523 . S
C1147 C1131 1.429 1_565 S
C1147 C1143 1.429 . S
C1147 C1148 1.523 . S
C1148 C1132 1.368 . S
C1148 C1144 1.368 1_565 S
C1148 C1147 1.523 . S
H1149 C1124 0.950 . S
H1150 C1126 0.950 . S
H1151 C1127 0.949 . S
H1152 C1129 0.950 . S
H1153 C1131 0.950 . S
C1154 C1155 1.349 . S
C1154 C1156 1.327 . S
C1154 H1179 0.950 . S
C1155 C1154 1.349 . S
C1155 C1171 1.349 . S
C1156 C1154 1.327 . S
C1156 C1175 1.429 . S
C1156 H1180 0.950 . S
C1157 C1174 1.574 . S
C1157 C1176 1.368 . S
C1157 H1181 0.949 . S
H1158 C1162 0.949 . S
C1159 C1160 1.349 . S
C1159 C1161 1.327 . S
C1159 H1182 0.950 . S
C1160 C1159 1.349 . S
C1160 C1172 1.349 . S
C1161 C1159 1.327 . S
C1161 C1177 1.429 . S
C1161 H1183 0.950 . S
C1162 H1158 0.949 . S
C1162 C1170 1.574 . S
C1162 C1178 1.368 . S
H1163 C1171 0.950 . S
H1164 C1169 0.950 . S
H1165 C1170 0.949 . S
H1166 C1172 0.950 . S
H1167 C1173 0.950 . S
H1168 C1174 0.949 . S
C1169 H1164 0.950 . S
C1169 C1171 1.327 . S
C1169 C1175 1.429 . S
C1170 C1162 1.574 . S
C1170 H1165 0.949 . S
C1170 C1176 1.368 . S
C1171 C1155 1.349 . S
C1171 H1163 0.950 . S
C1171 C1169 1.327 . S
C1172 C1160 1.349 . S
C1172 H1166 0.950 . S
C1172 C1173 1.327 . S
C1173 H1167 0.950 . S
C1173 C1172 1.327 . S
C1173 C1177 1.429 . S
C1174 C1157 1.574 . S
C1174 H1168 0.949 . S
C1174 C1178 1.368 . S
C1175 C1156 1.429 . S
C1175 C1169 1.429 . S
C1175 C1176 1.523 . S
C1176 C1157 1.368 . S
C1176 C1170 1.368 . S
C1176 C1175 1.523 . S
C1177 C1161 1.429 . S
C1177 C1173 1.429 . S
C1177 C1178 1.523 . S
C1178 C1162 1.368 . S
C1178 C1174 1.368 . S
C1178 C1177 1.523 . S
H1179 C1154 0.950 . S
H1180 C1156 0.950 . S
H1181 C1157 0.949 . S
H1182 C1159 0.950 . S
H1183 C1161 0.950 . S
C1184 C1185 1.349 . S
C1184 C1186 1.327 . S
C1184 H1209 0.950 . S
C1185 C1184 1.349 . S
C1185 C1201 1.349 1_554 S
C1186 C1184 1.327 . S
C1186 C1205 1.429 . S
C1186 H1210 0.950 . S
C1187 C1204 1.574 . S
C1187 C1206 1.368 1_556 S
C1187 H1211 0.949 . S
H1188 C1192 0.949 . S
C1189 C1190 1.349 1_556 S
C1189 C1191 1.327 . S
C1189 H1212 0.950 . S
C1190 C1189 1.349 1_554 S
C1190 C1202 1.349 . S
C1191 C1189 1.327 . S
C1191 C1207 1.429 1_556 S
C1191 H1213 0.950 . S
C1192 H1188 0.949 . S
C1192 C1200 1.574 . S
C1192 C1208 1.368 . S
H1193 C1201 0.950 . S
H1194 C1199 0.950 . S
H1195 C1200 0.949 . S
H1196 C1202 0.950 . S
H1197 C1203 0.950 . S
H1198 C1204 0.949 . S
C1199 H1194 0.950 . S
C1199 C1201 1.327 . S
C1199 C1205 1.429 1_556 S
C1200 C1192 1.574 . S
C1200 H1195 0.949 . S
C1200 C1206 1.368 . S
C1201 C1185 1.349 1_556 S
C1201 H1193 0.950 . S
C1201 C1199 1.327 . S
C1202 C1190 1.349 . S
C1202 H1196 0.950 . S
C1202 C1203 1.327 . S
C1203 H1197 0.950 . S
C1203 C1202 1.327 . S
C1203 C1207 1.429 . S
C1204 C1187 1.574 . S
C1204 H1198 0.949 . S
C1204 C1208 1.368 1_556 S
C1205 C1186 1.429 . S
C1205 C1199 1.429 1_554 S
C1205 C1206 1.523 . S
C1206 C1187 1.368 1_554 S
C1206 C1200 1.368 . S
C1206 C1205 1.523 . S
C1207 C1191 1.429 1_554 S
C1207 C1203 1.429 . S
C1207 C1208 1.523 . S
C1208 C1192 1.368 . S
C1208 C1204 1.368 1_554 S
C1208 C1207 1.523 . S
H1209 C1184 0.950 . S
H1210 C1186 0.950 . S
H1211 C1187 0.949 . S
H1212 C1189 0.950 . S
H1213 C1191 0.950 . S
C1214 C1215 1.349 1_556 S
C1214 C1216 1.327 . S
C1214 H1239 0.950 . S
C1215 C1214 1.349 1_554 S
C1215 C1231 1.349 . S
C1216 C1214 1.327 . S
C1216 C1235 1.429 1_556 S
C1216 H1240 0.950 . S
C1217 C1234 1.574 . S
C1217 C1236 1.368 . S
C1217 H1241 0.949 . S
H1218 C1222 0.949 . S
C1219 C1220 1.349 . S
C1219 C1221 1.327 . S
C1219 H1242 0.950 . S
C1220 C1219 1.349 . S
C1220 C1232 1.349 . S
C1221 C1219 1.327 . S
C1221 C1237 1.429 . S
C1221 H1243 0.950 . S
C1222 H1218 0.949 . S
C1222 C1230 1.574 . S
C1222 C1238 1.368 1_556 S
H1223 C1231 0.950 . S
H1224 C1229 0.950 . S
H1225 C1230 0.949 . S
H1226 C1232 0.950 1_556 S
H1227 C1233 0.898 1_556 S
H1228 C1234 0.949 . S
C1229 H1224 0.950 . S
C1229 C1231 1.327 . S
C1229 C1235 1.429 . S
C1230 C1222 1.574 . S
C1230 H1225 0.949 . S
C1230 C1236 1.368 1_556 S
C1231 C1215 1.349 . S
C1231 H1223 0.950 . S
C1231 C1229 1.327 . S
C1232 C1220 1.349 . S
C1232 H1226 0.950 1_554 S
C1232 C1233 1.334 . S
C1233 H1227 0.898 1_554 S
C1233 C1232 1.334 . S
C1233 C1237 1.474 . S
C1234 C1217 1.574 . S
C1234 H1228 0.949 . S
C1234 C1238 1.368 . S
C1235 C1216 1.429 1_554 S
C1235 C1229 1.429 . S
C1235 C1236 1.523 . S
C1236 C1217 1.368 . S
C1236 C1230 1.368 1_554 S
C1236 C1235 1.523 . S
C1237 C1221 1.429 . S
C1237 C1233 1.474 . S
C1237 C1238 1.523 . S
C1238 C1222 1.368 1_554 S
C1238 C1234 1.368 . S
C1238 C1237 1.523 . S
H1239 C1214 0.950 . S
H1240 C1216 0.950 . S
H1241 C1217 0.949 . S
H1242 C1219 0.950 . S
H1243 C1221 0.950 . S
C1244 C1245 1.349 . S
C1244 C1246 1.327 . S
C1244 H1269 0.950 . S
C1245 C1244 1.349 . S
C1245 C1261 1.349 . S
C1246 C1244 1.327 . S
C1246 C1265 1.429 . S
C1246 H1270 0.950 . S
C1247 C1264 1.574 . S
C1247 C1266 1.368 . S
C1247 H1271 0.949 . S
H1248 C1252 0.949 . S
C1249 C1250 1.349 . S
C1249 C1251 1.327 . S
C1249 H1272 0.950 . S
C1250 C1249 1.349 . S
C1250 C1262 1.349 . S
C1251 C1249 1.327 . S
C1251 C1267 1.429 . S
C1251 H1273 0.950 . S
C1252 H1248 0.949 . S
C1252 C1260 1.574 . S
C1252 C1268 1.368 . S
H1253 C1261 0.950 . S
H1254 C1259 0.950 . S
H1255 C1260 0.949 . S
H1256 C1262 0.950 . S
H1257 C1263 0.950 . S
H1258 C1264 0.949 . S
C1259 H1254 0.950 . S
C1259 C1261 1.327 . S
C1259 C1265 1.429 . S
C1260 C1252 1.574 . S
C1260 H1255 0.949 . S
C1260 C1266 1.368 . S
C1261 C1245 1.349 . S
C1261 H1253 0.950 . S
C1261 C1259 1.327 . S
C1262 C1250 1.349 . S
C1262 H1256 0.950 . S
C1262 C1263 1.327 . S
C1263 H1257 0.950 . S
C1263 C1262 1.327 . S
C1263 C1267 1.429 . S
C1264 C1247 1.574 . S
C1264 H1258 0.949 . S
C1264 C1268 1.368 . S
C1265 C1246 1.429 . S
C1265 C1259 1.429 . S
C1265 C1266 1.523 . S
C1266 C1247 1.368 . S
C1266 C1260 1.368 . S
C1266 C1265 1.523 . S
C1267 C1251 1.429 . S
C1267 C1263 1.429 . S
C1267 C1268 1.523 . S
C1268 C1252 1.368 . S
C1268 C1264 1.368 . S
C1268 C1267 1.523 . S
H1269 C1244 0.950 . S
H1270 C1246 0.950 . S
H1271 C1247 0.949 . S
H1272 C1249 0.950 . S
H1273 C1251 0.950 . S
C1274 C1275 1.349 . S
C1274 C1276 1.327 . S
C1274 H1299 0.950 . S
C1275 C1274 1.349 . S
C1275 C1291 1.349 . S
C1276 C1274 1.327 . S
C1276 C1295 1.429 . S
C1276 H1300 0.950 . S
C1277 C1294 1.574 . S
C1277 C1296 1.368 . S
C1277 H1301 0.949 . S
H1278 C1282 0.949 . S
C1279 C1280 1.349 . S
C1279 C1281 1.327 . S
C1279 H1302 0.950 . S
C1280 C1279 1.349 . S
C1280 C1292 1.349 . S
C1281 C1279 1.327 . S
C1281 C1297 1.429 . S
C1281 H1303 0.950 . S
C1282 H1278 0.949 . S
C1282 C1290 1.574 . S
C1282 C1298 1.368 . S
H1283 C1291 0.950 . S
H1284 C1289 0.950 . S
H1285 C1290 0.949 . S
H1286 C1292 0.950 . S
H1287 C1293 0.950 . S
H1288 C1294 0.949 . S
C1289 H1284 0.950 . S
C1289 C1291 1.327 . S
C1289 C1295 1.429 . S
C1290 C1282 1.574 . S
C1290 H1285 0.949 . S
C1290 C1296 1.368 . S
C1291 C1275 1.349 . S
C1291 H1283 0.950 . S
C1291 C1289 1.327 . S
C1292 C1280 1.349 . S
C1292 H1286 0.950 . S
C1292 C1293 1.327 . S
C1293 H1287 0.950 . S
C1293 C1292 1.327 . S
C1293 C1297 1.429 . S
C1294 C1277 1.574 . S
C1294 H1288 0.949 . S
C1294 C1298 1.368 . S
C1295 C1276 1.429 . S
C1295 C1289 1.429 . S
C1295 C1296 1.523 . S
C1296 C1277 1.368 . S
C1296 C1290 1.368 . S
C1296 C1295 1.523 . S
C1297 C1281 1.429 . S
C1297 C1293 1.429 . S
C1297 C1298 1.523 . S
C1298 C1282 1.368 . S
C1298 C1294 1.368 . S
C1298 C1297 1.523 . S
H1299 C1274 0.950 . S
H1300 C1276 0.950 . S
H1301 C1277 0.949 . S
H1302 C1279 0.950 . S
H1303 C1281 0.950 . S
C1304 C1305 1.349 . S
C1304 C1306 1.327 . S
C1304 H1329 0.950 . S
C1305 C1304 1.349 . S
C1305 C1321 1.349 . S
C1306 C1304 1.327 . S
C1306 C1325 1.429 . S
C1306 H1330 0.950 . S
C1307 C1324 1.574 . S
C1307 C1326 1.368 . S
C1307 H1331 0.949 . S
H1308 C1312 0.949 . S
C1309 C1310 1.349 . S
C1309 C1311 1.327 . S
C1309 H1332 0.950 . S
C1310 C1309 1.349 . S
C1310 C1322 1.349 . S
C1311 C1309 1.327 . S
C1311 C1327 1.429 . S
C1311 H1333 0.950 . S
C1312 H1308 0.949 . S
C1312 C1320 1.574 . S
C1312 C1328 1.368 . S
H1313 C1321 0.950 . S
H1314 C1319 0.950 . S
H1315 C1320 0.949 . S
H1316 C1322 0.950 . S
H1317 C1323 0.950 . S
H1318 C1324 0.949 . S
C1319 H1314 0.950 . S
C1319 C1321 1.327 . S
C1319 C1325 1.429 . S
C1320 C1312 1.574 . S
C1320 H1315 0.949 . S
C1320 C1326 1.368 . S
C1321 C1305 1.349 . S
C1321 H1313 0.950 . S
C1321 C1319 1.327 . S
C1322 C1310 1.349 . S
C1322 H1316 0.950 . S
C1322 C1323 1.327 . S
C1323 H1317 0.950 . S
C1323 C1322 1.327 . S
C1323 C1327 1.429 . S
C1324 C1307 1.574 . S
C1324 H1318 0.949 . S
C1324 C1328 1.368 . S
C1325 C1306 1.429 . S
C1325 C1319 1.429 . S
C1325 C1326 1.523 . S
C1326 C1307 1.368 . S
C1326 C1320 1.368 . S
C1326 C1325 1.523 . S
C1327 C1311 1.429 . S
C1327 C1323 1.429 . S
C1327 C1328 1.523 . S
C1328 C1312 1.368 . S
C1328 C1324 1.368 . S
C1328 C1327 1.523 . S
H1329 C1304 0.950 . S
H1330 C1306 0.950 . S
H1331 C1307 0.949 . S
H1332 C1309 0.950 . S
H1333 C1311 0.950 . S
C1334 C1335 1.349 . S
C1334 C1336 1.327 . S
C1334 H1359 0.950 . S
C1335 C1334 1.349 . S
C1335 C1351 1.349 . S
C1336 C1334 1.327 . S
C1336 C1355 1.429 . S
C1336 H1360 0.950 . S
C1337 C1354 1.574 . S
C1337 C1356 1.368 . S
C1337 H1361 0.949 . S
H1338 C1342 0.949 . S
C1339 C1340 1.326 1_565 S
C1339 C1341 1.327 . S
C1339 H1362 0.950 . S
C1340 C1339 1.326 1_545 S
C1340 C1352 1.356 . S
C1341 C1339 1.327 . S
C1341 C1357 1.429 . S
C1341 H1363 0.950 . S
C1342 H1338 0.949 . S
C1342 C1350 1.574 . S
C1342 C1358 1.368 . S
H1343 C1351 0.950 . S
H1344 C1349 0.950 . S
H1345 C1350 0.949 . S
H1346 C1352 0.950 . S
H1347 C1353 0.950 . S
H1348 C1354 0.949 . S
C1349 H1344 0.950 . S
C1349 C1351 1.327 . S
C1349 C1355 1.429 . S
C1350 C1342 1.574 . S
C1350 H1345 0.949 . S
C1350 C1356 1.368 . S
C1351 C1335 1.349 . S
C1351 H1343 0.950 . S
C1351 C1349 1.327 . S
C1352 C1340 1.356 . S
C1352 H1346 0.950 . S
C1352 C1353 1.327 1_545 S
C1353 H1347 0.950 . S
C1353 C1352 1.327 1_565 S
C1353 C1357 1.429 . S
C1354 C1337 1.574 . S
C1354 H1348 0.949 . S
C1354 C1358 1.368 . S
C1355 C1336 1.429 . S
C1355 C1349 1.429 . S
C1355 C1356 1.523 . S
C1356 C1337 1.368 . S
C1356 C1350 1.368 . S
C1356 C1355 1.523 . S
C1357 C1341 1.429 . S
C1357 C1353 1.429 . S
C1357 C1358 1.523 . S
C1358 C1342 1.368 . S
C1358 C1354 1.368 . S
C1358 C1357 1.523 . S
H1359 C1334 0.950 . S
H1360 C1336 0.950 . S
H1361 C1337 0.949 . S
H1362 C1339 0.950 . S
H1363 C1341 0.950 . S
C1364 C1365 1.349 . S
C1364 C1366 1.327 . S
C1364 H1389 0.950 . S
C1365 C1364 1.349 . S
C1365 C1381 1.349 . S
C1366 C1364 1.327 . S
C1366 C1385 1.429 . S
C1366 H1390 0.950 . S
C1367 C1384 1.574 . S
C1367 C1386 1.368 . S
C1367 H1391 0.949 . S
H1368 C1372 0.949 . S
C1369 C1370 1.349 . S
C1369 C1371 1.327 . S
C1369 H1392 0.950 . S
C1370 C1369 1.349 . S
C1370 C1382 1.349 . S
C1371 C1369 1.327 . S
C1371 C1387 1.429 . S
C1371 H1393 0.950 . S
C1372 H1368 0.949 . S
C1372 C1380 1.574 . S
C1372 C1388 1.368 . S
H1373 C1381 0.950 . S
H1374 C1379 0.950 . S
H1375 C1380 0.949 . S
H1376 C1382 0.950 . S
H1377 C1383 0.950 . S
H1378 C1384 0.949 . S
C1379 H1374 0.950 . S
C1379 C1381 1.327 . S
C1379 C1385 1.429 . S
C1380 C1372 1.574 . S
C1380 H1375 0.949 . S
C1380 C1386 1.368 . S
C1381 C1365 1.349 . S
C1381 H1373 0.950 . S
C1381 C1379 1.327 . S
C1382 C1370 1.349 . S
C1382 H1376 0.950 . S
C1382 C1383 1.327 . S
C1383 H1377 0.950 . S
C1383 C1382 1.327 . S
C1383 C1387 1.429 . S
C1384 C1367 1.574 . S
C1384 H1378 0.949 . S
C1384 C1388 1.368 . S
C1385 C1366 1.429 . S
C1385 C1379 1.429 . S
C1385 C1386 1.523 . S
C1386 C1367 1.368 . S
C1386 C1380 1.368 . S
C1386 C1385 1.523 . S
C1387 C1371 1.429 . S
C1387 C1383 1.429 . S
C1387 C1388 1.523 . S
C1388 C1372 1.368 . S
C1388 C1384 1.368 . S
C1388 C1387 1.523 . S
H1389 C1364 0.950 . S
H1390 C1366 0.950 . S
H1391 C1367 0.949 . S
H1392 C1369 0.950 . S
H1393 C1371 0.950 . S
C1394 C1395 1.349 . S
C1394 C1396 1.327 . S
C1394 H1419 0.950 . S
C1395 C1394 1.349 . S
C1395 C1411 1.349 . S
C1396 C1394 1.327 . S
C1396 C1415 1.429 . S
C1396 H1420 0.950 . S
C1397 C1414 1.574 . S
C1397 C1416 1.368 . S
C1397 H1421 0.949 . S
H1398 C1402 0.949 . S
C1399 C1400 1.349 . S
C1399 C1401 1.327 . S
C1399 H1422 0.950 . S
C1400 C1399 1.349 . S
C1400 C1412 1.349 . S
C1401 C1399 1.327 . S
C1401 C1417 1.429 . S
C1401 H1423 0.950 . S
C1402 H1398 0.949 . S
C1402 C1410 1.574 . S
C1402 C1418 1.368 . S
H1403 C1411 0.950 . S
H1404 C1409 0.950 . S
H1405 C1410 0.949 . S
H1406 C1412 0.950 . S
H1407 C1413 0.950 . S
H1408 C1414 0.949 . S
C1409 H1404 0.950 . S
C1409 C1411 1.327 . S
C1409 C1415 1.429 . S
C1410 C1402 1.574 . S
C1410 H1405 0.949 . S
C1410 C1416 1.368 . S
C1411 C1395 1.349 . S
C1411 H1403 0.950 . S
C1411 C1409 1.327 . S
C1412 C1400 1.349 . S
C1412 H1406 0.950 . S
C1412 C1413 1.327 . S
C1413 H1407 0.950 . S
C1413 C1412 1.327 . S
C1413 C1417 1.429 . S
C1414 C1397 1.574 . S
C1414 H1408 0.949 . S
C1414 C1418 1.368 . S
C1415 C1396 1.429 . S
C1415 C1409 1.429 . S
C1415 C1416 1.523 . S
C1416 C1397 1.368 . S
C1416 C1410 1.368 . S
C1416 C1415 1.523 . S
C1417 C1401 1.429 . S
C1417 C1413 1.429 . S
C1417 C1418 1.523 . S
C1418 C1402 1.368 . S
C1418 C1414 1.368 . S
C1418 C1417 1.523 . S
H1419 C1394 0.950 . S
H1420 C1396 0.950 . S
H1421 C1397 0.949 . S
H1422 C1399 0.950 . S
H1423 C1401 0.950 . S
C1424 C1425 1.349 . S
C1424 C1426 1.327 . S
C1424 H1449 0.950 . S
C1425 C1424 1.349 . S
C1425 C1441 1.349 1_455 S
C1426 C1424 1.327 . S
C1426 C1445 1.429 . S
C1426 H1450 0.950 . S
C1427 C1444 1.573 1_655 S
C1427 C1446 1.368 1_655 S
C1427 H1451 0.949 . S
H1428 C1432 0.949 . S
C1429 C1430 1.349 . S
C1429 C1431 1.327 . S
C1429 H1452 0.950 1_455 S
C1430 C1429 1.349 . S
C1430 C1442 1.331 1_556 S
C1431 C1429 1.327 . S
C1431 C1447 1.429 . S
C1431 H1453 0.950 1_455 S
C1432 H1428 0.949 . S
C1432 C1440 1.574 . S
C1432 C1448 1.368 . S
H1433 C1441 0.950 . S
H1434 C1439 0.950 . S
H1435 C1440 0.949 . S
H1436 C1442 0.995 . S
H1437 C1443 0.950 . S
H1438 C1444 0.944 1_655 S
C1439 H1434 0.950 . S
C1439 C1441 1.327 . S
C1439 C1445 1.429 1_655 S
C1440 C1432 1.574 . S
C1440 H1435 0.949 . S
C1440 C1446 1.368 . S
C1441 C1425 1.349 1_655 S
C1441 H1433 0.950 . S
C1441 C1439 1.327 . S
C1442 C1430 1.331 1_554 S
C1442 H1436 0.995 . S
C1442 C1443 1.302 1_554 S
C1443 H1437 0.950 . S
C1443 C1442 1.302 1_556 S
C1443 C1447 1.429 . S
C1444 C1427 1.573 1_455 S
C1444 H1438 0.944 1_455 S
C1444 C1448 1.375 . S
C1445 C1426 1.429 . S
C1445 C1439 1.429 1_455 S
C1445 C1446 1.523 . S
C1446 C1427 1.368 1_455 S
C1446 C1440 1.368 . S
C1446 C1445 1.523 . S
C1447 C1431 1.429 . S
C1447 C1443 1.429 . S
C1447 C1448 1.523 . S
C1448 C1432 1.368 . S
C1448 C1444 1.375 . S
C1448 C1447 1.523 . S
H1449 C1424 0.950 . S
H1450 C1426 0.950 . S
H1451 C1427 0.949 . S
H1452 C1429 0.950 1_655 S
H1453 C1431 0.950 1_655 S
C1454 C1455 1.349 . S
C1454 C1456 1.327 . S
C1454 H1479 0.950 . S
C1455 C1454 1.349 . S
C1455 C1471 1.349 . S
C1456 C1454 1.327 . S
C1456 C1475 1.429 . S
C1456 H1480 0.950 . S
C1457 C1474 1.574 . S
C1457 C1476 1.368 . S
C1457 H1481 0.949 . S
H1458 C1462 0.949 . S
C1459 C1460 1.349 . S
C1459 C1461 1.327 . S
C1459 H1482 0.950 . S
C1460 C1459 1.349 . S
C1460 C1472 1.349 . S
C1461 C1459 1.327 . S
C1461 C1477 1.429 . S
C1461 H1483 0.950 . S
C1462 H1458 0.949 . S
C1462 C1470 1.574 . S
C1462 C1478 1.368 . S
H1463 C1471 0.950 . S
H1464 C1469 0.950 . S
H1465 C1470 0.949 . S
H1466 C1472 0.950 . S
H1467 C1473 0.950 . S
H1468 C1474 0.949 . S
C1469 H1464 0.950 . S
C1469 C1471 1.327 . S
C1469 C1475 1.429 . S
C1470 C1462 1.574 . S
C1470 H1465 0.949 . S
C1470 C1476 1.368 . S
C1471 C1455 1.349 . S
C1471 H1463 0.950 . S
C1471 C1469 1.327 . S
C1472 C1460 1.349 . S
C1472 H1466 0.950 . S
C1472 C1473 1.327 . S
C1473 H1467 0.950 . S
C1473 C1472 1.327 . S
C1473 C1477 1.429 . S
C1474 C1457 1.574 . S
C1474 H1468 0.949 . S
C1474 C1478 1.368 . S
C1475 C1456 1.429 . S
C1475 C1469 1.429 . S
C1475 C1476 1.523 . S
C1476 C1457 1.368 . S
C1476 C1470 1.368 . S
C1476 C1475 1.523 . S
C1477 C1461 1.429 . S
C1477 C1473 1.429 . S
C1477 C1478 1.523 . S
C1478 C1462 1.368 . S
C1478 C1474 1.368 . S
C1478 C1477 1.523 . S
H1479 C1454 0.950 . S
H1480 C1456 0.950 . S
H1481 C1457 0.949 . S
H1482 C1459 0.950 . S
H1483 C1461 0.950 . S
C1484 C1485 1.349 . S
C1484 C1486 1.327 . S
C1484 H1509 0.950 . S
C1485 C1484 1.349 . S
C1485 C1501 1.349 . S
C1486 C1484 1.327 . S
C1486 C1505 1.429 . S
C1486 H1510 0.950 . S
C1487 C1504 1.574 . S
C1487 C1506 1.368 . S
C1487 H1511 0.949 . S
H1488 C1492 0.949 . S
C1489 C1490 1.349 . S
C1489 C1491 1.327 . S
C1489 H1512 0.950 . S
C1490 C1489 1.349 . S
C1490 C1502 1.349 . S
C1491 C1489 1.327 . S
C1491 C1507 1.429 . S
C1491 H1513 0.950 . S
C1492 H1488 0.949 . S
C1492 C1500 1.574 . S
C1492 C1508 1.368 . S
H1493 C1501 0.950 . S
H1494 C1499 0.950 . S
H1495 C1500 0.949 . S
H1496 C1502 0.950 . S
H1497 C1503 0.950 . S
H1498 C1504 0.949 . S
C1499 H1494 0.950 . S
C1499 C1501 1.327 . S
C1499 C1505 1.429 . S
C1500 C1492 1.574 . S
C1500 H1495 0.949 . S
C1500 C1506 1.368 . S
C1501 C1485 1.349 . S
C1501 H1493 0.950 . S
C1501 C1499 1.327 . S
C1502 C1490 1.349 . S
C1502 H1496 0.950 . S
C1502 C1503 1.327 . S
C1503 H1497 0.950 . S
C1503 C1502 1.327 . S
C1503 C1507 1.429 . S
C1504 C1487 1.574 . S
C1504 H1498 0.949 . S
C1504 C1508 1.368 . S
C1505 C1486 1.429 . S
C1505 C1499 1.429 . S
C1505 C1506 1.523 . S
C1506 C1487 1.368 . S
C1506 C1500 1.368 . S
C1506 C1505 1.523 . S
C1507 C1491 1.429 . S
C1507 C1503 1.429 . S
C1507 C1508 1.523 . S
C1508 C1492 1.368 . S
C1508 C1504 1.368 . S
C1508 C1507 1.523 . S
H1509 C1484 0.950 . S
H1510 C1486 0.950 . S
H1511 C1487 0.949 . S
H1512 C1489 0.950 . S
H1513 C1491 0.950 . S
C1514 C1515 1.349 . S
C1514 C1516 1.327 . S
C1514 H1539 0.950 . S
C1515 C1514 1.349 . S
C1515 C1531 1.349 . S
C1516 C1514 1.327 . S
C1516 C1535 1.429 . S
C1516 H1540 0.950 . S
C1517 C1534 1.574 . S
C1517 C1536 1.368 . S
C1517 H1541 0.949 . S
H1518 C1522 0.949 . S
C1519 C1520 1.349 . S
C1519 C1521 1.327 . S
C1519 H1542 0.950 . S
C1520 C1519 1.349 . S
C1520 C1532 1.349 . S
C1521 C1519 1.327 . S
C1521 C1537 1.429 . S
C1521 H1543 0.950 . S
C1522 H1518 0.949 . S
C1522 C1530 1.574 . S
C1522 C1538 1.368 . S
H1523 C1531 0.950 . S
H1524 C1529 0.950 . S
H1525 C1530 0.949 . S
H1526 C1532 0.950 . S
H1527 C1533 0.950 . S
H1528 C1534 0.949 . S
C1529 H1524 0.950 . S
C1529 C1531 1.327 . S
C1529 C1535 1.429 . S
C1530 C1522 1.574 . S
C1530 H1525 0.949 . S
C1530 C1536 1.368 . S
C1531 C1515 1.349 . S
C1531 H1523 0.950 . S
C1531 C1529 1.327 . S
C1532 C1520 1.349 . S
C1532 H1526 0.950 . S
C1532 C1533 1.327 . S
C1533 H1527 0.950 . S
C1533 C1532 1.327 . S
C1533 C1537 1.429 . S
C1534 C1517 1.574 . S
C1534 H1528 0.949 . S
C1534 C1538 1.368 . S
C1535 C1516 1.429 . S
C1535 C1529 1.429 . S
C1535 C1536 1.523 . S
C1536 C1517 1.368 . S
C1536 C1530 1.368 . S
C1536 C1535 1.523 . S
C1537 C1521 1.429 . S
C1537 C1533 1.429 . S
C1537 C1538 1.523 . S
C1538 C1522 1.368 . S
C1538 C1534 1.368 . S
C1538 C1537 1.523 . S
H1539 C1514 0.950 . S
H1540 C1516 0.950 . S
H1541 C1517 0.949 . S
H1542 C1519 0.950 . S
H1543 C1521 0.950 . S
C1544 C1545 1.349 1_655 S
C1544 C1546 1.327 . S
C1544 H1569 0.950 . S
C1545 C1544 1.349 1_455 S
C1545 C1561 1.349 . S
C1546 C1544 1.327 . S
C1546 C1565 1.429 1_655 S
C1546 H1570 0.950 . S
C1547 C1564 1.574 . S
C1547 C1566 1.368 . S
C1547 H1571 0.949 . S
H1548 C1552 0.949 . S
C1549 C1550 1.349 . S
C1549 C1551 1.327 . S
C1549 H1572 0.950 . S
C1550 C1549 1.349 . S
C1550 C1562 1.349 . S
C1551 C1549 1.327 . S
C1551 C1567 1.429 . S
C1551 H1573 0.950 . S
C1552 H1548 0.949 . S
C1552 C1560 1.574 . S
C1552 C1568 1.368 1_655 S
H1553 C1561 0.950 . S
H1554 C1559 0.950 . S
H1555 C1560 0.949 . S
H1556 C1562 0.950 1_655 S
H1557 C1563 0.950 1_655 S
H1558 C1564 0.949 . S
C1559 H1554 0.950 . S
C1559 C1561 1.327 . S
C1559 C1565 1.429 . S
C1560 C1552 1.574 . S
C1560 H1555 0.949 . S
C1560 C1566 1.368 1_655 S
C1561 C1545 1.349 . S
C1561 H1553 0.950 . S
C1561 C1559 1.327 . S
C1562 C1550 1.349 . S
C1562 H1556 0.950 1_455 S
C1562 C1563 1.327 . S
C1563 H1557 0.950 1_455 S
C1563 C1562 1.327 . S
C1563 C1567 1.429 . S
C1564 C1547 1.574 . S
C1564 H1558 0.949 . S
C1564 C1568 1.368 . S
C1565 C1546 1.429 1_455 S
C1565 C1559 1.429 . S
C1565 C1566 1.523 . S
C1566 C1547 1.368 . S
C1566 C1560 1.368 1_455 S
C1566 C1565 1.523 . S
C1567 C1551 1.429 . S
C1567 C1563 1.429 . S
C1567 C1568 1.523 . S
C1568 C1552 1.368 1_455 S
C1568 C1564 1.368 . S
C1568 C1567 1.523 . S
H1569 C1544 0.950 . S
H1570 C1546 0.950 . S
H1571 C1547 0.949 . S
H1572 C1549 0.950 . S
H1573 C1551 0.950 . S
C1574 C1575 1.349 . S
C1574 C1576 1.327 . S
C1574 H1599 0.950 . S
C1575 C1574 1.349 . S
C1575 C1591 1.349 . S
C1576 C1574 1.327 . S
C1576 C1595 1.429 . S
C1576 H1600 0.950 . S
C1577 C1594 1.574 . S
C1577 C1596 1.368 . S
C1577 H1601 0.949 . S
H1578 C1582 0.949 . S
C1579 C1580 1.349 . S
C1579 C1581 1.327 . S
C1579 H1602 0.950 . S
C1580 C1579 1.349 . S
C1580 C1592 1.349 . S
C1581 C1579 1.327 . S
C1581 C1597 1.429 . S
C1581 H1603 0.950 . S
C1582 H1578 0.949 . S
C1582 C1590 1.574 . S
C1582 C1598 1.368 . S
H1583 C1591 0.950 . S
H1584 C1589 0.950 . S
H1585 C1590 0.949 . S
H1586 C1592 0.950 . S
H1587 C1593 0.950 . S
H1588 C1594 0.949 . S
C1589 H1584 0.950 . S
C1589 C1591 1.327 . S
C1589 C1595 1.429 . S
C1590 C1582 1.574 . S
C1590 H1585 0.949 . S
C1590 C1596 1.368 . S
C1591 C1575 1.349 . S
C1591 H1583 0.950 . S
C1591 C1589 1.327 . S
C1592 C1580 1.349 . S
C1592 H1586 0.950 . S
C1592 C1593 1.327 . S
C1593 H1587 0.950 . S
C1593 C1592 1.327 . S
C1593 C1597 1.429 . S
C1594 C1577 1.574 . S
C1594 H1588 0.949 . S
C1594 C1598 1.368 . S
C1595 C1576 1.429 . S
C1595 C1589 1.429 . S
C1595 C1596 1.523 . S
C1596 C1577 1.368 . S
C1596 C1590 1.368 . S
C1596 C1595 1.523 . S
C1597 C1581 1.429 . S
C1597 C1593 1.429 . S
C1597 C1598 1.523 . S
C1598 C1582 1.368 . S
C1598 C1594 1.368 . S
C1598 C1597 1.523 . S
H1599 C1574 0.950 . S
H1600 C1576 0.950 . S
H1601 C1577 0.949 . S
H1602 C1579 0.950 . S
H1603 C1581 0.950 . S
C1604 C1605 1.349 . S
C1604 C1606 1.327 . S
C1604 H1629 0.950 . S
C1605 C1604 1.349 . S
C1605 C1621 1.349 . S
C1606 C1604 1.327 . S
C1606 C1625 1.429 . S
C1606 H1630 0.950 . S
C1607 C1624 1.574 . S
C1607 C1626 1.368 . S
C1607 H1631 0.949 . S
H1608 C1612 0.949 . S
C1609 C1610 1.349 . S
C1609 C1611 1.327 . S
C1609 H1632 0.950 . S
C1610 C1609 1.349 . S
C1610 C1622 1.349 . S
C1611 C1609 1.327 . S
C1611 C1627 1.429 . S
C1611 H1633 0.950 . S
C1612 H1608 0.949 . S
C1612 C1620 1.574 . S
C1612 C1628 1.368 . S
H1613 C1621 0.950 . S
H1614 C1619 0.950 . S
H1615 C1620 0.949 . S
H1616 C1622 0.950 . S
H1617 C1623 0.950 . S
H1618 C1624 0.949 . S
C1619 H1614 0.950 . S
C1619 C1621 1.327 . S
C1619 C1625 1.429 . S
C1620 C1612 1.574 . S
C1620 H1615 0.949 . S
C1620 C1626 1.368 . S
C1621 C1605 1.349 . S
C1621 H1613 0.950 . S
C1621 C1619 1.327 . S
C1622 C1610 1.349 . S
C1622 H1616 0.950 . S
C1622 C1623 1.327 . S
C1623 H1617 0.950 . S
C1623 C1622 1.327 . S
C1623 C1627 1.429 . S
C1624 C1607 1.574 . S
C1624 H1618 0.949 . S
C1624 C1628 1.368 . S
C1625 C1606 1.429 . S
C1625 C1619 1.429 . S
C1625 C1626 1.523 . S
C1626 C1607 1.368 . S
C1626 C1620 1.368 . S
C1626 C1625 1.523 . S
C1627 C1611 1.429 . S
C1627 C1623 1.429 . S
C1627 C1628 1.523 . S
C1628 C1612 1.368 . S
C1628 C1624 1.368 . S
C1628 C1627 1.523 . S
H1629 C1604 0.950 . S
H1630 C1606 0.950 . S
H1631 C1607 0.949 . S
H1632 C1609 0.950 . S
H1633 C1611 0.950 . S
C1634 C1635 1.349 . S
C1634 C1636 1.327 . S
C1634 H1659 0.950 . S
C1635 C1634 1.349 . S
C1635 C1651 1.349 . S
C1636 C1634 1.327 . S
C1636 C1655 1.429 . S
C1636 H1660 0.950 . S
C1637 C1654 1.574 . S
C1637 C1656 1.368 . S
C1637 H1661 0.949 . S
H1638 C1642 0.949 . S
C1639 C1640 1.349 . S
C1639 C1641 1.327 . S
C1639 H1662 0.950 . S
C1640 C1639 1.349 . S
C1640 C1652 1.349 . S
C1641 C1639 1.327 . S
C1641 C1657 1.429 . S
C1641 H1663 0.950 . S
C1642 H1638 0.949 . S
C1642 C1650 1.574 . S
C1642 C1658 1.368 . S
H1643 C1651 0.950 . S
H1644 C1649 0.950 . S
H1645 C1650 0.949 . S
H1646 C1652 0.950 . S
H1647 C1653 0.950 . S
H1648 C1654 0.949 . S
C1649 H1644 0.950 . S
C1649 C1651 1.327 . S
C1649 C1655 1.429 . S
C1650 C1642 1.574 . S
C1650 H1645 0.949 . S
C1650 C1656 1.368 . S
C1651 C1635 1.349 . S
C1651 H1643 0.950 . S
C1651 C1649 1.327 . S
C1652 C1640 1.349 . S
C1652 H1646 0.950 . S
C1652 C1653 1.327 . S
C1653 H1647 0.950 . S
C1653 C1652 1.327 . S
C1653 C1657 1.429 . S
C1654 C1637 1.574 . S
C1654 H1648 0.949 . S
C1654 C1658 1.368 . S
C1655 C1636 1.429 . S
C1655 C1649 1.429 . S
C1655 C1656 1.523 . S
C1656 C1637 1.368 . S
C1656 C1650 1.368 . S
C1656 C1655 1.523 . S
C1657 C1641 1.429 . S
C1657 C1653 1.429 . S
C1657 C1658 1.523 . S
C1658 C1642 1.368 . S
C1658 C1654 1.368 . S
C1658 C1657 1.523 . S
H1659 C1634 0.950 . S
H1660 C1636 0.950 . S
H1661 C1637 0.949 . S
H1662 C1639 0.950 . S
H1663 C1641 0.950 . S
C1664 C1665 1.349 . S
C1664 C1666 1.327 . S
C1664 H1689 0.950 . S
C1665 C1664 1.349 . S
C1665 C1681 1.349 . S
C1666 C1664 1.327 . S
C1666 C1685 1.429 . S
C1666 H1690 0.950 . S
C1667 C1684 1.574 . S
C1667 C1686 1.368 . S
C1667 H1691 0.949 1_545 S
H1668 C1672 0.949 . S
C1669 C1670 1.349 . S
C1669 C1671 1.327 . S
C1669 H1692 0.950 . S
C1670 C1669 1.349 . S
C1670 C1682 1.349 . S
C1671 C1669 1.327 . S
C1671 C1687 1.429 . S
C1671 H1693 0.950 . S
C1672 H1668 0.949 . S
C1672 C1680 1.574 . S
C1672 C1688 1.368 . S
H1673 C1681 0.950 1_565 S
H1674 C1679 0.950 1_565 S
H1675 C1680 0.949 . S
H1676 C1682 0.950 . S
H1677 C1683 0.950 . S
H1678 C1684 0.949 . S
C1679 H1674 0.950 1_545 S
C1679 C1681 1.327 . S
C1679 C1685 1.429 . S
C1680 C1672 1.574 . S
C1680 H1675 0.949 . S
C1680 C1686 1.368 . S
C1681 C1665 1.349 . S
C1681 H1673 0.950 1_545 S
C1681 C1679 1.327 . S
C1682 C1670 1.349 . S
C1682 H1676 0.950 . S
C1682 C1683 1.327 . S
C1683 H1677 0.950 . S
C1683 C1682 1.327 . S
C1683 C1687 1.429 . S
C1684 C1667 1.574 . S
C1684 H1678 0.949 . S
C1684 C1688 1.368 . S
C1685 C1666 1.429 . S
C1685 C1679 1.429 . S
C1685 C1686 1.523 . S
C1686 C1667 1.368 . S
C1686 C1680 1.368 . S
C1686 C1685 1.523 . S
C1687 C1671 1.429 . S
C1687 C1683 1.429 . S
C1687 C1688 1.523 . S
C1688 C1672 1.368 . S
C1688 C1684 1.368 . S
C1688 C1687 1.523 . S
H1689 C1664 0.950 . S
H1690 C1666 0.950 . S
H1691 C1667 0.949 1_565 S
H1692 C1669 0.950 . S
H1693 C1671 0.950 . S
C1694 C1695 1.349 . S
C1694 C1696 1.327 . S
C1694 H1719 0.950 . S
C1695 C1694 1.349 . S
C1695 C1711 1.349 . S
C1696 C1694 1.327 . S
C1696 C1715 1.429 . S
C1696 H1720 0.950 . S
C1697 C1714 1.574 . S
C1697 C1716 1.368 . S
C1697 H1721 0.949 . S
H1698 C1702 0.949 . S
C1699 C1700 1.349 . S
C1699 C1701 1.327 . S
C1699 H1722 0.950 . S
C1700 C1699 1.349 . S
C1700 C1712 1.349 . S
C1701 C1699 1.327 . S
C1701 C1717 1.429 . S
C1701 H1723 0.950 . S
C1702 H1698 0.949 . S
C1702 C1710 1.574 . S
C1702 C1718 1.368 . S
H1703 C1711 0.950 . S
H1704 C1709 0.950 . S
H1705 C1710 0.949 . S
H1706 C1712 0.950 . S
H1707 C1713 0.950 . S
H1708 C1714 0.949 . S
C1709 H1704 0.950 . S
C1709 C1711 1.327 . S
C1709 C1715 1.429 . S
C1710 C1702 1.574 . S
C1710 H1705 0.949 . S
C1710 C1716 1.368 . S
C1711 C1695 1.349 . S
C1711 H1703 0.950 . S
C1711 C1709 1.327 . S
C1712 C1700 1.349 . S
C1712 H1706 0.950 . S
C1712 C1713 1.327 . S
C1713 H1707 0.950 . S
C1713 C1712 1.327 . S
C1713 C1717 1.429 . S
C1714 C1697 1.574 . S
C1714 H1708 0.949 . S
C1714 C1718 1.368 . S
C1715 C1696 1.429 . S
C1715 C1709 1.429 . S
C1715 C1716 1.523 . S
C1716 C1697 1.368 . S
C1716 C1710 1.368 . S
C1716 C1715 1.523 . S
C1717 C1701 1.429 . S
C1717 C1713 1.429 . S
C1717 C1718 1.523 . S
C1718 C1702 1.368 . S
C1718 C1714 1.368 . S
C1718 C1717 1.523 . S
H1719 C1694 0.950 . S
H1720 C1696 0.950 . S
H1721 C1697 0.949 . S
H1722 C1699 0.950 . S
H1723 C1701 0.950 . S
C1724 C1725 1.349 . S
C1724 C1726 1.327 . S
C1724 H1749 0.950 . S
C1725 C1724 1.349 . S
C1725 C1741 1.349 1_545 S
C1726 C1724 1.327 . S
C1726 C1745 1.429 1_545 S
C1726 H1750 0.950 . S
C1727 C1744 1.574 . S
C1727 C1746 1.368 . S
C1727 H1751 0.949 . S
H1728 C1732 0.949 . S
C1729 C1730 1.349 . S
C1729 C1731 1.327 . S
C1729 H1752 0.950 . S
C1730 C1729 1.349 . S
C1730 C1742 1.349 1_565 S
C1731 C1729 1.327 . S
C1731 C1747 1.429 . S
C1731 H1753 0.950 . S
C1732 H1728 0.949 . S
C1732 C1740 1.574 . S
C1732 C1748 1.368 1_545 S
H1733 C1741 0.950 . S
H1734 C1739 0.950 . S
H1735 C1740 0.949 . S
H1736 C1742 0.950 . S
H1737 C1743 0.950 . S
H1738 C1744 0.949 . S
C1739 H1734 0.950 . S
C1739 C1741 1.327 . S
C1739 C1745 1.429 . S
C1740 C1732 1.574 . S
C1740 H1735 0.949 . S
C1740 C1746 1.368 1_545 S
C1741 C1725 1.349 1_565 S
C1741 H1733 0.950 . S
C1741 C1739 1.327 . S
C1742 C1730 1.349 1_545 S
C1742 H1736 0.950 . S
C1742 C1743 1.327 . S
C1743 H1737 0.950 . S
C1743 C1742 1.327 . S
C1743 C1747 1.429 1_545 S
C1744 C1727 1.574 . S
C1744 H1738 0.949 . S
C1744 C1748 1.368 . S
C1745 C1726 1.429 1_565 S
C1745 C1739 1.429 . S
C1745 C1746 1.523 . S
C1746 C1727 1.368 . S
C1746 C1740 1.368 1_565 S
C1746 C1745 1.523 . S
C1747 C1731 1.429 . S
C1747 C1743 1.429 1_565 S
C1747 C1748 1.523 . S
C1748 C1732 1.368 1_565 S
C1748 C1744 1.368 . S
C1748 C1747 1.523 . S
H1749 C1724 0.950 . S
H1750 C1726 0.950 . S
H1751 C1727 0.949 . S
H1752 C1729 0.950 . S
H1753 C1731 0.950 . S
C1754 C1755 1.349 . S
C1754 C1756 1.327 . S
C1754 H1779 0.950 . S
C1755 C1754 1.349 . S
C1755 C1771 1.349 . S
C1756 C1754 1.327 . S
C1756 C1775 1.429 . S
C1756 H1780 0.950 . S
C1757 C1774 1.574 . S
C1757 C1776 1.368 . S
C1757 H1781 0.949 . S
H1758 C1762 0.949 . S
C1759 C1760 1.349 . S
C1759 C1761 1.327 . S
C1759 H1782 0.950 . S
C1760 C1759 1.349 . S
C1760 C1772 1.349 . S
C1761 C1759 1.327 . S
C1761 C1777 1.429 . S
C1761 H1783 0.950 . S
C1762 H1758 0.949 . S
C1762 C1770 1.574 . S
C1762 C1778 1.368 . S
H1763 C1771 0.950 . S
H1764 C1769 0.950 . S
H1765 C1770 0.949 . S
H1766 C1772 0.950 . S
H1767 C1773 0.950 . S
H1768 C1774 0.949 . S
C1769 H1764 0.950 . S
C1769 C1771 1.327 . S
C1769 C1775 1.429 . S
C1770 C1762 1.574 . S
C1770 H1765 0.949 . S
C1770 C1776 1.368 . S
C1771 C1755 1.349 . S
C1771 H1763 0.950 . S
C1771 C1769 1.327 . S
C1772 C1760 1.349 . S
C1772 H1766 0.950 . S
C1772 C1773 1.327 . S
C1773 H1767 0.950 . S
C1773 C1772 1.327 . S
C1773 C1777 1.429 . S
C1774 C1757 1.574 . S
C1774 H1768 0.949 . S
C1774 C1778 1.368 . S
C1775 C1756 1.429 . S
C1775 C1769 1.429 . S
C1775 C1776 1.523 . S
C1776 C1757 1.368 . S
C1776 C1770 1.368 . S
C1776 C1775 1.523 . S
C1777 C1761 1.429 . S
C1777 C1773 1.429 . S
C1777 C1778 1.523 . S
C1778 C1762 1.368 . S
C1778 C1774 1.368 . S
C1778 C1777 1.523 . S
H1779 C1754 0.950 . S
H1780 C1756 0.950 . S
H1781 C1757 0.949 . S
H1782 C1759 0.950 . S
H1783 C1761 0.950 . S
C1784 C1785 1.349 . S
C1784 C1786 1.327 . S
C1784 H1809 0.950 . S
C1785 C1784 1.349 . S
C1785 C1801 1.349 . S
C1786 C1784 1.327 . S
C1786 C1805 1.429 . S
C1786 H1810 0.950 . S
C1787 C1804 1.574 . S
C1787 C1806 1.368 1_565 S
C1787 H1811 0.949 . S
H1788 C1792 0.949 . S
C1789 C1790 1.349 . S
C1789 C1791 1.327 . S
C1789 H1812 0.950 . S
C1790 C1789 1.349 . S
C1790 C1802 1.349 1_565 S
C1791 C1789 1.327 . S
C1791 C1807 1.429 1_565 S
C1791 H1813 0.950 . S
C1792 H1788 0.949 . S
C1792 C1800 1.574 . S
C1792 C1808 1.368 . S
H1793 C1801 0.950 1_565 S
H1794 C1799 0.950 1_565 S
H1795 C1800 0.949 . S
H1796 C1802 0.916 1_455 S
H1797 C1803 0.950 . S
H1798 C1804 0.949 . S
C1799 H1794 0.950 1_545 S
C1799 C1801 1.327 . S
C1799 C1805 1.429 . S
C1800 C1792 1.574 . S
C1800 H1795 0.949 . S
C1800 C1806 1.368 . S
C1801 C1785 1.349 . S
C1801 H1793 0.950 1_545 S
C1801 C1799 1.327 . S
C1802 C1790 1.349 1_545 S
C1802 H1796 0.916 1_655 S
C1802 C1803 1.327 . S
C1803 H1797 0.950 . S
C1803 C1802 1.327 . S
C1803 C1807 1.429 . S
C1804 C1787 1.574 . S
C1804 H1798 0.949 . S
C1804 C1808 1.368 1_565 S
C1805 C1786 1.429 . S
C1805 C1799 1.429 . S
C1805 C1806 1.523 . S
C1806 C1787 1.368 1_545 S
C1806 C1800 1.368 . S
C1806 C1805 1.523 . S
C1807 C1791 1.429 1_545 S
C1807 C1803 1.429 . S
C1807 C1808 1.523 . S
C1808 C1792 1.368 . S
C1808 C1804 1.368 1_545 S
C1808 C1807 1.523 . S
H1809 C1784 0.950 . S
H1810 C1786 0.950 . S
H1811 C1787 0.949 . S
H1812 C1789 0.950 . S
H1813 C1791 0.950 . S
C1814 C1815 1.349 . S
C1814 C1816 1.327 . S
C1814 H1839 0.950 . S
C1815 C1814 1.349 . S
C1815 C1831 1.349 . S
C1816 C1814 1.327 . S
C1816 C1835 1.429 . S
C1816 H1840 0.950 . S
C1817 C1834 1.574 . S
C1817 C1836 1.368 . S
C1817 H1841 0.949 . S
H1818 C1822 0.949 . S
C1819 C1820 1.349 . S
C1819 C1821 1.327 . S
C1819 H1842 0.950 . S
C1820 C1819 1.349 . S
C1820 C1832 1.349 . S
C1821 C1819 1.327 . S
C1821 C1837 1.429 . S
C1821 H1843 0.950 . S
C1822 H1818 0.949 . S
C1822 C1830 1.574 . S
C1822 C1838 1.368 . S
H1823 C1831 0.950 . S
H1824 C1829 0.950 . S
H1825 C1830 0.949 . S
H1826 C1832 0.950 . S
H1827 C1833 0.950 . S
H1828 C1834 0.949 . S
C1829 H1824 0.950 . S
C1829 C1831 1.327 . S
C1829 C1835 1.429 . S
C1830 C1822 1.574 . S
C1830 H1825 0.949 . S
C1830 C1836 1.368 . S
C1831 C1815 1.349 . S
C1831 H1823 0.950 . S
C1831 C1829 1.327 . S
C1832 C1820 1.349 . S
C1832 H1826 0.950 . S
C1832 C1833 1.327 . S
C1833 H1827 0.950 . S
C1833 C1832 1.327 . S
C1833 C1837 1.429 . S
C1834 C1817 1.574 . S
C1834 H1828 0.949 . S
C1834 C1838 1.368 . S
C1835 C1816 1.429 . S
C1835 C1829 1.429 . S
C1835 C1836 1.523 . S
C1836 C1817 1.368 . S
C1836 C1830 1.368 . S
C1836 C1835 1.523 . S
C1837 C1821 1.429 . S
C1837 C1833 1.429 . S
C1837 C1838 1.523 . S
C1838 C1822 1.368 . S
C1838 C1834 1.368 . S
C1838 C1837 1.523 . S
H1839 C1814 0.950 . S
H1840 C1816 0.950 . S
H1841 C1817 0.949 . S
H1842 C1819 0.950 . S
H1843 C1821 0.950 . S
C1844 C1845 1.331 1_565 S
C1844 C1846 1.327 . S
C1844 H1869 0.950 . S
C1845 C1844 1.331 1_545 S
C1845 C1861 1.370 . S
C1846 C1844 1.327 . S
C1846 C1865 1.429 1_565 S
C1846 H1870 0.950 . S
C1847 C1864 1.574 . S
C1847 C1866 1.368 . S
C1847 H1871 0.949 . S
H1848 C1852 0.949 . S
C1849 C1850 1.349 . S
C1849 C1851 1.327 . S
C1849 H1872 0.950 . S
C1850 C1849 1.349 . S
C1850 C1862 1.349 . S
C1851 C1849 1.327 . S
C1851 C1867 1.429 . S
C1851 H1873 0.950 . S
C1852 H1848 0.949 . S
C1852 C1860 1.574 . S
C1852 C1868 1.368 1_565 S
H1853 C1861 0.950 . S
H1854 C1859 0.950 . S
H1855 C1860 0.949 . S
H1856 C1862 0.950 1_565 S
H1857 C1863 0.919 1_565 S
H1858 C1864 0.949 . S
C1859 H1854 0.950 . S
C1859 C1861 1.327 . S
C1859 C1865 1.429 . S
C1860 C1852 1.574 . S
C1860 H1855 0.949 . S
C1860 C1866 1.368 1_565 S
C1861 C1845 1.370 . S
C1861 H1853 0.950 . S
C1861 C1859 1.327 . S
C1862 C1850 1.349 . S
C1862 H1856 0.950 1_545 S
C1862 C1863 1.333 . S
C1863 H1857 0.919 1_545 S
C1863 C1862 1.333 . S
C1863 C1867 1.453 . S
C1864 C1847 1.574 . S
C1864 H1858 0.949 . S
C1864 C1868 1.368 . S
C1865 C1846 1.429 1_545 S
C1865 C1859 1.429 . S
C1865 C1866 1.523 . S
C1866 C1847 1.368 . S
C1866 C1860 1.368 1_545 S
C1866 C1865 1.523 . S
C1867 C1851 1.429 . S
C1867 C1863 1.453 . S
C1867 C1868 1.523 . S
C1868 C1852 1.368 1_545 S
C1868 C1864 1.368 . S
C1868 C1867 1.523 . S
H1869 C1844 0.950 . S
H1870 C1846 0.950 . S
H1871 C1847 0.949 . S
H1872 C1849 0.950 . S
H1873 C1851 0.950 . S
C1874 C1875 1.349 . S
C1874 C1876 1.327 . S
C1874 H1899 0.950 . S
C1875 C1874 1.349 . S
C1875 C1891 1.349 . S
C1876 C1874 1.327 . S
C1876 C1895 1.429 . S
C1876 H1900 0.950 . S
C1877 C1894 1.574 . S
C1877 C1896 1.368 . S
C1877 H1901 0.949 . S
H1878 C1882 0.949 . S
C1879 C1880 1.349 . S
C1879 C1881 1.327 . S
C1879 H1902 0.950 . S
C1880 C1879 1.349 . S
C1880 C1892 1.349 . S
C1881 C1879 1.327 . S
C1881 C1897 1.429 . S
C1881 H1903 0.950 . S
C1882 H1878 0.949 . S
C1882 C1890 1.574 . S
C1882 C1898 1.368 . S
H1883 C1891 0.950 . S
H1884 C1889 0.950 . S
H1885 C1890 0.949 . S
H1886 C1892 0.950 . S
H1887 C1893 0.950 . S
H1888 C1894 0.949 . S
C1889 H1884 0.950 . S
C1889 C1891 1.327 . S
C1889 C1895 1.429 . S
C1890 C1882 1.574 . S
C1890 H1885 0.949 . S
C1890 C1896 1.368 . S
C1891 C1875 1.349 . S
C1891 H1883 0.950 . S
C1891 C1889 1.327 . S
C1892 C1880 1.349 . S
C1892 H1886 0.950 . S
C1892 C1893 1.327 . S
C1893 H1887 0.950 . S
C1893 C1892 1.327 . S
C1893 C1897 1.429 . S
C1894 C1877 1.574 . S
C1894 H1888 0.949 . S
C1894 C1898 1.368 . S
C1895 C1876 1.429 . S
C1895 C1889 1.429 . S
C1895 C1896 1.523 . S
C1896 C1877 1.368 . S
C1896 C1890 1.368 . S
C1896 C1895 1.523 . S
C1897 C1881 1.429 . S
C1897 C1893 1.429 . S
C1897 C1898 1.523 . S
C1898 C1882 1.368 . S
C1898 C1894 1.368 . S
C1898 C1897 1.523 . S
H1899 C1874 0.950 . S
H1900 C1876 0.950 . S
H1901 C1877 0.949 . S
H1902 C1879 0.950 . S
H1903 C1881 0.950 . S
C1904 C1905 1.349 . S
C1904 C1906 1.327 . S
C1904 H1929 0.950 . S
C1905 C1904 1.349 . S
C1905 C1921 1.349 1_554 S
C1906 C1904 1.327 . S
C1906 C1925 1.429 . S
C1906 H1930 0.950 . S
C1907 C1924 1.574 . S
C1907 C1926 1.368 . S
C1907 H1931 0.949 1_554 S
H1908 C1912 0.949 . S
C1909 C1910 1.349 . S
C1909 C1911 1.327 . S
C1909 H1932 0.950 . S
C1910 C1909 1.349 . S
C1910 C1922 1.349 . S
C1911 C1909 1.327 . S
C1911 C1927 1.429 . S
C1911 H1933 0.981 . S
C1912 H1908 0.949 . S
C1912 C1920 1.574 . S
C1912 C1928 1.368 . S
H1913 C1921 0.950 . S
H1914 C1919 0.950 . S
H1915 C1920 0.949 . S
H1916 C1922 0.950 . S
H1917 C1923 0.950 . S
H1918 C1924 0.949 1_556 S
C1919 H1914 0.950 . S
C1919 C1921 1.327 . S
C1919 C1925 1.429 1_556 S
C1920 C1912 1.574 . S
C1920 H1915 0.949 . S
C1920 C1926 1.368 . S
C1921 C1905 1.349 1_556 S
C1921 H1913 0.950 . S
C1921 C1919 1.327 . S
C1922 C1910 1.349 . S
C1922 H1916 0.950 . S
C1922 C1923 1.327 . S
C1923 H1917 0.950 . S
C1923 C1922 1.327 . S
C1923 C1927 1.429 . S
C1924 C1907 1.574 . S
C1924 H1918 0.949 1_554 S
C1924 C1928 1.368 . S
C1925 C1906 1.429 . S
C1925 C1919 1.429 1_554 S
C1925 C1926 1.523 . S
C1926 C1907 1.368 . S
C1926 C1920 1.368 . S
C1926 C1925 1.523 . S
C1927 C1911 1.429 . S
C1927 C1923 1.429 . S
C1927 C1928 1.523 . S
C1928 C1912 1.368 . S
C1928 C1924 1.368 . S
C1928 C1927 1.523 . S
H1929 C1904 0.950 . S
H1930 C1906 0.950 . S
H1931 C1907 0.949 1_556 S
H1932 C1909 0.950 . S
H1933 C1911 0.981 . S
C1934 C1935 1.349 . S
C1934 C1936 1.327 . S
C1934 H1959 0.950 . S
C1935 C1934 1.349 . S
C1935 C1951 1.349 1_554 S
C1936 C1934 1.327 . S
C1936 C1955 1.449 . S
C1936 H1960 0.950 . S
C1937 C1954 1.574 . S
C1937 C1956 1.368 . S
C1937 H1961 0.949 . S
H1938 C1942 0.949 . S
C1939 C1940 1.349 . S
C1939 C1941 1.327 . S
C1939 H1962 0.950 . S
C1940 C1939 1.349 . S
C1940 C1952 1.349 1_556 S
C1941 C1939 1.327 . S
C1941 C1957 1.429 . S
C1941 H1963 0.950 . S
C1942 H1938 0.949 . S
C1942 C1950 1.574 . S
C1942 C1958 1.368 1_554 S
H1943 C1951 0.950 . S
H1944 C1949 0.950 . S
H1945 C1950 0.949 . S
H1946 C1952 0.950 . S
H1947 C1953 0.950 . S
H1948 C1954 0.949 . S
C1949 H1944 0.950 . S
C1949 C1951 1.327 . S
C1949 C1955 1.411 1_556 S
C1950 C1942 1.574 . S
C1950 H1945 0.949 . S
C1950 C1956 1.368 1_554 S
C1951 C1935 1.349 1_556 S
C1951 H1943 0.950 . S
C1951 C1949 1.327 . S
C1952 C1940 1.349 1_554 S
C1952 H1946 0.950 . S
C1952 C1953 1.327 . S
C1953 H1947 0.950 . S
C1953 C1952 1.327 . S
C1953 C1957 1.429 1_554 S
C1954 C1937 1.574 . S
C1954 H1948 0.949 . S
C1954 C1958 1.368 . S
C1955 C1936 1.449 . S
C1955 C1949 1.411 1_554 S
C1955 C1956 1.521 1_554 S
C1956 C1937 1.368 . S
C1956 C1950 1.368 1_556 S
C1956 C1955 1.521 1_556 S
C1957 C1941 1.429 . S
C1957 C1953 1.429 1_556 S
C1957 C1958 1.523 . S
C1958 C1942 1.368 1_556 S
C1958 C1954 1.368 . S
C1958 C1957 1.523 . S
H1959 C1934 0.950 . S
H1960 C1936 0.950 . S
H1961 C1937 0.949 . S
H1962 C1939 0.950 . S
H1963 C1941 0.950 . S
C1964 C1965 1.349 . S
C1964 C1966 1.327 . S
C1964 H1989 0.950 . S
C1965 C1964 1.349 . S
C1965 C1981 1.349 . S
C1966 C1964 1.327 . S
C1966 C1985 1.429 . S
C1966 H1990 0.950 . S
C1967 C1984 1.574 . S
C1967 C1986 1.368 . S
C1967 H1991 0.949 . S
H1968 C1972 0.949 . S
C1969 C1970 1.349 . S
C1969 C1971 1.327 . S
C1969 H1992 0.950 . S
C1970 C1969 1.349 . S
C1970 C1982 1.349 . S
C1971 C1969 1.327 . S
C1971 C1987 1.429 . S
C1971 H1993 0.950 . S
C1972 H1968 0.949 . S
C1972 C1980 1.574 . S
C1972 C1988 1.368 . S
H1973 C1981 0.950 . S
H1974 C1979 0.950 . S
H1975 C1980 0.949 . S
H1976 C1982 0.950 . S
H1977 C1983 0.950 . S
H1978 C1984 0.949 . S
C1979 H1974 0.950 . S
C1979 C1981 1.327 . S
C1979 C1985 1.429 . S
C1980 C1972 1.574 . S
C1980 H1975 0.949 . S
C1980 C1986 1.368 . S
C1981 C1965 1.349 . S
C1981 H1973 0.950 . S
C1981 C1979 1.327 . S
C1982 C1970 1.349 . S
C1982 H1976 0.950 . S
C1982 C1983 1.327 . S
C1983 H1977 0.950 . S
C1983 C1982 1.327 . S
C1983 C1987 1.429 . S
C1984 C1967 1.574 . S
C1984 H1978 0.949 . S
C1984 C1988 1.368 . S
C1985 C1966 1.429 . S
C1985 C1979 1.429 . S
C1985 C1986 1.523 . S
C1986 C1967 1.368 . S
C1986 C1980 1.368 . S
C1986 C1985 1.523 . S
C1987 C1971 1.429 . S
C1987 C1983 1.429 . S
C1987 C1988 1.523 . S
C1988 C1972 1.368 . S
C1988 C1984 1.368 . S
C1988 C1987 1.523 . S
H1989 C1964 0.950 . S
H1990 C1966 0.950 . S
H1991 C1967 0.949 . S
H1992 C1969 0.950 . S
H1993 C1971 0.950 . S
C1994 C1995 1.349 . S
C1994 C1996 1.327 . S
C1994 H2019 0.950 . S
C1995 C1994 1.349 . S
C1995 C2011 1.349 . S
C1996 C1994 1.327 . S
C1996 C2015 1.429 . S
C1996 H2020 0.950 . S
C1997 C2014 1.574 . S
C1997 C2016 1.368 . S
C1997 H2021 0.949 . S
H1998 C2002 0.949 . S
C1999 C2000 1.349 . S
C1999 C2001 1.327 . S
C1999 H2022 0.950 . S
C2000 C1999 1.349 . S
C2000 C2012 1.349 . S
C2001 C1999 1.327 . S
C2001 C2017 1.429 . S
C2001 H2023 0.950 . S
C2002 H1998 0.949 . S
C2002 C2010 1.574 . S
C2002 C2018 1.368 . S
H2003 C2011 0.950 . S
H2004 C2009 0.950 . S
H2005 C2010 0.949 . S
H2006 C2012 0.950 . S
H2007 C2013 0.950 . S
H2008 C2014 0.949 . S
C2009 H2004 0.950 . S
C2009 C2011 1.327 . S
C2009 C2015 1.429 . S
C2010 C2002 1.574 . S
C2010 H2005 0.949 . S
C2010 C2016 1.368 . S
C2011 C1995 1.349 . S
C2011 H2003 0.950 . S
C2011 C2009 1.327 . S
C2012 C2000 1.349 . S
C2012 H2006 0.950 . S
C2012 C2013 1.327 . S
C2013 H2007 0.950 . S
C2013 C2012 1.327 . S
C2013 C2017 1.429 . S
C2014 C1997 1.574 . S
C2014 H2008 0.949 . S
C2014 C2018 1.368 . S
C2015 C1996 1.429 . S
C2015 C2009 1.429 . S
C2015 C2016 1.523 . S
C2016 C1997 1.368 . S
C2016 C2010 1.368 . S
C2016 C2015 1.523 . S
C2017 C2001 1.429 . S
C2017 C2013 1.429 . S
C2017 C2018 1.523 . S
C2018 C2002 1.368 . S
C2018 C2014 1.368 . S
C2018 C2017 1.523 . S
H2019 C1994 0.950 . S
H2020 C1996 0.950 . S
H2021 C1997 0.949 . S
H2022 C1999 0.950 . S
H2023 C2001 0.950 . S
C2024 C2025 1.349 . S
C2024 C2026 1.327 . S
C2024 H2049 0.950 . S
C2025 C2024 1.349 . S
C2025 C2041 1.349 . S
C2026 C2024 1.327 . S
C2026 C2045 1.429 . S
C2026 H2050 0.950 . S
C2027 C2044 1.574 . S
C2027 C2046 1.368 . S
C2027 H2051 0.949 . S
H2028 C2032 0.949 . S
C2029 C2030 1.349 . S
C2029 C2031 1.327 . S
C2029 H2052 0.950 . S
C2030 C2029 1.349 . S
C2030 C2042 1.349 . S
C2031 C2029 1.327 . S
C2031 C2047 1.429 . S
C2031 H2053 0.950 . S
C2032 H2028 0.949 . S
C2032 C2040 1.574 . S
C2032 C2048 1.368 . S
H2033 C2041 0.950 . S
H2034 C2039 0.950 . S
H2035 C2040 0.949 . S
H2036 C2042 0.950 . S
H2037 C2043 0.950 . S
H2038 C2044 0.949 . S
C2039 H2034 0.950 . S
C2039 C2041 1.327 . S
C2039 C2045 1.429 . S
C2040 C2032 1.574 . S
C2040 H2035 0.949 . S
C2040 C2046 1.368 . S
C2041 C2025 1.349 . S
C2041 H2033 0.950 . S
C2041 C2039 1.327 . S
C2042 C2030 1.349 . S
C2042 H2036 0.950 . S
C2042 C2043 1.327 . S
C2043 H2037 0.950 . S
C2043 C2042 1.327 . S
C2043 C2047 1.429 . S
C2044 C2027 1.574 . S
C2044 H2038 0.949 . S
C2044 C2048 1.368 . S
C2045 C2026 1.429 . S
C2045 C2039 1.429 . S
C2045 C2046 1.523 . S
C2046 C2027 1.368 . S
C2046 C2040 1.368 . S
C2046 C2045 1.523 . S
C2047 C2031 1.429 . S
C2047 C2043 1.429 . S
C2047 C2048 1.523 . S
C2048 C2032 1.368 . S
C2048 C2044 1.368 . S
C2048 C2047 1.523 . S
H2049 C2024 0.950 . S
H2050 C2026 0.950 . S
H2051 C2027 0.949 . S
H2052 C2029 0.950 . S
H2053 C2031 0.950 . S
C2054 C2055 1.349 . S
C2054 C2056 1.327 . S
C2054 H2079 0.950 . S
C2055 C2054 1.349 . S
C2055 C2071 1.349 . S
C2056 C2054 1.327 . S
C2056 C2075 1.429 . S
C2056 H2080 0.950 . S
C2057 C2074 1.574 . S
C2057 C2076 1.368 . S
C2057 H2081 0.949 . S
H2058 C2062 0.949 . S
C2059 C2060 1.349 . S
C2059 C2061 1.327 . S
C2059 H2082 0.950 . S
C2060 C2059 1.349 . S
C2060 C2072 1.349 . S
C2061 C2059 1.327 . S
C2061 C2077 1.429 . S
C2061 H2083 0.950 . S
C2062 H2058 0.949 . S
C2062 C2070 1.574 . S
C2062 C2078 1.368 . S
H2063 C2071 0.950 . S
H2064 C2069 0.950 . S
H2065 C2070 0.949 . S
H2066 C2072 0.950 . S
H2067 C2073 0.950 . S
H2068 C2074 0.949 . S
C2069 H2064 0.950 . S
C2069 C2071 1.327 . S
C2069 C2075 1.429 . S
C2070 C2062 1.574 . S
C2070 H2065 0.949 . S
C2070 C2076 1.368 . S
C2071 C2055 1.349 . S
C2071 H2063 0.950 . S
C2071 C2069 1.327 . S
C2072 C2060 1.349 . S
C2072 H2066 0.950 . S
C2072 C2073 1.327 . S
C2073 H2067 0.950 . S
C2073 C2072 1.327 . S
C2073 C2077 1.429 . S
C2074 C2057 1.574 . S
C2074 H2068 0.949 . S
C2074 C2078 1.368 . S
C2075 C2056 1.429 . S
C2075 C2069 1.429 . S
C2075 C2076 1.523 . S
C2076 C2057 1.368 . S
C2076 C2070 1.368 . S
C2076 C2075 1.523 . S
C2077 C2061 1.429 . S
C2077 C2073 1.429 . S
C2077 C2078 1.523 . S
C2078 C2062 1.368 . S
C2078 C2074 1.368 . S
C2078 C2077 1.523 . S
H2079 C2054 0.950 . S
H2080 C2056 0.950 . S
H2081 C2057 0.949 . S
H2082 C2059 0.950 . S
H2083 C2061 0.950 . S
C2084 C2085 1.349 . S
C2084 C2086 1.327 . S
C2084 H2109 0.950 . S
C2085 C2084 1.349 . S
C2085 C2101 1.349 . S
C2086 C2084 1.327 . S
C2086 C2105 1.429 . S
C2086 H2110 0.950 . S
C2087 C2104 1.574 . S
C2087 C2106 1.368 . S
C2087 H2111 0.949 . S
H2088 C2092 0.949 . S
C2089 C2090 1.349 . S
C2089 C2091 1.327 . S
C2089 H2112 0.950 . S
C2090 C2089 1.349 . S
C2090 C2102 1.349 . S
C2091 C2089 1.327 . S
C2091 C2107 1.429 . S
C2091 H2113 0.950 . S
C2092 H2088 0.949 . S
C2092 C2100 1.574 . S
C2092 C2108 1.368 . S
H2093 C2101 0.950 . S
H2094 C2099 0.950 . S
H2095 C2100 0.949 . S
H2096 C2102 0.950 . S
H2097 C2103 0.950 . S
H2098 C2104 0.949 . S
C2099 H2094 0.950 . S
C2099 C2101 1.327 . S
C2099 C2105 1.429 . S
C2100 C2092 1.574 . S
C2100 H2095 0.949 . S
C2100 C2106 1.368 . S
C2101 C2085 1.349 . S
C2101 H2093 0.950 . S
C2101 C2099 1.327 . S
C2102 C2090 1.349 . S
C2102 H2096 0.950 . S
C2102 C2103 1.327 . S
C2103 H2097 0.950 . S
C2103 C2102 1.327 . S
C2103 C2107 1.429 . S
C2104 C2087 1.574 . S
C2104 H2098 0.949 . S
C2104 C2108 1.368 . S
C2105 C2086 1.429 . S
C2105 C2099 1.429 . S
C2105 C2106 1.523 . S
C2106 C2087 1.368 . S
C2106 C2100 1.368 . S
C2106 C2105 1.523 . S
C2107 C2091 1.429 . S
C2107 C2103 1.429 . S
C2107 C2108 1.523 . S
C2108 C2092 1.368 . S
C2108 C2104 1.368 . S
C2108 C2107 1.523 . S
H2109 C2084 0.950 . S
H2110 C2086 0.950 . S
H2111 C2087 0.949 . S
H2112 C2089 0.950 . S
H2113 C2091 0.950 . S
C2114 C2115 1.349 . S
C2114 C2116 1.327 . S
C2114 H2139 0.950 . S
C2115 C2114 1.349 . S
C2115 C2131 1.349 . S
C2116 C2114 1.327 . S
C2116 C2135 1.429 . S
C2116 H2140 0.950 . S
C2117 C2134 1.574 . S
C2117 C2136 1.368 . S
C2117 H2141 0.949 . S
H2118 C2122 0.949 . S
C2119 C2120 1.349 . S
C2119 C2121 1.327 . S
C2119 H2142 0.950 . S
C2120 C2119 1.349 . S
C2120 C2132 1.349 . S
C2121 C2119 1.327 . S
C2121 C2137 1.429 . S
C2121 H2143 0.950 . S
C2122 H2118 0.949 . S
C2122 C2130 1.574 . S
C2122 C2138 1.368 . S
H2123 C2131 0.950 . S
H2124 C2129 0.950 . S
H2125 C2130 0.949 . S
H2126 C2132 0.950 . S
H2127 C2133 0.950 . S
H2128 C2134 0.949 . S
C2129 H2124 0.950 . S
C2129 C2131 1.327 . S
C2129 C2135 1.429 . S
C2130 C2122 1.574 . S
C2130 H2125 0.949 . S
C2130 C2136 1.368 . S
C2131 C2115 1.349 . S
C2131 H2123 0.950 . S
C2131 C2129 1.327 . S
C2132 C2120 1.349 . S
C2132 H2126 0.950 . S
C2132 C2133 1.327 . S
C2133 H2127 0.950 . S
C2133 C2132 1.327 . S
C2133 C2137 1.429 . S
C2134 C2117 1.574 . S
C2134 H2128 0.949 . S
C2134 C2138 1.368 . S
C2135 C2116 1.429 . S
C2135 C2129 1.429 . S
C2135 C2136 1.523 . S
C2136 C2117 1.368 . S
C2136 C2130 1.368 . S
C2136 C2135 1.523 . S
C2137 C2121 1.429 . S
C2137 C2133 1.429 . S
C2137 C2138 1.523 . S
C2138 C2122 1.368 . S
C2138 C2134 1.368 . S
C2138 C2137 1.523 . S
H2139 C2114 0.950 . S
H2140 C2116 0.950 . S
H2141 C2117 0.949 . S
H2142 C2119 0.950 . S
H2143 C2121 0.950 . S
C2144 C2145 1.349 . S
C2144 C2146 1.327 . S
C2144 H2169 0.950 . S
C2145 C2144 1.349 . S
C2145 C2161 1.349 . S
C2146 C2144 1.327 . S
C2146 C2165 1.429 . S
C2146 H2170 0.950 . S
C2147 C2164 1.574 . S
C2147 C2166 1.368 . S
C2147 H2171 0.949 . S
H2148 C2152 0.949 . S
C2149 C2150 1.349 . S
C2149 C2151 1.327 . S
C2149 H2172 0.950 . S
C2150 C2149 1.349 . S
C2150 C2162 1.349 . S
C2151 C2149 1.327 . S
C2151 C2167 1.429 . S
C2151 H2173 0.950 . S
C2152 H2148 0.949 . S
C2152 C2160 1.574 . S
C2152 C2168 1.368 . S
H2153 C2161 0.950 . S
H2154 C2159 0.950 . S
H2155 C2160 0.949 . S
H2156 C2162 0.950 . S
H2157 C2163 0.950 . S
H2158 C2164 0.949 . S
C2159 H2154 0.950 . S
C2159 C2161 1.327 . S
C2159 C2165 1.429 . S
C2160 C2152 1.574 . S
C2160 H2155 0.949 . S
C2160 C2166 1.368 . S
C2161 C2145 1.349 . S
C2161 H2153 0.950 . S
C2161 C2159 1.327 . S
C2162 C2150 1.349 . S
C2162 H2156 0.950 . S
C2162 C2163 1.327 . S
C2163 H2157 0.950 . S
C2163 C2162 1.327 . S
C2163 C2167 1.429 . S
C2164 C2147 1.574 . S
C2164 H2158 0.949 . S
C2164 C2168 1.368 . S
C2165 C2146 1.429 . S
C2165 C2159 1.429 . S
C2165 C2166 1.523 . S
C2166 C2147 1.368 . S
C2166 C2160 1.368 . S
C2166 C2165 1.523 . S
C2167 C2151 1.429 . S
C2167 C2163 1.429 . S
C2167 C2168 1.523 . S
C2168 C2152 1.368 . S
C2168 C2164 1.368 . S
C2168 C2167 1.523 . S
H2169 C2144 0.950 . S
H2170 C2146 0.950 . S
H2171 C2147 0.949 . S
H2172 C2149 0.950 . S
H2173 C2151 0.950 . S
C2174 C2175 1.349 . S
C2174 C2176 1.327 . S
C2174 H2199 0.950 . S
C2175 C2174 1.349 . S
C2175 C2191 1.349 . S
C2176 C2174 1.327 . S
C2176 C2195 1.429 . S
C2176 H2200 0.950 . S
C2177 C2194 1.574 . S
C2177 C2196 1.368 . S
C2177 H2201 0.949 . S
H2178 C2182 0.949 . S
C2179 C2180 1.349 . S
C2179 C2181 1.327 . S
C2179 H2202 0.950 . S
C2180 C2179 1.349 . S
C2180 C2192 1.349 . S
C2181 C2179 1.327 . S
C2181 C2197 1.429 . S
C2181 H2203 0.950 . S
C2182 H2178 0.949 . S
C2182 C2190 1.574 . S
C2182 C2198 1.368 . S
H2183 C2191 0.950 . S
H2184 C2189 0.950 . S
H2185 C2190 0.949 . S
H2186 C2192 0.950 . S
H2187 C2193 0.950 . S
H2188 C2194 0.949 . S
C2189 H2184 0.950 . S
C2189 C2191 1.327 . S
C2189 C2195 1.429 . S
C2190 C2182 1.574 . S
C2190 H2185 0.949 . S
C2190 C2196 1.368 . S
C2191 C2175 1.349 . S
C2191 H2183 0.950 . S
C2191 C2189 1.327 . S
C2192 C2180 1.349 . S
C2192 H2186 0.950 . S
C2192 C2193 1.327 . S
C2193 H2187 0.950 . S
C2193 C2192 1.327 . S
C2193 C2197 1.429 . S
C2194 C2177 1.574 . S
C2194 H2188 0.949 . S
C2194 C2198 1.368 . S
C2195 C2176 1.429 . S
C2195 C2189 1.429 . S
C2195 C2196 1.523 . S
C2196 C2177 1.368 . S
C2196 C2190 1.368 . S
C2196 C2195 1.523 . S
C2197 C2181 1.429 . S
C2197 C2193 1.429 . S
C2197 C2198 1.523 . S
C2198 C2182 1.368 . S
C2198 C2194 1.368 . S
C2198 C2197 1.523 . S
H2199 C2174 0.950 . S
H2200 C2176 0.950 . S
H2201 C2177 0.949 . S
H2202 C2179 0.950 . S
H2203 C2181 0.950 . S
C2204 C2205 1.349 . S
C2204 C2206 1.327 . S
C2204 H2229 0.950 . S
C2205 C2204 1.349 . S
C2205 C2221 1.349 1_455 S
C2206 C2204 1.327 . S
C2206 C2225 1.429 . S
C2206 H2230 0.950 . S
C2207 C2224 1.574 . S
C2207 C2226 1.368 . S
C2207 H2231 0.949 1_455 S
H2208 C2212 0.949 . S
C2209 C2210 1.349 . S
C2209 C2211 1.327 . S
C2209 H2232 0.950 . S
C2210 C2209 1.349 . S
C2210 C2222 1.349 . S
C2211 C2209 1.327 . S
C2211 C2227 1.429 . S
C2211 H2233 0.950 . S
C2212 H2208 0.949 . S
C2212 C2220 1.574 . S
C2212 C2228 1.368 . S
H2213 C2221 0.950 . S
H2214 C2219 0.958 . S
H2215 C2220 0.949 . S
H2216 C2222 0.950 . S
H2217 C2223 0.950 . S
H2218 C2224 0.938 1_655 S
C2219 H2214 0.958 . S
C2219 C2221 1.329 . S
C2219 C2225 1.419 1_655 S
C2220 C2212 1.574 . S
C2220 H2215 0.949 . S
C2220 C2226 1.368 . S
C2221 C2205 1.349 1_655 S
C2221 H2213 0.950 . S
C2221 C2219 1.329 . S
C2222 C2210 1.349 . S
C2222 H2216 0.950 . S
C2222 C2223 1.327 . S
C2223 H2217 0.950 . S
C2223 C2222 1.327 . S
C2223 C2227 1.429 . S
C2224 C2207 1.574 . S
C2224 H2218 0.938 1_455 S
C2224 C2228 1.368 . S
C2225 C2206 1.429 . S
C2225 C2219 1.419 1_455 S
C2225 C2226 1.523 . S
C2226 C2207 1.368 . S
C2226 C2220 1.368 . S
C2226 C2225 1.523 . S
C2227 C2211 1.429 . S
C2227 C2223 1.429 . S
C2227 C2228 1.523 . S
C2228 C2212 1.368 . S
C2228 C2224 1.368 . S
C2228 C2227 1.523 . S
H2229 C2204 0.950 . S
H2230 C2206 0.950 . S
H2231 C2207 0.949 1_655 S
H2232 C2209 0.950 . S
H2233 C2211 0.950 . S
C2234 C2235 1.349 . S
C2234 C2236 1.327 . S
C2234 H2259 0.950 . S
C2235 C2234 1.349 . S
C2235 C2251 1.349 . S
C2236 C2234 1.327 . S
C2236 C2255 1.429 . S
C2236 H2260 0.950 . S
C2237 C2254 1.574 . S
C2237 C2256 1.368 . S
C2237 H2261 0.949 . S
H2238 C2242 0.949 . S
C2239 C2240 1.349 . S
C2239 C2241 1.327 . S
C2239 H2262 0.950 . S
C2240 C2239 1.349 . S
C2240 C2252 1.349 . S
C2241 C2239 1.327 . S
C2241 C2257 1.429 . S
C2241 H2263 0.950 . S
C2242 H2238 0.949 . S
C2242 C2250 1.574 . S
C2242 C2258 1.368 . S
H2243 C2251 0.950 . S
H2244 C2249 0.950 . S
H2245 C2250 0.949 . S
H2246 C2252 0.950 . S
H2247 C2253 0.950 . S
H2248 C2254 0.949 . S
C2249 H2244 0.950 . S
C2249 C2251 1.327 . S
C2249 C2255 1.429 . S
C2250 C2242 1.574 . S
C2250 H2245 0.949 . S
C2250 C2256 1.368 . S
C2251 C2235 1.349 . S
C2251 H2243 0.950 . S
C2251 C2249 1.327 . S
C2252 C2240 1.349 . S
C2252 H2246 0.950 . S
C2252 C2253 1.327 . S
C2253 H2247 0.950 . S
C2253 C2252 1.327 . S
C2253 C2257 1.429 . S
C2254 C2237 1.574 . S
C2254 H2248 0.949 . S
C2254 C2258 1.368 . S
C2255 C2236 1.429 . S
C2255 C2249 1.429 . S
C2255 C2256 1.523 . S
C2256 C2237 1.368 . S
C2256 C2250 1.368 . S
C2256 C2255 1.523 . S
C2257 C2241 1.429 . S
C2257 C2253 1.429 . S
C2257 C2258 1.523 . S
C2258 C2242 1.368 . S
C2258 C2254 1.368 . S
C2258 C2257 1.523 . S
H2259 C2234 0.950 . S
H2260 C2236 0.950 . S
H2261 C2237 0.949 . S
H2262 C2239 0.950 . S
H2263 C2241 0.950 . S
C2264 C2265 1.349 . S
C2264 C2266 1.327 . S
C2264 H2289 0.950 . S
C2265 C2264 1.349 . S
C2265 C2281 1.349 . S
C2266 C2264 1.327 . S
C2266 C2285 1.429 . S
C2266 H2290 0.950 . S
C2267 C2284 1.574 . S
C2267 C2286 1.368 . S
C2267 H2291 0.949 . S
H2268 C2272 0.949 . S
C2269 C2270 1.349 . S
C2269 C2271 1.327 1_554 S
C2269 H2292 0.950 . S
C2270 C2269 1.349 . S
C2270 C2282 1.349 1_554 S
C2271 C2269 1.327 1_556 S
C2271 C2287 1.429 . S
C2271 H2293 0.950 1_556 S
C2272 H2268 0.949 . S
C2272 C2280 1.574 . S
C2272 C2288 1.368 . S
H2273 C2281 0.950 . S
H2274 C2279 0.950 . S
H2275 C2280 0.949 . S
H2276 C2282 0.950 . S
H2277 C2283 0.950 . S
H2278 C2284 0.949 . S
C2279 H2274 0.950 . S
C2279 C2281 1.327 . S
C2279 C2285 1.429 . S
C2280 C2272 1.574 . S
C2280 H2275 0.949 . S
C2280 C2286 1.368 . S
C2281 C2265 1.349 . S
C2281 H2273 0.950 . S
C2281 C2279 1.327 . S
C2282 C2270 1.349 1_556 S
C2282 H2276 0.950 . S
C2282 C2283 1.327 . S
C2283 H2277 0.950 . S
C2283 C2282 1.327 . S
C2283 C2287 1.429 . S
C2284 C2267 1.574 . S
C2284 H2278 0.949 . S
C2284 C2288 1.368 . S
C2285 C2266 1.429 . S
C2285 C2279 1.429 . S
C2285 C2286 1.523 . S
C2286 C2267 1.368 . S
C2286 C2280 1.368 . S
C2286 C2285 1.523 . S
C2287 C2271 1.429 . S
C2287 C2283 1.429 . S
C2287 C2288 1.523 . S
C2288 C2272 1.368 . S
C2288 C2284 1.368 . S
C2288 C2287 1.523 . S
H2289 C2264 0.950 . S
H2290 C2266 0.950 . S
H2291 C2267 0.949 . S
H2292 C2269 0.950 . S
H2293 C2271 0.950 1_554 S
C2294 C2295 1.349 . S
C2294 C2296 1.327 . S
C2294 H2319 0.950 . S
C2295 C2294 1.349 . S
C2295 C2311 1.349 . S
C2296 C2294 1.327 . S
C2296 C2315 1.429 . S
C2296 H2320 0.950 . S
C2297 C2314 1.574 . S
C2297 C2316 1.368 . S
C2297 H2321 0.949 . S
H2298 C2302 0.949 . S
C2299 C2300 1.349 . S
C2299 C2301 1.327 . S
C2299 H2322 0.950 . S
C2300 C2299 1.349 . S
C2300 C2312 1.349 . S
C2301 C2299 1.327 . S
C2301 C2317 1.429 . S
C2301 H2323 0.950 . S
C2302 H2298 0.949 . S
C2302 C2310 1.574 . S
C2302 C2318 1.368 . S
H2303 C2311 0.950 . S
H2304 C2309 0.950 . S
H2305 C2310 0.949 . S
H2306 C2312 0.950 . S
H2307 C2313 0.950 . S
H2308 C2314 0.949 . S
C2309 H2304 0.950 . S
C2309 C2311 1.327 . S
C2309 C2315 1.429 . S
C2310 C2302 1.574 . S
C2310 H2305 0.949 . S
C2310 C2316 1.368 . S
C2311 C2295 1.349 . S
C2311 H2303 0.950 . S
C2311 C2309 1.327 . S
C2312 C2300 1.349 . S
C2312 H2306 0.950 . S
C2312 C2313 1.327 . S
C2313 H2307 0.950 . S
C2313 C2312 1.327 . S
C2313 C2317 1.429 . S
C2314 C2297 1.574 . S
C2314 H2308 0.949 . S
C2314 C2318 1.368 . S
C2315 C2296 1.429 . S
C2315 C2309 1.429 . S
C2315 C2316 1.523 . S
C2316 C2297 1.368 . S
C2316 C2310 1.368 . S
C2316 C2315 1.523 . S
C2317 C2301 1.429 . S
C2317 C2313 1.429 . S
C2317 C2318 1.523 . S
C2318 C2302 1.368 . S
C2318 C2314 1.368 . S
C2318 C2317 1.523 . S
H2319 C2294 0.950 . S
H2320 C2296 0.950 . S
H2321 C2297 0.949 . S
H2322 C2299 0.950 . S
H2323 C2301 0.950 . S
C2324 C2325 1.349 . S
C2324 C2326 1.327 . S
C2324 H2349 0.950 . S
C2325 C2324 1.349 . S
C2325 C2341 1.349 1_455 S
C2326 C2324 1.327 . S
C2326 C2345 1.429 . S
C2326 H2350 0.950 . S
C2327 C2344 1.578 . S
C2327 C2346 1.393 . S
C2327 H2351 0.925 1_455 S
H2328 C2332 0.949 . S
C2329 C2330 1.349 . S
C2329 C2331 1.327 . S
C2329 H2352 0.978 . S
C2330 C2329 1.349 . S
C2330 C2342 1.349 . S
C2331 C2329 1.327 . S
C2331 C2347 1.429 . S
C2331 H2353 0.950 1_455 S
C2332 H2328 0.949 . S
C2332 C2340 1.574 . S
C2332 C2348 1.368 . S
H2333 C2341 0.950 . S
H2334 C2339 0.950 . S
H2335 C2340 0.949 . S
H2336 C2342 0.950 . S
H2337 C2343 0.950 . S
H2338 C2344 0.949 1_655 S
C2339 H2334 0.950 . S
C2339 C2341 1.327 . S
C2339 C2345 1.429 1_655 S
C2340 C2332 1.574 . S
C2340 H2335 0.949 . S
C2340 C2346 1.368 . S
C2341 C2325 1.349 1_655 S
C2341 H2333 0.950 . S
C2341 C2339 1.327 . S
C2342 C2330 1.349 . S
C2342 H2336 0.950 . S
C2342 C2343 1.327 . S
C2343 H2337 0.950 . S
C2343 C2342 1.327 . S
C2343 C2347 1.429 . S
C2344 C2327 1.578 . S
C2344 H2338 0.949 1_455 S
C2344 C2348 1.368 . S
C2345 C2326 1.429 . S
C2345 C2339 1.429 1_455 S
C2345 C2346 1.523 . S
C2346 C2327 1.393 . S
C2346 C2340 1.368 . S
C2346 C2345 1.523 . S
C2347 C2331 1.429 . S
C2347 C2343 1.429 . S
C2347 C2348 1.523 . S
C2348 C2332 1.368 . S
C2348 C2344 1.368 . S
C2348 C2347 1.523 . S
H2349 C2324 0.950 . S
H2350 C2326 0.950 . S
H2351 C2327 0.925 1_655 S
H2352 C2329 0.978 . S
H2353 C2331 0.950 1_655 S
C2354 C2355 1.349 . S
C2354 C2356 1.327 . S
C2354 H2379 0.950 . S
C2355 C2354 1.349 . S
C2355 C2371 1.349 . S
C2356 C2354 1.327 . S
C2356 C2375 1.429 . S
C2356 H2380 0.950 . S
C2357 C2374 1.574 . S
C2357 C2376 1.368 . S
C2357 H2381 0.949 . S
H2358 C2362 0.949 . S
C2359 C2360 1.349 . S
C2359 C2361 1.327 . S
C2359 H2382 0.950 . S
C2360 C2359 1.349 . S
C2360 C2372 1.349 . S
C2361 C2359 1.327 . S
C2361 C2377 1.429 . S
C2361 H2383 0.950 . S
C2362 H2358 0.949 . S
C2362 C2370 1.574 . S
C2362 C2378 1.368 . S
H2363 C2371 0.950 . S
H2364 C2369 0.950 . S
H2365 C2370 0.949 . S
H2366 C2372 0.950 . S
H2367 C2373 0.950 . S
H2368 C2374 0.949 . S
C2369 H2364 0.950 . S
C2369 C2371 1.327 . S
C2369 C2375 1.429 . S
C2370 C2362 1.574 . S
C2370 H2365 0.949 . S
C2370 C2376 1.368 . S
C2371 C2355 1.349 . S
C2371 H2363 0.950 . S
C2371 C2369 1.327 . S
C2372 C2360 1.349 . S
C2372 H2366 0.950 . S
C2372 C2373 1.327 . S
C2373 H2367 0.950 . S
C2373 C2372 1.327 . S
C2373 C2377 1.429 . S
C2374 C2357 1.574 . S
C2374 H2368 0.949 . S
C2374 C2378 1.368 . S
C2375 C2356 1.429 . S
C2375 C2369 1.429 . S
C2375 C2376 1.523 . S
C2376 C2357 1.368 . S
C2376 C2370 1.368 . S
C2376 C2375 1.523 . S
C2377 C2361 1.429 . S
C2377 C2373 1.429 . S
C2377 C2378 1.523 . S
C2378 C2362 1.368 . S
C2378 C2374 1.368 . S
C2378 C2377 1.523 . S
H2379 C2354 0.950 . S
H2380 C2356 0.950 . S
H2381 C2357 0.949 . S
H2382 C2359 0.950 . S
H2383 C2361 0.950 . S
C2384 C2385 1.349 . S
C2384 C2386 1.327 . S
C2384 H2409 0.950 . S
C2385 C2384 1.349 . S
C2385 C2401 1.349 . S
C2386 C2384 1.327 . S
C2386 C2405 1.429 . S
C2386 H2410 0.950 . S
C2387 C2404 1.574 . S
C2387 C2406 1.368 . S
C2387 H2411 0.949 . S
H2388 C2392 0.949 . S
C2389 C2390 1.349 . S
C2389 C2391 1.327 . S
C2389 H2412 0.950 . S
C2390 C2389 1.349 . S
C2390 C2402 1.349 . S
C2391 C2389 1.327 . S
C2391 C2407 1.429 . S
C2391 H2413 0.950 . S
C2392 H2388 0.949 . S
C2392 C2400 1.574 . S
C2392 C2408 1.368 . S
H2393 C2401 0.950 . S
H2394 C2399 0.950 . S
H2395 C2400 0.949 . S
H2396 C2402 0.950 . S
H2397 C2403 0.950 . S
H2398 C2404 0.949 . S
C2399 H2394 0.950 . S
C2399 C2401 1.327 . S
C2399 C2405 1.429 . S
C2400 C2392 1.574 . S
C2400 H2395 0.949 . S
C2400 C2406 1.368 . S
C2401 C2385 1.349 . S
C2401 H2393 0.950 . S
C2401 C2399 1.327 . S
C2402 C2390 1.349 . S
C2402 H2396 0.950 . S
C2402 C2403 1.327 . S
C2403 H2397 0.950 . S
C2403 C2402 1.327 . S
C2403 C2407 1.429 . S
C2404 C2387 1.574 . S
C2404 H2398 0.949 . S
C2404 C2408 1.368 . S
C2405 C2386 1.429 . S
C2405 C2399 1.429 . S
C2405 C2406 1.523 . S
C2406 C2387 1.368 . S
C2406 C2400 1.368 . S
C2406 C2405 1.523 . S
C2407 C2391 1.429 . S
C2407 C2403 1.429 . S
C2407 C2408 1.523 . S
C2408 C2392 1.368 . S
C2408 C2404 1.368 . S
C2408 C2407 1.523 . S
H2409 C2384 0.950 . S
H2410 C2386 0.950 . S
H2411 C2387 0.949 . S
H2412 C2389 0.950 . S
H2413 C2391 0.950 . S
C2414 C2415 1.349 . S
C2414 C2416 1.327 . S
C2414 H2439 0.950 . S
C2415 C2414 1.349 . S
C2415 C2431 1.349 . S
C2416 C2414 1.327 . S
C2416 C2435 1.429 . S
C2416 H2440 0.950 . S
C2417 C2434 1.574 . S
C2417 C2436 1.368 . S
C2417 H2441 0.949 . S
H2418 C2422 0.949 . S
C2419 C2420 1.349 . S
C2419 C2421 1.327 . S
C2419 H2442 0.950 . S
C2420 C2419 1.349 . S
C2420 C2432 1.349 . S
C2421 C2419 1.327 . S
C2421 C2437 1.429 . S
C2421 H2443 0.950 . S
C2422 H2418 0.949 . S
C2422 C2430 1.574 . S
C2422 C2438 1.368 . S
H2423 C2431 0.950 . S
H2424 C2429 0.950 . S
H2425 C2430 0.949 . S
H2426 C2432 0.950 . S
H2427 C2433 0.950 . S
H2428 C2434 0.949 . S
C2429 H2424 0.950 . S
C2429 C2431 1.327 . S
C2429 C2435 1.429 . S
C2430 C2422 1.574 . S
C2430 H2425 0.949 . S
C2430 C2436 1.368 . S
C2431 C2415 1.349 . S
C2431 H2423 0.950 . S
C2431 C2429 1.327 . S
C2432 C2420 1.349 . S
C2432 H2426 0.950 . S
C2432 C2433 1.327 . S
C2433 H2427 0.950 . S
C2433 C2432 1.327 . S
C2433 C2437 1.429 . S
C2434 C2417 1.574 . S
C2434 H2428 0.949 . S
C2434 C2438 1.368 . S
C2435 C2416 1.429 . S
C2435 C2429 1.429 . S
C2435 C2436 1.523 . S
C2436 C2417 1.368 . S
C2436 C2430 1.368 . S
C2436 C2435 1.523 . S
C2437 C2421 1.429 . S
C2437 C2433 1.429 . S
C2437 C2438 1.523 . S
C2438 C2422 1.368 . S
C2438 C2434 1.368 . S
C2438 C2437 1.523 . S
H2439 C2414 0.950 . S
H2440 C2416 0.950 . S
H2441 C2417 0.949 . S
H2442 C2419 0.950 . S
H2443 C2421 0.950 . S
C2444 C2445 1.349 . S
C2444 C2446 1.327 . S
C2444 H2469 0.950 . S
C2445 C2444 1.349 . S
C2445 C2461 1.349 . S
C2446 C2444 1.327 . S
C2446 C2465 1.429 . S
C2446 H2470 0.950 . S
C2447 C2464 1.574 . S
C2447 C2466 1.368 . S
C2447 H2471 0.949 . S
H2448 C2452 0.949 . S
C2449 C2450 1.349 . S
C2449 C2451 1.327 . S
C2449 H2472 0.950 . S
C2450 C2449 1.349 . S
C2450 C2462 1.349 . S
C2451 C2449 1.327 . S
C2451 C2467 1.429 . S
C2451 H2473 0.950 . S
C2452 H2448 0.949 . S
C2452 C2460 1.574 . S
C2452 C2468 1.368 . S
H2453 C2461 0.950 . S
H2454 C2459 0.950 . S
H2455 C2460 0.949 . S
H2456 C2462 0.950 . S
H2457 C2463 0.950 . S
H2458 C2464 0.949 . S
C2459 H2454 0.950 . S
C2459 C2461 1.327 . S
C2459 C2465 1.429 . S
C2460 C2452 1.574 . S
C2460 H2455 0.949 . S
C2460 C2466 1.368 . S
C2461 C2445 1.349 . S
C2461 H2453 0.950 . S
C2461 C2459 1.327 . S
C2462 C2450 1.349 . S
C2462 H2456 0.950 . S
C2462 C2463 1.327 . S
C2463 H2457 0.950 . S
C2463 C2462 1.327 . S
C2463 C2467 1.429 . S
C2464 C2447 1.574 . S
C2464 H2458 0.949 . S
C2464 C2468 1.368 . S
C2465 C2446 1.429 . S
C2465 C2459 1.429 . S
C2465 C2466 1.523 . S
C2466 C2447 1.368 . S
C2466 C2460 1.368 . S
C2466 C2465 1.523 . S
C2467 C2451 1.429 . S
C2467 C2463 1.429 . S
C2467 C2468 1.523 . S
C2468 C2452 1.368 . S
C2468 C2464 1.368 . S
C2468 C2467 1.523 . S
H2469 C2444 0.950 . S
H2470 C2446 0.950 . S
H2471 C2447 0.949 . S
H2472 C2449 0.950 . S
H2473 C2451 0.950 . S
C2474 C2475 1.349 . S
C2474 C2476 1.327 . S
C2474 H2499 0.950 . S
C2475 C2474 1.349 . S
C2475 C2491 1.349 . S
C2476 C2474 1.327 . S
C2476 C2495 1.429 . S
C2476 H2500 0.950 . S
C2477 C2494 1.574 . S
C2477 C2496 1.368 . S
C2477 H2501 0.949 . S
H2478 C2482 0.949 . S
C2479 C2480 1.349 . S
C2479 C2481 1.327 . S
C2479 H2502 0.950 . S
C2480 C2479 1.349 . S
C2480 C2492 1.349 . S
C2481 C2479 1.327 . S
C2481 C2497 1.429 . S
C2481 H2503 0.950 . S
C2482 H2478 0.949 . S
C2482 C2490 1.574 . S
C2482 C2498 1.368 . S
H2483 C2491 0.950 . S
H2484 C2489 0.950 . S
H2485 C2490 0.949 . S
H2486 C2492 0.950 . S
H2487 C2493 0.950 . S
H2488 C2494 0.949 . S
C2489 H2484 0.950 . S
C2489 C2491 1.327 . S
C2489 C2495 1.429 . S
C2490 C2482 1.574 . S
C2490 H2485 0.949 . S
C2490 C2496 1.368 . S
C2491 C2475 1.349 . S
C2491 H2483 0.950 . S
C2491 C2489 1.327 . S
C2492 C2480 1.349 . S
C2492 H2486 0.950 . S
C2492 C2493 1.327 . S
C2493 H2487 0.950 . S
C2493 C2492 1.327 . S
C2493 C2497 1.429 . S
C2494 C2477 1.574 . S
C2494 H2488 0.949 . S
C2494 C2498 1.368 . S
C2495 C2476 1.429 . S
C2495 C2489 1.429 . S
C2495 C2496 1.523 . S
C2496 C2477 1.368 . S
C2496 C2490 1.368 . S
C2496 C2495 1.523 . S
C2497 C2481 1.429 . S
C2497 C2493 1.429 . S
C2497 C2498 1.523 . S
C2498 C2482 1.368 . S
C2498 C2494 1.368 . S
C2498 C2497 1.523 . S
H2499 C2474 0.950 . S
H2500 C2476 0.950 . S
H2501 C2477 0.949 . S
H2502 C2479 0.950 . S
H2503 C2481 0.950 . S
C2504 C2505 1.349 . S
C2504 C2506 1.327 . S
C2504 H2529 0.950 . S
C2505 C2504 1.349 . S
C2505 C2521 1.349 . S
C2506 C2504 1.327 . S
C2506 C2525 1.429 . S
C2506 H2530 0.950 . S
C2507 C2524 1.574 . S
C2507 C2526 1.368 . S
C2507 H2531 0.949 . S
H2508 C2512 0.949 . S
C2509 C2510 1.349 . S
C2509 C2511 1.327 . S
C2509 H2532 0.950 . S
C2510 C2509 1.349 . S
C2510 C2522 1.349 . S
C2511 C2509 1.327 . S
C2511 C2527 1.429 . S
C2511 H2533 0.950 . S
C2512 H2508 0.949 . S
C2512 C2520 1.574 . S
C2512 C2528 1.368 . S
H2513 C2521 0.950 . S
H2514 C2519 0.950 . S
H2515 C2520 0.949 . S
H2516 C2522 0.950 . S
H2517 C2523 0.950 . S
H2518 C2524 0.949 . S
C2519 H2514 0.950 . S
C2519 C2521 1.327 . S
C2519 C2525 1.429 . S
C2520 C2512 1.574 . S
C2520 H2515 0.949 . S
C2520 C2526 1.368 . S
C2521 C2505 1.349 . S
C2521 H2513 0.950 . S
C2521 C2519 1.327 . S
C2522 C2510 1.349 . S
C2522 H2516 0.950 . S
C2522 C2523 1.327 . S
C2523 H2517 0.950 . S
C2523 C2522 1.327 . S
C2523 C2527 1.429 . S
C2524 C2507 1.574 . S
C2524 H2518 0.949 . S
C2524 C2528 1.368 . S
C2525 C2506 1.429 . S
C2525 C2519 1.429 . S
C2525 C2526 1.523 . S
C2526 C2507 1.368 . S
C2526 C2520 1.368 . S
C2526 C2525 1.523 . S
C2527 C2511 1.429 . S
C2527 C2523 1.429 . S
C2527 C2528 1.523 . S
C2528 C2512 1.368 . S
C2528 C2524 1.368 . S
C2528 C2527 1.523 . S
H2529 C2504 0.950 . S
H2530 C2506 0.950 . S
H2531 C2507 0.949 . S
H2532 C2509 0.950 . S
H2533 C2511 0.950 . S
C2534 C2535 1.349 . S
C2534 C2536 1.327 . S
C2534 H2559 0.950 . S
C2535 C2534 1.349 . S
C2535 C2551 1.349 . S
C2536 C2534 1.327 . S
C2536 C2555 1.429 . S
C2536 H2560 0.950 . S
C2537 C2554 1.574 . S
C2537 C2556 1.368 . S
C2537 H2561 0.949 . S
H2538 C2542 0.949 . S
C2539 C2540 1.349 . S
C2539 C2541 1.327 . S
C2539 H2562 0.950 . S
C2540 C2539 1.349 . S
C2540 C2552 1.349 . S
C2541 C2539 1.327 . S
C2541 C2557 1.429 . S
C2541 H2563 0.950 . S
C2542 H2538 0.949 . S
C2542 C2550 1.574 . S
C2542 C2558 1.368 . S
H2543 C2551 0.950 . S
H2544 C2549 0.950 . S
H2545 C2550 0.949 . S
H2546 C2552 0.950 . S
H2547 C2553 0.950 . S
H2548 C2554 0.949 . S
C2549 H2544 0.950 . S
C2549 C2551 1.327 . S
C2549 C2555 1.429 . S
C2550 C2542 1.574 . S
C2550 H2545 0.949 . S
C2550 C2556 1.368 . S
C2551 C2535 1.349 . S
C2551 H2543 0.950 . S
C2551 C2549 1.327 . S
C2552 C2540 1.349 . S
C2552 H2546 0.950 . S
C2552 C2553 1.327 . S
C2553 H2547 0.950 . S
C2553 C2552 1.327 . S
C2553 C2557 1.429 . S
C2554 C2537 1.574 . S
C2554 H2548 0.949 . S
C2554 C2558 1.368 . S
C2555 C2536 1.429 . S
C2555 C2549 1.429 . S
C2555 C2556 1.523 . S
C2556 C2537 1.368 . S
C2556 C2550 1.368 . S
C2556 C2555 1.523 . S
C2557 C2541 1.429 . S
C2557 C2553 1.429 . S
C2557 C2558 1.523 . S
C2558 C2542 1.368 . S
C2558 C2554 1.368 . S
C2558 C2557 1.523 . S
H2559 C2534 0.950 . S
H2560 C2536 0.950 . S
H2561 C2537 0.949 . S
H2562 C2539 0.950 . S
H2563 C2541 0.950 . S
C2564 C2565 1.349 . S
C2564 C2566 1.327 . S
C2564 H2589 0.950 . S
C2565 C2564 1.349 . S
C2565 C2581 1.349 . S
C2566 C2564 1.327 . S
C2566 C2585 1.429 . S
C2566 H2590 0.950 . S
C2567 C2584 1.574 . S
C2567 C2586 1.368 . S
C2567 H2591 0.949 . S
H2568 C2572 0.949 . S
C2569 C2570 1.349 . S
C2569 C2571 1.327 . S
C2569 H2592 0.950 . S
C2570 C2569 1.349 . S
C2570 C2582 1.349 . S
C2571 C2569 1.327 . S
C2571 C2587 1.429 . S
C2571 H2593 0.950 . S
C2572 H2568 0.949 . S
C2572 C2580 1.574 . S
C2572 C2588 1.368 . S
H2573 C2581 0.950 . S
H2574 C2579 0.950 . S
H2575 C2580 0.949 . S
H2576 C2582 0.950 . S
H2577 C2583 0.950 . S
H2578 C2584 0.949 . S
C2579 H2574 0.950 . S
C2579 C2581 1.327 . S
C2579 C2585 1.429 . S
C2580 C2572 1.574 . S
C2580 H2575 0.949 . S
C2580 C2586 1.368 . S
C2581 C2565 1.349 . S
C2581 H2573 0.950 . S
C2581 C2579 1.327 . S
C2582 C2570 1.349 . S
C2582 H2576 0.950 . S
C2582 C2583 1.327 . S
C2583 H2577 0.950 . S
C2583 C2582 1.327 . S
C2583 C2587 1.429 . S
C2584 C2567 1.574 . S
C2584 H2578 0.949 . S
C2584 C2588 1.368 . S
C2585 C2566 1.429 . S
C2585 C2579 1.429 . S
C2585 C2586 1.523 . S
C2586 C2567 1.368 . S
C2586 C2580 1.368 . S
C2586 C2585 1.523 . S
C2587 C2571 1.429 . S
C2587 C2583 1.429 . S
C2587 C2588 1.523 . S
C2588 C2572 1.368 . S
C2588 C2584 1.368 . S
C2588 C2587 1.523 . S
H2589 C2564 0.950 . S
H2590 C2566 0.950 . S
H2591 C2567 0.949 . S
H2592 C2569 0.950 . S
H2593 C2571 0.950 . S
C2594 C2595 1.349 . S
C2594 C2596 1.327 . S
C2594 H2619 0.950 . S
C2595 C2594 1.349 . S
C2595 C2611 1.349 . S
C2596 C2594 1.327 . S
C2596 C2615 1.429 . S
C2596 H2620 0.950 . S
C2597 C2614 1.574 . S
C2597 C2616 1.368 . S
C2597 H2621 0.949 . S
H2598 C2602 0.949 . S
C2599 C2600 1.349 . S
C2599 C2601 1.327 . S
C2599 H2622 0.950 . S
C2600 C2599 1.349 . S
C2600 C2612 1.349 . S
C2601 C2599 1.327 . S
C2601 C2617 1.429 . S
C2601 H2623 0.950 . S
C2602 H2598 0.949 . S
C2602 C2610 1.574 . S
C2602 C2618 1.368 . S
H2603 C2611 0.950 . S
H2604 C2609 0.950 . S
H2605 C2610 0.949 . S
H2606 C2612 0.950 . S
H2607 C2613 0.950 . S
H2608 C2614 0.949 . S
C2609 H2604 0.950 . S
C2609 C2611 1.327 . S
C2609 C2615 1.429 . S
C2610 C2602 1.574 . S
C2610 H2605 0.949 . S
C2610 C2616 1.368 . S
C2611 C2595 1.349 . S
C2611 H2603 0.950 . S
C2611 C2609 1.327 . S
C2612 C2600 1.349 . S
C2612 H2606 0.950 . S
C2612 C2613 1.327 . S
C2613 H2607 0.950 . S
C2613 C2612 1.327 . S
C2613 C2617 1.429 . S
C2614 C2597 1.574 . S
C2614 H2608 0.949 . S
C2614 C2618 1.368 . S
C2615 C2596 1.429 . S
C2615 C2609 1.429 . S
C2615 C2616 1.523 . S
C2616 C2597 1.368 . S
C2616 C2610 1.368 . S
C2616 C2615 1.523 . S
C2617 C2601 1.429 . S
C2617 C2613 1.429 . S
C2617 C2618 1.523 . S
C2618 C2602 1.368 . S
C2618 C2614 1.368 . S
C2618 C2617 1.523 . S
H2619 C2594 0.950 . S
H2620 C2596 0.950 . S
H2621 C2597 0.949 . S
H2622 C2599 0.950 . S
H2623 C2601 0.950 . S
C2624 C2625 1.349 . S
C2624 C2626 1.327 . S
C2624 H2649 0.950 . S
C2625 C2624 1.349 . S
C2625 C2641 1.349 . S
C2626 C2624 1.327 . S
C2626 C2645 1.429 . S
C2626 H2650 0.950 . S
C2627 C2644 1.574 . S
C2627 C2646 1.368 . S
C2627 H2651 0.949 . S
H2628 C2632 0.949 . S
C2629 C2630 1.349 . S
C2629 C2631 1.327 . S
C2629 H2652 0.950 . S
C2630 C2629 1.349 . S
C2630 C2642 1.349 . S
C2631 C2629 1.327 . S
C2631 C2647 1.429 . S
C2631 H2653 0.950 . S
C2632 H2628 0.949 . S
C2632 C2640 1.574 . S
C2632 C2648 1.368 . S
H2633 C2641 0.950 . S
H2634 C2639 0.950 . S
H2635 C2640 0.949 . S
H2636 C2642 0.950 . S
H2637 C2643 0.950 . S
H2638 C2644 0.949 . S
C2639 H2634 0.950 . S
C2639 C2641 1.327 . S
C2639 C2645 1.429 . S
C2640 C2632 1.574 . S
C2640 H2635 0.949 . S
C2640 C2646 1.368 . S
C2641 C2625 1.349 . S
C2641 H2633 0.950 . S
C2641 C2639 1.327 . S
C2642 C2630 1.349 . S
C2642 H2636 0.950 . S
C2642 C2643 1.327 . S
C2643 H2637 0.950 . S
C2643 C2642 1.327 . S
C2643 C2647 1.429 . S
C2644 C2627 1.574 . S
C2644 H2638 0.949 . S
C2644 C2648 1.368 . S
C2645 C2626 1.429 . S
C2645 C2639 1.429 . S
C2645 C2646 1.523 . S
C2646 C2627 1.368 . S
C2646 C2640 1.368 . S
C2646 C2645 1.523 . S
C2647 C2631 1.429 . S
C2647 C2643 1.429 . S
C2647 C2648 1.523 . S
C2648 C2632 1.368 . S
C2648 C2644 1.368 . S
C2648 C2647 1.523 . S
H2649 C2624 0.950 . S
H2650 C2626 0.950 . S
H2651 C2627 0.949 . S
H2652 C2629 0.950 . S
H2653 C2631 0.950 . S
C2654 C2655 1.349 . S
C2654 C2656 1.327 . S
C2654 H2679 0.950 . S
C2655 C2654 1.349 . S
C2655 C2671 1.349 . S
C2656 C2654 1.327 . S
C2656 C2675 1.429 . S
C2656 H2680 0.950 . S
C2657 C2674 1.574 . S
C2657 C2676 1.368 . S
C2657 H2681 0.949 . S
H2658 C2662 0.949 . S
C2659 C2660 1.349 . S
C2659 C2661 1.327 . S
C2659 H2682 0.950 . S
C2660 C2659 1.349 . S
C2660 C2672 1.349 . S
C2661 C2659 1.327 . S
C2661 C2677 1.429 . S
C2661 H2683 0.950 . S
C2662 H2658 0.949 . S
C2662 C2670 1.574 . S
C2662 C2678 1.368 . S
H2663 C2671 0.950 . S
H2664 C2669 0.950 . S
H2665 C2670 0.949 . S
H2666 C2672 0.950 1_545 S
H2667 C2673 0.950 . S
H2668 C2674 0.949 . S
C2669 H2664 0.950 . S
C2669 C2671 1.327 . S
C2669 C2675 1.429 . S
C2670 C2662 1.574 . S
C2670 H2665 0.949 . S
C2670 C2676 1.368 . S
C2671 C2655 1.349 . S
C2671 H2663 0.950 . S
C2671 C2669 1.327 . S
C2672 C2660 1.349 . S
C2672 H2666 0.950 1_565 S
C2672 C2673 1.327 . S
C2673 H2667 0.950 . S
C2673 C2672 1.327 . S
C2673 C2677 1.429 . S
C2674 C2657 1.574 . S
C2674 H2668 0.949 . S
C2674 C2678 1.368 . S
C2675 C2656 1.429 . S
C2675 C2669 1.429 . S
C2675 C2676 1.523 . S
C2676 C2657 1.368 . S
C2676 C2670 1.368 . S
C2676 C2675 1.523 . S
C2677 C2661 1.429 . S
C2677 C2673 1.429 . S
C2677 C2678 1.523 . S
C2678 C2662 1.368 . S
C2678 C2674 1.368 . S
C2678 C2677 1.523 . S
H2679 C2654 0.950 . S
H2680 C2656 0.950 . S
H2681 C2657 0.949 . S
H2682 C2659 0.950 . S
H2683 C2661 0.950 . S
C2684 C2685 1.349 . S
C2684 C2686 1.327 . S
C2684 H2709 0.950 . S
C2685 C2684 1.349 . S
C2685 C2701 1.349 . S
C2686 C2684 1.327 . S
C2686 C2705 1.429 . S
C2686 H2710 0.950 . S
C2687 C2704 1.574 . S
C2687 C2706 1.368 . S
C2687 H2711 0.949 . S
H2688 C2692 0.949 . S
C2689 C2690 1.349 . S
C2689 C2691 1.327 . S
C2689 H2712 0.950 . S
C2690 C2689 1.349 . S
C2690 C2702 1.349 . S
C2691 C2689 1.327 . S
C2691 C2707 1.429 . S
C2691 H2713 0.950 . S
C2692 H2688 0.949 . S
C2692 C2700 1.574 . S
C2692 C2708 1.368 . S
H2693 C2701 0.950 . S
H2694 C2699 0.950 . S
H2695 C2700 0.949 . S
H2696 C2702 0.950 . S
H2697 C2703 0.950 . S
H2698 C2704 0.949 . S
C2699 H2694 0.950 . S
C2699 C2701 1.327 . S
C2699 C2705 1.429 . S
C2700 C2692 1.574 . S
C2700 H2695 0.949 . S
C2700 C2706 1.368 . S
C2701 C2685 1.349 . S
C2701 H2693 0.950 . S
C2701 C2699 1.327 . S
C2702 C2690 1.349 . S
C2702 H2696 0.950 . S
C2702 C2703 1.327 . S
C2703 H2697 0.950 . S
C2703 C2702 1.327 . S
C2703 C2707 1.429 . S
C2704 C2687 1.574 . S
C2704 H2698 0.949 . S
C2704 C2708 1.368 . S
C2705 C2686 1.429 . S
C2705 C2699 1.429 . S
C2705 C2706 1.523 . S
C2706 C2687 1.368 . S
C2706 C2700 1.368 . S
C2706 C2705 1.523 . S
C2707 C2691 1.429 . S
C2707 C2703 1.429 . S
C2707 C2708 1.523 . S
C2708 C2692 1.368 . S
C2708 C2704 1.368 . S
C2708 C2707 1.523 . S
H2709 C2684 0.950 . S
H2710 C2686 0.950 . S
H2711 C2687 0.949 . S
H2712 C2689 0.950 . S
H2713 C2691 0.950 . S
C2714 C2715 1.349 1_556 S
C2714 C2716 1.327 . S
C2714 H2739 0.950 . S
C2715 C2714 1.349 1_554 S
C2715 C2731 1.349 . S
C2716 C2714 1.327 . S
C2716 C2735 1.429 1_556 S
C2716 H2740 0.950 . S
C2717 C2734 1.574 . S
C2717 C2736 1.368 . S
C2717 H2741 0.949 . S
H2718 C2722 0.949 . S
C2719 C2720 1.349 . S
C2719 C2721 1.327 . S
C2719 H2742 0.950 . S
C2720 C2719 1.349 . S
C2720 C2732 1.349 . S
C2721 C2719 1.327 . S
C2721 C2737 1.429 . S
C2721 H2743 0.950 . S
C2722 H2718 0.949 . S
C2722 C2730 1.574 . S
C2722 C2738 1.368 1_556 S
H2723 C2731 0.950 . S
H2724 C2729 0.950 . S
H2725 C2730 0.949 . S
H2726 C2732 0.950 1_556 S
H2727 C2733 0.950 1_556 S
H2728 C2734 0.949 . S
C2729 H2724 0.950 . S
C2729 C2731 1.327 . S
C2729 C2735 1.429 . S
C2730 C2722 1.574 . S
C2730 H2725 0.949 . S
C2730 C2736 1.368 1_556 S
C2731 C2715 1.349 . S
C2731 H2723 0.950 . S
C2731 C2729 1.327 . S
C2732 C2720 1.349 . S
C2732 H2726 0.950 1_554 S
C2732 C2733 1.327 . S
C2733 H2727 0.950 1_554 S
C2733 C2732 1.327 . S
C2733 C2737 1.429 . S
C2734 C2717 1.574 . S
C2734 H2728 0.949 . S
C2734 C2738 1.368 . S
C2735 C2716 1.429 1_554 S
C2735 C2729 1.429 . S
C2735 C2736 1.523 . S
C2736 C2717 1.368 . S
C2736 C2730 1.368 1_554 S
C2736 C2735 1.523 . S
C2737 C2721 1.429 . S
C2737 C2733 1.429 . S
C2737 C2738 1.523 . S
C2738 C2722 1.368 1_554 S
C2738 C2734 1.368 . S
C2738 C2737 1.523 . S
H2739 C2714 0.950 . S
H2740 C2716 0.950 . S
H2741 C2717 0.949 . S
H2742 C2719 0.950 . S
H2743 C2721 0.950 . S
C2744 C2745 1.349 . S
C2744 C2746 1.327 . S
C2744 H2769 0.950 . S
C2745 C2744 1.349 . S
C2745 C2761 1.349 . S
C2746 C2744 1.327 . S
C2746 C2765 1.429 . S
C2746 H2770 0.950 . S
C2747 C2764 1.574 . S
C2747 C2766 1.368 . S
C2747 H2771 0.949 . S
H2748 C2752 0.949 . S
C2749 C2750 1.349 . S
C2749 C2751 1.327 . S
C2749 H2772 0.950 . S
C2750 C2749 1.349 . S
C2750 C2762 1.349 . S
C2751 C2749 1.327 . S
C2751 C2767 1.429 . S
C2751 H2773 0.950 . S
C2752 H2748 0.949 . S
C2752 C2760 1.574 . S
C2752 C2768 1.368 . S
H2753 C2761 0.950 . S
H2754 C2759 0.950 . S
H2755 C2760 0.949 . S
H2756 C2762 0.950 . S
H2757 C2763 0.950 . S
H2758 C2764 0.949 . S
C2759 H2754 0.950 . S
C2759 C2761 1.327 . S
C2759 C2765 1.429 . S
C2760 C2752 1.574 . S
C2760 H2755 0.949 . S
C2760 C2766 1.368 . S
C2761 C2745 1.349 . S
C2761 H2753 0.950 . S
C2761 C2759 1.327 . S
C2762 C2750 1.349 . S
C2762 H2756 0.950 . S
C2762 C2763 1.327 . S
C2763 H2757 0.950 . S
C2763 C2762 1.327 . S
C2763 C2767 1.429 . S
C2764 C2747 1.574 . S
C2764 H2758 0.949 . S
C2764 C2768 1.368 . S
C2765 C2746 1.429 . S
C2765 C2759 1.429 . S
C2765 C2766 1.523 . S
C2766 C2747 1.368 . S
C2766 C2760 1.368 . S
C2766 C2765 1.523 . S
C2767 C2751 1.429 . S
C2767 C2763 1.429 . S
C2767 C2768 1.523 . S
C2768 C2752 1.368 . S
C2768 C2764 1.368 . S
C2768 C2767 1.523 . S
H2769 C2744 0.950 . S
H2770 C2746 0.950 . S
H2771 C2747 0.949 . S
H2772 C2749 0.950 . S
H2773 C2751 0.950 . S
C2774 C2775 1.349 . S
C2774 C2776 1.327 . S
C2774 H2799 0.950 . S
C2775 C2774 1.349 . S
C2775 C2791 1.349 1_554 S
C2776 C2774 1.327 . S
C2776 C2795 1.429 . S
C2776 H2800 0.950 . S
C2777 C2794 1.574 . S
C2777 C2796 1.368 1_556 S
C2777 H2801 0.949 . S
H2778 C2782 0.949 . S
C2779 C2780 1.349 1_556 S
C2779 C2781 1.327 . S
C2779 H2802 0.950 . S
C2780 C2779 1.349 1_554 S
C2780 C2792 1.349 . S
C2781 C2779 1.327 . S
C2781 C2797 1.429 1_556 S
C2781 H2803 0.950 . S
C2782 H2778 0.949 . S
C2782 C2790 1.574 . S
C2782 C2798 1.368 . S
H2783 C2791 0.950 . S
H2784 C2789 0.950 . S
H2785 C2790 0.949 . S
H2786 C2792 0.950 . S
H2787 C2793 0.950 . S
H2788 C2794 0.949 . S
C2789 H2784 0.950 . S
C2789 C2791 1.327 . S
C2789 C2795 1.429 1_556 S
C2790 C2782 1.574 . S
C2790 H2785 0.949 . S
C2790 C2796 1.368 . S
C2791 C2775 1.349 1_556 S
C2791 H2783 0.950 . S
C2791 C2789 1.327 . S
C2792 C2780 1.349 . S
C2792 H2786 0.950 . S
C2792 C2793 1.327 . S
C2793 H2787 0.950 . S
C2793 C2792 1.327 . S
C2793 C2797 1.429 . S
C2794 C2777 1.574 . S
C2794 H2788 0.949 . S
C2794 C2798 1.368 1_556 S
C2795 C2776 1.429 . S
C2795 C2789 1.429 1_554 S
C2795 C2796 1.523 . S
C2796 C2777 1.368 1_554 S
C2796 C2790 1.368 . S
C2796 C2795 1.523 . S
C2797 C2781 1.429 1_554 S
C2797 C2793 1.429 . S
C2797 C2798 1.523 . S
C2798 C2782 1.368 . S
C2798 C2794 1.368 1_554 S
C2798 C2797 1.523 . S
H2799 C2774 0.950 . S
H2800 C2776 0.950 . S
H2801 C2777 0.949 . S
H2802 C2779 0.950 . S
H2803 C2781 0.950 . S
C2804 C2805 1.349 . S
C2804 C2806 1.327 . S
C2804 H2829 0.950 . S
C2805 C2804 1.349 . S
C2805 C2821 1.349 . S
C2806 C2804 1.327 . S
C2806 C2825 1.429 . S
C2806 H2830 0.950 . S
C2807 C2824 1.574 . S
C2807 C2826 1.368 . S
C2807 H2831 0.949 . S
H2808 C2812 0.949 . S
C2809 C2810 1.349 . S
C2809 C2811 1.327 . S
C2809 H2832 0.950 . S
C2810 C2809 1.349 . S
C2810 C2822 1.349 . S
C2811 C2809 1.327 . S
C2811 C2827 1.429 . S
C2811 H2833 0.950 . S
C2812 H2808 0.949 . S
C2812 C2820 1.574 . S
C2812 C2828 1.368 . S
H2813 C2821 0.950 . S
H2814 C2819 0.950 . S
H2815 C2820 0.949 . S
H2816 C2822 0.950 . S
H2817 C2823 0.950 . S
H2818 C2824 0.949 . S
C2819 H2814 0.950 . S
C2819 C2821 1.327 . S
C2819 C2825 1.429 . S
C2820 C2812 1.574 . S
C2820 H2815 0.949 . S
C2820 C2826 1.368 . S
C2821 C2805 1.349 . S
C2821 H2813 0.950 . S
C2821 C2819 1.327 . S
C2822 C2810 1.349 . S
C2822 H2816 0.950 . S
C2822 C2823 1.327 . S
C2823 H2817 0.950 . S
C2823 C2822 1.327 . S
C2823 C2827 1.429 . S
C2824 C2807 1.574 . S
C2824 H2818 0.949 . S
C2824 C2828 1.368 . S
C2825 C2806 1.429 . S
C2825 C2819 1.429 . S
C2825 C2826 1.523 . S
C2826 C2807 1.368 . S
C2826 C2820 1.368 . S
C2826 C2825 1.523 . S
C2827 C2811 1.429 . S
C2827 C2823 1.429 . S
C2827 C2828 1.523 . S
C2828 C2812 1.368 . S
C2828 C2824 1.368 . S
C2828 C2827 1.523 . S
H2829 C2804 0.950 . S
H2830 C2806 0.950 . S
H2831 C2807 0.949 . S
H2832 C2809 0.950 . S
H2833 C2811 0.950 . S
C2834 C2835 1.349 . S
C2834 C2836 1.327 . S
C2834 H2859 0.950 . S
C2835 C2834 1.349 . S
C2835 C2851 1.349 . S
C2836 C2834 1.327 . S
C2836 C2855 1.429 . S
C2836 H2860 0.950 . S
C2837 C2854 1.574 . S
C2837 C2856 1.368 . S
C2837 H2861 0.949 . S
H2838 C2842 0.949 . S
C2839 C2840 1.349 . S
C2839 C2841 1.327 . S
C2839 H2862 0.950 . S
C2840 C2839 1.349 . S
C2840 C2852 1.349 . S
C2841 C2839 1.327 . S
C2841 C2857 1.429 . S
C2841 H2863 0.950 . S
C2842 H2838 0.949 . S
C2842 C2850 1.574 . S
C2842 C2858 1.368 . S
H2843 C2851 0.950 . S
H2844 C2849 0.950 . S
H2845 C2850 0.949 . S
H2846 C2852 0.950 . S
H2847 C2853 0.950 . S
H2848 C2854 0.949 . S
C2849 H2844 0.950 . S
C2849 C2851 1.327 . S
C2849 C2855 1.429 . S
C2850 C2842 1.574 . S
C2850 H2845 0.949 . S
C2850 C2856 1.368 . S
C2851 C2835 1.349 . S
C2851 H2843 0.950 . S
C2851 C2849 1.327 . S
C2852 C2840 1.349 . S
C2852 H2846 0.950 . S
C2852 C2853 1.327 . S
C2853 H2847 0.950 . S
C2853 C2852 1.327 . S
C2853 C2857 1.429 . S
C2854 C2837 1.574 . S
C2854 H2848 0.949 . S
C2854 C2858 1.368 . S
C2855 C2836 1.429 . S
C2855 C2849 1.429 . S
C2855 C2856 1.523 . S
C2856 C2837 1.368 . S
C2856 C2850 1.368 . S
C2856 C2855 1.523 . S
C2857 C2841 1.429 . S
C2857 C2853 1.429 . S
C2857 C2858 1.523 . S
C2858 C2842 1.368 . S
C2858 C2854 1.368 . S
C2858 C2857 1.523 . S
H2859 C2834 0.950 . S
H2860 C2836 0.950 . S
H2861 C2837 0.949 . S
H2862 C2839 0.950 . S
H2863 C2841 0.950 . S
C2864 C2865 1.349 . S
C2864 C2866 1.327 . S
C2864 H2889 0.950 . S
C2865 C2864 1.349 . S
C2865 C2881 1.349 . S
C2866 C2864 1.327 . S
C2866 C2885 1.429 . S
C2866 H2890 0.950 . S
C2867 C2884 1.574 . S
C2867 C2886 1.368 . S
C2867 H2891 0.949 . S
H2868 C2872 0.949 . S
C2869 C2870 1.349 . S
C2869 C2871 1.327 . S
C2869 H2892 0.950 . S
C2870 C2869 1.349 . S
C2870 C2882 1.349 . S
C2871 C2869 1.327 . S
C2871 C2887 1.429 . S
C2871 H2893 0.950 . S
C2872 H2868 0.949 . S
C2872 C2880 1.574 . S
C2872 C2888 1.368 . S
H2873 C2881 0.950 . S
H2874 C2879 0.950 . S
H2875 C2880 0.949 . S
H2876 C2882 0.950 . S
H2877 C2883 0.950 . S
H2878 C2884 0.949 . S
C2879 H2874 0.950 . S
C2879 C2881 1.327 . S
C2879 C2885 1.429 . S
C2880 C2872 1.574 . S
C2880 H2875 0.949 . S
C2880 C2886 1.368 . S
C2881 C2865 1.349 . S
C2881 H2873 0.950 . S
C2881 C2879 1.327 . S
C2882 C2870 1.349 . S
C2882 H2876 0.950 . S
C2882 C2883 1.327 . S
C2883 H2877 0.950 . S
C2883 C2882 1.327 . S
C2883 C2887 1.429 . S
C2884 C2867 1.574 . S
C2884 H2878 0.949 . S
C2884 C2888 1.368 . S
C2885 C2866 1.429 . S
C2885 C2879 1.429 . S
C2885 C2886 1.523 . S
C2886 C2867 1.368 . S
C2886 C2880 1.368 . S
C2886 C2885 1.523 . S
C2887 C2871 1.429 . S
C2887 C2883 1.429 . S
C2887 C2888 1.523 . S
C2888 C2872 1.368 . S
C2888 C2884 1.368 . S
C2888 C2887 1.523 . S
H2889 C2864 0.950 . S
H2890 C2866 0.950 . S
H2891 C2867 0.949 . S
H2892 C2869 0.950 . S
H2893 C2871 0.950 . S
C2894 C2895 1.349 . S
C2894 C2896 1.327 . S
C2894 H2919 0.950 . S
C2895 C2894 1.349 . S
C2895 C2911 1.349 . S
C2896 C2894 1.327 . S
C2896 C2915 1.429 . S
C2896 H2920 0.950 . S
C2897 C2914 1.574 . S
C2897 C2916 1.368 . S
C2897 H2921 0.949 . S
H2898 C2902 0.949 . S
C2899 C2900 1.349 . S
C2899 C2901 1.327 . S
C2899 H2922 0.950 . S
C2900 C2899 1.349 . S
C2900 C2912 1.349 . S
C2901 C2899 1.327 . S
C2901 C2917 1.429 . S
C2901 H2923 0.950 . S
C2902 H2898 0.949 . S
C2902 C2910 1.574 . S
C2902 C2918 1.368 . S
H2903 C2911 0.950 . S
H2904 C2909 0.950 . S
H2905 C2910 0.949 . S
H2906 C2912 0.950 . S
H2907 C2913 0.950 . S
H2908 C2914 0.949 . S
C2909 H2904 0.950 . S
C2909 C2911 1.327 . S
C2909 C2915 1.429 . S
C2910 C2902 1.574 . S
C2910 H2905 0.949 . S
C2910 C2916 1.368 . S
C2911 C2895 1.349 . S
C2911 H2903 0.950 . S
C2911 C2909 1.327 . S
C2912 C2900 1.349 . S
C2912 H2906 0.950 . S
C2912 C2913 1.327 . S
C2913 H2907 0.950 . S
C2913 C2912 1.327 . S
C2913 C2917 1.429 . S
C2914 C2897 1.574 . S
C2914 H2908 0.949 . S
C2914 C2918 1.368 . S
C2915 C2896 1.429 . S
C2915 C2909 1.429 . S
C2915 C2916 1.523 . S
C2916 C2897 1.368 . S
C2916 C2910 1.368 . S
C2916 C2915 1.523 . S
C2917 C2901 1.429 . S
C2917 C2913 1.429 . S
C2917 C2918 1.523 . S
C2918 C2902 1.368 . S
C2918 C2914 1.368 . S
C2918 C2917 1.523 . S
H2919 C2894 0.950 . S
H2920 C2896 0.950 . S
H2921 C2897 0.949 . S
H2922 C2899 0.950 . S
H2923 C2901 0.950 . S
C2924 C2925 1.349 1_655 S
C2924 C2926 1.327 . S
C2924 H2949 0.950 . S
C2925 C2924 1.349 1_455 S
C2925 C2941 1.349 . S
C2926 C2924 1.327 . S
C2926 C2945 1.429 1_655 S
C2926 H2950 0.950 . S
C2927 C2944 1.574 . S
C2927 C2946 1.388 . S
C2927 H2951 0.949 . S
H2928 C2932 0.949 . S
C2929 C2930 1.349 1_455 S
C2929 C2931 1.327 . S
C2929 H2952 0.950 . S
C2930 C2929 1.349 1_655 S
C2930 C2942 1.349 1_556 S
C2931 C2929 1.327 . S
C2931 C2947 1.429 1_455 S
C2931 H2953 0.950 . S
C2932 H2928 0.949 . S
C2932 C2940 1.574 . S
C2932 C2948 1.368 . S
H2933 C2941 0.950 . S
H2934 C2939 0.950 . S
H2935 C2940 0.949 . S
H2936 C2942 0.950 . S
H2937 C2943 0.960 . S
H2938 C2944 0.949 . S
C2939 H2934 0.950 . S
C2939 C2941 1.327 . S
C2939 C2945 1.429 . S
C2940 C2932 1.574 . S
C2940 H2935 0.949 . S
C2940 C2946 1.348 1_655 S
C2941 C2925 1.349 . S
C2941 H2933 0.950 . S
C2941 C2939 1.327 . S
C2942 C2930 1.349 1_554 S
C2942 H2936 0.950 . S
C2942 C2943 1.327 1_554 S
C2943 H2937 0.960 . S
C2943 C2942 1.327 1_556 S
C2943 C2947 1.429 . S
C2944 C2927 1.574 . S
C2944 H2938 0.949 . S
C2944 C2948 1.368 1_455 S
C2945 C2926 1.429 1_455 S
C2945 C2939 1.429 . S
C2945 C2946 1.527 . S
C2946 C2927 1.388 . S
C2946 C2940 1.348 1_455 S
C2946 C2945 1.527 . S
C2947 C2931 1.429 1_655 S
C2947 C2943 1.429 . S
C2947 C2948 1.523 . S
C2948 C2932 1.368 . S
C2948 C2944 1.368 1_655 S
C2948 C2947 1.523 . S
H2949 C2924 0.950 . S
H2950 C2926 0.950 . S
H2951 C2927 0.949 . S
H2952 C2929 0.950 . S
H2953 C2931 0.950 . S
C2954 C2955 1.349 . S
C2954 C2956 1.327 . S
C2954 H2979 0.950 . S
C2955 C2954 1.349 . S
C2955 C2971 1.349 . S
C2956 C2954 1.327 . S
C2956 C2975 1.429 . S
C2956 H2980 0.950 . S
C2957 C2974 1.574 . S
C2957 C2976 1.368 . S
C2957 H2981 0.949 . S
H2958 C2962 0.949 . S
C2959 C2960 1.349 . S
C2959 C2961 1.327 . S
C2959 H2982 0.950 . S
C2960 C2959 1.349 . S
C2960 C2972 1.349 . S
C2961 C2959 1.327 . S
C2961 C2977 1.429 . S
C2961 H2983 0.950 . S
C2962 H2958 0.949 . S
C2962 C2970 1.574 . S
C2962 C2978 1.368 . S
H2963 C2971 0.950 . S
H2964 C2969 0.950 . S
H2965 C2970 0.949 . S
H2966 C2972 0.950 . S
H2967 C2973 0.950 . S
H2968 C2974 0.949 . S
C2969 H2964 0.950 . S
C2969 C2971 1.327 . S
C2969 C2975 1.429 . S
C2970 C2962 1.574 . S
C2970 H2965 0.949 . S
C2970 C2976 1.368 . S
C2971 C2955 1.349 . S
C2971 H2963 0.950 . S
C2971 C2969 1.327 . S
C2972 C2960 1.349 . S
C2972 H2966 0.950 . S
C2972 C2973 1.327 . S
C2973 H2967 0.950 . S
C2973 C2972 1.327 . S
C2973 C2977 1.429 . S
C2974 C2957 1.574 . S
C2974 H2968 0.949 . S
C2974 C2978 1.368 . S
C2975 C2956 1.429 . S
C2975 C2969 1.429 . S
C2975 C2976 1.523 . S
C2976 C2957 1.368 . S
C2976 C2970 1.368 . S
C2976 C2975 1.523 . S
C2977 C2961 1.429 . S
C2977 C2973 1.429 . S
C2977 C2978 1.523 . S
C2978 C2962 1.368 . S
C2978 C2974 1.368 . S
C2978 C2977 1.523 . S
H2979 C2954 0.950 . S
H2980 C2956 0.950 . S
H2981 C2957 0.949 . S
H2982 C2959 0.950 . S
H2983 C2961 0.950 . S
C2984 C2985 1.349 . S
C2984 C2986 1.327 . S
C2984 H3009 0.950 . S
C2985 C2984 1.349 . S
C2985 C3001 1.349 . S
C2986 C2984 1.327 . S
C2986 C3005 1.429 . S
C2986 H3010 0.950 . S
C2987 C3004 1.574 . S
C2987 C3006 1.368 . S
C2987 H3011 0.949 . S
H2988 C2992 0.949 . S
C2989 C2990 1.349 . S
C2989 C2991 1.327 . S
C2989 H3012 0.950 . S
C2990 C2989 1.349 . S
C2990 C3002 1.349 . S
C2991 C2989 1.327 . S
C2991 C3007 1.429 . S
C2991 H3013 0.950 . S
C2992 H2988 0.949 . S
C2992 C3000 1.574 . S
C2992 C3008 1.368 . S
H2993 C3001 0.950 . S
H2994 C2999 0.950 . S
H2995 C3000 0.949 . S
H2996 C3002 0.950 . S
H2997 C3003 0.950 . S
H2998 C3004 0.949 . S
C2999 H2994 0.950 . S
C2999 C3001 1.327 . S
C2999 C3005 1.429 . S
C3000 C2992 1.574 . S
C3000 H2995 0.949 . S
C3000 C3006 1.368 . S
C3001 C2985 1.349 . S
C3001 H2993 0.950 . S
C3001 C2999 1.327 . S
C3002 C2990 1.349 . S
C3002 H2996 0.950 . S
C3002 C3003 1.327 . S
C3003 H2997 0.950 . S
C3003 C3002 1.327 . S
C3003 C3007 1.429 . S
C3004 C2987 1.574 . S
C3004 H2998 0.949 . S
C3004 C3008 1.368 . S
C3005 C2986 1.429 . S
C3005 C2999 1.429 . S
C3005 C3006 1.523 . S
C3006 C2987 1.368 . S
C3006 C3000 1.368 . S
C3006 C3005 1.523 . S
C3007 C2991 1.429 . S
C3007 C3003 1.429 . S
C3007 C3008 1.523 . S
C3008 C2992 1.368 . S
C3008 C3004 1.368 . S
C3008 C3007 1.523 . S
H3009 C2984 0.950 . S
H3010 C2986 0.950 . S
H3011 C2987 0.949 . S
H3012 C2989 0.950 . S
H3013 C2991 0.950 . S
C3014 C3015 1.349 . S
C3014 C3016 1.327 . S
C3014 H3039 0.950 . S
C3015 C3014 1.349 . S
C3015 C3031 1.349 . S
C3016 C3014 1.327 . S
C3016 C3035 1.429 . S
C3016 H3040 0.950 . S
C3017 C3034 1.574 . S
C3017 C3036 1.368 . S
C3017 H3041 0.949 . S
H3018 C3022 0.949 . S
C3019 C3020 1.349 . S
C3019 C3021 1.327 . S
C3019 H3042 0.950 . S
C3020 C3019 1.349 . S
C3020 C3032 1.349 . S
C3021 C3019 1.327 . S
C3021 C3037 1.429 . S
C3021 H3043 0.950 . S
C3022 H3018 0.949 . S
C3022 C3030 1.574 . S
C3022 C3038 1.368 . S
H3023 C3031 0.950 . S
H3024 C3029 0.950 . S
H3025 C3030 0.949 . S
H3026 C3032 0.950 . S
H3027 C3033 0.950 . S
H3028 C3034 0.949 . S
C3029 H3024 0.950 . S
C3029 C3031 1.327 . S
C3029 C3035 1.429 . S
C3030 C3022 1.574 . S
C3030 H3025 0.949 . S
C3030 C3036 1.368 . S
C3031 C3015 1.349 . S
C3031 H3023 0.950 . S
C3031 C3029 1.327 . S
C3032 C3020 1.349 . S
C3032 H3026 0.950 . S
C3032 C3033 1.327 . S
C3033 H3027 0.950 . S
C3033 C3032 1.327 . S
C3033 C3037 1.429 . S
C3034 C3017 1.574 . S
C3034 H3028 0.949 . S
C3034 C3038 1.368 . S
C3035 C3016 1.429 . S
C3035 C3029 1.429 . S
C3035 C3036 1.523 . S
C3036 C3017 1.368 . S
C3036 C3030 1.368 . S
C3036 C3035 1.523 . S
C3037 C3021 1.429 . S
C3037 C3033 1.429 . S
C3037 C3038 1.523 . S
C3038 C3022 1.368 . S
C3038 C3034 1.368 . S
C3038 C3037 1.523 . S
H3039 C3014 0.950 . S
H3040 C3016 0.950 . S
H3041 C3017 0.949 . S
H3042 C3019 0.950 . S
H3043 C3021 0.950 . S
C3044 C3045 1.349 . S
C3044 C3046 1.327 . S
C3044 H3069 0.950 . S
C3045 C3044 1.349 . S
C3045 C3061 1.349 . S
C3046 C3044 1.327 . S
C3046 C3065 1.429 . S
C3046 H3070 0.950 . S
C3047 C3064 1.574 . S
C3047 C3066 1.354 1_655 S
C3047 H3071 0.949 . S
H3048 C3052 0.949 . S
C3049 C3050 1.349 . S
C3049 C3051 1.327 . S
C3049 H3072 0.950 . S
C3050 C3049 1.349 . S
C3050 C3062 1.349 . S
C3051 C3049 1.327 . S
C3051 C3067 1.429 . S
C3051 H3073 0.950 . S
C3052 H3048 0.949 . S
C3052 C3060 1.574 . S
C3052 C3068 1.368 1_455 S
H3053 C3061 0.948 1_655 S
H3054 C3059 0.948 . S
H3055 C3060 0.949 . S
H3056 C3062 0.950 . S
H3057 C3063 0.950 1_455 S
H3058 C3064 0.949 . S
C3059 H3054 0.948 . S
C3059 C3061 1.328 1_655 S
C3059 C3065 1.429 1_655 S
C3060 C3052 1.574 . S
C3060 H3055 0.949 . S
C3060 C3066 1.380 . S
C3061 C3045 1.349 . S
C3061 H3053 0.948 1_455 S
C3061 C3059 1.328 1_455 S
C3062 C3050 1.349 . S
C3062 H3056 0.950 . S
C3062 C3063 1.327 . S
C3063 H3057 0.950 1_655 S
C3063 C3062 1.327 . S
C3063 C3067 1.429 . S
C3064 C3047 1.574 . S
C3064 H3058 0.949 . S
C3064 C3068 1.368 . S
C3065 C3046 1.429 . S
C3065 C3059 1.429 1_455 S
C3065 C3066 1.530 . S
C3066 C3047 1.354 1_455 S
C3066 C3060 1.380 . S
C3066 C3065 1.530 . S
C3067 C3051 1.429 . S
C3067 C3063 1.429 . S
C3067 C3068 1.523 . S
C3068 C3052 1.368 1_655 S
C3068 C3064 1.368 . S
C3068 C3067 1.523 . S
H3069 C3044 0.950 . S
H3070 C3046 0.950 . S
H3071 C3047 0.949 . S
H3072 C3049 0.950 . S
H3073 C3051 0.950 . S
C3074 C3075 1.349 . S
C3074 C3076 1.327 . S
C3074 H3099 0.950 . S
C3075 C3074 1.349 . S
C3075 C3091 1.349 . S
C3076 C3074 1.327 . S
C3076 C3095 1.429 . S
C3076 H3100 0.950 . S
C3077 C3094 1.574 . S
C3077 C3096 1.368 . S
C3077 H3101 0.949 . S
H3078 C3082 0.949 . S
C3079 C3080 1.349 . S
C3079 C3081 1.327 . S
C3079 H3102 0.950 . S
C3080 C3079 1.349 . S
C3080 C3092 1.349 . S
C3081 C3079 1.327 . S
C3081 C3097 1.429 . S
C3081 H3103 0.950 . S
C3082 H3078 0.949 . S
C3082 C3090 1.574 . S
C3082 C3098 1.368 . S
H3083 C3091 0.950 . S
H3084 C3089 0.950 . S
H3085 C3090 0.949 . S
H3086 C3092 0.950 . S
H3087 C3093 0.950 . S
H3088 C3094 0.949 . S
C3089 H3084 0.950 . S
C3089 C3091 1.327 . S
C3089 C3095 1.429 . S
C3090 C3082 1.574 . S
C3090 H3085 0.949 . S
C3090 C3096 1.368 . S
C3091 C3075 1.349 . S
C3091 H3083 0.950 . S
C3091 C3089 1.327 . S
C3092 C3080 1.349 . S
C3092 H3086 0.950 . S
C3092 C3093 1.327 . S
C3093 H3087 0.950 . S
C3093 C3092 1.327 . S
C3093 C3097 1.429 . S
C3094 C3077 1.574 . S
C3094 H3088 0.949 . S
C3094 C3098 1.368 . S
C3095 C3076 1.429 . S
C3095 C3089 1.429 . S
C3095 C3096 1.523 . S
C3096 C3077 1.368 . S
C3096 C3090 1.368 . S
C3096 C3095 1.523 . S
C3097 C3081 1.429 . S
C3097 C3093 1.429 . S
C3097 C3098 1.523 . S
C3098 C3082 1.368 . S
C3098 C3094 1.368 . S
C3098 C3097 1.523 . S
H3099 C3074 0.950 . S
H3100 C3076 0.950 . S
H3101 C3077 0.949 . S
H3102 C3079 0.950 . S
H3103 C3081 0.950 . S
C3104 C3105 1.349 . S
C3104 C3106 1.327 . S
C3104 H3129 0.950 . S
C3105 C3104 1.349 . S
C3105 C3121 1.349 . S
C3106 C3104 1.327 . S
C3106 C3125 1.429 . S
C3106 H3130 0.950 . S
C3107 C3124 1.574 . S
C3107 C3126 1.368 . S
C3107 H3131 0.949 . S
H3108 C3112 0.949 . S
C3109 C3110 1.349 . S
C3109 C3111 1.327 . S
C3109 H3132 0.950 . S
C3110 C3109 1.349 . S
C3110 C3122 1.349 . S
C3111 C3109 1.327 . S
C3111 C3127 1.429 . S
C3111 H3133 0.950 . S
C3112 H3108 0.949 . S
C3112 C3120 1.574 . S
C3112 C3128 1.368 . S
H3113 C3121 0.950 . S
H3114 C3119 0.950 . S
H3115 C3120 0.949 . S
H3116 C3122 0.950 . S
H3117 C3123 0.950 . S
H3118 C3124 0.949 . S
C3119 H3114 0.950 . S
C3119 C3121 1.327 . S
C3119 C3125 1.429 . S
C3120 C3112 1.574 . S
C3120 H3115 0.949 . S
C3120 C3126 1.368 . S
C3121 C3105 1.349 . S
C3121 H3113 0.950 . S
C3121 C3119 1.327 . S
C3122 C3110 1.349 . S
C3122 H3116 0.950 . S
C3122 C3123 1.327 . S
C3123 H3117 0.950 . S
C3123 C3122 1.327 . S
C3123 C3127 1.429 . S
C3124 C3107 1.574 . S
C3124 H3118 0.949 . S
C3124 C3128 1.368 . S
C3125 C3106 1.429 . S
C3125 C3119 1.429 . S
C3125 C3126 1.523 . S
C3126 C3107 1.368 . S
C3126 C3120 1.368 . S
C3126 C3125 1.523 . S
C3127 C3111 1.429 . S
C3127 C3123 1.429 . S
C3127 C3128 1.523 . S
C3128 C3112 1.368 . S
C3128 C3124 1.368 . S
C3128 C3127 1.523 . S
H3129 C3104 0.950 . S
H3130 C3106 0.950 . S
H3131 C3107 0.949 . S
H3132 C3109 0.950 . S
H3133 C3111 0.950 . S
C3134 C3135 1.349 . S
C3134 C3136 1.327 . S
C3134 H3159 0.950 . S
C3135 C3134 1.349 . S
C3135 C3151 1.349 . S
C3136 C3134 1.327 . S
C3136 C3155 1.429 . S
C3136 H3160 0.950 . S
C3137 C3154 1.574 . S
C3137 C3156 1.368 . S
C3137 H3161 0.949 . S
H3138 C3142 0.949 . S
C3139 C3140 1.349 . S
C3139 C3141 1.327 . S
C3139 H3162 0.950 . S
C3140 C3139 1.349 . S
C3140 C3152 1.349 . S
C3141 C3139 1.327 . S
C3141 C3157 1.429 . S
C3141 H3163 0.950 . S
C3142 H3138 0.949 . S
C3142 C3150 1.574 . S
C3142 C3158 1.368 . S
H3143 C3151 0.950 . S
H3144 C3149 0.950 . S
H3145 C3150 0.949 . S
H3146 C3152 0.950 . S
H3147 C3153 0.950 . S
H3148 C3154 0.949 . S
C3149 H3144 0.950 . S
C3149 C3151 1.327 . S
C3149 C3155 1.429 . S
C3150 C3142 1.574 . S
C3150 H3145 0.949 . S
C3150 C3156 1.368 . S
C3151 C3135 1.349 . S
C3151 H3143 0.950 . S
C3151 C3149 1.327 . S
C3152 C3140 1.349 . S
C3152 H3146 0.950 . S
C3152 C3153 1.327 . S
C3153 H3147 0.950 . S
C3153 C3152 1.327 . S
C3153 C3157 1.429 . S
C3154 C3137 1.574 . S
C3154 H3148 0.949 . S
C3154 C3158 1.368 . S
C3155 C3136 1.429 . S
C3155 C3149 1.429 . S
C3155 C3156 1.523 . S
C3156 C3137 1.368 . S
C3156 C3150 1.368 . S
C3156 C3155 1.523 . S
C3157 C3141 1.429 . S
C3157 C3153 1.429 . S
C3157 C3158 1.523 . S
C3158 C3142 1.368 . S
C3158 C3154 1.368 . S
C3158 C3157 1.523 . S
H3159 C3134 0.950 . S
H3160 C3136 0.950 . S
H3161 C3137 0.949 . S
H3162 C3139 0.950 . S
H3163 C3141 0.950 . S
C3164 C3165 1.349 . S
C3164 C3166 1.327 . S
C3164 H3189 0.950 . S
C3165 C3164 1.349 . S
C3165 C3181 1.349 . S
C3166 C3164 1.327 . S
C3166 C3185 1.429 . S
C3166 H3190 0.950 . S
C3167 C3184 1.574 . S
C3167 C3186 1.368 . S
C3167 H3191 0.949 . S
H3168 C3172 0.949 . S
C3169 C3170 1.349 . S
C3169 C3171 1.327 . S
C3169 H3192 0.950 . S
C3170 C3169 1.349 . S
C3170 C3182 1.349 . S
C3171 C3169 1.327 . S
C3171 C3187 1.429 . S
C3171 H3193 0.950 . S
C3172 H3168 0.949 . S
C3172 C3180 1.574 . S
C3172 C3188 1.368 . S
H3173 C3181 0.950 . S
H3174 C3179 0.950 . S
H3175 C3180 0.949 . S
H3176 C3182 0.950 . S
H3177 C3183 0.950 . S
H3178 C3184 0.949 . S
C3179 H3174 0.950 . S
C3179 C3181 1.327 . S
C3179 C3185 1.429 . S
C3180 C3172 1.574 . S
C3180 H3175 0.949 . S
C3180 C3186 1.368 . S
C3181 C3165 1.349 . S
C3181 H3173 0.950 . S
C3181 C3179 1.327 . S
C3182 C3170 1.349 . S
C3182 H3176 0.950 . S
C3182 C3183 1.327 . S
C3183 H3177 0.950 . S
C3183 C3182 1.327 . S
C3183 C3187 1.429 . S
C3184 C3167 1.574 . S
C3184 H3178 0.949 . S
C3184 C3188 1.368 . S
C3185 C3166 1.429 . S
C3185 C3179 1.429 . S
C3185 C3186 1.523 . S
C3186 C3167 1.368 . S
C3186 C3180 1.368 . S
C3186 C3185 1.523 . S
C3187 C3171 1.429 . S
C3187 C3183 1.429 . S
C3187 C3188 1.523 . S
C3188 C3172 1.368 . S
C3188 C3184 1.368 . S
C3188 C3187 1.523 . S
H3189 C3164 0.950 . S
H3190 C3166 0.950 . S
H3191 C3167 0.949 . S
H3192 C3169 0.950 . S
H3193 C3171 0.950 . S
C3194 C3195 1.349 . S
C3194 C3196 1.327 . S
C3194 H3219 0.950 . S
C3195 C3194 1.349 . S
C3195 C3211 1.349 . S
C3196 C3194 1.327 . S
C3196 C3215 1.429 . S
C3196 H3220 0.950 . S
C3197 C3214 1.574 . S
C3197 C3216 1.368 . S
C3197 H3221 0.949 . S
H3198 C3202 0.949 . S
C3199 C3200 1.349 . S
C3199 C3201 1.327 . S
C3199 H3222 0.950 . S
C3200 C3199 1.349 . S
C3200 C3212 1.349 . S
C3201 C3199 1.327 . S
C3201 C3217 1.429 . S
C3201 H3223 0.950 . S
C3202 H3198 0.949 . S
C3202 C3210 1.574 . S
C3202 C3218 1.368 . S
H3203 C3211 0.950 . S
H3204 C3209 0.950 . S
H3205 C3210 0.949 . S
H3206 C3212 0.950 . S
H3207 C3213 0.950 . S
H3208 C3214 0.949 . S
C3209 H3204 0.950 . S
C3209 C3211 1.327 . S
C3209 C3215 1.429 . S
C3210 C3202 1.574 . S
C3210 H3205 0.949 . S
C3210 C3216 1.368 . S
C3211 C3195 1.349 . S
C3211 H3203 0.950 . S
C3211 C3209 1.327 . S
C3212 C3200 1.349 . S
C3212 H3206 0.950 . S
C3212 C3213 1.327 . S
C3213 H3207 0.950 . S
C3213 C3212 1.327 . S
C3213 C3217 1.429 . S
C3214 C3197 1.574 . S
C3214 H3208 0.949 . S
C3214 C3218 1.368 . S
C3215 C3196 1.429 . S
C3215 C3209 1.429 . S
C3215 C3216 1.523 . S
C3216 C3197 1.368 . S
C3216 C3210 1.368 . S
C3216 C3215 1.523 . S
C3217 C3201 1.429 . S
C3217 C3213 1.429 . S
C3217 C3218 1.523 . S
C3218 C3202 1.368 . S
C3218 C3214 1.368 . S
C3218 C3217 1.523 . S
H3219 C3194 0.950 . S
H3220 C3196 0.950 . S
H3221 C3197 0.949 . S
H3222 C3199 0.950 . S
H3223 C3201 0.950 . S
C3224 C3225 1.349 . S
C3224 C3226 1.327 . S
C3224 H3249 0.950 . S
C3225 C3224 1.349 . S
C3225 C3241 1.349 . S
C3226 C3224 1.327 . S
C3226 C3245 1.429 . S
C3226 H3250 0.950 . S
C3227 C3244 1.574 . S
C3227 C3246 1.368 . S
C3227 H3251 0.949 . S
H3228 C3232 0.949 . S
C3229 C3230 1.349 . S
C3229 C3231 1.327 . S
C3229 H3252 0.950 . S
C3230 C3229 1.349 . S
C3230 C3242 1.349 . S
C3231 C3229 1.327 . S
C3231 C3247 1.429 . S
C3231 H3253 0.950 . S
C3232 H3228 0.949 . S
C3232 C3240 1.574 . S
C3232 C3248 1.368 . S
H3233 C3241 0.950 . S
H3234 C3239 0.950 . S
H3235 C3240 0.949 . S
H3236 C3242 0.950 . S
H3237 C3243 0.950 . S
H3238 C3244 0.949 . S
C3239 H3234 0.950 . S
C3239 C3241 1.327 . S
C3239 C3245 1.429 . S
C3240 C3232 1.574 . S
C3240 H3235 0.949 . S
C3240 C3246 1.368 . S
C3241 C3225 1.349 . S
C3241 H3233 0.950 . S
C3241 C3239 1.327 . S
C3242 C3230 1.349 . S
C3242 H3236 0.950 . S
C3242 C3243 1.327 . S
C3243 H3237 0.950 . S
C3243 C3242 1.327 . S
C3243 C3247 1.429 . S
C3244 C3227 1.574 . S
C3244 H3238 0.949 . S
C3244 C3248 1.368 . S
C3245 C3226 1.429 . S
C3245 C3239 1.429 . S
C3245 C3246 1.523 . S
C3246 C3227 1.368 . S
C3246 C3240 1.368 . S
C3246 C3245 1.523 . S
C3247 C3231 1.429 . S
C3247 C3243 1.429 . S
C3247 C3248 1.523 . S
C3248 C3232 1.368 . S
C3248 C3244 1.368 . S
C3248 C3247 1.523 . S
H3249 C3224 0.950 . S
H3250 C3226 0.950 . S
H3251 C3227 0.949 . S
H3252 C3229 0.950 . S
H3253 C3231 0.950 . S
C3254 C3255 1.349 . S
C3254 C3256 1.327 . S
C3254 H3279 0.950 . S
C3255 C3254 1.349 . S
C3255 C3271 1.349 . S
C3256 C3254 1.327 . S
C3256 C3275 1.429 . S
C3256 H3280 0.950 . S
C3257 C3274 1.574 . S
C3257 C3276 1.368 . S
C3257 H3281 0.949 . S
H3258 C3262 0.949 . S
C3259 C3260 1.349 . S
C3259 C3261 1.327 . S
C3259 H3282 0.950 . S
C3260 C3259 1.349 . S
C3260 C3272 1.349 . S
C3261 C3259 1.327 . S
C3261 C3277 1.429 . S
C3261 H3283 0.950 . S
C3262 H3258 0.949 . S
C3262 C3270 1.574 . S
C3262 C3278 1.368 . S
H3263 C3271 0.950 . S
H3264 C3269 0.950 . S
H3265 C3270 0.949 . S
H3266 C3272 0.950 . S
H3267 C3273 0.950 . S
H3268 C3274 0.949 . S
C3269 H3264 0.950 . S
C3269 C3271 1.327 . S
C3269 C3275 1.429 . S
C3270 C3262 1.574 . S
C3270 H3265 0.949 . S
C3270 C3276 1.368 . S
C3271 C3255 1.349 . S
C3271 H3263 0.950 . S
C3271 C3269 1.327 . S
C3272 C3260 1.349 . S
C3272 H3266 0.950 . S
C3272 C3273 1.327 . S
C3273 H3267 0.950 . S
C3273 C3272 1.327 . S
C3273 C3277 1.429 . S
C3274 C3257 1.574 . S
C3274 H3268 0.949 . S
C3274 C3278 1.368 . S
C3275 C3256 1.429 . S
C3275 C3269 1.429 . S
C3275 C3276 1.523 . S
C3276 C3257 1.368 . S
C3276 C3270 1.368 . S
C3276 C3275 1.523 . S
C3277 C3261 1.429 . S
C3277 C3273 1.429 . S
C3277 C3278 1.523 . S
C3278 C3262 1.368 . S
C3278 C3274 1.368 . S
C3278 C3277 1.523 . S
H3279 C3254 0.950 . S
H3280 C3256 0.950 . S
H3281 C3257 0.949 . S
H3282 C3259 0.950 . S
H3283 C3261 0.950 . S
C3284 C3285 1.349 . S
C3284 C3286 1.327 . S
C3284 H3309 0.950 . S
C3285 C3284 1.349 . S
C3285 C3301 1.349 . S
C3286 C3284 1.327 . S
C3286 C3305 1.429 . S
C3286 H3310 0.950 . S
C3287 C3304 1.574 . S
C3287 C3306 1.368 . S
C3287 H3311 0.949 . S
H3288 C3292 0.949 . S
C3289 C3290 1.349 . S
C3289 C3291 1.327 . S
C3289 H3312 0.950 . S
C3290 C3289 1.349 . S
C3290 C3302 1.349 . S
C3291 C3289 1.327 . S
C3291 C3307 1.429 . S
C3291 H3313 0.950 . S
C3292 H3288 0.949 . S
C3292 C3300 1.574 . S
C3292 C3308 1.368 . S
H3293 C3301 0.950 . S
H3294 C3299 0.950 . S
H3295 C3300 0.949 . S
H3296 C3302 0.950 . S
H3297 C3303 0.950 . S
H3298 C3304 0.949 . S
C3299 H3294 0.950 . S
C3299 C3301 1.327 . S
C3299 C3305 1.429 . S
C3300 C3292 1.574 . S
C3300 H3295 0.949 . S
C3300 C3306 1.368 . S
C3301 C3285 1.349 . S
C3301 H3293 0.950 . S
C3301 C3299 1.327 . S
C3302 C3290 1.349 . S
C3302 H3296 0.950 . S
C3302 C3303 1.327 . S
C3303 H3297 0.950 . S
C3303 C3302 1.327 . S
C3303 C3307 1.429 . S
C3304 C3287 1.574 . S
C3304 H3298 0.949 . S
C3304 C3308 1.368 . S
C3305 C3286 1.429 . S
C3305 C3299 1.429 . S
C3305 C3306 1.523 . S
C3306 C3287 1.368 . S
C3306 C3300 1.368 . S
C3306 C3305 1.523 . S
C3307 C3291 1.429 . S
C3307 C3303 1.429 . S
C3307 C3308 1.523 . S
C3308 C3292 1.368 . S
C3308 C3304 1.368 . S
C3308 C3307 1.523 . S
H3309 C3284 0.950 . S
H3310 C3286 0.950 . S
H3311 C3287 0.949 . S
H3312 C3289 0.950 . S
H3313 C3291 0.950 . S
C3314 C3315 1.349 . S
C3314 C3316 1.327 . S
C3314 H3339 0.950 . S
C3315 C3314 1.349 . S
C3315 C3331 1.349 . S
C3316 C3314 1.327 . S
C3316 C3335 1.429 . S
C3316 H3340 0.950 . S
C3317 C3334 1.574 . S
C3317 C3336 1.368 . S
C3317 H3341 0.949 . S
H3318 C3322 0.949 . S
C3319 C3320 1.349 . S
C3319 C3321 1.327 . S
C3319 H3342 0.950 . S
C3320 C3319 1.349 . S
C3320 C3332 1.349 . S
C3321 C3319 1.327 . S
C3321 C3337 1.429 . S
C3321 H3343 0.950 . S
C3322 H3318 0.949 . S
C3322 C3330 1.574 . S
C3322 C3338 1.368 . S
H3323 C3331 0.950 . S
H3324 C3329 0.950 . S
H3325 C3330 0.949 . S
H3326 C3332 0.950 . S
H3327 C3333 0.950 . S
H3328 C3334 0.949 . S
C3329 H3324 0.950 . S
C3329 C3331 1.327 . S
C3329 C3335 1.429 . S
C3330 C3322 1.574 . S
C3330 H3325 0.949 . S
C3330 C3336 1.368 . S
C3331 C3315 1.349 . S
C3331 H3323 0.950 . S
C3331 C3329 1.327 . S
C3332 C3320 1.349 . S
C3332 H3326 0.950 . S
C3332 C3333 1.327 . S
C3333 H3327 0.950 . S
C3333 C3332 1.327 . S
C3333 C3337 1.429 . S
C3334 C3317 1.574 . S
C3334 H3328 0.949 . S
C3334 C3338 1.368 . S
C3335 C3316 1.429 . S
C3335 C3329 1.429 . S
C3335 C3336 1.523 . S
C3336 C3317 1.368 . S
C3336 C3330 1.368 . S
C3336 C3335 1.523 . S
C3337 C3321 1.429 . S
C3337 C3333 1.429 . S
C3337 C3338 1.523 . S
C3338 C3322 1.368 . S
C3338 C3334 1.368 . S
C3338 C3337 1.523 . S
H3339 C3314 0.950 . S
H3340 C3316 0.950 . S
H3341 C3317 0.949 . S
H3342 C3319 0.950 . S
H3343 C3321 0.950 . S
C3344 C3345 1.349 . S
C3344 C3346 1.327 . S
C3344 H3369 0.950 . S
C3345 C3344 1.349 . S
C3345 C3361 1.349 . S
C3346 C3344 1.327 . S
C3346 C3365 1.429 . S
C3346 H3370 0.950 . S
C3347 C3364 1.574 . S
C3347 C3366 1.368 . S
C3347 H3371 0.949 . S
H3348 C3352 0.949 . S
C3349 C3350 1.349 . S
C3349 C3351 1.327 . S
C3349 H3372 0.950 . S
C3350 C3349 1.349 . S
C3350 C3362 1.349 . S
C3351 C3349 1.327 . S
C3351 C3367 1.429 . S
C3351 H3373 0.950 . S
C3352 H3348 0.949 . S
C3352 C3360 1.574 . S
C3352 C3368 1.368 . S
H3353 C3361 0.950 . S
H3354 C3359 0.950 . S
H3355 C3360 0.949 . S
H3356 C3362 0.950 . S
H3357 C3363 0.950 . S
H3358 C3364 0.949 . S
C3359 H3354 0.950 . S
C3359 C3361 1.327 . S
C3359 C3365 1.429 . S
C3360 C3352 1.574 . S
C3360 H3355 0.949 . S
C3360 C3366 1.368 . S
C3361 C3345 1.349 . S
C3361 H3353 0.950 . S
C3361 C3359 1.327 . S
C3362 C3350 1.349 . S
C3362 H3356 0.950 . S
C3362 C3363 1.327 . S
C3363 H3357 0.950 . S
C3363 C3362 1.327 . S
C3363 C3367 1.429 . S
C3364 C3347 1.574 . S
C3364 H3358 0.949 . S
C3364 C3368 1.368 . S
C3365 C3346 1.429 . S
C3365 C3359 1.429 . S
C3365 C3366 1.523 . S
C3366 C3347 1.368 . S
C3366 C3360 1.368 . S
C3366 C3365 1.523 . S
C3367 C3351 1.429 . S
C3367 C3363 1.429 . S
C3367 C3368 1.523 . S
C3368 C3352 1.368 . S
C3368 C3364 1.368 . S
C3368 C3367 1.523 . S
H3369 C3344 0.950 . S
H3370 C3346 0.950 . S
H3371 C3347 0.949 . S
H3372 C3349 0.950 . S
H3373 C3351 0.950 . S
C3374 C3375 1.349 . S
C3374 C3376 1.327 . S
C3374 H3399 0.950 . S
C3375 C3374 1.349 . S
C3375 C3391 1.349 . S
C3376 C3374 1.327 . S
C3376 C3395 1.429 . S
C3376 H3400 0.950 . S
C3377 C3394 1.574 . S
C3377 C3396 1.368 . S
C3377 H3401 0.949 . S
H3378 C3382 0.949 . S
C3379 C3380 1.349 . S
C3379 C3381 1.327 . S
C3379 H3402 0.950 . S
C3380 C3379 1.349 . S
C3380 C3392 1.349 . S
C3381 C3379 1.327 . S
C3381 C3397 1.429 . S
C3381 H3403 0.950 . S
C3382 H3378 0.949 . S
C3382 C3390 1.574 . S
C3382 C3398 1.368 . S
H3383 C3391 0.950 . S
H3384 C3389 0.950 . S
H3385 C3390 0.949 . S
H3386 C3392 0.950 . S
H3387 C3393 0.950 . S
H3388 C3394 0.949 . S
C3389 H3384 0.950 . S
C3389 C3391 1.327 . S
C3389 C3395 1.429 . S
C3390 C3382 1.574 . S
C3390 H3385 0.949 . S
C3390 C3396 1.368 . S
C3391 C3375 1.349 . S
C3391 H3383 0.950 . S
C3391 C3389 1.327 . S
C3392 C3380 1.349 . S
C3392 H3386 0.950 . S
C3392 C3393 1.327 . S
C3393 H3387 0.950 . S
C3393 C3392 1.327 . S
C3393 C3397 1.429 . S
C3394 C3377 1.574 . S
C3394 H3388 0.949 . S
C3394 C3398 1.368 . S
C3395 C3376 1.429 . S
C3395 C3389 1.429 . S
C3395 C3396 1.523 . S
C3396 C3377 1.368 . S
C3396 C3390 1.368 . S
C3396 C3395 1.523 . S
C3397 C3381 1.429 . S
C3397 C3393 1.429 . S
C3397 C3398 1.523 . S
C3398 C3382 1.368 . S
C3398 C3394 1.368 . S
C3398 C3397 1.523 . S
H3399 C3374 0.950 . S
H3400 C3376 0.950 . S
H3401 C3377 0.949 . S
H3402 C3379 0.950 . S
H3403 C3381 0.950 . S
C3404 C3405 1.349 . S
C3404 C3406 1.327 . S
C3404 H3429 0.950 . S
C3405 C3404 1.349 . S
C3405 C3421 1.349 . S
C3406 C3404 1.327 . S
C3406 C3425 1.429 . S
C3406 H3430 0.950 . S
C3407 C3424 1.574 . S
C3407 C3426 1.368 . S
C3407 H3431 0.949 . S
H3408 C3412 0.949 . S
C3409 C3410 1.349 . S
C3409 C3411 1.327 . S
C3409 H3432 0.950 . S
C3410 C3409 1.349 . S
C3410 C3422 1.349 . S
C3411 C3409 1.327 . S
C3411 C3427 1.429 . S
C3411 H3433 0.950 . S
C3412 H3408 0.949 . S
C3412 C3420 1.574 . S
C3412 C3428 1.368 . S
H3413 C3421 0.950 . S
H3414 C3419 0.950 . S
H3415 C3420 0.949 . S
H3416 C3422 0.950 . S
H3417 C3423 0.950 . S
H3418 C3424 0.949 . S
C3419 H3414 0.950 . S
C3419 C3421 1.327 . S
C3419 C3425 1.429 . S
C3420 C3412 1.574 . S
C3420 H3415 0.949 . S
C3420 C3426 1.368 . S
C3421 C3405 1.349 . S
C3421 H3413 0.950 . S
C3421 C3419 1.327 . S
C3422 C3410 1.349 . S
C3422 H3416 0.950 . S
C3422 C3423 1.327 . S
C3423 H3417 0.950 . S
C3423 C3422 1.327 . S
C3423 C3427 1.429 . S
C3424 C3407 1.574 . S
C3424 H3418 0.949 . S
C3424 C3428 1.368 . S
C3425 C3406 1.429 . S
C3425 C3419 1.429 . S
C3425 C3426 1.523 . S
C3426 C3407 1.368 . S
C3426 C3420 1.368 . S
C3426 C3425 1.523 . S
C3427 C3411 1.429 . S
C3427 C3423 1.429 . S
C3427 C3428 1.523 . S
C3428 C3412 1.368 . S
C3428 C3424 1.368 . S
C3428 C3427 1.523 . S
H3429 C3404 0.950 . S
H3430 C3406 0.950 . S
H3431 C3407 0.949 . S
H3432 C3409 0.950 . S
H3433 C3411 0.950 . S
C3434 C3435 1.349 1_556 S
C3434 C3436 1.327 . S
C3434 H3459 0.950 . S
C3435 C3434 1.349 1_554 S
C3435 C3451 1.349 . S
C3436 C3434 1.327 . S
C3436 C3455 1.429 1_556 S
C3436 H3460 0.950 . S
C3437 C3454 1.574 . S
C3437 C3456 1.354 1_554 S
C3437 H3461 0.949 . S
H3438 C3442 0.949 . S
C3439 C3440 1.349 1_554 S
C3439 C3441 1.327 . S
C3439 H3462 0.950 . S
C3440 C3439 1.349 1_556 S
C3440 C3452 1.349 . S
C3441 C3439 1.327 . S
C3441 C3457 1.429 1_554 S
C3441 H3463 0.950 . S
C3442 H3438 0.949 . S
C3442 C3450 1.574 . S
C3442 C3458 1.368 . S
H3443 C3451 0.950 . S
H3444 C3449 0.950 . S
H3445 C3450 0.949 . S
H3446 C3452 0.950 . S
H3447 C3453 0.950 . S
H3448 C3454 0.949 . S
C3449 H3444 0.950 . S
C3449 C3451 1.327 . S
C3449 C3455 1.429 . S
C3450 C3442 1.574 . S
C3450 H3445 0.949 . S
C3450 C3456 1.383 . S
C3451 C3435 1.349 . S
C3451 H3443 0.950 . S
C3451 C3449 1.327 . S
C3452 C3440 1.349 . S
C3452 H3446 0.950 . S
C3452 C3453 1.327 . S
C3453 H3447 0.950 . S
C3453 C3452 1.327 . S
C3453 C3457 1.429 . S
C3454 C3437 1.574 . S
C3454 H3448 0.949 . S
C3454 C3458 1.368 1_554 S
C3455 C3436 1.429 1_554 S
C3455 C3449 1.429 . S
C3455 C3456 1.522 1_554 S
C3456 C3437 1.354 1_556 S
C3456 C3450 1.383 . S
C3456 C3455 1.522 1_556 S
C3457 C3441 1.429 1_556 S
C3457 C3453 1.429 . S
C3457 C3458 1.523 . S
C3458 C3442 1.368 . S
C3458 C3454 1.368 1_556 S
C3458 C3457 1.523 . S
H3459 C3434 0.950 . S
H3460 C3436 0.950 . S
H3461 C3437 0.949 . S
H3462 C3439 0.950 . S
H3463 C3441 0.950 . S
C3464 C3465 1.349 . S
C3464 C3466 1.327 . S
C3464 H3489 0.950 . S
C3465 C3464 1.349 . S
C3465 C3481 1.349 . S
C3466 C3464 1.327 . S
C3466 C3485 1.429 . S
C3466 H3490 0.950 . S
C3467 C3484 1.574 . S
C3467 C3486 1.368 . S
C3467 H3491 0.949 . S
H3468 C3472 0.949 . S
C3469 C3470 1.349 . S
C3469 C3471 1.327 . S
C3469 H3492 0.950 . S
C3470 C3469 1.349 . S
C3470 C3482 1.349 . S
C3471 C3469 1.327 . S
C3471 C3487 1.429 . S
C3471 H3493 0.950 . S
C3472 H3468 0.949 . S
C3472 C3480 1.574 . S
C3472 C3488 1.368 . S
H3473 C3481 0.950 . S
H3474 C3479 0.950 . S
H3475 C3480 0.949 . S
H3476 C3482 0.950 . S
H3477 C3483 0.950 . S
H3478 C3484 0.949 . S
C3479 H3474 0.950 . S
C3479 C3481 1.327 . S
C3479 C3485 1.429 . S
C3480 C3472 1.574 . S
C3480 H3475 0.949 . S
C3480 C3486 1.368 . S
C3481 C3465 1.349 . S
C3481 H3473 0.950 . S
C3481 C3479 1.327 . S
C3482 C3470 1.349 . S
C3482 H3476 0.950 . S
C3482 C3483 1.327 . S
C3483 H3477 0.950 . S
C3483 C3482 1.327 . S
C3483 C3487 1.429 . S
C3484 C3467 1.574 . S
C3484 H3478 0.949 . S
C3484 C3488 1.368 . S
C3485 C3466 1.429 . S
C3485 C3479 1.429 . S
C3485 C3486 1.523 . S
C3486 C3467 1.368 . S
C3486 C3480 1.368 . S
C3486 C3485 1.523 . S
C3487 C3471 1.429 . S
C3487 C3483 1.429 . S
C3487 C3488 1.523 . S
C3488 C3472 1.368 . S
C3488 C3484 1.368 . S
C3488 C3487 1.523 . S
H3489 C3464 0.950 . S
H3490 C3466 0.950 . S
H3491 C3467 0.949 . S
H3492 C3469 0.950 . S
H3493 C3471 0.950 . S
C3494 C3495 1.349 . S
C3494 C3496 1.327 . S
C3494 H3519 0.950 . S
C3495 C3494 1.349 . S
C3495 C3511 1.349 1_554 S
C3496 C3494 1.327 . S
C3496 C3515 1.429 . S
C3496 H3520 0.950 . S
C3497 C3514 1.574 1_556 S
C3497 C3516 1.368 1_556 S
C3497 H3521 0.949 . S
H3498 C3502 0.949 . S
C3499 C3500 1.349 . S
C3499 C3501 1.327 . S
C3499 H3522 0.950 . S
C3500 C3499 1.349 . S
C3500 C3512 1.349 . S
C3501 C3499 1.327 . S
C3501 C3517 1.429 . S
C3501 H3523 0.950 1_554 S
C3502 H3498 0.949 . S
C3502 C3510 1.574 . S
C3502 C3518 1.368 . S
H3503 C3511 0.950 . S
H3504 C3509 0.950 . S
H3505 C3510 0.949 . S
H3506 C3512 0.950 . S
H3507 C3513 0.950 . S
H3508 C3514 0.949 1_556 S
C3509 H3504 0.950 . S
C3509 C3511 1.327 . S
C3509 C3515 1.429 1_556 S
C3510 C3502 1.574 . S
C3510 H3505 0.949 . S
C3510 C3516 1.368 . S
C3511 C3495 1.349 1_556 S
C3511 H3503 0.950 . S
C3511 C3509 1.327 . S
C3512 C3500 1.349 . S
C3512 H3506 0.950 . S
C3512 C3513 1.327 . S
C3513 H3507 0.950 . S
C3513 C3512 1.327 . S
C3513 C3517 1.429 . S
C3514 C3497 1.574 1_554 S
C3514 H3508 0.949 1_554 S
C3514 C3518 1.368 . S
C3515 C3496 1.429 . S
C3515 C3509 1.429 1_554 S
C3515 C3516 1.523 . S
C3516 C3497 1.368 1_554 S
C3516 C3510 1.368 . S
C3516 C3515 1.523 . S
C3517 C3501 1.429 . S
C3517 C3513 1.429 . S
C3517 C3518 1.523 . S
C3518 C3502 1.368 . S
C3518 C3514 1.368 . S
C3518 C3517 1.523 . S
H3519 C3494 0.950 . S
H3520 C3496 0.950 . S
H3521 C3497 0.949 . S
H3522 C3499 0.950 . S
H3523 C3501 0.950 1_556 S
C3524 C3525 1.349 . S
C3524 C3526 1.327 . S
C3524 H3549 0.950 . S
C3525 C3524 1.349 . S
C3525 C3541 1.349 . S
C3526 C3524 1.327 . S
C3526 C3545 1.429 . S
C3526 H3550 0.950 . S
C3527 C3544 1.574 . S
C3527 C3546 1.368 . S
C3527 H3551 0.949 . S
H3528 C3532 0.949 . S
C3529 C3530 1.349 . S
C3529 C3531 1.327 . S
C3529 H3552 0.950 . S
C3530 C3529 1.349 . S
C3530 C3542 1.349 . S
C3531 C3529 1.327 . S
C3531 C3547 1.429 . S
C3531 H3553 0.950 . S
C3532 H3528 0.949 . S
C3532 C3540 1.574 . S
C3532 C3548 1.368 . S
H3533 C3541 0.950 . S
H3534 C3539 0.950 . S
H3535 C3540 0.949 . S
H3536 C3542 0.950 . S
H3537 C3543 0.950 . S
H3538 C3544 0.949 . S
C3539 H3534 0.950 . S
C3539 C3541 1.327 . S
C3539 C3545 1.429 . S
C3540 C3532 1.574 . S
C3540 H3535 0.949 . S
C3540 C3546 1.368 . S
C3541 C3525 1.349 . S
C3541 H3533 0.950 . S
C3541 C3539 1.327 . S
C3542 C3530 1.349 . S
C3542 H3536 0.950 . S
C3542 C3543 1.327 . S
C3543 H3537 0.950 . S
C3543 C3542 1.327 . S
C3543 C3547 1.429 . S
C3544 C3527 1.574 . S
C3544 H3538 0.949 . S
C3544 C3548 1.368 . S
C3545 C3526 1.429 . S
C3545 C3539 1.429 . S
C3545 C3546 1.523 . S
C3546 C3527 1.368 . S
C3546 C3540 1.368 . S
C3546 C3545 1.523 . S
C3547 C3531 1.429 . S
C3547 C3543 1.429 . S
C3547 C3548 1.523 . S
C3548 C3532 1.368 . S
C3548 C3544 1.368 . S
C3548 C3547 1.523 . S
H3549 C3524 0.950 . S
H3550 C3526 0.950 . S
H3551 C3527 0.949 . S
H3552 C3529 0.950 . S
H3553 C3531 0.950 . S
C3554 C3555 1.349 . S
C3554 C3556 1.327 . S
C3554 H3579 0.950 . S
C3555 C3554 1.349 . S
C3555 C3571 1.349 . S
C3556 C3554 1.327 . S
C3556 C3575 1.429 . S
C3556 H3580 0.950 . S
C3557 C3574 1.574 . S
C3557 C3576 1.368 . S
C3557 H3581 0.949 . S
H3558 C3562 0.949 . S
C3559 C3560 1.349 . S
C3559 C3561 1.327 . S
C3559 H3582 0.950 . S
C3560 C3559 1.349 . S
C3560 C3572 1.349 . S
C3561 C3559 1.327 . S
C3561 C3577 1.429 . S
C3561 H3583 0.950 . S
C3562 H3558 0.949 . S
C3562 C3570 1.574 . S
C3562 C3578 1.368 . S
H3563 C3571 0.950 . S
H3564 C3569 0.950 . S
H3565 C3570 0.949 . S
H3566 C3572 0.950 . S
H3567 C3573 0.950 . S
H3568 C3574 0.949 . S
C3569 H3564 0.950 . S
C3569 C3571 1.327 . S
C3569 C3575 1.429 . S
C3570 C3562 1.574 . S
C3570 H3565 0.949 . S
C3570 C3576 1.368 . S
C3571 C3555 1.349 . S
C3571 H3563 0.950 . S
C3571 C3569 1.327 . S
C3572 C3560 1.349 . S
C3572 H3566 0.950 . S
C3572 C3573 1.327 . S
C3573 H3567 0.950 . S
C3573 C3572 1.327 . S
C3573 C3577 1.429 . S
C3574 C3557 1.574 . S
C3574 H3568 0.949 . S
C3574 C3578 1.368 . S
C3575 C3556 1.429 . S
C3575 C3569 1.429 . S
C3575 C3576 1.523 . S
C3576 C3557 1.368 . S
C3576 C3570 1.368 . S
C3576 C3575 1.523 . S
C3577 C3561 1.429 . S
C3577 C3573 1.429 . S
C3577 C3578 1.523 . S
C3578 C3562 1.368 . S
C3578 C3574 1.368 . S
C3578 C3577 1.523 . S
H3579 C3554 0.950 . S
H3580 C3556 0.950 . S
H3581 C3557 0.949 . S
H3582 C3559 0.950 . S
H3583 C3561 0.950 . S
C710 C352 1.051 . S
C705 C7 1.054 . S
C735 C22 1.299 . S
C740 C380 1.220 . S
C765 C31 1.065 . S
C770 C398 1.051 . S
C800 C424 1.266 . S
C795 C51 1.382 . S
C825 C17 1.410 . S
C830 C447 1.304 . S
C860 C467 0.987 . S
C855 C36 1.000 . S
C890 C495 1.287 . S
C885 C49 1.349 . S
C915 C9 1.038 . S
C920 C513 1.029 . S
C945 C63 1.314 . S
C950 C354 1.341 . S
C975 C73 0.972 . S
C980 C376 0.960 . S
C1010 C400 1.357 . S
C1005 C91 1.330 1_545 S
C1040 C421 1.007 . S
C1035 C101 1.019 . S
C1065 C59 1.035 . S
C1070 C444 1.021 . S
C1100 C469 1.345 . S
C1095 C77 1.319 . S
C1130 C491 0.955 . S
C1125 C87 0.965 1_565 S
C1160 C515 1.343 . S
C1155 C105 1.316 . S
C1190 C355 0.846 . S
C1185 C107 0.880 . S
C1220 C538 1.084 . S
C1215 C120 1.085 . S
C1245 C135 0.875 . S
C1250 C562 0.841 . S
C1280 C586 1.037 . S
C1275 C148 1.056 . S
C1305 C65 0.836 . S
C1310 C516 0.811 . S
C1340 C401 0.875 . S
C1335 C79 0.915 . S
C1365 C134 1.031 . S
C1370 C607 1.031 . S
C1400 C632 0.994 . S
C1395 C162 1.012 . S
C1425 C171 1.050 . S
C1430 C353 1.026 1_556 S
C1460 C630 0.881 . S
C1455 C190 0.881 . S
C1485 C203 1.038 . S
C1490 C399 1.051 . S
C1515 C219 0.854 . S
C1520 C609 0.846 . S
C1550 C448 0.867 . S
C1545 C189 0.868 . S
C1580 C560 0.986 . S
C1575 C204 0.992 . S
C1610 C492 0.941 . S
C1605 C213 0.941 . S
C1640 C652 1.020 . S
C1635 C177 1.029 . S
C1670 C357 0.771 . S
C1665 C227 0.777 . S
C1695 C245 1.209 . S
C1700 C628 1.223 . S
C1730 C403 0.779 . S
C1725 C255 0.792 . S
C1755 C273 1.189 . S
C1760 C606 1.203 . S
C1785 C231 1.201 . S
C1790 C445 1.211 1_565 S
C1815 C241 0.777 . S
C1820 C564 0.771 . S
C1850 C490 1.220 . S
C1845 C259 1.211 . S
C1875 C269 0.776 . S
C1880 C656 0.770 . S
C1905 C275 1.263 . S
C1910 C356 1.230 . S
C1935 C288 1.094 . S
C1940 C541 1.045 . S
C1965 C303 1.226 . S
C1970 C471 1.194 . S
C1995 C316 1.103 . S
C2000 C585 1.030 . S
C2030 C655 1.185 . S
C2025 C233 1.216 . S
C2060 C402 1.238 . S
C2055 C247 1.272 . S
C2090 C426 1.005 . S
C2085 C302 1.048 . S
C2120 C378 0.994 . S
C2115 C330 1.061 . S
C2145 C35 1.054 . S
C2150 C674 1.051 . S
C2180 C633 1.220 . S
C2175 C50 1.299 . S
C2210 C697 1.051 . S
C2205 C3 1.065 . S
C2235 C23 1.382 . S
C2240 C608 1.266 . S
C2265 C45 1.410 . S
C2270 C539 1.289 . S
C2300 C559 0.987 . S
C2295 C8 0.999 . S
C2330 C587 1.287 . S
C2325 C21 1.349 . S
C2360 C651 1.029 . S
C2355 C37 1.038 . S
C2390 C676 1.341 . S
C2385 C161 1.314 . S
C2415 C115 0.972 . S
C2420 C629 0.960 . S
C2445 C133 1.330 . S
C2450 C699 1.357 . S
C2480 C605 1.007 . S
C2475 C143 1.020 . S
C2510 C536 1.021 . S
C2505 C157 1.035 . S
C2535 C119 1.319 . S
C2540 C561 1.345 . S
C2570 C583 0.955 . S
C2565 C129 0.967 . S
C2595 C147 1.316 . S
C2600 C653 1.342 . S
C2630 C677 0.846 . S
C2625 C149 0.880 . S
C2660 C446 1.061 1_565 S
C2655 C78 1.085 . S
C2690 C470 0.841 . S
C2685 C93 0.875 . S
C2715 C106 1.056 . S
C2720 C494 1.037 . S
C2750 C654 0.812 . S
C2745 C163 0.836 . S
C2775 C121 0.915 . S
C2780 C700 0.873 . S
C2810 C423 1.031 . S
C2805 C92 1.031 . S
C2840 C379 0.994 . S
C2835 C64 1.012 . S
C2865 C199 1.050 . S
C2870 C675 1.040 . S
C2900 C377 0.881 . S
C2895 C218 0.881 . S
C2930 C698 1.048 1_556 S
C2925 C175 1.038 . S
C2955 C191 0.854 . S
C2960 C425 0.845 . S
C2985 C217 0.868 . S
C2990 C540 0.867 . S
C3015 C176 0.992 . S
C3020 C468 0.986 . S
C3045 C185 0.941 . S
C3050 C584 0.941 . S
C3075 C205 1.029 . S
C3080 C514 1.020 . S
C3110 C679 0.771 . S
C3105 C325 0.777 . S
C3135 C287 1.209 . S
C3140 C375 1.223 . S
C3170 C702 0.779 . S
C3165 C297 0.787 . S
C3195 C315 1.189 . S
C3200 C422 1.203 . S
C3225 C329 1.201 . S
C3230 C537 1.214 . S
C3260 C472 0.771 . S
C3255 C283 0.777 . S
C3285 C301 1.207 . S
C3290 C582 1.220 . S
C3320 C518 0.770 . S
C3315 C311 0.776 . S
C3350 C678 1.230 . S
C3345 C317 1.263 . S
C3380 C449 1.045 . S
C3375 C246 1.094 . S
C3405 C261 1.225 . S
C3410 C563 1.188 . S
C3440 C493 1.038 . S
C3435 C274 1.103 . S
C3470 C517 1.185 . S
C3465 C331 1.216 . S
C3495 C289 1.272 . S
C3500 C701 1.238 . S
C3530 C610 1.005 . S
C3525 C260 1.054 . S
C3560 C631 0.994 . S
C3555 C232 1.061 . S
