# Generated by pormake.
# Topology gar, (4,6)-cn, num edge types: 1
# Building blocks:
#     Node 0, Type 0, BuildingBlock: QUQFOY_clean_sbu_3, # of connection points: 4
#     Node 1, Type 0, BuildingBlock: QUQFOY_clean_sbu_3, # of connection points: 4
#     Node 2, Type 0, BuildingBlock: QUQFOY_clean_sbu_3, # of connection points: 4
#     Node 3, Type 0, BuildingBlock: QUQFOY_clean_sbu_3, # of connection points: 4
#     Node 4, Type 0, BuildingBlock: QUQFOY_clean_sbu_3, # of connection points: 4
#     Node 5, Type 0, BuildingBlock: QUQFOY_clean_sbu_3, # of connection points: 4
#     Node 6, Type 0, BuildingBlock: QUQFOY_clean_sbu_3, # of connection points: 4
#     Node 7, Type 0, BuildingBlock: QUQFOY_clean_sbu_3, # of connection points: 4
#     Node 8, Type 0, BuildingBlock: QUQFOY_clean_sbu_3, # of connection points: 4
#     Node 9, Type 0, BuildingBlock: QUQFOY_clean_sbu_3, # of connection points: 4
#     Node 10, Type 0, BuildingBlock: QUQFOY_clean_sbu_3, # of connection points: 4
#     Node 11, Type 0, BuildingBlock: QUQFOY_clean_sbu_3, # of connection points: 4
#     Node 12, Type 0, BuildingBlock: QUQFOY_clean_sbu_3, # of connection points: 4
#     Node 13, Type 0, BuildingBlock: QUQFOY_clean_sbu_3, # of connection points: 4
#     Node 14, Type 0, BuildingBlock: QUQFOY_clean_sbu_3, # of connection points: 4
#     Node 15, Type 0, BuildingBlock: QUQFOY_clean_sbu_3, # of connection points: 4
#     Node 16, Type 0, BuildingBlock: QUQFOY_clean_sbu_3, # of connection points: 4
#     Node 17, Type 0, BuildingBlock: QUQFOY_clean_sbu_3, # of connection points: 4
#     Node 18, Type 0, BuildingBlock: QUQFOY_clean_sbu_3, # of connection points: 4
#     Node 19, Type 0, BuildingBlock: QUQFOY_clean_sbu_3, # of connection points: 4
#     Node 20, Type 0, BuildingBlock: QUQFOY_clean_sbu_3, # of connection points: 4
#     Node 21, Type 0, BuildingBlock: QUQFOY_clean_sbu_3, # of connection points: 4
#     Node 22, Type 0, BuildingBlock: QUQFOY_clean_sbu_3, # of connection points: 4
#     Node 23, Type 0, BuildingBlock: QUQFOY_clean_sbu_3, # of connection points: 4
#     Node 24, Type 1, BuildingBlock: NUHQIS_clean_sbu_0, # of connection points: 6
#     Node 25, Type 1, BuildingBlock: NUHQIS_clean_sbu_0, # of connection points: 6
#     Node 26, Type 1, BuildingBlock: NUHQIS_clean_sbu_0, # of connection points: 6
#     Node 27, Type 1, BuildingBlock: NUHQIS_clean_sbu_0, # of connection points: 6
#     Node 28, Type 1, BuildingBlock: NUHQIS_clean_sbu_0, # of connection points: 6
#     Node 29, Type 1, BuildingBlock: NUHQIS_clean_sbu_0, # of connection points: 6
#     Node 30, Type 1, BuildingBlock: NUHQIS_clean_sbu_0, # of connection points: 6
#     Node 31, Type 1, BuildingBlock: NUHQIS_clean_sbu_0, # of connection points: 6
#     Node 32, Type 1, BuildingBlock: NUHQIS_clean_sbu_0, # of connection points: 6
#     Node 33, Type 1, BuildingBlock: NUHQIS_clean_sbu_0, # of connection points: 6
#     Node 34, Type 1, BuildingBlock: NUHQIS_clean_sbu_0, # of connection points: 6
#     Node 35, Type 1, BuildingBlock: NUHQIS_clean_sbu_0, # of connection points: 6
#     Node 36, Type 1, BuildingBlock: NUHQIS_clean_sbu_0, # of connection points: 6
#     Node 37, Type 1, BuildingBlock: NUHQIS_clean_sbu_0, # of connection points: 6
#     Node 38, Type 1, BuildingBlock: NUHQIS_clean_sbu_0, # of connection points: 6
#     Node 39, Type 1, BuildingBlock: NUHQIS_clean_sbu_0, # of connection points: 6
#     Edge 40, Type (0, 1), BuildingBlock: KIFKEQ_clean_linker_1, # of connection points: 2
#     Edge 41, Type (0, 1), BuildingBlock: KIFKEQ_clean_linker_1, # of connection points: 2
#     Edge 42, Type (0, 1), BuildingBlock: KIFKEQ_clean_linker_1, # of connection points: 2
#     Edge 43, Type (0, 1), BuildingBlock: KIFKEQ_clean_linker_1, # of connection points: 2
#     Edge 44, Type (0, 1), BuildingBlock: KIFKEQ_clean_linker_1, # of connection points: 2
#     Edge 45, Type (0, 1), BuildingBlock: KIFKEQ_clean_linker_1, # of connection points: 2
#     Edge 46, Type (0, 1), BuildingBlock: KIFKEQ_clean_linker_1, # of connection points: 2
#     Edge 47, Type (0, 1), BuildingBlock: KIFKEQ_clean_linker_1, # of connection points: 2
#     Edge 48, Type (0, 1), BuildingBlock: KIFKEQ_clean_linker_1, # of connection points: 2
#     Edge 49, Type (0, 1), BuildingBlock: KIFKEQ_clean_linker_1, # of connection points: 2
#     Edge 50, Type (0, 1), BuildingBlock: KIFKEQ_clean_linker_1, # of connection points: 2
#     Edge 51, Type (0, 1), BuildingBlock: KIFKEQ_clean_linker_1, # of connection points: 2
#     Edge 52, Type (0, 1), BuildingBlock: KIFKEQ_clean_linker_1, # of connection points: 2
#     Edge 53, Type (0, 1), BuildingBlock: KIFKEQ_clean_linker_1, # of connection points: 2
#     Edge 54, Type (0, 1), BuildingBlock: KIFKEQ_clean_linker_1, # of connection points: 2
#     Edge 55, Type (0, 1), BuildingBlock: KIFKEQ_clean_linker_1, # of connection points: 2
#     Edge 56, Type (0, 1), BuildingBlock: KIFKEQ_clean_linker_1, # of connection points: 2
#     Edge 57, Type (0, 1), BuildingBlock: KIFKEQ_clean_linker_1, # of connection points: 2
#     Edge 58, Type (0, 1), BuildingBlock: KIFKEQ_clean_linker_1, # of connection points: 2
#     Edge 59, Type (0, 1), BuildingBlock: KIFKEQ_clean_linker_1, # of connection points: 2
#     Edge 60, Type (0, 1), BuildingBlock: KIFKEQ_clean_linker_1, # of connection points: 2
#     Edge 61, Type (0, 1), BuildingBlock: KIFKEQ_clean_linker_1, # of connection points: 2
#     Edge 62, Type (0, 1), BuildingBlock: KIFKEQ_clean_linker_1, # of connection points: 2
#     Edge 63, Type (0, 1), BuildingBlock: KIFKEQ_clean_linker_1, # of connection points: 2
#     Edge 64, Type (0, 1), BuildingBlock: KIFKEQ_clean_linker_1, # of connection points: 2
#     Edge 65, Type (0, 1), BuildingBlock: KIFKEQ_clean_linker_1, # of connection points: 2
#     Edge 66, Type (0, 1), BuildingBlock: KIFKEQ_clean_linker_1, # of connection points: 2
#     Edge 67, Type (0, 1), BuildingBlock: KIFKEQ_clean_linker_1, # of connection points: 2
#     Edge 68, Type (0, 1), BuildingBlock: KIFKEQ_clean_linker_1, # of connection points: 2
#     Edge 69, Type (0, 1), BuildingBlock: KIFKEQ_clean_linker_1, # of connection points: 2
#     Edge 70, Type (0, 1), BuildingBlock: KIFKEQ_clean_linker_1, # of connection points: 2
#     Edge 71, Type (0, 1), BuildingBlock: KIFKEQ_clean_linker_1, # of connection points: 2
#     Edge 72, Type (0, 1), BuildingBlock: KIFKEQ_clean_linker_1, # of connection points: 2
#     Edge 73, Type (0, 1), BuildingBlock: KIFKEQ_clean_linker_1, # of connection points: 2
#     Edge 74, Type (0, 1), BuildingBlock: KIFKEQ_clean_linker_1, # of connection points: 2
#     Edge 75, Type (0, 1), BuildingBlock: KIFKEQ_clean_linker_1, # of connection points: 2
#     Edge 76, Type (0, 1), BuildingBlock: KIFKEQ_clean_linker_1, # of connection points: 2
#     Edge 77, Type (0, 1), BuildingBlock: KIFKEQ_clean_linker_1, # of connection points: 2
#     Edge 78, Type (0, 1), BuildingBlock: KIFKEQ_clean_linker_1, # of connection points: 2
#     Edge 79, Type (0, 1), BuildingBlock: KIFKEQ_clean_linker_1, # of connection points: 2
#     Edge 80, Type (0, 1), BuildingBlock: KIFKEQ_clean_linker_1, # of connection points: 2
#     Edge 81, Type (0, 1), BuildingBlock: KIFKEQ_clean_linker_1, # of connection points: 2
#     Edge 82, Type (0, 1), BuildingBlock: KIFKEQ_clean_linker_1, # of connection points: 2
#     Edge 83, Type (0, 1), BuildingBlock: KIFKEQ_clean_linker_1, # of connection points: 2
#     Edge 84, Type (0, 1), BuildingBlock: KIFKEQ_clean_linker_1, # of connection points: 2
#     Edge 85, Type (0, 1), BuildingBlock: KIFKEQ_clean_linker_1, # of connection points: 2
#     Edge 86, Type (0, 1), BuildingBlock: KIFKEQ_clean_linker_1, # of connection points: 2
#     Edge 87, Type (0, 1), BuildingBlock: KIFKEQ_clean_linker_1, # of connection points: 2
#     Edge 88, Type (0, 1), BuildingBlock: KIFKEQ_clean_linker_1, # of connection points: 2
#     Edge 89, Type (0, 1), BuildingBlock: KIFKEQ_clean_linker_1, # of connection points: 2
#     Edge 90, Type (0, 1), BuildingBlock: KIFKEQ_clean_linker_1, # of connection points: 2
#     Edge 91, Type (0, 1), BuildingBlock: KIFKEQ_clean_linker_1, # of connection points: 2
#     Edge 92, Type (0, 1), BuildingBlock: KIFKEQ_clean_linker_1, # of connection points: 2
#     Edge 93, Type (0, 1), BuildingBlock: KIFKEQ_clean_linker_1, # of connection points: 2
#     Edge 94, Type (0, 1), BuildingBlock: KIFKEQ_clean_linker_1, # of connection points: 2
#     Edge 95, Type (0, 1), BuildingBlock: KIFKEQ_clean_linker_1, # of connection points: 2
#     Edge 96, Type (0, 1), BuildingBlock: KIFKEQ_clean_linker_1, # of connection points: 2
#     Edge 97, Type (0, 1), BuildingBlock: KIFKEQ_clean_linker_1, # of connection points: 2
#     Edge 98, Type (0, 1), BuildingBlock: KIFKEQ_clean_linker_1, # of connection points: 2
#     Edge 99, Type (0, 1), BuildingBlock: KIFKEQ_clean_linker_1, # of connection points: 2
#     Edge 100, Type (0, 1), BuildingBlock: KIFKEQ_clean_linker_1, # of connection points: 2
#     Edge 101, Type (0, 1), BuildingBlock: KIFKEQ_clean_linker_1, # of connection points: 2
#     Edge 102, Type (0, 1), BuildingBlock: KIFKEQ_clean_linker_1, # of connection points: 2
#     Edge 103, Type (0, 1), BuildingBlock: KIFKEQ_clean_linker_1, # of connection points: 2
#     Edge 104, Type (0, 1), BuildingBlock: KIFKEQ_clean_linker_1, # of connection points: 2
#     Edge 105, Type (0, 1), BuildingBlock: KIFKEQ_clean_linker_1, # of connection points: 2
#     Edge 106, Type (0, 1), BuildingBlock: KIFKEQ_clean_linker_1, # of connection points: 2
#     Edge 107, Type (0, 1), BuildingBlock: KIFKEQ_clean_linker_1, # of connection points: 2
#     Edge 108, Type (0, 1), BuildingBlock: KIFKEQ_clean_linker_1, # of connection points: 2
#     Edge 109, Type (0, 1), BuildingBlock: KIFKEQ_clean_linker_1, # of connection points: 2
#     Edge 110, Type (0, 1), BuildingBlock: KIFKEQ_clean_linker_1, # of connection points: 2
#     Edge 111, Type (0, 1), BuildingBlock: KIFKEQ_clean_linker_1, # of connection points: 2
#     Edge 112, Type (0, 1), BuildingBlock: KIFKEQ_clean_linker_1, # of connection points: 2
#     Edge 113, Type (0, 1), BuildingBlock: KIFKEQ_clean_linker_1, # of connection points: 2
#     Edge 114, Type (0, 1), BuildingBlock: KIFKEQ_clean_linker_1, # of connection points: 2
#     Edge 115, Type (0, 1), BuildingBlock: KIFKEQ_clean_linker_1, # of connection points: 2
#     Edge 116, Type (0, 1), BuildingBlock: KIFKEQ_clean_linker_1, # of connection points: 2
#     Edge 117, Type (0, 1), BuildingBlock: KIFKEQ_clean_linker_1, # of connection points: 2
#     Edge 118, Type (0, 1), BuildingBlock: KIFKEQ_clean_linker_1, # of connection points: 2
#     Edge 119, Type (0, 1), BuildingBlock: KIFKEQ_clean_linker_1, # of connection points: 2
#     Edge 120, Type (0, 1), BuildingBlock: KIFKEQ_clean_linker_1, # of connection points: 2
#     Edge 121, Type (0, 1), BuildingBlock: KIFKEQ_clean_linker_1, # of connection points: 2
#     Edge 122, Type (0, 1), BuildingBlock: KIFKEQ_clean_linker_1, # of connection points: 2
#     Edge 123, Type (0, 1), BuildingBlock: KIFKEQ_clean_linker_1, # of connection points: 2
#     Edge 124, Type (0, 1), BuildingBlock: KIFKEQ_clean_linker_1, # of connection points: 2
#     Edge 125, Type (0, 1), BuildingBlock: KIFKEQ_clean_linker_1, # of connection points: 2
#     Edge 126, Type (0, 1), BuildingBlock: KIFKEQ_clean_linker_1, # of connection points: 2
#     Edge 127, Type (0, 1), BuildingBlock: KIFKEQ_clean_linker_1, # of connection points: 2
#     Edge 128, Type (0, 1), BuildingBlock: KIFKEQ_clean_linker_1, # of connection points: 2
#     Edge 129, Type (0, 1), BuildingBlock: KIFKEQ_clean_linker_1, # of connection points: 2
#     Edge 130, Type (0, 1), BuildingBlock: KIFKEQ_clean_linker_1, # of connection points: 2
#     Edge 131, Type (0, 1), BuildingBlock: KIFKEQ_clean_linker_1, # of connection points: 2
#     Edge 132, Type (0, 1), BuildingBlock: KIFKEQ_clean_linker_1, # of connection points: 2
#     Edge 133, Type (0, 1), BuildingBlock: KIFKEQ_clean_linker_1, # of connection points: 2
#     Edge 134, Type (0, 1), BuildingBlock: KIFKEQ_clean_linker_1, # of connection points: 2
#     Edge 135, Type (0, 1), BuildingBlock: KIFKEQ_clean_linker_1, # of connection points: 2
# Relax obj value: 0.206
# Max RMSD: 0.311
# Mean RMSD: 0.135
data_MOF--net-gar--node1-QUQFOY_clean_sbu_3--node2-NUHQIS_clean_sbu_0--edge1-KIFKEQ_clean_linker_1
_symmetry_space_group_name_H-M    P1
_symmetry_Int_Tables_number       1
_symmetry_cell_setting            triclinic
loop_
_symmetry_equiv_pos_as_xyz
'x, y, z'
_cell_length_a     57.677102
_cell_length_b     61.142818
_cell_length_c     58.560134
_cell_angle_alpha  94.537232
_cell_angle_beta   94.934056
_cell_angle_gamma 98.2639
loop_
_atom_site_label
_atom_site_type_symbol
_atom_site_fract_x
_atom_site_fract_y
_atom_site_fract_z
_atom_type_partial_charge
C0 C 0.03963 0.31143 0.37928 0.0
O1 O 0.05422 0.32561 0.37111 0.0
Cd2 Cd 0.09533 0.33602 0.38351 0.0
O3 O 0.04697 0.30075 0.39596 0.0
Cd4 Cd 0.08929 0.30073 0.41965 0.0
C5 C 0.09302 0.36088 0.43751 0.0
O6 O 0.11251 0.30224 0.38402 0.0
O7 O 0.13453 0.30709 0.41558 0.0
O8 O 0.07879 0.25779 0.42111 0.0
C9 C 0.13335 0.30454 0.39373 0.0
O10 O 0.09896 0.36341 0.41734 0.0
C11 C 0.08429 0.25621 0.44238 0.0
O12 O 0.08734 0.34089 0.44326 0.0
O13 O 0.09165 0.27495 0.45381 0.0
C14 C 1.0259 0.81046 0.68847 0.0
O15 O 0.0399 0.79992 0.69951 0.0
Cd16 Cd 0.07795 0.79298 0.68956 0.0
O17 O 0.03239 0.81925 0.67016 0.0
Cd18 Cd 0.07256 0.82342 0.64788 0.0
C19 C 0.0707 0.76316 0.63561 0.0
O20 O 0.10167 0.82733 0.68389 0.0
O21 O 0.11646 0.82078 0.65231 0.0
O22 O 0.07203 0.86585 0.64546 0.0
C23 C 0.12002 0.82494 0.67401 0.0
O24 O 0.07475 0.76401 0.65743 0.0
C25 C 0.07321 0.86722 0.62401 0.0
O26 O 0.06788 0.78133 0.62636 0.0
O27 O 0.07355 0.84849 0.6128 0.0
C28 C 0.53801 0.80445 0.87614 0.0
O29 O 0.5525 0.81771 0.86678 0.0
Cd30 Cd 0.59359 0.82826 0.87788 0.0
O31 O 0.54564 0.79426 0.89312 0.0
Cd32 Cd 0.58831 0.79415 0.91656 0.0
C33 C 0.58998 0.85438 0.93189 0.0
O34 O 0.61149 0.79516 0.88092 0.0
O35 O 0.63345 0.80149 0.91252 0.0
O36 O 0.57685 0.75119 0.91838 0.0
C37 C 0.63237 0.79847 0.8907 0.0
O38 O 0.59432 0.85555 0.91103 0.0
C39 C 0.58357 0.74948 0.93936 0.0
O40 O 0.58643 0.8349 0.9395 0.0
O41 O 0.59202 0.76813 0.9505 0.0
C42 C 0.52198 0.30438 0.1843 0.0
O43 O 0.53473 0.29023 0.19025 0.0
Cd44 Cd 0.56565 0.29641 0.16556 0.0
O45 O 0.52948 0.31687 0.16887 0.0
Cd46 Cd 0.57077 0.31715 0.14766 0.0
C47 C 0.57001 0.2583 0.13092 0.0
O48 O 0.59924 0.31955 0.18561 0.0
O49 O 0.61487 0.31464 0.15424 0.0
O50 O 0.57418 0.35999 0.14588 0.0
C51 C 0.61798 0.31839 0.17601 0.0
O52 O 0.57358 0.26 0.15266 0.0
C53 C 0.57376 0.3613 0.1243 0.0
O54 O 0.56628 0.27623 0.12175 0.0
O55 O 0.57173 0.34241 0.11276 0.0
C56 C 0.12167 0.86041 0.21643 0.0
O57 O 0.13902 0.85732 0.23006 0.0
Cd58 Cd 0.17927 0.86374 0.22261 0.0
O59 O 0.12475 0.86788 0.197 0.0
Cd60 Cd 0.15703 0.88001 0.1733 0.0
C61 C 0.17171 0.82788 0.17331 0.0
O62 O 0.18125 0.89818 0.20586 0.0
O63 O 0.19878 0.89842 0.17515 0.0
O64 O 0.13151 0.90457 0.15818 0.0
C65 C 0.19999 0.90354 0.19668 0.0
O66 O 0.18028 0.83211 0.19426 0.0
C67 C 0.13433 0.89952 0.13722 0.0
O68 O 0.16211 0.84217 0.16276 0.0
O69 O 0.14849 0.88591 0.13315 0.0
C70 C 0.48112 0.7129 0.34873 0.0
O71 O 0.49766 0.72016 0.33707 0.0
Cd72 Cd 0.53583 0.73823 0.35217 0.0
O73 O 0.48437 0.71369 0.37064 0.0
Cd74 Cd 0.51876 0.72455 0.40037 0.0
C75 C 0.52148 0.7783 0.39143 0.0
O76 O 0.54966 0.7141 0.37804 0.0
O77 O 0.56109 0.73598 0.40864 0.0
O78 O 0.50774 0.6916 0.41971 0.0
C79 C 0.56663 0.72462 0.39154 0.0
O80 O 0.53098 0.77354 0.37316 0.0
C81 C 0.51175 0.7016 0.43983 0.0
O82 O 0.51361 0.76317 0.40371 0.0
O83 O 0.51736 0.72254 0.44144 0.0
C84 C 0.61634 0.37345 0.71645 0.0
O85 O 0.63481 0.37089 0.7288 0.0
Cd86 Cd 0.67176 0.36678 0.71509 0.0
O87 O 0.61659 0.37531 0.69493 0.0
Cd88 Cd 0.64424 0.37716 0.66479 0.0
C89 C 0.65104 0.32384 0.67278 0.0
O90 O 0.67661 0.39534 0.69011 0.0
O91 O 0.68602 0.38507 0.65689 0.0
O92 O 0.62314 0.40439 0.64833 0.0
C93 C 0.69286 0.39298 0.67742 0.0
O94 O 0.66324 0.33056 0.69192 0.0
C95 C 0.62129 0.3952 0.62787 0.0
O96 O 0.64173 0.33729 0.66069 0.0
O97 O 0.63051 0.3777 0.62458 0.0
C98 C 1.00709 0.21788 0.84806 0.0
O99 O 1.02416 0.22631 0.83764 0.0
Cd100 Cd 0.06211 0.24291 0.85508 0.0
O101 O 1.00951 0.21676 0.86979 0.0
Cd102 Cd 0.04097 0.22592 0.90234 0.0
C103 C 0.04409 0.28047 0.89486 0.0
O104 O 0.07299 0.2178 0.88132 0.0
O105 O 0.08324 0.23582 0.91435 0.0
O106 O 1.02753 0.19181 0.91876 0.0
C107 C 0.08952 0.22728 0.89591 0.0
O108 O 0.05477 0.27677 0.87708 0.0
C109 C 1.02876 0.20087 0.93921 0.0
O110 O 0.03596 0.26468 0.90624 0.0
O111 O 0.03453 0.2218 0.94223 0.0
C112 C 0.57419 0.11999 0.35408 0.0
O113 O 0.58825 0.1084 0.34505 0.0
Cd114 Cd 0.58385 0.08506 0.30982 0.0
O115 O 0.55393 0.12098 0.34389 0.0
Cd116 Cd 0.53176 0.10594 0.30611 0.0
C117 C 0.53207 0.05148 0.31685 0.0
O118 O 0.56508 0.10626 0.28447 0.0
O119 O 0.53239 0.09144 0.26574 0.0
O120 O 0.51175 0.13786 0.29868 0.0
C121 C 0.55461 0.09525 0.26643 0.0
O122 O 0.55399 0.05321 0.31433 0.0
C123 C 0.49126 0.12671 0.29819 0.0
O124 O 0.52124 0.06821 0.31611 0.0
O125 O 0.49003 0.10648 0.30212 0.0
C126 C 0.38949 0.14928 0.53229 0.0
O127 O 0.37445 0.14165 0.54525 0.0
Cd128 Cd 0.34656 0.16708 0.54066 0.0
O129 O 0.38459 0.16569 0.52118 0.0
Cd130 Cd 0.3438 0.18452 0.52049 0.0
C131 C 0.34342 0.20234 0.57921 0.0
O132 O 0.31234 0.1482 0.51862 0.0
O133 O 0.29942 0.17891 0.52436 0.0
O134 O 0.34563 0.18804 0.47693 0.0
C135 C 0.29456 0.15795 0.52068 0.0
O136 O 0.33749 0.18149 0.57806 0.0
C137 C 0.34395 0.20852 0.47658 0.0
O138 O 0.34976 0.21042 0.56067 0.0
O139 O 0.34258 0.21836 0.4963 0.0
C140 C 0.18155 0.07209 0.87266 0.0
O141 O 0.16998 0.07804 0.85538 0.0
Cd142 Cd 0.18084 0.08213 0.81812 0.0
O143 O 0.20256 0.06794 0.87172 0.0
Cd144 Cd 0.23035 0.06737 0.8413 0.0
C145 C 0.22968 0.12159 0.83212 0.0
O146 O 0.19882 0.04968 0.81456 0.0
O147 O 0.23086 0.05657 0.79903 0.0
O148 O 0.24824 0.03897 0.86063 0.0
C149 C 0.20927 0.04829 0.79666 0.0
O150 O 0.20871 0.11656 0.82256 0.0
C151 C 0.26909 0.0468 0.85698 0.0
O152 O 0.24064 0.10707 0.84067 0.0
O153 O 0.27174 0.06451 0.84697 0.0
C154 C 0.37842 0.94229 0.03696 0.0
O155 O 0.36247 0.95116 0.02649 0.0
Cd156 Cd 0.32167 0.93726 0.01995 0.0
O157 O 0.37368 0.92347 0.04493 0.0
Cd158 Cd 0.33711 0.89621 0.04772 0.0
C159 C 0.32249 0.88673 0.98944 0.0
O160 O 0.31686 0.92649 0.05717 0.0
O161 O 0.29444 0.89514 0.05504 0.0
O162 O 0.35724 0.89179 0.08508 0.0
C163 C 0.29696 0.916 0.05966 0.0
O164 O 0.31629 0.90592 0.99064 0.0
C165 C 0.35004 0.87118 0.08502 0.0
O166 O 0.33224 0.87943 1.00711 0.0
O167 O 0.33786 0.8617 0.06686 0.0
C168 C 0.36043 0.46734 0.03488 0.0
O169 O 0.34684 0.47682 0.02208 0.0
Cd170 Cd 0.30653 0.46232 0.01012 0.0
O171 O 0.35197 0.44948 0.04358 0.0
Cd172 Cd 0.30903 0.42545 0.04367 0.0
C173 C 0.30983 0.41031 0.98325 0.0
O174 O 0.286 0.45832 0.0441 0.0
O175 O 0.2644 0.42698 0.03549 0.0
O176 O 0.32 0.42213 0.08691 0.0
C177 C 0.26526 0.44776 0.03995 0.0
O178 O 0.30625 0.43025 0.98174 0.0
C179 C 0.31111 0.40199 0.08793 0.0
O180 O 0.3125 0.40333 1.0034 0.0
O181 O 0.30157 0.39218 0.06869 0.0
C182 C 0.84214 0.1749 0.03663 0.0
O183 O 0.82826 0.16354 0.04844 0.0
Cd184 Cd 0.78892 0.16893 0.05243 0.0
O185 O 0.83593 0.19127 0.02668 0.0
Cd186 Cd 0.8012 0.21138 0.02303 0.0
C187 C 0.80211 0.22095 0.08172 0.0
O188 O 0.77659 0.17635 0.01449 0.0
O189 O 0.75709 0.20365 0.01732 0.0
O190 O 0.81619 0.21525 0.98593 0.0
C191 C 0.75694 0.18309 0.01214 0.0
O192 O 0.79371 0.20046 0.0809 0.0
C193 C 0.80952 0.23366 0.98241 0.0
O194 O 0.80791 0.22968 0.06349 0.0
O195 O 0.80013 0.24298 0.99871 0.0
C196 C 0.09059 0.50126 0.26 0.0
O197 O 0.07978 0.50397 0.24082 0.0
Cd198 Cd 0.09453 0.49914 0.20423 0.0
O199 O 0.11095 0.49528 0.26109 0.0
Cd200 Cd 0.14122 0.48546 0.23626 0.0
C201 C 0.14514 0.53707 0.21556 0.0
O202 O 0.11151 0.46623 0.20904 0.0
O203 O 0.14577 0.46586 0.19787 0.0
O204 O 0.15536 0.46114 0.26416 0.0
C205 C 0.12365 0.46068 0.19327 0.0
O206 O 0.12467 0.53225 0.20472 0.0
C207 C 0.17625 0.4717 0.26665 0.0
O208 O 0.15365 0.52324 0.22772 0.0
O209 O 0.18067 0.48766 0.25431 0.0
C210 C 0.85938 0.96414 0.52736 0.0
O211 O 0.84528 0.9711 0.51274 0.0
Cd212 Cd 0.80381 0.95868 0.50441 0.0
O213 O 0.85131 0.9487 0.53969 0.0
Cd214 Cd 0.80856 0.92484 0.54145 0.0
C215 C 0.80535 0.90616 0.4807 0.0
O216 O 0.78568 0.95776 0.54 0.0
O217 O 0.76367 0.92635 0.53555 0.0
O218 O 0.81734 0.92263 0.58532 0.0
C219 C 0.76483 0.94732 0.53795 0.0
O220 O 0.79963 0.92512 0.4776 0.0
C221 C 0.81114 0.90188 0.58611 0.0
O222 O 0.81099 0.90149 0.50138 0.0
O223 O 0.80419 0.89133 0.56651 0.0
C224 C 0.95327 0.99965 0.26116 0.0
O225 O 0.96417 0.99736 0.24337 0.0
Cd226 Cd 0.95232 1.00899 0.20679 0.0
O227 O 0.93507 1.00932 0.26067 0.0
Cd228 Cd 0.91043 0.02744 0.23332 0.0
C229 C 0.89737 0.97785 0.20153 0.0
O230 O 0.943 0.04517 0.2164 0.0
O231 O 0.90969 0.04698 0.19785 0.0
O232 O 0.90659 0.05315 0.26579 0.0
C233 C 0.93187 0.0524 0.19981 0.0
O234 O 0.91786 0.98098 0.19467 0.0
C235 C 0.8847 0.05318 0.26099 0.0
O236 O 0.89091 0.99191 0.2159 0.0
O237 O 0.87463 0.04065 0.24354 0.0
C238 C 0.33535 0.66361 0.52805 0.0
O239 O 0.3196 0.65351 0.53893 0.0
Cd240 Cd 0.28483 0.66712 0.54727 0.0
O241 O 0.33325 0.68253 0.52096 0.0
Cd242 Cd 0.30424 0.70941 0.51984 0.0
C243 C 0.30925 0.71685 0.57854 0.0
O244 O 0.2742 0.67825 0.51026 0.0
O245 O 0.26052 0.70899 0.51428 0.0
O246 O 0.32018 0.71275 0.48317 0.0
C247 C 0.25662 0.68827 0.50844 0.0
O248 O 0.29902 0.69687 0.57738 0.0
C249 C 0.31753 0.73277 0.48128 0.0
O250 O 0.31366 0.72617 0.56032 0.0
O251 O 0.30976 0.74281 0.49819 0.0
C252 C 0.48543 0.5272 0.74823 0.0
O253 O 0.49298 0.52288 0.72889 0.0
Cd254 Cd 0.46869 0.52127 0.69391 0.0
O255 O 0.46471 0.53196 0.74953 0.0
Cd256 Cd 0.42945 0.5382 0.72478 0.0
C257 C 0.42182 0.48381 0.70624 0.0
O258 O 0.45405 0.5559 0.69975 0.0
O259 O 0.41781 0.54998 0.68599 0.0
O260 O 0.42626 0.56608 0.75569 0.0
C261 C 0.43877 0.55861 0.68394 0.0
O262 O 0.44022 0.48734 0.69569 0.0
C263 C 0.40392 0.56284 0.75397 0.0
O264 O 0.41471 0.49947 0.71793 0.0
O265 O 0.39345 0.54796 0.73871 0.0
C266 C 0.5822 0.9851 0.76067 0.0
O267 O 0.57173 0.98755 0.74124 0.0
Cd268 Cd 0.58845 0.98595 0.70542 0.0
O269 O 0.60337 0.9811 0.76252 0.0
Cd270 Cd 0.63609 0.97537 0.73926 0.0
C271 C 0.63532 0.02746 0.72039 0.0
O272 O 0.60943 0.95543 0.70982 0.0
O273 O 0.64484 0.95898 0.70089 0.0
O274 O 0.65197 0.95143 0.76654 0.0
C275 C 0.62316 0.95244 0.69464 0.0
O276 O 0.61555 0.02141 0.70846 0.0
C277 C 0.67187 0.96384 0.77041 0.0
O278 O 0.64476 1.01402 0.73237 0.0
O279 O 0.67505 0.98074 0.75913 0.0
C280 C 0.88776 0.64628 0.03225 0.0
O281 O 0.87452 0.6374 0.04632 0.0
Cd282 Cd 0.83478 0.64309 0.05275 0.0
O283 O 0.88038 0.66112 0.02006 0.0
Cd284 Cd 0.84097 0.68096 0.01683 0.0
C285 C 0.83955 0.69676 0.07776 0.0
O286 O 0.81197 0.64517 0.01707 0.0
O287 O 0.79658 0.67495 0.01726 0.0
O288 O 0.84405 0.68475 0.97337 0.0
C289 C 0.79334 0.65401 0.01734 0.0
O290 O 0.83478 0.67594 0.07905 0.0
C291 C 0.84224 0.70523 0.97302 0.0
O292 O 0.84457 0.70401 0.05834 0.0
O293 O 0.84049 0.71496 0.99272 0.0
C294 C 0.0708 0.61465 0.84329 0.0
O295 O 0.08303 0.60354 0.83108 0.0
Cd296 Cd 0.07111 0.58049 0.79559 0.0
O297 O 0.04925 0.61535 0.83683 0.0
Cd298 Cd 1.02006 0.60023 0.804 0.0
C299 C 1.02505 0.54703 0.81497 0.0
O300 O 0.04541 0.59912 0.7737 0.0
O301 O 1.01011 0.58228 0.76492 0.0
O302 O 0.99988 0.63262 0.80146 0.0
C303 C 0.03088 0.58639 0.75929 0.0
O304 O 0.04468 0.54865 0.80623 0.0
C305 C 0.98001 0.62203 0.80496 0.0
O306 O 1.01425 0.56368 0.81779 0.0
O307 O 0.97932 0.6018 0.80878 0.0
C308 C 0.88577 0.44281 0.54165 0.0
O309 O 0.86985 0.45256 0.53245 0.0
Cd310 Cd 0.8289 0.44045 0.52949 0.0
O311 O 0.88056 0.42422 0.54998 0.0
Cd312 Cd 0.84351 0.39792 0.55395 0.0
C313 C 0.82769 0.39117 0.49569 0.0
O314 O 0.8239 0.42797 0.56617 0.0
O315 O 0.80051 0.39715 0.55887 0.0
O316 O 0.8619 0.39406 0.59221 0.0
C317 C 0.80357 0.41739 0.56675 0.0
O318 O 0.82266 0.41072 0.49876 0.0
C319 C 0.85672 0.37316 0.59168 0.0
O320 O 0.83695 0.38211 0.51247 0.0
O321 O 0.84631 0.36316 0.57288 0.0
C322 C 0.6932 0.55777 0.36129 0.0
O323 O 0.68248 0.56144 0.34244 0.0
Cd324 Cd 0.69848 0.56721 0.30733 0.0
O325 O 0.71518 0.55653 0.36302 0.0
Cd326 Cd 0.74727 0.55824 0.33708 0.0
C327 C 0.74219 0.61109 0.32711 0.0
O328 O 0.7222 0.53881 0.3054 0.0
O329 O 0.75535 0.55349 0.29574 0.0
O330 O 0.76357 0.52894 0.35562 0.0
C331 C 0.73533 0.54211 0.28951 0.0
O332 O 0.72316 0.60358 0.31447 0.0
C333 C 0.78456 0.53912 0.35867 0.0
O334 O 0.75354 0.59827 0.3382 0.0
O335 O 0.78805 0.55857 0.35224 0.0
Tb336 Tb 0.03653 0.03217 0.02224 0.0
Eu337 Eu 0.08437 0.04951 0.05769 0.0
C338 C 0.08629 0.04141 1.00493 0.0
C339 C 0.06511 0.99842 0.04249 0.0
C340 C 0.97936 0.03687 0.9973 0.0
C341 C 0.9587 0.06432 0.9799 0.0
C342 C 0.97182 0.04683 0.97776 0.0
C343 C 0.97227 0.04368 0.01877 0.0
C344 C 0.95918 0.06103 0.02089 0.0
C345 C 0.95302 0.07208 1.00166 0.0
C346 C 0.99885 0.0238 0.99636 0.0
O347 O 1.02655 0.03134 0.05733 0.0
O348 O 0.05466 0.05846 0.07657 0.0
O349 O 0.07441 0.0798 0.0418 0.0
O350 O 0.03504 0.06647 0.03322 0.0
C351 C 0.03369 0.04658 0.07463 0.0
O352 O 0.10372 0.04853 0.0912 0.0
O353 O 0.12056 0.06637 0.06498 0.0
O354 O 0.09537 0.03598 0.02445 0.0
O355 O 0.06455 0.04537 1.00246 0.0
O356 O 0.05412 1.00323 0.02348 0.0
O357 O 0.07227 1.01332 0.05991 0.0
C358 C 0.05263 0.08292 0.03596 0.0
O359 O 1.01806 0.03479 0.99035 0.0
O360 O 1.00318 1.01276 0.01406 0.0
C361 C 0.14192 0.04278 0.08519 0.0
C362 C 0.17287 1.01113 0.08761 0.0
C363 C 0.17149 0.02609 0.10686 0.0
C364 C 0.15603 0.04176 0.10566 0.0
C365 C 0.14343 0.02799 0.06597 0.0
C366 C 0.15878 1.01243 0.06712 0.0
C367 C 0.12361 0.05718 0.08423 0.0
H368 H 0.95416 0.07252 0.96478 0.0
H369 H 0.97744 0.04213 0.96112 0.0
H370 H 0.97805 0.03658 0.03426 0.0
H371 H 0.95454 0.06628 0.03779 0.0
H372 H 0.18202 0.0254 0.12294 0.0
H373 H 0.15475 0.05275 0.1208 0.0
H374 H 0.13245 0.0282 0.05007 0.0
H375 H 0.1597 1.00153 0.05183 0.0
Tb376 Tb 0.35627 0.81293 0.29133 0.0
Eu377 Eu 0.30483 0.78358 0.27056 0.0
C378 C 0.31246 0.83612 0.28151 0.0
C379 C 0.32331 0.78674 0.32327 0.0
C380 C 0.40861 0.85715 0.30678 0.0
C381 C 0.41146 0.89632 0.30121 0.0
C382 C 0.3979 0.87544 0.30095 0.0
C383 C 0.43308 0.85979 0.31192 0.0
C384 C 0.44668 0.88062 0.31196 0.0
C385 C 0.43593 0.89916 0.30705 0.0
C386 C 0.39449 0.83564 0.30914 0.0
O387 O 0.3608 0.7785 0.29261 0.0
O388 O 0.3311 0.76013 0.26598 0.0
O389 O 0.31813 0.80292 0.24213 0.0
O390 O 0.35772 0.81059 0.25406 0.0
C391 C 0.35104 0.761 0.27886 0.0
O392 O 0.28141 0.76639 0.24157 0.0
O393 O 0.26836 0.77048 0.27503 0.0
O394 O 0.29924 0.81754 0.28493 0.0
O395 O 0.33496 0.83684 0.27927 0.0
O396 O 0.33541 0.80596 0.32005 0.0
O397 O 0.31308 0.77303 0.30579 0.0
C398 C 0.33999 0.80912 0.23799 0.0
O399 O 0.37419 0.83637 0.31713 0.0
O400 O 0.39316 0.82037 0.29204 0.0
C401 C 0.25211 0.73852 0.25031 0.0
C402 C 0.23016 0.69416 0.24059 0.0
C403 C 0.25289 0.69916 0.25236 0.0
C404 C 0.2638 0.72119 0.25715 0.0
C405 C 0.22941 0.73369 0.23881 0.0
C406 C 0.2185 0.71169 0.23399 0.0
C407 C 0.26384 0.7616 0.25381 0.0
H408 H 0.40281 0.91031 0.29708 0.0
H409 H 0.37901 0.87369 0.29677 0.0
H410 H 0.4416 0.84584 0.31649 0.0
H411 H 0.46548 0.88239 0.31665 0.0
H412 H 0.26244 0.68603 0.25746 0.0
H413 H 0.28146 0.72469 0.26587 0.0
H414 H 0.22022 0.74693 0.23334 0.0
H415 H 0.20088 0.70842 0.22521 0.0
Tb416 Tb 0.56559 0.03384 0.51075 0.0
Eu417 Eu 0.59067 0.06745 0.5554 0.0
C418 C 0.56849 1.01774 0.55969 0.0
C419 C 0.53912 0.07295 0.5326 0.0
C420 C 0.54168 0.98375 0.47037 0.0
C421 C 0.53341 0.94464 0.47647 0.0
C422 C 0.5358 0.96695 0.48487 0.0
C423 C 0.54548 0.97785 0.44752 0.0
C424 C 0.54332 0.95555 0.43919 0.0
C425 C 0.53708 0.93874 0.45354 0.0
C426 C 0.54325 1.0074 0.47846 0.0
O427 O 0.57944 0.06342 0.4954 0.0
O428 O 0.59841 0.08767 0.52592 0.0
O429 O 0.6176 0.04438 0.5479 0.0
O430 O 0.60108 0.02366 0.51429 0.0
C431 C 0.59183 0.08245 0.50396 0.0
O432 O 0.62164 0.08655 0.57534 0.0
O433 O 0.58811 0.0826 0.58986 0.0
O434 O 0.5683 0.03828 0.56775 0.0
O435 O 0.57092 1.01284 0.53804 0.0
O436 O 0.53778 0.05227 0.5233 0.0
O437 O 0.5591 0.08344 0.54329 0.0
C438 C 0.61865 0.02915 0.53085 0.0
O439 O 0.5351 1.01194 0.49811 0.0
O440 O 0.56304 1.02008 0.47639 0.0
C441 C 0.61395 0.11591 0.60034 0.0
C442 C 0.62242 0.16133 0.61569 0.0
C443 C 0.60876 0.15383 0.59472 0.0
C444 C 0.60459 0.13126 0.58707 0.0
C445 C 0.62755 0.12325 0.62121 0.0
C446 C 0.63177 0.1458 0.62886 0.0
C447 C 0.60998 0.09228 0.59239 0.0
H448 H 0.52883 0.93199 0.48795 0.0
H449 H 0.53289 0.97099 0.50264 0.0
H450 H 0.54993 0.99053 0.43603 0.0
H451 H 0.54604 0.95145 0.42138 0.0
H452 H 0.60156 0.16543 0.58408 0.0
H453 H 0.59415 0.12579 0.57081 0.0
H454 H 0.63488 0.11153 0.6316 0.0
H455 H 0.64211 0.15105 0.64521 0.0
Tb456 Tb 0.30609 0.31168 0.77319 0.0
Eu457 Eu 0.35783 0.30181 0.79123 0.0
C458 C 0.35063 0.34275 0.76229 0.0
C459 C 0.33521 0.28574 0.73853 0.0
C460 C 0.24627 0.31771 0.77848 0.0
C461 C 0.20504 0.30929 0.78438 0.0
C462 C 0.22255 0.31522 0.76993 0.0
C463 C 0.25234 0.31533 0.80174 0.0
C464 C 0.23503 0.30915 0.81602 0.0
C465 C 0.21117 0.3054 0.8074 0.0
C466 C 0.26493 0.31907 0.76305 0.0
O467 O 0.29984 0.28587 0.7962 0.0
O468 O 0.33362 0.27042 0.79444 0.0
O469 O 0.34158 0.31215 0.8238 0.0
O470 O 0.31536 0.33191 0.80679 0.0
C471 C 0.3117 0.2694 0.79903 0.0
O472 O 0.38766 0.28369 0.78863 0.0
O473 O 0.3886 0.3096 0.81628 0.0
O474 O 0.36249 0.33639 0.78004 0.0
O475 O 0.32972 0.33236 0.75433 0.0
O476 O 0.31441 0.28821 0.74542 0.0
O477 O 0.35464 0.29309 0.75221 0.0
C478 C 0.32701 0.32676 0.82556 0.0
O479 O 0.28271 0.33479 0.76913 0.0
O480 O 0.27185 0.30006 0.75796 0.0
C481 C 0.42344 0.30728 0.79896 0.0
C482 C 0.4659 0.32691 0.78399 0.0
C483 C 0.46288 0.30459 0.789 0.0
C484 C 0.44178 0.29485 0.79645 0.0
C485 C 0.42647 0.3296 0.79419 0.0
C486 C 0.44754 0.33936 0.78688 0.0
C487 C 0.40067 0.29664 0.80505 0.0
H488 H 0.18679 0.30692 0.7773 0.0
H489 H 0.21763 0.31685 0.75194 0.0
H490 H 0.27059 0.31687 0.80858 0.0
H491 H 0.24058 0.30594 0.83341 0.0
H492 H 0.47659 0.29448 0.78661 0.0
H493 H 0.43961 0.27754 0.79981 0.0
H494 H 0.41245 0.33947 0.79588 0.0
H495 H 0.44942 0.35664 0.78346 0.0
Tb496 Tb 0.07938 0.04925 0.50744 0.0
Eu497 Eu 0.07786 0.07371 0.55713 0.0
C498 C 0.12642 0.0777 0.53202 0.0
C499 C 0.08192 0.02058 0.55173 0.0
C500 C 0.06418 1.01398 0.45155 0.0
C501 C 0.0601 0.98808 0.41744 0.0
C502 C 0.07408 1.00013 0.43619 0.0
C503 C 0.03976 1.01403 0.44924 0.0
C504 C 1.02584 1.00226 0.43032 0.0
C505 C 0.03609 0.99006 0.41356 0.0
C506 C 0.07979 0.03047 0.4676 0.0
O507 O 0.04124 0.04397 0.51142 0.0
O508 O 0.04236 0.05155 0.55041 0.0
O509 O 0.06762 0.09956 0.5332 0.0
O510 O 0.08243 0.08525 0.50135 0.0
C511 C 0.03088 0.04289 0.53066 0.0
O512 O 0.0591 0.08495 0.58577 0.0
O513 O 0.09702 0.09265 0.58752 0.0
O514 O 0.11352 0.08731 0.54601 0.0
O515 O 0.1171 0.05962 0.51878 0.0
O516 O 0.07551 0.02102 0.52951 0.0
O517 O 0.08793 0.03958 0.56482 0.0
C518 C 0.07474 0.10206 0.51259 0.0
O519 O 0.07215 0.04925 0.47194 0.0
O520 O 0.0895 0.02355 0.48605 0.0
C521 C 0.08149 0.08457 0.62141 0.0
C522 C 0.10205 0.07053 0.66175 0.0
C523 C 0.09872 0.09281 0.66082 0.0
C524 C 0.08866 0.09981 0.64067 0.0
C525 C 0.08246 0.06195 0.62306 0.0
C526 C 0.09272 0.05495 0.64311 0.0
C527 C 0.07852 0.09272 0.59874 0.0
H528 H 0.06841 0.97835 0.40518 0.0
H529 H 0.09286 0.99969 0.43789 0.0
H530 H 0.0317 0.02443 0.46111 0.0
H531 H 1.00746 1.00426 0.42794 0.0
H532 H 0.10525 0.10508 0.67515 0.0
H533 H 0.08811 0.11735 0.63959 0.0
H534 H 0.07708 0.04999 0.60824 0.0
H535 H 0.09503 0.03769 0.64325 0.0
Tb536 Tb 0.31372 0.78612 0.78923 0.0
Eu537 Eu 0.33589 0.8345 0.77549 0.0
C538 C 0.31786 0.82699 0.82419 0.0
C539 C 0.2801 0.815 0.76267 0.0
C540 C 0.30821 0.7283 0.80309 0.0
C541 C 0.30775 0.69176 0.81649 0.0
C542 C 0.29771 0.71116 0.81502 0.0
C543 C 0.32896 0.72613 0.79292 0.0
C544 C 0.3389 0.70678 0.79424 0.0
C545 C 0.32841 0.68934 0.806 0.0
C546 C 0.29781 0.74859 0.80134 0.0
O547 O 0.33133 0.77948 0.75833 0.0
O548 O 0.33114 0.81265 0.74246 0.0
O549 O 0.36763 0.81741 0.78416 0.0
O550 O 0.35044 0.79095 0.80556 0.0
C551 C 0.33226 0.79133 0.74048 0.0
O552 O 0.33086 0.86746 0.76637 0.0
O553 O 0.36602 0.85936 0.77091 0.0
O554 O 0.33536 0.83621 0.8138 0.0
O555 O 0.30263 0.81078 0.81325 0.0
O556 O 0.28491 0.79514 0.76656 0.0
O557 O 0.29588 0.83282 0.76885 0.0
C558 C 0.36949 0.80277 0.79931 0.0
O559 O 0.30765 0.76535 0.81569 0.0
O560 O 0.29428 0.7544 0.78056 0.0
C561 C 0.35967 0.89476 0.78549 0.0
C562 C 0.35979 0.93157 0.81731 0.0
C563 C 0.36116 0.93441 0.79385 0.0
C564 C 0.36091 0.91603 0.77797 0.0
C565 C 0.36045 0.8922 0.80915 0.0
C566 C 0.36035 0.91046 0.82495 0.0
C567 C 0.35325 0.87514 0.7689 0.0
H568 H 0.29939 0.67869 0.82581 0.0
H569 H 0.28176 0.71275 0.82311 0.0
H570 H 0.33732 0.73931 0.78371 0.0
H571 H 0.35451 0.70532 0.78555 0.0
H572 H 0.36043 0.95052 0.78756 0.0
H573 H 0.36011 0.91825 0.75976 0.0
H574 H 0.35951 0.87589 0.81526 0.0
H575 H 0.35925 0.90791 0.84295 0.0
Tb576 Tb 0.59076 0.04977 0.05448 0.0
Eu577 Eu 0.5577 0.05985 0.0099 0.0
C578 C 0.57781 1.01138 0.01179 0.0
C579 C 0.61333 0.07379 0.01357 0.0
C580 C 0.61701 0.02546 0.10593 0.0
C581 C 0.63961 1.01605 0.13953 0.0
C582 C 0.63879 0.02449 0.11806 0.0
C583 C 0.59644 1.01432 0.11336 0.0
C584 C 0.5972 1.0063 0.135 0.0
C585 C 0.61856 1.00946 0.14935 0.0
C586 C 0.61559 0.0424 0.08971 0.0
O587 O 0.58142 0.08348 0.06437 0.0
O588 O 0.56556 0.09388 0.03023 0.0
O589 O 0.53752 0.05603 0.04063 0.0
O590 O 0.55644 0.02983 0.05516 0.0
C591 C 0.57356 0.09882 0.05209 0.0
O592 O 0.54806 0.0767 0.9798 0.0
O593 O 0.52249 0.05186 0.99198 0.0
O594 O 0.56351 0.0236 1.00158 0.0
O595 O 0.59082 1.01924 0.03125 0.0
O596 O 0.6143 0.07033 0.03541 0.0
O597 O 0.59414 0.06821 0.99942 0.0
C598 C 0.53691 0.03789 0.05097 0.0
O599 O 0.62086 0.03789 0.06883 0.0
O600 O 0.59723 0.05261 0.09019 0.0
C601 C 0.52236 0.05336 0.95177 0.0
C602 C 0.52011 0.03227 0.90703 0.0
C603 C 0.52517 0.05554 0.91093 0.0
C604 C 0.52618 0.06598 0.93311 0.0
C605 C 0.51578 0.03024 0.9477 0.0
C606 C 0.51454 1.01982 0.9255 0.0
C607 C 0.52758 0.06419 0.97535 0.0
H608 H 0.65646 1.01771 0.14972 0.0
H609 H 0.65494 0.03254 0.11224 0.0
H610 H 0.57946 1.01434 0.10388 0.0
H611 H 0.58057 1.00081 0.14155 0.0
H612 H 0.52978 0.06562 0.89712 0.0
H613 H 0.53118 0.08384 0.93587 0.0
H614 H 0.51255 1.02003 0.96173 0.0
H615 H 0.51015 1.00191 0.92296 0.0
Tb616 Tb 0.33549 0.33057 0.29722 0.0
Eu617 Eu 0.31392 0.28271 0.26971 0.0
C618 C 0.33479 0.28585 0.32397 0.0
C619 C 0.36952 0.30503 0.26703 0.0
C620 C 0.33974 0.38294 0.33422 0.0
C621 C 0.3025 0.39035 0.34685 0.0
C622 C 0.31768 0.37532 0.34134 0.0
C623 C 0.34812 0.40572 0.33661 0.0
C624 C 0.33319 0.42082 0.34273 0.0
C625 C 0.30948 0.41323 0.34567 0.0
C626 C 0.35015 0.36849 0.31815 0.0
O627 O 0.32888 0.33805 0.26083 0.0
O628 O 0.30504 0.30683 0.24361 0.0
O629 O 0.28261 0.29216 0.28763 0.0
O630 O 0.29844 0.32633 0.30601 0.0
C631 C 0.31564 0.32729 0.24268 0.0
O632 O 0.31203 0.25878 0.2396 0.0
O633 O 0.2917 0.25038 0.26772 0.0
O634 O 0.33003 0.27362 0.30408 0.0
O635 O 0.33628 0.30769 0.32481 0.0
O636 O 0.36717 0.32146 0.28233 0.0
O637 O 0.35196 0.28877 0.26065 0.0
C638 C 0.28082 0.30963 0.30173 0.0
O639 O 0.35598 0.35017 0.32522 0.0
O640 O 0.33844 0.36502 0.29789 0.0
C641 C 0.31231 0.22314 0.25155 0.0
C642 C 0.34505 0.19345 0.25719 0.0
C643 C 0.33777 0.19898 0.23511 0.0
C644 C 0.3215 0.21368 0.23232 0.0
C645 C 0.31824 0.21627 0.27337 0.0
C646 C 0.33441 0.20159 0.27615 0.0
C647 C 0.30048 0.24283 0.24944 0.0
H648 H 0.28452 0.38375 0.34928 0.0
H649 H 0.31117 0.35773 0.33995 0.0
H650 H 0.36523 0.41191 0.33138 0.0
H651 H 0.33945 0.43838 0.34261 0.0
H652 H 0.34541 0.19269 0.22014 0.0
H653 H 0.31723 0.21874 0.21533 0.0
H654 H 0.31159 0.22331 0.2886 0.0
H655 H 0.33975 0.19783 0.29342 0.0
Tb656 Tb 0.57975 0.54299 0.00915 0.0
Eu657 Eu 0.58078 0.56897 0.05851 0.0
C658 C 0.6275 0.57105 0.0322 0.0
C659 C 0.58464 0.51549 0.05408 0.0
C660 C 0.58319 0.52438 0.94695 0.0
C661 C 0.58497 0.50669 0.90886 0.0
C662 C 0.58679 0.50599 0.93266 0.0
C663 C 0.58018 0.54429 0.93751 0.0
C664 C 0.57829 0.54499 0.91366 0.0
C665 C 0.57936 0.52578 0.89915 0.0
C666 C 0.57884 0.52124 0.97076 0.0
O667 O 0.54561 0.53088 0.02137 0.0
O668 O 0.54159 0.5599 0.04681 0.0
O669 O 0.57791 0.59662 0.03454 0.0
O670 O 0.57342 0.57659 0.99916 0.0
C671 C 0.53244 0.54124 0.03446 0.0
O672 O 0.56935 0.57197 0.09306 0.0
O673 O 0.59538 0.59741 0.08293 0.0
O674 O 0.6193 0.56806 0.0522 0.0
O675 O 0.61338 0.5654 0.01322 0.0
O676 O 0.58913 0.51767 0.03248 0.0
O677 O 0.57975 0.53273 0.06678 0.0
C678 C 0.5752 0.59596 0.01184 0.0
O679 O 0.59707 0.52441 0.98611 0.0
O680 O 0.56089 0.52957 0.97804 0.0
C681 C 0.60126 0.58647 0.12063 0.0
C682 C 0.6326 0.57619 0.15653 0.0
C683 C 0.6084 0.56805 0.15528 0.0
C684 C 0.59288 0.57323 0.13759 0.0
C685 C 0.62528 0.59547 0.12249 0.0
C686 C 0.64077 0.59038 0.14025 0.0
C687 C 0.58545 0.58895 0.10006 0.0
H688 H 0.58617 0.49178 0.898 0.0
H689 H 0.58929 0.49056 0.93977 0.0
H690 H 0.57752 0.5587 0.94841 0.0
H691 H 0.57388 0.55989 0.90662 0.0
H692 H 0.60152 0.55697 0.16745 0.0
H693 H 0.57446 0.56614 0.13668 0.0
H694 H 0.63231 0.60593 0.10985 0.0
H695 H 0.65921 0.59734 0.14104 0.0
Tb696 Tb 0.81503 0.29043 0.29289 0.0
Eu697 Eu 0.83406 0.3399 0.27889 0.0
C698 C 0.81909 0.33187 0.32864 0.0
C699 C 0.77917 0.3179 0.26669 0.0
C700 C 0.80773 0.23164 0.30634 0.0
C701 C 0.8031 0.19445 0.31852 0.0
C702 C 0.79544 0.21504 0.31772 0.0
C703 C 0.828 0.22775 0.29611 0.0
C704 C 0.83563 0.20717 0.29681 0.0
C705 C 0.82317 0.19025 0.30789 0.0
C706 C 0.79912 0.25284 0.30493 0.0
O707 O 0.83221 0.28466 0.26152 0.0
O708 O 0.82812 0.31738 0.24624 0.0
O709 O 0.86731 0.32739 0.29288 0.0
O710 O 0.85246 0.29455 0.30674 0.0
C711 C 0.83104 0.29651 0.24373 0.0
O712 O 0.82877 0.37403 0.27595 0.0
O713 O 0.86039 0.36301 0.26466 0.0
O714 O 0.83466 0.34283 0.31721 0.0
O715 O 0.80505 0.31424 0.31874 0.0
O716 O 0.78533 0.2985 0.27058 0.0
O717 O 0.79397 0.33639 0.27266 0.0
C718 C 0.87031 0.3101 0.30434 0.0
O719 O 0.81023 0.26918 0.31912 0.0
O720 O 0.79539 0.25882 0.28426 0.0
C721 C 0.86325 0.39919 0.28319 0.0
C722 C 0.87679 0.43648 0.31531 0.0
C723 C 0.86817 0.43891 0.29251 0.0
C724 C 0.86144 0.42039 0.27662 0.0
C725 C 0.87399 0.39678 0.30509 0.0
C726 C 0.88089 0.41534 0.32101 0.0
C727 C 0.84958 0.37994 0.2693 0.0
H728 H 0.79331 0.18182 0.32738 0.0
H729 H 0.77981 0.21794 0.3258 0.0
H730 H 0.83768 0.2405 0.28728 0.0
H731 H 0.85092 0.20435 0.28812 0.0
H732 H 0.86443 0.45479 0.28744 0.0
H733 H 0.85297 0.42248 0.25985 0.0
H734 H 0.8754 0.38042 0.31046 0.0
H735 H 0.88782 0.4129 0.33825 0.0
Tb736 Tb 0.09456 0.55625 0.5577 0.0
Eu737 Eu 0.05935 0.5647 0.51452 0.0
C738 C 0.08169 0.51808 0.51531 0.0
C739 C 0.11328 0.58358 0.51829 0.0
C740 C 0.12005 0.52975 0.60626 0.0
C741 C 0.12425 0.5223 0.64615 0.0
C742 C 0.13251 0.53372 0.62808 0.0
C743 C 0.10197 0.51155 0.60161 0.0
C744 C 0.09378 0.49998 0.61968 0.0
C745 C 0.10321 0.50702 0.64249 0.0
C746 C 0.12076 0.54813 0.5917 0.0
O747 O 0.08376 0.58901 0.56887 0.0
O748 O 0.06546 0.5985 0.5354 0.0
O749 O 0.03924 0.55975 0.54524 0.0
O750 O 0.0611 0.53531 0.55948 0.0
C751 C 0.07432 0.60382 0.55699 0.0
O752 O 0.04953 0.58273 0.48543 0.0
O753 O 1.02511 0.55528 0.49473 0.0
O754 O 0.06388 0.52797 0.508 0.0
O755 O 0.09774 0.5285 0.53162 0.0
O756 O 0.11402 0.58158 0.54039 0.0
O757 O 0.09603 0.57278 0.50388 0.0
C758 C 0.04079 0.54228 0.55639 0.0
O759 O 0.1252 0.54424 0.57042 0.0
O760 O 0.10299 0.55896 0.59323 0.0
C761 C 1.02668 0.55994 0.45508 0.0
C762 C 1.02811 0.54265 0.40935 0.0
C763 C 0.03153 0.56573 0.41517 0.0
C764 C 0.0307 0.57428 0.43782 0.0
C765 C 1.02179 0.53693 0.44906 0.0
C766 C 1.02237 0.52838 0.42636 0.0
C767 C 0.03001 0.56912 0.47934 0.0
H768 H 0.13234 0.52803 0.66335 0.0
H769 H 0.14662 0.54763 0.63188 0.0
H770 H 0.09228 0.50815 0.58471 0.0
H771 H 0.07806 0.48773 0.61618 0.0
H772 H 0.03621 0.5772 0.40255 0.0
H773 H 0.03443 0.59209 0.44208 0.0
H774 H 1.01846 0.52543 0.46197 0.0
H775 H 1.01918 0.51055 0.42231 0.0
Tb776 Tb 0.79876 0.80324 0.27246 0.0
Eu777 Eu 0.85334 0.80029 0.28731 0.0
C778 C 0.83757 0.83785 0.25619 0.0
C779 C 0.83008 0.7817 0.23591 0.0
C780 C 0.73673 0.79849 0.2792 0.0
C781 C 0.69554 0.78932 0.28484 0.0
C782 C 0.71301 0.79674 0.27093 0.0
C783 C 0.74289 0.79351 0.30166 0.0
C784 C 0.72556 0.78569 0.31536 0.0
C785 C 0.70165 0.78317 0.30702 0.0
C786 C 0.75526 0.80314 0.26402 0.0
O787 O 0.7991 0.77947 0.29792 0.0
O788 O 0.83302 0.76673 0.29052 0.0
O789 O 0.838 0.80999 0.32069 0.0
O790 O 0.808 0.82598 0.30448 0.0
C791 C 0.81241 0.76392 0.29844 0.0
O792 O 0.88303 0.78199 0.28952 0.0
O793 O 0.88697 0.81568 0.30558 0.0
O794 O 0.85288 0.83302 0.27222 0.0
O795 O 0.81658 0.82626 0.25149 0.0
O796 O 0.80933 0.7816 0.24407 0.0
O797 O 0.84951 0.79106 0.24856 0.0
C798 C 0.8218 0.82295 0.32283 0.0
O799 O 0.77029 0.82116 0.27009 0.0
O800 O 0.76578 0.78617 0.25887 0.0
C801 C 0.91976 0.80489 0.2887 0.0
C802 C 0.96149 0.81712 0.26818 0.0
C803 C 0.94579 0.79805 0.25929 0.0
C804 C 0.92507 0.79201 0.26941 0.0
C805 C 0.93561 0.82383 0.2977 0.0
C806 C 0.95622 0.82997 0.28746 0.0
C807 C 0.89767 0.79912 0.29926 0.0
H808 H 0.67728 0.78807 0.27806 0.0
H809 H 0.70804 0.80055 0.25359 0.0
H810 H 0.76119 0.79486 0.30832 0.0
H811 H 0.73104 0.78084 0.33212 0.0
H812 H 0.94946 0.78793 0.24438 0.0
H813 H 0.91321 0.77731 0.26202 0.0
H814 H 0.932 0.83396 0.31264 0.0
H815 H 0.96824 0.84457 0.29484 0.0
Tb816 Tb 0.84828 0.30864 0.79445 0.0
Eu817 Eu 0.81306 0.26632 0.76567 0.0
C818 C 0.79998 0.315 0.76994 0.0
C819 C 0.81261 0.27798 0.82021 0.0
C820 C 0.89048 0.36071 0.81537 0.0
C821 C 0.90162 0.39965 0.82899 0.0
C822 C 0.88703 0.37943 0.82937 0.0
C823 C 0.90844 0.36263 0.80055 0.0
C824 C 0.92318 0.38282 0.80034 0.0
C825 C 0.92007 0.40141 0.81478 0.0
C826 C 0.8764 0.33915 0.81792 0.0
O827 O 0.85888 0.27757 0.80325 0.0
O828 O 0.85007 0.25868 0.76806 0.0
O829 O 0.82861 0.28614 0.73878 0.0
O830 O 0.85951 0.30951 0.75956 0.0
C831 C 0.86241 0.26182 0.78812 0.0
O832 O 0.80356 0.23069 0.75703 0.0
O833 O 0.78405 0.25331 0.73943 0.0
O834 O 0.79198 0.29408 0.77206 0.0
O835 O 0.8224 0.32303 0.7742 0.0
O836 O 0.82176 0.29842 0.81735 0.0
O837 O 0.80999 0.26204 0.8033 0.0
C838 C 0.8475 0.30109 0.73983 0.0
O839 O 0.85357 0.3383 0.81621 0.0
O840 O 0.88279 0.32152 0.8077 0.0
C841 C 0.76503 0.21645 0.74036 0.0
C842 C 0.72712 0.18146 0.73736 0.0
C843 C 0.73451 0.19448 0.75838 0.0
C844 C 0.75341 0.21186 0.75988 0.0
C845 C 0.75707 0.20423 0.71924 0.0
C846 C 0.73833 0.18688 0.71772 0.0
C847 C 0.78647 0.23269 0.74161 0.0
H848 H 0.89898 0.4137 0.84043 0.0
H849 H 0.8734 0.37827 0.84104 0.0
H850 H 0.91148 0.34847 0.7895 0.0
H851 H 0.93713 0.38386 0.78903 0.0
H852 H 0.72607 0.19091 0.77376 0.0
H853 H 0.75935 0.22125 0.77633 0.0
H854 H 0.76596 0.20758 0.70403 0.0
H855 H 0.73344 0.17704 0.70136 0.0
Tb856 Tb 0.83502 0.8288 0.79504 0.0
Eu857 Eu 0.81386 0.78226 0.76648 0.0
C858 C 0.83341 0.784 0.82088 0.0
C859 C 0.86859 0.80557 0.76358 0.0
C860 C 0.83925 0.88045 0.83278 0.0
C861 C 0.83209 0.91793 0.84258 0.0
C862 C 0.84715 0.90331 0.83551 0.0
C863 C 0.81755 0.8722 0.84029 0.0
C864 C 0.80224 0.88675 0.84678 0.0
C865 C 0.80867 0.90979 0.84615 0.0
C866 C 0.84989 0.8664 0.81652 0.0
O867 O 0.83049 0.8362 0.75831 0.0
O868 O 0.80308 0.80719 0.74208 0.0
O869 O 0.78334 0.78977 0.78667 0.0
O870 O 0.79753 0.82515 0.80264 0.0
C871 C 0.81548 0.82683 0.74066 0.0
O872 O 0.81781 0.75636 0.73991 0.0
O873 O 0.78757 0.75233 0.75915 0.0
O874 O 0.83078 0.77254 0.80048 0.0
O875 O 0.83311 0.80561 0.82228 0.0
O876 O 0.86716 0.81768 0.78298 0.0
O877 O 0.84973 0.79263 0.75333 0.0
C878 C 0.7807 0.80768 0.79965 0.0
O879 O 0.85552 0.84789 0.82329 0.0
O880 O 0.83847 0.86334 0.7961 0.0
C881 C 0.80745 0.72151 0.75248 0.0
C882 C 0.8351 0.69032 0.76792 0.0
C883 C 0.83109 0.69259 0.74426 0.0
C884 C 0.81735 0.70812 0.7366 0.0
C885 C 0.80944 0.71758 0.77584 0.0
C886 C 0.82312 0.70207 0.78348 0.0
C887 C 0.80053 0.74249 0.7457 0.0
H888 H 0.83798 0.9356 0.84286 0.0
H889 H 0.86399 0.90996 0.82998 0.0
H890 H 0.8114 0.85453 0.83864 0.0
H891 H 0.78452 0.87971 0.84962 0.0
H892 H 0.84017 0.6838 0.73188 0.0
H893 H 0.81621 0.71103 0.71855 0.0
H894 H 0.80203 0.7277 0.7885 0.0
H895 H 0.8256 0.70033 0.80176 0.0
Tb896 Tb 0.54194 0.53328 0.50738 0.0
Eu897 Eu 0.58835 0.54988 0.54497 0.0
C898 C 0.59274 0.54113 0.49228 0.0
C899 C 0.56847 0.49886 0.529 0.0
C900 C 0.48513 0.53758 0.48162 0.0
C901 C 0.45417 0.55475 0.46279 0.0
C902 C 0.47026 0.53964 0.46192 0.0
C903 C 0.48349 0.55043 0.5022 0.0
C904 C 0.46784 0.56568 0.50296 0.0
C905 C 0.45331 0.56823 0.48321 0.0
C906 C 0.50496 0.52516 0.48035 0.0
O907 O 0.53052 0.5312 0.5418 0.0
O908 O 0.5574 0.55855 0.56225 0.0
O909 O 0.57952 0.5808 0.52963 0.0
O910 O 0.54042 0.56749 0.51886 0.0
C911 C 0.5365 0.54647 0.5592 0.0
O912 O 0.6055 0.5501 0.57963 0.0
O913 O 0.62503 0.56513 0.55336 0.0
O914 O 0.60098 0.53637 0.51246 0.0
O915 O 0.57119 0.54537 0.48861 0.0
O916 O 0.5587 0.50395 0.50952 0.0
O917 O 0.57547 0.51368 0.54656 0.0
C918 C 0.55786 0.58397 0.52349 0.0
O919 O 0.52416 0.53706 0.47546 0.0
O920 O 0.50899 0.51364 0.4977 0.0
C921 C 0.6439 0.5427 0.57711 0.0
C922 C 0.67795 0.51417 0.58097 0.0
C923 C 0.68315 0.53643 0.59048 0.0
C924 C 0.66619 0.55061 0.58857 0.0
C925 C 0.63863 0.52048 0.5678 0.0
C926 C 0.65544 0.50633 0.56978 0.0
C927 C 0.62625 0.55746 0.57356 0.0
H928 H 0.44298 0.55642 0.4474 0.0
H929 H 0.4716 0.53012 0.44581 0.0
H930 H 0.49492 0.54925 0.51758 0.0
H931 H 0.46716 0.57558 0.51902 0.0
H932 H 0.70034 0.54289 0.59931 0.0
H933 H 0.67056 0.56775 0.59573 0.0
H934 H 0.6216 0.51415 0.55861 0.0
H935 H 0.651 0.48942 0.56192 0.0
Tb936 Tb 0.06741 0.53526 1.00782 0.0
Eu937 Eu 0.09411 0.57159 0.04885 0.0
C938 C 0.07056 0.52228 0.05925 0.0
C939 C 0.04018 0.57433 0.0294 0.0
C940 C 0.04489 0.48528 0.96689 0.0
C941 C 0.03715 0.44655 0.97454 0.0
C942 C 0.03903 0.46908 0.98202 0.0
C943 C 0.04897 0.47865 0.94433 0.0
C944 C 0.04729 0.45618 0.93691 0.0
C945 C 0.04128 0.43985 0.95189 0.0
C946 C 0.04716 0.50913 0.9742 0.0
O947 O 0.0925 0.55912 0.99353 0.0
O948 O 0.08977 0.58955 0.01719 0.0
O949 O 0.12159 0.5506 0.03696 0.0
O950 O 0.09811 0.51946 0.01905 0.0
C951 C 0.09382 0.58065 0.99724 0.0
O952 O 0.12621 0.59449 0.06012 0.0
O953 O 0.0984 0.58993 0.08285 0.0
O954 O 0.08349 0.54132 0.06679 0.0
O955 O 0.06168 0.5172 0.03777 0.0
O956 O 0.04295 0.56016 0.01185 0.0
O957 O 0.05645 0.57902 0.04705 0.0
C958 C 0.11893 0.52963 0.02843 0.0
O959 O 0.03689 0.51483 0.99228 0.0
O960 O 0.06811 0.52043 0.97435 0.0
C961 C 0.12321 0.62513 0.08641 0.0
C962 C 0.13437 0.67043 0.10238 0.0
C963 C 0.15009 0.65995 0.08995 0.0
C964 C 0.14461 0.6375 0.08216 0.0
C965 C 0.10723 0.63569 0.09845 0.0
C966 C 0.11278 0.65817 0.10636 0.0
C967 C 0.11876 0.60105 0.07955 0.0
H968 H 0.03226 0.43441 0.98645 0.0
H969 H 0.03591 0.47378 0.99959 0.0
H970 H 0.05366 0.49091 0.93246 0.0
H971 H 0.05106 0.45165 0.91952 0.0
H972 H 0.16698 0.66891 0.08691 0.0
H973 H 0.15739 0.6297 0.0732 0.0
H974 H 0.09064 0.62658 0.1021 0.0
H975 H 0.10025 0.66592 0.11574 0.0
H976 H 1.00575 0.15882 0.93883 0.0
H977 H 0.04785 0.21226 0.98343 0.0
H978 H 1.00904 0.13396 0.96911 0.0
H979 H 0.05153 0.18713 0.01365 0.0
H980 H 0.0837 0.11981 0.02971 0.0
H981 H 0.07399 0.15247 0.01162 0.0
H982 H 0.9999 0.12789 0.01096 0.0
H983 H 1.00937 0.09549 0.02917 0.0
C984 C 1.01521 0.16535 0.95531 0.0
C985 C 1.02664 0.18736 0.9588 0.0
C986 C 1.01702 0.15119 0.97266 0.0
C987 C 0.03062 0.15871 0.99361 0.0
C988 C 0.04099 0.18103 0.99759 0.0
C989 C 0.03877 0.19536 0.98037 0.0
C990 C 0.06537 0.12174 0.0264 0.0
C991 C 0.04735 0.10488 0.03039 0.0
C992 C 0.05981 0.14045 0.01614 0.0
C993 C 0.03621 0.14243 0.00971 0.0
C994 C 1.01822 0.12657 0.01559 0.0
C995 C 1.02372 0.10801 0.02595 0.0
H996 H 0.24313 0.89675 0.18388 0.0
H997 H 0.20769 0.9166 0.24242 0.0
H998 H 0.27561 0.8889 0.20976 0.0
H999 H 0.24035 0.90899 0.26832 0.0
H1000 H 0.3302 0.87161 0.25941 0.0
H1001 H 0.3079 0.89816 0.24205 0.0
H1002 H 0.24632 0.87004 0.27287 0.0
H1003 H 0.26848 0.84362 0.29017 0.0
C1004 C 0.24275 0.90039 0.20224 0.0
C1005 C 0.22262 0.90668 0.21118 0.0
C1006 C 0.26142 0.89594 0.21711 0.0
C1007 C 0.2602 0.89784 0.24107 0.0
C1008 C 0.2415 0.90698 0.24992 0.0
C1009 C 0.22285 0.91139 0.23509 0.0
C1010 C 0.3121 0.87156 0.26307 0.0
C1011 C 0.30093 0.85529 0.27584 0.0
C1012 C 0.29935 0.88673 0.25306 0.0
C1013 C 0.27537 0.88607 0.25595 0.0
C1014 C 0.26486 0.87113 0.27049 0.0
C1015 C 0.27749 0.85584 0.28026 0.0
H1016 H 0.53453 0.81505 0.36902 0.0
H1017 H 0.50821 0.7948 0.43224 0.0
H1018 H 0.53716 0.85381 0.38368 0.0
H1019 H 0.5115 0.8335 0.44712 0.0
H1020 H 0.50098 0.90599 0.4587 0.0
H1021 H 0.49549 0.86727 0.4428 0.0
H1022 H 0.56127 0.87956 0.41235 0.0
H1023 H 0.56641 0.91833 0.42787 0.0
C1024 C 0.52923 0.81885 0.386 0.0
C1025 C 0.52122 0.80181 0.39946 0.0
C1026 C 0.53092 0.84107 0.39448 0.0
C1027 C 0.52476 0.84676 0.41666 0.0
C1028 C 0.51617 0.82972 0.42988 0.0
C1029 C 0.51436 0.8075 0.42136 0.0
C1030 C 0.5143 0.90032 0.44871 0.0
C1031 C 0.53409 0.91512 0.44445 0.0
C1032 C 0.51118 0.87817 0.43962 0.0
C1033 C 0.52788 0.87034 0.42621 0.0
C1034 C 0.54781 0.88515 0.42219 0.0
C1035 C 0.55083 0.90732 0.43114 0.0
H1036 H 0.61011 0.37789 0.76212 0.0
H1037 H 0.57189 0.36586 0.69442 0.0
H1038 H 0.57329 0.37036 0.77951 0.0
H1039 H 0.53517 0.35759 0.71178 0.0
H1040 H 0.47043 0.35479 0.74983 0.0
H1041 H 0.50655 0.37075 0.73481 0.0
H1042 H 0.5469 0.33681 0.78246 0.0
H1043 H 0.51097 0.32188 0.7983 0.0
C1044 C 0.59382 0.37382 0.75096 0.0
C1045 C 0.5939 0.37218 0.72691 0.0
C1046 C 0.57275 0.36939 0.76091 0.0
C1047 C 0.55138 0.36301 0.74702 0.0
C1048 C 0.55132 0.36261 0.72298 0.0
C1049 C 0.57238 0.36726 0.71301 0.0
C1050 C 0.48707 0.35109 0.75739 0.0
C1051 C 0.48787 0.33704 0.77524 0.0
C1052 C 0.50772 0.36005 0.74862 0.0
C1053 C 0.52958 0.35506 0.75743 0.0
C1054 C 0.53038 0.34127 0.77551 0.0
C1055 C 0.50976 0.33242 0.78436 0.0
H1056 H 0.07768 0.87649 0.57826 0.0
H1057 H 0.07174 0.90959 0.64462 0.0
H1058 H 0.08042 0.91206 0.56145 0.0
H1059 H 0.07381 0.94507 0.62793 0.0
H1060 H 0.09397 1.01163 0.59713 0.0
H1061 H 0.09236 0.97607 0.61374 0.0
H1062 H 0.06601 0.94192 0.54726 0.0
H1063 H 0.0683 0.97748 0.53071 0.0
C1064 C 0.07679 0.89129 0.58939 0.0
C1065 C 0.07443 0.88954 0.61307 0.0
C1066 C 0.07825 0.91207 0.5796 0.0
C1067 C 0.07741 0.93241 0.5929 0.0
C1068 C 0.07499 0.93049 0.61663 0.0
C1069 C 0.07358 0.90974 0.62638 0.0
C1070 C 0.08792 0.99659 0.5859 0.0
C1071 C 0.08141 0.99809 0.56226 0.0
C1072 C 0.08676 0.97579 0.5956 0.0
C1073 C 0.07895 0.95515 0.58228 0.0
C1074 C 0.07251 0.95678 0.55857 0.0
C1075 C 0.07371 0.97757 0.54889 0.0
H1076 H 0.49968 0.77018 0.87752 0.0
H1077 H 0.51728 0.83495 0.85387 0.0
H1078 H 0.45918 0.76802 0.85906 0.0
H1079 H 0.47757 0.83326 0.83653 0.0
H1080 H 0.41283 0.82015 0.78692 0.0
H1081 H 0.45178 0.81864 0.80544 0.0
H1082 H 0.42096 0.77948 0.85645 0.0
H1083 H 0.38167 0.78034 0.83711 0.0
C1084 C 0.49499 0.78404 0.86866 0.0
C1085 C 0.51222 0.80261 0.86709 0.0
C1086 C 0.47162 0.78285 0.858 0.0
C1087 C 0.46469 0.80025 0.84556 0.0
C1088 C 0.48186 0.81903 0.84496 0.0
C1089 C 0.50495 0.8201 0.85527 0.0
C1090 C 0.4142 0.81108 0.80201 0.0
C1091 C 0.39371 0.8005 0.81038 0.0
C1092 C 0.4368 0.81037 0.81294 0.0
C1093 C 0.44009 0.79931 0.83304 0.0
C1094 C 0.41959 0.78816 0.8411 0.0
C1095 C 0.39686 0.78872 0.82997 0.0
H1096 H 0.56837 0.24518 0.08306 0.0
H1097 H 0.57164 0.21843 0.14892 0.0
H1098 H 0.56973 0.20803 0.06413 0.0
H1099 H 0.57217 0.1818 0.13042 0.0
H1100 H 0.59109 0.11812 0.09617 0.0
H1101 H 0.59081 0.15568 0.11346 0.0
H1102 H 0.55425 0.17148 0.05089 0.0
H1103 H 0.55536 0.13407 0.03344 0.0
C1104 C 0.56924 0.2315 0.0936 0.0
C1105 C 0.57001 0.23544 0.1178 0.0
C1106 C 0.56993 0.20986 0.08267 0.0
C1107 C 0.57134 0.19108 0.09539 0.0
C1108 C 0.57176 0.19524 0.11952 0.0
C1109 C 0.57121 0.21667 0.13033 0.0
C1110 C 0.58296 0.12951 0.08599 0.0
C1111 C 0.57321 0.12243 0.06318 0.0
C1112 C 0.58259 0.15139 0.09608 0.0
C1113 C 0.57229 0.16746 0.08402 0.0
C1114 C 0.56266 0.16031 0.06111 0.0
C1115 C 0.56315 0.13845 0.05099 0.0
H1116 H 0.18093 0.31584 0.40935 0.0
H1117 H 0.13535 0.29542 0.34685 0.0
H1118 H 0.21535 0.31756 0.38734 0.0
H1119 H 0.16966 0.29704 0.32482 0.0
H1120 H 0.23809 0.28118 0.29418 0.0
H1121 H 0.20349 0.28007 0.31573 0.0
H1122 H 0.23791 0.33719 0.36012 0.0
H1123 H 0.27242 0.33831 0.33851 0.0
C1124 C 0.17812 0.31168 0.39091 0.0
C1125 C 0.15495 0.30546 0.38015 0.0
C1126 C 0.19805 0.3128 0.3781 0.0
C1127 C 0.19582 0.30747 0.35394 0.0
C1128 C 0.1726 0.30109 0.34327 0.0
C1129 C 0.15268 0.30026 0.35602 0.0
C1130 C 0.23835 0.2937 0.30839 0.0
C1131 C 0.25852 0.30994 0.3142 0.0
C1132 C 0.21824 0.29309 0.32088 0.0
C1133 C 0.21739 0.30848 0.34007 0.0
C1134 C 0.23755 0.32477 0.3458 0.0
C1135 C 0.25752 0.32556 0.33311 0.0
H1136 H 0.97808 0.06882 0.20134 0.0
H1137 H 0.91438 0.05295 0.1549 0.0
H1138 H 1.00127 0.07209 0.16885 0.0
H1139 H 0.93771 0.05672 0.1221 0.0
H1140 H 0.99039 0.02346 0.07915 0.0
H1141 H 0.96365 0.0315 0.10758 0.0
H1142 H 1.01223 0.08996 0.13533 0.0
H1143 H 0.03928 0.08161 0.10738 0.0
C1144 C 0.96899 0.06671 0.18414 0.0
C1145 C 0.94454 0.06018 0.18057 0.0
C1146 C 0.98227 0.06872 0.1655 0.0
C1147 C 0.97131 0.06428 0.14292 0.0
C1148 C 0.9466 0.05982 0.13936 0.0
C1149 C 0.93326 0.05785 0.1581 0.0
C1150 C 0.99533 0.03805 0.09128 0.0
C1151 C 1.01715 0.05161 0.09138 0.0
C1152 C 0.97986 0.04285 0.10734 0.0
C1153 C 0.98587 0.06137 0.12368 0.0
C1154 C 1.00727 0.07543 0.12311 0.0
C1155 C 1.0228 0.07056 0.10718 0.0
H1156 H 0.30981 0.77407 0.46988 0.0
H1157 H 0.33315 0.71394 0.44301 0.0
H1158 H 0.31122 0.78818 0.43193 0.0
H1159 H 0.33465 0.72803 0.40541 0.0
H1160 H 0.30476 0.74651 0.33637 0.0
H1161 H 0.30457 0.73495 0.37521 0.0
H1162 H 0.33891 0.80026 0.40287 0.0
H1163 H 0.33897 0.812 0.36394 0.0
C1164 C 0.31557 0.76402 0.45601 0.0
C1165 C 0.32123 0.74284 0.45944 0.0
C1166 C 0.31638 0.7721 0.43429 0.0
C1167 C 0.32271 0.75906 0.41561 0.0
C1168 C 0.32923 0.73828 0.41934 0.0
C1169 C 0.32855 0.73028 0.44097 0.0
C1170 C 0.31211 0.7585 0.35071 0.0
C1171 C 0.3219 0.78018 0.34701 0.0
C1172 C 0.31217 0.75181 0.37297 0.0
C1173 C 0.32192 0.76665 0.3921 0.0
C1174 C 0.33118 0.78849 0.38849 0.0
C1175 C 0.33127 0.79517 0.36617 0.0
H1176 H 0.6472 0.96076 0.65699 0.0
H1177 H 0.57752 0.94079 0.67727 0.0
H1178 H 0.62971 0.96987 0.62009 0.0
H1179 H 0.56023 0.95035 0.64065 0.0
H1180 H 0.58837 0.98028 0.55293 0.0
H1181 H 0.5996 0.95627 0.58209 0.0
H1182 H 0.56593 0.99306 0.63218 0.0
H1183 H 0.55512 1.01745 0.60325 0.0
C1184 C 0.62823 0.9575 0.65326 0.0
C1185 C 0.61372 0.9506 0.67022 0.0
C1186 C 0.61823 0.96272 0.63215 0.0
C1187 C 0.59367 0.96118 0.62788 0.0
C1188 C 0.57922 0.9519 0.64375 0.0
C1189 C 0.58917 0.94641 0.66465 0.0
C1190 C 0.5828 0.98289 0.57001 0.0
C1191 C 0.57092 1.00079 0.5759 0.0
C1192 C 0.58933 0.96919 0.58664 0.0
C1193 C 0.58356 0.97284 0.60924 0.0
C1194 C 0.57033 0.98978 0.61474 0.0
C1195 C 0.56423 1.00378 0.59826 0.0
H1196 H 0.32142 0.36718 0.97571 0.0
H1197 H 0.30233 0.42146 0.9391 0.0
H1198 H 0.32486 0.34633 0.93872 0.0
H1199 H 0.30625 0.40126 0.90283 0.0
H1200 H 0.2958 0.35535 0.83701 0.0
H1201 H 0.29073 0.37326 0.87455 0.0
H1202 H 0.34611 0.34166 0.90586 0.0
H1203 H 0.3507 0.32326 0.8682 0.0
C1204 C 0.31787 0.37473 0.95992 0.0
C1205 C 0.31146 0.39621 0.96088 0.0
C1206 C 0.32002 0.36277 0.9385 0.0
C1207 C 0.31574 0.37176 0.91717 0.0
C1208 C 0.30928 0.39319 0.91837 0.0
C1209 C 0.30718 0.40502 0.93956 0.0
C1210 C 0.30698 0.35217 0.85182 0.0
C1211 C 0.32384 0.33781 0.84911 0.0
C1212 C 0.30416 0.36265 0.87363 0.0
C1213 C 0.31813 0.35939 0.89384 0.0
C1214 C 0.33475 0.34471 0.89113 0.0
C1215 C 0.33753 0.33416 0.86928 0.0
H1216 H 0.98832 0.97443 0.26744 0.0
H1217 H 0.93881 1.00691 0.30402 0.0
H1218 H 1.00625 0.96486 0.30376 0.0
H1219 H 0.95711 0.99776 0.34035 0.0
H1220 H 0.05302 0.99257 0.37172 0.0
H1221 H 0.03072 0.98876 0.33444 0.0
H1222 H 0.96663 0.96905 0.36555 0.0
H1223 H 0.98921 0.97253 0.40332 0.0
C1224 C 0.98113 0.97937 0.2832 0.0
C1225 C 0.96241 0.99178 0.28289 0.0
C1226 C 0.99139 0.97386 0.30399 0.0
C1227 C 0.98323 0.98073 0.32491 0.0
C1228 C 0.96365 0.99202 0.3245 0.0
C1229 C 0.9533 0.99746 0.30368 0.0
C1230 C 0.03433 0.98656 0.37067 0.0
C1231 C 1.02293 0.98297 0.39063 0.0
C1232 C 1.02148 0.98444 0.34918 0.0
C1233 C 0.99688 0.97877 0.34707 0.0
C1234 C 0.98556 0.97376 0.36674 0.0
C1235 C 0.99848 0.97575 0.38833 0.0
H1236 H 0.32396 0.69919 0.61717 0.0
H1237 H 0.31067 0.76112 0.59211 0.0
H1238 H 0.33323 0.71723 0.65596 0.0
H1239 H 0.31846 0.77917 0.63135 0.0
H1240 H 0.34712 0.81022 0.70247 0.0
H1241 H 0.34482 0.7928 0.6633 0.0
H1242 H 0.31498 0.73032 0.68644 0.0
H1243 H 0.31859 0.74755 0.72566 0.0
C1244 C 0.32292 0.71673 0.62004 0.0
C1245 C 0.31642 0.72873 0.60165 0.0
C1246 C 0.32805 0.72709 0.64238 0.0
C1247 C 0.32625 0.74967 0.64712 0.0
C1248 C 0.32034 0.76183 0.6285 0.0
C1249 C 0.31573 0.75151 0.60597 0.0
C1250 C 0.34041 0.79267 0.69918 0.0
C1251 C 0.3331 0.78024 0.71719 0.0
C1252 C 0.33885 0.78269 0.67664 0.0
C1253 C 0.32954 0.7601 0.67142 0.0
C1254 C 0.32268 0.74763 0.68964 0.0
C1255 C 0.32465 0.75752 0.71224 0.0
H1256 H 0.53636 0.99098 0.76346 0.0
H1257 H 0.60072 0.98617 0.80523 0.0
H1258 H 0.51734 0.9986 0.79823 0.0
H1259 H 0.58193 0.99432 0.83976 0.0
H1260 H 0.54063 0.99526 0.89942 0.0
H1261 H 0.55194 0.97997 0.86324 0.0
H1262 H 0.52071 0.02957 0.82777 0.0
H1263 H 0.50816 0.04416 0.86388 0.0
C1264 C 0.54641 0.99142 0.78004 0.0
C1265 C 0.57008 0.98806 0.7816 0.0
C1266 C 0.53553 0.99587 0.79991 0.0
C1267 C 0.54813 0.99706 0.82169 0.0
C1268 C 0.57161 0.99313 0.82324 0.0
C1269 C 0.58244 0.9886 0.80342 0.0
C1270 C 0.53545 1.00247 0.88382 0.0
C1271 C 0.5236 0.02103 0.88454 0.0
C1272 C 0.54225 0.99389 0.86313 0.0
C1273 C 0.53756 1.00379 0.84276 0.0
C1274 C 0.52451 0.02152 0.84319 0.0
C1275 C 0.51754 0.03003 0.8639 0.0
H1276 H 0.28669 0.36163 0.09762 0.0
H1277 H 0.33665 0.41673 0.13001 0.0
H1278 H 0.2866 0.34444 0.13379 0.0
H1279 H 0.33777 0.39923 0.1659 0.0
H1280 H 0.32737 0.37167 0.2351 0.0
H1281 H 0.32562 0.38916 0.19921 0.0
H1282 H 0.29941 0.32525 0.16208 0.0
H1283 H 0.30004 0.30822 0.19829 0.0
C1284 C 0.29793 0.37007 0.11241 0.0
C1285 C 0.31164 0.39079 0.11044 0.0
C1286 C 0.29805 0.36002 0.1335 0.0
C1287 C 0.31219 0.37 0.15374 0.0
C1288 C 0.3261 0.39071 0.1515 0.0
C1289 C 0.32568 0.40087 0.13051 0.0
C1290 C 0.32103 0.3613 0.21932 0.0
C1291 C 0.31372 0.33833 0.22012 0.0
C1292 C 0.32023 0.37141 0.19829 0.0
C1293 C 0.31248 0.35904 0.17675 0.0
C1294 C 0.30516 0.33597 0.17771 0.0
C1295 C 0.30561 0.32595 0.19881 0.0
H1296 H 0.29781 0.96044 0.06274 0.0
H1297 H 0.2526 0.89914 0.07014 0.0
H1298 H 0.26704 0.98135 0.07271 0.0
H1299 H 0.22155 0.92041 0.08089 0.0
H1300 H 0.16541 0.96798 0.06854 0.0
H1301 H 0.19473 0.9434 0.06397 0.0
H1302 H 0.24691 0.99204 0.10477 0.0
H1303 H 0.218 1.01712 0.10817 0.0
C1304 C 0.2813 0.9514 0.06672 0.0
C1305 C 0.27764 0.92812 0.0657 0.0
C1306 C 0.26369 0.96345 0.07268 0.0
C1307 C 0.24195 0.9526 0.07799 0.0
C1308 C 0.23813 0.92924 0.07686 0.0
C1309 C 0.25586 0.91708 0.07074 0.0
C1310 C 0.18315 0.97341 0.07655 0.0
C1311 C 0.18951 0.99473 0.08828 0.0
C1312 C 0.19987 0.95918 0.07419 0.0
C1313 C 0.22326 0.96592 0.08363 0.0
C1314 C 0.22915 0.98657 0.09681 0.0
C1315 C 0.2125 1.00085 0.09901 0.0
H1316 H 0.74989 0.66615 1.0068 0.0
H1317 H 0.78203 0.61256 0.033 0.0
H1318 H 0.71084 0.64584 0.01071 0.0
H1319 H 0.74281 0.59243 0.03753 0.0
H1320 H 0.66662 0.57701 0.06479 0.0
H1321 H 0.70665 0.59603 0.06131 0.0
H1322 H 0.68465 0.61039 0.9926 0.0
H1323 H 0.64514 0.59108 0.99578 0.0
C1324 C 0.74869 0.65002 0.01342 0.0
C1325 C 0.76934 0.64106 0.01941 0.0
C1326 C 0.72618 0.6383 0.01564 0.0
C1327 C 0.72342 0.61738 0.02449 0.0
C1328 C 0.74409 0.6085 0.03079 0.0
C1329 C 0.76664 0.62001 0.02803 0.0
C1330 C 0.67034 0.5841 0.04888 0.0
C1331 C 0.65239 0.58229 0.03056 0.0
C1332 C 0.69339 0.59498 0.04685 0.0
C1333 C 0.69909 0.60492 0.02666 0.0
C1334 C 0.68108 0.60316 0.00847 0.0
C1335 C 0.65831 0.5919 0.01029 0.0
H1336 H 0.78225 0.49659 0.36983 0.0
H1337 H 0.83165 0.55557 0.36397 0.0
H1338 H 0.81389 0.47472 0.37043 0.0
H1339 H 0.86386 0.53371 0.3655 0.0
H1340 H 0.88916 0.48137 0.31332 0.0
H1341 H 0.87309 0.50973 0.3354 0.0
H1342 H 0.84893 0.46195 0.38207 0.0
H1343 H 0.86324 0.43317 0.35882 0.0
C1344 C 0.80005 0.50504 0.36953 0.0
C1345 C 0.80436 0.52763 0.36605 0.0
C1346 C 0.8184 0.49249 0.37012 0.0
C1347 C 0.84151 0.50231 0.36741 0.0
C1348 C 0.8462 0.5255 0.36697 0.0
C1349 C 0.82775 0.53805 0.36618 0.0
C1350 C 0.88089 0.477 0.32859 0.0
C1351 C 0.87651 0.45477 0.33357 0.0
C1352 C 0.8719 0.49341 0.34155 0.0
C1353 C 0.85876 0.48792 0.36002 0.0
C1354 C 0.85815 0.46654 0.3674 0.0
C1355 C 0.8667 0.45003 0.35416 0.0
H1356 H 0.90427 0.4744 0.5157 0.0
H1357 H 0.92243 0.43786 0.57317 0.0
H1358 H 0.94229 0.49784 0.52261 0.0
H1359 H 0.96076 0.46185 0.5804 0.0
H1360 H 0.0357 0.49891 0.56638 0.0
H1361 H 0.99886 0.4731 0.564 0.0
H1362 H 0.95976 0.52707 0.5525 0.0
H1363 H 0.99639 0.55268 0.55433 0.0
C1364 C 0.91648 0.4713 0.52977 0.0
C1365 C 0.91026 0.45445 0.54405 0.0
C1366 C 0.93821 0.48488 0.53386 0.0
C1367 C 0.95426 0.48209 0.55245 0.0
C1368 C 0.94866 0.46446 0.56603 0.0
C1369 C 0.9268 0.4507 0.56185 0.0
C1370 C 1.01921 0.50533 0.56382 0.0
C1371 C 1.01893 0.52777 0.56014 0.0
C1372 C 0.99812 0.49053 0.56245 0.0
C1373 C 0.97647 0.49796 0.55747 0.0
C1374 C 0.97622 0.52073 0.55568 0.0
C1375 C 0.9972 0.53545 0.55692 0.0
H1376 H 0.44613 0.10531 0.29301 0.0
H1377 H 0.48754 0.16957 0.28972 0.0
H1378 H 0.41049 0.12019 0.28151 0.0
H1379 H 0.45163 0.18468 0.27876 0.0
H1380 H 0.35001 0.16106 0.28617 0.0
H1381 H 0.38546 0.14512 0.29625 0.0
H1382 H 0.42147 0.18245 0.24667 0.0
H1383 H 0.38635 0.19913 0.23734 0.0
C1384 C 0.44761 0.1227 0.29004 0.0
C1385 C 0.46966 0.13629 0.29232 0.0
C1386 C 0.42713 0.13124 0.28351 0.0
C1387 C 0.4282 0.1536 0.27919 0.0
C1388 C 0.45026 0.16728 0.28163 0.0
C1389 C 0.4708 0.15869 0.2881 0.0
C1390 C 0.36547 0.16579 0.27737 0.0
C1391 C 0.36537 0.18137 0.26098 0.0
C1392 C 0.38575 0.15655 0.28303 0.0
C1393 C 0.40635 0.16265 0.27237 0.0
C1394 C 0.406 0.17768 0.25544 0.0
C1395 C 0.38574 0.18695 0.24982 0.0
H1396 H 0.43265 0.16558 0.51625 0.0
H1397 H 0.39739 0.10854 0.54482 0.0
H1398 H 0.46848 0.14792 0.51572 0.0
H1399 H 0.43264 0.091 0.54407 0.0
H1400 H 0.49235 0.05494 0.52013 0.0
H1401 H 0.4574 0.0734 0.51883 0.0
H1402 H 0.50095 0.13612 0.54096 0.0
H1403 H 0.53597 0.11757 0.54246 0.0
C1404 C 0.43236 0.14926 0.52226 0.0
C1405 C 0.41175 0.13868 0.53055 0.0
C1406 C 0.45308 0.1391 0.52211 0.0
C1407 C 0.45384 0.11776 0.52979 0.0
C1408 C 0.43307 0.10719 0.53772 0.0
C1409 C 0.41266 0.11744 0.53826 0.0
C1410 C 0.49462 0.07267 0.52476 0.0
C1411 C 0.51735 0.08451 0.53156 0.0
C1412 C 0.47438 0.08336 0.52409 0.0
C1413 C 0.47591 0.10649 0.52983 0.0
C1414 C 0.49872 0.11841 0.53622 0.0
C1415 C 0.51895 0.10764 0.53724 0.0
H1416 H 0.78551 0.63169 0.34629 0.0
H1417 H 0.72128 0.6441 0.30916 0.0
H1418 H 0.80324 0.67 0.34367 0.0
H1419 H 0.73913 0.68222 0.3064 0.0
H1420 H 0.77139 0.75372 0.3179 0.0
H1421 H 0.75468 0.71786 0.32932 0.0
H1422 H 0.81623 0.69052 0.31077 0.0
H1423 H 0.8332 0.72649 0.29956 0.0
C1424 C 0.77507 0.64263 0.33782 0.0
C1425 C 0.75205 0.63481 0.32774 0.0
C1426 C 0.78529 0.66452 0.33624 0.0
C1427 C 0.7726 0.67901 0.32474 0.0
C1428 C 0.74925 0.67147 0.31556 0.0
C1429 C 0.73909 0.64958 0.31701 0.0
C1430 C 0.78152 0.74015 0.31648 0.0
C1431 C 0.80352 0.74285 0.30756 0.0
C1432 C 0.77189 0.71962 0.32299 0.0
C1433 C 0.78407 0.7014 0.32075 0.0
C1434 C 0.80655 0.70435 0.31286 0.0
C1435 C 0.81619 0.7249 0.30631 0.0
H1436 H 0.03375 0.50648 0.79784 0.0
H1437 H 0.98859 0.53785 0.84109 0.0
H1438 H 1.00914 0.4708 0.79894 0.0
H1439 H 0.96444 0.50206 0.84285 0.0
H1440 H 0.9093 0.44327 0.81358 0.0
H1441 H 0.93652 0.47795 0.81614 0.0
H1442 H 0.99536 0.44146 0.82157 0.0
H1443 H 0.968 0.40673 0.81842 0.0
C1444 C 1.01893 0.50566 0.80809 0.0
C1445 C 1.01295 0.52499 0.8192 0.0
C1446 C 1.00482 0.48519 0.80873 0.0
C1447 C 0.9846 0.48365 0.82068 0.0
C1448 C 0.97954 0.50279 0.83298 0.0
C1449 C 0.99349 0.52326 0.83215 0.0
C1450 C 0.92806 0.44273 0.81537 0.0
C1451 C 0.93658 0.42238 0.81575 0.0
C1452 C 0.94366 0.46257 0.817 0.0
C1453 C 0.96814 0.46249 0.81927 0.0
C1454 C 0.97663 0.44208 0.81959 0.0
C1455 C 0.96099 0.42221 0.81776 0.0
H1456 H 0.09781 0.92269 0.14057 0.0
H1457 H 0.14143 0.89706 0.09155 0.0
H1458 H 0.0774 0.9396 0.11021 0.0
H1459 H 0.12081 0.91411 0.06096 0.0
H1460 H 0.10682 0.98526 0.03716 0.0
H1461 H 0.12117 0.9546 0.05532 0.0
H1462 H 0.05111 0.93218 0.07327 0.0
H1463 H 0.03692 0.96317 0.05514 0.0
C1464 C 0.10288 0.92049 0.12324 0.0
C1465 C 0.12138 0.9088 0.11846 0.0
C1466 C 0.09094 0.92989 0.10577 0.0
C1467 C 0.09736 0.92793 0.08317 0.0
C1468 C 0.11547 0.91575 0.07822 0.0
C1469 C 0.1273 0.90611 0.09572 0.0
C1470 C 0.09433 0.97305 0.04393 0.0
C1471 C 0.07085 0.97624 0.04477 0.0
C1472 C 0.10251 0.95553 0.05435 0.0
C1473 C 0.08729 0.94126 0.06598 0.0
C1474 C 0.0632 0.94313 0.06457 0.0
C1475 C 0.05502 0.96064 0.05406 0.0
H1476 H 0.99461 0.2235 0.80309 0.0
H1477 H 0.9658 0.20055 0.86423 0.0
H1478 H 0.95532 0.22567 0.78602 0.0
H1479 H 0.92625 0.202 0.84669 0.0
H1480 H 0.88024 0.25685 0.8313 0.0
H1481 H 0.91162 0.23663 0.84279 0.0
H1482 H 0.91432 0.21242 0.7718 0.0
H1483 H 0.88268 0.2333 0.76012 0.0
C1484 C 0.97984 0.21816 0.81259 0.0
C1485 C 0.98338 0.21264 0.83537 0.0
C1486 C 0.95721 0.2192 0.80266 0.0
C1487 C 0.93772 0.21459 0.81527 0.0
C1488 C 0.94103 0.20623 0.83682 0.0
C1489 C 0.9637 0.20537 0.84685 0.0
C1490 C 0.88726 0.24701 0.8181 0.0
C1491 C 0.87936 0.24702 0.79475 0.0
C1492 C 0.90506 0.23508 0.82475 0.0
C1493 C 0.9155 0.22286 0.80821 0.0
C1494 C 0.90668 0.2218 0.78491 0.0
C1495 C 0.88862 0.23372 0.77823 0.0
H1496 H 0.66751 0.28967 0.69354 0.0
H1497 H 0.62604 0.30404 0.63297 0.0
H1498 H 0.66056 0.25036 0.67974 0.0
H1499 H 0.61953 0.26492 0.61909 0.0
H1500 H 0.59102 0.19077 0.61487 0.0
H1501 H 0.59817 0.23003 0.62877 0.0
H1502 H 0.67097 0.22516 0.6489 0.0
H1503 H 0.66379 0.18586 0.63504 0.0
C1504 C 0.65702 0.28449 0.67726 0.0
C1505 C 0.64731 0.30001 0.6644 0.0
C1506 C 0.65314 0.26198 0.66931 0.0
C1507 C 0.63946 0.25455 0.64835 0.0
C1508 C 0.62986 0.27008 0.63546 0.0
C1509 C 0.63373 0.29254 0.64338 0.0
C1510 C 0.60859 0.19814 0.62207 0.0
C1511 C 0.62684 0.18525 0.62388 0.0
C1512 C 0.61269 0.22061 0.63004 0.0
C1513 C 0.63513 0.23067 0.63994 0.0
C1514 C 0.6534 0.21779 0.64168 0.0
C1515 C 0.6493 0.19531 0.63373 0.0
H1516 H 0.60006 0.76029 0.40545 0.0
H1517 H 0.58573 0.70044 0.35894 0.0
H1518 H 0.63444 0.77301 0.38637 0.0
H1519 H 0.62118 0.7125 0.34057 0.0
H1520 H 0.66095 0.75503 0.29199 0.0
H1521 H 0.631 0.73885 0.3148 0.0
H1522 H 0.67227 0.77045 0.37694 0.0
H1523 H 0.70111 0.78839 0.35395 0.0
C1524 C 0.60473 0.74955 0.39166 0.0
C1525 C 0.59009 0.72958 0.38347 0.0
C1526 C 0.62455 0.75672 0.38066 0.0
C1527 C 0.6304 0.74393 0.36159 0.0
C1528 C 0.61679 0.72307 0.35471 0.0
C1529 C 0.59669 0.7161 0.36543 0.0
C1530 C 0.66345 0.7589 0.31048 0.0
C1531 C 0.68338 0.77322 0.32105 0.0
C1532 C 0.6465 0.74918 0.32366 0.0
C1533 C 0.64926 0.75317 0.34779 0.0
C1534 C 0.66941 0.76717 0.35841 0.0
C1535 C 0.68613 0.77726 0.34518 0.0
H1536 H 0.07215 0.21331 0.42075 0.0
H1537 H 0.09237 0.24707 0.48834 0.0
H1538 H 0.06952 0.17749 0.437 0.0
H1539 H 0.08993 0.21121 0.50475 0.0
H1540 H 0.06581 0.1429 0.53227 0.0
H1541 H 0.06785 0.17882 0.51615 0.0
H1542 H 0.08775 0.14932 0.45286 0.0
H1543 H 0.08553 0.11346 0.469 0.0
C1544 C 0.07609 0.21325 0.43916 0.0
C1545 C 0.08249 0.2337 0.45295 0.0
C1546 C 0.07472 0.19238 0.44864 0.0
C1547 C 0.0795 0.19063 0.47256 0.0
C1548 C 0.08576 0.21116 0.48637 0.0
C1549 C 0.08731 0.23206 0.47684 0.0
C1550 C 0.07054 0.1439 0.51485 0.0
C1551 C 0.07534 0.12461 0.50219 0.0
C1552 C 0.07192 0.16487 0.5055 0.0
C1553 C 0.07801 0.16779 0.48283 0.0
C1554 C 0.08267 0.14839 0.47016 0.0
C1555 C 0.08149 0.12748 0.47959 0.0
H1556 H 0.65786 0.30396 0.16159 0.0
H1557 H 0.63241 0.33511 0.22115 0.0
H1558 H 0.69598 0.30411 0.18359 0.0
H1559 H 0.67087 0.33579 0.24304 0.0
H1560 H 0.7533 0.35284 0.26525 0.0
H1561 H 0.71474 0.35354 0.24406 0.0
H1562 H 0.71247 0.28539 0.21756 0.0
H1563 H 0.75053 0.28449 0.23908 0.0
C1564 C 0.6604 0.31104 0.17933 0.0
C1565 C 0.64181 0.31953 0.18944 0.0
C1566 C 0.68233 0.31101 0.19205 0.0
C1567 C 0.68676 0.31995 0.21525 0.0
C1568 C 0.66833 0.32888 0.22525 0.0
C1569 C 0.64617 0.32843 0.21266 0.0
C1570 C 0.74455 0.33795 0.25501 0.0
C1571 C 0.75526 0.31859 0.2541 0.0
C1572 C 0.72232 0.33833 0.24287 0.0
C1573 C 0.71028 0.31954 0.22889 0.0
C1574 C 0.7211 0.30026 0.22791 0.0
C1575 C 0.743 0.29972 0.24044 0.0
H1576 H 0.58626 0.86527 0.97974 0.0
H1577 H 0.58896 0.89503 0.91551 0.0
H1578 H 0.58315 0.90189 0.99947 0.0
H1579 H 0.58591 0.93074 0.93479 0.0
H1580 H 0.55849 0.99036 0.96904 0.0
H1581 H 0.56069 0.95308 0.95186 0.0
H1582 H 0.60229 0.94042 0.01276 0.0
H1583 H 0.60006 0.97793 0.03 0.0
C1584 C 0.58619 0.87938 0.9697 0.0
C1585 C 0.58793 0.8765 0.9457 0.0
C1586 C 0.58449 0.90065 0.9811 0.0
C1587 C 0.58402 0.91991 0.96898 0.0
C1588 C 0.58572 0.91679 0.94509 0.0
C1589 C 0.5877 0.89588 0.93389 0.0
C1590 C 0.56819 0.97979 0.97891 0.0
C1591 C 0.57919 0.98782 1.0011 0.0
C1592 C 0.56957 0.95811 0.9689 0.0
C1593 C 0.58184 0.94308 0.98057 0.0
C1594 C 0.5925 0.95098 1.00296 0.0
C1595 C 0.59135 0.97281 0.01289 0.0
H1596 H 1.01642 0.80857 0.73319 0.0
H1597 H 0.98163 0.81599 0.66674 0.0
H1598 H 0.97952 0.8081 0.75029 0.0
H1599 H 0.94404 0.81544 0.68411 0.0
H1600 H 0.87651 0.78852 0.72008 0.0
H1601 H 0.91312 0.79145 0.70145 0.0
H1602 H 0.95009 0.82933 0.76232 0.0
H1603 H 0.91348 0.82644 0.78089 0.0
C1604 C 1.00089 0.81029 0.72208 0.0
C1605 C 1.0025 0.81238 0.69835 0.0
C1606 C 0.97948 0.81013 0.73209 0.0
C1607 C 0.95827 0.81173 0.71889 0.0
C1608 C 0.95973 0.81399 0.69507 0.0
C1609 C 0.98147 0.81452 0.68503 0.0
C1610 C 0.89241 0.79746 0.72963 0.0
C1611 C 0.89164 0.80706 0.75232 0.0
C1612 C 0.91357 0.79933 0.71874 0.0
C1613 C 0.93507 0.81063 0.73011 0.0
C1614 C 0.93425 0.82023 0.7528 0.0
C1615 C 0.91304 0.81862 0.76358 0.0
H1616 H 0.13454 0.06481 0.87437 0.0
H1617 H 0.20044 0.06957 0.91702 0.0
H1618 H 0.11308 0.05714 0.90707 0.0
H1619 H 0.17856 0.0627 0.95055 0.0
H1620 H 0.12755 0.02594 0.99791 0.0
H1621 H 0.15238 0.03395 0.96678 0.0
H1622 H 0.10476 0.07691 0.941 0.0
H1623 H 0.07966 0.06812 0.97112 0.0
C1624 C 0.14449 0.06459 0.89089 0.0
C1625 C 0.1692 0.06809 0.89322 0.0
C1626 C 0.13213 0.06025 0.9097 0.0
C1627 C 0.14411 0.05971 0.93148 0.0
C1628 C 0.16888 0.06297 0.93391 0.0
C1629 C 0.18138 0.06702 0.91483 0.0
C1630 C 0.12245 0.03699 0.98544 0.0
C1631 C 0.10149 0.04606 0.98654 0.0
C1632 C 0.13673 0.04174 0.96782 0.0
C1633 C 0.13035 0.05583 0.95131 0.0
C1634 C 0.10982 0.06549 0.95308 0.0
C1635 C 0.09542 0.06046 0.97033 0.0
H1636 H 0.8519 0.32832 0.5956 0.0
H1637 H 0.87028 0.39186 0.63551 0.0
H1638 H 0.85446 0.30973 0.63089 0.0
H1639 H 0.87171 0.37349 0.67079 0.0
H1640 H 0.88263 0.335 0.73252 0.0
H1641 H 0.88926 0.35119 0.69627 0.0
H1642 H 0.83178 0.30384 0.66139 0.0
H1643 H 0.82597 0.28728 0.69683 0.0
C1644 C 0.85662 0.33831 0.61189 0.0
C1645 C 0.86074 0.36156 0.6127 0.0
C1646 C 0.85791 0.32768 0.63221 0.0
C1647 C 0.86298 0.34004 0.65391 0.0
C1648 C 0.86803 0.3633 0.65454 0.0
C1649 C 0.86705 0.37389 0.63422 0.0
C1650 C 0.87175 0.32782 0.71699 0.0
C1651 C 0.85376 0.30982 0.71775 0.0
C1652 C 0.87539 0.33723 0.6962 0.0
C1653 C 0.86104 0.32892 0.67571 0.0
C1654 C 0.84355 0.31053 0.67651 0.0
C1655 C 0.84007 0.30109 0.6971 0.0
H1656 H 0.61806 0.13295 0.37609 0.0
H1657 H 0.54434 0.12701 0.38675 0.0
H1658 H 0.62827 0.13478 0.41751 0.0
H1659 H 0.55452 0.12837 0.42813 0.0
H1660 H 0.57572 0.12184 0.50113 0.0
H1661 H 0.57554 0.14303 0.46716 0.0
H1662 H 0.6191 0.09961 0.4357 0.0
H1663 H 0.61884 0.07859 0.46922 0.0
C1664 C 0.60409 0.13287 0.38735 0.0
C1665 C 0.58037 0.12917 0.37824 0.0
C1666 C 0.60996 0.13393 0.41105 0.0
C1667 C 0.59217 0.13107 0.42596 0.0
C1668 C 0.56863 0.13059 0.41707 0.0
C1669 C 0.56276 0.12972 0.39331 0.0
C1670 C 0.58603 0.11758 0.48726 0.0
C1671 C 0.59742 0.0988 0.48758 0.0
C1672 C 0.58582 0.12956 0.46785 0.0
C1673 C 0.5973 0.12301 0.44878 0.0
C1674 C 0.61041 0.10537 0.45021 0.0
C1675 C 0.61024 0.09323 0.46934 0.0
H1676 H 0.86099 0.74086 0.09203 0.0
H1677 H 0.81463 0.68632 0.11384 0.0
H1678 H 0.85906 0.76235 0.12922 0.0
H1679 H 0.81274 0.70737 0.15023 0.0
H1680 H 0.79483 0.756 0.20633 0.0
H1681 H 0.79703 0.73797 0.16805 0.0
H1682 H 0.87085 0.7644 0.17184 0.0
H1683 H 0.86862 0.78255 0.21034 0.0
C1684 C 0.85024 0.73346 0.10451 0.0
C1685 C 0.838 0.71165 0.09953 0.0
C1686 C 0.84925 0.74575 0.12604 0.0
C1687 C 0.83561 0.73683 0.14311 0.0
C1688 C 0.82319 0.71521 0.13777 0.0
C1689 C 0.82444 0.70295 0.11666 0.0
C1690 C 0.81159 0.75807 0.19913 0.0
C1691 C 0.83154 0.77079 0.2119 0.0
C1692 C 0.81292 0.74757 0.17699 0.0
C1693 C 0.83419 0.74942 0.16644 0.0
C1694 C 0.85407 0.76255 0.17901 0.0
C1695 C 0.8528 0.7729 0.20133 0.0
H1696 H 0.16312 0.03107 0.78796 0.0
H1697 H 0.22377 0.05699 0.75445 0.0
H1698 H 0.13766 0.03308 0.75326 0.0
H1699 H 0.19821 0.05832 0.71922 0.0
H1700 H 0.1436 0.09396 0.68128 0.0
H1701 H 0.17058 0.08362 0.71115 0.0
H1702 H 0.12463 0.02155 0.71333 0.0
H1703 H 0.09686 0.03246 0.684 0.0
C1704 C 0.17109 0.03661 0.77292 0.0
C1705 C 0.19536 0.04433 0.77403 0.0
C1706 C 0.15648 0.03762 0.75296 0.0
C1707 C 0.16587 0.04626 0.73365 0.0
C1708 C 0.19044 0.05206 0.73406 0.0
C1709 C 0.2051 0.05112 0.75413 0.0
C1710 C 0.13901 0.07825 0.68836 0.0
C1711 C 0.11787 0.0642 0.68056 0.0
C1712 C 0.15477 0.07209 0.70513 0.0
C1713 C 0.14989 0.05165 0.71443 0.0
C1714 C 0.12884 0.03745 0.70652 0.0
C1715 C 0.11298 0.04366 0.68972 0.0
H1716 H 0.83717 0.34977 0.47951 0.0
H1717 H 0.80936 0.40749 0.45736 0.0
H1718 H 0.83333 0.3339 0.43915 0.0
H1719 H 0.80582 0.39182 0.41773 0.0
H1720 H 0.83653 0.37253 0.35064 0.0
H1721 H 0.8373 0.38476 0.3913 0.0
H1722 H 0.80098 0.32061 0.4035 0.0
H1723 H 0.8 0.30822 0.36239 0.0
C1724 C 0.83007 0.35897 0.46619 0.0
C1725 C 0.82382 0.38003 0.47179 0.0
C1726 C 0.82781 0.34985 0.44312 0.0
C1727 C 0.81951 0.36176 0.42528 0.0
C1728 C 0.81258 0.38239 0.43103 0.0
C1729 C 0.8146 0.39133 0.45388 0.0
C1730 C 0.82854 0.36101 0.36188 0.0
C1731 C 0.81801 0.33945 0.3532 0.0
C1732 C 0.82898 0.36804 0.38521 0.0
C1733 C 0.81918 0.35365 0.40059 0.0
C1734 C 0.80877 0.332 0.39205 0.0
C1735 C 0.808 0.32502 0.36851 0.0
H1736 H 0.60158 0.09234 0.27042 0.0
H1737 H 0.53578 0.06495 0.23057 0.0
H1738 H 0.62137 0.06544 0.24975 0.0
H1739 H 0.55569 0.03865 0.20937 0.0
H1740 H 0.58877 0.98757 0.1776 0.0
H1741 H 0.57541 1.00604 0.21145 0.0
H1742 H 0.6326 0.06011 0.21179 0.0
H1743 H 0.64579 0.04209 0.17852 0.0
C1744 C 0.59138 0.0807 0.25712 0.0
C1745 C 0.56712 0.08081 0.25207 0.0
C1746 C 0.6027 0.06519 0.24539 0.0
C1747 C 0.59005 0.04963 0.22819 0.0
C1748 C 0.56584 0.04994 0.22301 0.0
C1749 C 0.5545 0.06533 0.23483 0.0
C1750 C 0.599 1.00299 0.18545 0.0
C1751 C 0.6177 1.01375 0.17461 0.0
C1752 C 0.59124 1.01365 0.20473 0.0
C1753 C 0.60233 0.035 0.21359 0.0
C1754 C 0.62344 0.04381 0.20525 0.0
C1755 C 0.63113 0.03324 0.18602 0.0
H1756 H 0.83311 0.74777 0.96596 0.0
H1757 H 0.84993 0.68941 0.9289 0.0
H1758 H 0.83101 0.76595 0.93039 0.0
H1759 H 0.84889 0.70774 0.89338 0.0
H1760 H 0.82903 0.73875 0.82661 0.0
H1761 H 0.83088 0.7203 0.86202 0.0
H1762 H 0.84617 0.78422 0.90161 0.0
H1763 H 0.84324 0.80241 0.8662 0.0
C1764 C 0.83663 0.73879 0.95026 0.0
C1765 C 0.84172 0.7169 0.95078 0.0
C1766 C 0.83559 0.74939 0.92952 0.0
C1767 C 0.8398 0.73876 0.90815 0.0
C1768 C 0.84506 0.71684 0.90885 0.0
C1769 C 0.84588 0.70618 0.92956 0.0
C1770 C 0.83282 0.74894 0.84283 0.0
C1771 C 0.83592 0.77232 0.84302 0.0
C1772 C 0.83405 0.73824 0.86351 0.0
C1773 C 0.83867 0.75034 0.88556 0.0
C1774 C 0.84209 0.77378 0.88557 0.0
C1775 C 0.84062 0.78444 0.86491 0.0
H1776 H 0.86889 0.15386 0.06543 0.0
H1777 H 0.86504 0.1775 0.99783 0.0
H1778 H 0.90055 0.1336 0.05548 0.0
H1779 H 0.89672 0.15687 0.98771 0.0
H1780 H 0.91623 0.08338 0.97461 0.0
H1781 H 0.89459 0.11425 0.98248 0.0
H1782 H 0.94217 0.1368 0.04348 0.0
H1783 H 0.96406 0.10621 0.03548 0.0
C1784 C 0.87526 0.15516 0.04864 0.0
C1785 C 0.86447 0.16709 0.03235 0.0
C1786 C 0.89345 0.14365 0.04297 0.0
C1787 C 0.90092 0.14357 0.02077 0.0
C1788 C 0.89114 0.15661 1.0049 0.0
C1789 C 0.87318 0.1685 0.01074 0.0
C1790 C 0.92238 0.09522 0.98939 0.0
C1791 C 0.94148 0.09211 1.00471 0.0
C1792 C 0.91008 0.11294 0.99383 0.0
C1793 C 0.91666 0.12777 0.01368 0.0
C1794 C 0.93661 0.12543 0.02822 0.0
C1795 C 0.94896 0.10783 0.02372 0.0
H1796 H 0.40077 0.44774 0.04436 0.0
H1797 H 0.37867 0.51083 0.03336 0.0
H1798 H 0.44219 0.46522 0.04573 0.0
H1799 H 0.4195 0.52812 0.03475 0.0
H1800 H 0.49672 0.55834 0.05569 0.0
H1801 H 0.45638 0.54031 0.05844 0.0
H1802 H 0.4707 0.48132 0.02021 0.0
H1803 H 0.51085 0.49928 0.01745 0.0
C1804 C 0.40465 0.46535 0.0426 0.0
C1805 C 0.38609 0.47773 0.03876 0.0
C1806 C 0.42848 0.47542 0.04315 0.0
C1807 C 0.43455 0.49827 0.04029 0.0
C1808 C 0.41591 0.51064 0.03726 0.0
C1809 C 0.39227 0.50058 0.03636 0.0
C1810 C 0.49132 0.54155 0.04782 0.0
C1811 C 0.50733 0.53052 0.03617 0.0
C1812 C 0.46802 0.53113 0.04936 0.0
C1813 C 0.45991 0.50915 0.03958 0.0
C1814 C 0.47608 0.49806 0.02824 0.0
C1815 C 0.49922 0.50855 0.02646 0.0
H1816 H 0.35839 0.56902 0.74514 0.0
H1817 H 0.41993 0.58874 0.79377 0.0
H1818 H 0.33896 0.59721 0.76381 0.0
H1819 H 0.40005 0.61628 0.81337 0.0
H1820 H 0.37484 0.68457 0.81121 0.0
H1821 H 0.39155 0.6509 0.80369 0.0
H1822 H 0.32169 0.61266 0.79505 0.0
H1823 H 0.30487 0.64675 0.80092 0.0
C1824 C 0.36749 0.57898 0.76027 0.0
C1825 C 0.39079 0.57703 0.76778 0.0
C1826 C 0.35628 0.59506 0.77113 0.0
C1827 C 0.36805 0.60926 0.78996 0.0
C1828 C 0.3907 0.60601 0.79856 0.0
C1829 C 0.40206 0.59019 0.78743 0.0
C1830 C 0.36304 0.66897 0.80779 0.0
C1831 C 0.33852 0.6684 0.8061 0.0
C1832 C 0.37264 0.64954 0.80385 0.0
C1833 C 0.35795 0.62902 0.79847 0.0
C1834 C 0.33348 0.62824 0.79866 0.0
C1835 C 0.32384 0.64776 0.80232 0.0
H1836 H 0.2455 0.64545 0.49048 0.0
H1837 H 0.21406 0.70242 0.51302 0.0
H1838 H 0.20717 0.62237 0.48648 0.0
H1839 H 0.17535 0.67922 0.50867 0.0
H1840 H 0.13094 0.62239 0.54242 0.0
H1841 H 0.16227 0.65024 0.53358 0.0
H1842 H 0.16571 0.61297 0.4684 0.0
H1843 H 0.13383 0.58461 0.47749 0.0
C1844 C 0.23028 0.65314 0.49414 0.0
C1845 C 0.2328 0.67562 0.50258 0.0
C1846 C 0.20825 0.63995 0.49155 0.0
C1847 C 0.18829 0.64894 0.49743 0.0
C1848 C 0.19053 0.67182 0.50423 0.0
C1849 C 0.21264 0.68509 0.50674 0.0
C1850 C 0.1382 0.62019 0.52606 0.0
C1851 C 0.13039 0.60114 0.51082 0.0
C1852 C 0.15592 0.63636 0.52084 0.0
C1853 C 0.16646 0.63383 0.50029 0.0
C1854 C 0.1579 0.61527 0.48442 0.0
C1855 C 0.13975 0.59909 0.48956 0.0
H1856 H 0.67419 0.92574 0.79165 0.0
H1857 H 0.71186 0.99145 0.78743 0.0
H1858 H 0.70723 0.91713 0.81657 0.0
H1859 H 0.74446 0.98313 0.81282 0.0
H1860 H 0.80714 0.94324 0.81814 0.0
H1861 H 0.7733 0.95945 0.80539 0.0
H1862 H 0.7326 0.92439 0.85341 0.0
H1863 H 0.76712 0.9082 0.86684 0.0
C1864 C 0.68935 0.93844 0.79636 0.0
C1865 C 0.69067 0.95908 0.7872 0.0
C1866 C 0.70817 0.93362 0.81084 0.0
C1867 C 0.72855 0.94941 0.81654 0.0
C1868 C 0.72918 0.97049 0.80845 0.0
C1869 C 0.71052 0.97523 0.79386 0.0
C1870 C 0.79144 0.93962 0.82689 0.0
C1871 C 0.78997 0.92413 0.84346 0.0
C1872 C 0.77183 0.94891 0.81938 0.0
C1873 C 0.75013 0.94297 0.82813 0.0
C1874 C 0.74901 0.92894 0.84603 0.0
C1875 C 0.7688 0.91971 0.85374 0.0
H1876 H 0.76266 0.9923 0.54395 0.0
H1877 H 0.71748 0.92937 0.52902 0.0
H1878 H 0.72828 1.01147 0.54171 0.0
H1879 H 0.68291 0.94851 0.52691 0.0
H1880 H 0.62559 0.99113 0.50431 0.0
H1881 H 0.65989 0.9716 0.5058 0.0
H1882 H 0.69498 1.01994 0.56001 0.0
H1883 H 0.6609 0.0394 0.55839 0.0
C1884 C 0.74539 0.98244 0.54025 0.0
C1885 C 0.74322 0.95909 0.53673 0.0
C1886 C 0.72543 0.99353 0.53907 0.0
C1887 C 0.70229 0.98182 0.53414 0.0
C1888 C 0.70016 0.95842 0.53049 0.0
C1889 C 0.72015 0.94731 0.53186 0.0
C1890 C 0.64064 0.99773 0.51649 0.0
C1891 C 0.64012 1.01714 0.53112 0.0
C1892 C 0.66044 0.98632 0.5175 0.0
C1893 C 0.68074 0.99394 0.53302 0.0
C1894 C 0.68017 1.01344 0.54753 0.0
C1895 C 0.66033 0.02467 0.54668 0.0
H1896 H 0.37672 0.47126 0.71522 0.0
H1897 H 0.44018 0.44511 0.70072 0.0
H1898 H 0.35935 0.43505 0.7252 0.0
H1899 H 0.42264 0.40865 0.71074 0.0
H1900 H 0.39596 0.36448 0.76863 0.0
H1901 H 0.4126 0.39645 0.74973 0.0
H1902 H 0.34567 0.3955 0.71015 0.0
H1903 H 0.32892 0.36368 0.72906 0.0
C1904 C 0.38674 0.45761 0.71367 0.0
C1905 C 0.40986 0.46101 0.7074 0.0
C1906 C 0.37676 0.43687 0.7193 0.0
C1907 C 0.38977 0.41915 0.71895 0.0
C1908 C 0.41237 0.42215 0.71136 0.0
C1909 C 0.42229 0.44292 0.70545 0.0
C1910 C 0.38482 0.37102 0.75584 0.0
C1911 C 0.36107 0.3617 0.75053 0.0
C1912 C 0.39443 0.38916 0.74483 0.0
C1913 C 0.3804 0.39837 0.72846 0.0
C1914 C 0.35682 0.38875 0.7228 0.0
C1915 C 0.34726 0.37055 0.73365 0.0
H1916 H 0.13032 0.57413 0.1992 0.0
H1917 H 0.19099 0.55088 0.23214 0.0
H1918 H 0.15173 0.61193 0.20375 0.0
H1919 H 0.21242 0.58843 0.23621 0.0
H1920 H 0.20443 0.67514 0.20063 0.0
H1921 H 0.18486 0.63684 0.19216 0.0
H1922 H 0.21021 0.62215 0.26001 0.0
H1923 H 0.22974 0.66031 0.26842 0.0
C1924 C 0.14832 0.577 0.20705 0.0
C1925 C 0.15882 0.55951 0.21554 0.0
C1926 C 0.16062 0.59866 0.2096 0.0
C1927 C 0.18368 0.60323 0.22063 0.0
C1928 C 0.19451 0.58555 0.22811 0.0
C1929 C 0.18223 0.56398 0.22564 0.0
C1930 C 0.20571 0.66373 0.21376 0.0
C1931 C 0.21862 0.67077 0.23522 0.0
C1932 C 0.19452 0.6418 0.2089 0.0
C1933 C 0.19602 0.62642 0.22537 0.0
C1934 C 0.20906 0.63346 0.24676 0.0
C1935 C 0.22024 0.65535 0.25161 0.0
H1936 H 0.54033 0.71401 0.47948 0.0
H1937 H 0.48891 0.66058 0.44515 0.0
H1938 H 0.55157 0.68946 0.50822 0.0
H1939 H 0.49966 0.63635 0.47412 0.0
H1940 H 0.51624 0.59754 0.53037 0.0
H1941 H 0.50269 0.63092 0.51765 0.0
H1942 H 0.57225 0.65426 0.49927 0.0
H1943 H 0.58599 0.62074 0.51215 0.0
C1944 C 0.53081 0.6973 0.47861 0.0
C1945 C 0.51385 0.68905 0.46008 0.0
C1946 C 0.53736 0.68329 0.49495 0.0
C1947 C 0.52655 0.66109 0.49326 0.0
C1948 C 0.50814 0.65348 0.47589 0.0
C1949 C 0.50201 0.66729 0.45929 0.0
C1950 C 0.52882 0.61007 0.52416 0.0
C1951 C 0.55202 0.60641 0.52164 0.0
C1952 C 0.52104 0.62914 0.51698 0.0
C1953 C 0.53631 0.64484 0.50715 0.0
C1954 C 0.56017 0.64236 0.5069 0.0
C1955 C 0.56803 0.6232 0.51418 0.0
H1956 H 0.71433 0.41031 0.71933 0.0
H1957 H 0.72118 0.36444 0.66111 0.0
H1958 H 0.74228 0.39311 0.74306 0.0
H1959 H 0.74891 0.34723 0.68491 0.0
H1960 H 0.7589 0.30141 0.7427 0.0
H1961 H 0.73719 0.3242 0.71893 0.0
H1962 H 0.78468 0.38288 0.74771 0.0
H1963 H 0.80658 0.36012 0.77148 0.0
C1964 C 0.72251 0.39715 0.71139 0.0
C1965 C 0.71537 0.38853 0.6885 0.0
C1966 C 0.73835 0.38724 0.725 0.0
C1967 C 0.74711 0.36852 0.71588 0.0
C1968 C 0.74191 0.36139 0.69238 0.0
C1969 C 0.72631 0.37146 0.6787 0.0
C1970 C 0.76446 0.3192 0.74428 0.0
C1971 C 0.78444 0.329 0.75887 0.0
C1972 C 0.75227 0.33217 0.73044 0.0
C1973 C 0.75968 0.35516 0.7312 0.0
C1974 C 0.77883 0.36515 0.74671 0.0
C1975 C 0.79124 0.35214 0.76032 0.0
H1976 H 1.02776 0.29524 0.93489 0.0
H1977 H 0.05544 0.31799 0.87315 0.0
H1978 H 1.02556 0.33348 0.94884 0.0
H1979 H 0.05329 0.35617 0.88723 0.0
H1980 H 0.05581 0.40672 0.97591 0.0
H1981 H 0.05471 0.36785 0.9621 0.0
H1982 H 1.02263 0.38012 0.8959 0.0
H1983 H 1.02317 0.41885 0.90977 0.0
C1984 C 0.03327 0.30836 0.92423 0.0
C1985 C 0.0418 0.30355 0.90289 0.0
C1986 C 0.03212 0.33025 0.93231 0.0
C1987 C 0.03927 0.34776 0.91912 0.0
C1988 C 0.04744 0.34296 0.89765 0.0
C1989 C 0.04877 0.3211 0.88964 0.0
C1990 C 0.04815 0.40107 0.95854 0.0
C1991 C 0.0397 0.41596 0.94391 0.0
C1992 C 0.04758 0.37882 0.95063 0.0
C1993 C 0.03871 0.37103 0.9279 0.0
C1994 C 0.0299 0.38577 0.91339 0.0
C1995 C 0.03029 0.40796 0.92134 0.0
H1996 H 0.08073 0.87137 0.19637 0.0
H1997 H 0.10813 0.83578 0.25107 0.0
H1998 H 0.04081 0.86058 0.20695 0.0
H1999 H 0.0684 0.82505 0.26142 0.0
H2000 H 0.99294 0.79003 0.25662 0.0
H2001 H 0.03111 0.80052 0.24223 0.0
H2002 H 1.01847 0.86846 0.24255 0.0
H2003 H 0.98012 0.85794 0.2568 0.0
C2004 C 0.07825 0.86128 0.21061 0.0
C2005 C 0.09756 0.85444 0.22291 0.0
C2006 C 0.05546 0.85518 0.21667 0.0
C2007 C 0.05163 0.84189 0.23487 0.0
C2008 C 0.0709 0.83508 0.24712 0.0
C2009 C 0.09365 0.84138 0.24129 0.0
C2010 C 0.99818 0.80713 0.25329 0.0
C2011 C 0.98373 0.82322 0.25791 0.0
C2012 C 1.02003 0.81314 0.24523 0.0
C2013 C 1.02769 0.83529 0.24146 0.0
C2014 C 1.01287 0.85125 0.24525 0.0
C2015 C 0.9911 0.84529 0.25356 0.0
H2016 H 0.57056 0.37023 0.07791 0.0
H2017 H 0.58155 0.40415 0.14605 0.0
H2018 H 0.57329 0.40598 0.06138 0.0
H2019 H 0.58509 0.43981 0.12982 0.0
H2020 H 0.57379 0.50395 0.09742 0.0
H2021 H 0.57097 0.46817 0.1133 0.0
H2022 H 0.59189 0.43878 0.05033 0.0
H2023 H 0.59394 0.47469 0.03427 0.0
C2024 C 0.57368 0.38527 0.08951 0.0
C2025 C 0.57569 0.3837 0.11358 0.0
C2026 C 0.57545 0.40615 0.07993 0.0
C2027 C 0.57943 0.42674 0.09385 0.0
C2028 C 0.58157 0.42499 0.11796 0.0
C2029 C 0.57969 0.40416 0.12749 0.0
C2030 C 0.57795 0.48997 0.08684 0.0
C2031 C 0.58425 0.4929 0.06432 0.0
C2032 C 0.57643 0.46903 0.09615 0.0
C2033 C 0.58121 0.44962 0.08356 0.0
C2034 C 0.58765 0.45265 0.06098 0.0
C2035 C 0.58908 0.47364 0.05164 0.0
H2036 H 0.99787 0.29042 0.39501 0.0
H2037 H 1.02316 0.32543 0.33877 0.0
H2038 H 0.9571 0.28906 0.37765 0.0
H2039 H 0.98335 0.32367 0.3215 0.0
H2040 H 0.91057 0.34069 0.30621 0.0
H2041 H 0.94958 0.33966 0.32481 0.0
H2042 H 0.92564 0.27537 0.3471 0.0
H2043 H 0.88599 0.27671 0.32875 0.0
C2044 C 0.9949 0.29763 0.37891 0.0
C2045 C 1.01422 0.30827 0.36864 0.0
C2046 C 0.97139 0.29684 0.36884 0.0
C2047 C 0.9664 0.30665 0.34816 0.0
C2048 C 0.9859 0.3165 0.33768 0.0
C2049 C 1.00909 0.31735 0.34767 0.0
C2050 C 0.91344 0.32619 0.31492 0.0
C2051 C 0.89475 0.30871 0.31557 0.0
C2052 C 0.93614 0.32552 0.32564 0.0
C2053 C 0.9414 0.30727 0.33747 0.0
C2054 C 0.92262 0.28982 0.33839 0.0
C2055 C 0.89976 0.29052 0.32763 0.0
H2056 H 0.07045 0.75045 0.58769 0.0
H2057 H 0.06914 0.72272 0.65305 0.0
H2058 H 0.07164 0.71321 0.5687 0.0
H2059 H 0.06978 0.68619 0.63447 0.0
H2060 H 0.0914 0.62329 0.60112 0.0
H2061 H 0.09068 0.66088 0.61822 0.0
H2062 H 0.05464 0.67632 0.55524 0.0
H2063 H 0.05595 0.63881 0.53804 0.0
C2064 C 0.0702 0.73657 0.5981 0.0
C2065 C 0.0698 0.74027 0.62221 0.0
C2066 C 0.07086 0.71492 0.58714 0.0
C2067 C 0.07117 0.69596 0.59976 0.0
C2068 C 0.07027 0.69983 0.62374 0.0
C2069 C 0.06966 0.72122 0.63456 0.0
C2070 C 0.08325 0.63458 0.59082 0.0
C2071 C 0.07363 0.62737 0.56801 0.0
C2072 C 0.08266 0.65646 0.60078 0.0
C2073 C 0.07237 0.6724 0.58851 0.0
C2074 C 0.06296 0.66517 0.56558 0.0
C2075 C 0.06356 0.64327 0.55563 0.0
H2076 H 0.63504 0.7885 0.84403 0.0
H2077 H 0.67956 0.81249 0.90641 0.0
H2078 H 0.66959 0.79129 0.82228 0.0
H2079 H 0.71421 0.81542 0.88465 0.0
H2080 H 0.77078 0.8371 0.8352 0.0
H2081 H 0.73604 0.83518 0.85669 0.0
H2082 H 0.70456 0.77562 0.81445 0.0
H2083 H 0.73931 0.77751 0.79314 0.0
C2084 C 0.65219 0.79438 0.85323 0.0
C2085 C 0.65409 0.8002 0.87725 0.0
C2086 C 0.67224 0.79591 0.84065 0.0
C2087 C 0.69524 0.80362 0.85136 0.0
C2088 C 0.69709 0.80962 0.87539 0.0
C2089 C 0.67704 0.80779 0.88805 0.0
C2090 C 0.75647 0.82364 0.83029 0.0
C2091 C 0.75833 0.80756 0.81207 0.0
C2092 C 0.73637 0.8224 0.84288 0.0
C2093 C 0.71696 0.80518 0.83767 0.0
C2094 C 0.71869 0.78934 0.81916 0.0
C2095 C 0.7389 0.7904 0.80682 0.0
H2096 H 0.41754 0.5454 0.64035 0.0
H2097 H 0.4782 0.58602 0.67829 0.0
H2098 H 0.43746 0.54713 0.60514 0.0
H2099 H 0.4983 0.58718 0.6438 0.0
H2100 H 0.53378 0.58654 0.58125 0.0
H2101 H 0.50429 0.59582 0.6062 0.0
H2102 H 0.46909 0.52787 0.59517 0.0
H2103 H 0.49799 0.51901 0.56927 0.0
C2104 C 0.43476 0.55533 0.64097 0.0
C2105 C 0.44662 0.56521 0.66199 0.0
C2106 C 0.44627 0.55612 0.62092 0.0
C2107 C 0.46969 0.5668 0.62177 0.0
C2108 C 0.48029 0.57883 0.64237 0.0
C2109 C 0.46883 0.57807 0.66226 0.0
C2110 C 0.51967 0.57364 0.58416 0.0
C2111 C 0.51845 0.5519 0.57396 0.0
C2112 C 0.5027 0.57898 0.5983 0.0
C2113 C 0.48445 0.56256 0.6029 0.0
C2114 C 0.48269 0.54103 0.59177 0.0
C2115 C 0.49944 0.53581 0.57725 0.0
H2116 H 0.82843 0.21611 0.94544 0.0
H2117 H 0.79272 0.27046 0.96727 0.0
H2118 H 0.82675 0.2274 0.90656 0.0
H2119 H 0.79084 0.2817 0.92798 0.0
H2120 H 0.81689 0.30641 0.85948 0.0
H2121 H 0.81573 0.29679 0.89899 0.0
H2122 H 0.79703 0.22752 0.87428 0.0
H2123 H 0.79856 0.23703 0.83473 0.0
C2124 C 0.82033 0.23059 0.94199 0.0
C2125 C 0.81067 0.24237 0.95951 0.0
C2126 C 0.81914 0.23692 0.91958 0.0
C2127 C 0.8083 0.25523 0.91402 0.0
C2128 C 0.79932 0.26751 0.93168 0.0
C2129 C 0.80043 0.2611 0.9542 0.0
C2130 C 0.81217 0.28913 0.86239 0.0
C2131 C 0.80799 0.27247 0.84384 0.0
C2132 C 0.81147 0.28364 0.88511 0.0
C2133 C 0.80663 0.26136 0.88985 0.0
C2134 C 0.8013 0.24482 0.87126 0.0
C2135 C 0.80195 0.2503 0.84854 0.0
H2136 H 0.14489 0.46339 0.15315 0.0
H2137 H 0.07699 0.45022 0.17944 0.0
H2138 H 0.12547 0.46999 0.1161 0.0
H2139 H 0.05781 0.45727 0.14262 0.0
H2140 H 0.05941 0.52515 0.10321 0.0
H2141 H 0.06787 0.49997 0.13214 0.0
H2142 H 0.0907 0.45601 0.08016 0.0
H2143 H 0.08125 0.48089 0.05092 0.0
C2144 C 0.12584 0.46098 0.15075 0.0
C2145 C 0.1125 0.4569 0.16935 0.0
C2146 C 0.11472 0.4647 0.12953 0.0
C2147 C 0.09022 0.46445 0.12678 0.0
C2148 C 0.07673 0.45768 0.14445 0.0
C2149 C 0.08777 0.45371 0.16551 0.0
C2150 C 0.06523 0.50963 0.09785 0.0
C2151 C 0.0695 0.50476 0.07497 0.0
C2152 C 0.07006 0.49523 0.11432 0.0
C2153 C 0.07987 0.47609 0.10826 0.0
C2154 C 0.08295 0.47058 0.08512 0.0
C2155 C 0.07743 0.48471 0.06847 0.0
H2156 H 0.83731 0.87714 0.47102 0.0
H2157 H 0.77583 0.90057 0.44096 0.0
H2158 H 0.84154 0.85737 0.43394 0.0
H2159 H 0.77884 0.87997 0.40455 0.0
H2160 H 0.79792 0.85799 0.33373 0.0
H2161 H 0.7941 0.87644 0.37121 0.0
H2162 H 0.83451 0.83108 0.40378 0.0
H2163 H 0.83939 0.81364 0.36597 0.0
C2164 C 0.82427 0.8776 0.45669 0.0
C2165 C 0.80616 0.89056 0.45933 0.0
C2166 C 0.82666 0.86618 0.43509 0.0
C2167 C 0.81081 0.86692 0.41527 0.0
C2168 C 0.79213 0.87917 0.41852 0.0
C2169 C 0.79009 0.89089 0.43983 0.0
C2170 C 0.80605 0.85193 0.34886 0.0
C2171 C 0.81904 0.83419 0.3464 0.0
C2172 C 0.80367 0.86248 0.37078 0.0
C2173 C 0.81373 0.85552 0.39146 0.0
C2174 C 0.82663 0.83758 0.38884 0.0
C2175 C 0.82936 0.82731 0.36686 0.0
H2176 H 0.4725 0.52366 0.79155 0.0
H2177 H 0.53333 0.53007 0.75286 0.0
H2178 H 0.49808 0.52249 0.82671 0.0
H2179 H 0.5589 0.52921 0.7883 0.0
H2180 H 0.58938 0.55559 0.86736 0.0
H2181 H 0.56802 0.55556 0.82918 0.0
H2182 H 0.52607 0.49317 0.83863 0.0
H2183 H 0.54718 0.49308 0.87641 0.0
C2184 C 0.49131 0.52491 0.79057 0.0
C2185 C 0.50093 0.52686 0.76948 0.0
C2186 C 0.50588 0.52415 0.81064 0.0
C2187 C 0.53033 0.52567 0.81 0.0
C2188 C 0.54007 0.52804 0.78907 0.0
C2189 C 0.52544 0.52842 0.76888 0.0
C2190 C 0.57594 0.54169 0.86099 0.0
C2191 C 0.56999 0.52431 0.87473 0.0
C2192 C 0.56381 0.54166 0.83925 0.0
C2193 C 0.54538 0.52445 0.83129 0.0
C2194 C 0.54016 0.50665 0.84458 0.0
C2195 C 0.55243 0.50652 0.86605 0.0
H2196 H 0.83012 0.26138 0.09456 0.0
H2197 H 0.78447 0.20917 0.12134 0.0
H2198 H 0.84013 0.27972 0.13364 0.0
H2199 H 0.79403 0.22751 0.1599 0.0
H2200 H 0.83105 0.25249 0.22956 0.0
H2201 H 0.82575 0.2351 0.19008 0.0
H2202 H 0.82403 0.29926 0.1645 0.0
H2203 H 0.82997 0.31664 0.20371 0.0
C2204 C 0.82199 0.25398 0.10868 0.0
C2205 C 0.80656 0.23376 0.10475 0.0
C2206 C 0.82776 0.26444 0.1311 0.0
C2207 C 0.81819 0.25492 0.15005 0.0
C2208 C 0.80227 0.23504 0.14591 0.0
C2209 C 0.79659 0.22463 0.12365 0.0
C2210 C 0.82993 0.26291 0.21551 0.0
C2211 C 0.83079 0.28595 0.21991 0.0
C2212 C 0.82666 0.25293 0.19284 0.0
C2213 C 0.82412 0.26574 0.17403 0.0
C2214 C 0.82604 0.28887 0.17846 0.0
C2215 C 0.82934 0.29883 0.20106 0.0
H2216 H 0.04562 0.50917 0.26428 0.0
H2217 H 0.11064 0.50288 0.30413 0.0
H2218 H 1.02774 0.51672 0.29974 0.0
H2219 H 0.09299 0.51102 0.33941 0.0
H2220 H 0.05111 0.50763 0.39951 0.0
H2221 H 0.06366 0.49539 0.36275 0.0
H2222 H 0.0309 0.54607 0.33072 0.0
H2223 H 1.0171 0.55753 0.36735 0.0
C2224 C 0.05611 0.50943 0.28059 0.0
C2225 C 0.07955 0.50542 0.28141 0.0
C2226 C 0.04588 0.51384 0.30087 0.0
C2227 C 0.05892 0.5144 0.32235 0.0
C2228 C 0.08232 0.51028 0.32314 0.0
C2229 C 0.0925 0.50576 0.3029 0.0
C2230 C 0.04595 0.51576 0.38453 0.0
C2231 C 0.03314 0.53361 0.38638 0.0
C2232 C 0.05349 0.50896 0.36352 0.0
C2233 C 0.04858 0.51998 0.34393 0.0
C2234 C 0.03488 0.53718 0.3455 0.0
C2235 C 1.02719 0.54391 0.36653 0.0
H2236 H 0.80018 0.8572 0.59333 0.0
H2237 H 0.82321 0.9211 0.63093 0.0
H2238 H 0.80101 0.83962 0.62943 0.0
H2239 H 0.82343 0.90382 0.6671 0.0
H2240 H 0.84082 0.86624 0.72991 0.0
H2241 H 0.84005 0.88351 0.6938 0.0
H2242 H 0.78564 0.83081 0.66342 0.0
H2243 H 0.78701 0.81326 0.69951 0.0
C2244 C 0.80537 0.86763 0.60928 0.0
C2245 C 0.8117 0.89079 0.60872 0.0
C2246 C 0.80569 0.85747 0.63032 0.0
C2247 C 0.8123 0.86993 0.65198 0.0
C2248 C 0.81858 0.89315 0.65128 0.0
C2249 C 0.81832 0.90327 0.63025 0.0
C2250 C 0.82855 0.85827 0.71563 0.0
C2251 C 0.81393 0.83814 0.7182 0.0
C2252 C 0.82799 0.86838 0.6946 0.0
C2253 C 0.81274 0.85895 0.6749 0.0
C2254 C 0.79801 0.83882 0.67758 0.0
C2255 C 0.79862 0.82868 0.69864 0.0
H2256 H 0.756 0.40463 0.55542 0.0
H2257 H 0.80742 0.45757 0.59064 0.0
H2258 H 0.72499 0.42756 0.56074 0.0
H2259 H 0.77664 0.48008 0.59645 0.0
H2260 H 0.72383 0.52426 0.57267 0.0
H2261 H 0.7533 0.49959 0.57126 0.0
H2262 H 0.70273 0.44575 0.58875 0.0
H2263 H 0.67308 0.47054 0.59002 0.0
C2264 C 0.76058 0.42096 0.56465 0.0
C2265 C 0.78411 0.42945 0.57236 0.0
C2266 C 0.74286 0.43407 0.56775 0.0
C2267 C 0.74845 0.45578 0.5787 0.0
C2268 C 0.77184 0.46367 0.58744 0.0
C2269 C 0.78945 0.45071 0.58422 0.0
C2270 C 0.7191 0.50727 0.57659 0.0
C2271 C 0.6962 0.49939 0.58158 0.0
C2272 C 0.73597 0.4931 0.57576 0.0
C2273 C 0.73038 0.47071 0.58001 0.0
C2274 C 0.7075 0.46283 0.58517 0.0
C2275 C 0.69057 0.47704 0.58595 0.0
H2276 H 0.27898 0.11264 0.51517 0.0
H2277 H 0.25378 0.17519 0.52708 0.0
H2278 H 0.23935 0.09291 0.51787 0.0
H2279 H 0.21421 0.15565 0.52939 0.0
H2280 H 0.15075 0.1158 0.55609 0.0
H2281 H 0.19049 0.13422 0.55288 0.0
H2282 H 0.19946 0.08289 0.50085 0.0
H2283 H 0.15958 0.06419 0.50439 0.0
C2284 C 0.26498 0.12225 0.51816 0.0
C2285 C 0.26986 0.14565 0.5209 0.0
C2286 C 0.24207 0.11088 0.51964 0.0
C2287 C 0.22316 0.12246 0.52404 0.0
C2288 C 0.22809 0.14589 0.52643 0.0
C2289 C 0.25093 0.15722 0.52489 0.0
C2290 C 0.16113 0.10827 0.54399 0.0
C2291 C 0.15159 0.08831 0.53054 0.0
C2292 C 0.18408 0.11905 0.54198 0.0
C2293 C 0.19859 0.11038 0.52642 0.0
C2294 C 0.18919 0.09019 0.5132 0.0
C2295 C 0.16612 0.07941 0.51517 0.0
H2296 H 0.30997 0.05131 0.83704 0.0
H2297 H 0.27248 1.0137 0.88538 0.0
H2298 H 0.33728 0.02498 0.83514 0.0
H2299 H 0.30108 0.98795 0.88503 0.0
H2300 H 0.32192 0.92895 0.84142 0.0
H2301 H 0.30519 0.95935 0.85897 0.0
H2302 H 0.36625 1.00516 0.84614 0.0
H2303 H 0.38208 0.97441 0.8269 0.0
C2304 C 0.30813 0.03781 0.84799 0.0
C2305 C 0.28878 0.0342 0.8609 0.0
C2306 C 0.32401 0.02269 0.84708 0.0
C2307 C 0.3212 1.00384 0.8595 0.0
C2308 C 0.30334 1.00176 0.87454 0.0
C2309 C 0.28704 1.0166 0.87494 0.0
C2310 C 0.33203 0.94546 0.84291 0.0
C2311 C 0.35314 0.94945 0.83266 0.0
C2312 C 0.32251 0.96302 0.85317 0.0
C2313 C 0.3341 0.98499 0.85377 0.0
C2314 C 0.35642 0.98861 0.84541 0.0
C2315 C 0.36565 0.97103 0.83457 0.0
H2316 H 0.42156 0.9278 0.03984 0.0
H2317 H 0.38838 0.98662 0.04628 0.0
H2318 H 0.46039 0.95102 0.04607 0.0
H2319 H 0.42655 1.00952 0.05394 0.0
H2320 H 0.49396 0.04602 0.03423 0.0
H2321 H 0.45664 0.0222 0.03258 0.0
H2322 H 0.48954 0.97548 0.07118 0.0
H2323 H 0.52768 0.99915 0.07172 0.0
C2324 C 0.42262 0.94564 0.04286 0.0
C2325 C 0.40207 0.95549 0.04202 0.0
C2326 C 0.4448 0.95895 0.04663 0.0
C2327 C 0.44668 0.98225 0.05011 0.0
C2328 C 0.42592 0.99177 0.05052 0.0
C2329 C 0.40397 0.97861 0.04621 0.0
C2330 C 0.49332 0.03083 0.04266 0.0
C2331 C 0.51384 0.02454 0.05316 0.0
C2332 C 0.47175 1.01712 0.04182 0.0
C2333 C 0.4699 0.99688 0.05189 0.0
C2334 C 0.49033 0.99081 0.063 0.0
C2335 C 0.51214 1.00448 0.06354 0.0
H2336 H 0.93498 0.60118 0.80474 0.0
H2337 H 0.97586 0.66552 0.80046 0.0
H2338 H 0.89874 0.61692 0.798 0.0
H2339 H 0.93948 0.68124 0.79379 0.0
H2340 H 0.86932 0.70519 0.80272 0.0
H2341 H 0.90384 0.68838 0.81424 0.0
H2342 H 0.87968 0.63286 0.76343 0.0
H2343 H 0.84487 0.6496 0.75199 0.0
C2344 C 0.93624 0.61874 0.80262 0.0
C2345 C 0.95827 0.63213 0.80306 0.0
C2346 C 0.91549 0.62767 0.79863 0.0
C2347 C 0.91636 0.65022 0.79529 0.0
C2348 C 0.93835 0.6638 0.79648 0.0
C2349 C 0.95914 0.65481 0.80022 0.0
C2350 C 0.87108 0.68914 0.79436 0.0
C2351 C 0.85434 0.6786 0.77654 0.0
C2352 C 0.89098 0.67969 0.80078 0.0
C2353 C 0.89444 0.65942 0.78966 0.0
C2354 C 0.87732 0.64846 0.77239 0.0
C2355 C 0.8575 0.65804 0.76578 0.0
H2356 H 0.9165 0.64482 0.99566 0.0
H2357 H 0.91343 0.62897 0.06584 0.0
H2358 H 0.95306 0.62833 0.99412 0.0
H2359 H 0.9494 0.61282 0.06439 0.0
H2360 H 1.02588 0.60153 0.06388 0.0
H2361 H 0.99117 0.62013 0.06364 0.0
H2362 H 0.96963 0.5928 0.99364 0.0
H2363 H 1.00458 0.5741 0.99389 0.0
C2364 C 0.92367 0.63816 0.01087 0.0
C2365 C 0.91167 0.63851 0.03091 0.0
C2366 C 0.94464 0.62842 0.00995 0.0
C2367 C 0.95468 0.61904 0.02916 0.0
C2368 C 0.94283 0.61994 0.04923 0.0
C2369 C 0.92187 0.62925 0.05002 0.0
C2370 C 1.01384 0.59937 0.04835 0.0
C2371 C 1.01841 0.58596 0.02897 0.0
C2372 C 0.99365 0.61009 0.04823 0.0
C2373 C 0.97704 0.60816 0.02864 0.0
C2374 C 0.9818 0.59505 0.00908 0.0
C2375 C 1.00194 0.58409 0.00928 0.0
H2376 H 0.21119 0.16016 0.83514 0.0
H2377 H 0.27609 0.13394 0.82833 0.0
H2378 H 0.23143 0.19744 0.83184 0.0
H2379 H 0.29602 0.17067 0.8232 0.0
H2380 H 0.33151 0.24027 0.82456 0.0
H2381 H 0.31179 0.20614 0.83747 0.0
H2382 H 0.24561 0.21845 0.80393 0.0
H2383 H 0.26514 0.25321 0.7927 0.0
C2384 C 0.2298 0.16245 0.83287 0.0
C2385 C 0.2421 0.14428 0.83186 0.0
C2386 C 0.24141 0.18376 0.83079 0.0
C2387 C 0.26538 0.18719 0.82691 0.0
C2388 C 0.27772 0.16892 0.82657 0.0
C2389 C 0.26626 0.14776 0.82932 0.0
C2390 C 0.3127 0.23566 0.82021 0.0
C2391 C 0.29983 0.24919 0.80754 0.0
C2392 C 0.30137 0.21605 0.82746 0.0
C2393 C 0.27705 0.20927 0.8216 0.0
C2394 C 0.26422 0.22318 0.80924 0.0
C2395 C 0.27544 0.24305 0.80255 0.0
H2396 H 0.48431 0.04063 0.31441 0.0
H2397 H 0.54862 1.01214 0.3221 0.0
H2398 H 0.46141 1.00391 0.31243 0.0
H2399 H 0.52558 0.97529 0.32097 0.0
H2400 H 0.47784 0.91164 0.28979 0.0
H2401 H 0.50137 0.9485 0.29378 0.0
H2402 H 0.44975 0.97367 0.3339 0.0
H2403 H 0.42602 0.93699 0.32928 0.0
C2404 C 0.49359 0.02657 0.31611 0.0
C2405 C 0.51833 0.02935 0.31836 0.0
C2406 C 0.48041 1.00546 0.31505 0.0
C2407 C 0.49163 0.98659 0.31644 0.0
C2408 C 0.51638 0.98943 0.31942 0.0
C2409 C 0.52959 1.01057 0.32028 0.0
C2410 C 0.4716 0.9251 0.29946 0.0
C2411 C 0.45007 0.92154 0.3091 0.0
C2412 C 0.48512 0.94618 0.30188 0.0
C2413 C 0.47749 0.96407 0.31421 0.0
C2414 C 0.45598 0.96038 0.32396 0.0
C2415 C 0.44237 0.93938 0.32133 0.0
H2416 H 0.62463 0.38685 0.58184 0.0
H2417 H 0.5908 0.42493 0.63086 0.0
H2418 H 0.60712 0.40541 0.5505 0.0
H2419 H 0.57322 0.44309 0.59971 0.0
H2420 H 0.60726 0.47979 0.52484 0.0
H2421 H 0.61623 0.44763 0.54424 0.0
H2422 H 0.54478 0.43574 0.56244 0.0
H2423 H 0.53594 0.46799 0.54293 0.0
C2424 C 0.61314 0.39887 0.58584 0.0
C2425 C 0.60923 0.40469 0.60874 0.0
C2426 C 0.60312 0.40937 0.56795 0.0
C2427 C 0.58868 0.42544 0.57273 0.0
C2428 C 0.58394 0.43044 0.59552 0.0
C2429 C 0.59423 0.42026 0.61338 0.0
C2430 C 0.59322 0.46951 0.53191 0.0
C2431 C 0.57093 0.47597 0.53236 0.0
C2432 C 0.59831 0.45116 0.54301 0.0
C2433 C 0.5812 0.43941 0.55495 0.0
C2434 C 0.55822 0.44463 0.55336 0.0
C2435 C 0.55311 0.46289 0.54211 0.0
H2436 H 0.46953 0.69671 0.30389 0.0
H2437 H 0.43903 0.71487 0.36614 0.0
H2438 H 0.43183 0.69644 0.28153 0.0
H2439 H 0.40166 0.71547 0.34383 0.0
H2440 H 0.33934 0.72623 0.30356 0.0
H2441 H 0.36688 0.70228 0.31783 0.0
H2442 H 0.41722 0.72986 0.27315 0.0
H2443 H 0.3896 0.75322 0.25897 0.0
C2444 C 0.45457 0.70007 0.31286 0.0
C2445 C 0.45731 0.70639 0.33665 0.0
C2446 C 0.43299 0.69993 0.30006 0.0
C2447 C 0.4139 0.70653 0.31076 0.0
C2448 C 0.41593 0.71025 0.33495 0.0
C2449 C 0.43745 0.71005 0.34781 0.0
C2450 C 0.35581 0.72611 0.29597 0.0
C2451 C 0.36248 0.74128 0.28011 0.0
C2452 C 0.37168 0.71264 0.3043 0.0
C2453 C 0.39442 0.71438 0.29695 0.0
C2454 C 0.39984 0.72782 0.27909 0.0
C2455 C 0.38404 0.74128 0.27089 0.0
H2456 H 0.15566 0.81353 0.12864 0.0
H2457 H 0.18471 0.79109 0.19167 0.0
H2458 H 0.14819 0.77549 0.11106 0.0
H2459 H 0.17753 0.753 0.17381 0.0
H2460 H 0.12943 0.68801 0.14559 0.0
H2461 H 0.14126 0.72631 0.16199 0.0
H2462 H 0.16707 0.74376 0.0977 0.0
H2463 H 0.15464 0.7055 0.08108 0.0
C2464 C 0.16083 0.80054 0.13864 0.0
C2465 C 0.17058 0.80534 0.16166 0.0
C2466 C 0.15662 0.77875 0.12849 0.0
C2467 C 0.16204 0.76127 0.14115 0.0
C2468 C 0.17281 0.76614 0.16379 0.0
C2469 C 0.17709 0.78797 0.17395 0.0
C2470 C 0.13741 0.70008 0.1349 0.0
C2471 C 0.14103 0.69382 0.11204 0.0
C2472 C 0.1445 0.72192 0.14438 0.0
C2473 C 0.15526 0.73797 0.13118 0.0
C2474 C 0.15875 0.73175 0.10826 0.0
C2475 C 0.15176 0.70986 0.0988 0.0
H2476 H 0.11222 0.20846 0.86258 0.0
H2477 H 0.11669 0.26688 0.91024 0.0
H2478 H 0.14375 0.22717 0.84274 0.0
H2479 H 0.1469 0.28612 0.88967 0.0
H2480 H 0.20963 0.31293 0.85405 0.0
H2481 H 0.18442 0.29169 0.87807 0.0
H2482 H 0.14592 0.25454 0.81716 0.0
H2483 H 0.17262 0.27417 0.79336 0.0
C2484 C 0.12029 0.22517 0.86902 0.0
C2485 C 0.11203 0.23626 0.88781 0.0
C2486 C 0.13805 0.23604 0.85747 0.0
C2487 C 0.14743 0.2584 0.86417 0.0
C2488 C 0.14025 0.2689 0.88403 0.0
C2489 C 0.12289 0.25784 0.89589 0.0
C2490 C 0.19594 0.30006 0.84578 0.0
C2491 C 0.19335 0.29516 0.82173 0.0
C2492 C 0.18129 0.28801 0.85958 0.0
C2493 C 0.16329 0.27113 0.84963 0.0
C2494 C 0.16003 0.26694 0.82552 0.0
C2495 C 0.17501 0.27865 0.81176 0.0
H2496 H 0.59827 0.7399 0.98387 0.0
H2497 H 0.56514 0.70684 0.91925 0.0
H2498 H 0.59629 0.70422 1.00027 0.0
H2499 H 0.56249 0.67111 0.93564 0.0
H2500 H 0.57415 0.60457 0.96517 0.0
H2501 H 0.57625 0.64011 0.94823 0.0
H2502 H 0.57821 0.67408 0.01594 0.0
H2503 H 0.57673 0.63877 0.03266 0.0
C2504 C 0.59036 0.72508 0.97305 0.0
C2505 C 0.58188 0.72692 0.94996 0.0
C2506 C 0.58903 0.7042 0.98262 0.0
C2507 C 0.57908 0.68379 0.96974 0.0
C2508 C 0.57061 0.68576 0.94658 0.0
C2509 C 0.57199 0.70665 0.93702 0.0
C2510 C 0.5749 0.61956 0.97654 0.0
C2511 C 0.57514 0.61809 1.00059 0.0
C2512 C 0.57606 0.64034 0.96669 0.0
C2513 C 0.57754 0.66096 0.98029 0.0
C2514 C 0.57757 0.6593 1.00434 0.0
C2515 C 0.57646 0.63859 0.01413 0.0
H2516 H 0.13595 0.84118 0.71896 0.0
H2517 H 0.15797 0.80705 0.65922 0.0
H2518 H 0.17416 0.83956 0.74034 0.0
H2519 H 0.19581 0.80493 0.68071 0.0
H2520 H 0.24936 0.78283 0.73543 0.0
H2521 H 0.21156 0.78577 0.71445 0.0
H2522 H 0.21852 0.8545 0.74073 0.0
H2523 H 0.2568 0.85172 0.76139 0.0
C2524 C 0.14888 0.83332 0.71033 0.0
C2525 C 0.14364 0.82431 0.68721 0.0
C2526 C 0.17092 0.83245 0.72262 0.0
C2527 C 0.18832 0.82206 0.71242 0.0
C2528 C 0.18297 0.81294 0.68933 0.0
C2529 C 0.16119 0.81426 0.67691 0.0
C2530 C 0.24293 0.79863 0.73684 0.0
C2531 C 0.25643 0.81702 0.75028 0.0
C2532 C 0.22117 0.80034 0.72462 0.0
C2533 C 0.21172 0.82039 0.72571 0.0
C2534 C 0.225 0.83873 0.73946 0.0
C2535 C 0.2471 0.83715 0.75129 0.0
H2536 H 0.05768 0.37286 0.46407 0.0
H2537 H 0.12599 0.39848 0.4449 0.0
H2538 H 0.05466 0.40976 0.48294 0.0
H2539 H 0.12338 0.43491 0.46413 0.0
H2540 H 0.12001 0.49489 0.51769 0.0
H2541 H 0.12284 0.45725 0.5014 0.0
H2542 H 0.05016 0.4489 0.4737 0.0
H2543 H 0.04749 0.48675 0.48955 0.0
C2544 C 0.07239 0.38608 0.46438 0.0
C2545 C 0.09233 0.38211 0.45313 0.0
C2546 C 0.07054 0.40754 0.47501 0.0
C2547 C 0.08876 0.4259 0.47533 0.0
C2548 C 0.10894 0.42159 0.4647 0.0
C2549 C 0.1105 0.40041 0.45362 0.0
C2550 C 0.10456 0.48517 0.50808 0.0
C2551 C 0.08354 0.49448 0.50506 0.0
C2552 C 0.1062 0.46334 0.49859 0.0
C2553 C 0.08675 0.44941 0.48602 0.0
C2554 C 0.06561 0.45861 0.48331 0.0
C2555 C 0.06412 0.48063 0.49237 0.0
H2556 H 0.49334 0.33805 0.1866 0.0
H2557 H 0.49815 0.27284 0.20787 0.0
H2558 H 0.4574 0.33876 0.20652 0.0
H2559 H 0.46265 0.27345 0.22732 0.0
H2560 H 0.38492 0.27087 0.24133 0.0
H2561 H 0.42031 0.27148 0.22111 0.0
H2562 H 0.44166 0.34048 0.24524 0.0
H2563 H 0.40619 0.33981 0.26573 0.0
C2564 C 0.48678 0.3238 0.19531 0.0
C2565 C 0.49904 0.30538 0.19535 0.0
C2566 C 0.46612 0.32424 0.20698 0.0
C2567 C 0.45664 0.30611 0.21874 0.0
C2568 C 0.46884 0.2877 0.21843 0.0
C2569 C 0.48953 0.28742 0.20721 0.0
C2570 C 0.39716 0.28621 0.24258 0.0
C2571 C 0.39238 0.30522 0.2556 0.0
C2572 C 0.4177 0.28657 0.23088 0.0
C2573 C 0.43432 0.30605 0.23126 0.0
C2574 C 0.42947 0.32514 0.24416 0.0
C2575 C 0.40907 0.32468 0.25621 0.0
H2576 H 0.64587 0.54737 0.36025 0.0
H2577 H 0.70956 0.56032 0.40697 0.0
H2578 H 0.62257 0.54254 0.39243 0.0
H2579 H 0.68592 0.55622 0.43958 0.0
H2580 H 0.63476 0.52574 0.48949 0.0
H2581 H 0.66012 0.52924 0.45818 0.0
H2582 H 0.61155 0.56593 0.42287 0.0
H2583 H 0.586 0.56176 0.4535 0.0
C2584 C 0.6549 0.54937 0.37746 0.0
C2585 C 0.67952 0.55443 0.38113 0.0
C2586 C 0.64151 0.54669 0.39592 0.0
C2587 C 0.65239 0.54933 0.41855 0.0
C2588 C 0.67708 0.55397 0.42229 0.0
C2589 C 0.69058 0.55642 0.40368 0.0
C2590 C 0.62955 0.53449 0.47497 0.0
C2591 C 0.6083 0.54324 0.47374 0.0
C2592 C 0.64412 0.53661 0.45716 0.0
C2593 C 0.6377 0.54767 0.438 0.0
C2594 C 0.6167 0.55684 0.43714 0.0
C2595 C 0.60208 0.5545 0.45473 0.0
H2596 H 0.37385 0.88819 0.12641 0.0
H2597 H 0.33342 0.82808 0.09145 0.0
H2598 H 0.37392 0.87123 0.16267 0.0
H2599 H 0.3339 0.81093 0.12772 0.0
H2600 H 0.30853 0.80378 0.19973 0.0
H2601 H 0.31423 0.81675 0.16224 0.0
H2602 H 0.38685 0.84251 0.18549 0.0
H2603 H 0.38104 0.82976 0.22346 0.0
C2604 C 0.3654 0.87117 0.12636 0.0
C2605 C 0.35344 0.85955 0.10605 0.0
C2606 C 0.36554 0.86141 0.14717 0.0
C2607 C 0.35371 0.8398 0.14818 0.0
C2608 C 0.34284 0.82776 0.12761 0.0
C2609 C 0.34271 0.83752 0.10679 0.0
C2610 C 0.3258 0.81207 0.19691 0.0
C2611 C 0.34431 0.81579 0.21471 0.0
C2612 C 0.32912 0.81935 0.17526 0.0
C2613 C 0.35103 0.8306 0.17078 0.0
C2614 C 0.36971 0.83401 0.18843 0.0
C2615 C 0.36641 0.82661 0.21015 0.0
H2616 H 0.0467 0.62862 0.87854 0.0
H2617 H 0.11643 0.61891 0.8623 0.0
H2618 H 0.05914 0.62904 0.91923 0.0
H2619 H 0.12904 0.61993 0.90319 0.0
H2620 H 0.11546 0.57005 0.95955 0.0
H2621 H 0.11613 0.58852 0.9245 0.0
H2622 H 0.08313 0.64079 0.95614 0.0
H2623 H 0.08231 0.62194 0.99155 0.0
C2624 C 0.06497 0.62752 0.88366 0.0
C2625 C 0.08035 0.62291 0.86716 0.0
C2626 C 0.07216 0.6279 0.90709 0.0
C2627 C 0.0949 0.62385 0.91438 0.0
C2628 C 0.11122 0.62251 0.89802 0.0
C2629 C 0.10399 0.62197 0.87459 0.0
C2630 C 0.10884 0.58575 0.95925 0.0
C2631 C 0.09847 0.59437 0.97809 0.0
C2632 C 0.10948 0.59653 0.93921 0.0
C2633 C 0.09958 0.61612 0.93747 0.0
C2634 C 0.09076 0.62565 0.95695 0.0
C2635 C 0.09035 0.61491 0.9772 0.0
H2636 H 0.36478 0.24585 0.5946 0.0
H2637 H 0.31971 0.19012 0.61579 0.0
H2638 H 0.3633 0.26647 0.63228 0.0
H2639 H 0.31801 0.21055 0.65282 0.0
H2640 H 0.29974 0.26042 0.70893 0.0
H2641 H 0.30187 0.24193 0.67077 0.0
H2642 H 0.37603 0.267 0.67498 0.0
H2643 H 0.37395 0.28537 0.71343 0.0
C2644 C 0.35444 0.23799 0.60711 0.0
C2645 C 0.34237 0.21615 0.60179 0.0
C2646 C 0.35369 0.2498 0.6289 0.0
C2647 C 0.34043 0.24038 0.64595 0.0
C2648 C 0.32821 0.21868 0.64036 0.0
C2649 C 0.32931 0.20682 0.61893 0.0
C2650 C 0.31657 0.26208 0.70184 0.0
C2651 C 0.33666 0.27448 0.71469 0.0
C2652 C 0.31783 0.25131 0.6798 0.0
C2653 C 0.33916 0.25274 0.6694 0.0
C2654 C 0.3592 0.2655 0.68207 0.0
C2655 C 0.35803 0.27598 0.70434 0.0
H2656 H 0.75118 0.56484 0.25388 0.0
H2657 H 0.69401 0.5175 0.27176 0.0
H2658 H 0.72711 0.57082 0.21909 0.0
H2659 H 0.67013 0.52348 0.23712 0.0
H2660 H 0.62638 0.57122 0.20167 0.0
H2661 H 0.65317 0.55876 0.23054 0.0
H2662 H 0.70372 0.5536 0.18087 0.0
H2663 H 0.67661 0.56556 0.15161 0.0
C2664 C 0.73382 0.55516 0.24999 0.0
C2665 C 0.7243 0.54099 0.2657 0.0
C2666 C 0.72004 0.55863 0.23013 0.0
C2667 C 0.69661 0.54799 0.2258 0.0
C2668 C 0.68797 0.53225 0.24037 0.0
C2669 C 0.70171 0.52872 0.26008 0.0
C2670 C 0.64304 0.56716 0.19677 0.0
C2671 C 0.6493 0.56933 0.17431 0.0
C2672 C 0.65838 0.56001 0.21329 0.0
C2673 C 0.68038 0.55498 0.20781 0.0
C2674 C 0.68686 0.55741 0.1855 0.0
C2675 C 0.6714 0.56439 0.16885 0.0
H2676 H 0.3495 0.85685 0.97273 0.0
H2677 H 0.28836 0.88749 0.9546 0.0
H2678 H 0.3471 0.83973 0.93307 0.0
H2679 H 0.28571 0.87004 0.91527 0.0
H2680 H 0.28046 0.81942 0.85022 0.0
H2681 H 0.27995 0.83053 0.89142 0.0
H2682 H 0.353 0.85981 0.89524 0.0
H2683 H 0.35348 0.84928 0.85432 0.0
C2684 C 0.33527 0.8595 0.96045 0.0
C2685 C 0.31923 0.87362 0.96671 0.0
C2686 C 0.33395 0.84981 0.93777 0.0
C2687 C 0.31624 0.85364 0.92113 0.0
C2688 C 0.29943 0.86671 0.92776 0.0
C2689 C 0.30105 0.87677 0.95024 0.0
C2690 C 0.29636 0.82824 0.85988 0.0
C2691 C 0.31693 0.83362 0.84896 0.0
C2692 C 0.29608 0.83455 0.88342 0.0
C2693 C 0.31651 0.84583 0.89651 0.0
C2694 C 0.33711 0.85086 0.88564 0.0
C2695 C 0.33727 0.84502 0.86212 0.0
H2696 H 0.07587 0.58567 0.7486 0.0
H2697 H 1.00465 0.55154 0.73222 0.0
H2698 H 0.09006 0.55783 0.72362 0.0
H2699 H 1.01897 0.52344 0.7075 0.0
H2700 H 0.05592 0.50808 0.64003 0.0
H2701 H 0.03588 0.52274 0.67081 0.0
H2702 H 0.09516 0.51812 0.71955 0.0
H2703 H 0.11549 0.50298 0.68844 0.0
C2704 C 0.06324 0.57226 0.73963 0.0
C2705 C 0.03914 0.57091 0.74227 0.0
C2706 C 0.07142 0.55606 0.72566 0.0
C2707 C 0.05567 0.53817 0.71398 0.0
C2708 C 0.03152 0.53695 0.71639 0.0
C2709 C 1.02333 0.55316 0.73039 0.0
C2710 C 0.06437 0.50894 0.65738 0.0
C2711 C 0.08782 0.50513 0.66158 0.0
C2712 C 0.0528 0.51759 0.67514 0.0
C2713 C 0.06438 0.52245 0.6974 0.0
C2714 C 0.0862 0.51525 0.70231 0.0
C2715 C 0.09776 0.50644 0.68453 0.0
H2716 H 0.34987 0.19194 0.43232 0.0
H2717 H 0.33654 0.25161 0.46971 0.0
H2718 H 0.34886 0.2101 0.39671 0.0
H2719 H 0.33458 0.2697 0.43402 0.0
H2720 H 0.34788 0.30485 0.36887 0.0
H2721 H 0.35084 0.28696 0.40459 0.0
H2722 H 0.32944 0.22297 0.36615 0.0
H2723 H 0.32745 0.24092 0.3305 0.0
C2724 C 0.34658 0.20897 0.43303 0.0
C2725 C 0.34335 0.22009 0.45434 0.0
C2726 C 0.34578 0.21952 0.41229 0.0
C2727 C 0.34153 0.24175 0.41169 0.0
C2728 C 0.33831 0.25284 0.43314 0.0
C2729 C 0.33927 0.2423 0.45391 0.0
C2730 C 0.34396 0.28693 0.36792 0.0
C2731 C 0.33752 0.27458 0.34629 0.0
C2732 C 0.34544 0.27649 0.38872 0.0
C2733 C 0.34035 0.25312 0.38905 0.0
C2734 C 0.33399 0.24083 0.36729 0.0
C2735 C 0.33269 0.25127 0.3465 0.0
H2736 H 0.34143 0.62145 0.53578 0.0
H2737 H 0.37304 0.67905 0.50488 0.0
H2738 H 0.37036 0.60033 0.52115 0.0
H2739 H 0.40241 0.65758 0.49037 0.0
H2740 H 0.46389 0.61186 0.49905 0.0
H2741 H 0.43606 0.63718 0.50825 0.0
H2742 H 0.3783 0.58671 0.47996 0.0
H2743 H 0.40615 0.56141 0.47086 0.0
C2744 C 0.35467 0.62971 0.52604 0.0
C2745 C 0.35481 0.65194 0.52138 0.0
C2746 C 0.37109 0.6175 0.51747 0.0
C2747 C 0.38822 0.62724 0.50427 0.0
C2748 C 0.38917 0.64971 0.50038 0.0
C2749 C 0.37245 0.66195 0.50874 0.0
C2750 C 0.44525 0.60642 0.49444 0.0
C2751 C 0.43703 0.58468 0.48454 0.0
C2752 C 0.42941 0.6209 0.49956 0.0
C2753 C 0.40512 0.61371 0.49507 0.0
C2754 C 0.397 0.59248 0.4838 0.0
C2755 C 0.41286 0.5781 0.47846 0.0
H2756 H 0.8806 0.99105 0.49772 0.0
H2757 H 0.89727 0.96092 0.56006 0.0
H2758 H 0.92096 1.00891 0.49893 0.0
H2759 H 0.93848 0.97899 0.56117 0.0
H2760 H 1.00494 0.03442 0.56745 0.0
H2761 H 0.96499 1.01453 0.56733 0.0
H2762 H 0.96001 1.00332 0.49329 0.0
H2763 H 0.99984 0.02338 0.49341 0.0
C2764 C 0.89287 0.98807 0.51178 0.0
C2765 C 0.88518 0.97433 0.52883 0.0
C2766 C 0.91637 0.99833 0.51234 0.0
C2767 C 0.93351 0.99553 0.53004 0.0
C2768 C 0.92597 0.98181 0.54725 0.0
C2769 C 0.90225 0.97127 0.54657 0.0
C2770 C 0.99536 0.02782 0.55106 0.0
C2771 C 1.0059 0.03091 0.5304 0.0
C2772 C 0.97234 1.01613 0.55104 0.0
C2773 C 0.95878 1.00716 0.53033 0.0
C2774 C 0.96944 1.01015 0.50967 0.0
C2775 C 0.9925 0.02171 0.50971 0.0
H2776 H 0.8418 0.06448 0.24833 0.0
H2777 H 0.89972 0.07764 0.30188 0.0
H2778 H 0.82509 0.09569 0.26484 0.0
H2779 H 0.88252 0.10842 0.319 0.0
H2780 H 0.8679 0.18048 0.31347 0.0
H2781 H 0.88033 0.14444 0.30675 0.0
H2782 H 0.80752 0.11347 0.29534 0.0
H2783 H 0.7951 0.14981 0.30078 0.0
C2784 C 0.85058 0.07365 0.26403 0.0
C2785 C 0.87225 0.06891 0.27361 0.0
C2786 C 0.84093 0.09148 0.2736 0.0
C2787 C 0.85266 0.10474 0.29307 0.0
C2788 C 0.87335 0.09882 0.3037 0.0
C2789 C 0.88314 0.08114 0.29397 0.0
C2790 C 0.85455 0.16597 0.30961 0.0
C2791 C 0.83055 0.16802 0.30729 0.0
C2792 C 0.86165 0.14523 0.3061 0.0
C2793 C 0.8449 0.12606 0.3004 0.0
C2794 C 0.82085 0.12797 0.29942 0.0
C2795 C 0.81374 0.14876 0.30277 0.0
H2796 H 0.7537 0.13935 0.99829 0.0
H2797 H 0.71106 0.19054 0.01241 0.0
H2798 H 0.71857 0.11161 0.99232 0.0
H2799 H 0.67566 0.16244 1.00661 0.0
H2800 H 0.61496 0.10589 0.98353 0.0
H2801 H 0.64964 0.13267 0.97803 0.0
H2802 H 0.69299 0.09798 0.02202 0.0
H2803 H 0.65864 0.07158 0.02752 0.0
C2804 C 0.73678 0.14472 0.99992 0.0
C2805 C 0.73515 0.16707 1.00623 0.0
C2806 C 0.71668 0.12881 0.99644 0.0
C2807 C 0.69446 0.13486 0.99919 0.0
C2808 C 0.69259 0.15738 1.00421 0.0
C2809 C 0.71282 0.17341 1.00772 0.0
C2810 C 0.63207 0.10369 0.9914 0.0
C2811 C 0.63425 0.08672 1.0059 0.0
C2812 C 0.65179 0.11911 0.98847 0.0
C2813 C 0.67393 0.11741 0.99967 0.0
C2814 C 0.67621 0.09959 0.01299 0.0
C2815 C 0.65656 0.08449 0.01618 0.0
H2816 H 0.17609 0.43393 0.28898 0.0
H2817 H 0.21798 0.49715 0.2822 0.0
H2818 H 0.20836 0.42392 0.31395 0.0
H2819 H 0.24974 0.48757 0.30771 0.0
H2820 H 0.30954 0.4452 0.31584 0.0
H2821 H 0.27676 0.46214 0.30161 0.0
H2822 H 0.23397 0.43059 0.35032 0.0
H2823 H 0.26739 0.41352 0.36508 0.0
C2824 C 0.19203 0.44579 0.29312 0.0
C2825 C 0.19473 0.46609 0.28326 0.0
C2826 C 0.21042 0.44018 0.30762 0.0
C2827 C 0.23172 0.45489 0.31267 0.0
C2828 C 0.23376 0.4757 0.30382 0.0
C2829 C 0.21556 0.48117 0.28916 0.0
C2830 C 0.29359 0.4425 0.32436 0.0
C2831 C 0.29124 0.42782 0.34164 0.0
C2832 C 0.27459 0.45221 0.31601 0.0
C2833 C 0.25262 0.44755 0.32464 0.0
C2834 C 0.25059 0.43418 0.34305 0.0
C2835 C 0.26975 0.42447 0.35154 0.0
H2836 H 0.26101 0.49059 0.05604 0.0
H2837 H 0.21984 0.4315 0.02049 0.0
H2838 H 0.22659 0.50937 0.05399 0.0
H2839 H 0.18551 0.45051 0.01699 0.0
H2840 H 0.12016 0.4842 0.02491 0.0
H2841 H 0.15412 0.46467 0.02837 0.0
H2842 H 0.2003 0.52765 0.03701 0.0
H2843 H 0.16625 0.54684 0.03494 0.0
C2844 C 0.2446 0.48158 0.04753 0.0
C2845 C 0.24355 0.45934 0.0385 0.0
C2846 C 0.22456 0.49253 0.04609 0.0
C2847 C 0.20246 0.48196 0.03508 0.0
C2848 C 0.20157 0.45961 0.02599 0.0
C2849 C 0.22157 0.44854 0.02784 0.0
C2850 C 0.13758 0.4939 0.02756 0.0
C2851 C 0.1401 0.5173 0.02964 0.0
C2852 C 0.15741 0.48259 0.02944 0.0
C2853 C 0.1808 0.49412 0.03309 0.0
C2854 C 0.1831 0.51762 0.03481 0.0
C2855 C 0.16329 0.52887 0.03338 0.0
H2856 H 0.85194 0.96568 0.21063 0.0
H2857 H 0.91076 0.9396 0.18328 0.0
H2858 H 0.83475 0.92843 0.21757 0.0
H2859 H 0.89335 0.90228 0.19013 0.0
H2860 H 0.8816 0.86008 0.25326 0.0
H2861 H 0.89235 0.89118 0.2308 0.0
H2862 H 0.81946 0.88836 0.20488 0.0
H2863 H 0.80857 0.85727 0.22744 0.0
C2864 C 0.86074 0.95192 0.20524 0.0
C2865 C 0.88309 0.95565 0.19715 0.0
C2866 C 0.85083 0.93054 0.20917 0.0
C2867 C 0.86314 0.91266 0.20501 0.0
C2868 C 0.88384 0.91596 0.19395 0.0
C2869 C 0.89369 0.93732 0.18989 0.0
C2870 C 0.86788 0.86601 0.2427 0.0
C2871 C 0.84424 0.85641 0.24232 0.0
C2872 C 0.87407 0.88358 0.22956 0.0
C2873 C 0.85672 0.89198 0.21592 0.0
C2874 C 0.83314 0.88212 0.21519 0.0
C2875 C 0.82696 0.86441 0.22818 0.0
H2876 H 0.68051 0.04332 0.73717 0.0
H2877 H 0.61748 0.06402 0.70604 0.0
H2878 H 0.69999 0.08146 0.74167 0.0
H2879 H 0.63702 0.10263 0.7111 0.0
H2880 H 0.69239 0.16488 0.70265 0.0
H2881 H 0.66884 0.12803 0.69796 0.0
H2882 H 0.69812 0.11513 0.76511 0.0
H2883 H 0.72253 0.15129 0.76926 0.0
C2884 C 0.67075 0.05604 0.73132 0.0
C2885 C 0.64736 0.05063 0.7214 0.0
C2886 C 0.68189 0.07798 0.7341 0.0
C2887 C 0.66991 0.09516 0.72718 0.0
C2888 C 0.64671 0.08976 0.71662 0.0
C2889 C 0.63554 0.06766 0.71372 0.0
C2890 C 0.69372 0.15418 0.71645 0.0
C2891 C 0.70961 0.16094 0.7362 0.0
C2892 C 0.68005 0.13315 0.71384 0.0
C2893 C 0.68194 0.11849 0.73097 0.0
C2894 C 0.69667 0.12584 0.75134 0.0
C2895 C 0.71041 0.14675 0.75389 0.0
loop_
_geom_bond_atom_site_label_1
_geom_bond_atom_site_label_2
_geom_bond_distance
_geom_bond_site_symmetry_2
_ccdc_geom_bond_type
C0 O1 1.306 . S
C0 O3 1.160 . S
O1 C0 1.306 . S
O1 Cd2 2.228 . S
Cd2 O1 2.228 . S
Cd2 O6 2.273 . S
Cd2 O10 2.277 . S
O3 C0 1.160 . S
O3 Cd4 2.203 . S
Cd4 O3 2.203 . S
Cd4 O6 2.411 . S
Cd4 O7 2.333 . S
Cd4 O8 2.352 . S
Cd4 O12 2.277 . S
Cd4 O13 2.356 . S
C5 O10 1.209 . S
C5 O12 1.226 . S
O6 Cd2 2.273 . S
O6 Cd4 2.411 . S
O6 C9 1.320 . S
O7 Cd4 2.333 . S
O7 C9 1.214 . S
O8 Cd4 2.352 . S
O8 C11 1.258 . S
C9 O6 1.320 . S
C9 O7 1.214 . S
O10 Cd2 2.277 . S
O10 C5 1.209 . S
C11 O8 1.258 . S
C11 O13 1.282 . S
O12 Cd4 2.277 . S
O12 C5 1.226 . S
O13 Cd4 2.356 . S
O13 C11 1.282 . S
C14 O15 1.306 . S
C14 O17 1.160 . S
O15 C14 1.306 . S
O15 Cd16 2.228 . S
Cd16 O15 2.228 . S
Cd16 O20 2.273 . S
Cd16 O24 2.277 . S
O17 C14 1.160 . S
O17 Cd18 2.203 . S
Cd18 O17 2.203 . S
Cd18 O20 2.411 . S
Cd18 O21 2.333 . S
Cd18 O22 2.352 . S
Cd18 O26 2.277 . S
Cd18 O27 2.356 . S
C19 O24 1.209 . S
C19 O26 1.226 . S
O20 Cd16 2.273 . S
O20 Cd18 2.411 . S
O20 C23 1.320 . S
O21 Cd18 2.333 . S
O21 C23 1.214 . S
O22 Cd18 2.352 . S
O22 C25 1.258 . S
C23 O20 1.320 . S
C23 O21 1.214 . S
O24 Cd16 2.277 . S
O24 C19 1.209 . S
C25 O22 1.258 . S
C25 O27 1.282 . S
O26 Cd18 2.277 . S
O26 C19 1.226 . S
O27 Cd18 2.356 . S
O27 C25 1.282 . S
C28 O29 1.306 . S
C28 O31 1.160 . S
O29 C28 1.306 . S
O29 Cd30 2.228 . S
Cd30 O29 2.228 . S
Cd30 O34 2.273 . S
Cd30 O38 2.277 . S
O31 C28 1.160 . S
O31 Cd32 2.203 . S
Cd32 O31 2.203 . S
Cd32 O34 2.411 . S
Cd32 O35 2.333 . S
Cd32 O36 2.352 . S
Cd32 O40 2.277 . S
Cd32 O41 2.356 . S
C33 O38 1.209 . S
C33 O40 1.226 . S
O34 Cd30 2.273 . S
O34 Cd32 2.411 . S
O34 C37 1.320 . S
O35 Cd32 2.333 . S
O35 C37 1.214 . S
O36 Cd32 2.352 . S
O36 C39 1.258 . S
C37 O34 1.320 . S
C37 O35 1.214 . S
O38 Cd30 2.277 . S
O38 C33 1.209 . S
C39 O36 1.258 . S
C39 O41 1.282 . S
O40 Cd32 2.277 . S
O40 C33 1.226 . S
O41 Cd32 2.356 . S
O41 C39 1.282 . S
C42 O43 1.306 . S
C42 O45 1.160 . S
O43 C42 1.306 . S
O43 Cd44 2.228 . S
Cd44 O43 2.228 . S
Cd44 O48 2.273 . S
Cd44 O52 2.277 . S
O45 C42 1.160 . S
O45 Cd46 2.203 . S
Cd46 O45 2.203 . S
Cd46 O48 2.411 . S
Cd46 O49 2.333 . S
Cd46 O50 2.352 . S
Cd46 O54 2.277 . S
Cd46 O55 2.356 . S
C47 O52 1.209 . S
C47 O54 1.226 . S
O48 Cd44 2.273 . S
O48 Cd46 2.411 . S
O48 C51 1.320 . S
O49 Cd46 2.333 . S
O49 C51 1.214 . S
O50 Cd46 2.352 . S
O50 C53 1.258 . S
C51 O48 1.320 . S
C51 O49 1.214 . S
O52 Cd44 2.277 . S
O52 C47 1.209 . S
C53 O50 1.258 . S
C53 O55 1.282 . S
O54 Cd46 2.277 . S
O54 C47 1.226 . S
O55 Cd46 2.356 . S
O55 C53 1.282 . S
C56 O57 1.306 . S
C56 O59 1.160 . S
O57 C56 1.306 . S
O57 Cd58 2.228 . S
Cd58 O57 2.228 . S
Cd58 O62 2.273 . S
Cd58 O66 2.277 . S
O59 C56 1.160 . S
O59 Cd60 2.203 . S
Cd60 O59 2.203 . S
Cd60 O62 2.411 . S
Cd60 O63 2.333 . S
Cd60 O64 2.352 . S
Cd60 O68 2.277 . S
Cd60 O69 2.356 . S
C61 O66 1.209 . S
C61 O68 1.226 . S
O62 Cd58 2.273 . S
O62 Cd60 2.411 . S
O62 C65 1.320 . S
O63 Cd60 2.333 . S
O63 C65 1.214 . S
O64 Cd60 2.352 . S
O64 C67 1.258 . S
C65 O62 1.320 . S
C65 O63 1.214 . S
O66 Cd58 2.277 . S
O66 C61 1.209 . S
C67 O64 1.258 . S
C67 O69 1.282 . S
O68 Cd60 2.277 . S
O68 C61 1.226 . S
O69 Cd60 2.356 . S
O69 C67 1.282 . S
C70 O71 1.306 . S
C70 O73 1.160 . S
O71 C70 1.306 . S
O71 Cd72 2.228 . S
Cd72 O71 2.228 . S
Cd72 O76 2.273 . S
Cd72 O80 2.277 . S
O73 C70 1.160 . S
O73 Cd74 2.203 . S
Cd74 O73 2.203 . S
Cd74 O76 2.411 . S
Cd74 O77 2.333 . S
Cd74 O78 2.352 . S
Cd74 O82 2.277 . S
Cd74 O83 2.356 . S
C75 O80 1.209 . S
C75 O82 1.226 . S
O76 Cd72 2.273 . S
O76 Cd74 2.411 . S
O76 C79 1.320 . S
O77 Cd74 2.333 . S
O77 C79 1.214 . S
O78 Cd74 2.352 . S
O78 C81 1.258 . S
C79 O76 1.320 . S
C79 O77 1.214 . S
O80 Cd72 2.277 . S
O80 C75 1.209 . S
C81 O78 1.258 . S
C81 O83 1.282 . S
O82 Cd74 2.277 . S
O82 C75 1.226 . S
O83 Cd74 2.356 . S
O83 C81 1.282 . S
C84 O85 1.306 . S
C84 O87 1.160 . S
O85 C84 1.306 . S
O85 Cd86 2.228 . S
Cd86 O85 2.228 . S
Cd86 O90 2.273 . S
Cd86 O94 2.277 . S
O87 C84 1.160 . S
O87 Cd88 2.203 . S
Cd88 O87 2.203 . S
Cd88 O90 2.411 . S
Cd88 O91 2.333 . S
Cd88 O92 2.352 . S
Cd88 O96 2.277 . S
Cd88 O97 2.356 . S
C89 O94 1.209 . S
C89 O96 1.226 . S
O90 Cd86 2.273 . S
O90 Cd88 2.411 . S
O90 C93 1.320 . S
O91 Cd88 2.333 . S
O91 C93 1.214 . S
O92 Cd88 2.352 . S
O92 C95 1.258 . S
C93 O90 1.320 . S
C93 O91 1.214 . S
O94 Cd86 2.277 . S
O94 C89 1.209 . S
C95 O92 1.258 . S
C95 O97 1.282 . S
O96 Cd88 2.277 . S
O96 C89 1.226 . S
O97 Cd88 2.356 . S
O97 C95 1.282 . S
C98 O99 1.306 . S
C98 O101 1.160 . S
O99 C98 1.306 . S
O99 Cd100 2.228 1_655 S
Cd100 O99 2.228 1_455 S
Cd100 O104 2.273 . S
Cd100 O108 2.277 . S
O101 C98 1.160 . S
O101 Cd102 2.203 1_655 S
Cd102 O101 2.203 1_455 S
Cd102 O104 2.411 . S
Cd102 O105 2.333 . S
Cd102 O106 2.352 1_455 S
Cd102 O110 2.277 . S
Cd102 O111 2.356 . S
C103 O108 1.209 . S
C103 O110 1.226 . S
O104 Cd100 2.273 . S
O104 Cd102 2.411 . S
O104 C107 1.320 . S
O105 Cd102 2.333 . S
O105 C107 1.214 . S
O106 Cd102 2.352 1_655 S
O106 C109 1.263 . S
C107 O104 1.320 . S
C107 O105 1.214 . S
O108 Cd100 2.277 . S
O108 C103 1.209 . S
C109 O106 1.263 . S
C109 O111 1.281 1_655 S
O110 Cd102 2.277 . S
O110 C103 1.226 . S
O111 Cd102 2.356 . S
O111 C109 1.281 1_455 S
C112 O113 1.306 . S
C112 O115 1.160 . S
O113 C112 1.306 . S
O113 Cd114 2.228 . S
Cd114 O113 2.228 . S
Cd114 O118 2.273 . S
Cd114 O122 2.277 . S
O115 C112 1.160 . S
O115 Cd116 2.203 . S
Cd116 O115 2.203 . S
Cd116 O118 2.411 . S
Cd116 O119 2.333 . S
Cd116 O120 2.352 . S
Cd116 O124 2.277 . S
Cd116 O125 2.356 . S
C117 O122 1.209 . S
C117 O124 1.226 . S
O118 Cd114 2.273 . S
O118 Cd116 2.411 . S
O118 C121 1.320 . S
O119 Cd116 2.333 . S
O119 C121 1.214 . S
O120 Cd116 2.352 . S
O120 C123 1.258 . S
C121 O118 1.320 . S
C121 O119 1.214 . S
O122 Cd114 2.277 . S
O122 C117 1.209 . S
C123 O120 1.258 . S
C123 O125 1.282 . S
O124 Cd116 2.277 . S
O124 C117 1.226 . S
O125 Cd116 2.356 . S
O125 C123 1.282 . S
C126 O127 1.306 . S
C126 O129 1.160 . S
O127 C126 1.306 . S
O127 Cd128 2.228 . S
Cd128 O127 2.228 . S
Cd128 O132 2.273 . S
Cd128 O136 2.277 . S
O129 C126 1.160 . S
O129 Cd130 2.203 . S
Cd130 O129 2.203 . S
Cd130 O132 2.411 . S
Cd130 O133 2.333 . S
Cd130 O134 2.352 . S
Cd130 O138 2.277 . S
Cd130 O139 2.356 . S
C131 O136 1.209 . S
C131 O138 1.226 . S
O132 Cd128 2.273 . S
O132 Cd130 2.411 . S
O132 C135 1.320 . S
O133 Cd130 2.333 . S
O133 C135 1.214 . S
O134 Cd130 2.352 . S
O134 C137 1.258 . S
C135 O132 1.320 . S
C135 O133 1.214 . S
O136 Cd128 2.277 . S
O136 C131 1.209 . S
C137 O134 1.258 . S
C137 O139 1.282 . S
O138 Cd130 2.277 . S
O138 C131 1.226 . S
O139 Cd130 2.356 . S
O139 C137 1.282 . S
C140 O141 1.306 . S
C140 O143 1.160 . S
O141 C140 1.306 . S
O141 Cd142 2.228 . S
Cd142 O141 2.228 . S
Cd142 O146 2.273 . S
Cd142 O150 2.277 . S
O143 C140 1.160 . S
O143 Cd144 2.203 . S
Cd144 O143 2.203 . S
Cd144 O146 2.411 . S
Cd144 O147 2.333 . S
Cd144 O148 2.352 . S
Cd144 O152 2.277 . S
Cd144 O153 2.356 . S
C145 O150 1.209 . S
C145 O152 1.226 . S
O146 Cd142 2.273 . S
O146 Cd144 2.411 . S
O146 C149 1.320 . S
O147 Cd144 2.333 . S
O147 C149 1.214 . S
O148 Cd144 2.352 . S
O148 C151 1.258 . S
C149 O146 1.320 . S
C149 O147 1.214 . S
O150 Cd142 2.277 . S
O150 C145 1.209 . S
C151 O148 1.258 . S
C151 O153 1.282 . S
O152 Cd144 2.277 . S
O152 C145 1.226 . S
O153 Cd144 2.356 . S
O153 C151 1.282 . S
C154 O155 1.306 . S
C154 O157 1.160 . S
O155 C154 1.306 . S
O155 Cd156 2.228 . S
Cd156 O155 2.228 . S
Cd156 O160 2.273 . S
Cd156 O164 2.277 . S
O157 C154 1.160 . S
O157 Cd158 2.203 . S
Cd158 O157 2.203 . S
Cd158 O160 2.411 . S
Cd158 O161 2.333 . S
Cd158 O162 2.352 . S
Cd158 O166 2.277 . S
Cd158 O167 2.356 . S
C159 O164 1.209 . S
C159 O166 1.226 . S
O160 Cd156 2.273 . S
O160 Cd158 2.411 . S
O160 C163 1.320 . S
O161 Cd158 2.333 . S
O161 C163 1.214 . S
O162 Cd158 2.352 . S
O162 C165 1.258 . S
C163 O160 1.320 . S
C163 O161 1.214 . S
O164 Cd156 2.277 . S
O164 C159 1.209 . S
C165 O162 1.258 . S
C165 O167 1.282 . S
O166 Cd158 2.277 . S
O166 C159 1.226 . S
O167 Cd158 2.356 . S
O167 C165 1.282 . S
C168 O169 1.306 . S
C168 O171 1.160 . S
O169 C168 1.306 . S
O169 Cd170 2.228 1_554 S
Cd170 O169 2.228 1_556 S
Cd170 O174 2.273 1_556 S
Cd170 O178 2.277 . S
O171 C168 1.160 . S
O171 Cd172 2.203 . S
Cd172 O171 2.203 . S
Cd172 O174 2.411 . S
Cd172 O175 2.333 . S
Cd172 O176 2.352 . S
Cd172 O180 2.277 . S
Cd172 O181 2.356 . S
C173 O178 1.209 . S
C173 O180 1.226 1_556 S
O174 Cd170 2.273 1_554 S
O174 Cd172 2.411 . S
O174 C177 1.320 . S
O175 Cd172 2.333 . S
O175 C177 1.214 . S
O176 Cd172 2.352 . S
O176 C179 1.258 . S
C177 O174 1.320 . S
C177 O175 1.214 . S
O178 Cd170 2.277 . S
O178 C173 1.209 . S
C179 O176 1.258 . S
C179 O181 1.282 . S
O180 Cd172 2.277 . S
O180 C173 1.226 1_554 S
O181 Cd172 2.356 . S
O181 C179 1.282 . S
C182 O183 1.306 . S
C182 O185 1.161 . S
O183 C182 1.306 . S
O183 Cd184 2.228 . S
Cd184 O183 2.228 . S
Cd184 O188 2.273 1_554 S
Cd184 O192 2.277 . S
O185 C182 1.161 . S
O185 Cd186 2.203 1_554 S
Cd186 O185 2.203 1_556 S
Cd186 O188 2.411 . S
Cd186 O189 2.333 . S
Cd186 O190 2.352 . S
Cd186 O194 2.277 1_556 S
Cd186 O195 2.356 . S
C187 O192 1.209 . S
C187 O194 1.226 . S
O188 Cd184 2.273 1_556 S
O188 Cd186 2.411 . S
O188 C191 1.320 . S
O189 Cd186 2.333 . S
O189 C191 1.214 . S
O190 Cd186 2.352 . S
O190 C193 1.258 . S
C191 O188 1.320 . S
C191 O189 1.214 . S
O192 Cd184 2.277 . S
O192 C187 1.209 . S
C193 O190 1.258 . S
C193 O195 1.282 . S
O194 Cd186 2.277 1_554 S
O194 C187 1.226 . S
O195 Cd186 2.356 . S
O195 C193 1.282 . S
C196 O197 1.306 . S
C196 O199 1.160 . S
O197 C196 1.306 . S
O197 Cd198 2.228 . S
Cd198 O197 2.228 . S
Cd198 O202 2.273 . S
Cd198 O206 2.277 . S
O199 C196 1.160 . S
O199 Cd200 2.203 . S
Cd200 O199 2.203 . S
Cd200 O202 2.411 . S
Cd200 O203 2.333 . S
Cd200 O204 2.352 . S
Cd200 O208 2.277 . S
Cd200 O209 2.356 . S
C201 O206 1.209 . S
C201 O208 1.226 . S
O202 Cd198 2.273 . S
O202 Cd200 2.411 . S
O202 C205 1.320 . S
O203 Cd200 2.333 . S
O203 C205 1.214 . S
O204 Cd200 2.352 . S
O204 C207 1.258 . S
C205 O202 1.320 . S
C205 O203 1.214 . S
O206 Cd198 2.277 . S
O206 C201 1.209 . S
C207 O204 1.258 . S
C207 O209 1.282 . S
O208 Cd200 2.277 . S
O208 C201 1.226 . S
O209 Cd200 2.356 . S
O209 C207 1.282 . S
C210 O211 1.306 . S
C210 O213 1.160 . S
O211 C210 1.306 . S
O211 Cd212 2.228 . S
Cd212 O211 2.228 . S
Cd212 O216 2.273 . S
Cd212 O220 2.277 . S
O213 C210 1.160 . S
O213 Cd214 2.203 . S
Cd214 O213 2.203 . S
Cd214 O216 2.411 . S
Cd214 O217 2.333 . S
Cd214 O218 2.352 . S
Cd214 O222 2.277 . S
Cd214 O223 2.356 . S
C215 O220 1.209 . S
C215 O222 1.226 . S
O216 Cd212 2.273 . S
O216 Cd214 2.411 . S
O216 C219 1.320 . S
O217 Cd214 2.333 . S
O217 C219 1.214 . S
O218 Cd214 2.352 . S
O218 C221 1.258 . S
C219 O216 1.320 . S
C219 O217 1.214 . S
O220 Cd212 2.277 . S
O220 C215 1.209 . S
C221 O218 1.258 . S
C221 O223 1.282 . S
O222 Cd214 2.277 . S
O222 C215 1.226 . S
O223 Cd214 2.356 . S
O223 C221 1.282 . S
C224 O225 1.306 1_545 S
C224 O227 1.160 . S
O225 C224 1.306 1_565 S
O225 Cd226 2.228 . S
Cd226 O225 2.228 . S
Cd226 O230 2.273 1_565 S
Cd226 O234 2.277 . S
O227 C224 1.160 . S
O227 Cd228 2.203 . S
Cd228 O227 2.203 . S
Cd228 O230 2.411 . S
Cd228 O231 2.333 . S
Cd228 O232 2.352 . S
Cd228 O236 2.277 1_545 S
Cd228 O237 2.356 . S
C229 O234 1.209 . S
C229 O236 1.226 . S
O230 Cd226 2.273 1_545 S
O230 Cd228 2.411 . S
O230 C233 1.320 . S
O231 Cd228 2.333 . S
O231 C233 1.214 . S
O232 Cd228 2.352 . S
O232 C235 1.258 . S
C233 O230 1.320 . S
C233 O231 1.214 . S
O234 Cd226 2.277 . S
O234 C229 1.209 . S
C235 O232 1.258 . S
C235 O237 1.282 . S
O236 Cd228 2.277 1_565 S
O236 C229 1.226 . S
O237 Cd228 2.356 . S
O237 C235 1.282 . S
C238 O239 1.306 . S
C238 O241 1.160 . S
O239 C238 1.306 . S
O239 Cd240 2.228 . S
Cd240 O239 2.228 . S
Cd240 O244 2.273 . S
Cd240 O248 2.277 . S
O241 C238 1.160 . S
O241 Cd242 2.203 . S
Cd242 O241 2.203 . S
Cd242 O244 2.411 . S
Cd242 O245 2.333 . S
Cd242 O246 2.352 . S
Cd242 O250 2.277 . S
Cd242 O251 2.356 . S
C243 O248 1.209 . S
C243 O250 1.226 . S
O244 Cd240 2.273 . S
O244 Cd242 2.411 . S
O244 C247 1.320 . S
O245 Cd242 2.333 . S
O245 C247 1.214 . S
O246 Cd242 2.352 . S
O246 C249 1.258 . S
C247 O244 1.320 . S
C247 O245 1.214 . S
O248 Cd240 2.277 . S
O248 C243 1.209 . S
C249 O246 1.258 . S
C249 O251 1.282 . S
O250 Cd242 2.277 . S
O250 C243 1.226 . S
O251 Cd242 2.356 . S
O251 C249 1.282 . S
C252 O253 1.306 . S
C252 O255 1.160 . S
O253 C252 1.306 . S
O253 Cd254 2.228 . S
Cd254 O253 2.228 . S
Cd254 O258 2.273 . S
Cd254 O262 2.277 . S
O255 C252 1.160 . S
O255 Cd256 2.203 . S
Cd256 O255 2.203 . S
Cd256 O258 2.411 . S
Cd256 O259 2.333 . S
Cd256 O260 2.352 . S
Cd256 O264 2.277 . S
Cd256 O265 2.356 . S
C257 O262 1.209 . S
C257 O264 1.226 . S
O258 Cd254 2.273 . S
O258 Cd256 2.411 . S
O258 C261 1.320 . S
O259 Cd256 2.333 . S
O259 C261 1.214 . S
O260 Cd256 2.352 . S
O260 C263 1.258 . S
C261 O258 1.320 . S
C261 O259 1.214 . S
O262 Cd254 2.277 . S
O262 C257 1.209 . S
C263 O260 1.258 . S
C263 O265 1.282 . S
O264 Cd256 2.277 . S
O264 C257 1.226 . S
O265 Cd256 2.356 . S
O265 C263 1.282 . S
C266 O267 1.306 . S
C266 O269 1.160 . S
O267 C266 1.306 . S
O267 Cd268 2.228 . S
Cd268 O267 2.228 . S
Cd268 O272 2.309 . S
Cd268 O276 2.277 . S
O269 C266 1.160 . S
O269 Cd270 2.203 . S
Cd270 O269 2.203 . S
Cd270 O272 2.403 . S
Cd270 O273 2.334 1_545 S
Cd270 O274 2.352 1_545 S
Cd270 O278 2.277 . S
Cd270 O279 2.356 1_545 S
C271 O276 1.209 . S
C271 O278 1.226 . S
O272 Cd268 2.309 . S
O272 Cd270 2.403 . S
O272 C275 1.316 1_545 S
O273 Cd270 2.334 1_565 S
O273 C275 1.212 . S
O274 Cd270 2.352 1_565 S
O274 C277 1.258 . S
C275 O272 1.316 1_565 S
C275 O273 1.212 . S
O276 Cd268 2.277 . S
O276 C271 1.209 . S
C277 O274 1.258 . S
C277 O279 1.282 . S
O278 Cd270 2.277 . S
O278 C271 1.226 . S
O279 Cd270 2.356 1_565 S
O279 C277 1.282 . S
C280 O281 1.306 . S
C280 O283 1.160 . S
O281 C280 1.306 . S
O281 Cd282 2.228 . S
Cd282 O281 2.228 . S
Cd282 O286 2.273 . S
Cd282 O290 2.277 . S
O283 C280 1.160 . S
O283 Cd284 2.203 . S
Cd284 O283 2.203 . S
Cd284 O286 2.411 . S
Cd284 O287 2.333 . S
Cd284 O288 2.352 1_554 S
Cd284 O292 2.277 . S
Cd284 O293 2.356 1_554 S
C285 O290 1.209 . S
C285 O292 1.226 . S
O286 Cd282 2.273 . S
O286 Cd284 2.411 . S
O286 C289 1.320 . S
O287 Cd284 2.333 . S
O287 C289 1.214 . S
O288 Cd284 2.352 1_556 S
O288 C291 1.258 . S
C289 O286 1.320 . S
C289 O287 1.214 . S
O290 Cd282 2.277 . S
O290 C285 1.209 . S
C291 O288 1.258 . S
C291 O293 1.282 . S
O292 Cd284 2.277 . S
O292 C285 1.226 . S
O293 Cd284 2.356 1_556 S
O293 C291 1.282 . S
C294 O295 1.306 . S
C294 O297 1.160 1_455 S
O295 C294 1.306 . S
O295 Cd296 2.228 . S
Cd296 O295 2.228 . S
Cd296 O300 2.273 . S
Cd296 O304 2.277 1_455 S
O297 C294 1.160 1_655 S
O297 Cd298 2.203 . S
Cd298 O297 2.203 . S
Cd298 O300 2.411 1_655 S
Cd298 O301 2.333 . S
Cd298 O302 2.352 . S
Cd298 O306 2.277 . S
Cd298 O307 2.356 . S
C299 O304 1.209 . S
C299 O306 1.226 . S
O300 Cd296 2.273 . S
O300 Cd298 2.411 1_455 S
O300 C303 1.320 . S
O301 Cd298 2.333 . S
O301 C303 1.214 1_655 S
O302 Cd298 2.352 . S
O302 C305 1.258 . S
C303 O300 1.320 . S
C303 O301 1.214 1_455 S
O304 Cd296 2.277 1_655 S
O304 C299 1.209 . S
C305 O302 1.258 . S
C305 O307 1.282 . S
O306 Cd298 2.277 . S
O306 C299 1.226 . S
O307 Cd298 2.356 . S
O307 C305 1.282 . S
C308 O309 1.306 . S
C308 O311 1.160 . S
O309 C308 1.306 . S
O309 Cd310 2.228 . S
Cd310 O309 2.228 . S
Cd310 O314 2.273 . S
Cd310 O318 2.277 . S
O311 C308 1.160 . S
O311 Cd312 2.203 . S
Cd312 O311 2.203 . S
Cd312 O314 2.411 . S
Cd312 O315 2.333 . S
Cd312 O316 2.352 . S
Cd312 O320 2.277 . S
Cd312 O321 2.356 . S
C313 O318 1.209 . S
C313 O320 1.226 . S
O314 Cd310 2.273 . S
O314 Cd312 2.411 . S
O314 C317 1.320 . S
O315 Cd312 2.333 . S
O315 C317 1.214 . S
O316 Cd312 2.352 . S
O316 C319 1.258 . S
C317 O314 1.320 . S
C317 O315 1.214 . S
O318 Cd310 2.277 . S
O318 C313 1.209 . S
C319 O316 1.258 . S
C319 O321 1.282 . S
O320 Cd312 2.277 . S
O320 C313 1.226 . S
O321 Cd312 2.356 . S
O321 C319 1.282 . S
C322 O323 1.306 . S
C322 O325 1.160 . S
O323 C322 1.306 . S
O323 Cd324 2.228 . S
Cd324 O323 2.228 . S
Cd324 O328 2.273 . S
Cd324 O332 2.277 . S
O325 C322 1.160 . S
O325 Cd326 2.203 . S
Cd326 O325 2.203 . S
Cd326 O328 2.411 . S
Cd326 O329 2.333 . S
Cd326 O330 2.352 . S
Cd326 O334 2.277 . S
Cd326 O335 2.356 . S
C327 O332 1.209 . S
C327 O334 1.226 . S
O328 Cd324 2.273 . S
O328 Cd326 2.411 . S
O328 C331 1.320 . S
O329 Cd326 2.333 . S
O329 C331 1.214 . S
O330 Cd326 2.352 . S
O330 C333 1.258 . S
C331 O328 1.320 . S
C331 O329 1.214 . S
O332 Cd324 2.277 . S
O332 C327 1.209 . S
C333 O330 1.258 . S
C333 O335 1.282 . S
O334 Cd326 2.277 . S
O334 C327 1.226 . S
O335 Cd326 2.356 . S
O335 C333 1.282 . S
Tb336 C346 2.825 1_454 S
Tb336 O347 2.347 . S
Tb336 O350 2.366 . S
Tb336 O355 2.418 1_554 S
Tb336 O356 2.384 1_545 S
Tb336 O359 2.479 1_454 S
Tb336 O360 2.471 1_455 S
Eu337 O348 2.418 . S
Eu337 O349 2.384 . S
Eu337 O352 2.479 . S
Eu337 O353 2.471 . S
Eu337 O354 2.347 . S
Eu337 O357 2.366 . S
Eu337 C367 2.825 . S
C338 O354 1.259 1_556 S
C338 O355 1.265 . S
C339 O356 1.255 . S
C339 O357 1.265 1_565 S
C340 C342 1.380 . S
C340 C343 1.374 1_556 S
C340 C346 1.507 . S
C341 C342 1.384 . S
C341 C345 1.387 . S
C341 H368 0.930 . S
C342 C340 1.380 . S
C342 C341 1.384 . S
C342 H369 0.931 . S
C343 C340 1.374 1_554 S
C343 C344 1.390 1_554 S
C343 H370 0.930 . S
C344 C343 1.390 1_556 S
C344 C345 1.391 . S
C344 H371 0.930 1_556 S
C345 C341 1.387 . S
C345 C344 1.391 . S
C346 Tb336 2.825 1_656 S
C346 C340 1.507 . S
C346 O359 1.238 . S
C346 O360 1.247 1_556 S
O347 Tb336 2.347 . S
O347 C351 1.259 . S
O348 Eu337 2.418 . S
O348 C351 1.265 . S
O349 Eu337 2.384 . S
O349 C358 1.255 . S
O350 Tb336 2.366 . S
O350 C358 1.265 . S
C351 O347 1.259 . S
C351 O348 1.265 . S
O352 Eu337 2.479 . S
O352 C367 1.238 . S
O353 Eu337 2.471 . S
O353 C367 1.247 . S
O354 Eu337 2.347 . S
O354 C338 1.259 1_554 S
O355 Tb336 2.418 1_556 S
O355 C338 1.265 . S
O356 Tb336 2.384 1_565 S
O356 C339 1.255 . S
O357 Eu337 2.366 . S
O357 C339 1.265 1_545 S
C358 O349 1.255 . S
C358 O350 1.265 . S
O359 Tb336 2.479 1_656 S
O359 C346 1.238 . S
O360 Tb336 2.471 1_655 S
O360 C346 1.247 1_554 S
C361 C364 1.380 . S
C361 C365 1.374 . S
C361 C367 1.507 . S
C362 C363 1.388 . S
C362 C366 1.391 1_545 S
C363 C362 1.388 . S
C363 C364 1.384 . S
C363 H372 0.930 . S
C364 C361 1.380 . S
C364 C363 1.384 . S
C364 H373 0.931 . S
C365 C361 1.374 . S
C365 C366 1.390 1_545 S
C365 H374 0.930 . S
C366 C362 1.391 1_565 S
C366 C365 1.390 1_565 S
C366 H375 0.930 . S
C367 Eu337 2.825 . S
C367 O352 1.238 . S
C367 O353 1.247 . S
C367 C361 1.507 . S
H368 C341 0.930 . S
H369 C342 0.931 . S
H370 C343 0.930 . S
H371 C344 0.930 1_554 S
H372 C363 0.930 . S
H373 C364 0.931 . S
H374 C365 0.930 . S
H375 C366 0.930 . S
Tb376 C386 2.825 . S
Tb376 O387 2.347 . S
Tb376 O390 2.366 . S
Tb376 O395 2.418 . S
Tb376 O396 2.384 . S
Tb376 O399 2.479 . S
Tb376 O400 2.471 . S
Eu377 O388 2.418 . S
Eu377 O389 2.384 . S
Eu377 O392 2.479 . S
Eu377 O393 2.471 . S
Eu377 O394 2.347 . S
Eu377 O397 2.366 . S
Eu377 C407 2.825 . S
C378 O394 1.259 . S
C378 O395 1.265 . S
C379 O396 1.255 . S
C379 O397 1.265 . S
C380 C382 1.380 . S
C380 C383 1.374 . S
C380 C386 1.507 . S
C381 C382 1.384 . S
C381 C385 1.387 . S
C381 H408 0.930 . S
C382 C380 1.380 . S
C382 C381 1.384 . S
C382 H409 0.931 . S
C383 C380 1.374 . S
C383 C384 1.390 . S
C383 H410 0.930 . S
C384 C383 1.390 . S
C384 C385 1.391 . S
C384 H411 0.930 . S
C385 C381 1.387 . S
C385 C384 1.391 . S
C386 Tb376 2.825 . S
C386 C380 1.507 . S
C386 O399 1.238 . S
C386 O400 1.247 . S
O387 Tb376 2.347 . S
O387 C391 1.259 . S
O388 Eu377 2.418 . S
O388 C391 1.265 . S
O389 Eu377 2.384 . S
O389 C398 1.255 . S
O390 Tb376 2.366 . S
O390 C398 1.265 . S
C391 O387 1.259 . S
C391 O388 1.265 . S
O392 Eu377 2.479 . S
O392 C407 1.238 . S
O393 Eu377 2.471 . S
O393 C407 1.247 . S
O394 Eu377 2.347 . S
O394 C378 1.259 . S
O395 Tb376 2.418 . S
O395 C378 1.265 . S
O396 Tb376 2.384 . S
O396 C379 1.255 . S
O397 Eu377 2.366 . S
O397 C379 1.265 . S
C398 O389 1.255 . S
C398 O390 1.265 . S
O399 Tb376 2.479 . S
O399 C386 1.238 . S
O400 Tb376 2.471 . S
O400 C386 1.247 . S
C401 C404 1.380 . S
C401 C405 1.374 . S
C401 C407 1.507 . S
C402 C403 1.387 . S
C402 C406 1.391 . S
C403 C402 1.387 . S
C403 C404 1.384 . S
C403 H412 0.930 . S
C404 C401 1.380 . S
C404 C403 1.384 . S
C404 H413 0.931 . S
C405 C401 1.374 . S
C405 C406 1.390 . S
C405 H414 0.930 . S
C406 C402 1.391 . S
C406 C405 1.390 . S
C406 H415 0.930 . S
C407 Eu377 2.825 . S
C407 O392 1.238 . S
C407 O393 1.247 . S
C407 C401 1.507 . S
H408 C381 0.930 . S
H409 C382 0.931 . S
H410 C383 0.930 . S
H411 C384 0.930 . S
H412 C403 0.930 . S
H413 C404 0.931 . S
H414 C405 0.930 . S
H415 C406 0.930 . S
Tb416 C426 2.825 1_545 S
Tb416 O427 2.347 . S
Tb416 O430 2.366 1_545 S
Tb416 O435 2.418 . S
Tb416 O436 2.384 . S
Tb416 O439 2.479 1_545 S
Tb416 O440 2.471 1_545 S
Eu417 O428 2.418 . S
Eu417 O429 2.384 . S
Eu417 O432 2.479 . S
Eu417 O433 2.471 . S
Eu417 O434 2.347 . S
Eu417 O437 2.366 . S
Eu417 C447 2.825 . S
C418 O434 1.259 . S
C418 O435 1.265 . S
C419 O436 1.255 . S
C419 O437 1.265 . S
C420 C422 1.380 . S
C420 C423 1.374 . S
C420 C426 1.507 . S
C421 C422 1.384 . S
C421 C425 1.387 . S
C421 H448 0.930 . S
C422 C420 1.380 . S
C422 C421 1.384 . S
C422 H449 0.931 . S
C423 C420 1.374 . S
C423 C424 1.390 . S
C423 H450 0.930 . S
C424 C423 1.390 . S
C424 C425 1.391 . S
C424 H451 0.930 . S
C425 C421 1.387 . S
C425 C424 1.391 . S
C426 Tb416 2.825 1_565 S
C426 C420 1.507 . S
C426 O439 1.238 . S
C426 O440 1.247 . S
O427 Tb416 2.347 . S
O427 C431 1.259 . S
O428 Eu417 2.418 . S
O428 C431 1.265 . S
O429 Eu417 2.384 . S
O429 C438 1.255 . S
O430 Tb416 2.366 1_565 S
O430 C438 1.265 1_565 S
C431 O427 1.259 . S
C431 O428 1.265 . S
O432 Eu417 2.479 . S
O432 C447 1.238 . S
O433 Eu417 2.471 . S
O433 C447 1.247 . S
O434 Eu417 2.347 . S
O434 C418 1.259 . S
O435 Tb416 2.418 . S
O435 C418 1.265 . S
O436 Tb416 2.384 . S
O436 C419 1.255 . S
O437 Eu417 2.366 . S
O437 C419 1.265 . S
C438 O429 1.255 . S
C438 O430 1.265 1_545 S
O439 Tb416 2.479 1_565 S
O439 C426 1.238 . S
O440 Tb416 2.471 1_565 S
O440 C426 1.247 . S
C441 C444 1.380 . S
C441 C445 1.374 . S
C441 C447 1.507 . S
C442 C443 1.387 . S
C442 C446 1.391 . S
C443 C442 1.387 . S
C443 C444 1.384 . S
C443 H452 0.930 . S
C444 C441 1.380 . S
C444 C443 1.384 . S
C444 H453 0.931 . S
C445 C441 1.374 . S
C445 C446 1.390 . S
C445 H454 0.930 . S
C446 C442 1.391 . S
C446 C445 1.390 . S
C446 H455 0.930 . S
C447 Eu417 2.825 . S
C447 O432 1.238 . S
C447 O433 1.247 . S
C447 C441 1.507 . S
H448 C421 0.930 . S
H449 C422 0.931 . S
H450 C423 0.930 . S
H451 C424 0.930 . S
H452 C443 0.930 . S
H453 C444 0.931 . S
H454 C445 0.930 . S
H455 C446 0.930 . S
Tb456 C466 2.825 . S
Tb456 O467 2.347 . S
Tb456 O470 2.366 . S
Tb456 O475 2.418 . S
Tb456 O476 2.384 . S
Tb456 O479 2.479 . S
Tb456 O480 2.471 . S
Eu457 O468 2.418 . S
Eu457 O469 2.384 . S
Eu457 O472 2.479 . S
Eu457 O473 2.471 . S
Eu457 O474 2.347 . S
Eu457 O477 2.366 . S
Eu457 C487 2.825 . S
C458 O474 1.259 . S
C458 O475 1.265 . S
C459 O476 1.255 . S
C459 O477 1.265 . S
C460 C462 1.380 . S
C460 C463 1.374 . S
C460 C466 1.507 . S
C461 C462 1.384 . S
C461 C465 1.387 . S
C461 H488 0.930 . S
C462 C460 1.380 . S
C462 C461 1.384 . S
C462 H489 0.931 . S
C463 C460 1.374 . S
C463 C464 1.390 . S
C463 H490 0.930 . S
C464 C463 1.390 . S
C464 C465 1.391 . S
C464 H491 0.930 . S
C465 C461 1.387 . S
C465 C464 1.391 . S
C466 Tb456 2.825 . S
C466 C460 1.507 . S
C466 O479 1.238 . S
C466 O480 1.247 . S
O467 Tb456 2.347 . S
O467 C471 1.259 . S
O468 Eu457 2.418 . S
O468 C471 1.265 . S
O469 Eu457 2.384 . S
O469 C478 1.255 . S
O470 Tb456 2.366 . S
O470 C478 1.265 . S
C471 O467 1.259 . S
C471 O468 1.265 . S
O472 Eu457 2.479 . S
O472 C487 1.238 . S
O473 Eu457 2.471 . S
O473 C487 1.247 . S
O474 Eu457 2.347 . S
O474 C458 1.259 . S
O475 Tb456 2.418 . S
O475 C458 1.265 . S
O476 Tb456 2.384 . S
O476 C459 1.255 . S
O477 Eu457 2.366 . S
O477 C459 1.265 . S
C478 O469 1.255 . S
C478 O470 1.265 . S
O479 Tb456 2.479 . S
O479 C466 1.238 . S
O480 Tb456 2.471 . S
O480 C466 1.247 . S
C481 C484 1.380 . S
C481 C485 1.374 . S
C481 C487 1.507 . S
C482 C483 1.387 . S
C482 C486 1.391 . S
C483 C482 1.387 . S
C483 C484 1.384 . S
C483 H492 0.930 . S
C484 C481 1.380 . S
C484 C483 1.384 . S
C484 H493 0.931 . S
C485 C481 1.374 . S
C485 C486 1.390 . S
C485 H494 0.930 . S
C486 C482 1.391 . S
C486 C485 1.390 . S
C486 H495 0.930 . S
C487 Eu457 2.825 . S
C487 O472 1.238 . S
C487 O473 1.247 . S
C487 C481 1.507 . S
H488 C461 0.930 . S
H489 C462 0.931 . S
H490 C463 0.930 . S
H491 C464 0.930 . S
H492 C483 0.930 . S
H493 C484 0.931 . S
H494 C485 0.930 . S
H495 C486 0.930 . S
Tb496 C506 2.825 . S
Tb496 O507 2.347 . S
Tb496 O510 2.366 . S
Tb496 O515 2.418 . S
Tb496 O516 2.384 1_545 S
Tb496 O519 2.479 . S
Tb496 O520 2.471 . S
Eu497 O508 2.418 . S
Eu497 O509 2.384 . S
Eu497 O512 2.479 . S
Eu497 O513 2.471 . S
Eu497 O514 2.347 . S
Eu497 O517 2.366 . S
Eu497 C527 2.825 . S
C498 O514 1.259 . S
C498 O515 1.265 . S
C499 O516 1.255 . S
C499 O517 1.265 1_565 S
C500 C502 1.380 . S
C500 C503 1.377 1_455 S
C500 C506 1.507 . S
C501 C502 1.384 . S
C501 C505 1.387 . S
C501 H528 0.930 . S
C502 C500 1.380 . S
C502 C501 1.384 . S
C502 H529 0.931 . S
C503 C500 1.377 1_655 S
C503 C504 1.389 . S
C503 H530 0.929 . S
C504 C503 1.389 . S
C504 C505 1.391 1_655 S
C504 H531 0.930 . S
C505 C501 1.387 . S
C505 C504 1.391 1_455 S
C506 Tb496 2.825 . S
C506 C500 1.507 . S
C506 O519 1.238 . S
C506 O520 1.247 . S
O507 Tb496 2.347 . S
O507 C511 1.259 . S
O508 Eu497 2.418 . S
O508 C511 1.265 . S
O509 Eu497 2.384 . S
O509 C518 1.255 . S
O510 Tb496 2.366 . S
O510 C518 1.265 . S
C511 O507 1.259 . S
C511 O508 1.265 . S
O512 Eu497 2.479 . S
O512 C527 1.238 . S
O513 Eu497 2.471 . S
O513 C527 1.247 . S
O514 Eu497 2.347 . S
O514 C498 1.259 . S
O515 Tb496 2.418 . S
O515 C498 1.265 . S
O516 Tb496 2.384 1_565 S
O516 C499 1.255 . S
O517 Eu497 2.366 . S
O517 C499 1.265 1_545 S
C518 O509 1.255 . S
C518 O510 1.265 . S
O519 Tb496 2.479 . S
O519 C506 1.238 . S
O520 Tb496 2.471 . S
O520 C506 1.247 . S
C521 C524 1.380 . S
C521 C525 1.374 . S
C521 C527 1.507 . S
C522 C523 1.387 . S
C522 C526 1.391 . S
C523 C522 1.387 . S
C523 C524 1.384 . S
C523 H532 0.930 . S
C524 C521 1.380 . S
C524 C523 1.384 . S
C524 H533 0.931 . S
C525 C521 1.374 . S
C525 C526 1.390 . S
C525 H534 0.930 . S
C526 C522 1.391 . S
C526 C525 1.390 . S
C526 H535 0.930 . S
C527 Eu497 2.825 . S
C527 O512 1.238 . S
C527 O513 1.247 . S
C527 C521 1.507 . S
H528 C501 0.930 . S
H529 C502 0.931 . S
H530 C503 0.929 . S
H531 C504 0.930 . S
H532 C523 0.930 . S
H533 C524 0.931 . S
H534 C525 0.930 . S
H535 C526 0.930 . S
Tb536 C546 2.825 . S
Tb536 O547 2.347 . S
Tb536 O550 2.366 . S
Tb536 O555 2.418 . S
Tb536 O556 2.384 . S
Tb536 O559 2.479 . S
Tb536 O560 2.471 . S
Eu537 O548 2.418 . S
Eu537 O549 2.384 . S
Eu537 O552 2.479 . S
Eu537 O553 2.471 . S
Eu537 O554 2.347 . S
Eu537 O557 2.366 . S
Eu537 C567 2.825 . S
C538 O554 1.259 . S
C538 O555 1.265 . S
C539 O556 1.255 . S
C539 O557 1.265 . S
C540 C542 1.380 . S
C540 C543 1.374 . S
C540 C546 1.507 . S
C541 C542 1.384 . S
C541 C545 1.387 . S
C541 H568 0.930 . S
C542 C540 1.380 . S
C542 C541 1.384 . S
C542 H569 0.931 . S
C543 C540 1.374 . S
C543 C544 1.390 . S
C543 H570 0.930 . S
C544 C543 1.390 . S
C544 C545 1.391 . S
C544 H571 0.930 . S
C545 C541 1.387 . S
C545 C544 1.391 . S
C546 Tb536 2.825 . S
C546 C540 1.507 . S
C546 O559 1.238 . S
C546 O560 1.247 . S
O547 Tb536 2.347 . S
O547 C551 1.259 . S
O548 Eu537 2.418 . S
O548 C551 1.265 . S
O549 Eu537 2.384 . S
O549 C558 1.255 . S
O550 Tb536 2.366 . S
O550 C558 1.265 . S
C551 O547 1.259 . S
C551 O548 1.265 . S
O552 Eu537 2.479 . S
O552 C567 1.238 . S
O553 Eu537 2.471 . S
O553 C567 1.247 . S
O554 Eu537 2.347 . S
O554 C538 1.259 . S
O555 Tb536 2.418 . S
O555 C538 1.265 . S
O556 Tb536 2.384 . S
O556 C539 1.255 . S
O557 Eu537 2.366 . S
O557 C539 1.265 . S
C558 O549 1.255 . S
C558 O550 1.265 . S
O559 Tb536 2.479 . S
O559 C546 1.238 . S
O560 Tb536 2.471 . S
O560 C546 1.247 . S
C561 C564 1.380 . S
C561 C565 1.374 . S
C561 C567 1.507 . S
C562 C563 1.387 . S
C562 C566 1.391 . S
C563 C562 1.387 . S
C563 C564 1.384 . S
C563 H572 0.930 . S
C564 C561 1.380 . S
C564 C563 1.384 . S
C564 H573 0.931 . S
C565 C561 1.374 . S
C565 C566 1.390 . S
C565 H574 0.930 . S
C566 C562 1.391 . S
C566 C565 1.390 . S
C566 H575 0.930 . S
C567 Eu537 2.825 . S
C567 O552 1.238 . S
C567 O553 1.247 . S
C567 C561 1.507 . S
H568 C541 0.930 . S
H569 C542 0.931 . S
H570 C543 0.930 . S
H571 C544 0.930 . S
H572 C563 0.930 . S
H573 C564 0.931 . S
H574 C565 0.930 . S
H575 C566 0.930 . S
Tb576 C586 2.825 . S
Tb576 O587 2.347 . S
Tb576 O590 2.366 . S
Tb576 O595 2.418 1_545 S
Tb576 O596 2.384 . S
Tb576 O599 2.479 . S
Tb576 O600 2.471 . S
Eu577 O588 2.418 1_556 S
Eu577 O589 2.384 1_556 S
Eu577 O592 2.479 . S
Eu577 O593 2.471 . S
Eu577 O594 2.347 1_556 S
Eu577 O597 2.366 1_556 S
Eu577 C607 2.825 . S
C578 O594 1.259 1_565 S
C578 O595 1.265 . S
C579 O596 1.255 . S
C579 O597 1.265 . S
C580 C582 1.382 1_545 S
C580 C583 1.374 . S
C580 C586 1.507 . S
C581 C582 1.384 . S
C581 C585 1.387 1_565 S
C581 H608 0.930 . S
C582 C580 1.382 1_565 S
C582 C581 1.384 . S
C582 H609 0.929 . S
C583 C580 1.374 . S
C583 C584 1.390 . S
C583 H610 0.930 . S
C584 C583 1.390 . S
C584 C585 1.391 . S
C584 H611 0.930 . S
C585 C581 1.387 1_545 S
C585 C584 1.391 . S
C586 Tb576 2.825 . S
C586 C580 1.507 . S
C586 O599 1.238 . S
C586 O600 1.247 . S
O587 Tb576 2.347 . S
O587 C591 1.259 . S
O588 Eu577 2.418 1_554 S
O588 C591 1.265 . S
O589 Eu577 2.384 1_554 S
O589 C598 1.255 . S
O590 Tb576 2.366 . S
O590 C598 1.265 . S
C591 O587 1.259 . S
C591 O588 1.265 . S
O592 Eu577 2.479 . S
O592 C607 1.238 . S
O593 Eu577 2.471 . S
O593 C607 1.247 . S
O594 Eu577 2.347 1_554 S
O594 C578 1.259 1_545 S
O595 Tb576 2.418 1_565 S
O595 C578 1.265 . S
O596 Tb576 2.384 . S
O596 C579 1.255 . S
O597 Eu577 2.366 1_554 S
O597 C579 1.265 . S
C598 O589 1.255 . S
C598 O590 1.265 . S
O599 Tb576 2.479 . S
O599 C586 1.238 . S
O600 Tb576 2.471 . S
O600 C586 1.247 . S
C601 C604 1.380 . S
C601 C605 1.374 . S
C601 C607 1.507 . S
C602 C603 1.387 . S
C602 C606 1.391 . S
C603 C602 1.387 . S
C603 C604 1.384 . S
C603 H612 0.930 . S
C604 C601 1.380 . S
C604 C603 1.384 . S
C604 H613 0.931 . S
C605 C601 1.374 . S
C605 C606 1.390 . S
C605 H614 0.930 . S
C606 C602 1.391 . S
C606 C605 1.390 . S
C606 H615 0.930 . S
C607 Eu577 2.825 . S
C607 O592 1.238 . S
C607 O593 1.247 . S
C607 C601 1.507 . S
H608 C581 0.930 . S
H609 C582 0.929 . S
H610 C583 0.930 . S
H611 C584 0.930 . S
H612 C603 0.930 . S
H613 C604 0.931 . S
H614 C605 0.930 . S
H615 C606 0.930 . S
Tb616 C626 2.825 . S
Tb616 O627 2.347 . S
Tb616 O630 2.366 . S
Tb616 O635 2.418 . S
Tb616 O636 2.384 . S
Tb616 O639 2.479 . S
Tb616 O640 2.471 . S
Eu617 O628 2.418 . S
Eu617 O629 2.384 . S
Eu617 O632 2.479 . S
Eu617 O633 2.471 . S
Eu617 O634 2.347 . S
Eu617 O637 2.366 . S
Eu617 C647 2.825 . S
C618 O634 1.259 . S
C618 O635 1.265 . S
C619 O636 1.255 . S
C619 O637 1.265 . S
C620 C622 1.380 . S
C620 C623 1.374 . S
C620 C626 1.507 . S
C621 C622 1.384 . S
C621 C625 1.387 . S
C621 H648 0.930 . S
C622 C620 1.380 . S
C622 C621 1.384 . S
C622 H649 0.931 . S
C623 C620 1.374 . S
C623 C624 1.390 . S
C623 H650 0.930 . S
C624 C623 1.390 . S
C624 C625 1.391 . S
C624 H651 0.930 . S
C625 C621 1.387 . S
C625 C624 1.391 . S
C626 Tb616 2.825 . S
C626 C620 1.507 . S
C626 O639 1.238 . S
C626 O640 1.247 . S
O627 Tb616 2.347 . S
O627 C631 1.259 . S
O628 Eu617 2.418 . S
O628 C631 1.265 . S
O629 Eu617 2.384 . S
O629 C638 1.255 . S
O630 Tb616 2.366 . S
O630 C638 1.265 . S
C631 O627 1.259 . S
C631 O628 1.265 . S
O632 Eu617 2.479 . S
O632 C647 1.238 . S
O633 Eu617 2.471 . S
O633 C647 1.247 . S
O634 Eu617 2.347 . S
O634 C618 1.259 . S
O635 Tb616 2.418 . S
O635 C618 1.265 . S
O636 Tb616 2.384 . S
O636 C619 1.255 . S
O637 Eu617 2.366 . S
O637 C619 1.265 . S
C638 O629 1.255 . S
C638 O630 1.265 . S
O639 Tb616 2.479 . S
O639 C626 1.238 . S
O640 Tb616 2.471 . S
O640 C626 1.247 . S
C641 C644 1.380 . S
C641 C645 1.374 . S
C641 C647 1.507 . S
C642 C643 1.387 . S
C642 C646 1.391 . S
C643 C642 1.387 . S
C643 C644 1.384 . S
C643 H652 0.930 . S
C644 C641 1.380 . S
C644 C643 1.384 . S
C644 H653 0.931 . S
C645 C641 1.374 . S
C645 C646 1.390 . S
C645 H654 0.930 . S
C646 C642 1.391 . S
C646 C645 1.390 . S
C646 H655 0.930 . S
C647 Eu617 2.825 . S
C647 O632 1.238 . S
C647 O633 1.247 . S
C647 C641 1.507 . S
H648 C621 0.930 . S
H649 C622 0.931 . S
H650 C623 0.930 . S
H651 C624 0.930 . S
H652 C643 0.930 . S
H653 C644 0.931 . S
H654 C645 0.930 . S
H655 C646 0.930 . S
Tb656 C666 2.825 . S
Tb656 O667 2.347 1_556 S
Tb656 O670 2.366 . S
Tb656 O675 2.418 . S
Tb656 O676 2.384 1_556 S
Tb656 O679 2.479 . S
Tb656 O680 2.471 . S
Eu657 O668 2.418 . S
Eu657 O669 2.384 . S
Eu657 O672 2.479 . S
Eu657 O673 2.471 . S
Eu657 O674 2.347 . S
Eu657 O677 2.366 . S
Eu657 C687 2.825 . S
C658 O674 1.259 . S
C658 O675 1.265 1_554 S
C659 O676 1.255 . S
C659 O677 1.265 . S
C660 C662 1.380 . S
C660 C663 1.374 . S
C660 C666 1.507 . S
C661 C662 1.384 . S
C661 C665 1.387 . S
C661 H688 0.930 . S
C662 C660 1.380 . S
C662 C661 1.384 . S
C662 H689 0.931 . S
C663 C660 1.374 . S
C663 C664 1.390 . S
C663 H690 0.930 . S
C664 C663 1.390 . S
C664 C665 1.391 . S
C664 H691 0.930 . S
C665 C661 1.387 . S
C665 C664 1.391 . S
C666 Tb656 2.825 . S
C666 C660 1.507 . S
C666 O679 1.238 . S
C666 O680 1.247 . S
O667 Tb656 2.347 1_554 S
O667 C671 1.259 . S
O668 Eu657 2.418 . S
O668 C671 1.265 . S
O669 Eu657 2.384 . S
O669 C678 1.255 . S
O670 Tb656 2.366 . S
O670 C678 1.265 1_556 S
C671 O667 1.259 . S
C671 O668 1.265 . S
O672 Eu657 2.479 . S
O672 C687 1.238 . S
O673 Eu657 2.471 . S
O673 C687 1.247 . S
O674 Eu657 2.347 . S
O674 C658 1.259 . S
O675 Tb656 2.418 . S
O675 C658 1.265 1_556 S
O676 Tb656 2.384 1_554 S
O676 C659 1.255 . S
O677 Eu657 2.366 . S
O677 C659 1.265 . S
C678 O669 1.255 . S
C678 O670 1.265 1_554 S
O679 Tb656 2.479 . S
O679 C666 1.238 . S
O680 Tb656 2.471 . S
O680 C666 1.247 . S
C681 C684 1.380 . S
C681 C685 1.374 . S
C681 C687 1.507 . S
C682 C683 1.387 . S
C682 C686 1.391 . S
C683 C682 1.387 . S
C683 C684 1.384 . S
C683 H692 0.930 . S
C684 C681 1.380 . S
C684 C683 1.384 . S
C684 H693 0.931 . S
C685 C681 1.374 . S
C685 C686 1.390 . S
C685 H694 0.930 . S
C686 C682 1.391 . S
C686 C685 1.390 . S
C686 H695 0.930 . S
C687 Eu657 2.825 . S
C687 O672 1.238 . S
C687 O673 1.247 . S
C687 C681 1.507 . S
H688 C661 0.930 . S
H689 C662 0.931 . S
H690 C663 0.930 . S
H691 C664 0.930 . S
H692 C683 0.930 . S
H693 C684 0.931 . S
H694 C685 0.930 . S
H695 C686 0.930 . S
Tb696 C706 2.825 . S
Tb696 O707 2.347 . S
Tb696 O710 2.366 . S
Tb696 O715 2.418 . S
Tb696 O716 2.384 . S
Tb696 O719 2.479 . S
Tb696 O720 2.471 . S
Eu697 O708 2.418 . S
Eu697 O709 2.384 . S
Eu697 O712 2.479 . S
Eu697 O713 2.471 . S
Eu697 O714 2.347 . S
Eu697 O717 2.366 . S
Eu697 C727 2.825 . S
C698 O714 1.259 . S
C698 O715 1.265 . S
C699 O716 1.255 . S
C699 O717 1.265 . S
C700 C702 1.380 . S
C700 C703 1.374 . S
C700 C706 1.507 . S
C701 C702 1.384 . S
C701 C705 1.387 . S
C701 H728 0.930 . S
C702 C700 1.380 . S
C702 C701 1.384 . S
C702 H729 0.931 . S
C703 C700 1.374 . S
C703 C704 1.390 . S
C703 H730 0.930 . S
C704 C703 1.390 . S
C704 C705 1.391 . S
C704 H731 0.930 . S
C705 C701 1.387 . S
C705 C704 1.391 . S
C706 Tb696 2.825 . S
C706 C700 1.507 . S
C706 O719 1.238 . S
C706 O720 1.247 . S
O707 Tb696 2.347 . S
O707 C711 1.259 . S
O708 Eu697 2.418 . S
O708 C711 1.265 . S
O709 Eu697 2.384 . S
O709 C718 1.255 . S
O710 Tb696 2.366 . S
O710 C718 1.265 . S
C711 O707 1.259 . S
C711 O708 1.265 . S
O712 Eu697 2.479 . S
O712 C727 1.238 . S
O713 Eu697 2.471 . S
O713 C727 1.247 . S
O714 Eu697 2.347 . S
O714 C698 1.259 . S
O715 Tb696 2.418 . S
O715 C698 1.265 . S
O716 Tb696 2.384 . S
O716 C699 1.255 . S
O717 Eu697 2.366 . S
O717 C699 1.265 . S
C718 O709 1.255 . S
C718 O710 1.265 . S
O719 Tb696 2.479 . S
O719 C706 1.238 . S
O720 Tb696 2.471 . S
O720 C706 1.247 . S
C721 C724 1.380 . S
C721 C725 1.374 . S
C721 C727 1.507 . S
C722 C723 1.387 . S
C722 C726 1.391 . S
C723 C722 1.387 . S
C723 C724 1.384 . S
C723 H732 0.930 . S
C724 C721 1.380 . S
C724 C723 1.384 . S
C724 H733 0.931 . S
C725 C721 1.374 . S
C725 C726 1.390 . S
C725 H734 0.930 . S
C726 C722 1.391 . S
C726 C725 1.390 . S
C726 H735 0.930 . S
C727 Eu697 2.825 . S
C727 O712 1.238 . S
C727 O713 1.247 . S
C727 C721 1.507 . S
H728 C701 0.930 . S
H729 C702 0.931 . S
H730 C703 0.930 . S
H731 C704 0.930 . S
H732 C723 0.930 . S
H733 C724 0.931 . S
H734 C725 0.930 . S
H735 C726 0.930 . S
Tb736 C746 2.825 . S
Tb736 O747 2.347 . S
Tb736 O750 2.366 . S
Tb736 O755 2.418 . S
Tb736 O756 2.384 . S
Tb736 O759 2.479 . S
Tb736 O760 2.471 . S
Eu737 O748 2.418 . S
Eu737 O749 2.384 . S
Eu737 O752 2.479 . S
Eu737 O753 2.471 . S
Eu737 O754 2.347 . S
Eu737 O757 2.366 . S
Eu737 C767 2.825 . S
C738 O754 1.259 . S
C738 O755 1.265 . S
C739 O756 1.255 . S
C739 O757 1.265 . S
C740 C742 1.380 . S
C740 C743 1.374 . S
C740 C746 1.507 . S
C741 C742 1.384 . S
C741 C745 1.387 . S
C741 H768 0.930 . S
C742 C740 1.380 . S
C742 C741 1.384 . S
C742 H769 0.931 . S
C743 C740 1.374 . S
C743 C744 1.390 . S
C743 H770 0.930 . S
C744 C743 1.390 . S
C744 C745 1.391 . S
C744 H771 0.930 . S
C745 C741 1.387 . S
C745 C744 1.391 . S
C746 Tb736 2.825 . S
C746 C740 1.507 . S
C746 O759 1.238 . S
C746 O760 1.247 . S
O747 Tb736 2.347 . S
O747 C751 1.259 . S
O748 Eu737 2.418 . S
O748 C751 1.265 . S
O749 Eu737 2.384 . S
O749 C758 1.255 . S
O750 Tb736 2.366 . S
O750 C758 1.265 . S
C751 O747 1.259 . S
C751 O748 1.265 . S
O752 Eu737 2.479 . S
O752 C767 1.238 . S
O753 Eu737 2.471 . S
O753 C767 1.247 . S
O754 Eu737 2.347 . S
O754 C738 1.259 . S
O755 Tb736 2.418 . S
O755 C738 1.265 . S
O756 Tb736 2.384 . S
O756 C739 1.255 . S
O757 Eu737 2.366 . S
O757 C739 1.265 . S
C758 O749 1.255 . S
C758 O750 1.265 . S
O759 Tb736 2.479 . S
O759 C746 1.238 . S
O760 Tb736 2.471 . S
O760 C746 1.247 . S
C761 C764 1.380 . S
C761 C765 1.374 . S
C761 C767 1.507 . S
C762 C763 1.387 . S
C762 C766 1.391 . S
C763 C762 1.387 . S
C763 C764 1.384 . S
C763 H772 0.930 . S
C764 C761 1.380 . S
C764 C763 1.384 . S
C764 H773 0.931 . S
C765 C761 1.374 . S
C765 C766 1.390 . S
C765 H774 0.930 . S
C766 C762 1.391 . S
C766 C765 1.390 . S
C766 H775 0.930 . S
C767 Eu737 2.825 . S
C767 O752 1.238 . S
C767 O753 1.247 . S
C767 C761 1.507 . S
H768 C741 0.930 . S
H769 C742 0.931 . S
H770 C743 0.930 . S
H771 C744 0.930 . S
H772 C763 0.930 . S
H773 C764 0.931 . S
H774 C765 0.930 . S
H775 C766 0.930 . S
Tb776 C786 2.825 . S
Tb776 O787 2.347 . S
Tb776 O790 2.366 . S
Tb776 O795 2.418 . S
Tb776 O796 2.384 . S
Tb776 O799 2.479 . S
Tb776 O800 2.471 . S
Eu777 O788 2.418 . S
Eu777 O789 2.384 . S
Eu777 O792 2.479 . S
Eu777 O793 2.471 . S
Eu777 O794 2.347 . S
Eu777 O797 2.366 . S
Eu777 C807 2.825 . S
C778 O794 1.259 . S
C778 O795 1.265 . S
C779 O796 1.255 . S
C779 O797 1.265 . S
C780 C782 1.380 . S
C780 C783 1.374 . S
C780 C786 1.507 . S
C781 C782 1.384 . S
C781 C785 1.387 . S
C781 H808 0.930 . S
C782 C780 1.380 . S
C782 C781 1.384 . S
C782 H809 0.931 . S
C783 C780 1.374 . S
C783 C784 1.390 . S
C783 H810 0.930 . S
C784 C783 1.390 . S
C784 C785 1.391 . S
C784 H811 0.930 . S
C785 C781 1.387 . S
C785 C784 1.391 . S
C786 Tb776 2.825 . S
C786 C780 1.507 . S
C786 O799 1.238 . S
C786 O800 1.247 . S
O787 Tb776 2.347 . S
O787 C791 1.259 . S
O788 Eu777 2.418 . S
O788 C791 1.265 . S
O789 Eu777 2.384 . S
O789 C798 1.255 . S
O790 Tb776 2.366 . S
O790 C798 1.265 . S
C791 O787 1.259 . S
C791 O788 1.265 . S
O792 Eu777 2.479 . S
O792 C807 1.238 . S
O793 Eu777 2.471 . S
O793 C807 1.247 . S
O794 Eu777 2.347 . S
O794 C778 1.259 . S
O795 Tb776 2.418 . S
O795 C778 1.265 . S
O796 Tb776 2.384 . S
O796 C779 1.255 . S
O797 Eu777 2.366 . S
O797 C779 1.265 . S
C798 O789 1.255 . S
C798 O790 1.265 . S
O799 Tb776 2.479 . S
O799 C786 1.238 . S
O800 Tb776 2.471 . S
O800 C786 1.247 . S
C801 C804 1.380 . S
C801 C805 1.374 . S
C801 C807 1.507 . S
C802 C803 1.387 . S
C802 C806 1.391 . S
C803 C802 1.387 . S
C803 C804 1.384 . S
C803 H812 0.930 . S
C804 C801 1.380 . S
C804 C803 1.384 . S
C804 H813 0.931 . S
C805 C801 1.374 . S
C805 C806 1.390 . S
C805 H814 0.930 . S
C806 C802 1.391 . S
C806 C805 1.390 . S
C806 H815 0.930 . S
C807 Eu777 2.825 . S
C807 O792 1.238 . S
C807 O793 1.247 . S
C807 C801 1.507 . S
H808 C781 0.930 . S
H809 C782 0.931 . S
H810 C783 0.930 . S
H811 C784 0.930 . S
H812 C803 0.930 . S
H813 C804 0.931 . S
H814 C805 0.930 . S
H815 C806 0.930 . S
Tb816 C826 2.825 . S
Tb816 O827 2.347 . S
Tb816 O830 2.366 . S
Tb816 O835 2.418 . S
Tb816 O836 2.384 . S
Tb816 O839 2.479 . S
Tb816 O840 2.471 . S
Eu817 O828 2.418 . S
Eu817 O829 2.384 . S
Eu817 O832 2.479 . S
Eu817 O833 2.471 . S
Eu817 O834 2.347 . S
Eu817 O837 2.366 . S
Eu817 C847 2.825 . S
C818 O834 1.259 . S
C818 O835 1.265 . S
C819 O836 1.255 . S
C819 O837 1.265 . S
C820 C822 1.380 . S
C820 C823 1.374 . S
C820 C826 1.507 . S
C821 C822 1.384 . S
C821 C825 1.387 . S
C821 H848 0.930 . S
C822 C820 1.380 . S
C822 C821 1.384 . S
C822 H849 0.931 . S
C823 C820 1.374 . S
C823 C824 1.390 . S
C823 H850 0.930 . S
C824 C823 1.390 . S
C824 C825 1.391 . S
C824 H851 0.930 . S
C825 C821 1.387 . S
C825 C824 1.391 . S
C826 Tb816 2.825 . S
C826 C820 1.507 . S
C826 O839 1.238 . S
C826 O840 1.247 . S
O827 Tb816 2.347 . S
O827 C831 1.259 . S
O828 Eu817 2.418 . S
O828 C831 1.265 . S
O829 Eu817 2.384 . S
O829 C838 1.255 . S
O830 Tb816 2.366 . S
O830 C838 1.265 . S
C831 O827 1.259 . S
C831 O828 1.265 . S
O832 Eu817 2.479 . S
O832 C847 1.238 . S
O833 Eu817 2.471 . S
O833 C847 1.247 . S
O834 Eu817 2.347 . S
O834 C818 1.259 . S
O835 Tb816 2.418 . S
O835 C818 1.265 . S
O836 Tb816 2.384 . S
O836 C819 1.255 . S
O837 Eu817 2.366 . S
O837 C819 1.265 . S
C838 O829 1.255 . S
C838 O830 1.265 . S
O839 Tb816 2.479 . S
O839 C826 1.238 . S
O840 Tb816 2.471 . S
O840 C826 1.247 . S
C841 C844 1.380 . S
C841 C845 1.374 . S
C841 C847 1.507 . S
C842 C843 1.387 . S
C842 C846 1.391 . S
C843 C842 1.387 . S
C843 C844 1.384 . S
C843 H852 0.930 . S
C844 C841 1.380 . S
C844 C843 1.384 . S
C844 H853 0.931 . S
C845 C841 1.374 . S
C845 C846 1.390 . S
C845 H854 0.930 . S
C846 C842 1.391 . S
C846 C845 1.390 . S
C846 H855 0.930 . S
C847 Eu817 2.825 . S
C847 O832 1.238 . S
C847 O833 1.247 . S
C847 C841 1.507 . S
H848 C821 0.930 . S
H849 C822 0.931 . S
H850 C823 0.930 . S
H851 C824 0.930 . S
H852 C843 0.930 . S
H853 C844 0.931 . S
H854 C845 0.930 . S
H855 C846 0.930 . S
Tb856 C866 2.825 . S
Tb856 O867 2.347 . S
Tb856 O870 2.366 . S
Tb856 O875 2.418 . S
Tb856 O876 2.384 . S
Tb856 O879 2.479 . S
Tb856 O880 2.471 . S
Eu857 O868 2.418 . S
Eu857 O869 2.384 . S
Eu857 O872 2.479 . S
Eu857 O873 2.471 . S
Eu857 O874 2.347 . S
Eu857 O877 2.366 . S
Eu857 C887 2.825 . S
C858 O874 1.259 . S
C858 O875 1.265 . S
C859 O876 1.255 . S
C859 O877 1.265 . S
C860 C862 1.380 . S
C860 C863 1.374 . S
C860 C866 1.507 . S
C861 C862 1.384 . S
C861 C865 1.387 . S
C861 H888 0.930 . S
C862 C860 1.380 . S
C862 C861 1.384 . S
C862 H889 0.931 . S
C863 C860 1.374 . S
C863 C864 1.390 . S
C863 H890 0.930 . S
C864 C863 1.390 . S
C864 C865 1.391 . S
C864 H891 0.930 . S
C865 C861 1.387 . S
C865 C864 1.391 . S
C866 Tb856 2.825 . S
C866 C860 1.507 . S
C866 O879 1.238 . S
C866 O880 1.247 . S
O867 Tb856 2.347 . S
O867 C871 1.259 . S
O868 Eu857 2.418 . S
O868 C871 1.265 . S
O869 Eu857 2.384 . S
O869 C878 1.255 . S
O870 Tb856 2.366 . S
O870 C878 1.265 . S
C871 O867 1.259 . S
C871 O868 1.265 . S
O872 Eu857 2.479 . S
O872 C887 1.238 . S
O873 Eu857 2.471 . S
O873 C887 1.247 . S
O874 Eu857 2.347 . S
O874 C858 1.259 . S
O875 Tb856 2.418 . S
O875 C858 1.265 . S
O876 Tb856 2.384 . S
O876 C859 1.255 . S
O877 Eu857 2.366 . S
O877 C859 1.265 . S
C878 O869 1.255 . S
C878 O870 1.265 . S
O879 Tb856 2.479 . S
O879 C866 1.238 . S
O880 Tb856 2.471 . S
O880 C866 1.247 . S
C881 C884 1.380 . S
C881 C885 1.374 . S
C881 C887 1.507 . S
C882 C883 1.387 . S
C882 C886 1.391 . S
C883 C882 1.387 . S
C883 C884 1.384 . S
C883 H892 0.930 . S
C884 C881 1.380 . S
C884 C883 1.384 . S
C884 H893 0.931 . S
C885 C881 1.374 . S
C885 C886 1.390 . S
C885 H894 0.930 . S
C886 C882 1.391 . S
C886 C885 1.390 . S
C886 H895 0.930 . S
C887 Eu857 2.825 . S
C887 O872 1.238 . S
C887 O873 1.247 . S
C887 C881 1.507 . S
H888 C861 0.930 . S
H889 C862 0.931 . S
H890 C863 0.930 . S
H891 C864 0.930 . S
H892 C883 0.930 . S
H893 C884 0.931 . S
H894 C885 0.930 . S
H895 C886 0.930 . S
Tb896 C906 2.825 . S
Tb896 O907 2.347 . S
Tb896 O910 2.366 . S
Tb896 O915 2.418 . S
Tb896 O916 2.384 . S
Tb896 O919 2.479 . S
Tb896 O920 2.471 . S
Eu897 O908 2.418 . S
Eu897 O909 2.384 . S
Eu897 O912 2.479 . S
Eu897 O913 2.471 . S
Eu897 O914 2.347 . S
Eu897 O917 2.366 . S
Eu897 C927 2.825 . S
C898 O914 1.259 . S
C898 O915 1.265 . S
C899 O916 1.255 . S
C899 O917 1.265 . S
C900 C902 1.380 . S
C900 C903 1.374 . S
C900 C906 1.507 . S
C901 C902 1.384 . S
C901 C905 1.387 . S
C901 H928 0.930 . S
C902 C900 1.380 . S
C902 C901 1.384 . S
C902 H929 0.931 . S
C903 C900 1.374 . S
C903 C904 1.390 . S
C903 H930 0.930 . S
C904 C903 1.390 . S
C904 C905 1.391 . S
C904 H931 0.930 . S
C905 C901 1.387 . S
C905 C904 1.391 . S
C906 Tb896 2.825 . S
C906 C900 1.507 . S
C906 O919 1.238 . S
C906 O920 1.247 . S
O907 Tb896 2.347 . S
O907 C911 1.259 . S
O908 Eu897 2.418 . S
O908 C911 1.265 . S
O909 Eu897 2.384 . S
O909 C918 1.255 . S
O910 Tb896 2.366 . S
O910 C918 1.265 . S
C911 O907 1.259 . S
C911 O908 1.265 . S
O912 Eu897 2.479 . S
O912 C927 1.238 . S
O913 Eu897 2.471 . S
O913 C927 1.247 . S
O914 Eu897 2.347 . S
O914 C898 1.259 . S
O915 Tb896 2.418 . S
O915 C898 1.265 . S
O916 Tb896 2.384 . S
O916 C899 1.255 . S
O917 Eu897 2.366 . S
O917 C899 1.265 . S
C918 O909 1.255 . S
C918 O910 1.265 . S
O919 Tb896 2.479 . S
O919 C906 1.238 . S
O920 Tb896 2.471 . S
O920 C906 1.247 . S
C921 C924 1.380 . S
C921 C925 1.374 . S
C921 C927 1.507 . S
C922 C923 1.387 . S
C922 C926 1.391 . S
C923 C922 1.387 . S
C923 C924 1.384 . S
C923 H932 0.930 . S
C924 C921 1.380 . S
C924 C923 1.384 . S
C924 H933 0.931 . S
C925 C921 1.374 . S
C925 C926 1.390 . S
C925 H934 0.930 . S
C926 C922 1.391 . S
C926 C925 1.390 . S
C926 H935 0.930 . S
C927 Eu897 2.825 . S
C927 O912 1.238 . S
C927 O913 1.247 . S
C927 C921 1.507 . S
H928 C901 0.930 . S
H929 C902 0.931 . S
H930 C903 0.930 . S
H931 C904 0.930 . S
H932 C923 0.930 . S
H933 C924 0.931 . S
H934 C925 0.930 . S
H935 C926 0.930 . S
Tb936 C946 2.825 . S
Tb936 O947 2.347 1_554 S
Tb936 O950 2.366 . S
Tb936 O955 2.418 . S
Tb936 O956 2.384 . S
Tb936 O959 2.479 . S
Tb936 O960 2.471 1_554 S
Eu937 O948 2.418 1_554 S
Eu937 O949 2.384 . S
Eu937 O952 2.479 . S
Eu937 O953 2.471 . S
Eu937 O954 2.347 . S
Eu937 O957 2.366 . S
Eu937 C967 2.825 . S
C938 O954 1.259 . S
C938 O955 1.265 . S
C939 O956 1.255 . S
C939 O957 1.265 . S
C940 C942 1.380 1_556 S
C940 C943 1.374 . S
C940 C946 1.507 1_556 S
C941 C942 1.384 1_556 S
C941 C945 1.387 . S
C941 H968 0.930 1_556 S
C942 C940 1.380 1_554 S
C942 C941 1.384 1_554 S
C942 H969 0.931 . S
C943 C940 1.374 . S
C943 C944 1.390 . S
C943 H970 0.930 . S
C944 C943 1.390 . S
C944 C945 1.391 . S
C944 H971 0.930 . S
C945 C941 1.387 . S
C945 C944 1.391 . S
C946 Tb936 2.825 . S
C946 C940 1.507 1_554 S
C946 O959 1.238 . S
C946 O960 1.247 1_554 S
O947 Tb936 2.347 1_556 S
O947 C951 1.259 . S
O948 Eu937 2.418 1_556 S
O948 C951 1.265 . S
O949 Eu937 2.384 . S
O949 C958 1.255 . S
O950 Tb936 2.366 . S
O950 C958 1.265 . S
C951 O947 1.259 . S
C951 O948 1.265 . S
O952 Eu937 2.479 . S
O952 C967 1.238 . S
O953 Eu937 2.471 . S
O953 C967 1.247 . S
O954 Eu937 2.347 . S
O954 C938 1.259 . S
O955 Tb936 2.418 . S
O955 C938 1.265 . S
O956 Tb936 2.384 . S
O956 C939 1.255 . S
O957 Eu937 2.366 . S
O957 C939 1.265 . S
C958 O949 1.255 . S
C958 O950 1.265 . S
O959 Tb936 2.479 . S
O959 C946 1.238 . S
O960 Tb936 2.471 1_556 S
O960 C946 1.247 1_556 S
C961 C964 1.380 . S
C961 C965 1.374 . S
C961 C967 1.507 . S
C962 C963 1.387 . S
C962 C966 1.391 . S
C963 C962 1.387 . S
C963 C964 1.384 . S
C963 H972 0.930 . S
C964 C961 1.380 . S
C964 C963 1.384 . S
C964 H973 0.931 . S
C965 C961 1.374 . S
C965 C966 1.390 . S
C965 H974 0.930 . S
C966 C962 1.391 . S
C966 C965 1.390 . S
C966 H975 0.930 . S
C967 Eu937 2.825 . S
C967 O952 1.238 . S
C967 O953 1.247 . S
C967 C961 1.507 . S
H968 C941 0.930 1_554 S
H969 C942 0.931 . S
H970 C943 0.930 . S
H971 C944 0.930 . S
H972 C963 0.930 . S
H973 C964 0.931 . S
H974 C965 0.930 . S
H975 C966 0.930 . S
H976 C984 0.950 . S
H977 C989 0.950 . S
H978 C986 0.944 1_655 S
H979 C988 0.950 . S
H980 C990 0.950 . S
H981 C992 0.950 . S
H982 C994 0.950 . S
H983 C995 0.950 . S
C984 H976 0.950 . S
C984 C985 1.386 1_655 S
C984 C986 1.383 1_655 S
C985 C984 1.386 1_455 S
C985 C989 1.393 . S
C986 H978 0.944 1_455 S
C986 C984 1.383 1_455 S
C986 C987 1.415 . S
C987 C986 1.415 . S
C987 C988 1.398 . S
C987 C993 1.491 . S
C988 H979 0.950 . S
C988 C987 1.398 . S
C988 C989 1.391 . S
C989 H977 0.950 . S
C989 C985 1.393 . S
C989 C988 1.391 . S
C990 H980 0.950 . S
C990 C991 1.386 . S
C990 C992 1.391 1_554 S
C991 C990 1.386 . S
C991 C995 1.393 1_554 S
C992 H981 0.950 . S
C992 C990 1.391 1_556 S
C992 C993 1.400 . S
C993 C987 1.491 . S
C993 C992 1.400 . S
C993 C994 1.398 . S
C994 H982 0.950 . S
C994 C993 1.398 . S
C994 C995 1.391 . S
C995 H983 0.950 . S
C995 C991 1.393 1_556 S
C995 C994 1.391 . S
H996 C1004 0.950 . S
H997 C1009 0.950 . S
H998 C1006 0.950 . S
H999 C1008 0.950 . S
H1000 C1010 0.950 . S
H1001 C1012 0.950 . S
H1002 C1014 0.950 . S
H1003 C1015 0.950 . S
C1004 H996 0.950 . S
C1004 C1005 1.386 . S
C1004 C1006 1.391 . S
C1005 C1004 1.386 . S
C1005 C1009 1.393 . S
C1006 H998 0.950 . S
C1006 C1004 1.391 . S
C1006 C1007 1.400 . S
C1007 C1006 1.400 . S
C1007 C1008 1.398 . S
C1007 C1013 1.491 . S
C1008 H999 0.950 . S
C1008 C1007 1.398 . S
C1008 C1009 1.391 . S
C1009 H997 0.950 . S
C1009 C1005 1.393 . S
C1009 C1008 1.391 . S
C1010 H1000 0.950 . S
C1010 C1011 1.386 . S
C1010 C1012 1.391 . S
C1011 C1010 1.386 . S
C1011 C1015 1.393 . S
C1012 H1001 0.950 . S
C1012 C1010 1.391 . S
C1012 C1013 1.400 . S
C1013 C1007 1.491 . S
C1013 C1012 1.400 . S
C1013 C1014 1.398 . S
C1014 H1002 0.950 . S
C1014 C1013 1.398 . S
C1014 C1015 1.391 . S
C1015 H1003 0.950 . S
C1015 C1011 1.393 . S
C1015 C1014 1.391 . S
H1016 C1024 0.950 . S
H1017 C1029 0.950 . S
H1018 C1026 0.950 . S
H1019 C1028 0.950 . S
H1020 C1030 0.950 . S
H1021 C1032 0.950 . S
H1022 C1034 0.950 . S
H1023 C1035 0.950 . S
C1024 H1016 0.950 . S
C1024 C1025 1.386 . S
C1024 C1026 1.391 . S
C1025 C1024 1.386 . S
C1025 C1029 1.393 . S
C1026 H1018 0.950 . S
C1026 C1024 1.391 . S
C1026 C1027 1.400 . S
C1027 C1026 1.400 . S
C1027 C1028 1.398 . S
C1027 C1033 1.491 . S
C1028 H1019 0.950 . S
C1028 C1027 1.398 . S
C1028 C1029 1.391 . S
C1029 H1017 0.950 . S
C1029 C1025 1.393 . S
C1029 C1028 1.391 . S
C1030 H1020 0.950 . S
C1030 C1031 1.386 . S
C1030 C1032 1.391 . S
C1031 C1030 1.386 . S
C1031 C1035 1.393 . S
C1032 H1021 0.950 . S
C1032 C1030 1.391 . S
C1032 C1033 1.400 . S
C1033 C1027 1.491 . S
C1033 C1032 1.400 . S
C1033 C1034 1.398 . S
C1034 H1022 0.950 . S
C1034 C1033 1.398 . S
C1034 C1035 1.391 . S
C1035 H1023 0.950 . S
C1035 C1031 1.393 . S
C1035 C1034 1.391 . S
H1036 C1044 0.950 . S
H1037 C1049 0.950 . S
H1038 C1046 0.950 . S
H1039 C1048 0.950 . S
H1040 C1050 0.950 . S
H1041 C1052 0.950 . S
H1042 C1054 0.950 . S
H1043 C1055 0.950 . S
C1044 H1036 0.950 . S
C1044 C1045 1.386 . S
C1044 C1046 1.391 . S
C1045 C1044 1.386 . S
C1045 C1049 1.393 . S
C1046 H1038 0.950 . S
C1046 C1044 1.391 . S
C1046 C1047 1.400 . S
C1047 C1046 1.400 . S
C1047 C1048 1.398 . S
C1047 C1053 1.491 . S
C1048 H1039 0.950 . S
C1048 C1047 1.398 . S
C1048 C1049 1.391 . S
C1049 H1037 0.950 . S
C1049 C1045 1.393 . S
C1049 C1048 1.391 . S
C1050 H1040 0.950 . S
C1050 C1051 1.386 . S
C1050 C1052 1.391 . S
C1051 C1050 1.386 . S
C1051 C1055 1.393 . S
C1052 H1041 0.950 . S
C1052 C1050 1.391 . S
C1052 C1053 1.400 . S
C1053 C1047 1.491 . S
C1053 C1052 1.400 . S
C1053 C1054 1.398 . S
C1054 H1042 0.950 . S
C1054 C1053 1.398 . S
C1054 C1055 1.391 . S
C1055 H1043 0.950 . S
C1055 C1051 1.393 . S
C1055 C1054 1.391 . S
H1056 C1064 0.950 . S
H1057 C1069 0.950 . S
H1058 C1066 0.950 . S
H1059 C1068 0.950 . S
H1060 C1070 0.950 . S
H1061 C1072 0.950 . S
H1062 C1074 0.950 . S
H1063 C1075 0.950 . S
C1064 H1056 0.950 . S
C1064 C1065 1.386 . S
C1064 C1066 1.391 . S
C1065 C1064 1.386 . S
C1065 C1069 1.393 . S
C1066 H1058 0.950 . S
C1066 C1064 1.391 . S
C1066 C1067 1.400 . S
C1067 C1066 1.400 . S
C1067 C1068 1.398 . S
C1067 C1073 1.491 . S
C1068 H1059 0.950 . S
C1068 C1067 1.398 . S
C1068 C1069 1.391 . S
C1069 H1057 0.950 . S
C1069 C1065 1.393 . S
C1069 C1068 1.391 . S
C1070 H1060 0.950 . S
C1070 C1071 1.386 . S
C1070 C1072 1.391 . S
C1071 C1070 1.386 . S
C1071 C1075 1.393 . S
C1072 H1061 0.950 . S
C1072 C1070 1.391 . S
C1072 C1073 1.400 . S
C1073 C1067 1.491 . S
C1073 C1072 1.400 . S
C1073 C1074 1.398 . S
C1074 H1062 0.950 . S
C1074 C1073 1.398 . S
C1074 C1075 1.391 . S
C1075 H1063 0.950 . S
C1075 C1071 1.393 . S
C1075 C1074 1.391 . S
H1076 C1084 0.950 . S
H1077 C1089 0.950 . S
H1078 C1086 0.950 . S
H1079 C1088 0.950 . S
H1080 C1090 0.950 . S
H1081 C1092 0.950 . S
H1082 C1094 0.950 . S
H1083 C1095 0.950 . S
C1084 H1076 0.950 . S
C1084 C1085 1.386 . S
C1084 C1086 1.391 . S
C1085 C1084 1.386 . S
C1085 C1089 1.393 . S
C1086 H1078 0.950 . S
C1086 C1084 1.391 . S
C1086 C1087 1.400 . S
C1087 C1086 1.400 . S
C1087 C1088 1.398 . S
C1087 C1093 1.491 . S
C1088 H1079 0.950 . S
C1088 C1087 1.398 . S
C1088 C1089 1.391 . S
C1089 H1077 0.950 . S
C1089 C1085 1.393 . S
C1089 C1088 1.391 . S
C1090 H1080 0.950 . S
C1090 C1091 1.386 . S
C1090 C1092 1.391 . S
C1091 C1090 1.386 . S
C1091 C1095 1.393 . S
C1092 H1081 0.950 . S
C1092 C1090 1.391 . S
C1092 C1093 1.400 . S
C1093 C1087 1.491 . S
C1093 C1092 1.400 . S
C1093 C1094 1.398 . S
C1094 H1082 0.950 . S
C1094 C1093 1.398 . S
C1094 C1095 1.391 . S
C1095 H1083 0.950 . S
C1095 C1091 1.393 . S
C1095 C1094 1.391 . S
H1096 C1104 0.950 . S
H1097 C1109 0.950 . S
H1098 C1106 0.950 . S
H1099 C1108 0.950 . S
H1100 C1110 0.950 . S
H1101 C1112 0.950 . S
H1102 C1114 0.950 . S
H1103 C1115 0.950 . S
C1104 H1096 0.950 . S
C1104 C1105 1.386 . S
C1104 C1106 1.391 . S
C1105 C1104 1.386 . S
C1105 C1109 1.393 . S
C1106 H1098 0.950 . S
C1106 C1104 1.391 . S
C1106 C1107 1.400 . S
C1107 C1106 1.400 . S
C1107 C1108 1.398 . S
C1107 C1113 1.491 . S
C1108 H1099 0.950 . S
C1108 C1107 1.398 . S
C1108 C1109 1.391 . S
C1109 H1097 0.950 . S
C1109 C1105 1.393 . S
C1109 C1108 1.391 . S
C1110 H1100 0.950 . S
C1110 C1111 1.386 . S
C1110 C1112 1.391 . S
C1111 C1110 1.386 . S
C1111 C1115 1.393 . S
C1112 H1101 0.950 . S
C1112 C1110 1.391 . S
C1112 C1113 1.400 . S
C1113 C1107 1.491 . S
C1113 C1112 1.400 . S
C1113 C1114 1.398 . S
C1114 H1102 0.950 . S
C1114 C1113 1.398 . S
C1114 C1115 1.391 . S
C1115 H1103 0.950 . S
C1115 C1111 1.393 . S
C1115 C1114 1.391 . S
H1116 C1124 0.950 . S
H1117 C1129 0.950 . S
H1118 C1126 0.950 . S
H1119 C1128 0.950 . S
H1120 C1130 0.950 . S
H1121 C1132 0.950 . S
H1122 C1134 0.950 . S
H1123 C1135 0.950 . S
C1124 H1116 0.950 . S
C1124 C1125 1.386 . S
C1124 C1126 1.391 . S
C1125 C1124 1.386 . S
C1125 C1129 1.393 . S
C1126 H1118 0.950 . S
C1126 C1124 1.391 . S
C1126 C1127 1.400 . S
C1127 C1126 1.400 . S
C1127 C1128 1.398 . S
C1127 C1133 1.491 . S
C1128 H1119 0.950 . S
C1128 C1127 1.398 . S
C1128 C1129 1.391 . S
C1129 H1117 0.950 . S
C1129 C1125 1.393 . S
C1129 C1128 1.391 . S
C1130 H1120 0.950 . S
C1130 C1131 1.386 . S
C1130 C1132 1.391 . S
C1131 C1130 1.386 . S
C1131 C1135 1.393 . S
C1132 H1121 0.950 . S
C1132 C1130 1.391 . S
C1132 C1133 1.400 . S
C1133 C1127 1.491 . S
C1133 C1132 1.400 . S
C1133 C1134 1.398 . S
C1134 H1122 0.950 . S
C1134 C1133 1.398 . S
C1134 C1135 1.391 . S
C1135 H1123 0.950 . S
C1135 C1131 1.393 . S
C1135 C1134 1.391 . S
H1136 C1144 0.950 . S
H1137 C1149 0.950 . S
H1138 C1146 0.950 . S
H1139 C1148 0.954 . S
H1140 C1150 0.950 . S
H1141 C1152 0.950 . S
H1142 C1154 0.950 . S
H1143 C1155 0.950 . S
C1144 H1136 0.950 . S
C1144 C1145 1.386 . S
C1144 C1146 1.391 . S
C1145 C1144 1.386 . S
C1145 C1149 1.393 1_545 S
C1146 H1138 0.950 . S
C1146 C1144 1.391 . S
C1146 C1147 1.400 . S
C1147 C1146 1.400 . S
C1147 C1148 1.398 . S
C1147 C1153 1.491 . S
C1148 H1139 0.954 . S
C1148 C1147 1.398 . S
C1148 C1149 1.391 1_545 S
C1149 H1137 0.950 . S
C1149 C1145 1.393 1_565 S
C1149 C1148 1.391 1_565 S
C1150 H1140 0.950 . S
C1150 C1151 1.386 1_655 S
C1150 C1152 1.391 . S
C1151 C1150 1.386 1_455 S
C1151 C1155 1.393 . S
C1152 H1141 0.950 . S
C1152 C1150 1.391 . S
C1152 C1153 1.400 . S
C1153 C1147 1.491 . S
C1153 C1152 1.400 . S
C1153 C1154 1.398 1_655 S
C1154 H1142 0.950 . S
C1154 C1153 1.398 1_455 S
C1154 C1155 1.391 . S
C1155 H1143 0.950 . S
C1155 C1151 1.393 . S
C1155 C1154 1.391 . S
H1156 C1164 0.950 . S
H1157 C1169 0.950 . S
H1158 C1166 0.950 . S
H1159 C1168 0.950 . S
H1160 C1170 0.950 . S
H1161 C1172 0.950 . S
H1162 C1174 0.950 . S
H1163 C1175 0.950 . S
C1164 H1156 0.950 . S
C1164 C1165 1.386 . S
C1164 C1166 1.391 . S
C1165 C1164 1.386 . S
C1165 C1169 1.393 . S
C1166 H1158 0.950 . S
C1166 C1164 1.391 . S
C1166 C1167 1.400 . S
C1167 C1166 1.400 . S
C1167 C1168 1.398 . S
C1167 C1173 1.491 . S
C1168 H1159 0.950 . S
C1168 C1167 1.398 . S
C1168 C1169 1.391 . S
C1169 H1157 0.950 . S
C1169 C1165 1.393 . S
C1169 C1168 1.391 . S
C1170 H1160 0.950 . S
C1170 C1171 1.386 . S
C1170 C1172 1.391 . S
C1171 C1170 1.386 . S
C1171 C1175 1.393 . S
C1172 H1161 0.950 . S
C1172 C1170 1.391 . S
C1172 C1173 1.400 . S
C1173 C1167 1.491 . S
C1173 C1172 1.400 . S
C1173 C1174 1.398 . S
C1174 H1162 0.950 . S
C1174 C1173 1.398 . S
C1174 C1175 1.391 . S
C1175 H1163 0.950 . S
C1175 C1171 1.393 . S
C1175 C1174 1.391 . S
H1176 C1184 0.950 . S
H1177 C1189 0.950 . S
H1178 C1186 0.950 . S
H1179 C1188 0.950 . S
H1180 C1190 0.950 . S
H1181 C1192 0.950 . S
H1182 C1194 0.950 . S
H1183 C1195 0.950 1_565 S
C1184 H1176 0.950 . S
C1184 C1185 1.386 . S
C1184 C1186 1.391 . S
C1185 C1184 1.386 . S
C1185 C1189 1.393 1_565 S
C1186 H1178 0.950 . S
C1186 C1184 1.391 . S
C1186 C1187 1.400 1_565 S
C1187 C1186 1.400 1_545 S
C1187 C1188 1.398 . S
C1187 C1193 1.491 . S
C1188 H1179 0.950 . S
C1188 C1187 1.398 . S
C1188 C1189 1.391 . S
C1189 H1177 0.950 . S
C1189 C1185 1.393 1_545 S
C1189 C1188 1.391 . S
C1190 H1180 0.950 . S
C1190 C1191 1.386 . S
C1190 C1192 1.391 . S
C1191 C1190 1.386 . S
C1191 C1195 1.393 . S
C1192 H1181 0.950 . S
C1192 C1190 1.391 . S
C1192 C1193 1.400 . S
C1193 C1187 1.491 . S
C1193 C1192 1.400 . S
C1193 C1194 1.398 1_545 S
C1194 H1182 0.950 . S
C1194 C1193 1.398 1_565 S
C1194 C1195 1.391 1_565 S
C1195 H1183 0.950 1_545 S
C1195 C1191 1.393 . S
C1195 C1194 1.391 1_545 S
H1196 C1204 0.950 . S
H1197 C1209 0.950 . S
H1198 C1206 0.950 . S
H1199 C1208 0.950 . S
H1200 C1210 0.950 . S
H1201 C1212 0.950 . S
H1202 C1214 0.950 . S
H1203 C1215 0.950 . S
C1204 H1196 0.950 . S
C1204 C1205 1.386 . S
C1204 C1206 1.391 . S
C1205 C1204 1.386 . S
C1205 C1209 1.393 . S
C1206 H1198 0.950 . S
C1206 C1204 1.391 . S
C1206 C1207 1.400 . S
C1207 C1206 1.400 . S
C1207 C1208 1.398 . S
C1207 C1213 1.491 . S
C1208 H1199 0.950 . S
C1208 C1207 1.398 . S
C1208 C1209 1.391 . S
C1209 H1197 0.950 . S
C1209 C1205 1.393 . S
C1209 C1208 1.391 . S
C1210 H1200 0.950 . S
C1210 C1211 1.386 . S
C1210 C1212 1.391 . S
C1211 C1210 1.386 . S
C1211 C1215 1.393 . S
C1212 H1201 0.950 . S
C1212 C1210 1.391 . S
C1212 C1213 1.400 . S
C1213 C1207 1.491 . S
C1213 C1212 1.400 . S
C1213 C1214 1.398 . S
C1214 H1202 0.950 . S
C1214 C1213 1.398 . S
C1214 C1215 1.391 . S
C1215 H1203 0.950 . S
C1215 C1211 1.393 . S
C1215 C1214 1.391 . S
H1216 C1224 0.950 . S
H1217 C1229 0.950 . S
H1218 C1226 0.950 . S
H1219 C1228 0.950 . S
H1220 C1230 0.950 . S
H1221 C1232 0.966 . S
H1222 C1234 0.950 1_565 S
H1223 C1235 0.950 . S
C1224 H1216 0.950 . S
C1224 C1225 1.386 1_565 S
C1224 C1226 1.391 . S
C1225 C1224 1.386 1_545 S
C1225 C1229 1.393 . S
C1226 H1218 0.950 . S
C1226 C1224 1.391 . S
C1226 C1227 1.400 1_565 S
C1227 C1226 1.400 1_545 S
C1227 C1228 1.398 . S
C1227 C1233 1.491 . S
C1228 H1219 0.950 . S
C1228 C1227 1.398 . S
C1228 C1229 1.391 . S
C1229 H1217 0.950 . S
C1229 C1225 1.393 . S
C1229 C1228 1.391 . S
C1230 H1220 0.950 . S
C1230 C1231 1.385 . S
C1230 C1232 1.391 1_455 S
C1231 C1230 1.385 . S
C1231 C1235 1.395 1_455 S
C1232 H1221 0.966 . S
C1232 C1230 1.391 1_655 S
C1232 C1233 1.400 . S
C1233 C1227 1.491 . S
C1233 C1232 1.400 . S
C1233 C1234 1.398 . S
C1234 H1222 0.950 1_545 S
C1234 C1233 1.398 . S
C1234 C1235 1.391 . S
C1235 H1223 0.950 . S
C1235 C1231 1.395 1_655 S
C1235 C1234 1.391 . S
H1236 C1244 0.950 . S
H1237 C1249 0.950 . S
H1238 C1246 0.950 . S
H1239 C1248 0.950 . S
H1240 C1250 0.950 . S
H1241 C1252 0.950 . S
H1242 C1254 0.950 . S
H1243 C1255 0.950 . S
C1244 H1236 0.950 . S
C1244 C1245 1.386 . S
C1244 C1246 1.391 . S
C1245 C1244 1.386 . S
C1245 C1249 1.393 . S
C1246 H1238 0.950 . S
C1246 C1244 1.391 . S
C1246 C1247 1.400 . S
C1247 C1246 1.400 . S
C1247 C1248 1.398 . S
C1247 C1253 1.491 . S
C1248 H1239 0.950 . S
C1248 C1247 1.398 . S
C1248 C1249 1.391 . S
C1249 H1237 0.950 . S
C1249 C1245 1.393 . S
C1249 C1248 1.391 . S
C1250 H1240 0.950 . S
C1250 C1251 1.386 . S
C1250 C1252 1.391 . S
C1251 C1250 1.386 . S
C1251 C1255 1.393 . S
C1252 H1241 0.950 . S
C1252 C1250 1.391 . S
C1252 C1253 1.400 . S
C1253 C1247 1.491 . S
C1253 C1252 1.400 . S
C1253 C1254 1.398 . S
C1254 H1242 0.950 . S
C1254 C1253 1.398 . S
C1254 C1255 1.391 . S
C1255 H1243 0.950 . S
C1255 C1251 1.393 . S
C1255 C1254 1.391 . S
H1256 C1264 0.950 . S
H1257 C1269 0.950 . S
H1258 C1266 0.950 1_565 S
H1259 C1268 0.950 . S
H1260 C1270 0.950 . S
H1261 C1272 0.950 . S
H1262 C1274 0.950 . S
H1263 C1275 0.950 . S
C1264 H1256 0.950 . S
C1264 C1265 1.375 1_565 S
C1264 C1266 1.391 1_565 S
C1265 C1264 1.375 1_545 S
C1265 C1269 1.414 . S
C1266 H1258 0.950 1_545 S
C1266 C1264 1.391 1_545 S
C1266 C1267 1.400 . S
C1267 C1266 1.400 . S
C1267 C1268 1.398 . S
C1267 C1273 1.491 . S
C1268 H1259 0.950 . S
C1268 C1267 1.398 . S
C1268 C1269 1.391 . S
C1269 H1257 0.950 . S
C1269 C1265 1.414 . S
C1269 C1268 1.391 . S
C1270 H1260 0.950 . S
C1270 C1271 1.386 . S
C1270 C1272 1.391 . S
C1271 C1270 1.386 . S
C1271 C1275 1.393 . S
C1272 H1261 0.950 . S
C1272 C1270 1.391 . S
C1272 C1273 1.400 . S
C1273 C1267 1.491 . S
C1273 C1272 1.400 . S
C1273 C1274 1.398 . S
C1274 H1262 0.950 . S
C1274 C1273 1.398 . S
C1274 C1275 1.391 . S
C1275 H1263 0.950 . S
C1275 C1271 1.393 . S
C1275 C1274 1.391 . S
H1276 C1284 0.950 . S
H1277 C1289 0.950 . S
H1278 C1286 0.950 . S
H1279 C1288 0.950 . S
H1280 C1290 0.950 . S
H1281 C1292 0.950 . S
H1282 C1294 0.950 . S
H1283 C1295 0.950 . S
C1284 H1276 0.950 . S
C1284 C1285 1.386 . S
C1284 C1286 1.391 . S
C1285 C1284 1.386 . S
C1285 C1289 1.393 . S
C1286 H1278 0.950 . S
C1286 C1284 1.391 . S
C1286 C1287 1.400 . S
C1287 C1286 1.400 . S
C1287 C1288 1.398 . S
C1287 C1293 1.491 . S
C1288 H1279 0.950 . S
C1288 C1287 1.398 . S
C1288 C1289 1.391 . S
C1289 H1277 0.950 . S
C1289 C1285 1.393 . S
C1289 C1288 1.391 . S
C1290 H1280 0.950 . S
C1290 C1291 1.386 . S
C1290 C1292 1.391 . S
C1291 C1290 1.386 . S
C1291 C1295 1.393 . S
C1292 H1281 0.950 . S
C1292 C1290 1.391 . S
C1292 C1293 1.400 . S
C1293 C1287 1.491 . S
C1293 C1292 1.400 . S
C1293 C1294 1.398 . S
C1294 H1282 0.950 . S
C1294 C1293 1.398 . S
C1294 C1295 1.391 . S
C1295 H1283 0.950 . S
C1295 C1291 1.393 . S
C1295 C1294 1.391 . S
H1296 C1304 0.950 . S
H1297 C1309 0.950 . S
H1298 C1306 0.950 . S
H1299 C1308 0.950 . S
H1300 C1310 0.950 . S
H1301 C1312 0.950 . S
H1302 C1314 0.950 . S
H1303 C1315 0.938 1_545 S
C1304 H1296 0.950 . S
C1304 C1305 1.386 . S
C1304 C1306 1.391 . S
C1305 C1304 1.386 . S
C1305 C1309 1.393 . S
C1306 H1298 0.950 . S
C1306 C1304 1.391 . S
C1306 C1307 1.400 . S
C1307 C1306 1.400 . S
C1307 C1308 1.398 . S
C1307 C1313 1.491 . S
C1308 H1299 0.950 . S
C1308 C1307 1.398 . S
C1308 C1309 1.391 . S
C1309 H1297 0.950 . S
C1309 C1305 1.393 . S
C1309 C1308 1.391 . S
C1310 H1300 0.950 . S
C1310 C1311 1.386 . S
C1310 C1312 1.391 . S
C1311 C1310 1.386 . S
C1311 C1315 1.393 . S
C1312 H1301 0.950 . S
C1312 C1310 1.391 . S
C1312 C1313 1.400 . S
C1313 C1307 1.491 . S
C1313 C1312 1.400 . S
C1313 C1314 1.398 . S
C1314 H1302 0.950 . S
C1314 C1313 1.398 . S
C1314 C1315 1.391 . S
C1315 H1303 0.938 1_565 S
C1315 C1311 1.393 . S
C1315 C1314 1.391 . S
H1316 C1324 0.975 . S
H1317 C1329 0.950 . S
H1318 C1326 0.938 1_556 S
H1319 C1328 0.950 . S
H1320 C1330 0.950 . S
H1321 C1332 0.950 . S
H1322 C1334 0.950 1_556 S
H1323 C1335 0.950 1_556 S
C1324 H1316 0.975 . S
C1324 C1325 1.367 1_556 S
C1324 C1326 1.383 1_556 S
C1325 C1324 1.367 1_554 S
C1325 C1329 1.393 . S
C1326 H1318 0.938 1_554 S
C1326 C1324 1.383 1_554 S
C1326 C1327 1.415 . S
C1327 C1326 1.415 . S
C1327 C1328 1.398 . S
C1327 C1333 1.491 . S
C1328 H1319 0.950 . S
C1328 C1327 1.398 . S
C1328 C1329 1.391 . S
C1329 H1317 0.950 . S
C1329 C1325 1.393 . S
C1329 C1328 1.391 . S
C1330 H1320 0.950 . S
C1330 C1331 1.386 . S
C1330 C1332 1.391 . S
C1331 C1330 1.386 . S
C1331 C1335 1.393 . S
C1332 H1321 0.950 . S
C1332 C1330 1.391 . S
C1332 C1333 1.400 . S
C1333 C1327 1.491 . S
C1333 C1332 1.400 . S
C1333 C1334 1.398 . S
C1334 H1322 0.950 1_554 S
C1334 C1333 1.398 . S
C1334 C1335 1.391 . S
C1335 H1323 0.950 1_554 S
C1335 C1331 1.393 . S
C1335 C1334 1.391 . S
H1336 C1344 0.950 . S
H1337 C1349 0.950 . S
H1338 C1346 0.950 . S
H1339 C1348 0.950 . S
H1340 C1350 0.950 . S
H1341 C1352 0.950 . S
H1342 C1354 0.950 . S
H1343 C1355 0.950 . S
C1344 H1336 0.950 . S
C1344 C1345 1.386 . S
C1344 C1346 1.391 . S
C1345 C1344 1.386 . S
C1345 C1349 1.393 . S
C1346 H1338 0.950 . S
C1346 C1344 1.391 . S
C1346 C1347 1.400 . S
C1347 C1346 1.400 . S
C1347 C1348 1.398 . S
C1347 C1353 1.491 . S
C1348 H1339 0.950 . S
C1348 C1347 1.398 . S
C1348 C1349 1.391 . S
C1349 H1337 0.950 . S
C1349 C1345 1.393 . S
C1349 C1348 1.391 . S
C1350 H1340 0.950 . S
C1350 C1351 1.386 . S
C1350 C1352 1.391 . S
C1351 C1350 1.386 . S
C1351 C1355 1.393 . S
C1352 H1341 0.950 . S
C1352 C1350 1.391 . S
C1352 C1353 1.400 . S
C1353 C1347 1.491 . S
C1353 C1352 1.400 . S
C1353 C1354 1.398 . S
C1354 H1342 0.950 . S
C1354 C1353 1.398 . S
C1354 C1355 1.391 . S
C1355 H1343 0.950 . S
C1355 C1351 1.393 . S
C1355 C1354 1.391 . S
H1356 C1364 0.950 . S
H1357 C1369 0.950 . S
H1358 C1366 0.950 . S
H1359 C1368 0.950 . S
H1360 C1370 0.950 . S
H1361 C1372 0.950 . S
H1362 C1374 0.950 . S
H1363 C1375 0.950 . S
C1364 H1356 0.950 . S
C1364 C1365 1.386 . S
C1364 C1366 1.391 . S
C1365 C1364 1.386 . S
C1365 C1369 1.393 . S
C1366 H1358 0.950 . S
C1366 C1364 1.391 . S
C1366 C1367 1.400 . S
C1367 C1366 1.400 . S
C1367 C1368 1.398 . S
C1367 C1373 1.491 . S
C1368 H1359 0.950 . S
C1368 C1367 1.398 . S
C1368 C1369 1.391 . S
C1369 H1357 0.950 . S
C1369 C1365 1.393 . S
C1369 C1368 1.391 . S
C1370 H1360 0.950 . S
C1370 C1371 1.386 . S
C1370 C1372 1.391 . S
C1371 C1370 1.386 . S
C1371 C1375 1.393 . S
C1372 H1361 0.950 . S
C1372 C1370 1.391 . S
C1372 C1373 1.400 . S
C1373 C1367 1.491 . S
C1373 C1372 1.400 . S
C1373 C1374 1.398 . S
C1374 H1362 0.950 . S
C1374 C1373 1.398 . S
C1374 C1375 1.391 . S
C1375 H1363 0.950 . S
C1375 C1371 1.393 . S
C1375 C1374 1.391 . S
H1376 C1384 0.950 . S
H1377 C1389 0.950 . S
H1378 C1386 0.950 . S
H1379 C1388 0.950 . S
H1380 C1390 0.950 . S
H1381 C1392 0.950 . S
H1382 C1394 0.950 . S
H1383 C1395 0.950 . S
C1384 H1376 0.950 . S
C1384 C1385 1.386 . S
C1384 C1386 1.391 . S
C1385 C1384 1.386 . S
C1385 C1389 1.393 . S
C1386 H1378 0.950 . S
C1386 C1384 1.391 . S
C1386 C1387 1.400 . S
C1387 C1386 1.400 . S
C1387 C1388 1.398 . S
C1387 C1393 1.491 . S
C1388 H1379 0.950 . S
C1388 C1387 1.398 . S
C1388 C1389 1.391 . S
C1389 H1377 0.950 . S
C1389 C1385 1.393 . S
C1389 C1388 1.391 . S
C1390 H1380 0.950 . S
C1390 C1391 1.386 . S
C1390 C1392 1.391 . S
C1391 C1390 1.386 . S
C1391 C1395 1.393 . S
C1392 H1381 0.950 . S
C1392 C1390 1.391 . S
C1392 C1393 1.400 . S
C1393 C1387 1.491 . S
C1393 C1392 1.400 . S
C1393 C1394 1.398 . S
C1394 H1382 0.950 . S
C1394 C1393 1.398 . S
C1394 C1395 1.391 . S
C1395 H1383 0.950 . S
C1395 C1391 1.393 . S
C1395 C1394 1.391 . S
H1396 C1404 0.950 . S
H1397 C1409 0.950 . S
H1398 C1406 0.950 . S
H1399 C1408 0.950 . S
H1400 C1410 0.950 . S
H1401 C1412 0.950 . S
H1402 C1414 0.950 . S
H1403 C1415 0.950 . S
C1404 H1396 0.950 . S
C1404 C1405 1.386 . S
C1404 C1406 1.391 . S
C1405 C1404 1.386 . S
C1405 C1409 1.393 . S
C1406 H1398 0.950 . S
C1406 C1404 1.391 . S
C1406 C1407 1.400 . S
C1407 C1406 1.400 . S
C1407 C1408 1.398 . S
C1407 C1413 1.491 . S
C1408 H1399 0.950 . S
C1408 C1407 1.398 . S
C1408 C1409 1.391 . S
C1409 H1397 0.950 . S
C1409 C1405 1.393 . S
C1409 C1408 1.391 . S
C1410 H1400 0.950 . S
C1410 C1411 1.386 . S
C1410 C1412 1.391 . S
C1411 C1410 1.386 . S
C1411 C1415 1.393 . S
C1412 H1401 0.950 . S
C1412 C1410 1.391 . S
C1412 C1413 1.400 . S
C1413 C1407 1.491 . S
C1413 C1412 1.400 . S
C1413 C1414 1.398 . S
C1414 H1402 0.950 . S
C1414 C1413 1.398 . S
C1414 C1415 1.391 . S
C1415 H1403 0.950 . S
C1415 C1411 1.393 . S
C1415 C1414 1.391 . S
H1416 C1424 0.950 . S
H1417 C1429 0.950 . S
H1418 C1426 0.950 . S
H1419 C1428 0.950 . S
H1420 C1430 0.950 . S
H1421 C1432 0.950 . S
H1422 C1434 0.950 . S
H1423 C1435 0.950 . S
C1424 H1416 0.950 . S
C1424 C1425 1.386 . S
C1424 C1426 1.391 . S
C1425 C1424 1.386 . S
C1425 C1429 1.393 . S
C1426 H1418 0.950 . S
C1426 C1424 1.391 . S
C1426 C1427 1.400 . S
C1427 C1426 1.400 . S
C1427 C1428 1.398 . S
C1427 C1433 1.491 . S
C1428 H1419 0.950 . S
C1428 C1427 1.398 . S
C1428 C1429 1.391 . S
C1429 H1417 0.950 . S
C1429 C1425 1.393 . S
C1429 C1428 1.391 . S
C1430 H1420 0.950 . S
C1430 C1431 1.386 . S
C1430 C1432 1.391 . S
C1431 C1430 1.386 . S
C1431 C1435 1.393 . S
C1432 H1421 0.950 . S
C1432 C1430 1.391 . S
C1432 C1433 1.400 . S
C1433 C1427 1.491 . S
C1433 C1432 1.400 . S
C1433 C1434 1.398 . S
C1434 H1422 0.950 . S
C1434 C1433 1.398 . S
C1434 C1435 1.391 . S
C1435 H1423 0.950 . S
C1435 C1431 1.393 . S
C1435 C1434 1.391 . S
H1436 C1444 0.950 . S
H1437 C1449 0.950 . S
H1438 C1446 0.950 . S
H1439 C1448 0.950 . S
H1440 C1450 0.950 . S
H1441 C1452 0.950 . S
H1442 C1454 0.950 . S
H1443 C1455 0.950 . S
C1444 H1436 0.950 . S
C1444 C1445 1.386 . S
C1444 C1446 1.391 . S
C1445 C1444 1.386 . S
C1445 C1449 1.393 . S
C1446 H1438 0.950 . S
C1446 C1444 1.391 . S
C1446 C1447 1.400 . S
C1447 C1446 1.400 . S
C1447 C1448 1.398 . S
C1447 C1453 1.491 . S
C1448 H1439 0.950 . S
C1448 C1447 1.398 . S
C1448 C1449 1.391 . S
C1449 H1437 0.950 . S
C1449 C1445 1.393 . S
C1449 C1448 1.391 . S
C1450 H1440 0.950 . S
C1450 C1451 1.386 . S
C1450 C1452 1.391 . S
C1451 C1450 1.386 . S
C1451 C1455 1.393 . S
C1452 H1441 0.950 . S
C1452 C1450 1.391 . S
C1452 C1453 1.400 . S
C1453 C1447 1.491 . S
C1453 C1452 1.400 . S
C1453 C1454 1.398 . S
C1454 H1442 0.950 . S
C1454 C1453 1.398 . S
C1454 C1455 1.391 . S
C1455 H1443 0.950 . S
C1455 C1451 1.393 . S
C1455 C1454 1.391 . S
H1456 C1464 0.950 . S
H1457 C1469 0.950 . S
H1458 C1466 0.950 . S
H1459 C1468 0.950 . S
H1460 C1470 0.950 . S
H1461 C1472 0.950 . S
H1462 C1474 0.950 . S
H1463 C1475 0.950 . S
C1464 H1456 0.950 . S
C1464 C1465 1.386 . S
C1464 C1466 1.391 . S
C1465 C1464 1.386 . S
C1465 C1469 1.393 . S
C1466 H1458 0.950 . S
C1466 C1464 1.391 . S
C1466 C1467 1.400 . S
C1467 C1466 1.400 . S
C1467 C1468 1.398 . S
C1467 C1473 1.491 . S
C1468 H1459 0.950 . S
C1468 C1467 1.398 . S
C1468 C1469 1.391 . S
C1469 H1457 0.950 . S
C1469 C1465 1.393 . S
C1469 C1468 1.391 . S
C1470 H1460 0.950 . S
C1470 C1471 1.386 . S
C1470 C1472 1.391 . S
C1471 C1470 1.386 . S
C1471 C1475 1.393 . S
C1472 H1461 0.950 . S
C1472 C1470 1.391 . S
C1472 C1473 1.400 . S
C1473 C1467 1.491 . S
C1473 C1472 1.400 . S
C1473 C1474 1.398 . S
C1474 H1462 0.950 . S
C1474 C1473 1.398 . S
C1474 C1475 1.391 . S
C1475 H1463 0.950 . S
C1475 C1471 1.393 . S
C1475 C1474 1.391 . S
H1476 C1484 0.950 . S
H1477 C1489 0.950 . S
H1478 C1486 0.950 . S
H1479 C1488 0.950 . S
H1480 C1490 0.950 . S
H1481 C1492 0.950 . S
H1482 C1494 0.950 . S
H1483 C1495 0.950 . S
C1484 H1476 0.950 . S
C1484 C1485 1.386 . S
C1484 C1486 1.391 . S
C1485 C1484 1.386 . S
C1485 C1489 1.393 . S
C1486 H1478 0.950 . S
C1486 C1484 1.391 . S
C1486 C1487 1.400 . S
C1487 C1486 1.400 . S
C1487 C1488 1.398 . S
C1487 C1493 1.491 . S
C1488 H1479 0.950 . S
C1488 C1487 1.398 . S
C1488 C1489 1.391 . S
C1489 H1477 0.950 . S
C1489 C1485 1.393 . S
C1489 C1488 1.391 . S
C1490 H1480 0.950 . S
C1490 C1491 1.386 . S
C1490 C1492 1.391 . S
C1491 C1490 1.386 . S
C1491 C1495 1.393 . S
C1492 H1481 0.950 . S
C1492 C1490 1.391 . S
C1492 C1493 1.400 . S
C1493 C1487 1.491 . S
C1493 C1492 1.400 . S
C1493 C1494 1.398 . S
C1494 H1482 0.950 . S
C1494 C1493 1.398 . S
C1494 C1495 1.391 . S
C1495 H1483 0.950 . S
C1495 C1491 1.393 . S
C1495 C1494 1.391 . S
H1496 C1504 0.950 . S
H1497 C1509 0.950 . S
H1498 C1506 0.950 . S
H1499 C1508 0.950 . S
H1500 C1510 0.950 . S
H1501 C1512 0.950 . S
H1502 C1514 0.950 . S
H1503 C1515 0.950 . S
C1504 H1496 0.950 . S
C1504 C1505 1.386 . S
C1504 C1506 1.391 . S
C1505 C1504 1.386 . S
C1505 C1509 1.393 . S
C1506 H1498 0.950 . S
C1506 C1504 1.391 . S
C1506 C1507 1.400 . S
C1507 C1506 1.400 . S
C1507 C1508 1.398 . S
C1507 C1513 1.491 . S
C1508 H1499 0.950 . S
C1508 C1507 1.398 . S
C1508 C1509 1.391 . S
C1509 H1497 0.950 . S
C1509 C1505 1.393 . S
C1509 C1508 1.391 . S
C1510 H1500 0.950 . S
C1510 C1511 1.386 . S
C1510 C1512 1.391 . S
C1511 C1510 1.386 . S
C1511 C1515 1.393 . S
C1512 H1501 0.950 . S
C1512 C1510 1.391 . S
C1512 C1513 1.400 . S
C1513 C1507 1.491 . S
C1513 C1512 1.400 . S
C1513 C1514 1.398 . S
C1514 H1502 0.950 . S
C1514 C1513 1.398 . S
C1514 C1515 1.391 . S
C1515 H1503 0.950 . S
C1515 C1511 1.393 . S
C1515 C1514 1.391 . S
H1516 C1524 0.950 . S
H1517 C1529 0.950 . S
H1518 C1526 0.950 . S
H1519 C1528 0.950 . S
H1520 C1530 0.950 . S
H1521 C1532 0.950 . S
H1522 C1534 0.950 . S
H1523 C1535 0.950 . S
C1524 H1516 0.950 . S
C1524 C1525 1.386 . S
C1524 C1526 1.391 . S
C1525 C1524 1.386 . S
C1525 C1529 1.393 . S
C1526 H1518 0.950 . S
C1526 C1524 1.391 . S
C1526 C1527 1.400 . S
C1527 C1526 1.400 . S
C1527 C1528 1.398 . S
C1527 C1533 1.491 . S
C1528 H1519 0.950 . S
C1528 C1527 1.398 . S
C1528 C1529 1.391 . S
C1529 H1517 0.950 . S
C1529 C1525 1.393 . S
C1529 C1528 1.391 . S
C1530 H1520 0.950 . S
C1530 C1531 1.386 . S
C1530 C1532 1.391 . S
C1531 C1530 1.386 . S
C1531 C1535 1.393 . S
C1532 H1521 0.950 . S
C1532 C1530 1.391 . S
C1532 C1533 1.400 . S
C1533 C1527 1.491 . S
C1533 C1532 1.400 . S
C1533 C1534 1.398 . S
C1534 H1522 0.950 . S
C1534 C1533 1.398 . S
C1534 C1535 1.391 . S
C1535 H1523 0.950 . S
C1535 C1531 1.393 . S
C1535 C1534 1.391 . S
H1536 C1544 0.950 . S
H1537 C1549 0.950 . S
H1538 C1546 0.950 . S
H1539 C1548 0.950 . S
H1540 C1550 0.950 . S
H1541 C1552 0.950 . S
H1542 C1554 0.950 . S
H1543 C1555 0.950 . S
C1544 H1536 0.950 . S
C1544 C1545 1.386 . S
C1544 C1546 1.391 . S
C1545 C1544 1.386 . S
C1545 C1549 1.393 . S
C1546 H1538 0.950 . S
C1546 C1544 1.391 . S
C1546 C1547 1.400 . S
C1547 C1546 1.400 . S
C1547 C1548 1.398 . S
C1547 C1553 1.491 . S
C1548 H1539 0.950 . S
C1548 C1547 1.398 . S
C1548 C1549 1.391 . S
C1549 H1537 0.950 . S
C1549 C1545 1.393 . S
C1549 C1548 1.391 . S
C1550 H1540 0.950 . S
C1550 C1551 1.386 . S
C1550 C1552 1.391 . S
C1551 C1550 1.386 . S
C1551 C1555 1.393 . S
C1552 H1541 0.950 . S
C1552 C1550 1.391 . S
C1552 C1553 1.400 . S
C1553 C1547 1.491 . S
C1553 C1552 1.400 . S
C1553 C1554 1.398 . S
C1554 H1542 0.950 . S
C1554 C1553 1.398 . S
C1554 C1555 1.391 . S
C1555 H1543 0.950 . S
C1555 C1551 1.393 . S
C1555 C1554 1.391 . S
H1556 C1564 0.950 . S
H1557 C1569 0.950 . S
H1558 C1566 0.950 . S
H1559 C1568 0.950 . S
H1560 C1570 0.950 . S
H1561 C1572 0.950 . S
H1562 C1574 0.950 . S
H1563 C1575 0.950 . S
C1564 H1556 0.950 . S
C1564 C1565 1.386 . S
C1564 C1566 1.391 . S
C1565 C1564 1.386 . S
C1565 C1569 1.393 . S
C1566 H1558 0.950 . S
C1566 C1564 1.391 . S
C1566 C1567 1.400 . S
C1567 C1566 1.400 . S
C1567 C1568 1.398 . S
C1567 C1573 1.491 . S
C1568 H1559 0.950 . S
C1568 C1567 1.398 . S
C1568 C1569 1.391 . S
C1569 H1557 0.950 . S
C1569 C1565 1.393 . S
C1569 C1568 1.391 . S
C1570 H1560 0.950 . S
C1570 C1571 1.386 . S
C1570 C1572 1.391 . S
C1571 C1570 1.386 . S
C1571 C1575 1.393 . S
C1572 H1561 0.950 . S
C1572 C1570 1.391 . S
C1572 C1573 1.400 . S
C1573 C1567 1.491 . S
C1573 C1572 1.400 . S
C1573 C1574 1.398 . S
C1574 H1562 0.950 . S
C1574 C1573 1.398 . S
C1574 C1575 1.391 . S
C1575 H1563 0.950 . S
C1575 C1571 1.393 . S
C1575 C1574 1.391 . S
H1576 C1584 0.950 . S
H1577 C1589 0.950 . S
H1578 C1586 0.950 . S
H1579 C1588 0.950 . S
H1580 C1590 0.950 . S
H1581 C1592 0.950 . S
H1582 C1594 0.936 1_554 S
H1583 C1595 0.950 . S
C1584 H1576 0.950 . S
C1584 C1585 1.386 . S
C1584 C1586 1.391 . S
C1585 C1584 1.386 . S
C1585 C1589 1.393 . S
C1586 H1578 0.950 . S
C1586 C1584 1.391 . S
C1586 C1587 1.400 . S
C1587 C1586 1.400 . S
C1587 C1588 1.398 . S
C1587 C1593 1.491 . S
C1588 H1579 0.950 . S
C1588 C1587 1.398 . S
C1588 C1589 1.391 . S
C1589 H1577 0.950 . S
C1589 C1585 1.393 . S
C1589 C1588 1.391 . S
C1590 H1580 0.950 . S
C1590 C1591 1.386 . S
C1590 C1592 1.391 . S
C1591 C1590 1.386 . S
C1591 C1595 1.393 1_556 S
C1592 H1581 0.950 . S
C1592 C1590 1.391 . S
C1592 C1593 1.400 . S
C1593 C1587 1.491 . S
C1593 C1592 1.400 . S
C1593 C1594 1.398 . S
C1594 H1582 0.936 1_556 S
C1594 C1593 1.398 . S
C1594 C1595 1.391 1_556 S
C1595 H1583 0.950 . S
C1595 C1591 1.393 1_554 S
C1595 C1594 1.391 1_554 S
H1596 C1604 0.950 . S
H1597 C1609 0.950 . S
H1598 C1606 0.950 . S
H1599 C1608 0.950 . S
H1600 C1610 0.950 . S
H1601 C1612 0.950 . S
H1602 C1614 0.950 . S
H1603 C1615 0.950 . S
C1604 H1596 0.950 . S
C1604 C1605 1.386 . S
C1604 C1606 1.391 . S
C1605 C1604 1.386 . S
C1605 C1609 1.393 . S
C1606 H1598 0.950 . S
C1606 C1604 1.391 . S
C1606 C1607 1.400 . S
C1607 C1606 1.400 . S
C1607 C1608 1.398 . S
C1607 C1613 1.491 . S
C1608 H1599 0.950 . S
C1608 C1607 1.398 . S
C1608 C1609 1.391 . S
C1609 H1597 0.950 . S
C1609 C1605 1.393 . S
C1609 C1608 1.391 . S
C1610 H1600 0.950 . S
C1610 C1611 1.386 . S
C1610 C1612 1.391 . S
C1611 C1610 1.386 . S
C1611 C1615 1.393 . S
C1612 H1601 0.950 . S
C1612 C1610 1.391 . S
C1612 C1613 1.400 . S
C1613 C1607 1.491 . S
C1613 C1612 1.400 . S
C1613 C1614 1.398 . S
C1614 H1602 0.950 . S
C1614 C1613 1.398 . S
C1614 C1615 1.391 . S
C1615 H1603 0.950 . S
C1615 C1611 1.393 . S
C1615 C1614 1.391 . S
H1616 C1624 0.950 . S
H1617 C1629 0.950 . S
H1618 C1626 0.950 . S
H1619 C1628 0.950 . S
H1620 C1630 0.950 . S
H1621 C1632 0.950 . S
H1622 C1634 0.950 . S
H1623 C1635 0.950 . S
C1624 H1616 0.950 . S
C1624 C1625 1.386 . S
C1624 C1626 1.391 . S
C1625 C1624 1.386 . S
C1625 C1629 1.393 . S
C1626 H1618 0.950 . S
C1626 C1624 1.391 . S
C1626 C1627 1.400 . S
C1627 C1626 1.400 . S
C1627 C1628 1.398 . S
C1627 C1633 1.491 . S
C1628 H1619 0.950 . S
C1628 C1627 1.398 . S
C1628 C1629 1.391 . S
C1629 H1617 0.950 . S
C1629 C1625 1.393 . S
C1629 C1628 1.391 . S
C1630 H1620 0.950 . S
C1630 C1631 1.386 . S
C1630 C1632 1.391 . S
C1631 C1630 1.386 . S
C1631 C1635 1.393 . S
C1632 H1621 0.950 . S
C1632 C1630 1.391 . S
C1632 C1633 1.400 . S
C1633 C1627 1.491 . S
C1633 C1632 1.400 . S
C1633 C1634 1.398 . S
C1634 H1622 0.950 . S
C1634 C1633 1.398 . S
C1634 C1635 1.391 . S
C1635 H1623 0.950 . S
C1635 C1631 1.393 . S
C1635 C1634 1.391 . S
H1636 C1644 0.950 . S
H1637 C1649 0.950 . S
H1638 C1646 0.950 . S
H1639 C1648 0.950 . S
H1640 C1650 0.950 . S
H1641 C1652 0.950 . S
H1642 C1654 0.950 . S
H1643 C1655 0.950 . S
C1644 H1636 0.950 . S
C1644 C1645 1.386 . S
C1644 C1646 1.391 . S
C1645 C1644 1.386 . S
C1645 C1649 1.393 . S
C1646 H1638 0.950 . S
C1646 C1644 1.391 . S
C1646 C1647 1.400 . S
C1647 C1646 1.400 . S
C1647 C1648 1.398 . S
C1647 C1653 1.491 . S
C1648 H1639 0.950 . S
C1648 C1647 1.398 . S
C1648 C1649 1.391 . S
C1649 H1637 0.950 . S
C1649 C1645 1.393 . S
C1649 C1648 1.391 . S
C1650 H1640 0.950 . S
C1650 C1651 1.386 . S
C1650 C1652 1.391 . S
C1651 C1650 1.386 . S
C1651 C1655 1.393 . S
C1652 H1641 0.950 . S
C1652 C1650 1.391 . S
C1652 C1653 1.400 . S
C1653 C1647 1.491 . S
C1653 C1652 1.400 . S
C1653 C1654 1.398 . S
C1654 H1642 0.950 . S
C1654 C1653 1.398 . S
C1654 C1655 1.391 . S
C1655 H1643 0.950 . S
C1655 C1651 1.393 . S
C1655 C1654 1.391 . S
H1656 C1664 0.950 . S
H1657 C1669 0.950 . S
H1658 C1666 0.950 . S
H1659 C1668 0.950 . S
H1660 C1670 0.950 . S
H1661 C1672 0.950 . S
H1662 C1674 0.950 . S
H1663 C1675 0.950 . S
C1664 H1656 0.950 . S
C1664 C1665 1.386 . S
C1664 C1666 1.391 . S
C1665 C1664 1.386 . S
C1665 C1669 1.393 . S
C1666 H1658 0.950 . S
C1666 C1664 1.391 . S
C1666 C1667 1.400 . S
C1667 C1666 1.400 . S
C1667 C1668 1.398 . S
C1667 C1673 1.491 . S
C1668 H1659 0.950 . S
C1668 C1667 1.398 . S
C1668 C1669 1.391 . S
C1669 H1657 0.950 . S
C1669 C1665 1.393 . S
C1669 C1668 1.391 . S
C1670 H1660 0.950 . S
C1670 C1671 1.386 . S
C1670 C1672 1.391 . S
C1671 C1670 1.386 . S
C1671 C1675 1.393 . S
C1672 H1661 0.950 . S
C1672 C1670 1.391 . S
C1672 C1673 1.400 . S
C1673 C1667 1.491 . S
C1673 C1672 1.400 . S
C1673 C1674 1.398 . S
C1674 H1662 0.950 . S
C1674 C1673 1.398 . S
C1674 C1675 1.391 . S
C1675 H1663 0.950 . S
C1675 C1671 1.393 . S
C1675 C1674 1.391 . S
H1676 C1684 0.950 . S
H1677 C1689 0.950 . S
H1678 C1686 0.950 . S
H1679 C1688 0.950 . S
H1680 C1690 0.950 . S
H1681 C1692 0.950 . S
H1682 C1694 0.950 . S
H1683 C1695 0.950 . S
C1684 H1676 0.950 . S
C1684 C1685 1.386 . S
C1684 C1686 1.391 . S
C1685 C1684 1.386 . S
C1685 C1689 1.393 . S
C1686 H1678 0.950 . S
C1686 C1684 1.391 . S
C1686 C1687 1.400 . S
C1687 C1686 1.400 . S
C1687 C1688 1.398 . S
C1687 C1693 1.491 . S
C1688 H1679 0.950 . S
C1688 C1687 1.398 . S
C1688 C1689 1.391 . S
C1689 H1677 0.950 . S
C1689 C1685 1.393 . S
C1689 C1688 1.391 . S
C1690 H1680 0.950 . S
C1690 C1691 1.386 . S
C1690 C1692 1.391 . S
C1691 C1690 1.386 . S
C1691 C1695 1.393 . S
C1692 H1681 0.950 . S
C1692 C1690 1.391 . S
C1692 C1693 1.400 . S
C1693 C1687 1.491 . S
C1693 C1692 1.400 . S
C1693 C1694 1.398 . S
C1694 H1682 0.950 . S
C1694 C1693 1.398 . S
C1694 C1695 1.391 . S
C1695 H1683 0.950 . S
C1695 C1691 1.393 . S
C1695 C1694 1.391 . S
H1696 C1704 0.950 . S
H1697 C1709 0.950 . S
H1698 C1706 0.950 . S
H1699 C1708 0.950 . S
H1700 C1710 0.950 . S
H1701 C1712 0.950 . S
H1702 C1714 0.950 . S
H1703 C1715 0.950 . S
C1704 H1696 0.950 . S
C1704 C1705 1.386 . S
C1704 C1706 1.391 . S
C1705 C1704 1.386 . S
C1705 C1709 1.393 . S
C1706 H1698 0.950 . S
C1706 C1704 1.391 . S
C1706 C1707 1.400 . S
C1707 C1706 1.400 . S
C1707 C1708 1.398 . S
C1707 C1713 1.491 . S
C1708 H1699 0.950 . S
C1708 C1707 1.398 . S
C1708 C1709 1.391 . S
C1709 H1697 0.950 . S
C1709 C1705 1.393 . S
C1709 C1708 1.391 . S
C1710 H1700 0.950 . S
C1710 C1711 1.386 . S
C1710 C1712 1.391 . S
C1711 C1710 1.386 . S
C1711 C1715 1.393 . S
C1712 H1701 0.950 . S
C1712 C1710 1.391 . S
C1712 C1713 1.400 . S
C1713 C1707 1.491 . S
C1713 C1712 1.400 . S
C1713 C1714 1.398 . S
C1714 H1702 0.950 . S
C1714 C1713 1.398 . S
C1714 C1715 1.391 . S
C1715 H1703 0.950 . S
C1715 C1711 1.393 . S
C1715 C1714 1.391 . S
H1716 C1724 0.950 . S
H1717 C1729 0.950 . S
H1718 C1726 0.950 . S
H1719 C1728 0.950 . S
H1720 C1730 0.950 . S
H1721 C1732 0.950 . S
H1722 C1734 0.950 . S
H1723 C1735 0.950 . S
C1724 H1716 0.950 . S
C1724 C1725 1.386 . S
C1724 C1726 1.391 . S
C1725 C1724 1.386 . S
C1725 C1729 1.393 . S
C1726 H1718 0.950 . S
C1726 C1724 1.391 . S
C1726 C1727 1.400 . S
C1727 C1726 1.400 . S
C1727 C1728 1.398 . S
C1727 C1733 1.491 . S
C1728 H1719 0.950 . S
C1728 C1727 1.398 . S
C1728 C1729 1.391 . S
C1729 H1717 0.950 . S
C1729 C1725 1.393 . S
C1729 C1728 1.391 . S
C1730 H1720 0.950 . S
C1730 C1731 1.386 . S
C1730 C1732 1.391 . S
C1731 C1730 1.386 . S
C1731 C1735 1.393 . S
C1732 H1721 0.950 . S
C1732 C1730 1.391 . S
C1732 C1733 1.400 . S
C1733 C1727 1.491 . S
C1733 C1732 1.400 . S
C1733 C1734 1.398 . S
C1734 H1722 0.950 . S
C1734 C1733 1.398 . S
C1734 C1735 1.391 . S
C1735 H1723 0.950 . S
C1735 C1731 1.393 . S
C1735 C1734 1.391 . S
H1736 C1744 0.950 . S
H1737 C1749 0.950 . S
H1738 C1746 0.950 . S
H1739 C1748 0.950 . S
H1740 C1750 0.950 . S
H1741 C1752 0.950 . S
H1742 C1754 0.950 . S
H1743 C1755 0.912 1_565 S
C1744 H1736 0.950 . S
C1744 C1745 1.386 . S
C1744 C1746 1.391 . S
C1745 C1744 1.386 . S
C1745 C1749 1.393 . S
C1746 H1738 0.950 . S
C1746 C1744 1.391 . S
C1746 C1747 1.400 . S
C1747 C1746 1.400 . S
C1747 C1748 1.398 . S
C1747 C1753 1.491 . S
C1748 H1739 0.950 . S
C1748 C1747 1.398 . S
C1748 C1749 1.391 . S
C1749 H1737 0.950 . S
C1749 C1745 1.393 . S
C1749 C1748 1.391 . S
C1750 H1740 0.950 . S
C1750 C1751 1.386 . S
C1750 C1752 1.391 . S
C1751 C1750 1.386 . S
C1751 C1755 1.409 . S
C1752 H1741 0.950 . S
C1752 C1750 1.391 . S
C1752 C1753 1.400 . S
C1753 C1747 1.491 . S
C1753 C1752 1.400 . S
C1753 C1754 1.398 . S
C1754 H1742 0.950 . S
C1754 C1753 1.398 . S
C1754 C1755 1.414 . S
C1755 H1743 0.912 1_545 S
C1755 C1751 1.409 . S
C1755 C1754 1.414 . S
H1756 C1764 0.950 . S
H1757 C1769 0.950 . S
H1758 C1766 0.950 . S
H1759 C1768 0.950 . S
H1760 C1770 0.950 . S
H1761 C1772 0.950 . S
H1762 C1774 0.950 . S
H1763 C1775 0.950 . S
C1764 H1756 0.950 . S
C1764 C1765 1.386 . S
C1764 C1766 1.391 . S
C1765 C1764 1.386 . S
C1765 C1769 1.393 . S
C1766 H1758 0.950 . S
C1766 C1764 1.391 . S
C1766 C1767 1.400 . S
C1767 C1766 1.400 . S
C1767 C1768 1.398 . S
C1767 C1773 1.491 . S
C1768 H1759 0.950 . S
C1768 C1767 1.398 . S
C1768 C1769 1.391 . S
C1769 H1757 0.950 . S
C1769 C1765 1.393 . S
C1769 C1768 1.391 . S
C1770 H1760 0.950 . S
C1770 C1771 1.386 . S
C1770 C1772 1.391 . S
C1771 C1770 1.386 . S
C1771 C1775 1.393 . S
C1772 H1761 0.950 . S
C1772 C1770 1.391 . S
C1772 C1773 1.400 . S
C1773 C1767 1.491 . S
C1773 C1772 1.400 . S
C1773 C1774 1.398 . S
C1774 H1762 0.950 . S
C1774 C1773 1.398 . S
C1774 C1775 1.391 . S
C1775 H1763 0.950 . S
C1775 C1771 1.393 . S
C1775 C1774 1.391 . S
H1776 C1784 0.950 . S
H1777 C1789 0.950 . S
H1778 C1786 0.950 . S
H1779 C1788 0.950 . S
H1780 C1790 0.950 . S
H1781 C1792 0.950 . S
H1782 C1794 0.955 1_554 S
H1783 C1795 0.950 1_554 S
C1784 H1776 0.950 . S
C1784 C1785 1.411 . S
C1784 C1786 1.391 . S
C1785 C1784 1.411 . S
C1785 C1789 1.358 1_554 S
C1786 H1778 0.950 . S
C1786 C1784 1.391 . S
C1786 C1787 1.400 1_554 S
C1787 C1786 1.400 1_556 S
C1787 C1788 1.398 . S
C1787 C1793 1.491 . S
C1788 H1779 0.950 . S
C1788 C1787 1.398 . S
C1788 C1789 1.391 . S
C1789 H1777 0.950 . S
C1789 C1785 1.358 1_556 S
C1789 C1788 1.391 . S
C1790 H1780 0.950 . S
C1790 C1791 1.386 . S
C1790 C1792 1.391 . S
C1791 C1790 1.386 . S
C1791 C1795 1.393 . S
C1792 H1781 0.950 . S
C1792 C1790 1.391 . S
C1792 C1793 1.400 . S
C1793 C1787 1.491 . S
C1793 C1792 1.400 . S
C1793 C1794 1.395 . S
C1794 H1782 0.955 1_556 S
C1794 C1793 1.395 . S
C1794 C1795 1.389 . S
C1795 H1783 0.950 1_556 S
C1795 C1791 1.393 . S
C1795 C1794 1.389 . S
H1796 C1804 0.950 . S
H1797 C1809 0.950 . S
H1798 C1806 0.950 . S
H1799 C1808 0.950 . S
H1800 C1810 0.950 . S
H1801 C1812 0.950 . S
H1802 C1814 0.950 . S
H1803 C1815 0.950 . S
C1804 H1796 0.950 . S
C1804 C1805 1.386 . S
C1804 C1806 1.391 . S
C1805 C1804 1.386 . S
C1805 C1809 1.393 . S
C1806 H1798 0.950 . S
C1806 C1804 1.391 . S
C1806 C1807 1.400 . S
C1807 C1806 1.400 . S
C1807 C1808 1.398 . S
C1807 C1813 1.491 . S
C1808 H1799 0.950 . S
C1808 C1807 1.398 . S
C1808 C1809 1.391 . S
C1809 H1797 0.950 . S
C1809 C1805 1.393 . S
C1809 C1808 1.391 . S
C1810 H1800 0.950 . S
C1810 C1811 1.386 . S
C1810 C1812 1.391 . S
C1811 C1810 1.386 . S
C1811 C1815 1.393 . S
C1812 H1801 0.950 . S
C1812 C1810 1.391 . S
C1812 C1813 1.400 . S
C1813 C1807 1.491 . S
C1813 C1812 1.400 . S
C1813 C1814 1.398 . S
C1814 H1802 0.950 . S
C1814 C1813 1.398 . S
C1814 C1815 1.391 . S
C1815 H1803 0.950 . S
C1815 C1811 1.393 . S
C1815 C1814 1.391 . S
H1816 C1824 0.950 . S
H1817 C1829 0.950 . S
H1818 C1826 0.950 . S
H1819 C1828 0.950 . S
H1820 C1830 0.950 . S
H1821 C1832 0.950 . S
H1822 C1834 0.950 . S
H1823 C1835 0.950 . S
C1824 H1816 0.950 . S
C1824 C1825 1.386 . S
C1824 C1826 1.391 . S
C1825 C1824 1.386 . S
C1825 C1829 1.393 . S
C1826 H1818 0.950 . S
C1826 C1824 1.391 . S
C1826 C1827 1.400 . S
C1827 C1826 1.400 . S
C1827 C1828 1.398 . S
C1827 C1833 1.491 . S
C1828 H1819 0.950 . S
C1828 C1827 1.398 . S
C1828 C1829 1.391 . S
C1829 H1817 0.950 . S
C1829 C1825 1.393 . S
C1829 C1828 1.391 . S
C1830 H1820 0.950 . S
C1830 C1831 1.386 . S
C1830 C1832 1.391 . S
C1831 C1830 1.386 . S
C1831 C1835 1.393 . S
C1832 H1821 0.950 . S
C1832 C1830 1.391 . S
C1832 C1833 1.400 . S
C1833 C1827 1.491 . S
C1833 C1832 1.400 . S
C1833 C1834 1.398 . S
C1834 H1822 0.950 . S
C1834 C1833 1.398 . S
C1834 C1835 1.391 . S
C1835 H1823 0.950 . S
C1835 C1831 1.393 . S
C1835 C1834 1.391 . S
H1836 C1844 0.950 . S
H1837 C1849 0.950 . S
H1838 C1846 0.950 . S
H1839 C1848 0.950 . S
H1840 C1850 0.950 . S
H1841 C1852 0.950 . S
H1842 C1854 0.950 . S
H1843 C1855 0.950 . S
C1844 H1836 0.950 . S
C1844 C1845 1.386 . S
C1844 C1846 1.391 . S
C1845 C1844 1.386 . S
C1845 C1849 1.393 . S
C1846 H1838 0.950 . S
C1846 C1844 1.391 . S
C1846 C1847 1.400 . S
C1847 C1846 1.400 . S
C1847 C1848 1.398 . S
C1847 C1853 1.491 . S
C1848 H1839 0.950 . S
C1848 C1847 1.398 . S
C1848 C1849 1.391 . S
C1849 H1837 0.950 . S
C1849 C1845 1.393 . S
C1849 C1848 1.391 . S
C1850 H1840 0.950 . S
C1850 C1851 1.386 . S
C1850 C1852 1.391 . S
C1851 C1850 1.386 . S
C1851 C1855 1.393 . S
C1852 H1841 0.950 . S
C1852 C1850 1.391 . S
C1852 C1853 1.400 . S
C1853 C1847 1.491 . S
C1853 C1852 1.400 . S
C1853 C1854 1.398 . S
C1854 H1842 0.950 . S
C1854 C1853 1.398 . S
C1854 C1855 1.391 . S
C1855 H1843 0.950 . S
C1855 C1851 1.393 . S
C1855 C1854 1.391 . S
H1856 C1864 0.950 . S
H1857 C1869 0.950 . S
H1858 C1866 0.950 . S
H1859 C1868 0.950 . S
H1860 C1870 0.950 . S
H1861 C1872 0.950 . S
H1862 C1874 0.950 . S
H1863 C1875 0.950 . S
C1864 H1856 0.950 . S
C1864 C1865 1.386 . S
C1864 C1866 1.391 . S
C1865 C1864 1.386 . S
C1865 C1869 1.393 . S
C1866 H1858 0.950 . S
C1866 C1864 1.391 . S
C1866 C1867 1.400 . S
C1867 C1866 1.400 . S
C1867 C1868 1.398 . S
C1867 C1873 1.491 . S
C1868 H1859 0.950 . S
C1868 C1867 1.398 . S
C1868 C1869 1.391 . S
C1869 H1857 0.950 . S
C1869 C1865 1.393 . S
C1869 C1868 1.391 . S
C1870 H1860 0.950 . S
C1870 C1871 1.386 . S
C1870 C1872 1.391 . S
C1871 C1870 1.386 . S
C1871 C1875 1.393 . S
C1872 H1861 0.950 . S
C1872 C1870 1.391 . S
C1872 C1873 1.400 . S
C1873 C1867 1.491 . S
C1873 C1872 1.400 . S
C1873 C1874 1.398 . S
C1874 H1862 0.950 . S
C1874 C1873 1.398 . S
C1874 C1875 1.391 . S
C1875 H1863 0.950 . S
C1875 C1871 1.393 . S
C1875 C1874 1.391 . S
H1876 C1884 0.950 . S
H1877 C1889 0.950 . S
H1878 C1886 0.950 . S
H1879 C1888 0.950 . S
H1880 C1890 0.950 . S
H1881 C1892 0.950 . S
H1882 C1894 0.950 . S
H1883 C1895 0.950 1_545 S
C1884 H1876 0.950 . S
C1884 C1885 1.386 . S
C1884 C1886 1.391 . S
C1885 C1884 1.386 . S
C1885 C1889 1.393 . S
C1886 H1878 0.950 . S
C1886 C1884 1.391 . S
C1886 C1887 1.400 . S
C1887 C1886 1.400 . S
C1887 C1888 1.398 . S
C1887 C1893 1.491 . S
C1888 H1879 0.950 . S
C1888 C1887 1.398 . S
C1888 C1889 1.391 . S
C1889 H1877 0.950 . S
C1889 C1885 1.393 . S
C1889 C1888 1.391 . S
C1890 H1880 0.950 . S
C1890 C1891 1.386 . S
C1890 C1892 1.391 . S
C1891 C1890 1.386 . S
C1891 C1895 1.393 . S
C1892 H1881 0.950 . S
C1892 C1890 1.391 . S
C1892 C1893 1.400 . S
C1893 C1887 1.491 . S
C1893 C1892 1.400 . S
C1893 C1894 1.398 . S
C1894 H1882 0.950 . S
C1894 C1893 1.398 . S
C1894 C1895 1.391 . S
C1895 H1883 0.950 1_565 S
C1895 C1891 1.393 . S
C1895 C1894 1.391 . S
H1896 C1904 0.950 . S
H1897 C1909 0.950 . S
H1898 C1906 0.950 . S
H1899 C1908 0.950 . S
H1900 C1910 0.950 . S
H1901 C1912 0.950 . S
H1902 C1914 0.950 . S
H1903 C1915 0.950 . S
C1904 H1896 0.950 . S
C1904 C1905 1.386 . S
C1904 C1906 1.391 . S
C1905 C1904 1.386 . S
C1905 C1909 1.393 . S
C1906 H1898 0.950 . S
C1906 C1904 1.391 . S
C1906 C1907 1.400 . S
C1907 C1906 1.400 . S
C1907 C1908 1.398 . S
C1907 C1913 1.491 . S
C1908 H1899 0.950 . S
C1908 C1907 1.398 . S
C1908 C1909 1.391 . S
C1909 H1897 0.950 . S
C1909 C1905 1.393 . S
C1909 C1908 1.391 . S
C1910 H1900 0.950 . S
C1910 C1911 1.386 . S
C1910 C1912 1.391 . S
C1911 C1910 1.386 . S
C1911 C1915 1.393 . S
C1912 H1901 0.950 . S
C1912 C1910 1.391 . S
C1912 C1913 1.400 . S
C1913 C1907 1.491 . S
C1913 C1912 1.400 . S
C1913 C1914 1.398 . S
C1914 H1902 0.950 . S
C1914 C1913 1.398 . S
C1914 C1915 1.391 . S
C1915 H1903 0.950 . S
C1915 C1911 1.393 . S
C1915 C1914 1.391 . S
H1916 C1924 0.950 . S
H1917 C1929 0.950 . S
H1918 C1926 0.950 . S
H1919 C1928 0.950 . S
H1920 C1930 0.950 . S
H1921 C1932 0.950 . S
H1922 C1934 0.950 . S
H1923 C1935 0.950 . S
C1924 H1916 0.950 . S
C1924 C1925 1.386 . S
C1924 C1926 1.391 . S
C1925 C1924 1.386 . S
C1925 C1929 1.393 . S
C1926 H1918 0.950 . S
C1926 C1924 1.391 . S
C1926 C1927 1.400 . S
C1927 C1926 1.400 . S
C1927 C1928 1.398 . S
C1927 C1933 1.491 . S
C1928 H1919 0.950 . S
C1928 C1927 1.398 . S
C1928 C1929 1.391 . S
C1929 H1917 0.950 . S
C1929 C1925 1.393 . S
C1929 C1928 1.391 . S
C1930 H1920 0.950 . S
C1930 C1931 1.386 . S
C1930 C1932 1.391 . S
C1931 C1930 1.386 . S
C1931 C1935 1.393 . S
C1932 H1921 0.950 . S
C1932 C1930 1.391 . S
C1932 C1933 1.400 . S
C1933 C1927 1.491 . S
C1933 C1932 1.400 . S
C1933 C1934 1.398 . S
C1934 H1922 0.950 . S
C1934 C1933 1.398 . S
C1934 C1935 1.391 . S
C1935 H1923 0.950 . S
C1935 C1931 1.393 . S
C1935 C1934 1.391 . S
H1936 C1944 0.950 . S
H1937 C1949 0.950 . S
H1938 C1946 0.950 . S
H1939 C1948 0.950 . S
H1940 C1950 0.950 . S
H1941 C1952 0.950 . S
H1942 C1954 0.950 . S
H1943 C1955 0.950 . S
C1944 H1936 0.950 . S
C1944 C1945 1.386 . S
C1944 C1946 1.391 . S
C1945 C1944 1.386 . S
C1945 C1949 1.393 . S
C1946 H1938 0.950 . S
C1946 C1944 1.391 . S
C1946 C1947 1.400 . S
C1947 C1946 1.400 . S
C1947 C1948 1.398 . S
C1947 C1953 1.491 . S
C1948 H1939 0.950 . S
C1948 C1947 1.398 . S
C1948 C1949 1.391 . S
C1949 H1937 0.950 . S
C1949 C1945 1.393 . S
C1949 C1948 1.391 . S
C1950 H1940 0.950 . S
C1950 C1951 1.386 . S
C1950 C1952 1.391 . S
C1951 C1950 1.386 . S
C1951 C1955 1.393 . S
C1952 H1941 0.950 . S
C1952 C1950 1.391 . S
C1952 C1953 1.400 . S
C1953 C1947 1.491 . S
C1953 C1952 1.400 . S
C1953 C1954 1.398 . S
C1954 H1942 0.950 . S
C1954 C1953 1.398 . S
C1954 C1955 1.391 . S
C1955 H1943 0.950 . S
C1955 C1951 1.393 . S
C1955 C1954 1.391 . S
H1956 C1964 0.950 . S
H1957 C1969 0.950 . S
H1958 C1966 0.950 . S
H1959 C1968 0.950 . S
H1960 C1970 0.950 . S
H1961 C1972 0.950 . S
H1962 C1974 0.950 . S
H1963 C1975 0.950 . S
C1964 H1956 0.950 . S
C1964 C1965 1.386 . S
C1964 C1966 1.391 . S
C1965 C1964 1.386 . S
C1965 C1969 1.393 . S
C1966 H1958 0.950 . S
C1966 C1964 1.391 . S
C1966 C1967 1.400 . S
C1967 C1966 1.400 . S
C1967 C1968 1.398 . S
C1967 C1973 1.491 . S
C1968 H1959 0.950 . S
C1968 C1967 1.398 . S
C1968 C1969 1.391 . S
C1969 H1957 0.950 . S
C1969 C1965 1.393 . S
C1969 C1968 1.391 . S
C1970 H1960 0.950 . S
C1970 C1971 1.386 . S
C1970 C1972 1.391 . S
C1971 C1970 1.386 . S
C1971 C1975 1.393 . S
C1972 H1961 0.950 . S
C1972 C1970 1.391 . S
C1972 C1973 1.400 . S
C1973 C1967 1.491 . S
C1973 C1972 1.400 . S
C1973 C1974 1.398 . S
C1974 H1962 0.950 . S
C1974 C1973 1.398 . S
C1974 C1975 1.391 . S
C1975 H1963 0.950 . S
C1975 C1971 1.393 . S
C1975 C1974 1.391 . S
H1976 C1984 0.950 . S
H1977 C1989 0.950 . S
H1978 C1986 0.950 . S
H1979 C1988 0.950 . S
H1980 C1990 0.950 . S
H1981 C1992 0.950 . S
H1982 C1994 0.950 1_655 S
H1983 C1995 0.910 1_655 S
C1984 H1976 0.950 . S
C1984 C1985 1.386 1_655 S
C1984 C1986 1.391 . S
C1985 C1984 1.386 1_455 S
C1985 C1989 1.393 . S
C1986 H1978 0.950 . S
C1986 C1984 1.391 . S
C1986 C1987 1.400 1_655 S
C1987 C1986 1.400 1_455 S
C1987 C1988 1.398 . S
C1987 C1993 1.491 . S
C1988 H1979 0.950 . S
C1988 C1987 1.398 . S
C1988 C1989 1.391 . S
C1989 H1977 0.950 . S
C1989 C1985 1.393 . S
C1989 C1988 1.391 . S
C1990 H1980 0.950 . S
C1990 C1991 1.386 . S
C1990 C1992 1.391 . S
C1991 C1990 1.386 . S
C1991 C1995 1.393 . S
C1992 H1981 0.950 . S
C1992 C1990 1.391 . S
C1992 C1993 1.400 . S
C1993 C1987 1.491 . S
C1993 C1992 1.400 . S
C1993 C1994 1.398 . S
C1994 H1982 0.950 1_455 S
C1994 C1993 1.398 . S
C1994 C1995 1.391 . S
C1995 H1983 0.910 1_455 S
C1995 C1991 1.393 . S
C1995 C1994 1.391 . S
H1996 C2004 0.950 . S
H1997 C2009 0.950 . S
H1998 C2006 0.950 1_655 S
H1999 C2008 0.950 . S
H2000 C2010 0.950 . S
H2001 C2012 0.950 . S
H2002 C2014 0.950 . S
H2003 C2015 0.950 . S
C2004 H1996 0.950 . S
C2004 C2005 1.386 . S
C2004 C2006 1.391 . S
C2005 C2004 1.386 . S
C2005 C2009 1.393 . S
C2006 H1998 0.950 1_455 S
C2006 C2004 1.391 . S
C2006 C2007 1.400 . S
C2007 C2006 1.400 . S
C2007 C2008 1.398 . S
C2007 C2013 1.491 1_455 S
C2008 H1999 0.950 . S
C2008 C2007 1.398 . S
C2008 C2009 1.391 . S
C2009 H1997 0.950 . S
C2009 C2005 1.393 . S
C2009 C2008 1.391 . S
C2010 H2000 0.950 . S
C2010 C2011 1.386 . S
C2010 C2012 1.391 . S
C2011 C2010 1.386 . S
C2011 C2015 1.393 . S
C2012 H2001 0.950 . S
C2012 C2010 1.391 . S
C2012 C2013 1.400 . S
C2013 C2007 1.491 1_655 S
C2013 C2012 1.400 . S
C2013 C2014 1.398 . S
C2014 H2002 0.950 . S
C2014 C2013 1.398 . S
C2014 C2015 1.391 . S
C2015 H2003 0.950 . S
C2015 C2011 1.393 . S
C2015 C2014 1.391 . S
H2016 C2024 0.950 . S
H2017 C2029 0.950 . S
H2018 C2026 0.950 . S
H2019 C2028 0.950 . S
H2020 C2030 0.950 . S
H2021 C2032 0.950 . S
H2022 C2034 0.950 . S
H2023 C2035 0.950 . S
C2024 H2016 0.950 . S
C2024 C2025 1.386 . S
C2024 C2026 1.391 . S
C2025 C2024 1.386 . S
C2025 C2029 1.393 . S
C2026 H2018 0.950 . S
C2026 C2024 1.391 . S
C2026 C2027 1.400 . S
C2027 C2026 1.400 . S
C2027 C2028 1.398 . S
C2027 C2033 1.491 . S
C2028 H2019 0.950 . S
C2028 C2027 1.398 . S
C2028 C2029 1.391 . S
C2029 H2017 0.950 . S
C2029 C2025 1.393 . S
C2029 C2028 1.391 . S
C2030 H2020 0.950 . S
C2030 C2031 1.386 . S
C2030 C2032 1.391 . S
C2031 C2030 1.386 . S
C2031 C2035 1.393 . S
C2032 H2021 0.950 . S
C2032 C2030 1.391 . S
C2032 C2033 1.400 . S
C2033 C2027 1.491 . S
C2033 C2032 1.400 . S
C2033 C2034 1.398 . S
C2034 H2022 0.950 . S
C2034 C2033 1.398 . S
C2034 C2035 1.391 . S
C2035 H2023 0.950 . S
C2035 C2031 1.393 . S
C2035 C2034 1.391 . S
H2036 C2044 0.950 . S
H2037 C2049 0.950 . S
H2038 C2046 0.950 . S
H2039 C2048 0.950 . S
H2040 C2050 0.950 . S
H2041 C2052 0.950 . S
H2042 C2054 0.950 . S
H2043 C2055 0.950 . S
C2044 H2036 0.950 . S
C2044 C2045 1.386 . S
C2044 C2046 1.391 . S
C2045 C2044 1.386 . S
C2045 C2049 1.393 . S
C2046 H2038 0.950 . S
C2046 C2044 1.391 . S
C2046 C2047 1.400 . S
C2047 C2046 1.400 . S
C2047 C2048 1.398 . S
C2047 C2053 1.491 . S
C2048 H2039 0.950 . S
C2048 C2047 1.398 . S
C2048 C2049 1.391 . S
C2049 H2037 0.950 . S
C2049 C2045 1.393 . S
C2049 C2048 1.391 . S
C2050 H2040 0.950 . S
C2050 C2051 1.386 . S
C2050 C2052 1.391 . S
C2051 C2050 1.386 . S
C2051 C2055 1.393 . S
C2052 H2041 0.950 . S
C2052 C2050 1.391 . S
C2052 C2053 1.400 . S
C2053 C2047 1.491 . S
C2053 C2052 1.400 . S
C2053 C2054 1.398 . S
C2054 H2042 0.950 . S
C2054 C2053 1.398 . S
C2054 C2055 1.391 . S
C2055 H2043 0.950 . S
C2055 C2051 1.393 . S
C2055 C2054 1.391 . S
H2056 C2064 0.950 . S
H2057 C2069 0.950 . S
H2058 C2066 0.950 . S
H2059 C2068 0.950 . S
H2060 C2070 0.950 . S
H2061 C2072 0.950 . S
H2062 C2074 0.950 . S
H2063 C2075 0.950 . S
C2064 H2056 0.950 . S
C2064 C2065 1.386 . S
C2064 C2066 1.391 . S
C2065 C2064 1.386 . S
C2065 C2069 1.393 . S
C2066 H2058 0.950 . S
C2066 C2064 1.391 . S
C2066 C2067 1.400 . S
C2067 C2066 1.400 . S
C2067 C2068 1.398 . S
C2067 C2073 1.491 . S
C2068 H2059 0.950 . S
C2068 C2067 1.398 . S
C2068 C2069 1.391 . S
C2069 H2057 0.950 . S
C2069 C2065 1.393 . S
C2069 C2068 1.391 . S
C2070 H2060 0.950 . S
C2070 C2071 1.386 . S
C2070 C2072 1.391 . S
C2071 C2070 1.386 . S
C2071 C2075 1.393 . S
C2072 H2061 0.950 . S
C2072 C2070 1.391 . S
C2072 C2073 1.400 . S
C2073 C2067 1.491 . S
C2073 C2072 1.400 . S
C2073 C2074 1.398 . S
C2074 H2062 0.950 . S
C2074 C2073 1.398 . S
C2074 C2075 1.391 . S
C2075 H2063 0.950 . S
C2075 C2071 1.393 . S
C2075 C2074 1.391 . S
H2076 C2084 0.950 . S
H2077 C2089 0.950 . S
H2078 C2086 0.950 . S
H2079 C2088 0.950 . S
H2080 C2090 0.950 . S
H2081 C2092 0.950 . S
H2082 C2094 0.950 . S
H2083 C2095 0.950 . S
C2084 H2076 0.950 . S
C2084 C2085 1.386 . S
C2084 C2086 1.391 . S
C2085 C2084 1.386 . S
C2085 C2089 1.393 . S
C2086 H2078 0.950 . S
C2086 C2084 1.391 . S
C2086 C2087 1.400 . S
C2087 C2086 1.400 . S
C2087 C2088 1.398 . S
C2087 C2093 1.491 . S
C2088 H2079 0.950 . S
C2088 C2087 1.398 . S
C2088 C2089 1.391 . S
C2089 H2077 0.950 . S
C2089 C2085 1.393 . S
C2089 C2088 1.391 . S
C2090 H2080 0.950 . S
C2090 C2091 1.386 . S
C2090 C2092 1.391 . S
C2091 C2090 1.386 . S
C2091 C2095 1.393 . S
C2092 H2081 0.950 . S
C2092 C2090 1.391 . S
C2092 C2093 1.400 . S
C2093 C2087 1.491 . S
C2093 C2092 1.400 . S
C2093 C2094 1.398 . S
C2094 H2082 0.950 . S
C2094 C2093 1.398 . S
C2094 C2095 1.391 . S
C2095 H2083 0.950 . S
C2095 C2091 1.393 . S
C2095 C2094 1.391 . S
H2096 C2104 0.950 . S
H2097 C2109 0.950 . S
H2098 C2106 0.950 . S
H2099 C2108 0.950 . S
H2100 C2110 0.950 . S
H2101 C2112 0.950 . S
H2102 C2114 0.950 . S
H2103 C2115 0.950 . S
C2104 H2096 0.950 . S
C2104 C2105 1.386 . S
C2104 C2106 1.391 . S
C2105 C2104 1.386 . S
C2105 C2109 1.393 . S
C2106 H2098 0.950 . S
C2106 C2104 1.391 . S
C2106 C2107 1.400 . S
C2107 C2106 1.400 . S
C2107 C2108 1.398 . S
C2107 C2113 1.491 . S
C2108 H2099 0.950 . S
C2108 C2107 1.398 . S
C2108 C2109 1.391 . S
C2109 H2097 0.950 . S
C2109 C2105 1.393 . S
C2109 C2108 1.391 . S
C2110 H2100 0.950 . S
C2110 C2111 1.386 . S
C2110 C2112 1.391 . S
C2111 C2110 1.386 . S
C2111 C2115 1.393 . S
C2112 H2101 0.950 . S
C2112 C2110 1.391 . S
C2112 C2113 1.400 . S
C2113 C2107 1.491 . S
C2113 C2112 1.400 . S
C2113 C2114 1.398 . S
C2114 H2102 0.950 . S
C2114 C2113 1.398 . S
C2114 C2115 1.391 . S
C2115 H2103 0.950 . S
C2115 C2111 1.393 . S
C2115 C2114 1.391 . S
H2116 C2124 0.950 . S
H2117 C2129 0.950 . S
H2118 C2126 0.950 . S
H2119 C2128 0.950 . S
H2120 C2130 0.950 . S
H2121 C2132 0.950 . S
H2122 C2134 0.950 . S
H2123 C2135 0.950 . S
C2124 H2116 0.950 . S
C2124 C2125 1.386 . S
C2124 C2126 1.391 . S
C2125 C2124 1.386 . S
C2125 C2129 1.393 . S
C2126 H2118 0.950 . S
C2126 C2124 1.391 . S
C2126 C2127 1.400 . S
C2127 C2126 1.400 . S
C2127 C2128 1.398 . S
C2127 C2133 1.491 . S
C2128 H2119 0.950 . S
C2128 C2127 1.398 . S
C2128 C2129 1.391 . S
C2129 H2117 0.950 . S
C2129 C2125 1.393 . S
C2129 C2128 1.391 . S
C2130 H2120 0.950 . S
C2130 C2131 1.386 . S
C2130 C2132 1.391 . S
C2131 C2130 1.386 . S
C2131 C2135 1.393 . S
C2132 H2121 0.950 . S
C2132 C2130 1.391 . S
C2132 C2133 1.400 . S
C2133 C2127 1.491 . S
C2133 C2132 1.400 . S
C2133 C2134 1.398 . S
C2134 H2122 0.950 . S
C2134 C2133 1.398 . S
C2134 C2135 1.391 . S
C2135 H2123 0.950 . S
C2135 C2131 1.393 . S
C2135 C2134 1.391 . S
H2136 C2144 0.950 . S
H2137 C2149 0.950 . S
H2138 C2146 0.950 . S
H2139 C2148 0.950 . S
H2140 C2150 0.950 . S
H2141 C2152 0.950 . S
H2142 C2154 0.950 . S
H2143 C2155 0.950 . S
C2144 H2136 0.950 . S
C2144 C2145 1.386 . S
C2144 C2146 1.391 . S
C2145 C2144 1.386 . S
C2145 C2149 1.393 . S
C2146 H2138 0.950 . S
C2146 C2144 1.391 . S
C2146 C2147 1.400 . S
C2147 C2146 1.400 . S
C2147 C2148 1.398 . S
C2147 C2153 1.491 . S
C2148 H2139 0.950 . S
C2148 C2147 1.398 . S
C2148 C2149 1.391 . S
C2149 H2137 0.950 . S
C2149 C2145 1.393 . S
C2149 C2148 1.391 . S
C2150 H2140 0.950 . S
C2150 C2151 1.386 . S
C2150 C2152 1.391 . S
C2151 C2150 1.386 . S
C2151 C2155 1.393 . S
C2152 H2141 0.950 . S
C2152 C2150 1.391 . S
C2152 C2153 1.400 . S
C2153 C2147 1.491 . S
C2153 C2152 1.400 . S
C2153 C2154 1.398 . S
C2154 H2142 0.950 . S
C2154 C2153 1.398 . S
C2154 C2155 1.391 . S
C2155 H2143 0.950 . S
C2155 C2151 1.393 . S
C2155 C2154 1.391 . S
H2156 C2164 0.950 . S
H2157 C2169 0.950 . S
H2158 C2166 0.950 . S
H2159 C2168 0.950 . S
H2160 C2170 0.950 . S
H2161 C2172 0.950 . S
H2162 C2174 0.950 . S
H2163 C2175 0.950 . S
C2164 H2156 0.950 . S
C2164 C2165 1.386 . S
C2164 C2166 1.391 . S
C2165 C2164 1.386 . S
C2165 C2169 1.393 . S
C2166 H2158 0.950 . S
C2166 C2164 1.391 . S
C2166 C2167 1.400 . S
C2167 C2166 1.400 . S
C2167 C2168 1.398 . S
C2167 C2173 1.491 . S
C2168 H2159 0.950 . S
C2168 C2167 1.398 . S
C2168 C2169 1.391 . S
C2169 H2157 0.950 . S
C2169 C2165 1.393 . S
C2169 C2168 1.391 . S
C2170 H2160 0.950 . S
C2170 C2171 1.386 . S
C2170 C2172 1.391 . S
C2171 C2170 1.386 . S
C2171 C2175 1.393 . S
C2172 H2161 0.950 . S
C2172 C2170 1.391 . S
C2172 C2173 1.400 . S
C2173 C2167 1.491 . S
C2173 C2172 1.400 . S
C2173 C2174 1.398 . S
C2174 H2162 0.950 . S
C2174 C2173 1.398 . S
C2174 C2175 1.391 . S
C2175 H2163 0.950 . S
C2175 C2171 1.393 . S
C2175 C2174 1.391 . S
H2176 C2184 0.950 . S
H2177 C2189 0.950 . S
H2178 C2186 0.950 . S
H2179 C2188 0.950 . S
H2180 C2190 0.950 . S
H2181 C2192 0.950 . S
H2182 C2194 0.950 . S
H2183 C2195 0.950 . S
C2184 H2176 0.950 . S
C2184 C2185 1.386 . S
C2184 C2186 1.391 . S
C2185 C2184 1.386 . S
C2185 C2189 1.393 . S
C2186 H2178 0.950 . S
C2186 C2184 1.391 . S
C2186 C2187 1.400 . S
C2187 C2186 1.400 . S
C2187 C2188 1.398 . S
C2187 C2193 1.491 . S
C2188 H2179 0.950 . S
C2188 C2187 1.398 . S
C2188 C2189 1.391 . S
C2189 H2177 0.950 . S
C2189 C2185 1.393 . S
C2189 C2188 1.391 . S
C2190 H2180 0.950 . S
C2190 C2191 1.386 . S
C2190 C2192 1.391 . S
C2191 C2190 1.386 . S
C2191 C2195 1.393 . S
C2192 H2181 0.950 . S
C2192 C2190 1.391 . S
C2192 C2193 1.400 . S
C2193 C2187 1.491 . S
C2193 C2192 1.400 . S
C2193 C2194 1.398 . S
C2194 H2182 0.950 . S
C2194 C2193 1.398 . S
C2194 C2195 1.391 . S
C2195 H2183 0.950 . S
C2195 C2191 1.393 . S
C2195 C2194 1.391 . S
H2196 C2204 0.950 . S
H2197 C2209 0.950 . S
H2198 C2206 0.950 . S
H2199 C2208 0.950 . S
H2200 C2210 0.950 . S
H2201 C2212 0.950 . S
H2202 C2214 0.950 . S
H2203 C2215 0.950 . S
C2204 H2196 0.950 . S
C2204 C2205 1.386 . S
C2204 C2206 1.391 . S
C2205 C2204 1.386 . S
C2205 C2209 1.393 . S
C2206 H2198 0.950 . S
C2206 C2204 1.391 . S
C2206 C2207 1.400 . S
C2207 C2206 1.400 . S
C2207 C2208 1.398 . S
C2207 C2213 1.491 . S
C2208 H2199 0.950 . S
C2208 C2207 1.398 . S
C2208 C2209 1.391 . S
C2209 H2197 0.950 . S
C2209 C2205 1.393 . S
C2209 C2208 1.391 . S
C2210 H2200 0.950 . S
C2210 C2211 1.386 . S
C2210 C2212 1.391 . S
C2211 C2210 1.386 . S
C2211 C2215 1.393 . S
C2212 H2201 0.950 . S
C2212 C2210 1.391 . S
C2212 C2213 1.400 . S
C2213 C2207 1.491 . S
C2213 C2212 1.400 . S
C2213 C2214 1.398 . S
C2214 H2202 0.950 . S
C2214 C2213 1.398 . S
C2214 C2215 1.391 . S
C2215 H2203 0.950 . S
C2215 C2211 1.393 . S
C2215 C2214 1.391 . S
H2216 C2224 0.950 . S
H2217 C2229 0.950 . S
H2218 C2226 0.950 . S
H2219 C2228 0.950 . S
H2220 C2230 0.950 . S
H2221 C2232 0.950 . S
H2222 C2234 0.950 . S
H2223 C2235 0.950 . S
C2224 H2216 0.950 . S
C2224 C2225 1.386 . S
C2224 C2226 1.391 . S
C2225 C2224 1.386 . S
C2225 C2229 1.393 . S
C2226 H2218 0.950 . S
C2226 C2224 1.391 . S
C2226 C2227 1.400 . S
C2227 C2226 1.400 . S
C2227 C2228 1.398 . S
C2227 C2233 1.491 . S
C2228 H2219 0.950 . S
C2228 C2227 1.398 . S
C2228 C2229 1.391 . S
C2229 H2217 0.950 . S
C2229 C2225 1.393 . S
C2229 C2228 1.391 . S
C2230 H2220 0.950 . S
C2230 C2231 1.386 . S
C2230 C2232 1.391 . S
C2231 C2230 1.386 . S
C2231 C2235 1.393 . S
C2232 H2221 0.950 . S
C2232 C2230 1.391 . S
C2232 C2233 1.400 . S
C2233 C2227 1.491 . S
C2233 C2232 1.400 . S
C2233 C2234 1.398 . S
C2234 H2222 0.950 . S
C2234 C2233 1.398 . S
C2234 C2235 1.391 . S
C2235 H2223 0.950 . S
C2235 C2231 1.393 . S
C2235 C2234 1.391 . S
H2236 C2244 0.950 . S
H2237 C2249 0.950 . S
H2238 C2246 0.950 . S
H2239 C2248 0.950 . S
H2240 C2250 0.950 . S
H2241 C2252 0.950 . S
H2242 C2254 0.950 . S
H2243 C2255 0.950 . S
C2244 H2236 0.950 . S
C2244 C2245 1.386 . S
C2244 C2246 1.391 . S
C2245 C2244 1.386 . S
C2245 C2249 1.393 . S
C2246 H2238 0.950 . S
C2246 C2244 1.391 . S
C2246 C2247 1.400 . S
C2247 C2246 1.400 . S
C2247 C2248 1.398 . S
C2247 C2253 1.491 . S
C2248 H2239 0.950 . S
C2248 C2247 1.398 . S
C2248 C2249 1.391 . S
C2249 H2237 0.950 . S
C2249 C2245 1.393 . S
C2249 C2248 1.391 . S
C2250 H2240 0.950 . S
C2250 C2251 1.386 . S
C2250 C2252 1.391 . S
C2251 C2250 1.386 . S
C2251 C2255 1.393 . S
C2252 H2241 0.950 . S
C2252 C2250 1.391 . S
C2252 C2253 1.400 . S
C2253 C2247 1.491 . S
C2253 C2252 1.400 . S
C2253 C2254 1.398 . S
C2254 H2242 0.950 . S
C2254 C2253 1.398 . S
C2254 C2255 1.391 . S
C2255 H2243 0.950 . S
C2255 C2251 1.393 . S
C2255 C2254 1.391 . S
H2256 C2264 0.950 . S
H2257 C2269 0.950 . S
H2258 C2266 0.950 . S
H2259 C2268 0.950 . S
H2260 C2270 0.950 . S
H2261 C2272 0.950 . S
H2262 C2274 0.950 . S
H2263 C2275 0.950 . S
C2264 H2256 0.950 . S
C2264 C2265 1.386 . S
C2264 C2266 1.391 . S
C2265 C2264 1.386 . S
C2265 C2269 1.393 . S
C2266 H2258 0.950 . S
C2266 C2264 1.391 . S
C2266 C2267 1.400 . S
C2267 C2266 1.400 . S
C2267 C2268 1.398 . S
C2267 C2273 1.491 . S
C2268 H2259 0.950 . S
C2268 C2267 1.398 . S
C2268 C2269 1.391 . S
C2269 H2257 0.950 . S
C2269 C2265 1.393 . S
C2269 C2268 1.391 . S
C2270 H2260 0.950 . S
C2270 C2271 1.386 . S
C2270 C2272 1.391 . S
C2271 C2270 1.386 . S
C2271 C2275 1.393 . S
C2272 H2261 0.950 . S
C2272 C2270 1.391 . S
C2272 C2273 1.400 . S
C2273 C2267 1.491 . S
C2273 C2272 1.400 . S
C2273 C2274 1.398 . S
C2274 H2262 0.950 . S
C2274 C2273 1.398 . S
C2274 C2275 1.391 . S
C2275 H2263 0.950 . S
C2275 C2271 1.393 . S
C2275 C2274 1.391 . S
H2276 C2284 0.950 . S
H2277 C2289 0.950 . S
H2278 C2286 0.950 . S
H2279 C2288 0.950 . S
H2280 C2290 0.950 . S
H2281 C2292 0.950 . S
H2282 C2294 0.950 . S
H2283 C2295 0.950 . S
C2284 H2276 0.950 . S
C2284 C2285 1.386 . S
C2284 C2286 1.391 . S
C2285 C2284 1.386 . S
C2285 C2289 1.393 . S
C2286 H2278 0.950 . S
C2286 C2284 1.391 . S
C2286 C2287 1.400 . S
C2287 C2286 1.400 . S
C2287 C2288 1.398 . S
C2287 C2293 1.491 . S
C2288 H2279 0.950 . S
C2288 C2287 1.398 . S
C2288 C2289 1.391 . S
C2289 H2277 0.950 . S
C2289 C2285 1.393 . S
C2289 C2288 1.391 . S
C2290 H2280 0.950 . S
C2290 C2291 1.386 . S
C2290 C2292 1.391 . S
C2291 C2290 1.386 . S
C2291 C2295 1.393 . S
C2292 H2281 0.950 . S
C2292 C2290 1.391 . S
C2292 C2293 1.400 . S
C2293 C2287 1.491 . S
C2293 C2292 1.400 . S
C2293 C2294 1.398 . S
C2294 H2282 0.950 . S
C2294 C2293 1.398 . S
C2294 C2295 1.391 . S
C2295 H2283 0.950 . S
C2295 C2291 1.393 . S
C2295 C2294 1.391 . S
H2296 C2304 0.950 . S
H2297 C2309 0.950 . S
H2298 C2306 0.950 . S
H2299 C2308 0.950 . S
H2300 C2310 0.950 . S
H2301 C2312 0.950 . S
H2302 C2314 0.950 . S
H2303 C2315 0.950 . S
C2304 H2296 0.950 . S
C2304 C2305 1.386 . S
C2304 C2306 1.391 1_545 S
C2305 C2304 1.386 . S
C2305 C2309 1.393 1_545 S
C2306 H2298 0.950 . S
C2306 C2304 1.391 1_565 S
C2306 C2307 1.400 . S
C2307 C2306 1.400 . S
C2307 C2308 1.398 . S
C2307 C2313 1.491 . S
C2308 H2299 0.950 . S
C2308 C2307 1.398 . S
C2308 C2309 1.391 . S
C2309 H2297 0.950 . S
C2309 C2305 1.393 1_565 S
C2309 C2308 1.391 . S
C2310 H2300 0.950 . S
C2310 C2311 1.386 . S
C2310 C2312 1.391 . S
C2311 C2310 1.386 . S
C2311 C2315 1.393 . S
C2312 H2301 0.950 . S
C2312 C2310 1.391 . S
C2312 C2313 1.400 . S
C2313 C2307 1.491 . S
C2313 C2312 1.400 . S
C2313 C2314 1.398 . S
C2314 H2302 0.950 . S
C2314 C2313 1.398 . S
C2314 C2315 1.391 . S
C2315 H2303 0.950 . S
C2315 C2311 1.393 . S
C2315 C2314 1.391 . S
H2316 C2324 0.950 . S
H2317 C2329 0.950 . S
H2318 C2326 0.950 . S
H2319 C2328 0.950 . S
H2320 C2330 0.950 . S
H2321 C2332 0.950 . S
H2322 C2334 0.950 . S
H2323 C2335 0.950 . S
C2324 H2316 0.950 . S
C2324 C2325 1.386 . S
C2324 C2326 1.391 . S
C2325 C2324 1.386 . S
C2325 C2329 1.393 . S
C2326 H2318 0.950 . S
C2326 C2324 1.391 . S
C2326 C2327 1.400 . S
C2327 C2326 1.400 . S
C2327 C2328 1.398 . S
C2327 C2333 1.491 . S
C2328 H2319 0.950 . S
C2328 C2327 1.398 . S
C2328 C2329 1.391 . S
C2329 H2317 0.950 . S
C2329 C2325 1.393 . S
C2329 C2328 1.391 . S
C2330 H2320 0.950 . S
C2330 C2331 1.399 . S
C2330 C2332 1.391 1_545 S
C2331 C2330 1.399 . S
C2331 C2335 1.359 1_545 S
C2332 H2321 0.950 . S
C2332 C2330 1.391 1_565 S
C2332 C2333 1.400 . S
C2333 C2327 1.491 . S
C2333 C2332 1.400 . S
C2333 C2334 1.398 . S
C2334 H2322 0.950 . S
C2334 C2333 1.398 . S
C2334 C2335 1.391 . S
C2335 H2323 0.950 . S
C2335 C2331 1.359 1_565 S
C2335 C2334 1.391 . S
H2336 C2344 0.950 . S
H2337 C2349 0.950 . S
H2338 C2346 0.950 . S
H2339 C2348 0.950 . S
H2340 C2350 0.950 . S
H2341 C2352 0.950 . S
H2342 C2354 0.950 . S
H2343 C2355 0.950 . S
C2344 H2336 0.950 . S
C2344 C2345 1.386 . S
C2344 C2346 1.391 . S
C2345 C2344 1.386 . S
C2345 C2349 1.393 . S
C2346 H2338 0.950 . S
C2346 C2344 1.391 . S
C2346 C2347 1.400 . S
C2347 C2346 1.400 . S
C2347 C2348 1.398 . S
C2347 C2353 1.491 . S
C2348 H2339 0.950 . S
C2348 C2347 1.398 . S
C2348 C2349 1.391 . S
C2349 H2337 0.950 . S
C2349 C2345 1.393 . S
C2349 C2348 1.391 . S
C2350 H2340 0.950 . S
C2350 C2351 1.386 . S
C2350 C2352 1.391 . S
C2351 C2350 1.386 . S
C2351 C2355 1.393 . S
C2352 H2341 0.950 . S
C2352 C2350 1.391 . S
C2352 C2353 1.400 . S
C2353 C2347 1.491 . S
C2353 C2352 1.400 . S
C2353 C2354 1.398 . S
C2354 H2342 0.950 . S
C2354 C2353 1.398 . S
C2354 C2355 1.391 . S
C2355 H2343 0.950 . S
C2355 C2351 1.393 . S
C2355 C2354 1.391 . S
H2356 C2364 0.919 1_556 S
H2357 C2369 0.950 . S
H2358 C2366 0.950 . S
H2359 C2368 0.950 . S
H2360 C2370 0.950 . S
H2361 C2372 0.950 . S
H2362 C2374 0.950 . S
H2363 C2375 0.950 . S
C2364 H2356 0.919 1_554 S
C2364 C2365 1.386 . S
C2364 C2366 1.391 . S
C2365 C2364 1.386 . S
C2365 C2369 1.393 . S
C2366 H2358 0.950 . S
C2366 C2364 1.391 . S
C2366 C2367 1.400 . S
C2367 C2366 1.400 . S
C2367 C2368 1.398 . S
C2367 C2373 1.491 . S
C2368 H2359 0.950 . S
C2368 C2367 1.398 . S
C2368 C2369 1.391 . S
C2369 H2357 0.950 . S
C2369 C2365 1.393 . S
C2369 C2368 1.391 . S
C2370 H2360 0.950 . S
C2370 C2371 1.386 . S
C2370 C2372 1.391 . S
C2371 C2370 1.386 . S
C2371 C2375 1.393 . S
C2372 H2361 0.950 . S
C2372 C2370 1.391 . S
C2372 C2373 1.400 . S
C2373 C2367 1.491 . S
C2373 C2372 1.400 . S
C2373 C2374 1.398 . S
C2374 H2362 0.950 . S
C2374 C2373 1.398 . S
C2374 C2375 1.391 . S
C2375 H2363 0.950 . S
C2375 C2371 1.393 . S
C2375 C2374 1.391 . S
H2376 C2384 0.950 . S
H2377 C2389 0.950 . S
H2378 C2386 0.950 . S
H2379 C2388 0.950 . S
H2380 C2390 0.950 . S
H2381 C2392 0.950 . S
H2382 C2394 0.950 . S
H2383 C2395 0.950 . S
C2384 H2376 0.950 . S
C2384 C2385 1.386 . S
C2384 C2386 1.391 . S
C2385 C2384 1.386 . S
C2385 C2389 1.393 . S
C2386 H2378 0.950 . S
C2386 C2384 1.391 . S
C2386 C2387 1.400 . S
C2387 C2386 1.400 . S
C2387 C2388 1.398 . S
C2387 C2393 1.491 . S
C2388 H2379 0.950 . S
C2388 C2387 1.398 . S
C2388 C2389 1.391 . S
C2389 H2377 0.950 . S
C2389 C2385 1.393 . S
C2389 C2388 1.391 . S
C2390 H2380 0.950 . S
C2390 C2391 1.386 . S
C2390 C2392 1.391 . S
C2391 C2390 1.386 . S
C2391 C2395 1.393 . S
C2392 H2381 0.950 . S
C2392 C2390 1.391 . S
C2392 C2393 1.400 . S
C2393 C2387 1.491 . S
C2393 C2392 1.400 . S
C2393 C2394 1.398 . S
C2394 H2382 0.950 . S
C2394 C2393 1.398 . S
C2394 C2395 1.391 . S
C2395 H2383 0.950 . S
C2395 C2391 1.393 . S
C2395 C2394 1.391 . S
H2396 C2404 0.950 . S
H2397 C2409 0.951 . S
H2398 C2406 0.950 . S
H2399 C2408 0.950 . S
H2400 C2410 0.950 . S
H2401 C2412 0.950 . S
H2402 C2414 0.950 . S
H2403 C2415 0.950 . S
C2404 H2396 0.950 . S
C2404 C2405 1.386 . S
C2404 C2406 1.391 1_545 S
C2405 C2404 1.386 . S
C2405 C2409 1.393 1_545 S
C2406 H2398 0.950 . S
C2406 C2404 1.391 1_565 S
C2406 C2407 1.400 . S
C2407 C2406 1.400 . S
C2407 C2408 1.398 . S
C2407 C2413 1.491 . S
C2408 H2399 0.950 . S
C2408 C2407 1.398 . S
C2408 C2409 1.391 . S
C2409 H2397 0.951 . S
C2409 C2405 1.393 1_565 S
C2409 C2408 1.391 . S
C2410 H2400 0.950 . S
C2410 C2411 1.386 . S
C2410 C2412 1.391 . S
C2411 C2410 1.386 . S
C2411 C2415 1.393 . S
C2412 H2401 0.950 . S
C2412 C2410 1.391 . S
C2412 C2413 1.400 . S
C2413 C2407 1.491 . S
C2413 C2412 1.400 . S
C2413 C2414 1.398 . S
C2414 H2402 0.950 . S
C2414 C2413 1.398 . S
C2414 C2415 1.391 . S
C2415 H2403 0.950 . S
C2415 C2411 1.393 . S
C2415 C2414 1.391 . S
H2416 C2424 0.950 . S
H2417 C2429 0.950 . S
H2418 C2426 0.950 . S
H2419 C2428 0.950 . S
H2420 C2430 0.950 . S
H2421 C2432 0.950 . S
H2422 C2434 0.950 . S
H2423 C2435 0.950 . S
C2424 H2416 0.950 . S
C2424 C2425 1.386 . S
C2424 C2426 1.391 . S
C2425 C2424 1.386 . S
C2425 C2429 1.393 . S
C2426 H2418 0.950 . S
C2426 C2424 1.391 . S
C2426 C2427 1.400 . S
C2427 C2426 1.400 . S
C2427 C2428 1.398 . S
C2427 C2433 1.491 . S
C2428 H2419 0.950 . S
C2428 C2427 1.398 . S
C2428 C2429 1.391 . S
C2429 H2417 0.950 . S
C2429 C2425 1.393 . S
C2429 C2428 1.391 . S
C2430 H2420 0.950 . S
C2430 C2431 1.386 . S
C2430 C2432 1.391 . S
C2431 C2430 1.386 . S
C2431 C2435 1.393 . S
C2432 H2421 0.950 . S
C2432 C2430 1.391 . S
C2432 C2433 1.400 . S
C2433 C2427 1.491 . S
C2433 C2432 1.400 . S
C2433 C2434 1.398 . S
C2434 H2422 0.950 . S
C2434 C2433 1.398 . S
C2434 C2435 1.391 . S
C2435 H2423 0.950 . S
C2435 C2431 1.393 . S
C2435 C2434 1.391 . S
H2436 C2444 0.950 . S
H2437 C2449 0.950 . S
H2438 C2446 0.950 . S
H2439 C2448 0.950 . S
H2440 C2450 0.950 . S
H2441 C2452 0.950 . S
H2442 C2454 0.950 . S
H2443 C2455 0.950 . S
C2444 H2436 0.950 . S
C2444 C2445 1.386 . S
C2444 C2446 1.391 . S
C2445 C2444 1.386 . S
C2445 C2449 1.393 . S
C2446 H2438 0.950 . S
C2446 C2444 1.391 . S
C2446 C2447 1.400 . S
C2447 C2446 1.400 . S
C2447 C2448 1.398 . S
C2447 C2453 1.491 . S
C2448 H2439 0.950 . S
C2448 C2447 1.398 . S
C2448 C2449 1.391 . S
C2449 H2437 0.950 . S
C2449 C2445 1.393 . S
C2449 C2448 1.391 . S
C2450 H2440 0.950 . S
C2450 C2451 1.386 . S
C2450 C2452 1.391 . S
C2451 C2450 1.386 . S
C2451 C2455 1.393 . S
C2452 H2441 0.950 . S
C2452 C2450 1.391 . S
C2452 C2453 1.400 . S
C2453 C2447 1.491 . S
C2453 C2452 1.400 . S
C2453 C2454 1.398 . S
C2454 H2442 0.950 . S
C2454 C2453 1.398 . S
C2454 C2455 1.391 . S
C2455 H2443 0.950 . S
C2455 C2451 1.393 . S
C2455 C2454 1.391 . S
H2456 C2464 0.950 . S
H2457 C2469 0.950 . S
H2458 C2466 0.950 . S
H2459 C2468 0.950 . S
H2460 C2470 0.950 . S
H2461 C2472 0.950 . S
H2462 C2474 0.950 . S
H2463 C2475 0.950 . S
C2464 H2456 0.950 . S
C2464 C2465 1.386 . S
C2464 C2466 1.391 . S
C2465 C2464 1.386 . S
C2465 C2469 1.393 . S
C2466 H2458 0.950 . S
C2466 C2464 1.391 . S
C2466 C2467 1.400 . S
C2467 C2466 1.400 . S
C2467 C2468 1.398 . S
C2467 C2473 1.491 . S
C2468 H2459 0.950 . S
C2468 C2467 1.398 . S
C2468 C2469 1.391 . S
C2469 H2457 0.950 . S
C2469 C2465 1.393 . S
C2469 C2468 1.391 . S
C2470 H2460 0.950 . S
C2470 C2471 1.386 . S
C2470 C2472 1.391 . S
C2471 C2470 1.386 . S
C2471 C2475 1.393 . S
C2472 H2461 0.950 . S
C2472 C2470 1.391 . S
C2472 C2473 1.400 . S
C2473 C2467 1.491 . S
C2473 C2472 1.400 . S
C2473 C2474 1.398 . S
C2474 H2462 0.950 . S
C2474 C2473 1.398 . S
C2474 C2475 1.391 . S
C2475 H2463 0.950 . S
C2475 C2471 1.393 . S
C2475 C2474 1.391 . S
H2476 C2484 0.950 . S
H2477 C2489 0.950 . S
H2478 C2486 0.950 . S
H2479 C2488 0.950 . S
H2480 C2490 0.950 . S
H2481 C2492 0.950 . S
H2482 C2494 0.950 . S
H2483 C2495 0.950 . S
C2484 H2476 0.950 . S
C2484 C2485 1.386 . S
C2484 C2486 1.391 . S
C2485 C2484 1.386 . S
C2485 C2489 1.393 . S
C2486 H2478 0.950 . S
C2486 C2484 1.391 . S
C2486 C2487 1.400 . S
C2487 C2486 1.400 . S
C2487 C2488 1.398 . S
C2487 C2493 1.491 . S
C2488 H2479 0.950 . S
C2488 C2487 1.398 . S
C2488 C2489 1.391 . S
C2489 H2477 0.950 . S
C2489 C2485 1.393 . S
C2489 C2488 1.391 . S
C2490 H2480 0.950 . S
C2490 C2491 1.386 . S
C2490 C2492 1.391 . S
C2491 C2490 1.386 . S
C2491 C2495 1.393 . S
C2492 H2481 0.950 . S
C2492 C2490 1.391 . S
C2492 C2493 1.400 . S
C2493 C2487 1.491 . S
C2493 C2492 1.400 . S
C2493 C2494 1.398 . S
C2494 H2482 0.950 . S
C2494 C2493 1.398 . S
C2494 C2495 1.391 . S
C2495 H2483 0.950 . S
C2495 C2491 1.393 . S
C2495 C2494 1.391 . S
H2496 C2504 0.950 . S
H2497 C2509 0.950 . S
H2498 C2506 0.950 . S
H2499 C2508 0.950 . S
H2500 C2510 0.950 . S
H2501 C2512 0.950 . S
H2502 C2514 0.950 . S
H2503 C2515 0.950 1_554 S
C2504 H2496 0.950 . S
C2504 C2505 1.386 . S
C2504 C2506 1.391 . S
C2505 C2504 1.386 . S
C2505 C2509 1.393 . S
C2506 H2498 0.950 . S
C2506 C2504 1.391 . S
C2506 C2507 1.400 . S
C2507 C2506 1.400 . S
C2507 C2508 1.398 . S
C2507 C2513 1.491 . S
C2508 H2499 0.950 . S
C2508 C2507 1.398 . S
C2508 C2509 1.391 . S
C2509 H2497 0.950 . S
C2509 C2505 1.393 . S
C2509 C2508 1.391 . S
C2510 H2500 0.950 . S
C2510 C2511 1.386 . S
C2510 C2512 1.391 . S
C2511 C2510 1.386 . S
C2511 C2515 1.393 . S
C2512 H2501 0.950 . S
C2512 C2510 1.391 . S
C2512 C2513 1.400 . S
C2513 C2507 1.491 . S
C2513 C2512 1.400 . S
C2513 C2514 1.398 . S
C2514 H2502 0.950 . S
C2514 C2513 1.398 . S
C2514 C2515 1.391 . S
C2515 H2503 0.950 1_556 S
C2515 C2511 1.393 . S
C2515 C2514 1.391 . S
H2516 C2524 0.950 . S
H2517 C2529 0.950 . S
H2518 C2526 0.950 . S
H2519 C2528 0.950 . S
H2520 C2530 0.950 . S
H2521 C2532 0.950 . S
H2522 C2534 0.950 . S
H2523 C2535 0.950 . S
C2524 H2516 0.950 . S
C2524 C2525 1.386 . S
C2524 C2526 1.391 . S
C2525 C2524 1.386 . S
C2525 C2529 1.393 . S
C2526 H2518 0.950 . S
C2526 C2524 1.391 . S
C2526 C2527 1.400 . S
C2527 C2526 1.400 . S
C2527 C2528 1.398 . S
C2527 C2533 1.491 . S
C2528 H2519 0.950 . S
C2528 C2527 1.398 . S
C2528 C2529 1.391 . S
C2529 H2517 0.950 . S
C2529 C2525 1.393 . S
C2529 C2528 1.391 . S
C2530 H2520 0.950 . S
C2530 C2531 1.386 . S
C2530 C2532 1.391 . S
C2531 C2530 1.386 . S
C2531 C2535 1.393 . S
C2532 H2521 0.950 . S
C2532 C2530 1.391 . S
C2532 C2533 1.400 . S
C2533 C2527 1.491 . S
C2533 C2532 1.400 . S
C2533 C2534 1.398 . S
C2534 H2522 0.950 . S
C2534 C2533 1.398 . S
C2534 C2535 1.391 . S
C2535 H2523 0.950 . S
C2535 C2531 1.393 . S
C2535 C2534 1.391 . S
H2536 C2544 0.950 . S
H2537 C2549 0.950 . S
H2538 C2546 0.950 . S
H2539 C2548 0.950 . S
H2540 C2550 0.950 . S
H2541 C2552 0.950 . S
H2542 C2554 0.950 . S
H2543 C2555 0.950 . S
C2544 H2536 0.950 . S
C2544 C2545 1.386 . S
C2544 C2546 1.391 . S
C2545 C2544 1.386 . S
C2545 C2549 1.393 . S
C2546 H2538 0.950 . S
C2546 C2544 1.391 . S
C2546 C2547 1.400 . S
C2547 C2546 1.400 . S
C2547 C2548 1.398 . S
C2547 C2553 1.491 . S
C2548 H2539 0.950 . S
C2548 C2547 1.398 . S
C2548 C2549 1.391 . S
C2549 H2537 0.950 . S
C2549 C2545 1.393 . S
C2549 C2548 1.391 . S
C2550 H2540 0.950 . S
C2550 C2551 1.386 . S
C2550 C2552 1.391 . S
C2551 C2550 1.386 . S
C2551 C2555 1.393 . S
C2552 H2541 0.950 . S
C2552 C2550 1.391 . S
C2552 C2553 1.400 . S
C2553 C2547 1.491 . S
C2553 C2552 1.400 . S
C2553 C2554 1.398 . S
C2554 H2542 0.950 . S
C2554 C2553 1.398 . S
C2554 C2555 1.391 . S
C2555 H2543 0.950 . S
C2555 C2551 1.393 . S
C2555 C2554 1.391 . S
H2556 C2564 0.950 . S
H2557 C2569 0.950 . S
H2558 C2566 0.950 . S
H2559 C2568 0.950 . S
H2560 C2570 0.950 . S
H2561 C2572 0.950 . S
H2562 C2574 0.950 . S
H2563 C2575 0.950 . S
C2564 H2556 0.950 . S
C2564 C2565 1.386 . S
C2564 C2566 1.391 . S
C2565 C2564 1.386 . S
C2565 C2569 1.393 . S
C2566 H2558 0.950 . S
C2566 C2564 1.391 . S
C2566 C2567 1.400 . S
C2567 C2566 1.400 . S
C2567 C2568 1.398 . S
C2567 C2573 1.491 . S
C2568 H2559 0.950 . S
C2568 C2567 1.398 . S
C2568 C2569 1.391 . S
C2569 H2557 0.950 . S
C2569 C2565 1.393 . S
C2569 C2568 1.391 . S
C2570 H2560 0.950 . S
C2570 C2571 1.386 . S
C2570 C2572 1.391 . S
C2571 C2570 1.386 . S
C2571 C2575 1.393 . S
C2572 H2561 0.950 . S
C2572 C2570 1.391 . S
C2572 C2573 1.400 . S
C2573 C2567 1.491 . S
C2573 C2572 1.400 . S
C2573 C2574 1.398 . S
C2574 H2562 0.950 . S
C2574 C2573 1.398 . S
C2574 C2575 1.391 . S
C2575 H2563 0.950 . S
C2575 C2571 1.393 . S
C2575 C2574 1.391 . S
H2576 C2584 0.950 . S
H2577 C2589 0.950 . S
H2578 C2586 0.950 . S
H2579 C2588 0.950 . S
H2580 C2590 0.950 . S
H2581 C2592 0.950 . S
H2582 C2594 0.950 . S
H2583 C2595 0.950 . S
C2584 H2576 0.950 . S
C2584 C2585 1.386 . S
C2584 C2586 1.391 . S
C2585 C2584 1.386 . S
C2585 C2589 1.393 . S
C2586 H2578 0.950 . S
C2586 C2584 1.391 . S
C2586 C2587 1.400 . S
C2587 C2586 1.400 . S
C2587 C2588 1.398 . S
C2587 C2593 1.491 . S
C2588 H2579 0.950 . S
C2588 C2587 1.398 . S
C2588 C2589 1.391 . S
C2589 H2577 0.950 . S
C2589 C2585 1.393 . S
C2589 C2588 1.391 . S
C2590 H2580 0.950 . S
C2590 C2591 1.386 . S
C2590 C2592 1.391 . S
C2591 C2590 1.386 . S
C2591 C2595 1.393 . S
C2592 H2581 0.950 . S
C2592 C2590 1.391 . S
C2592 C2593 1.400 . S
C2593 C2587 1.491 . S
C2593 C2592 1.400 . S
C2593 C2594 1.398 . S
C2594 H2582 0.950 . S
C2594 C2593 1.398 . S
C2594 C2595 1.391 . S
C2595 H2583 0.950 . S
C2595 C2591 1.393 . S
C2595 C2594 1.391 . S
H2596 C2604 0.950 . S
H2597 C2609 0.950 . S
H2598 C2606 0.950 . S
H2599 C2608 0.950 . S
H2600 C2610 0.950 . S
H2601 C2612 0.950 . S
H2602 C2614 0.950 . S
H2603 C2615 0.950 . S
C2604 H2596 0.950 . S
C2604 C2605 1.386 . S
C2604 C2606 1.391 . S
C2605 C2604 1.386 . S
C2605 C2609 1.393 . S
C2606 H2598 0.950 . S
C2606 C2604 1.391 . S
C2606 C2607 1.400 . S
C2607 C2606 1.400 . S
C2607 C2608 1.398 . S
C2607 C2613 1.491 . S
C2608 H2599 0.950 . S
C2608 C2607 1.398 . S
C2608 C2609 1.391 . S
C2609 H2597 0.950 . S
C2609 C2605 1.393 . S
C2609 C2608 1.391 . S
C2610 H2600 0.950 . S
C2610 C2611 1.386 . S
C2610 C2612 1.391 . S
C2611 C2610 1.386 . S
C2611 C2615 1.393 . S
C2612 H2601 0.950 . S
C2612 C2610 1.391 . S
C2612 C2613 1.400 . S
C2613 C2607 1.491 . S
C2613 C2612 1.400 . S
C2613 C2614 1.398 . S
C2614 H2602 0.950 . S
C2614 C2613 1.398 . S
C2614 C2615 1.391 . S
C2615 H2603 0.950 . S
C2615 C2611 1.393 . S
C2615 C2614 1.391 . S
H2616 C2624 0.950 1_655 S
H2617 C2629 0.950 . S
H2618 C2626 0.950 1_655 S
H2619 C2628 0.950 . S
H2620 C2630 0.950 . S
H2621 C2632 0.950 . S
H2622 C2634 0.950 . S
H2623 C2635 0.950 . S
C2624 H2616 0.950 1_455 S
C2624 C2625 1.386 . S
C2624 C2626 1.391 . S
C2625 C2624 1.386 . S
C2625 C2629 1.393 . S
C2626 H2618 0.950 1_455 S
C2626 C2624 1.391 . S
C2626 C2627 1.400 . S
C2627 C2626 1.400 . S
C2627 C2628 1.398 . S
C2627 C2633 1.491 . S
C2628 H2619 0.950 . S
C2628 C2627 1.398 . S
C2628 C2629 1.391 . S
C2629 H2617 0.950 . S
C2629 C2625 1.393 . S
C2629 C2628 1.391 . S
C2630 H2620 0.950 . S
C2630 C2631 1.386 . S
C2630 C2632 1.391 . S
C2631 C2630 1.386 . S
C2631 C2635 1.393 . S
C2632 H2621 0.950 . S
C2632 C2630 1.391 . S
C2632 C2633 1.400 . S
C2633 C2627 1.491 . S
C2633 C2632 1.400 . S
C2633 C2634 1.398 . S
C2634 H2622 0.950 . S
C2634 C2633 1.398 . S
C2634 C2635 1.391 . S
C2635 H2623 0.950 . S
C2635 C2631 1.393 . S
C2635 C2634 1.391 . S
H2636 C2644 0.950 . S
H2637 C2649 0.950 . S
H2638 C2646 0.950 . S
H2639 C2648 0.950 . S
H2640 C2650 0.950 . S
H2641 C2652 0.950 . S
H2642 C2654 0.950 . S
H2643 C2655 0.950 . S
C2644 H2636 0.950 . S
C2644 C2645 1.386 . S
C2644 C2646 1.391 . S
C2645 C2644 1.386 . S
C2645 C2649 1.393 . S
C2646 H2638 0.950 . S
C2646 C2644 1.391 . S
C2646 C2647 1.400 . S
C2647 C2646 1.400 . S
C2647 C2648 1.398 . S
C2647 C2653 1.491 . S
C2648 H2639 0.950 . S
C2648 C2647 1.398 . S
C2648 C2649 1.391 . S
C2649 H2637 0.950 . S
C2649 C2645 1.393 . S
C2649 C2648 1.391 . S
C2650 H2640 0.950 . S
C2650 C2651 1.386 . S
C2650 C2652 1.391 . S
C2651 C2650 1.386 . S
C2651 C2655 1.393 . S
C2652 H2641 0.950 . S
C2652 C2650 1.391 . S
C2652 C2653 1.400 . S
C2653 C2647 1.491 . S
C2653 C2652 1.400 . S
C2653 C2654 1.398 . S
C2654 H2642 0.950 . S
C2654 C2653 1.398 . S
C2654 C2655 1.391 . S
C2655 H2643 0.950 . S
C2655 C2651 1.393 . S
C2655 C2654 1.391 . S
H2656 C2664 0.950 . S
H2657 C2669 0.950 . S
H2658 C2666 0.950 . S
H2659 C2668 0.950 . S
H2660 C2670 0.950 . S
H2661 C2672 0.950 . S
H2662 C2674 0.950 . S
H2663 C2675 0.950 . S
C2664 H2656 0.950 . S
C2664 C2665 1.386 . S
C2664 C2666 1.391 . S
C2665 C2664 1.386 . S
C2665 C2669 1.393 . S
C2666 H2658 0.950 . S
C2666 C2664 1.391 . S
C2666 C2667 1.400 . S
C2667 C2666 1.400 . S
C2667 C2668 1.398 . S
C2667 C2673 1.491 . S
C2668 H2659 0.950 . S
C2668 C2667 1.398 . S
C2668 C2669 1.391 . S
C2669 H2657 0.950 . S
C2669 C2665 1.393 . S
C2669 C2668 1.391 . S
C2670 H2660 0.950 . S
C2670 C2671 1.386 . S
C2670 C2672 1.391 . S
C2671 C2670 1.386 . S
C2671 C2675 1.393 . S
C2672 H2661 0.950 . S
C2672 C2670 1.391 . S
C2672 C2673 1.400 . S
C2673 C2667 1.491 . S
C2673 C2672 1.400 . S
C2673 C2674 1.398 . S
C2674 H2662 0.950 . S
C2674 C2673 1.398 . S
C2674 C2675 1.391 . S
C2675 H2663 0.950 . S
C2675 C2671 1.393 . S
C2675 C2674 1.391 . S
H2676 C2684 0.950 . S
H2677 C2689 0.950 . S
H2678 C2686 0.950 . S
H2679 C2688 0.950 . S
H2680 C2690 0.950 . S
H2681 C2692 0.950 . S
H2682 C2694 0.950 . S
H2683 C2695 0.950 . S
C2684 H2676 0.950 . S
C2684 C2685 1.386 . S
C2684 C2686 1.391 . S
C2685 C2684 1.386 . S
C2685 C2689 1.393 . S
C2686 H2678 0.950 . S
C2686 C2684 1.391 . S
C2686 C2687 1.400 . S
C2687 C2686 1.400 . S
C2687 C2688 1.398 . S
C2687 C2693 1.491 . S
C2688 H2679 0.950 . S
C2688 C2687 1.398 . S
C2688 C2689 1.391 . S
C2689 H2677 0.950 . S
C2689 C2685 1.393 . S
C2689 C2688 1.391 . S
C2690 H2680 0.950 . S
C2690 C2691 1.386 . S
C2690 C2692 1.391 . S
C2691 C2690 1.386 . S
C2691 C2695 1.393 . S
C2692 H2681 0.950 . S
C2692 C2690 1.391 . S
C2692 C2693 1.400 . S
C2693 C2687 1.491 . S
C2693 C2692 1.400 . S
C2693 C2694 1.398 . S
C2694 H2682 0.950 . S
C2694 C2693 1.398 . S
C2694 C2695 1.391 . S
C2695 H2683 0.950 . S
C2695 C2691 1.393 . S
C2695 C2694 1.391 . S
H2696 C2704 0.950 . S
H2697 C2709 0.950 . S
H2698 C2706 0.950 . S
H2699 C2708 0.950 . S
H2700 C2710 0.950 . S
H2701 C2712 0.950 . S
H2702 C2714 0.950 . S
H2703 C2715 0.950 . S
C2704 H2696 0.950 . S
C2704 C2705 1.386 . S
C2704 C2706 1.391 . S
C2705 C2704 1.386 . S
C2705 C2709 1.393 1_455 S
C2706 H2698 0.950 . S
C2706 C2704 1.391 . S
C2706 C2707 1.400 . S
C2707 C2706 1.400 . S
C2707 C2708 1.398 1_455 S
C2707 C2713 1.491 . S
C2708 H2699 0.950 . S
C2708 C2707 1.398 1_655 S
C2708 C2709 1.391 . S
C2709 H2697 0.950 . S
C2709 C2705 1.393 1_655 S
C2709 C2708 1.391 . S
C2710 H2700 0.950 . S
C2710 C2711 1.386 1_655 S
C2710 C2712 1.391 . S
C2711 C2710 1.386 1_455 S
C2711 C2715 1.393 . S
C2712 H2701 0.950 . S
C2712 C2710 1.391 . S
C2712 C2713 1.400 1_655 S
C2713 C2707 1.491 . S
C2713 C2712 1.400 1_455 S
C2713 C2714 1.398 . S
C2714 H2702 0.950 . S
C2714 C2713 1.398 . S
C2714 C2715 1.391 . S
C2715 H2703 0.950 . S
C2715 C2711 1.393 . S
C2715 C2714 1.391 . S
H2716 C2724 0.950 . S
H2717 C2729 0.950 . S
H2718 C2726 0.950 . S
H2719 C2728 0.950 . S
H2720 C2730 0.950 . S
H2721 C2732 0.950 . S
H2722 C2734 0.950 . S
H2723 C2735 0.950 . S
C2724 H2716 0.950 . S
C2724 C2725 1.386 . S
C2724 C2726 1.391 . S
C2725 C2724 1.386 . S
C2725 C2729 1.393 . S
C2726 H2718 0.950 . S
C2726 C2724 1.391 . S
C2726 C2727 1.400 . S
C2727 C2726 1.400 . S
C2727 C2728 1.398 . S
C2727 C2733 1.491 . S
C2728 H2719 0.950 . S
C2728 C2727 1.398 . S
C2728 C2729 1.391 . S
C2729 H2717 0.950 . S
C2729 C2725 1.393 . S
C2729 C2728 1.391 . S
C2730 H2720 0.950 . S
C2730 C2731 1.386 . S
C2730 C2732 1.391 . S
C2731 C2730 1.386 . S
C2731 C2735 1.393 . S
C2732 H2721 0.950 . S
C2732 C2730 1.391 . S
C2732 C2733 1.400 . S
C2733 C2727 1.491 . S
C2733 C2732 1.400 . S
C2733 C2734 1.398 . S
C2734 H2722 0.950 . S
C2734 C2733 1.398 . S
C2734 C2735 1.391 . S
C2735 H2723 0.950 . S
C2735 C2731 1.393 . S
C2735 C2734 1.391 . S
H2736 C2744 0.950 . S
H2737 C2749 0.950 . S
H2738 C2746 0.950 . S
H2739 C2748 0.950 . S
H2740 C2750 0.950 . S
H2741 C2752 0.950 . S
H2742 C2754 0.950 . S
H2743 C2755 0.950 . S
C2744 H2736 0.950 . S
C2744 C2745 1.386 . S
C2744 C2746 1.391 . S
C2745 C2744 1.386 . S
C2745 C2749 1.393 . S
C2746 H2738 0.950 . S
C2746 C2744 1.391 . S
C2746 C2747 1.400 . S
C2747 C2746 1.400 . S
C2747 C2748 1.398 . S
C2747 C2753 1.491 . S
C2748 H2739 0.950 . S
C2748 C2747 1.398 . S
C2748 C2749 1.391 . S
C2749 H2737 0.950 . S
C2749 C2745 1.393 . S
C2749 C2748 1.391 . S
C2750 H2740 0.950 . S
C2750 C2751 1.386 . S
C2750 C2752 1.391 . S
C2751 C2750 1.386 . S
C2751 C2755 1.393 . S
C2752 H2741 0.950 . S
C2752 C2750 1.391 . S
C2752 C2753 1.400 . S
C2753 C2747 1.491 . S
C2753 C2752 1.400 . S
C2753 C2754 1.398 . S
C2754 H2742 0.950 . S
C2754 C2753 1.398 . S
C2754 C2755 1.391 . S
C2755 H2743 0.950 . S
C2755 C2751 1.393 . S
C2755 C2754 1.391 . S
H2756 C2764 0.950 . S
H2757 C2769 0.950 . S
H2758 C2766 0.950 . S
H2759 C2768 0.950 . S
H2760 C2770 0.964 . S
H2761 C2772 0.950 . S
H2762 C2774 0.950 . S
H2763 C2775 0.950 . S
C2764 H2756 0.950 . S
C2764 C2765 1.386 . S
C2764 C2766 1.391 . S
C2765 C2764 1.386 . S
C2765 C2769 1.393 . S
C2766 H2758 0.950 . S
C2766 C2764 1.391 . S
C2766 C2767 1.400 . S
C2767 C2766 1.400 . S
C2767 C2768 1.398 . S
C2767 C2773 1.491 . S
C2768 H2759 0.950 . S
C2768 C2767 1.398 . S
C2768 C2769 1.391 . S
C2769 H2757 0.950 . S
C2769 C2765 1.393 . S
C2769 C2768 1.391 . S
C2770 H2760 0.964 . S
C2770 C2771 1.383 1_545 S
C2770 C2772 1.381 1_545 S
C2771 C2770 1.383 1_565 S
C2771 C2775 1.393 . S
C2772 H2761 0.950 . S
C2772 C2770 1.381 1_565 S
C2772 C2773 1.400 . S
C2773 C2767 1.491 . S
C2773 C2772 1.400 . S
C2773 C2774 1.398 . S
C2774 H2762 0.950 . S
C2774 C2773 1.398 . S
C2774 C2775 1.391 . S
C2775 H2763 0.950 . S
C2775 C2771 1.393 . S
C2775 C2774 1.391 . S
H2776 C2784 0.950 . S
H2777 C2789 0.950 . S
H2778 C2786 0.950 . S
H2779 C2788 0.950 . S
H2780 C2790 0.950 . S
H2781 C2792 0.950 . S
H2782 C2794 0.950 . S
H2783 C2795 0.950 . S
C2784 H2776 0.950 . S
C2784 C2785 1.386 . S
C2784 C2786 1.391 . S
C2785 C2784 1.386 . S
C2785 C2789 1.393 . S
C2786 H2778 0.950 . S
C2786 C2784 1.391 . S
C2786 C2787 1.400 . S
C2787 C2786 1.400 . S
C2787 C2788 1.398 . S
C2787 C2793 1.491 . S
C2788 H2779 0.950 . S
C2788 C2787 1.398 . S
C2788 C2789 1.391 . S
C2789 H2777 0.950 . S
C2789 C2785 1.393 . S
C2789 C2788 1.391 . S
C2790 H2780 0.950 . S
C2790 C2791 1.386 . S
C2790 C2792 1.391 . S
C2791 C2790 1.386 . S
C2791 C2795 1.393 . S
C2792 H2781 0.950 . S
C2792 C2790 1.391 . S
C2792 C2793 1.400 . S
C2793 C2787 1.491 . S
C2793 C2792 1.400 . S
C2793 C2794 1.398 . S
C2794 H2782 0.950 . S
C2794 C2793 1.398 . S
C2794 C2795 1.391 . S
C2795 H2783 0.950 . S
C2795 C2791 1.393 . S
C2795 C2794 1.391 . S
H2796 C2804 0.950 . S
H2797 C2809 0.950 . S
H2798 C2806 0.950 . S
H2799 C2808 0.950 . S
H2800 C2810 0.950 . S
H2801 C2812 0.950 . S
H2802 C2814 0.950 . S
H2803 C2815 0.950 . S
C2804 H2796 0.950 . S
C2804 C2805 1.386 1_554 S
C2804 C2806 1.391 . S
C2805 C2804 1.386 1_556 S
C2805 C2809 1.393 . S
C2806 H2798 0.950 . S
C2806 C2804 1.391 . S
C2806 C2807 1.400 . S
C2807 C2806 1.400 . S
C2807 C2808 1.398 1_554 S
C2807 C2813 1.491 . S
C2808 H2799 0.950 . S
C2808 C2807 1.398 1_556 S
C2808 C2809 1.391 . S
C2809 H2797 0.950 . S
C2809 C2805 1.393 . S
C2809 C2808 1.391 . S
C2810 H2800 0.950 . S
C2810 C2811 1.386 1_556 S
C2810 C2812 1.391 . S
C2811 C2810 1.386 1_554 S
C2811 C2815 1.393 . S
C2812 H2801 0.950 . S
C2812 C2810 1.391 . S
C2812 C2813 1.400 1_556 S
C2813 C2807 1.491 . S
C2813 C2812 1.400 1_554 S
C2813 C2814 1.398 . S
C2814 H2802 0.950 . S
C2814 C2813 1.398 . S
C2814 C2815 1.391 . S
C2815 H2803 0.950 . S
C2815 C2811 1.393 . S
C2815 C2814 1.391 . S
H2816 C2824 0.950 . S
H2817 C2829 0.950 . S
H2818 C2826 0.950 . S
H2819 C2828 0.950 . S
H2820 C2830 0.950 . S
H2821 C2832 0.950 . S
H2822 C2834 0.950 . S
H2823 C2835 0.950 . S
C2824 H2816 0.950 . S
C2824 C2825 1.386 . S
C2824 C2826 1.391 . S
C2825 C2824 1.386 . S
C2825 C2829 1.393 . S
C2826 H2818 0.950 . S
C2826 C2824 1.391 . S
C2826 C2827 1.400 . S
C2827 C2826 1.400 . S
C2827 C2828 1.398 . S
C2827 C2833 1.491 . S
C2828 H2819 0.950 . S
C2828 C2827 1.398 . S
C2828 C2829 1.391 . S
C2829 H2817 0.950 . S
C2829 C2825 1.393 . S
C2829 C2828 1.391 . S
C2830 H2820 0.950 . S
C2830 C2831 1.386 . S
C2830 C2832 1.391 . S
C2831 C2830 1.386 . S
C2831 C2835 1.393 . S
C2832 H2821 0.950 . S
C2832 C2830 1.391 . S
C2832 C2833 1.400 . S
C2833 C2827 1.491 . S
C2833 C2832 1.400 . S
C2833 C2834 1.398 . S
C2834 H2822 0.950 . S
C2834 C2833 1.398 . S
C2834 C2835 1.391 . S
C2835 H2823 0.950 . S
C2835 C2831 1.393 . S
C2835 C2834 1.391 . S
H2836 C2844 0.950 . S
H2837 C2849 0.950 . S
H2838 C2846 0.950 . S
H2839 C2848 0.950 . S
H2840 C2850 0.950 . S
H2841 C2852 0.950 . S
H2842 C2854 0.950 . S
H2843 C2855 0.950 . S
C2844 H2836 0.950 . S
C2844 C2845 1.386 . S
C2844 C2846 1.391 . S
C2845 C2844 1.386 . S
C2845 C2849 1.393 . S
C2846 H2838 0.950 . S
C2846 C2844 1.391 . S
C2846 C2847 1.400 . S
C2847 C2846 1.400 . S
C2847 C2848 1.398 . S
C2847 C2853 1.491 . S
C2848 H2839 0.950 . S
C2848 C2847 1.398 . S
C2848 C2849 1.391 . S
C2849 H2837 0.950 . S
C2849 C2845 1.393 . S
C2849 C2848 1.391 . S
C2850 H2840 0.950 . S
C2850 C2851 1.386 . S
C2850 C2852 1.391 . S
C2851 C2850 1.386 . S
C2851 C2855 1.393 . S
C2852 H2841 0.950 . S
C2852 C2850 1.391 . S
C2852 C2853 1.400 . S
C2853 C2847 1.491 . S
C2853 C2852 1.400 . S
C2853 C2854 1.398 . S
C2854 H2842 0.950 . S
C2854 C2853 1.398 . S
C2854 C2855 1.391 . S
C2855 H2843 0.950 . S
C2855 C2851 1.393 . S
C2855 C2854 1.391 . S
H2856 C2864 0.950 . S
H2857 C2869 0.950 . S
H2858 C2866 0.950 . S
H2859 C2868 0.950 . S
H2860 C2870 0.950 . S
H2861 C2872 0.950 . S
H2862 C2874 0.950 . S
H2863 C2875 0.950 . S
C2864 H2856 0.950 . S
C2864 C2865 1.386 . S
C2864 C2866 1.391 . S
C2865 C2864 1.386 . S
C2865 C2869 1.393 . S
C2866 H2858 0.950 . S
C2866 C2864 1.391 . S
C2866 C2867 1.400 . S
C2867 C2866 1.400 . S
C2867 C2868 1.398 . S
C2867 C2873 1.491 . S
C2868 H2859 0.950 . S
C2868 C2867 1.398 . S
C2868 C2869 1.391 . S
C2869 H2857 0.950 . S
C2869 C2865 1.393 . S
C2869 C2868 1.391 . S
C2870 H2860 0.950 . S
C2870 C2871 1.386 . S
C2870 C2872 1.391 . S
C2871 C2870 1.386 . S
C2871 C2875 1.393 . S
C2872 H2861 0.950 . S
C2872 C2870 1.391 . S
C2872 C2873 1.400 . S
C2873 C2867 1.491 . S
C2873 C2872 1.400 . S
C2873 C2874 1.398 . S
C2874 H2862 0.950 . S
C2874 C2873 1.398 . S
C2874 C2875 1.391 . S
C2875 H2863 0.950 . S
C2875 C2871 1.393 . S
C2875 C2874 1.391 . S
H2876 C2884 0.950 . S
H2877 C2889 0.950 . S
H2878 C2886 0.950 . S
H2879 C2888 0.950 . S
H2880 C2890 0.950 . S
H2881 C2892 0.950 . S
H2882 C2894 0.950 . S
H2883 C2895 0.950 . S
C2884 H2876 0.950 . S
C2884 C2885 1.386 . S
C2884 C2886 1.391 . S
C2885 C2884 1.386 . S
C2885 C2889 1.393 . S
C2886 H2878 0.950 . S
C2886 C2884 1.391 . S
C2886 C2887 1.400 . S
C2887 C2886 1.400 . S
C2887 C2888 1.398 . S
C2887 C2893 1.491 . S
C2888 H2879 0.950 . S
C2888 C2887 1.398 . S
C2888 C2889 1.391 . S
C2889 H2877 0.950 . S
C2889 C2885 1.393 . S
C2889 C2888 1.391 . S
C2890 H2880 0.950 . S
C2890 C2891 1.386 . S
C2890 C2892 1.391 . S
C2891 C2890 1.386 . S
C2891 C2895 1.393 . S
C2892 H2881 0.950 . S
C2892 C2890 1.391 . S
C2892 C2893 1.400 . S
C2893 C2887 1.491 . S
C2893 C2892 1.400 . S
C2893 C2894 1.398 . S
C2894 H2882 0.950 . S
C2894 C2893 1.398 . S
C2894 C2895 1.391 . S
C2895 H2883 0.950 . S
C2895 C2891 1.393 . S
C2895 C2894 1.391 . S
C985 C109 1.754 1_455 S
C991 C358 1.774 . S
C1005 C65 1.179 . S
C1011 C378 1.155 . S
C1025 C75 0.693 . S
C1031 C425 0.701 . S
C1051 C482 1.052 . S
C1045 C84 1.059 . S
C1065 C25 2.608 . S
C1071 C499 2.599 . S
C1091 C558 1.775 . S
C1085 C28 1.771 . S
C1111 C591 2.729 . S
C1105 C47 2.728 . S
C1125 C9 2.524 . S
C1131 C638 2.498 . S
C1151 C351 1.625 . S
C1145 C233 1.611 . S
C1165 C249 1.387 . S
C1171 C379 1.382 . S
C1191 C418 0.551 . S
C1185 C275 0.561 . S
C1211 C478 2.148 . S
C1205 C173 2.137 . S
C1225 C224 0.428 . S
C1231 C505 0.471 . S
C1251 C551 2.303 . S
C1245 C243 2.315 . S
C1271 C602 0.502 . S
C1265 C266 0.500 . S
C1291 C631 2.269 . S
C1285 C179 2.259 . S
C1311 C362 1.792 1_565 S
C1305 C163 1.822 . S
C1325 C289 2.217 . S
C1331 C658 2.184 . S
C1351 C722 1.237 . S
C1345 C333 1.233 . S
C1371 C758 1.335 1_655 S
C1365 C308 1.305 . S
C1385 C123 1.316 . S
C1391 C642 1.356 . S
C1405 C126 2.620 . S
C1411 C419 2.630 . S
C1425 C327 1.432 . S
C1431 C791 1.461 . S
C1451 C825 0.410 . S
C1445 C299 0.382 . S
C1471 C339 1.784 . S
C1465 C67 1.789 . S
C1491 C831 1.199 . S
C1485 C98 1.192 . S
C1505 C89 0.716 . S
C1511 C442 0.707 . S
C1525 C79 1.104 . S
C1531 C785 1.088 . S
C1551 C518 2.641 . S
C1545 C11 2.655 . S
C1565 C51 1.799 . S
C1571 C699 1.787 . S
C1591 C578 2.777 1_556 S
C1585 C33 2.782 . S
C1611 C859 2.482 . S
C1605 C14 2.506 1_655 S
C1631 C338 1.576 . S
C1625 C140 1.560 . S
C1651 C838 1.406 . S
C1645 C319 1.431 . S
C1665 C112 0.585 . S
C1671 C431 0.594 . S
C1685 C285 2.160 . S
C1691 C779 2.175 . S
C1705 C149 0.483 . S
C1711 C522 0.488 . S
C1731 C698 2.347 . S
C1725 C313 2.362 . S
C1745 C121 0.412 . S
C1751 C585 0.467 . S
C1765 C291 2.291 . S
C1771 C858 2.300 . S
C1785 C182 1.770 . S
C1791 C345 1.740 . S
C1805 C168 2.205 . S
C1811 C671 2.188 . S
C1825 C263 1.269 . S
C1831 C545 1.252 . S
C1845 C247 1.397 . S
C1851 C739 1.378 . S
C1871 C865 1.344 . S
C1865 C277 1.320 . S
C1885 C219 2.665 . S
C1891 C438 2.655 1_565 S
C1911 C458 1.521 . S
C1905 C257 1.503 . S
C1931 C402 0.390 . S
C1925 C201 0.353 . S
C1945 C81 1.767 . S
C1951 C918 1.767 . S
C1971 C818 1.147 . S
C1965 C93 1.178 . S
C1985 C103 0.695 . S
C1991 C945 0.699 . S
C2005 C56 1.037 . S
C2011 C802 1.035 . S
C2025 C53 2.609 . S
C2031 C659 2.596 . S
C2051 C718 1.771 . S
C2045 C0 1.759 1_655 S
C2071 C751 2.728 . S
C2065 C19 2.729 . S
C2091 C878 2.496 . S
C2085 C37 2.529 . S
C2111 C911 1.615 . S
C2105 C261 1.603 . S
C2125 C193 1.387 . S
C2131 C819 1.373 . S
C2151 C938 0.577 . S
C2145 C205 0.543 . S
C2171 C798 2.148 . S
C2165 C215 2.138 . S
C2191 C665 0.457 . S
C2185 C252 0.424 . S
C2205 C187 2.316 . S
C2211 C711 2.304 . S
C2231 C762 0.559 . S
C2225 C196 0.536 . S
C2245 C221 2.255 . S
C2251 C871 2.271 . S
C2271 C922 1.774 . S
C2265 C317 1.808 . S
C2285 C135 2.215 . S
C2291 C498 2.176 . S
C2311 C562 1.264 . S
C2305 C151 1.259 . S
C2331 C598 1.362 . S
C2325 C154 1.313 . S
C2351 C882 1.362 . S
C2345 C305 1.343 . S
C2365 C280 2.627 . S
C2371 C939 2.634 1_655 S
C2391 C471 1.472 . S
C2385 C145 1.447 . S
C2411 C385 0.357 . S
C2405 C117 0.347 . S
C2425 C95 1.787 . S
C2431 C899 1.784 . S
C2451 C391 1.209 . S
C2445 C70 1.197 . S
C2465 C61 0.721 . S
C2471 C962 0.727 . S
C2485 C107 1.100 . S
C2491 C465 1.068 . S
C2505 C39 2.655 . S
C2511 C678 2.638 1_556 S
C2531 C539 1.786 . S
C2525 C23 1.797 . S
C2545 C5 2.780 . S
C2551 C738 2.780 . S
C2565 C42 2.506 . S
C2571 C619 2.484 . S
C2591 C898 1.585 . S
C2585 C322 1.555 . S
C2605 C165 1.424 . S
C2611 C398 1.419 . S
C2631 C951 0.549 . S
C2625 C294 0.547 . S
C2645 C131 2.160 . S
C2651 C459 2.174 . S
C2665 C331 0.461 . S
C2671 C682 0.463 . S
C2691 C538 2.354 . S
C2685 C159 2.364 1_556 S
C2705 C303 0.455 . S
C2711 C745 0.490 . S
C2731 C618 2.304 . S
C2725 C137 2.288 . S
C2751 C905 1.730 . S
C2745 C238 1.765 . S
C2771 C511 2.192 1_665 S
C2765 C210 2.206 . S
C2785 C235 1.277 . S
C2791 C705 1.270 . S
C2811 C579 1.395 . S
C2805 C191 1.402 . S
C2825 C207 1.334 . S
C2831 C625 1.335 . S
C2845 C177 2.666 . S
C2851 C958 2.655 . S
C2871 C778 1.516 . S
C2865 C229 1.500 . S
C2891 C842 0.423 . S
C2885 C271 0.397 . S
