# Generated by pormake.
# Topology pth, (4,4)-cn, num edge types: 1
# Building blocks:
#     Node 0, Type 0, BuildingBlock: UXUYUI_clean_sbu_0, # of connection points: 4
#     Node 1, Type 0, BuildingBlock: UXUYUI_clean_sbu_0, # of connection points: 4
#     Node 2, Type 0, BuildingBlock: UXUYUI_clean_sbu_0, # of connection points: 4
#     Node 3, Type 1, BuildingBlock: MUDLON_clean_sbu_0, # of connection points: 4
#     Node 4, Type 1, BuildingBlock: MUDLON_clean_sbu_0, # of connection points: 4
#     Node 5, Type 1, BuildingBlock: MUDLON_clean_sbu_0, # of connection points: 4
#     Edge 6, Type (0, 1), BuildingBlock: FUNLAD_clean_linker_0, # of connection points: 2
#     Edge 7, Type (0, 1), BuildingBlock: FUNLAD_clean_linker_0, # of connection points: 2
#     Edge 8, Type (0, 1), BuildingBlock: FUNLAD_clean_linker_0, # of connection points: 2
#     Edge 9, Type (0, 1), BuildingBlock: FUNLAD_clean_linker_0, # of connection points: 2
#     Edge 10, Type (0, 1), BuildingBlock: FUNLAD_clean_linker_0, # of connection points: 2
#     Edge 11, Type (0, 1), BuildingBlock: FUNLAD_clean_linker_0, # of connection points: 2
#     Edge 12, Type (0, 1), BuildingBlock: FUNLAD_clean_linker_0, # of connection points: 2
#     Edge 13, Type (0, 1), BuildingBlock: FUNLAD_clean_linker_0, # of connection points: 2
#     Edge 14, Type (0, 1), BuildingBlock: FUNLAD_clean_linker_0, # of connection points: 2
#     Edge 15, Type (0, 1), BuildingBlock: FUNLAD_clean_linker_0, # of connection points: 2
#     Edge 16, Type (0, 1), BuildingBlock: FUNLAD_clean_linker_0, # of connection points: 2
#     Edge 17, Type (0, 1), BuildingBlock: FUNLAD_clean_linker_0, # of connection points: 2
# Relax obj value: 0.110
# Max RMSD: 0.229
# Mean RMSD: 0.139
data_MOF--net-pth--node1-UXUYUI_clean_sbu_0--node2-MUDLON_clean_sbu_0--edge1-FUNLAD_clean_linker_0
_symmetry_space_group_name_H-M    P1
_symmetry_Int_Tables_number       1
_symmetry_cell_setting            triclinic
loop_
_symmetry_equiv_pos_as_xyz
'x, y, z'
_cell_length_a     31.364793
_cell_length_b     31.394904
_cell_length_c     83.231751
_cell_angle_alpha  89.978263
_cell_angle_beta   90.016638
_cell_angle_gamma 119.93117
loop_
_atom_site_label
_atom_site_type_symbol
_atom_site_fract_x
_atom_site_fract_y
_atom_site_fract_z
_atom_type_partial_charge
Li0 Li 0.05106 0.03022 0.07603 0.0
Li1 Li 0.99345 0.03195 0.09608 0.0
Li2 Li 0.01486 0.9648 0.09592 0.0
Li3 Li 0.96023 0.96696 0.07503 0.0
C4 C 0.10587 0.07278 0.10222 0.0
N5 N 0.20207 0.14673 0.10656 0.0
C6 C 0.11599 0.11875 0.10793 0.0
C7 C 0.14465 0.06426 0.09885 0.0
C8 C 0.16489 0.15569 0.11002 0.0
C9 C 0.19304 0.10217 0.10108 0.0
C10 C 0.97949 0.07183 0.06706 0.0
C11 C 0.91591 0.09011 0.05973 0.0
N12 N 0.95096 0.13689 0.05602 0.0
C13 C 0.01488 0.1199 0.06297 0.0
C14 C 0.92959 0.05661 0.06525 0.0
C15 C 0.99972 0.15232 0.0575 0.0
C16 C 0.11187 0.04498 0.04939 0.0
N17 N 0.10622 0.06866 0.06217 0.0
C18 C 0.17443 0.14494 0.05339 0.0
C19 C 0.13656 0.11776 0.06433 0.0
C20 C 0.18077 0.12162 0.0399 0.0
C21 C 0.14892 0.07076 0.03808 0.0
H22 H 0.08676 0.00611 0.04775 0.0
H23 H 0.13093 0.13615 0.07438 0.0
C24 C 0.95741 0.05225 0.12428 0.0
N25 N 0.97941 0.07228 0.11001 0.0
C26 C 0.94793 0.07983 0.1354 0.0
C27 C 0.9842 0.14852 0.11704 0.0
C28 C 0.99291 0.11953 0.10626 0.0
C29 C 0.96166 0.12886 0.13192 0.0
H30 H 0.94765 0.01484 0.12711 0.0
H31 H 0.01173 0.13532 0.09511 0.0
C32 C 0.02685 0.9196 0.07111 0.0
N33 N 0.04352 0.84122 0.06963 0.0
C34 C 0.98782 0.87221 0.06823 0.0
C35 C 0.07442 0.92726 0.07306 0.0
C36 C 0.99699 0.83302 0.06756 0.0
C37 C 0.08207 0.88712 0.07233 0.0
C38 C 0.89988 0.93715 0.10206 0.0
C39 C 0.87498 0.88933 0.10818 0.0
C40 C 0.87435 0.96248 0.09955 0.0
C41 C 0.82469 0.86734 0.11145 0.0
C42 C 0.8241 0.93926 0.10297 0.0
N43 N 0.80049 0.89254 0.10879 0.0
C44 C 0.06575 0.94221 0.11965 0.0
C45 C 0.99398 0.87305 0.10959 0.0
C46 C 0.07397 0.91243 0.13023 0.0
N47 N 0.02628 0.92222 0.10961 0.0
C48 C 1.00079 0.84187 0.11996 0.0
C49 C 0.0411 0.86148 0.13056 0.0
H50 H 0.0906 0.98143 0.11962 0.0
H51 H 0.96253 0.85805 0.10165 0.0
C52 C 0.91335 0.9513 0.04542 0.0
N53 N 0.90788 0.93033 0.06012 0.0
C54 C 0.87927 0.92651 0.03322 0.0
C55 C 0.83411 0.85869 0.05146 0.0
C56 C 0.86914 0.88494 0.06336 0.0
C57 C 0.83926 0.87922 0.03606 0.0
H58 H 0.94481 0.98715 0.04308 0.0
H59 H 0.86616 0.86839 0.07498 0.0
O60 O 0.05824 0.03622 0.10005 0.0
O61 O 0.99375 0.03951 0.07232 0.0
O62 O 0.01847 0.95828 0.07209 0.0
O63 O 0.94907 0.95911 0.09871 0.0
H64 H 0.08647 0.12589 0.1107 0.0
H65 H 0.13746 0.02886 0.09449 0.0
H66 H 0.17327 0.1915 0.11438 0.0
H67 H 0.22341 0.09617 0.09843 0.0
H68 H 0.87742 0.07884 0.05832 0.0
H69 H 0.05363 0.13221 0.06416 0.0
H70 H 0.90167 0.01922 0.06792 0.0
H71 H 0.02674 0.18974 0.05442 0.0
H72 H 0.19826 0.18389 0.05546 0.0
H73 H 0.15149 0.05117 0.02777 0.0
H74 H 0.9301 0.0629 0.14663 0.0
H75 H 0.99638 0.18639 0.11395 0.0
H76 H 0.9508 0.86568 0.06669 0.0
H77 H 0.10505 0.96379 0.07516 0.0
H78 H 0.9671 0.79608 0.06544 0.0
H79 H 0.11866 0.89246 0.0739 0.0
H80 H 0.89422 0.8693 0.11032 0.0
H81 H 0.89321 0.99982 0.09515 0.0
H82 H 0.80491 0.83025 0.11611 0.0
H83 H 0.8039 0.95845 0.10106 0.0
H84 H 0.1058 0.9292 0.13804 0.0
H85 H 0.97402 0.80299 0.11994 0.0
H86 H 0.88452 0.94412 0.02163 0.0
H87 H 0.80435 0.82206 0.05414 0.0
Li88 Li 0.99322 0.95959 0.40708 0.0
Li89 Li 0.04937 0.01138 0.42776 0.0
Li90 Li 0.96447 0.99298 0.42791 0.0
Li91 Li 0.02079 0.04681 0.40753 0.0
C92 C 0.95055 0.90034 0.4339 0.0
N93 N 0.87239 0.80808 0.44071 0.0
C94 C 0.95419 0.87238 0.44632 0.0
C95 C 0.90716 0.88136 0.42492 0.0
C96 C 0.91426 0.82581 0.44958 0.0
C97 C 0.86807 0.83467 0.42856 0.0
C98 C 0.09193 0.99741 0.40035 0.0
C99 C 0.15543 0.99867 0.38369 0.0
N100 N 0.15323 0.96099 0.39243 0.0
C101 C 0.0903 0.95871 0.40917 0.0
C102 C 0.12473 0.01758 0.38751 0.0
C103 C 0.12158 0.94082 0.40497 0.0
C104 C 0.96468 0.9121 0.37735 0.0
N105 N 0.9766 0.90623 0.39257 0.0
C106 C 0.96748 0.82808 0.38569 0.0
C107 C 0.97814 0.86525 0.39692 0.0
C108 C 0.95526 0.83319 0.36981 0.0
C109 C 0.95381 0.87594 0.36575 0.0
H110 H 0.96429 0.94532 0.37418 0.0
H111 H 0.98802 0.86153 0.40908 0.0
C112 C 0.09001 1.00223 0.45663 0.0
N113 N 0.10259 0.02251 0.44174 0.0
C114 C 0.12634 0.0092 0.46774 0.0
C115 C 0.18817 0.05798 0.44802 0.0
C116 C 0.15056 0.04993 0.43726 0.0
C117 C 0.17633 0.03762 0.46356 0.0
H118 H 0.05158 0.98064 0.45988 0.0
H119 H 0.15969 0.06587 0.42536 0.0
C120 C 0.92218 0.0096 0.40087 0.0
N121 N 0.86097 0.04666 0.3936 0.0
C122 C 0.92397 0.04779 0.41002 0.0
C123 C 0.88928 0.99028 0.38802 0.0
C124 C 0.89273 0.06601 0.40616 0.0
C125 C 0.85862 0.0095 0.38453 0.0
C126 C 0.06303 0.10323 0.43504 0.0
C127 C 0.05967 0.12853 0.44834 0.0
C128 C 0.10596 0.12435 0.42579 0.0
C129 C 0.09943 0.17464 0.45219 0.0
C130 C 0.14491 0.17051 0.43003 0.0
N131 N 0.14088 0.19449 0.44304 0.0
C132 C 0.92419 0.99761 0.45736 0.0
C133 C 0.86351 0.95748 0.43728 0.0
C134 C 0.88828 0.99143 0.46852 0.0
N135 N 0.91139 0.98104 0.44207 0.0
C136 C 0.82633 0.95064 0.44805 0.0
C137 C 0.8385 0.96804 0.46392 0.0
H138 H 0.96249 0.01575 0.46089 0.0
H139 H 0.85415 0.94431 0.42507 0.0
C140 C 0.04661 0.09597 0.37804 0.0
N141 N 0.03665 0.10124 0.39356 0.0
C142 C 0.05544 0.13231 0.36671 0.0
C143 C 0.04438 0.17938 0.38759 0.0
C144 C 0.03557 0.14198 0.39852 0.0
C145 C 0.05398 0.17459 0.37138 0.0
H146 H 0.04694 0.06303 0.37441 0.0
H147 H 0.02691 0.14506 0.41089 0.0
O148 O 0.98944 0.94603 0.43065 0.0
O149 O 0.06157 0.01556 0.40412 0.0
O150 O 0.95255 0.9912 0.40431 0.0
O151 O 0.02436 0.05797 0.43122 0.0
H152 H 0.98755 0.88653 0.45336 0.0
H153 H 0.90362 0.90228 0.41523 0.0
H154 H 0.91657 0.80377 0.45917 0.0
H155 H 0.83429 0.81955 0.42172 0.0
H156 H 0.181 0.01392 0.37378 0.0
H157 H 0.06523 0.94261 0.41916 0.0
H158 H 0.1264 0.04754 0.38056 0.0
H159 H 0.12069 0.91088 0.41169 0.0
H160 H 0.96864 0.79564 0.38943 0.0
H161 H 0.94548 0.88202 0.35362 0.0
H162 H 0.11525 0.99201 0.47943 0.0
H163 H 0.22609 0.08057 0.44429 0.0
H164 H 0.9491 0.06321 0.42003 0.0
H165 H 0.88749 0.96072 0.38081 0.0
H166 H 0.89373 0.09555 0.41314 0.0
H167 H 0.83297 0.99489 0.37462 0.0
H168 H 0.02666 0.11267 0.45561 0.0
H169 H 0.10927 0.10543 0.41544 0.0
H170 H 0.09735 0.19464 0.46246 0.0
H171 H 0.17835 0.18726 0.42299 0.0
H172 H 0.89948 0.00459 0.48067 0.0
H173 H 0.78861 0.93278 0.44389 0.0
H174 H 0.06322 0.12727 0.3544 0.0
H175 H 0.04225 0.21099 0.39169 0.0
Li176 Li 0.03548 0.98876 0.73981 0.0
Li177 Li 0.03659 0.04063 0.76078 0.0
Li178 Li 0.97171 0.9537 0.76071 0.0
Li179 Li 0.97427 0.01637 0.73966 0.0
C180 C 0.08547 0.98106 0.76592 0.0
N181 N 0.17193 0.9803 0.77137 0.0
C182 C 0.13074 0.0233 0.7631 0.0
C183 C 0.08408 0.93853 0.77163 0.0
C184 C 0.17407 0.02217 0.7659 0.0
C185 C 0.12823 0.93885 0.77427 0.0
C186 C 0.07714 0.10388 0.73408 0.0
C187 C 0.09129 0.18523 0.72832 0.0
N188 N 0.14031 0.20169 0.72698 0.0
C189 C 0.12755 0.12144 0.73244 0.0
C190 C 0.05871 0.13585 0.73185 0.0
C191 C 0.15893 0.17108 0.72894 0.0
C192 C 0.08758 1.00146 0.71129 0.0
N193 N 0.07379 0.97446 0.72503 0.0
C194 C 0.10951 0.92702 0.71574 0.0
C195 C 0.08425 0.93778 0.72747 0.0
C196 C 0.12364 0.95395 0.70132 0.0
C197 C 0.11262 0.99184 0.69926 0.0
H198 H 0.07826 0.02997 0.70954 0.0
H199 H 0.07189 0.91597 0.7383 0.0
C200 C 0.08192 0.07263 0.7906 0.0
N201 N 0.07669 0.09067 0.77634 0.0
C202 C 0.10884 0.10431 0.80311 0.0
C203 C 0.12496 0.1731 0.78615 0.0
C204 C 0.09718 0.13996 0.77399 0.0
C205 C 0.13128 0.15547 0.80099 0.0
H206 H 0.06443 0.03332 0.79234 0.0
H207 H 0.09183 0.15386 0.7628 0.0
C208 C 0.96045 0.9136 0.72625 0.0
N209 N 0.96132 0.8473 0.70465 0.0
C210 C 0.9612 0.92212 0.70975 0.0
C211 C 0.9599 0.8713 0.73178 0.0
C212 C 0.96174 0.88819 0.69901 0.0
C213 C 0.96034 0.8382 0.72066 0.0
C214 C 0.96398 0.0436 0.77509 0.0
C215 C 0.96045 0.03012 0.79125 0.0
C216 C 0.96961 0.08928 0.77097 0.0
C217 C 0.9632 0.06298 0.80307 0.0
C218 C 0.97219 0.12109 0.78315 0.0
N219 N 0.96902 0.10741 0.79882 0.0
C220 C 0.94623 0.89457 0.78853 0.0
C221 C 0.88526 0.86411 0.76817 0.0
C222 C 0.9161 0.85516 0.79858 0.0
N223 N 0.93029 0.89834 0.77369 0.0
C224 C 0.85401 0.82399 0.77779 0.0
C225 C 0.86917 0.81921 0.79327 0.0
H226 H 0.98227 0.92243 0.7926 0.0
H227 H 0.87348 0.86822 0.75634 0.0
C228 C 0.94855 0.04361 0.71058 0.0
N229 N 0.93514 0.03259 0.72623 0.0
C230 C 0.91969 0.05321 0.70002 0.0
C231 C 0.86413 0.04076 0.72194 0.0
C232 C 0.89405 0.03128 0.73208 0.0
C233 C 0.87653 0.05151 0.70561 0.0
H234 H 0.9814 0.04428 0.70626 0.0
H235 H 0.88426 0.02238 0.74458 0.0
O236 O 0.04259 0.98121 0.76317 0.0
O237 O 0.04577 0.05528 0.73727 0.0
O238 O 0.9617 0.94719 0.73696 0.0
O239 O 0.96316 0.01273 0.76337 0.0
H240 H 0.13236 0.0566 0.75885 0.0
H241 H 0.04923 0.90556 0.77388 0.0
H242 H 0.2094 0.05458 0.76375 0.0
H243 H 0.12774 0.90614 0.77863 0.0
H244 H 0.07761 0.21046 0.72667 0.0
H245 H 0.14228 0.09696 0.73375 0.0
H246 H 0.01977 0.12282 0.73291 0.0
H247 H 0.19806 0.18523 0.7277 0.0
H248 H 0.11664 0.89706 0.71775 0.0
H249 H 0.12322 0.01391 0.68843 0.0
H250 H 0.11133 0.08862 0.81441 0.0
H251 H 0.14165 0.21213 0.78384 0.0
H252 H 0.96195 0.95485 0.70529 0.0
H253 H 0.95986 0.86448 0.74453 0.0
H254 H 0.96266 0.89444 0.6862 0.0
H255 H 0.96021 0.80544 0.72477 0.0
H256 H 0.95627 0.99494 0.79461 0.0
H257 H 0.97246 0.10021 0.75852 0.0
H258 H 0.9609 0.05322 0.81564 0.0
H259 H 0.97688 0.15671 0.78016 0.0
H260 H 0.92952 0.85275 0.81034 0.0
H261 H 0.81794 0.79759 0.77327 0.0
H262 H 0.93047 0.06061 0.68752 0.0
H263 H 0.83164 0.03965 0.72686 0.0
Mg264 Mg 1.00358 0.4964 0.25209 0.0
C265 C 0.0555 0.4879 0.28156 0.0
O266 O 0.04044 0.5171 0.28732 0.0
C267 C 0.06143 0.60228 0.23906 0.0
O268 O 0.06346 0.6142 0.25429 0.0
C269 C 0.9524 0.43504 0.22266 0.0
O270 O 0.96542 0.47876 0.21684 0.0
O271 O 0.95989 0.43107 0.23747 0.0
O272 O 0.04909 0.47686 0.2667 0.0
O273 O 0.96323 0.51602 0.26911 0.0
C274 C 0.94947 0.54709 0.26614 0.0
O275 O 0.95315 0.56354 0.25139 0.0
O276 O 0.04237 0.55718 0.23526 0.0
Mg277 Mg 0.50361 0.99542 0.58372 0.0
C278 C 0.49617 0.04997 0.55397 0.0
O279 O 0.533 0.04507 0.54874 0.0
C280 C 0.55855 0.04139 0.61466 0.0
O281 O 0.51332 0.02469 0.61976 0.0
C282 C 0.39999 0.94812 0.59692 0.0
O283 O 0.39368 0.96588 0.5834 0.0
O284 O 0.44126 0.9508 0.59952 0.0
O285 O 0.4806 0.03662 0.56823 0.0
O286 O 0.52977 0.95626 0.56866 0.0
C287 C 0.51275 0.93762 0.55494 0.0
O288 O 0.47234 0.93589 0.54976 0.0
O289 O 0.56574 0.03839 0.59975 0.0
Mg290 Mg 0.50022 0.50254 0.91891 0.0
C291 C 0.3938 0.44514 0.90636 0.0
O292 O 0.38419 0.42894 0.92122 0.0
C293 C 0.55583 0.60749 0.93109 0.0
O294 O 0.57997 0.61312 0.91763 0.0
C295 C 0.45837 0.39895 0.93429 0.0
O296 O 0.44572 0.38236 0.91955 0.0
O297 O 0.48332 0.4451 0.93665 0.0
O298 O 0.43733 0.47816 0.9027 0.0
O299 O 0.56556 0.52422 0.90411 0.0
C300 C 0.56154 0.52439 0.88888 0.0
O301 O 0.51741 0.50541 0.88256 0.0
O302 O 0.51767 0.56621 0.93394 0.0
C303 C 0.93991 0.19375 0.13913 0.0
C304 C 0.95422 0.15976 0.14395 0.0
C305 C 0.93467 0.22394 0.15042 0.0
C306 C 0.9435 0.22074 0.16687 0.0
C307 C 0.95747 0.1865 0.17163 0.0
C308 C 0.96267 0.15638 0.16037 0.0
C309 C 0.94144 0.25385 0.17936 0.0
C310 C 0.92104 0.2825 0.17722 0.0
C311 C 0.924 0.31859 0.18945 0.0
C312 C 0.92357 0.36091 0.18423 0.0
C313 C 0.93061 0.39779 0.19513 0.0
C314 C 0.93762 0.39292 0.21157 0.0
H315 H 0.92683 0.2795 0.21063 0.0
C316 C 0.93499 0.34919 0.21695 0.0
C317 C 0.92824 0.31241 0.20603 0.0
H318 H 0.93979 0.34399 0.22955 0.0
H319 H 0.93277 0.19713 0.1266 0.0
H320 H 0.92483 0.25027 0.14603 0.0
H321 H 0.96499 0.18336 0.18415 0.0
H322 H 0.97455 0.13126 0.16452 0.0
H323 H 0.959 0.25544 0.19076 0.0
H324 H 0.90404 0.28205 0.16583 0.0
H325 H 0.91966 0.36638 0.17158 0.0
H326 H 0.93205 0.4308 0.19056 0.0
C327 C 0.75328 0.9198 0.47591 0.0
C328 C 0.79989 0.96262 0.47556 0.0
C329 C 0.71752 0.9148 0.48705 0.0
C330 C 0.72756 0.95266 0.49809 0.0
C331 C 0.77408 0.99527 0.49773 0.0
C332 C 0.80963 1.00035 0.48659 0.0
C333 C 0.6916 0.94897 0.51051 0.0
C334 C 0.64241 0.91914 0.50946 0.0
C335 C 0.60777 0.91932 0.52169 0.0
C336 C 0.56046 0.90863 0.51694 0.0
C337 C 0.5286 0.91249 0.52788 0.0
C338 C 0.54321 0.92657 0.5439 0.0
H339 H 0.65668 0.93733 0.5422 0.0
C340 C 0.58945 0.93437 0.54886 0.0
C341 C 0.6213 0.93073 0.53792 0.0
H342 H 0.60176 0.94471 0.56114 0.0
H343 H 0.74473 0.88963 0.46779 0.0
H344 H 0.68265 0.88083 0.48717 0.0
H345 H 0.78297 0.02505 0.50607 0.0
H346 H 0.84469 0.0342 0.48654 0.0
H347 H 0.70643 0.9744 0.52053 0.0
H348 H 0.62663 0.89687 0.49878 0.0
H349 H 0.54876 0.89904 0.50458 0.0
H350 H 0.49318 0.90596 0.52365 0.0
C351 C 0.83161 0.78532 0.82033 0.0
C352 C 0.83579 0.77757 0.8039 0.0
C353 C 0.79846 0.74672 0.83016 0.0
C354 C 0.76891 0.69918 0.8238 0.0
C355 C 0.77367 0.69143 0.80743 0.0
C356 C 0.80669 0.73003 0.79761 0.0
C357 C 0.73023 0.6577 0.83341 0.0
C358 C 0.72813 0.65664 0.84963 0.0
C359 C 0.68622 0.61781 0.85909 0.0
C360 C 0.69221 0.61422 0.87569 0.0
C361 C 0.65239 0.58205 0.88533 0.0
C362 C 0.60547 0.55287 0.87857 0.0
H363 H 0.63248 0.58924 0.83967 0.0
C364 C 0.59985 0.55506 0.86189 0.0
C365 C 0.63953 0.58721 0.85227 0.0
H366 H 0.5642 0.53328 0.85627 0.0
H367 H 0.85284 0.82166 0.82551 0.0
H368 H 0.79517 0.75498 0.84255 0.0
H369 H 0.75132 0.65539 0.80214 0.0
H370 H 0.80934 0.72259 0.78505 0.0
H371 H 0.70244 0.62674 0.82665 0.0
H372 H 0.75812 0.68551 0.85644 0.0
H373 H 0.72756 0.63738 0.88133 0.0
H374 H 0.65803 0.58149 0.89815 0.0
C375 C 0.06373 0.84503 0.158 0.0
C376 C 0.04805 0.82922 0.14217 0.0
C377 C 0.06861 0.81418 0.16909 0.0
C378 C 0.05813 0.76665 0.1646 0.0
C379 C 0.0427 0.75103 0.14876 0.0
C380 C 0.03787 0.78189 0.13768 0.0
C381 C 0.05983 0.7312 0.17618 0.0
C382 C 0.08472 0.74414 0.19024 0.0
C383 C 0.08267 0.70793 0.20229 0.0
C384 C 0.09266 0.72227 0.21847 0.0
C385 C 0.08773 0.68856 0.23036 0.0
C386 C 0.07308 0.63967 0.22632 0.0
H387 H 0.06436 0.64745 0.18578 0.0
C388 C 0.06561 0.62595 0.21003 0.0
C389 C 0.07047 0.65964 0.19814 0.0
H390 H 0.05479 0.58874 0.20645 0.0
H391 H 0.07092 0.88084 0.162 0.0
H392 H 0.07907 0.82739 0.18125 0.0
H393 H 0.03412 0.71461 0.14493 0.0
H394 H 0.02625 0.76863 0.12556 0.0
H395 H 0.03866 0.69262 0.17296 0.0
H396 H 0.10579 0.78265 0.19353 0.0
H397 H 0.10277 0.75934 0.22202 0.0
H398 H 0.094 0.70052 0.24277 0.0
C399 C 0.25858 0.04587 0.47042 0.0
C400 C 0.21558 0.04573 0.47535 0.0
C401 C 0.29436 0.05147 0.48164 0.0
C402 C 0.28805 0.05725 0.4981 0.0
C403 C 0.24536 0.05758 0.50297 0.0
C404 C 0.20977 0.05221 0.49177 0.0
C405 C 0.32311 0.05968 0.51068 0.0
C406 C 0.37083 0.07396 0.50791 0.0
C407 C 0.4047 0.07255 0.52028 0.0
C408 C 0.44756 0.07295 0.51511 0.0
C409 C 0.47851 0.06787 0.52611 0.0
C410 C 0.46747 0.06245 0.54261 0.0
H411 H 0.3638 0.07137 0.54159 0.0
C412 C 0.42604 0.06465 0.5479 0.0
C413 C 0.39514 0.06986 0.53691 0.0
H414 H 0.41669 0.06114 0.56055 0.0
H415 H 0.26397 0.04014 0.45793 0.0
H416 H 0.3259 0.0495 0.47738 0.0
H417 H 0.23934 0.06182 0.51555 0.0
H418 H 0.17762 0.05315 0.49602 0.0
H419 H 0.30812 0.04846 0.52267 0.0
H420 H 0.38559 0.0854 0.49589 0.0
H421 H 0.45638 0.07561 0.50243 0.0
H422 H 0.51018 0.06651 0.52158 0.0
C423 C 0.16084 0.23418 0.81679 0.0
C424 C 0.16089 0.18984 0.81421 0.0
C425 C 0.18792 0.26566 0.82943 0.0
C426 C 0.21551 0.25336 0.83983 0.0
C427 C 0.21549 0.20919 0.83728 0.0
C428 C 0.18902 0.1781 0.82457 0.0
C429 C 0.24321 0.28443 0.85382 0.0
C430 C 0.26285 0.33365 0.85434 0.0
C431 C 0.29348 0.3637 0.86808 0.0
C432 C 0.33376 0.4107 0.8652 0.0
C433 C 0.36551 0.43807 0.87772 0.0
C434 C 0.35699 0.41938 0.89348 0.0
H435 H 0.25211 0.31044 0.88669 0.0
C436 C 0.31501 0.37352 0.89651 0.0
C437 C 0.2837 0.34591 0.88396 0.0
H438 H 0.30719 0.35806 0.9085 0.0
H439 H 0.13897 0.24415 0.80929 0.0
H440 H 0.18607 0.29882 0.83126 0.0
H441 H 0.2364 0.19877 0.8451 0.0
H442 H 0.19093 0.14492 0.82285 0.0
H443 H 0.25051 0.26622 0.86367 0.0
H444 H 0.26009 0.35291 0.8439 0.0
H445 H 0.34179 0.42553 0.85311 0.0
H446 H 0.39737 0.47337 0.87498 0.0
C447 C 0.79252 0.03079 0.6956 0.0
C448 C 0.84403 0.05943 0.69436 0.0
C449 C 0.76194 0.03663 0.68464 0.0
C450 C 0.78211 0.07154 0.67218 0.0
C451 C 0.83353 0.1002 0.67097 0.0
C452 C 0.86412 0.09445 0.68195 0.0
C453 C 0.75088 0.07685 0.6597 0.0
C454 C 0.70343 0.06414 0.66215 0.0
C455 C 0.67003 0.06502 0.64951 0.0
C456 C 0.62493 0.06028 0.65433 0.0
C457 C 0.58984 0.05529 0.64298 0.0
C458 C 0.59883 0.0547 0.62646 0.0
H459 H 0.71363 0.06915 0.62859 0.0
C460 C 0.64477 0.06158 0.62156 0.0
C461 C 0.67991 0.06647 0.63293 0.0
H462 H 0.65284 0.061 0.60893 0.0
H463 H 0.77568 1.00268 0.70475 0.0
H464 H 0.72262 0.01253 0.68572 0.0
H465 H 0.85018 0.12714 0.66146 0.0
H466 H 0.90357 0.11755 0.6807 0.0
H467 H 0.76823 0.09263 0.64828 0.0
H468 H 0.68784 0.05244 0.67406 0.0
H469 H 0.61612 0.059 0.66697 0.0
H470 H 0.55491 0.05011 0.64721 0.0
C471 C 0.75389 0.82124 0.02553 0.0
C472 C 0.80474 0.85082 0.02279 0.0
C473 C 0.72193 0.79416 0.01298 0.0
C474 C 0.74023 0.79601 0.99736 0.0
C475 C 0.79104 0.8256 0.99472 0.0
C476 C 0.82281 0.8526 1.00721 0.0
C477 C 0.70885 0.76687 0.98352 0.0
C478 C 0.65917 0.74063 0.98349 0.0
C479 C 0.63039 0.70988 0.96953 0.0
C480 C 0.58466 0.66752 0.97225 0.0
C481 C 0.55892 0.63534 0.95963 0.0
C482 C 0.57826 0.6451 0.94395 0.0
H483 H 0.68199 0.75465 0.9509 0.0
C484 C 0.62238 0.68917 0.94105 0.0
C485 C 0.64805 0.72128 0.95365 0.0
H486 H 0.63801 0.69827 0.92909 0.0
H487 H 0.73869 0.81923 0.03737 0.0
H488 H 0.6833 0.77157 0.01574 0.0
H489 H 0.80648 0.82765 0.9829 0.0
H490 H 0.86181 0.87419 1.00468 0.0
H491 H 0.72837 0.76629 0.97283 0.0
H492 H 0.63868 0.73903 0.99417 0.0
H493 H 0.56973 0.65821 0.9843 0.0
H494 H 0.52491 0.60187 0.9623 0.0
C495 C 0.97342 0.77137 0.35689 0.0
C496 C 0.94529 0.79494 0.35743 0.0
C497 C 0.96567 0.7372 0.34482 0.0
C498 C 0.9293 0.72549 0.333 0.0
C499 C 0.90102 0.7488 0.33361 0.0
C500 C 0.90869 0.78287 0.3457 0.0
C501 C 0.92209 0.69189 0.31929 0.0
C502 C 0.93525 0.65701 0.31972 0.0
C503 C 0.93238 0.62609 0.30567 0.0
C504 C 0.93642 0.58408 0.30842 0.0
C505 C 0.93936 0.55688 0.29559 0.0
C506 C 0.93859 0.57117 0.27963 0.0
H507 H 0.92769 0.67191 0.28689 0.0
C508 C 0.93261 0.61206 0.27683 0.0
C509 C 0.92974 0.63934 0.28967 0.0
H510 H 0.93223 0.62435 0.2647 0.0
H511 H 1.00259 0.78046 0.36551 0.0
H512 H 0.98946 0.72145 0.34453 0.0
H513 H 0.87296 0.74079 0.32464 0.0
H514 H 0.8859 0.79979 0.34583 0.0
H515 H 0.9045 0.69586 0.30862 0.0
H516 H 0.94874 0.65036 0.33091 0.0
H517 H 0.93866 0.57293 0.32057 0.0
H518 H 0.94401 0.52564 0.29822 0.0
C519 C 0.18661 0.93194 0.69182 0.0
C520 C 0.14882 0.94226 0.68831 0.0
C521 C 0.21146 0.92299 0.67944 0.0
C522 C 0.19893 0.92413 0.66324 0.0
C523 C 0.16008 0.93288 0.65984 0.0
C524 C 0.1355 0.94202 0.67218 0.0
C525 C 0.22522 0.91704 0.64945 0.0
C526 C 0.2711 0.9235 0.65028 0.0
C527 C 0.29987 0.92315 0.636 0.0
C528 C 0.34248 0.91984 0.63849 0.0
C529 C 0.37373 0.92514 0.62568 0.0
C530 C 0.36327 0.93425 0.61004 0.0
H531 H 0.25686 0.93425 0.6176 0.0
C532 C 0.31964 0.93552 0.60741 0.0
C533 C 0.28844 0.93026 0.6202 0.0
H534 H 0.31048 0.94269 0.59554 0.0
H535 H 0.19769 0.93173 0.70414 0.0
H536 H 0.24015 0.91507 0.68269 0.0
H537 H 0.14914 0.9335 0.64753 0.0
H538 H 0.10589 0.94881 0.66905 0.0
H539 H 0.20644 0.90856 0.63796 0.0
H540 H 0.28977 0.93149 0.66179 0.0
H541 H 0.35245 0.91454 0.65048 0.0
H542 H 0.40711 0.92412 0.62816 0.0
C543 C 0.22981 0.19817 0.02332 0.0
C544 C 0.21891 0.15032 0.0275 0.0
C545 C 0.26404 0.22443 0.01126 0.0
C546 C 0.28829 0.20349 1.00301 0.0
C547 C 0.27741 0.15574 1.00712 0.0
C548 C 0.24349 0.12961 0.01929 0.0
C549 C 0.32275 0.22945 0.98949 0.0
C550 C 0.35019 0.27884 0.98864 0.0
C551 C 0.38194 0.30629 0.97471 0.0
C552 C 0.41886 0.35536 0.97699 0.0
C553 C 0.44564 0.38458 0.96396 0.0
C554 C 0.43582 0.36559 0.94825 0.0
H555 H 0.34485 0.24915 0.95672 0.0
C556 C 0.40032 0.31583 0.94601 0.0
C557 C 0.37357 0.28648 0.95908 0.0
H558 H 0.39159 0.30006 0.93407 0.0
H559 H 0.21084 0.21498 0.02903 0.0
H560 H 0.27015 0.26048 0.00809 0.0
H561 H 0.29529 0.13859 1.0009 0.0
H562 H 0.23662 0.09314 0.02227 0.0
H563 H 0.32625 0.20702 0.98024 0.0
H564 H 0.34981 0.30062 0.99873 0.0
H565 H 0.42612 0.37168 0.98886 0.0
H566 H 0.47272 0.4227 0.96618 0.0
C567 C 0.08846 0.26293 0.36294 0.0
C568 C 0.06074 0.21254 0.35931 0.0
C569 C 0.09388 0.29839 0.35163 0.0
C570 C 0.07116 0.28419 0.33644 0.0
C571 C 0.04413 0.23381 0.33279 0.0
C572 C 0.0389 0.19847 0.34405 0.0
C573 C 0.0741 0.32 0.32403 0.0
C574 C 0.08876 0.36767 0.32696 0.0
C575 C 0.08578 0.40106 0.3148 0.0
C576 C 0.08172 0.44126 0.3202 0.0
C577 C 0.07428 0.47092 0.30933 0.0
C578 C 0.07111 0.46136 0.29274 0.0
H579 H 0.09062 0.36397 0.29338 0.0
C580 C 0.07826 0.42303 0.28723 0.0
C581 C 0.08564 0.39327 0.29812 0.0
H582 H 0.07657 0.41493 0.27452 0.0
H583 H 0.10647 0.27502 0.37449 0.0
H584 H 0.11623 0.33664 0.3549 0.0
H585 H 0.02626 0.22155 0.32122 0.0
H586 H 0.01684 0.16 0.34089 0.0
H587 H 0.06016 0.30514 0.31218 0.0
H588 H 0.09928 0.38208 0.33904 0.0
H589 H 0.08243 0.4487 0.33294 0.0
H590 H 0.06932 0.50035 0.31402 0.0
loop_
_geom_bond_atom_site_label_1
_geom_bond_atom_site_label_2
_geom_bond_distance
_geom_bond_site_symmetry_2
_ccdc_geom_bond_type
Li0 N17 1.990 . S
Li0 O60 1.956 . S
Li0 O61 1.970 1_455 S
Li0 O62 1.961 1_545 S
Li1 N25 1.990 . S
Li1 O60 1.970 1_655 S
Li1 O61 1.956 . S
Li1 O63 1.961 1_545 S
Li2 N47 1.990 . S
Li2 O60 1.961 1_565 S
Li2 O62 1.956 . S
Li2 O63 1.970 1_455 S
Li3 N53 1.990 . S
Li3 O61 1.961 1_565 S
Li3 O62 1.970 1_655 S
Li3 O63 1.956 . S
C4 C6 1.348 . S
C4 C7 1.356 . S
C4 O60 1.325 . S
N5 C8 1.314 . S
N5 C9 1.279 . S
C6 C4 1.348 . S
C6 C8 1.353 . S
C6 H64 0.929 . S
C7 C4 1.356 . S
C7 C9 1.358 . S
C7 H65 0.930 . S
C8 N5 1.314 . S
C8 C6 1.353 . S
C8 H66 0.930 . S
C9 N5 1.279 . S
C9 C7 1.358 . S
C9 H67 0.930 . S
C10 C13 1.348 1_655 S
C10 C14 1.356 . S
C10 O61 1.325 . S
C11 N12 1.279 . S
C11 C14 1.358 . S
C11 H68 0.930 . S
N12 C11 1.279 . S
N12 C15 1.314 . S
C13 C10 1.348 1_455 S
C13 C15 1.353 1_455 S
C13 H69 0.929 . S
C14 C10 1.356 . S
C14 C11 1.358 . S
C14 H70 0.930 . S
C15 N12 1.314 . S
C15 C13 1.353 1_655 S
C15 H71 0.930 1_655 S
C16 N17 1.314 . S
C16 C21 1.353 . S
C16 H22 0.930 . S
N17 Li0 1.990 . S
N17 C16 1.314 . S
N17 C19 1.279 . S
C18 C19 1.358 . S
C18 C20 1.356 . S
C18 H72 0.930 . S
C19 N17 1.279 . S
C19 C18 1.358 . S
C19 H23 0.930 . S
C20 C18 1.356 . S
C20 C21 1.348 . S
C21 C16 1.353 . S
C21 C20 1.348 . S
C21 H73 0.929 . S
H22 C16 0.930 . S
H23 C19 0.930 . S
C24 N25 1.314 . S
C24 C26 1.353 . S
C24 H30 0.930 . S
N25 Li1 1.990 . S
N25 C24 1.314 . S
N25 C28 1.279 . S
C26 C24 1.353 . S
C26 C29 1.348 . S
C26 H74 0.929 . S
C27 C28 1.358 . S
C27 C29 1.356 . S
C27 H75 0.930 . S
C28 N25 1.279 . S
C28 C27 1.358 . S
C28 H31 0.930 . S
C29 C26 1.348 . S
C29 C27 1.356 . S
H30 C24 0.930 . S
H31 C28 0.930 . S
C32 C34 1.348 1_455 S
C32 C35 1.356 . S
C32 O62 1.325 . S
N33 C36 1.314 . S
N33 C37 1.279 . S
C34 C32 1.348 1_655 S
C34 C36 1.353 1_655 S
C34 H76 0.929 . S
C35 C32 1.356 . S
C35 C37 1.358 . S
C35 H77 0.930 . S
C36 N33 1.314 . S
C36 C34 1.353 1_455 S
C36 H78 0.930 1_455 S
C37 N33 1.279 . S
C37 C35 1.358 . S
C37 H79 0.930 . S
C38 C39 1.348 . S
C38 C40 1.356 . S
C38 O63 1.325 . S
C39 C38 1.348 . S
C39 C41 1.353 . S
C39 H80 0.929 . S
C40 C38 1.356 . S
C40 C42 1.358 . S
C40 H81 0.930 . S
C41 C39 1.353 . S
C41 N43 1.314 . S
C41 H82 0.930 . S
C42 C40 1.358 . S
C42 N43 1.279 . S
C42 H83 0.930 . S
N43 C41 1.314 . S
N43 C42 1.279 . S
C44 C46 1.353 . S
C44 N47 1.314 . S
C44 H50 0.930 . S
C45 N47 1.279 . S
C45 C48 1.358 . S
C45 H51 0.930 . S
C46 C44 1.353 . S
C46 C49 1.348 . S
C46 H84 0.929 . S
N47 Li2 1.990 . S
N47 C44 1.314 . S
N47 C45 1.279 . S
C48 C45 1.358 . S
C48 C49 1.356 . S
C48 H85 0.930 . S
C49 C46 1.348 . S
C49 C48 1.356 . S
H50 C44 0.930 . S
H51 C45 0.930 . S
C52 N53 1.314 . S
C52 C54 1.353 . S
C52 H58 0.930 . S
N53 Li3 1.990 . S
N53 C52 1.314 . S
N53 C56 1.279 . S
C54 C52 1.353 . S
C54 C57 1.348 . S
C54 H86 0.929 . S
C55 C56 1.358 . S
C55 C57 1.356 . S
C55 H87 0.930 . S
C56 N53 1.279 . S
C56 C55 1.358 . S
C56 H59 0.930 . S
C57 C54 1.348 . S
C57 C55 1.356 . S
H58 C52 0.930 . S
H59 C56 0.930 . S
O60 Li0 1.956 . S
O60 Li1 1.970 1_455 S
O60 Li2 1.961 1_545 S
O60 C4 1.325 . S
O61 Li0 1.970 1_655 S
O61 Li1 1.956 . S
O61 Li3 1.961 1_545 S
O61 C10 1.325 . S
O62 Li0 1.961 1_565 S
O62 Li2 1.956 . S
O62 Li3 1.970 1_455 S
O62 C32 1.325 . S
O63 Li1 1.961 1_565 S
O63 Li2 1.970 1_655 S
O63 Li3 1.956 . S
O63 C38 1.325 . S
H64 C6 0.929 . S
H65 C7 0.930 . S
H66 C8 0.930 . S
H67 C9 0.930 . S
H68 C11 0.930 . S
H69 C13 0.929 . S
H70 C14 0.930 . S
H71 C15 0.930 1_455 S
H72 C18 0.930 . S
H73 C21 0.929 . S
H74 C26 0.929 . S
H75 C27 0.930 . S
H76 C34 0.929 . S
H77 C35 0.930 . S
H78 C36 0.930 1_655 S
H79 C37 0.930 . S
H80 C39 0.929 . S
H81 C40 0.930 . S
H82 C41 0.930 . S
H83 C42 0.930 . S
H84 C46 0.929 . S
H85 C48 0.930 . S
H86 C54 0.929 . S
H87 C55 0.930 . S
Li88 N105 1.990 . S
Li88 O148 1.956 . S
Li88 O149 1.970 1_665 S
Li88 O150 1.961 . S
Li89 N113 1.990 . S
Li89 O148 1.970 1_445 S
Li89 O149 1.956 . S
Li89 O151 1.961 . S
Li90 N135 1.990 . S
Li90 O148 1.961 . S
Li90 O150 1.956 . S
Li90 O151 1.970 1_665 S
Li91 N141 1.990 . S
Li91 O149 1.961 . S
Li91 O150 1.970 1_445 S
Li91 O151 1.956 . S
C92 C94 1.348 1_655 S
C92 C95 1.356 . S
C92 O148 1.325 . S
N93 C96 1.314 . S
N93 C97 1.279 . S
C94 C92 1.348 1_455 S
C94 C96 1.353 1_455 S
C94 H152 0.929 . S
C95 C92 1.356 . S
C95 C97 1.358 . S
C95 H153 0.930 . S
C96 N93 1.314 . S
C96 C94 1.353 1_655 S
C96 H154 0.930 1_655 S
C97 N93 1.279 . S
C97 C95 1.358 . S
C97 H155 0.930 . S
C98 C101 1.348 1_545 S
C98 C102 1.356 . S
C98 O149 1.325 . S
C99 N100 1.279 . S
C99 C102 1.358 . S
C99 H156 0.930 . S
N100 C99 1.279 . S
N100 C103 1.314 . S
C101 C98 1.348 1_565 S
C101 C103 1.353 1_565 S
C101 H157 0.929 . S
C102 C98 1.356 . S
C102 C99 1.358 . S
C102 H158 0.930 . S
C103 N100 1.314 . S
C103 C101 1.353 1_545 S
C103 H159 0.930 1_545 S
C104 N105 1.314 . S
C104 C109 1.353 . S
C104 H110 0.930 . S
N105 Li88 1.990 . S
N105 C104 1.314 . S
N105 C107 1.279 . S
C106 C107 1.358 . S
C106 C108 1.356 . S
C106 H160 0.930 . S
C107 N105 1.279 . S
C107 C106 1.358 . S
C107 H111 0.930 . S
C108 C106 1.356 . S
C108 C109 1.348 . S
C109 C104 1.353 . S
C109 C108 1.348 . S
C109 H161 0.929 . S
H110 C104 0.930 . S
H111 C107 0.930 . S
C112 N113 1.314 . S
C112 C114 1.353 . S
C112 H118 0.930 . S
N113 Li89 1.990 . S
N113 C112 1.314 . S
N113 C116 1.279 . S
C114 C112 1.353 . S
C114 C117 1.348 . S
C114 H162 0.929 . S
C115 C116 1.358 . S
C115 C117 1.356 . S
C115 H163 0.930 . S
C116 N113 1.279 . S
C116 C115 1.358 . S
C116 H119 0.930 . S
C117 C114 1.348 . S
C117 C115 1.356 . S
H118 C112 0.930 . S
H119 C116 0.930 . S
C120 C122 1.348 1_565 S
C120 C123 1.356 . S
C120 O150 1.325 . S
N121 C124 1.314 . S
N121 C125 1.279 . S
C122 C120 1.348 1_545 S
C122 C124 1.353 1_545 S
C122 H164 0.929 . S
C123 C120 1.356 . S
C123 C125 1.358 . S
C123 H165 0.930 . S
C124 N121 1.314 . S
C124 C122 1.353 1_565 S
C124 H166 0.930 1_565 S
C125 N121 1.279 . S
C125 C123 1.358 . S
C125 H167 0.930 . S
C126 C127 1.348 1_455 S
C126 C128 1.356 . S
C126 O151 1.325 . S
C127 C126 1.348 1_655 S
C127 C129 1.353 1_655 S
C127 H168 0.929 . S
C128 C126 1.356 . S
C128 C130 1.358 . S
C128 H169 0.930 . S
C129 C127 1.353 1_455 S
C129 N131 1.314 . S
C129 H170 0.930 1_455 S
C130 C128 1.358 . S
C130 N131 1.279 . S
C130 H171 0.930 . S
N131 C129 1.314 . S
N131 C130 1.279 . S
C132 C134 1.353 . S
C132 N135 1.314 . S
C132 H138 0.930 . S
C133 N135 1.279 . S
C133 C136 1.358 . S
C133 H139 0.930 . S
C134 C132 1.353 . S
C134 C137 1.348 . S
C134 H172 0.929 . S
N135 Li90 1.990 . S
N135 C132 1.314 . S
N135 C133 1.279 . S
C136 C133 1.358 . S
C136 C137 1.356 . S
C136 H173 0.930 . S
C137 C134 1.348 . S
C137 C136 1.356 . S
H138 C132 0.930 . S
H139 C133 0.930 . S
C140 N141 1.314 . S
C140 C142 1.353 . S
C140 H146 0.930 . S
N141 Li91 1.990 . S
N141 C140 1.314 . S
N141 C144 1.279 . S
C142 C140 1.353 . S
C142 C145 1.348 . S
C142 H174 0.929 . S
C143 C144 1.358 . S
C143 C145 1.356 . S
C143 H175 0.930 . S
C144 N141 1.279 . S
C144 C143 1.358 . S
C144 H147 0.930 . S
C145 C142 1.348 . S
C145 C143 1.356 . S
H146 C140 0.930 . S
H147 C144 0.930 . S
O148 Li88 1.956 . S
O148 Li89 1.970 1_665 S
O148 Li90 1.961 . S
O148 C92 1.325 . S
O149 Li88 1.970 1_445 S
O149 Li89 1.956 . S
O149 Li91 1.961 . S
O149 C98 1.325 . S
O150 Li88 1.961 . S
O150 Li90 1.956 . S
O150 Li91 1.970 1_665 S
O150 C120 1.325 . S
O151 Li89 1.961 . S
O151 Li90 1.970 1_445 S
O151 Li91 1.956 . S
O151 C126 1.325 . S
H152 C94 0.929 . S
H153 C95 0.930 . S
H154 C96 0.930 1_455 S
H155 C97 0.930 . S
H156 C99 0.930 . S
H157 C101 0.929 . S
H158 C102 0.930 . S
H159 C103 0.930 1_565 S
H160 C106 0.930 . S
H161 C109 0.929 . S
H162 C114 0.929 . S
H163 C115 0.930 . S
H164 C122 0.929 . S
H165 C123 0.930 . S
H166 C124 0.930 1_545 S
H167 C125 0.930 . S
H168 C127 0.929 . S
H169 C128 0.930 . S
H170 C129 0.930 1_655 S
H171 C130 0.930 . S
H172 C134 0.929 . S
H173 C136 0.930 . S
H174 C142 0.929 . S
H175 C143 0.930 . S
Li176 N193 1.990 . S
Li176 O236 1.956 . S
Li176 O237 1.970 1_565 S
Li176 O238 1.961 1_455 S
Li177 N201 1.990 . S
Li177 O236 1.970 1_545 S
Li177 O237 1.956 . S
Li177 O239 1.961 1_455 S
Li178 N223 1.990 . S
Li178 O236 1.961 1_655 S
Li178 O238 1.956 . S
Li178 O239 1.970 1_565 S
Li179 N229 1.990 . S
Li179 O237 1.961 1_655 S
Li179 O238 1.970 1_545 S
Li179 O239 1.956 . S
C180 C182 1.348 1_565 S
C180 C183 1.356 . S
C180 O236 1.325 . S
N181 C184 1.314 . S
N181 C185 1.279 . S
C182 C180 1.348 1_545 S
C182 C184 1.353 1_545 S
C182 H240 0.929 . S
C183 C180 1.356 . S
C183 C185 1.358 . S
C183 H241 0.930 . S
C184 N181 1.314 . S
C184 C182 1.353 1_565 S
C184 H242 0.930 1_565 S
C185 N181 1.279 . S
C185 C183 1.358 . S
C185 H243 0.930 . S
C186 C189 1.348 . S
C186 C190 1.356 . S
C186 O237 1.325 . S
C187 N188 1.279 . S
C187 C190 1.358 . S
C187 H244 0.930 . S
N188 C187 1.279 . S
N188 C191 1.314 . S
C189 C186 1.348 . S
C189 C191 1.353 . S
C189 H245 0.929 . S
C190 C186 1.356 . S
C190 C187 1.358 . S
C190 H246 0.930 . S
C191 N188 1.314 . S
C191 C189 1.353 . S
C191 H247 0.930 . S
C192 N193 1.314 . S
C192 C197 1.353 . S
C192 H198 0.930 . S
N193 Li176 1.990 . S
N193 C192 1.314 . S
N193 C195 1.279 . S
C194 C195 1.358 . S
C194 C196 1.356 . S
C194 H248 0.930 . S
C195 N193 1.279 . S
C195 C194 1.358 . S
C195 H199 0.930 . S
C196 C194 1.356 . S
C196 C197 1.348 . S
C197 C192 1.353 . S
C197 C196 1.348 . S
C197 H249 0.929 . S
H198 C192 0.930 . S
H199 C195 0.930 . S
C200 N201 1.314 . S
C200 C202 1.353 . S
C200 H206 0.930 . S
N201 Li177 1.990 . S
N201 C200 1.314 . S
N201 C204 1.279 . S
C202 C200 1.353 . S
C202 C205 1.348 . S
C202 H250 0.929 . S
C203 C204 1.358 . S
C203 C205 1.356 . S
C203 H251 0.930 . S
C204 N201 1.279 . S
C204 C203 1.358 . S
C204 H207 0.930 . S
C205 C202 1.348 . S
C205 C203 1.356 . S
H206 C200 0.930 . S
H207 C204 0.930 . S
C208 C210 1.348 . S
C208 C211 1.356 . S
C208 O238 1.325 . S
N209 C212 1.314 . S
N209 C213 1.279 . S
C210 C208 1.348 . S
C210 C212 1.353 . S
C210 H252 0.929 . S
C211 C208 1.356 . S
C211 C213 1.358 . S
C211 H253 0.930 . S
C212 N209 1.314 . S
C212 C210 1.353 . S
C212 H254 0.930 . S
C213 N209 1.279 . S
C213 C211 1.358 . S
C213 H255 0.930 . S
C214 C215 1.348 1_545 S
C214 C216 1.356 . S
C214 O239 1.325 . S
C215 C214 1.348 1_565 S
C215 C217 1.353 1_565 S
C215 H256 0.929 . S
C216 C214 1.356 . S
C216 C218 1.358 . S
C216 H257 0.930 . S
C217 C215 1.353 1_545 S
C217 N219 1.314 . S
C217 H258 0.930 1_545 S
C218 C216 1.358 . S
C218 N219 1.279 . S
C218 H259 0.930 . S
N219 C217 1.314 . S
N219 C218 1.279 . S
C220 C222 1.353 . S
C220 N223 1.314 . S
C220 H226 0.930 . S
C221 N223 1.279 . S
C221 C224 1.358 . S
C221 H227 0.930 . S
C222 C220 1.353 . S
C222 C225 1.348 . S
C222 H260 0.929 . S
N223 Li178 1.990 . S
N223 C220 1.314 . S
N223 C221 1.279 . S
C224 C221 1.358 . S
C224 C225 1.356 . S
C224 H261 0.930 . S
C225 C222 1.348 . S
C225 C224 1.356 . S
H226 C220 0.930 . S
H227 C221 0.930 . S
C228 N229 1.314 . S
C228 C230 1.353 . S
C228 H234 0.930 . S
N229 Li179 1.990 . S
N229 C228 1.314 . S
N229 C232 1.279 . S
C230 C228 1.353 . S
C230 C233 1.348 . S
C230 H262 0.929 . S
C231 C232 1.358 . S
C231 C233 1.356 . S
C231 H263 0.930 . S
C232 N229 1.279 . S
C232 C231 1.358 . S
C232 H235 0.930 . S
C233 C230 1.348 . S
C233 C231 1.356 . S
H234 C228 0.930 . S
H235 C232 0.930 . S
O236 Li176 1.956 . S
O236 Li177 1.970 1_565 S
O236 Li178 1.961 1_455 S
O236 C180 1.325 . S
O237 Li176 1.970 1_545 S
O237 Li177 1.956 . S
O237 Li179 1.961 1_455 S
O237 C186 1.325 . S
O238 Li176 1.961 1_655 S
O238 Li178 1.956 . S
O238 Li179 1.970 1_565 S
O238 C208 1.325 . S
O239 Li177 1.961 1_655 S
O239 Li178 1.970 1_545 S
O239 Li179 1.956 . S
O239 C214 1.325 . S
H240 C182 0.929 . S
H241 C183 0.930 . S
H242 C184 0.930 1_545 S
H243 C185 0.930 . S
H244 C187 0.930 . S
H245 C189 0.929 . S
H246 C190 0.930 . S
H247 C191 0.930 . S
H248 C194 0.930 . S
H249 C197 0.929 . S
H250 C202 0.929 . S
H251 C203 0.930 . S
H252 C210 0.929 . S
H253 C211 0.930 . S
H254 C212 0.930 . S
H255 C213 0.930 . S
H256 C215 0.929 . S
H257 C216 0.930 . S
H258 C217 0.930 1_565 S
H259 C218 0.930 . S
H260 C222 0.929 . S
H261 C224 0.930 . S
H262 C230 0.929 . S
H263 C231 0.930 . S
Mg264 O271 2.141 . S
Mg264 O272 2.048 . S
Mg264 O273 2.048 . S
Mg264 O276 2.141 . S
C265 O266 1.313 . S
C265 O272 1.195 1_655 S
O266 C265 1.313 . S
C267 O268 1.245 . S
C267 O276 1.289 1_655 S
O268 C267 1.245 . S
C269 O270 1.245 . S
C269 O271 1.289 1_655 S
O270 C269 1.245 . S
O271 Mg264 2.141 . S
O271 C269 1.289 1_455 S
O272 Mg264 2.048 . S
O272 C265 1.195 1_455 S
O273 Mg264 2.048 . S
O273 C274 1.195 1_455 S
C274 O273 1.195 1_655 S
C274 O275 1.313 . S
O275 C274 1.313 . S
O276 Mg264 2.141 . S
O276 C267 1.289 1_455 S
Mg277 O284 2.141 . S
Mg277 O285 2.048 . S
Mg277 O286 2.048 . S
Mg277 O289 2.141 . S
C278 O279 1.313 . S
C278 O285 1.195 1_565 S
O279 C278 1.313 . S
C280 O281 1.245 . S
C280 O289 1.289 1_565 S
O281 C280 1.245 . S
C282 O283 1.245 . S
C282 O284 1.289 1_565 S
O283 C282 1.245 . S
O284 Mg277 2.141 . S
O284 C282 1.289 1_545 S
O285 Mg277 2.048 . S
O285 C278 1.195 1_545 S
O286 Mg277 2.048 . S
O286 C287 1.195 1_545 S
C287 O286 1.195 1_565 S
C287 O288 1.313 . S
O288 C287 1.313 . S
O289 Mg277 2.141 . S
O289 C280 1.289 1_545 S
Mg290 O297 2.141 . S
Mg290 O298 2.048 . S
Mg290 O299 2.048 . S
Mg290 O302 2.141 . S
C291 O292 1.313 . S
C291 O298 1.195 . S
O292 C291 1.313 . S
C293 O294 1.245 . S
C293 O302 1.289 . S
O294 C293 1.245 . S
C295 O296 1.245 . S
C295 O297 1.289 . S
O296 C295 1.245 . S
O297 Mg290 2.141 . S
O297 C295 1.289 . S
O298 Mg290 2.048 . S
O298 C291 1.195 . S
O299 Mg290 2.048 . S
O299 C300 1.195 . S
C300 O299 1.195 . S
C300 O301 1.313 . S
O301 C300 1.313 . S
O302 Mg290 2.141 . S
O302 C293 1.289 . S
C303 C304 1.386 . S
C303 C305 1.383 . S
C303 H319 0.951 . S
C304 C303 1.386 . S
C304 C308 1.383 . S
C305 C303 1.383 . S
C305 C306 1.402 . S
C305 H320 0.951 . S
C306 C305 1.402 . S
C306 C307 1.375 . S
C306 C309 1.481 . S
C307 C306 1.375 . S
C307 C308 1.367 . S
C307 H321 0.954 . S
C308 C304 1.383 . S
C308 C307 1.367 . S
C308 H322 0.950 . S
C309 C306 1.481 . S
C309 C310 1.297 . S
C309 H323 0.950 . S
C310 C309 1.297 . S
C310 C311 1.479 . S
C310 H324 0.950 . S
C311 C310 1.479 . S
C311 C312 1.375 . S
C311 C317 1.404 . S
C312 C311 1.375 . S
C312 C313 1.369 . S
C312 H325 0.950 . S
C313 C312 1.369 . S
C313 C314 1.392 . S
C313 H326 0.951 . S
C314 C313 1.392 . S
C314 C316 1.384 1_655 S
H315 C317 0.949 . S
C316 C314 1.384 1_455 S
C316 C317 1.385 1_455 S
C316 H318 0.950 . S
C317 C311 1.404 . S
C317 H315 0.949 . S
C317 C316 1.385 1_655 S
H318 C316 0.950 . S
H319 C303 0.951 . S
H320 C305 0.951 . S
H321 C307 0.954 . S
H322 C308 0.950 . S
H323 C309 0.950 . S
H324 C310 0.950 . S
H325 C312 0.950 . S
H326 C313 0.951 . S
C327 C328 1.386 . S
C327 C329 1.383 . S
C327 H343 0.951 . S
C328 C327 1.386 . S
C328 C332 1.383 . S
C329 C327 1.383 . S
C329 C330 1.402 . S
C329 H344 0.951 . S
C330 C329 1.402 . S
C330 C331 1.375 1_565 S
C330 C333 1.481 . S
C331 C330 1.375 1_545 S
C331 C332 1.367 1_545 S
C331 H345 0.951 . S
C332 C328 1.383 . S
C332 C331 1.367 1_565 S
C332 H346 0.950 1_565 S
C333 C330 1.481 . S
C333 C334 1.297 . S
C333 H347 0.950 1_565 S
C334 C333 1.297 . S
C334 C335 1.479 . S
C334 H348 0.950 . S
C335 C334 1.479 . S
C335 C336 1.375 . S
C335 C341 1.404 1_565 S
C336 C335 1.375 . S
C336 C337 1.369 . S
C336 H349 0.950 . S
C337 C336 1.369 . S
C337 C338 1.392 . S
C337 H350 0.951 . S
C338 C337 1.392 . S
C338 C340 1.384 1_565 S
H339 C341 0.949 . S
C340 C338 1.384 1_545 S
C340 C341 1.385 . S
C340 H342 0.950 . S
C341 C335 1.404 1_545 S
C341 H339 0.949 . S
C341 C340 1.385 . S
H342 C340 0.950 . S
H343 C327 0.951 . S
H344 C329 0.951 . S
H345 C331 0.951 . S
H346 C332 0.950 1_545 S
H347 C333 0.950 1_545 S
H348 C334 0.950 . S
H349 C336 0.950 . S
H350 C337 0.951 . S
C351 C352 1.386 . S
C351 C353 1.383 . S
C351 H367 0.951 . S
C352 C351 1.386 . S
C352 C356 1.383 . S
C353 C351 1.383 . S
C353 C354 1.402 . S
C353 H368 0.951 . S
C354 C353 1.402 . S
C354 C355 1.375 . S
C354 C357 1.481 . S
C355 C354 1.375 . S
C355 C356 1.367 . S
C355 H369 0.951 . S
C356 C352 1.383 . S
C356 C355 1.367 . S
C356 H370 0.950 . S
C357 C354 1.481 . S
C357 C358 1.297 . S
C357 H371 0.950 . S
C358 C357 1.297 . S
C358 C359 1.479 . S
C358 H372 0.950 . S
C359 C358 1.479 . S
C359 C360 1.375 . S
C359 C365 1.404 . S
C360 C359 1.375 . S
C360 C361 1.369 . S
C360 H373 0.950 . S
C361 C360 1.369 . S
C361 C362 1.392 . S
C361 H374 0.951 . S
C362 C361 1.392 . S
C362 C364 1.384 . S
H363 C365 0.949 . S
C364 C362 1.384 . S
C364 C365 1.385 . S
C364 H366 0.950 . S
C365 C359 1.404 . S
C365 H363 0.949 . S
C365 C364 1.385 . S
H366 C364 0.950 . S
H367 C351 0.951 . S
H368 C353 0.951 . S
H369 C355 0.951 . S
H370 C356 0.950 . S
H371 C357 0.950 . S
H372 C358 0.950 . S
H373 C360 0.950 . S
H374 C361 0.951 . S
C375 C376 1.386 . S
C375 C377 1.383 . S
C375 H391 0.951 . S
C376 C375 1.386 . S
C376 C380 1.383 . S
C377 C375 1.383 . S
C377 C378 1.402 . S
C377 H392 0.951 . S
C378 C377 1.402 . S
C378 C379 1.375 . S
C378 C381 1.481 . S
C379 C378 1.375 . S
C379 C380 1.367 . S
C379 H393 0.951 . S
C380 C376 1.383 . S
C380 C379 1.367 . S
C380 H394 0.950 . S
C381 C378 1.481 . S
C381 C382 1.297 . S
C381 H395 0.950 . S
C382 C381 1.297 . S
C382 C383 1.479 1_455 S
C382 H396 0.950 1_455 S
C383 C382 1.479 1_655 S
C383 C384 1.375 . S
C383 C389 1.418 . S
C384 C383 1.375 . S
C384 C385 1.369 . S
C384 H397 0.950 . S
C385 C384 1.369 . S
C385 C386 1.392 . S
C385 H398 0.951 . S
C386 C385 1.392 . S
C386 C388 1.388 . S
H387 C389 0.944 1_455 S
C388 C386 1.388 . S
C388 C389 1.384 . S
C388 H390 0.924 1_655 S
C389 C383 1.418 . S
C389 H387 0.944 1_655 S
C389 C388 1.384 . S
H390 C388 0.924 1_455 S
H391 C375 0.951 . S
H392 C377 0.951 . S
H393 C379 0.951 . S
H394 C380 0.950 . S
H395 C381 0.950 . S
H396 C382 0.950 1_655 S
H397 C384 0.950 . S
H398 C385 0.951 . S
C399 C400 1.386 . S
C399 C401 1.383 . S
C399 H415 0.951 1_545 S
C400 C399 1.386 . S
C400 C404 1.383 . S
C401 C399 1.383 . S
C401 C402 1.402 . S
C401 H416 0.951 1_545 S
C402 C401 1.402 . S
C402 C403 1.375 . S
C402 C405 1.481 . S
C403 C402 1.375 . S
C403 C404 1.367 . S
C403 H417 0.951 . S
C404 C400 1.383 . S
C404 C403 1.367 . S
C404 H418 0.950 . S
C405 C402 1.481 . S
C405 C406 1.297 . S
C405 H419 0.950 . S
C406 C405 1.297 . S
C406 C407 1.479 . S
C406 H420 0.950 . S
C407 C406 1.479 . S
C407 C408 1.375 1_545 S
C407 C413 1.404 . S
C408 C407 1.375 1_565 S
C408 C409 1.369 . S
C408 H421 0.950 . S
C409 C408 1.369 . S
C409 C410 1.392 1_565 S
C409 H422 0.951 . S
C410 C409 1.392 1_545 S
C410 C412 1.384 . S
H411 C413 0.949 . S
C412 C410 1.384 . S
C412 C413 1.385 . S
C412 H414 0.950 . S
C413 C407 1.404 . S
C413 H411 0.949 . S
C413 C412 1.385 . S
H414 C412 0.950 . S
H415 C399 0.951 1_565 S
H416 C401 0.951 1_565 S
H417 C403 0.951 . S
H418 C404 0.950 . S
H419 C405 0.950 . S
H420 C406 0.950 . S
H421 C408 0.950 . S
H422 C409 0.951 . S
C423 C424 1.386 . S
C423 C425 1.383 . S
C423 H439 0.951 . S
C424 C423 1.386 . S
C424 C428 1.383 . S
C425 C423 1.383 . S
C425 C426 1.402 . S
C425 H440 0.951 . S
C426 C425 1.402 . S
C426 C427 1.375 . S
C426 C429 1.481 . S
C427 C426 1.375 . S
C427 C428 1.367 . S
C427 H441 0.951 . S
C428 C424 1.383 . S
C428 C427 1.367 . S
C428 H442 0.950 . S
C429 C426 1.481 . S
C429 C430 1.297 . S
C429 H443 0.950 . S
C430 C429 1.297 . S
C430 C431 1.479 . S
C430 H444 0.950 . S
C431 C430 1.479 . S
C431 C432 1.375 . S
C431 C437 1.404 . S
C432 C431 1.375 . S
C432 C433 1.369 . S
C432 H445 0.950 . S
C433 C432 1.369 . S
C433 C434 1.392 . S
C433 H446 0.951 . S
C434 C433 1.392 . S
C434 C436 1.384 . S
H435 C437 0.949 . S
C436 C434 1.384 . S
C436 C437 1.385 . S
C436 H438 0.950 . S
C437 C431 1.404 . S
C437 H435 0.949 . S
C437 C436 1.385 . S
H438 C436 0.950 . S
H439 C423 0.951 . S
H440 C425 0.951 . S
H441 C427 0.951 . S
H442 C428 0.950 . S
H443 C429 0.950 . S
H444 C430 0.950 . S
H445 C432 0.950 . S
H446 C433 0.951 . S
C447 C448 1.386 . S
C447 C449 1.383 . S
C447 H463 0.951 1_545 S
C448 C447 1.386 . S
C448 C452 1.383 . S
C449 C447 1.383 . S
C449 C450 1.402 . S
C449 H464 0.951 1_545 S
C450 C449 1.402 . S
C450 C451 1.375 . S
C450 C453 1.481 . S
C451 C450 1.375 . S
C451 C452 1.367 . S
C451 H465 0.951 . S
C452 C448 1.383 . S
C452 C451 1.367 . S
C452 H466 0.950 . S
C453 C450 1.481 . S
C453 C454 1.297 . S
C453 H467 0.950 . S
C454 C453 1.297 . S
C454 C455 1.479 . S
C454 H468 0.950 1_545 S
C455 C454 1.479 . S
C455 C456 1.375 1_545 S
C455 C461 1.404 . S
C456 C455 1.375 1_565 S
C456 C457 1.369 . S
C456 H469 0.950 . S
C457 C456 1.369 . S
C457 C458 1.392 1_565 S
C457 H470 0.951 . S
C458 C457 1.392 1_545 S
C458 C460 1.384 . S
H459 C461 0.949 . S
C460 C458 1.384 . S
C460 C461 1.385 . S
C460 H462 0.950 . S
C461 C455 1.404 . S
C461 H459 0.949 . S
C461 C460 1.385 . S
H462 C460 0.950 . S
H463 C447 0.951 1_565 S
H464 C449 0.951 1_565 S
H465 C451 0.951 . S
H466 C452 0.950 . S
H467 C453 0.950 . S
H468 C454 0.950 1_565 S
H469 C456 0.950 . S
H470 C457 0.951 . S
C471 C472 1.386 . S
C471 C473 1.383 . S
C471 H487 0.951 . S
C472 C471 1.386 . S
C472 C476 1.383 . S
C473 C471 1.383 . S
C473 C474 1.402 1_554 S
C473 H488 0.951 . S
C474 C473 1.402 1_556 S
C474 C475 1.375 . S
C474 C477 1.481 . S
C475 C474 1.375 . S
C475 C476 1.367 1_556 S
C475 H489 0.951 . S
C476 C472 1.383 . S
C476 C475 1.367 1_554 S
C476 H490 0.950 . S
C477 C474 1.481 . S
C477 C478 1.297 . S
C477 H491 0.950 . S
C478 C477 1.297 . S
C478 C479 1.479 . S
C478 H492 0.950 . S
C479 C478 1.479 . S
C479 C480 1.375 . S
C479 C485 1.404 . S
C480 C479 1.375 . S
C480 C481 1.369 . S
C480 H493 0.950 . S
C481 C480 1.369 . S
C481 C482 1.392 . S
C481 H494 0.951 . S
C482 C481 1.392 . S
C482 C484 1.384 . S
H483 C485 0.949 . S
C484 C482 1.384 . S
C484 C485 1.385 . S
C484 H486 0.950 . S
C485 C479 1.404 . S
C485 H483 0.949 . S
C485 C484 1.385 . S
H486 C484 0.950 . S
H487 C471 0.951 . S
H488 C473 0.951 . S
H489 C475 0.951 . S
H490 C476 0.950 . S
H491 C477 0.950 . S
H492 C478 0.950 . S
H493 C480 0.950 . S
H494 C481 0.951 . S
C495 C496 1.386 . S
C495 C497 1.383 . S
C495 H511 0.951 1_655 S
C496 C495 1.386 . S
C496 C500 1.383 . S
C497 C495 1.383 . S
C497 C498 1.402 . S
C497 H512 0.951 1_655 S
C498 C497 1.402 . S
C498 C499 1.375 . S
C498 C501 1.481 . S
C499 C498 1.375 . S
C499 C500 1.367 . S
C499 H513 0.951 . S
C500 C496 1.383 . S
C500 C499 1.367 . S
C500 H514 0.950 . S
C501 C498 1.481 . S
C501 C502 1.297 . S
C501 H515 0.950 . S
C502 C501 1.297 . S
C502 C503 1.479 . S
C502 H516 0.950 . S
C503 C502 1.479 . S
C503 C504 1.375 1_655 S
C503 C509 1.404 . S
C504 C503 1.375 1_455 S
C504 C505 1.369 . S
C504 H517 0.950 . S
C505 C504 1.369 . S
C505 C506 1.392 1_455 S
C505 H518 0.951 . S
C506 C505 1.392 1_655 S
C506 C508 1.384 . S
H507 C509 0.949 . S
C508 C506 1.384 . S
C508 C509 1.385 . S
C508 H510 0.950 . S
C509 C503 1.404 . S
C509 H507 0.949 . S
C509 C508 1.385 . S
H510 C508 0.950 . S
H511 C495 0.951 1_455 S
H512 C497 0.951 1_455 S
H513 C499 0.951 . S
H514 C500 0.950 . S
H515 C501 0.950 . S
H516 C502 0.950 . S
H517 C504 0.950 . S
H518 C505 0.951 . S
C519 C520 1.386 . S
C519 C521 1.383 . S
C519 H535 0.951 . S
C520 C519 1.386 . S
C520 C524 1.383 . S
C521 C519 1.383 . S
C521 C522 1.402 . S
C521 H536 0.951 . S
C522 C521 1.402 . S
C522 C523 1.375 . S
C522 C525 1.481 . S
C523 C522 1.375 . S
C523 C524 1.367 . S
C523 H537 0.951 . S
C524 C520 1.383 . S
C524 C523 1.367 . S
C524 H538 0.950 . S
C525 C522 1.481 . S
C525 C526 1.297 . S
C525 H539 0.950 . S
C526 C525 1.297 . S
C526 C527 1.479 . S
C526 H540 0.950 . S
C527 C526 1.479 . S
C527 C528 1.375 . S
C527 C533 1.404 . S
C528 C527 1.375 . S
C528 C529 1.369 1_565 S
C528 H541 0.950 1_565 S
C529 C528 1.369 1_545 S
C529 C530 1.392 1_545 S
C529 H542 0.951 . S
C530 C529 1.392 1_565 S
C530 C532 1.384 . S
H531 C533 0.949 . S
C532 C530 1.384 . S
C532 C533 1.385 . S
C532 H534 0.950 . S
C533 C527 1.404 . S
C533 H531 0.949 . S
C533 C532 1.385 . S
H534 C532 0.950 . S
H535 C519 0.951 . S
H536 C521 0.951 . S
H537 C523 0.951 . S
H538 C524 0.950 . S
H539 C525 0.950 . S
H540 C526 0.950 . S
H541 C528 0.950 1_545 S
H542 C529 0.951 . S
C543 C544 1.386 . S
C543 C545 1.383 . S
C543 H559 0.951 . S
C544 C543 1.386 . S
C544 C548 1.383 . S
C545 C543 1.383 . S
C545 C546 1.402 1_554 S
C545 H560 0.951 . S
C546 C545 1.402 1_556 S
C546 C547 1.375 . S
C546 C549 1.481 . S
C547 C546 1.375 . S
C547 C548 1.367 1_556 S
C547 H561 0.951 . S
C548 C544 1.383 . S
C548 C547 1.367 1_554 S
C548 H562 0.950 . S
C549 C546 1.481 . S
C549 C550 1.297 . S
C549 H563 0.950 . S
C550 C549 1.297 . S
C550 C551 1.479 . S
C550 H564 0.950 . S
C551 C550 1.479 . S
C551 C552 1.375 . S
C551 C557 1.404 . S
C552 C551 1.375 . S
C552 C553 1.369 . S
C552 H565 0.950 . S
C553 C552 1.369 . S
C553 C554 1.392 . S
C553 H566 0.951 . S
C554 C553 1.392 . S
C554 C556 1.384 . S
H555 C557 0.949 . S
C556 C554 1.384 . S
C556 C557 1.385 . S
C556 H558 0.950 . S
C557 C551 1.404 . S
C557 H555 0.949 . S
C557 C556 1.385 . S
H558 C556 0.950 . S
H559 C543 0.951 . S
H560 C545 0.951 . S
H561 C547 0.951 . S
H562 C548 0.950 . S
H563 C549 0.950 . S
H564 C550 0.950 . S
H565 C552 0.950 . S
H566 C553 0.951 . S
C567 C568 1.386 . S
C567 C569 1.383 . S
C567 H583 0.951 . S
C568 C567 1.386 . S
C568 C572 1.383 . S
C569 C567 1.383 . S
C569 C570 1.402 . S
C569 H584 0.951 . S
C570 C569 1.402 . S
C570 C571 1.375 . S
C570 C573 1.481 . S
C571 C570 1.375 . S
C571 C572 1.367 . S
C571 H585 0.951 . S
C572 C568 1.383 . S
C572 C571 1.367 . S
C572 H586 0.950 . S
C573 C570 1.481 . S
C573 C574 1.297 . S
C573 H587 0.950 . S
C574 C573 1.297 . S
C574 C575 1.479 . S
C574 H588 0.950 . S
C575 C574 1.479 . S
C575 C576 1.375 . S
C575 C581 1.404 . S
C576 C575 1.375 . S
C576 C577 1.369 . S
C576 H589 0.950 . S
C577 C576 1.369 . S
C577 C578 1.392 . S
C577 H590 0.951 . S
C578 C577 1.392 . S
C578 C580 1.384 . S
H579 C581 0.949 . S
C580 C578 1.384 . S
C580 C581 1.385 . S
C580 H582 0.950 . S
C581 C575 1.404 . S
C581 H579 0.949 . S
C581 C580 1.385 . S
H582 C580 0.950 . S
H583 C567 0.951 . S
H584 C569 0.951 . S
H585 C571 0.951 . S
H586 C572 0.950 . S
H587 C573 0.950 . S
H588 C574 0.950 . S
H589 C576 0.950 . S
H590 C577 0.951 . S
C314 C269 1.310 . S
C304 C29 1.346 . S
C328 C137 1.415 . S
C338 C287 1.420 . S
C352 C225 1.438 . S
C362 C300 1.456 . S
C376 C49 1.350 . S
C386 C267 1.357 . S
C410 C278 1.440 1_545 S
C400 C117 1.446 . S
C424 C205 1.422 . S
C434 C291 1.450 . S
C458 C280 1.356 1_545 S
C448 C233 1.371 . S
C472 C57 1.343 . S
C482 C293 1.377 . S
C506 C274 1.408 . S
C496 C108 1.450 . S
C530 C282 1.302 . S
C520 C196 1.361 . S
C554 C295 1.303 . S
C544 C20 1.362 . S
C568 C145 1.436 . S
C578 C265 1.442 1_455 S
