# Generated by pormake.
# Topology pth, (4,4)-cn, num edge types: 1
# Building blocks:
#     Node 0, Type 0, BuildingBlock: QUQFOY_clean_sbu_3, # of connection points: 4
#     Node 1, Type 0, BuildingBlock: QUQFOY_clean_sbu_3, # of connection points: 4
#     Node 2, Type 0, BuildingBlock: QUQFOY_clean_sbu_3, # of connection points: 4
#     Node 3, Type 1, BuildingBlock: KOZSID_clean_sbu_0, # of connection points: 4
#     Node 4, Type 1, BuildingBlock: KOZSID_clean_sbu_0, # of connection points: 4
#     Node 5, Type 1, BuildingBlock: KOZSID_clean_sbu_0, # of connection points: 4
#     Edge 6, Type (0, 1), BuildingBlock: XUDNAN_clean_linker_2, # of connection points: 2
#     Edge 7, Type (0, 1), BuildingBlock: XUDNAN_clean_linker_2, # of connection points: 2
#     Edge 8, Type (0, 1), BuildingBlock: XUDNAN_clean_linker_2, # of connection points: 2
#     Edge 9, Type (0, 1), BuildingBlock: XUDNAN_clean_linker_2, # of connection points: 2
#     Edge 10, Type (0, 1), BuildingBlock: XUDNAN_clean_linker_2, # of connection points: 2
#     Edge 11, Type (0, 1), BuildingBlock: XUDNAN_clean_linker_2, # of connection points: 2
#     Edge 12, Type (0, 1), BuildingBlock: XUDNAN_clean_linker_2, # of connection points: 2
#     Edge 13, Type (0, 1), BuildingBlock: XUDNAN_clean_linker_2, # of connection points: 2
#     Edge 14, Type (0, 1), BuildingBlock: XUDNAN_clean_linker_2, # of connection points: 2
#     Edge 15, Type (0, 1), BuildingBlock: XUDNAN_clean_linker_2, # of connection points: 2
#     Edge 16, Type (0, 1), BuildingBlock: XUDNAN_clean_linker_2, # of connection points: 2
#     Edge 17, Type (0, 1), BuildingBlock: XUDNAN_clean_linker_2, # of connection points: 2
# Relax obj value: 0.008
# Max RMSD: 0.067
# Mean RMSD: 0.043
data_MOF--net-pth--node1-QUQFOY_clean_sbu_3--node2-KOZSID_clean_sbu_0--edge1-XUDNAN_clean_linker_2
_symmetry_space_group_name_H-M    P1
_symmetry_Int_Tables_number       1
_symmetry_cell_setting            triclinic
loop_
_symmetry_equiv_pos_as_xyz
'x, y, z'
_cell_length_a     26.799386
_cell_length_b     26.611708
_cell_length_c     62.367281
_cell_angle_alpha  87.223067
_cell_angle_beta   88.192205
_cell_angle_gamma 120.81557
loop_
_atom_site_label
_atom_site_type_symbol
_atom_site_fract_x
_atom_site_fract_y
_atom_site_fract_z
_atom_type_partial_charge
C0 C 0.01949 0.15832 0.06501 0.0
O1 O 0.99204 0.16197 0.04936 0.0
Cd2 Cd 0.97767 0.1026 0.01948 0.0
O3 O 0.03549 0.12084 0.06558 0.0
Cd4 Cd 0.0307 0.04127 0.04583 0.0
C5 C 0.12014 0.14495 0.00746 0.0
O6 O 0.93327 0.00143 0.03309 0.0
O7 O 0.98712 0.97246 0.0181 0.0
O8 O 0.0078 0.99244 0.08155 0.0
C9 C 0.93745 0.96711 0.02071 0.0
O10 O 0.07506 0.14486 0.00151 0.0
C11 C 0.04214 0.9731 0.07977 0.0
O12 O 0.11734 0.11356 0.02403 0.0
O13 O 0.07184 0.98544 0.06195 0.0
C14 C 0.14967 0.09973 0.40042 0.0
O15 O 0.18582 0.1378 0.38616 0.0
Cd16 Cd 0.15677 0.16733 0.35476 0.0
O17 O 0.09519 0.07866 0.39909 0.0
Cd18 Cd 0.03322 0.09613 0.37417 0.0
C19 C 0.06739 0.03425 0.33517 0.0
O20 O 0.09373 0.20269 0.36585 0.0
O21 O 0.02641 0.15465 0.3443 0.0
O22 O 0.97498 0.09522 0.40534 0.0
C23 C 0.06347 0.2037 0.35081 0.0
O24 O 0.11665 0.08169 0.33328 0.0
C25 C 0.92615 0.06034 0.3981 0.0
O26 O 0.02852 0.02654 0.34935 0.0
O27 O 0.92723 0.04035 0.38014 0.0
C28 C 0.98606 0.08207 0.67664 0.0
O29 O 0.9826 0.10894 0.69236 0.0
Cd30 Cd 0.03093 0.1143 0.72494 0.0
O31 O 0.01759 0.05911 0.67739 0.0
Cd32 Cd 0.08073 0.04988 0.70318 0.0
C33 C 0.96667 0.96938 0.73921 0.0
O34 O 0.13279 0.14887 0.71701 0.0
O35 O 0.1419 0.0802 0.73307 0.0
O36 O 0.14469 0.06151 0.67212 0.0
C37 C 0.15888 0.13417 0.73029 0.0
O38 O 0.97369 0.01798 0.74462 0.0
C39 C 0.15095 0.01914 0.67852 0.0
O40 O 0.99731 0.96805 0.72352 0.0
O41 O 0.12222 0.98951 0.69573 0.0
C42 C 0.12589 0.69186 0.17861 0.0
C43 C 0.1789 0.7345 0.1685 0.0
C44 C 0.21987 0.72251 0.17571 0.0
C45 C 0.18972 0.67368 0.18985 0.0
N46 N 0.13251 0.65441 0.19192 0.0
Co47 Co 0.07308 0.58755 0.21127 0.0
N48 N 0.13336 0.58989 0.2295 0.0
C49 C 0.1907 0.61653 0.22374 0.0
C50 C 0.22188 0.60894 0.23924 0.0
C51 C 0.18161 0.57472 0.25565 0.0
C52 C 0.12771 0.56326 0.24925 0.0
N53 N 0.01324 0.52022 0.23036 0.0
C54 C 0.01721 0.50053 0.25027 0.0
C55 C 0.96388 0.45264 0.25809 0.0
C56 C 0.92618 0.44083 0.24215 0.0
C57 C 0.95805 0.48236 0.22562 0.0
N58 N 0.0133 0.58557 0.19296 0.0
C59 C 0.95889 0.54019 0.1916 0.0
C60 C 0.92776 0.55314 0.17758 0.0
C61 C 0.96512 0.61025 0.16976 0.0
C62 C 0.01688 0.62878 0.17956 0.0
N63 N 0.08004 0.5331 0.1933 0.0
C64 C 0.08345 0.45154 0.16759 0.0
C65 C 0.08357 0.5006 0.15828 0.0
C66 C 0.08179 0.54074 0.1714 0.0
C67 C 0.08274 0.4449 0.19004 0.0
C68 C 0.08128 0.48617 0.20255 0.0
N69 N 0.06565 0.64195 0.22908 0.0
C70 C 0.00446 0.67021 0.24728 0.0
C71 C 0.05299 0.72477 0.25096 0.0
C72 C 0.10835 0.73578 0.24406 0.0
C73 C 0.11373 0.69353 0.23347 0.0
C74 C 0.01164 0.63002 0.23612 0.0
H75 H 0.15674 0.70331 0.22828 0.0
H76 H 0.97316 0.58968 0.23282 0.0
H77 H 0.08113 0.57765 0.1638 0.0
H78 H 0.08013 0.47936 0.21975 0.0
C79 C 0.21443 0.65337 0.20479 0.0
C80 C 0.06958 0.68641 0.17522 0.0
C81 C 0.07193 0.52044 0.26088 0.0
C82 C 0.93555 0.49231 0.20695 0.0
H83 H 0.18748 0.77094 0.1574 0.0
H84 H 0.26649 0.74852 0.1721 0.0
H85 H 0.2684 0.62663 0.23879 0.0
H86 H 0.19089 0.55858 0.27032 0.0
H87 H 0.95371 0.42773 0.27347 0.0
H88 H 0.88062 0.4069 0.24277 0.0
H89 H 0.88242 0.52564 0.17434 0.0
H90 H 0.9554 0.6355 0.15833 0.0
H91 H 0.08504 0.50805 0.14099 0.0
H92 H 0.08185 0.40734 0.198 0.0
H93 H 0.96084 0.65832 0.25281 0.0
H94 H 0.14738 0.77721 0.24625 0.0
C95 C 0.44318 0.95877 0.57872 0.0
C96 C 0.40286 0.90326 0.58811 0.0
C97 C 0.40609 0.86382 0.57593 0.0
C98 C 0.44754 0.89712 0.55975 0.0
N99 N 0.47148 0.95564 0.56089 0.0
Co100 Co 0.53073 0.01963 0.53982 0.0
N101 N 0.53141 0.96096 0.52091 0.0
C102 C 0.49937 0.90179 0.52419 0.0
C103 C 0.51045 0.87295 0.50891 0.0
C104 C 0.55239 0.91619 0.49503 0.0
C105 C 0.56426 0.96924 0.50263 0.0
N106 N 0.59032 0.08364 0.51881 0.0
C107 C 0.6175 0.08025 0.5007 0.0
C108 C 0.65642 0.13543 0.4908 0.0
C109 C 0.65462 0.17521 0.5033 0.0
C110 C 0.61471 0.14223 0.51998 0.0
N111 N 0.52966 0.07831 0.55861 0.0
C112 C 0.56187 0.13754 0.55542 0.0
C113 C 0.55138 0.16613 0.57101 0.0
C114 C 0.50941 0.12265 0.58487 0.0
C115 C 0.49642 0.06982 0.5768 0.0
N116 N 0.59446 0.02157 0.55589 0.0
C117 C 0.68625 0.02565 0.5781 0.0
C118 C 0.68624 0.07684 0.57223 0.0
C119 C 0.64055 0.07385 0.56116 0.0
C120 C 0.63961 0.97223 0.57267 0.0
C121 C 0.5943 0.97116 0.56177 0.0
N122 N 0.46716 0.01796 0.52376 0.0
C123 C 0.42633 0.06984 0.50579 0.0
C124 C 0.37776 0.01722 0.50092 0.0
C125 C 0.3741 0.96474 0.50798 0.0
C126 C 0.41909 0.96611 0.51925 0.0
C127 C 0.47 0.0692 0.51708 0.0
H128 H 0.41414 0.92477 0.52407 0.0
H129 H 0.50559 0.11086 0.52021 0.0
H130 H 0.64389 0.11461 0.55695 0.0
H131 H 0.55969 0.92911 0.55826 0.0
C132 C 0.46162 0.87455 0.54243 0.0
C133 C 0.45105 0.0129 0.58669 0.0
C134 C 0.60889 0.02615 0.49249 0.0
C135 C 0.60036 0.16502 0.53726 0.0
H136 H 0.37289 0.89192 0.60199 0.0
H137 H 0.37992 0.81644 0.57818 0.0
H138 H 0.4914 0.82608 0.50825 0.0
H139 H 0.5727 0.90913 0.48118 0.0
H140 H 0.68376 0.14585 0.47617 0.0
H141 H 0.67994 0.22255 0.50067 0.0
H142 H 0.57125 0.21299 0.572 0.0
H143 H 0.48995 0.1291 0.59915 0.0
H144 H 0.72189 0.11933 0.57586 0.0
H145 H 0.63762 0.93133 0.57709 0.0
H146 H 0.43066 0.11165 0.50101 0.0
H147 H 0.33735 0.92285 0.50446 0.0
C148 C 0.66994 0.60297 0.8459 0.0
C149 C 0.71865 0.59859 0.84143 0.0
C150 C 0.71133 0.55153 0.85388 0.0
C151 C 0.65911 0.53022 0.86531 0.0
N152 N 0.63264 0.56102 0.86108 0.0
Co153 Co 0.55661 0.54578 0.87448 0.0
N154 N 0.54616 0.47646 0.89283 0.0
C155 C 0.58273 0.4555 0.89334 0.0
C156 C 0.56321 0.40626 0.90693 0.0
C157 C 0.5112 0.39517 0.91585 0.0
C158 C 0.50225 0.43896 0.9073 0.0
N159 N 0.4801 0.5299 0.88769 0.0
C160 C 0.44305 0.48821 0.90305 0.0
C161 C 0.39545 0.49401 0.90808 0.0
C162 C 0.40213 0.54026 0.89525 0.0
C163 C 0.45339 0.56039 0.88328 0.0
N164 N 0.56761 0.61571 0.85635 0.0
C165 C 0.5314 0.63711 0.85601 0.0
C166 C 0.54977 0.68474 0.84164 0.0
C167 C 0.60082 0.69451 0.83218 0.0
C168 C 0.61086 0.65223 0.84147 0.0
N169 N 0.5151 0.49406 0.85133 0.0
C170 C 0.45359 0.41878 0.81913 0.0
C171 C 0.44622 0.46559 0.82368 0.0
C172 C 0.47655 0.50182 0.83981 0.0
C173 C 0.49319 0.41107 0.83084 0.0
C174 C 0.52372 0.4493 0.84648 0.0
N175 N 0.59795 0.59758 0.89763 0.0
C176 C 0.61299 0.6755 0.91986 0.0
C177 C 0.65735 0.67283 0.93 0.0
C178 C 0.67125 0.63149 0.92375 0.0
C179 C 0.64123 0.59458 0.90767 0.0
C180 C 0.58407 0.63776 0.90395 0.0
H181 H 0.65381 0.56404 0.90364 0.0
H182 H 0.55085 0.64227 0.89694 0.0
H183 H 0.46783 0.53572 0.84265 0.0
H184 H 0.55374 0.44142 0.85454 0.0
C185 C 0.63427 0.48187 0.88031 0.0
C186 C 0.66119 0.64758 0.8352 0.0
C187 C 0.4516 0.44311 0.91356 0.0
C188 C 0.47894 0.60964 0.8686 0.0
H189 H 0.75577 0.62651 0.83032 0.0
H190 H 0.74068 0.53493 0.85457 0.0
H191 H 0.58404 0.38107 0.90984 0.0
H192 H 0.48304 0.35871 0.9273 0.0
H193 H 0.3598 0.46807 0.91998 0.0
H194 H 0.37357 0.55783 0.89498 0.0
H195 H 0.52804 0.70878 0.83816 0.0
H196 H 0.62713 0.72846 0.81963 0.0
H197 H 0.41728 0.47471 0.81483 0.0
H198 H 0.5002 0.37514 0.82833 0.0
H199 H 0.60111 0.70734 0.92385 0.0
H200 H 0.70483 0.62719 0.93132 0.0
H201 H 0.9853 0.23822 0.07173 0.0
H202 H 0.08909 0.16969 0.09771 0.0
H203 H 0.11784 0.23823 0.12627 0.0
H204 H 0.08256 0.38881 0.08176 0.0
H205 H 0.02526 0.40242 0.08926 0.0
H206 H 0.01248 0.34792 0.07067 0.0
H207 H 0.92381 0.26941 0.09516 0.0
H208 H 0.9361 0.32374 0.11376 0.0
H209 H 0.93321 0.25702 0.12303 0.0
H210 H 0.13702 0.31498 0.1516 0.0
H211 H 0.14189 0.39261 0.17308 0.0
H212 H 0.02305 0.40896 0.13155 0.0
C213 C 0.01401 0.23758 0.08343 0.0
C214 C 0.03496 0.19859 0.08243 0.0
C215 C 0.07233 0.19903 0.09812 0.0
C216 C 0.0891 0.23792 0.1144 0.0
C217 C 0.06796 0.27593 0.11486 0.0
C218 C 0.03097 0.2759 0.0999 0.0
C219 C 0.01391 0.32079 0.10427 0.0
C220 C 0.03482 0.36776 0.08536 0.0
C221 C 0.94784 0.29094 0.10936 0.0
C222 C 0.04728 0.34606 0.12396 0.0
C223 C 0.07833 0.31971 0.12974 0.0
C224 C 0.11262 0.33576 0.14733 0.0
C225 C 0.11484 0.37966 0.1595 0.0
C226 C 0.0827 0.40679 0.15408 0.0
C227 C 0.04874 0.38971 0.13598 0.0
H228 H 0.90931 0.08277 0.43928 0.0
H229 H 0.81835 0.00834 0.38216 0.0
H230 H 0.72739 0.99329 0.39981 0.0
H231 H 0.78994 0.9836 0.47775 0.0
H232 H 0.80619 0.03934 0.4962 0.0
H233 H 0.86374 0.04345 0.47907 0.0
H234 H 0.89181 0.14805 0.46432 0.0
H235 H 0.83389 0.14394 0.48121 0.0
H236 H 0.83744 0.15945 0.45257 0.0
H237 H 0.6477 0.9914 0.42297 0.0
H238 H 0.58252 0.99351 0.4516 0.0
H239 H 0.72436 0.06483 0.49396 0.0
C240 C 0.87016 0.06291 0.43055 0.0
C241 C 0.87085 0.04683 0.40934 0.0
C242 C 0.81871 0.02079 0.39846 0.0
C243 C 0.76693 0.01233 0.4083 0.0
C244 C 0.76796 0.02959 0.42909 0.0
C245 C 0.81799 0.05355 0.44021 0.0
C246 C 0.80723 0.06755 0.46252 0.0
C247 C 0.81736 0.03131 0.47991 0.0
C248 C 0.84483 0.13368 0.4653 0.0
C249 C 0.74346 0.04814 0.46214 0.0
C250 C 0.72169 0.02683 0.44265 0.0
C251 C 0.66409 0.00746 0.43836 0.0
C252 C 0.62754 0.00892 0.45459 0.0
C253 C 0.64872 0.02884 0.47483 0.0
C254 C 0.70743 0.04926 0.47856 0.0
H255 H 0.91299 0.95415 0.77918 0.0
H256 H 0.91717 0.85923 0.72511 0.0
H257 H 0.83814 0.76677 0.74354 0.0
H258 H 0.88822 0.84195 0.82027 0.0
H259 H 0.84122 0.85527 0.8373 0.0
H260 H 0.89756 0.9141 0.8197 0.0
H261 H 0.82047 0.9319 0.8026 0.0
H262 H 0.76385 0.87286 0.82006 0.0
H263 H 0.75874 0.87204 0.79132 0.0
H264 H 0.75632 0.68537 0.76719 0.0
H265 H 0.6823 0.61918 0.79597 0.0
H266 H 0.73526 0.76601 0.8353 0.0
C267 C 0.89728 0.91391 0.77122 0.0
C268 C 0.92103 0.91386 0.75068 0.0
C269 C 0.89972 0.86024 0.74088 0.0
C270 C 0.8547 0.80756 0.75117 0.0
C271 C 0.83198 0.8092 0.77134 0.0
C272 C 0.85295 0.86082 0.78139 0.0
C273 C 0.822 0.85028 0.80333 0.0
C274 C 0.86481 0.86634 0.8212 0.0
C275 C 0.78933 0.88376 0.80438 0.0
C276 C 0.7801 0.78474 0.80398 0.0
C277 C 0.7862 0.76195 0.78529 0.0
C278 C 0.75139 0.7026 0.78195 0.0
C279 C 0.7096 0.66547 0.79827 0.0
C280 C 0.70361 0.68789 0.81766 0.0
C281 C 0.73922 0.74816 0.82053 0.0
H282 H 0.08942 0.90304 0.07806 0.0
H283 H 0.00268 0.96098 0.12163 0.0
H284 H 0.00487 0.89743 0.15128 0.0
H285 H 0.01226 0.75419 0.09857 0.0
H286 H 0.07345 0.74391 0.09533 0.0
H287 H 0.06925 0.79735 0.07788 0.0
H288 H 0.17051 0.87829 0.08867 0.0
H289 H 0.17498 0.82501 0.10617 0.0
H290 H 0.18273 0.89035 0.11671 0.0
H291 H 0.01274 0.82483 0.17584 0.0
H292 H 0.02474 0.74633 0.1934 0.0
H293 H 0.1027 0.7332 0.13364 0.0
C294 C 0.07162 0.90292 0.09391 0.0
C295 C 0.04615 0.93709 0.0976 0.0
C296 C 0.02243 0.9351 0.11847 0.0
C297 C 0.0236 0.89931 0.13542 0.0
C298 C 0.04841 0.86562 0.13121 0.0
C299 C 0.07189 0.86696 0.11098 0.0
C300 C 0.09312 0.82411 0.11049 0.0
C301 C 0.06003 0.77711 0.09463 0.0
C302 C 0.15927 0.85639 0.1052 0.0
C303 C 0.07745 0.79819 0.13354 0.0
C304 C 0.05216 0.82308 0.14529 0.0
C305 C 0.03293 0.80535 0.16687 0.0
C306 C 0.03981 0.76096 0.17668 0.0
C307 C 0.06561 0.73517 0.16488 0.0
C308 C 0.08422 0.75362 0.14305 0.0
H309 H 0.26309 0.13925 0.40814 0.0
H310 H 0.08615 0.01256 0.43266 0.0
H311 H 0.12455 0.97593 0.46112 0.0
H312 H 0.32147 0.04665 0.41634 0.0
H313 H 0.39068 0.10484 0.42396 0.0
H314 H 0.34889 0.12123 0.40594 0.0
H315 H 0.35117 0.19646 0.43143 0.0
H316 H 0.39319 0.18049 0.44949 0.0
H317 H 0.32568 0.17335 0.45927 0.0
H318 H 0.18396 0.9524 0.48666 0.0
H319 H 0.25859 0.94719 0.50756 0.0
H320 H 0.39467 0.08908 0.46531 0.0
C321 C 0.23216 0.10392 0.4195 0.0
C322 C 0.17155 0.07878 0.41814 0.0
C323 C 0.1328 0.03261 0.4334 0.0
C324 C 0.1542 0.01144 0.44958 0.0
C325 C 0.21434 0.037 0.45027 0.0
C326 C 0.25264 0.08242 0.43565 0.0
C327 C 0.31523 0.10264 0.43967 0.0
C328 C 0.34584 0.09325 0.42033 0.0
C329 C 0.34824 0.16704 0.4453 0.0
C330 C 0.30642 0.06153 0.45888 0.0
C331 C 0.24805 0.02379 0.4648 0.0
C332 C 0.22977 0.98181 0.48215 0.0
C333 C 0.27237 0.97892 0.49383 0.0
C334 C 0.33237 0.01796 0.48813 0.0
C335 C 0.34918 0.05925 0.47029 0.0
H336 H 0.17178 0.22286 0.75437 0.0
H337 H 0.26306 0.14135 0.72872 0.0
H338 H 0.35143 0.21085 0.7464 0.0
H339 H 0.29592 0.37412 0.75271 0.0
H340 H 0.2735 0.38809 0.77818 0.0
H341 H 0.21974 0.33684 0.76143 0.0
H342 H 0.17977 0.25616 0.79294 0.0
H343 H 0.23328 0.30716 0.80976 0.0
H344 H 0.22872 0.23833 0.80575 0.0
H345 H 0.42874 0.2876 0.76721 0.0
H346 H 0.48758 0.36033 0.79252 0.0
H347 H 0.34185 0.38386 0.80816 0.0
C348 C 0.21087 0.22067 0.75222 0.0
C349 C 0.21149 0.17778 0.74002 0.0
C350 C 0.26241 0.17449 0.73795 0.0
C351 C 0.31268 0.21381 0.74783 0.0
C352 C 0.31075 0.25534 0.76001 0.0
C353 C 0.26102 0.25863 0.76249 0.0
C354 C 0.26888 0.30354 0.77814 0.0
C355 C 0.26425 0.35362 0.76694 0.0
C356 C 0.22507 0.27455 0.79781 0.0
C357 C 0.33053 0.32457 0.78414 0.0
C358 C 0.3542 0.29701 0.7732 0.0
C359 C 0.41055 0.3092 0.77603 0.0
C360 C 0.44344 0.35024 0.79066 0.0
C361 C 0.41952 0.37778 0.80267 0.0
C362 C 0.36224 0.36468 0.79913 0.0
H363 H 0.91288 0.12418 0.66946 0.0
H364 H 0.97585 0.01814 0.64218 0.0
H365 H 0.90791 0.99431 0.61338 0.0
H366 H 0.76529 0.03113 0.66052 0.0
H367 H 0.75137 0.08921 0.65364 0.0
H368 H 0.80788 0.10167 0.67127 0.0
H369 H 0.88334 0.19081 0.64602 0.0
H370 H 0.82689 0.17895 0.62839 0.0
H371 H 0.89168 0.18144 0.61795 0.0
H372 H 0.82762 0.9755 0.58922 0.0
H373 H 0.74545 0.96916 0.56995 0.0
H374 H 0.7362 0.08838 0.61271 0.0
C375 C 0.91308 0.09667 0.65727 0.0
C376 C 0.94976 0.07304 0.65813 0.0
C377 C 0.94832 0.03694 0.64187 0.0
C378 C 0.90979 0.02303 0.62544 0.0
C379 C 0.87332 0.04594 0.62536 0.0
C380 C 0.87512 0.08257 0.64069 0.0
C381 C 0.83028 0.10018 0.63728 0.0
C382 C 0.7861 0.07928 0.65684 0.0
C383 C 0.85983 0.1668 0.6321 0.0
C384 C 0.80231 0.06686 0.61789 0.0
C385 C 0.82771 0.03582 0.61125 0.0
C386 C 0.80773 5e-05 0.59414 0.0
C387 C 0.76084 0.99636 0.58341 0.0
C388 C 0.73475 0.02845 0.5898 0.0
C389 C 0.7559 0.06404 0.60728 0.0
H390 H 0.93761 0.90061 0.98856 0.0
H391 H 0.82335 0.93474 0.02803 0.0
H392 H 0.73866 0.86035 0.01002 0.0
H393 H 0.86354 0.88265 0.94013 0.0
H394 H 0.87511 0.82547 0.93157 0.0
H395 H 0.92632 0.88003 0.94806 0.0
H396 H 0.91255 0.79785 0.97601 0.0
H397 H 0.86101 0.74303 0.95966 0.0
H398 H 0.84043 0.7446 0.9873 0.0
H399 H 0.66664 0.78229 0.98782 0.0
H400 H 0.61262 0.70942 0.96171 0.0
H401 H 0.77462 0.72922 0.93583 0.0
C402 C 0.89475 0.89231 0.99347 0.0
C403 C 0.88695 0.92327 0.00973 0.0
C404 C 0.83027 0.91153 0.01558 0.0
C405 C 0.78192 0.86926 0.00551 0.0
C406 C 0.79111 0.83942 0.98957 0.0
C407 C 0.84612 0.85065 0.98348 0.0
C408 C 0.84433 0.8138 0.96543 0.0
C409 C 0.87939 0.85283 0.9451 0.0
C410 C 0.86585 0.77236 0.97254 0.0
C411 C 0.77969 0.78011 0.96232 0.0
C412 C 0.74974 0.79526 0.97649 0.0
C413 C 0.68964 0.77025 0.97658 0.0
C414 C 0.65941 0.72915 0.9616 0.0
C415 C 0.68936 0.71376 0.94663 0.0
C416 C 0.75028 0.73939 0.94721 0.0
H417 H 0.13933 0.99437 0.32373 0.0
H418 H 0.96776 0.96785 0.31518 0.0
H419 H 0.94684 0.8883 0.29139 0.0
H420 H 0.16846 0.96308 0.27055 0.0
H421 H 0.2025 0.92359 0.28012 0.0
H422 H 0.20553 0.98111 0.29516 0.0
H423 H 0.15969 0.90861 0.32909 0.0
H424 H 0.15671 0.85098 0.31417 0.0
H425 H 0.09138 0.84096 0.32764 0.0
H426 H 0.94645 0.81451 0.26768 0.0
H427 H 0.96115 0.74367 0.24888 0.0
H428 H 0.12829 0.80973 0.2769 0.0
C429 C 0.09767 0.97211 0.31662 0.0
C430 C 0.05533 0.98741 0.32092 0.0
C431 C 0.00069 0.95664 0.31189 0.0
C432 C 0.98859 0.9117 0.29835 0.0
C433 C 0.0312 0.89744 0.29445 0.0
C434 C 0.08426 0.92603 0.30359 0.0
C435 C 0.12075 0.89934 0.29806 0.0
C436 C 0.17768 0.94448 0.2852 0.0
C437 C 0.13282 0.87343 0.31845 0.0
C438 C 0.08012 0.85161 0.28422 0.0
C439 C 0.02914 0.85188 0.28209 0.0
C440 C 0.98577 0.81315 0.26954 0.0
C441 C 0.99439 0.77251 0.25909 0.0
C442 C 0.04547 0.76976 0.26162 0.0
C443 C 0.08887 0.81038 0.27435 0.0
H444 H 0.1972 0.05297 0.63689 0.0
H445 H 0.20188 0.96173 0.69569 0.0
H446 H 0.28085 0.95204 0.67883 0.0
H447 H 0.22224 0.96352 0.60055 0.0
H448 H 0.26581 0.02436 0.58103 0.0
H449 H 0.20936 0.02362 0.59775 0.0
H450 H 0.28507 0.12473 0.61064 0.0
H451 H 0.34189 0.12539 0.59419 0.0
H452 H 0.3491 0.13337 0.62264 0.0
H453 H 0.3644 0.95939 0.65665 0.0
H454 H 0.43778 0.97066 0.62859 0.0
H455 H 0.37336 0.04965 0.58346 0.0
C456 C 0.21453 0.03049 0.64612 0.0
C457 C 0.19365 0.00818 0.66758 0.0
C458 C 0.2171 0.97881 0.67916 0.0
C459 C 0.26218 0.97343 0.66979 0.0
C460 C 0.28255 0.99683 0.64873 0.0
C461 C 0.25877 0.02372 0.63687 0.0
C462 C 0.28766 0.04378 0.61435 0.0
C463 C 0.24364 0.0119 0.59742 0.0
C464 C 0.31771 0.11079 0.61023 0.0
C465 C 0.33176 0.0245 0.6155 0.0
C466 C 0.32865 0.99823 0.63556 0.0
C467 C 0.36664 0.97898 0.64076 0.0
C468 C 0.40806 0.98558 0.62483 0.0
C469 C 0.41008 0.00997 0.60395 0.0
C470 C 0.372 0.0303 0.59932 0.0
H471 H 0.14237 0.18745 0.96518 0.0
H472 H 0.22625 0.19658 0.02446 0.0
H473 H 0.3204 0.27425 0.00688 0.0
H474 H 0.26452 0.20927 0.92945 0.0
H475 H 0.25242 0.2515 0.90904 0.0
H476 H 0.19209 0.19566 0.92623 0.0
H477 H 0.16637 0.27274 0.93736 0.0
H478 H 0.22709 0.32895 0.92045 0.0
H479 H 0.22087 0.33842 0.94864 0.0
H480 H 0.40279 0.35752 0.98399 0.0
H481 H 0.47155 0.43117 0.95555 0.0
H482 H 0.33646 0.36144 0.91031 0.0
C483 C 0.18073 0.20539 0.97436 0.0
C484 C 0.17717 0.18627 0.99618 0.0
C485 C 0.22821 0.21042 0.00768 0.0
C486 C 0.28175 0.25475 0.99788 0.0
C487 C 0.28358 0.27349 0.97647 0.0
C488 C 0.23475 0.24871 0.96469 0.0
C489 C 0.24882 0.2761 0.94181 0.0
C490 C 0.23889 0.23041 0.92568 0.0
C491 C 0.21369 0.30581 0.93678 0.0
C492 C 0.3129 0.32094 0.9427 0.0
C493 C 0.33194 0.31921 0.96292 0.0
C494 C 0.38869 0.35862 0.96799 0.0
C495 C 0.42727 0.40027 0.95184 0.0
C496 C 0.4091 0.40132 0.93086 0.0
C497 C 0.35122 0.36122 0.92627 0.0
H498 H 0.03647 0.22259 0.31069 0.0
H499 H 0.10855 0.30924 0.36867 0.0
H500 H 0.11675 0.40035 0.3525 0.0
H501 H 0.12994 0.34781 0.27379 0.0
H502 H 0.07412 0.33055 0.2552 0.0
H503 H 0.0733 0.27263 0.27168 0.0
H504 H 0.96798 0.23763 0.28633 0.0
H505 H 0.96874 0.29583 0.27005 0.0
H506 H 0.9529 0.28869 0.29871 0.0
H507 H 0.1125 0.48083 0.33011 0.0
H508 H 0.10513 0.54605 0.30206 0.0
H509 H 0.04318 0.40734 0.25844 0.0
C510 C 0.05403 0.26077 0.31998 0.0
C511 C 0.07157 0.25903 0.34094 0.0
C512 C 0.09501 0.30994 0.35253 0.0
C513 C 0.09955 0.36167 0.34353 0.0
C514 C 0.08129 0.36175 0.32284 0.0
C515 C 0.05987 0.31281 0.31112 0.0
C516 C 0.04508 0.32452 0.28897 0.0
C517 C 0.08288 0.31854 0.27138 0.0
C518 C 0.9798 0.28428 0.28585 0.0
C519 C 0.06097 0.38752 0.29008 0.0
C520 C 0.08115 0.40826 0.30979 0.0
C521 C 0.09703 0.4651 0.31458 0.0
C522 C 0.09257 0.50167 0.29869 0.0
C523 C 0.07297 0.48115 0.27836 0.0
C524 C 0.05745 0.4236 0.27403 0.0
loop_
_geom_bond_atom_site_label_1
_geom_bond_atom_site_label_2
_geom_bond_distance
_geom_bond_site_symmetry_2
_ccdc_geom_bond_type
C0 O1 1.306 . S
C0 O3 1.160 . S
O1 C0 1.306 . S
O1 Cd2 2.228 . S
Cd2 O1 2.228 . S
Cd2 O6 2.273 1_455 S
Cd2 O10 2.277 . S
O3 C0 1.160 . S
O3 Cd4 2.203 . S
Cd4 O3 2.203 . S
Cd4 O6 2.411 1_455 S
Cd4 O7 2.333 1_545 S
Cd4 O8 2.352 1_545 S
Cd4 O12 2.277 . S
Cd4 O13 2.356 1_545 S
C5 O10 1.209 . S
C5 O12 1.226 . S
O6 Cd2 2.273 1_655 S
O6 Cd4 2.411 1_655 S
O6 C9 1.320 1_545 S
O7 Cd4 2.333 1_565 S
O7 C9 1.214 1_455 S
O8 Cd4 2.352 1_565 S
O8 C11 1.258 . S
C9 O6 1.320 1_565 S
C9 O7 1.214 1_655 S
O10 Cd2 2.277 . S
O10 C5 1.209 . S
C11 O8 1.258 . S
C11 O13 1.282 . S
O12 Cd4 2.277 . S
O12 C5 1.226 . S
O13 Cd4 2.356 1_565 S
O13 C11 1.282 . S
C14 O15 1.306 . S
C14 O17 1.160 . S
O15 C14 1.306 . S
O15 Cd16 2.228 . S
Cd16 O15 2.228 . S
Cd16 O20 2.273 . S
Cd16 O24 2.277 . S
O17 C14 1.160 . S
O17 Cd18 2.203 . S
Cd18 O17 2.203 . S
Cd18 O20 2.411 . S
Cd18 O21 2.333 1_455 S
Cd18 O22 2.352 1_455 S
Cd18 O26 2.277 1_445 S
Cd18 O27 2.356 1_455 S
C19 O24 1.209 1_565 S
C19 O26 1.226 1_455 S
O20 Cd16 2.273 . S
O20 Cd18 2.411 . S
O20 C23 1.320 . S
O21 Cd18 2.333 1_655 S
O21 C23 1.214 1_655 S
O22 Cd18 2.352 1_655 S
O22 C25 1.258 . S
C23 O20 1.320 . S
C23 O21 1.214 1_455 S
O24 Cd16 2.277 . S
O24 C19 1.209 1_545 S
C25 O22 1.258 . S
C25 O27 1.282 . S
O26 Cd18 2.277 1_665 S
O26 C19 1.226 1_655 S
O27 Cd18 2.356 1_655 S
O27 C25 1.282 . S
C28 O29 1.306 . S
C28 O31 1.160 1_655 S
O29 C28 1.306 . S
O29 Cd30 2.228 1_655 S
Cd30 O29 2.228 1_455 S
Cd30 O34 2.273 . S
Cd30 O38 2.277 1_455 S
O31 C28 1.160 1_455 S
O31 Cd32 2.203 . S
Cd32 O31 2.203 . S
Cd32 O34 2.411 . S
Cd32 O35 2.333 . S
Cd32 O36 2.352 . S
Cd32 O40 2.277 1_545 S
Cd32 O41 2.352 1_545 S
C33 O38 1.209 1_565 S
C33 O40 1.226 1_655 S
O34 Cd30 2.273 . S
O34 Cd32 2.411 . S
O34 C37 1.320 . S
O35 Cd32 2.333 . S
O35 C37 1.214 . S
O36 Cd32 2.352 . S
O36 C39 1.258 . S
C37 O34 1.320 . S
C37 O35 1.214 . S
O38 Cd30 2.277 1_655 S
O38 C33 1.209 1_545 S
C39 O36 1.258 . S
C39 O41 1.279 1_545 S
O40 Cd32 2.277 1_565 S
O40 C33 1.226 1_455 S
O41 Cd32 2.352 1_565 S
O41 C39 1.279 1_565 S
C42 C43 1.443 . S
C42 N46 1.376 . S
C42 C80 1.389 . S
C43 C42 1.443 . S
C43 C44 1.340 . S
C43 H83 0.951 . S
C44 C43 1.340 . S
C44 C45 1.439 . S
C44 H84 0.950 . S
C45 C44 1.439 . S
C45 N46 1.374 . S
C45 C79 1.395 . S
N46 C42 1.376 . S
N46 C45 1.374 . S
N46 Co47 2.008 . S
Co47 N46 2.008 . S
Co47 N48 1.995 . S
Co47 N53 2.008 1_455 S
Co47 N58 1.995 1_455 S
Co47 N63 2.282 . S
Co47 N69 2.282 . S
N48 Co47 1.995 . S
N48 C49 1.376 . S
N48 C52 1.383 . S
C49 N48 1.376 . S
C49 C50 1.446 . S
C49 C79 1.391 . S
C50 C49 1.446 . S
C50 C51 1.339 . S
C50 H85 0.949 . S
C51 C50 1.339 . S
C51 C52 1.439 . S
C51 H86 0.950 . S
C52 N48 1.383 . S
C52 C51 1.439 . S
C52 C81 1.392 . S
N53 Co47 2.008 1_655 S
N53 C54 1.376 . S
N53 C57 1.374 . S
C54 N53 1.376 . S
C54 C55 1.443 . S
C54 C81 1.389 1_655 S
C55 C54 1.443 . S
C55 C56 1.340 . S
C55 H87 0.951 . S
C56 C55 1.340 . S
C56 C57 1.439 . S
C56 H88 0.950 . S
C57 N53 1.374 . S
C57 C56 1.439 . S
C57 C82 1.395 . S
N58 Co47 1.995 1_655 S
N58 C59 1.376 . S
N58 C62 1.383 1_655 S
C59 N58 1.376 . S
C59 C60 1.446 . S
C59 C82 1.391 . S
C60 C59 1.446 . S
C60 C61 1.339 . S
C60 H89 0.949 . S
C61 C60 1.339 . S
C61 C62 1.439 1_655 S
C61 H90 0.950 . S
C62 N58 1.383 1_455 S
C62 C61 1.439 1_455 S
C62 C80 1.392 . S
N63 Co47 2.282 . S
N63 C66 1.332 . S
N63 C68 1.332 . S
C64 C65 1.386 . S
C64 C67 1.388 . S
C65 C64 1.386 . S
C65 C66 1.382 . S
C65 H91 0.950 1_455 S
C66 N63 1.332 . S
C66 C65 1.382 . S
C66 H77 0.952 1_455 S
C67 C64 1.388 . S
C67 C68 1.382 . S
C67 H92 0.950 . S
C68 N63 1.332 . S
C68 C67 1.382 . S
C68 H78 0.948 . S
N69 Co47 2.282 . S
N69 C73 1.332 . S
N69 C74 1.332 1_455 S
C70 C71 1.388 1_655 S
C70 C74 1.382 . S
C70 H93 0.950 . S
C71 C70 1.388 1_455 S
C71 C72 1.386 . S
C72 C71 1.386 . S
C72 C73 1.382 . S
C72 H94 0.950 . S
C73 N69 1.332 . S
C73 C72 1.382 . S
C73 H75 0.952 . S
C74 N69 1.332 1_655 S
C74 C70 1.382 . S
C74 H76 0.948 . S
H75 C73 0.952 . S
H76 C74 0.948 . S
H77 C66 0.952 1_655 S
H78 C68 0.948 . S
C79 C45 1.395 . S
C79 C49 1.391 . S
C80 C42 1.389 . S
C80 C62 1.392 . S
C81 C52 1.392 . S
C81 C54 1.389 1_455 S
C82 C57 1.395 . S
C82 C59 1.391 . S
H83 C43 0.951 . S
H84 C44 0.950 . S
H85 C50 0.949 . S
H86 C51 0.950 . S
H87 C55 0.951 . S
H88 C56 0.950 . S
H89 C60 0.949 . S
H90 C61 0.950 . S
H91 C65 0.950 1_655 S
H92 C67 0.950 . S
H93 C70 0.950 . S
H94 C72 0.950 . S
C95 C96 1.443 1_545 S
C95 N99 1.376 . S
C95 C133 1.389 . S
C96 C95 1.443 1_565 S
C96 C97 1.340 . S
C96 H136 0.951 . S
C97 C96 1.340 . S
C97 C98 1.439 . S
C97 H137 0.950 . S
C98 C97 1.439 . S
C98 N99 1.374 1_565 S
C98 C132 1.395 . S
N99 C95 1.376 . S
N99 C98 1.374 1_545 S
N99 Co100 2.008 . S
Co100 N99 2.008 . S
Co100 N101 1.995 . S
Co100 N106 2.008 . S
Co100 N111 1.995 . S
Co100 N116 2.282 . S
Co100 N122 2.282 . S
N101 Co100 1.995 . S
N101 C102 1.376 1_545 S
N101 C105 1.383 . S
C102 N101 1.376 1_565 S
C102 C103 1.446 . S
C102 C132 1.391 . S
C103 C102 1.446 . S
C103 C104 1.339 . S
C103 H138 0.949 . S
C104 C103 1.339 . S
C104 C105 1.439 1_565 S
C104 H139 0.950 . S
C105 N101 1.383 . S
C105 C104 1.439 1_545 S
C105 C134 1.392 . S
N106 Co100 2.008 . S
N106 C107 1.376 . S
N106 C110 1.374 . S
C107 N106 1.376 . S
C107 C108 1.443 . S
C107 C134 1.389 . S
C108 C107 1.443 . S
C108 C109 1.340 . S
C108 H140 0.951 . S
C109 C108 1.340 . S
C109 C110 1.439 . S
C109 H141 0.950 . S
C110 N106 1.374 . S
C110 C109 1.439 . S
C110 C135 1.395 . S
N111 Co100 1.995 . S
N111 C112 1.376 . S
N111 C115 1.383 . S
C112 N111 1.376 . S
C112 C113 1.446 . S
C112 C135 1.391 . S
C113 C112 1.446 . S
C113 C114 1.339 . S
C113 H142 0.949 . S
C114 C113 1.339 . S
C114 C115 1.439 . S
C114 H143 0.950 . S
C115 N111 1.383 . S
C115 C114 1.439 . S
C115 C133 1.392 . S
N116 Co100 2.282 . S
N116 C119 1.332 . S
N116 C121 1.332 . S
C117 C118 1.386 . S
C117 C120 1.388 . S
C118 C117 1.386 . S
C118 C119 1.382 . S
C118 H144 0.950 . S
C119 N116 1.332 . S
C119 C118 1.382 . S
C119 H130 0.952 . S
C120 C117 1.388 . S
C120 C121 1.382 . S
C120 H145 0.950 1_545 S
C121 N116 1.332 . S
C121 C120 1.382 . S
C121 H131 0.948 1_545 S
N122 Co100 2.282 . S
N122 C126 1.332 . S
N122 C127 1.332 . S
C123 C124 1.388 . S
C123 C127 1.382 . S
C123 H146 0.950 . S
C124 C123 1.388 . S
C124 C125 1.386 . S
C125 C124 1.386 . S
C125 C126 1.382 . S
C125 H147 0.950 1_545 S
C126 N122 1.332 . S
C126 C125 1.382 . S
C126 H128 0.952 1_545 S
C127 N122 1.332 . S
C127 C123 1.382 . S
C127 H129 0.948 . S
H128 C126 0.952 1_565 S
H129 C127 0.948 . S
H130 C119 0.952 . S
H131 C121 0.948 1_565 S
C132 C98 1.395 . S
C132 C102 1.391 . S
C133 C95 1.389 . S
C133 C115 1.392 . S
C134 C105 1.392 . S
C134 C107 1.389 . S
C135 C110 1.395 . S
C135 C112 1.391 . S
H136 C96 0.951 . S
H137 C97 0.950 . S
H138 C103 0.949 . S
H139 C104 0.950 . S
H140 C108 0.951 . S
H141 C109 0.950 . S
H142 C113 0.949 . S
H143 C114 0.950 . S
H144 C118 0.950 . S
H145 C120 0.950 1_565 S
H146 C123 0.950 . S
H147 C125 0.950 1_565 S
C148 C149 1.443 . S
C148 N152 1.376 . S
C148 C186 1.389 . S
C149 C148 1.443 . S
C149 C150 1.340 . S
C149 H189 0.951 . S
C150 C149 1.340 . S
C150 C151 1.439 . S
C150 H190 0.950 . S
C151 C150 1.439 . S
C151 N152 1.374 . S
C151 C185 1.395 . S
N152 C148 1.376 . S
N152 C151 1.374 . S
N152 Co153 2.008 . S
Co153 N152 2.008 . S
Co153 N154 1.995 . S
Co153 N159 2.008 . S
Co153 N164 1.995 . S
Co153 N169 2.282 . S
Co153 N175 2.282 . S
N154 Co153 1.995 . S
N154 C155 1.376 . S
N154 C158 1.383 . S
C155 N154 1.376 . S
C155 C156 1.446 . S
C155 C185 1.391 . S
C156 C155 1.446 . S
C156 C157 1.339 . S
C156 H191 0.949 . S
C157 C156 1.339 . S
C157 C158 1.439 . S
C157 H192 0.950 . S
C158 N154 1.383 . S
C158 C157 1.439 . S
C158 C187 1.392 . S
N159 Co153 2.008 . S
N159 C160 1.376 . S
N159 C163 1.374 . S
C160 N159 1.376 . S
C160 C161 1.443 . S
C160 C187 1.389 . S
C161 C160 1.443 . S
C161 C162 1.340 . S
C161 H193 0.951 . S
C162 C161 1.340 . S
C162 C163 1.439 . S
C162 H194 0.950 . S
C163 N159 1.374 . S
C163 C162 1.439 . S
C163 C188 1.395 . S
N164 Co153 1.995 . S
N164 C165 1.376 . S
N164 C168 1.383 . S
C165 N164 1.376 . S
C165 C166 1.446 . S
C165 C188 1.391 . S
C166 C165 1.446 . S
C166 C167 1.339 . S
C166 H195 0.949 . S
C167 C166 1.339 . S
C167 C168 1.439 . S
C167 H196 0.950 . S
C168 N164 1.383 . S
C168 C167 1.439 . S
C168 C186 1.392 . S
N169 Co153 2.282 . S
N169 C172 1.332 . S
N169 C174 1.332 . S
C170 C171 1.386 . S
C170 C173 1.388 . S
C171 C170 1.386 . S
C171 C172 1.382 . S
C171 H197 0.950 . S
C172 N169 1.332 . S
C172 C171 1.382 . S
C172 H183 0.952 . S
C173 C170 1.388 . S
C173 C174 1.382 . S
C173 H198 0.950 . S
C174 N169 1.332 . S
C174 C173 1.382 . S
C174 H184 0.948 . S
N175 Co153 2.282 . S
N175 C179 1.332 . S
N175 C180 1.332 . S
C176 C177 1.388 . S
C176 C180 1.382 . S
C176 H199 0.950 . S
C177 C176 1.388 . S
C177 C178 1.386 . S
C178 C177 1.386 . S
C178 C179 1.382 . S
C178 H200 0.950 . S
C179 N175 1.332 . S
C179 C178 1.382 . S
C179 H181 0.952 . S
C180 N175 1.332 . S
C180 C176 1.382 . S
C180 H182 0.948 . S
H181 C179 0.952 . S
H182 C180 0.948 . S
H183 C172 0.952 . S
H184 C174 0.948 . S
C185 C151 1.395 . S
C185 C155 1.391 . S
C186 C148 1.389 . S
C186 C168 1.392 . S
C187 C158 1.392 . S
C187 C160 1.389 . S
C188 C163 1.395 . S
C188 C165 1.391 . S
H189 C149 0.951 . S
H190 C150 0.950 . S
H191 C156 0.949 . S
H192 C157 0.950 . S
H193 C161 0.951 . S
H194 C162 0.950 . S
H195 C166 0.949 . S
H196 C167 0.950 . S
H197 C171 0.950 . S
H198 C173 0.950 . S
H199 C176 0.950 . S
H200 C178 0.950 . S
H201 C213 0.930 1_655 S
H202 C215 0.930 . S
H203 C216 0.930 . S
H204 C220 0.959 . S
H205 C220 0.959 . S
H206 C220 0.961 . S
H207 C221 0.960 . S
H208 C221 0.961 . S
H209 C221 0.959 . S
H210 C224 0.929 . S
H211 C225 0.931 . S
H212 C227 0.930 1_655 S
C213 H201 0.930 1_455 S
C213 C214 1.399 . S
C213 C218 1.399 . S
C214 C213 1.399 . S
C214 C215 1.376 . S
C215 H202 0.930 . S
C215 C214 1.376 . S
C215 C216 1.388 . S
C216 H203 0.930 . S
C216 C215 1.388 . S
C216 C217 1.390 . S
C217 C216 1.390 . S
C217 C218 1.394 . S
C217 C223 1.465 . S
C218 C213 1.399 . S
C218 C217 1.394 . S
C218 C219 1.516 1_455 S
C219 C218 1.516 1_655 S
C219 C220 1.502 . S
C219 C221 1.561 . S
C219 C222 1.526 1_655 S
C220 H204 0.959 . S
C220 H205 0.959 . S
C220 H206 0.961 . S
C220 C219 1.502 . S
C221 H207 0.960 . S
C221 H208 0.961 . S
C221 H209 0.959 . S
C221 C219 1.561 . S
C222 C219 1.526 1_455 S
C222 C223 1.396 . S
C222 C227 1.390 . S
C223 C217 1.465 . S
C223 C222 1.396 . S
C223 C224 1.399 . S
C224 H210 0.929 . S
C224 C223 1.399 . S
C224 C225 1.385 . S
C225 H211 0.931 . S
C225 C224 1.385 . S
C225 C226 1.389 . S
C226 C225 1.389 . S
C226 C227 1.387 . S
C227 H212 0.930 1_455 S
C227 C222 1.390 . S
C227 C226 1.387 . S
H228 C240 0.930 . S
H229 C242 0.930 1_565 S
H230 C243 0.930 . S
H231 C247 0.959 . S
H232 C247 0.959 . S
H233 C247 0.961 . S
H234 C248 0.960 . S
H235 C248 0.961 . S
H236 C248 0.959 . S
H237 C251 0.929 . S
H238 C252 0.931 1_565 S
H239 C254 0.930 . S
C240 H228 0.930 . S
C240 C241 1.399 . S
C240 C245 1.399 . S
C241 C240 1.399 . S
C241 C242 1.376 . S
C242 H229 0.930 1_545 S
C242 C241 1.376 . S
C242 C243 1.388 1_545 S
C243 H230 0.930 . S
C243 C242 1.388 1_565 S
C243 C244 1.390 1_565 S
C244 C243 1.390 1_545 S
C244 C245 1.394 . S
C244 C250 1.465 . S
C245 C240 1.399 . S
C245 C244 1.394 . S
C245 C246 1.516 . S
C246 C245 1.516 . S
C246 C247 1.502 . S
C246 C248 1.561 . S
C246 C249 1.526 . S
C247 H231 0.959 . S
C247 H232 0.959 . S
C247 H233 0.961 . S
C247 C246 1.502 . S
C248 H234 0.960 . S
C248 H235 0.961 . S
C248 H236 0.959 . S
C248 C246 1.561 . S
C249 C246 1.526 . S
C249 C250 1.396 . S
C249 C254 1.390 . S
C250 C244 1.465 . S
C250 C249 1.396 . S
C250 C251 1.399 1_545 S
C251 H237 0.929 . S
C251 C250 1.399 1_565 S
C251 C252 1.385 1_565 S
C252 H238 0.931 1_545 S
C252 C251 1.385 1_545 S
C252 C253 1.389 . S
C253 C252 1.389 . S
C253 C254 1.387 . S
C254 H239 0.930 . S
C254 C249 1.390 . S
C254 C253 1.387 . S
H255 C267 0.930 . S
H256 C269 0.930 . S
H257 C270 0.930 . S
H258 C274 0.959 . S
H259 C274 0.959 . S
H260 C274 0.961 . S
H261 C275 0.960 . S
H262 C275 0.961 . S
H263 C275 0.959 . S
H264 C278 0.929 . S
H265 C279 0.931 . S
H266 C281 0.930 . S
C267 H255 0.930 . S
C267 C268 1.399 . S
C267 C272 1.399 . S
C268 C267 1.399 . S
C268 C269 1.376 . S
C269 H256 0.930 . S
C269 C268 1.376 . S
C269 C270 1.388 . S
C270 H257 0.930 . S
C270 C269 1.388 . S
C270 C271 1.390 . S
C271 C270 1.390 . S
C271 C272 1.394 . S
C271 C277 1.465 . S
C272 C267 1.399 . S
C272 C271 1.394 . S
C272 C273 1.516 . S
C273 C272 1.516 . S
C273 C274 1.502 . S
C273 C275 1.561 . S
C273 C276 1.526 . S
C274 H258 0.959 . S
C274 H259 0.959 . S
C274 H260 0.961 . S
C274 C273 1.502 . S
C275 H261 0.960 . S
C275 H262 0.961 . S
C275 H263 0.959 . S
C275 C273 1.561 . S
C276 C273 1.526 . S
C276 C277 1.396 . S
C276 C281 1.390 . S
C277 C271 1.465 . S
C277 C276 1.396 . S
C277 C278 1.399 . S
C278 H264 0.929 . S
C278 C277 1.399 . S
C278 C279 1.385 . S
C279 H265 0.931 . S
C279 C278 1.385 . S
C279 C280 1.389 . S
C280 C279 1.389 . S
C280 C281 1.387 . S
C281 H266 0.930 . S
C281 C276 1.390 . S
C281 C280 1.387 . S
H282 C294 0.930 . S
H283 C296 0.930 . S
H284 C297 0.930 . S
H285 C301 0.959 . S
H286 C301 0.959 . S
H287 C301 0.961 . S
H288 C302 0.960 . S
H289 C302 0.961 . S
H290 C302 0.959 . S
H291 C305 0.929 . S
H292 C306 0.931 . S
H293 C308 0.930 . S
C294 H282 0.930 . S
C294 C295 1.399 . S
C294 C299 1.399 . S
C295 C294 1.399 . S
C295 C296 1.376 . S
C296 H283 0.930 . S
C296 C295 1.376 . S
C296 C297 1.388 . S
C297 H284 0.930 . S
C297 C296 1.388 . S
C297 C298 1.390 . S
C298 C297 1.390 . S
C298 C299 1.394 . S
C298 C304 1.465 . S
C299 C294 1.399 . S
C299 C298 1.394 . S
C299 C300 1.516 . S
C300 C299 1.516 . S
C300 C301 1.502 1_455 S
C300 C302 1.561 . S
C300 C303 1.526 . S
C301 H285 0.959 . S
C301 H286 0.959 . S
C301 H287 0.961 . S
C301 C300 1.502 1_655 S
C302 H288 0.960 . S
C302 H289 0.961 . S
C302 H290 0.959 . S
C302 C300 1.561 . S
C303 C300 1.526 . S
C303 C304 1.396 . S
C303 C308 1.390 . S
C304 C298 1.465 . S
C304 C303 1.396 . S
C304 C305 1.399 . S
C305 H291 0.929 . S
C305 C304 1.399 . S
C305 C306 1.385 . S
C306 H292 0.931 . S
C306 C305 1.385 . S
C306 C307 1.389 . S
C307 C306 1.389 . S
C307 C308 1.387 . S
C308 H293 0.930 . S
C308 C303 1.390 . S
C308 C307 1.387 . S
H309 C321 0.930 . S
H310 C323 0.930 1_565 S
H311 C324 0.913 1_565 S
H312 C328 0.959 . S
H313 C328 0.959 . S
H314 C328 0.961 . S
H315 C329 0.960 . S
H316 C329 0.961 . S
H317 C329 0.959 . S
H318 C332 0.929 . S
H319 C333 0.931 1_565 S
H320 C335 0.930 . S
C321 H309 0.930 . S
C321 C322 1.399 . S
C321 C326 1.399 . S
C322 C321 1.399 . S
C322 C323 1.376 . S
C323 H310 0.930 1_545 S
C323 C322 1.376 . S
C323 C324 1.399 . S
C324 H311 0.913 1_545 S
C324 C323 1.399 . S
C324 C325 1.397 . S
C325 C324 1.397 . S
C325 C326 1.394 . S
C325 C331 1.465 . S
C326 C321 1.399 . S
C326 C325 1.394 . S
C326 C327 1.516 . S
C327 C326 1.516 . S
C327 C328 1.502 . S
C327 C329 1.561 . S
C327 C330 1.526 . S
C328 H312 0.959 . S
C328 H313 0.959 . S
C328 H314 0.961 . S
C328 C327 1.502 . S
C329 H315 0.960 . S
C329 H316 0.961 . S
C329 H317 0.959 . S
C329 C327 1.561 . S
C330 C327 1.526 . S
C330 C331 1.396 . S
C330 C335 1.390 . S
C331 C325 1.465 . S
C331 C330 1.396 . S
C331 C332 1.400 1_545 S
C332 H318 0.929 . S
C332 C331 1.400 1_565 S
C332 C333 1.385 1_565 S
C333 H319 0.931 1_545 S
C333 C332 1.385 1_545 S
C333 C334 1.389 . S
C334 C333 1.389 . S
C334 C335 1.387 . S
C335 H320 0.930 . S
C335 C330 1.390 . S
C335 C334 1.387 . S
H336 C348 0.930 . S
H337 C350 0.930 . S
H338 C351 0.930 . S
H339 C355 0.959 . S
H340 C355 0.959 . S
H341 C355 0.961 . S
H342 C356 0.960 . S
H343 C356 0.961 . S
H344 C356 0.959 . S
H345 C359 0.929 . S
H346 C360 0.931 . S
H347 C362 0.930 . S
C348 H336 0.930 . S
C348 C349 1.399 . S
C348 C353 1.399 . S
C349 C348 1.399 . S
C349 C350 1.376 . S
C350 H337 0.930 . S
C350 C349 1.376 . S
C350 C351 1.388 . S
C351 H338 0.930 . S
C351 C350 1.388 . S
C351 C352 1.390 . S
C352 C351 1.390 . S
C352 C353 1.394 . S
C352 C358 1.465 . S
C353 C348 1.399 . S
C353 C352 1.394 . S
C353 C354 1.516 . S
C354 C353 1.516 . S
C354 C355 1.502 . S
C354 C356 1.561 . S
C354 C357 1.526 . S
C355 H339 0.959 . S
C355 H340 0.959 . S
C355 H341 0.961 . S
C355 C354 1.502 . S
C356 H342 0.960 . S
C356 H343 0.961 . S
C356 H344 0.959 . S
C356 C354 1.561 . S
C357 C354 1.526 . S
C357 C358 1.396 . S
C357 C362 1.390 . S
C358 C352 1.465 . S
C358 C357 1.396 . S
C358 C359 1.399 . S
C359 H345 0.929 . S
C359 C358 1.399 . S
C359 C360 1.385 . S
C360 H346 0.931 . S
C360 C359 1.385 . S
C360 C361 1.389 . S
C361 C360 1.389 . S
C361 C362 1.387 . S
C362 H347 0.930 . S
C362 C357 1.390 . S
C362 C361 1.387 . S
H363 C375 0.930 . S
H364 C377 0.929 1_565 S
H365 C378 0.930 . S
H366 C382 0.959 . S
H367 C382 0.959 . S
H368 C382 0.961 . S
H369 C383 0.960 . S
H370 C383 0.961 . S
H371 C383 0.959 . S
H372 C386 0.929 . S
H373 C387 0.931 1_565 S
H374 C389 0.930 . S
C375 H363 0.930 . S
C375 C376 1.399 . S
C375 C380 1.399 . S
C376 C375 1.399 . S
C376 C377 1.377 . S
C377 H364 0.929 1_545 S
C377 C376 1.377 . S
C377 C378 1.389 1_545 S
C378 H365 0.930 . S
C378 C377 1.389 1_565 S
C378 C379 1.390 1_565 S
C379 C378 1.390 1_545 S
C379 C380 1.394 . S
C379 C385 1.465 . S
C380 C375 1.399 . S
C380 C379 1.394 . S
C380 C381 1.516 . S
C381 C380 1.516 . S
C381 C382 1.502 . S
C381 C383 1.561 . S
C381 C384 1.526 . S
C382 H366 0.959 . S
C382 H367 0.959 . S
C382 H368 0.961 . S
C382 C381 1.502 . S
C383 H369 0.960 . S
C383 H370 0.961 . S
C383 H371 0.959 . S
C383 C381 1.561 . S
C384 C381 1.526 . S
C384 C385 1.396 . S
C384 C389 1.390 . S
C385 C379 1.465 . S
C385 C384 1.396 . S
C385 C386 1.399 1_545 S
C386 H372 0.929 . S
C386 C385 1.399 1_565 S
C386 C387 1.385 1_565 S
C387 H373 0.931 1_545 S
C387 C386 1.385 1_545 S
C387 C388 1.389 . S
C388 C387 1.389 . S
C388 C389 1.387 . S
C389 H374 0.930 . S
C389 C384 1.390 . S
C389 C388 1.387 . S
H390 C402 0.930 . S
H391 C404 0.930 . S
H392 C405 0.920 1_554 S
H393 C409 0.959 . S
H394 C409 0.959 . S
H395 C409 0.961 . S
H396 C410 0.960 . S
H397 C410 0.961 . S
H398 C410 0.959 . S
H399 C413 0.929 . S
H400 C414 0.931 . S
H401 C416 0.930 . S
C402 H390 0.930 . S
C402 C403 1.399 1_556 S
C402 C407 1.399 . S
C403 C402 1.399 1_554 S
C403 C404 1.376 . S
C404 H391 0.930 . S
C404 C403 1.376 . S
C404 C405 1.366 1_554 S
C405 H392 0.920 1_556 S
C405 C404 1.366 1_556 S
C405 C406 1.424 . S
C406 C405 1.424 . S
C406 C407 1.394 . S
C406 C412 1.465 . S
C407 C402 1.399 . S
C407 C406 1.394 . S
C407 C408 1.516 . S
C408 C407 1.516 . S
C408 C409 1.502 . S
C408 C410 1.561 . S
C408 C411 1.526 . S
C409 H393 0.959 . S
C409 H394 0.959 . S
C409 H395 0.961 . S
C409 C408 1.502 . S
C410 H396 0.960 . S
C410 H397 0.961 . S
C410 H398 0.959 . S
C410 C408 1.561 . S
C411 C408 1.526 . S
C411 C412 1.396 . S
C411 C416 1.390 . S
C412 C406 1.465 . S
C412 C411 1.396 . S
C412 C413 1.399 . S
C413 H399 0.929 . S
C413 C412 1.399 . S
C413 C414 1.385 . S
C414 H400 0.931 . S
C414 C413 1.385 . S
C414 C415 1.389 . S
C415 C414 1.389 . S
C415 C416 1.387 . S
C416 H401 0.930 . S
C416 C411 1.390 . S
C416 C415 1.387 . S
H417 C429 0.930 . S
H418 C431 0.930 . S
H419 C432 0.930 . S
H420 C436 0.959 . S
H421 C436 0.959 . S
H422 C436 0.961 . S
H423 C437 0.960 . S
H424 C437 0.961 . S
H425 C437 0.959 1_655 S
H426 C440 0.940 . S
H427 C441 0.931 1_655 S
H428 C443 0.930 . S
C429 H417 0.930 . S
C429 C430 1.399 . S
C429 C434 1.399 . S
C430 C429 1.399 . S
C430 C431 1.376 1_455 S
C431 H418 0.930 . S
C431 C430 1.376 1_655 S
C431 C432 1.388 . S
C432 H419 0.930 . S
C432 C431 1.388 . S
C432 C433 1.390 1_655 S
C433 C432 1.390 1_455 S
C433 C434 1.394 . S
C433 C439 1.465 . S
C434 C429 1.399 . S
C434 C433 1.394 . S
C434 C435 1.516 . S
C435 C434 1.516 . S
C435 C436 1.502 . S
C435 C437 1.561 . S
C435 C438 1.526 . S
C436 H420 0.959 . S
C436 H421 0.959 . S
C436 H422 0.961 . S
C436 C435 1.502 . S
C437 H423 0.960 . S
C437 H424 0.961 . S
C437 H425 0.959 1_455 S
C437 C435 1.561 . S
C438 C435 1.526 . S
C438 C439 1.396 . S
C438 C443 1.390 . S
C439 C433 1.465 . S
C439 C438 1.396 . S
C439 C440 1.395 1_455 S
C440 H426 0.940 . S
C440 C439 1.395 1_655 S
C440 C441 1.378 1_655 S
C441 H427 0.931 1_455 S
C441 C440 1.378 1_455 S
C441 C442 1.389 . S
C442 C441 1.389 . S
C442 C443 1.387 . S
C443 H428 0.930 . S
C443 C438 1.390 . S
C443 C442 1.387 . S
H444 C456 0.930 . S
H445 C458 0.930 1_565 S
H446 C459 0.930 . S
H447 C463 0.959 . S
H448 C463 0.959 . S
H449 C463 0.961 . S
H450 C464 0.960 . S
H451 C464 0.961 . S
H452 C464 0.959 . S
H453 C467 0.929 1_565 S
H454 C468 0.931 1_565 S
H455 C470 0.930 . S
C456 H444 0.930 . S
C456 C457 1.399 . S
C456 C461 1.399 . S
C457 C456 1.399 . S
C457 C458 1.376 . S
C458 H445 0.930 1_545 S
C458 C457 1.376 . S
C458 C459 1.388 1_545 S
C459 H446 0.930 . S
C459 C458 1.388 1_565 S
C459 C460 1.390 1_565 S
C460 C459 1.390 1_545 S
C460 C461 1.394 . S
C460 C466 1.465 . S
C461 C456 1.399 . S
C461 C460 1.394 . S
C461 C462 1.516 . S
C462 C461 1.516 . S
C462 C463 1.502 . S
C462 C464 1.561 . S
C462 C465 1.526 . S
C463 H447 0.959 . S
C463 H448 0.959 . S
C463 H449 0.961 . S
C463 C462 1.502 . S
C464 H450 0.960 . S
C464 H451 0.961 . S
C464 H452 0.959 . S
C464 C462 1.561 . S
C465 C462 1.526 . S
C465 C466 1.396 . S
C465 C470 1.390 . S
C466 C460 1.465 . S
C466 C465 1.396 . S
C466 C467 1.399 . S
C467 H453 0.929 1_545 S
C467 C466 1.399 . S
C467 C468 1.385 . S
C468 H454 0.931 1_545 S
C468 C467 1.385 . S
C468 C469 1.389 . S
C469 C468 1.389 . S
C469 C470 1.387 . S
C470 H455 0.930 . S
C470 C465 1.390 . S
C470 C469 1.387 . S
H471 C483 0.930 . S
H472 C485 0.930 1_554 S
H473 C486 0.930 . S
H474 C490 0.959 . S
H475 C490 0.959 . S
H476 C490 0.961 . S
H477 C491 0.960 . S
H478 C491 0.961 . S
H479 C491 0.959 . S
H480 C494 0.929 . S
H481 C495 0.931 . S
H482 C497 0.930 . S
C483 H471 0.930 . S
C483 C484 1.399 . S
C483 C488 1.399 . S
C484 C483 1.399 . S
C484 C485 1.376 . S
C485 H472 0.930 1_556 S
C485 C484 1.376 . S
C485 C486 1.388 . S
C486 H473 0.930 . S
C486 C485 1.388 . S
C486 C487 1.390 . S
C487 C486 1.390 . S
C487 C488 1.394 . S
C487 C493 1.465 . S
C488 C483 1.399 . S
C488 C487 1.394 . S
C488 C489 1.516 . S
C489 C488 1.516 . S
C489 C490 1.502 . S
C489 C491 1.561 . S
C489 C492 1.526 . S
C490 H474 0.959 . S
C490 H475 0.959 . S
C490 H476 0.961 . S
C490 C489 1.502 . S
C491 H477 0.960 . S
C491 H478 0.961 . S
C491 H479 0.959 . S
C491 C489 1.561 . S
C492 C489 1.526 . S
C492 C493 1.396 . S
C492 C497 1.390 . S
C493 C487 1.465 . S
C493 C492 1.396 . S
C493 C494 1.399 . S
C494 H480 0.929 . S
C494 C493 1.399 . S
C494 C495 1.385 . S
C495 H481 0.931 . S
C495 C494 1.385 . S
C495 C496 1.389 . S
C496 C495 1.389 . S
C496 C497 1.387 . S
C497 H482 0.930 . S
C497 C492 1.390 . S
C497 C496 1.387 . S
H498 C510 0.930 . S
H499 C512 0.930 . S
H500 C513 0.930 . S
H501 C517 0.959 . S
H502 C517 0.959 . S
H503 C517 0.961 . S
H504 C518 0.960 . S
H505 C518 0.961 . S
H506 C518 0.959 . S
H507 C521 0.929 . S
H508 C522 0.931 . S
H509 C524 0.930 . S
C510 H498 0.930 . S
C510 C511 1.399 . S
C510 C515 1.399 . S
C511 C510 1.399 . S
C511 C512 1.376 . S
C512 H499 0.930 . S
C512 C511 1.376 . S
C512 C513 1.388 . S
C513 H500 0.930 . S
C513 C512 1.388 . S
C513 C514 1.390 . S
C514 C513 1.390 . S
C514 C515 1.394 . S
C514 C520 1.465 . S
C515 C510 1.399 . S
C515 C514 1.394 . S
C515 C516 1.516 . S
C516 C515 1.516 . S
C516 C517 1.502 . S
C516 C518 1.561 1_455 S
C516 C519 1.526 . S
C517 H501 0.959 . S
C517 H502 0.959 . S
C517 H503 0.961 . S
C517 C516 1.502 . S
C518 H504 0.960 . S
C518 H505 0.961 . S
C518 H506 0.959 . S
C518 C516 1.561 1_655 S
C519 C516 1.526 . S
C519 C520 1.396 . S
C519 C524 1.390 . S
C520 C514 1.465 . S
C520 C519 1.396 . S
C520 C521 1.399 . S
C521 H507 0.929 . S
C521 C520 1.399 . S
C521 C522 1.385 . S
C522 H508 0.931 . S
C522 C521 1.385 . S
C522 C523 1.389 . S
C523 C522 1.389 . S
C523 C524 1.387 . S
C524 H509 0.930 . S
C524 C519 1.390 . S
C524 C523 1.387 . S
C226 C64 1.449 . S
C214 C0 1.449 . S
C241 C25 1.482 . S
C253 C134 1.481 . S
C268 C33 1.506 . S
C280 C186 1.492 . S
C295 C11 1.440 . S
C307 C80 1.440 . S
C334 C124 1.480 . S
C322 C14 1.479 . S
C349 C37 1.477 . S
C361 C170 1.491 . S
C388 C117 1.477 . S
C376 C28 1.480 . S
C403 C9 1.477 . S
C415 C177 1.492 . S
C442 C71 1.525 . S
C430 C19 1.529 . S
C469 C133 1.475 . S
C457 C39 1.477 . S
C496 C187 1.503 . S
C484 C5 1.492 1_556 S
C511 C23 1.521 . S
C523 C81 1.538 . S
