# Generated by pormake.
# Topology ftw, (4,12)-cn, num edge types: 1
# Building blocks:
#     Node 0, Type 0, BuildingBlock: ESEHIV_clean_sbu_0, # of connection points: 4
#     Node 1, Type 0, BuildingBlock: ESEHIV_clean_sbu_0, # of connection points: 4
#     Node 2, Type 0, BuildingBlock: ESEHIV_clean_sbu_0, # of connection points: 4
#     Node 3, Type 1, BuildingBlock: QEWDON_clean_sbu_0, # of connection points: 12
#     Edge 4, Type (0, 1), BuildingBlock: XUDNAN_clean_linker_2, # of connection points: 2
#     Edge 5, Type (0, 1), BuildingBlock: XUDNAN_clean_linker_2, # of connection points: 2
#     Edge 6, Type (0, 1), BuildingBlock: XUDNAN_clean_linker_2, # of connection points: 2
#     Edge 7, Type (0, 1), BuildingBlock: XUDNAN_clean_linker_2, # of connection points: 2
#     Edge 8, Type (0, 1), BuildingBlock: XUDNAN_clean_linker_2, # of connection points: 2
#     Edge 9, Type (0, 1), BuildingBlock: XUDNAN_clean_linker_2, # of connection points: 2
#     Edge 10, Type (0, 1), BuildingBlock: XUDNAN_clean_linker_2, # of connection points: 2
#     Edge 11, Type (0, 1), BuildingBlock: XUDNAN_clean_linker_2, # of connection points: 2
#     Edge 12, Type (0, 1), BuildingBlock: XUDNAN_clean_linker_2, # of connection points: 2
#     Edge 13, Type (0, 1), BuildingBlock: XUDNAN_clean_linker_2, # of connection points: 2
#     Edge 14, Type (0, 1), BuildingBlock: XUDNAN_clean_linker_2, # of connection points: 2
#     Edge 15, Type (0, 1), BuildingBlock: XUDNAN_clean_linker_2, # of connection points: 2
# Relax obj value: 0.058
# Max RMSD: 0.167
# Mean RMSD: 0.145
data_MOF--net-ftw--node1-ESEHIV_clean_sbu_0--node2-QEWDON_clean_sbu_0--edge1-XUDNAN_clean_linker_2
_symmetry_space_group_name_H-M    P1
_symmetry_Int_Tables_number       1
_symmetry_cell_setting            triclinic
loop_
_symmetry_equiv_pos_as_xyz
'x, y, z'
_cell_length_a     26.000103
_cell_length_b     25.113229
_cell_length_c     24.373831
_cell_angle_alpha  86.902051
_cell_angle_beta   86.743014
_cell_angle_gamma 93.332052
loop_
_atom_site_label
_atom_site_type_symbol
_atom_site_fract_x
_atom_site_fract_y
_atom_site_fract_z
_atom_type_partial_charge
Cu0 Cu 0.9683 0.48947 0.49931 0.0
N1 N 0.93658 0.42916 0.47097 0.0
N2 N 0.93416 0.35835 0.41897 0.0
C3 C 0.96135 0.40281 0.43192 0.0
C4 C 0.88997 0.35696 0.45131 0.0
C5 C 0.89166 0.40068 0.48358 0.0
O6 O 0.01746 0.46178 0.54961 0.0
C7 C 0.95441 0.54773 0.40712 0.0
O8 O 0.90833 0.52652 0.42351 0.0
H9 H -0.00105 0.41647 0.41347 0.0
H10 H 0.86282 0.41029 0.51461 0.0
N11 N 0.928 0.53312 0.54161 0.0
N12 N 0.9198 0.60108 0.59649 0.0
C13 C 0.95114 0.5766 0.56132 0.0
C14 C 0.87954 0.52959 0.56474 0.0
C15 C 0.87447 0.57156 0.59908 0.0
C16 C 0.99328 0.43853 0.59216 0.0
O17 O 0.94262 0.43553 0.59501 0.0
H18 H 0.99167 0.58792 0.5524 0.0
H19 H 0.85089 0.49769 0.55918 0.0
O20 O 0.99247 0.53613 0.4355 0.0
H21 H 0.8591 0.32602 0.45264 0.0
H22 H 0.84066 0.57884 0.62492 0.0
Cu23 Cu 0.51831 0.00808 0.49308 0.0
N24 N 0.55932 0.05599 0.53041 0.0
N25 N 0.6174 0.07851 0.59094 0.0
C26 C 0.59767 0.03956 0.56077 0.0
C27 C 0.59047 0.12155 0.57847 0.0
C28 C 0.5544 0.10743 0.54138 0.0
O29 O 0.56744 0.96802 0.45039 0.0
C30 C 0.43998 0.00011 0.5728 0.0
O31 O 0.43871 0.04934 0.55199 0.0
H32 H 0.60959 -0.00102 0.56179 0.0
H33 H 0.52507 0.13208 0.52596 0.0
N34 N 0.4755 0.0393 0.44254 0.0
N35 N 0.41399 0.04371 0.3819 0.0
C36 C 0.43766 0.01219 0.41812 0.0
C37 C 0.47604 0.08982 0.42111 0.0
C38 C 0.43815 0.09268 0.38381 0.0
C39 C 0.59315 -0.00374 0.41178 0.0
O40 O 0.58364 0.04686 0.40436 0.0
H41 H 0.42773 0.97008 0.42715 0.0
H42 H 0.50274 0.12202 0.43094 0.0
O43 O 0.47301 0.97025 0.5515 0.0
H44 H 0.59458 0.15969 0.59691 0.0
H45 H 0.43001 0.12796 0.35912 0.0
Cu46 Cu 0.5002 0.47911 0.13108 0.0
N47 N 0.48416 0.54008 0.16655 0.0
N48 N 0.4541 0.62106 0.17205 0.0
C49 C 0.46981 0.58355 0.13851 0.0
C50 C 0.45997 0.60069 0.22362 0.0
C51 C 0.47859 0.55036 0.22009 0.0
O52 O 0.44104 0.45556 0.09097 0.0
C53 C 0.60101 0.5152 0.11042 0.0
O54 O 0.59616 0.51509 0.1644 0.0
H55 H 0.46906 0.58641 0.09411 0.0
H56 H 0.48525 0.52245 0.25394 0.0
N57 N 0.51474 0.42221 0.17836 0.0
N58 N 0.55072 0.34561 0.19843 0.0
C59 C 0.55465 0.39208 0.16787 0.0
C60 C 0.48401 0.39392 0.21716 0.0
C61 C 0.50622 0.34631 0.22965 0.0
C62 C 0.39593 0.46028 0.11289 0.0
O63 O 0.39105 0.48271 0.16018 0.0
H64 H 0.58334 0.40165 0.13433 0.0
H65 H 0.44636 0.4051 0.23195 0.0
O66 O 0.56219 0.49934 0.08463 0.0
H67 H 0.44878 0.61934 0.26112 0.0
H68 H 0.48959 0.31368 0.25707 0.0
Zn69 Zn 0.1556 0.07257 0.98137 0.0
Zn70 Zn 0.07116 0.09625 0.07171 0.0
O71 O 0.08217 0.04817 1.00867 0.0
H72 H 0.05598 0.03337 0.98635 0.0
C73 C 0.95888 0.2242 0.92543 0.0
O74 O 0.9369 0.24972 0.96526 0.0
Zn75 Zn 0.92719 0.85734 0.06067 0.0
Zn76 Zn 0.89468 0.8762 0.93369 0.0
O77 O 0.92475 0.91263 0.99843 0.0
H78 H 0.94835 0.94384 0.99414 0.0
Zn79 Zn 0.91856 0.12898 0.996 0.0
O80 O 0.92961 0.0498 1.00448 0.0
Zn81 Zn 0.88459 0.03779 0.07376 0.0
H82 H 0.96281 0.03543 0.99739 0.0
Zn83 Zn 0.11198 0.85473 0.97266 0.0
O84 O 0.07826 0.91668 1.00685 0.0
H85 H 0.04614 0.93138 0.99759 0.0
Zn86 Zn 0.11082 0.91631 0.07903 0.0
C87 C 0.04173 0.80706 0.89442 0.0
O88 O 0.00982 0.8016 0.93841 0.0
O89 O 0.17161 0.15096 0.99904 0.0
O90 O 0.10237 0.17162 0.05011 0.0
O91 O 0.87453 0.79629 0.95174 0.0
O92 O 0.90167 0.78394 0.03634 0.0
O93 O 0.84793 0.14919 0.03064 0.0
O94 O 0.81587 0.06948 0.06534 0.0
C95 C 0.12702 0.02404 0.13829 0.0
O96 O 0.1836 0.8393 1.00197 0.0
O97 O 0.18369 0.89353 0.07121 0.0
O98 O 0.85105 0.91809 0.87767 0.0
C99 C 0.14589 0.185 0.02421 0.0
O100 O 0.19405 0.04308 0.91158 0.0
C101 C 0.86401 0.92119 0.13165 0.0
O102 O 0.95628 0.1734 0.92878 0.0
C103 C 0.88056 0.76605 0.99435 0.0
O104 O 0.08715 0.82778 0.8984 0.0
C105 C 0.96099 0.10103 0.13254 0.0
O106 O 0.11284 0.07146 0.13373 0.0
O107 O 0.1088 0.99081 0.10567 0.0
C108 C 0.81067 0.11898 0.05354 0.0
O109 O 0.87841 0.87455 0.12397 0.0
O110 O 0.8806 0.9587 0.09665 0.0
C111 C 0.02574 0.84291 0.12618 0.0
O112 O 0.91504 0.08123 0.13106 0.0
O113 O 0.99462 0.08848 0.09606 0.0
C114 C 0.20618 0.86079 0.0412 0.0
O115 O 0.07184 0.86117 0.13104 0.0
O116 O 0.00062 0.86271 0.08722 0.0
C117 C 0.85609 0.96853 0.86828 0.0
O118 O 0.8901 -0.00368 0.89472 0.0
C119 C 0.22015 0.00166 0.91348 0.0
O120 O 0.22178 0.97411 0.96066 0.0
H121 H 0.87209 0.28787 0.36772 0.0
H122 H 0.03232 0.3428 0.37931 0.0
H123 H 0.0585 0.2821 0.3082 0.0
H124 H 0.89589 0.14903 0.34975 0.0
H125 H 0.84579 0.14075 0.30218 0.0
H126 H 0.84017 0.18844 0.35444 0.0
H127 H 0.82919 0.26319 0.27916 0.0
H128 H 0.83518 0.21568 0.2268 0.0
H129 H 0.87766 0.27522 0.22329 0.0
H130 H 0.06655 0.21676 0.23058 0.0
H131 H 0.0544 0.1514 0.15865 0.0
H132 H 0.89009 0.13784 0.20427 0.0
C133 C 0.91275 0.28681 0.35604 0.0
C134 C 0.94984 0.32078 0.37917 0.0
C135 C 0.00273 0.31819 0.36175 0.0
C136 C 0.01818 0.28344 0.32148 0.0
C137 C 0.98048 0.25099 0.29915 0.0
C138 C 0.92888 0.25219 0.31624 0.0
C139 C 0.8957 0.21385 0.28569 0.0
C140 C 0.86777 0.17044 0.32539 0.0
C141 C 0.85719 0.2438 0.25174 0.0
C142 C 0.93658 0.19092 0.24887 0.0
C143 C 0.98532 0.21279 0.25659 0.0
C144 C 0.02852 0.19887 0.22475 0.0
C145 C 0.0214 0.16164 0.18405 0.0
C146 C 0.97157 0.1386 0.17614 0.0
C147 C 0.92904 0.15371 0.20944 0.0
H148 H 0.63293 0.03778 0.31138 0.0
H149 H 0.64804 0.90743 0.43255 0.0
H150 H 0.72207 0.87754 0.3759 0.0
H151 H 0.6593 0.9598 0.19669 0.0
H152 H 0.69433 0.01144 0.15375 0.0
H153 H 0.64449 0.02855 0.203 0.0
H154 H 0.70569 0.09223 0.25047 0.0
H155 H 0.75695 0.0803 0.20065 0.0
H156 H 0.76602 0.06969 0.27308 0.0
H157 H 0.79497 0.86307 0.30657 0.0
H158 H 0.85665 0.85942 0.22668 0.0
H159 H 0.79333 -0.00136 0.14901 0.0
C160 C 0.65189 0.003 0.32622 0.0
C161 C 0.63491 0.97505 0.3767 0.0
C162 C 0.66022 0.92926 0.39402 0.0
C163 C 0.70253 0.91232 0.3623 0.0
C164 C 0.7187 0.94137 0.31319 0.0
C165 C 0.69375 0.98537 0.29493 0.0
C166 C 0.71653 0.00752 0.23899 0.0
C167 C 0.67625 0.00157 0.19556 0.0
C168 C 0.73753 0.06589 0.24096 0.0
C169 C 0.75977 0.97049 0.2294 0.0
C170 C 0.76002 0.93244 0.27265 0.0
C171 C 0.79508 0.8927 0.27262 0.0
C172 C 0.83005 0.89107 0.22691 0.0
C173 C 0.83016 0.92899 0.1815 0.0
C174 C 0.79492 0.96975 0.18331 0.0
H175 H 0.03584 0.62043 0.37274 0.0
H176 H 0.88234 0.56324 0.33269 0.0
H177 H 0.88327 0.63278 0.25779 0.0
H178 H 0.01771 0.75893 0.34885 0.0
H179 H 0.08168 0.77585 0.31813 0.0
H180 H 0.07072 0.71986 0.36761 0.0
H181 H 0.11008 0.65741 0.29734 0.0
H182 H 0.12174 0.71338 0.24791 0.0
H183 H 0.08463 0.65457 0.2302 0.0
H184 H 0.89789 0.71141 0.19065 0.0
H185 H 0.92938 0.78968 0.13048 0.0
H186 H 0.07364 0.79549 0.21149 0.0
C187 C 0.00285 0.62211 0.34766 0.0
C188 C 0.95901 0.58643 0.35881 0.0
C189 C 0.91634 0.59026 0.32528 0.0
C190 C 0.91636 0.62969 0.28253 0.0
C191 C 0.95943 0.6651 0.27348 0.0
C192 C 0.00218 0.66146 0.30452 0.0
C193 C 0.04316 0.70514 0.28612 0.0
C194 C 0.05393 0.74213 0.33297 0.0
C195 C 0.09284 0.68118 0.26407 0.0
C196 C 0.0165 0.73379 0.24035 0.0
C197 C 0.96818 0.71016 0.23392 0.0
C198 C 0.93596 0.73001 0.1949 0.0
C199 C 0.95413 0.77465 0.1607 0.0
C200 C 0.00407 0.79877 0.16531 0.0
C201 C 0.03522 0.77813 0.20639 0.0
H202 H 0.34614 0.10879 0.33573 0.0
H203 H 0.38642 0.94356 0.3504 0.0
H204 H 0.31513 0.91813 0.29232 0.0
H205 H 0.20896 0.08339 0.33885 0.0
H206 H 0.2001 0.13725 0.28901 0.0
H207 H 0.2534 0.14154 0.33294 0.0
H208 H 0.31745 0.1568 0.24721 0.0
H209 H 0.26432 0.15283 0.20309 0.0
H210 H 0.31648 0.10922 0.19441 0.0
H211 H 0.23779 0.91163 0.22993 0.0
H212 H 0.16548 0.92625 0.16937 0.0
H213 H 0.18041 0.09577 0.19589 0.0
C214 C 0.34044 0.06727 0.32666 0.0
C215 C 0.37219 0.02835 0.34803 0.0
C216 C 0.36242 0.97426 0.33537 0.0
C217 C 0.32204 0.95937 0.3021 0.0
C218 C 0.29157 -0.00106 0.28173 0.0
C219 C 0.30054 0.0518 0.29362 0.0
C220 C 0.26328 0.08716 0.26626 0.0
C221 C 0.22944 0.11389 0.30934 0.0
C222 C 0.29211 0.12894 0.22531 0.0
C223 C 0.232 0.04613 0.23687 0.0
C224 C 0.24843 -0.00467 0.24612 0.0
C225 C 0.22485 0.9514 0.22233 0.0
C226 C 0.184 0.96001 0.18772 0.0
C227 C 0.16752 0.01212 0.1771 0.0
C228 C 0.19177 0.05525 0.20284 0.0
H229 H 0.88173 0.62341 0.69925 0.0
H230 H 0.99471 0.6784 0.56745 0.0
H231 H 0.03367 0.74291 0.62767 0.0
H232 H 0.87094 0.76054 0.75085 0.0
H233 H 0.86303 0.73847 0.82217 0.0
H234 H 0.83808 0.69664 0.7707 0.0
H235 H 0.88961 0.61744 0.80112 0.0
H236 H 0.91325 0.65489 0.85625 0.0
H237 H 0.95814 0.62721 0.80809 0.0
H238 H 0.06873 0.79078 0.70521 0.0
H239 H 0.09271 0.82576 0.79341 0.0
H240 H 0.95436 0.74525 0.87469 0.0
C241 C 0.91367 0.65007 0.68259 0.0
C242 C 0.9357 0.64501 0.62882 0.0
C243 C 0.97784 0.68054 0.60882 0.0
C244 C 8e-05 0.71767 0.64261 0.0
C245 C 0.97905 0.71996 0.69609 0.0
C246 C 0.93607 0.68809 0.7157 0.0
C247 C 0.92207 0.69811 0.77539 0.0
C248 C 0.87045 0.72492 0.78009 0.0
C249 C 0.92072 0.64633 0.81237 0.0
C250 C 0.96654 0.73679 0.78743 0.0
C251 C -0.00172 0.7497 0.74067 0.0
C252 C 0.04365 0.78188 0.74192 0.0
C253 C 0.05712 0.80127 0.79234 0.0
C254 C 0.02545 0.78837 0.841 0.0
C255 C 0.97916 0.75628 0.83815 0.0
H256 H 0.35911 0.05234 0.61435 0.0
H257 H 0.44468 0.91166 0.64527 0.0
H258 H 0.39317 0.89246 0.73388 0.0
H259 H 0.35498 0.09448 0.748 0.0
H260 H 0.29099 0.11834 0.74642 0.0
H261 H 0.33056 0.11714 0.68358 0.0
H262 H 0.25895 0.05941 0.64094 0.0
H263 H 0.21892 0.06071 0.70362 0.0
H264 H 0.23391 -0.0023 0.67649 0.0
H265 H 0.33618 0.89418 0.82365 0.0
H266 H 0.2795 0.91511 0.90358 0.0
H267 H 0.23272 0.05527 0.81179 0.0
C268 C 0.36668 0.0169 0.63917 0.0
C269 C 0.406 0.9834 0.62269 0.0
C270 C 0.41454 0.93765 0.65673 0.0
C271 C 0.38551 0.92658 0.7072 0.0
C272 C 0.34787 0.9614 0.7227 0.0
C273 C 0.33824 0.00539 0.68922 0.0
C274 C 0.29781 0.03839 0.71583 0.0
C275 C 0.31993 0.09544 0.72394 0.0
C276 C 0.24954 0.03907 0.68221 0.0
C277 C 0.28673 0.00695 0.77032 0.0
C278 C 0.31559 0.96242 0.77355 0.0
C279 C 0.31314 0.92866 0.82113 0.0
C280 C 0.28082 0.94097 0.86643 0.0
C281 C 0.25141 0.98684 0.86411 0.0
C282 C 0.25425 0.01971 0.81497 0.0
H283 H 0.97839 0.45998 0.69797 0.0
H284 H 0.05838 0.35683 0.59012 0.0
H285 H 0.07111 0.29463 0.67005 0.0
H286 H 0.0525 0.42865 0.82726 0.0
H287 H 0.99398 0.43174 0.87002 0.0
H288 H 0.00466 0.47417 0.80785 0.0
H289 H 0.91743 0.43708 0.775 0.0
H290 H 0.90694 0.39354 0.8359 0.0
H291 H 0.90645 0.3661 0.76909 0.0
H292 H 0.05525 0.23444 0.75656 0.0
H293 H 0.02062 0.186 0.84303 0.0
H294 H 0.95152 0.32966 0.89453 0.0
C295 C 0.00139 0.42591 0.69195 0.0
C296 C 0.01869 0.41365 0.63849 0.0
C297 C 0.04651 0.36765 0.63115 0.0
C298 C 0.05339 0.33194 0.67632 0.0
C299 C 0.03283 0.3435 0.72831 0.0
C300 C 0.00857 0.39027 0.73649 0.0
C301 C 0.98374 0.39044 0.79423 0.0
C302 C 0.01033 0.43382 0.82677 0.0
C303 C 0.92521 0.39715 0.79343 0.0
C304 C 0.9949 0.33517 0.81638 0.0
C305 C 0.02387 0.30887 0.77818 0.0
C306 C 0.03388 0.25523 0.78729 0.0
C307 C 0.0137 0.2279 0.83639 0.0
C308 C 0.98365 0.25414 0.87577 0.0
C309 C 0.97513 0.30873 0.86578 0.0
H310 H 0.64281 0.98691 0.64589 0.0
H311 H 0.67917 0.15813 0.62888 0.0
H312 H 0.74395 0.14906 0.69868 0.0
H313 H 0.65507 0.97096 0.79092 0.0
H314 H 0.68365 0.90743 0.78769 0.0
H315 H 0.64018 0.92763 0.73662 0.0
H316 H 0.7101 0.91459 0.65923 0.0
H317 H 0.75375 0.89421 0.71005 0.0
H318 H 0.77285 0.94884 0.66073 0.0
H319 H 0.80539 0.12064 0.77069 0.0
H320 H 0.85802 0.07559 0.83832 0.0
H321 H 0.78183 0.92288 0.80642 0.0
C322 C 0.66466 0.02259 0.65609 0.0
C323 C 0.65575 0.07335 0.63141 0.0
C324 C 0.68477 0.11891 0.64735 0.0
C325 C 0.72188 0.1141 0.68683 0.0
C326 C 0.7296 0.06344 0.71014 0.0
C327 C 0.70177 0.01851 0.69528 0.0
C328 C 0.71718 0.96861 0.72644 0.0
C329 C 0.67129 0.94212 0.76256 0.0
C330 C 0.73982 0.92925 0.68674 0.0
C331 C 0.75818 -0.00761 0.76118 0.0
C332 C 0.76478 0.04715 0.75127 0.0
C333 C 0.80051 0.07778 0.77868 0.0
C334 C 0.83026 0.05178 0.81708 0.0
C335 C 0.82421 -0.00438 0.82779 0.0
C336 C 0.78753 0.9658 0.79929 0.0
H337 H 0.39128 0.38218 0.03839 0.0
H338 H 0.29565 0.47972 0.13862 0.0
H339 H 0.21787 0.42749 0.1143 0.0
H340 H 0.29529 0.35674 0.93028 0.0
H341 H 0.31377 0.28904 0.92505 0.0
H342 H 0.36072 0.34062 0.9413 0.0
H343 H 0.38023 0.28472 0.02944 0.0
H344 H 0.33334 0.23332 1.01364 0.0
H345 H 0.32807 0.26331 0.0791 0.0
H346 H 0.15259 0.35554 0.09273 0.0
H347 H 0.10553 0.27073 0.07386 0.0
H348 H 0.24321 0.22119 0.98627 0.0
C349 C 0.35383 0.39377 0.05352 0.0
C350 C 0.34951 0.43513 0.09016 0.0
C351 C 0.29989 0.44819 0.11038 0.0
C352 C 0.2554 0.41889 0.09662 0.0
C353 C 0.26104 0.3769 0.06217 0.0
C354 C 0.30899 0.36473 0.04034 0.0
C355 C 0.30516 0.31405 1.00953 0.0
C356 C 0.31958 0.32584 0.94787 0.0
C357 C 0.33866 0.27136 0.03445 0.0
C358 C 0.24815 0.29838 0.01967 0.0
C359 C 0.22311 0.33549 0.04936 0.0
C360 C 0.17145 0.32678 0.0683 0.0
C361 C 0.14502 0.27844 0.05748 0.0
C362 C 0.17041 0.23935 0.0282 0.0
C363 C 0.22224 0.25046 1.00794 0.0
H364 H 0.39873 0.63489 0.08213 0.0
H365 H 0.44936 0.71318 0.22569 0.0
H366 H 0.40047 0.79151 0.19921 0.0
H367 H 0.39967 0.75624 0.9881 0.0
H368 H 0.34268 0.73133 0.95663 0.0
H369 H 0.38726 0.68535 0.98302 0.0
H370 H 0.31282 0.63525 0.04402 0.0
H371 H 0.26816 0.68079 1.01777 0.0
H372 H 0.27441 0.67205 0.09094 0.0
H373 H 0.33916 0.8568 0.16136 0.0
H374 H 0.26662 0.90003 0.12025 0.0
H375 H 0.25769 0.77766 1.00142 0.0
C376 C 0.40118 0.66909 0.10717 0.0
C377 C 0.42857 0.66823 0.15561 0.0
C378 C 0.42867 0.71307 0.18839 0.0
C379 C 0.40145 0.75784 0.17336 0.0
C380 C 0.37465 0.75706 0.12533 0.0
C381 C 0.37441 0.71371 0.09281 0.0
C382 C 0.33858 0.7199 0.04646 0.0
C383 C 0.36887 0.72343 0.99022 0.0
C384 C 0.29598 0.67432 0.05007 0.0
C385 C 0.31705 0.77275 0.059 0.0
C386 C 0.339 0.79414 0.10397 0.0
C387 C 0.32227 0.84075 0.1257 0.0
C388 C 0.28092 0.86497 0.10207 0.0
C389 C 0.25629 0.84212 0.05766 0.0
C390 C 0.276 0.79652 0.03481 0.0
H391 H 0.65249 0.35288 0.17031 0.0
H392 H 0.52089 0.23951 0.20354 0.0
H393 H 0.57359 0.16702 0.17085 0.0
H394 H 0.69495 0.30395 0.0459 0.0
H395 H 0.76275 0.31551 0.05592 0.0
H396 H 0.71667 0.35653 0.08816 0.0
H397 H 0.75044 0.33223 0.18351 0.0
H398 H 0.79699 0.29106 0.15216 0.0
H399 H 0.75207 0.26304 0.20673 0.0
H400 H 0.63933 0.10928 0.12461 0.0
H401 H 0.71454 0.07002 0.07829 0.0
H402 H 0.80086 0.22314 0.07557 0.0
C403 C 0.635 0.31261 0.17156 0.0
C404 C 0.58272 0.30172 0.18936 0.0
C405 C 0.56112 0.24854 0.1907 0.0
C406 C 0.59062 0.2073 0.17172 0.0
C407 C 0.64152 0.22011 0.15194 0.0
C408 C 0.66361 0.27145 0.15255 0.0
C409 C 0.71813 0.27585 0.12717 0.0
C410 C 0.72339 0.31529 0.07628 0.0
C411 C 0.75672 0.29144 0.16994 0.0
C412 C 0.72326 0.21909 0.11123 0.0
C413 C 0.67884 0.18734 0.12581 0.0
C414 C 0.67451 0.13364 0.11382 0.0
C415 C 0.71725 0.11168 0.08763 0.0
C416 C 0.76349 0.14333 0.074 0.0
C417 C 0.76596 0.1979 0.08519 0.0
H418 H 0.68582 0.55859 0.15616 0.0
H419 H 0.62582 0.52307 0.99881 0.0
H420 H 0.7037 0.5694 0.95111 0.0
H421 H 0.72762 0.68637 0.12073 0.0
H422 H 0.78458 0.68717 0.15964 0.0
H423 H 0.73043 0.64171 0.18082 0.0
H424 H 0.78973 0.56233 0.17666 0.0
H425 H 0.84413 0.60792 0.15499 0.0
H426 H 0.82732 0.55261 0.11395 0.0
H427 H 0.77965 0.63184 0.92104 0.0
H428 H 0.84332 0.70875 0.91133 0.0
H429 H 0.85421 0.70344 0.08823 0.0
C430 C 0.68964 0.55911 0.11167 0.0
C431 C 0.6498 0.537 0.08117 0.0
C432 C 0.65594 0.53949 0.02302 0.0
C433 C 0.70023 0.56542 0.99562 0.0
C434 C 0.73816 0.58812 0.027 0.0
C435 C 0.73336 0.58494 0.08386 0.0
C436 C 0.77578 0.61855 0.10807 0.0
C437 C 0.75324 0.66095 0.14439 0.0
C438 C 0.81135 0.58322 0.14031 0.0
C439 C 0.80349 0.64371 0.05594 0.0
C440 C 0.78209 0.62457 1.00959 0.0
C441 C 0.7974 0.64623 0.95697 0.0
C442 C 0.83367 0.69 0.95178 0.0
C443 C 0.854 0.71204 0.99885 0.0
C444 C 0.84031 0.68689 0.05131 0.0
loop_
_geom_bond_atom_site_label_1
_geom_bond_atom_site_label_2
_geom_bond_distance
_geom_bond_site_symmetry_2
_ccdc_geom_bond_type
Cu0 N1 1.999 . S
Cu0 O6 1.974 . S
Cu0 N11 1.985 . S
Cu0 O20 1.959 . S
N1 Cu0 1.999 . S
N1 C3 1.263 . S
N1 C5 1.389 . S
N2 C3 1.358 . S
N2 C4 1.400 . S
C3 N1 1.263 . S
C3 N2 1.358 . S
C3 H9 0.930 1_455 S
C4 N2 1.400 . S
C4 C5 1.351 . S
C4 H21 0.930 . S
C5 N1 1.389 . S
C5 C4 1.351 . S
C5 H10 0.930 . S
O6 Cu0 1.974 . S
O6 C16 1.282 1_455 S
C7 O8 1.261 . S
C7 O20 1.251 1_655 S
O8 C7 1.261 . S
H9 C3 0.930 1_655 S
H10 C5 0.930 . S
N11 Cu0 1.985 . S
N11 C13 1.335 . S
N11 C14 1.390 1_455 S
N12 C13 1.345 . S
N12 C15 1.336 1_455 S
C13 N11 1.335 . S
C13 N12 1.345 . S
C13 H18 0.930 . S
C14 N11 1.390 1_655 S
C14 C15 1.346 . S
C14 H19 0.930 . S
C15 N12 1.336 1_655 S
C15 C14 1.346 . S
C15 H22 0.929 . S
C16 O6 1.282 1_655 S
C16 O17 1.216 . S
O17 C16 1.216 . S
H18 C13 0.930 . S
H19 C14 0.930 . S
O20 Cu0 1.959 . S
O20 C7 1.251 1_455 S
H21 C4 0.930 . S
H22 C15 0.929 . S
Cu23 N24 1.999 . S
Cu23 O29 1.974 . S
Cu23 N34 1.985 . S
Cu23 O43 1.959 . S
N24 Cu23 1.999 . S
N24 C26 1.263 . S
N24 C28 1.389 . S
N25 C26 1.358 . S
N25 C27 1.400 . S
C26 N24 1.263 . S
C26 N25 1.358 . S
C26 H32 0.930 1_565 S
C27 N25 1.400 . S
C27 C28 1.351 . S
C27 H44 0.930 . S
C28 N24 1.389 . S
C28 C27 1.351 . S
C28 H33 0.930 . S
O29 Cu23 1.974 . S
O29 C39 1.282 1_565 S
C30 O31 1.261 . S
C30 O43 1.251 1_545 S
O31 C30 1.261 . S
H32 C26 0.930 1_545 S
H33 C28 0.930 . S
N34 Cu23 1.985 . S
N34 C36 1.335 . S
N34 C37 1.390 1_565 S
N35 C36 1.345 . S
N35 C38 1.336 1_565 S
C36 N34 1.335 . S
C36 N35 1.345 . S
C36 H41 0.930 . S
C37 N34 1.390 1_545 S
C37 C38 1.346 . S
C37 H42 0.930 . S
C38 N35 1.336 1_545 S
C38 C37 1.346 . S
C38 H45 0.929 . S
C39 O29 1.282 1_545 S
C39 O40 1.216 . S
O40 C39 1.216 . S
H41 C36 0.930 . S
H42 C37 0.930 . S
O43 Cu23 1.959 . S
O43 C30 1.251 1_565 S
H44 C27 0.930 . S
H45 C38 0.929 . S
Cu46 N47 1.999 . S
Cu46 O52 1.973 . S
Cu46 N57 1.985 1_556 S
Cu46 O66 1.959 . S
N47 Cu46 1.999 . S
N47 C49 1.263 1_556 S
N47 C51 1.389 . S
N48 C49 1.358 1_556 S
N48 C50 1.400 . S
C49 N47 1.263 1_554 S
C49 N48 1.358 1_554 S
C49 H55 0.930 . S
C50 N48 1.400 . S
C50 C51 1.351 . S
C50 H67 0.930 . S
C51 N47 1.389 . S
C51 C50 1.351 . S
C51 H56 0.930 . S
O52 Cu46 1.973 . S
O52 C62 1.269 1_556 S
C53 O54 1.261 . S
C53 O66 1.251 1_554 S
O54 C53 1.261 . S
H55 C49 0.930 . S
H56 C51 0.930 . S
N57 Cu46 1.985 1_554 S
N57 C59 1.335 1_554 S
N57 C60 1.390 . S
N58 C59 1.345 1_554 S
N58 C61 1.336 . S
C59 N57 1.335 1_556 S
C59 N58 1.345 1_556 S
C59 H64 0.930 . S
C60 N57 1.390 . S
C60 C61 1.346 . S
C60 H65 0.930 . S
C61 N58 1.336 . S
C61 C60 1.346 . S
C61 H68 0.929 . S
C62 O52 1.269 1_554 S
C62 O63 1.216 . S
O63 C62 1.216 . S
H64 C59 0.930 . S
H65 C60 0.930 . S
O66 Cu46 1.959 . S
O66 C53 1.251 1_556 S
H67 C50 0.930 . S
H68 C61 0.929 . S
Zn69 O71 1.933 1_556 S
Zn69 O89 1.985 . S
Zn69 O100 1.955 . S
Zn70 O71 1.911 . S
Zn70 O90 1.970 . S
Zn70 O106 1.945 . S
Zn70 O113 1.981 . S
O71 Zn69 1.933 1_554 S
O71 Zn70 1.911 . S
O71 H72 0.841 . S
H72 O71 0.841 . S
C73 O74 1.246 . S
C73 O102 1.276 1_455 S
O74 C73 1.246 . S
Zn75 O77 1.911 . S
Zn75 O92 1.970 . S
Zn75 O109 1.945 . S
Zn75 O116 1.981 . S
Zn76 O77 1.933 1_556 S
Zn76 O91 1.985 . S
Zn76 O98 1.955 . S
O77 Zn75 1.911 . S
O77 Zn76 1.933 1_554 S
O77 H78 0.841 . S
H78 O77 0.841 . S
Zn79 O80 1.933 1_556 S
Zn79 O93 1.985 . S
Zn79 O102 1.955 . S
O80 Zn79 1.933 1_554 S
O80 Zn81 1.911 . S
O80 H82 0.841 . S
Zn81 O80 1.911 . S
Zn81 O94 1.970 . S
Zn81 O110 1.981 . S
Zn81 O112 1.945 . S
H82 O80 0.841 . S
Zn83 O84 1.933 1_556 S
Zn83 O96 1.985 . S
Zn83 O104 1.955 . S
O84 Zn83 1.933 1_554 S
O84 H85 0.841 . S
O84 Zn86 1.911 . S
H85 O84 0.841 . S
Zn86 O84 1.911 . S
Zn86 O97 1.970 . S
Zn86 O107 1.981 . S
Zn86 O115 1.945 . S
C87 O88 1.246 . S
C87 O104 1.276 1_655 S
O88 C87 1.246 . S
O89 Zn69 1.985 . S
O89 C99 1.245 1_556 S
O90 Zn70 1.970 . S
O90 C99 1.263 . S
O91 Zn76 1.985 . S
O91 C103 1.245 1_556 S
O92 Zn75 1.970 . S
O92 C103 1.263 . S
O93 Zn79 1.985 . S
O93 C108 1.245 1_556 S
O94 Zn81 1.970 . S
O94 C108 1.263 . S
C95 O106 1.280 . S
C95 O107 1.235 1_545 S
O96 Zn83 1.985 . S
O96 C114 1.245 1_556 S
O97 Zn86 1.970 . S
O97 C114 1.263 . S
O98 Zn76 1.955 . S
O98 C117 1.276 1_565 S
C99 O89 1.245 1_554 S
C99 O90 1.263 . S
O100 Zn69 1.955 . S
O100 C119 1.276 . S
C101 O109 1.262 . S
C101 O110 1.245 1_565 S
O102 C73 1.276 1_655 S
O102 Zn79 1.955 . S
C103 O91 1.245 1_554 S
C103 O92 1.263 . S
O104 Zn83 1.955 . S
O104 C87 1.276 1_455 S
C105 O112 1.262 1_455 S
C105 O113 1.245 . S
O106 Zn70 1.945 . S
O106 C95 1.280 . S
O107 Zn86 1.981 . S
O107 C95 1.235 1_565 S
C108 O93 1.245 1_554 S
C108 O94 1.263 . S
O109 Zn75 1.945 . S
O109 C101 1.262 . S
O110 Zn81 1.981 . S
O110 C101 1.245 1_545 S
C111 O115 1.262 1_655 S
C111 O116 1.245 . S
O112 Zn81 1.945 . S
O112 C105 1.262 1_655 S
O113 Zn70 1.981 . S
O113 C105 1.245 . S
C114 O96 1.245 1_554 S
C114 O97 1.263 . S
O115 Zn86 1.945 . S
O115 C111 1.262 1_455 S
O116 Zn75 1.981 . S
O116 C111 1.245 . S
C117 O98 1.276 1_545 S
C117 O118 1.246 . S
O118 C117 1.246 . S
C119 O100 1.276 . S
C119 O120 1.246 1_545 S
O120 C119 1.246 1_565 S
H121 C133 0.930 1_655 S
H122 C135 0.930 . S
H123 C136 0.930 . S
H124 C140 0.959 . S
H125 C140 0.959 . S
H126 C140 0.961 . S
H127 C141 0.960 . S
H128 C141 0.961 . S
H129 C141 0.959 . S
H130 C144 0.929 . S
H131 C145 0.931 . S
H132 C147 0.930 1_655 S
C133 H121 0.930 1_455 S
C133 C134 1.399 . S
C133 C138 1.399 . S
C134 C133 1.399 . S
C134 C135 1.376 . S
C135 H122 0.930 . S
C135 C134 1.376 . S
C135 C136 1.388 . S
C136 H123 0.930 . S
C136 C135 1.388 . S
C136 C137 1.390 . S
C137 C136 1.390 . S
C137 C138 1.394 . S
C137 C143 1.465 . S
C138 C133 1.399 . S
C138 C137 1.394 . S
C138 C139 1.520 . S
C139 C138 1.520 . S
C139 C140 1.486 1_455 S
C139 C141 1.572 . S
C139 C142 1.529 . S
C140 H124 0.959 . S
C140 H125 0.959 . S
C140 H126 0.961 . S
C140 C139 1.486 1_655 S
C141 H127 0.960 . S
C141 H128 0.961 . S
C141 H129 0.959 . S
C141 C139 1.572 . S
C142 C139 1.529 . S
C142 C143 1.396 . S
C142 C147 1.390 . S
C143 C137 1.465 . S
C143 C142 1.396 . S
C143 C144 1.399 . S
C144 H130 0.929 . S
C144 C143 1.399 . S
C144 C145 1.385 . S
C145 H131 0.931 . S
C145 C144 1.385 . S
C145 C146 1.389 . S
C146 C145 1.389 . S
C146 C147 1.387 . S
C147 H132 0.930 1_455 S
C147 C142 1.390 . S
C147 C146 1.387 . S
H148 C160 0.930 . S
H149 C162 0.930 . S
H150 C163 0.930 . S
H151 C167 0.959 . S
H152 C167 0.959 . S
H153 C167 0.961 . S
H154 C168 0.960 . S
H155 C168 0.961 . S
H156 C168 0.959 . S
H157 C171 0.929 . S
H158 C172 0.931 . S
H159 C174 0.930 . S
C160 H148 0.930 . S
C160 C161 1.399 . S
C160 C165 1.399 . S
C161 C160 1.399 . S
C161 C162 1.376 1_545 S
C162 H149 0.930 . S
C162 C161 1.376 1_565 S
C162 C163 1.388 . S
C163 H150 0.930 . S
C163 C162 1.388 . S
C163 C164 1.390 . S
C164 C163 1.390 . S
C164 C165 1.394 1_565 S
C164 C170 1.465 . S
C165 C160 1.399 . S
C165 C164 1.394 1_545 S
C165 C166 1.516 . S
C166 C165 1.516 . S
C166 C167 1.502 . S
C166 C168 1.561 . S
C166 C169 1.526 . S
C167 H151 0.959 . S
C167 H152 0.959 . S
C167 H153 0.961 . S
C167 C166 1.502 . S
C168 H154 0.960 . S
C168 H155 0.961 . S
C168 H156 0.959 . S
C168 C166 1.561 . S
C169 C166 1.526 . S
C169 C170 1.396 1_545 S
C169 C174 1.390 . S
C170 C164 1.465 . S
C170 C169 1.396 1_565 S
C170 C171 1.399 . S
C171 H157 0.929 . S
C171 C170 1.399 . S
C171 C172 1.385 . S
C172 H158 0.931 . S
C172 C171 1.385 . S
C172 C173 1.389 1_565 S
C173 C172 1.389 1_545 S
C173 C174 1.387 . S
C174 H159 0.930 . S
C174 C169 1.390 . S
C174 C173 1.387 . S
H175 C187 0.930 . S
H176 C189 0.930 . S
H177 C190 0.930 . S
H178 C194 0.959 . S
H179 C194 0.959 1_455 S
H180 C194 0.961 1_455 S
H181 C195 0.960 . S
H182 C195 0.961 . S
H183 C195 0.959 . S
H184 C198 0.929 . S
H185 C199 0.931 . S
H186 C201 0.936 . S
C187 H175 0.930 . S
C187 C188 1.399 1_455 S
C187 C192 1.400 . S
C188 C187 1.399 1_655 S
C188 C189 1.376 . S
C189 H176 0.930 . S
C189 C188 1.376 . S
C189 C190 1.388 . S
C190 H177 0.930 . S
C190 C189 1.388 . S
C190 C191 1.390 . S
C191 C190 1.390 . S
C191 C192 1.390 1_655 S
C191 C197 1.465 . S
C192 C187 1.400 . S
C192 C191 1.390 1_455 S
C192 C193 1.519 . S
C193 C192 1.519 . S
C193 C194 1.502 1_455 S
C193 C195 1.561 . S
C193 C196 1.526 1_455 S
C194 H178 0.959 . S
C194 H179 0.959 1_655 S
C194 H180 0.961 1_655 S
C194 C193 1.502 1_655 S
C195 H181 0.960 . S
C195 H182 0.961 . S
C195 H183 0.959 . S
C195 C193 1.561 . S
C196 C193 1.526 1_655 S
C196 C197 1.396 . S
C196 C201 1.390 1_655 S
C197 C191 1.465 . S
C197 C196 1.396 . S
C197 C198 1.399 . S
C198 H184 0.929 . S
C198 C197 1.399 . S
C198 C199 1.385 . S
C199 H185 0.931 . S
C199 C198 1.385 . S
C199 C200 1.389 . S
C200 C199 1.389 . S
C200 C201 1.380 1_655 S
C201 H186 0.936 . S
C201 C196 1.390 1_455 S
C201 C200 1.380 1_455 S
H202 C214 0.930 . S
H203 C216 0.930 . S
H204 C217 0.930 . S
H205 C221 0.959 . S
H206 C221 0.959 . S
H207 C221 0.961 . S
H208 C222 0.960 . S
H209 C222 0.961 . S
H210 C222 0.959 . S
H211 C225 0.929 . S
H212 C226 0.931 . S
H213 C228 0.930 . S
C214 H202 0.930 . S
C214 C215 1.399 1_545 S
C214 C219 1.399 . S
C215 C214 1.399 1_565 S
C215 C216 1.376 . S
C216 H203 0.930 . S
C216 C215 1.376 . S
C216 C217 1.388 . S
C217 H204 0.930 . S
C217 C216 1.388 . S
C217 C218 1.390 . S
C218 C217 1.390 . S
C218 C219 1.394 1_565 S
C218 C224 1.465 . S
C219 C214 1.399 . S
C219 C218 1.394 1_545 S
C219 C220 1.516 . S
C220 C219 1.516 . S
C220 C221 1.502 . S
C220 C222 1.561 . S
C220 C223 1.526 . S
C221 H205 0.959 . S
C221 H206 0.959 . S
C221 H207 0.961 . S
C221 C220 1.502 . S
C222 H208 0.960 . S
C222 H209 0.961 . S
C222 H210 0.959 . S
C222 C220 1.561 . S
C223 C220 1.526 . S
C223 C224 1.396 1_545 S
C223 C228 1.390 . S
C224 C218 1.465 . S
C224 C223 1.396 1_565 S
C224 C225 1.399 . S
C225 H211 0.929 . S
C225 C224 1.399 . S
C225 C226 1.385 . S
C226 H212 0.931 . S
C226 C225 1.385 . S
C226 C227 1.389 . S
C227 C226 1.389 . S
C227 C228 1.387 1_565 S
C228 H213 0.930 . S
C228 C223 1.390 . S
C228 C227 1.387 1_545 S
H229 C241 0.930 . S
H230 C243 0.930 . S
H231 C244 0.930 . S
H232 C248 0.959 . S
H233 C248 0.959 . S
H234 C248 0.961 . S
H235 C249 0.960 . S
H236 C249 0.961 . S
H237 C249 0.959 . S
H238 C252 0.929 . S
H239 C253 0.931 . S
H240 C255 0.930 . S
C241 H229 0.930 . S
C241 C242 1.399 1_655 S
C241 C246 1.399 . S
C242 C241 1.399 1_455 S
C242 C243 1.376 . S
C243 H230 0.930 . S
C243 C242 1.376 . S
C243 C244 1.388 . S
C244 H231 0.930 . S
C244 C243 1.388 . S
C244 C245 1.390 . S
C245 C244 1.390 . S
C245 C246 1.394 1_455 S
C245 C251 1.465 . S
C246 C241 1.399 . S
C246 C245 1.394 1_655 S
C246 C247 1.516 . S
C247 C246 1.516 . S
C247 C248 1.502 . S
C247 C249 1.561 . S
C247 C250 1.526 . S
C248 H232 0.959 . S
C248 H233 0.959 . S
C248 H234 0.961 . S
C248 C247 1.502 . S
C249 H235 0.960 . S
C249 H236 0.961 . S
C249 H237 0.959 . S
C249 C247 1.561 . S
C250 C247 1.526 . S
C250 C251 1.396 1_655 S
C250 C255 1.390 . S
C251 C245 1.465 . S
C251 C250 1.396 1_455 S
C251 C252 1.399 . S
C252 H238 0.929 . S
C252 C251 1.399 . S
C252 C253 1.385 . S
C253 H239 0.931 . S
C253 C252 1.385 . S
C253 C254 1.389 1_455 S
C254 C253 1.389 1_655 S
C254 C255 1.387 . S
C255 H240 0.930 . S
C255 C250 1.390 . S
C255 C254 1.387 . S
H256 C268 0.930 . S
H257 C270 0.930 . S
H258 C271 0.930 . S
H259 C275 0.959 . S
H260 C275 0.959 . S
H261 C275 0.961 . S
H262 C276 0.960 . S
H263 C276 0.961 . S
H264 C276 0.959 1_565 S
H265 C279 0.929 . S
H266 C280 0.931 . S
H267 C282 0.930 . S
C268 H256 0.930 . S
C268 C269 1.399 . S
C268 C273 1.399 . S
C269 C268 1.399 . S
C269 C270 1.376 1_545 S
C270 H257 0.930 . S
C270 C269 1.376 1_565 S
C270 C271 1.388 . S
C271 H258 0.930 . S
C271 C270 1.388 . S
C271 C272 1.390 . S
C272 C271 1.390 . S
C272 C273 1.394 1_565 S
C272 C278 1.465 . S
C273 C268 1.399 . S
C273 C272 1.394 1_545 S
C273 C274 1.516 . S
C274 C273 1.516 . S
C274 C275 1.502 . S
C274 C276 1.561 . S
C274 C277 1.526 . S
C275 H259 0.959 . S
C275 H260 0.959 . S
C275 H261 0.961 . S
C275 C274 1.502 . S
C276 H262 0.960 . S
C276 H263 0.961 . S
C276 H264 0.959 1_545 S
C276 C274 1.561 . S
C277 C274 1.526 . S
C277 C278 1.396 1_545 S
C277 C282 1.390 . S
C278 C272 1.465 . S
C278 C277 1.396 1_565 S
C278 C279 1.399 . S
C279 H265 0.929 . S
C279 C278 1.399 . S
C279 C280 1.385 . S
C280 H266 0.931 . S
C280 C279 1.385 . S
C280 C281 1.389 . S
C281 C280 1.389 . S
C281 C282 1.387 1_565 S
C282 H267 0.930 . S
C282 C277 1.390 . S
C282 C281 1.387 1_545 S
H283 C295 0.930 . S
H284 C297 0.930 . S
H285 C298 0.930 . S
H286 C302 0.959 . S
H287 C302 0.959 . S
H288 C302 0.961 . S
H289 C303 0.960 . S
H290 C303 0.961 . S
H291 C303 0.959 . S
H292 C306 0.929 . S
H293 C307 0.931 1_655 S
H294 C309 0.930 . S
C295 H283 0.930 . S
C295 C296 1.399 1_455 S
C295 C300 1.399 . S
C296 C295 1.399 1_655 S
C296 C297 1.376 . S
C297 H284 0.930 . S
C297 C296 1.376 . S
C297 C298 1.388 . S
C298 H285 0.930 . S
C298 C297 1.388 . S
C298 C299 1.390 . S
C299 C298 1.390 . S
C299 C300 1.394 1_655 S
C299 C305 1.465 . S
C300 C295 1.399 . S
C300 C299 1.394 1_455 S
C300 C301 1.516 . S
C301 C300 1.516 . S
C301 C302 1.502 . S
C301 C303 1.561 1_455 S
C301 C304 1.526 . S
C302 H286 0.959 . S
C302 H287 0.959 . S
C302 H288 0.961 . S
C302 C301 1.502 . S
C303 H289 0.960 . S
C303 H290 0.961 . S
C303 H291 0.959 . S
C303 C301 1.561 1_655 S
C304 C301 1.526 . S
C304 C305 1.396 1_455 S
C304 C309 1.390 . S
C305 C299 1.465 . S
C305 C304 1.396 1_655 S
C305 C306 1.399 . S
C306 H292 0.929 . S
C306 C305 1.399 . S
C306 C307 1.385 1_655 S
C307 H293 0.931 1_455 S
C307 C306 1.385 1_455 S
C307 C308 1.389 . S
C308 C307 1.389 . S
C308 C309 1.387 . S
C309 H294 0.930 . S
C309 C304 1.390 . S
C309 C308 1.387 . S
H310 C322 0.930 . S
H311 C324 0.930 . S
H312 C325 0.930 . S
H313 C329 0.959 . S
H314 C329 0.959 . S
H315 C329 0.961 . S
H316 C330 0.960 . S
H317 C330 0.961 . S
H318 C330 0.959 . S
H319 C333 0.929 . S
H320 C334 0.931 . S
H321 C336 0.930 . S
C322 H310 0.930 . S
C322 C323 1.399 . S
C322 C327 1.399 . S
C323 C322 1.399 . S
C323 C324 1.376 1_565 S
C324 H311 0.930 . S
C324 C323 1.376 1_545 S
C324 C325 1.388 . S
C325 H312 0.930 . S
C325 C324 1.388 . S
C325 C326 1.390 . S
C326 C325 1.390 . S
C326 C327 1.394 1_545 S
C326 C332 1.465 . S
C327 C322 1.399 . S
C327 C326 1.394 1_565 S
C327 C328 1.516 . S
C328 C327 1.516 . S
C328 C329 1.502 . S
C328 C330 1.561 . S
C328 C331 1.526 . S
C329 H313 0.959 . S
C329 H314 0.959 . S
C329 H315 0.961 . S
C329 C328 1.502 . S
C330 H316 0.960 . S
C330 H317 0.961 . S
C330 H318 0.959 . S
C330 C328 1.561 . S
C331 C328 1.526 . S
C331 C332 1.396 1_565 S
C331 C336 1.390 . S
C332 C326 1.465 . S
C332 C331 1.396 1_545 S
C332 C333 1.399 . S
C333 H319 0.929 . S
C333 C332 1.399 . S
C333 C334 1.385 . S
C334 H320 0.931 . S
C334 C333 1.385 . S
C334 C335 1.389 . S
C335 C334 1.389 . S
C335 C336 1.387 1_545 S
C336 H321 0.930 . S
C336 C331 1.390 . S
C336 C335 1.387 1_565 S
H337 C349 0.930 . S
H338 C351 0.930 . S
H339 C352 0.930 . S
H340 C356 0.959 . S
H341 C356 0.959 . S
H342 C356 0.961 . S
H343 C357 0.960 . S
H344 C357 0.961 . S
H345 C357 0.959 . S
H346 C360 0.929 . S
H347 C361 0.931 . S
H348 C363 0.930 . S
C349 H337 0.930 . S
C349 C350 1.399 1_556 S
C349 C354 1.399 1_556 S
C350 C349 1.399 1_554 S
C350 C351 1.376 . S
C351 H338 0.930 . S
C351 C350 1.376 . S
C351 C352 1.388 . S
C352 H339 0.930 . S
C352 C351 1.388 . S
C352 C353 1.390 . S
C353 C352 1.390 . S
C353 C354 1.409 . S
C353 C359 1.465 . S
C354 C349 1.399 1_554 S
C354 C353 1.409 . S
C354 C355 1.503 1_554 S
C355 C354 1.503 1_556 S
C355 C356 1.502 . S
C355 C357 1.561 . S
C355 C358 1.526 . S
C356 H340 0.959 . S
C356 H341 0.959 . S
C356 H342 0.961 . S
C356 C355 1.502 . S
C357 H343 0.960 . S
C357 H344 0.961 . S
C357 H345 0.959 . S
C357 C355 1.561 . S
C358 C355 1.526 . S
C358 C359 1.396 1_556 S
C358 C363 1.390 . S
C359 C353 1.465 . S
C359 C358 1.396 1_554 S
C359 C360 1.399 . S
C360 H346 0.929 . S
C360 C359 1.399 . S
C360 C361 1.385 . S
C361 H347 0.931 . S
C361 C360 1.385 . S
C361 C362 1.389 . S
C362 C361 1.389 . S
C362 C363 1.387 1_554 S
C363 H348 0.930 . S
C363 C358 1.390 . S
C363 C362 1.387 1_556 S
H364 C376 0.930 . S
H365 C378 0.930 . S
H366 C379 0.930 . S
H367 C383 0.959 . S
H368 C383 0.959 . S
H369 C383 0.961 . S
H370 C384 0.960 . S
H371 C384 0.961 . S
H372 C384 0.959 . S
H373 C387 0.929 . S
H374 C388 0.931 . S
H375 C390 0.930 . S
C376 H364 0.930 . S
C376 C377 1.399 1_556 S
C376 C381 1.399 . S
C377 C376 1.399 1_554 S
C377 C378 1.376 . S
C378 H365 0.930 . S
C378 C377 1.376 . S
C378 C379 1.388 . S
C379 H366 0.930 . S
C379 C378 1.388 . S
C379 C380 1.390 . S
C380 C379 1.390 . S
C380 C381 1.394 1_554 S
C380 C386 1.465 . S
C381 C376 1.399 . S
C381 C380 1.394 1_556 S
C381 C382 1.516 . S
C382 C381 1.516 . S
C382 C383 1.502 . S
C382 C384 1.561 . S
C382 C385 1.526 . S
C383 H367 0.959 . S
C383 H368 0.959 . S
C383 H369 0.961 . S
C383 C382 1.502 . S
C384 H370 0.960 . S
C384 H371 0.961 . S
C384 H372 0.959 . S
C384 C382 1.561 . S
C385 C382 1.526 . S
C385 C386 1.396 1_556 S
C385 C390 1.390 . S
C386 C380 1.465 . S
C386 C385 1.396 1_554 S
C386 C387 1.399 . S
C387 H373 0.929 . S
C387 C386 1.399 . S
C387 C388 1.385 . S
C388 H374 0.931 . S
C388 C387 1.385 . S
C388 C389 1.389 . S
C389 C388 1.389 . S
C389 C390 1.387 1_554 S
C390 H375 0.930 . S
C390 C385 1.390 . S
C390 C389 1.387 1_556 S
H391 C403 0.930 . S
H392 C405 0.930 . S
H393 C406 0.930 . S
H394 C410 0.959 . S
H395 C410 0.959 . S
H396 C410 0.961 . S
H397 C411 0.960 . S
H398 C411 0.961 . S
H399 C411 0.959 . S
H400 C414 0.929 . S
H401 C415 0.931 . S
H402 C417 0.930 . S
C403 H391 0.930 . S
C403 C404 1.399 1_556 S
C403 C408 1.399 . S
C404 C403 1.399 1_554 S
C404 C405 1.376 . S
C405 H392 0.930 . S
C405 C404 1.376 . S
C405 C406 1.388 . S
C406 H393 0.930 . S
C406 C405 1.388 . S
C406 C407 1.390 . S
C407 C406 1.390 . S
C407 C408 1.394 1_554 S
C407 C413 1.465 . S
C408 C403 1.399 . S
C408 C407 1.394 1_556 S
C408 C409 1.516 . S
C409 C408 1.516 . S
C409 C410 1.502 . S
C409 C411 1.561 . S
C409 C412 1.526 . S
C410 H394 0.959 . S
C410 H395 0.959 . S
C410 H396 0.961 . S
C410 C409 1.502 . S
C411 H397 0.960 . S
C411 H398 0.961 . S
C411 H399 0.959 . S
C411 C409 1.561 . S
C412 C409 1.526 . S
C412 C413 1.396 1_556 S
C412 C417 1.390 . S
C413 C407 1.465 . S
C413 C412 1.396 1_554 S
C413 C414 1.399 . S
C414 H400 0.929 . S
C414 C413 1.399 . S
C414 C415 1.385 . S
C415 H401 0.931 . S
C415 C414 1.385 . S
C415 C416 1.389 . S
C416 C415 1.389 . S
C416 C417 1.387 1_554 S
C417 H402 0.930 . S
C417 C412 1.390 . S
C417 C416 1.387 1_556 S
H418 C430 0.930 . S
H419 C432 0.930 . S
H420 C433 0.930 . S
H421 C437 0.959 . S
H422 C437 0.959 . S
H423 C437 0.961 . S
H424 C438 0.960 . S
H425 C438 0.961 . S
H426 C438 0.959 . S
H427 C441 0.929 . S
H428 C442 0.931 . S
H429 C444 0.930 . S
C430 H418 0.930 . S
C430 C431 1.399 . S
C430 C435 1.399 . S
C431 C430 1.399 . S
C431 C432 1.376 1_554 S
C432 H419 0.930 . S
C432 C431 1.376 1_556 S
C432 C433 1.388 . S
C433 H420 0.930 . S
C433 C432 1.388 . S
C433 C434 1.390 1_556 S
C434 C433 1.390 1_554 S
C434 C435 1.394 . S
C434 C440 1.465 . S
C435 C430 1.399 . S
C435 C434 1.394 . S
C435 C436 1.516 . S
C436 C435 1.516 . S
C436 C437 1.502 . S
C436 C438 1.561 . S
C436 C439 1.526 . S
C437 H421 0.959 . S
C437 H422 0.959 . S
C437 H423 0.961 . S
C437 C436 1.502 . S
C438 H424 0.960 . S
C438 H425 0.961 . S
C438 H426 0.959 . S
C438 C436 1.561 . S
C439 C436 1.526 . S
C439 C440 1.396 . S
C439 C444 1.390 . S
C440 C434 1.465 . S
C440 C439 1.396 . S
C440 C441 1.399 1_554 S
C441 H427 0.929 . S
C441 C440 1.399 1_556 S
C441 C442 1.385 . S
C442 H428 0.931 . S
C442 C441 1.385 . S
C442 C443 1.389 1_556 S
C443 C442 1.389 1_554 S
C443 C444 1.387 . S
C444 H429 0.930 . S
C444 C439 1.390 . S
C444 C443 1.387 . S
C146 C105 1.385 . S
C134 N2 1.357 . S
C173 C101 1.710 1_545 S
C161 C39 1.794 . S
C200 C111 1.544 . S
C188 C7 1.624 . S
C227 C95 1.511 1_565 S
C215 N35 1.498 . S
C242 N12 1.440 . S
C254 C87 1.372 . S
C281 C119 1.841 1_565 S
C269 C30 1.940 . S
C296 C16 1.756 . S
C308 C73 1.641 . S
C323 N25 1.708 . S
C335 C117 1.648 . S
C350 C62 1.296 . S
C362 C99 1.259 . S
C377 N48 1.128 1_554 S
C389 C114 1.063 . S
C416 C108 1.049 . S
C404 N58 1.075 . S
C443 C103 1.324 . S
C431 C53 1.349 . S
