# Generated by pormake.
# Topology pyr, (3,6)-cn, num edge types: 1
# Building blocks:
#     Node 0, Type 0, BuildingBlock: WUSLED_clean_sbu_0, # of connection points: 3
#     Node 1, Type 0, BuildingBlock: WUSLED_clean_sbu_0, # of connection points: 3
#     Node 2, Type 0, BuildingBlock: WUSLED_clean_sbu_0, # of connection points: 3
#     Node 3, Type 0, BuildingBlock: WUSLED_clean_sbu_0, # of connection points: 3
#     Node 4, Type 0, BuildingBlock: WUSLED_clean_sbu_0, # of connection points: 3
#     Node 5, Type 0, BuildingBlock: WUSLED_clean_sbu_0, # of connection points: 3
#     Node 6, Type 0, BuildingBlock: WUSLED_clean_sbu_0, # of connection points: 3
#     Node 7, Type 0, BuildingBlock: WUSLED_clean_sbu_0, # of connection points: 3
#     Node 8, Type 1, BuildingBlock: PAMTUU_clean_sbu_0, # of connection points: 6
#     Node 9, Type 1, BuildingBlock: PAMTUU_clean_sbu_0, # of connection points: 6
#     Node 10, Type 1, BuildingBlock: PAMTUU_clean_sbu_0, # of connection points: 6
#     Node 11, Type 1, BuildingBlock: PAMTUU_clean_sbu_0, # of connection points: 6
#     Edge 12, Type (0, 1), BuildingBlock: AJUNOK_clean_linker_0, # of connection points: 2
#     Edge 13, Type (0, 1), BuildingBlock: AJUNOK_clean_linker_0, # of connection points: 2
#     Edge 14, Type (0, 1), BuildingBlock: AJUNOK_clean_linker_0, # of connection points: 2
#     Edge 15, Type (0, 1), BuildingBlock: AJUNOK_clean_linker_0, # of connection points: 2
#     Edge 16, Type (0, 1), BuildingBlock: AJUNOK_clean_linker_0, # of connection points: 2
#     Edge 17, Type (0, 1), BuildingBlock: AJUNOK_clean_linker_0, # of connection points: 2
#     Edge 18, Type (0, 1), BuildingBlock: AJUNOK_clean_linker_0, # of connection points: 2
#     Edge 19, Type (0, 1), BuildingBlock: AJUNOK_clean_linker_0, # of connection points: 2
#     Edge 20, Type (0, 1), BuildingBlock: AJUNOK_clean_linker_0, # of connection points: 2
#     Edge 21, Type (0, 1), BuildingBlock: AJUNOK_clean_linker_0, # of connection points: 2
#     Edge 22, Type (0, 1), BuildingBlock: AJUNOK_clean_linker_0, # of connection points: 2
#     Edge 23, Type (0, 1), BuildingBlock: AJUNOK_clean_linker_0, # of connection points: 2
#     Edge 24, Type (0, 1), BuildingBlock: AJUNOK_clean_linker_0, # of connection points: 2
#     Edge 25, Type (0, 1), BuildingBlock: AJUNOK_clean_linker_0, # of connection points: 2
#     Edge 26, Type (0, 1), BuildingBlock: AJUNOK_clean_linker_0, # of connection points: 2
#     Edge 27, Type (0, 1), BuildingBlock: AJUNOK_clean_linker_0, # of connection points: 2
#     Edge 28, Type (0, 1), BuildingBlock: AJUNOK_clean_linker_0, # of connection points: 2
#     Edge 29, Type (0, 1), BuildingBlock: AJUNOK_clean_linker_0, # of connection points: 2
#     Edge 30, Type (0, 1), BuildingBlock: AJUNOK_clean_linker_0, # of connection points: 2
#     Edge 31, Type (0, 1), BuildingBlock: AJUNOK_clean_linker_0, # of connection points: 2
#     Edge 32, Type (0, 1), BuildingBlock: AJUNOK_clean_linker_0, # of connection points: 2
#     Edge 33, Type (0, 1), BuildingBlock: AJUNOK_clean_linker_0, # of connection points: 2
#     Edge 34, Type (0, 1), BuildingBlock: AJUNOK_clean_linker_0, # of connection points: 2
#     Edge 35, Type (0, 1), BuildingBlock: AJUNOK_clean_linker_0, # of connection points: 2
# Relax obj value: 0.105
# Max RMSD: 0.135
# Mean RMSD: 0.053
data_MOF--net-pyr--node1-WUSLED_clean_sbu_0--node2-PAMTUU_clean_sbu_0--edge1-AJUNOK_clean_linker_0
_symmetry_space_group_name_H-M    P1
_symmetry_Int_Tables_number       1
_symmetry_cell_setting            triclinic
loop_
_symmetry_equiv_pos_as_xyz
'x, y, z'
_cell_length_a     39.536227
_cell_length_b     40.889344
_cell_length_c     39.529367
_cell_angle_alpha  90.126379
_cell_angle_beta   89.654792
_cell_angle_gamma 101.19002
loop_
_atom_site_label
_atom_site_type_symbol
_atom_site_fract_x
_atom_site_fract_y
_atom_site_fract_z
_atom_type_partial_charge
C0 C 0.29521 0.32295 0.15282 0.0
C1 C 0.26824 0.31987 0.17676 0.0
C2 C 0.24376 0.36025 0.14509 0.0
C3 C 0.24247 0.3387 0.17289 0.0
C4 C 0.27114 0.36348 0.12199 0.0
C5 C 0.29662 0.34494 0.12586 0.0
U6 U 0.33377 0.25556 0.19289 0.0
O7 O 0.35329 0.21404 0.17105 0.0
O8 O 0.3873 0.25181 0.20282 0.0
C9 C 0.3833 0.22369 0.18584 0.0
C10 C 0.32179 0.30291 0.15407 0.0
C11 C 0.41248 0.2154 0.16908 0.0
C12 C 0.44278 0.2075 0.11784 0.0
C13 C 0.42137 0.22476 0.13568 0.0
C14 C 0.44688 0.17359 0.16766 0.0
C15 C 0.45386 0.1807 0.13347 0.0
C16 C 0.42654 0.1912 0.18545 0.0
C17 C 0.27563 0.21952 0.26928 0.0
C18 C 0.27577 0.18549 0.31857 0.0
C19 C 0.22403 0.20518 0.30163 0.0
C20 C 0.24135 0.22121 0.27466 0.0
C21 C 0.24129 0.18825 0.32435 0.0
C22 C 0.29322 0.20126 0.29056 0.0
C23 C 0.29064 0.23883 0.24131 0.0
O24 O 0.34267 0.30851 0.18009 0.0
O25 O 0.31122 0.27121 0.14678 0.0
O26 O 0.31942 0.26057 0.24578 0.0
O27 O 0.28597 0.22499 0.21127 0.0
H28 H 0.26688 0.30268 0.19777 0.0
H29 H 0.22119 0.33575 0.19076 0.0
H30 H 0.27251 0.38007 0.10049 0.0
H31 H 0.31726 0.34739 0.10734 0.0
H32 H 0.44827 0.21311 0.09137 0.0
H33 H 0.40994 0.24336 0.12297 0.0
H34 H 0.45453 0.1525 0.17994 0.0
H35 H 0.41912 0.18364 0.21116 0.0
H36 H 0.28897 0.17151 0.33562 0.0
H37 H 0.19686 0.20572 0.3043 0.0
H38 H 0.22773 0.23501 0.25777 0.0
H39 H 0.3199 0.19972 0.28589 0.0
C40 C 0.11778 0.83943 0.6858 0.0
C41 C 0.12011 0.86836 0.70561 0.0
C42 C 0.09095 0.89293 0.66132 0.0
C43 C 0.10626 0.89506 0.69346 0.0
C44 C 0.08742 0.86323 0.64278 0.0
C45 C 0.10038 0.83664 0.65516 0.0
U46 U 0.18242 0.79782 0.73388 0.0
O47 O 0.18874 0.74554 0.7331 0.0
O48 O 0.22846 0.78537 0.7093 0.0
C49 C 0.21766 0.75353 0.71579 0.0
C50 C 0.13885 0.8147 0.69161 0.0
C51 C 0.23748 0.72861 0.70565 0.0
C52 C 0.26628 0.70358 0.66119 0.0
C53 C 0.24256 0.72291 0.6713 0.0
C54 C 0.27812 0.69368 0.71995 0.0
C55 C 0.28533 0.68979 0.6854 0.0
C56 C 0.25457 0.71324 0.73001 0.0
C57 C 0.21568 0.83516 0.81911 0.0
C58 C 0.26788 0.82821 0.84694 0.0
C59 C 0.2376 0.87191 0.86447 0.0
C60 C 0.21257 0.86134 0.84066 0.0
C61 C 0.2655 0.85563 0.86757 0.0
C62 C 0.24293 0.81801 0.82242 0.0
C63 C 0.19333 0.83075 0.79026 0.0
O64 O 0.17213 0.82646 0.69029 0.0
O65 O 0.1292 0.79232 0.71537 0.0
O66 O 0.1713 0.8023 0.78801 0.0
O67 O 0.2087 0.84132 0.76169 0.0
H68 H 0.13396 0.87086 0.72933 0.0
H69 H 0.10847 0.91753 0.70851 0.0
H70 H 0.07598 0.86101 0.61785 0.0
H71 H 0.09894 0.81462 0.6395 0.0
H72 H 0.27106 0.70104 0.6344 0.0
H73 H 0.22935 0.73466 0.65226 0.0
H74 H 0.29138 0.68237 0.73925 0.0
H75 H 0.25075 0.71745 0.75673 0.0
H76 H 0.28961 0.81576 0.8489 0.0
H77 H 0.23605 0.89399 0.87912 0.0
H78 H 0.19192 0.87508 0.8376 0.0
H79 H 0.24568 0.79803 0.80519 0.0
C80 C 0.6314 0.42935 0.79058 0.0
C81 C 0.63986 0.46387 0.78366 0.0
C82 C 0.60501 0.45825 0.73108 0.0
C83 C 0.62714 0.47796 0.75455 0.0
C84 C 0.5957 0.42379 0.73902 0.0
C85 C 0.60897 0.40968 0.76768 0.0
U86 U 0.67034 0.38493 0.87354 0.0
O87 O 0.63099 0.35477 0.90757 0.0
O88 O 0.66127 0.32954 0.87302 0.0
C89 C 0.63642 0.32613 0.89574 0.0
C90 C 0.64606 0.41399 0.82102 0.0
C91 C 0.62581 0.2939 0.91532 0.0
C92 C 0.5818 0.24338 0.92596 0.0
C93 C 0.59302 0.27428 0.90957 0.0
C94 C 0.63643 0.24982 0.954 0.0
C95 C 0.60312 0.22984 0.9486 0.0
C96 C 0.64732 0.2813 0.93809 0.0
C97 C 0.7612 0.42891 0.9208 0.0
C98 C 0.79884 0.43122 0.97041 0.0
C99 C 0.81778 0.46635 0.92238 0.0
C100 C 0.7867 0.45331 0.90564 0.0
C101 C 0.82487 0.45513 0.95484 0.0
C102 C 0.7675 0.4183 0.95364 0.0
C103 C 0.72881 0.41485 0.9017 0.0
O104 O 0.66629 0.39215 0.81791 0.0
O105 O 0.63841 0.41983 0.85261 0.0
O106 O 0.69832 0.41881 0.91243 0.0
O107 O 0.72788 0.39401 0.8762 0.0
H108 H 0.65698 0.48009 0.80054 0.0
H109 H 0.63531 0.50443 0.75018 0.0
H110 H 0.57759 0.40731 0.72335 0.0
H111 H 0.60126 0.38314 0.77211 0.0
H112 H 0.55586 0.23047 0.92072 0.0
H113 H 0.57568 0.28293 0.8921 0.0
H114 H 0.65523 0.24113 0.96943 0.0
H115 H 0.67296 0.29538 0.94301 0.0
H116 H 0.80299 0.4219 0.99535 0.0
H117 H 0.83631 0.48545 0.90976 0.0
H118 H 0.78259 0.46241 0.88058 0.0
H119 H 0.7484 0.39962 0.96617 0.0
C120 C 0.78925 0.65017 0.41828 0.0
C121 C 0.78238 0.6644 0.44949 0.0
C122 C 0.72516 0.62693 0.45427 0.0
C123 C 0.75083 0.65304 0.46712 0.0
C124 C 0.73336 0.61191 0.42382 0.0
C125 C 0.76431 0.62365 0.40604 0.0
U126 U 0.88031 0.69226 0.36943 0.0
O127 O 0.9139 0.65945 0.3472 0.0
O128 O 0.88374 0.68544 0.31351 0.0
C129 C 0.90588 0.6654 0.31586 0.0
C130 C 0.82156 0.66171 0.39756 0.0
C131 C 0.91984 0.64945 0.28522 0.0
C132 C 0.9144 0.60542 0.24145 0.0
C133 C 0.90156 0.61994 0.27039 0.0
C134 C 0.96385 0.64997 0.24037 0.0
C135 C 0.94606 0.61988 0.22548 0.0
C136 C 0.95129 0.66409 0.26966 0.0
C137 C 0.92447 0.78269 0.41088 0.0
C138 C 0.96156 0.83821 0.41384 0.0
C139 C 0.92094 0.82 0.45892 0.0
C140 C 0.90975 0.78922 0.44207 0.0
C141 C 0.94698 0.84508 0.44496 0.0
C142 C 0.95058 0.80755 0.39723 0.0
C143 C 0.91395 0.75081 0.3914 0.0
O144 O 0.82293 0.68333 0.3728 0.0
O145 O 0.85201 0.65754 0.40789 0.0
O146 O 0.91877 0.72221 0.40369 0.0
O147 O 0.88951 0.74764 0.36858 0.0
H148 H 0.80112 0.68466 0.46001 0.0
H149 H 0.74632 0.66534 0.49051 0.0
H150 H 0.71612 0.59048 0.41355 0.0
H151 H 0.76888 0.61159 0.38248 0.0
H152 H 0.8993 0.58241 0.23187 0.0
H153 H 0.87716 0.60785 0.28131 0.0
H154 H 0.98723 0.66368 0.22903 0.0
H155 H 0.96606 0.68706 0.2798 0.0
H156 H 0.98181 0.85654 0.40236 0.0
H157 H 0.90881 0.82438 0.48269 0.0
H158 H 0.88957 0.77068 0.45334 0.0
H159 H 0.96263 0.80327 0.37337 0.0
C160 C 0.74513 0.73739 0.91956 0.0
C161 C 0.76734 0.73411 0.89229 0.0
C162 C 0.80039 0.70475 0.92902 0.0
C163 C 0.79487 0.71761 0.89701 0.0
C164 C 0.77852 0.70907 0.95603 0.0
C165 C 0.75093 0.72482 0.95119 0.0
U166 U 0.70932 0.8026 0.87439 0.0
O167 O 0.65687 0.81099 0.86514 0.0
O168 O 0.69554 0.84885 0.89167 0.0
C169 C 0.66438 0.84077 0.87896 0.0
C170 C 0.71834 0.75725 0.91719 0.0
C171 C 0.63789 0.85307 0.89717 0.0
C172 C 0.61001 0.86239 0.94964 0.0
C173 C 0.62783 0.84281 0.93014 0.0
C174 C 0.61077 0.90041 0.90224 0.0
C175 C 0.60327 0.89198 0.93596 0.0
C176 C 0.62803 0.88088 0.88287 0.0
C177 C 0.76039 0.83415 0.79524 0.0
C178 C 0.77254 0.88922 0.77102 0.0
C179 C 0.79702 0.84418 0.74664 0.0
C180 C 0.77987 0.82244 0.77026 0.0
C181 C 0.79481 0.87779 0.7481 0.0
C182 C 0.75508 0.86714 0.7949 0.0
C183 C 0.75175 0.81259 0.82386 0.0
O184 O 0.72962 0.78921 0.92258 0.0
O185 O 0.69711 0.75065 0.89147 0.0
O186 O 0.72217 0.79154 0.82228 0.0
O187 O 0.75897 0.8267 0.85351 0.0
H188 H 0.76369 0.74465 0.86777 0.0
H189 H 0.81179 0.71504 0.87591 0.0
H190 H 0.78314 0.70092 0.98132 0.0
H191 H 0.73466 0.72814 0.97257 0.0
H192 H 0.60414 0.85608 0.97592 0.0
H193 H 0.63587 0.82144 0.94135 0.0
H194 H 0.60561 0.92342 0.89174 0.0
H195 H 0.63619 0.88908 0.85752 0.0
H196 H 0.77078 0.91533 0.77208 0.0
H197 H 0.8139 0.83522 0.72862 0.0
H198 H 0.78392 0.79697 0.77052 0.0
H199 H 0.73978 0.87621 0.81434 0.0
C200 C 0.82058 0.25555 0.25883 0.0
C201 C 0.82871 0.22386 0.2545 0.0
C202 C 0.7862 0.21338 0.21045 0.0
C203 C 0.81132 0.20258 0.22997 0.0
C204 C 0.78059 0.2459 0.2129 0.0
C205 C 0.7979 0.267 0.23703 0.0
U206 U 0.86151 0.27743 0.34616 0.0
O207 O 0.87319 0.32819 0.36745 0.0
O208 O 0.83345 0.28968 0.39086 0.0
C209 C 0.84798 0.32141 0.38978 0.0
C210 C 0.82818 0.27438 0.28956 0.0
C211 C 0.82382 0.34477 0.39225 0.0
C212 C 0.7732 0.36582 0.37356 0.0
C213 C 0.79928 0.34742 0.36715 0.0
C214 C 0.79699 0.37999 0.42912 0.0
C215 C 0.77136 0.38141 0.40513 0.0
C216 C 0.8229 0.36198 0.4227 0.0
C217 C 0.92401 0.22021 0.37891 0.0
C218 C 0.93979 0.20468 0.43487 0.0
C219 C 0.95775 0.17731 0.38532 0.0
C220 C 0.94163 0.19699 0.36473 0.0
C221 C 0.9559 0.17994 0.42064 0.0
C222 C 0.92404 0.2249 0.41401 0.0
C223 C 0.90193 0.23483 0.35635 0.0
O224 O 0.81523 0.25878 0.3171 0.0
O225 O 0.8594 0.29218 0.29292 0.0
O226 O 0.91343 0.265 0.34452 0.0
O227 O 0.86878 0.22848 0.36342 0.0
H228 H 0.84601 0.21477 0.2717 0.0
H229 H 0.81524 0.17712 0.22821 0.0
H230 H 0.76069 0.254 0.19815 0.0
H231 H 0.7912 0.29126 0.24067 0.0
H232 H 0.75347 0.3663 0.35477 0.0
H233 H 0.79936 0.33412 0.34343 0.0
H234 H 0.79598 0.39157 0.45368 0.0
H235 H 0.84137 0.36013 0.44239 0.0
H236 H 0.93729 0.20704 0.46199 0.0
H237 H 0.97057 0.15908 0.37349 0.0
H238 H 0.94165 0.19298 0.33762 0.0
H239 H 0.91022 0.24265 0.42527 0.0
C240 C 0.28751 0.64351 0.16884 0.0
C241 C 0.27783 0.66193 0.14164 0.0
C242 C 0.22439 0.61998 0.13227 0.0
C243 C 0.24674 0.65033 0.12363 0.0
C244 C 0.23535 0.60128 0.15863 0.0
C245 C 0.26584 0.61301 0.17671 0.0
U246 U 0.37752 0.68719 0.21696 0.0
O247 O 0.38198 0.68057 0.27278 0.0
O248 O 0.41266 0.65559 0.23833 0.0
C249 C 0.40486 0.66128 0.26991 0.0
C250 C 0.31933 0.65445 0.19003 0.0
C251 C 0.41866 0.6448 0.3003 0.0
C252 C 0.41323 0.60061 0.34403 0.0
C253 C 0.40012 0.61543 0.31554 0.0
C254 C 0.46384 0.64395 0.34342 0.0
C255 C 0.44538 0.61459 0.35872 0.0
C256 C 0.45086 0.65861 0.31483 0.0
C257 C 0.42094 0.77803 0.1738 0.0
C258 C 0.46216 0.83119 0.16994 0.0
C259 C 0.41831 0.81764 0.12749 0.0
C260 C 0.40589 0.78661 0.1437 0.0
C261 C 0.44655 0.84101 0.1405 0.0
C262 C 0.44921 0.80083 0.18647 0.0
C263 C 0.40882 0.74577 0.19261 0.0
O264 O 0.35003 0.65098 0.17944 0.0
O265 O 0.32022 0.67661 0.21431 0.0
O266 O 0.38503 0.74268 0.2164 0.0
O267 O 0.41476 0.71719 0.18119 0.0
H268 H 0.29401 0.68544 0.13456 0.0
H269 H 0.23988 0.66557 0.10342 0.0
H270 H 0.22059 0.57703 0.16532 0.0
H271 H 0.27262 0.59787 0.1971 0.0
H272 H 0.39798 0.57815 0.35478 0.0
H273 H 0.3753 0.60381 0.30541 0.0
H274 H 0.48856 0.65574 0.35364 0.0
H275 H 0.46611 0.68112 0.30416 0.0
H276 H 0.4852 0.84639 0.18021 0.0
H277 H 0.40522 0.82341 0.10497 0.0
H278 H 0.38426 0.76957 0.13289 0.0
H279 H 0.46192 0.79486 0.2092 0.0
C280 C 0.12728 0.29138 0.67001 0.0
C281 C 0.14441 0.28314 0.64088 0.0
C282 C 0.1035 0.22908 0.63479 0.0
C283 C 0.1331 0.25238 0.62392 0.0
C284 C 0.08651 0.23813 0.66395 0.0
C285 C 0.09838 0.26828 0.68127 0.0
U286 U 0.17228 0.38133 0.71272 0.0
O287 O 0.1394 0.41501 0.73448 0.0
O288 O 0.16755 0.3876 0.7687 0.0
C289 C 0.14632 0.4085 0.76598 0.0
C290 C 0.13823 0.32316 0.68981 0.0
C291 C 0.13234 0.42504 0.7963 0.0
C292 C 0.09153 0.42309 0.84434 0.0
C293 C 0.10401 0.40823 0.81546 0.0
C294 C 0.13465 0.47259 0.83575 0.0
C295 C 0.10662 0.45561 0.85531 0.0
C296 C 0.14734 0.45757 0.80701 0.0
C297 C 0.26432 0.42285 0.66505 0.0
C298 C 0.3206 0.46073 0.65947 0.0
C299 C 0.30293 0.41926 0.61651 0.0
C300 C 0.27143 0.40799 0.63426 0.0
C301 C 0.32834 0.44591 0.6288 0.0
C302 C 0.28942 0.44941 0.67714 0.0
C303 C 0.2317 0.41174 0.68555 0.0
O304 O 0.16245 0.32587 0.71284 0.0
O305 O 0.13382 0.35203 0.67788 0.0
O306 O 0.20147 0.41612 0.67479 0.0
O307 O 0.2297 0.3898 0.7101 0.0
H308 H 0.16698 0.30016 0.63156 0.0
H309 H 0.14862 0.24684 0.60294 0.0
H310 H 0.06344 0.2222 0.67359 0.0
H311 H 0.08448 0.27373 0.70364 0.0
H312 H 0.06985 0.40899 0.85822 0.0
H313 H 0.0915 0.38326 0.80823 0.0
H314 H 0.14736 0.49743 0.84312 0.0
H315 H 0.16923 0.47144 0.79324 0.0
H316 H 0.33869 0.48149 0.66998 0.0
H317 H 0.30762 0.40641 0.59352 0.0
H318 H 0.25286 0.3874 0.62408 0.0
H319 H 0.2849 0.46163 0.70061 0.0
Tb320 Tb 0.05647 0.03712 0.52145 0.0
Tb321 Tb 0.9912 0.03474 0.56345 0.0
C322 C 0.99496 0.97556 0.51187 0.0
C323 C 0.12317 0.06327 0.46275 0.0
C324 C 0.14866 0.11112 0.41558 0.0
C325 C 0.13469 0.07874 0.40489 0.0
C326 C 0.12281 0.05462 0.42858 0.0
C327 C 0.13321 0.09661 0.473 0.0
C328 C 0.14655 0.12049 0.44942 0.0
C329 C 0.10856 0.03799 0.4866 0.0
O330 O 0.02577 0.06338 0.4895 0.0
O331 O 0.98647 0.07315 0.52895 0.0
O332 O 0.03056 0.07381 0.58646 0.0
O333 O 0.06317 0.08858 0.53992 0.0
O334 O 0.93807 1.02978 0.57008 0.0
O335 O 0.97438 0.04456 0.61128 0.0
O336 O 1.01288 0.99409 0.58182 0.0
O337 O 0.06772 1.01926 0.57063 0.0
O338 O 0.02822 0.98685 0.51059 0.0
O339 O 0.97466 0.99232 0.52833 0.0
C340 C 1.00096 0.07828 0.49954 0.0
O341 O 0.11019 0.04689 0.51836 0.0
O342 O 0.07818 1.02193 0.47772 0.0
C343 C 0.05285 0.09621 0.57002 0.0
C344 C 0.9246 1.00966 0.62413 0.0
C345 C 0.89329 0.96198 0.66839 0.0
C346 C 0.89935 0.99533 0.67828 0.0
C347 C 0.9149 1.01932 0.65592 0.0
C348 C 0.92135 0.97595 0.61529 0.0
C349 C 0.9051 0.95186 0.63753 0.0
C350 C 0.94233 0.03505 0.60251 0.0
C351 C 0.04577 0.99679 0.58676 0.0
H352 H 0.13567 0.07155 0.37854 0.0
H353 H 0.11362 1.02917 0.4203 0.0
H354 H 0.13204 0.10407 0.49922 0.0
H355 H 0.1575 0.14542 0.45809 0.0
H356 H 0.88997 1.00284 0.70235 0.0
H357 H 0.91891 0.04537 0.66316 0.0
H358 H 0.93054 0.96844 0.59114 0.0
H359 H 0.90013 0.92583 0.63011 0.0
Tb360 Tb 0.55445 0.03833 0.06826 0.0
Tb361 Tb 0.49814 1.02606 1.01172 0.0
C362 C 0.56206 0.99739 1.0055 0.0
C363 C 0.62958 0.07754 0.11674 0.0
C364 C 0.68027 0.12864 0.13932 0.0
C365 C 0.68935 0.09962 0.12666 0.0
C366 C 0.66395 0.07402 0.11545 0.0
C367 C 0.62062 0.10764 0.127 0.0
C368 C 0.64613 0.13322 0.13861 0.0
C369 C 0.60383 0.04905 0.10781 0.0
O370 O 0.56584 0.08435 1.03696 0.0
O371 O 0.52615 0.07438 0.9943 0.0
O372 O 0.48982 0.06648 0.04165 0.0
O373 O 0.50974 0.05092 0.0911 0.0
O374 O 0.48029 1.01606 0.96271 0.0
O375 O 0.44606 1.02483 1.00386 0.0
O376 O 0.48664 0.97986 0.04347 0.0
O377 O 0.52512 0.99178 0.0871 0.0
O378 O 0.56291 0.99774 1.03811 0.0
O379 O 0.54243 1.01328 0.98865 0.0
C380 C 0.55232 0.09388 1.00891 0.0
O381 O 0.57224 0.04965 0.11712 0.0
O382 O 0.60633 0.03877 0.07683 0.0
C383 C 0.49065 0.06743 0.07421 0.0
C384 C 0.42321 0.98786 0.96253 0.0
C385 C 0.37277 0.93581 0.94115 0.0
C386 C 0.36389 0.96609 0.95062 0.0
C387 C 0.38908 0.99195 0.9616 0.0
C388 C 0.43219 0.95727 0.95434 0.0
C389 C 0.40685 0.93122 0.94342 0.0
C390 C 0.44866 1.01607 0.97237 0.0
C391 C 0.49933 0.9718 0.07264 0.0
H392 H 0.71578 0.09601 0.12732 0.0
H393 H 0.67097 0.05099 0.10697 0.0
H394 H 0.59408 0.11092 0.12723 0.0
H395 H 0.6392 0.1559 0.14822 0.0
H396 H 0.33779 0.97028 0.94814 0.0
H397 H 0.38212 1.0155 0.96839 0.0
H398 H 0.45861 0.95374 0.95575 0.0
H399 H 0.41383 0.90784 0.93609 0.0
Tb400 Tb 0.53533 0.50378 0.52395 0.0
Tb401 Tb 0.52028 0.56981 0.5632 0.0
C402 C 0.50044 0.55686 0.48291 0.0
C403 C 0.59349 0.45222 0.4834 0.0
C404 C 0.65474 0.43591 0.45583 0.0
C405 C 0.62642 0.43752 0.43507 0.0
C406 C 0.5961 0.44539 0.44873 0.0
C407 C 0.62272 0.45238 0.50383 0.0
C408 C 0.65288 0.44414 0.49021 0.0
C409 C 0.55962 0.45604 0.49846 0.0
O410 O 0.58045 0.5422 0.51318 0.0
O411 O 0.57316 0.58846 0.54365 0.0
O412 O 0.54753 0.54702 0.60336 0.0
O413 O 0.54734 0.49677 0.57769 0.0
O414 O 0.49789 0.61199 0.55726 0.0
O415 O 0.51538 0.59967 0.60591 0.0
O416 O 0.47704 0.5301 0.57711 0.0
O417 O 0.48092 0.48695 0.54052 0.0
O418 O 0.51239 0.52875 0.48241 0.0
O419 O 0.50066 0.57403 0.51125 0.0
C420 C 0.5914 0.57308 0.52293 0.0
O421 O 0.55942 0.46286 0.53051 0.0
O422 O 0.54037 0.47286 0.48181 0.0
C423 C 0.55336 0.51621 0.60452 0.0
C424 C 0.46323 0.62114 0.60428 0.0
C425 C 0.40183 0.63548 0.63334 0.0
C426 C 0.42786 0.6269 0.65373 0.0
C427 C 0.45838 0.62053 0.63944 0.0
C428 C 0.43603 0.62687 0.58363 0.0
C429 C 0.40582 0.63413 0.59798 0.0
C430 C 0.49711 0.61762 0.58954 0.0
C431 C 0.46426 0.50069 0.56424 0.0
H432 H 0.62715 0.43108 0.40853 0.0
H433 H 0.57419 0.44496 0.43232 0.0
H434 H 0.62195 0.45761 0.53066 0.0
H435 H 0.67439 0.44314 0.50676 0.0
H436 H 0.42506 0.62554 0.68095 0.0
H437 H 0.47848 0.61563 0.65608 0.0
H438 H 0.43855 0.6271 0.55634 0.0
H439 H 0.38637 0.64022 0.58125 0.0
Tb440 Tb 0.02483 0.57138 1.02166 0.0
Tb441 Tb 0.02636 0.50425 0.05922 0.0
C442 C 0.05498 0.51463 0.98144 0.0
C443 C 0.9813 0.63268 0.98509 0.0
C444 C 0.91864 0.64922 0.9657 0.0
C445 C 0.94425 0.64717 0.94153 0.0
C446 C 0.97538 0.63918 0.95118 0.0
C447 C 0.95507 0.63312 1.00924 0.0
C448 C 0.92403 0.64168 0.99963 0.0
C449 C 1.01412 0.62352 0.99415 0.0
O450 O 0.97364 0.54081 1.01108 0.0
O451 O 0.97434 0.49172 1.03876 0.0
O452 O 0.99568 0.528 0.09561 0.0
O453 O 1.00969 0.58078 0.07455 0.0
O454 O 0.02924 0.45371 0.05604 0.0
O455 O 0.03157 0.47897 0.10424 0.0
O456 O 0.07388 0.53769 0.07515 0.0
O457 O 0.0788 0.58151 1.03849 0.0
O458 O 0.04737 0.54465 0.981 0.0
O459 O 0.05002 0.49676 1.00943 0.0
C460 C 0.95875 0.5103 1.01965 0.0
O461 O 1.02034 0.62146 1.02624 0.0
O462 O 1.02165 0.59854 0.97732 0.0
C463 C 0.99624 0.5602 0.09885 0.0
C464 C 0.06996 0.44347 0.09557 0.0
C465 C 0.1329 0.42677 0.1127 0.0
C466 C 0.10569 0.42259 0.13618 0.0
C467 C 0.07449 0.43101 0.12767 0.0
C468 C 0.09757 0.44899 0.07233 0.0
C469 C 0.12886 0.44038 0.08079 0.0
C470 C 0.03714 0.4529 0.0879 0.0
C471 C 0.09137 0.56593 0.0631 0.0
H472 H 0.94041 0.65231 0.91512 0.0
H473 H 0.99493 0.63816 0.93211 0.0
H474 H 0.95866 0.62735 1.03555 0.0
H475 H 0.90482 0.64342 1.01886 0.0
H476 H 0.10799 0.41149 0.16069 0.0
H477 H 0.05367 0.42738 0.14606 0.0
H478 H 0.09493 0.45972 0.04771 0.0
H479 H 0.14965 0.44386 0.06236 0.0
C480 C 0.22149 0.13705 0.35586 0.0
C481 C 0.22135 0.17089 0.35178 0.0
C482 C 0.19759 0.118 0.37684 0.0
C483 C 0.1723 0.13212 0.3933 0.0
H484 H 0.2392 0.12491 0.3418 0.0
H485 H 0.19877 0.09191 0.37994 0.0
S486 S 0.16228 0.22006 0.39175 0.0
N487 N 0.19617 0.21873 0.36758 0.0
N488 N 0.14871 0.18156 0.40525 0.0
C489 C 0.17226 0.16606 0.3901 0.0
C490 C 0.19749 0.18582 0.36969 0.0
C491 C 0.32717 0.87868 0.87549 0.0
C492 C 0.29388 0.87032 0.88935 0.0
C493 C 0.35344 0.89861 0.89346 0.0
C494 C 0.34687 0.91051 0.92562 0.0
H495 H 0.33244 0.8715 0.84988 0.0
H496 H 0.3784 0.90627 0.88139 0.0
S497 S 0.26444 0.89485 0.973 0.0
N498 N 0.25595 0.87426 0.93715 0.0
N499 N 0.30575 0.91203 0.97117 0.0
C500 C 0.31415 0.90133 0.94023 0.0
C501 C 0.28747 0.88107 0.92199 0.0
C502 C 0.58465 0.50586 0.69758 0.0
C503 C 0.59215 0.47323 0.69864 0.0
C504 C 0.5724 0.51962 0.66777 0.0
C505 C 0.56687 0.50176 0.63686 0.0
H506 H 0.58776 0.52099 0.72024 0.0
H507 H 0.56705 0.54456 0.66913 0.0
S508 S 0.58483 0.41632 0.62437 0.0
N509 N 0.59495 0.42466 0.66424 0.0
N510 N 0.5715 0.44936 0.60983 0.0
C511 C 0.57475 0.46932 0.63758 0.0
C512 C 0.58735 0.45549 0.66773 0.0
C513 C 0.93681 0.58425 0.17042 0.0
C514 C 0.95962 0.60406 0.19351 0.0
C515 C 0.94846 0.5697 0.14068 0.0
C516 C 0.98369 0.57439 0.13157 0.0
H517 H 0.9093 0.58023 0.17481 0.0
H518 H 0.92945 0.55514 0.12425 0.0
S519 S 0.05531 0.6214 0.18273 0.0
N520 N 1.02058 0.62467 0.20482 0.0
N521 N 0.04138 0.59951 0.14875 0.0
C522 C 1.0068 0.59377 0.15414 0.0
C523 C 0.99518 0.60795 0.18484 0.0
C524 C 0.49379 0.14254 0.12689 0.0
C525 C 0.46629 0.15558 0.11391 0.0
C526 C 0.50017 0.11245 0.11528 0.0
C527 C 0.47977 0.09527 0.08973 0.0
H528 H 0.50942 0.155 0.14729 0.0
H529 H 0.52172 0.10314 0.12579 0.0
S530 S 0.40597 0.11979 0.04607 0.0
N531 N 0.41861 0.1495 0.07416 0.0
N532 N 0.4324 0.09343 0.05031 0.0
C533 C 0.45303 0.10855 0.0755 0.0
C534 C 0.44598 0.13884 0.08792 0.0
C535 C 0.04715 0.91562 0.62966 0.0
C536 C 0.07927 0.9213 0.64572 0.0
C537 C 0.03641 0.94073 0.61157 0.0
C538 C 0.05779 0.97206 0.60773 0.0
H539 H 0.03002 0.89153 0.63122 0.0
H540 H 1.01099 0.93549 0.60072 0.0
S541 S 0.14305 1.00068 0.64716 0.0
N542 N 0.13152 0.96133 0.65889 0.0
N543 N 0.11153 1.00855 0.62318 0.0
C544 C 0.08976 0.97849 0.62406 0.0
C545 C 0.10041 0.95307 0.64352 0.0
C546 C 0.86142 0.47723 1.00643 0.0
C547 C 0.85932 0.4681 0.97184 0.0
C548 C 0.89341 0.4905 1.02209 0.0
C549 C 0.92476 0.49527 1.00388 0.0
H550 H 0.83806 0.47475 1.02143 0.0
H551 H 0.89353 0.49753 0.04851 0.0
S552 S 0.9348 0.47217 0.91437 0.0
N553 N 0.89279 0.46249 0.92112 0.0
N554 N 0.95194 0.48767 0.95032 0.0
C555 C 0.92319 0.48547 0.96982 0.0
C556 C 0.89087 0.4719 0.95391 0.0
C557 C 0.6868 0.61533 0.50783 0.0
C558 C 0.69022 0.61543 0.47205 0.0
C559 C 0.65472 0.60345 0.52453 0.0
C560 C 0.62439 0.5909 0.50633 0.0
H561 H 0.70932 0.62359 0.5233 0.0
H562 H 0.65401 0.60291 0.5519 0.0
S563 S 0.61721 0.58755 0.41296 0.0
N564 N 0.65817 0.6039 0.41956 0.0
N565 N 0.59955 0.58041 0.45076 0.0
C566 C 0.62718 0.59142 0.47087 0.0
C567 C 0.65943 0.6039 0.45387 0.0
C568 C 0.19962 0.37316 0.10627 0.0
C569 C 0.21573 0.37783 0.13792 0.0
C570 C 0.17395 0.39052 0.0976 0.0
C571 C 0.16362 0.41308 0.12035 0.0
H572 H 0.20666 0.3556 0.08824 0.0
H573 H 0.16125 0.38528 0.07345 0.0
S574 S 0.20014 0.43641 0.20492 0.0
N575 N 0.22127 0.40781 0.19123 0.0
N576 N 0.17293 0.44114 0.17464 0.0
C577 C 0.18029 0.41879 0.15163 0.0
C578 C 0.2063 0.40086 0.16057 0.0
C579 C 0.56345 0.17142 0.95052 0.0
C580 C 0.59055 0.19516 0.96511 0.0
C581 C 0.55129 0.13939 0.96467 0.0
C582 C 0.56576 0.12836 0.99408 0.0
H583 H 0.55151 0.17692 0.92728 0.0
H584 H 0.53042 0.12296 0.95198 0.0
S585 S 0.63583 0.17907 0.04423 0.0
N586 N 0.62967 0.20413 1.01319 0.0
N587 N 0.60836 0.14393 1.03769 0.0
C588 C 0.59259 0.15133 1.00909 0.0
C589 C 0.60456 0.18436 0.99523 0.0
C590 C 0.9619 0.90873 0.44476 0.0
C591 C 0.95895 0.87827 0.46245 0.0
C592 C 0.9727 0.93998 0.46094 0.0
C593 C 0.98108 0.94233 0.49557 0.0
H594 H 0.95547 0.90845 0.41817 0.0
H595 H 0.97467 0.96252 0.44612 0.0
S596 S 0.98378 0.8705 0.55184 0.0
N597 N 0.96935 0.85296 0.51573 0.0
N598 N 0.98956 0.91112 0.54562 0.0
C599 C 0.97971 0.91213 0.51299 0.0
C600 C 0.96861 0.88038 0.49667 0.0
C601 C 0.31087 0.65253 0.64618 0.0
C602 C 0.31436 0.67382 0.67444 0.0
C603 C 0.33886 0.6396 0.63362 0.0
C604 C 0.37168 0.64755 0.64864 0.0
H605 H 0.28628 0.64585 0.63351 0.0
H606 H 0.33462 0.62322 0.61188 0.0
S607 S 0.39456 0.7032 0.72288 0.0
N608 N 0.35322 0.70256 0.71699 0.0
N609 N 0.40585 0.67899 0.69319 0.0
C610 C 0.37534 0.66868 0.67717 0.0
C611 C 0.34675 0.68159 0.69008 0.0
C612 C 0.8546 0.89947 0.73163 0.0
C613 C 0.81945 0.90077 0.72851 0.0
C614 C 0.87891 0.91866 0.71089 0.0
C615 C 0.86822 0.93946 0.68714 0.0
H616 H 0.8632 0.88332 0.75005 0.0
H617 H 0.90596 0.91771 0.71373 0.0
S618 S 0.78009 0.95267 0.67 0.0
N619 N 0.7754 0.92471 0.70063 0.0
N620 N 0.82178 0.96161 0.6614 0.0
C621 C 0.83349 0.94143 0.68397 0.0
C622 C 0.80877 0.92192 0.70501 0.0
C623 C 0.76392 0.18477 0.15841 0.0
C624 C 0.76049 0.18968 0.1931 0.0
C625 C 0.73694 0.16568 0.14058 0.0
C626 C 0.70614 0.15177 0.1572 0.0
H627 H 0.78726 0.1961 0.14509 0.0
H628 H 0.74012 0.16159 0.11376 0.0
S629 S 0.68515 0.15803 0.24797 0.0
N630 N 0.72464 0.18002 0.24365 0.0
N631 N 0.67363 0.14341 0.20993 0.0
C632 C 0.70243 0.15664 0.19192 0.0
C633 C 0.72987 0.17588 0.21002 0.0
C634 C 0.45402 0.61034 0.42308 0.0
C635 C 0.4593 0.59912 0.38997 0.0
C636 C 0.46702 0.5966 0.45236 0.0
C637 C 0.48612 0.57054 0.45064 0.0
H638 H 0.43964 0.63012 0.42648 0.0
H639 H 0.46185 0.60664 0.47679 0.0
S640 S 0.50911 0.53321 0.3699 0.0
N641 N 0.48636 0.56086 0.3575 0.0
N642 N 0.51042 0.53532 0.41161 0.0
C643 C 0.49178 0.55935 0.41753 0.0
C644 C 0.47859 0.57345 0.38771 0.0
C645 C 0.08305 0.50199 0.88751 0.0
C646 C 0.09398 0.47096 0.88751 0.0
C647 C 0.07079 0.51589 0.91741 0.0
C648 C 0.06911 0.4999 0.94939 0.0
H649 H 0.08347 0.51555 0.86398 0.0
H650 H 0.06236 0.53944 0.91526 0.0
S651 S 0.09737 0.41932 0.96396 0.0
N652 N 0.10363 0.42566 0.923 0.0
N653 N 0.08156 0.45123 0.9783 0.0
C654 C 0.08066 0.46913 0.94958 0.0
C655 C 0.09275 0.45493 0.91915 0.0
C656 C 0.55985 0.91427 0.96824 0.0
C657 C 0.59401 0.9172 0.9575 0.0
C658 C 0.54956 0.94102 0.98411 0.0
C659 C 0.57342 0.97064 0.98922 0.0
H660 H 0.54098 0.89183 0.96323 0.0
H661 H 0.52289 0.93878 0.992 0.0
S662 S 0.66584 0.98945 0.96766 0.0
N663 N 0.65187 0.951 0.95401 0.0
N664 N 0.63211 1.00139 0.985 0.0
C665 C 0.60775 0.97346 0.97997 0.0
C666 C 0.61822 0.94649 0.96363 0.0
C667 C 0.96131 0.12104 0.43099 0.0
C668 C 0.96793 0.15463 0.44173 0.0
C669 C 0.97315 0.09641 0.44925 0.0
C670 C 0.99108 0.10441 0.47931 0.0
H671 H 0.94661 0.11355 0.40831 0.0
H672 H 0.96756 0.0709 0.44024 0.0
S673 S 1.01274 0.18704 0.52055 0.0
N674 N 0.99345 0.194 0.4851 0.0
N675 N 1.01265 0.14667 0.52109 0.0
C676 C 0.99651 0.13722 0.49142 0.0
C677 C 0.98564 0.16263 0.47224 0.0
C678 C 0.18547 0.61208 0.07941 0.0
C679 C 0.18987 0.60769 0.11457 0.0
C680 C 0.15375 0.59938 0.06275 0.0
C681 C 0.12496 0.58114 0.08028 0.0
H682 H 0.20692 0.62489 0.06435 0.0
H683 H 0.1521 0.60317 1.03576 0.0
S684 S 0.12053 0.56592 0.17278 0.0
N685 N 0.16014 0.58669 0.16645 0.0
N686 N 0.10243 0.56162 0.1352 0.0
C687 C 0.12875 0.57733 0.11534 0.0
C688 C 0.1605 0.5908 0.13237 0.0
C689 C 0.39356 0.46806 0.6299 0.0
C690 C 0.36307 0.45789 0.61094 0.0
C691 C 0.42591 0.48053 0.61447 0.0
C692 C 0.43015 0.48298 0.57905 0.0
H693 H 0.39257 0.46652 0.65722 0.0
H694 H 0.44797 0.48864 0.63064 0.0
S695 S 0.35912 0.46309 0.51722 0.0
N696 N 0.33972 0.45381 0.55405 0.0
N697 N 0.40047 0.47589 0.52547 0.0
C698 C 0.40021 0.47293 0.55963 0.0
C699 C 0.36693 0.46073 0.57536 0.0
C700 C 0.863 0.70331 0.92512 0.0
C701 C 0.82966 0.68817 0.93545 0.0
C702 C 0.89154 0.69031 0.93503 0.0
C703 C 0.88769 0.6617 0.95547 0.0
H704 H 0.86722 0.72608 0.91043 0.0
H705 H 0.91693 0.70329 0.9273 0.0
S706 S 0.80542 0.61186 0.98741 0.0
N707 N 0.79399 0.64215 0.96545 0.0
N708 N 0.84787 0.61801 0.98475 0.0
C709 C 0.85442 0.64598 0.96544 0.0
C710 C 0.82535 0.65906 0.95509 0.0
C711 C 0.45694 0.87935 0.08817 0.0
C712 C 0.45973 0.87493 0.12355 0.0
C713 C 0.469 0.91045 0.07196 0.0
C714 C 0.48522 0.93889 0.09003 0.0
H715 H 0.44572 0.85844 0.07243 0.0
H716 H 0.46621 0.91198 0.04482 0.0
S717 S 0.49837 0.94263 0.18305 0.0
N718 N 0.47853 0.90391 0.17609 0.0
N719 N 0.50321 0.96058 0.14559 0.0
C720 C 0.48851 0.93497 0.12525 0.0
C721 C 0.47537 0.90369 0.14191 0.0
C722 C 0.07158 0.16786 0.63519 0.0
C723 C 0.09062 0.19541 0.61709 0.0
C724 C 0.05935 0.13647 0.61992 0.0
C725 C 0.06614 0.13011 0.58574 0.0
H726 H 0.06638 0.16994 0.66188 0.0
H727 H 0.04487 0.11677 0.63544 0.0
S728 S 0.11224 0.19269 0.52532 0.0
N729 N 0.11266 0.21355 0.56112 0.0
N730 N 0.09223 0.15436 0.5338 0.0
C731 C 0.08487 0.15704 0.56716 0.0
C732 C 0.09646 0.18944 0.58236 0.0
C733 C 0.73454 0.42565 0.40451 0.0
C734 C 0.7405 0.39468 0.41584 0.0
C735 C 0.70679 0.43912 0.4175 0.0
C736 C 0.68447 0.42219 0.44245 0.0
H737 H 0.7517 0.43973 0.38599 0.0
H738 H 0.70298 0.46306 0.4083 0.0
S739 S 0.6885 0.33973 0.47897 0.0
N740 N 0.72129 0.34712 0.45222 0.0
N741 N 0.66975 0.3724 0.47686 0.0
C742 C 0.69019 0.39116 0.45357 0.0
C743 C 0.71802 0.37743 0.44019 0.0
loop_
_geom_bond_atom_site_label_1
_geom_bond_atom_site_label_2
_geom_bond_distance
_geom_bond_site_symmetry_2
_ccdc_geom_bond_type
C0 C1 1.264 . S
C0 C5 1.479 . S
C0 C10 1.465 . S
C1 C0 1.264 . S
C1 C3 1.339 . S
C1 H28 0.931 . S
C2 C3 1.395 . S
C2 C4 1.320 . S
C3 C1 1.339 . S
C3 C2 1.395 . S
C3 H29 0.929 . S
C4 C2 1.320 . S
C4 C5 1.405 . S
C4 H30 0.930 . S
C5 C0 1.479 . S
C5 C4 1.405 . S
C5 H31 0.931 . S
U6 O7 2.454 . S
U6 O8 2.458 . S
U6 C9 2.984 . S
U6 C10 2.847 . S
U6 C23 2.882 . S
U6 O24 2.441 . S
U6 O25 2.420 . S
U6 O26 2.455 . S
U6 O27 2.449 . S
O7 U6 2.454 . S
O7 C9 1.353 . S
O8 U6 2.458 . S
O8 C9 1.286 . S
C9 U6 2.984 . S
C9 O7 1.353 . S
C9 O8 1.286 . S
C9 C11 1.363 . S
C10 C0 1.465 . S
C10 U6 2.847 . S
C10 O24 1.249 . S
C10 O25 1.202 . S
C11 C9 1.363 . S
C11 C13 1.408 . S
C11 C16 1.342 . S
C12 C13 1.310 . S
C12 C15 1.461 . S
C12 H32 0.932 . S
C13 C11 1.408 . S
C13 C12 1.310 . S
C13 H33 0.930 . S
C14 C15 1.474 . S
C14 C16 1.285 . S
C14 H34 0.929 . S
C15 C12 1.461 . S
C15 C14 1.474 . S
C16 C11 1.342 . S
C16 C14 1.285 . S
C16 H35 0.930 . S
C17 C20 1.424 . S
C17 C22 1.245 . S
C17 C23 1.428 . S
C18 C21 1.260 . S
C18 C22 1.477 . S
C18 H36 0.932 . S
C19 C20 1.384 . S
C19 C21 1.479 . S
C19 H37 0.929 . S
C20 C17 1.424 . S
C20 C19 1.384 . S
C20 H38 0.928 . S
C21 C18 1.260 . S
C21 C19 1.479 . S
C22 C17 1.245 . S
C22 C18 1.477 . S
C22 H39 0.932 . S
C23 U6 2.882 . S
C23 C17 1.428 . S
C23 O26 1.301 . S
C23 O27 1.282 . S
O24 U6 2.441 . S
O24 C10 1.249 . S
O25 U6 2.420 . S
O25 C10 1.202 . S
O26 U6 2.455 . S
O26 C23 1.301 . S
O27 U6 2.449 . S
O27 C23 1.282 . S
H28 C1 0.931 . S
H29 C3 0.929 . S
H30 C4 0.930 . S
H31 C5 0.931 . S
H32 C12 0.932 . S
H33 C13 0.930 . S
H34 C14 0.929 . S
H35 C16 0.930 . S
H36 C18 0.932 . S
H37 C19 0.929 . S
H38 C20 0.928 . S
H39 C22 0.932 . S
C40 C41 1.264 . S
C40 C45 1.479 . S
C40 C50 1.465 . S
C41 C40 1.264 . S
C41 C43 1.339 . S
C41 H68 0.931 . S
C42 C43 1.395 . S
C42 C44 1.320 . S
C43 C41 1.339 . S
C43 C42 1.395 . S
C43 H69 0.929 . S
C44 C42 1.320 . S
C44 C45 1.405 . S
C44 H70 0.930 . S
C45 C40 1.479 . S
C45 C44 1.405 . S
C45 H71 0.931 . S
U46 O47 2.454 . S
U46 O48 2.458 . S
U46 C49 2.984 . S
U46 C50 2.847 . S
U46 C63 2.882 . S
U46 O64 2.441 . S
U46 O65 2.420 . S
U46 O66 2.455 . S
U46 O67 2.449 . S
O47 U46 2.454 . S
O47 C49 1.353 . S
O48 U46 2.458 . S
O48 C49 1.286 . S
C49 U46 2.984 . S
C49 O47 1.353 . S
C49 O48 1.286 . S
C49 C51 1.363 . S
C50 C40 1.465 . S
C50 U46 2.847 . S
C50 O64 1.249 . S
C50 O65 1.202 . S
C51 C49 1.363 . S
C51 C53 1.408 . S
C51 C56 1.342 . S
C52 C53 1.310 . S
C52 C55 1.461 . S
C52 H72 0.932 . S
C53 C51 1.408 . S
C53 C52 1.310 . S
C53 H73 0.930 . S
C54 C55 1.474 . S
C54 C56 1.285 . S
C54 H74 0.929 . S
C55 C52 1.461 . S
C55 C54 1.474 . S
C56 C51 1.342 . S
C56 C54 1.285 . S
C56 H75 0.930 . S
C57 C60 1.424 . S
C57 C62 1.245 . S
C57 C63 1.428 . S
C58 C61 1.260 . S
C58 C62 1.477 . S
C58 H76 0.932 . S
C59 C60 1.384 . S
C59 C61 1.479 . S
C59 H77 0.929 . S
C60 C57 1.424 . S
C60 C59 1.384 . S
C60 H78 0.928 . S
C61 C58 1.260 . S
C61 C59 1.479 . S
C62 C57 1.245 . S
C62 C58 1.477 . S
C62 H79 0.932 . S
C63 U46 2.882 . S
C63 C57 1.428 . S
C63 O66 1.301 . S
C63 O67 1.282 . S
O64 U46 2.441 . S
O64 C50 1.249 . S
O65 U46 2.420 . S
O65 C50 1.202 . S
O66 U46 2.455 . S
O66 C63 1.301 . S
O67 U46 2.449 . S
O67 C63 1.282 . S
H68 C41 0.931 . S
H69 C43 0.929 . S
H70 C44 0.930 . S
H71 C45 0.931 . S
H72 C52 0.932 . S
H73 C53 0.930 . S
H74 C54 0.929 . S
H75 C56 0.930 . S
H76 C58 0.932 . S
H77 C59 0.929 . S
H78 C60 0.928 . S
H79 C62 0.932 . S
C80 C81 1.264 . S
C80 C85 1.479 . S
C80 C90 1.465 . S
C81 C80 1.264 . S
C81 C83 1.339 . S
C81 H108 0.931 . S
C82 C83 1.395 . S
C82 C84 1.320 . S
C83 C81 1.339 . S
C83 C82 1.395 . S
C83 H109 0.929 . S
C84 C82 1.320 . S
C84 C85 1.405 . S
C84 H110 0.930 . S
C85 C80 1.479 . S
C85 C84 1.405 . S
C85 H111 0.931 . S
U86 O87 2.454 . S
U86 O88 2.458 . S
U86 C89 2.984 . S
U86 C90 2.847 . S
U86 C103 2.882 . S
U86 O104 2.441 . S
U86 O105 2.420 . S
U86 O106 2.455 . S
U86 O107 2.449 . S
O87 U86 2.454 . S
O87 C89 1.353 . S
O88 U86 2.458 . S
O88 C89 1.286 . S
C89 U86 2.984 . S
C89 O87 1.353 . S
C89 O88 1.286 . S
C89 C91 1.363 . S
C90 C80 1.465 . S
C90 U86 2.847 . S
C90 O104 1.249 . S
C90 O105 1.202 . S
C91 C89 1.363 . S
C91 C93 1.408 . S
C91 C96 1.342 . S
C92 C93 1.310 . S
C92 C95 1.461 . S
C92 H112 0.932 . S
C93 C91 1.408 . S
C93 C92 1.310 . S
C93 H113 0.930 . S
C94 C95 1.474 . S
C94 C96 1.285 . S
C94 H114 0.929 . S
C95 C92 1.461 . S
C95 C94 1.474 . S
C96 C91 1.342 . S
C96 C94 1.285 . S
C96 H115 0.930 . S
C97 C100 1.424 . S
C97 C102 1.245 . S
C97 C103 1.428 . S
C98 C101 1.260 . S
C98 C102 1.477 . S
C98 H116 0.932 . S
C99 C100 1.384 . S
C99 C101 1.479 . S
C99 H117 0.929 . S
C100 C97 1.424 . S
C100 C99 1.384 . S
C100 H118 0.928 . S
C101 C98 1.260 . S
C101 C99 1.479 . S
C102 C97 1.245 . S
C102 C98 1.477 . S
C102 H119 0.932 . S
C103 U86 2.882 . S
C103 C97 1.428 . S
C103 O106 1.301 . S
C103 O107 1.282 . S
O104 U86 2.441 . S
O104 C90 1.249 . S
O105 U86 2.420 . S
O105 C90 1.202 . S
O106 U86 2.455 . S
O106 C103 1.301 . S
O107 U86 2.449 . S
O107 C103 1.282 . S
H108 C81 0.931 . S
H109 C83 0.929 . S
H110 C84 0.930 . S
H111 C85 0.931 . S
H112 C92 0.932 . S
H113 C93 0.930 . S
H114 C94 0.929 . S
H115 C96 0.930 . S
H116 C98 0.932 . S
H117 C99 0.929 . S
H118 C100 0.928 . S
H119 C102 0.932 . S
C120 C121 1.264 . S
C120 C125 1.479 . S
C120 C130 1.465 . S
C121 C120 1.264 . S
C121 C123 1.339 . S
C121 H148 0.931 . S
C122 C123 1.395 . S
C122 C124 1.320 . S
C123 C121 1.339 . S
C123 C122 1.395 . S
C123 H149 0.929 . S
C124 C122 1.320 . S
C124 C125 1.405 . S
C124 H150 0.930 . S
C125 C120 1.479 . S
C125 C124 1.405 . S
C125 H151 0.931 . S
U126 O127 2.454 . S
U126 O128 2.458 . S
U126 C129 2.984 . S
U126 C130 2.847 . S
U126 C143 2.882 . S
U126 O144 2.441 . S
U126 O145 2.420 . S
U126 O146 2.455 . S
U126 O147 2.449 . S
O127 U126 2.454 . S
O127 C129 1.353 . S
O128 U126 2.458 . S
O128 C129 1.286 . S
C129 U126 2.984 . S
C129 O127 1.353 . S
C129 O128 1.286 . S
C129 C131 1.363 . S
C130 C120 1.465 . S
C130 U126 2.847 . S
C130 O144 1.249 . S
C130 O145 1.202 . S
C131 C129 1.363 . S
C131 C133 1.408 . S
C131 C136 1.342 . S
C132 C133 1.310 . S
C132 C135 1.461 . S
C132 H152 0.932 . S
C133 C131 1.408 . S
C133 C132 1.310 . S
C133 H153 0.930 . S
C134 C135 1.474 . S
C134 C136 1.285 . S
C134 H154 0.929 . S
C135 C132 1.461 . S
C135 C134 1.474 . S
C136 C131 1.342 . S
C136 C134 1.285 . S
C136 H155 0.930 . S
C137 C140 1.424 . S
C137 C142 1.245 . S
C137 C143 1.428 . S
C138 C141 1.260 . S
C138 C142 1.477 . S
C138 H156 0.932 . S
C139 C140 1.384 . S
C139 C141 1.479 . S
C139 H157 0.929 . S
C140 C137 1.424 . S
C140 C139 1.384 . S
C140 H158 0.928 . S
C141 C138 1.260 . S
C141 C139 1.479 . S
C142 C137 1.245 . S
C142 C138 1.477 . S
C142 H159 0.932 . S
C143 U126 2.882 . S
C143 C137 1.428 . S
C143 O146 1.301 . S
C143 O147 1.282 . S
O144 U126 2.441 . S
O144 C130 1.249 . S
O145 U126 2.420 . S
O145 C130 1.202 . S
O146 U126 2.455 . S
O146 C143 1.301 . S
O147 U126 2.449 . S
O147 C143 1.282 . S
H148 C121 0.931 . S
H149 C123 0.929 . S
H150 C124 0.930 . S
H151 C125 0.931 . S
H152 C132 0.932 . S
H153 C133 0.930 . S
H154 C134 0.929 . S
H155 C136 0.930 . S
H156 C138 0.932 . S
H157 C139 0.929 . S
H158 C140 0.928 . S
H159 C142 0.932 . S
C160 C161 1.264 . S
C160 C165 1.479 . S
C160 C170 1.465 . S
C161 C160 1.264 . S
C161 C163 1.339 . S
C161 H188 0.931 . S
C162 C163 1.395 . S
C162 C164 1.320 . S
C163 C161 1.339 . S
C163 C162 1.395 . S
C163 H189 0.929 . S
C164 C162 1.320 . S
C164 C165 1.405 . S
C164 H190 0.930 . S
C165 C160 1.479 . S
C165 C164 1.405 . S
C165 H191 0.931 . S
U166 O167 2.454 . S
U166 O168 2.458 . S
U166 C169 2.984 . S
U166 C170 2.847 . S
U166 C183 2.882 . S
U166 O184 2.441 . S
U166 O185 2.420 . S
U166 O186 2.455 . S
U166 O187 2.449 . S
O167 U166 2.454 . S
O167 C169 1.353 . S
O168 U166 2.458 . S
O168 C169 1.286 . S
C169 U166 2.984 . S
C169 O167 1.353 . S
C169 O168 1.286 . S
C169 C171 1.363 . S
C170 C160 1.465 . S
C170 U166 2.847 . S
C170 O184 1.249 . S
C170 O185 1.202 . S
C171 C169 1.363 . S
C171 C173 1.408 . S
C171 C176 1.342 . S
C172 C173 1.310 . S
C172 C175 1.461 . S
C172 H192 0.932 . S
C173 C171 1.408 . S
C173 C172 1.310 . S
C173 H193 0.930 . S
C174 C175 1.474 . S
C174 C176 1.285 . S
C174 H194 0.929 . S
C175 C172 1.461 . S
C175 C174 1.474 . S
C176 C171 1.342 . S
C176 C174 1.285 . S
C176 H195 0.930 . S
C177 C180 1.424 . S
C177 C182 1.245 . S
C177 C183 1.428 . S
C178 C181 1.260 . S
C178 C182 1.477 . S
C178 H196 0.932 . S
C179 C180 1.384 . S
C179 C181 1.479 . S
C179 H197 0.929 . S
C180 C177 1.424 . S
C180 C179 1.384 . S
C180 H198 0.928 . S
C181 C178 1.260 . S
C181 C179 1.479 . S
C182 C177 1.245 . S
C182 C178 1.477 . S
C182 H199 0.932 . S
C183 U166 2.882 . S
C183 C177 1.428 . S
C183 O186 1.301 . S
C183 O187 1.282 . S
O184 U166 2.441 . S
O184 C170 1.249 . S
O185 U166 2.420 . S
O185 C170 1.202 . S
O186 U166 2.455 . S
O186 C183 1.301 . S
O187 U166 2.449 . S
O187 C183 1.282 . S
H188 C161 0.931 . S
H189 C163 0.929 . S
H190 C164 0.930 . S
H191 C165 0.931 . S
H192 C172 0.932 . S
H193 C173 0.930 . S
H194 C174 0.929 . S
H195 C176 0.930 . S
H196 C178 0.932 . S
H197 C179 0.929 . S
H198 C180 0.928 . S
H199 C182 0.932 . S
C200 C201 1.264 . S
C200 C205 1.479 . S
C200 C210 1.465 . S
C201 C200 1.264 . S
C201 C203 1.339 . S
C201 H228 0.931 . S
C202 C203 1.395 . S
C202 C204 1.320 . S
C203 C201 1.339 . S
C203 C202 1.395 . S
C203 H229 0.929 . S
C204 C202 1.320 . S
C204 C205 1.405 . S
C204 H230 0.930 . S
C205 C200 1.479 . S
C205 C204 1.405 . S
C205 H231 0.931 . S
U206 O207 2.454 . S
U206 O208 2.458 . S
U206 C209 2.984 . S
U206 C210 2.847 . S
U206 C223 2.882 . S
U206 O224 2.441 . S
U206 O225 2.420 . S
U206 O226 2.455 . S
U206 O227 2.449 . S
O207 U206 2.454 . S
O207 C209 1.353 . S
O208 U206 2.458 . S
O208 C209 1.286 . S
C209 U206 2.984 . S
C209 O207 1.353 . S
C209 O208 1.286 . S
C209 C211 1.363 . S
C210 C200 1.465 . S
C210 U206 2.847 . S
C210 O224 1.249 . S
C210 O225 1.202 . S
C211 C209 1.363 . S
C211 C213 1.408 . S
C211 C216 1.342 . S
C212 C213 1.310 . S
C212 C215 1.461 . S
C212 H232 0.932 . S
C213 C211 1.408 . S
C213 C212 1.310 . S
C213 H233 0.930 . S
C214 C215 1.474 . S
C214 C216 1.285 . S
C214 H234 0.929 . S
C215 C212 1.461 . S
C215 C214 1.474 . S
C216 C211 1.342 . S
C216 C214 1.285 . S
C216 H235 0.930 . S
C217 C220 1.424 . S
C217 C222 1.245 . S
C217 C223 1.428 . S
C218 C221 1.260 . S
C218 C222 1.477 . S
C218 H236 0.932 . S
C219 C220 1.384 . S
C219 C221 1.479 . S
C219 H237 0.929 . S
C220 C217 1.424 . S
C220 C219 1.384 . S
C220 H238 0.928 . S
C221 C218 1.260 . S
C221 C219 1.479 . S
C222 C217 1.245 . S
C222 C218 1.477 . S
C222 H239 0.932 . S
C223 U206 2.882 . S
C223 C217 1.428 . S
C223 O226 1.301 . S
C223 O227 1.282 . S
O224 U206 2.441 . S
O224 C210 1.249 . S
O225 U206 2.420 . S
O225 C210 1.202 . S
O226 U206 2.455 . S
O226 C223 1.301 . S
O227 U206 2.449 . S
O227 C223 1.282 . S
H228 C201 0.931 . S
H229 C203 0.929 . S
H230 C204 0.930 . S
H231 C205 0.931 . S
H232 C212 0.932 . S
H233 C213 0.930 . S
H234 C214 0.929 . S
H235 C216 0.930 . S
H236 C218 0.932 . S
H237 C219 0.929 . S
H238 C220 0.928 . S
H239 C222 0.932 . S
C240 C241 1.264 . S
C240 C245 1.479 . S
C240 C250 1.465 . S
C241 C240 1.264 . S
C241 C243 1.339 . S
C241 H268 0.931 . S
C242 C243 1.395 . S
C242 C244 1.320 . S
C243 C241 1.339 . S
C243 C242 1.395 . S
C243 H269 0.929 . S
C244 C242 1.320 . S
C244 C245 1.405 . S
C244 H270 0.930 . S
C245 C240 1.479 . S
C245 C244 1.405 . S
C245 H271 0.931 . S
U246 O247 2.454 . S
U246 O248 2.458 . S
U246 C249 2.984 . S
U246 C250 2.847 . S
U246 C263 2.882 . S
U246 O264 2.441 . S
U246 O265 2.420 . S
U246 O266 2.455 . S
U246 O267 2.449 . S
O247 U246 2.454 . S
O247 C249 1.353 . S
O248 U246 2.458 . S
O248 C249 1.286 . S
C249 U246 2.984 . S
C249 O247 1.353 . S
C249 O248 1.286 . S
C249 C251 1.363 . S
C250 C240 1.465 . S
C250 U246 2.847 . S
C250 O264 1.249 . S
C250 O265 1.202 . S
C251 C249 1.363 . S
C251 C253 1.408 . S
C251 C256 1.342 . S
C252 C253 1.310 . S
C252 C255 1.461 . S
C252 H272 0.932 . S
C253 C251 1.408 . S
C253 C252 1.310 . S
C253 H273 0.930 . S
C254 C255 1.474 . S
C254 C256 1.285 . S
C254 H274 0.929 . S
C255 C252 1.461 . S
C255 C254 1.474 . S
C256 C251 1.342 . S
C256 C254 1.285 . S
C256 H275 0.930 . S
C257 C260 1.424 . S
C257 C262 1.245 . S
C257 C263 1.428 . S
C258 C261 1.260 . S
C258 C262 1.477 . S
C258 H276 0.932 . S
C259 C260 1.384 . S
C259 C261 1.479 . S
C259 H277 0.929 . S
C260 C257 1.424 . S
C260 C259 1.384 . S
C260 H278 0.928 . S
C261 C258 1.260 . S
C261 C259 1.479 . S
C262 C257 1.245 . S
C262 C258 1.477 . S
C262 H279 0.932 . S
C263 U246 2.882 . S
C263 C257 1.428 . S
C263 O266 1.301 . S
C263 O267 1.282 . S
O264 U246 2.441 . S
O264 C250 1.249 . S
O265 U246 2.420 . S
O265 C250 1.202 . S
O266 U246 2.455 . S
O266 C263 1.301 . S
O267 U246 2.449 . S
O267 C263 1.282 . S
H268 C241 0.931 . S
H269 C243 0.929 . S
H270 C244 0.930 . S
H271 C245 0.931 . S
H272 C252 0.932 . S
H273 C253 0.930 . S
H274 C254 0.929 . S
H275 C256 0.930 . S
H276 C258 0.932 . S
H277 C259 0.929 . S
H278 C260 0.928 . S
H279 C262 0.932 . S
C280 C281 1.264 . S
C280 C285 1.479 . S
C280 C290 1.465 . S
C281 C280 1.264 . S
C281 C283 1.339 . S
C281 H308 0.931 . S
C282 C283 1.395 . S
C282 C284 1.320 . S
C283 C281 1.339 . S
C283 C282 1.395 . S
C283 H309 0.929 . S
C284 C282 1.320 . S
C284 C285 1.405 . S
C284 H310 0.930 . S
C285 C280 1.479 . S
C285 C284 1.405 . S
C285 H311 0.931 . S
U286 O287 2.454 . S
U286 O288 2.458 . S
U286 C289 2.984 . S
U286 C290 2.847 . S
U286 C303 2.882 . S
U286 O304 2.441 . S
U286 O305 2.420 . S
U286 O306 2.455 . S
U286 O307 2.449 . S
O287 U286 2.454 . S
O287 C289 1.353 . S
O288 U286 2.458 . S
O288 C289 1.286 . S
C289 U286 2.984 . S
C289 O287 1.353 . S
C289 O288 1.286 . S
C289 C291 1.363 . S
C290 C280 1.465 . S
C290 U286 2.847 . S
C290 O304 1.249 . S
C290 O305 1.202 . S
C291 C289 1.363 . S
C291 C293 1.408 . S
C291 C296 1.342 . S
C292 C293 1.310 . S
C292 C295 1.461 . S
C292 H312 0.932 . S
C293 C291 1.408 . S
C293 C292 1.310 . S
C293 H313 0.930 . S
C294 C295 1.474 . S
C294 C296 1.285 . S
C294 H314 0.929 . S
C295 C292 1.461 . S
C295 C294 1.474 . S
C296 C291 1.342 . S
C296 C294 1.285 . S
C296 H315 0.930 . S
C297 C300 1.424 . S
C297 C302 1.245 . S
C297 C303 1.428 . S
C298 C301 1.260 . S
C298 C302 1.477 . S
C298 H316 0.932 . S
C299 C300 1.384 . S
C299 C301 1.479 . S
C299 H317 0.929 . S
C300 C297 1.424 . S
C300 C299 1.384 . S
C300 H318 0.928 . S
C301 C298 1.260 . S
C301 C299 1.479 . S
C302 C297 1.245 . S
C302 C298 1.477 . S
C302 H319 0.932 . S
C303 U286 2.882 . S
C303 C297 1.428 . S
C303 O306 1.301 . S
C303 O307 1.282 . S
O304 U286 2.441 . S
O304 C290 1.249 . S
O305 U286 2.420 . S
O305 C290 1.202 . S
O306 U286 2.455 . S
O306 C303 1.301 . S
O307 U286 2.449 . S
O307 C303 1.282 . S
H308 C281 0.931 . S
H309 C283 0.929 . S
H310 C284 0.930 . S
H311 C285 0.931 . S
H312 C292 0.932 . S
H313 C293 0.930 . S
H314 C294 0.929 . S
H315 C296 0.930 . S
H316 C298 0.932 . S
H317 C299 0.929 . S
H318 C300 0.928 . S
H319 C302 0.932 . S
Tb320 C329 2.764 . S
Tb320 O330 2.325 1_455 S
Tb320 O333 2.303 . S
Tb320 O337 2.322 1_545 S
Tb320 O338 2.349 1_545 S
Tb320 O341 2.415 . S
Tb320 O342 2.399 . S
Tb321 O331 2.322 . S
Tb321 O332 2.349 . S
Tb321 O334 2.415 1_545 S
Tb321 O335 2.399 1_545 S
Tb321 O336 2.325 1_645 S
Tb321 O339 2.303 1_545 S
Tb321 C350 2.764 1_545 S
C322 O338 1.261 1_655 S
C322 O339 1.257 . S
C323 C326 1.358 . S
C323 C327 1.332 . S
C323 C329 1.504 . S
C324 C325 1.373 . S
C324 C328 1.308 . S
C325 C324 1.373 . S
C325 C326 1.429 . S
C325 H352 0.932 . S
C326 C323 1.358 . S
C326 C325 1.429 . S
C326 H353 0.930 . S
C327 C323 1.332 . S
C327 C328 1.394 . S
C327 H354 0.932 . S
C328 C324 1.308 . S
C328 C327 1.394 . S
C328 H355 0.929 . S
C329 Tb320 2.764 . S
C329 C323 1.504 . S
C329 O341 1.239 . S
C329 O342 1.263 . S
O330 Tb320 2.325 1_655 S
O330 C340 1.236 . S
O331 Tb321 2.322 . S
O331 C340 1.257 . S
O332 Tb321 2.349 . S
O332 C343 1.261 1_655 S
O333 Tb320 2.303 . S
O333 C343 1.257 . S
O334 Tb321 2.415 1_565 S
O334 C350 1.239 . S
O335 Tb321 2.399 1_565 S
O335 C350 1.263 . S
O336 Tb321 2.325 1_465 S
O336 C351 1.236 . S
O337 Tb320 2.322 1_565 S
O337 C351 1.257 . S
O338 Tb320 2.349 1_565 S
O338 C322 1.261 1_455 S
O339 Tb321 2.303 1_565 S
O339 C322 1.257 . S
C340 O330 1.236 . S
C340 O331 1.257 . S
O341 Tb320 2.415 . S
O341 C329 1.239 . S
O342 Tb320 2.399 . S
O342 C329 1.263 . S
C343 O332 1.261 1_455 S
C343 O333 1.257 . S
C344 C347 1.358 . S
C344 C348 1.332 . S
C344 C350 1.504 . S
C345 C346 1.373 . S
C345 C349 1.308 . S
C346 C345 1.373 . S
C346 C347 1.429 . S
C346 H356 0.932 . S
C347 C344 1.358 . S
C347 C346 1.429 . S
C347 H357 0.930 . S
C348 C344 1.332 . S
C348 C349 1.394 . S
C348 H358 0.932 . S
C349 C345 1.308 . S
C349 C348 1.394 . S
C349 H359 0.929 . S
C350 Tb321 2.764 1_565 S
C350 O334 1.239 . S
C350 O335 1.263 . S
C350 C344 1.504 . S
C351 O336 1.236 . S
C351 O337 1.257 . S
H352 C325 0.932 . S
H353 C326 0.930 . S
H354 C327 0.932 . S
H355 C328 0.929 . S
H356 C346 0.932 . S
H357 C347 0.930 . S
H358 C348 0.932 . S
H359 C349 0.929 . S
Tb360 C369 2.764 . S
Tb360 O370 2.325 1_554 S
Tb360 O373 2.303 . S
Tb360 O377 2.322 1_545 S
Tb360 O378 2.339 1_544 S
Tb360 O381 2.415 . S
Tb360 O382 2.399 . S
Tb361 O371 2.322 1_565 S
Tb361 O372 2.349 1_566 S
Tb361 O374 2.415 . S
Tb361 O375 2.399 . S
Tb361 O376 2.325 1_556 S
Tb361 O379 2.303 . S
Tb361 C390 2.764 . S
C362 O378 1.274 . S
C362 O379 1.257 . S
C363 C366 1.358 . S
C363 C367 1.332 . S
C363 C369 1.504 . S
C364 C365 1.373 . S
C364 C368 1.308 . S
C365 C364 1.373 . S
C365 C366 1.429 . S
C365 H392 0.932 . S
C366 C363 1.358 . S
C366 C365 1.429 . S
C366 H393 0.930 . S
C367 C363 1.332 . S
C367 C368 1.394 . S
C367 H394 0.932 . S
C368 C364 1.308 . S
C368 C367 1.394 . S
C368 H395 0.929 . S
C369 Tb360 2.764 . S
C369 C363 1.504 . S
C369 O381 1.239 . S
C369 O382 1.263 . S
O370 Tb360 2.325 1_556 S
O370 C380 1.236 . S
O371 Tb361 2.322 1_545 S
O371 C380 1.257 . S
O372 Tb361 2.349 1_544 S
O372 C383 1.261 . S
O373 Tb360 2.303 . S
O373 C383 1.257 . S
O374 Tb361 2.415 . S
O374 C390 1.239 . S
O375 Tb361 2.399 . S
O375 C390 1.263 . S
O376 Tb361 2.325 1_554 S
O376 C391 1.236 . S
O377 Tb360 2.322 1_565 S
O377 C391 1.257 . S
O378 Tb360 2.339 1_566 S
O378 C362 1.274 . S
O379 Tb361 2.303 . S
O379 C362 1.257 . S
C380 O370 1.236 . S
C380 O371 1.257 . S
O381 Tb360 2.415 . S
O381 C369 1.239 . S
O382 Tb360 2.399 . S
O382 C369 1.263 . S
C383 O372 1.261 . S
C383 O373 1.257 . S
C384 C387 1.358 . S
C384 C388 1.332 . S
C384 C390 1.504 . S
C385 C386 1.373 . S
C385 C389 1.308 . S
C386 C385 1.373 . S
C386 C387 1.429 . S
C386 H396 0.932 . S
C387 C384 1.358 . S
C387 C386 1.429 . S
C387 H397 0.930 . S
C388 C384 1.332 . S
C388 C389 1.394 . S
C388 H398 0.932 . S
C389 C385 1.308 . S
C389 C388 1.394 . S
C389 H399 0.929 . S
C390 Tb361 2.764 . S
C390 O374 1.239 . S
C390 O375 1.263 . S
C390 C384 1.504 . S
C391 O376 1.236 . S
C391 O377 1.257 . S
H392 C365 0.932 . S
H393 C366 0.930 . S
H394 C367 0.932 . S
H395 C368 0.929 . S
H396 C386 0.932 . S
H397 C387 0.930 . S
H398 C388 0.932 . S
H399 C389 0.929 . S
Tb400 C409 2.764 . S
Tb400 O410 2.325 . S
Tb400 O413 2.303 . S
Tb400 O417 2.322 . S
Tb400 O418 2.349 . S
Tb400 O421 2.415 . S
Tb400 O422 2.399 . S
Tb401 O411 2.322 . S
Tb401 O412 2.349 . S
Tb401 O414 2.415 . S
Tb401 O415 2.399 . S
Tb401 O416 2.325 . S
Tb401 O419 2.303 . S
Tb401 C430 2.764 . S
C402 O418 1.261 . S
C402 O419 1.257 . S
C403 C406 1.358 . S
C403 C407 1.332 . S
C403 C409 1.504 . S
C404 C405 1.373 . S
C404 C408 1.308 . S
C405 C404 1.373 . S
C405 C406 1.429 . S
C405 H432 0.932 . S
C406 C403 1.358 . S
C406 C405 1.429 . S
C406 H433 0.930 . S
C407 C403 1.332 . S
C407 C408 1.394 . S
C407 H434 0.932 . S
C408 C404 1.308 . S
C408 C407 1.394 . S
C408 H435 0.929 . S
C409 Tb400 2.764 . S
C409 C403 1.504 . S
C409 O421 1.239 . S
C409 O422 1.263 . S
O410 Tb400 2.325 . S
O410 C420 1.236 . S
O411 Tb401 2.322 . S
O411 C420 1.257 . S
O412 Tb401 2.349 . S
O412 C423 1.261 . S
O413 Tb400 2.303 . S
O413 C423 1.257 . S
O414 Tb401 2.415 . S
O414 C430 1.239 . S
O415 Tb401 2.399 . S
O415 C430 1.263 . S
O416 Tb401 2.325 . S
O416 C431 1.236 . S
O417 Tb400 2.322 . S
O417 C431 1.257 . S
O418 Tb400 2.349 . S
O418 C402 1.261 . S
O419 Tb401 2.303 . S
O419 C402 1.257 . S
C420 O410 1.236 . S
C420 O411 1.257 . S
O421 Tb400 2.415 . S
O421 C409 1.239 . S
O422 Tb400 2.399 . S
O422 C409 1.263 . S
C423 O412 1.261 . S
C423 O413 1.257 . S
C424 C427 1.358 . S
C424 C428 1.332 . S
C424 C430 1.504 . S
C425 C426 1.373 . S
C425 C429 1.308 . S
C426 C425 1.373 . S
C426 C427 1.429 . S
C426 H436 0.932 . S
C427 C424 1.358 . S
C427 C426 1.429 . S
C427 H437 0.930 . S
C428 C424 1.332 . S
C428 C429 1.394 . S
C428 H438 0.932 . S
C429 C425 1.308 . S
C429 C428 1.394 . S
C429 H439 0.929 . S
C430 Tb401 2.764 . S
C430 O414 1.239 . S
C430 O415 1.263 . S
C430 C424 1.504 . S
C431 O416 1.236 . S
C431 O417 1.257 . S
H432 C405 0.932 . S
H433 C406 0.930 . S
H434 C407 0.932 . S
H435 C408 0.929 . S
H436 C426 0.932 . S
H437 C427 0.930 . S
H438 C428 0.932 . S
H439 C429 0.929 . S
Tb440 C449 2.763 1_455 S
Tb440 O450 2.324 1_455 S
Tb440 O453 2.303 1_456 S
Tb440 O457 2.333 . S
Tb440 O458 2.350 . S
Tb440 O461 2.414 1_455 S
Tb440 O462 2.398 1_455 S
Tb441 O451 2.322 1_455 S
Tb441 O452 2.349 1_455 S
Tb441 O454 2.415 . S
Tb441 O455 2.399 . S
Tb441 O456 2.325 . S
Tb441 O459 2.303 1_554 S
Tb441 C470 2.764 . S
C442 O458 1.261 . S
C442 O459 1.257 . S
C443 C446 1.358 . S
C443 C447 1.332 . S
C443 C449 1.504 . S
C444 C445 1.373 . S
C444 C448 1.308 . S
C445 C444 1.373 . S
C445 C446 1.429 . S
C445 H472 0.932 . S
C446 C443 1.358 . S
C446 C445 1.429 . S
C446 H473 0.930 . S
C447 C443 1.332 . S
C447 C448 1.394 . S
C447 H474 0.932 . S
C448 C444 1.308 . S
C448 C447 1.394 . S
C448 H475 0.929 . S
C449 Tb440 2.763 1_655 S
C449 C443 1.504 . S
C449 O461 1.239 . S
C449 O462 1.263 . S
O450 Tb440 2.324 1_655 S
O450 C460 1.236 . S
O451 Tb441 2.322 1_655 S
O451 C460 1.257 1_554 S
O452 Tb441 2.349 1_655 S
O452 C463 1.261 . S
O453 Tb440 2.303 1_654 S
O453 C463 1.257 . S
O454 Tb441 2.415 . S
O454 C470 1.239 . S
O455 Tb441 2.399 . S
O455 C470 1.263 . S
O456 Tb441 2.325 . S
O456 C471 1.236 . S
O457 Tb440 2.333 . S
O457 C471 1.242 1_556 S
O458 Tb440 2.350 . S
O458 C442 1.261 . S
O459 Tb441 2.303 1_556 S
O459 C442 1.257 . S
C460 O450 1.236 . S
C460 O451 1.257 1_556 S
O461 Tb440 2.414 1_655 S
O461 C449 1.239 . S
O462 Tb440 2.398 1_655 S
O462 C449 1.263 . S
C463 O452 1.261 . S
C463 O453 1.257 . S
C464 C467 1.358 . S
C464 C468 1.332 . S
C464 C470 1.504 . S
C465 C466 1.373 . S
C465 C469 1.308 . S
C466 C465 1.373 . S
C466 C467 1.429 . S
C466 H476 0.932 . S
C467 C464 1.358 . S
C467 C466 1.429 . S
C467 H477 0.930 . S
C468 C464 1.332 . S
C468 C469 1.394 . S
C468 H478 0.932 . S
C469 C465 1.308 . S
C469 C468 1.394 . S
C469 H479 0.929 . S
C470 Tb441 2.764 . S
C470 O454 1.239 . S
C470 O455 1.263 . S
C470 C464 1.504 . S
C471 O456 1.236 . S
C471 O457 1.242 1_554 S
H472 C445 0.932 . S
H473 C446 0.930 . S
H474 C447 0.932 . S
H475 C448 0.929 . S
H476 C466 0.932 . S
H477 C467 0.930 . S
H478 C468 0.932 . S
H479 C469 0.929 . S
C480 C481 1.369 . S
C480 C482 1.419 . S
C480 H484 0.930 . S
C481 C480 1.369 . S
C481 C490 1.429 . S
C482 C480 1.419 . S
C482 C483 1.363 . S
C482 H485 0.929 . S
C483 C482 1.363 . S
C483 C489 1.428 . S
H484 C480 0.930 . S
H485 C482 0.929 . S
S486 N487 1.613 . S
S486 N488 1.610 . S
N487 S486 1.613 . S
N487 C490 1.350 . S
N488 S486 1.610 . S
N488 C489 1.351 . S
C489 C483 1.428 . S
C489 N488 1.351 . S
C489 C490 1.434 . S
C490 C481 1.429 . S
C490 N487 1.350 . S
C490 C489 1.434 . S
C491 C492 1.369 . S
C491 C493 1.419 . S
C491 H495 0.930 . S
C492 C491 1.369 . S
C492 C501 1.429 . S
C493 C491 1.419 . S
C493 C494 1.363 . S
C493 H496 0.929 . S
C494 C493 1.363 . S
C494 C500 1.428 . S
H495 C491 0.930 . S
H496 C493 0.929 . S
S497 N498 1.613 . S
S497 N499 1.610 . S
N498 S497 1.613 . S
N498 C501 1.350 . S
N499 S497 1.610 . S
N499 C500 1.351 . S
C500 C494 1.428 . S
C500 N499 1.351 . S
C500 C501 1.434 . S
C501 C492 1.429 . S
C501 N498 1.350 . S
C501 C500 1.434 . S
C502 C503 1.369 . S
C502 C504 1.419 . S
C502 H506 0.930 . S
C503 C502 1.369 . S
C503 C512 1.429 . S
C504 C502 1.419 . S
C504 C505 1.363 . S
C504 H507 0.929 . S
C505 C504 1.363 . S
C505 C511 1.428 . S
H506 C502 0.930 . S
H507 C504 0.929 . S
S508 N509 1.613 . S
S508 N510 1.610 . S
N509 S508 1.613 . S
N509 C512 1.350 . S
N510 S508 1.610 . S
N510 C511 1.351 . S
C511 C505 1.428 . S
C511 N510 1.351 . S
C511 C512 1.434 . S
C512 C503 1.429 . S
C512 N509 1.350 . S
C512 C511 1.434 . S
C513 C514 1.369 . S
C513 C515 1.419 . S
C513 H517 0.930 . S
C514 C513 1.369 . S
C514 C523 1.429 . S
C515 C513 1.419 . S
C515 C516 1.363 . S
C515 H518 0.929 . S
C516 C515 1.363 . S
C516 C522 1.428 . S
H517 C513 0.930 . S
H518 C515 0.929 . S
S519 N520 1.613 . S
S519 N521 1.610 . S
N520 S519 1.613 . S
N520 C523 1.350 1_455 S
N521 S519 1.610 . S
N521 C522 1.351 1_455 S
C522 C516 1.428 . S
C522 N521 1.351 1_655 S
C522 C523 1.434 . S
C523 C514 1.429 . S
C523 N520 1.350 1_655 S
C523 C522 1.434 . S
C524 C525 1.369 . S
C524 C526 1.419 . S
C524 H528 0.930 . S
C525 C524 1.369 . S
C525 C534 1.429 . S
C526 C524 1.419 . S
C526 C527 1.363 . S
C526 H529 0.929 . S
C527 C526 1.363 . S
C527 C533 1.428 . S
H528 C524 0.930 . S
H529 C526 0.929 . S
S530 N531 1.613 . S
S530 N532 1.610 . S
N531 S530 1.613 . S
N531 C534 1.350 . S
N532 S530 1.610 . S
N532 C533 1.351 . S
C533 C527 1.428 . S
C533 N532 1.351 . S
C533 C534 1.434 . S
C534 C525 1.429 . S
C534 N531 1.350 . S
C534 C533 1.434 . S
C535 C536 1.369 . S
C535 C537 1.419 . S
C535 H539 0.930 1_455 S
C536 C535 1.369 . S
C536 C545 1.429 . S
C537 C535 1.419 . S
C537 C538 1.363 . S
C537 H540 0.929 1_455 S
C538 C537 1.363 . S
C538 C544 1.428 . S
H539 C535 0.930 1_655 S
H540 C537 0.929 1_655 S
S541 N542 1.613 . S
S541 N543 1.610 . S
N542 S541 1.613 . S
N542 C545 1.350 . S
N543 S541 1.610 . S
N543 C544 1.351 . S
C544 C538 1.428 . S
C544 N543 1.351 . S
C544 C545 1.434 . S
C545 C536 1.429 . S
C545 N542 1.350 . S
C545 C544 1.434 . S
C546 C547 1.369 . S
C546 C548 1.419 . S
C546 H550 0.930 . S
C547 C546 1.369 . S
C547 C556 1.429 . S
C548 C546 1.419 . S
C548 C549 1.363 . S
C548 H551 0.929 . S
C549 C548 1.363 . S
C549 C555 1.428 . S
H550 C546 0.930 . S
H551 C548 0.929 . S
S552 N553 1.613 . S
S552 N554 1.610 . S
N553 S552 1.613 . S
N553 C556 1.350 . S
N554 S552 1.610 . S
N554 C555 1.351 . S
C555 C549 1.428 . S
C555 N554 1.351 . S
C555 C556 1.434 . S
C556 C547 1.429 . S
C556 N553 1.350 . S
C556 C555 1.434 . S
C557 C558 1.369 . S
C557 C559 1.419 . S
C557 H561 0.930 . S
C558 C557 1.369 . S
C558 C567 1.429 . S
C559 C557 1.419 . S
C559 C560 1.363 . S
C559 H562 0.929 . S
C560 C559 1.363 . S
C560 C566 1.428 . S
H561 C557 0.930 . S
H562 C559 0.929 . S
S563 N564 1.613 . S
S563 N565 1.610 . S
N564 S563 1.613 . S
N564 C567 1.350 . S
N565 S563 1.610 . S
N565 C566 1.351 . S
C566 C560 1.428 . S
C566 N565 1.351 . S
C566 C567 1.434 . S
C567 C558 1.429 . S
C567 N564 1.350 . S
C567 C566 1.434 . S
C568 C569 1.369 . S
C568 C570 1.419 . S
C568 H572 0.930 . S
C569 C568 1.369 . S
C569 C578 1.429 . S
C570 C568 1.419 . S
C570 C571 1.363 . S
C570 H573 0.929 . S
C571 C570 1.363 . S
C571 C577 1.428 . S
H572 C568 0.930 . S
H573 C570 0.929 . S
S574 N575 1.613 . S
S574 N576 1.610 . S
N575 S574 1.613 . S
N575 C578 1.350 . S
N576 S574 1.610 . S
N576 C577 1.351 . S
C577 C571 1.428 . S
C577 N576 1.351 . S
C577 C578 1.434 . S
C578 C569 1.429 . S
C578 N575 1.350 . S
C578 C577 1.434 . S
C579 C580 1.369 . S
C579 C581 1.419 . S
C579 H583 0.930 . S
C580 C579 1.369 . S
C580 C589 1.429 . S
C581 C579 1.419 . S
C581 C582 1.363 . S
C581 H584 0.929 . S
C582 C581 1.363 . S
C582 C588 1.428 . S
H583 C579 0.930 . S
H584 C581 0.929 . S
S585 N586 1.613 1_554 S
S585 N587 1.610 1_554 S
N586 S585 1.613 1_556 S
N586 C589 1.350 . S
N587 S585 1.610 1_556 S
N587 C588 1.351 . S
C588 C582 1.428 . S
C588 N587 1.351 . S
C588 C589 1.434 . S
C589 C580 1.429 . S
C589 N586 1.350 . S
C589 C588 1.434 . S
C590 C591 1.369 . S
C590 C592 1.419 . S
C590 H594 0.930 . S
C591 C590 1.369 . S
C591 C600 1.429 . S
C592 C590 1.419 . S
C592 C593 1.363 . S
C592 H595 0.929 . S
C593 C592 1.363 . S
C593 C599 1.428 . S
H594 C590 0.930 . S
H595 C592 0.929 . S
S596 N597 1.613 . S
S596 N598 1.610 . S
N597 S596 1.613 . S
N597 C600 1.350 . S
N598 S596 1.610 . S
N598 C599 1.351 . S
C599 C593 1.428 . S
C599 N598 1.351 . S
C599 C600 1.434 . S
C600 C591 1.429 . S
C600 N597 1.350 . S
C600 C599 1.434 . S
C601 C602 1.369 . S
C601 C603 1.419 . S
C601 H605 0.930 . S
C602 C601 1.369 . S
C602 C611 1.429 . S
C603 C601 1.419 . S
C603 C604 1.363 . S
C603 H606 0.929 . S
C604 C603 1.363 . S
C604 C610 1.428 . S
H605 C601 0.930 . S
H606 C603 0.929 . S
S607 N608 1.613 . S
S607 N609 1.610 . S
N608 S607 1.613 . S
N608 C611 1.350 . S
N609 S607 1.610 . S
N609 C610 1.351 . S
C610 C604 1.428 . S
C610 N609 1.351 . S
C610 C611 1.434 . S
C611 C602 1.429 . S
C611 N608 1.350 . S
C611 C610 1.434 . S
C612 C613 1.369 . S
C612 C614 1.419 . S
C612 H616 0.930 . S
C613 C612 1.369 . S
C613 C622 1.429 . S
C614 C612 1.419 . S
C614 C615 1.363 . S
C614 H617 0.929 . S
C615 C614 1.363 . S
C615 C621 1.428 . S
H616 C612 0.930 . S
H617 C614 0.929 . S
S618 N619 1.613 . S
S618 N620 1.610 . S
N619 S618 1.613 . S
N619 C622 1.350 . S
N620 S618 1.610 . S
N620 C621 1.351 . S
C621 C615 1.428 . S
C621 N620 1.351 . S
C621 C622 1.434 . S
C622 C613 1.429 . S
C622 N619 1.350 . S
C622 C621 1.434 . S
C623 C624 1.369 . S
C623 C625 1.419 . S
C623 H627 0.930 . S
C624 C623 1.369 . S
C624 C633 1.429 . S
C625 C623 1.419 . S
C625 C626 1.363 . S
C625 H628 0.929 . S
C626 C625 1.363 . S
C626 C632 1.428 . S
H627 C623 0.930 . S
H628 C625 0.929 . S
S629 N630 1.613 . S
S629 N631 1.610 . S
N630 S629 1.613 . S
N630 C633 1.350 . S
N631 S629 1.610 . S
N631 C632 1.351 . S
C632 C626 1.428 . S
C632 N631 1.351 . S
C632 C633 1.434 . S
C633 C624 1.429 . S
C633 N630 1.350 . S
C633 C632 1.434 . S
C634 C635 1.369 . S
C634 C636 1.419 . S
C634 H638 0.930 . S
C635 C634 1.369 . S
C635 C644 1.429 . S
C636 C634 1.419 . S
C636 C637 1.363 . S
C636 H639 0.929 . S
C637 C636 1.363 . S
C637 C643 1.428 . S
H638 C634 0.930 . S
H639 C636 0.929 . S
S640 N641 1.613 . S
S640 N642 1.610 . S
N641 S640 1.613 . S
N641 C644 1.350 . S
N642 S640 1.610 . S
N642 C643 1.351 . S
C643 C637 1.428 . S
C643 N642 1.351 . S
C643 C644 1.434 . S
C644 C635 1.429 . S
C644 N641 1.350 . S
C644 C643 1.434 . S
C645 C646 1.369 . S
C645 C647 1.419 . S
C645 H649 0.930 . S
C646 C645 1.369 . S
C646 C655 1.429 . S
C647 C645 1.419 . S
C647 C648 1.363 . S
C647 H650 0.929 . S
C648 C647 1.363 . S
C648 C654 1.428 . S
H649 C645 0.930 . S
H650 C647 0.929 . S
S651 N652 1.613 . S
S651 N653 1.610 . S
N652 S651 1.613 . S
N652 C655 1.350 . S
N653 S651 1.610 . S
N653 C654 1.351 . S
C654 C648 1.428 . S
C654 N653 1.351 . S
C654 C655 1.434 . S
C655 C646 1.429 . S
C655 N652 1.350 . S
C655 C654 1.434 . S
C656 C657 1.369 . S
C656 C658 1.419 . S
C656 H660 0.930 . S
C657 C656 1.369 . S
C657 C666 1.429 . S
C658 C656 1.419 . S
C658 C659 1.363 . S
C658 H661 0.929 . S
C659 C658 1.363 . S
C659 C665 1.428 . S
H660 C656 0.930 . S
H661 C658 0.929 . S
S662 N663 1.613 . S
S662 N664 1.610 . S
N663 S662 1.613 . S
N663 C666 1.350 . S
N664 S662 1.610 . S
N664 C665 1.351 . S
C665 C659 1.428 . S
C665 N664 1.351 . S
C665 C666 1.434 . S
C666 C657 1.429 . S
C666 N663 1.350 . S
C666 C665 1.434 . S
C667 C668 1.369 . S
C667 C669 1.419 . S
C667 H671 0.930 . S
C668 C667 1.369 . S
C668 C677 1.429 . S
C669 C667 1.419 . S
C669 C670 1.363 . S
C669 H672 0.929 . S
C670 C669 1.363 . S
C670 C676 1.428 . S
H671 C667 0.930 . S
H672 C669 0.929 . S
S673 N674 1.613 . S
S673 N675 1.610 . S
N674 S673 1.613 . S
N674 C677 1.350 1_455 S
N675 S673 1.610 . S
N675 C676 1.351 1_455 S
C676 C670 1.428 . S
C676 N675 1.351 1_655 S
C676 C677 1.434 . S
C677 C668 1.429 . S
C677 N674 1.350 1_655 S
C677 C676 1.434 . S
C678 C679 1.369 . S
C678 C680 1.419 . S
C678 H682 0.930 . S
C679 C678 1.369 . S
C679 C688 1.429 . S
C680 C678 1.419 . S
C680 C681 1.363 . S
C680 H683 0.957 . S
C681 C680 1.363 . S
C681 C687 1.428 . S
H682 C678 0.930 . S
H683 C680 0.957 . S
S684 N685 1.613 . S
S684 N686 1.610 . S
N685 S684 1.613 . S
N685 C688 1.350 . S
N686 S684 1.610 . S
N686 C687 1.351 . S
C687 C681 1.428 . S
C687 N686 1.351 . S
C687 C688 1.434 . S
C688 C679 1.429 . S
C688 N685 1.350 . S
C688 C687 1.434 . S
C689 C690 1.369 . S
C689 C691 1.419 . S
C689 H693 0.930 . S
C690 C689 1.369 . S
C690 C699 1.429 . S
C691 C689 1.419 . S
C691 C692 1.363 . S
C691 H694 0.929 . S
C692 C691 1.363 . S
C692 C698 1.428 . S
H693 C689 0.930 . S
H694 C691 0.929 . S
S695 N696 1.613 . S
S695 N697 1.610 . S
N696 S695 1.613 . S
N696 C699 1.350 . S
N697 S695 1.610 . S
N697 C698 1.351 . S
C698 C692 1.428 . S
C698 N697 1.351 . S
C698 C699 1.434 . S
C699 C690 1.429 . S
C699 N696 1.350 . S
C699 C698 1.434 . S
C700 C701 1.369 . S
C700 C702 1.419 . S
C700 H704 0.930 . S
C701 C700 1.369 . S
C701 C710 1.429 . S
C702 C700 1.419 . S
C702 C703 1.363 . S
C702 H705 0.929 . S
C703 C702 1.363 . S
C703 C709 1.428 . S
H704 C700 0.930 . S
H705 C702 0.929 . S
S706 N707 1.613 . S
S706 N708 1.610 . S
N707 S706 1.613 . S
N707 C710 1.350 . S
N708 S706 1.610 . S
N708 C709 1.351 . S
C709 C703 1.428 . S
C709 N708 1.351 . S
C709 C710 1.434 . S
C710 C701 1.429 . S
C710 N707 1.350 . S
C710 C709 1.434 . S
C711 C712 1.369 . S
C711 C713 1.419 . S
C711 H715 0.930 . S
C712 C711 1.369 . S
C712 C721 1.429 . S
C713 C711 1.419 . S
C713 C714 1.363 . S
C713 H716 0.929 . S
C714 C713 1.363 . S
C714 C720 1.428 . S
H715 C711 0.930 . S
H716 C713 0.929 . S
S717 N718 1.613 . S
S717 N719 1.610 . S
N718 S717 1.613 . S
N718 C721 1.350 . S
N719 S717 1.610 . S
N719 C720 1.351 . S
C720 C714 1.428 . S
C720 N719 1.351 . S
C720 C721 1.434 . S
C721 C712 1.429 . S
C721 N718 1.350 . S
C721 C720 1.434 . S
C722 C723 1.369 . S
C722 C724 1.419 . S
C722 H726 0.930 . S
C723 C722 1.369 . S
C723 C732 1.429 . S
C724 C722 1.419 . S
C724 C725 1.363 . S
C724 H727 0.929 . S
C725 C724 1.363 . S
C725 C731 1.428 . S
H726 C722 0.930 . S
H727 C724 0.929 . S
S728 N729 1.613 . S
S728 N730 1.610 . S
N729 S728 1.613 . S
N729 C732 1.350 . S
N730 S728 1.610 . S
N730 C731 1.351 . S
C731 C725 1.428 . S
C731 N730 1.351 . S
C731 C732 1.434 . S
C732 C723 1.429 . S
C732 N729 1.350 . S
C732 C731 1.434 . S
C733 C734 1.369 . S
C733 C735 1.419 . S
C733 H737 0.930 . S
C734 C733 1.369 . S
C734 C743 1.429 . S
C735 C733 1.419 . S
C735 C736 1.363 . S
C735 H738 0.929 . S
C736 C735 1.363 . S
C736 C742 1.428 . S
H737 C733 0.930 . S
H738 C735 0.929 . S
S739 N740 1.613 . S
S739 N741 1.610 . S
N740 S739 1.613 . S
N740 C743 1.350 . S
N741 S739 1.610 . S
N741 C742 1.351 . S
C742 C736 1.428 . S
C742 N741 1.351 . S
C742 C743 1.434 . S
C743 C734 1.429 . S
C743 N740 1.350 . S
C743 C742 1.434 . S
C481 C21 1.079 . S
C483 C324 1.191 . S
C492 C61 1.413 . S
C494 C385 1.447 . S
C505 C423 2.474 . S
C503 C82 2.546 . S
C514 C135 2.409 . S
C516 C463 2.352 . S
C527 C383 1.608 . S
C525 C15 1.471 . S
C538 C351 2.438 . S
C536 C42 2.350 . S
C549 C460 1.806 . S
C547 C101 1.819 . S
C560 C420 1.860 . S
C558 C122 1.882 . S
C569 C2 1.347 . S
C571 C465 1.419 . S
C582 C380 2.348 . S
C580 C95 2.343 . S
C591 C141 2.265 . S
C593 C322 2.219 . S
C602 C55 1.802 . S
C604 C425 1.907 . S
C615 C345 1.193 . S
C613 C181 1.201 . S
C624 C202 1.363 . S
C626 C364 1.443 . S
C635 C255 2.544 . S
C637 C402 2.468 . S
C646 C295 2.378 . S
C648 C442 2.325 . S
C657 C175 1.458 . S
C659 C362 1.584 . S
C670 C340 2.429 . S
C668 C221 2.344 . S
C681 C471 1.737 . S
C679 C242 1.741 . S
C692 C431 1.925 . S
C690 C301 1.927 . S
C701 C162 1.447 . S
C703 C444 1.411 . S
C714 C391 2.395 . S
C712 C261 2.348 . S
C725 C343 2.196 . S
C723 C282 2.244 . S
C734 C215 1.795 . S
C736 C404 1.909 . S
