# Generated by pormake.
# Topology tsx, (6,3)-cn, num edge types: 1
# Building blocks:
#     Node 0, Type 0, BuildingBlock: VOLQOD_clean_sbu_1, # of connection points: 6
#     Node 1, Type 0, BuildingBlock: VOLQOD_clean_sbu_1, # of connection points: 6
#     Node 2, Type 1, BuildingBlock: OLANEW_clean_sbu_2, # of connection points: 3
#     Node 3, Type 1, BuildingBlock: OLANEW_clean_sbu_2, # of connection points: 3
#     Node 4, Type 1, BuildingBlock: OLANEW_clean_sbu_2, # of connection points: 3
#     Node 5, Type 1, BuildingBlock: OLANEW_clean_sbu_2, # of connection points: 3
#     Edge 6, Type (0, 1), BuildingBlock: FUNLAD_clean_linker_1, # of connection points: 2
#     Edge 7, Type (0, 1), BuildingBlock: FUNLAD_clean_linker_1, # of connection points: 2
#     Edge 8, Type (0, 1), BuildingBlock: FUNLAD_clean_linker_1, # of connection points: 2
#     Edge 9, Type (0, 1), BuildingBlock: FUNLAD_clean_linker_1, # of connection points: 2
#     Edge 10, Type (0, 1), BuildingBlock: FUNLAD_clean_linker_1, # of connection points: 2
#     Edge 11, Type (0, 1), BuildingBlock: FUNLAD_clean_linker_1, # of connection points: 2
#     Edge 12, Type (0, 1), BuildingBlock: FUNLAD_clean_linker_1, # of connection points: 2
#     Edge 13, Type (0, 1), BuildingBlock: FUNLAD_clean_linker_1, # of connection points: 2
#     Edge 14, Type (0, 1), BuildingBlock: FUNLAD_clean_linker_1, # of connection points: 2
#     Edge 15, Type (0, 1), BuildingBlock: FUNLAD_clean_linker_1, # of connection points: 2
#     Edge 16, Type (0, 1), BuildingBlock: FUNLAD_clean_linker_1, # of connection points: 2
#     Edge 17, Type (0, 1), BuildingBlock: FUNLAD_clean_linker_1, # of connection points: 2
# Relax obj value: 0.029
# Max RMSD: 0.076
# Mean RMSD: 0.071
data_MOF--net-tsx--node1-VOLQOD_clean_sbu_1--node2-OLANEW_clean_sbu_2--edge1-FUNLAD_clean_linker_1
_symmetry_space_group_name_H-M    P1
_symmetry_Int_Tables_number       1
_symmetry_cell_setting            triclinic
loop_
_symmetry_equiv_pos_as_xyz
'x, y, z'
_cell_length_a     23.410285
_cell_length_b     24.310341
_cell_length_c     40.403701
_cell_angle_alpha  95.715316
_cell_angle_beta   89.919646
_cell_angle_gamma 90.194088
loop_
_atom_site_label
_atom_site_type_symbol
_atom_site_fract_x
_atom_site_fract_y
_atom_site_fract_z
_atom_type_partial_charge
O0 O 0.05301 0.02272 0.09078 0.0
Zn1 Zn 0.07526 0.02257 0.04271 0.0
O2 O 0.00861 0.02721 0.0142 0.0
Zn3 Zn 1.00178 0.95967 0.98308 0.0
Zn4 Zn 0.94056 0.03572 0.0422 0.0
Zn5 Zn 0.01701 0.09183 0.98933 0.0
O6 O 1.00092 0.97861 0.93499 0.0
O7 O 0.0263 0.06746 0.94064 0.0
O8 O 0.12022 0.95394 0.02931 0.0
O9 O 0.07046 0.91029 0.98771 0.0
O10 O 0.93124 0.91493 0.99315 0.0
O11 O 0.8902 0.96889 0.03405 0.0
O12 O 0.8943 0.10162 0.03198 0.0
O13 O 0.12801 0.08723 0.0398 0.0
O14 O 0.9466 0.14026 0.99449 0.0
O15 O 0.08663 0.13761 0.00369 0.0
C16 C 0.00634 0.03279 0.10639 0.0
C17 C 0.01545 0.02283 0.92252 0.0
C18 C 0.89138 0.92457 0.01449 0.0
C19 C 0.11344 0.91346 0.00719 0.0
C20 C 0.90178 0.13885 0.01236 0.0
C21 C 0.12711 0.12951 0.02366 0.0
O22 O 0.96019 0.0415 0.09116 0.0
O23 O 0.56762 0.48734 0.57569 0.0
Zn24 Zn 0.57911 0.48594 0.52637 0.0
O25 O 0.50677 0.49481 0.50353 0.0
Zn26 Zn 0.4891 0.42756 0.47409 0.0
Zn27 Zn 0.44599 0.50917 0.53649 0.0
Zn28 Zn 0.51363 0.55775 0.47722 0.0
O29 O 0.48218 0.44517 0.42607 0.0
O30 O 0.51427 0.53181 0.42844 0.0
O31 O 0.6173 0.41453 0.50983 0.0
O32 O 0.55401 0.3727 0.47476 0.0
O33 O 0.41665 0.39007 0.48877 0.0
O34 O 0.3877 0.44789 0.53161 0.0
O35 O 0.40472 0.58054 0.53054 0.0
O36 O 0.63308 0.5485 0.52017 0.0
O37 O 0.44636 0.60903 0.48571 0.0
O38 O 0.58599 0.60191 0.48805 0.0
C39 C 0.52528 0.4993 0.59477 0.0
C40 C 0.49793 0.48724 0.41185 0.0
C41 C 0.38138 0.40371 0.51225 0.0
C42 C 0.60194 0.37352 0.48969 0.0
C43 C 0.40813 0.61403 0.50829 0.0
C44 C 0.62982 0.59185 0.50509 0.0
O45 O 0.4765 0.5108 0.58335 0.0
O46 O 0.03216 0.98972 0.37189 0.0
Cd47 Cd 0.02208 0.97317 0.43042 0.0
O48 O 0.09208 0.0595 0.38128 0.0
Cd49 Cd 0.06717 0.07117 0.43357 0.0
O50 O 1.00339 0.11595 0.46516 0.0
C51 C 0.95232 0.11145 0.45465 0.0
O52 O 0.94141 0.07813 0.42774 0.0
C53 C 0.06584 0.02496 0.36102 0.0
C54 C 0.09894 0.89197 0.44598 0.0
O55 O 0.05082 0.87898 0.43231 0.0
O56 O 0.11091 0.94337 0.45265 0.0
O57 O 0.98561 0.04893 0.64719 0.0
Cd58 Cd 0.99522 0.04282 0.5863 0.0
O59 O 0.02841 0.96924 0.65086 0.0
Cd60 Cd 0.01445 0.94311 0.59811 0.0
O61 O 0.95709 0.89528 0.56336 0.0
C62 C 0.9105 0.91678 0.55497 0.0
O63 O 0.89996 0.96873 0.56512 0.0
C64 C 0.00692 0.01363 0.66481 0.0
C65 C 0.08871 0.1023 0.56503 0.0
O66 O 0.03946 0.12491 0.56906 0.0
O67 O 0.094 0.0519 0.57118 0.0
O68 O 0.48586 0.45403 0.86768 0.0
Cd69 Cd 0.48899 0.46069 0.92853 0.0
O70 O 0.52971 0.53385 0.86561 0.0
Cd71 Cd 0.50944 0.55967 0.91746 0.0
O72 O 0.44151 0.60529 0.94502 0.0
C73 C 0.39085 0.59172 0.93621 0.0
O74 O 0.38293 0.54971 0.91363 0.0
C75 C 0.50953 0.48933 0.85091 0.0
C76 C 0.58883 0.41204 0.9493 0.0
O77 O 0.54294 0.38362 0.94403 0.0
O78 O 0.5875 0.46359 0.94524 0.0
O79 O 0.53508 0.53627 0.14449 0.0
Cd80 Cd 0.53346 0.54008 0.08404 0.0
O81 O 0.58678 0.46041 0.13966 0.0
Cd82 Cd 0.55844 0.44062 0.08827 0.0
O83 O 0.48942 0.39946 0.05864 0.0
C84 C 0.44438 0.42565 0.05238 0.0
O85 O 0.44133 0.4789 0.06143 0.0
C86 C 0.56424 0.50027 0.15777 0.0
C87 C 0.62368 0.60201 0.06145 0.0
O88 O 0.57524 0.6244 0.06889 0.0
O89 O 0.62973 0.55051 0.06478 0.0
H90 H 0.2072 0.16138 0.04678 0.0
C91 C 0.17486 0.16915 0.02852 0.0
H92 H 0.15012 0.22084 0.99194 0.0
H93 H 0.33926 0.36176 0.09287 0.0
H94 H 0.26452 0.36378 0.13446 0.0
H95 H 0.17265 0.31613 0.12217 0.0
H96 H 0.15553 0.26528 0.06834 0.0
C97 C 0.18058 0.21331 0.01124 0.0
C98 C 0.23128 0.25031 0.01653 0.0
C99 C 0.23951 0.28217 0.04753 0.0
C100 C 0.29146 0.31171 0.05406 0.0
C101 C 0.2999 0.34024 0.08602 0.0
C102 C 0.2574 0.34151 0.11025 0.0
C103 C 0.20577 0.31453 0.10338 0.0
C104 C 0.19667 0.28516 0.07245 0.0
H105 H 0.35463 0.42011 0.03585 0.0
C106 C 0.39267 0.39595 0.03959 0.0
H107 H 0.42686 0.31553 0.03953 0.0
H108 H 0.22737 0.19665 0.9537 0.0
H109 H 0.30024 0.19828 0.91102 0.0
H110 H 0.38901 0.2521 0.92169 0.0
H111 H 0.40561 0.30446 0.97522 0.0
C112 C 0.38934 0.34052 0.03609 0.0
C113 C 0.33402 0.31144 0.02896 0.0
C114 C 0.32465 0.28169 0.99747 0.0
C115 C 0.2732 0.25109 0.99123 0.0
C116 C 0.26545 0.22091 0.95972 0.0
C117 C 0.30695 0.22147 0.935 0.0
C118 C 0.35695 0.25175 0.94101 0.0
C119 C 0.36597 0.28155 0.97184 0.0
H120 H 0.1961 0.87743 0.01926 0.0
C121 C 0.15832 0.8709 0.00369 0.0
H122 H 0.11783 0.81761 0.96614 0.0
H123 H 0.38724 0.75264 0.93655 0.0
H124 H 0.39 0.83922 0.91164 0.0
H125 H 0.30762 0.90253 0.91623 0.0
H126 H 0.22198 0.87956 0.94579 0.0
C127 C 0.15541 0.82598 0.98159 0.0
C128 C 0.20407 0.78673 0.9777 0.0
C129 C 0.2538 0.80074 0.96029 0.0
C130 C 0.30116 0.7641 0.95753 0.0
C131 C 0.35009 0.77898 0.93968 0.0
C132 C 0.35223 0.82856 0.92515 0.0
C133 C 0.30588 0.86421 0.92775 0.0
C134 C 0.25707 0.85061 0.94496 0.0
H135 H 0.29983 0.61421 0.93738 0.0
C136 C 0.34155 0.62622 0.94752 0.0
H137 H 0.38896 0.68763 0.97621 0.0
H138 H 0.11472 0.74736 0.01212 0.0
H139 H 0.11208 0.66125 0.03786 0.0
H140 H 0.19518 0.59876 0.0345 0.0
H141 H 0.28123 0.62173 0.00521 0.0
C142 C 0.34711 0.67392 0.96709 0.0
C143 C 0.29845 0.71322 0.97191 0.0
C144 C 0.24883 0.69949 0.98961 0.0
C145 C 0.20133 0.73603 0.99214 0.0
C146 C 0.1521 0.72118 0.00964 0.0
C147 C 0.15004 0.67193 0.02453 0.0
C148 C 0.19679 0.6367 0.02259 0.0
C149 C 0.24579 0.65019 0.00548 0.0
H150 H 0.81253 0.89475 0.03636 0.0
C151 C 0.84666 0.88297 0.01879 0.0
H152 H 0.88191 0.81747 0.9868 0.0
H153 H 0.72209 0.70254 0.09913 0.0
H154 H 0.79709 0.734 0.13782 0.0
H155 H 0.87819 0.78894 0.11989 0.0
H156 H 0.88419 0.81353 0.06327 0.0
C157 C 0.84869 0.8306 0.00464 0.0
C158 C 0.80556 0.78936 0.01374 0.0
C159 C 0.80411 0.77304 0.04651 0.0
C160 C 0.75859 0.73942 0.05647 0.0
C161 C 0.75654 0.72651 0.08988 0.0
C162 C 0.79924 0.74449 0.11243 0.0
C163 C 0.8448 0.77557 0.10237 0.0
C164 C 0.84748 0.78974 0.06984 0.0
H165 H 0.71337 0.61445 0.04666 0.0
C166 C 0.67198 0.63441 0.04993 0.0
H167 H 0.62494 0.70748 0.04591 0.0
H168 H 0.79878 0.80866 0.94836 0.0
H169 H 0.72652 0.77307 0.9087 0.0
H170 H 0.64899 0.71266 0.9255 0.0
H171 H 0.64304 0.68759 0.98211 0.0
C172 C 0.66642 0.6875 0.0439 0.0
C173 C 0.71585 0.72024 0.03323 0.0
C174 C 0.71901 0.73414 1.00001 0.0
C175 C 0.76398 0.76865 0.99024 0.0
C176 C 0.76565 0.78244 0.95703 0.0
C177 C 0.72448 0.76227 0.93403 0.0
C178 C 0.6808 0.72828 0.9435 0.0
C179 C 0.67783 0.71428 0.97607 0.0
H180 H 0.81604 0.17341 0.02302 0.0
C181 C 0.85509 0.1786 0.00903 0.0
H182 H 0.89542 0.22246 0.97292 0.0
H183 H 0.66463 0.28167 0.90438 0.0
H184 H 0.70944 0.2198 0.86128 0.0
H185 H 0.79841 0.17084 0.87245 0.0
H186 H 0.84327 0.18366 0.92666 0.0
C187 C 0.85748 0.21797 0.98795 0.0
C188 C 0.80569 0.25046 0.981 0.0
C189 C 0.77996 0.24238 0.94912 0.0
C190 C 0.72818 0.26994 0.94281 0.0
C191 C 0.70357 0.26127 0.91069 0.0
C192 C 0.7289 0.22593 0.88567 0.0
C193 C 0.77901 0.19843 0.89194 0.0
C194 C 0.80438 0.20629 0.92322 0.0
H195 H 0.68018 0.4124 0.96302 0.0
C196 C 0.64251 0.38632 0.95899 0.0
H197 H 0.60968 0.30503 0.95654 0.0
H198 H 0.84793 0.28134 0.04327 0.0
H199 H 0.80219 0.34191 0.08674 0.0
H200 H 0.70931 0.3851 0.07692 0.0
H201 H 0.6621 0.36873 0.02347 0.0
C202 C 0.64646 0.33186 0.96181 0.0
C203 C 0.70206 0.30543 0.9684 0.0
C204 C 0.72824 0.31427 1.00014 0.0
C205 C 0.78068 0.28755 0.00625 0.0
C206 C 0.8071 0.29892 0.0377 0.0
C207 C 0.78148 0.33389 0.06279 0.0
C208 C 0.72928 0.35835 0.05724 0.0
C209 C 0.70276 0.34879 0.02635 0.0
H210 H 0.71226 0.62253 0.5256 0.0
C211 C 0.67718 0.63207 0.50951 0.0
H212 H 0.64359 0.6911 0.47967 0.0
H213 H 0.81589 0.83251 0.58876 0.0
H214 H 0.74095 0.81849 0.62845 0.0
H215 H 0.65617 0.76187 0.61184 0.0
H216 H 0.64641 0.71822 0.5555 0.0
C217 C 0.67735 0.6807 0.49637 0.0
C218 C 0.72388 0.72161 0.50484 0.0
C219 C 0.72773 0.74884 0.53749 0.0
C220 C 0.77549 0.78328 0.54669 0.0
C221 C 0.77972 0.80741 0.58001 0.0
C222 C 0.73709 0.79948 0.60316 0.0
C223 C 0.68946 0.76748 0.59384 0.0
C224 C 0.68459 0.74237 0.56145 0.0
H225 H 0.82413 0.90213 0.53417 0.0
C226 C 0.86461 0.88234 0.5386 0.0
H227 H 0.90892 0.80639 0.53683 0.0
H228 H 0.7273 0.67867 0.43973 0.0
H229 H 0.80045 0.6956 0.39921 0.0
H230 H 0.88217 0.75713 0.41477 0.0
H231 H 0.89142 0.80207 0.47099 0.0
C232 C 0.86891 0.82713 0.53268 0.0
C233 C 0.81816 0.79228 0.5228 0.0
C234 C 0.81319 0.76669 0.48985 0.0
C235 C 0.7659 0.73141 0.48083 0.0
C236 C 0.76229 0.70594 0.44784 0.0
C237 C 0.80394 0.71532 0.42436 0.0
C238 C 0.84997 0.74997 0.43312 0.0
C239 C 0.8548 0.77546 0.46546 0.0
H240 H 0.62804 0.29312 0.46391 0.0
C241 C 0.64131 0.32662 0.48215 0.0
H242 H 0.7072 0.35785 0.51462 0.0
H243 H 0.83005 0.12639 0.51743 0.0
H244 H 0.78838 0.13759 0.57269 0.0
H245 H 0.72177 0.21401 0.58892 0.0
H246 H 0.69617 0.27954 0.54992 0.0
C247 C 0.69365 0.32548 0.49575 0.0
C248 C 0.73447 0.27991 0.48594 0.0
C249 C 0.74978 0.24254 0.5092 0.0
C250 C 0.7888 0.19888 0.49999 0.0
C251 C 0.80176 0.16106 0.52336 0.0
C252 C 0.77786 0.16682 0.55511 0.0
C253 C 0.74031 0.20981 0.56424 0.0
C254 C 0.7261 0.24722 0.54163 0.0
H255 H 0.91987 0.17983 0.48975 0.0
C256 C 0.90772 0.14871 0.46978 0.0
H257 H 0.8425 0.11845 0.43676 0.0
H258 H 0.71912 0.34791 0.43636 0.0
H259 H 0.7609 0.3369 0.38129 0.0
H260 H 0.82693 0.26012 0.36491 0.0
H261 H 0.85183 0.19419 0.40362 0.0
C262 C 0.85432 0.14819 0.45752 0.0
C263 C 0.81307 0.19324 0.46765 0.0
C264 C 0.79792 0.23078 0.44442 0.0
C265 C 0.7591 0.27453 0.45367 0.0
C266 C 0.74685 0.31285 0.43042 0.0
C267 C 0.77094 0.30731 0.39874 0.0
C268 C 0.80815 0.26414 0.38953 0.0
C269 C 0.82189 0.22641 0.41202 0.0
H270 H 0.30314 0.38208 0.53836 0.0
C271 C 0.33306 0.36712 0.51892 0.0
H272 H 0.35542 0.29963 0.48425 0.0
H273 H 0.19369 0.19791 0.6012 0.0
H274 H 0.27357 0.22144 0.638 0.0
H275 H 0.35852 0.26886 0.61826 0.0
H276 H 0.36346 0.29412 0.5618 0.0
C277 C 0.32669 0.31546 0.50406 0.0
C278 C 0.27976 0.27894 0.51434 0.0
C279 C 0.27886 0.26172 0.54692 0.0
C280 C 0.23117 0.23172 0.55776 0.0
C281 C 0.22978 0.21858 0.59114 0.0
C282 C 0.27525 0.23215 0.61264 0.0
C283 C 0.32297 0.25904 0.60158 0.0
C284 C 0.32502 0.27371 0.56915 0.0
H285 H 0.17958 0.11211 0.55191 0.0
C286 C 0.1386 0.13307 0.55392 0.0
H287 H 0.09397 0.20656 0.54739 0.0
H288 H 0.26972 0.30209 0.44974 0.0
H289 H 0.1925 0.27359 0.41175 0.0
H290 H 0.11189 0.21801 0.42973 0.0
H291 H 0.10771 0.19097 0.48588 0.0
C292 C 0.13503 0.18575 0.54664 0.0
C293 C 0.18579 0.21628 0.53543 0.0
C294 C 0.18798 0.23131 0.50241 0.0
C295 C 0.23491 0.26273 0.49189 0.0
C296 C 0.23538 0.27787 0.45894 0.0
C297 C 0.19132 0.2618 0.43688 0.0
C298 C 0.1459 0.23056 0.44701 0.0
C299 C 0.14399 0.21541 0.47935 0.0
H300 H 0.34213 0.67031 0.53136 0.0
C301 C 0.36571 0.65886 0.50852 0.0
H302 H 0.37682 0.67172 0.45809 0.0
H303 H 0.12425 0.78702 0.50276 0.0
H304 H 0.09496 0.69685 0.51743 0.0
H305 H 0.16237 0.61868 0.51285 0.0
H306 H 0.25983 0.63081 0.49488 0.0
C307 C 0.35331 0.68322 0.48094 0.0
C308 C 0.31008 0.72824 0.48065 0.0
C309 C 0.25196 0.71909 0.4888 0.0
C310 C 0.21171 0.76286 0.48868 0.0
C311 C 0.15551 0.75423 0.50018 0.0
C312 C 0.13826 0.7028 0.50901 0.0
C313 C 0.17629 0.65891 0.50663 0.0
C314 C 0.23245 0.66666 0.49661 0.0
H315 H 0.13244 0.80701 0.44043 0.0
C316 C 0.13977 0.84833 0.45263 0.0
H317 H 0.19253 0.89924 0.48499 0.0
H318 H 0.4183 0.76099 0.46536 0.0
H319 H 0.44596 0.84934 0.44735 0.0
H320 H 0.3744 0.9221 0.44196 0.0
H321 H 0.27498 0.90729 0.45502 0.0
C322 C 0.18495 0.85788 0.47295 0.0
C323 C 0.22818 0.81403 0.47727 0.0
C324 C 0.28614 0.82302 0.4689 0.0
C325 C 0.32718 0.78043 0.47106 0.0
C326 C 0.38502 0.79126 0.46343 0.0
C327 C 0.4016 0.84193 0.45315 0.0
C328 C 0.36134 0.88292 0.45019 0.0
C329 C 0.3043 0.87383 0.45788 0.0
H330 H 0.96398 0.0395 0.15551 0.0
C331 C 0.00481 0.0328 0.14291 0.0
H332 H 0.09235 0.01478 0.14833 0.0
H333 H 0.00367 0.10286 0.30206 0.0
H334 H 0.98813 0.19136 0.28092 0.0
H335 H 1.00269 0.2027 0.2215 0.0
H336 H 0.03153 0.12517 0.18278 0.0
C337 C 0.05165 0.02337 0.16072 0.0
C338 C 0.04843 0.01855 0.19712 0.0
C339 C 0.03441 0.06504 0.21968 0.0
C340 C 0.02918 0.05922 0.25426 0.0
C341 C 0.01111 0.10541 0.27585 0.0
C342 C 1.00155 0.15645 0.26399 0.0
C343 C 0.0095 0.16278 0.23052 0.0
C344 C 0.02573 0.11779 0.20852 0.0
H345 H 0.10449 0.05614 0.31658 0.0
C346 C 0.0723 0.02829 0.32495 0.0
H347 H 0.00501 0.97287 0.31062 0.0
H348 H 0.07546 0.92103 0.16058 0.0
H349 H 0.09443 0.83324 0.18198 0.0
H350 H 0.09015 0.8243 0.24221 0.0
H351 H 0.06645 0.90304 0.2814 0.0
C352 C 0.03702 1.00123 0.30263 0.0
C353 C 0.04118 0.00764 0.26642 0.0
C354 C 0.05591 0.9614 0.24389 0.0
C355 C 0.05931 0.96679 0.20921 0.0
C356 C 0.07305 0.91958 0.18722 0.0
C357 C 0.08394 0.86884 0.19915 0.0
C358 C 0.08146 0.86379 0.23306 0.0
C359 C 0.06768 0.90935 0.25528 0.0
H360 H 0.05579 0.04991 0.87779 0.0
C361 C 0.02304 0.02282 0.88633 0.0
H362 H 0.9562 0.96719 0.87261 0.0
H363 H 0.04408 0.10175 0.74216 0.0
H364 H 0.0224 0.18687 0.77622 0.0
H365 H 0.98328 0.18493 0.83284 0.0
H366 H 0.96879 0.09796 0.85626 0.0
C367 C 0.9894 0.99372 0.86401 0.0
C368 C 0.9983 0.99482 0.82735 0.0
C369 C 1.00043 0.04573 0.81282 0.0
C370 C 0.01676 0.04659 0.77891 0.0
C371 C 0.0268 0.09841 0.7667 0.0
C372 C 0.01523 0.14768 0.78615 0.0
C373 C 0.99364 0.14661 0.8181 0.0
C374 C 0.98621 0.09638 0.83139 0.0
H375 H 0.96676 0.04805 0.71164 0.0
C376 C 1.0012 0.02176 0.70135 0.0
H377 H 0.06925 0.96961 0.71105 0.0
H378 H 0.99764 0.88977 0.84669 0.0
H379 H 0.00816 0.80442 0.81105 0.0
H380 H 0.02297 0.80527 0.75069 0.0
H381 H 0.02871 0.89141 0.72575 0.0
C382 C 0.035 0.99576 0.72172 0.0
C383 C 0.02324 0.99619 0.75822 0.0
C384 C 0.01752 0.9451 0.77228 0.0
C385 C 0.00652 0.94449 0.80695 0.0
C386 C 0.00423 0.89289 0.82046 0.0
C387 C 0.01036 0.84341 0.80028 0.0
C388 C 0.01885 0.84389 0.76632 0.0
C389 C 0.02237 0.89389 0.75235 0.0
H390 H 0.57763 0.49705 0.63988 0.0
C391 C 0.53407 0.49992 0.63091 0.0
H392 H 0.44693 0.50628 0.64424 0.0
H393 H 0.58635 0.42346 0.7758 0.0
H394 H 0.60978 0.34061 0.73998 0.0
H395 H 0.58076 0.33038 0.68101 0.0
H396 H 0.52964 0.40359 0.65733 0.0
C397 C 0.49064 0.50257 0.65275 0.0
C398 C 0.50126 0.50485 0.68921 0.0
C399 C 0.52807 0.46013 0.70309 0.0
C400 C 0.54147 0.46448 0.73759 0.0
C401 C 0.57237 0.42113 0.7502 0.0
C402 C 0.58653 0.37349 0.72984 0.0
C403 C 0.57045 0.36785 0.69661 0.0
C404 C 0.54152 0.41047 0.68327 0.0
H405 H 0.48447 0.44559 0.80265 0.0
C406 C 0.50901 0.48033 0.81427 0.0
H407 H 0.55768 0.55115 0.80668 0.0
H408 H 0.44985 0.59813 0.67064 0.0
H409 H 0.42148 0.67865 0.70702 0.0
H410 H 0.43847 0.68347 0.76747 0.0
H411 H 0.48455 0.60818 0.79183 0.0
C412 C 0.53433 0.51556 0.79517 0.0
C413 C 0.52438 0.51185 0.75859 0.0
C414 C 0.49634 0.55598 0.74483 0.0
C415 C 0.48525 0.55266 0.71008 0.0
C416 C 0.45848 0.59794 0.69692 0.0
C417 C 0.44202 0.64454 0.71752 0.0
C418 C 0.45167 0.64729 0.75153 0.0
C419 C 0.47839 0.60371 0.76517 0.0
H420 H 0.46957 0.45398 0.3616 0.0
C421 C 0.49742 0.48413 0.37519 0.0
H422 H 0.55978 0.54616 0.37233 0.0
H423 H 0.53194 0.41312 0.21859 0.0
H424 H 0.55577 0.32911 0.24289 0.0
H425 H 0.57341 0.33044 0.30314 0.0
H426 H 0.56471 0.41537 0.33951 0.0
C427 C 0.53174 0.51641 0.35853 0.0
C428 C 0.53029 0.51625 0.32156 0.0
C429 C 0.54069 0.4671 0.30036 0.0
C430 C 0.53601 0.46738 0.26523 0.0
C431 C 0.53958 0.41636 0.24507 0.0
C432 C 0.55256 0.36757 0.25876 0.0
C433 C 0.56209 0.36824 0.2927 0.0
C434 C 0.55632 0.41727 0.31336 0.0
H435 H 0.60645 0.48382 0.2046 0.0
C436 C 0.56902 0.50206 0.19422 0.0
H437 H 0.48772 0.53702 0.20366 0.0
H438 H 0.5062 0.61761 0.35474 0.0
H439 H 0.49028 0.70302 0.33017 0.0
H440 H 0.49285 0.70547 0.26932 0.0
H441 H 0.5104 0.62228 0.23267 0.0
C442 C 0.52554 0.51982 0.21428 0.0
C443 C 0.52726 0.518 0.25113 0.0
C444 C 0.51872 0.56743 0.27233 0.0
C445 C 0.51916 0.56637 0.30749 0.0
C446 C 0.50799 0.61605 0.32792 0.0
C447 C 0.49851 0.66549 0.31414 0.0
C448 C 0.49983 0.66684 0.27989 0.0
C449 C 0.50978 0.61861 0.25912 0.0
loop_
_geom_bond_atom_site_label_1
_geom_bond_atom_site_label_2
_geom_bond_distance
_geom_bond_site_symmetry_2
_ccdc_geom_bond_type
O0 Zn1 1.953 1_565 S
O0 C16 1.225 1_565 S
Zn1 O0 1.953 1_545 S
Zn1 O2 1.949 . S
Zn1 O8 1.917 1_545 S
Zn1 O13 1.927 . S
O2 Zn1 1.949 . S
O2 Zn3 1.923 1_444 S
O2 Zn4 1.950 1_455 S
O2 Zn5 1.945 1_554 S
Zn3 O2 1.923 1_666 S
Zn3 O6 1.933 . S
Zn3 O9 1.941 1_655 S
Zn3 O10 1.965 . S
Zn4 O2 1.950 1_655 S
Zn4 O11 1.938 1_545 S
Zn4 O12 1.906 . S
Zn4 O22 1.953 . S
Zn5 O2 1.945 1_556 S
Zn5 O7 1.932 . S
Zn5 O14 1.977 1_455 S
Zn5 O15 1.910 . S
O6 Zn3 1.933 . S
O6 C17 1.226 1_665 S
O7 Zn5 1.932 . S
O7 C17 1.307 . S
O8 Zn1 1.917 1_565 S
O8 C19 1.253 1_554 S
O9 Zn3 1.941 1_455 S
O9 C19 1.283 . S
O10 Zn3 1.965 . S
O10 C18 1.303 1_556 S
O11 Zn4 1.938 1_565 S
O11 C18 1.247 . S
O12 Zn4 1.906 . S
O12 C20 1.304 1_554 S
O13 Zn1 1.927 . S
O13 C21 1.311 . S
O14 Zn5 1.977 1_655 S
O14 C20 1.272 . S
O15 Zn5 1.910 . S
O15 C21 1.231 1_556 S
C16 O0 1.225 1_545 S
C16 O22 1.298 1_455 S
C17 O6 1.226 1_445 S
C17 O7 1.307 . S
C18 O10 1.303 1_554 S
C18 O11 1.247 . S
C19 O8 1.253 1_556 S
C19 O9 1.283 . S
C20 O12 1.304 1_556 S
C20 O14 1.272 . S
C21 O13 1.311 . S
C21 O15 1.231 1_554 S
O22 Zn4 1.953 . S
O22 C16 1.298 1_655 S
O23 Zn24 1.953 . S
O23 C39 1.225 . S
Zn24 O23 1.953 . S
Zn24 O25 1.949 . S
Zn24 O31 1.919 . S
Zn24 O36 1.924 . S
O25 Zn24 1.949 . S
O25 Zn26 1.923 . S
O25 Zn27 1.950 . S
O25 Zn28 1.945 . S
Zn26 O25 1.923 . S
Zn26 O29 1.933 . S
Zn26 O32 1.941 . S
Zn26 O33 1.965 . S
Zn27 O25 1.950 . S
Zn27 O34 1.938 . S
Zn27 O35 1.906 . S
Zn27 O45 1.953 . S
Zn28 O25 1.945 . S
Zn28 O30 1.932 . S
Zn28 O37 1.977 . S
Zn28 O38 1.910 . S
O29 Zn26 1.933 . S
O29 C40 1.226 . S
O30 Zn28 1.932 . S
O30 C40 1.307 . S
O31 Zn24 1.919 . S
O31 C42 1.253 . S
O32 Zn26 1.941 . S
O32 C42 1.283 . S
O33 Zn26 1.965 . S
O33 C41 1.303 . S
O34 Zn27 1.938 . S
O34 C41 1.247 . S
O35 Zn27 1.906 . S
O35 C43 1.304 . S
O36 Zn24 1.924 . S
O36 C44 1.311 . S
O37 Zn28 1.977 . S
O37 C43 1.272 . S
O38 Zn28 1.910 . S
O38 C44 1.231 . S
C39 O23 1.225 . S
C39 O45 1.298 . S
C40 O29 1.226 . S
C40 O30 1.307 . S
C41 O33 1.303 . S
C41 O34 1.247 . S
C42 O31 1.253 . S
C42 O32 1.283 . S
C43 O35 1.304 . S
C43 O37 1.272 . S
C44 O36 1.311 . S
C44 O38 1.231 . S
O45 Zn27 1.953 . S
O45 C39 1.298 . S
O46 Cd47 2.300 . S
O46 C53 1.275 1_565 S
Cd47 O46 2.300 . S
Cd47 O55 2.381 . S
Cd47 O56 2.378 . S
O48 Cd49 2.385 . S
O48 C53 1.255 . S
Cd49 O48 2.385 . S
Cd49 O50 2.317 1_455 S
O50 Cd49 2.317 1_655 S
O50 C51 1.232 . S
C51 O50 1.232 . S
C51 O52 1.218 . S
O52 C51 1.218 . S
C53 O46 1.275 1_545 S
C53 O48 1.255 . S
C54 O55 1.258 . S
C54 O56 1.256 . S
O55 Cd47 2.381 . S
O55 C54 1.258 . S
O56 Cd47 2.378 . S
O56 C54 1.256 . S
O57 Cd58 2.300 . S
O57 C64 1.275 1_545 S
Cd58 O57 2.300 . S
Cd58 O66 2.381 . S
Cd58 O67 2.378 . S
O59 Cd60 2.385 . S
O59 C64 1.255 . S
Cd60 O59 2.385 . S
Cd60 O61 2.317 1_455 S
O61 Cd60 2.317 1_655 S
O61 C62 1.232 . S
C62 O61 1.232 . S
C62 O63 1.218 . S
O63 C62 1.218 . S
C64 O57 1.275 1_565 S
C64 O59 1.255 . S
C65 O66 1.258 . S
C65 O67 1.256 . S
O66 Cd58 2.381 . S
O66 C65 1.258 . S
O67 Cd58 2.378 . S
O67 C65 1.256 . S
O68 Cd69 2.300 . S
O68 C75 1.275 . S
Cd69 O68 2.300 . S
Cd69 O77 2.381 . S
Cd69 O78 2.378 . S
O70 Cd71 2.385 . S
O70 C75 1.255 . S
Cd71 O70 2.385 . S
Cd71 O72 2.317 . S
O72 Cd71 2.317 . S
O72 C73 1.232 . S
C73 O72 1.232 . S
C73 O74 1.218 . S
O74 C73 1.218 . S
C75 O68 1.275 . S
C75 O70 1.255 . S
C76 O77 1.258 . S
C76 O78 1.256 . S
O77 Cd69 2.381 . S
O77 C76 1.258 . S
O78 Cd69 2.378 . S
O78 C76 1.256 . S
O79 Cd80 2.300 . S
O79 C86 1.275 . S
Cd80 O79 2.300 . S
Cd80 O88 2.381 . S
Cd80 O89 2.378 . S
O81 Cd82 2.385 . S
O81 C86 1.255 . S
Cd82 O81 2.385 . S
Cd82 O83 2.317 . S
O83 Cd82 2.317 . S
O83 C84 1.232 . S
C84 O83 1.232 . S
C84 O85 1.218 . S
O85 C84 1.218 . S
C86 O79 1.275 . S
C86 O81 1.255 . S
C87 O88 1.258 . S
C87 O89 1.256 . S
O88 Cd80 2.381 . S
O88 C87 1.258 . S
O89 Cd80 2.378 . S
O89 C87 1.256 . S
H90 C91 0.951 . S
C91 H90 0.951 . S
C91 C97 1.265 . S
H92 C97 0.950 . S
H93 C101 0.949 . S
H94 C102 0.950 . S
H95 C103 0.951 . S
H96 C104 0.951 . S
C97 C91 1.265 . S
C97 H92 0.950 . S
C97 C98 1.478 . S
C98 C97 1.478 . S
C98 C99 1.397 . S
C98 C115 1.394 . S
C99 C98 1.397 . S
C99 C100 1.438 . S
C99 C104 1.429 . S
C100 C99 1.438 . S
C100 C101 1.428 . S
C100 C113 1.394 . S
C101 H93 0.949 . S
C101 C100 1.428 . S
C101 C102 1.345 . S
C102 H94 0.950 . S
C102 C101 1.345 . S
C102 C103 1.424 . S
C103 H95 0.951 . S
C103 C102 1.424 . S
C103 C104 1.347 . S
C104 H96 0.951 . S
C104 C99 1.429 . S
C104 C103 1.347 . S
H105 C106 0.951 . S
C106 H105 0.951 . S
C106 C112 1.265 . S
H107 C112 0.950 . S
H108 C116 0.949 . S
H109 C117 0.950 . S
H110 C118 0.951 . S
H111 C119 0.953 . S
C112 C106 1.265 . S
C112 H107 0.950 . S
C112 C113 1.478 . S
C113 C100 1.394 . S
C113 C112 1.478 . S
C113 C114 1.397 . S
C114 C113 1.397 . S
C114 C115 1.438 . S
C114 C119 1.429 1_554 S
C115 C98 1.394 . S
C115 C114 1.438 . S
C115 C116 1.428 1_554 S
C116 H108 0.949 . S
C116 C115 1.428 1_556 S
C116 C117 1.345 . S
C117 H109 0.950 . S
C117 C116 1.345 . S
C117 C118 1.424 . S
C118 H110 0.951 . S
C118 C117 1.424 . S
C118 C119 1.347 . S
C119 H111 0.953 . S
C119 C114 1.429 1_556 S
C119 C118 1.347 . S
H120 C121 0.951 1_554 S
C121 H120 0.951 1_556 S
C121 C127 1.265 . S
H122 C127 0.950 . S
H123 C131 0.949 . S
H124 C132 0.950 . S
H125 C133 0.951 . S
H126 C134 0.951 . S
C127 C121 1.265 . S
C127 H122 0.950 . S
C127 C128 1.478 . S
C128 C127 1.478 . S
C128 C129 1.397 . S
C128 C145 1.394 . S
C129 C128 1.397 . S
C129 C130 1.438 . S
C129 C134 1.429 . S
C130 C129 1.438 . S
C130 C131 1.428 . S
C130 C143 1.394 . S
C131 H123 0.949 . S
C131 C130 1.428 . S
C131 C132 1.345 . S
C132 H124 0.950 . S
C132 C131 1.345 . S
C132 C133 1.424 . S
C133 H125 0.951 . S
C133 C132 1.424 . S
C133 C134 1.347 . S
C134 H126 0.951 . S
C134 C129 1.429 . S
C134 C133 1.347 . S
H135 C136 0.951 . S
C136 H135 0.951 . S
C136 C142 1.265 . S
H137 C142 0.950 . S
H138 C146 0.949 . S
H139 C147 0.948 . S
H140 C148 0.945 1_554 S
H141 C149 0.951 . S
C142 C136 1.265 . S
C142 H137 0.950 . S
C142 C143 1.478 . S
C143 C130 1.394 . S
C143 C142 1.478 . S
C143 C144 1.397 . S
C144 C143 1.397 . S
C144 C145 1.438 . S
C144 C149 1.429 . S
C145 C128 1.394 . S
C145 C144 1.438 . S
C145 C146 1.428 . S
C146 H138 0.949 . S
C146 C145 1.428 . S
C146 C147 1.346 1_556 S
C147 H139 0.948 . S
C147 C146 1.346 1_554 S
C147 C148 1.425 1_554 S
C148 H140 0.945 1_556 S
C148 C147 1.425 1_556 S
C148 C149 1.352 . S
C149 H141 0.951 . S
C149 C144 1.429 . S
C149 C148 1.352 . S
H150 C151 0.951 . S
C151 H150 0.951 . S
C151 C157 1.265 . S
H152 C157 0.950 . S
H153 C161 0.949 . S
H154 C162 0.950 . S
H155 C163 0.951 . S
H156 C164 0.951 . S
C157 C151 1.265 . S
C157 H152 0.950 . S
C157 C158 1.478 . S
C158 C157 1.478 . S
C158 C159 1.397 . S
C158 C175 1.394 . S
C159 C158 1.397 . S
C159 C160 1.438 . S
C159 C164 1.429 . S
C160 C159 1.438 . S
C160 C161 1.428 . S
C160 C173 1.394 . S
C161 H153 0.949 . S
C161 C160 1.428 . S
C161 C162 1.345 . S
C162 H154 0.950 . S
C162 C161 1.345 . S
C162 C163 1.424 . S
C163 H155 0.951 . S
C163 C162 1.424 . S
C163 C164 1.347 . S
C164 H156 0.951 . S
C164 C159 1.429 . S
C164 C163 1.347 . S
H165 C166 0.951 . S
C166 H165 0.951 . S
C166 C172 1.265 . S
H167 C172 0.950 . S
H168 C176 0.949 . S
H169 C177 0.950 . S
H170 C178 0.951 . S
H171 C179 0.951 . S
C172 C166 1.265 . S
C172 H167 0.950 . S
C172 C173 1.478 . S
C173 C160 1.394 . S
C173 C172 1.478 . S
C173 C174 1.397 . S
C174 C173 1.397 . S
C174 C175 1.438 . S
C174 C179 1.429 1_554 S
C175 C158 1.394 . S
C175 C174 1.438 . S
C175 C176 1.428 1_554 S
C176 H168 0.949 . S
C176 C175 1.428 1_556 S
C176 C177 1.345 . S
C177 H169 0.950 . S
C177 C176 1.345 . S
C177 C178 1.424 . S
C178 H170 0.951 . S
C178 C177 1.424 . S
C178 C179 1.347 . S
C179 H171 0.951 . S
C179 C174 1.429 1_556 S
C179 C178 1.347 . S
H180 C181 0.951 . S
C181 H180 0.951 . S
C181 C187 1.265 . S
H182 C187 0.950 . S
H183 C191 0.949 . S
H184 C192 0.950 . S
H185 C193 0.951 . S
H186 C194 0.951 . S
C187 C181 1.265 . S
C187 H182 0.950 . S
C187 C188 1.478 . S
C188 C187 1.478 . S
C188 C189 1.397 . S
C188 C205 1.394 . S
C189 C188 1.397 . S
C189 C190 1.438 . S
C189 C194 1.429 . S
C190 C189 1.438 . S
C190 C191 1.428 . S
C190 C203 1.394 . S
C191 H183 0.949 . S
C191 C190 1.428 . S
C191 C192 1.345 . S
C192 H184 0.950 . S
C192 C191 1.345 . S
C192 C193 1.424 . S
C193 H185 0.951 . S
C193 C192 1.424 . S
C193 C194 1.347 . S
C194 H186 0.951 . S
C194 C189 1.429 . S
C194 C193 1.347 . S
H195 C196 0.951 . S
C196 H195 0.951 . S
C196 C202 1.265 . S
H197 C202 0.950 . S
H198 C206 0.949 . S
H199 C207 0.950 . S
H200 C208 0.951 . S
H201 C209 0.951 . S
C202 C196 1.265 . S
C202 H197 0.950 . S
C202 C203 1.478 . S
C203 C190 1.394 . S
C203 C202 1.478 . S
C203 C204 1.397 . S
C204 C203 1.397 . S
C204 C205 1.438 . S
C204 C209 1.429 1_556 S
C205 C188 1.394 . S
C205 C204 1.438 . S
C205 C206 1.428 1_556 S
C206 H198 0.949 . S
C206 C205 1.428 1_554 S
C206 C207 1.345 . S
C207 H199 0.950 . S
C207 C206 1.345 . S
C207 C208 1.424 . S
C208 H200 0.951 . S
C208 C207 1.424 . S
C208 C209 1.347 . S
C209 H201 0.951 . S
C209 C204 1.429 1_554 S
C209 C208 1.347 . S
H210 C211 0.951 . S
C211 H210 0.951 . S
C211 C217 1.265 . S
H212 C217 0.950 . S
H213 C221 0.949 . S
H214 C222 0.950 . S
H215 C223 0.951 . S
H216 C224 0.951 . S
C217 C211 1.265 . S
C217 H212 0.950 . S
C217 C218 1.478 . S
C218 C217 1.478 . S
C218 C219 1.397 . S
C218 C235 1.394 . S
C219 C218 1.397 . S
C219 C220 1.438 . S
C219 C224 1.429 . S
C220 C219 1.438 . S
C220 C221 1.428 . S
C220 C233 1.394 . S
C221 H213 0.949 . S
C221 C220 1.428 . S
C221 C222 1.345 . S
C222 H214 0.950 . S
C222 C221 1.345 . S
C222 C223 1.424 . S
C223 H215 0.951 . S
C223 C222 1.424 . S
C223 C224 1.347 . S
C224 H216 0.951 . S
C224 C219 1.429 . S
C224 C223 1.347 . S
H225 C226 0.951 . S
C226 H225 0.951 . S
C226 C232 1.265 . S
H227 C232 0.950 . S
H228 C236 0.949 . S
H229 C237 0.950 . S
H230 C238 0.951 . S
H231 C239 0.951 . S
C232 C226 1.265 . S
C232 H227 0.950 . S
C232 C233 1.478 . S
C233 C220 1.394 . S
C233 C232 1.478 . S
C233 C234 1.397 . S
C234 C233 1.397 . S
C234 C235 1.438 . S
C234 C239 1.429 . S
C235 C218 1.394 . S
C235 C234 1.438 . S
C235 C236 1.428 . S
C236 H228 0.949 . S
C236 C235 1.428 . S
C236 C237 1.345 . S
C237 H229 0.950 . S
C237 C236 1.345 . S
C237 C238 1.424 . S
C238 H230 0.951 . S
C238 C237 1.424 . S
C238 C239 1.347 . S
C239 H231 0.951 . S
C239 C234 1.429 . S
C239 C238 1.347 . S
H240 C241 0.951 . S
C241 H240 0.951 . S
C241 C247 1.265 . S
H242 C247 0.950 . S
H243 C251 0.949 . S
H244 C252 0.950 . S
H245 C253 0.951 . S
H246 C254 0.951 . S
C247 C241 1.265 . S
C247 H242 0.950 . S
C247 C248 1.478 . S
C248 C247 1.478 . S
C248 C249 1.397 . S
C248 C265 1.394 . S
C249 C248 1.397 . S
C249 C250 1.438 . S
C249 C254 1.429 . S
C250 C249 1.438 . S
C250 C251 1.428 . S
C250 C263 1.394 . S
C251 H243 0.949 . S
C251 C250 1.428 . S
C251 C252 1.345 . S
C252 H244 0.950 . S
C252 C251 1.345 . S
C252 C253 1.424 . S
C253 H245 0.951 . S
C253 C252 1.424 . S
C253 C254 1.347 . S
C254 H246 0.951 . S
C254 C249 1.429 . S
C254 C253 1.347 . S
H255 C256 0.951 . S
C256 H255 0.951 . S
C256 C262 1.265 . S
H257 C262 0.950 . S
H258 C266 0.949 . S
H259 C267 0.950 . S
H260 C268 0.951 . S
H261 C269 0.951 . S
C262 C256 1.265 . S
C262 H257 0.950 . S
C262 C263 1.478 . S
C263 C250 1.394 . S
C263 C262 1.478 . S
C263 C264 1.397 . S
C264 C263 1.397 . S
C264 C265 1.438 . S
C264 C269 1.429 . S
C265 C248 1.394 . S
C265 C264 1.438 . S
C265 C266 1.428 . S
C266 H258 0.949 . S
C266 C265 1.428 . S
C266 C267 1.345 . S
C267 H259 0.950 . S
C267 C266 1.345 . S
C267 C268 1.424 . S
C268 H260 0.951 . S
C268 C267 1.424 . S
C268 C269 1.347 . S
C269 H261 0.951 . S
C269 C264 1.429 . S
C269 C268 1.347 . S
H270 C271 0.951 . S
C271 H270 0.951 . S
C271 C277 1.265 . S
H272 C277 0.950 . S
H273 C281 0.949 . S
H274 C282 0.950 . S
H275 C283 0.951 . S
H276 C284 0.951 . S
C277 C271 1.265 . S
C277 H272 0.950 . S
C277 C278 1.478 . S
C278 C277 1.478 . S
C278 C279 1.397 . S
C278 C295 1.394 . S
C279 C278 1.397 . S
C279 C280 1.438 . S
C279 C284 1.429 . S
C280 C279 1.438 . S
C280 C281 1.428 . S
C280 C293 1.394 . S
C281 H273 0.949 . S
C281 C280 1.428 . S
C281 C282 1.345 . S
C282 H274 0.950 . S
C282 C281 1.345 . S
C282 C283 1.424 . S
C283 H275 0.951 . S
C283 C282 1.424 . S
C283 C284 1.347 . S
C284 H276 0.951 . S
C284 C279 1.429 . S
C284 C283 1.347 . S
H285 C286 0.951 . S
C286 H285 0.951 . S
C286 C292 1.265 . S
H287 C292 0.950 . S
H288 C296 0.949 . S
H289 C297 0.950 . S
H290 C298 0.951 . S
H291 C299 0.951 . S
C292 C286 1.265 . S
C292 H287 0.950 . S
C292 C293 1.478 . S
C293 C280 1.394 . S
C293 C292 1.478 . S
C293 C294 1.397 . S
C294 C293 1.397 . S
C294 C295 1.438 . S
C294 C299 1.429 . S
C295 C278 1.394 . S
C295 C294 1.438 . S
C295 C296 1.428 . S
C296 H288 0.949 . S
C296 C295 1.428 . S
C296 C297 1.345 . S
C297 H289 0.950 . S
C297 C296 1.345 . S
C297 C298 1.424 . S
C298 H290 0.951 . S
C298 C297 1.424 . S
C298 C299 1.347 . S
C299 H291 0.951 . S
C299 C294 1.429 . S
C299 C298 1.347 . S
H300 C301 0.951 . S
C301 H300 0.951 . S
C301 C307 1.265 . S
H302 C307 0.950 . S
H303 C311 0.949 . S
H304 C312 0.950 . S
H305 C313 0.951 . S
H306 C314 0.951 . S
C307 C301 1.265 . S
C307 H302 0.950 . S
C307 C308 1.478 . S
C308 C307 1.478 . S
C308 C309 1.397 . S
C308 C325 1.394 . S
C309 C308 1.397 . S
C309 C310 1.438 . S
C309 C314 1.429 . S
C310 C309 1.438 . S
C310 C311 1.428 . S
C310 C323 1.394 . S
C311 H303 0.949 . S
C311 C310 1.428 . S
C311 C312 1.345 . S
C312 H304 0.950 . S
C312 C311 1.345 . S
C312 C313 1.424 . S
C313 H305 0.951 . S
C313 C312 1.424 . S
C313 C314 1.347 . S
C314 H306 0.951 . S
C314 C309 1.429 . S
C314 C313 1.347 . S
H315 C316 0.951 . S
C316 H315 0.951 . S
C316 C322 1.265 . S
H317 C322 0.950 . S
H318 C326 0.949 . S
H319 C327 0.950 . S
H320 C328 0.951 . S
H321 C329 0.951 . S
C322 C316 1.265 . S
C322 H317 0.950 . S
C322 C323 1.478 . S
C323 C310 1.394 . S
C323 C322 1.478 . S
C323 C324 1.397 . S
C324 C323 1.397 . S
C324 C325 1.438 . S
C324 C329 1.429 . S
C325 C308 1.394 . S
C325 C324 1.438 . S
C325 C326 1.428 . S
C326 H318 0.949 . S
C326 C325 1.428 . S
C326 C327 1.345 . S
C327 H319 0.950 . S
C327 C326 1.345 . S
C327 C328 1.424 . S
C328 H320 0.951 . S
C328 C327 1.424 . S
C328 C329 1.347 . S
C329 H321 0.951 . S
C329 C324 1.429 . S
C329 C328 1.347 . S
H330 C331 0.951 . S
C331 H330 0.951 . S
C331 C337 1.265 1_655 S
H332 C337 0.950 . S
H333 C341 0.949 . S
H334 C342 0.950 . S
H335 C343 0.951 . S
H336 C344 0.951 . S
C337 C331 1.265 1_455 S
C337 H332 0.950 . S
C337 C338 1.478 . S
C338 C337 1.478 . S
C338 C339 1.397 . S
C338 C355 1.394 1_445 S
C339 C338 1.397 . S
C339 C340 1.438 . S
C339 C344 1.429 . S
C340 C339 1.438 . S
C340 C341 1.428 . S
C340 C353 1.394 1_455 S
C341 H333 0.949 . S
C341 C340 1.428 . S
C341 C342 1.345 . S
C342 H334 0.950 . S
C342 C341 1.345 . S
C342 C343 1.424 . S
C343 H335 0.951 . S
C343 C342 1.424 . S
C343 C344 1.347 . S
C344 H336 0.951 . S
C344 C339 1.429 . S
C344 C343 1.347 . S
H345 C346 0.951 . S
C346 H345 0.951 . S
C346 C352 1.265 1_455 S
H347 C352 0.950 . S
H348 C356 0.949 . S
H349 C357 0.950 . S
H350 C358 0.951 . S
H351 C359 0.951 . S
C352 C346 1.265 1_655 S
C352 H347 0.950 . S
C352 C353 1.478 . S
C353 C340 1.394 1_655 S
C353 C352 1.478 . S
C353 C354 1.397 1_545 S
C354 C353 1.397 1_565 S
C354 C355 1.438 . S
C354 C359 1.429 . S
C355 C338 1.394 1_665 S
C355 C354 1.438 . S
C355 C356 1.428 . S
C356 H348 0.949 . S
C356 C355 1.428 . S
C356 C357 1.345 . S
C357 H349 0.950 . S
C357 C356 1.345 . S
C357 C358 1.424 . S
C358 H350 0.951 . S
C358 C357 1.424 . S
C358 C359 1.347 . S
C359 H351 0.951 . S
C359 C354 1.429 . S
C359 C358 1.347 . S
H360 C361 0.950 1_565 S
C361 H360 0.950 1_545 S
C361 C367 1.266 1_455 S
H362 C367 0.950 . S
H363 C371 0.949 . S
H364 C372 0.950 . S
H365 C373 0.951 . S
H366 C374 0.951 . S
C367 C361 1.266 1_655 S
C367 H362 0.950 . S
C367 C368 1.478 . S
C368 C367 1.478 . S
C368 C369 1.397 . S
C368 C385 1.394 1_645 S
C369 C368 1.397 . S
C369 C370 1.438 . S
C369 C374 1.429 . S
C370 C369 1.438 . S
C370 C371 1.428 . S
C370 C383 1.393 1_645 S
C371 H363 0.949 . S
C371 C370 1.428 . S
C371 C372 1.345 . S
C372 H364 0.950 . S
C372 C371 1.345 . S
C372 C373 1.424 . S
C373 H365 0.951 . S
C373 C372 1.424 . S
C373 C374 1.347 . S
C374 H366 0.951 . S
C374 C369 1.429 . S
C374 C373 1.347 . S
H375 C376 0.951 1_645 S
C376 H375 0.951 1_465 S
C376 C382 1.265 . S
H377 C382 0.950 . S
H378 C386 0.949 . S
H379 C387 0.950 . S
H380 C388 0.951 . S
H381 C389 0.951 . S
C382 C376 1.265 . S
C382 H377 0.950 . S
C382 C383 1.478 . S
C383 C370 1.393 1_465 S
C383 C382 1.478 . S
C383 C384 1.397 . S
C384 C383 1.397 . S
C384 C385 1.438 . S
C384 C389 1.429 . S
C385 C368 1.394 1_465 S
C385 C384 1.438 . S
C385 C386 1.428 . S
C386 H378 0.949 . S
C386 C385 1.428 . S
C386 C387 1.345 . S
C387 H379 0.950 . S
C387 C386 1.345 . S
C387 C388 1.424 . S
C388 H380 0.951 . S
C388 C387 1.424 . S
C388 C389 1.347 . S
C389 H381 0.951 . S
C389 C384 1.429 . S
C389 C388 1.347 . S
H390 C391 0.951 . S
C391 H390 0.951 . S
C391 C397 1.265 . S
H392 C397 0.950 . S
H393 C401 0.949 . S
H394 C402 0.950 . S
H395 C403 0.951 . S
H396 C404 0.951 . S
C397 C391 1.265 . S
C397 H392 0.950 . S
C397 C398 1.478 . S
C398 C397 1.478 . S
C398 C399 1.397 . S
C398 C415 1.394 . S
C399 C398 1.397 . S
C399 C400 1.438 . S
C399 C404 1.429 . S
C400 C399 1.438 . S
C400 C401 1.428 . S
C400 C413 1.394 . S
C401 H393 0.949 . S
C401 C400 1.428 . S
C401 C402 1.345 . S
C402 H394 0.950 . S
C402 C401 1.345 . S
C402 C403 1.424 . S
C403 H395 0.951 . S
C403 C402 1.424 . S
C403 C404 1.347 . S
C404 H396 0.951 . S
C404 C399 1.429 . S
C404 C403 1.347 . S
H405 C406 0.951 . S
C406 H405 0.951 . S
C406 C412 1.265 . S
H407 C412 0.950 . S
H408 C416 0.949 . S
H409 C417 0.950 . S
H410 C418 0.951 . S
H411 C419 0.951 . S
C412 C406 1.265 . S
C412 H407 0.950 . S
C412 C413 1.478 . S
C413 C400 1.394 . S
C413 C412 1.478 . S
C413 C414 1.397 . S
C414 C413 1.397 . S
C414 C415 1.438 . S
C414 C419 1.429 . S
C415 C398 1.394 . S
C415 C414 1.438 . S
C415 C416 1.428 . S
C416 H408 0.949 . S
C416 C415 1.428 . S
C416 C417 1.345 . S
C417 H409 0.950 . S
C417 C416 1.345 . S
C417 C418 1.424 . S
C418 H410 0.951 . S
C418 C417 1.424 . S
C418 C419 1.347 . S
C419 H411 0.951 . S
C419 C414 1.429 . S
C419 C418 1.347 . S
H420 C421 0.951 . S
C421 H420 0.951 . S
C421 C427 1.265 . S
H422 C427 0.950 . S
H423 C431 0.949 . S
H424 C432 0.950 . S
H425 C433 0.951 . S
H426 C434 0.951 . S
C427 C421 1.265 . S
C427 H422 0.950 . S
C427 C428 1.478 . S
C428 C427 1.478 . S
C428 C429 1.397 . S
C428 C445 1.394 . S
C429 C428 1.397 . S
C429 C430 1.438 . S
C429 C434 1.429 . S
C430 C429 1.438 . S
C430 C431 1.428 . S
C430 C443 1.394 . S
C431 H423 0.949 . S
C431 C430 1.428 . S
C431 C432 1.345 . S
C432 H424 0.950 . S
C432 C431 1.345 . S
C432 C433 1.424 . S
C433 H425 0.951 . S
C433 C432 1.424 . S
C433 C434 1.347 . S
C434 H426 0.951 . S
C434 C429 1.429 . S
C434 C433 1.347 . S
H435 C436 0.951 . S
C436 H435 0.951 . S
C436 C442 1.265 . S
H437 C442 0.950 . S
H438 C446 0.949 . S
H439 C447 0.950 . S
H440 C448 0.951 . S
H441 C449 0.951 . S
C442 C436 1.265 . S
C442 H437 0.950 . S
C442 C443 1.478 . S
C443 C430 1.394 . S
C443 C442 1.478 . S
C443 C444 1.397 . S
C444 C443 1.397 . S
C444 C445 1.438 . S
C444 C449 1.429 . S
C445 C428 1.394 . S
C445 C444 1.438 . S
C445 C446 1.428 . S
C446 H438 0.949 . S
C446 C445 1.428 . S
C446 C447 1.345 . S
C447 H439 0.950 . S
C447 C446 1.345 . S
C447 C448 1.424 . S
C448 H440 0.951 . S
C448 C447 1.424 . S
C448 C449 1.347 . S
C449 H441 0.951 . S
C449 C444 1.429 . S
C449 C448 1.347 . S
C106 C84 1.388 . S
C91 C21 1.476 . S
C121 C19 1.465 . S
C136 C73 1.274 . S
C151 C18 1.366 . S
C166 C87 1.365 . S
C181 C20 1.421 . S
C196 C76 1.371 . S
C211 C44 1.475 . S
C226 C62 1.384 . S
C241 C42 1.482 . S
C256 C51 1.221 . S
C286 C65 1.377 . S
C271 C41 1.371 . S
C316 C54 1.384 . S
C301 C43 1.388 . S
C331 C16 1.510 1_655 S
C346 C53 1.403 . S
C361 C17 1.481 . S
C376 C64 1.470 . S
C406 C75 1.498 . S
C391 C39 1.506 . S
C421 C40 1.468 . S
C436 C86 1.376 . S
