# Generated by pormake.
# Topology rtl, (3,6)-cn, num edge types: 1
# Building blocks:
#     Node 0, Type 0, BuildingBlock: OLANEW_clean_sbu_2, # of connection points: 3
#     Node 1, Type 0, BuildingBlock: OLANEW_clean_sbu_2, # of connection points: 3
#     Node 2, Type 0, BuildingBlock: OLANEW_clean_sbu_2, # of connection points: 3
#     Node 3, Type 0, BuildingBlock: OLANEW_clean_sbu_2, # of connection points: 3
#     Node 4, Type 1, BuildingBlock: LEVNOQ01_clean_sbu_1, # of connection points: 6
#     Node 5, Type 1, BuildingBlock: LEVNOQ01_clean_sbu_1, # of connection points: 6
#     Edge 6, Type (0, 1), BuildingBlock: KIFKEQ_clean_linker_1, # of connection points: 2
#     Edge 7, Type (0, 1), BuildingBlock: KIFKEQ_clean_linker_1, # of connection points: 2
#     Edge 8, Type (0, 1), BuildingBlock: KIFKEQ_clean_linker_1, # of connection points: 2
#     Edge 9, Type (0, 1), BuildingBlock: KIFKEQ_clean_linker_1, # of connection points: 2
#     Edge 10, Type (0, 1), BuildingBlock: KIFKEQ_clean_linker_1, # of connection points: 2
#     Edge 11, Type (0, 1), BuildingBlock: KIFKEQ_clean_linker_1, # of connection points: 2
#     Edge 12, Type (0, 1), BuildingBlock: KIFKEQ_clean_linker_1, # of connection points: 2
#     Edge 13, Type (0, 1), BuildingBlock: KIFKEQ_clean_linker_1, # of connection points: 2
#     Edge 14, Type (0, 1), BuildingBlock: KIFKEQ_clean_linker_1, # of connection points: 2
#     Edge 15, Type (0, 1), BuildingBlock: KIFKEQ_clean_linker_1, # of connection points: 2
#     Edge 16, Type (0, 1), BuildingBlock: KIFKEQ_clean_linker_1, # of connection points: 2
#     Edge 17, Type (0, 1), BuildingBlock: KIFKEQ_clean_linker_1, # of connection points: 2
# Relax obj value: 0.015
# Max RMSD: 0.121
# Mean RMSD: 0.076
data_MOF--net-rtl--node1-OLANEW_clean_sbu_2--node2-LEVNOQ01_clean_sbu_1--edge1-KIFKEQ_clean_linker_1
_symmetry_space_group_name_H-M    P1
_symmetry_Int_Tables_number       1
_symmetry_cell_setting            triclinic
loop_
_symmetry_equiv_pos_as_xyz
'x, y, z'
_cell_length_a     38.261448
_cell_length_b     38.569921
_cell_length_c     24.843638
_cell_angle_alpha  87.434708
_cell_angle_beta   100.88648
_cell_angle_gamma 90.241724
loop_
_atom_site_label
_atom_site_type_symbol
_atom_site_fract_x
_atom_site_fract_y
_atom_site_fract_z
_atom_type_partial_charge
O0 O 0.17737 0.82184 -0.00254 0.0
Cd1 Cd 0.20586 0.80343 0.09177 0.0
O2 O 0.19838 0.87488 0.00765 0.0
Cd3 Cd 0.21529 0.86983 0.09681 0.0
O4 O 0.20657 0.88258 0.17827 0.0
C5 C 0.18082 0.8673 0.19484 0.0
O6 O 0.16323 0.84362 0.1643 0.0
C7 C 0.18152 0.85218 0.97734 0.0
C8 C 0.25737 0.75122 0.09667 0.0
O9 O 0.22496 0.74369 0.09863 0.0
O10 O 0.26542 0.78338 0.09216 0.0
O11 O 0.69935 0.69291 0.68756 0.0
Cd12 Cd 0.71903 0.72124 0.60812 0.0
O13 O 0.67411 0.65117 0.63618 0.0
Cd14 Cd 0.68203 0.67144 0.55566 0.0
O15 O 0.66723 0.66886 0.46629 0.0
C16 C 0.63456 0.67253 0.44418 0.0
O17 O 0.61169 0.68025 0.47522 0.0
C18 C 0.68236 0.66441 0.68288 0.0
C19 C 0.76822 0.77541 0.62784 0.0
O20 O 0.73463 0.78123 0.62004 0.0
O21 O 0.77862 0.74381 0.62835 0.0
O22 O 0.81931 0.21277 0.08492 0.0
Cd23 Cd 0.79389 0.23656 -0.00826 0.0
O24 O 0.86832 0.20173 0.05448 0.0
Cd25 Cd 0.84871 0.21318 0.96718 0.0
O26 O 0.84957 0.19219 0.8873 0.0
C27 C 0.84435 0.15968 0.8847 0.0
O28 O 0.83616 0.14255 0.92751 0.0
C29 C 0.85135 0.2018 0.09385 0.0
C30 C 0.73727 0.2839 0.97766 0.0
O31 O 0.73166 0.25133 0.9722 0.0
O32 O 0.76957 0.29398 -0.00844 0.0
O33 O 0.30527 0.33557 0.55322 0.0
Cd34 Cd 0.28061 0.31404 0.46207 0.0
O35 O 0.27802 0.38592 0.5328 0.0
Cd36 Cd 0.26053 0.37711 0.4457 0.0
O37 O 0.27174 0.38652 0.36331 0.0
C38 C 0.30176 0.37522 0.35694 0.0
O39 O 0.32156 0.35752 0.39792 0.0
C40 C 0.29769 0.36554 0.56732 0.0
C41 C 0.22636 0.26513 0.46192 0.0
O42 O 0.25892 0.25563 0.46688 0.0
O43 O 0.21948 0.29775 0.45744 0.0
O44 O 0.00641 0.03895 0.65733 0.0
Mg45 Mg 0.04517 0.03491 0.60675 0.0
O46 O 0.96606 0.03802 0.58234 0.0
Mg47 Mg 0.00159 0.01075 0.53067 0.0
O48 O 0.04221 0.05894 0.53092 0.0
O49 O 0.07024 0.08072 0.6101 0.0
O50 O 0.04035 0.98434 0.4793 0.0
O51 O 0.97113 0.04518 0.45581 0.0
Mg52 Mg 0.9684 0.96626 0.45065 0.0
O53 O 0.95641 0.96779 0.52772 0.0
O54 O 0.01334 0.9374 0.44607 0.0
O55 O 0.95265 0.00757 0.39272 0.0
O56 O 0.92707 0.93587 0.45984 0.0
C57 C 0.0635 0.96973 0.62822 0.0
C58 C 0.97444 0.04309 0.63331 0.0
C59 C 0.0621 0.08263 0.55736 0.0
C60 C 0.04113 0.95542 0.45635 0.0
C61 C 0.95579 0.03862 0.40716 0.0
C62 C 0.93208 0.94501 0.51 0.0
O63 O 0.08306 -0.00443 0.62398 0.0
O64 O 0.03055 0.97208 0.60591 0.0
O65 O 0.54722 0.50489 0.13414 0.0
Mg66 Mg 0.52024 0.46717 0.08503 0.0
O67 O 0.51586 0.54348 0.07746 0.0
Mg68 Mg 0.48374 0.51335 0.00281 0.0
O69 O 0.52561 0.46689 0.0042 0.0
O70 O 0.55372 0.43051 0.07233 0.0
O71 O 0.45084 0.48396 0.92793 0.0
O72 O 0.52162 0.54265 0.9507 0.0
Mg73 Mg 0.44395 0.56321 0.91812 0.0
O74 O 0.44222 0.55889 0.00016 0.0
O75 O 0.41776 0.52294 0.87331 0.0
O76 O 0.49078 0.58413 0.8989 0.0
O77 O 0.41103 0.59814 0.94042 0.0
C78 C 0.44646 0.45864 0.08825 0.0
C79 C 0.53868 0.5361 0.12098 0.0
C80 C 0.5475 0.44104 0.02146 0.0
C81 C 0.4269 0.49173 0.88586 0.0
C82 C 0.52007 0.56887 0.91698 0.0
C83 C 0.41958 0.58463 0.98957 0.0
O84 O 0.47571 0.44357 0.10641 0.0
O85 O 0.44498 0.4848 0.05456 0.0
H86 H 0.23141 0.19438 0.46116 0.0
H87 H 0.15637 0.27728 0.46472 0.0
H88 H 0.1854 0.15173 0.47085 0.0
H89 H 0.11042 0.23455 0.47431 0.0
H90 H 0.07045 0.14859 0.58885 0.0
H91 H 0.10571 0.1939 0.5539 0.0
H92 H 0.12496 0.12719 0.42738 0.0
H93 H 0.08893 0.08155 0.46249 0.0
C94 C 0.205 0.20352 0.46333 0.0
C95 C 0.19769 0.23924 0.4629 0.0
C96 C 0.17855 0.17905 0.46832 0.0
C97 C 0.14432 0.1898 0.47343 0.0
C98 C 0.13663 0.22551 0.47079 0.0
C99 C 0.16298 0.24997 0.46534 0.0
C100 C 0.08145 0.14391 0.5527 0.0
C101 C 0.0771 0.11161 0.52841 0.0
C102 C 0.10154 0.16992 0.53253 0.0
C103 C 0.11827 0.16405 0.48808 0.0
C104 C 0.1125 0.13231 0.46192 0.0
C105 C 0.0917 0.10636 0.48162 0.0
H106 H 0.32553 0.75852 0.07926 0.0
H107 H 0.25053 0.68138 0.11683 0.0
H108 H 0.36781 0.7129 0.07184 0.0
H109 H 0.29335 0.63561 0.11133 0.0
H110 H 0.44477 0.62931 0.06953 0.0
H111 H 0.40758 0.66725 0.11214 0.0
H112 H 0.3143 0.61066 0.03804 0.0
H113 H 0.35163 0.57273 -0.00267 0.0
C114 C 0.3183 0.73182 0.08694 0.0
C115 C 0.28442 0.72359 0.09779 0.0
C116 C 0.34276 0.70557 0.08328 0.0
C117 C 0.33407 0.67039 0.09078 0.0
C118 C 0.30081 0.66233 0.10444 0.0
C119 C 0.27623 0.68859 0.10766 0.0
C120 C 0.41653 0.62407 0.06493 0.0
C121 C 0.40097 0.59794 0.03095 0.0
C122 C 0.3951 0.64613 0.08842 0.0
C123 C 0.35776 0.64252 0.07777 0.0
C124 C 0.34285 0.61421 0.04775 0.0
C125 C 0.36424 0.59227 0.02447 0.0
H126 H 0.754 0.84506 0.62275 0.0
H127 H 0.84075 0.77166 0.63907 0.0
H128 H 0.79472 0.89242 0.61103 0.0
H129 H 0.88133 0.81903 0.62668 0.0
H130 H 0.95065 0.91235 0.61179 0.0
H131 H 0.9117 0.87482 0.6573 0.0
H132 H 0.82213 0.90494 0.53029 0.0
H133 H 0.86081 0.94162 0.48536 0.0
C134 C 0.78187 0.83906 0.62492 0.0
C135 C 0.79398 0.80448 0.63089 0.0
C136 C 0.8052 0.86623 0.61815 0.0
C137 C 0.84118 0.85947 0.61728 0.0
C138 C 0.85385 0.82518 0.62752 0.0
C139 C 0.83049 0.79797 0.63419 0.0
C140 C 0.9224 0.91168 0.59495 0.0
C141 C 0.90857 0.92975 0.54524 0.0
C142 C 0.9002 0.89004 0.62059 0.0
C143 C 0.86383 0.88679 0.59729 0.0
C144 C 0.84983 0.90708 0.54978 0.0
C145 C 0.872 0.92804 0.52387 0.0
H146 H 0.66817 0.27304 0.92842 0.0
H147 H 0.7388 0.352 0.00417 0.0
H148 H 0.61845 0.31374 0.91599 0.0
H149 H 0.68897 0.39226 -0.00593 0.0
H150 H 0.59898 0.46479 0.96667 0.0
H151 H 0.64405 0.42786 0.93931 0.0
H152 H 0.58417 0.33698 0.97437 0.0
H153 H 0.53937 0.37387 -0.00031 0.0
C154 C 0.67308 0.2991 0.94248 0.0
C155 C 0.70735 0.30912 0.96803 0.0
C156 C 0.64455 0.3225 0.93534 0.0
C157 C 0.64945 0.35637 0.95429 0.0
C158 C 0.68408 0.36668 0.97806 0.0
C159 C 0.71269 0.34341 0.98455 0.0
C160 C 0.59473 0.43702 0.96553 0.0
C161 C 0.5657 0.42206 0.98475 0.0
C162 C 0.62083 0.41577 0.95096 0.0
C163 C 0.61828 0.37928 0.95577 0.0
C164 C 0.58718 0.3648 0.96964 0.0
C165 C 0.56128 0.38597 0.98404 0.0
H166 H 0.1267 0.83954 0.23925 0.0
H167 H 0.20574 0.92059 0.26164 0.0
H168 H 0.10094 0.86108 0.31309 0.0
H169 H 0.18028 0.94186 0.33734 0.0
H170 H 0.08569 -0.00569 0.40403 0.0
H171 H 0.12667 0.97183 0.3491 0.0
H172 H 0.1086 0.86755 0.40889 0.0
H173 H 0.06659 0.88999 0.46122 0.0
C174 C 0.13902 0.86164 0.26062 0.0
C175 C 0.16817 0.87841 0.24425 0.0
C176 C 0.12439 0.87389 0.30349 0.0
C177 C 0.13859 0.9032 0.33154 0.0
C178 C 0.16851 0.91941 0.31636 0.0
C179 C 0.18321 0.90709 0.2732 0.0
C180 C 0.09139 0.96673 0.40649 0.0
C181 C 0.07274 0.94378 0.43611 0.0
C182 C 0.11485 0.95379 0.37506 0.0
C183 C 0.12026 0.91774 0.37346 0.0
C184 C 0.10423 0.89533 0.40776 0.0
C185 C 0.08042 0.90816 0.43818 0.0
H186 H 0.65817 0.59821 0.69208 0.0
H187 H 0.67636 0.69268 0.78018 0.0
H188 H 0.62684 0.57373 0.76146 0.0
H189 H 0.64497 0.66795 0.84996 0.0
H190 H 0.53217 0.63484 0.88372 0.0
H191 H 0.57993 0.65608 0.83932 0.0
H192 H 0.62814 0.55412 0.86022 0.0
H193 H 0.57988 0.53268 0.90545 0.0
C194 C 0.65612 0.61351 0.72688 0.0
C195 C 0.66928 0.64763 0.73014 0.0
C196 C 0.63842 0.59931 0.76694 0.0
C197 C 0.63317 0.619 0.81095 0.0
C198 C 0.64834 0.65228 0.81618 0.0
C199 C 0.66641 0.6664 0.77632 0.0
C200 C 0.55325 0.61702 0.87972 0.0
C201 C 0.55209 0.582 0.89749 0.0
C202 C 0.58084 0.6293 0.85472 0.0
C203 C 0.60781 0.60679 0.84618 0.0
C204 C 0.60761 0.57203 0.86611 0.0
C205 C 0.58012 0.55979 0.89211 0.0
H206 H 0.92 0.17986 0.12448 0.0
H207 H 0.82181 0.18696 0.18562 0.0
H208 H 0.94611 0.14463 0.20546 0.0
H209 H 0.84871 0.15167 0.26781 0.0
H210 H 0.93417 0.10464 0.42501 0.0
H211 H 0.90911 0.14967 0.35484 0.0
H212 H 0.92166 0.08084 0.2276 0.0
H213 H 0.94568 0.03608 0.29657 0.0
C214 C 0.90411 0.1745 0.15562 0.0
C215 C 0.86852 0.18586 0.14797 0.0
C216 C 0.9192 0.15432 0.20208 0.0
C217 C 0.89932 0.14524 0.24252 0.0
C218 C 0.8646 0.15848 0.23718 0.0
C219 C 0.84923 0.17858 0.19012 0.0
C220 C 0.93161 0.0993 0.38201 0.0
C221 C 0.9419 0.06683 0.36629 0.0
C222 C 0.91712 0.12491 0.34205 0.0
C223 C 0.91361 0.11865 0.28597 0.0
C224 C 0.92428 0.08638 0.27056 0.0
C225 C 0.93795 0.06073 0.31012 0.0
H226 H 0.34748 0.33317 0.6486 0.0
H227 H 0.28513 0.4272 0.60937 0.0
H228 H 0.37783 0.35753 0.73435 0.0
H229 H 0.31578 0.45163 0.69312 0.0
H230 H 0.35596 0.48525 0.85795 0.0
H231 H 0.32265 0.44854 0.78936 0.0
H232 H 0.42106 0.40244 0.76536 0.0
H233 H 0.45427 0.43832 0.83684 0.0
C234 C 0.33997 0.35883 0.65846 0.0
C235 C 0.31382 0.37821 0.62201 0.0
C236 C 0.35756 0.37288 0.7074 0.0
C237 C 0.34925 0.40653 0.72094 0.0
C238 C 0.32249 0.42539 0.68492 0.0
C239 C 0.30498 0.41141 0.63639 0.0
C240 C 0.37035 0.46665 0.83887 0.0
C241 C 0.40759 0.46472 0.85213 0.0
C242 C 0.35134 0.44581 0.79921 0.0
C243 C 0.36917 0.42316 0.77062 0.0
C244 C 0.40642 0.41954 0.78656 0.0
C245 C 0.42549 0.44007 0.82736 0.0
H246 H 0.67418 0.65343 0.36926 0.0
H247 H 0.56569 0.66937 0.38906 0.0
H248 H 0.65255 0.62806 0.28104 0.0
H249 H 0.54415 0.64329 0.30154 0.0
H250 H 0.51375 0.60199 0.13109 0.0
H251 H 0.53851 0.64331 0.20062 0.0
H252 H 0.62494 0.57199 0.26321 0.0
H253 H 0.60069 0.53143 0.19436 0.0
C254 C 0.64573 0.65202 0.35447 0.0
C255 C 0.62169 0.66284 0.38673 0.0
C256 C 0.63333 0.63738 0.30396 0.0
C257 C 0.59662 0.63312 0.28466 0.0
C258 C 0.57257 0.64633 0.315 0.0
C259 C 0.58497 0.66106 0.36547 0.0
C260 C 0.53838 0.59558 0.15916 0.0
C261 C 0.55508 0.56334 0.15765 0.0
C262 C 0.55245 0.6191 0.19907 0.0
C263 C 0.58371 0.61095 0.2375 0.0
C264 C 0.60115 0.57941 0.23392 0.0
C265 C 0.587 0.55593 0.19468 0.0
H266 H 0.86235 0.1864 0.78944 0.0
H267 H 0.84697 0.08953 0.8762 0.0
H268 H 0.88685 0.15456 0.72199 0.0
H269 H 0.87164 0.058 0.80904 0.0
H270 H 0.97621 0.03427 0.74266 0.0
H271 H 0.93678 0.05997 0.79639 0.0
H272 H 0.87417 0.10697 0.64851 0.0
H273 H 0.91356 0.0806 0.59414 0.0
C274 C 0.86351 0.15833 0.79353 0.0
C275 C 0.85323 0.14055 0.83866 0.0
C276 C 0.87735 0.14012 0.75475 0.0
C277 C 0.88142 0.10389 0.76073 0.0
C278 C 0.86908 0.08597 0.80385 0.0
C279 C 0.85491 0.10409 0.84222 0.0
C280 C 0.95373 0.04964 0.72146 0.0
C281 C 0.94801 0.05557 0.6643 0.0
C282 C 0.93104 0.06417 0.75218 0.0
C283 C 0.90244 0.08542 0.72654 0.0
C284 C 0.89608 0.0907 0.66917 0.0
C285 C 0.91847 0.07552 0.63817 0.0
H286 H 0.27347 0.42026 0.27081 0.0
H287 H 0.36292 0.35189 0.33049 0.0
H288 H 0.30096 0.43937 0.19311 0.0
H289 H 0.3904 0.37127 0.25438 0.0
H290 H 0.42816 0.39189 0.10288 0.0
H291 H 0.38566 0.36947 0.15709 0.0
H292 H 0.353 0.47428 0.17873 0.0
H293 H 0.39483 0.4966 0.12202 0.0
C294 C 0.29874 0.40902 0.26703 0.0
C295 C 0.31607 0.3846 0.3069 0.0
C296 C 0.31454 0.42012 0.22274 0.0
C297 C 0.34778 0.40676 0.21733 0.0
C298 C 0.36446 0.38165 0.2565 0.0
C299 C 0.3488 0.37069 0.30057 0.0
C300 C 0.41112 0.41005 0.1179 0.0
C301 C 0.41494 0.44592 0.10896 0.0
C302 C 0.38697 0.39726 0.1493 0.0
C303 C 0.36665 0.42011 0.17354 0.0
C304 C 0.36826 0.45597 0.16065 0.0
C305 C 0.39217 0.4688 0.12824 0.0
H306 H 0.12727 0.82 0.90881 0.0
H307 H 0.19854 0.90754 0.91587 0.0
H308 H 0.09735 0.84049 0.81662 0.0
H309 H 0.16899 0.92771 0.82473 0.0
H310 H 0.13139 0.94646 0.649 0.0
H311 H 0.16033 0.91082 0.72804 0.0
H312 H 0.05877 0.89326 0.7761 0.0
H313 H 0.02952 0.9288 0.69583 0.0
C314 C 0.13688 0.84327 0.89044 0.0
C315 C 0.1653 0.86215 0.91968 0.0
C316 C 0.1196 0.85508 0.83787 0.0
C317 C 0.13091 0.88559 0.81326 0.0
C318 C 0.15993 0.90381 0.84208 0.0
C319 C 0.17678 0.89235 0.89458 0.0
C320 C 0.11506 0.93419 0.67555 0.0
C321 C 0.07828 0.94077 0.66671 0.0
C322 C 0.13168 0.91394 0.721 0.0
C323 C 0.11198 0.89993 0.75901 0.0
C324 C 0.07467 0.90376 0.74752 0.0
C325 C 0.05789 0.92403 0.70154 0.0
loop_
_geom_bond_atom_site_label_1
_geom_bond_atom_site_label_2
_geom_bond_distance
_geom_bond_site_symmetry_2
_ccdc_geom_bond_type
O0 Cd1 2.300 1_556 S
O0 C7 1.275 1_556 S
Cd1 O0 2.300 1_554 S
Cd1 O9 2.381 . S
Cd1 O10 2.378 . S
O2 Cd3 2.385 . S
O2 C7 1.255 . S
Cd3 O2 2.385 . S
Cd3 O4 2.317 . S
O4 Cd3 2.317 . S
O4 C5 1.232 . S
C5 O4 1.232 . S
C5 O6 1.218 . S
O6 C5 1.218 . S
C7 O0 1.275 1_554 S
C7 O2 1.255 . S
C8 O9 1.258 . S
C8 O10 1.256 . S
O9 Cd1 2.381 . S
O9 C8 1.258 . S
O10 Cd1 2.378 . S
O10 C8 1.256 . S
O11 Cd12 2.300 . S
O11 C18 1.275 . S
Cd12 O11 2.300 . S
Cd12 O20 2.381 . S
Cd12 O21 2.378 . S
O13 Cd14 2.385 . S
O13 C18 1.255 . S
Cd14 O13 2.385 . S
Cd14 O15 2.317 . S
O15 Cd14 2.317 . S
O15 C16 1.232 . S
C16 O15 1.232 . S
C16 O17 1.218 . S
O17 C16 1.218 . S
C18 O11 1.275 . S
C18 O13 1.255 . S
C19 O20 1.258 . S
C19 O21 1.256 . S
O20 Cd12 2.381 . S
O20 C19 1.258 . S
O21 Cd12 2.378 . S
O21 C19 1.256 . S
O22 Cd23 2.300 . S
O22 C29 1.275 . S
Cd23 O22 2.300 . S
Cd23 O31 2.381 . S
Cd23 O32 2.378 1_554 S
O24 Cd25 2.385 1_554 S
O24 C29 1.255 . S
Cd25 O24 2.385 1_556 S
Cd25 O26 2.317 . S
O26 Cd25 2.317 . S
O26 C27 1.232 . S
C27 O26 1.232 . S
C27 O28 1.218 . S
O28 C27 1.218 . S
C29 O22 1.275 . S
C29 O24 1.255 . S
C30 O31 1.258 . S
C30 O32 1.256 1_554 S
O31 Cd23 2.381 . S
O31 C30 1.258 . S
O32 Cd23 2.378 1_556 S
O32 C30 1.256 1_556 S
O33 Cd34 2.300 . S
O33 C40 1.275 . S
Cd34 O33 2.300 . S
Cd34 O42 2.381 . S
Cd34 O43 2.378 . S
O35 Cd36 2.385 . S
O35 C40 1.255 . S
Cd36 O35 2.385 . S
Cd36 O37 2.317 . S
O37 Cd36 2.317 . S
O37 C38 1.232 . S
C38 O37 1.232 . S
C38 O39 1.218 . S
O39 C38 1.218 . S
C40 O33 1.275 . S
C40 O35 1.255 . S
C41 O42 1.258 . S
C41 O43 1.256 . S
O42 Cd34 2.381 . S
O42 C41 1.258 . S
O43 Cd34 2.378 . S
O43 C41 1.256 . S
O44 Mg45 1.990 . S
O44 C58 1.253 1_455 S
Mg45 O44 1.990 . S
Mg45 O48 2.180 . S
Mg45 O49 2.117 . S
Mg45 O63 2.030 . S
O46 Mg47 2.072 1_655 S
O46 C58 1.260 . S
Mg47 O46 2.072 1_455 S
Mg47 O48 2.099 . S
Mg47 O50 2.079 1_545 S
Mg47 O51 2.072 1_455 S
Mg47 O53 2.099 1_445 S
Mg47 O64 2.079 1_545 S
O48 Mg45 2.180 . S
O48 Mg47 2.099 . S
O48 C59 1.279 . S
O49 Mg45 2.117 . S
O49 C59 1.250 . S
O50 Mg47 2.079 1_565 S
O50 C60 1.264 . S
O51 Mg47 2.072 1_655 S
O51 C61 1.260 . S
Mg52 O53 2.180 . S
Mg52 O54 2.030 1_655 S
Mg52 O55 1.990 1_565 S
Mg52 O56 2.117 . S
O53 Mg47 2.099 1_665 S
O53 Mg52 2.180 . S
O53 C62 1.279 . S
O54 Mg52 2.030 1_455 S
O54 C60 1.248 . S
O55 Mg52 1.990 1_545 S
O55 C61 1.253 . S
O56 Mg52 2.117 . S
O56 C62 1.250 . S
C57 O63 1.248 1_565 S
C57 O64 1.264 . S
C58 O44 1.253 1_655 S
C58 O46 1.260 . S
C59 O48 1.279 . S
C59 O49 1.250 . S
C60 O50 1.264 . S
C60 O54 1.248 . S
C61 O51 1.260 . S
C61 O55 1.253 . S
C62 O53 1.279 . S
C62 O56 1.250 . S
O63 Mg45 2.030 . S
O63 C57 1.248 1_545 S
O64 Mg47 2.079 1_565 S
O64 C57 1.264 . S
O65 Mg66 1.990 . S
O65 C79 1.253 . S
Mg66 O65 1.990 . S
Mg66 O69 2.180 . S
Mg66 O70 2.117 . S
Mg66 O84 2.030 . S
O67 Mg68 2.072 . S
O67 C79 1.260 . S
Mg68 O67 2.072 . S
Mg68 O69 2.099 . S
Mg68 O71 2.079 1_554 S
Mg68 O72 2.072 1_554 S
Mg68 O74 2.099 1_554 S
Mg68 O85 2.079 . S
O69 Mg66 2.180 . S
O69 Mg68 2.099 . S
O69 C80 1.279 . S
O70 Mg66 2.117 . S
O70 C80 1.250 . S
O71 Mg68 2.079 1_556 S
O71 C81 1.264 . S
O72 Mg68 2.072 1_556 S
O72 C82 1.260 . S
Mg73 O74 2.180 . S
Mg73 O75 2.030 . S
Mg73 O76 1.990 . S
Mg73 O77 2.117 . S
O74 Mg68 2.099 1_556 S
O74 Mg73 2.180 . S
O74 C83 1.279 . S
O75 Mg73 2.030 . S
O75 C81 1.248 . S
O76 Mg73 1.990 . S
O76 C82 1.253 . S
O77 Mg73 2.117 . S
O77 C83 1.250 . S
C78 O84 1.248 . S
C78 O85 1.264 . S
C79 O65 1.253 . S
C79 O67 1.260 . S
C80 O69 1.279 . S
C80 O70 1.250 . S
C81 O71 1.264 . S
C81 O75 1.248 . S
C82 O72 1.260 . S
C82 O76 1.253 . S
C83 O74 1.279 . S
C83 O77 1.250 . S
O84 Mg66 2.030 . S
O84 C78 1.248 . S
O85 Mg68 2.079 . S
O85 C78 1.264 . S
H86 C94 0.950 . S
H87 C99 0.950 . S
H88 C96 0.950 . S
H89 C98 0.950 . S
H90 C100 0.950 . S
H91 C102 0.950 . S
H92 C104 0.950 . S
H93 C105 0.950 . S
C94 H86 0.950 . S
C94 C95 1.386 . S
C94 C96 1.391 . S
C95 C94 1.386 . S
C95 C99 1.393 . S
C96 H88 0.950 . S
C96 C94 1.391 . S
C96 C97 1.400 . S
C97 C96 1.400 . S
C97 C98 1.398 . S
C97 C103 1.491 . S
C98 H89 0.950 . S
C98 C97 1.398 . S
C98 C99 1.391 . S
C99 H87 0.950 . S
C99 C95 1.393 . S
C99 C98 1.391 . S
C100 H90 0.950 . S
C100 C101 1.386 . S
C100 C102 1.391 . S
C101 C100 1.386 . S
C101 C105 1.393 . S
C102 H91 0.950 . S
C102 C100 1.391 . S
C102 C103 1.400 . S
C103 C97 1.491 . S
C103 C102 1.400 . S
C103 C104 1.398 . S
C104 H92 0.950 . S
C104 C103 1.398 . S
C104 C105 1.391 . S
C105 H93 0.950 . S
C105 C101 1.393 . S
C105 C104 1.391 . S
H106 C114 0.950 1_556 S
H107 C119 0.950 . S
H108 C116 0.950 1_556 S
H109 C118 0.950 . S
H110 C120 0.950 . S
H111 C122 0.950 . S
H112 C124 0.950 . S
H113 C125 0.950 . S
C114 H106 0.950 1_554 S
C114 C115 1.386 . S
C114 C116 1.391 . S
C115 C114 1.386 . S
C115 C119 1.393 . S
C116 H108 0.950 1_554 S
C116 C114 1.391 . S
C116 C117 1.400 . S
C117 C116 1.400 . S
C117 C118 1.398 . S
C117 C123 1.491 . S
C118 H109 0.950 . S
C118 C117 1.398 . S
C118 C119 1.391 . S
C119 H107 0.950 . S
C119 C115 1.393 . S
C119 C118 1.391 . S
C120 H110 0.950 . S
C120 C121 1.386 . S
C120 C122 1.391 . S
C121 C120 1.386 . S
C121 C125 1.393 1_554 S
C122 H111 0.950 . S
C122 C120 1.391 . S
C122 C123 1.400 . S
C123 C117 1.491 . S
C123 C122 1.400 . S
C123 C124 1.398 1_554 S
C124 H112 0.950 . S
C124 C123 1.398 1_556 S
C124 C125 1.391 . S
C125 H113 0.950 . S
C125 C121 1.393 1_556 S
C125 C124 1.391 . S
H126 C134 0.950 . S
H127 C139 0.950 . S
H128 C136 0.950 . S
H129 C138 0.950 . S
H130 C140 0.950 . S
H131 C142 0.950 . S
H132 C144 0.950 . S
H133 C145 0.950 . S
C134 H126 0.950 . S
C134 C135 1.386 . S
C134 C136 1.391 . S
C135 C134 1.386 . S
C135 C139 1.393 . S
C136 H128 0.950 . S
C136 C134 1.391 . S
C136 C137 1.400 . S
C137 C136 1.400 . S
C137 C138 1.398 . S
C137 C143 1.491 . S
C138 H129 0.950 . S
C138 C137 1.398 . S
C138 C139 1.391 . S
C139 H127 0.950 . S
C139 C135 1.393 . S
C139 C138 1.391 . S
C140 H130 0.950 . S
C140 C141 1.386 . S
C140 C142 1.391 . S
C141 C140 1.386 . S
C141 C145 1.393 . S
C142 H131 0.950 . S
C142 C140 1.391 . S
C142 C143 1.400 . S
C143 C137 1.491 . S
C143 C142 1.400 . S
C143 C144 1.398 . S
C144 H132 0.950 . S
C144 C143 1.398 . S
C144 C145 1.391 . S
C145 H133 0.950 . S
C145 C141 1.393 . S
C145 C144 1.391 . S
H146 C154 0.950 1_556 S
H147 C159 0.950 . S
H148 C156 0.950 1_556 S
H149 C158 0.950 . S
H150 C160 0.950 . S
H151 C162 0.950 . S
H152 C164 0.950 . S
H153 C165 0.950 . S
C154 H146 0.950 1_554 S
C154 C155 1.386 . S
C154 C156 1.391 . S
C155 C154 1.386 . S
C155 C159 1.393 . S
C156 H148 0.950 1_554 S
C156 C154 1.391 . S
C156 C157 1.400 . S
C157 C156 1.400 . S
C157 C158 1.398 . S
C157 C163 1.491 . S
C158 H149 0.950 . S
C158 C157 1.398 . S
C158 C159 1.391 . S
C159 H147 0.950 . S
C159 C155 1.393 . S
C159 C158 1.391 . S
C160 H150 0.950 . S
C160 C161 1.386 . S
C160 C162 1.391 . S
C161 C160 1.386 . S
C161 C165 1.393 1_554 S
C162 H151 0.950 . S
C162 C160 1.391 . S
C162 C163 1.400 . S
C163 C157 1.491 . S
C163 C162 1.400 . S
C163 C164 1.398 1_554 S
C164 H152 0.950 . S
C164 C163 1.398 1_556 S
C164 C165 1.391 . S
C165 H153 0.950 . S
C165 C161 1.393 1_556 S
C165 C164 1.391 . S
H166 C174 0.950 . S
H167 C179 0.950 . S
H168 C176 0.950 . S
H169 C178 0.950 . S
H170 C180 0.950 1_545 S
H171 C182 0.950 . S
H172 C184 0.950 . S
H173 C185 0.950 . S
C174 H166 0.950 . S
C174 C175 1.386 . S
C174 C176 1.391 . S
C175 C174 1.386 . S
C175 C179 1.393 . S
C176 H168 0.950 . S
C176 C174 1.391 . S
C176 C177 1.400 . S
C177 C176 1.400 . S
C177 C178 1.398 . S
C177 C183 1.491 . S
C178 H169 0.950 . S
C178 C177 1.398 . S
C178 C179 1.391 . S
C179 H167 0.950 . S
C179 C175 1.393 . S
C179 C178 1.391 . S
C180 H170 0.950 1_565 S
C180 C181 1.386 . S
C180 C182 1.391 . S
C181 C180 1.386 . S
C181 C185 1.393 . S
C182 H171 0.950 . S
C182 C180 1.391 . S
C182 C183 1.400 . S
C183 C177 1.491 . S
C183 C182 1.400 . S
C183 C184 1.398 . S
C184 H172 0.950 . S
C184 C183 1.398 . S
C184 C185 1.391 . S
C185 H173 0.950 . S
C185 C181 1.393 . S
C185 C184 1.391 . S
H186 C194 0.950 . S
H187 C199 0.950 . S
H188 C196 0.950 . S
H189 C198 0.950 . S
H190 C200 0.950 . S
H191 C202 0.950 . S
H192 C204 0.950 . S
H193 C205 0.950 . S
C194 H186 0.950 . S
C194 C195 1.386 . S
C194 C196 1.391 . S
C195 C194 1.386 . S
C195 C199 1.393 . S
C196 H188 0.950 . S
C196 C194 1.391 . S
C196 C197 1.400 . S
C197 C196 1.400 . S
C197 C198 1.398 . S
C197 C203 1.491 . S
C198 H189 0.950 . S
C198 C197 1.398 . S
C198 C199 1.391 . S
C199 H187 0.950 . S
C199 C195 1.393 . S
C199 C198 1.391 . S
C200 H190 0.950 . S
C200 C201 1.386 . S
C200 C202 1.391 . S
C201 C200 1.386 . S
C201 C205 1.393 . S
C202 H191 0.950 . S
C202 C200 1.391 . S
C202 C203 1.400 . S
C203 C197 1.491 . S
C203 C202 1.400 . S
C203 C204 1.398 . S
C204 H192 0.950 . S
C204 C203 1.398 . S
C204 C205 1.391 . S
C205 H193 0.950 . S
C205 C201 1.393 . S
C205 C204 1.391 . S
H206 C214 0.950 . S
H207 C219 0.950 . S
H208 C216 0.950 . S
H209 C218 0.950 . S
H210 C220 0.950 . S
H211 C222 0.950 . S
H212 C224 0.950 . S
H213 C225 0.950 . S
C214 H206 0.950 . S
C214 C215 1.386 . S
C214 C216 1.391 . S
C215 C214 1.386 . S
C215 C219 1.393 . S
C216 H208 0.950 . S
C216 C214 1.391 . S
C216 C217 1.400 . S
C217 C216 1.400 . S
C217 C218 1.398 . S
C217 C223 1.491 . S
C218 H209 0.950 . S
C218 C217 1.398 . S
C218 C219 1.391 . S
C219 H207 0.950 . S
C219 C215 1.393 . S
C219 C218 1.391 . S
C220 H210 0.950 . S
C220 C221 1.386 . S
C220 C222 1.391 . S
C221 C220 1.386 . S
C221 C225 1.393 . S
C222 H211 0.950 . S
C222 C220 1.391 . S
C222 C223 1.400 . S
C223 C217 1.491 . S
C223 C222 1.400 . S
C223 C224 1.398 . S
C224 H212 0.950 . S
C224 C223 1.398 . S
C224 C225 1.391 . S
C225 H213 0.950 . S
C225 C221 1.393 . S
C225 C224 1.391 . S
H226 C234 0.950 . S
H227 C239 0.950 . S
H228 C236 0.950 . S
H229 C238 0.950 . S
H230 C240 0.950 . S
H231 C242 0.950 . S
H232 C244 0.950 . S
H233 C245 0.950 . S
C234 H226 0.950 . S
C234 C235 1.386 . S
C234 C236 1.391 . S
C235 C234 1.386 . S
C235 C239 1.393 . S
C236 H228 0.950 . S
C236 C234 1.391 . S
C236 C237 1.400 . S
C237 C236 1.400 . S
C237 C238 1.398 . S
C237 C243 1.491 . S
C238 H229 0.950 . S
C238 C237 1.398 . S
C238 C239 1.391 . S
C239 H227 0.950 . S
C239 C235 1.393 . S
C239 C238 1.391 . S
C240 H230 0.950 . S
C240 C241 1.386 . S
C240 C242 1.391 . S
C241 C240 1.386 . S
C241 C245 1.393 . S
C242 H231 0.950 . S
C242 C240 1.391 . S
C242 C243 1.400 . S
C243 C237 1.491 . S
C243 C242 1.400 . S
C243 C244 1.398 . S
C244 H232 0.950 . S
C244 C243 1.398 . S
C244 C245 1.391 . S
C245 H233 0.950 . S
C245 C241 1.393 . S
C245 C244 1.391 . S
H246 C254 0.950 . S
H247 C259 0.950 . S
H248 C256 0.950 . S
H249 C258 0.950 . S
H250 C260 0.950 . S
H251 C262 0.950 . S
H252 C264 0.950 . S
H253 C265 0.950 . S
C254 H246 0.950 . S
C254 C255 1.386 . S
C254 C256 1.391 . S
C255 C254 1.386 . S
C255 C259 1.393 . S
C256 H248 0.950 . S
C256 C254 1.391 . S
C256 C257 1.400 . S
C257 C256 1.400 . S
C257 C258 1.398 . S
C257 C263 1.491 . S
C258 H249 0.950 . S
C258 C257 1.398 . S
C258 C259 1.391 . S
C259 H247 0.950 . S
C259 C255 1.393 . S
C259 C258 1.391 . S
C260 H250 0.950 . S
C260 C261 1.386 . S
C260 C262 1.391 . S
C261 C260 1.386 . S
C261 C265 1.393 . S
C262 H251 0.950 . S
C262 C260 1.391 . S
C262 C263 1.400 . S
C263 C257 1.491 . S
C263 C262 1.400 . S
C263 C264 1.398 . S
C264 H252 0.950 . S
C264 C263 1.398 . S
C264 C265 1.391 . S
C265 H253 0.950 . S
C265 C261 1.393 . S
C265 C264 1.391 . S
H266 C274 0.950 . S
H267 C279 0.950 . S
H268 C276 0.950 . S
H269 C278 0.950 . S
H270 C280 0.950 . S
H271 C282 0.950 . S
H272 C284 0.950 . S
H273 C285 0.950 . S
C274 H266 0.950 . S
C274 C275 1.386 . S
C274 C276 1.391 . S
C275 C274 1.386 . S
C275 C279 1.393 . S
C276 H268 0.950 . S
C276 C274 1.391 . S
C276 C277 1.400 . S
C277 C276 1.400 . S
C277 C278 1.398 . S
C277 C283 1.491 . S
C278 H269 0.950 . S
C278 C277 1.398 . S
C278 C279 1.391 . S
C279 H267 0.950 . S
C279 C275 1.393 . S
C279 C278 1.391 . S
C280 H270 0.950 . S
C280 C281 1.386 . S
C280 C282 1.391 . S
C281 C280 1.386 . S
C281 C285 1.393 . S
C282 H271 0.950 . S
C282 C280 1.391 . S
C282 C283 1.400 . S
C283 C277 1.491 . S
C283 C282 1.400 . S
C283 C284 1.398 . S
C284 H272 0.950 . S
C284 C283 1.398 . S
C284 C285 1.391 . S
C285 H273 0.950 . S
C285 C281 1.393 . S
C285 C284 1.391 . S
H286 C294 0.950 . S
H287 C299 0.950 . S
H288 C296 0.950 . S
H289 C298 0.950 . S
H290 C300 0.950 . S
H291 C302 0.950 . S
H292 C304 0.950 . S
H293 C305 0.950 . S
C294 H286 0.950 . S
C294 C295 1.386 . S
C294 C296 1.391 . S
C295 C294 1.386 . S
C295 C299 1.393 . S
C296 H288 0.950 . S
C296 C294 1.391 . S
C296 C297 1.400 . S
C297 C296 1.400 . S
C297 C298 1.398 . S
C297 C303 1.491 . S
C298 H289 0.950 . S
C298 C297 1.398 . S
C298 C299 1.391 . S
C299 H287 0.950 . S
C299 C295 1.393 . S
C299 C298 1.391 . S
C300 H290 0.950 . S
C300 C301 1.386 . S
C300 C302 1.391 . S
C301 C300 1.386 . S
C301 C305 1.393 . S
C302 H291 0.950 . S
C302 C300 1.391 . S
C302 C303 1.400 . S
C303 C297 1.491 . S
C303 C302 1.400 . S
C303 C304 1.398 . S
C304 H292 0.950 . S
C304 C303 1.398 . S
C304 C305 1.391 . S
C305 H293 0.950 . S
C305 C301 1.393 . S
C305 C304 1.391 . S
H306 C314 0.950 . S
H307 C319 0.950 . S
H308 C316 0.950 . S
H309 C318 0.950 . S
H310 C320 0.950 . S
H311 C322 0.950 . S
H312 C324 0.950 . S
H313 C325 0.950 . S
C314 H306 0.950 . S
C314 C315 1.386 . S
C314 C316 1.391 . S
C315 C314 1.386 . S
C315 C319 1.393 . S
C316 H308 0.950 . S
C316 C314 1.391 . S
C316 C317 1.400 . S
C317 C316 1.400 . S
C317 C318 1.398 . S
C317 C323 1.491 . S
C318 H309 0.950 . S
C318 C317 1.398 . S
C318 C319 1.391 . S
C319 H307 0.950 . S
C319 C315 1.393 . S
C319 C318 1.391 . S
C320 H310 0.950 . S
C320 C321 1.386 . S
C320 C322 1.391 . S
C321 C320 1.386 . S
C321 C325 1.393 . S
C322 H311 0.950 . S
C322 C320 1.391 . S
C322 C323 1.400 . S
C323 C317 1.491 . S
C323 C322 1.400 . S
C323 C324 1.398 . S
C324 H312 0.950 . S
C324 C323 1.398 . S
C324 C325 1.391 . S
C325 H313 0.950 . S
C325 C321 1.393 . S
C325 C324 1.391 . S
C101 C59 1.276 . S
C95 C41 1.436 . S
C115 C8 1.441 . S
C121 C83 1.288 1_554 S
C135 C19 1.635 . S
C141 C62 1.413 . S
C155 C30 1.573 . S
C161 C80 1.376 . S
C181 C60 1.497 . S
C175 C5 1.376 . S
C201 C82 1.614 . S
C195 C18 1.651 . S
C215 C29 1.562 . S
C221 C61 1.551 . S
C235 C40 1.568 . S
C241 C81 1.555 . S
C261 C79 1.418 . S
C255 C16 1.267 . S
C281 C58 1.422 . S
C275 C27 1.293 . S
C301 C78 1.342 . S
C295 C38 1.221 . S
C315 C7 1.374 1_556 S
C321 C57 1.369 . S
