# Generated by pormake.
# Topology zzz, (3,6)-cn, num edge types: 1
# Building blocks:
#     Node 0, Type 0, BuildingBlock: OLANEW_clean_sbu_2, # of connection points: 3
#     Node 1, Type 0, BuildingBlock: OLANEW_clean_sbu_2, # of connection points: 3
#     Node 2, Type 0, BuildingBlock: OLANEW_clean_sbu_2, # of connection points: 3
#     Node 3, Type 0, BuildingBlock: OLANEW_clean_sbu_2, # of connection points: 3
#     Node 4, Type 0, BuildingBlock: OLANEW_clean_sbu_2, # of connection points: 3
#     Node 5, Type 0, BuildingBlock: OLANEW_clean_sbu_2, # of connection points: 3
#     Node 6, Type 0, BuildingBlock: OLANEW_clean_sbu_2, # of connection points: 3
#     Node 7, Type 0, BuildingBlock: OLANEW_clean_sbu_2, # of connection points: 3
#     Node 8, Type 1, BuildingBlock: GEDQOX_clean_sbu_0, # of connection points: 6
#     Node 9, Type 1, BuildingBlock: GEDQOX_clean_sbu_0, # of connection points: 6
#     Node 10, Type 1, BuildingBlock: GEDQOX_clean_sbu_0, # of connection points: 6
#     Node 11, Type 1, BuildingBlock: GEDQOX_clean_sbu_0, # of connection points: 6
#     Edge 12, Type (0, 1), BuildingBlock: TEMPAE_clean_linker_10, # of connection points: 2
#     Edge 13, Type (0, 1), BuildingBlock: TEMPAE_clean_linker_10, # of connection points: 2
#     Edge 14, Type (0, 1), BuildingBlock: TEMPAE_clean_linker_10, # of connection points: 2
#     Edge 15, Type (0, 1), BuildingBlock: TEMPAE_clean_linker_10, # of connection points: 2
#     Edge 16, Type (0, 1), BuildingBlock: TEMPAE_clean_linker_10, # of connection points: 2
#     Edge 17, Type (0, 1), BuildingBlock: TEMPAE_clean_linker_10, # of connection points: 2
#     Edge 18, Type (0, 1), BuildingBlock: TEMPAE_clean_linker_10, # of connection points: 2
#     Edge 19, Type (0, 1), BuildingBlock: TEMPAE_clean_linker_10, # of connection points: 2
#     Edge 20, Type (0, 1), BuildingBlock: TEMPAE_clean_linker_10, # of connection points: 2
#     Edge 21, Type (0, 1), BuildingBlock: TEMPAE_clean_linker_10, # of connection points: 2
#     Edge 22, Type (0, 1), BuildingBlock: TEMPAE_clean_linker_10, # of connection points: 2
#     Edge 23, Type (0, 1), BuildingBlock: TEMPAE_clean_linker_10, # of connection points: 2
#     Edge 24, Type (0, 1), BuildingBlock: TEMPAE_clean_linker_10, # of connection points: 2
#     Edge 25, Type (0, 1), BuildingBlock: TEMPAE_clean_linker_10, # of connection points: 2
#     Edge 26, Type (0, 1), BuildingBlock: TEMPAE_clean_linker_10, # of connection points: 2
#     Edge 27, Type (0, 1), BuildingBlock: TEMPAE_clean_linker_10, # of connection points: 2
#     Edge 28, Type (0, 1), BuildingBlock: TEMPAE_clean_linker_10, # of connection points: 2
#     Edge 29, Type (0, 1), BuildingBlock: TEMPAE_clean_linker_10, # of connection points: 2
#     Edge 30, Type (0, 1), BuildingBlock: TEMPAE_clean_linker_10, # of connection points: 2
#     Edge 31, Type (0, 1), BuildingBlock: TEMPAE_clean_linker_10, # of connection points: 2
#     Edge 32, Type (0, 1), BuildingBlock: TEMPAE_clean_linker_10, # of connection points: 2
#     Edge 33, Type (0, 1), BuildingBlock: TEMPAE_clean_linker_10, # of connection points: 2
#     Edge 34, Type (0, 1), BuildingBlock: TEMPAE_clean_linker_10, # of connection points: 2
#     Edge 35, Type (0, 1), BuildingBlock: TEMPAE_clean_linker_10, # of connection points: 2
# Relax obj value: 0.145
# Max RMSD: 0.230
# Mean RMSD: 0.101
data_MOF--net-zzz--node1-OLANEW_clean_sbu_2--node2-GEDQOX_clean_sbu_0--edge1-TEMPAE_clean_linker_10
_symmetry_space_group_name_H-M    P1
_symmetry_Int_Tables_number       1
_symmetry_cell_setting            triclinic
loop_
_symmetry_equiv_pos_as_xyz
'x, y, z'
_cell_length_a     58.526768
_cell_length_b     56.989343
_cell_length_c     19.258764
_cell_angle_alpha  80.912635
_cell_angle_beta   89.860909
_cell_angle_gamma 101.53708
loop_
_atom_site_label
_atom_site_type_symbol
_atom_site_fract_x
_atom_site_fract_y
_atom_site_fract_z
_atom_type_partial_charge
O0 O 0.78391 0.44244 0.9008 0.0
Cd1 Cd 0.74472 0.42493 0.95302 0.0
O2 O 0.79059 0.45926 0.99521 0.0
Cd3 Cd 0.81231 0.47721 0.07159 0.0
O4 O 0.83699 0.49569 0.13978 0.0
C5 C 0.85607 0.48864 0.15172 0.0
O6 O 0.86024 0.47049 0.1226 0.0
C7 C 0.79809 0.45489 0.93745 0.0
C8 C 0.70845 0.44973 0.92187 0.0
O9 O 0.72279 0.45502 0.96999 0.0
O10 O 0.7119 0.43345 0.88633 0.0
O11 O 0.93834 0.76449 0.9615 0.0
Cd12 Cd 0.92111 0.72226 0.00867 0.0
O13 O 0.95952 0.76585 0.05534 0.0
Cd14 Cd 0.98056 0.78863 0.12235 0.0
O15 O 0.98811 0.81785 0.18481 0.0
C16 C 0.97206 0.82969 0.18905 0.0
O17 O 0.95274 0.82383 0.15555 0.0
C18 C 0.95322 0.77635 0.99754 0.0
C19 C 0.94691 0.68834 0.98141 0.0
O20 O 0.93105 0.69395 0.93995 0.0
O21 O 0.95093 0.69922 0.03487 0.0
O22 O 0.7383 0.98913 0.79933 0.0
Cd23 Cd 0.76872 0.96836 0.76891 0.0
O24 O 0.72991 0.97099 0.90872 0.0
Cd25 Cd 0.70988 0.96497 0.00897 0.0
O26 O 0.68788 0.9627 0.1031 0.0
C27 C 0.66752 0.94939 0.11065 0.0
O28 O 0.65985 0.93653 0.06145 0.0
C29 C 0.72602 0.98596 0.85583 0.0
C30 C 0.81217 0.97946 0.82738 0.0
O31 O 0.79789 0.95955 0.85036 0.0
O32 O 0.80565 0.99451 0.7786 0.0
O33 O 0.60263 0.78674 0.16843 0.0
Cd34 Cd 0.6173 0.82625 0.20234 0.0
O35 O 0.58659 0.77701 0.27441 0.0
Cd36 Cd 0.56535 0.75315 0.36078 0.0
O37 O 0.55331 0.72267 0.4444 0.0
C38 C 0.56614 0.71979 0.4969 0.0
O39 O 0.5855 0.73584 0.49987 0.0
C40 C 0.59039 0.77102 0.21517 0.0
C41 C 0.59093 0.85962 0.14512 0.0
O42 O 0.60991 0.85811 0.11435 0.0
O43 O 0.58447 0.84539 0.20325 0.0
O44 O 0.25919 0.58868 0.80846 0.0
Cd45 Cd 0.2998 0.60363 0.76511 0.0
O46 O 0.25447 0.56644 0.72473 0.0
Cd47 Cd 0.23536 0.54098 0.66058 0.0
O48 O 0.21174 0.52253 0.58953 0.0
C49 C 0.20243 0.53579 0.54333 0.0
O50 O 0.20777 0.55946 0.54031 0.0
C51 C 0.24573 0.57445 0.77464 0.0
C52 C 0.33312 0.5753 0.80173 0.0
O53 O 0.33018 0.59166 0.83763 0.0
O54 O 0.3196 0.5716 0.75056 0.0
O55 O 0.08893 0.25511 0.76413 0.0
Cd56 Cd 0.11239 0.29619 0.73524 0.0
O57 O 0.10449 0.24939 0.66646 0.0
Cd58 Cd 0.11248 0.22837 0.5872 0.0
O59 O 0.1091 0.20421 0.50908 0.0
C60 C 0.1127 0.18277 0.52472 0.0
O61 O 0.11937 0.17555 0.58826 0.0
C62 C 0.09091 0.24108 0.72032 0.0
C63 C 0.08955 0.33316 0.75589 0.0
O64 O 0.08763 0.32424 0.6986 0.0
O65 O 0.10192 0.32424 0.80406 0.0
O66 O 0.30674 0.05962 0.79994 0.0
Cd67 Cd 0.27716 0.08449 0.78071 0.0
O68 O 0.32251 0.08201 0.70217 0.0
Cd69 Cd 0.34814 0.09362 0.61406 0.0
O70 O 0.37292 0.10293 0.52414 0.0
C71 C 0.38621 0.0884 0.5158 0.0
O72 O 0.3848 0.06855 0.56217 0.0
C73 C 0.3233 0.06524 0.75378 0.0
C74 C 0.23099 0.05962 0.80141 0.0
O75 O 0.24182 0.06937 0.8508 0.0
O76 O 0.24222 0.06112 0.7431 0.0
O77 O 0.44534 0.2512 0.41911 0.0
Cd78 Cd 0.43447 0.21847 0.35008 0.0
O79 O 0.48203 0.25261 0.3914 0.0
Cd80 Cd 0.47214 0.24216 0.28992 0.0
O81 O 0.4712 0.2712 0.20206 0.0
C82 C 0.48686 0.28991 0.20586 0.0
O83 O 0.50177 0.28881 0.25662 0.0
C84 C 0.4669 0.25848 0.42912 0.0
C85 C 0.45426 0.18027 0.41443 0.0
O86 O 0.46554 0.19664 0.3664 0.0
O87 O 0.43326 0.18141 0.43013 0.0
Nd88 Nd 0.01015 0.00948 0.77756 0.0
Nd89 Nd 0.03026 0.00882 0.925 0.0
C90 C 0.98599 0.00263 0.66402 0.0
C91 C 0.98432 0.98512 0.61499 0.0
C92 C 0.97394 0.98956 0.55008 0.0
C93 C 0.97309 0.97333 0.50223 0.0
C94 C 0.98257 0.95238 0.51876 0.0
C95 C 0.9929 0.94801 0.58417 0.0
C96 C 0.99385 0.9643 0.63173 0.0
C97 C 0.05726 0.01152 0.7822 0.0
C98 C 0.00996 0.9571 0.88031 0.0
C99 C 0.05609 0.01496 0.03582 0.0
C100 C 0.06277 0.03273 0.08386 0.0
C101 C 0.07284 0.05716 0.05884 0.0
C102 C 0.07894 0.07352 0.10601 0.0
C103 C 0.07489 0.06578 0.17883 0.0
C104 C 0.06484 0.04135 0.20355 0.0
C105 C 0.05892 0.02498 0.15653 0.0
C106 C 0.98317 0.00826 0.92024 0.0
C107 C 0.02988 0.06082 0.82312 0.0
O108 O 0.97769 0.99383 0.72807 0.0
O109 O 0.00604 0.01775 0.66251 0.0
O110 O 0.0474 0.02302 0.73123 0.0
O111 O 0.04227 0.9982 0.82604 0.0
O112 O 0.00065 0.96898 0.82681 0.0
O113 O 0.02501 0.96837 0.921 0.0
O114 O 0.06447 0.02084 0.97091 0.0
O115 O 0.03431 0.0035 0.04044 0.0
O116 O 0.9927 0.99722 0.97296 0.0
O117 O 0.99848 0.02053 0.8759 0.0
O118 O 0.04101 0.04887 0.87185 0.0
O119 O 0.01292 0.04941 0.78815 0.0
H120 H 0.9666 0.00562 0.53629 0.0
H121 H 0.96481 0.97706 0.45258 0.0
H122 H 0.00061 0.93221 0.59811 0.0
H123 H 0.0022 0.96077 0.68135 0.0
H124 H 0.07591 0.06366 0.00297 0.0
H125 H 0.08647 0.09231 0.08549 0.0
H126 H 0.06176 0.03482 0.2594 0.0
H127 H 0.05128 0.00621 0.17697 0.0
Nd128 Nd 0.52167 0.00029 0.76005 0.0
Nd129 Nd 0.52461 0.04231 0.85905 0.0
C130 C 0.52498 0.96066 0.70949 0.0
C131 C 0.53881 0.95781 0.64876 0.0
C132 C 0.5382 0.93491 0.63005 0.0
C133 C 0.55157 0.93264 0.57188 0.0
C134 C 0.56563 0.95328 0.53159 0.0
C135 C 0.56625 0.97613 0.55117 0.0
C136 C 0.55299 0.97836 0.60917 0.0
C137 C 0.52142 0.04485 0.67966 0.0
C138 C 0.57296 0.03237 0.79124 0.0
C139 C 0.52727 0.08107 0.91988 0.0
C140 C 0.51271 0.08638 0.97524 0.0
C141 C 0.51722 0.10916 0.99687 0.0
C142 C 0.50331 0.11385 0.0503 0.0
C143 C 0.48468 0.09578 0.08284 0.0
C144 C 0.48025 0.07302 0.06032 0.0
C145 C 0.49406 0.06841 0.00694 0.0
C146 C 0.51729 0.9949 0.92633 0.0
C147 C 0.47398 0.01304 0.81963 0.0
O148 O 0.53719 0.9678 0.76193 0.0
O149 O 0.50801 0.97231 0.69438 0.0
O150 O 0.52065 0.02514 0.65322 0.0
O151 O 0.52331 0.04006 0.74504 0.0
O152 O 0.56093 0.01442 0.76214 0.0
O153 O 0.56318 0.04623 0.82637 0.0
O154 O 0.51708 0.07881 0.86011 0.0
O155 O 0.5392 0.06415 0.93996 0.0
O156 O 0.51022 0.01194 0.95274 0.0
O157 O 0.52957 0.00405 0.87168 0.0
O158 O 0.48618 0.0336 0.83498 0.0
O159 O 0.4836 0.99572 0.80047 0.0
H160 H 0.52738 0.91887 0.66021 0.0
H161 H 0.55064 0.91481 0.55783 0.0
H162 H 0.57719 0.99231 0.52203 0.0
H163 H 0.55383 0.99617 0.62328 0.0
H164 H 0.5315 0.12326 0.97258 0.0
H165 H 0.50705 0.13164 0.06586 0.0
H166 H 0.46637 0.05852 0.08491 0.0
H167 H 0.49031 0.05071 0.99074 0.0
Nd168 Nd 0.51148 0.51404 0.9361 0.0
Nd169 Nd 0.5242 0.49968 0.79928 0.0
C170 C 0.49731 0.53564 0.0352 0.0
C171 C 0.50554 0.55908 0.06025 0.0
C172 C 0.49443 0.57865 0.03957 0.0
C173 C 0.50295 0.60123 0.05968 0.0
C174 C 0.52272 0.60469 0.10112 0.0
C175 C 0.53343 0.58494 0.12336 0.0
C176 C 0.52492 0.56239 0.10331 0.0
C177 C 0.55543 0.50419 0.92962 0.0
C178 C 0.53478 0.5562 0.80231 0.0
C179 C 0.53934 0.47879 0.70004 0.0
C180 C 0.53352 0.45445 0.6811 0.0
C181 C 0.51562 0.4368 0.71818 0.0
C182 C 0.50965 0.41378 0.699 0.0
C183 C 0.52135 0.40818 0.6419 0.0
C184 C 0.5395 0.42587 0.60548 0.0
C185 C 0.54557 0.44883 0.62511 0.0
C186 C 0.48068 0.51055 0.80492 0.0
C187 C 0.50079 0.45741 0.93146 0.0
O188 O 0.48859 0.53669 0.97252 0.0
O189 O 0.51054 0.51955 0.04719 0.0
O190 O 0.54188 0.49798 0.9856 0.0
O191 O 0.54617 0.51613 0.88097 0.0
O192 O 0.52103 0.55057 0.85965 0.0
O193 O 0.54218 0.53931 0.77429 0.0
O194 O 0.54954 0.48028 0.75998 0.0
O195 O 0.52295 0.49143 0.69068 0.0
O196 O 0.49453 0.51678 0.74952 0.0
O197 O 0.48942 0.49806 0.8537 0.0
O198 O 0.51491 0.46337 0.87514 0.0
O199 O 0.49323 0.47414 0.96007 0.0
H200 H 0.47937 0.57662 0.00678 0.0
H201 H 0.4944 0.61614 0.04132 0.0
H202 H 0.54844 0.58692 0.15634 0.0
H203 H 0.53378 0.54766 0.12092 0.0
H204 H 0.506 0.44096 0.76119 0.0
H205 H 0.49544 0.40063 0.7275 0.0
H206 H 0.54895 0.42195 0.5617 0.0
H207 H 0.55948 0.46227 0.59614 0.0
Nd208 Nd 0.02163 0.53036 0.79791 0.0
Nd209 Nd 0.02294 0.49631 0.93454 0.0
C210 C 0.01062 0.56042 0.69012 0.0
C211 C 0.99364 0.55613 0.63525 0.0
C212 C 0.99074 0.57499 0.58199 0.0
C213 C 0.97518 0.57031 0.52833 0.0
C214 C 0.96233 0.54666 0.52727 0.0
C215 C 0.96525 0.52791 0.58145 0.0
C216 C 0.9807 0.53262 0.6349 0.0
C217 C 0.03143 0.48629 0.78249 0.0
C218 C 0.97296 0.49398 0.86844 0.0
C219 C 0.03415 0.46575 0.04108 0.0
C220 C 0.05307 0.46764 0.09123 0.0
C221 C 0.05042 0.45231 0.15647 0.0
C222 C 0.06742 0.45565 0.20699 0.0
C223 C 0.08733 0.47439 0.1929 0.0
C224 C 0.09012 0.48931 0.12666 0.0
C225 C 0.07313 0.48601 0.07644 0.0
C226 C 0.01257 0.54015 0.95001 0.0
C227 C 0.07129 0.53262 0.86347 0.0
O228 O 0.00177 0.55829 0.7538 0.0
O229 O 0.02823 0.54956 0.68831 0.0
O230 O 0.04111 0.50658 0.74389 0.0
O231 O 0.01624 0.4894 0.82454 0.0
O232 O 0.98275 0.5146 0.82835 0.0
O233 O 0.9856 0.48068 0.90782 0.0
O234 O 0.04028 0.46595 0.97558 0.0
O235 O 0.01913 0.47951 0.04697 0.0
O236 O 0.00313 0.51974 0.98854 0.0
O237 O 0.028 0.53731 0.90816 0.0
O238 O 0.0616 0.51133 0.90005 0.0
O239 O 0.05841 0.54667 0.82836 0.0
H240 H 0.00062 0.59325 0.58161 0.0
H241 H 0.97315 0.58518 0.48784 0.0
H242 H 0.956 0.50943 0.58177 0.0
H243 H 0.98285 0.5178 0.67549 0.0
H244 H 0.03497 0.43813 0.16889 0.0
H245 H 0.06487 0.44374 0.25731 0.0
H246 H 0.10504 0.50416 0.11448 0.0
H247 H 0.07539 0.49825 0.02679 0.0
C248 C 0.19537 0.03384 0.76139 0.0
C249 C 0.20586 0.04841 0.80946 0.0
C250 C 0.17113 0.02537 0.76329 0.0
C251 C 0.15702 0.03202 0.81367 0.0
C252 C 0.16758 0.04584 0.86431 0.0
C253 C 0.19193 0.05371 0.86195 0.0
C254 C 0.16054 0.01032 0.70916 0.0
C255 C 0.1531 0.05357 0.91824 0.0
C256 C 0.0964 0.03779 0.75511 0.0
C257 C 0.0826 0.01654 0.79209 0.0
C258 C 0.12055 0.04327 0.76317 0.0
C259 C 0.13122 0.0268 0.80825 0.0
C260 C 0.11733 0.00532 0.84612 0.0
C261 C 0.09304 0.00056 0.83815 0.0
C262 C 0.13463 0.06664 0.72305 0.0
C263 C 0.12816 0.98722 0.89391 0.0
H264 H 0.20608 0.02949 0.72114 0.0
H265 H 0.19993 0.06501 0.89919 0.0
H266 H 0.14789 0.99405 0.73484 0.0
H267 H 0.15083 0.02111 0.6714 0.0
H268 H 0.17397 0.00434 0.67919 0.0
H269 H 0.164 0.06207 0.95831 0.0
H270 H 0.14319 0.06687 0.89143 0.0
H271 H 0.14018 0.03781 0.9454 0.0
H272 H 0.08827 0.05035 0.7202 0.0
H273 H 0.08229 0.98415 0.86687 0.0
H274 H 0.14718 0.06256 0.68564 0.0
H275 H 0.14493 0.07736 0.75989 0.0
H276 H 0.12348 0.07802 0.69297 0.0
H277 H 0.1405 0.98014 0.86292 0.0
H278 H 0.11488 0.97168 0.92079 0.0
H279 H 0.13835 0.99618 0.93438 0.0
C280 C 0.45229 0.14161 0.49831 0.0
C281 C 0.46551 0.16122 0.45258 0.0
C282 C 0.46286 0.12374 0.536 0.0
C283 C 0.48727 0.1257 0.52855 0.0
C284 C 0.50075 0.14557 0.48295 0.0
C285 C 0.48969 0.16303 0.4452 0.0
C286 C 0.44783 0.10252 0.5829 0.0
C287 C 0.52682 0.1483 0.47374 0.0
C288 C 0.51452 0.08722 0.67183 0.0
C289 C 0.51553 0.06701 0.63998 0.0
C290 C 0.5061 0.10697 0.63535 0.0
C291 C 0.49839 0.10622 0.56584 0.0
C292 C 0.50015 0.08613 0.53298 0.0
C293 C 0.50892 0.06692 0.57017 0.0
C294 C 0.50475 0.12825 0.67181 0.0
C295 C 0.4921 0.08448 0.45928 0.0
H296 H 0.43363 0.14016 0.50449 0.0
H297 H 0.50005 0.17823 0.41024 0.0
H298 H 0.44831 0.0855 0.56226 0.0
H299 H 0.45464 0.10056 0.63675 0.0
H300 H 0.42941 0.10453 0.58631 0.0
H301 H 0.53501 0.16572 0.44041 0.0
H302 H 0.53501 0.14729 0.52574 0.0
H303 H 0.53072 0.13319 0.44895 0.0
H304 H 0.51987 0.08738 0.72546 0.0
H305 H 0.5098 0.05135 0.54515 0.0
H306 H 0.48621 0.12928 0.67981 0.0
H307 H 0.51343 0.14545 0.63848 0.0
H308 H 0.513 0.12685 0.7238 0.0
H309 H 0.47404 0.08759 0.45469 0.0
H310 H 0.49257 0.0666 0.44389 0.0
H311 H 0.50347 0.09877 0.42159 0.0
C312 C 0.37148 0.57168 0.85507 0.0
C313 C 0.35279 0.56251 0.81494 0.0
C314 C 0.39174 0.56189 0.85981 0.0
C315 C 0.39319 0.54223 0.82447 0.0
C316 C 0.37384 0.53199 0.78737 0.0
C317 C 0.35395 0.54238 0.78255 0.0
C318 C 0.41208 0.57352 0.89925 0.0
C319 C 0.37453 0.51074 0.75003 0.0
C320 C 0.45281 0.53653 0.75942 0.0
C321 C 0.45826 0.51836 0.81072 0.0
C322 C 0.43182 0.54459 0.76388 0.0
C323 C 0.41568 0.53394 0.82049 0.0
C324 C 0.42106 0.51548 0.87244 0.0
C325 C 0.44244 0.50804 0.86726 0.0
C326 C 0.42697 0.56461 0.70802 0.0
C327 C 0.40419 0.5035 0.93306 0.0
H328 H 0.37076 0.58727 0.88013 0.0
H329 H 0.33951 0.53508 0.75189 0.0
H330 H 0.41851 0.55955 0.93649 0.0
H331 H 0.4267 0.58263 0.86145 0.0
H332 H 0.40746 0.58718 0.92906 0.0
H333 H 0.35722 0.5032 0.73035 0.0
H334 H 0.38719 0.51658 0.70461 0.0
H335 H 0.38054 0.4961 0.78581 0.0
H336 H 0.46512 0.54469 0.71596 0.0
H337 H 0.44666 0.49399 0.90703 0.0
H338 H 0.42376 0.58002 0.73275 0.0
H339 H 0.41099 0.55794 0.68023 0.0
H340 H 0.44162 0.57143 0.66855 0.0
H341 H 0.40059 0.51728 0.96402 0.0
H342 H 0.41092 0.48931 0.96875 0.0
H343 H 0.38732 0.49506 0.9127 0.0
C344 C 0.0624 0.36107 0.71694 0.0
C345 C 0.07869 0.35388 0.76478 0.0
C346 C 0.05316 0.38169 0.72188 0.0
C347 C 0.06065 0.39562 0.77534 0.0
C348 C 0.07668 0.38814 0.82479 0.0
C349 C 0.08539 0.36726 0.8192 0.0
C350 C 0.03586 0.38891 0.66875 0.0
C351 C 0.08527 0.40269 0.88206 0.0
C352 C 0.05812 0.46242 0.73937 0.0
C353 C 0.03844 0.46297 0.78009 0.0
C354 C 0.06555 0.44061 0.73758 0.0
C355 C 0.05282 0.4188 0.77696 0.0
C356 C 0.03279 0.41923 0.8178 0.0
C357 C 0.0259 0.44139 0.81922 0.0
C358 C 0.08715 0.44097 0.69398 0.0
C359 C 0.01866 0.3963 0.85989 0.0
H360 H 0.05703 0.35073 0.67502 0.0
H361 H 0.09801 0.36184 0.85626 0.0
H362 H 0.02006 0.39153 0.69601 0.0
H363 H 0.04366 0.40648 0.63565 0.0
H364 H 0.03051 0.37517 0.63379 0.0
H365 H 0.09684 0.39378 0.91844 0.0
H366 H 0.09509 0.42092 0.85809 0.0
H367 H 0.07031 0.40542 0.9131 0.0
H368 H 0.06793 0.47913 0.70941 0.0
H369 H 0.01067 0.44183 0.8508 0.0
H370 H 0.08278 0.42898 0.65376 0.0
H371 H 0.10031 0.43385 0.72804 0.0
H372 H 0.09516 0.4595 0.66683 0.0
H373 H 0.01247 0.38287 0.82465 0.0
H374 H 0.0033 0.39966 0.88787 0.0
H375 H 0.02973 0.38799 0.89923 0.0
C376 C 0.84701 0.00715 0.86412 0.0
C377 C 0.83622 0.98403 0.85173 0.0
C378 C 0.87055 0.01203 0.88199 0.0
C379 C 0.88376 0.99365 0.88392 0.0
C380 C 0.8728 0.97022 0.87176 0.0
C381 C 0.84899 0.96556 0.85732 0.0
C382 C 0.88136 0.03691 0.89767 0.0
C383 C 0.88645 0.9504 0.87062 0.0
C384 C 0.94907 0.01323 0.84657 0.0
C385 C 0.95785 0.00625 0.91245 0.0
C386 C 0.92497 0.00918 0.83649 0.0
C387 C 0.9093 0.99918 0.89473 0.0
C388 C 0.91813 0.99347 0.96235 0.0
C389 C 0.94235 0.99658 0.97013 0.0
C390 C 0.91633 0.01475 0.76306 0.0
C391 C 0.90201 0.98381 0.02623 0.0
H392 H 0.83701 0.02138 0.85995 0.0
H393 H 0.84063 0.94776 0.84677 0.0
H394 H 0.89088 0.03532 0.94741 0.0
H395 H 0.89423 0.04656 0.85514 0.0
H396 H 0.8681 0.04813 0.90225 0.0
H397 H 0.87531 0.93321 0.86012 0.0
H398 H 0.90059 0.95639 0.82929 0.0
H399 H 0.89486 0.94672 0.92161 0.0
H400 H 0.96105 0.02115 0.80227 0.0
H401 H 0.94917 0.99149 0.02139 0.0
H402 H 0.90517 0.02842 0.76112 0.0
H403 H 0.90544 0.99809 0.74831 0.0
H404 H 0.93086 0.02175 0.72324 0.0
H405 H 0.88912 0.99553 0.02909 0.0
H406 H 0.91165 0.9828 0.07589 0.0
H407 H 0.8921 0.96537 0.02215 0.0
C408 C 0.58721 0.89713 0.06342 0.0
C409 C 0.5771 0.87756 0.11498 0.0
C410 C 0.57486 0.91512 0.03714 0.0
C411 C 0.55156 0.91307 0.06137 0.0
C412 C 0.541 0.89296 0.11184 0.0
C413 C 0.55401 0.87557 0.13875 0.0
C414 C 0.58701 0.93666 0.98488 0.0
C415 C 0.51601 0.88987 0.13746 0.0
C416 C 0.53012 0.97228 0.03485 0.0
C417 C 0.52068 0.97212 0.96823 0.0
C418 C 0.53932 0.95258 0.06773 0.0
C419 C 0.53845 0.93215 0.03358 0.0
C420 C 0.52714 0.93121 0.96886 0.0
C421 C 0.51869 0.95143 0.93639 0.0
C422 C 0.55168 0.95459 0.1359 0.0
C423 C 0.52533 0.90954 0.93162 0.0
H424 H 0.60508 0.89881 0.04514 0.0
H425 H 0.54606 0.86036 0.17823 0.0
H426 H 0.57683 0.93868 0.93658 0.0
H427 H 0.58826 0.95351 0.00797 0.0
H428 H 0.60487 0.93502 0.96973 0.0
H429 H 0.51005 0.87263 0.17441 0.0
H430 H 0.5141 0.9052 0.1645 0.0
H431 H 0.50436 0.89016 0.09208 0.0
H432 H 0.53198 0.98853 0.05873 0.0
H433 H 0.51133 0.95146 0.88477 0.0
H434 H 0.57076 0.95699 0.12583 0.0
H435 H 0.54609 0.93777 0.1746 0.0
H436 H 0.54844 0.97022 0.15962 0.0
H437 H 0.54282 0.90896 0.91038 0.0
H438 H 0.51324 0.91022 0.88728 0.0
H439 H 0.51922 0.89245 0.96896 0.0
C440 C 0.68546 0.48066 0.94369 0.0
C441 C 0.68751 0.46067 0.91167 0.0
C442 C 0.66465 0.48944 0.94126 0.0
C443 C 0.6453 0.47772 0.90695 0.0
C444 C 0.64755 0.45813 0.87226 0.0
C445 C 0.66868 0.44995 0.8746 0.0
C446 C 0.66308 0.51067 0.97778 0.0
C447 C 0.62726 0.44499 0.83571 0.0
C448 C 0.58514 0.4805 0.9754 0.0
C449 C 0.57844 0.4977 0.92348 0.0
C450 C 0.60676 0.47372 0.9702 0.0
C451 C 0.62222 0.4847 0.91216 0.0
C452 C 0.61558 0.50222 0.85969 0.0
C453 C 0.59364 0.50837 0.86569 0.0
C454 C 0.61301 0.45469 0.02671 0.0
C455 C 0.63168 0.51452 0.79752 0.0
H456 H 0.69998 0.48914 0.97203 0.0
H457 H 0.67009 0.43446 0.84986 0.0
H458 H 0.65611 0.5246 0.94194 0.0
H459 H 0.65082 0.50447 0.02407 0.0
H460 H 0.68029 0.51925 0.99597 0.0
H461 H 0.63232 0.43129 0.80689 0.0
H462 H 0.6132 0.43563 0.87516 0.0
H463 H 0.61986 0.45807 0.79801 0.0
H464 H 0.57333 0.47209 0.01986 0.0
H465 H 0.58847 0.52169 0.82546 0.0
H466 H 0.62902 0.46245 0.05267 0.0
H467 H 0.6168 0.43932 0.00286 0.0
H468 H 0.59882 0.44752 0.06754 0.0
H469 H 0.64844 0.52394 0.81615 0.0
H470 H 0.62402 0.52796 0.76176 0.0
H471 H 0.63574 0.5008 0.76708 0.0
C472 C 0.97799 0.66437 0.01219 0.0
C473 C 0.95933 0.66894 0.97011 0.0
C474 C 0.98858 0.64471 0.00618 0.0
C475 C 0.98015 0.62912 0.95744 0.0
C476 C 0.96185 0.63411 0.91319 0.0
C477 C 0.95173 0.65404 0.91982 0.0
C478 C 0.00823 0.64012 0.05374 0.0
C479 C 0.95226 0.6178 0.86094 0.0
C480 C 0.01575 0.58464 0.90899 0.0
C481 C 0.00511 0.56321 0.95295 0.0
C482 C 0.00803 0.6064 0.91038 0.0
C483 C 0.98919 0.60656 0.95651 0.0
C484 C 0.97855 0.58495 0.00136 0.0
C485 C 0.98668 0.56356 0.99907 0.0
C486 C 0.01988 0.62912 0.86218 0.0
C487 C 0.95836 0.58431 0.05118 0.0
H488 H 0.98407 0.67589 0.05086 0.0
H489 H 0.93733 0.65744 0.8871 0.0
H490 H 0.00241 0.62306 0.09138 0.0
H491 H 0.02332 0.63778 0.02244 0.0
H492 H 0.01415 0.65512 0.08416 0.0
H493 H 0.9391 0.62509 0.82716 0.0
H494 H 0.96657 0.61533 0.8267 0.0
H495 H 0.94396 0.59959 0.8895 0.0
H496 H 0.03 0.58437 0.87322 0.0
H497 H 0.97839 0.54699 0.03304 0.0
H498 H 0.02639 0.64374 0.89333 0.0
H499 H 0.00715 0.63566 0.82522 0.0
H500 H 0.03476 0.62613 0.83111 0.0
H501 H 0.96357 0.59754 0.08762 0.0
H502 H 0.95217 0.56605 0.08292 0.0
H503 H 0.94358 0.58967 0.02103 0.0
C504 C 0.07251 0.20228 0.67885 0.0
C505 C 0.07874 0.21528 0.73429 0.0
C506 C 0.06332 0.17723 0.69183 0.0
C507 C 0.0593 0.1651 0.76212 0.0
C508 C 0.06398 0.17846 0.81833 0.0
C509 C 0.07381 0.20337 0.80375 0.0
C510 C 0.05872 0.16362 0.63039 0.0
C511 C 0.05927 0.16631 0.89396 0.0
C512 C 0.02049 0.10203 0.79388 0.0
C513 C 0.03707 0.0874 0.80695 0.0
C514 C 0.02741 0.12745 0.78021 0.0
C515 C 0.05149 0.13825 0.77697 0.0
C516 C 0.06827 0.12339 0.78837 0.0
C517 C 0.06082 0.09814 0.80454 0.0
C518 C 0.009 0.14272 0.77047 0.0
C519 C 0.09411 0.13412 0.78301 0.0
H520 H 0.07475 0.21164 0.62516 0.0
H521 H 0.07822 0.2134 0.8469 0.0
H522 H 0.04053 0.15311 0.63368 0.0
H523 H 0.06167 0.17591 0.57893 0.0
H524 H 0.07039 0.15041 0.63212 0.0
H525 H 0.06165 0.17962 0.93105 0.0
H526 H 0.0412 0.15543 0.90115 0.0
H527 H 0.07128 0.15365 0.90801 0.0
H528 H 0.00211 0.09362 0.79619 0.0
H529 H 0.07362 0.08671 0.81385 0.0
H530 H 0.01138 0.15432 0.71799 0.0
H531 H 0.01082 0.15502 0.81032 0.0
H532 H 0.99104 0.13151 0.77542 0.0
H533 H 0.09874 0.14561 0.73083 0.0
H534 H 0.10487 0.11996 0.79013 0.0
H535 H 0.09873 0.14596 0.82349 0.0
C536 C 0.34043 0.02867 0.79357 0.0
C537 C 0.34338 0.053 0.76147 0.0
C538 C 0.35967 0.01734 0.80441 0.0
C539 C 0.38233 0.0308 0.78333 0.0
C540 C 0.3853 0.0553 0.7503 0.0
C541 C 0.36581 0.0661 0.74014 0.0
C542 C 0.35585 0.99124 0.84003 0.0
C543 C 0.40918 0.07039 0.72759 0.0
C544 C 0.4376 0.01984 0.87114 0.0
C545 C 0.44852 0.01092 0.81907 0.0
C546 C 0.41503 0.02433 0.86296 0.0
C547 C 0.40331 0.02025 0.80041 0.0
C548 C 0.41357 0.00945 0.75011 0.0
C549 C 0.4361 0.00472 0.76035 0.0
C550 C 0.40469 0.03558 0.91831 0.0
C551 C 0.40171 0.00497 0.68258 0.0
H552 H 0.32308 0.01855 0.81056 0.0
H553 H 0.36833 0.08516 0.71814 0.0
H554 H 0.3643 0.9805 0.80829 0.0
H555 H 0.36409 0.99025 0.89196 0.0
H556 H 0.33703 0.98274 0.84817 0.0
H557 H 0.40839 0.08908 0.70204 0.0
H558 H 0.42039 0.07164 0.77377 0.0
H559 H 0.41772 0.06161 0.69019 0.0
H560 H 0.44729 0.02462 0.91659 0.0
H561 H 0.4447 0.99811 0.71967 0.0
H562 H 0.38618 0.02662 0.93058 0.0
H563 H 0.40515 0.05502 0.89808 0.0
H564 H 0.41443 0.03438 0.96777 0.0
H565 H 0.38288 0.99694 0.69278 0.0
H566 H 0.40982 0.99275 0.65526 0.0
H567 H 0.40307 0.02252 0.64677 0.0
C568 C 0.45834 0.2877 0.50496 0.0
C569 C 0.4745 0.2762 0.47714 0.0
C570 C 0.46581 0.30754 0.54 0.0
C571 C 0.48998 0.3159 0.54779 0.0
C572 C 0.50623 0.30327 0.52436 0.0
C573 C 0.49831 0.28361 0.4891 0.0
C574 C 0.44794 0.32054 0.56434 0.0
C575 C 0.53213 0.31145 0.5325 0.0
C576 C 0.51087 0.38331 0.54668 0.0
C577 C 0.51391 0.38436 0.61834 0.0
C578 C 0.50312 0.36111 0.52327 0.0
C579 C 0.49838 0.33939 0.57274 0.0
C580 C 0.50159 0.34027 0.64518 0.0
C581 C 0.50924 0.36281 0.6672 0.0
C582 C 0.49975 0.36095 0.44556 0.0
C583 C 0.49692 0.31746 0.69925 0.0
H584 H 0.43991 0.28205 0.49619 0.0
H585 H 0.5109 0.27467 0.46839 0.0
H586 H 0.45104 0.3238 0.61912 0.0
H587 H 0.44956 0.33851 0.53058 0.0
H588 H 0.42982 0.31019 0.56178 0.0
H589 H 0.54213 0.29792 0.51999 0.0
H590 H 0.53854 0.32881 0.49659 0.0
H591 H 0.53582 0.31481 0.58694 0.0
H592 H 0.51412 0.39997 0.50891 0.0
H593 H 0.51175 0.36357 0.72262 0.0
H594 H 0.48134 0.35287 0.43649 0.0
H595 H 0.51082 0.34954 0.42589 0.0
H596 H 0.5042 0.37944 0.41406 0.0
H597 H 0.47847 0.30797 0.69773 0.0
H598 H 0.50045 0.32125 0.75347 0.0
H599 H 0.50796 0.30485 0.68682 0.0
C600 C 0.20426 0.56376 0.73913 0.0
C601 C 0.22029 0.56829 0.7918 0.0
C602 C 0.18014 0.55824 0.75424 0.0
C603 C 0.17174 0.55817 0.82326 0.0
C604 C 0.18777 0.56352 0.8763 0.0
C605 C 0.21187 0.56841 0.86 0.0
C606 C 0.16363 0.55243 0.69628 0.0
C607 C 0.17946 0.56415 0.95013 0.0
C608 C 0.10826 0.56395 0.83631 0.0
C609 C 0.09706 0.53976 0.85842 0.0
C610 C 0.1327 0.57041 0.82762 0.0
C611 C 0.14614 0.55213 0.83962 0.0
C612 C 0.13491 0.52774 0.86307 0.0
C613 C 0.11056 0.52191 0.87292 0.0
C614 C 0.1441 0.5967 0.80411 0.0
C615 C 0.1485 0.50763 0.87505 0.0
H616 H 0.21047 0.56523 0.68545 0.0
H617 H 0.22415 0.57235 0.90071 0.0
H618 H 0.15264 0.53403 0.71142 0.0
H619 H 0.15173 0.56545 0.68826 0.0
H620 H 0.17295 0.5531 0.64553 0.0
H621 H 0.19413 0.56943 0.9847 0.0
H622 H 0.16765 0.57721 0.94889 0.0
H623 H 0.16927 0.54606 0.97372 0.0
H624 H 0.09793 0.57784 0.82552 0.0
H625 H 0.10203 0.50312 0.88963 0.0
H626 H 0.15206 0.59905 0.7505 0.0
H627 H 0.15833 0.60239 0.83959 0.0
H628 H 0.13147 0.60892 0.80323 0.0
H629 H 0.15703 0.50624 0.82474 0.0
H630 H 0.13725 0.48975 0.89589 0.0
H631 H 0.16252 0.51176 0.91256 0.0
C632 C 0.94613 0.81807 0.96088 0.0
C633 C 0.96186 0.80256 0.97556 0.0
C634 C 0.95412 0.84331 0.9452 0.0
C635 C 0.97842 0.85305 0.94176 0.0
C636 C 0.99437 0.83728 0.95457 0.0
C637 C 0.98585 0.81221 0.97252 0.0
C638 C 0.93655 0.85956 0.93419 0.0
C639 C 0.02041 0.8469 0.94953 0.0
C640 C 0.99803 0.91694 0.84087 0.0
C641 C 0.00288 0.93047 0.89569 0.0
C642 C 0.99059 0.89162 0.85506 0.0
C643 C 0.98715 0.87975 0.92579 0.0
C644 C 0.99185 0.89344 0.98134 0.0
C645 C 1.00006 0.91862 0.96555 0.0
C646 C 0.98648 0.8776 0.79441 0.0
C647 C 0.98767 0.88159 0.05739 0.0
H648 H 0.92756 0.81049 0.96411 0.0
H649 H 0.99795 0.80006 0.98383 0.0
H650 H 0.93899 0.87218 0.97319 0.0
H651 H 0.93932 0.8708 0.88118 0.0
H652 H 0.91828 0.84912 0.93948 0.0
H653 H 0.03042 0.83211 0.95656 0.0
H654 H 0.02545 0.8584 0.89758 0.0
H655 H 0.02553 0.8585 0.99032 0.0
H656 H 0.00033 0.92615 0.78682 0.0
H657 H 0.00354 0.92917 0.00792 0.0
H658 H 0.9679 0.86833 0.79494 0.0
H659 H 0.99707 0.86332 0.79998 0.0
H660 H 0.99098 0.88945 0.74263 0.0
H661 H 0.9691 0.87229 0.06657 0.0
H662 H 0.99188 0.89486 0.09434 0.0
H663 H 0.9984 0.8676 0.06993 0.0
C664 C 0.68477 0.98592 0.88858 0.0
C665 C 0.70619 0.99838 0.85647 0.0
C666 C 0.66475 0.99593 0.87962 0.0
C667 C 0.66616 0.01881 0.83666 0.0
C668 C 0.68798 0.03202 0.80697 0.0
C669 C 0.70775 0.02156 0.81689 0.0
C670 C 0.64178 0.98123 0.91222 0.0
C671 C 0.69021 0.05653 0.76139 0.0
C672 C 0.60951 0.02292 0.74682 0.0
C673 C 0.59854 0.03442 0.79256 0.0
C674 C 0.63223 0.0192 0.75795 0.0
C675 C 0.64431 0.02721 0.81623 0.0
C676 C 0.63413 0.04068 0.859 0.0
C677 C 0.61131 0.04418 0.84657 0.0
C678 C 0.64255 0.00497 0.71051 0.0
C679 C 0.64656 0.04972 0.92116 0.0
H680 H 0.68323 0.96763 0.91676 0.0
H681 H 0.7243 0.03118 0.79168 0.0
H682 H 0.63283 0.99246 0.94079 0.0
H683 H 0.63017 0.9752 0.87021 0.0
H684 H 0.64405 0.96495 0.94942 0.0
H685 H 0.70872 0.06599 0.75134 0.0
H686 H 0.68224 0.05421 0.71007 0.0
H687 H 0.68071 0.06823 0.78627 0.0
H688 H 0.59985 0.01559 0.70442 0.0
H689 H 0.60296 0.05308 0.88225 0.0
H690 H 0.64361 0.98691 0.74027 0.0
H691 H 0.66053 0.01439 0.69251 0.0
H692 H 0.63195 0.00222 0.66359 0.0
H693 H 0.6462 0.0342 0.96421 0.0
H694 H 0.63821 0.06329 0.94142 0.0
H695 H 0.66513 0.05798 0.90696 0.0
C696 C 0.5779 0.72611 0.25274 0.0
C697 C 0.58047 0.74648 0.19984 0.0
C698 C 0.5681 0.70284 0.23873 0.0
C699 C 0.56124 0.69983 0.1697 0.0
C700 C 0.56425 0.7203 0.11572 0.0
C701 C 0.57386 0.74338 0.13147 0.0
C702 C 0.56528 0.68147 0.29767 0.0
C703 C 0.55731 0.7178 0.04134 0.0
C704 C 0.5567 0.63793 0.11512 0.0
C705 C 0.53252 0.62894 0.1198 0.0
C706 C 0.56628 0.6609 0.13169 0.0
C707 C 0.55132 0.67524 0.15348 0.0
C708 C 0.52691 0.66624 0.15867 0.0
C709 C 0.51779 0.6432 0.14165 0.0
C710 C 0.5924 0.66992 0.1251 0.0
C711 C 0.51043 0.68096 0.18212 0.0
H712 H 0.58406 0.72823 0.30476 0.0
H713 H 0.57599 0.75909 0.09032 0.0
H714 H 0.54685 0.67153 0.30281 0.0
H715 H 0.57607 0.6686 0.28547 0.0
H716 H 0.57047 0.68704 0.34906 0.0
H717 H 0.56079 0.73552 0.00549 0.0
H718 H 0.56703 0.70543 0.02047 0.0
H719 H 0.53846 0.70963 0.04074 0.0
H720 H 0.56815 0.62715 0.09728 0.0
H721 H 0.49911 0.63623 0.14611 0.0
H722 H 0.59919 0.6744 0.17615 0.0
H723 H 0.59667 0.68682 0.08601 0.0
H724 H 0.60163 0.65636 0.10858 0.0
H725 H 0.51499 0.68542 0.23505 0.0
H726 H 0.49192 0.67125 0.1842 0.0
H727 H 0.51219 0.69839 0.14555 0.0
C728 C 0.83738 0.48233 0.93724 0.0
C729 C 0.82326 0.46182 0.91685 0.0
C730 C 0.8617 0.4872 0.92599 0.0
C731 C 0.87208 0.47166 0.89108 0.0
C732 C 0.85776 0.45176 0.86644 0.0
C733 C 0.83353 0.44702 0.87989 0.0
C734 C 0.87633 0.50861 0.95314 0.0
C735 C 0.86811 0.43506 0.82781 0.0
C736 C 0.93407 0.49695 0.81838 0.0
C737 C 0.94721 0.48649 0.87101 0.0
C738 C 0.90958 0.49169 0.82302 0.0
C739 C 0.89795 0.47588 0.88228 0.0
C740 C 0.91111 0.4648 0.9347 0.0
C741 C 0.93559 0.47012 0.92819 0.0
C742 C 0.89621 0.5035 0.7653 0.0
C743 C 0.89939 0.44804 0.99907 0.0
H744 H 0.82946 0.4946 0.96219 0.0
H745 H 0.82269 0.43124 0.86338 0.0
H746 H 0.88881 0.50227 0.99144 0.0
H747 H 0.88675 0.52114 0.9092 0.0
H748 H 0.86556 0.51888 0.97939 0.0
H749 H 0.8545 0.42145 0.80775 0.0
H750 H 0.87947 0.44571 0.78281 0.0
H751 H 0.87921 0.42529 0.86354 0.0
H752 H 0.94294 0.5095 0.77372 0.0
H753 H 0.94563 0.4621 0.96926 0.0
H754 H 0.88702 0.51627 0.78628 0.0
H755 H 0.88273 0.4896 0.74608 0.0
H756 H 0.90776 0.51367 0.72 0.0
H757 H 0.89049 0.45838 0.03091 0.0
H758 H 0.91198 0.43967 0.03264 0.0
H759 H 0.88587 0.43338 0.98351 0.0
C760 C 0.09815 0.1726 0.40889 0.0
C761 C 0.10828 0.16584 0.47302 0.0
C762 C 0.09309 0.1565 0.36034 0.0
C763 C 0.09844 0.13313 0.37599 0.0
C764 C 0.10892 0.12629 0.44021 0.0
C765 C 0.11362 0.14269 0.48812 0.0
C766 C 0.08169 0.16438 0.29271 0.0
C767 C 0.11501 0.10156 0.45854 0.0
C768 C 0.06509 0.08344 0.28338 0.0
C769 C 0.08097 0.08311 0.22909 0.0
C770 C 0.07057 0.09959 0.33162 0.0
C771 C 0.09256 0.11569 0.32573 0.0
C772 C 0.10872 0.11538 0.27121 0.0
C773 C 0.10268 0.09916 0.22328 0.0
C774 C 0.05276 0.09959 0.38851 0.0
C775 C 0.13241 0.13212 0.26368 0.0
H776 H 0.09386 0.19041 0.39689 0.0
H777 H 0.12146 0.13733 0.53752 0.0
H778 H 0.09264 0.16313 0.24688 0.0
H779 H 0.06457 0.15206 0.28971 0.0
H780 H 0.07888 0.18326 0.28814 0.0
H781 H 0.12368 0.09929 0.50972 0.0
H782 H 0.09896 0.08724 0.46118 0.0
H783 H 0.12675 0.09863 0.41684 0.0
H784 H 0.04818 0.07124 0.28752 0.0
H785 H 0.11509 0.09876 0.18182 0.0
H786 H 0.04822 0.11775 0.38368 0.0
H787 H 0.06018 0.09583 0.44109 0.0
H788 H 0.03651 0.08585 0.38601 0.0
H789 H 0.13038 0.15129 0.25524 0.0
H790 H 0.14311 0.12933 0.21912 0.0
H791 H 0.14202 0.12916 0.31284 0.0
C792 C 0.40425 0.11455 0.40421 0.0
C793 C 0.40219 0.09311 0.45309 0.0
C794 C 0.41834 0.11846 0.34263 0.0
C795 C 0.4305 0.10042 0.32945 0.0
C796 C 0.42911 0.07914 0.37977 0.0
C797 C 0.415 0.07575 0.4409 0.0
C798 C 0.41988 0.14163 0.29106 0.0
C799 C 0.44189 0.05945 0.36812 0.0
C800 C 0.4462 0.0905 0.14705 0.0
C801 C 0.47029 0.10008 0.14164 0.0
C802 C 0.43282 0.0918 0.20626 0.0
C803 C 0.44373 0.10292 0.26168 0.0
C804 C 0.4677 0.11415 0.25442 0.0
C805 C 0.48069 0.11256 0.19447 0.0
C806 C 0.40708 0.0806 0.21042 0.0
C807 C 0.47993 0.12781 0.30935 0.0
H808 H 0.39466 0.12823 0.41368 0.0
H809 H 0.41368 0.0592 0.47853 0.0
H810 H 0.43825 0.15168 0.28473 0.0
H811 H 0.41427 0.13736 0.23867 0.0
H812 H 0.40895 0.15364 0.3083 0.0
H813 H 0.44294 0.04673 0.41752 0.0
H814 H 0.43255 0.04889 0.32936 0.0
H815 H 0.45985 0.06733 0.34637 0.0
H816 H 0.43784 0.08156 0.10536 0.0
H817 H 0.49922 0.1203 0.19053 0.0
H818 H 0.39683 0.09357 0.22534 0.0
H819 H 0.4036 0.06427 0.25174 0.0
H820 H 0.40075 0.07516 0.15982 0.0
H821 H 0.47947 0.14732 0.29448 0.0
H822 H 0.49857 0.12637 0.3118 0.0
H823 H 0.47157 0.1215 0.36246 0.0
C824 C 0.50589 0.33287 0.16142 0.0
C825 C 0.48744 0.31317 0.15836 0.0
C826 C 0.50623 0.35559 0.12069 0.0
C827 C 0.4876 0.35879 0.07584 0.0
C828 C 0.46908 0.33891 0.07148 0.0
C829 C 0.46923 0.31627 0.11274 0.0
C830 C 0.52644 0.37628 0.12638 0.0
C831 C 0.44895 0.34169 0.02415 0.0
C832 C 0.48201 0.42457 0.02897 0.0
C833 C 0.49456 0.43155 0.96442 0.0
C834 C 0.47849 0.40052 0.06422 0.0
C835 C 0.48773 0.38311 0.03411 0.0
C836 C 0.49928 0.38977 0.9672 0.0
C837 C 0.50259 0.41389 0.93328 0.0
C838 C 0.46593 0.39405 0.13533 0.0
C839 C 0.50933 0.37177 0.93307 0.0
H840 H 0.52008 0.33063 0.19632 0.0
H841 H 0.45488 0.30114 0.11027 0.0
H842 H 0.535 0.38362 0.07381 0.0
H843 H 0.51999 0.39125 0.14536 0.0
H844 H 0.53975 0.37066 0.16288 0.0
H845 H 0.43621 0.32432 0.02532 0.0
H846 H 0.43973 0.35525 0.04057 0.0
H847 H 0.4555 0.34859 0.96913 0.0
H848 H 0.47564 0.43804 0.05327 0.0
H849 H 0.51221 0.41901 0.88323 0.0
H850 H 0.4785 0.39033 0.17666 0.0
H851 H 0.4523 0.37732 0.13749 0.0
H852 H 0.45763 0.40885 0.14793 0.0
H853 H 0.52463 0.3674 0.96245 0.0
H854 H 0.51503 0.37893 0.87734 0.0
H855 H 0.49635 0.35457 0.93497 0.0
C856 C 0.17397 0.5397 0.44782 0.0
C857 C 0.18559 0.5249 0.49422 0.0
C858 C 0.15798 0.52984 0.40081 0.0
C859 C 0.15353 0.50454 0.39988 0.0
C860 C 0.16513 0.48945 0.44665 0.0
C861 C 0.181 0.49981 0.49344 0.0
C862 C 0.14587 0.54653 0.35197 0.0
C863 C 0.16086 0.46242 0.44702 0.0
C864 C 0.09689 0.47951 0.31715 0.0
C865 C 0.10453 0.47944 0.24807 0.0
C866 C 0.11277 0.48674 0.368 0.0
C867 C 0.13685 0.4941 0.34927 0.0
C868 C 0.14476 0.49312 0.28046 0.0
C869 C 0.1285 0.4858 0.23071 0.0
C870 C 0.10366 0.48754 0.44086 0.0
C871 C 0.1703 0.50067 0.25859 0.0
H872 H 0.17732 0.55908 0.44823 0.0
H873 H 0.1899 0.48824 0.52914 0.0
H874 H 0.15002 0.54547 0.29645 0.0
H875 H 0.12667 0.54073 0.36037 0.0
H876 H 0.15106 0.56574 0.3599 0.0
H877 H 0.17122 0.45319 0.4868 0.0
H878 H 0.14208 0.45433 0.45818 0.0
H879 H 0.16537 0.45872 0.39437 0.0
H880 H 0.07838 0.47488 0.33078 0.0
H881 H 0.13454 0.48543 0.17771 0.0
H882 H 0.10641 0.50666 0.44974 0.0
H883 H 0.11338 0.4778 0.48131 0.0
H884 H 0.08476 0.47935 0.44873 0.0
H885 H 0.17634 0.52034 0.25965 0.0
H886 H 0.17379 0.49714 0.20485 0.0
H887 H 0.18085 0.49085 0.29617 0.0
C888 C 0.99579 0.8569 0.26425 0.0
C889 C 0.9746 0.84916 0.23285 0.0
C890 C 0.99798 0.87461 0.30828 0.0
C891 C 0.97848 0.88468 0.32159 0.0
C892 C 0.9572 0.87733 0.28881 0.0
C893 C 0.95555 0.85975 0.24461 0.0
C894 C 0.02104 0.88221 0.34163 0.0
C895 C 0.93598 0.88758 0.30183 0.0
C896 C 0.97551 0.91002 0.49155 0.0
C897 C 0.9817 0.9351 0.46808 0.0
C898 C 0.97453 0.89344 0.44445 0.0
C899 C 0.97997 0.90214 0.37209 0.0
C900 C 0.98638 0.92743 0.34805 0.0
C901 C 0.98711 0.94362 0.39633 0.0
C902 C 0.96745 0.86661 0.47206 0.0
C903 C 0.99246 0.93737 0.27137 0.0
H904 H 0.01064 0.84897 0.25492 0.0
H905 H 0.93913 0.85397 0.22034 0.0
H906 H 0.02693 0.90222 0.32988 0.0
H907 H 0.01894 0.87713 0.39966 0.0
H908 H 0.03486 0.87365 0.32295 0.0
H909 H 0.92098 0.88056 0.27048 0.0
H910 H 0.93061 0.88291 0.35843 0.0
H911 H 0.9402 0.90767 0.28866 0.0
H912 H 0.97105 0.90335 0.54678 0.0
H913 H 0.9922 0.96298 0.37805 0.0
H914 H 0.98136 0.85717 0.45916 0.0
H915 H 0.95144 0.85873 0.44622 0.0
H916 H 0.96404 0.86282 0.52993 0.0
H917 H 0.00704 0.92976 0.25329 0.0
H918 H 0.99759 0.95749 0.26143 0.0
H919 H 0.97731 0.93177 0.23894 0.0
C920 C 0.6608 0.96216 0.22654 0.0
C921 C 0.65248 0.94877 0.17337 0.0
C922 C 0.6466 0.96207 0.28552 0.0
C923 C 0.62346 0.94838 0.29141 0.0
C924 C 0.61497 0.93474 0.2381 0.0
C925 C 0.62963 0.93499 0.18002 0.0
C926 C 0.65631 0.97679 0.34137 0.0
C927 C 0.59058 0.91954 0.24205 0.0
C928 C 0.59275 0.93298 0.47211 0.0
C929 C 0.57969 0.95122 0.46923 0.0
C930 C 0.60691 0.93166 0.41438 0.0
C931 C 0.60801 0.94897 0.35241 0.0
C932 C 0.59437 0.967 0.34853 0.0
C933 C 0.58045 0.96796 0.40701 0.0
C934 C 0.6208 0.91184 0.4197 0.0
C935 C 0.59439 0.98518 0.28238 0.0
H936 H 0.67845 0.97282 0.22208 0.0
H937 H 0.62306 0.92446 0.13956 0.0
H938 H 0.64592 0.99083 0.34551 0.0
H939 H 0.65494 0.9649 0.39335 0.0
H940 H 0.67487 0.98591 0.33001 0.0
H941 H 0.58376 0.91891 0.18867 0.0
H942 H 0.59106 0.90068 0.26666 0.0
H943 H 0.57815 0.92639 0.27326 0.0
H944 H 0.59229 0.92004 0.52009 0.0
H945 H 0.57002 0.98178 0.40392 0.0
H946 H 0.63966 0.91994 0.41073 0.0
H947 H 0.61559 0.90056 0.37816 0.0
H948 H 0.6182 0.89989 0.47176 0.0
H949 H 0.61224 0.99621 0.27011 0.0
H950 H 0.58225 0.99759 0.28707 0.0
H951 H 0.5893 0.97554 0.2373 0.0
C952 C 0.57522 0.69399 0.60683 0.0
C953 C 0.56046 0.69763 0.55055 0.0
C954 C 0.57122 0.67212 0.65442 0.0
C955 C 0.55203 0.65349 0.64539 0.0
C956 C 0.53654 0.65742 0.59041 0.0
C957 C 0.54094 0.67945 0.54364 0.0
C958 C 0.58804 0.66861 0.71264 0.0
C959 C 0.51584 0.63797 0.57922 0.0
C960 C 0.55552 0.58779 0.70572 0.0
C961 C 0.54093 0.58169 0.76648 0.0
C962 C 0.55975 0.61129 0.66701 0.0
C963 C 0.54916 0.62917 0.6896 0.0
C964 C 0.53509 0.62342 0.75223 0.0
C965 C 0.53112 0.59971 0.78999 0.0
C966 C 0.57497 0.61677 0.6006 0.0
C967 C 0.5236 0.64206 0.77806 0.0
H968 H 0.59027 0.70799 0.61279 0.0
H969 H 0.52939 0.68214 0.50048 0.0
H970 H 0.57842 0.6621 0.76399 0.0
H971 H 0.59777 0.65453 0.70309 0.0
H972 H 0.60083 0.68559 0.71638 0.0
H973 H 0.50454 0.64452 0.53732 0.0
H974 H 0.52202 0.62222 0.56428 0.0
H975 H 0.50515 0.63141 0.62872 0.0
H976 H 0.56326 0.57404 0.68728 0.0
H977 H 0.51984 0.59517 0.83694 0.0
H978 H 0.58925 0.63267 0.6027 0.0
H979 H 0.56448 0.62148 0.55448 0.0
H980 H 0.58278 0.60117 0.59212 0.0
H981 H 0.53669 0.65885 0.78111 0.0
H982 H 0.51479 0.63528 0.83065 0.0
H983 H 0.51043 0.64706 0.74023 0.0
C984 C 0.89188 0.4894 0.22262 0.0
C985 C 0.87278 0.49978 0.2007 0.0
C986 C 0.90695 0.49871 0.27271 0.0
C987 C 0.90297 0.51907 0.30103 0.0
C988 C 0.88426 0.53022 0.27713 0.0
C989 C 0.86931 0.52037 0.2275 0.0
C990 C 0.92665 0.48624 0.29712 0.0
C991 C 0.87967 0.55217 0.30534 0.0
C992 C 0.92502 0.52465 0.48393 0.0
C993 C 0.94635 0.54118 0.46932 0.0
C994 C 0.9106 0.51764 0.42967 0.0
C995 C 0.91748 0.52764 0.35892 0.0
C996 C 0.93855 0.54502 0.34376 0.0
C997 C 0.9528 0.5515 0.39915 0.0
C998 C 0.88828 0.49903 0.44805 0.0
C999 C 0.94633 0.55626 0.26896 0.0
H1000 H 0.89475 0.47355 0.20201 0.0
H1001 H 0.85471 0.52865 0.21034 0.0
H1002 H 0.94349 0.49951 0.2911 0.0
H1003 H 0.92388 0.47855 0.35386 0.0
H1004 H 0.92806 0.47134 0.26749 0.0
H1005 H 0.86555 0.55981 0.27745 0.0
H1006 H 0.87463 0.54715 0.36212 0.0
H1007 H 0.89577 0.56651 0.30043 0.0
H1008 H 0.91966 0.51696 0.53803 0.0
H1009 H 0.96933 0.56412 0.38726 0.0
H1010 H 0.88894 0.48267 0.42418 0.0
H1011 H 0.87318 0.50639 0.42606 0.0
H1012 H 0.88518 0.49343 0.50577 0.0
H1013 H 0.95011 0.54211 0.23971 0.0
H1014 H 0.96222 0.57083 0.26635 0.0
H1015 H 0.9322 0.56398 0.24153 0.0
loop_
_geom_bond_atom_site_label_1
_geom_bond_atom_site_label_2
_geom_bond_distance
_geom_bond_site_symmetry_2
_ccdc_geom_bond_type
O0 Cd1 2.300 . S
O0 C7 1.275 . S
Cd1 O0 2.300 . S
Cd1 O9 2.381 . S
Cd1 O10 2.378 . S
O2 Cd3 2.385 1_556 S
O2 C7 1.255 . S
Cd3 O2 2.385 1_554 S
Cd3 O4 2.317 . S
O4 Cd3 2.317 . S
O4 C5 1.232 . S
C5 O4 1.232 . S
C5 O6 1.218 . S
O6 C5 1.218 . S
C7 O0 1.275 . S
C7 O2 1.255 . S
C8 O9 1.258 . S
C8 O10 1.256 . S
O9 Cd1 2.381 . S
O9 C8 1.258 . S
O10 Cd1 2.378 . S
O10 C8 1.256 . S
O11 Cd12 2.300 1_556 S
O11 C18 1.275 . S
Cd12 O11 2.300 1_554 S
Cd12 O20 2.381 1_554 S
Cd12 O21 2.378 . S
O13 Cd14 2.385 1_655 S
O13 C18 1.255 1_554 S
Cd14 O13 2.385 1_455 S
Cd14 O15 2.317 1_455 S
O15 Cd14 2.317 1_655 S
O15 C16 1.232 . S
C16 O15 1.232 . S
C16 O17 1.218 . S
O17 C16 1.218 . S
C18 O11 1.275 . S
C18 O13 1.255 1_556 S
C19 O20 1.258 . S
C19 O21 1.256 1_556 S
O20 Cd12 2.381 1_556 S
O20 C19 1.258 . S
O21 Cd12 2.378 . S
O21 C19 1.256 1_554 S
O22 Cd23 2.300 . S
O22 C29 1.275 . S
Cd23 O22 2.300 . S
Cd23 O31 2.381 . S
Cd23 O32 2.378 . S
O24 Cd25 2.385 1_566 S
O24 C29 1.255 . S
Cd25 O24 2.385 1_544 S
Cd25 O26 2.317 1_545 S
O26 Cd25 2.317 1_565 S
O26 C27 1.232 . S
C27 O26 1.232 . S
C27 O28 1.218 . S
O28 C27 1.218 . S
C29 O22 1.275 . S
C29 O24 1.255 . S
C30 O31 1.258 . S
C30 O32 1.256 . S
O31 Cd23 2.381 . S
O31 C30 1.258 . S
O32 Cd23 2.378 . S
O32 C30 1.256 . S
O33 Cd34 2.300 . S
O33 C40 1.275 . S
Cd34 O33 2.300 . S
Cd34 O42 2.381 . S
Cd34 O43 2.378 . S
O35 Cd36 2.385 . S
O35 C40 1.255 . S
Cd36 O35 2.385 . S
Cd36 O37 2.317 . S
O37 Cd36 2.317 . S
O37 C38 1.232 . S
C38 O37 1.232 . S
C38 O39 1.218 . S
O39 C38 1.218 . S
C40 O33 1.275 . S
C40 O35 1.255 . S
C41 O42 1.258 . S
C41 O43 1.256 . S
O42 Cd34 2.381 . S
O42 C41 1.258 . S
O43 Cd34 2.378 . S
O43 C41 1.256 . S
O44 Cd45 2.300 . S
O44 C51 1.275 . S
Cd45 O44 2.300 . S
Cd45 O53 2.381 . S
Cd45 O54 2.378 . S
O46 Cd47 2.385 . S
O46 C51 1.255 . S
Cd47 O46 2.385 . S
Cd47 O48 2.317 . S
O48 Cd47 2.317 . S
O48 C49 1.232 . S
C49 O48 1.232 . S
C49 O50 1.218 . S
O50 C49 1.218 . S
C51 O44 1.275 . S
C51 O46 1.255 . S
C52 O53 1.258 . S
C52 O54 1.256 . S
O53 Cd45 2.381 . S
O53 C52 1.258 . S
O54 Cd45 2.378 . S
O54 C52 1.256 . S
O55 Cd56 2.300 . S
O55 C62 1.275 . S
Cd56 O55 2.300 . S
Cd56 O64 2.381 . S
Cd56 O65 2.378 . S
O57 Cd58 2.385 . S
O57 C62 1.255 . S
Cd58 O57 2.385 . S
Cd58 O59 2.317 . S
O59 Cd58 2.317 . S
O59 C60 1.232 . S
C60 O59 1.232 . S
C60 O61 1.218 . S
O61 C60 1.218 . S
C62 O55 1.275 . S
C62 O57 1.255 . S
C63 O64 1.258 . S
C63 O65 1.256 . S
O64 Cd56 2.381 . S
O64 C63 1.258 . S
O65 Cd56 2.378 . S
O65 C63 1.256 . S
O66 Cd67 2.300 . S
O66 C73 1.275 . S
Cd67 O66 2.300 . S
Cd67 O75 2.381 . S
Cd67 O76 2.378 . S
O68 Cd69 2.385 . S
O68 C73 1.255 . S
Cd69 O68 2.385 . S
Cd69 O70 2.317 . S
O70 Cd69 2.317 . S
O70 C71 1.232 . S
C71 O70 1.232 . S
C71 O72 1.218 . S
O72 C71 1.218 . S
C73 O66 1.275 . S
C73 O68 1.255 . S
C74 O75 1.258 . S
C74 O76 1.256 . S
O75 Cd67 2.381 . S
O75 C74 1.258 . S
O76 Cd67 2.378 . S
O76 C74 1.256 . S
O77 Cd78 2.300 . S
O77 C84 1.275 . S
Cd78 O77 2.300 . S
Cd78 O86 2.381 . S
Cd78 O87 2.378 . S
O79 Cd80 2.385 . S
O79 C84 1.255 . S
Cd80 O79 2.385 . S
Cd80 O81 2.317 . S
O81 Cd80 2.317 . S
O81 C82 1.232 . S
C82 O81 1.232 . S
C82 O83 1.218 . S
O83 C82 1.218 . S
C84 O77 1.275 . S
C84 O79 1.255 . S
C85 O86 1.258 . S
C85 O87 1.256 . S
O86 Cd78 2.381 . S
O86 C85 1.258 . S
O87 Cd78 2.378 . S
O87 C85 1.256 . S
Nd88 C90 2.836 1_545 S
Nd88 O108 2.500 1_445 S
Nd88 O109 2.492 1_545 S
Nd88 O110 2.487 . S
Nd88 O111 2.682 . S
Nd88 O112 2.410 1_545 S
Nd88 O117 2.414 1_455 S
Nd88 O119 2.424 . S
Nd89 C99 2.836 1_556 S
Nd89 O111 2.414 . S
Nd89 O113 2.424 1_545 S
Nd89 O114 2.500 . S
Nd89 O115 2.492 1_556 S
Nd89 O116 2.487 1_455 S
Nd89 O117 2.682 1_455 S
Nd89 O118 2.410 . S
C90 Nd88 2.836 1_565 S
C90 C91 1.499 . S
C90 O108 1.258 1_455 S
C90 O109 1.239 . S
C91 C90 1.499 . S
C91 C92 1.361 1_455 S
C91 C96 1.412 . S
C92 C91 1.361 1_655 S
C92 C93 1.392 . S
C92 H120 0.930 . S
C93 C92 1.392 . S
C93 C94 1.398 . S
C93 H121 0.929 . S
C94 C93 1.398 . S
C94 C95 1.352 1_655 S
C95 C94 1.352 1_455 S
C95 C96 1.384 . S
C95 H122 0.930 . S
C96 C91 1.412 . S
C96 C95 1.384 . S
C96 H123 0.929 . S
C97 O110 1.241 . S
C97 O111 1.273 . S
C98 O112 1.251 . S
C98 O113 1.268 . S
C99 Nd89 2.836 1_554 S
C99 C100 1.498 . S
C99 O114 1.258 1_554 S
C99 O115 1.239 . S
C100 C99 1.498 . S
C100 C101 1.366 . S
C100 C105 1.407 . S
C101 C100 1.366 . S
C101 C102 1.392 . S
C101 H124 0.930 . S
C102 C101 1.392 . S
C102 C103 1.398 . S
C102 H125 0.929 . S
C103 C102 1.398 . S
C103 C104 1.352 . S
C104 C103 1.352 . S
C104 C105 1.384 . S
C104 H126 0.930 . S
C105 C100 1.407 . S
C105 C104 1.384 . S
C105 H127 0.929 . S
C106 O116 1.241 . S
C106 O117 1.273 . S
C107 O118 1.251 . S
C107 O119 1.268 . S
O108 Nd88 2.500 1_665 S
O108 C90 1.258 1_655 S
O109 Nd88 2.492 1_565 S
O109 C90 1.239 . S
O110 Nd88 2.487 . S
O110 C97 1.241 . S
O111 Nd88 2.682 . S
O111 Nd89 2.414 . S
O111 C97 1.273 . S
O112 Nd88 2.410 1_565 S
O112 C98 1.251 . S
O113 Nd89 2.424 1_565 S
O113 C98 1.268 . S
O114 Nd89 2.500 . S
O114 C99 1.258 1_556 S
O115 Nd89 2.492 1_554 S
O115 C99 1.239 . S
O116 Nd89 2.487 1_655 S
O116 C106 1.241 . S
O117 Nd88 2.414 1_655 S
O117 Nd89 2.682 1_655 S
O117 C106 1.273 . S
O118 Nd89 2.410 . S
O118 C107 1.251 . S
O119 Nd88 2.424 . S
O119 C107 1.268 . S
H120 C92 0.930 . S
H121 C93 0.929 . S
H122 C95 0.930 . S
H123 C96 0.929 . S
H124 C101 0.930 . S
H125 C102 0.929 . S
H126 C104 0.930 . S
H127 C105 0.929 . S
Nd128 C130 2.836 1_545 S
Nd128 O148 2.500 1_545 S
Nd128 O149 2.492 . S
Nd128 O150 2.487 . S
Nd128 O151 2.682 . S
Nd128 O152 2.410 . S
Nd128 O157 2.414 1_545 S
Nd128 O159 2.424 . S
Nd129 C139 2.836 1_556 S
Nd129 O151 2.414 . S
Nd129 O153 2.424 . S
Nd129 O154 2.500 . S
Nd129 O155 2.492 1_556 S
Nd129 O156 2.487 1_545 S
Nd129 O157 2.682 1_545 S
Nd129 O158 2.410 . S
C130 Nd128 2.836 1_565 S
C130 C131 1.498 . S
C130 O148 1.258 . S
C130 O149 1.239 1_565 S
C131 C130 1.498 . S
C131 C132 1.366 . S
C131 C136 1.407 . S
C132 C131 1.366 . S
C132 C133 1.392 . S
C132 H160 0.930 . S
C133 C132 1.392 . S
C133 C134 1.398 . S
C133 H161 0.929 . S
C134 C133 1.398 . S
C134 C135 1.352 . S
C135 C134 1.352 . S
C135 C136 1.384 . S
C135 H162 0.930 . S
C136 C131 1.407 . S
C136 C135 1.384 . S
C136 H163 0.929 1_565 S
C137 O150 1.241 . S
C137 O151 1.273 . S
C138 O152 1.251 . S
C138 O153 1.268 . S
C139 Nd129 2.836 1_554 S
C139 C140 1.498 . S
C139 O154 1.258 1_554 S
C139 O155 1.239 . S
C140 C139 1.498 . S
C140 C141 1.366 . S
C140 C145 1.407 . S
C141 C140 1.366 . S
C141 C142 1.392 . S
C141 H164 0.930 1_554 S
C142 C141 1.392 . S
C142 C143 1.398 . S
C142 H165 0.929 . S
C143 C142 1.398 . S
C143 C144 1.352 . S
C144 C143 1.352 . S
C144 C145 1.384 . S
C144 H166 0.930 . S
C145 C140 1.407 . S
C145 C144 1.384 . S
C145 H167 0.929 . S
C146 O156 1.241 . S
C146 O157 1.273 . S
C147 O158 1.251 . S
C147 O159 1.268 . S
O148 Nd128 2.500 1_565 S
O148 C130 1.258 . S
O149 Nd128 2.492 . S
O149 C130 1.239 1_545 S
O150 Nd128 2.487 . S
O150 C137 1.241 . S
O151 Nd128 2.682 . S
O151 Nd129 2.414 . S
O151 C137 1.273 . S
O152 Nd128 2.410 . S
O152 C138 1.251 . S
O153 Nd129 2.424 . S
O153 C138 1.268 . S
O154 Nd129 2.500 . S
O154 C139 1.258 1_556 S
O155 Nd129 2.492 1_554 S
O155 C139 1.239 . S
O156 Nd129 2.487 1_565 S
O156 C146 1.241 . S
O157 Nd128 2.414 1_565 S
O157 Nd129 2.682 1_565 S
O157 C146 1.273 . S
O158 Nd129 2.410 . S
O158 C147 1.251 . S
O159 Nd128 2.424 . S
O159 C147 1.268 . S
H160 C132 0.930 . S
H161 C133 0.929 . S
H162 C135 0.930 . S
H163 C136 0.929 1_545 S
H164 C141 0.930 1_556 S
H165 C142 0.929 . S
H166 C144 0.930 . S
H167 C145 0.929 . S
Nd168 C170 2.836 . S
Nd168 O188 2.500 . S
Nd168 O189 2.492 . S
Nd168 O190 2.487 . S
Nd168 O191 2.682 . S
Nd168 O192 2.410 . S
Nd168 O197 2.414 . S
Nd168 O199 2.424 . S
Nd169 C179 2.836 . S
Nd169 O191 2.414 . S
Nd169 O193 2.424 . S
Nd169 O194 2.500 . S
Nd169 O195 2.492 . S
Nd169 O196 2.487 . S
Nd169 O197 2.682 . S
Nd169 O198 2.410 . S
C170 Nd168 2.836 . S
C170 C171 1.498 . S
C170 O188 1.258 . S
C170 O189 1.239 . S
C171 C170 1.498 . S
C171 C172 1.366 . S
C171 C176 1.407 1_556 S
C172 C171 1.366 . S
C172 C173 1.392 . S
C172 H200 0.930 . S
C173 C172 1.392 . S
C173 C174 1.398 1_556 S
C173 H201 0.929 . S
C174 C173 1.398 1_554 S
C174 C175 1.352 . S
C175 C174 1.352 . S
C175 C176 1.384 . S
C175 H202 0.930 . S
C176 C171 1.407 1_554 S
C176 C175 1.384 . S
C176 H203 0.929 . S
C177 O190 1.241 . S
C177 O191 1.273 . S
C178 O192 1.251 . S
C178 O193 1.268 . S
C179 Nd169 2.836 . S
C179 C180 1.498 . S
C179 O194 1.258 . S
C179 O195 1.239 . S
C180 C179 1.498 . S
C180 C181 1.366 . S
C180 C185 1.407 . S
C181 C180 1.366 . S
C181 C182 1.392 . S
C181 H204 0.930 . S
C182 C181 1.392 . S
C182 C183 1.398 . S
C182 H205 0.929 . S
C183 C182 1.398 . S
C183 C184 1.352 . S
C184 C183 1.352 . S
C184 C185 1.384 . S
C184 H206 0.930 . S
C185 C180 1.407 . S
C185 C184 1.384 . S
C185 H207 0.929 . S
C186 O196 1.241 . S
C186 O197 1.273 . S
C187 O198 1.251 . S
C187 O199 1.268 . S
O188 Nd168 2.500 . S
O188 C170 1.258 . S
O189 Nd168 2.492 . S
O189 C170 1.239 . S
O190 Nd168 2.487 . S
O190 C177 1.241 . S
O191 Nd168 2.682 . S
O191 Nd169 2.414 . S
O191 C177 1.273 . S
O192 Nd168 2.410 . S
O192 C178 1.251 . S
O193 Nd169 2.424 . S
O193 C178 1.268 . S
O194 Nd169 2.500 . S
O194 C179 1.258 . S
O195 Nd169 2.492 . S
O195 C179 1.239 . S
O196 Nd169 2.487 . S
O196 C186 1.241 . S
O197 Nd168 2.414 . S
O197 Nd169 2.682 . S
O197 C186 1.273 . S
O198 Nd169 2.410 . S
O198 C187 1.251 . S
O199 Nd168 2.424 . S
O199 C187 1.268 . S
H200 C172 0.930 . S
H201 C173 0.929 . S
H202 C175 0.930 . S
H203 C176 0.929 . S
H204 C181 0.930 . S
H205 C182 0.929 . S
H206 C184 0.930 . S
H207 C185 0.929 . S
Nd208 C210 2.836 1_455 S
Nd208 O228 2.500 1_455 S
Nd208 O229 2.492 1_455 S
Nd208 O230 2.487 . S
Nd208 O231 2.682 . S
Nd208 O232 2.410 1_455 S
Nd208 O237 2.414 . S
Nd208 O239 2.424 . S
Nd209 C219 2.836 1_556 S
Nd209 O231 2.414 . S
Nd209 O233 2.424 1_455 S
Nd209 O234 2.500 . S
Nd209 O235 2.492 1_556 S
Nd209 O236 2.487 . S
Nd209 O237 2.682 . S
Nd209 O238 2.410 . S
C210 Nd208 2.836 1_655 S
C210 C211 1.498 . S
C210 O228 1.258 . S
C210 O229 1.239 . S
C211 C210 1.498 . S
C211 C212 1.366 . S
C211 C216 1.407 . S
C212 C211 1.366 . S
C212 C213 1.392 . S
C212 H240 0.930 . S
C213 C212 1.392 . S
C213 C214 1.398 . S
C213 H241 0.929 . S
C214 C213 1.398 . S
C214 C215 1.352 . S
C215 C214 1.352 . S
C215 C216 1.384 . S
C215 H242 0.930 . S
C216 C211 1.407 . S
C216 C215 1.384 . S
C216 H243 0.929 . S
C217 O230 1.241 . S
C217 O231 1.273 . S
C218 O232 1.251 . S
C218 O233 1.268 . S
C219 Nd209 2.836 1_554 S
C219 C220 1.498 . S
C219 O234 1.258 1_554 S
C219 O235 1.239 . S
C220 C219 1.498 . S
C220 C221 1.366 . S
C220 C225 1.407 . S
C221 C220 1.366 . S
C221 C222 1.392 . S
C221 H244 0.930 . S
C222 C221 1.392 . S
C222 C223 1.398 . S
C222 H245 0.929 . S
C223 C222 1.398 . S
C223 C224 1.352 . S
C224 C223 1.352 . S
C224 C225 1.384 . S
C224 H246 0.930 . S
C225 C220 1.407 . S
C225 C224 1.384 . S
C225 H247 0.929 . S
C226 O236 1.241 . S
C226 O237 1.273 . S
C227 O238 1.251 . S
C227 O239 1.268 . S
O228 Nd208 2.500 1_655 S
O228 C210 1.258 . S
O229 Nd208 2.492 1_655 S
O229 C210 1.239 . S
O230 Nd208 2.487 . S
O230 C217 1.241 . S
O231 Nd208 2.682 . S
O231 Nd209 2.414 . S
O231 C217 1.273 . S
O232 Nd208 2.410 1_655 S
O232 C218 1.251 . S
O233 Nd209 2.424 1_655 S
O233 C218 1.268 . S
O234 Nd209 2.500 . S
O234 C219 1.258 1_556 S
O235 Nd209 2.492 1_554 S
O235 C219 1.239 . S
O236 Nd209 2.487 . S
O236 C226 1.241 . S
O237 Nd208 2.414 . S
O237 Nd209 2.682 . S
O237 C226 1.273 . S
O238 Nd209 2.410 . S
O238 C227 1.251 . S
O239 Nd208 2.424 . S
O239 C227 1.268 . S
H240 C212 0.930 . S
H241 C213 0.929 . S
H242 C215 0.930 . S
H243 C216 0.929 . S
H244 C221 0.930 . S
H245 C222 0.929 . S
H246 C224 0.930 . S
H247 C225 0.929 . S
C248 C249 1.391 . S
C248 C250 1.394 . S
C248 H264 0.931 . S
C249 C248 1.391 . S
C249 C253 1.376 . S
C250 C248 1.394 . S
C250 C251 1.369 . S
C250 C254 1.531 . S
C251 C250 1.369 . S
C251 C252 1.410 . S
C251 C259 1.503 . S
C252 C251 1.410 . S
C252 C253 1.392 . S
C252 C255 1.511 . S
C253 C249 1.376 . S
C253 C252 1.392 . S
C253 H265 0.929 . S
C254 C250 1.531 . S
C254 H266 0.960 . S
C254 H267 0.962 . S
C254 H268 0.960 . S
C255 C252 1.511 . S
C255 H269 0.961 . S
C255 H270 0.961 . S
C255 H271 0.961 1_545 S
C256 C257 1.370 . S
C256 C258 1.363 . S
C256 H272 0.931 . S
C257 C256 1.370 . S
C257 C261 1.408 . S
C258 C256 1.363 . S
C258 C259 1.370 . S
C258 C262 1.524 . S
C259 C251 1.503 . S
C259 C258 1.370 . S
C259 C260 1.403 . S
C260 C259 1.403 . S
C260 C261 1.404 . S
C260 C263 1.539 1_545 S
C261 C257 1.408 . S
C261 C260 1.404 . S
C261 H273 0.930 1_545 S
C262 C258 1.524 . S
C262 H274 0.956 . S
C262 H275 0.961 . S
C262 H276 0.961 . S
C263 C260 1.539 1_565 S
C263 H277 0.958 1_565 S
C263 H278 0.961 . S
C263 H279 0.960 . S
H264 C248 0.931 . S
H265 C253 0.929 . S
H266 C254 0.960 . S
H267 C254 0.962 . S
H268 C254 0.960 . S
H269 C255 0.961 . S
H270 C255 0.961 . S
H271 C255 0.961 1_565 S
H272 C256 0.931 . S
H273 C261 0.930 1_565 S
H274 C262 0.956 . S
H275 C262 0.961 . S
H276 C262 0.961 . S
H277 C263 0.958 1_545 S
H278 C263 0.961 . S
H279 C263 0.960 . S
C280 C281 1.391 . S
C280 C282 1.394 . S
C280 H296 0.931 . S
C281 C280 1.391 . S
C281 C285 1.376 . S
C282 C280 1.394 . S
C282 C283 1.369 . S
C282 C286 1.531 . S
C283 C282 1.369 . S
C283 C284 1.410 . S
C283 C291 1.503 . S
C284 C283 1.410 . S
C284 C285 1.392 . S
C284 C287 1.511 . S
C285 C281 1.376 . S
C285 C284 1.392 . S
C285 H297 0.929 . S
C286 C282 1.531 . S
C286 H298 0.960 . S
C286 H299 0.962 . S
C286 H300 0.960 . S
C287 C284 1.511 . S
C287 H301 0.961 . S
C287 H302 0.961 . S
C287 H303 0.961 . S
C288 C289 1.370 . S
C288 C290 1.363 . S
C288 H304 0.931 . S
C289 C288 1.370 . S
C289 C293 1.408 . S
C290 C288 1.363 . S
C290 C291 1.370 . S
C290 C294 1.524 . S
C291 C283 1.503 . S
C291 C290 1.370 . S
C291 C292 1.403 . S
C292 C291 1.403 . S
C292 C293 1.404 . S
C292 C295 1.539 . S
C293 C289 1.408 . S
C293 C292 1.404 . S
C293 H305 0.930 . S
C294 C290 1.524 . S
C294 H306 0.956 . S
C294 H307 0.961 . S
C294 H308 0.961 . S
C295 C292 1.539 . S
C295 H309 0.958 . S
C295 H310 0.961 . S
C295 H311 0.960 . S
H296 C280 0.931 . S
H297 C285 0.929 . S
H298 C286 0.960 . S
H299 C286 0.962 . S
H300 C286 0.960 . S
H301 C287 0.961 . S
H302 C287 0.961 . S
H303 C287 0.961 . S
H304 C288 0.931 . S
H305 C293 0.930 . S
H306 C294 0.956 . S
H307 C294 0.961 . S
H308 C294 0.961 . S
H309 C295 0.958 . S
H310 C295 0.961 . S
H311 C295 0.960 . S
C312 C313 1.391 . S
C312 C314 1.394 . S
C312 H328 0.931 . S
C313 C312 1.391 . S
C313 C317 1.376 . S
C314 C312 1.394 . S
C314 C315 1.369 . S
C314 C318 1.531 . S
C315 C314 1.369 . S
C315 C316 1.410 . S
C315 C323 1.503 . S
C316 C315 1.410 . S
C316 C317 1.392 . S
C316 C319 1.511 . S
C317 C313 1.376 . S
C317 C316 1.392 . S
C317 H329 0.929 . S
C318 C314 1.531 . S
C318 H330 0.960 . S
C318 H331 0.962 . S
C318 H332 0.960 . S
C319 C316 1.511 . S
C319 H333 0.961 . S
C319 H334 0.961 . S
C319 H335 0.961 . S
C320 C321 1.370 . S
C320 C322 1.363 . S
C320 H336 0.931 . S
C321 C320 1.370 . S
C321 C325 1.408 . S
C322 C320 1.363 . S
C322 C323 1.370 . S
C322 C326 1.524 . S
C323 C315 1.503 . S
C323 C322 1.370 . S
C323 C324 1.403 . S
C324 C323 1.403 . S
C324 C325 1.404 . S
C324 C327 1.539 . S
C325 C321 1.408 . S
C325 C324 1.404 . S
C325 H337 0.930 . S
C326 C322 1.524 . S
C326 H338 0.956 . S
C326 H339 0.961 . S
C326 H340 0.961 . S
C327 C324 1.539 . S
C327 H341 0.958 . S
C327 H342 0.961 . S
C327 H343 0.960 . S
H328 C312 0.931 . S
H329 C317 0.929 . S
H330 C318 0.960 . S
H331 C318 0.962 . S
H332 C318 0.960 . S
H333 C319 0.961 . S
H334 C319 0.961 . S
H335 C319 0.961 . S
H336 C320 0.931 . S
H337 C325 0.930 . S
H338 C326 0.956 . S
H339 C326 0.961 . S
H340 C326 0.961 . S
H341 C327 0.958 . S
H342 C327 0.961 . S
H343 C327 0.960 . S
C344 C345 1.391 . S
C344 C346 1.394 . S
C344 H360 0.931 . S
C345 C344 1.391 . S
C345 C349 1.376 . S
C346 C344 1.394 . S
C346 C347 1.369 . S
C346 C350 1.531 . S
C347 C346 1.369 . S
C347 C348 1.410 . S
C347 C355 1.503 . S
C348 C347 1.410 . S
C348 C349 1.392 . S
C348 C351 1.511 . S
C349 C345 1.376 . S
C349 C348 1.392 . S
C349 H361 0.929 . S
C350 C346 1.531 . S
C350 H362 0.960 . S
C350 H363 0.962 . S
C350 H364 0.960 . S
C351 C348 1.511 . S
C351 H365 0.961 . S
C351 H366 0.961 . S
C351 H367 0.961 . S
C352 C353 1.370 . S
C352 C354 1.363 . S
C352 H368 0.931 . S
C353 C352 1.370 . S
C353 C357 1.408 . S
C354 C352 1.363 . S
C354 C355 1.370 . S
C354 C358 1.524 . S
C355 C347 1.503 . S
C355 C354 1.370 . S
C355 C356 1.403 . S
C356 C355 1.403 . S
C356 C357 1.404 . S
C356 C359 1.539 . S
C357 C353 1.408 . S
C357 C356 1.404 . S
C357 H369 0.930 . S
C358 C354 1.524 . S
C358 H370 0.956 . S
C358 H371 0.961 . S
C358 H372 0.961 . S
C359 C356 1.539 . S
C359 H373 0.958 . S
C359 H374 0.961 . S
C359 H375 0.960 . S
H360 C344 0.931 . S
H361 C349 0.929 . S
H362 C350 0.960 . S
H363 C350 0.962 . S
H364 C350 0.960 . S
H365 C351 0.961 . S
H366 C351 0.961 . S
H367 C351 0.961 . S
H368 C352 0.931 . S
H369 C357 0.930 . S
H370 C358 0.956 . S
H371 C358 0.961 . S
H372 C358 0.961 . S
H373 C359 0.958 . S
H374 C359 0.961 . S
H375 C359 0.960 . S
C376 C377 1.391 . S
C376 C378 1.394 . S
C376 H392 0.931 1_556 S
C377 C376 1.391 . S
C377 C381 1.376 . S
C378 C376 1.394 . S
C378 C379 1.369 . S
C378 C382 1.531 1_556 S
C379 C378 1.369 . S
C379 C380 1.410 . S
C379 C387 1.503 . S
C380 C379 1.410 . S
C380 C381 1.392 . S
C380 C383 1.511 . S
C381 C377 1.376 . S
C381 C380 1.392 . S
C381 H393 0.929 . S
C382 C378 1.531 1_554 S
C382 H394 0.960 . S
C382 H395 0.962 1_565 S
C382 H396 0.960 . S
C383 C380 1.511 . S
C383 H397 0.961 . S
C383 H398 0.961 . S
C383 H399 0.961 . S
C384 C385 1.370 . S
C384 C386 1.363 . S
C384 H400 0.931 . S
C385 C384 1.370 . S
C385 C389 1.408 1_545 S
C386 C384 1.363 . S
C386 C387 1.370 1_545 S
C386 C390 1.524 . S
C387 C379 1.503 . S
C387 C386 1.370 1_565 S
C387 C388 1.403 . S
C388 C387 1.403 . S
C388 C389 1.404 . S
C388 C391 1.539 . S
C389 C385 1.408 1_565 S
C389 C388 1.404 . S
C389 H401 0.930 . S
C390 C386 1.524 . S
C390 H402 0.956 . S
C390 H403 0.961 . S
C390 H404 0.961 . S
C391 C388 1.539 . S
C391 H405 0.958 1_556 S
C391 H406 0.961 . S
C391 H407 0.960 . S
H392 C376 0.931 1_554 S
H393 C381 0.929 . S
H394 C382 0.960 . S
H395 C382 0.962 1_545 S
H396 C382 0.960 . S
H397 C383 0.961 . S
H398 C383 0.961 . S
H399 C383 0.961 . S
H400 C384 0.931 . S
H401 C389 0.930 . S
H402 C390 0.956 . S
H403 C390 0.961 . S
H404 C390 0.961 . S
H405 C391 0.958 1_554 S
H406 C391 0.961 . S
H407 C391 0.960 . S
C408 C409 1.391 . S
C408 C410 1.394 . S
C408 H424 0.931 . S
C409 C408 1.391 . S
C409 C413 1.376 . S
C410 C408 1.394 . S
C410 C411 1.369 . S
C410 C414 1.531 . S
C411 C410 1.369 . S
C411 C412 1.410 . S
C411 C419 1.503 . S
C412 C411 1.410 . S
C412 C413 1.392 . S
C412 C415 1.511 . S
C413 C409 1.376 . S
C413 C412 1.392 . S
C413 H425 0.929 . S
C414 C410 1.531 . S
C414 H426 0.960 . S
C414 H427 0.962 . S
C414 H428 0.960 . S
C415 C412 1.511 . S
C415 H429 0.961 . S
C415 H430 0.961 . S
C415 H431 0.961 . S
C416 C417 1.370 1_554 S
C416 C418 1.363 . S
C416 H432 0.931 . S
C417 C416 1.370 1_556 S
C417 C421 1.408 . S
C418 C416 1.363 . S
C418 C419 1.370 . S
C418 C422 1.524 . S
C419 C411 1.503 . S
C419 C418 1.370 . S
C419 C420 1.403 . S
C420 C419 1.403 . S
C420 C421 1.404 1_554 S
C420 C423 1.539 . S
C421 C417 1.408 . S
C421 C420 1.404 1_556 S
C421 H433 0.930 . S
C422 C418 1.524 . S
C422 H434 0.956 . S
C422 H435 0.961 . S
C422 H436 0.961 . S
C423 C420 1.539 . S
C423 H437 0.958 1_554 S
C423 H438 0.961 1_554 S
C423 H439 0.960 . S
H424 C408 0.931 . S
H425 C413 0.929 . S
H426 C414 0.960 . S
H427 C414 0.962 . S
H428 C414 0.960 . S
H429 C415 0.961 . S
H430 C415 0.961 . S
H431 C415 0.961 . S
H432 C416 0.931 . S
H433 C421 0.930 . S
H434 C422 0.956 . S
H435 C422 0.961 . S
H436 C422 0.961 . S
H437 C423 0.958 1_556 S
H438 C423 0.961 1_556 S
H439 C423 0.960 . S
C440 C441 1.391 . S
C440 C442 1.394 . S
C440 H456 0.931 . S
C441 C440 1.391 . S
C441 C445 1.376 . S
C442 C440 1.394 . S
C442 C443 1.369 . S
C442 C446 1.531 . S
C443 C442 1.369 . S
C443 C444 1.410 . S
C443 C451 1.503 . S
C444 C443 1.410 . S
C444 C445 1.392 . S
C444 C447 1.511 . S
C445 C441 1.376 . S
C445 C444 1.392 . S
C445 H457 0.929 . S
C446 C442 1.531 . S
C446 H458 0.960 . S
C446 H459 0.962 . S
C446 H460 0.960 . S
C447 C444 1.511 . S
C447 H461 0.961 . S
C447 H462 0.961 . S
C447 H463 0.961 . S
C448 C449 1.370 . S
C448 C450 1.363 . S
C448 H464 0.931 . S
C449 C448 1.370 . S
C449 C453 1.408 . S
C450 C448 1.363 . S
C450 C451 1.370 . S
C450 C454 1.524 1_556 S
C451 C443 1.503 . S
C451 C450 1.370 . S
C451 C452 1.403 . S
C452 C451 1.403 . S
C452 C453 1.404 . S
C452 C455 1.539 . S
C453 C449 1.408 . S
C453 C452 1.404 . S
C453 H465 0.930 . S
C454 C450 1.524 1_554 S
C454 H466 0.956 1_554 S
C454 H467 0.961 . S
C454 H468 0.961 . S
C455 C452 1.539 . S
C455 H469 0.958 . S
C455 H470 0.961 . S
C455 H471 0.960 . S
H456 C440 0.931 . S
H457 C445 0.929 . S
H458 C446 0.960 . S
H459 C446 0.962 . S
H460 C446 0.960 . S
H461 C447 0.961 . S
H462 C447 0.961 . S
H463 C447 0.961 . S
H464 C448 0.931 . S
H465 C453 0.930 . S
H466 C454 0.956 1_556 S
H467 C454 0.961 . S
H468 C454 0.961 . S
H469 C455 0.958 . S
H470 C455 0.961 . S
H471 C455 0.960 . S
C472 C473 1.391 1_554 S
C472 C474 1.394 1_554 S
C472 H488 0.931 . S
C473 C472 1.391 1_556 S
C473 C477 1.376 . S
C474 C472 1.394 1_556 S
C474 C475 1.369 . S
C474 C478 1.531 1_656 S
C475 C474 1.369 . S
C475 C476 1.410 . S
C475 C483 1.503 . S
C476 C475 1.410 . S
C476 C477 1.392 . S
C476 C479 1.511 . S
C477 C473 1.376 . S
C477 C476 1.392 . S
C477 H489 0.929 . S
C478 C474 1.531 1_454 S
C478 H490 0.960 . S
C478 H491 0.962 . S
C478 H492 0.960 . S
C479 C476 1.511 . S
C479 H493 0.961 . S
C479 H494 0.961 . S
C479 H495 0.961 . S
C480 C481 1.370 . S
C480 C482 1.363 . S
C480 H496 0.931 . S
C481 C480 1.370 . S
C481 C485 1.408 1_455 S
C482 C480 1.363 . S
C482 C483 1.370 1_455 S
C482 C486 1.524 . S
C483 C475 1.503 . S
C483 C482 1.370 1_655 S
C483 C484 1.403 . S
C484 C483 1.403 . S
C484 C485 1.404 . S
C484 C487 1.539 1_556 S
C485 C481 1.408 1_655 S
C485 C484 1.404 . S
C485 H497 0.930 . S
C486 C482 1.524 . S
C486 H498 0.956 . S
C486 H499 0.961 1_455 S
C486 H500 0.961 . S
C487 C484 1.539 1_554 S
C487 H501 0.958 . S
C487 H502 0.961 . S
C487 H503 0.960 . S
H488 C472 0.931 . S
H489 C477 0.929 . S
H490 C478 0.960 . S
H491 C478 0.962 . S
H492 C478 0.960 . S
H493 C479 0.961 . S
H494 C479 0.961 . S
H495 C479 0.961 . S
H496 C480 0.931 . S
H497 C485 0.930 . S
H498 C486 0.956 . S
H499 C486 0.961 1_655 S
H500 C486 0.961 . S
H501 C487 0.958 . S
H502 C487 0.961 . S
H503 C487 0.960 . S
C504 C505 1.391 . S
C504 C506 1.394 . S
C504 H520 0.931 . S
C505 C504 1.391 . S
C505 C509 1.376 . S
C506 C504 1.394 . S
C506 C507 1.369 . S
C506 C510 1.531 . S
C507 C506 1.369 . S
C507 C508 1.410 . S
C507 C515 1.503 . S
C508 C507 1.410 . S
C508 C509 1.392 . S
C508 C511 1.511 . S
C509 C505 1.376 . S
C509 C508 1.392 . S
C509 H521 0.929 . S
C510 C506 1.531 . S
C510 H522 0.960 . S
C510 H523 0.962 . S
C510 H524 0.960 . S
C511 C508 1.511 . S
C511 H525 0.961 . S
C511 H526 0.961 . S
C511 H527 0.961 . S
C512 C513 1.370 . S
C512 C514 1.363 . S
C512 H528 0.931 . S
C513 C512 1.370 . S
C513 C517 1.408 . S
C514 C512 1.363 . S
C514 C515 1.370 . S
C514 C518 1.524 . S
C515 C507 1.503 . S
C515 C514 1.370 . S
C515 C516 1.403 . S
C516 C515 1.403 . S
C516 C517 1.404 . S
C516 C519 1.539 . S
C517 C513 1.408 . S
C517 C516 1.404 . S
C517 H529 0.930 . S
C518 C514 1.524 . S
C518 H530 0.956 . S
C518 H531 0.961 . S
C518 H532 0.961 . S
C519 C516 1.539 . S
C519 H533 0.958 . S
C519 H534 0.961 . S
C519 H535 0.960 . S
H520 C504 0.931 . S
H521 C509 0.929 . S
H522 C510 0.960 . S
H523 C510 0.962 . S
H524 C510 0.960 . S
H525 C511 0.961 . S
H526 C511 0.961 . S
H527 C511 0.961 . S
H528 C512 0.931 . S
H529 C517 0.930 . S
H530 C518 0.956 . S
H531 C518 0.961 . S
H532 C518 0.961 . S
H533 C519 0.958 . S
H534 C519 0.961 . S
H535 C519 0.960 . S
C536 C537 1.391 . S
C536 C538 1.394 . S
C536 H552 0.931 . S
C537 C536 1.391 . S
C537 C541 1.376 . S
C538 C536 1.394 . S
C538 C539 1.369 . S
C538 C542 1.531 . S
C539 C538 1.369 . S
C539 C540 1.410 . S
C539 C547 1.503 . S
C540 C539 1.410 . S
C540 C541 1.392 . S
C540 C543 1.511 . S
C541 C537 1.376 . S
C541 C540 1.392 . S
C541 H553 0.929 . S
C542 C538 1.531 . S
C542 H554 0.960 1_545 S
C542 H555 0.962 . S
C542 H556 0.960 1_545 S
C543 C540 1.511 . S
C543 H557 0.961 . S
C543 H558 0.961 . S
C543 H559 0.961 . S
C544 C545 1.370 . S
C544 C546 1.363 . S
C544 H560 0.931 . S
C545 C544 1.370 . S
C545 C549 1.408 . S
C546 C544 1.363 . S
C546 C547 1.370 . S
C546 C550 1.524 . S
C547 C539 1.503 . S
C547 C546 1.370 . S
C547 C548 1.403 . S
C548 C547 1.403 . S
C548 C549 1.404 . S
C548 C551 1.539 1_545 S
C549 C545 1.408 . S
C549 C548 1.404 . S
C549 H561 0.930 1_545 S
C550 C546 1.524 . S
C550 H562 0.956 . S
C550 H563 0.961 . S
C550 H564 0.961 . S
C551 C548 1.539 1_565 S
C551 H565 0.958 . S
C551 H566 0.961 . S
C551 H567 0.960 1_565 S
H552 C536 0.931 . S
H553 C541 0.929 . S
H554 C542 0.960 1_565 S
H555 C542 0.962 . S
H556 C542 0.960 1_565 S
H557 C543 0.961 . S
H558 C543 0.961 . S
H559 C543 0.961 . S
H560 C544 0.931 . S
H561 C549 0.930 1_565 S
H562 C550 0.956 . S
H563 C550 0.961 . S
H564 C550 0.961 . S
H565 C551 0.958 . S
H566 C551 0.961 . S
H567 C551 0.960 1_545 S
C568 C569 1.391 . S
C568 C570 1.394 . S
C568 H584 0.931 . S
C569 C568 1.391 . S
C569 C573 1.376 . S
C570 C568 1.394 . S
C570 C571 1.369 . S
C570 C574 1.531 . S
C571 C570 1.369 . S
C571 C572 1.410 . S
C571 C579 1.503 . S
C572 C571 1.410 . S
C572 C573 1.392 . S
C572 C575 1.511 . S
C573 C569 1.376 . S
C573 C572 1.392 . S
C573 H585 0.929 . S
C574 C570 1.531 . S
C574 H586 0.960 . S
C574 H587 0.962 . S
C574 H588 0.960 . S
C575 C572 1.511 . S
C575 H589 0.961 . S
C575 H590 0.961 . S
C575 H591 0.961 . S
C576 C577 1.370 . S
C576 C578 1.363 . S
C576 H592 0.931 . S
C577 C576 1.370 . S
C577 C581 1.408 . S
C578 C576 1.363 . S
C578 C579 1.370 . S
C578 C582 1.524 . S
C579 C571 1.503 . S
C579 C578 1.370 . S
C579 C580 1.403 . S
C580 C579 1.403 . S
C580 C581 1.404 . S
C580 C583 1.539 . S
C581 C577 1.408 . S
C581 C580 1.404 . S
C581 H593 0.930 . S
C582 C578 1.524 . S
C582 H594 0.956 . S
C582 H595 0.961 . S
C582 H596 0.961 . S
C583 C580 1.539 . S
C583 H597 0.958 . S
C583 H598 0.961 . S
C583 H599 0.960 . S
H584 C568 0.931 . S
H585 C573 0.929 . S
H586 C574 0.960 . S
H587 C574 0.962 . S
H588 C574 0.960 . S
H589 C575 0.961 . S
H590 C575 0.961 . S
H591 C575 0.961 . S
H592 C576 0.931 . S
H593 C581 0.930 . S
H594 C582 0.956 . S
H595 C582 0.961 . S
H596 C582 0.961 . S
H597 C583 0.958 . S
H598 C583 0.961 . S
H599 C583 0.960 . S
C600 C601 1.391 . S
C600 C602 1.394 . S
C600 H616 0.931 . S
C601 C600 1.391 . S
C601 C605 1.376 . S
C602 C600 1.394 . S
C602 C603 1.369 . S
C602 C606 1.531 . S
C603 C602 1.369 . S
C603 C604 1.410 . S
C603 C611 1.503 . S
C604 C603 1.410 . S
C604 C605 1.392 . S
C604 C607 1.511 . S
C605 C601 1.376 . S
C605 C604 1.392 . S
C605 H617 0.929 . S
C606 C602 1.531 . S
C606 H618 0.960 . S
C606 H619 0.962 . S
C606 H620 0.960 . S
C607 C604 1.511 . S
C607 H621 0.961 . S
C607 H622 0.961 . S
C607 H623 0.961 . S
C608 C609 1.370 . S
C608 C610 1.363 . S
C608 H624 0.931 . S
C609 C608 1.370 . S
C609 C613 1.408 . S
C610 C608 1.363 . S
C610 C611 1.370 . S
C610 C614 1.524 . S
C611 C603 1.503 . S
C611 C610 1.370 . S
C611 C612 1.403 . S
C612 C611 1.403 . S
C612 C613 1.404 . S
C612 C615 1.539 . S
C613 C609 1.408 . S
C613 C612 1.404 . S
C613 H625 0.930 . S
C614 C610 1.524 . S
C614 H626 0.956 . S
C614 H627 0.961 . S
C614 H628 0.961 . S
C615 C612 1.539 . S
C615 H629 0.958 . S
C615 H630 0.961 . S
C615 H631 0.960 . S
H616 C600 0.931 . S
H617 C605 0.929 . S
H618 C606 0.960 . S
H619 C606 0.962 . S
H620 C606 0.960 . S
H621 C607 0.961 . S
H622 C607 0.961 . S
H623 C607 0.961 . S
H624 C608 0.931 . S
H625 C613 0.930 . S
H626 C614 0.956 . S
H627 C614 0.961 . S
H628 C614 0.961 . S
H629 C615 0.958 . S
H630 C615 0.961 . S
H631 C615 0.960 . S
C632 C633 1.391 . S
C632 C634 1.394 . S
C632 H648 0.931 . S
C633 C632 1.391 . S
C633 C637 1.376 . S
C634 C632 1.394 . S
C634 C635 1.369 . S
C634 C638 1.531 . S
C635 C634 1.369 . S
C635 C636 1.410 . S
C635 C643 1.503 . S
C636 C635 1.410 . S
C636 C637 1.392 . S
C636 C639 1.511 1_655 S
C637 C633 1.376 . S
C637 C636 1.392 . S
C637 H649 0.929 . S
C638 C634 1.531 . S
C638 H650 0.960 . S
C638 H651 0.962 . S
C638 H652 0.960 . S
C639 C636 1.511 1_455 S
C639 H653 0.961 . S
C639 H654 0.961 . S
C639 H655 0.961 1_556 S
C640 C641 1.370 . S
C640 C642 1.363 1_455 S
C640 H656 0.931 . S
C641 C640 1.370 . S
C641 C645 1.408 1_455 S
C642 C640 1.363 1_655 S
C642 C643 1.370 . S
C642 C646 1.524 . S
C643 C635 1.503 . S
C643 C642 1.370 . S
C643 C644 1.403 . S
C644 C643 1.403 . S
C644 C645 1.404 . S
C644 C647 1.539 1_556 S
C645 C641 1.408 1_655 S
C645 C644 1.404 . S
C645 H657 0.930 . S
C646 C642 1.524 . S
C646 H658 0.956 . S
C646 H659 0.961 1_655 S
C646 H660 0.961 1_655 S
C647 C644 1.539 1_554 S
C647 H661 0.958 . S
C647 H662 0.961 . S
C647 H663 0.960 . S
H648 C632 0.931 . S
H649 C637 0.929 . S
H650 C638 0.960 . S
H651 C638 0.962 . S
H652 C638 0.960 . S
H653 C639 0.961 . S
H654 C639 0.961 . S
H655 C639 0.961 1_554 S
H656 C640 0.931 . S
H657 C645 0.930 . S
H658 C646 0.956 . S
H659 C646 0.961 1_455 S
H660 C646 0.961 1_455 S
H661 C647 0.958 . S
H662 C647 0.961 . S
H663 C647 0.960 . S
C664 C665 1.391 . S
C664 C666 1.394 . S
C664 H680 0.931 . S
C665 C664 1.391 . S
C665 C669 1.376 . S
C666 C664 1.394 . S
C666 C667 1.369 . S
C666 C670 1.531 . S
C667 C666 1.369 . S
C667 C668 1.410 1_565 S
C667 C675 1.503 . S
C668 C667 1.410 1_545 S
C668 C669 1.392 1_545 S
C668 C671 1.511 . S
C669 C665 1.376 . S
C669 C668 1.392 1_565 S
C669 H681 0.929 1_565 S
C670 C666 1.531 . S
C670 H682 0.960 . S
C670 H683 0.962 . S
C670 H684 0.960 . S
C671 C668 1.511 . S
C671 H685 0.961 . S
C671 H686 0.961 . S
C671 H687 0.961 . S
C672 C673 1.370 . S
C672 C674 1.363 . S
C672 H688 0.931 . S
C673 C672 1.370 . S
C673 C677 1.408 . S
C674 C672 1.363 . S
C674 C675 1.370 1_545 S
C674 C678 1.521 1_545 S
C675 C667 1.503 . S
C675 C674 1.370 1_565 S
C675 C676 1.416 . S
C676 C675 1.416 . S
C676 C677 1.384 1_565 S
C676 C679 1.543 1_556 S
C677 C673 1.408 . S
C677 C676 1.384 1_545 S
C677 H689 0.930 . S
C678 C674 1.521 1_565 S
C678 H690 0.964 . S
C678 H691 0.958 1_565 S
C678 H692 0.958 1_565 S
C679 C676 1.543 1_554 S
C679 H693 0.958 . S
C679 H694 0.961 1_565 S
C679 H695 0.960 . S
H680 C664 0.931 . S
H681 C669 0.929 1_545 S
H682 C670 0.960 . S
H683 C670 0.962 . S
H684 C670 0.960 . S
H685 C671 0.961 . S
H686 C671 0.961 . S
H687 C671 0.961 . S
H688 C672 0.931 . S
H689 C677 0.930 . S
H690 C678 0.964 . S
H691 C678 0.958 1_545 S
H692 C678 0.958 1_545 S
H693 C679 0.958 . S
H694 C679 0.961 1_545 S
H695 C679 0.960 . S
C696 C697 1.391 . S
C696 C698 1.394 . S
C696 H712 0.931 . S
C697 C696 1.391 . S
C697 C701 1.376 . S
C698 C696 1.394 . S
C698 C699 1.369 . S
C698 C702 1.531 . S
C699 C698 1.369 . S
C699 C700 1.410 . S
C699 C707 1.503 . S
C700 C699 1.410 . S
C700 C701 1.392 . S
C700 C703 1.511 . S
C701 C697 1.376 . S
C701 C700 1.392 . S
C701 H713 0.929 . S
C702 C698 1.531 . S
C702 H714 0.960 . S
C702 H715 0.962 . S
C702 H716 0.960 . S
C703 C700 1.511 . S
C703 H717 0.961 . S
C703 H718 0.961 . S
C703 H719 0.961 . S
C704 C705 1.370 . S
C704 C706 1.363 . S
C704 H720 0.931 . S
C705 C704 1.370 . S
C705 C709 1.408 . S
C706 C704 1.363 . S
C706 C707 1.370 . S
C706 C710 1.524 . S
C707 C699 1.503 . S
C707 C706 1.370 . S
C707 C708 1.403 . S
C708 C707 1.403 . S
C708 C709 1.404 . S
C708 C711 1.539 . S
C709 C705 1.408 . S
C709 C708 1.404 . S
C709 H721 0.930 . S
C710 C706 1.524 . S
C710 H722 0.956 . S
C710 H723 0.961 . S
C710 H724 0.961 . S
C711 C708 1.539 . S
C711 H725 0.958 . S
C711 H726 0.961 . S
C711 H727 0.960 . S
H712 C696 0.931 . S
H713 C701 0.929 . S
H714 C702 0.960 . S
H715 C702 0.962 . S
H716 C702 0.960 . S
H717 C703 0.961 . S
H718 C703 0.961 . S
H719 C703 0.961 . S
H720 C704 0.931 . S
H721 C709 0.930 . S
H722 C710 0.956 . S
H723 C710 0.961 . S
H724 C710 0.961 . S
H725 C711 0.958 . S
H726 C711 0.961 . S
H727 C711 0.960 . S
C728 C729 1.391 . S
C728 C730 1.394 . S
C728 H744 0.931 . S
C729 C728 1.391 . S
C729 C733 1.376 . S
C730 C728 1.394 . S
C730 C731 1.369 . S
C730 C734 1.531 . S
C731 C730 1.369 . S
C731 C732 1.410 . S
C731 C739 1.503 . S
C732 C731 1.410 . S
C732 C733 1.392 . S
C732 C735 1.511 . S
C733 C729 1.376 . S
C733 C732 1.392 . S
C733 H745 0.929 . S
C734 C730 1.531 . S
C734 H746 0.960 1_556 S
C734 H747 0.962 . S
C734 H748 0.960 1_556 S
C735 C732 1.511 . S
C735 H749 0.961 . S
C735 H750 0.961 . S
C735 H751 0.961 . S
C736 C737 1.370 . S
C736 C738 1.363 . S
C736 H752 0.931 . S
C737 C736 1.370 . S
C737 C741 1.408 . S
C738 C736 1.363 . S
C738 C739 1.370 . S
C738 C742 1.524 . S
C739 C731 1.503 . S
C739 C738 1.370 . S
C739 C740 1.403 . S
C740 C739 1.403 . S
C740 C741 1.404 . S
C740 C743 1.539 . S
C741 C737 1.408 . S
C741 C740 1.404 . S
C741 H753 0.930 . S
C742 C738 1.524 . S
C742 H754 0.956 . S
C742 H755 0.961 . S
C742 H756 0.961 . S
C743 C740 1.539 . S
C743 H757 0.958 1_556 S
C743 H758 0.961 . S
C743 H759 0.960 . S
H744 C728 0.931 . S
H745 C733 0.929 . S
H746 C734 0.960 1_554 S
H747 C734 0.962 . S
H748 C734 0.960 1_554 S
H749 C735 0.961 . S
H750 C735 0.961 . S
H751 C735 0.961 . S
H752 C736 0.931 . S
H753 C741 0.930 . S
H754 C742 0.956 . S
H755 C742 0.961 . S
H756 C742 0.961 . S
H757 C743 0.958 1_554 S
H758 C743 0.961 . S
H759 C743 0.960 . S
C760 C761 1.391 . S
C760 C762 1.394 . S
C760 H776 0.931 . S
C761 C760 1.391 . S
C761 C765 1.376 . S
C762 C760 1.394 . S
C762 C763 1.369 . S
C762 C766 1.531 . S
C763 C762 1.369 . S
C763 C764 1.410 . S
C763 C771 1.503 . S
C764 C763 1.410 . S
C764 C765 1.392 . S
C764 C767 1.511 . S
C765 C761 1.376 . S
C765 C764 1.392 . S
C765 H777 0.929 . S
C766 C762 1.531 . S
C766 H778 0.960 . S
C766 H779 0.962 . S
C766 H780 0.960 . S
C767 C764 1.511 . S
C767 H781 0.961 . S
C767 H782 0.961 . S
C767 H783 0.961 . S
C768 C769 1.370 . S
C768 C770 1.363 . S
C768 H784 0.931 . S
C769 C768 1.370 . S
C769 C773 1.408 . S
C770 C768 1.363 . S
C770 C771 1.370 . S
C770 C774 1.524 . S
C771 C763 1.503 . S
C771 C770 1.370 . S
C771 C772 1.403 . S
C772 C771 1.403 . S
C772 C773 1.404 . S
C772 C775 1.539 . S
C773 C769 1.408 . S
C773 C772 1.404 . S
C773 H785 0.930 . S
C774 C770 1.524 . S
C774 H786 0.956 . S
C774 H787 0.961 . S
C774 H788 0.961 . S
C775 C772 1.539 . S
C775 H789 0.958 . S
C775 H790 0.961 . S
C775 H791 0.960 . S
H776 C760 0.931 . S
H777 C765 0.929 . S
H778 C766 0.960 . S
H779 C766 0.962 . S
H780 C766 0.960 . S
H781 C767 0.961 . S
H782 C767 0.961 . S
H783 C767 0.961 . S
H784 C768 0.931 . S
H785 C773 0.930 . S
H786 C774 0.956 . S
H787 C774 0.961 . S
H788 C774 0.961 . S
H789 C775 0.958 . S
H790 C775 0.961 . S
H791 C775 0.960 . S
C792 C793 1.391 . S
C792 C794 1.394 . S
C792 H808 0.931 . S
C793 C792 1.391 . S
C793 C797 1.376 . S
C794 C792 1.394 . S
C794 C795 1.369 . S
C794 C798 1.531 . S
C795 C794 1.369 . S
C795 C796 1.410 . S
C795 C803 1.503 . S
C796 C795 1.410 . S
C796 C797 1.392 . S
C796 C799 1.511 . S
C797 C793 1.376 . S
C797 C796 1.392 . S
C797 H809 0.929 . S
C798 C794 1.531 . S
C798 H810 0.960 . S
C798 H811 0.962 . S
C798 H812 0.960 . S
C799 C796 1.511 . S
C799 H813 0.961 . S
C799 H814 0.961 . S
C799 H815 0.961 . S
C800 C801 1.370 . S
C800 C802 1.363 . S
C800 H816 0.931 . S
C801 C800 1.370 . S
C801 C805 1.408 . S
C802 C800 1.363 . S
C802 C803 1.370 . S
C802 C806 1.524 . S
C803 C795 1.503 . S
C803 C802 1.370 . S
C803 C804 1.403 . S
C804 C803 1.403 . S
C804 C805 1.404 . S
C804 C807 1.539 . S
C805 C801 1.408 . S
C805 C804 1.404 . S
C805 H817 0.930 . S
C806 C802 1.524 . S
C806 H818 0.956 . S
C806 H819 0.961 . S
C806 H820 0.961 . S
C807 C804 1.539 . S
C807 H821 0.958 . S
C807 H822 0.961 . S
C807 H823 0.960 . S
H808 C792 0.931 . S
H809 C797 0.929 . S
H810 C798 0.960 . S
H811 C798 0.962 . S
H812 C798 0.960 . S
H813 C799 0.961 . S
H814 C799 0.961 . S
H815 C799 0.961 . S
H816 C800 0.931 . S
H817 C805 0.930 . S
H818 C806 0.956 . S
H819 C806 0.961 . S
H820 C806 0.961 . S
H821 C807 0.958 . S
H822 C807 0.961 . S
H823 C807 0.960 . S
C824 C825 1.391 . S
C824 C826 1.394 . S
C824 H840 0.931 . S
C825 C824 1.391 . S
C825 C829 1.376 . S
C826 C824 1.394 . S
C826 C827 1.369 . S
C826 C830 1.531 . S
C827 C826 1.369 . S
C827 C828 1.410 . S
C827 C835 1.503 . S
C828 C827 1.410 . S
C828 C829 1.392 . S
C828 C831 1.511 1_554 S
C829 C825 1.376 . S
C829 C828 1.392 . S
C829 H841 0.929 . S
C830 C826 1.531 . S
C830 H842 0.960 . S
C830 H843 0.962 . S
C830 H844 0.960 . S
C831 C828 1.511 1_556 S
C831 H845 0.961 . S
C831 H846 0.961 . S
C831 H847 0.961 . S
C832 C833 1.370 . S
C832 C834 1.363 1_556 S
C832 H848 0.931 . S
C833 C832 1.370 . S
C833 C837 1.408 . S
C834 C832 1.363 1_554 S
C834 C835 1.370 . S
C834 C838 1.524 . S
C835 C827 1.503 . S
C835 C834 1.370 . S
C835 C836 1.403 1_554 S
C836 C835 1.403 1_556 S
C836 C837 1.404 . S
C836 C839 1.539 . S
C837 C833 1.408 . S
C837 C836 1.404 . S
C837 H849 0.930 . S
C838 C834 1.524 . S
C838 H850 0.956 . S
C838 H851 0.961 . S
C838 H852 0.961 . S
C839 C836 1.539 . S
C839 H853 0.958 1_556 S
C839 H854 0.961 . S
C839 H855 0.960 . S
H840 C824 0.931 . S
H841 C829 0.929 . S
H842 C830 0.960 . S
H843 C830 0.962 . S
H844 C830 0.960 . S
H845 C831 0.961 . S
H846 C831 0.961 . S
H847 C831 0.961 . S
H848 C832 0.931 . S
H849 C837 0.930 . S
H850 C838 0.956 . S
H851 C838 0.961 . S
H852 C838 0.961 . S
H853 C839 0.958 1_554 S
H854 C839 0.961 . S
H855 C839 0.960 . S
C856 C857 1.391 . S
C856 C858 1.394 . S
C856 H872 0.931 . S
C857 C856 1.391 . S
C857 C861 1.376 . S
C858 C856 1.394 . S
C858 C859 1.369 . S
C858 C862 1.531 . S
C859 C858 1.369 . S
C859 C860 1.410 . S
C859 C867 1.503 . S
C860 C859 1.410 . S
C860 C861 1.392 . S
C860 C863 1.511 . S
C861 C857 1.376 . S
C861 C860 1.392 . S
C861 H873 0.929 . S
C862 C858 1.531 . S
C862 H874 0.960 . S
C862 H875 0.962 . S
C862 H876 0.960 . S
C863 C860 1.511 . S
C863 H877 0.961 . S
C863 H878 0.961 . S
C863 H879 0.961 . S
C864 C865 1.370 . S
C864 C866 1.363 . S
C864 H880 0.931 . S
C865 C864 1.370 . S
C865 C869 1.408 . S
C866 C864 1.363 . S
C866 C867 1.370 . S
C866 C870 1.524 . S
C867 C859 1.503 . S
C867 C866 1.370 . S
C867 C868 1.403 . S
C868 C867 1.403 . S
C868 C869 1.404 . S
C868 C871 1.539 . S
C869 C865 1.408 . S
C869 C868 1.404 . S
C869 H881 0.930 . S
C870 C866 1.524 . S
C870 H882 0.956 . S
C870 H883 0.961 . S
C870 H884 0.961 . S
C871 C868 1.539 . S
C871 H885 0.958 . S
C871 H886 0.961 . S
C871 H887 0.960 . S
H872 C856 0.931 . S
H873 C861 0.929 . S
H874 C862 0.960 . S
H875 C862 0.962 . S
H876 C862 0.960 . S
H877 C863 0.961 . S
H878 C863 0.961 . S
H879 C863 0.961 . S
H880 C864 0.931 . S
H881 C869 0.930 . S
H882 C870 0.956 . S
H883 C870 0.961 . S
H884 C870 0.961 . S
H885 C871 0.958 . S
H886 C871 0.961 . S
H887 C871 0.960 . S
C888 C889 1.391 . S
C888 C890 1.394 . S
C888 H904 0.931 . S
C889 C888 1.391 . S
C889 C893 1.376 . S
C890 C888 1.394 . S
C890 C891 1.369 . S
C890 C894 1.518 1_655 S
C891 C890 1.369 . S
C891 C892 1.410 . S
C891 C899 1.503 . S
C892 C891 1.410 . S
C892 C893 1.392 . S
C892 C895 1.511 . S
C893 C889 1.376 . S
C893 C892 1.392 . S
C893 H905 0.929 . S
C894 C890 1.518 1_455 S
C894 H906 0.953 1_455 S
C894 H907 0.978 . S
C894 H908 0.964 . S
C895 C892 1.511 . S
C895 H909 0.961 . S
C895 H910 0.961 . S
C895 H911 0.961 . S
C896 C897 1.370 . S
C896 C898 1.363 . S
C896 H912 0.931 . S
C897 C896 1.370 . S
C897 C901 1.408 . S
C898 C896 1.363 . S
C898 C899 1.370 . S
C898 C902 1.524 . S
C899 C891 1.503 . S
C899 C898 1.370 . S
C899 C900 1.403 . S
C900 C899 1.403 . S
C900 C901 1.404 . S
C900 C903 1.539 . S
C901 C897 1.408 . S
C901 C900 1.404 . S
C901 H913 0.930 . S
C902 C898 1.524 . S
C902 H914 0.956 1_655 S
C902 H915 0.961 . S
C902 H916 0.983 . S
C903 C900 1.539 . S
C903 H917 0.958 . S
C903 H918 0.961 . S
C903 H919 0.960 . S
H904 C888 0.931 . S
H905 C893 0.929 . S
H906 C894 0.953 1_655 S
H907 C894 0.978 . S
H908 C894 0.964 . S
H909 C895 0.961 . S
H910 C895 0.961 . S
H911 C895 0.961 . S
H912 C896 0.931 . S
H913 C901 0.930 . S
H914 C902 0.956 1_455 S
H915 C902 0.961 . S
H916 C902 0.983 . S
H917 C903 0.958 . S
H918 C903 0.961 . S
H919 C903 0.960 . S
C920 C921 1.391 . S
C920 C922 1.394 . S
C920 H936 0.931 . S
C921 C920 1.391 . S
C921 C925 1.376 . S
C922 C920 1.394 . S
C922 C923 1.369 . S
C922 C926 1.531 1_565 S
C923 C922 1.369 . S
C923 C924 1.410 . S
C923 C931 1.503 . S
C924 C923 1.410 . S
C924 C925 1.392 . S
C924 C927 1.511 . S
C925 C921 1.376 . S
C925 C924 1.392 . S
C925 H937 0.929 . S
C926 C922 1.531 1_545 S
C926 H938 0.960 . S
C926 H939 0.962 1_545 S
C926 H940 0.960 . S
C927 C924 1.511 . S
C927 H941 0.961 . S
C927 H942 0.961 . S
C927 H943 0.961 . S
C928 C929 1.370 . S
C928 C930 1.363 . S
C928 H944 0.931 . S
C929 C928 1.370 . S
C929 C933 1.408 . S
C930 C928 1.363 . S
C930 C931 1.370 . S
C930 C934 1.524 . S
C931 C923 1.503 . S
C931 C930 1.370 . S
C931 C932 1.403 . S
C932 C931 1.403 . S
C932 C933 1.404 . S
C932 C935 1.539 1_565 S
C933 C929 1.408 . S
C933 C932 1.404 . S
C933 H945 0.930 . S
C934 C930 1.524 . S
C934 H946 0.956 . S
C934 H947 0.961 . S
C934 H948 0.961 . S
C935 C932 1.539 1_545 S
C935 H949 0.958 . S
C935 H950 0.961 . S
C935 H951 0.960 1_545 S
H936 C920 0.931 . S
H937 C925 0.929 . S
H938 C926 0.960 . S
H939 C926 0.962 1_565 S
H940 C926 0.960 . S
H941 C927 0.961 . S
H942 C927 0.961 . S
H943 C927 0.961 . S
H944 C928 0.931 . S
H945 C933 0.930 . S
H946 C934 0.956 . S
H947 C934 0.961 . S
H948 C934 0.961 . S
H949 C935 0.958 . S
H950 C935 0.961 . S
H951 C935 0.960 1_565 S
C952 C953 1.391 . S
C952 C954 1.394 . S
C952 H968 0.931 . S
C953 C952 1.391 . S
C953 C957 1.376 . S
C954 C952 1.394 . S
C954 C955 1.369 . S
C954 C958 1.531 . S
C955 C954 1.369 . S
C955 C956 1.410 . S
C955 C963 1.503 . S
C956 C955 1.410 . S
C956 C957 1.392 . S
C956 C959 1.511 . S
C957 C953 1.376 . S
C957 C956 1.392 . S
C957 H969 0.929 . S
C958 C954 1.531 . S
C958 H970 0.960 . S
C958 H971 0.962 . S
C958 H972 0.960 . S
C959 C956 1.511 . S
C959 H973 0.961 . S
C959 H974 0.961 . S
C959 H975 0.961 . S
C960 C961 1.370 . S
C960 C962 1.363 . S
C960 H976 0.931 . S
C961 C960 1.370 . S
C961 C965 1.408 . S
C962 C960 1.363 . S
C962 C963 1.370 . S
C962 C966 1.524 . S
C963 C955 1.503 . S
C963 C962 1.370 . S
C963 C964 1.403 . S
C964 C963 1.403 . S
C964 C965 1.404 . S
C964 C967 1.539 . S
C965 C961 1.408 . S
C965 C964 1.404 . S
C965 H977 0.930 . S
C966 C962 1.524 . S
C966 H978 0.956 . S
C966 H979 0.961 . S
C966 H980 0.961 . S
C967 C964 1.539 . S
C967 H981 0.958 . S
C967 H982 0.961 . S
C967 H983 0.960 . S
H968 C952 0.931 . S
H969 C957 0.929 . S
H970 C958 0.960 . S
H971 C958 0.962 . S
H972 C958 0.960 . S
H973 C959 0.961 . S
H974 C959 0.961 . S
H975 C959 0.961 . S
H976 C960 0.931 . S
H977 C965 0.930 . S
H978 C966 0.956 . S
H979 C966 0.961 . S
H980 C966 0.961 . S
H981 C967 0.958 . S
H982 C967 0.961 . S
H983 C967 0.960 . S
C984 C985 1.391 . S
C984 C986 1.394 . S
C984 H1000 0.931 . S
C985 C984 1.391 . S
C985 C989 1.376 . S
C986 C984 1.394 . S
C986 C987 1.369 . S
C986 C990 1.531 . S
C987 C986 1.369 . S
C987 C988 1.410 . S
C987 C995 1.503 . S
C988 C987 1.410 . S
C988 C989 1.392 . S
C988 C991 1.511 . S
C989 C985 1.376 . S
C989 C988 1.392 . S
C989 H1001 0.929 . S
C990 C986 1.531 . S
C990 H1002 0.960 . S
C990 H1003 0.962 . S
C990 H1004 0.960 . S
C991 C988 1.511 . S
C991 H1005 0.961 . S
C991 H1006 0.961 . S
C991 H1007 0.961 . S
C992 C993 1.370 . S
C992 C994 1.363 . S
C992 H1008 0.931 . S
C993 C992 1.370 . S
C993 C997 1.408 . S
C994 C992 1.363 . S
C994 C995 1.370 . S
C994 C998 1.524 . S
C995 C987 1.503 . S
C995 C994 1.370 . S
C995 C996 1.403 . S
C996 C995 1.403 . S
C996 C997 1.404 . S
C996 C999 1.539 . S
C997 C993 1.408 . S
C997 C996 1.404 . S
C997 H1009 0.930 . S
C998 C994 1.524 . S
C998 H1010 0.956 . S
C998 H1011 0.961 . S
C998 H1012 0.961 . S
C999 C996 1.539 . S
C999 H1013 0.958 . S
C999 H1014 0.961 . S
C999 H1015 0.960 . S
H1000 C984 0.931 . S
H1001 C989 0.929 . S
H1002 C990 0.960 . S
H1003 C990 0.962 . S
H1004 C990 0.960 . S
H1005 C991 0.961 . S
H1006 C991 0.961 . S
H1007 C991 0.961 . S
H1008 C992 0.931 . S
H1009 C997 0.930 . S
H1010 C998 0.956 . S
H1011 C998 0.961 . S
H1012 C998 0.961 . S
H1013 C999 0.958 . S
H1014 C999 0.961 . S
H1015 C999 0.960 . S
C249 C74 1.517 . S
C257 C97 1.486 . S
C289 C137 1.282 . S
C281 C85 1.402 . S
C321 C186 1.338 . S
C313 C52 1.322 . S
C353 C217 1.806 . S
C345 C63 1.867 . S
C385 C106 1.486 . S
C377 C30 1.503 . S
C409 C41 1.284 . S
C417 C146 1.314 . S
C441 C8 1.379 . S
C449 C177 1.355 . S
C473 C19 1.822 . S
C481 C226 1.786 . S
C513 C107 1.144 . S
C505 C62 1.140 . S
C545 C147 1.354 . S
C537 C73 1.331 . S
C577 C183 0.885 . S
C569 C84 0.874 . S
C601 C51 1.211 . S
C609 C227 1.274 . S
C633 C18 1.059 . S
C641 C98 1.144 . S
C673 C138 1.351 . S
C665 C29 1.252 . S
C705 C174 0.880 . S
C697 C40 0.824 . S
C729 C7 1.225 . S
C737 C218 1.274 . S
C761 C60 1.460 . S
C769 C103 1.697 . S
C793 C71 1.207 . S
C801 C143 1.463 . S
C833 C187 2.002 . S
C825 C82 1.703 . S
C865 C223 1.408 . S
C857 C49 1.214 . S
C889 C16 1.363 . S
C897 C94 1.695 . S
C929 C134 1.452 . S
C921 C27 1.217 . S
C961 C178 1.998 . S
C953 C38 1.579 . S
C985 C5 1.344 . S
C993 C214 1.416 . S
