# Generated by pormake.
# Topology ocu, (6,8)-cn, num edge types: 1
# Building blocks:
#     Node 0, Type 0, BuildingBlock: VOLQOD_clean_sbu_1, # of connection points: 6
#     Node 1, Type 0, BuildingBlock: VOLQOD_clean_sbu_1, # of connection points: 6
#     Node 2, Type 0, BuildingBlock: VOLQOD_clean_sbu_1, # of connection points: 6
#     Node 3, Type 0, BuildingBlock: VOLQOD_clean_sbu_1, # of connection points: 6
#     Node 4, Type 0, BuildingBlock: VOLQOD_clean_sbu_1, # of connection points: 6
#     Node 5, Type 0, BuildingBlock: VOLQOD_clean_sbu_1, # of connection points: 6
#     Node 6, Type 0, BuildingBlock: VOLQOD_clean_sbu_1, # of connection points: 6
#     Node 7, Type 0, BuildingBlock: VOLQOD_clean_sbu_1, # of connection points: 6
#     Node 8, Type 1, BuildingBlock: AJUNOK_clean_sbu_0, # of connection points: 8
#     Node 9, Type 1, BuildingBlock: AJUNOK_clean_sbu_0, # of connection points: 8
#     Node 10, Type 1, BuildingBlock: AJUNOK_clean_sbu_0, # of connection points: 8
#     Node 11, Type 1, BuildingBlock: AJUNOK_clean_sbu_0, # of connection points: 8
#     Node 12, Type 1, BuildingBlock: AJUNOK_clean_sbu_0, # of connection points: 8
#     Node 13, Type 1, BuildingBlock: AJUNOK_clean_sbu_0, # of connection points: 8
#     Edge 14, Type (0, 1), BuildingBlock: XIVTED_clean_linker_0, # of connection points: 2
#     Edge 15, Type (0, 1), BuildingBlock: XIVTED_clean_linker_0, # of connection points: 2
#     Edge 16, Type (0, 1), BuildingBlock: XIVTED_clean_linker_0, # of connection points: 2
#     Edge 17, Type (0, 1), BuildingBlock: XIVTED_clean_linker_0, # of connection points: 2
#     Edge 18, Type (0, 1), BuildingBlock: XIVTED_clean_linker_0, # of connection points: 2
#     Edge 19, Type (0, 1), BuildingBlock: XIVTED_clean_linker_0, # of connection points: 2
#     Edge 20, Type (0, 1), BuildingBlock: XIVTED_clean_linker_0, # of connection points: 2
#     Edge 21, Type (0, 1), BuildingBlock: XIVTED_clean_linker_0, # of connection points: 2
#     Edge 22, Type (0, 1), BuildingBlock: XIVTED_clean_linker_0, # of connection points: 2
#     Edge 23, Type (0, 1), BuildingBlock: XIVTED_clean_linker_0, # of connection points: 2
#     Edge 24, Type (0, 1), BuildingBlock: XIVTED_clean_linker_0, # of connection points: 2
#     Edge 25, Type (0, 1), BuildingBlock: XIVTED_clean_linker_0, # of connection points: 2
#     Edge 26, Type (0, 1), BuildingBlock: XIVTED_clean_linker_0, # of connection points: 2
#     Edge 27, Type (0, 1), BuildingBlock: XIVTED_clean_linker_0, # of connection points: 2
#     Edge 28, Type (0, 1), BuildingBlock: XIVTED_clean_linker_0, # of connection points: 2
#     Edge 29, Type (0, 1), BuildingBlock: XIVTED_clean_linker_0, # of connection points: 2
#     Edge 30, Type (0, 1), BuildingBlock: XIVTED_clean_linker_0, # of connection points: 2
#     Edge 31, Type (0, 1), BuildingBlock: XIVTED_clean_linker_0, # of connection points: 2
#     Edge 32, Type (0, 1), BuildingBlock: XIVTED_clean_linker_0, # of connection points: 2
#     Edge 33, Type (0, 1), BuildingBlock: XIVTED_clean_linker_0, # of connection points: 2
#     Edge 34, Type (0, 1), BuildingBlock: XIVTED_clean_linker_0, # of connection points: 2
#     Edge 35, Type (0, 1), BuildingBlock: XIVTED_clean_linker_0, # of connection points: 2
#     Edge 36, Type (0, 1), BuildingBlock: XIVTED_clean_linker_0, # of connection points: 2
#     Edge 37, Type (0, 1), BuildingBlock: XIVTED_clean_linker_0, # of connection points: 2
#     Edge 38, Type (0, 1), BuildingBlock: XIVTED_clean_linker_0, # of connection points: 2
#     Edge 39, Type (0, 1), BuildingBlock: XIVTED_clean_linker_0, # of connection points: 2
#     Edge 40, Type (0, 1), BuildingBlock: XIVTED_clean_linker_0, # of connection points: 2
#     Edge 41, Type (0, 1), BuildingBlock: XIVTED_clean_linker_0, # of connection points: 2
#     Edge 42, Type (0, 1), BuildingBlock: XIVTED_clean_linker_0, # of connection points: 2
#     Edge 43, Type (0, 1), BuildingBlock: XIVTED_clean_linker_0, # of connection points: 2
#     Edge 44, Type (0, 1), BuildingBlock: XIVTED_clean_linker_0, # of connection points: 2
#     Edge 45, Type (0, 1), BuildingBlock: XIVTED_clean_linker_0, # of connection points: 2
#     Edge 46, Type (0, 1), BuildingBlock: XIVTED_clean_linker_0, # of connection points: 2
#     Edge 47, Type (0, 1), BuildingBlock: XIVTED_clean_linker_0, # of connection points: 2
#     Edge 48, Type (0, 1), BuildingBlock: XIVTED_clean_linker_0, # of connection points: 2
#     Edge 49, Type (0, 1), BuildingBlock: XIVTED_clean_linker_0, # of connection points: 2
#     Edge 50, Type (0, 1), BuildingBlock: XIVTED_clean_linker_0, # of connection points: 2
#     Edge 51, Type (0, 1), BuildingBlock: XIVTED_clean_linker_0, # of connection points: 2
#     Edge 52, Type (0, 1), BuildingBlock: XIVTED_clean_linker_0, # of connection points: 2
#     Edge 53, Type (0, 1), BuildingBlock: XIVTED_clean_linker_0, # of connection points: 2
#     Edge 54, Type (0, 1), BuildingBlock: XIVTED_clean_linker_0, # of connection points: 2
#     Edge 55, Type (0, 1), BuildingBlock: XIVTED_clean_linker_0, # of connection points: 2
#     Edge 56, Type (0, 1), BuildingBlock: XIVTED_clean_linker_0, # of connection points: 2
#     Edge 57, Type (0, 1), BuildingBlock: XIVTED_clean_linker_0, # of connection points: 2
#     Edge 58, Type (0, 1), BuildingBlock: XIVTED_clean_linker_0, # of connection points: 2
#     Edge 59, Type (0, 1), BuildingBlock: XIVTED_clean_linker_0, # of connection points: 2
#     Edge 60, Type (0, 1), BuildingBlock: XIVTED_clean_linker_0, # of connection points: 2
#     Edge 61, Type (0, 1), BuildingBlock: XIVTED_clean_linker_0, # of connection points: 2
# Relax obj value: 0.275
# Max RMSD: 0.363
# Mean RMSD: 0.269
data_MOF--net-ocu--node1-VOLQOD_clean_sbu_1--node2-AJUNOK_clean_sbu_0--edge1-XIVTED_clean_linker_0
_symmetry_space_group_name_H-M    P1
_symmetry_Int_Tables_number       1
_symmetry_cell_setting            triclinic
loop_
_symmetry_equiv_pos_as_xyz
'x, y, z'
_cell_length_a     42.527654
_cell_length_b     42.596008
_cell_length_c     35.489391
_cell_angle_alpha  97.004536
_cell_angle_beta   96.867077
_cell_angle_gamma 100.71183
loop_
_atom_site_label
_atom_site_type_symbol
_atom_site_fract_x
_atom_site_fract_y
_atom_site_fract_z
_atom_type_partial_charge
O0 O 0.30094 0.29951 0.29157 0.0
Zn1 Zn 0.26427 0.26306 0.29753 0.0
O2 O 0.24082 0.24145 0.24621 0.0
Zn3 Zn 0.19587 0.24477 0.24117 0.0
Zn4 Zn 0.25978 0.2604 0.20522 0.0
Zn5 Zn 0.24231 0.19614 0.23851 0.0
O6 O 0.16648 0.20219 0.24064 0.0
O7 O 0.19968 0.16784 0.24109 0.0
O8 O 0.23393 0.28278 0.32951 0.0
O9 O 0.18879 0.27227 0.28748 0.0
O10 O 0.18231 0.26461 0.19489 0.0
O11 O 0.22876 0.27996 0.17326 0.0
O12 O 0.27594 0.22863 0.16953 0.0
O13 O 0.28508 0.2314 0.3258 0.0
O14 O 0.25809 0.1821 0.18936 0.0
O15 O 0.27312 0.18813 0.28081 0.0
C16 C 0.31031 0.30873 0.2612 0.0
C17 C 0.17152 0.17379 0.24165 0.0
C18 C 0.19852 0.27867 0.1716 0.0
C19 C 0.2045 0.28481 0.32032 0.0
C20 C 0.27218 0.19804 0.1659 0.0
C21 C 0.28748 0.20264 0.31352 0.0
O22 O 0.29656 0.29545 0.22785 0.0
O23 O 0.75118 0.19007 0.2013 0.0
Zn24 Zn 0.77506 0.2227 0.24715 0.0
O25 O 0.74742 0.25036 0.26861 0.0
Zn26 Zn 0.76234 0.29492 0.26257 0.0
Zn27 Zn 0.70418 0.23715 0.24142 0.0
Zn28 Zn 0.747 0.24803 0.32286 0.0
O29 O 0.7663 0.32489 0.31158 0.0
O30 O 0.76376 0.29147 0.3549 0.0
O31 O 0.81326 0.2498 0.23026 0.0
O32 O 0.80654 0.29966 0.24869 0.0
O33 O 0.73472 0.30919 0.22016 0.0
O34 O 0.69108 0.27013 0.21194 0.0
O35 O 0.67181 0.22408 0.27561 0.0
O36 O 0.79357 0.19988 0.28812 0.0
O37 O 0.70204 0.23207 0.33279 0.0
O38 O 0.77491 0.21786 0.34084 0.0
C39 C 0.72161 0.18532 0.1865 0.0
C40 C 0.76866 0.31997 0.34636 0.0
C41 C 0.7062 0.29639 0.20366 0.0
C42 C 0.82324 0.28028 0.2353 0.0
C43 C 0.67468 0.22359 0.31158 0.0
C44 C 0.79191 0.2006 0.32382 0.0
O45 O 0.70202 0.20103 0.20034 0.0
O46 O 0.70844 0.69374 0.27544 0.0
Zn47 Zn 0.74342 0.733 0.29385 0.0
O48 O 0.75814 0.75106 0.24865 0.0
Zn49 Zn 0.80327 0.74966 0.24835 0.0
Zn50 Zn 0.73443 0.7288 0.19968 0.0
Zn51 Zn 0.75266 0.79493 0.25206 0.0
O52 O 0.83041 0.7934 0.2647 0.0
O53 O 0.79438 0.82476 0.26643 0.0
O54 O 0.77998 0.71883 0.32594 0.0
O55 O 0.81846 0.72475 0.28875 0.0
O56 O 0.81247 0.73001 0.19767 0.0
O57 O 0.76331 0.71052 0.16541 0.0
O58 O 0.71007 0.75691 0.1694 0.0
O59 O 0.72425 0.76464 0.32754 0.0
O60 O 0.73037 0.80481 0.20415 0.0
O61 O 0.72824 0.80602 0.29474 0.0
C62 C 0.69587 0.68069 0.24152 0.0
C63 C 0.82334 0.82098 0.27203 0.0
C64 C 0.79392 0.71414 0.16796 0.0
C65 C 0.80805 0.71584 0.31872 0.0
C66 C 0.71322 0.78753 0.17445 0.0
C67 C 0.71959 0.79275 0.32309 0.0
O68 O 0.70382 0.69208 0.21172 0.0
O69 O 0.30195 0.73713 0.31035 0.0
Zn70 Zn 0.26707 0.7145 0.26654 0.0
O71 O 0.241 0.74349 0.24564 0.0
Zn72 Zn 0.19606 0.72991 0.25129 0.0
Zn73 Zn 0.25577 0.78632 0.27385 0.0
Zn74 Zn 0.24409 0.74395 0.19143 0.0
O75 O 0.16671 0.72618 0.20186 0.0
O76 O 0.20059 0.72948 0.15894 0.0
O77 O 0.23899 0.67848 0.28569 0.0
O78 O 0.18963 0.68612 0.26634 0.0
O79 O 0.18222 0.75869 0.29299 0.0
O80 O 0.22292 0.80093 0.30296 0.0
O81 O 0.27069 0.81844 0.24 0.0
O82 O 0.28705 0.69326 0.22485 0.0
O83 O 0.26255 0.78848 0.18252 0.0
O84 O 0.27194 0.71371 0.17252 0.0
C85 C 0.30742 0.76631 0.32663 0.0
C86 C 0.17195 0.72463 0.16719 0.0
C87 C 0.19572 0.78684 0.31008 0.0
C88 C 0.20839 0.66936 0.28086 0.0
C89 C 0.2718 0.8156 0.20411 0.0
C90 C 0.28692 0.69485 0.18925 0.0
O91 O 0.29173 0.78663 0.3147 0.0
O92 O 0.25264 0.68478 0.70053 0.0
Zn93 Zn 0.27572 0.71961 0.74419 0.0
O94 O 0.24719 0.74695 0.76384 0.0
Zn95 Zn 0.26287 0.79182 0.75956 0.0
Zn96 Zn 0.20473 0.73369 0.73409 0.0
Zn97 Zn 0.2449 0.74376 0.81761 0.0
O98 O 0.26698 0.82084 0.80951 0.0
O99 O 0.26276 0.78615 0.8513 0.0
O100 O 0.31394 0.74647 0.72736 0.0
O101 O 0.30725 0.79631 0.74604 0.0
O102 O 0.23584 0.80765 0.71795 0.0
O103 O 0.19383 0.76672 0.70285 0.0
O104 O 0.17052 0.72261 0.76718 0.0
O105 O 0.29387 0.69786 0.78603 0.0
O106 O 0.19919 0.7298 0.82529 0.0
O107 O 0.27058 0.71222 0.8364 0.0
C108 C 0.22332 0.67906 0.68464 0.0
C109 C 0.26866 0.81494 0.84391 0.0
C110 C 0.20862 0.79439 0.69811 0.0
C111 C 0.32403 0.77694 0.73275 0.0
C112 C 0.17225 0.7224 0.80319 0.0
C113 C 0.28957 0.69665 0.82073 0.0
O114 O 0.20326 0.69556 0.6957 0.0
O115 O 0.19518 0.18417 0.78641 0.0
Zn116 Zn 0.22922 0.22446 0.80123 0.0
O117 O 0.24372 0.23848 0.75374 0.0
Zn118 Zn 0.28858 0.23705 0.75397 0.0
Zn119 Zn 0.22006 0.2139 0.70641 0.0
Zn120 Zn 0.23812 0.28173 0.75293 0.0
O121 O 0.31528 0.28105 0.76492 0.0
O122 O 0.27929 0.31174 0.77442 0.0
O123 O 0.26549 0.21205 0.83518 0.0
O124 O 0.30414 0.21581 0.79791 0.0
O125 O 0.29764 0.21367 0.70534 0.0
O126 O 0.24858 0.19226 0.67389 0.0
O127 O 0.19686 0.24089 0.67322 0.0
O128 O 0.2081 0.2576 0.83045 0.0
O129 O 0.22104 0.29033 0.7011 0.0
O130 O 0.2067 0.29121 0.78739 0.0
C131 C 0.18153 0.17012 0.75331 0.0
C132 C 0.30836 0.30807 0.7762 0.0
C133 C 0.27924 0.19588 0.67675 0.0
C134 C 0.29356 0.20862 0.8285 0.0
C135 C 0.20234 0.2714 0.67361 0.0
C136 C 0.19851 0.28159 0.818 0.0
O137 O 0.18878 0.17988 0.72232 0.0
O138 O 0.79173 0.24609 0.81105 0.0
Zn139 Zn 0.76086 0.22194 0.76412 0.0
O140 O 0.73386 0.24938 0.74189 0.0
Zn141 Zn 0.68902 0.23605 0.74827 0.0
Zn142 Zn 0.74867 0.29278 0.76709 0.0
Zn143 Zn 0.73627 0.24839 0.68785 0.0
O144 O 0.65934 0.23091 0.69818 0.0
O145 O 0.69407 0.2262 0.6568 0.0
O146 O 0.73303 0.1829 0.77811 0.0
O147 O 0.68352 0.19188 0.76256 0.0
O148 O 0.67609 0.26507 0.7914 0.0
O149 O 0.71874 0.30535 0.80134 0.0
O150 O 0.75536 0.32455 0.73073 0.0
O151 O 0.78695 0.20594 0.72516 0.0
O152 O 0.74563 0.29284 0.67452 0.0
O153 O 0.77121 0.22569 0.67243 0.0
C154 C 0.80081 0.27649 0.82097 0.0
C155 C 0.66521 0.2236 0.66413 0.0
C156 C 0.69168 0.29223 0.80962 0.0
C157 C 0.7024 0.17398 0.77407 0.0
C158 C 0.75271 0.3208 0.69433 0.0
C159 C 0.78884 0.2096 0.69036 0.0
O160 O 0.78829 0.29654 0.80358 0.0
O161 O 0.79628 0.80678 0.78316 0.0
Zn162 Zn 0.76467 0.7709 0.79988 0.0
O163 O 0.73623 0.74447 0.75472 0.0
Zn164 Zn 0.69355 0.75379 0.75224 0.0
Zn165 Zn 0.75077 0.75366 0.70706 0.0
Zn166 Zn 0.7344 0.69943 0.75716 0.0
O167 O 0.65972 0.71333 0.74568 0.0
O168 O 0.68872 0.67553 0.75234 0.0
O169 O 0.73793 0.79146 0.83595 0.0
O170 O 0.68876 0.77783 0.80201 0.0
O171 O 0.68477 0.77983 0.7101 0.0
O172 O 0.71671 0.76444 0.66939 0.0
O173 O 0.76981 0.71839 0.68166 0.0
O174 O 0.78784 0.74267 0.83094 0.0
O175 O 0.75677 0.67953 0.71672 0.0
O176 O 0.75795 0.69403 0.8074 0.0
C177 C 0.79977 0.81247 0.74929 0.0
C178 C 0.66157 0.68411 0.74775 0.0
C179 C 0.69417 0.77879 0.67734 0.0
C180 C 0.70769 0.79114 0.83254 0.0
C181 C 0.76992 0.68993 0.68904 0.0
C182 C 0.77978 0.71247 0.83227 0.0
O183 O 0.784 0.79394 0.71957 0.0
Cd184 Cd 0.9812 0.98171 0.56678 0.0
Cd185 Cd 0.02117 0.00758 0.45703 0.0
C186 C 0.04315 0.95602 0.59794 0.0
N187 N 0.01896 0.94892 0.56769 0.0
C188 C 0.04152 0.90594 0.53961 0.0
C189 C 0.06761 0.91379 0.56963 0.0
C190 C 0.06804 0.93899 0.59925 0.0
C191 C 0.01754 0.92432 0.53891 0.0
H192 H 0.04327 0.97513 0.62102 0.0
H193 H -0.00201 0.91912 0.51535 0.0
C194 C 0.9624 0.95987 0.468 0.0
C195 C 0.95474 0.03017 0.43316 0.0
C196 C 0.93241 0.05012 0.43063 0.0
C197 C 0.93828 0.07949 0.45522 0.0
C198 C 0.96575 0.08759 0.48328 0.0
C199 C -0.01293 0.0663 0.48565 0.0
N200 N 0.9814 0.03843 0.4604 0.0
H201 H 0.9515 0.00897 0.41195 0.0
H202 H 0.00892 0.07277 0.50629 0.0
C203 C 0.03754 0.9379 0.44368 0.0
N204 N 0.04886 0.9666 0.46681 0.0
C205 C 0.09526 0.94804 0.4931 0.0
C206 C 0.08463 0.91851 0.46848 0.0
C207 C 0.05496 0.91339 0.44422 0.0
C208 C 0.0769 0.97198 0.49168 0.0
H209 H 0.01579 0.93451 0.42329 0.0
H210 H 0.08574 -0.00473 0.50921 0.0
C211 C 0.04645 0.03097 0.56145 0.0
C212 C 0.94119 0.95369 0.61642 0.0
N213 N 0.95935 0.02711 0.56161 0.0
C214 C 0.97163 0.05534 0.58549 0.0
C215 C 0.95459 0.08031 0.58668 0.0
C216 C 0.92438 0.07573 0.56378 0.0
C217 C 0.91331 0.04714 0.53768 0.0
C218 C 0.93133 0.02295 0.53711 0.0
C219 C 0.05276 0.03714 0.40097 0.0
O220 O 0.97829 0.97386 0.49966 0.0
O221 O 0.97366 0.96596 0.4377 0.0
O222 O 0.03765 0.02286 0.52567 0.0
O223 O 0.02906 0.02026 0.58557 0.0
O224 O 0.93309 0.94768 0.58013 0.0
O225 O 0.96827 0.97236 0.62942 0.0
O226 O 0.0568 0.05074 0.43558 0.0
O227 O 0.03494 0.00914 0.39274 0.0
H228 H -0.0065 0.05784 0.60547 0.0
H229 H 0.92202 6e-05 0.5189 0.0
H230 H 0.04003 0.88631 0.51658 0.0
H231 H 0.08704 0.94506 0.6237 0.0
H232 H 0.91194 0.04379 0.40787 0.0
H233 H 0.97119 0.11053 0.50207 0.0
H234 H 0.11798 0.95296 0.51225 0.0
H235 H 0.0462 0.89146 0.42393 0.0
H236 H 0.96359 0.10176 0.60772 0.0
H237 H 0.89006 0.04278 0.51964 0.0
Cd238 Cd 0.47849 -0.00898 0.05587 0.0
Cd239 Cd 0.52101 0.00697 0.95114 0.0
C240 C 0.54208 0.96825 0.0919 0.0
N241 N 0.5155 0.95717 0.06509 0.0
C242 C 0.53213 0.9068 0.05103 0.0
C243 C 0.56039 0.918 0.07803 0.0
C244 C 0.56535 0.94969 0.09769 0.0
C245 C 0.51019 0.92707 0.04461 0.0
H246 H 0.54548 -0.00841 0.10913 0.0
H247 H 0.48868 0.9186 0.0237 0.0
C248 C 0.45923 0.96275 0.95529 0.0
C249 C 0.45931 0.03541 0.91987 0.0
C250 C 0.43639 0.05491 0.91795 0.0
C251 C 0.44077 0.08315 0.94446 0.0
C252 C 0.46832 0.09109 0.97249 0.0
C253 C 0.49024 0.07035 0.97401 0.0
N254 N 0.48527 0.04297 0.94809 0.0
H255 H 0.45641 0.01432 0.89857 0.0
H256 H 0.51121 0.07618 0.99585 0.0
C257 C 0.5322 0.93388 0.94484 0.0
N258 N 0.54286 0.96324 0.96682 0.0
C259 C 0.58859 0.94576 0.99691 0.0
C260 C 0.57935 0.91594 0.97269 0.0
C261 C 0.54999 0.9097 0.94756 0.0
C262 C 0.56996 0.96928 0.99326 0.0
H263 H 0.51126 0.92988 0.92309 0.0
H264 H 0.57831 -0.00692 0.00963 0.0
C265 C 0.54032 0.03795 0.05205 0.0
C266 C 0.4292 0.96078 0.09274 0.0
N267 N 0.4518 0.0318 0.04134 0.0
C268 C 0.46037 0.06207 0.06154 0.0
C269 C 0.43929 0.08348 0.05881 0.0
C270 C 0.40904 0.07337 0.03549 0.0
C271 C 0.40191 0.04274 0.01307 0.0
C272 C 0.42364 0.02217 0.01674 0.0
C273 C 0.56734 0.03041 0.90595 0.0
O274 O 0.4755 0.9764 0.98725 0.0
O275 O 0.47204 0.96709 0.92541 0.0
O276 O 0.52586 0.02342 0.01964 0.0
O277 O 0.52601 0.03389 0.08096 0.0
O278 O 0.43115 0.95239 0.05772 0.0
O279 O 0.45153 0.98311 0.11182 0.0
O280 O 0.57152 0.03913 0.94201 0.0
O281 O 0.54085 0.01162 0.89084 0.0
H282 H 0.48245 0.06889 0.08175 0.0
H283 H 0.41697 -0.00234 0.0021 0.0
H284 H 0.52653 0.88261 0.03527 0.0
H285 H 0.58694 0.96054 0.1177 0.0
H286 H 0.41595 0.04846 0.89518 0.0
H287 H 0.47266 0.11289 0.99318 0.0
H288 H 0.61084 0.95149 0.01697 0.0
H289 H 0.54215 0.8874 0.92772 0.0
H290 H 0.44556 0.10666 0.07711 0.0
H291 H 0.37892 0.03404 0.99468 0.0
Cd292 Cd 0.97806 0.47285 0.05722 0.0
Cd293 Cd 0.00194 0.51868 0.95566 0.0
C294 C 0.05095 0.46193 0.07341 0.0
N295 N 0.02367 0.45248 0.0473 0.0
C296 C 0.04398 0.40855 0.01768 0.0
C297 C 0.07156 0.41648 0.04574 0.0
C298 C 0.07549 0.44432 0.07295 0.0
C299 C 0.02006 0.42684 0.01923 0.0
H300 H 0.05273 0.48166 0.09629 0.0
H301 H -0.00225 0.41938 -0.00047 0.0
C302 C 0.95509 0.45571 0.95479 0.0
C303 C 0.92999 0.5337 0.93986 0.0
C304 C 0.90709 0.55329 0.93936 0.0
C305 C 0.91389 0.58333 0.96325 0.0
C306 C 0.94307 0.59208 0.98865 0.0
C307 C 0.96519 0.57167 0.98831 0.0
N308 N 0.95855 0.54344 0.96371 0.0
H309 H 0.9257 0.51173 0.9196 0.0
H310 H -0.01148 0.57927 0.006 0.0
C311 C 0.02972 0.46398 0.91074 0.0
N312 N 0.03622 0.48269 0.94564 0.0
C313 C 0.08098 0.45816 0.9638 0.0
C314 C 0.07466 0.43856 0.92783 0.0
C315 C 0.04842 0.44149 0.90139 0.0
C316 C 0.06127 0.48033 0.97217 0.0
H317 H 0.01003 0.46671 0.88995 0.0
H318 H 0.06603 0.49572 -0.00033 0.0
C319 C 0.02217 0.5357 0.05719 0.0
C320 C 0.95253 0.42481 0.09889 0.0
N321 N 0.94199 0.508 0.0589 0.0
C322 C 0.94701 0.53137 0.08991 0.0
C323 C 0.92919 0.55567 0.09062 0.0
C324 C 0.90528 0.55542 0.05961 0.0
C325 C 0.89902 0.52982 0.02916 0.0
C326 C 0.91818 0.50648 0.02911 0.0
C327 C 0.03185 0.56936 0.92063 0.0
O328 O 0.96793 0.46966 0.98803 0.0
O329 O 0.96184 0.46997 0.92659 0.0
O330 O 0.01108 0.5195 0.02445 0.0
O331 O 0.01599 0.52245 0.08628 0.0
O332 O 0.94454 0.42179 0.06275 0.0
O333 O 0.97103 0.451 0.11547 0.0
O334 O 0.03962 0.56784 0.95592 0.0
O335 O 0.01107 0.54601 0.9009 0.0
H336 H 0.96544 0.53162 0.11377 0.0
H337 H 0.91459 0.48772 0.00488 0.0
H338 H 0.04013 0.38746 0.996 0.0
H339 H 0.09598 0.45094 0.09563 0.0
H340 H 0.88522 0.54589 0.91872 0.0
H341 H 0.94929 0.615 0.00747 0.0
H342 H 0.10116 0.45676 0.98481 0.0
H343 H 0.04254 0.42667 0.87345 0.0
H344 H 0.93407 0.5745 0.11523 0.0
H345 H 0.88043 0.52857 0.00503 0.0
Cd346 Cd 0.47382 0.45948 0.05629 0.0
Cd347 Cd 0.52212 0.51757 0.96693 0.0
C348 C 0.54426 0.44788 0.07505 0.0
N349 N 0.51731 0.43532 0.04924 0.0
C350 C 0.54136 0.39256 0.02381 0.0
C351 C 0.56935 0.40468 0.05081 0.0
C352 C 0.57067 0.433 0.07627 0.0
C353 C 0.51541 0.40844 0.02349 0.0
H354 H 0.54479 0.46873 0.0959 0.0
H355 H 0.49335 0.39865 0.00382 0.0
C356 C 0.47379 0.45365 0.9581 0.0
C357 C 0.44988 0.52857 0.9447 0.0
C358 C 0.4254 0.54608 0.94134 0.0
C359 C 0.42966 0.57641 0.96368 0.0
C360 C 0.45745 0.58764 0.99087 0.0
C361 C 0.48104 0.56893 0.99397 0.0
N362 N 0.4771 0.54033 0.9705 0.0
H363 H 0.44774 0.50652 0.92522 0.0
H364 H 0.50348 0.57825 0.01314 0.0
C365 C 0.55375 0.46106 0.9381 0.0
N366 N 0.55753 0.48236 0.97085 0.0
C367 C 0.5997 0.45889 -0.00063 0.0
C368 C 0.59408 0.43506 0.96694 0.0
C369 C 0.57123 0.43673 0.93586 0.0
C370 C 0.58036 0.48221 0.00114 0.0
H371 H 0.53697 0.46285 0.91349 0.0
H372 H 0.58353 0.50003 0.02649 0.0
C373 C 0.52652 0.52944 0.07397 0.0
C374 C 0.44724 0.42023 0.10693 0.0
N375 N 0.43531 0.49077 0.05569 0.0
C376 C 0.42902 0.49998 0.09148 0.0
C377 C 0.40682 0.51957 0.0969 0.0
C378 C 0.39114 0.53001 0.06515 0.0
C379 C 0.39799 0.52025 0.02836 0.0
C380 C 0.42022 0.50006 0.0242 0.0
C381 C 0.54779 0.55451 0.91286 0.0
O382 O 0.48019 0.46587 0.99289 0.0
O383 O 0.48581 0.46979 0.934 0.0
O384 O 0.52785 0.52838 0.0381 0.0
O385 O 0.50767 0.50813 0.08722 0.0
O386 O 0.43409 0.41617 0.07191 0.0
O387 O 0.4733 0.44118 0.11706 0.0
O388 O 0.55595 0.56496 0.94854 0.0
O389 O 0.52877 0.52734 0.90347 0.0
H390 H 0.44155 0.49222 0.1159 0.0
H391 H 0.42543 0.49184 0.9961 0.0
H392 H 0.53911 0.37056 0.00405 0.0
H393 H 0.59122 0.44273 0.09836 0.0
H394 H 0.40456 0.53723 0.91936 0.0
H395 H 0.46168 0.61137 0.0078 0.0
H396 H 0.61811 0.459 0.0232 0.0
H397 H 0.56728 0.4196 0.90969 0.0
H398 H 0.40237 0.52698 0.12575 0.0
H399 H 0.38605 0.52779 0.00335 0.0
Cd400 Cd 0.97804 0.47087 0.56417 0.0
Cd401 Cd 0.02155 0.51873 0.47211 0.0
C402 C 0.03669 0.43624 0.58853 0.0
N403 N 0.01074 0.4321 0.56069 0.0
C404 C 0.02492 0.38449 0.52977 0.0
C405 C 0.05275 0.38956 0.55704 0.0
C406 C 0.05838 0.41558 0.58681 0.0
C407 C 0.00422 0.40653 0.53189 0.0
H408 H 0.04072 0.45551 0.61234 0.0
H409 H 0.98322 0.40345 0.51036 0.0
C410 C 0.9579 0.47148 0.46358 0.0
C411 C 0.96106 0.55432 0.48154 0.0
C412 C 0.94268 0.57791 0.47727 0.0
C413 C 0.9579 0.60932 0.4734 0.0
C414 C -0.00805 0.61674 0.4779 0.0
C415 C 0.00942 0.59224 0.48197 0.0
N416 N -0.00633 0.56142 0.48217 0.0
H417 H 0.9488 0.52993 0.48168 0.0
H418 H 0.03535 0.59747 0.4825 0.0
C419 C 0.02994 0.44389 0.46124 0.0
N420 N 0.04655 0.47436 0.47497 0.0
C421 C 0.09673 0.45631 0.4786 0.0
C422 C 0.08032 0.42498 0.46202 0.0
C423 C 0.04631 0.4187 0.45543 0.0
C424 C 0.07923 0.4807 0.48506 0.0
H425 H 0.00414 0.4391 0.45283 0.0
H426 H 0.09197 0.50518 0.49572 0.0
C427 C 0.04105 0.51829 0.57261 0.0
C428 C 0.92471 0.44052 0.59395 0.0
N429 N 0.95537 0.51645 0.56353 0.0
C430 C 0.96988 0.54569 0.58407 0.0
C431 C 0.95209 0.56977 0.58998 0.0
C432 C 0.91909 0.56344 0.57505 0.0
C433 C 0.90534 0.53392 0.55176 0.0
C434 C 0.92399 0.5105 0.54665 0.0
C435 C 0.06706 0.54568 0.42819 0.0
O436 O 0.97443 0.47598 0.49662 0.0
O437 O 0.97072 0.48525 0.43784 0.0
O438 O 0.02461 0.5132 0.53952 0.0
O439 O 0.02787 0.50591 0.59903 0.0
O440 O 0.92871 0.43265 0.55949 0.0
O441 O 0.94758 0.46035 0.61586 0.0
O442 O 0.07162 0.55319 0.46449 0.0
O443 O 0.04058 0.52704 0.41275 0.0
H444 H -0.00548 0.5498 0.5981 0.0
H445 H 0.91291 0.48682 0.53115 0.0
H446 H 0.01972 0.36428 0.50672 0.0
H447 H 0.07917 0.41959 0.60897 0.0
H448 H 0.91659 0.57071 0.47387 0.0
H449 H 0.00492 0.64078 0.47608 0.0
H450 H 0.12287 0.46264 0.48405 0.0
H451 H 0.0323 0.3948 0.44406 0.0
H452 H 0.96344 0.59233 0.60813 0.0
H453 H 0.87985 0.52802 0.5402 0.0
Cd454 Cd 0.47719 0.96625 0.55451 0.0
Cd455 Cd 0.50928 0.0069 0.45324 0.0
C456 C 0.55094 0.95759 0.57033 0.0
N457 N 0.5233 0.9463 0.54521 0.0
C458 C 0.54551 0.90344 0.51617 0.0
C459 C 0.57377 0.91341 0.54307 0.0
C460 C 0.5766 0.9415 0.56973 0.0
C461 C 0.5203 0.92 0.51819 0.0
H462 H 0.55236 0.97782 0.59245 0.0
H463 H 0.49769 0.91073 0.49954 0.0
C464 C 0.46193 0.9444 0.45131 0.0
C465 C 0.43459 0.01617 0.44369 0.0
C466 C 0.41026 0.03381 0.43981 0.0
C467 C 0.41763 0.06742 0.45126 0.0
C468 C 0.44859 0.08181 0.47087 0.0
C469 C 0.47214 0.06305 0.47484 0.0
N470 N 0.46509 0.03117 0.4599 0.0
H471 H 0.42928 -0.009 0.43158 0.0
H472 H 0.49672 0.07449 0.48702 0.0
C473 C 0.54 0.94625 0.42325 0.0
N474 N 0.5461 0.97198 0.45171 0.0
C475 C 0.59562 0.95764 0.47639 0.0
C476 C 0.58928 0.9304 0.44789 0.0
C477 C 0.56099 0.92481 0.42123 0.0
C478 C 0.57331 0.97801 0.4781 0.0
H479 H 0.51912 0.94252 0.40149 0.0
H480 H 0.5778 -0.00123 0.50027 0.0
C481 C 0.52153 0.02891 0.554 0.0
C482 C 0.45494 0.91962 0.59939 0.0
N483 N 0.43912 -0.00034 0.5554 0.0
C484 C 0.44392 0.02277 0.58667 0.0
C485 C 0.4246 0.04575 0.58885 0.0
C486 C 0.39932 0.04451 0.55911 0.0
C487 C 0.39363 0.01938 0.52802 0.0
C488 C 0.41421 -0.00283 0.52656 0.0
C489 C 0.54025 0.05713 0.41862 0.0
O490 O 0.47107 0.96018 0.48469 0.0
O491 O 0.47104 0.95775 0.42331 0.0
O492 O 0.51329 0.01097 0.52188 0.0
O493 O 0.51343 0.01703 0.58325 0.0
O494 O 0.44479 0.91587 0.56363 0.0
O495 O 0.4741 0.94593 0.61421 0.0
O496 O 0.54813 0.05489 0.45365 0.0
O497 O 0.51895 0.03437 0.39859 0.0
H498 H 0.46301 0.02358 0.60998 0.0
H499 H 0.41053 0.97821 0.5023 0.0
H500 H 0.54227 0.88227 0.49474 0.0
H501 H 0.59741 0.94981 0.59178 0.0
H502 H 0.38645 0.02158 0.42539 0.0
H503 H 0.45546 0.10766 0.47989 0.0
H504 H 0.61734 0.96286 0.4973 0.0
H505 H 0.55572 0.90465 0.3981 0.0
H506 H 0.42916 0.06413 0.6139 0.0
H507 H 0.37401 0.01739 0.50485 0.0
H508 H 0.11376 0.18181 0.26352 0.0
H509 H 0.0708 0.01098 0.3346 0.0
H510 H 0.17093 0.10929 0.24242 0.0
H511 H 0.06473 0.10159 0.39954 0.0
H512 H 0.09344 0.04074 0.28536 0.0
H513 H 0.0792 0.14484 0.29589 0.0
C514 C 0.11857 0.15782 0.26469 0.0
C515 C 0.14578 0.14889 0.25106 0.0
C516 C 0.08684 0.05387 0.31031 0.0
C517 C 0.10632 0.10674 0.28802 0.0
C518 C 0.0741 0.03706 0.33831 0.0
C519 C 0.06642 0.05405 0.37121 0.0
C520 C 0.0908 0.08761 0.315 0.0
C521 C 0.07088 0.08773 0.37481 0.0
C522 C 0.09893 0.13687 0.2834 0.0
C523 C 0.15056 0.11735 0.25318 0.0
N524 N 0.08267 0.10344 0.34691 0.0
N525 N 0.13125 0.09745 0.27194 0.0
H526 H 0.78476 0.18163 0.39414 0.0
H527 H 0.95562 0.13036 0.4189 0.0
H528 H 0.84605 0.18054 0.30555 0.0
H529 H 0.87643 0.0808 0.46841 0.0
H530 H 0.91946 0.16202 0.3895 0.0
H531 H 0.82151 0.15537 0.43248 0.0
C532 C 0.80584 0.17581 0.38275 0.0
C533 C 0.81233 0.18312 0.34655 0.0
C534 C 0.91017 0.14467 0.40744 0.0
C535 C 0.85451 0.1542 0.39047 0.0
C536 C 0.93081 0.127 0.42452 0.0
C537 C 0.91882 0.10337 0.4462 0.0
C538 C 0.87747 0.1388 0.41242 0.0
C539 C 0.88639 0.09913 0.45205 0.0
C540 C 0.8267 0.16093 0.4046 0.0
C541 C 0.83997 0.17513 0.33314 0.0
N542 N 0.86663 0.11671 0.4351 0.0
N543 N 0.86019 0.16135 0.35525 0.0
H544 H 0.81765 0.88285 0.29553 0.0
H545 H 0.95158 0.89628 0.47402 0.0
H546 H 0.87887 0.81405 0.31411 0.0
H547 H 0.904 0.97405 0.45044 0.0
H548 H 0.911 0.85926 0.42723 0.0
H549 H 0.84119 0.91324 0.35838 0.0
C550 C 0.83669 0.87463 0.31233 0.0
C551 C 0.84593 0.84558 0.29983 0.0
C552 C 0.90872 0.88423 0.4332 0.0
C553 C 0.87189 0.87945 0.372 0.0
C554 C 0.93142 0.90519 0.46072 0.0
C555 C 0.93144 0.9382 0.46482 0.0
C556 C 0.88668 0.89698 0.40992 0.0
C557 C 0.90489 0.94863 0.4471 0.0
C558 C 0.8495 0.89154 0.34853 0.0
C559 C 0.87081 0.83618 0.32261 0.0
N560 N 0.88406 0.92824 0.41895 0.0
N561 N 0.88262 0.85287 0.35791 0.0
H562 H 0.1391 0.76443 0.33743 0.0
H563 H 0.14994 0.93173 0.46798 0.0
H564 H 0.21996 0.84537 0.35402 0.0
H565 H 0.06837 0.85209 0.45577 0.0
H566 H 0.18086 0.89545 0.43876 0.0
H567 H 0.11652 0.79201 0.38926 0.0
C568 C 0.15208 0.78795 0.35189 0.0
C569 C 0.18115 0.80286 0.34084 0.0
C570 C 0.15636 0.88568 0.44301 0.0
C571 C 0.15581 0.8342 0.40044 0.0
C572 C 0.13877 0.90639 0.46025 0.0
C573 C 0.10611 0.89516 0.46308 0.0
C574 C 0.14103 0.85371 0.42803 0.0
C575 C 0.09312 0.86197 0.45265 0.0
C576 C 0.13935 0.80354 0.3817 0.0
C577 C 0.19722 0.8331 0.36105 0.0
N578 N 0.11034 0.84251 0.43457 0.0
N579 N 0.18422 0.84782 0.3896 0.0
H580 H 0.22785 0.85659 0.6838 0.0
H581 H 0.06105 0.84817 0.55387 0.0
H582 H 0.15548 0.76943 0.64465 0.0
H583 H 0.13275 0.93601 0.59076 0.0
H584 H 0.10131 0.81709 0.57316 0.0
H585 H 0.19907 0.88417 0.6385 0.0
C586 C 0.2061 0.84319 0.6655 0.0
C587 C 0.19357 0.81093 0.66877 0.0
C588 C 0.10845 0.84316 0.57649 0.0
C589 C 0.16069 0.84217 0.61684 0.0
C590 C 0.08548 0.8609 0.56519 0.0
C591 C 0.09331 0.89473 0.57207 0.0
C592 C 0.13924 0.85944 0.59514 0.0
C593 C 0.12543 0.90994 0.58646 0.0
C594 C 0.18976 0.85889 0.63952 0.0
C595 C 0.1656 0.79457 0.64385 0.0
N596 N 0.14708 0.89221 0.59837 0.0
N597 N 0.14991 0.81048 0.61933 0.0
H598 H 0.11714 0.16516 0.74588 0.0
H599 H 0.10199 0.01423 0.58714 0.0
H600 H 0.19156 0.10922 0.74557 0.0
H601 H 0.05665 0.09541 0.57432 0.0
H602 H 0.13376 0.04363 0.64733 0.0
H603 H 0.08625 0.12863 0.69012 0.0
C604 C 0.12597 0.14389 0.73551 0.0
C605 C 0.15734 0.14073 0.74871 0.0
C606 C 0.11756 0.05534 0.63074 0.0
C607 C 0.12351 0.10026 0.68476 0.0
C608 C 0.10027 0.03907 0.59596 0.0
C609 C 0.07665 0.0526 0.57665 0.0
C610 C 0.11065 0.08492 0.6455 0.0
C611 C 0.0747 0.08442 0.58891 0.0
C612 C 0.109 0.12382 0.70287 0.0
C613 C 0.16767 0.1127 0.73502 0.0
N614 N 0.09078 0.09932 0.62349 0.0
N615 N 0.1514 0.09404 0.70235 0.0
H616 H 0.82163 0.22865 0.6323 0.0
H617 H 0.86275 0.05792 0.57696 0.0
H618 H 0.80408 0.152 0.70097 0.0
H619 H 0.9359 0.14226 0.57368 0.0
H620 H 0.82959 0.09271 0.60527 0.0
H621 H 0.85468 0.19766 0.59594 0.0
C622 C 0.82479 0.20538 0.63968 0.0
C623 C 0.81022 0.19274 0.66957 0.0
C624 C 0.85268 0.10357 0.59771 0.0
C625 C 0.84665 0.15731 0.6278 0.0
C626 C 0.87141 0.08386 0.58114 0.0
C627 C 0.90207 0.09731 0.57301 0.0
C628 C 0.86444 0.13698 0.60573 0.0
C629 C 0.9124 0.13107 0.57976 0.0
C630 C 0.84357 0.1879 0.61909 0.0
C631 C 0.81506 0.16263 0.67826 0.0
N632 N 0.89357 0.14993 0.59595 0.0
N633 N 0.83252 0.14572 0.6571 0.0
H634 H 0.86381 0.83768 0.77772 0.0
H635 H 0.87602 0.9341 0.60223 0.0
H636 H 0.78172 0.85434 0.70493 0.0
H637 H 0.95806 0.94196 0.68953 0.0
H638 H 0.84093 0.90823 0.64368 0.0
H639 H 0.89897 0.88005 0.75172 0.0
C640 C 0.85318 0.85098 0.75719 0.0
C641 C 0.82014 0.84245 0.74282 0.0
C642 C 0.86656 0.91581 0.65409 0.0
C643 C 0.85964 0.88995 0.71281 0.0
C644 C 0.88658 0.93035 0.63024 0.0
C645 C 0.9199 0.93966 0.64235 0.0
C646 C 0.88003 0.90981 0.69 0.0
C647 C 0.93239 0.93484 0.67917 0.0
C648 C 0.87314 0.87495 0.74222 0.0
C649 C 0.80728 0.86004 0.71617 0.0
N650 N 0.91247 0.91967 0.70157 0.0
N651 N 0.8271 0.88264 0.70163 0.0
H652 H 0.31623 0.22377 0.12172 0.0
H653 H 0.3459 0.0503 0.04158 0.0
H654 H 0.2609 0.13301 0.14149 0.0
H655 H 0.41371 0.13917 0.04081 0.0
H656 H 0.30708 0.08139 0.06272 0.0
H657 H 0.34476 0.19406 0.07829 0.0
C658 C 0.30971 0.19763 0.11649 0.0
C659 C 0.28649 0.18081 0.13574 0.0
C660 C 0.33024 0.09416 0.05734 0.0
C661 C 0.31896 0.14682 0.08609 0.0
C662 C 0.35236 0.07641 0.04482 0.0
C663 C 0.38334 0.09218 0.03993 0.0
C664 C 0.33913 0.12795 0.06524 0.0
C665 C 0.39035 0.12608 0.04507 0.0
C666 C 0.32606 0.18072 0.09176 0.0
C667 C 0.27896 0.14697 0.12774 0.0
N668 N 0.36857 0.14289 0.05801 0.0
N669 N 0.29535 0.13111 0.10379 0.0
H670 H 0.86677 0.33399 0.2689 0.0
H671 H 0.91975 0.36336 0.07093 0.0
H672 H 0.84698 0.2588 0.17114 0.0
H673 H 0.96031 0.42722 0.17655 0.0
H674 H 0.89846 0.32181 0.10822 0.0
H675 H 0.90797 0.36494 0.23833 0.0
C676 C 0.87176 0.32373 0.24131 0.0
C677 C 0.85326 0.29426 0.22202 0.0
C678 C 0.91243 0.34474 0.12323 0.0
C679 C 0.89942 0.32974 0.1864 0.0
C680 C 0.92428 0.36855 0.10198 0.0
C681 C 0.94112 0.39894 0.12077 0.0
C682 C 0.91713 0.35165 0.16345 0.0
C683 C 0.94694 0.40426 0.16096 0.0
C684 C 0.89523 0.34135 0.22383 0.0
C685 C 0.8607 0.28165 0.18665 0.0
N686 N 0.93452 0.38098 0.181 0.0
N687 N 0.88274 0.29992 0.16938 0.0
H688 H 0.65848 0.76168 0.12154 0.0
H689 H 0.60281 0.92225 0.1447 0.0
H690 H 0.72569 0.8511 0.16731 0.0
H691 H 0.57205 0.86407 0.03293 0.0
H692 H 0.64315 0.89072 0.15758 0.0
H693 H 0.62239 0.79288 0.08998 0.0
C694 C 0.66602 0.78767 0.12416 0.0
C695 C 0.69469 0.80393 0.14792 0.0
C696 C 0.62777 0.88516 0.13 0.0
C697 C 0.65374 0.83923 0.11265 0.0
C698 C 0.6047 0.90349 0.1222 0.0
C699 C 0.58427 0.89708 0.08673 0.0
C700 C 0.62997 0.85918 0.10301 0.0
C701 C 0.5872 0.87044 0.06046 0.0
C702 C 0.64547 0.80535 0.10619 0.0
C703 C 0.7034 0.83761 0.15018 0.0
N704 N 0.6095 0.85223 0.06923 0.0
N705 N 0.68269 0.85417 0.13354 0.0
H706 H 0.17412 0.69732 0.09373 0.0
H707 H 0.00711 0.58534 0.10131 0.0
H708 H 0.10737 0.71837 0.17121 0.0
H709 H 0.07268 0.56284 0.02329 0.0
H710 H 0.03653 0.6413 0.11412 0.0
H711 H 0.13055 0.65733 0.05384 0.0
C712 C 0.15006 0.69435 0.10171 0.0
C713 C 0.1446 0.71024 0.13665 0.0
C714 C 0.0443 0.62438 0.0937 0.0
C715 C 0.09496 0.66421 0.0916 0.0
C716 C 0.02766 0.59243 0.08668 0.0
C717 C 0.03801 0.56972 0.06176 0.0
C718 C 0.07209 0.63336 0.07654 0.0
C719 C 0.06422 0.57992 0.0428 0.0
C720 C 0.12521 0.67132 0.07901 0.0
C721 C 0.11287 0.70583 0.14516 0.0
N722 N 0.08087 0.611 0.05117 0.0
N723 N 0.0894 0.68261 0.1233 0.0
H724 H 0.2728 0.87967 0.84385 0.0
H725 H 0.43304 0.91403 0.9929 0.0
H726 H 0.30018 0.81069 0.9144 0.0
H727 H 0.40879 0.97454 0.90964 0.0
H728 H 0.37689 0.88348 0.98013 0.0
H729 H 0.31287 0.92224 0.88501 0.0
C730 C 0.28667 0.87364 0.86862 0.0
C731 C 0.284 0.8415 0.87499 0.0
C732 C 0.38373 0.9039 0.96529 0.0
C733 C 0.33054 0.88978 0.92139 0.0
C734 C 0.41566 0.92126 0.97261 0.0
C735 C 0.42535 0.94635 0.95183 0.0
C736 C 0.36169 0.91192 0.93702 0.0
C737 C 0.40226 0.95484 0.92563 0.0
C738 C 0.30966 0.89792 0.89205 0.0
C739 C 0.302 0.83512 0.90799 0.0
N740 N 0.37157 0.93748 0.91872 0.0
N741 N 0.32528 0.85893 0.92939 0.0
H742 H 0.19624 0.29397 0.89623 0.0
H743 H 0.09882 0.4322 0.86087 0.0
H744 H 0.15314 0.31034 0.78584 0.0
H745 H 0.09899 0.39444 0.96828 0.0
H746 H 0.12775 0.39168 0.83743 0.0
H747 H 0.16669 0.3324 0.92738 0.0
C748 C 0.18018 0.30515 0.87866 0.0
C749 C 0.17751 0.2995 0.83843 0.0
C750 C 0.12145 0.39204 0.86614 0.0
C751 C 0.14452 0.34327 0.87344 0.0
C752 C 0.10495 0.41525 0.87956 0.0
C753 C 0.09581 0.41619 0.91621 0.0
C754 C 0.12919 0.36943 0.88946 0.0
C755 C 0.1054 0.39428 0.93968 0.0
C756 C 0.16355 0.3271 0.89638 0.0
C757 C 0.15647 0.31451 0.81691 0.0
N758 N 0.12148 0.37147 0.92579 0.0
N759 N 0.14114 0.33583 0.83464 0.0
H760 H 0.64454 0.13547 0.74344 0.0
H761 H 0.62997 0.06075 0.93066 0.0
H762 H 0.72724 0.14257 0.82959 0.0
H763 H 0.56049 0.02674 0.82804 0.0
H764 H 0.66843 0.08593 0.89201 0.0
H765 H 0.61582 0.09036 0.77016 0.0
C766 C 0.6568 0.12709 0.76765 0.0
C767 C 0.68791 0.14307 0.78502 0.0
C768 C 0.64499 0.07246 0.87783 0.0
C769 C 0.65516 0.09202 0.81608 0.0
C770 C 0.62296 0.05835 0.89991 0.0
C771 C 0.59183 0.04239 0.88253 0.0
C772 C 0.63551 0.07108 0.8383 0.0
C773 C 0.58412 0.03934 0.84258 0.0
C774 C 0.64049 0.10126 0.78278 0.0
C775 C 0.70306 0.13103 0.81577 0.0
N776 N 0.60565 0.05415 0.82183 0.0
N777 N 0.68619 0.10662 0.83102 0.0
H778 H 0.75864 0.65496 0.85633 0.0
H779 H 0.93169 0.64814 0.96106 0.0
H780 H 0.83934 0.73605 0.87603 0.0
H781 H 0.84754 0.57191 0.95252 0.0
H782 H 0.89685 0.68379 0.93934 0.0
H783 H 0.78899 0.6273 0.89937 0.0
C784 C 0.78271 0.66708 0.86999 0.0
C785 C 0.79671 0.69765 0.86206 0.0
C786 C 0.8859 0.65946 0.94284 0.0
C787 C 0.8318 0.66591 0.91133 0.0
C788 C 0.90578 0.6391 0.95555 0.0
C789 C 0.89254 0.60677 0.95793 0.0
C790 C 0.85258 0.64732 0.93215 0.0
C791 C 0.85883 0.59641 0.9501 0.0
C792 C 0.80001 0.6513 0.89473 0.0
C793 C 0.82774 0.7124 0.88111 0.0
N794 N 0.84006 0.61646 0.93699 0.0
N795 N 0.84449 0.69614 0.90441 0.0
H796 H 0.22573 0.32852 0.13642 0.0
H797 H 0.05425 0.35081 0.0381 0.0
H798 H 0.13429 0.26699 0.14318 0.0
H799 H 0.13777 0.42903 0.0662 0.0
H800 H 0.08755 0.31382 0.05916 0.0
H801 H 0.19719 0.35959 0.09519 0.0
C802 C 0.19973 0.32124 0.12873 0.0
C803 C 0.18223 0.29539 0.14353 0.0
C804 C 0.0987 0.33899 0.06017 0.0
C805 C 0.14973 0.33048 0.09629 0.0
C806 C 0.0798 0.36014 0.04773 0.0
C807 C 0.09314 0.39323 0.05085 0.0
C808 C 0.13117 0.35095 0.07594 0.0
C809 C 0.12637 0.40382 0.06406 0.0
C810 C 0.18352 0.33901 0.10533 0.0
C811 C 0.14862 0.28701 0.13278 0.0
N812 N 0.14422 0.38278 0.07663 0.0
N813 N 0.13345 0.3046 0.1099 0.0
H814 H 0.11466 0.68627 0.765 0.0
H815 H 0.07009 0.62551 0.95805 0.0
H816 H 0.16375 0.72905 0.87835 0.0
H817 H 0.02513 0.57741 0.845 0.0
H818 H 0.09593 0.67089 0.92954 0.0
H819 H 0.07254 0.65467 0.79405 0.0
C820 C 0.11618 0.68959 0.79596 0.0
C821 C 0.14315 0.70955 0.8194 0.0
C822 C 0.0802 0.65055 0.91094 0.0
C823 C 0.09548 0.67339 0.85262 0.0
C824 C 0.06562 0.62455 0.92718 0.0
C825 C 0.04609 0.59742 0.90368 0.0
C826 C 0.07549 0.64924 0.87091 0.0
C827 C 0.0405 0.5977 0.86401 0.0
C828 C 0.09223 0.67144 0.81251 0.0
C829 C 0.14377 0.71325 0.85928 0.0
N830 N 0.05554 0.62309 0.84875 0.0
N831 N 0.12055 0.69487 0.87466 0.0
H832 H 0.35906 0.22353 0.8437 0.0
H833 H 0.37458 0.06812 0.9361 0.0
H834 H 0.27584 0.1635 0.87525 0.0
H835 H 0.45488 0.14807 0.94309 0.0
H836 H 0.33737 0.10307 0.91769 0.0
H837 H 0.39428 0.1971 0.88277 0.0
C838 C 0.34824 0.20496 0.85926 0.0
C839 C 0.31454 0.19545 0.85604 0.0
C840 C 0.36307 0.11313 0.92397 0.0
C841 C 0.35471 0.16469 0.90041 0.0
C842 C 0.38428 0.09319 0.93432 0.0
C843 C 0.41782 0.10518 0.94053 0.0
C844 C 0.37562 0.145 0.91896 0.0
C845 C 0.42919 0.13788 0.93841 0.0
C846 C 0.36834 0.18998 0.88172 0.0
C847 C 0.30174 0.17148 0.87702 0.0
N848 N 0.40817 0.15649 0.92704 0.0
N849 N 0.32187 0.15642 0.8978 0.0
H850 H 0.86448 0.27252 0.83561 0.0
H851 H 0.89258 0.44041 0.9669 0.0
H852 H 0.78942 0.3126 0.88311 0.0
H853 H 0.97008 0.39903 0.92781 0.0
H854 H 0.85617 0.38799 0.94903 0.0
H855 H 0.90507 0.311 0.88251 0.0
C856 C 0.85661 0.28858 0.85697 0.0
C857 C 0.82393 0.28999 0.85551 0.0
C858 C 0.8813 0.39 0.94517 0.0
C859 C 0.8696 0.33434 0.90789 0.0
C860 C 0.90209 0.41999 0.95552 0.0
C861 C 0.93415 0.42373 0.94874 0.0
C862 C 0.89269 0.36382 0.92736 0.0
C863 C 0.94525 0.39681 0.93307 0.0
C864 C 0.87967 0.31071 0.88347 0.0
C865 C 0.81463 0.31124 0.88333 0.0
N866 N 0.9244 0.36793 0.92242 0.0
N867 N 0.83741 0.33306 0.90795 0.0
H868 H 0.73589 0.84207 0.88923 0.0
H869 H 0.5657 0.84953 0.95954 0.0
H870 H 0.64691 0.77274 0.84866 0.0
H871 H 0.64521 0.93162 0.97532 0.0
H872 H 0.60122 0.81498 0.93641 0.0
H873 H 0.7083 0.86903 0.93689 0.0
C874 C 0.71077 0.83227 0.89078 0.0
C875 C 0.69341 0.80564 0.86453 0.0
C876 C 0.61103 0.84048 0.94564 0.0
C877 C 0.66207 0.83581 0.91887 0.0
C878 C 0.59076 0.86023 0.9588 0.0
C879 C 0.60221 0.89369 0.96857 0.0
C880 C 0.64293 0.8543 0.94184 0.0
C881 C 0.63518 0.90601 0.968 0.0
C882 C 0.69507 0.84761 0.91788 0.0
C883 C 0.66097 0.79369 0.86782 0.0
N884 N 0.65425 0.88642 0.95406 0.0
N885 N 0.64631 0.80899 0.89425 0.0
H886 H 0.85626 0.72702 0.15354 0.0
H887 H 0.8398 0.55118 0.04239 0.0
H888 H 0.76447 0.66176 0.11434 0.0
H889 H 0.92988 0.62002 0.07668 0.0
H890 H 0.81047 0.59483 0.05509 0.0
H891 H 0.88204 0.69242 0.11276 0.0
C892 C 0.84144 0.70562 0.13588 0.0
C893 C 0.80831 0.69689 0.13795 0.0
C894 C 0.83666 0.60049 0.05918 0.0
C895 C 0.83777 0.65673 0.09165 0.0
C896 C 0.85337 0.5756 0.05186 0.0
C897 C 0.88723 0.58194 0.05977 0.0
C898 C 0.85407 0.63175 0.07456 0.0
C899 C 0.9037 0.61399 0.07153 0.0
C900 C 0.85616 0.68584 0.11252 0.0
C901 C 0.79017 0.66919 0.11394 0.0
N902 N 0.88697 0.63759 0.07918 0.0
N903 N 0.80527 0.64968 0.09238 0.0
H904 H 0.26805 0.82264 0.12856 0.0
H905 H 0.41861 0.97018 0.16767 0.0
H906 H 0.31024 0.87204 0.242 0.0
H907 H 0.37709 0.91622 0.05618 0.0
H908 H 0.37348 0.94115 0.19499 0.0
H909 H 0.30123 0.86425 0.10104 0.0
C910 C 0.28403 0.8425 0.14768 0.0
C911 C 0.28701 0.84355 0.18757 0.0
C912 C 0.37418 0.93595 0.16449 0.0
C913 C 0.32541 0.89096 0.15635 0.0
C914 C 0.39993 0.95238 0.14898 0.0
C915 C 0.40179 0.94511 0.10982 0.0
C916 C 0.35034 0.91224 0.14054 0.0
C917 C 0.37686 0.9222 0.08667 0.0
C918 C 0.303 0.86627 0.13197 0.0
C919 C 0.30757 0.87014 0.21104 0.0
N920 N 0.35231 0.9064 0.10246 0.0
N921 N 0.32652 0.89257 0.19503 0.0
H922 H 0.6915 0.19771 0.12061 0.0
H923 H 0.59354 0.01882 0.08274 0.0
H924 H 0.72072 0.12051 0.17485 0.0
H925 H 0.56277 0.09742 0.03308 0.0
H926 H 0.64792 0.05176 0.1011 0.0
H927 H 0.65399 0.15806 0.07261 0.0
C928 C 0.69074 0.17223 0.12146 0.0
C929 C 0.70873 0.16212 0.15173 0.0
C930 C 0.62951 0.06169 0.08558 0.0
C931 C 0.66508 0.11677 0.09811 0.0
C932 C 0.59845 0.04295 0.0753 0.0
C933 C 0.57377 0.05578 0.05705 0.0
C934 C 0.63558 0.09376 0.07837 0.0
C935 C 0.58126 0.08685 0.04734 0.0
C936 C 0.6692 0.14961 0.09426 0.0
C937 C 0.70707 0.12907 0.15187 0.0
N938 N 0.61146 0.1051 0.05881 0.0
N939 N 0.68487 0.10744 0.12595 0.0
H940 H 0.65012 0.61809 0.73757 0.0
H941 H 0.56735 0.61985 0.91796 0.0
H942 H 0.60895 0.6994 0.77655 0.0
H943 H 0.55279 0.53076 0.83979 0.0
H944 H 0.58469 0.64967 0.86663 0.0
H945 H 0.61404 0.58419 0.77196 0.0
C946 C 0.63272 0.62851 0.75224 0.0
C947 C 0.63296 0.66168 0.75496 0.0
C948 C 0.5773 0.6236 0.86069 0.0
C949 C 0.59279 0.62359 0.79517 0.0
C950 C 0.56791 0.60665 0.89003 0.0
C951 C 0.55902 0.57293 0.88303 0.0
C952 C 0.57851 0.60655 0.82459 0.0
C953 C 0.55965 0.55683 0.84625 0.0
C954 C 0.61227 0.60924 0.77196 0.0
C955 C 0.60981 0.674 0.7741 0.0
N956 N 0.56977 0.57378 0.81846 0.0
N957 N 0.59133 0.65515 0.79462 0.0
H958 H 0.34557 0.67869 0.80624 0.0
H959 H 0.36467 0.57014 0.96587 0.0
H960 H 0.27816 0.67445 0.8883 0.0
H961 H 0.44701 0.63094 0.93368 0.0
H962 H 0.32906 0.6015 0.93388 0.0
H963 H 0.37972 0.65235 0.84688 0.0
C964 C 0.33781 0.672 0.83267 0.0
C965 C 0.30903 0.6788 0.84401 0.0
C966 C 0.35499 0.60827 0.93462 0.0
C967 C 0.34798 0.64873 0.89042 0.0
C968 C 0.37517 0.59058 0.95287 0.0
C969 C 0.40862 0.59839 0.95254 0.0
C970 C 0.36852 0.63291 0.91499 0.0
C971 C 0.42132 0.62461 0.93489 0.0
C972 C 0.35746 0.65728 0.85596 0.0
C973 C 0.30026 0.66971 0.87866 0.0
N974 N 0.40116 0.64061 0.91612 0.0
N975 N 0.31961 0.65483 0.90066 0.0
H976 H 0.30038 0.3551 0.83125 0.0
H977 H 0.48648 0.40477 0.91134 0.0
H978 H 0.37346 0.31346 0.78033 0.0
H979 H 0.41265 0.43389 0.9727 0.0
H980 H 0.44518 0.36516 0.86795 0.0
H981 H 0.34124 0.38297 0.88463 0.0
C982 C 0.3252 0.35252 0.83076 0.0
C983 C 0.33365 0.33197 0.80137 0.0
C984 C 0.43794 0.3796 0.89141 0.0
C985 C 0.38006 0.36278 0.86286 0.0
C986 C 0.46152 0.40182 0.91637 0.0
C987 C 0.45245 0.42271 0.94466 0.0
C988 C 0.40531 0.37916 0.89457 0.0
C989 C 0.42019 0.41826 0.95065 0.0
C990 C 0.34833 0.36782 0.8617 0.0
C991 C 0.36601 0.3291 0.80248 0.0
N992 N 0.39739 0.39742 0.92489 0.0
N993 N 0.38808 0.34425 0.83294 0.0
H994 H 0.72511 0.34326 0.86174 0.0
H995 H 0.56952 0.3707 0.95178 0.0
H996 H 0.632 0.27815 0.83375 0.0
H997 H 0.65943 0.44035 0.97106 0.0
H998 H 0.59671 0.32984 0.9241 0.0
H999 H 0.70551 0.37239 0.91417 0.0
C1000 C 0.70045 0.33502 0.86656 0.0
C1001 C 0.67982 0.30866 0.84255 0.0
C1002 C 0.61077 0.35378 0.93526 0.0
C1003 C 0.65737 0.342 0.90314 0.0
C1004 C 0.59534 0.37699 0.95151 0.0
C1005 C 0.61229 0.4089 0.96327 0.0
C1006 C 0.64318 0.36281 0.93003 0.0
C1007 C 0.64558 0.41599 0.96207 0.0
C1008 C 0.6894 0.3516 0.89683 0.0
C1009 C 0.6485 0.29868 0.85105 0.0
N1010 N 0.65986 0.39326 0.94474 0.0
N1011 N 0.63807 0.31567 0.88038 0.0
H1012 H 0.65502 0.26657 0.14995 0.0
H1013 H 0.63502 0.42791 0.06917 0.0
H1014 H 0.72296 0.35739 0.18442 0.0
H1015 H 0.56312 0.3392 0.04617 0.0
H1016 H 0.67417 0.39889 0.09675 0.0
H1017 H 0.62793 0.28963 0.09926 0.0
C1018 C 0.66422 0.29148 0.14695 0.0
C1019 C 0.69077 0.31042 0.17216 0.0
C1020 C 0.65002 0.38566 0.08488 0.0
C1021 C 0.65979 0.33693 0.11379 0.0
C1022 C 0.62761 0.40219 0.06903 0.0
C1023 C 0.59537 0.38619 0.05638 0.0
C1024 C 0.64003 0.35298 0.08819 0.0
C1025 C 0.58751 0.3527 0.05599 0.0
C1026 C 0.64887 0.30453 0.11769 0.0
C1027 C 0.70219 0.34217 0.16604 0.0
N1028 N 0.60951 0.33733 0.07251 0.0
N1029 N 0.68628 0.35465 0.13776 0.0
H1030 H 0.6343 0.67428 0.25685 0.0
H1031 H 0.58709 0.55816 0.0655 0.0
H1032 H 0.70142 0.62281 0.20783 0.0
H1033 H 0.51774 0.55435 0.14521 0.0
H1034 H 0.62836 0.5901 0.11649 0.0
H1035 H 0.58924 0.63415 0.21844 0.0
C1036 C 0.63937 0.65353 0.23956 0.0
C1037 C 0.67117 0.65147 0.23502 0.0
C1038 C 0.60405 0.58222 0.1227 0.0
C1039 C 0.62085 0.60733 0.19045 0.0
C1040 C 0.58049 0.5646 0.09356 0.0
C1041 C 0.54931 0.55363 0.10154 0.0
C1042 C 0.59602 0.58922 0.1596 0.0
C1043 C 0.54181 0.56232 0.13834 0.0
C1044 C 0.61385 0.63104 0.21736 0.0
C1045 C 0.67698 0.62488 0.21178 0.0
N1046 N 0.56514 0.57983 0.1663 0.0
N1047 N 0.65194 0.60414 0.18941 0.0
H1048 H 0.30609 0.69805 0.11806 0.0
H1049 H 0.33952 0.51944 0.10292 0.0
H1050 H 0.29992 0.63828 0.20794 0.0
H1051 H 0.39218 0.58978 0.04362 0.0
H1052 H 0.31074 0.55997 0.12817 0.0
H1053 H 0.32686 0.65633 0.07961 0.0
C1054 C 0.30918 0.67628 0.1297 0.0
C1055 C 0.30147 0.67166 0.16632 0.0
C1056 C 0.32824 0.56644 0.10917 0.0
C1057 C 0.32396 0.62398 0.12234 0.0
C1058 C 0.34444 0.54332 0.0946 0.0
C1059 C 0.36845 0.55161 0.07176 0.0
C1060 C 0.3362 0.59807 0.10094 0.0
C1061 C 0.3738 0.58268 0.06133 0.0
C1062 C 0.32088 0.6526 0.10777 0.0
C1063 C 0.30581 0.64305 0.18006 0.0
N1064 N 0.35808 0.60516 0.07655 0.0
N1065 N 0.31653 0.62025 0.15796 0.0
H1066 H 0.30623 0.36895 0.24975 0.0
H1067 H 0.47507 0.40339 0.17292 0.0
H1068 H 0.37435 0.30767 0.27091 0.0
H1069 H 0.38275 0.40425 0.10819 0.0
H1070 H 0.44693 0.38393 0.22508 0.0
H1071 H 0.34525 0.40201 0.21796 0.0
C1072 C 0.33019 0.36365 0.24968 0.0
C1073 C 0.3373 0.33574 0.26279 0.0
C1074 C 0.43306 0.38851 0.19941 0.0
C1075 C 0.38119 0.37237 0.22551 0.0
C1076 C 0.44891 0.39922 0.16966 0.0
C1077 C 0.43101 0.40483 0.13613 0.0
C1078 C 0.39936 0.38466 0.19588 0.0
C1079 C 0.3973 0.39958 0.13328 0.0
C1080 C 0.35214 0.3821 0.23097 0.0
C1081 C 0.36828 0.32926 0.26128 0.0
N1082 N 0.38255 0.39005 0.16298 0.0
N1083 N 0.38905 0.34709 0.24198 0.0
H1084 H 0.78856 0.69481 0.61807 0.0
H1085 H 0.9182 0.58751 0.64895 0.0
H1086 H 0.79392 0.63934 0.71188 0.0
H1087 H 0.87114 0.58613 0.53391 0.0
H1088 H 0.87979 0.61757 0.67397 0.0
H1089 H 0.82451 0.66404 0.58709 0.0
C1090 C 0.79704 0.67603 0.63194 0.0
C1091 C 0.78839 0.66967 0.66766 0.0
C1092 C 0.87807 0.61091 0.64322 0.0
C1093 C 0.8297 0.63535 0.63304 0.0
C1094 C 0.90018 0.59417 0.6289 0.0
C1095 C 0.89803 0.58475 0.58929 0.0
C1096 C 0.85388 0.61872 0.61779 0.0
C1097 C 0.87366 0.59326 0.56462 0.0
C1098 C 0.8174 0.65855 0.61425 0.0
C1099 C 0.79992 0.64503 0.68436 0.0
N1100 N 0.85249 0.61005 0.57929 0.0
N1101 N 0.82039 0.62911 0.66718 0.0
H1102 H 0.35205 0.75267 0.67339 0.0
H1103 H 0.465 0.92447 0.67737 0.0
H1104 H 0.36513 0.83297 0.76448 0.0
H1105 H 0.42336 0.85744 0.57447 0.0
H1106 H 0.44458 0.88345 0.71583 0.0
H1107 H 0.39529 0.78322 0.64451 0.0
C1108 C 0.36469 0.77633 0.68785 0.0
C1109 C 0.35463 0.79086 0.72061 0.0
C1110 C 0.44039 0.87763 0.68483 0.0
C1111 C 0.40352 0.82554 0.68808 0.0
C1112 C 0.45184 0.90101 0.6629 0.0
C1113 C 0.44504 0.89448 0.62277 0.0
C1114 C 0.42221 0.84763 0.66639 0.0
C1115 C 0.42839 0.86362 0.6054 0.0
C1116 C 0.38917 0.79373 0.67134 0.0
C1117 C 0.37176 0.82138 0.73854 0.0
N1118 N 0.41718 0.84136 0.62738 0.0
N1119 N 0.39513 0.838 0.72168 0.0
H1120 H 0.21664 0.33291 0.65745 0.0
H1121 H 0.11616 0.40464 0.54917 0.0
H1122 H 0.14748 0.24304 0.62259 0.0
H1123 H 0.04192 0.3256 0.56484 0.0
H1124 H 0.15702 0.37286 0.56432 0.0
H1125 H 0.18324 0.35913 0.61659 0.0
C1126 C 0.19471 0.31848 0.64044 0.0
C1127 C 0.18475 0.28576 0.64375 0.0
C1128 C 0.13186 0.36232 0.56453 0.0
C1129 C 0.14621 0.31569 0.59584 0.0
C1130 C 0.10855 0.38027 0.55519 0.0
C1131 C 0.07588 0.36773 0.55629 0.0
C1132 C 0.12241 0.33206 0.57635 0.0
C1133 C 0.06701 0.33605 0.56396 0.0
C1134 C 0.17569 0.33345 0.61659 0.0
C1135 C 0.15608 0.26833 0.62096 0.0
N1136 N 0.09026 0.31946 0.57448 0.0
N1137 N 0.13747 0.28368 0.59853 0.0
H1138 H 0.66896 0.19546 0.59154 0.0
H1139 H 0.50131 0.07908 0.59069 0.0
H1140 H 0.60025 0.21179 0.66838 0.0
H1141 H 0.575 0.05599 0.52503 0.0
H1142 H 0.52969 0.13552 0.6037 0.0
H1143 H 0.62727 0.15378 0.55128 0.0
C1144 C 0.64489 0.19092 0.59948 0.0
C1145 C 0.6384 0.20626 0.63422 0.0
C1146 C 0.53942 0.1183 0.58584 0.0
C1147 C 0.59082 0.15844 0.58843 0.0
C1148 C 0.52335 0.08614 0.57865 0.0
C1149 C 0.53628 0.06314 0.55728 0.0
C1150 C 0.56904 0.12722 0.57235 0.0
C1151 C 0.56442 0.07326 0.54162 0.0
C1152 C 0.62112 0.16702 0.57647 0.0
C1153 C 0.60661 0.19988 0.64249 0.0
N1154 N 0.58031 0.10458 0.55008 0.0
N1155 N 0.58417 0.1759 0.62021 0.0
H1156 H 0.79483 0.31814 0.42031 0.0
H1157 H 0.90778 0.48828 0.42155 0.0
H1158 H 0.77767 0.38444 0.34099 0.0
H1159 H 0.93162 0.41611 0.48879 0.0
H1160 H 0.85217 0.45746 0.40546 0.0
H1161 H 0.8351 0.36127 0.4605 0.0
C1162 C 0.79877 0.342 0.41189 0.0
C1163 C 0.78379 0.34742 0.37649 0.0
C1164 C 0.86937 0.44861 0.42434 0.0
C1165 C 0.83012 0.39654 0.42195 0.0
C1166 C 0.90109 0.46602 0.4332 0.0
C1167 C 0.92407 0.4544 0.4563 0.0
C1168 C 0.86086 0.41912 0.43815 0.0
C1169 C 0.91434 0.42589 0.47129 0.0
C1170 C 0.82196 0.36657 0.43476 0.0
C1171 C 0.78944 0.37895 0.36745 0.0
N1172 N 0.88349 0.40889 0.46152 0.0
N1173 N 0.81276 0.40216 0.38958 0.0
H1174 H 0.67454 0.76978 0.36812 0.0
H1175 H 0.65429 0.94812 0.4476 0.0
H1176 H 0.73045 0.85784 0.34227 0.0
H1177 H 0.57768 0.86421 0.43731 0.0
H1178 H 0.69037 0.91306 0.42665 0.0
H1179 H 0.64627 0.80233 0.40956 0.0
C1180 C 0.68117 0.79589 0.37162 0.0
C1181 C 0.70447 0.81119 0.35133 0.0
C1182 C 0.6658 0.90226 0.42959 0.0
C1183 C 0.67284 0.84829 0.39882 0.0
C1184 C 0.64531 0.92223 0.44184 0.0
C1185 C 0.61285 0.90906 0.44347 0.0
C1186 C 0.65378 0.86889 0.41913 0.0
C1187 C 0.60242 0.87532 0.4356 0.0
C1188 C 0.66504 0.81439 0.39512 0.0
C1189 C 0.71223 0.84507 0.35687 0.0
N1190 N 0.62272 0.85638 0.42331 0.0
N1191 N 0.69641 0.86244 0.37995 0.0
H1192 H 0.1523 0.62758 0.25115 0.0
H1193 H 0.12861 0.57966 0.45309 0.0
H1194 H 0.23067 0.64674 0.34534 0.0
H1195 H 0.06177 0.53732 0.35028 0.0
H1196 H 0.16852 0.60029 0.41331 0.0
H1197 H 0.12138 0.58871 0.28467 0.0
C1198 C 0.16321 0.62297 0.27859 0.0
C1199 C 0.19367 0.64062 0.29601 0.0
C1200 C 0.14528 0.58609 0.39948 0.0
C1201 C 0.15831 0.5971 0.33491 0.0
C1202 C 0.12241 0.57464 0.42215 0.0
C1203 C 0.09172 0.55736 0.40486 0.0
C1204 C 0.13712 0.58051 0.35938 0.0
C1205 C 0.08503 0.55098 0.36473 0.0
C1206 C 0.14561 0.60083 0.29773 0.0
C1207 C 0.20707 0.63366 0.33125 0.0
N1208 N 0.10744 0.56294 0.34331 0.0
N1209 N 0.1889 0.61292 0.35013 0.0
H1210 H 0.31148 0.15132 0.28692 0.0
H1211 H 0.40357 0.12427 0.48603 0.0
H1212 H 0.31013 0.21403 0.39173 0.0
H1213 H 0.38286 0.05732 0.38024 0.0
H1214 H 0.3722 0.15964 0.45464 0.0
H1215 H 0.34192 0.11968 0.32283 0.0
C1216 C 0.31748 0.1584 0.31771 0.0
C1217 C 0.30776 0.18512 0.3364 0.0
C1218 C 0.37432 0.13696 0.43872 0.0
C1219 C 0.34292 0.14842 0.37828 0.0
C1220 C 0.39216 0.11682 0.45652 0.0
C1221 C 0.39564 0.08758 0.43589 0.0
C1222 C 0.36036 0.12778 0.40007 0.0
C1223 C 0.38036 0.0791 0.39778 0.0
C1224 C 0.33495 0.1402 0.33834 0.0
C1225 C 0.31703 0.19345 0.37629 0.0
N1226 N 0.36366 0.0991 0.38126 0.0
N1227 N 0.33405 0.17497 0.39612 0.0
H1228 H 0.69608 0.84273 0.69005 0.0
H1229 H 0.56311 0.84701 0.52945 0.0
H1230 H 0.66519 0.75906 0.603 0.0
H1231 H 0.6396 0.93129 0.56688 0.0
H1232 H 0.59926 0.81345 0.55271 0.0
H1233 H 0.67428 0.87564 0.64557 0.0
C1234 C 0.68467 0.83141 0.66143 0.0
C1235 C 0.68182 0.79828 0.65006 0.0
C1236 C 0.60832 0.83921 0.55493 0.0
C1237 C 0.65686 0.83542 0.5994 0.0
C1238 C 0.58773 0.85856 0.54144 0.0
C1239 C 0.59787 0.89239 0.5473 0.0
C1240 C 0.63886 0.85382 0.57522 0.0
C1241 C 0.63018 0.90553 0.56331 0.0
C1242 C 0.67267 0.85018 0.63598 0.0
C1243 C 0.66744 0.7846 0.61265 0.0
N1244 N 0.64925 0.88633 0.57784 0.0
N1245 N 0.65471 0.80316 0.58873 0.0
H1246 H 0.66799 0.22701 0.38737 0.0
H1247 H 0.5291 0.06957 0.34485 0.0
H1248 H 0.61772 0.1861 0.27395 0.0
H1249 H 0.5823 0.11055 0.45688 0.0
H1250 H 0.55369 0.11777 0.31963 0.0
H1251 H 0.62783 0.1917 0.41475 0.0
C1252 C 0.64815 0.21098 0.36826 0.0
C1253 C 0.64667 0.20872 0.32835 0.0
C1254 C 0.55972 0.11628 0.34979 0.0
C1255 C 0.60111 0.16788 0.35934 0.0
C1256 C 0.54592 0.08871 0.36409 0.0
C1257 C 0.55428 0.08586 0.40274 0.0
C1258 C 0.58201 0.14095 0.3744 0.0
C1259 C 0.57568 0.11152 0.42668 0.0
C1260 C 0.62526 0.19078 0.38388 0.0
C1261 C 0.62008 0.18814 0.30491 0.0
N1262 N 0.58903 0.13788 0.41201 0.0
N1263 N 0.59867 0.1679 0.32076 0.0
H1264 H 0.79482 0.68806 0.38315 0.0
H1265 H 0.97287 0.65184 0.42308 0.0
H1266 H 0.87174 0.7149 0.31684 0.0
H1267 H 0.89751 0.61831 0.48883 0.0
H1268 H 0.9374 0.68149 0.39042 0.0
H1269 H 0.83255 0.66705 0.42677 0.0
C1270 C 0.81956 0.68961 0.37778 0.0
C1271 C 0.82997 0.70302 0.346 0.0
C1272 C 0.92859 0.66789 0.41221 0.0
C1273 C 0.87322 0.67941 0.39591 0.0
C1274 C 0.94912 0.65119 0.43142 0.0
C1275 C 0.93825 0.6321 0.45872 0.0
C1276 C 0.89665 0.66541 0.41986 0.0
C1277 C 0.90678 0.63203 0.46742 0.0
C1278 C 0.84108 0.67769 0.40272 0.0
C1279 C 0.86237 0.70452 0.34062 0.0
N1280 N 0.88694 0.64807 0.44774 0.0
N1281 N 0.88268 0.69285 0.36517 0.0
H1282 H 0.37055 0.76035 0.3328 0.0
H1283 H 0.41553 0.91673 0.49093 0.0
H1284 H 0.30199 0.80045 0.39383 0.0
H1285 H 0.46887 0.89595 0.39818 0.0
H1286 H 0.38229 0.86183 0.47457 0.0
H1287 H 0.41481 0.79648 0.37738 0.0
C1288 C 0.36491 0.77578 0.35658 0.0
C1289 C 0.33291 0.77817 0.35946 0.0
C1290 C 0.40179 0.86914 0.45844 0.0
C1291 C 0.38275 0.81941 0.40968 0.0
C1292 C 0.42058 0.90035 0.46766 0.0
C1293 C 0.44417 0.91084 0.44511 0.0
C1294 C 0.40711 0.8485 0.42683 0.0
C1295 C 0.45015 0.88889 0.41545 0.0
C1296 C 0.39005 0.7965 0.38178 0.0
C1297 C 0.32658 0.79852 0.39051 0.0
N1298 N 0.43148 0.8588 0.40687 0.0
N1299 N 0.35134 0.81889 0.41409 0.0
H1300 H 0.22986 0.3279 0.38677 0.0
H1301 H 0.0607 0.37908 0.39836 0.0
H1302 H 0.13978 0.28064 0.31588 0.0
H1303 H 0.14148 0.41515 0.48906 0.0
H1304 H 0.09043 0.34202 0.37006 0.0
H1305 H 0.19953 0.35931 0.4267 0.0
C1306 C 0.20379 0.32388 0.37984 0.0
C1307 C 0.18741 0.302 0.34754 0.0
C1308 C 0.10168 0.35768 0.39644 0.0
C1309 C 0.15284 0.33759 0.39277 0.0
C1310 C 0.08441 0.37883 0.41312 0.0
C1311 C 0.09816 0.40031 0.44678 0.0
C1312 C 0.13348 0.35811 0.41275 0.0
C1313 C 0.12981 0.39932 0.46301 0.0
C1314 C 0.18654 0.34177 0.4026 0.0
C1315 C 0.15361 0.29762 0.33998 0.0
N1316 N 0.14655 0.37875 0.44565 0.0
N1317 N 0.13762 0.31537 0.36218 0.0
H1318 H 0.34092 0.21028 0.6608 0.0
H1319 H 0.33302 0.03486 0.54976 0.0
H1320 H 0.25175 0.13982 0.62757 0.0
H1321 H 0.41908 0.10986 0.57581 0.0
H1322 H 0.30081 0.07494 0.56816 0.0
H1323 H 0.36784 0.17637 0.62072 0.0
C1324 C 0.3269 0.18776 0.64471 0.0
C1325 C 0.29416 0.17763 0.64802 0.0
C1326 C 0.32667 0.08274 0.5692 0.0
C1327 C 0.32503 0.13825 0.60229 0.0
C1328 C 0.345 0.0599 0.5585 0.0
C1329 C 0.37878 0.06901 0.56208 0.0
C1330 C 0.34235 0.11479 0.58357 0.0
C1331 C 0.39315 0.10174 0.57352 0.0
C1332 C 0.34229 0.16838 0.62171 0.0
C1333 C 0.2771 0.14844 0.62604 0.0
N1334 N 0.37494 0.12331 0.58435 0.0
N1335 N 0.29288 0.12947 0.60461 0.0
H1336 H 0.74873 0.32312 0.61728 0.0
H1337 H 0.90588 0.45888 0.66273 0.0
H1338 H 0.782 0.38218 0.72779 0.0
H1339 H 0.87199 0.39891 0.55288 0.0
H1340 H 0.85327 0.44095 0.68246 0.0
H1341 H 0.78369 0.3622 0.58817 0.0
C1342 C 0.76277 0.34474 0.63529 0.0
C1343 C 0.76378 0.34869 0.67526 0.0
C1344 C 0.85725 0.43194 0.65391 0.0
C1345 C 0.80419 0.39292 0.64239 0.0
C1346 C 0.8874 0.44182 0.64286 0.0
C1347 C 0.89353 0.42952 0.60664 0.0
C1348 C 0.83329 0.40939 0.62865 0.0
C1349 C 0.8685 0.4083 0.58151 0.0
C1350 C 0.78281 0.36702 0.61867 0.0
C1351 C 0.78145 0.37763 0.69701 0.0
N1352 N 0.83957 0.39856 0.5932 0.0
N1353 N 0.80182 0.39826 0.68044 0.0
H1354 H 0.19167 0.6802 0.61447 0.0
H1355 H 0.08995 0.51034 0.62491 0.0
H1356 H 0.2241 0.6158 0.68809 0.0
H1357 H 0.06777 0.56742 0.53687 0.0
H1358 H 0.14439 0.54374 0.64031 0.0
H1359 H 0.15354 0.63462 0.57562 0.0
C1360 C 0.19152 0.65611 0.62146 0.0
C1361 C 0.2106 0.65151 0.65449 0.0
C1362 C 0.12791 0.54864 0.61708 0.0
C1363 C 0.16612 0.59964 0.61164 0.0
C1364 C 0.09677 0.52981 0.60861 0.0
C1365 C 0.07448 0.53657 0.57992 0.0
C1366 C 0.13648 0.57481 0.59724 0.0
C1367 C 0.08446 0.56152 0.55908 0.0
C1368 C 0.16961 0.63011 0.59951 0.0
C1369 C 0.20962 0.6201 0.66272 0.0
N1370 N 0.11463 0.58015 0.56859 0.0
N1371 N 0.18695 0.59533 0.64201 0.0
loop_
_geom_bond_atom_site_label_1
_geom_bond_atom_site_label_2
_geom_bond_distance
_geom_bond_site_symmetry_2
_ccdc_geom_bond_type
O0 Zn1 1.953 . S
O0 C16 1.225 . S
Zn1 O0 1.953 . S
Zn1 O2 1.949 . S
Zn1 O8 1.919 . S
Zn1 O13 1.924 . S
O2 Zn1 1.949 . S
O2 Zn3 1.923 . S
O2 Zn4 1.950 . S
O2 Zn5 1.945 . S
Zn3 O2 1.923 . S
Zn3 O6 1.933 . S
Zn3 O9 1.941 . S
Zn3 O10 1.965 . S
Zn4 O2 1.950 . S
Zn4 O11 1.938 . S
Zn4 O12 1.906 . S
Zn4 O22 1.953 . S
Zn5 O2 1.945 . S
Zn5 O7 1.932 . S
Zn5 O14 1.977 . S
Zn5 O15 1.910 . S
O6 Zn3 1.933 . S
O6 C17 1.226 . S
O7 Zn5 1.932 . S
O7 C17 1.307 . S
O8 Zn1 1.919 . S
O8 C19 1.253 . S
O9 Zn3 1.941 . S
O9 C19 1.283 . S
O10 Zn3 1.965 . S
O10 C18 1.303 . S
O11 Zn4 1.938 . S
O11 C18 1.247 . S
O12 Zn4 1.906 . S
O12 C20 1.304 . S
O13 Zn1 1.924 . S
O13 C21 1.311 . S
O14 Zn5 1.977 . S
O14 C20 1.272 . S
O15 Zn5 1.910 . S
O15 C21 1.231 . S
C16 O0 1.225 . S
C16 O22 1.298 . S
C17 O6 1.226 . S
C17 O7 1.307 . S
C18 O10 1.303 . S
C18 O11 1.247 . S
C19 O8 1.253 . S
C19 O9 1.283 . S
C20 O12 1.304 . S
C20 O14 1.272 . S
C21 O13 1.311 . S
C21 O15 1.231 . S
O22 Zn4 1.953 . S
O22 C16 1.298 . S
O23 Zn24 1.953 . S
O23 C39 1.225 . S
Zn24 O23 1.953 . S
Zn24 O25 1.949 . S
Zn24 O31 1.919 . S
Zn24 O36 1.924 . S
O25 Zn24 1.949 . S
O25 Zn26 1.923 . S
O25 Zn27 1.950 . S
O25 Zn28 1.945 . S
Zn26 O25 1.923 . S
Zn26 O29 1.933 . S
Zn26 O32 1.941 . S
Zn26 O33 1.965 . S
Zn27 O25 1.950 . S
Zn27 O34 1.938 . S
Zn27 O35 1.906 . S
Zn27 O45 1.953 . S
Zn28 O25 1.945 . S
Zn28 O30 1.932 . S
Zn28 O37 1.977 . S
Zn28 O38 1.910 . S
O29 Zn26 1.933 . S
O29 C40 1.226 . S
O30 Zn28 1.932 . S
O30 C40 1.307 . S
O31 Zn24 1.919 . S
O31 C42 1.253 . S
O32 Zn26 1.941 . S
O32 C42 1.283 . S
O33 Zn26 1.965 . S
O33 C41 1.303 . S
O34 Zn27 1.938 . S
O34 C41 1.247 . S
O35 Zn27 1.906 . S
O35 C43 1.304 . S
O36 Zn24 1.924 . S
O36 C44 1.311 . S
O37 Zn28 1.977 . S
O37 C43 1.272 . S
O38 Zn28 1.910 . S
O38 C44 1.231 . S
C39 O23 1.225 . S
C39 O45 1.298 . S
C40 O29 1.226 . S
C40 O30 1.307 . S
C41 O33 1.303 . S
C41 O34 1.247 . S
C42 O31 1.253 . S
C42 O32 1.283 . S
C43 O35 1.304 . S
C43 O37 1.272 . S
C44 O36 1.311 . S
C44 O38 1.231 . S
O45 Zn27 1.953 . S
O45 C39 1.298 . S
O46 Zn47 1.953 . S
O46 C62 1.225 . S
Zn47 O46 1.953 . S
Zn47 O48 1.949 . S
Zn47 O54 1.919 . S
Zn47 O59 1.924 . S
O48 Zn47 1.949 . S
O48 Zn49 1.923 . S
O48 Zn50 1.950 . S
O48 Zn51 1.945 . S
Zn49 O48 1.923 . S
Zn49 O52 1.933 . S
Zn49 O55 1.941 . S
Zn49 O56 1.965 . S
Zn50 O48 1.950 . S
Zn50 O57 1.938 . S
Zn50 O58 1.906 . S
Zn50 O68 1.953 . S
Zn51 O48 1.945 . S
Zn51 O53 1.932 . S
Zn51 O60 1.977 . S
Zn51 O61 1.910 . S
O52 Zn49 1.933 . S
O52 C63 1.226 . S
O53 Zn51 1.932 . S
O53 C63 1.307 . S
O54 Zn47 1.919 . S
O54 C65 1.253 . S
O55 Zn49 1.941 . S
O55 C65 1.283 . S
O56 Zn49 1.965 . S
O56 C64 1.303 . S
O57 Zn50 1.938 . S
O57 C64 1.247 . S
O58 Zn50 1.906 . S
O58 C66 1.304 . S
O59 Zn47 1.924 . S
O59 C67 1.311 . S
O60 Zn51 1.977 . S
O60 C66 1.272 . S
O61 Zn51 1.910 . S
O61 C67 1.231 . S
C62 O46 1.225 . S
C62 O68 1.298 . S
C63 O52 1.226 . S
C63 O53 1.307 . S
C64 O56 1.303 . S
C64 O57 1.247 . S
C65 O54 1.253 . S
C65 O55 1.283 . S
C66 O58 1.304 . S
C66 O60 1.272 . S
C67 O59 1.311 . S
C67 O61 1.231 . S
O68 Zn50 1.953 . S
O68 C62 1.298 . S
O69 Zn70 1.953 . S
O69 C85 1.225 . S
Zn70 O69 1.953 . S
Zn70 O71 1.949 . S
Zn70 O77 1.919 . S
Zn70 O82 1.924 . S
O71 Zn70 1.949 . S
O71 Zn72 1.923 . S
O71 Zn73 1.950 . S
O71 Zn74 1.945 . S
Zn72 O71 1.923 . S
Zn72 O75 1.933 . S
Zn72 O78 1.941 . S
Zn72 O79 1.965 . S
Zn73 O71 1.950 . S
Zn73 O80 1.938 . S
Zn73 O81 1.906 . S
Zn73 O91 1.953 . S
Zn74 O71 1.945 . S
Zn74 O76 1.932 . S
Zn74 O83 1.977 . S
Zn74 O84 1.910 . S
O75 Zn72 1.933 . S
O75 C86 1.226 . S
O76 Zn74 1.932 . S
O76 C86 1.307 . S
O77 Zn70 1.919 . S
O77 C88 1.253 . S
O78 Zn72 1.941 . S
O78 C88 1.283 . S
O79 Zn72 1.965 . S
O79 C87 1.303 . S
O80 Zn73 1.938 . S
O80 C87 1.247 . S
O81 Zn73 1.906 . S
O81 C89 1.304 . S
O82 Zn70 1.924 . S
O82 C90 1.311 . S
O83 Zn74 1.977 . S
O83 C89 1.272 . S
O84 Zn74 1.910 . S
O84 C90 1.231 . S
C85 O69 1.225 . S
C85 O91 1.298 . S
C86 O75 1.226 . S
C86 O76 1.307 . S
C87 O79 1.303 . S
C87 O80 1.247 . S
C88 O77 1.253 . S
C88 O78 1.283 . S
C89 O81 1.304 . S
C89 O83 1.272 . S
C90 O82 1.311 . S
C90 O84 1.231 . S
O91 Zn73 1.953 . S
O91 C85 1.298 . S
O92 Zn93 1.953 . S
O92 C108 1.225 . S
Zn93 O92 1.953 . S
Zn93 O94 1.949 . S
Zn93 O100 1.919 . S
Zn93 O105 1.924 . S
O94 Zn93 1.949 . S
O94 Zn95 1.923 . S
O94 Zn96 1.950 . S
O94 Zn97 1.945 . S
Zn95 O94 1.923 . S
Zn95 O98 1.933 . S
Zn95 O101 1.941 . S
Zn95 O102 1.965 . S
Zn96 O94 1.950 . S
Zn96 O103 1.938 . S
Zn96 O104 1.906 . S
Zn96 O114 1.953 . S
Zn97 O94 1.945 . S
Zn97 O99 1.932 . S
Zn97 O106 1.977 . S
Zn97 O107 1.910 . S
O98 Zn95 1.933 . S
O98 C109 1.226 . S
O99 Zn97 1.932 . S
O99 C109 1.307 . S
O100 Zn93 1.919 . S
O100 C111 1.253 . S
O101 Zn95 1.941 . S
O101 C111 1.283 . S
O102 Zn95 1.965 . S
O102 C110 1.303 . S
O103 Zn96 1.938 . S
O103 C110 1.247 . S
O104 Zn96 1.906 . S
O104 C112 1.304 . S
O105 Zn93 1.924 . S
O105 C113 1.311 . S
O106 Zn97 1.977 . S
O106 C112 1.272 . S
O107 Zn97 1.910 . S
O107 C113 1.231 . S
C108 O92 1.225 . S
C108 O114 1.298 . S
C109 O98 1.226 . S
C109 O99 1.307 . S
C110 O102 1.303 . S
C110 O103 1.247 . S
C111 O100 1.253 . S
C111 O101 1.283 . S
C112 O104 1.304 . S
C112 O106 1.272 . S
C113 O105 1.311 . S
C113 O107 1.231 . S
O114 Zn96 1.953 . S
O114 C108 1.298 . S
O115 Zn116 1.953 . S
O115 C131 1.225 . S
Zn116 O115 1.953 . S
Zn116 O117 1.949 . S
Zn116 O123 1.919 . S
Zn116 O128 1.924 . S
O117 Zn116 1.949 . S
O117 Zn118 1.923 . S
O117 Zn119 1.950 . S
O117 Zn120 1.945 . S
Zn118 O117 1.923 . S
Zn118 O121 1.933 . S
Zn118 O124 1.941 . S
Zn118 O125 1.965 . S
Zn119 O117 1.950 . S
Zn119 O126 1.938 . S
Zn119 O127 1.906 . S
Zn119 O137 1.953 . S
Zn120 O117 1.945 . S
Zn120 O122 1.932 . S
Zn120 O129 1.977 . S
Zn120 O130 1.910 . S
O121 Zn118 1.933 . S
O121 C132 1.226 . S
O122 Zn120 1.932 . S
O122 C132 1.307 . S
O123 Zn116 1.919 . S
O123 C134 1.253 . S
O124 Zn118 1.941 . S
O124 C134 1.283 . S
O125 Zn118 1.965 . S
O125 C133 1.303 . S
O126 Zn119 1.938 . S
O126 C133 1.247 . S
O127 Zn119 1.906 . S
O127 C135 1.304 . S
O128 Zn116 1.924 . S
O128 C136 1.311 . S
O129 Zn120 1.977 . S
O129 C135 1.272 . S
O130 Zn120 1.910 . S
O130 C136 1.231 . S
C131 O115 1.225 . S
C131 O137 1.298 . S
C132 O121 1.226 . S
C132 O122 1.307 . S
C133 O125 1.303 . S
C133 O126 1.247 . S
C134 O123 1.253 . S
C134 O124 1.283 . S
C135 O127 1.304 . S
C135 O129 1.272 . S
C136 O128 1.311 . S
C136 O130 1.231 . S
O137 Zn119 1.953 . S
O137 C131 1.298 . S
O138 Zn139 1.953 . S
O138 C154 1.225 . S
Zn139 O138 1.953 . S
Zn139 O140 1.949 . S
Zn139 O146 1.919 . S
Zn139 O151 1.924 . S
O140 Zn139 1.949 . S
O140 Zn141 1.923 . S
O140 Zn142 1.950 . S
O140 Zn143 1.945 . S
Zn141 O140 1.923 . S
Zn141 O144 1.933 . S
Zn141 O147 1.941 . S
Zn141 O148 1.965 . S
Zn142 O140 1.950 . S
Zn142 O149 1.938 . S
Zn142 O150 1.906 . S
Zn142 O160 1.953 . S
Zn143 O140 1.945 . S
Zn143 O145 1.932 . S
Zn143 O152 1.977 . S
Zn143 O153 1.910 . S
O144 Zn141 1.933 . S
O144 C155 1.226 . S
O145 Zn143 1.932 . S
O145 C155 1.307 . S
O146 Zn139 1.919 . S
O146 C157 1.253 . S
O147 Zn141 1.941 . S
O147 C157 1.283 . S
O148 Zn141 1.965 . S
O148 C156 1.303 . S
O149 Zn142 1.938 . S
O149 C156 1.247 . S
O150 Zn142 1.906 . S
O150 C158 1.304 . S
O151 Zn139 1.924 . S
O151 C159 1.311 . S
O152 Zn143 1.977 . S
O152 C158 1.272 . S
O153 Zn143 1.910 . S
O153 C159 1.231 . S
C154 O138 1.225 . S
C154 O160 1.298 . S
C155 O144 1.226 . S
C155 O145 1.307 . S
C156 O148 1.303 . S
C156 O149 1.247 . S
C157 O146 1.253 . S
C157 O147 1.283 . S
C158 O150 1.304 . S
C158 O152 1.272 . S
C159 O151 1.311 . S
C159 O153 1.231 . S
O160 Zn142 1.953 . S
O160 C154 1.298 . S
O161 Zn162 1.953 . S
O161 C177 1.225 . S
Zn162 O161 1.953 . S
Zn162 O163 1.949 . S
Zn162 O169 1.919 . S
Zn162 O174 1.924 . S
O163 Zn162 1.949 . S
O163 Zn164 1.923 . S
O163 Zn165 1.950 . S
O163 Zn166 1.945 . S
Zn164 O163 1.923 . S
Zn164 O167 1.933 . S
Zn164 O170 1.941 . S
Zn164 O171 1.965 . S
Zn165 O163 1.950 . S
Zn165 O172 1.938 . S
Zn165 O173 1.906 . S
Zn165 O183 1.953 . S
Zn166 O163 1.945 . S
Zn166 O168 1.932 . S
Zn166 O175 1.977 . S
Zn166 O176 1.910 . S
O167 Zn164 1.933 . S
O167 C178 1.226 . S
O168 Zn166 1.932 . S
O168 C178 1.307 . S
O169 Zn162 1.919 . S
O169 C180 1.253 . S
O170 Zn164 1.941 . S
O170 C180 1.283 . S
O171 Zn164 1.965 . S
O171 C179 1.303 . S
O172 Zn165 1.938 . S
O172 C179 1.247 . S
O173 Zn165 1.906 . S
O173 C181 1.304 . S
O174 Zn162 1.924 . S
O174 C182 1.311 . S
O175 Zn166 1.977 . S
O175 C181 1.272 . S
O176 Zn166 1.910 . S
O176 C182 1.231 . S
C177 O161 1.225 . S
C177 O183 1.298 . S
C178 O167 1.226 . S
C178 O168 1.307 . S
C179 O171 1.303 . S
C179 O172 1.247 . S
C180 O169 1.253 . S
C180 O170 1.283 . S
C181 O173 1.304 . S
C181 O175 1.272 . S
C182 O174 1.311 . S
C182 O176 1.231 . S
O183 Zn165 1.953 . S
O183 C177 1.298 . S
Cd184 N187 2.334 1_655 S
Cd184 N213 2.304 1_565 S
Cd184 O220 2.268 . S
Cd184 O223 2.273 1_665 S
Cd184 O224 2.417 . S
Cd184 O225 2.330 . S
Cd185 N200 2.304 1_455 S
Cd185 N204 2.334 1_545 S
Cd185 O221 2.273 1_445 S
Cd185 O222 2.268 . S
Cd185 O226 2.417 . S
Cd185 O227 2.330 . S
C186 N187 1.332 . S
C186 C190 1.381 . S
C186 H192 0.931 . S
N187 Cd184 2.334 1_455 S
N187 C186 1.332 . S
N187 C191 1.328 . S
C188 C189 1.396 . S
C188 C191 1.378 . S
C188 H230 0.931 . S
C189 C188 1.396 . S
C189 C190 1.382 . S
C190 C186 1.381 . S
C190 C189 1.382 . S
C190 H231 0.930 . S
C191 N187 1.328 . S
C191 C188 1.378 . S
C191 H193 0.930 . S
H192 C186 0.931 . S
H193 C191 0.930 . S
C194 O220 1.238 . S
C194 O221 1.253 . S
C195 C196 1.379 . S
C195 N200 1.337 . S
C195 H201 0.929 . S
C196 C195 1.379 . S
C196 C197 1.380 . S
C196 H232 0.929 . S
C197 C196 1.380 . S
C197 C198 1.399 . S
C198 C197 1.399 . S
C198 C199 1.376 . S
C198 H233 0.931 . S
C199 C198 1.376 . S
C199 N200 1.338 . S
C199 H202 0.930 1_655 S
N200 Cd185 2.304 1_655 S
N200 C195 1.337 . S
N200 C199 1.338 . S
H201 C195 0.929 . S
H202 C199 0.930 1_455 S
C203 N204 1.332 . S
C203 C207 1.381 . S
C203 H209 0.931 . S
N204 Cd185 2.334 1_565 S
N204 C203 1.332 . S
N204 C208 1.328 . S
C205 C206 1.396 . S
C205 C208 1.378 . S
C205 H234 0.931 . S
C206 C205 1.396 . S
C206 C207 1.382 . S
C207 C203 1.381 . S
C207 C206 1.382 . S
C207 H235 0.930 . S
C208 N204 1.328 . S
C208 C205 1.378 . S
C208 H210 0.930 1_565 S
H209 C203 0.931 . S
H210 C208 0.930 1_545 S
C211 O222 1.238 . S
C211 O223 1.253 . S
C212 O224 1.239 . S
C212 O225 1.230 . S
N213 Cd184 2.304 1_545 S
N213 C214 1.337 . S
N213 C218 1.338 . S
C214 N213 1.337 . S
C214 C215 1.379 . S
C214 H228 0.929 . S
C215 C214 1.379 . S
C215 C216 1.380 . S
C215 H236 0.929 . S
C216 C215 1.380 . S
C216 C217 1.399 . S
C217 C216 1.399 . S
C217 C218 1.376 . S
C217 H237 0.931 . S
C218 N213 1.338 . S
C218 C217 1.376 . S
C218 H229 0.930 . S
C219 O226 1.239 . S
C219 O227 1.230 . S
O220 Cd184 2.268 . S
O220 C194 1.238 . S
O221 Cd185 2.273 1_665 S
O221 C194 1.253 . S
O222 Cd185 2.268 . S
O222 C211 1.238 . S
O223 Cd184 2.273 1_445 S
O223 C211 1.253 . S
O224 Cd184 2.417 . S
O224 C212 1.239 . S
O225 Cd184 2.330 . S
O225 C212 1.230 . S
O226 Cd185 2.417 . S
O226 C219 1.239 . S
O227 Cd185 2.330 . S
O227 C219 1.230 . S
H228 C214 0.929 . S
H229 C218 0.930 . S
H230 C188 0.931 . S
H231 C190 0.930 . S
H232 C196 0.929 . S
H233 C198 0.931 . S
H234 C205 0.931 . S
H235 C207 0.930 . S
H236 C215 0.929 . S
H237 C217 0.931 . S
Cd238 N241 2.334 . S
Cd238 N267 2.304 1_565 S
Cd238 O274 2.268 1_554 S
Cd238 O277 2.273 1_565 S
Cd238 O278 2.417 . S
Cd238 O279 2.330 . S
Cd239 N254 2.304 . S
Cd239 N258 2.334 1_545 S
Cd239 O275 2.273 1_545 S
Cd239 O276 2.268 1_556 S
Cd239 O280 2.417 . S
Cd239 O281 2.330 . S
C240 N241 1.332 . S
C240 C244 1.381 . S
C240 H246 0.931 . S
N241 Cd238 2.334 . S
N241 C240 1.332 . S
N241 C245 1.328 . S
C242 C243 1.396 . S
C242 C245 1.378 . S
C242 H284 0.931 . S
C243 C242 1.396 . S
C243 C244 1.382 . S
C244 C240 1.381 . S
C244 C243 1.382 . S
C244 H285 0.930 . S
C245 N241 1.328 . S
C245 C242 1.378 . S
C245 H247 0.930 . S
H246 C240 0.931 . S
H247 C245 0.930 . S
C248 O274 1.238 . S
C248 O275 1.253 . S
C249 C250 1.379 . S
C249 N254 1.337 . S
C249 H255 0.929 . S
C250 C249 1.379 . S
C250 C251 1.380 . S
C250 H286 0.929 . S
C251 C250 1.380 . S
C251 C252 1.406 . S
C252 C251 1.406 . S
C252 C253 1.376 . S
C252 H287 0.924 1_556 S
C253 C252 1.376 . S
C253 N254 1.338 . S
C253 H256 0.930 1_556 S
N254 Cd239 2.304 . S
N254 C249 1.337 . S
N254 C253 1.338 . S
H255 C249 0.929 . S
H256 C253 0.930 1_554 S
C257 N258 1.332 . S
C257 C261 1.381 . S
C257 H263 0.931 . S
N258 Cd239 2.334 1_565 S
N258 C257 1.332 . S
N258 C262 1.328 . S
C259 C260 1.396 . S
C259 C262 1.378 . S
C259 H288 0.931 1_556 S
C260 C259 1.396 . S
C260 C261 1.382 . S
C261 C257 1.381 . S
C261 C260 1.382 . S
C261 H289 0.930 . S
C262 N258 1.328 . S
C262 C259 1.378 . S
C262 H264 0.930 1_566 S
H263 C257 0.931 . S
H264 C262 0.930 1_544 S
C265 O276 1.238 . S
C265 O277 1.253 . S
C266 O278 1.239 . S
C266 O279 1.230 . S
N267 Cd238 2.304 1_545 S
N267 C268 1.337 . S
N267 C272 1.338 . S
C268 N267 1.337 . S
C268 C269 1.379 . S
C268 H282 0.929 . S
C269 C268 1.379 . S
C269 C270 1.380 . S
C269 H290 0.929 . S
C270 C269 1.380 . S
C270 C271 1.399 . S
C271 C270 1.399 . S
C271 C272 1.376 . S
C271 H291 0.931 . S
C272 N267 1.338 . S
C272 C271 1.376 . S
C272 H283 0.930 . S
C273 O280 1.239 . S
C273 O281 1.230 . S
O274 Cd238 2.268 1_556 S
O274 C248 1.238 . S
O275 Cd239 2.273 1_565 S
O275 C248 1.253 . S
O276 Cd239 2.268 1_554 S
O276 C265 1.238 . S
O277 Cd238 2.273 1_545 S
O277 C265 1.253 . S
O278 Cd238 2.417 . S
O278 C266 1.239 . S
O279 Cd238 2.330 . S
O279 C266 1.230 . S
O280 Cd239 2.417 . S
O280 C273 1.239 . S
O281 Cd239 2.330 . S
O281 C273 1.230 . S
H282 C268 0.929 . S
H283 C272 0.930 . S
H284 C242 0.931 . S
H285 C244 0.930 . S
H286 C250 0.929 . S
H287 C252 0.924 1_554 S
H288 C259 0.931 1_554 S
H289 C261 0.930 . S
H290 C269 0.929 . S
H291 C271 0.931 . S
Cd292 N295 2.334 1_655 S
Cd292 N321 2.304 . S
Cd292 O328 2.268 1_554 S
Cd292 O331 2.273 1_655 S
Cd292 O332 2.417 . S
Cd292 O333 2.330 . S
Cd293 N308 2.304 1_455 S
Cd293 N312 2.334 . S
Cd293 O329 2.273 1_455 S
Cd293 O330 2.268 1_556 S
Cd293 O334 2.417 . S
Cd293 O335 2.330 . S
C294 N295 1.332 . S
C294 C298 1.381 . S
C294 H300 0.931 . S
N295 Cd292 2.334 1_455 S
N295 C294 1.332 . S
N295 C299 1.328 . S
C296 C297 1.396 . S
C296 C299 1.378 . S
C296 H338 0.931 1_554 S
C297 C296 1.396 . S
C297 C298 1.382 . S
C298 C294 1.381 . S
C298 C297 1.382 . S
C298 H339 0.930 . S
C299 N295 1.328 . S
C299 C296 1.378 . S
C299 H301 0.930 1_554 S
H300 C294 0.931 . S
H301 C299 0.930 1_556 S
C302 O328 1.238 . S
C302 O329 1.253 . S
C303 C304 1.379 . S
C303 N308 1.337 . S
C303 H309 0.929 . S
C304 C303 1.379 . S
C304 C305 1.380 . S
C304 H340 0.929 . S
C305 C304 1.380 . S
C305 C306 1.399 . S
C306 C305 1.399 . S
C306 C307 1.396 . S
C306 H341 0.931 1_556 S
C307 C306 1.396 . S
C307 N308 1.335 . S
C307 H310 0.912 1_656 S
N308 Cd293 2.304 1_655 S
N308 C303 1.337 . S
N308 C307 1.335 . S
H309 C303 0.929 . S
H310 C307 0.912 1_454 S
C311 N312 1.332 . S
C311 C315 1.381 . S
C311 H317 0.931 . S
N312 Cd293 2.334 . S
N312 C311 1.332 . S
N312 C316 1.328 . S
C313 C314 1.396 . S
C313 C316 1.378 . S
C313 H342 0.931 1_556 S
C314 C313 1.396 . S
C314 C315 1.382 . S
C315 C311 1.381 . S
C315 C314 1.382 . S
C315 H343 0.930 . S
C316 N312 1.328 . S
C316 C313 1.378 . S
C316 H318 0.930 1_556 S
H317 C311 0.931 . S
H318 C316 0.930 1_554 S
C319 O330 1.238 . S
C319 O331 1.253 . S
C320 O332 1.239 . S
C320 O333 1.230 . S
N321 Cd292 2.304 . S
N321 C322 1.337 . S
N321 C326 1.338 . S
C322 N321 1.337 . S
C322 C323 1.379 . S
C322 H336 0.929 . S
C323 C322 1.379 . S
C323 C324 1.380 . S
C323 H344 0.929 . S
C324 C323 1.380 . S
C324 C325 1.399 . S
C325 C324 1.399 . S
C325 C326 1.376 . S
C325 H345 0.931 1_554 S
C326 N321 1.338 . S
C326 C325 1.376 . S
C326 H337 0.930 1_554 S
C327 O334 1.239 . S
C327 O335 1.230 . S
O328 Cd292 2.268 1_556 S
O328 C302 1.238 . S
O329 Cd293 2.273 1_655 S
O329 C302 1.253 . S
O330 Cd293 2.268 1_554 S
O330 C319 1.238 . S
O331 Cd292 2.273 1_455 S
O331 C319 1.253 . S
O332 Cd292 2.417 . S
O332 C320 1.239 . S
O333 Cd292 2.330 . S
O333 C320 1.230 . S
O334 Cd293 2.417 . S
O334 C327 1.239 . S
O335 Cd293 2.330 . S
O335 C327 1.230 . S
H336 C322 0.929 . S
H337 C326 0.930 1_556 S
H338 C296 0.931 1_556 S
H339 C298 0.930 . S
H340 C304 0.929 . S
H341 C306 0.931 1_554 S
H342 C313 0.931 1_554 S
H343 C315 0.930 . S
H344 C323 0.929 . S
H345 C325 0.931 1_556 S
Cd346 N349 2.334 . S
Cd346 N375 2.304 . S
Cd346 O382 2.268 1_554 S
Cd346 O385 2.273 . S
Cd346 O386 2.417 . S
Cd346 O387 2.330 . S
Cd347 N362 2.304 . S
Cd347 N366 2.334 . S
Cd347 O383 2.273 . S
Cd347 O384 2.268 1_556 S
Cd347 O388 2.417 . S
Cd347 O389 2.330 . S
C348 N349 1.332 . S
C348 C352 1.381 . S
C348 H354 0.931 . S
N349 Cd346 2.334 . S
N349 C348 1.332 . S
N349 C353 1.328 . S
C350 C351 1.396 . S
C350 C353 1.378 . S
C350 H392 0.931 . S
C351 C350 1.396 . S
C351 C352 1.382 . S
C352 C348 1.381 . S
C352 C351 1.382 . S
C352 H393 0.930 . S
C353 N349 1.328 . S
C353 C350 1.378 . S
C353 H355 0.930 . S
H354 C348 0.931 . S
H355 C353 0.930 . S
C356 O382 1.238 . S
C356 O383 1.253 . S
C357 C358 1.379 . S
C357 N362 1.337 . S
C357 H363 0.929 . S
C358 C357 1.379 . S
C358 C359 1.380 . S
C358 H394 0.929 . S
C359 C358 1.380 . S
C359 C360 1.399 . S
C360 C359 1.399 . S
C360 C361 1.376 . S
C360 H395 0.931 1_556 S
C361 C360 1.376 . S
C361 N362 1.338 . S
C361 H364 0.930 1_556 S
N362 Cd347 2.304 . S
N362 C357 1.337 . S
N362 C361 1.338 . S
H363 C357 0.929 . S
H364 C361 0.930 1_554 S
C365 N366 1.332 . S
C365 C369 1.381 . S
C365 H371 0.931 . S
N366 Cd347 2.334 . S
N366 C365 1.332 . S
N366 C370 1.328 . S
C367 C368 1.396 . S
C367 C370 1.378 . S
C367 H396 0.931 1_556 S
C368 C367 1.396 . S
C368 C369 1.382 . S
C369 C365 1.381 . S
C369 C368 1.382 . S
C369 H397 0.930 . S
C370 N366 1.328 . S
C370 C367 1.378 . S
C370 H372 0.930 1_556 S
H371 C365 0.931 . S
H372 C370 0.930 1_554 S
C373 O384 1.238 . S
C373 O385 1.253 . S
C374 O386 1.239 . S
C374 O387 1.230 . S
N375 Cd346 2.304 . S
N375 C376 1.337 . S
N375 C380 1.338 . S
C376 N375 1.337 . S
C376 C377 1.379 . S
C376 H390 0.929 . S
C377 C376 1.379 . S
C377 C378 1.380 . S
C377 H398 0.929 . S
C378 C377 1.380 . S
C378 C379 1.399 . S
C379 C378 1.399 . S
C379 C380 1.376 . S
C379 H399 0.931 . S
C380 N375 1.338 . S
C380 C379 1.376 . S
C380 H391 0.930 . S
C381 O388 1.239 . S
C381 O389 1.230 . S
O382 Cd346 2.268 1_556 S
O382 C356 1.238 . S
O383 Cd347 2.273 . S
O383 C356 1.253 . S
O384 Cd347 2.268 1_554 S
O384 C373 1.238 . S
O385 Cd346 2.273 . S
O385 C373 1.253 . S
O386 Cd346 2.417 . S
O386 C374 1.239 . S
O387 Cd346 2.330 . S
O387 C374 1.230 . S
O388 Cd347 2.417 . S
O388 C381 1.239 . S
O389 Cd347 2.330 . S
O389 C381 1.230 . S
H390 C376 0.929 . S
H391 C380 0.930 . S
H392 C350 0.931 . S
H393 C352 0.930 . S
H394 C358 0.929 . S
H395 C360 0.931 1_554 S
H396 C367 0.931 1_554 S
H397 C369 0.930 . S
H398 C377 0.929 . S
H399 C379 0.931 . S
Cd400 N403 2.334 1_655 S
Cd400 N429 2.304 . S
Cd400 O436 2.268 . S
Cd400 O439 2.273 1_655 S
Cd400 O440 2.417 . S
Cd400 O441 2.330 . S
Cd401 N416 2.304 1_455 S
Cd401 N420 2.334 . S
Cd401 O437 2.273 1_455 S
Cd401 O438 2.268 . S
Cd401 O442 2.417 . S
Cd401 O443 2.330 . S
C402 N403 1.332 . S
C402 C406 1.381 . S
C402 H408 0.931 . S
N403 Cd400 2.334 1_455 S
N403 C402 1.332 . S
N403 C407 1.328 . S
C404 C405 1.396 . S
C404 C407 1.378 . S
C404 H446 0.931 . S
C405 C404 1.396 . S
C405 C406 1.382 . S
C406 C402 1.381 . S
C406 C405 1.382 . S
C406 H447 0.930 . S
C407 N403 1.328 . S
C407 C404 1.378 . S
C407 H409 0.930 . S
H408 C402 0.931 . S
H409 C407 0.930 . S
C410 O436 1.238 . S
C410 O437 1.253 . S
C411 C412 1.379 . S
C411 N416 1.337 . S
C411 H417 0.929 . S
C412 C411 1.379 . S
C412 C413 1.380 . S
C412 H448 0.929 . S
C413 C412 1.380 . S
C413 C414 1.399 . S
C414 C413 1.399 . S
C414 C415 1.376 . S
C414 H449 0.931 . S
C415 C414 1.376 . S
C415 N416 1.338 . S
C415 H418 0.930 1_655 S
N416 Cd401 2.304 1_655 S
N416 C411 1.337 . S
N416 C415 1.338 . S
H417 C411 0.929 . S
H418 C415 0.930 1_455 S
C419 N420 1.332 . S
C419 C423 1.381 . S
C419 H425 0.931 . S
N420 Cd401 2.334 . S
N420 C419 1.332 . S
N420 C424 1.328 . S
C421 C422 1.396 . S
C421 C424 1.378 . S
C421 H450 0.931 . S
C422 C421 1.396 . S
C422 C423 1.382 . S
C423 C419 1.381 . S
C423 C422 1.382 . S
C423 H451 0.930 . S
C424 N420 1.328 . S
C424 C421 1.378 . S
C424 H426 0.930 . S
H425 C419 0.931 . S
H426 C424 0.930 . S
C427 O438 1.238 . S
C427 O439 1.253 . S
C428 O440 1.239 . S
C428 O441 1.230 . S
N429 Cd400 2.304 . S
N429 C430 1.337 . S
N429 C434 1.338 . S
C430 N429 1.337 . S
C430 C431 1.379 . S
C430 H444 0.929 . S
C431 C430 1.379 . S
C431 C432 1.380 . S
C431 H452 0.929 . S
C432 C431 1.380 . S
C432 C433 1.399 . S
C433 C432 1.399 . S
C433 C434 1.376 . S
C433 H453 0.931 . S
C434 N429 1.338 . S
C434 C433 1.376 . S
C434 H445 0.930 . S
C435 O442 1.239 . S
C435 O443 1.230 . S
O436 Cd400 2.268 . S
O436 C410 1.238 . S
O437 Cd401 2.273 1_655 S
O437 C410 1.253 . S
O438 Cd401 2.268 . S
O438 C427 1.238 . S
O439 Cd400 2.273 1_455 S
O439 C427 1.253 . S
O440 Cd400 2.417 . S
O440 C428 1.239 . S
O441 Cd400 2.330 . S
O441 C428 1.230 . S
O442 Cd401 2.417 . S
O442 C435 1.239 . S
O443 Cd401 2.330 . S
O443 C435 1.230 . S
H444 C430 0.929 . S
H445 C434 0.930 . S
H446 C404 0.931 . S
H447 C406 0.930 . S
H448 C412 0.929 . S
H449 C414 0.931 . S
H450 C421 0.931 . S
H451 C423 0.930 . S
H452 C431 0.929 . S
H453 C433 0.931 . S
Cd454 N457 2.334 . S
Cd454 N483 2.304 1_565 S
Cd454 O490 2.268 . S
Cd454 O493 2.273 1_565 S
Cd454 O494 2.417 . S
Cd454 O495 2.330 . S
Cd455 N470 2.304 . S
Cd455 N474 2.334 1_545 S
Cd455 O491 2.273 1_545 S
Cd455 O492 2.268 . S
Cd455 O496 2.417 . S
Cd455 O497 2.330 . S
C456 N457 1.332 . S
C456 C460 1.381 . S
C456 H462 0.931 . S
N457 Cd454 2.334 . S
N457 C456 1.332 . S
N457 C461 1.328 . S
C458 C459 1.396 . S
C458 C461 1.378 . S
C458 H500 0.931 . S
C459 C458 1.396 . S
C459 C460 1.382 . S
C460 C456 1.381 . S
C460 C459 1.382 . S
C460 H501 0.930 . S
C461 N457 1.328 . S
C461 C458 1.378 . S
C461 H463 0.930 . S
H462 C456 0.931 . S
H463 C461 0.930 . S
C464 O490 1.238 . S
C464 O491 1.253 . S
C465 C466 1.379 . S
C465 N470 1.337 . S
C465 H471 0.929 . S
C466 C465 1.379 . S
C466 C467 1.380 . S
C466 H502 0.929 . S
C467 C466 1.380 . S
C467 C468 1.399 . S
C468 C467 1.399 . S
C468 C469 1.376 . S
C468 H503 0.931 . S
C469 C468 1.376 . S
C469 N470 1.338 . S
C469 H472 0.930 . S
N470 Cd455 2.304 . S
N470 C465 1.337 . S
N470 C469 1.338 . S
H471 C465 0.929 . S
H472 C469 0.930 . S
C473 N474 1.332 . S
C473 C477 1.381 . S
C473 H479 0.931 . S
N474 Cd455 2.334 1_565 S
N474 C473 1.332 . S
N474 C478 1.328 . S
C475 C476 1.396 . S
C475 C478 1.378 . S
C475 H504 0.931 . S
C476 C475 1.396 . S
C476 C477 1.382 . S
C477 C473 1.381 . S
C477 C476 1.382 . S
C477 H505 0.930 . S
C478 N474 1.328 . S
C478 C475 1.378 . S
C478 H480 0.930 1_565 S
H479 C473 0.931 . S
H480 C478 0.930 1_545 S
C481 O492 1.238 . S
C481 O493 1.253 . S
C482 O494 1.239 . S
C482 O495 1.230 . S
N483 Cd454 2.304 1_545 S
N483 C484 1.337 . S
N483 C488 1.338 . S
C484 N483 1.337 . S
C484 C485 1.379 . S
C484 H498 0.929 . S
C485 C484 1.379 . S
C485 C486 1.380 . S
C485 H506 0.929 . S
C486 C485 1.380 . S
C486 C487 1.399 . S
C487 C486 1.399 . S
C487 C488 1.376 . S
C487 H507 0.931 . S
C488 N483 1.338 . S
C488 C487 1.376 . S
C488 H499 0.930 . S
C489 O496 1.239 . S
C489 O497 1.230 . S
O490 Cd454 2.268 . S
O490 C464 1.238 . S
O491 Cd455 2.273 1_565 S
O491 C464 1.253 . S
O492 Cd455 2.268 . S
O492 C481 1.238 . S
O493 Cd454 2.273 1_545 S
O493 C481 1.253 . S
O494 Cd454 2.417 . S
O494 C482 1.239 . S
O495 Cd454 2.330 . S
O495 C482 1.230 . S
O496 Cd455 2.417 . S
O496 C489 1.239 . S
O497 Cd455 2.330 . S
O497 C489 1.230 . S
H498 C484 0.929 . S
H499 C488 0.930 . S
H500 C458 0.931 . S
H501 C460 0.930 . S
H502 C466 0.929 . S
H503 C468 0.931 . S
H504 C475 0.931 . S
H505 C477 0.930 . S
H506 C485 0.929 . S
H507 C487 0.931 . S
H508 C514 0.930 . S
H509 C518 0.930 . S
H510 C523 0.929 . S
H511 C521 0.929 . S
H512 C516 0.929 . S
H513 C522 0.929 . S
C514 H508 0.930 . S
C514 C515 1.367 . S
C514 C522 1.378 . S
C515 C514 1.367 . S
C515 C523 1.433 . S
C516 H512 0.929 . S
C516 C518 1.378 . S
C516 C520 1.350 . S
C517 C520 1.463 . S
C517 C522 1.350 . S
C517 N525 1.427 . S
C518 H509 0.930 . S
C518 C516 1.378 . S
C518 C519 1.367 . S
C519 C518 1.367 . S
C519 C521 1.433 . S
C520 C516 1.350 . S
C520 C517 1.463 . S
C520 N524 1.427 . S
C521 H511 0.929 . S
C521 C519 1.433 . S
C521 N524 1.384 . S
C522 H513 0.929 . S
C522 C514 1.378 . S
C522 C517 1.350 . S
C523 H510 0.929 . S
C523 C515 1.433 . S
C523 N525 1.384 . S
N524 C520 1.427 . S
N524 C521 1.384 . S
N525 C517 1.427 . S
N525 C523 1.384 . S
H526 C532 0.930 . S
H527 C536 0.930 . S
H528 C541 0.929 . S
H529 C539 0.929 . S
H530 C534 0.929 . S
H531 C540 0.929 . S
C532 H526 0.930 . S
C532 C533 1.367 . S
C532 C540 1.378 . S
C533 C532 1.367 . S
C533 C541 1.433 . S
C534 H530 0.929 . S
C534 C536 1.378 . S
C534 C538 1.350 . S
C535 C538 1.463 . S
C535 C540 1.350 . S
C535 N543 1.427 . S
C536 H527 0.930 . S
C536 C534 1.378 . S
C536 C537 1.367 . S
C537 C536 1.367 . S
C537 C539 1.433 . S
C538 C534 1.350 . S
C538 C535 1.463 . S
C538 N542 1.427 . S
C539 H529 0.929 . S
C539 C537 1.433 . S
C539 N542 1.384 . S
C540 H531 0.929 . S
C540 C532 1.378 . S
C540 C535 1.350 . S
C541 H528 0.929 . S
C541 C533 1.433 . S
C541 N543 1.384 . S
N542 C538 1.427 . S
N542 C539 1.384 . S
N543 C535 1.427 . S
N543 C541 1.384 . S
H544 C550 0.930 . S
H545 C554 0.930 . S
H546 C559 0.929 . S
H547 C557 0.929 . S
H548 C552 0.929 . S
H549 C558 0.929 . S
C550 H544 0.930 . S
C550 C551 1.367 . S
C550 C558 1.378 . S
C551 C550 1.367 . S
C551 C559 1.433 . S
C552 H548 0.929 . S
C552 C554 1.378 . S
C552 C556 1.350 . S
C553 C556 1.463 . S
C553 C558 1.350 . S
C553 N561 1.427 . S
C554 H545 0.930 . S
C554 C552 1.378 . S
C554 C555 1.367 . S
C555 C554 1.367 . S
C555 C557 1.433 . S
C556 C552 1.350 . S
C556 C553 1.463 . S
C556 N560 1.427 . S
C557 H547 0.929 . S
C557 C555 1.433 . S
C557 N560 1.384 . S
C558 H549 0.929 . S
C558 C550 1.378 . S
C558 C553 1.350 . S
C559 H546 0.929 . S
C559 C551 1.433 . S
C559 N561 1.384 . S
N560 C556 1.427 . S
N560 C557 1.384 . S
N561 C553 1.427 . S
N561 C559 1.384 . S
H562 C568 0.930 . S
H563 C572 0.930 . S
H564 C577 0.929 . S
H565 C575 0.929 . S
H566 C570 0.929 . S
H567 C576 0.929 . S
C568 H562 0.930 . S
C568 C569 1.367 . S
C568 C576 1.378 . S
C569 C568 1.367 . S
C569 C577 1.433 . S
C570 H566 0.929 . S
C570 C572 1.378 . S
C570 C574 1.350 . S
C571 C574 1.463 . S
C571 C576 1.350 . S
C571 N579 1.427 . S
C572 H563 0.930 . S
C572 C570 1.378 . S
C572 C573 1.367 . S
C573 C572 1.367 . S
C573 C575 1.433 . S
C574 C570 1.350 . S
C574 C571 1.463 . S
C574 N578 1.427 . S
C575 H565 0.929 . S
C575 C573 1.433 . S
C575 N578 1.384 . S
C576 H567 0.929 . S
C576 C568 1.378 . S
C576 C571 1.350 . S
C577 H564 0.929 . S
C577 C569 1.433 . S
C577 N579 1.384 . S
N578 C574 1.427 . S
N578 C575 1.384 . S
N579 C571 1.427 . S
N579 C577 1.384 . S
H580 C586 0.930 . S
H581 C590 0.930 . S
H582 C595 0.929 . S
H583 C593 0.929 . S
H584 C588 0.929 . S
H585 C594 0.929 . S
C586 H580 0.930 . S
C586 C587 1.367 . S
C586 C594 1.378 . S
C587 C586 1.367 . S
C587 C595 1.433 . S
C588 H584 0.929 . S
C588 C590 1.378 . S
C588 C592 1.350 . S
C589 C592 1.463 . S
C589 C594 1.350 . S
C589 N597 1.427 . S
C590 H581 0.930 . S
C590 C588 1.378 . S
C590 C591 1.367 . S
C591 C590 1.367 . S
C591 C593 1.433 . S
C592 C588 1.350 . S
C592 C589 1.463 . S
C592 N596 1.427 . S
C593 H583 0.929 . S
C593 C591 1.433 . S
C593 N596 1.384 . S
C594 H585 0.929 . S
C594 C586 1.378 . S
C594 C589 1.350 . S
C595 H582 0.929 . S
C595 C587 1.433 . S
C595 N597 1.384 . S
N596 C592 1.427 . S
N596 C593 1.384 . S
N597 C589 1.427 . S
N597 C595 1.384 . S
H598 C604 0.930 . S
H599 C608 0.930 . S
H600 C613 0.929 . S
H601 C611 0.929 . S
H602 C606 0.929 . S
H603 C612 0.929 . S
C604 H598 0.930 . S
C604 C605 1.367 . S
C604 C612 1.378 . S
C605 C604 1.367 . S
C605 C613 1.433 . S
C606 H602 0.929 . S
C606 C608 1.378 . S
C606 C610 1.350 . S
C607 C610 1.463 . S
C607 C612 1.350 . S
C607 N615 1.427 . S
C608 H599 0.930 . S
C608 C606 1.378 . S
C608 C609 1.367 . S
C609 C608 1.367 . S
C609 C611 1.433 . S
C610 C606 1.350 . S
C610 C607 1.463 . S
C610 N614 1.427 . S
C611 H601 0.929 . S
C611 C609 1.433 . S
C611 N614 1.384 . S
C612 H603 0.929 . S
C612 C604 1.378 . S
C612 C607 1.350 . S
C613 H600 0.929 . S
C613 C605 1.433 . S
C613 N615 1.384 . S
N614 C610 1.427 . S
N614 C611 1.384 . S
N615 C607 1.427 . S
N615 C613 1.384 . S
H616 C622 0.930 . S
H617 C626 0.930 . S
H618 C631 0.929 . S
H619 C629 0.929 . S
H620 C624 0.929 . S
H621 C630 0.929 . S
C622 H616 0.930 . S
C622 C623 1.367 . S
C622 C630 1.378 . S
C623 C622 1.367 . S
C623 C631 1.433 . S
C624 H620 0.929 . S
C624 C626 1.378 . S
C624 C628 1.350 . S
C625 C628 1.463 . S
C625 C630 1.350 . S
C625 N633 1.427 . S
C626 H617 0.930 . S
C626 C624 1.378 . S
C626 C627 1.367 . S
C627 C626 1.367 . S
C627 C629 1.433 . S
C628 C624 1.350 . S
C628 C625 1.463 . S
C628 N632 1.427 . S
C629 H619 0.929 . S
C629 C627 1.433 . S
C629 N632 1.384 . S
C630 H621 0.929 . S
C630 C622 1.378 . S
C630 C625 1.350 . S
C631 H618 0.929 . S
C631 C623 1.433 . S
C631 N633 1.384 . S
N632 C628 1.427 . S
N632 C629 1.384 . S
N633 C625 1.427 . S
N633 C631 1.384 . S
H634 C640 0.930 . S
H635 C644 0.930 . S
H636 C649 0.929 . S
H637 C647 0.929 . S
H638 C642 0.929 . S
H639 C648 0.929 . S
C640 H634 0.930 . S
C640 C641 1.367 . S
C640 C648 1.378 . S
C641 C640 1.367 . S
C641 C649 1.433 . S
C642 H638 0.929 . S
C642 C644 1.378 . S
C642 C646 1.350 . S
C643 C646 1.463 . S
C643 C648 1.350 . S
C643 N651 1.427 . S
C644 H635 0.930 . S
C644 C642 1.378 . S
C644 C645 1.367 . S
C645 C644 1.367 . S
C645 C647 1.433 . S
C646 C642 1.350 . S
C646 C643 1.463 . S
C646 N650 1.427 . S
C647 H637 0.929 . S
C647 C645 1.433 . S
C647 N650 1.384 . S
C648 H639 0.929 . S
C648 C640 1.378 . S
C648 C643 1.350 . S
C649 H636 0.929 . S
C649 C641 1.433 . S
C649 N651 1.384 . S
N650 C646 1.427 . S
N650 C647 1.384 . S
N651 C643 1.427 . S
N651 C649 1.384 . S
H652 C658 0.930 . S
H653 C662 0.930 . S
H654 C667 0.929 . S
H655 C665 0.929 . S
H656 C660 0.929 . S
H657 C666 0.929 . S
C658 H652 0.930 . S
C658 C659 1.367 . S
C658 C666 1.378 . S
C659 C658 1.367 . S
C659 C667 1.433 . S
C660 H656 0.929 . S
C660 C662 1.378 . S
C660 C664 1.350 . S
C661 C664 1.463 . S
C661 C666 1.350 . S
C661 N669 1.427 . S
C662 H653 0.930 . S
C662 C660 1.378 . S
C662 C663 1.367 . S
C663 C662 1.367 . S
C663 C665 1.433 . S
C664 C660 1.350 . S
C664 C661 1.463 . S
C664 N668 1.427 . S
C665 H655 0.929 . S
C665 C663 1.433 . S
C665 N668 1.384 . S
C666 H657 0.929 . S
C666 C658 1.378 . S
C666 C661 1.350 . S
C667 H654 0.929 . S
C667 C659 1.433 . S
C667 N669 1.384 . S
N668 C664 1.427 . S
N668 C665 1.384 . S
N669 C661 1.427 . S
N669 C667 1.384 . S
H670 C676 0.930 . S
H671 C680 0.930 . S
H672 C685 0.929 . S
H673 C683 0.929 . S
H674 C678 0.929 . S
H675 C684 0.929 . S
C676 H670 0.930 . S
C676 C677 1.367 . S
C676 C684 1.378 . S
C677 C676 1.367 . S
C677 C685 1.433 . S
C678 H674 0.929 . S
C678 C680 1.378 . S
C678 C682 1.350 . S
C679 C682 1.463 . S
C679 C684 1.350 . S
C679 N687 1.427 . S
C680 H671 0.930 . S
C680 C678 1.378 . S
C680 C681 1.367 . S
C681 C680 1.367 . S
C681 C683 1.433 . S
C682 C678 1.350 . S
C682 C679 1.463 . S
C682 N686 1.427 . S
C683 H673 0.929 . S
C683 C681 1.433 . S
C683 N686 1.384 . S
C684 H675 0.929 . S
C684 C676 1.378 . S
C684 C679 1.350 . S
C685 H672 0.929 . S
C685 C677 1.433 . S
C685 N687 1.384 . S
N686 C682 1.427 . S
N686 C683 1.384 . S
N687 C679 1.427 . S
N687 C685 1.384 . S
H688 C694 0.930 . S
H689 C698 0.930 . S
H690 C703 0.929 . S
H691 C701 0.929 . S
H692 C696 0.929 . S
H693 C702 0.929 . S
C694 H688 0.930 . S
C694 C695 1.367 . S
C694 C702 1.378 . S
C695 C694 1.367 . S
C695 C703 1.433 . S
C696 H692 0.929 . S
C696 C698 1.378 . S
C696 C700 1.350 . S
C697 C700 1.463 . S
C697 C702 1.350 . S
C697 N705 1.427 . S
C698 H689 0.930 . S
C698 C696 1.378 . S
C698 C699 1.367 . S
C699 C698 1.367 . S
C699 C701 1.433 . S
C700 C696 1.350 . S
C700 C697 1.463 . S
C700 N704 1.427 . S
C701 H691 0.929 . S
C701 C699 1.433 . S
C701 N704 1.384 . S
C702 H693 0.929 . S
C702 C694 1.378 . S
C702 C697 1.350 . S
C703 H690 0.929 . S
C703 C695 1.433 . S
C703 N705 1.384 . S
N704 C700 1.427 . S
N704 C701 1.384 . S
N705 C697 1.427 . S
N705 C703 1.384 . S
H706 C712 0.930 . S
H707 C716 0.930 . S
H708 C721 0.929 . S
H709 C719 0.929 . S
H710 C714 0.929 . S
H711 C720 0.929 . S
C712 H706 0.930 . S
C712 C713 1.367 . S
C712 C720 1.378 . S
C713 C712 1.367 . S
C713 C721 1.433 . S
C714 H710 0.929 . S
C714 C716 1.378 . S
C714 C718 1.350 . S
C715 C718 1.463 . S
C715 C720 1.350 . S
C715 N723 1.427 . S
C716 H707 0.930 . S
C716 C714 1.378 . S
C716 C717 1.367 . S
C717 C716 1.367 . S
C717 C719 1.433 . S
C718 C714 1.350 . S
C718 C715 1.463 . S
C718 N722 1.427 . S
C719 H709 0.929 . S
C719 C717 1.433 . S
C719 N722 1.384 . S
C720 H711 0.929 . S
C720 C712 1.378 . S
C720 C715 1.350 . S
C721 H708 0.929 . S
C721 C713 1.433 . S
C721 N723 1.384 . S
N722 C718 1.427 . S
N722 C719 1.384 . S
N723 C715 1.427 . S
N723 C721 1.384 . S
H724 C730 0.930 . S
H725 C734 0.930 . S
H726 C739 0.929 . S
H727 C737 0.929 . S
H728 C732 0.929 . S
H729 C738 0.929 . S
C730 H724 0.930 . S
C730 C731 1.367 . S
C730 C738 1.378 . S
C731 C730 1.367 . S
C731 C739 1.433 . S
C732 H728 0.929 . S
C732 C734 1.378 . S
C732 C736 1.350 . S
C733 C736 1.463 . S
C733 C738 1.350 . S
C733 N741 1.427 . S
C734 H725 0.930 . S
C734 C732 1.378 . S
C734 C735 1.367 . S
C735 C734 1.367 . S
C735 C737 1.433 . S
C736 C732 1.350 . S
C736 C733 1.463 . S
C736 N740 1.427 . S
C737 H727 0.929 . S
C737 C735 1.433 . S
C737 N740 1.384 . S
C738 H729 0.929 . S
C738 C730 1.378 . S
C738 C733 1.350 . S
C739 H726 0.929 . S
C739 C731 1.433 . S
C739 N741 1.384 . S
N740 C736 1.427 . S
N740 C737 1.384 . S
N741 C733 1.427 . S
N741 C739 1.384 . S
H742 C748 0.930 . S
H743 C752 0.930 . S
H744 C757 0.929 . S
H745 C755 0.929 . S
H746 C750 0.929 . S
H747 C756 0.929 . S
C748 H742 0.930 . S
C748 C749 1.367 . S
C748 C756 1.378 . S
C749 C748 1.367 . S
C749 C757 1.433 . S
C750 H746 0.929 . S
C750 C752 1.378 . S
C750 C754 1.350 . S
C751 C754 1.463 . S
C751 C756 1.350 . S
C751 N759 1.427 . S
C752 H743 0.930 . S
C752 C750 1.378 . S
C752 C753 1.367 . S
C753 C752 1.367 . S
C753 C755 1.433 . S
C754 C750 1.350 . S
C754 C751 1.463 . S
C754 N758 1.427 . S
C755 H745 0.929 . S
C755 C753 1.433 . S
C755 N758 1.384 . S
C756 H747 0.929 . S
C756 C748 1.378 . S
C756 C751 1.350 . S
C757 H744 0.929 . S
C757 C749 1.433 . S
C757 N759 1.384 . S
N758 C754 1.427 . S
N758 C755 1.384 . S
N759 C751 1.427 . S
N759 C757 1.384 . S
H760 C766 0.930 . S
H761 C770 0.930 . S
H762 C775 0.929 . S
H763 C773 0.929 . S
H764 C768 0.929 . S
H765 C774 0.929 . S
C766 H760 0.930 . S
C766 C767 1.367 . S
C766 C774 1.378 . S
C767 C766 1.367 . S
C767 C775 1.433 . S
C768 H764 0.929 . S
C768 C770 1.378 . S
C768 C772 1.350 . S
C769 C772 1.463 . S
C769 C774 1.350 . S
C769 N777 1.427 . S
C770 H761 0.930 . S
C770 C768 1.378 . S
C770 C771 1.367 . S
C771 C770 1.367 . S
C771 C773 1.433 . S
C772 C768 1.350 . S
C772 C769 1.463 . S
C772 N776 1.427 . S
C773 H763 0.929 . S
C773 C771 1.433 . S
C773 N776 1.384 . S
C774 H765 0.929 . S
C774 C766 1.378 . S
C774 C769 1.350 . S
C775 H762 0.929 . S
C775 C767 1.433 . S
C775 N777 1.384 . S
N776 C772 1.427 . S
N776 C773 1.384 . S
N777 C769 1.427 . S
N777 C775 1.384 . S
H778 C784 0.930 . S
H779 C788 0.930 . S
H780 C793 0.929 . S
H781 C791 0.929 . S
H782 C786 0.929 . S
H783 C792 0.929 . S
C784 H778 0.930 . S
C784 C785 1.367 . S
C784 C792 1.378 . S
C785 C784 1.367 . S
C785 C793 1.433 . S
C786 H782 0.929 . S
C786 C788 1.378 . S
C786 C790 1.350 . S
C787 C790 1.463 . S
C787 C792 1.350 . S
C787 N795 1.427 . S
C788 H779 0.930 . S
C788 C786 1.378 . S
C788 C789 1.367 . S
C789 C788 1.367 . S
C789 C791 1.433 . S
C790 C786 1.350 . S
C790 C787 1.463 . S
C790 N794 1.427 . S
C791 H781 0.929 . S
C791 C789 1.433 . S
C791 N794 1.384 . S
C792 H783 0.929 . S
C792 C784 1.378 . S
C792 C787 1.350 . S
C793 H780 0.929 . S
C793 C785 1.433 . S
C793 N795 1.384 . S
N794 C790 1.427 . S
N794 C791 1.384 . S
N795 C787 1.427 . S
N795 C793 1.384 . S
H796 C802 0.930 . S
H797 C806 0.930 . S
H798 C811 0.929 . S
H799 C809 0.929 . S
H800 C804 0.929 . S
H801 C810 0.929 . S
C802 H796 0.930 . S
C802 C803 1.367 . S
C802 C810 1.378 . S
C803 C802 1.367 . S
C803 C811 1.433 . S
C804 H800 0.929 . S
C804 C806 1.378 . S
C804 C808 1.350 . S
C805 C808 1.463 . S
C805 C810 1.350 . S
C805 N813 1.427 . S
C806 H797 0.930 . S
C806 C804 1.378 . S
C806 C807 1.367 . S
C807 C806 1.367 . S
C807 C809 1.433 . S
C808 C804 1.350 . S
C808 C805 1.463 . S
C808 N812 1.427 . S
C809 H799 0.929 . S
C809 C807 1.433 . S
C809 N812 1.384 . S
C810 H801 0.929 . S
C810 C802 1.378 . S
C810 C805 1.350 . S
C811 H798 0.929 . S
C811 C803 1.433 . S
C811 N813 1.384 . S
N812 C808 1.427 . S
N812 C809 1.384 . S
N813 C805 1.427 . S
N813 C811 1.384 . S
H814 C820 0.930 . S
H815 C824 0.930 . S
H816 C829 0.929 . S
H817 C827 0.929 . S
H818 C822 0.929 . S
H819 C828 0.929 . S
C820 H814 0.930 . S
C820 C821 1.367 . S
C820 C828 1.378 . S
C821 C820 1.367 . S
C821 C829 1.433 . S
C822 H818 0.929 . S
C822 C824 1.378 . S
C822 C826 1.350 . S
C823 C826 1.463 . S
C823 C828 1.350 . S
C823 N831 1.427 . S
C824 H815 0.930 . S
C824 C822 1.378 . S
C824 C825 1.367 . S
C825 C824 1.367 . S
C825 C827 1.433 . S
C826 C822 1.350 . S
C826 C823 1.463 . S
C826 N830 1.427 . S
C827 H817 0.929 . S
C827 C825 1.433 . S
C827 N830 1.384 . S
C828 H819 0.929 . S
C828 C820 1.378 . S
C828 C823 1.350 . S
C829 H816 0.929 . S
C829 C821 1.433 . S
C829 N831 1.384 . S
N830 C826 1.427 . S
N830 C827 1.384 . S
N831 C823 1.427 . S
N831 C829 1.384 . S
H832 C838 0.930 . S
H833 C842 0.930 . S
H834 C847 0.929 . S
H835 C845 0.929 . S
H836 C840 0.929 . S
H837 C846 0.929 . S
C838 H832 0.930 . S
C838 C839 1.367 . S
C838 C846 1.378 . S
C839 C838 1.367 . S
C839 C847 1.433 . S
C840 H836 0.929 . S
C840 C842 1.378 . S
C840 C844 1.350 . S
C841 C844 1.463 . S
C841 C846 1.350 . S
C841 N849 1.427 . S
C842 H833 0.930 . S
C842 C840 1.378 . S
C842 C843 1.367 . S
C843 C842 1.367 . S
C843 C845 1.433 . S
C844 C840 1.350 . S
C844 C841 1.463 . S
C844 N848 1.427 . S
C845 H835 0.929 . S
C845 C843 1.433 . S
C845 N848 1.384 . S
C846 H837 0.929 . S
C846 C838 1.378 . S
C846 C841 1.350 . S
C847 H834 0.929 . S
C847 C839 1.433 . S
C847 N849 1.384 . S
N848 C844 1.427 . S
N848 C845 1.384 . S
N849 C841 1.427 . S
N849 C847 1.384 . S
H850 C856 0.930 . S
H851 C860 0.930 . S
H852 C865 0.929 . S
H853 C863 0.929 . S
H854 C858 0.929 . S
H855 C864 0.929 . S
C856 H850 0.930 . S
C856 C857 1.367 . S
C856 C864 1.378 . S
C857 C856 1.367 . S
C857 C865 1.433 . S
C858 H854 0.929 . S
C858 C860 1.378 . S
C858 C862 1.350 . S
C859 C862 1.463 . S
C859 C864 1.350 . S
C859 N867 1.427 . S
C860 H851 0.930 . S
C860 C858 1.378 . S
C860 C861 1.367 . S
C861 C860 1.367 . S
C861 C863 1.433 . S
C862 C858 1.350 . S
C862 C859 1.463 . S
C862 N866 1.427 . S
C863 H853 0.929 . S
C863 C861 1.433 . S
C863 N866 1.384 . S
C864 H855 0.929 . S
C864 C856 1.378 . S
C864 C859 1.350 . S
C865 H852 0.929 . S
C865 C857 1.433 . S
C865 N867 1.384 . S
N866 C862 1.427 . S
N866 C863 1.384 . S
N867 C859 1.427 . S
N867 C865 1.384 . S
H868 C874 0.930 . S
H869 C878 0.930 . S
H870 C883 0.929 . S
H871 C881 0.929 . S
H872 C876 0.929 . S
H873 C882 0.929 . S
C874 H868 0.930 . S
C874 C875 1.367 . S
C874 C882 1.378 . S
C875 C874 1.367 . S
C875 C883 1.433 . S
C876 H872 0.929 . S
C876 C878 1.378 . S
C876 C880 1.350 . S
C877 C880 1.463 . S
C877 C882 1.350 . S
C877 N885 1.427 . S
C878 H869 0.930 . S
C878 C876 1.378 . S
C878 C879 1.367 . S
C879 C878 1.367 . S
C879 C881 1.433 . S
C880 C876 1.350 . S
C880 C877 1.463 . S
C880 N884 1.427 . S
C881 H871 0.929 . S
C881 C879 1.433 . S
C881 N884 1.384 . S
C882 H873 0.929 . S
C882 C874 1.378 . S
C882 C877 1.350 . S
C883 H870 0.929 . S
C883 C875 1.433 . S
C883 N885 1.384 . S
N884 C880 1.427 . S
N884 C881 1.384 . S
N885 C877 1.427 . S
N885 C883 1.384 . S
H886 C892 0.930 . S
H887 C896 0.930 . S
H888 C901 0.929 . S
H889 C899 0.929 . S
H890 C894 0.929 . S
H891 C900 0.929 . S
C892 H886 0.930 . S
C892 C893 1.367 . S
C892 C900 1.378 . S
C893 C892 1.367 . S
C893 C901 1.433 . S
C894 H890 0.929 . S
C894 C896 1.378 . S
C894 C898 1.350 . S
C895 C898 1.463 . S
C895 C900 1.350 . S
C895 N903 1.427 . S
C896 H887 0.930 . S
C896 C894 1.378 . S
C896 C897 1.367 . S
C897 C896 1.367 . S
C897 C899 1.433 . S
C898 C894 1.350 . S
C898 C895 1.463 . S
C898 N902 1.427 . S
C899 H889 0.929 . S
C899 C897 1.433 . S
C899 N902 1.384 . S
C900 H891 0.929 . S
C900 C892 1.378 . S
C900 C895 1.350 . S
C901 H888 0.929 . S
C901 C893 1.433 . S
C901 N903 1.384 . S
N902 C898 1.427 . S
N902 C899 1.384 . S
N903 C895 1.427 . S
N903 C901 1.384 . S
H904 C910 0.930 . S
H905 C914 0.930 . S
H906 C919 0.929 . S
H907 C917 0.929 . S
H908 C912 0.929 . S
H909 C918 0.929 . S
C910 H904 0.930 . S
C910 C911 1.367 . S
C910 C918 1.378 . S
C911 C910 1.367 . S
C911 C919 1.433 . S
C912 H908 0.929 . S
C912 C914 1.378 . S
C912 C916 1.350 . S
C913 C916 1.463 . S
C913 C918 1.350 . S
C913 N921 1.427 . S
C914 H905 0.930 . S
C914 C912 1.378 . S
C914 C915 1.367 . S
C915 C914 1.367 . S
C915 C917 1.433 . S
C916 C912 1.350 . S
C916 C913 1.463 . S
C916 N920 1.427 . S
C917 H907 0.929 . S
C917 C915 1.433 . S
C917 N920 1.384 . S
C918 H909 0.929 . S
C918 C910 1.378 . S
C918 C913 1.350 . S
C919 H906 0.929 . S
C919 C911 1.433 . S
C919 N921 1.384 . S
N920 C916 1.427 . S
N920 C917 1.384 . S
N921 C913 1.427 . S
N921 C919 1.384 . S
H922 C928 0.930 . S
H923 C932 0.930 . S
H924 C937 0.929 . S
H925 C935 0.929 . S
H926 C930 0.929 . S
H927 C936 0.929 . S
C928 H922 0.930 . S
C928 C929 1.367 . S
C928 C936 1.378 . S
C929 C928 1.367 . S
C929 C937 1.433 . S
C930 H926 0.929 . S
C930 C932 1.378 . S
C930 C934 1.350 . S
C931 C934 1.463 . S
C931 C936 1.350 . S
C931 N939 1.427 . S
C932 H923 0.930 . S
C932 C930 1.378 . S
C932 C933 1.367 . S
C933 C932 1.367 . S
C933 C935 1.433 . S
C934 C930 1.350 . S
C934 C931 1.463 . S
C934 N938 1.427 . S
C935 H925 0.929 . S
C935 C933 1.433 . S
C935 N938 1.384 . S
C936 H927 0.929 . S
C936 C928 1.378 . S
C936 C931 1.350 . S
C937 H924 0.929 . S
C937 C929 1.433 . S
C937 N939 1.384 . S
N938 C934 1.427 . S
N938 C935 1.384 . S
N939 C931 1.427 . S
N939 C937 1.384 . S
H940 C946 0.930 . S
H941 C950 0.930 . S
H942 C955 0.929 . S
H943 C953 0.929 . S
H944 C948 0.929 . S
H945 C954 0.929 . S
C946 H940 0.930 . S
C946 C947 1.367 . S
C946 C954 1.378 . S
C947 C946 1.367 . S
C947 C955 1.433 . S
C948 H944 0.929 . S
C948 C950 1.378 . S
C948 C952 1.350 . S
C949 C952 1.463 . S
C949 C954 1.350 . S
C949 N957 1.427 . S
C950 H941 0.930 . S
C950 C948 1.378 . S
C950 C951 1.367 . S
C951 C950 1.367 . S
C951 C953 1.433 . S
C952 C948 1.350 . S
C952 C949 1.463 . S
C952 N956 1.427 . S
C953 H943 0.929 . S
C953 C951 1.433 . S
C953 N956 1.384 . S
C954 H945 0.929 . S
C954 C946 1.378 . S
C954 C949 1.350 . S
C955 H942 0.929 . S
C955 C947 1.433 . S
C955 N957 1.384 . S
N956 C952 1.427 . S
N956 C953 1.384 . S
N957 C949 1.427 . S
N957 C955 1.384 . S
H958 C964 0.930 . S
H959 C968 0.930 . S
H960 C973 0.929 . S
H961 C971 0.929 . S
H962 C966 0.929 . S
H963 C972 0.929 . S
C964 H958 0.930 . S
C964 C965 1.367 . S
C964 C972 1.378 . S
C965 C964 1.367 . S
C965 C973 1.433 . S
C966 H962 0.929 . S
C966 C968 1.378 . S
C966 C970 1.350 . S
C967 C970 1.463 . S
C967 C972 1.350 . S
C967 N975 1.427 . S
C968 H959 0.930 . S
C968 C966 1.378 . S
C968 C969 1.367 . S
C969 C968 1.367 . S
C969 C971 1.433 . S
C970 C966 1.350 . S
C970 C967 1.463 . S
C970 N974 1.427 . S
C971 H961 0.929 . S
C971 C969 1.433 . S
C971 N974 1.384 . S
C972 H963 0.929 . S
C972 C964 1.378 . S
C972 C967 1.350 . S
C973 H960 0.929 . S
C973 C965 1.433 . S
C973 N975 1.384 . S
N974 C970 1.427 . S
N974 C971 1.384 . S
N975 C967 1.427 . S
N975 C973 1.384 . S
H976 C982 0.930 . S
H977 C986 0.930 . S
H978 C991 0.929 . S
H979 C989 0.929 . S
H980 C984 0.929 . S
H981 C990 0.929 . S
C982 H976 0.930 . S
C982 C983 1.367 . S
C982 C990 1.378 . S
C983 C982 1.367 . S
C983 C991 1.433 . S
C984 H980 0.929 . S
C984 C986 1.378 . S
C984 C988 1.350 . S
C985 C988 1.463 . S
C985 C990 1.350 . S
C985 N993 1.427 . S
C986 H977 0.930 . S
C986 C984 1.378 . S
C986 C987 1.367 . S
C987 C986 1.367 . S
C987 C989 1.433 . S
C988 C984 1.350 . S
C988 C985 1.463 . S
C988 N992 1.427 . S
C989 H979 0.929 . S
C989 C987 1.433 . S
C989 N992 1.384 . S
C990 H981 0.929 . S
C990 C982 1.378 . S
C990 C985 1.350 . S
C991 H978 0.929 . S
C991 C983 1.433 . S
C991 N993 1.384 . S
N992 C988 1.427 . S
N992 C989 1.384 . S
N993 C985 1.427 . S
N993 C991 1.384 . S
H994 C1000 0.930 . S
H995 C1004 0.930 . S
H996 C1009 0.929 . S
H997 C1007 0.929 . S
H998 C1002 0.929 . S
H999 C1008 0.929 . S
C1000 H994 0.930 . S
C1000 C1001 1.367 . S
C1000 C1008 1.378 . S
C1001 C1000 1.367 . S
C1001 C1009 1.433 . S
C1002 H998 0.929 . S
C1002 C1004 1.378 . S
C1002 C1006 1.350 . S
C1003 C1006 1.463 . S
C1003 C1008 1.350 . S
C1003 N1011 1.427 . S
C1004 H995 0.930 . S
C1004 C1002 1.378 . S
C1004 C1005 1.367 . S
C1005 C1004 1.367 . S
C1005 C1007 1.433 . S
C1006 C1002 1.350 . S
C1006 C1003 1.463 . S
C1006 N1010 1.427 . S
C1007 H997 0.929 . S
C1007 C1005 1.433 . S
C1007 N1010 1.384 . S
C1008 H999 0.929 . S
C1008 C1000 1.378 . S
C1008 C1003 1.350 . S
C1009 H996 0.929 . S
C1009 C1001 1.433 . S
C1009 N1011 1.384 . S
N1010 C1006 1.427 . S
N1010 C1007 1.384 . S
N1011 C1003 1.427 . S
N1011 C1009 1.384 . S
H1012 C1018 0.930 . S
H1013 C1022 0.930 . S
H1014 C1027 0.929 . S
H1015 C1025 0.929 . S
H1016 C1020 0.929 . S
H1017 C1026 0.929 . S
C1018 H1012 0.930 . S
C1018 C1019 1.367 . S
C1018 C1026 1.378 . S
C1019 C1018 1.367 . S
C1019 C1027 1.433 . S
C1020 H1016 0.929 . S
C1020 C1022 1.378 . S
C1020 C1024 1.350 . S
C1021 C1024 1.463 . S
C1021 C1026 1.350 . S
C1021 N1029 1.427 . S
C1022 H1013 0.930 . S
C1022 C1020 1.378 . S
C1022 C1023 1.367 . S
C1023 C1022 1.367 . S
C1023 C1025 1.433 . S
C1024 C1020 1.350 . S
C1024 C1021 1.463 . S
C1024 N1028 1.427 . S
C1025 H1015 0.929 . S
C1025 C1023 1.433 . S
C1025 N1028 1.384 . S
C1026 H1017 0.929 . S
C1026 C1018 1.378 . S
C1026 C1021 1.350 . S
C1027 H1014 0.929 . S
C1027 C1019 1.433 . S
C1027 N1029 1.384 . S
N1028 C1024 1.427 . S
N1028 C1025 1.384 . S
N1029 C1021 1.427 . S
N1029 C1027 1.384 . S
H1030 C1036 0.930 . S
H1031 C1040 0.930 . S
H1032 C1045 0.929 . S
H1033 C1043 0.929 . S
H1034 C1038 0.929 . S
H1035 C1044 0.929 . S
C1036 H1030 0.930 . S
C1036 C1037 1.367 . S
C1036 C1044 1.378 . S
C1037 C1036 1.367 . S
C1037 C1045 1.433 . S
C1038 H1034 0.929 . S
C1038 C1040 1.378 . S
C1038 C1042 1.350 . S
C1039 C1042 1.463 . S
C1039 C1044 1.350 . S
C1039 N1047 1.427 . S
C1040 H1031 0.930 . S
C1040 C1038 1.378 . S
C1040 C1041 1.367 . S
C1041 C1040 1.367 . S
C1041 C1043 1.433 . S
C1042 C1038 1.350 . S
C1042 C1039 1.463 . S
C1042 N1046 1.427 . S
C1043 H1033 0.929 . S
C1043 C1041 1.433 . S
C1043 N1046 1.384 . S
C1044 H1035 0.929 . S
C1044 C1036 1.378 . S
C1044 C1039 1.350 . S
C1045 H1032 0.929 . S
C1045 C1037 1.433 . S
C1045 N1047 1.384 . S
N1046 C1042 1.427 . S
N1046 C1043 1.384 . S
N1047 C1039 1.427 . S
N1047 C1045 1.384 . S
H1048 C1054 0.930 . S
H1049 C1058 0.930 . S
H1050 C1063 0.929 . S
H1051 C1061 0.929 . S
H1052 C1056 0.929 . S
H1053 C1062 0.929 . S
C1054 H1048 0.930 . S
C1054 C1055 1.367 . S
C1054 C1062 1.378 . S
C1055 C1054 1.367 . S
C1055 C1063 1.433 . S
C1056 H1052 0.929 . S
C1056 C1058 1.378 . S
C1056 C1060 1.350 . S
C1057 C1060 1.463 . S
C1057 C1062 1.350 . S
C1057 N1065 1.427 . S
C1058 H1049 0.930 . S
C1058 C1056 1.378 . S
C1058 C1059 1.367 . S
C1059 C1058 1.367 . S
C1059 C1061 1.433 . S
C1060 C1056 1.350 . S
C1060 C1057 1.463 . S
C1060 N1064 1.427 . S
C1061 H1051 0.929 . S
C1061 C1059 1.433 . S
C1061 N1064 1.384 . S
C1062 H1053 0.929 . S
C1062 C1054 1.378 . S
C1062 C1057 1.350 . S
C1063 H1050 0.929 . S
C1063 C1055 1.433 . S
C1063 N1065 1.384 . S
N1064 C1060 1.427 . S
N1064 C1061 1.384 . S
N1065 C1057 1.427 . S
N1065 C1063 1.384 . S
H1066 C1072 0.930 . S
H1067 C1076 0.930 . S
H1068 C1081 0.929 . S
H1069 C1079 0.929 . S
H1070 C1074 0.929 . S
H1071 C1080 0.929 . S
C1072 H1066 0.930 . S
C1072 C1073 1.367 . S
C1072 C1080 1.378 . S
C1073 C1072 1.367 . S
C1073 C1081 1.433 . S
C1074 H1070 0.929 . S
C1074 C1076 1.378 . S
C1074 C1078 1.350 . S
C1075 C1078 1.463 . S
C1075 C1080 1.350 . S
C1075 N1083 1.427 . S
C1076 H1067 0.930 . S
C1076 C1074 1.378 . S
C1076 C1077 1.367 . S
C1077 C1076 1.367 . S
C1077 C1079 1.433 . S
C1078 C1074 1.350 . S
C1078 C1075 1.463 . S
C1078 N1082 1.427 . S
C1079 H1069 0.929 . S
C1079 C1077 1.433 . S
C1079 N1082 1.384 . S
C1080 H1071 0.929 . S
C1080 C1072 1.378 . S
C1080 C1075 1.350 . S
C1081 H1068 0.929 . S
C1081 C1073 1.433 . S
C1081 N1083 1.384 . S
N1082 C1078 1.427 . S
N1082 C1079 1.384 . S
N1083 C1075 1.427 . S
N1083 C1081 1.384 . S
H1084 C1090 0.930 . S
H1085 C1094 0.930 . S
H1086 C1099 0.929 . S
H1087 C1097 0.929 . S
H1088 C1092 0.929 . S
H1089 C1098 0.929 . S
C1090 H1084 0.930 . S
C1090 C1091 1.367 . S
C1090 C1098 1.378 . S
C1091 C1090 1.367 . S
C1091 C1099 1.433 . S
C1092 H1088 0.929 . S
C1092 C1094 1.378 . S
C1092 C1096 1.350 . S
C1093 C1096 1.463 . S
C1093 C1098 1.350 . S
C1093 N1101 1.427 . S
C1094 H1085 0.930 . S
C1094 C1092 1.378 . S
C1094 C1095 1.367 . S
C1095 C1094 1.367 . S
C1095 C1097 1.433 . S
C1096 C1092 1.350 . S
C1096 C1093 1.463 . S
C1096 N1100 1.427 . S
C1097 H1087 0.929 . S
C1097 C1095 1.433 . S
C1097 N1100 1.384 . S
C1098 H1089 0.929 . S
C1098 C1090 1.378 . S
C1098 C1093 1.350 . S
C1099 H1086 0.929 . S
C1099 C1091 1.433 . S
C1099 N1101 1.384 . S
N1100 C1096 1.427 . S
N1100 C1097 1.384 . S
N1101 C1093 1.427 . S
N1101 C1099 1.384 . S
H1102 C1108 0.930 . S
H1103 C1112 0.930 . S
H1104 C1117 0.929 . S
H1105 C1115 0.929 . S
H1106 C1110 0.929 . S
H1107 C1116 0.929 . S
C1108 H1102 0.930 . S
C1108 C1109 1.367 . S
C1108 C1116 1.378 . S
C1109 C1108 1.367 . S
C1109 C1117 1.433 . S
C1110 H1106 0.929 . S
C1110 C1112 1.378 . S
C1110 C1114 1.350 . S
C1111 C1114 1.463 . S
C1111 C1116 1.350 . S
C1111 N1119 1.427 . S
C1112 H1103 0.930 . S
C1112 C1110 1.378 . S
C1112 C1113 1.367 . S
C1113 C1112 1.367 . S
C1113 C1115 1.433 . S
C1114 C1110 1.350 . S
C1114 C1111 1.463 . S
C1114 N1118 1.427 . S
C1115 H1105 0.929 . S
C1115 C1113 1.433 . S
C1115 N1118 1.384 . S
C1116 H1107 0.929 . S
C1116 C1108 1.378 . S
C1116 C1111 1.350 . S
C1117 H1104 0.929 . S
C1117 C1109 1.433 . S
C1117 N1119 1.384 . S
N1118 C1114 1.427 . S
N1118 C1115 1.384 . S
N1119 C1111 1.427 . S
N1119 C1117 1.384 . S
H1120 C1126 0.930 . S
H1121 C1130 0.930 . S
H1122 C1135 0.929 . S
H1123 C1133 0.929 . S
H1124 C1128 0.929 . S
H1125 C1134 0.929 . S
C1126 H1120 0.930 . S
C1126 C1127 1.367 . S
C1126 C1134 1.378 . S
C1127 C1126 1.367 . S
C1127 C1135 1.433 . S
C1128 H1124 0.929 . S
C1128 C1130 1.378 . S
C1128 C1132 1.350 . S
C1129 C1132 1.463 . S
C1129 C1134 1.350 . S
C1129 N1137 1.427 . S
C1130 H1121 0.930 . S
C1130 C1128 1.378 . S
C1130 C1131 1.367 . S
C1131 C1130 1.367 . S
C1131 C1133 1.433 . S
C1132 C1128 1.350 . S
C1132 C1129 1.463 . S
C1132 N1136 1.427 . S
C1133 H1123 0.929 . S
C1133 C1131 1.433 . S
C1133 N1136 1.384 . S
C1134 H1125 0.929 . S
C1134 C1126 1.378 . S
C1134 C1129 1.350 . S
C1135 H1122 0.929 . S
C1135 C1127 1.433 . S
C1135 N1137 1.384 . S
N1136 C1132 1.427 . S
N1136 C1133 1.384 . S
N1137 C1129 1.427 . S
N1137 C1135 1.384 . S
H1138 C1144 0.930 . S
H1139 C1148 0.930 . S
H1140 C1153 0.929 . S
H1141 C1151 0.929 . S
H1142 C1146 0.929 . S
H1143 C1152 0.929 . S
C1144 H1138 0.930 . S
C1144 C1145 1.367 . S
C1144 C1152 1.378 . S
C1145 C1144 1.367 . S
C1145 C1153 1.433 . S
C1146 H1142 0.929 . S
C1146 C1148 1.378 . S
C1146 C1150 1.350 . S
C1147 C1150 1.463 . S
C1147 C1152 1.350 . S
C1147 N1155 1.427 . S
C1148 H1139 0.930 . S
C1148 C1146 1.378 . S
C1148 C1149 1.367 . S
C1149 C1148 1.367 . S
C1149 C1151 1.433 . S
C1150 C1146 1.350 . S
C1150 C1147 1.463 . S
C1150 N1154 1.427 . S
C1151 H1141 0.929 . S
C1151 C1149 1.433 . S
C1151 N1154 1.384 . S
C1152 H1143 0.929 . S
C1152 C1144 1.378 . S
C1152 C1147 1.350 . S
C1153 H1140 0.929 . S
C1153 C1145 1.433 . S
C1153 N1155 1.384 . S
N1154 C1150 1.427 . S
N1154 C1151 1.384 . S
N1155 C1147 1.427 . S
N1155 C1153 1.384 . S
H1156 C1162 0.930 . S
H1157 C1166 0.930 . S
H1158 C1171 0.929 . S
H1159 C1169 0.929 . S
H1160 C1164 0.929 . S
H1161 C1170 0.929 . S
C1162 H1156 0.930 . S
C1162 C1163 1.367 . S
C1162 C1170 1.378 . S
C1163 C1162 1.367 . S
C1163 C1171 1.433 . S
C1164 H1160 0.929 . S
C1164 C1166 1.378 . S
C1164 C1168 1.350 . S
C1165 C1168 1.463 . S
C1165 C1170 1.350 . S
C1165 N1173 1.427 . S
C1166 H1157 0.930 . S
C1166 C1164 1.378 . S
C1166 C1167 1.367 . S
C1167 C1166 1.367 . S
C1167 C1169 1.433 . S
C1168 C1164 1.350 . S
C1168 C1165 1.463 . S
C1168 N1172 1.427 . S
C1169 H1159 0.929 . S
C1169 C1167 1.433 . S
C1169 N1172 1.384 . S
C1170 H1161 0.929 . S
C1170 C1162 1.378 . S
C1170 C1165 1.350 . S
C1171 H1158 0.929 . S
C1171 C1163 1.433 . S
C1171 N1173 1.384 . S
N1172 C1168 1.427 . S
N1172 C1169 1.384 . S
N1173 C1165 1.427 . S
N1173 C1171 1.384 . S
H1174 C1180 0.930 . S
H1175 C1184 0.930 . S
H1176 C1189 0.929 . S
H1177 C1187 0.929 . S
H1178 C1182 0.929 . S
H1179 C1188 0.929 . S
C1180 H1174 0.930 . S
C1180 C1181 1.367 . S
C1180 C1188 1.378 . S
C1181 C1180 1.367 . S
C1181 C1189 1.433 . S
C1182 H1178 0.929 . S
C1182 C1184 1.378 . S
C1182 C1186 1.350 . S
C1183 C1186 1.463 . S
C1183 C1188 1.350 . S
C1183 N1191 1.427 . S
C1184 H1175 0.930 . S
C1184 C1182 1.378 . S
C1184 C1185 1.367 . S
C1185 C1184 1.367 . S
C1185 C1187 1.433 . S
C1186 C1182 1.350 . S
C1186 C1183 1.463 . S
C1186 N1190 1.427 . S
C1187 H1177 0.929 . S
C1187 C1185 1.433 . S
C1187 N1190 1.384 . S
C1188 H1179 0.929 . S
C1188 C1180 1.378 . S
C1188 C1183 1.350 . S
C1189 H1176 0.929 . S
C1189 C1181 1.433 . S
C1189 N1191 1.384 . S
N1190 C1186 1.427 . S
N1190 C1187 1.384 . S
N1191 C1183 1.427 . S
N1191 C1189 1.384 . S
H1192 C1198 0.930 . S
H1193 C1202 0.930 . S
H1194 C1207 0.929 . S
H1195 C1205 0.929 . S
H1196 C1200 0.929 . S
H1197 C1206 0.929 . S
C1198 H1192 0.930 . S
C1198 C1199 1.367 . S
C1198 C1206 1.378 . S
C1199 C1198 1.367 . S
C1199 C1207 1.433 . S
C1200 H1196 0.929 . S
C1200 C1202 1.378 . S
C1200 C1204 1.350 . S
C1201 C1204 1.463 . S
C1201 C1206 1.350 . S
C1201 N1209 1.427 . S
C1202 H1193 0.930 . S
C1202 C1200 1.378 . S
C1202 C1203 1.367 . S
C1203 C1202 1.367 . S
C1203 C1205 1.433 . S
C1204 C1200 1.350 . S
C1204 C1201 1.463 . S
C1204 N1208 1.427 . S
C1205 H1195 0.929 . S
C1205 C1203 1.433 . S
C1205 N1208 1.384 . S
C1206 H1197 0.929 . S
C1206 C1198 1.378 . S
C1206 C1201 1.350 . S
C1207 H1194 0.929 . S
C1207 C1199 1.433 . S
C1207 N1209 1.384 . S
N1208 C1204 1.427 . S
N1208 C1205 1.384 . S
N1209 C1201 1.427 . S
N1209 C1207 1.384 . S
H1210 C1216 0.930 . S
H1211 C1220 0.930 . S
H1212 C1225 0.929 . S
H1213 C1223 0.929 . S
H1214 C1218 0.929 . S
H1215 C1224 0.929 . S
C1216 H1210 0.930 . S
C1216 C1217 1.367 . S
C1216 C1224 1.378 . S
C1217 C1216 1.367 . S
C1217 C1225 1.433 . S
C1218 H1214 0.929 . S
C1218 C1220 1.378 . S
C1218 C1222 1.350 . S
C1219 C1222 1.463 . S
C1219 C1224 1.350 . S
C1219 N1227 1.427 . S
C1220 H1211 0.930 . S
C1220 C1218 1.378 . S
C1220 C1221 1.367 . S
C1221 C1220 1.367 . S
C1221 C1223 1.433 . S
C1222 C1218 1.350 . S
C1222 C1219 1.463 . S
C1222 N1226 1.427 . S
C1223 H1213 0.929 . S
C1223 C1221 1.433 . S
C1223 N1226 1.384 . S
C1224 H1215 0.929 . S
C1224 C1216 1.378 . S
C1224 C1219 1.350 . S
C1225 H1212 0.929 . S
C1225 C1217 1.433 . S
C1225 N1227 1.384 . S
N1226 C1222 1.427 . S
N1226 C1223 1.384 . S
N1227 C1219 1.427 . S
N1227 C1225 1.384 . S
H1228 C1234 0.930 . S
H1229 C1238 0.930 . S
H1230 C1243 0.929 . S
H1231 C1241 0.929 . S
H1232 C1236 0.929 . S
H1233 C1242 0.929 . S
C1234 H1228 0.930 . S
C1234 C1235 1.367 . S
C1234 C1242 1.378 . S
C1235 C1234 1.367 . S
C1235 C1243 1.433 . S
C1236 H1232 0.929 . S
C1236 C1238 1.378 . S
C1236 C1240 1.350 . S
C1237 C1240 1.463 . S
C1237 C1242 1.350 . S
C1237 N1245 1.427 . S
C1238 H1229 0.930 . S
C1238 C1236 1.378 . S
C1238 C1239 1.367 . S
C1239 C1238 1.367 . S
C1239 C1241 1.433 . S
C1240 C1236 1.350 . S
C1240 C1237 1.463 . S
C1240 N1244 1.427 . S
C1241 H1231 0.929 . S
C1241 C1239 1.433 . S
C1241 N1244 1.384 . S
C1242 H1233 0.929 . S
C1242 C1234 1.378 . S
C1242 C1237 1.350 . S
C1243 H1230 0.929 . S
C1243 C1235 1.433 . S
C1243 N1245 1.384 . S
N1244 C1240 1.427 . S
N1244 C1241 1.384 . S
N1245 C1237 1.427 . S
N1245 C1243 1.384 . S
H1246 C1252 0.930 . S
H1247 C1256 0.930 . S
H1248 C1261 0.929 . S
H1249 C1259 0.929 . S
H1250 C1254 0.929 . S
H1251 C1260 0.929 . S
C1252 H1246 0.930 . S
C1252 C1253 1.367 . S
C1252 C1260 1.378 . S
C1253 C1252 1.367 . S
C1253 C1261 1.433 . S
C1254 H1250 0.929 . S
C1254 C1256 1.378 . S
C1254 C1258 1.350 . S
C1255 C1258 1.463 . S
C1255 C1260 1.350 . S
C1255 N1263 1.427 . S
C1256 H1247 0.930 . S
C1256 C1254 1.378 . S
C1256 C1257 1.367 . S
C1257 C1256 1.367 . S
C1257 C1259 1.433 . S
C1258 C1254 1.350 . S
C1258 C1255 1.463 . S
C1258 N1262 1.427 . S
C1259 H1249 0.929 . S
C1259 C1257 1.433 . S
C1259 N1262 1.384 . S
C1260 H1251 0.929 . S
C1260 C1252 1.378 . S
C1260 C1255 1.350 . S
C1261 H1248 0.929 . S
C1261 C1253 1.433 . S
C1261 N1263 1.384 . S
N1262 C1258 1.427 . S
N1262 C1259 1.384 . S
N1263 C1255 1.427 . S
N1263 C1261 1.384 . S
H1264 C1270 0.930 . S
H1265 C1274 0.930 . S
H1266 C1279 0.929 . S
H1267 C1277 0.929 . S
H1268 C1272 0.929 . S
H1269 C1278 0.929 . S
C1270 H1264 0.930 . S
C1270 C1271 1.367 . S
C1270 C1278 1.378 . S
C1271 C1270 1.367 . S
C1271 C1279 1.433 . S
C1272 H1268 0.929 . S
C1272 C1274 1.378 . S
C1272 C1276 1.350 . S
C1273 C1276 1.463 . S
C1273 C1278 1.350 . S
C1273 N1281 1.427 . S
C1274 H1265 0.930 . S
C1274 C1272 1.378 . S
C1274 C1275 1.367 . S
C1275 C1274 1.367 . S
C1275 C1277 1.433 . S
C1276 C1272 1.350 . S
C1276 C1273 1.463 . S
C1276 N1280 1.427 . S
C1277 H1267 0.929 . S
C1277 C1275 1.433 . S
C1277 N1280 1.384 . S
C1278 H1269 0.929 . S
C1278 C1270 1.378 . S
C1278 C1273 1.350 . S
C1279 H1266 0.929 . S
C1279 C1271 1.433 . S
C1279 N1281 1.384 . S
N1280 C1276 1.427 . S
N1280 C1277 1.384 . S
N1281 C1273 1.427 . S
N1281 C1279 1.384 . S
H1282 C1288 0.930 . S
H1283 C1292 0.930 . S
H1284 C1297 0.929 . S
H1285 C1295 0.929 . S
H1286 C1290 0.929 . S
H1287 C1296 0.929 . S
C1288 H1282 0.930 . S
C1288 C1289 1.367 . S
C1288 C1296 1.378 . S
C1289 C1288 1.367 . S
C1289 C1297 1.433 . S
C1290 H1286 0.929 . S
C1290 C1292 1.378 . S
C1290 C1294 1.350 . S
C1291 C1294 1.463 . S
C1291 C1296 1.350 . S
C1291 N1299 1.427 . S
C1292 H1283 0.930 . S
C1292 C1290 1.378 . S
C1292 C1293 1.367 . S
C1293 C1292 1.367 . S
C1293 C1295 1.433 . S
C1294 C1290 1.350 . S
C1294 C1291 1.463 . S
C1294 N1298 1.427 . S
C1295 H1285 0.929 . S
C1295 C1293 1.433 . S
C1295 N1298 1.384 . S
C1296 H1287 0.929 . S
C1296 C1288 1.378 . S
C1296 C1291 1.350 . S
C1297 H1284 0.929 . S
C1297 C1289 1.433 . S
C1297 N1299 1.384 . S
N1298 C1294 1.427 . S
N1298 C1295 1.384 . S
N1299 C1291 1.427 . S
N1299 C1297 1.384 . S
H1300 C1306 0.930 . S
H1301 C1310 0.930 . S
H1302 C1315 0.929 . S
H1303 C1313 0.929 . S
H1304 C1308 0.929 . S
H1305 C1314 0.929 . S
C1306 H1300 0.930 . S
C1306 C1307 1.367 . S
C1306 C1314 1.378 . S
C1307 C1306 1.367 . S
C1307 C1315 1.433 . S
C1308 H1304 0.929 . S
C1308 C1310 1.378 . S
C1308 C1312 1.350 . S
C1309 C1312 1.463 . S
C1309 C1314 1.350 . S
C1309 N1317 1.427 . S
C1310 H1301 0.930 . S
C1310 C1308 1.378 . S
C1310 C1311 1.367 . S
C1311 C1310 1.367 . S
C1311 C1313 1.433 . S
C1312 C1308 1.350 . S
C1312 C1309 1.463 . S
C1312 N1316 1.427 . S
C1313 H1303 0.929 . S
C1313 C1311 1.433 . S
C1313 N1316 1.384 . S
C1314 H1305 0.929 . S
C1314 C1306 1.378 . S
C1314 C1309 1.350 . S
C1315 H1302 0.929 . S
C1315 C1307 1.433 . S
C1315 N1317 1.384 . S
N1316 C1312 1.427 . S
N1316 C1313 1.384 . S
N1317 C1309 1.427 . S
N1317 C1315 1.384 . S
H1318 C1324 0.930 . S
H1319 C1328 0.930 . S
H1320 C1333 0.929 . S
H1321 C1331 0.929 . S
H1322 C1326 0.929 . S
H1323 C1332 0.929 . S
C1324 H1318 0.930 . S
C1324 C1325 1.367 . S
C1324 C1332 1.378 . S
C1325 C1324 1.367 . S
C1325 C1333 1.433 . S
C1326 H1322 0.929 . S
C1326 C1328 1.378 . S
C1326 C1330 1.350 . S
C1327 C1330 1.463 . S
C1327 C1332 1.350 . S
C1327 N1335 1.427 . S
C1328 H1319 0.930 . S
C1328 C1326 1.378 . S
C1328 C1329 1.367 . S
C1329 C1328 1.367 . S
C1329 C1331 1.433 . S
C1330 C1326 1.350 . S
C1330 C1327 1.463 . S
C1330 N1334 1.427 . S
C1331 H1321 0.929 . S
C1331 C1329 1.433 . S
C1331 N1334 1.384 . S
C1332 H1323 0.929 . S
C1332 C1324 1.378 . S
C1332 C1327 1.350 . S
C1333 H1320 0.929 . S
C1333 C1325 1.433 . S
C1333 N1335 1.384 . S
N1334 C1330 1.427 . S
N1334 C1331 1.384 . S
N1335 C1327 1.427 . S
N1335 C1333 1.384 . S
H1336 C1342 0.930 . S
H1337 C1346 0.930 . S
H1338 C1351 0.929 . S
H1339 C1349 0.929 . S
H1340 C1344 0.929 . S
H1341 C1350 0.929 . S
C1342 H1336 0.930 . S
C1342 C1343 1.367 . S
C1342 C1350 1.378 . S
C1343 C1342 1.367 . S
C1343 C1351 1.433 . S
C1344 H1340 0.929 . S
C1344 C1346 1.378 . S
C1344 C1348 1.350 . S
C1345 C1348 1.463 . S
C1345 C1350 1.350 . S
C1345 N1353 1.427 . S
C1346 H1337 0.930 . S
C1346 C1344 1.378 . S
C1346 C1347 1.367 . S
C1347 C1346 1.367 . S
C1347 C1349 1.433 . S
C1348 C1344 1.350 . S
C1348 C1345 1.463 . S
C1348 N1352 1.427 . S
C1349 H1339 0.929 . S
C1349 C1347 1.433 . S
C1349 N1352 1.384 . S
C1350 H1341 0.929 . S
C1350 C1342 1.378 . S
C1350 C1345 1.350 . S
C1351 H1338 0.929 . S
C1351 C1343 1.433 . S
C1351 N1353 1.384 . S
N1352 C1348 1.427 . S
N1352 C1349 1.384 . S
N1353 C1345 1.427 . S
N1353 C1351 1.384 . S
H1354 C1360 0.930 . S
H1355 C1364 0.930 . S
H1356 C1369 0.929 . S
H1357 C1367 0.929 . S
H1358 C1362 0.929 . S
H1359 C1368 0.929 . S
C1360 H1354 0.930 . S
C1360 C1361 1.367 . S
C1360 C1368 1.378 . S
C1361 C1360 1.367 . S
C1361 C1369 1.433 . S
C1362 H1358 0.929 . S
C1362 C1364 1.378 . S
C1362 C1366 1.350 . S
C1363 C1366 1.463 . S
C1363 C1368 1.350 . S
C1363 N1371 1.427 . S
C1364 H1355 0.930 . S
C1364 C1362 1.378 . S
C1364 C1365 1.367 . S
C1365 C1364 1.367 . S
C1365 C1367 1.433 . S
C1366 C1362 1.350 . S
C1366 C1363 1.463 . S
C1366 N1370 1.427 . S
C1367 H1357 0.929 . S
C1367 C1365 1.433 . S
C1367 N1370 1.384 . S
C1368 H1359 0.929 . S
C1368 C1360 1.378 . S
C1368 C1363 1.350 . S
C1369 H1356 0.929 . S
C1369 C1361 1.433 . S
C1369 N1371 1.384 . S
N1370 C1366 1.427 . S
N1370 C1367 1.384 . S
N1371 C1363 1.427 . S
N1371 C1369 1.384 . S
C519 C219 1.051 . S
C515 C17 1.048 . S
C537 C197 1.740 . S
C533 C44 1.717 . S
C555 C194 0.713 . S
C551 C63 0.710 . S
C569 C87 1.625 . S
C573 C206 1.516 . S
C587 C110 1.593 . S
C591 C189 1.496 . S
C609 C211 0.713 . S
C605 C131 0.715 . S
C623 C159 1.702 . S
C627 C216 1.722 . S
C641 C177 1.073 . S
C645 C212 1.068 . S
C663 C270 1.636 . S
C659 C20 1.565 . S
C677 C42 1.226 . S
C681 C320 1.223 . S
C699 C243 1.714 . S
C695 C66 1.608 . S
C717 C319 0.694 . S
C713 C86 0.706 . S
C731 C109 0.686 . S
C735 C248 0.687 . S
C753 C314 1.719 . S
C749 C136 1.643 . S
C767 C157 1.220 . S
C771 C273 1.213 . S
C785 C182 1.594 . S
C789 C305 1.647 . S
C803 C18 1.645 . S
C807 C297 1.591 . S
C821 C112 1.181 . S
C825 C327 1.295 . S
C843 C251 1.575 . S
C839 C134 1.596 . S
C861 C302 0.888 . S
C857 C154 0.886 . S
C875 C180 1.588 . S
C879 C260 1.579 . S
C893 C64 1.644 . S
C897 C324 1.591 . S
C915 C266 1.292 . S
C911 C89 1.161 . S
C929 C39 0.879 . S
C933 C265 0.894 . S
C947 C178 1.052 . S
C951 C381 1.048 . S
C965 C113 1.733 . S
C969 C359 1.757 . S
C987 C356 0.698 . S
C983 C132 0.700 . S
C1005 C368 1.532 . S
C1001 C156 1.624 . S
C1019 C41 1.595 . S
C1023 C351 1.494 . S
C1041 C373 0.727 . S
C1037 C62 0.725 . S
C1055 C90 1.695 . S
C1059 C378 1.715 . S
C1073 C16 1.066 . S
C1077 C374 1.073 . S
C1091 C181 1.571 . S
C1095 C432 1.639 . S
C1113 C482 1.231 . S
C1109 C111 1.219 . S
C1127 C135 1.600 . S
C1131 C405 1.723 . S
C1145 C155 0.698 . S
C1149 C481 0.693 . S
C1167 C410 0.679 . S
C1163 C40 0.692 . S
C1181 C67 1.655 . S
C1185 C476 1.727 . S
C1203 C435 1.213 . S
C1199 C88 1.220 . S
C1221 C467 1.657 . S
C1217 C21 1.597 . S
C1239 C459 1.591 . S
C1235 C179 1.645 . S
C1253 C43 1.152 . S
C1257 C489 1.284 . S
C1271 C65 1.598 . S
C1275 C413 1.570 . S
C1293 C464 0.888 . S
C1289 C85 0.885 . S
C1307 C19 1.598 . S
C1311 C422 1.568 . S
C1325 C133 1.644 . S
C1329 C486 1.590 . S
C1347 C428 1.294 . S
C1343 C158 1.163 . S
C1365 C427 0.894 . S
C1361 C108 0.883 . S
