# Generated by pormake.
# Topology ocu, (6,8)-cn, num edge types: 1
# Building blocks:
#     Node 0, Type 0, BuildingBlock: BETDEL_clean_sbu_0, # of connection points: 6
#     Node 1, Type 0, BuildingBlock: BETDEL_clean_sbu_0, # of connection points: 6
#     Node 2, Type 0, BuildingBlock: BETDEL_clean_sbu_0, # of connection points: 6
#     Node 3, Type 0, BuildingBlock: BETDEL_clean_sbu_0, # of connection points: 6
#     Node 4, Type 0, BuildingBlock: BETDEL_clean_sbu_0, # of connection points: 6
#     Node 5, Type 0, BuildingBlock: BETDEL_clean_sbu_0, # of connection points: 6
#     Node 6, Type 0, BuildingBlock: BETDEL_clean_sbu_0, # of connection points: 6
#     Node 7, Type 0, BuildingBlock: BETDEL_clean_sbu_0, # of connection points: 6
#     Node 8, Type 1, BuildingBlock: GIZVER_clean_sbu_0, # of connection points: 8
#     Node 9, Type 1, BuildingBlock: GIZVER_clean_sbu_0, # of connection points: 8
#     Node 10, Type 1, BuildingBlock: GIZVER_clean_sbu_0, # of connection points: 8
#     Node 11, Type 1, BuildingBlock: GIZVER_clean_sbu_0, # of connection points: 8
#     Node 12, Type 1, BuildingBlock: GIZVER_clean_sbu_0, # of connection points: 8
#     Node 13, Type 1, BuildingBlock: GIZVER_clean_sbu_0, # of connection points: 8
#     Edge 14, Type (0, 1), BuildingBlock: XUDNAN_clean_linker_2, # of connection points: 2
#     Edge 15, Type (0, 1), BuildingBlock: XUDNAN_clean_linker_2, # of connection points: 2
#     Edge 16, Type (0, 1), BuildingBlock: XUDNAN_clean_linker_2, # of connection points: 2
#     Edge 17, Type (0, 1), BuildingBlock: XUDNAN_clean_linker_2, # of connection points: 2
#     Edge 18, Type (0, 1), BuildingBlock: XUDNAN_clean_linker_2, # of connection points: 2
#     Edge 19, Type (0, 1), BuildingBlock: XUDNAN_clean_linker_2, # of connection points: 2
#     Edge 20, Type (0, 1), BuildingBlock: XUDNAN_clean_linker_2, # of connection points: 2
#     Edge 21, Type (0, 1), BuildingBlock: XUDNAN_clean_linker_2, # of connection points: 2
#     Edge 22, Type (0, 1), BuildingBlock: XUDNAN_clean_linker_2, # of connection points: 2
#     Edge 23, Type (0, 1), BuildingBlock: XUDNAN_clean_linker_2, # of connection points: 2
#     Edge 24, Type (0, 1), BuildingBlock: XUDNAN_clean_linker_2, # of connection points: 2
#     Edge 25, Type (0, 1), BuildingBlock: XUDNAN_clean_linker_2, # of connection points: 2
#     Edge 26, Type (0, 1), BuildingBlock: XUDNAN_clean_linker_2, # of connection points: 2
#     Edge 27, Type (0, 1), BuildingBlock: XUDNAN_clean_linker_2, # of connection points: 2
#     Edge 28, Type (0, 1), BuildingBlock: XUDNAN_clean_linker_2, # of connection points: 2
#     Edge 29, Type (0, 1), BuildingBlock: XUDNAN_clean_linker_2, # of connection points: 2
#     Edge 30, Type (0, 1), BuildingBlock: XUDNAN_clean_linker_2, # of connection points: 2
#     Edge 31, Type (0, 1), BuildingBlock: XUDNAN_clean_linker_2, # of connection points: 2
#     Edge 32, Type (0, 1), BuildingBlock: XUDNAN_clean_linker_2, # of connection points: 2
#     Edge 33, Type (0, 1), BuildingBlock: XUDNAN_clean_linker_2, # of connection points: 2
#     Edge 34, Type (0, 1), BuildingBlock: XUDNAN_clean_linker_2, # of connection points: 2
#     Edge 35, Type (0, 1), BuildingBlock: XUDNAN_clean_linker_2, # of connection points: 2
#     Edge 36, Type (0, 1), BuildingBlock: XUDNAN_clean_linker_2, # of connection points: 2
#     Edge 37, Type (0, 1), BuildingBlock: XUDNAN_clean_linker_2, # of connection points: 2
#     Edge 38, Type (0, 1), BuildingBlock: XUDNAN_clean_linker_2, # of connection points: 2
#     Edge 39, Type (0, 1), BuildingBlock: XUDNAN_clean_linker_2, # of connection points: 2
#     Edge 40, Type (0, 1), BuildingBlock: XUDNAN_clean_linker_2, # of connection points: 2
#     Edge 41, Type (0, 1), BuildingBlock: XUDNAN_clean_linker_2, # of connection points: 2
#     Edge 42, Type (0, 1), BuildingBlock: XUDNAN_clean_linker_2, # of connection points: 2
#     Edge 43, Type (0, 1), BuildingBlock: XUDNAN_clean_linker_2, # of connection points: 2
#     Edge 44, Type (0, 1), BuildingBlock: XUDNAN_clean_linker_2, # of connection points: 2
#     Edge 45, Type (0, 1), BuildingBlock: XUDNAN_clean_linker_2, # of connection points: 2
#     Edge 46, Type (0, 1), BuildingBlock: XUDNAN_clean_linker_2, # of connection points: 2
#     Edge 47, Type (0, 1), BuildingBlock: XUDNAN_clean_linker_2, # of connection points: 2
#     Edge 48, Type (0, 1), BuildingBlock: XUDNAN_clean_linker_2, # of connection points: 2
#     Edge 49, Type (0, 1), BuildingBlock: XUDNAN_clean_linker_2, # of connection points: 2
#     Edge 50, Type (0, 1), BuildingBlock: XUDNAN_clean_linker_2, # of connection points: 2
#     Edge 51, Type (0, 1), BuildingBlock: XUDNAN_clean_linker_2, # of connection points: 2
#     Edge 52, Type (0, 1), BuildingBlock: XUDNAN_clean_linker_2, # of connection points: 2
#     Edge 53, Type (0, 1), BuildingBlock: XUDNAN_clean_linker_2, # of connection points: 2
#     Edge 54, Type (0, 1), BuildingBlock: XUDNAN_clean_linker_2, # of connection points: 2
#     Edge 55, Type (0, 1), BuildingBlock: XUDNAN_clean_linker_2, # of connection points: 2
#     Edge 56, Type (0, 1), BuildingBlock: XUDNAN_clean_linker_2, # of connection points: 2
#     Edge 57, Type (0, 1), BuildingBlock: XUDNAN_clean_linker_2, # of connection points: 2
#     Edge 58, Type (0, 1), BuildingBlock: XUDNAN_clean_linker_2, # of connection points: 2
#     Edge 59, Type (0, 1), BuildingBlock: XUDNAN_clean_linker_2, # of connection points: 2
#     Edge 60, Type (0, 1), BuildingBlock: XUDNAN_clean_linker_2, # of connection points: 2
#     Edge 61, Type (0, 1), BuildingBlock: XUDNAN_clean_linker_2, # of connection points: 2
# Relax obj value: 0.134
# Max RMSD: 0.274
# Mean RMSD: 0.184
data_MOF--net-ocu--node1-BETDEL_clean_sbu_0--node2-GIZVER_clean_sbu_0--edge1-XUDNAN_clean_linker_2
_symmetry_space_group_name_H-M    P1
_symmetry_Int_Tables_number       1
_symmetry_cell_setting            triclinic
loop_
_symmetry_equiv_pos_as_xyz
'x, y, z'
_cell_length_a     40.785155
_cell_length_b     43.093623
_cell_length_c     29.836313
_cell_angle_alpha  91.071501
_cell_angle_beta   92.153286
_cell_angle_gamma 105.92091
loop_
_atom_site_label
_atom_site_type_symbol
_atom_site_fract_x
_atom_site_fract_y
_atom_site_fract_z
_atom_type_partial_charge
Dy0 Dy 0.29533 0.26283 0.29008 0.0
C1 C 0.21603 0.28806 0.14311 0.0
C2 C 0.32297 0.23577 0.35822 0.0
Dy3 Dy 0.24734 0.26369 0.21079 0.0
O4 O 0.34067 0.25481 0.32918 0.0
O5 O 0.2909 0.23335 0.35105 0.0
O6 O 0.32308 0.31485 0.28266 0.0
O7 O 0.30173 0.28557 0.22534 0.0
C8 C 0.3161 0.31415 0.23955 0.0
C9 C 0.22525 0.21399 0.26471 0.0
O10 O 0.27639 0.2326 0.17718 0.0
O11 O 0.30778 0.22642 0.24124 0.0
O12 O 0.20039 0.26691 0.17116 0.0
O13 O 0.24874 0.29488 0.15122 0.0
O14 O 0.21809 0.21193 0.22157 0.0
O15 O 0.24112 0.24266 0.27605 0.0
O16 O 0.26556 0.29287 0.32426 0.0
O17 O 0.23414 0.29942 0.26031 0.0
C18 C 0.29872 0.21969 0.198 0.0
C19 C 0.24294 0.3056 0.3038 0.0
Dy20 Dy 0.79359 0.24698 0.26121 0.0
C21 C 0.71425 0.32711 0.2147 0.0
C22 C 0.83668 0.21797 0.30264 0.0
Dy23 Dy 0.74735 0.28594 0.24802 0.0
O24 O 0.82634 0.21295 0.26078 0.0
O25 O 0.82336 0.23848 0.32186 0.0
O26 O 0.7849 0.22753 0.19012 0.0
O27 O 0.74454 0.23727 0.22376 0.0
C28 C 0.75312 0.228 0.18677 0.0
C29 C 0.78683 0.30209 0.32335 0.0
O30 O 0.70977 0.24811 0.28212 0.0
O31 O 0.74983 0.22171 0.30402 0.0
O32 O 0.73882 0.33453 0.24497 0.0
O33 O 0.70629 0.29656 0.20401 0.0
O34 O 0.75452 0.30029 0.32102 0.0
O35 O 0.79623 0.29543 0.28543 0.0
O36 O 0.82918 0.28887 0.22901 0.0
O37 O 0.78462 0.30291 0.19455 0.0
C38 C 0.71846 0.22528 0.30455 0.0
C39 C 0.81763 0.30621 0.19952 0.0
Dy40 Dy 0.75812 0.77363 0.28746 0.0
C41 C 0.80676 0.71887 0.13746 0.0
C42 C 0.74178 0.81147 0.35257 0.0
Dy43 Dy 0.78985 0.75465 0.20419 0.0
O44 O 0.72453 0.78194 0.34203 0.0
O45 O 0.76841 0.81988 0.32838 0.0
O46 O 0.7179 0.72553 0.28392 0.0
O47 O 0.73845 0.74687 0.22582 0.0
C48 C 0.71865 0.72185 0.24058 0.0
C49 C 0.82701 0.80807 0.24766 0.0
O50 O 0.75621 0.78172 0.16991 0.0
O51 O 0.74378 0.80621 0.23456 0.0
O52 O 0.82353 0.74836 0.14897 0.0
O53 O 0.78038 0.70918 0.16188 0.0
O54 O 0.82643 0.80403 0.20425 0.0
O55 O 0.80989 0.78272 0.26527 0.0
O56 O 0.78909 0.74392 0.32155 0.0
O57 O 0.80562 0.72287 0.25655 0.0
C58 C 0.74275 0.80297 0.1899 0.0
C59 C 0.80437 0.72426 0.30108 0.0
Dy60 Dy 0.29893 0.74697 0.24245 0.0
C61 C 0.22407 0.80795 0.35158 0.0
C62 C 0.33565 0.72305 0.18316 0.0
Dy63 Dy 0.24969 0.78183 0.28289 0.0
O64 O 0.34161 0.75314 0.19539 0.0
O65 O 0.31027 0.70563 0.20455 0.0
O66 O 0.32996 0.75383 0.30802 0.0
O67 O 0.30433 0.78751 0.28948 0.0
C68 C 0.32147 0.77951 0.32083 0.0
C69 C 0.22573 0.74931 0.20508 0.0
O70 O 0.28516 0.82187 0.24758 0.0
O71 O 0.29799 0.78689 0.19605 0.0
O72 O 0.22208 0.81617 0.30994 0.0
O73 O 0.23946 0.78549 0.35538 0.0
O74 O 0.21423 0.77282 0.22024 0.0
O75 O 0.24497 0.74288 0.23513 0.0
O76 O 0.26338 0.70473 0.27307 0.0
O77 O 0.23431 0.73336 0.31567 0.0
C78 C 0.2988 0.8165 0.20966 0.0
C79 C 0.24067 0.70587 0.30327 0.0
Dy80 Dy 0.30606 0.74408 0.73465 0.0
C81 C 0.19603 0.79684 0.72058 0.0
C82 C 0.36105 0.72108 0.74703 0.0
Dy83 Dy 0.24841 0.77231 0.74366 0.0
O84 O 0.34304 0.71847 0.70974 0.0
O85 O 0.34859 0.73562 0.77784 0.0
O86 O 0.2942 0.73631 0.66106 0.0
O87 O 0.25409 0.73099 0.70437 0.0
C88 C 0.26136 0.73005 0.6637 0.0
C89 C 0.29497 0.78882 0.81288 0.0
O90 O 0.22314 0.72257 0.76552 0.0
O91 O 0.27263 0.70726 0.77852 0.0
O92 O 0.20044 0.78571 0.75984 0.0
O93 O 0.22015 0.79494 0.69458 0.0
O94 O 0.26253 0.78526 0.81698 0.0
O95 O 0.30032 0.78583 0.77211 0.0
O96 O 0.33195 0.79226 0.70932 0.0
O97 O 0.28349 0.8101 0.70259 0.0
C98 C 0.23939 0.70255 0.7825 0.0
C99 C 0.31626 0.81361 0.69573 0.0
Dy100 Dy 0.25157 0.26146 0.80325 0.0
C101 C 0.31777 0.22491 0.65572 0.0
C102 C 0.22912 0.28922 0.87384 0.0
Dy103 Dy 0.28862 0.25468 0.71882 0.0
O104 O 0.21932 0.25858 0.86314 0.0
O105 O 0.25117 0.30452 0.84609 0.0
O106 O 0.21927 0.21067 0.79486 0.0
O107 O 0.23563 0.23764 0.73761 0.0
C108 C 0.22065 0.2101 0.75142 0.0
C109 C 0.31967 0.30434 0.77471 0.0
O110 O 0.25424 0.28294 0.68746 0.0
O111 O 0.23597 0.29628 0.7563 0.0
O112 O 0.32936 0.25467 0.67038 0.0
O113 O 0.28855 0.21254 0.67324 0.0
O114 O 0.3227 0.30585 0.73145 0.0
O115 O 0.30338 0.27642 0.78437 0.0
O116 O 0.2891 0.23784 0.83459 0.0
O117 O 0.30488 0.21985 0.76741 0.0
C118 C 0.23769 0.29951 0.71203 0.0
C119 C 0.30504 0.21983 0.8122 0.0
Dy120 Dy 0.79296 0.23861 0.73482 0.0
C121 C 0.73249 0.33591 0.79718 0.0
C122 C 0.81353 0.19541 0.68356 0.0
Dy123 Dy 0.75717 0.29006 0.75683 0.0
O124 O 0.81178 0.1944 0.72697 0.0
O125 O 0.80443 0.21992 0.66842 0.0
O126 O 0.82269 0.24646 0.80084 0.0
O127 O 0.80824 0.28493 0.77203 0.0
C128 C 0.82104 0.276 0.80688 0.0
C129 C 0.72904 0.24952 0.68663 0.0
O130 O 0.80231 0.32021 0.72329 0.0
O131 O 0.81823 0.27833 0.68907 0.0
O132 O 0.73701 0.33374 0.75453 0.0
O133 O 0.74092 0.31276 0.81771 0.0
O134 O 0.72753 0.27919 0.68929 0.0
O135 O 0.74199 0.24312 0.72266 0.0
O136 O 0.75022 0.20925 0.77339 0.0
O137 O 0.73798 0.25287 0.80871 0.0
C138 C 0.82051 0.30948 0.694 0.0
C139 C 0.73553 0.22153 0.80545 0.0
Dy140 Dy 0.79464 0.75625 0.78544 0.0
C141 C 0.71975 0.78243 0.63485 0.0
C142 C 0.82574 0.73014 0.85112 0.0
Dy143 Dy 0.74817 0.75753 0.70482 0.0
O144 O 0.83482 0.76043 0.84082 0.0
O145 O 0.79922 0.7147 0.82649 0.0
O146 O 0.82591 0.80705 0.77448 0.0
O147 O 0.80249 0.77677 0.71965 0.0
C148 C 0.81907 0.80519 0.73138 0.0
C149 C 0.72395 0.70797 0.75741 0.0
O150 O 0.77697 0.7248 0.67336 0.0
O151 O 0.81172 0.72316 0.73629 0.0
O152 O 0.70257 0.76343 0.66424 0.0
O153 O 0.75209 0.78666 0.64304 0.0
O154 O 0.71756 0.70665 0.71414 0.0
O155 O 0.7401 0.73639 0.77044 0.0
O156 O 0.76258 0.78448 0.81887 0.0
O157 O 0.73634 0.79504 0.7528 0.0
C158 C 0.80135 0.71432 0.69398 0.0
C159 C 0.74273 0.79963 0.79701 0.0
Co160 Co 0.05805 0.94367 0.50797 0.0
Co161 Co 0.04941 0.97648 0.58016 0.0
Co162 Co 0.02535 1.00706 0.50056 0.0
O163 O 0.06077 0.98769 0.52134 0.0
H164 H 0.08346 1.00215 0.52054 0.0
O165 O 0.98925 0.02579 0.4805 0.0
Co166 Co 0.98658 0.06587 0.50468 0.0
Co167 Co 0.9976 0.04391 0.42564 0.0
H168 H 0.96727 1.0098 0.47853 0.0
O169 O 0.0803 0.96715 0.61994 0.0
O170 O 0.04396 0.93286 0.57037 0.0
O171 O 1.00662 0.98018 0.60227 0.0
O172 O 0.9878 0.97459 0.5316 0.0
O173 O 0.03506 0.03511 0.55514 0.0
O174 O 0.97793 0.10145 0.52629 0.0
O175 O 0.94157 0.0567 0.49399 0.0
O176 O 0.0345 0.08024 0.52237 0.0
O177 O 0.06306 0.0399 0.46917 0.0
O178 O 0.04088 0.04585 0.40169 0.0
O179 O 0.9963 0.08467 0.44505 0.0
O180 O 0.96404 0.0531 0.38966 0.0
C181 C 0.09228 0.91764 0.51111 0.0
C182 C 1.00402 0.94827 0.44936 0.0
C183 C 0.98228 0.97074 0.57328 0.0
C184 C 0.06598 0.93804 0.60434 0.0
C185 C 0.9469 0.08432 0.51543 0.0
C186 C 0.04628 0.06546 0.5529 0.0
C187 C 0.06648 0.04922 0.42855 0.0
C188 C 0.97378 0.08052 0.41193 0.0
O189 O 0.06078 0.90387 0.49792 0.0
O190 O 0.10171 0.94786 0.52434 0.0
O191 O 1.01597 0.97863 0.44644 0.0
O192 O 1.01134 0.93389 0.48391 0.0
Co193 Co 0.56707 0.95052 0.96929 0.0
Co194 Co 0.56302 0.96208 0.05177 0.0
Co195 Co 0.5223 1.00982 1.00061 0.0
O196 O 0.56307 0.98941 0.00403 0.0
H197 H 0.58452 1.00604 0.00486 0.0
O198 O 0.48143 0.03 0.99788 0.0
Co199 Co 0.47685 0.06878 0.03265 0.0
Co200 Co 0.48006 0.05582 0.94908 0.0
H201 H 0.46016 0.01315 0.99774 0.0
O202 O 0.60297 0.95999 0.08151 0.0
O203 O 0.57343 0.92663 0.0256 0.0
O204 O 0.521 0.94919 0.08148 0.0
O205 O 0.49515 0.98275 0.0481 0.0
O206 O 0.54706 0.04331 0.04656 0.0
O207 O 0.46915 0.10203 0.06548 0.0
O208 O 0.4297 0.05837 0.0373 0.0
O209 O 0.52594 0.08571 0.03478 0.0
O210 O 0.55008 0.03822 0.95425 0.0
O211 O 0.52203 0.07031 0.9215 0.0
O212 O 0.4712 0.09221 0.9756 0.0
O213 O 0.44023 0.05901 0.92044 0.0
C214 C 0.60606 0.93307 0.94007 0.0
C215 C 0.49411 0.94535 0.95721 0.0
C216 C 0.4957 0.9607 0.0759 0.0
C217 C 0.59807 0.9337 0.05703 0.0
C218 C 0.43714 0.08606 0.05998 0.0
C219 C 0.55044 0.07375 0.04624 0.0
C220 C 0.54871 0.06121 0.92833 0.0
C221 C 0.44634 0.08563 0.94442 0.0
O222 O 0.57398 0.9171 0.93578 0.0
O223 O 0.614 0.96079 0.96268 0.0
O224 O 0.4974 0.97575 0.95447 0.0
O225 O 0.5186 0.93396 0.97016 0.0
Co226 Co 0.05938 0.44774 0.99908 0.0
Co227 Co 0.07014 0.48416 0.07285 0.0
Co228 Co 0.02797 0.51185 0.99893 0.0
O229 O 0.06605 0.49243 0.01162 0.0
H230 H 0.08757 0.50556 0.00155 0.0
O231 O 0.98993 0.53109 0.98597 0.0
Co232 Co 0.98837 0.57237 0.00806 0.0
Co233 Co 0.98652 0.54531 0.92741 0.0
H234 H 0.96855 0.51532 0.99108 0.0
O235 O 0.11196 0.48079 0.09674 0.0
O236 O 0.06934 0.44167 0.0632 0.0
O237 O 0.03098 0.48106 0.1081 0.0
O238 O 0.99968 0.49079 0.04999 0.0
O239 O 0.0537 0.54878 0.03931 0.0
O240 O 0.9812 0.6089 0.02835 0.0
O241 O 0.94269 0.56173 0.00864 0.0
O242 O 0.03637 0.58911 0.01116 0.0
O243 O 0.05647 0.5335 0.94808 0.0
O244 O 0.02557 0.54758 0.89244 0.0
O245 O 0.98837 0.58695 0.94608 0.0
O246 O 0.94694 0.55487 0.90199 0.0
C247 C 0.08888 0.41883 0.9815 0.0
C248 C 0.99454 0.44531 0.97653 0.0
C249 C 1.00238 0.48102 0.0898 0.0
C250 C 0.09948 0.45099 0.08301 0.0
C251 C 0.94957 0.59149 0.02374 0.0
C252 C 0.05852 0.57873 0.03241 0.0
C253 C 0.05357 0.54446 0.90899 0.0
C254 C 0.9608 0.58288 0.92123 0.0
O255 O 0.05645 0.40704 0.98704 0.0
O256 O 0.1029 0.4499 0.98633 0.0
O257 O 1.00216 0.47338 0.95969 0.0
O258 O 1.01295 0.43974 0.00899 0.0
Co259 Co 0.56408 0.46673 0.98797 0.0
Co260 Co 0.55397 0.48013 0.06806 0.0
Co261 Co 0.51805 0.51873 1.00059 0.0
O262 O 0.55704 0.503 0.01824 0.0
H263 H 0.57777 0.52052 0.02128 0.0
O264 O 0.48022 0.53623 0.981 0.0
Co265 Co 0.48467 0.58117 0.98926 0.0
Co266 Co 0.48631 0.54371 0.92027 0.0
H267 H 0.45788 0.52221 0.9864 0.0
O268 O 0.59306 0.48511 0.10161 0.0
O269 O 0.57 0.44788 0.04598 0.0
O270 O 0.50978 0.46354 0.08913 0.0
O271 O 0.48384 0.49065 0.04273 0.0
O272 O 0.53383 0.5532 0.04815 0.0
O273 O 0.48513 0.62148 0.99714 0.0
O274 O 0.43953 0.57823 0.98459 0.0
O275 O 0.53232 0.59064 0.99954 0.0
O276 O 0.55218 0.5461 0.9599 0.0
O277 O 0.52757 0.54037 0.89223 0.0
O278 O 0.4892 0.58719 0.92328 0.0
O279 O 0.4515 0.54653 0.88289 0.0
C280 C 0.60507 0.45556 0.96237 0.0
C281 C 0.49682 0.45486 0.96052 0.0
C282 C 0.48321 0.47038 0.07412 0.0
C283 C 0.59416 0.46067 0.07598 0.0
C284 C 0.45233 0.60898 0.99446 0.0
C285 C 0.5429 0.5826 0.03708 0.0
C286 C 0.5542 0.54889 0.91763 0.0
C287 C 0.46598 0.57708 0.89092 0.0
O288 O 0.57513 0.43474 0.95953 0.0
O289 O 0.60945 0.48322 0.98354 0.0
O290 O 0.50208 0.48461 0.95243 0.0
O291 O 0.51689 0.44534 0.98705 0.0
Co292 Co 0.09083 0.47299 0.52319 0.0
Co293 Co 0.06408 0.46382 0.44365 0.0
Co294 Co 0.02582 0.5128 0.49791 0.0
O295 O 0.04569 0.47315 0.49676 0.0
H296 H 0.02862 0.454 0.50515 0.0
O297 O 1.00492 0.55188 0.50075 0.0
Co298 Co 0.95904 0.55204 0.47548 0.0
Co299 Co 0.98515 0.55846 0.55572 0.0
H300 H 1.02177 0.57151 0.49345 0.0
O301 O 0.06773 0.42311 0.42402 0.0
O302 O 0.10756 0.46096 0.464 0.0
O303 O 0.0692 0.49772 0.4027 0.0
O304 O 0.04948 0.533 0.44255 0.0
O305 O 0.98524 0.48671 0.46081 0.0
O306 O 0.91926 0.55571 0.44985 0.0
O307 O 0.96771 0.5954 0.4618 0.0
O308 O 0.94334 0.5066 0.48446 0.0
O309 O 1.00315 0.49251 0.55252 0.0
O310 O 0.97875 0.52254 0.59482 0.0
O311 O 0.94158 0.56095 0.53638 0.0
O312 O 0.98027 0.59834 0.5784 0.0
C313 C 0.11297 0.44019 0.55662 0.0
C314 C 0.0975 0.54153 0.52626 0.0
C315 C 0.06417 0.52532 0.40837 0.0
C316 C 0.09882 0.43362 0.44058 0.0
C317 C 0.93589 0.58594 0.44634 0.0
C318 C 0.95408 0.48319 0.47014 0.0
C319 C 0.9869 0.49665 0.58681 0.0
C320 C 0.94906 0.58699 0.56261 0.0
O321 O 0.12995 0.47 0.5506 0.0
O322 O 0.0814 0.43014 0.54033 0.0
O323 O 0.06639 0.53882 0.53502 0.0
O324 O 0.10728 0.5178 0.51098 0.0
Co325 Co 0.59281 0.98368 0.52526 0.0
Co326 Co 0.56203 0.97198 0.44592 0.0
Co327 Co 0.52382 0.01302 0.50514 0.0
O328 O 0.54702 0.97834 0.50317 0.0
H329 H 0.53217 0.95827 0.51284 0.0
O330 O 0.50106 0.0478 0.50522 0.0
Co331 Co 0.45438 0.04147 0.48832 0.0
Co332 Co 0.49037 0.05609 0.56135 0.0
H333 H 0.51531 0.06756 0.49376 0.0
O334 O 0.56943 0.93286 0.42833 0.0
O335 O 0.60657 0.97542 0.46386 0.0
O336 O 0.56537 1.00574 0.404 0.0
O337 O 0.54792 0.03659 0.45322 0.0
O338 O 0.48678 0.9856 0.46491 0.0
O339 O 0.41217 0.03965 0.47019 0.0
O340 O 0.45903 0.08222 0.47182 0.0
O341 O 0.44342 0.99579 0.49976 0.0
O342 O 0.49863 0.98984 0.55749 0.0
O343 O 0.49642 0.02783 0.6074 0.0
O344 O 0.44475 0.05419 0.55178 0.0
O345 O 0.48978 0.0958 0.57792 0.0
C346 C 0.61884 0.95293 0.54946 0.0
C347 C 0.5919 0.04892 0.53623 0.0
C348 C 0.56081 0.03251 0.41611 0.0
C349 C 0.60013 0.94715 0.44385 0.0
C350 C 0.42659 0.06973 0.46192 0.0
C351 C 0.45581 0.97686 0.47633 0.0
C352 C 0.49201 0.99841 0.59663 0.0
C353 C 0.45708 0.08259 0.57231 0.0
O354 O 0.63417 0.98359 0.54672 0.0
O355 O 0.5865 0.94206 0.53803 0.0
O356 O 0.56062 0.04073 0.54609 0.0
O357 O 0.60508 0.02936 0.51582 0.0
H358 H 0.18207 0.15325 0.24682 0.0
H359 H 0.22808 0.2206 0.35612 0.0
H360 H 0.20016 0.18092 0.41078 0.0
H361 H 0.10198 0.12945 0.29425 0.0
H362 H 0.09159 0.08811 0.27386 0.0
H363 H 0.12024 0.11925 0.24382 0.0
H364 H 0.16616 0.08799 0.24971 0.0
H365 H 0.13764 0.05685 0.28021 0.0
H366 H 0.17949 0.07709 0.30408 0.0
H367 H 0.16388 0.13534 0.45394 0.0
H368 H 0.11635 0.09157 0.48074 0.0
H369 H 0.08952 0.05606 0.34353 0.0
C370 C 0.18688 0.15929 0.2823 0.0
C371 C 0.20871 0.18949 0.2972 0.0
C372 C 0.21312 0.19701 0.34387 0.0
C373 C 0.19705 0.17467 0.37527 0.0
C374 C 0.17586 0.14502 0.35959 0.0
C375 C 0.17026 0.13752 0.31414 0.0
C376 C 0.1428 0.10592 0.30594 0.0
C377 C 0.11235 0.111 0.27783 0.0
C378 C 0.15741 0.08046 0.28366 0.0
C379 C 0.13331 0.09728 0.35371 0.0
C380 C 0.1533 0.11968 0.38428 0.0
C381 C 0.14828 0.11748 0.43031 0.0
C382 C 0.12138 0.09239 0.44532 0.0
C383 C 0.09941 0.07029 0.41427 0.0
C384 C 0.10614 0.07241 0.36807 0.0
H385 H 0.85012 0.16232 0.27715 0.0
H386 H 0.87546 0.2394 0.37888 0.0
H387 H 0.91581 0.2136 0.41669 0.0
H388 H 0.85007 0.09919 0.35333 0.0
H389 H 0.8672 0.07619 0.31396 0.0
H390 H 0.84193 0.10179 0.29389 0.0
H391 H 0.89133 0.13152 0.24467 0.0
H392 H 0.91682 0.10609 0.26477 0.0
H393 H 0.93311 0.14937 0.27054 0.0
H394 H 0.9544 0.18041 0.44123 0.0
H395 H 0.98417 0.13886 0.45633 0.0
H396 H 0.92919 0.08136 0.34193 0.0
C397 C 0.86442 0.17382 0.30718 0.0
C398 C 0.86029 0.20281 0.32511 0.0
C399 C 0.87865 0.21709 0.36484 0.0
C400 C 0.9016 0.20276 0.38633 0.0
C401 C 0.90523 0.17409 0.36772 0.0
C402 C 0.88681 0.15953 0.32945 0.0
C403 C 0.89386 0.12784 0.3178 0.0
C404 C 0.86133 0.09959 0.3199 0.0
C405 C 0.90973 0.12879 0.27172 0.0
C406 C 0.91935 0.12695 0.35534 0.0
C407 C 0.92591 0.15401 0.38342 0.0
C408 C 0.94921 0.1589 0.41984 0.0
C409 C 0.96586 0.13511 0.4282 0.0
C410 C 0.95831 0.10655 0.40093 0.0
C411 C 0.93512 0.10273 0.36374 0.0
H412 H 0.848 0.80973 0.33636 0.0
H413 H 0.86338 0.86501 0.21509 0.0
H414 H 0.90931 0.90724 0.2547 0.0
H415 H 0.86585 0.87897 0.41643 0.0
H416 H 0.8878 0.86028 0.45675 0.0
H417 H 0.85415 0.83564 0.42013 0.0
H418 H 0.89546 0.80388 0.39261 0.0
H419 H 0.9293 0.82857 0.42882 0.0
H420 H 0.93522 0.82547 0.3695 0.0
H421 H 0.95449 0.94192 0.30538 0.0
H422 H 0.99691 0.96815 0.36483 0.0
H423 H 0.95443 0.88989 0.45369 0.0
C424 C 0.86071 0.831 0.31845 0.0
C425 C 0.85219 0.83432 0.27274 0.0
C426 C 0.86958 0.86216 0.25012 0.0
C427 C 0.89564 0.88621 0.27233 0.0
C428 C 0.90399 0.88194 0.31706 0.0
C429 C 0.88705 0.85515 0.34004 0.0
C430 C 0.90226 0.85593 0.38743 0.0
C431 C 0.87595 0.85783 0.42224 0.0
C432 C 0.9164 0.82673 0.39501 0.0
C433 C 0.93074 0.88712 0.38717 0.0
C434 C 0.93092 0.90178 0.3463 0.0
C435 C 0.95458 0.93078 0.33757 0.0
C436 C 0.9786 0.94545 0.37161 0.0
C437 C 0.97906 0.93103 0.41388 0.0
C438 C 0.95489 0.90132 0.42161 0.0
H439 H 0.22587 0.87046 0.36854 0.0
H440 H 0.18973 0.77388 0.41851 0.0
H441 H 0.15978 0.79429 0.47809 0.0
H442 H 0.23595 0.91227 0.48507 0.0
H443 H 0.22351 0.94595 0.46211 0.0
H444 H 0.24674 0.9245 0.42882 0.0
H445 H 0.19898 0.91437 0.3659 0.0
H446 H 0.17584 0.9357 0.39887 0.0
H447 H 0.15554 0.89486 0.37927 0.0
H448 H 0.12294 0.82205 0.51729 0.0
H449 H 0.08649 0.85673 0.53905 0.0
H450 H 0.15246 0.93698 0.47229 0.0
C451 C 0.21222 0.85393 0.39281 0.0
C452 C 0.20946 0.82076 0.38916 0.0
C453 C 0.19184 0.79947 0.42119 0.0
C454 C 0.17503 0.81086 0.45517 0.0
C455 C 0.17744 0.84373 0.45746 0.0
C456 C 0.1964 0.86514 0.42791 0.0
C457 C 0.19291 0.89881 0.43554 0.0
C458 C 0.22679 0.92174 0.45399 0.0
C459 C 0.18002 0.91164 0.39235 0.0
C460 C 0.16645 0.89235 0.47091 0.0
C461 C 0.15817 0.86048 0.48359 0.0
C462 C 0.13008 0.84734 0.50926 0.0
C463 C 0.10947 0.86705 0.52131 0.0
C464 C 0.11748 0.89944 0.50805 0.0
C465 C 0.14695 0.91258 0.48427 0.0
H466 H 0.2074 0.85585 0.68717 0.0
H467 H 0.12689 0.77342 0.72563 0.0
H468 H 0.0834 0.79979 0.69702 0.0
H469 H 0.16506 0.91557 0.7218 0.0
H470 H 0.182 0.94205 0.67713 0.0
H471 H 0.20568 0.91585 0.69973 0.0
H472 H 0.208 0.89311 0.61997 0.0
H473 H 0.18235 0.91718 0.59608 0.0
H474 H 0.16905 0.87389 0.58843 0.0
H475 H 0.04952 0.83441 0.65873 0.0
H476 H 0.02781 0.87788 0.62559 0.0
H477 H 0.1315 0.93882 0.62075 0.0
C478 C 0.18056 0.84354 0.68973 0.0
C479 C 0.17004 0.81281 0.70808 0.0
C480 C 0.135 0.79719 0.71163 0.0
C481 C 0.11033 0.81184 0.69526 0.0
C482 C 0.12155 0.84222 0.67668 0.0
C483 C 0.15587 0.85817 0.67497 0.0
C484 C 0.16155 0.89125 0.65578 0.0
C485 C 0.17962 0.91773 0.6907 0.0
C486 C 0.18139 0.89403 0.61249 0.0
C487 C 0.12504 0.89137 0.64632 0.0
C488 C 0.10225 0.86276 0.65778 0.0
C489 C 0.0671 0.85709 0.65028 0.0
C490 C 0.05502 0.8817 0.63144 0.0
C491 C 0.07813 0.91153 0.62167 0.0
C492 C 0.11342 0.91631 0.62893 0.0
H493 H 0.19208 0.21309 0.66719 0.0
H494 H 0.20048 0.14739 0.77266 0.0
H495 H 0.15975 0.10274 0.72993 0.0
H496 H 0.10399 0.18305 0.64761 0.0
H497 H 0.10375 0.18723 0.5876 0.0
H498 H 0.13733 0.2134 0.62262 0.0
H499 H 0.18269 0.19593 0.57763 0.0
H500 H 0.14926 0.16987 0.54209 0.0
H501 H 0.18011 0.15363 0.57113 0.0
H502 H 0.11574 0.06676 0.6804 0.0
H503 H 0.06956 0.0402 0.62613 0.0
H504 H 0.08651 0.12888 0.55236 0.0
C505 C 0.18592 0.18908 0.68055 0.0
C506 C 0.19949 0.18338 0.72292 0.0
C507 C 0.19034 0.15201 0.74013 0.0
C508 C 0.16735 0.12655 0.71609 0.0
C509 C 0.15364 0.133 0.67502 0.0
C510 C 0.16251 0.16338 0.65715 0.0
C511 C 0.14169 0.16405 0.61405 0.0
C512 C 0.12043 0.18838 0.61825 0.0
C513 C 0.16482 0.1713 0.57384 0.0
C514 C 0.11914 0.12955 0.61135 0.0
C515 C 0.12701 0.1121 0.6466 0.0
C516 C 0.10948 0.08003 0.65241 0.0
C517 C 0.08317 0.0652 0.62134 0.0
C518 C 0.07429 0.08245 0.58492 0.0
C519 C 0.09263 0.11511 0.57988 0.0
H520 H 0.86183 0.21109 0.62198 0.0
H521 H 0.79257 0.12984 0.683 0.0
H522 H 0.81333 0.09214 0.63513 0.0
H523 H 0.86203 0.17436 0.50804 0.0
H524 H 0.90721 0.19212 0.50367 0.0
H525 H 0.88248 0.21269 0.53579 0.0
H526 H 0.92301 0.21486 0.60563 0.0
H527 H 0.94791 0.19467 0.57358 0.0
H528 H 0.93043 0.17795 0.62529 0.0
H529 H 0.8432 0.06377 0.58338 0.0
H530 H 0.88721 0.04621 0.5433 0.0
H531 H 0.94198 0.14617 0.5238 0.0
C532 C 0.85067 0.18532 0.62441 0.0
C533 C 0.82543 0.17302 0.65532 0.0
C534 C 0.81191 0.13938 0.65912 0.0
C535 C 0.82325 0.11795 0.63181 0.0
C536 C 0.84848 0.13076 0.60168 0.0
C537 C 0.86252 0.16369 0.59848 0.0
C538 C 0.89286 0.17118 0.56879 0.0
C539 C 0.8857 0.18862 0.52657 0.0
C540 C 0.92547 0.1908 0.5949 0.0
C541 C 0.89442 0.13734 0.55708 0.0
C542 C 0.86774 0.11441 0.5748 0.0
C543 C 0.86412 0.08147 0.5692 0.0
C544 C 0.88912 0.07174 0.54626 0.0
C545 C 0.91781 0.09493 0.53066 0.0
C546 C 0.92012 0.12806 0.53529 0.0
H547 H 0.86386 0.86449 0.7512 0.0
H548 H 0.81598 0.79994 0.63978 0.0
H549 H 0.84627 0.83968 0.58651 0.0
H550 H 0.86957 0.9419 0.69644 0.0
H551 H 0.91145 0.96073 0.72131 0.0
H552 H 0.88183 0.92965 0.75054 0.0
H553 H 0.92635 0.89679 0.7559 0.0
H554 H 0.95608 0.92782 0.72699 0.0
H555 H 0.94461 0.88674 0.70538 0.0
H556 H 0.88488 0.88474 0.54535 0.0
H557 H 0.93303 0.92835 0.52018 0.0
H558 H 0.95914 0.9618 0.65851 0.0
C559 C 0.85922 0.85907 0.71555 0.0
C560 C 0.8365 0.82962 0.69958 0.0
C561 C 0.83203 0.8229 0.65275 0.0
C562 C 0.84935 0.84528 0.6222 0.0
C563 C 0.87157 0.87411 0.63899 0.0
C564 C 0.87688 0.88089 0.68461 0.0
C565 C 0.90503 0.91182 0.69406 0.0
C566 C 0.89113 0.93755 0.71694 0.0
C567 C 0.93477 0.90539 0.72223 0.0
C568 C 0.9152 0.92098 0.64673 0.0
C569 C 0.8951 0.8993 0.61538 0.0
C570 C 0.9006 0.90202 0.56959 0.0
C571 C 0.92797 0.92699 0.55558 0.0
C572 C 0.94988 0.94857 0.58734 0.0
C573 C 0.94276 0.94584 0.63337 0.0
H574 H 0.3616 0.20636 0.21259 0.0
H575 H 0.27095 0.18096 0.12404 0.0
H576 H 0.29479 0.14287 0.08168 0.0
H577 H 0.42069 0.2052 0.12468 0.0
H578 H 0.4489 0.18945 0.15983 0.0
H579 H 0.424 0.21348 0.18439 0.0
H580 H 0.39849 0.16747 0.23798 0.0
H581 H 0.42318 0.14321 0.2135 0.0
H582 H 0.37747 0.12766 0.21509 0.0
H583 H 0.32866 0.10534 0.0494 0.0
H584 H 0.37109 0.07717 0.02634 0.0
H585 H 0.44202 0.12983 0.13131 0.0
C586 C 0.34663 0.19267 0.18443 0.0
C587 C 0.31397 0.19673 0.17219 0.0
C588 C 0.29583 0.17854 0.13445 0.0
C589 C 0.30921 0.15663 0.11014 0.0
C590 C 0.34134 0.15319 0.12307 0.0
C591 C 0.36005 0.17114 0.159 0.0
C592 C 0.39472 0.16417 0.16451 0.0
C593 C 0.42379 0.1949 0.15796 0.0
C594 C 0.39869 0.14977 0.2105 0.0
C595 C 0.39253 0.13933 0.12647 0.0
C596 C 0.36132 0.13299 0.10328 0.0
C597 C 0.35317 0.11035 0.0674 0.0
C598 C 0.37743 0.09419 0.05461 0.0
C599 C 0.41008 0.1009 0.07685 0.0
C600 C 0.41741 0.12392 0.11339 0.0
H601 H 0.88804 0.32741 0.20925 0.0
H602 H 0.80054 0.34715 0.14012 0.0
H603 H 0.83799 0.39658 0.1105 0.0
H604 H 0.9337 0.41003 0.23943 0.0
H605 H 0.97481 0.40404 0.22947 0.0
H606 H 0.94048 0.37065 0.246 0.0
H607 H 0.94893 0.33829 0.17443 0.0
H608 H 0.98272 0.37229 0.15842 0.0
H609 H 0.9467 0.35547 0.12012 0.0
H610 H 0.88407 0.44447 0.08953 0.0
H611 H 0.93744 0.48419 0.07035 0.0
H612 H 0.99554 0.43376 0.152 0.0
C613 C 0.87683 0.3419 0.18743 0.0
C614 C 0.84127 0.33327 0.1771 0.0
C615 C 0.82765 0.35307 0.14856 0.0
C616 C 0.84868 0.3814 0.13175 0.0
C617 C 0.88338 0.38967 0.14354 0.0
C618 C 0.89754 0.37031 0.17007 0.0
C619 C 0.9359 0.38435 0.17614 0.0
C620 C 0.94684 0.39272 0.22574 0.0
C621 C 0.95466 0.36123 0.15607 0.0
C622 C 0.9409 0.41465 0.14917 0.0
C623 C 0.9102 0.41733 0.13097 0.0
C624 C 0.90829 0.44271 0.10368 0.0
C625 C 0.93873 0.46529 0.09324 0.0
C626 C 0.97068 0.46236 0.11003 0.0
C627 C 0.97155 0.43716 0.13943 0.0
H628 H 0.7194 0.85599 0.21325 0.0
H629 H 0.71855 0.78888 0.10271 0.0
H630 H 0.68187 0.8143 0.05713 0.0
H631 H 0.63279 0.85945 0.19698 0.0
H632 H 0.64215 0.90201 0.21048 0.0
H633 H 0.66854 0.87871 0.23456 0.0
H634 H 0.72207 0.91788 0.20292 0.0
H635 H 0.69586 0.94139 0.1789 0.0
H636 H 0.72289 0.92562 0.14374 0.0
H637 H 0.64185 0.84565 0.02415 0.0
H638 H 0.60652 0.88251 0.00567 0.0
H639 H 0.63629 0.93182 0.13503 0.0
C640 C 0.71171 0.84675 0.17936 0.0
C641 C 0.72223 0.82029 0.16182 0.0
C642 C 0.71134 0.80916 0.11715 0.0
C643 C 0.69024 0.82341 0.0909 0.0
C644 C 0.68022 0.84924 0.10922 0.0
C645 C 0.69096 0.86108 0.15229 0.0
C646 C 0.67697 0.88947 0.1637 0.0
C647 C 0.65374 0.88195 0.20381 0.0
C648 C 0.70619 0.92042 0.17285 0.0
C649 C 0.65655 0.8916 0.12057 0.0
C650 C 0.65846 0.86798 0.08966 0.0
C651 C 0.64058 0.86444 0.04805 0.0
C652 C 0.62051 0.88559 0.03773 0.0
C653 C 0.61882 0.91062 0.06832 0.0
C654 C 0.63724 0.91338 0.11036 0.0
H655 H 0.16401 0.74296 0.15864 0.0
H656 H 0.2476 0.69941 0.17436 0.0
H657 H 0.2158 0.65289 0.12664 0.0
H658 H 0.09868 0.67254 0.16638 0.0
H659 H 0.0699 0.68178 0.12468 0.0
H660 H 0.10084 0.71397 0.15491 0.0
H661 H 0.12485 0.73791 0.07999 0.0
H662 H 0.09365 0.70594 0.04949 0.0
H663 H 0.13839 0.71268 0.03985 0.0
H664 H 0.17225 0.60783 0.0863 0.0
H665 H 0.12103 0.56896 0.05114 0.0
H666 H 0.06589 0.64174 0.0585 0.0
C667 C 0.17598 0.7241 0.1508 0.0
C668 C 0.20843 0.7249 0.17001 0.0
C669 C 0.22291 0.69939 0.15982 0.0
C670 C 0.20501 0.67281 0.13274 0.0
C671 C 0.17263 0.67213 0.11553 0.0
C672 C 0.15837 0.69728 0.12351 0.0
C673 C 0.12225 0.68942 0.10317 0.0
C674 C 0.09641 0.68942 0.13946 0.0
C675 C 0.11964 0.71289 0.0659 0.0
C676 C 0.11817 0.65563 0.08397 0.0
C677 C 0.1476 0.64618 0.09132 0.0
C678 C 0.14923 0.61515 0.07961 0.0
C679 C 0.11999 0.59316 0.05993 0.0
C680 C 0.08961 0.60238 0.05183 0.0
C681 C 0.08895 0.63418 0.06359 0.0
H682 H 0.34181 0.84446 0.7923 0.0
H683 H 0.30688 0.78122 0.90227 0.0
H684 H 0.353 0.81603 0.95235 0.0
H685 H 0.43049 0.86329 0.81747 0.0
H686 H 0.4393 0.90506 0.80272 0.0
H687 H 0.40342 0.87552 0.77624 0.0
H688 H 0.36292 0.90865 0.80177 0.0
H689 H 0.39877 0.93846 0.828 0.0
H690 H 0.36256 0.91958 0.86032 0.0
H691 H 0.40639 0.85443 0.98713 0.0
H692 H 0.45916 0.89735 0.00829 0.0
H693 H 0.45591 0.93905 0.87776 0.0
C694 C 0.34385 0.83805 0.82701 0.0
C695 C 0.32115 0.81006 0.84361 0.0
C696 C 0.32416 0.80256 0.88917 0.0
C697 C 0.35024 0.82215 0.91766 0.0
C698 C 0.37243 0.8495 0.90015 0.0
C699 C 0.36908 0.85778 0.85606 0.0
C700 C 0.39582 0.88872 0.84569 0.0
C701 C 0.4186 0.88277 0.80833 0.0
C702 C 0.37901 0.91544 0.83322 0.0
C703 C 0.41541 0.89621 0.89064 0.0
C704 C 0.4016 0.8731 0.9214 0.0
C705 C 0.41679 0.87323 0.96401 0.0
C706 C 0.44673 0.89761 0.97564 0.0
C707 C 0.46095 0.92187 0.9451 0.0
C708 C 0.4449 0.92132 0.90218 0.0
H709 H 0.23675 0.35367 0.88448 0.0
H710 H 0.18265 0.26026 0.9337 0.0
H711 H 0.14509 0.28574 0.97493 0.0
H712 H 0.22682 0.40381 0.98627 0.0
H713 H 0.22006 0.43564 0.952 0.0
H714 H 0.24768 0.41196 0.93398 0.0
H715 H 0.2125 0.39739 0.85918 0.0
H716 H 0.18452 0.42073 0.87631 0.0
H717 H 0.16718 0.37878 0.85985 0.0
H718 H 0.10563 0.31697 0.99205 0.0
H719 H 0.07203 0.35575 0.00247 0.0
H720 H 0.15195 0.43056 0.94463 0.0
C721 C 0.2179 0.33888 0.9055 0.0
C722 C 0.21243 0.3051 0.90619 0.0
C723 C 0.18715 0.28622 0.93302 0.0
C724 C 0.16576 0.30047 0.95648 0.0
C725 C 0.17035 0.33356 0.95287 0.0
C726 C 0.19628 0.35278 0.92904 0.0
C727 C 0.19318 0.38701 0.92657 0.0
C728 C 0.22374 0.41103 0.95119 0.0
C729 C 0.18909 0.3965 0.87758 0.0
C730 C 0.16064 0.38358 0.95113 0.0
C731 C 0.14797 0.35247 0.96571 0.0
C732 C 0.11596 0.34189 0.98333 0.0
C733 C 0.09683 0.36396 0.98812 0.0
C734 C 0.10966 0.39626 0.97482 0.0
C735 C 0.14199 0.40621 0.95608 0.0
H736 H 0.70848 0.15593 0.79473 0.0
H737 H 0.71148 0.23765 0.88387 0.0
H738 H 0.6694 0.20222 0.93066 0.0
H739 H 0.62256 0.12203 0.7929 0.0
H740 H 0.62294 0.08031 0.7933 0.0
H741 H 0.65799 0.10997 0.77096 0.0
H742 H 0.70052 0.09356 0.82545 0.0
H743 H 0.66568 0.06332 0.84788 0.0
H744 H 0.69389 0.09334 0.88486 0.0
H745 H 0.62132 0.16221 0.95928 0.0
H746 H 0.56998 0.11811 0.97095 0.0
H747 H 0.59803 0.05969 0.86718 0.0
C748 C 0.70102 0.16613 0.82486 0.0
C749 C 0.71327 0.19953 0.83583 0.0
C750 C 0.70237 0.21218 0.87485 0.0
C751 C 0.67867 0.1922 0.90181 0.0
C752 C 0.66638 0.15963 0.88946 0.0
C753 C 0.67729 0.14646 0.85223 0.0
C754 C 0.65739 0.11129 0.8443 0.0
C755 C 0.63913 0.10561 0.7976 0.0
C756 C 0.68077 0.08906 0.85104 0.0
C757 C 0.63218 0.10747 0.8812 0.0
C758 C 0.63844 0.13563 0.9072 0.0
C759 C 0.61673 0.13973 0.94013 0.0
C760 C 0.58765 0.11459 0.94644 0.0
C761 C 0.58076 0.08549 0.92064 0.0
C762 C 0.60343 0.08152 0.88796 0.0
H763 H 0.81371 0.66572 0.86164 0.0
H764 H 0.88703 0.75777 0.89537 0.0
H765 H 0.92827 0.7292 0.92352 0.0
H766 H 0.83801 0.61972 0.95499 0.0
H767 H 0.8331 0.58375 0.92056 0.0
H768 H 0.80662 0.61028 0.90915 0.0
H769 H 0.82562 0.61701 0.82779 0.0
H770 H 0.85165 0.58997 0.83711 0.0
H771 H 0.87048 0.62987 0.81711 0.0
H772 H 0.96335 0.69113 0.93939 0.0
H773 H 0.99026 0.64646 0.942 0.0
H774 H 0.89451 0.5792 0.89501 0.0
C775 C 0.83797 0.67983 0.87654 0.0
C776 C 0.84719 0.71388 0.87693 0.0
C777 C 0.87943 0.73163 0.89544 0.0
C778 C 0.90299 0.71562 0.91128 0.0
C779 C 0.8936 0.68195 0.90882 0.0
C780 C 0.86175 0.66425 0.89221 0.0
C781 C 0.85924 0.62858 0.88855 0.0
C782 C 0.83268 0.60943 0.9202 0.0
C783 C 0.85129 0.61562 0.83975 0.0
C784 C 0.89505 0.62906 0.90422 0.0
C785 C 0.91424 0.66 0.91657 0.0
C786 C 0.94851 0.66678 0.93023 0.0
C787 C 0.96358 0.64127 0.93132 0.0
C788 C 0.94448 0.60942 0.91839 0.0
C789 C 0.90976 0.60332 0.9048 0.0
H790 H 0.15056 0.29189 0.14713 0.0
H791 H 0.24601 0.33254 0.0832 0.0
H792 H 0.22441 0.37723 0.05621 0.0
H793 H 0.09128 0.31555 0.06609 0.0
H794 H 0.06704 0.32697 0.10943 0.0
H795 H 0.08728 0.29515 0.11833 0.0
H796 H 0.1191 0.32449 0.18991 0.0
H797 H 0.09861 0.35618 0.18212 0.0
H798 H 0.1445 0.36585 0.18688 0.0
H799 H 0.19841 0.42293 0.05159 0.0
H800 H 0.16381 0.46186 0.05474 0.0
H801 H 0.08317 0.39035 0.11615 0.0
C802 C 0.16618 0.30931 0.12548 0.0
C803 C 0.19978 0.30871 0.11676 0.0
C804 C 0.22006 0.33249 0.08978 0.0
C805 C 0.20802 0.358 0.07439 0.0
C806 C 0.17556 0.35906 0.08587 0.0
C807 C 0.15449 0.33495 0.10984 0.0
C808 C 0.12238 0.34377 0.12213 0.0
C809 C 0.09011 0.31892 0.10278 0.0
C810 C 0.12106 0.34776 0.17331 0.0
C811 C 0.12829 0.37613 0.10025 0.0
C812 C 0.1597 0.38499 0.08097 0.0
C813 C 0.1733 0.41588 0.06512 0.0
C814 C 0.15377 0.43793 0.06763 0.0
C815 C 0.12085 0.42867 0.085 0.0
C816 C 0.10798 0.3975 0.10161 0.0
H817 H 0.21896 0.68569 0.86724 0.0
H818 H 0.21079 0.6505 0.72929 0.0
H819 H 0.16636 0.6014 0.74896 0.0
H820 H 0.20194 0.60339 0.91964 0.0
H821 H 0.17794 0.61508 0.9633 0.0
H822 H 0.21279 0.64477 0.93998 0.0
H823 H 0.17209 0.67995 0.92107 0.0
H824 H 0.13728 0.65028 0.94405 0.0
H825 H 0.13362 0.66271 0.88715 0.0
H826 H 0.1158 0.56254 0.77964 0.0
H827 H 0.06622 0.53298 0.82196 0.0
H828 H 0.10956 0.59015 0.94168 0.0
C829 C 0.20864 0.66695 0.84178 0.0
C830 C 0.21848 0.67124 0.79701 0.0
C831 C 0.20382 0.64706 0.76391 0.0
C832 C 0.17859 0.61924 0.77475 0.0
C833 C 0.16862 0.61591 0.81896 0.0
C834 C 0.18363 0.63876 0.85225 0.0
C835 C 0.16644 0.63039 0.89637 0.0
C836 C 0.19126 0.62295 0.93192 0.0
C837 C 0.15147 0.65743 0.9131 0.0
C838 C 0.13853 0.60019 0.88209 0.0
C839 C 0.14027 0.59223 0.83731 0.0
C840 C 0.11479 0.56779 0.8151 0.0
C841 C 0.08674 0.55119 0.83921 0.0
C842 C 0.0848 0.55876 0.88513 0.0
C843 C 0.11127 0.58316 0.90695 0.0
H844 H 0.32859 0.16697 0.78681 0.0
H845 H 0.33116 0.23413 0.89796 0.0
H846 H 0.36761 0.20822 0.94282 0.0
H847 H 0.32352 0.09746 0.85713 0.0
H848 H 0.34955 0.08037 0.82203 0.0
H849 H 0.32433 0.10472 0.79781 0.0
H850 H 0.37835 0.14164 0.76528 0.0
H851 H 0.40427 0.11817 0.78998 0.0
H852 H 0.41454 0.16098 0.80214 0.0
H853 H 0.40622 0.17608 0.97576 0.0
H854 H 0.43968 0.13779 0.99509 0.0
H855 H 0.40898 0.08836 0.86593 0.0
C856 C 0.33682 0.17621 0.82057 0.0
C857 C 0.32675 0.20278 0.83858 0.0
C858 C 0.33811 0.2138 0.88316 0.0
C859 C 0.35907 0.19928 0.90904 0.0
C860 C 0.36844 0.1732 0.89052 0.0
C861 C 0.35735 0.16145 0.84748 0.0
C862 C 0.37017 0.13225 0.83643 0.0
C863 C 0.3401 0.1019 0.82785 0.0
C864 C 0.39322 0.13867 0.79608 0.0
C865 C 0.39047 0.12978 0.87961 0.0
C866 C 0.38937 0.15381 0.91027 0.0
C867 C 0.40694 0.15699 0.95206 0.0
C868 C 0.42594 0.13503 0.96287 0.0
C869 C 0.4268 0.10958 0.93259 0.0
C870 C 0.40867 0.10719 0.89033 0.0
H871 H 0.84801 0.34191 0.80211 0.0
H872 H 0.84405 0.2607 0.88754 0.0
H873 H 0.88422 0.29683 0.94247 0.0
H874 H 0.93646 0.37814 0.81871 0.0
H875 H 0.93356 0.41914 0.81825 0.0
H876 H 0.90155 0.38758 0.78835 0.0
H877 H 0.85474 0.40339 0.83256 0.0
H878 H 0.88683 0.43462 0.86305 0.0
H879 H 0.85724 0.40402 0.89305 0.0
H880 H 0.92629 0.33991 0.98565 0.0
H881 H 0.97098 0.38711 0.01432 0.0
H882 H 0.95141 0.44182 0.90022 0.0
C883 C 0.85507 0.33195 0.83288 0.0
C884 C 0.84267 0.29855 0.841 0.0
C885 C 0.8531 0.28621 0.88097 0.0
C886 C 0.87582 0.30656 0.91234 0.0
C887 C 0.88803 0.33921 0.90312 0.0
C888 C 0.87821 0.35194 0.8644 0.0
C889 C 0.89737 0.38748 0.86139 0.0
C890 C 0.9185 0.39343 0.81918 0.0
C891 C 0.87256 0.40863 0.86259 0.0
C892 C 0.92012 0.39245 0.90399 0.0
C893 C 0.91366 0.36428 0.9277 0.0
C894 C 0.93153 0.36213 0.96751 0.0
C895 C 0.95705 0.38925 0.98343 0.0
C896 C 0.96506 0.41837 0.9595 0.0
C897 C 0.9459 0.42006 0.91942 0.0
H898 H 0.6802 0.81406 0.78227 0.0
H899 H 0.77044 0.83722 0.87153 0.0
H900 H 0.74709 0.87514 0.9149 0.0
H901 H 0.66499 0.89334 0.78262 0.0
H902 H 0.61925 0.87807 0.78407 0.0
H903 H 0.64367 0.85397 0.75853 0.0
H904 H 0.61774 0.80714 0.81064 0.0
H905 H 0.59314 0.83102 0.83627 0.0
H906 H 0.62111 0.81441 0.87057 0.0
H907 H 0.71402 0.91273 0.94821 0.0
H908 H 0.67208 0.94098 0.97274 0.0
H909 H 0.60047 0.89023 0.86718 0.0
C910 C 0.69517 0.82727 0.81077 0.0
C911 C 0.72761 0.82263 0.82293 0.0
C912 C 0.74575 0.84013 0.86116 0.0
C913 C 0.73265 0.86194 0.88605 0.0
C914 C 0.70075 0.86594 0.87329 0.0
C915 C 0.68196 0.84865 0.83691 0.0
C916 C 0.64742 0.85602 0.83201 0.0
C917 C 0.64361 0.87126 0.78661 0.0
C918 C 0.61812 0.82532 0.83771 0.0
C919 C 0.64981 0.88029 0.8709 0.0
C920 C 0.68104 0.88606 0.89391 0.0
C921 C 0.68948 0.90816 0.93039 0.0
C922 C 0.66549 0.92437 0.94402 0.0
C923 C 0.63278 0.91819 0.9221 0.0
C924 C 0.62513 0.8957 0.8849 0.0
H925 H 0.87103 0.72993 0.10841 0.0
H926 H 0.77228 0.65888 0.10407 0.0
H927 H 0.79723 0.61948 0.06659 0.0
H928 H 0.9015 0.70501 0.00277 0.0
H929 H 0.94463 0.71096 0.02476 0.0
H930 H 0.91902 0.73583 0.04533 0.0
H931 H 0.92732 0.71969 0.12676 0.0
H932 H 0.95401 0.69548 0.10808 0.0
H933 H 0.91723 0.67756 0.13995 0.0
H934 H 0.83453 0.5861 0.03862 0.0
H935 H 0.88084 0.56161 0.02105 0.0
H936 H 0.95525 0.65443 0.04671 0.0
C937 C 0.85443 0.70644 0.09816 0.0
C938 C 0.81972 0.69743 0.10841 0.0
C939 C 0.79891 0.66621 0.0959 0.0
C940 C 0.81285 0.64374 0.07467 0.0
C941 C 0.84758 0.65297 0.06653 0.0
C942 C 0.86805 0.68364 0.07774 0.0
C943 C 0.90516 0.68657 0.06989 0.0
C944 C 0.91842 0.71106 0.03352 0.0
C945 C 0.9272 0.69533 0.11378 0.0
C946 C 0.90255 0.65254 0.05364 0.0
C947 C 0.86914 0.63359 0.05142 0.0
C948 C 0.86075 0.6008 0.03975 0.0
C949 C 0.88723 0.58709 0.03004 0.0
C950 C 0.92165 0.60608 0.03284 0.0
C951 C 0.92921 0.63926 0.04435 0.0
H952 H 0.35329 0.81361 0.16293 0.0
H953 H 0.29841 0.88046 0.20899 0.0
H954 H 0.34271 0.92582 0.17819 0.0
H955 H 0.4345 0.86292 0.19601 0.0
H956 H 0.45536 0.85017 0.14972 0.0
H957 H 0.41743 0.82322 0.17045 0.0
H958 H 0.38852 0.81709 0.09115 0.0
H959 H 0.42593 0.84426 0.06939 0.0
H960 H 0.38498 0.85246 0.0623 0.0
H961 H 0.39403 0.96346 0.14109 0.0
H962 H 0.44872 0.99002 0.10653 0.0
H963 H 0.47119 0.8976 0.09495 0.0
C964 C 0.34997 0.83763 0.16574 0.0
C965 C 0.32205 0.84352 0.1874 0.0
C966 C 0.31941 0.87549 0.19176 0.0
C967 C 0.34444 0.9013 0.17453 0.0
C968 C 0.3721 0.89457 0.15413 0.0
C969 C 0.37501 0.86346 0.15022 0.0
C970 C 0.40815 0.86238 0.13036 0.0
C971 C 0.43015 0.84889 0.16364 0.0
C972 C 0.40151 0.8429 0.08562 0.0
C973 C 0.42368 0.89784 0.1234 0.0
C974 C 0.40241 0.91611 0.13654 0.0
C975 C 0.411 0.94941 0.13121 0.0
C976 C 0.44204 0.96427 0.11172 0.0
C977 C 0.46427 0.94585 0.09902 0.0
C978 C 0.455 0.91234 0.10537 0.0
H979 H 0.68413 0.22036 0.17993 0.0
H980 H 0.76467 0.18658 0.12232 0.0
H981 H 0.72145 0.14522 0.0771 0.0
H982 H 0.62607 0.14502 0.19106 0.0
H983 H 0.58838 0.15733 0.17602 0.0
H984 H 0.62556 0.18631 0.20059 0.0
H985 H 0.62678 0.22319 0.13269 0.0
H986 H 0.5893 0.19449 0.10812 0.0
H987 H 0.62737 0.20694 0.07669 0.0
H988 H 0.66937 0.1032 0.04593 0.0
H989 H 0.61231 0.06711 0.02454 0.0
H990 H 0.56513 0.12994 0.09803 0.0
C991 C 0.69269 0.20473 0.157 0.0
C992 C 0.7278 0.2067 0.15462 0.0
C993 C 0.73797 0.18563 0.12455 0.0
C994 C 0.71357 0.16199 0.09883 0.0
C995 C 0.67911 0.16004 0.10298 0.0
C996 C 0.66867 0.18123 0.13068 0.0
C997 C 0.63 0.17329 0.13007 0.0
C998 C 0.61674 0.165 0.17723 0.0
C999 C 0.61764 0.20114 0.11073 0.0
C1000 C 0.62028 0.14382 0.09859 0.0
C1001 C 0.64904 0.13652 0.08354 0.0
C1002 C 0.64671 0.10902 0.05688 0.0
C1003 C 0.61421 0.08852 0.0452 0.0
C1004 C 0.58437 0.09584 0.05941 0.0
C1005 C 0.58752 0.12406 0.08612 0.0
H1006 H 0.66917 0.65609 0.73612 0.0
H1007 H 0.73596 0.70455 0.8477 0.0
H1008 H 0.70393 0.66397 0.89899 0.0
H1009 H 0.59415 0.64258 0.79579 0.0
H1010 H 0.57323 0.60418 0.76858 0.0
H1011 H 0.60453 0.6338 0.7396 0.0
H1012 H 0.63893 0.59219 0.72706 0.0
H1013 H 0.60773 0.56243 0.7562 0.0
H1014 H 0.65209 0.57258 0.7746 0.0
H1015 H 0.66298 0.62003 0.93865 0.0
H1016 H 0.6126 0.58036 0.96578 0.0
H1017 H 0.56909 0.56298 0.82942 0.0
C1018 C 0.6775 0.65772 0.77119 0.0
C1019 C 0.70569 0.68293 0.78779 0.0
C1020 C 0.71506 0.68495 0.83411 0.0
C1021 C 0.69697 0.66202 0.86348 0.0
C1022 C 0.66917 0.63754 0.84611 0.0
C1023 C 0.65916 0.6355 0.80114 0.0
C1024 C 0.62609 0.60918 0.79197 0.0
C1025 C 0.59784 0.62329 0.77287 0.0
C1026 C 0.63155 0.58251 0.76059 0.0
C1027 C 0.61875 0.59707 0.83893 0.0
C1028 C 0.64434 0.6133 0.86944 0.0
C1029 C 0.64286 0.60708 0.91504 0.0
C1030 C 0.61406 0.58438 0.93009 0.0
C1031 C 0.58669 0.56847 0.89978 0.0
C1032 C 0.58957 0.57451 0.85344 0.0
H1033 H 0.39819 0.72336 0.82437 0.0
H1034 H 0.38337 0.68276 0.68871 0.0
H1035 H 0.41931 0.64696 0.70857 0.0
H1036 H 0.4872 0.71356 0.85076 0.0
H1037 H 0.47539 0.70218 0.907 0.0
H1038 H 0.45753 0.73077 0.87863 0.0
H1039 H 0.39757 0.69511 0.89429 0.0
H1040 H 0.41347 0.66431 0.91925 0.0
H1041 H 0.38379 0.65421 0.87186 0.0
H1042 H 0.44232 0.60694 0.74724 0.0
H1043 H 0.45686 0.56905 0.80051 0.0
H1044 H 0.45893 0.63663 0.91057 0.0
C1045 C 0.4039 0.70799 0.79837 0.0
C1046 C 0.38828 0.70561 0.75519 0.0
C1047 C 0.39541 0.68485 0.72203 0.0
C1048 C 0.41586 0.66457 0.73297 0.0
C1049 C 0.42921 0.66593 0.77687 0.0
C1050 C 0.42416 0.68765 0.80885 0.0
C1051 C 0.43589 0.68062 0.8552 0.0
C1052 C 0.46579 0.70844 0.87399 0.0
C1053 C 0.40593 0.67316 0.88698 0.0
C1054 C 0.44721 0.65089 0.84466 0.0
C1055 C 0.44324 0.64282 0.7993 0.0
C1056 C 0.44678 0.61358 0.78256 0.0
C1057 C 0.45459 0.5921 0.81301 0.0
C1058 C 0.45907 0.60025 0.85938 0.0
C1059 C 0.45618 0.63024 0.87519 0.0
H1060 H 0.36675 0.36343 0.76331 0.0
H1061 H 0.31777 0.29722 0.86434 0.0
H1062 H 0.35548 0.33057 0.92304 0.0
H1063 H 0.44978 0.37976 0.80816 0.0
H1064 H 0.46249 0.42227 0.79703 0.0
H1065 H 0.4294 0.39519 0.76237 0.0
H1066 H 0.38795 0.42947 0.77961 0.0
H1067 H 0.42107 0.4569 0.81403 0.0
H1068 H 0.38046 0.43799 0.83713 0.0
H1069 H 0.40348 0.36501 0.96884 0.0
H1070 H 0.45516 0.40442 0.00147 0.0
H1071 H 0.47066 0.45242 0.87449 0.0
C1072 C 0.36356 0.35648 0.79791 0.0
C1073 C 0.33956 0.32759 0.80917 0.0
C1074 C 0.33614 0.3191 0.85477 0.0
C1075 C 0.35741 0.33793 0.88853 0.0
C1076 C 0.38158 0.36562 0.87637 0.0
C1077 C 0.38437 0.37544 0.83245 0.0
C1078 C 0.41343 0.40592 0.82892 0.0
C1079 C 0.44036 0.40043 0.79725 0.0
C1080 C 0.39991 0.43425 0.81405 0.0
C1081 C 0.42714 0.4107 0.87728 0.0
C1082 C 0.40838 0.38702 0.90394 0.0
C1083 C 0.41788 0.38426 0.94872 0.0
C1084 C 0.44728 0.40655 0.96692 0.0
C1085 C 0.46626 0.43155 0.94065 0.0
C1086 C 0.45596 0.43383 0.8954 0.0
H1087 H 0.7072 0.33512 0.88068 0.0
H1088 H 0.72905 0.39303 0.76253 0.0
H1089 H 0.70635 0.43466 0.79822 0.0
H1090 H 0.62864 0.34741 0.89875 0.0
H1091 H 0.63285 0.34957 0.95913 0.0
H1092 H 0.65588 0.32704 0.92786 0.0
H1093 H 0.71146 0.36013 0.96802 0.0
H1094 H 0.69076 0.38583 0.9978 0.0
H1095 H 0.72536 0.40331 0.96258 0.0
H1096 H 0.67809 0.46827 0.84477 0.0
H1097 H 0.63953 0.4875 0.89379 0.0
H1098 H 0.63211 0.40557 0.97849 0.0
C1099 C 0.7077 0.35685 0.86273 0.0
C1100 C 0.72001 0.36112 0.81908 0.0
C1101 C 0.71974 0.38947 0.7961 0.0
C1102 C 0.70718 0.41331 0.81624 0.0
C1103 C 0.69487 0.40829 0.85923 0.0
C1104 C 0.69475 0.38062 0.88206 0.0
C1105 C 0.67704 0.3796 0.92593 0.0
C1106 C 0.64681 0.34911 0.92801 0.0
C1107 C 0.70266 0.38231 0.96594 0.0
C1108 C 0.66522 0.40987 0.92279 0.0
C1109 C 0.67705 0.42684 0.88506 0.0
C1110 C 0.66891 0.45533 0.87457 0.0
C1111 C 0.64718 0.46614 0.90258 0.0
C1112 C 0.63328 0.44798 0.93967 0.0
C1113 C 0.64284 0.41989 0.9504 0.0
H1114 H 0.65853 0.31749 0.15791 0.0
H1115 H 0.74762 0.39041 0.21244 0.0
H1116 H 0.73247 0.43119 0.16571 0.0
H1117 H 0.65563 0.34972 0.04398 0.0
H1118 H 0.6099 0.34239 0.04123 0.0
H1119 H 0.62935 0.31601 0.07219 0.0
H1120 H 0.60106 0.32515 0.14484 0.0
H1121 H 0.57917 0.34965 0.11461 0.0
H1122 H 0.60469 0.36576 0.16474 0.0
H1123 H 0.70366 0.46506 0.12639 0.0
H1124 H 0.65979 0.49111 0.10094 0.0
H1125 H 0.58961 0.39719 0.06883 0.0
C1126 C 0.67499 0.34197 0.15922 0.0
C1127 C 0.70402 0.3511 0.18841 0.0
C1128 C 0.72499 0.38324 0.1903 0.0
C1129 C 0.71698 0.40638 0.16335 0.0
C1130 C 0.68798 0.39683 0.13492 0.0
C1131 C 0.66706 0.36549 0.13295 0.0
C1132 C 0.63445 0.36281 0.10569 0.0
C1133 C 0.63222 0.3415 0.06322 0.0
C1134 C 0.60302 0.35014 0.13418 0.0
C1135 C 0.63965 0.39787 0.09462 0.0
C1136 C 0.67109 0.41693 0.11096 0.0
C1137 C 0.67939 0.45051 0.11215 0.0
C1138 C 0.65435 0.46507 0.09814 0.0
C1139 C 0.62179 0.44588 0.0831 0.0
C1140 C 0.61482 0.41213 0.07927 0.0
H1141 H 0.68995 0.65608 0.22733 0.0
H1142 H 0.67908 0.74992 0.19122 0.0
H1143 H 0.63169 0.72405 0.13781 0.0
H1144 H 0.67457 0.62092 0.11759 0.0
H1145 H 0.65039 0.58146 0.13393 0.0
H1146 H 0.68194 0.60676 0.17252 0.0
H1147 H 0.63633 0.60229 0.232 0.0
H1148 H 0.60467 0.57674 0.19367 0.0
H1149 H 0.59757 0.61295 0.21756 0.0
H1150 H 0.58962 0.68964 0.08433 0.0
H1151 H 0.55149 0.64731 0.03547 0.0
H1152 H 0.5868 0.57429 0.10573 0.0
C1153 C 0.67697 0.67093 0.20878 0.0
C1154 C 0.68798 0.70492 0.21326 0.0
C1155 C 0.671 0.72382 0.18802 0.0
C1156 C 0.64402 0.70937 0.15769 0.0
C1157 C 0.63416 0.67591 0.15308 0.0
C1158 C 0.64974 0.65676 0.17804 0.0
C1159 C 0.63466 0.62135 0.16469 0.0
C1160 C 0.66202 0.60678 0.14608 0.0
C1161 C 0.61727 0.6022 0.20435 0.0
C1162 C 0.60865 0.62387 0.12811 0.0
C1163 C 0.60899 0.65565 0.1221 0.0
C1164 C 0.58871 0.66458 0.089 0.0
C1165 C 0.56724 0.64035 0.06128 0.0
C1166 C 0.56597 0.60751 0.067 0.0
C1167 C 0.5869 0.59918 0.10102 0.0
H1168 H 0.32592 0.66056 0.15337 0.0
H1169 H 0.38378 0.7593 0.13105 0.0
H1170 H 0.41254 0.74035 0.06924 0.0
H1171 H 0.39253 0.6261 0.1389 0.0
H1172 H 0.3671 0.58951 0.11087 0.0
H1173 H 0.34768 0.61124 0.14894 0.0
H1174 H 0.3032 0.61454 0.08608 0.0
H1175 H 0.32288 0.59309 0.0476 0.0
H1176 H 0.31759 0.63196 0.0334 0.0
H1177 H 0.43998 0.71124 0.01803 0.0
H1178 H 0.46736 0.67333 0.98306 0.0
H1179 H 0.39108 0.59265 0.03507 0.0
C1180 C 0.34435 0.67812 0.13499 0.0
C1181 C 0.35275 0.71132 0.14675 0.0
C1182 C 0.37713 0.73372 0.12248 0.0
C1183 C 0.39331 0.72323 0.08707 0.0
C1184 C 0.38459 0.69032 0.07625 0.0
C1185 C 0.36079 0.66802 0.09948 0.0
C1186 C 0.35866 0.63382 0.08386 0.0
C1187 C 0.36701 0.61402 0.12296 0.0
C1188 C 0.32349 0.61739 0.06139 0.0
C1189 C 0.38624 0.64038 0.04985 0.0
C1190 C 0.40029 0.67321 0.04543 0.0
C1191 C 0.42871 0.6855 0.02027 0.0
C1192 C 0.4441 0.66376 1.00056 0.0
C1193 C 0.43079 0.63009 0.00556 0.0
C1194 C 0.40085 0.6182 0.02925 0.0
H1195 H 0.36174 0.31325 0.17544 0.0
H1196 H 0.30956 0.37529 0.24086 0.0
H1197 H 0.34154 0.42156 0.19728 0.0
H1198 H 0.44153 0.3692 0.18349 0.0
H1199 H 0.4559 0.35773 0.13089 0.0
H1200 H 0.42452 0.32871 0.1605 0.0
H1201 H 0.38342 0.31889 0.09 0.0
H1202 H 0.41477 0.34806 0.0602 0.0
H1203 H 0.3724 0.3526 0.0648 0.0
H1204 H 0.3821 0.46196 0.14843 0.0
H1205 H 0.43207 0.49342 0.10779 0.0
H1206 H 0.46162 0.40573 0.08276 0.0
C1207 C 0.35643 0.33641 0.17948 0.0
C1208 C 0.33271 0.34076 0.21052 0.0
C1209 C 0.32732 0.37157 0.21658 0.0
C1210 C 0.34526 0.39788 0.19187 0.0
C1211 C 0.36899 0.39305 0.16186 0.0
C1212 C 0.37485 0.36308 0.15606 0.0
C1213 C 0.40474 0.36502 0.12657 0.0
C1214 C 0.43335 0.35456 0.15189 0.0
C1215 C 0.39312 0.34494 0.0828 0.0
C1216 C 0.41534 0.4008 0.11761 0.0
C1217 C 0.39383 0.41651 0.13691 0.0
C1218 C 0.39901 0.44982 0.13311 0.0
C1219 C 0.42731 0.46751 0.10988 0.0
C1220 C 0.45047 0.45193 0.09207 0.0
C1221 C 0.44406 0.41817 0.09571 0.0
H1222 H 0.87022 0.71671 0.69149 0.0
H1223 H 0.77013 0.66087 0.64076 0.0
H1224 H 0.79619 0.62177 0.60424 0.0
H1225 H 0.91348 0.70595 0.58919 0.0
H1226 H 0.95232 0.70455 0.61893 0.0
H1227 H 0.92561 0.72717 0.64252 0.0
H1228 H 0.92226 0.69467 0.71506 0.0
H1229 H 0.94873 0.67177 0.69156 0.0
H1230 H 0.90745 0.65122 0.71148 0.0
H1231 H 0.8338 0.58564 0.57823 0.0
H1232 H 0.87905 0.5616 0.55406 0.0
H1233 H 0.95591 0.64437 0.61229 0.0
C1234 C 0.85379 0.69626 0.67261 0.0
C1235 C 0.81784 0.69188 0.66945 0.0
C1236 C 0.79755 0.66496 0.64378 0.0
C1237 C 0.81222 0.64245 0.62307 0.0
C1238 C 0.84761 0.64733 0.62705 0.0
C1239 C 0.86822 0.67407 0.65033 0.0
C1240 C 0.90573 0.67473 0.64724 0.0
C1241 C 0.92545 0.70489 0.62303 0.0
C1242 C 0.922 0.673 0.69412 0.0
C1243 C 0.90309 0.64404 0.61916 0.0
C1244 C 0.86925 0.62824 0.60864 0.0
C1245 C 0.86033 0.59838 0.58545 0.0
C1246 C 0.88639 0.58479 0.57179 0.0
C1247 C 0.92146 0.60138 0.57934 0.0
C1248 C 0.92958 0.63126 0.60439 0.0
H1249 H 0.37023 0.82423 0.64153 0.0
H1250 H 0.31197 0.87295 0.72205 0.0
H1251 H 0.35518 0.92502 0.71232 0.0
H1252 H 0.45324 0.87104 0.67955 0.0
H1253 H 0.47176 0.87243 0.62545 0.0
H1254 H 0.43661 0.83866 0.63866 0.0
H1255 H 0.40074 0.84841 0.56886 0.0
H1256 H 0.43701 0.88066 0.555 0.0
H1257 H 0.39602 0.88833 0.56046 0.0
H1258 H 0.40627 0.97054 0.69825 0.0
H1259 H 0.45449 1.00968 0.66592 0.0
H1260 H 0.47747 0.93218 0.58895 0.0
C1261 C 0.36634 0.84603 0.65629 0.0
C1262 C 0.33782 0.84487 0.68219 0.0
C1263 C 0.33342 0.87362 0.70138 0.0
C1264 C 0.35806 0.90313 0.69663 0.0
C1265 C 0.38647 0.90334 0.67199 0.0
C1266 C 0.39021 0.87577 0.65095 0.0
C1267 C 0.42219 0.88297 0.62434 0.0
C1268 C 0.44744 0.86521 0.64314 0.0
C1269 C 0.41341 0.87461 0.57418 0.0
C1270 C 0.43558 0.91904 0.63311 0.0
C1271 C 0.41513 0.93003 0.66186 0.0
C1272 C 0.42231 0.96232 0.67536 0.0
C1273 C 0.45003 0.98434 0.657 0.0
C1274 C 0.46973 0.97407 0.62456 0.0
C1275 C 0.46301 0.94078 0.6137 0.0
H1276 H 0.20547 0.30055 0.6258 0.0
H1277 H 0.23144 0.35371 0.75324 0.0
H1278 H 0.20182 0.39288 0.72736 0.0
H1279 H 0.21294 0.37195 0.5554 0.0
H1280 H 0.17674 0.35266 0.5186 0.0
H1281 H 0.20139 0.32883 0.54557 0.0
H1282 H 0.14644 0.29328 0.57889 0.0
H1283 H 0.12182 0.3173 0.5523 0.0
H1284 H 0.12069 0.31203 0.61207 0.0
H1285 H 0.17028 0.42714 0.68965 0.0
H1286 H 0.13775 0.45485 0.64119 0.0
H1287 H 0.12747 0.38088 0.53699 0.0
C1288 C 0.20527 0.32069 0.64792 0.0
C1289 C 0.22118 0.32379 0.69188 0.0
C1290 C 0.21961 0.35038 0.71971 0.0
C1291 C 0.20277 0.37298 0.70525 0.0
C1292 C 0.18697 0.36908 0.66254 0.0
C1293 C 0.18793 0.34373 0.63398 0.0
C1294 C 0.16773 0.34544 0.59005 0.0
C1295 C 0.1911 0.34999 0.55004 0.0
C1296 C 0.13737 0.31521 0.58291 0.0
C1297 C 0.15551 0.37558 0.59872 0.0
C1298 C 0.16728 0.3887 0.64085 0.0
C1299 C 0.1607 0.41694 0.65674 0.0
C1300 C 0.14204 0.43252 0.62895 0.0
C1301 C 0.12934 0.41993 0.58562 0.0
C1302 C 0.13604 0.39077 0.57036 0.0
H1303 H 0.69607 0.18814 0.70664 0.0
H1304 H 0.71535 0.25354 0.59608 0.0
H1305 H 0.68303 0.20888 0.54394 0.0
H1306 H 0.70194 0.11684 0.64913 0.0
H1307 H 0.66765 0.09096 0.67868 0.0
H1308 H 0.69319 0.12818 0.70488 0.0
H1309 H 0.63764 0.14661 0.71662 0.0
H1310 H 0.61315 0.10854 0.69148 0.0
H1311 H 0.60896 0.14589 0.66905 0.0
H1312 H 0.65078 0.15477 0.50375 0.0
H1313 H 0.61655 0.09913 0.4812 0.0
H1314 H 0.6151 0.07186 0.62021 0.0
C1315 C 0.69355 0.19311 0.67141 0.0
C1316 C 0.70842 0.22412 0.65512 0.0
C1317 C 0.70408 0.22986 0.60906 0.0
C1318 C 0.68593 0.20462 0.57932 0.0
C1319 C 0.67179 0.1741 0.59654 0.0
C1320 C 0.67496 0.16858 0.64175 0.0
C1321 C 0.65634 0.1343 0.65269 0.0
C1322 C 0.68126 0.11652 0.67251 0.0
C1323 C 0.62729 0.13378 0.68434 0.0
C1324 C 0.64255 0.12092 0.60647 0.0
C1325 C 0.65196 0.14406 0.57427 0.0
C1326 C 0.64301 0.13671 0.52885 0.0
C1327 C 0.62371 0.10512 0.5163 0.0
C1328 C 0.6132 0.08159 0.54914 0.0
C1329 C 0.62271 0.08963 0.59464 0.0
H1330 H 0.85497 0.33153 0.31708 0.0
H1331 H 0.77134 0.31948 0.40658 0.0
H1332 H 0.8084 0.36008 0.45962 0.0
H1333 H 0.9264 0.34872 0.40425 0.0
H1334 H 0.9534 0.37888 0.3707 0.0
H1335 H 0.92236 0.34492 0.34386 0.0
H1336 H 0.89539 0.38373 0.29928 0.0
H1337 H 0.92711 0.41749 0.32531 0.0
H1338 H 0.8824 0.41469 0.3293 0.0
H1339 H 0.85132 0.40734 0.4969 0.0
H1340 H 0.89713 0.45716 0.51626 0.0
H1341 H 0.95318 0.43879 0.40268 0.0
C1342 C 0.84483 0.33665 0.34856 0.0
C1343 C 0.81041 0.32221 0.35804 0.0
C1344 C 0.79774 0.33015 0.39893 0.0
C1345 C 0.81862 0.35312 0.42925 0.0
C1346 C 0.85214 0.36783 0.4182 0.0
C1347 C 0.86526 0.35975 0.37896 0.0
C1348 C 0.90069 0.38167 0.37246 0.0
C1349 C 0.92729 0.36239 0.37286 0.0
C1350 C 0.90144 0.40052 0.32902 0.0
C1351 C 0.90521 0.40381 0.41362 0.0
C1352 C 0.87698 0.39527 0.43974 0.0
C1353 C 0.87379 0.41391 0.47716 0.0
C1354 C 0.89981 0.44224 0.48774 0.0
C1355 C 0.92871 0.45165 0.46109 0.0
C1356 C 0.93171 0.43178 0.42416 0.0
H1357 H 0.67753 0.8025 0.38198 0.0
H1358 H 0.77656 0.87272 0.38035 0.0
H1359 H 0.75193 0.91455 0.41146 0.0
H1360 H 0.63154 0.85221 0.34224 0.0
H1361 H 0.59482 0.83728 0.37552 0.0
H1362 H 0.62114 0.81145 0.36172 0.0
H1363 H 0.63057 0.80171 0.44595 0.0
H1364 H 0.60409 0.8274 0.46038 0.0
H1365 H 0.64702 0.83571 0.48426 0.0
H1366 H 0.71482 0.9502 0.43174 0.0
H1367 H 0.66871 0.97629 0.44357 0.0
H1368 H 0.59382 0.8828 0.43048 0.0
C1369 C 0.69426 0.82638 0.38976 0.0
C1370 C 0.72897 0.8344 0.37931 0.0
C1371 C 0.74994 0.8661 0.38861 0.0
C1372 C 0.73617 0.88999 0.40623 0.0
C1373 C 0.70143 0.88168 0.41432 0.0
C1374 C 0.68084 0.85053 0.40685 0.0
C1375 C 0.64377 0.84854 0.41389 0.0
C1376 C 0.62154 0.83668 0.37078 0.0
C1377 C 0.63058 0.82706 0.45349 0.0
C1378 C 0.64651 0.88357 0.42496 0.0
C1379 C 0.68001 0.90228 0.42555 0.0
C1380 C 0.68858 0.9357 0.43213 0.0
C1381 C 0.66224 0.95031 0.43866 0.0
C1382 C 0.62778 0.93152 0.43817 0.0
C1383 C 0.61997 0.89775 0.4313 0.0
H1384 H 0.19359 0.69552 0.36905 0.0
H1385 H 0.23022 0.64742 0.26016 0.0
H1386 H 0.18248 0.59899 0.26832 0.0
H1387 H 0.17058 0.62697 0.4356 0.0
H1388 H 0.13304 0.63515 0.45763 0.0
H1389 H 0.16801 0.66789 0.44126 0.0
H1390 H 0.12821 0.68775 0.38662 0.0
H1391 H 0.09245 0.65552 0.40264 0.0
H1392 H 0.10252 0.66027 0.3444 0.0
H1393 H 0.13116 0.55633 0.28666 0.0
H1394 H 0.08673 0.51702 0.32543 0.0
H1395 H 0.08436 0.5909 0.42539 0.0
C1396 C 0.19167 0.67471 0.34714 0.0
C1397 C 0.21568 0.67534 0.31398 0.0
C1398 C 0.2124 0.64754 0.28613 0.0
C1399 C 0.18501 0.62004 0.28995 0.0
C1400 C 0.16121 0.6206 0.32191 0.0
C1401 C 0.1646 0.64685 0.35073 0.0
C1402 C 0.1371 0.63988 0.38485 0.0
C1403 C 0.1531 0.64263 0.43273 0.0
C1404 C 0.11368 0.66219 0.37927 0.0
C1405 C 0.11835 0.60527 0.37136 0.0
C1406 C 0.1321 0.59512 0.33402 0.0
C1407 C 0.12014 0.5639 0.31594 0.0
C1408 C 0.09478 0.54178 0.33816 0.0
C1409 C 0.08217 0.55082 0.37856 0.0
C1410 C 0.09308 0.58337 0.39423 0.0
H1411 H 0.38795 0.22866 0.3664 0.0
H1412 H 0.28352 0.18696 0.40406 0.0
H1413 H 0.29833 0.13816 0.42854 0.0
H1414 H 0.40379 0.1565 0.32542 0.0
H1415 H 0.44695 0.16547 0.34849 0.0
H1416 H 0.42882 0.19786 0.33401 0.0
H1417 H 0.44207 0.22211 0.41506 0.0
H1418 H 0.46084 0.19016 0.42949 0.0
H1419 H 0.42691 0.19706 0.46179 0.0
H1420 H 0.32216 0.09234 0.44183 0.0
H1421 H 0.35752 0.05645 0.46255 0.0
H1422 H 0.44794 0.12866 0.42263 0.0
C1423 C 0.3685 0.20957 0.38085 0.0
C1424 C 0.33458 0.21138 0.38302 0.0
C1425 C 0.30969 0.18599 0.40203 0.0
C1426 C 0.31769 0.15799 0.41548 0.0
C1427 C 0.35081 0.15608 0.41039 0.0
C1428 C 0.3762 0.18155 0.39531 0.0
C1429 C 0.41017 0.17361 0.39576 0.0
C1430 C 0.42319 0.17336 0.34808 0.0
C1431 C 0.43655 0.19712 0.42743 0.0
C1432 C 0.39979 0.13987 0.41389 0.0
C1433 C 0.36516 0.12989 0.42042 0.0
C1434 C 0.34932 0.09975 0.43687 0.0
C1435 C 0.36964 0.07956 0.44851 0.0
C1436 C 0.40547 0.08993 0.44452 0.0
C1437 C 0.42063 0.12025 0.42627 0.0
H1438 H 0.65568 0.79093 0.63381 0.0
H1439 H 0.75452 0.82426 0.57515 0.0
H1440 H 0.73797 0.87068 0.54414 0.0
H1441 H 0.60461 0.81801 0.54332 0.0
H1442 H 0.57824 0.83049 0.58305 0.0
H1443 H 0.59565 0.79721 0.59506 0.0
H1444 H 0.62273 0.82555 0.66981 0.0
H1445 H 0.60599 0.85923 0.65817 0.0
H1446 H 0.65113 0.86579 0.66945 0.0
H1447 H 0.71656 0.91882 0.53546 0.0
H1448 H 0.6853 0.96029 0.53171 0.0
H1449 H 0.59773 0.89405 0.58848 0.0
C1450 C 0.6732 0.80724 0.61278 0.0
C1451 C 0.70628 0.80407 0.60661 0.0
C1452 C 0.72897 0.82626 0.57996 0.0
C1453 C 0.71989 0.85279 0.56247 0.0
C1454 C 0.68792 0.85643 0.57159 0.0
C1455 C 0.66444 0.83382 0.59488 0.0
C1456 C 0.63272 0.84474 0.60251 0.0
C1457 C 0.60094 0.82123 0.57958 0.0
C1458 C 0.62788 0.84908 0.65296 0.0
C1459 C 0.6422 0.87701 0.58 0.0
C1460 C 0.67452 0.88358 0.56348 0.0
C1461 C 0.69076 0.91356 0.54675 0.0
C1462 C 0.67295 0.93704 0.54518 0.0
C1463 C 0.63888 0.92995 0.55867 0.0
C1464 C 0.62348 0.8997 0.57684 0.0
H1465 H 0.7181 0.16334 0.32388 0.0
H1466 H 0.65655 0.231 0.3289 0.0
H1467 H 0.60775 0.1876 0.35292 0.0
H1468 H 0.65254 0.09667 0.27875 0.0
H1469 H 0.66573 0.06683 0.31093 0.0
H1470 H 0.69674 0.10345 0.29657 0.0
H1471 H 0.715 0.11649 0.38065 0.0
H1472 H 0.68474 0.07945 0.39505 0.0
H1473 H 0.68298 0.11722 0.42041 0.0
H1474 H 0.56604 0.13728 0.37696 0.0
H1475 H 0.53492 0.08355 0.40314 0.0
H1476 H 0.62236 0.048 0.3777 0.0
C1477 C 0.69457 0.16917 0.33088 0.0
C1478 C 0.69113 0.20055 0.32487 0.0
C1479 C 0.65973 0.2071 0.33347 0.0
C1480 C 0.63184 0.18261 0.34691 0.0
C1481 C 0.63575 0.15171 0.3512 0.0
C1482 C 0.66635 0.14493 0.34377 0.0
C1483 C 0.66363 0.10959 0.35027 0.0
C1484 C 0.67004 0.09318 0.30652 0.0
C1485 C 0.68803 0.10546 0.3889 0.0
C1486 C 0.62673 0.09757 0.36255 0.0
C1487 C 0.61114 0.1223 0.36302 0.0
C1488 C 0.57778 0.11761 0.37617 0.0
C1489 C 0.56025 0.08705 0.39065 0.0
C1490 C 0.57603 0.06162 0.39123 0.0
C1491 C 0.60934 0.06676 0.37596 0.0
H1492 H 0.85718 0.69736 0.2793 0.0
H1493 H 0.79131 0.70566 0.38717 0.0
H1494 H 0.81899 0.67316 0.43484 0.0
H1495 H 0.86047 0.61563 0.29936 0.0
H1496 H 0.90497 0.62299 0.28778 0.0
H1497 H 0.87995 0.64666 0.2613 0.0
H1498 H 0.92317 0.699 0.29256 0.0
H1499 H 0.9483 0.67552 0.31931 0.0
H1500 H 0.93324 0.70396 0.35208 0.0
H1501 H 0.85084 0.63709 0.46971 0.0
H1502 H 0.88732 0.6025 0.49118 0.0
H1503 H 0.93784 0.61987 0.36586 0.0
C1504 C 0.84849 0.69223 0.31291 0.0
C1505 C 0.82164 0.7041 0.32918 0.0
C1506 C 0.8116 0.69705 0.37366 0.0
C1507 C 0.82723 0.6785 0.40109 0.0
C1508 C 0.85351 0.66732 0.38421 0.0
C1509 C 0.86441 0.67409 0.34132 0.0
C1510 C 0.89385 0.65947 0.33224 0.0
C1511 C 0.88423 0.63472 0.29282 0.0
C1512 C 0.92658 0.68608 0.32353 0.0
C1513 C 0.89739 0.64305 0.37646 0.0
C1514 C 0.87357 0.6479 0.40564 0.0
C1515 C 0.87007 0.63385 0.44745 0.0
C1516 C 0.89123 0.61438 0.45981 0.0
C1517 C 0.91652 0.60938 0.43168 0.0
C1518 C 0.9196 0.62402 0.38906 0.0
H1519 H 0.31237 0.83837 0.34456 0.0
H1520 H 0.37462 0.7739 0.37568 0.0
H1521 H 0.4121 0.81605 0.42614 0.0
H1522 H 0.37814 0.90808 0.33801 0.0
H1523 H 0.35696 0.935 0.36379 0.0
H1524 H 0.3322 0.8985 0.33518 0.0
H1525 H 0.29892 0.88085 0.40685 0.0
H1526 H 0.3234 0.9175 0.43567 0.0
H1527 H 0.32206 0.87889 0.45892 0.0
H1528 H 0.44772 0.8673 0.46262 0.0
H1529 H 0.47688 0.92312 0.48827 0.0
H1530 H 0.39073 0.95475 0.43786 0.0
C1531 C 0.3334 0.83287 0.36293 0.0
C1532 C 0.34061 0.80281 0.35623 0.0
C1533 C 0.36853 0.79664 0.38044 0.0
C1534 C 0.38996 0.82046 0.40918 0.0
C1535 C 0.38283 0.8502 0.41396 0.0
C1536 C 0.35489 0.85634 0.39213 0.0
C1537 C 0.35423 0.89103 0.40098 0.0
C1538 C 0.35547 0.90921 0.35687 0.0
C1539 C 0.32279 0.89212 0.42717 0.0
C1540 C 0.38697 0.90382 0.42965 0.0
C1541 C 0.40291 0.87972 0.43679 0.0
C1542 C 0.4351 0.88616 0.45821 0.0
C1543 C 0.45155 0.91798 0.47252 0.0
C1544 C 0.43583 0.94309 0.46576 0.0
C1545 C 0.40283 0.93579 0.4447 0.0
H1546 H 0.18048 0.3191 0.2873 0.0
H1547 H 0.26717 0.33995 0.38255 0.0
H1548 H 0.24044 0.37425 0.42789 0.0
H1549 H 0.16389 0.39745 0.2931 0.0
H1550 H 0.11816 0.38067 0.28907 0.0
H1551 H 0.14548 0.35894 0.26492 0.0
H1552 H 0.1164 0.30936 0.31076 0.0
H1553 H 0.09006 0.33154 0.3363 0.0
H1554 H 0.11662 0.3136 0.37102 0.0
H1555 H 0.20425 0.40906 0.46203 0.0
H1556 H 0.1614 0.43727 0.48296 0.0
H1557 H 0.09617 0.39076 0.36902 0.0
C1558 C 0.19399 0.331 0.31757 0.0
C1559 C 0.22636 0.32681 0.33082 0.0
C1560 C 0.24257 0.3426 0.37126 0.0
C1561 C 0.2275 0.36227 0.39736 0.0
C1562 C 0.19565 0.36584 0.38341 0.0
C1563 C 0.17892 0.35028 0.34466 0.0
C1564 C 0.14445 0.35733 0.33775 0.0
C1565 C 0.14288 0.37469 0.29358 0.0
C1566 C 0.11515 0.32609 0.33904 0.0
C1567 C 0.1445 0.37957 0.37811 0.0
C1568 C 0.17439 0.38442 0.40398 0.0
C1569 C 0.18071 0.40509 0.44201 0.0
C1570 C 0.15612 0.42114 0.45373 0.0
C1571 C 0.12496 0.41624 0.42819 0.0
C1572 C 0.11934 0.3949 0.38989 0.0
H1573 H 0.31953 0.18378 0.58386 0.0
H1574 H 0.3679 0.22053 0.71334 0.0
H1575 H 0.40465 0.18384 0.7089 0.0
H1576 H 0.32043 0.101 0.59024 0.0
H1577 H 0.33382 0.09754 0.53395 0.0
H1578 H 0.30965 0.12558 0.54689 0.0
H1579 H 0.35581 0.17017 0.51407 0.0
H1580 H 0.38515 0.14613 0.50562 0.0
H1581 H 0.39823 0.18211 0.54001 0.0
H1582 H 0.43602 0.14395 0.69122 0.0
H1583 H 0.46613 0.10793 0.65642 0.0
H1584 H 0.39909 0.09651 0.53757 0.0
C1585 C 0.33786 0.1839 0.61113 0.0
C1586 C 0.34117 0.20492 0.64884 0.0
C1587 C 0.36547 0.2048 0.6839 0.0
C1588 C 0.38608 0.18376 0.68201 0.0
C1589 C 0.38214 0.16303 0.64471 0.0
C1590 C 0.35916 0.16326 0.6095 0.0
C1591 C 0.36314 0.1411 0.57128 0.0
C1592 C 0.32976 0.11475 0.55992 0.0
C1593 C 0.3762 0.16107 0.53026 0.0
C1594 C 0.39045 0.12705 0.59148 0.0
C1595 C 0.40116 0.14037 0.63379 0.0
C1596 C 0.42774 0.1332 0.6582 0.0
C1597 C 0.44461 0.11268 0.63821 0.0
C1598 C 0.4347 0.09929 0.59445 0.0
C1599 C 0.40671 0.10592 0.57125 0.0
H1600 H 0.82889 0.37422 0.68845 0.0
H1601 H 0.87667 0.29854 0.65617 0.0
H1602 H 0.92807 0.33976 0.63393 0.0
H1603 H 0.86157 0.4241 0.59606 0.0
H1604 H 0.86649 0.46117 0.62791 0.0
H1605 H 0.83408 0.4254 0.64159 0.0
H1606 H 0.85934 0.43086 0.72389 0.0
H1607 H 0.89184 0.4665 0.70962 0.0
H1608 H 0.90379 0.43299 0.73384 0.0
H1609 H 0.97416 0.38896 0.61623 0.0
H1610 H 1.00823 0.44205 0.59222 0.0
H1611 H 0.93 0.48531 0.63615 0.0
C1612 C 0.85006 0.36626 0.67642 0.0
C1613 C 0.84889 0.33324 0.67417 0.0
C1614 C 0.87697 0.32374 0.65793 0.0
C1615 C 0.90641 0.34697 0.64576 0.0
C1616 C 0.90715 0.3794 0.64993 0.0
C1617 C 0.87949 0.38901 0.66401 0.0
C1618 C 0.88604 0.42525 0.66314 0.0
C1619 C 0.86055 0.43451 0.63021 0.0
C1620 C 0.88519 0.43973 0.71044 0.0
C1621 C 0.92175 0.43457 0.64615 0.0
C1622 C 0.93363 0.4078 0.63933 0.0
C1623 C 0.96523 0.41012 0.62157 0.0
C1624 C 0.98444 0.4404 0.60826 0.0
C1625 C 0.97177 0.46779 0.61249 0.0
C1626 C 0.94068 0.46499 0.63336 0.0
H1627 H 0.1926 0.70111 0.66879 0.0
H1628 H 0.2781 0.70938 0.58314 0.0
H1629 H 0.24318 0.66475 0.53455 0.0
H1630 H 0.1636 0.61869 0.66725 0.0
H1631 H 0.11861 0.61559 0.66461 0.0
H1632 H 0.14831 0.65119 0.68926 0.0
H1633 H 0.12556 0.68694 0.63397 0.0
H1634 H 0.09547 0.65135 0.60944 0.0
H1635 H 0.12465 0.67849 0.57445 0.0
H1636 H 0.20407 0.61305 0.50526 0.0
H1637 H 0.15853 0.56304 0.48708 0.0
H1638 H 0.09608 0.58968 0.58754 0.0
C1639 C 0.20355 0.69421 0.63896 0.0
C1640 C 0.23811 0.70859 0.62984 0.0
C1641 C 0.2517 0.69872 0.59079 0.0
C1642 C 0.23208 0.67333 0.563 0.0
C1643 C 0.19866 0.65858 0.5741 0.0
C1644 C 0.18407 0.66919 0.61032 0.0
C1645 C 0.14803 0.64804 0.61577 0.0
C1646 C 0.14445 0.63247 0.66197 0.0
C1647 C 0.12188 0.66736 0.60793 0.0
C1648 C 0.14538 0.62305 0.57834 0.0
C1649 C 0.17498 0.62959 0.55491 0.0
C1650 C 0.18031 0.60817 0.52232 0.0
C1651 C 0.15439 0.5797 0.51247 0.0
C1652 C 0.12357 0.57268 0.53544 0.0
C1653 C 0.11897 0.59484 0.56855 0.0
loop_
_geom_bond_atom_site_label_1
_geom_bond_atom_site_label_2
_geom_bond_distance
_geom_bond_site_symmetry_2
_ccdc_geom_bond_type
Dy0 O4 2.398 . S
Dy0 O5 2.491 . S
Dy0 O6 2.403 . S
Dy0 O7 2.664 . S
Dy0 O11 2.326 . S
Dy0 O15 2.310 . S
Dy0 O16 2.351 . S
C1 O12 1.185 . S
C1 O13 1.355 . S
C2 O4 1.185 . S
C2 O5 1.355 . S
Dy3 O7 2.310 . S
Dy3 O10 2.351 . S
Dy3 O12 2.398 . S
Dy3 O13 2.491 . S
Dy3 O14 2.403 . S
Dy3 O15 2.664 . S
Dy3 O17 2.326 . S
O4 Dy0 2.398 . S
O4 C2 1.185 . S
O5 Dy0 2.491 . S
O5 C2 1.355 . S
O6 Dy0 2.403 . S
O6 C8 1.254 . S
O7 Dy0 2.664 . S
O7 Dy3 2.310 . S
O7 C8 1.268 . S
C8 O6 1.254 . S
C8 O7 1.268 . S
C9 O14 1.254 . S
C9 O15 1.268 . S
O10 Dy3 2.351 . S
O10 C18 1.249 . S
O11 Dy0 2.326 . S
O11 C18 1.267 . S
O12 C1 1.185 . S
O12 Dy3 2.398 . S
O13 C1 1.355 . S
O13 Dy3 2.491 . S
O14 Dy3 2.403 . S
O14 C9 1.254 . S
O15 Dy0 2.310 . S
O15 Dy3 2.664 . S
O15 C9 1.268 . S
O16 Dy0 2.351 . S
O16 C19 1.249 . S
O17 Dy3 2.326 . S
O17 C19 1.267 . S
C18 O10 1.249 . S
C18 O11 1.267 . S
C19 O16 1.249 . S
C19 O17 1.267 . S
Dy20 O24 2.398 . S
Dy20 O25 2.491 . S
Dy20 O26 2.403 . S
Dy20 O27 2.664 . S
Dy20 O31 2.326 . S
Dy20 O35 2.310 . S
Dy20 O36 2.351 . S
C21 O32 1.185 . S
C21 O33 1.355 . S
C22 O24 1.185 . S
C22 O25 1.355 . S
Dy23 O27 2.310 . S
Dy23 O30 2.351 . S
Dy23 O32 2.398 . S
Dy23 O33 2.491 . S
Dy23 O34 2.403 . S
Dy23 O35 2.664 . S
Dy23 O37 2.326 . S
O24 Dy20 2.398 . S
O24 C22 1.185 . S
O25 Dy20 2.491 . S
O25 C22 1.355 . S
O26 Dy20 2.403 . S
O26 C28 1.254 . S
O27 Dy20 2.664 . S
O27 Dy23 2.310 . S
O27 C28 1.268 . S
C28 O26 1.254 . S
C28 O27 1.268 . S
C29 O34 1.254 . S
C29 O35 1.268 . S
O30 Dy23 2.351 . S
O30 C38 1.249 . S
O31 Dy20 2.326 . S
O31 C38 1.267 . S
O32 C21 1.185 . S
O32 Dy23 2.398 . S
O33 C21 1.355 . S
O33 Dy23 2.491 . S
O34 Dy23 2.403 . S
O34 C29 1.254 . S
O35 Dy20 2.310 . S
O35 Dy23 2.664 . S
O35 C29 1.268 . S
O36 Dy20 2.351 . S
O36 C39 1.249 . S
O37 Dy23 2.326 . S
O37 C39 1.267 . S
C38 O30 1.249 . S
C38 O31 1.267 . S
C39 O36 1.249 . S
C39 O37 1.267 . S
Dy40 O44 2.398 . S
Dy40 O45 2.491 . S
Dy40 O46 2.403 . S
Dy40 O47 2.664 . S
Dy40 O51 2.326 . S
Dy40 O55 2.310 . S
Dy40 O56 2.351 . S
C41 O52 1.185 . S
C41 O53 1.355 . S
C42 O44 1.185 . S
C42 O45 1.355 . S
Dy43 O47 2.310 . S
Dy43 O50 2.351 . S
Dy43 O52 2.398 . S
Dy43 O53 2.491 . S
Dy43 O54 2.403 . S
Dy43 O55 2.664 . S
Dy43 O57 2.326 . S
O44 Dy40 2.398 . S
O44 C42 1.185 . S
O45 Dy40 2.491 . S
O45 C42 1.355 . S
O46 Dy40 2.403 . S
O46 C48 1.254 . S
O47 Dy40 2.664 . S
O47 Dy43 2.310 . S
O47 C48 1.268 . S
C48 O46 1.254 . S
C48 O47 1.268 . S
C49 O54 1.254 . S
C49 O55 1.268 . S
O50 Dy43 2.351 . S
O50 C58 1.249 . S
O51 Dy40 2.326 . S
O51 C58 1.267 . S
O52 C41 1.185 . S
O52 Dy43 2.398 . S
O53 C41 1.355 . S
O53 Dy43 2.491 . S
O54 Dy43 2.403 . S
O54 C49 1.254 . S
O55 Dy40 2.310 . S
O55 Dy43 2.664 . S
O55 C49 1.268 . S
O56 Dy40 2.351 . S
O56 C59 1.249 . S
O57 Dy43 2.326 . S
O57 C59 1.267 . S
C58 O50 1.249 . S
C58 O51 1.267 . S
C59 O56 1.249 . S
C59 O57 1.267 . S
Dy60 O64 2.398 . S
Dy60 O65 2.491 . S
Dy60 O66 2.403 . S
Dy60 O67 2.664 . S
Dy60 O71 2.326 . S
Dy60 O75 2.310 . S
Dy60 O76 2.351 . S
C61 O72 1.185 . S
C61 O73 1.355 . S
C62 O64 1.185 . S
C62 O65 1.355 . S
Dy63 O67 2.310 . S
Dy63 O70 2.351 . S
Dy63 O72 2.398 . S
Dy63 O73 2.491 . S
Dy63 O74 2.403 . S
Dy63 O75 2.664 . S
Dy63 O77 2.326 . S
O64 Dy60 2.398 . S
O64 C62 1.185 . S
O65 Dy60 2.491 . S
O65 C62 1.355 . S
O66 Dy60 2.403 . S
O66 C68 1.254 . S
O67 Dy60 2.664 . S
O67 Dy63 2.310 . S
O67 C68 1.268 . S
C68 O66 1.254 . S
C68 O67 1.268 . S
C69 O74 1.254 . S
C69 O75 1.268 . S
O70 Dy63 2.351 . S
O70 C78 1.249 . S
O71 Dy60 2.326 . S
O71 C78 1.267 . S
O72 C61 1.185 . S
O72 Dy63 2.398 . S
O73 C61 1.355 . S
O73 Dy63 2.491 . S
O74 Dy63 2.403 . S
O74 C69 1.254 . S
O75 Dy60 2.310 . S
O75 Dy63 2.664 . S
O75 C69 1.268 . S
O76 Dy60 2.351 . S
O76 C79 1.249 . S
O77 Dy63 2.326 . S
O77 C79 1.267 . S
C78 O70 1.249 . S
C78 O71 1.267 . S
C79 O76 1.249 . S
C79 O77 1.267 . S
Dy80 O84 2.398 . S
Dy80 O85 2.491 . S
Dy80 O86 2.403 . S
Dy80 O87 2.664 . S
Dy80 O91 2.326 . S
Dy80 O95 2.310 . S
Dy80 O96 2.351 . S
C81 O92 1.185 . S
C81 O93 1.355 . S
C82 O84 1.185 . S
C82 O85 1.355 . S
Dy83 O87 2.310 . S
Dy83 O90 2.351 . S
Dy83 O92 2.398 . S
Dy83 O93 2.491 . S
Dy83 O94 2.403 . S
Dy83 O95 2.664 . S
Dy83 O97 2.326 . S
O84 Dy80 2.398 . S
O84 C82 1.185 . S
O85 Dy80 2.491 . S
O85 C82 1.355 . S
O86 Dy80 2.403 . S
O86 C88 1.254 . S
O87 Dy80 2.664 . S
O87 Dy83 2.310 . S
O87 C88 1.268 . S
C88 O86 1.254 . S
C88 O87 1.268 . S
C89 O94 1.254 . S
C89 O95 1.268 . S
O90 Dy83 2.351 . S
O90 C98 1.249 . S
O91 Dy80 2.326 . S
O91 C98 1.267 . S
O92 C81 1.185 . S
O92 Dy83 2.398 . S
O93 C81 1.355 . S
O93 Dy83 2.491 . S
O94 Dy83 2.403 . S
O94 C89 1.254 . S
O95 Dy80 2.310 . S
O95 Dy83 2.664 . S
O95 C89 1.268 . S
O96 Dy80 2.351 . S
O96 C99 1.249 . S
O97 Dy83 2.326 . S
O97 C99 1.267 . S
C98 O90 1.249 . S
C98 O91 1.267 . S
C99 O96 1.249 . S
C99 O97 1.267 . S
Dy100 O104 2.398 . S
Dy100 O105 2.491 . S
Dy100 O106 2.403 . S
Dy100 O107 2.664 . S
Dy100 O111 2.326 . S
Dy100 O115 2.310 . S
Dy100 O116 2.351 . S
C101 O112 1.185 . S
C101 O113 1.355 . S
C102 O104 1.185 . S
C102 O105 1.355 . S
Dy103 O107 2.310 . S
Dy103 O110 2.351 . S
Dy103 O112 2.398 . S
Dy103 O113 2.491 . S
Dy103 O114 2.403 . S
Dy103 O115 2.664 . S
Dy103 O117 2.326 . S
O104 Dy100 2.398 . S
O104 C102 1.185 . S
O105 Dy100 2.491 . S
O105 C102 1.355 . S
O106 Dy100 2.403 . S
O106 C108 1.254 . S
O107 Dy100 2.664 . S
O107 Dy103 2.310 . S
O107 C108 1.268 . S
C108 O106 1.254 . S
C108 O107 1.268 . S
C109 O114 1.254 . S
C109 O115 1.268 . S
O110 Dy103 2.351 . S
O110 C118 1.249 . S
O111 Dy100 2.326 . S
O111 C118 1.267 . S
O112 C101 1.185 . S
O112 Dy103 2.398 . S
O113 C101 1.355 . S
O113 Dy103 2.491 . S
O114 Dy103 2.403 . S
O114 C109 1.254 . S
O115 Dy100 2.310 . S
O115 Dy103 2.664 . S
O115 C109 1.268 . S
O116 Dy100 2.351 . S
O116 C119 1.249 . S
O117 Dy103 2.326 . S
O117 C119 1.267 . S
C118 O110 1.249 . S
C118 O111 1.267 . S
C119 O116 1.249 . S
C119 O117 1.267 . S
Dy120 O124 2.398 . S
Dy120 O125 2.491 . S
Dy120 O126 2.403 . S
Dy120 O127 2.664 . S
Dy120 O131 2.326 . S
Dy120 O135 2.310 . S
Dy120 O136 2.351 . S
C121 O132 1.185 . S
C121 O133 1.355 . S
C122 O124 1.185 . S
C122 O125 1.355 . S
Dy123 O127 2.310 . S
Dy123 O130 2.351 . S
Dy123 O132 2.398 . S
Dy123 O133 2.491 . S
Dy123 O134 2.403 . S
Dy123 O135 2.664 . S
Dy123 O137 2.326 . S
O124 Dy120 2.398 . S
O124 C122 1.185 . S
O125 Dy120 2.491 . S
O125 C122 1.355 . S
O126 Dy120 2.403 . S
O126 C128 1.254 . S
O127 Dy120 2.664 . S
O127 Dy123 2.310 . S
O127 C128 1.268 . S
C128 O126 1.254 . S
C128 O127 1.268 . S
C129 O134 1.254 . S
C129 O135 1.268 . S
O130 Dy123 2.351 . S
O130 C138 1.249 . S
O131 Dy120 2.326 . S
O131 C138 1.267 . S
O132 C121 1.185 . S
O132 Dy123 2.398 . S
O133 C121 1.355 . S
O133 Dy123 2.491 . S
O134 Dy123 2.403 . S
O134 C129 1.254 . S
O135 Dy120 2.310 . S
O135 Dy123 2.664 . S
O135 C129 1.268 . S
O136 Dy120 2.351 . S
O136 C139 1.249 . S
O137 Dy123 2.326 . S
O137 C139 1.267 . S
C138 O130 1.249 . S
C138 O131 1.267 . S
C139 O136 1.249 . S
C139 O137 1.267 . S
Dy140 O144 2.398 . S
Dy140 O145 2.491 . S
Dy140 O146 2.403 . S
Dy140 O147 2.664 . S
Dy140 O151 2.326 . S
Dy140 O155 2.310 . S
Dy140 O156 2.351 . S
C141 O152 1.185 . S
C141 O153 1.355 . S
C142 O144 1.185 . S
C142 O145 1.355 . S
Dy143 O147 2.310 . S
Dy143 O150 2.351 . S
Dy143 O152 2.398 . S
Dy143 O153 2.491 . S
Dy143 O154 2.403 . S
Dy143 O155 2.664 . S
Dy143 O157 2.326 . S
O144 Dy140 2.398 . S
O144 C142 1.185 . S
O145 Dy140 2.491 . S
O145 C142 1.355 . S
O146 Dy140 2.403 . S
O146 C148 1.254 . S
O147 Dy140 2.664 . S
O147 Dy143 2.310 . S
O147 C148 1.268 . S
C148 O146 1.254 . S
C148 O147 1.268 . S
C149 O154 1.254 . S
C149 O155 1.268 . S
O150 Dy143 2.351 . S
O150 C158 1.249 . S
O151 Dy140 2.326 . S
O151 C158 1.267 . S
O152 C141 1.185 . S
O152 Dy143 2.398 . S
O153 C141 1.355 . S
O153 Dy143 2.491 . S
O154 Dy143 2.403 . S
O154 C149 1.254 . S
O155 Dy140 2.310 . S
O155 Dy143 2.664 . S
O155 C149 1.268 . S
O156 Dy140 2.351 . S
O156 C159 1.249 . S
O157 Dy143 2.326 . S
O157 C159 1.267 . S
C158 O150 1.249 . S
C158 O151 1.267 . S
C159 O156 1.249 . S
C159 O157 1.267 . S
Co160 O163 2.042 . S
Co160 O170 2.264 . S
Co160 O189 2.286 . S
Co160 O190 2.069 . S
Co160 O192 2.015 1_455 S
Co161 O163 2.122 . S
Co161 O169 2.073 . S
Co161 O170 2.327 . S
Co161 O171 1.976 1_455 S
Co162 O163 2.090 1_545 S
Co162 O165 2.084 1_455 S
Co162 O172 2.109 1_445 S
Co162 O173 2.145 . S
Co162 O177 2.113 . S
Co162 O191 2.142 1_445 S
O163 Co160 2.042 . S
O163 Co161 2.122 . S
O163 Co162 2.090 1_565 S
O163 H164 0.980 . S
H164 O163 0.980 . S
O165 Co162 2.084 1_655 S
O165 Co166 2.042 . S
O165 Co167 2.122 . S
O165 H168 0.980 . S
Co166 O165 2.042 . S
Co166 O174 2.286 . S
Co166 O175 2.069 . S
Co166 O176 2.015 1_655 S
Co166 O179 2.264 . S
Co167 O165 2.122 . S
Co167 O178 1.976 1_655 S
Co167 O179 2.327 . S
Co167 O180 2.073 . S
H168 O165 0.980 . S
O169 Co161 2.073 . S
O169 C184 1.245 . S
O170 Co160 2.264 . S
O170 Co161 2.327 . S
O170 C184 1.257 . S
O171 Co161 1.976 1_655 S
O171 C183 1.251 . S
O172 Co162 2.109 1_665 S
O172 C183 1.274 . S
O173 Co162 2.145 . S
O173 C186 1.246 . S
O174 Co166 2.286 . S
O174 C185 1.259 . S
O175 Co166 2.069 . S
O175 C185 1.289 . S
O176 Co166 2.015 1_455 S
O176 C186 1.257 . S
O177 Co162 2.113 . S
O177 C187 1.274 . S
O178 Co167 1.976 1_455 S
O178 C187 1.251 . S
O179 Co166 2.264 . S
O179 Co167 2.327 . S
O179 C188 1.257 . S
O180 Co167 2.073 . S
O180 C188 1.245 . S
C181 O189 1.259 . S
C181 O190 1.289 . S
C182 O191 1.246 . S
C182 O192 1.257 . S
C183 O171 1.251 . S
C183 O172 1.274 . S
C184 O169 1.245 . S
C184 O170 1.257 . S
C185 O174 1.259 . S
C185 O175 1.289 . S
C186 O173 1.246 . S
C186 O176 1.257 . S
C187 O177 1.274 . S
C187 O178 1.251 . S
C188 O179 1.257 . S
C188 O180 1.245 . S
O189 Co160 2.286 . S
O189 C181 1.259 . S
O190 Co160 2.069 . S
O190 C181 1.289 . S
O191 Co162 2.142 1_665 S
O191 C182 1.246 . S
O192 Co160 2.015 1_655 S
O192 C182 1.257 . S
Co193 O196 2.042 1_556 S
Co193 O203 2.264 1_556 S
Co193 O222 2.286 . S
Co193 O223 2.069 . S
Co193 O225 2.015 . S
Co194 O196 2.122 . S
Co194 O202 2.073 . S
Co194 O203 2.327 . S
Co194 O204 1.976 . S
Co195 O196 2.087 1_545 S
Co195 O198 2.087 1_554 S
Co195 O205 2.111 1_545 S
Co195 O206 2.144 . S
Co195 O210 2.111 1_554 S
Co195 O224 2.143 1_544 S
O196 Co193 2.042 1_554 S
O196 Co194 2.122 . S
O196 Co195 2.087 1_565 S
O196 H197 0.980 . S
H197 O196 0.980 . S
O198 Co195 2.087 1_556 S
O198 Co199 2.042 1_556 S
O198 Co200 2.122 . S
O198 H201 0.980 . S
Co199 O198 2.042 1_554 S
Co199 O207 2.286 . S
Co199 O208 2.069 . S
Co199 O209 2.015 . S
Co199 O212 2.264 1_554 S
Co200 O198 2.122 . S
Co200 O211 1.976 . S
Co200 O212 2.327 . S
Co200 O213 2.073 . S
H201 O198 0.980 . S
O202 Co194 2.073 . S
O202 C217 1.245 . S
O203 Co193 2.264 1_554 S
O203 Co194 2.327 . S
O203 C217 1.257 . S
O204 Co194 1.976 . S
O204 C216 1.251 . S
O205 Co195 2.111 1_565 S
O205 C216 1.274 . S
O206 Co195 2.144 . S
O206 C219 1.246 . S
O207 Co199 2.286 . S
O207 C218 1.259 . S
O208 Co199 2.069 . S
O208 C218 1.289 . S
O209 Co199 2.015 . S
O209 C219 1.257 . S
O210 Co195 2.111 1_556 S
O210 C220 1.274 . S
O211 Co200 1.976 . S
O211 C220 1.251 . S
O212 Co199 2.264 1_556 S
O212 Co200 2.327 . S
O212 C221 1.257 . S
O213 Co200 2.073 . S
O213 C221 1.245 . S
C214 O222 1.259 . S
C214 O223 1.289 . S
C215 O224 1.246 . S
C215 O225 1.257 . S
C216 O204 1.251 . S
C216 O205 1.274 . S
C217 O202 1.245 . S
C217 O203 1.257 . S
C218 O207 1.259 . S
C218 O208 1.289 . S
C219 O206 1.246 . S
C219 O209 1.257 . S
C220 O210 1.274 . S
C220 O211 1.251 . S
C221 O212 1.257 . S
C221 O213 1.245 . S
O222 Co193 2.286 . S
O222 C214 1.259 . S
O223 Co193 2.069 . S
O223 C214 1.289 . S
O224 Co195 2.143 1_566 S
O224 C215 1.246 . S
O225 Co193 2.015 . S
O225 C215 1.257 . S
Co226 O229 2.042 1_556 S
Co226 O236 2.264 1_556 S
Co226 O255 2.286 . S
Co226 O256 2.069 . S
Co226 O258 2.015 1_455 S
Co227 O229 2.122 . S
Co227 O235 2.073 . S
Co227 O236 2.327 . S
Co227 O237 1.976 1_455 S
Co228 O229 2.090 . S
Co228 O231 2.084 1_454 S
Co228 O238 2.109 1_455 S
Co228 O239 2.145 . S
Co228 O243 2.113 1_554 S
Co228 O257 2.142 1_454 S
O229 Co226 2.042 1_554 S
O229 Co227 2.122 . S
O229 Co228 2.090 . S
O229 H230 0.980 . S
H230 O229 0.980 . S
O231 Co228 2.084 1_656 S
O231 Co232 2.042 1_556 S
O231 Co233 2.122 . S
O231 H234 0.980 . S
Co232 O231 2.042 1_554 S
Co232 O240 2.286 . S
Co232 O241 2.069 . S
Co232 O242 2.015 1_655 S
Co232 O245 2.264 1_554 S
Co233 O231 2.122 . S
Co233 O244 1.976 1_655 S
Co233 O245 2.327 . S
Co233 O246 2.073 . S
H234 O231 0.980 . S
O235 Co227 2.073 . S
O235 C250 1.245 . S
O236 Co226 2.264 1_554 S
O236 Co227 2.327 . S
O236 C250 1.257 . S
O237 Co227 1.976 1_655 S
O237 C249 1.251 . S
O238 Co228 2.109 1_655 S
O238 C249 1.274 . S
O239 Co228 2.145 . S
O239 C252 1.246 . S
O240 Co232 2.286 . S
O240 C251 1.259 . S
O241 Co232 2.069 . S
O241 C251 1.289 . S
O242 Co232 2.015 1_455 S
O242 C252 1.257 . S
O243 Co228 2.113 1_556 S
O243 C253 1.274 . S
O244 Co233 1.976 1_455 S
O244 C253 1.251 . S
O245 Co232 2.264 1_556 S
O245 Co233 2.327 . S
O245 C254 1.257 . S
O246 Co233 2.073 . S
O246 C254 1.245 . S
C247 O255 1.259 . S
C247 O256 1.289 . S
C248 O257 1.246 . S
C248 O258 1.257 . S
C249 O237 1.251 . S
C249 O238 1.274 . S
C250 O235 1.245 . S
C250 O236 1.257 . S
C251 O240 1.259 . S
C251 O241 1.289 . S
C252 O239 1.246 . S
C252 O242 1.257 . S
C253 O243 1.274 . S
C253 O244 1.251 . S
C254 O245 1.257 . S
C254 O246 1.245 . S
O255 Co226 2.286 . S
O255 C247 1.259 . S
O256 Co226 2.069 . S
O256 C247 1.289 . S
O257 Co228 2.142 1_656 S
O257 C248 1.246 . S
O258 Co226 2.015 1_655 S
O258 C248 1.257 . S
Co259 O262 2.042 1_556 S
Co259 O269 2.264 1_556 S
Co259 O288 2.286 . S
Co259 O289 2.069 . S
Co259 O291 2.015 . S
Co260 O262 2.122 . S
Co260 O268 2.073 . S
Co260 O269 2.327 . S
Co260 O270 1.976 . S
Co261 O262 2.087 . S
Co261 O264 2.087 1_554 S
Co261 O271 2.111 . S
Co261 O272 2.143 . S
Co261 O276 2.111 1_554 S
Co261 O290 2.143 1_554 S
O262 Co259 2.042 1_554 S
O262 Co260 2.122 . S
O262 Co261 2.087 . S
O262 H263 0.980 . S
H263 O262 0.980 . S
O264 Co261 2.087 1_556 S
O264 Co265 2.042 1_556 S
O264 Co266 2.122 . S
O264 H267 0.980 . S
Co265 O264 2.042 1_554 S
Co265 O273 2.286 . S
Co265 O274 2.069 . S
Co265 O275 2.015 . S
Co265 O278 2.264 1_554 S
Co266 O264 2.122 . S
Co266 O277 1.976 . S
Co266 O278 2.327 . S
Co266 O279 2.073 . S
H267 O264 0.980 . S
O268 Co260 2.073 . S
O268 C283 1.245 . S
O269 Co259 2.264 1_554 S
O269 Co260 2.327 . S
O269 C283 1.257 . S
O270 Co260 1.976 . S
O270 C282 1.251 . S
O271 Co261 2.111 . S
O271 C282 1.274 . S
O272 Co261 2.143 . S
O272 C285 1.246 . S
O273 Co265 2.286 . S
O273 C284 1.259 . S
O274 Co265 2.069 . S
O274 C284 1.289 . S
O275 Co265 2.015 . S
O275 C285 1.257 . S
O276 Co261 2.111 1_556 S
O276 C286 1.274 . S
O277 Co266 1.976 . S
O277 C286 1.251 . S
O278 Co265 2.264 1_556 S
O278 Co266 2.327 . S
O278 C287 1.257 . S
O279 Co266 2.073 . S
O279 C287 1.245 . S
C280 O288 1.259 . S
C280 O289 1.289 . S
C281 O290 1.246 . S
C281 O291 1.257 . S
C282 O270 1.251 . S
C282 O271 1.274 . S
C283 O268 1.245 . S
C283 O269 1.257 . S
C284 O273 1.259 . S
C284 O274 1.289 . S
C285 O272 1.246 . S
C285 O275 1.257 . S
C286 O276 1.274 . S
C286 O277 1.251 . S
C287 O278 1.257 . S
C287 O279 1.245 . S
O288 Co259 2.286 . S
O288 C280 1.259 . S
O289 Co259 2.069 . S
O289 C280 1.289 . S
O290 Co261 2.143 1_556 S
O290 C281 1.246 . S
O291 Co259 2.015 . S
O291 C281 1.257 . S
Co292 O295 2.042 . S
Co292 O302 2.264 . S
Co292 O321 2.286 . S
Co292 O322 2.069 . S
Co292 O324 2.015 . S
Co293 O295 2.122 . S
Co293 O301 2.073 . S
Co293 O302 2.327 . S
Co293 O303 1.976 . S
Co294 O295 2.090 . S
Co294 O297 2.084 1_455 S
Co294 O304 2.112 . S
Co294 O305 2.142 1_455 S
Co294 O309 2.110 1_455 S
Co294 O323 2.145 . S
O295 Co292 2.042 . S
O295 Co293 2.122 . S
O295 Co294 2.090 . S
O295 H296 0.980 . S
H296 O295 0.980 . S
O297 Co294 2.084 1_655 S
O297 Co298 2.042 . S
O297 Co299 2.122 . S
O297 H300 0.980 . S
Co298 O297 2.042 . S
Co298 O306 2.286 . S
Co298 O307 2.069 . S
Co298 O308 2.015 . S
Co298 O311 2.264 . S
Co299 O297 2.122 . S
Co299 O310 1.976 . S
Co299 O311 2.327 . S
Co299 O312 2.073 . S
H300 O297 0.980 . S
O301 Co293 2.073 . S
O301 C316 1.245 . S
O302 Co292 2.264 . S
O302 Co293 2.327 . S
O302 C316 1.257 . S
O303 Co293 1.976 . S
O303 C315 1.251 . S
O304 Co294 2.112 . S
O304 C315 1.274 . S
O305 Co294 2.142 1_655 S
O305 C318 1.246 . S
O306 Co298 2.286 . S
O306 C317 1.259 . S
O307 Co298 2.069 . S
O307 C317 1.289 . S
O308 Co298 2.015 . S
O308 C318 1.257 . S
O309 Co294 2.110 1_655 S
O309 C319 1.274 . S
O310 Co299 1.976 . S
O310 C319 1.251 . S
O311 Co298 2.264 . S
O311 Co299 2.327 . S
O311 C320 1.257 . S
O312 Co299 2.073 . S
O312 C320 1.245 . S
C313 O321 1.259 . S
C313 O322 1.289 . S
C314 O323 1.246 . S
C314 O324 1.257 . S
C315 O303 1.251 . S
C315 O304 1.274 . S
C316 O301 1.245 . S
C316 O302 1.257 . S
C317 O306 1.259 . S
C317 O307 1.289 . S
C318 O305 1.246 . S
C318 O308 1.257 . S
C319 O309 1.274 . S
C319 O310 1.251 . S
C320 O311 1.257 . S
C320 O312 1.245 . S
O321 Co292 2.286 . S
O321 C313 1.259 . S
O322 Co292 2.069 . S
O322 C313 1.289 . S
O323 Co294 2.145 . S
O323 C314 1.246 . S
O324 Co292 2.015 . S
O324 C314 1.257 . S
Co325 O328 2.042 . S
Co325 O335 2.264 . S
Co325 O354 2.286 . S
Co325 O355 2.069 . S
Co325 O357 2.015 1_565 S
Co326 O328 2.122 . S
Co326 O334 2.073 . S
Co326 O335 2.327 . S
Co326 O336 1.976 1_565 S
Co327 O328 2.087 1_545 S
Co327 O330 2.087 . S
Co327 O337 2.111 . S
Co327 O338 2.143 1_545 S
Co327 O342 2.111 1_545 S
Co327 O356 2.144 . S
O328 Co325 2.042 . S
O328 Co326 2.122 . S
O328 Co327 2.087 1_565 S
O328 H329 0.980 . S
H329 O328 0.980 . S
O330 Co327 2.087 . S
O330 Co331 2.042 . S
O330 Co332 2.122 . S
O330 H333 0.980 . S
Co331 O330 2.042 . S
Co331 O339 2.286 . S
Co331 O340 2.069 . S
Co331 O341 2.015 1_545 S
Co331 O344 2.264 . S
Co332 O330 2.122 . S
Co332 O343 1.976 1_545 S
Co332 O344 2.327 . S
Co332 O345 2.073 . S
H333 O330 0.980 . S
O334 Co326 2.073 . S
O334 C349 1.245 . S
O335 Co325 2.264 . S
O335 Co326 2.327 . S
O335 C349 1.257 . S
O336 Co326 1.976 1_545 S
O336 C348 1.251 . S
O337 Co327 2.111 . S
O337 C348 1.274 . S
O338 Co327 2.143 1_565 S
O338 C351 1.246 . S
O339 Co331 2.286 . S
O339 C350 1.259 . S
O340 Co331 2.069 . S
O340 C350 1.289 . S
O341 Co331 2.015 1_565 S
O341 C351 1.257 . S
O342 Co327 2.111 1_565 S
O342 C352 1.274 . S
O343 Co332 1.976 1_565 S
O343 C352 1.251 . S
O344 Co331 2.264 . S
O344 Co332 2.327 . S
O344 C353 1.257 . S
O345 Co332 2.073 . S
O345 C353 1.245 . S
C346 O354 1.259 . S
C346 O355 1.289 . S
C347 O356 1.246 . S
C347 O357 1.257 . S
C348 O336 1.251 . S
C348 O337 1.274 . S
C349 O334 1.245 . S
C349 O335 1.257 . S
C350 O339 1.259 . S
C350 O340 1.289 . S
C351 O338 1.246 . S
C351 O341 1.257 . S
C352 O342 1.274 . S
C352 O343 1.251 . S
C353 O344 1.257 . S
C353 O345 1.245 . S
O354 Co325 2.286 . S
O354 C346 1.259 . S
O355 Co325 2.069 . S
O355 C346 1.289 . S
O356 Co327 2.144 . S
O356 C347 1.246 . S
O357 Co325 2.015 1_545 S
O357 C347 1.257 . S
H358 C370 0.930 . S
H359 C372 0.930 . S
H360 C373 0.930 . S
H361 C377 0.959 . S
H362 C377 0.959 . S
H363 C377 0.961 . S
H364 C378 0.960 . S
H365 C378 0.961 . S
H366 C378 0.959 . S
H367 C381 0.929 . S
H368 C382 0.931 . S
H369 C384 0.930 . S
C370 H358 0.930 . S
C370 C371 1.399 . S
C370 C375 1.399 . S
C371 C370 1.399 . S
C371 C372 1.376 . S
C372 H359 0.930 . S
C372 C371 1.376 . S
C372 C373 1.388 . S
C373 H360 0.930 . S
C373 C372 1.388 . S
C373 C374 1.390 . S
C374 C373 1.390 . S
C374 C375 1.394 . S
C374 C380 1.465 . S
C375 C370 1.399 . S
C375 C374 1.394 . S
C375 C376 1.516 . S
C376 C375 1.516 . S
C376 C377 1.502 . S
C376 C378 1.561 . S
C376 C379 1.526 . S
C377 H361 0.959 . S
C377 H362 0.959 . S
C377 H363 0.961 . S
C377 C376 1.502 . S
C378 H364 0.960 . S
C378 H365 0.961 . S
C378 H366 0.959 . S
C378 C376 1.561 . S
C379 C376 1.526 . S
C379 C380 1.396 . S
C379 C384 1.390 . S
C380 C374 1.465 . S
C380 C379 1.396 . S
C380 C381 1.399 . S
C381 H367 0.929 . S
C381 C380 1.399 . S
C381 C382 1.385 . S
C382 H368 0.931 . S
C382 C381 1.385 . S
C382 C383 1.389 . S
C383 C382 1.389 . S
C383 C384 1.387 . S
C384 H369 0.930 . S
C384 C379 1.390 . S
C384 C383 1.387 . S
H385 C397 0.930 . S
H386 C399 0.930 . S
H387 C400 0.930 . S
H388 C404 0.959 . S
H389 C404 0.959 . S
H390 C404 0.961 . S
H391 C405 0.960 . S
H392 C405 0.961 . S
H393 C405 0.959 . S
H394 C408 0.929 . S
H395 C409 0.931 . S
H396 C411 0.930 . S
C397 H385 0.930 . S
C397 C398 1.399 . S
C397 C402 1.399 . S
C398 C397 1.399 . S
C398 C399 1.376 . S
C399 H386 0.930 . S
C399 C398 1.376 . S
C399 C400 1.388 . S
C400 H387 0.930 . S
C400 C399 1.388 . S
C400 C401 1.390 . S
C401 C400 1.390 . S
C401 C402 1.394 . S
C401 C407 1.465 . S
C402 C397 1.399 . S
C402 C401 1.394 . S
C402 C403 1.516 . S
C403 C402 1.516 . S
C403 C404 1.502 . S
C403 C405 1.561 . S
C403 C406 1.526 . S
C404 H388 0.959 . S
C404 H389 0.959 . S
C404 H390 0.961 . S
C404 C403 1.502 . S
C405 H391 0.960 . S
C405 H392 0.961 . S
C405 H393 0.959 . S
C405 C403 1.561 . S
C406 C403 1.526 . S
C406 C407 1.396 . S
C406 C411 1.390 . S
C407 C401 1.465 . S
C407 C406 1.396 . S
C407 C408 1.399 . S
C408 H394 0.929 . S
C408 C407 1.399 . S
C408 C409 1.385 . S
C409 H395 0.931 . S
C409 C408 1.385 . S
C409 C410 1.389 . S
C410 C409 1.389 . S
C410 C411 1.387 . S
C411 H396 0.930 . S
C411 C406 1.390 . S
C411 C410 1.387 . S
H412 C424 0.930 . S
H413 C426 0.930 . S
H414 C427 0.930 . S
H415 C431 0.959 . S
H416 C431 0.959 . S
H417 C431 0.961 . S
H418 C432 0.960 . S
H419 C432 0.961 . S
H420 C432 0.959 . S
H421 C435 0.929 . S
H422 C436 0.931 . S
H423 C438 0.930 . S
C424 H412 0.930 . S
C424 C425 1.399 . S
C424 C429 1.399 . S
C425 C424 1.399 . S
C425 C426 1.376 . S
C426 H413 0.930 . S
C426 C425 1.376 . S
C426 C427 1.388 . S
C427 H414 0.930 . S
C427 C426 1.388 . S
C427 C428 1.390 . S
C428 C427 1.390 . S
C428 C429 1.394 . S
C428 C434 1.465 . S
C429 C424 1.399 . S
C429 C428 1.394 . S
C429 C430 1.516 . S
C430 C429 1.516 . S
C430 C431 1.502 . S
C430 C432 1.561 . S
C430 C433 1.526 . S
C431 H415 0.959 . S
C431 H416 0.959 . S
C431 H417 0.961 . S
C431 C430 1.502 . S
C432 H418 0.960 . S
C432 H419 0.961 . S
C432 H420 0.959 . S
C432 C430 1.561 . S
C433 C430 1.526 . S
C433 C434 1.396 . S
C433 C438 1.390 . S
C434 C428 1.465 . S
C434 C433 1.396 . S
C434 C435 1.399 . S
C435 H421 0.929 . S
C435 C434 1.399 . S
C435 C436 1.385 . S
C436 H422 0.931 . S
C436 C435 1.385 . S
C436 C437 1.389 . S
C437 C436 1.389 . S
C437 C438 1.387 . S
C438 H423 0.930 . S
C438 C433 1.390 . S
C438 C437 1.387 . S
H439 C451 0.930 . S
H440 C453 0.930 . S
H441 C454 0.930 . S
H442 C458 0.959 . S
H443 C458 0.959 . S
H444 C458 0.961 . S
H445 C459 0.960 . S
H446 C459 0.961 . S
H447 C459 0.959 . S
H448 C462 0.929 . S
H449 C463 0.931 . S
H450 C465 0.930 . S
C451 H439 0.930 . S
C451 C452 1.399 . S
C451 C456 1.399 . S
C452 C451 1.399 . S
C452 C453 1.376 . S
C453 H440 0.930 . S
C453 C452 1.376 . S
C453 C454 1.388 . S
C454 H441 0.930 . S
C454 C453 1.388 . S
C454 C455 1.390 . S
C455 C454 1.390 . S
C455 C456 1.394 . S
C455 C461 1.465 . S
C456 C451 1.399 . S
C456 C455 1.394 . S
C456 C457 1.516 . S
C457 C456 1.516 . S
C457 C458 1.502 . S
C457 C459 1.561 . S
C457 C460 1.526 . S
C458 H442 0.959 . S
C458 H443 0.959 . S
C458 H444 0.961 . S
C458 C457 1.502 . S
C459 H445 0.960 . S
C459 H446 0.961 . S
C459 H447 0.959 . S
C459 C457 1.561 . S
C460 C457 1.526 . S
C460 C461 1.396 . S
C460 C465 1.390 . S
C461 C455 1.465 . S
C461 C460 1.396 . S
C461 C462 1.399 . S
C462 H448 0.929 . S
C462 C461 1.399 . S
C462 C463 1.385 . S
C463 H449 0.931 . S
C463 C462 1.385 . S
C463 C464 1.389 . S
C464 C463 1.389 . S
C464 C465 1.387 . S
C465 H450 0.930 . S
C465 C460 1.390 . S
C465 C464 1.387 . S
H466 C478 0.930 . S
H467 C480 0.930 . S
H468 C481 0.930 . S
H469 C485 0.959 . S
H470 C485 0.959 . S
H471 C485 0.961 . S
H472 C486 0.960 . S
H473 C486 0.961 . S
H474 C486 0.959 . S
H475 C489 0.929 . S
H476 C490 0.931 . S
H477 C492 0.930 . S
C478 H466 0.930 . S
C478 C479 1.399 . S
C478 C483 1.399 . S
C479 C478 1.399 . S
C479 C480 1.376 . S
C480 H467 0.930 . S
C480 C479 1.376 . S
C480 C481 1.388 . S
C481 H468 0.930 . S
C481 C480 1.388 . S
C481 C482 1.390 . S
C482 C481 1.390 . S
C482 C483 1.394 . S
C482 C488 1.465 . S
C483 C478 1.399 . S
C483 C482 1.394 . S
C483 C484 1.516 . S
C484 C483 1.516 . S
C484 C485 1.502 . S
C484 C486 1.561 . S
C484 C487 1.526 . S
C485 H469 0.959 . S
C485 H470 0.959 . S
C485 H471 0.961 . S
C485 C484 1.502 . S
C486 H472 0.960 . S
C486 H473 0.961 . S
C486 H474 0.959 . S
C486 C484 1.561 . S
C487 C484 1.526 . S
C487 C488 1.396 . S
C487 C492 1.390 . S
C488 C482 1.465 . S
C488 C487 1.396 . S
C488 C489 1.399 . S
C489 H475 0.929 . S
C489 C488 1.399 . S
C489 C490 1.385 . S
C490 H476 0.931 . S
C490 C489 1.385 . S
C490 C491 1.389 . S
C491 C490 1.389 . S
C491 C492 1.387 . S
C492 H477 0.930 . S
C492 C487 1.390 . S
C492 C491 1.387 . S
H493 C505 0.930 . S
H494 C507 0.930 . S
H495 C508 0.930 . S
H496 C512 0.959 . S
H497 C512 0.959 . S
H498 C512 0.961 . S
H499 C513 0.960 . S
H500 C513 0.961 . S
H501 C513 0.959 . S
H502 C516 0.929 . S
H503 C517 0.931 . S
H504 C519 0.930 . S
C505 H493 0.930 . S
C505 C506 1.399 . S
C505 C510 1.399 . S
C506 C505 1.399 . S
C506 C507 1.376 . S
C507 H494 0.930 . S
C507 C506 1.376 . S
C507 C508 1.388 . S
C508 H495 0.930 . S
C508 C507 1.388 . S
C508 C509 1.390 . S
C509 C508 1.390 . S
C509 C510 1.394 . S
C509 C515 1.465 . S
C510 C505 1.399 . S
C510 C509 1.394 . S
C510 C511 1.516 . S
C511 C510 1.516 . S
C511 C512 1.502 . S
C511 C513 1.561 . S
C511 C514 1.526 . S
C512 H496 0.959 . S
C512 H497 0.959 . S
C512 H498 0.961 . S
C512 C511 1.502 . S
C513 H499 0.960 . S
C513 H500 0.961 . S
C513 H501 0.959 . S
C513 C511 1.561 . S
C514 C511 1.526 . S
C514 C515 1.396 . S
C514 C519 1.390 . S
C515 C509 1.465 . S
C515 C514 1.396 . S
C515 C516 1.399 . S
C516 H502 0.929 . S
C516 C515 1.399 . S
C516 C517 1.385 . S
C517 H503 0.931 . S
C517 C516 1.385 . S
C517 C518 1.389 . S
C518 C517 1.389 . S
C518 C519 1.387 . S
C519 H504 0.930 . S
C519 C514 1.390 . S
C519 C518 1.387 . S
H520 C532 0.930 . S
H521 C534 0.930 . S
H522 C535 0.930 . S
H523 C539 0.959 . S
H524 C539 0.959 . S
H525 C539 0.961 . S
H526 C540 0.960 . S
H527 C540 0.961 . S
H528 C540 0.959 . S
H529 C543 0.929 . S
H530 C544 0.931 . S
H531 C546 0.930 . S
C532 H520 0.930 . S
C532 C533 1.399 . S
C532 C537 1.399 . S
C533 C532 1.399 . S
C533 C534 1.376 . S
C534 H521 0.930 . S
C534 C533 1.376 . S
C534 C535 1.388 . S
C535 H522 0.930 . S
C535 C534 1.388 . S
C535 C536 1.390 . S
C536 C535 1.390 . S
C536 C537 1.394 . S
C536 C542 1.465 . S
C537 C532 1.399 . S
C537 C536 1.394 . S
C537 C538 1.516 . S
C538 C537 1.516 . S
C538 C539 1.502 . S
C538 C540 1.561 . S
C538 C541 1.526 . S
C539 H523 0.959 . S
C539 H524 0.959 . S
C539 H525 0.961 . S
C539 C538 1.502 . S
C540 H526 0.960 . S
C540 H527 0.961 . S
C540 H528 0.959 . S
C540 C538 1.561 . S
C541 C538 1.526 . S
C541 C542 1.396 . S
C541 C546 1.390 . S
C542 C536 1.465 . S
C542 C541 1.396 . S
C542 C543 1.399 . S
C543 H529 0.929 . S
C543 C542 1.399 . S
C543 C544 1.385 . S
C544 H530 0.931 . S
C544 C543 1.385 . S
C544 C545 1.389 . S
C545 C544 1.389 . S
C545 C546 1.387 . S
C546 H531 0.930 . S
C546 C541 1.390 . S
C546 C545 1.387 . S
H547 C559 0.930 . S
H548 C561 0.930 . S
H549 C562 0.930 . S
H550 C566 0.959 . S
H551 C566 0.959 . S
H552 C566 0.961 . S
H553 C567 0.960 . S
H554 C567 0.961 . S
H555 C567 0.959 . S
H556 C570 0.929 . S
H557 C571 0.931 . S
H558 C573 0.930 . S
C559 H547 0.930 . S
C559 C560 1.399 . S
C559 C564 1.399 . S
C560 C559 1.399 . S
C560 C561 1.376 . S
C561 H548 0.930 . S
C561 C560 1.376 . S
C561 C562 1.388 . S
C562 H549 0.930 . S
C562 C561 1.388 . S
C562 C563 1.390 . S
C563 C562 1.390 . S
C563 C564 1.394 . S
C563 C569 1.465 . S
C564 C559 1.399 . S
C564 C563 1.394 . S
C564 C565 1.516 . S
C565 C564 1.516 . S
C565 C566 1.502 . S
C565 C567 1.561 . S
C565 C568 1.526 . S
C566 H550 0.959 . S
C566 H551 0.959 . S
C566 H552 0.961 . S
C566 C565 1.502 . S
C567 H553 0.960 . S
C567 H554 0.961 . S
C567 H555 0.959 . S
C567 C565 1.561 . S
C568 C565 1.526 . S
C568 C569 1.396 . S
C568 C573 1.390 . S
C569 C563 1.465 . S
C569 C568 1.396 . S
C569 C570 1.399 . S
C570 H556 0.929 . S
C570 C569 1.399 . S
C570 C571 1.385 . S
C571 H557 0.931 . S
C571 C570 1.385 . S
C571 C572 1.389 . S
C572 C571 1.389 . S
C572 C573 1.387 . S
C573 H558 0.930 . S
C573 C568 1.390 . S
C573 C572 1.387 . S
H574 C586 0.930 . S
H575 C588 0.930 . S
H576 C589 0.930 . S
H577 C593 0.959 . S
H578 C593 0.959 . S
H579 C593 0.961 . S
H580 C594 0.960 . S
H581 C594 0.961 . S
H582 C594 0.959 . S
H583 C597 0.929 . S
H584 C598 0.931 . S
H585 C600 0.930 . S
C586 H574 0.930 . S
C586 C587 1.399 . S
C586 C591 1.399 . S
C587 C586 1.399 . S
C587 C588 1.376 . S
C588 H575 0.930 . S
C588 C587 1.376 . S
C588 C589 1.388 . S
C589 H576 0.930 . S
C589 C588 1.388 . S
C589 C590 1.390 . S
C590 C589 1.390 . S
C590 C591 1.394 . S
C590 C596 1.465 . S
C591 C586 1.399 . S
C591 C590 1.394 . S
C591 C592 1.516 . S
C592 C591 1.516 . S
C592 C593 1.502 . S
C592 C594 1.561 . S
C592 C595 1.526 . S
C593 H577 0.959 . S
C593 H578 0.959 . S
C593 H579 0.961 . S
C593 C592 1.502 . S
C594 H580 0.960 . S
C594 H581 0.961 . S
C594 H582 0.959 . S
C594 C592 1.561 . S
C595 C592 1.526 . S
C595 C596 1.396 . S
C595 C600 1.390 . S
C596 C590 1.465 . S
C596 C595 1.396 . S
C596 C597 1.399 . S
C597 H583 0.929 . S
C597 C596 1.399 . S
C597 C598 1.385 . S
C598 H584 0.931 . S
C598 C597 1.385 . S
C598 C599 1.389 . S
C599 C598 1.389 . S
C599 C600 1.387 . S
C600 H585 0.930 . S
C600 C595 1.390 . S
C600 C599 1.387 . S
H601 C613 0.930 . S
H602 C615 0.930 . S
H603 C616 0.930 . S
H604 C620 0.959 . S
H605 C620 0.959 . S
H606 C620 0.961 . S
H607 C621 0.960 . S
H608 C621 0.961 . S
H609 C621 0.959 . S
H610 C624 0.929 . S
H611 C625 0.931 . S
H612 C627 0.930 . S
C613 H601 0.930 . S
C613 C614 1.399 . S
C613 C618 1.399 . S
C614 C613 1.399 . S
C614 C615 1.376 . S
C615 H602 0.930 . S
C615 C614 1.376 . S
C615 C616 1.388 . S
C616 H603 0.930 . S
C616 C615 1.388 . S
C616 C617 1.390 . S
C617 C616 1.390 . S
C617 C618 1.394 . S
C617 C623 1.465 . S
C618 C613 1.399 . S
C618 C617 1.394 . S
C618 C619 1.516 . S
C619 C618 1.516 . S
C619 C620 1.502 . S
C619 C621 1.561 . S
C619 C622 1.526 . S
C620 H604 0.959 . S
C620 H605 0.959 . S
C620 H606 0.961 . S
C620 C619 1.502 . S
C621 H607 0.960 . S
C621 H608 0.961 . S
C621 H609 0.959 . S
C621 C619 1.561 . S
C622 C619 1.526 . S
C622 C623 1.396 . S
C622 C627 1.390 . S
C623 C617 1.465 . S
C623 C622 1.396 . S
C623 C624 1.399 . S
C624 H610 0.929 . S
C624 C623 1.399 . S
C624 C625 1.385 . S
C625 H611 0.931 . S
C625 C624 1.385 . S
C625 C626 1.389 . S
C626 C625 1.389 . S
C626 C627 1.387 . S
C627 H612 0.930 . S
C627 C622 1.390 . S
C627 C626 1.387 . S
H628 C640 0.930 . S
H629 C642 0.930 . S
H630 C643 0.930 . S
H631 C647 0.959 . S
H632 C647 0.959 . S
H633 C647 0.961 . S
H634 C648 0.960 . S
H635 C648 0.961 . S
H636 C648 0.959 . S
H637 C651 0.929 . S
H638 C652 0.931 . S
H639 C654 0.930 . S
C640 H628 0.930 . S
C640 C641 1.399 . S
C640 C645 1.399 . S
C641 C640 1.399 . S
C641 C642 1.376 . S
C642 H629 0.930 . S
C642 C641 1.376 . S
C642 C643 1.388 . S
C643 H630 0.930 . S
C643 C642 1.388 . S
C643 C644 1.390 . S
C644 C643 1.390 . S
C644 C645 1.394 . S
C644 C650 1.465 . S
C645 C640 1.399 . S
C645 C644 1.394 . S
C645 C646 1.516 . S
C646 C645 1.516 . S
C646 C647 1.502 . S
C646 C648 1.561 . S
C646 C649 1.526 . S
C647 H631 0.959 . S
C647 H632 0.959 . S
C647 H633 0.961 . S
C647 C646 1.502 . S
C648 H634 0.960 . S
C648 H635 0.961 . S
C648 H636 0.959 . S
C648 C646 1.561 . S
C649 C646 1.526 . S
C649 C650 1.396 . S
C649 C654 1.390 . S
C650 C644 1.465 . S
C650 C649 1.396 . S
C650 C651 1.399 . S
C651 H637 0.929 . S
C651 C650 1.399 . S
C651 C652 1.385 . S
C652 H638 0.931 . S
C652 C651 1.385 . S
C652 C653 1.389 . S
C653 C652 1.389 . S
C653 C654 1.387 . S
C654 H639 0.930 . S
C654 C649 1.390 . S
C654 C653 1.387 . S
H655 C667 0.930 . S
H656 C669 0.930 . S
H657 C670 0.930 . S
H658 C674 0.959 . S
H659 C674 0.959 . S
H660 C674 0.961 . S
H661 C675 0.960 . S
H662 C675 0.961 1_556 S
H663 C675 0.959 . S
H664 C678 0.929 . S
H665 C679 0.931 . S
H666 C681 0.930 . S
C667 H655 0.930 . S
C667 C668 1.399 . S
C667 C672 1.399 . S
C668 C667 1.399 . S
C668 C669 1.376 . S
C669 H656 0.930 . S
C669 C668 1.376 . S
C669 C670 1.388 . S
C670 H657 0.930 . S
C670 C669 1.388 . S
C670 C671 1.390 . S
C671 C670 1.390 . S
C671 C672 1.394 . S
C671 C677 1.465 . S
C672 C667 1.399 . S
C672 C671 1.394 . S
C672 C673 1.516 . S
C673 C672 1.516 . S
C673 C674 1.502 . S
C673 C675 1.561 . S
C673 C676 1.526 . S
C674 H658 0.959 . S
C674 H659 0.959 . S
C674 H660 0.961 . S
C674 C673 1.502 . S
C675 H661 0.960 . S
C675 H662 0.961 1_554 S
C675 H663 0.959 . S
C675 C673 1.561 . S
C676 C673 1.526 . S
C676 C677 1.396 . S
C676 C681 1.390 . S
C677 C671 1.465 . S
C677 C676 1.396 . S
C677 C678 1.399 . S
C678 H664 0.929 . S
C678 C677 1.399 . S
C678 C679 1.385 . S
C679 H665 0.931 . S
C679 C678 1.385 . S
C679 C680 1.389 . S
C680 C679 1.389 . S
C680 C681 1.387 . S
C681 H666 0.930 . S
C681 C676 1.390 . S
C681 C680 1.387 . S
H682 C694 0.930 . S
H683 C696 0.930 . S
H684 C697 0.930 . S
H685 C701 0.959 . S
H686 C701 0.959 . S
H687 C701 0.961 . S
H688 C702 0.960 . S
H689 C702 0.961 . S
H690 C702 0.959 . S
H691 C705 0.929 . S
H692 C706 0.931 . S
H693 C708 0.930 . S
C694 H682 0.930 . S
C694 C695 1.399 . S
C694 C699 1.399 . S
C695 C694 1.399 . S
C695 C696 1.376 . S
C696 H683 0.930 . S
C696 C695 1.376 . S
C696 C697 1.388 . S
C697 H684 0.930 . S
C697 C696 1.388 . S
C697 C698 1.390 . S
C698 C697 1.390 . S
C698 C699 1.394 . S
C698 C704 1.465 . S
C699 C694 1.399 . S
C699 C698 1.394 . S
C699 C700 1.516 . S
C700 C699 1.516 . S
C700 C701 1.502 . S
C700 C702 1.561 . S
C700 C703 1.526 . S
C701 H685 0.959 . S
C701 H686 0.959 . S
C701 H687 0.961 . S
C701 C700 1.502 . S
C702 H688 0.960 . S
C702 H689 0.961 . S
C702 H690 0.959 . S
C702 C700 1.561 . S
C703 C700 1.526 . S
C703 C704 1.396 . S
C703 C708 1.390 . S
C704 C698 1.465 . S
C704 C703 1.396 . S
C704 C705 1.399 . S
C705 H691 0.929 . S
C705 C704 1.399 . S
C705 C706 1.385 . S
C706 H692 0.931 . S
C706 C705 1.385 . S
C706 C707 1.389 . S
C707 C706 1.389 . S
C707 C708 1.387 . S
C708 H693 0.930 . S
C708 C703 1.390 . S
C708 C707 1.387 . S
H709 C721 0.930 . S
H710 C723 0.930 . S
H711 C724 0.930 . S
H712 C728 0.959 . S
H713 C728 0.959 . S
H714 C728 0.961 . S
H715 C729 0.960 . S
H716 C729 0.961 . S
H717 C729 0.959 . S
H718 C732 0.929 . S
H719 C733 0.931 . S
H720 C735 0.930 . S
C721 H709 0.930 . S
C721 C722 1.399 . S
C721 C726 1.399 . S
C722 C721 1.399 . S
C722 C723 1.376 . S
C723 H710 0.930 . S
C723 C722 1.376 . S
C723 C724 1.388 . S
C724 H711 0.930 . S
C724 C723 1.388 . S
C724 C725 1.390 . S
C725 C724 1.390 . S
C725 C726 1.394 . S
C725 C731 1.465 . S
C726 C721 1.399 . S
C726 C725 1.394 . S
C726 C727 1.516 . S
C727 C726 1.516 . S
C727 C728 1.502 . S
C727 C729 1.561 . S
C727 C730 1.526 . S
C728 H712 0.959 . S
C728 H713 0.959 . S
C728 H714 0.961 . S
C728 C727 1.502 . S
C729 H715 0.960 . S
C729 H716 0.961 . S
C729 H717 0.959 . S
C729 C727 1.561 . S
C730 C727 1.526 . S
C730 C731 1.396 . S
C730 C735 1.390 . S
C731 C725 1.465 . S
C731 C730 1.396 . S
C731 C732 1.399 . S
C732 H718 0.929 . S
C732 C731 1.399 . S
C732 C733 1.385 . S
C733 H719 0.931 . S
C733 C732 1.385 . S
C733 C734 1.389 . S
C734 C733 1.389 . S
C734 C735 1.387 . S
C735 H720 0.930 . S
C735 C730 1.390 . S
C735 C734 1.387 . S
H736 C748 0.930 . S
H737 C750 0.930 . S
H738 C751 0.930 . S
H739 C755 0.959 . S
H740 C755 0.959 . S
H741 C755 0.961 . S
H742 C756 0.960 . S
H743 C756 0.961 . S
H744 C756 0.959 . S
H745 C759 0.929 . S
H746 C760 0.931 1_554 S
H747 C762 0.930 . S
C748 H736 0.930 . S
C748 C749 1.399 . S
C748 C753 1.399 . S
C749 C748 1.399 . S
C749 C750 1.376 . S
C750 H737 0.930 . S
C750 C749 1.376 . S
C750 C751 1.388 . S
C751 H738 0.930 . S
C751 C750 1.388 . S
C751 C752 1.390 . S
C752 C751 1.390 . S
C752 C753 1.394 . S
C752 C758 1.465 . S
C753 C748 1.399 . S
C753 C752 1.394 . S
C753 C754 1.516 . S
C754 C753 1.516 . S
C754 C755 1.502 . S
C754 C756 1.561 . S
C754 C757 1.526 . S
C755 H739 0.959 . S
C755 H740 0.959 . S
C755 H741 0.961 . S
C755 C754 1.502 . S
C756 H742 0.960 . S
C756 H743 0.961 . S
C756 H744 0.959 . S
C756 C754 1.561 . S
C757 C754 1.526 . S
C757 C758 1.396 . S
C757 C762 1.390 . S
C758 C752 1.465 . S
C758 C757 1.396 . S
C758 C759 1.399 . S
C759 H745 0.929 . S
C759 C758 1.399 . S
C759 C760 1.385 . S
C760 H746 0.931 1_556 S
C760 C759 1.385 . S
C760 C761 1.389 . S
C761 C760 1.389 . S
C761 C762 1.387 . S
C762 H747 0.930 . S
C762 C757 1.390 . S
C762 C761 1.387 . S
H763 C775 0.930 . S
H764 C777 0.930 . S
H765 C778 0.930 . S
H766 C782 0.959 . S
H767 C782 0.959 . S
H768 C782 0.961 . S
H769 C783 0.960 . S
H770 C783 0.961 . S
H771 C783 0.959 . S
H772 C786 0.929 . S
H773 C787 0.931 . S
H774 C789 0.930 . S
C775 H763 0.930 . S
C775 C776 1.399 . S
C775 C780 1.399 . S
C776 C775 1.399 . S
C776 C777 1.376 . S
C777 H764 0.930 . S
C777 C776 1.376 . S
C777 C778 1.388 . S
C778 H765 0.930 . S
C778 C777 1.388 . S
C778 C779 1.390 . S
C779 C778 1.390 . S
C779 C780 1.394 . S
C779 C785 1.465 . S
C780 C775 1.399 . S
C780 C779 1.394 . S
C780 C781 1.516 . S
C781 C780 1.516 . S
C781 C782 1.502 . S
C781 C783 1.561 . S
C781 C784 1.526 . S
C782 H766 0.959 . S
C782 H767 0.959 . S
C782 H768 0.961 . S
C782 C781 1.502 . S
C783 H769 0.960 . S
C783 H770 0.961 . S
C783 H771 0.959 . S
C783 C781 1.561 . S
C784 C781 1.526 . S
C784 C785 1.396 . S
C784 C789 1.390 . S
C785 C779 1.465 . S
C785 C784 1.396 . S
C785 C786 1.399 . S
C786 H772 0.929 . S
C786 C785 1.399 . S
C786 C787 1.385 . S
C787 H773 0.931 . S
C787 C786 1.385 . S
C787 C788 1.389 . S
C788 C787 1.389 . S
C788 C789 1.387 . S
C789 H774 0.930 . S
C789 C784 1.390 . S
C789 C788 1.387 . S
H790 C802 0.930 . S
H791 C804 0.930 . S
H792 C805 0.930 . S
H793 C809 0.959 . S
H794 C809 0.940 1_556 S
H795 C809 0.961 . S
H796 C810 0.960 . S
H797 C810 0.961 . S
H798 C810 0.959 . S
H799 C813 0.929 . S
H800 C814 0.931 . S
H801 C816 0.930 . S
C802 H790 0.930 . S
C802 C803 1.399 . S
C802 C807 1.399 . S
C803 C802 1.399 . S
C803 C804 1.376 . S
C804 H791 0.930 . S
C804 C803 1.376 . S
C804 C805 1.388 . S
C805 H792 0.930 . S
C805 C804 1.388 . S
C805 C806 1.390 . S
C806 C805 1.390 . S
C806 C807 1.394 . S
C806 C812 1.465 . S
C807 C802 1.399 . S
C807 C806 1.394 . S
C807 C808 1.516 . S
C808 C807 1.516 . S
C808 C809 1.502 . S
C808 C810 1.561 . S
C808 C811 1.526 . S
C809 H793 0.959 . S
C809 H794 0.940 1_554 S
C809 H795 0.961 . S
C809 C808 1.502 . S
C810 H796 0.960 . S
C810 H797 0.961 . S
C810 H798 0.959 . S
C810 C808 1.561 . S
C811 C808 1.526 . S
C811 C812 1.396 . S
C811 C816 1.390 . S
C812 C806 1.465 . S
C812 C811 1.396 . S
C812 C813 1.399 . S
C813 H799 0.929 . S
C813 C812 1.399 . S
C813 C814 1.385 . S
C814 H800 0.931 . S
C814 C813 1.385 . S
C814 C815 1.389 . S
C815 C814 1.389 . S
C815 C816 1.387 . S
C816 H801 0.930 . S
C816 C811 1.390 . S
C816 C815 1.387 . S
H817 C829 0.930 . S
H818 C831 0.930 . S
H819 C832 0.930 . S
H820 C836 0.959 . S
H821 C836 0.959 . S
H822 C836 0.961 . S
H823 C837 0.960 . S
H824 C837 0.961 . S
H825 C837 0.959 . S
H826 C840 0.929 . S
H827 C841 0.931 . S
H828 C843 0.930 . S
C829 H817 0.930 . S
C829 C830 1.399 . S
C829 C834 1.399 . S
C830 C829 1.399 . S
C830 C831 1.376 . S
C831 H818 0.930 . S
C831 C830 1.376 . S
C831 C832 1.388 . S
C832 H819 0.930 . S
C832 C831 1.388 . S
C832 C833 1.390 . S
C833 C832 1.390 . S
C833 C834 1.394 . S
C833 C839 1.465 . S
C834 C829 1.399 . S
C834 C833 1.394 . S
C834 C835 1.516 . S
C835 C834 1.516 . S
C835 C836 1.502 . S
C835 C837 1.561 . S
C835 C838 1.526 . S
C836 H820 0.959 . S
C836 H821 0.959 . S
C836 H822 0.961 . S
C836 C835 1.502 . S
C837 H823 0.960 . S
C837 H824 0.961 . S
C837 H825 0.959 . S
C837 C835 1.561 . S
C838 C835 1.526 . S
C838 C839 1.396 . S
C838 C843 1.390 . S
C839 C833 1.465 . S
C839 C838 1.396 . S
C839 C840 1.399 . S
C840 H826 0.929 . S
C840 C839 1.399 . S
C840 C841 1.385 . S
C841 H827 0.931 . S
C841 C840 1.385 . S
C841 C842 1.389 . S
C842 C841 1.389 . S
C842 C843 1.387 . S
C843 H828 0.930 . S
C843 C838 1.390 . S
C843 C842 1.387 . S
H844 C856 0.930 . S
H845 C858 0.930 . S
H846 C859 0.930 . S
H847 C863 0.959 . S
H848 C863 0.959 . S
H849 C863 0.961 . S
H850 C864 0.960 . S
H851 C864 0.961 . S
H852 C864 0.959 . S
H853 C867 0.929 . S
H854 C868 0.931 . S
H855 C870 0.930 . S
C856 H844 0.930 . S
C856 C857 1.399 . S
C856 C861 1.399 . S
C857 C856 1.399 . S
C857 C858 1.376 . S
C858 H845 0.930 . S
C858 C857 1.376 . S
C858 C859 1.388 . S
C859 H846 0.930 . S
C859 C858 1.388 . S
C859 C860 1.390 . S
C860 C859 1.390 . S
C860 C861 1.394 . S
C860 C866 1.465 . S
C861 C856 1.399 . S
C861 C860 1.394 . S
C861 C862 1.516 . S
C862 C861 1.516 . S
C862 C863 1.502 . S
C862 C864 1.561 . S
C862 C865 1.526 . S
C863 H847 0.959 . S
C863 H848 0.959 . S
C863 H849 0.961 . S
C863 C862 1.502 . S
C864 H850 0.960 . S
C864 H851 0.961 . S
C864 H852 0.959 . S
C864 C862 1.561 . S
C865 C862 1.526 . S
C865 C866 1.396 . S
C865 C870 1.390 . S
C866 C860 1.465 . S
C866 C865 1.396 . S
C866 C867 1.399 . S
C867 H853 0.929 . S
C867 C866 1.399 . S
C867 C868 1.385 . S
C868 H854 0.931 . S
C868 C867 1.385 . S
C868 C869 1.389 . S
C869 C868 1.389 . S
C869 C870 1.387 . S
C870 H855 0.930 . S
C870 C865 1.390 . S
C870 C869 1.387 . S
H871 C883 0.930 . S
H872 C885 0.930 . S
H873 C886 0.930 . S
H874 C890 0.959 . S
H875 C890 0.959 . S
H876 C890 0.961 . S
H877 C891 0.960 . S
H878 C891 0.961 1_554 S
H879 C891 0.959 . S
H880 C894 0.929 . S
H881 C895 0.931 . S
H882 C897 0.930 . S
C883 H871 0.930 . S
C883 C884 1.399 . S
C883 C888 1.399 . S
C884 C883 1.399 . S
C884 C885 1.376 . S
C885 H872 0.930 . S
C885 C884 1.376 . S
C885 C886 1.388 . S
C886 H873 0.930 . S
C886 C885 1.388 . S
C886 C887 1.390 . S
C887 C886 1.390 . S
C887 C888 1.394 . S
C887 C893 1.465 . S
C888 C883 1.399 . S
C888 C887 1.394 . S
C888 C889 1.516 . S
C889 C888 1.516 . S
C889 C890 1.502 . S
C889 C891 1.561 . S
C889 C892 1.526 . S
C890 H874 0.959 . S
C890 H875 0.959 . S
C890 H876 0.961 . S
C890 C889 1.502 . S
C891 H877 0.960 . S
C891 H878 0.961 1_556 S
C891 H879 0.959 . S
C891 C889 1.561 . S
C892 C889 1.526 . S
C892 C893 1.396 . S
C892 C897 1.390 . S
C893 C887 1.465 . S
C893 C892 1.396 . S
C893 C894 1.399 . S
C894 H880 0.929 . S
C894 C893 1.399 . S
C894 C895 1.385 . S
C895 H881 0.931 . S
C895 C894 1.385 . S
C895 C896 1.389 . S
C896 C895 1.389 . S
C896 C897 1.387 . S
C897 H882 0.930 . S
C897 C892 1.390 . S
C897 C896 1.387 . S
H898 C910 0.930 . S
H899 C912 0.930 . S
H900 C913 0.930 . S
H901 C917 0.959 . S
H902 C917 0.959 . S
H903 C917 0.961 . S
H904 C918 0.960 . S
H905 C918 0.961 . S
H906 C918 0.959 . S
H907 C921 0.929 . S
H908 C922 0.931 . S
H909 C924 0.930 . S
C910 H898 0.930 . S
C910 C911 1.399 . S
C910 C915 1.399 . S
C911 C910 1.399 . S
C911 C912 1.376 . S
C912 H899 0.930 . S
C912 C911 1.376 . S
C912 C913 1.388 . S
C913 H900 0.930 . S
C913 C912 1.388 . S
C913 C914 1.390 . S
C914 C913 1.390 . S
C914 C915 1.394 . S
C914 C920 1.465 . S
C915 C910 1.399 . S
C915 C914 1.394 . S
C915 C916 1.516 . S
C916 C915 1.516 . S
C916 C917 1.502 . S
C916 C918 1.561 . S
C916 C919 1.526 . S
C917 H901 0.959 . S
C917 H902 0.959 . S
C917 H903 0.961 . S
C917 C916 1.502 . S
C918 H904 0.960 . S
C918 H905 0.961 . S
C918 H906 0.959 . S
C918 C916 1.561 . S
C919 C916 1.526 . S
C919 C920 1.396 . S
C919 C924 1.390 . S
C920 C914 1.465 . S
C920 C919 1.396 . S
C920 C921 1.399 . S
C921 H907 0.929 . S
C921 C920 1.399 . S
C921 C922 1.385 . S
C922 H908 0.931 . S
C922 C921 1.385 . S
C922 C923 1.389 . S
C923 C922 1.389 . S
C923 C924 1.387 . S
C924 H909 0.930 . S
C924 C919 1.390 . S
C924 C923 1.387 . S
H925 C937 0.930 . S
H926 C939 0.930 . S
H927 C940 0.930 . S
H928 C944 0.959 . S
H929 C944 0.959 . S
H930 C944 0.961 . S
H931 C945 0.960 . S
H932 C945 0.961 . S
H933 C945 0.959 . S
H934 C948 0.929 . S
H935 C949 0.931 . S
H936 C951 0.930 . S
C937 H925 0.930 . S
C937 C938 1.399 . S
C937 C942 1.399 . S
C938 C937 1.399 . S
C938 C939 1.376 . S
C939 H926 0.930 . S
C939 C938 1.376 . S
C939 C940 1.388 . S
C940 H927 0.930 . S
C940 C939 1.388 . S
C940 C941 1.390 . S
C941 C940 1.390 . S
C941 C942 1.394 . S
C941 C947 1.465 . S
C942 C937 1.399 . S
C942 C941 1.394 . S
C942 C943 1.516 . S
C943 C942 1.516 . S
C943 C944 1.502 . S
C943 C945 1.561 . S
C943 C946 1.526 . S
C944 H928 0.959 . S
C944 H929 0.959 . S
C944 H930 0.961 . S
C944 C943 1.502 . S
C945 H931 0.960 . S
C945 H932 0.961 . S
C945 H933 0.959 . S
C945 C943 1.561 . S
C946 C943 1.526 . S
C946 C947 1.396 . S
C946 C951 1.390 . S
C947 C941 1.465 . S
C947 C946 1.396 . S
C947 C948 1.399 . S
C948 H934 0.929 . S
C948 C947 1.399 . S
C948 C949 1.385 . S
C949 H935 0.931 . S
C949 C948 1.385 . S
C949 C950 1.389 . S
C950 C949 1.389 . S
C950 C951 1.387 . S
C951 H936 0.930 . S
C951 C946 1.390 . S
C951 C950 1.387 . S
H952 C964 0.930 . S
H953 C966 0.930 . S
H954 C967 0.930 . S
H955 C971 0.959 . S
H956 C971 0.959 1_556 S
H957 C971 0.961 . S
H958 C972 0.960 . S
H959 C972 0.961 . S
H960 C972 0.959 . S
H961 C975 0.929 . S
H962 C976 0.931 . S
H963 C978 0.930 . S
C964 H952 0.930 . S
C964 C965 1.399 . S
C964 C969 1.399 . S
C965 C964 1.399 . S
C965 C966 1.376 . S
C966 H953 0.930 . S
C966 C965 1.376 . S
C966 C967 1.388 . S
C967 H954 0.930 . S
C967 C966 1.388 . S
C967 C968 1.390 . S
C968 C967 1.390 . S
C968 C969 1.394 . S
C968 C974 1.465 . S
C969 C964 1.399 . S
C969 C968 1.394 . S
C969 C970 1.516 . S
C970 C969 1.516 . S
C970 C971 1.502 . S
C970 C972 1.561 . S
C970 C973 1.526 . S
C971 H955 0.959 . S
C971 H956 0.959 1_554 S
C971 H957 0.961 . S
C971 C970 1.502 . S
C972 H958 0.960 . S
C972 H959 0.961 . S
C972 H960 0.959 . S
C972 C970 1.561 . S
C973 C970 1.526 . S
C973 C974 1.396 . S
C973 C978 1.390 . S
C974 C968 1.465 . S
C974 C973 1.396 . S
C974 C975 1.399 . S
C975 H961 0.929 . S
C975 C974 1.399 . S
C975 C976 1.385 . S
C976 H962 0.931 . S
C976 C975 1.385 . S
C976 C977 1.389 . S
C977 C976 1.389 . S
C977 C978 1.387 . S
C978 H963 0.930 . S
C978 C973 1.390 . S
C978 C977 1.387 . S
H979 C991 0.930 . S
H980 C993 0.930 . S
H981 C994 0.930 . S
H982 C998 0.959 . S
H983 C998 0.959 . S
H984 C998 0.961 . S
H985 C999 0.960 . S
H986 C999 0.961 . S
H987 C999 0.959 . S
H988 C1002 0.929 . S
H989 C1003 0.931 . S
H990 C1005 0.930 . S
C991 H979 0.930 . S
C991 C992 1.399 . S
C991 C996 1.399 . S
C992 C991 1.399 . S
C992 C993 1.376 . S
C993 H980 0.930 . S
C993 C992 1.376 . S
C993 C994 1.388 . S
C994 H981 0.930 . S
C994 C993 1.388 . S
C994 C995 1.390 . S
C995 C994 1.390 . S
C995 C996 1.394 . S
C995 C1001 1.465 . S
C996 C991 1.399 . S
C996 C995 1.394 . S
C996 C997 1.516 . S
C997 C996 1.516 . S
C997 C998 1.502 . S
C997 C999 1.561 . S
C997 C1000 1.526 . S
C998 H982 0.959 . S
C998 H983 0.959 . S
C998 H984 0.961 . S
C998 C997 1.502 . S
C999 H985 0.960 . S
C999 H986 0.961 . S
C999 H987 0.959 . S
C999 C997 1.561 . S
C1000 C997 1.526 . S
C1000 C1001 1.396 . S
C1000 C1005 1.390 . S
C1001 C995 1.465 . S
C1001 C1000 1.396 . S
C1001 C1002 1.399 . S
C1002 H988 0.929 . S
C1002 C1001 1.399 . S
C1002 C1003 1.385 . S
C1003 H989 0.931 . S
C1003 C1002 1.385 . S
C1003 C1004 1.389 . S
C1004 C1003 1.389 . S
C1004 C1005 1.387 . S
C1005 H990 0.930 . S
C1005 C1000 1.390 . S
C1005 C1004 1.387 . S
H1006 C1018 0.930 . S
H1007 C1020 0.930 . S
H1008 C1021 0.930 . S
H1009 C1025 0.959 . S
H1010 C1025 0.959 . S
H1011 C1025 0.961 . S
H1012 C1026 0.960 . S
H1013 C1026 0.961 . S
H1014 C1026 0.959 . S
H1015 C1029 0.929 . S
H1016 C1030 0.931 . S
H1017 C1032 0.930 . S
C1018 H1006 0.930 . S
C1018 C1019 1.399 . S
C1018 C1023 1.399 . S
C1019 C1018 1.399 . S
C1019 C1020 1.376 . S
C1020 H1007 0.930 . S
C1020 C1019 1.376 . S
C1020 C1021 1.388 . S
C1021 H1008 0.930 . S
C1021 C1020 1.388 . S
C1021 C1022 1.390 . S
C1022 C1021 1.390 . S
C1022 C1023 1.394 . S
C1022 C1028 1.465 . S
C1023 C1018 1.399 . S
C1023 C1022 1.394 . S
C1023 C1024 1.516 . S
C1024 C1023 1.516 . S
C1024 C1025 1.502 . S
C1024 C1026 1.561 . S
C1024 C1027 1.526 . S
C1025 H1009 0.959 . S
C1025 H1010 0.959 . S
C1025 H1011 0.961 . S
C1025 C1024 1.502 . S
C1026 H1012 0.960 . S
C1026 H1013 0.961 . S
C1026 H1014 0.959 . S
C1026 C1024 1.561 . S
C1027 C1024 1.526 . S
C1027 C1028 1.396 . S
C1027 C1032 1.390 . S
C1028 C1022 1.465 . S
C1028 C1027 1.396 . S
C1028 C1029 1.399 . S
C1029 H1015 0.929 . S
C1029 C1028 1.399 . S
C1029 C1030 1.385 . S
C1030 H1016 0.931 . S
C1030 C1029 1.385 . S
C1030 C1031 1.389 . S
C1031 C1030 1.389 . S
C1031 C1032 1.387 . S
C1032 H1017 0.930 . S
C1032 C1027 1.390 . S
C1032 C1031 1.387 . S
H1033 C1045 0.930 . S
H1034 C1047 0.930 . S
H1035 C1048 0.930 . S
H1036 C1052 0.959 . S
H1037 C1052 0.959 . S
H1038 C1052 0.961 . S
H1039 C1053 0.960 . S
H1040 C1053 0.961 . S
H1041 C1053 0.959 . S
H1042 C1056 0.929 . S
H1043 C1057 0.931 . S
H1044 C1059 0.930 . S
C1045 H1033 0.930 . S
C1045 C1046 1.399 . S
C1045 C1050 1.399 . S
C1046 C1045 1.399 . S
C1046 C1047 1.376 . S
C1047 H1034 0.930 . S
C1047 C1046 1.376 . S
C1047 C1048 1.388 . S
C1048 H1035 0.930 . S
C1048 C1047 1.388 . S
C1048 C1049 1.390 . S
C1049 C1048 1.390 . S
C1049 C1050 1.394 . S
C1049 C1055 1.465 . S
C1050 C1045 1.399 . S
C1050 C1049 1.394 . S
C1050 C1051 1.516 . S
C1051 C1050 1.516 . S
C1051 C1052 1.502 . S
C1051 C1053 1.561 . S
C1051 C1054 1.526 . S
C1052 H1036 0.959 . S
C1052 H1037 0.959 . S
C1052 H1038 0.961 . S
C1052 C1051 1.502 . S
C1053 H1039 0.960 . S
C1053 H1040 0.961 . S
C1053 H1041 0.959 . S
C1053 C1051 1.561 . S
C1054 C1051 1.526 . S
C1054 C1055 1.396 . S
C1054 C1059 1.390 . S
C1055 C1049 1.465 . S
C1055 C1054 1.396 . S
C1055 C1056 1.399 . S
C1056 H1042 0.929 . S
C1056 C1055 1.399 . S
C1056 C1057 1.385 . S
C1057 H1043 0.931 . S
C1057 C1056 1.385 . S
C1057 C1058 1.389 . S
C1058 C1057 1.389 . S
C1058 C1059 1.387 . S
C1059 H1044 0.930 . S
C1059 C1054 1.390 . S
C1059 C1058 1.387 . S
H1060 C1072 0.930 . S
H1061 C1074 0.930 . S
H1062 C1075 0.930 . S
H1063 C1079 0.959 . S
H1064 C1079 0.959 . S
H1065 C1079 0.961 . S
H1066 C1080 0.960 . S
H1067 C1080 0.961 . S
H1068 C1080 0.959 . S
H1069 C1083 0.929 . S
H1070 C1084 0.931 . S
H1071 C1086 0.930 . S
C1072 H1060 0.930 . S
C1072 C1073 1.399 . S
C1072 C1077 1.399 . S
C1073 C1072 1.399 . S
C1073 C1074 1.376 . S
C1074 H1061 0.930 . S
C1074 C1073 1.376 . S
C1074 C1075 1.388 . S
C1075 H1062 0.930 . S
C1075 C1074 1.388 . S
C1075 C1076 1.390 . S
C1076 C1075 1.390 . S
C1076 C1077 1.394 . S
C1076 C1082 1.465 . S
C1077 C1072 1.399 . S
C1077 C1076 1.394 . S
C1077 C1078 1.516 . S
C1078 C1077 1.516 . S
C1078 C1079 1.502 . S
C1078 C1080 1.561 . S
C1078 C1081 1.526 . S
C1079 H1063 0.959 . S
C1079 H1064 0.959 . S
C1079 H1065 0.961 . S
C1079 C1078 1.502 . S
C1080 H1066 0.960 . S
C1080 H1067 0.961 . S
C1080 H1068 0.959 . S
C1080 C1078 1.561 . S
C1081 C1078 1.526 . S
C1081 C1082 1.396 . S
C1081 C1086 1.390 . S
C1082 C1076 1.465 . S
C1082 C1081 1.396 . S
C1082 C1083 1.399 . S
C1083 H1069 0.929 . S
C1083 C1082 1.399 . S
C1083 C1084 1.385 . S
C1084 H1070 0.931 . S
C1084 C1083 1.385 . S
C1084 C1085 1.389 . S
C1085 C1084 1.389 . S
C1085 C1086 1.387 . S
C1086 H1071 0.930 . S
C1086 C1081 1.390 . S
C1086 C1085 1.387 . S
H1087 C1099 0.930 . S
H1088 C1101 0.930 . S
H1089 C1102 0.930 . S
H1090 C1106 0.959 . S
H1091 C1106 0.959 . S
H1092 C1106 0.961 . S
H1093 C1107 0.960 . S
H1094 C1107 0.961 . S
H1095 C1107 0.959 . S
H1096 C1110 0.929 . S
H1097 C1111 0.931 . S
H1098 C1113 0.930 . S
C1099 H1087 0.930 . S
C1099 C1100 1.399 . S
C1099 C1104 1.399 . S
C1100 C1099 1.399 . S
C1100 C1101 1.376 . S
C1101 H1088 0.930 . S
C1101 C1100 1.376 . S
C1101 C1102 1.388 . S
C1102 H1089 0.930 . S
C1102 C1101 1.388 . S
C1102 C1103 1.390 . S
C1103 C1102 1.390 . S
C1103 C1104 1.394 . S
C1103 C1109 1.465 . S
C1104 C1099 1.399 . S
C1104 C1103 1.394 . S
C1104 C1105 1.516 . S
C1105 C1104 1.516 . S
C1105 C1106 1.502 . S
C1105 C1107 1.561 . S
C1105 C1108 1.526 . S
C1106 H1090 0.959 . S
C1106 H1091 0.959 . S
C1106 H1092 0.961 . S
C1106 C1105 1.502 . S
C1107 H1093 0.960 . S
C1107 H1094 0.961 . S
C1107 H1095 0.959 . S
C1107 C1105 1.561 . S
C1108 C1105 1.526 . S
C1108 C1109 1.396 . S
C1108 C1113 1.390 . S
C1109 C1103 1.465 . S
C1109 C1108 1.396 . S
C1109 C1110 1.399 . S
C1110 H1096 0.929 . S
C1110 C1109 1.399 . S
C1110 C1111 1.385 . S
C1111 H1097 0.931 . S
C1111 C1110 1.385 . S
C1111 C1112 1.389 . S
C1112 C1111 1.389 . S
C1112 C1113 1.387 . S
C1113 H1098 0.930 . S
C1113 C1108 1.390 . S
C1113 C1112 1.387 . S
H1114 C1126 0.930 . S
H1115 C1128 0.930 . S
H1116 C1129 0.930 . S
H1117 C1133 0.959 . S
H1118 C1133 0.959 . S
H1119 C1133 0.961 . S
H1120 C1134 0.960 . S
H1121 C1134 0.961 . S
H1122 C1134 0.959 . S
H1123 C1137 0.929 . S
H1124 C1138 0.931 . S
H1125 C1140 0.930 . S
C1126 H1114 0.930 . S
C1126 C1127 1.399 . S
C1126 C1131 1.399 . S
C1127 C1126 1.399 . S
C1127 C1128 1.376 . S
C1128 H1115 0.930 . S
C1128 C1127 1.376 . S
C1128 C1129 1.388 . S
C1129 H1116 0.930 . S
C1129 C1128 1.388 . S
C1129 C1130 1.390 . S
C1130 C1129 1.390 . S
C1130 C1131 1.394 . S
C1130 C1136 1.465 . S
C1131 C1126 1.399 . S
C1131 C1130 1.394 . S
C1131 C1132 1.516 . S
C1132 C1131 1.516 . S
C1132 C1133 1.502 . S
C1132 C1134 1.561 . S
C1132 C1135 1.526 . S
C1133 H1117 0.959 . S
C1133 H1118 0.959 . S
C1133 H1119 0.961 . S
C1133 C1132 1.502 . S
C1134 H1120 0.960 . S
C1134 H1121 0.961 . S
C1134 H1122 0.959 . S
C1134 C1132 1.561 . S
C1135 C1132 1.526 . S
C1135 C1136 1.396 . S
C1135 C1140 1.390 . S
C1136 C1130 1.465 . S
C1136 C1135 1.396 . S
C1136 C1137 1.399 . S
C1137 H1123 0.929 . S
C1137 C1136 1.399 . S
C1137 C1138 1.385 . S
C1138 H1124 0.931 . S
C1138 C1137 1.385 . S
C1138 C1139 1.389 . S
C1139 C1138 1.389 . S
C1139 C1140 1.387 . S
C1140 H1125 0.930 . S
C1140 C1135 1.390 . S
C1140 C1139 1.387 . S
H1141 C1153 0.930 . S
H1142 C1155 0.930 . S
H1143 C1156 0.930 . S
H1144 C1160 0.959 . S
H1145 C1160 0.959 . S
H1146 C1160 0.961 . S
H1147 C1161 0.960 . S
H1148 C1161 0.961 . S
H1149 C1161 0.959 . S
H1150 C1164 0.929 . S
H1151 C1165 0.931 . S
H1152 C1167 0.930 . S
C1153 H1141 0.930 . S
C1153 C1154 1.399 . S
C1153 C1158 1.399 . S
C1154 C1153 1.399 . S
C1154 C1155 1.376 . S
C1155 H1142 0.930 . S
C1155 C1154 1.376 . S
C1155 C1156 1.388 . S
C1156 H1143 0.930 . S
C1156 C1155 1.388 . S
C1156 C1157 1.390 . S
C1157 C1156 1.390 . S
C1157 C1158 1.394 . S
C1157 C1163 1.465 . S
C1158 C1153 1.399 . S
C1158 C1157 1.394 . S
C1158 C1159 1.516 . S
C1159 C1158 1.516 . S
C1159 C1160 1.502 . S
C1159 C1161 1.561 . S
C1159 C1162 1.526 . S
C1160 H1144 0.959 . S
C1160 H1145 0.959 . S
C1160 H1146 0.961 . S
C1160 C1159 1.502 . S
C1161 H1147 0.960 . S
C1161 H1148 0.961 . S
C1161 H1149 0.959 . S
C1161 C1159 1.561 . S
C1162 C1159 1.526 . S
C1162 C1163 1.396 . S
C1162 C1167 1.390 . S
C1163 C1157 1.465 . S
C1163 C1162 1.396 . S
C1163 C1164 1.399 . S
C1164 H1150 0.929 . S
C1164 C1163 1.399 . S
C1164 C1165 1.385 . S
C1165 H1151 0.931 . S
C1165 C1164 1.385 . S
C1165 C1166 1.389 . S
C1166 C1165 1.389 . S
C1166 C1167 1.387 . S
C1167 H1152 0.930 . S
C1167 C1162 1.390 . S
C1167 C1166 1.387 . S
H1168 C1180 0.930 . S
H1169 C1182 0.930 . S
H1170 C1183 0.930 . S
H1171 C1187 0.959 . S
H1172 C1187 0.959 . S
H1173 C1187 0.961 . S
H1174 C1188 0.960 . S
H1175 C1188 0.961 . S
H1176 C1188 0.959 . S
H1177 C1191 0.929 . S
H1178 C1192 0.931 . S
H1179 C1194 0.930 . S
C1180 H1168 0.930 . S
C1180 C1181 1.399 . S
C1180 C1185 1.399 . S
C1181 C1180 1.399 . S
C1181 C1182 1.376 . S
C1182 H1169 0.930 . S
C1182 C1181 1.376 . S
C1182 C1183 1.388 . S
C1183 H1170 0.930 . S
C1183 C1182 1.388 . S
C1183 C1184 1.390 . S
C1184 C1183 1.390 . S
C1184 C1185 1.394 . S
C1184 C1190 1.465 . S
C1185 C1180 1.399 . S
C1185 C1184 1.394 . S
C1185 C1186 1.516 . S
C1186 C1185 1.516 . S
C1186 C1187 1.502 . S
C1186 C1188 1.561 . S
C1186 C1189 1.526 . S
C1187 H1171 0.959 . S
C1187 H1172 0.959 . S
C1187 H1173 0.961 . S
C1187 C1186 1.502 . S
C1188 H1174 0.960 . S
C1188 H1175 0.961 . S
C1188 H1176 0.959 . S
C1188 C1186 1.561 . S
C1189 C1186 1.526 . S
C1189 C1190 1.396 . S
C1189 C1194 1.390 . S
C1190 C1184 1.465 . S
C1190 C1189 1.396 . S
C1190 C1191 1.399 . S
C1191 H1177 0.929 . S
C1191 C1190 1.399 . S
C1191 C1192 1.385 . S
C1192 H1178 0.931 . S
C1192 C1191 1.385 . S
C1192 C1193 1.389 . S
C1193 C1192 1.389 . S
C1193 C1194 1.387 . S
C1194 H1179 0.930 . S
C1194 C1189 1.390 . S
C1194 C1193 1.387 . S
H1195 C1207 0.930 . S
H1196 C1209 0.930 . S
H1197 C1210 0.930 . S
H1198 C1214 0.959 . S
H1199 C1214 0.959 . S
H1200 C1214 0.961 . S
H1201 C1215 0.960 . S
H1202 C1215 0.961 . S
H1203 C1215 0.959 . S
H1204 C1218 0.929 . S
H1205 C1219 0.931 . S
H1206 C1221 0.930 . S
C1207 H1195 0.930 . S
C1207 C1208 1.399 . S
C1207 C1212 1.399 . S
C1208 C1207 1.399 . S
C1208 C1209 1.376 . S
C1209 H1196 0.930 . S
C1209 C1208 1.376 . S
C1209 C1210 1.388 . S
C1210 H1197 0.930 . S
C1210 C1209 1.388 . S
C1210 C1211 1.390 . S
C1211 C1210 1.390 . S
C1211 C1212 1.394 . S
C1211 C1217 1.465 . S
C1212 C1207 1.399 . S
C1212 C1211 1.394 . S
C1212 C1213 1.516 . S
C1213 C1212 1.516 . S
C1213 C1214 1.502 . S
C1213 C1215 1.561 . S
C1213 C1216 1.526 . S
C1214 H1198 0.959 . S
C1214 H1199 0.959 . S
C1214 H1200 0.961 . S
C1214 C1213 1.502 . S
C1215 H1201 0.960 . S
C1215 H1202 0.961 . S
C1215 H1203 0.959 . S
C1215 C1213 1.561 . S
C1216 C1213 1.526 . S
C1216 C1217 1.396 . S
C1216 C1221 1.390 . S
C1217 C1211 1.465 . S
C1217 C1216 1.396 . S
C1217 C1218 1.399 . S
C1218 H1204 0.929 . S
C1218 C1217 1.399 . S
C1218 C1219 1.385 . S
C1219 H1205 0.931 . S
C1219 C1218 1.385 . S
C1219 C1220 1.389 . S
C1220 C1219 1.389 . S
C1220 C1221 1.387 . S
C1221 H1206 0.930 . S
C1221 C1216 1.390 . S
C1221 C1220 1.387 . S
H1222 C1234 0.930 . S
H1223 C1236 0.930 . S
H1224 C1237 0.930 . S
H1225 C1241 0.959 . S
H1226 C1241 0.959 . S
H1227 C1241 0.961 . S
H1228 C1242 0.960 . S
H1229 C1242 0.961 . S
H1230 C1242 0.959 . S
H1231 C1245 0.929 . S
H1232 C1246 0.931 . S
H1233 C1248 0.930 . S
C1234 H1222 0.930 . S
C1234 C1235 1.399 . S
C1234 C1239 1.399 . S
C1235 C1234 1.399 . S
C1235 C1236 1.376 . S
C1236 H1223 0.930 . S
C1236 C1235 1.376 . S
C1236 C1237 1.388 . S
C1237 H1224 0.930 . S
C1237 C1236 1.388 . S
C1237 C1238 1.390 . S
C1238 C1237 1.390 . S
C1238 C1239 1.394 . S
C1238 C1244 1.465 . S
C1239 C1234 1.399 . S
C1239 C1238 1.394 . S
C1239 C1240 1.516 . S
C1240 C1239 1.516 . S
C1240 C1241 1.502 . S
C1240 C1242 1.561 . S
C1240 C1243 1.526 . S
C1241 H1225 0.959 . S
C1241 H1226 0.959 . S
C1241 H1227 0.961 . S
C1241 C1240 1.502 . S
C1242 H1228 0.960 . S
C1242 H1229 0.961 . S
C1242 H1230 0.959 . S
C1242 C1240 1.561 . S
C1243 C1240 1.526 . S
C1243 C1244 1.396 . S
C1243 C1248 1.390 . S
C1244 C1238 1.465 . S
C1244 C1243 1.396 . S
C1244 C1245 1.399 . S
C1245 H1231 0.929 . S
C1245 C1244 1.399 . S
C1245 C1246 1.385 . S
C1246 H1232 0.931 . S
C1246 C1245 1.385 . S
C1246 C1247 1.389 . S
C1247 C1246 1.389 . S
C1247 C1248 1.387 . S
C1248 H1233 0.930 . S
C1248 C1243 1.390 . S
C1248 C1247 1.387 . S
H1249 C1261 0.930 . S
H1250 C1263 0.930 . S
H1251 C1264 0.930 . S
H1252 C1268 0.959 . S
H1253 C1268 0.959 . S
H1254 C1268 0.961 . S
H1255 C1269 0.960 . S
H1256 C1269 0.961 . S
H1257 C1269 0.959 . S
H1258 C1272 0.929 . S
H1259 C1273 0.931 . S
H1260 C1275 0.930 . S
C1261 H1249 0.930 . S
C1261 C1262 1.399 . S
C1261 C1266 1.399 . S
C1262 C1261 1.399 . S
C1262 C1263 1.376 . S
C1263 H1250 0.930 . S
C1263 C1262 1.376 . S
C1263 C1264 1.388 . S
C1264 H1251 0.930 . S
C1264 C1263 1.388 . S
C1264 C1265 1.390 . S
C1265 C1264 1.390 . S
C1265 C1266 1.394 . S
C1265 C1271 1.465 . S
C1266 C1261 1.399 . S
C1266 C1265 1.394 . S
C1266 C1267 1.516 . S
C1267 C1266 1.516 . S
C1267 C1268 1.502 . S
C1267 C1269 1.561 . S
C1267 C1270 1.526 . S
C1268 H1252 0.959 . S
C1268 H1253 0.959 . S
C1268 H1254 0.961 . S
C1268 C1267 1.502 . S
C1269 H1255 0.960 . S
C1269 H1256 0.961 . S
C1269 H1257 0.959 . S
C1269 C1267 1.561 . S
C1270 C1267 1.526 . S
C1270 C1271 1.396 . S
C1270 C1275 1.390 . S
C1271 C1265 1.465 . S
C1271 C1270 1.396 . S
C1271 C1272 1.399 . S
C1272 H1258 0.929 . S
C1272 C1271 1.399 . S
C1272 C1273 1.385 . S
C1273 H1259 0.931 . S
C1273 C1272 1.385 . S
C1273 C1274 1.389 . S
C1274 C1273 1.389 . S
C1274 C1275 1.387 . S
C1275 H1260 0.930 . S
C1275 C1270 1.390 . S
C1275 C1274 1.387 . S
H1276 C1288 0.930 . S
H1277 C1290 0.930 . S
H1278 C1291 0.930 . S
H1279 C1295 0.959 . S
H1280 C1295 0.959 . S
H1281 C1295 0.961 . S
H1282 C1296 0.960 . S
H1283 C1296 0.961 . S
H1284 C1296 0.959 . S
H1285 C1299 0.929 . S
H1286 C1300 0.931 . S
H1287 C1302 0.930 . S
C1288 H1276 0.930 . S
C1288 C1289 1.399 . S
C1288 C1293 1.399 . S
C1289 C1288 1.399 . S
C1289 C1290 1.376 . S
C1290 H1277 0.930 . S
C1290 C1289 1.376 . S
C1290 C1291 1.388 . S
C1291 H1278 0.930 . S
C1291 C1290 1.388 . S
C1291 C1292 1.390 . S
C1292 C1291 1.390 . S
C1292 C1293 1.394 . S
C1292 C1298 1.465 . S
C1293 C1288 1.399 . S
C1293 C1292 1.394 . S
C1293 C1294 1.516 . S
C1294 C1293 1.516 . S
C1294 C1295 1.502 . S
C1294 C1296 1.561 . S
C1294 C1297 1.526 . S
C1295 H1279 0.959 . S
C1295 H1280 0.959 . S
C1295 H1281 0.961 . S
C1295 C1294 1.502 . S
C1296 H1282 0.960 . S
C1296 H1283 0.961 . S
C1296 H1284 0.959 . S
C1296 C1294 1.561 . S
C1297 C1294 1.526 . S
C1297 C1298 1.396 . S
C1297 C1302 1.390 . S
C1298 C1292 1.465 . S
C1298 C1297 1.396 . S
C1298 C1299 1.399 . S
C1299 H1285 0.929 . S
C1299 C1298 1.399 . S
C1299 C1300 1.385 . S
C1300 H1286 0.931 . S
C1300 C1299 1.385 . S
C1300 C1301 1.389 . S
C1301 C1300 1.389 . S
C1301 C1302 1.387 . S
C1302 H1287 0.930 . S
C1302 C1297 1.390 . S
C1302 C1301 1.387 . S
H1303 C1315 0.930 . S
H1304 C1317 0.930 . S
H1305 C1318 0.930 . S
H1306 C1322 0.959 . S
H1307 C1322 0.959 . S
H1308 C1322 0.961 . S
H1309 C1323 0.960 . S
H1310 C1323 0.961 . S
H1311 C1323 0.959 . S
H1312 C1326 0.929 . S
H1313 C1327 0.931 . S
H1314 C1329 0.930 . S
C1315 H1303 0.930 . S
C1315 C1316 1.399 . S
C1315 C1320 1.399 . S
C1316 C1315 1.399 . S
C1316 C1317 1.376 . S
C1317 H1304 0.930 . S
C1317 C1316 1.376 . S
C1317 C1318 1.388 . S
C1318 H1305 0.930 . S
C1318 C1317 1.388 . S
C1318 C1319 1.390 . S
C1319 C1318 1.390 . S
C1319 C1320 1.394 . S
C1319 C1325 1.465 . S
C1320 C1315 1.399 . S
C1320 C1319 1.394 . S
C1320 C1321 1.516 . S
C1321 C1320 1.516 . S
C1321 C1322 1.502 . S
C1321 C1323 1.561 . S
C1321 C1324 1.526 . S
C1322 H1306 0.959 . S
C1322 H1307 0.959 . S
C1322 H1308 0.961 . S
C1322 C1321 1.502 . S
C1323 H1309 0.960 . S
C1323 H1310 0.961 . S
C1323 H1311 0.959 . S
C1323 C1321 1.561 . S
C1324 C1321 1.526 . S
C1324 C1325 1.396 . S
C1324 C1329 1.390 . S
C1325 C1319 1.465 . S
C1325 C1324 1.396 . S
C1325 C1326 1.399 . S
C1326 H1312 0.929 . S
C1326 C1325 1.399 . S
C1326 C1327 1.385 . S
C1327 H1313 0.931 . S
C1327 C1326 1.385 . S
C1327 C1328 1.389 . S
C1328 C1327 1.389 . S
C1328 C1329 1.387 . S
C1329 H1314 0.930 . S
C1329 C1324 1.390 . S
C1329 C1328 1.387 . S
H1330 C1342 0.930 . S
H1331 C1344 0.930 . S
H1332 C1345 0.930 . S
H1333 C1349 0.959 . S
H1334 C1349 0.959 . S
H1335 C1349 0.961 . S
H1336 C1350 0.960 . S
H1337 C1350 0.961 . S
H1338 C1350 0.959 . S
H1339 C1353 0.929 . S
H1340 C1354 0.931 . S
H1341 C1356 0.930 . S
C1342 H1330 0.930 . S
C1342 C1343 1.399 . S
C1342 C1347 1.399 . S
C1343 C1342 1.399 . S
C1343 C1344 1.376 . S
C1344 H1331 0.930 . S
C1344 C1343 1.376 . S
C1344 C1345 1.388 . S
C1345 H1332 0.930 . S
C1345 C1344 1.388 . S
C1345 C1346 1.390 . S
C1346 C1345 1.390 . S
C1346 C1347 1.394 . S
C1346 C1352 1.465 . S
C1347 C1342 1.399 . S
C1347 C1346 1.394 . S
C1347 C1348 1.516 . S
C1348 C1347 1.516 . S
C1348 C1349 1.502 . S
C1348 C1350 1.561 . S
C1348 C1351 1.526 . S
C1349 H1333 0.959 . S
C1349 H1334 0.959 . S
C1349 H1335 0.961 . S
C1349 C1348 1.502 . S
C1350 H1336 0.960 . S
C1350 H1337 0.961 . S
C1350 H1338 0.959 . S
C1350 C1348 1.561 . S
C1351 C1348 1.526 . S
C1351 C1352 1.396 . S
C1351 C1356 1.390 . S
C1352 C1346 1.465 . S
C1352 C1351 1.396 . S
C1352 C1353 1.399 . S
C1353 H1339 0.929 . S
C1353 C1352 1.399 . S
C1353 C1354 1.385 . S
C1354 H1340 0.931 . S
C1354 C1353 1.385 . S
C1354 C1355 1.389 . S
C1355 C1354 1.389 . S
C1355 C1356 1.387 . S
C1356 H1341 0.930 . S
C1356 C1351 1.390 . S
C1356 C1355 1.387 . S
H1357 C1369 0.930 . S
H1358 C1371 0.930 . S
H1359 C1372 0.930 . S
H1360 C1376 0.959 . S
H1361 C1376 0.959 . S
H1362 C1376 0.961 . S
H1363 C1377 0.960 . S
H1364 C1377 0.961 . S
H1365 C1377 0.959 . S
H1366 C1380 0.929 . S
H1367 C1381 0.931 . S
H1368 C1383 0.930 . S
C1369 H1357 0.930 . S
C1369 C1370 1.399 . S
C1369 C1374 1.399 . S
C1370 C1369 1.399 . S
C1370 C1371 1.376 . S
C1371 H1358 0.930 . S
C1371 C1370 1.376 . S
C1371 C1372 1.388 . S
C1372 H1359 0.930 . S
C1372 C1371 1.388 . S
C1372 C1373 1.390 . S
C1373 C1372 1.390 . S
C1373 C1374 1.394 . S
C1373 C1379 1.465 . S
C1374 C1369 1.399 . S
C1374 C1373 1.394 . S
C1374 C1375 1.516 . S
C1375 C1374 1.516 . S
C1375 C1376 1.502 . S
C1375 C1377 1.561 . S
C1375 C1378 1.526 . S
C1376 H1360 0.959 . S
C1376 H1361 0.959 . S
C1376 H1362 0.961 . S
C1376 C1375 1.502 . S
C1377 H1363 0.960 . S
C1377 H1364 0.961 . S
C1377 H1365 0.959 . S
C1377 C1375 1.561 . S
C1378 C1375 1.526 . S
C1378 C1379 1.396 . S
C1378 C1383 1.390 . S
C1379 C1373 1.465 . S
C1379 C1378 1.396 . S
C1379 C1380 1.399 . S
C1380 H1366 0.929 . S
C1380 C1379 1.399 . S
C1380 C1381 1.385 . S
C1381 H1367 0.931 . S
C1381 C1380 1.385 . S
C1381 C1382 1.389 . S
C1382 C1381 1.389 . S
C1382 C1383 1.387 . S
C1383 H1368 0.930 . S
C1383 C1378 1.390 . S
C1383 C1382 1.387 . S
H1384 C1396 0.930 . S
H1385 C1398 0.930 . S
H1386 C1399 0.930 . S
H1387 C1403 0.959 . S
H1388 C1403 0.959 . S
H1389 C1403 0.961 . S
H1390 C1404 0.960 . S
H1391 C1404 0.961 . S
H1392 C1404 0.959 . S
H1393 C1407 0.929 . S
H1394 C1408 0.931 . S
H1395 C1410 0.930 . S
C1396 H1384 0.930 . S
C1396 C1397 1.399 . S
C1396 C1401 1.399 . S
C1397 C1396 1.399 . S
C1397 C1398 1.376 . S
C1398 H1385 0.930 . S
C1398 C1397 1.376 . S
C1398 C1399 1.388 . S
C1399 H1386 0.930 . S
C1399 C1398 1.388 . S
C1399 C1400 1.390 . S
C1400 C1399 1.390 . S
C1400 C1401 1.394 . S
C1400 C1406 1.465 . S
C1401 C1396 1.399 . S
C1401 C1400 1.394 . S
C1401 C1402 1.516 . S
C1402 C1401 1.516 . S
C1402 C1403 1.502 . S
C1402 C1404 1.561 . S
C1402 C1405 1.526 . S
C1403 H1387 0.959 . S
C1403 H1388 0.959 . S
C1403 H1389 0.961 . S
C1403 C1402 1.502 . S
C1404 H1390 0.960 . S
C1404 H1391 0.961 . S
C1404 H1392 0.959 . S
C1404 C1402 1.561 . S
C1405 C1402 1.526 . S
C1405 C1406 1.396 . S
C1405 C1410 1.390 . S
C1406 C1400 1.465 . S
C1406 C1405 1.396 . S
C1406 C1407 1.399 . S
C1407 H1393 0.929 . S
C1407 C1406 1.399 . S
C1407 C1408 1.385 . S
C1408 H1394 0.931 . S
C1408 C1407 1.385 . S
C1408 C1409 1.389 . S
C1409 C1408 1.389 . S
C1409 C1410 1.387 . S
C1410 H1395 0.930 . S
C1410 C1405 1.390 . S
C1410 C1409 1.387 . S
H1411 C1423 0.930 . S
H1412 C1425 0.930 . S
H1413 C1426 0.930 . S
H1414 C1430 0.959 . S
H1415 C1430 0.959 . S
H1416 C1430 0.961 . S
H1417 C1431 0.960 . S
H1418 C1431 0.961 . S
H1419 C1431 0.959 . S
H1420 C1434 0.929 . S
H1421 C1435 0.931 . S
H1422 C1437 0.930 . S
C1423 H1411 0.930 . S
C1423 C1424 1.399 . S
C1423 C1428 1.399 . S
C1424 C1423 1.399 . S
C1424 C1425 1.376 . S
C1425 H1412 0.930 . S
C1425 C1424 1.376 . S
C1425 C1426 1.388 . S
C1426 H1413 0.930 . S
C1426 C1425 1.388 . S
C1426 C1427 1.390 . S
C1427 C1426 1.390 . S
C1427 C1428 1.394 . S
C1427 C1433 1.465 . S
C1428 C1423 1.399 . S
C1428 C1427 1.394 . S
C1428 C1429 1.516 . S
C1429 C1428 1.516 . S
C1429 C1430 1.502 . S
C1429 C1431 1.561 . S
C1429 C1432 1.526 . S
C1430 H1414 0.959 . S
C1430 H1415 0.959 . S
C1430 H1416 0.961 . S
C1430 C1429 1.502 . S
C1431 H1417 0.960 . S
C1431 H1418 0.961 . S
C1431 H1419 0.959 . S
C1431 C1429 1.561 . S
C1432 C1429 1.526 . S
C1432 C1433 1.396 . S
C1432 C1437 1.390 . S
C1433 C1427 1.465 . S
C1433 C1432 1.396 . S
C1433 C1434 1.399 . S
C1434 H1420 0.929 . S
C1434 C1433 1.399 . S
C1434 C1435 1.385 . S
C1435 H1421 0.931 . S
C1435 C1434 1.385 . S
C1435 C1436 1.389 . S
C1436 C1435 1.389 . S
C1436 C1437 1.387 . S
C1437 H1422 0.930 . S
C1437 C1432 1.390 . S
C1437 C1436 1.387 . S
H1438 C1450 0.930 . S
H1439 C1452 0.930 . S
H1440 C1453 0.930 . S
H1441 C1457 0.959 . S
H1442 C1457 0.959 . S
H1443 C1457 0.961 . S
H1444 C1458 0.960 . S
H1445 C1458 0.961 . S
H1446 C1458 0.959 . S
H1447 C1461 0.929 . S
H1448 C1462 0.931 . S
H1449 C1464 0.930 . S
C1450 H1438 0.930 . S
C1450 C1451 1.399 . S
C1450 C1455 1.399 . S
C1451 C1450 1.399 . S
C1451 C1452 1.376 . S
C1452 H1439 0.930 . S
C1452 C1451 1.376 . S
C1452 C1453 1.388 . S
C1453 H1440 0.930 . S
C1453 C1452 1.388 . S
C1453 C1454 1.390 . S
C1454 C1453 1.390 . S
C1454 C1455 1.394 . S
C1454 C1460 1.465 . S
C1455 C1450 1.399 . S
C1455 C1454 1.394 . S
C1455 C1456 1.516 . S
C1456 C1455 1.516 . S
C1456 C1457 1.502 . S
C1456 C1458 1.561 . S
C1456 C1459 1.526 . S
C1457 H1441 0.959 . S
C1457 H1442 0.959 . S
C1457 H1443 0.961 . S
C1457 C1456 1.502 . S
C1458 H1444 0.960 . S
C1458 H1445 0.961 . S
C1458 H1446 0.959 . S
C1458 C1456 1.561 . S
C1459 C1456 1.526 . S
C1459 C1460 1.396 . S
C1459 C1464 1.390 . S
C1460 C1454 1.465 . S
C1460 C1459 1.396 . S
C1460 C1461 1.399 . S
C1461 H1447 0.929 . S
C1461 C1460 1.399 . S
C1461 C1462 1.385 . S
C1462 H1448 0.931 . S
C1462 C1461 1.385 . S
C1462 C1463 1.389 . S
C1463 C1462 1.389 . S
C1463 C1464 1.387 . S
C1464 H1449 0.930 . S
C1464 C1459 1.390 . S
C1464 C1463 1.387 . S
H1465 C1477 0.930 . S
H1466 C1479 0.930 . S
H1467 C1480 0.930 . S
H1468 C1484 0.959 . S
H1469 C1484 0.959 . S
H1470 C1484 0.961 . S
H1471 C1485 0.960 . S
H1472 C1485 0.961 . S
H1473 C1485 0.959 . S
H1474 C1488 0.929 . S
H1475 C1489 0.931 . S
H1476 C1491 0.930 . S
C1477 H1465 0.930 . S
C1477 C1478 1.399 . S
C1477 C1482 1.399 . S
C1478 C1477 1.399 . S
C1478 C1479 1.376 . S
C1479 H1466 0.930 . S
C1479 C1478 1.376 . S
C1479 C1480 1.388 . S
C1480 H1467 0.930 . S
C1480 C1479 1.388 . S
C1480 C1481 1.390 . S
C1481 C1480 1.390 . S
C1481 C1482 1.394 . S
C1481 C1487 1.465 . S
C1482 C1477 1.399 . S
C1482 C1481 1.394 . S
C1482 C1483 1.516 . S
C1483 C1482 1.516 . S
C1483 C1484 1.502 . S
C1483 C1485 1.561 . S
C1483 C1486 1.526 . S
C1484 H1468 0.959 . S
C1484 H1469 0.959 . S
C1484 H1470 0.961 . S
C1484 C1483 1.502 . S
C1485 H1471 0.960 . S
C1485 H1472 0.961 . S
C1485 H1473 0.959 . S
C1485 C1483 1.561 . S
C1486 C1483 1.526 . S
C1486 C1487 1.396 . S
C1486 C1491 1.390 . S
C1487 C1481 1.465 . S
C1487 C1486 1.396 . S
C1487 C1488 1.399 . S
C1488 H1474 0.929 . S
C1488 C1487 1.399 . S
C1488 C1489 1.385 . S
C1489 H1475 0.931 . S
C1489 C1488 1.385 . S
C1489 C1490 1.389 . S
C1490 C1489 1.389 . S
C1490 C1491 1.387 . S
C1491 H1476 0.930 . S
C1491 C1486 1.390 . S
C1491 C1490 1.387 . S
H1492 C1504 0.930 . S
H1493 C1506 0.930 . S
H1494 C1507 0.930 . S
H1495 C1511 0.959 . S
H1496 C1511 0.959 . S
H1497 C1511 0.961 . S
H1498 C1512 0.960 . S
H1499 C1512 0.961 . S
H1500 C1512 0.959 . S
H1501 C1515 0.929 . S
H1502 C1516 0.931 . S
H1503 C1518 0.930 . S
C1504 H1492 0.930 . S
C1504 C1505 1.399 . S
C1504 C1509 1.399 . S
C1505 C1504 1.399 . S
C1505 C1506 1.376 . S
C1506 H1493 0.930 . S
C1506 C1505 1.376 . S
C1506 C1507 1.388 . S
C1507 H1494 0.930 . S
C1507 C1506 1.388 . S
C1507 C1508 1.390 . S
C1508 C1507 1.390 . S
C1508 C1509 1.394 . S
C1508 C1514 1.465 . S
C1509 C1504 1.399 . S
C1509 C1508 1.394 . S
C1509 C1510 1.516 . S
C1510 C1509 1.516 . S
C1510 C1511 1.502 . S
C1510 C1512 1.561 . S
C1510 C1513 1.526 . S
C1511 H1495 0.959 . S
C1511 H1496 0.959 . S
C1511 H1497 0.961 . S
C1511 C1510 1.502 . S
C1512 H1498 0.960 . S
C1512 H1499 0.961 . S
C1512 H1500 0.959 . S
C1512 C1510 1.561 . S
C1513 C1510 1.526 . S
C1513 C1514 1.396 . S
C1513 C1518 1.390 . S
C1514 C1508 1.465 . S
C1514 C1513 1.396 . S
C1514 C1515 1.399 . S
C1515 H1501 0.929 . S
C1515 C1514 1.399 . S
C1515 C1516 1.385 . S
C1516 H1502 0.931 . S
C1516 C1515 1.385 . S
C1516 C1517 1.389 . S
C1517 C1516 1.389 . S
C1517 C1518 1.387 . S
C1518 H1503 0.930 . S
C1518 C1513 1.390 . S
C1518 C1517 1.387 . S
H1519 C1531 0.930 . S
H1520 C1533 0.930 . S
H1521 C1534 0.930 . S
H1522 C1538 0.959 . S
H1523 C1538 0.959 . S
H1524 C1538 0.961 . S
H1525 C1539 0.960 . S
H1526 C1539 0.961 . S
H1527 C1539 0.959 . S
H1528 C1542 0.929 . S
H1529 C1543 0.931 . S
H1530 C1545 0.930 . S
C1531 H1519 0.930 . S
C1531 C1532 1.399 . S
C1531 C1536 1.399 . S
C1532 C1531 1.399 . S
C1532 C1533 1.376 . S
C1533 H1520 0.930 . S
C1533 C1532 1.376 . S
C1533 C1534 1.388 . S
C1534 H1521 0.930 . S
C1534 C1533 1.388 . S
C1534 C1535 1.390 . S
C1535 C1534 1.390 . S
C1535 C1536 1.394 . S
C1535 C1541 1.465 . S
C1536 C1531 1.399 . S
C1536 C1535 1.394 . S
C1536 C1537 1.516 . S
C1537 C1536 1.516 . S
C1537 C1538 1.502 . S
C1537 C1539 1.561 . S
C1537 C1540 1.526 . S
C1538 H1522 0.959 . S
C1538 H1523 0.959 . S
C1538 H1524 0.961 . S
C1538 C1537 1.502 . S
C1539 H1525 0.960 . S
C1539 H1526 0.961 . S
C1539 H1527 0.959 . S
C1539 C1537 1.561 . S
C1540 C1537 1.526 . S
C1540 C1541 1.396 . S
C1540 C1545 1.390 . S
C1541 C1535 1.465 . S
C1541 C1540 1.396 . S
C1541 C1542 1.399 . S
C1542 H1528 0.929 . S
C1542 C1541 1.399 . S
C1542 C1543 1.385 . S
C1543 H1529 0.931 . S
C1543 C1542 1.385 . S
C1543 C1544 1.389 . S
C1544 C1543 1.389 . S
C1544 C1545 1.387 . S
C1545 H1530 0.930 . S
C1545 C1540 1.390 . S
C1545 C1544 1.387 . S
H1546 C1558 0.930 . S
H1547 C1560 0.930 . S
H1548 C1561 0.930 . S
H1549 C1565 0.959 . S
H1550 C1565 0.959 . S
H1551 C1565 0.961 . S
H1552 C1566 0.960 . S
H1553 C1566 0.961 . S
H1554 C1566 0.959 . S
H1555 C1569 0.929 . S
H1556 C1570 0.931 . S
H1557 C1572 0.930 . S
C1558 H1546 0.930 . S
C1558 C1559 1.399 . S
C1558 C1563 1.399 . S
C1559 C1558 1.399 . S
C1559 C1560 1.376 . S
C1560 H1547 0.930 . S
C1560 C1559 1.376 . S
C1560 C1561 1.388 . S
C1561 H1548 0.930 . S
C1561 C1560 1.388 . S
C1561 C1562 1.390 . S
C1562 C1561 1.390 . S
C1562 C1563 1.394 . S
C1562 C1568 1.465 . S
C1563 C1558 1.399 . S
C1563 C1562 1.394 . S
C1563 C1564 1.516 . S
C1564 C1563 1.516 . S
C1564 C1565 1.502 . S
C1564 C1566 1.561 . S
C1564 C1567 1.526 . S
C1565 H1549 0.959 . S
C1565 H1550 0.959 . S
C1565 H1551 0.961 . S
C1565 C1564 1.502 . S
C1566 H1552 0.960 . S
C1566 H1553 0.961 . S
C1566 H1554 0.959 . S
C1566 C1564 1.561 . S
C1567 C1564 1.526 . S
C1567 C1568 1.396 . S
C1567 C1572 1.390 . S
C1568 C1562 1.465 . S
C1568 C1567 1.396 . S
C1568 C1569 1.399 . S
C1569 H1555 0.929 . S
C1569 C1568 1.399 . S
C1569 C1570 1.385 . S
C1570 H1556 0.931 . S
C1570 C1569 1.385 . S
C1570 C1571 1.389 . S
C1571 C1570 1.389 . S
C1571 C1572 1.387 . S
C1572 H1557 0.930 . S
C1572 C1567 1.390 . S
C1572 C1571 1.387 . S
H1573 C1585 0.930 . S
H1574 C1587 0.930 . S
H1575 C1588 0.930 . S
H1576 C1592 0.959 . S
H1577 C1592 0.959 . S
H1578 C1592 0.961 . S
H1579 C1593 0.960 . S
H1580 C1593 0.961 . S
H1581 C1593 0.959 . S
H1582 C1596 0.929 . S
H1583 C1597 0.931 . S
H1584 C1599 0.930 . S
C1585 H1573 0.930 . S
C1585 C1586 1.399 . S
C1585 C1590 1.399 . S
C1586 C1585 1.399 . S
C1586 C1587 1.376 . S
C1587 H1574 0.930 . S
C1587 C1586 1.376 . S
C1587 C1588 1.388 . S
C1588 H1575 0.930 . S
C1588 C1587 1.388 . S
C1588 C1589 1.390 . S
C1589 C1588 1.390 . S
C1589 C1590 1.394 . S
C1589 C1595 1.465 . S
C1590 C1585 1.399 . S
C1590 C1589 1.394 . S
C1590 C1591 1.516 . S
C1591 C1590 1.516 . S
C1591 C1592 1.502 . S
C1591 C1593 1.561 . S
C1591 C1594 1.526 . S
C1592 H1576 0.959 . S
C1592 H1577 0.959 . S
C1592 H1578 0.961 . S
C1592 C1591 1.502 . S
C1593 H1579 0.960 . S
C1593 H1580 0.961 . S
C1593 H1581 0.959 . S
C1593 C1591 1.561 . S
C1594 C1591 1.526 . S
C1594 C1595 1.396 . S
C1594 C1599 1.390 . S
C1595 C1589 1.465 . S
C1595 C1594 1.396 . S
C1595 C1596 1.399 . S
C1596 H1582 0.929 . S
C1596 C1595 1.399 . S
C1596 C1597 1.385 . S
C1597 H1583 0.931 . S
C1597 C1596 1.385 . S
C1597 C1598 1.389 . S
C1598 C1597 1.389 . S
C1598 C1599 1.387 . S
C1599 H1584 0.930 . S
C1599 C1594 1.390 . S
C1599 C1598 1.387 . S
H1600 C1612 0.930 . S
H1601 C1614 0.930 . S
H1602 C1615 0.930 . S
H1603 C1619 0.959 . S
H1604 C1619 0.959 . S
H1605 C1619 0.961 . S
H1606 C1620 0.960 . S
H1607 C1620 0.961 . S
H1608 C1620 0.959 . S
H1609 C1623 0.929 . S
H1610 C1624 0.931 . S
H1611 C1626 0.930 . S
C1612 H1600 0.930 . S
C1612 C1613 1.399 . S
C1612 C1617 1.399 . S
C1613 C1612 1.399 . S
C1613 C1614 1.376 . S
C1614 H1601 0.930 . S
C1614 C1613 1.376 . S
C1614 C1615 1.388 . S
C1615 H1602 0.930 . S
C1615 C1614 1.388 . S
C1615 C1616 1.390 . S
C1616 C1615 1.390 . S
C1616 C1617 1.394 . S
C1616 C1622 1.465 . S
C1617 C1612 1.399 . S
C1617 C1616 1.394 . S
C1617 C1618 1.516 . S
C1618 C1617 1.516 . S
C1618 C1619 1.502 . S
C1618 C1620 1.561 . S
C1618 C1621 1.526 . S
C1619 H1603 0.959 . S
C1619 H1604 0.959 . S
C1619 H1605 0.961 . S
C1619 C1618 1.502 . S
C1620 H1606 0.960 . S
C1620 H1607 0.961 . S
C1620 H1608 0.959 . S
C1620 C1618 1.561 . S
C1621 C1618 1.526 . S
C1621 C1622 1.396 . S
C1621 C1626 1.390 . S
C1622 C1616 1.465 . S
C1622 C1621 1.396 . S
C1622 C1623 1.399 . S
C1623 H1609 0.929 . S
C1623 C1622 1.399 . S
C1623 C1624 1.385 . S
C1624 H1610 0.931 . S
C1624 C1623 1.385 . S
C1624 C1625 1.389 . S
C1625 C1624 1.389 . S
C1625 C1626 1.387 . S
C1626 H1611 0.930 . S
C1626 C1621 1.390 . S
C1626 C1625 1.387 . S
H1627 C1639 0.930 . S
H1628 C1641 0.930 . S
H1629 C1642 0.930 . S
H1630 C1646 0.959 . S
H1631 C1646 0.959 . S
H1632 C1646 0.961 . S
H1633 C1647 0.960 . S
H1634 C1647 0.961 . S
H1635 C1647 0.959 . S
H1636 C1650 0.929 . S
H1637 C1651 0.931 . S
H1638 C1653 0.930 . S
C1639 H1627 0.930 . S
C1639 C1640 1.399 . S
C1639 C1644 1.399 . S
C1640 C1639 1.399 . S
C1640 C1641 1.376 . S
C1641 H1628 0.930 . S
C1641 C1640 1.376 . S
C1641 C1642 1.388 . S
C1642 H1629 0.930 . S
C1642 C1641 1.388 . S
C1642 C1643 1.390 . S
C1643 C1642 1.390 . S
C1643 C1644 1.394 . S
C1643 C1649 1.465 . S
C1644 C1639 1.399 . S
C1644 C1643 1.394 . S
C1644 C1645 1.516 . S
C1645 C1644 1.516 . S
C1645 C1646 1.502 . S
C1645 C1647 1.561 . S
C1645 C1648 1.526 . S
C1646 H1630 0.959 . S
C1646 H1631 0.959 . S
C1646 H1632 0.961 . S
C1646 C1645 1.502 . S
C1647 H1633 0.960 . S
C1647 H1634 0.961 . S
C1647 H1635 0.959 . S
C1647 C1645 1.561 . S
C1648 C1645 1.526 . S
C1648 C1649 1.396 . S
C1648 C1653 1.390 . S
C1649 C1643 1.465 . S
C1649 C1648 1.396 . S
C1649 C1650 1.399 . S
C1650 H1636 0.929 . S
C1650 C1649 1.399 . S
C1650 C1651 1.385 . S
C1651 H1637 0.931 . S
C1651 C1650 1.385 . S
C1651 C1652 1.389 . S
C1652 C1651 1.389 . S
C1652 C1653 1.387 . S
C1653 H1638 0.930 . S
C1653 C1648 1.390 . S
C1653 C1652 1.387 . S
C383 C187 1.333 . S
C371 C9 1.440 . S
C410 C188 1.540 . S
C398 C22 1.532 . S
C437 C182 1.042 . S
C425 C49 1.049 . S
C452 C61 1.039 . S
C464 C181 0.985 . S
C479 C81 1.522 . S
C491 C184 1.483 . S
C518 C186 1.099 . S
C506 C108 1.110 . S
C533 C122 0.985 . S
C545 C185 0.984 . S
C560 C148 1.456 . S
C572 C183 1.393 . S
C599 C218 2.223 . S
C587 C18 2.182 . S
C614 C39 1.509 . S
C626 C249 1.512 . S
C653 C217 2.094 . S
C641 C58 2.093 . S
C680 C252 1.046 . S
C668 C69 1.040 . S
C695 C89 1.263 . S
C707 C215 1.242 . S
C734 C247 1.316 . S
C722 C102 1.327 . S
C749 C139 1.292 . S
C761 C220 1.319 . S
C776 C142 1.254 . S
C788 C254 1.219 . S
C803 C1 1.271 . S
C815 C250 1.153 . S
C830 C98 1.453 . S
C842 C253 1.454 . S
C869 C221 2.082 . S
C857 C119 2.080 . S
C896 C248 0.964 . S
C884 C128 0.978 . S
C911 C159 2.185 . S
C923 C214 2.212 . S
C938 C41 1.343 . S
C950 C251 1.308 . S
C977 C216 1.223 . S
C965 C78 1.204 . S
C992 C28 1.233 . S
C1004 C219 1.282 . S
C1019 C149 1.452 . S
C1031 C286 1.377 . S
C1046 C82 1.215 . S
C1058 C287 1.117 . S
C1085 C281 1.132 . S
C1073 C109 1.153 . S
C1112 C280 1.382 . S
C1100 C121 1.383 . S
C1127 C21 1.242 . S
C1139 C283 1.184 . S
C1166 C285 1.062 . S
C1154 C48 1.090 . S
C1181 C62 1.416 . S
C1193 C284 1.394 . S
C1208 C8 1.418 . S
C1220 C282 1.287 . S
C1235 C158 2.303 . S
C1247 C320 2.238 . S
C1274 C352 1.227 . S
C1262 C99 1.261 . S
C1289 C118 1.997 . S
C1301 C313 2.011 . S
C1316 C129 1.302 . S
C1328 C347 1.305 . S
C1355 C318 1.021 . S
C1343 C29 0.999 . S
C1370 C42 1.491 . S
C1382 C349 1.495 . S
C1409 C315 1.512 . S
C1397 C79 1.495 . S
C1436 C350 1.258 . S
C1424 C2 1.233 . S
C1463 C346 1.250 . S
C1451 C141 1.227 . S
C1478 C38 1.301 . S
C1490 C348 1.316 . S
C1505 C59 1.995 . S
C1517 C317 2.024 . S
C1544 C351 1.313 . S
C1532 C68 1.266 . S
C1559 C19 2.331 . S
C1571 C316 2.237 . S
C1586 C101 1.525 . S
C1598 C353 1.417 . S
C1625 C319 1.571 . S
C1613 C138 1.546 . S
C1652 C314 1.013 . S
C1640 C88 0.978 . S
