# Generated by pormake.
# Topology pth, (4,4)-cn, num edge types: 1
# Building blocks:
#     Node 0, Type 0, BuildingBlock: NAHDIM_clean_sbu_0, # of connection points: 4
#     Node 1, Type 0, BuildingBlock: NAHDIM_clean_sbu_0, # of connection points: 4
#     Node 2, Type 0, BuildingBlock: NAHDIM_clean_sbu_0, # of connection points: 4
#     Node 3, Type 1, BuildingBlock: NAWXER_clean_sbu_0, # of connection points: 4
#     Node 4, Type 1, BuildingBlock: NAWXER_clean_sbu_0, # of connection points: 4
#     Node 5, Type 1, BuildingBlock: NAWXER_clean_sbu_0, # of connection points: 4
#     Edge 6, Type (0, 1), BuildingBlock: EZIPEK_clean_linker_0, # of connection points: 2
#     Edge 7, Type (0, 1), BuildingBlock: EZIPEK_clean_linker_0, # of connection points: 2
#     Edge 8, Type (0, 1), BuildingBlock: EZIPEK_clean_linker_0, # of connection points: 2
#     Edge 9, Type (0, 1), BuildingBlock: EZIPEK_clean_linker_0, # of connection points: 2
#     Edge 10, Type (0, 1), BuildingBlock: EZIPEK_clean_linker_0, # of connection points: 2
#     Edge 11, Type (0, 1), BuildingBlock: EZIPEK_clean_linker_0, # of connection points: 2
#     Edge 12, Type (0, 1), BuildingBlock: EZIPEK_clean_linker_0, # of connection points: 2
#     Edge 13, Type (0, 1), BuildingBlock: EZIPEK_clean_linker_0, # of connection points: 2
#     Edge 14, Type (0, 1), BuildingBlock: EZIPEK_clean_linker_0, # of connection points: 2
#     Edge 15, Type (0, 1), BuildingBlock: EZIPEK_clean_linker_0, # of connection points: 2
#     Edge 16, Type (0, 1), BuildingBlock: EZIPEK_clean_linker_0, # of connection points: 2
#     Edge 17, Type (0, 1), BuildingBlock: EZIPEK_clean_linker_0, # of connection points: 2
# Relax obj value: 0.052
# Max RMSD: 0.177
# Mean RMSD: 0.101
data_MOF--net-pth--node1-NAHDIM_clean_sbu_0--node2-NAWXER_clean_sbu_0--edge1-EZIPEK_clean_linker_0
_symmetry_space_group_name_H-M    P1
_symmetry_Int_Tables_number       1
_symmetry_cell_setting            triclinic
loop_
_symmetry_equiv_pos_as_xyz
'x, y, z'
_cell_length_a     16.704934
_cell_length_b     16.900299
_cell_length_c     41.715483
_cell_angle_alpha  92.298039
_cell_angle_beta   89.987597
_cell_angle_gamma 120.51216
loop_
_atom_site_label
_atom_site_type_symbol
_atom_site_fract_x
_atom_site_fract_y
_atom_site_fract_z
_atom_type_partial_charge
C0 C 0.06618 0.94576 0.11045 0.0
O1 O 0.98768 0.94033 0.11858 0.0
O2 O 0.03316 0.13634 0.10001 0.0
Zn3 Zn 0.06552 0.06951 0.06606 0.0
O4 O 0.94715 0.982 0.04112 0.0
C5 C 0.18875 0.1423 0.01088 0.0
O6 O 0.13863 0.05853 -0.00191 0.0
O7 O 0.11281 0.99652 0.08794 0.0
C8 C 0.92192 0.99567 0.01416 0.0
O9 O 0.97472 0.07383 0.00048 0.0
C10 C 0.03638 0.21139 0.09471 0.0
O11 O 0.06027 0.24604 0.06632 0.0
O12 O 0.1691 0.16086 0.03862 0.0
C13 C 0.0963 0.22583 0.34559 0.0
O14 O 0.06138 0.1504 0.32715 0.0
O15 O 0.01883 0.99648 0.36271 0.0
Zn16 Zn 0.05581 0.09948 0.39649 0.0
O17 O 0.94363 0.0748 0.42232 0.0
C18 C 0.24333 0.15626 0.42211 0.0
O19 O 0.27443 0.20501 0.39651 0.0
O20 O 0.10346 0.22139 0.37571 0.0
C21 C 0.89836 0.00447 0.43893 0.0
O22 O 0.92361 0.94266 0.43983 0.0
C23 C 0.01779 0.92268 0.36854 0.0
O24 O 0.03649 0.90995 0.39778 0.0
O25 O 0.15605 0.10783 0.42622 0.0
C26 C 0.09308 0.9505 0.68235 0.0
O27 O 0.00656 0.88343 0.68434 0.0
O28 O 0.95809 0.08031 0.69937 0.0
Zn29 Zn 0.03858 0.05168 0.7273 0.0
O30 O 0.12225 0.15878 0.75779 0.0
C31 C 0.95116 0.93922 0.78191 0.0
O32 O 0.00435 0.01598 0.79877 0.0
O33 O 0.12066 0.02607 0.69829 0.0
C34 C 0.11254 0.22649 0.7663 0.0
O35 O 0.04344 0.23315 0.75464 0.0
C36 C 0.88948 0.0875 0.70884 0.0
O37 O 0.86815 0.07957 0.73929 0.0
O38 O 0.95561 0.93798 0.75149 0.0
C39 C 0.99426 0.65615 0.27258 0.0
C40 C 0.99721 0.44252 0.19084 0.0
O41 O 0.07616 0.67669 0.26421 0.0
Zn42 Zn 0.14071 0.62494 0.23237 0.0
O43 O 0.92369 0.58502 0.26007 0.0
Zn44 Zn 0.99132 0.54664 0.23173 0.0
O45 O 0.05835 0.50237 0.26401 0.0
O46 O 0.21059 0.59384 0.26133 0.0
O47 O 0.92538 0.43889 0.20279 0.0
O48 O 0.07842 0.50713 0.19995 0.0
O49 O 0.20442 0.72489 0.20351 0.0
O50 O 0.05123 0.65582 0.19938 0.0
C51 C 0.14088 0.52444 0.2728 0.0
C52 C 0.13185 0.71864 0.19101 0.0
C53 C 0.64619 0.09542 0.61085 0.0
C54 C 0.46677 0.11752 0.52062 0.0
O55 O 0.58297 0.01868 0.5982 0.0
Zn56 Zn 0.48771 0.96774 0.55891 0.0
O57 O 0.65707 0.16991 0.60022 0.0
Zn58 Zn 0.55913 0.11504 0.56663 0.0
O59 O 0.43558 0.04321 0.59286 0.0
O60 O 0.3685 0.89482 0.57998 0.0
O61 O 0.52197 0.184 0.53976 0.0
O62 O 0.45393 0.03756 0.52506 0.0
O63 O 0.54569 0.91496 0.53174 0.0
O64 O 0.62299 0.06664 0.53324 0.0
C65 C 0.36816 0.96102 0.5956 0.0
C66 C 0.61425 0.9903 0.52286 0.0
C67 C 0.47213 0.42903 0.93511 0.0
C68 C 0.67834 0.64392 0.85612 0.0
O69 O 0.4494 0.48704 0.92649 0.0
Zn70 Zn 0.50031 0.60318 0.8973 0.0
O71 O 0.54597 0.43437 0.92436 0.0
Zn72 Zn 0.57803 0.53384 0.89551 0.0
O73 O 0.63163 0.65014 0.92816 0.0
O74 O 0.53655 0.70461 0.92909 0.0
O75 O 0.68044 0.57448 0.86584 0.0
O76 O 0.61547 0.6603 0.86607 0.0
O77 O 0.3969 0.5639 0.86725 0.0
O78 O 0.45858 0.47525 0.86401 0.0
C79 C 0.61102 0.70936 0.93899 0.0
C80 C 0.39651 0.49338 0.85506 0.0
C81 C 0.95502 0.29452 0.11427 0.0
C82 C 0.01617 0.26126 0.12059 0.0
C83 C 0.03671 0.32278 0.176 0.0
C84 C 0.99033 0.37014 0.16791 0.0
N85 N 0.91229 0.40864 0.12817 0.0
N86 N 0.12828 0.25814 0.1566 0.0
C87 C 0.95048 0.35755 0.13679 0.0
C88 C 0.05991 0.2783 0.15134 0.0
N89 N 0.89918 0.26379 0.0873 0.0
N90 N 0.05783 0.31964 0.20739 0.0
H91 H 0.15223 0.23062 0.13886 0.0
H92 H 0.16843 0.27808 0.17771 0.0
H93 H 0.03972 0.34987 0.22614 0.0
H94 H 0.0837 0.2787 0.21496 0.0
H95 H 0.84737 0.27936 0.08302 0.0
H96 H 0.89776 0.21483 0.0709 0.0
H97 H 0.89225 0.41005 0.10464 0.0
H98 H 0.90702 0.45498 0.14403 0.0
C99 C 0.85174 0.06113 0.48759 0.0
C100 C 0.82559 0.99882 0.4606 0.0
C101 C 0.66088 0.93541 0.47282 0.0
C102 C 0.68687 0.99214 0.50149 0.0
N103 N 0.80987 0.09988 0.53864 0.0
N104 N 0.70735 0.86741 0.42975 0.0
C105 C 0.78303 0.05286 0.50948 0.0
C106 C 0.73078 0.93265 0.45405 0.0
N107 N 0.94267 0.12892 0.49237 0.0
N108 N 0.57022 0.88909 0.46222 0.0
H109 H 0.7561 0.8659 0.4145 0.0
H110 H 0.64058 0.81091 0.42621 0.0
H111 H 0.51748 0.89311 0.47414 0.0
H112 H 0.54862 0.85441 0.43988 0.0
H113 H 0.96399 0.18476 0.50862 0.0
H114 H 0.99689 0.13303 0.47875 0.0
H115 H 0.8781 0.13359 0.5475 0.0
H116 H 0.76435 0.10018 0.55549 0.0
C117 C 0.91248 0.82221 0.82335 0.0
C118 C 0.88234 0.85614 0.79834 0.0
C119 C 0.72112 0.73602 0.8068 0.0
C120 C 0.74998 0.71013 0.83459 0.0
N121 N 0.87294 0.74104 0.87262 0.0
N122 N 0.75603 0.85361 0.76911 0.0
C123 C 0.84576 0.75585 0.84364 0.0
C124 C 0.78623 0.81468 0.79054 0.0
N125 N 0.0049 0.85207 0.82734 0.0
N126 N 0.63125 0.68505 0.7957 0.0
H127 H 0.80048 0.91179 0.75679 0.0
H128 H 0.68633 0.83321 0.76558 0.0
H129 H 0.5803 0.62944 0.80757 0.0
H130 H 0.60897 0.6932 0.77341 0.0
H131 H 0.03006 0.82297 0.84307 0.0
H132 H 0.05562 0.89959 0.81261 0.0
H133 H 0.9405 0.78053 0.88195 0.0
H134 H 0.82676 0.6955 0.88886 0.0
C135 C 0.06374 0.79865 0.11852 0.0
C136 C 0.09937 0.89255 0.12756 0.0
C137 C 0.17461 0.87782 0.17556 0.0
C138 C 0.13697 0.78308 0.16693 0.0
N139 N 0.06812 0.65939 0.12666 0.0
N140 N 0.20601 0.02752 0.15964 0.0
C141 C 0.08873 0.74556 0.13715 0.0
C142 C 0.16108 0.93419 0.15437 0.0
N143 N 1.00376 0.75972 0.0927 0.0
N144 N 0.21761 0.91256 0.20486 0.0
H145 H 0.1957 0.07034 0.14499 0.0
H146 H 0.25899 0.06335 0.1768 0.0
H147 H 0.22966 0.87417 0.22104 0.0
H148 H 0.23603 0.97779 0.21421 0.0
H149 H 0.96652 0.68934 0.08707 0.0
H150 H 0.98733 0.79765 0.07769 0.0
H151 H 0.03987 0.63037 0.10402 0.0
H152 H 0.08753 0.61994 0.13961 0.0
C153 C 0.28697 0.06097 0.45352 0.0
C154 C 0.30816 0.14901 0.44462 0.0
C155 C 0.4473 0.21536 0.4796 0.0
C156 C 0.41328 0.12904 0.49401 0.0
N157 N 0.28001 0.97252 0.49774 0.0
N158 N 0.40452 0.31379 0.45299 0.0
C159 C 0.32734 0.05236 0.4819 0.0
C160 C 0.38732 0.22763 0.4587 0.0
N161 N 0.23041 0.98522 0.43434 0.0
N162 N 0.53774 0.2839 0.48404 0.0
H163 H 0.36154 0.3258 0.43838 0.0
H164 H 0.45668 0.37255 0.46524 0.0
H165 H 0.58732 0.27518 0.49594 0.0
H166 H 0.5663 0.34498 0.47199 0.0
H167 H 0.21849 0.91984 0.43881 0.0
H168 H 0.20694 0.99053 0.41182 0.0
H169 H 0.21403 0.91983 0.49018 0.0
H170 H 0.29827 0.96201 0.52026 0.0
C171 C 0.27563 0.35104 0.77828 0.0
C172 C 0.18261 0.30013 0.78821 0.0
C173 C 0.22739 0.38432 0.84059 0.0
C174 C 0.32241 0.42874 0.83172 0.0
N175 N 0.43755 0.4389 0.79396 0.0
N176 N 0.06949 0.25885 0.82964 0.0
C177 C 0.34676 0.40768 0.80112 0.0
C178 C 0.15799 0.31491 0.81947 0.0
N179 N 0.29579 0.34745 0.74665 0.0
N180 N 0.20347 0.40615 0.86957 0.0
H181 H 0.01688 0.20749 0.81488 0.0
H182 H 0.04939 0.25825 0.85328 0.0
H183 H 0.25171 0.44785 0.88746 0.0
H184 H 0.13537 0.38591 0.8755 0.0
H185 H 0.36075 0.39118 0.73727 0.0
H186 H 0.24524 0.30739 0.72908 0.0
H187 H 0.45768 0.41632 0.77359 0.0
H188 H 0.493 0.48034 0.80953 0.0
C189 C 0.78571 0.0192 0.66032 0.0
C190 C 0.82535 0.08959 0.68478 0.0
C191 C 0.73642 0.15646 0.66384 0.0
C192 C 0.70864 0.09464 0.63641 0.0
N193 N 0.72558 0.97733 0.60626 0.0
N194 N 0.84856 0.23323 0.70768 0.0
C195 C 0.7384 0.02881 0.63398 0.0
C196 C 0.80362 0.16062 0.68597 0.0
N197 N 0.78956 0.94069 0.6628 0.0
N198 N 0.69503 0.20732 0.66992 0.0
H199 H 0.89793 0.23855 0.72427 0.0
H200 H 0.84272 0.29171 0.70733 0.0
H201 H 0.64132 0.20221 0.65563 0.0
H202 H 0.70651 0.24667 0.69113 0.0
H203 H 0.75271 0.88298 0.64733 0.0
H204 H 0.82045 0.92884 0.68232 0.0
H205 H 0.75683 0.93786 0.60254 0.0
H206 H 0.69237 0.97992 0.58567 0.0
C207 C 0.77617 0.94446 0.98069 0.0
C208 C 0.83536 0.92196 0.99757 0.0
C209 C 0.72471 0.75934 0.98489 0.0
C210 C 0.67764 0.78295 0.96228 0.0
N211 N 0.67178 0.90437 0.93507 0.0
N212 N 0.87386 0.8052 0.00887 0.0
C213 C 0.70614 0.87724 0.95929 0.0
C214 C 0.81166 0.82853 -0.00194 0.0
N215 N 0.78464 0.02879 0.98562 0.0
N216 N 0.68646 0.67077 0.99394 0.0
H217 H 0.94214 0.85324 0.01578 0.0
H218 H 0.86118 0.73806 0.00698 0.0
H219 H 0.6208 0.61872 0.98586 0.0
H220 H 0.71514 0.65203 0.01226 0.0
H221 H 0.73776 0.04519 0.97582 0.0
H222 H 0.83116 0.07802 0.00248 0.0
H223 H 0.6984 0.97334 0.93035 0.0
H224 H 0.62385 0.85936 0.91772 0.0
C225 C 0.94069 0.75839 0.34707 0.0
C226 C 1.00135 0.85356 0.3423 0.0
C227 C 0.03003 0.81471 0.28804 0.0
C228 C 0.98461 0.72059 0.29517 0.0
N229 N 0.90451 0.60286 0.3333 0.0
N230 N 0.11863 0.9707 0.30969 0.0
C231 C 0.94118 0.692 0.32509 0.0
C232 C 0.0495 0.88166 0.31305 0.0
N233 N 0.88072 0.73135 0.372 0.0
N234 N 0.05365 0.84018 0.25722 0.0
H235 H 0.14093 0.02156 0.32801 0.0
H236 H 0.16127 0.99165 0.28982 0.0
H237 H 0.03775 0.79244 0.2381 0.0
H238 H 0.079 0.90724 0.25026 0.0
H239 H 0.82941 0.66314 0.37487 0.0
H240 H 0.87544 0.77794 0.38774 0.0
H241 H 0.88154 0.58097 0.35626 0.0
H242 H 0.90391 0.55226 0.31799 0.0
C243 C 0.18116 0.00043 0.63152 0.0
C244 C 0.1549 0.94373 0.65822 0.0
C245 C 0.26289 0.89112 0.64258 0.0
C246 C 0.28851 0.9471 0.6156 0.0
N247 N 0.26019 0.04217 0.58103 0.0
N248 N 0.15663 0.82281 0.68637 0.0
C249 C 0.24413 0.99802 0.60914 0.0
C250 C 0.19081 0.88458 0.66269 0.0
N251 N 0.14666 0.05775 0.62775 0.0
N252 N 0.31165 0.84926 0.65028 0.0
H253 H 0.10733 0.8192 0.70251 0.0
H254 H 0.17196 0.77077 0.68866 0.0
H255 H 0.36534 0.85302 0.63644 0.0
H256 H 0.30402 0.81649 0.67161 0.0
H257 H 0.17311 0.11065 0.61181 0.0
H258 H 0.0937 0.05548 0.64166 0.0
H259 H 0.22171 0.07042 0.57283 0.0
H260 H 0.30777 0.04501 0.5644 0.0
C261 C 0.27991 0.30615 0.99381 0.0
C262 C 0.26571 0.21587 0.99266 0.0
C263 C 0.38718 0.26308 0.95247 0.0
C264 C 0.40925 0.35605 0.95701 0.0
N265 N 0.39391 0.46696 0.99105 0.0
N266 N 0.32744 0.11775 0.97758 0.0
C267 C 0.36135 0.37793 0.98064 0.0
C268 C 0.32596 0.19699 0.97407 0.0
N269 N 0.21342 0.3232 0.00541 0.0
N270 N 0.41904 0.23554 0.92672 0.0
H271 H 0.28834 0.07016 0.99454 0.0
H272 H 0.37594 0.10516 0.96636 0.0
H273 H 0.45851 0.2789 0.90882 0.0
H274 H 0.39693 0.16662 0.92123 0.0
H275 H 0.21884 0.38729 0.00431 0.0
H276 H 0.14792 0.2712 0.01186 0.0
H277 H 0.36435 0.4846 0.01 0.0
H278 H 0.45658 0.5215 0.98357 0.0
C279 C 0.18725 0.3441 0.30562 0.0
C280 C 0.12358 0.31461 0.33109 0.0
C281 C 0.10272 0.44658 0.32459 0.0
C282 C 0.15156 0.46497 0.2955 0.0
N283 N 0.23631 0.42733 0.25679 0.0
N284 N 0.01332 0.33334 0.3633 0.0
C285 C 0.19431 0.41385 0.28581 0.0
C286 C 0.08043 0.3655 0.34061 0.0
N287 N 0.24177 0.3061 0.30064 0.0
N288 N 0.07755 0.50691 0.33678 0.0
H289 H 0.99267 0.27313 0.37521 0.0
H290 H 0.9722 0.36213 0.3684 0.0
H291 H 0.094 0.56741 0.32563 0.0
H292 H 0.04923 0.50192 0.35938 0.0
H293 H 0.29575 0.33078 0.28442 0.0
H294 H 0.2392 0.25585 0.31507 0.0
H295 H 0.25798 0.38405 0.24678 0.0
H296 H 0.24339 0.4775 0.24145 0.0
loop_
_geom_bond_atom_site_label_1
_geom_bond_atom_site_label_2
_geom_bond_distance
_geom_bond_site_symmetry_2
_ccdc_geom_bond_type
C0 O1 1.160 . S
C0 O7 1.185 . S
O1 C0 1.160 . S
O2 Zn3 1.899 . S
O2 C10 1.284 1_455 S
Zn3 O2 1.899 . S
Zn3 O4 2.032 1_445 S
Zn3 O7 2.086 1_545 S
Zn3 O12 1.977 . S
O4 Zn3 2.032 1_665 S
O4 C8 1.278 . S
C5 O6 1.203 . S
C5 O12 1.267 . S
O6 C5 1.203 . S
O7 C0 1.185 . S
O7 Zn3 2.086 1_565 S
C8 O4 1.278 . S
C8 O9 1.211 1_565 S
O9 C8 1.211 1_545 S
C10 O2 1.284 1_655 S
C10 O11 1.273 . S
O11 C10 1.273 . S
O12 Zn3 1.977 . S
O12 C5 1.267 . S
C13 O14 1.160 . S
C13 O20 1.185 . S
O14 C13 1.160 . S
O15 Zn16 1.899 . S
O15 C23 1.284 1_545 S
Zn16 O15 1.899 . S
Zn16 O17 2.032 1_455 S
Zn16 O20 2.086 . S
Zn16 O25 1.977 . S
O17 Zn16 2.032 1_655 S
O17 C21 1.278 . S
C18 O19 1.203 . S
C18 O25 1.267 . S
O19 C18 1.203 . S
O20 C13 1.185 . S
O20 Zn16 2.086 . S
C21 O17 1.278 . S
C21 O22 1.211 . S
O22 C21 1.211 . S
C23 O15 1.284 1_565 S
C23 O24 1.273 1_455 S
O24 C23 1.273 1_655 S
O25 Zn16 1.977 . S
O25 C18 1.267 . S
C26 O27 1.160 . S
C26 O33 1.185 1_545 S
O27 C26 1.160 . S
O28 Zn29 1.899 1_655 S
O28 C36 1.284 . S
Zn29 O28 1.899 1_455 S
Zn29 O30 2.032 . S
Zn29 O33 2.086 1_545 S
Zn29 O38 1.977 1_445 S
O30 Zn29 2.032 . S
O30 C34 1.278 . S
C31 O32 1.203 . S
C31 O38 1.267 . S
O32 C31 1.203 . S
O33 C26 1.185 1_565 S
O33 Zn29 2.086 1_565 S
C34 O30 1.278 . S
C34 O35 1.211 . S
O35 C34 1.211 . S
C36 O28 1.284 . S
C36 O37 1.273 . S
O37 C36 1.273 . S
O38 Zn29 1.977 1_665 S
O38 C31 1.267 . S
C39 O41 1.247 . S
C39 O43 1.258 1_455 S
C40 O47 1.247 1_455 S
C40 O48 1.258 . S
O41 C39 1.247 . S
O41 Zn42 2.028 . S
Zn42 O41 2.028 . S
Zn42 O46 2.035 . S
Zn42 O48 2.035 . S
Zn42 O49 2.028 . S
O43 C39 1.258 1_655 S
O43 Zn44 2.035 . S
Zn44 O43 2.035 . S
Zn44 O45 2.028 . S
Zn44 O47 2.028 . S
Zn44 O50 2.035 . S
O45 Zn44 2.028 . S
O45 C51 1.247 1_655 S
O46 Zn42 2.035 . S
O46 C51 1.258 . S
O47 C40 1.247 1_655 S
O47 Zn44 2.028 . S
O48 C40 1.258 . S
O48 Zn42 2.035 . S
O49 Zn42 2.028 . S
O49 C52 1.247 . S
O50 Zn44 2.035 . S
O50 C52 1.258 1_655 S
C51 O45 1.247 1_455 S
C51 O46 1.258 . S
C52 O49 1.247 . S
C52 O50 1.258 1_455 S
C53 O55 1.247 1_545 S
C53 O57 1.258 . S
C54 O61 1.247 . S
C54 O62 1.258 1_545 S
O55 C53 1.247 1_565 S
O55 Zn56 2.028 . S
Zn56 O55 2.028 . S
Zn56 O60 2.035 . S
Zn56 O62 2.035 . S
Zn56 O63 2.028 . S
O57 C53 1.258 . S
O57 Zn58 2.035 . S
Zn58 O57 2.035 . S
Zn58 O59 2.028 . S
Zn58 O61 2.028 . S
Zn58 O64 2.035 . S
O59 Zn58 2.028 . S
O59 C65 1.247 . S
O60 Zn56 2.035 . S
O60 C65 1.258 1_565 S
O61 C54 1.247 . S
O61 Zn58 2.028 . S
O62 C54 1.258 1_565 S
O62 Zn56 2.035 . S
O63 Zn56 2.028 . S
O63 C66 1.247 1_565 S
O64 Zn58 2.035 . S
O64 C66 1.258 . S
C65 O59 1.247 . S
C65 O60 1.258 1_545 S
C66 O63 1.247 1_545 S
C66 O64 1.258 . S
C67 O69 1.247 . S
C67 O71 1.258 . S
C68 O75 1.247 . S
C68 O76 1.258 . S
O69 C67 1.247 . S
O69 Zn70 2.028 . S
Zn70 O69 2.028 . S
Zn70 O74 2.035 . S
Zn70 O76 2.035 . S
Zn70 O77 2.028 . S
O71 C67 1.258 . S
O71 Zn72 2.035 . S
Zn72 O71 2.035 . S
Zn72 O73 2.028 . S
Zn72 O75 2.028 . S
Zn72 O78 2.035 . S
O73 Zn72 2.028 . S
O73 C79 1.247 . S
O74 Zn70 2.035 . S
O74 C79 1.258 . S
O75 C68 1.247 . S
O75 Zn72 2.028 . S
O76 C68 1.258 . S
O76 Zn70 2.035 . S
O77 Zn70 2.028 . S
O77 C80 1.247 . S
O78 Zn72 2.035 . S
O78 C80 1.258 . S
C79 O73 1.247 . S
C79 O74 1.258 . S
C80 O77 1.247 . S
C80 O78 1.258 . S
C81 C82 1.363 1_655 S
C81 C87 1.379 . S
C81 N89 1.356 . S
C82 C81 1.363 1_455 S
C82 C88 1.363 . S
C83 C84 1.363 . S
C83 C88 1.379 . S
C83 N90 1.356 . S
C84 C83 1.363 . S
C84 C87 1.363 1_455 S
N85 C87 1.356 . S
N85 H97 0.984 . S
N85 H98 0.985 . S
N86 C88 1.356 . S
N86 H91 0.984 . S
N86 H92 0.985 . S
C87 C81 1.379 . S
C87 C84 1.363 1_655 S
C87 N85 1.356 . S
C88 C82 1.363 . S
C88 C83 1.379 . S
C88 N86 1.356 . S
N89 C81 1.356 . S
N89 H95 0.984 . S
N89 H96 0.984 . S
N90 C83 1.356 . S
N90 H93 0.984 . S
N90 H94 0.985 . S
H91 N86 0.984 . S
H92 N86 0.985 . S
H93 N90 0.984 . S
H94 N90 0.985 . S
H95 N89 0.984 . S
H96 N89 0.984 . S
H97 N85 0.984 . S
H98 N85 0.985 . S
C99 C100 1.363 . S
C99 C105 1.379 . S
C99 N107 1.356 . S
C100 C99 1.363 . S
C100 C106 1.363 1_545 S
C101 C102 1.363 1_565 S
C101 C106 1.379 . S
C101 N108 1.356 . S
C102 C101 1.363 1_545 S
C102 C105 1.363 . S
N103 C105 1.356 . S
N103 H115 0.984 . S
N103 H116 0.985 . S
N104 C106 1.356 . S
N104 H109 0.984 . S
N104 H110 0.985 . S
C105 C99 1.379 . S
C105 C102 1.363 . S
C105 N103 1.356 . S
C106 C100 1.363 1_565 S
C106 C101 1.379 . S
C106 N104 1.356 . S
N107 C99 1.356 . S
N107 H113 0.984 1_655 S
N107 H114 0.978 1_655 S
N108 C101 1.356 . S
N108 H111 0.984 . S
N108 H112 0.985 . S
H109 N104 0.984 . S
H110 N104 0.985 . S
H111 N108 0.984 . S
H112 N108 0.985 . S
H113 N107 0.984 1_455 S
H114 N107 0.978 1_455 S
H115 N103 0.984 . S
H116 N103 0.985 . S
C117 C118 1.363 . S
C117 C123 1.379 . S
C117 N125 1.356 . S
C118 C117 1.363 . S
C118 C124 1.363 . S
C119 C120 1.363 . S
C119 C124 1.379 . S
C119 N126 1.356 . S
C120 C119 1.363 . S
C120 C123 1.363 . S
N121 C123 1.356 . S
N121 H133 0.984 . S
N121 H134 0.985 . S
N122 C124 1.356 . S
N122 H127 0.984 . S
N122 H128 0.985 . S
C123 C117 1.379 . S
C123 C120 1.363 . S
C123 N121 1.356 . S
C124 C118 1.363 . S
C124 C119 1.379 . S
C124 N122 1.356 . S
N125 C117 1.356 . S
N125 H131 0.984 . S
N125 H132 0.984 . S
N126 C119 1.356 . S
N126 H129 0.984 . S
N126 H130 0.985 . S
H127 N122 0.984 . S
H128 N122 0.985 . S
H129 N126 0.984 . S
H130 N126 0.985 . S
H131 N125 0.984 . S
H132 N125 0.984 . S
H133 N121 0.984 . S
H134 N121 0.985 . S
C135 C136 1.363 . S
C135 C141 1.379 1_455 S
C135 N143 1.356 1_455 S
C136 C135 1.363 . S
C136 C142 1.363 . S
C137 C138 1.363 . S
C137 C142 1.379 . S
C137 N144 1.356 . S
C138 C137 1.363 . S
C138 C141 1.363 1_455 S
N139 C141 1.356 . S
N139 H151 0.984 . S
N139 H152 0.985 . S
N140 C142 1.356 . S
N140 H145 0.984 1_565 S
N140 H146 0.985 1_565 S
C141 C135 1.379 1_655 S
C141 C138 1.363 1_655 S
C141 N139 1.356 . S
C142 C136 1.363 . S
C142 C137 1.379 . S
C142 N140 1.356 . S
N143 C135 1.356 1_655 S
N143 H149 0.984 . S
N143 H150 0.984 . S
N144 C137 1.356 . S
N144 H147 0.984 . S
N144 H148 0.985 . S
H145 N140 0.984 1_545 S
H146 N140 0.985 1_545 S
H147 N144 0.984 . S
H148 N144 0.985 . S
H149 N143 0.984 . S
H150 N143 0.984 . S
H151 N139 0.984 . S
H152 N139 0.985 . S
C153 C154 1.363 . S
C153 C159 1.379 . S
C153 N161 1.356 1_545 S
C154 C153 1.363 . S
C154 C160 1.363 . S
C155 C156 1.363 . S
C155 C160 1.379 . S
C155 N162 1.356 . S
C156 C155 1.363 . S
C156 C159 1.363 . S
N157 C159 1.356 1_565 S
N157 H169 0.984 . S
N157 H170 0.985 . S
N158 C160 1.356 . S
N158 H163 0.984 . S
N158 H164 0.985 . S
C159 C153 1.379 . S
C159 C156 1.363 . S
C159 N157 1.356 1_545 S
C160 C154 1.363 . S
C160 C155 1.379 . S
C160 N158 1.356 . S
N161 C153 1.356 1_565 S
N161 H167 0.984 . S
N161 H168 0.984 1_565 S
N162 C155 1.356 . S
N162 H165 0.984 . S
N162 H166 0.985 . S
H163 N158 0.984 . S
H164 N158 0.985 . S
H165 N162 0.984 . S
H166 N162 0.985 . S
H167 N161 0.984 . S
H168 N161 0.984 1_545 S
H169 N157 0.984 . S
H170 N157 0.985 . S
C171 C172 1.363 . S
C171 C177 1.379 . S
C171 N179 1.356 . S
C172 C171 1.363 . S
C172 C178 1.363 . S
C173 C174 1.363 . S
C173 C178 1.379 . S
C173 N180 1.356 . S
C174 C173 1.363 . S
C174 C177 1.363 . S
N175 C177 1.356 . S
N175 H187 0.984 . S
N175 H188 0.985 . S
N176 C178 1.356 . S
N176 H181 0.984 . S
N176 H182 0.985 . S
C177 C171 1.379 . S
C177 C174 1.363 . S
C177 N175 1.356 . S
C178 C172 1.363 . S
C178 C173 1.379 . S
C178 N176 1.356 . S
N179 C171 1.356 . S
N179 H185 0.984 . S
N179 H186 0.984 . S
N180 C173 1.356 . S
N180 H183 0.984 . S
N180 H184 0.985 . S
H181 N176 0.984 . S
H182 N176 0.985 . S
H183 N180 0.984 . S
H184 N180 0.985 . S
H185 N179 0.984 . S
H186 N179 0.984 . S
H187 N175 0.984 . S
H188 N175 0.985 . S
C189 C190 1.363 . S
C189 C195 1.379 1_545 S
C189 N197 1.356 1_545 S
C190 C189 1.363 . S
C190 C196 1.363 . S
C191 C192 1.363 . S
C191 C196 1.379 . S
C191 N198 1.356 . S
C192 C191 1.363 . S
C192 C195 1.363 1_545 S
N193 C195 1.356 . S
N193 H205 0.984 . S
N193 H206 0.985 . S
N194 C196 1.356 . S
N194 H199 0.984 . S
N194 H200 0.985 . S
C195 C189 1.379 1_565 S
C195 C192 1.363 1_565 S
C195 N193 1.356 . S
C196 C190 1.363 . S
C196 C191 1.379 . S
C196 N194 1.356 . S
N197 C189 1.356 1_565 S
N197 H203 0.984 . S
N197 H204 0.984 . S
N198 C191 1.356 . S
N198 H201 0.984 . S
N198 H202 0.985 . S
H199 N194 0.984 . S
H200 N194 0.985 . S
H201 N198 0.984 . S
H202 N198 0.985 . S
H203 N197 0.984 . S
H204 N197 0.984 . S
H205 N193 0.984 . S
H206 N193 0.985 . S
C207 C208 1.363 1_556 S
C207 C213 1.379 . S
C207 N215 1.356 1_556 S
C208 C207 1.363 1_554 S
C208 C214 1.363 1_554 S
C209 C210 1.363 . S
C209 C214 1.379 . S
C209 N216 1.356 . S
C210 C209 1.363 . S
C210 C213 1.363 . S
N211 C213 1.356 . S
N211 H223 0.984 . S
N211 H224 0.985 . S
N212 C214 1.356 1_554 S
N212 H217 0.984 . S
N212 H218 0.985 . S
C213 C207 1.379 . S
C213 C210 1.363 . S
C213 N211 1.356 . S
C214 C208 1.363 1_556 S
C214 C209 1.379 . S
C214 N212 1.356 1_556 S
N215 C207 1.356 1_554 S
N215 H221 0.984 1_565 S
N215 H222 0.984 1_565 S
N216 C209 1.356 . S
N216 H219 0.984 . S
N216 H220 0.985 . S
H217 N212 0.984 . S
H218 N212 0.985 . S
H219 N216 0.984 . S
H220 N216 0.985 . S
H221 N215 0.984 1_545 S
H222 N215 0.984 1_545 S
H223 N211 0.984 . S
H224 N211 0.985 . S
C225 C226 1.363 1_655 S
C225 C231 1.379 . S
C225 N233 1.356 . S
C226 C225 1.363 1_455 S
C226 C232 1.363 . S
C227 C228 1.363 . S
C227 C232 1.379 . S
C227 N234 1.356 . S
C228 C227 1.363 . S
C228 C231 1.363 1_455 S
N229 C231 1.356 . S
N229 H241 0.984 . S
N229 H242 0.985 . S
N230 C232 1.356 . S
N230 H235 0.984 1_565 S
N230 H236 0.985 1_565 S
C231 C225 1.379 . S
C231 C228 1.363 1_655 S
C231 N229 1.356 . S
C232 C226 1.363 . S
C232 C227 1.379 . S
C232 N230 1.356 . S
N233 C225 1.356 . S
N233 H239 0.984 . S
N233 H240 0.984 . S
N234 C227 1.356 . S
N234 H237 0.984 . S
N234 H238 0.985 . S
H235 N230 0.984 1_545 S
H236 N230 0.985 1_545 S
H237 N234 0.984 . S
H238 N234 0.985 . S
H239 N233 0.984 . S
H240 N233 0.984 . S
H241 N229 0.984 . S
H242 N229 0.985 . S
C243 C244 1.363 . S
C243 C249 1.379 . S
C243 N251 1.356 . S
C244 C243 1.363 . S
C244 C250 1.363 1_545 S
C245 C246 1.363 1_565 S
C245 C250 1.379 . S
C245 N252 1.356 . S
C246 C245 1.363 1_545 S
C246 C249 1.363 . S
N247 C249 1.356 . S
N247 H259 0.984 . S
N247 H260 0.985 . S
N248 C250 1.356 . S
N248 H253 0.984 . S
N248 H254 0.985 . S
C249 C243 1.379 . S
C249 C246 1.363 . S
C249 N247 1.356 . S
C250 C244 1.363 1_565 S
C250 C245 1.379 . S
C250 N248 1.356 . S
N251 C243 1.356 . S
N251 H257 0.984 . S
N251 H258 0.984 . S
N252 C245 1.356 . S
N252 H255 0.984 . S
N252 H256 0.985 . S
H253 N248 0.984 . S
H254 N248 0.985 . S
H255 N252 0.984 . S
H256 N252 0.985 . S
H257 N251 0.984 . S
H258 N251 0.984 . S
H259 N247 0.984 . S
H260 N247 0.985 . S
C261 C262 1.363 . S
C261 C267 1.379 1_554 S
C261 N269 1.356 . S
C262 C261 1.363 . S
C262 C268 1.363 1_554 S
C263 C264 1.363 . S
C263 C268 1.379 . S
C263 N270 1.356 . S
C264 C263 1.363 . S
C264 C267 1.363 . S
N265 C267 1.356 . S
N265 H277 0.984 . S
N265 H278 0.985 . S
N266 C268 1.356 . S
N266 H271 0.984 1_556 S
N266 H272 0.985 . S
C267 C261 1.379 1_556 S
C267 C264 1.363 . S
C267 N265 1.356 . S
C268 C262 1.363 1_556 S
C268 C263 1.379 . S
C268 N266 1.356 . S
N269 C261 1.356 . S
N269 H275 0.984 . S
N269 H276 0.984 . S
N270 C263 1.356 . S
N270 H273 0.984 . S
N270 H274 0.985 . S
H271 N266 0.984 1_554 S
H272 N266 0.985 . S
H273 N270 0.984 . S
H274 N270 0.985 . S
H275 N269 0.984 . S
H276 N269 0.984 . S
H277 N265 0.984 . S
H278 N265 0.985 . S
C279 C280 1.363 . S
C279 C285 1.379 . S
C279 N287 1.356 . S
C280 C279 1.363 . S
C280 C286 1.363 . S
C281 C282 1.363 1_655 S
C281 C286 1.379 1_655 S
C281 N288 1.356 . S
C282 C281 1.363 1_455 S
C282 C285 1.363 . S
N283 C285 1.356 . S
N283 H295 0.984 . S
N283 H296 0.985 . S
N284 C286 1.356 1_655 S
N284 H289 0.984 1_655 S
N284 H290 0.985 . S
C285 C279 1.379 . S
C285 C282 1.363 . S
C285 N283 1.356 . S
C286 C280 1.363 . S
C286 C281 1.379 1_455 S
C286 N284 1.356 1_455 S
N287 C279 1.356 . S
N287 H293 0.984 . S
N287 H294 0.984 . S
N288 C281 1.356 . S
N288 H291 0.984 . S
N288 H292 0.985 . S
H289 N284 0.984 1_455 S
H290 N284 0.985 . S
H291 N288 0.984 . S
H292 N288 0.985 . S
H293 N287 0.984 . S
H294 N287 0.984 . S
H295 N283 0.984 . S
H296 N283 0.985 . S
C84 C40 1.444 . S
C82 C10 1.447 1_455 S
C100 C21 1.449 . S
C102 C66 1.491 . S
C118 C31 1.392 . S
C120 C68 1.471 . S
C136 C0 1.398 . S
C138 C52 1.458 . S
C156 C54 1.469 . S
C154 C18 1.386 . S
C172 C34 1.407 . S
C174 C80 1.447 . S
C192 C53 1.445 . S
C190 C36 1.450 . S
C208 C8 1.407 . S
C210 C79 1.449 . S
C228 C39 1.447 . S
C226 C23 1.449 . S
C246 C65 1.412 . S
C244 C26 1.352 . S
C264 C67 1.473 . S
C262 C5 1.392 . S
C280 C13 1.402 . S
C282 C51 1.467 . S
